# Generated by pormake.
# Topology gar, (4,6)-cn, num edge types: 1
# Building blocks:
#     Node 0, Type 0, BuildingBlock: QUQFOY_clean_sbu_3, # of connection points: 4
#     Node 1, Type 0, BuildingBlock: QUQFOY_clean_sbu_3, # of connection points: 4
#     Node 2, Type 0, BuildingBlock: QUQFOY_clean_sbu_3, # of connection points: 4
#     Node 3, Type 0, BuildingBlock: QUQFOY_clean_sbu_3, # of connection points: 4
#     Node 4, Type 0, BuildingBlock: QUQFOY_clean_sbu_3, # of connection points: 4
#     Node 5, Type 0, BuildingBlock: QUQFOY_clean_sbu_3, # of connection points: 4
#     Node 6, Type 0, BuildingBlock: QUQFOY_clean_sbu_3, # of connection points: 4
#     Node 7, Type 0, BuildingBlock: QUQFOY_clean_sbu_3, # of connection points: 4
#     Node 8, Type 0, BuildingBlock: QUQFOY_clean_sbu_3, # of connection points: 4
#     Node 9, Type 0, BuildingBlock: QUQFOY_clean_sbu_3, # of connection points: 4
#     Node 10, Type 0, BuildingBlock: QUQFOY_clean_sbu_3, # of connection points: 4
#     Node 11, Type 0, BuildingBlock: QUQFOY_clean_sbu_3, # of connection points: 4
#     Node 12, Type 0, BuildingBlock: QUQFOY_clean_sbu_3, # of connection points: 4
#     Node 13, Type 0, BuildingBlock: QUQFOY_clean_sbu_3, # of connection points: 4
#     Node 14, Type 0, BuildingBlock: QUQFOY_clean_sbu_3, # of connection points: 4
#     Node 15, Type 0, BuildingBlock: QUQFOY_clean_sbu_3, # of connection points: 4
#     Node 16, Type 0, BuildingBlock: QUQFOY_clean_sbu_3, # of connection points: 4
#     Node 17, Type 0, BuildingBlock: QUQFOY_clean_sbu_3, # of connection points: 4
#     Node 18, Type 0, BuildingBlock: QUQFOY_clean_sbu_3, # of connection points: 4
#     Node 19, Type 0, BuildingBlock: QUQFOY_clean_sbu_3, # of connection points: 4
#     Node 20, Type 0, BuildingBlock: QUQFOY_clean_sbu_3, # of connection points: 4
#     Node 21, Type 0, BuildingBlock: QUQFOY_clean_sbu_3, # of connection points: 4
#     Node 22, Type 0, BuildingBlock: QUQFOY_clean_sbu_3, # of connection points: 4
#     Node 23, Type 0, BuildingBlock: QUQFOY_clean_sbu_3, # of connection points: 4
#     Node 24, Type 1, BuildingBlock: MIFKUJ_clean_sbu_0, # of connection points: 6
#     Node 25, Type 1, BuildingBlock: MIFKUJ_clean_sbu_0, # of connection points: 6
#     Node 26, Type 1, BuildingBlock: MIFKUJ_clean_sbu_0, # of connection points: 6
#     Node 27, Type 1, BuildingBlock: MIFKUJ_clean_sbu_0, # of connection points: 6
#     Node 28, Type 1, BuildingBlock: MIFKUJ_clean_sbu_0, # of connection points: 6
#     Node 29, Type 1, BuildingBlock: MIFKUJ_clean_sbu_0, # of connection points: 6
#     Node 30, Type 1, BuildingBlock: MIFKUJ_clean_sbu_0, # of connection points: 6
#     Node 31, Type 1, BuildingBlock: MIFKUJ_clean_sbu_0, # of connection points: 6
#     Node 32, Type 1, BuildingBlock: MIFKUJ_clean_sbu_0, # of connection points: 6
#     Node 33, Type 1, BuildingBlock: MIFKUJ_clean_sbu_0, # of connection points: 6
#     Node 34, Type 1, BuildingBlock: MIFKUJ_clean_sbu_0, # of connection points: 6
#     Node 35, Type 1, BuildingBlock: MIFKUJ_clean_sbu_0, # of connection points: 6
#     Node 36, Type 1, BuildingBlock: MIFKUJ_clean_sbu_0, # of connection points: 6
#     Node 37, Type 1, BuildingBlock: MIFKUJ_clean_sbu_0, # of connection points: 6
#     Node 38, Type 1, BuildingBlock: MIFKUJ_clean_sbu_0, # of connection points: 6
#     Node 39, Type 1, BuildingBlock: MIFKUJ_clean_sbu_0, # of connection points: 6
#     Edge 40, Type (0, 1), BuildingBlock: TEMPAE_clean_linker_10, # of connection points: 2
#     Edge 41, Type (0, 1), BuildingBlock: TEMPAE_clean_linker_10, # of connection points: 2
#     Edge 42, Type (0, 1), BuildingBlock: TEMPAE_clean_linker_10, # of connection points: 2
#     Edge 43, Type (0, 1), BuildingBlock: TEMPAE_clean_linker_10, # of connection points: 2
#     Edge 44, Type (0, 1), BuildingBlock: TEMPAE_clean_linker_10, # of connection points: 2
#     Edge 45, Type (0, 1), BuildingBlock: TEMPAE_clean_linker_10, # of connection points: 2
#     Edge 46, Type (0, 1), BuildingBlock: TEMPAE_clean_linker_10, # of connection points: 2
#     Edge 47, Type (0, 1), BuildingBlock: TEMPAE_clean_linker_10, # of connection points: 2
#     Edge 48, Type (0, 1), BuildingBlock: TEMPAE_clean_linker_10, # of connection points: 2
#     Edge 49, Type (0, 1), BuildingBlock: TEMPAE_clean_linker_10, # of connection points: 2
#     Edge 50, Type (0, 1), BuildingBlock: TEMPAE_clean_linker_10, # of connection points: 2
#     Edge 51, Type (0, 1), BuildingBlock: TEMPAE_clean_linker_10, # of connection points: 2
#     Edge 52, Type (0, 1), BuildingBlock: TEMPAE_clean_linker_10, # of connection points: 2
#     Edge 53, Type (0, 1), BuildingBlock: TEMPAE_clean_linker_10, # of connection points: 2
#     Edge 54, Type (0, 1), BuildingBlock: TEMPAE_clean_linker_10, # of connection points: 2
#     Edge 55, Type (0, 1), BuildingBlock: TEMPAE_clean_linker_10, # of connection points: 2
#     Edge 56, Type (0, 1), BuildingBlock: TEMPAE_clean_linker_10, # of connection points: 2
#     Edge 57, Type (0, 1), BuildingBlock: TEMPAE_clean_linker_10, # of connection points: 2
#     Edge 58, Type (0, 1), BuildingBlock: TEMPAE_clean_linker_10, # of connection points: 2
#     Edge 59, Type (0, 1), BuildingBlock: TEMPAE_clean_linker_10, # of connection points: 2
#     Edge 60, Type (0, 1), BuildingBlock: TEMPAE_clean_linker_10, # of connection points: 2
#     Edge 61, Type (0, 1), BuildingBlock: TEMPAE_clean_linker_10, # of connection points: 2
#     Edge 62, Type (0, 1), BuildingBlock: TEMPAE_clean_linker_10, # of connection points: 2
#     Edge 63, Type (0, 1), BuildingBlock: TEMPAE_clean_linker_10, # of connection points: 2
#     Edge 64, Type (0, 1), BuildingBlock: TEMPAE_clean_linker_10, # of connection points: 2
#     Edge 65, Type (0, 1), BuildingBlock: TEMPAE_clean_linker_10, # of connection points: 2
#     Edge 66, Type (0, 1), BuildingBlock: TEMPAE_clean_linker_10, # of connection points: 2
#     Edge 67, Type (0, 1), BuildingBlock: TEMPAE_clean_linker_10, # of connection points: 2
#     Edge 68, Type (0, 1), BuildingBlock: TEMPAE_clean_linker_10, # of connection points: 2
#     Edge 69, Type (0, 1), BuildingBlock: TEMPAE_clean_linker_10, # of connection points: 2
#     Edge 70, Type (0, 1), BuildingBlock: TEMPAE_clean_linker_10, # of connection points: 2
#     Edge 71, Type (0, 1), BuildingBlock: TEMPAE_clean_linker_10, # of connection points: 2
#     Edge 72, Type (0, 1), BuildingBlock: TEMPAE_clean_linker_10, # of connection points: 2
#     Edge 73, Type (0, 1), BuildingBlock: TEMPAE_clean_linker_10, # of connection points: 2
#     Edge 74, Type (0, 1), BuildingBlock: TEMPAE_clean_linker_10, # of connection points: 2
#     Edge 75, Type (0, 1), BuildingBlock: TEMPAE_clean_linker_10, # of connection points: 2
#     Edge 76, Type (0, 1), BuildingBlock: TEMPAE_clean_linker_10, # of connection points: 2
#     Edge 77, Type (0, 1), BuildingBlock: TEMPAE_clean_linker_10, # of connection points: 2
#     Edge 78, Type (0, 1), BuildingBlock: TEMPAE_clean_linker_10, # of connection points: 2
#     Edge 79, Type (0, 1), BuildingBlock: TEMPAE_clean_linker_10, # of connection points: 2
#     Edge 80, Type (0, 1), BuildingBlock: TEMPAE_clean_linker_10, # of connection points: 2
#     Edge 81, Type (0, 1), BuildingBlock: TEMPAE_clean_linker_10, # of connection points: 2
#     Edge 82, Type (0, 1), BuildingBlock: TEMPAE_clean_linker_10, # of connection points: 2
#     Edge 83, Type (0, 1), BuildingBlock: TEMPAE_clean_linker_10, # of connection points: 2
#     Edge 84, Type (0, 1), BuildingBlock: TEMPAE_clean_linker_10, # of connection points: 2
#     Edge 85, Type (0, 1), BuildingBlock: TEMPAE_clean_linker_10, # of connection points: 2
#     Edge 86, Type (0, 1), BuildingBlock: TEMPAE_clean_linker_10, # of connection points: 2
#     Edge 87, Type (0, 1), BuildingBlock: TEMPAE_clean_linker_10, # of connection points: 2
#     Edge 88, Type (0, 1), BuildingBlock: TEMPAE_clean_linker_10, # of connection points: 2
#     Edge 89, Type (0, 1), BuildingBlock: TEMPAE_clean_linker_10, # of connection points: 2
#     Edge 90, Type (0, 1), BuildingBlock: TEMPAE_clean_linker_10, # of connection points: 2
#     Edge 91, Type (0, 1), BuildingBlock: TEMPAE_clean_linker_10, # of connection points: 2
#     Edge 92, Type (0, 1), BuildingBlock: TEMPAE_clean_linker_10, # of connection points: 2
#     Edge 93, Type (0, 1), BuildingBlock: TEMPAE_clean_linker_10, # of connection points: 2
#     Edge 94, Type (0, 1), BuildingBlock: TEMPAE_clean_linker_10, # of connection points: 2
#     Edge 95, Type (0, 1), BuildingBlock: TEMPAE_clean_linker_10, # of connection points: 2
#     Edge 96, Type (0, 1), BuildingBlock: TEMPAE_clean_linker_10, # of connection points: 2
#     Edge 97, Type (0, 1), BuildingBlock: TEMPAE_clean_linker_10, # of connection points: 2
#     Edge 98, Type (0, 1), BuildingBlock: TEMPAE_clean_linker_10, # of connection points: 2
#     Edge 99, Type (0, 1), BuildingBlock: TEMPAE_clean_linker_10, # of connection points: 2
#     Edge 100, Type (0, 1), BuildingBlock: TEMPAE_clean_linker_10, # of connection points: 2
#     Edge 101, Type (0, 1), BuildingBlock: TEMPAE_clean_linker_10, # of connection points: 2
#     Edge 102, Type (0, 1), BuildingBlock: TEMPAE_clean_linker_10, # of connection points: 2
#     Edge 103, Type (0, 1), BuildingBlock: TEMPAE_clean_linker_10, # of connection points: 2
#     Edge 104, Type (0, 1), BuildingBlock: TEMPAE_clean_linker_10, # of connection points: 2
#     Edge 105, Type (0, 1), BuildingBlock: TEMPAE_clean_linker_10, # of connection points: 2
#     Edge 106, Type (0, 1), BuildingBlock: TEMPAE_clean_linker_10, # of connection points: 2
#     Edge 107, Type (0, 1), BuildingBlock: TEMPAE_clean_linker_10, # of connection points: 2
#     Edge 108, Type (0, 1), BuildingBlock: TEMPAE_clean_linker_10, # of connection points: 2
#     Edge 109, Type (0, 1), BuildingBlock: TEMPAE_clean_linker_10, # of connection points: 2
#     Edge 110, Type (0, 1), BuildingBlock: TEMPAE_clean_linker_10, # of connection points: 2
#     Edge 111, Type (0, 1), BuildingBlock: TEMPAE_clean_linker_10, # of connection points: 2
#     Edge 112, Type (0, 1), BuildingBlock: TEMPAE_clean_linker_10, # of connection points: 2
#     Edge 113, Type (0, 1), BuildingBlock: TEMPAE_clean_linker_10, # of connection points: 2
#     Edge 114, Type (0, 1), BuildingBlock: TEMPAE_clean_linker_10, # of connection points: 2
#     Edge 115, Type (0, 1), BuildingBlock: TEMPAE_clean_linker_10, # of connection points: 2
#     Edge 116, Type (0, 1), BuildingBlock: TEMPAE_clean_linker_10, # of connection points: 2
#     Edge 117, Type (0, 1), BuildingBlock: TEMPAE_clean_linker_10, # of connection points: 2
#     Edge 118, Type (0, 1), BuildingBlock: TEMPAE_clean_linker_10, # of connection points: 2
#     Edge 119, Type (0, 1), BuildingBlock: TEMPAE_clean_linker_10, # of connection points: 2
#     Edge 120, Type (0, 1), BuildingBlock: TEMPAE_clean_linker_10, # of connection points: 2
#     Edge 121, Type (0, 1), BuildingBlock: TEMPAE_clean_linker_10, # of connection points: 2
#     Edge 122, Type (0, 1), BuildingBlock: TEMPAE_clean_linker_10, # of connection points: 2
#     Edge 123, Type (0, 1), BuildingBlock: TEMPAE_clean_linker_10, # of connection points: 2
#     Edge 124, Type (0, 1), BuildingBlock: TEMPAE_clean_linker_10, # of connection points: 2
#     Edge 125, Type (0, 1), BuildingBlock: TEMPAE_clean_linker_10, # of connection points: 2
#     Edge 126, Type (0, 1), BuildingBlock: TEMPAE_clean_linker_10, # of connection points: 2
#     Edge 127, Type (0, 1), BuildingBlock: TEMPAE_clean_linker_10, # of connection points: 2
#     Edge 128, Type (0, 1), BuildingBlock: TEMPAE_clean_linker_10, # of connection points: 2
#     Edge 129, Type (0, 1), BuildingBlock: TEMPAE_clean_linker_10, # of connection points: 2
#     Edge 130, Type (0, 1), BuildingBlock: TEMPAE_clean_linker_10, # of connection points: 2
#     Edge 131, Type (0, 1), BuildingBlock: TEMPAE_clean_linker_10, # of connection points: 2
#     Edge 132, Type (0, 1), BuildingBlock: TEMPAE_clean_linker_10, # of connection points: 2
#     Edge 133, Type (0, 1), BuildingBlock: TEMPAE_clean_linker_10, # of connection points: 2
#     Edge 134, Type (0, 1), BuildingBlock: TEMPAE_clean_linker_10, # of connection points: 2
#     Edge 135, Type (0, 1), BuildingBlock: TEMPAE_clean_linker_10, # of connection points: 2
# Relax obj value: 0.096
# Max RMSD: 0.284
# Mean RMSD: 0.126
data_MOF--net-gar--node1-QUQFOY_clean_sbu_3--node2-MIFKUJ_clean_sbu_0--edge1-TEMPAE_clean_linker_10
_symmetry_space_group_name_H-M    P1
_symmetry_Int_Tables_number       1
_symmetry_cell_setting            triclinic
loop_
_symmetry_equiv_pos_as_xyz
'x, y, z'
_cell_length_a     57.037501
_cell_length_b     58.149692
_cell_length_c     55.437575
_cell_angle_alpha  95.525954
_cell_angle_beta   94.537262
_cell_angle_gamma 99.345377
loop_
_atom_site_label
_atom_site_type_symbol
_atom_site_fract_x
_atom_site_fract_y
_atom_site_fract_z
_atom_type_partial_charge
C0 C 0.98401 0.27058 0.35824 0.0
O1 O -0.00184 0.28458 0.34762 0.0
Cd2 Cd 0.04083 0.29176 0.35542 0.0
O3 O 0.99186 0.25947 0.37502 0.0
Cd4 Cd 0.03075 0.25698 0.39729 0.0
C5 C 0.04378 0.3163 0.41427 0.0
O6 O 0.05108 0.2541 0.36063 0.0
O7 O 0.07341 0.25527 0.39397 0.0
O8 O 0.01452 0.21662 0.40348 0.0
C9 C 0.07155 0.25354 0.37091 0.0
O10 O 0.04817 0.31903 0.39247 0.0
C11 C 0.02009 0.2193 0.42635 0.0
O12 O 0.03621 0.29599 0.42023 0.0
O13 O 0.03041 0.23957 0.43567 0.0
C14 C 0.96498 0.73807 0.67503 0.0
O15 O 0.97775 0.7252 0.68542 0.0
Cd16 Cd 0.01599 0.71738 0.6762 0.0
O17 O 0.97193 0.74865 0.65701 0.0
Cd18 Cd 0.00725 0.75247 0.63254 0.0
C19 C 0.00094 0.69297 0.61668 0.0
O20 O 0.03446 0.75505 0.66846 0.0
O21 O 0.05169 0.7586 0.63564 0.0
O22 O 0.00166 0.79223 0.62525 0.0
C23 C 0.05367 0.75774 0.65844 0.0
O24 O 0.00737 0.69075 0.63875 0.0
C25 C 0.00203 0.78885 0.60228 0.0
O26 O -0.00102 0.713 0.61001 0.0
O27 O 0.00441 0.76847 0.59348 0.0
C28 C 0.49026 0.77532 0.86609 0.0
O29 O 0.50527 0.7893 0.85637 0.0
Cd30 Cd 0.54772 0.79468 0.86498 0.0
O31 O 0.4971 0.76289 0.88217 0.0
Cd32 Cd 0.53516 0.75724 0.90422 0.0
C33 C 0.54924 0.81578 0.92486 0.0
O34 O 0.55546 0.75573 0.86758 0.0
O35 O 0.57759 0.75401 0.9003 0.0
O36 O 0.51624 0.71707 0.90877 0.0
C37 C 0.57569 0.75369 0.87733 0.0
O38 O 0.55449 0.81982 0.90359 0.0
C39 C 0.52279 0.71837 0.9314 0.0
O40 O 0.54106 0.79507 0.92926 0.0
O41 O 0.53483 0.73776 0.94125 0.0
C42 C 0.46686 0.23679 0.18226 0.0
O43 O 0.48067 0.226 0.19421 0.0
Cd44 Cd 0.51963 0.22118 0.18452 0.0
O45 O 0.47336 0.24604 0.16334 0.0
Cd46 Cd 0.50959 0.24989 0.14019 0.0
C47 C 0.50669 0.1913 0.12726 0.0
O48 O 0.53852 0.259 0.1761 0.0
O49 O 0.55317 0.25182 0.14214 0.0
O50 O 0.50317 0.28897 0.13119 0.0
C51 C 0.55685 0.25841 0.16477 0.0
O52 O 0.51424 0.19132 0.1495 0.0
C53 C 0.50466 0.28529 0.10845 0.0
O54 O 0.50205 0.21003 0.11926 0.0
O55 O 0.50799 0.265 0.10043 0.0
C56 C 0.00038 0.76449 0.182 0.0
O57 O 0.01501 0.75387 0.1931 0.0
Cd58 Cd 0.0559 0.75487 0.18594 0.0
O59 O 0.00624 0.77604 0.16432 0.0
Cd60 Cd 0.04117 0.78452 0.14044 0.0
C61 C 0.04557 0.72644 0.128 0.0
O62 O 0.06721 0.79395 0.1769 0.0
O63 O 0.08567 0.79521 0.14474 0.0
O64 O 0.03011 0.82213 0.13289 0.0
C65 C 0.08684 0.79795 0.16781 0.0
O66 O 0.05403 0.72678 0.15002 0.0
C67 C 0.03002 0.81886 0.1099 0.0
O68 O 0.03828 0.74433 0.12048 0.0
O69 O 0.03468 0.79934 0.10099 0.0
C70 C 0.47684 0.75601 0.35457 0.0
O71 O 0.49272 0.76932 0.34522 0.0
Cd72 Cd 0.53327 0.77961 0.36085 0.0
O73 O 0.48189 0.74745 0.37434 0.0
Cd74 Cd 0.5186 0.74908 0.40295 0.0
C75 C 0.52606 0.8078 0.41623 0.0
O76 O 0.54147 0.74226 0.36924 0.0
O77 O 0.56298 0.75223 0.4032 0.0
O78 O 0.49951 0.71016 0.41104 0.0
C79 C 0.56179 0.74486 0.3808 0.0
O80 O 0.53495 0.809 0.39594 0.0
C81 C 0.50891 0.71184 0.4328 0.0
O82 O 0.51689 0.78814 0.4226 0.0
O83 O 0.52216 0.73115 0.44099 0.0
C84 C 0.49362 0.266 0.69027 0.0
O85 O 0.50855 0.25667 0.70259 0.0
Cd86 Cd 0.5476 0.25271 0.69303 0.0
O87 O 0.49873 0.27467 0.67061 0.0
Cd88 Cd 0.53365 0.28157 0.64589 0.0
C89 C 0.53392 0.22292 0.63497 0.0
O90 O 0.55952 0.29081 0.68234 0.0
O91 O 0.57854 0.2905 0.65067 0.0
O92 O 0.5197 0.31781 0.6382 0.0
C93 C 0.5794 0.29352 0.6737 0.0
O94 O 0.54195 0.22353 0.65719 0.0
C95 C 0.52406 0.31704 0.61606 0.0
O96 O 0.52829 0.24114 0.62657 0.0
O97 O 0.53239 0.29933 0.60747 0.0
C98 C 0.9697 0.25475 0.85571 0.0
O99 O 0.98514 0.26888 0.8467 0.0
Cd100 Cd 0.02639 0.27768 0.8601 0.0
O101 O 0.97559 0.24442 0.87402 0.0
Cd102 Cd 0.01307 0.24387 0.90059 0.0
C103 C 0.02127 0.30266 0.91733 0.0
O104 O 0.03412 0.23941 0.86527 0.0
O105 O 0.05722 0.24553 0.89846 0.0
O106 O -0.00409 0.20354 0.90613 0.0
C107 C 0.05478 0.2403 0.87556 0.0
O108 O 0.02942 0.30518 0.89685 0.0
C109 C 0.00313 0.20506 0.92858 0.0
O110 O 0.01257 0.28242 0.92268 0.0
O111 O 0.01449 0.22485 0.93818 0.0
C112 C 0.42465 0.0225 0.30568 0.0
O113 O 0.43505 0.01266 0.28919 0.0
Cd114 Cd 0.42216 0.00556 0.24727 0.0
O115 O 0.40489 0.02945 0.30048 0.0
Cd116 Cd 0.37828 0.02914 0.26191 0.0
C117 C 0.3687 0.96995 0.2507 0.0
O118 O 0.41098 0.04197 0.23933 0.0
O119 O 0.37894 0.02763 0.21655 0.0
O120 O 0.36697 0.06672 0.2759 0.0
C121 C 0.40034 0.03824 0.21819 0.0
O122 O 0.38935 0.9721 0.24309 0.0
C123 C 0.34473 0.06006 0.27013 0.0
O124 O 0.36101 0.98777 0.26011 0.0
O125 O 0.33809 0.03882 0.26131 0.0
C126 C 0.2778 0.09226 0.50514 0.0
O127 O 0.26023 0.08094 0.51414 0.0
Cd128 Cd 0.22159 0.09044 0.51622 0.0
O129 O 0.27603 0.11113 0.4955 0.0
Cd130 Cd 0.24385 0.13519 0.48683 0.0
C131 C 0.23789 0.14566 0.54786 0.0
O132 O 0.21529 0.10029 0.47613 0.0
O133 O 0.19923 0.13101 0.47687 0.0
O134 O 0.26015 0.14478 0.4485 0.0
C135 C 0.19655 0.10885 0.4729 0.0
O136 O 0.22745 0.12446 0.54713 0.0
C137 C 0.25975 0.16662 0.45215 0.0
O138 O 0.24626 0.15344 0.52901 0.0
O139 O 0.25249 0.17386 0.47212 0.0
C140 C 0.09685 0.01079 0.81319 0.0
O141 O 0.08686 0.02326 0.79936 0.0
Cd142 Cd 0.09802 0.03205 0.7605 0.0
O143 O 0.11453 0.00157 0.80662 0.0
Cd144 Cd 0.13753 0.00102 0.76971 0.0
C145 C 0.15571 0.05993 0.7759 0.0
O146 O 0.103 0.99549 0.73952 0.0
O147 O 0.13711 0.00462 0.7257 0.0
O148 O 0.14213 0.96002 0.77157 0.0
C149 C 0.11475 -0.00191 0.72126 0.0
O150 O 0.13441 0.06128 0.76821 0.0
C151 C 0.16476 0.96381 0.77236 0.0
O152 O 0.16155 0.04019 0.77931 0.0
O153 O 0.17476 0.98499 0.77252 0.0
C154 C 0.29386 0.92433 0.02052 0.0
O155 O 0.28171 0.93615 0.0079 0.0
Cd156 Cd 0.23948 0.92638 -0.00156 0.0
O157 O 0.28379 0.90623 0.02942 0.0
Cd158 Cd 0.24236 0.88481 0.03043 0.0
C159 C 0.23474 0.87149 0.96881 0.0
O160 O 0.22623 0.92038 0.03791 0.0
O161 O 0.19959 0.88922 0.03008 0.0
O162 O 0.25139 0.87373 0.07139 0.0
C163 C 0.20456 0.91103 0.03703 0.0
O164 O 0.23217 0.89256 0.96664 0.0
C165 C 0.24567 0.85182 0.06501 0.0
O166 O 0.23949 0.86518 0.98968 0.0
O167 O 0.23823 0.84548 0.04282 0.0
C168 C 0.29339 0.42788 0.03013 0.0
O169 O 0.28046 0.43774 0.01608 0.0
Cd170 Cd 0.24014 0.42382 0.00155 0.0
O171 O 0.28479 0.40878 0.03831 0.0
Cd172 Cd 0.24485 0.38214 0.03524 0.0
C173 C 0.2458 0.36937 0.97415 0.0
O174 O 0.2227 0.41394 0.0375 0.0
O175 O 0.20078 0.3803 0.02696 0.0
O176 O 0.24966 0.37631 0.07847 0.0
C177 C 0.20198 0.40215 0.03262 0.0
O178 O 0.24183 0.39008 0.97226 0.0
C179 C 0.24667 0.35408 0.07509 0.0
O180 O 0.2484 0.36204 0.99496 0.0
O181 O 0.24314 0.34482 0.05312 0.0
C182 C 0.81824 0.0914 0.04249 0.0
O183 O 0.81265 0.08481 0.06274 0.0
Cd184 Cd 0.77834 0.09452 0.08078 0.0
O185 O 0.80723 0.10577 0.03221 0.0
Cd186 Cd 0.77556 0.12835 0.04332 0.0
C187 C 0.79542 0.1513 0.10147 0.0
O188 O 0.74766 0.09265 0.04748 0.0
O189 O 0.73435 0.12508 0.05421 0.0
O190 O 0.76874 0.13296 2e-05 0.0
C191 C 0.73002 0.10289 0.0507 0.0
O192 O 0.78912 0.13087 0.10759 0.0
C193 C 0.77001 0.15505 0.00321 0.0
O194 O 0.79411 0.15466 0.07915 0.0
O195 O 0.77402 0.16465 0.02499 0.0
C196 C 0.08915 0.50363 0.28852 0.0
O197 O 0.0789 0.51338 0.2721 0.0
Cd198 Cd 0.09106 0.52019 0.23334 0.0
O199 O 0.10892 0.49643 0.28569 0.0
Cd200 Cd 0.13663 0.49433 0.25259 0.0
C201 C 0.14641 0.554 0.25098 0.0
O202 O 0.10246 0.48329 0.22485 0.0
O203 O 0.13404 0.48607 0.20643 0.0
O204 O 0.14673 0.45808 0.26649 0.0
C205 C 0.11144 0.48135 0.20496 0.0
O206 O 0.12522 0.55229 0.24094 0.0
C207 C 0.16908 0.46374 0.26549 0.0
O208 O 0.15414 0.53605 0.25774 0.0
O209 O 0.17634 0.48381 0.25897 0.0
C210 C 0.78892 0.92796 0.52622 0.0
O211 O 0.77545 0.93635 0.51124 0.0
Cd212 Cd 0.73403 0.92459 0.49943 0.0
O213 O 0.78074 0.91039 0.53717 0.0
Cd214 Cd 0.7407 0.88464 0.53772 0.0
C215 C 0.73691 0.86833 0.47605 0.0
O216 O 0.72153 0.91798 0.53795 0.0
O217 O 0.69643 0.88608 0.53598 0.0
O218 O 0.74929 0.87912 0.58076 0.0
C219 C 0.70006 0.90828 0.53716 0.0
O220 O 0.7316 0.88827 0.47255 0.0
C221 C 0.74419 0.85686 0.57756 0.0
O222 O 0.74228 0.86331 0.49745 0.0
O223 O 0.7379 0.84758 0.55584 0.0
C224 C 0.91825 0.00927 0.28679 0.0
O225 O 0.93002 -0.00125 0.27205 0.0
Cd226 Cd 0.91894 0.98869 0.2293 0.0
O227 O 0.8993 0.01657 0.27929 0.0
Cd228 Cd 0.87521 0.01825 0.2398 0.0
C229 C 0.86195 0.9583 0.23166 0.0
O230 O 0.90952 0.02428 0.21693 0.0
O231 O 0.87605 0.01955 0.19489 0.0
O232 O 0.86925 0.05815 0.25295 0.0
C233 C 0.89867 0.02332 0.196 0.0
O234 O 0.8834 0.95826 0.22672 0.0
C235 C 0.84659 0.05369 0.24983 0.0
O236 O 0.85478 0.97747 0.23788 0.0
O237 O 0.83716 0.03262 0.24235 0.0
C238 C 0.29601 0.59201 0.52579 0.0
O239 O 0.27862 0.58216 0.53618 0.0
Cd240 Cd 0.2423 0.59663 0.54098 0.0
O241 O 0.29555 0.61183 0.51781 0.0
Cd242 Cd 0.26651 0.6395 0.51652 0.0
C243 C 0.26248 0.64812 0.57677 0.0
O244 O 0.23334 0.60868 0.50193 0.0
O245 O 0.22323 0.64176 0.51307 0.0
O246 O 0.28042 0.65251 0.47863 0.0
C247 C 0.21707 0.62096 0.50289 0.0
O248 O 0.24815 0.62865 0.57427 0.0
C249 C 0.28184 0.67422 0.48547 0.0
O250 O 0.27383 0.65498 0.55923 0.0
O251 O 0.277 0.67966 0.50699 0.0
C252 C 0.42263 0.49264 0.79776 0.0
O253 O 0.43451 0.48258 0.7828 0.0
Cd254 Cd 0.42436 0.47704 0.73971 0.0
O255 O 0.40484 0.50177 0.79036 0.0
Cd256 Cd 0.38338 0.50891 0.75149 0.0
C257 C 0.36555 0.44988 0.7379 0.0
O258 O 0.41964 0.51566 0.73175 0.0
O259 O 0.38796 0.51572 0.70816 0.0
O260 O 0.37985 0.54689 0.77264 0.0
C261 C 0.41055 0.51815 0.71085 0.0
O262 O 0.38701 0.44856 0.73387 0.0
C263 C 0.35784 0.5457 0.76588 0.0
O264 O 0.35978 0.46949 0.7451 0.0
O265 O 0.34763 0.5273 0.75246 0.0
C266 C 0.58232 0.98801 0.79201 0.0
O267 O 0.57042 0.99723 0.77634 0.0
Cd268 Cd 0.5798 0.00465 0.73651 0.0
O269 O 0.60202 0.98142 0.78753 0.0
Cd270 Cd 0.62716 0.97997 0.7524 0.0
C271 C 0.63496 0.03966 0.75079 0.0
O272 O 0.59233 0.96875 0.72489 0.0
O273 O 0.62399 0.97342 0.70649 0.0
O274 O 0.63995 0.94348 0.76247 0.0
C275 C 0.60141 0.9682 0.70493 0.0
O276 O 0.61327 0.03768 0.74211 0.0
C277 C 0.66216 0.95147 0.76337 0.0
O278 O 0.64344 0.02183 0.75678 0.0
O279 O 0.66796 0.97271 0.75947 0.0
C280 C 0.7782 0.5938 0.00737 0.0
O281 O 0.76046 0.58189 0.01555 0.0
Cd282 Cd 0.72143 0.59075 0.01666 0.0
O283 O 0.77632 0.61272 -0.00212 0.0
Cd284 Cd 0.74407 0.63624 0.98811 0.0
C285 C 0.7368 0.64593 0.04875 0.0
O286 O 0.71556 0.60149 0.97694 0.0
O287 O 0.69959 0.63228 0.97808 0.0
O288 O 0.76098 0.64546 0.95012 0.0
C289 C 0.69681 0.61012 0.97404 0.0
O290 O 0.72641 0.62466 0.04763 0.0
C291 C 0.76055 0.66731 0.95346 0.0
O292 O 0.74566 0.654 0.03025 0.0
O293 O 0.75297 0.67477 0.97317 0.0
C294 C 0.9171 0.50879 0.80424 0.0
O295 O 0.9269 0.49589 0.7897 0.0
Cd296 Cd 0.92068 0.48966 0.74673 0.0
O297 O 0.90048 0.51941 0.79655 0.0
Cd298 Cd 0.87828 0.52058 0.75579 0.0
C299 C 0.86375 0.46057 0.74516 0.0
O300 O 0.91565 0.52808 0.73979 0.0
O301 O 0.88675 0.52428 0.71197 0.0
O302 O 0.8685 0.5589 0.77008 0.0
C303 C 0.90911 0.52887 0.71776 0.0
O304 O 0.88466 0.46004 0.73891 0.0
C305 C 0.84692 0.55423 0.76083 0.0
O306 O 0.85775 0.47973 0.75352 0.0
O307 O 0.83991 0.53381 0.74978 0.0
C308 C 0.79373 0.42441 0.51341 0.0
O309 O 0.77943 0.4341 0.50069 0.0
Cd310 Cd 0.73705 0.42351 0.49776 0.0
O311 O 0.78592 0.40727 0.52501 0.0
Cd312 Cd 0.7468 0.384 0.53147 0.0
C313 C 0.73047 0.36749 0.47081 0.0
O314 O 0.73126 0.41947 0.53977 0.0
O315 O 0.70536 0.38842 0.5405 0.0
O316 O 0.76572 0.37557 0.57015 0.0
C317 C 0.71052 0.41061 0.54398 0.0
O318 O 0.72704 0.38825 0.46833 0.0
C319 C 0.75748 0.35373 0.56678 0.0
O320 O 0.73838 0.36234 0.49131 0.0
O321 O 0.74436 0.34625 0.54714 0.0
C322 C 0.59826 0.51746 0.32352 0.0
O323 O 0.59004 0.53027 0.30874 0.0
Cd324 Cd 0.60359 0.53966 0.27066 0.0
O325 O 0.61645 0.508 0.31913 0.0
Cd326 Cd 0.6439 0.50683 0.28574 0.0
C327 C 0.66124 0.56671 0.28887 0.0
O328 O 0.61128 0.50275 0.2541 0.0
O329 O 0.64558 0.50178 0.24094 0.0
O330 O 0.6503 0.46715 0.29295 0.0
C331 C 0.6234 0.50106 0.23612 0.0
O332 O 0.6402 0.5682 0.28037 0.0
C333 C 0.67296 0.47213 0.29462 0.0
O334 O 0.66674 0.547 0.29306 0.0
O335 O 0.68193 0.49333 0.29307 0.0
Zn336 Zn 0.03014 0.00725 0.02533 0.0
Zn337 Zn 0.98589 0.00538 0.99579 0.0
C338 C 0.03211 0.95863 0.01829 0.0
O339 O 0.05227 0.96708 0.00988 0.0
C340 C 0.98567 0.05451 0.00538 0.0
O341 O 0.96595 0.04652 0.01484 0.0
O342 O 0.06234 0.00926 0.04391 0.0
O343 O 0.036 0.01513 0.99139 0.0
O344 O 0.00615 0.98837 0.97462 0.0
C345 C 0.08158 0.01556 0.03439 0.0
O346 O 0.08077 0.02682 0.01499 0.0
O347 O 0.01794 0.97255 0.0241 0.0
C348 C 0.93473 0.99528 0.98556 0.0
O349 O 0.93572 0.97976 0.00118 0.0
O350 O 0.95393 0.00463 0.97776 0.0
O351 O 0.97975 0.99639 0.02929 0.0
O352 O 0.00889 0.02406 0.04584 0.0
O353 O -0.00129 0.04007 -0.00216 0.0
C354 C 0.02655 0.00054 0.97334 0.0
C355 C 0.98869 0.01147 0.0471 0.0
Zn356 Zn 0.26653 0.76203 0.29863 0.0
Zn357 Zn 0.27409 0.75656 0.24644 0.0
C358 C 0.23623 0.71814 0.29812 0.0
O359 O 0.22619 0.73134 0.31337 0.0
C360 C 0.27701 0.80549 0.24045 0.0
O361 O 0.26004 0.79711 0.22291 0.0
O362 O 0.26519 0.76582 0.33494 0.0
O363 O 0.30084 0.76985 0.29299 0.0
O364 O 0.2985 0.74077 0.26415 0.0
C365 C 0.28348 0.77381 0.34981 0.0
O366 O 0.30306 0.78391 0.34152 0.0
O367 O 0.25478 0.72733 0.28897 0.0
C368 C 0.25637 0.746 0.19568 0.0
O369 O 0.23644 0.73747 0.20443 0.0
O370 O 0.27535 0.7518 0.2101 0.0
O371 O 0.23953 0.75022 0.25292 0.0
O372 O 0.24409 0.77979 0.28155 0.0
O373 O 0.28535 0.79144 0.25367 0.0
C374 C 0.31035 0.75409 0.28205 0.0
C375 C 0.23175 0.76751 0.26331 0.0
Zn376 Zn 0.47443 0.01614 0.52403 0.0
Zn377 Zn 0.5251 0.01274 0.51536 0.0
C378 C 0.48244 0.0597 0.55166 0.0
O379 O 0.467 0.04687 0.5634 0.0
C380 C 0.5156 0.96925 0.48686 0.0
O381 O 0.52423 0.98313 0.47117 0.0
O382 O 0.43935 0.0173 0.52505 0.0
O383 O 0.47805 0.00501 0.48957 0.0
O384 O 0.5115 0.02931 0.48821 0.0
C385 C 0.43101 0.02756 0.50785 0.0
O386 O 0.44488 0.03449 0.4912 0.0
O387 O 0.48969 0.0502 0.53265 0.0
C388 C 0.57249 0.0088 0.53264 0.0
O389 O 0.56392 0.01184 0.55376 0.0
O390 O 0.56011 0.01185 0.51346 0.0
O391 O 0.51995 0.02302 0.55002 0.0
O392 O 0.48717 0.99727 0.54913 0.0
O393 O 0.5127 0.97804 0.50809 0.0
C394 C 0.49159 0.01837 0.47782 0.0
C395 C 0.50699 0.00764 0.56017 0.0
Zn396 Zn 0.28805 0.25359 0.76286 0.0
Zn397 Zn 0.23798 0.25518 0.76457 0.0
C398 C 0.28528 0.22839 0.71642 0.0
O399 O 0.30041 0.21846 0.72922 0.0
C400 C 0.23674 0.27975 0.80979 0.0
O401 O 0.22222 0.28873 0.79524 0.0
O402 O 0.32346 0.25578 0.76313 0.0
O403 O 0.28229 0.28586 0.77428 0.0
O404 O 0.25144 0.28291 0.74729 0.0
C405 C 0.33472 0.27324 0.75432 0.0
O406 O 0.32331 0.28999 0.74811 0.0
O407 O 0.27667 0.24515 0.72691 0.0
C408 C 0.19405 0.23464 0.77636 0.0
O409 O 0.20835 0.2206 0.78367 0.0
O410 O 0.20221 0.25116 0.76423 0.0
O411 O 0.24451 0.22305 0.75314 0.0
O412 O 0.27477 0.22634 0.7808 0.0
O413 O 0.2479 0.26418 0.80083 0.0
C414 C 0.2696 0.29539 0.75966 0.0
C415 C 0.25728 0.21361 0.76773 0.0
Zn416 Zn 0.00557 0.9752 0.50733 0.0
Zn417 Zn -0.00037 0.02621 0.51131 0.0
C418 C 0.03551 0.97521 0.54973 0.0
O419 O 0.04505 0.96253 0.53354 0.0
C420 C 0.97464 0.02998 0.46574 0.0
O421 O 0.96675 0.04608 0.47961 0.0
O422 O 0.00571 0.94017 0.50331 0.0
O423 O 0.97142 0.97962 0.50132 0.0
O424 O 0.9739 0.00946 0.52946 0.0
C425 C 0.98822 0.92714 0.51078 0.0
O426 O 0.96976 0.93641 0.51697 0.0
O427 O 0.01725 0.98383 0.54298 0.0
C428 C 0.01778 0.07249 0.50532 0.0
O429 O 0.03246 0.06063 0.49452 0.0
O430 O 0.00147 0.06147 0.51634 0.0
O431 O 0.03329 0.02059 0.51838 0.0
O432 O 0.02993 0.99278 0.48802 0.0
O433 O 0.98907 0.01803 0.47519 0.0
C434 C 0.9619 0.99095 0.51752 0.0
C435 C 0.04224 0.01066 0.50078 0.0
Zn436 Zn 0.25945 0.78072 0.76961 0.0
Zn437 Zn 0.27109 0.73394 0.79001 0.0
C438 C 0.21687 0.76302 0.74061 0.0
O439 O 0.2316 0.76834 0.72418 0.0
C440 C 0.31394 0.75446 0.81892 0.0
O441 O 0.3007 0.74733 0.836 0.0
O442 O 0.25771 0.81446 0.7644 0.0
O443 O 0.27109 0.78174 0.80505 0.0
O444 O 0.25001 0.74854 0.81253 0.0
C445 C 0.24621 0.82382 0.78037 0.0
O446 O 0.23837 0.81149 0.79761 0.0
O447 O 0.22474 0.7659 0.76299 0.0
C448 C 0.29103 0.69462 0.78349 0.0
O449 O 0.3021 0.70983 0.77037 0.0
O450 O 0.27506 0.70089 0.79628 0.0
O451 O 0.26109 0.73039 0.75421 0.0
O452 O 0.27746 0.76492 0.74457 0.0
O453 O 0.30469 0.75197 0.797 0.0
C454 C 0.25806 0.77016 0.81881 0.0
C455 C 0.27123 0.74287 0.73918 0.0
Zn456 Zn 0.51451 0.99772 0.00267 0.0
Zn457 Zn 0.5193 -0.00142 0.05487 0.0
C458 C 0.56152 0.02256 0.00059 0.0
O459 O 0.5503 0.03128 0.98295 0.0
C460 C 0.47042 0.97942 0.06126 0.0
O461 O 0.48016 0.97505 0.08222 0.0
O462 O 0.51178 0.99496 0.96615 0.0
O463 O 0.50434 0.96547 0.01258 0.0
O464 O 0.53395 0.97121 0.04145 0.0
C465 C 0.51941 0.97769 0.95545 0.0
O466 O 0.52578 0.96152 0.96831 0.0
O467 O 0.54997 0.00691 0.01164 0.0
C468 C 0.52294 0.02352 0.10168 0.0
O469 O 0.53191 0.04149 0.09072 0.0
O470 O 0.52271 0.00292 0.09155 0.0
O471 O 0.52969 0.03039 0.04385 0.0
O472 O 0.4991 0.02483 0.01624 0.0
O473 O 0.48352 0.98949 0.04651 0.0
C474 C 0.52035 0.95751 0.02494 0.0
C475 C 0.51361 0.03856 0.03194 0.0
Zn476 Zn 0.26033 0.23679 0.25691 0.0
Zn477 Zn 0.26727 0.2881 0.27391 0.0
C478 C 0.30064 0.23375 0.23288 0.0
O479 O 0.28308 0.22173 0.21768 0.0
C480 C 0.22438 0.28862 0.2945 0.0
O481 O 0.23938 0.30466 0.30886 0.0
O482 O 0.25316 0.20135 0.2505 0.0
O483 O 0.25401 0.24451 0.29167 0.0
O484 O 0.28344 0.27415 0.30184 0.0
C485 C 0.24815 0.18846 0.26732 0.0
O486 O 0.2421 0.19798 0.28785 0.0
O487 O 0.29575 0.24323 0.25312 0.0
C488 C 0.2603 0.33192 0.26195 0.0
O489 O 0.25099 0.31763 0.24256 0.0
O490 O 0.27103 0.32365 0.2793 0.0
O491 O 0.27575 0.28045 0.23966 0.0
O492 O 0.24463 0.25249 0.23036 0.0
O493 O 0.23186 0.27811 0.27619 0.0
C494 C 0.26945 0.2566 0.30765 0.0
C495 C 0.25931 0.26926 0.22407 0.0
Zn496 Zn 0.51401 0.47456 0.02281 0.0
Zn497 Zn 0.50255 0.52453 0.02192 0.0
C498 C 0.54876 0.48576 0.0639 0.0
O499 O 0.56296 0.48155 0.04709 0.0
C500 C 0.47442 0.51975 0.97714 0.0
O501 O 0.46465 0.53512 0.99008 0.0
O502 O 0.51766 0.44043 0.01954 0.0
O503 O 0.47882 0.47567 0.01921 0.0
O504 O 0.47855 0.50864 0.04239 0.0
C505 C 0.49988 0.42385 0.01483 0.0
O506 O 0.47893 0.42882 0.00776 0.0
O507 O 0.52656 0.48454 0.05795 0.0
C508 C 0.51554 0.56819 0.00662 0.0
O509 O 0.52807 0.55462 0.99475 0.0
O510 O 0.50195 0.5594 0.02175 0.0
O511 O 0.53707 0.52249 0.02951 0.0
O512 O 0.53527 0.49305 0.00123 0.0
O513 O 0.49153 0.51132 0.98703 0.0
C514 C 0.46812 0.48832 0.03311 0.0
C515 C 0.54621 0.51251 0.01211 0.0
Zn516 Zn 0.76576 0.29166 0.27817 0.0
Zn517 Zn 0.76267 0.23893 0.28228 0.0
C518 C 0.72377 0.2913 0.24886 0.0
O519 O 0.7393 0.30645 0.23966 0.0
C520 C 0.8068 0.2463 0.31239 0.0
O521 O 0.79265 0.23764 0.32809 0.0
O522 O 0.76904 0.32717 0.28007 0.0
O523 O 0.77291 0.28357 0.31206 0.0
O524 O 0.7447 0.25258 0.30879 0.0
C525 C 0.76267 0.33762 0.29909 0.0
O526 O 0.75797 0.32573 0.31759 0.0
O527 O 0.73079 0.2812 0.26679 0.0
C528 C 0.76106 0.19128 0.26139 0.0
O529 O 0.76098 0.20139 0.24122 0.0
O530 O 0.7596 0.2035 0.28138 0.0
O531 O 0.75541 0.24732 0.2484 0.0
O532 O 0.78406 0.27807 0.25212 0.0
O533 O 0.79794 0.24927 0.29139 0.0
C534 C 0.75643 0.2709 0.32129 0.0
C535 C 0.77213 0.25996 0.23938 0.0
Zn536 Zn 0.00827 0.50244 0.48873 0.0
Zn537 Zn 0.01769 0.50249 0.54042 0.0
C538 C 0.049 0.53279 0.48055 0.0
O539 O 0.03208 0.54039 0.46768 0.0
C540 C 0.96669 0.49981 0.54421 0.0
O541 O 0.97333 0.51748 0.5613 0.0
O542 O 0.00118 0.49899 0.4524 0.0
O543 O 0.0027 0.46977 0.49908 0.0
O544 O 0.03433 0.47724 0.52554 0.0
C545 C 0.00843 0.48195 0.44083 0.0
O546 O 0.01525 0.46547 0.45291 0.0
O547 O 0.04346 0.51518 0.4922 0.0
C548 C 0.02347 0.52404 0.58981 0.0
O549 O 0.03014 0.54333 0.57982 0.0
O550 O 0.02109 0.50438 0.57686 0.0
O551 O 0.0252 0.53503 0.53078 0.0
O552 O 0.99315 0.52861 0.50478 0.0
O553 O 0.98238 0.49134 0.53288 0.0
C554 C 0.02023 0.46286 0.51007 0.0
C555 C 0.00804 0.54263 0.51993 0.0
Zn556 Zn 0.79648 0.75458 0.26226 0.0
Zn557 Zn 0.748 0.76093 0.27031 0.0
C558 C 0.78644 0.7252 0.218 0.0
O559 O 0.80096 0.7145 0.23068 0.0
C560 C 0.75858 0.79055 0.31409 0.0
O561 O 0.75009 0.80431 0.29943 0.0
O562 O 0.83132 0.75462 0.25893 0.0
O563 O 0.79474 0.78843 0.27176 0.0
O564 O 0.76053 0.78674 0.25008 0.0
C565 C 0.83832 0.7644 0.24061 0.0
O566 O 0.82331 0.77395 0.22723 0.0
O567 O 0.78078 0.74398 0.22781 0.0
C568 C 0.70662 0.74468 0.28889 0.0
O569 O 0.72181 0.73164 0.29654 0.0
O570 O 0.7132 0.75976 0.27448 0.0
O571 O 0.75095 0.72755 0.25931 0.0
O572 O 0.78369 0.72976 0.28353 0.0
O573 O 0.76134 0.77018 0.30551 0.0
C574 C 0.78078 0.79827 0.25883 0.0
C575 C 0.76437 0.71779 0.27292 0.0
Zn576 Zn 0.75314 0.24723 0.80705 0.0
Zn577 Zn 0.76337 0.25132 0.75498 0.0
C578 C 0.72351 0.20355 0.80066 0.0
O579 O 0.71278 0.21603 0.81594 0.0
C580 C 0.79295 0.29575 0.76223 0.0
O581 O 0.80828 0.28253 0.75513 0.0
O582 O 0.75137 0.24639 0.84317 0.0
O583 O 0.78748 0.25872 0.80352 0.0
O584 O 0.78887 0.23533 0.77041 0.0
C585 C 0.76724 0.2359 0.85241 0.0
O586 O 0.7825 0.2283 0.83837 0.0
O587 O 0.74283 0.21322 0.79316 0.0
C588 C 0.75112 0.26371 0.71015 0.0
O589 O 0.73635 0.27189 0.7244 0.0
O590 O 0.76539 0.25123 0.71885 0.0
O591 O 0.72876 0.2406 0.75988 0.0
O592 O 0.73006 0.26579 0.79228 0.0
O593 O 0.7719 0.28617 0.76532 0.0
C594 C 0.79891 0.24611 0.79056 0.0
C595 C 0.71915 0.25535 0.77238 0.0
Zn596 Zn 0.76154 0.73554 0.75569 0.0
Zn597 Zn 0.76865 0.78676 0.77462 0.0
C598 C 0.80086 0.73548 0.72991 0.0
O599 O 0.78297 0.72394 0.7148 0.0
C600 C 0.72715 0.78723 0.79768 0.0
O601 O 0.74306 0.80245 0.81199 0.0
O602 O 0.75602 0.70008 0.74806 0.0
O603 O 0.75583 0.74209 0.7908 0.0
O604 O 0.78535 0.77165 0.80117 0.0
C605 C 0.75372 0.68665 0.76488 0.0
O606 O 0.74954 0.69535 0.78655 0.0
O607 O 0.79661 0.74349 0.75101 0.0
C608 C 0.77231 0.83487 0.76429 0.0
O609 O 0.77427 0.82556 0.74218 0.0
O610 O 0.77311 0.82223 0.78175 0.0
O611 O 0.77525 0.77985 0.73967 0.0
O612 O 0.74428 0.75169 0.73043 0.0
O613 O 0.73347 0.77723 0.7784 0.0
C614 C 0.77137 0.75401 0.80682 0.0
C615 C 0.75826 0.76915 0.72444 0.0
Zn616 Zn 0.53872 0.51477 0.53406 0.0
Zn617 Zn 0.48902 0.51324 0.51329 0.0
C618 C 0.53726 0.47258 0.55333 0.0
O619 O 0.5489 0.48818 0.5707 0.0
C620 C 0.49679 0.55552 0.49383 0.0
O621 O 0.48715 0.54039 0.47515 0.0
O622 O 0.57388 0.51857 0.54453 0.0
O623 O 0.53625 0.52404 0.50007 0.0
O624 O 0.50481 0.49775 0.486 0.0
C625 C 0.58534 0.50938 0.52851 0.0
O626 O 0.57471 0.5029 0.50646 0.0
O627 O 0.52904 0.47957 0.53383 0.0
C628 C 0.44609 0.52389 0.52294 0.0
O629 O 0.46138 0.53391 0.54137 0.0
O630 O 0.45352 0.51162 0.50579 0.0
O631 O 0.49219 0.50167 0.54636 0.0
O632 O 0.52153 0.53022 0.56005 0.0
O633 O 0.50051 0.54827 0.51449 0.0
C634 C 0.52462 0.51006 0.48257 0.0
C635 C 0.50296 0.51624 0.5638 0.0
Zn636 Zn 0.97589 0.51842 0.02601 0.0
Zn637 Zn 0.02255 0.5059 0.01018 0.0
C638 C 0.98966 0.56207 0.05243 0.0
O639 O 0.9755 0.55025 0.06621 0.0
C640 C 0.00422 0.462 0.9844 0.0
O641 O 0.01195 0.47417 0.96698 0.0
O642 O 0.9419 0.52236 0.03014 0.0
O643 O 0.97472 0.50568 0.9911 0.0
O644 O 0.00991 0.5233 0.98344 0.0
C645 C 0.93428 0.53428 0.01404 0.0
O646 O 0.94846 0.54173 -0.00215 0.0
O647 O 0.99393 0.55174 0.03238 0.0
C648 C 0.06051 0.48534 0.02209 0.0
O649 O 0.04456 0.47938 0.03716 0.0
O650 O 0.05605 0.49936 0.0067 0.0
O651 O 0.02332 0.52056 0.04478 0.0
O652 O 0.98919 0.49955 0.05085 0.0
O653 O 0.00453 0.47248 0.00567 0.0
C654 C 0.98788 0.51616 0.97673 0.0
C655 C 0.01055 0.50871 0.05851 0.0
C656 C 0.00929 0.1861 0.9668 0.0
C657 C -0.00051 0.18448 0.94253 0.0
C658 C 0.00738 0.16629 0.97963 0.0
C659 C 0.99536 0.14436 0.96792 0.0
C660 C 0.98487 0.14276 0.94366 0.0
C661 C 0.98707 0.16282 0.93126 0.0
C662 C 0.01866 0.1687 0.00552 0.0
C663 C 0.97178 0.1197 0.93058 0.0
C664 C 0.01002 0.08702 0.98715 0.0
C665 C 0.9901 0.07898 -0.00077 0.0
C666 C 0.01246 0.10878 0.97778 0.0
C667 C 0.99453 0.12281 0.98053 0.0
C668 C 0.97502 0.11534 0.99381 0.0
C669 C 0.97307 0.09354 0.00307 0.0
C670 C 0.03364 0.11619 0.96388 0.0
C671 C 0.9555 0.12973 -0.00286 0.0
H672 H 0.01888 0.20279 0.97565 0.0
H673 H 0.97939 0.16142 0.91256 0.0
H674 H 0.00525 0.16188 0.01767 0.0
H675 H 0.0331 0.15804 0.00662 0.0
H676 H 0.02632 0.18718 0.01242 0.0
H677 H 0.96378 0.12161 0.9121 0.0
H678 H 0.98427 0.107 0.92882 0.0
H679 H 0.95737 0.11211 0.94126 0.0
H680 H 0.02331 0.07594 0.98419 0.0
H681 H 0.95764 0.08751 0.01244 0.0
H682 H 0.0426 0.13423 0.97094 0.0
H683 H 0.02747 0.1164 0.94442 0.0
H684 H 0.04692 0.10423 0.96502 0.0
H685 H 0.9632 0.14837 0.00309 0.0
H686 H 0.94342 0.12314 0.01065 0.0
H687 H 0.94468 0.1291 0.97947 0.0
C688 C 0.109 0.79752 0.20817 0.0
C689 C 0.10953 0.79977 0.18324 0.0
C690 C 0.12962 0.79541 0.22262 0.0
C691 C 0.15136 0.79592 0.21193 0.0
C692 C 0.15243 0.80003 0.18724 0.0
C693 C 0.1314 0.80176 0.17308 0.0
C694 C 0.12771 0.79089 0.24884 0.0
C695 C 0.17552 0.80125 0.17549 0.0
C696 C 0.20789 0.79849 0.2539 0.0
C697 C 0.21045 0.77483 0.25179 0.0
C698 C 0.18888 0.8058 0.24078 0.0
C699 C 0.17196 0.78894 0.22563 0.0
C700 C 0.17428 0.76498 0.22386 0.0
C701 C 0.19359 0.75825 0.23686 0.0
C702 C 0.18713 0.83152 0.24276 0.0
C703 C 0.15644 0.74642 0.2081 0.0
H704 H 0.09219 0.7962 0.21623 0.0
H705 H 0.13194 0.80381 0.15389 0.0
H706 H 0.12983 0.77252 0.25085 0.0
H707 H 0.14216 0.80249 0.26096 0.0
H708 H 0.11024 0.79365 0.25509 0.0
H709 H 0.17382 0.80671 0.15686 0.0
H710 H 0.18993 0.81377 0.18672 0.0
H711 H 0.18111 0.7838 0.17438 0.0
H712 H 0.22119 0.81137 0.26515 0.0
H713 H 0.19558 0.73995 0.23524 0.0
H714 H 0.16962 0.83422 0.24886 0.0
H715 H 0.18822 0.83794 0.2246 0.0
H716 H 0.20153 0.84233 0.25566 0.0
H717 H 0.13823 0.74675 0.21369 0.0
H718 H 0.16057 0.72851 0.20921 0.0
H719 H 0.15619 0.75009 0.18882 0.0
C720 C 0.54231 0.84964 0.43098 0.0
C721 C 0.52496 0.82972 0.43159 0.0
C722 C 0.5402 0.87128 0.44336 0.0
C723 C 0.51986 0.87317 0.45603 0.0
C724 C 0.50274 0.85292 0.45748 0.0
C725 C 0.50565 0.83132 0.44546 0.0
C726 C 0.55923 0.89234 0.44199 0.0
C727 C 0.48067 0.85432 0.47051 0.0
C728 C 0.52227 0.92993 0.49706 0.0
C729 C 0.51286 0.94376 0.4807 0.0
C730 C 0.52399 0.90652 0.48962 0.0
C731 C 0.51549 0.89675 0.4655 0.0
C732 C 0.50454 0.91032 0.4495 0.0
C733 C 0.50374 0.93382 0.45719 0.0
C734 C 0.53637 0.89288 0.507 0.0
C735 C 0.49474 0.90041 0.42383 0.0
H736 H 0.55739 0.84836 0.42048 0.0
H737 H 0.49215 0.81595 0.44586 0.0
H738 H 0.55186 0.90478 0.43077 0.0
H739 H 0.565 0.90173 0.46042 0.0
H740 H 0.57513 0.88741 0.43383 0.0
H741 H 0.47024 0.83671 0.47193 0.0
H742 H 0.48555 0.86364 0.48909 0.0
H743 H 0.46907 0.86454 0.46051 0.0
H744 H 0.5297 0.93784 0.51514 0.0
H745 H 0.49649 0.94464 0.4446 0.0
H746 H 0.55422 0.89115 0.50112 0.0
H747 H 0.52617 0.87491 0.50685 0.0
H748 H 0.53883 0.90167 0.52595 0.0
H749 H 0.50966 0.8974 0.4129 0.0
H750 H 0.48446 0.91236 0.41471 0.0
H751 H 0.48296 0.88324 0.42386 0.0
C752 C 0.45022 0.26849 0.68414 0.0
C753 C 0.47053 0.26784 0.69983 0.0
C754 C 0.42817 0.26974 0.69333 0.0
C755 C 0.42668 0.27101 0.71881 0.0
C756 C 0.44729 0.27096 0.73473 0.0
C757 C 0.4689 0.26906 0.72502 0.0
C758 C 0.40639 0.26925 0.67581 0.0
C759 C 0.44651 0.27286 0.76202 0.0
C760 C 0.37356 0.29379 0.74329 0.0
C761 C 0.35904 0.27292 0.7473 0.0
C762 C 0.39586 0.2935 0.73439 0.0
C763 C 0.40345 0.27176 0.72885 0.0
C764 C 0.3889 0.25065 0.73303 0.0
C765 C 0.36696 0.25151 0.74249 0.0
C766 C 0.41118 0.3164 0.73073 0.0
C767 C 0.39622 0.22711 0.72691 0.0
H768 H 0.45147 0.26748 0.66466 0.0
H769 H 0.48467 0.26888 0.73723 0.0
H770 H 0.39264 0.25395 0.67801 0.0
H771 H 0.39848 0.28523 0.67988 0.0
H772 H 0.41057 0.26817 0.65653 0.0
H773 H 0.46441 0.27374 0.7719 0.0
H774 H 0.43926 0.28875 0.7683 0.0
H775 H 0.43441 0.2575 0.76705 0.0
H776 H 0.36742 0.31036 0.747 0.0
H777 H 0.35561 0.23531 0.74525 0.0
H778 H 0.41418 0.31674 0.71124 0.0
H779 H 0.42894 0.31809 0.74111 0.0
H780 H 0.40297 0.33182 0.73665 0.0
H781 H 0.39901 0.22464 0.70731 0.0
H782 H 0.38267 0.21232 0.73093 0.0
H783 H 0.41341 0.22636 0.7374 0.0
C784 C -0.00049 0.83064 0.5969 0.0
C785 C 0.0002 0.80782 0.58655 0.0
C786 C -0.00187 0.84886 0.58226 0.0
C787 C -0.00273 0.84413 0.55662 0.0
C788 C -0.00201 0.82115 0.54604 0.0
C789 C -0.0005 0.80327 0.56114 0.0
C790 C -0.0025 0.87318 0.59424 0.0
C791 C -0.00298 0.81543 0.5188 0.0
C792 C 0.97018 0.88832 0.52238 0.0
C793 C 0.99057 0.90367 0.51784 0.0
C794 C 0.9721 0.86809 0.53375 0.0
C795 C 0.99499 0.86325 0.54101 0.0
C796 C 0.01563 0.87795 0.53518 0.0
C797 C 0.01317 0.89795 0.5235 0.0
C798 C 0.94964 0.8527 0.53931 0.0
C799 C 0.04035 0.87344 0.5427 0.0
H800 H 0.00015 0.83432 0.6165 0.0
H801 H 5e-05 0.78568 0.553 0.0
H802 H 0.0124 0.88586 0.58894 0.0
H803 H 0.98062 0.87887 0.58793 0.0
H804 H -0.00114 0.87406 0.61442 0.0
H805 H -0.0019 0.79675 0.51345 0.0
H806 H 0.98016 0.81928 0.50996 0.0
H807 H 0.01193 0.82663 0.5116 0.0
H808 H 0.95266 0.89261 0.51792 0.0
H809 H 0.02901 0.90983 0.52021 0.0
H810 H 0.94835 0.85447 0.55925 0.0
H811 H 0.95016 0.834 0.53353 0.0
H812 H 0.93331 0.85741 0.53017 0.0
H813 H 0.04397 0.87683 0.5628 0.0
H814 H 0.05438 0.88484 0.53442 0.0
H815 H 0.04172 0.85485 0.53746 0.0
C816 C 0.45601 0.79259 0.84913 0.0
C817 C 0.46452 0.77375 0.85882 0.0
C818 C 0.4316 0.79151 0.84239 0.0
C819 C 0.41542 0.77089 0.84489 0.0
C820 C 0.42394 0.75172 0.85443 0.0
C821 C 0.44837 0.7535 0.86156 0.0
C822 C 0.42308 0.81248 0.83281 0.0
C823 C 0.40726 0.72926 0.85691 0.0
C824 C 0.3493 0.77076 0.84842 0.0
C825 C 0.33992 0.76167 0.82468 0.0
C826 C 0.374 0.7749 0.85498 0.0
C827 C 0.38955 0.76922 0.8375 0.0
C828 C 0.38019 0.76071 0.81328 0.0
C829 C 0.35546 0.75729 0.80708 0.0
C830 C 0.38338 0.78458 0.88082 0.0
C831 C 0.39617 0.75408 0.79424 0.0
H832 H 0.46842 0.80838 0.84719 0.0
H833 H 0.45491 0.73885 0.86891 0.0
H834 H 0.41418 0.80755 0.81408 0.0
H835 H 0.40967 0.81844 0.84429 0.0
H836 H 0.43791 0.82738 0.83248 0.0
H837 H 0.41684 0.71577 0.86405 0.0
H838 H 0.39368 0.73285 0.86937 0.0
H839 H 0.39759 0.72196 0.83895 0.0
H840 H 0.33728 0.77428 0.862 0.0
H841 H 0.34821 0.75004 0.78876 0.0
H842 H 0.39795 0.79978 0.88092 0.0
H843 H 0.39099 0.77101 0.8901 0.0
H844 H 0.36921 0.79021 0.89148 0.0
H845 H 0.4107 0.76896 0.79293 0.0
H846 H 0.38622 0.74883 0.77597 0.0
H847 H 0.40467 0.73924 0.79962 0.0
C848 C 0.5054 0.14807 0.11986 0.0
C849 C 0.50426 0.16944 0.11047 0.0
C850 C 0.50492 0.12744 0.10441 0.0
C851 C 0.50342 0.12812 0.07887 0.0
C852 C 0.5016 0.14948 0.06919 0.0
C853 C 0.50192 0.1699 0.08512 0.0
C854 C 0.50653 0.10497 0.11548 0.0
C855 C 0.50034 0.15098 0.0421 0.0
C856 C 0.53067 0.07979 0.04718 0.0
C857 C 0.51047 0.06282 0.03923 0.0
C858 C 0.52849 0.10178 0.05862 0.0
C859 C 0.50554 0.10673 0.0627 0.0
C860 C 0.48499 0.09006 0.05361 0.0
C861 C 0.4877 0.06832 0.04167 0.0
C862 C 0.55086 0.11913 0.0677 0.0
C863 C 0.46024 0.09472 0.05764 0.0
H864 H 0.50697 0.14748 0.1394 0.0
H865 H 0.50109 0.18636 0.0777 0.0
H866 H 0.49167 0.09117 0.10715 0.0
H867 H 0.52343 0.09891 0.11151 0.0
H868 H 0.50573 0.10694 0.13552 0.0
H869 H 0.49709 0.16841 0.03739 0.0
H870 H 0.51738 0.14771 0.03522 0.0
H871 H 0.48595 0.13729 0.03246 0.0
H872 H 0.54829 0.07551 0.04521 0.0
H873 H 0.4721 0.05508 0.03572 0.0
H874 H 0.55337 0.12061 0.08787 0.0
H875 H 0.54925 0.13678 0.06245 0.0
H876 H 0.56702 0.11379 0.06047 0.0
H877 H 0.45882 0.09903 0.07735 0.0
H878 H 0.44618 0.07949 0.05056 0.0
H879 H 0.45675 0.11013 0.04847 0.0
C880 C 0.11489 0.25225 0.36846 0.0
C881 C 0.09269 0.25445 0.35701 0.0
C882 C 0.13551 0.25531 0.35608 0.0
C883 C 0.13388 0.26099 0.3318 0.0
C884 C 0.11136 0.26221 0.3198 0.0
C885 C 0.09099 0.2588 0.33253 0.0
C886 C 0.1592 0.25353 0.36937 0.0
C887 C 0.10894 0.26836 0.29398 0.0
C888 C 0.18949 0.29834 0.31472 0.0
C889 C 0.19999 0.2818 0.30126 0.0
C890 C 0.16754 0.29188 0.32397 0.0
C891 C 0.15601 0.26818 0.32001 0.0
C892 C 0.16621 0.25149 0.30582 0.0
C893 C 0.18808 0.25856 0.2964 0.0
C894 C 0.15709 0.31031 0.33866 0.0
C895 C 0.15456 0.22603 0.3015 0.0
H896 H 0.11626 0.24865 0.3873 0.0
H897 H 0.07386 0.26046 0.32354 0.0
H898 H 0.16886 0.24206 0.35812 0.0
H899 H 0.17053 0.27115 0.3727 0.0
H900 H 0.15709 0.24651 0.38716 0.0
H901 H 0.08998 0.26629 0.28646 0.0
H902 H 0.1175 0.28684 0.29345 0.0
H903 H 0.11825 0.25719 0.282 0.0
H904 H 0.19868 0.31635 0.31835 0.0
H905 H 0.19637 0.24572 0.28622 0.0
H906 H 0.15663 0.30621 0.35777 0.0
H907 H 0.13843 0.31033 0.33128 0.0
H908 H 0.16753 0.32819 0.33868 0.0
H909 H 0.15505 0.21822 0.31898 0.0
H910 H 0.16364 0.21571 0.28837 0.0
H911 H 0.13553 0.2244 0.29452 0.0
C912 C 0.93484 0.01782 0.17515 0.0
C913 C 0.91171 0.0232 0.17396 0.0
C914 C 0.94729 0.01663 0.15438 0.0
C915 C 0.93662 0.02152 0.13194 0.0
C916 C 0.91349 0.02757 0.13073 0.0
C917 C 0.90115 0.02802 0.15172 0.0
C918 C 0.97167 0.00959 0.15633 0.0
C919 C 0.90178 0.03345 0.10727 0.0
C920 C 0.979 0.03567 0.08366 0.0
C921 C 0.97537 0.01431 0.06871 0.0
C922 C 0.96596 0.03854 0.1039 0.0
C923 C 0.94938 0.01939 0.10962 0.0
C924 C 0.94571 0.99778 0.09456 0.0
C925 C 0.95853 0.9956 0.07413 0.0
C926 C 0.96992 0.06202 0.11916 0.0
C927 C 0.9286 0.97679 0.10031 0.0
H928 H 0.94302 0.01393 0.19227 0.0
H929 H 0.88334 0.03234 0.15078 0.0
H930 H 0.97148 0.99338 0.14393 0.0
H931 H 0.98511 0.02348 0.15056 0.0
H932 H 0.97747 0.00638 0.17514 0.0
H933 H 0.88452 0.03948 0.10974 0.0
H934 H 0.91384 0.04738 0.09977 0.0
H935 H 0.89848 0.01782 0.09352 0.0
H936 H 0.99178 0.05026 0.07931 0.0
H937 H 0.95569 0.97904 0.06262 0.0
H938 H 0.97728 0.06025 0.13789 0.0
H939 H 0.95266 0.06828 0.12063 0.0
H940 H 0.98241 0.07549 0.11148 0.0
H941 H 0.9341 0.97208 0.11859 0.0
H942 H 0.92781 0.96124 0.08676 0.0
H943 H 0.91039 0.98108 0.10082 0.0
C944 C 0.2858 0.71577 0.47596 0.0
C945 C 0.28672 0.69219 0.46853 0.0
C946 C 0.28719 0.73246 0.45923 0.0
C947 C 0.28952 0.72535 0.43454 0.0
C948 C 0.29172 0.70184 0.42721 0.0
C949 C 0.2903 0.68554 0.44431 0.0
C950 C 0.28498 0.75741 0.46773 0.0
C951 C 0.29442 0.69363 0.40104 0.0
C952 C 0.26376 0.75442 0.38291 0.0
C953 C 0.28448 0.76608 0.37446 0.0
C954 C 0.26505 0.74226 0.40347 0.0
C955 C 0.28762 0.74178 0.41584 0.0
C956 C 0.30841 0.75504 0.40857 0.0
C957 C 0.30659 0.76712 0.38796 0.0
C958 C 0.24242 0.72854 0.41083 0.0
C959 C 0.33277 0.75508 0.4214 0.0
H960 H 0.28314 0.72106 0.4947 0.0
H961 H 0.29115 0.66738 0.43848 0.0
H962 H 0.29917 0.76991 0.46102 0.0
H963 H 0.26757 0.76111 0.46012 0.0
H964 H 0.28611 0.76074 0.4879 0.0
H965 H 0.29761 0.67523 0.39868 0.0
H966 H 0.27798 0.69481 0.38943 0.0
H967 H 0.30946 0.70508 0.39434 0.0
H968 H 0.24659 0.75372 0.37271 0.0
H969 H 0.32271 0.77613 0.3816 0.0
H970 H 0.24133 0.7322 0.43068 0.0
H971 H 0.24253 0.70948 0.40687 0.0
H972 H 0.22616 0.73269 0.40097 0.0
H973 H 0.33235 0.75753 0.44145 0.0
H974 H 0.34648 0.76904 0.41608 0.0
H975 H 0.33829 0.73788 0.4167 0.0
C976 C 0.5617 0.96826 0.68294 0.0
C977 C 0.58622 0.96813 0.68203 0.0
C978 C 0.54735 0.97193 0.6625 0.0
C979 C 0.55763 0.97508 0.64043 0.0
C980 C 0.58193 0.97313 0.63883 0.0
C981 C 0.59606 0.96994 0.65979 0.0
C982 C 0.52159 0.97409 0.66504 0.0
C983 C 0.59339 0.97578 0.61541 0.0
C984 C 0.51566 0.97509 0.58365 0.0
C985 C 0.51748 -0.00082 0.58196 0.0
C986 C 0.52888 0.96685 0.60244 0.0
C987 C 0.54372 0.98317 0.62011 0.0
C988 C 0.54497 0.00754 0.6188 0.0
C989 C 0.53202 0.01523 0.59955 0.0
C990 C 0.52763 0.94077 0.60294 0.0
C991 C 0.56027 0.02551 0.63752 0.0
H992 H 0.55386 0.96667 0.70002 0.0
H993 H 0.61492 0.96961 0.65891 0.0
H994 H 0.51924 0.99251 0.66363 0.0
H995 H 0.50969 0.96294 0.65013 0.0
H996 H 0.51577 0.96905 0.68274 0.0
H997 H 0.61025 0.96855 0.61566 0.0
H998 H 0.58118 0.96684 0.59949 0.0
H999 H 0.59754 0.99466 0.61291 0.0
H1000 H 0.50482 0.9627 0.56964 0.0
H1001 H 0.53351 0.03385 0.59802 0.0
H1002 H 0.52211 0.93555 0.62064 0.0
H1003 H 0.54559 0.93617 0.60111 0.0
H1004 H 0.51494 0.93041 0.58808 0.0
H1005 H 0.55525 0.02253 0.65604 0.0
H1006 H 0.55853 0.04376 0.63434 0.0
H1007 H 0.57929 0.02366 0.63711 0.0
C1008 C 0.25119 0.36347 0.92987 0.0
C1009 C 0.24727 0.35379 0.95172 0.0
C1010 C 0.25137 0.34915 0.90808 0.0
C1011 C 0.24719 0.32446 0.90799 0.0
C1012 C 0.24392 0.31454 0.93009 0.0
C1013 C 0.24416 0.32935 0.95177 0.0
C1014 C 0.25521 0.36047 0.88497 0.0
C1015 C 0.2392 0.28831 0.93067 0.0
C1016 C 0.21933 0.29403 0.84668 0.0
C1017 C 0.23917 0.28771 0.83605 0.0
C1018 C 0.22144 0.30457 0.87072 0.0
C1019 C 0.24409 0.30934 0.88433 0.0
C1020 C 0.26399 0.30189 0.87408 0.0
C1021 C 0.26123 0.29092 0.85002 0.0
C1022 C 0.19965 0.31173 0.88106 0.0
C1023 C 0.28843 0.30681 0.88795 0.0
H1024 H 0.25392 0.38234 0.92972 0.0
H1025 H 0.24114 0.32175 0.96859 0.0
H1026 H 0.26944 0.35347 0.87554 0.0
H1027 H 0.23859 0.35623 0.8724 0.0
H1028 H 0.26024 0.37985 0.88848 0.0
H1029 H 0.23943 0.28341 0.94956 0.0
H1030 H 0.22146 0.28086 0.92088 0.0
H1031 H 0.25267 0.28009 0.92118 0.0
H1032 H 0.20215 0.29118 0.83595 0.0
H1033 H 0.27657 0.28605 0.84172 0.0
H1034 H 0.20185 0.33115 0.88388 0.0
H1035 H 0.19752 0.30521 0.89906 0.0
H1036 H 0.18304 0.30497 0.86888 0.0
H1037 H 0.29545 0.3259 0.88954 0.0
H1038 H 0.30126 0.29732 0.87879 0.0
H1039 H 0.28747 0.30179 0.9067 0.0
C1040 C 0.95112 0.01511 0.32043 0.0
C1041 C 0.92669 0.01276 0.313 0.0
C1042 C 0.95951 0.01804 0.34521 0.0
C1043 C 0.94298 0.0179 0.36297 0.0
C1044 C 0.91825 0.01529 0.35556 0.0
C1045 C 0.91043 0.0131 0.33064 0.0
C1046 C 0.98605 0.02151 0.35238 0.0
C1047 C 0.90005 0.01451 0.37395 0.0
C1048 C 0.96362 0.00441 0.42626 0.0
C1049 C 0.96736 0.02671 0.43937 0.0
C1050 C 0.95538 0.00121 0.40139 0.0
C1051 C 0.95162 0.02091 0.38931 0.0
C1052 C 0.95608 0.04355 0.40243 0.0
C1053 C 0.96352 0.04611 0.4274 0.0
C1054 C 0.95027 0.97674 0.38815 0.0
C1055 C 0.95307 0.06509 0.3901 0.0
H1056 H 0.96376 0.01501 0.30682 0.0
H1057 H 0.89151 0.01106 0.32493 0.0
H1058 H 0.99185 0.03827 0.36428 0.0
H1059 H 0.99033 0.00724 0.36298 0.0
H1060 H -0.00344 0.02178 0.33634 0.0
H1061 H 0.88145 0.01145 0.36518 0.0
H1062 H 0.90203 0.00035 0.38564 0.0
H1063 H 0.90312 0.03127 0.38604 0.0
H1064 H 0.96644 0.98941 0.43562 0.0
H1065 H 0.96667 0.06341 0.43754 0.0
H1066 H 0.96152 0.97558 0.3728 0.0
H1067 H 0.93136 0.97259 0.38029 0.0
H1068 H 0.95365 0.96326 0.40029 0.0
H1069 H 0.96384 0.0661 0.3743 0.0
H1070 H 0.95855 0.08153 0.40263 0.0
H1071 H 0.93414 0.06398 0.38302 0.0
C1072 C 0.28746 0.67723 0.60844 0.0
C1073 C 0.26533 0.66341 0.59997 0.0
C1074 C 0.29038 0.69173 0.6306 0.0
C1075 C 0.27047 0.69299 0.64408 0.0
C1076 C 0.2479 0.67962 0.63515 0.0
C1077 C 0.2457 0.66466 0.6134 0.0
C1078 C 0.31487 0.70509 0.63996 0.0
C1079 C 0.22611 0.68095 0.6487 0.0
C1080 C 0.27672 0.70785 0.71238 0.0
C1081 C 0.27381 0.73141 0.71483 0.0
C1082 C 0.27713 0.69562 0.68948 0.0
C1083 C 0.27342 0.70691 0.66837 0.0
C1084 C 0.2709 0.73086 0.67066 0.0
C1085 C 0.27159 0.74301 0.69398 0.0
C1086 C 0.28071 0.67035 0.68791 0.0
C1087 C 0.26621 0.74327 0.64854 0.0
H1088 H 0.30265 0.6762 0.59803 0.0
H1089 H 0.2285 0.65422 0.60664 0.0
H1090 H 0.3143 0.72406 0.64372 0.0
H1091 H 0.32082 0.69897 0.65741 0.0
H1092 H 0.32833 0.70282 0.62689 0.0
H1093 H 0.20951 0.67116 0.63817 0.0
H1094 H 0.2283 0.67355 0.66628 0.0
H1095 H 0.22398 0.6995 0.6529 0.0
H1096 H 0.27834 0.69875 0.72841 0.0
H1097 H 0.26918 0.76118 0.69584 0.0
H1098 H 0.29451 0.66739 0.67547 0.0
H1099 H 0.26385 0.65868 0.68034 0.0
H1100 H 0.2862 0.6651 0.70599 0.0
H1101 H 0.27979 0.74123 0.63561 0.0
H1102 H 0.26626 0.76227 0.65336 0.0
H1103 H 0.24856 0.7352 0.63891 0.0
C1104 C 0.58762 0.9846 0.8367 0.0
C1105 C 0.57253 0.98452 0.81549 0.0
C1106 C 0.57826 0.98268 0.85925 0.0
C1107 C 0.55324 0.98004 0.86037 0.0
C1108 C 0.53791 0.97912 0.83884 0.0
C1109 C 0.54777 0.98166 0.81671 0.0
C1110 C 0.59516 0.98415 0.88194 0.0
C1111 C 0.51113 0.97577 0.83923 0.0
C1112 C 0.52874 0.95717 0.91677 0.0
C1113 C 0.52538 0.97792 0.93009 0.0
C1114 C 0.53735 0.95749 0.89379 0.0
C1115 C 0.5431 0.97916 0.88417 0.0
C1116 C 0.53928 0.00012 0.89734 0.0
C1117 C 0.53021 -0.0008 0.92006 0.0
C1118 C 0.54068 0.93473 0.88002 0.0
C1119 C 0.54552 0.0236 0.88779 0.0
H1120 H 0.60676 0.9869 0.83578 0.0
H1121 H 0.53602 0.98129 0.80027 0.0
H1122 H 0.59324 -0.00049 0.89469 0.0
H1123 H 0.59064 0.96831 0.89145 0.0
H1124 H 0.61409 0.98582 0.8779 0.0
H1125 H 0.50166 0.97395 0.82067 0.0
H1126 H 0.50476 0.95992 0.84811 0.0
H1127 H 0.50614 0.99097 0.85009 0.0
H1128 H 0.52489 0.94068 0.92447 0.0
H1129 H 0.5279 0.01532 0.93044 0.0
H1130 H 0.55983 0.93512 0.87752 0.0
H1131 H 0.53086 0.93244 0.86162 0.0
H1132 H 0.53435 0.91929 0.8896 0.0
H1133 H 0.56482 0.02706 0.8852 0.0
H1134 H 0.54144 0.03823 0.90029 0.0
H1135 H 0.53552 0.02346 0.86977 0.0
C1136 C 0.24871 0.31583 0.09184 0.0
C1137 C 0.2472 0.33972 0.09577 0.0
C1138 C 0.2498 0.30222 0.11141 0.0
C1139 C 0.24903 0.31269 0.13541 0.0
C1140 C 0.24695 0.33667 0.13941 0.0
C1141 C 0.24624 0.34993 0.11957 0.0
C1142 C 0.25237 0.27681 0.10646 0.0
C1143 C 0.24578 0.34843 0.16471 0.0
C1144 C 0.23413 0.27562 0.18697 0.0
C1145 C 0.25668 0.27738 0.1997 0.0
C1146 C 0.23136 0.28651 0.16558 0.0
C1147 C 0.25169 0.29902 0.15657 0.0
C1148 C 0.27462 0.29972 0.16872 0.0
C1149 C 0.27679 0.28909 0.19024 0.0
C1150 C 0.2066 0.28562 0.15331 0.0
C1151 C 0.2968 0.31246 0.15951 0.0
H1152 H 0.24948 0.30783 0.0735 0.0
H1153 H 0.24488 0.36833 0.12272 0.0
H1154 H 0.26957 0.27405 0.11557 0.0
H1155 H 0.23793 0.26544 0.11416 0.0
H1156 H 0.25181 0.27107 0.08669 0.0
H1157 H 0.24293 0.36687 0.16459 0.0
H1158 H 0.23108 0.3386 0.17351 0.0
H1159 H 0.26263 0.34833 0.17614 0.0
H1160 H 0.21853 0.26675 0.19438 0.0
H1161 H 0.29429 0.29032 0.19997 0.0
H1162 H 0.20593 0.27971 0.1336 0.0
H1163 H 0.20195 0.30348 0.15496 0.0
H1164 H 0.19289 0.27371 0.16144 0.0
H1165 H 0.2974 0.30665 0.13995 0.0
H1166 H 0.3134 0.30955 0.16978 0.0
H1167 H 0.29646 0.33157 0.1612 0.0
C1168 C 0.16357 0.91979 0.02752 0.0
C1169 C 0.18611 0.92577 0.04061 0.0
C1170 C 0.14705 0.93523 0.02874 0.0
C1171 C 0.1531 0.95686 0.04385 0.0
C1172 C 0.17543 0.96241 0.05798 0.0
C1173 C 0.1918 0.94692 0.05593 0.0
C1174 C 0.12376 0.92895 0.01276 0.0
C1175 C 0.18229 0.985 0.07472 0.0
C1176 C 0.1213 0.00583 0.02548 0.0
C1177 C 0.10227 0.00391 0.04013 0.0
C1178 C 0.13839 0.99107 0.02702 0.0
C1179 C 0.13657 0.97417 0.04384 0.0
C1180 C 0.11826 0.97308 0.0597 0.0
C1181 C 0.10133 0.98797 0.05767 0.0
C1182 C 0.15757 0.99266 0.00968 0.0
C1183 C 0.11575 0.95526 0.07783 0.0
H1184 H 0.15927 0.90356 0.01546 0.0
H1185 H 0.20921 0.95148 0.06618 0.0
H1186 H 0.10877 0.93388 0.02248 0.0
H1187 H 0.12497 0.93885 -0.00337 0.0
H1188 H 0.11958 0.90992 0.00626 0.0
H1189 H 0.19953 0.98582 0.08587 0.0
H1190 H 0.18384 0.00012 0.06384 0.0
H1191 H 0.16821 0.98697 0.0871 0.0
H1192 H 0.12219 0.01805 0.01185 0.0
H1193 H 0.08668 0.9863 0.06906 0.0
H1194 H 0.15505 0.97619 -0.00285 0.0
H1195 H 0.17545 0.99467 0.01986 0.0
H1196 H 0.15731 0.00758 -0.00138 0.0
H1197 H 0.11094 0.93736 0.06797 0.0
H1198 H 0.1018 0.95796 0.0902 0.0
H1199 H 0.13299 0.95608 0.08894 0.0
C1200 C 0.65221 0.60445 0.97418 0.0
C1201 C 0.67324 0.59495 0.97351 0.0
C1202 C 0.63046 0.59031 0.97734 0.0
C1203 C 0.62993 0.56628 0.98022 0.0
C1204 C 0.65084 0.55638 0.9782 0.0
C1205 C 0.67216 0.57078 0.97463 0.0
C1206 C 0.60833 0.6013 0.97881 0.0
C1207 C 0.65113 0.53093 0.98151 0.0
C1208 C 0.58529 0.53896 0.02076 0.0
C1209 C 0.56827 0.52471 0.00378 0.0
C1210 C 0.60549 0.55242 0.01326 0.0
C1211 C 0.60839 0.55209 0.9881 0.0
C1212 C 0.59119 0.53775 0.97083 0.0
C1213 C 0.57142 0.52392 0.97893 0.0
C1214 C 0.62374 0.56699 0.03231 0.0
C1215 C 0.59342 0.53741 0.94386 0.0
H1216 H 0.65289 0.62306 0.9731 0.0
H1217 H 0.68829 0.56322 0.97394 0.0
H1218 H 0.59309 0.59032 0.96717 0.0
H1219 H 0.60338 0.60232 -0.00221 0.0
H1220 H 0.61096 0.61927 0.97312 0.0
H1221 H 0.66829 0.5255 0.97733 0.0
H1222 H 0.64826 0.52803 0.00063 0.0
H1223 H 0.63642 0.51941 0.96967 0.0
H1224 H 0.58278 0.53953 0.03998 0.0
H1225 H 0.55798 0.5132 0.96581 0.0
H1226 H 0.6252 0.58583 0.0297 0.0
H1227 H 0.64156 0.56211 0.03036 0.0
H1228 H 0.61912 0.56471 0.05113 0.0
H1229 H 0.59378 0.55533 0.93844 0.0
H1230 H 0.57847 0.52536 0.93281 0.0
H1231 H 0.61047 0.53193 0.93945 0.0
C1232 C 0.6779 0.43034 0.29686 0.0
C1233 C 0.68822 0.45394 0.29693 0.0
C1234 C 0.6921 0.41277 0.29749 0.0
C1235 C 0.71724 0.41893 0.29824 0.0
C1236 C 0.7278 0.44276 0.2987 0.0
C1237 C 0.71317 0.45997 0.29802 0.0
C1238 C 0.68015 0.38755 0.29704 0.0
C1239 C 0.75453 0.45002 0.29966 0.0
C1240 C 0.75162 0.37328 0.32072 0.0
C1241 C 0.75543 0.3609 0.29879 0.0
C1242 C 0.74022 0.39291 0.32085 0.0
C1243 C 0.73235 0.40032 0.29848 0.0
C1244 C 0.73743 0.38875 0.27629 0.0
C1245 C 0.749 0.3692 0.27671 0.0
C1246 C 0.73537 0.40483 0.34493 0.0
C1247 C 0.72937 0.39613 0.25205 0.0
H1248 H 0.65865 0.42552 0.29597 0.0
H1249 H 0.7213 0.47817 0.29806 0.0
H1250 H 0.68454 0.37696 0.2808 0.0
H1251 H 0.68695 0.38006 0.31333 0.0
H1252 H 0.66043 0.38569 0.29663 0.0
H1253 H 0.75998 0.46932 0.3004 0.0
H1254 H 0.76335 0.44397 0.31587 0.0
H1255 H 0.76122 0.44157 0.28338 0.0
H1256 H 0.75678 0.36707 0.33784 0.0
H1257 H 0.75175 0.35963 0.25969 0.0
H1258 H 0.71602 0.4007 0.34712 0.0
H1259 H 0.74018 0.42415 0.34553 0.0
H1260 H 0.74539 0.39903 0.36059 0.0
H1261 H 0.70959 0.39233 0.24909 0.0
H1262 H 0.73665 0.38683 0.23665 0.0
H1263 H 0.73495 0.4153 0.25187 0.0
C1264 C 0.83547 0.42506 0.53157 0.0
C1265 C 0.81953 0.43427 0.51615 0.0
C1266 C 0.8596 0.43548 0.53581 0.0
C1267 C 0.86793 0.45555 0.52435 0.0
C1268 C 0.85209 0.46462 0.50834 0.0
C1269 C 0.82808 0.45386 0.50441 0.0
C1270 C 0.87608 0.42528 0.5529 0.0
C1271 C 0.86041 0.48596 0.49572 0.0
C1272 C 0.92408 0.49611 0.5532 0.0
C1273 C 0.9413 0.4891 0.53875 0.0
C1274 C 0.90008 0.48533 0.5487 0.0
C1275 C 0.89321 0.46722 0.52925 0.0
C1276 C 0.91048 0.46023 0.51447 0.0
C1277 C 0.93433 0.47126 0.51941 0.0
C1278 C 0.88211 0.49319 0.56486 0.0
C1279 C 0.90378 0.44102 0.49354 0.0
H1280 H 0.82904 0.40994 0.54071 0.0
H1281 H 0.81592 0.4611 0.49244 0.0
H1282 H 0.89145 0.42079 0.54346 0.0
H1283 H 0.88337 0.43847 0.56861 0.0
H1284 H 0.86691 0.40927 0.5599 0.0
H1285 H 0.84595 0.49046 0.48336 0.0
H1286 H 0.86712 0.50125 0.50947 0.0
H1287 H 0.87544 0.48293 0.48497 0.0
H1288 H 0.92937 0.50982 0.56822 0.0
H1289 H 0.94755 0.46578 0.50813 0.0
H1290 H 0.87342 0.47818 0.57375 0.0
H1291 H 0.86787 0.49944 0.55375 0.0
H1292 H 0.89038 0.5075 0.57923 0.0
H1293 H 0.8958 0.42447 0.50035 0.0
H1294 H 0.91938 0.43776 0.48372 0.0
H1295 H 0.89011 0.4457 0.48039 0.0
C1296 C 0.33578 0.10044 0.27966 0.0
C1297 C 0.3276 0.0766 0.27201 0.0
C1298 C 0.32016 0.11673 0.27929 0.0
C1299 C 0.29572 0.109 0.27114 0.0
C1300 C 0.28716 0.08484 0.26425 0.0
C1301 C 0.30322 0.06892 0.26472 0.0
C1302 C 0.32998 0.14237 0.28685 0.0
C1303 C 0.26119 0.07593 0.25569 0.0
C1304 C 0.25592 0.15333 0.28735 0.0
C1305 C 0.25561 0.16516 0.26643 0.0
C1306 C 0.26781 0.13411 0.28871 0.0
C1307 C 0.27958 0.1265 0.26865 0.0
C1308 C 0.27782 0.13726 0.24687 0.0
C1309 C 0.26582 0.15643 0.24601 0.0
C1310 C 0.26916 0.12305 0.31223 0.0
C1311 C 0.29002 0.12958 0.22502 0.0
H1312 H 0.35457 0.10651 0.28535 0.0
H1313 H 0.29673 0.0505 0.25884 0.0
H1314 H 0.32789 0.15251 0.27108 0.0
H1315 H 0.31982 0.14943 0.30127 0.0
H1316 H 0.34917 0.14537 0.29375 0.0
H1317 H 0.25704 0.05647 0.25271 0.0
H1318 H 0.24965 0.08223 0.26918 0.0
H1319 H 0.25653 0.08293 0.23834 0.0
H1320 H 0.24803 0.15987 0.30322 0.0
H1321 H 0.26559 0.16537 0.22973 0.0
H1322 H 0.28739 0.12838 0.32172 0.0
H1323 H 0.26574 0.10365 0.30861 0.0
H1324 H 0.2562 0.12851 0.32463 0.0
H1325 H 0.30967 0.13412 0.22934 0.0
H1326 H 0.28495 0.13811 0.20875 0.0
H1327 H 0.28555 0.11029 0.22045 0.0
C1328 C 0.32231 0.09722 0.50539 0.0
C1329 C 0.30022 0.08262 0.50537 0.0
C1330 C 0.34359 0.08792 0.50645 0.0
C1331 C 0.34256 0.06345 0.50689 0.0
C1332 C 0.32025 0.04864 0.50648 0.0
C1333 C 0.29939 0.05843 0.50599 0.0
C1334 C 0.36715 0.10428 0.5073 0.0
C1335 C 0.31838 0.0224 0.5063 0.0
C1336 C 0.39522 0.03759 0.48563 0.0
C1337 C 0.40727 0.0344 0.50775 0.0
C1338 C 0.3739 0.04664 0.48508 0.0
C1339 C 0.36476 0.05317 0.50725 0.0
C1340 C 0.37673 0.04972 0.52966 0.0
C1341 C 0.39776 0.04008 0.52963 0.0
C1342 C 0.36132 0.04945 0.46079 0.0
C1343 C 0.3677 0.05685 0.55366 0.0
H1344 H 0.323 0.11592 0.50507 0.0
H1345 H 0.2823 0.04703 0.50574 0.0
H1346 H 0.37885 0.1023 0.52367 0.0
H1347 H 0.37648 0.09967 0.49116 0.0
H1348 H 0.36493 0.12294 0.5077 0.0
H1349 H 0.2996 0.01331 0.50564 0.0
H1350 H 0.32646 0.01517 0.4903 0.0
H1351 H 0.32849 0.01829 0.5228 0.0
H1352 H 0.4026 0.03316 0.46869 0.0
H1353 H 0.4073 0.03795 0.54675 0.0
H1354 H 0.36066 0.06824 0.45943 0.0
H1355 H 0.34262 0.04005 0.45916 0.0
H1356 H 0.37032 0.04265 0.44522 0.0
H1357 H 0.36708 0.07592 0.55544 0.0
H1358 H 0.3791 0.05304 0.56947 0.0
H1359 H 0.34923 0.04753 0.55437 0.0
C1360 C 0.70395 0.5864 0.29105 0.0
C1361 C 0.67979 0.58806 0.29224 0.0
C1362 C 0.72119 0.60655 0.29063 0.0
C1363 C 0.71409 0.62883 0.29179 0.0
C1364 C 0.69001 0.63069 0.29476 0.0
C1365 C 0.67312 0.61027 0.29471 0.0
C1366 C 0.74665 0.60386 0.28734 0.0
C1367 C 0.6818 0.65418 0.29665 0.0
C1368 C 0.75732 0.68679 0.30104 0.0
C1369 C 0.75591 0.69344 0.27743 0.0
C1370 C 0.74472 0.66515 0.30599 0.0
C1371 C 0.73084 0.64986 0.28676 0.0
C1372 C 0.73093 0.65589 0.26262 0.0
C1373 C 0.74326 0.67772 0.25831 0.0
C1374 C 0.74491 0.65944 0.33198 0.0
C1375 C 0.71675 0.63996 0.24148 0.0
H1376 H 0.70921 0.56927 0.28914 0.0
H1377 H 0.65453 0.61168 0.296 0.0
H1378 H 0.75062 0.60733 0.26863 0.0
H1379 H 0.75927 0.6168 0.30018 0.0
H1380 H 0.74997 0.58595 0.29013 0.0
H1381 H 0.66309 0.65283 0.30136 0.0
H1382 H 0.69353 0.66667 0.31067 0.0
H1383 H 0.68303 0.66166 0.27903 0.0
H1384 H 0.76692 0.69912 0.31586 0.0
H1385 H 0.74231 0.6829 0.24002 0.0
H1386 H 0.74697 0.64092 0.33312 0.0
H1387 H 0.72762 0.66173 0.33892 0.0
H1388 H 0.75947 0.67103 0.34404 0.0
H1389 H 0.72044 0.62183 0.24174 0.0
H1390 H 0.72086 0.64603 0.22364 0.0
H1391 H 0.69739 0.63932 0.24307 0.0
C1392 C 0.83317 0.43494 0.76476 0.0
C1393 C 0.84744 0.43815 0.74549 0.0
C1394 C 0.82112 0.41256 0.768 0.0
C1395 C 0.82291 0.39315 0.75117 0.0
C1396 C 0.83571 0.3967 0.73058 0.0
C1397 C 0.84819 0.41911 0.72822 0.0
C1398 C 0.80795 0.40944 0.79035 0.0
C1399 C 0.83733 0.3766 0.71173 0.0
C1400 C 0.82232 0.33261 0.77121 0.0
C1401 C 0.79921 0.32133 0.76262 0.0
C1402 C 0.82979 0.35636 0.76868 0.0
C1403 C 0.81397 0.36886 0.75649 0.0
C1404 C 0.79037 0.35763 0.74827 0.0
C1405 C 0.78314 0.334 0.75175 0.0
C1406 C 0.85491 0.36782 0.77827 0.0
C1407 C 0.77322 0.37008 0.73453 0.0
H1408 H 0.83271 0.44963 0.77824 0.0
H1409 H 0.85907 0.42164 0.7132 0.0
H1410 H 0.78995 0.39879 0.78538 0.0
H1411 H 0.81785 0.39983 0.80292 0.0
H1412 H 0.80604 0.42649 0.80022 0.0
H1413 H 0.84511 0.38277 0.69527 0.0
H1414 H 0.84869 0.3649 0.71965 0.0
H1415 H 0.81939 0.36599 0.70615 0.0
H1416 H 0.8347 0.32271 0.77956 0.0
H1417 H 0.76538 0.32507 0.7447 0.0
H1418 H 0.85471 0.38454 0.78967 0.0
H1419 H 0.86548 0.37205 0.76283 0.0
H1420 H 0.86412 0.35636 0.7893 0.0
H1421 H 0.77299 0.38769 0.74407 0.0
H1422 H 0.75475 0.35998 0.73211 0.0
H1423 H 0.77921 0.37265 0.71627 0.0
C1424 C 0.02823 0.86071 0.10494 0.0
C1425 C 0.02611 0.83748 0.09442 0.0
C1426 C 0.02698 0.87901 0.09043 0.0
C1427 C 0.023 0.87388 0.06479 0.0
C1428 C 0.01968 0.85033 0.05412 0.0
C1429 C 0.02154 0.8324 0.06907 0.0
C1430 C 0.03097 0.90394 0.1025 0.0
C1431 C 0.01498 0.84418 0.0269 0.0
C1432 C 0.00636 0.92447 0.03254 0.0
C1433 C 0.02865 0.93487 0.02622 0.0
C1434 C 0.00388 0.90368 0.04379 0.0
C1435 C 0.02427 0.89343 0.04927 0.0
C1436 C 0.04657 0.90326 0.04187 0.0
C1437 C 0.04843 0.92374 0.03024 0.0
C1438 C 0.9797 0.89338 0.05089 0.0
C1439 C 0.06885 0.89314 0.04776 0.0
H1440 H 0.03182 0.86475 0.12452 0.0
H1441 H 0.01971 0.81442 0.06087 0.0
H1442 H 0.04737 0.914 0.09658 0.0
H1443 H 0.01587 0.91271 0.09688 0.0
H1444 H 0.03292 0.90487 0.12268 0.0
H1445 H 0.01031 0.82494 0.02169 0.0
H1446 H 0.00023 0.85262 0.01961 0.0
H1447 H 0.03109 0.85095 0.01806 0.0
H1448 H 0.99099 0.93296 0.02937 0.0
H1449 H 0.06575 0.93178 0.02561 0.0
H1450 H 0.97962 0.89628 0.07095 0.0
H1451 H 0.97582 0.87416 0.04553 0.0
H1452 H 0.96518 0.90143 0.04237 0.0
H1453 H 0.07418 0.89657 0.06765 0.0
H1454 H 0.084 0.90091 0.0381 0.0
H1455 H 0.06553 0.87387 0.0429 0.0
C1456 C 0.93802 0.26385 0.82626 0.0
C1457 C 0.94469 0.25053 0.84466 0.0
C1458 C 0.91433 0.26093 0.81611 0.0
C1459 C 0.89686 0.24418 0.82443 0.0
C1460 C 0.90354 0.23006 0.84236 0.0
C1461 C 0.92741 0.23348 0.85236 0.0
C1462 C 0.90784 0.27651 0.79723 0.0
C1463 C 0.88534 0.21193 0.85152 0.0
C1464 C 0.83461 0.25867 0.82045 0.0
C1465 C 0.82383 0.24483 0.79908 0.0
C1466 C 0.85817 0.25814 0.82912 0.0
C1467 C 0.87133 0.24332 0.81619 0.0
C1468 C 0.86052 0.22895 0.79484 0.0
C1469 C 0.83683 0.22993 0.78644 0.0
C1470 C 0.86912 0.27389 0.85187 0.0
C1471 C 0.87408 0.21283 0.78074 0.0
H1472 H 0.95123 0.27701 0.82009 0.0
H1473 H 0.93245 0.22297 0.8664 0.0
H1474 H 0.89777 0.26578 0.78091 0.0
H1475 H 0.89607 0.28829 0.80473 0.0
H1476 H 0.9238 0.28748 0.79147 0.0
H1477 H 0.89377 0.20078 0.86361 0.0
H1478 H 0.87281 0.22078 0.86185 0.0
H1479 H 0.87462 0.20049 0.836 0.0
H1480 H 0.8247 0.2702 0.83041 0.0
H1481 H 0.82854 0.21909 0.77002 0.0
H1482 H 0.88444 0.28663 0.84746 0.0
H1483 H 0.87607 0.26336 0.86557 0.0
H1484 H 0.85615 0.28381 0.8602 0.0
H1485 H 0.88933 0.22332 0.77332 0.0
H1486 H 0.86266 0.20174 0.76539 0.0
H1487 H 0.88156 0.20126 0.79298 0.0
C1488 C 0.51538 0.19725 0.59707 0.0
C1489 C 0.52983 0.20027 0.61922 0.0
C1490 C 0.50917 0.17511 0.58347 0.0
C1491 C 0.51778 0.15563 0.59215 0.0
C1492 C 0.5335 0.15886 0.61373 0.0
C1493 C 0.53925 0.1811 0.62705 0.0
C1494 C 0.4923 0.17234 0.56058 0.0
C1495 C 0.54326 0.13857 0.62347 0.0
C1496 C 0.47951 0.09542 0.579 0.0
C1497 C 0.49113 0.0846 0.56086 0.0
C1498 C 0.48771 0.1187 0.58881 0.0
C1499 C 0.50819 0.13149 0.58044 0.0
C1500 C 0.51981 0.12084 0.56182 0.0
C1501 C 0.51106 0.09748 0.55215 0.0
C1502 C 0.47467 0.12945 0.60851 0.0
C1503 C 0.54175 0.13393 0.55256 0.0
H1504 H 0.50809 0.21196 0.59083 0.0
H1505 H 0.55068 0.18332 0.64398 0.0
H1506 H 0.49918 0.16224 0.5455 0.0
H1507 H 0.47476 0.16232 0.5638 0.0
H1508 H 0.48948 0.18952 0.55475 0.0
H1509 H 0.55729 0.14444 0.63888 0.0
H1510 H 0.52856 0.12642 0.62988 0.0
H1511 H 0.55085 0.12851 0.60888 0.0
H1512 H 0.46396 0.08566 0.58567 0.0
H1513 H 0.52011 0.08918 0.53813 0.0
H1514 H 0.46936 0.14594 0.60321 0.0
H1515 H 0.48667 0.13401 0.62564 0.0
H1516 H 0.45842 0.11747 0.61219 0.0
H1517 H 0.5381 0.15077 0.54659 0.0
H1518 H 0.54793 0.12362 0.53711 0.0
H1519 H 0.55644 0.13821 0.56748 0.0
C1520 C 0.60608 0.75265 0.37878 0.0
C1521 C 0.5831 0.74364 0.36759 0.0
C1522 C 0.62608 0.75286 0.36552 0.0
C1523 C 0.62289 0.74368 0.34063 0.0
C1524 C 0.59978 0.7342 0.32941 0.0
C1525 C 0.58017 0.73433 0.34303 0.0
C1526 C 0.65057 0.76308 0.37801 0.0
C1527 C 0.59575 0.72407 0.30298 0.0
C1528 C 0.67141 0.76257 0.30004 0.0
C1529 C 0.68384 0.74369 0.29985 0.0
C1530 C 0.65143 0.76281 0.31326 0.0
C1531 C 0.64375 0.74363 0.32632 0.0
C1532 C 0.65584 0.72424 0.32556 0.0
C1533 C 0.67577 0.72453 0.31236 0.0
C1534 C 0.63889 0.78378 0.31371 0.0
C1535 C 0.648 0.70335 0.33901 0.0
H1536 H 0.60839 0.75992 0.39773 0.0
H1537 H 0.56244 0.72724 0.33431 0.0
H1538 H 0.66238 0.7497 0.37695 0.0
H1539 H 0.65881 0.77791 0.36858 0.0
H1540 H 0.65001 0.76948 0.39746 0.0
H1541 H 0.57661 0.71723 0.29707 0.0
H1542 H 0.6023 0.73769 0.29126 0.0
H1543 H 0.60602 0.70959 0.29989 0.0
H1544 H 0.67775 0.7775 0.29058 0.0
H1545 H 0.68531 0.70985 0.31218 0.0
H1546 H 0.63984 0.79221 0.33267 0.0
H1547 H 0.61972 0.77812 0.30724 0.0
H1548 H 0.64683 0.79705 0.3022 0.0
H1549 H 0.64879 0.70903 0.35879 0.0
H1550 H 0.65927 0.68959 0.33634 0.0
H1551 H 0.6292 0.6955 0.33275 0.0
C1552 C 0.02254 0.20286 0.46642 0.0
C1553 C 0.01599 0.19945 0.44122 0.0
C1554 C 0.02102 0.18381 0.48031 0.0
C1555 C 0.01293 0.16083 0.46867 0.0
C1556 C 0.00515 0.1574 0.44348 0.0
C1557 C 0.00673 0.17677 0.43007 0.0
C1558 C 0.02927 0.18816 0.50716 0.0
C1559 C -0.00365 0.13314 0.43039 0.0
C1560 C 0.03748 0.10914 0.49065 0.0
C1561 C 0.01777 0.09702 0.50041 0.0
C1562 C 0.03649 0.13057 0.48143 0.0
C1563 C 0.01524 0.14016 0.48194 0.0
C1564 C -0.0042 0.12881 0.49322 0.0
C1565 C -0.0027 0.10731 0.50237 0.0
C1566 C 0.05769 0.14216 0.46972 0.0
C1567 C 0.97296 0.13865 0.49434 0.0
H1568 H 0.02952 0.22037 0.47522 0.0
H1569 H 0.00148 0.17401 0.41065 0.0
H1570 H 0.01612 0.17835 0.51778 0.0
H1571 H 0.04639 0.18173 0.51053 0.0
H1572 H 0.03202 0.20708 0.51405 0.0
H1573 H 0.98896 0.13363 0.41133 0.0
H1574 H 0.01131 0.1231 0.43008 0.0
H1575 H 0.98234 0.12343 0.44015 0.0
H1576 H 0.05344 0.10137 0.48927 0.0
H1577 H 0.98198 0.098 0.50985 0.0
H1578 H 0.06217 0.16111 0.47634 0.0
H1579 H 0.05324 0.14062 0.44971 0.0
H1580 H 0.07373 0.13405 0.47345 0.0
H1581 H 0.97683 0.15773 0.50046 0.0
H1582 H 0.96103 0.12977 0.50679 0.0
H1583 H 0.96328 0.13633 0.47587 0.0
C1584 C 0.60036 0.25633 0.16619 0.0
C1585 C 0.58105 0.26274 0.17779 0.0
C1586 C 0.62335 0.26009 0.17849 0.0
C1587 C 0.62713 0.27085 0.20282 0.0
C1588 C 0.6077 0.27735 0.21462 0.0
C1589 C 0.58484 0.27307 0.202 0.0
C1590 C 0.64362 0.25272 0.1654 0.0
C1591 C 0.61113 0.2892 0.24043 0.0
C1592 C 0.68381 0.26526 0.24115 0.0
C1593 C 0.69872 0.28622 0.23813 0.0
C1594 C 0.66037 0.25998 0.2298 0.0
C1595 C 0.65164 0.27628 0.21552 0.0
C1596 C 0.66647 0.29772 0.21296 0.0
C1597 C 0.68989 0.30234 0.22414 0.0
C1598 C 0.64512 0.23682 0.23267 0.0
C1599 C 0.65769 0.31572 0.19825 0.0
H1600 H 0.59749 0.24819 0.14752 0.0
H1601 H 0.56997 0.2781 0.21103 0.0
H1602 H 0.65711 0.26835 0.16361 0.0
H1603 H 0.65265 0.24095 0.17611 0.0
H1604 H 0.63747 0.24352 0.14693 0.0
H1605 H 0.59408 0.2927 0.24716 0.0
H1606 H 0.61925 0.27813 0.25279 0.0
H1607 H 0.62362 0.30609 0.24146 0.0
H1608 H 0.69065 0.25273 0.25187 0.0
H1609 H 0.7013 0.31869 0.22196 0.0
H1610 H 0.64 0.22653 0.21457 0.0
H1611 H 0.62837 0.23981 0.2404 0.0
H1612 H 0.65445 0.22623 0.24466 0.0
H1613 H 0.65313 0.30822 0.17896 0.0
H1614 H 0.67117 0.33193 0.1989 0.0
H1615 H 0.64118 0.32054 0.20511 0.0
C1616 C 0.55561 0.85886 0.93816 0.0
C1617 C 0.55023 0.83573 0.94393 0.0
C1618 C 0.5529 0.87785 0.95467 0.0
C1619 C 0.54481 0.87365 0.9776 0.0
C1620 C 0.54094 0.85053 0.98421 0.0
C1621 C 0.54363 0.83181 0.96726 0.0
C1622 C 0.55719 0.90228 0.94692 0.0
C1623 C 0.53255 0.8454 0.00859 0.0
C1624 C 0.54821 0.92839 0.02193 0.0
C1625 C 0.5255 0.93407 0.01671 0.0
C1626 C 0.55449 0.90802 0.01029 0.0
C1627 C 0.53763 0.89309 0.99316 0.0
C1628 C 0.51422 0.89798 0.98912 0.0
C1629 C 0.50844 0.91838 0.00097 0.0
C1630 C 0.57956 0.90326 0.0152 0.0
C1631 C 0.49565 0.88246 0.97109 0.0
H1632 H 0.56088 0.86212 0.92027 0.0
H1633 H 0.53963 0.81403 0.97199 0.0
H1634 H 0.54004 0.90891 0.94516 0.0
H1635 H 0.56929 0.91443 0.96094 0.0
H1636 H 0.56504 0.90281 0.92923 0.0
H1637 H 0.53378 0.82719 0.01235 0.0
H1638 H 0.54317 0.8578 0.02346 0.0
H1639 H 0.51366 0.84779 0.00893 0.0
H1640 H 0.56148 0.94047 0.03407 0.0
H1641 H 0.49079 0.92257 -0.00294 0.0
H1642 H 0.5896 0.90688 -0.00075 0.0
H1643 H 0.57934 0.88456 0.01787 0.0
H1644 H 0.58929 0.91439 0.0315 0.0
H1645 H 0.50111 0.88351 0.9524 0.0
H1646 H 0.47776 0.88762 0.97162 0.0
H1647 H 0.49417 0.8639 0.97479 0.0
C1648 C 0.93224 0.72551 0.70073 0.0
C1649 C 0.94158 0.74035 0.68401 0.0
C1650 C 0.90984 0.72667 0.70896 0.0
C1651 C 0.89648 0.74324 0.70048 0.0
C1652 C 0.90602 0.75876 0.68415 0.0
C1653 C 0.92844 0.75703 0.67597 0.0
C1654 C 0.90014 0.7096 0.72614 0.0
C1655 C 0.89232 0.7768 0.67493 0.0
C1656 C 0.82958 0.72634 0.70038 0.0
C1657 C 0.82527 0.73862 0.72217 0.0
C1658 C 0.85258 0.72822 0.69283 0.0
C1659 C 0.87178 0.74293 0.70731 0.0
C1660 C 0.86751 0.75592 0.729 0.0
C1661 C 0.84426 0.75351 0.73627 0.0
C1662 C 0.85643 0.71385 0.66973 0.0
C1663 C 0.88756 0.77197 0.74473 0.0
H1664 H 0.94222 0.71254 0.70706 0.0
H1665 H 0.93561 0.76869 0.66321 0.0
H1666 H 0.89502 0.7192 0.74264 0.0
H1667 H 0.8838 0.69796 0.71716 0.0
H1668 H 0.91324 0.69851 0.73188 0.0
H1669 H 0.90302 0.78879 0.66391 0.0
H1670 H 0.87592 0.76787 0.66351 0.0
H1671 H 0.88661 0.78739 0.69043 0.0
H1672 H 0.815 0.71479 0.68936 0.0
H1673 H 0.84099 0.76319 0.75303 0.0
H1674 H 0.86822 0.7011 0.67412 0.0
H1675 H 0.8655 0.72537 0.65723 0.0
H1676 H 0.83944 0.70402 0.66003 0.0
H1677 H 0.90031 0.76148 0.75249 0.0
H1678 H 0.881 0.78223 0.75996 0.0
H1679 H 0.89759 0.78432 0.73361 0.0
C1680 C 0.06989 0.01957 0.84492 0.0
C1681 C 0.08764 0.00725 0.8371 0.0
C1682 C 0.06078 0.01676 0.86737 0.0
C1683 C 0.06949 0.00112 0.88245 0.0
C1684 C 0.08729 0.98847 0.87471 0.0
C1685 C 0.09623 0.99173 0.85211 0.0
C1686 C 0.04194 0.03074 0.87503 0.0
C1687 C 0.0969 0.97158 0.89032 0.0
C1688 C 0.06009 0.01414 0.94892 0.0
C1689 C 0.03864 -0.00102 0.9507 0.0
C1690 C 0.07097 0.01421 0.92711 0.0
C1691 C 0.06019 -0.00132 0.90656 0.0
C1692 C 0.03913 0.98259 0.90853 0.0
C1693 C 0.02856 0.98296 0.93057 0.0
C1694 C 0.09337 0.03171 0.92577 0.0
C1695 C 0.02722 0.96565 0.88704 0.0
H1696 H 0.06314 0.03165 0.83354 0.0
H1697 H 0.10988 0.98209 0.8462 0.0
H1698 H 0.02566 0.01873 0.87851 0.0
H1699 H 0.04853 0.04208 0.89228 0.0
H1700 H 0.03693 0.04201 0.86107 0.0
H1701 H 0.11028 0.96265 0.88143 0.0
H1702 H 0.10536 0.98107 0.90799 0.0
H1703 H 0.08207 0.95809 0.8944 0.0
H1704 H 0.06811 0.02652 0.96438 0.0
H1705 H 0.01211 0.97103 0.93185 0.0
H1706 H 0.08937 0.04498 0.91365 0.0
H1707 H 0.10727 0.02286 0.91783 0.0
H1708 H 0.10077 0.04095 0.94392 0.0
H1709 H 0.01977 0.97549 0.87295 0.0
H1710 H 0.0125 0.95262 0.89223 0.0
H1711 H 0.04043 0.95614 0.87866 0.0
C1712 C 0.75183 0.31398 0.58107 0.0
C1713 C 0.76171 0.33789 0.58537 0.0
C1714 C 0.7529 0.29927 0.59957 0.0
C1715 C 0.76407 0.30874 0.6229 0.0
C1716 C 0.77558 0.33247 0.62685 0.0
C1717 C 0.77426 0.34679 0.60799 0.0
C1718 C 0.74059 0.27403 0.59462 0.0
C1719 C 0.78767 0.34321 0.65152 0.0
C1720 C 0.73658 0.28552 0.67738 0.0
C1721 C 0.75333 0.27239 0.68612 0.0
C1722 C 0.73981 0.29709 0.65663 0.0
C1723 C 0.76013 0.29521 0.64401 0.0
C1724 C 0.77663 0.28115 0.65204 0.0
C1725 C 0.77306 0.2699 0.67313 0.0
C1726 C 0.72174 0.31186 0.64861 0.0
C1727 C 0.79843 0.27872 0.6389 0.0
H1728 H 0.74238 0.3069 0.56352 0.0
H1729 H 0.78214 0.3652 0.61134 0.0
H1730 H 0.75191 0.26222 0.60237 0.0
H1731 H 0.72373 0.27184 0.60351 0.0
H1732 H 0.73622 0.26843 0.57482 0.0
H1733 H 0.79853 0.36075 0.65075 0.0
H1734 H 0.77393 0.34516 0.66434 0.0
H1735 H 0.79937 0.33164 0.65911 0.0
H1736 H 0.7212 0.28739 0.68722 0.0
H1737 H 0.78612 0.25986 0.67987 0.0
H1738 H 0.71283 0.30443 0.63036 0.0
H1739 H 0.73072 0.32999 0.64707 0.0
H1740 H 0.70787 0.31282 0.66144 0.0
H1741 H 0.79334 0.27392 0.61911 0.0
H1742 H 0.80817 0.26531 0.64594 0.0
H1743 H 0.81074 0.29579 0.64112 0.0
C1744 C 0.45715 0.01689 0.33622 0.0
C1745 C 0.43579 0.02536 0.33109 0.0
C1746 C 0.46751 0.01799 0.36011 0.0
C1747 C 0.45637 0.02795 0.37945 0.0
C1748 C 0.43535 0.0374 0.37445 0.0
C1749 C 0.42523 0.03594 0.35027 0.0
C1750 C 0.48979 0.00748 0.36472 0.0
C1751 C 0.4231 0.04829 0.39469 0.0
C1752 C 0.46569 0.00364 0.4396 0.0
C1753 C 0.4836 0.02086 0.4524 0.0
C1754 C 0.45655 0.00594 0.41598 0.0
C1755 C 0.46538 0.02609 0.40491 0.0
C1756 C 0.48347 0.0436 0.41768 0.0
C1757 C 0.49254 0.04069 0.4413 0.0
C1758 C 0.43758 0.98665 0.40281 0.0
C1759 C 0.49311 0.06539 0.40641 0.0
H1760 H 0.46559 0.00881 0.32157 0.0
H1761 H 0.40886 0.04269 0.34647 0.0
H1762 H 0.50372 0.02024 0.3763 0.0
H1763 H 0.48564 0.99189 0.37469 0.0
H1764 H 0.49724 0.00202 0.34758 0.0
H1765 H 0.40842 0.057 0.38766 0.0
H1766 H 0.41554 0.03454 0.40582 0.0
H1767 H 0.43615 0.06136 0.40696 0.0
H1768 H 0.45881 0.98821 0.44807 0.0
H1769 H 0.50622 0.05413 0.45127 0.0
H1770 H 0.44408 0.97918 0.38593 0.0
H1771 H 0.42136 0.99386 0.39735 0.0
H1772 H 0.43251 0.97223 0.41416 0.0
H1773 H 0.5014 0.06052 0.38964 0.0
H1774 H 0.50663 0.07768 0.41903 0.0
H1775 H 0.47831 0.07464 0.401 0.0
C1776 C 0.72838 0.65312 0.09223 0.0
C1777 C 0.74028 0.66077 0.07249 0.0
C1778 C 0.7337 0.66543 0.11558 0.0
C1779 C 0.75151 0.68577 0.11934 0.0
C1780 C 0.76268 0.6943 0.09927 0.0
C1781 C 0.75685 0.68175 0.07605 0.0
C1782 C 0.72119 0.65592 0.13646 0.0
C1783 C 0.78183 0.71587 0.10256 0.0
C1784 C 0.75914 0.72434 0.17995 0.0
C1785 C 0.77737 0.71555 0.1927 0.0
C1786 C 0.75046 0.71488 0.15599 0.0
C1787 C 0.76044 0.69639 0.14455 0.0
C1788 C 0.77898 0.68765 0.1573 0.0
C1789 C 0.78713 0.69725 0.18121 0.0
C1790 C 0.73053 0.72449 0.143 0.0
C1791 C 0.79024 0.66806 0.14571 0.0
H1792 H 0.71535 0.63708 0.08962 0.0
H1793 H 0.7661 0.68786 0.06092 0.0
H1794 H 0.73398 0.64882 0.14863 0.0
H1795 H 0.71467 0.67011 0.14747 0.0
H1796 H 0.70584 0.6417 0.1301 0.0
H1797 H 0.78685 0.72168 0.08487 0.0
H1798 H 0.77583 0.73052 0.11335 0.0
H1799 H 0.79801 0.71205 0.11282 0.0
H1800 H 0.75149 0.73845 0.18877 0.0
H1801 H 0.80131 0.69044 0.19087 0.0
H1802 H 0.71487 0.71034 0.13795 0.0
H1803 H 0.73628 0.73098 0.12586 0.0
H1804 H 0.72487 0.73905 0.15434 0.0
H1805 H 0.77652 0.65209 0.14075 0.0
H1806 H 0.80483 0.66361 0.15794 0.0
H1807 H 0.79761 0.67311 0.12867 0.0
C1808 C 0.1146 0.0049 0.6774 0.0
C1809 C 0.10265 0.9956 0.69635 0.0
C1810 C 0.10317 0.00268 0.65371 0.0
C1811 C 0.07942 0.99048 0.64883 0.0
C1812 C 0.06726 0.98109 0.66792 0.0
C1813 C 0.07897 0.98395 0.69151 0.0
C1814 C 0.11659 0.0132 0.63386 0.0
C1815 C 0.04208 0.9676 0.66333 0.0
C1816 C 0.04264 -0.00159 0.59087 0.0
C1817 C 0.04604 0.97905 0.57527 0.0
C1818 C 0.05352 0.00248 0.61489 0.0
C1819 C 0.06768 0.98654 0.62352 0.0
C1820 C 0.07073 0.96672 0.60794 0.0
C1821 C 0.06006 0.96335 0.58394 0.0
C1822 C 0.05017 0.02398 0.63091 0.0
C1823 C 0.08529 0.94907 0.61659 0.0
H1824 H 0.13285 0.01408 0.68111 0.0
H1825 H 0.06969 0.97667 0.7061 0.0
H1826 H 0.119 -0.00091 0.6198 0.0
H1827 H 0.10616 0.025 0.62476 0.0
H1828 H 0.13444 0.0233 0.64094 0.0
H1829 H 0.03497 0.96184 0.68026 0.0
H1830 H 0.03007 0.97855 0.65512 0.0
H1831 H 0.04158 0.95187 0.65013 0.0
H1832 H 0.03191 0.01064 0.58414 0.0
H1833 H 0.06253 0.94822 0.57198 0.0
H1834 H 0.06777 0.03505 0.63701 0.0
H1835 H 0.04196 0.01876 0.64748 0.0
H1836 H 0.0387 0.0347 0.62141 0.0
H1837 H 0.10403 0.95773 0.62199 0.0
H1838 H 0.08528 0.93421 0.60239 0.0
H1839 H 0.07816 0.94196 0.63292 0.0
C1840 C 0.72361 0.35595 0.42576 0.0
C1841 C 0.72741 0.34961 0.44934 0.0
C1842 C 0.72473 0.34015 0.40526 0.0
C1843 C 0.72971 0.31749 0.40847 0.0
C1844 C 0.73161 0.31037 0.43212 0.0
C1845 C 0.73049 0.32653 0.45229 0.0
C1846 C 0.72251 0.34838 0.38029 0.0
C1847 C 0.73663 0.28627 0.43627 0.0
C1848 C 0.72622 0.27492 0.35117 0.0
C1849 C 0.74989 0.27936 0.34536 0.0
C1850 C 0.71936 0.28659 0.3722 0.0
C1851 C 0.73664 0.30286 0.38763 0.0
C1852 C 0.7608 0.30628 0.38249 0.0
C1853 C 0.7671 0.29448 0.36143 0.0
C1854 C 0.69347 0.28244 0.37718 0.0
C1855 C 0.77987 0.32329 0.39858 0.0
H1856 H 0.72102 0.37366 0.42327 0.0
H1857 H 0.73308 0.32132 0.47043 0.0
H1858 H 0.74036 0.35114 0.37338 0.0
H1859 H 0.71069 0.33492 0.36729 0.0
H1860 H 0.71541 0.36509 0.38055 0.0
H1861 H 0.73377 0.28216 0.45508 0.0
H1862 H 0.72513 0.27262 0.4232 0.0
H1863 H 0.75546 0.28533 0.43321 0.0
H1864 H 0.71287 0.26332 0.33866 0.0
H1865 H 0.78546 0.29777 0.35706 0.0
H1866 H 0.68555 0.29818 0.37378 0.0
H1867 H 0.6918 0.27963 0.39652 0.0
H1868 H 0.68295 0.26709 0.36541 0.0
H1869 H 0.7761 0.34139 0.39816 0.0
H1870 H 0.79801 0.32287 0.39275 0.0
H1871 H 0.77983 0.31924 0.41772 0.0
C1872 C 0.40855 0.02251 0.17672 0.0
C1873 C 0.41461 0.03914 0.19721 0.0
C1874 C 0.42484 0.02013 0.1593 0.0
C1875 C 0.44746 0.03487 0.16251 0.0
C1876 C 0.45287 0.0528 0.18222 0.0
C1877 C 0.43641 0.05462 0.19942 0.0
C1878 C 0.41835 0.0011 0.13822 0.0
C1879 C 0.47655 0.06928 0.18584 0.0
C1880 C 0.50137 0.01388 0.13777 0.0
C1881 C 0.50425 0.02667 0.11782 0.0
C1882 C 0.48257 0.01603 0.15226 0.0
C1883 C 0.46611 0.03089 0.14617 0.0
C1884 C 0.46843 0.04303 0.12537 0.0
C1885 C 0.48762 0.04091 0.11155 0.0
C1886 C 0.48048 0.00265 0.17423 0.0
C1887 C 0.45093 0.05854 0.11788 0.0
H1888 H 0.39173 0.01046 0.17505 0.0
H1889 H 0.44101 0.0676 0.2152 0.0
H1890 H 0.42208 0.00823 0.1208 0.0
H1891 H 0.42944 0.98731 0.14046 0.0
H1892 H 0.39924 0.99285 0.13693 0.0
H1893 H 0.47735 0.08317 0.20126 0.0
H1894 H 0.49118 0.05924 0.18945 0.0
H1895 H 0.47989 0.07777 0.16906 0.0
H1896 H 0.51394 0.00241 0.14214 0.0
H1897 H 0.4893 0.04997 0.0954 0.0
H1898 H 0.4625 0.99171 0.1732 0.0
H1899 H 0.48255 0.01515 0.19101 0.0
H1900 H 0.49413 0.99113 0.17589 0.0
H1901 H 0.43233 0.05041 0.11996 0.0
H1902 H 0.45202 0.06227 0.09869 0.0
H1903 H 0.45493 0.07544 0.12977 0.0
C1904 C 0.77261 0.67382 0.91185 0.0
C1905 C 0.767 0.68304 0.93459 0.0
C1906 C 0.77601 0.68795 0.89283 0.0
C1907 C 0.77386 0.71194 0.89665 0.0
C1908 C 0.7695 0.72165 0.91995 0.0
C1909 C 0.76605 0.70707 0.93862 0.0
C1910 C 0.78058 0.67688 0.86824 0.0
C1911 C 0.7672 0.74714 0.92479 0.0
C1912 C 0.79368 0.749 0.84639 0.0
C1913 C 0.77213 0.74693 0.83172 0.0
C1914 C 0.7945 0.73849 0.86825 0.0
C1915 C 0.77324 0.72591 0.87551 0.0
C1916 C 0.75127 0.72514 0.86143 0.0
C1917 C 0.75102 0.73557 0.83972 0.0
C1918 C 0.81823 0.73981 0.88287 0.0
C1919 C 0.72809 0.71227 0.8686 0.0
H1920 H 0.77349 0.65531 0.9086 0.0
H1921 H 0.76188 0.71439 0.95618 0.0
H1922 H 0.76488 0.67653 0.85494 0.0
H1923 H 0.79615 0.68741 0.86137 0.0
H1924 H 0.78395 0.65864 0.86883 0.0
H1925 H 0.767 0.75269 0.94451 0.0
H1926 H 0.7821 0.75849 0.91776 0.0
H1927 H 0.75035 0.75009 0.91509 0.0
H1928 H 0.81002 0.75773 0.84019 0.0
H1929 H 0.73425 0.73423 0.82855 0.0
H1930 H 0.82362 0.72227 0.88126 0.0
H1931 H 0.81681 0.74486 0.90244 0.0
H1932 H 0.83248 0.75256 0.87652 0.0
H1933 H 0.72861 0.6932 0.86746 0.0
H1934 H 0.71236 0.71492 0.85669 0.0
H1935 H 0.72562 0.7182 0.8877 0.0
C1936 C 0.85577 0.07487 0.04301 0.0
C1937 C 0.83589 0.08031 0.02975 0.0
C1938 C 0.87116 0.06173 0.03167 0.0
C1939 C 0.86594 0.05308 0.00671 0.0
C1940 C 0.84617 0.05902 0.99309 0.0
C1941 C 0.83154 0.07292 0.00475 0.0
C1942 C 0.89257 0.05647 0.04665 0.0
C1943 C 0.83966 0.04959 0.96666 0.0
C1944 C 0.91748 0.03111 0.97858 0.0
C1945 C 0.9142 0.00788 0.98443 0.0
C1946 C 0.90114 0.04585 0.98446 0.0
C1947 C 0.88061 0.03685 0.99552 0.0
C1948 C 0.87585 0.01273 -0.00118 0.0
C1949 C 0.89288 -0.00143 0.99351 0.0
C1950 C 0.90707 0.07154 0.981 0.0
C1951 C 0.8537 0.00231 0.00982 0.0
H1952 H 0.8591 0.08067 0.06235 0.0
H1953 H 0.81591 0.07688 0.9946 0.0
H1954 H 0.8898 0.03759 0.0493 0.0
H1955 H 0.90888 0.06023 0.03704 0.0
H1956 H 0.8957 0.0669 0.06483 0.0
H1957 H 0.82538 0.05787 0.95801 0.0
H1958 H 0.85548 0.0524 0.95622 0.0
H1959 H 0.8333 0.03039 0.96528 0.0
H1960 H 0.93382 0.03846 0.97135 0.0
H1961 H 0.8901 0.98058 -0.00222 0.0
H1962 H 0.91138 0.08205 -0.00093 0.0
H1963 H 0.89152 0.0775 0.97182 0.0
H1964 H 0.92257 0.07533 0.97019 0.0
H1965 H 0.85554 0.00823 0.02961 0.0
H1966 H 0.85067 0.98283 0.00737 0.0
H1967 H 0.83774 0.00836 0.00154 0.0
C1968 C 0.33419 0.42857 0.05139 0.0
C1969 C 0.31894 0.43839 0.03579 0.0
C1970 C 0.3588 0.43747 0.05491 0.0
C1971 C 0.36829 0.45637 0.04227 0.0
C1972 C 0.35283 0.46699 0.02741 0.0
C1973 C 0.32838 0.45798 0.02447 0.0
C1974 C 0.37476 0.42598 0.07122 0.0
C1975 C 0.36225 0.48702 0.01339 0.0
C1976 C 0.43151 0.49052 0.05508 0.0
C1977 C 0.44296 0.47964 0.03682 0.0
C1978 C 0.4074 0.48242 0.05797 0.0
C1979 C 0.39449 0.46329 0.04198 0.0
C1980 C 0.40614 0.45198 0.02389 0.0
C1981 C 0.4302 0.46021 0.02163 0.0
C1982 C 0.3956 0.49467 0.07769 0.0
C1983 C 0.39295 0.43173 0.00622 0.0
H1984 H 0.32703 0.4136 0.06041 0.0
H1985 H 0.31678 0.46585 0.01251 0.0
H1986 H 0.3856 0.41582 0.05995 0.0
H1987 H 0.38734 0.43944 0.08355 0.0
H1988 H 0.36438 0.41389 0.08238 0.0
H1989 H 0.34769 0.4945 0.00415 0.0
H1990 H 0.37386 0.50122 0.02571 0.0
H1991 H 0.3733 0.48073 -0.00062 0.0
H1992 H 0.44134 0.5054 0.06702 0.0
H1993 H 0.43884 0.45173 0.00739 0.0
H1994 H 0.3859 0.48166 0.08837 0.0
H1995 H 0.38225 0.50417 0.06932 0.0
H1996 H 0.40868 0.50744 0.09029 0.0
H1997 H 0.38406 0.41769 0.01623 0.0
H1998 H 0.40495 0.4241 0.99404 0.0
H1999 H 0.37881 0.43779 0.99477 0.0
C2000 C 0.32135 0.56456 0.76292 0.0
C2001 C 0.34506 0.56534 0.77237 0.0
C2002 C 0.30991 0.58405 0.76688 0.0
C2003 C 0.32249 0.6048 0.7806 0.0
C2004 C 0.34596 0.60521 0.79132 0.0
C2005 C 0.35696 0.58549 0.78705 0.0
C2006 C 0.28487 0.58289 0.75517 0.0
C2007 C 0.35999 0.62697 0.80611 0.0
C2008 C 0.31017 0.66343 0.76354 0.0
C2009 C 0.29729 0.67085 0.78249 0.0
C2010 C 0.31782 0.64173 0.76246 0.0
C2011 C 0.31261 0.62698 0.78088 0.0
C2012 C 0.29902 0.634 0.79975 0.0
C2013 C 0.2914 0.65591 0.8003 0.0
C2014 C 0.33203 0.63488 0.74184 0.0
C2015 C 0.2931 0.61868 0.81965 0.0
H2016 H 0.31196 0.54899 0.7517 0.0
H2017 H 0.37521 0.58617 0.79462 0.0
H2018 H 0.27352 0.58997 0.76841 0.0
H2019 H 0.28534 0.5939 0.73988 0.0
H2020 H 0.27641 0.5647 0.74795 0.0
H2021 H 0.37683 0.6236 0.81552 0.0
H2022 H 0.36452 0.64079 0.79396 0.0
H2023 H 0.34914 0.63393 0.81993 0.0
H2024 H 0.31453 0.67473 0.7495 0.0
H2025 H 0.28142 0.66156 0.81495 0.0
H2026 H 0.32356 0.61755 0.73223 0.0
H2027 H 0.35028 0.63325 0.74922 0.0
H2028 H 0.33356 0.64787 0.72836 0.0
H2029 H 0.28461 0.60075 0.81166 0.0
H2030 H 0.28096 0.62584 0.83199 0.0
H2031 H 0.30977 0.61706 0.83061 0.0
C2032 C 0.17354 0.62003 0.50671 0.0
C2033 C 0.19188 0.60985 0.49702 0.0
C2034 C 0.14988 0.60809 0.50337 0.0
C2035 C 0.14456 0.58566 0.48978 0.0
C2036 C 0.16288 0.57579 0.47912 0.0
C2037 C 0.18636 0.58796 0.48298 0.0
C2038 C 0.13073 0.61907 0.51507 0.0
C2039 C 0.1578 0.55207 0.4642 0.0
C2040 C 0.09012 0.5431 0.50183 0.0
C2041 C 0.07365 0.54565 0.48258 0.0
C2042 C 0.11323 0.55628 0.50455 0.0
C2043 C 0.12 0.57207 0.48741 0.0
C2044 C 0.10353 0.57446 0.46776 0.0
C2045 C 0.08047 0.56129 0.46566 0.0
C2046 C 0.13035 0.5534 0.52582 0.0
C2047 C 0.11027 0.59085 0.44894 0.0
H2048 H 0.17779 0.63693 0.51762 0.0
H2049 H 0.2005 0.58013 0.47531 0.0
H2050 H 0.11586 0.61996 0.50121 0.0
H2051 H 0.12319 0.60801 0.52878 0.0
H2052 H 0.13762 0.63702 0.52419 0.0
H2053 H 0.17382 0.54754 0.45594 0.0
H2054 H 0.15148 0.53833 0.47588 0.0
H2055 H 0.14338 0.55166 0.44943 0.0
H2056 H 0.08482 0.53115 0.51503 0.0
H2057 H 0.06778 0.56319 0.45066 0.0
H2058 H 0.13661 0.57057 0.53687 0.0
H2059 H 0.14631 0.54721 0.51911 0.0
H2060 H 0.12212 0.54074 0.53779 0.0
H2061 H 0.11577 0.60906 0.45784 0.0
H2062 H 0.09536 0.59055 0.43469 0.0
H2063 H 0.12577 0.58596 0.44001 0.0
C2064 C 0.67382 0.91207 0.76549 0.0
C2065 C 0.68042 0.93651 0.76757 0.0
C2066 C 0.69113 0.89754 0.76723 0.0
C2067 C 0.7156 0.90772 0.77156 0.0
C2068 C 0.7223 0.93242 0.77477 0.0
C2069 C 0.70463 0.94654 0.77252 0.0
C2070 C 0.68326 0.87125 0.76349 0.0
C2071 C 0.74815 0.94391 0.77986 0.0
C2072 C 0.75546 0.86485 0.79012 0.0
C2073 C 0.76252 0.85696 0.76752 0.0
C2074 C 0.74138 0.88254 0.79208 0.0
C2075 C 0.73407 0.89237 0.77092 0.0
C2076 C 0.74262 0.88569 0.74846 0.0
C2077 C 0.75685 0.86818 0.74707 0.0
C2078 C 0.73308 0.88957 0.81647 0.0
C2079 C 0.73522 0.89564 0.72541 0.0
H2080 H 0.65515 0.90422 0.76166 0.0
H2081 H 0.70982 0.96545 0.77435 0.0
H2082 H 0.69061 0.86383 0.74709 0.0
H2083 H 0.69032 0.86317 0.77924 0.0
H2084 H 0.66351 0.86612 0.76114 0.0
H2085 H 0.75022 0.96322 0.78424 0.0
H2086 H 0.75684 0.93654 0.79527 0.0
H2087 H 0.75781 0.94021 0.76371 0.0
H2088 H 0.75985 0.85639 0.80606 0.0
H2089 H 0.7623 0.86233 0.72954 0.0
H2090 H 0.71396 0.88192 0.81659 0.0
H2091 H 0.73469 0.90891 0.81983 0.0
H2092 H 0.74339 0.88333 0.83164 0.0
H2093 H 0.71621 0.88837 0.71946 0.0
H2094 H 0.74609 0.89128 0.7104 0.0
H2095 H 0.73687 0.91498 0.7286 0.0
C2096 C 0.68628 0.94496 0.52718 0.0
C2097 C 0.68075 0.92219 0.53394 0.0
C2098 C 0.66883 0.95919 0.52495 0.0
C2099 C 0.6453 0.95062 0.52997 0.0
C2100 C 0.6394 0.92746 0.53629 0.0
C2101 C 0.65722 0.9134 0.53803 0.0
C2102 C 0.67576 0.98364 0.51783 0.0
C2103 C 0.61446 0.91783 0.54193 0.0
C2104 C 0.60817 0.99554 0.55187 0.0
C2105 C 0.593 0.99634 0.53092 0.0
C2106 C 0.62542 0.98091 0.55168 0.0
C2107 C 0.62735 0.9665 0.53009 0.0
C2108 C 0.6125 0.96764 0.50869 0.0
C2109 C 0.59555 0.98266 0.50932 0.0
C2110 C 0.64123 0.98047 0.57476 0.0
C2111 C 0.61408 0.95257 0.48532 0.0
H2112 H 0.70439 0.9518 0.52372 0.0
H2113 H 0.6529 0.89582 0.54323 0.0
H2114 H 0.66368 0.98637 0.50207 0.0
H2115 H 0.67384 0.99677 0.53313 0.0
H2116 H 0.69445 0.98707 0.513 0.0
H2117 H 0.61248 0.89915 0.54542 0.0
H2118 H 0.60996 0.92826 0.55823 0.0
H2119 H 0.60129 0.91939 0.5266 0.0
H2120 H 0.60621 0.00602 0.56861 0.0
H2121 H 0.58362 0.98292 0.49315 0.0
H2122 H 0.66029 0.9839 0.57128 0.0
H2123 H 0.63765 0.9628 0.58106 0.0
H2124 H 0.63835 0.99367 0.5896 0.0
H2125 H 0.63266 0.95534 0.48019 0.0
H2126 H 0.60204 0.95634 0.46999 0.0
H2127 H 0.60925 0.93378 0.48798 0.0
C2128 C 0.32462 0.42879 0.74335 0.0
C2129 C 0.34763 0.42807 0.73628 0.0
C2130 C 0.30862 0.40806 0.74505 0.0
C2131 C 0.31578 0.38612 0.73955 0.0
C2132 C 0.33841 0.38525 0.73102 0.0
C2133 C 0.35404 0.40622 0.72947 0.0
C2134 C 0.28462 0.4097 0.75416 0.0
C2135 C 0.34671 0.36218 0.72488 0.0
C2136 C 0.29389 0.33457 0.77335 0.0
C2137 C 0.27809 0.31993 0.75548 0.0
C2138 C 0.30536 0.35662 0.7687 0.0
C2139 C 0.30107 0.36423 0.74552 0.0
C2140 C 0.28418 0.35008 0.72778 0.0
C2141 C 0.27276 0.32806 0.73303 0.0
C2142 C 0.32301 0.37126 0.78825 0.0
C2143 C 0.27915 0.35763 0.70288 0.0
H2144 H 0.3194 0.44555 0.7485 0.0
H2145 H 0.37167 0.40543 0.72378 0.0
H2146 H 0.27024 0.39742 0.74262 0.0
H2147 H 0.28452 0.40456 0.77292 0.0
H2148 H 0.28045 0.42773 0.75446 0.0
H2149 H 0.36369 0.3644 0.71617 0.0
H2150 H 0.34948 0.35373 0.74176 0.0
H2151 H 0.33292 0.35003 0.71248 0.0
H2152 H 0.29788 0.32843 0.79083 0.0
H2153 H 0.26064 0.31674 0.71913 0.0
H2154 H 0.31901 0.3893 0.79118 0.0
H2155 H 0.34129 0.37264 0.78237 0.0
H2156 H 0.32288 0.36365 0.80588 0.0
H2157 H 0.27581 0.37596 0.70441 0.0
H2158 H 0.26354 0.34611 0.69228 0.0
H2159 H 0.29498 0.3571 0.69257 0.0
C2160 C 0.1547 0.59684 0.24604 0.0
C2161 C 0.16183 0.5774 0.25582 0.0
C2162 C 0.16824 0.61938 0.25179 0.0
C2163 C 0.18936 0.62262 0.26786 0.0
C2164 C 0.19706 0.60301 0.27723 0.0
C2165 C 0.18326 0.58062 0.27102 0.0
C2166 C 0.15955 0.63984 0.24126 0.0
C2167 C 0.21942 0.6058 0.29451 0.0
C2168 C 0.23231 0.68042 0.2709 0.0
C2169 C 0.22526 0.69332 0.29095 0.0
C2170 C 0.221 0.65724 0.2633 0.0
C2171 C 0.20238 0.64673 0.27618 0.0
C2172 C 0.19558 0.65952 0.29675 0.0
C2173 C 0.20703 0.68267 0.30381 0.0
C2174 C 0.22862 0.64418 0.2412 0.0
C2175 C 0.17593 0.64888 0.3111 0.0
H2176 H 0.13829 0.59453 0.23413 0.0
H2177 H 0.18895 0.56573 0.27866 0.0
H2178 H 0.15458 0.65181 0.25608 0.0
H2179 H 0.17399 0.65005 0.23244 0.0
H2180 H 0.1438 0.63415 0.22765 0.0
H2181 H 0.22385 0.58866 0.29885 0.0
H2182 H 0.23478 0.61559 0.28662 0.0
H2183 H 0.21703 0.61618 0.31174 0.0
H2184 H 0.24634 0.68858 0.26083 0.0
H2185 H 0.20158 0.69248 0.31941 0.0
H2186 H 0.21347 0.6398 0.22677 0.0
H2187 H 0.23365 0.62739 0.24586 0.0
H2188 H 0.24396 0.65453 0.23371 0.0
H2189 H 0.15884 0.6445 0.29927 0.0
H2190 H 0.17343 0.66086 0.32719 0.0
H2191 H 0.17999 0.6323 0.31743 0.0
C2192 C 0.52405 0.68965 0.46535 0.0
C2193 C 0.50623 0.69156 0.44708 0.0
C2194 C 0.52361 0.66893 0.47653 0.0
C2195 C 0.50461 0.64996 0.46962 0.0
C2196 C 0.48575 0.65245 0.45237 0.0
C2197 C 0.48696 0.67311 0.44105 0.0
C2198 C 0.54425 0.66682 0.49451 0.0
C2199 C 0.46485 0.63284 0.44496 0.0
C2200 C 0.51317 0.58683 0.46968 0.0
C2201 C 0.5023 0.58045 0.49035 0.0
C2202 C 0.51533 0.60985 0.46362 0.0
C2203 C 0.50564 0.62665 0.47818 0.0
C2204 C 0.49539 0.62046 0.49963 0.0
C2205 C 0.49411 0.59738 0.50566 0.0
C2206 C 0.52699 0.61585 0.44096 0.0
C2207 C 0.48442 0.63772 0.51531 0.0
H2208 H 0.53905 0.70386 0.46998 0.0
H2209 H 0.47305 0.67463 0.42708 0.0
H2210 H 0.53768 0.65975 0.51108 0.0
H2211 H 0.55488 0.65431 0.48621 0.0
H2212 H 0.55621 0.68392 0.49997 0.0
H2213 H 0.45034 0.63858 0.43371 0.0
H2214 H 0.4709 0.61814 0.43428 0.0
H2215 H 0.45748 0.62598 0.4613 0.0
H2216 H 0.51952 0.57361 0.45793 0.0
H2217 H 0.4854 0.59221 0.52146 0.0
H2218 H 0.54044 0.63213 0.44503 0.0
H2219 H 0.51333 0.6191 0.4269 0.0
H2220 H 0.53589 0.60155 0.43323 0.0
H2221 H 0.49676 0.65472 0.51939 0.0
H2222 H 0.47971 0.63108 0.53274 0.0
H2223 H 0.46793 0.64115 0.50529 0.0
C2224 C 0.59991 0.29145 0.7145 0.0
C2225 C 0.60139 0.2933 0.68958 0.0
C2226 C 0.61947 0.28752 0.72945 0.0
C2227 C 0.64117 0.28582 0.71934 0.0
C2228 C 0.64328 0.2892 0.69458 0.0
C2229 C 0.62327 0.2928 0.6799 0.0
C2230 C 0.6164 0.28368 0.75567 0.0
C2231 C 0.66639 0.28805 0.6834 0.0
C2232 C 0.69635 0.2869 0.76279 0.0
C2233 C 0.69795 0.26303 0.76122 0.0
C2234 C 0.67806 0.29472 0.74905 0.0
C2235 C 0.66076 0.27814 0.73402 0.0
C2236 C 0.6619 0.25393 0.73311 0.0
C2237 C 0.68072 0.24671 0.74647 0.0
C2238 C 0.67769 0.32069 0.75 0.0
C2239 C 0.64345 0.23566 0.71774 0.0
H2240 H 0.58308 0.29197 0.72218 0.0
H2241 H 0.62456 0.29445 0.66071 0.0
H2242 H 0.61751 0.26519 0.75827 0.0
H2243 H 0.63092 0.29494 0.76799 0.0
H2244 H 0.59899 0.28744 0.76122 0.0
H2245 H 0.66554 0.29252 0.66435 0.0
H2246 H 0.68119 0.30029 0.69439 0.0
H2247 H 0.67076 0.27015 0.68348 0.0
H2248 H 0.71005 0.29954 0.77382 0.0
H2249 H 0.68213 0.22826 0.74524 0.0
H2250 H 0.66023 0.32454 0.75516 0.0
H2251 H 0.67992 0.32643 0.73167 0.0
H2252 H 0.69207 0.33122 0.76313 0.0
H2253 H 0.62531 0.23739 0.72274 0.0
H2254 H 0.64639 0.21751 0.7199 0.0
H2255 H 0.64391 0.23841 0.69824 0.0
C2256 C 0.00068 0.32406 0.9483 0.0
C2257 C 0.01972 0.32383 0.93377 0.0
C2258 C -0.0034 0.34513 0.96058 0.0
C2259 C 0.01221 0.36629 0.95862 0.0
C2260 C 0.03254 0.36578 0.94558 0.0
C2261 C 0.03586 0.3446 0.93304 0.0
C2262 C 0.97473 0.34498 0.97423 0.0
C2263 C 0.05007 0.38784 0.94369 0.0
C2264 C 0.9915 0.42476 0.95753 0.0
C2265 C 0.00121 0.43627 0.98031 0.0
C2266 C 0.99341 0.4013 0.951 0.0
C2267 C 0.00596 0.38931 0.96744 0.0
C2268 C 0.01462 0.40048 0.99104 0.0
C2269 C 0.0119 0.42384 -0.0027 0.0
C2270 C 0.98344 0.3899 0.92585 0.0
C2271 C 0.02848 0.38855 0.00894 0.0
H2272 H 0.98812 0.30803 0.94886 0.0
H2273 H 0.05077 0.34443 0.92208 0.0
H2274 H 0.97935 0.35528 0.99237 0.0
H2275 H 0.96154 0.35338 0.96399 0.0
H2276 H 0.96615 0.3269 0.97671 0.0
H2277 H 0.06629 0.38405 0.93532 0.0
H2278 H 0.04142 0.39945 0.93241 0.0
H2279 H 0.0556 0.39763 0.96197 0.0
H2280 H 0.9833 0.43445 0.94441 0.0
H2281 H 0.01978 0.43289 0.0148 0.0
H2282 H 0.97302 0.37223 0.92684 0.0
H2283 H -0.00165 0.38766 0.91461 0.0
H2284 H 0.97178 0.40052 0.91648 0.0
H2285 H 0.02008 0.36997 0.00904 0.0
H2286 H 0.02992 0.3976 0.02772 0.0
H2287 H 0.04679 0.3887 0.00345 0.0
C2288 C 0.96556 0.78376 0.19047 0.0
C2289 C 0.97643 0.76384 0.19027 0.0
C2290 C 0.94332 0.78377 0.19959 0.0
C2291 C 0.93143 0.7631 0.20785 0.0
C2292 C 0.94215 0.74277 0.20717 0.0
C2293 C 0.96477 0.74352 0.19877 0.0
C2294 C 0.93269 0.80596 0.20064 0.0
C2295 C 0.92961 0.72017 0.215 0.0
C2296 C 0.88228 0.76738 0.2496 0.0
C2297 C 0.86208 0.76318 0.23274 0.0
C2298 C 0.90511 0.76758 0.24175 0.0
C2299 C 0.90747 0.76259 0.21661 0.0
C2300 C 0.88693 0.75751 0.19968 0.0
C2301 C 0.86448 0.75829 0.20793 0.0
C2302 C 0.9267 0.77373 0.26021 0.0
C2303 C 0.88864 0.7513 0.17285 0.0
H2304 H 0.97476 0.79954 0.18414 0.0
H2305 H 0.9732 0.72809 0.19846 0.0
H2306 H 0.9156 0.80299 0.18885 0.0
H2307 H 0.92864 0.81095 0.2195 0.0
H2308 H 0.9448 0.82086 0.19468 0.0
H2309 H 0.94018 0.70578 0.21278 0.0
H2310 H 0.9261 0.72288 0.23437 0.0
H2311 H 0.91206 0.71456 0.20414 0.0
H2312 H 0.88027 0.77128 0.26877 0.0
H2313 H 0.8487 0.75478 0.19499 0.0
H2314 H 0.93858 0.78944 0.25557 0.0
H2315 H 0.93711 0.75919 0.25976 0.0
H2316 H 0.92179 0.77736 0.27903 0.0
H2317 H 0.89865 0.76646 0.1652 0.0
H2318 H 0.8708 0.74627 0.16238 0.0
H2319 H 0.89863 0.73654 0.17015 0.0
C2320 C 0.5073 0.30011 0.0676 0.0
C2321 C 0.50333 0.30394 0.09222 0.0
C2322 C 0.50704 0.318 0.0523 0.0
C2323 C 0.50261 0.34018 0.06183 0.0
C2324 C 0.49827 0.34403 0.08659 0.0
C2325 C 0.49872 0.32589 0.10148 0.0
C2326 C 0.51181 0.31328 0.02603 0.0
C2327 C 0.49335 0.36742 0.09743 0.0
C2328 C 0.52316 0.39612 0.03382 0.0
C2329 C 0.50157 0.40046 0.02271 0.0
C2330 C 0.52401 0.37588 0.04555 0.0
C2331 C 0.50277 0.35961 0.04619 0.0
C2332 C 0.48126 0.36313 0.03366 0.0
C2333 C 0.48093 0.38348 0.02201 0.0
C2334 C 0.54735 0.37265 0.05851 0.0
C2335 C 0.45826 0.34614 0.03382 0.0
H2336 H 0.51092 0.2832 0.06032 0.0
H2337 H 0.49561 0.32897 0.12046 0.0
H2338 H 0.49674 0.31677 0.01382 0.0
H2339 H 0.52802 0.3253 0.02239 0.0
H2340 H 0.51442 0.29492 0.02129 0.0
H2341 H 0.48986 0.36741 0.11686 0.0
H2342 H 0.50883 0.38134 0.09605 0.0
H2343 H 0.47766 0.37207 0.08707 0.0
H2344 H 0.53924 0.40905 0.03436 0.0
H2345 H 0.46418 0.3866 0.01339 0.0
H2346 H 0.55085 0.35465 0.05366 0.0
H2347 H 0.54633 0.37497 0.07848 0.0
H2348 H 0.56267 0.38543 0.05406 0.0
H2349 H 0.46097 0.32789 0.02883 0.0
H2350 H 0.44373 0.35001 0.02108 0.0
H2351 H 0.4524 0.34708 0.05245 0.0
C2352 C 0.94343 0.24598 0.35293 0.0
C2353 C 0.9581 0.26744 0.35125 0.0
C2354 C 0.91881 0.24272 0.34604 0.0
C2355 C 0.90859 0.26163 0.33805 0.0
C2356 C 0.9233 0.28345 0.33668 0.0
C2357 C 0.94797 0.28599 0.34295 0.0
C2358 C 0.90377 0.219 0.34713 0.0
C2359 C 0.91295 0.3042 0.3289 0.0
C2360 C 0.84832 0.24862 0.30069 0.0
C2361 C 0.83281 0.25138 0.31872 0.0
C2362 C 0.87307 0.2518 0.30674 0.0
C2363 C 0.88247 0.25859 0.33127 0.0
C2364 C 0.86687 0.26211 0.34941 0.0
C2365 C 0.84216 0.25809 0.34296 0.0
C2366 C 0.88908 0.24729 0.287 0.0
C2367 C 0.87628 0.27002 0.37564 0.0
H2368 H 0.9513 0.23158 0.35918 0.0
H2369 H 0.95929 0.30267 0.34186 0.0
H2370 H 0.89015 0.22055 0.36013 0.0
H2371 H 0.89409 0.21237 0.329 0.0
H2372 H 0.91462 0.20589 0.35285 0.0
H2373 H 0.92677 0.32012 0.3294 0.0
H2374 H 0.90398 0.29995 0.31014 0.0
H2375 H 0.89921 0.30823 0.34099 0.0
H2376 H 0.84103 0.24321 0.28197 0.0
H2377 H 0.83013 0.26039 0.35686 0.0
H2378 H 0.89912 0.23318 0.29146 0.0
H2379 H 0.90239 0.26324 0.28592 0.0
H2380 H 0.87891 0.24202 0.26884 0.0
H2381 H 0.88547 0.2565 0.38317 0.0
H2382 H 0.86187 0.27328 0.38722 0.0
H2383 H 0.88963 0.28636 0.37681 0.0
C2384 C -0.00215 0.67397 0.57364 0.0
C2385 C -0.00337 0.67194 0.59856 0.0
C2386 C -0.00326 0.65398 0.55688 0.0
C2387 C 0.99415 0.63154 0.56526 0.0
C2388 C 0.99113 0.62935 0.59008 0.0
C2389 C 0.99261 0.64956 0.60644 0.0
C2390 C -0.0002 0.65699 0.53051 0.0
C2391 C 0.98794 0.60578 0.59982 0.0
C2392 C 0.98193 0.57314 0.52548 0.0
C2393 C 0.00467 0.56688 0.52717 0.0
C2394 C 0.97831 0.59497 0.53645 0.0
C2395 C -0.00208 0.61071 0.54925 0.0
C2396 C 0.02114 0.60505 0.54939 0.0
C2397 C 0.0242 0.58322 0.53836 0.0
C2398 C 0.95331 0.60041 0.53587 0.0
C2399 C 0.04259 0.62134 0.56267 0.0
H2400 H 0.00081 0.69121 0.5674 0.0
H2401 H 0.99124 0.64782 0.62559 0.0
H2402 H 0.01786 0.65397 0.52645 0.0
H2403 H 0.98665 0.64392 0.51836 0.0
H2404 H -0.00223 0.67486 0.52618 0.0
H2405 H 0.98099 0.60672 0.61796 0.0
H2406 H 0.9755 0.59241 0.58729 0.0
H2407 H 0.00544 0.59979 0.60158 0.0
H2408 H 0.96678 0.56052 0.51686 0.0
H2409 H 0.04188 0.57855 0.53938 0.0
H2410 H 0.95314 0.61881 0.53222 0.0
H2411 H 0.94655 0.59837 0.55391 0.0
H2412 H 0.94089 0.58851 0.52186 0.0
H2413 H 0.04316 0.63938 0.55754 0.0
H2414 H 0.05964 0.61549 0.5588 0.0
H2415 H 0.04123 0.62213 0.58259 0.0
C2416 C 0.61871 0.75115 0.87393 0.0
C2417 C 0.59667 0.75464 0.86316 0.0
C2418 C 0.63917 0.75406 0.86127 0.0
C2419 C 0.63756 0.76091 0.83744 0.0
C2420 C 0.61517 0.76351 0.82613 0.0
C2421 C 0.59496 0.76022 0.83909 0.0
C2422 C 0.66271 0.7508 0.87381 0.0
C2423 C 0.61278 0.77096 0.80082 0.0
C2424 C 0.69377 0.79727 0.82028 0.0
C2425 C 0.70308 0.7808 0.80542 0.0
C2426 C 0.6721 0.79112 0.83018 0.0
C2427 C 0.65965 0.76778 0.82546 0.0
C2428 C 0.66871 0.75116 0.81001 0.0
C2429 C 0.69031 0.75794 0.79996 0.0
C2430 C 0.66286 0.80949 0.84622 0.0
C2431 C 0.65608 0.72605 0.80484 0.0
H2432 H 0.62008 0.74662 0.89244 0.0
H2433 H 0.57796 0.76288 0.83062 0.0
H2434 H 0.67168 0.73934 0.86176 0.0
H2435 H 0.67472 0.76802 0.87776 0.0
H2436 H 0.6605 0.74303 0.8912 0.0
H2437 H 0.59384 0.77008 0.79377 0.0
H2438 H 0.6222 0.78925 0.80104 0.0
H2439 H 0.62125 0.75974 0.78803 0.0
H2440 H 0.70361 0.81499 0.82439 0.0
H2441 H 0.6977 0.74513 0.78871 0.0
H2442 H 0.66247 0.80445 0.865 0.0
H2443 H 0.64431 0.81066 0.83945 0.0
H2444 H 0.67405 0.82712 0.84698 0.0
H2445 H 0.65633 0.71756 0.82192 0.0
H2446 H 0.66454 0.71574 0.79114 0.0
H2447 H 0.63709 0.72539 0.79819 0.0
C2448 C 0.44933 0.51771 0.69303 0.0
C2449 C 0.42537 0.52069 0.6902 0.0
C2450 C 0.46337 0.5185 0.67339 0.0
C2451 C 0.45333 0.52267 0.6504 0.0
C2452 C 0.42942 0.52657 0.6476 0.0
C2453 C 0.41565 0.52537 0.66753 0.0
C2454 C 0.48867 0.51394 0.67702 0.0
C2455 C 0.41821 0.53137 0.6234 0.0
C2456 C 0.49479 0.53918 0.60191 0.0
C2457 C 0.49228 0.5178 0.58716 0.0
C2458 C 0.48221 0.54111 0.62263 0.0
C2459 C 0.46722 0.52108 0.62887 0.0
C2460 C 0.46534 0.4993 0.61445 0.0
C2461 C 0.47772 0.49798 0.59367 0.0
C2462 C 0.48441 0.56468 0.63742 0.0
C2463 C 0.44995 0.47741 0.62073 0.0
H2464 H 0.45698 0.51409 0.71051 0.0
H2465 H 0.39721 0.52785 0.66528 0.0
H2466 H 0.49028 0.49745 0.66589 0.0
H2467 H 0.50124 0.52827 0.67076 0.0
H2468 H 0.49426 0.51235 0.69636 0.0
H2469 H 0.40018 0.53601 0.62474 0.0
H2470 H 0.42971 0.54591 0.61618 0.0
H2471 H 0.4166 0.51563 0.60997 0.0
H2472 H 0.50582 0.55457 0.59673 0.0
H2473 H 0.47586 0.48139 0.58234 0.0
H2474 H 0.49022 0.56339 0.65674 0.0
H2475 H 0.46671 0.57032 0.63696 0.0
H2476 H 0.4973 0.57839 0.63054 0.0
H2477 H 0.45525 0.47414 0.63962 0.0
H2478 H 0.45125 0.46166 0.60821 0.0
H2479 H 0.43101 0.4798 0.61989 0.0
C2480 C 0.76136 0.15783 0.95883 0.0
C2481 C 0.76736 0.16902 0.98256 0.0
C2482 C 0.75986 0.17085 0.93893 0.0
C2483 C 0.76462 0.19567 0.94288 0.0
C2484 C 0.77002 0.20708 0.96685 0.0
C2485 C 0.77128 0.1936 0.98644 0.0
C2486 C 0.75393 0.15805 0.91361 0.0
C2487 C 0.77528 0.2335 0.97172 0.0
C2488 C 0.78789 0.22358 0.88877 0.0
C2489 C 0.76716 0.22948 0.87747 0.0
C2490 C 0.78755 0.21371 0.9108 0.0
C2491 C 0.76588 0.20943 0.92168 0.0
C2492 C 0.74517 0.21655 0.91107 0.0
C2493 C 0.74609 0.22664 0.88905 0.0
C2494 C 0.81011 0.20666 0.92168 0.0
C2495 C 0.72175 0.21225 0.92218 0.0
H2496 H 0.75814 0.13884 0.95573 0.0
H2497 H 0.77584 0.20236 0.00477 0.0
H2498 H 0.73888 0.16448 0.90399 0.0
H2499 H 0.76952 0.16158 0.90293 0.0
H2500 H 0.74905 0.13878 0.9138 0.0
H2501 H 0.77719 0.23966 0.99149 0.0
H2502 H 0.79208 0.24027 0.96401 0.0
H2503 H 0.76086 0.24122 0.96262 0.0
H2504 H 0.80429 0.22599 0.87995 0.0
H2505 H 0.73001 0.2311 0.88028 0.0
H2506 H 0.80786 0.18726 0.92052 0.0
H2507 H 0.81371 0.21352 0.94123 0.0
H2508 H 0.8259 0.21315 0.91218 0.0
H2509 H 0.71473 0.19314 0.92013 0.0
H2510 H 0.70815 0.22126 0.9134 0.0
H2511 H 0.72432 0.21828 0.94196 0.0
C2512 C 0.07153 0.48016 0.1831 0.0
C2513 C 0.09605 0.48019 0.18198 0.0
C2514 C 0.05673 0.48255 0.16252 0.0
C2515 C 0.06649 0.48438 0.14002 0.0
C2516 C 0.09086 0.48272 0.1383 0.0
C2517 C 0.10549 0.48092 0.15944 0.0
C2518 C 0.03097 0.48465 0.16526 0.0
C2519 C 0.10175 0.48397 0.11442 0.0
C2520 C 0.02127 0.47898 0.08481 0.0
C2521 C 0.02239 0.50252 0.08083 0.0
C2522 C 0.03621 0.47265 0.10351 0.0
C2523 C 0.05167 0.49043 0.11912 0.0
C2524 C 0.0521 0.51429 0.11563 0.0
C2525 C 0.03778 0.52001 0.09617 0.0
C2526 C 0.0361 0.44702 0.10602 0.0
C2527 C 0.06774 0.5338 0.13238 0.0
H2528 H 0.06399 0.47938 0.20041 0.0
H2529 H 0.12436 0.48073 0.15842 0.0
H2530 H 0.028 0.50245 0.16163 0.0
H2531 H 0.01889 0.47188 0.15178 0.0
H2532 H 0.02586 0.48165 0.18377 0.0
H2533 H 0.11875 0.47694 0.11482 0.0
H2534 H 0.08923 0.47406 0.09924 0.0
H2535 H 0.10554 0.5025 0.11057 0.0
H2536 H 0.00978 0.46548 0.07241 0.0
H2537 H 0.0387 0.53819 0.0928 0.0
H2538 H 0.03173 0.44306 0.12448 0.0
H2539 H 0.05417 0.44286 0.10378 0.0
H2540 H 0.02308 0.43538 0.09233 0.0
H2541 H 0.06373 0.53237 0.1515 0.0
H2542 H 0.06524 0.55145 0.12767 0.0
H2543 H 0.08678 0.53226 0.13144 0.0
C2544 C 0.7562 0.83726 0.45519 0.0
C2545 C 0.73875 0.85169 0.45466 0.0
C2546 C 0.76059 0.82414 0.43387 0.0
C2547 C 0.7468 0.82511 0.41171 0.0
C2548 C 0.72807 0.8384 0.41151 0.0
C2549 C 0.72451 0.8518 0.43291 0.0
C2550 C 0.78089 0.81043 0.43476 0.0
C2551 C 0.71247 0.83936 0.38842 0.0
C2552 C 0.77103 0.81975 0.35019 0.0
C2553 C 0.75991 0.79719 0.34045 0.0
C2554 C 0.7683 0.82837 0.37412 0.0
C2555 C 0.75333 0.81437 0.38825 0.0
C2556 C 0.74282 0.79116 0.37877 0.0
C2557 C 0.74651 0.78271 0.35499 0.0
C2558 C 0.78028 0.85302 0.3837 0.0
C2559 C 0.7262 0.7759 0.39292 0.0
H2560 H 0.76734 0.83724 0.47197 0.0
H2561 H 0.71084 0.86276 0.43251 0.0
H2562 H 0.77494 0.79236 0.42562 0.0
H2563 H 0.79543 0.81895 0.42478 0.0
H2564 H 0.78825 0.80944 0.45372 0.0
H2565 H 0.69712 0.84836 0.3919 0.0
H2566 H 0.72319 0.8489 0.37549 0.0
H2567 H 0.70552 0.82139 0.37944 0.0
H2568 H 0.7812 0.83094 0.33876 0.0
H2569 H 0.73747 0.76543 0.34715 0.0
H2570 H 0.78938 0.85335 0.40221 0.0
H2571 H 0.76662 0.86454 0.38513 0.0
H2572 H 0.79358 0.86043 0.37168 0.0
H2573 H 0.73396 0.77635 0.41198 0.0
H2574 H 0.72215 0.7574 0.3845 0.0
H2575 H 0.70916 0.78273 0.39355 0.0
C2576 C 0.41309 0.494 0.84097 0.0
C2577 C 0.43009 0.49453 0.82405 0.0
C2578 C 0.42009 0.49629 0.86605 0.0
C2579 C 0.4447 0.50003 0.87431 0.0
C2580 C 0.46191 0.50052 0.85724 0.0
C2581 C 0.45436 0.49736 0.83227 0.0
C2582 C 0.40119 0.49499 0.88371 0.0
C2583 C 0.48833 0.50524 0.86534 0.0
C2584 C 0.4621 0.53245 0.93742 0.0
C2585 C 0.46709 0.5144 0.95093 0.0
C2586 C 0.45524 0.52805 0.91237 0.0
C2587 C 0.45248 0.50485 0.90079 0.0
C2588 C 0.45722 0.48647 0.91448 0.0
C2589 C 0.46494 0.49157 0.93941 0.0
C2590 C 0.45117 0.54827 0.89828 0.0
C2591 C 0.45376 0.46143 0.90288 0.0
H2592 H 0.3943 0.49159 0.83458 0.0
H2593 H 0.46751 0.49794 0.81915 0.0
H2594 H 0.40414 0.48214 0.89672 0.0
H2595 H 0.4024 0.51229 0.8945 0.0
H2596 H 0.38288 0.48984 0.87431 0.0
H2597 H 0.49938 0.50462 0.84974 0.0
H2598 H 0.49324 0.52281 0.87591 0.0
H2599 H 0.49282 0.49222 0.87753 0.0
H2600 H 0.46406 0.55017 0.94639 0.0
H2601 H 0.4687 0.47765 0.95002 0.0
H2602 H 0.4323 0.54563 0.89045 0.0
H2603 H 0.46246 0.54904 0.88287 0.0
H2604 H 0.45531 0.5654 0.90982 0.0
H2605 H 0.43513 0.45592 0.89448 0.0
H2606 H 0.45755 0.44911 0.91622 0.0
H2607 H 0.46564 0.45999 0.88811 0.0
C2608 C 0.80429 0.16807 0.14506 0.0
C2609 C 0.80116 0.17163 0.12045 0.0
C2610 C 0.80456 0.18645 0.16345 0.0
C2611 C 0.80134 0.20879 0.15703 0.0
C2612 C 0.80071 0.21309 0.13233 0.0
C2613 C 0.80068 0.19443 0.11427 0.0
C2614 C 0.80609 0.18141 0.18968 0.0
C2615 C 0.79789 0.23682 0.12482 0.0
C2616 C 0.76246 0.23616 0.19933 0.0
C2617 C 0.7794 0.2511 0.21581 0.0
C2618 C 0.76937 0.22341 0.17922 0.0
C2619 C 0.79388 0.22569 0.17548 0.0
C2620 C 0.8109 0.24216 0.19098 0.0
C2621 C 0.80343 0.25474 0.21108 0.0
C2622 C 0.75054 0.20619 0.16306 0.0
C2623 C 0.83714 0.24536 0.18744 0.0
H2624 H 0.80521 0.15062 0.15 0.0
H2625 H 0.79861 0.19744 0.09529 0.0
H2626 H 0.81948 0.19497 0.20095 0.0
H2627 H 0.7886 0.18205 0.19688 0.0
H2628 H 0.81096 0.16393 0.19181 0.0
H2629 H 0.8025 0.23863 0.10592 0.0
H2630 H 0.77907 0.23924 0.12577 0.0
H2631 H 0.80927 0.25105 0.13734 0.0
H2632 H 0.74382 0.23356 0.20283 0.0
H2633 H 0.81659 0.26627 0.22387 0.0
H2634 H 0.75316 0.18802 0.16548 0.0
H2635 H 0.75214 0.20868 0.14364 0.0
H2636 H 0.73215 0.20799 0.16726 0.0
H2637 H 0.84509 0.23143 0.19571 0.0
H2638 H 0.84678 0.2626 0.19637 0.0
H2639 H 0.84004 0.24393 0.16784 0.0
C2640 C 0.05166 0.49602 0.30846 0.0
C2641 C 0.07668 0.49925 0.31035 0.0
C2642 C 0.03907 0.49203 0.32872 0.0
C2643 C 0.05185 0.49182 0.35156 0.0
C2644 C 0.07714 0.49497 0.35364 0.0
C2645 C 0.0893 0.49835 0.33284 0.0
C2646 C 0.01211 0.48819 0.32571 0.0
C2647 C 0.09132 0.49527 0.37788 0.0
C2648 C 0.02123 0.50606 0.40795 0.0
C2649 C 0.01571 0.48392 0.4161 0.0
C2650 C 0.03297 0.50886 0.38689 0.0
C2651 C 0.0387 0.48894 0.37339 0.0
C2652 C 0.03198 0.46638 0.38081 0.0
C2653 C 0.02075 0.46417 0.40225 0.0
C2654 C 0.04017 0.53324 0.37972 0.0
C2655 C 0.0373 0.44469 0.36652 0.0
H2656 H 0.04183 0.49636 0.29097 0.0
H2657 H 0.10863 0.50088 0.33429 0.0
H2658 H 0.00475 0.47145 0.33254 0.0
H2659 H 0.00564 0.50244 0.33667 0.0
H2660 H 0.00488 0.48771 0.30642 0.0
H2661 H 0.11086 0.49784 0.37638 0.0
H2662 H 0.08747 0.5096 0.3909 0.0
H2663 H 0.08593 0.47857 0.38569 0.0
H2664 H 0.01762 0.52142 0.41874 0.0
H2665 H 0.01651 0.44703 0.40856 0.0
H2666 H 0.03262 0.5342 0.36085 0.0
H2667 H 0.05989 0.53741 0.38005 0.0
H2668 H 0.03412 0.54685 0.39205 0.0
H2669 H 0.03002 0.44371 0.34722 0.0
H2670 H 0.02967 0.42835 0.37401 0.0
H2671 H 0.05689 0.44556 0.36674 0.0
C2672 C 0.74652 0.85279 0.62221 0.0
C2673 C 0.74523 0.84242 0.59813 0.0
C2674 C 0.74731 0.83928 0.64187 0.0
C2675 C 0.74724 0.81486 0.63736 0.0
C2676 C 0.7459 0.80429 0.61308 0.0
C2677 C 0.74471 0.81815 0.59375 0.0
C2678 C 0.74842 0.8512 0.66748 0.0
C2679 C 0.74624 0.77841 0.60755 0.0
C2680 C 0.77521 0.78826 0.69 0.0
C2681 C 0.75509 0.77778 0.7004 0.0
C2682 C 0.77286 0.79948 0.66889 0.0
C2683 C 0.74981 0.80072 0.65817 0.0
C2684 C 0.72939 0.7895 0.66815 0.0
C2685 C 0.73229 0.77791 0.68906 0.0
C2686 C 0.79511 0.81075 0.65859 0.0
C2687 C 0.70452 0.79071 0.65745 0.0
H2688 H 0.74673 0.87149 0.62572 0.0
H2689 H 0.74376 0.81003 0.57519 0.0
H2690 H 0.73377 0.84239 0.67713 0.0
H2691 H 0.76549 0.84976 0.67782 0.0
H2692 H 0.74703 0.87005 0.66779 0.0
H2693 H 0.74443 0.77275 0.58768 0.0
H2694 H 0.76322 0.77422 0.61571 0.0
H2695 H 0.73152 0.76802 0.61584 0.0
H2696 H 0.79287 0.78803 0.69869 0.0
H2697 H 0.71674 0.77002 0.69725 0.0
H2698 H 0.79635 0.83008 0.66076 0.0
H2699 H 0.79429 0.80503 0.63881 0.0
H2700 H 0.81161 0.80639 0.66775 0.0
H2701 H 0.70155 0.80916 0.65967 0.0
H2702 H 0.69057 0.77981 0.6663 0.0
H2703 H 0.70237 0.78484 0.63764 0.0
C2704 C 0.70023 0.44995 0.55504 0.0
C2705 C 0.69263 0.42578 0.54874 0.0
C2706 C 0.6838 0.46538 0.55611 0.0
C2707 C 0.65922 0.45643 0.55052 0.0
C2708 C 0.65129 0.43188 0.54589 0.0
C2709 C 0.66816 0.41677 0.54512 0.0
C2710 C 0.69289 0.49139 0.56164 0.0
C2711 C 0.62513 0.4217 0.54009 0.0
C2712 C 0.61192 0.49474 0.55941 0.0
C2713 C 0.60715 0.50013 0.53558 0.0
C2714 C 0.62938 0.48106 0.56487 0.0
C2715 C 0.6423 0.47276 0.54605 0.0
C2716 C 0.63849 0.47938 0.52233 0.0
C2717 C 0.62097 0.49299 0.5174 0.0
C2718 C 0.63299 0.47443 0.59039 0.0
C2719 C 0.65207 0.47108 0.50179 0.0
H2720 H 0.71916 0.45695 0.55828 0.0
H2721 H 0.66222 0.39809 0.54044 0.0
H2722 H 0.69092 0.49998 0.54474 0.0
H2723 H 0.68224 0.49938 0.57502 0.0
H2724 H 0.71199 0.49522 0.56894 0.0
H2725 H 0.62169 0.40229 0.53955 0.0
H2726 H 0.61443 0.42915 0.55377 0.0
H2727 H 0.61875 0.42642 0.52208 0.0
H2728 H 0.6011 0.50001 0.57347 0.0
H2729 H 0.61735 0.4972 0.49898 0.0
H2730 H 0.65227 0.47607 0.59639 0.0
H2731 H 0.62472 0.45584 0.59074 0.0
H2732 H 0.62473 0.48544 0.60365 0.0
H2733 H 0.67157 0.47599 0.50691 0.0
H2734 H 0.64761 0.47857 0.48465 0.0
H2735 H 0.6479 0.45167 0.49824 0.0
C2736 C 0.1718 0.06922 0.47145 0.0
C2737 C 0.17294 0.09351 0.4712 0.0
C2738 C 0.1502 0.05447 0.47342 0.0
C2739 C 0.1291 0.06416 0.47481 0.0
C2740 C 0.12981 0.08839 0.4729 0.0
C2741 C 0.1518 0.10286 0.47128 0.0
C2742 C 0.1503 0.02879 0.47562 0.0
C2743 C 0.10758 0.09929 0.47388 0.0
C2744 C 0.06976 0.02226 0.46939 0.0
C2745 C 0.06537 0.02211 0.49389 0.0
C2746 C 0.09037 0.03603 0.46276 0.0
C2747 C 0.10707 0.04948 0.48114 0.0
C2748 C 0.103 0.0487 0.50594 0.0
C2749 C 0.0821 0.03521 0.51197 0.0
C2750 C 0.09395 0.03677 0.43615 0.0
C2751 C 0.12059 0.06237 0.52613 0.0
H2752 H 0.18803 0.06178 0.4712 0.0
H2753 H 0.15252 0.12156 0.4709 0.0
H2754 H 0.14666 0.02501 0.49434 0.0
H2755 H 0.136 0.01771 0.4629 0.0
H2756 H 0.16767 0.0236 0.47185 0.0
H2757 H 0.11039 0.11724 0.46816 0.0
H2758 H 0.09247 0.08835 0.46203 0.0
H2759 H 0.10238 0.10037 0.49277 0.0
H2760 H 0.0566 0.01244 0.45538 0.0
H2761 H 0.07868 0.03509 0.53093 0.0
H2762 H 0.11137 0.03178 0.4324 0.0
H2763 H 0.09434 0.05492 0.43139 0.0
H2764 H 0.07958 0.02488 0.42412 0.0
H2765 H 0.13849 0.05752 0.52465 0.0
H2766 H 0.11512 0.05921 0.54449 0.0
H2767 H 0.12234 0.08142 0.52445 0.0
C2768 C 0.16707 0.92106 0.76933 0.0
C2769 C 0.17874 0.94446 0.77264 0.0
C2770 C 0.18002 0.90251 0.76946 0.0
C2771 C 0.20527 0.90745 0.77321 0.0
C2772 C 0.21719 0.93102 0.77632 0.0
C2773 C 0.20378 0.94925 0.77591 0.0
C2774 C 0.16664 0.87759 0.76596 0.0
C2775 C 0.24405 0.93697 0.78062 0.0
C2776 C 0.23258 0.85907 0.79957 0.0
C2777 C 0.23931 0.84709 0.77876 0.0
C2778 C 0.2226 0.87943 0.79818 0.0
C2779 C 0.21894 0.88788 0.77532 0.0
C2780 C 0.22673 0.8765 0.7544 0.0
C2781 C 0.23699 0.85625 0.75639 0.0
C2782 C 0.21486 0.89117 0.82101 0.0
C2783 C 0.22307 0.88497 0.72971 0.0
H2784 H 0.14774 0.91721 0.76661 0.0
H2785 H 0.21293 0.96729 0.77844 0.0
H2786 H 0.17328 0.86737 0.75079 0.0
H2787 H 0.16982 0.86898 0.78264 0.0
H2788 H 0.1471 0.87669 0.76196 0.0
H2789 H 0.25066 0.95612 0.78156 0.0
H2790 H 0.25019 0.93075 0.79796 0.0
H2791 H 0.2523 0.92784 0.76587 0.0
H2792 H 0.23452 0.85215 0.81697 0.0
H2793 H 0.24206 0.84695 0.74024 0.0
H2794 H 0.19508 0.88805 0.82008 0.0
H2795 H 0.22098 0.91041 0.82264 0.0
H2796 H 0.22186 0.88439 0.83769 0.0
H2797 H 0.2037 0.88211 0.72368 0.0
H2798 H 0.23217 0.87567 0.71576 0.0
H2799 H 0.2298 0.90407 0.7307 0.0
C2800 C 0.32946 0.9561 0.02703 0.0
C2801 C 0.31986 0.93218 0.02554 0.0
C2802 C 0.35402 0.96404 0.03262 0.0
C2803 C 0.36937 0.94758 0.03607 0.0
C2804 C 0.35983 0.92334 0.03405 0.0
C2805 C 0.33509 0.91594 0.02916 0.0
C2806 C 0.36345 0.99007 0.03536 0.0
C2807 C 0.37574 0.90528 0.03731 0.0
C2808 C 0.43522 0.96768 0.03024 0.0
C2809 C 0.44457 0.97185 0.05471 0.0
C2810 C 0.41079 0.95945 0.02388 0.0
C2811 C 0.39536 0.9558 0.04247 0.0
C2812 C 0.40471 0.96022 0.06721 0.0
C2813 C 0.42925 0.96811 0.07302 0.0
C2814 C 0.40153 0.95435 -0.0027 0.0
C2815 C 0.38883 0.9571 0.08762 0.0
H2816 H 0.31765 0.9687 0.02446 0.0
H2817 H 0.32769 0.89742 0.02788 0.0
H2818 H 0.37237 0.99568 0.05401 0.0
H2819 H 0.37704 0.99413 0.02245 0.0
H2820 H 0.34911 0.00056 0.03206 0.0
H2821 H 0.36569 0.88706 0.03381 0.0
H2822 H 0.39002 0.90735 0.0248 0.0
H2823 H 0.3846 0.90797 0.05616 0.0
H2824 H 0.4471 0.97037 0.01605 0.0
H2825 H 0.43641 0.97156 0.09198 0.0
H2826 H 0.38808 0.96551 0.99295 0.0
H2827 H 0.39248 0.93582 0.99335 0.0
H2828 H 0.41598 0.9575 0.98509 0.0
H2829 H 0.37868 0.97183 0.08928 0.0
H2830 H 0.39927 0.95686 0.10534 0.0
H2831 H 0.37568 0.9406 0.08387 0.0
C2832 C 0.83983 0.59517 0.77167 0.0
C2833 C 0.83093 0.57194 0.76199 0.0
C2834 C 0.82522 0.61242 0.77164 0.0
C2835 C 0.80105 0.60627 0.76181 0.0
C2836 C 0.79182 0.58275 0.75245 0.0
C2837 C 0.80688 0.56588 0.75258 0.0
C2838 C 0.83577 0.63733 0.78175 0.0
C2839 C 0.76612 0.57549 0.74202 0.0
C2840 C 0.76136 0.64975 0.78143 0.0
C2841 C 0.76179 0.66362 0.76204 0.0
C2842 C 0.77315 0.63034 0.78113 0.0
C2843 C 0.78571 0.62466 0.76096 0.0
C2844 C 0.78502 0.63773 0.74072 0.0
C2845 C 0.77301 0.65701 0.74145 0.0
C2846 C 0.77328 0.61674 0.803 0.0
C2847 C 0.79818 0.63224 0.71886 0.0
H2848 H 0.85838 0.60001 0.77893 0.0
H2849 H 0.79984 0.54795 0.7451 0.0
H2850 H 0.83459 0.64912 0.76727 0.0
H2851 H 0.82544 0.64341 0.79652 0.0
H2852 H 0.85476 0.63916 0.78907 0.0
H2853 H 0.76146 0.55634 0.73627 0.0
H2854 H 0.75405 0.58031 0.75569 0.0
H2855 H 0.76268 0.58498 0.72603 0.0
H2856 H 0.75269 0.65465 0.79739 0.0
H2857 H 0.77349 0.6676 0.72639 0.0
H2858 H 0.79151 0.61993 0.81262 0.0
H2859 H 0.76845 0.59764 0.79721 0.0
H2860 H 0.76073 0.62186 0.81606 0.0
H2861 H 0.81769 0.63599 0.72423 0.0
H2862 H 0.79422 0.64275 0.70379 0.0
H2863 H 0.79342 0.61336 0.712 0.0
C2864 C 0.82286 0.60031 0.00952 0.0
C2865 C 0.80108 0.58498 0.00859 0.0
C2866 C 0.84458 0.59186 0.01143 0.0
C2867 C 0.84437 0.56749 0.01179 0.0
C2868 C 0.8224 0.55195 0.01057 0.0
C2869 C 0.80105 0.56092 0.00926 0.0
C2870 C 0.86773 0.60898 0.01312 0.0
C2871 C 0.82142 0.5258 0.01027 0.0
C2872 C 0.89865 0.54407 0.99146 0.0
C2873 C 0.91046 0.5409 0.01371 0.0
C2874 C 0.8769 0.55231 0.99057 0.0
C2875 C 0.86707 0.55808 0.01255 0.0
C2876 C 0.87884 0.55472 0.0351 0.0
C2877 C 0.90033 0.54584 0.03539 0.0
C2878 C 0.86457 0.55501 0.96613 0.0
C2879 C 0.86905 0.56106 0.05891 0.0
H2880 H 0.82293 0.61893 0.0092 0.0
H2881 H 0.78422 0.54897 0.00834 0.0
H2882 H 0.87923 0.60707 0.02966 0.0
H2883 H 0.87762 0.6051 -0.00281 0.0
H2884 H 0.86485 0.62746 0.01377 0.0
H2885 H 0.80284 0.51611 0.00922 0.0
H2886 H 0.83004 0.51906 0.99442 0.0
H2887 H 0.83149 0.5219 0.0269 0.0
H2888 H 0.90649 0.54011 0.97467 0.0
H2889 H 0.90967 0.54364 0.0526 0.0
H2890 H 0.86333 0.57371 0.9649 0.0
H2891 H 0.84607 0.54505 0.96406 0.0
H2892 H 0.8741 0.54875 0.95073 0.0
H2893 H 0.86768 0.57996 0.06086 0.0
H2894 H 0.88041 0.55746 0.07485 0.0
H2895 H 0.85079 0.55106 0.05913 0.0
C2896 C 0.16701 0.10352 0.78199 0.0
C2897 C 0.17401 0.08146 0.77963 0.0
C2898 C 0.18377 0.12415 0.78293 0.0
C2899 C 0.20812 0.12268 0.78109 0.0
C2900 C 0.2155 0.10053 0.77991 0.0
C2901 C 0.19834 0.08015 0.77934 0.0
C2902 C 0.17524 0.14747 0.78471 0.0
C2903 C 0.24128 0.09828 0.77786 0.0
C2904 C 0.2384 0.17336 0.75086 0.0
C2905 C 0.2495 0.1888 0.77096 0.0
C2906 C 0.22638 0.151 0.75383 0.0
C2907 C 0.22505 0.14411 0.77755 0.0
C2908 C 0.23757 0.15906 0.79779 0.0
C2909 C 0.24987 0.18128 0.79421 0.0
C2910 C 0.21366 0.13546 0.73168 0.0
C2911 C 0.2365 0.15239 0.82337 0.0
H2912 H 0.14828 0.10468 0.7826 0.0
H2913 H 0.20389 0.06314 0.77756 0.0
H2914 H 0.18596 0.15966 0.79968 0.0
H2915 H 0.17768 0.15558 0.76756 0.0
H2916 H 0.1561 0.14573 0.78801 0.0
H2917 H 0.24461 0.08031 0.78035 0.0
H2918 H 0.24621 0.10241 0.7596 0.0
H2919 H 0.2532 0.11099 0.79153 0.0
H2920 H 0.2383 0.17918 0.73284 0.0
H2921 H 0.25831 0.19334 0.80978 0.0
H2922 H 0.19408 0.13442 0.73201 0.0
H2923 H 0.21756 0.1174 0.7318 0.0
H2924 H 0.21884 0.14218 0.71442 0.0
H2925 H 0.2187 0.15404 0.82941 0.0
H2926 H 0.25032 0.16385 0.8364 0.0
H2927 H 0.23881 0.13388 0.82408 0.0
C2928 C 0.36079 0.92701 0.23632 0.0
C2929 C 0.35367 0.94641 0.24894 0.0
C2930 C 0.34706 0.90453 0.23498 0.0
C2931 C 0.32578 0.90131 0.24668 0.0
C2932 C 0.31833 0.92081 0.25923 0.0
C2933 C 0.33233 0.94315 0.26016 0.0
C2934 C 0.35548 0.88415 0.22125 0.0
C2935 C 0.29575 0.91802 0.27196 0.0
C2936 C 0.2818 0.84523 0.22595 0.0
C2937 C 0.28785 0.8306 0.2433 0.0
C2938 C 0.29357 0.86851 0.22716 0.0
C2939 C 0.31171 0.87738 0.24624 0.0
C2940 C 0.31725 0.86296 0.26431 0.0
C2941 C 0.3053 0.83972 0.26259 0.0
C2942 C 0.28721 0.88331 0.20749 0.0
C2943 C 0.33634 0.87186 0.28507 0.0
H2944 H 0.37716 0.92935 0.22749 0.0
H2945 H 0.32667 0.95802 0.26996 0.0
H2946 H 0.35893 0.8711 0.23385 0.0
H2947 H 0.34139 0.8752 0.20693 0.0
H2948 H 0.37206 0.88972 0.21255 0.0
H2949 H 0.29215 0.93503 0.28046 0.0
H2950 H 0.28027 0.90982 0.25884 0.0
H2951 H 0.29712 0.90615 0.28633 0.0
H2952 H 0.26834 0.83831 0.21097 0.0
H2953 H 0.30996 0.82856 0.27615 0.0
H2954 H 0.30233 0.88664 0.19616 0.0
H2955 H 0.28405 0.90059 0.21564 0.0
H2956 H 0.27106 0.87468 0.19545 0.0
H2957 H 0.35395 0.87594 0.27783 0.0
H2958 H 0.33749 0.8589 0.29841 0.0
H2959 H 0.33276 0.88835 0.29475 0.0
C2960 C 0.53099 0.33817 0.57927 0.0
C2961 C 0.52139 0.33682 0.60173 0.0
C2962 C 0.53172 0.3585 0.56735 0.0
C2963 C 0.52256 0.37782 0.57816 0.0
C2964 C 0.51138 0.37589 0.59997 0.0
C2965 C 0.51099 0.35543 0.61151 0.0
C2966 C 0.54369 0.35986 0.54408 0.0
C2967 C 0.50125 0.39603 0.61201 0.0
C2968 C 0.55149 0.44001 0.57247 0.0
C2969 C 0.53443 0.44753 0.5569 0.0
C2970 C 0.54839 0.41696 0.57842 0.0
C2971 C 0.5275 0.40106 0.56881 0.0
C2972 C 0.51072 0.40823 0.55212 0.0
C2973 C 0.51447 0.43146 0.54622 0.0
C2974 C 0.56699 0.40997 0.5959 0.0
C2975 C 0.48831 0.39173 0.54145 0.0
H2976 H 0.53897 0.32379 0.57153 0.0
H2977 H 0.5033 0.35441 0.62872 0.0
H2978 H 0.53294 0.36756 0.53042 0.0
H2979 H 0.56133 0.37148 0.54785 0.0
H2980 H 0.54649 0.34236 0.5361 0.0
H2981 H 0.49081 0.39082 0.62729 0.0
H2982 H 0.51604 0.4105 0.61924 0.0
H2983 H 0.48955 0.40299 0.59858 0.0
H2984 H 0.56719 0.45234 0.58038 0.0
H2985 H 0.5013 0.4373 0.53413 0.0
H2986 H 0.57264 0.39364 0.58822 0.0
H2987 H 0.55926 0.40638 0.61319 0.0
H2988 H 0.58307 0.42383 0.60012 0.0
H2989 H 0.4926 0.37455 0.53438 0.0
H2990 H 0.47869 0.39894 0.52649 0.0
H2991 H 0.47617 0.3885 0.5559 0.0
C2992 C 0.44785 0.75775 0.319 0.0
C2993 C 0.45229 0.75082 0.34226 0.0
C2994 C 0.4246 0.75499 0.3077 0.0
C2995 C 0.40526 0.74508 0.31996 0.0
C2996 C 0.40965 0.73683 0.34283 0.0
C2997 C 0.43318 0.73978 0.35374 0.0
C2998 C 0.42066 0.76404 0.28331 0.0
C2999 C 0.38941 0.72613 0.3564 0.0
C3000 C 0.34849 0.76922 0.30752 0.0
C3001 C 0.33473 0.75142 0.29099 0.0
C3002 C 0.37124 0.76707 0.31735 0.0
C3003 C 0.38059 0.7466 0.31045 0.0
C3004 C 0.36688 0.72849 0.29376 0.0
C3005 C 0.34404 0.73115 0.28411 0.0
C3006 C 0.38535 0.7869 0.33494 0.0
C3007 C 0.37635 0.7064 0.28614 0.0
H3008 H 0.46253 0.76597 0.30978 0.0
H3009 H 0.43648 0.7342 0.37161 0.0
H3010 H 0.40839 0.75076 0.27052 0.0
H3011 H 0.41219 0.77989 0.28563 0.0
H3012 H 0.43762 0.76873 0.27495 0.0
H3013 H 0.39587 0.71765 0.37217 0.0
H3014 H 0.37955 0.73999 0.36322 0.0
H3015 H 0.37657 0.71291 0.34408 0.0
H3016 H 0.34153 0.78504 0.31278 0.0
H3017 H 0.33339 0.71728 0.27147 0.0
H3018 H 0.40207 0.79414 0.32735 0.0
H3019 H 0.39048 0.7803 0.35238 0.0
H3020 H 0.3752 0.80137 0.33885 0.0
H3021 H 0.39283 0.7108 0.27695 0.0
H3022 H 0.36318 0.69368 0.27358 0.0
H3023 H 0.38123 0.69785 0.30241 0.0
C3024 C 0.05357 0.68572 0.11844 0.0
C3025 C 0.04208 0.70408 0.11183 0.0
C3026 C 0.04756 0.66322 0.10573 0.0
C3027 C 0.02942 0.6589 0.08609 0.0
C3028 C 0.01898 0.67772 0.07823 0.0
C3029 C 0.02552 0.70016 0.09114 0.0
C3030 C 0.05938 0.6437 0.11449 0.0
C3031 C -0.00045 0.67383 0.0574 0.0
C3032 C 0.01793 0.59915 0.04834 0.0
C3033 C -0.00022 0.58699 0.06025 0.0
C3034 C 0.02771 0.62272 0.05631 0.0
C3035 C 0.01893 0.63432 0.07647 0.0
C3036 C 0.00034 0.62218 0.08823 0.0
C3037 C 0.9911 0.59869 0.08006 0.0
C3038 C 0.04763 0.63509 0.04346 0.0
C3039 C 0.99033 0.63392 0.10969 0.0
H3040 H 0.06666 0.68869 0.13419 0.0
H3041 H 0.01662 0.71426 0.08585 0.0
H3042 H 0.04653 0.63201 0.1238 0.0
H3043 H 0.06468 0.6329 0.09891 0.0
H3044 H 0.07543 0.6505 0.12746 0.0
H3045 H -0.00415 0.69061 0.05121 0.0
H3046 H 0.00443 0.66283 0.04173 0.0
H3047 H 0.98287 0.66432 0.06331 0.0
H3048 H 0.02471 0.59018 0.03303 0.0
H3049 H 0.97695 0.5895 0.08926 0.0
H3050 H 0.06399 0.64024 0.0563 0.0
H3051 H 0.04279 0.65143 0.03725 0.0
H3052 H 0.05179 0.62393 0.02749 0.0
H3053 H 0.00455 0.63936 0.12496 0.0
H3054 H 0.97532 0.62225 0.11625 0.0
H3055 H 0.98389 0.64999 0.10465 0.0
C3056 C 0.07042 0.23164 0.83571 0.0
C3057 C 0.07503 0.23866 0.86082 0.0
C3058 C 0.08903 0.23074 0.82086 0.0
C3059 C 0.11289 0.23707 0.83133 0.0
C3060 C 0.11776 0.24407 0.85668 0.0
C3061 C 0.09871 0.24469 0.8712 0.0
C3062 C 0.08315 0.2231 0.79392 0.0
C3063 C 0.14307 0.25095 0.86841 0.0
C3064 C 0.16145 0.21458 0.79792 0.0
C3065 C 0.17126 0.23438 0.78723 0.0
C3066 C 0.14225 0.21513 0.81209 0.0
C3067 C 0.13271 0.23604 0.8157 0.0
C3068 C 0.142 0.25587 0.80428 0.0
C3069 C 0.16115 0.25477 0.79005 0.0
C3070 C 0.13263 0.19355 0.82373 0.0
C3071 C 0.13228 0.27849 0.80781 0.0
H3072 H 0.05214 0.22687 0.82756 0.0
H3073 H 0.10234 0.25017 0.89057 0.0
H3074 H 0.09082 0.23725 0.78332 0.0
H3075 H 0.0913 0.20751 0.78864 0.0
H3076 H 0.06361 0.2187 0.78867 0.0
H3077 H 0.14383 0.25688 0.88816 0.0
H3078 H 0.1526 0.23582 0.86609 0.0
H3079 H 0.15284 0.26527 0.85933 0.0
H3080 H 0.16925 0.1988 0.79578 0.0
H3081 H 0.16888 0.27022 0.78208 0.0
H3082 H 0.11324 0.18814 0.81818 0.0
H3083 H 0.13482 0.19753 0.84384 0.0
H3084 H 0.14179 0.17856 0.81871 0.0
H3085 H 0.11273 0.27522 0.80267 0.0
H3086 H 0.14083 0.29197 0.79687 0.0
H3087 H 0.13527 0.28562 0.82731 0.0
C3088 C 0.50474 0.67658 0.93408 0.0
C3089 C 0.51782 0.69794 0.94537 0.0
C3090 C 0.50209 0.65645 0.94638 0.0
C3091 C 0.51289 0.6577 0.97049 0.0
C3092 C 0.525 0.67949 0.98241 0.0
C3093 C 0.5273 0.69936 0.96972 0.0
C3094 C 0.48898 0.63353 0.93304 0.0
C3095 C 0.53671 0.68156 0.00811 0.0
C3096 C 0.4973 0.60466 0.0052 0.0
C3097 C 0.5158 0.59228 8e-05 0.0
C3098 C 0.49631 0.62634 -0.0038 0.0
C3099 C 0.51425 0.63574 0.98186 0.0
C3100 C 0.53337 0.62366 0.97743 0.0
C3101 C 0.53393 0.60216 0.98663 0.0
C3102 C 0.47567 0.63876 0.00127 0.0
C3103 C 0.55298 0.63315 0.96241 0.0
H3104 H 0.49718 0.67539 0.91535 0.0
H3105 H 0.53729 0.71585 0.97864 0.0
H3106 H 0.50191 0.62162 0.92917 0.0
H3107 H 0.47597 0.6247 0.94449 0.0
H3108 H 0.47932 0.63599 0.91553 0.0
H3109 H 0.54267 0.70012 0.01586 0.0
H3110 H 0.52426 0.67276 0.02011 0.0
H3111 H 0.5525 0.67265 0.00824 0.0
H3112 H 0.48319 0.59704 0.01549 0.0
H3113 H 0.54843 0.5928 0.9828 0.0
H3114 H 0.46442 0.63888 0.98403 0.0
H3115 H 0.48229 0.65731 0.00863 0.0
H3116 H 0.46432 0.6302 0.01438 0.0
H3117 H 0.54526 0.63592 0.94413 0.0
H3118 H 0.56614 0.62121 0.95998 0.0
H3119 H 0.56253 0.65041 0.97128 0.0
C3120 C 0.07783 0.74426 0.69198 0.0
C3121 C 0.07677 0.75746 0.67218 0.0
C3122 C 0.09975 0.74326 0.70489 0.0
C3123 C 0.12092 0.75646 0.69833 0.0
C3124 C 0.11983 0.77025 0.67866 0.0
C3125 C 0.09777 0.77022 0.66551 0.0
C3126 C 0.10031 0.72774 0.72518 0.0
C3127 C 0.14194 0.7851 0.67157 0.0
C3128 C 0.17621 0.77228 0.74339 0.0
C3129 C 0.19119 0.75809 0.73302 0.0
C3130 C 0.15292 0.77151 0.73268 0.0
C3131 C 0.14435 0.75561 0.71165 0.0
C3132 C 0.15897 0.74008 0.70223 0.0
C3133 C 0.18246 0.74188 0.71274 0.0
C3134 C 0.13818 0.78885 0.74281 0.0
C3135 C 0.15022 0.72234 0.68035 0.0
H3136 H 0.06156 0.73422 0.69699 0.0
H3137 H 0.09687 0.78054 0.65029 0.0
H3138 H 0.11193 0.71457 0.72113 0.0
H3139 H 0.10808 0.73833 0.74253 0.0
H3140 H 0.08227 0.71838 0.72782 0.0
H3141 H 0.1378 0.79592 0.65685 0.0
H3142 H 0.15118 0.79692 0.68762 0.0
H3143 H 0.15457 0.77372 0.66526 0.0
H3144 H 0.18328 0.78515 0.7588 0.0
H3145 H 0.19425 0.73106 0.70471 0.0
H3146 H 0.12021 0.77974 0.7459 0.0
H3147 H 0.13564 0.80144 0.7294 0.0
H3148 H 0.14677 0.79888 0.76021 0.0
H3149 H 0.1323 0.7125 0.6826 0.0
H3150 H 0.16258 0.70963 0.67732 0.0
H3151 H 0.1485 0.7315 0.66382 0.0
C3152 C 0.0407 0.33482 0.45644 0.0
C3153 C 0.04547 0.33724 0.43227 0.0
C3154 C 0.03916 0.35446 0.47272 0.0
C3155 C 0.04227 0.37697 0.46454 0.0
C3156 C 0.04843 0.37967 0.4406 0.0
C3157 C 0.05007 0.35979 0.42481 0.0
C3158 C 0.03282 0.35094 0.49818 0.0
C3159 C 0.0518 0.4034 0.43114 0.0
C3160 C 0.00744 0.42285 0.48831 0.0
C3161 C 0.02533 0.43932 0.50216 0.0
C3162 C 0.01254 0.40192 0.477 0.0
C3163 C 0.03614 0.39726 0.47966 0.0
C3164 C 0.05399 0.41309 0.4949 0.0
C3165 C 0.04836 0.43401 0.50603 0.0
C3166 C 0.99293 0.38548 0.46101 0.0
C3167 C 0.07929 0.40858 0.49833 0.0
H3168 H 0.03735 0.31749 0.46246 0.0
H3169 H 0.05392 0.36191 0.40624 0.0
H3170 H 0.04441 0.36407 0.51172 0.0
H3171 H 0.01412 0.35347 0.49978 0.0
H3172 H 0.03452 0.33309 0.50286 0.0
H3173 H 0.05864 0.40283 0.41291 0.0
H3174 H 0.03447 0.40977 0.42972 0.0
H3175 H 0.06439 0.41638 0.44394 0.0
H3176 H 0.98953 0.42673 0.48549 0.0
H3177 H 0.06226 0.44669 0.51674 0.0
H3178 H 0.99192 0.36734 0.46597 0.0
H3179 H -0.00306 0.3852 0.44173 0.0
H3180 H 0.97518 0.39076 0.46242 0.0
H3181 H 0.07952 0.39025 0.50222 0.0
H3182 H 0.0901 0.42069 0.51334 0.0
H3183 H 0.08791 0.41096 0.48127 0.0
C3184 C 0.4345 0.22495 0.20874 0.0
C3185 C 0.443 0.23835 0.1905 0.0
C3186 C 0.41179 0.2256 0.21647 0.0
C3187 C 0.39723 0.24019 0.20589 0.0
C3188 C 0.40586 0.25421 0.18789 0.0
C3189 C 0.42862 0.25303 0.1803 0.0
C3190 C 0.40312 0.21016 0.23549 0.0
C3191 C 0.39088 0.27012 0.17635 0.0
C3192 C 0.33047 0.22152 0.2061 0.0
C3193 C 0.3254 0.23594 0.22612 0.0
C3194 C 0.35371 0.22297 0.1992 0.0
C3195 C 0.37238 0.23942 0.21249 0.0
C3196 C 0.36738 0.25428 0.23253 0.0
C3197 C 0.34392 0.25227 0.23922 0.0
C3198 C 0.35833 0.20658 0.17792 0.0
C3199 C 0.38684 0.27217 0.24697 0.0
H3200 H 0.44545 0.21353 0.21674 0.0
H3201 H 0.4351 0.26358 0.16634 0.0
H3202 H 0.39744 0.22083 0.25093 0.0
H3203 H 0.38731 0.19714 0.22753 0.0
H3204 H 0.41703 0.20057 0.24266 0.0
H3205 H 0.4008 0.28111 0.16391 0.0
H3206 H 0.37475 0.25945 0.16583 0.0
H3207 H 0.38468 0.28178 0.19064 0.0
H3208 H 0.31627 0.20879 0.19592 0.0
H3209 H 0.34007 0.26355 0.25461 0.0
H3210 H 0.37109 0.19535 0.18411 0.0
H3211 H 0.36661 0.21679 0.16396 0.0
H3212 H 0.34175 0.19506 0.16925 0.0
H3213 H 0.40044 0.26317 0.2557 0.0
H3214 H 0.37984 0.2831 0.26135 0.0
H3215 H 0.39602 0.28384 0.23466 0.0
C3216 C 0.5661 0.52396 0.35027 0.0
C3217 C 0.58625 0.51368 0.34599 0.0
C3218 C 0.55484 0.52146 0.37166 0.0
C3219 C 0.56387 0.50831 0.38931 0.0
C3220 C 0.58376 0.49729 0.38487 0.0
C3221 C 0.59474 0.50011 0.36325 0.0
C3222 C 0.53377 0.53362 0.37575 0.0
C3223 C 0.59387 0.48312 0.4033 0.0
C3224 C 0.55343 0.52634 0.45452 0.0
C3225 C 0.53407 0.5093 0.45842 0.0
C3226 C 0.56339 0.52597 0.43225 0.0
C3227 C 0.55386 0.50806 0.41329 0.0
C3228 C 0.53434 0.49074 0.41702 0.0
C3229 C 0.52458 0.49161 0.43957 0.0
C3230 C 0.584 0.54495 0.42896 0.0
C3231 C 0.52376 0.47138 0.39718 0.0
H3232 H 0.55923 0.53436 0.33703 0.0
H3233 H 0.61019 0.49198 0.36007 0.0
H3234 H 0.5185 0.521 0.38045 0.0
H3235 H 0.53859 0.54753 0.39133 0.0
H3236 H 0.52787 0.54178 0.35952 0.0
H3237 H 0.60806 0.47404 0.39627 0.0
H3238 H 0.60154 0.49482 0.42002 0.0
H3239 H 0.57951 0.46984 0.40862 0.0
H3240 H 0.56084 0.54017 0.46891 0.0
H3241 H 0.50971 0.47834 0.4425 0.0
H3242 H 0.5789 0.55506 0.41398 0.0
H3243 H 0.59954 0.53698 0.42376 0.0
H3244 H 0.58964 0.55733 0.44572 0.0
H3245 H 0.51671 0.47898 0.38108 0.0
H3246 H 0.50907 0.45888 0.40319 0.0
H3247 H 0.5378 0.46155 0.39123 0.0
C3248 C 0.24835 0.811 0.07391 0.0
C3249 C 0.24771 0.83438 0.08243 0.0
C3250 C 0.2504 0.7942 0.09016 0.0
C3251 C 0.25131 0.80087 0.11548 0.0
C3252 C 0.25051 0.82444 0.12418 0.0
C3253 C 0.24899 0.84098 0.10754 0.0
C3254 C 0.25178 0.76939 0.08025 0.0
C3255 C 0.25102 0.83214 0.15107 0.0
C3256 C 0.23322 0.75686 0.15961 0.0
C3257 C 0.25537 0.75559 0.1719 0.0
C3258 C 0.2317 0.77067 0.14033 0.0
C3259 C 0.25283 0.78329 0.13303 0.0
C3260 C 0.27532 0.78061 0.14407 0.0
C3261 C 0.27632 0.76683 0.16343 0.0
C3262 C 0.20741 0.77292 0.12879 0.0
C3263 C 0.29828 0.79344 0.13648 0.0
H3264 H 0.24756 0.80587 0.0545 0.0
H3265 H 0.2484 0.85902 0.11417 0.0
H3266 H 0.26848 0.76435 0.08808 0.0
H3267 H 0.23669 0.75704 0.08571 0.0
H3268 H 0.25131 0.76717 0.06008 0.0
H3269 H 0.24949 0.85092 0.15477 0.0
H3270 H 0.23615 0.82142 0.15885 0.0
H3271 H 0.26792 0.82931 0.16076 0.0
H3272 H 0.21691 0.74823 0.16597 0.0
H3273 H 0.29353 0.76583 0.17271 0.0
H3274 H 0.20626 0.76831 0.10881 0.0
H3275 H 0.20469 0.79139 0.13197 0.0
H3276 H 0.19271 0.7615 0.13611 0.0
H3277 H 0.29811 0.79149 0.11636 0.0
H3278 H 0.31417 0.78702 0.14443 0.0
H3279 H 0.30008 0.81244 0.14259 0.0
C3280 C 0.92386 0.53175 0.8456 0.0
C3281 C 0.92598 0.51171 0.83028 0.0
C3282 C 0.93411 0.53519 0.86986 0.0
C3283 C 0.94635 0.51799 0.87892 0.0
C3284 C 0.94812 0.49757 0.86361 0.0
C3285 C 0.93805 0.49476 0.83947 0.0
C3286 C 0.93205 0.55723 0.88573 0.0
C3287 C 0.96057 0.47858 0.87274 0.0
C3288 C 0.99107 0.52891 0.93491 0.0
C3289 C 0.97729 0.51853 0.95207 0.0
C3290 C 0.98089 0.53008 0.91123 0.0
C3291 C 0.95648 0.52053 0.90469 0.0
C3292 C 0.94232 0.51091 0.92224 0.0
C3293 C 0.95288 0.51004 0.94567 0.0
C3294 C -0.00357 0.54072 0.89296 0.0
C3295 C 0.91626 0.50043 0.91598 0.0
H3296 H 0.91473 0.54498 0.83848 0.0
H3297 H 0.9396 0.47916 0.82775 0.0
H3298 H 0.9226 0.55268 0.90181 0.0
H3299 H 0.95012 0.56687 0.89265 0.0
H3300 H 0.92232 0.56907 0.8758 0.0
H3301 H 0.96044 0.46381 0.85841 0.0
H3302 H 0.97938 0.48596 0.87946 0.0
H3303 H 0.95176 0.47155 0.88828 0.0
H3304 H 0.00986 0.53573 0.93981 0.0
H3305 H 0.94196 0.5022 0.95887 0.0
H3306 H 0.98756 0.55344 0.88353 0.0
H3307 H -0.00087 0.52674 0.87889 0.0
H3308 H 0.01419 0.54977 0.90159 0.0
H3309 H 0.90722 0.49579 0.93232 0.0
H3310 H 0.91467 0.4843 0.90308 0.0
H3311 H 0.90666 0.51282 0.90685 0.0
C3312 C 0.23155 0.15285 0.59198 0.0
C3313 C 0.24177 0.16086 0.57145 0.0
C3314 C 0.23709 0.16579 0.615 0.0
C3315 C 0.25332 0.18725 0.61763 0.0
C3316 C 0.26282 0.196 0.59683 0.0
C3317 C 0.25689 0.18273 0.57397 0.0
C3318 C 0.22646 0.15591 0.63671 0.0
C3319 C 0.28019 0.2188 0.5989 0.0
C3320 C 0.25833 0.22614 0.67783 0.0
C3321 C 0.27772 0.21919 0.69066 0.0
C3322 C 0.25038 0.21625 0.65382 0.0
C3323 C 0.2622 0.19915 0.64243 0.0
C3324 C 0.28215 0.19255 0.65511 0.0
C3325 C 0.28961 0.2026 0.67904 0.0
C3326 C 0.22902 0.22367 0.64088 0.0
C3327 C 0.29535 0.17448 0.64359 0.0
H3328 H 0.21968 0.13609 0.59023 0.0
H3329 H 0.26483 0.18914 0.55824 0.0
H3330 H 0.24071 0.15083 0.64887 0.0
H3331 H 0.21862 0.16936 0.64742 0.0
H3332 H 0.21241 0.14024 0.63131 0.0
H3333 H 0.28394 0.22443 0.5808 0.0
H3334 H 0.27318 0.23291 0.60953 0.0
H3335 H 0.29727 0.21675 0.60882 0.0
H3336 H 0.24904 0.23893 0.68672 0.0
H3337 H 0.30471 0.19724 0.68873 0.0
H3338 H 0.21419 0.20851 0.63714 0.0
H3339 H 0.23347 0.22948 0.62305 0.0
H3340 H 0.22267 0.23812 0.65171 0.0
H3341 H 0.28319 0.15736 0.63946 0.0
H3342 H 0.31111 0.17202 0.65555 0.0
H3343 H 0.30146 0.17975 0.62611 0.0
C3344 C 0.62003 0.4858 0.19224 0.0
C3345 C 0.61244 0.49982 0.211 0.0
C3346 C 0.60911 0.48387 0.16838 0.0
C3347 C 0.59089 0.49707 0.1631 0.0
C3348 C 0.58367 0.51178 0.18195 0.0
C3349 C 0.59421 0.5126 0.20582 0.0
C3350 C 0.61673 0.46738 0.14893 0.0
C3351 C 0.56497 0.52679 0.17687 0.0
C3352 C 0.57948 0.50606 0.09657 0.0
C3353 C 0.55839 0.49007 0.08956 0.0
C3354 C 0.58977 0.50922 0.12075 0.0
C3355 C 0.57923 0.49524 0.1379 0.0
C3356 C 0.55788 0.47903 0.13078 0.0
C3357 C 0.54743 0.47699 0.10673 0.0
C3358 C 0.61201 0.52733 0.12787 0.0
C3359 C 0.54657 0.46322 0.14829 0.0
H3360 H 0.63405 0.47582 0.19639 0.0
H3361 H 0.58854 0.52363 0.22038 0.0
H3362 H 0.60105 0.45447 0.14047 0.0
H3363 H 0.62404 0.47731 0.13431 0.0
H3364 H 0.6305 0.45771 0.15625 0.0
H3365 H 0.56232 0.53823 0.19331 0.0
H3366 H 0.5702 0.538 0.16241 0.0
H3367 H 0.54766 0.51552 0.17007 0.0
H3368 H 0.58784 0.51617 0.08314 0.0
H3369 H 0.53126 0.46439 0.10105 0.0
H3370 H 0.62728 0.51855 0.13288 0.0
H3371 H 0.60951 0.53912 0.14409 0.0
H3372 H 0.61671 0.53813 0.11292 0.0
H3373 H 0.55946 0.45234 0.15497 0.0
H3374 H 0.53011 0.45141 0.13978 0.0
H3375 H 0.54201 0.47386 0.16439 0.0
C3376 C 0.2416 0.83289 0.94938 0.0
C3377 C 0.23387 0.85437 0.94699 0.0
C3378 C 0.24341 0.8174 0.9289 0.0
C3379 C 0.23701 0.82333 0.90541 0.0
C3380 C 0.22793 0.84434 0.90288 0.0
C3381 C 0.22664 0.85973 0.92371 0.0
C3382 C 0.2535 0.79534 0.93237 0.0
C3383 C 0.22059 0.85106 0.8781 0.0
C3384 C 0.26966 0.8013 0.85344 0.0
C3385 C 0.25303 0.78222 0.84196 0.0
C3386 C 0.26471 0.81456 0.87425 0.0
C3387 C 0.24236 0.80889 0.88358 0.0
C3388 C 0.22552 0.78948 0.87221 0.0
C3389 C 0.23119 0.77615 0.85161 0.0
C3390 C 0.28338 0.83479 0.88613 0.0
C3391 C 0.20137 0.78319 0.88144 0.0
H3392 H 0.2472 0.82852 0.96727 0.0
H3393 H 0.22044 0.87616 0.9217 0.0
H3394 H 0.24179 0.77986 0.92204 0.0
H3395 H 0.27122 0.7967 0.92516 0.0
H3396 H 0.25566 0.79226 0.95183 0.0
H3397 H 0.2111 0.8663 0.87934 0.0
H3398 H 0.23666 0.85564 0.86834 0.0
H3399 H 0.20885 0.83607 0.86696 0.0
H3400 H 0.28662 0.80594 0.84604 0.0
H3401 H 0.21821 0.76157 0.84252 0.0
H3402 H 0.28758 0.83262 0.90558 0.0
H3403 H 0.27641 0.85148 0.88551 0.0
H3404 H 0.30019 0.83629 0.8771 0.0
H3405 H 0.20348 0.78001 0.90084 0.0
H3406 H 0.19045 0.76736 0.87081 0.0
H3407 H 0.1915 0.79807 0.88044 0.0
C3408 C 0.95096 0.53016 0.70775 0.0
C3409 C 0.92691 0.52991 0.69975 0.0
C3410 C 0.96827 0.52971 0.6913 0.0
C3411 C 0.96148 0.52933 0.6662 0.0
C3412 C 0.93737 0.52966 0.65795 0.0
C3413 C 0.92027 0.52982 0.67487 0.0
C3414 C 0.99373 0.52911 0.70076 0.0
C3415 C 0.92963 0.52954 0.63124 0.0
C3416 C 0.00874 0.54717 0.62401 0.0
C3417 C 0.01135 0.52532 0.6124 0.0
C3418 C 0.99299 0.54873 0.64205 0.0
C3419 C 0.97956 0.52797 0.64855 0.0
C3420 C 0.9832 0.50585 0.63801 0.0
C3421 C -0.00088 0.50479 0.62011 0.0
C3422 C 0.9899 0.57261 0.6533 0.0
C3423 C 0.96955 0.48332 0.6449 0.0
H3424 H 0.95628 0.53022 0.72697 0.0
H3425 H 0.90175 0.52971 0.66863 0.0
H3426 H -0.00084 0.51269 0.69298 0.0
H3427 H 0.00598 0.54393 0.69491 0.0
H3428 H -0.00384 0.53007 0.72093 0.0
H3429 H 0.91042 0.53073 0.62788 0.0
H3430 H 0.94038 0.54445 0.62385 0.0
H3431 H 0.93285 0.5132 0.62094 0.0
H3432 H 0.01817 0.56312 0.61825 0.0
H3433 H 0.00107 0.48782 0.61133 0.0
H3434 H 0.99085 0.57332 0.67342 0.0
H3435 H 0.97198 0.57603 0.64693 0.0
H3436 H 0.00364 0.58681 0.64847 0.0
H3437 H 0.97157 0.48309 0.66494 0.0
H3438 H 0.97562 0.46757 0.63621 0.0
H3439 H 0.95025 0.48212 0.63928 0.0
C3440 C 0.26554 0.20673 0.43813 0.0
C3441 C 0.26595 0.18264 0.43344 0.0
C3442 C 0.26885 0.22169 0.41977 0.0
C3443 C 0.27252 0.21234 0.3961 0.0
C3444 C 0.27406 0.18824 0.39156 0.0
C3445 C 0.27082 0.17372 0.41029 0.0
C3446 C 0.26719 0.24727 0.42539 0.0
C3447 C 0.27786 0.17752 0.36655 0.0
C3448 C 0.24934 0.2381 0.34064 0.0
C3449 C 0.27043 0.24933 0.33248 0.0
C3450 C 0.24974 0.22697 0.36192 0.0
C3451 C 0.27185 0.2269 0.37541 0.0
C3452 C 0.29313 0.23935 0.36804 0.0
C3453 C 0.29216 0.25056 0.34661 0.0
C3454 C 0.22656 0.21424 0.3692 0.0
C3455 C 0.31701 0.23977 0.38201 0.0
H3456 H 0.26195 0.21382 0.456 0.0
H3457 H 0.27126 0.15516 0.40651 0.0
H3458 H 0.2822 0.25853 0.41843 0.0
H3459 H 0.2504 0.25081 0.4161 0.0
H3460 H 0.26733 0.25241 0.44524 0.0
H3461 H 0.28096 0.15914 0.36656 0.0
H3462 H 0.26192 0.17763 0.35374 0.0
H3463 H 0.29333 0.188 0.35946 0.0
H3464 H 0.23245 0.23733 0.32985 0.0
H3465 H 0.3085 0.25909 0.34024 0.0
H3466 H 0.22456 0.21967 0.38855 0.0
H3467 H 0.22665 0.19508 0.36731 0.0
H3468 H 0.21076 0.21756 0.35784 0.0
H3469 H 0.31608 0.24438 0.40176 0.0
H3470 H 0.33136 0.25244 0.37571 0.0
H3471 H 0.32191 0.22204 0.37968 0.0
C3472 C 0.33816 0.59206 0.51609 0.0
C3473 C 0.31667 0.57997 0.52258 0.0
C3474 C 0.35809 0.58093 0.51404 0.0
C3475 C 0.35634 0.55711 0.5183 0.0
C3476 C 0.33443 0.54456 0.52386 0.0
C3477 C 0.3149 0.55618 0.52609 0.0
C3478 C 0.38128 0.59494 0.50832 0.0
C3479 C 0.33184 0.51907 0.52826 0.0
C3480 C 0.40712 0.5263 0.49972 0.0
C3481 C 0.42166 0.52926 0.52176 0.0
C3482 C 0.3853 0.53463 0.49836 0.0
C3483 C 0.37809 0.54615 0.51952 0.0
C3484 C 0.39222 0.54815 0.542 0.0
C3485 C 0.41375 0.5396 0.54284 0.0
C3486 C 0.37044 0.53192 0.47418 0.0
C3487 C 0.38511 0.56017 0.56503 0.0
H3488 H 0.33962 0.6104 0.51326 0.0
H3489 H 0.29824 0.54659 0.53076 0.0
H3490 H 0.39479 0.59675 0.52425 0.0
H3491 H 0.38836 0.58568 0.49279 0.0
H3492 H 0.37924 0.61276 0.50381 0.0
H3493 H 0.313 0.51119 0.52981 0.0
H3494 H 0.33867 0.50879 0.51328 0.0
H3495 H 0.34265 0.51745 0.54536 0.0
H3496 H 0.4132 0.51832 0.4834 0.0
H3497 H 0.42477 0.54165 0.56003 0.0
H3498 H 0.37037 0.54941 0.46777 0.0
H3499 H 0.35165 0.52428 0.47614 0.0
H3500 H 0.37734 0.52062 0.46005 0.0
H3501 H 0.38422 0.57877 0.56273 0.0
H3502 H 0.39784 0.55971 0.58114 0.0
H3503 H 0.36709 0.55171 0.56878 0.0
C3504 C 0.83128 0.92814 0.54305 0.0
C3505 C 0.81456 0.93865 0.53005 0.0
C3506 C 0.85582 0.93724 0.5445 0.0
C3507 C 0.86369 0.95721 0.53262 0.0
C3508 C 0.8468 0.96853 0.52056 0.0
C3509 C 0.8225 0.95916 0.51948 0.0
C3510 C 0.87337 0.92486 0.55772 0.0
C3511 C 0.85442 0.98982 0.50759 0.0
C3512 C 0.92703 0.99148 0.54245 0.0
C3513 C 0.93699 0.9822 0.52213 0.0
C3514 C 0.9034 0.98288 0.54676 0.0
C3515 C 0.88947 0.96481 0.53021 0.0
C3516 C 0.8996 0.95517 0.5099 0.0
C3517 C 0.92319 0.96394 0.50616 0.0
C3518 C 0.89321 0.99341 0.56871 0.0
C3519 C 0.88528 0.93603 0.49167 0.0
H3520 H 0.82531 0.9124 0.55142 0.0
H3521 H 0.80974 0.96765 0.50966 0.0
H3522 H 0.88328 0.91589 0.54432 0.0
H3523 H 0.88669 0.93768 0.56998 0.0
H3524 H 0.8644 0.91158 0.56862 0.0
H3525 H 0.83902 0.9977 0.50084 0.0
H3526 H 0.86689 0.00337 0.51989 0.0
H3527 H 0.86407 0.98479 0.49182 0.0
H3528 H 0.93767 0.00544 0.555 0.0
H3529 H 0.93073 0.95663 0.49041 0.0
H3530 H 0.88516 0.97937 0.57924 0.0
H3531 H 0.87878 0.00288 0.56271 0.0
H3532 H 0.90694 0.00588 0.58092 0.0
H3533 H 0.87764 0.92095 0.50106 0.0
H3534 H 0.89618 0.92966 0.47753 0.0
H3535 H 0.87014 0.94269 0.48249 0.0
C3536 C 0.80721 0.06662 0.2549 0.0
C3537 C 0.83196 0.07233 0.25384 0.0
C3538 C 0.79309 0.08423 0.25767 0.0
C3539 C 0.80391 0.10808 0.25894 0.0
C3540 C 0.82892 0.11392 0.25816 0.0
C3541 C 0.84265 0.096 0.25585 0.0
C3542 C 0.76657 0.07732 0.25891 0.0
C3543 C 0.84113 0.13912 0.25908 0.0
C3544 C 0.76934 0.15457 0.23896 0.0
C3545 C 0.76774 0.16764 0.26123 0.0
C3546 C 0.78015 0.13453 0.23801 0.0
C3547 C 0.78915 0.12703 0.25991 0.0
C3548 C 0.78591 0.13906 0.28254 0.0
C3549 C 0.77533 0.15931 0.28294 0.0
C3550 C 0.78319 0.12222 0.21348 0.0
C3551 C 0.79482 0.13134 0.30631 0.0
H3552 H 0.79886 0.04836 0.2535 0.0
H3553 H 0.86173 0.10055 0.25496 0.0
H3554 H 0.76101 0.08677 0.27527 0.0
H3555 H 0.7567 0.08243 0.24278 0.0
H3556 H 0.76119 0.05816 0.2595 0.0
H3557 H 0.86077 0.14074 0.2587 0.0
H3558 H 0.8339 0.14712 0.24334 0.0
H3559 H 0.83747 0.14941 0.27585 0.0
H3560 H 0.76301 0.16057 0.22213 0.0
H3561 H 0.77406 0.1692 0.30025 0.0
H3562 H 0.77599 0.10323 0.21254 0.0
H3563 H 0.80247 0.12393 0.21091 0.0
H3564 H 0.77413 0.12952 0.19822 0.0
H3565 H 0.78934 0.11214 0.30632 0.0
H3566 H 0.78806 0.14046 0.32219 0.0
H3567 H 0.81461 0.13518 0.30859 0.0
C3568 C 0.68601 0.10116 0.05155 0.0
C3569 C 0.70534 0.08976 0.04712 0.0
C3570 C 0.66244 0.08941 0.04575 0.0
C3571 C 0.65821 0.06583 0.035 0.0
C3572 C 0.67764 0.05399 0.03132 0.0
C3573 C 0.70099 0.06606 0.03758 0.0
C3574 C 0.64211 0.10247 0.05027 0.0
C3575 C 0.67381 0.02891 0.01973 0.0
C3576 C 0.59613 0.02982 0.03247 0.0
C3577 C 0.58659 0.03252 0.00901 0.0
C3578 C 0.61945 0.04061 0.04126 0.0
C3579 C 0.63358 0.05408 0.02606 0.0
C3580 C 0.62418 0.05644 0.00219 0.0
C3581 C 0.60072 0.04576 0.99401 0.0
C3582 C 0.6288 0.03797 0.06692 0.0
C3583 C 0.63886 0.07039 0.98532 0.0
H3584 H 0.68929 0.11943 0.05907 0.0
H3585 H 0.71586 0.05714 0.03412 0.0
H3586 H 0.63277 0.10494 0.03262 0.0
H3587 H 0.62885 0.09215 0.06039 0.0
H3588 H 0.64832 0.11997 0.06074 0.0
H3589 H 0.69073 0.02177 0.01956 0.0
H3590 H 0.66115 0.01757 0.02955 0.0
H3591 H 0.66577 0.02788 0.00068 0.0
H3592 H 0.58516 0.01976 0.0442 0.0
H3593 H 0.59341 0.0478 0.97584 0.0
H3594 H 0.63351 0.05547 0.07765 0.0
H3595 H 0.64533 0.03024 0.06673 0.0
H3596 H 0.61559 0.02673 0.07631 0.0
H3597 H 0.64393 0.08893 0.99336 0.0
H3598 H 0.62912 0.06994 0.96707 0.0
H3599 H 0.65563 0.06341 0.98302 0.0
C3600 C 0.21036 0.45404 0.26947 0.0
C3601 C 0.18567 0.44715 0.27006 0.0
C3602 C 0.22597 0.43776 0.27105 0.0
C3603 C 0.21662 0.414 0.27298 0.0
C3604 C 0.19187 0.4072 0.2748 0.0
C3605 C 0.17672 0.42388 0.27342 0.0
C3606 C 0.25228 0.44575 0.26947 0.0
C3607 C 0.18116 0.38202 0.27684 0.0
C3608 C 0.24463 0.36472 0.24437 0.0
C3609 C 0.25393 0.35562 0.26489 0.0
C3610 C 0.23361 0.38454 0.24675 0.0
C3611 C 0.23196 0.39568 0.27026 0.0
C3612 C 0.24294 0.38769 0.29096 0.0
C3613 C 0.2538 0.36766 0.28804 0.0
C3614 C 0.22228 0.39251 0.22415 0.0
C3615 C 0.24188 0.39933 0.31628 0.0
H3616 H 0.21745 0.47205 0.2671 0.0
H3617 H 0.1577 0.41843 0.27401 0.0
H3618 H 0.26304 0.43876 0.28372 0.0
H3619 H 0.25721 0.43884 0.25156 0.0
H3620 H 0.25716 0.46517 0.27151 0.0
H3621 H 0.16196 0.37995 0.27996 0.0
H3622 H 0.18292 0.37097 0.25983 0.0
H3623 H 0.1909 0.37525 0.29199 0.0
H3624 H 0.24492 0.35564 0.22639 0.0
H3625 H 0.26093 0.36069 0.30397 0.0
H3626 H 0.22812 0.4116 0.22376 0.0
H3627 H 0.20258 0.38936 0.22434 0.0
H3628 H 0.22676 0.38311 0.20717 0.0
H3629 H 0.24593 0.4187 0.31676 0.0
H3630 H 0.25456 0.39368 0.32984 0.0
H3631 H 0.22357 0.39472 0.32178 0.0
C3632 C 0.15921 0.40231 0.01811 0.0
C3633 C 0.18105 0.41405 0.03009 0.0
C3634 C 0.13966 0.41404 0.01509 0.0
C3635 C 0.14203 0.43791 0.02457 0.0
C3636 C 0.16404 0.44978 0.03667 0.0
C3637 C 0.1833 0.43775 0.03918 0.0
C3638 C 0.1164 0.40086 0.00205 0.0
C3639 C 0.16713 0.47511 0.0474 0.0
C3640 C 0.09704 0.47538 0.00379 0.0
C3641 C 0.08202 0.47421 0.02259 0.0
C3642 C 0.11654 0.46333 0.00394 0.0
C3643 C 0.12108 0.45008 0.02343 0.0
C3644 C 0.10602 0.44901 0.04249 0.0
C3645 C 0.08669 0.46102 0.04179 0.0
C3646 C 0.13219 0.46466 0.98323 0.0
C3647 C 0.11041 0.43536 0.06379 0.0
H3648 H 0.15745 0.38404 0.01092 0.0
H3649 H 0.20013 0.4469 0.0485 0.0
H3650 H 0.10228 0.39979 0.01477 0.0
H3651 H 0.1105 0.41038 0.98689 0.0
H3652 H 0.11786 0.38277 0.99458 0.0
H3653 H 0.18568 0.48203 0.05548 0.0
H3654 H 0.1624 0.48619 0.03318 0.0
H3655 H 0.15486 0.47684 0.06179 0.0
H3656 H 0.09335 0.48534 0.98881 0.0
H3657 H 0.07512 0.45994 0.05638 0.0
H3658 H 0.13248 0.44676 0.97443 0.0
H3659 H 0.15082 0.47242 0.99031 0.0
H3660 H 0.126 0.47534 0.96922 0.0
H3661 H 0.11174 0.41702 0.05724 0.0
H3662 H 0.09606 0.43501 0.07625 0.0
H3663 H 0.12763 0.44334 0.07433 0.0
C3664 C 0.82492 0.93439 0.24382 0.0
C3665 C 0.84584 0.93557 0.23191 0.0
C3666 C 0.81123 0.91267 0.24687 0.0
C3667 C 0.81853 0.89168 0.23762 0.0
C3668 C 0.83881 0.89281 0.22432 0.0
C3669 C 0.85226 0.91472 0.22173 0.0
C3670 C 0.78978 0.91219 0.26123 0.0
C3671 C 0.84705 0.87084 0.21392 0.0
C3672 C 0.80687 0.8371 0.26996 0.0
C3673 C 0.78841 0.82293 0.25444 0.0
C3674 C 0.81608 0.85984 0.26517 0.0
C3675 C 0.80682 0.86862 0.24414 0.0
C3676 C 0.78761 0.85474 0.22881 0.0
C3677 C 0.7785 0.83204 0.23424 0.0
C3678 C 0.83633 0.87417 0.28221 0.0
C3679 C 0.77736 0.86347 0.20617 0.0
H3680 H 0.81978 0.9504 0.25171 0.0
H3681 H 0.86823 0.91544 0.21225 0.0
H3682 H 0.77423 0.8999 0.25155 0.0
H3683 H 0.79379 0.90578 0.27906 0.0
H3684 H 0.78475 0.92981 0.2646 0.0
H3685 H 0.86155 0.87469 0.2019 0.0
H3686 H 0.85375 0.86165 0.22899 0.0
H3687 H 0.83193 0.85864 0.20337 0.0
H3688 H 0.81441 0.83026 0.28579 0.0
H3689 H 0.76426 0.82113 0.22216 0.0
H3690 H 0.83197 0.89164 0.28809 0.0
H3691 H 0.85271 0.87709 0.27258 0.0
H3692 H 0.8403 0.86545 0.29866 0.0
H3693 H 0.77288 0.88117 0.21055 0.0
H3694 H 0.76109 0.85151 0.19744 0.0
H3695 H 0.7909 0.86507 0.19285 0.0
C3696 C 0.6425 0.08253 0.74571 0.0
C3697 C 0.65024 0.06315 0.75503 0.0
C3698 C 0.65597 0.10515 0.75117 0.0
C3699 C 0.67756 0.10852 0.76654 0.0
C3700 C 0.68593 0.08894 0.77526 0.0
C3701 C 0.67223 0.06649 0.76931 0.0
C3702 C 0.6466 0.12557 0.74129 0.0
C3703 C 0.70877 0.09184 0.79185 0.0
C3704 C 0.71968 0.16709 0.77141 0.0
C3705 C 0.71269 0.17896 0.79215 0.0
C3706 C 0.70847 0.14408 0.76279 0.0
C3707 C 0.69011 0.13268 0.77542 0.0
C3708 C 0.68335 0.14447 0.79663 0.0
C3709 C 0.69462 0.16747 0.80463 0.0
C3710 C 0.71598 0.13211 0.74 0.0
C3711 C 0.66405 0.13284 0.8108 0.0
H3712 H 0.62567 0.08011 0.73446 0.0
H3713 H 0.67841 0.05164 0.77656 0.0
H3714 H 0.64132 0.13693 0.75644 0.0
H3715 H 0.66075 0.13644 0.73269 0.0
H3716 H 0.63087 0.11977 0.72766 0.0
H3717 H 0.71386 0.07473 0.79535 0.0
H3718 H 0.72363 0.10233 0.78386 0.0
H3719 H 0.70656 0.10154 0.80955 0.0
H3720 H 0.73357 0.17595 0.76163 0.0
H3721 H 0.68924 0.17647 0.82078 0.0
H3722 H 0.7006 0.12777 0.72583 0.0
H3723 H 0.72166 0.11535 0.74381 0.0
H3724 H 0.73086 0.14319 0.73256 0.0
H3725 H 0.64689 0.12839 0.79909 0.0
H3726 H 0.66139 0.1442 0.8273 0.0
H3727 H 0.66862 0.1162 0.81647 0.0
loop_
_geom_bond_atom_site_label_1
_geom_bond_atom_site_label_2
_geom_bond_distance
_geom_bond_site_symmetry_2
_ccdc_geom_bond_type
C0 O1 1.306 . S
C0 O3 1.160 . S
O1 C0 1.306 . S
O1 Cd2 2.228 1_655 S
Cd2 O1 2.228 1_455 S
Cd2 O6 2.273 . S
Cd2 O10 2.277 . S
O3 C0 1.160 . S
O3 Cd4 2.203 1_655 S
Cd4 O3 2.203 1_455 S
Cd4 O6 2.411 . S
Cd4 O7 2.333 . S
Cd4 O8 2.352 . S
Cd4 O12 2.277 . S
Cd4 O13 2.356 . S
C5 O10 1.209 . S
C5 O12 1.226 . S
O6 Cd2 2.273 . S
O6 Cd4 2.411 . S
O6 C9 1.320 . S
O7 Cd4 2.333 . S
O7 C9 1.214 . S
O8 Cd4 2.352 . S
O8 C11 1.258 . S
C9 O6 1.320 . S
C9 O7 1.214 . S
O10 Cd2 2.277 . S
O10 C5 1.209 . S
C11 O8 1.258 . S
C11 O13 1.282 . S
O12 Cd4 2.277 . S
O12 C5 1.226 . S
O13 Cd4 2.356 . S
O13 C11 1.282 . S
C14 O15 1.306 . S
C14 O17 1.160 . S
O15 C14 1.306 . S
O15 Cd16 2.228 1_655 S
Cd16 O15 2.228 1_455 S
Cd16 O20 2.273 . S
Cd16 O24 2.277 . S
O17 C14 1.160 . S
O17 Cd18 2.203 1_655 S
Cd18 O17 2.203 1_455 S
Cd18 O20 2.411 . S
Cd18 O21 2.333 . S
Cd18 O22 2.352 . S
Cd18 O26 2.277 . S
Cd18 O27 2.356 . S
C19 O24 1.209 . S
C19 O26 1.226 . S
O20 Cd16 2.273 . S
O20 Cd18 2.411 . S
O20 C23 1.320 . S
O21 Cd18 2.333 . S
O21 C23 1.214 . S
O22 Cd18 2.352 . S
O22 C25 1.258 . S
C23 O20 1.320 . S
C23 O21 1.214 . S
O24 Cd16 2.277 . S
O24 C19 1.209 . S
C25 O22 1.258 . S
C25 O27 1.282 . S
O26 Cd18 2.277 . S
O26 C19 1.226 . S
O27 Cd18 2.356 . S
O27 C25 1.282 . S
C28 O29 1.306 . S
C28 O31 1.160 . S
O29 C28 1.306 . S
O29 Cd30 2.228 . S
Cd30 O29 2.228 . S
Cd30 O34 2.273 . S
Cd30 O38 2.277 . S
O31 C28 1.160 . S
O31 Cd32 2.203 . S
Cd32 O31 2.203 . S
Cd32 O34 2.411 . S
Cd32 O35 2.333 . S
Cd32 O36 2.352 . S
Cd32 O40 2.277 . S
Cd32 O41 2.356 . S
C33 O38 1.209 . S
C33 O40 1.226 . S
O34 Cd30 2.273 . S
O34 Cd32 2.411 . S
O34 C37 1.320 . S
O35 Cd32 2.333 . S
O35 C37 1.214 . S
O36 Cd32 2.352 . S
O36 C39 1.258 . S
C37 O34 1.320 . S
C37 O35 1.214 . S
O38 Cd30 2.277 . S
O38 C33 1.209 . S
C39 O36 1.258 . S
C39 O41 1.282 . S
O40 Cd32 2.277 . S
O40 C33 1.226 . S
O41 Cd32 2.356 . S
O41 C39 1.282 . S
C42 O43 1.306 . S
C42 O45 1.160 . S
O43 C42 1.306 . S
O43 Cd44 2.228 . S
Cd44 O43 2.228 . S
Cd44 O48 2.273 . S
Cd44 O52 2.277 . S
O45 C42 1.160 . S
O45 Cd46 2.203 . S
Cd46 O45 2.203 . S
Cd46 O48 2.411 . S
Cd46 O49 2.333 . S
Cd46 O50 2.352 . S
Cd46 O54 2.277 . S
Cd46 O55 2.356 . S
C47 O52 1.209 . S
C47 O54 1.226 . S
O48 Cd44 2.273 . S
O48 Cd46 2.411 . S
O48 C51 1.320 . S
O49 Cd46 2.333 . S
O49 C51 1.214 . S
O50 Cd46 2.352 . S
O50 C53 1.258 . S
C51 O48 1.320 . S
C51 O49 1.214 . S
O52 Cd44 2.277 . S
O52 C47 1.209 . S
C53 O50 1.258 . S
C53 O55 1.282 . S
O54 Cd46 2.277 . S
O54 C47 1.226 . S
O55 Cd46 2.356 . S
O55 C53 1.282 . S
C56 O57 1.306 1_655 S
C56 O59 1.160 . S
O57 C56 1.306 1_455 S
O57 Cd58 2.228 . S
Cd58 O57 2.228 . S
Cd58 O62 2.273 . S
Cd58 O66 2.277 . S
O59 C56 1.160 . S
O59 Cd60 2.203 1_655 S
Cd60 O59 2.203 1_455 S
Cd60 O62 2.411 . S
Cd60 O63 2.333 . S
Cd60 O64 2.352 . S
Cd60 O68 2.277 . S
Cd60 O69 2.356 . S
C61 O66 1.209 . S
C61 O68 1.226 . S
O62 Cd58 2.273 . S
O62 Cd60 2.411 . S
O62 C65 1.320 . S
O63 Cd60 2.333 . S
O63 C65 1.214 . S
O64 Cd60 2.352 . S
O64 C67 1.258 . S
C65 O62 1.320 . S
C65 O63 1.214 . S
O66 Cd58 2.277 . S
O66 C61 1.209 . S
C67 O64 1.258 . S
C67 O69 1.282 . S
O68 Cd60 2.277 . S
O68 C61 1.226 . S
O69 Cd60 2.356 . S
O69 C67 1.282 . S
C70 O71 1.306 . S
C70 O73 1.160 . S
O71 C70 1.306 . S
O71 Cd72 2.228 . S
Cd72 O71 2.228 . S
Cd72 O76 2.273 . S
Cd72 O80 2.277 . S
O73 C70 1.160 . S
O73 Cd74 2.203 . S
Cd74 O73 2.203 . S
Cd74 O76 2.411 . S
Cd74 O77 2.333 . S
Cd74 O78 2.352 . S
Cd74 O82 2.277 . S
Cd74 O83 2.356 . S
C75 O80 1.209 . S
C75 O82 1.226 . S
O76 Cd72 2.273 . S
O76 Cd74 2.411 . S
O76 C79 1.320 . S
O77 Cd74 2.333 . S
O77 C79 1.214 . S
O78 Cd74 2.352 . S
O78 C81 1.258 . S
C79 O76 1.320 . S
C79 O77 1.214 . S
O80 Cd72 2.277 . S
O80 C75 1.209 . S
C81 O78 1.258 . S
C81 O83 1.282 . S
O82 Cd74 2.277 . S
O82 C75 1.226 . S
O83 Cd74 2.356 . S
O83 C81 1.282 . S
C84 O85 1.306 . S
C84 O87 1.160 . S
O85 C84 1.306 . S
O85 Cd86 2.228 . S
Cd86 O85 2.228 . S
Cd86 O90 2.273 . S
Cd86 O94 2.277 . S
O87 C84 1.160 . S
O87 Cd88 2.203 . S
Cd88 O87 2.203 . S
Cd88 O90 2.411 . S
Cd88 O91 2.333 . S
Cd88 O92 2.352 . S
Cd88 O96 2.277 . S
Cd88 O97 2.356 . S
C89 O94 1.209 . S
C89 O96 1.226 . S
O90 Cd86 2.273 . S
O90 Cd88 2.411 . S
O90 C93 1.320 . S
O91 Cd88 2.333 . S
O91 C93 1.214 . S
O92 Cd88 2.352 . S
O92 C95 1.258 . S
C93 O90 1.320 . S
C93 O91 1.214 . S
O94 Cd86 2.277 . S
O94 C89 1.209 . S
C95 O92 1.258 . S
C95 O97 1.282 . S
O96 Cd88 2.277 . S
O96 C89 1.226 . S
O97 Cd88 2.356 . S
O97 C95 1.282 . S
C98 O99 1.306 . S
C98 O101 1.160 . S
O99 C98 1.306 . S
O99 Cd100 2.228 1_655 S
Cd100 O99 2.228 1_455 S
Cd100 O104 2.273 . S
Cd100 O108 2.277 . S
O101 C98 1.160 . S
O101 Cd102 2.203 1_655 S
Cd102 O101 2.203 1_455 S
Cd102 O104 2.411 . S
Cd102 O105 2.333 . S
Cd102 O106 2.352 1_455 S
Cd102 O110 2.277 . S
Cd102 O111 2.356 . S
C103 O108 1.209 . S
C103 O110 1.226 . S
O104 Cd100 2.273 . S
O104 Cd102 2.411 . S
O104 C107 1.320 . S
O105 Cd102 2.333 . S
O105 C107 1.214 . S
O106 Cd102 2.352 1_655 S
O106 C109 1.261 . S
C107 O104 1.320 . S
C107 O105 1.214 . S
O108 Cd100 2.277 . S
O108 C103 1.209 . S
C109 O106 1.261 . S
C109 O111 1.281 1_655 S
O110 Cd102 2.277 . S
O110 C103 1.226 . S
O111 Cd102 2.356 . S
O111 C109 1.281 1_455 S
C112 O113 1.306 . S
C112 O115 1.160 . S
O113 C112 1.306 . S
O113 Cd114 2.228 1_545 S
Cd114 O113 2.228 1_565 S
Cd114 O118 2.273 1_565 S
Cd114 O122 2.277 . S
O115 C112 1.160 . S
O115 Cd116 2.203 . S
Cd116 O115 2.203 . S
Cd116 O118 2.411 . S
Cd116 O119 2.333 . S
Cd116 O120 2.352 . S
Cd116 O124 2.277 1_545 S
Cd116 O125 2.356 . S
C117 O122 1.209 . S
C117 O124 1.226 . S
O118 Cd114 2.273 1_545 S
O118 Cd116 2.411 . S
O118 C121 1.320 . S
O119 Cd116 2.333 . S
O119 C121 1.214 . S
O120 Cd116 2.352 . S
O120 C123 1.258 . S
C121 O118 1.320 . S
C121 O119 1.214 . S
O122 Cd114 2.277 . S
O122 C117 1.209 . S
C123 O120 1.258 . S
C123 O125 1.282 . S
O124 Cd116 2.277 1_565 S
O124 C117 1.226 . S
O125 Cd116 2.356 . S
O125 C123 1.282 . S
C126 O127 1.306 . S
C126 O129 1.160 . S
O127 C126 1.306 . S
O127 Cd128 2.228 . S
Cd128 O127 2.228 . S
Cd128 O132 2.273 . S
Cd128 O136 2.277 . S
O129 C126 1.160 . S
O129 Cd130 2.203 . S
Cd130 O129 2.203 . S
Cd130 O132 2.411 . S
Cd130 O133 2.333 . S
Cd130 O134 2.352 . S
Cd130 O138 2.277 . S
Cd130 O139 2.356 . S
C131 O136 1.209 . S
C131 O138 1.226 . S
O132 Cd128 2.273 . S
O132 Cd130 2.411 . S
O132 C135 1.320 . S
O133 Cd130 2.333 . S
O133 C135 1.214 . S
O134 Cd130 2.352 . S
O134 C137 1.258 . S
C135 O132 1.320 . S
C135 O133 1.214 . S
O136 Cd128 2.277 . S
O136 C131 1.209 . S
C137 O134 1.258 . S
C137 O139 1.282 . S
O138 Cd130 2.277 . S
O138 C131 1.226 . S
O139 Cd130 2.356 . S
O139 C137 1.282 . S
C140 O141 1.306 . S
C140 O143 1.160 . S
O141 C140 1.306 . S
O141 Cd142 2.228 . S
Cd142 O141 2.228 . S
Cd142 O146 2.273 . S
Cd142 O150 2.277 . S
O143 C140 1.160 . S
O143 Cd144 2.203 . S
Cd144 O143 2.203 . S
Cd144 O146 2.411 . S
Cd144 O147 2.333 . S
Cd144 O148 2.352 1_545 S
Cd144 O152 2.277 . S
Cd144 O153 2.356 1_545 S
C145 O150 1.209 . S
C145 O152 1.226 . S
O146 Cd142 2.273 . S
O146 Cd144 2.411 . S
O146 C149 1.320 . S
O147 Cd144 2.333 . S
O147 C149 1.214 . S
O148 Cd144 2.352 1_565 S
O148 C151 1.258 . S
C149 O146 1.320 . S
C149 O147 1.214 . S
O150 Cd142 2.277 . S
O150 C145 1.209 . S
C151 O148 1.258 . S
C151 O153 1.282 . S
O152 Cd144 2.277 . S
O152 C145 1.226 . S
O153 Cd144 2.356 1_565 S
O153 C151 1.282 . S
C154 O155 1.306 . S
C154 O157 1.160 . S
O155 C154 1.306 . S
O155 Cd156 2.228 1_554 S
Cd156 O155 2.228 1_556 S
Cd156 O160 2.273 1_556 S
Cd156 O164 2.277 . S
O157 C154 1.160 . S
O157 Cd158 2.203 . S
Cd158 O157 2.203 . S
Cd158 O160 2.411 . S
Cd158 O161 2.333 . S
Cd158 O162 2.352 . S
Cd158 O166 2.277 1_554 S
Cd158 O167 2.356 . S
C159 O164 1.209 . S
C159 O166 1.226 . S
O160 Cd156 2.273 1_554 S
O160 Cd158 2.411 . S
O160 C163 1.320 . S
O161 Cd158 2.333 . S
O161 C163 1.214 . S
O162 Cd158 2.352 . S
O162 C165 1.258 . S
C163 O160 1.320 . S
C163 O161 1.214 . S
O164 Cd156 2.277 . S
O164 C159 1.209 . S
C165 O162 1.258 . S
C165 O167 1.282 . S
O166 Cd158 2.277 1_556 S
O166 C159 1.226 . S
O167 Cd158 2.356 . S
O167 C165 1.282 . S
C168 O169 1.306 . S
C168 O171 1.160 . S
O169 C168 1.306 . S
O169 Cd170 2.228 . S
Cd170 O169 2.228 . S
Cd170 O174 2.273 . S
Cd170 O178 2.281 . S
O171 C168 1.160 . S
O171 Cd172 2.203 . S
Cd172 O171 2.203 . S
Cd172 O174 2.411 . S
Cd172 O175 2.333 . S
Cd172 O176 2.352 . S
Cd172 O180 2.277 . S
Cd172 O181 2.356 . S
C173 O178 1.208 1_556 S
C173 O180 1.226 1_556 S
O174 Cd170 2.273 . S
O174 Cd172 2.411 . S
O174 C177 1.320 . S
O175 Cd172 2.333 . S
O175 C177 1.214 . S
O176 Cd172 2.352 . S
O176 C179 1.258 . S
C177 O174 1.320 . S
C177 O175 1.214 . S
O178 Cd170 2.281 . S
O178 C173 1.208 1_554 S
C179 O176 1.258 . S
C179 O181 1.282 . S
O180 Cd172 2.277 . S
O180 C173 1.226 1_554 S
O181 Cd172 2.356 . S
O181 C179 1.282 . S
C182 O183 1.306 . S
C182 O185 1.160 . S
O183 C182 1.306 . S
O183 Cd184 2.228 . S
Cd184 O183 2.228 . S
Cd184 O188 2.273 . S
Cd184 O192 2.277 . S
O185 C182 1.160 . S
O185 Cd186 2.203 . S
Cd186 O185 2.203 . S
Cd186 O188 2.411 . S
Cd186 O189 2.333 . S
Cd186 O190 2.352 1_554 S
Cd186 O194 2.277 . S
Cd186 O195 2.356 1_554 S
C187 O192 1.209 . S
C187 O194 1.226 . S
O188 Cd184 2.273 . S
O188 Cd186 2.411 . S
O188 C191 1.320 . S
O189 Cd186 2.333 . S
O189 C191 1.214 . S
O190 Cd186 2.352 1_556 S
O190 C193 1.258 . S
C191 O188 1.320 . S
C191 O189 1.214 . S
O192 Cd184 2.277 . S
O192 C187 1.209 . S
C193 O190 1.258 . S
C193 O195 1.282 . S
O194 Cd186 2.277 . S
O194 C187 1.226 . S
O195 Cd186 2.356 1_556 S
O195 C193 1.282 . S
C196 O197 1.306 . S
C196 O199 1.160 . S
O197 C196 1.306 . S
O197 Cd198 2.228 . S
Cd198 O197 2.228 . S
Cd198 O202 2.273 . S
Cd198 O206 2.277 . S
O199 C196 1.160 . S
O199 Cd200 2.203 . S
Cd200 O199 2.203 . S
Cd200 O202 2.411 . S
Cd200 O203 2.333 . S
Cd200 O204 2.352 . S
Cd200 O208 2.277 . S
Cd200 O209 2.356 . S
C201 O206 1.209 . S
C201 O208 1.226 . S
O202 Cd198 2.273 . S
O202 Cd200 2.411 . S
O202 C205 1.320 . S
O203 Cd200 2.333 . S
O203 C205 1.214 . S
O204 Cd200 2.352 . S
O204 C207 1.258 . S
C205 O202 1.320 . S
C205 O203 1.214 . S
O206 Cd198 2.277 . S
O206 C201 1.209 . S
C207 O204 1.258 . S
C207 O209 1.282 . S
O208 Cd200 2.277 . S
O208 C201 1.226 . S
O209 Cd200 2.356 . S
O209 C207 1.282 . S
C210 O211 1.306 . S
C210 O213 1.160 . S
O211 C210 1.306 . S
O211 Cd212 2.228 . S
Cd212 O211 2.228 . S
Cd212 O216 2.273 . S
Cd212 O220 2.277 . S
O213 C210 1.160 . S
O213 Cd214 2.203 . S
Cd214 O213 2.203 . S
Cd214 O216 2.411 . S
Cd214 O217 2.333 . S
Cd214 O218 2.352 . S
Cd214 O222 2.277 . S
Cd214 O223 2.356 . S
C215 O220 1.209 . S
C215 O222 1.226 . S
O216 Cd212 2.273 . S
O216 Cd214 2.411 . S
O216 C219 1.320 . S
O217 Cd214 2.333 . S
O217 C219 1.214 . S
O218 Cd214 2.352 . S
O218 C221 1.258 . S
C219 O216 1.320 . S
C219 O217 1.214 . S
O220 Cd212 2.277 . S
O220 C215 1.209 . S
C221 O218 1.258 . S
C221 O223 1.282 . S
O222 Cd214 2.277 . S
O222 C215 1.226 . S
O223 Cd214 2.356 . S
O223 C221 1.282 . S
C224 O225 1.306 . S
C224 O227 1.160 . S
O225 C224 1.306 . S
O225 Cd226 2.228 1_545 S
Cd226 O225 2.228 1_565 S
Cd226 O230 2.273 1_565 S
Cd226 O234 2.277 . S
O227 C224 1.160 . S
O227 Cd228 2.203 . S
Cd228 O227 2.203 . S
Cd228 O230 2.411 . S
Cd228 O231 2.333 . S
Cd228 O232 2.352 . S
Cd228 O236 2.277 1_545 S
Cd228 O237 2.356 . S
C229 O234 1.209 . S
C229 O236 1.226 . S
O230 Cd226 2.273 1_545 S
O230 Cd228 2.411 . S
O230 C233 1.320 . S
O231 Cd228 2.333 . S
O231 C233 1.214 . S
O232 Cd228 2.352 . S
O232 C235 1.258 . S
C233 O230 1.320 . S
C233 O231 1.214 . S
O234 Cd226 2.277 . S
O234 C229 1.209 . S
C235 O232 1.258 . S
C235 O237 1.282 . S
O236 Cd228 2.277 1_565 S
O236 C229 1.226 . S
O237 Cd228 2.356 . S
O237 C235 1.282 . S
C238 O239 1.306 . S
C238 O241 1.160 . S
O239 C238 1.306 . S
O239 Cd240 2.228 . S
Cd240 O239 2.228 . S
Cd240 O244 2.273 . S
Cd240 O248 2.277 . S
O241 C238 1.160 . S
O241 Cd242 2.203 . S
Cd242 O241 2.203 . S
Cd242 O244 2.411 . S
Cd242 O245 2.333 . S
Cd242 O246 2.352 . S
Cd242 O250 2.277 . S
Cd242 O251 2.356 . S
C243 O248 1.209 . S
C243 O250 1.226 . S
O244 Cd240 2.273 . S
O244 Cd242 2.411 . S
O244 C247 1.320 . S
O245 Cd242 2.333 . S
O245 C247 1.214 . S
O246 Cd242 2.352 . S
O246 C249 1.258 . S
C247 O244 1.320 . S
C247 O245 1.214 . S
O248 Cd240 2.277 . S
O248 C243 1.209 . S
C249 O246 1.258 . S
C249 O251 1.282 . S
O250 Cd242 2.277 . S
O250 C243 1.226 . S
O251 Cd242 2.356 . S
O251 C249 1.282 . S
C252 O253 1.306 . S
C252 O255 1.160 . S
O253 C252 1.306 . S
O253 Cd254 2.228 . S
Cd254 O253 2.228 . S
Cd254 O258 2.273 . S
Cd254 O262 2.277 . S
O255 C252 1.160 . S
O255 Cd256 2.203 . S
Cd256 O255 2.203 . S
Cd256 O258 2.411 . S
Cd256 O259 2.333 . S
Cd256 O260 2.352 . S
Cd256 O264 2.277 . S
Cd256 O265 2.356 . S
C257 O262 1.209 . S
C257 O264 1.226 . S
O258 Cd254 2.273 . S
O258 Cd256 2.411 . S
O258 C261 1.320 . S
O259 Cd256 2.333 . S
O259 C261 1.214 . S
O260 Cd256 2.352 . S
O260 C263 1.258 . S
C261 O258 1.320 . S
C261 O259 1.214 . S
O262 Cd254 2.277 . S
O262 C257 1.209 . S
C263 O260 1.258 . S
C263 O265 1.282 . S
O264 Cd256 2.277 . S
O264 C257 1.226 . S
O265 Cd256 2.356 . S
O265 C263 1.282 . S
C266 O267 1.306 . S
C266 O269 1.149 1_545 S
O267 C266 1.306 . S
O267 Cd268 2.228 . S
Cd268 O267 2.228 . S
Cd268 O272 2.273 1_545 S
Cd268 O276 2.277 . S
O269 C266 1.149 1_565 S
O269 Cd270 2.204 . S
Cd270 O269 2.204 . S
Cd270 O272 2.411 . S
Cd270 O273 2.333 . S
Cd270 O274 2.352 . S
Cd270 O278 2.277 1_565 S
Cd270 O279 2.356 . S
C271 O276 1.209 . S
C271 O278 1.226 . S
O272 Cd268 2.273 1_565 S
O272 Cd270 2.411 . S
O272 C275 1.320 . S
O273 Cd270 2.333 . S
O273 C275 1.214 . S
O274 Cd270 2.352 . S
O274 C277 1.258 . S
C275 O272 1.320 . S
C275 O273 1.214 . S
O276 Cd268 2.277 . S
O276 C271 1.209 . S
C277 O274 1.258 . S
C277 O279 1.282 . S
O278 Cd270 2.277 1_545 S
O278 C271 1.226 . S
O279 Cd270 2.356 . S
O279 C277 1.282 . S
C280 O281 1.306 . S
C280 O283 1.146 1_554 S
O281 C280 1.306 . S
O281 Cd282 2.228 . S
Cd282 O281 2.228 . S
Cd282 O286 2.273 1_554 S
Cd282 O290 2.277 . S
O283 C280 1.146 1_556 S
O283 Cd284 2.204 . S
Cd284 O283 2.204 . S
Cd284 O286 2.411 . S
Cd284 O287 2.333 . S
Cd284 O288 2.352 . S
Cd284 O292 2.277 1_556 S
Cd284 O293 2.356 . S
C285 O290 1.209 . S
C285 O292 1.226 . S
O286 Cd282 2.273 1_556 S
O286 Cd284 2.411 . S
O286 C289 1.320 . S
O287 Cd284 2.333 . S
O287 C289 1.214 . S
O288 Cd284 2.352 . S
O288 C291 1.258 . S
C289 O286 1.320 . S
C289 O287 1.214 . S
O290 Cd282 2.277 . S
O290 C285 1.209 . S
C291 O288 1.258 . S
C291 O293 1.282 . S
O292 Cd284 2.277 1_554 S
O292 C285 1.226 . S
O293 Cd284 2.356 . S
O293 C291 1.282 . S
C294 O295 1.306 . S
C294 O297 1.160 . S
O295 C294 1.306 . S
O295 Cd296 2.228 . S
Cd296 O295 2.228 . S
Cd296 O300 2.273 . S
Cd296 O304 2.277 . S
O297 C294 1.160 . S
O297 Cd298 2.203 . S
Cd298 O297 2.203 . S
Cd298 O300 2.411 . S
Cd298 O301 2.333 . S
Cd298 O302 2.352 . S
Cd298 O306 2.277 . S
Cd298 O307 2.356 . S
C299 O304 1.209 . S
C299 O306 1.226 . S
O300 Cd296 2.273 . S
O300 Cd298 2.411 . S
O300 C303 1.320 . S
O301 Cd298 2.333 . S
O301 C303 1.214 . S
O302 Cd298 2.352 . S
O302 C305 1.258 . S
C303 O300 1.320 . S
C303 O301 1.214 . S
O304 Cd296 2.277 . S
O304 C299 1.209 . S
C305 O302 1.258 . S
C305 O307 1.282 . S
O306 Cd298 2.277 . S
O306 C299 1.226 . S
O307 Cd298 2.356 . S
O307 C305 1.282 . S
C308 O309 1.306 . S
C308 O311 1.160 . S
O309 C308 1.306 . S
O309 Cd310 2.228 . S
Cd310 O309 2.228 . S
Cd310 O314 2.273 . S
Cd310 O318 2.277 . S
O311 C308 1.160 . S
O311 Cd312 2.203 . S
Cd312 O311 2.203 . S
Cd312 O314 2.411 . S
Cd312 O315 2.333 . S
Cd312 O316 2.352 . S
Cd312 O320 2.277 . S
Cd312 O321 2.356 . S
C313 O318 1.209 . S
C313 O320 1.226 . S
O314 Cd310 2.273 . S
O314 Cd312 2.411 . S
O314 C317 1.320 . S
O315 Cd312 2.333 . S
O315 C317 1.214 . S
O316 Cd312 2.352 . S
O316 C319 1.258 . S
C317 O314 1.320 . S
C317 O315 1.214 . S
O318 Cd310 2.277 . S
O318 C313 1.209 . S
C319 O316 1.258 . S
C319 O321 1.282 . S
O320 Cd312 2.277 . S
O320 C313 1.226 . S
O321 Cd312 2.356 . S
O321 C319 1.282 . S
C322 O323 1.306 . S
C322 O325 1.160 . S
O323 C322 1.306 . S
O323 Cd324 2.228 . S
Cd324 O323 2.228 . S
Cd324 O328 2.273 . S
Cd324 O332 2.277 . S
O325 C322 1.160 . S
O325 Cd326 2.203 . S
Cd326 O325 2.203 . S
Cd326 O328 2.411 . S
Cd326 O329 2.333 . S
Cd326 O330 2.352 . S
Cd326 O334 2.277 . S
Cd326 O335 2.356 . S
C327 O332 1.209 . S
C327 O334 1.226 . S
O328 Cd324 2.273 . S
O328 Cd326 2.411 . S
O328 C331 1.320 . S
O329 Cd326 2.333 . S
O329 C331 1.214 . S
O330 Cd326 2.352 . S
O330 C333 1.258 . S
C331 O328 1.320 . S
C331 O329 1.214 . S
O332 Cd324 2.277 . S
O332 C327 1.209 . S
C333 O330 1.258 . S
C333 O335 1.282 . S
O334 Cd326 2.277 . S
O334 C327 1.226 . S
O335 Cd326 2.356 . S
O335 C333 1.282 . S
Zn336 O342 1.969 . S
Zn336 O343 1.965 1_565 S
Zn336 O347 2.024 . S
Zn336 O352 1.969 1_565 S
Zn337 O344 1.969 1_654 S
Zn337 O350 1.969 1_554 S
Zn337 O351 1.965 . S
Zn337 O353 2.024 1_655 S
C338 O339 1.229 . S
C338 O347 1.058 . S
O339 C338 1.229 . S
C340 O341 1.204 1_454 S
C340 O353 1.058 . S
O341 C340 1.204 1_656 S
O342 Zn336 1.969 . S
O342 C345 1.267 . S
O343 Zn336 1.965 1_545 S
O343 C354 1.260 1_554 S
O344 Zn337 1.969 1_456 S
O344 C354 1.258 . S
C345 O342 1.267 . S
C345 O346 1.228 . S
O346 C345 1.228 . S
O347 Zn336 2.024 . S
O347 C338 1.058 . S
C348 O349 1.228 . S
C348 O350 1.267 1_554 S
O349 C348 1.228 . S
O350 Zn337 1.969 1_556 S
O350 C348 1.267 1_556 S
O351 Zn337 1.965 . S
O351 C355 1.260 1_655 S
O352 Zn336 1.969 1_545 S
O352 C355 1.258 . S
O353 Zn337 2.024 1_455 S
O353 C340 1.058 . S
C354 O343 1.260 1_556 S
C354 O344 1.258 . S
C355 O351 1.260 1_455 S
C355 O352 1.258 . S
Zn356 O362 1.969 . S
Zn356 O363 1.965 . S
Zn356 O367 2.024 . S
Zn356 O372 1.969 . S
Zn357 O364 1.969 . S
Zn357 O370 1.969 . S
Zn357 O371 1.965 . S
Zn357 O373 2.024 . S
C358 O359 1.229 . S
C358 O367 1.058 . S
O359 C358 1.229 . S
C360 O361 1.229 . S
C360 O373 1.058 . S
O361 C360 1.229 . S
O362 Zn356 1.969 . S
O362 C365 1.267 . S
O363 Zn356 1.965 . S
O363 C374 1.260 . S
O364 Zn357 1.969 . S
O364 C374 1.258 . S
C365 O362 1.267 . S
C365 O366 1.228 . S
O366 C365 1.228 . S
O367 Zn356 2.024 . S
O367 C358 1.058 . S
C368 O369 1.228 . S
C368 O370 1.267 . S
O369 C368 1.228 . S
O370 Zn357 1.969 . S
O370 C368 1.267 . S
O371 Zn357 1.965 . S
O371 C375 1.260 . S
O372 Zn356 1.969 . S
O372 C375 1.258 . S
O373 Zn357 2.024 . S
O373 C360 1.058 . S
C374 O363 1.260 . S
C374 O364 1.258 . S
C375 O371 1.260 . S
C375 O372 1.258 . S
Zn376 O382 1.969 . S
Zn376 O383 1.965 . S
Zn376 O387 2.024 . S
Zn376 O392 1.969 . S
Zn377 O384 1.969 . S
Zn377 O390 1.969 . S
Zn377 O391 1.965 1_565 S
Zn377 O393 2.024 . S
C378 O379 1.229 . S
C378 O387 1.058 . S
O379 C378 1.229 . S
C380 O381 1.229 . S
C380 O393 1.058 . S
O381 C380 1.229 . S
O382 Zn376 1.969 . S
O382 C385 1.267 . S
O383 Zn376 1.965 . S
O383 C394 1.260 . S
O384 Zn377 1.969 . S
O384 C394 1.258 1_565 S
C385 O382 1.267 . S
C385 O386 1.228 . S
O386 C385 1.228 . S
O387 Zn376 2.024 . S
O387 C378 1.058 . S
C388 O389 1.228 . S
C388 O390 1.267 . S
O389 C388 1.228 . S
O390 Zn377 1.969 . S
O390 C388 1.267 . S
O391 Zn377 1.965 1_545 S
O391 C395 1.260 . S
O392 Zn376 1.969 . S
O392 C395 1.258 . S
O393 Zn377 2.024 . S
O393 C380 1.058 . S
C394 O383 1.260 . S
C394 O384 1.258 1_545 S
C395 O391 1.260 . S
C395 O392 1.258 . S
Zn396 O402 1.969 . S
Zn396 O403 1.965 . S
Zn396 O407 2.024 . S
Zn396 O412 1.969 . S
Zn397 O404 1.969 . S
Zn397 O410 1.969 . S
Zn397 O411 1.965 . S
Zn397 O413 2.024 . S
C398 O399 1.229 . S
C398 O407 1.058 . S
O399 C398 1.229 . S
C400 O401 1.229 . S
C400 O413 1.058 . S
O401 C400 1.229 . S
O402 Zn396 1.969 . S
O402 C405 1.267 . S
O403 Zn396 1.965 . S
O403 C414 1.260 . S
O404 Zn397 1.969 . S
O404 C414 1.258 . S
C405 O402 1.267 . S
C405 O406 1.228 . S
O406 C405 1.228 . S
O407 Zn396 2.024 . S
O407 C398 1.058 . S
C408 O409 1.228 . S
C408 O410 1.267 . S
O409 C408 1.228 . S
O410 Zn397 1.969 . S
O410 C408 1.267 . S
O411 Zn397 1.965 . S
O411 C415 1.260 . S
O412 Zn396 1.969 . S
O412 C415 1.258 . S
O413 Zn397 2.024 . S
O413 C400 1.058 . S
C414 O403 1.260 . S
C414 O404 1.258 . S
C415 O411 1.260 . S
C415 O412 1.258 . S
Zn416 O422 1.969 . S
Zn416 O423 1.949 1_455 S
Zn416 O427 2.024 1_565 S
Zn416 O432 1.969 1_565 S
Zn417 O424 1.969 1_455 S
Zn417 O430 1.969 1_455 S
Zn417 O431 1.965 . S
Zn417 O433 2.024 . S
C418 O419 1.229 1_545 S
C418 O427 1.058 . S
O419 C418 1.229 1_565 S
C420 O421 1.229 . S
C420 O433 1.058 1_655 S
O421 C420 1.229 . S
O422 Zn416 1.969 . S
O422 C425 1.267 . S
O423 Zn416 1.949 1_655 S
O423 C434 1.277 . S
O424 Zn417 1.969 1_655 S
O424 C434 1.258 1_545 S
C425 O422 1.267 . S
C425 O426 1.228 . S
O426 C425 1.228 . S
O427 Zn416 2.024 1_545 S
O427 C418 1.058 . S
C428 O429 1.228 . S
C428 O430 1.267 1_455 S
O429 C428 1.228 . S
O430 Zn417 1.969 1_655 S
O430 C428 1.267 1_655 S
O431 Zn417 1.965 . S
O431 C435 1.260 . S
O432 Zn416 1.969 1_545 S
O432 C435 1.258 . S
O433 Zn417 2.024 . S
O433 C420 1.058 1_455 S
C434 O423 1.277 . S
C434 O424 1.258 1_565 S
C435 O431 1.260 . S
C435 O432 1.258 . S
Zn436 O442 1.969 . S
Zn436 O443 1.965 . S
Zn436 O447 2.024 . S
Zn436 O452 1.969 . S
Zn437 O444 1.969 . S
Zn437 O450 1.969 . S
Zn437 O451 1.965 . S
Zn437 O453 2.024 . S
C438 O439 1.229 . S
C438 O447 1.058 . S
O439 C438 1.229 . S
C440 O441 1.229 . S
C440 O453 1.058 . S
O441 C440 1.229 . S
O442 Zn436 1.969 . S
O442 C445 1.267 . S
O443 Zn436 1.965 . S
O443 C454 1.260 . S
O444 Zn437 1.969 . S
O444 C454 1.258 . S
C445 O442 1.267 . S
C445 O446 1.228 . S
O446 C445 1.228 . S
O447 Zn436 2.024 . S
O447 C438 1.058 . S
C448 O449 1.228 . S
C448 O450 1.267 . S
O449 C448 1.228 . S
O450 Zn437 1.969 . S
O450 C448 1.267 . S
O451 Zn437 1.965 . S
O451 C455 1.260 . S
O452 Zn436 1.969 . S
O452 C455 1.258 . S
O453 Zn437 2.024 . S
O453 C440 1.058 . S
C454 O443 1.260 . S
C454 O444 1.258 . S
C455 O451 1.260 . S
C455 O452 1.258 . S
Zn456 O462 2.008 . S
Zn456 O463 1.963 1_545 S
Zn456 O467 2.004 1_556 S
Zn456 O472 1.951 1_556 S
Zn457 O464 2.001 . S
Zn457 O470 1.985 . S
Zn457 O471 1.933 1_565 S
Zn457 O473 2.013 1_565 S
C458 O459 1.229 . S
C458 O467 1.058 . S
O459 C458 1.229 . S
C460 O461 1.229 . S
C460 O473 1.058 1_565 S
O461 C460 1.229 . S
O462 Zn456 2.008 . S
O462 C465 1.267 . S
O463 Zn456 1.963 1_565 S
O463 C474 1.241 1_556 S
O464 Zn457 2.001 . S
O464 C474 1.258 . S
C465 O462 1.267 . S
C465 O466 1.228 . S
O466 C465 1.228 . S
O467 Zn456 2.004 1_554 S
O467 C458 1.058 . S
C468 O469 1.228 . S
C468 O470 1.267 1_545 S
O469 C468 1.228 . S
O470 Zn457 1.985 . S
O470 C468 1.267 1_565 S
O471 Zn457 1.933 1_545 S
O471 C475 1.260 . S
O472 Zn456 1.951 1_554 S
O472 C475 1.258 . S
O473 Zn457 2.013 1_545 S
O473 C460 1.058 1_545 S
C474 O463 1.241 1_554 S
C474 O464 1.258 . S
C475 O471 1.260 . S
C475 O472 1.258 . S
Zn476 O482 1.969 . S
Zn476 O483 1.965 . S
Zn476 O487 2.024 . S
Zn476 O492 1.969 . S
Zn477 O484 1.969 . S
Zn477 O490 1.969 . S
Zn477 O491 1.965 . S
Zn477 O493 2.024 . S
C478 O479 1.229 . S
C478 O487 1.058 . S
O479 C478 1.229 . S
C480 O481 1.229 . S
C480 O493 1.058 . S
O481 C480 1.229 . S
O482 Zn476 1.969 . S
O482 C485 1.267 . S
O483 Zn476 1.965 . S
O483 C494 1.260 . S
O484 Zn477 1.969 . S
O484 C494 1.258 . S
C485 O482 1.267 . S
C485 O486 1.228 . S
O486 C485 1.228 . S
O487 Zn476 2.024 . S
O487 C478 1.058 . S
C488 O489 1.228 . S
C488 O490 1.267 . S
O489 C488 1.228 . S
O490 Zn477 1.969 . S
O490 C488 1.267 . S
O491 Zn477 1.965 . S
O491 C495 1.260 . S
O492 Zn476 1.969 . S
O492 C495 1.258 . S
O493 Zn477 2.024 . S
O493 C480 1.058 . S
C494 O483 1.260 . S
C494 O484 1.258 . S
C495 O491 1.260 . S
C495 O492 1.258 . S
Zn496 O502 1.969 . S
Zn496 O503 1.965 . S
Zn496 O507 2.024 . S
Zn496 O512 1.969 . S
Zn497 O504 1.969 1_556 S
Zn497 O510 1.969 1_556 S
Zn497 O511 1.965 1_556 S
Zn497 O513 2.024 . S
C498 O499 1.229 . S
C498 O507 1.058 . S
O499 C498 1.229 . S
C500 O501 1.229 . S
C500 O513 1.058 . S
O501 C500 1.229 . S
O502 Zn496 1.969 . S
O502 C505 1.267 . S
O503 Zn496 1.965 . S
O503 C514 1.260 . S
O504 Zn497 1.969 1_554 S
O504 C514 1.258 . S
C505 O502 1.267 . S
C505 O506 1.228 . S
O506 C505 1.228 . S
O507 Zn496 2.024 . S
O507 C498 1.058 . S
C508 O509 1.228 . S
C508 O510 1.267 1_556 S
O509 C508 1.228 . S
O510 Zn497 1.969 1_554 S
O510 C508 1.267 1_554 S
O511 Zn497 1.965 1_554 S
O511 C515 1.260 . S
O512 Zn496 1.969 . S
O512 C515 1.258 . S
O513 Zn497 2.024 . S
O513 C500 1.058 . S
C514 O503 1.260 . S
C514 O504 1.258 . S
C515 O511 1.260 . S
C515 O512 1.258 . S
Zn516 O522 1.969 . S
Zn516 O523 1.965 . S
Zn516 O527 2.024 . S
Zn516 O532 1.969 . S
Zn517 O524 1.969 . S
Zn517 O530 1.969 . S
Zn517 O531 1.965 . S
Zn517 O533 2.024 . S
C518 O519 1.229 . S
C518 O527 1.058 . S
O519 C518 1.229 . S
C520 O521 1.229 . S
C520 O533 1.058 . S
O521 C520 1.229 . S
O522 Zn516 1.969 . S
O522 C525 1.267 . S
O523 Zn516 1.965 . S
O523 C534 1.260 . S
O524 Zn517 1.969 . S
O524 C534 1.258 . S
C525 O522 1.267 . S
C525 O526 1.228 . S
O526 C525 1.228 . S
O527 Zn516 2.024 . S
O527 C518 1.058 . S
C528 O529 1.228 . S
C528 O530 1.267 . S
O529 C528 1.228 . S
O530 Zn517 1.969 . S
O530 C528 1.267 . S
O531 Zn517 1.965 . S
O531 C535 1.260 . S
O532 Zn516 1.969 . S
O532 C535 1.258 . S
O533 Zn517 2.024 . S
O533 C520 1.058 . S
C534 O523 1.260 . S
C534 O524 1.258 . S
C535 O531 1.260 . S
C535 O532 1.258 . S
Zn536 O542 1.969 . S
Zn536 O543 1.965 . S
Zn536 O547 2.024 . S
Zn536 O552 1.969 . S
Zn537 O544 1.969 1_655 S
Zn537 O550 1.969 . S
Zn537 O551 1.965 1_655 S
Zn537 O553 2.024 . S
C538 O539 1.229 . S
C538 O547 1.058 . S
O539 C538 1.229 . S
C540 O541 1.229 . S
C540 O553 1.058 . S
O541 C540 1.229 . S
O542 Zn536 1.969 . S
O542 C545 1.267 . S
O543 Zn536 1.965 . S
O543 C554 1.260 . S
O544 Zn537 1.969 1_455 S
O544 C554 1.258 . S
C545 O542 1.267 . S
C545 O546 1.228 . S
O546 C545 1.228 . S
O547 Zn536 2.024 . S
O547 C538 1.058 . S
C548 O549 1.228 . S
C548 O550 1.267 . S
O549 C548 1.228 . S
O550 Zn537 1.969 . S
O550 C548 1.267 . S
O551 Zn537 1.965 1_455 S
O551 C555 1.260 . S
O552 Zn536 1.969 . S
O552 C555 1.258 . S
O553 Zn537 2.024 . S
O553 C540 1.058 . S
C554 O543 1.260 . S
C554 O544 1.258 . S
C555 O551 1.260 . S
C555 O552 1.258 . S
Zn556 O562 1.969 . S
Zn556 O563 1.965 . S
Zn556 O567 2.024 . S
Zn556 O572 1.969 . S
Zn557 O564 1.969 . S
Zn557 O570 1.969 . S
Zn557 O571 1.965 . S
Zn557 O573 2.024 . S
C558 O559 1.229 . S
C558 O567 1.058 . S
O559 C558 1.229 . S
C560 O561 1.229 . S
C560 O573 1.058 . S
O561 C560 1.229 . S
O562 Zn556 1.969 . S
O562 C565 1.267 . S
O563 Zn556 1.965 . S
O563 C574 1.260 . S
O564 Zn557 1.969 . S
O564 C574 1.258 . S
C565 O562 1.267 . S
C565 O566 1.228 . S
O566 C565 1.228 . S
O567 Zn556 2.024 . S
O567 C558 1.058 . S
C568 O569 1.228 . S
C568 O570 1.267 . S
O569 C568 1.228 . S
O570 Zn557 1.969 . S
O570 C568 1.267 . S
O571 Zn557 1.965 . S
O571 C575 1.260 . S
O572 Zn556 1.969 . S
O572 C575 1.258 . S
O573 Zn557 2.024 . S
O573 C560 1.058 . S
C574 O563 1.260 . S
C574 O564 1.258 . S
C575 O571 1.260 . S
C575 O572 1.258 . S
Zn576 O582 1.969 . S
Zn576 O583 1.965 . S
Zn576 O587 2.024 . S
Zn576 O592 1.969 . S
Zn577 O584 1.969 . S
Zn577 O590 1.969 . S
Zn577 O591 1.965 . S
Zn577 O593 2.024 . S
C578 O579 1.229 . S
C578 O587 1.058 . S
O579 C578 1.229 . S
C580 O581 1.229 . S
C580 O593 1.058 . S
O581 C580 1.229 . S
O582 Zn576 1.969 . S
O582 C585 1.267 . S
O583 Zn576 1.965 . S
O583 C594 1.260 . S
O584 Zn577 1.969 . S
O584 C594 1.258 . S
C585 O582 1.267 . S
C585 O586 1.228 . S
O586 C585 1.228 . S
O587 Zn576 2.024 . S
O587 C578 1.058 . S
C588 O589 1.228 . S
C588 O590 1.267 . S
O589 C588 1.228 . S
O590 Zn577 1.969 . S
O590 C588 1.267 . S
O591 Zn577 1.965 . S
O591 C595 1.260 . S
O592 Zn576 1.969 . S
O592 C595 1.258 . S
O593 Zn577 2.024 . S
O593 C580 1.058 . S
C594 O583 1.260 . S
C594 O584 1.258 . S
C595 O591 1.260 . S
C595 O592 1.258 . S
Zn596 O602 1.969 . S
Zn596 O603 1.965 . S
Zn596 O607 2.024 . S
Zn596 O612 1.969 . S
Zn597 O604 1.969 . S
Zn597 O610 1.969 . S
Zn597 O611 1.965 . S
Zn597 O613 2.024 . S
C598 O599 1.229 . S
C598 O607 1.058 . S
O599 C598 1.229 . S
C600 O601 1.229 . S
C600 O613 1.058 . S
O601 C600 1.229 . S
O602 Zn596 1.969 . S
O602 C605 1.267 . S
O603 Zn596 1.965 . S
O603 C614 1.260 . S
O604 Zn597 1.969 . S
O604 C614 1.258 . S
C605 O602 1.267 . S
C605 O606 1.228 . S
O606 C605 1.228 . S
O607 Zn596 2.024 . S
O607 C598 1.058 . S
C608 O609 1.228 . S
C608 O610 1.267 . S
O609 C608 1.228 . S
O610 Zn597 1.969 . S
O610 C608 1.267 . S
O611 Zn597 1.965 . S
O611 C615 1.260 . S
O612 Zn596 1.969 . S
O612 C615 1.258 . S
O613 Zn597 2.024 . S
O613 C600 1.058 . S
C614 O603 1.260 . S
C614 O604 1.258 . S
C615 O611 1.260 . S
C615 O612 1.258 . S
Zn616 O622 1.969 . S
Zn616 O623 1.965 . S
Zn616 O627 2.024 . S
Zn616 O632 1.969 . S
Zn617 O624 1.969 . S
Zn617 O630 1.969 . S
Zn617 O631 1.965 . S
Zn617 O633 2.024 . S
C618 O619 1.229 . S
C618 O627 1.058 . S
O619 C618 1.229 . S
C620 O621 1.229 . S
C620 O633 1.058 . S
O621 C620 1.229 . S
O622 Zn616 1.969 . S
O622 C625 1.267 . S
O623 Zn616 1.965 . S
O623 C634 1.260 . S
O624 Zn617 1.969 . S
O624 C634 1.258 . S
C625 O622 1.267 . S
C625 O626 1.228 . S
O626 C625 1.228 . S
O627 Zn616 2.024 . S
O627 C618 1.058 . S
C628 O629 1.228 . S
C628 O630 1.267 . S
O629 C628 1.228 . S
O630 Zn617 1.969 . S
O630 C628 1.267 . S
O631 Zn617 1.965 . S
O631 C635 1.260 . S
O632 Zn616 1.969 . S
O632 C635 1.258 . S
O633 Zn617 2.024 . S
O633 C620 1.058 . S
C634 O623 1.260 . S
C634 O624 1.258 . S
C635 O631 1.260 . S
C635 O632 1.258 . S
Zn636 O642 1.969 . S
Zn636 O643 1.965 . S
Zn636 O647 2.024 1_655 S
Zn636 O652 1.969 1_655 S
Zn637 O644 1.969 1_554 S
Zn637 O650 1.969 . S
Zn637 O651 1.965 . S
Zn637 O653 2.024 . S
C638 O639 1.262 . S
C638 O647 1.058 . S
O639 C638 1.262 . S
C640 O641 1.201 1_554 S
C640 O653 1.085 . S
O641 C640 1.201 1_556 S
O642 Zn636 1.969 . S
O642 C645 1.267 . S
O643 Zn636 1.965 . S
O643 C654 1.260 1_654 S
O644 Zn637 1.969 1_556 S
O644 C654 1.258 . S
C645 O642 1.267 . S
C645 O646 1.228 . S
O646 C645 1.228 . S
O647 Zn636 2.024 1_455 S
O647 C638 1.058 . S
C648 O649 1.228 . S
C648 O650 1.267 . S
O649 C648 1.228 . S
O650 Zn637 1.969 . S
O650 C648 1.267 . S
O651 Zn637 1.965 . S
O651 C655 1.260 . S
O652 Zn636 1.969 1_455 S
O652 C655 1.258 . S
O653 Zn637 2.024 . S
O653 C640 1.085 . S
C654 O643 1.260 1_456 S
C654 O644 1.258 . S
C655 O651 1.260 . S
C655 O652 1.258 . S
C656 C657 1.391 . S
C656 C658 1.394 . S
C656 H672 0.931 . S
C657 C656 1.391 . S
C657 C661 1.376 1_655 S
C658 C656 1.394 . S
C658 C659 1.369 1_655 S
C658 C662 1.531 . S
C659 C658 1.369 1_455 S
C659 C660 1.410 . S
C659 C667 1.503 . S
C660 C659 1.410 . S
C660 C661 1.392 . S
C660 C663 1.511 . S
C661 C657 1.376 1_455 S
C661 C660 1.392 . S
C661 H673 0.929 . S
C662 C658 1.531 . S
C662 H674 0.960 . S
C662 H675 0.962 . S
C662 H676 0.960 . S
C663 C660 1.511 . S
C663 H677 0.961 . S
C663 H678 0.961 . S
C663 H679 0.961 . S
C664 C665 1.370 . S
C664 C666 1.363 1_554 S
C664 H680 0.931 . S
C665 C664 1.370 . S
C665 C669 1.408 1_554 S
C666 C664 1.363 1_556 S
C666 C667 1.370 . S
C666 C670 1.524 1_556 S
C667 C659 1.503 . S
C667 C666 1.370 . S
C667 C668 1.403 . S
C668 C667 1.403 . S
C668 C669 1.404 . S
C668 C671 1.539 1_455 S
C669 C665 1.408 1_556 S
C669 C668 1.404 . S
C669 H681 0.935 . S
C670 C666 1.524 1_554 S
C670 H682 0.956 . S
C670 H683 0.961 1_554 S
C670 H684 0.961 . S
C671 C668 1.539 1_655 S
C671 H685 0.958 . S
C671 H686 0.961 . S
C671 H687 0.960 . S
H672 C656 0.931 . S
H673 C661 0.929 . S
H674 C662 0.960 . S
H675 C662 0.962 . S
H676 C662 0.960 . S
H677 C663 0.961 . S
H678 C663 0.961 . S
H679 C663 0.961 . S
H680 C664 0.931 . S
H681 C669 0.935 . S
H682 C670 0.956 . S
H683 C670 0.961 1_556 S
H684 C670 0.961 . S
H685 C671 0.958 . S
H686 C671 0.961 . S
H687 C671 0.960 . S
C688 C689 1.391 . S
C688 C690 1.394 . S
C688 H704 0.931 . S
C689 C688 1.391 . S
C689 C693 1.376 . S
C690 C688 1.394 . S
C690 C691 1.369 . S
C690 C694 1.531 . S
C691 C690 1.369 . S
C691 C692 1.410 . S
C691 C699 1.503 . S
C692 C691 1.410 . S
C692 C693 1.392 . S
C692 C695 1.511 . S
C693 C689 1.376 . S
C693 C692 1.392 . S
C693 H705 0.929 . S
C694 C690 1.531 . S
C694 H706 0.960 . S
C694 H707 0.962 . S
C694 H708 0.960 . S
C695 C692 1.511 . S
C695 H709 0.961 . S
C695 H710 0.961 . S
C695 H711 0.961 . S
C696 C697 1.370 . S
C696 C698 1.363 . S
C696 H712 0.931 . S
C697 C696 1.370 . S
C697 C701 1.408 . S
C698 C696 1.363 . S
C698 C699 1.370 . S
C698 C702 1.524 . S
C699 C691 1.503 . S
C699 C698 1.370 . S
C699 C700 1.403 . S
C700 C699 1.403 . S
C700 C701 1.404 . S
C700 C703 1.539 . S
C701 C697 1.408 . S
C701 C700 1.404 . S
C701 H713 0.930 . S
C702 C698 1.524 . S
C702 H714 0.956 . S
C702 H715 0.961 . S
C702 H716 0.961 . S
C703 C700 1.539 . S
C703 H717 0.958 . S
C703 H718 0.961 . S
C703 H719 0.960 . S
H704 C688 0.931 . S
H705 C693 0.929 . S
H706 C694 0.960 . S
H707 C694 0.962 . S
H708 C694 0.960 . S
H709 C695 0.961 . S
H710 C695 0.961 . S
H711 C695 0.961 . S
H712 C696 0.931 . S
H713 C701 0.930 . S
H714 C702 0.956 . S
H715 C702 0.961 . S
H716 C702 0.961 . S
H717 C703 0.958 . S
H718 C703 0.961 . S
H719 C703 0.960 . S
C720 C721 1.391 . S
C720 C722 1.394 . S
C720 H736 0.931 . S
C721 C720 1.391 . S
C721 C725 1.376 . S
C722 C720 1.394 . S
C722 C723 1.369 . S
C722 C726 1.531 . S
C723 C722 1.369 . S
C723 C724 1.410 . S
C723 C731 1.503 . S
C724 C723 1.410 . S
C724 C725 1.392 . S
C724 C727 1.511 . S
C725 C721 1.376 . S
C725 C724 1.392 . S
C725 H737 0.929 . S
C726 C722 1.531 . S
C726 H738 0.960 . S
C726 H739 0.962 . S
C726 H740 0.960 . S
C727 C724 1.511 . S
C727 H741 0.961 . S
C727 H742 0.961 . S
C727 H743 0.961 . S
C728 C729 1.370 . S
C728 C730 1.363 . S
C728 H744 0.931 . S
C729 C728 1.370 . S
C729 C733 1.408 . S
C730 C728 1.363 . S
C730 C731 1.370 . S
C730 C734 1.524 . S
C731 C723 1.503 . S
C731 C730 1.370 . S
C731 C732 1.403 . S
C732 C731 1.403 . S
C732 C733 1.404 . S
C732 C735 1.539 . S
C733 C729 1.408 . S
C733 C732 1.404 . S
C733 H745 0.930 . S
C734 C730 1.524 . S
C734 H746 0.956 . S
C734 H747 0.961 . S
C734 H748 0.961 . S
C735 C732 1.539 . S
C735 H749 0.958 . S
C735 H750 0.961 . S
C735 H751 0.960 . S
H736 C720 0.931 . S
H737 C725 0.929 . S
H738 C726 0.960 . S
H739 C726 0.962 . S
H740 C726 0.960 . S
H741 C727 0.961 . S
H742 C727 0.961 . S
H743 C727 0.961 . S
H744 C728 0.931 . S
H745 C733 0.930 . S
H746 C734 0.956 . S
H747 C734 0.961 . S
H748 C734 0.961 . S
H749 C735 0.958 . S
H750 C735 0.961 . S
H751 C735 0.960 . S
C752 C753 1.391 . S
C752 C754 1.394 . S
C752 H768 0.931 . S
C753 C752 1.391 . S
C753 C757 1.376 . S
C754 C752 1.394 . S
C754 C755 1.369 . S
C754 C758 1.531 . S
C755 C754 1.369 . S
C755 C756 1.410 . S
C755 C763 1.503 . S
C756 C755 1.410 . S
C756 C757 1.392 . S
C756 C759 1.511 . S
C757 C753 1.376 . S
C757 C756 1.392 . S
C757 H769 0.929 . S
C758 C754 1.531 . S
C758 H770 0.960 . S
C758 H771 0.962 . S
C758 H772 0.960 . S
C759 C756 1.511 . S
C759 H773 0.961 . S
C759 H774 0.961 . S
C759 H775 0.961 . S
C760 C761 1.370 . S
C760 C762 1.363 . S
C760 H776 0.931 . S
C761 C760 1.370 . S
C761 C765 1.408 . S
C762 C760 1.363 . S
C762 C763 1.370 . S
C762 C766 1.524 . S
C763 C755 1.503 . S
C763 C762 1.370 . S
C763 C764 1.403 . S
C764 C763 1.403 . S
C764 C765 1.404 . S
C764 C767 1.539 . S
C765 C761 1.408 . S
C765 C764 1.404 . S
C765 H777 0.930 . S
C766 C762 1.524 . S
C766 H778 0.956 . S
C766 H779 0.961 . S
C766 H780 0.961 . S
C767 C764 1.539 . S
C767 H781 0.958 . S
C767 H782 0.961 . S
C767 H783 0.960 . S
H768 C752 0.931 . S
H769 C757 0.929 . S
H770 C758 0.960 . S
H771 C758 0.962 . S
H772 C758 0.960 . S
H773 C759 0.961 . S
H774 C759 0.961 . S
H775 C759 0.961 . S
H776 C760 0.931 . S
H777 C765 0.930 . S
H778 C766 0.956 . S
H779 C766 0.961 . S
H780 C766 0.961 . S
H781 C767 0.958 . S
H782 C767 0.961 . S
H783 C767 0.960 . S
C784 C785 1.413 . S
C784 C786 1.395 . S
C784 H800 0.908 1_455 S
C785 C784 1.413 . S
C785 C789 1.376 . S
C786 C784 1.395 . S
C786 C787 1.369 . S
C786 C790 1.531 1_455 S
C787 C786 1.369 . S
C787 C788 1.410 . S
C787 C795 1.503 . S
C788 C787 1.410 . S
C788 C789 1.392 . S
C788 C791 1.511 . S
C789 C785 1.376 . S
C789 C788 1.392 . S
C789 H801 0.929 . S
C790 C786 1.531 1_655 S
C790 H802 0.960 . S
C790 H803 0.962 . S
C790 H804 0.960 . S
C791 C788 1.511 . S
C791 H805 0.961 . S
C791 H806 0.961 . S
C791 H807 0.961 . S
C792 C793 1.370 . S
C792 C794 1.363 . S
C792 H808 0.931 . S
C793 C792 1.370 . S
C793 C797 1.408 . S
C794 C792 1.363 . S
C794 C795 1.370 . S
C794 C798 1.524 1_455 S
C795 C787 1.503 . S
C795 C794 1.370 . S
C795 C796 1.403 . S
C796 C795 1.403 . S
C796 C797 1.404 . S
C796 C799 1.539 . S
C797 C793 1.408 . S
C797 C796 1.404 . S
C797 H809 0.930 . S
C798 C794 1.524 1_655 S
C798 H810 0.956 . S
C798 H811 0.961 1_655 S
C798 H812 0.961 . S
C799 C796 1.539 . S
C799 H813 0.958 . S
C799 H814 0.961 . S
C799 H815 0.960 . S
H800 C784 0.908 1_655 S
H801 C789 0.929 . S
H802 C790 0.960 . S
H803 C790 0.962 . S
H804 C790 0.960 . S
H805 C791 0.961 . S
H806 C791 0.961 . S
H807 C791 0.961 . S
H808 C792 0.931 . S
H809 C797 0.930 . S
H810 C798 0.956 . S
H811 C798 0.961 1_455 S
H812 C798 0.961 . S
H813 C799 0.958 . S
H814 C799 0.961 . S
H815 C799 0.960 . S
C816 C817 1.391 . S
C816 C818 1.394 . S
C816 H832 0.931 . S
C817 C816 1.391 . S
C817 C821 1.376 . S
C818 C816 1.394 . S
C818 C819 1.369 . S
C818 C822 1.531 . S
C819 C818 1.369 . S
C819 C820 1.410 . S
C819 C827 1.503 . S
C820 C819 1.410 . S
C820 C821 1.392 . S
C820 C823 1.511 . S
C821 C817 1.376 . S
C821 C820 1.392 . S
C821 H833 0.929 . S
C822 C818 1.531 . S
C822 H834 0.960 . S
C822 H835 0.962 . S
C822 H836 0.960 . S
C823 C820 1.511 . S
C823 H837 0.961 . S
C823 H838 0.961 . S
C823 H839 0.961 . S
C824 C825 1.370 . S
C824 C826 1.363 . S
C824 H840 0.931 . S
C825 C824 1.370 . S
C825 C829 1.408 . S
C826 C824 1.363 . S
C826 C827 1.370 . S
C826 C830 1.524 . S
C827 C819 1.503 . S
C827 C826 1.370 . S
C827 C828 1.403 . S
C828 C827 1.403 . S
C828 C829 1.404 . S
C828 C831 1.539 . S
C829 C825 1.408 . S
C829 C828 1.404 . S
C829 H841 0.930 . S
C830 C826 1.524 . S
C830 H842 0.956 . S
C830 H843 0.961 . S
C830 H844 0.961 . S
C831 C828 1.539 . S
C831 H845 0.958 . S
C831 H846 0.961 . S
C831 H847 0.960 . S
H832 C816 0.931 . S
H833 C821 0.929 . S
H834 C822 0.960 . S
H835 C822 0.962 . S
H836 C822 0.960 . S
H837 C823 0.961 . S
H838 C823 0.961 . S
H839 C823 0.961 . S
H840 C824 0.931 . S
H841 C829 0.930 . S
H842 C830 0.956 . S
H843 C830 0.961 . S
H844 C830 0.961 . S
H845 C831 0.958 . S
H846 C831 0.961 . S
H847 C831 0.960 . S
C848 C849 1.391 . S
C848 C850 1.394 . S
C848 H864 0.931 . S
C849 C848 1.391 . S
C849 C853 1.376 . S
C850 C848 1.394 . S
C850 C851 1.369 . S
C850 C854 1.531 . S
C851 C850 1.369 . S
C851 C852 1.410 . S
C851 C859 1.503 . S
C852 C851 1.410 . S
C852 C853 1.392 . S
C852 C855 1.511 . S
C853 C849 1.376 . S
C853 C852 1.392 . S
C853 H865 0.929 . S
C854 C850 1.531 . S
C854 H866 0.960 . S
C854 H867 0.962 . S
C854 H868 0.960 . S
C855 C852 1.511 . S
C855 H869 0.961 . S
C855 H870 0.961 . S
C855 H871 0.961 . S
C856 C857 1.370 . S
C856 C858 1.363 . S
C856 H872 0.931 . S
C857 C856 1.370 . S
C857 C861 1.408 . S
C858 C856 1.363 . S
C858 C859 1.370 . S
C858 C862 1.524 . S
C859 C851 1.503 . S
C859 C858 1.370 . S
C859 C860 1.403 . S
C860 C859 1.403 . S
C860 C861 1.404 . S
C860 C863 1.539 . S
C861 C857 1.408 . S
C861 C860 1.404 . S
C861 H873 0.930 . S
C862 C858 1.524 . S
C862 H874 0.956 . S
C862 H875 0.961 . S
C862 H876 0.961 . S
C863 C860 1.539 . S
C863 H877 0.958 . S
C863 H878 0.961 . S
C863 H879 0.960 . S
H864 C848 0.931 . S
H865 C853 0.929 . S
H866 C854 0.960 . S
H867 C854 0.962 . S
H868 C854 0.960 . S
H869 C855 0.961 . S
H870 C855 0.961 . S
H871 C855 0.961 . S
H872 C856 0.931 . S
H873 C861 0.930 . S
H874 C862 0.956 . S
H875 C862 0.961 . S
H876 C862 0.961 . S
H877 C863 0.958 . S
H878 C863 0.961 . S
H879 C863 0.960 . S
C880 C881 1.391 . S
C880 C882 1.394 . S
C880 H896 0.931 . S
C881 C880 1.391 . S
C881 C885 1.376 . S
C882 C880 1.394 . S
C882 C883 1.369 . S
C882 C886 1.531 . S
C883 C882 1.369 . S
C883 C884 1.410 . S
C883 C891 1.503 . S
C884 C883 1.410 . S
C884 C885 1.392 . S
C884 C887 1.511 . S
C885 C881 1.376 . S
C885 C884 1.392 . S
C885 H897 0.929 . S
C886 C882 1.531 . S
C886 H898 0.960 . S
C886 H899 0.962 . S
C886 H900 0.960 . S
C887 C884 1.511 . S
C887 H901 0.961 . S
C887 H902 0.961 . S
C887 H903 0.961 . S
C888 C889 1.370 . S
C888 C890 1.363 . S
C888 H904 0.931 . S
C889 C888 1.370 . S
C889 C893 1.408 . S
C890 C888 1.363 . S
C890 C891 1.370 . S
C890 C894 1.524 . S
C891 C883 1.503 . S
C891 C890 1.370 . S
C891 C892 1.403 . S
C892 C891 1.403 . S
C892 C893 1.404 . S
C892 C895 1.539 . S
C893 C889 1.408 . S
C893 C892 1.404 . S
C893 H905 0.930 . S
C894 C890 1.524 . S
C894 H906 0.956 . S
C894 H907 0.961 . S
C894 H908 0.961 . S
C895 C892 1.539 . S
C895 H909 0.958 . S
C895 H910 0.961 . S
C895 H911 0.960 . S
H896 C880 0.931 . S
H897 C885 0.929 . S
H898 C886 0.960 . S
H899 C886 0.962 . S
H900 C886 0.960 . S
H901 C887 0.961 . S
H902 C887 0.961 . S
H903 C887 0.961 . S
H904 C888 0.931 . S
H905 C893 0.930 . S
H906 C894 0.956 . S
H907 C894 0.961 . S
H908 C894 0.961 . S
H909 C895 0.958 . S
H910 C895 0.961 . S
H911 C895 0.960 . S
C912 C913 1.372 1_565 S
C912 C914 1.393 . S
C912 H928 0.951 . S
C913 C912 1.372 1_545 S
C913 C917 1.376 . S
C914 C912 1.393 . S
C914 C915 1.372 1_565 S
C914 C918 1.528 . S
C915 C914 1.372 1_545 S
C915 C916 1.410 . S
C915 C923 1.503 . S
C916 C915 1.410 . S
C916 C917 1.392 . S
C916 C919 1.511 . S
C917 C913 1.376 . S
C917 C916 1.392 . S
C917 H929 0.929 . S
C918 C914 1.528 . S
C918 H930 0.960 . S
C918 H931 0.962 1_565 S
C918 H932 0.960 . S
C919 C916 1.511 . S
C919 H933 0.961 . S
C919 H934 0.961 . S
C919 H935 0.961 . S
C920 C921 1.370 . S
C920 C922 1.363 . S
C920 H936 0.931 1_655 S
C921 C920 1.370 . S
C921 C925 1.408 1_545 S
C922 C920 1.363 . S
C922 C923 1.370 . S
C922 C926 1.524 . S
C923 C915 1.503 . S
C923 C922 1.370 . S
C923 C924 1.403 1_545 S
C924 C923 1.403 1_565 S
C924 C925 1.404 . S
C924 C927 1.539 . S
C925 C921 1.408 1_565 S
C925 C924 1.404 . S
C925 H937 0.930 . S
C926 C922 1.524 . S
C926 H938 0.956 . S
C926 H939 0.961 . S
C926 H940 0.961 . S
C927 C924 1.539 . S
C927 H941 0.958 . S
C927 H942 0.961 . S
C927 H943 0.960 . S
H928 C912 0.951 . S
H929 C917 0.929 . S
H930 C918 0.960 . S
H931 C918 0.962 1_545 S
H932 C918 0.960 . S
H933 C919 0.961 . S
H934 C919 0.961 . S
H935 C919 0.961 . S
H936 C920 0.931 1_455 S
H937 C925 0.930 . S
H938 C926 0.956 . S
H939 C926 0.961 . S
H940 C926 0.961 . S
H941 C927 0.958 . S
H942 C927 0.961 . S
H943 C927 0.960 . S
C944 C945 1.391 . S
C944 C946 1.394 . S
C944 H960 0.931 . S
C945 C944 1.391 . S
C945 C949 1.376 . S
C946 C944 1.394 . S
C946 C947 1.369 . S
C946 C950 1.531 . S
C947 C946 1.369 . S
C947 C948 1.410 . S
C947 C955 1.503 . S
C948 C947 1.410 . S
C948 C949 1.392 . S
C948 C951 1.511 . S
C949 C945 1.376 . S
C949 C948 1.392 . S
C949 H961 0.929 . S
C950 C946 1.531 . S
C950 H962 0.960 . S
C950 H963 0.962 . S
C950 H964 0.960 . S
C951 C948 1.511 . S
C951 H965 0.961 . S
C951 H966 0.961 . S
C951 H967 0.961 . S
C952 C953 1.370 . S
C952 C954 1.363 . S
C952 H968 0.931 . S
C953 C952 1.370 . S
C953 C957 1.408 . S
C954 C952 1.363 . S
C954 C955 1.370 . S
C954 C958 1.524 . S
C955 C947 1.503 . S
C955 C954 1.370 . S
C955 C956 1.403 . S
C956 C955 1.403 . S
C956 C957 1.404 . S
C956 C959 1.539 . S
C957 C953 1.408 . S
C957 C956 1.404 . S
C957 H969 0.930 . S
C958 C954 1.524 . S
C958 H970 0.956 . S
C958 H971 0.961 . S
C958 H972 0.961 . S
C959 C956 1.539 . S
C959 H973 0.958 . S
C959 H974 0.961 . S
C959 H975 0.960 . S
H960 C944 0.931 . S
H961 C949 0.929 . S
H962 C950 0.960 . S
H963 C950 0.962 . S
H964 C950 0.960 . S
H965 C951 0.961 . S
H966 C951 0.961 . S
H967 C951 0.961 . S
H968 C952 0.931 . S
H969 C957 0.930 . S
H970 C958 0.956 . S
H971 C958 0.961 . S
H972 C958 0.961 . S
H973 C959 0.958 . S
H974 C959 0.961 . S
H975 C959 0.960 . S
C976 C977 1.391 1_545 S
C976 C978 1.394 . S
C976 H992 0.931 . S
C977 C976 1.391 1_565 S
C977 C981 1.376 . S
C978 C976 1.394 . S
C978 C979 1.369 . S
C978 C982 1.531 . S
C979 C978 1.369 . S
C979 C980 1.410 1_545 S
C979 C987 1.503 . S
C980 C979 1.410 1_565 S
C980 C981 1.392 . S
C980 C983 1.511 . S
C981 C977 1.376 . S
C981 C980 1.392 . S
C981 H993 0.929 . S
C982 C978 1.531 . S
C982 H994 0.960 . S
C982 H995 0.962 . S
C982 H996 0.960 . S
C983 C980 1.511 . S
C983 H997 0.961 . S
C983 H998 0.961 . S
C983 H999 0.961 . S
C984 C985 1.370 1_565 S
C984 C986 1.363 . S
C984 H1000 0.931 . S
C985 C984 1.370 1_545 S
C985 C989 1.408 . S
C986 C984 1.363 . S
C986 C987 1.370 1_565 S
C986 C990 1.524 . S
C987 C979 1.503 . S
C987 C986 1.370 1_545 S
C987 C988 1.403 . S
C988 C987 1.403 . S
C988 C989 1.404 . S
C988 C991 1.539 . S
C989 C985 1.408 . S
C989 C988 1.404 . S
C989 H1001 0.930 . S
C990 C986 1.524 . S
C990 H1002 0.956 . S
C990 H1003 0.961 . S
C990 H1004 0.961 . S
C991 C988 1.539 . S
C991 H1005 0.958 . S
C991 H1006 0.961 . S
C991 H1007 0.960 . S
H992 C976 0.931 . S
H993 C981 0.929 . S
H994 C982 0.960 . S
H995 C982 0.962 . S
H996 C982 0.960 . S
H997 C983 0.961 . S
H998 C983 0.961 . S
H999 C983 0.961 . S
H1000 C984 0.931 . S
H1001 C989 0.930 . S
H1002 C990 0.956 . S
H1003 C990 0.961 . S
H1004 C990 0.961 . S
H1005 C991 0.958 . S
H1006 C991 0.961 . S
H1007 C991 0.960 . S
C1008 C1009 1.391 . S
C1008 C1010 1.394 . S
C1008 H1024 0.931 . S
C1009 C1008 1.391 . S
C1009 C1013 1.376 . S
C1010 C1008 1.394 . S
C1010 C1011 1.369 . S
C1010 C1014 1.531 . S
C1011 C1010 1.369 . S
C1011 C1012 1.410 . S
C1011 C1019 1.503 . S
C1012 C1011 1.410 . S
C1012 C1013 1.392 . S
C1012 C1015 1.511 . S
C1013 C1009 1.376 . S
C1013 C1012 1.392 . S
C1013 H1025 0.929 . S
C1014 C1010 1.531 . S
C1014 H1026 0.960 . S
C1014 H1027 0.962 . S
C1014 H1028 0.960 . S
C1015 C1012 1.511 . S
C1015 H1029 0.961 . S
C1015 H1030 0.961 . S
C1015 H1031 0.961 . S
C1016 C1017 1.370 . S
C1016 C1018 1.363 . S
C1016 H1032 0.931 . S
C1017 C1016 1.370 . S
C1017 C1021 1.408 . S
C1018 C1016 1.363 . S
C1018 C1019 1.370 . S
C1018 C1022 1.524 . S
C1019 C1011 1.503 . S
C1019 C1018 1.370 . S
C1019 C1020 1.403 . S
C1020 C1019 1.403 . S
C1020 C1021 1.404 . S
C1020 C1023 1.539 . S
C1021 C1017 1.408 . S
C1021 C1020 1.404 . S
C1021 H1033 0.930 . S
C1022 C1018 1.524 . S
C1022 H1034 0.956 . S
C1022 H1035 0.961 . S
C1022 H1036 0.961 . S
C1023 C1020 1.539 . S
C1023 H1037 0.958 . S
C1023 H1038 0.961 . S
C1023 H1039 0.960 . S
H1024 C1008 0.931 . S
H1025 C1013 0.929 . S
H1026 C1014 0.960 . S
H1027 C1014 0.962 . S
H1028 C1014 0.960 . S
H1029 C1015 0.961 . S
H1030 C1015 0.961 . S
H1031 C1015 0.961 . S
H1032 C1016 0.931 . S
H1033 C1021 0.930 . S
H1034 C1022 0.956 . S
H1035 C1022 0.961 . S
H1036 C1022 0.961 . S
H1037 C1023 0.958 . S
H1038 C1023 0.961 . S
H1039 C1023 0.960 . S
C1040 C1041 1.391 . S
C1040 C1042 1.394 . S
C1040 H1056 0.931 . S
C1041 C1040 1.391 . S
C1041 C1045 1.381 . S
C1042 C1040 1.394 . S
C1042 C1043 1.369 . S
C1042 C1046 1.531 . S
C1043 C1042 1.369 . S
C1043 C1044 1.413 . S
C1043 C1051 1.503 . S
C1044 C1043 1.413 . S
C1044 C1045 1.392 . S
C1044 C1047 1.506 1_545 S
C1045 C1041 1.381 . S
C1045 C1044 1.392 . S
C1045 H1057 0.925 1_545 S
C1046 C1042 1.531 . S
C1046 H1058 0.960 . S
C1046 H1059 0.962 . S
C1046 H1060 0.960 . S
C1047 C1044 1.506 1_565 S
C1047 H1061 0.961 . S
C1047 H1062 0.961 . S
C1047 H1063 0.961 . S
C1048 C1049 1.370 1_565 S
C1048 C1050 1.363 . S
C1048 H1064 0.931 1_655 S
C1049 C1048 1.370 1_545 S
C1049 C1053 1.408 . S
C1050 C1048 1.363 . S
C1050 C1051 1.370 1_565 S
C1050 C1054 1.524 . S
C1051 C1043 1.503 . S
C1051 C1050 1.370 1_545 S
C1051 C1052 1.403 . S
C1052 C1051 1.403 . S
C1052 C1053 1.404 . S
C1052 C1055 1.539 . S
C1053 C1049 1.408 . S
C1053 C1052 1.404 . S
C1053 H1065 0.930 . S
C1054 C1050 1.524 . S
C1054 H1066 0.956 . S
C1054 H1067 0.961 . S
C1054 H1068 0.961 . S
C1055 C1052 1.539 . S
C1055 H1069 0.958 . S
C1055 H1070 0.961 . S
C1055 H1071 0.960 . S
H1056 C1040 0.931 . S
H1057 C1045 0.925 1_565 S
H1058 C1046 0.960 . S
H1059 C1046 0.962 . S
H1060 C1046 0.960 . S
H1061 C1047 0.961 . S
H1062 C1047 0.961 . S
H1063 C1047 0.961 . S
H1064 C1048 0.931 1_455 S
H1065 C1053 0.930 . S
H1066 C1054 0.956 . S
H1067 C1054 0.961 . S
H1068 C1054 0.961 . S
H1069 C1055 0.958 . S
H1070 C1055 0.961 . S
H1071 C1055 0.960 . S
C1072 C1073 1.391 . S
C1072 C1074 1.394 . S
C1072 H1088 0.931 . S
C1073 C1072 1.391 . S
C1073 C1077 1.376 . S
C1074 C1072 1.394 . S
C1074 C1075 1.369 . S
C1074 C1078 1.531 . S
C1075 C1074 1.369 . S
C1075 C1076 1.410 . S
C1075 C1083 1.503 . S
C1076 C1075 1.410 . S
C1076 C1077 1.392 . S
C1076 C1079 1.511 . S
C1077 C1073 1.376 . S
C1077 C1076 1.392 . S
C1077 H1089 0.929 . S
C1078 C1074 1.531 . S
C1078 H1090 0.960 . S
C1078 H1091 0.962 . S
C1078 H1092 0.960 . S
C1079 C1076 1.511 . S
C1079 H1093 0.961 . S
C1079 H1094 0.961 . S
C1079 H1095 0.961 . S
C1080 C1081 1.370 . S
C1080 C1082 1.363 . S
C1080 H1096 0.931 . S
C1081 C1080 1.370 . S
C1081 C1085 1.408 . S
C1082 C1080 1.363 . S
C1082 C1083 1.370 . S
C1082 C1086 1.524 . S
C1083 C1075 1.503 . S
C1083 C1082 1.370 . S
C1083 C1084 1.403 . S
C1084 C1083 1.403 . S
C1084 C1085 1.404 . S
C1084 C1087 1.539 . S
C1085 C1081 1.408 . S
C1085 C1084 1.404 . S
C1085 H1097 0.930 . S
C1086 C1082 1.524 . S
C1086 H1098 0.956 . S
C1086 H1099 0.961 . S
C1086 H1100 0.961 . S
C1087 C1084 1.539 . S
C1087 H1101 0.958 . S
C1087 H1102 0.961 . S
C1087 H1103 0.960 . S
H1088 C1072 0.931 . S
H1089 C1077 0.929 . S
H1090 C1078 0.960 . S
H1091 C1078 0.962 . S
H1092 C1078 0.960 . S
H1093 C1079 0.961 . S
H1094 C1079 0.961 . S
H1095 C1079 0.961 . S
H1096 C1080 0.931 . S
H1097 C1085 0.930 . S
H1098 C1086 0.956 . S
H1099 C1086 0.961 . S
H1100 C1086 0.961 . S
H1101 C1087 0.958 . S
H1102 C1087 0.961 . S
H1103 C1087 0.960 . S
C1104 C1105 1.391 1_565 S
C1104 C1106 1.390 1_565 S
C1104 H1120 0.931 . S
C1105 C1104 1.391 1_545 S
C1105 C1109 1.376 . S
C1106 C1104 1.390 1_545 S
C1106 C1107 1.383 . S
C1106 C1110 1.520 1_545 S
C1107 C1106 1.383 . S
C1107 C1108 1.410 . S
C1107 C1115 1.503 . S
C1108 C1107 1.410 . S
C1108 C1109 1.392 . S
C1108 C1111 1.511 . S
C1109 C1105 1.376 . S
C1109 C1108 1.392 . S
C1109 H1121 0.929 . S
C1110 C1106 1.520 1_565 S
C1110 H1122 0.951 1_565 S
C1110 H1123 0.962 . S
C1110 H1124 0.960 . S
C1111 C1108 1.511 . S
C1111 H1125 0.961 . S
C1111 H1126 0.961 . S
C1111 H1127 0.961 . S
C1112 C1113 1.370 . S
C1112 C1114 1.363 . S
C1112 H1128 0.931 1_545 S
C1113 C1112 1.370 . S
C1113 C1117 1.408 . S
C1114 C1112 1.363 . S
C1114 C1115 1.370 . S
C1114 C1118 1.524 1_545 S
C1115 C1107 1.503 . S
C1115 C1114 1.370 . S
C1115 C1116 1.403 . S
C1116 C1115 1.403 . S
C1116 C1117 1.404 . S
C1116 C1119 1.539 . S
C1117 C1113 1.408 . S
C1117 C1116 1.404 . S
C1117 H1129 0.930 . S
C1118 C1114 1.524 1_565 S
C1118 H1130 0.956 . S
C1118 H1131 0.961 . S
C1118 H1132 0.961 . S
C1119 C1116 1.539 . S
C1119 H1133 0.958 . S
C1119 H1134 0.961 . S
C1119 H1135 0.960 . S
H1120 C1104 0.931 . S
H1121 C1109 0.929 . S
H1122 C1110 0.951 1_545 S
H1123 C1110 0.962 . S
H1124 C1110 0.960 . S
H1125 C1111 0.961 . S
H1126 C1111 0.961 . S
H1127 C1111 0.961 . S
H1128 C1112 0.931 1_565 S
H1129 C1117 0.930 . S
H1130 C1118 0.956 . S
H1131 C1118 0.961 . S
H1132 C1118 0.961 . S
H1133 C1119 0.958 . S
H1134 C1119 0.961 . S
H1135 C1119 0.960 . S
C1136 C1137 1.391 . S
C1136 C1138 1.394 . S
C1136 H1152 0.931 . S
C1137 C1136 1.391 . S
C1137 C1141 1.376 . S
C1138 C1136 1.394 . S
C1138 C1139 1.369 . S
C1138 C1142 1.531 . S
C1139 C1138 1.369 . S
C1139 C1140 1.410 . S
C1139 C1147 1.503 . S
C1140 C1139 1.410 . S
C1140 C1141 1.392 . S
C1140 C1143 1.511 . S
C1141 C1137 1.376 . S
C1141 C1140 1.392 . S
C1141 H1153 0.929 . S
C1142 C1138 1.531 . S
C1142 H1154 0.960 . S
C1142 H1155 0.962 . S
C1142 H1156 0.960 . S
C1143 C1140 1.511 . S
C1143 H1157 0.961 . S
C1143 H1158 0.961 . S
C1143 H1159 0.961 . S
C1144 C1145 1.370 . S
C1144 C1146 1.363 . S
C1144 H1160 0.931 . S
C1145 C1144 1.370 . S
C1145 C1149 1.408 . S
C1146 C1144 1.363 . S
C1146 C1147 1.370 . S
C1146 C1150 1.524 . S
C1147 C1139 1.503 . S
C1147 C1146 1.370 . S
C1147 C1148 1.403 . S
C1148 C1147 1.403 . S
C1148 C1149 1.404 . S
C1148 C1151 1.539 . S
C1149 C1145 1.408 . S
C1149 C1148 1.404 . S
C1149 H1161 0.930 . S
C1150 C1146 1.524 . S
C1150 H1162 0.956 . S
C1150 H1163 0.961 . S
C1150 H1164 0.961 . S
C1151 C1148 1.539 . S
C1151 H1165 0.958 . S
C1151 H1166 0.961 . S
C1151 H1167 0.960 . S
H1152 C1136 0.931 . S
H1153 C1141 0.929 . S
H1154 C1142 0.960 . S
H1155 C1142 0.962 . S
H1156 C1142 0.960 . S
H1157 C1143 0.961 . S
H1158 C1143 0.961 . S
H1159 C1143 0.961 . S
H1160 C1144 0.931 . S
H1161 C1149 0.930 . S
H1162 C1150 0.956 . S
H1163 C1150 0.961 . S
H1164 C1150 0.961 . S
H1165 C1151 0.958 . S
H1166 C1151 0.961 . S
H1167 C1151 0.960 . S
C1168 C1169 1.391 . S
C1168 C1170 1.394 . S
C1168 H1184 0.931 . S
C1169 C1168 1.391 . S
C1169 C1173 1.376 . S
C1170 C1168 1.394 . S
C1170 C1171 1.369 . S
C1170 C1174 1.531 . S
C1171 C1170 1.369 . S
C1171 C1172 1.410 . S
C1171 C1179 1.503 . S
C1172 C1171 1.410 . S
C1172 C1173 1.392 . S
C1172 C1175 1.511 . S
C1173 C1169 1.376 . S
C1173 C1172 1.392 . S
C1173 H1185 0.929 . S
C1174 C1170 1.531 . S
C1174 H1186 0.960 . S
C1174 H1187 0.962 . S
C1174 H1188 0.960 . S
C1175 C1172 1.511 . S
C1175 H1189 0.952 1_554 S
C1175 H1190 0.961 . S
C1175 H1191 0.961 . S
C1176 C1177 1.370 . S
C1176 C1178 1.363 . S
C1176 H1192 0.931 . S
C1177 C1176 1.370 . S
C1177 C1181 1.408 . S
C1178 C1176 1.363 . S
C1178 C1179 1.370 . S
C1178 C1182 1.524 1_554 S
C1179 C1171 1.503 . S
C1179 C1178 1.370 . S
C1179 C1180 1.403 . S
C1180 C1179 1.403 . S
C1180 C1181 1.404 . S
C1180 C1183 1.539 . S
C1181 C1177 1.408 . S
C1181 C1180 1.404 . S
C1181 H1193 0.930 . S
C1182 C1178 1.524 1_556 S
C1182 H1194 0.956 . S
C1182 H1195 0.961 . S
C1182 H1196 0.961 . S
C1183 C1180 1.539 . S
C1183 H1197 0.958 . S
C1183 H1198 0.961 . S
C1183 H1199 0.960 . S
H1184 C1168 0.931 . S
H1185 C1173 0.929 . S
H1186 C1174 0.960 . S
H1187 C1174 0.962 . S
H1188 C1174 0.960 . S
H1189 C1175 0.952 1_556 S
H1190 C1175 0.961 . S
H1191 C1175 0.961 . S
H1192 C1176 0.931 . S
H1193 C1181 0.930 . S
H1194 C1182 0.956 . S
H1195 C1182 0.961 . S
H1196 C1182 0.961 . S
H1197 C1183 0.958 . S
H1198 C1183 0.961 . S
H1199 C1183 0.960 . S
C1200 C1201 1.391 1_554 S
C1200 C1202 1.394 . S
C1200 H1216 0.931 . S
C1201 C1200 1.391 1_556 S
C1201 C1205 1.376 . S
C1202 C1200 1.394 . S
C1202 C1203 1.368 1_554 S
C1202 C1206 1.531 . S
C1203 C1202 1.368 1_556 S
C1203 C1204 1.411 . S
C1203 C1211 1.503 1_556 S
C1204 C1203 1.411 . S
C1204 C1205 1.392 . S
C1204 C1207 1.511 . S
C1205 C1201 1.376 . S
C1205 C1204 1.392 . S
C1205 H1217 0.929 . S
C1206 C1202 1.531 . S
C1206 H1218 0.960 . S
C1206 H1219 0.962 . S
C1206 H1220 0.960 . S
C1207 C1204 1.511 . S
C1207 H1221 0.961 . S
C1207 H1222 0.961 . S
C1207 H1223 0.961 . S
C1208 C1209 1.370 . S
C1208 C1210 1.363 . S
C1208 H1224 0.931 . S
C1209 C1208 1.370 . S
C1209 C1213 1.408 1_554 S
C1210 C1208 1.363 . S
C1210 C1211 1.370 . S
C1210 C1214 1.524 . S
C1211 C1203 1.503 1_554 S
C1211 C1210 1.370 . S
C1211 C1212 1.403 1_554 S
C1212 C1211 1.403 1_556 S
C1212 C1213 1.404 . S
C1212 C1215 1.539 . S
C1213 C1209 1.408 1_556 S
C1213 C1212 1.404 . S
C1213 H1225 0.930 . S
C1214 C1210 1.524 . S
C1214 H1226 0.956 . S
C1214 H1227 0.961 . S
C1214 H1228 0.961 . S
C1215 C1212 1.539 . S
C1215 H1229 0.958 . S
C1215 H1230 0.961 . S
C1215 H1231 0.960 . S
H1216 C1200 0.931 . S
H1217 C1205 0.929 . S
H1218 C1206 0.960 . S
H1219 C1206 0.962 . S
H1220 C1206 0.960 . S
H1221 C1207 0.961 . S
H1222 C1207 0.961 . S
H1223 C1207 0.961 . S
H1224 C1208 0.931 . S
H1225 C1213 0.930 . S
H1226 C1214 0.956 . S
H1227 C1214 0.961 . S
H1228 C1214 0.961 . S
H1229 C1215 0.958 . S
H1230 C1215 0.961 . S
H1231 C1215 0.960 . S
C1232 C1233 1.391 . S
C1232 C1234 1.394 . S
C1232 H1248 0.931 . S
C1233 C1232 1.391 . S
C1233 C1237 1.376 . S
C1234 C1232 1.394 . S
C1234 C1235 1.369 . S
C1234 C1238 1.531 . S
C1235 C1234 1.369 . S
C1235 C1236 1.410 . S
C1235 C1243 1.503 . S
C1236 C1235 1.410 . S
C1236 C1237 1.392 . S
C1236 C1239 1.511 . S
C1237 C1233 1.376 . S
C1237 C1236 1.392 . S
C1237 H1249 0.929 . S
C1238 C1234 1.531 . S
C1238 H1250 0.960 . S
C1238 H1251 0.962 . S
C1238 H1252 0.960 . S
C1239 C1236 1.511 . S
C1239 H1253 0.961 . S
C1239 H1254 0.961 . S
C1239 H1255 0.961 . S
C1240 C1241 1.370 . S
C1240 C1242 1.363 . S
C1240 H1256 0.931 . S
C1241 C1240 1.370 . S
C1241 C1245 1.408 . S
C1242 C1240 1.363 . S
C1242 C1243 1.370 . S
C1242 C1246 1.524 . S
C1243 C1235 1.503 . S
C1243 C1242 1.370 . S
C1243 C1244 1.403 . S
C1244 C1243 1.403 . S
C1244 C1245 1.404 . S
C1244 C1247 1.539 . S
C1245 C1241 1.408 . S
C1245 C1244 1.404 . S
C1245 H1257 0.930 . S
C1246 C1242 1.524 . S
C1246 H1258 0.956 . S
C1246 H1259 0.961 . S
C1246 H1260 0.961 . S
C1247 C1244 1.539 . S
C1247 H1261 0.958 . S
C1247 H1262 0.961 . S
C1247 H1263 0.960 . S
H1248 C1232 0.931 . S
H1249 C1237 0.929 . S
H1250 C1238 0.960 . S
H1251 C1238 0.962 . S
H1252 C1238 0.960 . S
H1253 C1239 0.961 . S
H1254 C1239 0.961 . S
H1255 C1239 0.961 . S
H1256 C1240 0.931 . S
H1257 C1245 0.930 . S
H1258 C1246 0.956 . S
H1259 C1246 0.961 . S
H1260 C1246 0.961 . S
H1261 C1247 0.958 . S
H1262 C1247 0.961 . S
H1263 C1247 0.960 . S
C1264 C1265 1.391 . S
C1264 C1266 1.394 . S
C1264 H1280 0.931 . S
C1265 C1264 1.391 . S
C1265 C1269 1.376 . S
C1266 C1264 1.394 . S
C1266 C1267 1.369 . S
C1266 C1270 1.531 . S
C1267 C1266 1.369 . S
C1267 C1268 1.410 . S
C1267 C1275 1.503 . S
C1268 C1267 1.410 . S
C1268 C1269 1.392 . S
C1268 C1271 1.511 . S
C1269 C1265 1.376 . S
C1269 C1268 1.392 . S
C1269 H1281 0.929 . S
C1270 C1266 1.531 . S
C1270 H1282 0.960 . S
C1270 H1283 0.962 . S
C1270 H1284 0.960 . S
C1271 C1268 1.511 . S
C1271 H1285 0.961 . S
C1271 H1286 0.961 . S
C1271 H1287 0.961 . S
C1272 C1273 1.370 . S
C1272 C1274 1.363 . S
C1272 H1288 0.931 . S
C1273 C1272 1.370 . S
C1273 C1277 1.408 . S
C1274 C1272 1.363 . S
C1274 C1275 1.370 . S
C1274 C1278 1.524 . S
C1275 C1267 1.503 . S
C1275 C1274 1.370 . S
C1275 C1276 1.403 . S
C1276 C1275 1.403 . S
C1276 C1277 1.404 . S
C1276 C1279 1.539 . S
C1277 C1273 1.408 . S
C1277 C1276 1.404 . S
C1277 H1289 0.930 . S
C1278 C1274 1.524 . S
C1278 H1290 0.956 . S
C1278 H1291 0.961 . S
C1278 H1292 0.961 . S
C1279 C1276 1.539 . S
C1279 H1293 0.958 . S
C1279 H1294 0.961 . S
C1279 H1295 0.960 . S
H1280 C1264 0.931 . S
H1281 C1269 0.929 . S
H1282 C1270 0.960 . S
H1283 C1270 0.962 . S
H1284 C1270 0.960 . S
H1285 C1271 0.961 . S
H1286 C1271 0.961 . S
H1287 C1271 0.961 . S
H1288 C1272 0.931 . S
H1289 C1277 0.930 . S
H1290 C1278 0.956 . S
H1291 C1278 0.961 . S
H1292 C1278 0.961 . S
H1293 C1279 0.958 . S
H1294 C1279 0.961 . S
H1295 C1279 0.960 . S
C1296 C1297 1.391 . S
C1296 C1298 1.394 . S
C1296 H1312 0.931 . S
C1297 C1296 1.391 . S
C1297 C1301 1.376 . S
C1298 C1296 1.394 . S
C1298 C1299 1.369 . S
C1298 C1302 1.531 . S
C1299 C1298 1.369 . S
C1299 C1300 1.410 . S
C1299 C1307 1.503 . S
C1300 C1299 1.410 . S
C1300 C1301 1.392 . S
C1300 C1303 1.511 . S
C1301 C1297 1.376 . S
C1301 C1300 1.392 . S
C1301 H1313 0.929 . S
C1302 C1298 1.531 . S
C1302 H1314 0.960 . S
C1302 H1315 0.962 . S
C1302 H1316 0.960 . S
C1303 C1300 1.511 . S
C1303 H1317 0.961 . S
C1303 H1318 0.961 . S
C1303 H1319 0.961 . S
C1304 C1305 1.370 . S
C1304 C1306 1.363 . S
C1304 H1320 0.931 . S
C1305 C1304 1.370 . S
C1305 C1309 1.408 . S
C1306 C1304 1.363 . S
C1306 C1307 1.370 . S
C1306 C1310 1.524 . S
C1307 C1299 1.503 . S
C1307 C1306 1.370 . S
C1307 C1308 1.403 . S
C1308 C1307 1.403 . S
C1308 C1309 1.404 . S
C1308 C1311 1.539 . S
C1309 C1305 1.408 . S
C1309 C1308 1.404 . S
C1309 H1321 0.930 . S
C1310 C1306 1.524 . S
C1310 H1322 0.956 . S
C1310 H1323 0.961 . S
C1310 H1324 0.961 . S
C1311 C1308 1.539 . S
C1311 H1325 0.958 . S
C1311 H1326 0.961 . S
C1311 H1327 0.960 . S
H1312 C1296 0.931 . S
H1313 C1301 0.929 . S
H1314 C1302 0.960 . S
H1315 C1302 0.962 . S
H1316 C1302 0.960 . S
H1317 C1303 0.961 . S
H1318 C1303 0.961 . S
H1319 C1303 0.961 . S
H1320 C1304 0.931 . S
H1321 C1309 0.930 . S
H1322 C1310 0.956 . S
H1323 C1310 0.961 . S
H1324 C1310 0.961 . S
H1325 C1311 0.958 . S
H1326 C1311 0.961 . S
H1327 C1311 0.960 . S
C1328 C1329 1.391 . S
C1328 C1330 1.394 . S
C1328 H1344 0.931 . S
C1329 C1328 1.391 . S
C1329 C1333 1.376 . S
C1330 C1328 1.394 . S
C1330 C1331 1.369 . S
C1330 C1334 1.531 . S
C1331 C1330 1.369 . S
C1331 C1332 1.410 . S
C1331 C1339 1.503 . S
C1332 C1331 1.410 . S
C1332 C1333 1.392 . S
C1332 C1335 1.511 . S
C1333 C1329 1.376 . S
C1333 C1332 1.392 . S
C1333 H1345 0.929 . S
C1334 C1330 1.531 . S
C1334 H1346 0.960 . S
C1334 H1347 0.962 . S
C1334 H1348 0.960 . S
C1335 C1332 1.511 . S
C1335 H1349 0.961 . S
C1335 H1350 0.961 . S
C1335 H1351 0.961 . S
C1336 C1337 1.370 . S
C1336 C1338 1.363 . S
C1336 H1352 0.931 . S
C1337 C1336 1.370 . S
C1337 C1341 1.408 . S
C1338 C1336 1.363 . S
C1338 C1339 1.370 . S
C1338 C1342 1.524 . S
C1339 C1331 1.503 . S
C1339 C1338 1.370 . S
C1339 C1340 1.403 . S
C1340 C1339 1.403 . S
C1340 C1341 1.404 . S
C1340 C1343 1.539 . S
C1341 C1337 1.408 . S
C1341 C1340 1.404 . S
C1341 H1353 0.930 . S
C1342 C1338 1.524 . S
C1342 H1354 0.956 . S
C1342 H1355 0.961 . S
C1342 H1356 0.961 . S
C1343 C1340 1.539 . S
C1343 H1357 0.958 . S
C1343 H1358 0.961 . S
C1343 H1359 0.960 . S
H1344 C1328 0.931 . S
H1345 C1333 0.929 . S
H1346 C1334 0.960 . S
H1347 C1334 0.962 . S
H1348 C1334 0.960 . S
H1349 C1335 0.961 . S
H1350 C1335 0.961 . S
H1351 C1335 0.961 . S
H1352 C1336 0.931 . S
H1353 C1341 0.930 . S
H1354 C1342 0.956 . S
H1355 C1342 0.961 . S
H1356 C1342 0.961 . S
H1357 C1343 0.958 . S
H1358 C1343 0.961 . S
H1359 C1343 0.960 . S
C1360 C1361 1.391 . S
C1360 C1362 1.394 . S
C1360 H1376 0.931 . S
C1361 C1360 1.391 . S
C1361 C1365 1.376 . S
C1362 C1360 1.394 . S
C1362 C1363 1.369 . S
C1362 C1366 1.531 . S
C1363 C1362 1.369 . S
C1363 C1364 1.410 . S
C1363 C1371 1.503 . S
C1364 C1363 1.410 . S
C1364 C1365 1.392 . S
C1364 C1367 1.511 . S
C1365 C1361 1.376 . S
C1365 C1364 1.392 . S
C1365 H1377 0.929 . S
C1366 C1362 1.531 . S
C1366 H1378 0.960 . S
C1366 H1379 0.962 . S
C1366 H1380 0.960 . S
C1367 C1364 1.511 . S
C1367 H1381 0.961 . S
C1367 H1382 0.961 . S
C1367 H1383 0.961 . S
C1368 C1369 1.370 . S
C1368 C1370 1.363 . S
C1368 H1384 0.931 . S
C1369 C1368 1.370 . S
C1369 C1373 1.408 . S
C1370 C1368 1.363 . S
C1370 C1371 1.370 . S
C1370 C1374 1.524 . S
C1371 C1363 1.503 . S
C1371 C1370 1.370 . S
C1371 C1372 1.403 . S
C1372 C1371 1.403 . S
C1372 C1373 1.404 . S
C1372 C1375 1.539 . S
C1373 C1369 1.408 . S
C1373 C1372 1.404 . S
C1373 H1385 0.930 . S
C1374 C1370 1.524 . S
C1374 H1386 0.956 . S
C1374 H1387 0.961 . S
C1374 H1388 0.961 . S
C1375 C1372 1.539 . S
C1375 H1389 0.958 . S
C1375 H1390 0.961 . S
C1375 H1391 0.960 . S
H1376 C1360 0.931 . S
H1377 C1365 0.929 . S
H1378 C1366 0.960 . S
H1379 C1366 0.962 . S
H1380 C1366 0.960 . S
H1381 C1367 0.961 . S
H1382 C1367 0.961 . S
H1383 C1367 0.961 . S
H1384 C1368 0.931 . S
H1385 C1373 0.930 . S
H1386 C1374 0.956 . S
H1387 C1374 0.961 . S
H1388 C1374 0.961 . S
H1389 C1375 0.958 . S
H1390 C1375 0.961 . S
H1391 C1375 0.960 . S
C1392 C1393 1.391 . S
C1392 C1394 1.394 . S
C1392 H1408 0.931 . S
C1393 C1392 1.391 . S
C1393 C1397 1.376 . S
C1394 C1392 1.394 . S
C1394 C1395 1.369 . S
C1394 C1398 1.531 . S
C1395 C1394 1.369 . S
C1395 C1396 1.410 . S
C1395 C1403 1.503 . S
C1396 C1395 1.410 . S
C1396 C1397 1.392 . S
C1396 C1399 1.511 . S
C1397 C1393 1.376 . S
C1397 C1396 1.392 . S
C1397 H1409 0.929 . S
C1398 C1394 1.531 . S
C1398 H1410 0.960 . S
C1398 H1411 0.962 . S
C1398 H1412 0.960 . S
C1399 C1396 1.511 . S
C1399 H1413 0.961 . S
C1399 H1414 0.961 . S
C1399 H1415 0.961 . S
C1400 C1401 1.370 . S
C1400 C1402 1.363 . S
C1400 H1416 0.931 . S
C1401 C1400 1.370 . S
C1401 C1405 1.408 . S
C1402 C1400 1.363 . S
C1402 C1403 1.370 . S
C1402 C1406 1.524 . S
C1403 C1395 1.503 . S
C1403 C1402 1.370 . S
C1403 C1404 1.403 . S
C1404 C1403 1.403 . S
C1404 C1405 1.404 . S
C1404 C1407 1.539 . S
C1405 C1401 1.408 . S
C1405 C1404 1.404 . S
C1405 H1417 0.930 . S
C1406 C1402 1.524 . S
C1406 H1418 0.956 . S
C1406 H1419 0.961 . S
C1406 H1420 0.961 . S
C1407 C1404 1.539 . S
C1407 H1421 0.958 . S
C1407 H1422 0.961 . S
C1407 H1423 0.960 . S
H1408 C1392 0.931 . S
H1409 C1397 0.929 . S
H1410 C1398 0.960 . S
H1411 C1398 0.962 . S
H1412 C1398 0.960 . S
H1413 C1399 0.961 . S
H1414 C1399 0.961 . S
H1415 C1399 0.961 . S
H1416 C1400 0.931 . S
H1417 C1405 0.930 . S
H1418 C1406 0.956 . S
H1419 C1406 0.961 . S
H1420 C1406 0.961 . S
H1421 C1407 0.958 . S
H1422 C1407 0.961 . S
H1423 C1407 0.960 . S
C1424 C1425 1.391 . S
C1424 C1426 1.394 . S
C1424 H1440 0.931 . S
C1425 C1424 1.391 . S
C1425 C1429 1.376 . S
C1426 C1424 1.394 . S
C1426 C1427 1.369 . S
C1426 C1430 1.531 1_455 S
C1427 C1426 1.369 . S
C1427 C1428 1.410 . S
C1427 C1435 1.503 . S
C1428 C1427 1.410 . S
C1428 C1429 1.392 . S
C1428 C1431 1.511 . S
C1429 C1425 1.376 . S
C1429 C1428 1.392 . S
C1429 H1441 0.929 . S
C1430 C1426 1.531 1_655 S
C1430 H1442 0.961 . S
C1430 H1443 0.962 . S
C1430 H1444 0.960 . S
C1431 C1428 1.511 . S
C1431 H1445 0.961 . S
C1431 H1446 0.961 . S
C1431 H1447 0.961 . S
C1432 C1433 1.370 . S
C1432 C1434 1.363 . S
C1432 H1448 0.931 1_455 S
C1433 C1432 1.370 . S
C1433 C1437 1.408 . S
C1434 C1432 1.363 . S
C1434 C1435 1.370 . S
C1434 C1438 1.524 1_455 S
C1435 C1427 1.503 . S
C1435 C1434 1.370 . S
C1435 C1436 1.403 . S
C1436 C1435 1.403 . S
C1436 C1437 1.404 . S
C1436 C1439 1.539 . S
C1437 C1433 1.408 . S
C1437 C1436 1.404 . S
C1437 H1449 0.930 . S
C1438 C1434 1.524 1_655 S
C1438 H1450 0.956 . S
C1438 H1451 0.961 1_655 S
C1438 H1452 0.961 . S
C1439 C1436 1.539 . S
C1439 H1453 0.958 . S
C1439 H1454 0.961 . S
C1439 H1455 0.960 . S
H1440 C1424 0.931 . S
H1441 C1429 0.929 . S
H1442 C1430 0.961 . S
H1443 C1430 0.962 . S
H1444 C1430 0.960 . S
H1445 C1431 0.961 . S
H1446 C1431 0.961 . S
H1447 C1431 0.961 . S
H1448 C1432 0.931 1_655 S
H1449 C1437 0.930 . S
H1450 C1438 0.956 . S
H1451 C1438 0.961 1_455 S
H1452 C1438 0.961 . S
H1453 C1439 0.958 . S
H1454 C1439 0.961 . S
H1455 C1439 0.960 . S
C1456 C1457 1.391 . S
C1456 C1458 1.394 . S
C1456 H1472 0.931 . S
C1457 C1456 1.391 . S
C1457 C1461 1.376 . S
C1458 C1456 1.394 . S
C1458 C1459 1.369 . S
C1458 C1462 1.531 . S
C1459 C1458 1.369 . S
C1459 C1460 1.410 . S
C1459 C1467 1.503 . S
C1460 C1459 1.410 . S
C1460 C1461 1.392 . S
C1460 C1463 1.511 . S
C1461 C1457 1.376 . S
C1461 C1460 1.392 . S
C1461 H1473 0.929 . S
C1462 C1458 1.531 . S
C1462 H1474 0.960 . S
C1462 H1475 0.962 . S
C1462 H1476 0.960 . S
C1463 C1460 1.511 . S
C1463 H1477 0.961 . S
C1463 H1478 0.961 . S
C1463 H1479 0.961 . S
C1464 C1465 1.370 . S
C1464 C1466 1.363 . S
C1464 H1480 0.931 . S
C1465 C1464 1.370 . S
C1465 C1469 1.408 . S
C1466 C1464 1.363 . S
C1466 C1467 1.370 . S
C1466 C1470 1.524 . S
C1467 C1459 1.503 . S
C1467 C1466 1.370 . S
C1467 C1468 1.403 . S
C1468 C1467 1.403 . S
C1468 C1469 1.404 . S
C1468 C1471 1.539 . S
C1469 C1465 1.408 . S
C1469 C1468 1.404 . S
C1469 H1481 0.930 . S
C1470 C1466 1.524 . S
C1470 H1482 0.956 . S
C1470 H1483 0.961 . S
C1470 H1484 0.961 . S
C1471 C1468 1.539 . S
C1471 H1485 0.958 . S
C1471 H1486 0.961 . S
C1471 H1487 0.960 . S
H1472 C1456 0.931 . S
H1473 C1461 0.929 . S
H1474 C1462 0.960 . S
H1475 C1462 0.962 . S
H1476 C1462 0.960 . S
H1477 C1463 0.961 . S
H1478 C1463 0.961 . S
H1479 C1463 0.961 . S
H1480 C1464 0.931 . S
H1481 C1469 0.930 . S
H1482 C1470 0.956 . S
H1483 C1470 0.961 . S
H1484 C1470 0.961 . S
H1485 C1471 0.958 . S
H1486 C1471 0.961 . S
H1487 C1471 0.960 . S
C1488 C1489 1.391 . S
C1488 C1490 1.394 . S
C1488 H1504 0.931 . S
C1489 C1488 1.391 . S
C1489 C1493 1.376 . S
C1490 C1488 1.394 . S
C1490 C1491 1.369 . S
C1490 C1494 1.531 . S
C1491 C1490 1.369 . S
C1491 C1492 1.410 . S
C1491 C1499 1.503 . S
C1492 C1491 1.410 . S
C1492 C1493 1.392 . S
C1492 C1495 1.511 . S
C1493 C1489 1.376 . S
C1493 C1492 1.392 . S
C1493 H1505 0.929 . S
C1494 C1490 1.531 . S
C1494 H1506 0.960 . S
C1494 H1507 0.962 . S
C1494 H1508 0.960 . S
C1495 C1492 1.511 . S
C1495 H1509 0.961 . S
C1495 H1510 0.961 . S
C1495 H1511 0.961 . S
C1496 C1497 1.370 . S
C1496 C1498 1.363 . S
C1496 H1512 0.931 . S
C1497 C1496 1.370 . S
C1497 C1501 1.408 . S
C1498 C1496 1.363 . S
C1498 C1499 1.370 . S
C1498 C1502 1.524 . S
C1499 C1491 1.503 . S
C1499 C1498 1.370 . S
C1499 C1500 1.403 . S
C1500 C1499 1.403 . S
C1500 C1501 1.404 . S
C1500 C1503 1.539 . S
C1501 C1497 1.408 . S
C1501 C1500 1.404 . S
C1501 H1513 0.930 . S
C1502 C1498 1.524 . S
C1502 H1514 0.956 . S
C1502 H1515 0.961 . S
C1502 H1516 0.961 . S
C1503 C1500 1.539 . S
C1503 H1517 0.958 . S
C1503 H1518 0.961 . S
C1503 H1519 0.960 . S
H1504 C1488 0.931 . S
H1505 C1493 0.929 . S
H1506 C1494 0.960 . S
H1507 C1494 0.962 . S
H1508 C1494 0.960 . S
H1509 C1495 0.961 . S
H1510 C1495 0.961 . S
H1511 C1495 0.961 . S
H1512 C1496 0.931 . S
H1513 C1501 0.930 . S
H1514 C1502 0.956 . S
H1515 C1502 0.961 . S
H1516 C1502 0.961 . S
H1517 C1503 0.958 . S
H1518 C1503 0.961 . S
H1519 C1503 0.960 . S
C1520 C1521 1.391 . S
C1520 C1522 1.394 . S
C1520 H1536 0.931 . S
C1521 C1520 1.391 . S
C1521 C1525 1.376 . S
C1522 C1520 1.394 . S
C1522 C1523 1.369 . S
C1522 C1526 1.531 . S
C1523 C1522 1.369 . S
C1523 C1524 1.410 . S
C1523 C1531 1.503 . S
C1524 C1523 1.410 . S
C1524 C1525 1.392 . S
C1524 C1527 1.511 . S
C1525 C1521 1.376 . S
C1525 C1524 1.392 . S
C1525 H1537 0.929 . S
C1526 C1522 1.531 . S
C1526 H1538 0.960 . S
C1526 H1539 0.962 . S
C1526 H1540 0.960 . S
C1527 C1524 1.511 . S
C1527 H1541 0.961 . S
C1527 H1542 0.961 . S
C1527 H1543 0.961 . S
C1528 C1529 1.370 . S
C1528 C1530 1.363 . S
C1528 H1544 0.931 . S
C1529 C1528 1.370 . S
C1529 C1533 1.408 . S
C1530 C1528 1.363 . S
C1530 C1531 1.370 . S
C1530 C1534 1.524 . S
C1531 C1523 1.503 . S
C1531 C1530 1.370 . S
C1531 C1532 1.403 . S
C1532 C1531 1.403 . S
C1532 C1533 1.404 . S
C1532 C1535 1.539 . S
C1533 C1529 1.408 . S
C1533 C1532 1.404 . S
C1533 H1545 0.930 . S
C1534 C1530 1.524 . S
C1534 H1546 0.956 . S
C1534 H1547 0.961 . S
C1534 H1548 0.961 . S
C1535 C1532 1.539 . S
C1535 H1549 0.958 . S
C1535 H1550 0.961 . S
C1535 H1551 0.960 . S
H1536 C1520 0.931 . S
H1537 C1525 0.929 . S
H1538 C1526 0.960 . S
H1539 C1526 0.962 . S
H1540 C1526 0.960 . S
H1541 C1527 0.961 . S
H1542 C1527 0.961 . S
H1543 C1527 0.961 . S
H1544 C1528 0.931 . S
H1545 C1533 0.930 . S
H1546 C1534 0.956 . S
H1547 C1534 0.961 . S
H1548 C1534 0.961 . S
H1549 C1535 0.958 . S
H1550 C1535 0.961 . S
H1551 C1535 0.960 . S
C1552 C1553 1.391 . S
C1552 C1554 1.394 . S
C1552 H1568 0.931 . S
C1553 C1552 1.391 . S
C1553 C1557 1.376 . S
C1554 C1552 1.394 . S
C1554 C1555 1.369 . S
C1554 C1558 1.531 . S
C1555 C1554 1.369 . S
C1555 C1556 1.410 1_455 S
C1555 C1563 1.503 . S
C1556 C1555 1.410 1_655 S
C1556 C1557 1.392 1_655 S
C1556 C1559 1.511 . S
C1557 C1553 1.376 . S
C1557 C1556 1.392 1_455 S
C1557 H1569 0.929 1_455 S
C1558 C1554 1.531 . S
C1558 H1570 0.960 . S
C1558 H1571 0.962 . S
C1558 H1572 0.960 . S
C1559 C1556 1.511 . S
C1559 H1573 0.961 . S
C1559 H1574 0.961 . S
C1559 H1575 0.961 . S
C1560 C1561 1.370 . S
C1560 C1562 1.363 . S
C1560 H1576 0.931 . S
C1561 C1560 1.370 . S
C1561 C1565 1.408 1_455 S
C1562 C1560 1.363 . S
C1562 C1563 1.370 . S
C1562 C1566 1.524 . S
C1563 C1555 1.503 . S
C1563 C1562 1.370 . S
C1563 C1564 1.403 1_455 S
C1564 C1563 1.403 1_655 S
C1564 C1565 1.404 . S
C1564 C1567 1.539 . S
C1565 C1561 1.408 1_655 S
C1565 C1564 1.404 . S
C1565 H1577 0.930 . S
C1566 C1562 1.524 . S
C1566 H1578 0.956 . S
C1566 H1579 0.961 . S
C1566 H1580 0.961 . S
C1567 C1564 1.539 . S
C1567 H1581 0.958 . S
C1567 H1582 0.961 . S
C1567 H1583 0.960 . S
H1568 C1552 0.931 . S
H1569 C1557 0.929 1_655 S
H1570 C1558 0.960 . S
H1571 C1558 0.962 . S
H1572 C1558 0.960 . S
H1573 C1559 0.961 . S
H1574 C1559 0.961 . S
H1575 C1559 0.961 . S
H1576 C1560 0.931 . S
H1577 C1565 0.930 . S
H1578 C1566 0.956 . S
H1579 C1566 0.961 . S
H1580 C1566 0.961 . S
H1581 C1567 0.958 . S
H1582 C1567 0.961 . S
H1583 C1567 0.960 . S
C1584 C1585 1.391 . S
C1584 C1586 1.394 . S
C1584 H1600 0.931 . S
C1585 C1584 1.391 . S
C1585 C1589 1.376 . S
C1586 C1584 1.394 . S
C1586 C1587 1.369 . S
C1586 C1590 1.531 . S
C1587 C1586 1.369 . S
C1587 C1588 1.410 . S
C1587 C1595 1.503 . S
C1588 C1587 1.410 . S
C1588 C1589 1.392 . S
C1588 C1591 1.511 . S
C1589 C1585 1.376 . S
C1589 C1588 1.392 . S
C1589 H1601 0.929 . S
C1590 C1586 1.531 . S
C1590 H1602 0.960 . S
C1590 H1603 0.962 . S
C1590 H1604 0.960 . S
C1591 C1588 1.511 . S
C1591 H1605 0.961 . S
C1591 H1606 0.961 . S
C1591 H1607 0.961 . S
C1592 C1593 1.370 . S
C1592 C1594 1.363 . S
C1592 H1608 0.931 . S
C1593 C1592 1.370 . S
C1593 C1597 1.408 . S
C1594 C1592 1.363 . S
C1594 C1595 1.370 . S
C1594 C1598 1.524 . S
C1595 C1587 1.503 . S
C1595 C1594 1.370 . S
C1595 C1596 1.403 . S
C1596 C1595 1.403 . S
C1596 C1597 1.404 . S
C1596 C1599 1.539 . S
C1597 C1593 1.408 . S
C1597 C1596 1.404 . S
C1597 H1609 0.930 . S
C1598 C1594 1.524 . S
C1598 H1610 0.956 . S
C1598 H1611 0.961 . S
C1598 H1612 0.961 . S
C1599 C1596 1.539 . S
C1599 H1613 0.958 . S
C1599 H1614 0.961 . S
C1599 H1615 0.960 . S
H1600 C1584 0.931 . S
H1601 C1589 0.929 . S
H1602 C1590 0.960 . S
H1603 C1590 0.962 . S
H1604 C1590 0.960 . S
H1605 C1591 0.961 . S
H1606 C1591 0.961 . S
H1607 C1591 0.961 . S
H1608 C1592 0.931 . S
H1609 C1597 0.930 . S
H1610 C1598 0.956 . S
H1611 C1598 0.961 . S
H1612 C1598 0.961 . S
H1613 C1599 0.958 . S
H1614 C1599 0.961 . S
H1615 C1599 0.960 . S
C1616 C1617 1.391 . S
C1616 C1618 1.394 . S
C1616 H1632 0.931 . S
C1617 C1616 1.391 . S
C1617 C1621 1.376 . S
C1618 C1616 1.394 . S
C1618 C1619 1.369 . S
C1618 C1622 1.531 . S
C1619 C1618 1.369 . S
C1619 C1620 1.410 . S
C1619 C1627 1.503 . S
C1620 C1619 1.410 . S
C1620 C1621 1.392 . S
C1620 C1623 1.511 . S
C1621 C1617 1.376 . S
C1621 C1620 1.392 . S
C1621 H1633 0.929 . S
C1622 C1618 1.531 . S
C1622 H1634 0.960 . S
C1622 H1635 0.962 . S
C1622 H1636 0.960 . S
C1623 C1620 1.511 . S
C1623 H1637 0.961 . S
C1623 H1638 0.961 . S
C1623 H1639 0.961 . S
C1624 C1625 1.370 1_554 S
C1624 C1626 1.363 1_554 S
C1624 H1640 0.931 . S
C1625 C1624 1.370 1_556 S
C1625 C1629 1.408 . S
C1626 C1624 1.363 1_556 S
C1626 C1627 1.370 . S
C1626 C1630 1.524 1_556 S
C1627 C1619 1.503 . S
C1627 C1626 1.370 . S
C1627 C1628 1.403 . S
C1628 C1627 1.403 . S
C1628 C1629 1.404 . S
C1628 C1631 1.539 . S
C1629 C1625 1.408 . S
C1629 C1628 1.404 . S
C1629 H1641 0.930 . S
C1630 C1626 1.524 1_554 S
C1630 H1642 0.956 1_554 S
C1630 H1643 0.961 . S
C1630 H1644 0.961 . S
C1631 C1628 1.539 . S
C1631 H1645 0.958 . S
C1631 H1646 0.961 . S
C1631 H1647 0.960 . S
H1632 C1616 0.931 . S
H1633 C1621 0.929 . S
H1634 C1622 0.960 . S
H1635 C1622 0.962 . S
H1636 C1622 0.960 . S
H1637 C1623 0.961 . S
H1638 C1623 0.961 . S
H1639 C1623 0.961 . S
H1640 C1624 0.931 . S
H1641 C1629 0.930 . S
H1642 C1630 0.956 1_556 S
H1643 C1630 0.961 . S
H1644 C1630 0.961 . S
H1645 C1631 0.958 . S
H1646 C1631 0.961 . S
H1647 C1631 0.960 . S
C1648 C1649 1.391 . S
C1648 C1650 1.394 . S
C1648 H1664 0.931 . S
C1649 C1648 1.391 . S
C1649 C1653 1.376 . S
C1650 C1648 1.394 . S
C1650 C1651 1.369 . S
C1650 C1654 1.531 . S
C1651 C1650 1.369 . S
C1651 C1652 1.410 . S
C1651 C1659 1.503 . S
C1652 C1651 1.410 . S
C1652 C1653 1.392 . S
C1652 C1655 1.511 . S
C1653 C1649 1.376 . S
C1653 C1652 1.392 . S
C1653 H1665 0.929 . S
C1654 C1650 1.531 . S
C1654 H1666 0.960 . S
C1654 H1667 0.962 . S
C1654 H1668 0.960 . S
C1655 C1652 1.511 . S
C1655 H1669 0.961 . S
C1655 H1670 0.961 . S
C1655 H1671 0.961 . S
C1656 C1657 1.370 . S
C1656 C1658 1.363 . S
C1656 H1672 0.931 . S
C1657 C1656 1.370 . S
C1657 C1661 1.408 . S
C1658 C1656 1.363 . S
C1658 C1659 1.370 . S
C1658 C1662 1.524 . S
C1659 C1651 1.503 . S
C1659 C1658 1.370 . S
C1659 C1660 1.403 . S
C1660 C1659 1.403 . S
C1660 C1661 1.404 . S
C1660 C1663 1.539 . S
C1661 C1657 1.408 . S
C1661 C1660 1.404 . S
C1661 H1673 0.930 . S
C1662 C1658 1.524 . S
C1662 H1674 0.956 . S
C1662 H1675 0.961 . S
C1662 H1676 0.961 . S
C1663 C1660 1.539 . S
C1663 H1677 0.958 . S
C1663 H1678 0.961 . S
C1663 H1679 0.960 . S
H1664 C1648 0.931 . S
H1665 C1653 0.929 . S
H1666 C1654 0.960 . S
H1667 C1654 0.962 . S
H1668 C1654 0.960 . S
H1669 C1655 0.961 . S
H1670 C1655 0.961 . S
H1671 C1655 0.961 . S
H1672 C1656 0.931 . S
H1673 C1661 0.930 . S
H1674 C1662 0.956 . S
H1675 C1662 0.961 . S
H1676 C1662 0.961 . S
H1677 C1663 0.958 . S
H1678 C1663 0.961 . S
H1679 C1663 0.960 . S
C1680 C1681 1.391 . S
C1680 C1682 1.394 . S
C1680 H1696 0.931 . S
C1681 C1680 1.391 . S
C1681 C1685 1.376 . S
C1682 C1680 1.394 . S
C1682 C1683 1.369 . S
C1682 C1686 1.531 1_545 S
C1683 C1682 1.369 . S
C1683 C1684 1.410 . S
C1683 C1691 1.503 . S
C1684 C1683 1.410 . S
C1684 C1685 1.392 . S
C1684 C1687 1.511 . S
C1685 C1681 1.376 . S
C1685 C1684 1.392 . S
C1685 H1697 0.929 . S
C1686 C1682 1.531 1_565 S
C1686 H1698 0.960 . S
C1686 H1699 0.962 1_565 S
C1686 H1700 0.960 . S
C1687 C1684 1.511 . S
C1687 H1701 0.961 . S
C1687 H1702 0.961 . S
C1687 H1703 0.961 1_545 S
C1688 C1689 1.370 . S
C1688 C1690 1.363 . S
C1688 H1704 0.931 . S
C1689 C1688 1.370 . S
C1689 C1693 1.408 1_545 S
C1690 C1688 1.363 . S
C1690 C1691 1.370 . S
C1690 C1694 1.524 . S
C1691 C1683 1.503 . S
C1691 C1690 1.370 . S
C1691 C1692 1.403 1_545 S
C1692 C1691 1.403 1_565 S
C1692 C1693 1.404 . S
C1692 C1695 1.539 . S
C1693 C1689 1.408 1_565 S
C1693 C1692 1.404 . S
C1693 H1705 0.930 . S
C1694 C1690 1.524 . S
C1694 H1706 0.956 . S
C1694 H1707 0.961 . S
C1694 H1708 0.961 . S
C1695 C1692 1.539 . S
C1695 H1709 0.958 . S
C1695 H1710 0.961 . S
C1695 H1711 0.960 . S
H1696 C1680 0.931 . S
H1697 C1685 0.929 . S
H1698 C1686 0.960 . S
H1699 C1686 0.962 1_545 S
H1700 C1686 0.960 . S
H1701 C1687 0.961 . S
H1702 C1687 0.961 . S
H1703 C1687 0.961 1_565 S
H1704 C1688 0.931 . S
H1705 C1693 0.930 . S
H1706 C1694 0.956 . S
H1707 C1694 0.961 . S
H1708 C1694 0.961 . S
H1709 C1695 0.958 . S
H1710 C1695 0.961 . S
H1711 C1695 0.960 . S
C1712 C1713 1.391 . S
C1712 C1714 1.394 . S
C1712 H1728 0.931 . S
C1713 C1712 1.391 . S
C1713 C1717 1.376 . S
C1714 C1712 1.394 . S
C1714 C1715 1.369 . S
C1714 C1718 1.531 . S
C1715 C1714 1.369 . S
C1715 C1716 1.410 . S
C1715 C1723 1.503 . S
C1716 C1715 1.410 . S
C1716 C1717 1.392 . S
C1716 C1719 1.511 . S
C1717 C1713 1.376 . S
C1717 C1716 1.392 . S
C1717 H1729 0.929 . S
C1718 C1714 1.531 . S
C1718 H1730 0.960 . S
C1718 H1731 0.962 . S
C1718 H1732 0.960 . S
C1719 C1716 1.511 . S
C1719 H1733 0.961 . S
C1719 H1734 0.961 . S
C1719 H1735 0.961 . S
C1720 C1721 1.370 . S
C1720 C1722 1.363 . S
C1720 H1736 0.931 . S
C1721 C1720 1.370 . S
C1721 C1725 1.408 . S
C1722 C1720 1.363 . S
C1722 C1723 1.370 . S
C1722 C1726 1.524 . S
C1723 C1715 1.503 . S
C1723 C1722 1.370 . S
C1723 C1724 1.403 . S
C1724 C1723 1.403 . S
C1724 C1725 1.404 . S
C1724 C1727 1.539 . S
C1725 C1721 1.408 . S
C1725 C1724 1.404 . S
C1725 H1737 0.930 . S
C1726 C1722 1.524 . S
C1726 H1738 0.956 . S
C1726 H1739 0.961 . S
C1726 H1740 0.961 . S
C1727 C1724 1.539 . S
C1727 H1741 0.958 . S
C1727 H1742 0.961 . S
C1727 H1743 0.960 . S
H1728 C1712 0.931 . S
H1729 C1717 0.929 . S
H1730 C1718 0.960 . S
H1731 C1718 0.962 . S
H1732 C1718 0.960 . S
H1733 C1719 0.961 . S
H1734 C1719 0.961 . S
H1735 C1719 0.961 . S
H1736 C1720 0.931 . S
H1737 C1725 0.930 . S
H1738 C1726 0.956 . S
H1739 C1726 0.961 . S
H1740 C1726 0.961 . S
H1741 C1727 0.958 . S
H1742 C1727 0.961 . S
H1743 C1727 0.960 . S
C1744 C1745 1.391 . S
C1744 C1746 1.394 . S
C1744 H1760 0.931 . S
C1745 C1744 1.391 . S
C1745 C1749 1.376 . S
C1746 C1744 1.394 . S
C1746 C1747 1.369 . S
C1746 C1750 1.531 . S
C1747 C1746 1.369 . S
C1747 C1748 1.410 . S
C1747 C1755 1.503 . S
C1748 C1747 1.410 . S
C1748 C1749 1.392 . S
C1748 C1751 1.511 . S
C1749 C1745 1.376 . S
C1749 C1748 1.392 . S
C1749 H1761 0.929 . S
C1750 C1746 1.531 . S
C1750 H1762 0.960 . S
C1750 H1763 0.962 . S
C1750 H1764 0.960 . S
C1751 C1748 1.511 . S
C1751 H1765 0.961 . S
C1751 H1766 0.961 . S
C1751 H1767 0.961 . S
C1752 C1753 1.378 . S
C1752 C1754 1.367 . S
C1752 H1768 0.919 1_545 S
C1753 C1752 1.378 . S
C1753 C1757 1.408 . S
C1754 C1752 1.367 . S
C1754 C1755 1.370 . S
C1754 C1758 1.524 1_545 S
C1755 C1747 1.503 . S
C1755 C1754 1.370 . S
C1755 C1756 1.403 . S
C1756 C1755 1.403 . S
C1756 C1757 1.404 . S
C1756 C1759 1.539 . S
C1757 C1753 1.408 . S
C1757 C1756 1.404 . S
C1757 H1769 0.930 . S
C1758 C1754 1.524 1_565 S
C1758 H1770 0.956 . S
C1758 H1771 0.961 . S
C1758 H1772 0.961 . S
C1759 C1756 1.539 . S
C1759 H1773 0.958 . S
C1759 H1774 0.961 . S
C1759 H1775 0.960 . S
H1760 C1744 0.931 . S
H1761 C1749 0.929 . S
H1762 C1750 0.960 . S
H1763 C1750 0.962 . S
H1764 C1750 0.960 . S
H1765 C1751 0.961 . S
H1766 C1751 0.961 . S
H1767 C1751 0.961 . S
H1768 C1752 0.919 1_565 S
H1769 C1757 0.930 . S
H1770 C1758 0.956 . S
H1771 C1758 0.961 . S
H1772 C1758 0.961 . S
H1773 C1759 0.958 . S
H1774 C1759 0.961 . S
H1775 C1759 0.960 . S
C1776 C1777 1.391 . S
C1776 C1778 1.394 . S
C1776 H1792 0.931 . S
C1777 C1776 1.391 . S
C1777 C1781 1.376 . S
C1778 C1776 1.394 . S
C1778 C1779 1.369 . S
C1778 C1782 1.531 . S
C1779 C1778 1.369 . S
C1779 C1780 1.410 . S
C1779 C1787 1.503 . S
C1780 C1779 1.410 . S
C1780 C1781 1.392 . S
C1780 C1783 1.511 . S
C1781 C1777 1.376 . S
C1781 C1780 1.392 . S
C1781 H1793 0.929 . S
C1782 C1778 1.531 . S
C1782 H1794 0.960 . S
C1782 H1795 0.962 . S
C1782 H1796 0.960 . S
C1783 C1780 1.511 . S
C1783 H1797 0.961 . S
C1783 H1798 0.961 . S
C1783 H1799 0.961 . S
C1784 C1785 1.370 . S
C1784 C1786 1.363 . S
C1784 H1800 0.931 . S
C1785 C1784 1.370 . S
C1785 C1789 1.408 . S
C1786 C1784 1.363 . S
C1786 C1787 1.370 . S
C1786 C1790 1.524 . S
C1787 C1779 1.503 . S
C1787 C1786 1.370 . S
C1787 C1788 1.403 . S
C1788 C1787 1.403 . S
C1788 C1789 1.404 . S
C1788 C1791 1.539 . S
C1789 C1785 1.408 . S
C1789 C1788 1.404 . S
C1789 H1801 0.930 . S
C1790 C1786 1.524 . S
C1790 H1802 0.956 . S
C1790 H1803 0.961 . S
C1790 H1804 0.961 . S
C1791 C1788 1.539 . S
C1791 H1805 0.958 . S
C1791 H1806 0.961 . S
C1791 H1807 0.960 . S
H1792 C1776 0.931 . S
H1793 C1781 0.929 . S
H1794 C1782 0.960 . S
H1795 C1782 0.962 . S
H1796 C1782 0.960 . S
H1797 C1783 0.961 . S
H1798 C1783 0.961 . S
H1799 C1783 0.961 . S
H1800 C1784 0.931 . S
H1801 C1789 0.930 . S
H1802 C1790 0.956 . S
H1803 C1790 0.961 . S
H1804 C1790 0.961 . S
H1805 C1791 0.958 . S
H1806 C1791 0.961 . S
H1807 C1791 0.960 . S
C1808 C1809 1.391 . S
C1808 C1810 1.394 . S
C1808 H1824 0.931 . S
C1809 C1808 1.391 . S
C1809 C1813 1.376 1_545 S
C1810 C1808 1.394 . S
C1810 C1811 1.369 . S
C1810 C1814 1.531 . S
C1811 C1810 1.369 . S
C1811 C1812 1.410 1_545 S
C1811 C1819 1.503 . S
C1812 C1811 1.410 1_565 S
C1812 C1813 1.392 . S
C1812 C1815 1.511 . S
C1813 C1809 1.376 1_565 S
C1813 C1812 1.392 . S
C1813 H1825 0.929 . S
C1814 C1810 1.531 . S
C1814 H1826 0.960 . S
C1814 H1827 0.962 . S
C1814 H1828 0.960 . S
C1815 C1812 1.511 . S
C1815 H1829 0.961 . S
C1815 H1830 0.961 . S
C1815 H1831 0.961 . S
C1816 C1817 1.370 . S
C1816 C1818 1.363 . S
C1816 H1832 0.931 . S
C1817 C1816 1.370 . S
C1817 C1821 1.408 . S
C1818 C1816 1.363 . S
C1818 C1819 1.370 . S
C1818 C1822 1.524 . S
C1819 C1811 1.503 . S
C1819 C1818 1.370 . S
C1819 C1820 1.403 . S
C1820 C1819 1.403 . S
C1820 C1821 1.404 . S
C1820 C1823 1.539 . S
C1821 C1817 1.408 . S
C1821 C1820 1.404 . S
C1821 H1833 0.930 . S
C1822 C1818 1.524 . S
C1822 H1834 0.956 . S
C1822 H1835 0.961 1_545 S
C1822 H1836 0.961 1_545 S
C1823 C1820 1.539 . S
C1823 H1837 0.958 . S
C1823 H1838 0.961 . S
C1823 H1839 0.960 . S
H1824 C1808 0.931 . S
H1825 C1813 0.929 . S
H1826 C1814 0.960 . S
H1827 C1814 0.962 . S
H1828 C1814 0.960 . S
H1829 C1815 0.961 . S
H1830 C1815 0.961 . S
H1831 C1815 0.961 . S
H1832 C1816 0.931 . S
H1833 C1821 0.930 . S
H1834 C1822 0.956 . S
H1835 C1822 0.961 1_565 S
H1836 C1822 0.961 1_565 S
H1837 C1823 0.958 . S
H1838 C1823 0.961 . S
H1839 C1823 0.960 . S
C1840 C1841 1.391 . S
C1840 C1842 1.394 . S
C1840 H1856 0.931 . S
C1841 C1840 1.391 . S
C1841 C1845 1.376 . S
C1842 C1840 1.394 . S
C1842 C1843 1.369 . S
C1842 C1846 1.531 . S
C1843 C1842 1.369 . S
C1843 C1844 1.410 . S
C1843 C1851 1.503 . S
C1844 C1843 1.410 . S
C1844 C1845 1.392 . S
C1844 C1847 1.511 . S
C1845 C1841 1.376 . S
C1845 C1844 1.392 . S
C1845 H1857 0.929 . S
C1846 C1842 1.531 . S
C1846 H1858 0.960 . S
C1846 H1859 0.962 . S
C1846 H1860 0.960 . S
C1847 C1844 1.511 . S
C1847 H1861 0.961 . S
C1847 H1862 0.961 . S
C1847 H1863 0.961 . S
C1848 C1849 1.370 . S
C1848 C1850 1.363 . S
C1848 H1864 0.931 . S
C1849 C1848 1.370 . S
C1849 C1853 1.408 . S
C1850 C1848 1.363 . S
C1850 C1851 1.370 . S
C1850 C1854 1.524 . S
C1851 C1843 1.503 . S
C1851 C1850 1.370 . S
C1851 C1852 1.403 . S
C1852 C1851 1.403 . S
C1852 C1853 1.404 . S
C1852 C1855 1.539 . S
C1853 C1849 1.408 . S
C1853 C1852 1.404 . S
C1853 H1865 0.930 . S
C1854 C1850 1.524 . S
C1854 H1866 0.956 . S
C1854 H1867 0.961 . S
C1854 H1868 0.961 . S
C1855 C1852 1.539 . S
C1855 H1869 0.958 . S
C1855 H1870 0.961 . S
C1855 H1871 0.960 . S
H1856 C1840 0.931 . S
H1857 C1845 0.929 . S
H1858 C1846 0.960 . S
H1859 C1846 0.962 . S
H1860 C1846 0.960 . S
H1861 C1847 0.961 . S
H1862 C1847 0.961 . S
H1863 C1847 0.961 . S
H1864 C1848 0.931 . S
H1865 C1853 0.930 . S
H1866 C1854 0.956 . S
H1867 C1854 0.961 . S
H1868 C1854 0.961 . S
H1869 C1855 0.958 . S
H1870 C1855 0.961 . S
H1871 C1855 0.960 . S
C1872 C1873 1.391 1_565 S
C1872 C1874 1.394 . S
C1872 H1888 0.931 . S
C1873 C1872 1.391 1_545 S
C1873 C1877 1.376 . S
C1874 C1872 1.394 . S
C1874 C1875 1.369 1_565 S
C1874 C1878 1.531 . S
C1875 C1874 1.369 1_545 S
C1875 C1876 1.410 . S
C1875 C1883 1.503 . S
C1876 C1875 1.410 . S
C1876 C1877 1.392 . S
C1876 C1879 1.511 . S
C1877 C1873 1.376 . S
C1877 C1876 1.392 . S
C1877 H1889 0.929 . S
C1878 C1874 1.531 . S
C1878 H1890 0.960 . S
C1878 H1891 0.962 . S
C1878 H1892 0.960 . S
C1879 C1876 1.511 . S
C1879 H1893 0.961 . S
C1879 H1894 0.961 . S
C1879 H1895 0.961 . S
C1880 C1881 1.359 1_565 S
C1880 C1882 1.361 1_565 S
C1880 H1896 0.937 . S
C1881 C1880 1.359 1_545 S
C1881 C1885 1.425 . S
C1882 C1880 1.361 1_545 S
C1882 C1883 1.370 . S
C1882 C1886 1.524 . S
C1883 C1875 1.503 . S
C1883 C1882 1.370 . S
C1883 C1884 1.403 . S
C1884 C1883 1.403 . S
C1884 C1885 1.404 . S
C1884 C1887 1.539 . S
C1885 C1881 1.425 . S
C1885 C1884 1.404 . S
C1885 H1897 0.930 . S
C1886 C1882 1.524 . S
C1886 H1898 0.956 1_545 S
C1886 H1899 0.961 . S
C1886 H1900 0.961 . S
C1887 C1884 1.539 . S
C1887 H1901 0.958 . S
C1887 H1902 0.961 . S
C1887 H1903 0.960 . S
H1888 C1872 0.931 . S
H1889 C1877 0.929 . S
H1890 C1878 0.960 . S
H1891 C1878 0.962 . S
H1892 C1878 0.960 . S
H1893 C1879 0.961 . S
H1894 C1879 0.961 . S
H1895 C1879 0.961 . S
H1896 C1880 0.937 . S
H1897 C1885 0.930 . S
H1898 C1886 0.956 1_565 S
H1899 C1886 0.961 . S
H1900 C1886 0.961 . S
H1901 C1887 0.958 . S
H1902 C1887 0.961 . S
H1903 C1887 0.960 . S
C1904 C1905 1.391 . S
C1904 C1906 1.394 . S
C1904 H1920 0.931 . S
C1905 C1904 1.391 . S
C1905 C1909 1.376 . S
C1906 C1904 1.394 . S
C1906 C1907 1.369 . S
C1906 C1910 1.531 . S
C1907 C1906 1.369 . S
C1907 C1908 1.410 . S
C1907 C1915 1.503 . S
C1908 C1907 1.410 . S
C1908 C1909 1.392 . S
C1908 C1911 1.511 . S
C1909 C1905 1.376 . S
C1909 C1908 1.392 . S
C1909 H1921 0.929 . S
C1910 C1906 1.531 . S
C1910 H1922 0.960 . S
C1910 H1923 0.962 . S
C1910 H1924 0.960 . S
C1911 C1908 1.511 . S
C1911 H1925 0.961 . S
C1911 H1926 0.961 . S
C1911 H1927 0.961 . S
C1912 C1913 1.370 . S
C1912 C1914 1.363 . S
C1912 H1928 0.931 . S
C1913 C1912 1.370 . S
C1913 C1917 1.408 . S
C1914 C1912 1.363 . S
C1914 C1915 1.370 . S
C1914 C1918 1.524 . S
C1915 C1907 1.503 . S
C1915 C1914 1.370 . S
C1915 C1916 1.403 . S
C1916 C1915 1.403 . S
C1916 C1917 1.404 . S
C1916 C1919 1.539 . S
C1917 C1913 1.408 . S
C1917 C1916 1.404 . S
C1917 H1929 0.930 . S
C1918 C1914 1.524 . S
C1918 H1930 0.956 . S
C1918 H1931 0.961 . S
C1918 H1932 0.961 . S
C1919 C1916 1.539 . S
C1919 H1933 0.958 . S
C1919 H1934 0.961 . S
C1919 H1935 0.960 . S
H1920 C1904 0.931 . S
H1921 C1909 0.929 . S
H1922 C1910 0.960 . S
H1923 C1910 0.962 . S
H1924 C1910 0.960 . S
H1925 C1911 0.961 . S
H1926 C1911 0.961 . S
H1927 C1911 0.961 . S
H1928 C1912 0.931 . S
H1929 C1917 0.930 . S
H1930 C1918 0.956 . S
H1931 C1918 0.961 . S
H1932 C1918 0.961 . S
H1933 C1919 0.958 . S
H1934 C1919 0.961 . S
H1935 C1919 0.960 . S
C1936 C1937 1.391 . S
C1936 C1938 1.394 . S
C1936 H1952 0.931 . S
C1937 C1936 1.391 . S
C1937 C1941 1.376 . S
C1938 C1936 1.394 . S
C1938 C1939 1.369 . S
C1938 C1942 1.531 . S
C1939 C1938 1.369 . S
C1939 C1940 1.410 . S
C1939 C1947 1.503 . S
C1940 C1939 1.410 . S
C1940 C1941 1.392 . S
C1940 C1943 1.513 . S
C1941 C1937 1.376 . S
C1941 C1940 1.392 . S
C1941 H1953 0.929 . S
C1942 C1938 1.531 . S
C1942 H1954 0.960 . S
C1942 H1955 0.962 . S
C1942 H1956 0.960 . S
C1943 C1940 1.513 . S
C1943 H1957 0.958 1_554 S
C1943 H1958 0.959 1_554 S
C1943 H1959 0.964 . S
C1944 C1945 1.370 1_556 S
C1944 C1946 1.363 . S
C1944 H1960 0.931 . S
C1945 C1944 1.370 1_554 S
C1945 C1949 1.408 . S
C1946 C1944 1.363 . S
C1946 C1947 1.370 1_556 S
C1946 C1950 1.524 . S
C1947 C1939 1.503 . S
C1947 C1946 1.370 1_554 S
C1947 C1948 1.403 . S
C1948 C1947 1.403 . S
C1948 C1949 1.404 . S
C1948 C1951 1.539 . S
C1949 C1945 1.408 . S
C1949 C1948 1.404 . S
C1949 H1961 0.930 . S
C1950 C1946 1.524 . S
C1950 H1962 0.956 . S
C1950 H1963 0.961 . S
C1950 H1964 0.961 . S
C1951 C1948 1.539 . S
C1951 H1965 0.958 . S
C1951 H1966 0.961 . S
C1951 H1967 0.960 . S
H1952 C1936 0.931 . S
H1953 C1941 0.929 . S
H1954 C1942 0.960 . S
H1955 C1942 0.962 . S
H1956 C1942 0.960 . S
H1957 C1943 0.958 1_556 S
H1958 C1943 0.959 1_556 S
H1959 C1943 0.964 . S
H1960 C1944 0.931 . S
H1961 C1949 0.930 . S
H1962 C1950 0.956 . S
H1963 C1950 0.961 . S
H1964 C1950 0.961 . S
H1965 C1951 0.958 . S
H1966 C1951 0.961 . S
H1967 C1951 0.960 . S
C1968 C1969 1.391 . S
C1968 C1970 1.394 . S
C1968 H1984 0.931 . S
C1969 C1968 1.391 . S
C1969 C1973 1.376 . S
C1970 C1968 1.394 . S
C1970 C1971 1.369 . S
C1970 C1974 1.531 . S
C1971 C1970 1.369 . S
C1971 C1972 1.410 . S
C1971 C1979 1.503 . S
C1972 C1971 1.410 . S
C1972 C1973 1.392 . S
C1972 C1975 1.511 . S
C1973 C1969 1.376 . S
C1973 C1972 1.392 . S
C1973 H1985 0.929 . S
C1974 C1970 1.531 . S
C1974 H1986 0.960 . S
C1974 H1987 0.962 . S
C1974 H1988 0.960 . S
C1975 C1972 1.511 . S
C1975 H1989 0.961 1_554 S
C1975 H1990 0.961 1_554 S
C1975 H1991 0.961 . S
C1976 C1977 1.370 . S
C1976 C1978 1.363 . S
C1976 H1992 0.931 . S
C1977 C1976 1.370 . S
C1977 C1981 1.408 . S
C1978 C1976 1.363 . S
C1978 C1979 1.370 . S
C1978 C1982 1.524 . S
C1979 C1971 1.503 . S
C1979 C1978 1.370 . S
C1979 C1980 1.403 . S
C1980 C1979 1.403 . S
C1980 C1981 1.404 . S
C1980 C1983 1.539 . S
C1981 C1977 1.408 . S
C1981 C1980 1.404 . S
C1981 H1993 0.930 . S
C1982 C1978 1.524 . S
C1982 H1994 0.956 . S
C1982 H1995 0.961 . S
C1982 H1996 0.961 . S
C1983 C1980 1.539 . S
C1983 H1997 0.958 . S
C1983 H1998 0.961 . S
C1983 H1999 0.960 . S
H1984 C1968 0.931 . S
H1985 C1973 0.929 . S
H1986 C1974 0.960 . S
H1987 C1974 0.962 . S
H1988 C1974 0.960 . S
H1989 C1975 0.961 1_556 S
H1990 C1975 0.961 1_556 S
H1991 C1975 0.961 . S
H1992 C1976 0.931 . S
H1993 C1981 0.930 . S
H1994 C1982 0.956 . S
H1995 C1982 0.961 . S
H1996 C1982 0.961 . S
H1997 C1983 0.958 . S
H1998 C1983 0.961 . S
H1999 C1983 0.960 . S
C2000 C2001 1.391 . S
C2000 C2002 1.394 . S
C2000 H2016 0.931 . S
C2001 C2000 1.391 . S
C2001 C2005 1.376 . S
C2002 C2000 1.394 . S
C2002 C2003 1.369 . S
C2002 C2006 1.531 . S
C2003 C2002 1.369 . S
C2003 C2004 1.410 . S
C2003 C2011 1.503 . S
C2004 C2003 1.410 . S
C2004 C2005 1.392 . S
C2004 C2007 1.511 . S
C2005 C2001 1.376 . S
C2005 C2004 1.392 . S
C2005 H2017 0.929 . S
C2006 C2002 1.531 . S
C2006 H2018 0.960 . S
C2006 H2019 0.962 . S
C2006 H2020 0.960 . S
C2007 C2004 1.511 . S
C2007 H2021 0.961 . S
C2007 H2022 0.961 . S
C2007 H2023 0.961 . S
C2008 C2009 1.370 . S
C2008 C2010 1.363 . S
C2008 H2024 0.931 . S
C2009 C2008 1.370 . S
C2009 C2013 1.408 . S
C2010 C2008 1.363 . S
C2010 C2011 1.370 . S
C2010 C2014 1.524 . S
C2011 C2003 1.503 . S
C2011 C2010 1.370 . S
C2011 C2012 1.403 . S
C2012 C2011 1.403 . S
C2012 C2013 1.404 . S
C2012 C2015 1.539 . S
C2013 C2009 1.408 . S
C2013 C2012 1.404 . S
C2013 H2025 0.930 . S
C2014 C2010 1.524 . S
C2014 H2026 0.956 . S
C2014 H2027 0.961 . S
C2014 H2028 0.961 . S
C2015 C2012 1.539 . S
C2015 H2029 0.958 . S
C2015 H2030 0.961 . S
C2015 H2031 0.960 . S
H2016 C2000 0.931 . S
H2017 C2005 0.929 . S
H2018 C2006 0.960 . S
H2019 C2006 0.962 . S
H2020 C2006 0.960 . S
H2021 C2007 0.961 . S
H2022 C2007 0.961 . S
H2023 C2007 0.961 . S
H2024 C2008 0.931 . S
H2025 C2013 0.930 . S
H2026 C2014 0.956 . S
H2027 C2014 0.961 . S
H2028 C2014 0.961 . S
H2029 C2015 0.958 . S
H2030 C2015 0.961 . S
H2031 C2015 0.960 . S
C2032 C2033 1.391 . S
C2032 C2034 1.394 . S
C2032 H2048 0.931 . S
C2033 C2032 1.391 . S
C2033 C2037 1.376 . S
C2034 C2032 1.394 . S
C2034 C2035 1.369 . S
C2034 C2038 1.531 . S
C2035 C2034 1.369 . S
C2035 C2036 1.410 . S
C2035 C2043 1.503 . S
C2036 C2035 1.410 . S
C2036 C2037 1.392 . S
C2036 C2039 1.511 . S
C2037 C2033 1.376 . S
C2037 C2036 1.392 . S
C2037 H2049 0.929 . S
C2038 C2034 1.531 . S
C2038 H2050 0.960 . S
C2038 H2051 0.962 . S
C2038 H2052 0.960 . S
C2039 C2036 1.511 . S
C2039 H2053 0.961 . S
C2039 H2054 0.961 . S
C2039 H2055 0.961 . S
C2040 C2041 1.370 . S
C2040 C2042 1.363 . S
C2040 H2056 0.931 . S
C2041 C2040 1.370 . S
C2041 C2045 1.408 . S
C2042 C2040 1.363 . S
C2042 C2043 1.370 . S
C2042 C2046 1.524 . S
C2043 C2035 1.503 . S
C2043 C2042 1.370 . S
C2043 C2044 1.403 . S
C2044 C2043 1.403 . S
C2044 C2045 1.404 . S
C2044 C2047 1.539 . S
C2045 C2041 1.408 . S
C2045 C2044 1.404 . S
C2045 H2057 0.930 . S
C2046 C2042 1.524 . S
C2046 H2058 0.956 . S
C2046 H2059 0.961 . S
C2046 H2060 0.961 . S
C2047 C2044 1.539 . S
C2047 H2061 0.958 . S
C2047 H2062 0.961 . S
C2047 H2063 0.960 . S
H2048 C2032 0.931 . S
H2049 C2037 0.929 . S
H2050 C2038 0.960 . S
H2051 C2038 0.962 . S
H2052 C2038 0.960 . S
H2053 C2039 0.961 . S
H2054 C2039 0.961 . S
H2055 C2039 0.961 . S
H2056 C2040 0.931 . S
H2057 C2045 0.930 . S
H2058 C2046 0.956 . S
H2059 C2046 0.961 . S
H2060 C2046 0.961 . S
H2061 C2047 0.958 . S
H2062 C2047 0.961 . S
H2063 C2047 0.960 . S
C2064 C2065 1.391 . S
C2064 C2066 1.394 . S
C2064 H2080 0.931 . S
C2065 C2064 1.391 . S
C2065 C2069 1.376 . S
C2066 C2064 1.394 . S
C2066 C2067 1.369 . S
C2066 C2070 1.531 . S
C2067 C2066 1.369 . S
C2067 C2068 1.410 . S
C2067 C2075 1.503 . S
C2068 C2067 1.410 . S
C2068 C2069 1.392 . S
C2068 C2071 1.511 . S
C2069 C2065 1.376 . S
C2069 C2068 1.392 . S
C2069 H2081 0.929 . S
C2070 C2066 1.531 . S
C2070 H2082 0.960 . S
C2070 H2083 0.962 . S
C2070 H2084 0.960 . S
C2071 C2068 1.511 . S
C2071 H2085 0.961 . S
C2071 H2086 0.961 . S
C2071 H2087 0.961 . S
C2072 C2073 1.370 . S
C2072 C2074 1.363 . S
C2072 H2088 0.931 . S
C2073 C2072 1.370 . S
C2073 C2077 1.408 . S
C2074 C2072 1.363 . S
C2074 C2075 1.370 . S
C2074 C2078 1.524 . S
C2075 C2067 1.503 . S
C2075 C2074 1.370 . S
C2075 C2076 1.403 . S
C2076 C2075 1.403 . S
C2076 C2077 1.404 . S
C2076 C2079 1.539 . S
C2077 C2073 1.408 . S
C2077 C2076 1.404 . S
C2077 H2089 0.930 . S
C2078 C2074 1.524 . S
C2078 H2090 0.956 . S
C2078 H2091 0.961 . S
C2078 H2092 0.961 . S
C2079 C2076 1.539 . S
C2079 H2093 0.958 . S
C2079 H2094 0.961 . S
C2079 H2095 0.960 . S
H2080 C2064 0.931 . S
H2081 C2069 0.929 . S
H2082 C2070 0.960 . S
H2083 C2070 0.962 . S
H2084 C2070 0.960 . S
H2085 C2071 0.961 . S
H2086 C2071 0.961 . S
H2087 C2071 0.961 . S
H2088 C2072 0.931 . S
H2089 C2077 0.930 . S
H2090 C2078 0.956 . S
H2091 C2078 0.961 . S
H2092 C2078 0.961 . S
H2093 C2079 0.958 . S
H2094 C2079 0.961 . S
H2095 C2079 0.960 . S
C2096 C2097 1.391 . S
C2096 C2098 1.394 . S
C2096 H2112 0.931 . S
C2097 C2096 1.391 . S
C2097 C2101 1.376 . S
C2098 C2096 1.394 . S
C2098 C2099 1.369 . S
C2098 C2102 1.531 . S
C2099 C2098 1.369 . S
C2099 C2100 1.410 . S
C2099 C2107 1.503 . S
C2100 C2099 1.410 . S
C2100 C2101 1.392 . S
C2100 C2103 1.511 . S
C2101 C2097 1.376 . S
C2101 C2100 1.392 . S
C2101 H2113 0.929 . S
C2102 C2098 1.531 . S
C2102 H2114 0.960 . S
C2102 H2115 0.962 . S
C2102 H2116 0.960 . S
C2103 C2100 1.511 . S
C2103 H2117 0.961 . S
C2103 H2118 0.961 . S
C2103 H2119 0.961 . S
C2104 C2105 1.370 . S
C2104 C2106 1.363 . S
C2104 H2120 0.931 . S
C2105 C2104 1.370 . S
C2105 C2109 1.408 . S
C2106 C2104 1.363 . S
C2106 C2107 1.370 . S
C2106 C2110 1.524 . S
C2107 C2099 1.503 . S
C2107 C2106 1.370 . S
C2107 C2108 1.403 . S
C2108 C2107 1.403 . S
C2108 C2109 1.404 . S
C2108 C2111 1.539 . S
C2109 C2105 1.408 . S
C2109 C2108 1.404 . S
C2109 H2121 0.930 . S
C2110 C2106 1.524 . S
C2110 H2122 0.956 . S
C2110 H2123 0.961 . S
C2110 H2124 0.961 . S
C2111 C2108 1.539 . S
C2111 H2125 0.958 . S
C2111 H2126 0.961 . S
C2111 H2127 0.960 . S
H2112 C2096 0.931 . S
H2113 C2101 0.929 . S
H2114 C2102 0.960 . S
H2115 C2102 0.962 . S
H2116 C2102 0.960 . S
H2117 C2103 0.961 . S
H2118 C2103 0.961 . S
H2119 C2103 0.961 . S
H2120 C2104 0.931 . S
H2121 C2109 0.930 . S
H2122 C2110 0.956 . S
H2123 C2110 0.961 . S
H2124 C2110 0.961 . S
H2125 C2111 0.958 . S
H2126 C2111 0.961 . S
H2127 C2111 0.960 . S
C2128 C2129 1.391 . S
C2128 C2130 1.394 . S
C2128 H2144 0.931 . S
C2129 C2128 1.391 . S
C2129 C2133 1.376 . S
C2130 C2128 1.394 . S
C2130 C2131 1.369 . S
C2130 C2134 1.531 . S
C2131 C2130 1.369 . S
C2131 C2132 1.410 . S
C2131 C2139 1.503 . S
C2132 C2131 1.410 . S
C2132 C2133 1.392 . S
C2132 C2135 1.511 . S
C2133 C2129 1.376 . S
C2133 C2132 1.392 . S
C2133 H2145 0.929 . S
C2134 C2130 1.531 . S
C2134 H2146 0.960 . S
C2134 H2147 0.962 . S
C2134 H2148 0.960 . S
C2135 C2132 1.511 . S
C2135 H2149 0.961 . S
C2135 H2150 0.961 . S
C2135 H2151 0.961 . S
C2136 C2137 1.370 . S
C2136 C2138 1.363 . S
C2136 H2152 0.931 . S
C2137 C2136 1.370 . S
C2137 C2141 1.408 . S
C2138 C2136 1.363 . S
C2138 C2139 1.370 . S
C2138 C2142 1.524 . S
C2139 C2131 1.503 . S
C2139 C2138 1.370 . S
C2139 C2140 1.403 . S
C2140 C2139 1.403 . S
C2140 C2141 1.404 . S
C2140 C2143 1.539 . S
C2141 C2137 1.408 . S
C2141 C2140 1.404 . S
C2141 H2153 0.930 . S
C2142 C2138 1.524 . S
C2142 H2154 0.956 . S
C2142 H2155 0.961 . S
C2142 H2156 0.961 . S
C2143 C2140 1.539 . S
C2143 H2157 0.958 . S
C2143 H2158 0.961 . S
C2143 H2159 0.960 . S
H2144 C2128 0.931 . S
H2145 C2133 0.929 . S
H2146 C2134 0.960 . S
H2147 C2134 0.962 . S
H2148 C2134 0.960 . S
H2149 C2135 0.961 . S
H2150 C2135 0.961 . S
H2151 C2135 0.961 . S
H2152 C2136 0.931 . S
H2153 C2141 0.930 . S
H2154 C2142 0.956 . S
H2155 C2142 0.961 . S
H2156 C2142 0.961 . S
H2157 C2143 0.958 . S
H2158 C2143 0.961 . S
H2159 C2143 0.960 . S
C2160 C2161 1.391 . S
C2160 C2162 1.394 . S
C2160 H2176 0.931 . S
C2161 C2160 1.391 . S
C2161 C2165 1.376 . S
C2162 C2160 1.394 . S
C2162 C2163 1.369 . S
C2162 C2166 1.531 . S
C2163 C2162 1.369 . S
C2163 C2164 1.410 . S
C2163 C2171 1.503 . S
C2164 C2163 1.410 . S
C2164 C2165 1.392 . S
C2164 C2167 1.511 . S
C2165 C2161 1.376 . S
C2165 C2164 1.392 . S
C2165 H2177 0.929 . S
C2166 C2162 1.531 . S
C2166 H2178 0.960 . S
C2166 H2179 0.962 . S
C2166 H2180 0.960 . S
C2167 C2164 1.511 . S
C2167 H2181 0.961 . S
C2167 H2182 0.961 . S
C2167 H2183 0.961 . S
C2168 C2169 1.370 . S
C2168 C2170 1.363 . S
C2168 H2184 0.931 . S
C2169 C2168 1.370 . S
C2169 C2173 1.408 . S
C2170 C2168 1.363 . S
C2170 C2171 1.370 . S
C2170 C2174 1.524 . S
C2171 C2163 1.503 . S
C2171 C2170 1.370 . S
C2171 C2172 1.403 . S
C2172 C2171 1.403 . S
C2172 C2173 1.404 . S
C2172 C2175 1.539 . S
C2173 C2169 1.408 . S
C2173 C2172 1.404 . S
C2173 H2185 0.930 . S
C2174 C2170 1.524 . S
C2174 H2186 0.956 . S
C2174 H2187 0.961 . S
C2174 H2188 0.961 . S
C2175 C2172 1.539 . S
C2175 H2189 0.958 . S
C2175 H2190 0.961 . S
C2175 H2191 0.960 . S
H2176 C2160 0.931 . S
H2177 C2165 0.929 . S
H2178 C2166 0.960 . S
H2179 C2166 0.962 . S
H2180 C2166 0.960 . S
H2181 C2167 0.961 . S
H2182 C2167 0.961 . S
H2183 C2167 0.961 . S
H2184 C2168 0.931 . S
H2185 C2173 0.930 . S
H2186 C2174 0.956 . S
H2187 C2174 0.961 . S
H2188 C2174 0.961 . S
H2189 C2175 0.958 . S
H2190 C2175 0.961 . S
H2191 C2175 0.960 . S
C2192 C2193 1.391 . S
C2192 C2194 1.394 . S
C2192 H2208 0.931 . S
C2193 C2192 1.391 . S
C2193 C2197 1.376 . S
C2194 C2192 1.394 . S
C2194 C2195 1.369 . S
C2194 C2198 1.531 . S
C2195 C2194 1.369 . S
C2195 C2196 1.410 . S
C2195 C2203 1.503 . S
C2196 C2195 1.410 . S
C2196 C2197 1.392 . S
C2196 C2199 1.511 . S
C2197 C2193 1.376 . S
C2197 C2196 1.392 . S
C2197 H2209 0.929 . S
C2198 C2194 1.531 . S
C2198 H2210 0.960 . S
C2198 H2211 0.962 . S
C2198 H2212 0.960 . S
C2199 C2196 1.511 . S
C2199 H2213 0.961 . S
C2199 H2214 0.961 . S
C2199 H2215 0.961 . S
C2200 C2201 1.370 . S
C2200 C2202 1.363 . S
C2200 H2216 0.931 . S
C2201 C2200 1.370 . S
C2201 C2205 1.408 . S
C2202 C2200 1.363 . S
C2202 C2203 1.370 . S
C2202 C2206 1.524 . S
C2203 C2195 1.503 . S
C2203 C2202 1.370 . S
C2203 C2204 1.403 . S
C2204 C2203 1.403 . S
C2204 C2205 1.404 . S
C2204 C2207 1.539 . S
C2205 C2201 1.408 . S
C2205 C2204 1.404 . S
C2205 H2217 0.930 . S
C2206 C2202 1.524 . S
C2206 H2218 0.956 . S
C2206 H2219 0.961 . S
C2206 H2220 0.961 . S
C2207 C2204 1.539 . S
C2207 H2221 0.958 . S
C2207 H2222 0.961 . S
C2207 H2223 0.960 . S
H2208 C2192 0.931 . S
H2209 C2197 0.929 . S
H2210 C2198 0.960 . S
H2211 C2198 0.962 . S
H2212 C2198 0.960 . S
H2213 C2199 0.961 . S
H2214 C2199 0.961 . S
H2215 C2199 0.961 . S
H2216 C2200 0.931 . S
H2217 C2205 0.930 . S
H2218 C2206 0.956 . S
H2219 C2206 0.961 . S
H2220 C2206 0.961 . S
H2221 C2207 0.958 . S
H2222 C2207 0.961 . S
H2223 C2207 0.960 . S
C2224 C2225 1.391 . S
C2224 C2226 1.394 . S
C2224 H2240 0.931 . S
C2225 C2224 1.391 . S
C2225 C2229 1.376 . S
C2226 C2224 1.394 . S
C2226 C2227 1.369 . S
C2226 C2230 1.531 . S
C2227 C2226 1.369 . S
C2227 C2228 1.410 . S
C2227 C2235 1.503 . S
C2228 C2227 1.410 . S
C2228 C2229 1.392 . S
C2228 C2231 1.511 . S
C2229 C2225 1.376 . S
C2229 C2228 1.392 . S
C2229 H2241 0.929 . S
C2230 C2226 1.531 . S
C2230 H2242 0.960 . S
C2230 H2243 0.962 . S
C2230 H2244 0.960 . S
C2231 C2228 1.511 . S
C2231 H2245 0.961 . S
C2231 H2246 0.961 . S
C2231 H2247 0.961 . S
C2232 C2233 1.370 . S
C2232 C2234 1.363 . S
C2232 H2248 0.931 . S
C2233 C2232 1.370 . S
C2233 C2237 1.408 . S
C2234 C2232 1.363 . S
C2234 C2235 1.370 . S
C2234 C2238 1.524 . S
C2235 C2227 1.503 . S
C2235 C2234 1.370 . S
C2235 C2236 1.403 . S
C2236 C2235 1.403 . S
C2236 C2237 1.404 . S
C2236 C2239 1.539 . S
C2237 C2233 1.408 . S
C2237 C2236 1.404 . S
C2237 H2249 0.930 . S
C2238 C2234 1.524 . S
C2238 H2250 0.956 . S
C2238 H2251 0.961 . S
C2238 H2252 0.961 . S
C2239 C2236 1.539 . S
C2239 H2253 0.958 . S
C2239 H2254 0.961 . S
C2239 H2255 0.960 . S
H2240 C2224 0.931 . S
H2241 C2229 0.929 . S
H2242 C2230 0.960 . S
H2243 C2230 0.962 . S
H2244 C2230 0.960 . S
H2245 C2231 0.961 . S
H2246 C2231 0.961 . S
H2247 C2231 0.961 . S
H2248 C2232 0.931 . S
H2249 C2237 0.930 . S
H2250 C2238 0.956 . S
H2251 C2238 0.961 . S
H2252 C2238 0.961 . S
H2253 C2239 0.958 . S
H2254 C2239 0.961 . S
H2255 C2239 0.960 . S
C2256 C2257 1.391 1_655 S
C2256 C2258 1.394 . S
C2256 H2272 0.931 . S
C2257 C2256 1.391 1_455 S
C2257 C2261 1.376 . S
C2258 C2256 1.394 . S
C2258 C2259 1.369 1_655 S
C2258 C2262 1.531 . S
C2259 C2258 1.369 1_455 S
C2259 C2260 1.410 . S
C2259 C2267 1.503 . S
C2260 C2259 1.410 . S
C2260 C2261 1.392 . S
C2260 C2263 1.511 . S
C2261 C2257 1.376 . S
C2261 C2260 1.392 . S
C2261 H2273 0.929 . S
C2262 C2258 1.531 . S
C2262 H2274 0.960 . S
C2262 H2275 0.962 . S
C2262 H2276 0.960 . S
C2263 C2260 1.511 . S
C2263 H2277 0.961 . S
C2263 H2278 0.961 . S
C2263 H2279 0.961 . S
C2264 C2265 1.370 . S
C2264 C2266 1.363 . S
C2264 H2280 0.931 . S
C2265 C2264 1.370 . S
C2265 C2269 1.408 1_556 S
C2266 C2264 1.363 . S
C2266 C2267 1.370 . S
C2266 C2270 1.524 . S
C2267 C2259 1.503 . S
C2267 C2266 1.370 . S
C2267 C2268 1.403 . S
C2268 C2267 1.403 . S
C2268 C2269 1.404 1_556 S
C2268 C2271 1.539 1_456 S
C2269 C2265 1.408 1_554 S
C2269 C2268 1.404 1_554 S
C2269 H2281 0.936 . S
C2270 C2266 1.524 . S
C2270 H2282 0.948 1_455 S
C2270 H2283 0.961 . S
C2270 H2284 0.961 . S
C2271 C2268 1.539 1_654 S
C2271 H2285 1.001 . S
C2271 H2286 0.949 1_655 S
C2271 H2287 0.932 1_655 S
H2272 C2256 0.931 . S
H2273 C2261 0.929 . S
H2274 C2262 0.960 . S
H2275 C2262 0.962 . S
H2276 C2262 0.960 . S
H2277 C2263 0.961 . S
H2278 C2263 0.961 . S
H2279 C2263 0.961 . S
H2280 C2264 0.931 . S
H2281 C2269 0.936 . S
H2282 C2270 0.948 1_655 S
H2283 C2270 0.961 . S
H2284 C2270 0.961 . S
H2285 C2271 1.001 . S
H2286 C2271 0.949 1_455 S
H2287 C2271 0.932 1_455 S
C2288 C2289 1.391 . S
C2288 C2290 1.394 . S
C2288 H2304 0.931 . S
C2289 C2288 1.391 . S
C2289 C2293 1.376 . S
C2290 C2288 1.394 . S
C2290 C2291 1.369 . S
C2290 C2294 1.531 . S
C2291 C2290 1.369 . S
C2291 C2292 1.410 . S
C2291 C2299 1.503 . S
C2292 C2291 1.410 . S
C2292 C2293 1.392 . S
C2292 C2295 1.511 . S
C2293 C2289 1.376 . S
C2293 C2292 1.392 . S
C2293 H2305 0.929 . S
C2294 C2290 1.531 . S
C2294 H2306 0.960 . S
C2294 H2307 0.962 . S
C2294 H2308 0.960 . S
C2295 C2292 1.511 . S
C2295 H2309 0.961 . S
C2295 H2310 0.961 . S
C2295 H2311 0.961 . S
C2296 C2297 1.370 . S
C2296 C2298 1.363 . S
C2296 H2312 0.931 . S
C2297 C2296 1.370 . S
C2297 C2301 1.408 . S
C2298 C2296 1.363 . S
C2298 C2299 1.370 . S
C2298 C2302 1.524 . S
C2299 C2291 1.503 . S
C2299 C2298 1.370 . S
C2299 C2300 1.403 . S
C2300 C2299 1.403 . S
C2300 C2301 1.404 . S
C2300 C2303 1.539 . S
C2301 C2297 1.408 . S
C2301 C2300 1.404 . S
C2301 H2313 0.930 . S
C2302 C2298 1.524 . S
C2302 H2314 0.956 . S
C2302 H2315 0.961 . S
C2302 H2316 0.961 . S
C2303 C2300 1.539 . S
C2303 H2317 0.958 . S
C2303 H2318 0.961 . S
C2303 H2319 0.960 . S
H2304 C2288 0.931 . S
H2305 C2293 0.929 . S
H2306 C2294 0.960 . S
H2307 C2294 0.962 . S
H2308 C2294 0.960 . S
H2309 C2295 0.961 . S
H2310 C2295 0.961 . S
H2311 C2295 0.961 . S
H2312 C2296 0.931 . S
H2313 C2301 0.930 . S
H2314 C2302 0.956 . S
H2315 C2302 0.961 . S
H2316 C2302 0.961 . S
H2317 C2303 0.958 . S
H2318 C2303 0.961 . S
H2319 C2303 0.960 . S
C2320 C2321 1.391 . S
C2320 C2322 1.394 . S
C2320 H2336 0.931 . S
C2321 C2320 1.391 . S
C2321 C2325 1.376 . S
C2322 C2320 1.394 . S
C2322 C2323 1.369 . S
C2322 C2326 1.531 . S
C2323 C2322 1.369 . S
C2323 C2324 1.410 . S
C2323 C2331 1.503 . S
C2324 C2323 1.410 . S
C2324 C2325 1.392 . S
C2324 C2327 1.511 . S
C2325 C2321 1.376 . S
C2325 C2324 1.392 . S
C2325 H2337 0.929 . S
C2326 C2322 1.531 . S
C2326 H2338 0.960 . S
C2326 H2339 0.962 . S
C2326 H2340 0.960 . S
C2327 C2324 1.511 . S
C2327 H2341 0.961 . S
C2327 H2342 0.961 . S
C2327 H2343 0.961 . S
C2328 C2329 1.370 . S
C2328 C2330 1.363 . S
C2328 H2344 0.931 . S
C2329 C2328 1.370 . S
C2329 C2333 1.408 . S
C2330 C2328 1.363 . S
C2330 C2331 1.370 . S
C2330 C2334 1.524 . S
C2331 C2323 1.503 . S
C2331 C2330 1.370 . S
C2331 C2332 1.403 . S
C2332 C2331 1.403 . S
C2332 C2333 1.404 . S
C2332 C2335 1.539 . S
C2333 C2329 1.408 . S
C2333 C2332 1.404 . S
C2333 H2345 0.930 . S
C2334 C2330 1.524 . S
C2334 H2346 0.956 . S
C2334 H2347 0.961 . S
C2334 H2348 0.961 . S
C2335 C2332 1.539 . S
C2335 H2349 0.958 . S
C2335 H2350 0.961 . S
C2335 H2351 0.960 . S
H2336 C2320 0.931 . S
H2337 C2325 0.929 . S
H2338 C2326 0.960 . S
H2339 C2326 0.962 . S
H2340 C2326 0.960 . S
H2341 C2327 0.961 . S
H2342 C2327 0.961 . S
H2343 C2327 0.961 . S
H2344 C2328 0.931 . S
H2345 C2333 0.930 . S
H2346 C2334 0.956 . S
H2347 C2334 0.961 . S
H2348 C2334 0.961 . S
H2349 C2335 0.958 . S
H2350 C2335 0.961 . S
H2351 C2335 0.960 . S
C2352 C2353 1.391 . S
C2352 C2354 1.394 . S
C2352 H2368 0.931 . S
C2353 C2352 1.391 . S
C2353 C2357 1.376 . S
C2354 C2352 1.394 . S
C2354 C2355 1.369 . S
C2354 C2358 1.531 . S
C2355 C2354 1.369 . S
C2355 C2356 1.410 . S
C2355 C2363 1.503 . S
C2356 C2355 1.410 . S
C2356 C2357 1.392 . S
C2356 C2359 1.511 . S
C2357 C2353 1.376 . S
C2357 C2356 1.392 . S
C2357 H2369 0.929 . S
C2358 C2354 1.531 . S
C2358 H2370 0.960 . S
C2358 H2371 0.962 . S
C2358 H2372 0.960 . S
C2359 C2356 1.511 . S
C2359 H2373 0.961 . S
C2359 H2374 0.961 . S
C2359 H2375 0.961 . S
C2360 C2361 1.370 . S
C2360 C2362 1.363 . S
C2360 H2376 0.931 . S
C2361 C2360 1.370 . S
C2361 C2365 1.408 . S
C2362 C2360 1.363 . S
C2362 C2363 1.370 . S
C2362 C2366 1.524 . S
C2363 C2355 1.503 . S
C2363 C2362 1.370 . S
C2363 C2364 1.403 . S
C2364 C2363 1.403 . S
C2364 C2365 1.404 . S
C2364 C2367 1.539 . S
C2365 C2361 1.408 . S
C2365 C2364 1.404 . S
C2365 H2377 0.930 . S
C2366 C2362 1.524 . S
C2366 H2378 0.956 . S
C2366 H2379 0.961 . S
C2366 H2380 0.961 . S
C2367 C2364 1.539 . S
C2367 H2381 0.958 . S
C2367 H2382 0.961 . S
C2367 H2383 0.960 . S
H2368 C2352 0.931 . S
H2369 C2357 0.929 . S
H2370 C2358 0.960 . S
H2371 C2358 0.962 . S
H2372 C2358 0.960 . S
H2373 C2359 0.961 . S
H2374 C2359 0.961 . S
H2375 C2359 0.961 . S
H2376 C2360 0.931 . S
H2377 C2365 0.930 . S
H2378 C2366 0.956 . S
H2379 C2366 0.961 . S
H2380 C2366 0.961 . S
H2381 C2367 0.958 . S
H2382 C2367 0.961 . S
H2383 C2367 0.960 . S
C2384 C2385 1.391 . S
C2384 C2386 1.394 . S
C2384 H2400 0.931 . S
C2385 C2384 1.391 . S
C2385 C2389 1.376 1_455 S
C2386 C2384 1.394 . S
C2386 C2387 1.369 . S
C2386 C2390 1.531 . S
C2387 C2386 1.369 . S
C2387 C2388 1.410 1_455 S
C2387 C2395 1.503 . S
C2388 C2387 1.410 1_655 S
C2388 C2389 1.392 . S
C2388 C2391 1.511 . S
C2389 C2385 1.376 1_655 S
C2389 C2388 1.392 . S
C2389 H2401 0.929 . S
C2390 C2386 1.531 . S
C2390 H2402 0.960 . S
C2390 H2403 0.962 . S
C2390 H2404 0.960 . S
C2391 C2388 1.511 . S
C2391 H2405 0.961 . S
C2391 H2406 0.961 . S
C2391 H2407 0.961 . S
C2392 C2393 1.370 1_655 S
C2392 C2394 1.363 . S
C2392 H2408 0.931 . S
C2393 C2392 1.370 1_455 S
C2393 C2397 1.408 . S
C2394 C2392 1.363 . S
C2394 C2395 1.370 1_655 S
C2394 C2398 1.524 . S
C2395 C2387 1.503 . S
C2395 C2394 1.370 1_455 S
C2395 C2396 1.403 . S
C2396 C2395 1.403 . S
C2396 C2397 1.404 . S
C2396 C2399 1.539 . S
C2397 C2393 1.408 . S
C2397 C2396 1.404 . S
C2397 H2409 0.930 . S
C2398 C2394 1.524 . S
C2398 H2410 0.956 . S
C2398 H2411 0.961 . S
C2398 H2412 0.961 . S
C2399 C2396 1.539 . S
C2399 H2413 0.958 . S
C2399 H2414 0.961 . S
C2399 H2415 0.960 . S
H2400 C2384 0.931 . S
H2401 C2389 0.929 . S
H2402 C2390 0.960 . S
H2403 C2390 0.962 . S
H2404 C2390 0.960 . S
H2405 C2391 0.961 . S
H2406 C2391 0.961 . S
H2407 C2391 0.961 . S
H2408 C2392 0.931 . S
H2409 C2397 0.930 . S
H2410 C2398 0.956 . S
H2411 C2398 0.961 . S
H2412 C2398 0.961 . S
H2413 C2399 0.958 . S
H2414 C2399 0.961 . S
H2415 C2399 0.960 . S
C2416 C2417 1.391 . S
C2416 C2418 1.394 . S
C2416 H2432 0.931 . S
C2417 C2416 1.391 . S
C2417 C2421 1.376 . S
C2418 C2416 1.394 . S
C2418 C2419 1.369 . S
C2418 C2422 1.531 . S
C2419 C2418 1.369 . S
C2419 C2420 1.410 . S
C2419 C2427 1.503 . S
C2420 C2419 1.410 . S
C2420 C2421 1.392 . S
C2420 C2423 1.511 . S
C2421 C2417 1.376 . S
C2421 C2420 1.392 . S
C2421 H2433 0.929 . S
C2422 C2418 1.531 . S
C2422 H2434 0.960 . S
C2422 H2435 0.962 . S
C2422 H2436 0.960 . S
C2423 C2420 1.511 . S
C2423 H2437 0.961 . S
C2423 H2438 0.961 . S
C2423 H2439 0.961 . S
C2424 C2425 1.370 . S
C2424 C2426 1.363 . S
C2424 H2440 0.931 . S
C2425 C2424 1.370 . S
C2425 C2429 1.408 . S
C2426 C2424 1.363 . S
C2426 C2427 1.370 . S
C2426 C2430 1.524 . S
C2427 C2419 1.503 . S
C2427 C2426 1.370 . S
C2427 C2428 1.403 . S
C2428 C2427 1.403 . S
C2428 C2429 1.404 . S
C2428 C2431 1.539 . S
C2429 C2425 1.408 . S
C2429 C2428 1.404 . S
C2429 H2441 0.930 . S
C2430 C2426 1.524 . S
C2430 H2442 0.956 . S
C2430 H2443 0.961 . S
C2430 H2444 0.961 . S
C2431 C2428 1.539 . S
C2431 H2445 0.958 . S
C2431 H2446 0.961 . S
C2431 H2447 0.960 . S
H2432 C2416 0.931 . S
H2433 C2421 0.929 . S
H2434 C2422 0.960 . S
H2435 C2422 0.962 . S
H2436 C2422 0.960 . S
H2437 C2423 0.961 . S
H2438 C2423 0.961 . S
H2439 C2423 0.961 . S
H2440 C2424 0.931 . S
H2441 C2429 0.930 . S
H2442 C2430 0.956 . S
H2443 C2430 0.961 . S
H2444 C2430 0.961 . S
H2445 C2431 0.958 . S
H2446 C2431 0.961 . S
H2447 C2431 0.960 . S
C2448 C2449 1.391 . S
C2448 C2450 1.394 . S
C2448 H2464 0.931 . S
C2449 C2448 1.391 . S
C2449 C2453 1.376 . S
C2450 C2448 1.394 . S
C2450 C2451 1.369 . S
C2450 C2454 1.531 . S
C2451 C2450 1.369 . S
C2451 C2452 1.410 . S
C2451 C2459 1.503 . S
C2452 C2451 1.410 . S
C2452 C2453 1.392 . S
C2452 C2455 1.511 . S
C2453 C2449 1.376 . S
C2453 C2452 1.392 . S
C2453 H2465 0.929 . S
C2454 C2450 1.531 . S
C2454 H2466 0.960 . S
C2454 H2467 0.962 . S
C2454 H2468 0.960 . S
C2455 C2452 1.511 . S
C2455 H2469 0.961 . S
C2455 H2470 0.961 . S
C2455 H2471 0.961 . S
C2456 C2457 1.370 . S
C2456 C2458 1.363 . S
C2456 H2472 0.931 . S
C2457 C2456 1.370 . S
C2457 C2461 1.408 . S
C2458 C2456 1.363 . S
C2458 C2459 1.370 . S
C2458 C2462 1.524 . S
C2459 C2451 1.503 . S
C2459 C2458 1.370 . S
C2459 C2460 1.403 . S
C2460 C2459 1.403 . S
C2460 C2461 1.404 . S
C2460 C2463 1.539 . S
C2461 C2457 1.408 . S
C2461 C2460 1.404 . S
C2461 H2473 0.930 . S
C2462 C2458 1.524 . S
C2462 H2474 0.956 . S
C2462 H2475 0.961 . S
C2462 H2476 0.961 . S
C2463 C2460 1.539 . S
C2463 H2477 0.958 . S
C2463 H2478 0.961 . S
C2463 H2479 0.960 . S
H2464 C2448 0.931 . S
H2465 C2453 0.929 . S
H2466 C2454 0.960 . S
H2467 C2454 0.962 . S
H2468 C2454 0.960 . S
H2469 C2455 0.961 . S
H2470 C2455 0.961 . S
H2471 C2455 0.961 . S
H2472 C2456 0.931 . S
H2473 C2461 0.930 . S
H2474 C2462 0.956 . S
H2475 C2462 0.961 . S
H2476 C2462 0.961 . S
H2477 C2463 0.958 . S
H2478 C2463 0.961 . S
H2479 C2463 0.960 . S
C2480 C2481 1.391 . S
C2480 C2482 1.394 . S
C2480 H2496 0.931 . S
C2481 C2480 1.391 . S
C2481 C2485 1.376 . S
C2482 C2480 1.394 . S
C2482 C2483 1.369 . S
C2482 C2486 1.531 . S
C2483 C2482 1.369 . S
C2483 C2484 1.410 . S
C2483 C2491 1.503 . S
C2484 C2483 1.410 . S
C2484 C2485 1.392 . S
C2484 C2487 1.511 . S
C2485 C2481 1.376 . S
C2485 C2484 1.392 . S
C2485 H2497 0.929 . S
C2486 C2482 1.531 . S
C2486 H2498 0.960 . S
C2486 H2499 0.962 . S
C2486 H2500 0.960 . S
C2487 C2484 1.511 . S
C2487 H2501 0.961 . S
C2487 H2502 0.961 . S
C2487 H2503 0.961 . S
C2488 C2489 1.370 . S
C2488 C2490 1.363 . S
C2488 H2504 0.931 . S
C2489 C2488 1.370 . S
C2489 C2493 1.408 . S
C2490 C2488 1.363 . S
C2490 C2491 1.370 . S
C2490 C2494 1.524 . S
C2491 C2483 1.503 . S
C2491 C2490 1.370 . S
C2491 C2492 1.403 . S
C2492 C2491 1.403 . S
C2492 C2493 1.404 . S
C2492 C2495 1.539 . S
C2493 C2489 1.408 . S
C2493 C2492 1.404 . S
C2493 H2505 0.930 . S
C2494 C2490 1.524 . S
C2494 H2506 0.956 . S
C2494 H2507 0.961 . S
C2494 H2508 0.961 . S
C2495 C2492 1.539 . S
C2495 H2509 0.958 . S
C2495 H2510 0.961 . S
C2495 H2511 0.960 . S
H2496 C2480 0.931 . S
H2497 C2485 0.929 . S
H2498 C2486 0.960 . S
H2499 C2486 0.962 . S
H2500 C2486 0.960 . S
H2501 C2487 0.961 . S
H2502 C2487 0.961 . S
H2503 C2487 0.961 . S
H2504 C2488 0.931 . S
H2505 C2493 0.930 . S
H2506 C2494 0.956 . S
H2507 C2494 0.961 . S
H2508 C2494 0.961 . S
H2509 C2495 0.958 . S
H2510 C2495 0.961 . S
H2511 C2495 0.960 . S
C2512 C2513 1.391 . S
C2512 C2514 1.394 . S
C2512 H2528 0.931 . S
C2513 C2512 1.391 . S
C2513 C2517 1.376 . S
C2514 C2512 1.394 . S
C2514 C2515 1.369 . S
C2514 C2518 1.531 . S
C2515 C2514 1.369 . S
C2515 C2516 1.410 . S
C2515 C2523 1.503 . S
C2516 C2515 1.410 . S
C2516 C2517 1.392 . S
C2516 C2519 1.511 . S
C2517 C2513 1.376 . S
C2517 C2516 1.392 . S
C2517 H2529 0.929 . S
C2518 C2514 1.531 . S
C2518 H2530 0.960 . S
C2518 H2531 0.962 . S
C2518 H2532 0.960 . S
C2519 C2516 1.511 . S
C2519 H2533 0.961 . S
C2519 H2534 0.961 . S
C2519 H2535 0.961 . S
C2520 C2521 1.370 . S
C2520 C2522 1.363 . S
C2520 H2536 0.931 . S
C2521 C2520 1.370 . S
C2521 C2525 1.408 . S
C2522 C2520 1.363 . S
C2522 C2523 1.370 . S
C2522 C2526 1.524 . S
C2523 C2515 1.503 . S
C2523 C2522 1.370 . S
C2523 C2524 1.403 . S
C2524 C2523 1.403 . S
C2524 C2525 1.404 . S
C2524 C2527 1.539 . S
C2525 C2521 1.408 . S
C2525 C2524 1.404 . S
C2525 H2537 0.930 . S
C2526 C2522 1.524 . S
C2526 H2538 0.956 . S
C2526 H2539 0.961 . S
C2526 H2540 0.961 . S
C2527 C2524 1.539 . S
C2527 H2541 0.958 . S
C2527 H2542 0.961 . S
C2527 H2543 0.960 . S
H2528 C2512 0.931 . S
H2529 C2517 0.929 . S
H2530 C2518 0.960 . S
H2531 C2518 0.962 . S
H2532 C2518 0.960 . S
H2533 C2519 0.961 . S
H2534 C2519 0.961 . S
H2535 C2519 0.961 . S
H2536 C2520 0.931 . S
H2537 C2525 0.930 . S
H2538 C2526 0.956 . S
H2539 C2526 0.961 . S
H2540 C2526 0.961 . S
H2541 C2527 0.958 . S
H2542 C2527 0.961 . S
H2543 C2527 0.960 . S
C2544 C2545 1.391 . S
C2544 C2546 1.394 . S
C2544 H2560 0.931 . S
C2545 C2544 1.391 . S
C2545 C2549 1.376 . S
C2546 C2544 1.394 . S
C2546 C2547 1.369 . S
C2546 C2550 1.531 . S
C2547 C2546 1.369 . S
C2547 C2548 1.410 . S
C2547 C2555 1.503 . S
C2548 C2547 1.410 . S
C2548 C2549 1.392 . S
C2548 C2551 1.511 . S
C2549 C2545 1.376 . S
C2549 C2548 1.392 . S
C2549 H2561 0.929 . S
C2550 C2546 1.531 . S
C2550 H2562 0.960 . S
C2550 H2563 0.962 . S
C2550 H2564 0.960 . S
C2551 C2548 1.511 . S
C2551 H2565 0.961 . S
C2551 H2566 0.961 . S
C2551 H2567 0.961 . S
C2552 C2553 1.370 . S
C2552 C2554 1.363 . S
C2552 H2568 0.931 . S
C2553 C2552 1.370 . S
C2553 C2557 1.408 . S
C2554 C2552 1.363 . S
C2554 C2555 1.370 . S
C2554 C2558 1.524 . S
C2555 C2547 1.503 . S
C2555 C2554 1.370 . S
C2555 C2556 1.403 . S
C2556 C2555 1.403 . S
C2556 C2557 1.404 . S
C2556 C2559 1.539 . S
C2557 C2553 1.408 . S
C2557 C2556 1.404 . S
C2557 H2569 0.930 . S
C2558 C2554 1.524 . S
C2558 H2570 0.956 . S
C2558 H2571 0.961 . S
C2558 H2572 0.961 . S
C2559 C2556 1.539 . S
C2559 H2573 0.958 . S
C2559 H2574 0.961 . S
C2559 H2575 0.960 . S
H2560 C2544 0.931 . S
H2561 C2549 0.929 . S
H2562 C2550 0.960 . S
H2563 C2550 0.962 . S
H2564 C2550 0.960 . S
H2565 C2551 0.961 . S
H2566 C2551 0.961 . S
H2567 C2551 0.961 . S
H2568 C2552 0.931 . S
H2569 C2557 0.930 . S
H2570 C2558 0.956 . S
H2571 C2558 0.961 . S
H2572 C2558 0.961 . S
H2573 C2559 0.958 . S
H2574 C2559 0.961 . S
H2575 C2559 0.960 . S
C2576 C2577 1.391 . S
C2576 C2578 1.394 . S
C2576 H2592 0.931 . S
C2577 C2576 1.391 . S
C2577 C2581 1.376 . S
C2578 C2576 1.394 . S
C2578 C2579 1.369 . S
C2578 C2582 1.531 . S
C2579 C2578 1.369 . S
C2579 C2580 1.410 . S
C2579 C2587 1.503 . S
C2580 C2579 1.410 . S
C2580 C2581 1.392 . S
C2580 C2583 1.511 . S
C2581 C2577 1.376 . S
C2581 C2580 1.392 . S
C2581 H2593 0.929 . S
C2582 C2578 1.531 . S
C2582 H2594 0.960 . S
C2582 H2595 0.962 . S
C2582 H2596 0.960 . S
C2583 C2580 1.511 . S
C2583 H2597 0.961 . S
C2583 H2598 0.961 . S
C2583 H2599 0.961 . S
C2584 C2585 1.370 . S
C2584 C2586 1.363 . S
C2584 H2600 0.931 . S
C2585 C2584 1.370 . S
C2585 C2589 1.408 . S
C2586 C2584 1.363 . S
C2586 C2587 1.370 . S
C2586 C2590 1.524 . S
C2587 C2579 1.503 . S
C2587 C2586 1.370 . S
C2587 C2588 1.403 . S
C2588 C2587 1.403 . S
C2588 C2589 1.404 . S
C2588 C2591 1.539 . S
C2589 C2585 1.408 . S
C2589 C2588 1.404 . S
C2589 H2601 0.930 . S
C2590 C2586 1.524 . S
C2590 H2602 0.956 . S
C2590 H2603 0.961 . S
C2590 H2604 0.961 . S
C2591 C2588 1.539 . S
C2591 H2605 0.958 . S
C2591 H2606 0.961 . S
C2591 H2607 0.960 . S
H2592 C2576 0.931 . S
H2593 C2581 0.929 . S
H2594 C2582 0.960 . S
H2595 C2582 0.962 . S
H2596 C2582 0.960 . S
H2597 C2583 0.961 . S
H2598 C2583 0.961 . S
H2599 C2583 0.961 . S
H2600 C2584 0.931 . S
H2601 C2589 0.930 . S
H2602 C2590 0.956 . S
H2603 C2590 0.961 . S
H2604 C2590 0.961 . S
H2605 C2591 0.958 . S
H2606 C2591 0.961 . S
H2607 C2591 0.960 . S
C2608 C2609 1.391 . S
C2608 C2610 1.394 . S
C2608 H2624 0.931 . S
C2609 C2608 1.391 . S
C2609 C2613 1.376 . S
C2610 C2608 1.394 . S
C2610 C2611 1.369 . S
C2610 C2614 1.531 . S
C2611 C2610 1.369 . S
C2611 C2612 1.410 . S
C2611 C2619 1.503 . S
C2612 C2611 1.410 . S
C2612 C2613 1.392 . S
C2612 C2615 1.511 . S
C2613 C2609 1.376 . S
C2613 C2612 1.392 . S
C2613 H2625 0.929 . S
C2614 C2610 1.531 . S
C2614 H2626 0.960 . S
C2614 H2627 0.962 . S
C2614 H2628 0.960 . S
C2615 C2612 1.511 . S
C2615 H2629 0.961 . S
C2615 H2630 0.961 . S
C2615 H2631 0.961 . S
C2616 C2617 1.370 . S
C2616 C2618 1.363 . S
C2616 H2632 0.931 . S
C2617 C2616 1.370 . S
C2617 C2621 1.408 . S
C2618 C2616 1.363 . S
C2618 C2619 1.370 . S
C2618 C2622 1.524 . S
C2619 C2611 1.503 . S
C2619 C2618 1.370 . S
C2619 C2620 1.403 . S
C2620 C2619 1.403 . S
C2620 C2621 1.404 . S
C2620 C2623 1.539 . S
C2621 C2617 1.408 . S
C2621 C2620 1.404 . S
C2621 H2633 0.930 . S
C2622 C2618 1.524 . S
C2622 H2634 0.956 . S
C2622 H2635 0.961 . S
C2622 H2636 0.961 . S
C2623 C2620 1.539 . S
C2623 H2637 0.958 . S
C2623 H2638 0.961 . S
C2623 H2639 0.960 . S
H2624 C2608 0.931 . S
H2625 C2613 0.929 . S
H2626 C2614 0.960 . S
H2627 C2614 0.962 . S
H2628 C2614 0.960 . S
H2629 C2615 0.961 . S
H2630 C2615 0.961 . S
H2631 C2615 0.961 . S
H2632 C2616 0.931 . S
H2633 C2621 0.930 . S
H2634 C2622 0.956 . S
H2635 C2622 0.961 . S
H2636 C2622 0.961 . S
H2637 C2623 0.958 . S
H2638 C2623 0.961 . S
H2639 C2623 0.960 . S
C2640 C2641 1.391 . S
C2640 C2642 1.394 . S
C2640 H2656 0.931 . S
C2641 C2640 1.391 . S
C2641 C2645 1.376 . S
C2642 C2640 1.394 . S
C2642 C2643 1.369 . S
C2642 C2646 1.531 . S
C2643 C2642 1.369 . S
C2643 C2644 1.410 . S
C2643 C2651 1.503 . S
C2644 C2643 1.410 . S
C2644 C2645 1.392 . S
C2644 C2647 1.511 . S
C2645 C2641 1.376 . S
C2645 C2644 1.392 . S
C2645 H2657 0.929 . S
C2646 C2642 1.531 . S
C2646 H2658 0.960 . S
C2646 H2659 0.962 . S
C2646 H2660 0.960 . S
C2647 C2644 1.511 . S
C2647 H2661 0.961 . S
C2647 H2662 0.961 . S
C2647 H2663 0.961 . S
C2648 C2649 1.370 . S
C2648 C2650 1.363 . S
C2648 H2664 0.931 . S
C2649 C2648 1.370 . S
C2649 C2653 1.408 . S
C2650 C2648 1.363 . S
C2650 C2651 1.370 . S
C2650 C2654 1.524 . S
C2651 C2643 1.503 . S
C2651 C2650 1.370 . S
C2651 C2652 1.403 . S
C2652 C2651 1.403 . S
C2652 C2653 1.404 . S
C2652 C2655 1.539 . S
C2653 C2649 1.408 . S
C2653 C2652 1.404 . S
C2653 H2665 0.930 . S
C2654 C2650 1.524 . S
C2654 H2666 0.956 . S
C2654 H2667 0.961 . S
C2654 H2668 0.961 . S
C2655 C2652 1.539 . S
C2655 H2669 0.958 . S
C2655 H2670 0.961 . S
C2655 H2671 0.960 . S
H2656 C2640 0.931 . S
H2657 C2645 0.929 . S
H2658 C2646 0.960 . S
H2659 C2646 0.962 . S
H2660 C2646 0.960 . S
H2661 C2647 0.961 . S
H2662 C2647 0.961 . S
H2663 C2647 0.961 . S
H2664 C2648 0.931 . S
H2665 C2653 0.930 . S
H2666 C2654 0.956 . S
H2667 C2654 0.961 . S
H2668 C2654 0.961 . S
H2669 C2655 0.958 . S
H2670 C2655 0.961 . S
H2671 C2655 0.960 . S
C2672 C2673 1.391 . S
C2672 C2674 1.394 . S
C2672 H2688 0.931 . S
C2673 C2672 1.391 . S
C2673 C2677 1.376 . S
C2674 C2672 1.394 . S
C2674 C2675 1.369 . S
C2674 C2678 1.531 . S
C2675 C2674 1.369 . S
C2675 C2676 1.410 . S
C2675 C2683 1.503 . S
C2676 C2675 1.410 . S
C2676 C2677 1.392 . S
C2676 C2679 1.511 . S
C2677 C2673 1.376 . S
C2677 C2676 1.392 . S
C2677 H2689 0.929 . S
C2678 C2674 1.531 . S
C2678 H2690 0.960 . S
C2678 H2691 0.962 . S
C2678 H2692 0.960 . S
C2679 C2676 1.511 . S
C2679 H2693 0.961 . S
C2679 H2694 0.961 . S
C2679 H2695 0.961 . S
C2680 C2681 1.370 . S
C2680 C2682 1.363 . S
C2680 H2696 0.931 . S
C2681 C2680 1.370 . S
C2681 C2685 1.408 . S
C2682 C2680 1.363 . S
C2682 C2683 1.370 . S
C2682 C2686 1.524 . S
C2683 C2675 1.503 . S
C2683 C2682 1.370 . S
C2683 C2684 1.403 . S
C2684 C2683 1.403 . S
C2684 C2685 1.404 . S
C2684 C2687 1.539 . S
C2685 C2681 1.408 . S
C2685 C2684 1.404 . S
C2685 H2697 0.930 . S
C2686 C2682 1.524 . S
C2686 H2698 0.956 . S
C2686 H2699 0.961 . S
C2686 H2700 0.961 . S
C2687 C2684 1.539 . S
C2687 H2701 0.958 . S
C2687 H2702 0.961 . S
C2687 H2703 0.960 . S
H2688 C2672 0.931 . S
H2689 C2677 0.929 . S
H2690 C2678 0.960 . S
H2691 C2678 0.962 . S
H2692 C2678 0.960 . S
H2693 C2679 0.961 . S
H2694 C2679 0.961 . S
H2695 C2679 0.961 . S
H2696 C2680 0.931 . S
H2697 C2685 0.930 . S
H2698 C2686 0.956 . S
H2699 C2686 0.961 . S
H2700 C2686 0.961 . S
H2701 C2687 0.958 . S
H2702 C2687 0.961 . S
H2703 C2687 0.960 . S
C2704 C2705 1.391 . S
C2704 C2706 1.394 . S
C2704 H2720 0.931 . S
C2705 C2704 1.391 . S
C2705 C2709 1.376 . S
C2706 C2704 1.394 . S
C2706 C2707 1.369 . S
C2706 C2710 1.531 . S
C2707 C2706 1.369 . S
C2707 C2708 1.410 . S
C2707 C2715 1.503 . S
C2708 C2707 1.410 . S
C2708 C2709 1.392 . S
C2708 C2711 1.511 . S
C2709 C2705 1.376 . S
C2709 C2708 1.392 . S
C2709 H2721 0.929 . S
C2710 C2706 1.531 . S
C2710 H2722 0.960 . S
C2710 H2723 0.962 . S
C2710 H2724 0.960 . S
C2711 C2708 1.511 . S
C2711 H2725 0.961 . S
C2711 H2726 0.961 . S
C2711 H2727 0.961 . S
C2712 C2713 1.370 . S
C2712 C2714 1.363 . S
C2712 H2728 0.931 . S
C2713 C2712 1.370 . S
C2713 C2717 1.408 . S
C2714 C2712 1.363 . S
C2714 C2715 1.370 . S
C2714 C2718 1.524 . S
C2715 C2707 1.503 . S
C2715 C2714 1.370 . S
C2715 C2716 1.403 . S
C2716 C2715 1.403 . S
C2716 C2717 1.404 . S
C2716 C2719 1.539 . S
C2717 C2713 1.408 . S
C2717 C2716 1.404 . S
C2717 H2729 0.930 . S
C2718 C2714 1.524 . S
C2718 H2730 0.956 . S
C2718 H2731 0.961 . S
C2718 H2732 0.961 . S
C2719 C2716 1.539 . S
C2719 H2733 0.958 . S
C2719 H2734 0.961 . S
C2719 H2735 0.960 . S
H2720 C2704 0.931 . S
H2721 C2709 0.929 . S
H2722 C2710 0.960 . S
H2723 C2710 0.962 . S
H2724 C2710 0.960 . S
H2725 C2711 0.961 . S
H2726 C2711 0.961 . S
H2727 C2711 0.961 . S
H2728 C2712 0.931 . S
H2729 C2717 0.930 . S
H2730 C2718 0.956 . S
H2731 C2718 0.961 . S
H2732 C2718 0.961 . S
H2733 C2719 0.958 . S
H2734 C2719 0.961 . S
H2735 C2719 0.960 . S
C2736 C2737 1.391 . S
C2736 C2738 1.394 . S
C2736 H2752 0.931 . S
C2737 C2736 1.391 . S
C2737 C2741 1.376 . S
C2738 C2736 1.394 . S
C2738 C2739 1.369 . S
C2738 C2742 1.531 . S
C2739 C2738 1.369 . S
C2739 C2740 1.410 . S
C2739 C2747 1.503 . S
C2740 C2739 1.410 . S
C2740 C2741 1.392 . S
C2740 C2743 1.511 . S
C2741 C2737 1.376 . S
C2741 C2740 1.392 . S
C2741 H2753 0.929 . S
C2742 C2738 1.531 . S
C2742 H2754 0.960 . S
C2742 H2755 0.962 . S
C2742 H2756 0.960 . S
C2743 C2740 1.511 . S
C2743 H2757 0.961 . S
C2743 H2758 0.961 . S
C2743 H2759 0.961 . S
C2744 C2745 1.370 . S
C2744 C2746 1.363 . S
C2744 H2760 0.931 . S
C2745 C2744 1.370 . S
C2745 C2749 1.408 . S
C2746 C2744 1.363 . S
C2746 C2747 1.370 . S
C2746 C2750 1.524 . S
C2747 C2739 1.503 . S
C2747 C2746 1.370 . S
C2747 C2748 1.403 . S
C2748 C2747 1.403 . S
C2748 C2749 1.404 . S
C2748 C2751 1.539 . S
C2749 C2745 1.408 . S
C2749 C2748 1.404 . S
C2749 H2761 0.930 . S
C2750 C2746 1.524 . S
C2750 H2762 0.956 . S
C2750 H2763 0.961 . S
C2750 H2764 0.961 . S
C2751 C2748 1.539 . S
C2751 H2765 0.958 . S
C2751 H2766 0.961 . S
C2751 H2767 0.960 . S
H2752 C2736 0.931 . S
H2753 C2741 0.929 . S
H2754 C2742 0.960 . S
H2755 C2742 0.962 . S
H2756 C2742 0.960 . S
H2757 C2743 0.961 . S
H2758 C2743 0.961 . S
H2759 C2743 0.961 . S
H2760 C2744 0.931 . S
H2761 C2749 0.930 . S
H2762 C2750 0.956 . S
H2763 C2750 0.961 . S
H2764 C2750 0.961 . S
H2765 C2751 0.958 . S
H2766 C2751 0.961 . S
H2767 C2751 0.960 . S
C2768 C2769 1.391 . S
C2768 C2770 1.394 . S
C2768 H2784 0.931 . S
C2769 C2768 1.391 . S
C2769 C2773 1.376 . S
C2770 C2768 1.394 . S
C2770 C2771 1.369 . S
C2770 C2774 1.531 . S
C2771 C2770 1.369 . S
C2771 C2772 1.410 . S
C2771 C2779 1.503 . S
C2772 C2771 1.410 . S
C2772 C2773 1.392 . S
C2772 C2775 1.511 . S
C2773 C2769 1.376 . S
C2773 C2772 1.392 . S
C2773 H2785 0.929 . S
C2774 C2770 1.531 . S
C2774 H2786 0.960 . S
C2774 H2787 0.962 . S
C2774 H2788 0.960 . S
C2775 C2772 1.511 . S
C2775 H2789 0.961 . S
C2775 H2790 0.961 . S
C2775 H2791 0.961 . S
C2776 C2777 1.370 . S
C2776 C2778 1.363 . S
C2776 H2792 0.931 . S
C2777 C2776 1.370 . S
C2777 C2781 1.408 . S
C2778 C2776 1.363 . S
C2778 C2779 1.370 . S
C2778 C2782 1.524 . S
C2779 C2771 1.503 . S
C2779 C2778 1.370 . S
C2779 C2780 1.403 . S
C2780 C2779 1.403 . S
C2780 C2781 1.404 . S
C2780 C2783 1.539 . S
C2781 C2777 1.408 . S
C2781 C2780 1.404 . S
C2781 H2793 0.930 . S
C2782 C2778 1.524 . S
C2782 H2794 0.956 . S
C2782 H2795 0.961 . S
C2782 H2796 0.961 . S
C2783 C2780 1.539 . S
C2783 H2797 0.958 . S
C2783 H2798 0.961 . S
C2783 H2799 0.960 . S
H2784 C2768 0.931 . S
H2785 C2773 0.929 . S
H2786 C2774 0.960 . S
H2787 C2774 0.962 . S
H2788 C2774 0.960 . S
H2789 C2775 0.961 . S
H2790 C2775 0.961 . S
H2791 C2775 0.961 . S
H2792 C2776 0.931 . S
H2793 C2781 0.930 . S
H2794 C2782 0.956 . S
H2795 C2782 0.961 . S
H2796 C2782 0.961 . S
H2797 C2783 0.958 . S
H2798 C2783 0.961 . S
H2799 C2783 0.960 . S
C2800 C2801 1.391 . S
C2800 C2802 1.394 . S
C2800 H2816 0.931 . S
C2801 C2800 1.391 . S
C2801 C2805 1.376 . S
C2802 C2800 1.394 . S
C2802 C2803 1.369 . S
C2802 C2806 1.531 . S
C2803 C2802 1.369 . S
C2803 C2804 1.410 . S
C2803 C2811 1.503 . S
C2804 C2803 1.410 . S
C2804 C2805 1.392 . S
C2804 C2807 1.511 . S
C2805 C2801 1.376 . S
C2805 C2804 1.392 . S
C2805 H2817 0.929 . S
C2806 C2802 1.531 . S
C2806 H2818 0.960 . S
C2806 H2819 0.962 . S
C2806 H2820 0.960 . S
C2807 C2804 1.511 . S
C2807 H2821 0.959 . S
C2807 H2822 0.961 . S
C2807 H2823 0.961 . S
C2808 C2809 1.400 . S
C2808 C2810 1.371 . S
C2808 H2824 0.893 1_554 S
C2809 C2808 1.400 . S
C2809 C2813 1.408 . S
C2810 C2808 1.371 . S
C2810 C2811 1.370 . S
C2810 C2814 1.524 1_554 S
C2811 C2803 1.503 . S
C2811 C2810 1.370 . S
C2811 C2812 1.403 . S
C2812 C2811 1.403 . S
C2812 C2813 1.404 . S
C2812 C2815 1.539 . S
C2813 C2809 1.408 . S
C2813 C2812 1.404 . S
C2813 H2825 0.930 . S
C2814 C2810 1.524 1_556 S
C2814 H2826 0.956 . S
C2814 H2827 0.961 . S
C2814 H2828 0.961 . S
C2815 C2812 1.539 . S
C2815 H2829 0.958 . S
C2815 H2830 0.961 . S
C2815 H2831 0.960 . S
H2816 C2800 0.931 . S
H2817 C2805 0.929 . S
H2818 C2806 0.960 . S
H2819 C2806 0.962 . S
H2820 C2806 0.960 . S
H2821 C2807 0.959 . S
H2822 C2807 0.961 . S
H2823 C2807 0.961 . S
H2824 C2808 0.893 1_556 S
H2825 C2813 0.930 . S
H2826 C2814 0.956 . S
H2827 C2814 0.961 . S
H2828 C2814 0.961 . S
H2829 C2815 0.958 . S
H2830 C2815 0.961 . S
H2831 C2815 0.960 . S
C2832 C2833 1.391 . S
C2832 C2834 1.394 . S
C2832 H2848 0.931 . S
C2833 C2832 1.391 . S
C2833 C2837 1.376 . S
C2834 C2832 1.394 . S
C2834 C2835 1.369 . S
C2834 C2838 1.531 . S
C2835 C2834 1.369 . S
C2835 C2836 1.410 . S
C2835 C2843 1.503 . S
C2836 C2835 1.410 . S
C2836 C2837 1.392 . S
C2836 C2839 1.511 . S
C2837 C2833 1.376 . S
C2837 C2836 1.392 . S
C2837 H2849 0.929 . S
C2838 C2834 1.531 . S
C2838 H2850 0.960 . S
C2838 H2851 0.962 . S
C2838 H2852 0.960 . S
C2839 C2836 1.511 . S
C2839 H2853 0.961 . S
C2839 H2854 0.961 . S
C2839 H2855 0.961 . S
C2840 C2841 1.370 . S
C2840 C2842 1.363 . S
C2840 H2856 0.931 . S
C2841 C2840 1.370 . S
C2841 C2845 1.408 . S
C2842 C2840 1.363 . S
C2842 C2843 1.370 . S
C2842 C2846 1.524 . S
C2843 C2835 1.503 . S
C2843 C2842 1.370 . S
C2843 C2844 1.403 . S
C2844 C2843 1.403 . S
C2844 C2845 1.404 . S
C2844 C2847 1.539 . S
C2845 C2841 1.408 . S
C2845 C2844 1.404 . S
C2845 H2857 0.930 . S
C2846 C2842 1.524 . S
C2846 H2858 0.956 . S
C2846 H2859 0.961 . S
C2846 H2860 0.961 . S
C2847 C2844 1.539 . S
C2847 H2861 0.958 . S
C2847 H2862 0.961 . S
C2847 H2863 0.960 . S
H2848 C2832 0.931 . S
H2849 C2837 0.929 . S
H2850 C2838 0.960 . S
H2851 C2838 0.962 . S
H2852 C2838 0.960 . S
H2853 C2839 0.961 . S
H2854 C2839 0.961 . S
H2855 C2839 0.961 . S
H2856 C2840 0.931 . S
H2857 C2845 0.930 . S
H2858 C2846 0.956 . S
H2859 C2846 0.961 . S
H2860 C2846 0.961 . S
H2861 C2847 0.958 . S
H2862 C2847 0.961 . S
H2863 C2847 0.960 . S
C2864 C2865 1.391 1_556 S
C2864 C2866 1.394 1_556 S
C2864 H2880 0.931 . S
C2865 C2864 1.391 1_554 S
C2865 C2869 1.376 . S
C2866 C2864 1.394 1_554 S
C2866 C2867 1.369 . S
C2866 C2870 1.531 1_554 S
C2867 C2866 1.369 . S
C2867 C2868 1.410 . S
C2867 C2875 1.503 . S
C2868 C2867 1.410 . S
C2868 C2869 1.392 . S
C2868 C2871 1.511 . S
C2869 C2865 1.376 . S
C2869 C2868 1.392 . S
C2869 H2881 0.929 . S
C2870 C2866 1.531 1_556 S
C2870 H2882 0.960 1_556 S
C2870 H2883 0.962 . S
C2870 H2884 0.960 . S
C2871 C2868 1.511 . S
C2871 H2885 0.961 . S
C2871 H2886 0.961 . S
C2871 H2887 0.961 . S
C2872 C2873 1.370 . S
C2872 C2874 1.363 . S
C2872 H2888 0.931 . S
C2873 C2872 1.370 . S
C2873 C2877 1.408 . S
C2874 C2872 1.363 . S
C2874 C2875 1.370 . S
C2874 C2878 1.524 1_554 S
C2875 C2867 1.503 . S
C2875 C2874 1.370 . S
C2875 C2876 1.403 . S
C2876 C2875 1.403 . S
C2876 C2877 1.404 . S
C2876 C2879 1.539 . S
C2877 C2873 1.408 . S
C2877 C2876 1.404 . S
C2877 H2889 0.930 . S
C2878 C2874 1.524 1_556 S
C2878 H2890 0.956 . S
C2878 H2891 0.961 . S
C2878 H2892 0.961 . S
C2879 C2876 1.539 . S
C2879 H2893 0.958 . S
C2879 H2894 0.961 . S
C2879 H2895 0.960 . S
H2880 C2864 0.931 . S
H2881 C2869 0.929 . S
H2882 C2870 0.960 1_554 S
H2883 C2870 0.962 . S
H2884 C2870 0.960 . S
H2885 C2871 0.961 . S
H2886 C2871 0.961 . S
H2887 C2871 0.961 . S
H2888 C2872 0.931 . S
H2889 C2877 0.930 . S
H2890 C2878 0.956 . S
H2891 C2878 0.961 . S
H2892 C2878 0.961 . S
H2893 C2879 0.958 . S
H2894 C2879 0.961 . S
H2895 C2879 0.960 . S
C2896 C2897 1.391 . S
C2896 C2898 1.394 . S
C2896 H2912 0.931 . S
C2897 C2896 1.391 . S
C2897 C2901 1.376 . S
C2898 C2896 1.394 . S
C2898 C2899 1.369 . S
C2898 C2902 1.531 . S
C2899 C2898 1.369 . S
C2899 C2900 1.410 . S
C2899 C2907 1.503 . S
C2900 C2899 1.410 . S
C2900 C2901 1.392 . S
C2900 C2903 1.511 . S
C2901 C2897 1.376 . S
C2901 C2900 1.392 . S
C2901 H2913 0.929 . S
C2902 C2898 1.531 . S
C2902 H2914 0.960 . S
C2902 H2915 0.962 . S
C2902 H2916 0.960 . S
C2903 C2900 1.511 . S
C2903 H2917 0.961 . S
C2903 H2918 0.961 . S
C2903 H2919 0.961 . S
C2904 C2905 1.370 . S
C2904 C2906 1.363 . S
C2904 H2920 0.931 . S
C2905 C2904 1.370 . S
C2905 C2909 1.408 . S
C2906 C2904 1.363 . S
C2906 C2907 1.370 . S
C2906 C2910 1.524 . S
C2907 C2899 1.503 . S
C2907 C2906 1.370 . S
C2907 C2908 1.403 . S
C2908 C2907 1.403 . S
C2908 C2909 1.404 . S
C2908 C2911 1.539 . S
C2909 C2905 1.408 . S
C2909 C2908 1.404 . S
C2909 H2921 0.930 . S
C2910 C2906 1.524 . S
C2910 H2922 0.956 . S
C2910 H2923 0.961 . S
C2910 H2924 0.961 . S
C2911 C2908 1.539 . S
C2911 H2925 0.958 . S
C2911 H2926 0.961 . S
C2911 H2927 0.960 . S
H2912 C2896 0.931 . S
H2913 C2901 0.929 . S
H2914 C2902 0.960 . S
H2915 C2902 0.962 . S
H2916 C2902 0.960 . S
H2917 C2903 0.961 . S
H2918 C2903 0.961 . S
H2919 C2903 0.961 . S
H2920 C2904 0.931 . S
H2921 C2909 0.930 . S
H2922 C2910 0.956 . S
H2923 C2910 0.961 . S
H2924 C2910 0.961 . S
H2925 C2911 0.958 . S
H2926 C2911 0.961 . S
H2927 C2911 0.960 . S
C2928 C2929 1.391 . S
C2928 C2930 1.394 . S
C2928 H2944 0.931 . S
C2929 C2928 1.391 . S
C2929 C2933 1.376 . S
C2930 C2928 1.394 . S
C2930 C2931 1.369 . S
C2930 C2934 1.531 . S
C2931 C2930 1.369 . S
C2931 C2932 1.410 . S
C2931 C2939 1.503 . S
C2932 C2931 1.410 . S
C2932 C2933 1.392 . S
C2932 C2935 1.511 . S
C2933 C2929 1.376 . S
C2933 C2932 1.392 . S
C2933 H2945 0.929 . S
C2934 C2930 1.531 . S
C2934 H2946 0.960 . S
C2934 H2947 0.962 . S
C2934 H2948 0.960 . S
C2935 C2932 1.511 . S
C2935 H2949 0.961 . S
C2935 H2950 0.961 . S
C2935 H2951 0.961 . S
C2936 C2937 1.370 . S
C2936 C2938 1.363 . S
C2936 H2952 0.931 . S
C2937 C2936 1.370 . S
C2937 C2941 1.408 . S
C2938 C2936 1.363 . S
C2938 C2939 1.370 . S
C2938 C2942 1.524 . S
C2939 C2931 1.503 . S
C2939 C2938 1.370 . S
C2939 C2940 1.403 . S
C2940 C2939 1.403 . S
C2940 C2941 1.404 . S
C2940 C2943 1.539 . S
C2941 C2937 1.408 . S
C2941 C2940 1.404 . S
C2941 H2953 0.930 . S
C2942 C2938 1.524 . S
C2942 H2954 0.956 . S
C2942 H2955 0.961 . S
C2942 H2956 0.961 . S
C2943 C2940 1.539 . S
C2943 H2957 0.958 . S
C2943 H2958 0.961 . S
C2943 H2959 0.960 . S
H2944 C2928 0.931 . S
H2945 C2933 0.929 . S
H2946 C2934 0.960 . S
H2947 C2934 0.962 . S
H2948 C2934 0.960 . S
H2949 C2935 0.961 . S
H2950 C2935 0.961 . S
H2951 C2935 0.961 . S
H2952 C2936 0.931 . S
H2953 C2941 0.930 . S
H2954 C2942 0.956 . S
H2955 C2942 0.961 . S
H2956 C2942 0.961 . S
H2957 C2943 0.958 . S
H2958 C2943 0.961 . S
H2959 C2943 0.960 . S
C2960 C2961 1.391 . S
C2960 C2962 1.394 . S
C2960 H2976 0.931 . S
C2961 C2960 1.391 . S
C2961 C2965 1.376 . S
C2962 C2960 1.394 . S
C2962 C2963 1.369 . S
C2962 C2966 1.531 . S
C2963 C2962 1.369 . S
C2963 C2964 1.410 . S
C2963 C2971 1.503 . S
C2964 C2963 1.410 . S
C2964 C2965 1.392 . S
C2964 C2967 1.511 . S
C2965 C2961 1.376 . S
C2965 C2964 1.392 . S
C2965 H2977 0.929 . S
C2966 C2962 1.531 . S
C2966 H2978 0.960 . S
C2966 H2979 0.962 . S
C2966 H2980 0.960 . S
C2967 C2964 1.511 . S
C2967 H2981 0.961 . S
C2967 H2982 0.961 . S
C2967 H2983 0.961 . S
C2968 C2969 1.370 . S
C2968 C2970 1.363 . S
C2968 H2984 0.931 . S
C2969 C2968 1.370 . S
C2969 C2973 1.408 . S
C2970 C2968 1.363 . S
C2970 C2971 1.370 . S
C2970 C2974 1.524 . S
C2971 C2963 1.503 . S
C2971 C2970 1.370 . S
C2971 C2972 1.403 . S
C2972 C2971 1.403 . S
C2972 C2973 1.404 . S
C2972 C2975 1.539 . S
C2973 C2969 1.408 . S
C2973 C2972 1.404 . S
C2973 H2985 0.930 . S
C2974 C2970 1.524 . S
C2974 H2986 0.956 . S
C2974 H2987 0.961 . S
C2974 H2988 0.961 . S
C2975 C2972 1.539 . S
C2975 H2989 0.958 . S
C2975 H2990 0.961 . S
C2975 H2991 0.960 . S
H2976 C2960 0.931 . S
H2977 C2965 0.929 . S
H2978 C2966 0.960 . S
H2979 C2966 0.962 . S
H2980 C2966 0.960 . S
H2981 C2967 0.961 . S
H2982 C2967 0.961 . S
H2983 C2967 0.961 . S
H2984 C2968 0.931 . S
H2985 C2973 0.930 . S
H2986 C2974 0.956 . S
H2987 C2974 0.961 . S
H2988 C2974 0.961 . S
H2989 C2975 0.958 . S
H2990 C2975 0.961 . S
H2991 C2975 0.960 . S
C2992 C2993 1.391 . S
C2992 C2994 1.394 . S
C2992 H3008 0.931 . S
C2993 C2992 1.391 . S
C2993 C2997 1.376 . S
C2994 C2992 1.394 . S
C2994 C2995 1.369 . S
C2994 C2998 1.531 . S
C2995 C2994 1.369 . S
C2995 C2996 1.410 . S
C2995 C3003 1.503 . S
C2996 C2995 1.410 . S
C2996 C2997 1.392 . S
C2996 C2999 1.511 . S
C2997 C2993 1.376 . S
C2997 C2996 1.392 . S
C2997 H3009 0.929 . S
C2998 C2994 1.531 . S
C2998 H3010 0.960 . S
C2998 H3011 0.962 . S
C2998 H3012 0.960 . S
C2999 C2996 1.511 . S
C2999 H3013 0.961 . S
C2999 H3014 0.961 . S
C2999 H3015 0.961 . S
C3000 C3001 1.370 . S
C3000 C3002 1.363 . S
C3000 H3016 0.931 . S
C3001 C3000 1.370 . S
C3001 C3005 1.408 . S
C3002 C3000 1.363 . S
C3002 C3003 1.370 . S
C3002 C3006 1.524 . S
C3003 C2995 1.503 . S
C3003 C3002 1.370 . S
C3003 C3004 1.403 . S
C3004 C3003 1.403 . S
C3004 C3005 1.404 . S
C3004 C3007 1.539 . S
C3005 C3001 1.408 . S
C3005 C3004 1.404 . S
C3005 H3017 0.930 . S
C3006 C3002 1.524 . S
C3006 H3018 0.956 . S
C3006 H3019 0.961 . S
C3006 H3020 0.961 . S
C3007 C3004 1.539 . S
C3007 H3021 0.958 . S
C3007 H3022 0.961 . S
C3007 H3023 0.960 . S
H3008 C2992 0.931 . S
H3009 C2997 0.929 . S
H3010 C2998 0.960 . S
H3011 C2998 0.962 . S
H3012 C2998 0.960 . S
H3013 C2999 0.961 . S
H3014 C2999 0.961 . S
H3015 C2999 0.961 . S
H3016 C3000 0.931 . S
H3017 C3005 0.930 . S
H3018 C3006 0.956 . S
H3019 C3006 0.961 . S
H3020 C3006 0.961 . S
H3021 C3007 0.958 . S
H3022 C3007 0.961 . S
H3023 C3007 0.960 . S
C3024 C3025 1.391 . S
C3024 C3026 1.394 . S
C3024 H3040 0.931 . S
C3025 C3024 1.391 . S
C3025 C3029 1.376 . S
C3026 C3024 1.394 . S
C3026 C3027 1.369 . S
C3026 C3030 1.531 . S
C3027 C3026 1.369 . S
C3027 C3028 1.410 . S
C3027 C3035 1.503 . S
C3028 C3027 1.410 . S
C3028 C3029 1.392 . S
C3028 C3031 1.511 . S
C3029 C3025 1.376 . S
C3029 C3028 1.392 . S
C3029 H3041 0.929 . S
C3030 C3026 1.531 . S
C3030 H3042 0.960 . S
C3030 H3043 0.962 . S
C3030 H3044 0.960 . S
C3031 C3028 1.511 . S
C3031 H3045 0.961 . S
C3031 H3046 0.961 . S
C3031 H3047 0.961 1_455 S
C3032 C3033 1.370 . S
C3032 C3034 1.363 . S
C3032 H3048 0.931 . S
C3033 C3032 1.370 . S
C3033 C3037 1.431 . S
C3034 C3032 1.363 . S
C3034 C3035 1.370 . S
C3034 C3038 1.524 . S
C3035 C3027 1.503 . S
C3035 C3034 1.370 . S
C3035 C3036 1.384 1_455 S
C3036 C3035 1.384 1_655 S
C3036 C3037 1.393 1_655 S
C3036 C3039 1.565 . S
C3037 C3033 1.431 . S
C3037 C3036 1.393 1_455 S
C3037 H3049 0.913 1_455 S
C3038 C3034 1.524 . S
C3038 H3050 0.956 . S
C3038 H3051 0.961 . S
C3038 H3052 0.961 . S
C3039 C3036 1.565 . S
C3039 H3053 0.958 . S
C3039 H3054 0.961 . S
C3039 H3055 0.960 . S
H3040 C3024 0.931 . S
H3041 C3029 0.929 . S
H3042 C3030 0.960 . S
H3043 C3030 0.962 . S
H3044 C3030 0.960 . S
H3045 C3031 0.961 . S
H3046 C3031 0.961 . S
H3047 C3031 0.961 1_655 S
H3048 C3032 0.931 . S
H3049 C3037 0.913 1_655 S
H3050 C3038 0.956 . S
H3051 C3038 0.961 . S
H3052 C3038 0.961 . S
H3053 C3039 0.958 . S
H3054 C3039 0.961 . S
H3055 C3039 0.960 . S
C3056 C3057 1.391 . S
C3056 C3058 1.394 . S
C3056 H3072 0.931 . S
C3057 C3056 1.391 . S
C3057 C3061 1.376 . S
C3058 C3056 1.394 . S
C3058 C3059 1.369 . S
C3058 C3062 1.531 . S
C3059 C3058 1.369 . S
C3059 C3060 1.410 . S
C3059 C3067 1.503 . S
C3060 C3059 1.410 . S
C3060 C3061 1.392 . S
C3060 C3063 1.511 . S
C3061 C3057 1.376 . S
C3061 C3060 1.392 . S
C3061 H3073 0.929 . S
C3062 C3058 1.531 . S
C3062 H3074 0.960 . S
C3062 H3075 0.962 . S
C3062 H3076 0.960 . S
C3063 C3060 1.511 . S
C3063 H3077 0.961 . S
C3063 H3078 0.961 . S
C3063 H3079 0.961 . S
C3064 C3065 1.370 . S
C3064 C3066 1.363 . S
C3064 H3080 0.931 . S
C3065 C3064 1.370 . S
C3065 C3069 1.408 . S
C3066 C3064 1.363 . S
C3066 C3067 1.370 . S
C3066 C3070 1.524 . S
C3067 C3059 1.503 . S
C3067 C3066 1.370 . S
C3067 C3068 1.403 . S
C3068 C3067 1.403 . S
C3068 C3069 1.404 . S
C3068 C3071 1.539 . S
C3069 C3065 1.408 . S
C3069 C3068 1.404 . S
C3069 H3081 0.930 . S
C3070 C3066 1.524 . S
C3070 H3082 0.956 . S
C3070 H3083 0.961 . S
C3070 H3084 0.961 . S
C3071 C3068 1.539 . S
C3071 H3085 0.958 . S
C3071 H3086 0.961 . S
C3071 H3087 0.960 . S
H3072 C3056 0.931 . S
H3073 C3061 0.929 . S
H3074 C3062 0.960 . S
H3075 C3062 0.962 . S
H3076 C3062 0.960 . S
H3077 C3063 0.961 . S
H3078 C3063 0.961 . S
H3079 C3063 0.961 . S
H3080 C3064 0.931 . S
H3081 C3069 0.930 . S
H3082 C3070 0.956 . S
H3083 C3070 0.961 . S
H3084 C3070 0.961 . S
H3085 C3071 0.958 . S
H3086 C3071 0.961 . S
H3087 C3071 0.960 . S
C3088 C3089 1.391 . S
C3088 C3090 1.394 . S
C3088 H3104 0.931 . S
C3089 C3088 1.391 . S
C3089 C3093 1.376 . S
C3090 C3088 1.394 . S
C3090 C3091 1.369 . S
C3090 C3094 1.531 . S
C3091 C3090 1.369 . S
C3091 C3092 1.410 . S
C3091 C3099 1.503 . S
C3092 C3091 1.410 . S
C3092 C3093 1.392 . S
C3092 C3095 1.511 . S
C3093 C3089 1.376 . S
C3093 C3092 1.392 . S
C3093 H3105 0.929 . S
C3094 C3090 1.531 . S
C3094 H3106 0.960 . S
C3094 H3107 0.962 . S
C3094 H3108 0.960 . S
C3095 C3092 1.511 . S
C3095 H3109 0.961 . S
C3095 H3110 0.961 . S
C3095 H3111 0.961 . S
C3096 C3097 1.370 . S
C3096 C3098 1.363 . S
C3096 H3112 0.931 1_556 S
C3097 C3096 1.370 . S
C3097 C3101 1.408 . S
C3098 C3096 1.363 . S
C3098 C3099 1.370 . S
C3098 C3102 1.524 . S
C3099 C3091 1.503 . S
C3099 C3098 1.370 . S
C3099 C3100 1.403 . S
C3100 C3099 1.403 . S
C3100 C3101 1.404 . S
C3100 C3103 1.539 . S
C3101 C3097 1.408 . S
C3101 C3100 1.404 . S
C3101 H3113 0.930 . S
C3102 C3098 1.524 . S
C3102 H3114 0.956 . S
C3102 H3115 0.961 . S
C3102 H3116 0.961 1_556 S
C3103 C3100 1.539 . S
C3103 H3117 0.958 . S
C3103 H3118 0.961 . S
C3103 H3119 0.960 . S
H3104 C3088 0.931 . S
H3105 C3093 0.929 . S
H3106 C3094 0.960 . S
H3107 C3094 0.962 . S
H3108 C3094 0.960 . S
H3109 C3095 0.961 . S
H3110 C3095 0.961 . S
H3111 C3095 0.961 . S
H3112 C3096 0.931 1_554 S
H3113 C3101 0.930 . S
H3114 C3102 0.956 . S
H3115 C3102 0.961 . S
H3116 C3102 0.961 1_554 S
H3117 C3103 0.958 . S
H3118 C3103 0.961 . S
H3119 C3103 0.960 . S
C3120 C3121 1.391 . S
C3120 C3122 1.394 . S
C3120 H3136 0.931 . S
C3121 C3120 1.391 . S
C3121 C3125 1.376 . S
C3122 C3120 1.394 . S
C3122 C3123 1.369 . S
C3122 C3126 1.531 . S
C3123 C3122 1.369 . S
C3123 C3124 1.410 . S
C3123 C3131 1.503 . S
C3124 C3123 1.410 . S
C3124 C3125 1.392 . S
C3124 C3127 1.511 . S
C3125 C3121 1.376 . S
C3125 C3124 1.392 . S
C3125 H3137 0.929 . S
C3126 C3122 1.531 . S
C3126 H3138 0.960 . S
C3126 H3139 0.962 . S
C3126 H3140 0.960 . S
C3127 C3124 1.511 . S
C3127 H3141 0.961 . S
C3127 H3142 0.961 . S
C3127 H3143 0.961 . S
C3128 C3129 1.370 . S
C3128 C3130 1.363 . S
C3128 H3144 0.931 . S
C3129 C3128 1.370 . S
C3129 C3133 1.408 . S
C3130 C3128 1.363 . S
C3130 C3131 1.370 . S
C3130 C3134 1.524 . S
C3131 C3123 1.503 . S
C3131 C3130 1.370 . S
C3131 C3132 1.403 . S
C3132 C3131 1.403 . S
C3132 C3133 1.404 . S
C3132 C3135 1.539 . S
C3133 C3129 1.408 . S
C3133 C3132 1.404 . S
C3133 H3145 0.930 . S
C3134 C3130 1.524 . S
C3134 H3146 0.956 . S
C3134 H3147 0.961 . S
C3134 H3148 0.961 . S
C3135 C3132 1.539 . S
C3135 H3149 0.958 . S
C3135 H3150 0.961 . S
C3135 H3151 0.960 . S
H3136 C3120 0.931 . S
H3137 C3125 0.929 . S
H3138 C3126 0.960 . S
H3139 C3126 0.962 . S
H3140 C3126 0.960 . S
H3141 C3127 0.961 . S
H3142 C3127 0.961 . S
H3143 C3127 0.961 . S
H3144 C3128 0.931 . S
H3145 C3133 0.930 . S
H3146 C3134 0.956 . S
H3147 C3134 0.961 . S
H3148 C3134 0.961 . S
H3149 C3135 0.958 . S
H3150 C3135 0.961 . S
H3151 C3135 0.960 . S
C3152 C3153 1.391 . S
C3152 C3154 1.394 . S
C3152 H3168 0.931 1_455 S
C3153 C3152 1.391 . S
C3153 C3157 1.376 . S
C3154 C3152 1.394 . S
C3154 C3155 1.369 . S
C3154 C3158 1.531 1_455 S
C3155 C3154 1.369 . S
C3155 C3156 1.410 . S
C3155 C3163 1.503 . S
C3156 C3155 1.410 . S
C3156 C3157 1.392 . S
C3156 C3159 1.511 . S
C3157 C3153 1.376 . S
C3157 C3156 1.392 . S
C3157 H3169 0.929 . S
C3158 C3154 1.531 1_655 S
C3158 H3170 0.960 . S
C3158 H3171 0.962 . S
C3158 H3172 0.960 . S
C3159 C3156 1.511 . S
C3159 H3173 0.961 . S
C3159 H3174 0.961 . S
C3159 H3175 0.961 . S
C3160 C3161 1.370 . S
C3160 C3162 1.363 . S
C3160 H3176 0.931 . S
C3161 C3160 1.370 . S
C3161 C3165 1.408 . S
C3162 C3160 1.363 . S
C3162 C3163 1.370 . S
C3162 C3166 1.524 . S
C3163 C3155 1.503 . S
C3163 C3162 1.370 . S
C3163 C3164 1.403 . S
C3164 C3163 1.403 . S
C3164 C3165 1.404 . S
C3164 C3167 1.539 . S
C3165 C3161 1.408 . S
C3165 C3164 1.404 . S
C3165 H3177 0.930 . S
C3166 C3162 1.524 . S
C3166 H3178 0.956 . S
C3166 H3179 0.961 . S
C3166 H3180 0.961 . S
C3167 C3164 1.539 . S
C3167 H3181 0.958 . S
C3167 H3182 0.961 . S
C3167 H3183 0.960 . S
H3168 C3152 0.931 1_655 S
H3169 C3157 0.929 . S
H3170 C3158 0.960 . S
H3171 C3158 0.962 . S
H3172 C3158 0.960 . S
H3173 C3159 0.961 . S
H3174 C3159 0.961 . S
H3175 C3159 0.961 . S
H3176 C3160 0.931 . S
H3177 C3165 0.930 . S
H3178 C3166 0.956 . S
H3179 C3166 0.961 . S
H3180 C3166 0.961 . S
H3181 C3167 0.958 . S
H3182 C3167 0.961 . S
H3183 C3167 0.960 . S
C3184 C3185 1.391 . S
C3184 C3186 1.394 . S
C3184 H3200 0.931 . S
C3185 C3184 1.391 . S
C3185 C3189 1.376 . S
C3186 C3184 1.394 . S
C3186 C3187 1.369 . S
C3186 C3190 1.531 . S
C3187 C3186 1.369 . S
C3187 C3188 1.410 . S
C3187 C3195 1.503 . S
C3188 C3187 1.410 . S
C3188 C3189 1.392 . S
C3188 C3191 1.511 . S
C3189 C3185 1.376 . S
C3189 C3188 1.392 . S
C3189 H3201 0.929 . S
C3190 C3186 1.531 . S
C3190 H3202 0.960 . S
C3190 H3203 0.962 . S
C3190 H3204 0.960 . S
C3191 C3188 1.511 . S
C3191 H3205 0.961 . S
C3191 H3206 0.961 . S
C3191 H3207 0.961 . S
C3192 C3193 1.370 . S
C3192 C3194 1.363 . S
C3192 H3208 0.931 . S
C3193 C3192 1.370 . S
C3193 C3197 1.408 . S
C3194 C3192 1.363 . S
C3194 C3195 1.370 . S
C3194 C3198 1.524 . S
C3195 C3187 1.503 . S
C3195 C3194 1.370 . S
C3195 C3196 1.403 . S
C3196 C3195 1.403 . S
C3196 C3197 1.404 . S
C3196 C3199 1.539 . S
C3197 C3193 1.408 . S
C3197 C3196 1.404 . S
C3197 H3209 0.930 . S
C3198 C3194 1.524 . S
C3198 H3210 0.956 . S
C3198 H3211 0.961 . S
C3198 H3212 0.961 . S
C3199 C3196 1.539 . S
C3199 H3213 0.958 . S
C3199 H3214 0.961 . S
C3199 H3215 0.960 . S
H3200 C3184 0.931 . S
H3201 C3189 0.929 . S
H3202 C3190 0.960 . S
H3203 C3190 0.962 . S
H3204 C3190 0.960 . S
H3205 C3191 0.961 . S
H3206 C3191 0.961 . S
H3207 C3191 0.961 . S
H3208 C3192 0.931 . S
H3209 C3197 0.930 . S
H3210 C3198 0.956 . S
H3211 C3198 0.961 . S
H3212 C3198 0.961 . S
H3213 C3199 0.958 . S
H3214 C3199 0.961 . S
H3215 C3199 0.960 . S
C3216 C3217 1.391 . S
C3216 C3218 1.394 . S
C3216 H3232 0.931 . S
C3217 C3216 1.391 . S
C3217 C3221 1.376 . S
C3218 C3216 1.394 . S
C3218 C3219 1.369 . S
C3218 C3222 1.531 . S
C3219 C3218 1.369 . S
C3219 C3220 1.410 . S
C3219 C3227 1.503 . S
C3220 C3219 1.410 . S
C3220 C3221 1.392 . S
C3220 C3223 1.511 . S
C3221 C3217 1.376 . S
C3221 C3220 1.392 . S
C3221 H3233 0.929 . S
C3222 C3218 1.531 . S
C3222 H3234 0.960 . S
C3222 H3235 0.962 . S
C3222 H3236 0.960 . S
C3223 C3220 1.511 . S
C3223 H3237 0.961 . S
C3223 H3238 0.961 . S
C3223 H3239 0.961 . S
C3224 C3225 1.370 . S
C3224 C3226 1.363 . S
C3224 H3240 0.931 . S
C3225 C3224 1.370 . S
C3225 C3229 1.408 . S
C3226 C3224 1.363 . S
C3226 C3227 1.370 . S
C3226 C3230 1.524 . S
C3227 C3219 1.503 . S
C3227 C3226 1.370 . S
C3227 C3228 1.403 . S
C3228 C3227 1.403 . S
C3228 C3229 1.404 . S
C3228 C3231 1.539 . S
C3229 C3225 1.408 . S
C3229 C3228 1.404 . S
C3229 H3241 0.930 . S
C3230 C3226 1.524 . S
C3230 H3242 0.956 . S
C3230 H3243 0.961 . S
C3230 H3244 0.961 . S
C3231 C3228 1.539 . S
C3231 H3245 0.958 . S
C3231 H3246 0.961 . S
C3231 H3247 0.960 . S
H3232 C3216 0.931 . S
H3233 C3221 0.929 . S
H3234 C3222 0.960 . S
H3235 C3222 0.962 . S
H3236 C3222 0.960 . S
H3237 C3223 0.961 . S
H3238 C3223 0.961 . S
H3239 C3223 0.961 . S
H3240 C3224 0.931 . S
H3241 C3229 0.930 . S
H3242 C3230 0.956 . S
H3243 C3230 0.961 . S
H3244 C3230 0.961 . S
H3245 C3231 0.958 . S
H3246 C3231 0.961 . S
H3247 C3231 0.960 . S
C3248 C3249 1.391 . S
C3248 C3250 1.394 . S
C3248 H3264 0.931 . S
C3249 C3248 1.391 . S
C3249 C3253 1.376 . S
C3250 C3248 1.394 . S
C3250 C3251 1.369 . S
C3250 C3254 1.531 . S
C3251 C3250 1.369 . S
C3251 C3252 1.410 . S
C3251 C3259 1.503 . S
C3252 C3251 1.410 . S
C3252 C3253 1.392 . S
C3252 C3255 1.511 . S
C3253 C3249 1.376 . S
C3253 C3252 1.392 . S
C3253 H3265 0.929 . S
C3254 C3250 1.531 . S
C3254 H3266 0.960 . S
C3254 H3267 0.962 . S
C3254 H3268 0.960 . S
C3255 C3252 1.511 . S
C3255 H3269 0.961 . S
C3255 H3270 0.961 . S
C3255 H3271 0.961 . S
C3256 C3257 1.370 . S
C3256 C3258 1.363 . S
C3256 H3272 0.931 . S
C3257 C3256 1.370 . S
C3257 C3261 1.408 . S
C3258 C3256 1.363 . S
C3258 C3259 1.370 . S
C3258 C3262 1.524 . S
C3259 C3251 1.503 . S
C3259 C3258 1.370 . S
C3259 C3260 1.403 . S
C3260 C3259 1.403 . S
C3260 C3261 1.404 . S
C3260 C3263 1.539 . S
C3261 C3257 1.408 . S
C3261 C3260 1.404 . S
C3261 H3273 0.930 . S
C3262 C3258 1.524 . S
C3262 H3274 0.956 . S
C3262 H3275 0.961 . S
C3262 H3276 0.961 . S
C3263 C3260 1.539 . S
C3263 H3277 0.958 . S
C3263 H3278 0.961 . S
C3263 H3279 0.960 . S
H3264 C3248 0.931 . S
H3265 C3253 0.929 . S
H3266 C3254 0.960 . S
H3267 C3254 0.962 . S
H3268 C3254 0.960 . S
H3269 C3255 0.961 . S
H3270 C3255 0.961 . S
H3271 C3255 0.961 . S
H3272 C3256 0.931 . S
H3273 C3261 0.930 . S
H3274 C3262 0.956 . S
H3275 C3262 0.961 . S
H3276 C3262 0.961 . S
H3277 C3263 0.958 . S
H3278 C3263 0.961 . S
H3279 C3263 0.960 . S
C3280 C3281 1.391 . S
C3280 C3282 1.394 . S
C3280 H3296 0.931 . S
C3281 C3280 1.391 . S
C3281 C3285 1.376 . S
C3282 C3280 1.394 . S
C3282 C3283 1.369 . S
C3282 C3286 1.531 . S
C3283 C3282 1.369 . S
C3283 C3284 1.410 . S
C3283 C3291 1.503 . S
C3284 C3283 1.410 . S
C3284 C3285 1.392 . S
C3284 C3287 1.511 . S
C3285 C3281 1.376 . S
C3285 C3284 1.392 . S
C3285 H3297 0.929 . S
C3286 C3282 1.531 . S
C3286 H3298 0.960 . S
C3286 H3299 0.962 . S
C3286 H3300 0.960 . S
C3287 C3284 1.511 . S
C3287 H3301 0.961 . S
C3287 H3302 0.961 . S
C3287 H3303 0.961 . S
C3288 C3289 1.370 1_455 S
C3288 C3290 1.363 1_455 S
C3288 H3304 0.931 . S
C3289 C3288 1.370 1_655 S
C3289 C3293 1.408 . S
C3290 C3288 1.363 1_655 S
C3290 C3291 1.370 . S
C3290 C3294 1.524 1_655 S
C3291 C3283 1.503 . S
C3291 C3290 1.370 . S
C3291 C3292 1.403 . S
C3292 C3291 1.403 . S
C3292 C3293 1.404 . S
C3292 C3295 1.539 . S
C3293 C3289 1.408 . S
C3293 C3292 1.404 . S
C3293 H3305 0.930 . S
C3294 C3290 1.524 1_455 S
C3294 H3306 0.956 . S
C3294 H3307 0.961 1_455 S
C3294 H3308 0.961 . S
C3295 C3292 1.539 . S
C3295 H3309 0.958 . S
C3295 H3310 0.961 . S
C3295 H3311 0.960 . S
H3296 C3280 0.931 . S
H3297 C3285 0.929 . S
H3298 C3286 0.960 . S
H3299 C3286 0.962 . S
H3300 C3286 0.960 . S
H3301 C3287 0.961 . S
H3302 C3287 0.961 . S
H3303 C3287 0.961 . S
H3304 C3288 0.931 . S
H3305 C3293 0.930 . S
H3306 C3294 0.956 . S
H3307 C3294 0.961 1_655 S
H3308 C3294 0.961 . S
H3309 C3295 0.958 . S
H3310 C3295 0.961 . S
H3311 C3295 0.960 . S
C3312 C3313 1.391 . S
C3312 C3314 1.394 . S
C3312 H3328 0.931 . S
C3313 C3312 1.391 . S
C3313 C3317 1.376 . S
C3314 C3312 1.394 . S
C3314 C3315 1.369 . S
C3314 C3318 1.531 . S
C3315 C3314 1.369 . S
C3315 C3316 1.410 . S
C3315 C3323 1.503 . S
C3316 C3315 1.410 . S
C3316 C3317 1.392 . S
C3316 C3319 1.511 . S
C3317 C3313 1.376 . S
C3317 C3316 1.392 . S
C3317 H3329 0.929 . S
C3318 C3314 1.531 . S
C3318 H3330 0.960 . S
C3318 H3331 0.962 . S
C3318 H3332 0.960 . S
C3319 C3316 1.511 . S
C3319 H3333 0.961 . S
C3319 H3334 0.961 . S
C3319 H3335 0.961 . S
C3320 C3321 1.370 . S
C3320 C3322 1.363 . S
C3320 H3336 0.931 . S
C3321 C3320 1.370 . S
C3321 C3325 1.408 . S
C3322 C3320 1.363 . S
C3322 C3323 1.370 . S
C3322 C3326 1.524 . S
C3323 C3315 1.503 . S
C3323 C3322 1.370 . S
C3323 C3324 1.403 . S
C3324 C3323 1.403 . S
C3324 C3325 1.404 . S
C3324 C3327 1.539 . S
C3325 C3321 1.408 . S
C3325 C3324 1.404 . S
C3325 H3337 0.930 . S
C3326 C3322 1.524 . S
C3326 H3338 0.956 . S
C3326 H3339 0.961 . S
C3326 H3340 0.961 . S
C3327 C3324 1.539 . S
C3327 H3341 0.958 . S
C3327 H3342 0.961 . S
C3327 H3343 0.960 . S
H3328 C3312 0.931 . S
H3329 C3317 0.929 . S
H3330 C3318 0.960 . S
H3331 C3318 0.962 . S
H3332 C3318 0.960 . S
H3333 C3319 0.961 . S
H3334 C3319 0.961 . S
H3335 C3319 0.961 . S
H3336 C3320 0.931 . S
H3337 C3325 0.930 . S
H3338 C3326 0.956 . S
H3339 C3326 0.961 . S
H3340 C3326 0.961 . S
H3341 C3327 0.958 . S
H3342 C3327 0.961 . S
H3343 C3327 0.960 . S
C3344 C3345 1.391 . S
C3344 C3346 1.394 . S
C3344 H3360 0.931 . S
C3345 C3344 1.391 . S
C3345 C3349 1.376 . S
C3346 C3344 1.394 . S
C3346 C3347 1.369 . S
C3346 C3350 1.531 . S
C3347 C3346 1.369 . S
C3347 C3348 1.410 . S
C3347 C3355 1.503 . S
C3348 C3347 1.410 . S
C3348 C3349 1.392 . S
C3348 C3351 1.511 . S
C3349 C3345 1.376 . S
C3349 C3348 1.392 . S
C3349 H3361 0.929 . S
C3350 C3346 1.531 . S
C3350 H3362 0.960 . S
C3350 H3363 0.962 . S
C3350 H3364 0.960 . S
C3351 C3348 1.511 . S
C3351 H3365 0.961 . S
C3351 H3366 0.961 . S
C3351 H3367 0.961 . S
C3352 C3353 1.370 . S
C3352 C3354 1.363 . S
C3352 H3368 0.931 . S
C3353 C3352 1.370 . S
C3353 C3357 1.408 . S
C3354 C3352 1.363 . S
C3354 C3355 1.370 . S
C3354 C3358 1.524 . S
C3355 C3347 1.503 . S
C3355 C3354 1.370 . S
C3355 C3356 1.403 . S
C3356 C3355 1.403 . S
C3356 C3357 1.404 . S
C3356 C3359 1.539 . S
C3357 C3353 1.408 . S
C3357 C3356 1.404 . S
C3357 H3369 0.930 . S
C3358 C3354 1.524 . S
C3358 H3370 0.956 . S
C3358 H3371 0.961 . S
C3358 H3372 0.961 . S
C3359 C3356 1.539 . S
C3359 H3373 0.958 . S
C3359 H3374 0.961 . S
C3359 H3375 0.960 . S
H3360 C3344 0.931 . S
H3361 C3349 0.929 . S
H3362 C3350 0.960 . S
H3363 C3350 0.962 . S
H3364 C3350 0.960 . S
H3365 C3351 0.961 . S
H3366 C3351 0.961 . S
H3367 C3351 0.961 . S
H3368 C3352 0.931 . S
H3369 C3357 0.930 . S
H3370 C3358 0.956 . S
H3371 C3358 0.961 . S
H3372 C3358 0.961 . S
H3373 C3359 0.958 . S
H3374 C3359 0.961 . S
H3375 C3359 0.960 . S
C3376 C3377 1.391 . S
C3376 C3378 1.394 . S
C3376 H3392 0.931 . S
C3377 C3376 1.391 . S
C3377 C3381 1.376 . S
C3378 C3376 1.394 . S
C3378 C3379 1.369 . S
C3378 C3382 1.531 . S
C3379 C3378 1.369 . S
C3379 C3380 1.410 . S
C3379 C3387 1.503 . S
C3380 C3379 1.410 . S
C3380 C3381 1.392 . S
C3380 C3383 1.511 . S
C3381 C3377 1.376 . S
C3381 C3380 1.392 . S
C3381 H3393 0.929 . S
C3382 C3378 1.531 . S
C3382 H3394 0.960 . S
C3382 H3395 0.962 . S
C3382 H3396 0.960 . S
C3383 C3380 1.511 . S
C3383 H3397 0.961 . S
C3383 H3398 0.961 . S
C3383 H3399 0.961 . S
C3384 C3385 1.370 . S
C3384 C3386 1.363 . S
C3384 H3400 0.931 . S
C3385 C3384 1.370 . S
C3385 C3389 1.408 . S
C3386 C3384 1.363 . S
C3386 C3387 1.370 . S
C3386 C3390 1.524 . S
C3387 C3379 1.503 . S
C3387 C3386 1.370 . S
C3387 C3388 1.403 . S
C3388 C3387 1.403 . S
C3388 C3389 1.404 . S
C3388 C3391 1.539 . S
C3389 C3385 1.408 . S
C3389 C3388 1.404 . S
C3389 H3401 0.930 . S
C3390 C3386 1.524 . S
C3390 H3402 0.956 . S
C3390 H3403 0.961 . S
C3390 H3404 0.961 . S
C3391 C3388 1.539 . S
C3391 H3405 0.958 . S
C3391 H3406 0.961 . S
C3391 H3407 0.960 . S
H3392 C3376 0.931 . S
H3393 C3381 0.929 . S
H3394 C3382 0.960 . S
H3395 C3382 0.962 . S
H3396 C3382 0.960 . S
H3397 C3383 0.961 . S
H3398 C3383 0.961 . S
H3399 C3383 0.961 . S
H3400 C3384 0.931 . S
H3401 C3389 0.930 . S
H3402 C3390 0.956 . S
H3403 C3390 0.961 . S
H3404 C3390 0.961 . S
H3405 C3391 0.958 . S
H3406 C3391 0.961 . S
H3407 C3391 0.960 . S
C3408 C3409 1.391 . S
C3408 C3410 1.394 . S
C3408 H3424 0.931 . S
C3409 C3408 1.391 . S
C3409 C3413 1.376 . S
C3410 C3408 1.394 . S
C3410 C3411 1.369 . S
C3410 C3414 1.531 . S
C3411 C3410 1.369 . S
C3411 C3412 1.410 . S
C3411 C3419 1.503 . S
C3412 C3411 1.410 . S
C3412 C3413 1.392 . S
C3412 C3415 1.511 . S
C3413 C3409 1.376 . S
C3413 C3412 1.392 . S
C3413 H3425 0.929 . S
C3414 C3410 1.531 . S
C3414 H3426 0.960 . S
C3414 H3427 0.962 . S
C3414 H3428 0.960 . S
C3415 C3412 1.511 . S
C3415 H3429 0.961 . S
C3415 H3430 0.961 . S
C3415 H3431 0.961 . S
C3416 C3417 1.370 . S
C3416 C3418 1.363 . S
C3416 H3432 0.931 . S
C3417 C3416 1.370 . S
C3417 C3421 1.408 . S
C3418 C3416 1.363 . S
C3418 C3419 1.370 . S
C3418 C3422 1.524 . S
C3419 C3411 1.503 . S
C3419 C3418 1.370 . S
C3419 C3420 1.403 . S
C3420 C3419 1.403 . S
C3420 C3421 1.404 . S
C3420 C3423 1.539 . S
C3421 C3417 1.408 . S
C3421 C3420 1.404 . S
C3421 H3433 0.930 . S
C3422 C3418 1.524 . S
C3422 H3434 0.956 . S
C3422 H3435 0.961 . S
C3422 H3436 0.961 . S
C3423 C3420 1.539 . S
C3423 H3437 0.958 . S
C3423 H3438 0.961 . S
C3423 H3439 0.960 . S
H3424 C3408 0.931 . S
H3425 C3413 0.929 . S
H3426 C3414 0.960 . S
H3427 C3414 0.962 . S
H3428 C3414 0.960 . S
H3429 C3415 0.961 . S
H3430 C3415 0.961 . S
H3431 C3415 0.961 . S
H3432 C3416 0.931 . S
H3433 C3421 0.930 . S
H3434 C3422 0.956 . S
H3435 C3422 0.961 . S
H3436 C3422 0.961 . S
H3437 C3423 0.958 . S
H3438 C3423 0.961 . S
H3439 C3423 0.960 . S
C3440 C3441 1.391 . S
C3440 C3442 1.394 . S
C3440 H3456 0.931 . S
C3441 C3440 1.391 . S
C3441 C3445 1.376 . S
C3442 C3440 1.394 . S
C3442 C3443 1.369 . S
C3442 C3446 1.531 . S
C3443 C3442 1.369 . S
C3443 C3444 1.410 . S
C3443 C3451 1.503 . S
C3444 C3443 1.410 . S
C3444 C3445 1.392 . S
C3444 C3447 1.511 . S
C3445 C3441 1.376 . S
C3445 C3444 1.392 . S
C3445 H3457 0.929 . S
C3446 C3442 1.531 . S
C3446 H3458 0.960 . S
C3446 H3459 0.962 . S
C3446 H3460 0.960 . S
C3447 C3444 1.511 . S
C3447 H3461 0.961 . S
C3447 H3462 0.961 . S
C3447 H3463 0.961 . S
C3448 C3449 1.370 . S
C3448 C3450 1.363 . S
C3448 H3464 0.931 . S
C3449 C3448 1.370 . S
C3449 C3453 1.408 . S
C3450 C3448 1.363 . S
C3450 C3451 1.370 . S
C3450 C3454 1.524 . S
C3451 C3443 1.503 . S
C3451 C3450 1.370 . S
C3451 C3452 1.403 . S
C3452 C3451 1.403 . S
C3452 C3453 1.404 . S
C3452 C3455 1.539 . S
C3453 C3449 1.408 . S
C3453 C3452 1.404 . S
C3453 H3465 0.930 . S
C3454 C3450 1.524 . S
C3454 H3466 0.956 . S
C3454 H3467 0.961 . S
C3454 H3468 0.961 . S
C3455 C3452 1.539 . S
C3455 H3469 0.958 . S
C3455 H3470 0.961 . S
C3455 H3471 0.960 . S
H3456 C3440 0.931 . S
H3457 C3445 0.929 . S
H3458 C3446 0.960 . S
H3459 C3446 0.962 . S
H3460 C3446 0.960 . S
H3461 C3447 0.961 . S
H3462 C3447 0.961 . S
H3463 C3447 0.961 . S
H3464 C3448 0.931 . S
H3465 C3453 0.930 . S
H3466 C3454 0.956 . S
H3467 C3454 0.961 . S
H3468 C3454 0.961 . S
H3469 C3455 0.958 . S
H3470 C3455 0.961 . S
H3471 C3455 0.960 . S
C3472 C3473 1.391 . S
C3472 C3474 1.394 . S
C3472 H3488 0.931 . S
C3473 C3472 1.391 . S
C3473 C3477 1.376 . S
C3474 C3472 1.394 . S
C3474 C3475 1.369 . S
C3474 C3478 1.531 . S
C3475 C3474 1.369 . S
C3475 C3476 1.410 . S
C3475 C3483 1.503 . S
C3476 C3475 1.410 . S
C3476 C3477 1.392 . S
C3476 C3479 1.511 . S
C3477 C3473 1.376 . S
C3477 C3476 1.392 . S
C3477 H3489 0.929 . S
C3478 C3474 1.531 . S
C3478 H3490 0.960 . S
C3478 H3491 0.962 . S
C3478 H3492 0.960 . S
C3479 C3476 1.511 . S
C3479 H3493 0.961 . S
C3479 H3494 0.961 . S
C3479 H3495 0.961 . S
C3480 C3481 1.370 . S
C3480 C3482 1.363 . S
C3480 H3496 0.931 . S
C3481 C3480 1.370 . S
C3481 C3485 1.408 . S
C3482 C3480 1.363 . S
C3482 C3483 1.370 . S
C3482 C3486 1.524 . S
C3483 C3475 1.503 . S
C3483 C3482 1.370 . S
C3483 C3484 1.403 . S
C3484 C3483 1.403 . S
C3484 C3485 1.404 . S
C3484 C3487 1.539 . S
C3485 C3481 1.408 . S
C3485 C3484 1.404 . S
C3485 H3497 0.930 . S
C3486 C3482 1.524 . S
C3486 H3498 0.956 . S
C3486 H3499 0.961 . S
C3486 H3500 0.961 . S
C3487 C3484 1.539 . S
C3487 H3501 0.958 . S
C3487 H3502 0.961 . S
C3487 H3503 0.960 . S
H3488 C3472 0.931 . S
H3489 C3477 0.929 . S
H3490 C3478 0.960 . S
H3491 C3478 0.962 . S
H3492 C3478 0.960 . S
H3493 C3479 0.961 . S
H3494 C3479 0.961 . S
H3495 C3479 0.961 . S
H3496 C3480 0.931 . S
H3497 C3485 0.930 . S
H3498 C3486 0.956 . S
H3499 C3486 0.961 . S
H3500 C3486 0.961 . S
H3501 C3487 0.958 . S
H3502 C3487 0.961 . S
H3503 C3487 0.960 . S
C3504 C3505 1.391 . S
C3504 C3506 1.394 . S
C3504 H3520 0.931 . S
C3505 C3504 1.391 . S
C3505 C3509 1.376 . S
C3506 C3504 1.394 . S
C3506 C3507 1.369 . S
C3506 C3510 1.531 . S
C3507 C3506 1.369 . S
C3507 C3508 1.410 . S
C3507 C3515 1.503 . S
C3508 C3507 1.410 . S
C3508 C3509 1.392 . S
C3508 C3511 1.511 . S
C3509 C3505 1.376 . S
C3509 C3508 1.392 . S
C3509 H3521 0.929 . S
C3510 C3506 1.531 . S
C3510 H3522 0.960 . S
C3510 H3523 0.962 . S
C3510 H3524 0.960 . S
C3511 C3508 1.511 . S
C3511 H3525 0.961 . S
C3511 H3526 0.961 . S
C3511 H3527 0.961 . S
C3512 C3513 1.370 . S
C3512 C3514 1.363 . S
C3512 H3528 0.931 . S
C3513 C3512 1.370 . S
C3513 C3517 1.408 . S
C3514 C3512 1.363 . S
C3514 C3515 1.370 . S
C3514 C3518 1.524 . S
C3515 C3507 1.503 . S
C3515 C3514 1.370 . S
C3515 C3516 1.403 . S
C3516 C3515 1.403 . S
C3516 C3517 1.404 . S
C3516 C3519 1.539 . S
C3517 C3513 1.408 . S
C3517 C3516 1.404 . S
C3517 H3529 0.930 . S
C3518 C3514 1.524 . S
C3518 H3530 0.956 . S
C3518 H3531 0.961 . S
C3518 H3532 0.961 . S
C3519 C3516 1.539 . S
C3519 H3533 0.958 . S
C3519 H3534 0.961 . S
C3519 H3535 0.960 . S
H3520 C3504 0.931 . S
H3521 C3509 0.929 . S
H3522 C3510 0.960 . S
H3523 C3510 0.962 . S
H3524 C3510 0.960 . S
H3525 C3511 0.961 . S
H3526 C3511 0.961 . S
H3527 C3511 0.961 . S
H3528 C3512 0.931 . S
H3529 C3517 0.930 . S
H3530 C3518 0.956 . S
H3531 C3518 0.961 . S
H3532 C3518 0.961 . S
H3533 C3519 0.958 . S
H3534 C3519 0.961 . S
H3535 C3519 0.960 . S
C3536 C3537 1.391 . S
C3536 C3538 1.394 . S
C3536 H3552 0.931 . S
C3537 C3536 1.391 . S
C3537 C3541 1.376 . S
C3538 C3536 1.394 . S
C3538 C3539 1.369 . S
C3538 C3542 1.531 . S
C3539 C3538 1.369 . S
C3539 C3540 1.410 . S
C3539 C3547 1.503 . S
C3540 C3539 1.410 . S
C3540 C3541 1.392 . S
C3540 C3543 1.511 . S
C3541 C3537 1.376 . S
C3541 C3540 1.392 . S
C3541 H3553 0.929 . S
C3542 C3538 1.531 . S
C3542 H3554 0.960 . S
C3542 H3555 0.962 . S
C3542 H3556 0.960 . S
C3543 C3540 1.511 . S
C3543 H3557 0.961 . S
C3543 H3558 0.961 . S
C3543 H3559 0.961 . S
C3544 C3545 1.370 . S
C3544 C3546 1.363 . S
C3544 H3560 0.931 . S
C3545 C3544 1.370 . S
C3545 C3549 1.408 . S
C3546 C3544 1.363 . S
C3546 C3547 1.370 . S
C3546 C3550 1.524 . S
C3547 C3539 1.503 . S
C3547 C3546 1.370 . S
C3547 C3548 1.403 . S
C3548 C3547 1.403 . S
C3548 C3549 1.404 . S
C3548 C3551 1.539 . S
C3549 C3545 1.408 . S
C3549 C3548 1.404 . S
C3549 H3561 0.930 . S
C3550 C3546 1.524 . S
C3550 H3562 0.956 . S
C3550 H3563 0.961 . S
C3550 H3564 0.961 . S
C3551 C3548 1.539 . S
C3551 H3565 0.958 . S
C3551 H3566 0.961 . S
C3551 H3567 0.960 . S
H3552 C3536 0.931 . S
H3553 C3541 0.929 . S
H3554 C3542 0.960 . S
H3555 C3542 0.962 . S
H3556 C3542 0.960 . S
H3557 C3543 0.961 . S
H3558 C3543 0.961 . S
H3559 C3543 0.961 . S
H3560 C3544 0.931 . S
H3561 C3549 0.930 . S
H3562 C3550 0.956 . S
H3563 C3550 0.961 . S
H3564 C3550 0.961 . S
H3565 C3551 0.958 . S
H3566 C3551 0.961 . S
H3567 C3551 0.960 . S
C3568 C3569 1.391 . S
C3568 C3570 1.394 . S
C3568 H3584 0.919 1_554 S
C3569 C3568 1.391 . S
C3569 C3573 1.376 . S
C3570 C3568 1.394 . S
C3570 C3571 1.369 . S
C3570 C3574 1.531 1_554 S
C3571 C3570 1.369 . S
C3571 C3572 1.410 . S
C3571 C3579 1.503 . S
C3572 C3571 1.410 . S
C3572 C3573 1.392 . S
C3572 C3575 1.511 . S
C3573 C3569 1.376 . S
C3573 C3572 1.392 . S
C3573 H3585 0.929 . S
C3574 C3570 1.531 1_556 S
C3574 H3586 0.960 . S
C3574 H3587 0.962 1_556 S
C3574 H3588 0.960 . S
C3575 C3572 1.511 . S
C3575 H3589 0.961 . S
C3575 H3590 0.961 . S
C3575 H3591 0.961 . S
C3576 C3577 1.370 . S
C3576 C3578 1.363 . S
C3576 H3592 0.931 . S
C3577 C3576 1.370 . S
C3577 C3581 1.408 . S
C3578 C3576 1.363 . S
C3578 C3579 1.370 . S
C3578 C3582 1.524 . S
C3579 C3571 1.503 . S
C3579 C3578 1.370 . S
C3579 C3580 1.403 . S
C3580 C3579 1.403 . S
C3580 C3581 1.404 . S
C3580 C3583 1.539 1_554 S
C3581 C3577 1.408 . S
C3581 C3580 1.404 . S
C3581 H3593 0.930 1_554 S
C3582 C3578 1.524 . S
C3582 H3594 0.956 . S
C3582 H3595 0.961 . S
C3582 H3596 0.961 . S
C3583 C3580 1.539 1_556 S
C3583 H3597 0.958 . S
C3583 H3598 0.961 . S
C3583 H3599 0.960 . S
H3584 C3568 0.919 1_556 S
H3585 C3573 0.929 . S
H3586 C3574 0.960 . S
H3587 C3574 0.962 1_554 S
H3588 C3574 0.960 . S
H3589 C3575 0.961 . S
H3590 C3575 0.961 . S
H3591 C3575 0.961 . S
H3592 C3576 0.931 . S
H3593 C3581 0.930 1_556 S
H3594 C3582 0.956 . S
H3595 C3582 0.961 . S
H3596 C3582 0.961 . S
H3597 C3583 0.958 . S
H3598 C3583 0.961 . S
H3599 C3583 0.960 . S
C3600 C3601 1.391 . S
C3600 C3602 1.394 . S
C3600 H3616 0.931 . S
C3601 C3600 1.391 . S
C3601 C3605 1.376 . S
C3602 C3600 1.394 . S
C3602 C3603 1.369 . S
C3602 C3606 1.531 . S
C3603 C3602 1.369 . S
C3603 C3604 1.410 . S
C3603 C3611 1.503 . S
C3604 C3603 1.410 . S
C3604 C3605 1.392 . S
C3604 C3607 1.511 . S
C3605 C3601 1.376 . S
C3605 C3604 1.392 . S
C3605 H3617 0.929 . S
C3606 C3602 1.531 . S
C3606 H3618 0.960 . S
C3606 H3619 0.962 . S
C3606 H3620 0.960 . S
C3607 C3604 1.511 . S
C3607 H3621 0.961 . S
C3607 H3622 0.961 . S
C3607 H3623 0.961 . S
C3608 C3609 1.370 . S
C3608 C3610 1.363 . S
C3608 H3624 0.931 . S
C3609 C3608 1.370 . S
C3609 C3613 1.408 . S
C3610 C3608 1.363 . S
C3610 C3611 1.370 . S
C3610 C3614 1.524 . S
C3611 C3603 1.503 . S
C3611 C3610 1.370 . S
C3611 C3612 1.403 . S
C3612 C3611 1.403 . S
C3612 C3613 1.404 . S
C3612 C3615 1.539 . S
C3613 C3609 1.408 . S
C3613 C3612 1.404 . S
C3613 H3625 0.930 . S
C3614 C3610 1.524 . S
C3614 H3626 0.956 . S
C3614 H3627 0.961 . S
C3614 H3628 0.961 . S
C3615 C3612 1.539 . S
C3615 H3629 0.958 . S
C3615 H3630 0.961 . S
C3615 H3631 0.960 . S
H3616 C3600 0.931 . S
H3617 C3605 0.929 . S
H3618 C3606 0.960 . S
H3619 C3606 0.962 . S
H3620 C3606 0.960 . S
H3621 C3607 0.961 . S
H3622 C3607 0.961 . S
H3623 C3607 0.961 . S
H3624 C3608 0.931 . S
H3625 C3613 0.930 . S
H3626 C3614 0.956 . S
H3627 C3614 0.961 . S
H3628 C3614 0.961 . S
H3629 C3615 0.958 . S
H3630 C3615 0.961 . S
H3631 C3615 0.960 . S
C3632 C3633 1.391 . S
C3632 C3634 1.394 . S
C3632 H3648 0.931 . S
C3633 C3632 1.391 . S
C3633 C3637 1.376 . S
C3634 C3632 1.394 . S
C3634 C3635 1.369 . S
C3634 C3638 1.531 . S
C3635 C3634 1.369 . S
C3635 C3636 1.410 . S
C3635 C3643 1.503 . S
C3636 C3635 1.410 . S
C3636 C3637 1.392 . S
C3636 C3639 1.511 . S
C3637 C3633 1.376 . S
C3637 C3636 1.392 . S
C3637 H3649 0.929 . S
C3638 C3634 1.531 . S
C3638 H3650 0.960 . S
C3638 H3651 1.002 . S
C3638 H3652 0.960 . S
C3639 C3636 1.511 . S
C3639 H3653 0.961 . S
C3639 H3654 0.961 . S
C3639 H3655 0.961 . S
C3640 C3641 1.401 . S
C3640 C3642 1.374 . S
C3640 H3656 0.890 1_554 S
C3641 C3640 1.401 . S
C3641 C3645 1.408 . S
C3642 C3640 1.374 . S
C3642 C3643 1.370 . S
C3642 C3646 1.524 1_554 S
C3643 C3635 1.503 . S
C3643 C3642 1.370 . S
C3643 C3644 1.403 . S
C3644 C3643 1.403 . S
C3644 C3645 1.404 . S
C3644 C3647 1.539 . S
C3645 C3641 1.408 . S
C3645 C3644 1.404 . S
C3645 H3657 0.930 . S
C3646 C3642 1.524 1_556 S
C3646 H3658 0.956 . S
C3646 H3659 0.961 . S
C3646 H3660 0.961 . S
C3647 C3644 1.539 . S
C3647 H3661 0.958 . S
C3647 H3662 0.961 . S
C3647 H3663 0.960 . S
H3648 C3632 0.931 . S
H3649 C3637 0.929 . S
H3650 C3638 0.960 . S
H3651 C3638 1.002 . S
H3652 C3638 0.960 . S
H3653 C3639 0.961 . S
H3654 C3639 0.961 . S
H3655 C3639 0.961 . S
H3656 C3640 0.890 1_556 S
H3657 C3645 0.930 . S
H3658 C3646 0.956 . S
H3659 C3646 0.961 . S
H3660 C3646 0.961 . S
H3661 C3647 0.958 . S
H3662 C3647 0.961 . S
H3663 C3647 0.960 . S
C3664 C3665 1.391 . S
C3664 C3666 1.394 . S
C3664 H3680 0.931 . S
C3665 C3664 1.391 . S
C3665 C3669 1.376 . S
C3666 C3664 1.394 . S
C3666 C3667 1.369 . S
C3666 C3670 1.531 . S
C3667 C3666 1.369 . S
C3667 C3668 1.410 . S
C3667 C3675 1.503 . S
C3668 C3667 1.410 . S
C3668 C3669 1.392 . S
C3668 C3671 1.511 . S
C3669 C3665 1.376 . S
C3669 C3668 1.392 . S
C3669 H3681 0.929 . S
C3670 C3666 1.531 . S
C3670 H3682 0.960 . S
C3670 H3683 0.962 . S
C3670 H3684 0.960 . S
C3671 C3668 1.511 . S
C3671 H3685 0.961 . S
C3671 H3686 0.961 . S
C3671 H3687 0.961 . S
C3672 C3673 1.370 . S
C3672 C3674 1.363 . S
C3672 H3688 0.931 . S
C3673 C3672 1.370 . S
C3673 C3677 1.408 . S
C3674 C3672 1.363 . S
C3674 C3675 1.370 . S
C3674 C3678 1.524 . S
C3675 C3667 1.503 . S
C3675 C3674 1.370 . S
C3675 C3676 1.403 . S
C3676 C3675 1.403 . S
C3676 C3677 1.404 . S
C3676 C3679 1.539 . S
C3677 C3673 1.408 . S
C3677 C3676 1.404 . S
C3677 H3689 0.930 . S
C3678 C3674 1.524 . S
C3678 H3690 0.956 . S
C3678 H3691 0.961 . S
C3678 H3692 0.961 . S
C3679 C3676 1.539 . S
C3679 H3693 0.958 . S
C3679 H3694 0.961 . S
C3679 H3695 0.960 . S
H3680 C3664 0.931 . S
H3681 C3669 0.929 . S
H3682 C3670 0.960 . S
H3683 C3670 0.962 . S
H3684 C3670 0.960 . S
H3685 C3671 0.961 . S
H3686 C3671 0.961 . S
H3687 C3671 0.961 . S
H3688 C3672 0.931 . S
H3689 C3677 0.930 . S
H3690 C3678 0.956 . S
H3691 C3678 0.961 . S
H3692 C3678 0.961 . S
H3693 C3679 0.958 . S
H3694 C3679 0.961 . S
H3695 C3679 0.960 . S
C3696 C3697 1.391 . S
C3696 C3698 1.394 . S
C3696 H3712 0.931 . S
C3697 C3696 1.391 . S
C3697 C3701 1.376 . S
C3698 C3696 1.394 . S
C3698 C3699 1.369 . S
C3698 C3702 1.531 . S
C3699 C3698 1.369 . S
C3699 C3700 1.410 . S
C3699 C3707 1.503 . S
C3700 C3699 1.410 . S
C3700 C3701 1.392 . S
C3700 C3703 1.511 . S
C3701 C3697 1.376 . S
C3701 C3700 1.392 . S
C3701 H3713 0.929 . S
C3702 C3698 1.531 . S
C3702 H3714 0.960 . S
C3702 H3715 0.962 . S
C3702 H3716 0.960 . S
C3703 C3700 1.511 . S
C3703 H3717 0.961 . S
C3703 H3718 0.961 . S
C3703 H3719 0.961 . S
C3704 C3705 1.370 . S
C3704 C3706 1.363 . S
C3704 H3720 0.931 . S
C3705 C3704 1.370 . S
C3705 C3709 1.408 . S
C3706 C3704 1.363 . S
C3706 C3707 1.370 . S
C3706 C3710 1.524 . S
C3707 C3699 1.503 . S
C3707 C3706 1.370 . S
C3707 C3708 1.403 . S
C3708 C3707 1.403 . S
C3708 C3709 1.404 . S
C3708 C3711 1.539 . S
C3709 C3705 1.408 . S
C3709 C3708 1.404 . S
C3709 H3721 0.930 . S
C3710 C3706 1.524 . S
C3710 H3722 0.956 . S
C3710 H3723 0.961 . S
C3710 H3724 0.961 . S
C3711 C3708 1.539 . S
C3711 H3725 0.958 . S
C3711 H3726 0.961 . S
C3711 H3727 0.960 . S
H3712 C3696 0.931 . S
H3713 C3701 0.929 . S
H3714 C3702 0.960 . S
H3715 C3702 0.962 . S
H3716 C3702 0.960 . S
H3717 C3703 0.961 . S
H3718 C3703 0.961 . S
H3719 C3703 0.961 . S
H3720 C3704 0.931 . S
H3721 C3709 0.930 . S
H3722 C3710 0.956 . S
H3723 C3710 0.961 . S
H3724 C3710 0.961 . S
H3725 C3711 0.958 . S
H3726 C3711 0.961 . S
H3727 C3711 0.960 . S
C657 C109 1.408 . S
C665 C340 1.198 . S
C689 C65 1.490 . S
C697 C375 1.443 . S
C721 C75 1.108 . S
C729 C380 1.030 . S
C761 C405 1.405 . S
C753 C84 1.455 . S
C785 C25 1.447 . S
C793 C425 1.361 . S
C825 C440 0.983 . S
C817 C28 1.067 . S
C857 C475 1.502 . S
C849 C47 1.535 . S
C881 C9 1.406 . S
C889 C480 1.270 . S
C921 C355 1.572 1_655 S
C913 C233 1.670 . S
C945 C249 0.989 . S
C953 C365 0.950 . S
C985 C395 1.444 . S
C977 C275 1.486 . S
C1017 C400 1.141 . S
C1009 C173 1.208 . S
C1041 C224 1.262 . S
C1049 C420 1.127 . S
C1081 C455 1.428 . S
C1073 C243 1.454 . S
C1113 C465 0.970 . S
C1105 C266 0.999 . S
C1145 C495 1.449 . S
C1137 C179 1.536 . S
C1177 C345 1.353 . S
C1169 C163 1.450 . S
C1201 C289 1.743 . S
C1209 C515 1.713 . S
C1241 C525 1.400 . S
C1233 C333 1.481 . S
C1273 C540 0.990 . S
C1265 C308 1.001 . S
C1297 C123 1.450 . S
C1305 C485 1.289 . S
C1329 C126 1.539 . S
C1337 C385 1.485 . S
C1361 C327 1.772 . S
C1369 C575 1.742 . S
C1401 C580 1.055 . S
C1393 C299 1.122 . S
C1433 C338 1.201 . S
C1425 C67 1.412 . S
C1465 C594 1.481 . S
C1457 C98 1.482 . S
C1489 C89 1.119 . S
C1497 C378 1.059 . S
C1521 C79 1.507 . S
C1529 C568 1.419 . S
C1561 C428 1.405 . S
C1553 C11 1.466 . S
C1585 C51 1.098 . S
C1593 C518 1.004 . S
C1625 C474 1.520 1_556 S
C1617 C33 1.561 . S
C1657 C598 1.239 . S
C1649 C14 1.398 . S
C1689 C354 1.582 . S
C1681 C140 1.639 . S
C1721 C588 0.987 . S
C1713 C319 0.988 . S
C1745 C112 1.508 . S
C1753 C394 1.477 . S
C1777 C285 1.241 . S
C1785 C558 1.108 . S
C1809 C149 1.274 . S
C1817 C418 1.166 . S
C1849 C534 1.457 . S
C1841 C313 1.502 . S
C1873 C121 1.070 . S
C1881 C468 1.007 . S
C1905 C291 1.558 . S
C1913 C614 1.481 . S
C1937 C182 1.447 . S
C1945 C348 1.332 . S
C1969 C168 1.755 . S
C1977 C514 1.730 . S
C2001 C263 1.518 . S
C2009 C448 1.442 . S
C2033 C247 1.070 . S
C2041 C538 0.985 . S
C2073 C608 1.316 . S
C2065 C277 1.431 . S
C2097 C219 1.607 . S
C2105 C388 1.501 . S
C2137 C414 1.791 . S
C2129 C257 1.813 . S
C2169 C358 1.042 . S
C2161 C201 1.135 . S
C2193 C81 1.373 . S
C2201 C620 1.226 . S
C2233 C595 1.442 . S
C2225 C93 1.490 . S
C2257 C103 1.100 . S
C2265 C640 1.032 1_556 S
C2289 C56 1.478 . S
C2297 C565 1.377 . S
C2321 C53 1.434 . S
C2329 C505 1.381 . S
C2361 C520 0.978 . S
C2353 C0 1.084 . S
C2393 C555 1.482 . S
C2385 C19 1.524 . S
C2425 C600 1.268 . S
C2417 C37 1.408 . S
C2457 C635 1.575 . S
C2449 C261 1.669 . S
C2481 C193 0.998 . S
C2489 C585 0.937 . S
C2521 C655 1.443 . S
C2513 C205 1.489 . S
C2553 C560 1.104 . S
C2545 C215 1.223 . S
C2585 C500 1.173 . S
C2577 C252 1.222 . S
C2609 C187 1.466 . S
C2617 C535 1.438 . S
C2649 C545 0.944 . S
C2641 C196 1.036 . S
C2673 C221 1.504 . S
C2681 C615 1.471 . S
C2713 C625 1.318 . S
C2705 C317 1.485 . S
C2737 C135 1.739 . S
C2745 C435 1.705 . S
C2777 C445 1.414 . S
C2769 C151 1.467 . S
C2809 C460 0.932 . S
C2801 C154 1.043 . S
C2841 C605 1.290 . S
C2833 C305 1.450 . S
C2865 C280 1.555 . S
C2873 C645 1.471 . S
C2905 C415 1.756 . S
C2897 C145 1.782 . S
C2937 C360 1.019 . S
C2929 C117 1.145 . S
C2961 C95 1.374 . S
C2969 C618 1.253 . S
C3001 C374 1.489 . S
C2993 C70 1.514 . S
C3025 C61 1.136 . S
C3033 C638 1.009 . S
C3057 C107 1.514 . S
C3065 C408 1.433 . S
C3089 C39 1.478 . S
C3097 C508 1.376 . S
C3129 C438 1.010 . S
C3121 C23 1.095 . S
C3153 C5 1.561 . S
C3161 C554 1.536 . S
C3185 C42 1.399 . S
C3193 C478 1.262 . S
C3225 C634 1.583 . S
C3217 C322 1.636 . S
C3249 C165 0.987 . S
C3257 C368 0.986 . S
C3289 C654 1.466 1_655 S
C3281 C294 1.502 . S
C3313 C131 1.247 . S
C3321 C398 1.108 . S
C3345 C331 1.286 . S
C3353 C498 1.169 . S
C3385 C454 1.465 . S
C3377 C159 1.507 . S
C3409 C303 1.069 . S
C3417 C548 1.023 . S
C3449 C494 1.502 . S
C3441 C137 1.531 . S
C3481 C628 1.321 . S
C3473 C238 1.455 . S
C3513 C434 1.723 . S
C3505 C210 1.727 . S
C3537 C235 1.527 . S
C3545 C528 1.430 . S
C3577 C458 0.993 . S
C3569 C191 1.071 . S
C3601 C207 1.420 . S
C3609 C488 1.322 . S
C3633 C177 1.616 . S
C3641 C648 1.489 . S
C3673 C574 1.794 . S
C3665 C229 1.825 . S
C3705 C578 1.028 . S
C3697 C271 1.136 . S
