# Generated by pormake.
# Topology tsx, (6,3)-cn, num edge types: 1
# Building blocks:
#     Node 0, Type 0, BuildingBlock: MIDCAF_clean_sbu_0, # of connection points: 6
#     Node 1, Type 0, BuildingBlock: MIDCAF_clean_sbu_0, # of connection points: 6
#     Node 2, Type 1, BuildingBlock: OLANEW_clean_sbu_2, # of connection points: 3
#     Node 3, Type 1, BuildingBlock: OLANEW_clean_sbu_2, # of connection points: 3
#     Node 4, Type 1, BuildingBlock: OLANEW_clean_sbu_2, # of connection points: 3
#     Node 5, Type 1, BuildingBlock: OLANEW_clean_sbu_2, # of connection points: 3
#     Edge 6, Type (0, 1), BuildingBlock: FUNLAD_clean_linker_0, # of connection points: 2
#     Edge 7, Type (0, 1), BuildingBlock: FUNLAD_clean_linker_0, # of connection points: 2
#     Edge 8, Type (0, 1), BuildingBlock: FUNLAD_clean_linker_0, # of connection points: 2
#     Edge 9, Type (0, 1), BuildingBlock: FUNLAD_clean_linker_0, # of connection points: 2
#     Edge 10, Type (0, 1), BuildingBlock: FUNLAD_clean_linker_0, # of connection points: 2
#     Edge 11, Type (0, 1), BuildingBlock: FUNLAD_clean_linker_0, # of connection points: 2
#     Edge 12, Type (0, 1), BuildingBlock: FUNLAD_clean_linker_0, # of connection points: 2
#     Edge 13, Type (0, 1), BuildingBlock: FUNLAD_clean_linker_0, # of connection points: 2
#     Edge 14, Type (0, 1), BuildingBlock: FUNLAD_clean_linker_0, # of connection points: 2
#     Edge 15, Type (0, 1), BuildingBlock: FUNLAD_clean_linker_0, # of connection points: 2
#     Edge 16, Type (0, 1), BuildingBlock: FUNLAD_clean_linker_0, # of connection points: 2
#     Edge 17, Type (0, 1), BuildingBlock: FUNLAD_clean_linker_0, # of connection points: 2
# Relax obj value: 0.070
# Max RMSD: 0.154
# Mean RMSD: 0.100
data_MOF--net-tsx--node1-MIDCAF_clean_sbu_0--node2-OLANEW_clean_sbu_2--edge1-FUNLAD_clean_linker_0
_symmetry_space_group_name_H-M    P1
_symmetry_Int_Tables_number       1
_symmetry_cell_setting            triclinic
loop_
_symmetry_equiv_pos_as_xyz
'x, y, z'
_cell_length_a     24.891303
_cell_length_b     26.112783
_cell_length_c     42.456692
_cell_angle_alpha  96.258815
_cell_angle_beta   95.375357
_cell_angle_gamma 89.983523
loop_
_atom_site_label
_atom_site_type_symbol
_atom_site_fract_x
_atom_site_fract_y
_atom_site_fract_z
_atom_type_partial_charge
Zn0 Zn 0.95637 0.0008 0.96471 0.0
Zn1 Zn 0.13182 0.04536 0.04185 0.0
Zn2 Zn 0.04238 0.02529 0.00401 0.0
C3 C 0.08728 0.14001 0.03051 0.0
C4 C 0.1635 0.98759 0.98899 0.0
O5 O 0.98618 0.97932 0.02806 0.0
O6 O 0.91384 0.96692 0.99354 0.0
C7 C 0.96465 0.10877 0.97309 0.0
O8 O 0.05341 0.11033 0.01219 0.0
O9 O 0.12456 0.12103 0.04773 0.0
O10 O 0.18483 0.01412 0.01361 0.0
O11 O 0.11187 0.98763 0.98228 0.0
O12 O 0.93786 0.07223 0.95702 0.0
O13 O 1.00508 0.09919 0.99277 0.0
O14 O 0.06627 0.98311 0.95931 0.0
O15 O 0.99012 0.95792 0.93076 0.0
C16 C 0.04101 0.95967 0.93389 0.0
O17 O 0.0326 0.99151 0.04891 0.0
O18 O 0.1127 0.00506 0.07599 0.0
C19 C 0.93803 0.96099 0.02034 0.0
C20 C 0.06554 0.98648 0.07366 0.0
Zn21 Zn 0.62367 0.52814 0.53542 0.0
Zn22 Zn 0.45207 0.48882 0.45242 0.0
Zn23 Zn 0.53656 0.51086 0.49453 0.0
C24 C 0.54075 0.45004 0.42358 0.0
C25 C 0.45879 0.59683 0.4655 0.0
O26 O 0.52249 0.47573 0.53822 0.0
O27 O 0.60019 0.4871 0.56824 0.0
C28 C 0.65925 0.47294 0.48255 0.0
O29 O 0.56416 0.47088 0.45027 0.0
O30 O 0.48997 0.45008 0.41852 0.0
O31 O 0.4327 0.5614 0.44788 0.0
O32 O 0.49917 0.58565 0.48477 0.0
O33 O 0.67856 0.49731 0.50844 0.0
O34 O 0.60812 0.4741 0.4741 0.0
O35 O 0.54758 0.59556 0.50459 0.0
O36 O 0.6167 0.60395 0.5417 0.0
C37 C 0.58074 0.62408 0.52414 0.0
O38 O 0.47845 0.46268 0.51556 0.0
O39 O 0.40899 0.4502 0.47894 0.0
C40 C 0.55254 0.46956 0.56392 0.0
C41 C 0.43131 0.44323 0.50605 0.0
O42 O 1.00528 0.9677 0.36893 0.0
Cd43 Cd 0.02889 0.98676 0.42642 0.0
O44 O 0.07121 0.01825 0.35963 0.0
Cd45 Cd 0.06522 0.06415 0.40514 0.0
O46 O 0.01069 0.12439 0.42212 0.0
C47 C 0.96117 0.11681 0.41232 0.0
O48 O 0.94691 0.0733 0.39499 0.0
C49 C 0.03553 0.984 0.34957 0.0
C50 C 0.11477 0.92359 0.44441 0.0
O51 O 0.06556 0.90889 0.44401 0.0
O52 O 0.12366 0.96895 0.43706 0.0
O53 O 0.101 0.00499 0.65069 0.0
Cd54 Cd 0.0753 0.03012 0.59779 0.0
O55 O 0.03786 0.94545 0.64927 0.0
Cd56 Cd 0.99635 0.95471 0.60246 0.0
O57 O 0.92752 0.93383 0.5673 0.0
C58 C 0.88122 0.95218 0.57195 0.0
O59 O 0.87675 0.98658 0.59654 0.0
C60 C 0.07849 0.97025 0.66378 0.0
C61 C 0.13815 0.11498 0.58894 0.0
O62 O 0.09253 0.12089 0.60052 0.0
O63 O 0.15359 0.06892 0.58103 0.0
O64 O 0.59687 0.49691 0.85228 0.0
Cd65 Cd 0.6116 0.53857 0.90703 0.0
O66 O 0.50859 0.49112 0.85128 0.0
Cd67 Cd 0.50624 0.54241 0.89504 0.0
O68 O 0.4742 0.61405 0.91656 0.0
C69 C 0.48362 0.65536 0.90464 0.0
O70 O 0.5155 0.65377 0.88157 0.0
C71 C 0.55164 0.48131 0.83802 0.0
C72 C 0.69096 0.48417 0.94003 0.0
O73 O 0.64092 0.47172 0.93868 0.0
O74 O 0.70353 0.52347 0.92651 0.0
O75 O 0.60697 0.51379 0.14918 0.0
Cd76 Cd 0.57723 0.54673 0.09905 0.0
O77 O 0.54737 0.45056 0.14522 0.0
Cd78 Cd 0.50094 0.46756 0.10126 0.0
O79 O 0.42345 0.4552 0.07236 0.0
C80 C 0.38175 0.4769 0.0826 0.0
O81 O 0.38762 0.50949 0.10857 0.0
C82 C 0.5876 0.47525 0.16027 0.0
C83 C 0.64099 0.63274 0.09406 0.0
O84 O 0.59632 0.63741 0.10682 0.0
O85 O 0.6548 0.58751 0.08299 0.0
C86 C 0.10365 0.22847 0.05711 0.0
C87 C 0.08855 0.19609 0.02914 0.0
C88 C 0.12242 0.27838 0.05567 0.0
C89 C 0.12696 0.29683 0.02604 0.0
C90 C 0.10697 0.26595 0.99817 0.0
C91 C 0.08747 0.21602 -0.0003 0.0
C92 C 0.16179 0.34228 0.02343 0.0
C93 C 0.17535 0.37841 0.04806 0.0
C94 C 0.22528 0.41069 0.05116 0.0
C95 C 0.23111 0.45223 0.07521 0.0
C96 C 0.28132 0.47621 0.08398 0.0
C97 C 0.32707 0.4588 0.06906 0.0
H98 H 0.26814 0.36343 0.01633 0.0
C99 C 0.32055 0.41971 0.04345 0.0
C100 C 0.27029 0.39581 0.0346 0.0
H101 H 0.35491 0.40549 0.03135 0.0
H102 H 0.10503 0.21376 0.08008 0.0
H103 H 0.13802 0.30012 0.07776 0.0
H104 H 0.1101 0.27901 0.97505 0.0
H105 H 0.07649 0.19152 0.97777 0.0
H106 H 0.18135 0.34251 0.00164 0.0
H107 H 0.15193 0.38123 0.0685 0.0
H108 H 0.19734 0.46441 0.08847 0.0
H109 H 0.28476 0.50644 0.10368 0.0
C110 C 0.25333 0.96227 0.97094 0.0
C111 C 0.19783 0.95208 0.97042 0.0
C112 C 0.2878 0.92476 0.95834 0.0
C113 C 0.26727 0.87619 0.94488 0.0
C114 C 0.2114 0.86709 0.94308 0.0
C115 C 0.17707 0.90449 0.95583 0.0
C116 C 0.30273 0.83228 0.93579 0.0
C117 C 0.35564 0.83659 0.93204 0.0
C118 C 0.38994 0.79066 0.92641 0.0
C119 C 0.43275 0.79247 0.90729 0.0
C120 C 0.46424 0.74887 0.90081 0.0
C121 C 0.45399 0.70295 0.91382 0.0
H122 H 0.34976 0.74335 0.95632 0.0
C123 C 0.41279 0.70206 0.93422 0.0
C124 C 0.38111 0.7454 0.94045 0.0
H125 H 0.40416 0.6675 0.94489 0.0
H126 H 0.27048 -0.00147 0.98232 0.0
H127 H 0.33054 0.93336 0.9608 0.0
H128 H 0.19443 0.82999 0.93306 0.0
H129 H 0.13479 0.89488 0.9559 0.0
H130 H 0.28425 0.79411 0.93254 0.0
H131 H 0.37425 0.87416 0.93214 0.0
H132 H 0.44093 0.8272 0.89666 0.0
H133 H 0.49597 0.75093 0.88518 0.0
C134 C 0.85482 0.93151 0.04112 0.0
C135 C 0.91114 0.92962 0.04119 0.0
C136 C 0.82704 0.89527 0.05537 0.0
C137 C 0.85512 0.85612 0.07015 0.0
C138 C 0.91182 0.85586 0.07153 0.0
C139 C 0.93962 0.89225 0.05713 0.0
C140 C 0.8265 0.81164 0.08049 0.0
C141 C 0.77366 0.81183 0.08522 0.0
C142 C 0.7424 0.76481 0.08922 0.0
C143 C 0.69296 0.77048 0.10261 0.0
C144 C 0.66018 0.72763 0.10439 0.0
C145 C 0.67591 0.6781 0.0925 0.0
H146 H 0.79508 0.70912 0.06595 0.0
C147 C 0.72543 0.67231 0.07917 0.0
C148 C 0.75827 0.71514 0.07745 0.0
H149 H 0.73864 0.6347 0.06968 0.0
H150 H 0.8319 0.95968 0.02865 0.0
H151 H 0.78348 0.89657 0.05289 0.0
H152 H 0.93453 0.82597 0.08245 0.0
H153 H 0.98292 0.88904 0.05673 0.0
H154 H 0.84967 0.77687 0.08307 0.0
H155 H 0.75158 0.84769 0.08575 0.0
H156 H 0.67937 0.80829 0.11148 0.0
H157 H 0.62226 0.73344 0.11481 0.0
C158 C 0.94903 0.20044 0.99525 0.0
C159 C 0.94656 0.16181 0.96936 0.0
C160 C 0.92137 0.24689 0.99252 0.0
C161 C 0.89088 0.25491 0.96384 0.0
C162 C 0.89164 0.21756 0.93757 0.0
C163 C 0.91925 0.1717 0.94023 0.0
C164 C 0.85227 0.29776 0.96111 0.0
C165 C 0.85643 0.34391 0.97864 0.0
C166 C 0.81404 0.38283 0.97362 0.0
C167 C 0.82796 0.43272 0.96777 0.0
C168 C 0.78778 0.46675 0.95797 0.0
C169 C 0.73307 0.45161 0.95451 0.0
H170 H 0.74751 0.33078 0.97692 0.0
C171 C 0.7192 0.40293 0.96267 0.0
C172 C 0.75926 0.36883 0.97197 0.0
H173 H 0.67749 0.39017 0.96052 0.0
H174 H 0.96913 0.19345 0.0181 0.0
H175 H 0.92103 0.2747 0.01336 0.0
H176 H 0.86875 0.22286 0.91517 0.0
H177 H 0.91699 0.1428 0.91978 0.0
H178 H 0.8184 0.291 0.94295 0.0
H179 H 0.89211 0.35427 0.99482 0.0
H180 H 0.86995 0.44436 0.96909 0.0
H181 H 0.79969 0.5042 0.95212 0.0
C182 C 0.58782 0.70289 0.4965 0.0
C183 C 0.58197 0.68044 0.52457 0.0
C184 C 0.60692 0.7537 0.49814 0.0
C185 C 0.61956 0.78266 0.5279 0.0
C186 C 0.60733 0.76191 0.55554 0.0
C187 C 0.58952 0.71099 0.55394 0.0
C188 C 0.65193 0.8311 0.53176 0.0
C189 C 0.69322 0.83747 0.51405 0.0
C190 C 0.73914 0.87367 0.52498 0.0
C191 C 0.79033 0.86071 0.51532 0.0
C192 C 0.83638 0.88799 0.52931 0.0
C193 C 0.83218 0.92917 0.55316 0.0
H194 H 0.69555 0.93008 0.55409 0.0
C195 C 0.78053 0.9449 0.56091 0.0
C196 C 0.73444 0.91756 0.54691 0.0
H197 H 0.77574 0.97706 0.57878 0.0
H198 H 0.58226 0.67988 0.47358 0.0
H199 H 0.61456 0.7692 0.47633 0.0
H200 H 0.61612 0.78354 0.57872 0.0
H201 H 0.58518 0.69437 0.57588 0.0
H202 H 0.6488 0.85646 0.55352 0.0
H203 H 0.69864 0.80919 0.49387 0.0
H204 H 0.79519 0.8275 0.49819 0.0
H205 H 0.87545 0.87521 0.52246 0.0
C206 C 0.67637 0.39112 0.44871 0.0
C207 C 0.6953 0.43878 0.4643 0.0
C208 C 0.7125 0.35473 0.43658 0.0
C209 C 0.7684 0.36521 0.4402 0.0
C210 C 0.78672 0.41417 0.45389 0.0
C211 C 0.75064 0.45043 0.46607 0.0
C212 C 0.80908 0.32565 0.43158 0.0
C213 C 0.80036 0.27469 0.4315 0.0
C214 C 0.84275 0.23531 0.42653 0.0
C215 C 0.82698 0.18491 0.41436 0.0
C216 C 0.86542 0.14643 0.41001 0.0
C217 C 0.92057 0.15731 0.41826 0.0
H218 H 0.91154 0.28408 0.44572 0.0
C219 C 0.93639 0.20749 0.43113 0.0
C220 C 0.89792 0.24615 0.43521 0.0
H221 H 0.97854 0.21707 0.43784 0.0
H222 H 0.63402 0.38083 0.44735 0.0
H223 H 0.69651 0.31816 0.42512 0.0
H224 H 0.82942 0.42357 0.4566 0.0
H225 H 0.76632 0.48695 0.47793 0.0
H226 H 0.84867 0.33937 0.42735 0.0
H227 H 0.76086 0.2607 0.43565 0.0
H228 H 0.78474 0.17533 0.4079 0.0
H229 H 0.85182 0.10811 0.40016 0.0
C230 C 0.34678 0.40948 0.52337 0.0
C231 C 0.40337 0.41014 0.52551 0.0
C232 C 0.31909 0.37304 0.53754 0.0
C233 C 0.34749 0.33629 0.55435 0.0
C234 C 0.40423 0.33809 0.55731 0.0
C235 C 0.43194 0.37461 0.54299 0.0
C236 C 0.31949 0.29247 0.56586 0.0
C237 C 0.2665 0.29232 0.57021 0.0
C238 C 0.2363 0.24601 0.5767 0.0
C239 C 0.18634 0.25279 0.58938 0.0
C240 C 0.15467 0.21031 0.5936 0.0
C241 C 0.17209 0.15998 0.58497 0.0
H242 H 0.2912 0.18846 0.55738 0.0
C243 C 0.22216 0.15306 0.57238 0.0
C244 C 0.25387 0.19555 0.56819 0.0
H245 H 0.23665 0.11478 0.56535 0.0
H246 H 0.32376 0.43611 0.50969 0.0
H247 H 0.27554 0.37245 0.53372 0.0
H248 H 0.42723 0.30995 0.56974 0.0
H249 H 0.47552 0.37311 0.54408 0.0
H250 H 0.34351 0.25882 0.57022 0.0
H251 H 0.24361 0.3275 0.56887 0.0
H252 H 0.17147 0.29115 0.5958 0.0
H253 H 0.1163 0.21702 0.60336 0.0
C254 C 0.4073 0.6629 0.43772 0.0
C255 C 0.43854 0.65007 0.465 0.0
C256 C 0.37737 0.70802 0.43863 0.0
C257 C 0.37787 0.74147 0.46688 0.0
C258 C 0.41278 0.73124 0.49339 0.0
C259 C 0.44266 0.68554 0.49256 0.0
C260 C 0.33898 0.78458 0.46931 0.0
C261 C 0.28704 0.77689 0.45755 0.0
C262 C 0.2446 0.81686 0.45818 0.0
C263 C 0.19056 0.80068 0.45657 0.0
C264 C 0.14863 0.83578 0.45343 0.0
C265 C 0.1597 0.88795 0.45127 0.0
H266 H 0.29721 0.88305 0.45794 0.0
C267 C 0.21388 0.90461 0.45375 0.0
C268 C 0.25603 0.86941 0.45731 0.0
H269 H 0.22373 0.94459 0.45214 0.0
H270 H 0.40386 0.63672 0.41598 0.0
H271 H 0.35208 0.71575 0.41752 0.0
H272 H 0.41422 0.75679 0.51534 0.0
H273 H 0.46583 0.67644 0.51406 0.0
H274 H 0.35207 0.82114 0.48245 0.0
H275 H 0.27418 0.73826 0.44744 0.0
H276 H 0.18062 0.76038 0.45707 0.0
H277 H 0.10745 0.82157 0.45159 0.0
C278 C 1.00204 0.97321 0.11443 0.0
C279 C 0.04958 0.96014 0.10028 0.0
C280 C 0.99398 0.9573 0.14415 0.0
C281 C 0.03344 0.9278 0.15991 0.0
C282 C 0.07836 0.91108 0.14406 0.0
C283 C 0.08659 0.92742 0.11473 0.0
C284 C 0.0347 0.92035 0.19423 0.0
C285 C 0.99665 0.93658 0.21344 0.0
C286 C 0.00838 0.94283 0.24859 0.0
C287 C 0.96716 0.93603 0.26818 0.0
C288 C 0.97663 0.94697 0.30128 0.0
C289 C 0.02711 0.96631 0.3152 0.0
H290 H 0.09162 0.96782 0.2483 0.0
C291 C 0.06848 0.97242 0.29561 0.0
C292 C 0.05934 0.96065 0.26271 0.0
H293 H 0.10771 0.9874 0.30564 0.0
H294 H 0.97306 -0.0014 0.10364 0.0
H295 H 0.95861 0.97103 0.15526 0.0
H296 H 0.10925 0.88812 0.15537 0.0
H297 H 0.12345 0.91664 0.10409 0.0
H298 H 0.07179 0.90501 0.20503 0.0
H299 H 0.95732 0.94839 0.20373 0.0
H300 H 0.92741 0.92301 0.25783 0.0
H301 H 0.94382 0.94234 0.31581 0.0
C302 C 0.11487 0.96658 0.89854 0.0
C303 C 0.07012 0.93968 0.90652 0.0
C304 C 0.13445 0.95487 0.86878 0.0
C305 C 0.10945 0.91602 0.84663 0.0
C306 C 0.06828 0.88597 0.856 0.0
C307 C 0.04836 0.89805 0.88552 0.0
C308 C 0.12013 0.90953 0.81262 0.0
C309 C 0.13173 0.94982 0.79701 0.0
C310 C 0.12428 0.94886 0.76177 0.0
C311 C 0.1488 0.98767 0.74747 0.0
C312 C 0.13582 0.99332 0.71527 0.0
C313 C 0.0974 0.96058 0.69674 0.0
H314 H 0.06649 0.8851 0.75288 0.0
C315 C 0.07447 0.92044 0.7107 0.0
C316 C 0.08762 0.91465 0.74281 0.0
H317 H 0.04478 0.89448 0.69712 0.0
H318 H 0.13241 -0.00116 0.91436 0.0
H319 H 0.16749 0.97769 0.86271 0.0
H320 H 0.04873 0.85546 0.83955 0.0
H321 H 0.01408 0.87647 0.89125 0.0
H322 H 0.11012 0.87236 0.7993 0.0
H323 H 0.14195 0.98692 0.81041 0.0
H324 H 0.17676 0.01486 0.76153 0.0
H325 H 0.15432 0.02462 0.70527 0.0
C326 C 0.56405 0.40949 0.60527 0.0
C327 C 0.53171 0.44485 0.58982 0.0
C328 C 0.55153 0.39493 0.63438 0.0
C329 C 0.50748 0.41719 0.64917 0.0
C330 C 0.47211 0.44846 0.63203 0.0
C331 C 0.48409 0.46217 0.60247 0.0
C332 C 0.501 0.41415 0.68346 0.0
C333 C 0.54312 0.4059 0.70474 0.0
C334 C 0.54313 0.41816 0.7398 0.0
C335 C 0.59319 0.42609 0.75795 0.0
C336 C 0.59599 0.44463 0.79015 0.0
C337 C 0.54866 0.45533 0.8051 0.0
H338 H 0.45623 0.41835 0.74252 0.0
C339 C 0.49845 0.44414 0.78755 0.0
C340 C 0.49564 0.42564 0.75523 0.0
H341 H 0.46116 0.45125 0.79847 0.0
H342 H 0.60048 0.39494 0.5955 0.0
H343 H 0.5781 0.36828 0.64577 0.0
H344 H 0.43727 0.46538 0.6425 0.0
H345 H 0.45847 0.48934 0.59078 0.0
H346 H 0.46283 0.42689 0.6918 0.0
H347 H 0.58209 0.3965 0.69631 0.0
H348 H 0.63051 0.42009 0.74687 0.0
H349 H 0.63534 0.45217 0.80303 0.0
C350 C 0.55155 0.38947 0.37524 0.0
C351 C 0.5723 0.43027 0.39726 0.0
C352 C 0.57444 0.37761 0.34662 0.0
C353 C 0.61763 0.40713 0.33915 0.0
C354 C 0.64147 0.44503 0.3624 0.0
C355 C 0.6189 0.45649 0.39129 0.0
C356 C 0.63129 0.40172 0.30567 0.0
C357 C 0.64398 0.44284 0.29111 0.0
C358 C 0.63729 0.44406 0.256 0.0
C359 C 0.66052 0.48516 0.24313 0.0
C360 C 0.64672 0.49375 0.21147 0.0
C361 C 0.60884 0.46164 0.19204 0.0
H362 H 0.58181 0.37865 0.24482 0.0
C363 C 0.5879 0.41881 0.20434 0.0
C364 C 0.60181 0.41012 0.23594 0.0
H365 H 0.55876 0.39318 0.19 0.0
H366 H 0.51588 0.36842 0.37946 0.0
H367 H 0.55567 0.34788 0.32927 0.0
H368 H 0.67588 0.46744 0.35776 0.0
H369 H 0.63568 0.48809 0.40794 0.0
H370 H 0.62178 0.36504 0.29165 0.0
H371 H 0.65361 0.47938 0.30533 0.0
H372 H 0.68766 0.51212 0.25802 0.0
H373 H 0.66382 0.52702 0.20273 0.0
loop_
_geom_bond_atom_site_label_1
_geom_bond_atom_site_label_2
_geom_bond_distance
_geom_bond_site_symmetry_2
_ccdc_geom_bond_type
Zn0 O6 1.920 1_545 S
Zn0 O12 1.898 . S
Zn0 O15 1.905 1_545 S
Zn1 O9 1.905 . S
Zn1 O10 1.898 1_545 S
Zn1 O18 1.920 1_545 S
Zn2 O5 2.082 1_444 S
Zn2 O8 2.114 . S
Zn2 O11 2.121 1_545 S
Zn2 O13 2.122 1_455 S
Zn2 O14 2.088 1_554 S
Zn2 O17 2.106 . S
C3 O8 1.182 . S
C3 O9 1.182 . S
C4 O10 1.167 1_556 S
C4 O11 1.298 1_556 S
O5 Zn2 2.082 1_666 S
O5 C19 1.307 . S
O6 Zn0 1.920 1_565 S
O6 C19 1.241 . S
C7 O12 1.167 . S
C7 O13 1.299 1_556 S
O8 Zn2 2.114 . S
O8 C3 1.182 . S
O9 Zn1 1.905 . S
O9 C3 1.182 . S
O10 Zn1 1.898 1_565 S
O10 C4 1.167 1_554 S
O11 Zn2 2.121 1_565 S
O11 C4 1.298 1_554 S
O12 Zn0 1.898 . S
O12 C7 1.167 . S
O13 Zn2 2.122 1_655 S
O13 C7 1.299 1_554 S
O14 Zn2 2.088 1_556 S
O14 C16 1.172 1_545 S
O15 Zn0 1.905 1_565 S
O15 C16 1.170 1_655 S
C16 O14 1.172 1_565 S
C16 O15 1.170 1_455 S
O17 Zn2 2.106 . S
O17 C20 1.305 1_545 S
O18 Zn1 1.920 1_565 S
O18 C20 1.234 . S
C19 O5 1.307 . S
C19 O6 1.241 . S
C20 O17 1.305 1_565 S
C20 O18 1.234 . S
Zn21 O27 1.920 . S
Zn21 O33 1.898 . S
Zn21 O36 1.905 . S
Zn22 O30 1.905 . S
Zn22 O31 1.898 . S
Zn22 O39 1.920 . S
Zn23 O26 2.080 . S
Zn23 O29 2.114 . S
Zn23 O32 2.120 . S
Zn23 O34 2.120 . S
Zn23 O35 2.114 . S
Zn23 O38 2.080 . S
C24 O29 1.166 . S
C24 O30 1.182 . S
C25 O31 1.167 . S
C25 O32 1.299 . S
O26 Zn23 2.080 . S
O26 C40 1.305 . S
O27 Zn21 1.920 . S
O27 C40 1.234 . S
C28 O33 1.167 . S
C28 O34 1.299 . S
O29 Zn23 2.114 . S
O29 C24 1.166 . S
O30 Zn22 1.905 . S
O30 C24 1.182 . S
O31 Zn22 1.898 . S
O31 C25 1.167 . S
O32 Zn23 2.120 . S
O32 C25 1.299 . S
O33 Zn21 1.898 . S
O33 C28 1.167 . S
O34 Zn23 2.120 . S
O34 C28 1.299 . S
O35 Zn23 2.114 . S
O35 C37 1.166 . S
O36 Zn21 1.905 . S
O36 C37 1.182 . S
C37 O35 1.166 . S
C37 O36 1.182 . S
O38 Zn23 2.080 . S
O38 C41 1.305 . S
O39 Zn22 1.920 . S
O39 C41 1.234 . S
C40 O26 1.305 . S
C40 O27 1.234 . S
C41 O38 1.305 . S
C41 O39 1.234 . S
O42 Cd43 2.300 . S
O42 C49 1.275 . S
Cd43 O42 2.300 . S
Cd43 O51 2.381 1_545 S
Cd43 O52 2.378 1_545 S
O44 Cd45 2.385 . S
O44 C49 1.255 . S
Cd45 O44 2.385 . S
Cd45 O46 2.317 . S
O46 Cd45 2.317 . S
O46 C47 1.232 1_455 S
C47 O46 1.232 1_655 S
C47 O48 1.218 . S
O48 C47 1.218 . S
C49 O42 1.275 . S
C49 O44 1.255 . S
C50 O51 1.258 . S
C50 O52 1.256 . S
O51 Cd43 2.381 1_565 S
O51 C50 1.258 . S
O52 Cd43 2.378 1_565 S
O52 C50 1.256 . S
O53 Cd54 2.300 . S
O53 C60 1.275 . S
Cd54 O53 2.300 . S
Cd54 O62 2.381 . S
Cd54 O63 2.378 . S
O55 Cd56 2.385 . S
O55 C60 1.255 1_565 S
Cd56 O55 2.385 . S
Cd56 O57 2.317 1_455 S
O57 Cd56 2.317 1_655 S
O57 C58 1.232 . S
C58 O57 1.232 . S
C58 O59 1.218 . S
O59 C58 1.218 . S
C60 O53 1.275 . S
C60 O55 1.255 1_545 S
C61 O62 1.258 . S
C61 O63 1.256 . S
O62 Cd54 2.381 . S
O62 C61 1.258 . S
O63 Cd54 2.378 . S
O63 C61 1.256 . S
O64 Cd65 2.300 . S
O64 C71 1.275 . S
Cd65 O64 2.300 . S
Cd65 O73 2.381 . S
Cd65 O74 2.378 . S
O66 Cd67 2.385 . S
O66 C71 1.255 . S
Cd67 O66 2.385 . S
Cd67 O68 2.317 . S
O68 Cd67 2.317 . S
O68 C69 1.232 . S
C69 O68 1.232 . S
C69 O70 1.218 . S
O70 C69 1.218 . S
C71 O64 1.275 . S
C71 O66 1.255 . S
C72 O73 1.258 . S
C72 O74 1.256 . S
O73 Cd65 2.381 . S
O73 C72 1.258 . S
O74 Cd65 2.378 . S
O74 C72 1.256 . S
O75 Cd76 2.300 . S
O75 C82 1.275 . S
Cd76 O75 2.300 . S
Cd76 O84 2.381 . S
Cd76 O85 2.378 . S
O77 Cd78 2.385 . S
O77 C82 1.255 . S
Cd78 O77 2.385 . S
Cd78 O79 2.317 . S
O79 Cd78 2.317 . S
O79 C80 1.232 . S
C80 O79 1.232 . S
C80 O81 1.218 . S
O81 C80 1.218 . S
C82 O75 1.275 . S
C82 O77 1.255 . S
C83 O84 1.258 . S
C83 O85 1.256 . S
O84 Cd76 2.381 . S
O84 C83 1.258 . S
O85 Cd76 2.378 . S
O85 C83 1.256 . S
C86 C87 1.386 . S
C86 C88 1.383 . S
C86 H102 0.951 . S
C87 C86 1.386 . S
C87 C91 1.383 . S
C88 C86 1.383 . S
C88 C89 1.402 . S
C88 H103 0.951 . S
C89 C88 1.402 . S
C89 C90 1.375 . S
C89 C92 1.481 . S
C90 C89 1.375 . S
C90 C91 1.367 . S
C90 H104 0.951 . S
C91 C87 1.383 . S
C91 C90 1.367 . S
C91 H105 0.950 . S
C92 C89 1.481 . S
C92 C93 1.297 . S
C92 H106 0.950 . S
C93 C92 1.297 . S
C93 C94 1.479 . S
C93 H107 0.950 . S
C94 C93 1.479 . S
C94 C95 1.375 . S
C94 C100 1.404 . S
C95 C94 1.375 . S
C95 C96 1.369 . S
C95 H108 0.950 . S
C96 C95 1.369 . S
C96 C97 1.392 . S
C96 H109 0.951 . S
C97 C96 1.392 . S
C97 C99 1.384 . S
H98 C100 0.949 . S
C99 C97 1.384 . S
C99 C100 1.385 . S
C99 H101 0.950 . S
C100 C94 1.404 . S
C100 H98 0.949 . S
C100 C99 1.385 . S
H101 C99 0.950 . S
H102 C86 0.951 . S
H103 C88 0.951 . S
H104 C90 0.951 . S
H105 C91 0.950 . S
H106 C92 0.950 . S
H107 C93 0.950 . S
H108 C95 0.950 . S
H109 C96 0.951 . S
C110 C111 1.386 . S
C110 C112 1.383 . S
C110 H126 0.951 . S
C111 C110 1.386 . S
C111 C115 1.383 1_556 S
C112 C110 1.383 . S
C112 C113 1.402 . S
C112 H127 0.951 . S
C113 C112 1.402 . S
C113 C114 1.375 1_556 S
C113 C116 1.481 . S
C114 C113 1.375 1_554 S
C114 C115 1.367 . S
C114 H128 0.951 . S
C115 C111 1.383 1_554 S
C115 C114 1.367 . S
C115 H129 0.950 . S
C116 C113 1.481 . S
C116 C117 1.297 . S
C116 H130 0.950 . S
C117 C116 1.297 . S
C117 C118 1.479 . S
C117 H131 0.950 . S
C118 C117 1.479 . S
C118 C119 1.375 . S
C118 C124 1.404 . S
C119 C118 1.375 . S
C119 C120 1.369 . S
C119 H132 0.950 . S
C120 C119 1.369 . S
C120 C121 1.392 . S
C120 H133 0.951 . S
C121 C120 1.392 . S
C121 C123 1.384 . S
H122 C124 0.949 . S
C123 C121 1.384 . S
C123 C124 1.385 . S
C123 H125 0.950 . S
C124 C118 1.404 . S
C124 H122 0.949 . S
C124 C123 1.385 . S
H125 C123 0.950 . S
H126 C110 0.951 . S
H127 C112 0.951 . S
H128 C114 0.951 . S
H129 C115 0.950 . S
H130 C116 0.950 . S
H131 C117 0.950 . S
H132 C119 0.950 . S
H133 C120 0.951 . S
C134 C135 1.386 . S
C134 C136 1.383 . S
C134 H150 0.951 . S
C135 C134 1.386 . S
C135 C139 1.383 1_554 S
C136 C134 1.383 . S
C136 C137 1.402 . S
C136 H151 0.951 . S
C137 C136 1.402 . S
C137 C138 1.375 1_554 S
C137 C140 1.481 . S
C138 C137 1.375 1_556 S
C138 C139 1.367 . S
C138 H152 0.951 . S
C139 C135 1.383 1_556 S
C139 C138 1.367 . S
C139 H153 0.950 . S
C140 C137 1.481 . S
C140 C141 1.297 . S
C140 H154 0.950 . S
C141 C140 1.297 . S
C141 C142 1.479 . S
C141 H155 0.950 . S
C142 C141 1.479 . S
C142 C143 1.375 . S
C142 C148 1.404 . S
C143 C142 1.375 . S
C143 C144 1.369 . S
C143 H156 0.950 . S
C144 C143 1.369 . S
C144 C145 1.392 . S
C144 H157 0.951 . S
C145 C144 1.392 . S
C145 C147 1.384 . S
H146 C148 0.977 . S
C147 C145 1.384 . S
C147 C148 1.385 . S
C147 H149 0.950 . S
C148 C142 1.404 . S
C148 H146 0.977 . S
C148 C147 1.385 . S
H149 C147 0.950 . S
H150 C134 0.951 . S
H151 C136 0.951 . S
H152 C138 0.951 . S
H153 C139 0.950 . S
H154 C140 0.950 . S
H155 C141 0.950 . S
H156 C143 0.950 . S
H157 C144 0.951 . S
C158 C159 1.386 1_554 S
C158 C160 1.383 1_554 S
C158 H174 0.951 . S
C159 C158 1.386 1_556 S
C159 C163 1.383 . S
C160 C158 1.383 1_556 S
C160 C161 1.402 . S
C160 H175 0.951 1_556 S
C161 C160 1.402 . S
C161 C162 1.375 . S
C161 C164 1.481 . S
C162 C161 1.375 . S
C162 C163 1.367 . S
C162 H176 0.951 . S
C163 C159 1.383 . S
C163 C162 1.367 . S
C163 H177 0.950 . S
C164 C161 1.481 . S
C164 C165 1.297 . S
C164 H178 0.950 . S
C165 C164 1.297 . S
C165 C166 1.479 . S
C165 H179 0.950 . S
C166 C165 1.479 . S
C166 C167 1.375 . S
C166 C172 1.404 . S
C167 C166 1.375 . S
C167 C168 1.369 . S
C167 H180 0.950 . S
C168 C167 1.369 . S
C168 C169 1.392 . S
C168 H181 0.951 . S
C169 C168 1.392 . S
C169 C171 1.384 . S
H170 C172 0.949 . S
C171 C169 1.384 . S
C171 C172 1.385 . S
C171 H173 0.950 . S
C172 C166 1.404 . S
C172 H170 0.949 . S
C172 C171 1.385 . S
H173 C171 0.950 . S
H174 C158 0.951 . S
H175 C160 0.951 1_554 S
H176 C162 0.951 . S
H177 C163 0.950 . S
H178 C164 0.950 . S
H179 C165 0.950 . S
H180 C167 0.950 . S
H181 C168 0.951 . S
C182 C183 1.386 . S
C182 C184 1.383 . S
C182 H198 0.951 . S
C183 C182 1.386 . S
C183 C187 1.383 . S
C184 C182 1.383 . S
C184 C185 1.402 . S
C184 H199 0.951 . S
C185 C184 1.402 . S
C185 C186 1.375 . S
C185 C188 1.481 . S
C186 C185 1.375 . S
C186 C187 1.367 . S
C186 H200 0.951 . S
C187 C183 1.383 . S
C187 C186 1.367 . S
C187 H201 0.950 . S
C188 C185 1.481 . S
C188 C189 1.297 . S
C188 H202 0.950 . S
C189 C188 1.297 . S
C189 C190 1.479 . S
C189 H203 0.950 . S
C190 C189 1.479 . S
C190 C191 1.375 . S
C190 C196 1.404 . S
C191 C190 1.375 . S
C191 C192 1.369 . S
C191 H204 0.950 . S
C192 C191 1.369 . S
C192 C193 1.392 . S
C192 H205 0.951 . S
C193 C192 1.392 . S
C193 C195 1.384 . S
H194 C196 0.949 . S
C195 C193 1.384 . S
C195 C196 1.385 . S
C195 H197 0.950 . S
C196 C190 1.404 . S
C196 H194 0.949 . S
C196 C195 1.385 . S
H197 C195 0.950 . S
H198 C182 0.951 . S
H199 C184 0.951 . S
H200 C186 0.951 . S
H201 C187 0.950 . S
H202 C188 0.950 . S
H203 C189 0.950 . S
H204 C191 0.950 . S
H205 C192 0.951 . S
C206 C207 1.386 . S
C206 C208 1.383 . S
C206 H222 0.951 . S
C207 C206 1.386 . S
C207 C211 1.383 . S
C208 C206 1.383 . S
C208 C209 1.402 . S
C208 H223 0.951 . S
C209 C208 1.402 . S
C209 C210 1.375 . S
C209 C212 1.481 . S
C210 C209 1.375 . S
C210 C211 1.367 . S
C210 H224 0.951 . S
C211 C207 1.383 . S
C211 C210 1.367 . S
C211 H225 0.950 . S
C212 C209 1.481 . S
C212 C213 1.297 . S
C212 H226 0.950 . S
C213 C212 1.297 . S
C213 C214 1.479 . S
C213 H227 0.950 . S
C214 C213 1.479 . S
C214 C215 1.375 . S
C214 C220 1.404 . S
C215 C214 1.375 . S
C215 C216 1.369 . S
C215 H228 0.950 . S
C216 C215 1.369 . S
C216 C217 1.392 . S
C216 H229 0.951 . S
C217 C216 1.392 . S
C217 C219 1.384 . S
H218 C220 0.949 . S
C219 C217 1.384 . S
C219 C220 1.385 . S
C219 H221 0.950 . S
C220 C214 1.404 . S
C220 H218 0.949 . S
C220 C219 1.385 . S
H221 C219 0.950 . S
H222 C206 0.951 . S
H223 C208 0.951 . S
H224 C210 0.951 . S
H225 C211 0.950 . S
H226 C212 0.950 . S
H227 C213 0.950 . S
H228 C215 0.950 . S
H229 C216 0.951 . S
C230 C231 1.386 . S
C230 C232 1.383 . S
C230 H246 0.951 . S
C231 C230 1.386 . S
C231 C235 1.383 . S
C232 C230 1.383 . S
C232 C233 1.402 . S
C232 H247 0.951 . S
C233 C232 1.402 . S
C233 C234 1.375 . S
C233 C236 1.481 . S
C234 C233 1.375 . S
C234 C235 1.367 . S
C234 H248 0.951 . S
C235 C231 1.383 . S
C235 C234 1.367 . S
C235 H249 0.950 . S
C236 C233 1.481 . S
C236 C237 1.297 . S
C236 H250 0.950 . S
C237 C236 1.297 . S
C237 C238 1.479 . S
C237 H251 0.950 . S
C238 C237 1.479 . S
C238 C239 1.375 . S
C238 C244 1.404 . S
C239 C238 1.375 . S
C239 C240 1.369 . S
C239 H252 0.950 . S
C240 C239 1.369 . S
C240 C241 1.392 . S
C240 H253 0.951 . S
C241 C240 1.392 . S
C241 C243 1.384 . S
H242 C244 0.949 . S
C243 C241 1.384 . S
C243 C244 1.385 . S
C243 H245 0.950 . S
C244 C238 1.404 . S
C244 H242 0.949 . S
C244 C243 1.385 . S
H245 C243 0.950 . S
H246 C230 0.951 . S
H247 C232 0.951 . S
H248 C234 0.951 . S
H249 C235 0.950 . S
H250 C236 0.950 . S
H251 C237 0.950 . S
H252 C239 0.950 . S
H253 C240 0.951 . S
C254 C255 1.386 . S
C254 C256 1.383 . S
C254 H270 0.951 . S
C255 C254 1.386 . S
C255 C259 1.383 . S
C256 C254 1.383 . S
C256 C257 1.402 . S
C256 H271 0.951 . S
C257 C256 1.402 . S
C257 C258 1.375 . S
C257 C260 1.481 . S
C258 C257 1.375 . S
C258 C259 1.367 . S
C258 H272 0.951 . S
C259 C255 1.383 . S
C259 C258 1.367 . S
C259 H273 0.950 . S
C260 C257 1.481 . S
C260 C261 1.297 . S
C260 H274 0.950 . S
C261 C260 1.297 . S
C261 C262 1.479 . S
C261 H275 0.950 . S
C262 C261 1.479 . S
C262 C263 1.375 . S
C262 C268 1.404 . S
C263 C262 1.375 . S
C263 C264 1.369 . S
C263 H276 0.950 . S
C264 C263 1.369 . S
C264 C265 1.392 . S
C264 H277 0.951 . S
C265 C264 1.392 . S
C265 C267 1.384 . S
H266 C268 0.949 . S
C267 C265 1.384 . S
C267 C268 1.385 . S
C267 H269 0.950 . S
C268 C262 1.404 . S
C268 H266 0.949 . S
C268 C267 1.385 . S
H269 C267 0.950 . S
H270 C254 0.951 . S
H271 C256 0.951 . S
H272 C258 0.951 . S
H273 C259 0.950 . S
H274 C260 0.950 . S
H275 C261 0.950 . S
H276 C263 0.950 . S
H277 C264 0.951 . S
C278 C279 1.386 1_655 S
C278 C280 1.384 1_665 S
C278 H294 0.949 1_565 S
C279 C278 1.386 1_455 S
C279 C283 1.383 . S
C280 C278 1.384 1_445 S
C280 C281 1.399 1_545 S
C280 H295 0.952 1_455 S
C281 C280 1.399 1_565 S
C281 C282 1.375 . S
C281 C284 1.480 . S
C282 C281 1.375 . S
C282 C283 1.367 . S
C282 H296 0.951 . S
C283 C279 1.383 . S
C283 C282 1.367 . S
C283 H297 0.950 . S
C284 C281 1.480 . S
C284 C285 1.297 1_565 S
C284 H298 0.950 1_565 S
C285 C284 1.297 1_545 S
C285 C286 1.479 . S
C285 H299 0.959 1_545 S
C286 C285 1.479 . S
C286 C287 1.375 . S
C286 C292 1.404 . S
C287 C286 1.375 . S
C287 C288 1.369 . S
C287 H300 0.950 1_455 S
C288 C287 1.369 . S
C288 C289 1.392 . S
C288 H301 0.951 1_455 S
C289 C288 1.392 . S
C289 C291 1.384 . S
H290 C292 0.949 1_565 S
C291 C289 1.384 . S
C291 C292 1.385 . S
C291 H293 0.950 . S
C292 C286 1.404 . S
C292 H290 0.949 1_545 S
C292 C291 1.385 . S
H293 C291 0.950 . S
H294 C278 0.949 1_545 S
H295 C280 0.952 1_655 S
H296 C282 0.951 . S
H297 C283 0.950 . S
H298 C284 0.950 1_545 S
H299 C285 0.959 1_565 S
H300 C287 0.950 1_655 S
H301 C288 0.951 1_655 S
C302 C303 1.386 1_545 S
C302 C304 1.383 . S
C302 H318 0.951 . S
C303 C302 1.386 1_565 S
C303 C307 1.383 . S
C304 C302 1.383 . S
C304 C305 1.402 1_545 S
C304 H319 0.951 . S
C305 C304 1.402 1_565 S
C305 C306 1.375 . S
C305 C308 1.481 . S
C306 C305 1.375 . S
C306 C307 1.367 . S
C306 H320 0.951 . S
C307 C303 1.383 . S
C307 C306 1.367 . S
C307 H321 0.950 . S
C308 C305 1.481 . S
C308 C309 1.297 1_565 S
C308 H322 0.950 . S
C309 C308 1.297 1_545 S
C309 C310 1.479 . S
C309 H323 0.950 . S
C310 C309 1.479 . S
C310 C311 1.375 . S
C310 C316 1.404 1_545 S
C311 C310 1.375 . S
C311 C312 1.369 . S
C311 H324 0.950 . S
C312 C311 1.369 . S
C312 C313 1.392 . S
C312 H325 0.951 . S
C313 C312 1.392 . S
C313 C315 1.384 1_545 S
H314 C316 0.949 . S
C315 C313 1.384 1_565 S
C315 C316 1.385 . S
C315 H317 0.948 1_455 S
C316 C310 1.404 1_565 S
C316 H314 0.949 . S
C316 C315 1.385 . S
H317 C315 0.948 1_655 S
H318 C302 0.951 . S
H319 C304 0.951 . S
H320 C306 0.951 . S
H321 C307 0.950 . S
H322 C308 0.950 . S
H323 C309 0.950 . S
H324 C311 0.950 . S
H325 C312 0.951 . S
C326 C327 1.386 . S
C326 C328 1.383 . S
C326 H342 0.951 . S
C327 C326 1.386 . S
C327 C331 1.383 . S
C328 C326 1.383 . S
C328 C329 1.402 . S
C328 H343 0.951 . S
C329 C328 1.402 . S
C329 C330 1.375 . S
C329 C332 1.481 . S
C330 C329 1.375 . S
C330 C331 1.367 . S
C330 H344 0.951 . S
C331 C327 1.383 . S
C331 C330 1.367 . S
C331 H345 0.950 . S
C332 C329 1.481 . S
C332 C333 1.297 . S
C332 H346 0.950 . S
C333 C332 1.297 . S
C333 C334 1.479 . S
C333 H347 0.950 . S
C334 C333 1.479 . S
C334 C335 1.375 . S
C334 C340 1.404 . S
C335 C334 1.375 . S
C335 C336 1.369 . S
C335 H348 0.950 . S
C336 C335 1.369 . S
C336 C337 1.392 . S
C336 H349 0.951 . S
C337 C336 1.392 . S
C337 C339 1.384 . S
H338 C340 0.949 . S
C339 C337 1.384 . S
C339 C340 1.385 . S
C339 H341 0.950 . S
C340 C334 1.404 . S
C340 H338 0.949 . S
C340 C339 1.385 . S
H341 C339 0.950 . S
H342 C326 0.951 . S
H343 C328 0.951 . S
H344 C330 0.951 . S
H345 C331 0.950 . S
H346 C332 0.950 . S
H347 C333 0.950 . S
H348 C335 0.950 . S
H349 C336 0.951 . S
C350 C351 1.386 . S
C350 C352 1.383 . S
C350 H366 0.951 . S
C351 C350 1.386 . S
C351 C355 1.383 . S
C352 C350 1.383 . S
C352 C353 1.402 . S
C352 H367 0.951 . S
C353 C352 1.402 . S
C353 C354 1.375 . S
C353 C356 1.481 . S
C354 C353 1.375 . S
C354 C355 1.367 . S
C354 H368 0.951 . S
C355 C351 1.383 . S
C355 C354 1.367 . S
C355 H369 0.950 . S
C356 C353 1.481 . S
C356 C357 1.297 . S
C356 H370 0.950 . S
C357 C356 1.297 . S
C357 C358 1.479 . S
C357 H371 0.950 . S
C358 C357 1.479 . S
C358 C359 1.375 . S
C358 C364 1.404 . S
C359 C358 1.375 . S
C359 C360 1.369 . S
C359 H372 0.950 . S
C360 C359 1.369 . S
C360 C361 1.392 . S
C360 H373 0.951 . S
C361 C360 1.392 . S
C361 C363 1.384 . S
H362 C364 0.949 . S
C363 C361 1.384 . S
C363 C364 1.385 . S
C363 H365 0.950 . S
C364 C358 1.404 . S
C364 H362 0.949 . S
C364 C363 1.385 . S
H365 C363 0.950 . S
H366 C350 0.951 . S
H367 C352 0.951 . S
H368 C354 0.951 . S
H369 C355 0.950 . S
H370 C356 0.950 . S
H371 C357 0.950 . S
H372 C359 0.950 . S
H373 C360 0.951 . S
C97 C80 1.034 . S
C87 C3 1.098 . S
C111 C4 1.498 . S
C121 C69 1.398 . S
C135 C19 1.464 1_554 S
C145 C83 1.598 . S
C159 C7 1.069 . S
C169 C72 1.179 . S
C183 C37 1.136 . S
C193 C58 1.176 . S
C207 C28 1.500 . S
C217 C47 1.380 . S
C241 C61 1.597 . S
C231 C41 1.467 . S
C265 C50 1.245 . S
C255 C25 1.142 . S
C279 C20 1.294 . S
C289 C49 1.403 . S
C303 C16 1.412 . S
C313 C60 1.413 . S
C337 C71 1.379 . S
C327 C40 1.288 . S
C351 C24 1.368 . S
C361 C82 1.494 . S
