# Generated by pormake.
# Topology zzz, (3,6)-cn, num edge types: 1
# Building blocks:
#     Node 0, Type 0, BuildingBlock: OLANEW_clean_sbu_2, # of connection points: 3
#     Node 1, Type 0, BuildingBlock: OLANEW_clean_sbu_2, # of connection points: 3
#     Node 2, Type 0, BuildingBlock: OLANEW_clean_sbu_2, # of connection points: 3
#     Node 3, Type 0, BuildingBlock: OLANEW_clean_sbu_2, # of connection points: 3
#     Node 4, Type 0, BuildingBlock: OLANEW_clean_sbu_2, # of connection points: 3
#     Node 5, Type 0, BuildingBlock: OLANEW_clean_sbu_2, # of connection points: 3
#     Node 6, Type 0, BuildingBlock: OLANEW_clean_sbu_2, # of connection points: 3
#     Node 7, Type 0, BuildingBlock: OLANEW_clean_sbu_2, # of connection points: 3
#     Node 8, Type 1, BuildingBlock: NUHQIS_clean_sbu_0, # of connection points: 6
#     Node 9, Type 1, BuildingBlock: NUHQIS_clean_sbu_0, # of connection points: 6
#     Node 10, Type 1, BuildingBlock: NUHQIS_clean_sbu_0, # of connection points: 6
#     Node 11, Type 1, BuildingBlock: NUHQIS_clean_sbu_0, # of connection points: 6
#     Edge 12, Type (0, 1), BuildingBlock: EZIPEK_clean_linker_0, # of connection points: 2
#     Edge 13, Type (0, 1), BuildingBlock: EZIPEK_clean_linker_0, # of connection points: 2
#     Edge 14, Type (0, 1), BuildingBlock: EZIPEK_clean_linker_0, # of connection points: 2
#     Edge 15, Type (0, 1), BuildingBlock: EZIPEK_clean_linker_0, # of connection points: 2
#     Edge 16, Type (0, 1), BuildingBlock: EZIPEK_clean_linker_0, # of connection points: 2
#     Edge 17, Type (0, 1), BuildingBlock: EZIPEK_clean_linker_0, # of connection points: 2
#     Edge 18, Type (0, 1), BuildingBlock: EZIPEK_clean_linker_0, # of connection points: 2
#     Edge 19, Type (0, 1), BuildingBlock: EZIPEK_clean_linker_0, # of connection points: 2
#     Edge 20, Type (0, 1), BuildingBlock: EZIPEK_clean_linker_0, # of connection points: 2
#     Edge 21, Type (0, 1), BuildingBlock: EZIPEK_clean_linker_0, # of connection points: 2
#     Edge 22, Type (0, 1), BuildingBlock: EZIPEK_clean_linker_0, # of connection points: 2
#     Edge 23, Type (0, 1), BuildingBlock: EZIPEK_clean_linker_0, # of connection points: 2
#     Edge 24, Type (0, 1), BuildingBlock: EZIPEK_clean_linker_0, # of connection points: 2
#     Edge 25, Type (0, 1), BuildingBlock: EZIPEK_clean_linker_0, # of connection points: 2
#     Edge 26, Type (0, 1), BuildingBlock: EZIPEK_clean_linker_0, # of connection points: 2
#     Edge 27, Type (0, 1), BuildingBlock: EZIPEK_clean_linker_0, # of connection points: 2
#     Edge 28, Type (0, 1), BuildingBlock: EZIPEK_clean_linker_0, # of connection points: 2
#     Edge 29, Type (0, 1), BuildingBlock: EZIPEK_clean_linker_0, # of connection points: 2
#     Edge 30, Type (0, 1), BuildingBlock: EZIPEK_clean_linker_0, # of connection points: 2
#     Edge 31, Type (0, 1), BuildingBlock: EZIPEK_clean_linker_0, # of connection points: 2
#     Edge 32, Type (0, 1), BuildingBlock: EZIPEK_clean_linker_0, # of connection points: 2
#     Edge 33, Type (0, 1), BuildingBlock: EZIPEK_clean_linker_0, # of connection points: 2
#     Edge 34, Type (0, 1), BuildingBlock: EZIPEK_clean_linker_0, # of connection points: 2
#     Edge 35, Type (0, 1), BuildingBlock: EZIPEK_clean_linker_0, # of connection points: 2
# Relax obj value: 0.282
# Max RMSD: 0.176
# Mean RMSD: 0.150
data_MOF--net-zzz--node1-OLANEW_clean_sbu_2--node2-NUHQIS_clean_sbu_0--edge1-EZIPEK_clean_linker_0
_symmetry_space_group_name_H-M    P1
_symmetry_Int_Tables_number       1
_symmetry_cell_setting            triclinic
loop_
_symmetry_equiv_pos_as_xyz
'x, y, z'
_cell_length_a     42.445687
_cell_length_b     42.419787
_cell_length_c     12.099478
_cell_angle_alpha  89.686847
_cell_angle_beta   89.89119
_cell_angle_gamma 89.999049
loop_
_atom_site_label
_atom_site_type_symbol
_atom_site_fract_x
_atom_site_fract_y
_atom_site_fract_z
_atom_type_partial_charge
O0 O 0.73931 0.42754 0.43153 0.0
Cd1 Cd 0.69812 0.45158 0.54307 0.0
O2 O 0.75805 0.474 0.38272 0.0
Cd3 Cd 0.73772 0.50037 0.51933 0.0
O4 O 0.78141 0.50838 0.61004 0.0
C5 C 0.80408 0.51961 0.55323 0.0
O6 O 0.79869 0.52954 0.45204 0.0
C7 C 0.75804 0.44416 0.37363 0.0
C8 C 0.64855 0.46344 0.39972 0.0
O9 O 0.66911 0.48477 0.41954 0.0
O10 O 0.65065 0.43699 0.45076 0.0
O11 O 0.00516 0.72381 0.24307 0.0
Cd12 Cd 0.98887 0.67741 0.34905 0.0
O13 O 0.99037 0.76174 0.3574 0.0
Cd14 Cd 0.968 0.74083 0.50221 0.0
O15 O 0.95796 0.78485 0.58975 0.0
C16 C 0.98107 0.80393 0.59155 0.0
O17 O 0.00848 0.79471 0.55281 0.0
C18 C 0.00317 0.75281 0.26801 0.0
C19 C 0.98532 0.62592 0.20591 0.0
O20 O 0.01181 0.63576 0.2428 0.0
O21 O 0.96028 0.63994 0.23876 0.0
O22 O 0.77833 0.00741 0.3465 0.0
Cd23 Cd 0.82485 0.98728 0.44311 0.0
O24 O 0.75782 0.95983 0.34558 0.0
Cd25 Cd 0.7166 0.93076 0.31297 0.0
O26 O 0.66698 0.92854 0.3573 0.0
C27 C 0.6611 0.94629 0.43894 0.0
O28 O 0.68451 0.96103 0.48716 0.0
C29 C 0.756 0.98893 0.32098 0.0
C30 C 0.87544 0.99006 0.29815 0.0
O31 O 0.85858 0.96509 0.30569 0.0
O32 O 0.86922 0.01323 0.36202 0.0
O33 O 0.47826 0.7944 0.34173 0.0
Cd34 Cd 0.48549 0.84782 0.40986 0.0
O35 O 0.50754 0.77698 0.4781 0.0
Cd36 Cd 0.52871 0.73755 0.56635 0.0
O37 O 0.54481 0.69255 0.63155 0.0
C38 C 0.52758 0.67764 0.69991 0.0
O39 O 0.50081 0.69001 0.73282 0.0
C40 C 0.49097 0.77156 0.39299 0.0
C41 C 0.48887 0.88995 0.23397 0.0
O42 O 0.46226 0.88132 0.27415 0.0
O43 O 0.51408 0.87896 0.27777 0.0
O44 O 0.28334 0.54689 0.29509 0.0
Cd45 Cd 0.33777 0.54197 0.2323 0.0
O46 O 0.26978 0.51662 0.15669 0.0
Cd47 Cd 0.23271 0.49384 0.0622 0.0
O48 O 0.18751 0.48486 0.98451 0.0
C49 C 0.17591 0.4574 0.9766 0.0
O50 O 0.19171 0.43288 0.01325 0.0
C51 C 0.26209 0.53277 0.24068 0.0
C52 C 0.37834 0.5275 0.40483 0.0
O53 O 0.37264 0.55623 0.37858 0.0
O54 O 0.36492 0.50551 0.35012 0.0
O55 O 0.95604 0.25744 0.12358 0.0
Cd56 Cd 0.98726 0.30097 0.04939 0.0
O57 O 0.99462 0.22332 0.0984 0.0
Cd58 Cd 0.02365 0.24949 0.98156 0.0
O59 O 0.02663 0.20469 0.89366 0.0
C60 C 0.04357 0.18302 0.93557 0.0
O61 O 0.06172 0.18949 0.02031 0.0
C62 C 0.9677 0.23013 0.13729 0.0
C63 C 0.9947 0.34559 0.2155 0.0
O64 O 0.97172 0.34742 0.14722 0.0
O65 O 0.01469 0.32321 0.20392 0.0
O66 O 0.20953 0.00959 0.10161 0.0
Cd67 Cd 0.15835 0.02166 0.01995 0.0
O68 O 0.22827 0.05381 0.03325 0.0
Cd69 Cd 0.2684 0.08484 0.00855 0.0
O70 O 0.31795 0.08655 0.96583 0.0
C71 C 0.33325 0.11013 0.92953 0.0
O72 O 0.31945 0.1377 0.9193 0.0
C73 C 0.23222 0.02883 0.09005 0.0
C74 C 0.11389 0.0175 0.18726 0.0
O75 O 0.11909 0.99393 0.12406 0.0
O76 O 0.12886 0.04325 0.16946 0.0
O77 O 0.55431 0.24781 0.1124 0.0
Cd78 Cd 0.5412 0.19798 0.02475 0.0
O79 O 0.50778 0.24289 0.19052 0.0
Cd80 Cd 0.47199 0.26556 0.29161 0.0
O81 O 0.46611 0.31518 0.25412 0.0
C82 C 0.44778 0.32335 0.17635 0.0
O83 O 0.42845 0.3025 0.13386 0.0
C84 C 0.53325 0.25824 0.17726 0.0
C85 C 0.52841 0.15495 0.1929 0.0
O86 O 0.55577 0.15624 0.14805 0.0
O87 O 0.50684 0.17327 0.15584 0.0
Tb88 Tb 0.02734 0.98208 0.81685 0.0
Eu89 Eu 0.96633 0.01039 0.67717 0.0
C90 C 0.03338 0.00327 0.56929 0.0
C91 C 0.0168 0.05501 0.80418 0.0
C92 C 0.06965 0.92056 0.95722 0.0
C93 C 0.06813 0.883 0.10922 0.0
C94 C 0.07582 0.91289 0.06803 0.0
C95 C 0.05732 0.89732 0.8867 0.0
C96 C 0.0497 0.86751 0.92782 0.0
C97 C 0.05418 0.86056 0.03995 0.0
C98 C 0.07009 0.95378 0.92153 0.0
O99 O 0.99166 0.99592 0.93669 0.0
O100 O 0.94685 0.98966 0.8334 0.0
O101 O 0.97046 0.95898 0.63332 0.0
O102 O 0.9967 0.94215 0.78838 0.0
C103 C 0.96111 0.99179 0.92901 0.0
O104 O 0.92467 0.04049 0.66683 0.0
O105 O 0.93909 0.01312 0.5249 0.0
O106 O 0.00976 0.02267 0.58158 0.0
O107 O 0.03917 0.98085 0.64152 0.0
O108 O 0.03772 0.03218 0.80892 0.0
O109 O 0.98747 0.05059 0.77321 0.0
C110 C 0.98099 0.93629 0.69768 0.0
O111 O 0.07119 0.95892 0.8154 0.0
O112 O 0.04889 0.97129 0.96862 0.0
C113 C 0.92244 0.06495 0.49312 0.0
C114 C 0.9257 0.12117 0.37053 0.0
C115 C 0.89628 0.10771 0.3955 0.0
C116 C 0.89467 0.0797 0.45725 0.0
C117 C 0.95173 0.07847 0.46728 0.0
C118 C 0.95334 0.10633 0.40633 0.0
C119 C 0.9215 0.03616 0.56073 0.0
H120 H 0.07147 0.87793 0.19627 0.0
H121 H 0.08475 0.93059 0.12411 0.0
H122 H 0.05178 0.9027 0.8013 0.0
H123 H 0.0387 0.85048 0.87374 0.0
H124 H 0.87476 0.11901 0.36816 0.0
H125 H 0.87188 0.06974 0.47759 0.0
H126 H 0.97341 0.06759 0.49504 0.0
H127 H 0.97618 0.11645 0.38739 0.0
Tb128 Tb 0.52408 0.04263 0.78994 0.0
Eu129 Eu 0.47216 0.00411 0.63155 0.0
C130 C 0.50592 0.06838 0.55616 0.0
C131 C 0.45164 0.06124 0.79182 0.0
C132 C 0.59225 0.05655 0.97459 0.0
C133 C 0.64028 0.06703 0.07675 0.0
C134 C 0.61394 0.07797 0.01865 0.0
C135 C 0.59701 0.02405 0.98987 0.0
C136 C 0.62333 0.01312 0.04785 0.0
C137 C 0.64516 0.03454 0.09147 0.0
C138 C 0.56475 0.06821 0.91301 0.0
O139 O 0.51859 0.99599 0.86427 0.0
O140 O 0.47033 0.98044 0.79697 0.0
O141 O 0.51691 0.97587 0.62783 0.0
O142 O 0.55088 0.0166 0.66735 0.0
C143 C 0.49326 0.97822 0.86874 0.0
O144 O 0.42732 0.97987 0.60949 0.0
O145 O 0.45879 0.9857 0.47028 0.0
O146 O 0.49701 0.04009 0.52662 0.0
O147 O 0.51077 0.07584 0.66013 0.0
O148 O 0.47867 0.06018 0.84409 0.0
O149 O 0.44655 0.04616 0.69891 0.0
C150 C 0.54514 0.98849 0.62724 0.0
O151 O 0.56688 0.06722 0.80565 0.0
O152 O 0.53751 0.05795 0.94752 0.0
C153 C 0.40419 0.98602 0.43411 0.0
C154 C 0.35056 0.00259 0.31072 0.0
C155 C 0.36219 0.97164 0.30809 0.0
C156 C 0.38881 0.9634 0.36964 0.0
C157 C 0.39311 0.01722 0.43448 0.0
C158 C 0.36641 0.02546 0.37306 0.0
C159 C 0.43102 0.97651 0.50327 0.0
H160 H 0.65695 0.08386 0.10971 0.0
H161 H 0.61056 0.10311 0.00784 0.0
H162 H 0.5804 0.0072 0.95694 0.0
H163 H 0.62679 0.98797 0.05816 0.0
H164 H 0.35017 0.95373 0.26059 0.0
H165 H 0.39711 0.93925 0.36836 0.0
H166 H 0.40469 0.03495 0.48402 0.0
H167 H 0.35767 0.04944 0.37604 0.0
Tb168 Tb 0.49022 0.51547 0.99904 0.0
Eu169 Eu 0.53307 0.47622 0.81697 0.0
C170 C 0.46638 0.50274 0.75841 0.0
C171 C 0.48291 0.44239 0.9816 0.0
C172 C 0.46241 0.58137 0.17157 0.0
C173 C 0.45919 0.62085 0.31563 0.0
C174 C 0.45482 0.58985 0.28026 0.0
C175 C 0.47426 0.60429 0.09821 0.0
C176 C 0.47835 0.63534 0.13329 0.0
C177 C 0.47109 0.64372 0.24244 0.0
C178 C 0.46048 0.54817 0.13873 0.0
O179 O 0.5262 0.48896 0.08727 0.0
O180 O 0.56513 0.48952 0.95645 0.0
O181 O 0.53697 0.52795 0.77803 0.0
O182 O 0.52684 0.54816 0.94831 0.0
C183 C 0.55604 0.48744 0.05983 0.0
O184 O 0.56471 0.43767 0.77127 0.0
O185 O 0.55116 0.47253 0.64893 0.0
O186 O 0.48345 0.47706 0.75512 0.0
O187 O 0.47092 0.52426 0.83449 0.0
O188 O 0.46824 0.46931 0.99671 0.0
O189 O 0.50974 0.44018 0.92755 0.0
C190 C 0.53861 0.55124 0.84849 0.0
O191 O 0.45024 0.54243 0.03941 0.0
O192 O 0.4853 0.53151 0.16186 0.0
C193 C 0.56011 0.42072 0.58631 0.0
C194 C 0.55051 0.3709 0.43777 0.0
C195 C 0.58068 0.37698 0.47969 0.0
C196 C 0.58542 0.4017 0.55362 0.0
C197 C 0.52996 0.41507 0.54265 0.0
C198 C 0.5252 0.39027 0.46864 0.0
C199 C 0.56555 0.44588 0.66724 0.0
H200 H 0.45358 0.62697 0.40023 0.0
H201 H 0.44607 0.57239 0.3383 0.0
H202 H 0.48076 0.59807 0.01446 0.0
H203 H 0.48751 0.65276 0.07592 0.0
H204 H 0.60038 0.36208 0.45722 0.0
H205 H 0.60875 0.40564 0.5869 0.0
H206 H 0.51009 0.42948 0.56713 0.0
H207 H 0.50173 0.38569 0.43756 0.0
Tb208 Tb 0.9785 0.45425 0.80903 0.0
Eu209 Eu 0.0089 0.50739 0.639 0.0
C210 C 0.9993 0.43691 0.56846 0.0
C211 C 0.05118 0.46409 0.79794 0.0
C212 C 0.92346 0.41237 0.99911 0.0
C213 C 0.89131 0.431 0.15179 0.0
C214 C 0.92001 0.43056 0.09524 0.0
C215 C 0.89807 0.39375 0.96332 0.0
C216 C 0.86934 0.39431 0.01972 0.0
C217 C 0.86572 0.41332 0.11315 0.0
C218 C 0.95265 0.41351 0.93263 0.0
O219 O 0.98768 0.49577 0.9102 0.0
O220 O 0.98769 0.53502 0.7777 0.0
O221 O 0.95713 0.50335 0.5985 0.0
O222 O 0.93982 0.4856 0.76806 0.0
C223 C 0.98648 0.52573 0.88124 0.0
O224 O 0.03781 0.54924 0.61114 0.0
O225 O 0.01686 0.5252 0.47195 0.0
O226 O 0.01993 0.45978 0.56923 0.0
O227 O 0.97678 0.43532 0.64235 0.0
O228 O 0.02849 0.44311 0.8026 0.0
O229 O 0.04696 0.4923 0.7561 0.0
C230 C 0.93442 0.49801 0.67029 0.0
O231 O 0.9487 0.41503 0.82617 0.0
O232 O 0.97488 0.43254 0.96477 0.0
C233 C 0.06884 0.54405 0.45207 0.0
C234 C 0.13101 0.54045 0.37279 0.0
C235 C 0.11634 0.56988 0.38583 0.0
C236 C 0.08539 0.57166 0.42532 0.0
C237 C 0.08329 0.5146 0.43646 0.0
C238 C 0.11414 0.51281 0.39671 0.0
C239 C 0.03757 0.54597 0.50409 0.0
H240 H 0.88881 0.44567 0.22431 0.0
H241 H 0.93917 0.44497 0.12549 0.0
H242 H 0.90022 0.37932 0.89007 0.0
H243 H 0.84977 0.38045 0.98944 0.0
H244 H 0.12911 0.59141 0.36772 0.0
H245 H 0.07464 0.59455 0.43737 0.0
H246 H 0.07096 0.49301 0.45731 0.0
H247 H 0.12514 0.48993 0.3871 0.0
C248 C 0.10663 0.01312 0.3915 0.0
C249 C 0.09309 0.01424 0.28447 0.0
C250 C 0.04076 0.00492 0.36349 0.0
C251 C 0.05393 0.00671 0.47119 0.0
N252 N 0.09837 0.01849 0.58838 0.0
N253 N 0.04707 0.01697 0.16854 0.0
C254 C 0.08661 0.01239 0.48552 0.0
C255 C 0.06006 0.01174 0.2703 0.0
N256 N 0.13865 0.01176 0.40332 0.0
N257 N 0.0102 0.9955 0.34993 0.0
H258 H 0.06059 0.02242 0.09889 0.0
H259 H 0.02289 0.01867 0.15511 0.0
H260 H 0.99543 0.98973 0.41593 0.0
H261 H 0.00035 0.9906 0.27315 0.0
H262 H 0.14971 0.00726 0.47854 0.0
H263 H 0.15423 0.01242 0.33657 0.0
H264 H 0.12128 0.02633 0.60202 0.0
H265 H 0.08452 0.0186 0.65957 0.0
C266 C 0.54325 0.13279 0.37862 0.0
C267 C 0.52214 0.13352 0.28769 0.0
C268 C 0.4875 0.09649 0.38521 0.0
C269 C 0.5109 0.09219 0.46772 0.0
N270 N 0.56447 0.10131 0.52762 0.0
N271 N 0.4771 0.1109 0.19524 0.0
C272 C 0.53973 0.10902 0.46059 0.0
C273 C 0.49498 0.11401 0.28838 0.0
N274 N 0.56589 0.15546 0.38957 0.0
N275 N 0.45785 0.08463 0.40044 0.0
H276 H 0.48257 0.12199 0.12054 0.0
H277 H 0.4588 0.09467 0.18891 0.0
H278 H 0.45108 0.07261 0.472 0.0
H279 H 0.43914 0.08965 0.34753 0.0
H280 H 0.57982 0.1575 0.46004 0.0
H281 H 0.56838 0.1743 0.33456 0.0
H282 H 0.58691 0.11088 0.5175 0.0
H283 H 0.56364 0.08295 0.58507 0.0
C284 C 0.43165 0.51101 0.47039 0.0
C285 C 0.40033 0.51997 0.49565 0.0
C286 C 0.41138 0.51445 0.69366 0.0
C287 C 0.44356 0.50886 0.66838 0.0
N288 N 0.4856 0.50888 0.53341 0.0
N289 N 0.36066 0.53363 0.63006 0.0
C290 C 0.45407 0.50889 0.55685 0.0
C291 C 0.39029 0.52282 0.60706 0.0
N292 N 0.44003 0.50442 0.36387 0.0
N293 N 0.40068 0.51036 0.79946 0.0
H294 H 0.34406 0.53852 0.56885 0.0
H295 H 0.35321 0.53969 0.70919 0.0
H296 H 0.41529 0.50364 0.86468 0.0
H297 H 0.37693 0.51086 0.82103 0.0
H298 H 0.46159 0.49438 0.3427 0.0
H299 H 0.42453 0.5066 0.29749 0.0
H300 H 0.49465 0.51214 0.45407 0.0
H301 H 0.50287 0.5091 0.59443 0.0
C302 C 0.99943 0.40136 0.28057 0.0
C303 C 0.99783 0.36876 0.30616 0.0
C304 C 0.00221 0.38094 0.50346 0.0
C305 C -0.00015 0.41355 0.47804 0.0
N306 N 0.98978 0.45454 0.34323 0.0
N307 N 0.99237 0.32749 0.44326 0.0
C308 C 0.99677 0.42376 0.36674 0.0
C309 C 0.99791 0.35846 0.41805 0.0
N310 N 0.00466 0.41097 0.17429 0.0
N311 N 0.00943 0.37145 0.60856 0.0
H312 H 0.98849 0.31033 0.38347 0.0
H313 H 0.98874 0.31933 0.52363 0.0
H314 H 0.01313 0.38724 0.67304 0.0
H315 H 0.01467 0.34818 0.62941 0.0
H316 H 0.00887 0.43439 0.15295 0.0
H317 H 0.00794 0.39524 0.10931 0.0
H318 H 0.98402 0.46254 0.26425 0.0
H319 H 0.98655 0.47155 0.40404 0.0
C320 C 0.92545 0.97141 0.2096 0.0
C321 C 0.89983 0.99288 0.21133 0.0
C322 C 0.91933 0.01777 0.04157 0.0
C323 C 0.9417 0.99318 0.03032 0.0
N324 N 0.96531 0.94521 0.09941 0.0
N325 N 0.87004 0.03446 0.12238 0.0
C326 C 0.94484 0.96975 0.11376 0.0
C327 C 0.89629 0.01577 0.12622 0.0
N328 N 0.93167 0.95325 0.30065 0.0
N329 N 0.92061 0.04349 0.97308 0.0
H330 H 0.85217 0.03364 0.18149 0.0
H331 H 0.86458 0.04891 0.05522 0.0
H332 H 0.93742 0.046 0.91075 0.0
H333 H 0.90712 0.06369 0.98514 0.0
H334 H 0.95187 0.9395 0.30895 0.0
H335 H 0.91809 0.95428 0.37252 0.0
H336 H 0.96617 0.92565 0.1517 0.0
H337 H 0.97997 0.9432 0.03053 0.0
C338 C 0.47281 0.94071 0.14368 0.0
C339 C 0.49024 0.91222 0.13926 0.0
C340 C 0.51019 0.92706 0.95569 0.0
C341 C 0.49079 0.95428 0.95761 0.0
N342 N 0.44722 0.98219 0.04016 0.0
N343 N 0.52031 0.87503 0.03131 0.0
C344 C 0.47004 0.95957 0.04734 0.0
C345 C 0.50771 0.90451 0.04278 0.0
N346 N 0.46026 0.95073 0.24136 0.0
N347 N 0.53053 0.92245 0.86968 0.0
H348 H 0.51793 0.85736 0.09094 0.0
H349 H 0.53054 0.867 0.95841 0.0
H350 H 0.53059 0.93668 0.79922 0.0
H351 H 0.54822 0.90543 0.8704 0.0
H352 H 0.45045 0.97306 0.25095 0.0
H353 H 0.4628 0.93832 0.31542 0.0
H354 H 0.42952 0.98488 0.0992 0.0
H355 H 0.44386 0.99594 0.96963 0.0
C356 C 0.62307 0.44934 0.21994 0.0
C357 C 0.62395 0.46869 0.31523 0.0
C358 C 0.58208 0.50186 0.23839 0.0
C359 C 0.57949 0.48104 0.14739 0.0
N360 N 0.59229 0.4309 0.06511 0.0
N361 N 0.5999 0.50903 0.42666 0.0
C362 C 0.59849 0.45358 0.1419 0.0
C363 C 0.60216 0.49373 0.32789 0.0
N364 N 0.64643 0.4278 0.20126 0.0
N365 N 0.5664 0.53002 0.23738 0.0
H366 H 0.61398 0.50344 0.49459 0.0
H367 H 0.58201 0.52502 0.44453 0.0
H368 H 0.55207 0.53724 0.17207 0.0
H369 H 0.56992 0.5475 0.29625 0.0
H370 H 0.64876 0.41558 0.12725 0.0
H371 H 0.66522 0.4242 0.25522 0.0
H372 H 0.60327 0.40893 0.06509 0.0
H373 H 0.57392 0.43264 0.00838 0.0
C374 C 0.00365 0.57253 0.14194 0.0
C375 C 0.98398 0.59928 0.12619 0.0
C376 C 0.96152 0.5741 0.96225 0.0
C377 C 0.98475 0.55013 0.96843 0.0
N378 N 0.03279 0.53097 0.05225 0.0
N379 N 0.94915 0.62827 0.00378 0.0
C380 C 0.00717 0.55047 0.05512 0.0
C381 C 0.96411 0.60085 0.03172 0.0
N382 N 0.01812 0.56737 0.241 0.0
N383 N 0.93651 0.57101 0.89229 0.0
H384 H 0.952 0.64923 0.04705 0.0
H385 H 0.93684 0.63113 0.92995 0.0
H386 H 0.93308 0.55101 0.84406 0.0
H387 H 0.9175 0.58656 0.89179 0.0
H388 H 0.03034 0.54665 0.25848 0.0
H389 H 0.01471 0.58181 0.30943 0.0
H390 H 0.05132 0.53256 0.10837 0.0
H391 H 0.03733 0.51572 0.98694 0.0
C392 C 0.94137 0.17771 0.13315 0.0
C393 C 0.94967 0.20499 0.19392 0.0
C394 C 0.93161 0.17971 0.36506 0.0
C395 C 0.9284 0.15095 0.30699 0.0
N396 N 0.92975 0.12168 0.13699 0.0
N397 N 0.95367 0.23246 0.36734 0.0
C398 C 0.93269 0.14979 0.19091 0.0
C399 C 0.94446 0.20642 0.30962 0.0
N400 N 0.94162 0.17876 0.02015 0.0
N401 N 0.9226 0.18123 0.47344 0.0
H402 H 0.96279 0.25263 0.32945 0.0
H403 H 0.95409 0.23353 0.45323 0.0
H404 H 0.91353 0.16185 0.51637 0.0
H405 H 0.92155 0.2021 0.51809 0.0
H406 H 0.93339 0.16063 0.97034 0.0
H407 H 0.94757 0.19906 0.97572 0.0
H408 H 0.93626 0.1183 0.05494 0.0
H409 H 0.92214 0.10107 0.1762 0.0
C410 C 0.26369 0.02059 0.26305 0.0
C411 C 0.26276 0.02266 0.14592 0.0
C412 C 0.32017 0.01565 0.13815 0.0
C413 C 0.32051 0.0104 0.25401 0.0
N414 N 0.29222 0.00307 0.42538 0.0
N415 N 0.28912 0.01735 0.97016 0.0
C416 C 0.29215 0.01153 0.31614 0.0
C417 C 0.29077 0.01898 0.08281 0.0
N418 N 0.23774 0.02856 0.324 0.0
N419 N 0.34799 0.01805 0.08151 0.0
H420 H 0.268 0.01942 0.9268 0.0
H421 H 0.30821 0.01144 0.92022 0.0
H422 H 0.36989 0.01544 0.11945 0.0
H423 H 0.34949 0.02518 0.99918 0.0
H424 H 0.23803 0.03086 0.40964 0.0
H425 H 0.21652 0.03578 0.28864 0.0
H426 H 0.27174 0.99984 0.47163 0.0
H427 H 0.31262 0.99674 0.46797 0.0
C428 C 0.53841 0.31733 0.18847 0.0
C429 C 0.53856 0.28737 0.24158 0.0
C430 C 0.54276 0.31266 0.42257 0.0
C431 C 0.54515 0.34245 0.36936 0.0
N432 N 0.54758 0.3738 0.20292 0.0
N433 N 0.54601 0.25588 0.40604 0.0
C434 C 0.5436 0.345 0.25242 0.0
C435 C 0.5421 0.28488 0.35785 0.0
N436 N 0.53219 0.31929 0.0778 0.0
N437 N 0.5402 0.31102 0.5352 0.0
H438 H 0.5458 0.23489 0.36149 0.0
H439 H 0.55225 0.25266 0.48851 0.0
H440 H 0.54081 0.33084 0.58583 0.0
H441 H 0.53476 0.29038 0.57809 0.0
H442 H 0.52873 0.34039 0.03538 0.0
H443 H 0.52842 0.29949 0.02881 0.0
H444 H 0.54959 0.37712 0.11797 0.0
H445 H 0.55067 0.39454 0.24757 0.0
C446 C 0.20569 0.54658 0.1991 0.0
C447 C 0.22856 0.53507 0.27483 0.0
C448 C 0.18782 0.53023 0.4179 0.0
C449 C 0.16458 0.53857 0.33877 0.0
N450 N 0.15047 0.549 0.14914 0.0
N451 N 0.24041 0.51014 0.44986 0.0
C452 C 0.17324 0.54511 0.2278 0.0
C453 C 0.21939 0.52535 0.38269 0.0
N454 N 0.21499 0.56012 0.10159 0.0
N455 N 0.17991 0.52778 0.52723 0.0
H456 H 0.26359 0.50542 0.42651 0.0
H457 H 0.23407 0.4995 0.52445 0.0
H458 H 0.15703 0.53115 0.5565 0.0
H459 H 0.19648 0.52514 0.59001 0.0
H460 H 0.19956 0.57177 0.04843 0.0
H461 H 0.23857 0.56233 0.07846 0.0
H462 H 0.15539 0.5503 0.06485 0.0
H463 H 0.12644 0.5481 0.16713 0.0
C464 C 0.9954 0.80116 0.15388 0.0
C465 C 0.01602 0.77738 0.19345 0.0
C466 C 0.06106 0.80551 0.11273 0.0
C467 C 0.04094 0.8312 0.08756 0.0
N468 N 0.98947 0.85543 0.09481 0.0
N469 N 0.06896 0.75802 0.22125 0.0
C470 C 0.00818 0.82951 0.11036 0.0
C471 C 0.049 0.77959 0.17465 0.0
N472 N 0.96357 0.79629 0.156 0.0
N473 N 0.09159 0.80584 0.0766 0.0
H474 H 0.06117 0.73865 0.26709 0.0
H475 H 0.09336 0.76051 0.22145 0.0
H476 H 0.10121 0.82472 0.0324 0.0
H477 H 0.10655 0.78644 0.08224 0.0
H478 H 0.94743 0.81139 0.11839 0.0
H479 H 0.95348 0.77547 0.18581 0.0
H480 H 0.96625 0.85674 0.1223 0.0
H481 H 0.99776 0.87664 0.06188 0.0
C482 C 0.70436 0.01787 0.32128 0.0
C483 C 0.72788 0.00114 0.26228 0.0
C484 C 0.69844 0.0087 0.08986 0.0
C485 C 0.67361 0.0229 0.15057 0.0
N486 N 0.65026 0.03622 0.32606 0.0
N487 N 0.746 0.97707 0.09354 0.0
C488 C 0.67585 0.02626 0.26694 0.0
C489 C 0.72446 0.9954 0.14747 0.0
N490 N 0.70936 0.02596 0.42905 0.0
N491 N 0.69774 0.00908 0.97683 0.0
H492 H 0.76625 0.96821 0.13133 0.0
H493 H 0.74282 0.96886 0.01339 0.0
H494 H 0.67919 0.01873 0.93153 0.0
H495 H 0.71667 0.00227 0.92758 0.0
H496 H 0.6947 0.04115 0.47273 0.0
H497 H 0.72938 0.01914 0.47297 0.0
H498 H 0.64918 0.03564 0.41204 0.0
H499 H 0.62892 0.04239 0.2892 0.0
C500 C 0.4549 0.7266 0.34719 0.0
C501 C 0.48598 0.73877 0.35477 0.0
C502 C 0.50736 0.68756 0.29864 0.0
C503 C 0.47625 0.6765 0.28065 0.0
N504 N 0.42053 0.68704 0.26873 0.0
N505 N 0.54162 0.73281 0.31851 0.0
C506 C 0.45002 0.69648 0.29944 0.0
C507 C 0.51222 0.71978 0.3254 0.0
N508 N 0.43014 0.74318 0.39004 0.0
N509 N 0.53219 0.66709 0.29318 0.0
H510 H 0.54613 0.75645 0.3357 0.0
H511 H 0.56104 0.72099 0.28618 0.0
H512 H 0.5296 0.64331 0.2737 0.0
H513 H 0.55494 0.67297 0.31768 0.0
H514 H 0.40748 0.73397 0.39746 0.0
H515 H 0.43274 0.76502 0.42811 0.0
H516 H 0.40103 0.70195 0.26908 0.0
H517 H 0.41599 0.66512 0.23344 0.0
C518 C 0.80358 0.40714 0.33683 0.0
C519 C 0.78114 0.42949 0.29747 0.0
C520 C 0.81202 0.43745 0.12847 0.0
C521 C 0.83479 0.4159 0.16909 0.0
N522 N 0.84862 0.37394 0.29434 0.0
N523 N 0.75871 0.45753 0.14304 0.0
C524 C 0.82923 0.39853 0.26744 0.0
C525 C 0.7837 0.44191 0.18882 0.0
N526 N 0.80177 0.39569 0.44252 0.0
N527 N 0.81804 0.45467 0.0349 0.0
H528 H 0.7373 0.46025 0.18455 0.0
H529 H 0.75799 0.46477 0.06071 0.0
H530 H 0.83821 0.45155 0.98682 0.0
H531 H 0.80405 0.47343 0.00873 0.0
H532 H 0.81945 0.38232 0.47945 0.0
H533 H 0.78382 0.40135 0.49754 0.0
H534 H 0.84408 0.35819 0.35872 0.0
H535 H 0.86788 0.36749 0.24572 0.0
C536 C 0.04819 0.13905 0.79817 0.0
C537 C 0.03819 0.14977 0.90352 0.0
C538 C 0.01537 0.09778 0.94546 0.0
C539 C 0.02591 0.08695 0.84089 0.0
N540 N 0.05538 0.09498 0.67281 0.0
N541 N 0.01395 0.13971 0.08117 0.0
C542 C 0.04329 0.10693 0.76877 0.0
C543 C 0.02239 0.12915 0.97852 0.0
N544 N 0.06187 0.15982 0.7257 0.0
N545 N 0.99813 0.07807 0.0121 0.0
H546 H 0.01627 0.16308 0.10575 0.0
H547 H 0.00554 0.1254 0.14467 0.0
H548 H 0.9941 0.05449 0.99339 0.0
H549 H 0.98684 0.08484 0.08444 0.0
H550 H 0.0666 0.15478 0.64329 0.0
H551 H 0.0672 0.18305 0.74644 0.0
H552 H 0.07095 0.10705 0.62136 0.0
H553 H 0.05136 0.0719 0.6472 0.0
C554 C 0.3774 0.10973 0.7905 0.0
C555 C 0.36678 0.10565 0.90082 0.0
C556 C 0.41531 0.07757 0.94849 0.0
C557 C 0.42563 0.08088 0.83684 0.0
N558 N 0.42217 0.11016 0.66609 0.0
N559 N 0.3793 0.09515 0.09135 0.0
C560 C 0.40847 0.10031 0.76254 0.0
C561 C 0.38706 0.09271 0.98197 0.0
N562 N 0.35737 0.12068 0.7108 0.0
N563 N 0.4311 0.05864 0.02134 0.0
H564 H 0.35887 0.10651 0.11813 0.0
H565 H 0.39447 0.0889 0.15541 0.0
H566 H 0.45284 0.04845 0.00524 0.0
H567 H 0.4218 0.05168 0.09737 0.0
H568 H 0.36284 0.12043 0.62682 0.0
H569 H 0.33438 0.12789 0.7273 0.0
H570 H 0.41177 0.12643 0.61266 0.0
H571 H 0.4455 0.10484 0.64624 0.0
C572 C 0.45922 0.35691 0.00872 0.0
C573 C 0.45224 0.35461 0.12355 0.0
C574 C 0.46478 0.41054 0.14595 0.0
C575 C 0.46941 0.41326 0.02989 0.0
N576 N 0.46313 0.39104 0.84834 0.0
N577 N 0.44132 0.38068 0.29605 0.0
C578 C 0.464 0.38707 0.96049 0.0
C579 C 0.45278 0.38193 0.19046 0.0
N580 N 0.46375 0.33039 0.94692 0.0
N581 N 0.47348 0.43447 0.21468 0.0
H582 H 0.43177 0.36021 0.33064 0.0
H583 H 0.43837 0.40057 0.3451 0.0
H584 H 0.48256 0.45584 0.18652 0.0
H585 H 0.47424 0.43209 0.30039 0.0
H586 H 0.47227 0.33103 0.86612 0.0
H587 H 0.46255 0.3076 0.97909 0.0
H588 H 0.45625 0.37327 0.79435 0.0
H589 H 0.46607 0.41296 0.81018 0.0
C590 C 0.11806 0.44864 0.99984 0.0
C591 C 0.1442 0.45359 0.92865 0.0
C592 C 0.10894 0.45698 0.76895 0.0
C593 C 0.08274 0.45635 0.84184 0.0
N594 N 0.06181 0.45416 0.02724 0.0
N595 N 0.16538 0.46349 0.74671 0.0
C596 C 0.08708 0.45232 0.95737 0.0
C597 C 0.13989 0.45788 0.81331 0.0
N598 N 0.12288 0.44085 0.10835 0.0
N599 N 0.10407 0.45599 0.65731 0.0
H600 H 0.18854 0.46254 0.77534 0.0
H601 H 0.16367 0.4706 0.66449 0.0
H602 H 0.08163 0.4546 0.62275 0.0
H603 H 0.12204 0.45369 0.59928 0.0
H604 H 0.10496 0.43356 0.16151 0.0
H605 H 0.14521 0.43936 0.14373 0.0
H606 H 0.0638 0.45575 0.11277 0.0
H607 H 0.03869 0.45649 0.99957 0.0
C608 C 0.98212 0.86021 0.53138 0.0
C609 C 0.97626 0.83776 0.6162 0.0
C610 C 0.96561 0.88064 0.74588 0.0
C611 C 0.97659 0.9028 0.66594 0.0
N612 N 0.00105 0.91242 0.48766 0.0
N613 N 0.96516 0.82611 0.80752 0.0
C614 C 0.9861 0.89237 0.55948 0.0
C615 C 0.9685 0.8478 0.72441 0.0
N616 N 0.9835 0.85087 0.42347 0.0
N617 N 0.95168 0.891 0.84096 0.0
H618 H 0.96676 0.80188 0.79445 0.0
H619 H 0.96308 0.83218 0.89049 0.0
H620 H 0.94804 0.91484 0.85737 0.0
H621 H 0.94087 0.87604 0.89805 0.0
H622 H 0.98462 0.86669 0.35736 0.0
H623 H 0.98009 0.82754 0.39937 0.0
H624 H 0.01132 0.90496 0.414 0.0
H625 H 0.00631 0.93577 0.50601 0.0
C626 C 0.60443 0.96266 0.41296 0.0
C627 C 0.62872 0.95059 0.48192 0.0
C628 C 0.59636 0.95994 0.64598 0.0
C629 C 0.57181 0.97134 0.57727 0.0
N630 N 0.54936 0.97705 0.39512 0.0
N631 N 0.64424 0.92913 0.65841 0.0
C632 C 0.57471 0.97019 0.46051 0.0
C633 C 0.62349 0.94648 0.59679 0.0
N634 N 0.61034 0.96925 0.30414 0.0
N635 N 0.5943 0.96295 0.75817 0.0
H636 H 0.66391 0.91815 0.62394 0.0
H637 H 0.6402 0.92288 0.7406 0.0
H638 H 0.5744 0.97179 0.79775 0.0
H639 H 0.61311 0.95868 0.81139 0.0
H640 H 0.59478 0.98166 0.25369 0.0
H641 H 0.63186 0.96474 0.26585 0.0
H642 H 0.54912 0.97334 0.31009 0.0
H643 H 0.52758 0.98393 0.42681 0.0
C644 C 0.53902 0.62106 0.6589 0.0
C645 C 0.53675 0.64573 0.73727 0.0
C646 C 0.55004 0.6086 0.88633 0.0
C647 C 0.54781 0.58356 0.80942 0.0
N648 N 0.55974 0.56921 0.62127 0.0
N649 N 0.54265 0.6644 0.92405 0.0
C650 C 0.54832 0.59065 0.6949 0.0
C651 C 0.54334 0.63997 0.85076 0.0
N652 N 0.53048 0.62604 0.55128 0.0
N653 N 0.56063 0.60234 0.99077 0.0
H654 H 0.5396 0.68781 0.89955 0.0
H655 H 0.54416 0.66168 0.00934 0.0
H656 H 0.56933 0.58018 0.01299 0.0
H657 H 0.56411 0.61927 0.05133 0.0
H658 H 0.52826 0.60786 0.49423 0.0
H659 H 0.52274 0.64778 0.52129 0.0
H660 H 0.56254 0.57414 0.53737 0.0
H661 H 0.57113 0.54864 0.64666 0.0
C662 C 0.84865 0.48311 0.59781 0.0
C663 C 0.83707 0.51441 0.58859 0.0
C664 C 0.89032 0.53514 0.62026 0.0
C665 C 0.90125 0.50389 0.63857 0.0
N666 N 0.89057 0.44808 0.65463 0.0
N667 N 0.84536 0.57034 0.60342 0.0
C668 C 0.88025 0.47792 0.63113 0.0
C669 C 0.85754 0.5405 0.60279 0.0
N670 N 0.83012 0.45825 0.56736 0.0
N671 N 0.91126 0.55964 0.61904 0.0
H672 H 0.82147 0.57497 0.59119 0.0
H673 H 0.85823 0.59028 0.62465 0.0
H674 H 0.93515 0.55688 0.63635 0.0
H675 H 0.90548 0.58244 0.5942 0.0
H676 H 0.83855 0.43536 0.55927 0.0
H677 H 0.80696 0.46067 0.54044 0.0
H678 H 0.8755 0.42908 0.66829 0.0
H679 H 0.91421 0.44241 0.66594 0.0
loop_
_geom_bond_atom_site_label_1
_geom_bond_atom_site_label_2
_geom_bond_distance
_geom_bond_site_symmetry_2
_ccdc_geom_bond_type
O0 Cd1 2.300 . S
O0 C7 1.275 . S
Cd1 O0 2.300 . S
Cd1 O9 2.381 . S
Cd1 O10 2.378 . S
O2 Cd3 2.385 . S
O2 C7 1.255 . S
Cd3 O2 2.385 . S
Cd3 O4 2.317 . S
O4 Cd3 2.317 . S
O4 C5 1.232 . S
C5 O4 1.232 . S
C5 O6 1.218 . S
O6 C5 1.218 . S
C7 O0 1.275 . S
C7 O2 1.255 . S
C8 O9 1.258 . S
C8 O10 1.256 . S
O9 Cd1 2.381 . S
O9 C8 1.258 . S
O10 Cd1 2.378 . S
O10 C8 1.256 . S
O11 Cd12 2.300 1_655 S
O11 C18 1.275 1_655 S
Cd12 O11 2.300 1_455 S
Cd12 O20 2.381 1_455 S
Cd12 O21 2.378 . S
O13 Cd14 2.385 . S
O13 C18 1.255 . S
Cd14 O13 2.385 . S
Cd14 O15 2.317 . S
O15 Cd14 2.317 . S
O15 C16 1.232 . S
C16 O15 1.232 . S
C16 O17 1.218 . S
O17 C16 1.218 . S
C18 O11 1.275 1_455 S
C18 O13 1.255 . S
C19 O20 1.258 1_455 S
C19 O21 1.256 . S
O20 Cd12 2.381 1_655 S
O20 C19 1.258 1_655 S
O21 Cd12 2.378 . S
O21 C19 1.256 . S
O22 Cd23 2.300 1_565 S
O22 C29 1.275 1_565 S
Cd23 O22 2.300 1_545 S
Cd23 O31 2.381 1_545 S
Cd23 O32 2.378 . S
O24 Cd25 2.385 . S
O24 C29 1.255 . S
Cd25 O24 2.385 . S
Cd25 O26 2.317 . S
O26 Cd25 2.317 . S
O26 C27 1.232 . S
C27 O26 1.232 . S
C27 O28 1.218 . S
O28 C27 1.218 . S
C29 O22 1.275 1_545 S
C29 O24 1.255 . S
C30 O31 1.258 1_545 S
C30 O32 1.256 . S
O31 Cd23 2.381 1_565 S
O31 C30 1.258 1_565 S
O32 Cd23 2.378 . S
O32 C30 1.256 . S
O33 Cd34 2.300 . S
O33 C40 1.275 . S
Cd34 O33 2.300 . S
Cd34 O42 2.381 . S
Cd34 O43 2.378 . S
O35 Cd36 2.385 . S
O35 C40 1.255 . S
Cd36 O35 2.385 . S
Cd36 O37 2.317 . S
O37 Cd36 2.317 . S
O37 C38 1.232 . S
C38 O37 1.232 . S
C38 O39 1.218 . S
O39 C38 1.218 . S
C40 O33 1.275 . S
C40 O35 1.255 . S
C41 O42 1.258 . S
C41 O43 1.256 . S
O42 Cd34 2.381 . S
O42 C41 1.258 . S
O43 Cd34 2.378 . S
O43 C41 1.256 . S
O44 Cd45 2.300 . S
O44 C51 1.275 . S
Cd45 O44 2.300 . S
Cd45 O53 2.381 . S
Cd45 O54 2.378 . S
O46 Cd47 2.385 1_554 S
O46 C51 1.255 . S
Cd47 O46 2.385 1_556 S
Cd47 O48 2.317 . S
O48 Cd47 2.317 . S
O48 C49 1.232 . S
C49 O48 1.232 . S
C49 O50 1.218 . S
O50 C49 1.218 . S
C51 O44 1.275 . S
C51 O46 1.255 . S
C52 O53 1.258 . S
C52 O54 1.256 . S
O53 Cd45 2.381 . S
O53 C52 1.258 . S
O54 Cd45 2.378 . S
O54 C52 1.256 . S
O55 Cd56 2.300 1_655 S
O55 C62 1.275 1_655 S
Cd56 O55 2.300 1_455 S
Cd56 O64 2.381 1_455 S
Cd56 O65 2.378 . S
O57 Cd58 2.385 1_554 S
O57 C62 1.255 . S
Cd58 O57 2.385 1_556 S
Cd58 O59 2.317 . S
O59 Cd58 2.317 . S
O59 C60 1.232 . S
C60 O59 1.232 . S
C60 O61 1.218 . S
O61 C60 1.218 . S
C62 O55 1.275 1_455 S
C62 O57 1.255 . S
C63 O64 1.258 1_455 S
C63 O65 1.256 . S
O64 Cd56 2.381 1_655 S
O64 C63 1.258 1_655 S
O65 Cd56 2.378 . S
O65 C63 1.256 . S
O66 Cd67 2.300 1_565 S
O66 C73 1.275 1_565 S
Cd67 O66 2.300 1_545 S
Cd67 O75 2.381 1_545 S
Cd67 O76 2.378 . S
O68 Cd69 2.385 1_554 S
O68 C73 1.255 . S
Cd69 O68 2.385 1_556 S
Cd69 O70 2.317 . S
O70 Cd69 2.317 . S
O70 C71 1.232 . S
C71 O70 1.232 . S
C71 O72 1.218 . S
O72 C71 1.218 . S
C73 O66 1.275 1_545 S
C73 O68 1.255 . S
C74 O75 1.258 1_545 S
C74 O76 1.256 . S
O75 Cd67 2.381 1_565 S
O75 C74 1.258 1_565 S
O76 Cd67 2.378 . S
O76 C74 1.256 . S
O77 Cd78 2.300 . S
O77 C84 1.275 . S
Cd78 O77 2.300 . S
Cd78 O86 2.381 . S
Cd78 O87 2.378 . S
O79 Cd80 2.385 1_554 S
O79 C84 1.255 . S
Cd80 O79 2.385 1_556 S
Cd80 O81 2.317 . S
O81 Cd80 2.317 . S
O81 C82 1.232 . S
C82 O81 1.232 . S
C82 O83 1.218 . S
O83 C82 1.218 . S
C84 O77 1.275 . S
C84 O79 1.255 . S
C85 O86 1.258 . S
C85 O87 1.256 . S
O86 Cd78 2.381 . S
O86 C85 1.258 . S
O87 Cd78 2.378 . S
O87 C85 1.256 . S
Tb88 C98 2.825 1_556 S
Tb88 O99 2.347 1_455 S
Tb88 O102 2.366 . S
Tb88 O107 2.418 . S
Tb88 O108 2.384 1_565 S
Tb88 O111 2.479 . S
Tb88 O112 2.471 1_556 S
Eu89 O100 2.418 . S
Eu89 O101 2.384 1_545 S
Eu89 O104 2.479 . S
Eu89 O105 2.471 . S
Eu89 O106 2.347 1_655 S
Eu89 O109 2.366 . S
Eu89 C119 2.825 . S
C90 O106 1.259 1_565 S
C90 O107 1.265 . S
C91 O108 1.255 . S
C91 O109 1.265 1_455 S
C92 C94 1.380 . S
C92 C95 1.374 . S
C92 C98 1.507 . S
C93 C94 1.384 . S
C93 C97 1.387 . S
C93 H120 0.930 . S
C94 C92 1.380 . S
C94 C93 1.384 . S
C94 H121 0.931 . S
C95 C92 1.374 . S
C95 C96 1.390 . S
C95 H122 0.930 1_455 S
C96 C95 1.390 . S
C96 C97 1.391 . S
C96 H123 0.930 1_455 S
C97 C93 1.387 . S
C97 C96 1.391 . S
C98 Tb88 2.825 1_554 S
C98 C92 1.507 . S
C98 O111 1.238 1_554 S
C98 O112 1.247 . S
O99 Tb88 2.347 1_655 S
O99 C103 1.259 1_565 S
O100 Eu89 2.418 . S
O100 C103 1.265 . S
O101 Eu89 2.384 1_565 S
O101 C110 1.255 . S
O102 Tb88 2.366 . S
O102 C110 1.265 1_455 S
C103 O99 1.259 1_545 S
C103 O100 1.265 . S
O104 Eu89 2.479 . S
O104 C119 1.238 . S
O105 Eu89 2.471 . S
O105 C119 1.247 . S
O106 Eu89 2.347 1_455 S
O106 C90 1.259 1_545 S
O107 Tb88 2.418 . S
O107 C90 1.265 . S
O108 Tb88 2.384 1_545 S
O108 C91 1.255 . S
O109 Eu89 2.366 . S
O109 C91 1.265 1_655 S
C110 O101 1.255 . S
C110 O102 1.265 1_655 S
O111 Tb88 2.479 . S
O111 C98 1.238 1_556 S
O112 Tb88 2.471 1_554 S
O112 C98 1.247 . S
C113 C116 1.380 . S
C113 C117 1.374 . S
C113 C119 1.507 . S
C114 C115 1.387 . S
C114 C118 1.391 . S
C115 C114 1.387 . S
C115 C116 1.384 . S
C115 H124 0.930 . S
C116 C113 1.380 . S
C116 C115 1.384 . S
C116 H125 0.931 . S
C117 C113 1.374 . S
C117 C118 1.390 . S
C117 H126 0.930 1_655 S
C118 C114 1.391 . S
C118 C117 1.390 . S
C118 H127 0.930 1_655 S
C119 Eu89 2.825 . S
C119 O104 1.238 . S
C119 O105 1.247 . S
C119 C113 1.507 . S
H120 C93 0.930 . S
H121 C94 0.931 . S
H122 C95 0.930 1_655 S
H123 C96 0.930 1_655 S
H124 C115 0.930 . S
H125 C116 0.931 . S
H126 C117 0.930 1_455 S
H127 C118 0.930 1_455 S
Tb128 C138 2.825 1_556 S
Tb128 O139 2.347 1_545 S
Tb128 O142 2.366 . S
Tb128 O147 2.418 . S
Tb128 O148 2.384 . S
Tb128 O151 2.479 . S
Tb128 O152 2.471 1_556 S
Eu129 O140 2.418 . S
Eu129 O141 2.384 . S
Eu129 O144 2.479 . S
Eu129 O145 2.471 . S
Eu129 O146 2.347 1_565 S
Eu129 O149 2.366 . S
Eu129 C159 2.825 . S
C130 O146 1.259 . S
C130 O147 1.265 . S
C131 O148 1.255 . S
C131 O149 1.265 1_545 S
C132 C134 1.380 . S
C132 C135 1.374 . S
C132 C138 1.507 . S
C133 C134 1.384 . S
C133 C137 1.387 . S
C133 H160 0.930 . S
C134 C132 1.380 . S
C134 C133 1.384 . S
C134 H161 0.931 . S
C135 C132 1.374 . S
C135 C136 1.390 . S
C135 H162 0.930 1_545 S
C136 C135 1.390 . S
C136 C137 1.391 . S
C136 H163 0.930 1_545 S
C137 C133 1.387 . S
C137 C136 1.391 . S
C138 Tb128 2.825 1_554 S
C138 C132 1.507 . S
C138 O151 1.238 1_554 S
C138 O152 1.247 . S
O139 Tb128 2.347 1_565 S
O139 C143 1.259 . S
O140 Eu129 2.418 . S
O140 C143 1.265 . S
O141 Eu129 2.384 . S
O141 C150 1.255 . S
O142 Tb128 2.366 . S
O142 C150 1.265 1_545 S
C143 O139 1.259 . S
C143 O140 1.265 . S
O144 Eu129 2.479 . S
O144 C159 1.238 . S
O145 Eu129 2.471 . S
O145 C159 1.247 . S
O146 Eu129 2.347 1_545 S
O146 C130 1.259 . S
O147 Tb128 2.418 . S
O147 C130 1.265 . S
O148 Tb128 2.384 . S
O148 C131 1.255 . S
O149 Eu129 2.366 . S
O149 C131 1.265 1_565 S
C150 O141 1.255 . S
C150 O142 1.265 1_565 S
O151 Tb128 2.479 . S
O151 C138 1.238 1_556 S
O152 Tb128 2.471 1_554 S
O152 C138 1.247 . S
C153 C156 1.380 . S
C153 C157 1.374 . S
C153 C159 1.507 . S
C154 C155 1.387 . S
C154 C158 1.391 . S
C155 C154 1.387 . S
C155 C156 1.384 . S
C155 H164 0.930 . S
C156 C153 1.380 . S
C156 C155 1.384 . S
C156 H165 0.931 . S
C157 C153 1.374 . S
C157 C158 1.390 . S
C157 H166 0.930 1_565 S
C158 C154 1.391 . S
C158 C157 1.390 . S
C158 H167 0.930 1_565 S
C159 Eu129 2.825 . S
C159 O144 1.238 . S
C159 O145 1.247 . S
C159 C153 1.507 . S
H160 C133 0.930 . S
H161 C134 0.931 . S
H162 C135 0.930 1_565 S
H163 C136 0.930 1_565 S
H164 C155 0.930 . S
H165 C156 0.931 . S
H166 C157 0.930 1_545 S
H167 C158 0.930 1_545 S
Tb168 C178 2.825 1_556 S
Tb168 O179 2.347 . S
Tb168 O182 2.366 . S
Tb168 O187 2.418 . S
Tb168 O188 2.384 . S
Tb168 O191 2.479 . S
Tb168 O192 2.471 1_556 S
Eu169 O180 2.418 . S
Eu169 O181 2.384 . S
Eu169 O184 2.479 . S
Eu169 O185 2.471 . S
Eu169 O186 2.347 . S
Eu169 O189 2.366 . S
Eu169 C199 2.825 . S
C170 O186 1.259 . S
C170 O187 1.265 . S
C171 O188 1.255 . S
C171 O189 1.265 . S
C172 C174 1.380 . S
C172 C175 1.374 . S
C172 C178 1.507 . S
C173 C174 1.384 . S
C173 C177 1.387 . S
C173 H200 0.930 . S
C174 C172 1.380 . S
C174 C173 1.384 . S
C174 H201 0.931 . S
C175 C172 1.374 . S
C175 C176 1.390 . S
C175 H202 0.930 . S
C176 C175 1.390 . S
C176 C177 1.391 . S
C176 H203 0.930 . S
C177 C173 1.387 . S
C177 C176 1.391 . S
C178 Tb168 2.825 1_554 S
C178 C172 1.507 . S
C178 O191 1.238 1_554 S
C178 O192 1.247 . S
O179 Tb168 2.347 . S
O179 C183 1.259 . S
O180 Eu169 2.418 . S
O180 C183 1.265 . S
O181 Eu169 2.384 . S
O181 C190 1.255 . S
O182 Tb168 2.366 . S
O182 C190 1.265 . S
C183 O179 1.259 . S
C183 O180 1.265 . S
O184 Eu169 2.479 . S
O184 C199 1.238 . S
O185 Eu169 2.471 . S
O185 C199 1.247 . S
O186 Eu169 2.347 . S
O186 C170 1.259 . S
O187 Tb168 2.418 . S
O187 C170 1.265 . S
O188 Tb168 2.384 . S
O188 C171 1.255 . S
O189 Eu169 2.366 . S
O189 C171 1.265 . S
C190 O181 1.255 . S
C190 O182 1.265 . S
O191 Tb168 2.479 . S
O191 C178 1.238 1_556 S
O192 Tb168 2.471 1_554 S
O192 C178 1.247 . S
C193 C196 1.380 . S
C193 C197 1.374 . S
C193 C199 1.507 . S
C194 C195 1.387 . S
C194 C198 1.391 . S
C195 C194 1.387 . S
C195 C196 1.384 . S
C195 H204 0.930 . S
C196 C193 1.380 . S
C196 C195 1.384 . S
C196 H205 0.931 . S
C197 C193 1.374 . S
C197 C198 1.390 . S
C197 H206 0.930 . S
C198 C194 1.391 . S
C198 C197 1.390 . S
C198 H207 0.930 . S
C199 Eu169 2.825 . S
C199 O184 1.238 . S
C199 O185 1.247 . S
C199 C193 1.507 . S
H200 C173 0.930 . S
H201 C174 0.931 . S
H202 C175 0.930 . S
H203 C176 0.930 . S
H204 C195 0.930 . S
H205 C196 0.931 . S
H206 C197 0.930 . S
H207 C198 0.930 . S
Tb208 C218 2.825 1_556 S
Tb208 O219 2.347 . S
Tb208 O222 2.366 . S
Tb208 O227 2.418 . S
Tb208 O228 2.384 1_655 S
Tb208 O231 2.479 . S
Tb208 O232 2.471 1_556 S
Eu209 O220 2.418 . S
Eu209 O221 2.384 1_455 S
Eu209 O224 2.479 . S
Eu209 O225 2.471 . S
Eu209 O226 2.347 . S
Eu209 O229 2.366 . S
Eu209 C239 2.825 . S
C210 O226 1.259 1_655 S
C210 O227 1.265 . S
C211 O228 1.255 . S
C211 O229 1.265 . S
C212 C214 1.380 . S
C212 C215 1.374 . S
C212 C218 1.507 . S
C213 C214 1.384 . S
C213 C217 1.387 . S
C213 H240 0.930 . S
C214 C212 1.380 . S
C214 C213 1.384 . S
C214 H241 0.931 . S
C215 C212 1.374 . S
C215 C216 1.390 . S
C215 H242 0.930 . S
C216 C215 1.390 . S
C216 C217 1.391 . S
C216 H243 0.930 . S
C217 C213 1.387 . S
C217 C216 1.391 . S
C218 Tb208 2.825 1_554 S
C218 C212 1.507 . S
C218 O231 1.238 1_554 S
C218 O232 1.247 . S
O219 Tb208 2.347 . S
O219 C223 1.259 1_655 S
O220 Eu209 2.418 . S
O220 C223 1.265 . S
O221 Eu209 2.384 1_655 S
O221 C230 1.255 . S
O222 Tb208 2.366 . S
O222 C230 1.265 . S
C223 O219 1.259 1_455 S
C223 O220 1.265 . S
O224 Eu209 2.479 . S
O224 C239 1.238 . S
O225 Eu209 2.471 . S
O225 C239 1.247 . S
O226 Eu209 2.347 . S
O226 C210 1.259 1_455 S
O227 Tb208 2.418 . S
O227 C210 1.265 . S
O228 Tb208 2.384 1_455 S
O228 C211 1.255 . S
O229 Eu209 2.366 . S
O229 C211 1.265 . S
C230 O221 1.255 . S
C230 O222 1.265 . S
O231 Tb208 2.479 . S
O231 C218 1.238 1_556 S
O232 Tb208 2.471 1_554 S
O232 C218 1.247 . S
C233 C236 1.380 . S
C233 C237 1.374 . S
C233 C239 1.507 . S
C234 C235 1.387 . S
C234 C238 1.391 . S
C235 C234 1.387 . S
C235 C236 1.384 . S
C235 H244 0.930 . S
C236 C233 1.380 . S
C236 C235 1.384 . S
C236 H245 0.931 . S
C237 C233 1.374 . S
C237 C238 1.390 . S
C237 H246 0.930 . S
C238 C234 1.391 . S
C238 C237 1.390 . S
C238 H247 0.930 . S
C239 Eu209 2.825 . S
C239 O224 1.238 . S
C239 O225 1.247 . S
C239 C233 1.507 . S
H240 C213 0.930 . S
H241 C214 0.931 . S
H242 C215 0.930 . S
H243 C216 0.930 . S
H244 C235 0.930 . S
H245 C236 0.931 . S
H246 C237 0.930 . S
H247 C238 0.930 . S
C248 C249 1.363 . S
C248 C254 1.379 . S
C248 N256 1.356 . S
C249 C248 1.363 . S
C249 C255 1.363 1_545 S
C250 C251 1.363 1_565 S
C250 C255 1.379 . S
C250 N257 1.356 . S
C251 C250 1.363 1_545 S
C251 C254 1.363 . S
N252 C254 1.356 . S
N252 H264 0.984 . S
N252 H265 0.985 . S
N253 C255 1.356 . S
N253 H258 0.984 . S
N253 H259 0.985 . S
C254 C248 1.379 . S
C254 C251 1.363 . S
C254 N252 1.356 . S
C255 C249 1.363 1_565 S
C255 C250 1.379 . S
C255 N253 1.356 . S
N256 C248 1.356 . S
N256 H262 0.984 . S
N256 H263 0.984 . S
N257 C250 1.356 . S
N257 H260 0.984 . S
N257 H261 0.985 . S
H258 N253 0.984 . S
H259 N253 0.985 . S
H260 N257 0.984 . S
H261 N257 0.985 . S
H262 N256 0.984 . S
H263 N256 0.984 . S
H264 N252 0.984 . S
H265 N252 0.985 . S
C266 C267 1.363 . S
C266 C272 1.379 . S
C266 N274 1.356 . S
C267 C266 1.363 . S
C267 C273 1.363 . S
C268 C269 1.363 . S
C268 C273 1.379 . S
C268 N275 1.356 . S
C269 C268 1.363 . S
C269 C272 1.363 . S
N270 C272 1.356 . S
N270 H282 0.984 . S
N270 H283 0.985 . S
N271 C273 1.356 . S
N271 H276 0.984 . S
N271 H277 0.985 . S
C272 C266 1.379 . S
C272 C269 1.363 . S
C272 N270 1.356 . S
C273 C267 1.363 . S
C273 C268 1.379 . S
C273 N271 1.356 . S
N274 C266 1.356 . S
N274 H280 0.984 . S
N274 H281 0.984 . S
N275 C268 1.356 . S
N275 H278 0.984 . S
N275 H279 0.985 . S
H276 N271 0.984 . S
H277 N271 0.985 . S
H278 N275 0.984 . S
H279 N275 0.985 . S
H280 N274 0.984 . S
H281 N274 0.984 . S
H282 N270 0.984 . S
H283 N270 0.985 . S
C284 C285 1.363 . S
C284 C290 1.379 . S
C284 N292 1.356 . S
C285 C284 1.363 . S
C285 C291 1.363 . S
C286 C287 1.363 . S
C286 C291 1.379 . S
C286 N293 1.356 . S
C287 C286 1.363 . S
C287 C290 1.363 . S
N288 C290 1.356 . S
N288 H300 0.984 . S
N288 H301 0.985 . S
N289 C291 1.356 . S
N289 H294 0.984 . S
N289 H295 0.985 . S
C290 C284 1.379 . S
C290 C287 1.363 . S
C290 N288 1.356 . S
C291 C285 1.363 . S
C291 C286 1.379 . S
C291 N289 1.356 . S
N292 C284 1.356 . S
N292 H298 0.984 . S
N292 H299 0.984 . S
N293 C286 1.356 . S
N293 H296 0.984 . S
N293 H297 0.985 . S
H294 N289 0.984 . S
H295 N289 0.985 . S
H296 N293 0.984 . S
H297 N293 0.985 . S
H298 N292 0.984 . S
H299 N292 0.984 . S
H300 N288 0.984 . S
H301 N288 0.985 . S
C302 C303 1.354 1_655 S
C302 C308 1.379 . S
C302 N310 1.356 . S
C303 C302 1.354 1_455 S
C303 C309 1.373 . S
C304 C305 1.363 . S
C304 C309 1.379 . S
C304 N311 1.356 . S
C305 C304 1.363 . S
C305 C308 1.363 1_455 S
N306 C308 1.356 . S
N306 H318 0.984 . S
N306 H319 0.985 . S
N307 C309 1.356 . S
N307 H312 0.984 . S
N307 H313 0.985 . S
C308 C302 1.379 . S
C308 C305 1.363 1_655 S
C308 N306 1.356 . S
C309 C303 1.373 . S
C309 C304 1.379 . S
C309 N307 1.356 . S
N310 C302 1.356 . S
N310 H316 0.984 . S
N310 H317 0.984 . S
N311 C304 1.356 . S
N311 H314 0.984 . S
N311 H315 0.985 . S
H312 N307 0.984 . S
H313 N307 0.985 . S
H314 N311 0.984 . S
H315 N311 0.985 . S
H316 N310 0.984 . S
H317 N310 0.984 . S
H318 N306 0.984 . S
H319 N306 0.985 . S
C320 C321 1.363 1_565 S
C320 C326 1.379 . S
C320 N328 1.356 . S
C321 C320 1.363 1_545 S
C321 C327 1.363 . S
C322 C323 1.363 . S
C322 C327 1.379 . S
C322 N329 1.356 1_554 S
C323 C322 1.363 . S
C323 C326 1.363 1_545 S
N324 C326 1.356 . S
N324 H336 0.984 . S
N324 H337 0.985 1_554 S
N325 C327 1.356 . S
N325 H330 0.984 . S
N325 H331 0.985 . S
C326 C320 1.379 . S
C326 C323 1.363 1_565 S
C326 N324 1.356 . S
C327 C321 1.363 . S
C327 C322 1.379 . S
C327 N325 1.356 . S
N328 C320 1.356 . S
N328 H334 0.984 . S
N328 H335 0.984 . S
N329 C322 1.356 1_556 S
N329 H332 0.984 . S
N329 H333 0.985 . S
H330 N325 0.984 . S
H331 N325 0.985 . S
H332 N329 0.984 . S
H333 N329 0.985 . S
H334 N328 0.984 . S
H335 N328 0.984 . S
H336 N324 0.984 . S
H337 N324 0.985 1_556 S
C338 C339 1.363 . S
C338 C344 1.379 . S
C338 N346 1.356 . S
C339 C338 1.363 . S
C339 C345 1.363 . S
C340 C341 1.363 . S
C340 C345 1.379 . S
C340 N347 1.356 1_554 S
C341 C340 1.363 . S
C341 C344 1.363 . S
N342 C344 1.356 . S
N342 H354 0.984 . S
N342 H355 0.985 1_554 S
N343 C345 1.356 . S
N343 H348 0.984 . S
N343 H349 0.985 . S
C344 C338 1.379 . S
C344 C341 1.363 . S
C344 N342 1.356 . S
C345 C339 1.363 . S
C345 C340 1.379 . S
C345 N343 1.356 . S
N346 C338 1.356 . S
N346 H352 0.984 . S
N346 H353 0.984 . S
N347 C340 1.356 1_556 S
N347 H350 0.984 . S
N347 H351 0.985 . S
H348 N343 0.984 . S
H349 N343 0.985 . S
H350 N347 0.984 . S
H351 N347 0.985 . S
H352 N346 0.984 . S
H353 N346 0.984 . S
H354 N342 0.984 . S
H355 N342 0.985 1_556 S
C356 C357 1.363 . S
C356 C362 1.379 . S
C356 N364 1.356 . S
C357 C356 1.363 . S
C357 C363 1.363 . S
C358 C359 1.363 . S
C358 C363 1.379 . S
C358 N365 1.356 . S
C359 C358 1.363 . S
C359 C362 1.363 . S
N360 C362 1.356 1_556 S
N360 H372 0.984 . S
N360 H373 0.985 . S
N361 C363 1.356 . S
N361 H366 0.984 . S
N361 H367 0.985 . S
C362 C356 1.379 . S
C362 C359 1.363 . S
C362 N360 1.356 1_554 S
C363 C357 1.363 . S
C363 C358 1.379 . S
C363 N361 1.356 . S
N364 C356 1.356 . S
N364 H370 0.984 . S
N364 H371 0.984 . S
N365 C358 1.356 . S
N365 H368 0.984 1_554 S
N365 H369 0.985 . S
H366 N361 0.984 . S
H367 N361 0.985 . S
H368 N365 0.984 1_556 S
H369 N365 0.985 . S
H370 N364 0.984 . S
H371 N364 0.984 . S
H372 N360 0.984 . S
H373 N360 0.985 . S
C374 C375 1.354 1_455 S
C374 C380 1.379 . S
C374 N382 1.356 . S
C375 C374 1.354 1_655 S
C375 C381 1.372 . S
C376 C377 1.363 . S
C376 C381 1.379 . S
C376 N383 1.356 1_554 S
C377 C376 1.363 . S
C377 C380 1.363 1_655 S
N378 C380 1.356 . S
N378 H390 0.984 . S
N378 H391 0.985 1_554 S
N379 C381 1.356 . S
N379 H384 0.984 . S
N379 H385 0.985 . S
C380 C374 1.379 . S
C380 C377 1.363 1_455 S
C380 N378 1.356 . S
C381 C375 1.372 . S
C381 C376 1.379 . S
C381 N379 1.356 . S
N382 C374 1.356 . S
N382 H388 0.984 . S
N382 H389 0.984 . S
N383 C376 1.356 1_556 S
N383 H386 0.984 . S
N383 H387 0.985 . S
H384 N379 0.984 . S
H385 N379 0.985 . S
H386 N383 0.984 . S
H387 N383 0.985 . S
H388 N382 0.984 . S
H389 N382 0.984 . S
H390 N378 0.984 . S
H391 N378 0.985 1_556 S
C392 C393 1.363 . S
C392 C398 1.379 . S
C392 N400 1.356 . S
C393 C392 1.363 . S
C393 C399 1.363 . S
C394 C395 1.363 . S
C394 C399 1.379 . S
C394 N401 1.356 . S
C395 C394 1.363 . S
C395 C398 1.363 . S
N396 C398 1.356 . S
N396 H408 0.984 . S
N396 H409 0.985 . S
N397 C399 1.356 1_455 S
N397 H402 0.984 . S
N397 H403 0.985 . S
C398 C392 1.379 . S
C398 C395 1.363 . S
C398 N396 1.356 . S
C399 C393 1.363 . S
C399 C394 1.379 . S
C399 N397 1.356 1_655 S
N400 C392 1.356 . S
N400 H406 0.984 . S
N400 H407 0.984 1_655 S
N401 C394 1.356 . S
N401 H404 0.984 . S
N401 H405 0.985 . S
H402 N397 0.984 . S
H403 N397 0.985 . S
H404 N401 0.984 . S
H405 N401 0.985 . S
H406 N400 0.984 . S
H407 N400 0.984 1_455 S
H408 N396 0.984 . S
H409 N396 0.985 . S
C410 C411 1.363 1_545 S
C410 C416 1.379 1_545 S
C410 N418 1.356 . S
C411 C410 1.363 1_565 S
C411 C417 1.363 . S
C412 C413 1.363 . S
C412 C417 1.379 . S
C412 N419 1.356 . S
C413 C412 1.363 . S
C413 C416 1.363 . S
N414 C416 1.356 . S
N414 H426 0.984 1_565 S
N414 H427 0.985 . S
N415 C417 1.356 . S
N415 H420 0.984 . S
N415 H421 0.985 . S
C416 C410 1.379 1_565 S
C416 C413 1.363 . S
C416 N414 1.356 . S
C417 C411 1.363 . S
C417 C412 1.379 . S
C417 N415 1.356 . S
N418 C410 1.356 . S
N418 H424 0.984 . S
N418 H425 0.984 . S
N419 C412 1.356 . S
N419 H422 0.984 . S
N419 H423 0.985 . S
H420 N415 0.984 . S
H421 N415 0.985 . S
H422 N419 0.984 . S
H423 N419 0.985 . S
H424 N418 0.984 . S
H425 N418 0.984 . S
H426 N414 0.984 1_545 S
H427 N414 0.985 . S
C428 C429 1.363 . S
C428 C434 1.379 . S
C428 N436 1.356 . S
C429 C428 1.363 . S
C429 C435 1.363 . S
C430 C431 1.363 . S
C430 C435 1.379 . S
C430 N437 1.356 . S
C431 C430 1.363 . S
C431 C434 1.363 . S
N432 C434 1.356 . S
N432 H444 0.984 . S
N432 H445 0.985 . S
N433 C435 1.356 . S
N433 H438 0.984 . S
N433 H439 0.985 . S
C434 C428 1.379 . S
C434 C431 1.363 . S
C434 N432 1.356 . S
C435 C429 1.363 . S
C435 C430 1.379 . S
C435 N433 1.356 . S
N436 C428 1.356 . S
N436 H442 0.984 . S
N436 H443 0.984 . S
N437 C430 1.356 . S
N437 H440 0.984 . S
N437 H441 0.985 . S
H438 N433 0.984 . S
H439 N433 0.985 . S
H440 N437 0.984 . S
H441 N437 0.985 . S
H442 N436 0.984 . S
H443 N436 0.984 . S
H444 N432 0.984 . S
H445 N432 0.985 . S
C446 C447 1.363 . S
C446 C452 1.379 . S
C446 N454 1.356 . S
C447 C446 1.363 . S
C447 C453 1.363 . S
C448 C449 1.363 . S
C448 C453 1.379 . S
C448 N455 1.356 . S
C449 C448 1.363 . S
C449 C452 1.363 . S
N450 C452 1.356 . S
N450 H462 0.984 . S
N450 H463 0.985 . S
N451 C453 1.356 . S
N451 H456 0.984 . S
N451 H457 0.985 . S
C452 C446 1.379 . S
C452 C449 1.363 . S
C452 N450 1.356 . S
C453 C447 1.363 . S
C453 C448 1.379 . S
C453 N451 1.356 . S
N454 C446 1.356 . S
N454 H460 0.984 . S
N454 H461 0.984 . S
N455 C448 1.356 . S
N455 H458 0.984 . S
N455 H459 0.985 . S
H456 N451 0.984 . S
H457 N451 0.985 . S
H458 N455 0.984 . S
H459 N455 0.985 . S
H460 N454 0.984 . S
H461 N454 0.984 . S
H462 N450 0.984 . S
H463 N450 0.985 . S
C464 C465 1.363 . S
C464 C470 1.379 . S
C464 N472 1.356 1_455 S
C465 C464 1.363 . S
C465 C471 1.363 . S
C466 C467 1.363 . S
C466 C471 1.379 . S
C466 N473 1.356 . S
C467 C466 1.363 . S
C467 C470 1.363 . S
N468 C470 1.356 . S
N468 H480 0.984 . S
N468 H481 0.985 . S
N469 C471 1.356 . S
N469 H474 0.984 1_455 S
N469 H475 0.985 . S
C470 C464 1.379 . S
C470 C467 1.363 . S
C470 N468 1.356 . S
C471 C465 1.363 . S
C471 C466 1.379 . S
C471 N469 1.356 . S
N472 C464 1.356 1_655 S
N472 H478 0.984 . S
N472 H479 0.984 . S
N473 C466 1.356 . S
N473 H476 0.984 . S
N473 H477 0.985 . S
H474 N469 0.984 1_655 S
H475 N469 0.985 . S
H476 N473 0.984 . S
H477 N473 0.985 . S
H478 N472 0.984 . S
H479 N472 0.984 . S
H480 N468 0.984 . S
H481 N468 0.985 . S
C482 C483 1.363 . S
C482 C488 1.379 . S
C482 N490 1.356 . S
C483 C482 1.363 . S
C483 C489 1.363 . S
C484 C485 1.363 . S
C484 C489 1.379 . S
C484 N491 1.356 . S
C485 C484 1.363 . S
C485 C488 1.363 . S
N486 C488 1.356 . S
N486 H498 0.984 . S
N486 H499 0.985 . S
N487 C489 1.356 1_565 S
N487 H492 0.984 . S
N487 H493 0.985 . S
C488 C482 1.379 . S
C488 C485 1.363 . S
C488 N486 1.356 . S
C489 C483 1.363 . S
C489 C484 1.379 . S
C489 N487 1.356 1_545 S
N490 C482 1.356 . S
N490 H496 0.984 . S
N490 H497 0.984 1_545 S
N491 C484 1.356 . S
N491 H494 0.984 . S
N491 H495 0.985 1_554 S
H492 N487 0.984 . S
H493 N487 0.985 . S
H494 N491 0.984 . S
H495 N491 0.985 1_556 S
H496 N490 0.984 . S
H497 N490 0.984 1_565 S
H498 N486 0.984 . S
H499 N486 0.985 . S
C500 C501 1.363 . S
C500 C506 1.379 . S
C500 N508 1.356 . S
C501 C500 1.363 . S
C501 C507 1.363 . S
C502 C503 1.363 . S
C502 C507 1.379 . S
C502 N509 1.356 . S
C503 C502 1.363 . S
C503 C506 1.363 . S
N504 C506 1.356 . S
N504 H516 0.984 . S
N504 H517 0.985 . S
N505 C507 1.356 . S
N505 H510 0.984 . S
N505 H511 0.985 . S
C506 C500 1.379 . S
C506 C503 1.363 . S
C506 N504 1.356 . S
C507 C501 1.363 . S
C507 C502 1.379 . S
C507 N505 1.356 . S
N508 C500 1.356 . S
N508 H514 0.984 . S
N508 H515 0.984 . S
N509 C502 1.356 . S
N509 H512 0.984 . S
N509 H513 0.985 . S
H510 N505 0.984 . S
H511 N505 0.985 . S
H512 N509 0.984 . S
H513 N509 0.985 . S
H514 N508 0.984 . S
H515 N508 0.984 . S
H516 N504 0.984 . S
H517 N504 0.985 . S
C518 C519 1.363 . S
C518 C524 1.379 . S
C518 N526 1.356 . S
C519 C518 1.363 . S
C519 C525 1.363 . S
C520 C521 1.363 . S
C520 C525 1.379 . S
C520 N527 1.356 . S
C521 C520 1.363 . S
C521 C524 1.363 . S
N522 C524 1.356 . S
N522 H534 0.984 . S
N522 H535 0.985 . S
N523 C525 1.356 . S
N523 H528 0.984 . S
N523 H529 0.985 . S
C524 C518 1.379 . S
C524 C521 1.363 . S
C524 N522 1.356 . S
C525 C519 1.363 . S
C525 C520 1.379 . S
C525 N523 1.356 . S
N526 C518 1.356 . S
N526 H532 0.984 . S
N526 H533 0.984 . S
N527 C520 1.356 . S
N527 H530 0.984 . S
N527 H531 0.985 . S
H528 N523 0.984 . S
H529 N523 0.985 . S
H530 N527 0.984 . S
H531 N527 0.985 . S
H532 N526 0.984 . S
H533 N526 0.984 . S
H534 N522 0.984 . S
H535 N522 0.985 . S
C536 C537 1.363 1_655 S
C536 C542 1.379 . S
C536 N544 1.356 . S
C537 C536 1.363 1_455 S
C537 C543 1.363 . S
C538 C539 1.363 . S
C538 C543 1.379 . S
C538 N545 1.356 . S
C539 C538 1.363 . S
C539 C542 1.363 1_455 S
N540 C542 1.356 . S
N540 H552 0.984 . S
N540 H553 0.985 . S
N541 C543 1.356 . S
N541 H546 0.984 . S
N541 H547 0.985 1_556 S
C542 C536 1.379 . S
C542 C539 1.363 1_655 S
C542 N540 1.356 . S
C543 C537 1.363 . S
C543 C538 1.379 . S
C543 N541 1.356 . S
N544 C536 1.356 . S
N544 H550 0.984 . S
N544 H551 0.984 . S
N545 C538 1.356 . S
N545 H548 0.984 . S
N545 H549 0.985 1_556 S
H546 N541 0.984 . S
H547 N541 0.985 1_554 S
H548 N545 0.984 . S
H549 N545 0.985 1_554 S
H550 N544 0.984 . S
H551 N544 0.984 . S
H552 N540 0.984 . S
H553 N540 0.985 . S
C554 C555 1.363 . S
C554 C560 1.379 . S
C554 N562 1.356 . S
C555 C554 1.363 . S
C555 C561 1.363 . S
C556 C557 1.363 . S
C556 C561 1.379 . S
C556 N563 1.356 1_556 S
C557 C556 1.363 . S
C557 C560 1.363 . S
N558 C560 1.356 . S
N558 H570 0.984 . S
N558 H571 0.985 . S
N559 C561 1.356 . S
N559 H564 0.984 . S
N559 H565 0.985 1_556 S
C560 C554 1.379 . S
C560 C557 1.363 . S
C560 N558 1.356 . S
C561 C555 1.363 . S
C561 C556 1.379 . S
C561 N559 1.356 . S
N562 C554 1.356 . S
N562 H568 0.984 . S
N562 H569 0.984 . S
N563 C556 1.356 1_554 S
N563 H566 0.984 1_554 S
N563 H567 0.985 . S
H564 N559 0.984 . S
H565 N559 0.985 1_554 S
H566 N563 0.984 1_556 S
H567 N563 0.985 . S
H568 N562 0.984 . S
H569 N562 0.984 . S
H570 N558 0.984 . S
H571 N558 0.985 . S
C572 C573 1.363 . S
C572 C578 1.379 . S
C572 N580 1.356 . S
C573 C572 1.363 . S
C573 C579 1.363 . S
C574 C575 1.363 . S
C574 C579 1.379 . S
C574 N581 1.356 . S
C575 C574 1.363 . S
C575 C578 1.363 . S
N576 C578 1.356 . S
N576 H588 0.984 . S
N576 H589 0.985 . S
N577 C579 1.356 . S
N577 H582 0.984 . S
N577 H583 0.985 1_556 S
C578 C572 1.379 . S
C578 C575 1.363 . S
C578 N576 1.356 . S
C579 C573 1.363 . S
C579 C574 1.379 . S
C579 N577 1.356 . S
N580 C572 1.356 . S
N580 H586 0.984 . S
N580 H587 0.984 . S
N581 C574 1.356 . S
N581 H584 0.984 . S
N581 H585 0.985 1_556 S
H582 N577 0.984 . S
H583 N577 0.985 1_554 S
H584 N581 0.984 . S
H585 N581 0.985 1_554 S
H586 N580 0.984 . S
H587 N580 0.984 . S
H588 N576 0.984 . S
H589 N576 0.985 . S
C590 C591 1.363 . S
C590 C596 1.379 . S
C590 N598 1.356 . S
C591 C590 1.363 . S
C591 C597 1.363 . S
C592 C593 1.363 . S
C592 C597 1.379 . S
C592 N599 1.356 . S
C593 C592 1.363 . S
C593 C596 1.363 . S
N594 C596 1.356 . S
N594 H606 0.984 1_556 S
N594 H607 0.985 . S
N595 C597 1.356 . S
N595 H600 0.984 . S
N595 H601 0.985 . S
C596 C590 1.379 . S
C596 C593 1.363 . S
C596 N594 1.356 . S
C597 C591 1.363 . S
C597 C592 1.379 . S
C597 N595 1.356 . S
N598 C590 1.356 . S
N598 H604 0.984 1_556 S
N598 H605 0.984 . S
N599 C592 1.356 . S
N599 H602 0.984 . S
N599 H603 0.985 . S
H600 N595 0.984 . S
H601 N595 0.985 . S
H602 N599 0.984 . S
H603 N599 0.985 . S
H604 N598 0.984 1_554 S
H605 N598 0.984 . S
H606 N594 0.984 1_554 S
H607 N594 0.985 . S
C608 C609 1.363 1_455 S
C608 C614 1.379 . S
C608 N616 1.356 . S
C609 C608 1.363 1_655 S
C609 C615 1.363 . S
C610 C611 1.363 . S
C610 C615 1.379 . S
C610 N617 1.356 . S
C611 C610 1.363 . S
C611 C614 1.363 1_655 S
N612 C614 1.356 . S
N612 H624 0.984 . S
N612 H625 0.985 . S
N613 C615 1.356 . S
N613 H618 0.984 . S
N613 H619 0.985 . S
C614 C608 1.379 . S
C614 C611 1.363 1_455 S
C614 N612 1.356 . S
C615 C609 1.363 . S
C615 C610 1.379 . S
C615 N613 1.356 . S
N616 C608 1.356 . S
N616 H622 0.984 . S
N616 H623 0.984 . S
N617 C610 1.356 . S
N617 H620 0.984 . S
N617 H621 0.985 . S
H618 N613 0.984 . S
H619 N613 0.985 . S
H620 N617 0.984 . S
H621 N617 0.985 . S
H622 N616 0.984 . S
H623 N616 0.984 . S
H624 N612 0.984 . S
H625 N612 0.985 . S
C626 C627 1.363 . S
C626 C632 1.379 . S
C626 N634 1.356 . S
C627 C626 1.363 . S
C627 C633 1.363 1_565 S
C628 C629 1.356 1_545 S
C628 C633 1.381 . S
C628 N635 1.360 . S
C629 C628 1.356 1_565 S
C629 C632 1.363 . S
N630 C632 1.356 . S
N630 H642 0.984 . S
N630 H643 0.985 . S
N631 C633 1.356 . S
N631 H636 0.984 . S
N631 H637 0.985 . S
C632 C626 1.379 . S
C632 C629 1.363 . S
C632 N630 1.356 . S
C633 C627 1.363 1_545 S
C633 C628 1.381 . S
C633 N631 1.356 . S
N634 C626 1.356 . S
N634 H640 0.984 . S
N634 H641 0.984 . S
N635 C628 1.360 . S
N635 H638 0.984 . S
N635 H639 0.985 . S
H636 N631 0.984 . S
H637 N631 0.985 . S
H638 N635 0.984 . S
H639 N635 0.985 . S
H640 N634 0.984 . S
H641 N634 0.984 . S
H642 N630 0.984 . S
H643 N630 0.985 . S
C644 C645 1.363 . S
C644 C650 1.379 . S
C644 N652 1.356 . S
C645 C644 1.363 . S
C645 C651 1.363 . S
C646 C647 1.363 . S
C646 C651 1.379 . S
C646 N653 1.356 . S
C647 C646 1.363 . S
C647 C650 1.363 . S
N648 C650 1.356 . S
N648 H660 0.984 . S
N648 H661 0.985 . S
N649 C651 1.356 . S
N649 H654 0.984 . S
N649 H655 0.985 . S
C650 C644 1.379 . S
C650 C647 1.363 . S
C650 N648 1.356 . S
C651 C645 1.363 . S
C651 C646 1.379 . S
C651 N649 1.356 . S
N652 C644 1.356 . S
N652 H658 0.984 . S
N652 H659 0.984 . S
N653 C646 1.356 . S
N653 H656 0.984 . S
N653 H657 0.985 . S
H654 N649 0.984 . S
H655 N649 0.985 . S
H656 N653 0.984 . S
H657 N653 0.985 . S
H658 N652 0.984 . S
H659 N652 0.984 . S
H660 N648 0.984 . S
H661 N648 0.985 . S
C662 C663 1.363 . S
C662 C668 1.379 . S
C662 N670 1.356 . S
C663 C662 1.363 . S
C663 C669 1.363 . S
C664 C665 1.363 . S
C664 C669 1.379 . S
C664 N671 1.356 . S
C665 C664 1.363 . S
C665 C668 1.363 . S
N666 C668 1.356 . S
N666 H678 0.984 . S
N666 H679 0.985 . S
N667 C669 1.356 . S
N667 H672 0.984 . S
N667 H673 0.985 . S
C668 C662 1.379 . S
C668 C665 1.363 . S
C668 N666 1.356 . S
C669 C663 1.363 . S
C669 C664 1.379 . S
C669 N667 1.356 . S
N670 C662 1.356 . S
N670 H676 0.984 . S
N670 H677 0.984 . S
N671 C664 1.356 . S
N671 H674 0.984 . S
N671 H675 0.985 . S
H672 N667 0.984 . S
H673 N667 0.985 . S
H674 N671 0.984 . S
H675 N671 0.985 . S
H676 N670 0.984 . S
H677 N670 0.984 . S
H678 N666 0.984 . S
H679 N666 0.985 . S
C249 C74 1.937 . S
C251 C90 2.133 1_545 S
C269 C130 2.148 . S
C267 C85 1.941 . S
C287 C170 2.155 . S
C285 C52 1.952 . S
C305 C210 2.141 1_455 S
C303 C63 1.945 . S
C323 C103 2.135 1_554 S
C321 C30 1.939 . S
C339 C41 1.961 . S
C341 C143 2.151 1_554 S
C357 C8 1.969 . S
C359 C183 2.154 1_554 S
C375 C19 1.945 1_655 S
C377 C223 2.142 1_654 S
C395 C114 0.829 . S
C393 C62 0.841 1_655 S
C413 C154 0.831 . S
C411 C73 0.845 1_565 S
C431 C194 0.822 . S
C429 C84 0.834 . S
C447 C51 0.831 . S
C449 C234 0.815 . S
C465 C18 0.810 . S
C467 C97 0.833 . S
C485 C137 0.831 . S
C483 C29 0.810 . S
C503 C177 0.822 . S
C501 C40 0.808 . S
C519 C7 0.804 . S
C521 C217 0.822 . S
C537 C60 1.923 . S
C539 C91 2.555 . S
C555 C71 1.890 . S
C557 C131 2.528 . S
C575 C171 2.518 . S
C573 C82 1.849 . S
C593 C211 2.549 . S
C591 C49 1.878 . S
C609 C16 2.024 1_655 S
C611 C110 2.563 . S
C629 C150 2.528 . S
C627 C27 1.994 1_565 S
C647 C190 2.519 . S
C645 C38 2.020 . S
C663 C5 2.045 . S
C665 C230 2.553 . S
