# Generated by pormake.
# Topology gar, (4,6)-cn, num edge types: 1
# Building blocks:
#     Node 0, Type 0, BuildingBlock: QUQFOY_clean_sbu_3, # of connection points: 4
#     Node 1, Type 0, BuildingBlock: QUQFOY_clean_sbu_3, # of connection points: 4
#     Node 2, Type 0, BuildingBlock: QUQFOY_clean_sbu_3, # of connection points: 4
#     Node 3, Type 0, BuildingBlock: QUQFOY_clean_sbu_3, # of connection points: 4
#     Node 4, Type 0, BuildingBlock: QUQFOY_clean_sbu_3, # of connection points: 4
#     Node 5, Type 0, BuildingBlock: QUQFOY_clean_sbu_3, # of connection points: 4
#     Node 6, Type 0, BuildingBlock: QUQFOY_clean_sbu_3, # of connection points: 4
#     Node 7, Type 0, BuildingBlock: QUQFOY_clean_sbu_3, # of connection points: 4
#     Node 8, Type 0, BuildingBlock: QUQFOY_clean_sbu_3, # of connection points: 4
#     Node 9, Type 0, BuildingBlock: QUQFOY_clean_sbu_3, # of connection points: 4
#     Node 10, Type 0, BuildingBlock: QUQFOY_clean_sbu_3, # of connection points: 4
#     Node 11, Type 0, BuildingBlock: QUQFOY_clean_sbu_3, # of connection points: 4
#     Node 12, Type 0, BuildingBlock: QUQFOY_clean_sbu_3, # of connection points: 4
#     Node 13, Type 0, BuildingBlock: QUQFOY_clean_sbu_3, # of connection points: 4
#     Node 14, Type 0, BuildingBlock: QUQFOY_clean_sbu_3, # of connection points: 4
#     Node 15, Type 0, BuildingBlock: QUQFOY_clean_sbu_3, # of connection points: 4
#     Node 16, Type 0, BuildingBlock: QUQFOY_clean_sbu_3, # of connection points: 4
#     Node 17, Type 0, BuildingBlock: QUQFOY_clean_sbu_3, # of connection points: 4
#     Node 18, Type 0, BuildingBlock: QUQFOY_clean_sbu_3, # of connection points: 4
#     Node 19, Type 0, BuildingBlock: QUQFOY_clean_sbu_3, # of connection points: 4
#     Node 20, Type 0, BuildingBlock: QUQFOY_clean_sbu_3, # of connection points: 4
#     Node 21, Type 0, BuildingBlock: QUQFOY_clean_sbu_3, # of connection points: 4
#     Node 22, Type 0, BuildingBlock: QUQFOY_clean_sbu_3, # of connection points: 4
#     Node 23, Type 0, BuildingBlock: QUQFOY_clean_sbu_3, # of connection points: 4
#     Node 24, Type 1, BuildingBlock: INOVEN_clean_sbu_0, # of connection points: 6
#     Node 25, Type 1, BuildingBlock: INOVEN_clean_sbu_0, # of connection points: 6
#     Node 26, Type 1, BuildingBlock: INOVEN_clean_sbu_0, # of connection points: 6
#     Node 27, Type 1, BuildingBlock: INOVEN_clean_sbu_0, # of connection points: 6
#     Node 28, Type 1, BuildingBlock: INOVEN_clean_sbu_0, # of connection points: 6
#     Node 29, Type 1, BuildingBlock: INOVEN_clean_sbu_0, # of connection points: 6
#     Node 30, Type 1, BuildingBlock: INOVEN_clean_sbu_0, # of connection points: 6
#     Node 31, Type 1, BuildingBlock: INOVEN_clean_sbu_0, # of connection points: 6
#     Node 32, Type 1, BuildingBlock: INOVEN_clean_sbu_0, # of connection points: 6
#     Node 33, Type 1, BuildingBlock: INOVEN_clean_sbu_0, # of connection points: 6
#     Node 34, Type 1, BuildingBlock: INOVEN_clean_sbu_0, # of connection points: 6
#     Node 35, Type 1, BuildingBlock: INOVEN_clean_sbu_0, # of connection points: 6
#     Node 36, Type 1, BuildingBlock: INOVEN_clean_sbu_0, # of connection points: 6
#     Node 37, Type 1, BuildingBlock: INOVEN_clean_sbu_0, # of connection points: 6
#     Node 38, Type 1, BuildingBlock: INOVEN_clean_sbu_0, # of connection points: 6
#     Node 39, Type 1, BuildingBlock: INOVEN_clean_sbu_0, # of connection points: 6
#     Edge 40, Type (0, 1), BuildingBlock: UVAHIK_clean_linker_0, # of connection points: 2
#     Edge 41, Type (0, 1), BuildingBlock: UVAHIK_clean_linker_0, # of connection points: 2
#     Edge 42, Type (0, 1), BuildingBlock: UVAHIK_clean_linker_0, # of connection points: 2
#     Edge 43, Type (0, 1), BuildingBlock: UVAHIK_clean_linker_0, # of connection points: 2
#     Edge 44, Type (0, 1), BuildingBlock: UVAHIK_clean_linker_0, # of connection points: 2
#     Edge 45, Type (0, 1), BuildingBlock: UVAHIK_clean_linker_0, # of connection points: 2
#     Edge 46, Type (0, 1), BuildingBlock: UVAHIK_clean_linker_0, # of connection points: 2
#     Edge 47, Type (0, 1), BuildingBlock: UVAHIK_clean_linker_0, # of connection points: 2
#     Edge 48, Type (0, 1), BuildingBlock: UVAHIK_clean_linker_0, # of connection points: 2
#     Edge 49, Type (0, 1), BuildingBlock: UVAHIK_clean_linker_0, # of connection points: 2
#     Edge 50, Type (0, 1), BuildingBlock: UVAHIK_clean_linker_0, # of connection points: 2
#     Edge 51, Type (0, 1), BuildingBlock: UVAHIK_clean_linker_0, # of connection points: 2
#     Edge 52, Type (0, 1), BuildingBlock: UVAHIK_clean_linker_0, # of connection points: 2
#     Edge 53, Type (0, 1), BuildingBlock: UVAHIK_clean_linker_0, # of connection points: 2
#     Edge 54, Type (0, 1), BuildingBlock: UVAHIK_clean_linker_0, # of connection points: 2
#     Edge 55, Type (0, 1), BuildingBlock: UVAHIK_clean_linker_0, # of connection points: 2
#     Edge 56, Type (0, 1), BuildingBlock: UVAHIK_clean_linker_0, # of connection points: 2
#     Edge 57, Type (0, 1), BuildingBlock: UVAHIK_clean_linker_0, # of connection points: 2
#     Edge 58, Type (0, 1), BuildingBlock: UVAHIK_clean_linker_0, # of connection points: 2
#     Edge 59, Type (0, 1), BuildingBlock: UVAHIK_clean_linker_0, # of connection points: 2
#     Edge 60, Type (0, 1), BuildingBlock: UVAHIK_clean_linker_0, # of connection points: 2
#     Edge 61, Type (0, 1), BuildingBlock: UVAHIK_clean_linker_0, # of connection points: 2
#     Edge 62, Type (0, 1), BuildingBlock: UVAHIK_clean_linker_0, # of connection points: 2
#     Edge 63, Type (0, 1), BuildingBlock: UVAHIK_clean_linker_0, # of connection points: 2
#     Edge 64, Type (0, 1), BuildingBlock: UVAHIK_clean_linker_0, # of connection points: 2
#     Edge 65, Type (0, 1), BuildingBlock: UVAHIK_clean_linker_0, # of connection points: 2
#     Edge 66, Type (0, 1), BuildingBlock: UVAHIK_clean_linker_0, # of connection points: 2
#     Edge 67, Type (0, 1), BuildingBlock: UVAHIK_clean_linker_0, # of connection points: 2
#     Edge 68, Type (0, 1), BuildingBlock: UVAHIK_clean_linker_0, # of connection points: 2
#     Edge 69, Type (0, 1), BuildingBlock: UVAHIK_clean_linker_0, # of connection points: 2
#     Edge 70, Type (0, 1), BuildingBlock: UVAHIK_clean_linker_0, # of connection points: 2
#     Edge 71, Type (0, 1), BuildingBlock: UVAHIK_clean_linker_0, # of connection points: 2
#     Edge 72, Type (0, 1), BuildingBlock: UVAHIK_clean_linker_0, # of connection points: 2
#     Edge 73, Type (0, 1), BuildingBlock: UVAHIK_clean_linker_0, # of connection points: 2
#     Edge 74, Type (0, 1), BuildingBlock: UVAHIK_clean_linker_0, # of connection points: 2
#     Edge 75, Type (0, 1), BuildingBlock: UVAHIK_clean_linker_0, # of connection points: 2
#     Edge 76, Type (0, 1), BuildingBlock: UVAHIK_clean_linker_0, # of connection points: 2
#     Edge 77, Type (0, 1), BuildingBlock: UVAHIK_clean_linker_0, # of connection points: 2
#     Edge 78, Type (0, 1), BuildingBlock: UVAHIK_clean_linker_0, # of connection points: 2
#     Edge 79, Type (0, 1), BuildingBlock: UVAHIK_clean_linker_0, # of connection points: 2
#     Edge 80, Type (0, 1), BuildingBlock: UVAHIK_clean_linker_0, # of connection points: 2
#     Edge 81, Type (0, 1), BuildingBlock: UVAHIK_clean_linker_0, # of connection points: 2
#     Edge 82, Type (0, 1), BuildingBlock: UVAHIK_clean_linker_0, # of connection points: 2
#     Edge 83, Type (0, 1), BuildingBlock: UVAHIK_clean_linker_0, # of connection points: 2
#     Edge 84, Type (0, 1), BuildingBlock: UVAHIK_clean_linker_0, # of connection points: 2
#     Edge 85, Type (0, 1), BuildingBlock: UVAHIK_clean_linker_0, # of connection points: 2
#     Edge 86, Type (0, 1), BuildingBlock: UVAHIK_clean_linker_0, # of connection points: 2
#     Edge 87, Type (0, 1), BuildingBlock: UVAHIK_clean_linker_0, # of connection points: 2
#     Edge 88, Type (0, 1), BuildingBlock: UVAHIK_clean_linker_0, # of connection points: 2
#     Edge 89, Type (0, 1), BuildingBlock: UVAHIK_clean_linker_0, # of connection points: 2
#     Edge 90, Type (0, 1), BuildingBlock: UVAHIK_clean_linker_0, # of connection points: 2
#     Edge 91, Type (0, 1), BuildingBlock: UVAHIK_clean_linker_0, # of connection points: 2
#     Edge 92, Type (0, 1), BuildingBlock: UVAHIK_clean_linker_0, # of connection points: 2
#     Edge 93, Type (0, 1), BuildingBlock: UVAHIK_clean_linker_0, # of connection points: 2
#     Edge 94, Type (0, 1), BuildingBlock: UVAHIK_clean_linker_0, # of connection points: 2
#     Edge 95, Type (0, 1), BuildingBlock: UVAHIK_clean_linker_0, # of connection points: 2
#     Edge 96, Type (0, 1), BuildingBlock: UVAHIK_clean_linker_0, # of connection points: 2
#     Edge 97, Type (0, 1), BuildingBlock: UVAHIK_clean_linker_0, # of connection points: 2
#     Edge 98, Type (0, 1), BuildingBlock: UVAHIK_clean_linker_0, # of connection points: 2
#     Edge 99, Type (0, 1), BuildingBlock: UVAHIK_clean_linker_0, # of connection points: 2
#     Edge 100, Type (0, 1), BuildingBlock: UVAHIK_clean_linker_0, # of connection points: 2
#     Edge 101, Type (0, 1), BuildingBlock: UVAHIK_clean_linker_0, # of connection points: 2
#     Edge 102, Type (0, 1), BuildingBlock: UVAHIK_clean_linker_0, # of connection points: 2
#     Edge 103, Type (0, 1), BuildingBlock: UVAHIK_clean_linker_0, # of connection points: 2
#     Edge 104, Type (0, 1), BuildingBlock: UVAHIK_clean_linker_0, # of connection points: 2
#     Edge 105, Type (0, 1), BuildingBlock: UVAHIK_clean_linker_0, # of connection points: 2
#     Edge 106, Type (0, 1), BuildingBlock: UVAHIK_clean_linker_0, # of connection points: 2
#     Edge 107, Type (0, 1), BuildingBlock: UVAHIK_clean_linker_0, # of connection points: 2
#     Edge 108, Type (0, 1), BuildingBlock: UVAHIK_clean_linker_0, # of connection points: 2
#     Edge 109, Type (0, 1), BuildingBlock: UVAHIK_clean_linker_0, # of connection points: 2
#     Edge 110, Type (0, 1), BuildingBlock: UVAHIK_clean_linker_0, # of connection points: 2
#     Edge 111, Type (0, 1), BuildingBlock: UVAHIK_clean_linker_0, # of connection points: 2
#     Edge 112, Type (0, 1), BuildingBlock: UVAHIK_clean_linker_0, # of connection points: 2
#     Edge 113, Type (0, 1), BuildingBlock: UVAHIK_clean_linker_0, # of connection points: 2
#     Edge 114, Type (0, 1), BuildingBlock: UVAHIK_clean_linker_0, # of connection points: 2
#     Edge 115, Type (0, 1), BuildingBlock: UVAHIK_clean_linker_0, # of connection points: 2
#     Edge 116, Type (0, 1), BuildingBlock: UVAHIK_clean_linker_0, # of connection points: 2
#     Edge 117, Type (0, 1), BuildingBlock: UVAHIK_clean_linker_0, # of connection points: 2
#     Edge 118, Type (0, 1), BuildingBlock: UVAHIK_clean_linker_0, # of connection points: 2
#     Edge 119, Type (0, 1), BuildingBlock: UVAHIK_clean_linker_0, # of connection points: 2
#     Edge 120, Type (0, 1), BuildingBlock: UVAHIK_clean_linker_0, # of connection points: 2
#     Edge 121, Type (0, 1), BuildingBlock: UVAHIK_clean_linker_0, # of connection points: 2
#     Edge 122, Type (0, 1), BuildingBlock: UVAHIK_clean_linker_0, # of connection points: 2
#     Edge 123, Type (0, 1), BuildingBlock: UVAHIK_clean_linker_0, # of connection points: 2
#     Edge 124, Type (0, 1), BuildingBlock: UVAHIK_clean_linker_0, # of connection points: 2
#     Edge 125, Type (0, 1), BuildingBlock: UVAHIK_clean_linker_0, # of connection points: 2
#     Edge 126, Type (0, 1), BuildingBlock: UVAHIK_clean_linker_0, # of connection points: 2
#     Edge 127, Type (0, 1), BuildingBlock: UVAHIK_clean_linker_0, # of connection points: 2
#     Edge 128, Type (0, 1), BuildingBlock: UVAHIK_clean_linker_0, # of connection points: 2
#     Edge 129, Type (0, 1), BuildingBlock: UVAHIK_clean_linker_0, # of connection points: 2
#     Edge 130, Type (0, 1), BuildingBlock: UVAHIK_clean_linker_0, # of connection points: 2
#     Edge 131, Type (0, 1), BuildingBlock: UVAHIK_clean_linker_0, # of connection points: 2
#     Edge 132, Type (0, 1), BuildingBlock: UVAHIK_clean_linker_0, # of connection points: 2
#     Edge 133, Type (0, 1), BuildingBlock: UVAHIK_clean_linker_0, # of connection points: 2
#     Edge 134, Type (0, 1), BuildingBlock: UVAHIK_clean_linker_0, # of connection points: 2
#     Edge 135, Type (0, 1), BuildingBlock: UVAHIK_clean_linker_0, # of connection points: 2
# Relax obj value: 0.151
# Max RMSD: 0.292
# Mean RMSD: 0.147
data_MOF--net-gar--node1-QUQFOY_clean_sbu_3--node2-INOVEN_clean_sbu_0--edge1-UVAHIK_clean_linker_0
_symmetry_space_group_name_H-M    P1
_symmetry_Int_Tables_number       1
_symmetry_cell_setting            triclinic
loop_
_symmetry_equiv_pos_as_xyz
'x, y, z'
_cell_length_a     78.462448
_cell_length_b     74.108711
_cell_length_c     73.708546
_cell_angle_alpha  99.440541
_cell_angle_beta   94.777752
_cell_angle_gamma 102.91348
loop_
_atom_site_label
_atom_site_type_symbol
_atom_site_fract_x
_atom_site_fract_y
_atom_site_fract_z
_atom_type_partial_charge
C0 C 0.05373 0.30584 0.33962 0.0
O1 O 0.06416 0.31888 0.33389 0.0
Cd2 Cd 0.09396 0.33421 0.34618 0.0
O3 O 0.05836 0.29971 0.35402 0.0
Cd4 Cd 0.08414 0.30506 0.37786 0.0
C5 C 0.08752 0.3528 0.39013 0.0
O6 O 0.10222 0.30768 0.35444 0.0
O7 O 0.11671 0.3068 0.38014 0.0
O8 O 0.07214 0.2728 0.38168 0.0
C9 C 0.11692 0.30895 0.36344 0.0
O10 O 0.09208 0.35561 0.37444 0.0
C11 C 0.07363 0.27695 0.39927 0.0
O12 O 0.08363 0.33627 0.39377 0.0
O13 O 0.08042 0.29406 0.40674 0.0
C14 C 0.96626 0.73718 0.67734 0.0
O15 O 0.97827 0.73216 0.68648 0.0
Cd16 Cd 0.00826 0.7372 0.68134 0.0
O17 O 0.9697 0.74613 0.66418 0.0
Cd18 Cd 0.99596 0.75743 0.64888 0.0
C19 C 0.00035 0.71275 0.63668 0.0
O20 O 0.01638 0.7691 0.67701 0.0
O21 O 0.02813 0.76707 0.65161 0.0
O22 O 0.98792 0.78647 0.64389 0.0
C23 C 0.03009 0.77253 0.66903 0.0
O24 O 0.00667 0.71392 0.65343 0.0
C25 C 0.98916 0.78359 0.62662 0.0
O26 O 0.99484 0.72624 0.63157 0.0
O27 O 0.9925 0.76809 0.61972 0.0
C28 C 0.55378 0.80477 0.83842 0.0
O29 O 0.56338 0.81826 0.83249 0.0
Cd30 Cd 0.59265 0.83544 0.84507 0.0
O31 O 0.5592 0.79909 0.85278 0.0
Cd32 Cd 0.58536 0.80553 0.87625 0.0
C33 C 0.5846 0.85197 0.88915 0.0
O34 O 0.60335 0.81007 0.85287 0.0
O35 O 0.61828 0.81062 0.8788 0.0
O36 O 0.57491 0.77259 0.87835 0.0
C37 C 0.61824 0.81276 0.86208 0.0
O38 O 0.58911 0.85543 0.87361 0.0
C39 C 0.57666 0.77564 0.89597 0.0
O40 O 0.58198 0.83538 0.89264 0.0
O41 O 0.583 0.79256 0.90432 0.0
C42 C 0.47036 0.23748 0.17879 0.0
O43 O 0.48317 0.23291 0.18706 0.0
Cd44 Cd 0.51284 0.24014 0.18047 0.0
O45 O 0.47262 0.24659 0.16557 0.0
Cd46 Cd 0.49761 0.25896 0.14897 0.0
C47 C 0.50553 0.21593 0.13605 0.0
O48 O 0.51804 0.27223 0.17672 0.0
O49 O 0.52982 0.27124 0.1514 0.0
O50 O 0.48712 0.28651 0.14355 0.0
C51 C 0.53158 0.27688 0.1688 0.0
O52 O 0.51333 0.2178 0.15233 0.0
C53 C 0.48789 0.28341 0.1262 0.0
O54 O 0.49772 0.22821 0.13175 0.0
O55 O 0.49219 0.26843 0.11945 0.0
C56 C 0.04846 0.80148 0.15223 0.0
O57 O 0.05945 0.79497 0.16123 0.0
Cd58 Cd 0.08753 0.79169 0.15343 0.0
O59 O 0.05229 0.808 0.13766 0.0
Cd60 Cd 0.07828 0.8125 0.11925 0.0
C61 C 0.07364 0.765 0.1092 0.0
O62 O 0.10171 0.82016 0.14495 0.0
O63 O 0.11004 0.81261 0.11832 0.0
O64 O 0.07776 0.84505 0.11716 0.0
C65 C 0.11423 0.81797 0.1357 0.0
O66 O 0.08008 0.7669 0.12605 0.0
C67 C 0.07437 0.84233 0.09965 0.0
O68 O 0.07062 0.77913 0.10274 0.0
O69 O 0.07263 0.82558 0.09098 0.0
C70 C 0.47329 0.76689 0.37397 0.0
O71 O 0.48525 0.77877 0.36868 0.0
Cd72 Cd 0.5164 0.78435 0.37608 0.0
O73 O 0.47724 0.75658 0.38518 0.0
Cd74 Cd 0.50622 0.75585 0.40281 0.0
C75 C 0.5173 0.80292 0.42138 0.0
O76 O 0.5235 0.75486 0.3766 0.0
O77 O 0.53874 0.76178 0.40347 0.0
O78 O 0.49763 0.72172 0.40264 0.0
C79 C 0.53839 0.75765 0.38603 0.0
O80 O 0.52317 0.80523 0.40612 0.0
C81 C 0.50066 0.72302 0.42006 0.0
O82 O 0.50885 0.78671 0.4235 0.0
O83 O 0.50545 0.73961 0.42962 0.0
C84 C 0.54756 0.29735 0.64924 0.0
O85 O 0.55827 0.28952 0.65695 0.0
Cd86 Cd 0.58704 0.28839 0.64938 0.0
O87 O 0.55182 0.30597 0.63601 0.0
Cd88 Cd 0.57821 0.31217 0.61843 0.0
C89 C 0.57526 0.26539 0.60407 0.0
O90 O 0.60126 0.31866 0.64457 0.0
O91 O 0.61018 0.31294 0.61797 0.0
O92 O 0.57727 0.345 0.6176 0.0
C93 C 0.61406 0.3175 0.63543 0.0
O94 O 0.58227 0.26586 0.62041 0.0
C95 C 0.57442 0.34294 0.60008 0.0
O96 O 0.5708 0.27979 0.59963 0.0
O97 O 0.57319 0.3265 0.59092 0.0
C98 C 0.97324 0.26393 0.87167 0.0
O99 O 0.98502 0.27454 0.86482 0.0
Cd100 Cd 0.01622 0.28 0.87138 0.0
O101 O 0.97744 0.25486 0.88399 0.0
Cd102 Cd 0.00667 0.25412 0.90122 0.0
C103 C 0.01887 0.30198 0.91635 0.0
O104 O 0.02312 0.25091 0.87441 0.0
O105 O 0.03883 0.25794 0.90106 0.0
O106 O 0.99713 0.22044 0.90247 0.0
C107 C 0.03807 0.25328 0.88362 0.0
O108 O 0.02318 0.30274 0.90018 0.0
C109 C 0.00064 0.22232 0.9199 0.0
O110 O 0.01124 0.28629 0.9204 0.0
O111 O 0.00605 0.2391 0.92892 0.0
C112 C 0.46034 0.03729 0.30913 0.0
O113 O 0.46656 0.0284 0.29605 0.0
Cd114 Cd 0.45744 0.02172 0.26357 0.0
O115 O 0.44693 0.04391 0.30594 0.0
Cd116 Cd 0.42663 0.04413 0.27845 0.0
C117 C 0.41524 0.99636 0.26393 0.0
O118 O 0.44885 0.04911 0.25865 0.0
O119 O 0.42271 0.04428 0.24483 0.0
O120 O 0.42153 0.07518 0.28877 0.0
C121 C 0.43901 0.04649 0.24353 0.0
O122 O 0.43031 0.99712 0.25843 0.0
C123 C 0.40497 0.06902 0.28815 0.0
O124 O 0.41141 0.0109 0.27279 0.0
O125 O 0.39886 0.05128 0.28402 0.0
C126 C 0.29984 0.149 0.49792 0.0
O127 O 0.28831 0.14137 0.50725 0.0
Cd128 Cd 0.26042 0.14797 0.51092 0.0
O129 O 0.29695 0.16149 0.48879 0.0
Cd130 Cd 0.27218 0.17748 0.48337 0.0
C131 C 0.27462 0.19532 0.52949 0.0
O132 O 0.24833 0.14978 0.48084 0.0
O133 O 0.2401 0.17575 0.48286 0.0
O134 O 0.27397 0.17551 0.45012 0.0
C135 C 0.23578 0.15791 0.48077 0.0
O136 O 0.26797 0.17854 0.53139 0.0
C137 C 0.2784 0.19315 0.45062 0.0
O138 O 0.27813 0.19918 0.51378 0.0
O139 O 0.28036 0.2037 0.46646 0.0
C140 C 0.1344 0.01653 0.80343 0.0
O141 O 0.12623 0.02421 0.79249 0.0
Cd142 Cd 0.1341 0.03031 0.76257 0.0
O143 O 0.14765 0.01022 0.79794 0.0
Cd144 Cd 0.16344 0.00738 0.76537 0.0
C145 C 0.17683 0.05785 0.76816 0.0
O146 O 0.13588 1.00269 0.74118 0.0
O147 O 0.16057 0.01024 0.73091 0.0
O148 O 0.16578 0.97227 0.76392 0.0
C149 C 0.14389 0.00603 0.7273 0.0
O150 O 0.16028 0.05633 0.76532 0.0
C151 C 0.18243 0.97455 0.76487 0.0
O152 O 0.18246 0.04302 0.76984 0.0
O153 O 0.19064 0.99173 0.76616 0.0
C154 C 0.31354 0.95446 0.00483 0.0
O155 O 0.30316 0.96038 0.99442 0.0
Cd156 Cd 0.2741 0.94064 0.98437 0.0
O157 O 0.30834 0.93888 0.01012 0.0
Cd158 Cd 0.2833 0.9124 0.00954 0.0
C159 C 0.28393 0.89974 0.96368 0.0
O160 O 0.26368 0.93257 0.01273 0.0
O161 O 0.25101 0.90271 0.00805 0.0
O162 O 0.29619 0.91581 0.04115 0.0
C163 C 0.24984 0.91967 0.01184 0.0
O164 O 0.27879 0.91449 0.96159 0.0
C165 C 0.29653 0.89864 0.03997 0.0
O166 O 0.28671 0.89601 0.9797 0.0
O167 O 0.28981 0.88756 0.02475 0.0
C168 C 0.33347 0.42251 0.02168 0.0
O169 O 0.32316 0.4286 0.01134 0.0
Cd170 Cd 0.29176 0.41837 0.00657 0.0
O171 O 0.32741 0.40945 0.03042 0.0
Cd172 Cd 0.29734 0.38951 0.03164 0.0
C173 C 0.29006 0.37367 0.98516 0.0
O174 O 0.28206 0.415 0.03592 0.0
O175 O 0.26527 0.38698 0.02893 0.0
O176 O 0.30759 0.38821 0.0637 0.0
C177 C 0.26666 0.40448 0.03404 0.0
O178 O 0.28552 0.38896 0.9842 0.0
C179 C 0.30052 0.3708 0.06242 0.0
O180 O 0.29655 0.37073 1.00053 0.0
O181 O 0.29261 0.36195 0.04666 0.0
C182 C 0.80276 0.11686 0.02417 0.0
O183 O 0.78932 0.10739 0.02979 0.0
Cd184 Cd 0.76005 0.11168 0.02686 0.0
O185 O 0.80177 0.1308 0.01638 0.0
Cd186 Cd 0.77833 0.1466 0.00906 0.0
C187 C 0.76732 0.1557 0.05269 0.0
O188 O 0.75603 0.11796 0.99628 0.0
O189 O 0.74725 0.14371 0.99935 0.0
O190 O 0.78742 0.15562 0.98042 0.0
C191 C 0.74381 0.12611 0.99331 0.0
O192 O 0.75958 0.13836 0.05084 0.0
C193 C 0.78932 0.17313 0.98635 0.0
O194 O 0.77585 0.16175 0.0401 0.0
O195 O 0.7878 0.1782 0.00332 0.0
C196 C 0.12362 0.52907 0.2661 0.0
O197 O 0.11195 0.53038 0.25367 0.0
Cd198 Cd 0.11518 0.5255 0.22122 0.0
O199 O 0.13706 0.52323 0.26172 0.0
Cd200 Cd 0.1511 0.5121 0.23516 0.0
C201 C 0.15556 0.55721 0.22879 0.0
O202 O 0.12523 0.49739 0.21379 0.0
O203 O 0.14935 0.50253 0.20145 0.0
O204 O 0.15882 0.48742 0.24987 0.0
C205 C 0.13271 0.49647 0.19919 0.0
O206 O 0.13942 0.5531 0.22187 0.0
C207 C 0.17533 0.49366 0.2501 0.0
O208 O 0.16246 0.5451 0.23502 0.0
O209 O 0.18036 0.50801 0.24275 0.0
C210 C 0.83433 0.92111 0.52297 0.0
O211 O 0.82426 0.92736 0.51251 0.0
Cd212 Cd 0.79282 0.91874 0.50809 0.0
O213 O 0.82799 0.90853 0.53213 0.0
Cd214 Cd 0.79752 0.88967 0.53381 0.0
C215 C 0.78955 0.87344 0.48727 0.0
O216 O 0.78343 0.9161 0.53763 0.0
O217 O 0.7657 0.88861 0.53142 0.0
O218 O 0.8076 0.88829 0.56594 0.0
C219 C 0.76777 0.90628 0.53595 0.0
O220 O 0.78558 0.889 0.4862 0.0
C221 C 0.79997 0.87105 0.56481 0.0
O222 O 0.79594 0.87043 0.50266 0.0
O223 O 0.79182 0.86231 0.54911 0.0
C224 C 0.94543 0.04982 0.28905 0.0
O225 O 0.95177 0.03996 0.27685 0.0
Cd226 Cd 0.94202 0.03213 0.24419 0.0
O227 O 0.93326 0.05777 0.2836 0.0
Cd228 Cd 0.91586 0.05777 0.24924 0.0
C229 C 0.89974 0.0074 0.24557 0.0
O230 O 0.94224 0.05922 0.22965 0.0
O231 O 0.91723 0.0501 0.21331 0.0
O232 O 0.91391 0.09325 0.25696 0.0
C233 C 0.93386 0.05475 0.21339 0.0
O234 O 0.91512 0.00703 0.2415 0.0
C235 C 0.89742 0.09112 0.25255 0.0
O236 O 0.89591 0.02352 0.24976 0.0
O237 O 0.88921 0.07392 0.24696 0.0
C238 C 0.29921 0.60998 0.52178 0.0
O239 O 0.28552 0.60219 0.52822 0.0
Cd240 Cd 0.25947 0.61384 0.52909 0.0
O241 O 0.29973 0.62485 0.5151 0.0
Cd242 Cd 0.2794 0.64485 0.51031 0.0
C243 C 0.27478 0.6581 0.55491 0.0
O244 O 0.25193 0.62084 0.49927 0.0
O245 O 0.24994 0.64952 0.50776 0.0
O246 O 0.28598 0.64831 0.47939 0.0
C247 C 0.2426 0.6328 0.49969 0.0
O248 O 0.26486 0.64167 0.55349 0.0
C249 C 0.29012 0.66619 0.48304 0.0
O250 O 0.28307 0.66266 0.5416 0.0
O251 O 0.29121 0.674 0.49991 0.0
C252 C 0.44612 0.55028 0.78862 0.0
O253 O 0.45259 0.54059 0.77641 0.0
Cd254 Cd 0.44301 0.53288 0.74372 0.0
O255 O 0.4339 0.55817 0.78318 0.0
Cd256 Cd 0.4166 0.55837 0.74884 0.0
C257 C 0.40068 0.50797 0.7448 0.0
O258 O 0.44292 0.55992 0.72922 0.0
O259 O 0.41785 0.55072 0.71297 0.0
O260 O 0.41482 0.59388 0.75667 0.0
C261 C 0.43447 0.5554 0.713 0.0
O262 O 0.41614 0.50775 0.74086 0.0
C263 C 0.39836 0.59185 0.75219 0.0
O264 O 0.39672 0.52401 0.74903 0.0
O265 O 0.39007 0.57469 0.74654 0.0
C266 C 0.62384 0.03197 0.76718 0.0
O267 O 0.6122 0.03218 0.75419 0.0
Cd268 Cd 0.6154 0.02514 0.7219 0.0
O269 O 0.63744 0.02602 0.76367 0.0
Cd270 Cd 0.65163 0.01323 0.73788 0.0
C271 C 0.65546 0.05723 0.72828 0.0
O272 O 0.62582 0.9971 0.71714 0.0
O273 O 0.64975 1.00131 0.70448 0.0
O274 O 0.66014 0.99002 0.75426 0.0
C275 C 0.63313 0.99512 0.70251 0.0
O276 O 0.63935 0.05264 0.72117 0.0
C277 C 0.67656 0.99636 0.75397 0.0
O278 O 0.66243 0.04572 0.73551 0.0
O279 O 0.68116 0.01019 0.74581 0.0
C280 C 0.79668 0.64314 0.99441 0.0
O281 O 0.78393 0.63376 1.00109 0.0
Cd282 Cd 0.75657 0.64165 0.00496 0.0
O283 O 0.79518 0.65781 0.98802 0.0
Cd284 Cd 0.77146 0.67546 0.98415 0.0
C285 C 0.77265 0.6867 0.03077 0.0
O286 O 0.7455 0.64922 0.97695 0.0
O287 O 0.7404 0.67638 0.98632 0.0
O288 O 0.77376 0.6761 0.95149 0.0
C289 C 0.73428 0.65894 0.9799 0.0
O290 O 0.76467 0.66946 0.02933 0.0
C291 C 0.77876 0.69384 0.95317 0.0
O292 O 0.7776 0.69321 0.01656 0.0
O293 O 0.78096 0.70343 0.96953 0.0
C294 C 0.96391 0.54437 0.80255 0.0
O295 O 0.96955 0.53637 0.78846 0.0
Cd296 Cd 0.95569 0.52685 0.75703 0.0
O297 O 0.94909 0.54874 0.80112 0.0
Cd298 Cd 0.92466 0.54591 0.77654 0.0
C299 C 0.91751 0.49813 0.7659 0.0
O300 O 0.94146 0.55051 0.75141 0.0
O301 O 0.91347 0.54137 0.74367 0.0
O302 O 0.91909 0.57662 0.78691 0.0
C303 C 0.92866 0.54502 0.73853 0.0
O304 O 0.93139 0.50015 0.75783 0.0
C305 C 0.90307 0.57007 0.78891 0.0
O306 O 0.91309 0.51225 0.77489 0.0
O307 O 0.89758 0.55226 0.78627 0.0
C308 C 0.81782 0.45375 0.50506 0.0
O309 O 0.80827 0.46072 0.49478 0.0
Cd310 Cd 0.77831 0.44329 0.48512 0.0
O311 O 0.81139 0.43844 0.51034 0.0
Cd312 Cd 0.7848 0.41389 0.50992 0.0
C313 C 0.78503 0.40086 0.46409 0.0
O314 O 0.76713 0.43607 0.51345 0.0
O315 O 0.75245 0.4068 0.50789 0.0
O316 O 0.79705 0.41704 0.54165 0.0
C317 C 0.75259 0.42412 0.51228 0.0
O318 O 0.78106 0.41627 0.46221 0.0
C319 C 0.79647 0.39968 0.54075 0.0
O320 O 0.78737 0.3968 0.48004 0.0
O321 O 0.78947 0.38861 0.52562 0.0
C322 C 0.63469 0.51723 0.30292 0.0
O323 O 0.62715 0.52541 0.29195 0.0
Cd324 Cd 0.6346 0.53061 0.26169 0.0
O325 O 0.64753 0.51015 0.29744 0.0
Cd326 Cd 0.66346 0.50717 0.26493 0.0
C327 C 0.67749 0.55747 0.26681 0.0
O328 O 0.63589 0.50255 0.24077 0.0
O329 O 0.66052 0.5098 0.23036 0.0
O330 O 0.66571 0.47204 0.26353 0.0
C331 C 0.64384 0.50569 0.22682 0.0
O332 O 0.66099 0.55607 0.2636 0.0
C333 C 0.68237 0.4743 0.2645 0.0
O334 O 0.68289 0.54268 0.26924 0.0
O335 O 0.6906 0.49146 0.26579 0.0
Gd336 Gd 0.02137 0.02131 1.00035 0.0
Gd337 Gd 0.05556 0.04599 0.02153 0.0
C338 C 0.02945 0.06633 0.00164 0.0
C339 C 0.98848 0.00452 0.99279 0.0
C340 C 0.97343 0.01154 0.99843 0.0
C341 C 0.95622 1.00221 0.99053 0.0
C342 C 0.97659 0.02897 0.01049 0.0
C343 C 0.94563 0.02851 0.00569 0.0
C344 C 0.96281 0.0374 0.0141 0.0
C345 C 0.9423 0.01063 0.99425 0.0
C346 C 0.04596 0.02182 0.97528 0.0
C347 C 0.0476 1.00078 0.01985 0.0
C348 C 0.08852 0.06258 0.02959 0.0
C349 C 0.10372 0.05528 0.02492 0.0
C350 C 0.12058 0.06396 0.03422 0.0
C351 C 0.10082 0.03793 0.01281 0.0
C352 C 0.13123 0.03709 0.02039 0.0
C353 C 0.11445 0.02894 0.01048 0.0
C354 C 0.13432 0.05491 0.03195 0.0
C355 C 0.03078 0.04593 0.04641 0.0
O356 O 0.0173 0.05034 0.99915 0.0
O357 O 0.04572 0.06781 0.00892 0.0
O358 O 0.9972 0.01398 0.98159 0.0
O359 O 0.99875 1.00137 0.00626 0.0
O360 O 0.02966 0.01246 0.97219 0.0
O361 O 0.04872 0.03028 0.99228 0.0
O362 O 0.05944 0.01706 0.02351 0.0
O363 O 0.03158 0.99905 0.01173 0.0
O364 O 0.07938 0.05366 0.04085 0.0
O365 O 0.07864 0.0653 0.01558 0.0
O366 O 0.04699 0.05554 0.0494 0.0
O367 O 0.02811 0.03729 0.02947 0.0
H368 H 0.95366 0.98881 0.98105 0.0
H369 H 0.98985 0.03638 0.01661 0.0
H370 H 0.96563 0.05108 0.02314 0.0
H371 H 0.92911 1.0036 0.98759 0.0
H372 H 0.12293 0.07727 0.0438 0.0
H373 H 0.08773 0.03082 0.00592 0.0
H374 H 0.11152 0.01507 0.00179 0.0
H375 H 0.14717 0.06152 0.03968 0.0
Gd376 Gd 0.29066 0.76999 0.24064 0.0
Gd377 Gd 0.28204 0.78786 0.27931 0.0
C378 C 0.30454 0.81517 0.25636 0.0
C379 C 0.29892 0.76249 0.20765 0.0
C380 C 0.306 0.77485 0.19511 0.0
C381 C 0.3184 0.77007 0.18376 0.0
C382 C 0.30204 0.79249 0.19604 0.0
C383 C 0.32311 0.80069 0.17466 0.0
C384 C 0.31053 0.8053 0.18592 0.0
C385 C 0.32684 0.78288 0.17349 0.0
C386 C 0.30936 0.76479 0.27103 0.0
C387 C 0.26126 0.74545 0.25909 0.0
C388 C 0.28208 0.79574 0.31456 0.0
C389 C 0.27021 0.78784 0.32716 0.0
C390 C 0.26686 0.79952 0.34272 0.0
C391 C 0.26277 0.76839 0.32414 0.0
C392 C 0.25138 0.77192 0.35384 0.0
C393 C 0.25357 0.76049 0.33738 0.0
C394 C 0.25736 0.79163 0.35592 0.0
C395 C 0.25738 0.7905 0.2524 0.0
O396 O 0.30089 0.80112 0.24194 0.0
O397 O 0.30031 0.81306 0.27299 0.0
O398 O 0.30972 0.76379 0.22256 0.0
O399 O 0.2827 0.76206 0.21103 0.0
O400 O 0.30318 0.75168 0.25653 0.0
O401 O 0.30522 0.77981 0.26872 0.0
O402 O 0.26743 0.75713 0.27509 0.0
O403 O 0.26676 0.74855 0.2432 0.0
O404 O 0.27567 0.80519 0.30327 0.0
O405 O 0.2911 0.78441 0.30661 0.0
O406 O 0.25727 0.79643 0.26994 0.0
O407 O 0.27037 0.78333 0.25045 0.0
H408 H 0.32179 0.75661 0.18314 0.0
H409 H 0.2926 0.79651 0.20484 0.0
H410 H 0.30712 0.81877 0.18677 0.0
H411 H 0.33647 0.77901 0.16488 0.0
H412 H 0.27219 0.81463 0.34505 0.0
H413 H 0.26489 0.75911 0.31202 0.0
H414 H 0.24941 0.74528 0.33522 0.0
H415 H 0.25555 0.8009 0.36819 0.0
Gd416 Gd 0.55578 0.03442 0.52299 0.0
Gd417 Gd 0.51532 0.02845 0.5152 0.0
C418 C 0.53054 0.99162 0.51002 0.0
C419 C 0.58758 0.03389 0.5349 0.0
C420 C 0.60015 0.0218 0.53232 0.0
C421 C 0.61628 0.02889 0.52607 0.0
C422 C 0.59681 1.00377 0.53694 0.0
C423 C 0.62595 1.00059 0.52999 0.0
C424 C 0.60959 0.99328 0.5358 0.0
C425 C 0.629 0.01838 0.52483 0.0
C426 C 0.54332 0.03592 0.48841 0.0
C427 C 0.54071 0.07104 0.52773 0.0
C428 C 0.48342 0.02834 0.5029 0.0
C429 C 0.47122 0.04074 0.50212 0.0
C430 C 0.4533 0.03315 0.50273 0.0
C431 C 0.47689 0.05964 0.50022 0.0
C432 C 0.44657 0.06289 0.49879 0.0
C433 C 0.46464 0.07066 0.49862 0.0
C434 C 0.44111 0.04408 0.50111 0.0
C435 C 0.52796 0.02683 0.54983 0.0
O436 O 0.54609 1.00257 0.51769 0.0
O437 O 0.51691 0.99858 0.50572 0.0
O438 O 0.58383 0.04195 0.52105 0.0
O439 O 0.57389 0.02795 0.54326 0.0
O440 O 0.55842 0.04617 0.49675 0.0
O441 O 0.53628 0.02466 0.49818 0.0
O442 O 0.52553 0.06025 0.51881 0.0
O443 O 0.55357 0.06374 0.53365 0.0
O444 O 0.48774 0.02456 0.51914 0.0
O445 O 0.4966 0.03094 0.49305 0.0
O446 O 0.51296 0.01641 0.54138 0.0
O447 O 0.53483 0.03815 0.54001 0.0
H448 H 0.61917 0.04274 0.52243 0.0
H449 H 0.58449 0.9979 0.54181 0.0
H450 H 0.60685 0.97972 0.54005 0.0
H451 H 0.64131 0.02429 0.51998 0.0
H452 H 0.44869 0.01863 0.50428 0.0
H453 H 0.49069 0.06578 0.49975 0.0
H454 H 0.46924 0.08508 0.49681 0.0
H455 H 0.42736 0.03778 0.5017 0.0
Gd456 Gd 0.26791 0.28601 0.7559 0.0
Gd457 Gd 0.30832 0.28162 0.76047 0.0
C458 C 0.28933 0.29188 0.79688 0.0
C459 C 0.23398 0.27911 0.75426 0.0
C460 C 0.22018 0.27331 0.7661 0.0
C461 C 0.22141 0.28256 0.78459 0.0
C462 C 0.20496 0.25928 0.75846 0.0
C463 C 0.19179 0.26482 0.78711 0.0
C464 C 0.19095 0.25501 0.76886 0.0
C465 C 0.20736 0.27841 0.79494 0.0
C466 C 0.2917 0.31981 0.75543 0.0
C467 C 0.28678 0.27526 0.71923 0.0
C468 C 0.34244 0.28919 0.76342 0.0
C469 C 0.35696 0.28837 0.7521 0.0
C470 C 0.37324 0.28744 0.76073 0.0
C471 C 0.3551 0.2891 0.73312 0.0
C472 C 0.38608 0.28901 0.73188 0.0
C473 C 0.36955 0.28938 0.72308 0.0
C474 C 0.38763 0.28773 0.75076 0.0
C475 C 0.28461 0.24781 0.76105 0.0
O476 O 0.27386 0.28787 0.78653 0.0
O477 O 0.30441 0.29214 0.7899 0.0
O478 O 0.24444 0.29593 0.75979 0.0
O479 O 0.24219 0.26648 0.74733 0.0
O480 O 0.2747 0.31731 0.75394 0.0
O481 O 0.29467 0.30393 0.75701 0.0
O482 O 0.30197 0.27684 0.7295 0.0
O483 O 0.27211 0.27735 0.7262 0.0
O484 O 0.33275 0.2731 0.76567 0.0
O485 O 0.33325 0.30148 0.76093 0.0
O486 O 0.30161 0.25031 0.76199 0.0
O487 O 0.28149 0.26366 0.75955 0.0
H488 H 0.23302 0.29342 0.79092 0.0
H489 H 0.20374 0.25191 0.74427 0.0
H490 H 0.17935 0.24418 0.76247 0.0
H491 H 0.20849 0.28639 0.80886 0.0
H492 H 0.37489 0.28674 0.77533 0.0
H493 H 0.34259 0.28976 0.72618 0.0
H494 H 0.36792 0.29042 0.70858 0.0
H495 H 0.40004 0.28702 0.75788 0.0
Gd496 Gd 0.03904 0.04997 0.52082 0.0
Gd497 Gd 0.04179 0.01234 0.50199 0.0
C498 C 0.02433 0.03591 0.47572 0.0
C499 C 0.03985 0.08525 0.53074 0.0
C500 C 0.03746 0.10033 0.52091 0.0
C501 C 0.03121 0.11531 0.5298 0.0
C502 C 0.04129 0.09984 0.50262 0.0
C503 C 0.03346 0.12977 0.50246 0.0
C504 C 0.03936 0.11445 0.49349 0.0
C505 C 0.0292 0.12993 0.52065 0.0
C506 C 0.01321 0.02098 0.52571 0.0
C507 C 0.05681 0.02676 0.54688 0.0
C508 C 0.03949 0.97669 0.4926 0.0
C509 C 0.03747 0.96092 0.50265 0.0
C510 C 0.04685 0.96292 0.52024 0.0
C511 C 0.02473 0.94422 0.49528 0.0
C512 C 0.02994 0.93207 0.5234 0.0
C513 C 0.02097 0.92992 0.50557 0.0
C514 C 0.04315 0.94856 0.53051 0.0
C515 C 0.06733 0.04103 0.49627 0.0
O516 O 0.02942 0.05015 0.49019 0.0
O517 O 0.02659 0.019 0.47731 0.0
O518 O 0.02576 0.07181 0.53028 0.0
O519 O 0.05393 0.07896 0.52807 0.0
O520 O 0.02056 0.03532 0.53874 0.0
O521 O 0.01947 0.02305 0.51081 0.0
O522 O 0.05041 0.01223 0.53292 0.0
O523 O 0.0556 0.04388 0.54482 0.0
O524 O 0.05455 0.98932 0.49614 0.0
O525 O 0.02588 0.98411 0.49162 0.0
O526 O 0.06023 0.02615 0.48376 0.0
O527 O 0.06144 0.03943 0.51148 0.0
H528 H 0.02801 0.11577 0.54387 0.0
H529 H 0.04606 0.08832 0.49548 0.0
H530 H 0.04302 0.11401 0.47961 0.0
H531 H 0.02441 0.1414 0.52784 0.0
H532 H 0.05667 0.97574 0.52627 0.0
H533 H 0.01733 0.94247 0.48177 0.0
H534 H 0.0109 0.91724 0.49965 0.0
H535 H 0.05018 0.95065 0.54427 0.0
Gd536 Gd 0.30772 0.79767 0.75957 0.0
Gd537 Gd 0.27456 0.76988 0.76094 0.0
C538 C 0.30895 0.75258 0.75971 0.0
C539 C 0.3399 0.81688 0.76643 0.0
C540 C 0.35639 0.81046 0.76814 0.0
C541 C 0.36512 0.80678 0.75254 0.0
C542 C 0.36263 0.80631 0.78502 0.0
C543 C 0.38518 0.79369 0.77038 0.0
C544 C 0.37682 0.79795 0.7861 0.0
C545 C 0.37938 0.79844 0.75365 0.0
C546 C 0.28963 0.78168 0.72623 0.0
C547 C 0.27326 0.81499 0.76025 0.0
C548 C 0.2429 0.74891 0.75513 0.0
C549 C 0.22542 0.75273 0.755 0.0
C550 C 0.21114 0.73993 0.74372 0.0
C551 C 0.22324 0.76997 0.76443 0.0
C552 C 0.19302 0.76233 0.74982 0.0
C553 C 0.20708 0.77471 0.76192 0.0
C554 C 0.19502 0.7447 0.74114 0.0
C555 C 0.29292 0.78638 0.79422 0.0
O556 O 0.31777 0.77068 0.76261 0.0
O557 O 0.29146 0.74841 0.75685 0.0
O558 O 0.33102 0.8129 0.74985 0.0
O559 O 0.32977 0.81398 0.77945 0.0
O560 O 0.29805 0.79931 0.73047 0.0
O561 O 0.29191 0.77331 0.73946 0.0
O562 O 0.26442 0.79691 0.75812 0.0
O563 O 0.29079 0.8192 0.76254 0.0
O564 O 0.25259 0.753 0.77124 0.0
O565 O 0.25161 0.7544 0.74182 0.0
O566 O 0.28487 0.76866 0.79011 0.0
O567 O 0.29022 0.79437 0.78086 0.0
H568 H 0.36067 0.80988 0.73935 0.0
H569 H 0.35634 0.80912 0.79736 0.0
H570 H 0.38133 0.79493 0.79932 0.0
H571 H 0.38564 0.79538 0.74134 0.0
H572 H 0.21268 0.72661 0.73632 0.0
H573 H 0.23422 0.78007 0.7731 0.0
H574 H 0.20588 0.78844 0.76862 0.0
H575 H 0.18428 0.73488 0.73186 0.0
Gd576 Gd 0.53895 0.03638 0.0273 0.0
Gd577 Gd 0.52475 0.02433 0.98689 0.0
C578 C 0.49809 0.01271 0.01413 0.0
C579 C 0.54153 0.04633 0.06242 0.0
C580 C 0.53182 0.03479 0.07435 0.0
C581 C 0.53094 0.01532 0.07169 0.0
C582 C 0.52056 0.04223 0.08557 0.0
C583 C 0.50701 0.0108 0.09042 0.0
C584 C 0.50823 0.03032 0.09354 0.0
C585 C 0.51872 1.00345 0.07979 0.0
C586 C 0.54434 1.00318 0.01146 0.0
C587 C 0.56558 0.04772 0.99971 0.0
C588 C 0.52164 0.01405 0.95162 0.0
C589 C 0.5323 0.02357 0.93879 0.0
C590 C 0.52908 0.04016 0.9338 0.0
C591 C 0.54753 0.01795 0.93398 0.0
C592 C 0.55705 0.04635 0.92144 0.0
C593 C 0.55982 0.02928 0.92548 0.0
C594 C 0.54135 0.05145 0.9252 0.0
C595 C 0.52011 0.0579 0.00343 0.0
O596 O 0.50946 0.02534 0.02684 0.0
O597 O 0.50238 0.00703 0.99763 0.0
O598 O 0.55359 0.03954 0.05432 0.0
O599 O 0.53151 0.05269 0.05117 0.0
O600 O 0.55537 0.01512 0.02427 0.0
O601 O 0.53049 0.00868 0.00852 0.0
O602 O 0.55411 0.03516 0.98707 0.0
O603 O 0.56146 0.05347 0.01633 0.0
O604 O 0.51115 0.02331 0.95983 0.0
O605 O 0.53016 0.00628 0.96298 0.0
O606 O 0.50839 0.04599 0.99117 0.0
O607 O 0.53367 0.05184 0.0056 0.0
H608 H 0.53917 0.00907 0.06271 0.0
H609 H 0.5208 0.0571 0.08751 0.0
H610 H 0.49961 0.03639 0.10212 0.0
H611 H 0.51809 0.98848 0.07734 0.0
H612 H 0.51745 0.0449 0.93726 0.0
H613 H 0.55035 0.0052 0.93753 0.0
H614 H 0.5716 0.02475 0.92219 0.0
H615 H 0.53883 0.06444 0.92202 0.0
Gd616 Gd 0.30111 0.3009 0.26403 0.0
Gd617 Gd 0.27651 0.26323 0.24873 0.0
C618 C 0.2588 0.29508 0.26534 0.0
C619 C 0.31559 0.33652 0.27229 0.0
C620 C 0.3075 0.35258 0.27611 0.0
C621 C 0.31522 0.36781 0.29056 0.0
C622 C 0.29105 0.35186 0.26657 0.0
C623 C 0.28976 0.38101 0.28631 0.0
C624 C 0.28227 0.3659 0.27164 0.0
C625 C 0.30645 0.38203 0.29557 0.0
C626 C 0.29857 0.2768 0.28796 0.0
C627 C 0.31872 0.26853 0.24957 0.0
C628 C 0.26246 0.2276 0.24073 0.0
C629 C 0.27058 0.21249 0.24475 0.0
C630 C 0.26669 0.19499 0.2327 0.0
C631 C 0.28406 0.21652 0.25963 0.0
C632 C 0.29046 0.1862 0.24982 0.0
C633 C 0.29389 0.20351 0.26214 0.0
C634 C 0.27653 0.1818 0.2353 0.0
C635 C 0.27963 0.28743 0.22483 0.0
O636 O 0.2742 0.30684 0.26553 0.0
O637 O 0.25649 0.27671 0.26077 0.0
O638 O 0.31411 0.32563 0.28462 0.0
O639 O 0.31234 0.32702 0.25525 0.0
O640 O 0.31301 0.2888 0.28656 0.0
O641 O 0.28592 0.27871 0.27725 0.0
O642 O 0.30349 0.25724 0.251 0.0
O643 O 0.32075 0.2869 0.25161 0.0
O644 O 0.26986 0.237 0.22875 0.0
O645 O 0.25936 0.23856 0.25527 0.0
O646 O 0.26504 0.27558 0.22601 0.0
O647 O 0.29198 0.28517 0.23562 0.0
H648 H 0.32782 0.36848 0.29821 0.0
H649 H 0.28478 0.34024 0.25539 0.0
H650 H 0.26959 0.36496 0.26401 0.0
H651 H 0.31251 0.39357 0.30691 0.0
H652 H 0.25649 0.19179 0.221 0.0
H653 H 0.28742 0.23002 0.26899 0.0
H654 H 0.30438 0.20711 0.2736 0.0
H655 H 0.27369 0.1685 0.22564 0.0
Gd656 Gd 0.53875 0.54985 0.02042 0.0
Gd657 Gd 0.54185 0.51225 0.0018 0.0
C658 C 0.52456 0.53565 0.97524 0.0
C659 C 0.53905 0.58506 0.03008 0.0
C660 C 0.53764 0.60004 0.01974 0.0
C661 C 0.5324 0.61595 0.0281 0.0
C662 C 0.54133 0.59839 0.00133 0.0
C663 C 0.53487 0.6287 0.99979 0.0
C664 C 0.53994 0.61258 0.99144 0.0
C665 C 0.53106 0.63024 0.01822 0.0
C666 C 0.51317 0.52072 0.02557 0.0
C667 C 0.55642 0.52682 0.04674 0.0
C668 C 0.53962 0.47657 0.99299 0.0
C669 C 0.53561 0.46126 0.00344 0.0
C670 C 0.54088 0.44453 0.99812 0.0
C671 C 0.52637 0.46333 0.01884 0.0
C672 C 0.52731 0.43178 0.02333 0.0
C673 C 0.52217 0.4487 0.02862 0.0
C674 C 0.53679 0.42988 0.00801 0.0
C675 C 0.56748 0.54086 0.99601 0.0
O676 O 0.52955 0.54991 0.98968 0.0
O677 O 0.52682 0.51876 0.97691 0.0
O678 O 0.52482 0.5715 0.02842 0.0
O679 O 0.55335 0.57888 0.02889 0.0
O680 O 0.52039 0.53523 0.03846 0.0
O681 O 0.51939 0.52271 0.01064 0.0
O682 O 0.54996 0.51224 0.03285 0.0
O683 O 0.5553 0.54394 0.04456 0.0
O684 O 0.55461 0.48897 0.99863 0.0
O685 O 0.52655 0.48428 0.98945 0.0
O686 O 0.56083 0.52562 0.98381 0.0
O687 O 0.5613 0.53954 0.01112 0.0
H688 H 0.52941 0.61734 0.04228 0.0
H689 H 0.54549 0.58623 0.99467 0.0
H690 H 0.54327 0.61113 0.97739 0.0
H691 H 0.52703 0.64246 0.02495 0.0
H692 H 0.54813 0.4428 0.98633 0.0
H693 H 0.52222 0.47621 0.02319 0.0
H694 H 0.51461 0.45055 0.04014 0.0
H695 H 0.54116 0.41715 0.00374 0.0
Gd696 Gd 0.80667 0.29643 0.25884 0.0
Gd697 Gd 0.77341 0.26951 0.26222 0.0
C698 C 0.80733 0.25139 0.26059 0.0
C699 C 0.83905 0.31503 0.26396 0.0
C700 C 0.85543 0.30847 0.26553 0.0
C701 C 0.86607 0.30894 0.25114 0.0
C702 C 0.85986 0.30033 0.28065 0.0
C703 C 0.88501 0.29281 0.26673 0.0
C704 C 0.8745 0.29264 0.28125 0.0
C705 C 0.88069 0.30112 0.25169 0.0
C706 C 0.78726 0.27939 0.22633 0.0
C707 C 0.77282 0.31454 0.26003 0.0
C708 C 0.74112 0.25047 0.25781 0.0
C709 C 0.72455 0.25635 0.25532 0.0
C710 C 0.71052 0.24948 0.26487 0.0
C711 C 0.72302 0.26977 0.24425 0.0
C712 C 0.69357 0.26935 0.25224 0.0
C713 C 0.70768 0.27617 0.24269 0.0
C714 C 0.69511 0.2559 0.26333 0.0
C715 C 0.79319 0.28625 0.29463 0.0
O716 O 0.81633 0.26933 0.26229 0.0
O717 O 0.78981 0.24746 0.25886 0.0
O718 O 0.82971 0.31017 0.24761 0.0
O719 O 0.82939 0.31325 0.27753 0.0
O720 O 0.79603 0.29691 0.22959 0.0
O721 O 0.78993 0.27177 0.23999 0.0
O722 O 0.76383 0.29659 0.25839 0.0
O723 O 0.79033 0.31849 0.26188 0.0
O724 O 0.75035 0.2568 0.27413 0.0
O725 O 0.75076 0.25159 0.24419 0.0
O726 O 0.78478 0.2686 0.29101 0.0
O727 O 0.79018 0.29409 0.2812 0.0
H728 H 0.86289 0.31504 0.23928 0.0
H729 H 0.85193 0.29967 0.29198 0.0
H730 H 0.87769 0.28677 0.29326 0.0
H731 H 0.88849 0.3014 0.24024 0.0
H732 H 0.71156 0.23928 0.27364 0.0
H733 H 0.7337 0.2754 0.2368 0.0
H734 H 0.70679 0.28625 0.23377 0.0
H735 H 0.68447 0.25049 0.27092 0.0
Gd736 Gd 0.0426 0.53733 0.52956 0.0
Gd737 Gd 0.02661 0.52341 0.4895 0.0
C738 C 0.00316 0.50913 0.51841 0.0
C739 C 0.04633 0.54795 0.56482 0.0
C740 C 0.03444 0.5401 0.57759 0.0
C741 C 0.03876 0.52666 0.58738 0.0
C742 C 0.01748 0.54342 0.57758 0.0
C743 C 0.00887 0.51859 0.59516 0.0
C744 C 0.00484 0.53276 0.58625 0.0
C745 C 0.02607 0.51595 0.59605 0.0
C746 C 0.05197 0.50699 0.51225 0.0
C747 C 0.06545 0.55267 0.50024 0.0
C748 C 0.02339 0.51283 0.45435 0.0
C749 C 0.03464 0.52217 0.44185 0.0
C750 C 0.03387 0.54032 0.439 0.0
C751 C 0.04839 0.51454 0.43555 0.0
C752 C 0.06122 0.54358 0.42537 0.0
C753 C 0.06161 0.52518 0.42749 0.0
C754 C 0.04703 0.5509 0.43079 0.0
C755 C 0.01788 0.5543 0.50687 0.0
O756 O 0.01392 0.52308 0.53047 0.0
O757 O 0.007 0.50395 0.50157 0.0
O758 O 0.05495 0.53638 0.55664 0.0
O759 O 0.03988 0.55731 0.55344 0.0
O760 O 0.06281 0.52051 0.52392 0.0
O761 O 0.03673 0.50982 0.51083 0.0
O762 O 0.0548 0.53878 0.48808 0.0
O763 O 0.06216 0.55702 0.51746 0.0
O764 O 0.01302 0.52239 0.46241 0.0
O765 O 0.03146 0.50472 0.46575 0.0
O766 O 0.00673 0.54103 0.49521 0.0
O767 O 0.0328 0.55082 0.50808 0.0
H768 H 0.05172 0.52378 0.58759 0.0
H769 H 0.01367 0.55369 0.57022 0.0
H770 H 0.99185 0.53554 0.58587 0.0
H771 H 0.02958 0.50524 0.60297 0.0
H772 H 0.02353 0.54672 0.44378 0.0
H773 H 0.04936 0.50064 0.43761 0.0
H774 H 0.07217 0.51901 0.42293 0.0
H775 H 0.04636 0.56499 0.42913 0.0
Gd776 Gd 0.76827 0.78499 0.25718 0.0
Gd777 Gd 0.80931 0.78228 0.26262 0.0
C778 C 0.78974 0.79331 0.29866 0.0
C779 C 0.73433 0.77601 0.256 0.0
C780 C 0.72059 0.77923 0.26784 0.0
C781 C 0.70461 0.78157 0.25978 0.0
C782 C 0.72258 0.77828 0.28677 0.0
C783 C 0.69218 0.78029 0.28896 0.0
C784 C 0.70851 0.77874 0.29719 0.0
C785 C 0.69058 0.78219 0.27023 0.0
C786 C 0.79135 0.81971 0.25874 0.0
C787 C 0.78793 0.77407 0.22116 0.0
C788 C 0.84339 0.79122 0.26515 0.0
C789 C 0.8575 0.78981 0.2534 0.0
C790 C 0.87403 0.7892 0.26166 0.0
C791 C 0.85498 0.7898 0.2343 0.0
C792 C 0.88567 0.78908 0.232 0.0
C793 C 0.86897 0.78948 0.22369 0.0
C794 C 0.88798 0.78885 0.2511 0.0
C795 C 0.78631 0.74751 0.26124 0.0
O796 O 0.77448 0.79035 0.28812 0.0
O797 O 0.80475 0.79213 0.292 0.0
O798 O 0.74267 0.79018 0.24906 0.0
O799 O 0.74467 0.76587 0.2616 0.0
O800 O 0.77427 0.8168 0.25721 0.0
O801 O 0.79467 0.80388 0.25981 0.0
O802 O 0.80333 0.77775 0.23167 0.0
O803 O 0.77279 0.77445 0.2279 0.0
O804 O 0.83444 0.77552 0.2691 0.0
O805 O 0.8335 0.80256 0.26154 0.0
O806 O 0.80341 0.75074 0.26342 0.0
O807 O 0.78285 0.76321 0.25974 0.0
H808 H 0.70279 0.78239 0.24523 0.0
H809 H 0.7348 0.77651 0.29339 0.0
H810 H 0.71026 0.77708 0.3115 0.0
H811 H 0.67836 0.78384 0.2635 0.0
H812 H 0.87625 0.78931 0.27639 0.0
H813 H 0.84228 0.79025 0.22765 0.0
H814 H 0.86669 0.78948 0.209 0.0
H815 H 0.9007 0.78887 0.25804 0.0
Gd816 Gd 0.79137 0.27034 0.74025 0.0
Gd817 Gd 0.78206 0.28728 0.77882 0.0
C818 C 0.80608 0.31505 0.75733 0.0
C819 C 0.80016 0.26354 0.70741 0.0
C820 C 0.80784 0.27626 0.69543 0.0
C821 C 0.82023 0.27144 0.68409 0.0
C822 C 0.8043 0.29412 0.69677 0.0
C823 C 0.82555 0.30236 0.67558 0.0
C824 C 0.81309 0.30706 0.68695 0.0
C825 C 0.82898 0.28439 0.67413 0.0
C826 C 0.80936 0.26416 0.77062 0.0
C827 C 0.76125 0.24531 0.75759 0.0
C828 C 0.78186 0.29512 0.81403 0.0
C829 C 0.76974 0.28908 0.82723 0.0
C830 C 0.76593 0.30254 0.84098 0.0
C831 C 0.76292 0.26987 0.82705 0.0
C832 C 0.75162 0.27761 0.85635 0.0
C833 C 0.75408 0.26419 0.84152 0.0
C834 C 0.75675 0.29685 0.85533 0.0
C835 C 0.75795 0.29083 0.75182 0.0
O836 O 0.80241 0.3015 0.74248 0.0
O837 O 0.80128 0.31236 0.7736 0.0
O838 O 0.81058 0.2641 0.72238 0.0
O839 O 0.78392 0.26342 0.71053 0.0
O840 O 0.80335 0.2514 0.75581 0.0
O841 O 0.80541 0.27934 0.76859 0.0
O842 O 0.76712 0.25663 0.77385 0.0
O843 O 0.76721 0.24881 0.74199 0.0
O844 O 0.77678 0.30545 0.80282 0.0
O845 O 0.78943 0.28237 0.806 0.0
O846 O 0.75754 0.29623 0.76939 0.0
O847 O 0.77093 0.28363 0.74985 0.0
H848 H 0.82331 0.2578 0.68317 0.0
H849 H 0.79488 0.29818 0.70558 0.0
H850 H 0.80989 0.32065 0.68802 0.0
H851 H 0.83852 0.28043 0.66543 0.0
H852 H 0.77078 0.31745 0.84111 0.0
H853 H 0.76533 0.25917 0.81635 0.0
H854 H 0.75053 0.24925 0.84167 0.0
H855 H 0.75463 0.30758 0.86618 0.0
Gd856 Gd 0.80144 0.80256 0.76649 0.0
Gd857 Gd 0.77568 0.76515 0.7527 0.0
C858 C 0.7594 0.79863 0.76807 0.0
C859 C 0.81713 0.83789 0.77376 0.0
C860 C 0.80967 0.85447 0.77652 0.0
C861 C 0.81757 0.87005 0.79054 0.0
C862 C 0.79346 0.85391 0.76654 0.0
C863 C 0.79263 0.88378 0.78523 0.0
C864 C 0.78502 0.8684 0.77087 0.0
C865 C 0.80916 0.88472 0.7948 0.0
C866 C 0.79888 0.77924 0.79121 0.0
C867 C 0.81742 0.76903 0.75142 0.0
C868 C 0.76071 0.72971 0.74641 0.0
C869 C 0.76843 0.71445 0.75089 0.0
C870 C 0.76361 0.69647 0.73966 0.0
C871 C 0.7823 0.71862 0.76536 0.0
C872 C 0.78723 0.6874 0.75676 0.0
C873 C 0.79158 0.70523 0.76829 0.0
C874 C 0.77291 0.68292 0.74266 0.0
C875 C 0.77879 0.78837 0.72784 0.0
O876 O 0.77501 0.80972 0.76759 0.0
O877 O 0.75651 0.78014 0.7645 0.0
O878 O 0.81476 0.8276 0.78655 0.0
O879 O 0.81404 0.8278 0.75699 0.0
O880 O 0.81348 0.79054 0.78904 0.0
O881 O 0.78616 0.78136 0.78075 0.0
O882 O 0.80234 0.75833 0.75414 0.0
O883 O 0.81983 0.78741 0.75306 0.0
O884 O 0.76796 0.73823 0.73378 0.0
O885 O 0.75832 0.74149 0.76071 0.0
O886 O 0.76412 0.77688 0.72949 0.0
O887 O 0.79118 0.78611 0.73857 0.0
H888 H 0.82999 0.87061 0.79851 0.0
H889 H 0.78706 0.84203 0.75567 0.0
H890 H 0.77245 0.86751 0.76305 0.0
H891 H 0.81528 0.89647 0.80591 0.0
H892 H 0.75307 0.69312 0.72827 0.0
H893 H 0.7864 0.73248 0.77407 0.0
H894 H 0.80239 0.70895 0.77943 0.0
H895 H 0.76936 0.66924 0.73358 0.0
Gd896 Gd 0.52212 0.52157 0.49981 0.0
Gd897 Gd 0.55597 0.54694 0.52146 0.0
C898 C 0.52933 0.5664 0.50094 0.0
C899 C 0.48963 0.50333 0.49146 0.0
C900 C 0.47364 0.50881 0.49636 0.0
C901 C 0.45703 0.49792 0.48806 0.0
C902 C 0.47515 0.52611 0.50815 0.0
C903 C 0.4436 0.52235 0.50231 0.0
C904 C 0.46024 0.53282 0.51114 0.0
C905 C 0.44202 0.50463 0.4911 0.0
C906 C 0.54742 0.52264 0.47541 0.0
C907 C 0.54875 0.50187 0.52009 0.0
C908 C 0.58866 0.56458 0.52968 0.0
C909 C 0.60412 0.55796 0.52472 0.0
C910 C 0.62099 0.56718 0.53369 0.0
C911 C 0.60152 0.54071 0.51256 0.0
C912 C 0.6323 0.54091 0.51949 0.0
C913 C 0.61546 0.53226 0.5099 0.0
C914 C 0.63506 0.55871 0.53105 0.0
C915 C 0.53084 0.5465 0.54589 0.0
O916 O 0.51734 0.5503 0.49859 0.0
O917 O 0.54565 0.56816 0.50829 0.0
O918 O 0.4982 0.51345 0.48065 0.0
O919 O 0.49991 0.50081 0.50528 0.0
O920 O 0.53112 0.51338 0.4717 0.0
O921 O 0.54955 0.53098 0.4924 0.0
O922 O 0.56038 0.5183 0.52384 0.0
O923 O 0.53279 0.4998 0.51163 0.0
O924 O 0.57982 0.55509 0.54077 0.0
O925 O 0.57852 0.56719 0.51581 0.0
O926 O 0.54697 0.55633 0.54904 0.0
O927 O 0.52837 0.53772 0.52899 0.0
H928 H 0.45575 0.4846 0.4788 0.0
H929 H 0.48794 0.53472 0.51455 0.0
H930 H 0.46176 0.54641 0.52002 0.0
H931 H 0.42931 0.49637 0.48409 0.0
H932 H 0.62311 0.58045 0.54328 0.0
H933 H 0.58844 0.53326 0.50594 0.0
H934 H 0.61274 0.5184 0.50122 0.0
H935 H 0.64794 0.56574 0.53851 0.0
Gd936 Gd 0.05776 0.53459 0.01575 0.0
Gd937 Gd 0.01742 0.52874 0.00842 0.0
C938 C 0.03257 0.4921 0.00338 0.0
C939 C 0.0898 0.53417 0.02687 0.0
C940 C 0.10079 0.52074 0.02889 0.0
C941 C 0.09985 0.50498 0.01499 0.0
C942 C 0.11305 0.5243 0.04476 0.0
C943 C 0.12434 0.49739 0.03229 0.0
C944 C 0.12468 0.51274 0.04648 0.0
C945 C 0.11155 0.49342 0.01667 0.0
C946 C 0.04493 0.53713 0.9816 0.0
C947 C 0.043 0.57153 0.02112 0.0
C948 C 0.98564 0.52886 0.99599 0.0
C949 C 0.9728 0.54066 0.99708 0.0
C950 C 0.95496 0.53184 0.99651 0.0
C951 C 0.97779 0.56023 0.99783 0.0
C952 C 0.94697 0.56173 0.99632 0.0
C953 C 0.96496 0.5707 0.99749 0.0
C954 C 0.94219 0.54224 0.99616 0.0
C955 C 0.0301 0.52666 0.04288 0.0
O956 O 0.04755 0.50297 0.01257 0.0
O957 O 0.0196 0.49932 0.99757 0.0
O958 O 0.0845 0.53567 0.01 0.0
O959 O 0.0777 0.53462 0.03799 0.0
O960 O 0.05981 0.54764 0.99023 0.0
O961 O 0.03811 0.52529 0.99095 0.0
O962 O 0.02721 0.56072 0.01395 0.0
O963 O 0.05659 0.56443 0.02506 0.0
O964 O 0.98942 0.52219 0.0108 0.0
O965 O 0.99933 0.53419 0.9874 0.0
O966 O 0.015 0.51645 0.03447 0.0
O967 O 0.037 0.53809 0.03317 0.0
H968 H 0.09037 0.50186 0.00267 0.0
H969 H 0.11387 0.53629 0.0557 0.0
H970 H 0.13408 0.51596 0.05887 0.0
H971 H 0.11098 0.48177 0.00545 0.0
H972 H 0.95086 0.51678 0.99602 0.0
H973 H 0.99153 0.56735 0.99834 0.0
H974 H 0.96906 0.58568 0.9976 0.0
H975 H 0.9285 0.53497 0.99567 0.0
C976 C 0.99837 0.18776 0.91818 0.0
C977 C -0.0 0.20571 0.92898 0.0
C978 C -0.00011 0.17247 0.92655 0.0
C979 C 0.99735 0.15378 0.96978 0.0
H980 H 0.03094 0.1264 0.95103 0.0
C981 C 0.00735 0.08354 0.99075 0.0
C982 C 0.02498 0.08291 0.9952 0.0
C983 C 0.00336 0.09873 0.98356 0.0
C984 C 0.02152 0.13391 0.95643 0.0
H985 H 0.00372 0.22141 0.95713 0.0
H986 H 0.00598 0.1945 0.97178 0.0
H987 H 0.02501 0.15212 0.93657 0.0
H988 H 0.0522 0.09793 0.99576 0.0
H989 H 0.04521 0.1241 0.98295 0.0
H990 H 0.99381 0.13535 0.98958 0.0
C991 C 0.00366 0.19237 0.95681 0.0
C992 C 0.01803 0.14854 0.94806 0.0
C993 C 0.00241 0.20778 0.94841 0.0
C994 C 0.03848 0.09794 0.99255 0.0
C995 C 0.03449 0.11291 0.9851 0.0
C996 C 0.00062 0.13886 0.97796 0.0
C997 C 0.00281 0.17464 0.94595 0.0
C998 C 0.00599 0.15873 0.95469 0.0
C999 C 0.01691 0.11341 0.98036 0.0
C1000 C 0.01288 0.12889 0.97147 0.0
H1001 H 0.99654 0.18565 0.90318 0.0
H1002 H 0.99901 0.15894 0.91783 0.0
H1003 H 0.98796 0.16134 0.97514 0.0
H1004 H 0.99662 0.07223 0.99266 0.0
H1005 H 0.98968 0.09871 0.97998 0.0
C1006 C 0.13556 0.8236 0.16437 0.0
C1007 C 0.13155 0.81746 0.1451 0.0
C1008 C 0.15115 0.82176 0.17368 0.0
C1009 C 0.18441 0.79378 0.1705 0.0
H1010 H 0.20945 0.83265 0.21181 0.0
C1011 C 0.24549 0.78746 0.21876 0.0
C1012 C 0.24451 0.793 0.23774 0.0
C1013 C 0.23328 0.79083 0.2054 0.0
C1014 C 0.2026 0.82163 0.20033 0.0
H1015 H 0.14097 0.80483 0.12043 0.0
H1016 H 0.16832 0.80161 0.13678 0.0
H1017 H 0.18546 0.83842 0.19219 0.0
H1018 H 0.2299 0.80604 0.25761 0.0
H1019 H 0.20885 0.81179 0.23461 0.0
H1020 H 0.20141 0.77685 0.17905 0.0
C1021 C 0.1593 0.80778 0.14466 0.0
C1022 C 0.18883 0.82494 0.18909 0.0
C1023 C 0.1437 0.80975 0.13528 0.0
C1024 C 0.23109 0.8017 0.24309 0.0
C1025 C 0.21907 0.80513 0.22988 0.0
C1026 C 0.19826 0.79046 0.1818 0.0
C1027 C 0.16315 0.81365 0.164 0.0
C1028 C 0.17923 0.81088 0.17435 0.0
C1029 C 0.22007 0.79996 0.21088 0.0
C1030 C 0.20715 0.80417 0.19718 0.0
H1031 H 0.12649 0.82954 0.17236 0.0
H1032 H 0.15355 0.8262 0.18861 0.0
H1033 H 0.17724 0.78262 0.1593 0.0
H1034 H 0.25573 0.78075 0.21428 0.0
H1035 H 0.23437 0.78666 0.19084 0.0
C1036 C 0.53422 0.83484 0.43785 0.0
C1037 C 0.51935 0.81974 0.43603 0.0
C1038 C 0.53522 0.85189 0.44974 0.0
C1039 C 0.50757 0.88182 0.46596 0.0
H1040 H 0.54816 0.90975 0.50099 0.0
C1041 C 0.51208 0.9584 0.50192 0.0
C1042 C 0.52875 0.97103 0.50496 0.0
C1043 C 0.51038 0.93901 0.49648 0.0
C1044 C 0.5368 0.9023 0.4911 0.0
H1045 H 0.49404 0.81041 0.44556 0.0
H1046 H 0.49553 0.84062 0.46599 0.0
H1047 H 0.54656 0.87729 0.48638 0.0
H1048 H 0.55675 0.97322 0.50479 0.0
H1049 H 0.55381 0.93972 0.49446 0.0
H1050 H 0.49824 0.90695 0.4695 0.0
C1051 C 0.50652 0.83905 0.4584 0.0
C1052 C 0.53583 0.88361 0.4829 0.0
C1053 C 0.50572 0.82179 0.44683 0.0
C1054 C 0.5437 0.96385 0.50266 0.0
C1055 C 0.542 0.94453 0.49686 0.0
C1056 C 0.50868 0.90062 0.47385 0.0
C1057 C 0.52117 0.85433 0.45973 0.0
C1058 C 0.52131 0.87329 0.4701 0.0
C1059 C 0.52529 0.93179 0.49356 0.0
C1060 C 0.52344 0.91126 0.48634 0.0
H1061 H 0.54492 0.83363 0.42968 0.0
H1062 H 0.5466 0.86348 0.45041 0.0
H1063 H 0.49633 0.87423 0.45593 0.0
H1064 H 0.50031 0.96349 0.5038 0.0
H1065 H 0.49733 0.92973 0.49453 0.0
C1066 C 0.51855 0.30678 0.65001 0.0
C1067 C 0.53001 0.29612 0.65582 0.0
C1068 C 0.50231 0.30583 0.65696 0.0
C1069 C 0.48013 0.29306 0.69714 0.0
H1070 H 0.43737 0.29382 0.66717 0.0
C1071 C 0.41826 0.30184 0.73049 0.0
C1072 C 0.40186 0.29049 0.72176 0.0
C1073 C 0.43333 0.3028 0.72152 0.0
C1074 C 0.44918 0.29346 0.67569 0.0
H1075 H 0.53296 0.27552 0.67294 0.0
H1076 H 0.50481 0.27368 0.68469 0.0
H1077 H 0.46456 0.29446 0.65295 0.0
H1078 H 0.38845 0.27154 0.69651 0.0
H1079 H 0.41491 0.27314 0.68082 0.0
H1080 H 0.46485 0.29166 0.71975 0.0
C1081 C 0.50846 0.28315 0.67516 0.0
C1082 C 0.46481 0.29405 0.66759 0.0
C1083 C 0.52463 0.28416 0.66833 0.0
C1084 C 0.40086 0.28049 0.70359 0.0
C1085 C 0.41602 0.28143 0.69459 0.0
C1086 C 0.46459 0.29248 0.7052 0.0
C1087 C 0.49718 0.29417 0.66983 0.0
C1088 C 0.48048 0.29381 0.67823 0.0
C1089 C 0.43249 0.29242 0.70357 0.0
C1090 C 0.44891 0.29275 0.69463 0.0
H1091 H 0.52225 0.3161 0.64036 0.0
H1092 H 0.49399 0.31459 0.65263 0.0
H1093 H 0.49197 0.29311 0.70585 0.0
H1094 H 0.41945 0.31009 0.7443 0.0
H1095 H 0.44569 0.31176 0.7287 0.0
C1096 C 0.99083 0.79479 0.59655 0.0
C1097 C 0.98895 0.79841 0.61549 0.0
C1098 C 0.9937 0.80945 0.58662 0.0
C1099 C 0.9915 0.85873 0.58706 0.0
H1100 H 0.02942 0.85879 0.55645 0.0
C1101 C 0.00719 0.90945 0.53572 0.0
C1102 C 0.02503 0.91744 0.53477 0.0
C1103 C 0.00244 0.89553 0.54626 0.0
C1104 C 0.0189 0.85905 0.56505 0.0
H1105 H 0.98759 0.82005 0.63865 0.0
H1106 H 0.99265 0.84571 0.62126 0.0
H1107 H 0.02075 0.83308 0.57311 0.0
H1108 H 0.05189 0.91728 0.54423 0.0
H1109 H 0.04358 0.89291 0.56274 0.0
H1110 H 0.98984 0.88489 0.5791 0.0
C1111 C 0.99185 0.83151 0.6141 0.0
C1112 C 0.01377 0.8442 0.57439 0.0
C1113 C 0.98896 0.81682 0.62405 0.0
C1114 C 0.03804 0.91139 0.54475 0.0
C1115 C 0.03328 0.89737 0.55522 0.0
C1116 C 0.99658 0.87357 0.57762 0.0
C1117 C 0.99476 0.82804 0.59542 0.0
C1118 C -4e-05 0.84383 0.58543 0.0
C1119 C 0.01543 0.88924 0.55601 0.0
C1120 C 0.01032 0.87385 0.56649 0.0
H1121 H 0.99077 0.78073 0.58952 0.0
H1122 H 0.99553 0.80629 0.57214 0.0
H1123 H 0.9808 0.8588 0.59544 0.0
H1124 H 0.99688 0.91403 0.52837 0.0
H1125 H 0.98857 0.88942 0.54649 0.0
C1126 C 0.53028 0.80118 0.81218 0.0
C1127 C 0.53606 0.79556 0.82844 0.0
C1128 C 0.51333 0.79316 0.80311 0.0
C1129 C 0.46961 0.77241 0.81319 0.0
H1130 H 0.45843 0.76703 0.76001 0.0
C1131 C 0.4002 0.77065 0.78213 0.0
C1132 C 0.40038 0.78505 0.77182 0.0
C1133 C 0.41548 0.76453 0.78587 0.0
C1134 C 0.46134 0.76825 0.77486 0.0
H1135 H 0.52878 0.77656 0.84754 0.0
H1136 H 0.49901 0.76259 0.83164 0.0
H1137 H 0.48873 0.7699 0.77324 0.0
H1138 H 0.41624 0.80339 0.75629 0.0
H1139 H 0.44287 0.79278 0.76283 0.0
H1140 H 0.44249 0.77183 0.81496 0.0
C1141 C 0.50765 0.77328 0.82602 0.0
C1142 C 0.47865 0.76994 0.78242 0.0
C1143 C 0.52468 0.7813 0.83511 0.0
C1144 C 0.41569 0.79221 0.76418 0.0
C1145 C 0.43093 0.78606 0.76788 0.0
C1146 C 0.45231 0.77068 0.80562 0.0
C1147 C 0.50174 0.77933 0.81006 0.0
C1148 C 0.48308 0.77294 0.80174 0.0
C1149 C 0.43114 0.77265 0.77931 0.0
C1150 C 0.44818 0.76948 0.78648 0.0
H1151 H 0.53872 0.81207 0.80661 0.0
H1152 H 0.50907 0.7984 0.79106 0.0
H1153 H 0.47262 0.77483 0.82813 0.0
H1154 H 0.38842 0.76459 0.78782 0.0
H1155 H 0.41523 0.75401 0.79452 0.0
C1156 C 0.51741 0.18816 0.12457 0.0
C1157 C 0.50539 0.19925 0.12198 0.0
C1158 C 0.51734 0.17245 0.11122 0.0
C1159 C 0.50202 0.15093 0.06186 0.0
H1160 H 0.51397 0.10732 0.07748 0.0
C1161 C 0.50097 0.0796 0.01339 0.0
C1162 C 0.51716 0.07457 0.01534 0.0
C1163 C 0.49801 0.09474 0.02573 0.0
C1164 C 0.51056 0.11941 0.07298 0.0
H1165 H 0.48367 0.20243 0.10353 0.0
H1166 H 0.48317 0.17465 0.0805 0.0
H1167 H 0.51111 0.13355 0.10075 0.0
H1168 H 0.54313 0.08167 0.03112 0.0
H1169 H 0.53774 0.1077 0.05291 0.0
H1170 H 0.50126 0.13639 0.03399 0.0
C1171 C 0.49296 0.17835 0.0926 0.0
C1172 C 0.50906 0.13449 0.08626 0.0
C1173 C 0.4932 0.19422 0.10584 0.0
C1174 C 0.53046 0.08514 0.02943 0.0
C1175 C 0.52739 0.09997 0.04191 0.0
C1176 C 0.50325 0.13566 0.04855 0.0
C1177 C 0.50507 0.16729 0.0951 0.0
C1178 C 0.50517 0.15063 0.08089 0.0
C1179 C 0.5111 0.10476 0.04027 0.0
C1180 C 0.50791 0.12001 0.05406 0.0
H1181 H 0.52706 0.19177 0.13679 0.0
H1182 H 0.52713 0.16453 0.11343 0.0
H1183 H 0.49919 0.16319 0.05721 0.0
H1184 H 0.49055 0.07167 0.00257 0.0
H1185 H 0.48536 0.09829 0.02425 0.0
C1186 C 0.13283 0.32309 0.33959 0.0
C1187 C 0.13325 0.31445 0.35515 0.0
C1188 C 0.14756 0.32685 0.33034 0.0
C1189 C 0.19505 0.32765 0.33203 0.0
H1190 H 0.18257 0.31019 0.27896 0.0
C1191 C 0.22716 0.29086 0.26966 0.0
C1192 C 0.24421 0.3026 0.27216 0.0
C1193 C 0.21387 0.29683 0.27852 0.0
C1194 C 0.18625 0.31529 0.29372 0.0
H1195 H 0.14961 0.30386 0.37391 0.0
H1196 H 0.1754 0.30969 0.35717 0.0
H1197 H 0.1595 0.31238 0.2986 0.0
H1198 H 0.26053 0.33023 0.28502 0.0
H1199 H 0.23715 0.34064 0.30058 0.0
H1200 H 0.22182 0.32939 0.32708 0.0
C1201 C 0.16373 0.31394 0.35239 0.0
C1202 C 0.17307 0.31671 0.30499 0.0
C1203 C 0.14898 0.31046 0.36189 0.0
C1204 C 0.24749 0.32086 0.28284 0.0
C1205 C 0.23418 0.32679 0.29184 0.0
C1206 C 0.20828 0.3262 0.3207 0.0
C1207 C 0.16295 0.32168 0.3362 0.0
C1208 C 0.17728 0.32248 0.32431 0.0
C1209 C 0.21738 0.31462 0.2901 0.0
C1210 C 0.20392 0.31949 0.30152 0.0
H1211 H 0.12096 0.3266 0.33423 0.0
H1212 H 0.14669 0.33323 0.31819 0.0
H1213 H 0.19868 0.33233 0.34684 0.0
H1214 H 0.22422 0.27677 0.26143 0.0
H1215 H 0.20107 0.28709 0.27706 0.0
C1216 C 0.93349 0.04534 0.17788 0.0
C1217 C 0.94296 0.05351 0.19563 0.0
C1218 C 0.94198 0.04398 0.1615 0.0
C1219 C 0.98456 0.06403 0.14232 0.0
H1220 H 0.96822 0.02165 0.10156 0.0
C1221 C 0.02603 0.0562 0.07983 0.0
C1222 C 0.01879 0.04569 0.06197 0.0
C1223 C 0.01628 0.05667 0.09514 0.0
C1224 C 0.97303 0.03382 0.11257 0.0
H1225 H 0.96938 0.06666 0.20925 0.0
H1226 H 0.98398 0.06458 0.18115 0.0
H1227 H 0.95288 0.02341 0.12916 0.0
H1228 H 0.99474 0.02695 0.04706 0.0
H1229 H 0.97742 0.0282 0.07349 0.0
H1230 H 0.00429 0.07487 0.12586 0.0
C1231 C 0.96983 0.05918 0.17972 0.0
C1232 C 0.96408 0.03481 0.12869 0.0
C1233 C 0.96137 0.06032 0.1961 0.0
C1234 C 0.001 0.03548 0.06028 0.0
C1235 C 0.99103 0.03609 0.07576 0.0
C1236 C 0.99334 0.06317 0.1262 0.0
C1237 C 0.96041 0.05095 0.16192 0.0
C1238 C 0.96972 0.04987 0.14414 0.0
C1239 C 0.99841 0.04683 0.0937 0.0
C1240 C 0.98806 0.04792 0.11085 0.0
H1241 H 0.91936 0.03984 0.17659 0.0
H1242 H 0.93393 0.03767 0.14838 0.0
H1243 H 0.98937 0.07619 0.15334 0.0
H1244 H 0.03964 0.06416 0.0822 0.0
H1245 H 0.02316 0.06469 0.10831 0.0
C1246 C 0.28104 0.6679 0.45038 0.0
C1247 C 0.28922 0.67717 0.46819 0.0
C1248 C 0.2748 0.67797 0.43798 0.0
C1249 C 0.26034 0.72228 0.43929 0.0
H1250 H 0.25811 0.70975 0.38586 0.0
C1251 C 0.25538 0.7709 0.3876 0.0
C1252 C 0.24617 0.763 0.36984 0.0
C1253 C 0.25541 0.75993 0.40124 0.0
C1254 C 0.25828 0.71309 0.40076 0.0
H1255 H 0.29921 0.70444 0.4862 0.0
H1256 H 0.28915 0.72217 0.46419 0.0
H1257 H 0.2722 0.69217 0.40512 0.0
H1258 H 0.22725 0.73846 0.35366 0.0
H1259 H 0.22811 0.71901 0.37729 0.0
H1260 H 0.2473 0.74398 0.43478 0.0
C1261 C 0.28675 0.70701 0.46013 0.0
C1262 C 0.26645 0.70311 0.4118 0.0
C1263 C 0.29279 0.6969 0.47262 0.0
C1264 C 0.23504 0.74475 0.36694 0.0
C1265 C 0.2354 0.73364 0.38047 0.0
C1266 C 0.25239 0.73243 0.42823 0.0
C1267 C 0.27688 0.69754 0.44307 0.0
C1268 C 0.26787 0.70782 0.43122 0.0
C1269 C 0.24642 0.74086 0.39728 0.0
C1270 C 0.25153 0.72808 0.4089 0.0
H1271 H 0.27808 0.65268 0.44655 0.0
H1272 H 0.26731 0.6702 0.42496 0.0
H1273 H 0.26072 0.72589 0.45419 0.0
H1274 H 0.26411 0.78485 0.39049 0.0
H1275 H 0.264 0.76582 0.41413 0.0
C1276 C 0.63025 1.00085 0.67012 0.0
C1277 C 0.62266 0.99263 0.68434 0.0
C1278 C 0.61958 1.00249 0.65467 0.0
C1279 C 0.57811 0.98604 0.62553 0.0
H1280 H 0.57991 0.03871 0.62509 0.0
C1281 C 0.53029 0.00778 0.57444 0.0
C1282 C 0.53717 0.02352 0.5667 0.0
C1283 C 0.54 1.0036 0.58929 0.0
C1284 C 0.57941 0.02394 0.62475 0.0
H1285 H 0.59826 0.97826 0.69285 0.0
H1286 H 0.57965 0.98059 0.66536 0.0
H1287 H 0.59921 0.03032 0.64822 0.0
H1288 H 0.55897 0.04789 0.56896 0.0
H1289 H 0.57635 0.04015 0.59406 0.0
H1290 H 0.55887 0.97953 0.60166 0.0
C1291 C 0.59379 0.98598 0.66642 0.0
C1292 C 0.59042 0.01918 0.63806 0.0
C1293 C 0.60442 0.98466 0.68208 0.0
C1294 C 0.5535 0.03549 0.57454 0.0
C1295 C 0.56337 0.03114 0.58909 0.0
C1296 C 0.56734 0.99079 0.61191 0.0
C1297 C 0.60126 0.99555 0.65301 0.0
C1298 C 0.58986 1.00023 0.63852 0.0
C1299 C 0.55686 0.01498 0.59652 0.0
C1300 C 0.56786 0.00983 0.61134 0.0
H1301 H 0.64425 0.00718 0.67151 0.0
H1302 H 0.62554 0.00988 0.64438 0.0
H1303 H 0.5775 0.97133 0.62574 0.0
H1304 H 0.5176 0.99844 0.56876 0.0
H1305 H 0.53433 0.99134 0.59496 0.0
C1306 C 0.27602 0.35899 0.95294 0.0
C1307 C 0.28878 0.35993 0.96784 0.0
C1308 C 0.27592 0.34769 0.93579 0.0
C1309 C 0.30542 0.33111 0.90614 0.0
H1310 H 0.26291 0.29857 0.87719 0.0
C1311 C 0.30464 0.29713 0.82936 0.0
C1312 C 0.28962 0.29654 0.81726 0.0
C1313 C 0.3048 0.30186 0.84858 0.0
C1314 C 0.27489 0.30773 0.88499 0.0
H1315 H 0.3112 0.34948 0.97662 0.0
H1316 H 0.31132 0.33004 0.94627 0.0
H1317 H 0.26235 0.31202 0.90957 0.0
H1318 H 0.26299 0.30052 0.81592 0.0
H1319 H 0.26347 0.30933 0.84911 0.0
H1320 H 0.31776 0.32786 0.88142 0.0
C1321 C 0.30129 0.3379 0.94806 0.0
C1322 C 0.27457 0.31529 0.90358 0.0
C1323 C 0.30115 0.34891 0.9654 0.0
C1324 C 0.27476 0.30068 0.8248 0.0
C1325 C 0.27499 0.3056 0.84394 0.0
C1326 C 0.30569 0.3238 0.88745 0.0
C1327 C 0.28878 0.33739 0.93306 0.0
C1328 C 0.28974 0.32732 0.91422 0.0
C1329 C 0.29 0.30628 0.85613 0.0
C1330 C 0.29031 0.31235 0.8765 0.0
H1331 H 0.26632 0.36731 0.95445 0.0
H1332 H 0.26622 0.34766 0.92442 0.0
H1333 H 0.31726 0.34052 0.91402 0.0
H1334 H 0.31627 0.29388 0.82401 0.0
H1335 H 0.31652 0.30198 0.85751 0.0
C1336 C 0.95102 0.06397 0.32468 0.0
C1337 C 0.95207 0.05018 0.30935 0.0
C1338 C 0.95851 0.06371 0.34302 0.0
C1339 C 0.99004 0.0401 0.36846 0.0
H1340 H 0.97316 0.0615 0.41293 0.0
C1341 C 0.01299 0.0246 0.44112 0.0
C1342 C 0.01599 0.03881 0.45718 0.0
C1343 C 0.00531 0.02699 0.42383 0.0
C1344 C 0.97821 0.05551 0.40072 0.0
H1345 H 0.96141 0.02476 0.30236 0.0
H1346 H 0.97339 0.02394 0.33322 0.0
H1347 H 0.95968 0.06386 0.38243 0.0
H1348 H 0.01272 0.0669 0.46692 0.0
H1349 H 0.99918 0.07095 0.437 0.0
H1350 H 0.00835 0.03153 0.3866 0.0
C1351 C 0.96762 0.03559 0.33145 0.0
C1352 C 0.9704 0.05691 0.38298 0.0
C1353 C 0.96043 0.03597 0.31337 0.0
C1354 C 0.01076 0.05552 0.4551 0.0
C1355 C 0.00283 0.05782 0.43779 0.0
C1356 C 0.99764 0.03852 0.38607 0.0
C1357 C 0.96724 0.04958 0.34683 0.0
C1358 C 0.97597 0.04903 0.3663 0.0
C1359 C 1e-05 0.04363 0.42166 0.0
C1360 C 0.99188 0.04602 0.40269 0.0
H1361 H 0.94478 0.0752 0.3225 0.0
H1362 H 0.95773 0.07489 0.35413 0.0
H1363 H 0.99551 0.03434 0.35647 0.0
H1364 H 0.01666 0.01147 0.44182 0.0
H1365 H 0.00332 0.01549 0.41212 0.0
C1366 C 0.28267 0.69162 0.57174 0.0
C1367 C 0.27556 0.67242 0.57164 0.0
C1368 C 0.28208 0.70528 0.58701 0.0
C1369 C 0.25912 0.71233 0.62864 0.0
H1370 H 0.30013 0.75359 0.64675 0.0
C1371 C 0.27549 0.75222 0.70373 0.0
C1372 C 0.28323 0.77164 0.70714 0.0
C1373 C 0.27158 0.74204 0.68564 0.0
C1374 C 0.28844 0.74237 0.64164 0.0
H1375 H 0.26268 0.65246 0.58767 0.0
H1376 H 0.26215 0.6762 0.61449 0.0
H1377 H 0.29998 0.73172 0.61818 0.0
H1378 H 0.29203 0.79592 0.69442 0.0
H1379 H 0.28539 0.77798 0.66263 0.0
H1380 H 0.24796 0.72257 0.65265 0.0
C1381 C 0.26772 0.68077 0.60257 0.0
C1382 C 0.28835 0.72982 0.62529 0.0
C1383 C 0.26819 0.66714 0.58727 0.0
C1384 C 0.28614 0.78092 0.69213 0.0
C1385 C 0.2824 0.77068 0.67399 0.0
C1386 C 0.25927 0.7248 0.64506 0.0
C1387 C 0.27447 0.7 0.60254 0.0
C1388 C 0.27386 0.7144 0.61885 0.0
C1389 C 0.27549 0.75108 0.67064 0.0
C1390 C 0.27408 0.73968 0.65191 0.0
H1391 H 0.28832 0.69616 0.55984 0.0
H1392 H 0.28728 0.71998 0.58649 0.0
H1393 H 0.24758 0.70086 0.62379 0.0
H1394 H 0.27312 0.74474 0.71508 0.0
H1395 H 0.26642 0.72691 0.68346 0.0
C1396 C 0.63665 0.04285 0.80044 0.0
C1397 C 0.62265 0.04063 0.78639 0.0
C1398 C 0.6361 0.05215 0.81836 0.0
C1399 C 0.61185 0.08234 0.84599 0.0
H1400 H 0.61889 0.05228 0.88301 0.0
C1401 C 0.56498 0.06489 0.89678 0.0
C1402 C 0.57026 0.05827 0.91256 0.0
C1403 C 0.57748 0.07248 0.886 0.0
C1404 C 0.61741 0.06136 0.87317 0.0
H1405 H 0.59719 0.04662 0.78011 0.0
H1406 H 0.59597 0.06225 0.81149 0.0
H1407 H 0.62962 0.04576 0.85346 0.0
H1408 H 0.59268 0.05682 0.93101 0.0
H1409 H 0.61463 0.0701 0.91213 0.0
H1410 H 0.59841 0.09698 0.86536 0.0
C1411 C 0.60759 0.05725 0.80854 0.0
C1412 C 0.62352 0.05753 0.85611 0.0
C1413 C 0.60815 0.048 0.79062 0.0
C1414 C 0.58831 0.06136 0.91858 0.0
C1415 C 0.60085 0.06906 0.90786 0.0
C1416 C 0.60574 0.0862 0.86311 0.0
C1417 C 0.62154 0.05938 0.82261 0.0
C1418 C 0.61978 0.06715 0.84197 0.0
C1419 C 0.59546 0.07358 0.89086 0.0
C1420 C 0.6074 0.07486 0.87636 0.0
H1421 H 0.64813 0.03754 0.7976 0.0
H1422 H 0.64703 0.05359 0.82892 0.0
H1423 H 0.60926 0.09033 0.83546 0.0
H1424 H 0.55114 0.06274 0.89187 0.0
H1425 H 0.57282 0.07569 0.87293 0.0
C1426 C 0.31205 0.37012 0.09501 0.0
C1427 C 0.30044 0.3616 0.07879 0.0
C1428 C 0.31104 0.36205 0.1109 0.0
C1429 C 0.2906 0.31778 0.12732 0.0
H1430 H 0.29994 0.3511 0.17533 0.0
C1431 C 0.26878 0.29408 0.19437 0.0
C1432 C 0.28235 0.29736 0.20909 0.0
C1433 C 0.27168 0.30224 0.17875 0.0
C1434 C 0.29739 0.34166 0.162 0.0
H1435 H 0.27869 0.33793 0.06646 0.0
H1436 H 0.27639 0.32431 0.09421 0.0
H1437 H 0.30382 0.36437 0.14733 0.0
H1438 H 0.30944 0.31206 0.21919 0.0
H1439 H 0.31427 0.32698 0.19211 0.0
H1440 H 0.28341 0.29517 0.14214 0.0
C1441 C 0.28671 0.33686 0.09465 0.0
C1442 C 0.29973 0.34921 0.14592 0.0
C1443 C 0.28795 0.34473 0.07869 0.0
C1444 C 0.29871 0.30942 0.20813 0.0
C1445 C 0.30149 0.31791 0.19265 0.0
C1446 C 0.28793 0.3103 0.14336 0.0
C1447 C 0.29816 0.34545 0.11106 0.0
C1448 C 0.29631 0.33738 0.12831 0.0
C1449 C 0.28808 0.31414 0.17771 0.0
C1450 C 0.29125 0.32216 0.16082 0.0
H1451 H 0.32188 0.38308 0.09546 0.0
H1452 H 0.32036 0.3689 0.12306 0.0
H1453 H 0.28823 0.30812 0.11415 0.0
H1454 H 0.25604 0.28484 0.19471 0.0
H1455 H 0.2611 0.29923 0.16745 0.0
C1456 C 0.23216 0.93485 0.03267 0.0
C1457 C 0.23334 0.92475 0.01522 0.0
C1458 C 0.21883 0.94433 0.035 0.0
C1459 C 0.17843 0.95315 0.01158 0.0
H1460 H 0.19859 0.00423 0.03831 0.0
C1461 C 0.14657 0.01449 0.00358 0.0
C1462 C 0.14463 0.02587 0.02014 0.0
C1463 C 0.15696 1.00152 0.00385 0.0
C1464 C 0.19273 0.98997 0.03098 0.0
H1465 H 0.22136 0.91556 0.98674 0.0
H1466 H 0.19819 0.93261 0.99055 0.0
H1467 H 0.21583 0.98076 0.03807 0.0
H1468 H 0.15256 0.03309 0.04986 0.0
H1469 H 0.17108 0.01073 0.05022 0.0
H1470 H 0.1555 0.96275 0.00403 0.0
C1471 C 0.20719 0.93286 0.0026 0.0
C1472 C 0.20252 0.97646 0.03093 0.0
C1473 C 0.22041 0.92309 1.00037 0.0
C1474 C 0.15401 0.02472 0.03683 0.0
C1475 C 0.16449 0.01183 0.03708 0.0
C1476 C 0.16866 0.96675 0.01152 0.0
C1477 C 0.20678 0.94427 0.01976 0.0
C1478 C 0.19554 0.95792 0.02113 0.0
C1479 C 0.1657 0.99982 0.02065 0.0
C1480 C 0.17582 0.98531 0.02108 0.0
H1481 H 0.24216 0.93629 0.04424 0.0
H1482 H 0.21859 0.95262 0.04849 0.0
H1483 H 0.17264 0.93896 0.00404 0.0
H1484 H 0.13968 0.01526 0.99048 0.0
H1485 H 0.158 0.99267 0.99095 0.0
C1486 C 0.70834 0.63166 0.96891 0.0
C1487 C 0.71549 0.64972 0.97963 0.0
C1488 C 0.69098 0.62219 0.96976 0.0
C1489 C 0.65859 0.61672 0.00135 0.0
H1490 H 0.62483 0.59355 0.95777 0.0
C1491 C 0.58988 0.5714 0.00762 0.0
C1492 C 0.58294 0.55545 0.9937 0.0
C1493 C 0.60485 0.58487 0.00548 0.0
C1494 C 0.63414 0.59969 0.9701 0.0
H1495 H 0.71005 0.67216 0.99942 0.0
H1496 H 0.67978 0.65527 0.00131 0.0
H1497 H 0.65336 0.61328 0.95447 0.0
H1498 H 0.58614 0.54103 0.96662 0.0
H1499 H 0.61262 0.56384 0.96322 0.0
H1500 H 0.64004 0.60239 0.01696 0.0
C1501 C 0.6876 0.64863 0.9921 0.0
C1502 C 0.65042 0.61112 0.96817 0.0
C1503 C 0.70485 0.65829 0.99095 0.0
C1504 C 0.59116 0.55325 0.97756 0.0
C1505 C 0.60629 0.56649 0.97555 0.0
C1506 C 0.64247 0.60499 0.00327 0.0
C1507 C 0.68058 0.63044 0.98162 0.0
C1508 C 0.66283 0.61959 0.98376 0.0
C1509 C 0.61341 0.58249 0.9895 0.0
C1510 C 0.63007 0.59611 0.98763 0.0
H1511 H 0.71625 0.62475 0.96006 0.0
H1512 H 0.68589 0.60812 0.96164 0.0
H1513 H 0.66805 0.62296 0.01357 0.0
H1514 H 0.58385 0.57342 0.02024 0.0
H1515 H 0.6097 0.59712 0.0164 0.0
C1516 C 0.68198 0.43888 0.26234 0.0
C1517 C 0.69158 0.45783 0.26406 0.0
C1518 C 0.69041 0.42364 0.26185 0.0
C1519 C 0.73512 0.41062 0.25648 0.0
H1520 H 0.71219 0.36475 0.27194 0.0
C1521 C 0.77253 0.34971 0.26208 0.0
C1522 C 0.76317 0.33065 0.26019 0.0
C1523 C 0.76385 0.36473 0.26244 0.0
C1524 C 0.71893 0.37725 0.2673 0.0
H1525 H 0.71828 0.47479 0.26666 0.0
H1526 H 0.73283 0.44879 0.26606 0.0
H1527 H 0.69772 0.39069 0.27285 0.0
H1528 H 0.7366 0.31327 0.25723 0.0
H1529 H 0.72161 0.33897 0.25763 0.0
H1530 H 0.75632 0.39721 0.25092 0.0
C1531 C 0.71859 0.44541 0.26478 0.0
C1532 C 0.71044 0.39247 0.26783 0.0
C1533 C 0.71013 0.46064 0.26527 0.0
C1534 C 0.74457 0.3275 0.2587 0.0
C1535 C 0.73586 0.34255 0.25908 0.0
C1536 C 0.74361 0.39542 0.25597 0.0
C1537 C 0.70902 0.42637 0.26304 0.0
C1538 C 0.71826 0.4097 0.26246 0.0
C1539 C 0.74522 0.36169 0.26095 0.0
C1540 C 0.73582 0.37822 0.26139 0.0
H1541 H 0.66773 0.43571 0.26128 0.0
H1542 H 0.68211 0.40956 0.26023 0.0
H1543 H 0.74187 0.42309 0.25179 0.0
H1544 H 0.78679 0.35318 0.26339 0.0
H1545 H 0.772 0.3789 0.26423 0.0
C1546 C 0.84641 0.45604 0.52377 0.0
C1547 C 0.83668 0.46281 0.51065 0.0
C1548 C 0.86458 0.46303 0.52778 0.0
C1549 C 0.90276 0.48472 0.53836 0.0
H1550 H 0.92629 0.48632 0.49424 0.0
C1551 C 0.97825 0.51075 0.5371 0.0
C1552 C 0.98538 0.50112 0.5227 0.0
C1553 C 0.9602 0.5057 0.53836 0.0
C1554 C 0.9199 0.48579 0.50668 0.0
H1555 H 0.83818 0.48301 0.49226 0.0
H1556 H 0.87009 0.49528 0.49932 0.0
H1557 H 0.89439 0.4806 0.49146 0.0
H1558 H 0.97969 0.47743 0.49968 0.0
H1559 H 0.9483 0.46852 0.50205 0.0
H1560 H 0.92844 0.48951 0.55347 0.0
C1561 C 0.86359 0.48439 0.50631 0.0
C1562 C 0.90166 0.48285 0.50512 0.0
C1563 C 0.84535 0.47743 0.50233 0.0
C1564 C 0.97451 0.48531 0.51072 0.0
C1565 C 0.95653 0.48027 0.51201 0.0
C1566 C 0.9211 0.48775 0.53993 0.0
C1567 C 0.87341 0.47691 0.51874 0.0
C1568 C 0.89288 0.48207 0.5209 0.0
C1569 C 0.9491 0.49097 0.52526 0.0
C1570 C 0.92977 0.488 0.52403 0.0
H1571 H 0.84009 0.44489 0.53057 0.0
H1572 H 0.87179 0.45687 0.53728 0.0
H1573 H 0.89629 0.48427 0.55076 0.0
H1574 H 0.98632 0.52299 0.54655 0.0
H1575 H 0.9548 0.51413 0.54877 0.0
C1576 C 0.37475 0.07439 0.28811 0.0
C1577 C 0.39303 0.08181 0.28959 0.0
C1578 C 0.36314 0.08579 0.28567 0.0
C1579 C 0.35981 0.13499 0.28797 0.0
H1580 H 0.32237 0.11291 0.2473 0.0
C1581 C 0.32021 0.1801 0.25523 0.0
C1582 C 0.30183 0.17317 0.25216 0.0
C1583 C 0.33105 0.16853 0.25965 0.0
C1584 C 0.33263 0.11919 0.25881 0.0
H1585 H 0.41354 0.10725 0.29099 0.0
H1586 H 0.39323 0.12715 0.28664 0.0
H1587 H 0.34164 0.09389 0.25746 0.0
H1588 H 0.28034 0.1486 0.25039 0.0
H1589 H 0.29937 0.12822 0.25823 0.0
H1590 H 0.3509 0.16033 0.28922 0.0
C1591 C 0.38788 0.11254 0.28742 0.0
C1592 C 0.34362 0.1083 0.26468 0.0
C1593 C 0.39951 0.10114 0.2899 0.0
C1594 C 0.2945 0.1542 0.25267 0.0
C1595 C 0.30537 0.1426 0.25715 0.0
C1596 C 0.34882 0.14587 0.28211 0.0
C1597 C 0.36959 0.10481 0.28465 0.0
C1598 C 0.35737 0.11612 0.27926 0.0
C1599 C 0.32372 0.14981 0.26111 0.0
C1600 C 0.33519 0.13811 0.26739 0.0
H1601 H 0.36936 0.05957 0.28798 0.0
H1602 H 0.34909 0.07957 0.28396 0.0
H1603 H 0.37019 0.14131 0.29935 0.0
H1604 H 0.32617 0.19461 0.25455 0.0
H1605 H 0.34518 0.17432 0.26216 0.0
C1606 C 0.32867 0.14797 0.48532 0.0
C1607 C 0.31666 0.14297 0.49785 0.0
C1608 C 0.34394 0.14106 0.48486 0.0
C1609 C 0.36033 0.1011 0.49671 0.0
H1610 H 0.40663 0.13051 0.49169 0.0
C1611 C 0.41712 0.06558 0.48518 0.0
C1612 C 0.43324 0.07405 0.49637 0.0
C1613 C 0.40386 0.07527 0.48403 0.0
C1614 C 0.39378 0.12216 0.49315 0.0
H1615 H 0.3118 0.12765 0.52037 0.0
H1616 H 0.33823 0.11592 0.51965 0.0
H1617 H 0.38171 0.14546 0.49289 0.0
H1618 H 0.44835 0.0997 0.51449 0.0
H1619 H 0.42503 0.1167 0.51253 0.0
H1620 H 0.37222 0.07794 0.49733 0.0
C1621 C 0.33573 0.12475 0.50988 0.0
C1622 C 0.3795 0.13067 0.49367 0.0
C1623 C 0.32057 0.13156 0.51031 0.0
C1624 C 0.43609 0.09281 0.50572 0.0
C1625 C 0.42275 0.10255 0.50457 0.0
C1626 C 0.37449 0.09263 0.49612 0.0
C1627 C 0.34742 0.12907 0.49691 0.0
C1628 C 0.36264 0.12024 0.49562 0.0
C1629 C 0.40634 0.0937 0.49405 0.0
C1630 C 0.39139 0.10302 0.49436 0.0
H1631 H 0.32608 0.15679 0.47559 0.0
H1632 H 0.35269 0.1446 0.47469 0.0
H1633 H 0.34748 0.09259 0.49798 0.0
H1634 H 0.41466 0.05132 0.47742 0.0
H1635 H 0.39152 0.06821 0.47546 0.0
C1636 C 0.68234 0.59169 0.26319 0.0
C1637 C 0.68972 0.57673 0.26698 0.0
C1638 C 0.69284 0.60965 0.26263 0.0
C1639 C 0.7382 0.64196 0.27695 0.0
H1640 H 0.72206 0.67002 0.24184 0.0
C1641 C 0.78198 0.71436 0.26745 0.0
C1642 C 0.77433 0.72846 0.26194 0.0
C1643 C 0.77182 0.69623 0.2681 0.0
C1644 C 0.72678 0.66269 0.25199 0.0
H1645 H 0.71467 0.56983 0.27334 0.0
H1646 H 0.73309 0.60128 0.27247 0.0
H1647 H 0.70516 0.63842 0.24276 0.0
H1648 H 0.74943 0.73357 0.25215 0.0
H1649 H 0.73153 0.70232 0.25384 0.0
H1650 H 0.75971 0.66626 0.28635 0.0
C1651 C 0.71891 0.59896 0.26995 0.0
C1652 C 0.71698 0.64428 0.2525 0.0
C1653 C 0.7083 0.58075 0.2704 0.0
C1654 C 0.75592 0.72352 0.25693 0.0
C1655 C 0.74563 0.70526 0.25764 0.0
C1656 C 0.74797 0.66042 0.27651 0.0
C1657 C 0.71137 0.6138 0.26588 0.0
C1658 C 0.72241 0.63345 0.26502 0.0
C1659 C 0.75335 0.69115 0.26329 0.0
C1660 C 0.74253 0.67129 0.264 0.0
H1661 H 0.66819 0.5896 0.26051 0.0
H1662 H 0.68623 0.62045 0.25984 0.0
H1663 H 0.7429 0.63451 0.28702 0.0
H1664 H 0.79609 0.71729 0.27127 0.0
H1665 H 0.77867 0.68608 0.27211 0.0
C1666 C 0.8924 0.47575 0.77523 0.0
C1667 C 0.90583 0.47916 0.76389 0.0
C1668 C 0.88091 0.45796 0.77276 0.0
C1669 C 0.87653 0.40801 0.75197 0.0
H1670 H 0.82744 0.40381 0.75898 0.0
C1671 C 0.82543 0.33655 0.74052 0.0
C1672 C 0.81609 0.33394 0.75573 0.0
C1673 C 0.83545 0.35438 0.7395 0.0
C1674 C 0.84112 0.40483 0.75696 0.0
H1675 H 0.91765 0.46668 0.74092 0.0
H1676 H 0.89737 0.43581 0.73634 0.0
H1677 H 0.84704 0.4349 0.76113 0.0
H1678 H 0.80941 0.34801 0.78144 0.0
H1679 H 0.82683 0.37911 0.77956 0.0
H1680 H 0.8705 0.37789 0.74776 0.0
C1681 C 0.89595 0.44672 0.74743 0.0
C1682 C 0.85237 0.42259 0.7583 0.0
C1683 C 0.90755 0.46444 0.75003 0.0
C1684 C 0.81656 0.34955 0.76962 0.0
C1685 C 0.8264 0.36738 0.76847 0.0
C1686 C 0.86522 0.39025 0.75043 0.0
C1687 C 0.88248 0.44328 0.75875 0.0
C1688 C 0.87027 0.42439 0.75616 0.0
C1689 C 0.83608 0.3699 0.75353 0.0
C1690 C 0.84751 0.38855 0.75323 0.0
H1691 H 0.89078 0.4868 0.78607 0.0
H1692 H 0.8709 0.45569 0.78197 0.0
H1693 H 0.89029 0.4089 0.75047 0.0
H1694 H 0.82531 0.32477 0.72962 0.0
H1695 H 0.84276 0.35604 0.72779 0.0
C1696 C 0.06413 0.85446 0.07173 0.0
C1697 C 0.0726 0.85802 0.08999 0.0
C1698 C 0.06209 0.86941 0.06296 0.0
C1699 C 0.08071 0.91943 0.06296 0.0
H1700 H 0.03402 0.91986 0.04158 0.0
C1701 C 0.06575 0.98612 0.04017 0.0
C1702 C 0.05212 0.98401 0.02579 0.0
C1703 C 0.06892 0.9704 0.04691 0.0
C1704 C 0.04725 0.91989 0.04709 0.0
H1705 H 0.08589 0.88008 0.11317 0.0
H1706 H 0.08271 0.90609 0.09767 0.0
H1707 H 0.0384 0.89299 0.05484 0.0
H1708 H 0.03168 0.96361 0.0066 0.0
H1709 H 0.03771 0.9362 0.01762 0.0
H1710 H 0.08977 0.94602 0.05488 0.0
C1711 C 0.07753 0.89175 0.09022 0.0
C1712 C 0.04971 0.90446 0.05481 0.0
C1713 C 0.07926 0.87684 0.09912 0.0
C1714 C 0.04217 0.96576 0.01784 0.0
C1715 C 0.04555 0.95001 0.02432 0.0
C1716 C 0.07834 0.93472 0.05493 0.0
C1717 C 0.0688 0.88822 0.0721 0.0
C1718 C 0.06642 0.90415 0.06301 0.0
C1719 C 0.05875 0.95207 0.03922 0.0
C1720 C 0.06152 0.93532 0.04704 0.0
H1721 H 0.05884 0.84013 0.06434 0.0
H1722 H 0.05536 0.86627 0.04895 0.0
H1723 H 0.09378 0.91949 0.06903 0.0
H1724 H 0.07358 1.0 0.0467 0.0
H1725 H 0.07902 0.97277 0.05856 0.0
C1726 C 0.94168 0.24604 0.86113 0.0
C1727 C 0.95459 0.26312 0.86552 0.0
C1728 C 0.9247 0.24549 0.8529 0.0
C1729 C 0.90174 0.27442 0.82685 0.0
H1730 H 0.85929 0.2384 0.83258 0.0
C1731 C 0.83342 0.27937 0.79668 0.0
C1732 C 0.82339 0.26295 0.7848 0.0
C1733 C 0.84823 0.27876 0.80832 0.0
C1734 C 0.87107 0.24851 0.83087 0.0
H1735 H 0.9596 0.29315 0.8661 0.0
H1736 H 0.93003 0.29249 0.85297 0.0
H1737 H 0.88742 0.23872 0.84995 0.0
H1738 H 0.82033 0.23285 0.77661 0.0
H1739 H 0.84609 0.23174 0.7973 0.0
H1740 H 0.88536 0.28444 0.80811 0.0
C1741 C 0.933 0.27928 0.85483 0.0
C1742 C 0.88723 0.24865 0.84073 0.0
C1743 C 0.94996 0.27973 0.86257 0.0
C1744 C 0.82787 0.24573 0.78558 0.0
C1745 C 0.84256 0.24508 0.79745 0.0
C1746 C 0.88562 0.27448 0.81731 0.0
C1747 C 0.92025 0.2621 0.84924 0.0
C1748 C 0.90283 0.26167 0.8389 0.0
C1749 C 0.85317 0.26169 0.80855 0.0
C1750 C 0.8701 0.26157 0.8192 0.0
H1751 H 0.94495 0.23301 0.86321 0.0
H1752 H 0.91533 0.23196 0.84876 0.0
H1753 H 0.9134 0.28426 0.82447 0.0
H1754 H 0.83027 0.29284 0.79645 0.0
H1755 H 0.85607 0.29175 0.81686 0.0
C1756 C 0.58284 0.23505 0.59249 0.0
C1757 C 0.57202 0.24753 0.59052 0.0
C1758 C 0.57906 0.21729 0.58114 0.0
C1759 C 0.54231 0.18035 0.55658 0.0
H1760 H 0.5792 0.15818 0.53781 0.0
C1761 C 0.53023 0.10047 0.52554 0.0
C1762 C 0.54337 0.09183 0.53154 0.0
C1763 C 0.533 0.12015 0.52919 0.0
C1764 C 0.56874 0.16412 0.54301 0.0
H1765 H 0.54895 0.25139 0.57477 0.0
H1766 H 0.54203 0.21988 0.55504 0.0
H1767 H 0.58561 0.19194 0.55003 0.0
H1768 H 0.56978 0.09722 0.54603 0.0
H1769 H 0.57445 0.13121 0.55259 0.0
H1770 H 0.52565 0.15239 0.55041 0.0
C1771 C 0.55355 0.22405 0.56534 0.0
C1772 C 0.5724 0.18347 0.54991 0.0
C1773 C 0.55756 0.24207 0.57653 0.0
C1774 C 0.55935 0.10332 0.54116 0.0
C1775 C 0.56211 0.1229 0.54478 0.0
C1776 C 0.53866 0.16092 0.54977 0.0
C1777 C 0.56419 0.21143 0.56769 0.0
C1778 C 0.55939 0.1917 0.5573 0.0
C1779 C 0.54901 0.1316 0.53885 0.0
C1780 C 0.55201 0.15249 0.54347 0.0
H1781 H 0.59412 0.23889 0.60309 0.0
H1782 H 0.5874 0.20783 0.58344 0.0
H1783 H 0.53206 0.1863 0.56231 0.0
H1784 H 0.51779 0.09206 0.51803 0.0
H1785 H 0.52267 0.12639 0.52434 0.0
C1786 C 0.55371 0.75341 0.35772 0.0
C1787 C 0.55472 0.75906 0.37702 0.0
C1788 C 0.56899 0.75539 0.34898 0.0
C1789 C 0.61493 0.78275 0.35429 0.0
H1790 H 0.62006 0.74263 0.31574 0.0
C1791 C 0.67858 0.7865 0.31859 0.0
C1792 C 0.67663 0.77883 0.29953 0.0
C1793 C 0.66408 0.78417 0.3286 0.0
C1794 C 0.61877 0.7541 0.32629 0.0
H1795 H 0.57263 0.77111 0.4023 0.0
H1796 H 0.59937 0.7747 0.38697 0.0
H1797 H 0.59423 0.73813 0.33219 0.0
H1798 H 0.65767 0.76267 0.27617 0.0
H1799 H 0.63243 0.75931 0.29334 0.0
H1800 H 0.63928 0.79889 0.34815 0.0
C1801 C 0.5867 0.76877 0.37863 0.0
C1802 C 0.60397 0.75147 0.33578 0.0
C1803 C 0.5714 0.76661 0.38741 0.0
C1804 C 0.65972 0.76903 0.29073 0.0
C1805 C 0.64523 0.76681 0.30069 0.0
C1806 C 0.6297 0.78545 0.34469 0.0
C1807 C 0.58566 0.76322 0.3593 0.0
C1808 C 0.60181 0.7658 0.3498 0.0
C1809 C 0.64721 0.77416 0.31981 0.0
C1810 C 0.63175 0.77121 0.33045 0.0
H1811 H 0.54107 0.74755 0.34931 0.0
H1812 H 0.56771 0.75115 0.33406 0.0
H1813 H 0.61356 0.79413 0.3649 0.0
H1814 H 0.69134 0.79431 0.32582 0.0
H1815 H 0.66618 0.78992 0.34331 0.0
C1816 C 0.06949 0.26774 0.43001 0.0
C1817 C 0.06743 0.26269 0.41059 0.0
C1818 C 0.06352 0.25436 0.44078 0.0
C1819 C 0.03354 0.20788 0.439 0.0
H1820 H 0.06552 0.2058 0.48122 0.0
C1821 C 0.02743 0.14308 0.47408 0.0
C1822 C 0.03285 0.14598 0.49321 0.0
C1823 C 0.02909 0.15834 0.46494 0.0
C1824 C 0.05625 0.2064 0.46972 0.0
H1825 H 0.05729 0.23973 0.3872 0.0
H1826 H 0.04702 0.21627 0.40606 0.0
H1827 H 0.07363 0.23049 0.46333 0.0
H1828 H 0.04336 0.16726 0.51792 0.0
H1829 H 0.04572 0.19388 0.50207 0.0
H1830 H 0.01626 0.18356 0.44528 0.0
C1831 C 0.05309 0.23064 0.41292 0.0
C1832 C 0.06094 0.22052 0.45943 0.0
C1833 C 0.05912 0.24402 0.40214 0.0
C1834 C 0.03899 0.16452 0.50319 0.0
C1835 C 0.04055 0.17978 0.49407 0.0
C1836 C 0.0288 0.19375 0.44936 0.0
C1837 C 0.05533 0.23566 0.43236 0.0
C1838 C 0.04975 0.22128 0.44384 0.0
C1839 C 0.03612 0.17682 0.47476 0.0
C1840 C 0.04021 0.19273 0.4647 0.0
H1841 H 0.07574 0.28205 0.43693 0.0
H1842 H 0.06526 0.25867 0.45572 0.0
H1843 H 0.02454 0.20829 0.42719 0.0
H1844 H 0.02235 0.12897 0.46605 0.0
H1845 H 0.02562 0.15555 0.45004 0.0
C1846 C 0.5645 0.28442 0.17159 0.0
C1847 C 0.54902 0.28464 0.1798 0.0
C1848 C 0.58077 0.28897 0.18262 0.0
C1849 C 0.61481 0.30345 0.20883 0.0
H1850 H 0.61265 0.27657 0.24986 0.0
C1851 C 0.67756 0.29457 0.24881 0.0
C1852 C 0.67706 0.27566 0.24977 0.0
C1853 C 0.6621 0.29999 0.24408 0.0
C1854 C 0.61346 0.28428 0.23856 0.0
H1855 H 0.53852 0.29142 0.2057 0.0
H1856 H 0.56695 0.29959 0.22489 0.0
H1857 H 0.5855 0.27934 0.23331 0.0
H1858 H 0.6599 0.2478 0.24733 0.0
H1859 H 0.63295 0.25725 0.2392 0.0
H1860 H 0.64278 0.30732 0.2134 0.0
C1861 C 0.56649 0.29548 0.21002 0.0
C1862 C 0.59792 0.28606 0.22918 0.0
C1863 C 0.55023 0.29084 0.19903 0.0
C1864 C 0.6607 0.26251 0.24691 0.0
C1865 C 0.64526 0.26794 0.24226 0.0
C1866 C 0.63037 0.30168 0.21823 0.0
C1867 C 0.58184 0.29393 0.20201 0.0
C1868 C 0.59841 0.29513 0.21384 0.0
C1869 C 0.64585 0.28662 0.24035 0.0
C1870 C 0.62978 0.29152 0.23278 0.0
H1871 H 0.56396 0.27977 0.15679 0.0
H1872 H 0.59234 0.28748 0.17603 0.0
H1873 H 0.61559 0.3107 0.19719 0.0
H1874 H 0.68997 0.3051 0.25129 0.0
H1875 H 0.66289 0.31453 0.24292 0.0
C1876 C 0.58508 0.88592 0.90002 0.0
C1877 C 0.58192 0.86736 0.90324 0.0
C1878 C 0.58181 0.90026 0.91303 0.0
C1879 C 0.58245 0.92929 0.94751 0.0
H1880 H 0.53805 0.9193 0.96801 0.0
C1881 C 0.56512 0.98312 0.00386 0.0
C1882 C 0.54829 0.98642 1.00081 0.0
C1883 C 0.56944 0.96792 0.99305 0.0
C1884 C 0.55047 0.92227 0.96235 0.0
H1885 H 0.57325 0.84939 0.92288 0.0
H1886 H 0.56759 0.8745 0.94558 0.0
H1887 H 0.54576 0.89419 0.94688 0.0
H1888 H 0.52257 0.97631 0.98457 0.0
H1889 H 0.53015 0.94966 0.9655 0.0
H1890 H 0.587 0.95747 0.96265 0.0
C1891 C 0.57242 0.87786 0.93289 0.0
C1892 C 0.55496 0.90789 0.95043 0.0
C1893 C 0.57574 0.86352 0.91992 0.0
C1894 C 0.53566 0.97403 0.98713 0.0
C1895 C 0.53996 0.95877 0.97632 0.0
C1896 C 0.578 0.94364 0.95949 0.0
C1897 C 0.57527 0.89632 0.92949 0.0
C1898 C 0.57092 0.91132 0.94279 0.0
C1899 C 0.55697 0.95574 0.97904 0.0
C1900 C 0.56191 0.9403 0.96691 0.0
H1901 H 0.58986 0.88935 0.88733 0.0
H1902 H 0.58397 0.91436 0.91 0.0
H1903 H 0.59491 0.93225 0.94192 0.0
H1904 H 0.57508 0.99246 0.0144 0.0
H1905 H 0.58257 0.96575 0.99559 0.0
C1906 C 0.93537 0.74113 0.67518 0.0
C1907 C 0.94823 0.73289 0.68245 0.0
C1908 C 0.91886 0.73844 0.68145 0.0
C1909 C 0.89978 0.73046 0.72341 0.0
H1910 H 0.85651 0.73058 0.6939 0.0
C1911 C 0.82871 0.74027 0.74204 0.0
C1912 C 0.83146 0.76004 0.7454 0.0
C1913 C 0.8414 0.73178 0.73455 0.0
C1914 C 0.86841 0.7301 0.7022 0.0
H1915 H 0.95345 0.71422 0.70095 0.0
H1916 H 0.9246 0.70949 0.71179 0.0
H1917 H 0.88148 0.72389 0.67841 0.0
H1918 H 0.84986 0.78637 0.74416 0.0
H1919 H 0.87201 0.77142 0.73127 0.0
H1920 H 0.88698 0.73784 0.74715 0.0
C1921 C 0.9274 0.71828 0.7015 0.0
C1922 C 0.88269 0.72646 0.69341 0.0
C1923 C 0.94392 0.72103 0.69531 0.0
C1924 C 0.84734 0.77114 0.74174 0.0
C1925 C 0.85999 0.76265 0.73437 0.0
C1926 C 0.88553 0.73416 0.73216 0.0
C1927 C 0.9149 0.72737 0.69502 0.0
C1928 C 0.89871 0.72729 0.70395 0.0
C1929 C 0.85697 0.74298 0.73052 0.0
C1930 C 0.87002 0.73456 0.72158 0.0
H1931 H 0.93828 0.75027 0.66521 0.0
H1932 H 0.90956 0.74583 0.67637 0.0
H1933 H 0.91201 0.73142 0.73191 0.0
H1934 H 0.8166 0.73134 0.74473 0.0
H1935 H 0.83898 0.71655 0.73164 0.0
C1936 C 0.10925 0.01383 0.82332 0.0
C1937 C 0.12738 0.01512 0.82219 0.0
C1938 C 0.10206 0.01465 0.84033 0.0
C1939 C 0.11214 0.01577 0.89291 0.0
H1940 H 0.06765 0.03013 0.89352 0.0
C1941 C 0.07616 0.0303 0.9617 0.0
C1942 C 0.05771 0.02267 0.95955 0.0
C1943 C 0.08598 0.02985 0.94612 0.0
C1944 C 0.08003 0.02596 0.89379 0.0
H1945 H 0.15202 0.01823 0.8393 0.0
H1946 H 0.1397 0.02015 0.86906 0.0
H1947 H 0.08167 0.02857 0.8655 0.0
H1948 H 0.03561 0.00886 0.93847 0.0
H1949 H 0.05215 0.00866 0.91212 0.0
H1950 H 0.11043 0.01395 0.92181 0.0
C1951 C 0.13077 0.0181 0.8565 0.0
C1952 C 0.08821 0.02485 0.87733 0.0
C1953 C 0.13799 0.01695 0.83921 0.0
C1954 C 0.04968 0.01494 0.94114 0.0
C1955 C 0.05929 0.01486 0.92574 0.0
C1956 C 0.10401 0.0172 0.9096 0.0
C1957 C 0.11256 0.0173 0.85759 0.0
C1958 C 0.10436 0.01934 0.87614 0.0
C1959 C 0.07769 0.02224 0.92768 0.0
C1960 C 0.08756 0.02203 0.91036 0.0
H1961 H 0.10037 0.01225 0.81079 0.0
H1962 H 0.08799 0.01314 0.83969 0.0
H1963 H 0.12442 0.01145 0.89319 0.0
H1964 H 0.08307 0.03657 0.97536 0.0
H1965 H 0.10006 0.03584 0.94851 0.0
C1966 C 0.80636 0.37434 0.55405 0.0
C1967 C 0.80473 0.39302 0.5562 0.0
C1968 C 0.8152 0.36839 0.56828 0.0
C1969 C 0.82581 0.37816 0.61819 0.0
H1970 H 0.85502 0.34276 0.60767 0.0
C1971 C 0.83941 0.33512 0.67177 0.0
C1972 C 0.83377 0.31577 0.66424 0.0
C1973 C 0.84341 0.34819 0.66018 0.0
C1974 C 0.84704 0.35278 0.61087 0.0
H1975 H 0.81105 0.42015 0.57487 0.0
H1976 H 0.82628 0.4096 0.59985 0.0
H1977 H 0.84625 0.35902 0.5835 0.0
H1978 H 0.82949 0.29477 0.63905 0.0
H1979 H 0.8362 0.31745 0.61884 0.0
H1980 H 0.82552 0.3711 0.64506 0.0
C1981 C 0.82078 0.39963 0.58714 0.0
C1982 C 0.84199 0.36202 0.59705 0.0
C1983 C 0.81202 0.40562 0.57287 0.0
C1984 C 0.83385 0.3096 0.64522 0.0
C1985 C 0.83778 0.32265 0.63364 0.0
C1986 C 0.83077 0.36886 0.63196 0.0
C1987 C 0.8225 0.38098 0.58494 0.0
C1988 C 0.83072 0.37416 0.60038 0.0
C1989 C 0.84174 0.34209 0.64089 0.0
C1990 C 0.84078 0.35544 0.62818 0.0
H1991 H 0.80094 0.36435 0.54133 0.0
H1992 H 0.81603 0.35381 0.56638 0.0
H1993 H 0.81705 0.38739 0.62111 0.0
H1994 H 0.8398 0.34019 0.68648 0.0
H1995 H 0.84675 0.36308 0.66618 0.0
C1996 C 0.48382 0.03275 0.33162 0.0
C1997 C 0.46888 0.03979 0.32827 0.0
C1998 C 0.4919 0.03476 0.3496 0.0
C1999 C 0.48337 0.04094 0.39779 0.0
H2000 H 0.53438 0.05247 0.40746 0.0
C2001 C 0.54189 0.05358 0.46262 0.0
C2002 C 0.53497 0.03802 0.47059 0.0
C2003 C 0.53362 0.05581 0.44591 0.0
C2004 C 0.52014 0.04948 0.40505 0.0
H2005 H 0.45076 0.05459 0.3412 0.0
H2006 H 0.46503 0.05815 0.3728 0.0
H2007 H 0.52038 0.05356 0.37703 0.0
H2008 H 0.51435 0.0124 0.46744 0.0
H2009 H 0.49996 0.01618 0.43814 0.0
H2010 H 0.48315 0.0368 0.42583 0.0
C2011 C 0.47035 0.05098 0.3614 0.0
C2012 C 0.51213 0.04992 0.38759 0.0
C2013 C 0.46224 0.049 0.34334 0.0
C2014 C 0.5198 0.02463 0.46161 0.0
C2015 C 0.51152 0.02686 0.44493 0.0
C2016 C 0.49139 0.04049 0.41527 0.0
C2017 C 0.48526 0.04387 0.36466 0.0
C2018 C 0.49367 0.04531 0.3837 0.0
C2019 C 0.51834 0.04248 0.43694 0.0
C2020 C 0.50984 0.04444 0.41895 0.0
H2021 H 0.48926 0.02552 0.32036 0.0
H2022 H 0.50318 0.02883 0.35172 0.0
H2023 H 0.46911 0.03722 0.39512 0.0
H2024 H 0.55356 0.06412 0.46937 0.0
H2025 H 0.53909 0.06804 0.4401 0.0
C2026 C 0.77606 0.69022 0.06516 0.0
C2027 C 0.77641 0.69877 0.04947 0.0
C2028 C 0.77907 0.70107 0.08295 0.0
C2029 C 0.77544 0.74538 0.10976 0.0
H2030 H 0.80582 0.73247 0.14732 0.0
C2031 C 0.77187 0.76394 0.18875 0.0
C2032 C 0.78775 0.76891 0.20078 0.0
C2033 C 0.77177 0.75822 0.16965 0.0
C2034 C 0.79746 0.73646 0.137 0.0
H2035 H 0.7802 0.72552 0.04022 0.0
H2036 H 0.78521 0.74466 0.07167 0.0
H2037 H 0.804 0.7175 0.11502 0.0
H2038 H 0.8161 0.77244 0.20193 0.0
H2039 H 0.81586 0.76253 0.1688 0.0
H2040 H 0.76862 0.76406 0.13193 0.0
C2041 C 0.78268 0.72946 0.06998 0.0
C2042 C 0.79633 0.72778 0.11851 0.0
C2043 C 0.77991 0.71855 0.05204 0.0
C2044 C 0.80357 0.76855 0.19318 0.0
C2045 C 0.80346 0.76282 0.17414 0.0
C2046 C 0.77647 0.754 0.12836 0.0
C2047 C 0.78235 0.72077 0.0856 0.0
C2048 C 0.78508 0.73187 0.10474 0.0
C2049 C 0.78754 0.7573 0.16218 0.0
C2050 C 0.78731 0.74941 0.14222 0.0
H2051 H 0.77346 0.67504 0.06374 0.0
H2052 H 0.77851 0.69396 0.09469 0.0
H2053 H 0.76659 0.74871 0.09943 0.0
H2054 H 0.75944 0.7641 0.19408 0.0
H2055 H 0.75926 0.75388 0.16083 0.0
C2056 C 0.11601 1.00198 0.70428 0.0
C2057 C 0.13457 0.00717 0.70855 0.0
C2058 C 0.10755 1.00352 0.68695 0.0
C2059 C 0.11518 0.02755 0.64536 0.0
H2060 H 0.07205 0.99165 0.62199 0.0
C2061 C 0.07445 0.03953 0.57916 0.0
C2062 C 0.06546 0.02396 0.56531 0.0
C2063 C 0.08265 0.03721 0.59624 0.0
C2064 C 0.08414 1.00184 0.62814 0.0
H2065 H 0.15847 0.01817 0.69717 0.0
H2066 H 0.14396 0.02094 0.66746 0.0
H2067 H 0.08635 0.98812 0.65157 0.0
H2068 H 0.05824 0.99344 0.55945 0.0
H2069 H 0.07232 0.98937 0.58899 0.0
H2070 H 0.11305 0.04124 0.62197 0.0
C2071 C 0.13577 0.01571 0.67749 0.0
C2072 C 0.09235 0.9999 0.64543 0.0
C2073 C 0.14422 0.01398 0.69469 0.0
C2074 C 0.06497 0.0059 0.56948 0.0
C2075 C 0.07304 1.00356 0.58668 0.0
C2076 C 0.10688 0.0296 0.62821 0.0
C2077 C 0.11721 0.01056 0.67313 0.0
C2078 C 0.10813 0.01268 0.65448 0.0
C2079 C 0.08217 0.01917 0.6005 0.0
C2080 C 0.09115 0.0168 0.61909 0.0
H2081 H 0.10794 0.99673 0.71439 0.0
H2082 H 0.09329 0.99951 0.68458 0.0
H2083 H 0.12712 0.03793 0.65161 0.0
H2084 H 0.07526 0.05373 0.57681 0.0
H2085 H 0.08918 0.04974 0.60627 0.0
C2086 C 0.78956 0.36972 0.44926 0.0
C2087 C 0.78797 0.38798 0.44777 0.0
C2088 C 0.79332 0.35785 0.43418 0.0
C2089 C 0.81285 0.35826 0.39076 0.0
H2090 H 0.783 0.30775 0.37539 0.0
C2091 C 0.804 0.31667 0.31675 0.0
C2092 C 0.79939 0.2969 0.31356 0.0
C2093 C 0.8067 0.327 0.33476 0.0
C2094 C 0.79179 0.32162 0.37971 0.0
H2095 H 0.78905 0.40806 0.42929 0.0
H2096 H 0.79564 0.38727 0.40292 0.0
H2097 H 0.77901 0.32741 0.4038 0.0
H2098 H 0.7956 0.27237 0.32658 0.0
H2099 H 0.80071 0.29045 0.35822 0.0
H2100 H 0.8255 0.3526 0.36657 0.0
C2101 C 0.79407 0.38226 0.41583 0.0
C2102 C 0.7894 0.33292 0.39594 0.0
C2103 C 0.79012 0.39407 0.43085 0.0
C2104 C 0.79893 0.28762 0.3287 0.0
C2105 C 0.80175 0.29797 0.34678 0.0
C2106 C 0.81537 0.3469 0.37462 0.0
C2107 C 0.79576 0.36408 0.41739 0.0
C2108 C 0.79958 0.3515 0.40132 0.0
C2109 C 0.80499 0.31775 0.34996 0.0
C2110 C 0.80452 0.32863 0.36862 0.0
H2111 H 0.78798 0.36461 0.46212 0.0
H2112 H 0.79457 0.3439 0.43572 0.0
H2113 H 0.82109 0.37245 0.39483 0.0
H2114 H 0.80454 0.32417 0.30529 0.0
H2115 H 0.80902 0.34218 0.33664 0.0
C2116 C 0.43339 0.03329 0.20951 0.0
C2117 C 0.44485 0.03854 0.22616 0.0
C2118 C 0.43796 0.02285 0.19389 0.0
C2119 C 0.47682 0.0088 0.17557 0.0
H2120 H 0.44098 0.9769 0.13709 0.0
C2121 C 0.50007 0.98689 0.1105 0.0
C2122 C 0.49424 0.99855 0.09941 0.0
C2123 C 0.48996 0.98046 0.12387 0.0
C2124 C 0.4511 0.98533 0.14799 0.0
H2125 H 0.47039 0.03765 0.2393 0.0
H2126 H 0.47762 0.01831 0.21299 0.0
H2127 H 0.43236 0.99062 0.1664 0.0
H2128 H 0.47209 0.00945 0.09079 0.0
H2129 H 0.45466 0.99871 0.11447 0.0
H2130 H 0.49549 1.00379 0.15729 0.0
C2131 C 0.46539 0.02268 0.21147 0.0
C2132 C 0.44619 0.99354 0.16461 0.0
C2133 C 0.46115 0.0337 0.22674 0.0
C2134 C 0.47702 1.00096 0.09965 0.0
C2135 C 0.46692 0.99451 0.11299 0.0
C2136 C 0.4817 1.00021 0.15933 0.0
C2137 C 0.45389 0.01706 0.1948 0.0
C2138 C 0.45897 0.00603 0.17828 0.0
C2139 C 0.47411 0.98585 0.12631 0.0
C2140 C 0.46888 0.98906 0.14507 0.0
H2141 H 0.42075 0.03692 0.20865 0.0
H2142 H 0.42898 0.01935 0.18118 0.0
H2143 H 0.48711 0.01857 0.1854 0.0
H2144 H 0.51322 0.98461 0.11036 0.0
H2145 H 0.49563 0.97357 0.13389 0.0
C2146 C 0.77253 0.69291 0.91918 0.0
C2147 C 0.78121 0.70272 0.93666 0.0
C2148 C 0.77437 0.70119 0.9035 0.0
C2149 C 0.80395 0.73302 0.88224 0.0
H2150 H 0.76282 0.74077 0.85456 0.0
C2151 C 0.81075 0.77371 0.82176 0.0
C2152 C 0.79694 0.76952 0.80719 0.0
C2153 C 0.80882 0.76537 0.8374 0.0
C2154 C 0.77444 0.7384 0.86181 0.0
H2155 H 0.79885 0.72881 0.95137 0.0
H2156 H 0.80264 0.74305 0.92364 0.0
H2157 H 0.7596 0.7266 0.88206 0.0
H2158 H 0.77041 0.75299 0.79736 0.0
H2159 H 0.76734 0.73743 0.82401 0.0
H2160 H 0.81879 0.74379 0.86172 0.0
C2161 C 0.79418 0.72905 0.92227 0.0
C2162 C 0.77257 0.73045 0.87772 0.0
C2163 C 0.79198 0.72094 0.93809 0.0
C2164 C 0.78127 0.75649 0.80839 0.0
C2165 C 0.77948 0.74775 0.82384 0.0
C2166 C 0.8058 0.74054 0.86609 0.0
C2167 C 0.78528 0.71928 0.90488 0.0
C2168 C 0.78732 0.72783 0.88813 0.0
C2169 C 0.79317 0.75221 0.83873 0.0
C2170 C 0.79109 0.74353 0.85567 0.0
H2171 H 0.76407 0.67889 0.91764 0.0
H2172 H 0.76743 0.69338 0.89022 0.0
H2173 H 0.81549 0.73089 0.88994 0.0
H2174 H 0.82296 0.78383 0.82132 0.0
H2175 H 0.81956 0.76964 0.8486 0.0
C2176 C 0.81998 0.09422 0.03232 0.0
C2177 C 0.81941 0.11082 0.02567 0.0
C2178 C 0.83509 0.08733 0.03203 0.0
C2179 C 0.87352 0.08868 0.00693 0.0
H2180 H 0.88794 0.06188 0.04421 0.0
C2181 C 0.93432 0.05722 0.00537 0.0
C2182 C 0.93155 0.03853 0.00814 0.0
C2183 C 0.92136 0.06712 0.00821 0.0
C2184 C 0.88396 0.06926 0.03368 0.0
H2185 H 0.83456 0.13379 0.01447 0.0
H2186 H 0.86112 0.12188 0.01429 0.0
H2187 H 0.86484 0.07874 0.04933 0.0
H2188 H 0.91317 0.01539 0.01581 0.0
H2189 H 0.89034 0.03284 0.02092 0.0
H2190 H 0.89271 0.07919 0.99134 0.0
C2191 C 0.84972 0.114 0.01934 0.0
C2192 C 0.87079 0.07891 0.0366 0.0
C2193 C 0.83454 0.12086 0.01953 0.0
C2194 C 0.91553 0.02979 0.01358 0.0
C2195 C 0.90261 0.03978 0.01663 0.0
C2196 C 0.8868 0.07918 0.00411 0.0
C2197 C 0.85 0.09696 0.02522 0.0
C2198 C 0.86523 0.08846 0.02311 0.0
C2199 C 0.90547 0.05854 0.01402 0.0
C2200 C 0.89192 0.06917 0.01734 0.0
H2201 H 0.80856 0.08614 0.03717 0.0
H2202 H 0.83479 0.07403 0.03643 0.0
H2203 H 0.86933 0.09564 0.99614 0.0
H2204 H 0.94655 0.06416 1.00098 0.0
H2205 H 0.92386 0.08158 0.00616 0.0
C2206 C 0.35964 0.43817 0.00825 0.0
C2207 C 0.35267 0.43048 0.02299 0.0
C2208 C 0.37761 0.44629 0.00934 0.0
C2209 C 0.42138 0.45104 0.03633 0.0
H2210 H 0.4343 0.49363 0.01168 0.0
C2211 C 0.49005 0.50583 0.04364 0.0
C2212 C 0.49652 0.50716 0.02658 0.0
C2213 C 0.47326 0.49457 0.04421 0.0
C2214 C 0.43085 0.48171 0.01856 0.0
H2215 H 0.35906 0.42502 0.05041 0.0
H2216 H 0.39049 0.44007 0.05278 0.0
H2217 H 0.40337 0.47857 0.01126 0.0
H2218 H 0.49102 0.49708 0.99686 0.0
H2219 H 0.4615 0.47794 0.99787 0.0
H2220 H 0.4492 0.45506 0.04423 0.0
C2221 C 0.38214 0.43937 0.04011 0.0
C2222 C 0.41313 0.47293 0.01822 0.0
C2223 C 0.36411 0.43084 0.03882 0.0
C2224 C 0.48631 0.4964 0.0102 0.0
C2225 C 0.46946 0.48546 0.01075 0.0
C2226 C 0.43919 0.46015 0.03698 0.0
C2227 C 0.3891 0.4474 0.02542 0.0
C2228 C 0.4081 0.45723 0.02679 0.0
C2229 C 0.46268 0.48476 0.02771 0.0
C2230 C 0.44401 0.47535 0.02784 0.0
H2231 H 0.3512 0.4378 0.99572 0.0
H2232 H 0.38246 0.45168 0.99747 0.0
H2233 H 0.4181 0.43893 0.04295 0.0
H2234 H 0.49773 0.51391 0.05646 0.0
H2235 H 0.46822 0.49425 0.05743 0.0
C2236 C 0.37099 0.60585 0.74872 0.0
C2237 C 0.3894 0.60856 0.75326 0.0
C2238 C 0.36273 0.62123 0.74951 0.0
C2239 C 0.37086 0.67524 0.76672 0.0
H2240 H 0.32607 0.66851 0.73705 0.0
C2241 C 0.33728 0.73981 0.76261 0.0
C2242 C 0.31869 0.73651 0.75918 0.0
C2243 C 0.346 0.72474 0.762 0.0
C2244 C 0.33847 0.67088 0.74573 0.0
H2245 H 0.41322 0.63065 0.76222 0.0
H2246 H 0.39919 0.65708 0.76333 0.0
H2247 H 0.34033 0.64249 0.73582 0.0
H2248 H 0.29512 0.71374 0.75239 0.0
H2249 H 0.30992 0.68803 0.75143 0.0
H2250 H 0.369 0.70376 0.77647 0.0
C2251 C 0.39083 0.64299 0.75939 0.0
C2252 C 0.34684 0.65559 0.74503 0.0
C2253 C 0.39907 0.62757 0.75865 0.0
C2254 C 0.30936 0.71731 0.75511 0.0
C2255 C 0.31804 0.70229 0.75441 0.0
C2256 C 0.3625 0.69057 0.76737 0.0
C2257 C 0.37236 0.64036 0.75483 0.0
C2258 C 0.3633 0.65719 0.75554 0.0
C2259 C 0.33664 0.70546 0.75781 0.0
C2260 C 0.34598 0.68888 0.75695 0.0
H2261 H 0.3628 0.59166 0.74453 0.0
H2262 H 0.34857 0.61792 0.74611 0.0
H2263 H 0.38325 0.67763 0.77541 0.0
H2264 H 0.34523 0.75417 0.76578 0.0
H2265 H 0.36024 0.72835 0.76457 0.0
C2266 C 0.21341 0.64054 0.49602 0.0
C2267 C 0.22363 0.62725 0.49308 0.0
C2268 C 0.19517 0.63498 0.49173 0.0
C2269 C 0.15728 0.59804 0.46768 0.0
H2270 H 0.13699 0.60844 0.51331 0.0
C2271 C 0.09023 0.55528 0.4811 0.0
C2272 C 0.08117 0.56377 0.49432 0.0
C2273 C 0.10631 0.56538 0.47713 0.0
C2274 C 0.14218 0.60582 0.50023 0.0
H2275 H 0.22304 0.5981 0.482 0.0
H2276 H 0.19095 0.58834 0.47456 0.0
H2277 H 0.16777 0.62213 0.51228 0.0
H2278 H 0.08049 0.58977 0.51227 0.0
H2279 H 0.10796 0.60776 0.5046 0.0
H2280 H 0.13158 0.58163 0.45562 0.0
C2281 C 0.19714 0.60303 0.48016 0.0
C2282 C 0.15991 0.61361 0.49972 0.0
C2283 C 0.21542 0.60857 0.48459 0.0
C2284 C 0.08756 0.58283 0.50239 0.0
C2285 C 0.10332 0.59307 0.49802 0.0
C2286 C 0.13933 0.59048 0.46806 0.0
C2287 C 0.18688 0.61609 0.48429 0.0
C2288 C 0.16767 0.60952 0.48359 0.0
C2289 C 0.1133 0.58425 0.48601 0.0
C2290 C 0.13167 0.59399 0.48449 0.0
H2291 H 0.2194 0.6551 0.50233 0.0
H2292 H 0.18745 0.64526 0.49495 0.0
H2293 H 0.16308 0.59475 0.45509 0.0
H2294 H 0.08539 0.54058 0.47459 0.0
H2295 H 0.11364 0.55805 0.4679 0.0
C2296 C 0.68472 0.97088 0.76871 0.0
C2297 C 0.68981 0.98809 0.76268 0.0
C2298 C 0.69743 0.96269 0.77614 0.0
C2299 C 0.74402 0.96251 0.77457 0.0
H2300 H 0.73577 0.93162 0.81213 0.0
C2301 C 0.79167 0.91775 0.79151 0.0
C2302 C 0.78313 0.89868 0.78996 0.0
C2303 C 0.78199 0.93151 0.79323 0.0
C2304 C 0.73828 0.9403 0.80171 0.0
H2305 H 0.71206 0.01072 0.76057 0.0
H2306 H 0.73418 0.99663 0.77384 0.0
H2307 H 0.71523 0.95075 0.80536 0.0
H2308 H 0.75819 0.87914 0.79058 0.0
H2309 H 0.74126 0.90306 0.79336 0.0
H2310 H 0.76673 0.95169 0.77048 0.0
C2311 C 0.72044 0.98921 0.77243 0.0
C2312 C 0.7265 0.95117 0.79777 0.0
C2313 C 0.70776 0.9973 0.76485 0.0
C2314 C 0.76502 0.89374 0.79147 0.0
C2315 C 0.75538 0.90747 0.79328 0.0
C2316 C 0.75582 0.95175 0.77857 0.0
C2317 C 0.71545 0.97164 0.77783 0.0
C2318 C 0.72901 0.96201 0.78381 0.0
C2319 C 0.76366 0.9264 0.79356 0.0
C2320 C 0.75283 0.94016 0.79182 0.0
H2321 H 0.67097 0.96349 0.76724 0.0
H2322 H 0.69314 0.94903 0.77992 0.0
H2323 H 0.74623 0.97046 0.76354 0.0
H2324 H 0.80563 0.9219 0.79041 0.0
H2325 H 0.78872 0.94604 0.7936 0.0
C2326 C 0.75547 0.93481 0.54106 0.0
C2327 C 0.75263 0.91513 0.53638 0.0
C2328 C 0.74129 0.94332 0.54077 0.0
C2329 C 0.69532 0.93559 0.52014 0.0
H2330 H 0.69463 0.97731 0.55921 0.0
C2331 C 0.63612 0.9704 0.5247 0.0
C2332 C 0.64009 0.99013 0.53014 0.0
C2333 C 0.64945 0.96065 0.52549 0.0
C2334 C 0.69471 0.96582 0.54807 0.0
H2335 H 0.73264 0.88889 0.52791 0.0
H2336 H 0.70782 0.90379 0.52745 0.0
H2337 H 0.71855 0.96137 0.56085 0.0
H2338 H 0.66125 0.01502 0.54075 0.0
H2339 H 0.68443 0.99815 0.54157 0.0
H2340 H 0.67158 0.9402 0.50724 0.0
C2341 C 0.72106 0.91263 0.5312 0.0
C2342 C 0.70841 0.95666 0.54904 0.0
C2343 C 0.73526 0.9041 0.53158 0.0
C2344 C 0.65771 0.99986 0.53621 0.0
C2345 C 0.671 0.99015 0.53695 0.0
C2346 C 0.68163 0.94481 0.51913 0.0
C2347 C 0.72393 0.93235 0.53574 0.0
C2348 C 0.70895 0.94154 0.53503 0.0
C2349 C 0.66704 0.97041 0.53174 0.0
C2350 C 0.68124 0.96014 0.53302 0.0
H2351 H 0.76869 0.94371 0.54479 0.0
H2352 H 0.74396 0.95855 0.54414 0.0
H2353 H 0.69547 0.92412 0.50902 0.0
H2354 H 0.62272 0.96247 0.51978 0.0
H2355 H 0.64591 0.94544 0.52149 0.0
C2356 C 0.37167 0.48708 0.75191 0.0
C2357 C 0.38822 0.48903 0.74524 0.0
C2358 C 0.36117 0.46905 0.7531 0.0
C2359 C 0.3569 0.41615 0.73682 0.0
H2360 H 0.32692 0.41065 0.77564 0.0
C2361 C 0.32126 0.34102 0.75025 0.0
C2362 C 0.30419 0.33877 0.75563 0.0
C2363 C 0.33165 0.35914 0.74926 0.0
C2364 C 0.33507 0.41177 0.76453 0.0
H2365 H 0.40624 0.47271 0.73453 0.0
H2366 H 0.38855 0.44221 0.73682 0.0
H2367 H 0.34352 0.44192 0.77297 0.0
H2368 H 0.28497 0.3543 0.76415 0.0
H2369 H 0.30274 0.38527 0.76259 0.0
H2370 H 0.34853 0.38598 0.72847 0.0
C2371 C 0.38326 0.45436 0.74087 0.0
C2372 C 0.34467 0.42996 0.76296 0.0
C2373 C 0.39364 0.47219 0.73967 0.0
C2374 C 0.29806 0.35528 0.76011 0.0
C2375 C 0.30841 0.37326 0.7593 0.0
C2376 C 0.34737 0.39797 0.73845 0.0
C2377 C 0.36677 0.45222 0.74763 0.0
C2378 C 0.35588 0.43264 0.74908 0.0
C2379 C 0.32542 0.37571 0.75375 0.0
C2380 C 0.33619 0.39531 0.75233 0.0
H2381 H 0.3669 0.49949 0.75644 0.0
H2382 H 0.34856 0.46836 0.75823 0.0
H2383 H 0.36492 0.41719 0.72561 0.0
H2384 H 0.32639 0.32879 0.74622 0.0
H2385 H 0.34464 0.36013 0.74498 0.0
C2386 C 0.18094 0.58317 0.2448 0.0
C2387 C 0.16601 0.57683 0.2314 0.0
C2388 C 0.19 0.60209 0.2486 0.0
C2389 C 0.20023 0.64367 0.22837 0.0
H2390 H 0.20974 0.6715 0.27901 0.0
C2391 C 0.23464 0.72168 0.24327 0.0
C2392 C 0.24772 0.72812 0.25856 0.0
C2393 C 0.22296 0.70414 0.24121 0.0
C2394 C 0.20737 0.66388 0.26483 0.0
H2395 H 0.14909 0.58519 0.21119 0.0
H2396 H 0.16539 0.61829 0.21748 0.0
H2397 H 0.19316 0.63855 0.27245 0.0
H2398 H 0.2585 0.72194 0.28418 0.0
H2399 H 0.23854 0.69067 0.28021 0.0
H2400 H 0.21499 0.66843 0.22066 0.0
C2401 C 0.16985 0.60857 0.22515 0.0
C2402 C 0.19783 0.64508 0.2611 0.0
C2403 C 0.16057 0.58968 0.22156 0.0
C2404 C 0.24846 0.71717 0.27228 0.0
C2405 C 0.23698 0.69933 0.27 0.0
C2406 C 0.20999 0.66232 0.23211 0.0
C2407 C 0.18449 0.61492 0.23885 0.0
C2408 C 0.1942 0.63488 0.24284 0.0
C2409 C 0.22441 0.69242 0.25415 0.0
C2410 C 0.21364 0.6727 0.25037 0.0
H2411 H 0.18537 0.57364 0.25273 0.0
H2412 H 0.20139 0.60668 0.25909 0.0
H2413 H 0.19778 0.63596 0.21422 0.0
H2414 H 0.23365 0.73011 0.23269 0.0
H2415 H 0.21306 0.69957 0.22918 0.0
C2416 C 0.49907 0.68848 0.41748 0.0
C2417 C 0.50004 0.70609 0.42862 0.0
C2418 C 0.50047 0.67293 0.42551 0.0
C2419 C 0.49654 0.65301 0.46808 0.0
H2420 H 0.53103 0.62653 0.45015 0.0
C2421 C 0.50704 0.58307 0.48935 0.0
C2422 C 0.5247 0.58278 0.49422 0.0
C2423 C 0.50295 0.59811 0.48195 0.0
C2424 C 0.52135 0.63377 0.45531 0.0
H2425 H 0.50247 0.72093 0.45698 0.0
H2426 H 0.50455 0.69361 0.471 0.0
H2427 H 0.52524 0.65238 0.43584 0.0
H2428 H 0.55186 0.59826 0.4953 0.0
H2429 H 0.54471 0.62415 0.48217 0.0
H2430 H 0.49266 0.63424 0.48754 0.0
C2431 C 0.50282 0.69192 0.45604 0.0
C2432 C 0.51793 0.64849 0.44702 0.0
C2433 C 0.50169 0.70757 0.448 0.0
C2434 C 0.53811 0.59799 0.49176 0.0
C2435 C 0.53404 0.61281 0.48412 0.0
C2436 C 0.49975 0.63803 0.47619 0.0
C2437 C 0.5026 0.67452 0.44489 0.0
C2438 C 0.50559 0.65839 0.45338 0.0
C2439 C 0.51644 0.61298 0.47897 0.0
C2440 C 0.51235 0.62839 0.47001 0.0
H2441 H 0.49783 0.68683 0.40251 0.0
H2442 H 0.50008 0.65967 0.41655 0.0
H2443 H 0.4869 0.66033 0.47323 0.0
H2444 H 0.49638 0.57161 0.49109 0.0
H2445 H 0.48926 0.59784 0.47806 0.0
C2446 C 0.63523 0.32281 0.66419 0.0
C2447 C 0.63143 0.31715 0.64485 0.0
C2448 C 0.65089 0.32112 0.67348 0.0
C2449 C 0.68492 0.29418 0.66994 0.0
H2450 H 0.70927 0.33281 0.71176 0.0
C2451 C 0.74616 0.28816 0.71818 0.0
C2452 C 0.74513 0.29348 0.73718 0.0
C2453 C 0.7339 0.29153 0.70487 0.0
C2454 C 0.70261 0.32185 0.70014 0.0
H2455 H 0.6413 0.3055 0.62006 0.0
H2456 H 0.66877 0.3025 0.63639 0.0
H2457 H 0.68507 0.33833 0.69225 0.0
H2458 H 0.73036 0.30616 0.75712 0.0
H2459 H 0.70921 0.31189 0.73421 0.0
H2460 H 0.70229 0.27752 0.67825 0.0
C2461 C 0.65953 0.3082 0.64432 0.0
C2462 C 0.68872 0.32502 0.68896 0.0
C2463 C 0.64386 0.31006 0.63497 0.0
C2464 C 0.73161 0.302 0.74259 0.0
C2465 C 0.71952 0.30542 0.72943 0.0
C2466 C 0.69887 0.29098 0.6812 0.0
C2467 C 0.66317 0.31363 0.66372 0.0
C2468 C 0.67937 0.31105 0.67402 0.0
C2469 C 0.72056 0.30044 0.71041 0.0
C2470 C 0.70753 0.30459 0.69676 0.0
H2471 H 0.62593 0.32828 0.67224 0.0
H2472 H 0.65314 0.32521 0.68845 0.0
H2473 H 0.67795 0.28309 0.65857 0.0
H2474 H 0.75647 0.28158 0.71364 0.0
H2475 H 0.73504 0.28751 0.6903 0.0
C2476 C 0.03327 0.33625 0.9264 0.0
C2477 C 0.022 0.31992 0.92993 0.0
C2478 C 0.03507 0.35371 0.93785 0.0
C2479 C 0.01127 0.37961 0.96943 0.0
H2480 H 0.05588 0.41698 0.9785 0.0
C2481 C 0.04401 0.46334 0.00538 0.0
C2482 C 0.03077 0.47144 0.99862 0.0
C2483 C 0.04283 0.44404 1.0001 0.0
C2484 C 0.04334 0.40671 0.97638 0.0
H2485 H 0.00419 0.3091 0.94873 0.0
H2486 H 0.00739 0.33981 0.96888 0.0
H2487 H 0.05482 0.38459 0.9646 0.0
H2488 H 0.00566 0.46542 0.98136 0.0
H2489 H 0.00376 0.43191 0.97186 0.0
H2490 H -0.00021 0.40181 0.98119 0.0
C2491 C 0.01472 0.339 0.95709 0.0
C2492 C 0.04271 0.38813 0.9682 0.0
C2493 C 0.013 0.3214 0.94563 0.0
C2494 C 0.0161 0.45968 0.98684 0.0
C2495 C 0.01495 0.44039 0.98149 0.0
C2496 C 0.01191 0.39823 0.97765 0.0
C2497 C 0.02564 0.3554 0.95317 0.0
C2498 C 0.02661 0.37444 0.9642 0.0
C2499 C 0.02841 0.43234 0.98785 0.0
C2500 C 0.02789 0.41212 0.98087 0.0
H2501 H 0.04046 0.33567 0.91448 0.0
H2502 H 0.0434 0.36602 0.93423 0.0
H2503 H 0.99864 0.36947 0.96647 0.0
H2504 H 0.05545 0.47192 0.01461 0.0
H2505 H 0.0533 0.43831 0.00552 0.0
C2506 C 0.02595 0.79035 0.17253 0.0
C2507 C 0.03095 0.8008 0.15873 0.0
C2508 C 0.00969 0.78953 0.17906 0.0
C2509 C 0.96515 0.79719 0.16854 0.0
H2510 H 0.96437 0.79762 0.22116 0.0
C2511 C 0.90388 0.80112 0.20788 0.0
C2512 C 0.90086 0.78938 0.22108 0.0
C2513 C 0.91906 0.80259 0.1989 0.0
C2514 C 0.96433 0.79732 0.20641 0.0
H2515 H 0.0225 0.8184 0.14077 0.0
H2516 H 0.99402 0.81731 0.15256 0.0
H2517 H 0.99221 0.80093 0.20838 0.0
H2518 H 0.9109 0.76909 0.23424 0.0
H2519 H 0.93735 0.77181 0.21879 0.0
H2520 H 0.9371 0.7938 0.16682 0.0
C2521 C 0.00273 0.80955 0.15813 0.0
C2522 C 0.9803 0.7992 0.19905 0.0
C2523 C 0.01908 0.81027 0.15144 0.0
C2524 C 0.91301 0.77861 0.22451 0.0
C2525 C 0.92816 0.78014 0.21563 0.0
C2526 C 0.9491 0.79545 0.17598 0.0
C2527 C 0.99793 0.79931 0.17218 0.0
C2528 C 0.98092 0.79879 0.17997 0.0
C2529 C 0.93155 0.79243 0.20301 0.0
C2530 C 0.9485 0.79516 0.19496 0.0
H2531 H 0.03458 0.78262 0.1783 0.0
H2532 H 0.0063 0.78109 0.18951 0.0
H2533 H 0.96512 0.79673 0.15378 0.0
H2534 H 0.89486 0.80972 0.205 0.0
H2535 H 0.92135 0.81222 0.18929 0.0
C2536 C 0.48676 0.31624 0.12333 0.0
C2537 C 0.48628 0.2977 0.1148 0.0
C2538 C 0.48885 0.33063 0.11303 0.0
C2539 C 0.4866 0.34145 0.06607 0.0
H2540 H 0.52619 0.38336 0.08745 0.0
C2541 C 0.51708 0.39733 0.02428 0.0
C2542 C 0.52253 0.41616 0.03368 0.0
C2543 C 0.51192 0.38275 0.03401 0.0
C2544 C 0.51492 0.37195 0.08138 0.0
H2545 H 0.48622 0.27942 0.08858 0.0
H2546 H 0.48964 0.30457 0.07056 0.0
H2547 H 0.51663 0.35841 0.10472 0.0
H2548 H 0.52725 0.43435 0.06076 0.0
H2549 H 0.51761 0.40911 0.07758 0.0
H2550 H 0.48477 0.35506 0.04278 0.0
C2551 C 0.48852 0.30796 0.08521 0.0
C2552 C 0.50946 0.35765 0.09129 0.0
C2553 C 0.48661 0.29359 0.09554 0.0
C2554 C 0.52288 0.42004 0.05304 0.0
C2555 C 0.51757 0.40551 0.06273 0.0
C2556 C 0.49194 0.35589 0.05621 0.0
C2557 C 0.4903 0.3267 0.094 0.0
C2558 C 0.49528 0.34225 0.08373 0.0
C2559 C 0.51197 0.38669 0.05334 0.0
C2560 C 0.50622 0.37129 0.06374 0.0
H2561 H 0.48651 0.31984 0.13814 0.0
H2562 H 0.48996 0.34495 0.12007 0.0
H2563 H 0.4756 0.32973 0.05997 0.0
H2564 H 0.51649 0.39385 0.00935 0.0
H2565 H 0.50794 0.3684 0.02636 0.0
C2566 C 0.03075 0.30455 0.31361 0.0
C2567 C 0.0361 0.29743 0.32908 0.0
C2568 C 0.01411 0.29691 0.30368 0.0
C2569 C 0.96989 0.27257 0.30988 0.0
H2570 H 0.9614 0.27292 0.25734 0.0
C2571 C 0.90092 0.26909 0.27563 0.0
C2572 C 0.90094 0.28525 0.26791 0.0
C2573 C 0.91661 0.26375 0.27945 0.0
C2574 C 0.96357 0.27249 0.27195 0.0
H2575 H 0.02833 0.27627 0.34595 0.0
H2576 H 0.99912 0.26286 0.32849 0.0
H2577 H 0.99135 0.27606 0.27173 0.0
H2578 H 0.91726 0.30768 0.25699 0.0
H2579 H 0.94449 0.2982 0.26337 0.0
H2580 H 0.94224 0.26986 0.31027 0.0
C2581 C 0.00783 0.27449 0.32418 0.0
C2582 C 0.98068 0.27438 0.28021 0.0
C2583 C 0.02454 0.28218 0.33418 0.0
C2584 C 0.91673 0.29508 0.26279 0.0
C2585 C 0.93235 0.28962 0.26642 0.0
C2586 C 0.95276 0.27054 0.30159 0.0
C2587 C 0.0024 0.28189 0.30892 0.0
C2588 C 0.98411 0.27538 0.29943 0.0
C2589 C 0.93254 0.27432 0.27536 0.0
C2590 C 0.94959 0.27139 0.28274 0.0
H2591 H 0.03931 0.31627 0.30928 0.0
H2592 H 0.01021 0.30324 0.29226 0.0
H2593 H 0.97208 0.27338 0.32473 0.0
H2594 H 0.88886 0.26094 0.27931 0.0
H2595 H 0.91641 0.25179 0.28621 0.0
C2596 C 0.99615 0.69507 0.60398 0.0
C2597 C 0.99923 0.69539 0.6231 0.0
C2598 C 0.99572 0.67877 0.5912 0.0
C2599 C 0.98831 0.63978 0.56689 0.0
H2600 H 0.02434 0.61358 0.57809 0.0
C2601 C 0.99629 0.57104 0.52073 0.0
C2602 C 0.01375 0.57042 0.51851 0.0
C2603 C 0.99282 0.58583 0.53316 0.0
C2604 C 0.01424 0.62078 0.57472 0.0
H2605 H 0.0034 0.67862 0.64384 0.0
H2606 H 0.0023 0.65015 0.6216 0.0
H2607 H 0.02118 0.64015 0.60046 0.0
H2608 H 0.04121 0.58497 0.52667 0.0
H2609 H 0.0352 0.61079 0.54802 0.0
H2610 H 0.98193 0.62068 0.54072 0.0
C2611 C 0.00069 0.66261 0.61644 0.0
C2612 C 0.01226 0.63587 0.58766 0.0
C2613 C 0.00129 0.67893 0.62919 0.0
C2614 C 0.02762 0.58503 0.52831 0.0
C2615 C 0.02419 0.59975 0.54061 0.0
C2616 C 0.99034 0.62465 0.55386 0.0
C2617 C 0.99822 0.66244 0.5973 0.0
C2618 C 0.9994 0.64568 0.58384 0.0
C2619 C 0.00679 0.60013 0.54346 0.0
C2620 C 0.00354 0.61523 0.55756 0.0
H2621 H 0.99448 0.70754 0.59887 0.0
H2622 H 0.994 0.67917 0.57655 0.0
H2623 H 0.97814 0.64693 0.56364 0.0
H2624 H 0.98539 0.55986 0.51332 0.0
H2625 H 0.97928 0.58578 0.53513 0.0
C2626 C 0.65065 0.81707 0.8609 0.0
C2627 C 0.63438 0.81972 0.854 0.0
C2628 C 0.66535 0.82177 0.85157 0.0
C2629 C 0.67426 0.82505 0.80418 0.0
H2630 H 0.72292 0.8382 0.82664 0.0
C2631 C 0.72778 0.79613 0.77161 0.0
C2632 C 0.74511 0.80718 0.77407 0.0
C2633 C 0.71461 0.80328 0.77954 0.0
C2634 C 0.70942 0.83495 0.82013 0.0
H2635 H 0.62096 0.83085 0.83304 0.0
H2636 H 0.64659 0.83961 0.81725 0.0
H2637 H 0.69966 0.84159 0.84607 0.0
H2638 H 0.76212 0.83478 0.78582 0.0
H2639 H 0.73895 0.84723 0.79987 0.0
H2640 H 0.68393 0.81788 0.77837 0.0
C2641 C 0.64797 0.83334 0.8294 0.0
C2642 C 0.69611 0.83665 0.83128 0.0
C2643 C 0.63329 0.82834 0.83849 0.0
C2644 C 0.74885 0.82592 0.78373 0.0
C2645 C 0.73566 0.83303 0.79183 0.0
C2646 C 0.68753 0.82341 0.79308 0.0
C2647 C 0.66398 0.82943 0.83538 0.0
C2648 C 0.67835 0.83105 0.82349 0.0
C2649 C 0.71853 0.82159 0.79017 0.0
C2650 C 0.70515 0.82761 0.80105 0.0
H2651 H 0.6518 0.81051 0.8729 0.0
H2652 H 0.67747 0.81842 0.85644 0.0
H2653 H 0.66072 0.82044 0.79771 0.0
H2654 H 0.72449 0.7817 0.76413 0.0
H2655 H 0.70156 0.79405 0.77821 0.0
C2656 C 0.43391 0.54597 0.67749 0.0
C2657 C 0.44348 0.55411 0.6952 0.0
C2658 C 0.44231 0.54456 0.66106 0.0
C2659 C 0.48479 0.56447 0.6417 0.0
H2660 H 0.46821 0.52212 0.60094 0.0
C2661 C 0.52616 0.55624 0.57936 0.0
C2662 C 0.51883 0.54607 0.5614 0.0
C2663 C 0.5164 0.55669 0.59465 0.0
C2664 C 0.47306 0.53426 0.61196 0.0
H2665 H 0.46996 0.56715 0.70871 0.0
H2666 H 0.48441 0.56498 0.68051 0.0
H2667 H 0.45297 0.52392 0.62864 0.0
H2668 H 0.4946 0.52795 0.54625 0.0
H2669 H 0.47727 0.52911 0.57273 0.0
H2670 H 0.50446 0.57522 0.62517 0.0
C2671 C 0.47026 0.55965 0.67916 0.0
C2672 C 0.4642 0.53529 0.62813 0.0
C2673 C 0.46189 0.56084 0.69558 0.0
C2674 C 0.50094 0.53615 0.55958 0.0
C2675 C 0.49096 0.53674 0.57506 0.0
C2676 C 0.49349 0.56356 0.62555 0.0
C2677 C 0.46073 0.55145 0.66139 0.0
C2678 C 0.46994 0.55034 0.64357 0.0
C2679 C 0.49844 0.54717 0.59309 0.0
C2680 C 0.48812 0.54831 0.61022 0.0
H2681 H 0.41977 0.54053 0.67628 0.0
H2682 H 0.43419 0.53829 0.64797 0.0
H2683 H 0.48966 0.57662 0.65272 0.0
H2684 H 0.53984 0.56397 0.58184 0.0
H2685 H 0.52334 0.56444 0.6079 0.0
C2686 C 0.782 0.1794 0.95492 0.0
C2687 C 0.78917 0.18636 0.97353 0.0
C2688 C 0.77677 0.1914 0.94405 0.0
C2689 C 0.7818 0.23954 0.9379 0.0
H2690 H 0.73233 0.22377 0.9178 0.0
C2691 C 0.75615 0.28252 0.891 0.0
C2692 C 0.74721 0.27157 0.87403 0.0
C2693 C 0.75744 0.27437 0.90664 0.0
C2694 C 0.74616 0.22836 0.92323 0.0
H2695 H 0.79811 0.21152 0.99482 0.0
H2696 H 0.78961 0.23266 0.97545 0.0
H2697 H 0.74501 0.20439 0.93629 0.0
H2698 H 0.72958 0.24462 0.86136 0.0
H2699 H 0.73299 0.23001 0.88804 0.0
H2700 H 0.7835 0.2628 0.92409 0.0
C2701 C 0.78767 0.21787 0.96951 0.0
C2702 C 0.75339 0.21726 0.93377 0.0
C2703 C 0.79261 0.20581 0.98052 0.0
C2704 C 0.73732 0.2532 0.87394 0.0
C2705 C 0.73907 0.24487 0.88942 0.0
C2706 C 0.77469 0.25046 0.92708 0.0
C2707 C 0.779 0.21057 0.9515 0.0
C2708 C 0.77131 0.22264 0.94092 0.0
C2709 C 0.75024 0.25501 0.90551 0.0
C2710 C 0.75682 0.24489 0.91936 0.0
H2711 H 0.77913 0.16447 0.94919 0.0
H2712 H 0.77036 0.18559 0.93005 0.0
H2713 H 0.79565 0.24392 0.9433 0.0
H2714 H 0.76373 0.29683 0.8919 0.0
H2715 H 0.76542 0.28285 0.91913 0.0
C2716 C 0.13024 0.50378 0.16737 0.0
C2717 C 0.12243 0.49484 0.18107 0.0
C2718 C 0.11983 0.50559 0.15179 0.0
C2719 C 0.07942 0.48785 0.1211 0.0
H2720 H 0.07981 0.54008 0.11996 0.0
C2721 C 0.03241 0.50751 0.06743 0.0
C2722 C 0.03908 0.52351 0.05999 0.0
C2723 C 0.04185 0.50367 0.08268 0.0
C2724 C 0.07972 0.52543 0.11981 0.0
H2725 H 0.09791 0.47961 0.18862 0.0
H2726 H 0.07977 0.48222 0.16088 0.0
H2727 H 0.09862 0.53252 0.14414 0.0
H2728 H 0.06014 0.54871 0.06322 0.0
H2729 H 0.07719 0.54154 0.08896 0.0
H2730 H 0.06115 0.48064 0.09639 0.0
C2731 C 0.09388 0.48804 0.16245 0.0
C2732 C 0.09044 0.52114 0.13374 0.0
C2733 C 0.10424 0.48656 0.17826 0.0
C2734 C 0.05493 0.53603 0.06847 0.0
C2735 C 0.06456 0.53203 0.08343 0.0
C2736 C 0.06896 0.49213 0.10689 0.0
C2737 C 0.10155 0.49811 0.14946 0.0
C2738 C 0.09037 0.50235 0.13446 0.0
C2739 C 0.05826 0.51567 0.09063 0.0
C2740 C 0.06898 0.511 0.10605 0.0
H2741 H 0.14421 0.51038 0.16919 0.0
H2742 H 0.12596 0.51336 0.14184 0.0
H2743 H 0.07923 0.47325 0.12148 0.0
H2744 H 0.02007 0.49774 0.06125 0.0
H2745 H 0.03631 0.49122 0.08812 0.0
C2746 C 0.7999 0.84809 0.46749 0.0
C2747 C 0.7879 0.85954 0.46998 0.0
C2748 C 0.79992 0.83715 0.45007 0.0
C2749 C 0.77339 0.81625 0.4049 0.0
H2750 H 0.81745 0.82739 0.384 0.0
C2751 C 0.77528 0.8034 0.32631 0.0
C2752 C 0.78986 0.79825 0.31901 0.0
C2753 C 0.77523 0.80813 0.34543 0.0
C2754 C 0.80511 0.82374 0.38967 0.0
H2755 H 0.76589 0.86772 0.45661 0.0
H2756 H 0.7656 0.84825 0.42646 0.0
H2757 H 0.8166 0.83937 0.41669 0.0
H2758 H 0.81576 0.79372 0.3262 0.0
H2759 H 0.81551 0.80155 0.35963 0.0
H2760 H 0.76181 0.80068 0.37801 0.0
C2761 C 0.7751 0.84785 0.43784 0.0
C2762 C 0.80465 0.83065 0.40842 0.0
C2763 C 0.77532 0.85905 0.45508 0.0
C2764 C 0.80436 0.79777 0.33134 0.0
C2765 C 0.80423 0.80232 0.35054 0.0
C2766 C 0.77389 0.80913 0.38624 0.0
C2767 C 0.78767 0.83717 0.43503 0.0
C2768 C 0.78868 0.82739 0.41607 0.0
C2769 C 0.78967 0.80762 0.35784 0.0
C2770 C 0.78964 0.81325 0.37822 0.0
H2771 H 0.80981 0.8483 0.47872 0.0
H2772 H 0.80971 0.82898 0.44825 0.0
H2773 H 0.76095 0.81338 0.41053 0.0
H2774 H 0.76391 0.80406 0.31726 0.0
H2775 H 0.76394 0.81255 0.35043 0.0
C2776 C 0.4517 0.5643 0.82428 0.0
C2777 C 0.45266 0.5505 0.80892 0.0
C2778 C 0.45915 0.56394 0.8426 0.0
C2779 C 0.49037 0.53992 0.86795 0.0
H2780 H 0.47374 0.56158 0.91247 0.0
C2781 C 0.51321 0.52431 0.94062 0.0
C2782 C 0.51628 0.53854 0.95667 0.0
C2783 C 0.50557 0.52673 0.92333 0.0
C2784 C 0.47872 0.55551 0.90024 0.0
H2785 H 0.46176 0.52494 0.80185 0.0
H2786 H 0.47365 0.52394 0.83269 0.0
H2787 H 0.46031 0.56407 0.88199 0.0
H2788 H 0.51319 0.56672 0.96637 0.0
H2789 H 0.49972 0.57081 0.93646 0.0
H2790 H 0.50855 0.53114 0.88605 0.0
C2791 C 0.468 0.53568 0.83096 0.0
C2792 C 0.47094 0.55699 0.88252 0.0
C2793 C 0.46086 0.53617 0.81289 0.0
C2794 C 0.51117 0.55531 0.95457 0.0
C2795 C 0.50327 0.55764 0.93726 0.0
C2796 C 0.49794 0.53826 0.88555 0.0
C2797 C 0.46773 0.54968 0.84637 0.0
C2798 C 0.47643 0.54903 0.86582 0.0
C2799 C 0.50037 0.54343 0.92114 0.0
C2800 C 0.49227 0.54586 0.90218 0.0
H2801 H 0.44558 0.57563 0.82213 0.0
H2802 H 0.45845 0.57514 0.85374 0.0
H2803 H 0.49578 0.53408 0.85595 0.0
H2804 H 0.5168 0.51114 0.94135 0.0
H2805 H 0.50351 0.51521 0.91163 0.0
C2806 C 0.77359 0.18846 0.07118 0.0
C2807 C 0.7665 0.16901 0.06967 0.0
C2808 C 0.77331 0.20099 0.08745 0.0
C2809 C 0.77276 0.20228 0.13691 0.0
H2810 H 0.76061 0.25036 0.13782 0.0
C2811 C 0.77199 0.24914 0.2058 0.0
C2812 C 0.78035 0.26828 0.20772 0.0
C2813 C 0.76762 0.23765 0.18835 0.0
C2814 C 0.76415 0.23703 0.13775 0.0
H2815 H 0.75316 0.14751 0.08386 0.0
H2816 H 0.75278 0.1694 0.11228 0.0
H2817 H 0.75829 0.22888 0.10819 0.0
H2818 H 0.78996 0.29074 0.19294 0.0
H2819 H 0.78285 0.27043 0.16227 0.0
H2820 H 0.77914 0.21042 0.16621 0.0
C2821 C 0.75863 0.1749 0.1009 0.0
C2822 C 0.7628 0.22477 0.12083 0.0
C2823 C 0.75881 0.16239 0.08461 0.0
C2824 C 0.78349 0.27599 0.1918 0.0
C2825 C 0.77935 0.26438 0.17426 0.0
C2826 C 0.77422 0.21453 0.15373 0.0
C2827 C 0.76604 0.19428 0.10254 0.0
C2828 C 0.76705 0.20726 0.12031 0.0
C2829 C 0.77187 0.24496 0.17244 0.0
C2830 C 0.76986 0.232 0.15438 0.0
H2831 H 0.77953 0.19403 0.05988 0.0
H2832 H 0.77925 0.21584 0.08843 0.0
H2833 H 0.77649 0.18905 0.13686 0.0
H2834 H 0.76944 0.24281 0.21783 0.0
H2835 H 0.76146 0.22285 0.18738 0.0
C2836 C 0.13639 0.53626 0.29943 0.0
C2837 C 0.12277 0.53636 0.2858 0.0
C2838 C 0.13637 0.54441 0.31788 0.0
C2839 C 0.11567 0.57614 0.34823 0.0
H2840 H 0.11984 0.54262 0.38265 0.0
C2841 C 0.07039 0.5629 0.40166 0.0
C2842 C 0.07509 0.55452 0.41643 0.0
C2843 C 0.08286 0.56932 0.39034 0.0
C2844 C 0.11921 0.5526 0.37355 0.0
H2845 H 0.0985 0.5452 0.28084 0.0
H2846 H 0.0982 0.55893 0.31313 0.0
H2847 H 0.12891 0.53598 0.35224 0.0
H2848 H 0.09687 0.54879 0.43274 0.0
H2849 H 0.11881 0.56012 0.41294 0.0
H2850 H 0.10486 0.59206 0.36926 0.0
C2851 C 0.10912 0.55294 0.30946 0.0
C2852 C 0.12434 0.54869 0.35599 0.0
C2853 C 0.10913 0.54479 0.29101 0.0
C2854 C 0.09287 0.55473 0.42107 0.0
C2855 C 0.10541 0.56129 0.40981 0.0
C2856 C 0.11058 0.58011 0.36586 0.0
C2857 C 0.12274 0.55282 0.32308 0.0
C2858 C 0.12165 0.55978 0.34282 0.0
C2859 C 0.10026 0.56749 0.39364 0.0
C2860 C 0.11126 0.56768 0.37826 0.0
H2861 H 0.1472 0.53003 0.29587 0.0
H2862 H 0.14703 0.54411 0.32808 0.0
H2863 H 0.11391 0.58521 0.33846 0.0
H2864 H 0.05677 0.56298 0.39784 0.0
H2865 H 0.07837 0.57391 0.37797 0.0
C2866 C 0.81141 0.87015 0.59739 0.0
C2867 C 0.79957 0.86194 0.58126 0.0
C2868 C 0.81021 0.86213 0.61331 0.0
C2869 C 0.78864 0.81831 0.62988 0.0
H2870 H 0.79964 0.85152 0.67796 0.0
C2871 C 0.76763 0.79511 0.69751 0.0
C2872 C 0.78142 0.79809 0.71194 0.0
C2873 C 0.7704 0.80318 0.68181 0.0
C2874 C 0.79661 0.84211 0.66461 0.0
H2875 H 0.77719 0.83891 0.56916 0.0
H2876 H 0.77456 0.82541 0.59696 0.0
H2877 H 0.80351 0.86476 0.64995 0.0
H2878 H 0.80879 0.81211 0.72139 0.0
H2879 H 0.8134 0.8269 0.69422 0.0
H2880 H 0.78102 0.7958 0.64471 0.0
C2881 C 0.78521 0.83765 0.59731 0.0
C2882 C 0.79894 0.84964 0.64851 0.0
C2883 C 0.78663 0.84546 0.58131 0.0
C2884 C 0.79788 0.80973 0.71058 0.0
C2885 C 0.80054 0.81814 0.69504 0.0
C2886 C 0.78598 0.81087 0.64595 0.0
C2887 C 0.79692 0.8459 0.61361 0.0
C2888 C 0.79496 0.83785 0.63087 0.0
C2889 C 0.78689 0.8147 0.68039 0.0
C2890 C 0.78991 0.82269 0.66344 0.0
H2891 H 0.82158 0.88282 0.59774 0.0
H2892 H 0.81973 0.86872 0.62538 0.0
H2893 H 0.78581 0.80866 0.61669 0.0
H2894 H 0.7548 0.78619 0.69815 0.0
H2895 H 0.75963 0.80043 0.67074 0.0
C2896 C 0.72283 0.4274 0.50146 0.0
C2897 C 0.73673 0.43063 0.5157 0.0
C2898 C 0.70991 0.43762 0.50331 0.0
C2899 C 0.70641 0.48352 0.52851 0.0
H2900 H 0.65809 0.46753 0.50491 0.0
C2901 C 0.65629 0.52983 0.53546 0.0
C2902 C 0.64613 0.53023 0.51897 0.0
C2903 C 0.66729 0.51744 0.53558 0.0
C2904 C 0.67161 0.47214 0.51147 0.0
H2905 H 0.74751 0.44539 0.54351 0.0
H2906 H 0.72442 0.4624 0.54729 0.0
H2907 H 0.67582 0.44433 0.50552 0.0
H2908 H 0.64033 0.51878 0.48947 0.0
H2909 H 0.65943 0.49692 0.48978 0.0
H2910 H 0.70212 0.51126 0.53458 0.0
C2911 C 0.72376 0.45269 0.5344 0.0
C2912 C 0.68173 0.4589 0.51183 0.0
C2913 C 0.73684 0.44284 0.53237 0.0
C2914 C 0.64779 0.51858 0.50244 0.0
C2915 C 0.65864 0.50605 0.50261 0.0
C2916 C 0.69623 0.49666 0.52833 0.0
C2917 C 0.71068 0.45095 0.51955 0.0
C2918 C 0.6993 0.46448 0.52026 0.0
C2919 C 0.6682 0.50515 0.51925 0.0
C2920 C 0.67883 0.49112 0.51966 0.0
H2921 H 0.72272 0.41813 0.48843 0.0
H2922 H 0.70008 0.436 0.49157 0.0
H2923 H 0.72003 0.48844 0.53469 0.0
H2924 H 0.65509 0.53839 0.54847 0.0
H2925 H 0.67452 0.51693 0.54859 0.0
C2926 C 0.21367 0.12777 0.48033 0.0
C2927 C 0.21742 0.14731 0.4809 0.0
C2928 C 0.19655 0.11766 0.48108 0.0
C2929 C 0.15375 0.12299 0.49558 0.0
H2930 H 0.13731 0.07265 0.4661 0.0
C2931 C 0.09283 0.06851 0.50916 0.0
C2932 C 0.08266 0.0557 0.49385 0.0
C2933 C 0.10822 0.08128 0.50682 0.0
C2934 C 0.14154 0.08677 0.47426 0.0
H2935 H 0.20606 0.17157 0.48256 0.0
H2936 H 0.17598 0.15378 0.48364 0.0
H2937 H 0.16592 0.0918 0.46281 0.0
H2938 H 0.07992 0.04688 0.46403 0.0
H2939 H 0.10646 0.06937 0.45986 0.0
H2940 H 0.12917 0.11796 0.50685 0.0
C2941 C 0.18639 0.14635 0.48284 0.0
C2942 C 0.15809 0.09768 0.47255 0.0
C2943 C 0.20359 0.15651 0.4821 0.0
C2944 C 0.08767 0.05643 0.47611 0.0
C2945 C 0.10293 0.06927 0.47374 0.0
C2946 C 0.13711 0.11207 0.49726 0.0
C2947 C 0.18268 0.12679 0.48236 0.0
C2948 C 0.16452 0.11582 0.48336 0.0
C2949 C 0.11364 0.08156 0.48911 0.0
C2950 C 0.13087 0.09374 0.48673 0.0
H2951 H 0.22403 0.12026 0.4795 0.0
H2952 H 0.19426 0.10268 0.48101 0.0
H2953 H 0.15834 0.13686 0.50421 0.0
H2954 H 0.08921 0.06826 0.523 0.0
H2955 H 0.11619 0.09043 0.51898 0.0
C2956 C 0.21022 0.9609 0.76559 0.0
C2957 C 0.19167 0.95808 0.76442 0.0
C2958 C 0.21868 0.94567 0.76511 0.0
C2959 C 0.21057 0.8927 0.76815 0.0
H2960 H 0.25649 0.89753 0.75135 0.0
C2961 C 0.24487 0.82778 0.75887 0.0
C2962 C 0.26349 0.83102 0.76051 0.0
C2963 C 0.23611 0.8428 0.7593 0.0
C2964 C 0.24377 0.89572 0.75636 0.0
H2965 H 0.16784 0.93596 0.76171 0.0
H2966 H 0.18223 0.90982 0.76065 0.0
H2967 H 0.24202 0.92338 0.75221 0.0
H2968 H 0.28705 0.85366 0.76401 0.0
H2969 H 0.27217 0.87931 0.76488 0.0
H2970 H 0.21233 0.86496 0.77222 0.0
C2971 C 0.19052 0.92389 0.76225 0.0
C2972 C 0.23527 0.9109 0.75687 0.0
C2973 C 0.18208 0.93913 0.76274 0.0
C2974 C 0.27279 0.85013 0.76259 0.0
C2975 C 0.26406 0.8651 0.76297 0.0
C2976 C 0.21907 0.87749 0.76762 0.0
C2977 C 0.20913 0.92663 0.7634 0.0
C2978 C 0.21838 0.90996 0.76281 0.0
C2979 C 0.24542 0.86199 0.76133 0.0
C2980 C 0.23599 0.87849 0.76175 0.0
H2981 H 0.21835 0.97505 0.76696 0.0
H2982 H 0.23292 0.94906 0.76636 0.0
H2983 H 0.19783 0.89089 0.77315 0.0
H2984 H 0.23694 0.81351 0.75724 0.0
H2985 H 0.22186 0.83918 0.75775 0.0
C2986 C 0.3431 0.95834 0.02228 0.0
C2987 C 0.33199 0.96513 0.01053 0.0
C2988 C 0.36098 0.96704 0.02626 0.0
C2989 C 0.39551 0.99352 0.00449 0.0
H2990 H 0.42449 0.99418 0.05003 0.0
C2991 C 0.47372 0.01502 0.03354 0.0
C2992 C 0.47972 0.00638 0.01769 0.0
C2993 C 0.45571 0.01142 0.03516 0.0
C2994 C 0.41655 0.99426 0.03731 0.0
H2995 H 0.33068 0.98718 0.99478 0.0
H2996 H 0.36207 1.00254 0.00187 0.0
H2997 H 0.39245 0.98799 0.04925 0.0
H2998 H 0.47181 0.98598 0.99194 0.0
H2999 H 0.44054 0.97955 0.99493 0.0
H3000 H 0.41948 0.99963 0.99249 0.0
C3001 C 0.35691 0.99025 0.00774 0.0
C3002 C 0.39824 0.99064 0.03683 0.0
C3003 C 0.33895 0.98149 0.00371 0.0
C3004 C 0.46758 0.99309 0.00418 0.0
C3005 C 0.44966 0.9895 0.00581 0.0
C3006 C 0.41373 0.99714 0.00499 0.0
C3007 C 0.36817 0.98278 0.01864 0.0
C3008 C 0.38753 0.98976 0.02026 0.0
C3009 C 0.44351 0.99914 0.02095 0.0
C3010 C 0.42438 0.997 0.02122 0.0
H3011 H 0.33814 0.94584 0.02793 0.0
H3012 H 0.36931 0.96077 0.0345 0.0
H3013 H 0.38765 0.99276 0.99147 0.0
H3014 H 0.48279 0.02524 0.04425 0.0
H3015 H 0.45129 0.01893 0.04703 0.0
C3016 C 0.89661 0.60183 0.79178 0.0
C3017 C 0.89078 0.58243 0.79152 0.0
C3018 C 0.88449 0.61289 0.79048 0.0
C3019 C 0.839 0.60802 0.77094 0.0
H3020 H 0.84732 0.66017 0.79552 0.0
C3021 C 0.79043 0.65526 0.76051 0.0
C3022 C 0.79816 0.67397 0.75934 0.0
C3023 C 0.801 0.64333 0.76497 0.0
C3024 C 0.8449 0.64565 0.78845 0.0
H3025 H 0.8678 0.55967 0.7911 0.0
H3026 H 0.84665 0.57909 0.78905 0.0
H3027 H 0.86704 0.64107 0.80445 0.0
H3028 H 0.82289 0.69454 0.76052 0.0
H3029 H 0.84132 0.67373 0.76813 0.0
H3030 H 0.81701 0.61272 0.75472 0.0
C3031 C 0.86056 0.58564 0.7899 0.0
C3032 C 0.85615 0.63473 0.79361 0.0
C3033 C 0.87269 0.57457 0.79122 0.0
C3034 C 0.8166 0.68028 0.76177 0.0
C3035 C 0.82713 0.6684 0.76618 0.0
C3036 C 0.82773 0.61896 0.76578 0.0
C3037 C 0.86631 0.60477 0.78891 0.0
C3038 C 0.85345 0.61587 0.78474 0.0
C3039 C 0.81944 0.64996 0.76826 0.0
C3040 C 0.83074 0.63797 0.77429 0.0
H3041 H 0.91047 0.60828 0.792 0.0
H3042 H 0.88932 0.62758 0.78965 0.0
H3043 H 0.83675 0.59361 0.76364 0.0
H3044 H 0.77623 0.65011 0.75872 0.0
H3045 H 0.79474 0.62917 0.76649 0.0
C3046 C 0.81588 0.62325 0.00502 0.0
C3047 C 0.81341 0.63695 0.9946 0.0
C3048 C 0.83124 0.61679 0.00512 0.0
C3049 C 0.87736 0.62704 0.99464 0.0
H3050 H 0.87072 0.57318 0.99205 0.0
C3051 C 0.93478 0.59015 0.00589 0.0
C3052 C 0.93306 0.57234 0.99477 0.0
C3053 C 0.921 0.59934 0.00512 0.0
C3054 C 0.87284 0.58823 0.99261 0.0
H3055 H 0.82549 0.65499 0.97648 0.0
H3056 H 0.85238 0.64332 0.97633 0.0
H3057 H 0.84533 0.58676 0.99198 0.0
H3058 H 0.91603 0.55083 0.97327 0.0
H3059 H 0.89217 0.56677 0.97191 0.0
H3060 H 0.905 0.62828 0.99496 0.0
C3061 C 0.84239 0.63777 0.98459 0.0
C3062 C 0.85827 0.59607 0.9928 0.0
C3063 C 0.82695 0.64437 0.98459 0.0
C3064 C 0.91761 0.56431 0.98237 0.0
C3065 C 0.90392 0.57346 0.98158 0.0
C3066 C 0.89203 0.61914 0.99445 0.0
C3067 C 0.84458 0.62368 0.99467 0.0
C3068 C 0.8603 0.61557 0.99393 0.0
C3069 C 0.90527 0.5909 0.99319 0.0
C3070 C 0.88991 0.59962 0.9934 0.0
H3071 H 0.80589 0.61743 0.01318 0.0
H3072 H 0.83265 0.60629 0.0134 0.0
H3073 H 0.87939 0.64213 0.99564 0.0
H3074 H 0.9465 0.59668 0.01562 0.0
H3075 H 0.92242 0.61272 0.01432 0.0
C3076 C 0.2072 0.08068 0.76804 0.0
C3077 C 0.18886 0.07732 0.76883 0.0
C3078 C 0.21748 0.09898 0.76738 0.0
C3079 C 0.21285 0.14706 0.75781 0.0
H3080 H 0.26162 0.16394 0.77952 0.0
C3081 C 0.25411 0.22584 0.76261 0.0
C3082 C 0.27233 0.22882 0.76128 0.0
C3083 C 0.24372 0.20767 0.76354 0.0
C3084 C 0.24806 0.15955 0.77312 0.0
H3085 H 0.16745 0.09149 0.77003 0.0
H3086 H 0.18497 0.12259 0.76926 0.0
H3087 H 0.24494 0.13236 0.7809 0.0
H3088 H 0.2935 0.2144 0.75967 0.0
H3089 H 0.2758 0.18349 0.76097 0.0
H3090 H 0.216 0.17428 0.75004 0.0
C3091 C 0.19158 0.1112 0.76865 0.0
C3092 C 0.23839 0.14117 0.77392 0.0
C3093 C 0.18141 0.09309 0.76928 0.0
C3094 C 0.2796 0.21297 0.76077 0.0
C3095 C 0.26935 0.195 0.7617 0.0
C3096 C 0.22253 0.16545 0.75701 0.0
C3097 C 0.20983 0.11466 0.76746 0.0
C3098 C 0.22051 0.13443 0.76631 0.0
C3099 C 0.25117 0.19183 0.76328 0.0
C3100 C 0.24042 0.17216 0.76459 0.0
H3101 H 0.21359 0.06912 0.76755 0.0
H3102 H 0.23141 0.10069 0.76636 0.0
H3103 H 0.19931 0.14267 0.75138 0.0
H3104 H 0.24793 0.23756 0.76324 0.0
H3105 H 0.22986 0.20617 0.76487 0.0
C3106 C 0.38758 0.97517 0.26992 0.0
C3107 C 0.40187 0.97831 0.25963 0.0
C3108 C 0.37526 0.95783 0.26621 0.0
C3109 C 0.37109 0.90818 0.24506 0.0
H3110 H 0.32221 0.90347 0.2532 0.0
C3111 C 0.32217 0.83613 0.23783 0.0
C3112 C 0.31365 0.83401 0.25366 0.0
C3113 C 0.33119 0.85392 0.23553 0.0
C3114 C 0.33582 0.90464 0.25081 0.0
H3115 H 0.41401 0.96621 0.23677 0.0
H3116 H 0.39224 0.93616 0.22992 0.0
H3117 H 0.34128 0.93466 0.25421 0.0
H3118 H 0.30734 0.8489 0.27914 0.0
H3119 H 0.32313 0.87999 0.2751 0.0
H3120 H 0.3656 0.87816 0.24178 0.0
C3121 C 0.39083 0.94683 0.24124 0.0
C3122 C 0.34676 0.92245 0.25148 0.0
C3123 C 0.40328 0.96405 0.24515 0.0
C3124 C 0.3139 0.85007 0.26688 0.0
C3125 C 0.32277 0.86787 0.26448 0.0
C3126 C 0.3601 0.89039 0.24416 0.0
C3127 C 0.37684 0.94339 0.25195 0.0
C3128 C 0.36464 0.92445 0.24907 0.0
C3129 C 0.33167 0.86991 0.24892 0.0
C3130 C 0.3425 0.88851 0.24747 0.0
H3131 H 0.38616 0.98593 0.28117 0.0
H3132 H 0.36483 0.95559 0.27493 0.0
H3133 H 0.38483 0.90918 0.24342 0.0
H3134 H 0.32221 0.82401 0.22739 0.0
H3135 H 0.33793 0.85518 0.22338 0.0
C3136 C 0.56494 0.35582 0.5724 0.0
C3137 C 0.57269 0.35896 0.5909 0.0
C3138 C 0.56301 0.37099 0.56394 0.0
C3139 C 0.58114 0.42139 0.56557 0.0
H3140 H 0.5351 0.42102 0.54177 0.0
C3141 C 0.56643 0.48768 0.54138 0.0
C3142 C 0.55336 0.4853 0.52637 0.0
C3143 C 0.5695 0.47209 0.54847 0.0
C3144 C 0.54818 0.4213 0.54798 0.0
H3145 H 0.58479 0.38055 0.61489 0.0
H3146 H 0.58183 0.40703 0.59995 0.0
H3147 H 0.5392 0.39416 0.55517 0.0
H3148 H 0.53387 0.46457 0.50642 0.0
H3149 H 0.53979 0.43742 0.51803 0.0
H3150 H 0.59035 0.44822 0.55801 0.0
C3151 C 0.57711 0.39281 0.59206 0.0
C3152 C 0.55046 0.40587 0.55578 0.0
C3153 C 0.57872 0.37764 0.60064 0.0
C3154 C 0.54392 0.46692 0.51814 0.0
C3155 C 0.54722 0.45132 0.52497 0.0
C3156 C 0.57896 0.4367 0.55746 0.0
C3157 C 0.56913 0.38966 0.57367 0.0
C3158 C 0.56692 0.4058 0.5648 0.0
C3159 C 0.5598 0.45363 0.5405 0.0
C3160 C 0.56239 0.43699 0.54864 0.0
H3161 H 0.56014 0.34161 0.56452 0.0
H3162 H 0.55688 0.36815 0.54971 0.0
H3163 H 0.59403 0.42165 0.57229 0.0
H3164 H 0.57385 0.50166 0.54814 0.0
H3165 H 0.57913 0.47464 0.56058 0.0
C3166 C 0.44196 0.7486 0.36261 0.0
C3167 C 0.45471 0.7658 0.36714 0.0
C3168 C 0.42503 0.74783 0.35407 0.0
C3169 C 0.40199 0.77621 0.32745 0.0
H3170 H 0.3596 0.7403 0.3335 0.0
C3171 C 0.33364 0.78056 0.29672 0.0
C3172 C 0.32352 0.76394 0.28524 0.0
C3173 C 0.34851 0.7802 0.3084 0.0
C3174 C 0.37136 0.75038 0.33168 0.0
H3175 H 0.45943 0.79581 0.36759 0.0
H3176 H 0.42999 0.79472 0.35382 0.0
H3177 H 0.38773 0.74089 0.35102 0.0
H3178 H 0.32038 0.73376 0.27777 0.0
H3179 H 0.34626 0.73309 0.29851 0.0
H3180 H 0.38561 0.78591 0.30843 0.0
C3181 C 0.43306 0.7816 0.35585 0.0
C3182 C 0.38752 0.75067 0.34164 0.0
C3183 C 0.44996 0.78229 0.36394 0.0
C3184 C 0.32799 0.74679 0.28643 0.0
C3185 C 0.34275 0.74639 0.29833 0.0
C3186 C 0.38588 0.77611 0.3178 0.0
C3187 C 0.42048 0.76432 0.35022 0.0
C3188 C 0.40309 0.76367 0.33971 0.0
C3189 C 0.35343 0.76317 0.30906 0.0
C3190 C 0.37037 0.76324 0.3198 0.0
H3191 H 0.44529 0.73567 0.3649 0.0
H3192 H 0.41578 0.73423 0.3499 0.0
H3193 H 0.41365 0.78603 0.32502 0.0
H3194 H 0.33049 0.79398 0.29616 0.0
H3195 H 0.3564 0.79332 0.31666 0.0
C3196 C 0.06399 0.74276 0.07825 0.0
C3197 C 0.06968 0.74593 0.09738 0.0
C3198 C 0.06085 0.72459 0.06744 0.0
C3199 C 0.07279 0.6791 0.06811 0.0
H3200 H 0.0318 0.65738 0.03153 0.0
C3201 C 0.06261 0.60398 0.02778 0.0
C3202 C 0.04555 0.59225 0.02565 0.0
C3203 C 0.06548 0.62344 0.03344 0.0
C3204 C 0.04328 0.66323 0.04175 0.0
H3205 H 0.07599 0.73228 0.12014 0.0
H3206 H 0.0704 0.70105 0.10154 0.0
H3207 H 0.03683 0.6901 0.04772 0.0
H3208 H 0.01798 0.59182 0.027 0.0
H3209 H 0.02304 0.62584 0.0376 0.0
H3210 H 0.07896 0.65229 0.06299 0.0
C3211 C 0.06871 0.71253 0.09472 0.0
C3212 C 0.04626 0.68204 0.05086 0.0
C3213 C 0.07183 0.73052 0.10544 0.0
C3214 C 0.03129 0.6005 0.02859 0.0
C3215 C 0.0342 0.62003 0.03454 0.0
C3216 C 0.06981 0.6604 0.05913 0.0
C3217 C 0.06342 0.70933 0.07557 0.0
C3218 C 0.0609 0.69005 0.06441 0.0
C3219 C 0.0514 0.6317 0.03745 0.0
C3220 C 0.05492 0.65209 0.04597 0.0
H3221 H 0.06216 0.7543 0.07161 0.0
H3222 H 0.0568 0.72257 0.05269 0.0
H3223 H 0.08436 0.6849 0.07825 0.0
H3224 H 0.07385 0.59811 0.02526 0.0
H3225 H 0.07884 0.63199 0.03499 0.0
C3226 C 0.05299 0.24959 0.85492 0.0
C3227 C 0.0541 0.2529 0.87436 0.0
C3228 C 0.06812 0.24972 0.84611 0.0
C3229 C 0.11677 0.26701 0.85423 0.0
H3230 H 0.11453 0.23207 0.80825 0.0
C3231 C 0.17837 0.26244 0.81691 0.0
C3232 C 0.17622 0.26158 0.7976 0.0
C3233 C 0.16377 0.26038 0.82679 0.0
C3234 C 0.11534 0.24201 0.82102 0.0
H3235 H 0.07201 0.25869 0.8998 0.0
H3236 H 0.0984 0.25866 0.88443 0.0
H3237 H 0.08862 0.23024 0.8246 0.0
H3238 H 0.15682 0.25793 0.77367 0.0
H3239 H 0.13148 0.25402 0.7908 0.0
H3240 H 0.14354 0.27875 0.85058 0.0
C3241 C 0.08585 0.25626 0.87597 0.0
C3242 C 0.10047 0.24099 0.83039 0.0
C3243 C 0.0707 0.25616 0.88479 0.0
C3244 C 0.15904 0.2583 0.78843 0.0
C3245 C 0.14446 0.25611 0.79828 0.0
C3246 C 0.13168 0.26796 0.84489 0.0
C3247 C 0.08477 0.2531 0.8565 0.0
C3248 C 0.10091 0.25361 0.84702 0.0
C3249 C 0.14664 0.25726 0.81759 0.0
C3250 C 0.13109 0.2556 0.82806 0.0
H3251 H 0.04042 0.2471 0.84646 0.0
H3252 H 0.06678 0.24753 0.83112 0.0
H3253 H 0.11756 0.27713 0.86685 0.0
H3254 H 0.19135 0.26466 0.82444 0.0
H3255 H 0.16589 0.2611 0.84162 0.0
C3256 C 0.56176 0.74231 0.89684 0.0
C3257 C 0.57085 0.76038 0.90629 0.0
C3258 C 0.55559 0.7281 0.90665 0.0
C3259 C 0.54503 0.72029 0.95322 0.0
H3260 H 0.55067 0.67004 0.93531 0.0
C3261 C 0.54207 0.66298 0.99805 0.0
C3262 C 0.53449 0.64418 0.98947 0.0
C3263 C 0.54377 0.67733 0.98771 0.0
C3264 C 0.54872 0.68392 0.94033 0.0
H3265 H 0.58074 0.77773 0.93343 0.0
H3266 H 0.57034 0.7528 0.95055 0.0
H3267 H 0.55957 0.6947 0.91754 0.0
H3268 H 0.52158 0.6258 0.9637 0.0
H3269 H 0.52459 0.65088 0.94562 0.0
H3270 H 0.53459 0.70951 0.97631 0.0
C3271 C 0.56765 0.7497 0.93557 0.0
C3272 C 0.55383 0.69806 0.93015 0.0
C3273 C 0.57375 0.76394 0.92575 0.0
C3274 C 0.52779 0.64013 0.97059 0.0
C3275 C 0.5295 0.65446 0.96025 0.0
C3276 C 0.53997 0.70614 0.96345 0.0
C3277 C 0.55845 0.73164 0.92613 0.0
C3278 C 0.55221 0.71645 0.93656 0.0
C3279 C 0.53792 0.67312 0.9686 0.0
C3280 C 0.54191 0.68785 0.95718 0.0
H3281 H 0.55919 0.7392 0.88184 0.0
H3282 H 0.54836 0.7144 0.89898 0.0
H3283 H 0.54333 0.73425 0.95836 0.0
H3284 H 0.5475 0.66651 0.01254 0.0
H3285 H 0.55045 0.69156 0.99448 0.0
C3286 C 0.04945 0.78473 0.69919 0.0
C3287 C 0.04769 0.77928 0.67982 0.0
C3288 C 0.06601 0.78912 0.70963 0.0
C3289 C 0.11405 0.79821 0.70582 0.0
H3290 H 0.1151 0.77107 0.7465 0.0
C3291 C 0.17087 0.76668 0.72591 0.0
C3292 C 0.17699 0.76852 0.74471 0.0
C3293 C 0.15605 0.77289 0.72074 0.0
C3294 C 0.11501 0.77908 0.73546 0.0
H3295 H 0.06189 0.77515 0.65607 0.0
H3296 H 0.09067 0.78234 0.67423 0.0
H3297 H 0.08694 0.77389 0.73214 0.0
H3298 H 0.17264 0.77837 0.77289 0.0
H3299 H 0.14618 0.78893 0.76373 0.0
H3300 H 0.14208 0.80227 0.70843 0.0
C3301 C 0.07937 0.78354 0.68141 0.0
C3302 C 0.0989 0.78075 0.72724 0.0
C3303 C 0.06285 0.77925 0.67098 0.0
C3304 C 0.16809 0.77679 0.7583 0.0
C3305 C 0.15304 0.78281 0.7531 0.0
C3306 C 0.13012 0.79641 0.71394 0.0
C3307 C 0.08108 0.78808 0.70087 0.0
C3308 C 0.09821 0.78971 0.71187 0.0
C3309 C 0.14698 0.78096 0.73425 0.0
C3310 C 0.13064 0.78623 0.72837 0.0
H3311 H 0.03799 0.78508 0.70635 0.0
H3312 H 0.06695 0.79283 0.72458 0.0
H3313 H 0.11396 0.80555 0.69426 0.0
H3314 H 0.17766 0.76059 0.71518 0.0
H3315 H 0.15146 0.77104 0.70612 0.0
C3316 C 0.08261 0.36618 0.42212 0.0
C3317 C 0.0864 0.36891 0.40432 0.0
C3318 C 0.08074 0.38117 0.4353 0.0
C3319 C 0.08981 0.43313 0.44672 0.0
H3320 H 0.04958 0.42317 0.47397 0.0
C3321 C 0.04394 0.47648 0.49 0.0
C3322 C 0.0569 0.49088 0.50149 0.0
C3323 C 0.04861 0.46141 0.47935 0.0
C3324 C 0.06084 0.42617 0.46643 0.0
H3325 H 0.09166 0.38965 0.38656 0.0
H3326 H 0.08807 0.41576 0.4095 0.0
H3327 H 0.0562 0.39742 0.45293 0.0
H3328 H 0.08482 0.50087 0.51116 0.0
H3329 H 0.09302 0.47432 0.49265 0.0
H3330 H 0.09404 0.46205 0.45975 0.0
C3331 C 0.08679 0.40206 0.41332 0.0
C3332 C 0.06476 0.41139 0.45455 0.0
C3333 C 0.08872 0.38707 0.40014 0.0
C3334 C 0.07459 0.48991 0.50236 0.0
C3335 C 0.07928 0.47481 0.49171 0.0
C3336 C 0.08588 0.44793 0.45861 0.0
C3337 C 0.08256 0.3992 0.43095 0.0
C3338 C 0.07917 0.41475 0.44442 0.0
C3339 C 0.06633 0.46044 0.48006 0.0
C3340 C 0.07122 0.44462 0.46839 0.0
H3341 H 0.08092 0.35241 0.42586 0.0
H3342 H 0.07775 0.37862 0.44887 0.0
H3343 H 0.10111 0.43609 0.43922 0.0
H3344 H 0.03019 0.47692 0.48911 0.0
H3345 H 0.03837 0.45069 0.4703 0.0
C3346 C 0.45095 0.22542 0.20157 0.0
C3347 C 0.45293 0.23312 0.18543 0.0
C3348 C 0.43509 0.22336 0.20914 0.0
C3349 C 0.40741 0.23859 0.22891 0.0
H3350 H 0.36095 0.2238 0.20059 0.0
C3351 C 0.35071 0.27189 0.2471 0.0
C3352 C 0.33366 0.26026 0.24535 0.0
C3353 C 0.36466 0.26429 0.24186 0.0
C3354 C 0.3738 0.22764 0.20875 0.0
H3355 H 0.43946 0.24347 0.16388 0.0
H3356 H 0.41176 0.23993 0.17719 0.0
H3357 H 0.38621 0.21686 0.18594 0.0
H3358 H 0.31789 0.23145 0.23735 0.0
H3359 H 0.34238 0.21825 0.22783 0.0
H3360 H 0.39517 0.25024 0.2514 0.0
C3361 C 0.42249 0.23546 0.18393 0.0
C3362 C 0.38822 0.22381 0.20034 0.0
C3363 C 0.4384 0.23764 0.1764 0.0
C3364 C 0.33091 0.24078 0.2388 0.0
C3365 C 0.34485 0.23321 0.23333 0.0
C3366 C 0.39304 0.24258 0.23724 0.0
C3367 C 0.42087 0.22881 0.20064 0.0
C3368 C 0.40521 0.22974 0.21021 0.0
C3369 C 0.36178 0.24497 0.23462 0.0
C3370 C 0.37623 0.23765 0.22705 0.0
H3371 H 0.46185 0.22164 0.20879 0.0
H3372 H 0.4341 0.21806 0.22196 0.0
H3373 H 0.42039 0.24346 0.23679 0.0
H3374 H 0.35325 0.28693 0.2522 0.0
H3375 H 0.37758 0.27367 0.24279 0.0
C3376 C 0.61108 0.52067 0.32416 0.0
C3377 C 0.6276 0.51645 0.32179 0.0
C3378 C 0.6041 0.52151 0.34128 0.0
C3379 C 0.60893 0.51024 0.39027 0.0
H3380 H 0.57687 0.54277 0.39844 0.0
C3381 C 0.577 0.52293 0.46139 0.0
C3382 C 0.55943 0.52491 0.46009 0.0
C3383 C 0.58651 0.52233 0.44562 0.0
C3384 C 0.5856 0.53337 0.39654 0.0
H3385 H 0.64938 0.50946 0.33681 0.0
H3386 H 0.63734 0.51111 0.36681 0.0
H3387 H 0.59073 0.54077 0.37027 0.0
H3388 H 0.53845 0.52748 0.44044 0.0
H3389 H 0.55469 0.52689 0.41374 0.0
H3390 H 0.60385 0.50323 0.41702 0.0
C3391 C 0.62962 0.51367 0.35507 0.0
C3392 C 0.59367 0.53212 0.38001 0.0
C3393 C 0.63665 0.51271 0.33767 0.0
C3394 C 0.55198 0.52635 0.4424 0.0
C3395 C 0.56146 0.52602 0.42685 0.0
C3396 C 0.60088 0.51161 0.40699 0.0
C3397 C 0.61319 0.51839 0.35741 0.0
C3398 C 0.60536 0.52027 0.37613 0.0
C3399 C 0.57895 0.52384 0.42788 0.0
C3400 C 0.58875 0.52301 0.41046 0.0
H3401 H 0.60328 0.52344 0.31258 0.0
H3402 H 0.59125 0.52452 0.34165 0.0
H3403 H 0.61768 0.50087 0.3883 0.0
H3404 H 0.58319 0.52102 0.47434 0.0
H3405 H 0.59986 0.52062 0.4474 0.0
C3406 C 0.31245 0.90473 0.07194 0.0
C3407 C 0.30522 0.89214 0.05526 0.0
C3408 C 0.32121 0.89876 0.08622 0.0
C3409 C 0.34187 0.86077 0.09656 0.0
H3410 H 0.32435 0.86991 0.144 0.0
C3411 C 0.33165 0.80799 0.14439 0.0
C3412 C 0.33135 0.81413 0.16337 0.0
C3413 C 0.33593 0.82107 0.1329 0.0
C3414 C 0.32988 0.86765 0.13108 0.0
H3415 H 0.30172 0.86354 0.0403 0.0
H3416 H 0.31675 0.85302 0.06536 0.0
H3417 H 0.31685 0.88657 0.11998 0.0
H3418 H 0.33726 0.8385 0.18567 0.0
H3419 H 0.34484 0.86143 0.16554 0.0
H3420 H 0.35415 0.84109 0.10742 0.0
C3421 C 0.31589 0.86759 0.06728 0.0
C3422 C 0.3255 0.87716 0.11726 0.0
C3423 C 0.30708 0.87353 0.05303 0.0
C3424 C 0.33703 0.83346 0.17097 0.0
C3425 C 0.3414 0.84655 0.15948 0.0
C3426 C 0.34633 0.8513 0.11043 0.0
C3427 C 0.32298 0.88012 0.08403 0.0
C3428 C 0.33078 0.87316 0.09962 0.0
C3429 C 0.34004 0.84051 0.14022 0.0
C3430 C 0.33967 0.85398 0.12752 0.0
H3431 H 0.31134 0.91922 0.07399 0.0
H3432 H 0.32657 0.90869 0.099 0.0
H3433 H 0.3464 0.85775 0.08316 0.0
H3434 H 0.32727 0.79318 0.13819 0.0
H3435 H 0.33457 0.81592 0.1181 0.0
C3436 C 0.98902 0.53981 0.82302 0.0
C3437 C 0.97402 0.54707 0.82104 0.0
C3438 C 0.99742 0.54029 0.84058 0.0
C3439 C 0.003 0.56267 0.8896 0.0
H3440 H 0.01213 0.51515 0.89799 0.0
C3441 C 0.04385 0.55462 0.95558 0.0
C3442 C 0.03687 0.53904 0.96352 0.0
C3443 C 0.03616 0.55645 0.93841 0.0
C3444 C 0.00959 0.52848 0.89587 0.0
H3445 H 0.95663 0.56141 0.83594 0.0
H3446 H 0.97146 0.56232 0.86668 0.0
H3447 H 0.99922 0.51749 0.86746 0.0
H3448 H 0.01648 0.51317 0.95997 0.0
H3449 H 0.00307 0.51631 0.92988 0.0
H3450 H 0.01332 0.5736 0.91812 0.0
C3451 C 0.97663 0.55623 0.85458 0.0
C3452 C 0.00237 0.52987 0.87837 0.0
C3453 C 0.96812 0.55564 0.83699 0.0
C3454 C 0.0221 0.52532 0.95409 0.0
C3455 C 0.01449 0.52707 0.93688 0.0
C3456 C 0.01039 0.56132 0.9071 0.0
C3457 C 0.9911 0.54815 0.85652 0.0
C3458 C 0.99901 0.54697 0.87507 0.0
C3459 C 0.02147 0.54263 0.92886 0.0
C3460 C 0.01369 0.54419 0.91039 0.0
H3461 H 0.99399 0.53319 0.81104 0.0
H3462 H 0.00873 0.53422 0.8417 0.0
H3463 H 0.00057 0.57601 0.88738 0.0
H3464 H 0.05523 0.5654 0.96264 0.0
H3465 H 0.04189 0.56849 0.93245 0.0
C3466 C 0.26769 0.22239 0.54985 0.0
C3467 C 0.27875 0.21011 0.54619 0.0
C3468 C 0.26947 0.23369 0.56744 0.0
C3469 C 0.29899 0.25244 0.61153 0.0
H3470 H 0.25593 0.24473 0.63456 0.0
C3471 C 0.30002 0.26463 0.69076 0.0
C3472 C 0.28624 0.27091 0.69878 0.0
C3473 C 0.29943 0.2602 0.67151 0.0
C3474 C 0.26804 0.24743 0.62832 0.0
H3475 H 0.30061 0.20029 0.5574 0.0
H3476 H 0.30411 0.22038 0.58795 0.0
H3477 H 0.25484 0.23299 0.60154 0.0
H3478 H 0.26124 0.27795 0.69276 0.0
H3479 H 0.26041 0.27067 0.6592 0.0
H3480 H 0.31226 0.26677 0.63826 0.0
C3481 C 0.29412 0.2214 0.57736 0.0
C3482 C 0.2674 0.24066 0.60936 0.0
C3483 C 0.29214 0.20991 0.55993 0.0
C3484 C 0.27199 0.27296 0.68707 0.0
C3485 C 0.27149 0.26872 0.66779 0.0
C3486 C 0.29963 0.25941 0.63045 0.0
C3487 C 0.28248 0.23299 0.58148 0.0
C3488 C 0.28291 0.2427 0.60086 0.0
C3489 C 0.28514 0.26213 0.65974 0.0
C3490 C 0.28422 0.25656 0.63922 0.0
H3491 H 0.2571 0.22248 0.53948 0.0
H3492 H 0.26036 0.24253 0.57025 0.0
H3493 H 0.31113 0.25436 0.60529 0.0
H3494 H 0.31117 0.26279 0.69934 0.0
H3495 H 0.31002 0.25482 0.6659 0.0
C3496 C 0.64408 0.51364 0.1942 0.0
C3497 C 0.63447 0.50689 0.20812 0.0
C3498 C 0.63559 0.51544 0.17705 0.0
C3499 C 0.59204 0.49987 0.1452 0.0
H3500 H 0.61273 0.5412 0.12173 0.0
C3501 C 0.56456 0.50597 0.06933 0.0
C3502 C 0.56502 0.52404 0.0652 0.0
C3503 C 0.57264 0.50361 0.08652 0.0
C3504 C 0.60657 0.52956 0.12797 0.0
H3505 H 0.60787 0.49661 0.2141 0.0
H3506 H 0.59314 0.4995 0.18437 0.0
H3507 H 0.6269 0.5378 0.15129 0.0
H3508 H 0.57478 0.5538 0.07673 0.0
H3509 H 0.58874 0.54978 0.10618 0.0
H3510 H 0.57166 0.49169 0.12185 0.0
C3511 C 0.60739 0.50342 0.18667 0.0
C3512 C 0.61492 0.52746 0.14508 0.0
C3513 C 0.61591 0.50182 0.20394 0.0
C3514 C 0.57399 0.5396 0.07906 0.0
C3515 C 0.58221 0.53726 0.09613 0.0
C3516 C 0.58378 0.50185 0.12795 0.0
C3517 C 0.61701 0.51041 0.1728 0.0
C3518 C 0.60788 0.51258 0.1542 0.0
C3519 C 0.58177 0.51921 0.10035 0.0
C3520 C 0.59078 0.51681 0.11891 0.0
H3521 H 0.65834 0.51775 0.1966 0.0
H3522 H 0.64374 0.52063 0.16697 0.0
H3523 H 0.58604 0.48808 0.15135 0.0
H3524 H 0.55789 0.49351 0.05924 0.0
H3525 H 0.57195 0.48942 0.0888 0.0
C3526 C 0.28942 0.89315 0.93054 0.0
C3527 C 0.28748 0.88712 0.94752 0.0
C3528 C 0.29372 0.8815 0.91562 0.0
C3529 C 0.28979 0.83235 0.89603 0.0
H3530 H 0.32549 0.85225 0.86636 0.0
C3531 C 0.29859 0.78738 0.82826 0.0
C3532 C 0.29898 0.79682 0.81324 0.0
C3533 C 0.3016 0.79759 0.84641 0.0
C3534 C 0.31547 0.84648 0.87449 0.0
H3535 H 0.28832 0.86407 0.9621 0.0
H3536 H 0.29548 0.84362 0.93587 0.0
H3537 H 0.32112 0.87207 0.89465 0.0
H3538 H 0.30413 0.82422 0.80523 0.0
H3539 H 0.30887 0.84197 0.83666 0.0
H3540 H 0.28338 0.80718 0.8755 0.0
C3541 C 0.29381 0.85741 0.93421 0.0
C3542 C 0.31298 0.85783 0.89065 0.0
C3543 C 0.28972 0.86913 0.94919 0.0
C3544 C 0.30364 0.81659 0.8166 0.0
C3545 C 0.30651 0.82677 0.83467 0.0
C3546 C 0.29211 0.82108 0.87976 0.0
C3547 C 0.29594 0.86354 0.91734 0.0
C3548 C 0.29984 0.85099 0.90131 0.0
C3549 C 0.30494 0.81739 0.84977 0.0
C3550 C 0.30468 0.82818 0.86854 0.0
H3551 H 0.28786 0.90696 0.92886 0.0
H3552 H 0.29507 0.88643 0.90264 0.0
H3553 H 0.2795 0.82679 0.90398 0.0
H3554 H 0.29523 0.77212 0.82599 0.0
H3555 H 0.30065 0.78996 0.85777 0.0
C3556 C 0.9481 0.53446 0.71618 0.0
C3557 C 0.93129 0.53651 0.71978 0.0
C3558 C 0.95026 0.52363 0.69964 0.0
C3559 C 0.94843 0.49042 0.66888 0.0
H3560 H 0.94117 0.51097 0.62461 0.0
C3561 C 0.97767 0.50136 0.59595 0.0
C3562 C 0.99527 0.50741 0.60429 0.0
C3563 C 0.96429 0.49448 0.60617 0.0
C3564 C 0.94274 0.50441 0.63654 0.0
H3565 H 0.90367 0.52967 0.70849 0.0
H3566 H 0.90772 0.51134 0.67896 0.0
H3567 H 0.92716 0.5205 0.65154 0.0
H3568 H 0.01291 0.50905 0.62907 0.0
H3569 H 0.98979 0.49736 0.64689 0.0
H3570 H 0.96498 0.47533 0.65438 0.0
C3571 C 0.91903 0.51769 0.68932 0.0
C3572 C 0.93475 0.51 0.65201 0.0
C3573 C 0.91679 0.52829 0.70608 0.0
C3574 C -0.00053 0.50454 0.62228 0.0
C3575 C 0.98614 0.49767 0.63247 0.0
C3576 C 0.95625 0.48466 0.65335 0.0
C3577 C 0.93572 0.5149 0.68623 0.0
C3578 C 0.93863 0.5041 0.66865 0.0
C3579 C 0.96834 0.49359 0.62488 0.0
C3580 C 0.95464 0.49283 0.63758 0.0
H3581 H 0.95955 0.54069 0.72637 0.0
H3582 H 0.96336 0.52212 0.69727 0.0
H3583 H 0.95128 0.48546 0.68156 0.0
H3584 H 0.97414 0.50293 0.58186 0.0
H3585 H 0.95072 0.49113 0.59985 0.0
C3586 C 0.27233 0.19012 0.41623 0.0
C3587 C 0.28069 0.20092 0.43347 0.0
C3588 C 0.27403 0.19755 0.40002 0.0
C3589 C 0.30314 0.22903 0.37786 0.0
H3590 H 0.26188 0.23543 0.34924 0.0
C3591 C 0.30998 0.27085 0.31845 0.0
C3592 C 0.29651 0.26652 0.30353 0.0
C3593 C 0.30794 0.26201 0.33374 0.0
C3594 C 0.27354 0.23342 0.35676 0.0
H3595 H 0.29762 0.22783 0.44721 0.0
H3596 H 0.30117 0.24054 0.41865 0.0
H3597 H 0.25861 0.2214 0.37685 0.0
H3598 H 0.27048 0.2492 0.29266 0.0
H3599 H 0.26722 0.23283 0.3188 0.0
H3600 H 0.3181 0.24015 0.3576 0.0
C3601 C 0.29307 0.22645 0.41784 0.0
C3602 C 0.27163 0.22552 0.3727 0.0
C3603 C 0.29101 0.21921 0.43413 0.0
C3604 C 0.28107 0.25283 0.304 0.0
C3605 C 0.27916 0.2436 0.31913 0.0
C3606 C 0.30503 0.2365 0.3617 0.0
C3607 C 0.28449 0.21573 0.40068 0.0
C3608 C 0.28644 0.2235 0.3835 0.0
C3609 C 0.29251 0.24821 0.33436 0.0
C3610 C 0.2903 0.2391 0.35101 0.0
H3611 H 0.26422 0.17602 0.41531 0.0
H3612 H 0.26734 0.18902 0.38693 0.0
H3613 H 0.31472 0.22738 0.38588 0.0
H3614 H 0.322 0.28147 0.31856 0.0
H3615 H 0.31838 0.2664 0.34524 0.0
C3616 C 0.31301 0.58336 0.52573 0.0
C3617 C 0.31437 0.60131 0.52127 0.0
C3618 C 0.32695 0.57462 0.52406 0.0
C3619 C 0.36608 0.57538 0.49977 0.0
H3620 H 0.37884 0.54633 0.53572 0.0
C3621 C 0.42957 0.54921 0.50156 0.0
C3622 C 0.42822 0.53056 0.50397 0.0
C3623 C 0.41527 0.55729 0.50337 0.0
C3624 C 0.37526 0.55423 0.52548 0.0
H3625 H 0.33164 0.62448 0.51225 0.0
H3626 H 0.35609 0.60937 0.5097 0.0
H3627 H 0.35503 0.56226 0.54035 0.0
H3628 H 0.41095 0.50562 0.50994 0.0
H3629 H 0.38575 0.51986 0.51317 0.0
H3630 H 0.3865 0.56757 0.48507 0.0
C3631 C 0.3441 0.60188 0.51406 0.0
C3632 C 0.36167 0.56335 0.52812 0.0
C3633 C 0.33013 0.61057 0.51563 0.0
C3634 C 0.41226 0.52002 0.50801 0.0
C3635 C 0.39794 0.52818 0.50997 0.0
C3636 C 0.37972 0.56636 0.49719 0.0
C3637 C 0.34255 0.58371 0.518 0.0
C3638 C 0.35699 0.57407 0.51532 0.0
C3639 C 0.39937 0.54689 0.50769 0.0
C3640 C 0.38446 0.55577 0.51006 0.0
H3641 H 0.30102 0.57584 0.53009 0.0
H3642 H 0.32531 0.56054 0.52703 0.0
H3643 H 0.36254 0.58322 0.48946 0.0
H3644 H 0.4417 0.55754 0.49821 0.0
H3645 H 0.41674 0.57179 0.50168 0.0
C3646 C 0.86494 0.93027 0.54023 0.0
C3647 C 0.85357 0.92841 0.52392 0.0
C3648 C 0.88296 0.93869 0.54119 0.0
C3649 C 0.91356 0.9698 0.51675 0.0
H3650 H 0.95011 0.95616 0.54653 0.0
C3651 C 0.98665 0.99629 0.51026 0.0
C3652 C 0.99664 0.00727 0.52665 0.0
C3653 C 0.96995 0.98499 0.51073 0.0
C3654 C 0.93997 0.96007 0.53821 0.0
H3655 H 0.8522 0.93266 0.4955 0.0
H3656 H 0.88348 0.94627 0.49677 0.0
H3657 H 0.91925 0.93931 0.54546 0.0
H3658 H 0.9976 0.01413 0.55651 0.0
H3659 H 0.96834 0.99389 0.55735 0.0
H3660 H 0.93433 0.9901 0.50907 0.0
C3661 C 0.87858 0.94222 0.50918 0.0
C3662 C 0.9223 0.95054 0.53765 0.0
C3663 C 0.86062 0.93425 0.50838 0.0
C3664 C 0.99008 0.00588 0.54367 0.0
C3665 C 0.97344 0.99428 0.54417 0.0
C3666 C 0.93116 0.979 0.51703 0.0
C3667 C 0.88997 0.94506 0.52573 0.0
C3668 C 0.90885 0.95521 0.5268 0.0
C3669 C 0.96306 0.98417 0.52764 0.0
C3670 C 0.94451 0.97419 0.52768 0.0
H3671 H 0.85981 0.92587 0.55242 0.0
H3672 H 0.89125 0.94072 0.55421 0.0
H3673 H 0.90365 0.97431 0.50872 0.0
H3674 H 0.99142 0.99701 0.49695 0.0
H3675 H 0.9622 0.97721 0.49782 0.0
C3676 C 0.89794 0.12679 0.25875 0.0
C3677 C 0.88834 0.10773 0.25366 0.0
C3678 C 0.88957 0.14212 0.25954 0.0
C3679 C 0.84508 0.15427 0.24616 0.0
H3680 H 0.86783 0.20293 0.27636 0.0
C3681 C 0.80762 0.21608 0.25681 0.0
C3682 C 0.81698 0.23525 0.2601 0.0
C3683 C 0.81631 0.20105 0.25605 0.0
C3684 C 0.86116 0.18959 0.26761 0.0
H3685 H 0.86173 0.09065 0.24554 0.0
H3686 H 0.8473 0.11675 0.24724 0.0
H3687 H 0.88224 0.17693 0.2752 0.0
H3688 H 0.84359 0.25285 0.26522 0.0
H3689 H 0.85858 0.22705 0.26395 0.0
H3690 H 0.82395 0.16693 0.2387 0.0
C3691 C 0.86149 0.12018 0.25034 0.0
C3692 C 0.8696 0.17433 0.2669 0.0
C3693 C 0.86987 0.10488 0.24948 0.0
C3694 C 0.8356 0.23852 0.26269 0.0
C3695 C 0.84433 0.22346 0.26204 0.0
C3696 C 0.83661 0.16949 0.24695 0.0
C3697 C 0.87104 0.13936 0.25535 0.0
C3698 C 0.86185 0.15611 0.25616 0.0
C3699 C 0.83495 0.2042 0.25862 0.0
C3700 C 0.84434 0.18766 0.25772 0.0
H3701 H 0.91212 0.12998 0.26204 0.0
H3702 H 0.8979 0.15625 0.26321 0.0
H3703 H 0.83837 0.14102 0.2373 0.0
H3704 H 0.79335 0.21255 0.25473 0.0
H3705 H 0.80819 0.18681 0.25367 0.0
C3706 C 0.72134 0.09554 0.98438 0.0
C3707 C 0.72571 0.11526 0.98637 0.0
C3708 C 0.70377 0.0855 0.98057 0.0
C3709 C 0.65833 0.08821 0.96653 0.0
H3710 H 0.64689 0.06046 0.00598 0.0
C3711 C 0.58753 0.05033 0.97705 0.0
C3712 C 0.58343 0.05498 0.99519 0.0
C3713 C 0.60476 0.056 0.97307 0.0
C3714 C 0.64993 0.06805 0.99483 0.0
H3715 H 0.71544 0.1398 0.9843 0.0
H3716 H 0.68469 0.12223 0.9777 0.0
H3717 H 0.67764 0.07247 0.00211 0.0
H3718 H 0.59402 0.06953 0.02325 0.0
H3719 H 0.62412 0.07945 0.0162 0.0
H3720 H 0.63047 0.0842 0.95969 0.0
C3721 C 0.69483 0.11456 0.97909 0.0
C3722 C 0.66747 0.07472 0.99246 0.0
C3723 C 0.71239 0.12462 0.98305 0.0
C3724 C 0.59677 0.06574 0.00915 0.0
C3725 C 0.61399 0.07129 0.00517 0.0
C3726 C 0.64071 0.0813 0.96875 0.0
C3727 C 0.69035 0.09503 0.97852 0.0
C3728 C 0.67183 0.08528 0.97862 0.0
C3729 C 0.61812 0.0663 0.98716 0.0
C3730 C 0.63646 0.07168 0.98328 0.0
H3731 H 0.73138 0.08795 0.9867 0.0
H3732 H 0.70059 0.07041 0.98005 0.0
H3733 H 0.66143 0.0963 0.95574 0.0
H3734 H 0.57751 0.04205 0.96599 0.0
H3735 H 0.60776 0.05191 0.95913 0.0
C3736 C 0.18266 0.46756 0.26446 0.0
C3737 C 0.1882 0.48493 0.25885 0.0
C3738 C 0.19496 0.45923 0.27245 0.0
C3739 C 0.24187 0.45926 0.27383 0.0
H3740 H 0.23139 0.42824 0.31096 0.0
C3741 C 0.28871 0.41491 0.29338 0.0
C3742 C 0.28017 0.39578 0.29137 0.0
C3743 C 0.27895 0.4286 0.29485 0.0
C3744 C 0.23453 0.43695 0.30067 0.0
H3745 H 0.21082 0.50762 0.25793 0.0
H3746 H 0.23223 0.49328 0.27216 0.0
H3747 H 0.21114 0.44714 0.30263 0.0
H3748 H 0.25512 0.37608 0.29117 0.0
H3749 H 0.23806 0.39988 0.29342 0.0
H3750 H 0.2649 0.4487 0.27139 0.0
C3751 C 0.21846 0.48585 0.27 0.0
C3752 C 0.22291 0.44768 0.29583 0.0
C3753 C 0.20618 0.49408 0.26186 0.0
C3754 C 0.26196 0.39073 0.29237 0.0
C3755 C 0.25223 0.40439 0.29389 0.0
C3756 C 0.25348 0.44863 0.27871 0.0
C3757 C 0.21303 0.4682 0.27513 0.0
C3758 C 0.22624 0.45858 0.28201 0.0
C3759 C 0.26053 0.42337 0.2944 0.0
C3760 C 0.24973 0.437 0.29183 0.0
H3761 H 0.16886 0.46022 0.26235 0.0
H3762 H 0.19036 0.4455 0.27599 0.0
H3763 H 0.24473 0.46725 0.26293 0.0
H3764 H 0.30273 0.41918 0.29268 0.0
H3765 H 0.28571 0.44317 0.29548 0.0
C3766 C 0.25313 0.43189 0.04148 0.0
C3767 C 0.25102 0.41247 0.03533 0.0
C3768 C 0.23847 0.43964 0.04217 0.0
C3769 C 0.19241 0.43138 0.02186 0.0
H3770 H 0.19073 0.4704 0.06327 0.0
C3771 C 0.13342 0.46655 0.02752 0.0
C3772 C 0.13784 0.48624 0.03345 0.0
C3773 C 0.14634 0.45629 0.02847 0.0
C3774 C 0.19106 0.45962 0.05154 0.0
H3775 H 0.23187 0.38587 0.02523 0.0
H3776 H 0.20621 0.39946 0.02641 0.0
H3777 H 0.21494 0.45476 0.06376 0.0
H3778 H 0.15942 0.51058 0.04453 0.0
H3779 H 0.1818 0.49277 0.04621 0.0
H3780 H 0.16868 0.43651 0.00949 0.0
C3781 C 0.21923 0.40869 0.0306 0.0
C3782 C 0.20492 0.45065 0.05183 0.0
C3783 C 0.23392 0.4009 0.03002 0.0
C3784 C 0.15545 0.4954 0.04025 0.0
C3785 C 0.16832 0.48517 0.04122 0.0
C3786 C 0.17853 0.4404 0.02155 0.0
C3787 C 0.22136 0.42815 0.03665 0.0
C3788 C 0.20591 0.43664 0.03688 0.0
C3789 C 0.16394 0.4655 0.03538 0.0
C3790 C 0.17786 0.45484 0.03626 0.0
H3791 H 0.26613 0.44118 0.04564 0.0
H3792 H 0.24057 0.45472 0.04666 0.0
H3793 H 0.19289 0.42075 0.01006 0.0
H3794 H 0.11995 0.45904 0.02236 0.0
H3795 H 0.14252 0.44112 0.02401 0.0
C3796 C 0.89232 0.97161 0.24044 0.0
C3797 C 0.8872 0.98857 0.24625 0.0
C3798 C 0.8819 0.95388 0.24189 0.0
C3799 C 0.84406 0.92997 0.26526 0.0
H3800 H 0.84647 0.88583 0.23013 0.0
C3801 C 0.79769 0.85529 0.26408 0.0
C3802 C 0.80363 0.83877 0.25888 0.0
C3803 C 0.80788 0.87331 0.26301 0.0
C3804 C 0.84572 0.89786 0.24031 0.0
H3805 H 0.86637 0.99938 0.25821 0.0
H3806 H 0.84797 0.96843 0.26048 0.0
H3807 H 0.86284 0.91689 0.22689 0.0
H3808 H 0.82516 0.82881 0.2477 0.0
H3809 H 0.84316 0.86009 0.2462 0.0
H3810 H 0.82677 0.91084 0.27856 0.0
C3811 C 0.86037 0.96894 0.25492 0.0
C3812 C 0.85524 0.91596 0.23844 0.0
C3813 C 0.87091 0.98686 0.25346 0.0
C3814 C 0.82028 0.84104 0.25247 0.0
C3815 C 0.83049 0.85915 0.25126 0.0
C3816 C 0.83447 0.91185 0.26709 0.0
C3817 C 0.86567 0.95198 0.2492 0.0
C3818 C 0.85475 0.9325 0.25092 0.0
C3819 C 0.82449 0.87574 0.25645 0.0
C3820 C 0.8351 0.89532 0.25468 0.0
H3821 H 0.90472 0.97195 0.23489 0.0
H3822 H 0.88695 0.94161 0.23761 0.0
H3823 H 0.84332 0.94199 0.27544 0.0
H3824 H 0.78488 0.85429 0.26885 0.0
H3825 H 0.80237 0.88534 0.26688 0.0
C3826 C 0.66016 0.08914 0.71962 0.0
C3827 C 0.66569 0.07686 0.73018 0.0
C3828 C 0.66914 0.10812 0.72273 0.0
C3829 C 0.69583 0.1458 0.75842 0.0
H3830 H 0.71484 0.16807 0.71814 0.0
C3831 C 0.74733 0.21712 0.77035 0.0
C3832 C 0.74752 0.22796 0.75644 0.0
C3833 C 0.73558 0.19942 0.76779 0.0
C3834 C 0.7093 0.16226 0.72951 0.0
H3835 H 0.68494 0.07481 0.75223 0.0
H3836 H 0.70038 0.10797 0.75774 0.0
H3837 H 0.69749 0.13562 0.71187 0.0
H3838 H 0.73483 0.22983 0.7298 0.0
H3839 H 0.71378 0.19953 0.72574 0.0
H3840 H 0.70736 0.17244 0.77608 0.0
C3841 C 0.68917 0.10287 0.74707 0.0
C3842 C 0.69946 0.14364 0.72588 0.0
C3843 C 0.68043 0.08387 0.74375 0.0
C3844 C 0.73512 0.2215 0.74056 0.0
C3845 C 0.72316 0.20408 0.73819 0.0
C3846 C 0.70544 0.16456 0.76203 0.0
C3847 C 0.68353 0.11514 0.73667 0.0
C3848 C 0.69286 0.1352 0.74034 0.0
C3849 C 0.72362 0.19252 0.75146 0.0
C3850 C 0.71247 0.17296 0.74764 0.0
H3851 H 0.64881 0.08412 0.70911 0.0
H3852 H 0.66462 0.11741 0.71454 0.0
H3853 H 0.6907 0.13954 0.76975 0.0
H3854 H 0.75684 0.22187 0.7827 0.0
H3855 H 0.73642 0.19086 0.77825 0.0
loop_
_geom_bond_atom_site_label_1
_geom_bond_atom_site_label_2
_geom_bond_distance
_geom_bond_site_symmetry_2
_ccdc_geom_bond_type
C0 O1 1.306 . S
C0 O3 1.160 . S
O1 C0 1.306 . S
O1 Cd2 2.228 . S
Cd2 O1 2.228 . S
Cd2 O6 2.273 . S
Cd2 O10 2.277 . S
O3 C0 1.160 . S
O3 Cd4 2.203 . S
Cd4 O3 2.203 . S
Cd4 O6 2.411 . S
Cd4 O7 2.333 . S
Cd4 O8 2.352 . S
Cd4 O12 2.277 . S
Cd4 O13 2.356 . S
C5 O10 1.209 . S
C5 O12 1.226 . S
O6 Cd2 2.273 . S
O6 Cd4 2.411 . S
O6 C9 1.320 . S
O7 Cd4 2.333 . S
O7 C9 1.214 . S
O8 Cd4 2.352 . S
O8 C11 1.258 . S
C9 O6 1.320 . S
C9 O7 1.214 . S
O10 Cd2 2.277 . S
O10 C5 1.209 . S
C11 O8 1.258 . S
C11 O13 1.282 . S
O12 Cd4 2.277 . S
O12 C5 1.226 . S
O13 Cd4 2.356 . S
O13 C11 1.282 . S
C14 O15 1.306 . S
C14 O17 1.160 . S
O15 C14 1.306 . S
O15 Cd16 2.228 1_655 S
Cd16 O15 2.228 1_455 S
Cd16 O20 2.273 . S
Cd16 O24 2.277 1_455 S
O17 C14 1.160 . S
O17 Cd18 2.148 1_655 S
Cd18 O17 2.148 1_455 S
Cd18 O20 2.439 . S
Cd18 O21 2.389 . S
Cd18 O22 2.343 . S
Cd18 O26 2.281 1_455 S
Cd18 O27 2.360 . S
C19 O24 1.209 . S
C19 O26 1.226 . S
O20 Cd16 2.273 . S
O20 Cd18 2.439 . S
O20 C23 1.320 . S
O21 Cd18 2.389 . S
O21 C23 1.214 . S
O22 Cd18 2.343 . S
O22 C25 1.258 . S
C23 O20 1.320 . S
C23 O21 1.214 . S
O24 Cd16 2.277 1_655 S
O24 C19 1.209 . S
C25 O22 1.258 . S
C25 O27 1.282 . S
O26 Cd18 2.281 1_655 S
O26 C19 1.226 . S
O27 Cd18 2.360 . S
O27 C25 1.282 . S
C28 O29 1.306 . S
C28 O31 1.160 . S
O29 C28 1.306 . S
O29 Cd30 2.228 . S
Cd30 O29 2.228 . S
Cd30 O34 2.273 . S
Cd30 O38 2.277 . S
O31 C28 1.160 . S
O31 Cd32 2.203 . S
Cd32 O31 2.203 . S
Cd32 O34 2.411 . S
Cd32 O35 2.333 . S
Cd32 O36 2.352 . S
Cd32 O40 2.277 . S
Cd32 O41 2.356 . S
C33 O38 1.209 . S
C33 O40 1.226 . S
O34 Cd30 2.273 . S
O34 Cd32 2.411 . S
O34 C37 1.320 . S
O35 Cd32 2.333 . S
O35 C37 1.214 . S
O36 Cd32 2.352 . S
O36 C39 1.258 . S
C37 O34 1.320 . S
C37 O35 1.214 . S
O38 Cd30 2.277 . S
O38 C33 1.209 . S
C39 O36 1.258 . S
C39 O41 1.282 . S
O40 Cd32 2.277 . S
O40 C33 1.226 . S
O41 Cd32 2.356 . S
O41 C39 1.282 . S
C42 O43 1.306 . S
C42 O45 1.160 . S
O43 C42 1.306 . S
O43 Cd44 2.228 . S
Cd44 O43 2.228 . S
Cd44 O48 2.273 . S
Cd44 O52 2.277 . S
O45 C42 1.160 . S
O45 Cd46 2.203 . S
Cd46 O45 2.203 . S
Cd46 O48 2.411 . S
Cd46 O49 2.333 . S
Cd46 O50 2.352 . S
Cd46 O54 2.277 . S
Cd46 O55 2.356 . S
C47 O52 1.209 . S
C47 O54 1.226 . S
O48 Cd44 2.273 . S
O48 Cd46 2.411 . S
O48 C51 1.320 . S
O49 Cd46 2.333 . S
O49 C51 1.214 . S
O50 Cd46 2.352 . S
O50 C53 1.258 . S
C51 O48 1.320 . S
C51 O49 1.214 . S
O52 Cd44 2.277 . S
O52 C47 1.209 . S
C53 O50 1.258 . S
C53 O55 1.282 . S
O54 Cd46 2.277 . S
O54 C47 1.226 . S
O55 Cd46 2.356 . S
O55 C53 1.282 . S
C56 O57 1.306 . S
C56 O59 1.160 . S
O57 C56 1.306 . S
O57 Cd58 2.228 . S
Cd58 O57 2.228 . S
Cd58 O62 2.273 . S
Cd58 O66 2.277 . S
O59 C56 1.160 . S
O59 Cd60 2.203 . S
Cd60 O59 2.203 . S
Cd60 O62 2.411 . S
Cd60 O63 2.333 . S
Cd60 O64 2.352 . S
Cd60 O68 2.277 . S
Cd60 O69 2.356 . S
C61 O66 1.209 . S
C61 O68 1.226 . S
O62 Cd58 2.273 . S
O62 Cd60 2.411 . S
O62 C65 1.320 . S
O63 Cd60 2.333 . S
O63 C65 1.214 . S
O64 Cd60 2.352 . S
O64 C67 1.258 . S
C65 O62 1.320 . S
C65 O63 1.214 . S
O66 Cd58 2.277 . S
O66 C61 1.209 . S
C67 O64 1.258 . S
C67 O69 1.282 . S
O68 Cd60 2.277 . S
O68 C61 1.226 . S
O69 Cd60 2.356 . S
O69 C67 1.282 . S
C70 O71 1.306 . S
C70 O73 1.160 . S
O71 C70 1.306 . S
O71 Cd72 2.228 . S
Cd72 O71 2.228 . S
Cd72 O76 2.273 . S
Cd72 O80 2.277 . S
O73 C70 1.160 . S
O73 Cd74 2.203 . S
Cd74 O73 2.203 . S
Cd74 O76 2.411 . S
Cd74 O77 2.333 . S
Cd74 O78 2.352 . S
Cd74 O82 2.277 . S
Cd74 O83 2.356 . S
C75 O80 1.209 . S
C75 O82 1.226 . S
O76 Cd72 2.273 . S
O76 Cd74 2.411 . S
O76 C79 1.320 . S
O77 Cd74 2.333 . S
O77 C79 1.214 . S
O78 Cd74 2.352 . S
O78 C81 1.258 . S
C79 O76 1.320 . S
C79 O77 1.214 . S
O80 Cd72 2.277 . S
O80 C75 1.209 . S
C81 O78 1.258 . S
C81 O83 1.282 . S
O82 Cd74 2.277 . S
O82 C75 1.226 . S
O83 Cd74 2.356 . S
O83 C81 1.282 . S
C84 O85 1.306 . S
C84 O87 1.160 . S
O85 C84 1.306 . S
O85 Cd86 2.228 . S
Cd86 O85 2.228 . S
Cd86 O90 2.273 . S
Cd86 O94 2.277 . S
O87 C84 1.160 . S
O87 Cd88 2.203 . S
Cd88 O87 2.203 . S
Cd88 O90 2.411 . S
Cd88 O91 2.333 . S
Cd88 O92 2.352 . S
Cd88 O96 2.277 . S
Cd88 O97 2.356 . S
C89 O94 1.209 . S
C89 O96 1.226 . S
O90 Cd86 2.273 . S
O90 Cd88 2.411 . S
O90 C93 1.320 . S
O91 Cd88 2.333 . S
O91 C93 1.214 . S
O92 Cd88 2.352 . S
O92 C95 1.258 . S
C93 O90 1.320 . S
C93 O91 1.214 . S
O94 Cd86 2.277 . S
O94 C89 1.209 . S
C95 O92 1.258 . S
C95 O97 1.282 . S
O96 Cd88 2.277 . S
O96 C89 1.226 . S
O97 Cd88 2.356 . S
O97 C95 1.282 . S
C98 O99 1.306 . S
C98 O101 1.160 . S
O99 C98 1.306 . S
O99 Cd100 2.228 1_655 S
Cd100 O99 2.228 1_455 S
Cd100 O104 2.273 . S
Cd100 O108 2.277 . S
O101 C98 1.160 . S
O101 Cd102 2.203 1_655 S
Cd102 O101 2.203 1_455 S
Cd102 O104 2.411 . S
Cd102 O105 2.333 . S
Cd102 O106 2.352 . S
Cd102 O110 2.277 . S
Cd102 O111 2.356 . S
C103 O108 1.209 . S
C103 O110 1.226 . S
O104 Cd100 2.273 . S
O104 Cd102 2.411 . S
O104 C107 1.320 . S
O105 Cd102 2.333 . S
O105 C107 1.214 . S
O106 Cd102 2.352 . S
O106 C109 1.258 . S
C107 O104 1.320 . S
C107 O105 1.214 . S
O108 Cd100 2.277 . S
O108 C103 1.209 . S
C109 O106 1.258 . S
C109 O111 1.282 . S
O110 Cd102 2.277 . S
O110 C103 1.226 . S
O111 Cd102 2.356 . S
O111 C109 1.282 . S
C112 O113 1.306 . S
C112 O115 1.160 . S
O113 C112 1.306 . S
O113 Cd114 2.228 1_545 S
Cd114 O113 2.228 1_565 S
Cd114 O118 2.273 1_565 S
Cd114 O122 2.277 . S
O115 C112 1.160 . S
O115 Cd116 2.203 . S
Cd116 O115 2.203 . S
Cd116 O118 2.411 . S
Cd116 O119 2.333 . S
Cd116 O120 2.352 . S
Cd116 O124 2.277 1_545 S
Cd116 O125 2.356 . S
C117 O122 1.209 . S
C117 O124 1.226 . S
O118 Cd114 2.273 1_545 S
O118 Cd116 2.411 . S
O118 C121 1.320 . S
O119 Cd116 2.333 . S
O119 C121 1.214 . S
O120 Cd116 2.352 . S
O120 C123 1.258 . S
C121 O118 1.320 . S
C121 O119 1.214 . S
O122 Cd114 2.277 . S
O122 C117 1.209 . S
C123 O120 1.258 . S
C123 O125 1.282 . S
O124 Cd116 2.277 1_565 S
O124 C117 1.226 . S
O125 Cd116 2.356 . S
O125 C123 1.282 . S
C126 O127 1.306 . S
C126 O129 1.160 . S
O127 C126 1.306 . S
O127 Cd128 2.228 . S
Cd128 O127 2.228 . S
Cd128 O132 2.273 . S
Cd128 O136 2.277 . S
O129 C126 1.160 . S
O129 Cd130 2.203 . S
Cd130 O129 2.203 . S
Cd130 O132 2.411 . S
Cd130 O133 2.333 . S
Cd130 O134 2.352 . S
Cd130 O138 2.277 . S
Cd130 O139 2.356 . S
C131 O136 1.209 . S
C131 O138 1.226 . S
O132 Cd128 2.273 . S
O132 Cd130 2.411 . S
O132 C135 1.320 . S
O133 Cd130 2.333 . S
O133 C135 1.214 . S
O134 Cd130 2.352 . S
O134 C137 1.258 . S
C135 O132 1.320 . S
C135 O133 1.214 . S
O136 Cd128 2.277 . S
O136 C131 1.209 . S
C137 O134 1.258 . S
C137 O139 1.282 . S
O138 Cd130 2.277 . S
O138 C131 1.226 . S
O139 Cd130 2.356 . S
O139 C137 1.282 . S
C140 O141 1.306 . S
C140 O143 1.172 . S
O141 C140 1.306 . S
O141 Cd142 2.228 . S
Cd142 O141 2.228 . S
Cd142 O146 2.273 1_545 S
Cd142 O150 2.277 . S
O143 C140 1.172 . S
O143 Cd144 2.205 1_545 S
Cd144 O143 2.205 1_565 S
Cd144 O146 2.411 . S
Cd144 O147 2.333 . S
Cd144 O148 2.352 . S
Cd144 O152 2.277 1_565 S
Cd144 O153 2.356 . S
C145 O150 1.209 . S
C145 O152 1.226 . S
O146 Cd142 2.273 1_565 S
O146 Cd144 2.411 . S
O146 C149 1.320 . S
O147 Cd144 2.333 . S
O147 C149 1.214 . S
O148 Cd144 2.352 . S
O148 C151 1.258 . S
C149 O146 1.320 . S
C149 O147 1.214 . S
O150 Cd142 2.277 . S
O150 C145 1.209 . S
C151 O148 1.258 . S
C151 O153 1.282 . S
O152 Cd144 2.277 1_545 S
O152 C145 1.226 . S
O153 Cd144 2.356 . S
O153 C151 1.282 . S
C154 O155 1.306 . S
C154 O157 1.160 . S
O155 C154 1.306 . S
O155 Cd156 2.228 1_554 S
Cd156 O155 2.228 1_556 S
Cd156 O160 2.273 1_556 S
Cd156 O164 2.277 . S
O157 C154 1.160 . S
O157 Cd158 2.203 . S
Cd158 O157 2.203 . S
Cd158 O160 2.411 . S
Cd158 O161 2.333 . S
Cd158 O162 2.352 . S
Cd158 O166 2.277 1_554 S
Cd158 O167 2.356 . S
C159 O164 1.209 . S
C159 O166 1.226 . S
O160 Cd156 2.273 1_554 S
O160 Cd158 2.411 . S
O160 C163 1.320 . S
O161 Cd158 2.333 . S
O161 C163 1.214 . S
O162 Cd158 2.352 . S
O162 C165 1.258 . S
C163 O160 1.320 . S
C163 O161 1.214 . S
O164 Cd156 2.277 . S
O164 C159 1.209 . S
C165 O162 1.258 . S
C165 O167 1.282 . S
O166 Cd158 2.277 1_556 S
O166 C159 1.226 . S
O167 Cd158 2.356 . S
O167 C165 1.282 . S
C168 O169 1.306 . S
C168 O171 1.160 . S
O169 C168 1.306 . S
O169 Cd170 2.228 1_554 S
Cd170 O169 2.228 1_556 S
Cd170 O174 2.273 1_556 S
Cd170 O178 2.277 . S
O171 C168 1.160 . S
O171 Cd172 2.203 . S
Cd172 O171 2.203 . S
Cd172 O174 2.411 . S
Cd172 O175 2.333 . S
Cd172 O176 2.352 . S
Cd172 O180 2.277 1_554 S
Cd172 O181 2.356 . S
C173 O178 1.209 . S
C173 O180 1.226 . S
O174 Cd170 2.273 1_554 S
O174 Cd172 2.411 . S
O174 C177 1.320 . S
O175 Cd172 2.333 . S
O175 C177 1.214 . S
O176 Cd172 2.352 . S
O176 C179 1.258 . S
C177 O174 1.320 . S
C177 O175 1.214 . S
O178 Cd170 2.277 . S
O178 C173 1.209 . S
C179 O176 1.258 . S
C179 O181 1.282 . S
O180 Cd172 2.277 1_556 S
O180 C173 1.226 . S
O181 Cd172 2.356 . S
O181 C179 1.282 . S
C182 O183 1.306 . S
C182 O185 1.160 . S
O183 C182 1.306 . S
O183 Cd184 2.228 . S
Cd184 O183 2.228 . S
Cd184 O188 2.273 . S
Cd184 O192 2.277 . S
O185 C182 1.160 . S
O185 Cd186 2.203 . S
Cd186 O185 2.203 . S
Cd186 O188 2.411 . S
Cd186 O189 2.333 . S
Cd186 O190 2.352 1_554 S
Cd186 O194 2.277 . S
Cd186 O195 2.356 1_554 S
C187 O192 1.209 . S
C187 O194 1.226 . S
O188 Cd184 2.273 . S
O188 Cd186 2.411 . S
O188 C191 1.320 . S
O189 Cd186 2.333 . S
O189 C191 1.214 . S
O190 Cd186 2.352 1_556 S
O190 C193 1.258 . S
C191 O188 1.320 . S
C191 O189 1.214 . S
O192 Cd184 2.277 . S
O192 C187 1.209 . S
C193 O190 1.258 . S
C193 O195 1.282 . S
O194 Cd186 2.277 . S
O194 C187 1.226 . S
O195 Cd186 2.356 1_556 S
O195 C193 1.282 . S
C196 O197 1.306 . S
C196 O199 1.160 . S
O197 C196 1.306 . S
O197 Cd198 2.228 . S
Cd198 O197 2.228 . S
Cd198 O202 2.273 . S
Cd198 O206 2.277 . S
O199 C196 1.160 . S
O199 Cd200 2.203 . S
Cd200 O199 2.203 . S
Cd200 O202 2.411 . S
Cd200 O203 2.333 . S
Cd200 O204 2.352 . S
Cd200 O208 2.277 . S
Cd200 O209 2.356 . S
C201 O206 1.209 . S
C201 O208 1.226 . S
O202 Cd198 2.273 . S
O202 Cd200 2.411 . S
O202 C205 1.320 . S
O203 Cd200 2.333 . S
O203 C205 1.214 . S
O204 Cd200 2.352 . S
O204 C207 1.258 . S
C205 O202 1.320 . S
C205 O203 1.214 . S
O206 Cd198 2.277 . S
O206 C201 1.209 . S
C207 O204 1.258 . S
C207 O209 1.282 . S
O208 Cd200 2.277 . S
O208 C201 1.226 . S
O209 Cd200 2.356 . S
O209 C207 1.282 . S
C210 O211 1.306 . S
C210 O213 1.160 . S
O211 C210 1.306 . S
O211 Cd212 2.228 . S
Cd212 O211 2.228 . S
Cd212 O216 2.273 . S
Cd212 O220 2.277 . S
O213 C210 1.160 . S
O213 Cd214 2.203 . S
Cd214 O213 2.203 . S
Cd214 O216 2.411 . S
Cd214 O217 2.333 . S
Cd214 O218 2.352 . S
Cd214 O222 2.277 . S
Cd214 O223 2.356 . S
C215 O220 1.209 . S
C215 O222 1.226 . S
O216 Cd212 2.273 . S
O216 Cd214 2.411 . S
O216 C219 1.320 . S
O217 Cd214 2.333 . S
O217 C219 1.214 . S
O218 Cd214 2.352 . S
O218 C221 1.258 . S
C219 O216 1.320 . S
C219 O217 1.214 . S
O220 Cd212 2.277 . S
O220 C215 1.209 . S
C221 O218 1.258 . S
C221 O223 1.282 . S
O222 Cd214 2.277 . S
O222 C215 1.226 . S
O223 Cd214 2.356 . S
O223 C221 1.282 . S
C224 O225 1.306 . S
C224 O227 1.160 . S
O225 C224 1.306 . S
O225 Cd226 2.228 . S
Cd226 O225 2.228 . S
Cd226 O230 2.273 . S
Cd226 O234 2.277 . S
O227 C224 1.160 . S
O227 Cd228 2.203 . S
Cd228 O227 2.203 . S
Cd228 O230 2.411 . S
Cd228 O231 2.333 . S
Cd228 O232 2.352 . S
Cd228 O236 2.277 . S
Cd228 O237 2.356 . S
C229 O234 1.209 . S
C229 O236 1.226 . S
O230 Cd226 2.273 . S
O230 Cd228 2.411 . S
O230 C233 1.320 . S
O231 Cd228 2.333 . S
O231 C233 1.214 . S
O232 Cd228 2.352 . S
O232 C235 1.258 . S
C233 O230 1.320 . S
C233 O231 1.214 . S
O234 Cd226 2.277 . S
O234 C229 1.209 . S
C235 O232 1.258 . S
C235 O237 1.282 . S
O236 Cd228 2.277 . S
O236 C229 1.226 . S
O237 Cd228 2.356 . S
O237 C235 1.282 . S
C238 O239 1.306 . S
C238 O241 1.160 . S
O239 C238 1.306 . S
O239 Cd240 2.228 . S
Cd240 O239 2.228 . S
Cd240 O244 2.273 . S
Cd240 O248 2.277 . S
O241 C238 1.160 . S
O241 Cd242 2.203 . S
Cd242 O241 2.203 . S
Cd242 O244 2.411 . S
Cd242 O245 2.333 . S
Cd242 O246 2.352 . S
Cd242 O250 2.277 . S
Cd242 O251 2.356 . S
C243 O248 1.209 . S
C243 O250 1.226 . S
O244 Cd240 2.273 . S
O244 Cd242 2.411 . S
O244 C247 1.320 . S
O245 Cd242 2.333 . S
O245 C247 1.214 . S
O246 Cd242 2.352 . S
O246 C249 1.258 . S
C247 O244 1.320 . S
C247 O245 1.214 . S
O248 Cd240 2.277 . S
O248 C243 1.209 . S
C249 O246 1.258 . S
C249 O251 1.282 . S
O250 Cd242 2.277 . S
O250 C243 1.226 . S
O251 Cd242 2.356 . S
O251 C249 1.282 . S
C252 O253 1.306 . S
C252 O255 1.160 . S
O253 C252 1.306 . S
O253 Cd254 2.228 . S
Cd254 O253 2.228 . S
Cd254 O258 2.273 . S
Cd254 O262 2.277 . S
O255 C252 1.160 . S
O255 Cd256 2.203 . S
Cd256 O255 2.203 . S
Cd256 O258 2.411 . S
Cd256 O259 2.333 . S
Cd256 O260 2.352 . S
Cd256 O264 2.277 . S
Cd256 O265 2.356 . S
C257 O262 1.209 . S
C257 O264 1.226 . S
O258 Cd254 2.273 . S
O258 Cd256 2.411 . S
O258 C261 1.320 . S
O259 Cd256 2.333 . S
O259 C261 1.214 . S
O260 Cd256 2.352 . S
O260 C263 1.258 . S
C261 O258 1.320 . S
C261 O259 1.214 . S
O262 Cd254 2.277 . S
O262 C257 1.209 . S
C263 O260 1.258 . S
C263 O265 1.282 . S
O264 Cd256 2.277 . S
O264 C257 1.226 . S
O265 Cd256 2.356 . S
O265 C263 1.282 . S
C266 O267 1.306 . S
C266 O269 1.160 . S
O267 C266 1.306 . S
O267 Cd268 2.228 . S
Cd268 O267 2.228 . S
Cd268 O272 2.273 . S
Cd268 O276 2.277 . S
O269 C266 1.160 . S
O269 Cd270 2.203 . S
Cd270 O269 2.203 . S
Cd270 O272 2.411 . S
Cd270 O273 2.333 . S
Cd270 O274 2.352 . S
Cd270 O278 2.277 . S
Cd270 O279 2.356 . S
C271 O276 1.209 . S
C271 O278 1.226 . S
O272 Cd268 2.273 . S
O272 Cd270 2.411 . S
O272 C275 1.320 . S
O273 Cd270 2.333 . S
O273 C275 1.214 . S
O274 Cd270 2.352 . S
O274 C277 1.258 . S
C275 O272 1.320 . S
C275 O273 1.214 . S
O276 Cd268 2.277 . S
O276 C271 1.209 . S
C277 O274 1.258 . S
C277 O279 1.282 . S
O278 Cd270 2.277 . S
O278 C271 1.226 . S
O279 Cd270 2.356 . S
O279 C277 1.282 . S
C280 O281 1.306 . S
C280 O283 1.160 . S
O281 C280 1.306 . S
O281 Cd282 2.228 . S
Cd282 O281 2.228 . S
Cd282 O286 2.271 1_554 S
Cd282 O290 2.277 . S
O283 C280 1.160 . S
O283 Cd284 2.203 . S
Cd284 O283 2.203 . S
Cd284 O286 2.413 1_554 S
Cd284 O287 2.333 1_554 S
Cd284 O288 2.342 1_554 S
Cd284 O292 2.284 . S
Cd284 O293 2.350 1_554 S
C285 O290 1.209 . S
C285 O292 1.226 . S
O286 Cd282 2.271 1_556 S
O286 Cd284 2.413 1_556 S
O286 C289 1.320 . S
O287 Cd284 2.333 1_556 S
O287 C289 1.214 . S
O288 Cd284 2.342 1_556 S
O288 C291 1.258 . S
C289 O286 1.320 . S
C289 O287 1.214 . S
O290 Cd282 2.277 . S
O290 C285 1.209 . S
C291 O288 1.258 . S
C291 O293 1.282 . S
O292 Cd284 2.284 . S
O292 C285 1.226 . S
O293 Cd284 2.350 1_556 S
O293 C291 1.282 . S
C294 O295 1.306 . S
C294 O297 1.160 . S
O295 C294 1.306 . S
O295 Cd296 2.228 . S
Cd296 O295 2.228 . S
Cd296 O300 2.273 . S
Cd296 O304 2.277 . S
O297 C294 1.160 . S
O297 Cd298 2.203 . S
Cd298 O297 2.203 . S
Cd298 O300 2.411 . S
Cd298 O301 2.333 . S
Cd298 O302 2.352 . S
Cd298 O306 2.277 . S
Cd298 O307 2.356 . S
C299 O304 1.209 . S
C299 O306 1.226 . S
O300 Cd296 2.273 . S
O300 Cd298 2.411 . S
O300 C303 1.320 . S
O301 Cd298 2.333 . S
O301 C303 1.214 . S
O302 Cd298 2.352 . S
O302 C305 1.258 . S
C303 O300 1.320 . S
C303 O301 1.214 . S
O304 Cd296 2.277 . S
O304 C299 1.209 . S
C305 O302 1.258 . S
C305 O307 1.282 . S
O306 Cd298 2.277 . S
O306 C299 1.226 . S
O307 Cd298 2.356 . S
O307 C305 1.282 . S
C308 O309 1.306 . S
C308 O311 1.160 . S
O309 C308 1.306 . S
O309 Cd310 2.228 . S
Cd310 O309 2.228 . S
Cd310 O314 2.273 . S
Cd310 O318 2.277 . S
O311 C308 1.160 . S
O311 Cd312 2.203 . S
Cd312 O311 2.203 . S
Cd312 O314 2.411 . S
Cd312 O315 2.333 . S
Cd312 O316 2.352 . S
Cd312 O320 2.277 . S
Cd312 O321 2.356 . S
C313 O318 1.209 . S
C313 O320 1.226 . S
O314 Cd310 2.273 . S
O314 Cd312 2.411 . S
O314 C317 1.320 . S
O315 Cd312 2.333 . S
O315 C317 1.214 . S
O316 Cd312 2.352 . S
O316 C319 1.258 . S
C317 O314 1.320 . S
C317 O315 1.214 . S
O318 Cd310 2.277 . S
O318 C313 1.209 . S
C319 O316 1.258 . S
C319 O321 1.282 . S
O320 Cd312 2.277 . S
O320 C313 1.226 . S
O321 Cd312 2.356 . S
O321 C319 1.282 . S
C322 O323 1.306 . S
C322 O325 1.160 . S
O323 C322 1.306 . S
O323 Cd324 2.228 . S
Cd324 O323 2.228 . S
Cd324 O328 2.273 . S
Cd324 O332 2.277 . S
O325 C322 1.160 . S
O325 Cd326 2.203 . S
Cd326 O325 2.203 . S
Cd326 O328 2.411 . S
Cd326 O329 2.333 . S
Cd326 O330 2.352 . S
Cd326 O334 2.277 . S
Cd326 O335 2.356 . S
C327 O332 1.209 . S
C327 O334 1.226 . S
O328 Cd324 2.273 . S
O328 Cd326 2.411 . S
O328 C331 1.320 . S
O329 Cd326 2.333 . S
O329 C331 1.214 . S
O330 Cd326 2.352 . S
O330 C333 1.258 . S
C331 O328 1.320 . S
C331 O329 1.214 . S
O332 Cd324 2.277 . S
O332 C327 1.209 . S
C333 O330 1.258 . S
C333 O335 1.282 . S
O334 Cd326 2.277 . S
O334 C327 1.226 . S
O335 Cd326 2.356 . S
O335 C333 1.282 . S
Gd336 C339 2.817 1_454 S
Gd336 O356 2.374 1_554 S
Gd336 O358 2.444 1_454 S
Gd336 O359 2.508 1_455 S
Gd336 O360 2.428 1_554 S
Gd336 O361 2.715 1_554 S
Gd336 O363 2.398 1_545 S
Gd336 O367 2.333 . S
Gd337 C348 2.818 . S
Gd337 O357 2.395 . S
Gd337 O361 2.327 1_554 S
Gd337 O362 2.377 . S
Gd337 O364 2.448 . S
Gd337 O365 2.506 . S
Gd337 O366 2.435 . S
Gd337 O367 2.717 . S
C338 O356 1.240 1_554 S
C338 O357 1.240 . S
C339 Gd336 2.817 1_656 S
C339 C340 1.510 . S
C339 O358 1.249 . S
C339 O359 1.252 1_556 S
C340 C339 1.510 . S
C340 C341 1.404 . S
C340 C342 1.352 1_556 S
C341 C340 1.404 . S
C341 C345 1.389 . S
C341 H368 0.930 . S
C342 C340 1.352 1_554 S
C342 C344 1.366 1_554 S
C342 H369 0.931 . S
C343 C344 1.397 . S
C343 C345 1.364 . S
C344 C342 1.366 1_556 S
C344 C343 1.397 . S
C344 H370 0.903 1_556 S
C345 C341 1.389 . S
C345 C343 1.364 . S
C345 H371 0.931 . S
C346 O360 1.256 . S
C346 O361 1.257 . S
C347 O362 1.240 1_565 S
C347 O363 1.240 . S
C348 Gd337 2.818 . S
C348 C349 1.510 . S
C348 O364 1.249 . S
C348 O365 1.252 . S
C349 C348 1.510 . S
C349 C350 1.404 . S
C349 C351 1.352 . S
C350 C349 1.404 . S
C350 C354 1.389 . S
C350 H372 0.930 . S
C351 C349 1.352 . S
C351 C353 1.374 1_545 S
C351 H373 0.931 1_545 S
C352 C353 1.359 1_545 S
C352 C354 1.387 . S
C353 C351 1.374 1_565 S
C353 C352 1.359 1_565 S
C353 H374 0.931 . S
C354 C350 1.389 . S
C354 C352 1.387 . S
C354 H375 0.931 . S
C355 O366 1.256 . S
C355 O367 1.257 . S
O356 Gd336 2.374 1_556 S
O356 C338 1.240 1_556 S
O357 Gd337 2.395 . S
O357 C338 1.240 . S
O358 Gd336 2.444 1_656 S
O358 C339 1.249 . S
O359 Gd336 2.508 1_655 S
O359 C339 1.252 1_554 S
O360 Gd336 2.428 1_556 S
O360 C346 1.256 . S
O361 Gd336 2.715 1_556 S
O361 Gd337 2.327 1_556 S
O361 C346 1.257 . S
O362 Gd337 2.377 . S
O362 C347 1.240 1_545 S
O363 Gd336 2.398 1_565 S
O363 C347 1.240 . S
O364 Gd337 2.448 . S
O364 C348 1.249 . S
O365 Gd337 2.506 . S
O365 C348 1.252 . S
O366 Gd337 2.435 . S
O366 C355 1.256 . S
O367 Gd336 2.333 . S
O367 Gd337 2.717 . S
O367 C355 1.257 . S
H368 C341 0.930 . S
H369 C342 0.931 . S
H370 C344 0.903 1_554 S
H371 C345 0.931 . S
H372 C350 0.930 . S
H373 C351 0.931 1_565 S
H374 C353 0.931 . S
H375 C354 0.931 . S
Gd376 C379 2.818 . S
Gd376 O396 2.377 . S
Gd376 O398 2.448 . S
Gd376 O399 2.506 . S
Gd376 O400 2.435 . S
Gd376 O401 2.717 . S
Gd376 O403 2.395 . S
Gd376 O407 2.327 . S
Gd377 C388 2.818 . S
Gd377 O397 2.395 . S
Gd377 O401 2.327 . S
Gd377 O402 2.377 . S
Gd377 O404 2.448 . S
Gd377 O405 2.506 . S
Gd377 O406 2.435 . S
Gd377 O407 2.717 . S
C378 O396 1.240 . S
C378 O397 1.240 . S
C379 Gd376 2.818 . S
C379 C380 1.510 . S
C379 O398 1.249 . S
C379 O399 1.252 . S
C380 C379 1.510 . S
C380 C381 1.404 . S
C380 C382 1.352 . S
C381 C380 1.404 . S
C381 C385 1.389 . S
C381 H408 0.930 . S
C382 C380 1.352 . S
C382 C384 1.374 . S
C382 H409 0.931 . S
C383 C384 1.359 . S
C383 C385 1.364 . S
C384 C382 1.374 . S
C384 C383 1.359 . S
C384 H410 0.931 . S
C385 C381 1.389 . S
C385 C383 1.364 . S
C385 H411 0.931 . S
C386 O400 1.256 . S
C386 O401 1.257 . S
C387 O402 1.240 . S
C387 O403 1.240 . S
C388 Gd377 2.818 . S
C388 C389 1.510 . S
C388 O404 1.249 . S
C388 O405 1.252 . S
C389 C388 1.510 . S
C389 C390 1.404 . S
C389 C391 1.352 . S
C390 C389 1.404 . S
C390 C394 1.389 . S
C390 H412 0.930 . S
C391 C389 1.352 . S
C391 C393 1.374 . S
C391 H413 0.931 . S
C392 C393 1.359 . S
C392 C394 1.364 . S
C393 C391 1.374 . S
C393 C392 1.359 . S
C393 H414 0.931 . S
C394 C390 1.389 . S
C394 C392 1.364 . S
C394 H415 0.931 . S
C395 O406 1.256 . S
C395 O407 1.257 . S
O396 Gd376 2.377 . S
O396 C378 1.240 . S
O397 Gd377 2.395 . S
O397 C378 1.240 . S
O398 Gd376 2.448 . S
O398 C379 1.249 . S
O399 Gd376 2.506 . S
O399 C379 1.252 . S
O400 Gd376 2.435 . S
O400 C386 1.256 . S
O401 Gd376 2.717 . S
O401 Gd377 2.327 . S
O401 C386 1.257 . S
O402 Gd377 2.377 . S
O402 C387 1.240 . S
O403 Gd376 2.395 . S
O403 C387 1.240 . S
O404 Gd377 2.448 . S
O404 C388 1.249 . S
O405 Gd377 2.506 . S
O405 C388 1.252 . S
O406 Gd377 2.435 . S
O406 C395 1.256 . S
O407 Gd376 2.327 . S
O407 Gd377 2.717 . S
O407 C395 1.257 . S
H408 C381 0.930 . S
H409 C382 0.931 . S
H410 C384 0.931 . S
H411 C385 0.931 . S
H412 C390 0.930 . S
H413 C391 0.931 . S
H414 C393 0.931 . S
H415 C394 0.931 . S
Gd416 C419 2.818 . S
Gd416 O436 2.344 1_545 S
Gd416 O438 2.448 . S
Gd416 O439 2.506 . S
Gd416 O440 2.435 . S
Gd416 O441 2.717 . S
Gd416 O443 2.395 . S
Gd416 O447 2.327 . S
Gd417 C428 2.818 . S
Gd417 O437 2.395 1_545 S
Gd417 O441 2.327 . S
Gd417 O442 2.377 . S
Gd417 O444 2.448 . S
Gd417 O445 2.506 . S
Gd417 O446 2.435 . S
Gd417 O447 2.717 . S
C418 O436 1.261 . S
C418 O437 1.240 . S
C419 Gd416 2.818 . S
C419 C420 1.510 1_545 S
C419 O438 1.249 . S
C419 O439 1.252 . S
C420 C419 1.510 1_565 S
C420 C421 1.404 . S
C420 C422 1.352 . S
C421 C420 1.404 . S
C421 C425 1.389 . S
C421 H448 0.930 1_565 S
C422 C420 1.352 . S
C422 C424 1.374 . S
C422 H449 0.931 . S
C423 C424 1.359 . S
C423 C425 1.364 . S
C424 C422 1.374 . S
C424 C423 1.359 . S
C424 H450 0.931 . S
C425 C421 1.389 . S
C425 C423 1.364 . S
C425 H451 0.931 . S
C426 O440 1.256 . S
C426 O441 1.257 . S
C427 O442 1.240 . S
C427 O443 1.240 . S
C428 Gd417 2.818 . S
C428 C429 1.510 . S
C428 O444 1.249 . S
C428 O445 1.252 . S
C429 C428 1.510 . S
C429 C430 1.404 . S
C429 C431 1.352 . S
C430 C429 1.404 . S
C430 C434 1.389 . S
C430 H452 0.930 . S
C431 C429 1.352 . S
C431 C433 1.374 . S
C431 H453 0.931 . S
C432 C433 1.359 . S
C432 C434 1.364 . S
C433 C431 1.374 . S
C433 C432 1.359 . S
C433 H454 0.931 . S
C434 C430 1.389 . S
C434 C432 1.364 . S
C434 H455 0.931 . S
C435 O446 1.256 . S
C435 O447 1.257 . S
O436 Gd416 2.344 1_565 S
O436 C418 1.261 . S
O437 Gd417 2.395 1_565 S
O437 C418 1.240 . S
O438 Gd416 2.448 . S
O438 C419 1.249 . S
O439 Gd416 2.506 . S
O439 C419 1.252 . S
O440 Gd416 2.435 . S
O440 C426 1.256 . S
O441 Gd416 2.717 . S
O441 Gd417 2.327 . S
O441 C426 1.257 . S
O442 Gd417 2.377 . S
O442 C427 1.240 . S
O443 Gd416 2.395 . S
O443 C427 1.240 . S
O444 Gd417 2.448 . S
O444 C428 1.249 . S
O445 Gd417 2.506 . S
O445 C428 1.252 . S
O446 Gd417 2.435 . S
O446 C435 1.256 . S
O447 Gd416 2.327 . S
O447 Gd417 2.717 . S
O447 C435 1.257 . S
H448 C421 0.930 1_545 S
H449 C422 0.931 . S
H450 C424 0.931 . S
H451 C425 0.931 . S
H452 C430 0.930 . S
H453 C431 0.931 . S
H454 C433 0.931 . S
H455 C434 0.931 . S
Gd456 C459 2.818 . S
Gd456 O476 2.377 . S
Gd456 O478 2.448 . S
Gd456 O479 2.506 . S
Gd456 O480 2.435 . S
Gd456 O481 2.717 . S
Gd456 O483 2.395 . S
Gd456 O487 2.327 . S
Gd457 C468 2.818 . S
Gd457 O477 2.395 . S
Gd457 O481 2.327 . S
Gd457 O482 2.377 . S
Gd457 O484 2.448 . S
Gd457 O485 2.506 . S
Gd457 O486 2.435 . S
Gd457 O487 2.717 . S
C458 O476 1.240 . S
C458 O477 1.240 . S
C459 Gd456 2.818 . S
C459 C460 1.510 . S
C459 O478 1.249 . S
C459 O479 1.252 . S
C460 C459 1.510 . S
C460 C461 1.404 . S
C460 C462 1.352 . S
C461 C460 1.404 . S
C461 C465 1.389 . S
C461 H488 0.930 . S
C462 C460 1.352 . S
C462 C464 1.374 . S
C462 H489 0.931 . S
C463 C464 1.359 . S
C463 C465 1.364 . S
C464 C462 1.374 . S
C464 C463 1.359 . S
C464 H490 0.931 . S
C465 C461 1.389 . S
C465 C463 1.364 . S
C465 H491 0.931 . S
C466 O480 1.256 . S
C466 O481 1.257 . S
C467 O482 1.240 . S
C467 O483 1.240 . S
C468 Gd457 2.818 . S
C468 C469 1.510 . S
C468 O484 1.249 . S
C468 O485 1.252 . S
C469 C468 1.510 . S
C469 C470 1.404 . S
C469 C471 1.352 . S
C470 C469 1.404 . S
C470 C474 1.389 . S
C470 H492 0.930 . S
C471 C469 1.352 . S
C471 C473 1.374 . S
C471 H493 0.931 . S
C472 C473 1.359 . S
C472 C474 1.364 . S
C473 C471 1.374 . S
C473 C472 1.359 . S
C473 H494 0.931 . S
C474 C470 1.389 . S
C474 C472 1.364 . S
C474 H495 0.931 . S
C475 O486 1.256 . S
C475 O487 1.257 . S
O476 Gd456 2.377 . S
O476 C458 1.240 . S
O477 Gd457 2.395 . S
O477 C458 1.240 . S
O478 Gd456 2.448 . S
O478 C459 1.249 . S
O479 Gd456 2.506 . S
O479 C459 1.252 . S
O480 Gd456 2.435 . S
O480 C466 1.256 . S
O481 Gd456 2.717 . S
O481 Gd457 2.327 . S
O481 C466 1.257 . S
O482 Gd457 2.377 . S
O482 C467 1.240 . S
O483 Gd456 2.395 . S
O483 C467 1.240 . S
O484 Gd457 2.448 . S
O484 C468 1.249 . S
O485 Gd457 2.506 . S
O485 C468 1.252 . S
O486 Gd457 2.435 . S
O486 C475 1.256 . S
O487 Gd456 2.327 . S
O487 Gd457 2.717 . S
O487 C475 1.257 . S
H488 C461 0.930 . S
H489 C462 0.931 . S
H490 C464 0.931 . S
H491 C465 0.931 . S
H492 C470 0.930 . S
H493 C471 0.931 . S
H494 C473 0.931 . S
H495 C474 0.931 . S
Gd496 C499 2.818 . S
Gd496 O516 2.377 . S
Gd496 O518 2.448 . S
Gd496 O519 2.506 . S
Gd496 O520 2.435 . S
Gd496 O521 2.717 . S
Gd496 O523 2.395 . S
Gd496 O527 2.327 . S
Gd497 C508 2.818 1_545 S
Gd497 O517 2.395 . S
Gd497 O521 2.327 . S
Gd497 O522 2.377 . S
Gd497 O524 2.448 1_545 S
Gd497 O525 2.506 1_545 S
Gd497 O526 2.435 . S
Gd497 O527 2.717 . S
C498 O516 1.240 . S
C498 O517 1.240 . S
C499 Gd496 2.818 . S
C499 C500 1.510 . S
C499 O518 1.249 . S
C499 O519 1.252 . S
C500 C499 1.510 . S
C500 C501 1.404 . S
C500 C502 1.352 . S
C501 C500 1.404 . S
C501 C505 1.389 . S
C501 H528 0.930 . S
C502 C500 1.352 . S
C502 C504 1.374 . S
C502 H529 0.931 . S
C503 C504 1.359 . S
C503 C505 1.364 . S
C504 C502 1.374 . S
C504 C503 1.359 . S
C504 H530 0.931 . S
C505 C501 1.389 . S
C505 C503 1.364 . S
C505 H531 0.931 . S
C506 O520 1.256 . S
C506 O521 1.257 . S
C507 O522 1.240 . S
C507 O523 1.240 . S
C508 Gd497 2.818 1_565 S
C508 C509 1.510 . S
C508 O524 1.249 . S
C508 O525 1.252 . S
C509 C508 1.510 . S
C509 C510 1.404 . S
C509 C511 1.352 . S
C510 C509 1.404 . S
C510 C514 1.389 . S
C510 H532 0.930 . S
C511 C509 1.352 . S
C511 C513 1.374 . S
C511 H533 0.931 . S
C512 C513 1.359 . S
C512 C514 1.364 . S
C513 C511 1.374 . S
C513 C512 1.359 . S
C513 H534 0.931 . S
C514 C510 1.389 . S
C514 C512 1.364 . S
C514 H535 0.931 . S
C515 O526 1.256 . S
C515 O527 1.257 . S
O516 Gd496 2.377 . S
O516 C498 1.240 . S
O517 Gd497 2.395 . S
O517 C498 1.240 . S
O518 Gd496 2.448 . S
O518 C499 1.249 . S
O519 Gd496 2.506 . S
O519 C499 1.252 . S
O520 Gd496 2.435 . S
O520 C506 1.256 . S
O521 Gd496 2.717 . S
O521 Gd497 2.327 . S
O521 C506 1.257 . S
O522 Gd497 2.377 . S
O522 C507 1.240 . S
O523 Gd496 2.395 . S
O523 C507 1.240 . S
O524 Gd497 2.448 1_565 S
O524 C508 1.249 . S
O525 Gd497 2.506 1_565 S
O525 C508 1.252 . S
O526 Gd497 2.435 . S
O526 C515 1.256 . S
O527 Gd496 2.327 . S
O527 Gd497 2.717 . S
O527 C515 1.257 . S
H528 C501 0.930 . S
H529 C502 0.931 . S
H530 C504 0.931 . S
H531 C505 0.931 . S
H532 C510 0.930 . S
H533 C511 0.931 . S
H534 C513 0.931 . S
H535 C514 0.931 . S
Gd536 C539 2.818 . S
Gd536 O556 2.377 . S
Gd536 O558 2.448 . S
Gd536 O559 2.506 . S
Gd536 O560 2.435 . S
Gd536 O561 2.717 . S
Gd536 O563 2.395 . S
Gd536 O567 2.327 . S
Gd537 C548 2.818 . S
Gd537 O557 2.395 . S
Gd537 O561 2.327 . S
Gd537 O562 2.377 . S
Gd537 O564 2.448 . S
Gd537 O565 2.506 . S
Gd537 O566 2.435 . S
Gd537 O567 2.717 . S
C538 O556 1.240 . S
C538 O557 1.240 . S
C539 Gd536 2.818 . S
C539 C540 1.510 . S
C539 O558 1.249 . S
C539 O559 1.252 . S
C540 C539 1.510 . S
C540 C541 1.404 . S
C540 C542 1.352 . S
C541 C540 1.404 . S
C541 C545 1.389 . S
C541 H568 0.930 . S
C542 C540 1.352 . S
C542 C544 1.374 . S
C542 H569 0.931 . S
C543 C544 1.359 . S
C543 C545 1.364 . S
C544 C542 1.374 . S
C544 C543 1.359 . S
C544 H570 0.931 . S
C545 C541 1.389 . S
C545 C543 1.364 . S
C545 H571 0.931 . S
C546 O560 1.256 . S
C546 O561 1.257 . S
C547 O562 1.240 . S
C547 O563 1.240 . S
C548 Gd537 2.818 . S
C548 C549 1.510 . S
C548 O564 1.249 . S
C548 O565 1.252 . S
C549 C548 1.510 . S
C549 C550 1.404 . S
C549 C551 1.352 . S
C550 C549 1.404 . S
C550 C554 1.389 . S
C550 H572 0.930 . S
C551 C549 1.352 . S
C551 C553 1.374 . S
C551 H573 0.931 . S
C552 C553 1.359 . S
C552 C554 1.364 . S
C553 C551 1.374 . S
C553 C552 1.359 . S
C553 H574 0.931 . S
C554 C550 1.389 . S
C554 C552 1.364 . S
C554 H575 0.931 . S
C555 O566 1.256 . S
C555 O567 1.257 . S
O556 Gd536 2.377 . S
O556 C538 1.240 . S
O557 Gd537 2.395 . S
O557 C538 1.240 . S
O558 Gd536 2.448 . S
O558 C539 1.249 . S
O559 Gd536 2.506 . S
O559 C539 1.252 . S
O560 Gd536 2.435 . S
O560 C546 1.256 . S
O561 Gd536 2.717 . S
O561 Gd537 2.327 . S
O561 C546 1.257 . S
O562 Gd537 2.377 . S
O562 C547 1.240 . S
O563 Gd536 2.395 . S
O563 C547 1.240 . S
O564 Gd537 2.448 . S
O564 C548 1.249 . S
O565 Gd537 2.506 . S
O565 C548 1.252 . S
O566 Gd537 2.435 . S
O566 C555 1.256 . S
O567 Gd536 2.327 . S
O567 Gd537 2.717 . S
O567 C555 1.257 . S
H568 C541 0.930 . S
H569 C542 0.931 . S
H570 C544 0.931 . S
H571 C545 0.931 . S
H572 C550 0.930 . S
H573 C551 0.931 . S
H574 C553 0.931 . S
H575 C554 0.931 . S
Gd576 C579 2.818 . S
Gd576 O596 2.377 . S
Gd576 O598 2.448 . S
Gd576 O599 2.506 . S
Gd576 O600 2.435 1_545 S
Gd576 O601 2.717 1_554 S
Gd576 O603 2.395 . S
Gd576 O607 2.327 . S
Gd577 C588 2.818 . S
Gd577 O597 2.395 . S
Gd577 O601 2.327 . S
Gd577 O602 2.377 . S
Gd577 O604 2.448 . S
Gd577 O605 2.506 . S
Gd577 O606 2.435 1_556 S
Gd577 O607 2.717 1_556 S
C578 O596 1.240 . S
C578 O597 1.240 1_554 S
C579 Gd576 2.818 . S
C579 C580 1.510 . S
C579 O598 1.249 . S
C579 O599 1.252 . S
C580 C579 1.510 . S
C580 C581 1.404 1_545 S
C580 C582 1.352 . S
C581 C580 1.404 1_565 S
C581 C585 1.389 . S
C581 H608 0.930 . S
C582 C580 1.352 . S
C582 C584 1.374 . S
C582 H609 0.931 . S
C583 C584 1.359 1_565 S
C583 C585 1.364 . S
C584 C582 1.374 . S
C584 C583 1.359 1_545 S
C584 H610 0.931 . S
C585 C581 1.389 . S
C585 C583 1.364 . S
C585 H611 0.931 . S
C586 O600 1.243 1_556 S
C586 O601 1.262 1_565 S
C587 O602 1.240 1_554 S
C587 O603 1.240 . S
C588 Gd577 2.818 . S
C588 C589 1.510 . S
C588 O604 1.249 . S
C588 O605 1.252 . S
C589 C588 1.510 . S
C589 C590 1.404 . S
C589 C591 1.352 . S
C590 C589 1.404 . S
C590 C594 1.389 . S
C590 H612 0.930 . S
C591 C589 1.352 . S
C591 C593 1.374 . S
C591 H613 0.931 . S
C592 C593 1.359 . S
C592 C594 1.364 . S
C593 C591 1.374 . S
C593 C592 1.359 . S
C593 H614 0.931 . S
C594 C590 1.389 . S
C594 C592 1.364 . S
C594 H615 0.931 . S
C595 O606 1.256 . S
C595 O607 1.257 . S
O596 Gd576 2.377 . S
O596 C578 1.240 . S
O597 Gd577 2.395 . S
O597 C578 1.240 1_556 S
O598 Gd576 2.448 . S
O598 C579 1.249 . S
O599 Gd576 2.506 . S
O599 C579 1.252 . S
O600 Gd576 2.435 1_565 S
O600 C586 1.243 1_554 S
O601 Gd576 2.717 1_556 S
O601 Gd577 2.327 . S
O601 C586 1.262 1_545 S
O602 Gd577 2.377 . S
O602 C587 1.240 1_556 S
O603 Gd576 2.395 . S
O603 C587 1.240 . S
O604 Gd577 2.448 . S
O604 C588 1.249 . S
O605 Gd577 2.506 . S
O605 C588 1.252 . S
O606 Gd577 2.435 1_554 S
O606 C595 1.256 . S
O607 Gd576 2.327 . S
O607 Gd577 2.717 1_554 S
O607 C595 1.257 . S
H608 C581 0.930 . S
H609 C582 0.931 . S
H610 C584 0.931 . S
H611 C585 0.931 . S
H612 C590 0.930 . S
H613 C591 0.931 . S
H614 C593 0.931 . S
H615 C594 0.931 . S
Gd616 C619 2.818 . S
Gd616 O636 2.377 . S
Gd616 O638 2.448 . S
Gd616 O639 2.506 . S
Gd616 O640 2.435 . S
Gd616 O641 2.717 . S
Gd616 O643 2.395 . S
Gd616 O647 2.327 . S
Gd617 C628 2.818 . S
Gd617 O637 2.395 . S
Gd617 O641 2.327 . S
Gd617 O642 2.377 . S
Gd617 O644 2.448 . S
Gd617 O645 2.506 . S
Gd617 O646 2.435 . S
Gd617 O647 2.717 . S
C618 O636 1.240 . S
C618 O637 1.240 . S
C619 Gd616 2.818 . S
C619 C620 1.510 . S
C619 O638 1.249 . S
C619 O639 1.252 . S
C620 C619 1.510 . S
C620 C621 1.404 . S
C620 C622 1.352 . S
C621 C620 1.404 . S
C621 C625 1.389 . S
C621 H648 0.930 . S
C622 C620 1.352 . S
C622 C624 1.374 . S
C622 H649 0.931 . S
C623 C624 1.359 . S
C623 C625 1.364 . S
C624 C622 1.374 . S
C624 C623 1.359 . S
C624 H650 0.931 . S
C625 C621 1.389 . S
C625 C623 1.364 . S
C625 H651 0.931 . S
C626 O640 1.256 . S
C626 O641 1.257 . S
C627 O642 1.240 . S
C627 O643 1.240 . S
C628 Gd617 2.818 . S
C628 C629 1.510 . S
C628 O644 1.249 . S
C628 O645 1.252 . S
C629 C628 1.510 . S
C629 C630 1.404 . S
C629 C631 1.352 . S
C630 C629 1.404 . S
C630 C634 1.389 . S
C630 H652 0.930 . S
C631 C629 1.352 . S
C631 C633 1.374 . S
C631 H653 0.931 . S
C632 C633 1.359 . S
C632 C634 1.364 . S
C633 C631 1.374 . S
C633 C632 1.359 . S
C633 H654 0.931 . S
C634 C630 1.389 . S
C634 C632 1.364 . S
C634 H655 0.931 . S
C635 O646 1.256 . S
C635 O647 1.257 . S
O636 Gd616 2.377 . S
O636 C618 1.240 . S
O637 Gd617 2.395 . S
O637 C618 1.240 . S
O638 Gd616 2.448 . S
O638 C619 1.249 . S
O639 Gd616 2.506 . S
O639 C619 1.252 . S
O640 Gd616 2.435 . S
O640 C626 1.256 . S
O641 Gd616 2.717 . S
O641 Gd617 2.327 . S
O641 C626 1.257 . S
O642 Gd617 2.377 . S
O642 C627 1.240 . S
O643 Gd616 2.395 . S
O643 C627 1.240 . S
O644 Gd617 2.448 . S
O644 C628 1.249 . S
O645 Gd617 2.506 . S
O645 C628 1.252 . S
O646 Gd617 2.435 . S
O646 C635 1.256 . S
O647 Gd616 2.327 . S
O647 Gd617 2.717 . S
O647 C635 1.257 . S
H648 C621 0.930 . S
H649 C622 0.931 . S
H650 C624 0.931 . S
H651 C625 0.931 . S
H652 C630 0.930 . S
H653 C631 0.931 . S
H654 C633 0.931 . S
H655 C634 0.931 . S
Gd656 C659 2.817 . S
Gd656 O676 2.377 1_554 S
Gd656 O678 2.448 . S
Gd656 O679 2.486 1_554 S
Gd656 O680 2.435 . S
Gd656 O681 2.717 . S
Gd656 O683 2.395 . S
Gd656 O687 2.327 . S
Gd657 C668 2.821 . S
Gd657 O677 2.391 1_554 S
Gd657 O681 2.329 . S
Gd657 O682 2.382 . S
Gd657 O684 2.450 . S
Gd657 O685 2.509 . S
Gd657 O686 2.438 . S
Gd657 O687 2.717 . S
C658 O676 1.240 . S
C658 O677 1.240 . S
C659 Gd656 2.817 . S
C659 C660 1.512 1_554 S
C659 O678 1.247 . S
C659 O679 1.250 1_554 S
C660 C659 1.512 1_556 S
C660 C661 1.404 . S
C660 C662 1.352 . S
C661 C660 1.404 . S
C661 C665 1.389 . S
C661 H688 0.909 1_556 S
C662 C660 1.352 . S
C662 C664 1.374 . S
C662 H689 0.931 . S
C663 C664 1.359 . S
C663 C665 1.364 . S
C664 C662 1.374 . S
C664 C663 1.359 . S
C664 H690 0.931 . S
C665 C661 1.389 . S
C665 C663 1.364 . S
C665 H691 0.931 . S
C666 O680 1.256 . S
C666 O681 1.257 . S
C667 O682 1.240 . S
C667 O683 1.240 . S
C668 Gd657 2.821 . S
C668 C669 1.510 . S
C668 O684 1.249 . S
C668 O685 1.252 . S
C669 C668 1.510 . S
C669 C670 1.404 . S
C669 C671 1.352 . S
C670 C669 1.404 . S
C670 C674 1.389 . S
C670 H692 0.930 . S
C671 C669 1.352 . S
C671 C673 1.374 . S
C671 H693 0.931 . S
C672 C673 1.359 . S
C672 C674 1.364 . S
C673 C671 1.374 . S
C673 C672 1.359 . S
C673 H694 0.931 . S
C674 C670 1.389 . S
C674 C672 1.364 . S
C674 H695 0.931 . S
C675 O686 1.256 . S
C675 O687 1.257 . S
O676 Gd656 2.377 1_556 S
O676 C658 1.240 . S
O677 Gd657 2.391 1_556 S
O677 C658 1.240 . S
O678 Gd656 2.448 . S
O678 C659 1.247 . S
O679 Gd656 2.486 1_556 S
O679 C659 1.250 1_556 S
O680 Gd656 2.435 . S
O680 C666 1.256 . S
O681 Gd656 2.717 . S
O681 Gd657 2.329 . S
O681 C666 1.257 . S
O682 Gd657 2.382 . S
O682 C667 1.240 . S
O683 Gd656 2.395 . S
O683 C667 1.240 . S
O684 Gd657 2.450 . S
O684 C668 1.249 . S
O685 Gd657 2.509 . S
O685 C668 1.252 . S
O686 Gd657 2.438 . S
O686 C675 1.256 . S
O687 Gd656 2.327 . S
O687 Gd657 2.717 . S
O687 C675 1.257 . S
H688 C661 0.909 1_554 S
H689 C662 0.931 . S
H690 C664 0.931 . S
H691 C665 0.931 . S
H692 C670 0.930 . S
H693 C671 0.931 . S
H694 C673 0.931 . S
H695 C674 0.931 . S
Gd696 C699 2.818 . S
Gd696 O716 2.377 . S
Gd696 O718 2.448 . S
Gd696 O719 2.506 . S
Gd696 O720 2.435 . S
Gd696 O721 2.717 . S
Gd696 O723 2.395 . S
Gd696 O727 2.327 . S
Gd697 C708 2.818 . S
Gd697 O717 2.395 . S
Gd697 O721 2.327 . S
Gd697 O722 2.377 . S
Gd697 O724 2.448 . S
Gd697 O725 2.506 . S
Gd697 O726 2.435 . S
Gd697 O727 2.717 . S
C698 O716 1.240 . S
C698 O717 1.240 . S
C699 Gd696 2.818 . S
C699 C700 1.510 . S
C699 O718 1.249 . S
C699 O719 1.252 . S
C700 C699 1.510 . S
C700 C701 1.404 . S
C700 C702 1.352 . S
C701 C700 1.404 . S
C701 C705 1.389 . S
C701 H728 0.930 . S
C702 C700 1.352 . S
C702 C704 1.374 . S
C702 H729 0.931 . S
C703 C704 1.359 . S
C703 C705 1.364 . S
C704 C702 1.374 . S
C704 C703 1.359 . S
C704 H730 0.931 . S
C705 C701 1.389 . S
C705 C703 1.364 . S
C705 H731 0.931 . S
C706 O720 1.256 . S
C706 O721 1.257 . S
C707 O722 1.240 . S
C707 O723 1.240 . S
C708 Gd697 2.818 . S
C708 C709 1.510 . S
C708 O724 1.249 . S
C708 O725 1.252 . S
C709 C708 1.510 . S
C709 C710 1.404 . S
C709 C711 1.352 . S
C710 C709 1.404 . S
C710 C714 1.389 . S
C710 H732 0.930 . S
C711 C709 1.352 . S
C711 C713 1.374 . S
C711 H733 0.931 . S
C712 C713 1.359 . S
C712 C714 1.364 . S
C713 C711 1.374 . S
C713 C712 1.359 . S
C713 H734 0.931 . S
C714 C710 1.389 . S
C714 C712 1.364 . S
C714 H735 0.931 . S
C715 O726 1.256 . S
C715 O727 1.257 . S
O716 Gd696 2.377 . S
O716 C698 1.240 . S
O717 Gd697 2.395 . S
O717 C698 1.240 . S
O718 Gd696 2.448 . S
O718 C699 1.249 . S
O719 Gd696 2.506 . S
O719 C699 1.252 . S
O720 Gd696 2.435 . S
O720 C706 1.256 . S
O721 Gd696 2.717 . S
O721 Gd697 2.327 . S
O721 C706 1.257 . S
O722 Gd697 2.377 . S
O722 C707 1.240 . S
O723 Gd696 2.395 . S
O723 C707 1.240 . S
O724 Gd697 2.448 . S
O724 C708 1.249 . S
O725 Gd697 2.506 . S
O725 C708 1.252 . S
O726 Gd697 2.435 . S
O726 C715 1.256 . S
O727 Gd696 2.327 . S
O727 Gd697 2.717 . S
O727 C715 1.257 . S
H728 C701 0.930 . S
H729 C702 0.931 . S
H730 C704 0.931 . S
H731 C705 0.931 . S
H732 C710 0.930 . S
H733 C711 0.931 . S
H734 C713 0.931 . S
H735 C714 0.931 . S
Gd736 C739 2.818 . S
Gd736 O756 2.377 . S
Gd736 O758 2.448 . S
Gd736 O759 2.506 . S
Gd736 O760 2.435 . S
Gd736 O761 2.717 . S
Gd736 O763 2.395 . S
Gd736 O767 2.327 . S
Gd737 C748 2.818 . S
Gd737 O757 2.395 . S
Gd737 O761 2.327 . S
Gd737 O762 2.377 . S
Gd737 O764 2.448 . S
Gd737 O765 2.506 . S
Gd737 O766 2.435 . S
Gd737 O767 2.717 . S
C738 O756 1.240 . S
C738 O757 1.240 . S
C739 Gd736 2.818 . S
C739 C740 1.510 . S
C739 O758 1.249 . S
C739 O759 1.252 . S
C740 C739 1.510 . S
C740 C741 1.404 . S
C740 C742 1.349 . S
C741 C740 1.404 . S
C741 C745 1.389 . S
C741 H768 0.930 . S
C742 C740 1.349 . S
C742 C744 1.376 1_455 S
C742 H769 0.917 1_455 S
C743 C744 1.359 . S
C743 C745 1.364 1_655 S
C744 C742 1.376 1_655 S
C744 C743 1.359 . S
C744 H770 0.931 . S
C745 C741 1.389 . S
C745 C743 1.364 1_455 S
C745 H771 0.931 . S
C746 O760 1.256 . S
C746 O761 1.257 . S
C747 O762 1.240 . S
C747 O763 1.240 . S
C748 Gd737 2.818 . S
C748 C749 1.510 . S
C748 O764 1.249 . S
C748 O765 1.252 . S
C749 C748 1.510 . S
C749 C750 1.404 . S
C749 C751 1.352 . S
C750 C749 1.404 . S
C750 C754 1.389 . S
C750 H772 0.930 . S
C751 C749 1.352 . S
C751 C753 1.374 . S
C751 H773 0.931 . S
C752 C753 1.359 . S
C752 C754 1.364 . S
C753 C751 1.374 . S
C753 C752 1.359 . S
C753 H774 0.931 . S
C754 C750 1.389 . S
C754 C752 1.364 . S
C754 H775 0.931 . S
C755 O766 1.256 . S
C755 O767 1.257 . S
O756 Gd736 2.377 . S
O756 C738 1.240 . S
O757 Gd737 2.395 . S
O757 C738 1.240 . S
O758 Gd736 2.448 . S
O758 C739 1.249 . S
O759 Gd736 2.506 . S
O759 C739 1.252 . S
O760 Gd736 2.435 . S
O760 C746 1.256 . S
O761 Gd736 2.717 . S
O761 Gd737 2.327 . S
O761 C746 1.257 . S
O762 Gd737 2.377 . S
O762 C747 1.240 . S
O763 Gd736 2.395 . S
O763 C747 1.240 . S
O764 Gd737 2.448 . S
O764 C748 1.249 . S
O765 Gd737 2.506 . S
O765 C748 1.252 . S
O766 Gd737 2.435 . S
O766 C755 1.256 . S
O767 Gd736 2.327 . S
O767 Gd737 2.717 . S
O767 C755 1.257 . S
H768 C741 0.930 . S
H769 C742 0.917 1_655 S
H770 C744 0.931 . S
H771 C745 0.931 . S
H772 C750 0.930 . S
H773 C751 0.931 . S
H774 C753 0.931 . S
H775 C754 0.931 . S
Gd776 C779 2.818 . S
Gd776 O796 2.377 . S
Gd776 O798 2.448 . S
Gd776 O799 2.506 . S
Gd776 O800 2.435 . S
Gd776 O801 2.717 . S
Gd776 O803 2.395 . S
Gd776 O807 2.327 . S
Gd777 C788 2.818 . S
Gd777 O797 2.395 . S
Gd777 O801 2.327 . S
Gd777 O802 2.377 . S
Gd777 O804 2.448 . S
Gd777 O805 2.506 . S
Gd777 O806 2.435 . S
Gd777 O807 2.717 . S
C778 O796 1.240 . S
C778 O797 1.240 . S
C779 Gd776 2.818 . S
C779 C780 1.510 . S
C779 O798 1.249 . S
C779 O799 1.252 . S
C780 C779 1.510 . S
C780 C781 1.404 . S
C780 C782 1.352 . S
C781 C780 1.404 . S
C781 C785 1.389 . S
C781 H808 0.930 . S
C782 C780 1.352 . S
C782 C784 1.374 . S
C782 H809 0.931 . S
C783 C784 1.359 . S
C783 C785 1.364 . S
C784 C782 1.374 . S
C784 C783 1.359 . S
C784 H810 0.931 . S
C785 C781 1.389 . S
C785 C783 1.364 . S
C785 H811 0.931 . S
C786 O800 1.256 . S
C786 O801 1.257 . S
C787 O802 1.240 . S
C787 O803 1.240 . S
C788 Gd777 2.818 . S
C788 C789 1.510 . S
C788 O804 1.249 . S
C788 O805 1.252 . S
C789 C788 1.510 . S
C789 C790 1.404 . S
C789 C791 1.352 . S
C790 C789 1.404 . S
C790 C794 1.389 . S
C790 H812 0.930 . S
C791 C789 1.352 . S
C791 C793 1.374 . S
C791 H813 0.931 . S
C792 C793 1.359 . S
C792 C794 1.364 . S
C793 C791 1.374 . S
C793 C792 1.359 . S
C793 H814 0.931 . S
C794 C790 1.389 . S
C794 C792 1.364 . S
C794 H815 0.931 . S
C795 O806 1.256 . S
C795 O807 1.257 . S
O796 Gd776 2.377 . S
O796 C778 1.240 . S
O797 Gd777 2.395 . S
O797 C778 1.240 . S
O798 Gd776 2.448 . S
O798 C779 1.249 . S
O799 Gd776 2.506 . S
O799 C779 1.252 . S
O800 Gd776 2.435 . S
O800 C786 1.256 . S
O801 Gd776 2.717 . S
O801 Gd777 2.327 . S
O801 C786 1.257 . S
O802 Gd777 2.377 . S
O802 C787 1.240 . S
O803 Gd776 2.395 . S
O803 C787 1.240 . S
O804 Gd777 2.448 . S
O804 C788 1.249 . S
O805 Gd777 2.506 . S
O805 C788 1.252 . S
O806 Gd777 2.435 . S
O806 C795 1.256 . S
O807 Gd776 2.327 . S
O807 Gd777 2.717 . S
O807 C795 1.257 . S
H808 C781 0.930 . S
H809 C782 0.931 . S
H810 C784 0.931 . S
H811 C785 0.931 . S
H812 C790 0.930 . S
H813 C791 0.931 . S
H814 C793 0.931 . S
H815 C794 0.931 . S
Gd816 C819 2.818 . S
Gd816 O836 2.377 . S
Gd816 O838 2.448 . S
Gd816 O839 2.506 . S
Gd816 O840 2.435 . S
Gd816 O841 2.717 . S
Gd816 O843 2.395 . S
Gd816 O847 2.327 . S
Gd817 C828 2.818 . S
Gd817 O837 2.395 . S
Gd817 O841 2.327 . S
Gd817 O842 2.377 . S
Gd817 O844 2.448 . S
Gd817 O845 2.506 . S
Gd817 O846 2.435 . S
Gd817 O847 2.717 . S
C818 O836 1.240 . S
C818 O837 1.240 . S
C819 Gd816 2.818 . S
C819 C820 1.510 . S
C819 O838 1.249 . S
C819 O839 1.252 . S
C820 C819 1.510 . S
C820 C821 1.404 . S
C820 C822 1.352 . S
C821 C820 1.404 . S
C821 C825 1.389 . S
C821 H848 0.930 . S
C822 C820 1.352 . S
C822 C824 1.374 . S
C822 H849 0.931 . S
C823 C824 1.359 . S
C823 C825 1.364 . S
C824 C822 1.374 . S
C824 C823 1.359 . S
C824 H850 0.931 . S
C825 C821 1.389 . S
C825 C823 1.364 . S
C825 H851 0.931 . S
C826 O840 1.256 . S
C826 O841 1.257 . S
C827 O842 1.240 . S
C827 O843 1.240 . S
C828 Gd817 2.818 . S
C828 C829 1.510 . S
C828 O844 1.249 . S
C828 O845 1.252 . S
C829 C828 1.510 . S
C829 C830 1.404 . S
C829 C831 1.352 . S
C830 C829 1.404 . S
C830 C834 1.389 . S
C830 H852 0.930 . S
C831 C829 1.352 . S
C831 C833 1.374 . S
C831 H853 0.931 . S
C832 C833 1.359 . S
C832 C834 1.364 . S
C833 C831 1.374 . S
C833 C832 1.359 . S
C833 H854 0.931 . S
C834 C830 1.389 . S
C834 C832 1.364 . S
C834 H855 0.931 . S
C835 O846 1.256 . S
C835 O847 1.257 . S
O836 Gd816 2.377 . S
O836 C818 1.240 . S
O837 Gd817 2.395 . S
O837 C818 1.240 . S
O838 Gd816 2.448 . S
O838 C819 1.249 . S
O839 Gd816 2.506 . S
O839 C819 1.252 . S
O840 Gd816 2.435 . S
O840 C826 1.256 . S
O841 Gd816 2.717 . S
O841 Gd817 2.327 . S
O841 C826 1.257 . S
O842 Gd817 2.377 . S
O842 C827 1.240 . S
O843 Gd816 2.395 . S
O843 C827 1.240 . S
O844 Gd817 2.448 . S
O844 C828 1.249 . S
O845 Gd817 2.506 . S
O845 C828 1.252 . S
O846 Gd817 2.435 . S
O846 C835 1.256 . S
O847 Gd816 2.327 . S
O847 Gd817 2.717 . S
O847 C835 1.257 . S
H848 C821 0.930 . S
H849 C822 0.931 . S
H850 C824 0.931 . S
H851 C825 0.931 . S
H852 C830 0.930 . S
H853 C831 0.931 . S
H854 C833 0.931 . S
H855 C834 0.931 . S
Gd856 C859 2.818 . S
Gd856 O876 2.377 . S
Gd856 O878 2.448 . S
Gd856 O879 2.506 . S
Gd856 O880 2.435 . S
Gd856 O881 2.717 . S
Gd856 O883 2.395 . S
Gd856 O887 2.327 . S
Gd857 C868 2.818 . S
Gd857 O877 2.395 . S
Gd857 O881 2.327 . S
Gd857 O882 2.377 . S
Gd857 O884 2.448 . S
Gd857 O885 2.506 . S
Gd857 O886 2.435 . S
Gd857 O887 2.717 . S
C858 O876 1.240 . S
C858 O877 1.240 . S
C859 Gd856 2.818 . S
C859 C860 1.510 . S
C859 O878 1.249 . S
C859 O879 1.252 . S
C860 C859 1.510 . S
C860 C861 1.404 . S
C860 C862 1.352 . S
C861 C860 1.404 . S
C861 C865 1.389 . S
C861 H888 0.930 . S
C862 C860 1.352 . S
C862 C864 1.374 . S
C862 H889 0.931 . S
C863 C864 1.359 . S
C863 C865 1.364 . S
C864 C862 1.374 . S
C864 C863 1.359 . S
C864 H890 0.931 . S
C865 C861 1.389 . S
C865 C863 1.364 . S
C865 H891 0.931 . S
C866 O880 1.256 . S
C866 O881 1.257 . S
C867 O882 1.240 . S
C867 O883 1.240 . S
C868 Gd857 2.818 . S
C868 C869 1.510 . S
C868 O884 1.249 . S
C868 O885 1.252 . S
C869 C868 1.510 . S
C869 C870 1.404 . S
C869 C871 1.352 . S
C870 C869 1.404 . S
C870 C874 1.389 . S
C870 H892 0.930 . S
C871 C869 1.352 . S
C871 C873 1.374 . S
C871 H893 0.931 . S
C872 C873 1.359 . S
C872 C874 1.364 . S
C873 C871 1.374 . S
C873 C872 1.359 . S
C873 H894 0.931 . S
C874 C870 1.389 . S
C874 C872 1.364 . S
C874 H895 0.931 . S
C875 O886 1.256 . S
C875 O887 1.257 . S
O876 Gd856 2.377 . S
O876 C858 1.240 . S
O877 Gd857 2.395 . S
O877 C858 1.240 . S
O878 Gd856 2.448 . S
O878 C859 1.249 . S
O879 Gd856 2.506 . S
O879 C859 1.252 . S
O880 Gd856 2.435 . S
O880 C866 1.256 . S
O881 Gd856 2.717 . S
O881 Gd857 2.327 . S
O881 C866 1.257 . S
O882 Gd857 2.377 . S
O882 C867 1.240 . S
O883 Gd856 2.395 . S
O883 C867 1.240 . S
O884 Gd857 2.448 . S
O884 C868 1.249 . S
O885 Gd857 2.506 . S
O885 C868 1.252 . S
O886 Gd857 2.435 . S
O886 C875 1.256 . S
O887 Gd856 2.327 . S
O887 Gd857 2.717 . S
O887 C875 1.257 . S
H888 C861 0.930 . S
H889 C862 0.931 . S
H890 C864 0.931 . S
H891 C865 0.931 . S
H892 C870 0.930 . S
H893 C871 0.931 . S
H894 C873 0.931 . S
H895 C874 0.931 . S
Gd896 C899 2.818 . S
Gd896 O916 2.377 . S
Gd896 O918 2.448 . S
Gd896 O919 2.506 . S
Gd896 O920 2.435 . S
Gd896 O921 2.717 . S
Gd896 O923 2.395 . S
Gd896 O927 2.327 . S
Gd897 C908 2.818 . S
Gd897 O917 2.395 . S
Gd897 O921 2.327 . S
Gd897 O922 2.377 . S
Gd897 O924 2.448 . S
Gd897 O925 2.506 . S
Gd897 O926 2.435 . S
Gd897 O927 2.717 . S
C898 O916 1.240 . S
C898 O917 1.240 . S
C899 Gd896 2.818 . S
C899 C900 1.510 . S
C899 O918 1.249 . S
C899 O919 1.252 . S
C900 C899 1.510 . S
C900 C901 1.404 . S
C900 C902 1.352 . S
C901 C900 1.404 . S
C901 C905 1.389 . S
C901 H928 0.930 . S
C902 C900 1.352 . S
C902 C904 1.374 . S
C902 H929 0.931 . S
C903 C904 1.359 . S
C903 C905 1.364 . S
C904 C902 1.374 . S
C904 C903 1.359 . S
C904 H930 0.931 . S
C905 C901 1.389 . S
C905 C903 1.364 . S
C905 H931 0.931 . S
C906 O920 1.256 . S
C906 O921 1.257 . S
C907 O922 1.240 . S
C907 O923 1.240 . S
C908 Gd897 2.818 . S
C908 C909 1.510 . S
C908 O924 1.249 . S
C908 O925 1.252 . S
C909 C908 1.510 . S
C909 C910 1.404 . S
C909 C911 1.352 . S
C910 C909 1.404 . S
C910 C914 1.389 . S
C910 H932 0.930 . S
C911 C909 1.352 . S
C911 C913 1.374 . S
C911 H933 0.931 . S
C912 C913 1.359 . S
C912 C914 1.364 . S
C913 C911 1.374 . S
C913 C912 1.359 . S
C913 H934 0.931 . S
C914 C910 1.389 . S
C914 C912 1.364 . S
C914 H935 0.931 . S
C915 O926 1.256 . S
C915 O927 1.257 . S
O916 Gd896 2.377 . S
O916 C898 1.240 . S
O917 Gd897 2.395 . S
O917 C898 1.240 . S
O918 Gd896 2.448 . S
O918 C899 1.249 . S
O919 Gd896 2.506 . S
O919 C899 1.252 . S
O920 Gd896 2.435 . S
O920 C906 1.256 . S
O921 Gd896 2.717 . S
O921 Gd897 2.327 . S
O921 C906 1.257 . S
O922 Gd897 2.377 . S
O922 C907 1.240 . S
O923 Gd896 2.395 . S
O923 C907 1.240 . S
O924 Gd897 2.448 . S
O924 C908 1.249 . S
O925 Gd897 2.506 . S
O925 C908 1.252 . S
O926 Gd897 2.435 . S
O926 C915 1.256 . S
O927 Gd896 2.327 . S
O927 Gd897 2.717 . S
O927 C915 1.257 . S
H928 C901 0.930 . S
H929 C902 0.931 . S
H930 C904 0.931 . S
H931 C905 0.931 . S
H932 C910 0.930 . S
H933 C911 0.931 . S
H934 C913 0.931 . S
H935 C914 0.931 . S
Gd936 C939 2.818 1_554 S
Gd936 O956 2.377 1_554 S
Gd936 O958 2.448 1_554 S
Gd936 O959 2.506 . S
Gd936 O960 2.435 1_554 S
Gd936 O961 2.717 1_554 S
Gd936 O963 2.395 . S
Gd936 O967 2.327 . S
Gd937 C948 2.818 1_455 S
Gd937 O957 2.395 . S
Gd937 O961 2.327 1_554 S
Gd937 O962 2.377 . S
Gd937 O964 2.448 1_455 S
Gd937 O965 2.506 1_455 S
Gd937 O966 2.435 . S
Gd937 O967 2.717 . S
C938 O956 1.240 1_554 S
C938 O957 1.240 . S
C939 Gd936 2.818 1_556 S
C939 C940 1.510 . S
C939 O958 1.249 . S
C939 O959 1.252 1_556 S
C940 C939 1.510 . S
C940 C941 1.404 . S
C940 C942 1.352 1_556 S
C941 C940 1.404 . S
C941 C945 1.389 . S
C941 H968 0.930 . S
C942 C940 1.352 1_554 S
C942 C944 1.374 . S
C942 H969 0.931 . S
C943 C944 1.359 1_556 S
C943 C945 1.364 . S
C944 C942 1.374 . S
C944 C943 1.359 1_554 S
C944 H970 0.931 . S
C945 C941 1.389 . S
C945 C943 1.364 . S
C945 H971 0.931 . S
C946 O960 1.256 . S
C946 O961 1.257 . S
C947 O962 1.240 . S
C947 O963 1.240 . S
C948 Gd937 2.818 1_655 S
C948 C949 1.510 . S
C948 O964 1.249 . S
C948 O965 1.252 . S
C949 C948 1.510 . S
C949 C950 1.404 . S
C949 C951 1.352 . S
C950 C949 1.404 . S
C950 C954 1.389 . S
C950 H972 0.930 . S
C951 C949 1.352 . S
C951 C953 1.374 . S
C951 H973 0.931 . S
C952 C953 1.359 . S
C952 C954 1.364 . S
C953 C951 1.374 . S
C953 C952 1.359 . S
C953 H974 0.931 . S
C954 C950 1.389 . S
C954 C952 1.364 . S
C954 H975 0.931 . S
C955 O966 1.256 . S
C955 O967 1.257 . S
O956 Gd936 2.377 1_556 S
O956 C938 1.240 1_556 S
O957 Gd937 2.395 . S
O957 C938 1.240 . S
O958 Gd936 2.448 1_556 S
O958 C939 1.249 . S
O959 Gd936 2.506 . S
O959 C939 1.252 1_554 S
O960 Gd936 2.435 1_556 S
O960 C946 1.256 . S
O961 Gd936 2.717 1_556 S
O961 Gd937 2.327 1_556 S
O961 C946 1.257 . S
O962 Gd937 2.377 . S
O962 C947 1.240 . S
O963 Gd936 2.395 . S
O963 C947 1.240 . S
O964 Gd937 2.448 1_655 S
O964 C948 1.249 . S
O965 Gd937 2.506 1_655 S
O965 C948 1.252 . S
O966 Gd937 2.435 . S
O966 C955 1.256 . S
O967 Gd936 2.327 . S
O967 Gd937 2.717 . S
O967 C955 1.257 . S
H968 C941 0.930 . S
H969 C942 0.931 . S
H970 C944 0.931 . S
H971 C945 0.931 . S
H972 C950 0.930 . S
H973 C951 0.931 . S
H974 C953 0.931 . S
H975 C954 0.931 . S
C976 C977 1.349 . S
C976 C978 1.327 . S
C976 H1001 0.950 . S
C977 C976 1.349 . S
C977 C993 1.349 . S
C978 C976 1.327 . S
C978 C997 1.429 . S
C978 H1002 0.950 . S
C979 C996 1.574 . S
C979 C998 1.368 . S
C979 H1003 0.949 . S
H980 C984 0.949 . S
C981 C982 1.349 1_554 S
C981 C983 1.327 . S
C981 H1004 0.950 . S
C982 C981 1.349 1_556 S
C982 C994 1.349 . S
C983 C981 1.327 . S
C983 C999 1.429 1_554 S
C983 H1005 0.950 . S
C984 H980 0.949 . S
C984 C992 1.574 . S
C984 C1000 1.368 . S
H985 C993 0.948 1_655 S
H986 C991 0.950 . S
H987 C992 0.949 . S
H988 C994 0.950 . S
H989 C995 0.950 . S
H990 C996 0.949 . S
C991 H986 0.950 . S
C991 C993 1.327 . S
C991 C997 1.429 . S
C992 C984 1.574 . S
C992 H987 0.949 . S
C992 C998 1.368 . S
C993 C977 1.349 . S
C993 H985 0.948 1_455 S
C993 C991 1.327 . S
C994 C982 1.349 . S
C994 H988 0.950 . S
C994 C995 1.327 . S
C995 H989 0.950 . S
C995 C994 1.327 . S
C995 C999 1.429 . S
C996 C979 1.574 . S
C996 H990 0.949 . S
C996 C1000 1.368 . S
C997 C978 1.429 . S
C997 C991 1.429 . S
C997 C998 1.523 . S
C998 C979 1.368 . S
C998 C992 1.368 . S
C998 C997 1.523 . S
C999 C983 1.429 1_556 S
C999 C995 1.429 . S
C999 C1000 1.523 . S
C1000 C984 1.368 . S
C1000 C996 1.368 . S
C1000 C999 1.523 . S
H1001 C976 0.950 . S
H1002 C978 0.950 . S
H1003 C979 0.949 . S
H1004 C981 0.950 . S
H1005 C983 0.950 . S
C1006 C1007 1.349 . S
C1006 C1008 1.327 . S
C1006 H1031 0.950 . S
C1007 C1006 1.349 . S
C1007 C1023 1.349 . S
C1008 C1006 1.327 . S
C1008 C1027 1.429 . S
C1008 H1032 0.950 . S
C1009 C1026 1.574 . S
C1009 C1028 1.368 . S
C1009 H1033 0.949 . S
H1010 C1014 0.949 . S
C1011 C1012 1.349 . S
C1011 C1013 1.327 . S
C1011 H1034 0.950 . S
C1012 C1011 1.349 . S
C1012 C1024 1.349 . S
C1013 C1011 1.327 . S
C1013 C1029 1.429 . S
C1013 H1035 0.950 . S
C1014 H1010 0.949 . S
C1014 C1022 1.574 . S
C1014 C1030 1.368 . S
H1015 C1023 0.950 . S
H1016 C1021 0.950 . S
H1017 C1022 0.949 . S
H1018 C1024 0.950 . S
H1019 C1025 0.950 . S
H1020 C1026 0.949 . S
C1021 H1016 0.950 . S
C1021 C1023 1.327 . S
C1021 C1027 1.429 . S
C1022 C1014 1.574 . S
C1022 H1017 0.949 . S
C1022 C1028 1.368 . S
C1023 C1007 1.349 . S
C1023 H1015 0.950 . S
C1023 C1021 1.327 . S
C1024 C1012 1.349 . S
C1024 H1018 0.950 . S
C1024 C1025 1.327 . S
C1025 H1019 0.950 . S
C1025 C1024 1.327 . S
C1025 C1029 1.429 . S
C1026 C1009 1.574 . S
C1026 H1020 0.949 . S
C1026 C1030 1.368 . S
C1027 C1008 1.429 . S
C1027 C1021 1.429 . S
C1027 C1028 1.523 . S
C1028 C1009 1.368 . S
C1028 C1022 1.368 . S
C1028 C1027 1.523 . S
C1029 C1013 1.429 . S
C1029 C1025 1.429 . S
C1029 C1030 1.523 . S
C1030 C1014 1.368 . S
C1030 C1026 1.368 . S
C1030 C1029 1.523 . S
H1031 C1006 0.950 . S
H1032 C1008 0.950 . S
H1033 C1009 0.949 . S
H1034 C1011 0.950 . S
H1035 C1013 0.950 . S
C1036 C1037 1.349 . S
C1036 C1038 1.327 . S
C1036 H1061 0.950 . S
C1037 C1036 1.349 . S
C1037 C1053 1.349 . S
C1038 C1036 1.327 . S
C1038 C1057 1.429 . S
C1038 H1062 0.950 . S
C1039 C1056 1.574 . S
C1039 C1058 1.368 . S
C1039 H1063 0.949 . S
H1040 C1044 0.949 . S
C1041 C1042 1.349 . S
C1041 C1043 1.327 . S
C1041 H1064 0.950 . S
C1042 C1041 1.349 . S
C1042 C1054 1.349 . S
C1043 C1041 1.327 . S
C1043 C1059 1.429 . S
C1043 H1065 0.950 . S
C1044 H1040 0.949 . S
C1044 C1052 1.574 . S
C1044 C1060 1.368 . S
H1045 C1053 0.950 . S
H1046 C1051 0.950 . S
H1047 C1052 0.949 . S
H1048 C1054 0.950 . S
H1049 C1055 0.950 . S
H1050 C1056 0.949 . S
C1051 H1046 0.950 . S
C1051 C1053 1.327 . S
C1051 C1057 1.429 . S
C1052 C1044 1.574 . S
C1052 H1047 0.949 . S
C1052 C1058 1.368 . S
C1053 C1037 1.349 . S
C1053 H1045 0.950 . S
C1053 C1051 1.327 . S
C1054 C1042 1.349 . S
C1054 H1048 0.950 . S
C1054 C1055 1.327 . S
C1055 H1049 0.950 . S
C1055 C1054 1.327 . S
C1055 C1059 1.429 . S
C1056 C1039 1.574 . S
C1056 H1050 0.949 . S
C1056 C1060 1.368 . S
C1057 C1038 1.429 . S
C1057 C1051 1.429 . S
C1057 C1058 1.523 . S
C1058 C1039 1.368 . S
C1058 C1052 1.368 . S
C1058 C1057 1.523 . S
C1059 C1043 1.429 . S
C1059 C1055 1.429 . S
C1059 C1060 1.523 . S
C1060 C1044 1.368 . S
C1060 C1056 1.368 . S
C1060 C1059 1.523 . S
H1061 C1036 0.950 . S
H1062 C1038 0.950 . S
H1063 C1039 0.949 . S
H1064 C1041 0.950 . S
H1065 C1043 0.950 . S
C1066 C1067 1.349 . S
C1066 C1068 1.327 . S
C1066 H1091 0.950 . S
C1067 C1066 1.349 . S
C1067 C1083 1.349 . S
C1068 C1066 1.327 . S
C1068 C1087 1.429 . S
C1068 H1092 0.950 . S
C1069 C1086 1.574 . S
C1069 C1088 1.368 . S
C1069 H1093 0.949 . S
H1070 C1074 0.949 . S
C1071 C1072 1.349 . S
C1071 C1073 1.327 . S
C1071 H1094 0.950 . S
C1072 C1071 1.349 . S
C1072 C1084 1.349 . S
C1073 C1071 1.327 . S
C1073 C1089 1.429 . S
C1073 H1095 0.950 . S
C1074 H1070 0.949 . S
C1074 C1082 1.574 . S
C1074 C1090 1.368 . S
H1075 C1083 0.950 . S
H1076 C1081 0.950 . S
H1077 C1082 0.949 . S
H1078 C1084 0.950 . S
H1079 C1085 0.950 . S
H1080 C1086 0.949 . S
C1081 H1076 0.950 . S
C1081 C1083 1.327 . S
C1081 C1087 1.429 . S
C1082 C1074 1.574 . S
C1082 H1077 0.949 . S
C1082 C1088 1.368 . S
C1083 C1067 1.349 . S
C1083 H1075 0.950 . S
C1083 C1081 1.327 . S
C1084 C1072 1.349 . S
C1084 H1078 0.950 . S
C1084 C1085 1.327 . S
C1085 H1079 0.950 . S
C1085 C1084 1.327 . S
C1085 C1089 1.429 . S
C1086 C1069 1.574 . S
C1086 H1080 0.949 . S
C1086 C1090 1.368 . S
C1087 C1068 1.429 . S
C1087 C1081 1.429 . S
C1087 C1088 1.523 . S
C1088 C1069 1.368 . S
C1088 C1082 1.368 . S
C1088 C1087 1.523 . S
C1089 C1073 1.429 . S
C1089 C1085 1.429 . S
C1089 C1090 1.523 . S
C1090 C1074 1.368 . S
C1090 C1086 1.368 . S
C1090 C1089 1.523 . S
H1091 C1066 0.950 . S
H1092 C1068 0.950 . S
H1093 C1069 0.949 . S
H1094 C1071 0.950 . S
H1095 C1073 0.950 . S
C1096 C1097 1.353 . S
C1096 C1098 1.330 . S
C1096 H1121 0.943 1_455 S
C1097 C1096 1.353 . S
C1097 C1113 1.349 . S
C1098 C1096 1.330 . S
C1098 C1117 1.429 . S
C1098 H1122 0.965 . S
C1099 C1116 1.574 . S
C1099 C1118 1.368 . S
C1099 H1123 0.949 . S
H1100 C1104 0.949 . S
C1101 C1102 1.349 . S
C1101 C1103 1.327 . S
C1101 H1124 0.950 . S
C1102 C1101 1.349 . S
C1102 C1114 1.349 . S
C1103 C1101 1.327 . S
C1103 C1119 1.429 . S
C1103 H1125 0.950 . S
C1104 H1100 0.949 . S
C1104 C1112 1.574 . S
C1104 C1120 1.368 . S
H1105 C1113 0.950 . S
H1106 C1111 0.950 . S
H1107 C1112 0.949 . S
H1108 C1114 0.950 . S
H1109 C1115 0.950 . S
H1110 C1116 0.949 . S
C1111 H1106 0.950 . S
C1111 C1113 1.327 . S
C1111 C1117 1.429 . S
C1112 C1104 1.574 . S
C1112 H1107 0.949 . S
C1112 C1118 1.368 . S
C1113 C1097 1.349 . S
C1113 H1105 0.950 . S
C1113 C1111 1.327 . S
C1114 C1102 1.349 . S
C1114 H1108 0.950 . S
C1114 C1115 1.327 . S
C1115 H1109 0.950 . S
C1115 C1114 1.327 . S
C1115 C1119 1.429 . S
C1116 C1099 1.574 . S
C1116 H1110 0.949 . S
C1116 C1120 1.368 . S
C1117 C1098 1.429 . S
C1117 C1111 1.429 . S
C1117 C1118 1.523 . S
C1118 C1099 1.368 . S
C1118 C1112 1.368 . S
C1118 C1117 1.523 . S
C1119 C1103 1.429 . S
C1119 C1115 1.429 . S
C1119 C1120 1.523 . S
C1120 C1104 1.368 . S
C1120 C1116 1.368 . S
C1120 C1119 1.523 . S
H1121 C1096 0.943 1_655 S
H1122 C1098 0.965 . S
H1123 C1099 0.949 . S
H1124 C1101 0.950 . S
H1125 C1103 0.950 . S
C1126 C1127 1.349 . S
C1126 C1128 1.327 . S
C1126 H1151 0.950 . S
C1127 C1126 1.349 . S
C1127 C1143 1.349 . S
C1128 C1126 1.327 . S
C1128 C1147 1.429 . S
C1128 H1152 0.950 . S
C1129 C1146 1.574 . S
C1129 C1148 1.368 . S
C1129 H1153 0.949 . S
H1130 C1134 0.949 . S
C1131 C1132 1.349 . S
C1131 C1133 1.327 . S
C1131 H1154 0.950 . S
C1132 C1131 1.349 . S
C1132 C1144 1.349 . S
C1133 C1131 1.327 . S
C1133 C1149 1.429 . S
C1133 H1155 0.950 . S
C1134 H1130 0.949 . S
C1134 C1142 1.574 . S
C1134 C1150 1.368 . S
H1135 C1143 0.950 . S
H1136 C1141 0.950 . S
H1137 C1142 0.949 . S
H1138 C1144 0.950 . S
H1139 C1145 0.950 . S
H1140 C1146 0.949 . S
C1141 H1136 0.950 . S
C1141 C1143 1.327 . S
C1141 C1147 1.429 . S
C1142 C1134 1.574 . S
C1142 H1137 0.949 . S
C1142 C1148 1.368 . S
C1143 C1127 1.349 . S
C1143 H1135 0.950 . S
C1143 C1141 1.327 . S
C1144 C1132 1.349 . S
C1144 H1138 0.950 . S
C1144 C1145 1.327 . S
C1145 H1139 0.950 . S
C1145 C1144 1.327 . S
C1145 C1149 1.429 . S
C1146 C1129 1.574 . S
C1146 H1140 0.949 . S
C1146 C1150 1.368 . S
C1147 C1128 1.429 . S
C1147 C1141 1.429 . S
C1147 C1148 1.523 . S
C1148 C1129 1.368 . S
C1148 C1142 1.368 . S
C1148 C1147 1.523 . S
C1149 C1133 1.429 . S
C1149 C1145 1.429 . S
C1149 C1150 1.523 . S
C1150 C1134 1.368 . S
C1150 C1146 1.368 . S
C1150 C1149 1.523 . S
H1151 C1126 0.950 . S
H1152 C1128 0.950 . S
H1153 C1129 0.949 . S
H1154 C1131 0.950 . S
H1155 C1133 0.950 . S
C1156 C1157 1.349 . S
C1156 C1158 1.327 . S
C1156 H1181 0.950 . S
C1157 C1156 1.349 . S
C1157 C1173 1.349 . S
C1158 C1156 1.327 . S
C1158 C1177 1.429 . S
C1158 H1182 0.950 . S
C1159 C1176 1.574 . S
C1159 C1178 1.368 . S
C1159 H1183 0.949 . S
H1160 C1164 0.949 . S
C1161 C1162 1.349 . S
C1161 C1163 1.327 . S
C1161 H1184 0.950 . S
C1162 C1161 1.349 . S
C1162 C1174 1.349 . S
C1163 C1161 1.327 . S
C1163 C1179 1.429 . S
C1163 H1185 0.950 . S
C1164 H1160 0.949 . S
C1164 C1172 1.574 . S
C1164 C1180 1.368 . S
H1165 C1173 0.950 . S
H1166 C1171 0.950 . S
H1167 C1172 0.949 . S
H1168 C1174 0.950 . S
H1169 C1175 0.950 . S
H1170 C1176 0.949 . S
C1171 H1166 0.950 . S
C1171 C1173 1.327 . S
C1171 C1177 1.429 . S
C1172 C1164 1.574 . S
C1172 H1167 0.949 . S
C1172 C1178 1.368 . S
C1173 C1157 1.349 . S
C1173 H1165 0.950 . S
C1173 C1171 1.327 . S
C1174 C1162 1.349 . S
C1174 H1168 0.950 . S
C1174 C1175 1.327 . S
C1175 H1169 0.950 . S
C1175 C1174 1.327 . S
C1175 C1179 1.429 . S
C1176 C1159 1.574 . S
C1176 H1170 0.949 . S
C1176 C1180 1.368 . S
C1177 C1158 1.429 . S
C1177 C1171 1.429 . S
C1177 C1178 1.523 . S
C1178 C1159 1.368 . S
C1178 C1172 1.368 . S
C1178 C1177 1.523 . S
C1179 C1163 1.429 . S
C1179 C1175 1.429 . S
C1179 C1180 1.523 . S
C1180 C1164 1.368 . S
C1180 C1176 1.368 . S
C1180 C1179 1.523 . S
H1181 C1156 0.950 . S
H1182 C1158 0.950 . S
H1183 C1159 0.949 . S
H1184 C1161 0.950 . S
H1185 C1163 0.950 . S
C1186 C1187 1.349 . S
C1186 C1188 1.327 . S
C1186 H1211 0.950 . S
C1187 C1186 1.349 . S
C1187 C1203 1.349 . S
C1188 C1186 1.327 . S
C1188 C1207 1.429 . S
C1188 H1212 0.950 . S
C1189 C1206 1.574 . S
C1189 C1208 1.368 . S
C1189 H1213 0.949 . S
H1190 C1194 0.949 . S
C1191 C1192 1.349 . S
C1191 C1193 1.327 . S
C1191 H1214 0.950 . S
C1192 C1191 1.349 . S
C1192 C1204 1.349 . S
C1193 C1191 1.327 . S
C1193 C1209 1.429 . S
C1193 H1215 0.950 . S
C1194 H1190 0.949 . S
C1194 C1202 1.574 . S
C1194 C1210 1.368 . S
H1195 C1203 0.950 . S
H1196 C1201 0.950 . S
H1197 C1202 0.949 . S
H1198 C1204 0.950 . S
H1199 C1205 0.950 . S
H1200 C1206 0.949 . S
C1201 H1196 0.950 . S
C1201 C1203 1.327 . S
C1201 C1207 1.429 . S
C1202 C1194 1.574 . S
C1202 H1197 0.949 . S
C1202 C1208 1.368 . S
C1203 C1187 1.349 . S
C1203 H1195 0.950 . S
C1203 C1201 1.327 . S
C1204 C1192 1.349 . S
C1204 H1198 0.950 . S
C1204 C1205 1.327 . S
C1205 H1199 0.950 . S
C1205 C1204 1.327 . S
C1205 C1209 1.429 . S
C1206 C1189 1.574 . S
C1206 H1200 0.949 . S
C1206 C1210 1.368 . S
C1207 C1188 1.429 . S
C1207 C1201 1.429 . S
C1207 C1208 1.523 . S
C1208 C1189 1.368 . S
C1208 C1202 1.368 . S
C1208 C1207 1.523 . S
C1209 C1193 1.429 . S
C1209 C1205 1.429 . S
C1209 C1210 1.523 . S
C1210 C1194 1.368 . S
C1210 C1206 1.368 . S
C1210 C1209 1.523 . S
H1211 C1186 0.950 . S
H1212 C1188 0.950 . S
H1213 C1189 0.949 . S
H1214 C1191 0.950 . S
H1215 C1193 0.950 . S
C1216 C1217 1.349 . S
C1216 C1218 1.327 . S
C1216 H1241 0.950 . S
C1217 C1216 1.349 . S
C1217 C1233 1.349 . S
C1218 C1216 1.327 . S
C1218 C1237 1.429 . S
C1218 H1242 0.950 . S
C1219 C1236 1.574 1_655 S
C1219 C1238 1.368 . S
C1219 H1243 0.949 . S
H1220 C1224 0.949 . S
C1221 C1222 1.349 . S
C1221 C1223 1.327 . S
C1221 H1244 0.950 . S
C1222 C1221 1.349 . S
C1222 C1234 1.349 . S
C1223 C1221 1.327 . S
C1223 C1239 1.429 . S
C1223 H1245 0.950 . S
C1224 H1220 0.949 . S
C1224 C1232 1.574 . S
C1224 C1240 1.368 . S
H1225 C1233 0.950 . S
H1226 C1231 0.950 . S
H1227 C1232 0.949 . S
H1228 C1234 0.950 . S
H1229 C1235 0.981 . S
H1230 C1236 0.949 . S
C1231 H1226 0.950 . S
C1231 C1233 1.327 . S
C1231 C1237 1.429 . S
C1232 C1224 1.574 . S
C1232 H1227 0.949 . S
C1232 C1238 1.368 . S
C1233 C1217 1.349 . S
C1233 H1225 0.950 . S
C1233 C1231 1.327 . S
C1234 C1222 1.349 . S
C1234 H1228 0.950 . S
C1234 C1235 1.300 1_455 S
C1235 H1229 0.981 . S
C1235 C1234 1.300 1_655 S
C1235 C1239 1.428 1_655 S
C1236 C1219 1.574 1_455 S
C1236 H1230 0.949 . S
C1236 C1240 1.368 1_455 S
C1237 C1218 1.429 . S
C1237 C1231 1.429 . S
C1237 C1238 1.523 . S
C1238 C1219 1.368 . S
C1238 C1232 1.368 . S
C1238 C1237 1.523 . S
C1239 C1223 1.429 . S
C1239 C1235 1.428 1_455 S
C1239 C1240 1.523 1_455 S
C1240 C1224 1.368 . S
C1240 C1236 1.368 1_655 S
C1240 C1239 1.523 1_655 S
H1241 C1216 0.950 . S
H1242 C1218 0.950 . S
H1243 C1219 0.949 . S
H1244 C1221 0.950 . S
H1245 C1223 0.950 . S
C1246 C1247 1.349 . S
C1246 C1248 1.327 . S
C1246 H1271 0.950 . S
C1247 C1246 1.349 . S
C1247 C1263 1.349 . S
C1248 C1246 1.327 . S
C1248 C1267 1.429 . S
C1248 H1272 0.950 . S
C1249 C1266 1.574 . S
C1249 C1268 1.368 . S
C1249 H1273 0.949 . S
H1250 C1254 0.949 . S
C1251 C1252 1.349 . S
C1251 C1253 1.327 . S
C1251 H1274 0.950 . S
C1252 C1251 1.349 . S
C1252 C1264 1.349 . S
C1253 C1251 1.327 . S
C1253 C1269 1.429 . S
C1253 H1275 0.950 . S
C1254 H1250 0.949 . S
C1254 C1262 1.574 . S
C1254 C1270 1.368 . S
H1255 C1263 0.950 . S
H1256 C1261 0.950 . S
H1257 C1262 0.949 . S
H1258 C1264 0.950 . S
H1259 C1265 0.950 . S
H1260 C1266 0.949 . S
C1261 H1256 0.950 . S
C1261 C1263 1.327 . S
C1261 C1267 1.429 . S
C1262 C1254 1.574 . S
C1262 H1257 0.949 . S
C1262 C1268 1.368 . S
C1263 C1247 1.349 . S
C1263 H1255 0.950 . S
C1263 C1261 1.327 . S
C1264 C1252 1.349 . S
C1264 H1258 0.950 . S
C1264 C1265 1.327 . S
C1265 H1259 0.950 . S
C1265 C1264 1.327 . S
C1265 C1269 1.429 . S
C1266 C1249 1.574 . S
C1266 H1260 0.949 . S
C1266 C1270 1.368 . S
C1267 C1248 1.429 . S
C1267 C1261 1.429 . S
C1267 C1268 1.523 . S
C1268 C1249 1.368 . S
C1268 C1262 1.368 . S
C1268 C1267 1.523 . S
C1269 C1253 1.429 . S
C1269 C1265 1.429 . S
C1269 C1270 1.523 . S
C1270 C1254 1.368 . S
C1270 C1266 1.368 . S
C1270 C1269 1.523 . S
H1271 C1246 0.950 . S
H1272 C1248 0.950 . S
H1273 C1249 0.949 . S
H1274 C1251 0.950 . S
H1275 C1253 0.950 . S
C1276 C1277 1.349 . S
C1276 C1278 1.327 . S
C1276 H1301 0.950 . S
C1277 C1276 1.349 . S
C1277 C1293 1.349 . S
C1278 C1276 1.327 . S
C1278 C1297 1.429 . S
C1278 H1302 0.950 . S
C1279 C1296 1.574 . S
C1279 C1298 1.368 . S
C1279 H1303 0.949 . S
H1280 C1284 0.949 . S
C1281 C1282 1.349 . S
C1281 C1283 1.327 . S
C1281 H1304 0.950 . S
C1282 C1281 1.349 . S
C1282 C1294 1.349 . S
C1283 C1281 1.327 . S
C1283 C1299 1.429 . S
C1283 H1305 0.950 . S
C1284 H1280 0.949 . S
C1284 C1292 1.574 . S
C1284 C1300 1.368 . S
H1285 C1293 0.950 . S
H1286 C1291 0.950 . S
H1287 C1292 0.949 . S
H1288 C1294 0.950 . S
H1289 C1295 0.950 . S
H1290 C1296 0.949 . S
C1291 H1286 0.950 . S
C1291 C1293 1.327 . S
C1291 C1297 1.429 . S
C1292 C1284 1.574 . S
C1292 H1287 0.949 . S
C1292 C1298 1.368 . S
C1293 C1277 1.349 . S
C1293 H1285 0.950 . S
C1293 C1291 1.327 . S
C1294 C1282 1.349 . S
C1294 H1288 0.950 . S
C1294 C1295 1.327 . S
C1295 H1289 0.950 . S
C1295 C1294 1.327 . S
C1295 C1299 1.429 . S
C1296 C1279 1.574 . S
C1296 H1290 0.949 . S
C1296 C1300 1.368 . S
C1297 C1278 1.429 . S
C1297 C1291 1.429 . S
C1297 C1298 1.523 . S
C1298 C1279 1.368 . S
C1298 C1292 1.368 . S
C1298 C1297 1.523 . S
C1299 C1283 1.429 . S
C1299 C1295 1.429 . S
C1299 C1300 1.523 . S
C1300 C1284 1.368 . S
C1300 C1296 1.368 . S
C1300 C1299 1.523 . S
H1301 C1276 0.950 . S
H1302 C1278 0.950 . S
H1303 C1279 0.949 . S
H1304 C1281 0.950 . S
H1305 C1283 0.950 . S
C1306 C1307 1.349 . S
C1306 C1308 1.327 . S
C1306 H1331 0.950 . S
C1307 C1306 1.349 . S
C1307 C1323 1.349 . S
C1308 C1306 1.327 . S
C1308 C1327 1.429 . S
C1308 H1332 0.950 . S
C1309 C1326 1.574 . S
C1309 C1328 1.368 . S
C1309 H1333 0.949 . S
H1310 C1314 0.949 . S
C1311 C1312 1.349 . S
C1311 C1313 1.327 . S
C1311 H1334 0.950 . S
C1312 C1311 1.349 . S
C1312 C1324 1.349 . S
C1313 C1311 1.327 . S
C1313 C1329 1.429 . S
C1313 H1335 0.950 . S
C1314 H1310 0.949 . S
C1314 C1322 1.574 . S
C1314 C1330 1.368 . S
H1315 C1323 0.950 . S
H1316 C1321 0.950 . S
H1317 C1322 0.949 . S
H1318 C1324 0.950 . S
H1319 C1325 0.950 . S
H1320 C1326 0.949 . S
C1321 H1316 0.950 . S
C1321 C1323 1.327 . S
C1321 C1327 1.429 . S
C1322 C1314 1.574 . S
C1322 H1317 0.949 . S
C1322 C1328 1.368 . S
C1323 C1307 1.349 . S
C1323 H1315 0.950 . S
C1323 C1321 1.327 . S
C1324 C1312 1.349 . S
C1324 H1318 0.950 . S
C1324 C1325 1.327 . S
C1325 H1319 0.950 . S
C1325 C1324 1.327 . S
C1325 C1329 1.429 . S
C1326 C1309 1.574 . S
C1326 H1320 0.949 . S
C1326 C1330 1.368 . S
C1327 C1308 1.429 . S
C1327 C1321 1.429 . S
C1327 C1328 1.523 . S
C1328 C1309 1.368 . S
C1328 C1322 1.368 . S
C1328 C1327 1.523 . S
C1329 C1313 1.429 . S
C1329 C1325 1.429 . S
C1329 C1330 1.523 . S
C1330 C1314 1.368 . S
C1330 C1326 1.368 . S
C1330 C1329 1.523 . S
H1331 C1306 0.950 . S
H1332 C1308 0.950 . S
H1333 C1309 0.949 . S
H1334 C1311 0.950 . S
H1335 C1313 0.950 . S
C1336 C1337 1.349 . S
C1336 C1338 1.327 . S
C1336 H1361 0.950 . S
C1337 C1336 1.349 . S
C1337 C1353 1.349 . S
C1338 C1336 1.327 . S
C1338 C1357 1.429 . S
C1338 H1362 0.950 . S
C1339 C1356 1.574 1_655 S
C1339 C1358 1.368 . S
C1339 H1363 0.949 . S
H1340 C1344 0.949 . S
C1341 C1342 1.349 . S
C1341 C1343 1.327 . S
C1341 H1364 0.950 . S
C1342 C1341 1.349 . S
C1342 C1354 1.349 . S
C1343 C1341 1.327 . S
C1343 C1359 1.429 . S
C1343 H1365 0.950 . S
C1344 H1340 0.949 . S
C1344 C1352 1.574 . S
C1344 C1360 1.368 . S
H1345 C1353 0.950 . S
H1346 C1351 0.950 . S
H1347 C1352 0.949 . S
H1348 C1354 0.950 . S
H1349 C1355 0.950 1_655 S
H1350 C1356 0.949 . S
C1351 H1346 0.950 . S
C1351 C1353 1.327 . S
C1351 C1357 1.429 . S
C1352 C1344 1.574 . S
C1352 H1347 0.949 . S
C1352 C1358 1.368 . S
C1353 C1337 1.349 . S
C1353 H1345 0.950 . S
C1353 C1351 1.327 . S
C1354 C1342 1.349 . S
C1354 H1348 0.950 . S
C1354 C1355 1.327 . S
C1355 H1349 0.950 1_455 S
C1355 C1354 1.327 . S
C1355 C1359 1.429 . S
C1356 C1339 1.574 1_455 S
C1356 H1350 0.949 . S
C1356 C1360 1.368 1_455 S
C1357 C1338 1.429 . S
C1357 C1351 1.429 . S
C1357 C1358 1.523 . S
C1358 C1339 1.368 . S
C1358 C1352 1.368 . S
C1358 C1357 1.523 . S
C1359 C1343 1.429 . S
C1359 C1355 1.429 . S
C1359 C1360 1.523 1_455 S
C1360 C1344 1.368 . S
C1360 C1356 1.368 1_655 S
C1360 C1359 1.523 1_655 S
H1361 C1336 0.950 . S
H1362 C1338 0.950 . S
H1363 C1339 0.949 . S
H1364 C1341 0.950 . S
H1365 C1343 0.950 . S
C1366 C1367 1.349 . S
C1366 C1368 1.327 . S
C1366 H1391 0.950 . S
C1367 C1366 1.349 . S
C1367 C1383 1.349 . S
C1368 C1366 1.327 . S
C1368 C1387 1.429 . S
C1368 H1392 0.950 . S
C1369 C1386 1.574 . S
C1369 C1388 1.368 . S
C1369 H1393 0.949 . S
H1370 C1374 0.949 . S
C1371 C1372 1.349 . S
C1371 C1373 1.327 . S
C1371 H1394 0.950 . S
C1372 C1371 1.349 . S
C1372 C1384 1.349 . S
C1373 C1371 1.327 . S
C1373 C1389 1.429 . S
C1373 H1395 0.950 . S
C1374 H1370 0.949 . S
C1374 C1382 1.574 . S
C1374 C1390 1.368 . S
H1375 C1383 0.950 . S
H1376 C1381 0.950 . S
H1377 C1382 0.949 . S
H1378 C1384 0.950 . S
H1379 C1385 0.950 . S
H1380 C1386 0.949 . S
C1381 H1376 0.950 . S
C1381 C1383 1.327 . S
C1381 C1387 1.429 . S
C1382 C1374 1.574 . S
C1382 H1377 0.949 . S
C1382 C1388 1.368 . S
C1383 C1367 1.349 . S
C1383 H1375 0.950 . S
C1383 C1381 1.327 . S
C1384 C1372 1.349 . S
C1384 H1378 0.950 . S
C1384 C1385 1.327 . S
C1385 H1379 0.950 . S
C1385 C1384 1.327 . S
C1385 C1389 1.429 . S
C1386 C1369 1.574 . S
C1386 H1380 0.949 . S
C1386 C1390 1.368 . S
C1387 C1368 1.429 . S
C1387 C1381 1.429 . S
C1387 C1388 1.523 . S
C1388 C1369 1.368 . S
C1388 C1382 1.368 . S
C1388 C1387 1.523 . S
C1389 C1373 1.429 . S
C1389 C1385 1.429 . S
C1389 C1390 1.523 . S
C1390 C1374 1.368 . S
C1390 C1386 1.368 . S
C1390 C1389 1.523 . S
H1391 C1366 0.950 . S
H1392 C1368 0.950 . S
H1393 C1369 0.949 . S
H1394 C1371 0.950 . S
H1395 C1373 0.950 . S
C1396 C1397 1.349 . S
C1396 C1398 1.327 . S
C1396 H1421 0.950 . S
C1397 C1396 1.349 . S
C1397 C1413 1.349 . S
C1398 C1396 1.327 . S
C1398 C1417 1.429 . S
C1398 H1422 0.950 . S
C1399 C1416 1.574 . S
C1399 C1418 1.368 . S
C1399 H1423 0.949 . S
H1400 C1404 0.949 . S
C1401 C1402 1.349 . S
C1401 C1403 1.327 . S
C1401 H1424 0.950 . S
C1402 C1401 1.349 . S
C1402 C1414 1.349 . S
C1403 C1401 1.327 . S
C1403 C1419 1.429 . S
C1403 H1425 0.950 . S
C1404 H1400 0.949 . S
C1404 C1412 1.574 . S
C1404 C1420 1.368 . S
H1405 C1413 0.950 . S
H1406 C1411 0.950 . S
H1407 C1412 0.949 . S
H1408 C1414 0.950 . S
H1409 C1415 0.950 . S
H1410 C1416 0.949 . S
C1411 H1406 0.950 . S
C1411 C1413 1.327 . S
C1411 C1417 1.429 . S
C1412 C1404 1.574 . S
C1412 H1407 0.949 . S
C1412 C1418 1.368 . S
C1413 C1397 1.349 . S
C1413 H1405 0.950 . S
C1413 C1411 1.327 . S
C1414 C1402 1.349 . S
C1414 H1408 0.950 . S
C1414 C1415 1.327 . S
C1415 H1409 0.950 . S
C1415 C1414 1.327 . S
C1415 C1419 1.429 . S
C1416 C1399 1.574 . S
C1416 H1410 0.949 . S
C1416 C1420 1.368 . S
C1417 C1398 1.429 . S
C1417 C1411 1.429 . S
C1417 C1418 1.523 . S
C1418 C1399 1.368 . S
C1418 C1412 1.368 . S
C1418 C1417 1.523 . S
C1419 C1403 1.429 . S
C1419 C1415 1.429 . S
C1419 C1420 1.523 . S
C1420 C1404 1.368 . S
C1420 C1416 1.368 . S
C1420 C1419 1.523 . S
H1421 C1396 0.950 . S
H1422 C1398 0.950 . S
H1423 C1399 0.949 . S
H1424 C1401 0.950 . S
H1425 C1403 0.950 . S
C1426 C1427 1.349 . S
C1426 C1428 1.327 . S
C1426 H1451 0.950 . S
C1427 C1426 1.349 . S
C1427 C1443 1.349 . S
C1428 C1426 1.327 . S
C1428 C1447 1.429 . S
C1428 H1452 0.950 . S
C1429 C1446 1.574 . S
C1429 C1448 1.368 . S
C1429 H1453 0.949 . S
H1430 C1434 0.949 . S
C1431 C1432 1.349 . S
C1431 C1433 1.327 . S
C1431 H1454 0.950 . S
C1432 C1431 1.349 . S
C1432 C1444 1.349 . S
C1433 C1431 1.327 . S
C1433 C1449 1.429 . S
C1433 H1455 0.950 . S
C1434 H1430 0.949 . S
C1434 C1442 1.574 . S
C1434 C1450 1.368 . S
H1435 C1443 0.950 . S
H1436 C1441 0.950 . S
H1437 C1442 0.949 . S
H1438 C1444 0.950 . S
H1439 C1445 0.950 . S
H1440 C1446 0.949 . S
C1441 H1436 0.950 . S
C1441 C1443 1.327 . S
C1441 C1447 1.429 . S
C1442 C1434 1.574 . S
C1442 H1437 0.949 . S
C1442 C1448 1.368 . S
C1443 C1427 1.349 . S
C1443 H1435 0.950 . S
C1443 C1441 1.327 . S
C1444 C1432 1.349 . S
C1444 H1438 0.950 . S
C1444 C1445 1.327 . S
C1445 H1439 0.950 . S
C1445 C1444 1.327 . S
C1445 C1449 1.429 . S
C1446 C1429 1.574 . S
C1446 H1440 0.949 . S
C1446 C1450 1.368 . S
C1447 C1428 1.429 . S
C1447 C1441 1.429 . S
C1447 C1448 1.523 . S
C1448 C1429 1.368 . S
C1448 C1442 1.368 . S
C1448 C1447 1.523 . S
C1449 C1433 1.429 . S
C1449 C1445 1.429 . S
C1449 C1450 1.523 . S
C1450 C1434 1.368 . S
C1450 C1446 1.368 . S
C1450 C1449 1.523 . S
H1451 C1426 0.950 . S
H1452 C1428 0.950 . S
H1453 C1429 0.949 . S
H1454 C1431 0.950 . S
H1455 C1433 0.950 . S
C1456 C1457 1.349 . S
C1456 C1458 1.327 . S
C1456 H1481 0.950 . S
C1457 C1456 1.349 . S
C1457 C1473 1.349 1_554 S
C1458 C1456 1.327 . S
C1458 C1477 1.429 . S
C1458 H1482 0.950 . S
C1459 C1476 1.574 . S
C1459 C1478 1.368 . S
C1459 H1483 0.949 1_554 S
H1460 C1464 0.949 . S
C1461 C1462 1.349 . S
C1461 C1463 1.327 . S
C1461 H1484 0.950 . S
C1462 C1461 1.349 . S
C1462 C1474 1.349 . S
C1463 C1461 1.327 . S
C1463 C1479 1.429 . S
C1463 H1485 0.950 . S
C1464 H1460 0.949 . S
C1464 C1472 1.574 . S
C1464 C1480 1.368 . S
H1465 C1473 0.950 . S
H1466 C1471 0.940 1_556 S
H1467 C1472 0.949 . S
H1468 C1474 0.950 1_545 S
H1469 C1475 0.950 . S
H1470 C1476 0.949 . S
C1471 H1466 0.940 1_554 S
C1471 C1473 1.325 1_554 S
C1471 C1477 1.440 . S
C1472 C1464 1.574 . S
C1472 H1467 0.949 . S
C1472 C1478 1.368 . S
C1473 C1457 1.349 1_556 S
C1473 H1465 0.950 . S
C1473 C1471 1.325 1_556 S
C1474 C1462 1.349 . S
C1474 H1468 0.950 1_565 S
C1474 C1475 1.327 . S
C1475 H1469 0.950 . S
C1475 C1474 1.327 . S
C1475 C1479 1.429 . S
C1476 C1459 1.574 . S
C1476 H1470 0.949 . S
C1476 C1480 1.368 . S
C1477 C1458 1.429 . S
C1477 C1471 1.440 . S
C1477 C1478 1.523 . S
C1478 C1459 1.368 . S
C1478 C1472 1.368 . S
C1478 C1477 1.523 . S
C1479 C1463 1.429 . S
C1479 C1475 1.429 . S
C1479 C1480 1.523 . S
C1480 C1464 1.368 . S
C1480 C1476 1.368 . S
C1480 C1479 1.523 . S
H1481 C1456 0.950 . S
H1482 C1458 0.950 . S
H1483 C1459 0.949 1_556 S
H1484 C1461 0.950 . S
H1485 C1463 0.950 . S
C1486 C1487 1.349 . S
C1486 C1488 1.327 . S
C1486 H1511 0.950 . S
C1487 C1486 1.349 . S
C1487 C1503 1.349 1_556 S
C1488 C1486 1.327 . S
C1488 C1507 1.442 . S
C1488 H1512 0.950 . S
C1489 C1506 1.574 . S
C1489 C1508 1.371 . S
C1489 H1513 0.949 . S
H1490 C1494 0.949 . S
C1491 C1492 1.349 . S
C1491 C1493 1.327 . S
C1491 H1514 0.950 . S
C1492 C1491 1.349 . S
C1492 C1504 1.349 1_554 S
C1493 C1491 1.327 . S
C1493 C1509 1.429 . S
C1493 H1515 0.950 . S
C1494 H1490 0.949 . S
C1494 C1502 1.574 . S
C1494 C1510 1.314 1_556 S
H1495 C1503 0.950 . S
H1496 C1501 0.950 . S
H1497 C1502 0.949 . S
H1498 C1504 0.950 . S
H1499 C1505 0.950 . S
H1500 C1506 0.949 . S
C1501 H1496 0.950 . S
C1501 C1503 1.327 . S
C1501 C1507 1.419 1_554 S
C1502 C1494 1.574 . S
C1502 H1497 0.949 . S
C1502 C1508 1.366 1_556 S
C1503 C1487 1.349 1_554 S
C1503 H1495 0.950 . S
C1503 C1501 1.327 . S
C1504 C1492 1.349 1_556 S
C1504 H1498 0.950 . S
C1504 C1505 1.327 . S
C1505 H1499 0.950 . S
C1505 C1504 1.327 . S
C1505 C1509 1.429 1_556 S
C1506 C1489 1.574 . S
C1506 H1500 0.949 . S
C1506 C1510 1.414 . S
C1507 C1488 1.442 . S
C1507 C1501 1.419 1_556 S
C1507 C1508 1.519 1_556 S
C1508 C1489 1.371 . S
C1508 C1502 1.366 1_554 S
C1508 C1507 1.519 1_554 S
C1509 C1493 1.429 . S
C1509 C1505 1.429 1_554 S
C1509 C1510 1.537 . S
C1510 C1494 1.314 1_554 S
C1510 C1506 1.414 . S
C1510 C1509 1.537 . S
H1511 C1486 0.950 . S
H1512 C1488 0.950 . S
H1513 C1489 0.949 . S
H1514 C1491 0.950 . S
H1515 C1493 0.950 . S
C1516 C1517 1.349 . S
C1516 C1518 1.327 . S
C1516 H1541 0.950 . S
C1517 C1516 1.349 . S
C1517 C1533 1.349 . S
C1518 C1516 1.327 . S
C1518 C1537 1.429 . S
C1518 H1542 0.950 . S
C1519 C1536 1.574 . S
C1519 C1538 1.368 . S
C1519 H1543 0.949 . S
H1520 C1524 0.949 . S
C1521 C1522 1.349 . S
C1521 C1523 1.327 . S
C1521 H1544 0.950 . S
C1522 C1521 1.349 . S
C1522 C1534 1.349 . S
C1523 C1521 1.327 . S
C1523 C1539 1.429 . S
C1523 H1545 0.950 . S
C1524 H1520 0.949 . S
C1524 C1532 1.574 . S
C1524 C1540 1.368 . S
H1525 C1533 0.950 . S
H1526 C1531 0.950 . S
H1527 C1532 0.949 . S
H1528 C1534 0.950 . S
H1529 C1535 0.950 . S
H1530 C1536 0.949 . S
C1531 H1526 0.950 . S
C1531 C1533 1.327 . S
C1531 C1537 1.429 . S
C1532 C1524 1.574 . S
C1532 H1527 0.949 . S
C1532 C1538 1.368 . S
C1533 C1517 1.349 . S
C1533 H1525 0.950 . S
C1533 C1531 1.327 . S
C1534 C1522 1.349 . S
C1534 H1528 0.950 . S
C1534 C1535 1.327 . S
C1535 H1529 0.950 . S
C1535 C1534 1.327 . S
C1535 C1539 1.429 . S
C1536 C1519 1.574 . S
C1536 H1530 0.949 . S
C1536 C1540 1.368 . S
C1537 C1518 1.429 . S
C1537 C1531 1.429 . S
C1537 C1538 1.523 . S
C1538 C1519 1.368 . S
C1538 C1532 1.368 . S
C1538 C1537 1.523 . S
C1539 C1523 1.429 . S
C1539 C1535 1.429 . S
C1539 C1540 1.523 . S
C1540 C1524 1.368 . S
C1540 C1536 1.368 . S
C1540 C1539 1.523 . S
H1541 C1516 0.950 . S
H1542 C1518 0.950 . S
H1543 C1519 0.949 . S
H1544 C1521 0.950 . S
H1545 C1523 0.950 . S
C1546 C1547 1.349 . S
C1546 C1548 1.327 . S
C1546 H1571 0.950 . S
C1547 C1546 1.349 . S
C1547 C1563 1.349 . S
C1548 C1546 1.327 . S
C1548 C1567 1.429 . S
C1548 H1572 0.950 . S
C1549 C1566 1.574 . S
C1549 C1568 1.368 . S
C1549 H1573 0.949 . S
H1550 C1554 0.949 . S
C1551 C1552 1.349 . S
C1551 C1553 1.327 . S
C1551 H1574 0.950 1_655 S
C1552 C1551 1.349 . S
C1552 C1564 1.349 . S
C1553 C1551 1.327 . S
C1553 C1569 1.429 . S
C1553 H1575 0.950 . S
C1554 H1550 0.949 . S
C1554 C1562 1.574 . S
C1554 C1570 1.368 . S
H1555 C1563 0.950 . S
H1556 C1561 0.950 . S
H1557 C1562 0.949 . S
H1558 C1564 0.950 . S
H1559 C1565 0.950 . S
H1560 C1566 0.949 . S
C1561 H1556 0.950 . S
C1561 C1563 1.327 . S
C1561 C1567 1.429 . S
C1562 C1554 1.574 . S
C1562 H1557 0.949 . S
C1562 C1568 1.368 . S
C1563 C1547 1.349 . S
C1563 H1555 0.950 . S
C1563 C1561 1.327 . S
C1564 C1552 1.349 . S
C1564 H1558 0.950 . S
C1564 C1565 1.327 . S
C1565 H1559 0.950 . S
C1565 C1564 1.327 . S
C1565 C1569 1.429 . S
C1566 C1549 1.574 . S
C1566 H1560 0.949 . S
C1566 C1570 1.368 . S
C1567 C1548 1.429 . S
C1567 C1561 1.429 . S
C1567 C1568 1.523 . S
C1568 C1549 1.368 . S
C1568 C1562 1.368 . S
C1568 C1567 1.523 . S
C1569 C1553 1.429 . S
C1569 C1565 1.429 . S
C1569 C1570 1.523 . S
C1570 C1554 1.368 . S
C1570 C1566 1.368 . S
C1570 C1569 1.523 . S
H1571 C1546 0.950 . S
H1572 C1548 0.950 . S
H1573 C1549 0.949 . S
H1574 C1551 0.950 1_455 S
H1575 C1553 0.950 . S
C1576 C1577 1.349 . S
C1576 C1578 1.327 . S
C1576 H1601 0.950 . S
C1577 C1576 1.349 . S
C1577 C1593 1.349 . S
C1578 C1576 1.327 . S
C1578 C1597 1.429 . S
C1578 H1602 0.950 . S
C1579 C1596 1.574 . S
C1579 C1598 1.368 . S
C1579 H1603 0.949 . S
H1580 C1584 0.949 . S
C1581 C1582 1.349 . S
C1581 C1583 1.327 . S
C1581 H1604 0.950 . S
C1582 C1581 1.349 . S
C1582 C1594 1.349 . S
C1583 C1581 1.327 . S
C1583 C1599 1.429 . S
C1583 H1605 0.950 . S
C1584 H1580 0.949 . S
C1584 C1592 1.574 . S
C1584 C1600 1.368 . S
H1585 C1593 0.950 . S
H1586 C1591 0.950 . S
H1587 C1592 0.949 . S
H1588 C1594 0.950 . S
H1589 C1595 0.950 . S
H1590 C1596 0.949 . S
C1591 H1586 0.950 . S
C1591 C1593 1.327 . S
C1591 C1597 1.429 . S
C1592 C1584 1.574 . S
C1592 H1587 0.949 . S
C1592 C1598 1.368 . S
C1593 C1577 1.349 . S
C1593 H1585 0.950 . S
C1593 C1591 1.327 . S
C1594 C1582 1.349 . S
C1594 H1588 0.950 . S
C1594 C1595 1.327 . S
C1595 H1589 0.950 . S
C1595 C1594 1.327 . S
C1595 C1599 1.429 . S
C1596 C1579 1.574 . S
C1596 H1590 0.949 . S
C1596 C1600 1.368 . S
C1597 C1578 1.429 . S
C1597 C1591 1.429 . S
C1597 C1598 1.523 . S
C1598 C1579 1.368 . S
C1598 C1592 1.368 . S
C1598 C1597 1.523 . S
C1599 C1583 1.429 . S
C1599 C1595 1.429 . S
C1599 C1600 1.523 . S
C1600 C1584 1.368 . S
C1600 C1596 1.368 . S
C1600 C1599 1.523 . S
H1601 C1576 0.950 . S
H1602 C1578 0.950 . S
H1603 C1579 0.949 . S
H1604 C1581 0.950 . S
H1605 C1583 0.950 . S
C1606 C1607 1.349 . S
C1606 C1608 1.327 . S
C1606 H1631 0.950 . S
C1607 C1606 1.349 . S
C1607 C1623 1.349 . S
C1608 C1606 1.327 . S
C1608 C1627 1.429 . S
C1608 H1632 0.950 . S
C1609 C1626 1.574 . S
C1609 C1628 1.368 . S
C1609 H1633 0.949 . S
H1610 C1614 0.949 . S
C1611 C1612 1.349 . S
C1611 C1613 1.327 . S
C1611 H1634 0.950 . S
C1612 C1611 1.349 . S
C1612 C1624 1.349 . S
C1613 C1611 1.327 . S
C1613 C1629 1.429 . S
C1613 H1635 0.950 . S
C1614 H1610 0.949 . S
C1614 C1622 1.574 . S
C1614 C1630 1.368 . S
H1615 C1623 0.950 . S
H1616 C1621 0.950 . S
H1617 C1622 0.949 . S
H1618 C1624 0.950 . S
H1619 C1625 0.950 . S
H1620 C1626 0.949 . S
C1621 H1616 0.950 . S
C1621 C1623 1.327 . S
C1621 C1627 1.429 . S
C1622 C1614 1.574 . S
C1622 H1617 0.949 . S
C1622 C1628 1.368 . S
C1623 C1607 1.349 . S
C1623 H1615 0.950 . S
C1623 C1621 1.327 . S
C1624 C1612 1.349 . S
C1624 H1618 0.950 . S
C1624 C1625 1.327 . S
C1625 H1619 0.950 . S
C1625 C1624 1.327 . S
C1625 C1629 1.429 . S
C1626 C1609 1.574 . S
C1626 H1620 0.949 . S
C1626 C1630 1.368 . S
C1627 C1608 1.429 . S
C1627 C1621 1.429 . S
C1627 C1628 1.523 . S
C1628 C1609 1.368 . S
C1628 C1622 1.368 . S
C1628 C1627 1.523 . S
C1629 C1613 1.429 . S
C1629 C1625 1.429 . S
C1629 C1630 1.523 . S
C1630 C1614 1.368 . S
C1630 C1626 1.368 . S
C1630 C1629 1.523 . S
H1631 C1606 0.950 . S
H1632 C1608 0.950 . S
H1633 C1609 0.949 . S
H1634 C1611 0.950 . S
H1635 C1613 0.950 . S
C1636 C1637 1.349 . S
C1636 C1638 1.327 . S
C1636 H1661 0.950 . S
C1637 C1636 1.349 . S
C1637 C1653 1.349 . S
C1638 C1636 1.327 . S
C1638 C1657 1.429 . S
C1638 H1662 0.950 . S
C1639 C1656 1.574 . S
C1639 C1658 1.368 . S
C1639 H1663 0.949 . S
H1640 C1644 0.949 . S
C1641 C1642 1.349 . S
C1641 C1643 1.327 . S
C1641 H1664 0.950 . S
C1642 C1641 1.349 . S
C1642 C1654 1.349 . S
C1643 C1641 1.327 . S
C1643 C1659 1.429 . S
C1643 H1665 0.950 . S
C1644 H1640 0.949 . S
C1644 C1652 1.574 . S
C1644 C1660 1.368 . S
H1645 C1653 0.950 . S
H1646 C1651 0.950 . S
H1647 C1652 0.949 . S
H1648 C1654 0.950 . S
H1649 C1655 0.950 . S
H1650 C1656 0.949 . S
C1651 H1646 0.950 . S
C1651 C1653 1.327 . S
C1651 C1657 1.429 . S
C1652 C1644 1.574 . S
C1652 H1647 0.949 . S
C1652 C1658 1.368 . S
C1653 C1637 1.349 . S
C1653 H1645 0.950 . S
C1653 C1651 1.327 . S
C1654 C1642 1.349 . S
C1654 H1648 0.950 . S
C1654 C1655 1.327 . S
C1655 H1649 0.950 . S
C1655 C1654 1.327 . S
C1655 C1659 1.429 . S
C1656 C1639 1.574 . S
C1656 H1650 0.949 . S
C1656 C1660 1.368 . S
C1657 C1638 1.429 . S
C1657 C1651 1.429 . S
C1657 C1658 1.523 . S
C1658 C1639 1.368 . S
C1658 C1652 1.368 . S
C1658 C1657 1.523 . S
C1659 C1643 1.429 . S
C1659 C1655 1.429 . S
C1659 C1660 1.523 . S
C1660 C1644 1.368 . S
C1660 C1656 1.368 . S
C1660 C1659 1.523 . S
H1661 C1636 0.950 . S
H1662 C1638 0.950 . S
H1663 C1639 0.949 . S
H1664 C1641 0.950 . S
H1665 C1643 0.950 . S
C1666 C1667 1.349 . S
C1666 C1668 1.327 . S
C1666 H1691 0.950 . S
C1667 C1666 1.349 . S
C1667 C1683 1.349 . S
C1668 C1666 1.327 . S
C1668 C1687 1.429 . S
C1668 H1692 0.950 . S
C1669 C1686 1.574 . S
C1669 C1688 1.368 . S
C1669 H1693 0.949 . S
H1670 C1674 0.949 . S
C1671 C1672 1.349 . S
C1671 C1673 1.327 . S
C1671 H1694 0.950 . S
C1672 C1671 1.349 . S
C1672 C1684 1.349 . S
C1673 C1671 1.327 . S
C1673 C1689 1.429 . S
C1673 H1695 0.950 . S
C1674 H1670 0.949 . S
C1674 C1682 1.574 . S
C1674 C1690 1.368 . S
H1675 C1683 0.950 . S
H1676 C1681 0.950 . S
H1677 C1682 0.949 . S
H1678 C1684 0.950 . S
H1679 C1685 0.950 . S
H1680 C1686 0.949 . S
C1681 H1676 0.950 . S
C1681 C1683 1.327 . S
C1681 C1687 1.429 . S
C1682 C1674 1.574 . S
C1682 H1677 0.949 . S
C1682 C1688 1.368 . S
C1683 C1667 1.349 . S
C1683 H1675 0.950 . S
C1683 C1681 1.327 . S
C1684 C1672 1.349 . S
C1684 H1678 0.950 . S
C1684 C1685 1.327 . S
C1685 H1679 0.950 . S
C1685 C1684 1.327 . S
C1685 C1689 1.429 . S
C1686 C1669 1.574 . S
C1686 H1680 0.949 . S
C1686 C1690 1.368 . S
C1687 C1668 1.429 . S
C1687 C1681 1.429 . S
C1687 C1688 1.523 . S
C1688 C1669 1.368 . S
C1688 C1682 1.368 . S
C1688 C1687 1.523 . S
C1689 C1673 1.429 . S
C1689 C1685 1.429 . S
C1689 C1690 1.523 . S
C1690 C1674 1.368 . S
C1690 C1686 1.368 . S
C1690 C1689 1.523 . S
H1691 C1666 0.950 . S
H1692 C1668 0.950 . S
H1693 C1669 0.949 . S
H1694 C1671 0.950 . S
H1695 C1673 0.950 . S
C1696 C1697 1.349 . S
C1696 C1698 1.327 . S
C1696 H1721 0.950 . S
C1697 C1696 1.349 . S
C1697 C1713 1.349 . S
C1698 C1696 1.327 . S
C1698 C1717 1.429 . S
C1698 H1722 0.950 . S
C1699 C1716 1.574 . S
C1699 C1718 1.368 . S
C1699 H1723 0.949 . S
H1700 C1704 0.949 . S
C1701 C1702 1.349 . S
C1701 C1703 1.327 . S
C1701 H1724 0.950 . S
C1702 C1701 1.349 . S
C1702 C1714 1.349 . S
C1703 C1701 1.327 . S
C1703 C1719 1.429 . S
C1703 H1725 0.950 . S
C1704 H1700 0.949 . S
C1704 C1712 1.574 . S
C1704 C1720 1.368 . S
H1705 C1713 0.950 . S
H1706 C1711 0.950 . S
H1707 C1712 0.949 . S
H1708 C1714 0.950 . S
H1709 C1715 0.950 . S
H1710 C1716 0.949 . S
C1711 H1706 0.950 . S
C1711 C1713 1.327 . S
C1711 C1717 1.429 . S
C1712 C1704 1.574 . S
C1712 H1707 0.949 . S
C1712 C1718 1.368 . S
C1713 C1697 1.349 . S
C1713 H1705 0.950 . S
C1713 C1711 1.327 . S
C1714 C1702 1.349 . S
C1714 H1708 0.950 . S
C1714 C1715 1.327 . S
C1715 H1709 0.950 . S
C1715 C1714 1.327 . S
C1715 C1719 1.429 . S
C1716 C1699 1.574 . S
C1716 H1710 0.949 . S
C1716 C1720 1.368 . S
C1717 C1698 1.429 . S
C1717 C1711 1.429 . S
C1717 C1718 1.523 . S
C1718 C1699 1.368 . S
C1718 C1712 1.368 . S
C1718 C1717 1.523 . S
C1719 C1703 1.429 . S
C1719 C1715 1.429 . S
C1719 C1720 1.523 . S
C1720 C1704 1.368 . S
C1720 C1716 1.368 . S
C1720 C1719 1.523 . S
H1721 C1696 0.950 . S
H1722 C1698 0.950 . S
H1723 C1699 0.949 . S
H1724 C1701 0.950 . S
H1725 C1703 0.950 . S
C1726 C1727 1.349 . S
C1726 C1728 1.327 . S
C1726 H1751 0.950 . S
C1727 C1726 1.349 . S
C1727 C1743 1.349 . S
C1728 C1726 1.327 . S
C1728 C1747 1.429 . S
C1728 H1752 0.950 . S
C1729 C1746 1.574 . S
C1729 C1748 1.368 . S
C1729 H1753 0.949 . S
H1730 C1734 0.949 . S
C1731 C1732 1.349 . S
C1731 C1733 1.327 . S
C1731 H1754 0.950 . S
C1732 C1731 1.349 . S
C1732 C1744 1.349 . S
C1733 C1731 1.327 . S
C1733 C1749 1.429 . S
C1733 H1755 0.950 . S
C1734 H1730 0.949 . S
C1734 C1742 1.574 . S
C1734 C1750 1.368 . S
H1735 C1743 0.950 . S
H1736 C1741 0.950 . S
H1737 C1742 0.949 . S
H1738 C1744 0.950 . S
H1739 C1745 0.950 . S
H1740 C1746 0.949 . S
C1741 H1736 0.950 . S
C1741 C1743 1.327 . S
C1741 C1747 1.429 . S
C1742 C1734 1.574 . S
C1742 H1737 0.949 . S
C1742 C1748 1.368 . S
C1743 C1727 1.349 . S
C1743 H1735 0.950 . S
C1743 C1741 1.327 . S
C1744 C1732 1.349 . S
C1744 H1738 0.950 . S
C1744 C1745 1.327 . S
C1745 H1739 0.950 . S
C1745 C1744 1.327 . S
C1745 C1749 1.429 . S
C1746 C1729 1.574 . S
C1746 H1740 0.949 . S
C1746 C1750 1.368 . S
C1747 C1728 1.429 . S
C1747 C1741 1.429 . S
C1747 C1748 1.523 . S
C1748 C1729 1.368 . S
C1748 C1742 1.368 . S
C1748 C1747 1.523 . S
C1749 C1733 1.429 . S
C1749 C1745 1.429 . S
C1749 C1750 1.523 . S
C1750 C1734 1.368 . S
C1750 C1746 1.368 . S
C1750 C1749 1.523 . S
H1751 C1726 0.950 . S
H1752 C1728 0.950 . S
H1753 C1729 0.949 . S
H1754 C1731 0.950 . S
H1755 C1733 0.950 . S
C1756 C1757 1.349 . S
C1756 C1758 1.327 . S
C1756 H1781 0.950 . S
C1757 C1756 1.349 . S
C1757 C1773 1.349 . S
C1758 C1756 1.327 . S
C1758 C1777 1.429 . S
C1758 H1782 0.950 . S
C1759 C1776 1.574 . S
C1759 C1778 1.368 . S
C1759 H1783 0.949 . S
H1760 C1764 0.949 . S
C1761 C1762 1.349 . S
C1761 C1763 1.327 . S
C1761 H1784 0.950 . S
C1762 C1761 1.349 . S
C1762 C1774 1.349 . S
C1763 C1761 1.327 . S
C1763 C1779 1.429 . S
C1763 H1785 0.950 . S
C1764 H1760 0.949 . S
C1764 C1772 1.574 . S
C1764 C1780 1.368 . S
H1765 C1773 0.950 . S
H1766 C1771 0.950 . S
H1767 C1772 0.949 . S
H1768 C1774 0.950 . S
H1769 C1775 0.950 . S
H1770 C1776 0.949 . S
C1771 H1766 0.950 . S
C1771 C1773 1.327 . S
C1771 C1777 1.429 . S
C1772 C1764 1.574 . S
C1772 H1767 0.949 . S
C1772 C1778 1.368 . S
C1773 C1757 1.349 . S
C1773 H1765 0.950 . S
C1773 C1771 1.327 . S
C1774 C1762 1.349 . S
C1774 H1768 0.950 . S
C1774 C1775 1.327 . S
C1775 H1769 0.950 . S
C1775 C1774 1.327 . S
C1775 C1779 1.429 . S
C1776 C1759 1.574 . S
C1776 H1770 0.949 . S
C1776 C1780 1.368 . S
C1777 C1758 1.429 . S
C1777 C1771 1.429 . S
C1777 C1778 1.523 . S
C1778 C1759 1.368 . S
C1778 C1772 1.368 . S
C1778 C1777 1.523 . S
C1779 C1763 1.429 . S
C1779 C1775 1.429 . S
C1779 C1780 1.523 . S
C1780 C1764 1.368 . S
C1780 C1776 1.368 . S
C1780 C1779 1.523 . S
H1781 C1756 0.950 . S
H1782 C1758 0.950 . S
H1783 C1759 0.949 . S
H1784 C1761 0.950 . S
H1785 C1763 0.950 . S
C1786 C1787 1.349 . S
C1786 C1788 1.327 . S
C1786 H1811 0.950 . S
C1787 C1786 1.349 . S
C1787 C1803 1.349 . S
C1788 C1786 1.327 . S
C1788 C1807 1.429 . S
C1788 H1812 0.950 . S
C1789 C1806 1.574 . S
C1789 C1808 1.368 . S
C1789 H1813 0.949 . S
H1790 C1794 0.949 . S
C1791 C1792 1.349 . S
C1791 C1793 1.327 . S
C1791 H1814 0.950 . S
C1792 C1791 1.349 . S
C1792 C1804 1.349 . S
C1793 C1791 1.327 . S
C1793 C1809 1.429 . S
C1793 H1815 0.950 . S
C1794 H1790 0.949 . S
C1794 C1802 1.574 . S
C1794 C1810 1.368 . S
H1795 C1803 0.950 . S
H1796 C1801 0.950 . S
H1797 C1802 0.949 . S
H1798 C1804 0.950 . S
H1799 C1805 0.950 . S
H1800 C1806 0.949 . S
C1801 H1796 0.950 . S
C1801 C1803 1.327 . S
C1801 C1807 1.429 . S
C1802 C1794 1.574 . S
C1802 H1797 0.949 . S
C1802 C1808 1.368 . S
C1803 C1787 1.349 . S
C1803 H1795 0.950 . S
C1803 C1801 1.327 . S
C1804 C1792 1.349 . S
C1804 H1798 0.950 . S
C1804 C1805 1.327 . S
C1805 H1799 0.950 . S
C1805 C1804 1.327 . S
C1805 C1809 1.429 . S
C1806 C1789 1.574 . S
C1806 H1800 0.949 . S
C1806 C1810 1.368 . S
C1807 C1788 1.429 . S
C1807 C1801 1.429 . S
C1807 C1808 1.523 . S
C1808 C1789 1.368 . S
C1808 C1802 1.368 . S
C1808 C1807 1.523 . S
C1809 C1793 1.429 . S
C1809 C1805 1.429 . S
C1809 C1810 1.523 . S
C1810 C1794 1.368 . S
C1810 C1806 1.368 . S
C1810 C1809 1.523 . S
H1811 C1786 0.950 . S
H1812 C1788 0.950 . S
H1813 C1789 0.949 . S
H1814 C1791 0.950 . S
H1815 C1793 0.950 . S
C1816 C1817 1.349 . S
C1816 C1818 1.327 . S
C1816 H1841 0.950 . S
C1817 C1816 1.349 . S
C1817 C1833 1.349 . S
C1818 C1816 1.327 . S
C1818 C1837 1.429 . S
C1818 H1842 0.950 . S
C1819 C1836 1.574 . S
C1819 C1838 1.368 . S
C1819 H1843 0.949 . S
H1820 C1824 0.949 . S
C1821 C1822 1.349 . S
C1821 C1823 1.327 . S
C1821 H1844 0.950 . S
C1822 C1821 1.349 . S
C1822 C1834 1.349 . S
C1823 C1821 1.327 . S
C1823 C1839 1.429 . S
C1823 H1845 0.950 . S
C1824 H1820 0.949 . S
C1824 C1832 1.574 . S
C1824 C1840 1.368 . S
H1825 C1833 0.950 . S
H1826 C1831 0.950 . S
H1827 C1832 0.949 . S
H1828 C1834 0.950 . S
H1829 C1835 0.950 . S
H1830 C1836 0.949 . S
C1831 H1826 0.950 . S
C1831 C1833 1.327 . S
C1831 C1837 1.429 . S
C1832 C1824 1.574 . S
C1832 H1827 0.949 . S
C1832 C1838 1.368 . S
C1833 C1817 1.349 . S
C1833 H1825 0.950 . S
C1833 C1831 1.327 . S
C1834 C1822 1.349 . S
C1834 H1828 0.950 . S
C1834 C1835 1.327 . S
C1835 H1829 0.950 . S
C1835 C1834 1.327 . S
C1835 C1839 1.429 . S
C1836 C1819 1.574 . S
C1836 H1830 0.949 . S
C1836 C1840 1.368 . S
C1837 C1818 1.429 . S
C1837 C1831 1.429 . S
C1837 C1838 1.523 . S
C1838 C1819 1.368 . S
C1838 C1832 1.368 . S
C1838 C1837 1.523 . S
C1839 C1823 1.429 . S
C1839 C1835 1.429 . S
C1839 C1840 1.523 . S
C1840 C1824 1.368 . S
C1840 C1836 1.368 . S
C1840 C1839 1.523 . S
H1841 C1816 0.950 . S
H1842 C1818 0.950 . S
H1843 C1819 0.949 . S
H1844 C1821 0.950 . S
H1845 C1823 0.950 . S
C1846 C1847 1.349 . S
C1846 C1848 1.327 . S
C1846 H1871 0.950 . S
C1847 C1846 1.349 . S
C1847 C1863 1.349 . S
C1848 C1846 1.327 . S
C1848 C1867 1.429 . S
C1848 H1872 0.950 . S
C1849 C1866 1.574 . S
C1849 C1868 1.368 . S
C1849 H1873 0.949 . S
H1850 C1854 0.949 . S
C1851 C1852 1.349 . S
C1851 C1853 1.327 . S
C1851 H1874 0.950 . S
C1852 C1851 1.349 . S
C1852 C1864 1.349 . S
C1853 C1851 1.327 . S
C1853 C1869 1.429 . S
C1853 H1875 0.950 . S
C1854 H1850 0.949 . S
C1854 C1862 1.574 . S
C1854 C1870 1.368 . S
H1855 C1863 0.950 . S
H1856 C1861 0.950 . S
H1857 C1862 0.949 . S
H1858 C1864 0.950 . S
H1859 C1865 0.950 . S
H1860 C1866 0.949 . S
C1861 H1856 0.950 . S
C1861 C1863 1.327 . S
C1861 C1867 1.429 . S
C1862 C1854 1.574 . S
C1862 H1857 0.949 . S
C1862 C1868 1.368 . S
C1863 C1847 1.349 . S
C1863 H1855 0.950 . S
C1863 C1861 1.327 . S
C1864 C1852 1.349 . S
C1864 H1858 0.950 . S
C1864 C1865 1.327 . S
C1865 H1859 0.950 . S
C1865 C1864 1.327 . S
C1865 C1869 1.429 . S
C1866 C1849 1.574 . S
C1866 H1860 0.949 . S
C1866 C1870 1.368 . S
C1867 C1848 1.429 . S
C1867 C1861 1.429 . S
C1867 C1868 1.523 . S
C1868 C1849 1.368 . S
C1868 C1862 1.368 . S
C1868 C1867 1.523 . S
C1869 C1853 1.429 . S
C1869 C1865 1.429 . S
C1869 C1870 1.523 . S
C1870 C1854 1.368 . S
C1870 C1866 1.368 . S
C1870 C1869 1.523 . S
H1871 C1846 0.950 . S
H1872 C1848 0.950 . S
H1873 C1849 0.949 . S
H1874 C1851 0.950 . S
H1875 C1853 0.950 . S
C1876 C1877 1.349 . S
C1876 C1878 1.327 . S
C1876 H1901 0.950 . S
C1877 C1876 1.349 . S
C1877 C1893 1.349 . S
C1878 C1876 1.327 . S
C1878 C1897 1.429 . S
C1878 H1902 0.950 . S
C1879 C1896 1.574 . S
C1879 C1898 1.368 . S
C1879 H1903 0.949 . S
H1880 C1884 0.949 . S
C1881 C1882 1.349 . S
C1881 C1883 1.327 . S
C1881 H1904 0.950 . S
C1882 C1881 1.349 . S
C1882 C1894 1.349 . S
C1883 C1881 1.327 . S
C1883 C1899 1.429 . S
C1883 H1905 0.950 . S
C1884 H1880 0.949 . S
C1884 C1892 1.574 . S
C1884 C1900 1.368 . S
H1885 C1893 0.950 . S
H1886 C1891 0.950 . S
H1887 C1892 0.949 . S
H1888 C1894 0.950 . S
H1889 C1895 0.950 . S
H1890 C1896 0.949 . S
C1891 H1886 0.950 . S
C1891 C1893 1.327 . S
C1891 C1897 1.429 . S
C1892 C1884 1.574 . S
C1892 H1887 0.949 . S
C1892 C1898 1.368 . S
C1893 C1877 1.349 . S
C1893 H1885 0.950 . S
C1893 C1891 1.327 . S
C1894 C1882 1.349 . S
C1894 H1888 0.950 . S
C1894 C1895 1.327 . S
C1895 H1889 0.950 . S
C1895 C1894 1.327 . S
C1895 C1899 1.429 . S
C1896 C1879 1.574 . S
C1896 H1890 0.949 . S
C1896 C1900 1.368 . S
C1897 C1878 1.429 . S
C1897 C1891 1.429 . S
C1897 C1898 1.523 . S
C1898 C1879 1.368 . S
C1898 C1892 1.368 . S
C1898 C1897 1.523 . S
C1899 C1883 1.429 . S
C1899 C1895 1.429 . S
C1899 C1900 1.523 . S
C1900 C1884 1.368 . S
C1900 C1896 1.368 . S
C1900 C1899 1.523 . S
H1901 C1876 0.950 . S
H1902 C1878 0.950 . S
H1903 C1879 0.949 . S
H1904 C1881 0.950 . S
H1905 C1883 0.950 . S
C1906 C1907 1.349 . S
C1906 C1908 1.327 . S
C1906 H1931 0.950 . S
C1907 C1906 1.349 . S
C1907 C1923 1.349 . S
C1908 C1906 1.327 . S
C1908 C1927 1.429 . S
C1908 H1932 0.950 . S
C1909 C1926 1.574 . S
C1909 C1928 1.368 . S
C1909 H1933 0.949 . S
H1910 C1914 0.949 . S
C1911 C1912 1.349 . S
C1911 C1913 1.327 . S
C1911 H1934 0.950 . S
C1912 C1911 1.349 . S
C1912 C1924 1.349 . S
C1913 C1911 1.327 . S
C1913 C1929 1.429 . S
C1913 H1935 0.950 . S
C1914 H1910 0.949 . S
C1914 C1922 1.574 . S
C1914 C1930 1.368 . S
H1915 C1923 0.950 . S
H1916 C1921 0.950 . S
H1917 C1922 0.949 . S
H1918 C1924 0.950 . S
H1919 C1925 0.950 . S
H1920 C1926 0.949 . S
C1921 H1916 0.950 . S
C1921 C1923 1.327 . S
C1921 C1927 1.429 . S
C1922 C1914 1.574 . S
C1922 H1917 0.949 . S
C1922 C1928 1.368 . S
C1923 C1907 1.349 . S
C1923 H1915 0.950 . S
C1923 C1921 1.327 . S
C1924 C1912 1.349 . S
C1924 H1918 0.950 . S
C1924 C1925 1.327 . S
C1925 H1919 0.950 . S
C1925 C1924 1.327 . S
C1925 C1929 1.429 . S
C1926 C1909 1.574 . S
C1926 H1920 0.949 . S
C1926 C1930 1.368 . S
C1927 C1908 1.429 . S
C1927 C1921 1.429 . S
C1927 C1928 1.523 . S
C1928 C1909 1.368 . S
C1928 C1922 1.368 . S
C1928 C1927 1.523 . S
C1929 C1913 1.429 . S
C1929 C1925 1.429 . S
C1929 C1930 1.523 . S
C1930 C1914 1.368 . S
C1930 C1926 1.368 . S
C1930 C1929 1.523 . S
H1931 C1906 0.950 . S
H1932 C1908 0.950 . S
H1933 C1909 0.949 . S
H1934 C1911 0.950 . S
H1935 C1913 0.950 . S
C1936 C1937 1.349 . S
C1936 C1938 1.327 . S
C1936 H1961 0.950 . S
C1937 C1936 1.349 . S
C1937 C1953 1.349 1_545 S
C1938 C1936 1.327 . S
C1938 C1957 1.429 . S
C1938 H1962 0.950 . S
C1939 C1956 1.574 . S
C1939 C1958 1.368 1_565 S
C1939 H1963 0.949 . S
H1940 C1944 0.949 . S
C1941 C1942 1.349 . S
C1941 C1943 1.327 . S
C1941 H1964 0.950 1_545 S
C1942 C1941 1.349 . S
C1942 C1954 1.349 . S
C1943 C1941 1.327 . S
C1943 C1959 1.429 . S
C1943 H1965 0.950 1_545 S
C1944 H1940 0.949 . S
C1944 C1952 1.574 . S
C1944 C1960 1.368 . S
H1945 C1953 0.950 . S
H1946 C1951 0.950 . S
H1947 C1952 0.949 . S
H1948 C1954 0.950 . S
H1949 C1955 0.950 . S
H1950 C1956 0.949 . S
C1951 H1946 0.950 . S
C1951 C1953 1.327 . S
C1951 C1957 1.429 1_565 S
C1952 C1944 1.574 . S
C1952 H1947 0.949 . S
C1952 C1958 1.368 . S
C1953 C1937 1.349 1_565 S
C1953 H1945 0.950 . S
C1953 C1951 1.327 . S
C1954 C1942 1.349 . S
C1954 H1948 0.950 . S
C1954 C1955 1.327 . S
C1955 H1949 0.950 . S
C1955 C1954 1.327 . S
C1955 C1959 1.429 . S
C1956 C1939 1.574 . S
C1956 H1950 0.949 . S
C1956 C1960 1.368 1_565 S
C1957 C1938 1.429 . S
C1957 C1951 1.429 1_545 S
C1957 C1958 1.523 . S
C1958 C1939 1.368 1_545 S
C1958 C1952 1.368 . S
C1958 C1957 1.523 . S
C1959 C1943 1.429 . S
C1959 C1955 1.429 . S
C1959 C1960 1.523 . S
C1960 C1944 1.368 . S
C1960 C1956 1.368 1_545 S
C1960 C1959 1.523 . S
H1961 C1936 0.950 . S
H1962 C1938 0.950 . S
H1963 C1939 0.949 . S
H1964 C1941 0.950 1_565 S
H1965 C1943 0.950 1_565 S
C1966 C1967 1.349 . S
C1966 C1968 1.327 . S
C1966 H1991 0.950 . S
C1967 C1966 1.349 . S
C1967 C1983 1.349 . S
C1968 C1966 1.327 . S
C1968 C1987 1.429 . S
C1968 H1992 0.950 . S
C1969 C1986 1.574 . S
C1969 C1988 1.368 . S
C1969 H1993 0.949 . S
H1970 C1974 0.949 . S
C1971 C1972 1.349 . S
C1971 C1973 1.327 . S
C1971 H1994 0.950 . S
C1972 C1971 1.349 . S
C1972 C1984 1.349 . S
C1973 C1971 1.327 . S
C1973 C1989 1.429 . S
C1973 H1995 0.950 . S
C1974 H1970 0.949 . S
C1974 C1982 1.574 . S
C1974 C1990 1.368 . S
H1975 C1983 0.950 . S
H1976 C1981 0.950 . S
H1977 C1982 0.949 . S
H1978 C1984 0.950 . S
H1979 C1985 0.950 . S
H1980 C1986 0.949 . S
C1981 H1976 0.950 . S
C1981 C1983 1.327 . S
C1981 C1987 1.429 . S
C1982 C1974 1.574 . S
C1982 H1977 0.949 . S
C1982 C1988 1.368 . S
C1983 C1967 1.349 . S
C1983 H1975 0.950 . S
C1983 C1981 1.327 . S
C1984 C1972 1.349 . S
C1984 H1978 0.950 . S
C1984 C1985 1.327 . S
C1985 H1979 0.950 . S
C1985 C1984 1.327 . S
C1985 C1989 1.429 . S
C1986 C1969 1.574 . S
C1986 H1980 0.949 . S
C1986 C1990 1.368 . S
C1987 C1968 1.429 . S
C1987 C1981 1.429 . S
C1987 C1988 1.523 . S
C1988 C1969 1.368 . S
C1988 C1982 1.368 . S
C1988 C1987 1.523 . S
C1989 C1973 1.429 . S
C1989 C1985 1.429 . S
C1989 C1990 1.523 . S
C1990 C1974 1.368 . S
C1990 C1986 1.368 . S
C1990 C1989 1.523 . S
H1991 C1966 0.950 . S
H1992 C1968 0.950 . S
H1993 C1969 0.949 . S
H1994 C1971 0.950 . S
H1995 C1973 0.950 . S
C1996 C1997 1.349 . S
C1996 C1998 1.327 . S
C1996 H2021 0.950 1_545 S
C1997 C1996 1.349 . S
C1997 C2013 1.349 . S
C1998 C1996 1.327 . S
C1998 C2017 1.429 . S
C1998 H2022 0.950 1_545 S
C1999 C2016 1.574 . S
C1999 C2018 1.368 . S
C1999 H2023 0.949 . S
H2000 C2004 0.944 1_565 S
C2001 C2002 1.349 . S
C2001 C2003 1.327 . S
C2001 H2024 0.950 . S
C2002 C2001 1.349 . S
C2002 C2014 1.349 . S
C2003 C2001 1.327 . S
C2003 C2019 1.429 . S
C2003 H2025 0.950 . S
C2004 H2000 0.944 1_545 S
C2004 C2012 1.574 . S
C2004 C2020 1.368 . S
H2005 C2013 0.950 . S
H2006 C2011 0.950 . S
H2007 C2012 0.949 1_565 S
H2008 C2014 0.950 . S
H2009 C2015 0.950 . S
H2010 C2016 0.949 . S
C2011 H2006 0.950 . S
C2011 C2013 1.327 . S
C2011 C2017 1.429 . S
C2012 C2004 1.574 . S
C2012 H2007 0.949 1_545 S
C2012 C2018 1.368 . S
C2013 C1997 1.349 . S
C2013 H2005 0.950 . S
C2013 C2011 1.327 . S
C2014 C2002 1.349 . S
C2014 H2008 0.950 . S
C2014 C2015 1.327 . S
C2015 H2009 0.950 . S
C2015 C2014 1.327 . S
C2015 C2019 1.429 . S
C2016 C1999 1.574 . S
C2016 H2010 0.949 . S
C2016 C2020 1.368 . S
C2017 C1998 1.429 . S
C2017 C2011 1.429 . S
C2017 C2018 1.523 . S
C2018 C1999 1.368 . S
C2018 C2012 1.368 . S
C2018 C2017 1.523 . S
C2019 C2003 1.429 . S
C2019 C2015 1.429 . S
C2019 C2020 1.523 . S
C2020 C2004 1.368 . S
C2020 C2016 1.368 . S
C2020 C2019 1.523 . S
H2021 C1996 0.950 1_565 S
H2022 C1998 0.950 1_565 S
H2023 C1999 0.949 . S
H2024 C2001 0.950 . S
H2025 C2003 0.950 . S
C2026 C2027 1.349 . S
C2026 C2028 1.327 . S
C2026 H2051 0.950 . S
C2027 C2026 1.349 . S
C2027 C2043 1.349 . S
C2028 C2026 1.327 . S
C2028 C2047 1.429 . S
C2028 H2052 0.950 . S
C2029 C2046 1.574 . S
C2029 C2048 1.368 . S
C2029 H2053 0.949 . S
H2030 C2034 0.949 . S
C2031 C2032 1.349 . S
C2031 C2033 1.327 . S
C2031 H2054 0.950 . S
C2032 C2031 1.349 . S
C2032 C2044 1.349 . S
C2033 C2031 1.327 . S
C2033 C2049 1.429 . S
C2033 H2055 0.950 . S
C2034 H2030 0.949 . S
C2034 C2042 1.574 . S
C2034 C2050 1.368 . S
H2035 C2043 0.950 . S
H2036 C2041 0.950 . S
H2037 C2042 0.949 . S
H2038 C2044 0.950 . S
H2039 C2045 0.950 . S
H2040 C2046 0.949 . S
C2041 H2036 0.950 . S
C2041 C2043 1.327 . S
C2041 C2047 1.429 . S
C2042 C2034 1.574 . S
C2042 H2037 0.949 . S
C2042 C2048 1.368 . S
C2043 C2027 1.349 . S
C2043 H2035 0.950 . S
C2043 C2041 1.327 . S
C2044 C2032 1.349 . S
C2044 H2038 0.950 . S
C2044 C2045 1.327 . S
C2045 H2039 0.950 . S
C2045 C2044 1.327 . S
C2045 C2049 1.429 . S
C2046 C2029 1.574 . S
C2046 H2040 0.949 . S
C2046 C2050 1.368 . S
C2047 C2028 1.429 . S
C2047 C2041 1.429 . S
C2047 C2048 1.523 . S
C2048 C2029 1.368 . S
C2048 C2042 1.368 . S
C2048 C2047 1.523 . S
C2049 C2033 1.429 . S
C2049 C2045 1.429 . S
C2049 C2050 1.523 . S
C2050 C2034 1.368 . S
C2050 C2046 1.368 . S
C2050 C2049 1.523 . S
H2051 C2026 0.950 . S
H2052 C2028 0.950 . S
H2053 C2029 0.949 . S
H2054 C2031 0.950 . S
H2055 C2033 0.950 . S
C2056 C2057 1.349 . S
C2056 C2058 1.327 . S
C2056 H2081 0.950 . S
C2057 C2056 1.349 . S
C2057 C2073 1.349 1_565 S
C2058 C2056 1.327 . S
C2058 C2077 1.429 1_565 S
C2058 H2082 0.950 . S
C2059 C2076 1.574 . S
C2059 C2078 1.368 . S
C2059 H2083 0.949 . S
H2060 C2064 0.949 . S
C2061 C2062 1.349 . S
C2061 C2063 1.327 . S
C2061 H2084 0.950 . S
C2062 C2061 1.349 . S
C2062 C2074 1.349 . S
C2063 C2061 1.327 . S
C2063 C2079 1.429 . S
C2063 H2085 0.950 . S
C2064 H2060 0.949 . S
C2064 C2072 1.574 . S
C2064 C2080 1.368 1_565 S
H2065 C2073 0.950 . S
H2066 C2071 0.950 . S
H2067 C2072 0.949 . S
H2068 C2074 0.950 1_565 S
H2069 C2075 0.950 1_565 S
H2070 C2076 0.949 . S
C2071 H2066 0.950 . S
C2071 C2073 1.327 . S
C2071 C2077 1.429 . S
C2072 C2064 1.574 . S
C2072 H2067 0.949 . S
C2072 C2078 1.368 1_565 S
C2073 C2057 1.349 1_545 S
C2073 H2065 0.950 . S
C2073 C2071 1.327 . S
C2074 C2062 1.349 . S
C2074 H2068 0.950 1_545 S
C2074 C2075 1.327 . S
C2075 H2069 0.950 1_545 S
C2075 C2074 1.327 . S
C2075 C2079 1.429 . S
C2076 C2059 1.574 . S
C2076 H2070 0.949 . S
C2076 C2080 1.368 . S
C2077 C2058 1.429 1_545 S
C2077 C2071 1.429 . S
C2077 C2078 1.523 . S
C2078 C2059 1.368 . S
C2078 C2072 1.368 1_545 S
C2078 C2077 1.523 . S
C2079 C2063 1.429 . S
C2079 C2075 1.429 . S
C2079 C2080 1.523 . S
C2080 C2064 1.368 1_545 S
C2080 C2076 1.368 . S
C2080 C2079 1.523 . S
H2081 C2056 0.950 . S
H2082 C2058 0.950 . S
H2083 C2059 0.949 . S
H2084 C2061 0.950 . S
H2085 C2063 0.950 . S
C2086 C2087 1.349 . S
C2086 C2088 1.327 . S
C2086 H2111 0.950 . S
C2087 C2086 1.349 . S
C2087 C2103 1.349 . S
C2088 C2086 1.327 . S
C2088 C2107 1.429 . S
C2088 H2112 0.950 . S
C2089 C2106 1.574 . S
C2089 C2108 1.368 . S
C2089 H2113 0.949 . S
H2090 C2094 0.949 . S
C2091 C2092 1.349 . S
C2091 C2093 1.327 . S
C2091 H2114 0.950 . S
C2092 C2091 1.349 . S
C2092 C2104 1.349 . S
C2093 C2091 1.327 . S
C2093 C2109 1.429 . S
C2093 H2115 0.950 . S
C2094 H2090 0.949 . S
C2094 C2102 1.574 . S
C2094 C2110 1.368 . S
H2095 C2103 0.950 . S
H2096 C2101 0.950 . S
H2097 C2102 0.949 . S
H2098 C2104 0.950 . S
H2099 C2105 0.950 . S
H2100 C2106 0.949 . S
C2101 H2096 0.950 . S
C2101 C2103 1.327 . S
C2101 C2107 1.429 . S
C2102 C2094 1.574 . S
C2102 H2097 0.949 . S
C2102 C2108 1.368 . S
C2103 C2087 1.349 . S
C2103 H2095 0.950 . S
C2103 C2101 1.327 . S
C2104 C2092 1.349 . S
C2104 H2098 0.950 . S
C2104 C2105 1.327 . S
C2105 H2099 0.950 . S
C2105 C2104 1.327 . S
C2105 C2109 1.429 . S
C2106 C2089 1.574 . S
C2106 H2100 0.949 . S
C2106 C2110 1.368 . S
C2107 C2088 1.429 . S
C2107 C2101 1.429 . S
C2107 C2108 1.523 . S
C2108 C2089 1.368 . S
C2108 C2102 1.368 . S
C2108 C2107 1.523 . S
C2109 C2093 1.429 . S
C2109 C2105 1.429 . S
C2109 C2110 1.523 . S
C2110 C2094 1.368 . S
C2110 C2106 1.368 . S
C2110 C2109 1.523 . S
H2111 C2086 0.950 . S
H2112 C2088 0.950 . S
H2113 C2089 0.949 . S
H2114 C2091 0.950 . S
H2115 C2093 0.950 . S
C2116 C2117 1.349 1_565 S
C2116 C2118 1.327 . S
C2116 H2141 0.950 . S
C2117 C2116 1.349 1_545 S
C2117 C2133 1.349 . S
C2118 C2116 1.327 . S
C2118 C2137 1.429 1_565 S
C2118 H2142 0.950 . S
C2119 C2136 1.574 . S
C2119 C2138 1.368 . S
C2119 H2143 0.949 . S
H2120 C2124 0.949 . S
C2121 C2122 1.349 1_545 S
C2121 C2123 1.327 . S
C2121 H2144 0.950 . S
C2122 C2121 1.349 1_565 S
C2122 C2134 1.349 . S
C2123 C2121 1.327 . S
C2123 C2139 1.429 1_545 S
C2123 H2145 0.950 . S
C2124 H2120 0.949 . S
C2124 C2132 1.574 . S
C2124 C2140 1.368 . S
H2125 C2133 0.950 . S
H2126 C2131 0.950 . S
H2127 C2132 0.949 . S
H2128 C2134 0.950 . S
H2129 C2135 0.950 . S
H2130 C2136 0.949 . S
C2131 H2126 0.950 . S
C2131 C2133 1.327 . S
C2131 C2137 1.429 . S
C2132 C2124 1.574 . S
C2132 H2127 0.949 . S
C2132 C2138 1.368 1_565 S
C2133 C2117 1.349 . S
C2133 H2125 0.950 . S
C2133 C2131 1.327 . S
C2134 C2122 1.349 . S
C2134 H2128 0.950 . S
C2134 C2135 1.327 . S
C2135 H2129 0.950 . S
C2135 C2134 1.327 . S
C2135 C2139 1.429 . S
C2136 C2119 1.574 . S
C2136 H2130 0.949 . S
C2136 C2140 1.368 1_545 S
C2137 C2118 1.429 1_545 S
C2137 C2131 1.429 . S
C2137 C2138 1.523 . S
C2138 C2119 1.368 . S
C2138 C2132 1.368 1_545 S
C2138 C2137 1.523 . S
C2139 C2123 1.429 1_565 S
C2139 C2135 1.429 . S
C2139 C2140 1.523 . S
C2140 C2124 1.368 . S
C2140 C2136 1.368 1_565 S
C2140 C2139 1.523 . S
H2141 C2116 0.950 . S
H2142 C2118 0.950 . S
H2143 C2119 0.949 . S
H2144 C2121 0.950 . S
H2145 C2123 0.950 . S
C2146 C2147 1.349 . S
C2146 C2148 1.327 . S
C2146 H2171 0.950 . S
C2147 C2146 1.349 . S
C2147 C2163 1.349 . S
C2148 C2146 1.327 . S
C2148 C2167 1.429 . S
C2148 H2172 0.950 . S
C2149 C2166 1.574 . S
C2149 C2168 1.368 . S
C2149 H2173 0.949 . S
H2150 C2154 0.949 . S
C2151 C2152 1.349 . S
C2151 C2153 1.327 . S
C2151 H2174 0.950 . S
C2152 C2151 1.349 . S
C2152 C2164 1.349 . S
C2153 C2151 1.327 . S
C2153 C2169 1.429 . S
C2153 H2175 0.950 . S
C2154 H2150 0.949 . S
C2154 C2162 1.574 . S
C2154 C2170 1.368 . S
H2155 C2163 0.950 . S
H2156 C2161 0.950 . S
H2157 C2162 0.949 . S
H2158 C2164 0.950 . S
H2159 C2165 0.950 . S
H2160 C2166 0.949 . S
C2161 H2156 0.950 . S
C2161 C2163 1.327 . S
C2161 C2167 1.429 . S
C2162 C2154 1.574 . S
C2162 H2157 0.949 . S
C2162 C2168 1.368 . S
C2163 C2147 1.349 . S
C2163 H2155 0.950 . S
C2163 C2161 1.327 . S
C2164 C2152 1.349 . S
C2164 H2158 0.950 . S
C2164 C2165 1.327 . S
C2165 H2159 0.950 . S
C2165 C2164 1.327 . S
C2165 C2169 1.429 . S
C2166 C2149 1.574 . S
C2166 H2160 0.949 . S
C2166 C2170 1.368 . S
C2167 C2148 1.429 . S
C2167 C2161 1.429 . S
C2167 C2168 1.523 . S
C2168 C2149 1.368 . S
C2168 C2162 1.368 . S
C2168 C2167 1.523 . S
C2169 C2153 1.429 . S
C2169 C2165 1.429 . S
C2169 C2170 1.523 . S
C2170 C2154 1.368 . S
C2170 C2166 1.368 . S
C2170 C2169 1.523 . S
H2171 C2146 0.950 . S
H2172 C2148 0.950 . S
H2173 C2149 0.949 . S
H2174 C2151 0.950 . S
H2175 C2153 0.950 . S
C2176 C2177 1.349 . S
C2176 C2178 1.327 . S
C2176 H2201 0.950 . S
C2177 C2176 1.349 . S
C2177 C2193 1.349 1_554 S
C2178 C2176 1.327 . S
C2178 C2197 1.429 . S
C2178 H2202 0.950 . S
C2179 C2196 1.574 . S
C2179 C2198 1.368 . S
C2179 H2203 0.949 . S
H2180 C2184 0.949 . S
C2181 C2182 1.349 . S
C2181 C2183 1.327 . S
C2181 H2204 0.950 . S
C2182 C2181 1.349 . S
C2182 C2194 1.349 . S
C2183 C2181 1.327 . S
C2183 C2199 1.429 . S
C2183 H2205 0.950 . S
C2184 H2180 0.949 . S
C2184 C2192 1.574 . S
C2184 C2200 1.368 1_554 S
H2185 C2193 0.950 . S
H2186 C2191 0.950 . S
H2187 C2192 0.949 . S
H2188 C2194 0.950 1_554 S
H2189 C2195 0.932 1_554 S
H2190 C2196 0.949 . S
C2191 H2186 0.950 . S
C2191 C2193 1.327 . S
C2191 C2197 1.429 1_556 S
C2192 C2184 1.574 . S
C2192 H2187 0.949 . S
C2192 C2198 1.368 1_554 S
C2193 C2177 1.349 1_556 S
C2193 H2185 0.950 . S
C2193 C2191 1.327 . S
C2194 C2182 1.349 . S
C2194 H2188 0.950 1_556 S
C2194 C2195 1.331 . S
C2195 H2189 0.932 1_556 S
C2195 C2194 1.331 . S
C2195 C2199 1.442 . S
C2196 C2179 1.574 . S
C2196 H2190 0.949 . S
C2196 C2200 1.368 . S
C2197 C2178 1.429 . S
C2197 C2191 1.429 1_554 S
C2197 C2198 1.523 1_554 S
C2198 C2179 1.368 . S
C2198 C2192 1.368 1_556 S
C2198 C2197 1.523 1_556 S
C2199 C2183 1.429 . S
C2199 C2195 1.442 . S
C2199 C2200 1.523 . S
C2200 C2184 1.368 1_556 S
C2200 C2196 1.368 . S
C2200 C2199 1.523 . S
H2201 C2176 0.950 . S
H2202 C2178 0.950 . S
H2203 C2179 0.949 . S
H2204 C2181 0.950 . S
H2205 C2183 0.950 . S
C2206 C2207 1.349 . S
C2206 C2208 1.327 . S
C2206 H2231 0.950 1_554 S
C2207 C2206 1.349 . S
C2207 C2223 1.349 . S
C2208 C2206 1.327 . S
C2208 C2227 1.429 . S
C2208 H2232 0.950 1_554 S
C2209 C2226 1.574 . S
C2209 C2228 1.368 . S
C2209 H2233 0.949 . S
H2210 C2214 0.949 1_556 S
C2211 C2212 1.349 . S
C2211 C2213 1.327 . S
C2211 H2234 0.950 . S
C2212 C2211 1.349 . S
C2212 C2224 1.349 . S
C2213 C2211 1.327 . S
C2213 C2229 1.429 . S
C2213 H2235 0.950 . S
C2214 H2210 0.949 1_554 S
C2214 C2222 1.574 . S
C2214 C2230 1.368 . S
H2215 C2223 0.950 . S
H2216 C2221 0.950 . S
H2217 C2222 0.949 1_556 S
H2218 C2224 0.950 1_556 S
H2219 C2225 0.950 1_556 S
H2220 C2226 0.949 . S
C2221 H2216 0.950 . S
C2221 C2223 1.327 . S
C2221 C2227 1.429 . S
C2222 C2214 1.574 . S
C2222 H2217 0.949 1_554 S
C2222 C2228 1.368 . S
C2223 C2207 1.349 . S
C2223 H2215 0.950 . S
C2223 C2221 1.327 . S
C2224 C2212 1.349 . S
C2224 H2218 0.950 1_554 S
C2224 C2225 1.327 . S
C2225 H2219 0.950 1_554 S
C2225 C2224 1.327 . S
C2225 C2229 1.429 . S
C2226 C2209 1.574 . S
C2226 H2220 0.949 . S
C2226 C2230 1.368 . S
C2227 C2208 1.429 . S
C2227 C2221 1.429 . S
C2227 C2228 1.523 . S
C2228 C2209 1.368 . S
C2228 C2222 1.368 . S
C2228 C2227 1.523 . S
C2229 C2213 1.429 . S
C2229 C2225 1.429 . S
C2229 C2230 1.523 . S
C2230 C2214 1.368 . S
C2230 C2226 1.368 . S
C2230 C2229 1.523 . S
H2231 C2206 0.950 1_556 S
H2232 C2208 0.950 1_556 S
H2233 C2209 0.949 . S
H2234 C2211 0.950 . S
H2235 C2213 0.950 . S
C2236 C2237 1.349 . S
C2236 C2238 1.327 . S
C2236 H2261 0.950 . S
C2237 C2236 1.349 . S
C2237 C2253 1.349 . S
C2238 C2236 1.327 . S
C2238 C2257 1.429 . S
C2238 H2262 0.950 . S
C2239 C2256 1.574 . S
C2239 C2258 1.368 . S
C2239 H2263 0.949 . S
H2240 C2244 0.949 . S
C2241 C2242 1.349 . S
C2241 C2243 1.327 . S
C2241 H2264 0.950 . S
C2242 C2241 1.349 . S
C2242 C2254 1.349 . S
C2243 C2241 1.327 . S
C2243 C2259 1.429 . S
C2243 H2265 0.950 . S
C2244 H2240 0.949 . S
C2244 C2252 1.574 . S
C2244 C2260 1.368 . S
H2245 C2253 0.950 . S
H2246 C2251 0.950 . S
H2247 C2252 0.949 . S
H2248 C2254 0.950 . S
H2249 C2255 0.950 . S
H2250 C2256 0.949 . S
C2251 H2246 0.950 . S
C2251 C2253 1.327 . S
C2251 C2257 1.429 . S
C2252 C2244 1.574 . S
C2252 H2247 0.949 . S
C2252 C2258 1.368 . S
C2253 C2237 1.349 . S
C2253 H2245 0.950 . S
C2253 C2251 1.327 . S
C2254 C2242 1.349 . S
C2254 H2248 0.950 . S
C2254 C2255 1.327 . S
C2255 H2249 0.950 . S
C2255 C2254 1.327 . S
C2255 C2259 1.429 . S
C2256 C2239 1.574 . S
C2256 H2250 0.949 . S
C2256 C2260 1.368 . S
C2257 C2238 1.429 . S
C2257 C2251 1.429 . S
C2257 C2258 1.523 . S
C2258 C2239 1.368 . S
C2258 C2252 1.368 . S
C2258 C2257 1.523 . S
C2259 C2243 1.429 . S
C2259 C2255 1.429 . S
C2259 C2260 1.523 . S
C2260 C2244 1.368 . S
C2260 C2256 1.368 . S
C2260 C2259 1.523 . S
H2261 C2236 0.950 . S
H2262 C2238 0.950 . S
H2263 C2239 0.949 . S
H2264 C2241 0.950 . S
H2265 C2243 0.950 . S
C2266 C2267 1.349 . S
C2266 C2268 1.327 . S
C2266 H2291 0.950 . S
C2267 C2266 1.349 . S
C2267 C2283 1.349 . S
C2268 C2266 1.327 . S
C2268 C2287 1.429 . S
C2268 H2292 0.950 . S
C2269 C2286 1.574 . S
C2269 C2288 1.368 . S
C2269 H2293 0.949 . S
H2270 C2274 0.949 . S
C2271 C2272 1.349 . S
C2271 C2273 1.327 . S
C2271 H2294 0.950 . S
C2272 C2271 1.349 . S
C2272 C2284 1.349 . S
C2273 C2271 1.327 . S
C2273 C2289 1.429 . S
C2273 H2295 0.950 . S
C2274 H2270 0.949 . S
C2274 C2282 1.574 . S
C2274 C2290 1.368 . S
H2275 C2283 0.950 . S
H2276 C2281 0.950 . S
H2277 C2282 0.949 . S
H2278 C2284 0.950 . S
H2279 C2285 0.950 . S
H2280 C2286 0.949 . S
C2281 H2276 0.950 . S
C2281 C2283 1.327 . S
C2281 C2287 1.429 . S
C2282 C2274 1.574 . S
C2282 H2277 0.949 . S
C2282 C2288 1.368 . S
C2283 C2267 1.349 . S
C2283 H2275 0.950 . S
C2283 C2281 1.327 . S
C2284 C2272 1.349 . S
C2284 H2278 0.950 . S
C2284 C2285 1.327 . S
C2285 H2279 0.950 . S
C2285 C2284 1.327 . S
C2285 C2289 1.429 . S
C2286 C2269 1.574 . S
C2286 H2280 0.949 . S
C2286 C2290 1.368 . S
C2287 C2268 1.429 . S
C2287 C2281 1.429 . S
C2287 C2288 1.523 . S
C2288 C2269 1.368 . S
C2288 C2282 1.368 . S
C2288 C2287 1.523 . S
C2289 C2273 1.429 . S
C2289 C2285 1.429 . S
C2289 C2290 1.523 . S
C2290 C2274 1.368 . S
C2290 C2286 1.368 . S
C2290 C2289 1.523 . S
H2291 C2266 0.950 . S
H2292 C2268 0.950 . S
H2293 C2269 0.949 . S
H2294 C2271 0.950 . S
H2295 C2273 0.950 . S
C2296 C2297 1.339 1_565 S
C2296 C2298 1.327 . S
C2296 H2321 0.950 1_565 S
C2297 C2296 1.339 1_545 S
C2297 C2313 1.335 1_545 S
C2298 C2296 1.327 . S
C2298 C2317 1.429 . S
C2298 H2322 0.950 . S
C2299 C2316 1.574 . S
C2299 C2318 1.368 . S
C2299 H2323 0.949 . S
H2300 C2304 0.949 . S
C2301 C2302 1.349 . S
C2301 C2303 1.327 . S
C2301 H2324 0.950 . S
C2302 C2301 1.349 . S
C2302 C2314 1.349 . S
C2303 C2301 1.327 . S
C2303 C2319 1.429 . S
C2303 H2325 0.950 . S
C2304 H2300 0.949 . S
C2304 C2312 1.574 . S
C2304 C2320 1.368 . S
H2305 C2313 0.950 . S
H2306 C2311 0.950 . S
H2307 C2312 0.949 . S
H2308 C2314 0.950 . S
H2309 C2315 0.950 . S
H2310 C2316 0.949 . S
C2311 H2306 0.950 . S
C2311 C2313 1.327 . S
C2311 C2317 1.429 . S
C2312 C2304 1.574 . S
C2312 H2307 0.949 . S
C2312 C2318 1.368 . S
C2313 C2297 1.335 1_565 S
C2313 H2305 0.950 . S
C2313 C2311 1.327 . S
C2314 C2302 1.349 . S
C2314 H2308 0.950 . S
C2314 C2315 1.327 . S
C2315 H2309 0.950 . S
C2315 C2314 1.327 . S
C2315 C2319 1.429 . S
C2316 C2299 1.574 . S
C2316 H2310 0.949 . S
C2316 C2320 1.368 . S
C2317 C2298 1.429 . S
C2317 C2311 1.429 . S
C2317 C2318 1.523 . S
C2318 C2299 1.368 . S
C2318 C2312 1.368 . S
C2318 C2317 1.523 . S
C2319 C2303 1.429 . S
C2319 C2315 1.429 . S
C2319 C2320 1.523 . S
C2320 C2304 1.368 . S
C2320 C2316 1.368 . S
C2320 C2319 1.523 . S
H2321 C2296 0.950 1_545 S
H2322 C2298 0.950 . S
H2323 C2299 0.949 . S
H2324 C2301 0.950 . S
H2325 C2303 0.950 . S
C2326 C2327 1.349 . S
C2326 C2328 1.327 . S
C2326 H2351 0.950 . S
C2327 C2326 1.349 . S
C2327 C2343 1.349 . S
C2328 C2326 1.327 . S
C2328 C2347 1.429 . S
C2328 H2352 0.950 . S
C2329 C2346 1.574 . S
C2329 C2348 1.368 . S
C2329 H2353 0.949 . S
H2330 C2334 0.949 . S
C2331 C2332 1.349 . S
C2331 C2333 1.327 . S
C2331 H2354 0.950 . S
C2332 C2331 1.349 . S
C2332 C2344 1.349 . S
C2333 C2331 1.327 . S
C2333 C2349 1.429 . S
C2333 H2355 0.950 . S
C2334 H2330 0.949 . S
C2334 C2342 1.574 . S
C2334 C2350 1.368 . S
H2335 C2343 0.950 . S
H2336 C2341 0.950 . S
H2337 C2342 0.949 . S
H2338 C2344 0.950 . S
H2339 C2345 0.950 . S
H2340 C2346 0.949 . S
C2341 H2336 0.950 . S
C2341 C2343 1.327 . S
C2341 C2347 1.429 . S
C2342 C2334 1.574 . S
C2342 H2337 0.949 . S
C2342 C2348 1.368 . S
C2343 C2327 1.349 . S
C2343 H2335 0.950 . S
C2343 C2341 1.327 . S
C2344 C2332 1.349 . S
C2344 H2338 0.950 . S
C2344 C2345 1.327 . S
C2345 H2339 0.950 . S
C2345 C2344 1.327 . S
C2345 C2349 1.429 . S
C2346 C2329 1.574 . S
C2346 H2340 0.949 . S
C2346 C2350 1.368 . S
C2347 C2328 1.429 . S
C2347 C2341 1.429 . S
C2347 C2348 1.523 . S
C2348 C2329 1.368 . S
C2348 C2342 1.368 . S
C2348 C2347 1.523 . S
C2349 C2333 1.429 . S
C2349 C2345 1.429 . S
C2349 C2350 1.523 . S
C2350 C2334 1.368 . S
C2350 C2346 1.368 . S
C2350 C2349 1.523 . S
H2351 C2326 0.950 . S
H2352 C2328 0.950 . S
H2353 C2329 0.949 . S
H2354 C2331 0.950 . S
H2355 C2333 0.950 . S
C2356 C2357 1.349 . S
C2356 C2358 1.327 . S
C2356 H2381 0.950 . S
C2357 C2356 1.349 . S
C2357 C2373 1.349 . S
C2358 C2356 1.327 . S
C2358 C2377 1.429 . S
C2358 H2382 0.950 . S
C2359 C2376 1.574 . S
C2359 C2378 1.368 . S
C2359 H2383 0.949 . S
H2360 C2364 0.949 . S
C2361 C2362 1.349 . S
C2361 C2363 1.327 . S
C2361 H2384 0.950 . S
C2362 C2361 1.349 . S
C2362 C2374 1.349 . S
C2363 C2361 1.327 . S
C2363 C2379 1.429 . S
C2363 H2385 0.950 . S
C2364 H2360 0.949 . S
C2364 C2372 1.574 . S
C2364 C2380 1.368 . S
H2365 C2373 0.950 . S
H2366 C2371 0.950 . S
H2367 C2372 0.949 . S
H2368 C2374 0.950 . S
H2369 C2375 0.950 . S
H2370 C2376 0.949 . S
C2371 H2366 0.950 . S
C2371 C2373 1.327 . S
C2371 C2377 1.429 . S
C2372 C2364 1.574 . S
C2372 H2367 0.949 . S
C2372 C2378 1.368 . S
C2373 C2357 1.349 . S
C2373 H2365 0.950 . S
C2373 C2371 1.327 . S
C2374 C2362 1.349 . S
C2374 H2368 0.950 . S
C2374 C2375 1.327 . S
C2375 H2369 0.950 . S
C2375 C2374 1.327 . S
C2375 C2379 1.429 . S
C2376 C2359 1.574 . S
C2376 H2370 0.949 . S
C2376 C2380 1.368 . S
C2377 C2358 1.429 . S
C2377 C2371 1.429 . S
C2377 C2378 1.523 . S
C2378 C2359 1.368 . S
C2378 C2372 1.368 . S
C2378 C2377 1.523 . S
C2379 C2363 1.429 . S
C2379 C2375 1.429 . S
C2379 C2380 1.523 . S
C2380 C2364 1.368 . S
C2380 C2376 1.368 . S
C2380 C2379 1.523 . S
H2381 C2356 0.950 . S
H2382 C2358 0.950 . S
H2383 C2359 0.949 . S
H2384 C2361 0.950 . S
H2385 C2363 0.950 . S
C2386 C2387 1.349 . S
C2386 C2388 1.327 . S
C2386 H2411 0.950 . S
C2387 C2386 1.349 . S
C2387 C2403 1.349 . S
C2388 C2386 1.327 . S
C2388 C2407 1.429 . S
C2388 H2412 0.950 . S
C2389 C2406 1.574 . S
C2389 C2408 1.368 . S
C2389 H2413 0.949 . S
H2390 C2394 0.949 . S
C2391 C2392 1.349 . S
C2391 C2393 1.327 . S
C2391 H2414 0.950 . S
C2392 C2391 1.349 . S
C2392 C2404 1.349 . S
C2393 C2391 1.327 . S
C2393 C2409 1.429 . S
C2393 H2415 0.950 . S
C2394 H2390 0.949 . S
C2394 C2402 1.574 . S
C2394 C2410 1.368 . S
H2395 C2403 0.950 . S
H2396 C2401 0.950 . S
H2397 C2402 0.949 . S
H2398 C2404 0.950 . S
H2399 C2405 0.950 . S
H2400 C2406 0.949 . S
C2401 H2396 0.950 . S
C2401 C2403 1.327 . S
C2401 C2407 1.429 . S
C2402 C2394 1.574 . S
C2402 H2397 0.949 . S
C2402 C2408 1.368 . S
C2403 C2387 1.349 . S
C2403 H2395 0.950 . S
C2403 C2401 1.327 . S
C2404 C2392 1.349 . S
C2404 H2398 0.950 . S
C2404 C2405 1.327 . S
C2405 H2399 0.950 . S
C2405 C2404 1.327 . S
C2405 C2409 1.429 . S
C2406 C2389 1.574 . S
C2406 H2400 0.949 . S
C2406 C2410 1.368 . S
C2407 C2388 1.429 . S
C2407 C2401 1.429 . S
C2407 C2408 1.523 . S
C2408 C2389 1.368 . S
C2408 C2402 1.368 . S
C2408 C2407 1.523 . S
C2409 C2393 1.429 . S
C2409 C2405 1.429 . S
C2409 C2410 1.523 . S
C2410 C2394 1.368 . S
C2410 C2406 1.368 . S
C2410 C2409 1.523 . S
H2411 C2386 0.950 . S
H2412 C2388 0.950 . S
H2413 C2389 0.949 . S
H2414 C2391 0.950 . S
H2415 C2393 0.950 . S
C2416 C2417 1.349 . S
C2416 C2418 1.327 . S
C2416 H2441 0.950 . S
C2417 C2416 1.349 . S
C2417 C2433 1.349 . S
C2418 C2416 1.327 . S
C2418 C2437 1.429 . S
C2418 H2442 0.950 . S
C2419 C2436 1.574 . S
C2419 C2438 1.368 . S
C2419 H2443 0.949 . S
H2420 C2424 0.949 . S
C2421 C2422 1.349 . S
C2421 C2423 1.327 . S
C2421 H2444 0.950 . S
C2422 C2421 1.349 . S
C2422 C2434 1.349 . S
C2423 C2421 1.327 . S
C2423 C2439 1.429 . S
C2423 H2445 0.950 . S
C2424 H2420 0.949 . S
C2424 C2432 1.574 . S
C2424 C2440 1.368 . S
H2425 C2433 0.950 . S
H2426 C2431 0.950 . S
H2427 C2432 0.949 . S
H2428 C2434 0.950 . S
H2429 C2435 0.950 . S
H2430 C2436 0.949 . S
C2431 H2426 0.950 . S
C2431 C2433 1.327 . S
C2431 C2437 1.429 . S
C2432 C2424 1.574 . S
C2432 H2427 0.949 . S
C2432 C2438 1.368 . S
C2433 C2417 1.349 . S
C2433 H2425 0.950 . S
C2433 C2431 1.327 . S
C2434 C2422 1.349 . S
C2434 H2428 0.950 . S
C2434 C2435 1.327 . S
C2435 H2429 0.950 . S
C2435 C2434 1.327 . S
C2435 C2439 1.429 . S
C2436 C2419 1.574 . S
C2436 H2430 0.949 . S
C2436 C2440 1.368 . S
C2437 C2418 1.429 . S
C2437 C2431 1.429 . S
C2437 C2438 1.523 . S
C2438 C2419 1.368 . S
C2438 C2432 1.368 . S
C2438 C2437 1.523 . S
C2439 C2423 1.429 . S
C2439 C2435 1.429 . S
C2439 C2440 1.523 . S
C2440 C2424 1.368 . S
C2440 C2436 1.368 . S
C2440 C2439 1.523 . S
H2441 C2416 0.950 . S
H2442 C2418 0.950 . S
H2443 C2419 0.949 . S
H2444 C2421 0.950 . S
H2445 C2423 0.950 . S
C2446 C2447 1.349 . S
C2446 C2448 1.327 . S
C2446 H2471 0.950 . S
C2447 C2446 1.349 . S
C2447 C2463 1.349 . S
C2448 C2446 1.327 . S
C2448 C2467 1.429 . S
C2448 H2472 0.950 . S
C2449 C2466 1.574 . S
C2449 C2468 1.368 . S
C2449 H2473 0.949 . S
H2450 C2454 0.949 . S
C2451 C2452 1.349 . S
C2451 C2453 1.327 . S
C2451 H2474 0.950 . S
C2452 C2451 1.349 . S
C2452 C2464 1.349 . S
C2453 C2451 1.327 . S
C2453 C2469 1.429 . S
C2453 H2475 0.950 . S
C2454 H2450 0.949 . S
C2454 C2462 1.574 . S
C2454 C2470 1.368 . S
H2455 C2463 0.950 . S
H2456 C2461 0.950 . S
H2457 C2462 0.949 . S
H2458 C2464 0.950 . S
H2459 C2465 0.950 . S
H2460 C2466 0.949 . S
C2461 H2456 0.950 . S
C2461 C2463 1.327 . S
C2461 C2467 1.429 . S
C2462 C2454 1.574 . S
C2462 H2457 0.949 . S
C2462 C2468 1.368 . S
C2463 C2447 1.349 . S
C2463 H2455 0.950 . S
C2463 C2461 1.327 . S
C2464 C2452 1.349 . S
C2464 H2458 0.950 . S
C2464 C2465 1.327 . S
C2465 H2459 0.950 . S
C2465 C2464 1.327 . S
C2465 C2469 1.429 . S
C2466 C2449 1.574 . S
C2466 H2460 0.949 . S
C2466 C2470 1.368 . S
C2467 C2448 1.429 . S
C2467 C2461 1.429 . S
C2467 C2468 1.523 . S
C2468 C2449 1.368 . S
C2468 C2462 1.368 . S
C2468 C2467 1.523 . S
C2469 C2453 1.429 . S
C2469 C2465 1.429 . S
C2469 C2470 1.523 . S
C2470 C2454 1.368 . S
C2470 C2466 1.368 . S
C2470 C2469 1.523 . S
H2471 C2446 0.950 . S
H2472 C2448 0.950 . S
H2473 C2449 0.949 . S
H2474 C2451 0.950 . S
H2475 C2453 0.950 . S
C2476 C2477 1.349 . S
C2476 C2478 1.327 . S
C2476 H2501 0.950 . S
C2477 C2476 1.349 . S
C2477 C2493 1.349 . S
C2478 C2476 1.327 . S
C2478 C2497 1.429 . S
C2478 H2502 0.950 . S
C2479 C2496 1.574 . S
C2479 C2498 1.368 . S
C2479 H2503 0.949 . S
H2480 C2484 0.949 . S
C2481 C2482 1.390 . S
C2481 C2483 1.327 . S
C2481 H2504 0.950 . S
C2482 C2481 1.390 . S
C2482 C2494 1.296 1_554 S
C2483 C2481 1.327 . S
C2483 C2499 1.429 1_554 S
C2483 H2505 0.950 . S
C2484 H2480 0.949 . S
C2484 C2492 1.574 . S
C2484 C2500 1.368 . S
H2485 C2493 0.950 . S
H2486 C2491 0.950 . S
H2487 C2492 0.949 . S
H2488 C2494 0.950 . S
H2489 C2495 0.950 . S
H2490 C2496 0.949 1_554 S
C2491 H2486 0.950 . S
C2491 C2493 1.327 . S
C2491 C2497 1.429 . S
C2492 C2484 1.574 . S
C2492 H2487 0.949 . S
C2492 C2498 1.368 . S
C2493 C2477 1.349 . S
C2493 H2485 0.950 . S
C2493 C2491 1.327 . S
C2494 C2482 1.296 1_556 S
C2494 H2488 0.950 . S
C2494 C2495 1.327 . S
C2495 H2489 0.950 . S
C2495 C2494 1.327 . S
C2495 C2499 1.429 . S
C2496 C2479 1.574 . S
C2496 H2490 0.949 1_556 S
C2496 C2500 1.368 . S
C2497 C2478 1.429 . S
C2497 C2491 1.429 . S
C2497 C2498 1.523 . S
C2498 C2479 1.368 . S
C2498 C2492 1.368 . S
C2498 C2497 1.523 . S
C2499 C2483 1.429 1_556 S
C2499 C2495 1.429 . S
C2499 C2500 1.523 . S
C2500 C2484 1.368 . S
C2500 C2496 1.368 . S
C2500 C2499 1.523 . S
H2501 C2476 0.950 . S
H2502 C2478 0.950 . S
H2503 C2479 0.949 . S
H2504 C2481 0.950 . S
H2505 C2483 0.950 . S
C2506 C2507 1.349 . S
C2506 C2508 1.327 1_455 S
C2506 H2531 0.950 . S
C2507 C2506 1.349 . S
C2507 C2523 1.349 . S
C2508 C2506 1.327 1_655 S
C2508 C2527 1.429 . S
C2508 H2532 0.950 . S
C2509 C2526 1.574 . S
C2509 C2528 1.368 . S
C2509 H2533 0.949 . S
H2510 C2514 0.949 . S
C2511 C2512 1.349 . S
C2511 C2513 1.327 . S
C2511 H2534 0.950 . S
C2512 C2511 1.349 . S
C2512 C2524 1.349 . S
C2513 C2511 1.327 . S
C2513 C2529 1.429 . S
C2513 H2535 0.950 . S
C2514 H2510 0.949 . S
C2514 C2522 1.574 . S
C2514 C2530 1.368 . S
H2515 C2523 0.950 . S
H2516 C2521 0.950 . S
H2517 C2522 0.949 . S
H2518 C2524 0.950 . S
H2519 C2525 0.950 . S
H2520 C2526 0.949 . S
C2521 H2516 0.950 . S
C2521 C2523 1.327 1_655 S
C2521 C2527 1.429 . S
C2522 C2514 1.574 . S
C2522 H2517 0.949 . S
C2522 C2528 1.368 . S
C2523 C2507 1.349 . S
C2523 H2515 0.950 . S
C2523 C2521 1.327 1_455 S
C2524 C2512 1.349 . S
C2524 H2518 0.950 . S
C2524 C2525 1.327 . S
C2525 H2519 0.950 . S
C2525 C2524 1.327 . S
C2525 C2529 1.429 . S
C2526 C2509 1.574 . S
C2526 H2520 0.949 . S
C2526 C2530 1.368 . S
C2527 C2508 1.429 . S
C2527 C2521 1.429 . S
C2527 C2528 1.523 . S
C2528 C2509 1.368 . S
C2528 C2522 1.368 . S
C2528 C2527 1.523 . S
C2529 C2513 1.429 . S
C2529 C2525 1.429 . S
C2529 C2530 1.523 . S
C2530 C2514 1.368 . S
C2530 C2526 1.368 . S
C2530 C2529 1.523 . S
H2531 C2506 0.950 . S
H2532 C2508 0.950 . S
H2533 C2509 0.949 . S
H2534 C2511 0.950 . S
H2535 C2513 0.950 . S
C2536 C2537 1.349 . S
C2536 C2538 1.327 . S
C2536 H2561 0.950 . S
C2537 C2536 1.349 . S
C2537 C2553 1.349 . S
C2538 C2536 1.327 . S
C2538 C2557 1.429 . S
C2538 H2562 0.950 . S
C2539 C2556 1.574 . S
C2539 C2558 1.368 . S
C2539 H2563 0.949 . S
H2540 C2544 0.949 . S
C2541 C2542 1.349 . S
C2541 C2543 1.327 . S
C2541 H2564 0.950 . S
C2542 C2541 1.349 . S
C2542 C2554 1.349 . S
C2543 C2541 1.327 . S
C2543 C2559 1.429 . S
C2543 H2565 0.950 . S
C2544 H2540 0.949 . S
C2544 C2552 1.574 . S
C2544 C2560 1.368 . S
H2545 C2553 0.950 . S
H2546 C2551 0.950 . S
H2547 C2552 0.949 . S
H2548 C2554 0.950 . S
H2549 C2555 0.950 . S
H2550 C2556 0.949 . S
C2551 H2546 0.950 . S
C2551 C2553 1.327 . S
C2551 C2557 1.429 . S
C2552 C2544 1.574 . S
C2552 H2547 0.949 . S
C2552 C2558 1.368 . S
C2553 C2537 1.349 . S
C2553 H2545 0.950 . S
C2553 C2551 1.327 . S
C2554 C2542 1.349 . S
C2554 H2548 0.950 . S
C2554 C2555 1.327 . S
C2555 H2549 0.950 . S
C2555 C2554 1.327 . S
C2555 C2559 1.429 . S
C2556 C2539 1.574 . S
C2556 H2550 0.949 . S
C2556 C2560 1.368 . S
C2557 C2538 1.429 . S
C2557 C2551 1.429 . S
C2557 C2558 1.523 . S
C2558 C2539 1.368 . S
C2558 C2552 1.368 . S
C2558 C2557 1.523 . S
C2559 C2543 1.429 . S
C2559 C2555 1.429 . S
C2559 C2560 1.523 . S
C2560 C2544 1.368 . S
C2560 C2556 1.368 . S
C2560 C2559 1.523 . S
H2561 C2536 0.950 . S
H2562 C2538 0.950 . S
H2563 C2539 0.949 . S
H2564 C2541 0.950 . S
H2565 C2543 0.950 . S
C2566 C2567 1.349 . S
C2566 C2568 1.327 . S
C2566 H2591 0.950 . S
C2567 C2566 1.349 . S
C2567 C2583 1.349 . S
C2568 C2566 1.327 . S
C2568 C2587 1.429 . S
C2568 H2592 0.950 . S
C2569 C2586 1.574 . S
C2569 C2588 1.368 . S
C2569 H2593 0.949 . S
H2570 C2574 0.949 . S
C2571 C2572 1.349 . S
C2571 C2573 1.327 . S
C2571 H2594 0.950 . S
C2572 C2571 1.349 . S
C2572 C2584 1.349 . S
C2573 C2571 1.327 . S
C2573 C2589 1.429 . S
C2573 H2595 0.950 . S
C2574 H2570 0.949 . S
C2574 C2582 1.574 . S
C2574 C2590 1.368 . S
H2575 C2583 0.950 . S
H2576 C2581 0.960 . S
H2577 C2582 0.989 . S
H2578 C2584 0.950 . S
H2579 C2585 0.950 . S
H2580 C2586 0.949 . S
C2581 H2576 0.960 . S
C2581 C2583 1.327 . S
C2581 C2587 1.429 . S
C2582 C2574 1.574 . S
C2582 H2577 0.989 . S
C2582 C2588 1.368 . S
C2583 C2567 1.349 . S
C2583 H2575 0.950 . S
C2583 C2581 1.327 . S
C2584 C2572 1.349 . S
C2584 H2578 0.950 . S
C2584 C2585 1.327 . S
C2585 H2579 0.950 . S
C2585 C2584 1.327 . S
C2585 C2589 1.429 . S
C2586 C2569 1.574 . S
C2586 H2580 0.949 . S
C2586 C2590 1.368 . S
C2587 C2568 1.429 . S
C2587 C2581 1.429 . S
C2587 C2588 1.523 1_455 S
C2588 C2569 1.368 . S
C2588 C2582 1.368 . S
C2588 C2587 1.523 1_655 S
C2589 C2573 1.429 . S
C2589 C2585 1.429 . S
C2589 C2590 1.523 . S
C2590 C2574 1.368 . S
C2590 C2586 1.368 . S
C2590 C2589 1.523 . S
H2591 C2566 0.950 . S
H2592 C2568 0.950 . S
H2593 C2569 0.949 . S
H2594 C2571 0.950 . S
H2595 C2573 0.950 . S
C2596 C2597 1.349 1_455 S
C2596 C2598 1.327 . S
C2596 H2621 0.950 . S
C2597 C2596 1.349 1_655 S
C2597 C2613 1.349 . S
C2598 C2596 1.327 . S
C2598 C2617 1.429 . S
C2598 H2622 0.950 . S
C2599 C2616 1.574 1_655 S
C2599 C2618 1.368 1_655 S
C2599 H2623 0.949 . S
H2600 C2604 0.949 . S
C2601 C2602 1.349 . S
C2601 C2603 1.327 . S
C2601 H2624 0.950 . S
C2602 C2601 1.349 . S
C2602 C2614 1.349 . S
C2603 C2601 1.327 . S
C2603 C2619 1.429 . S
C2603 H2625 0.996 . S
C2604 H2600 0.949 . S
C2604 C2612 1.574 . S
C2604 C2620 1.368 . S
H2605 C2613 0.950 . S
H2606 C2611 0.950 . S
H2607 C2612 0.949 . S
H2608 C2614 0.950 . S
H2609 C2615 0.950 . S
H2610 C2616 0.949 1_655 S
C2611 H2606 0.950 . S
C2611 C2613 1.327 . S
C2611 C2617 1.429 1_655 S
C2612 C2604 1.574 . S
C2612 H2607 0.949 . S
C2612 C2618 1.368 . S
C2613 C2597 1.349 . S
C2613 H2605 0.950 . S
C2613 C2611 1.327 . S
C2614 C2602 1.349 . S
C2614 H2608 0.950 . S
C2614 C2615 1.327 . S
C2615 H2609 0.950 . S
C2615 C2614 1.327 . S
C2615 C2619 1.429 . S
C2616 C2599 1.574 1_455 S
C2616 H2610 0.949 1_455 S
C2616 C2620 1.368 . S
C2617 C2598 1.429 . S
C2617 C2611 1.429 1_455 S
C2617 C2618 1.523 . S
C2618 C2599 1.368 1_455 S
C2618 C2612 1.368 . S
C2618 C2617 1.523 . S
C2619 C2603 1.429 . S
C2619 C2615 1.429 . S
C2619 C2620 1.523 . S
C2620 C2604 1.368 . S
C2620 C2616 1.368 . S
C2620 C2619 1.523 . S
H2621 C2596 0.950 . S
H2622 C2598 0.950 . S
H2623 C2599 0.949 . S
H2624 C2601 0.950 . S
H2625 C2603 0.996 . S
C2626 C2627 1.349 . S
C2626 C2628 1.327 . S
C2626 H2651 0.950 . S
C2627 C2626 1.349 . S
C2627 C2643 1.349 . S
C2628 C2626 1.327 . S
C2628 C2647 1.429 . S
C2628 H2652 0.950 . S
C2629 C2646 1.574 . S
C2629 C2648 1.368 . S
C2629 H2653 0.949 . S
H2630 C2634 0.949 . S
C2631 C2632 1.349 . S
C2631 C2633 1.327 . S
C2631 H2654 0.950 . S
C2632 C2631 1.349 . S
C2632 C2644 1.349 . S
C2633 C2631 1.327 . S
C2633 C2649 1.429 . S
C2633 H2655 0.950 . S
C2634 H2630 0.949 . S
C2634 C2642 1.574 . S
C2634 C2650 1.368 . S
H2635 C2643 0.950 . S
H2636 C2641 0.950 . S
H2637 C2642 0.949 . S
H2638 C2644 0.950 . S
H2639 C2645 0.950 . S
H2640 C2646 0.949 . S
C2641 H2636 0.950 . S
C2641 C2643 1.327 . S
C2641 C2647 1.429 . S
C2642 C2634 1.574 . S
C2642 H2637 0.949 . S
C2642 C2648 1.368 . S
C2643 C2627 1.349 . S
C2643 H2635 0.950 . S
C2643 C2641 1.327 . S
C2644 C2632 1.349 . S
C2644 H2638 0.950 . S
C2644 C2645 1.327 . S
C2645 H2639 0.950 . S
C2645 C2644 1.327 . S
C2645 C2649 1.429 . S
C2646 C2629 1.574 . S
C2646 H2640 0.949 . S
C2646 C2650 1.368 . S
C2647 C2628 1.429 . S
C2647 C2641 1.429 . S
C2647 C2648 1.523 . S
C2648 C2629 1.368 . S
C2648 C2642 1.368 . S
C2648 C2647 1.523 . S
C2649 C2633 1.429 . S
C2649 C2645 1.429 . S
C2649 C2650 1.523 . S
C2650 C2634 1.368 . S
C2650 C2646 1.368 . S
C2650 C2649 1.523 . S
H2651 C2626 0.950 . S
H2652 C2628 0.950 . S
H2653 C2629 0.949 . S
H2654 C2631 0.950 . S
H2655 C2633 0.950 . S
C2656 C2657 1.349 . S
C2656 C2658 1.327 . S
C2656 H2681 0.950 . S
C2657 C2656 1.349 . S
C2657 C2673 1.349 . S
C2658 C2656 1.327 . S
C2658 C2677 1.429 . S
C2658 H2682 0.950 . S
C2659 C2676 1.574 . S
C2659 C2678 1.368 . S
C2659 H2683 0.949 . S
H2660 C2664 0.949 . S
C2661 C2662 1.349 . S
C2661 C2663 1.327 . S
C2661 H2684 0.950 . S
C2662 C2661 1.349 . S
C2662 C2674 1.349 . S
C2663 C2661 1.327 . S
C2663 C2679 1.429 . S
C2663 H2685 0.950 . S
C2664 H2660 0.949 . S
C2664 C2672 1.574 . S
C2664 C2680 1.368 . S
H2665 C2673 0.950 . S
H2666 C2671 0.950 . S
H2667 C2672 0.949 . S
H2668 C2674 0.950 . S
H2669 C2675 0.950 . S
H2670 C2676 0.949 . S
C2671 H2666 0.950 . S
C2671 C2673 1.327 . S
C2671 C2677 1.429 . S
C2672 C2664 1.574 . S
C2672 H2667 0.949 . S
C2672 C2678 1.368 . S
C2673 C2657 1.349 . S
C2673 H2665 0.950 . S
C2673 C2671 1.327 . S
C2674 C2662 1.349 . S
C2674 H2668 0.950 . S
C2674 C2675 1.327 . S
C2675 H2669 0.950 . S
C2675 C2674 1.327 . S
C2675 C2679 1.429 . S
C2676 C2659 1.574 . S
C2676 H2670 0.949 . S
C2676 C2680 1.368 . S
C2677 C2658 1.429 . S
C2677 C2671 1.429 . S
C2677 C2678 1.523 . S
C2678 C2659 1.368 . S
C2678 C2672 1.368 . S
C2678 C2677 1.523 . S
C2679 C2663 1.429 . S
C2679 C2675 1.429 . S
C2679 C2680 1.523 . S
C2680 C2664 1.368 . S
C2680 C2676 1.368 . S
C2680 C2679 1.523 . S
H2681 C2656 0.950 . S
H2682 C2658 0.950 . S
H2683 C2659 0.949 . S
H2684 C2661 0.950 . S
H2685 C2663 0.950 . S
C2686 C2687 1.349 . S
C2686 C2688 1.327 . S
C2686 H2711 0.950 . S
C2687 C2686 1.349 . S
C2687 C2703 1.349 . S
C2688 C2686 1.327 . S
C2688 C2707 1.429 . S
C2688 H2712 0.950 . S
C2689 C2706 1.574 . S
C2689 C2708 1.368 . S
C2689 H2713 0.949 . S
H2690 C2694 0.949 . S
C2691 C2692 1.349 . S
C2691 C2693 1.327 . S
C2691 H2714 0.950 . S
C2692 C2691 1.349 . S
C2692 C2704 1.349 . S
C2693 C2691 1.327 . S
C2693 C2709 1.429 . S
C2693 H2715 0.950 . S
C2694 H2690 0.949 . S
C2694 C2702 1.574 . S
C2694 C2710 1.368 . S
H2695 C2703 0.950 . S
H2696 C2701 0.950 . S
H2697 C2702 0.949 . S
H2698 C2704 0.950 . S
H2699 C2705 0.950 . S
H2700 C2706 0.949 . S
C2701 H2696 0.950 . S
C2701 C2703 1.327 . S
C2701 C2707 1.429 . S
C2702 C2694 1.574 . S
C2702 H2697 0.949 . S
C2702 C2708 1.368 . S
C2703 C2687 1.349 . S
C2703 H2695 0.950 . S
C2703 C2701 1.327 . S
C2704 C2692 1.349 . S
C2704 H2698 0.950 . S
C2704 C2705 1.327 . S
C2705 H2699 0.950 . S
C2705 C2704 1.327 . S
C2705 C2709 1.429 . S
C2706 C2689 1.574 . S
C2706 H2700 0.949 . S
C2706 C2710 1.368 . S
C2707 C2688 1.429 . S
C2707 C2701 1.429 . S
C2707 C2708 1.523 . S
C2708 C2689 1.368 . S
C2708 C2702 1.368 . S
C2708 C2707 1.523 . S
C2709 C2693 1.429 . S
C2709 C2705 1.429 . S
C2709 C2710 1.523 . S
C2710 C2694 1.368 . S
C2710 C2706 1.368 . S
C2710 C2709 1.523 . S
H2711 C2686 0.950 . S
H2712 C2688 0.950 . S
H2713 C2689 0.949 . S
H2714 C2691 0.950 . S
H2715 C2693 0.950 . S
C2716 C2717 1.349 . S
C2716 C2718 1.327 . S
C2716 H2741 0.950 . S
C2717 C2716 1.349 . S
C2717 C2733 1.349 . S
C2718 C2716 1.327 . S
C2718 C2737 1.429 . S
C2718 H2742 0.950 . S
C2719 C2736 1.574 . S
C2719 C2738 1.368 . S
C2719 H2743 0.949 . S
H2720 C2724 0.949 . S
C2721 C2722 1.349 . S
C2721 C2723 1.327 . S
C2721 H2744 0.950 . S
C2722 C2721 1.349 . S
C2722 C2734 1.349 . S
C2723 C2721 1.327 . S
C2723 C2739 1.429 . S
C2723 H2745 0.950 . S
C2724 H2720 0.949 . S
C2724 C2732 1.574 . S
C2724 C2740 1.368 . S
H2725 C2733 0.950 . S
H2726 C2731 0.950 . S
H2727 C2732 0.949 . S
H2728 C2734 0.950 . S
H2729 C2735 0.950 . S
H2730 C2736 0.949 . S
C2731 H2726 0.950 . S
C2731 C2733 1.327 . S
C2731 C2737 1.429 . S
C2732 C2724 1.574 . S
C2732 H2727 0.949 . S
C2732 C2738 1.368 . S
C2733 C2717 1.349 . S
C2733 H2725 0.950 . S
C2733 C2731 1.327 . S
C2734 C2722 1.349 . S
C2734 H2728 0.950 . S
C2734 C2735 1.327 . S
C2735 H2729 0.950 . S
C2735 C2734 1.327 . S
C2735 C2739 1.429 . S
C2736 C2719 1.574 . S
C2736 H2730 0.949 . S
C2736 C2740 1.368 . S
C2737 C2718 1.429 . S
C2737 C2731 1.429 . S
C2737 C2738 1.523 . S
C2738 C2719 1.368 . S
C2738 C2732 1.368 . S
C2738 C2737 1.523 . S
C2739 C2723 1.429 . S
C2739 C2735 1.429 . S
C2739 C2740 1.523 . S
C2740 C2724 1.368 . S
C2740 C2736 1.368 . S
C2740 C2739 1.523 . S
H2741 C2716 0.950 . S
H2742 C2718 0.950 . S
H2743 C2719 0.949 . S
H2744 C2721 0.950 . S
H2745 C2723 0.950 . S
C2746 C2747 1.349 . S
C2746 C2748 1.327 . S
C2746 H2771 0.950 . S
C2747 C2746 1.349 . S
C2747 C2763 1.349 . S
C2748 C2746 1.327 . S
C2748 C2767 1.429 . S
C2748 H2772 0.950 . S
C2749 C2766 1.574 . S
C2749 C2768 1.368 . S
C2749 H2773 0.949 . S
H2750 C2754 0.949 . S
C2751 C2752 1.349 . S
C2751 C2753 1.327 . S
C2751 H2774 0.950 . S
C2752 C2751 1.349 . S
C2752 C2764 1.349 . S
C2753 C2751 1.327 . S
C2753 C2769 1.429 . S
C2753 H2775 0.950 . S
C2754 H2750 0.949 . S
C2754 C2762 1.574 . S
C2754 C2770 1.368 . S
H2755 C2763 0.950 . S
H2756 C2761 0.950 . S
H2757 C2762 0.949 . S
H2758 C2764 0.950 . S
H2759 C2765 0.950 . S
H2760 C2766 0.949 . S
C2761 H2756 0.950 . S
C2761 C2763 1.327 . S
C2761 C2767 1.429 . S
C2762 C2754 1.574 . S
C2762 H2757 0.949 . S
C2762 C2768 1.368 . S
C2763 C2747 1.349 . S
C2763 H2755 0.950 . S
C2763 C2761 1.327 . S
C2764 C2752 1.349 . S
C2764 H2758 0.950 . S
C2764 C2765 1.327 . S
C2765 H2759 0.950 . S
C2765 C2764 1.327 . S
C2765 C2769 1.429 . S
C2766 C2749 1.574 . S
C2766 H2760 0.949 . S
C2766 C2770 1.368 . S
C2767 C2748 1.429 . S
C2767 C2761 1.429 . S
C2767 C2768 1.523 . S
C2768 C2749 1.368 . S
C2768 C2762 1.368 . S
C2768 C2767 1.523 . S
C2769 C2753 1.429 . S
C2769 C2765 1.429 . S
C2769 C2770 1.523 . S
C2770 C2754 1.368 . S
C2770 C2766 1.368 . S
C2770 C2769 1.523 . S
H2771 C2746 0.950 . S
H2772 C2748 0.950 . S
H2773 C2749 0.949 . S
H2774 C2751 0.950 . S
H2775 C2753 0.950 . S
C2776 C2777 1.349 . S
C2776 C2778 1.327 . S
C2776 H2801 0.950 . S
C2777 C2776 1.349 . S
C2777 C2793 1.349 . S
C2778 C2776 1.327 . S
C2778 C2797 1.429 . S
C2778 H2802 0.950 . S
C2779 C2796 1.574 . S
C2779 C2798 1.368 . S
C2779 H2803 0.949 . S
H2780 C2784 0.949 . S
C2781 C2782 1.349 . S
C2781 C2783 1.327 . S
C2781 H2804 0.950 . S
C2782 C2781 1.349 . S
C2782 C2794 1.349 . S
C2783 C2781 1.327 . S
C2783 C2799 1.429 . S
C2783 H2805 0.950 . S
C2784 H2780 0.949 . S
C2784 C2792 1.574 . S
C2784 C2800 1.368 . S
H2785 C2793 0.950 . S
H2786 C2791 0.950 . S
H2787 C2792 0.949 . S
H2788 C2794 0.950 . S
H2789 C2795 0.950 . S
H2790 C2796 0.949 . S
C2791 H2786 0.950 . S
C2791 C2793 1.327 . S
C2791 C2797 1.429 . S
C2792 C2784 1.574 . S
C2792 H2787 0.949 . S
C2792 C2798 1.368 . S
C2793 C2777 1.349 . S
C2793 H2785 0.950 . S
C2793 C2791 1.327 . S
C2794 C2782 1.349 . S
C2794 H2788 0.950 . S
C2794 C2795 1.327 . S
C2795 H2789 0.950 . S
C2795 C2794 1.327 . S
C2795 C2799 1.429 . S
C2796 C2779 1.574 . S
C2796 H2790 0.949 . S
C2796 C2800 1.368 . S
C2797 C2778 1.429 . S
C2797 C2791 1.429 . S
C2797 C2798 1.523 . S
C2798 C2779 1.368 . S
C2798 C2792 1.368 . S
C2798 C2797 1.523 . S
C2799 C2783 1.429 . S
C2799 C2795 1.429 . S
C2799 C2800 1.523 . S
C2800 C2784 1.368 . S
C2800 C2796 1.368 . S
C2800 C2799 1.523 . S
H2801 C2776 0.950 . S
H2802 C2778 0.950 . S
H2803 C2779 0.949 . S
H2804 C2781 0.950 . S
H2805 C2783 0.950 . S
C2806 C2807 1.349 . S
C2806 C2808 1.327 . S
C2806 H2831 0.950 . S
C2807 C2806 1.349 . S
C2807 C2823 1.349 . S
C2808 C2806 1.327 . S
C2808 C2827 1.429 . S
C2808 H2832 0.950 . S
C2809 C2826 1.574 . S
C2809 C2828 1.368 . S
C2809 H2833 0.949 . S
H2810 C2814 0.949 . S
C2811 C2812 1.349 . S
C2811 C2813 1.327 . S
C2811 H2834 0.950 . S
C2812 C2811 1.349 . S
C2812 C2824 1.349 . S
C2813 C2811 1.327 . S
C2813 C2829 1.429 . S
C2813 H2835 0.950 . S
C2814 H2810 0.949 . S
C2814 C2822 1.574 . S
C2814 C2830 1.368 . S
H2815 C2823 0.950 . S
H2816 C2821 0.950 . S
H2817 C2822 0.949 . S
H2818 C2824 0.950 . S
H2819 C2825 0.950 . S
H2820 C2826 0.949 . S
C2821 H2816 0.950 . S
C2821 C2823 1.327 . S
C2821 C2827 1.429 . S
C2822 C2814 1.574 . S
C2822 H2817 0.949 . S
C2822 C2828 1.368 . S
C2823 C2807 1.349 . S
C2823 H2815 0.950 . S
C2823 C2821 1.327 . S
C2824 C2812 1.349 . S
C2824 H2818 0.950 . S
C2824 C2825 1.327 . S
C2825 H2819 0.950 . S
C2825 C2824 1.327 . S
C2825 C2829 1.429 . S
C2826 C2809 1.574 . S
C2826 H2820 0.949 . S
C2826 C2830 1.368 . S
C2827 C2808 1.429 . S
C2827 C2821 1.429 . S
C2827 C2828 1.523 . S
C2828 C2809 1.368 . S
C2828 C2822 1.368 . S
C2828 C2827 1.523 . S
C2829 C2813 1.429 . S
C2829 C2825 1.429 . S
C2829 C2830 1.523 . S
C2830 C2814 1.368 . S
C2830 C2826 1.368 . S
C2830 C2829 1.523 . S
H2831 C2806 0.950 . S
H2832 C2808 0.950 . S
H2833 C2809 0.949 . S
H2834 C2811 0.950 . S
H2835 C2813 0.950 . S
C2836 C2837 1.349 . S
C2836 C2838 1.327 . S
C2836 H2861 0.950 . S
C2837 C2836 1.349 . S
C2837 C2853 1.349 . S
C2838 C2836 1.327 . S
C2838 C2857 1.429 . S
C2838 H2862 0.950 . S
C2839 C2856 1.574 . S
C2839 C2858 1.368 . S
C2839 H2863 0.949 . S
H2840 C2844 0.949 . S
C2841 C2842 1.349 . S
C2841 C2843 1.327 . S
C2841 H2864 0.950 . S
C2842 C2841 1.349 . S
C2842 C2854 1.349 . S
C2843 C2841 1.327 . S
C2843 C2859 1.429 . S
C2843 H2865 0.950 . S
C2844 H2840 0.949 . S
C2844 C2852 1.574 . S
C2844 C2860 1.368 . S
H2845 C2853 0.950 . S
H2846 C2851 0.950 . S
H2847 C2852 0.949 . S
H2848 C2854 0.950 . S
H2849 C2855 0.950 . S
H2850 C2856 0.949 . S
C2851 H2846 0.950 . S
C2851 C2853 1.327 . S
C2851 C2857 1.429 . S
C2852 C2844 1.574 . S
C2852 H2847 0.949 . S
C2852 C2858 1.368 . S
C2853 C2837 1.349 . S
C2853 H2845 0.950 . S
C2853 C2851 1.327 . S
C2854 C2842 1.349 . S
C2854 H2848 0.950 . S
C2854 C2855 1.327 . S
C2855 H2849 0.950 . S
C2855 C2854 1.327 . S
C2855 C2859 1.429 . S
C2856 C2839 1.574 . S
C2856 H2850 0.949 . S
C2856 C2860 1.368 . S
C2857 C2838 1.429 . S
C2857 C2851 1.429 . S
C2857 C2858 1.523 . S
C2858 C2839 1.368 . S
C2858 C2852 1.368 . S
C2858 C2857 1.523 . S
C2859 C2843 1.429 . S
C2859 C2855 1.429 . S
C2859 C2860 1.523 . S
C2860 C2844 1.368 . S
C2860 C2856 1.368 . S
C2860 C2859 1.523 . S
H2861 C2836 0.950 . S
H2862 C2838 0.950 . S
H2863 C2839 0.949 . S
H2864 C2841 0.950 . S
H2865 C2843 0.950 . S
C2866 C2867 1.349 . S
C2866 C2868 1.327 . S
C2866 H2891 0.950 . S
C2867 C2866 1.349 . S
C2867 C2883 1.349 . S
C2868 C2866 1.327 . S
C2868 C2887 1.429 . S
C2868 H2892 0.950 . S
C2869 C2886 1.574 . S
C2869 C2888 1.368 . S
C2869 H2893 0.949 . S
H2870 C2874 0.949 . S
C2871 C2872 1.349 . S
C2871 C2873 1.327 . S
C2871 H2894 0.950 . S
C2872 C2871 1.349 . S
C2872 C2884 1.349 . S
C2873 C2871 1.327 . S
C2873 C2889 1.429 . S
C2873 H2895 0.950 . S
C2874 H2870 0.949 . S
C2874 C2882 1.574 . S
C2874 C2890 1.368 . S
H2875 C2883 0.950 . S
H2876 C2881 0.950 . S
H2877 C2882 0.949 . S
H2878 C2884 0.950 . S
H2879 C2885 0.950 . S
H2880 C2886 0.949 . S
C2881 H2876 0.950 . S
C2881 C2883 1.327 . S
C2881 C2887 1.429 . S
C2882 C2874 1.574 . S
C2882 H2877 0.949 . S
C2882 C2888 1.368 . S
C2883 C2867 1.349 . S
C2883 H2875 0.950 . S
C2883 C2881 1.327 . S
C2884 C2872 1.349 . S
C2884 H2878 0.950 . S
C2884 C2885 1.327 . S
C2885 H2879 0.950 . S
C2885 C2884 1.327 . S
C2885 C2889 1.429 . S
C2886 C2869 1.574 . S
C2886 H2880 0.949 . S
C2886 C2890 1.368 . S
C2887 C2868 1.429 . S
C2887 C2881 1.429 . S
C2887 C2888 1.523 . S
C2888 C2869 1.368 . S
C2888 C2882 1.368 . S
C2888 C2887 1.523 . S
C2889 C2873 1.429 . S
C2889 C2885 1.429 . S
C2889 C2890 1.523 . S
C2890 C2874 1.368 . S
C2890 C2886 1.368 . S
C2890 C2889 1.523 . S
H2891 C2866 0.950 . S
H2892 C2868 0.950 . S
H2893 C2869 0.949 . S
H2894 C2871 0.950 . S
H2895 C2873 0.950 . S
C2896 C2897 1.349 . S
C2896 C2898 1.327 . S
C2896 H2921 0.950 . S
C2897 C2896 1.349 . S
C2897 C2913 1.349 . S
C2898 C2896 1.327 . S
C2898 C2917 1.429 . S
C2898 H2922 0.950 . S
C2899 C2916 1.574 . S
C2899 C2918 1.368 . S
C2899 H2923 0.949 . S
H2900 C2904 0.949 . S
C2901 C2902 1.349 . S
C2901 C2903 1.327 . S
C2901 H2924 0.950 . S
C2902 C2901 1.349 . S
C2902 C2914 1.349 . S
C2903 C2901 1.327 . S
C2903 C2919 1.429 . S
C2903 H2925 0.950 . S
C2904 H2900 0.949 . S
C2904 C2912 1.574 . S
C2904 C2920 1.368 . S
H2905 C2913 0.950 . S
H2906 C2911 0.950 . S
H2907 C2912 0.949 . S
H2908 C2914 0.950 . S
H2909 C2915 0.950 . S
H2910 C2916 0.949 . S
C2911 H2906 0.950 . S
C2911 C2913 1.327 . S
C2911 C2917 1.429 . S
C2912 C2904 1.574 . S
C2912 H2907 0.949 . S
C2912 C2918 1.368 . S
C2913 C2897 1.349 . S
C2913 H2905 0.950 . S
C2913 C2911 1.327 . S
C2914 C2902 1.349 . S
C2914 H2908 0.950 . S
C2914 C2915 1.327 . S
C2915 H2909 0.950 . S
C2915 C2914 1.327 . S
C2915 C2919 1.429 . S
C2916 C2899 1.574 . S
C2916 H2910 0.949 . S
C2916 C2920 1.368 . S
C2917 C2898 1.429 . S
C2917 C2911 1.429 . S
C2917 C2918 1.523 . S
C2918 C2899 1.368 . S
C2918 C2912 1.368 . S
C2918 C2917 1.523 . S
C2919 C2903 1.429 . S
C2919 C2915 1.429 . S
C2919 C2920 1.523 . S
C2920 C2904 1.368 . S
C2920 C2916 1.368 . S
C2920 C2919 1.523 . S
H2921 C2896 0.950 . S
H2922 C2898 0.950 . S
H2923 C2899 0.949 . S
H2924 C2901 0.950 . S
H2925 C2903 0.950 . S
C2926 C2927 1.349 . S
C2926 C2928 1.327 . S
C2926 H2951 0.950 . S
C2927 C2926 1.349 . S
C2927 C2943 1.349 . S
C2928 C2926 1.327 . S
C2928 C2947 1.429 . S
C2928 H2952 0.950 . S
C2929 C2946 1.574 . S
C2929 C2948 1.368 . S
C2929 H2953 0.949 . S
H2930 C2934 0.949 . S
C2931 C2932 1.349 . S
C2931 C2933 1.327 . S
C2931 H2954 0.950 . S
C2932 C2931 1.349 . S
C2932 C2944 1.349 . S
C2933 C2931 1.327 . S
C2933 C2949 1.429 . S
C2933 H2955 0.950 . S
C2934 H2930 0.949 . S
C2934 C2942 1.574 . S
C2934 C2950 1.368 . S
H2935 C2943 0.950 . S
H2936 C2941 0.950 . S
H2937 C2942 0.949 . S
H2938 C2944 0.950 . S
H2939 C2945 0.950 . S
H2940 C2946 0.949 . S
C2941 H2936 0.950 . S
C2941 C2943 1.327 . S
C2941 C2947 1.429 . S
C2942 C2934 1.574 . S
C2942 H2937 0.949 . S
C2942 C2948 1.368 . S
C2943 C2927 1.349 . S
C2943 H2935 0.950 . S
C2943 C2941 1.327 . S
C2944 C2932 1.349 . S
C2944 H2938 0.950 . S
C2944 C2945 1.327 . S
C2945 H2939 0.950 . S
C2945 C2944 1.327 . S
C2945 C2949 1.429 . S
C2946 C2929 1.574 . S
C2946 H2940 0.949 . S
C2946 C2950 1.368 . S
C2947 C2928 1.429 . S
C2947 C2941 1.429 . S
C2947 C2948 1.523 . S
C2948 C2929 1.368 . S
C2948 C2942 1.368 . S
C2948 C2947 1.523 . S
C2949 C2933 1.429 . S
C2949 C2945 1.429 . S
C2949 C2950 1.523 . S
C2950 C2934 1.368 . S
C2950 C2946 1.368 . S
C2950 C2949 1.523 . S
H2951 C2926 0.950 . S
H2952 C2928 0.950 . S
H2953 C2929 0.949 . S
H2954 C2931 0.950 . S
H2955 C2933 0.950 . S
C2956 C2957 1.349 . S
C2956 C2958 1.327 . S
C2956 H2981 0.950 . S
C2957 C2956 1.349 . S
C2957 C2973 1.349 . S
C2958 C2956 1.327 . S
C2958 C2977 1.429 . S
C2958 H2982 0.950 . S
C2959 C2976 1.574 . S
C2959 C2978 1.368 . S
C2959 H2983 0.949 . S
H2960 C2964 0.949 . S
C2961 C2962 1.349 . S
C2961 C2963 1.327 . S
C2961 H2984 0.950 . S
C2962 C2961 1.349 . S
C2962 C2974 1.349 . S
C2963 C2961 1.327 . S
C2963 C2979 1.429 . S
C2963 H2985 0.950 . S
C2964 H2960 0.949 . S
C2964 C2972 1.574 . S
C2964 C2980 1.368 . S
H2965 C2973 0.950 . S
H2966 C2971 0.950 . S
H2967 C2972 0.949 . S
H2968 C2974 0.950 . S
H2969 C2975 0.950 . S
H2970 C2976 0.949 . S
C2971 H2966 0.950 . S
C2971 C2973 1.327 . S
C2971 C2977 1.429 . S
C2972 C2964 1.574 . S
C2972 H2967 0.949 . S
C2972 C2978 1.368 . S
C2973 C2957 1.349 . S
C2973 H2965 0.950 . S
C2973 C2971 1.327 . S
C2974 C2962 1.349 . S
C2974 H2968 0.950 . S
C2974 C2975 1.327 . S
C2975 H2969 0.950 . S
C2975 C2974 1.327 . S
C2975 C2979 1.429 . S
C2976 C2959 1.574 . S
C2976 H2970 0.949 . S
C2976 C2980 1.368 . S
C2977 C2958 1.429 . S
C2977 C2971 1.429 . S
C2977 C2978 1.523 . S
C2978 C2959 1.368 . S
C2978 C2972 1.368 . S
C2978 C2977 1.523 . S
C2979 C2963 1.429 . S
C2979 C2975 1.429 . S
C2979 C2980 1.523 . S
C2980 C2964 1.368 . S
C2980 C2976 1.368 . S
C2980 C2979 1.523 . S
H2981 C2956 0.950 . S
H2982 C2958 0.950 . S
H2983 C2959 0.949 . S
H2984 C2961 0.950 . S
H2985 C2963 0.950 . S
C2986 C2987 1.349 . S
C2986 C2988 1.327 . S
C2986 H3011 0.950 . S
C2987 C2986 1.349 . S
C2987 C3003 1.349 . S
C2988 C2986 1.327 . S
C2988 C3007 1.429 . S
C2988 H3012 0.950 . S
C2989 C3006 1.574 . S
C2989 C3008 1.368 . S
C2989 H3013 0.949 . S
H2990 C2994 0.949 . S
C2991 C2992 1.349 . S
C2991 C2993 1.327 . S
C2991 H3014 0.950 . S
C2992 C2991 1.349 . S
C2992 C3004 1.349 1_545 S
C2993 C2991 1.327 . S
C2993 C3009 1.429 1_545 S
C2993 H3015 0.950 . S
C2994 H2990 0.949 . S
C2994 C3002 1.574 . S
C2994 C3010 1.368 . S
H2995 C3003 0.950 . S
H2996 C3001 0.950 . S
H2997 C3002 0.949 . S
H2998 C3004 0.950 . S
H2999 C3005 0.950 . S
H3000 C3006 0.949 1_545 S
C3001 H2996 0.950 . S
C3001 C3003 1.327 . S
C3001 C3007 1.429 . S
C3002 C2994 1.574 . S
C3002 H2997 0.949 . S
C3002 C3008 1.368 . S
C3003 C2987 1.349 . S
C3003 H2995 0.950 . S
C3003 C3001 1.327 . S
C3004 C2992 1.349 1_565 S
C3004 H2998 0.950 . S
C3004 C3005 1.327 . S
C3005 H2999 0.950 . S
C3005 C3004 1.327 . S
C3005 C3009 1.429 . S
C3006 C2989 1.574 . S
C3006 H3000 0.949 1_565 S
C3006 C3010 1.368 . S
C3007 C2988 1.429 . S
C3007 C3001 1.429 . S
C3007 C3008 1.523 . S
C3008 C2989 1.368 . S
C3008 C3002 1.368 . S
C3008 C3007 1.523 . S
C3009 C2993 1.429 1_565 S
C3009 C3005 1.429 . S
C3009 C3010 1.523 . S
C3010 C2994 1.368 . S
C3010 C3006 1.368 . S
C3010 C3009 1.523 . S
H3011 C2986 0.950 . S
H3012 C2988 0.950 . S
H3013 C2989 0.949 . S
H3014 C2991 0.950 . S
H3015 C2993 0.950 . S
C3016 C3017 1.349 . S
C3016 C3018 1.327 . S
C3016 H3041 0.950 . S
C3017 C3016 1.349 . S
C3017 C3033 1.349 . S
C3018 C3016 1.327 . S
C3018 C3037 1.429 . S
C3018 H3042 0.950 . S
C3019 C3036 1.574 . S
C3019 C3038 1.368 . S
C3019 H3043 0.949 . S
H3020 C3024 0.949 . S
C3021 C3022 1.349 . S
C3021 C3023 1.327 . S
C3021 H3044 0.950 . S
C3022 C3021 1.349 . S
C3022 C3034 1.349 . S
C3023 C3021 1.327 . S
C3023 C3039 1.429 . S
C3023 H3045 0.950 . S
C3024 H3020 0.949 . S
C3024 C3032 1.574 . S
C3024 C3040 1.368 . S
H3025 C3033 0.950 . S
H3026 C3031 0.950 . S
H3027 C3032 0.949 . S
H3028 C3034 0.950 . S
H3029 C3035 0.950 . S
H3030 C3036 0.949 . S
C3031 H3026 0.950 . S
C3031 C3033 1.327 . S
C3031 C3037 1.429 . S
C3032 C3024 1.574 . S
C3032 H3027 0.949 . S
C3032 C3038 1.368 . S
C3033 C3017 1.349 . S
C3033 H3025 0.950 . S
C3033 C3031 1.327 . S
C3034 C3022 1.349 . S
C3034 H3028 0.950 . S
C3034 C3035 1.327 . S
C3035 H3029 0.950 . S
C3035 C3034 1.327 . S
C3035 C3039 1.429 . S
C3036 C3019 1.574 . S
C3036 H3030 0.949 . S
C3036 C3040 1.368 . S
C3037 C3018 1.429 . S
C3037 C3031 1.429 . S
C3037 C3038 1.523 . S
C3038 C3019 1.368 . S
C3038 C3032 1.368 . S
C3038 C3037 1.523 . S
C3039 C3023 1.429 . S
C3039 C3035 1.429 . S
C3039 C3040 1.523 . S
C3040 C3024 1.368 . S
C3040 C3036 1.368 . S
C3040 C3039 1.523 . S
H3041 C3016 0.950 . S
H3042 C3018 0.950 . S
H3043 C3019 0.949 . S
H3044 C3021 0.950 . S
H3045 C3023 0.950 . S
C3046 C3047 1.349 . S
C3046 C3048 1.327 . S
C3046 H3071 0.950 . S
C3047 C3046 1.349 . S
C3047 C3063 1.349 1_554 S
C3048 C3046 1.327 . S
C3048 C3067 1.429 . S
C3048 H3072 0.950 . S
C3049 C3066 1.574 . S
C3049 C3068 1.368 . S
C3049 H3073 0.949 1_554 S
H3050 C3054 0.949 . S
C3051 C3052 1.349 . S
C3051 C3053 1.327 . S
C3051 H3074 0.950 . S
C3052 C3051 1.349 . S
C3052 C3064 1.349 . S
C3053 C3051 1.327 . S
C3053 C3069 1.429 . S
C3053 H3075 0.950 . S
C3054 H3050 0.949 . S
C3054 C3062 1.574 . S
C3054 C3070 1.368 . S
H3055 C3063 0.950 . S
H3056 C3061 0.950 . S
H3057 C3062 0.949 . S
H3058 C3064 0.950 . S
H3059 C3065 0.950 . S
H3060 C3066 0.943 1_556 S
C3061 H3056 0.950 . S
C3061 C3063 1.327 . S
C3061 C3067 1.429 1_556 S
C3062 C3054 1.574 . S
C3062 H3057 0.949 . S
C3062 C3068 1.368 . S
C3063 C3047 1.349 1_556 S
C3063 H3055 0.950 . S
C3063 C3061 1.327 . S
C3064 C3052 1.349 . S
C3064 H3058 0.950 . S
C3064 C3065 1.327 . S
C3065 H3059 0.950 . S
C3065 C3064 1.327 . S
C3065 C3069 1.429 . S
C3066 C3049 1.574 . S
C3066 H3060 0.943 1_554 S
C3066 C3070 1.368 . S
C3067 C3048 1.429 . S
C3067 C3061 1.429 1_554 S
C3067 C3068 1.523 . S
C3068 C3049 1.368 . S
C3068 C3062 1.368 . S
C3068 C3067 1.523 . S
C3069 C3053 1.429 . S
C3069 C3065 1.429 . S
C3069 C3070 1.523 . S
C3070 C3054 1.368 . S
C3070 C3066 1.368 . S
C3070 C3069 1.523 . S
H3071 C3046 0.950 . S
H3072 C3048 0.950 . S
H3073 C3049 0.949 1_556 S
H3074 C3051 0.950 . S
H3075 C3053 0.950 . S
C3076 C3077 1.349 . S
C3076 C3078 1.327 . S
C3076 H3101 0.950 . S
C3077 C3076 1.349 . S
C3077 C3093 1.349 . S
C3078 C3076 1.327 . S
C3078 C3097 1.429 . S
C3078 H3102 0.950 . S
C3079 C3096 1.574 . S
C3079 C3098 1.368 . S
C3079 H3103 0.949 . S
H3080 C3084 0.949 . S
C3081 C3082 1.349 . S
C3081 C3083 1.327 . S
C3081 H3104 0.950 . S
C3082 C3081 1.349 . S
C3082 C3094 1.349 . S
C3083 C3081 1.327 . S
C3083 C3099 1.429 . S
C3083 H3105 0.950 . S
C3084 H3080 0.949 . S
C3084 C3092 1.574 . S
C3084 C3100 1.368 . S
H3085 C3093 0.950 . S
H3086 C3091 0.950 . S
H3087 C3092 0.949 . S
H3088 C3094 0.950 . S
H3089 C3095 0.950 . S
H3090 C3096 0.949 . S
C3091 H3086 0.950 . S
C3091 C3093 1.327 . S
C3091 C3097 1.429 . S
C3092 C3084 1.574 . S
C3092 H3087 0.949 . S
C3092 C3098 1.368 . S
C3093 C3077 1.349 . S
C3093 H3085 0.950 . S
C3093 C3091 1.327 . S
C3094 C3082 1.349 . S
C3094 H3088 0.950 . S
C3094 C3095 1.327 . S
C3095 H3089 0.950 . S
C3095 C3094 1.327 . S
C3095 C3099 1.429 . S
C3096 C3079 1.574 . S
C3096 H3090 0.949 . S
C3096 C3100 1.368 . S
C3097 C3078 1.429 . S
C3097 C3091 1.429 . S
C3097 C3098 1.523 . S
C3098 C3079 1.368 . S
C3098 C3092 1.368 . S
C3098 C3097 1.523 . S
C3099 C3083 1.429 . S
C3099 C3095 1.429 . S
C3099 C3100 1.523 . S
C3100 C3084 1.368 . S
C3100 C3096 1.368 . S
C3100 C3099 1.523 . S
H3101 C3076 0.950 . S
H3102 C3078 0.950 . S
H3103 C3079 0.949 . S
H3104 C3081 0.950 . S
H3105 C3083 0.950 . S
C3106 C3107 1.349 . S
C3106 C3108 1.327 . S
C3106 H3131 0.950 . S
C3107 C3106 1.349 . S
C3107 C3123 1.349 . S
C3108 C3106 1.327 . S
C3108 C3127 1.429 . S
C3108 H3132 0.950 . S
C3109 C3126 1.574 . S
C3109 C3128 1.368 . S
C3109 H3133 0.949 . S
H3110 C3114 0.949 . S
C3111 C3112 1.349 . S
C3111 C3113 1.327 . S
C3111 H3134 0.950 . S
C3112 C3111 1.349 . S
C3112 C3124 1.349 . S
C3113 C3111 1.327 . S
C3113 C3129 1.429 . S
C3113 H3135 0.950 . S
C3114 H3110 0.949 . S
C3114 C3122 1.574 . S
C3114 C3130 1.368 . S
H3115 C3123 0.950 . S
H3116 C3121 0.950 . S
H3117 C3122 0.949 . S
H3118 C3124 0.950 . S
H3119 C3125 0.950 . S
H3120 C3126 0.949 . S
C3121 H3116 0.950 . S
C3121 C3123 1.327 . S
C3121 C3127 1.429 . S
C3122 C3114 1.574 . S
C3122 H3117 0.949 . S
C3122 C3128 1.368 . S
C3123 C3107 1.349 . S
C3123 H3115 0.950 . S
C3123 C3121 1.327 . S
C3124 C3112 1.349 . S
C3124 H3118 0.950 . S
C3124 C3125 1.327 . S
C3125 H3119 0.950 . S
C3125 C3124 1.327 . S
C3125 C3129 1.429 . S
C3126 C3109 1.574 . S
C3126 H3120 0.949 . S
C3126 C3130 1.368 . S
C3127 C3108 1.429 . S
C3127 C3121 1.429 . S
C3127 C3128 1.523 . S
C3128 C3109 1.368 . S
C3128 C3122 1.368 . S
C3128 C3127 1.523 . S
C3129 C3113 1.429 . S
C3129 C3125 1.429 . S
C3129 C3130 1.523 . S
C3130 C3114 1.368 . S
C3130 C3126 1.368 . S
C3130 C3129 1.523 . S
H3131 C3106 0.950 . S
H3132 C3108 0.950 . S
H3133 C3109 0.949 . S
H3134 C3111 0.950 . S
H3135 C3113 0.950 . S
C3136 C3137 1.349 . S
C3136 C3138 1.327 . S
C3136 H3161 0.950 . S
C3137 C3136 1.349 . S
C3137 C3153 1.349 . S
C3138 C3136 1.327 . S
C3138 C3157 1.429 . S
C3138 H3162 0.950 . S
C3139 C3156 1.574 . S
C3139 C3158 1.368 . S
C3139 H3163 0.949 . S
H3140 C3144 0.949 . S
C3141 C3142 1.349 . S
C3141 C3143 1.327 . S
C3141 H3164 0.950 . S
C3142 C3141 1.349 . S
C3142 C3154 1.349 . S
C3143 C3141 1.327 . S
C3143 C3159 1.429 . S
C3143 H3165 0.950 . S
C3144 H3140 0.949 . S
C3144 C3152 1.574 . S
C3144 C3160 1.368 . S
H3145 C3153 0.950 . S
H3146 C3151 0.950 . S
H3147 C3152 0.949 . S
H3148 C3154 0.950 . S
H3149 C3155 0.950 . S
H3150 C3156 0.949 . S
C3151 H3146 0.950 . S
C3151 C3153 1.327 . S
C3151 C3157 1.429 . S
C3152 C3144 1.574 . S
C3152 H3147 0.949 . S
C3152 C3158 1.368 . S
C3153 C3137 1.349 . S
C3153 H3145 0.950 . S
C3153 C3151 1.327 . S
C3154 C3142 1.349 . S
C3154 H3148 0.950 . S
C3154 C3155 1.327 . S
C3155 H3149 0.950 . S
C3155 C3154 1.327 . S
C3155 C3159 1.429 . S
C3156 C3139 1.574 . S
C3156 H3150 0.949 . S
C3156 C3160 1.368 . S
C3157 C3138 1.429 . S
C3157 C3151 1.429 . S
C3157 C3158 1.523 . S
C3158 C3139 1.368 . S
C3158 C3152 1.368 . S
C3158 C3157 1.523 . S
C3159 C3143 1.429 . S
C3159 C3155 1.429 . S
C3159 C3160 1.523 . S
C3160 C3144 1.368 . S
C3160 C3156 1.368 . S
C3160 C3159 1.523 . S
H3161 C3136 0.950 . S
H3162 C3138 0.950 . S
H3163 C3139 0.949 . S
H3164 C3141 0.950 . S
H3165 C3143 0.950 . S
C3166 C3167 1.349 . S
C3166 C3168 1.327 . S
C3166 H3191 0.950 . S
C3167 C3166 1.349 . S
C3167 C3183 1.349 . S
C3168 C3166 1.327 . S
C3168 C3187 1.429 . S
C3168 H3192 0.950 . S
C3169 C3186 1.574 . S
C3169 C3188 1.368 . S
C3169 H3193 0.949 . S
H3170 C3174 0.949 . S
C3171 C3172 1.349 . S
C3171 C3173 1.327 . S
C3171 H3194 0.950 . S
C3172 C3171 1.349 . S
C3172 C3184 1.349 . S
C3173 C3171 1.327 . S
C3173 C3189 1.429 . S
C3173 H3195 0.950 . S
C3174 H3170 0.949 . S
C3174 C3182 1.574 . S
C3174 C3190 1.368 . S
H3175 C3183 0.950 . S
H3176 C3181 0.950 . S
H3177 C3182 0.949 . S
H3178 C3184 0.950 . S
H3179 C3185 0.950 . S
H3180 C3186 0.949 . S
C3181 H3176 0.950 . S
C3181 C3183 1.327 . S
C3181 C3187 1.429 . S
C3182 C3174 1.574 . S
C3182 H3177 0.949 . S
C3182 C3188 1.368 . S
C3183 C3167 1.349 . S
C3183 H3175 0.950 . S
C3183 C3181 1.327 . S
C3184 C3172 1.349 . S
C3184 H3178 0.950 . S
C3184 C3185 1.327 . S
C3185 H3179 0.950 . S
C3185 C3184 1.327 . S
C3185 C3189 1.429 . S
C3186 C3169 1.574 . S
C3186 H3180 0.949 . S
C3186 C3190 1.368 . S
C3187 C3168 1.429 . S
C3187 C3181 1.429 . S
C3187 C3188 1.523 . S
C3188 C3169 1.368 . S
C3188 C3182 1.368 . S
C3188 C3187 1.523 . S
C3189 C3173 1.429 . S
C3189 C3185 1.429 . S
C3189 C3190 1.523 . S
C3190 C3174 1.368 . S
C3190 C3186 1.368 . S
C3190 C3189 1.523 . S
H3191 C3166 0.950 . S
H3192 C3168 0.950 . S
H3193 C3169 0.949 . S
H3194 C3171 0.950 . S
H3195 C3173 0.950 . S
C3196 C3197 1.349 . S
C3196 C3198 1.327 . S
C3196 H3221 0.950 . S
C3197 C3196 1.349 . S
C3197 C3213 1.349 . S
C3198 C3196 1.327 . S
C3198 C3217 1.429 . S
C3198 H3222 0.950 . S
C3199 C3216 1.574 . S
C3199 C3218 1.368 . S
C3199 H3223 0.949 . S
H3200 C3204 0.949 . S
C3201 C3202 1.349 . S
C3201 C3203 1.327 . S
C3201 H3224 0.950 . S
C3202 C3201 1.349 . S
C3202 C3214 1.349 . S
C3203 C3201 1.327 . S
C3203 C3219 1.429 . S
C3203 H3225 0.950 . S
C3204 H3200 0.949 . S
C3204 C3212 1.574 . S
C3204 C3220 1.368 . S
H3205 C3213 0.950 . S
H3206 C3211 0.950 . S
H3207 C3212 0.949 . S
H3208 C3214 0.950 1_556 S
H3209 C3215 0.950 . S
H3210 C3216 0.949 . S
C3211 H3206 0.950 . S
C3211 C3213 1.327 . S
C3211 C3217 1.429 . S
C3212 C3204 1.574 . S
C3212 H3207 0.949 . S
C3212 C3218 1.368 . S
C3213 C3197 1.349 . S
C3213 H3205 0.950 . S
C3213 C3211 1.327 . S
C3214 C3202 1.349 . S
C3214 H3208 0.950 1_554 S
C3214 C3215 1.327 . S
C3215 H3209 0.950 . S
C3215 C3214 1.327 . S
C3215 C3219 1.429 . S
C3216 C3199 1.574 . S
C3216 H3210 0.949 . S
C3216 C3220 1.368 . S
C3217 C3198 1.429 . S
C3217 C3211 1.429 . S
C3217 C3218 1.523 . S
C3218 C3199 1.368 . S
C3218 C3212 1.368 . S
C3218 C3217 1.523 . S
C3219 C3203 1.429 . S
C3219 C3215 1.429 . S
C3219 C3220 1.523 . S
C3220 C3204 1.368 . S
C3220 C3216 1.368 . S
C3220 C3219 1.523 . S
H3221 C3196 0.950 . S
H3222 C3198 0.950 . S
H3223 C3199 0.949 . S
H3224 C3201 0.950 . S
H3225 C3203 0.950 . S
C3226 C3227 1.349 . S
C3226 C3228 1.327 . S
C3226 H3251 0.950 . S
C3227 C3226 1.349 . S
C3227 C3243 1.349 . S
C3228 C3226 1.327 . S
C3228 C3247 1.429 . S
C3228 H3252 0.950 . S
C3229 C3246 1.574 . S
C3229 C3248 1.368 . S
C3229 H3253 0.949 . S
H3230 C3234 0.949 . S
C3231 C3232 1.349 . S
C3231 C3233 1.327 . S
C3231 H3254 0.950 . S
C3232 C3231 1.349 . S
C3232 C3244 1.349 . S
C3233 C3231 1.327 . S
C3233 C3249 1.429 . S
C3233 H3255 0.950 . S
C3234 H3230 0.949 . S
C3234 C3242 1.574 . S
C3234 C3250 1.368 . S
H3235 C3243 0.950 . S
H3236 C3241 0.950 . S
H3237 C3242 0.949 . S
H3238 C3244 0.950 . S
H3239 C3245 0.950 . S
H3240 C3246 0.949 . S
C3241 H3236 0.950 . S
C3241 C3243 1.327 . S
C3241 C3247 1.429 . S
C3242 C3234 1.574 . S
C3242 H3237 0.949 . S
C3242 C3248 1.368 . S
C3243 C3227 1.349 . S
C3243 H3235 0.950 . S
C3243 C3241 1.327 . S
C3244 C3232 1.349 . S
C3244 H3238 0.950 . S
C3244 C3245 1.327 . S
C3245 H3239 0.950 . S
C3245 C3244 1.327 . S
C3245 C3249 1.429 . S
C3246 C3229 1.574 . S
C3246 H3240 0.949 . S
C3246 C3250 1.368 . S
C3247 C3228 1.429 . S
C3247 C3241 1.429 . S
C3247 C3248 1.523 . S
C3248 C3229 1.368 . S
C3248 C3242 1.368 . S
C3248 C3247 1.523 . S
C3249 C3233 1.429 . S
C3249 C3245 1.429 . S
C3249 C3250 1.523 . S
C3250 C3234 1.368 . S
C3250 C3246 1.368 . S
C3250 C3249 1.523 . S
H3251 C3226 0.950 . S
H3252 C3228 0.950 . S
H3253 C3229 0.949 . S
H3254 C3231 0.950 . S
H3255 C3233 0.950 . S
C3256 C3257 1.349 . S
C3256 C3258 1.327 . S
C3256 H3281 0.950 . S
C3257 C3256 1.349 . S
C3257 C3273 1.349 . S
C3258 C3256 1.327 . S
C3258 C3277 1.429 . S
C3258 H3282 0.950 . S
C3259 C3276 1.574 . S
C3259 C3278 1.368 . S
C3259 H3283 0.949 . S
H3260 C3264 0.949 . S
C3261 C3262 1.349 . S
C3261 C3263 1.327 . S
C3261 H3284 0.950 . S
C3262 C3261 1.349 . S
C3262 C3274 1.349 . S
C3263 C3261 1.327 . S
C3263 C3279 1.429 . S
C3263 H3285 0.950 . S
C3264 H3260 0.949 . S
C3264 C3272 1.574 . S
C3264 C3280 1.368 . S
H3265 C3273 0.950 . S
H3266 C3271 0.950 . S
H3267 C3272 0.949 . S
H3268 C3274 0.950 . S
H3269 C3275 0.950 . S
H3270 C3276 0.949 . S
C3271 H3266 0.950 . S
C3271 C3273 1.327 . S
C3271 C3277 1.429 . S
C3272 C3264 1.574 . S
C3272 H3267 0.949 . S
C3272 C3278 1.368 . S
C3273 C3257 1.349 . S
C3273 H3265 0.950 . S
C3273 C3271 1.327 . S
C3274 C3262 1.349 . S
C3274 H3268 0.950 . S
C3274 C3275 1.327 . S
C3275 H3269 0.950 . S
C3275 C3274 1.327 . S
C3275 C3279 1.429 . S
C3276 C3259 1.574 . S
C3276 H3270 0.949 . S
C3276 C3280 1.368 . S
C3277 C3258 1.429 . S
C3277 C3271 1.429 . S
C3277 C3278 1.523 . S
C3278 C3259 1.368 . S
C3278 C3272 1.368 . S
C3278 C3277 1.523 . S
C3279 C3263 1.429 . S
C3279 C3275 1.429 . S
C3279 C3280 1.523 . S
C3280 C3264 1.368 . S
C3280 C3276 1.368 . S
C3280 C3279 1.523 . S
H3281 C3256 0.950 . S
H3282 C3258 0.950 . S
H3283 C3259 0.949 . S
H3284 C3261 0.950 . S
H3285 C3263 0.950 . S
C3286 C3287 1.349 . S
C3286 C3288 1.327 . S
C3286 H3311 0.950 . S
C3287 C3286 1.349 . S
C3287 C3303 1.349 . S
C3288 C3286 1.327 . S
C3288 C3307 1.429 . S
C3288 H3312 0.950 . S
C3289 C3306 1.574 . S
C3289 C3308 1.368 . S
C3289 H3313 0.949 . S
H3290 C3294 0.949 . S
C3291 C3292 1.349 . S
C3291 C3293 1.327 . S
C3291 H3314 0.950 . S
C3292 C3291 1.349 . S
C3292 C3304 1.349 . S
C3293 C3291 1.327 . S
C3293 C3309 1.429 . S
C3293 H3315 0.950 . S
C3294 H3290 0.949 . S
C3294 C3302 1.574 . S
C3294 C3310 1.368 . S
H3295 C3303 0.950 . S
H3296 C3301 0.950 . S
H3297 C3302 0.949 . S
H3298 C3304 0.950 . S
H3299 C3305 0.950 . S
H3300 C3306 0.949 . S
C3301 H3296 0.950 . S
C3301 C3303 1.327 . S
C3301 C3307 1.429 . S
C3302 C3294 1.574 . S
C3302 H3297 0.949 . S
C3302 C3308 1.368 . S
C3303 C3287 1.349 . S
C3303 H3295 0.950 . S
C3303 C3301 1.327 . S
C3304 C3292 1.349 . S
C3304 H3298 0.950 . S
C3304 C3305 1.327 . S
C3305 H3299 0.950 . S
C3305 C3304 1.327 . S
C3305 C3309 1.429 . S
C3306 C3289 1.574 . S
C3306 H3300 0.949 . S
C3306 C3310 1.368 . S
C3307 C3288 1.429 . S
C3307 C3301 1.429 . S
C3307 C3308 1.523 . S
C3308 C3289 1.368 . S
C3308 C3302 1.368 . S
C3308 C3307 1.523 . S
C3309 C3293 1.429 . S
C3309 C3305 1.429 . S
C3309 C3310 1.523 . S
C3310 C3294 1.368 . S
C3310 C3306 1.368 . S
C3310 C3309 1.523 . S
H3311 C3286 0.950 . S
H3312 C3288 0.950 . S
H3313 C3289 0.949 . S
H3314 C3291 0.950 . S
H3315 C3293 0.950 . S
C3316 C3317 1.349 . S
C3316 C3318 1.327 . S
C3316 H3341 0.950 . S
C3317 C3316 1.349 . S
C3317 C3333 1.349 . S
C3318 C3316 1.327 . S
C3318 C3337 1.429 . S
C3318 H3342 0.950 . S
C3319 C3336 1.574 . S
C3319 C3338 1.368 . S
C3319 H3343 0.949 . S
H3320 C3324 0.949 . S
C3321 C3322 1.349 . S
C3321 C3323 1.327 . S
C3321 H3344 0.950 . S
C3322 C3321 1.349 . S
C3322 C3334 1.349 . S
C3323 C3321 1.327 . S
C3323 C3339 1.429 . S
C3323 H3345 0.950 . S
C3324 H3320 0.949 . S
C3324 C3332 1.574 . S
C3324 C3340 1.368 . S
H3325 C3333 0.950 . S
H3326 C3331 0.950 . S
H3327 C3332 0.949 . S
H3328 C3334 0.950 . S
H3329 C3335 0.950 . S
H3330 C3336 0.949 . S
C3331 H3326 0.950 . S
C3331 C3333 1.327 . S
C3331 C3337 1.429 . S
C3332 C3324 1.574 . S
C3332 H3327 0.949 . S
C3332 C3338 1.368 . S
C3333 C3317 1.349 . S
C3333 H3325 0.950 . S
C3333 C3331 1.327 . S
C3334 C3322 1.349 . S
C3334 H3328 0.950 . S
C3334 C3335 1.327 . S
C3335 H3329 0.950 . S
C3335 C3334 1.327 . S
C3335 C3339 1.429 . S
C3336 C3319 1.574 . S
C3336 H3330 0.949 . S
C3336 C3340 1.368 . S
C3337 C3318 1.429 . S
C3337 C3331 1.429 . S
C3337 C3338 1.523 . S
C3338 C3319 1.368 . S
C3338 C3332 1.368 . S
C3338 C3337 1.523 . S
C3339 C3323 1.429 . S
C3339 C3335 1.429 . S
C3339 C3340 1.523 . S
C3340 C3324 1.368 . S
C3340 C3336 1.368 . S
C3340 C3339 1.523 . S
H3341 C3316 0.950 . S
H3342 C3318 0.950 . S
H3343 C3319 0.949 . S
H3344 C3321 0.950 . S
H3345 C3323 0.950 . S
C3346 C3347 1.349 . S
C3346 C3348 1.327 . S
C3346 H3371 0.950 . S
C3347 C3346 1.349 . S
C3347 C3363 1.349 . S
C3348 C3346 1.327 . S
C3348 C3367 1.429 . S
C3348 H3372 0.950 . S
C3349 C3366 1.574 . S
C3349 C3368 1.368 . S
C3349 H3373 0.949 . S
H3350 C3354 0.949 . S
C3351 C3352 1.349 . S
C3351 C3353 1.327 . S
C3351 H3374 0.950 . S
C3352 C3351 1.349 . S
C3352 C3364 1.349 . S
C3353 C3351 1.327 . S
C3353 C3369 1.429 . S
C3353 H3375 0.950 . S
C3354 H3350 0.949 . S
C3354 C3362 1.574 . S
C3354 C3370 1.368 . S
H3355 C3363 0.950 . S
H3356 C3361 0.950 . S
H3357 C3362 0.949 . S
H3358 C3364 0.950 . S
H3359 C3365 0.950 . S
H3360 C3366 0.949 . S
C3361 H3356 0.950 . S
C3361 C3363 1.327 . S
C3361 C3367 1.429 . S
C3362 C3354 1.574 . S
C3362 H3357 0.949 . S
C3362 C3368 1.368 . S
C3363 C3347 1.349 . S
C3363 H3355 0.950 . S
C3363 C3361 1.327 . S
C3364 C3352 1.349 . S
C3364 H3358 0.950 . S
C3364 C3365 1.327 . S
C3365 H3359 0.950 . S
C3365 C3364 1.327 . S
C3365 C3369 1.429 . S
C3366 C3349 1.574 . S
C3366 H3360 0.949 . S
C3366 C3370 1.368 . S
C3367 C3348 1.429 . S
C3367 C3361 1.429 . S
C3367 C3368 1.523 . S
C3368 C3349 1.368 . S
C3368 C3362 1.368 . S
C3368 C3367 1.523 . S
C3369 C3353 1.429 . S
C3369 C3365 1.429 . S
C3369 C3370 1.523 . S
C3370 C3354 1.368 . S
C3370 C3366 1.368 . S
C3370 C3369 1.523 . S
H3371 C3346 0.950 . S
H3372 C3348 0.950 . S
H3373 C3349 0.949 . S
H3374 C3351 0.950 . S
H3375 C3353 0.950 . S
C3376 C3377 1.349 . S
C3376 C3378 1.327 . S
C3376 H3401 0.950 . S
C3377 C3376 1.349 . S
C3377 C3393 1.349 . S
C3378 C3376 1.327 . S
C3378 C3397 1.429 . S
C3378 H3402 0.950 . S
C3379 C3396 1.574 . S
C3379 C3398 1.368 . S
C3379 H3403 0.949 . S
H3380 C3384 0.949 . S
C3381 C3382 1.349 . S
C3381 C3383 1.327 . S
C3381 H3404 0.950 . S
C3382 C3381 1.349 . S
C3382 C3394 1.349 . S
C3383 C3381 1.327 . S
C3383 C3399 1.429 . S
C3383 H3405 0.950 . S
C3384 H3380 0.949 . S
C3384 C3392 1.574 . S
C3384 C3400 1.368 . S
H3385 C3393 0.950 . S
H3386 C3391 0.950 . S
H3387 C3392 0.949 . S
H3388 C3394 0.950 . S
H3389 C3395 0.950 . S
H3390 C3396 0.949 . S
C3391 H3386 0.950 . S
C3391 C3393 1.327 . S
C3391 C3397 1.429 . S
C3392 C3384 1.574 . S
C3392 H3387 0.949 . S
C3392 C3398 1.368 . S
C3393 C3377 1.349 . S
C3393 H3385 0.950 . S
C3393 C3391 1.327 . S
C3394 C3382 1.349 . S
C3394 H3388 0.950 . S
C3394 C3395 1.327 . S
C3395 H3389 0.950 . S
C3395 C3394 1.327 . S
C3395 C3399 1.429 . S
C3396 C3379 1.574 . S
C3396 H3390 0.949 . S
C3396 C3400 1.368 . S
C3397 C3378 1.429 . S
C3397 C3391 1.429 . S
C3397 C3398 1.523 . S
C3398 C3379 1.368 . S
C3398 C3392 1.368 . S
C3398 C3397 1.523 . S
C3399 C3383 1.429 . S
C3399 C3395 1.429 . S
C3399 C3400 1.523 . S
C3400 C3384 1.368 . S
C3400 C3396 1.368 . S
C3400 C3399 1.523 . S
H3401 C3376 0.950 . S
H3402 C3378 0.950 . S
H3403 C3379 0.949 . S
H3404 C3381 0.950 . S
H3405 C3383 0.950 . S
C3406 C3407 1.349 . S
C3406 C3408 1.327 . S
C3406 H3431 0.950 . S
C3407 C3406 1.349 . S
C3407 C3423 1.349 . S
C3408 C3406 1.327 . S
C3408 C3427 1.429 . S
C3408 H3432 0.950 . S
C3409 C3426 1.574 . S
C3409 C3428 1.368 . S
C3409 H3433 0.949 . S
H3410 C3414 0.949 . S
C3411 C3412 1.349 . S
C3411 C3413 1.327 . S
C3411 H3434 0.950 . S
C3412 C3411 1.349 . S
C3412 C3424 1.349 . S
C3413 C3411 1.327 . S
C3413 C3429 1.429 . S
C3413 H3435 0.950 . S
C3414 H3410 0.949 . S
C3414 C3422 1.574 . S
C3414 C3430 1.368 . S
H3415 C3423 0.950 . S
H3416 C3421 0.950 . S
H3417 C3422 0.949 . S
H3418 C3424 0.950 . S
H3419 C3425 0.950 . S
H3420 C3426 0.949 . S
C3421 H3416 0.950 . S
C3421 C3423 1.327 . S
C3421 C3427 1.429 . S
C3422 C3414 1.574 . S
C3422 H3417 0.949 . S
C3422 C3428 1.368 . S
C3423 C3407 1.349 . S
C3423 H3415 0.950 . S
C3423 C3421 1.327 . S
C3424 C3412 1.349 . S
C3424 H3418 0.950 . S
C3424 C3425 1.327 . S
C3425 H3419 0.950 . S
C3425 C3424 1.327 . S
C3425 C3429 1.429 . S
C3426 C3409 1.574 . S
C3426 H3420 0.949 . S
C3426 C3430 1.368 . S
C3427 C3408 1.429 . S
C3427 C3421 1.429 . S
C3427 C3428 1.523 . S
C3428 C3409 1.368 . S
C3428 C3422 1.368 . S
C3428 C3427 1.523 . S
C3429 C3413 1.429 . S
C3429 C3425 1.429 . S
C3429 C3430 1.523 . S
C3430 C3414 1.368 . S
C3430 C3426 1.368 . S
C3430 C3429 1.523 . S
H3431 C3406 0.950 . S
H3432 C3408 0.950 . S
H3433 C3409 0.949 . S
H3434 C3411 0.950 . S
H3435 C3413 0.950 . S
C3436 C3437 1.349 . S
C3436 C3438 1.327 . S
C3436 H3461 0.950 . S
C3437 C3436 1.349 . S
C3437 C3453 1.349 . S
C3438 C3436 1.327 . S
C3438 C3457 1.429 . S
C3438 H3462 0.950 . S
C3439 C3456 1.574 . S
C3439 C3458 1.368 . S
C3439 H3463 0.949 . S
H3440 C3444 0.949 1_455 S
C3441 C3442 1.349 . S
C3441 C3443 1.327 1_455 S
C3441 H3464 0.949 . S
C3442 C3441 1.349 . S
C3442 C3454 1.349 . S
C3443 C3441 1.327 1_655 S
C3443 C3459 1.407 1_655 S
C3443 H3465 0.950 . S
C3444 H3440 0.949 1_655 S
C3444 C3452 1.574 . S
C3444 C3460 1.368 . S
H3445 C3453 0.950 . S
H3446 C3451 0.950 . S
H3447 C3452 0.949 . S
H3448 C3454 0.950 . S
H3449 C3455 0.950 . S
H3450 C3456 0.949 . S
C3451 H3446 0.950 . S
C3451 C3453 1.327 . S
C3451 C3457 1.429 . S
C3452 C3444 1.574 . S
C3452 H3447 0.949 . S
C3452 C3458 1.368 . S
C3453 C3437 1.349 . S
C3453 H3445 0.950 . S
C3453 C3451 1.327 . S
C3454 C3442 1.349 . S
C3454 H3448 0.950 . S
C3454 C3455 1.327 . S
C3455 H3449 0.950 . S
C3455 C3454 1.327 . S
C3455 C3459 1.474 . S
C3456 C3439 1.574 . S
C3456 H3450 0.949 . S
C3456 C3460 1.368 . S
C3457 C3438 1.429 . S
C3457 C3451 1.429 . S
C3457 C3458 1.523 . S
C3458 C3439 1.368 . S
C3458 C3452 1.368 . S
C3458 C3457 1.523 . S
C3459 C3443 1.407 1_455 S
C3459 C3455 1.474 . S
C3459 C3460 1.502 1_455 S
C3460 C3444 1.368 . S
C3460 C3456 1.368 . S
C3460 C3459 1.502 1_655 S
H3461 C3436 0.950 . S
H3462 C3438 0.950 . S
H3463 C3439 0.949 . S
H3464 C3441 0.949 . S
H3465 C3443 0.950 . S
C3466 C3467 1.349 . S
C3466 C3468 1.327 . S
C3466 H3491 0.950 . S
C3467 C3466 1.349 . S
C3467 C3483 1.349 . S
C3468 C3466 1.327 . S
C3468 C3487 1.429 . S
C3468 H3492 0.950 . S
C3469 C3486 1.574 . S
C3469 C3488 1.368 . S
C3469 H3493 0.949 . S
H3470 C3474 0.949 . S
C3471 C3472 1.349 . S
C3471 C3473 1.327 . S
C3471 H3494 0.950 . S
C3472 C3471 1.349 . S
C3472 C3484 1.349 . S
C3473 C3471 1.327 . S
C3473 C3489 1.429 . S
C3473 H3495 0.950 . S
C3474 H3470 0.949 . S
C3474 C3482 1.574 . S
C3474 C3490 1.368 . S
H3475 C3483 0.950 . S
H3476 C3481 0.950 . S
H3477 C3482 0.949 . S
H3478 C3484 0.950 . S
H3479 C3485 0.950 . S
H3480 C3486 0.949 . S
C3481 H3476 0.950 . S
C3481 C3483 1.327 . S
C3481 C3487 1.429 . S
C3482 C3474 1.574 . S
C3482 H3477 0.949 . S
C3482 C3488 1.368 . S
C3483 C3467 1.349 . S
C3483 H3475 0.950 . S
C3483 C3481 1.327 . S
C3484 C3472 1.349 . S
C3484 H3478 0.950 . S
C3484 C3485 1.327 . S
C3485 H3479 0.950 . S
C3485 C3484 1.327 . S
C3485 C3489 1.429 . S
C3486 C3469 1.574 . S
C3486 H3480 0.949 . S
C3486 C3490 1.368 . S
C3487 C3468 1.429 . S
C3487 C3481 1.429 . S
C3487 C3488 1.523 . S
C3488 C3469 1.368 . S
C3488 C3482 1.368 . S
C3488 C3487 1.523 . S
C3489 C3473 1.429 . S
C3489 C3485 1.429 . S
C3489 C3490 1.523 . S
C3490 C3474 1.368 . S
C3490 C3486 1.368 . S
C3490 C3489 1.523 . S
H3491 C3466 0.950 . S
H3492 C3468 0.950 . S
H3493 C3469 0.949 . S
H3494 C3471 0.950 . S
H3495 C3473 0.950 . S
C3496 C3497 1.349 . S
C3496 C3498 1.327 . S
C3496 H3521 0.950 . S
C3497 C3496 1.349 . S
C3497 C3513 1.349 . S
C3498 C3496 1.327 . S
C3498 C3517 1.429 . S
C3498 H3522 0.950 . S
C3499 C3516 1.574 . S
C3499 C3518 1.368 . S
C3499 H3523 0.949 . S
H3500 C3504 0.949 . S
C3501 C3502 1.349 . S
C3501 C3503 1.327 . S
C3501 H3524 0.950 . S
C3502 C3501 1.349 . S
C3502 C3514 1.349 . S
C3503 C3501 1.327 . S
C3503 C3519 1.429 . S
C3503 H3525 0.950 . S
C3504 H3500 0.949 . S
C3504 C3512 1.574 . S
C3504 C3520 1.368 . S
H3505 C3513 0.950 . S
H3506 C3511 0.950 . S
H3507 C3512 0.949 . S
H3508 C3514 0.950 . S
H3509 C3515 0.950 . S
H3510 C3516 0.949 . S
C3511 H3506 0.950 . S
C3511 C3513 1.327 . S
C3511 C3517 1.429 . S
C3512 C3504 1.574 . S
C3512 H3507 0.949 . S
C3512 C3518 1.368 . S
C3513 C3497 1.349 . S
C3513 H3505 0.950 . S
C3513 C3511 1.327 . S
C3514 C3502 1.349 . S
C3514 H3508 0.950 . S
C3514 C3515 1.327 . S
C3515 H3509 0.950 . S
C3515 C3514 1.327 . S
C3515 C3519 1.429 . S
C3516 C3499 1.574 . S
C3516 H3510 0.949 . S
C3516 C3520 1.368 . S
C3517 C3498 1.429 . S
C3517 C3511 1.429 . S
C3517 C3518 1.523 . S
C3518 C3499 1.368 . S
C3518 C3512 1.368 . S
C3518 C3517 1.523 . S
C3519 C3503 1.429 . S
C3519 C3515 1.429 . S
C3519 C3520 1.523 . S
C3520 C3504 1.368 . S
C3520 C3516 1.368 . S
C3520 C3519 1.523 . S
H3521 C3496 0.950 . S
H3522 C3498 0.950 . S
H3523 C3499 0.949 . S
H3524 C3501 0.950 . S
H3525 C3503 0.950 . S
C3526 C3527 1.349 . S
C3526 C3528 1.327 . S
C3526 H3551 0.950 . S
C3527 C3526 1.349 . S
C3527 C3543 1.349 . S
C3528 C3526 1.327 . S
C3528 C3547 1.429 . S
C3528 H3552 0.950 . S
C3529 C3546 1.574 . S
C3529 C3548 1.368 . S
C3529 H3553 0.949 . S
H3530 C3534 0.949 . S
C3531 C3532 1.349 . S
C3531 C3533 1.327 . S
C3531 H3554 0.950 . S
C3532 C3531 1.349 . S
C3532 C3544 1.349 . S
C3533 C3531 1.327 . S
C3533 C3549 1.429 . S
C3533 H3555 0.950 . S
C3534 H3530 0.949 . S
C3534 C3542 1.574 . S
C3534 C3550 1.368 . S
H3535 C3543 0.950 . S
H3536 C3541 0.950 . S
H3537 C3542 0.949 . S
H3538 C3544 0.950 . S
H3539 C3545 0.950 . S
H3540 C3546 0.949 . S
C3541 H3536 0.950 . S
C3541 C3543 1.327 . S
C3541 C3547 1.429 . S
C3542 C3534 1.574 . S
C3542 H3537 0.949 . S
C3542 C3548 1.368 . S
C3543 C3527 1.349 . S
C3543 H3535 0.950 . S
C3543 C3541 1.327 . S
C3544 C3532 1.349 . S
C3544 H3538 0.950 . S
C3544 C3545 1.327 . S
C3545 H3539 0.950 . S
C3545 C3544 1.327 . S
C3545 C3549 1.429 . S
C3546 C3529 1.574 . S
C3546 H3540 0.949 . S
C3546 C3550 1.368 . S
C3547 C3528 1.429 . S
C3547 C3541 1.429 . S
C3547 C3548 1.523 . S
C3548 C3529 1.368 . S
C3548 C3542 1.368 . S
C3548 C3547 1.523 . S
C3549 C3533 1.429 . S
C3549 C3545 1.429 . S
C3549 C3550 1.523 . S
C3550 C3534 1.368 . S
C3550 C3546 1.368 . S
C3550 C3549 1.523 . S
H3551 C3526 0.950 . S
H3552 C3528 0.950 . S
H3553 C3529 0.949 . S
H3554 C3531 0.950 . S
H3555 C3533 0.950 . S
C3556 C3557 1.349 . S
C3556 C3558 1.327 . S
C3556 H3581 0.950 . S
C3557 C3556 1.349 . S
C3557 C3573 1.349 . S
C3558 C3556 1.327 . S
C3558 C3577 1.429 . S
C3558 H3582 0.950 . S
C3559 C3576 1.574 . S
C3559 C3578 1.368 . S
C3559 H3583 0.949 . S
H3560 C3564 0.949 . S
C3561 C3562 1.349 . S
C3561 C3563 1.327 . S
C3561 H3584 0.950 . S
C3562 C3561 1.349 . S
C3562 C3574 1.349 . S
C3563 C3561 1.327 . S
C3563 C3579 1.429 . S
C3563 H3585 0.950 . S
C3564 H3560 0.949 . S
C3564 C3572 1.574 . S
C3564 C3580 1.368 . S
H3565 C3573 0.950 . S
H3566 C3571 0.950 . S
H3567 C3572 0.949 . S
H3568 C3574 0.950 1_455 S
H3569 C3575 0.950 . S
H3570 C3576 0.949 . S
C3571 H3566 0.950 . S
C3571 C3573 1.327 . S
C3571 C3577 1.429 . S
C3572 C3564 1.574 . S
C3572 H3567 0.949 . S
C3572 C3578 1.368 . S
C3573 C3557 1.349 . S
C3573 H3565 0.950 . S
C3573 C3571 1.327 . S
C3574 C3562 1.349 . S
C3574 H3568 0.950 1_655 S
C3574 C3575 1.327 . S
C3575 H3569 0.950 . S
C3575 C3574 1.327 . S
C3575 C3579 1.429 . S
C3576 C3559 1.574 . S
C3576 H3570 0.949 . S
C3576 C3580 1.368 . S
C3577 C3558 1.429 . S
C3577 C3571 1.429 . S
C3577 C3578 1.523 . S
C3578 C3559 1.368 . S
C3578 C3572 1.368 . S
C3578 C3577 1.523 . S
C3579 C3563 1.429 . S
C3579 C3575 1.429 . S
C3579 C3580 1.523 . S
C3580 C3564 1.368 . S
C3580 C3576 1.368 . S
C3580 C3579 1.523 . S
H3581 C3556 0.950 . S
H3582 C3558 0.950 . S
H3583 C3559 0.949 . S
H3584 C3561 0.950 . S
H3585 C3563 0.950 . S
C3586 C3587 1.349 . S
C3586 C3588 1.327 . S
C3586 H3611 0.950 . S
C3587 C3586 1.349 . S
C3587 C3603 1.349 . S
C3588 C3586 1.327 . S
C3588 C3607 1.429 . S
C3588 H3612 0.950 . S
C3589 C3606 1.574 . S
C3589 C3608 1.368 . S
C3589 H3613 0.949 . S
H3590 C3594 0.949 . S
C3591 C3592 1.349 . S
C3591 C3593 1.327 . S
C3591 H3614 0.950 . S
C3592 C3591 1.349 . S
C3592 C3604 1.349 . S
C3593 C3591 1.327 . S
C3593 C3609 1.429 . S
C3593 H3615 0.950 . S
C3594 H3590 0.949 . S
C3594 C3602 1.574 . S
C3594 C3610 1.368 . S
H3595 C3603 0.950 . S
H3596 C3601 0.950 . S
H3597 C3602 0.949 . S
H3598 C3604 0.950 . S
H3599 C3605 0.950 . S
H3600 C3606 0.949 . S
C3601 H3596 0.950 . S
C3601 C3603 1.327 . S
C3601 C3607 1.429 . S
C3602 C3594 1.574 . S
C3602 H3597 0.949 . S
C3602 C3608 1.368 . S
C3603 C3587 1.349 . S
C3603 H3595 0.950 . S
C3603 C3601 1.327 . S
C3604 C3592 1.349 . S
C3604 H3598 0.950 . S
C3604 C3605 1.327 . S
C3605 H3599 0.950 . S
C3605 C3604 1.327 . S
C3605 C3609 1.429 . S
C3606 C3589 1.574 . S
C3606 H3600 0.949 . S
C3606 C3610 1.368 . S
C3607 C3588 1.429 . S
C3607 C3601 1.429 . S
C3607 C3608 1.523 . S
C3608 C3589 1.368 . S
C3608 C3602 1.368 . S
C3608 C3607 1.523 . S
C3609 C3593 1.429 . S
C3609 C3605 1.429 . S
C3609 C3610 1.523 . S
C3610 C3594 1.368 . S
C3610 C3606 1.368 . S
C3610 C3609 1.523 . S
H3611 C3586 0.950 . S
H3612 C3588 0.950 . S
H3613 C3589 0.949 . S
H3614 C3591 0.950 . S
H3615 C3593 0.950 . S
C3616 C3617 1.349 . S
C3616 C3618 1.327 . S
C3616 H3641 0.950 . S
C3617 C3616 1.349 . S
C3617 C3633 1.349 . S
C3618 C3616 1.327 . S
C3618 C3637 1.429 . S
C3618 H3642 0.950 . S
C3619 C3636 1.574 . S
C3619 C3638 1.368 . S
C3619 H3643 0.949 . S
H3620 C3624 0.949 . S
C3621 C3622 1.349 . S
C3621 C3623 1.327 . S
C3621 H3644 0.950 . S
C3622 C3621 1.349 . S
C3622 C3634 1.349 . S
C3623 C3621 1.327 . S
C3623 C3639 1.429 . S
C3623 H3645 0.950 . S
C3624 H3620 0.949 . S
C3624 C3632 1.574 . S
C3624 C3640 1.368 . S
H3625 C3633 0.950 . S
H3626 C3631 0.950 . S
H3627 C3632 0.949 . S
H3628 C3634 0.950 . S
H3629 C3635 0.950 . S
H3630 C3636 0.949 . S
C3631 H3626 0.950 . S
C3631 C3633 1.327 . S
C3631 C3637 1.429 . S
C3632 C3624 1.574 . S
C3632 H3627 0.949 . S
C3632 C3638 1.368 . S
C3633 C3617 1.349 . S
C3633 H3625 0.950 . S
C3633 C3631 1.327 . S
C3634 C3622 1.349 . S
C3634 H3628 0.950 . S
C3634 C3635 1.327 . S
C3635 H3629 0.950 . S
C3635 C3634 1.327 . S
C3635 C3639 1.429 . S
C3636 C3619 1.574 . S
C3636 H3630 0.949 . S
C3636 C3640 1.368 . S
C3637 C3618 1.429 . S
C3637 C3631 1.429 . S
C3637 C3638 1.523 . S
C3638 C3619 1.368 . S
C3638 C3632 1.368 . S
C3638 C3637 1.523 . S
C3639 C3623 1.429 . S
C3639 C3635 1.429 . S
C3639 C3640 1.523 . S
C3640 C3624 1.368 . S
C3640 C3636 1.368 . S
C3640 C3639 1.523 . S
H3641 C3616 0.950 . S
H3642 C3618 0.950 . S
H3643 C3619 0.949 . S
H3644 C3621 0.950 . S
H3645 C3623 0.950 . S
C3646 C3647 1.349 . S
C3646 C3648 1.327 . S
C3646 H3671 0.950 . S
C3647 C3646 1.349 . S
C3647 C3663 1.349 . S
C3648 C3646 1.327 . S
C3648 C3667 1.429 . S
C3648 H3672 0.950 . S
C3649 C3666 1.574 . S
C3649 C3668 1.368 . S
C3649 H3673 0.949 . S
H3650 C3654 0.949 . S
C3651 C3652 1.349 1_565 S
C3651 C3653 1.327 . S
C3651 H3674 0.950 . S
C3652 C3651 1.349 1_545 S
C3652 C3664 1.349 1_545 S
C3653 C3651 1.327 . S
C3653 C3669 1.429 . S
C3653 H3675 0.950 . S
C3654 H3650 0.949 . S
C3654 C3662 1.574 . S
C3654 C3670 1.368 . S
H3655 C3663 0.950 . S
H3656 C3661 0.950 . S
H3657 C3662 0.949 . S
H3658 C3664 0.950 1_545 S
H3659 C3665 0.950 . S
H3660 C3666 0.949 . S
C3661 H3656 0.950 . S
C3661 C3663 1.327 . S
C3661 C3667 1.429 . S
C3662 C3654 1.574 . S
C3662 H3657 0.949 . S
C3662 C3668 1.368 . S
C3663 C3647 1.349 . S
C3663 H3655 0.950 . S
C3663 C3661 1.327 . S
C3664 C3652 1.349 1_565 S
C3664 H3658 0.950 1_565 S
C3664 C3665 1.327 . S
C3665 H3659 0.950 . S
C3665 C3664 1.327 . S
C3665 C3669 1.429 . S
C3666 C3649 1.574 . S
C3666 H3660 0.949 . S
C3666 C3670 1.368 . S
C3667 C3648 1.429 . S
C3667 C3661 1.429 . S
C3667 C3668 1.523 . S
C3668 C3649 1.368 . S
C3668 C3662 1.368 . S
C3668 C3667 1.523 . S
C3669 C3653 1.429 . S
C3669 C3665 1.429 . S
C3669 C3670 1.523 . S
C3670 C3654 1.368 . S
C3670 C3666 1.368 . S
C3670 C3669 1.523 . S
H3671 C3646 0.950 . S
H3672 C3648 0.950 . S
H3673 C3649 0.949 . S
H3674 C3651 0.950 . S
H3675 C3653 0.950 . S
C3676 C3677 1.349 . S
C3676 C3678 1.327 . S
C3676 H3701 0.950 . S
C3677 C3676 1.349 . S
C3677 C3693 1.349 . S
C3678 C3676 1.327 . S
C3678 C3697 1.429 . S
C3678 H3702 0.950 . S
C3679 C3696 1.574 . S
C3679 C3698 1.368 . S
C3679 H3703 0.949 . S
H3680 C3684 0.949 . S
C3681 C3682 1.349 . S
C3681 C3683 1.327 . S
C3681 H3704 0.950 . S
C3682 C3681 1.349 . S
C3682 C3694 1.349 . S
C3683 C3681 1.327 . S
C3683 C3699 1.429 . S
C3683 H3705 0.950 . S
C3684 H3680 0.949 . S
C3684 C3692 1.574 . S
C3684 C3700 1.368 . S
H3685 C3693 0.950 . S
H3686 C3691 0.950 . S
H3687 C3692 0.949 . S
H3688 C3694 0.950 . S
H3689 C3695 0.950 . S
H3690 C3696 0.949 . S
C3691 H3686 0.950 . S
C3691 C3693 1.327 . S
C3691 C3697 1.429 . S
C3692 C3684 1.574 . S
C3692 H3687 0.949 . S
C3692 C3698 1.368 . S
C3693 C3677 1.349 . S
C3693 H3685 0.950 . S
C3693 C3691 1.327 . S
C3694 C3682 1.349 . S
C3694 H3688 0.950 . S
C3694 C3695 1.327 . S
C3695 H3689 0.950 . S
C3695 C3694 1.327 . S
C3695 C3699 1.429 . S
C3696 C3679 1.574 . S
C3696 H3690 0.949 . S
C3696 C3700 1.368 . S
C3697 C3678 1.429 . S
C3697 C3691 1.429 . S
C3697 C3698 1.523 . S
C3698 C3679 1.368 . S
C3698 C3692 1.368 . S
C3698 C3697 1.523 . S
C3699 C3683 1.429 . S
C3699 C3695 1.429 . S
C3699 C3700 1.523 . S
C3700 C3684 1.368 . S
C3700 C3696 1.368 . S
C3700 C3699 1.523 . S
H3701 C3676 0.950 . S
H3702 C3678 0.950 . S
H3703 C3679 0.949 . S
H3704 C3681 0.950 . S
H3705 C3683 0.950 . S
C3706 C3707 1.349 . S
C3706 C3708 1.327 . S
C3706 H3731 0.950 . S
C3707 C3706 1.349 . S
C3707 C3723 1.349 1_554 S
C3708 C3706 1.327 . S
C3708 C3727 1.429 . S
C3708 H3732 0.950 . S
C3709 C3726 1.574 . S
C3709 C3728 1.368 1_556 S
C3709 H3733 0.949 . S
H3710 C3714 0.949 . S
C3711 C3712 1.349 1_556 S
C3711 C3713 1.327 . S
C3711 H3734 0.950 . S
C3712 C3711 1.349 1_554 S
C3712 C3724 1.349 . S
C3713 C3711 1.327 . S
C3713 C3729 1.429 1_556 S
C3713 H3735 0.950 . S
C3714 H3710 0.949 . S
C3714 C3722 1.574 . S
C3714 C3730 1.368 . S
H3715 C3723 0.950 . S
H3716 C3721 0.950 . S
H3717 C3722 0.949 . S
H3718 C3724 0.950 . S
H3719 C3725 0.950 . S
H3720 C3726 0.949 . S
C3721 H3716 0.950 . S
C3721 C3723 1.327 . S
C3721 C3727 1.429 1_556 S
C3722 C3714 1.574 . S
C3722 H3717 0.949 . S
C3722 C3728 1.368 . S
C3723 C3707 1.349 1_556 S
C3723 H3715 0.950 . S
C3723 C3721 1.327 . S
C3724 C3712 1.349 . S
C3724 H3718 0.950 . S
C3724 C3725 1.327 . S
C3725 H3719 0.950 . S
C3725 C3724 1.327 . S
C3725 C3729 1.429 . S
C3726 C3709 1.574 . S
C3726 H3720 0.949 . S
C3726 C3730 1.368 1_556 S
C3727 C3708 1.429 . S
C3727 C3721 1.429 1_554 S
C3727 C3728 1.523 . S
C3728 C3709 1.368 1_554 S
C3728 C3722 1.368 . S
C3728 C3727 1.523 . S
C3729 C3713 1.429 1_554 S
C3729 C3725 1.429 . S
C3729 C3730 1.523 . S
C3730 C3714 1.368 . S
C3730 C3726 1.368 1_554 S
C3730 C3729 1.523 . S
H3731 C3706 0.950 . S
H3732 C3708 0.950 . S
H3733 C3709 0.949 . S
H3734 C3711 0.950 . S
H3735 C3713 0.950 . S
C3736 C3737 1.349 . S
C3736 C3738 1.327 . S
C3736 H3761 0.950 . S
C3737 C3736 1.349 . S
C3737 C3753 1.349 . S
C3738 C3736 1.327 . S
C3738 C3757 1.429 . S
C3738 H3762 0.950 . S
C3739 C3756 1.574 . S
C3739 C3758 1.368 . S
C3739 H3763 0.949 . S
H3740 C3744 0.949 . S
C3741 C3742 1.349 . S
C3741 C3743 1.327 . S
C3741 H3764 0.950 . S
C3742 C3741 1.349 . S
C3742 C3754 1.349 . S
C3743 C3741 1.327 . S
C3743 C3759 1.429 . S
C3743 H3765 0.950 . S
C3744 H3740 0.949 . S
C3744 C3752 1.574 . S
C3744 C3760 1.368 . S
H3745 C3753 0.950 . S
H3746 C3751 0.950 . S
H3747 C3752 0.949 . S
H3748 C3754 0.950 . S
H3749 C3755 0.950 . S
H3750 C3756 0.949 . S
C3751 H3746 0.950 . S
C3751 C3753 1.327 . S
C3751 C3757 1.429 . S
C3752 C3744 1.574 . S
C3752 H3747 0.949 . S
C3752 C3758 1.368 . S
C3753 C3737 1.349 . S
C3753 H3745 0.950 . S
C3753 C3751 1.327 . S
C3754 C3742 1.349 . S
C3754 H3748 0.950 . S
C3754 C3755 1.327 . S
C3755 H3749 0.950 . S
C3755 C3754 1.327 . S
C3755 C3759 1.429 . S
C3756 C3739 1.574 . S
C3756 H3750 0.949 . S
C3756 C3760 1.368 . S
C3757 C3738 1.429 . S
C3757 C3751 1.429 . S
C3757 C3758 1.523 . S
C3758 C3739 1.368 . S
C3758 C3752 1.368 . S
C3758 C3757 1.523 . S
C3759 C3743 1.429 . S
C3759 C3755 1.429 . S
C3759 C3760 1.523 . S
C3760 C3744 1.368 . S
C3760 C3756 1.368 . S
C3760 C3759 1.523 . S
H3761 C3736 0.950 . S
H3762 C3738 0.950 . S
H3763 C3739 0.949 . S
H3764 C3741 0.950 . S
H3765 C3743 0.950 . S
C3766 C3767 1.349 . S
C3766 C3768 1.327 . S
C3766 H3791 0.950 . S
C3767 C3766 1.349 . S
C3767 C3783 1.349 1_554 S
C3768 C3766 1.327 . S
C3768 C3787 1.429 . S
C3768 H3792 0.950 . S
C3769 C3786 1.574 . S
C3769 C3788 1.368 1_556 S
C3769 H3793 0.949 . S
H3770 C3774 0.949 . S
C3771 C3772 1.349 . S
C3771 C3773 1.327 . S
C3771 H3794 0.950 . S
C3772 C3771 1.349 . S
C3772 C3784 1.349 1_556 S
C3773 C3771 1.327 . S
C3773 C3789 1.429 . S
C3773 H3795 0.950 . S
C3774 H3770 0.949 . S
C3774 C3782 1.574 . S
C3774 C3790 1.368 1_554 S
H3775 C3783 0.950 . S
H3776 C3781 0.950 . S
H3777 C3782 0.949 . S
H3778 C3784 0.950 . S
H3779 C3785 0.950 . S
H3780 C3786 0.949 . S
C3781 H3776 0.950 . S
C3781 C3783 1.327 . S
C3781 C3787 1.429 1_556 S
C3782 C3774 1.574 . S
C3782 H3777 0.949 . S
C3782 C3788 1.368 . S
C3783 C3767 1.349 1_556 S
C3783 H3775 0.950 . S
C3783 C3781 1.327 . S
C3784 C3772 1.349 1_554 S
C3784 H3778 0.950 . S
C3784 C3785 1.327 . S
C3785 H3779 0.950 . S
C3785 C3784 1.327 . S
C3785 C3789 1.429 1_554 S
C3786 C3769 1.574 . S
C3786 H3780 0.949 . S
C3786 C3790 1.368 . S
C3787 C3768 1.429 . S
C3787 C3781 1.429 1_554 S
C3787 C3788 1.523 . S
C3788 C3769 1.368 1_554 S
C3788 C3782 1.368 . S
C3788 C3787 1.523 . S
C3789 C3773 1.429 . S
C3789 C3785 1.429 1_556 S
C3789 C3790 1.523 . S
C3790 C3774 1.368 1_556 S
C3790 C3786 1.368 . S
C3790 C3789 1.523 . S
H3791 C3766 0.950 . S
H3792 C3768 0.950 . S
H3793 C3769 0.949 . S
H3794 C3771 0.950 . S
H3795 C3773 0.950 . S
C3796 C3797 1.349 . S
C3796 C3798 1.327 . S
C3796 H3821 0.950 . S
C3797 C3796 1.349 . S
C3797 C3813 1.349 . S
C3798 C3796 1.327 . S
C3798 C3817 1.429 . S
C3798 H3822 0.950 . S
C3799 C3816 1.574 . S
C3799 C3818 1.368 . S
C3799 H3823 0.949 . S
H3800 C3804 0.949 . S
C3801 C3802 1.349 . S
C3801 C3803 1.327 . S
C3801 H3824 0.950 . S
C3802 C3801 1.349 . S
C3802 C3814 1.349 . S
C3803 C3801 1.327 . S
C3803 C3819 1.429 . S
C3803 H3825 0.950 . S
C3804 H3800 0.949 . S
C3804 C3812 1.574 . S
C3804 C3820 1.368 . S
H3805 C3813 0.950 . S
H3806 C3811 0.950 . S
H3807 C3812 0.949 . S
H3808 C3814 0.950 . S
H3809 C3815 0.950 . S
H3810 C3816 0.949 . S
C3811 H3806 0.950 . S
C3811 C3813 1.327 . S
C3811 C3817 1.429 . S
C3812 C3804 1.574 . S
C3812 H3807 0.949 . S
C3812 C3818 1.368 . S
C3813 C3797 1.349 . S
C3813 H3805 0.950 . S
C3813 C3811 1.327 . S
C3814 C3802 1.349 . S
C3814 H3808 0.950 . S
C3814 C3815 1.327 . S
C3815 H3809 0.950 . S
C3815 C3814 1.327 . S
C3815 C3819 1.429 . S
C3816 C3799 1.574 . S
C3816 H3810 0.949 . S
C3816 C3820 1.368 . S
C3817 C3798 1.429 . S
C3817 C3811 1.429 . S
C3817 C3818 1.523 . S
C3818 C3799 1.368 . S
C3818 C3812 1.368 . S
C3818 C3817 1.523 . S
C3819 C3803 1.429 . S
C3819 C3815 1.429 . S
C3819 C3820 1.523 . S
C3820 C3804 1.368 . S
C3820 C3816 1.368 . S
C3820 C3819 1.523 . S
H3821 C3796 0.950 . S
H3822 C3798 0.950 . S
H3823 C3799 0.949 . S
H3824 C3801 0.950 . S
H3825 C3803 0.950 . S
C3826 C3827 1.349 . S
C3826 C3828 1.327 . S
C3826 H3851 0.950 . S
C3827 C3826 1.349 . S
C3827 C3843 1.349 . S
C3828 C3826 1.327 . S
C3828 C3847 1.429 . S
C3828 H3852 0.950 . S
C3829 C3846 1.574 . S
C3829 C3848 1.368 . S
C3829 H3853 0.949 . S
H3830 C3834 0.949 . S
C3831 C3832 1.349 . S
C3831 C3833 1.327 . S
C3831 H3854 0.950 . S
C3832 C3831 1.349 . S
C3832 C3844 1.349 . S
C3833 C3831 1.327 . S
C3833 C3849 1.429 . S
C3833 H3855 0.950 . S
C3834 H3830 0.949 . S
C3834 C3842 1.574 . S
C3834 C3850 1.368 . S
H3835 C3843 0.950 . S
H3836 C3841 0.950 . S
H3837 C3842 0.949 . S
H3838 C3844 0.950 . S
H3839 C3845 0.950 . S
H3840 C3846 0.949 . S
C3841 H3836 0.950 . S
C3841 C3843 1.327 . S
C3841 C3847 1.429 . S
C3842 C3834 1.574 . S
C3842 H3837 0.949 . S
C3842 C3848 1.368 . S
C3843 C3827 1.349 . S
C3843 H3835 0.950 . S
C3843 C3841 1.327 . S
C3844 C3832 1.349 . S
C3844 H3838 0.950 . S
C3844 C3845 1.327 . S
C3845 H3839 0.950 . S
C3845 C3844 1.327 . S
C3845 C3849 1.429 . S
C3846 C3829 1.574 . S
C3846 H3840 0.949 . S
C3846 C3850 1.368 . S
C3847 C3828 1.429 . S
C3847 C3841 1.429 . S
C3847 C3848 1.523 . S
C3848 C3829 1.368 . S
C3848 C3842 1.368 . S
C3848 C3847 1.523 . S
C3849 C3833 1.429 . S
C3849 C3845 1.429 . S
C3849 C3850 1.523 . S
C3850 C3834 1.368 . S
C3850 C3846 1.368 . S
C3850 C3849 1.523 . S
H3851 C3826 0.950 . S
H3852 C3828 0.950 . S
H3853 C3829 0.949 . S
H3854 C3831 0.950 . S
H3855 C3833 0.950 . S
C977 C109 2.120 . S
C982 C338 2.099 1_556 S
C1007 C65 2.094 . S
C1012 C395 2.088 . S
C1037 C75 1.070 . S
C1042 C418 1.056 . S
C1072 C472 1.450 . S
C1067 C84 1.455 . S
C1097 C25 1.228 . S
C1102 C512 1.208 . S
C1132 C543 0.329 . S
C1127 C28 0.308 . S
C1162 C595 1.155 . S
C1157 C47 1.139 . S
C1187 C9 1.717 . S
C1192 C618 1.679 . S
C1222 C355 2.483 . S
C1217 C233 2.500 . S
C1247 C249 0.299 . S
C1252 C392 0.388 . S
C1282 C435 1.376 . S
C1277 C275 1.388 . S
C1312 C458 1.211 . S
C1307 C173 1.221 . S
C1337 C224 1.812 . S
C1342 C498 1.826 . S
C1372 C546 1.442 . S
C1367 C243 1.470 . S
C1402 C592 0.303 . S
C1397 C266 0.196 . S
C1432 C635 1.881 . S
C1427 C179 1.899 . S
C1462 C352 1.453 1_565 S
C1457 C163 1.495 . S
C1487 C289 2.010 . S
C1492 C675 2.001 . S
C1522 C707 2.544 . S
C1517 C333 2.567 . S
C1552 C738 0.456 1_655 S
C1547 C308 0.455 . S
C1577 C123 1.286 . S
C1582 C632 1.266 . S
C1607 C126 1.542 . S
C1612 C432 1.539 . S
C1637 C327 2.361 . S
C1642 C795 2.340 . S
C1672 C818 0.553 . S
C1667 C299 0.525 . S
C1702 C347 2.112 . S
C1697 C67 2.141 . S
C1732 C826 2.127 . S
C1727 C98 2.093 . S
C1757 C89 1.110 . S
C1762 C427 1.097 . S
C1787 C79 1.516 . S
C1792 C783 1.498 . S
C1822 C503 1.211 . S
C1817 C11 1.237 . S
C1847 C51 0.322 . S
C1852 C712 0.350 . S
C1882 C586 1.238 . S
C1877 C33 1.216 . S
C1912 C867 1.670 . S
C1907 C14 1.724 . S
C1942 C346 2.470 . S
C1937 C140 2.478 . S
C1972 C823 0.378 . S
C1967 C319 0.272 . S
C1997 C112 1.401 . S
C2002 C426 1.399 . S
C2027 C285 1.252 . S
C2032 C787 1.244 . S
C2057 C149 1.871 . S
C2062 C507 1.852 . S
C2092 C715 1.482 . S
C2087 C313 1.512 . S
C2117 C121 0.180 . S
C2122 C583 0.307 . S
C2147 C291 1.940 . S
C2152 C866 1.918 . S
C2177 C182 1.502 . S
C2182 C343 1.465 . S
C2207 C168 2.010 . S
C2212 C666 2.027 . S
C2237 C263 2.621 . S
C2242 C538 2.599 . S
C2267 C247 0.527 . S
C2272 C747 0.532 . S
C2302 C863 1.250 . S
C2297 C277 1.304 . S
C2327 C219 1.591 . S
C2332 C423 1.560 . S
C2362 C466 2.389 . S
C2357 C257 2.411 . S
C2392 C387 0.559 . S
C2387 C201 0.536 . S
C2417 C81 2.120 . S
C2422 C898 2.099 . S
C2452 C835 2.088 . S
C2447 C93 2.094 . S
C2477 C103 1.070 . S
C2482 C938 1.056 . S
C2507 C56 1.455 . S
C2512 C792 1.450 . S
C2537 C53 1.227 . S
C2542 C672 1.207 . S
C2572 C703 0.329 . S
C2567 C0 0.308 . S
C2602 C755 1.156 . S
C2597 C19 1.138 . S
C2632 C858 1.679 . S
C2627 C37 1.717 . S
C2662 C915 2.484 . S
C2657 C261 2.501 . S
C2687 C193 0.299 . S
C2692 C832 0.388 . S
C2722 C955 1.376 . S
C2717 C205 1.388 . S
C2752 C778 1.212 . S
C2747 C215 1.222 . S
C2782 C658 1.826 . S
C2777 C252 1.812 . S
C2807 C187 1.470 . S
C2812 C706 1.442 . S
C2842 C752 0.303 . S
C2837 C196 0.196 . S
C2867 C221 1.899 . S
C2872 C875 1.880 . S
C2902 C912 1.473 . S
C2897 C317 1.495 . S
C2927 C135 2.009 . S
C2932 C515 2.000 . S
C2962 C547 2.544 . S
C2957 C151 2.575 . S
C2992 C578 0.456 . S
C2987 C154 0.454 . S
C3022 C872 1.266 . S
C3017 C305 1.286 . S
C3047 C280 1.542 . S
C3052 C952 1.539 . S
C3082 C475 2.339 . S
C3077 C145 2.353 . S
C3112 C378 0.553 . S
C3107 C117 0.526 . S
C3137 C95 2.141 . S
C3142 C907 2.112 . S
C3172 C386 2.127 . S
C3167 C70 2.093 . S
C3197 C61 1.109 . S
C3202 C947 1.096 . S
C3227 C107 1.516 . S
C3232 C463 1.499 . S
C3257 C39 1.237 . S
C3262 C663 1.211 . S
C3292 C552 0.350 . S
C3287 C23 0.316 . S
C3317 C5 1.216 . S
C3322 C746 1.231 . S
C3347 C42 1.717 . S
C3352 C627 1.670 . S
C3382 C906 2.470 . S
C3377 C322 2.478 . S
C3407 C165 0.272 . S
C3412 C383 0.378 . S
C3442 C946 1.399 . S
C3437 C294 1.401 . S
C3467 C131 1.253 . S
C3472 C467 1.244 . S
C3497 C331 1.871 . S
C3502 C667 1.856 . S
C3532 C555 1.482 . S
C3527 C159 1.512 . S
C3557 C303 0.180 . S
C3562 C743 0.307 . S
C3592 C626 1.918 . S
C3587 C137 1.940 . S
C3622 C903 1.465 . S
C3617 C238 1.503 . S
C3652 C506 2.028 1_655 S
C3647 C210 2.010 . S
C3677 C235 2.621 . S
C3682 C698 2.598 . S
C3712 C587 0.532 . S
C3707 C191 0.527 . S
C3737 C207 1.278 . S
C3742 C623 1.250 . S
C3767 C177 1.591 . S
C3772 C943 1.560 . S
C3802 C786 2.390 . S
C3797 C229 2.412 1_565 S
C3832 C827 0.559 . S
C3827 C271 0.536 . S
