# Generated by pormake.
# Topology gar, (4,6)-cn, num edge types: 1
# Building blocks:
#     Node 0, Type 0, BuildingBlock: QUQFOY_clean_sbu_3, # of connection points: 4
#     Node 1, Type 0, BuildingBlock: QUQFOY_clean_sbu_3, # of connection points: 4
#     Node 2, Type 0, BuildingBlock: QUQFOY_clean_sbu_3, # of connection points: 4
#     Node 3, Type 0, BuildingBlock: QUQFOY_clean_sbu_3, # of connection points: 4
#     Node 4, Type 0, BuildingBlock: QUQFOY_clean_sbu_3, # of connection points: 4
#     Node 5, Type 0, BuildingBlock: QUQFOY_clean_sbu_3, # of connection points: 4
#     Node 6, Type 0, BuildingBlock: QUQFOY_clean_sbu_3, # of connection points: 4
#     Node 7, Type 0, BuildingBlock: QUQFOY_clean_sbu_3, # of connection points: 4
#     Node 8, Type 0, BuildingBlock: QUQFOY_clean_sbu_3, # of connection points: 4
#     Node 9, Type 0, BuildingBlock: QUQFOY_clean_sbu_3, # of connection points: 4
#     Node 10, Type 0, BuildingBlock: QUQFOY_clean_sbu_3, # of connection points: 4
#     Node 11, Type 0, BuildingBlock: QUQFOY_clean_sbu_3, # of connection points: 4
#     Node 12, Type 0, BuildingBlock: QUQFOY_clean_sbu_3, # of connection points: 4
#     Node 13, Type 0, BuildingBlock: QUQFOY_clean_sbu_3, # of connection points: 4
#     Node 14, Type 0, BuildingBlock: QUQFOY_clean_sbu_3, # of connection points: 4
#     Node 15, Type 0, BuildingBlock: QUQFOY_clean_sbu_3, # of connection points: 4
#     Node 16, Type 0, BuildingBlock: QUQFOY_clean_sbu_3, # of connection points: 4
#     Node 17, Type 0, BuildingBlock: QUQFOY_clean_sbu_3, # of connection points: 4
#     Node 18, Type 0, BuildingBlock: QUQFOY_clean_sbu_3, # of connection points: 4
#     Node 19, Type 0, BuildingBlock: QUQFOY_clean_sbu_3, # of connection points: 4
#     Node 20, Type 0, BuildingBlock: QUQFOY_clean_sbu_3, # of connection points: 4
#     Node 21, Type 0, BuildingBlock: QUQFOY_clean_sbu_3, # of connection points: 4
#     Node 22, Type 0, BuildingBlock: QUQFOY_clean_sbu_3, # of connection points: 4
#     Node 23, Type 0, BuildingBlock: QUQFOY_clean_sbu_3, # of connection points: 4
#     Node 24, Type 1, BuildingBlock: HISSIN_clean_sbu_0, # of connection points: 6
#     Node 25, Type 1, BuildingBlock: HISSIN_clean_sbu_0, # of connection points: 6
#     Node 26, Type 1, BuildingBlock: HISSIN_clean_sbu_0, # of connection points: 6
#     Node 27, Type 1, BuildingBlock: HISSIN_clean_sbu_0, # of connection points: 6
#     Node 28, Type 1, BuildingBlock: HISSIN_clean_sbu_0, # of connection points: 6
#     Node 29, Type 1, BuildingBlock: HISSIN_clean_sbu_0, # of connection points: 6
#     Node 30, Type 1, BuildingBlock: HISSIN_clean_sbu_0, # of connection points: 6
#     Node 31, Type 1, BuildingBlock: HISSIN_clean_sbu_0, # of connection points: 6
#     Node 32, Type 1, BuildingBlock: HISSIN_clean_sbu_0, # of connection points: 6
#     Node 33, Type 1, BuildingBlock: HISSIN_clean_sbu_0, # of connection points: 6
#     Node 34, Type 1, BuildingBlock: HISSIN_clean_sbu_0, # of connection points: 6
#     Node 35, Type 1, BuildingBlock: HISSIN_clean_sbu_0, # of connection points: 6
#     Node 36, Type 1, BuildingBlock: HISSIN_clean_sbu_0, # of connection points: 6
#     Node 37, Type 1, BuildingBlock: HISSIN_clean_sbu_0, # of connection points: 6
#     Node 38, Type 1, BuildingBlock: HISSIN_clean_sbu_0, # of connection points: 6
#     Node 39, Type 1, BuildingBlock: HISSIN_clean_sbu_0, # of connection points: 6
#     Edge 40, Type (0, 1), BuildingBlock: TEMPAE_clean_linker_10, # of connection points: 2
#     Edge 41, Type (0, 1), BuildingBlock: TEMPAE_clean_linker_10, # of connection points: 2
#     Edge 42, Type (0, 1), BuildingBlock: TEMPAE_clean_linker_10, # of connection points: 2
#     Edge 43, Type (0, 1), BuildingBlock: TEMPAE_clean_linker_10, # of connection points: 2
#     Edge 44, Type (0, 1), BuildingBlock: TEMPAE_clean_linker_10, # of connection points: 2
#     Edge 45, Type (0, 1), BuildingBlock: TEMPAE_clean_linker_10, # of connection points: 2
#     Edge 46, Type (0, 1), BuildingBlock: TEMPAE_clean_linker_10, # of connection points: 2
#     Edge 47, Type (0, 1), BuildingBlock: TEMPAE_clean_linker_10, # of connection points: 2
#     Edge 48, Type (0, 1), BuildingBlock: TEMPAE_clean_linker_10, # of connection points: 2
#     Edge 49, Type (0, 1), BuildingBlock: TEMPAE_clean_linker_10, # of connection points: 2
#     Edge 50, Type (0, 1), BuildingBlock: TEMPAE_clean_linker_10, # of connection points: 2
#     Edge 51, Type (0, 1), BuildingBlock: TEMPAE_clean_linker_10, # of connection points: 2
#     Edge 52, Type (0, 1), BuildingBlock: TEMPAE_clean_linker_10, # of connection points: 2
#     Edge 53, Type (0, 1), BuildingBlock: TEMPAE_clean_linker_10, # of connection points: 2
#     Edge 54, Type (0, 1), BuildingBlock: TEMPAE_clean_linker_10, # of connection points: 2
#     Edge 55, Type (0, 1), BuildingBlock: TEMPAE_clean_linker_10, # of connection points: 2
#     Edge 56, Type (0, 1), BuildingBlock: TEMPAE_clean_linker_10, # of connection points: 2
#     Edge 57, Type (0, 1), BuildingBlock: TEMPAE_clean_linker_10, # of connection points: 2
#     Edge 58, Type (0, 1), BuildingBlock: TEMPAE_clean_linker_10, # of connection points: 2
#     Edge 59, Type (0, 1), BuildingBlock: TEMPAE_clean_linker_10, # of connection points: 2
#     Edge 60, Type (0, 1), BuildingBlock: TEMPAE_clean_linker_10, # of connection points: 2
#     Edge 61, Type (0, 1), BuildingBlock: TEMPAE_clean_linker_10, # of connection points: 2
#     Edge 62, Type (0, 1), BuildingBlock: TEMPAE_clean_linker_10, # of connection points: 2
#     Edge 63, Type (0, 1), BuildingBlock: TEMPAE_clean_linker_10, # of connection points: 2
#     Edge 64, Type (0, 1), BuildingBlock: TEMPAE_clean_linker_10, # of connection points: 2
#     Edge 65, Type (0, 1), BuildingBlock: TEMPAE_clean_linker_10, # of connection points: 2
#     Edge 66, Type (0, 1), BuildingBlock: TEMPAE_clean_linker_10, # of connection points: 2
#     Edge 67, Type (0, 1), BuildingBlock: TEMPAE_clean_linker_10, # of connection points: 2
#     Edge 68, Type (0, 1), BuildingBlock: TEMPAE_clean_linker_10, # of connection points: 2
#     Edge 69, Type (0, 1), BuildingBlock: TEMPAE_clean_linker_10, # of connection points: 2
#     Edge 70, Type (0, 1), BuildingBlock: TEMPAE_clean_linker_10, # of connection points: 2
#     Edge 71, Type (0, 1), BuildingBlock: TEMPAE_clean_linker_10, # of connection points: 2
#     Edge 72, Type (0, 1), BuildingBlock: TEMPAE_clean_linker_10, # of connection points: 2
#     Edge 73, Type (0, 1), BuildingBlock: TEMPAE_clean_linker_10, # of connection points: 2
#     Edge 74, Type (0, 1), BuildingBlock: TEMPAE_clean_linker_10, # of connection points: 2
#     Edge 75, Type (0, 1), BuildingBlock: TEMPAE_clean_linker_10, # of connection points: 2
#     Edge 76, Type (0, 1), BuildingBlock: TEMPAE_clean_linker_10, # of connection points: 2
#     Edge 77, Type (0, 1), BuildingBlock: TEMPAE_clean_linker_10, # of connection points: 2
#     Edge 78, Type (0, 1), BuildingBlock: TEMPAE_clean_linker_10, # of connection points: 2
#     Edge 79, Type (0, 1), BuildingBlock: TEMPAE_clean_linker_10, # of connection points: 2
#     Edge 80, Type (0, 1), BuildingBlock: TEMPAE_clean_linker_10, # of connection points: 2
#     Edge 81, Type (0, 1), BuildingBlock: TEMPAE_clean_linker_10, # of connection points: 2
#     Edge 82, Type (0, 1), BuildingBlock: TEMPAE_clean_linker_10, # of connection points: 2
#     Edge 83, Type (0, 1), BuildingBlock: TEMPAE_clean_linker_10, # of connection points: 2
#     Edge 84, Type (0, 1), BuildingBlock: TEMPAE_clean_linker_10, # of connection points: 2
#     Edge 85, Type (0, 1), BuildingBlock: TEMPAE_clean_linker_10, # of connection points: 2
#     Edge 86, Type (0, 1), BuildingBlock: TEMPAE_clean_linker_10, # of connection points: 2
#     Edge 87, Type (0, 1), BuildingBlock: TEMPAE_clean_linker_10, # of connection points: 2
#     Edge 88, Type (0, 1), BuildingBlock: TEMPAE_clean_linker_10, # of connection points: 2
#     Edge 89, Type (0, 1), BuildingBlock: TEMPAE_clean_linker_10, # of connection points: 2
#     Edge 90, Type (0, 1), BuildingBlock: TEMPAE_clean_linker_10, # of connection points: 2
#     Edge 91, Type (0, 1), BuildingBlock: TEMPAE_clean_linker_10, # of connection points: 2
#     Edge 92, Type (0, 1), BuildingBlock: TEMPAE_clean_linker_10, # of connection points: 2
#     Edge 93, Type (0, 1), BuildingBlock: TEMPAE_clean_linker_10, # of connection points: 2
#     Edge 94, Type (0, 1), BuildingBlock: TEMPAE_clean_linker_10, # of connection points: 2
#     Edge 95, Type (0, 1), BuildingBlock: TEMPAE_clean_linker_10, # of connection points: 2
#     Edge 96, Type (0, 1), BuildingBlock: TEMPAE_clean_linker_10, # of connection points: 2
#     Edge 97, Type (0, 1), BuildingBlock: TEMPAE_clean_linker_10, # of connection points: 2
#     Edge 98, Type (0, 1), BuildingBlock: TEMPAE_clean_linker_10, # of connection points: 2
#     Edge 99, Type (0, 1), BuildingBlock: TEMPAE_clean_linker_10, # of connection points: 2
#     Edge 100, Type (0, 1), BuildingBlock: TEMPAE_clean_linker_10, # of connection points: 2
#     Edge 101, Type (0, 1), BuildingBlock: TEMPAE_clean_linker_10, # of connection points: 2
#     Edge 102, Type (0, 1), BuildingBlock: TEMPAE_clean_linker_10, # of connection points: 2
#     Edge 103, Type (0, 1), BuildingBlock: TEMPAE_clean_linker_10, # of connection points: 2
#     Edge 104, Type (0, 1), BuildingBlock: TEMPAE_clean_linker_10, # of connection points: 2
#     Edge 105, Type (0, 1), BuildingBlock: TEMPAE_clean_linker_10, # of connection points: 2
#     Edge 106, Type (0, 1), BuildingBlock: TEMPAE_clean_linker_10, # of connection points: 2
#     Edge 107, Type (0, 1), BuildingBlock: TEMPAE_clean_linker_10, # of connection points: 2
#     Edge 108, Type (0, 1), BuildingBlock: TEMPAE_clean_linker_10, # of connection points: 2
#     Edge 109, Type (0, 1), BuildingBlock: TEMPAE_clean_linker_10, # of connection points: 2
#     Edge 110, Type (0, 1), BuildingBlock: TEMPAE_clean_linker_10, # of connection points: 2
#     Edge 111, Type (0, 1), BuildingBlock: TEMPAE_clean_linker_10, # of connection points: 2
#     Edge 112, Type (0, 1), BuildingBlock: TEMPAE_clean_linker_10, # of connection points: 2
#     Edge 113, Type (0, 1), BuildingBlock: TEMPAE_clean_linker_10, # of connection points: 2
#     Edge 114, Type (0, 1), BuildingBlock: TEMPAE_clean_linker_10, # of connection points: 2
#     Edge 115, Type (0, 1), BuildingBlock: TEMPAE_clean_linker_10, # of connection points: 2
#     Edge 116, Type (0, 1), BuildingBlock: TEMPAE_clean_linker_10, # of connection points: 2
#     Edge 117, Type (0, 1), BuildingBlock: TEMPAE_clean_linker_10, # of connection points: 2
#     Edge 118, Type (0, 1), BuildingBlock: TEMPAE_clean_linker_10, # of connection points: 2
#     Edge 119, Type (0, 1), BuildingBlock: TEMPAE_clean_linker_10, # of connection points: 2
#     Edge 120, Type (0, 1), BuildingBlock: TEMPAE_clean_linker_10, # of connection points: 2
#     Edge 121, Type (0, 1), BuildingBlock: TEMPAE_clean_linker_10, # of connection points: 2
#     Edge 122, Type (0, 1), BuildingBlock: TEMPAE_clean_linker_10, # of connection points: 2
#     Edge 123, Type (0, 1), BuildingBlock: TEMPAE_clean_linker_10, # of connection points: 2
#     Edge 124, Type (0, 1), BuildingBlock: TEMPAE_clean_linker_10, # of connection points: 2
#     Edge 125, Type (0, 1), BuildingBlock: TEMPAE_clean_linker_10, # of connection points: 2
#     Edge 126, Type (0, 1), BuildingBlock: TEMPAE_clean_linker_10, # of connection points: 2
#     Edge 127, Type (0, 1), BuildingBlock: TEMPAE_clean_linker_10, # of connection points: 2
#     Edge 128, Type (0, 1), BuildingBlock: TEMPAE_clean_linker_10, # of connection points: 2
#     Edge 129, Type (0, 1), BuildingBlock: TEMPAE_clean_linker_10, # of connection points: 2
#     Edge 130, Type (0, 1), BuildingBlock: TEMPAE_clean_linker_10, # of connection points: 2
#     Edge 131, Type (0, 1), BuildingBlock: TEMPAE_clean_linker_10, # of connection points: 2
#     Edge 132, Type (0, 1), BuildingBlock: TEMPAE_clean_linker_10, # of connection points: 2
#     Edge 133, Type (0, 1), BuildingBlock: TEMPAE_clean_linker_10, # of connection points: 2
#     Edge 134, Type (0, 1), BuildingBlock: TEMPAE_clean_linker_10, # of connection points: 2
#     Edge 135, Type (0, 1), BuildingBlock: TEMPAE_clean_linker_10, # of connection points: 2
# Relax obj value: 0.174
# Max RMSD: 0.294
# Mean RMSD: 0.137
data_MOF--net-gar--node1-QUQFOY_clean_sbu_3--node2-HISSIN_clean_sbu_0--edge1-TEMPAE_clean_linker_10
_symmetry_space_group_name_H-M    P1
_symmetry_Int_Tables_number       1
_symmetry_cell_setting            triclinic
loop_
_symmetry_equiv_pos_as_xyz
'x, y, z'
_cell_length_a     61.151318
_cell_length_b     61.925385
_cell_length_c     59.955303
_cell_angle_alpha  100.69733
_cell_angle_beta   93.189056
_cell_angle_gamma 100.68366
loop_
_atom_site_label
_atom_site_type_symbol
_atom_site_fract_x
_atom_site_fract_y
_atom_site_fract_z
_atom_type_partial_charge
C0 C 0.06675 0.30265 0.3372 0.0
O1 O 0.08452 0.31423 0.33215 0.0
Cd2 Cd 0.1197 0.32421 0.35301 0.0
O3 O 0.06622 0.2951 0.35571 0.0
Cd4 Cd 0.09368 0.29559 0.38868 0.0
C5 C 0.10251 0.35312 0.40091 0.0
O6 O 0.11753 0.2878 0.36111 0.0
O7 O 0.13442 0.29154 0.3941 0.0
O8 O 0.07114 0.26054 0.39512 0.0
C9 C 0.13481 0.28658 0.37265 0.0
O10 O 0.11383 0.35427 0.38382 0.0
C11 C 0.07369 0.2665 0.41674 0.0
O12 O 0.09386 0.33424 0.40524 0.0
O13 O 0.08533 0.28585 0.42495 0.0
C14 C 0.97641 0.75778 0.67189 0.0
O15 O 0.99341 0.75397 0.68246 0.0
Cd16 Cd 0.02995 0.75558 0.6706 0.0
O17 O 0.97745 0.76294 0.65225 0.0
Cd18 Cd 0.00643 0.76768 0.6248 0.0
C19 C 0.0163 0.7151 0.62128 0.0
O20 O 0.0363 0.78699 0.65306 0.0
O21 O 0.04684 0.77525 0.6203 0.0
O22 O 0.99529 0.80051 0.61482 0.0
C23 C 0.05224 0.78576 0.64067 0.0
O24 O 0.02672 0.72224 0.64105 0.0
C25 C 0.99378 0.79353 0.59339 0.0
O26 O 0.0057 0.72749 0.61188 0.0
O27 O 0.99639 0.77357 0.58647 0.0
C28 C 0.57518 0.79789 0.83696 0.0
O29 O 0.59184 0.80931 0.82986 0.0
Cd30 Cd 0.62555 0.82787 0.85203 0.0
O31 O 0.5761 0.79433 0.8573 0.0
Cd32 Cd 0.6043 0.80294 0.89142 0.0
C33 C 0.6015 0.85771 0.89504 0.0
O34 O 0.63564 0.79967 0.8701 0.0
O35 O 0.64494 0.81661 0.90481 0.0
O36 O 0.59156 0.76523 0.89884 0.0
C37 C 0.65107 0.80839 0.88578 0.0
O38 O 0.61379 0.85801 0.87856 0.0
C39 C 0.59032 0.77172 0.92004 0.0
O40 O 0.59493 0.83966 0.90215 0.0
O41 O 0.59535 0.79272 0.92782 0.0
C42 C 0.4722 0.25548 0.17216 0.0
O43 O 0.48944 0.25335 0.1837 0.0
Cd44 Cd 0.5268 0.258 0.17455 0.0
O45 O 0.47352 0.26085 0.15261 0.0
Cd46 Cd 0.50431 0.26841 0.12737 0.0
C47 C 0.51645 0.21672 0.1259 0.0
O48 O 0.53093 0.28996 0.15782 0.0
O49 O 0.54532 0.27985 0.12686 0.0
O50 O 0.48993 0.2988 0.11474 0.0
C51 C 0.54823 0.29069 0.14726 0.0
O52 O 0.526 0.22441 0.14597 0.0
C53 C 0.49228 0.29238 0.09378 0.0
O54 O 0.50603 0.22862 0.11559 0.0
O55 O 0.49831 0.2737 0.08822 0.0
C56 C 0.06528 0.78633 0.16153 0.0
O57 O 0.08016 0.78146 0.1743 0.0
Cd58 Cd 0.11847 0.78317 0.16772 0.0
O59 O 0.0701 0.79287 0.14311 0.0
Cd60 Cd 0.10413 0.79944 0.12227 0.0
C61 C 0.11092 0.74549 0.11741 0.0
O62 O 0.12867 0.81812 0.15563 0.0
O63 O 0.14557 0.8098 0.12578 0.0
O64 O 0.09311 0.82994 0.10678 0.0
C65 C 0.1469 0.81926 0.14661 0.0
O66 O 0.11864 0.74986 0.13827 0.0
C67 C 0.09276 0.82032 0.08606 0.0
O68 O 0.1037 0.76023 0.10855 0.0
O69 O 0.09788 0.80112 0.08231 0.0
C70 C 0.47558 0.7817 0.37074 0.0
O71 O 0.49234 0.78955 0.36102 0.0
Cd72 Cd 0.53086 0.79694 0.37313 0.0
O73 O 0.47806 0.77652 0.39026 0.0
Cd74 Cd 0.51139 0.77953 0.41772 0.0
C75 C 0.52703 0.83581 0.42043 0.0
O76 O 0.53356 0.76516 0.38903 0.0
O77 O 0.55225 0.77853 0.42139 0.0
O78 O 0.49506 0.74712 0.43354 0.0
C79 C 0.55202 0.76862 0.40086 0.0
O80 O 0.53514 0.8317 0.40134 0.0
C81 C 0.49877 0.75764 0.45416 0.0
O82 O 0.51675 0.81998 0.42903 0.0
O83 O 0.50732 0.7784 0.45747 0.0
C84 C 0.55179 0.27373 0.64269 0.0
O85 O 0.56487 0.26692 0.65586 0.0
Cd86 Cd 0.60476 0.27375 0.65954 0.0
O87 O 0.55931 0.28486 0.62785 0.0
Cd88 Cd 0.59661 0.29689 0.61417 0.0
C89 C 0.61026 0.24459 0.607 0.0
O90 O 0.6122 0.3106 0.65208 0.0
O91 O 0.63612 0.31629 0.62806 0.0
O92 O 0.58494 0.3268 0.59831 0.0
C93 C 0.63209 0.31807 0.64878 0.0
O94 O 0.61347 0.24613 0.62845 0.0
C95 C 0.58908 0.31914 0.57812 0.0
O96 O 0.60343 0.25996 0.59885 0.0
O97 O 0.59693 0.30135 0.57494 0.0
C98 C 0.97455 0.2753 0.87052 0.0
O99 O 0.9902 0.28294 0.85932 0.0
Cd100 Cd 0.02796 0.2975 0.8737 0.0
O101 O 0.97831 0.2735 0.89119 0.0
Cd102 Cd 0.01158 0.27934 0.91927 0.0
C103 C 0.01957 0.33526 0.92125 0.0
O104 O 0.03612 0.26863 0.8916 0.0
O105 O 0.05322 0.28444 0.92438 0.0
O106 O 1.00057 0.24392 0.93134 0.0
C107 C 0.05438 0.27471 0.90403 0.0
O108 O 0.02666 0.33164 0.90156 0.0
C109 C 1.0006 0.2525 0.9523 0.0
O110 O 0.01245 0.31911 0.93104 0.0
O111 O 0.00468 0.27376 0.95782 0.0
C112 C 0.45834 0.05432 0.32 0.0
O113 O 0.46771 0.04539 0.30333 0.0
Cd114 Cd 0.44723 0.02316 0.2693 0.0
O115 O 0.43745 0.05422 0.31819 0.0
Cd116 Cd 0.40576 0.04298 0.28785 0.0
C117 C 0.4056 0.99003 0.29209 0.0
O118 O 0.42486 0.04531 0.25397 0.0
O119 O 0.39242 0.02348 0.24866 0.0
O120 O 0.39554 0.07935 0.29266 0.0
C121 C 0.4093 0.0327 0.24006 0.0
O122 O 0.42309 0.99182 0.28139 0.0
C123 C 0.37558 0.07256 0.29688 0.0
O124 O 0.39622 0.00668 0.29776 0.0
O125 O 0.36992 0.052 0.29794 0.0
C126 C 0.31197 0.15801 0.50844 0.0
O127 O 0.29652 0.14658 0.51719 0.0
Cd128 Cd 0.25968 0.1521 0.52193 0.0
O129 O 0.3086 0.17487 0.50011 0.0
Cd130 Cd 0.27617 0.19434 0.4935 0.0
C131 C 0.27348 0.20756 0.55204 0.0
O132 O 0.2501 0.1591 0.48598 0.0
O133 O 0.23381 0.18681 0.48656 0.0
O134 O 0.29099 0.19681 0.45629 0.0
C135 C 0.23193 0.16576 0.48426 0.0
O136 O 0.26545 0.18674 0.5503 0.0
C137 C 0.28828 0.21655 0.45577 0.0
O138 O 0.27992 0.2153 0.53456 0.0
O139 O 0.28043 0.22653 0.47312 0.0
C140 C 0.14041 0.02958 0.81737 0.0
O141 O 0.13246 0.0417 0.80538 0.0
Cd142 Cd 0.14526 0.04756 0.76867 0.0
O143 O 0.15589 0.01933 0.80883 0.0
Cd144 Cd 0.17833 0.0161 0.76702 0.0
C145 C 0.19783 0.079 0.77206 0.0
O146 O 0.14267 0.01454 0.73812 0.0
O147 O 0.17357 0.01976 0.72359 0.0
O148 O 0.18255 0.97193 0.75843 0.0
C149 C 0.15241 0.01726 0.72022 0.0
O150 O 0.17703 0.07918 0.77132 0.0
C151 C 0.20296 0.97327 0.76549 0.0
O152 O 0.20396 0.05982 0.77155 0.0
O153 O 0.21262 0.99373 0.77298 0.0
C154 C 0.3296 0.98837 0.99154 0.0
O155 O 0.31888 0.99292 0.97484 0.0
Cd156 Cd 0.27821 0.98072 0.96753 0.0
O157 O 0.3189 0.97691 0.00451 0.0
Cd158 Cd 0.27845 0.95639 0.00151 0.0
C159 C 0.27575 0.92801 0.94545 0.0
O160 O 0.25533 0.98675 0.99999 0.0
O161 O 0.23763 0.95346 0.00097 0.0
O162 O 0.28586 0.95491 0.04212 0.0
C163 C 0.23693 0.97394 0.002 0.0
O164 O 0.27098 0.94541 0.93965 0.0
C165 C 0.28143 0.93359 0.03862 0.0
O166 O 0.28041 0.92824 0.96645 0.0
O167 O 0.27524 0.92334 0.01825 0.0
C168 C 0.35704 0.42345 0.03009 0.0
O169 O 0.34451 0.43293 0.0192 0.0
Cd170 Cd 0.3053 0.4232 0.01093 0.0
O171 O 0.3489 0.4064 0.03843 0.0
Cd172 Cd 0.31028 0.38255 0.03939 0.0
C173 C 0.30441 0.36921 0.98046 0.0
O174 O 0.29257 0.41461 0.04513 0.0
O175 O 0.26945 0.38319 0.03683 0.0
O176 O 0.32372 0.38213 0.07897 0.0
C177 C 0.27244 0.40438 0.04209 0.0
O178 O 0.3016 0.3893 0.98213 0.0
C179 C 0.31321 0.36255 0.07947 0.0
O180 O 0.30905 0.36175 0.99839 0.0
O181 O 0.30227 0.35148 0.06091 0.0
C182 C 0.85433 0.09409 0.04104 0.0
O183 O 0.84419 0.08538 0.05611 0.0
Cd184 Cd 0.80757 0.093 0.06535 0.0
O185 O 0.84501 0.10689 0.03089 0.0
Cd186 Cd 0.80818 0.12092 0.03498 0.0
C187 C 0.81448 0.14665 0.09093 0.0
O188 O 0.77762 0.0866 0.03445 0.0
O189 O 0.76926 0.11917 0.04346 0.0
O190 O 0.80329 0.12267 0.99413 0.0
C191 C 0.76246 0.09814 0.03803 0.0
O192 O 0.8093 0.12684 0.09459 0.0
C193 C 0.80521 0.14383 0.9977 0.0
O194 O 0.81746 0.14949 0.07074 0.0
O195 O 0.80908 0.15411 0.01831 0.0
C196 C 0.14697 0.56703 0.26657 0.0
O197 O 0.1359 0.5703 0.24936 0.0
Cd198 Cd 0.14084 0.55706 0.21025 0.0
O199 O 0.16253 0.55588 0.26423 0.0
Cd200 Cd 0.18178 0.53785 0.23292 0.0
C201 C 0.19408 0.58716 0.21428 0.0
O202 O 0.14868 0.52041 0.20807 0.0
O203 O 0.17927 0.52023 0.19227 0.0
O204 O 0.18953 0.50866 0.25283 0.0
C205 C 0.15812 0.51467 0.19033 0.0
O206 O 0.17399 0.58383 0.20549 0.0
C207 C 0.21063 0.51411 0.25288 0.0
O208 O 0.20035 0.57373 0.22583 0.0
O209 O 0.21809 0.53047 0.24358 0.0
C210 C 0.85687 0.92495 0.53225 0.0
O211 O 0.84336 0.93422 0.52235 0.0
Cd212 Cd 0.80458 0.92168 0.51256 0.0
O213 O 0.84983 0.90678 0.53925 0.0
Cd214 Cd 0.8117 0.88128 0.53926 0.0
C215 C 0.80667 0.86911 0.48051 0.0
O216 O 0.79069 0.9108 0.54542 0.0
O217 O 0.77039 0.8782 0.53273 0.0
O218 O 0.81776 0.88239 0.58024 0.0
C219 C 0.7713 0.89893 0.5402 0.0
O220 O 0.80313 0.88899 0.4826 0.0
C221 C 0.81372 0.86142 0.57948 0.0
O222 O 0.81125 0.8613 0.49821 0.0
O223 O 0.80987 0.849 0.55965 0.0
C224 C 0.95946 0.0536 0.31379 0.0
O225 O 0.96829 0.04109 0.2992 0.0
Cd226 Cd 0.95419 0.02986 0.25888 0.0
O227 O 0.94349 0.06263 0.30627 0.0
Cd228 Cd 0.9211 0.06256 0.26263 0.0
C229 C 0.90132 0.99975 0.25818 0.0
O230 O 0.95598 0.06021 0.23741 0.0
O231 O 0.92487 0.05374 0.2176 0.0
O232 O 0.91829 0.10685 0.26632 0.0
C233 C 0.94602 0.05617 0.21732 0.0
O234 O 0.92134 0.9987 0.25411 0.0
C235 C 0.89724 0.10608 0.26613 0.0
O236 O 0.89607 0.0195 0.2626 0.0
O237 O 0.88667 0.08593 0.26486 0.0
C238 C 0.35118 0.59351 0.53914 0.0
O239 O 0.34092 0.58645 0.55497 0.0
Cd240 Cd 0.30869 0.60433 0.55596 0.0
O241 O 0.34218 0.60614 0.52844 0.0
Cd242 Cd 0.30523 0.62102 0.53392 0.0
C243 C 0.3084 0.64771 0.58946 0.0
O244 O 0.27346 0.58658 0.53383 0.0
O245 O 0.26506 0.61913 0.5365 0.0
O246 O 0.30149 0.62236 0.49296 0.0
C247 C 0.25824 0.59815 0.53387 0.0
O248 O 0.30516 0.62763 0.59229 0.0
C249 C 0.3059 0.64363 0.49612 0.0
O250 O 0.31135 0.65121 0.56947 0.0
O251 O 0.31016 0.65414 0.51662 0.0
C252 C 0.45985 0.55408 0.81437 0.0
O253 O 0.4695 0.5425 0.79975 0.0
Cd254 Cd 0.45506 0.53037 0.75998 0.0
O255 O 0.44322 0.56222 0.80684 0.0
Cd256 Cd 0.42131 0.5626 0.76303 0.0
C257 C 0.40182 0.50047 0.76101 0.0
O258 O 0.4567 0.56076 0.73841 0.0
O259 O 0.4258 0.55488 0.71838 0.0
O260 O 0.41714 0.60629 0.77743 0.0
C261 C 0.44689 0.55704 0.71827 0.0
O262 O 0.4223 0.49979 0.75891 0.0
C263 C 0.3983 0.60647 0.76714 0.0
O264 O 0.39589 0.51986 0.76294 0.0
O265 O 0.38944 0.58701 0.75549 0.0
C266 C 0.66011 0.05702 0.75628 0.0
O267 O 0.64811 0.06213 0.74081 0.0
Cd268 Cd 0.65062 0.05393 0.70081 0.0
O269 O 0.67564 0.04621 0.75129 0.0
Cd270 Cd 0.69265 0.02998 0.71679 0.0
C271 C 0.70497 0.08219 0.7036 0.0
O272 O 0.6569 0.01689 0.69688 0.0
O273 O 0.68286 0.00997 0.67588 0.0
O274 O 0.70201 1.00193 0.73744 0.0
C275 C 0.6621 0.00887 0.67748 0.0
O276 O 0.68441 0.08067 0.69725 0.0
C277 C 0.7222 1.00449 0.73264 0.0
O278 O 0.71151 0.06666 0.71177 0.0
O279 O 0.72835 0.01858 0.72017 0.0
C280 C 0.80877 0.65491 0.00916 0.0
O281 O 0.79283 0.6438 0.01759 0.0
Cd282 Cd 0.75638 0.65059 0.02138 0.0
O283 O 0.80608 0.67185 0.00062 0.0
Cd284 Cd 0.77434 0.69182 0.99286 0.0
C285 C 0.77166 0.70623 0.0511 0.0
O286 O 0.74801 0.6568 0.98478 0.0
O287 O 0.73212 0.68485 0.98593 0.0
O288 O 0.79142 0.69388 0.95664 0.0
C289 C 0.73001 0.66373 0.98291 0.0
O290 O 0.76297 0.68557 0.04949 0.0
C291 C 0.78651 0.71239 0.9542 0.0
O292 O 0.77849 0.71359 0.03356 0.0
O293 O 0.77673 0.72207 0.97019 0.0
C294 C 0.94603 0.54058 0.83013 0.0
O295 O 0.95237 0.5272 0.81427 0.0
Cd296 Cd 0.93474 0.51337 0.77686 0.0
O297 O 0.92809 0.54788 0.82735 0.0
Cd298 Cd 0.8978 0.54056 0.79553 0.0
C299 C 0.88691 0.48456 0.79295 0.0
O300 O 0.92165 0.54381 0.76533 0.0
O301 O 0.88771 0.52758 0.75385 0.0
O302 O 0.89008 0.57833 0.80175 0.0
C303 C 0.90696 0.53565 0.74875 0.0
O304 O 0.90423 0.48399 0.78217 0.0
C305 C 0.86956 0.57234 0.80451 0.0
O306 O 0.8816 0.50316 0.80113 0.0
O307 O 0.86248 0.55169 0.80427 0.0
C308 C 0.82523 0.47974 0.49921 0.0
O309 O 0.81581 0.49251 0.4894 0.0
Cd310 Cd 0.77633 0.47847 0.47709 0.0
O311 O 0.81314 0.46279 0.50478 0.0
Cd312 Cd 0.77123 0.44709 0.50405 0.0
C313 C 0.77269 0.42506 0.44841 0.0
O314 O 0.75125 0.47963 0.50797 0.0
O315 O 0.73081 0.44695 0.49498 0.0
O316 O 0.77801 0.44544 0.54451 0.0
C317 C 0.73169 0.46757 0.50306 0.0
O318 O 0.77277 0.44502 0.44579 0.0
C319 C 0.77097 0.4244 0.54173 0.0
O320 O 0.77264 0.42088 0.46837 0.0
O321 O 0.76344 0.41414 0.52164 0.0
C322 C 0.63852 0.53028 0.31744 0.0
O323 O 0.6298 0.54161 0.30509 0.0
Cd324 Cd 0.64278 0.54747 0.26847 0.0
O325 O 0.6545 0.52066 0.30916 0.0
Cd326 Cd 0.67597 0.51643 0.26687 0.0
C327 C 0.69553 0.57911 0.27243 0.0
O328 O 0.63988 0.5142 0.23815 0.0
O329 O 0.67062 0.51947 0.22346 0.0
O330 O 0.67945 0.47365 0.27044 0.0
C331 C 0.64949 0.51687 0.22019 0.0
O332 O 0.67468 0.57913 0.27113 0.0
C333 C 0.69936 0.47291 0.26542 0.0
O334 O 0.70174 0.56004 0.27235 0.0
O335 O 0.70901 0.49158 0.26092 0.0
Eu336 Eu 0.06108 0.06426 0.02813 0.0
Eu337 Eu 0.03338 0.01378 0.01076 0.0
C338 C 0.06601 0.03641 0.97473 0.0
C339 C 0.07236 0.12655 0.04815 0.0
C340 C 0.08244 0.14651 0.04208 0.0
C341 C 0.04065 0.14317 0.05944 0.0
C342 C 0.07125 0.16432 0.04358 0.0
C343 C 0.05178 0.12522 0.05765 0.0
C344 C 0.04975 0.16254 0.05133 0.0
C345 C 0.08091 0.10619 0.04003 0.0
O346 O 0.06966 0.0102 0.01442 0.0
O347 O 0.08697 0.04414 0.03607 0.0
C348 C 0.08767 0.0237 0.02557 0.0
O349 O 0.04172 0.05955 0.05972 0.0
O350 O 0.01344 0.98597 0.98544 0.0
O351 O 0.02183 0.98154 0.01972 0.0
O352 O 0.02397 0.02286 0.04839 0.0
C353 C 0.02796 0.04186 0.06396 0.0
O354 O 0.0254 0.06889 0.02134 0.0
O355 O 0.0066 0.03336 0.00504 0.0
O356 O 0.05008 0.0198 0.97788 0.0
O357 O 0.08068 0.09197 0.05365 0.0
O358 O 0.07344 0.09638 0.0191 0.0
O359 O 0.07237 0.05431 0.99149 0.0
C360 C 0.02089 0.95091 0.99032 0.0
C361 C 0.04376 0.95057 0.99205 0.0
C362 C 0.0124 0.9103 0.98149 0.0
C363 C 0.05085 0.93024 0.99014 0.0
C364 C 0.0053 0.93074 0.98389 0.0
C365 C 0.03515 0.90985 0.98615 0.0
C366 C 0.01341 0.97177 0.99904 0.0
C367 C 0.00681 0.05471 0.01256 0.0
H368 H 0.09815 0.14769 0.03443 0.0
H369 H 0.02435 0.14131 0.06586 0.0
H370 H 0.07877 0.17867 0.03677 0.0
H371 H 0.04362 0.10979 0.06225 0.0
H372 H 0.05606 0.96604 0.99684 0.0
H373 H 0.99991 0.89493 0.97766 0.0
H374 H 0.06848 0.93082 0.99397 0.0
H375 H 0.98757 0.93076 0.98224 0.0
Eu376 Eu 0.31756 0.78609 0.2325 0.0
Eu377 Eu 0.29598 0.78803 0.28894 0.0
C378 C 0.27161 0.80648 0.25044 0.0
C379 C 0.32031 0.80696 0.17728 0.0
C380 C 0.33266 0.82913 0.18237 0.0
C381 C 0.29806 0.8168 0.14717 0.0
C382 C 0.32781 0.8449 0.16989 0.0
C383 C 0.30304 0.80097 0.1595 0.0
C384 C 0.31043 0.83891 0.1522 0.0
C385 C 0.32457 0.79025 0.19091 0.0
O386 O 0.28138 0.75366 0.26834 0.0
O387 O 0.29713 0.75178 0.23334 0.0
C388 C 0.28427 0.74301 0.24777 0.0
O389 O 0.34632 0.77222 0.24688 0.0
O390 O 0.27639 0.78098 0.31707 0.0
O391 O 0.31272 0.79092 0.32257 0.0
O392 O 0.32229 0.77846 0.2695 0.0
C393 C 0.34114 0.77233 0.26743 0.0
O394 O 0.33049 0.82014 0.25529 0.0
O395 O 0.31297 0.82342 0.28937 0.0
O396 O 0.27019 0.80124 0.27078 0.0
O397 O 0.34007 0.79702 0.208 0.0
O398 O 0.30688 0.77745 0.19608 0.0
O399 O 0.28741 0.80271 0.23678 0.0
C400 C 0.29537 0.76597 0.34497 0.0
C401 C 0.31549 0.76609 0.35758 0.0
C402 C 0.27735 0.73451 0.3609 0.0
C403 C 0.31653 0.75068 0.37174 0.0
C404 C 0.27632 0.74994 0.3467 0.0
C405 C 0.29743 0.73482 0.37376 0.0
C406 C 0.2943 0.78334 0.33114 0.0
C407 C 0.32623 0.83158 0.27498 0.0
H408 H 0.34598 0.83439 0.19608 0.0
H409 H 0.28476 0.81163 0.13344 0.0
H410 H 0.33752 0.86186 0.17423 0.0
H411 H 0.29325 0.78404 0.1552 0.0
H412 H 0.33042 0.77838 0.35683 0.0
H413 H 0.26239 0.72237 0.36186 0.0
H414 H 0.33218 0.75164 0.38163 0.0
H415 H 0.26052 0.74943 0.33731 0.0
Eu416 Eu 0.58313 0.04234 0.49476 0.0
Eu417 Eu 0.53399 0.045 0.51418 0.0
C418 C 0.57367 0.0357 0.54519 0.0
C419 C 0.63625 0.02128 0.48738 0.0
C420 C 0.63976 0.01936 0.51024 0.0
C421 C 0.65833 0.99287 0.4764 0.0
C422 C 0.65263 1.0045 0.51615 0.0
C423 C 0.64563 0.00793 0.47053 0.0
C424 C 0.662 0.99096 0.4993 0.0
C425 C 0.62133 0.03566 0.4808 0.0
O426 O 0.55704 0.07813 0.52823 0.0
O427 O 0.58256 0.07905 0.50146 0.0
C428 C 0.57302 0.0891 0.51838 0.0
O429 O 0.55881 0.04146 0.46479 0.0
O430 O 0.51311 0.05651 0.54061 0.0
O431 O 0.49772 0.03651 0.50805 0.0
O432 O 0.53594 0.06198 0.48423 0.0
C433 C 0.54373 0.05405 0.46519 0.0
O434 O 0.56774 0.00817 0.49992 0.0
O435 O 0.53141 0.01047 0.49248 0.0
O436 O 0.55212 0.02955 0.53899 0.0
O437 O 0.60214 0.02499 0.47002 0.0
O438 O 0.61934 0.05285 0.4963 0.0
O439 O 0.58748 0.04605 0.53281 0.0
C440 C 0.47986 0.06493 0.52554 0.0
C441 C 0.48191 0.07801 0.50867 0.0
C442 C 0.44844 0.08124 0.53833 0.0
C443 C 0.46706 0.09233 0.50641 0.0
C444 C 0.4632 0.06683 0.54048 0.0
C445 C 0.45003 0.09397 0.5211 0.0
C446 C 0.49461 0.0489 0.52726 0.0
C447 C 0.54693 0.9985 0.4933 0.0
H448 H 0.63239 0.02921 0.52357 0.0
H449 H 0.66494 0.98246 0.46292 0.0
H450 H 0.65533 1.00375 0.53398 0.0
H451 H 0.64278 0.00885 0.45277 0.0
H452 H 0.49479 0.07691 0.49705 0.0
H453 H 0.43534 0.08191 0.54973 0.0
H454 H 0.46884 0.10205 0.49311 0.0
H455 H 0.46138 0.05687 0.55359 0.0
Eu456 Eu 0.276 0.29564 0.76571 0.0
Eu457 Eu 0.32435 0.28361 0.76801 0.0
C458 C 0.28019 0.24372 0.76893 0.0
C459 C 0.21914 0.30131 0.78316 0.0
C460 C 0.22325 0.2909 0.80142 0.0
C461 C 0.18294 0.30522 0.7959 0.0
C462 C 0.20743 0.28794 0.81704 0.0
C463 C 0.19889 0.30834 0.78038 0.0
C464 C 0.18713 0.29518 0.81454 0.0
C465 C 0.23652 0.30583 0.76785 0.0
O466 O 0.3121 0.27345 0.73061 0.0
O467 O 0.28386 0.29286 0.72903 0.0
C468 C 0.29744 0.28095 0.71884 0.0
O469 O 0.29991 0.33031 0.76989 0.0
O470 O 0.34527 0.25869 0.76115 0.0
O471 O 0.36031 0.29267 0.77782 0.0
O472 O 0.3317 0.31892 0.75877 0.0
C473 C 0.32049 0.33531 0.76387 0.0
O474 O 0.28282 0.29161 0.802 0.0
O475 O 0.32077 0.2995 0.80438 0.0
O476 O 0.30147 0.25218 0.77634 0.0
O477 O 0.25488 0.31921 0.77772 0.0
O478 O 0.24044 0.28843 0.75393 0.0
O479 O 0.26813 0.25681 0.76095 0.0
C480 C 0.38095 0.27345 0.75196 0.0
C481 C 0.376 0.27632 0.72968 0.0
C482 C 0.41881 0.27122 0.74357 0.0
C483 C 0.3924 0.27654 0.71435 0.0
C484 C 0.40238 0.27089 0.75883 0.0
C485 C 0.414 0.2741 0.72121 0.0
C486 C 0.36383 0.27315 0.76809 0.0
C487 C 0.30214 0.29774 0.81428 0.0
H488 H 0.23885 0.28538 0.80379 0.0
H489 H 0.16729 0.31059 0.79325 0.0
H490 H 0.2113 0.28038 0.83129 0.0
H491 H 0.1955 0.3164 0.76635 0.0
H492 H 0.35948 0.27842 0.72417 0.0
H493 H 0.43524 0.26899 0.74921 0.0
H494 H 0.38829 0.27894 0.69729 0.0
H495 H 0.40641 0.26861 0.77596 0.0
Eu496 Eu 0.04288 0.05931 0.5326 0.0
Eu497 Eu 0.0585 0.01479 0.50637 0.0
C498 C 0.08957 0.06349 0.50781 0.0
C499 C 0.03142 0.11569 0.53652 0.0
C500 C 0.04073 0.11416 0.51557 0.0
C501 C 0.02679 0.15346 0.53474 0.0
C502 C 0.04326 0.13208 0.5044 0.0
C503 C 0.02426 0.13534 0.54603 0.0
C504 C 0.03664 0.15204 0.51398 0.0
C505 C 0.03004 0.09665 0.54807 0.0
O506 O 0.07084 0.01754 0.54478 0.0
O507 O 0.06234 0.05056 0.56292 0.0
C508 C 0.07153 0.03288 0.56375 0.0
O509 O 0.01917 0.03127 0.54314 0.0
O510 O 0.08047 0.99051 0.50543 0.0
O511 O 0.05256 0.9844 0.47997 0.0
O512 O 0.02322 1.00325 0.51404 0.0
C513 C 0.0126 0.01085 0.53119 0.0
O514 O 0.02875 0.05545 0.49462 0.0
O515 O 0.04257 0.02602 0.47554 0.0
O516 O 0.08566 0.04191 0.49909 0.0
O517 O 0.01628 0.07842 0.53761 0.0
O518 O 0.04936 0.0926 0.55445 0.0
O519 O 0.07632 0.07273 0.52139 0.0
C520 C 0.05847 0.95419 0.49586 0.0
C521 C 0.04326 0.95373 0.51252 0.0
C522 C 0.05412 0.91374 0.49057 0.0
C523 C 0.03317 0.93349 0.51782 0.0
C524 C 0.06391 0.9341 0.48489 0.0
C525 C 0.03847 0.9133 0.50691 0.0
C526 C 0.06746 0.97569 0.48958 0.0
C527 C 0.03094 0.04203 0.47515 0.0
H528 H 0.04635 0.09912 0.50796 0.0
H529 H 0.02159 0.16871 0.54247 0.0
H530 H 0.05051 0.13034 0.48823 0.0
H531 H 0.01704 0.13676 0.5622 0.0
H532 H 0.0391 0.96909 0.52142 0.0
H533 H 0.05855 0.89833 0.48207 0.0
H534 H 0.02151 0.93366 0.5308 0.0
H535 H 0.0756 0.93417 0.47196 0.0
Eu536 Eu 0.32635 0.80672 0.76766 0.0
Eu537 Eu 0.27918 0.77666 0.77207 0.0
C538 C 0.30426 0.81071 0.81565 0.0
C539 C 0.38765 0.82293 0.762 0.0
C540 C 0.38931 0.80047 0.76082 0.0
C541 C 0.42798 0.83337 0.76427 0.0
C542 C 0.41021 0.79466 0.76269 0.0
C543 C 0.40702 0.83922 0.76287 0.0
C544 C 0.42983 0.81122 0.7654 0.0
C545 C 0.36623 0.82965 0.76596 0.0
O546 O 0.27021 0.81196 0.77138 0.0
O547 O 0.30183 0.82986 0.75872 0.0
C548 C 0.28105 0.82999 0.76455 0.0
O549 O 0.32004 0.78058 0.73563 0.0
O550 O 0.24917 0.76997 0.78975 0.0
O551 O 0.25235 0.74793 0.75821 0.0
O552 O 0.28219 0.77277 0.73401 0.0
C553 C 0.30075 0.77075 0.72455 0.0
O554 O 0.33629 0.77289 0.77355 0.0
O555 O 0.30211 0.75049 0.77406 0.0
O556 O 0.29312 0.79011 0.80864 0.0
O557 O 0.35093 0.82432 0.74866 0.0
O558 O 0.35831 0.82522 0.78476 0.0
O559 O 0.31588 0.82108 0.80175 0.0
C560 C 0.21768 0.75794 0.76277 0.0
C561 C 0.2137 0.7798 0.7645 0.0
C562 C 0.18541 0.74404 0.73499 0.0
C563 C 0.19604 0.78379 0.75123 0.0
C564 C 0.2031 0.74002 0.74835 0.0
C565 C 0.18212 0.76605 0.73587 0.0
C566 C 0.2388 0.75434 0.7729 0.0
C567 C 0.32419 0.75266 0.77402 0.0
H568 H 0.37448 0.78765 0.75997 0.0
H569 H 0.44274 0.84643 0.76561 0.0
H570 H 0.41084 0.77748 0.76357 0.0
H571 H 0.406 0.85662 0.76367 0.0
H572 H 0.22477 0.79399 0.77536 0.0
H573 H 0.17498 0.73006 0.7232 0.0
H574 H 0.19362 0.80087 0.75257 0.0
H575 H 0.20608 0.7231 0.74657 0.0
Eu576 Eu 0.54593 0.01771 0.03213 0.0
Eu577 Eu 0.54718 0.0447 0.99073 0.0
C578 C 0.54142 0.06871 0.04094 0.0
C579 C 0.52191 0.99181 0.07855 0.0
C580 C 0.50614 0.00561 0.07881 0.0
C581 C 0.50111 0.97177 0.10424 0.0
C582 C 0.48831 1.00295 0.09215 0.0
C583 C 0.51915 0.97462 0.09098 0.0
C584 C 0.4857 0.98619 0.10529 0.0
C585 C 0.54075 0.99526 0.06472 0.0
O586 O 0.5832 0.04211 0.99804 0.0
O587 O 0.58199 0.03684 0.03487 0.0
C588 C 0.59344 0.04216 0.01795 0.0
O589 O 0.56229 0.99821 0.00503 0.0
O590 O 0.5597 0.07471 0.9776 0.0
O591 O 0.53542 0.04759 0.9566 0.0
O592 O 0.54605 0.00844 0.97444 0.0
C593 C 0.55683 0.99498 0.98308 0.0
O594 O 0.51134 0.00776 0.01274 0.0
O595 O 0.51132 0.04009 0.99986 0.0
O596 O 0.5527 0.07043 0.02323 0.0
O597 O 0.53624 0.98596 0.04318 0.0
O598 O 0.55194 0.01589 0.06782 0.0
O599 O 0.53294 0.04903 0.04517 0.0
C600 C 0.56419 0.06655 0.93884 0.0
C601 C 0.57607 0.04927 0.93331 0.0
C602 C 0.58202 0.08518 0.91054 0.0
C603 C 0.5906 0.04975 0.91622 0.0
C604 C 0.56735 0.0846 0.92757 0.0
C605 C 0.59361 0.06765 0.90461 0.0
C606 C 0.54957 0.06635 0.95731 0.0
C607 C 0.50035 0.02179 0.00536 0.0
H608 H 0.50786 0.01878 0.06901 0.0
H609 H 0.49942 0.95853 0.11393 0.0
H610 H 0.4771 0.01464 0.09282 0.0
H611 H 0.53101 0.96358 0.09059 0.0
H612 H 0.57412 0.03541 0.94222 0.0
H613 H 0.58393 0.09905 0.90166 0.0
H614 H 0.59949 0.03615 0.91207 0.0
H615 H 0.55849 0.0982 0.93191 0.0
Eu616 Eu 0.31847 0.31726 0.28292 0.0
Eu617 Eu 0.28936 0.26809 0.25566 0.0
C618 C 0.30267 0.30854 0.22953 0.0
C619 C 0.33129 0.37961 0.30397 0.0
C620 C 0.31426 0.38489 0.31761 0.0
C621 C 0.32988 0.41238 0.28745 0.0
C622 C 0.30463 0.40326 0.31557 0.0
C623 C 0.33961 0.39408 0.28957 0.0
C624 C 0.31179 0.41668 0.29986 0.0
C625 C 0.33848 0.3579 0.30258 0.0
O626 O 0.32437 0.26277 0.26144 0.0
O627 O 0.34284 0.29918 0.26471 0.0
C628 C 0.34236 0.27754 0.25999 0.0
O629 O 0.32235 0.29351 0.30705 0.0
O630 O 0.28497 0.23735 0.22982 0.0
O631 O 0.25805 0.24352 0.25047 0.0
O632 O 0.29097 0.26664 0.29297 0.0
C633 C 0.30672 0.27648 0.30945 0.0
O634 O 0.28396 0.31389 0.29401 0.0
O635 O 0.26597 0.29207 0.26107 0.0
O636 O 0.30135 0.287 0.22857 0.0
O637 O 0.32742 0.34365 0.31342 0.0
O638 O 0.34225 0.34813 0.28235 0.0
O639 O 0.30303 0.32233 0.24922 0.0
C640 C 0.2652 0.2067 0.24322 0.0
C641 C 0.25842 0.2031 0.26451 0.0
C642 C 0.27839 0.17166 0.23771 0.0
C643 C 0.26229 0.18428 0.27262 0.0
C644 C 0.27428 0.19032 0.22951 0.0
C645 C 0.27322 0.16886 0.25973 0.0
C646 C 0.26605 0.22865 0.23668 0.0
C647 C 0.26549 0.30446 0.28118 0.0
H648 H 0.30755 0.37421 0.32903 0.0
H649 H 0.33593 0.42269 0.27546 0.0
H650 H 0.29067 0.40614 0.3253 0.0
H651 H 0.35288 0.39059 0.27906 0.0
H652 H 0.25122 0.21535 0.27548 0.0
H653 H 0.28705 0.16032 0.22735 0.0
H654 H 0.25769 0.1824 0.28944 0.0
H655 H 0.27962 0.1927 0.21304 0.0
Eu656 Eu 0.54219 0.56111 0.03294 0.0
Eu657 Eu 0.55605 0.51565 0.00745 0.0
C658 C 0.58783 0.56319 0.00827 0.0
C659 C 0.53625 0.62108 0.04057 0.0
C660 C 0.55586 0.6374 0.04785 0.0
C661 C 0.52663 0.64245 0.0125 0.0
C662 C 0.56112 0.65565 0.0371 0.0
C663 C 0.52139 0.62418 0.02321 0.0
C664 C 0.54682 0.65809 0.01895 0.0
C665 C 0.53255 0.59994 0.04937 0.0
O666 O 0.57315 0.521 0.04441 0.0
O667 O 0.55643 0.54824 0.06369 0.0
C668 C 0.56961 0.53342 0.06401 0.0
O669 O 0.51212 0.53435 0.03478 0.0
O670 O 0.57946 0.49293 0.00092 0.0
O671 O 0.54624 0.48393 0.98319 0.0
O672 O 0.52792 0.5034 0.02721 0.0
C673 C 0.51132 0.51286 0.03376 0.0
O674 O 0.53425 0.56093 0.99441 0.0
O675 O 0.53269 0.52393 0.97963 0.0
O676 O 0.58033 0.54292 0.99626 0.0
O677 O 0.51802 0.58313 0.03732 0.0
O678 O 0.55042 0.59357 0.05642 0.0
O679 O 0.5778 0.57139 0.02566 0.0
C680 C 0.55967 0.45532 0.99641 0.0
C681 C 0.56279 0.45475 0.01967 0.0
C682 C 0.54059 0.41623 0.98889 0.0
C683 C 0.55475 0.43515 0.02748 0.0
C684 C 0.54883 0.43582 0.98104 0.0
C685 C 0.54318 0.41582 0.01224 0.0
C686 C 0.56416 0.47684 0.98872 0.0
C687 C 0.52861 0.54365 0.97701 0.0
H688 H 0.56757 0.63566 0.06132 0.0
H689 H 0.51531 0.64376 0.99849 0.0
H690 H 0.57661 0.66765 0.04273 0.0
H691 H 0.50607 0.61202 0.01723 0.0
H692 H 0.5706 0.4697 0.03199 0.0
H693 H 0.53187 0.40152 0.97677 0.0
H694 H 0.55676 0.43542 0.0456 0.0
H695 H 0.54592 0.43601 0.96309 0.0
Eu696 Eu 0.82144 0.30488 0.26986 0.0
Eu697 Eu 0.77378 0.27392 0.2637 0.0
C698 C 0.79279 0.30836 0.31219 0.0
C699 C 0.88144 0.32599 0.26288 0.0
C700 C 0.88498 0.30401 0.26068 0.0
C701 C 0.92075 0.33922 0.26022 0.0
C702 C 0.90652 0.29983 0.25965 0.0
C703 C 0.89918 0.34343 0.26167 0.0
C704 C 0.92478 0.31759 0.2605 0.0
C705 C 0.85983 0.33083 0.2689 0.0
O706 O 0.76288 0.30729 0.25898 0.0
O707 O 0.79726 0.33031 0.26735 0.0
C708 C 0.77521 0.32795 0.26286 0.0
O709 O 0.81961 0.27986 0.23687 0.0
O710 O 0.74671 0.25559 0.27939 0.0
O711 O 0.74537 0.25186 0.24268 0.0
O712 O 0.78236 0.27336 0.22767 0.0
C713 C 0.80231 0.27148 0.22196 0.0
O714 O 0.83217 0.27151 0.27522 0.0
O715 O 0.79778 0.24835 0.26669 0.0
O716 O 0.77548 0.29725 0.29807 0.0
O717 O 0.84402 0.32605 0.25215 0.0
O718 O 0.85311 0.324 0.28719 0.0
O719 O 0.81311 0.30935 0.30612 0.0
C720 C 0.71222 0.25402 0.25876 0.0
C721 C 0.69469 0.23885 0.24497 0.0
C722 C 0.69094 0.28353 0.25975 0.0
C723 C 0.67572 0.24616 0.23785 0.0
C724 C 0.70992 0.27619 0.26683 0.0
C725 C 0.67409 0.2688 0.24442 0.0
C726 C 0.73433 0.2483 0.26003 0.0
C727 C 0.81986 0.25078 0.27128 0.0
H728 H 0.87131 0.29031 0.2613 0.0
H729 H 0.93442 0.35313 0.26029 0.0
H730 H 0.90892 0.28301 0.26003 0.0
H731 H 0.89655 0.36044 0.26304 0.0
H732 H 0.6964 0.2218 0.23828 0.0
H733 H 0.68999 0.30097 0.26533 0.0
H734 H 0.66315 0.23446 0.22584 0.0
H735 H 0.72345 0.28824 0.2773 0.0
Eu736 Eu 0.04429 0.51559 0.53747 0.0
Eu737 Eu 0.04048 0.53398 0.4901 0.0
C738 C 0.03689 0.56467 0.53733 0.0
C739 C 0.02601 0.49495 0.58915 0.0
C740 C 0.00365 0.48928 0.57973 0.0
C741 C 0.01338 0.49726 0.62694 0.0
C742 C 0.98628 0.48809 0.59382 0.0
C743 C 0.03078 0.49849 0.6128 0.0
C744 C 0.99098 0.49259 0.61759 0.0
C745 C 0.04409 0.49952 0.57455 0.0
O746 O 0.07791 0.53822 0.49848 0.0
O747 O 0.07901 0.53625 0.53653 0.0
C748 C 0.08917 0.54062 0.51852 0.0
O749 O 0.06029 0.49436 0.51136 0.0
O750 O 0.03072 0.55874 0.47196 0.0
O751 O 0.04366 0.53078 0.45381 0.0
O752 O 0.03797 0.4966 0.48069 0.0
C753 C 0.05206 0.48668 0.49019 0.0
O754 O 0.00799 0.50236 0.52347 0.0
O755 O 0.00444 0.5247 0.49744 0.0
O756 O 0.04782 0.56375 0.51913 0.0
O757 O 0.04116 0.48695 0.55413 0.0
O758 O 0.05133 0.52071 0.57437 0.0
O759 O 0.02934 0.54639 0.54479 0.0
C760 C 0.05076 0.5645 0.44038 0.0
C761 C 0.07411 0.56706 0.44187 0.0
C762 C 0.05219 0.58527 0.40989 0.0
C763 C 0.08633 0.57773 0.4266 0.0
C764 C 0.04 0.57452 0.42506 0.0
C765 C 0.07528 0.58594 0.40975 0.0
C766 C 0.03719 0.54952 0.45276 0.0
C767 C 0.99555 0.51055 0.50982 0.0
H768 H 0.99958 0.48647 0.56149 0.0
H769 H 0.01749 0.5011 0.64524 0.0
H770 H 0.96918 0.48427 0.58617 0.0
H771 H 0.04793 0.50308 0.62035 0.0
H772 H 0.0827 0.5596 0.45383 0.0
H773 H 0.04335 0.59172 0.39723 0.0
H774 H 0.10408 0.57789 0.4268 0.0
H775 H 0.02199 0.57288 0.42392 0.0
Eu776 Eu 0.77459 0.79513 0.26409 0.0
Eu777 Eu 0.82339 0.78275 0.26755 0.0
C778 C 0.77872 0.74333 0.26838 0.0
C779 C 0.71673 0.79877 0.27983 0.0
C780 C 0.72048 0.78792 0.29784 0.0
C781 C 0.67931 0.8001 0.29051 0.0
C782 C 0.70384 0.78342 0.3123 0.0
C783 C 0.69605 0.80472 0.27614 0.0
C784 C 0.68309 0.78956 0.30888 0.0
C785 C 0.73468 0.80438 0.26542 0.0
O786 O 0.81254 0.77465 0.22968 0.0
O787 O 0.78219 0.79127 0.22742 0.0
C788 C 0.797 0.7808 0.21765 0.0
O789 O 0.79786 0.82936 0.26396 0.0
O790 O 0.84382 0.75764 0.25824 0.0
O791 O 0.85886 0.78985 0.27929 0.0
O792 O 0.83229 0.81966 0.26277 0.0
C793 C 0.81976 0.83506 0.26293 0.0
O794 O 0.78166 0.7941 0.30134 0.0
O795 O 0.81952 0.79692 0.30415 0.0
O796 O 0.79998 0.75168 0.2759 0.0
O797 O 0.75263 0.81787 0.27614 0.0
O798 O 0.73932 0.78754 0.25121 0.0
O799 O 0.76684 0.75636 0.26004 0.0
C800 C 0.88087 0.77265 0.25314 0.0
C801 C 0.8843 0.78915 0.2398 0.0
C802 C 0.91262 0.75836 0.23837 0.0
C803 C 0.90203 0.79044 0.22606 0.0
C804 C 0.89499 0.75718 0.25222 0.0
C805 C 0.9164 0.7751 0.22528 0.0
C806 C 0.86233 0.77103 0.26763 0.0
C807 C 0.80087 0.79778 0.31369 0.0
H808 H 0.7364 0.78318 0.30089 0.0
H809 H 0.66337 0.8047 0.28719 0.0
H810 H 0.7074 0.77553 0.3264 0.0
H811 H 0.69291 0.81303 0.26225 0.0
H812 H 0.87332 0.80105 0.24007 0.0
H813 H 0.9236 0.74649 0.23831 0.0
H814 H 0.90448 0.80339 0.21601 0.0
H815 H 0.89246 0.74426 0.26231 0.0
Eu816 Eu 0.80108 0.28875 0.74755 0.0
Eu817 Eu 0.77873 0.28354 0.79576 0.0
C818 C 0.75035 0.29201 0.75372 0.0
C819 C 0.81158 0.31014 0.69338 0.0
C820 C 0.79884 0.32662 0.69957 0.0
C821 C 0.8137 0.31981 0.65604 0.0
C822 C 0.79368 0.33972 0.68413 0.0
C823 C 0.81891 0.30678 0.67153 0.0
C824 C 0.80107 0.33651 0.66215 0.0
C825 C 0.81684 0.29616 0.70947 0.0
O826 O 0.76866 0.25024 0.77126 0.0
O827 O 0.79752 0.25225 0.74829 0.0
C828 C 0.7806 0.24063 0.75623 0.0
O829 O 0.82934 0.29101 0.77425 0.0
O830 O 0.75181 0.2696 0.81463 0.0
O831 O 0.78164 0.29164 0.83288 0.0
O832 O 0.8098 0.26937 0.79643 0.0
C833 C 0.82872 0.2786 0.78984 0.0
O834 O 0.79378 0.32203 0.76326 0.0
O835 O 0.79898 0.3188 0.80032 0.0
O836 O 0.75501 0.29834 0.77587 0.0
O837 O 0.82602 0.30696 0.72959 0.0
O838 O 0.80114 0.2791 0.71062 0.0
O839 O 0.76371 0.28216 0.74081 0.0
C840 C 0.76568 0.26142 0.84895 0.0
C841 C 0.77804 0.24471 0.84235 0.0
C842 C 0.76036 0.24876 0.8846 0.0
C843 C 0.78174 0.23025 0.85689 0.0
C844 C 0.75672 0.26326 0.87005 0.0
C845 C 0.77312 0.23224 0.87829 0.0
C846 C 0.76326 0.27766 0.83441 0.0
C847 C 0.79889 0.33124 0.78483 0.0
H848 H 0.79293 0.32937 0.71637 0.0
H849 H 0.81932 0.31659 0.63915 0.0
H850 H 0.78414 0.35254 0.68951 0.0
H851 H 0.82858 0.294 0.66641 0.0
H852 H 0.78511 0.24308 0.82609 0.0
H853 H 0.75372 0.25091 0.90106 0.0
H854 H 0.79141 0.21756 0.8514 0.0
H855 H 0.74728 0.27617 0.87546 0.0
Eu856 Eu 0.82114 0.81218 0.78173 0.0
Eu857 Eu 0.78752 0.76555 0.75447 0.0
C858 C 0.80215 0.80556 0.72853 0.0
C859 C 0.84148 0.87377 0.79655 0.0
C860 C 0.84434 0.87955 0.77514 0.0
C861 C 0.82334 0.90548 0.80721 0.0
C862 C 0.83589 0.89748 0.76951 0.0
C863 C 0.83188 0.88758 0.8129 0.0
C864 C 0.82437 0.90994 0.7851 0.0
C865 C 0.8446 0.85159 0.80043 0.0
O866 O 0.82203 0.76566 0.7433 0.0
O867 O 0.84321 0.78706 0.77514 0.0
C868 C 0.84123 0.77266 0.75579 0.0
O869 O 0.81352 0.79189 0.80906 0.0
O870 O 0.78255 0.73454 0.72908 0.0
O871 O 0.75496 0.74263 0.74767 0.0
O872 O 0.80016 0.75662 0.78715 0.0
C873 C 0.80691 0.77008 0.80707 0.0
O874 O 0.78644 0.8192 0.78027 0.0
O875 O 0.76789 0.78351 0.77944 0.0
O876 O 0.78496 0.79059 0.7318 0.0
O877 O 0.82861 0.84088 0.81015 0.0
O878 O 0.85087 0.83836 0.78344 0.0
O879 O 0.81927 0.81309 0.74406 0.0
C880 C 0.76066 0.70516 0.74218 0.0
C881 C 0.75448 0.70287 0.764 0.0
C882 C 0.77334 0.66988 0.73817 0.0
C883 C 0.75845 0.68461 0.77311 0.0
C884 C 0.769 0.6879 0.72894 0.0
C885 C 0.76904 0.66853 0.76076 0.0
C886 C 0.76285 0.72692 0.73495 0.0
C887 C 0.76919 0.80519 0.78467 0.0
H888 H 0.85183 0.86942 0.76217 0.0
H889 H 0.81454 0.91478 0.8196 0.0
H890 H 0.83738 0.90087 0.75251 0.0
H891 H 0.82953 0.88356 0.82955 0.0
H892 H 0.74791 0.71586 0.77465 0.0
H893 H 0.78167 0.65801 0.72811 0.0
H894 H 0.75432 0.68376 0.79029 0.0
H895 H 0.77394 0.6893 0.71209 0.0
Eu896 Eu 0.55818 0.56587 0.52682 0.0
Eu897 Eu 0.53306 0.51401 0.51193 0.0
C898 C 0.56482 0.53786 0.47498 0.0
C899 C 0.56818 0.62778 0.54973 0.0
C900 C 0.54498 0.6259 0.54978 0.0
C901 C 0.5727 0.66816 0.55589 0.0
C902 C 0.53558 0.6449 0.551 0.0
C903 C 0.58206 0.64903 0.55407 0.0
C904 C 0.54933 0.66614 0.55258 0.0
C905 C 0.57715 0.60795 0.54057 0.0
O906 O 0.56781 0.51077 0.52459 0.0
O907 O 0.58657 0.54689 0.52687 0.0
C908 C 0.58657 0.52557 0.5263 0.0
O909 O 0.54096 0.55951 0.55948 0.0
O910 O 0.51482 0.48704 0.48476 0.0
O911 O 0.52084 0.48092 0.51881 0.0
O912 O 0.52195 0.52316 0.54853 0.0
C913 C 0.52684 0.54213 0.56402 0.0
O914 O 0.52246 0.56914 0.51822 0.0
O915 O 0.50468 0.53228 0.50773 0.0
O916 O 0.55263 0.51978 0.48041 0.0
O917 O 0.57725 0.59304 0.55338 0.0
O918 O 0.56965 0.59886 0.51947 0.0
O919 O 0.56748 0.5574 0.48945 0.0
C920 C 0.52276 0.45202 0.48837 0.0
C921 C 0.54564 0.45233 0.49204 0.0
C922 C 0.51604 0.41193 0.47399 0.0
C923 C 0.55347 0.43237 0.4882 0.0
C924 C 0.50814 0.43195 0.47833 0.0
C925 C 0.53856 0.41172 0.48026 0.0
C926 C 0.51406 0.47203 0.4975 0.0
C927 C 0.5041 0.55375 0.51223 0.0
H928 H 0.53406 0.60955 0.54671 0.0
H929 H 0.58379 0.68434 0.55794 0.0
H930 H 0.51756 0.64253 0.54842 0.0
H931 H 0.60004 0.65077 0.55431 0.0
H932 H 0.55722 0.46779 0.49952 0.0
H933 H 0.50421 0.39646 0.4672 0.0
H934 H 0.57086 0.43313 0.49344 0.0
H935 H 0.49045 0.43156 0.47504 0.0
Eu936 Eu 0.07726 0.54104 0.00315 0.0
Eu937 Eu 0.02865 0.54229 0.02559 0.0
C938 C 0.06867 0.52797 0.05243 0.0
C939 C 0.12995 0.52125 0.99168 0.0
C940 C 0.12258 0.50457 0.00406 0.0
C941 C 0.1658 0.50983 0.99022 0.0
C942 C 0.13672 0.49068 0.00959 0.0
C943 C 0.15159 0.52377 0.98471 0.0
C944 C 0.15855 0.49322 0.00287 0.0
C945 C 0.11519 0.53642 0.98705 0.0
O946 O 0.05267 0.574 0.04226 0.0
O947 O 0.07704 0.57758 0.01474 0.0
C948 C 0.06833 0.58607 0.03308 0.0
O949 O 0.05232 0.54301 0.97488 0.0
O950 O 0.0085 0.55427 0.05251 0.0
O951 O 0.99232 0.53282 0.02107 0.0
O952 O 0.0294 0.56112 0.9971 0.0
C953 C 0.03637 0.55459 0.97719 0.0
O954 O 0.06173 0.50577 0.00463 0.0
O955 O 0.02505 0.50868 0.00175 0.0
O956 O 0.04685 0.52539 0.04876 0.0
O957 O 0.0958 0.52663 0.97608 0.0
O958 O 0.11343 0.55197 0.00444 0.0
O959 O 0.08271 0.53715 0.03941 0.0
C960 C 0.97477 0.56169 0.03763 0.0
C961 C 0.97863 0.57615 0.02216 0.0
C962 C 0.94141 0.57604 0.04716 0.0
C963 C 0.96372 0.5901 0.01883 0.0
C964 C 0.95622 0.56189 0.05028 0.0
C965 C 0.94485 0.59008 0.03118 0.0
C966 C 0.98965 0.54594 0.03997 0.0
C967 C 0.04059 0.49658 0.99952 0.0
H968 H 0.1059 0.5024 0.00959 0.0
H969 H 0.18261 0.51236 0.98502 0.0
H970 H 0.13052 0.4779 0.01908 0.0
H971 H 0.15759 0.53667 0.97529 0.0
H972 H 0.99303 0.57642 0.01243 0.0
H973 H 0.92688 0.57549 0.05675 0.0
H974 H 0.96692 0.60087 0.00656 0.0
H975 H 0.95298 0.55085 0.0623 0.0
C976 C 0.00766 0.21862 0.96541 0.0
C977 C 0.99953 0.23852 0.96975 0.0
C978 C 0.01141 0.20729 0.98294 0.0
C979 C 0.00594 0.21555 0.00519 0.0
C980 C 0.99571 0.23446 0.00915 0.0
C981 C 0.99314 0.24611 0.99146 0.0
C982 C 0.02278 0.18744 0.97792 0.0
C983 C 0.98838 0.24317 0.03215 0.0
C984 C 0.0132 0.17144 0.03855 0.0
C985 C 0.03579 0.17894 0.04703 0.0
C986 C 1.00185 0.18487 0.02763 0.0
C987 C 0.01365 0.20574 0.02429 0.0
C988 C 0.03534 0.21459 0.03547 0.0
C989 C 0.04594 0.20124 0.0472 0.0
C990 C 0.97801 0.17569 0.01762 0.0
C991 C 0.04839 0.23703 0.03279 0.0
H992 H 0.01267 0.21277 0.94865 0.0
H993 H 0.98661 0.26141 0.99478 0.0
H994 H 0.03882 0.19088 0.9888 0.0
H995 H 0.01215 0.17235 0.98192 0.0
H996 H 0.02632 0.1835 0.95979 0.0
H997 H 0.97312 0.25022 0.03016 0.0
H998 H 0.98493 0.22992 0.04238 0.0
H999 H 1.0017 0.25694 0.04174 0.0
H1000 H 0.00486 0.15441 0.03854 0.0
H1001 H 0.06299 0.2076 0.05473 0.0
H1002 H 0.97782 0.1674 0.99953 0.0
H1003 H 0.96846 0.18935 0.0182 0.0
H1004 H 0.96944 0.16306 0.02686 0.0
H1005 H 0.05206 0.23622 0.01476 0.0
H1006 H 0.06447 0.24211 0.04376 0.0
H1007 H 0.03842 0.25019 0.03713 0.0
C1008 C 0.17001 0.83907 0.1825 0.0
C1009 C 0.16806 0.82449 0.16128 0.0
C1010 C 0.18803 0.84086 0.1987 0.0
C1011 C 0.20397 0.8272 0.19374 0.0
C1012 C 0.2028 0.81348 0.1718 0.0
C1013 C 0.18496 0.81252 0.15568 0.0
C1014 C 0.18934 0.85645 0.22152 0.0
C1015 C 0.21945 0.79856 0.16589 0.0
C1016 C 0.25908 0.83254 0.22811 0.0
C1017 C 0.25367 0.81568 0.24073 0.0
C1018 C 0.24265 0.83784 0.21401 0.0
C1019 C 0.22052 0.82539 0.212 0.0
C1020 C 0.21475 0.8093 0.22582 0.0
C1021 C 0.23143 0.80486 0.24033 0.0
C1022 C 0.24936 0.85563 0.20018 0.0
C1023 C 0.19141 0.79539 0.22384 0.0
H1024 H 0.157 0.84848 0.18673 0.0
H1025 H 0.18341 0.80118 0.13931 0.0
H1026 H 0.18478 0.84653 0.23478 0.0
H1027 H 0.20666 0.86611 0.22651 0.0
H1028 H 0.17787 0.86841 0.22136 0.0
H1029 H 0.2166 0.78947 0.14784 0.0
H1030 H 0.23672 0.80861 0.16891 0.0
H1031 H 0.21825 0.78604 0.17706 0.0
H1032 H 0.27638 0.84089 0.2285 0.0
H1033 H 0.2274 0.79161 0.24988 0.0
H1034 H 0.23622 0.86566 0.19905 0.0
H1035 H 0.25166 0.84753 0.18258 0.0
H1036 H 0.26534 0.86712 0.20757 0.0
H1037 H 0.17894 0.80636 0.22589 0.0
H1038 H 0.18937 0.78457 0.23673 0.0
H1039 H 0.18756 0.78451 0.20661 0.0
C1040 C 0.52011 0.86413 0.45352 0.0
C1041 C 0.52899 0.85932 0.43248 0.0
C1042 C 0.52147 0.88634 0.4649 0.0
C1043 C 0.53194 0.90411 0.45498 0.0
C1044 C 0.54089 0.89939 0.43375 0.0
C1045 C 0.53932 0.87705 0.42276 0.0
C1046 C 0.51186 0.89079 0.48759 0.0
C1047 C 0.55224 0.91797 0.42269 0.0
C1048 C 0.52169 0.96323 0.4722 0.0
C1049 C 0.54156 0.9739 0.48571 0.0
C1050 C 0.51789 0.94021 0.46272 0.0
C1051 C 0.53429 0.92771 0.46704 0.0
C1052 C 0.55382 0.93819 0.48164 0.0
C1053 C 0.55723 0.96117 0.49076 0.0
C1054 C 0.49684 0.92951 0.44725 0.0
C1055 C 0.57159 0.92536 0.48684 0.0
H1056 H 0.51207 0.85054 0.46116 0.0
H1057 H 0.54618 0.87352 0.4065 0.0
H1058 H 0.52527 0.90012 0.501 0.0
H1059 H 0.49925 0.90146 0.48678 0.0
H1060 H 0.50386 0.87508 0.49277 0.0
H1061 H 0.55786 0.91147 0.40589 0.0
H1062 H 0.54065 0.92934 0.42024 0.0
H1063 H 0.56699 0.92815 0.43397 0.0
H1064 H 0.50953 0.973 0.46828 0.0
H1065 H 0.5725 0.96928 0.50146 0.0
H1066 H 0.4884 0.91406 0.45253 0.0
H1067 H 0.50118 0.92454 0.42955 0.0
H1068 H 0.4849 0.94103 0.44723 0.0
H1069 H 0.58486 0.93556 0.50001 0.0
H1070 H 0.5795 0.91999 0.47108 0.0
H1071 H 0.56404 0.90999 0.49281 0.0
C1072 C 0.51474 0.28534 0.64099 0.0
C1073 C 0.52785 0.27041 0.64653 0.0
C1074 C 0.49361 0.28523 0.64909 0.0
C1075 C 0.48552 0.26976 0.66284 0.0
C1076 C 0.49778 0.25329 0.66655 0.0
C1077 C 0.51885 0.25388 0.65842 0.0
C1078 C 0.48085 0.30286 0.64454 0.0
C1079 C 0.48959 0.23625 0.68081 0.0
C1080 C 0.45317 0.28703 0.71276 0.0
C1081 C 0.43163 0.2746 0.70523 0.0
C1082 C 0.47059 0.28636 0.69864 0.0
C1083 C 0.46637 0.27291 0.67641 0.0
C1084 C 0.44443 0.26111 0.6683 0.0
C1085 C 0.42726 0.26209 0.68286 0.0
C1086 C 0.49374 0.29934 0.7079 0.0
C1087 C 0.43929 0.24666 0.6447 0.0
H1088 H 0.52157 0.29808 0.63169 0.0
H1089 H 0.52876 0.24202 0.66237 0.0
H1090 H 0.46278 0.29557 0.64036 0.0
H1091 H 0.4826 0.31615 0.66011 0.0
H1092 H 0.48719 0.31078 0.63036 0.0
H1093 H 0.49952 0.22283 0.67949 0.0
H1094 H 0.4908 0.24477 0.69897 0.0
H1095 H 0.47178 0.22839 0.67556 0.0
H1096 H 0.45647 0.29707 0.72989 0.0
H1097 H 0.4106 0.25241 0.67701 0.0
H1098 H 0.50064 0.31009 0.69605 0.0
H1099 H 0.50508 0.2875 0.70938 0.0
H1100 H 0.49389 0.31013 0.72494 0.0
H1101 H 0.44712 0.25567 0.6319 0.0
H1102 H 0.42102 0.24145 0.63976 0.0
H1103 H 0.44639 0.23135 0.64413 0.0
C1104 C 0.99176 0.80149 0.55392 0.0
C1105 C 0.99287 0.80912 0.57757 0.0
C1106 C 0.99569 0.81671 0.53918 0.0
C1107 C 1.00131 0.84 0.54843 0.0
C1108 C 1.0009 0.84778 0.57212 0.0
C1109 C 0.99644 0.83225 0.58636 0.0
C1110 C 0.99519 0.80783 0.51392 0.0
C1111 C 0.00693 0.87248 0.58274 0.0
C1112 C 0.04228 0.87901 0.52165 0.0
C1113 C 0.02846 0.8922 0.5138 0.0
C1114 C 0.03342 0.86117 0.53197 0.0
C1115 C 0.01013 0.8562 0.53407 0.0
C1116 C 0.99591 0.8685 0.52469 0.0
C1117 C 0.0053 0.88657 0.51489 0.0
C1118 C 0.04921 0.84867 0.54203 0.0
C1119 C 0.97096 0.86337 0.52604 0.0
H1120 H 0.98882 0.78363 0.54699 0.0
H1121 H 0.99724 0.8383 0.60461 0.0
H1122 H 0.98645 0.81772 0.50405 0.0
H1123 H 0.01254 0.80943 0.50896 0.0
H1124 H 0.98679 0.78989 0.50905 0.0
H1125 H 0.00432 0.87583 0.60115 0.0
H1126 H 0.02477 0.87901 0.58087 0.0
H1127 H 0.99684 0.88203 0.57387 0.0
H1128 H 0.06019 0.88351 0.52095 0.0
H1129 H 0.9946 0.89673 0.50865 0.0
H1130 H 0.04359 0.83033 0.53586 0.0
H1131 H 0.04921 0.85205 0.56088 0.0
H1132 H 0.06662 0.85365 0.53771 0.0
H1133 H 0.96435 0.84503 0.52142 0.0
H1134 H 0.96201 0.8718 0.51466 0.0
H1135 H 0.9672 0.8692 0.54378 0.0
C1136 C 0.55292 0.79647 0.8004 0.0
C1137 C 0.55376 0.79152 0.82233 0.0
C1138 C 0.53247 0.79576 0.78829 0.0
C1139 C 0.5124 0.78971 0.79824 0.0
C1140 C 0.51303 0.78233 0.81922 0.0
C1141 C 0.53377 0.7834 0.8311 0.0
C1142 C 0.53256 0.80373 0.76596 0.0
C1143 C 0.49191 0.77525 0.83011 0.0
C1144 C 0.46677 0.82156 0.78866 0.0
C1145 C 0.45174 0.80598 0.77218 0.0
C1146 C 0.48664 0.81646 0.79694 0.0
C1147 C 0.49149 0.79505 0.78893 0.0
C1148 C 0.47656 0.77922 0.77221 0.0
C1149 C 0.45692 0.78494 0.76387 0.0
C1150 C 0.50227 0.83395 0.81462 0.0
C1151 C 0.48113 0.75616 0.76349 0.0
H1152 H 0.56828 0.80237 0.79325 0.0
H1153 H 0.53424 0.77924 0.84788 0.0
H1154 H 0.51933 0.79283 0.75324 0.0
H1155 H 0.52903 0.82093 0.76876 0.0
H1156 H 0.54894 0.80416 0.75873 0.0
H1157 H 0.49487 0.76613 0.84394 0.0
H1158 H 0.48542 0.79035 0.83753 0.0
H1159 H 0.47877 0.76439 0.81725 0.0
H1160 H 0.46274 0.83761 0.79572 0.0
H1161 H 0.44553 0.77284 0.751 0.0
H1162 H 0.51917 0.83728 0.80861 0.0
H1163 H 0.5039 0.82768 0.83068 0.0
H1164 H 0.49637 0.85005 0.81845 0.0
H1165 H 0.49755 0.7575 0.75632 0.0
H1166 H 0.46804 0.74592 0.75015 0.0
H1167 H 0.48201 0.74718 0.7778 0.0
C1168 C 0.53011 0.18107 0.12563 0.0
C1169 C 0.51789 0.19372 0.1145 0.0
C1170 C 0.53274 0.15975 0.11481 0.0
C1171 C 0.52286 0.15079 0.09232 0.0
C1172 C 0.50985 0.16307 0.08124 0.0
C1173 C 0.50756 0.18444 0.09245 0.0
C1174 C 0.5468 0.14718 0.12715 0.0
C1175 C 0.49895 0.15393 0.05728 0.0
C1176 C 0.55091 0.11006 0.05465 0.0
C1177 C 0.53725 0.08937 0.05526 0.0
C1178 C 0.54648 0.13011 0.06685 0.0
C1179 C 0.52776 0.12948 0.07973 0.0
C1180 C 0.51401 0.10862 0.08062 0.0
C1181 C 0.51902 0.08874 0.06847 0.0
C1182 C 0.56176 0.15199 0.06577 0.0
C1183 C 0.4938 0.10737 0.09405 0.0
H1184 H 0.53808 0.18799 0.14272 0.0
H1185 H 0.49796 0.194 0.08377 0.0
H1186 H 0.53745 0.12998 0.12692 0.0
H1187 H 0.56204 0.14554 0.11828 0.0
H1188 H 0.552 0.15577 0.14514 0.0
H1189 H 0.48784 0.16467 0.05181 0.0
H1190 H 0.51201 0.15273 0.04524 0.0
H1191 H 0.489 0.13676 0.05599 0.0
H1192 H 0.5651 0.1106 0.04456 0.0
H1193 H 0.50832 0.07277 0.0688 0.0
H1194 H 0.56872 0.161 0.08321 0.0
H1195 H 0.55217 0.16296 0.05841 0.0
H1196 H 0.57587 0.14951 0.05531 0.0
H1197 H 0.49884 0.11552 0.11216 0.0
H1198 H 0.48502 0.08981 0.09328 0.0
H1199 H 0.48188 0.11664 0.08733 0.0
C1200 C 0.15291 0.27903 0.3371 0.0
C1201 C 0.1552 0.28488 0.361 0.0
C1202 C 0.17146 0.28106 0.32462 0.0
C1203 C 0.193 0.2885 0.33633 0.0
C1204 C 0.19567 0.29276 0.36049 0.0
C1205 C 0.17659 0.2911 0.37266 0.0
C1206 C 0.16787 0.27642 0.29887 0.0
C1207 C 0.21855 0.29991 0.37342 0.0
C1208 C 0.23878 0.279 0.29818 0.0
C1209 C 0.24551 0.3003 0.29318 0.0
C1210 C 0.22257 0.27519 0.31331 0.0
C1211 C 0.21233 0.29298 0.32293 0.0
C1212 C 0.21896 0.31453 0.31771 0.0
C1213 C 0.23593 0.31807 0.30322 0.0
C1214 C 0.21657 0.25224 0.31915 0.0
C1215 C 0.20793 0.33373 0.32716 0.0
H1216 H 0.13639 0.2738 0.32796 0.0
H1217 H 0.17841 0.29546 0.39113 0.0
H1218 H 0.17418 0.29197 0.29257 0.0
H1219 H 0.17738 0.26368 0.29141 0.0
H1220 H 0.14997 0.27034 0.29245 0.0
H1221 H 0.21791 0.29957 0.39184 0.0
H1222 H 0.22984 0.28884 0.3662 0.0
H1223 H 0.22599 0.31721 0.37173 0.0
H1224 H 0.24689 0.26551 0.29099 0.0
H1225 H 0.24175 0.33464 0.29975 0.0
H1226 H 0.19867 0.2449 0.31381 0.0
H1227 H 0.21905 0.25367 0.33789 0.0
H1228 H 0.22678 0.24051 0.31084 0.0
H1229 H 0.1898 0.32933 0.32139 0.0
H1230 H 0.21528 0.34949 0.3217 0.0
H1231 H 0.20952 0.33681 0.34605 0.0
C1232 C 0.98115 0.0529 0.19456 0.0
C1233 C 0.95822 0.05414 0.19485 0.0
C1234 C 0.99241 0.05065 0.17396 0.0
C1235 C 0.98115 0.04991 0.15214 0.0
C1236 C 0.95806 0.05138 0.15237 0.0
C1237 C 0.9471 0.05321 0.17317 0.0
C1238 C 0.01667 0.04888 0.17561 0.0
C1239 C 0.94472 0.05117 0.13039 0.0
C1240 C 0.01626 0.06465 0.10119 0.0
C1241 C 0.01624 0.0437 0.08672 0.0
C1242 C 0.00509 0.06685 0.12183 0.0
C1243 C 0.99335 0.04772 0.12946 0.0
C1244 C 0.9934 0.02651 0.11502 0.0
C1245 C 0.00438 0.02481 0.09423 0.0
C1246 C 0.0057 0.09002 0.13547 0.0
C1247 C 0.98179 0.00528 0.12164 0.0
H1248 H 0.99045 0.05344 0.21063 0.0
H1249 H 0.92957 0.05414 0.17237 0.0
H1250 H 0.01885 0.03318 0.16436 0.0
H1251 H 0.02686 0.06306 0.16957 0.0
H1252 H 0.02322 0.049 0.19329 0.0
H1253 H 0.9273 0.05313 0.133 0.0
H1254 H 0.95292 0.06493 0.12233 0.0
H1255 H 0.94423 0.03518 0.11825 0.0
H1256 H 0.02488 0.07969 0.0962 0.0
H1257 H 0.00377 0.00838 0.08383 0.0
H1258 H 0.01384 0.09167 0.15287 0.0
H1259 H 0.9884 0.09274 0.13732 0.0
H1260 H 0.01486 0.10336 0.12745 0.0
H1261 H 0.98858 1.00445 0.13895 0.0
H1262 H 0.98377 0.99001 0.10951 0.0
H1263 H 0.96371 0.00529 0.1223 0.0
C1264 C 0.31372 0.67896 0.48091 0.0
C1265 C 0.30558 0.65573 0.477 0.0
C1266 C 0.31278 0.69094 0.4633 0.0
C1267 C 0.30324 0.67948 0.44124 0.0
C1268 C 0.29523 0.65599 0.43709 0.0
C1269 C 0.2966 0.64436 0.455 0.0
C1270 C 0.32172 0.71595 0.46839 0.0
C1271 C 0.2848 0.64322 0.41385 0.0
C1272 C 0.28083 0.71522 0.40379 0.0
C1273 C 0.29829 0.71937 0.38995 0.0
C1274 C 0.28198 0.70179 0.42011 0.0
C1275 C 0.30109 0.69231 0.42278 0.0
C1276 C 0.31857 0.69601 0.40856 0.0
C1277 C 0.31694 0.70945 0.3923 0.0
C1278 C 0.26298 0.69825 0.43495 0.0
C1279 C 0.33922 0.68619 0.41087 0.0
H1280 H 0.32078 0.68785 0.49784 0.0
H1281 H 0.29022 0.62643 0.45187 0.0
H1282 H 0.33446 0.72033 0.45664 0.0
H1283 H 0.30799 0.72488 0.46554 0.0
H1284 H 0.32937 0.7222 0.48621 0.0
H1285 H 0.28003 0.62489 0.41321 0.0
H1286 H 0.26963 0.64944 0.40916 0.0
H1287 H 0.29658 0.64608 0.4008 0.0
H1288 H 0.2665 0.72304 0.40233 0.0
H1289 H 0.33037 0.7123 0.38147 0.0
H1290 H 0.26898 0.70597 0.45298 0.0
H1291 H 0.25687 0.68007 0.43411 0.0
H1292 H 0.24874 0.70567 0.42983 0.0
H1293 H 0.34817 0.69308 0.42805 0.0
H1294 H 0.35088 0.68987 0.39788 0.0
H1295 H 0.33448 0.66774 0.40919 0.0
C1296 C 0.62499 0.01133 0.66021 0.0
C1297 C 0.64601 0.00574 0.65725 0.0
C1298 C 0.6111 0.01321 0.64163 0.0
C1299 C 0.61811 0.00874 0.61947 0.0
C1300 C 0.63829 1.00093 0.61611 0.0
C1301 C 0.65219 0.99976 0.63514 0.0
C1302 C 0.58993 0.02196 0.64602 0.0
C1303 C 0.64591 0.99528 0.59258 0.0
C1304 C 0.57617 0.0079 0.56993 0.0
C1305 C 0.58341 0.02931 0.56532 0.0
C1306 C 0.58754 1.00068 0.58728 0.0
C1307 C 0.6061 0.0155 0.60055 0.0
C1308 C 0.61299 0.03737 0.59629 0.0
C1309 C 0.60174 0.04387 0.57848 0.0
C1310 C 0.58012 0.97708 0.59101 0.0
C1311 C 0.63232 0.0539 0.61046 0.0
H1312 H 0.61993 0.01572 0.67724 0.0
H1313 H 0.66827 0.99513 0.63274 0.0
H1314 H 0.59217 0.03935 0.643 0.0
H1315 H 0.57567 0.01169 0.63415 0.0
H1316 H 0.58556 0.02213 0.66379 0.0
H1317 H 0.65962 0.98574 0.59243 0.0
H1318 H 0.6318 0.9853 0.58029 0.0
H1319 H 0.65206 0.01099 0.58651 0.0
H1320 H 0.56226 0.99651 0.55934 0.0
H1321 H 0.60733 0.06039 0.57477 0.0
H1322 H 0.57612 0.97736 0.60886 0.0
H1323 H 0.59395 0.96782 0.58822 0.0
H1324 H 0.56524 0.96774 0.57937 0.0
H1325 H 0.62932 0.05631 0.62876 0.0
H1326 H 0.63497 0.07051 0.60542 0.0
H1327 H 0.64791 0.04727 0.60865 0.0
C1328 C 0.29913 0.36511 0.93806 0.0
C1329 C 0.30324 0.3554 0.95694 0.0
C1330 C 0.29894 0.35349 0.9156 0.0
C1331 C 0.30275 0.33132 0.91151 0.0
C1332 C 0.30649 0.32111 0.93035 0.0
C1333 C 0.30679 0.33329 0.95285 0.0
C1334 C 0.29498 0.3652 0.89619 0.0
C1335 C 0.31039 0.29741 0.92671 0.0
C1336 C 0.28304 0.3003 0.85057 0.0
C1337 C 0.30277 0.30378 0.83964 0.0
C1338 C 0.28303 0.30784 0.87423 0.0
C1339 C 0.30319 0.31938 0.8874 0.0
C1340 C 0.32332 0.32205 0.87664 0.0
C1341 C 0.32288 0.31417 0.85298 0.0
C1342 C 0.2612 0.30442 0.88491 0.0
C1343 C 0.34518 0.33442 0.88987 0.0
H1344 H 0.29631 0.38213 0.94075 0.0
H1345 H 0.30996 0.32556 0.96719 0.0
H1346 H 0.30958 0.36619 0.88595 0.0
H1347 H 0.2802 0.35548 0.88467 0.0
H1348 H 0.29218 0.38247 0.90222 0.0
H1349 H 0.31207 0.29148 0.94299 0.0
H1350 H 0.29636 0.2859 0.91543 0.0
H1351 H 0.32583 0.29638 0.91803 0.0
H1352 H 0.26741 0.29212 0.84055 0.0
H1353 H 0.33825 0.31693 0.84481 0.0
H1354 H 0.25602 0.32077 0.88983 0.0
H1355 H 0.26319 0.29772 0.90067 0.0
H1356 H 0.24761 0.29277 0.8731 0.0
H1357 H 0.34462 0.35244 0.89518 0.0
H1358 H 0.35965 0.33302 0.87967 0.0
H1359 H 0.3479 0.32788 0.9056 0.0
C1360 C 0.95502 0.05105 0.35661 0.0
C1361 C 0.96856 0.05643 0.33921 0.0
C1362 C 0.96425 0.04921 0.37875 0.0
C1363 C 0.98791 0.05315 0.38467 0.0
C1364 C 1.00152 0.0593 0.36737 0.0
C1365 C 0.99191 0.06038 0.3453 0.0
C1366 C 0.94846 0.04205 0.39562 0.0
C1367 C 0.02662 0.06442 0.372 0.0
C1368 C 0.01308 0.06508 0.44924 0.0
C1369 C 0.01975 0.04493 0.45208 0.0
C1370 C 0.00302 0.06798 0.42795 0.0
C1371 C 0.99845 0.05021 0.40825 0.0
C1372 C 0.00482 0.02973 0.41116 0.0
C1373 C 0.01543 0.0275 0.43244 0.0
C1374 C 0.9976 0.09046 0.42649 0.0
C1375 C 1.00028 0.00982 0.39162 0.0
H1376 H 0.93706 0.04713 0.35258 0.0
H1377 H 0.00297 0.06411 0.3324 0.0
H1378 H 0.95119 0.02583 0.39941 0.0
H1379 H 0.95189 0.0545 0.41191 0.0
H1380 H 0.93067 0.04011 0.38918 0.0
H1381 H 0.03505 0.07115 0.35808 0.0
H1382 H 0.0318 0.0768 0.38822 0.0
H1383 H 0.03255 0.04894 0.37396 0.0
H1384 H 0.01612 0.07898 0.46371 0.0
H1385 H 0.02008 0.0117 0.43374 0.0
H1386 H 0.9794 0.08861 0.42208 0.0
H1387 H 0.00629 0.09712 0.41268 0.0
H1388 H 0.00257 0.1029 0.44272 0.0
H1389 H 0.98238 0.00608 0.38504 0.0
H1390 H 0.00454 0.9946 0.39662 0.0
H1391 H 0.01019 0.01374 0.37742 0.0
C1392 C 0.30738 0.66333 0.63117 0.0
C1393 C 0.30733 0.66656 0.6086 0.0
C1394 C 0.30552 0.68079 0.64928 0.0
C1395 C 0.3032 0.70197 0.64474 0.0
C1396 C 0.30299 0.70529 0.62198 0.0
C1397 C 0.30521 0.68764 0.60425 0.0
C1398 C 0.30625 0.67663 0.67331 0.0
C1399 C 0.30041 0.7275 0.61634 0.0
C1400 C 0.2808 0.74104 0.69125 0.0
C1401 C 0.3006 0.75502 0.70241 0.0
C1402 C 0.28128 0.72409 0.67206 0.0
C1403 C 0.30205 0.72091 0.66395 0.0
C1404 C 0.32198 0.73544 0.67472 0.0
C1405 C 0.321 0.7523 0.69364 0.0
C1406 C 0.25962 0.70914 0.66089 0.0
C1407 C 0.34451 0.73266 0.66681 0.0
H1408 H 0.30899 0.64714 0.63474 0.0
H1409 H 0.30494 0.69028 0.58688 0.0
H1410 H 0.32056 0.68838 0.68394 0.0
H1411 H 0.29082 0.67986 0.68107 0.0
H1412 H 0.30791 0.65919 0.674 0.0
H1413 H 0.29975 0.72716 0.59773 0.0
H1414 H 0.2849 0.73216 0.62276 0.0
H1415 H 0.3146 0.74086 0.62498 0.0
H1416 H 0.26497 0.74287 0.69788 0.0
H1417 H 0.33647 0.76293 0.70203 0.0
H1418 H 0.25933 0.69171 0.66314 0.0
H1419 H 0.25827 0.7088 0.64229 0.0
H1420 H 0.2448 0.71473 0.66815 0.0
H1421 H 0.3477 0.71605 0.6689 0.0
H1422 H 0.35837 0.74586 0.67647 0.0
H1423 H 0.34472 0.73317 0.64843 0.0
C1424 C 0.63614 0.07206 0.7852 0.0
C1425 C 0.65486 0.06256 0.78021 0.0
C1426 C 0.62912 0.07492 0.80717 0.0
C1427 C 0.64126 0.06836 0.82466 0.0
C1428 C 0.66104 0.06021 0.82018 0.0
C1429 C 0.66756 0.05726 0.79791 0.0
C1430 C 0.60788 0.08364 0.81126 0.0
C1431 C 0.67465 0.05353 0.8386 0.0
C1432 C 0.62329 0.08648 0.88355 0.0
C1433 C 0.60774 0.06734 0.88541 0.0
C1434 C 0.63545 0.08671 0.86439 0.0
C1435 C 0.63156 0.06748 0.84665 0.0
C1436 C 0.61645 0.04787 0.84888 0.0
C1437 C 0.6048 0.04802 0.86831 0.0
C1438 C 0.65175 0.10775 0.86275 0.0
C1439 C 0.61165 0.0271 0.8302 0.0
H1440 H 0.62633 0.07643 0.77171 0.0
H1441 H 0.68223 0.0502 0.79427 0.0
H1442 H 0.5948 0.07008 0.81493 0.0
H1443 H 0.61072 0.0976 0.82632 0.0
H1444 H 0.60142 0.08967 0.79635 0.0
H1445 H 0.69124 0.05088 0.83333 0.0
H1446 H 0.67717 0.06652 0.85448 0.0
H1447 H 0.66551 0.03771 0.84263 0.0
H1448 H 0.62573 0.10134 0.89695 0.0
H1449 H 0.59263 0.03328 0.86968 0.0
H1450 H 0.6448 0.11594 0.8498 0.0
H1451 H 0.66775 0.10363 0.85716 0.0
H1452 H 0.65525 0.11994 0.87926 0.0
H1453 H 0.60357 0.03084 0.81471 0.0
H1454 H 0.60048 0.01285 0.83523 0.0
H1455 H 0.62745 0.02182 0.82557 0.0
C1456 C 0.32898 0.36333 0.11936 0.0
C1457 C 0.31254 0.35388 0.1011 0.0
C1458 C 0.32785 0.35631 0.1404 0.0
C1459 C 0.30949 0.33983 0.14362 0.0
C1460 C 0.2928 0.33028 0.12525 0.0
C1461 C 0.29468 0.33719 0.10419 0.0
C1462 C 0.34637 0.36649 0.15919 0.0
C1463 C 0.27273 0.313 0.12797 0.0
C1464 C 0.31456 0.30577 0.18998 0.0
C1465 C 0.30458 0.31712 0.20792 0.0
C1466 C 0.31666 0.31324 0.16928 0.0
C1467 C 0.30798 0.33222 0.16599 0.0
C1468 C 0.29781 0.34374 0.18402 0.0
C1469 C 0.29654 0.33627 0.20488 0.0
C1470 C 0.32828 0.30082 0.15095 0.0
C1471 C 0.28791 0.36375 0.18115 0.0
H1472 H 0.34285 0.37623 0.11716 0.0
H1473 H 0.28175 0.32998 0.0903 0.0
H1474 H 0.33954 0.37532 0.17424 0.0
H1475 H 0.35379 0.35308 0.16472 0.0
H1476 H 0.35983 0.37859 0.1538 0.0
H1477 H 0.26084 0.30772 0.11236 0.0
H1478 H 0.27818 0.29796 0.13207 0.0
H1479 H 0.26379 0.31987 0.14242 0.0
H1480 H 0.3211 0.29113 0.19227 0.0
H1481 H 0.28877 0.34509 0.21862 0.0
H1482 H 0.34216 0.31262 0.14581 0.0
H1483 H 0.3164 0.29347 0.13559 0.0
H1484 H 0.33517 0.28713 0.1566 0.0
H1485 H 0.301 0.37716 0.17729 0.0
H1486 H 0.28031 0.37069 0.19661 0.0
H1487 H 0.27489 0.3589 0.16649 0.0
C1488 C 0.19929 0.97045 0.01776 0.0
C1489 C 0.21578 0.98238 0.00673 0.0
C1490 C 0.17903 0.97763 0.02209 0.0
C1491 C 0.17454 0.99695 0.01464 0.0
C1492 C 0.19111 0.00907 0.00343 0.0
C1493 C 0.21157 1.00188 0.99994 0.0
C1494 C 0.16234 0.96439 0.03459 0.0
C1495 C 0.18696 0.02935 0.99454 0.0
C1496 C 0.11267 1.00023 0.00488 0.0
C1497 C 0.10972 0.01632 0.02379 0.0
C1498 C 0.13359 0.99417 0.00155 0.0
C1499 C 0.15221 1.00387 0.01782 0.0
C1500 C 0.14925 0.01981 0.0372 0.0
C1501 C 0.12824 0.02611 0.03975 0.0
C1502 C 0.13582 0.97761 0.9803 0.0
C1503 C 0.16829 0.03017 0.05536 0.0
H1504 H 0.20232 0.95546 0.02327 0.0
H1505 H 0.22405 0.01117 0.99129 0.0
H1506 H 0.15769 0.97568 0.04944 0.0
H1507 H 0.14683 0.95683 0.02319 0.0
H1508 H 0.16891 0.95076 0.04073 0.0
H1509 H 0.20143 0.03705 0.9863 0.0
H1510 H 0.17205 0.0245 0.98191 0.0
H1511 H 0.18337 0.04216 0.00865 0.0
H1512 H 0.0987 0.99279 0.99216 0.0
H1513 H 0.12628 0.03858 0.05437 0.0
H1514 H 0.14067 0.96253 0.98498 0.0
H1515 H 0.14925 0.98518 0.97074 0.0
H1516 H 0.12006 0.97223 0.96884 0.0
H1517 H 0.17473 0.0168 0.0621 0.0
H1518 H 0.16321 0.04169 0.06977 0.0
H1519 H 0.18228 0.03968 0.04793 0.0
C1520 C 0.68792 0.65557 0.98005 0.0
C1521 C 0.7082 0.64851 0.98301 0.0
C1522 C 0.66742 0.64149 0.98179 0.0
C1523 C 0.66731 0.62009 0.98711 0.0
C1524 C 0.68772 0.61273 0.98957 0.0
C1525 C 0.70782 0.62689 0.98724 0.0
C1526 C 0.64596 0.64976 0.97856 0.0
C1527 C 0.68846 0.59028 0.99573 0.0
C1528 C 0.62057 0.59492 0.01933 0.0
C1529 C 0.6081 0.57751 0.0025 0.0
C1530 C 0.63964 0.60904 0.01443 0.0
C1531 C 0.64622 0.60603 0.99198 0.0
C1532 C 0.63346 0.58877 0.97475 0.0
C1533 C 0.61468 0.57451 0.98028 0.0
C1534 C 0.65303 0.62686 0.03345 0.0
C1535 C 0.63966 0.58537 0.95051 0.0
H1536 H 0.68808 0.67218 0.97663 0.0
H1537 H 0.72339 0.62125 0.98956 0.0
H1538 H 0.63353 0.63682 0.96664 0.0
H1539 H 0.63864 0.65289 0.9951 0.0
H1540 H 0.64861 0.66553 0.97188 0.0
H1541 H 0.7056 0.58668 0.99616 0.0
H1542 H 0.6823 0.58993 0.01275 0.0
H1543 H 0.6773 0.57664 0.98331 0.0
H1544 H 0.61562 0.59732 0.03657 0.0
H1545 H 0.60493 0.56128 0.96713 0.0
H1546 H 0.65427 0.64364 0.02905 0.0
H1547 H 0.6703 0.62392 0.03572 0.0
H1548 H 0.64554 0.62712 0.04994 0.0
H1549 H 0.64113 0.60131 0.94425 0.0
H1550 H 0.6272 0.57222 0.93882 0.0
H1551 H 0.6562 0.58048 0.94981 0.0
C1552 C 0.72973 0.44848 0.25333 0.0
C1553 C 0.71054 0.45161 0.26494 0.0
C1554 C 0.73974 0.42886 0.25235 0.0
C1555 C 0.73157 0.41108 0.26405 0.0
C1556 C 0.71245 0.41445 0.27622 0.0
C1557 C 0.70223 0.4338 0.27608 0.0
C1558 C 0.75928 0.42746 0.23829 0.0
C1559 C 0.70242 0.39761 0.28987 0.0
C1560 C 0.74249 0.34796 0.25197 0.0
C1561 C 0.76407 0.34918 0.26286 0.0
C1562 C 0.73226 0.36729 0.25176 0.0
C1563 C 0.7428 0.38954 0.26366 0.0
C1564 C 0.76437 0.39068 0.27527 0.0
C1565 C 0.77459 0.37121 0.27429 0.0
C1566 C 0.70988 0.36323 0.23824 0.0
C1567 C 0.77716 0.41256 0.28938 0.0
H1568 H 0.73691 0.46139 0.24439 0.0
H1569 H 0.68765 0.43512 0.28533 0.0
H1570 H 0.77485 0.43657 0.24891 0.0
H1571 H 0.76094 0.40989 0.23192 0.0
H1572 H 0.75769 0.43566 0.22346 0.0
H1573 H 0.69439 0.40569 0.30447 0.0
H1574 H 0.68928 0.3847 0.27882 0.0
H1575 H 0.71511 0.38912 0.29653 0.0
H1576 H 0.73345 0.33164 0.24299 0.0
H1577 H 0.79098 0.37333 0.28323 0.0
H1578 H 0.70552 0.37878 0.23424 0.0
H1579 H 0.69679 0.35547 0.24805 0.0
H1580 H 0.70963 0.35115 0.22198 0.0
H1581 H 0.78975 0.42038 0.27913 0.0
H1582 H 0.78637 0.40965 0.3047 0.0
H1583 H 0.76617 0.42451 0.29505 0.0
C1584 C 0.86306 0.50568 0.50582 0.0
C1585 C 0.85021 0.4839 0.50297 0.0
C1586 C 0.88665 0.50972 0.50822 0.0
C1587 C 0.8979 0.49149 0.50692 0.0
C1588 C 0.88499 0.46945 0.50408 0.0
C1589 C 0.8614 0.46597 0.50253 0.0
C1590 C 0.89956 0.53356 0.51196 0.0
C1591 C 0.89607 0.44941 0.5019 0.0
C1592 C 0.95736 0.50187 0.48841 0.0
C1593 C 0.97065 0.5044 0.50893 0.0
C1594 C 0.9338 0.497 0.48743 0.0
C1595 C 0.92306 0.49545 0.50763 0.0
C1596 C 0.93646 0.49819 0.52847 0.0
C1597 C 0.96001 0.50222 0.52879 0.0
C1598 C 0.92039 0.49357 0.4647 0.0
C1599 C 0.92596 0.49744 0.55058 0.0
H1600 H 0.85462 0.51967 0.5063 0.0
H1601 H 0.85168 0.44905 0.50009 0.0
H1602 H 0.91191 0.53707 0.52711 0.0
H1603 H 0.90903 0.53599 0.49707 0.0
H1604 H 0.88847 0.54597 0.51448 0.0
H1605 H 0.88377 0.43338 0.49993 0.0
H1606 H 0.90593 0.44861 0.48688 0.0
H1607 H 0.90789 0.45109 0.51711 0.0
H1608 H 0.96543 0.50348 0.47298 0.0
H1609 H 0.97013 0.50453 0.54479 0.0
H1610 H 0.91059 0.50698 0.46487 0.0
H1611 H 0.9083 0.47733 0.46148 0.0
H1612 H 0.93115 0.49375 0.45037 0.0
H1613 H 0.91505 0.50998 0.55341 0.0
H1614 H 0.93864 0.50089 0.56547 0.0
H1615 H 0.91524 0.48072 0.54971 0.0
C1616 C 0.3377 0.08048 0.3045 0.0
C1617 C 0.35912 0.0873 0.29783 0.0
C1618 C 0.32103 0.09299 0.30228 0.0
C1619 C 0.32583 0.11236 0.29267 0.0
C1620 C 0.34773 0.11986 0.28696 0.0
C1621 C 0.36416 0.10736 0.28986 0.0
C1622 C 0.29807 0.08493 0.30926 0.0
C1623 C 0.35351 0.14037 0.2765 0.0
C1624 C 0.28328 0.13106 0.2566 0.0
C1625 C 0.28198 0.15178 0.27008 0.0
C1626 C 0.29628 0.11713 0.26445 0.0
C1627 C 0.3078 0.12385 0.28653 0.0
C1628 C 0.30459 0.14351 0.30112 0.0
C1629 C 0.29191 0.1574 0.29265 0.0
C1630 C 0.2993 0.09628 0.24831 0.0
C1631 C 0.31604 0.15089 0.32503 0.0
H1632 H 0.33379 0.06507 0.31087 0.0
H1633 H 0.38068 0.11273 0.2847 0.0
H1634 H 0.29158 0.09915 0.31886 0.0
H1635 H 0.28633 0.07746 0.29382 0.0
H1636 H 0.29811 0.07207 0.31993 0.0
H1637 H 0.37152 0.14438 0.27379 0.0
H1638 H 0.34356 0.13761 0.2598 0.0
H1639 H 0.34922 0.15514 0.28758 0.0
H1640 H 0.27514 0.12631 0.23939 0.0
H1641 H 0.29113 0.17338 0.30327 0.0
H1642 H 0.29701 0.0817 0.25684 0.0
H1643 H 0.31658 0.09882 0.24309 0.0
H1644 H 0.28742 0.09218 0.23271 0.0
H1645 H 0.3157 0.13636 0.3335 0.0
H1646 H 0.30813 0.16348 0.33563 0.0
H1647 H 0.33381 0.1586 0.32432 0.0
C1648 C 0.35357 0.16558 0.50502 0.0
C1649 C 0.33393 0.15101 0.50798 0.0
C1650 C 0.37441 0.15896 0.50606 0.0
C1651 C 0.37549 0.13724 0.50989 0.0
C1652 C 0.35561 0.12234 0.51222 0.0
C1653 C 0.33519 0.12941 0.51132 0.0
C1654 C 0.39528 0.17532 0.50358 0.0
C1655 C 0.3559 0.09894 0.51607 0.0
C1656 C 0.42308 0.10696 0.49598 0.0
C1657 C 0.4332 0.10793 0.51783 0.0
C1658 C 0.40518 0.11777 0.49292 0.0
C1659 C 0.39726 0.12991 0.51216 0.0
C1660 C 0.40835 0.13213 0.53409 0.0
C1661 C 0.42611 0.12105 0.53667 0.0
C1662 C 0.3938 0.11488 0.46926 0.0
C1663 C 0.40058 0.14507 0.55504 0.0
H1664 H 0.35274 0.18229 0.50246 0.0
H1665 H 0.32011 0.11789 0.51336 0.0
H1666 H 0.4064 0.17955 0.51969 0.0
H1667 H 0.40468 0.16761 0.49 0.0
H1668 H 0.39152 0.19108 0.49943 0.0
H1669 H 0.33886 0.08915 0.51674 0.0
H1670 H 0.36391 0.08968 0.50222 0.0
H1671 H 0.36592 0.09985 0.53234 0.0
H1672 H 0.42837 0.09676 0.48134 0.0
H1673 H 0.43413 0.1222 0.55355 0.0
H1674 H 0.39067 0.13115 0.46598 0.0
H1675 H 0.37734 0.10334 0.46777 0.0
H1676 H 0.40382 0.10783 0.45587 0.0
H1677 H 0.39798 0.16163 0.55215 0.0
H1678 H 0.41268 0.14773 0.57029 0.0
H1679 H 0.3843 0.13572 0.55868 0.0
C1680 C 0.70645 0.62168 0.28736 0.0
C1681 C 0.71144 0.60212 0.27399 0.0
C1682 C 0.71818 0.64388 0.28702 0.0
C1683 C 0.73538 0.64771 0.27228 0.0
C1684 C 0.74068 0.62803 0.25876 0.0
C1685 C 0.72902 0.60583 0.25991 0.0
C1686 C 0.71176 0.66344 0.30241 0.0
C1687 C 0.75823 0.63045 0.24224 0.0
C1688 C 0.74778 0.70735 0.25591 0.0
C1689 C 0.76788 0.71873 0.26921 0.0
C1690 C 0.73764 0.68457 0.25626 0.0
C1691 C 0.74708 0.67207 0.27072 0.0
C1692 C 0.76729 0.68353 0.28434 0.0
C1693 C 0.7774 0.70615 0.28321 0.0
C1694 C 0.71661 0.67377 0.24087 0.0
C1695 C 0.77815 0.67197 0.30063 0.0
H1696 H 0.69289 0.61964 0.29817 0.0
H1697 H 0.733 0.59141 0.2489 0.0
H1698 H 0.72684 0.67446 0.31245 0.0
H1699 H 0.70415 0.67364 0.29198 0.0
H1700 H 0.69965 0.65797 0.31437 0.0
H1701 H 0.7611 0.61397 0.2333 0.0
H1702 H 0.753 0.6397 0.22935 0.0
H1703 H 0.77426 0.64044 0.25131 0.0
H1704 H 0.73994 0.71624 0.24482 0.0
H1705 H 0.79275 0.71418 0.29378 0.0
H1706 H 0.70252 0.66988 0.25129 0.0
H1707 H 0.71874 0.65767 0.23036 0.0
H1708 H 0.71207 0.6847 0.22936 0.0
H1709 H 0.76624 0.66704 0.31296 0.0
H1710 H 0.79358 0.6828 0.31025 0.0
H1711 H 0.78244 0.65638 0.29116 0.0
C1712 C 0.8529 0.46319 0.80645 0.0
C1713 C 0.87269 0.46326 0.79561 0.0
C1714 C 0.83886 0.44294 0.80803 0.0
C1715 C 0.84477 0.42239 0.79851 0.0
C1716 C 0.865 0.42237 0.78814 0.0
C1717 C 0.8787 0.44279 0.78683 0.0
C1718 C 0.81744 0.44354 0.81927 0.0
C1719 C 0.87188 0.40076 0.77776 0.0
C1720 C 0.82053 0.36563 0.81115 0.0
C1721 C 0.80694 0.35573 0.7909 0.0
C1722 C 0.8318 0.38808 0.81476 0.0
C1723 C 0.82927 0.40074 0.79773 0.0
C1724 C 0.81407 0.39134 0.77819 0.0
C1725 C 0.80308 0.36893 0.77501 0.0
C1726 C 0.84772 0.39764 0.83592 0.0
C1727 C 0.81075 0.40433 0.75971 0.0
H1728 H 0.84817 0.47893 0.81338 0.0
H1729 H 0.894 0.44265 0.77856 0.0
H1730 H 0.80293 0.43684 0.8063 0.0
H1731 H 0.81603 0.43268 0.83212 0.0
H1732 H 0.81632 0.4608 0.82774 0.0
H1733 H 0.88865 0.40367 0.77132 0.0
H1734 H 0.87213 0.38993 0.79055 0.0
H1735 H 0.85953 0.39139 0.76336 0.0
H1736 H 0.82346 0.35551 0.82353 0.0
H1737 H 0.79227 0.36145 0.75949 0.0
H1738 H 0.84598 0.41497 0.84332 0.0
H1739 H 0.86516 0.39844 0.83138 0.0
H1740 H 0.84495 0.38722 0.84911 0.0
H1741 H 0.8081 0.42132 0.76718 0.0
H1742 H 0.79631 0.39567 0.74716 0.0
H1743 H 0.82599 0.40645 0.75047 0.0
C1744 C 0.07969 0.81764 0.04521 0.0
C1745 C 0.08603 0.83067 0.06719 0.0
C1746 C 0.07171 0.82699 0.02754 0.0
C1747 C 0.07034 0.84991 0.03199 0.0
C1748 C 0.07764 0.86333 0.05391 0.0
C1749 C 0.08522 0.85349 0.07129 0.0
C1750 C 0.06384 0.81214 0.00448 0.0
C1751 C 0.07678 0.88797 0.05924 0.0
C1752 C 0.06382 0.88581 0.98858 0.0
C1753 C 0.04207 0.88943 0.99159 0.0
C1754 C 0.07291 0.87135 1.00019 0.0
C1755 C 0.05968 0.85982 0.01458 0.0
C1756 C 0.03686 0.86105 0.01519 0.0
C1757 C 0.02838 0.876 0.00388 0.0
C1758 C 0.09728 0.87031 0.99891 0.0
C1759 C 0.022 0.8485 0.02984 0.0
H1760 H 0.08027 0.79995 0.04199 0.0
H1761 H 0.09032 0.86364 0.0882 0.0
H1762 H 0.04535 0.80928 0.00181 0.0
H1763 H 0.0706 0.82033 0.99067 0.0
H1764 H 0.06882 0.79559 0.00289 0.0
H1765 H 0.08464 0.89636 0.07659 0.0
H1766 H 0.0854 0.89668 0.04663 0.0
H1767 H 0.05912 0.89001 0.05804 0.0
H1768 H 0.07433 0.89551 0.97849 0.0
H1769 H 0.01157 0.8785 0.00649 0.0
H1770 H 0.09995 0.85298 0.99823 0.0
H1771 H 0.10709 0.88106 0.01446 0.0
H1772 H 0.10391 0.87637 0.98381 0.0
H1773 H 0.02463 0.83104 0.02817 0.0
H1774 H 0.00402 0.84802 0.0253 0.0
H1775 H 0.02624 0.85691 0.04799 0.0
C1776 C 0.94749 0.26188 0.83617 0.0
C1777 C 0.95157 0.27031 0.85968 0.0
C1778 C 0.92654 0.26049 0.82474 0.0
C1779 C 0.90958 0.26838 0.83708 0.0
C1780 C 0.91329 0.27592 0.86103 0.0
C1781 C 0.93426 0.27651 0.87213 0.0
C1782 C 0.92296 0.2517 0.7993 0.0
C1783 C 0.89571 0.28484 0.87467 0.0
C1784 C 0.86882 0.2924 0.80382 0.0
C1785 C 0.84962 0.27553 0.80096 0.0
C1786 C 0.88838 0.29037 0.81587 0.0
C1787 C 0.88882 0.27071 0.82463 0.0
C1788 C 0.86961 0.25338 0.8213 0.0
C1789 C 0.85008 0.25614 0.80975 0.0
C1790 C 0.90844 0.30942 0.81953 0.0
C1791 C 0.86971 0.23195 0.82987 0.0
H1792 H 0.96092 0.25694 0.82661 0.0
H1793 H 0.93754 0.28321 0.8903 0.0
H1794 H 0.90692 0.23942 0.79475 0.0
H1795 H 0.92197 0.26574 0.79042 0.0
H1796 H 0.93671 0.24353 0.79283 0.0
H1797 H 0.90052 0.28826 0.89332 0.0
H1798 H 0.89311 0.30068 0.86978 0.0
H1799 H 0.87949 0.2728 0.87087 0.0
H1800 H 0.86834 0.30749 0.79725 0.0
H1801 H 0.83519 0.24305 0.80743 0.0
H1802 H 0.92273 0.30356 0.81144 0.0
H1803 H 0.91364 0.31527 0.83803 0.0
H1804 H 0.90503 0.3239 0.81235 0.0
H1805 H 0.88313 0.2238 0.82257 0.0
H1806 H 0.85349 0.21989 0.82537 0.0
H1807 H 0.87336 0.23571 0.84867 0.0
C1808 C 0.60564 0.22079 0.56791 0.0
C1809 C 0.61188 0.22359 0.59133 0.0
C1810 C 0.60266 0.19969 0.5535 0.0
C1811 C 0.60611 0.18106 0.56274 0.0
C1812 C 0.61448 0.18419 0.58585 0.0
C1813 C 0.61723 0.20546 0.59992 0.0
C1814 C 0.59389 0.19704 0.52889 0.0
C1815 C 0.6187 0.16473 0.59621 0.0
C1816 C 0.56729 0.12526 0.54062 0.0
C1817 C 0.58106 0.11319 0.52768 0.0
C1818 C 0.57513 0.14759 0.5515 0.0
C1819 C 0.59739 0.15805 0.54956 0.0
C1820 C 0.61118 0.14622 0.53589 0.0
C1821 C 0.60278 0.12386 0.52497 0.0
C1822 C 0.55975 0.15977 0.56562 0.0
C1823 C 0.635 0.15687 0.53352 0.0
H1824 H 0.60179 0.23478 0.56101 0.0
H1825 H 0.6224 0.20754 0.61791 0.0
H1826 H 0.6026 0.1859 0.51748 0.0
H1827 H 0.57585 0.18916 0.52668 0.0
H1828 H 0.59581 0.21343 0.52342 0.0
H1829 H 0.62836 0.17042 0.61321 0.0
H1830 H 0.60247 0.15413 0.59823 0.0
H1831 H 0.62792 0.15407 0.58488 0.0
H1832 H 0.55038 0.11713 0.54251 0.0
H1833 H 0.6135 0.11452 0.51504 0.0
H1834 H 0.55861 0.17562 0.55994 0.0
H1835 H 0.5666 0.16424 0.58377 0.0
H1836 H 0.54261 0.14953 0.56447 0.0
H1837 H 0.63581 0.17361 0.52912 0.0
H1838 H 0.64265 0.14635 0.5203 0.0
H1839 H 0.64516 0.15941 0.55005 0.0
C1840 C 0.59384 0.77604 0.40161 0.0
C1841 C 0.57277 0.76739 0.38957 0.0
C1842 C 0.6133 0.77799 0.39009 0.0
C1843 C 0.61149 0.77129 0.36604 0.0
C1844 C 0.5904 0.76136 0.35402 0.0
C1845 C 0.57133 0.7594 0.36595 0.0
C1846 C 0.6356 0.78828 0.40349 0.0
C1847 C 0.58774 0.75404 0.32836 0.0
C1848 C 0.65266 0.80134 0.33158 0.0
C1849 C 0.66551 0.78521 0.32453 0.0
C1850 C 0.63547 0.79724 0.34567 0.0
C1851 C 0.63113 0.77657 0.35307 0.0
C1852 C 0.64448 0.76048 0.34664 0.0
C1853 C 0.66146 0.76495 0.33234 0.0
C1854 C 0.62153 0.81481 0.3521 0.0
C1855 C 0.6404 0.7383 0.35431 0.0
H1856 H 0.59508 0.78209 0.41989 0.0
H1857 H 0.55512 0.7525 0.35653 0.0
H1858 H 0.64823 0.77807 0.39822 0.0
H1859 H 0.64161 0.80523 0.39993 0.0
H1860 H 0.63457 0.78988 0.42215 0.0
H1861 H 0.57048 0.74502 0.32181 0.0
H1862 H 0.59179 0.76897 0.32045 0.0
H1863 H 0.59953 0.74295 0.32274 0.0
H1864 H 0.65601 0.81722 0.32602 0.0
H1865 H 0.67121 0.75232 0.32683 0.0
H1866 H 0.62162 0.81924 0.37091 0.0
H1867 H 0.60392 0.80801 0.34503 0.0
H1868 H 0.62765 0.83034 0.34568 0.0
H1869 H 0.63963 0.74102 0.37305 0.0
H1870 H 0.6536 0.72857 0.34971 0.0
H1871 H 0.62405 0.72809 0.34629 0.0
C1872 C 0.06768 0.25874 0.45557 0.0
C1873 C 0.06455 0.25135 0.43182 0.0
C1874 C 0.06113 0.24403 0.47024 0.0
C1875 C 0.05127 0.22138 0.46091 0.0
C1876 C 0.04705 0.2141 0.43696 0.0
C1877 C 0.05374 0.2292 0.42268 0.0
C1878 C 0.06581 0.25244 0.49568 0.0
C1879 C 0.03653 0.19006 0.4264 0.0
C1880 C 0.06139 0.17702 0.49371 0.0
C1881 C 0.04068 0.17124 0.50224 0.0
C1882 C 0.06511 0.19359 0.48061 0.0
C1883 C 0.0477 0.20478 0.47598 0.0
C1884 C 0.02699 0.19964 0.48522 0.0
C1885 C 0.02372 0.18288 0.49832 0.0
C1886 C 0.08752 0.19872 0.47125 0.0
C1887 C 0.00812 0.21134 0.4807 0.0
H1888 H 0.07585 0.27591 0.46277 0.0
H1889 H 0.05115 0.22342 0.40434 0.0
H1890 H 0.05075 0.24736 0.50443 0.0
H1891 H 0.07924 0.24482 0.5023 0.0
H1892 H 0.07118 0.27098 0.50024 0.0
H1893 H 0.03241 0.1876 0.4077 0.0
H1894 H 0.04821 0.17899 0.42958 0.0
H1895 H 0.02103 0.18462 0.43435 0.0
H1896 H 0.07466 0.16829 0.49707 0.0
H1897 H 0.00767 0.17835 0.50482 0.0
H1898 H 0.09502 0.21682 0.47669 0.0
H1899 H 0.0853 0.1949 0.45234 0.0
H1900 H 0.09946 0.18889 0.47695 0.0
H1901 H 0.01398 0.22979 0.48531 0.0
H1902 H 0.99364 0.20651 0.49039 0.0
H1903 H 0.00241 0.20709 0.46224 0.0
C1904 C 0.58779 0.28616 0.15159 0.0
C1905 C 0.57032 0.29588 0.16031 0.0
C1906 C 0.60652 0.28575 0.16595 0.0
C1907 C 0.60776 0.29553 0.18941 0.0
C1908 C 0.59136 0.3075 0.1977 0.0
C1909 C 0.57273 0.30747 0.18302 0.0
C1910 C 0.62384 0.273 0.15645 0.0
C1911 C 0.59244 0.31862 0.22248 0.0
C1912 C 0.63455 0.26454 0.22852 0.0
C1913 C 0.65628 0.27738 0.2331 0.0
C1914 C 0.61844 0.27068 0.21479 0.0
C1915 C 0.62417 0.29028 0.20566 0.0
C1916 C 0.64569 0.30399 0.21121 0.0
C1917 C 0.66158 0.29731 0.22479 0.0
C1918 C 0.59555 0.25567 0.2093 0.0
C1919 C 0.65226 0.3251 0.20194 0.0
H1920 H 0.58608 0.27733 0.13399 0.0
H1921 H 0.55937 0.31532 0.18972 0.0
H1922 H 0.64094 0.28272 0.16244 0.0
H1923 H 0.62202 0.25701 0.16265 0.0
H1924 H 0.62209 0.26905 0.13751 0.0
H1925 H 0.58067 0.33033 0.22533 0.0
H1926 H 0.58805 0.30559 0.23282 0.0
H1927 H 0.60961 0.328 0.2288 0.0
H1928 H 0.63032 0.24933 0.23519 0.0
H1929 H 0.67846 0.30717 0.22799 0.0
H1930 H 0.59259 0.24878 0.19069 0.0
H1931 H 0.58244 0.26546 0.21398 0.0
H1932 H 0.59359 0.24143 0.21839 0.0
H1933 H 0.65456 0.32057 0.18356 0.0
H1934 H 0.66808 0.33574 0.21085 0.0
H1935 H 0.63894 0.33512 0.20351 0.0
C1936 C 0.60467 0.89943 0.90175 0.0
C1937 C 0.59443 0.8785 0.90591 0.0
C1938 C 0.59843 0.91924 0.91249 0.0
C1939 C 0.58141 0.91803 0.92755 0.0
C1940 C 0.57058 0.89691 0.93128 0.0
C1941 C 0.57731 0.87743 0.92053 0.0
C1942 C 0.61051 0.94149 0.9083 0.0
C1943 C 0.55223 0.89492 0.94709 0.0
C1944 C 0.58088 0.96658 0.97611 0.0
C1945 C 0.56371 0.97614 0.96805 0.0
C1946 C 0.58729 0.94816 0.96273 0.0
C1947 C 0.57605 0.93884 0.94083 0.0
C1948 C 0.55902 0.94869 0.93234 0.0
C1949 C 0.55315 0.96739 0.94602 0.0
C1950 C 0.60578 0.93838 0.97228 0.0
C1951 C 0.54657 0.93906 0.90913 0.0
H1952 H 0.61789 0.9004 0.89044 0.0
H1953 H 0.56912 0.86133 0.92365 0.0
H1954 H 0.59834 0.95124 0.90302 0.0
H1955 H 0.62005 0.95151 0.92433 0.0
H1956 H 0.62231 0.93947 0.89498 0.0
H1957 H 0.5444 0.87719 0.94686 0.0
H1958 H 0.55913 0.90302 0.9648 0.0
H1959 H 0.53906 0.90379 0.94225 0.0
H1960 H 0.58937 0.97348 0.99299 0.0
H1961 H 0.53989 0.97476 0.93972 0.0
H1962 H 0.6188 0.93723 0.96019 0.0
H1963 H 0.59897 0.9211 0.97454 0.0
H1964 H 0.61379 0.9485 0.98898 0.0
H1965 H 0.55851 0.93763 0.89592 0.0
H1966 H 0.5347 0.94944 0.90449 0.0
H1967 H 0.53707 0.9219 0.90887 0.0
C1968 C 0.95247 0.7457 0.70141 0.0
C1969 C 0.95551 0.75697 0.6832 0.0
C1970 C 0.93365 0.74615 0.71363 0.0
C1971 C 0.91767 0.75841 0.70769 0.0
C1972 C 0.92032 0.76936 0.68897 0.0
C1973 C 0.93917 0.76836 0.67681 0.0
C1974 C 0.93116 0.73394 0.73323 0.0
C1975 C 0.90361 0.78274 0.68228 0.0
C1976 C 0.85954 0.74889 0.72746 0.0
C1977 C 0.86145 0.76708 0.74578 0.0
C1978 C 0.87795 0.74536 0.71538 0.0
C1979 C 0.89861 0.76057 0.72161 0.0
C1980 C 0.90088 0.77843 0.74067 0.0
C1981 C 0.88227 0.78137 0.75267 0.0
C1982 C 0.87506 0.72585 0.69543 0.0
C1983 C 0.92267 0.79506 0.74774 0.0
H1984 H 0.96495 0.73666 0.70628 0.0
H1985 H 0.94149 0.77714 0.6628 0.0
H1986 H 0.9321 0.7462 0.74947 0.0
H1987 H 0.91455 0.72257 0.73113 0.0
H1988 H 0.9443 0.72393 0.73466 0.0
H1989 H 0.90779 0.78973 0.66692 0.0
H1990 H 0.88662 0.77205 0.67884 0.0
H1991 H 0.90303 0.7968 0.69657 0.0
H1992 H 0.84348 0.73771 0.72218 0.0
H1993 H 0.88379 0.79555 0.76671 0.0
H1994 H 0.88829 0.71601 0.69701 0.0
H1995 H 0.87679 0.73221 0.67937 0.0
H1996 H 0.85849 0.71448 0.69406 0.0
H1997 H 0.93642 0.78617 0.75061 0.0
H1998 H 0.92191 0.80744 0.76353 0.0
H1999 H 0.92695 0.80428 0.73386 0.0
C2000 C 0.13897 0.0188 0.85847 0.0
C2001 C 0.13061 0.02855 0.84099 0.0
C2002 C 0.12945 0.01937 0.88017 0.0
C2003 C 0.11072 0.02982 0.8854 0.0
C2004 C 0.10223 0.03942 0.86774 0.0
C2005 C 0.11201 0.03872 0.84647 0.0
C2006 C 0.13969 0.00881 0.89777 0.0
C2007 C 0.08251 0.05072 0.87129 0.0
C2008 C 0.07106 0.01611 0.93339 0.0
C2009 C 0.07757 0.03465 0.95188 0.0
C2010 C 0.0817 0.01415 0.91242 0.0
C2011 C 0.09994 0.03096 0.90885 0.0
C2012 C 0.10674 0.04959 0.92756 0.0
C2013 C 0.09574 0.05119 0.94831 0.0
C2014 C 0.07313 0.99389 0.89377 0.0
C2015 C 0.12585 0.06819 0.92563 0.0
H2016 H 0.15319 0.01088 0.85538 0.0
H2017 H 0.10478 0.04645 0.83385 0.0
H2018 H 0.14573 0.02164 0.9135 0.0
H2019 H 0.12685 0.99565 0.90246 0.0
H2020 H 0.15388 1.00119 0.89164 0.0
H2021 H 0.07739 0.05721 0.85615 0.0
H2022 H 0.06805 0.03873 0.87518 0.0
H2023 H 0.08667 0.06491 0.88614 0.0
H2024 H 0.05736 1.00289 0.9352 0.0
H2025 H 0.10156 0.06565 0.96192 0.0
H2026 H 0.08696 0.98518 0.88886 0.0
H2027 H 0.06675 0.99924 0.8784 0.0
H2028 H 0.0595 0.98181 0.89895 0.0
H2029 H 0.14087 0.06118 0.92134 0.0
H2030 H 0.13012 0.08106 0.94162 0.0
H2031 H 0.12145 0.07646 0.91158 0.0
C2032 C 0.78087 0.42383 0.58277 0.0
C2033 C 0.77271 0.41218 0.56062 0.0
C2034 C 0.78434 0.41229 0.60034 0.0
C2035 C 0.7797 0.38854 0.59561 0.0
C2036 C 0.77084 0.37671 0.57347 0.0
C2037 C 0.76739 0.38866 0.55628 0.0
C2038 C 0.79357 0.42551 0.62379 0.0
C2039 C 0.76575 0.35139 0.5677 0.0
C2040 C 0.81173 0.35806 0.6315 0.0
C2041 C 0.7957 0.35047 0.64564 0.0
C2042 C 0.80679 0.37065 0.61537 0.0
C2043 C 0.78533 0.376 0.61339 0.0
C2044 C 0.76919 0.36882 0.6279 0.0
C2045 C 0.77452 0.35605 0.64377 0.0
C2046 C 0.82449 0.37799 0.60023 0.0
C2047 C 0.74615 0.37427 0.62639 0.0
H2048 H 0.78496 0.44201 0.5863 0.0
H2049 H 0.76108 0.37951 0.53923 0.0
H2050 H 0.78286 0.41992 0.63681 0.0
H2051 H 0.81049 0.42242 0.62795 0.0
H2052 H 0.79477 0.44383 0.62512 0.0
H2053 H 0.75788 0.34472 0.55001 0.0
H2054 H 0.78142 0.34503 0.56963 0.0
H2055 H 0.7544 0.34464 0.57967 0.0
H2056 H 0.82826 0.35422 0.6331 0.0
H2057 H 0.76192 0.35007 0.65441 0.0
H2058 H 0.82786 0.39651 0.60225 0.0
H2059 H 0.81844 0.37081 0.5821 0.0
H2060 H 0.84043 0.37269 0.60411 0.0
H2061 H 0.74738 0.39251 0.6273 0.0
H2062 H 0.73624 0.36921 0.64021 0.0
H2063 H 0.73697 0.36547 0.60975 0.0
C2064 C 0.49443 0.06936 0.34406 0.0
C2065 C 0.47125 0.06166 0.34247 0.0
C2066 C 0.50753 0.07203 0.36469 0.0
C2067 C 0.49722 0.0661 0.38384 0.0
C2068 C 0.47366 0.0596 0.38266 0.0
C2069 C 0.4609 0.05779 0.36201 0.0
C2070 C 0.53252 0.07986 0.36559 0.0
C2071 C 0.46206 0.05269 0.40257 0.0
C2072 C 0.53013 0.04111 0.42426 0.0
C2073 C 0.53398 0.05811 0.44379 0.0
C2074 C 0.51839 0.04366 0.4045 0.0
C2075 C 0.51108 0.06402 0.40412 0.0
C2076 C 0.51599 0.0817 0.42346 0.0
C2077 C 0.52703 0.07835 0.44328 0.0
C2078 C 0.51296 0.02419 0.3844 0.0
C2079 C 0.50917 0.1039 0.42337 0.0
H2080 H 0.50241 0.07252 0.32895 0.0
H2081 H 0.44299 0.05166 0.36074 0.0
H2082 H 0.53885 0.09239 0.38147 0.0
H2083 H 0.54086 0.06542 0.36566 0.0
H2084 H 0.53739 0.08741 0.35072 0.0
H2085 H 0.44357 0.04983 0.39947 0.0
H2086 H 0.4667 0.03694 0.40573 0.0
H2087 H 0.46751 0.06564 0.4183 0.0
H2088 H 0.53533 0.02538 0.42481 0.0
H2089 H 0.53017 0.09153 0.45844 0.0
H2090 H 0.51979 0.02934 0.36902 0.0
H2091 H 0.49456 0.01891 0.3806 0.0
H2092 H 0.51983 0.00951 0.38753 0.0
H2093 H 0.51435 0.11029 0.40797 0.0
H2094 H 0.51659 0.11673 0.43874 0.0
H2095 H 0.49071 0.10167 0.42277 0.0
C2096 C 0.78917 0.7421 0.07924 0.0
C2097 C 0.77476 0.72099 0.07428 0.0
C2098 C 0.7936 0.75466 0.10182 0.0
C2099 C 0.7834 0.74593 0.11985 0.0
C2100 C 0.76827 0.72503 0.11474 0.0
C2101 C 0.76414 0.71293 0.09218 0.0
C2102 C 0.80969 0.77695 0.10648 0.0
C2103 C 0.75689 0.71501 0.13327 0.0
C2104 C 0.80935 0.76088 0.18141 0.0
C2105 C 0.79531 0.77431 0.19221 0.0
C2106 C 0.80642 0.75256 0.15771 0.0
C2107 C 0.78909 0.75782 0.14426 0.0
C2108 C 0.77563 0.77233 0.15485 0.0
C2109 C 0.77883 0.78032 0.17864 0.0
C2110 C 0.82117 0.73712 0.14725 0.0
C2111 C 0.7571 0.77858 0.14121 0.0
H2112 H 0.79749 0.74851 0.06563 0.0
H2113 H 0.75279 0.69678 0.08867 0.0
H2114 H 0.80211 0.79005 0.11663 0.0
H2115 H 0.82494 0.77576 0.11672 0.0
H2116 H 0.81469 0.78237 0.09052 0.0
H2117 H 0.74495 0.69898 0.12639 0.0
H2118 H 0.76962 0.71182 0.14552 0.0
H2119 H 0.74769 0.72694 0.14293 0.0
H2120 H 0.82223 0.75617 0.19157 0.0
H2121 H 0.76795 0.7908 0.18665 0.0
H2122 H 0.82814 0.74265 0.13209 0.0
H2123 H 0.81107 0.71992 0.14142 0.0
H2124 H 0.83521 0.7364 0.15949 0.0
H2125 H 0.76326 0.78403 0.12568 0.0
H2126 H 0.75007 0.7922 0.15127 0.0
H2127 H 0.74344 0.76368 0.13555 0.0
C2128 C 0.11657 0.01416 0.69273 0.0
C2129 C 0.14017 0.01891 0.69714 0.0
C2130 C 0.10529 0.01593 0.67156 0.0
C2131 C 0.11737 0.02304 0.65354 0.0
C2132 C 0.14118 0.02796 0.65797 0.0
C2133 C 0.15203 0.02574 0.67914 0.0
C2134 C 0.08013 0.01004 0.66846 0.0
C2135 C 0.15546 0.0359 0.64025 0.0
C2136 C 0.09006 0.0102 0.58966 0.0
C2137 C 0.08309 0.03021 0.58679 0.0
C2138 C 0.1007 0.00761 0.6108 0.0
C2139 C 0.10532 0.02544 0.63043 0.0
C2140 C 0.09845 0.0457 0.62759 0.0
C2141 C 0.08752 0.04774 0.60638 0.0
C2142 C 0.10698 0.98544 0.6121 0.0
C2143 C 0.10284 0.06562 0.64713 0.0
H2144 H 0.1067 0.00888 0.70593 0.0
H2145 H 0.17012 0.02969 0.68168 0.0
H2146 H 0.07339 0.02492 0.66585 0.0
H2147 H 0.07452 0.99675 0.65299 0.0
H2148 H 0.07288 1.0041 0.68335 0.0
H2149 H 0.17358 0.03948 0.64596 0.0
H2150 H 0.15229 0.02301 0.62427 0.0
H2151 H 0.15091 0.05135 0.63614 0.0
H2152 H 0.08702 0.99624 0.57525 0.0
H2153 H 0.08263 0.06344 0.60512 0.0
H2154 H 0.09907 0.97868 0.62626 0.0
H2155 H 0.12533 0.98783 0.61589 0.0
H2156 H 0.10181 0.97285 0.59601 0.0
H2157 H 0.09428 0.06112 0.66195 0.0
H2158 H 0.09703 0.08034 0.64258 0.0
H2159 H 0.12102 0.07046 0.65261 0.0
C2160 C 0.77464 0.38511 0.43183 0.0
C2161 C 0.7738 0.40686 0.42855 0.0
C2162 C 0.77699 0.36801 0.41361 0.0
C2163 C 0.77855 0.37261 0.39142 0.0
C2164 C 0.77729 0.39438 0.38786 0.0
C2165 C 0.77494 0.4112 0.40642 0.0
C2166 C 0.77821 0.34508 0.4182 0.0
C2167 C 0.7788 0.40001 0.36447 0.0
C2168 C 0.80732 0.3367 0.3482 0.0
C2169 C 0.78912 0.32278 0.33399 0.0
C2170 C 0.80411 0.35267 0.3671 0.0
C2171 C 0.78214 0.35486 0.37206 0.0
C2172 C 0.76368 0.34038 0.35825 0.0
C2173 C 0.76738 0.32457 0.33943 0.0
C2174 C 0.82428 0.36769 0.38137 0.0
C2175 C 0.73999 0.34204 0.36296 0.0
H2176 H 0.77377 0.38147 0.44879 0.0
H2177 H 0.77432 0.42788 0.40361 0.0
H2178 H 0.76519 0.33213 0.40701 0.0
H2179 H 0.79465 0.34102 0.41415 0.0
H2180 H 0.77594 0.34394 0.43623 0.0
H2181 H 0.77685 0.41747 0.36435 0.0
H2182 H 0.79522 0.39787 0.35836 0.0
H2183 H 0.76571 0.38834 0.35213 0.0
H2184 H 0.8242 0.33561 0.3442 0.0
H2185 H 0.75315 0.31404 0.32857 0.0
H2186 H 0.82341 0.36651 0.39955 0.0
H2187 H 0.82445 0.38541 0.38026 0.0
H2188 H 0.84022 0.36334 0.37583 0.0
H2189 H 0.73738 0.34064 0.38084 0.0
H2190 H 0.72748 0.32883 0.35139 0.0
H2191 H 0.73692 0.35868 0.36084 0.0
C2192 C 0.40402 1.0023 0.20527 0.0
C2193 C 0.4137 0.02425 0.21646 0.0
C2194 C 0.41145 0.99269 0.18472 0.0
C2195 C 0.42872 0.00554 0.17515 0.0
C2196 C 0.43723 0.02827 0.18549 0.0
C2197 C 0.42977 0.0373 0.20616 0.0
C2198 C 0.40204 0.96839 0.17426 0.0
C2199 C 0.45532 0.04271 0.17552 0.0
C2200 C 0.4738 0.98274 0.14387 0.0
C2201 C 0.4684 0.98561 0.12172 0.0
C2202 C 0.45973 0.98711 0.16108 0.0
C2203 C 0.44001 0.99487 0.15607 0.0
C2204 C 0.4334 0.99575 0.13334 0.0
C2205 C 0.44763 0.99091 0.11635 0.0
C2206 C 0.46707 0.98541 0.18507 0.0
C2207 C 0.41237 1.0037 0.12727 0.0
H2208 H 0.39159 0.99211 0.2133 0.0
H2209 H 0.43709 0.0543 0.21471 0.0
H2210 H 0.39942 0.96579 0.15543 0.0
H2211 H 0.41411 0.95803 0.17839 0.0
H2212 H 0.38593 0.96222 0.18091 0.0
H2213 H 0.45834 0.0606 0.18425 0.0
H2214 H 0.47117 0.0366 0.17712 0.0
H2215 H 0.45078 0.04158 0.1571 0.0
H2216 H 0.48978 0.9787 0.14827 0.0
H2217 H 0.44302 0.9925 0.09909 0.0
H2218 H 0.45286 0.97704 0.19313 0.0
H2219 H 0.47305 1.00251 0.19551 0.0
H2220 H 0.48082 0.97597 0.1855 0.0
H2221 H 0.39831 0.9964 0.13623 0.0
H2222 H 0.40744 0.99936 0.10862 0.0
H2223 H 0.41524 0.02221 0.13278 0.0
C2224 C 0.80666 0.71409 0.91889 0.0
C2225 C 0.79094 0.72148 0.93314 0.0
C2226 C 0.81028 0.72167 0.89839 0.0
C2227 C 0.79752 0.73665 0.89157 0.0
C2228 C 0.78155 0.7441 0.90584 0.0
C2229 C 0.77866 0.73667 0.92655 0.0
C2230 C 0.82786 0.71371 0.88405 0.0
C2231 C 0.76716 0.75961 0.89903 0.0
C2232 C 0.81788 0.77284 0.84874 0.0
C2233 C 0.80582 0.76062 0.82825 0.0
C2234 C 0.81579 0.76496 0.86926 0.0
C2235 C 0.80087 0.74457 0.86955 0.0
C2236 C 0.78882 0.73203 0.84886 0.0
C2237 C 0.79163 0.74005 0.82847 0.0
C2238 C 0.82939 0.77863 0.89072 0.0
C2239 C 0.77248 0.7104 0.84838 0.0
H2240 H 0.81625 0.70239 0.92384 0.0
H2241 H 0.7663 0.74228 0.93728 0.0
H2242 H 0.82021 0.70501 0.86676 0.0
H2243 H 0.84059 0.72833 0.88197 0.0
H2244 H 0.83641 0.70211 0.89169 0.0
H2245 H 0.75516 0.76349 0.91171 0.0
H2246 H 0.77783 0.77557 0.89704 0.0
H2247 H 0.75762 0.75186 0.88227 0.0
H2248 H 0.82896 0.78869 0.84879 0.0
H2249 H 0.78209 0.73053 0.81281 0.0
H2250 H 0.83899 0.76803 0.89869 0.0
H2251 H 0.81811 0.7847 0.90324 0.0
H2252 H 0.84125 0.79335 0.88742 0.0
H2253 H 0.78129 0.69802 0.85417 0.0
H2254 H 0.76394 0.70295 0.8311 0.0
H2255 H 0.75964 0.71344 0.86031 0.0
C2256 C 0.88831 0.07785 0.0491 0.0
C2257 C 0.87703 0.0895 0.03568 0.0
C2258 C 0.90962 0.07337 0.04454 0.0
C2259 C 0.92014 0.08043 0.02588 0.0
C2260 C 0.90892 0.09226 0.01229 0.0
C2261 C 0.88766 0.09672 0.01738 0.0
C2262 C 0.92089 0.06099 0.05976 0.0
C2263 C 0.91931 0.10005 0.99219 0.0
C2264 C 0.98359 0.08351 0.02668 0.0
C2265 C 0.98494 0.06256 0.01347 0.0
C2266 C 0.96279 0.08979 0.03037 0.0
C2267 C 0.9426 0.07494 0.02046 0.0
C2268 C 0.94391 0.05419 0.00636 0.0
C2269 C 0.96491 0.04823 0.00316 0.0
C2270 C 0.96241 0.11202 0.04559 0.0
C2271 C 0.92301 0.03787 0.99518 0.0
H2272 H 0.8805 0.07225 0.06337 0.0
H2273 H 0.87926 0.10574 0.00686 0.0
H2274 H 0.92366 0.04498 0.04963 0.0
H2275 H 0.93752 0.0711 0.06707 0.0
H2276 H 0.9109 0.05721 0.07398 0.0
H2277 H 0.90851 0.10894 0.9832 0.0
H2278 H 0.93568 0.11149 0.99795 0.0
H2279 H 0.92251 0.08547 0.9799 0.0
H2280 H 0.9988 0.09476 0.03491 0.0
H2281 H 0.96554 0.03202 0.99294 0.0
H2282 H 0.95318 0.10922 0.06056 0.0
H2283 H 0.95345 0.12216 0.03628 0.0
H2284 H 0.97947 0.12182 0.0518 0.0
H2285 H 0.91308 0.03165 0.00845 0.0
H2286 H 0.9268 0.02324 0.98337 0.0
H2287 H 0.91242 0.04639 0.98553 0.0
C2288 C 0.39076 0.44222 0.01491 0.0
C2289 C 0.38135 0.43271 0.03251 0.0
C2290 C 0.41303 0.45363 0.01735 0.0
C2291 C 0.42625 0.45601 0.03813 0.0
C2292 C 0.41712 0.44577 0.05575 0.0
C2293 C 0.39474 0.43401 0.05265 0.0
C2294 C 0.42217 0.46378 0.99788 0.0
C2295 C 0.43064 0.44809 0.0782 0.0
C2296 C 0.48809 0.47485 0.0331 0.0
C2297 C 0.49058 0.49832 0.03845 0.0
C2298 C 0.4676 0.4607 0.03437 0.0
C2299 C 0.44916 0.47022 0.04138 0.0
C2300 C 0.45201 0.49381 0.04837 0.0
C2301 C 0.47264 0.50758 0.04668 0.0
C2302 C 0.46533 0.43568 0.02663 0.0
C2303 C 0.43288 0.50461 0.05633 0.0
H2304 H 0.3805 0.44103 0.99921 0.0
H2305 H 0.38745 0.42679 0.06633 0.0
H2306 H 0.4261 0.48233 0.00305 0.0
H2307 H 0.43794 0.45827 0.99353 0.0
H2308 H 0.41019 0.45909 0.98233 0.0
H2309 H 0.42195 0.4374 0.08927 0.0
H2310 H 0.44714 0.44359 0.07535 0.0
H2311 H 0.43383 0.46583 0.08736 0.0
H2312 H 0.50186 0.46742 0.02684 0.0
H2313 H 0.47445 0.52565 0.05113 0.0
H2314 H 0.45545 0.4302 0.00976 0.0
H2315 H 0.45623 0.42654 0.03866 0.0
H2316 H 0.48183 0.43074 0.02501 0.0
H2317 H 0.42046 0.50307 0.04162 0.0
H2318 H 0.43853 0.52268 0.06412 0.0
H2319 H 0.42424 0.49594 0.06897 0.0
C2320 C 0.37122 0.63019 0.75144 0.0
C2321 C 0.38747 0.62807 0.7684 0.0
C2322 C 0.36163 0.65004 0.75205 0.0
C2323 C 0.36722 0.66911 0.77056 0.0
C2324 C 0.38333 0.66689 0.78794 0.0
C2325 C 0.39328 0.64718 0.78647 0.0
C2326 C 0.34549 0.65064 0.73236 0.0
C2327 C 0.39004 0.68547 0.80862 0.0
C2328 C 0.35678 0.73027 0.7656 0.0
C2329 C 0.33558 0.73156 0.77382 0.0
C2330 C 0.36681 0.71062 0.76419 0.0
C2331 C 0.35632 0.69085 0.77178 0.0
C2332 C 0.33511 0.69225 0.7805 0.0
C2333 C 0.32512 0.71182 0.78099 0.0
C2334 C 0.3888 0.71098 0.75399 0.0
C2335 C 0.32276 0.67287 0.78967 0.0
H2336 H 0.36616 0.61628 0.7371 0.0
H2337 H 0.40554 0.64664 0.8 0.0
H2338 H 0.3286 0.65065 0.73818 0.0
H2339 H 0.35064 0.66631 0.72586 0.0
H2340 H 0.34439 0.63606 0.71812 0.0
H2341 H 0.40069 0.68078 0.82183 0.0
H2342 H 0.39941 0.70065 0.80357 0.0
H2343 H 0.37493 0.68997 0.81621 0.0
H2344 H 0.36554 0.74465 0.7596 0.0
H2345 H 0.30889 0.71167 0.78742 0.0
H2346 H 0.38744 0.69614 0.73999 0.0
H2347 H 0.40189 0.70994 0.76708 0.0
H2348 H 0.39429 0.72641 0.74718 0.0
H2349 H 0.31709 0.65819 0.77554 0.0
H2350 H 0.30794 0.67695 0.79818 0.0
H2351 H 0.33407 0.66788 0.80207 0.0
C2352 C 0.22531 0.56511 0.52708 0.0
C2353 C 0.23366 0.58836 0.53148 0.0
C2354 C 0.20202 0.55628 0.52479 0.0
C2355 C 0.18661 0.57097 0.52708 0.0
C2356 C 0.19502 0.59441 0.53162 0.0
C2357 C 0.21824 0.60274 0.53368 0.0
C2358 C 0.19388 0.53119 0.51984 0.0
C2359 C 0.17943 0.61082 0.53434 0.0
C2360 C 0.12562 0.55148 0.50154 0.0
C2361 C 0.11416 0.54806 0.5207 0.0
C2362 C 0.1491 0.55836 0.50327 0.0
C2363 C 0.16171 0.56207 0.5247 0.0
C2364 C 0.15029 0.55847 0.54406 0.0
C2365 C 0.12679 0.5515 0.54184 0.0
C2366 C 0.1604 0.56193 0.48212 0.0
C2367 C 0.16289 0.56232 0.56728 0.0
H2368 H 0.23695 0.55381 0.52532 0.0
H2369 H 0.22434 0.62073 0.53713 0.0
H2370 H 0.18375 0.5262 0.53351 0.0
H2371 H 0.18288 0.52594 0.50363 0.0
H2372 H 0.20786 0.52198 0.5185 0.0
H2373 H 0.18856 0.62854 0.53805 0.0
H2374 H 0.16807 0.60801 0.51855 0.0
H2375 H 0.16885 0.60809 0.5484 0.0
H2376 H 0.11622 0.54883 0.48506 0.0
H2377 H 0.11831 0.5489 0.5568 0.0
H2378 H 0.17352 0.55173 0.47961 0.0
H2379 H 0.16878 0.57977 0.48417 0.0
H2380 H 0.14844 0.55743 0.46657 0.0
H2381 H 0.17608 0.55216 0.56664 0.0
H2382 H 0.15178 0.55798 0.5805 0.0
H2383 H 0.17135 0.58019 0.57252 0.0
C2384 C 0.73091 0.97631 0.75498 0.0
C2385 C 0.73796 0.99182 0.74124 0.0
C2386 C 0.74567 0.96399 0.76297 0.0
C2387 C 0.76798 0.9673 0.75707 0.0
C2388 C 0.77529 0.9832 0.74354 0.0
C2389 C 0.76018 0.99526 0.73577 0.0
C2390 C 0.73728 0.94715 0.77736 0.0
C2391 C 0.79896 0.98716 0.73692 0.0
C2392 C 0.81062 0.94621 0.79155 0.0
C2393 C 0.81125 0.92558 0.7775 0.0
C2394 C 0.79682 0.96017 0.78501 0.0
C2395 C 0.7833 0.95323 0.764 0.0
C2396 C 0.78411 0.93256 0.74963 0.0
C2397 C 0.79805 0.91901 0.75656 0.0
C2398 C 0.79646 0.98218 0.80068 0.0
C2399 C 0.76987 0.92452 0.72715 0.0
H2400 H 0.71379 0.97365 0.75935 0.0
H2401 H 0.76578 0.0073 0.72525 0.0
H2402 H 0.73819 0.93004 0.76832 0.0
H2403 H 0.74804 0.95066 0.79365 0.0
H2404 H 0.71975 0.94729 0.78125 0.0
H2405 H 0.80231 1.00092 0.72727 0.0
H2406 H 0.811 0.99135 0.75236 0.0
H2407 H 0.80216 0.97161 0.72622 0.0
H2408 H 0.82086 0.95138 0.8077 0.0
H2409 H 0.79809 0.90286 0.74583 0.0
H2410 H 0.77943 0.9822 0.80614 0.0
H2411 H 0.80061 0.99619 0.79151 0.0
H2412 H 0.80844 0.98542 0.81612 0.0
H2413 H 0.75192 0.92236 0.73014 0.0
H2414 H 0.77296 0.90833 0.71767 0.0
H2415 H 0.77321 0.9372 0.71625 0.0
C2416 C 0.75332 0.93211 0.54803 0.0
C2417 C 0.75198 0.90973 0.53726 0.0
C2418 C 0.7368 0.94392 0.5431 0.0
C2419 C 0.71859 0.93315 0.52677 0.0
C2420 C 0.71652 0.9102 0.5167 0.0
C2421 C 0.73322 0.89868 0.52217 0.0
C2422 C 0.73947 0.96828 0.55449 0.0
C2423 C 0.69739 0.89817 0.49917 0.0
C2424 C 0.67008 0.96329 0.523 0.0
C2425 C 0.67578 0.97515 0.50563 0.0
C2426 C 0.68356 0.94915 0.52979 0.0
C2427 C 0.70306 0.94659 0.51878 0.0
C2428 C 0.70858 0.95802 0.50084 0.0
C2429 C 0.69498 0.97224 0.49461 0.0
C2430 C 0.6772 0.93735 0.54907 0.0
C2431 C 0.72923 0.95571 0.48862 0.0
H2432 H 0.7677 0.94065 0.55988 0.0
H2433 H 0.73212 0.88138 0.51376 0.0
H2434 H 0.74301 0.979 0.54168 0.0
H2435 H 0.72377 0.97147 0.56166 0.0
H2436 H 0.75329 0.9735 0.56839 0.0
H2437 H 0.69683 0.87982 0.49483 0.0
H2438 H 0.68122 0.90101 0.50541 0.0
H2439 H 0.69917 0.90499 0.48336 0.0
H2440 H 0.65508 0.96508 0.53137 0.0
H2441 H 0.69976 0.98155 0.48143 0.0
H2442 H 0.69042 0.94317 0.56351 0.0
H2443 H 0.67591 0.91901 0.54348 0.0
H2444 H 0.66107 0.94045 0.55531 0.0
H2445 H 0.74438 0.96266 0.50071 0.0
H2446 H 0.73039 0.96458 0.4741 0.0
H2447 H 0.72929 0.93775 0.48208 0.0
C2448 C 0.39227 0.46585 0.77911 0.0
C2449 C 0.38631 0.47815 0.76283 0.0
C2450 C 0.38096 0.4435 0.7795 0.0
C2451 C 0.36323 0.43181 0.76266 0.0
C2452 C 0.35702 0.44413 0.74613 0.0
C2453 C 0.36833 0.46681 0.74649 0.0
C2454 C 0.38842 0.4322 0.79796 0.0
C2455 C 0.33882 0.43298 0.72737 0.0
C2456 C 0.35071 0.36562 0.752 0.0
C2457 C 0.33123 0.35997 0.7631 0.0
C2458 C 0.36072 0.38836 0.75123 0.0
C2459 C 0.35175 0.40688 0.76226 0.0
C2460 C 0.33217 0.40128 0.77362 0.0
C2461 C 0.32221 0.37837 0.77367 0.0
C2462 C 0.3811 0.39254 0.73842 0.0
C2463 C 0.32182 0.41967 0.78624 0.0
H2464 H 0.40628 0.47374 0.79165 0.0
H2465 H 0.36368 0.47531 0.73324 0.0
H2466 H 0.37386 0.42551 0.80666 0.0
H2467 H 0.39577 0.41777 0.79031 0.0
H2468 H 0.40105 0.44378 0.8109 0.0
H2469 H 0.33532 0.44451 0.71608 0.0
H2470 H 0.34378 0.41822 0.7169 0.0
H2471 H 0.3232 0.42673 0.73473 0.0
H2472 H 0.35818 0.35211 0.74358 0.0
H2473 H 0.30737 0.37491 0.7825 0.0
H2474 H 0.39562 0.40203 0.75042 0.0
H2475 H 0.3783 0.40297 0.72575 0.0
H2476 H 0.38538 0.37672 0.72943 0.0
H2477 H 0.33424 0.43082 0.79966 0.0
H2478 H 0.3068 0.41302 0.79434 0.0
H2479 H 0.317 0.43013 0.77438 0.0
C2480 C 0.2019 0.62526 0.20469 0.0
C2481 C 0.20965 0.60825 0.21339 0.0
C2482 C 0.21523 0.64675 0.20754 0.0
C2483 C 0.23682 0.65121 0.21925 0.0
C2484 C 0.24539 0.63368 0.22645 0.0
C2485 C 0.23168 0.61237 0.22345 0.0
C2486 C 0.20559 0.66504 0.19951 0.0
C2487 C 0.26846 0.63778 0.23876 0.0
C2488 C 0.27573 0.70659 0.21944 0.0
C2489 C 0.27234 0.71942 0.24042 0.0
C2490 C 0.26437 0.68428 0.21229 0.0
C2491 C 0.24926 0.67465 0.22642 0.0
C2492 C 0.24581 0.68743 0.2476 0.0
C2493 C 0.25741 0.70963 0.25435 0.0
C2494 C 0.26849 0.67104 0.18965 0.0
C2495 C 0.22977 0.67768 0.26313 0.0
H2496 H 0.18497 0.62218 0.19671 0.0
H2497 H 0.23792 0.59925 0.22997 0.0
H2498 H 0.20204 0.67693 0.21449 0.0
H2499 H 0.21776 0.6747 0.19018 0.0
H2500 H 0.18983 0.65826 0.18824 0.0
H2501 H 0.27374 0.62188 0.24044 0.0
H2502 H 0.28095 0.64741 0.22971 0.0
H2503 H 0.2686 0.64794 0.25611 0.0
H2504 H 0.28727 0.71394 0.20854 0.0
H2505 H 0.25462 0.71933 0.27057 0.0
H2506 H 0.25264 0.66545 0.17839 0.0
H2507 H 0.27447 0.65573 0.19218 0.0
H2508 H 0.281 0.68092 0.18079 0.0
H2509 H 0.21272 0.67217 0.25414 0.0
H2510 H 0.22903 0.68988 0.27906 0.0
H2511 H 0.23485 0.66268 0.26778 0.0
C2512 C 0.50305 0.75779 0.49583 0.0
C2513 C 0.49676 0.74579 0.47342 0.0
C2514 C 0.50739 0.74669 0.51348 0.0
C2515 C 0.50553 0.72316 0.50844 0.0
C2516 C 0.49641 0.71081 0.48655 0.0
C2517 C 0.4921 0.7223 0.46925 0.0
C2518 C 0.51631 0.76038 0.5368 0.0
C2519 C 0.49365 0.68561 0.48064 0.0
C2520 C 0.55087 0.69731 0.53136 0.0
C2521 C 0.53964 0.68463 0.5459 0.0
C2522 C 0.5403 0.7111 0.52033 0.0
C2523 C 0.51778 0.7122 0.52372 0.0
C2524 C 0.50683 0.70092 0.53971 0.0
C2525 C 0.51792 0.68725 0.55066 0.0
C2526 C 0.55278 0.72309 0.50362 0.0
C2527 C 0.48296 0.70195 0.54413 0.0
H2528 H 0.50621 0.77596 0.49931 0.0
H2529 H 0.48683 0.7129 0.45206 0.0
H2530 H 0.50974 0.75171 0.55038 0.0
H2531 H 0.5348 0.76261 0.53865 0.0
H2532 H 0.51196 0.77726 0.53943 0.0
H2533 H 0.4832 0.6783 0.46427 0.0
H2534 H 0.51034 0.68114 0.47909 0.0
H2535 H 0.48593 0.67786 0.4943 0.0
H2536 H 0.56746 0.69527 0.52715 0.0
H2537 H 0.50919 0.67784 0.56216 0.0
H2538 H 0.55177 0.74108 0.50714 0.0
H2539 H 0.54501 0.7157 0.48603 0.0
H2540 H 0.57069 0.72186 0.50429 0.0
H2541 H 0.4793 0.7187 0.54335 0.0
H2542 H 0.4792 0.698 0.56101 0.0
H2543 H 0.47156 0.68939 0.53087 0.0
C2544 C 0.67257 0.32653 0.6634 0.0
C2545 C 0.65 0.32168 0.66741 0.0
C2546 C 0.68936 0.32549 0.67989 0.0
C2547 C 0.68325 0.31904 0.70052 0.0
C2548 C 0.66066 0.3159 0.70533 0.0
C2549 C 0.64433 0.31754 0.68881 0.0
C2550 C 0.71344 0.32965 0.67454 0.0
C2551 C 0.65343 0.30871 0.72697 0.0
C2552 C 0.71918 0.28318 0.72347 0.0
C2553 C 0.73139 0.29822 0.74225 0.0
C2554 C 0.70312 0.28971 0.71008 0.0
C2555 C 0.69974 0.31205 0.71527 0.0
C2556 C 0.71187 0.32727 0.73445 0.0
C2557 C 0.72745 0.32004 0.74796 0.0
C2558 C 0.69007 0.27279 0.69012 0.0
C2559 C 0.70904 0.35132 0.74013 0.0
H2560 H 0.67705 0.33007 0.64702 0.0
H2561 H 0.62692 0.31406 0.69216 0.0
H2562 H 0.72433 0.34038 0.68942 0.0
H2563 H 0.71914 0.31346 0.67079 0.0
H2564 H 0.71572 0.33777 0.65957 0.0
H2565 H 0.63578 0.30985 0.72945 0.0
H2566 H 0.65511 0.29105 0.72622 0.0
H2567 H 0.66424 0.31908 0.74206 0.0
H2568 H 0.72244 0.26634 0.7191 0.0
H2569 H 0.73738 0.33177 0.76224 0.0
H2570 H 0.69391 0.27832 0.67396 0.0
H2571 H 0.67186 0.27154 0.69141 0.0
H2572 H 0.69396 0.25583 0.68917 0.0
H2573 H 0.71465 0.35995 0.72619 0.0
H2574 H 0.7188 0.36064 0.75635 0.0
H2575 H 0.69117 0.35208 0.74144 0.0
C2576 C 0.02762 0.37661 0.92253 0.0
C2577 C 0.01982 0.35857 0.93301 0.0
C2578 C 0.02886 0.39881 0.93385 0.0
C2579 C 0.02214 0.40307 0.95619 0.0
C2580 C 0.01365 0.38497 0.96665 0.0
C2581 C 0.0126 0.36292 0.95493 0.0
C2582 C 0.03801 0.41772 0.92215 0.0
C2583 C 0.00636 0.3889 0.99047 0.0
C2584 C 0.0508 0.45902 0.99219 0.0
C2585 C 0.03468 0.47219 0.99034 0.0
C2586 C 0.04657 0.4363 0.98181 0.0
C2587 C 0.02574 0.42649 0.96919 0.0
C2588 C 0.00905 0.43943 0.96797 0.0
C2589 C 0.01371 0.4622 0.97865 0.0
C2590 C 0.06475 0.42301 0.98368 0.0
C2591 C 0.98663 0.42946 0.95468 0.0
H2592 H 0.03312 0.37345 0.90556 0.0
H2593 H 0.00643 0.3491 0.96315 0.0
H2594 H 0.02619 0.42932 0.92224 0.0
H2595 H 0.05396 0.42754 0.93158 0.0
H2596 H 0.04116 0.41157 0.90424 0.0
H2597 H 0.9985 0.37305 0.99547 0.0
H2598 H 0.02104 0.39716 0.00283 0.0
H2599 H 0.9943 0.40032 0.99186 0.0
H2600 H 0.06697 0.46655 0.00144 0.0
H2601 H 1.0012 0.47231 0.97718 0.0
H2602 H 0.07031 0.41769 0.96657 0.0
H2603 H 0.05825 0.40759 0.99008 0.0
H2604 H 0.07952 0.43282 0.99523 0.0
H2605 H 0.98888 0.42508 0.93626 0.0
H2606 H 0.97484 0.4412 0.95696 0.0
H2607 H 0.97899 0.41374 0.95999 0.0
C2608 C 0.03769 0.77969 0.18988 0.0
C2609 C 0.04223 0.78448 0.16844 0.0
C2610 C 0.01616 0.77813 0.19704 0.0
C2611 C 0.99862 0.7813 0.18237 0.0
C2612 C 0.00292 0.78587 0.16058 0.0
C2613 C 0.02474 0.7875 0.15388 0.0
C2614 C 0.01225 0.7733 0.22046 0.0
C2615 C 0.98453 0.78913 0.14443 0.0
C2616 C 0.94123 0.75797 0.1984 0.0
C2617 C 0.93597 0.77709 0.21177 0.0
C2618 C 0.96102 0.75931 0.18752 0.0
C2619 C 0.97594 0.78023 0.1903 0.0
C2620 C 0.97018 0.79976 0.20287 0.0
C2621 C 0.95021 0.79796 0.21341 0.0
C2622 C 0.96646 0.73816 0.17401 0.0
C2623 C 0.98573 0.82235 0.20634 0.0
H2624 H 0.05106 0.77734 0.20128 0.0
H2625 H 0.02807 0.7911 0.13725 0.0
H2626 H 0.00589 0.78722 0.2308 0.0
H2627 H 0.99936 0.75781 0.21903 0.0
H2628 H 0.0277 0.77116 0.22974 0.0
H2629 H 0.99048 0.79187 0.12782 0.0
H2630 H 0.97068 0.77424 0.14129 0.0
H2631 H 0.97755 0.80377 0.15221 0.0
H2632 H 0.93006 0.74187 0.19684 0.0
H2633 H 0.94626 0.81275 0.22386 0.0
H2634 H 0.98053 0.73351 0.18329 0.0
H2635 H 0.97186 0.74091 0.15722 0.0
H2636 H 0.95197 0.72385 0.17117 0.0
H2637 H 1.00097 0.82226 0.21725 0.0
H2638 H 0.97784 0.83618 0.21461 0.0
H2639 H 0.99113 0.82587 0.1898 0.0
C2640 C 0.48814 0.32941 0.08506 0.0
C2641 C 0.49203 0.30773 0.07756 0.0
C2642 C 0.49333 0.34603 0.07207 0.0
C2643 C 0.50262 0.34082 0.0511 0.0
C2644 C 0.50463 0.31846 0.04248 0.0
C2645 C 0.49929 0.30215 0.05581 0.0
C2646 C 0.49065 0.36961 0.08175 0.0
C2647 C 0.5142 0.31214 0.02006 0.0
C2648 C 0.51084 0.38486 0.01402 0.0
C2649 C 0.53309 0.39569 0.02098 0.0
C2650 C 0.50068 0.36671 0.02337 0.0
C2651 C 0.51313 0.35924 0.03999 0.0
C2652 C 0.53575 0.36984 0.04668 0.0
C2653 C 0.54542 0.38794 0.03713 0.0
C2654 C 0.47653 0.35593 0.0159 0.0
C2655 C 0.54967 0.36231 0.06426 0.0
H2656 H 0.48236 0.33384 0.10175 0.0
H2657 H 0.50221 0.2854 0.0498 0.0
H2658 H 0.50735 0.38035 0.08764 0.0
H2659 H 0.48289 0.3769 0.0685 0.0
H2660 H 0.48028 0.37023 0.09641 0.0
H2661 H 0.51144 0.29367 0.01411 0.0
H2662 H 0.50669 0.3195 0.00672 0.0
H2663 H 0.53246 0.31898 0.02208 0.0
H2664 H 0.50116 0.391 0.00175 0.0
H2665 H 0.56267 0.39615 0.04237 0.0
H2666 H 0.46631 0.35883 0.03047 0.0
H2667 H 0.47473 0.33752 0.01038 0.0
H2668 H 0.46965 0.36269 0.0017 0.0
H2669 H 0.54209 0.36435 0.08072 0.0
H2670 H 0.56716 0.37196 0.06714 0.0
H2671 H 0.54999 0.34425 0.05878 0.0
C2672 C 0.0253 0.29102 0.32829 0.0
C2673 C 0.04634 0.29907 0.32158 0.0
C2674 C 0.00578 0.29095 0.31483 0.0
C2675 C 0.00753 0.29917 0.29433 0.0
C2676 C 0.02869 0.30552 0.28658 0.0
C2677 C 0.04786 0.30536 0.30029 0.0
C2678 C 0.98337 0.28372 0.3234 0.0
C2679 C 0.03119 0.31429 0.26477 0.0
C2680 C 0.95401 0.29384 0.25697 0.0
C2681 C 0.94771 0.3142 0.26576 0.0
C2682 C 0.97383 0.2888 0.26562 0.0
C2683 C 0.98768 0.30465 0.28318 0.0
C2684 C 0.98217 0.32578 0.29102 0.0
C2685 C 0.96219 0.33023 0.28233 0.0
C2686 C 0.97931 0.26613 0.25686 0.0
C2687 C 0.99678 0.3433 0.30949 0.0
H2688 H 0.02402 0.28586 0.34457 0.0
H2689 H 0.06409 0.31115 0.29472 0.0
H2690 H 0.97616 0.29871 0.32944 0.0
H2691 H 0.97154 0.2726 0.30946 0.0
H2692 H 0.98472 0.2748 0.33772 0.0
H2693 H 0.04832 0.31496 0.25929 0.0
H2694 H 0.01903 0.30371 0.2508 0.0
H2695 H 0.02768 0.33149 0.26744 0.0
H2696 H 0.94304 0.2815 0.24394 0.0
H2697 H 0.95736 0.34583 0.28958 0.0
H2698 H 0.97703 0.25588 0.2702 0.0
H2699 H 0.99702 0.26789 0.25303 0.0
H2700 H 0.96843 0.25692 0.24126 0.0
H2701 H 0.99704 0.33705 0.32568 0.0
H2702 H 0.99083 0.3594 0.31256 0.0
H2703 H 0.01424 0.34661 0.30487 0.0
C2704 C 0.03256 0.68066 0.6174 0.0
C2705 C 0.01744 0.69236 0.60893 0.0
C2706 C 0.03483 0.65958 0.60559 0.0
C2707 C 0.02149 0.64981 0.58489 0.0
C2708 C 0.00583 0.66123 0.57643 0.0
C2709 C 0.00407 0.68248 0.5885 0.0
C2710 C 0.05186 0.648 0.61506 0.0
C2711 C 0.99115 0.65113 0.55451 0.0
C2712 C 0.04413 0.6065 0.54428 0.0
C2713 C 0.03264 0.58641 0.54921 0.0
C2714 C 0.04036 0.62726 0.5555 0.0
C2715 C 0.02453 0.6279 0.57184 0.0
C2716 C 0.01256 0.60767 0.57658 0.0
C2717 C 0.01687 0.58714 0.5653 0.0
C2718 C 0.05366 0.64853 0.55022 0.0
C2719 C 0.9954 0.60771 0.59375 0.0
H2720 H 0.04304 0.68816 0.63313 0.0
H2721 H 0.99229 0.69136 0.58189 0.0
H2722 H 0.04361 0.63121 0.61757 0.0
H2723 H 0.06446 0.64541 0.60273 0.0
H2724 H 0.06068 0.65774 0.63158 0.0
H2725 H 0.97909 0.66168 0.55082 0.0
H2726 H 1.00165 0.64897 0.54007 0.0
H2727 H 0.98168 0.63424 0.5554 0.0
H2728 H 0.05635 0.60605 0.53186 0.0
H2729 H 0.00776 0.57165 0.56902 0.0
H2730 H 0.06401 0.65856 0.5658 0.0
H2731 H 0.04223 0.65896 0.54482 0.0
H2732 H 0.06485 0.64511 0.53658 0.0
H2733 H 0.00363 0.61601 0.61095 0.0
H2734 H 0.98661 0.5905 0.59449 0.0
H2735 H 0.98281 0.61746 0.58945 0.0
C2736 C 0.68908 0.80197 0.87895 0.0
C2737 C 0.67353 0.81592 0.87937 0.0
C2738 C 0.70754 0.80511 0.86618 0.0
C2739 C 0.70985 0.82212 0.85306 0.0
C2740 C 0.69527 0.8375 0.85523 0.0
C2741 C 0.6773 0.83427 0.86856 0.0
C2742 C 0.72324 0.78885 0.86492 0.0
C2743 C 0.69707 0.85578 0.84152 0.0
C2744 C 0.76094 0.82925 0.81987 0.0
C2745 C 0.75318 0.81345 0.79975 0.0
C2746 C 0.74684 0.83299 0.83729 0.0
C2747 C 0.72446 0.82098 0.83411 0.0
C2748 C 0.71619 0.80633 0.81302 0.0
C2749 C 0.73079 0.80248 0.79623 0.0
C2750 C 0.75638 0.84843 0.85961 0.0
C2751 C 0.69223 0.79371 0.80865 0.0
H2752 H 0.68596 0.7877 0.88725 0.0
H2753 H 0.66513 0.84501 0.86897 0.0
H2754 H 0.71938 0.77664 0.84847 0.0
H2755 H 0.74083 0.7978 0.86563 0.0
H2756 H 0.72167 0.77939 0.87898 0.0
H2757 H 0.6873 0.86863 0.84819 0.0
H2758 H 0.71474 0.86416 0.84146 0.0
H2759 H 0.69051 0.84826 0.82358 0.0
H2760 H 0.77844 0.8374 0.82271 0.0
H2761 H 0.72492 0.79021 0.78065 0.0
H2762 H 0.7595 0.8382 0.87238 0.0
H2763 H 0.74446 0.85895 0.86635 0.0
H2764 H 0.77243 0.85955 0.85791 0.0
H2765 H 0.68939 0.78112 0.8197 0.0
H2766 H 0.68794 0.78484 0.79061 0.0
H2767 H 0.68063 0.80536 0.81294 0.0
C2768 C 0.44795 0.55471 0.67431 0.0
C2769 C 0.45909 0.55515 0.69585 0.0
C2770 C 0.45875 0.55288 0.65346 0.0
C2771 C 0.48168 0.55091 0.65301 0.0
C2772 C 0.49299 0.55118 0.67468 0.0
C2773 C 0.48188 0.55345 0.69537 0.0
C2774 C 0.4454 0.55319 0.63165 0.0
C2775 C 0.51709 0.54885 0.67605 0.0
C2776 C 0.50359 0.5255 0.59459 0.0
C2777 C 0.5157 0.54425 0.58708 0.0
C2778 C 0.49299 0.52734 0.61558 0.0
C2779 C 0.49361 0.54858 0.63022 0.0
C2780 C 0.50566 0.56759 0.62262 0.0
C2781 C 0.51645 0.56524 0.60177 0.0
C2782 C 0.48103 0.50622 0.62217 0.0
C2783 C 0.50695 0.59079 0.63652 0.0
H2784 H 0.43051 0.55599 0.67369 0.0
H2785 H 0.49117 0.55359 0.71134 0.0
H2786 H 0.45388 0.56688 0.62366 0.0
H2787 H 0.44446 0.5372 0.61935 0.0
H2788 H 0.42814 0.55559 0.63446 0.0
H2789 H 0.52369 0.54874 0.69365 0.0
H2790 H 0.51885 0.53306 0.66467 0.0
H2791 H 0.52751 0.56288 0.67001 0.0
H2792 H 0.50244 0.50904 0.58402 0.0
H2793 H 0.5253 0.58017 0.59676 0.0
H2794 H 0.46304 0.50663 0.62303 0.0
H2795 H 0.48786 0.50516 0.63939 0.0
H2796 H 0.4826 0.49089 0.60991 0.0
H2797 H 0.48985 0.594 0.63859 0.0
H2798 H 0.51641 0.60403 0.62857 0.0
H2799 H 0.51514 0.59208 0.65383 0.0
C2800 C 0.80455 0.17942 0.98389 0.0
C2801 C 0.80207 0.15599 0.97902 0.0
C2802 C 0.80033 0.1912 0.96679 0.0
C2803 C 0.7934 0.1793 0.94422 0.0
C2804 C 0.79126 0.1557 0.93906 0.0
C2805 C 0.79564 0.14431 0.95653 0.0
C2806 C 0.80288 0.21638 0.97298 0.0
C2807 C 0.78395 0.14243 0.9152 0.0
C2808 C 0.76128 0.20847 0.90688 0.0
C2809 C 0.778 0.21763 0.89428 0.0
C2810 C 0.76594 0.1955 0.92277 0.0
C2811 C 0.78787 0.19163 0.92622 0.0
C2812 C 0.80473 0.20045 0.91324 0.0
C2813 C 0.79959 0.21334 0.89744 0.0
C2814 C 0.74747 0.18629 0.93619 0.0
C2815 C 0.82834 0.19679 0.91647 0.0
H2816 H 0.80954 0.1886 0.0012 0.0
H2817 H 0.79366 0.12621 0.95264 0.0
H2818 H 0.81467 0.22449 0.96217 0.0
H2819 H 0.78655 0.22112 0.96969 0.0
H2820 H 0.80908 0.2232 0.99116 0.0
H2821 H 0.78385 0.12428 0.91381 0.0
H2822 H 0.76688 0.14443 0.90988 0.0
H2823 H 0.79521 0.14894 0.90303 0.0
H2824 H 0.74449 0.21145 0.9043 0.0
H2825 H 0.81268 0.22058 0.88798 0.0
H2826 H 0.75171 0.19363 0.95461 0.0
H2827 H 0.74574 0.16786 0.93414 0.0
H2828 H 0.73111 0.18999 0.9308 0.0
H2829 H 0.83574 0.20491 0.93402 0.0
H2830 H 0.83919 0.20371 0.90418 0.0
H2831 H 0.82833 0.17861 0.91445 0.0
C2832 C 0.15023 0.52876 0.15557 0.0
C2833 C 0.14562 0.5118 0.1681 0.0
C2834 C 0.13621 0.52875 0.13632 0.0
C2835 C 0.11758 0.51092 0.12909 0.0
C2836 C 0.11346 0.49318 0.14115 0.0
C2837 C 0.1273 0.49411 0.16095 0.0
C2838 C 0.14083 0.54831 0.12431 0.0
C2839 C 0.09425 0.47351 0.1334 0.0
C2840 C 0.07172 0.52607 0.09354 0.0
C2841 C 0.07835 0.5202 0.07167 0.0
C2842 C 0.08372 0.52209 0.11251 0.0
C2843 C 0.10225 0.51143 0.10923 0.0
C2844 C 0.10778 0.50388 0.08691 0.0
C2845 C 0.09597 0.50872 0.0684 0.0
C2846 C 0.07765 0.53085 0.13609 0.0
C2847 C 0.12697 0.49188 0.08261 0.0
H2848 H 0.16415 0.5427 0.16157 0.0
H2849 H 0.12372 0.48119 0.17095 0.0
H2850 H 0.14353 0.54231 0.10626 0.0
H2851 H 0.12617 0.55654 0.12433 0.0
H2852 H 0.15575 0.56105 0.13247 0.0
H2853 H 0.09457 0.46018 0.14345 0.0
H2854 H 0.07816 0.47922 0.13511 0.0
H2855 H 0.09474 0.46621 0.11512 0.0
H2856 H 0.05814 0.53506 0.09594 0.0
H2857 H 0.10086 0.50398 0.05135 0.0
H2858 H 0.09108 0.54499 0.14487 0.0
H2859 H 0.07627 0.51765 0.14644 0.0
H2860 H 0.06164 0.53688 0.13564 0.0
H2861 H 0.14303 0.50415 0.087 0.0
H2862 H 0.12631 0.48343 0.06447 0.0
H2863 H 0.12695 0.4792 0.09348 0.0
C2864 C 0.80539 0.8668 0.43833 0.0
C2865 C 0.80602 0.85583 0.45685 0.0
C2866 C 0.80454 0.85526 0.41574 0.0
C2867 C 0.80412 0.83194 0.41117 0.0
C2868 C 0.80475 0.82062 0.42967 0.0
C2869 C 0.80581 0.83271 0.45232 0.0
C2870 C 0.80413 0.86817 0.3967 0.0
C2871 C 0.80417 0.79573 0.42552 0.0
C2872 C 0.78181 0.80407 0.3499 0.0
C2873 C 0.80159 0.80395 0.33907 0.0
C2874 C 0.78235 0.8118 0.3736 0.0
C2875 C 0.80318 0.81982 0.38691 0.0
C2876 C 0.82318 0.81881 0.37624 0.0
C2877 C 0.82215 0.81086 0.35254 0.0
C2878 C 0.7606 0.8124 0.38419 0.0
C2879 C 0.84576 0.8273 0.38964 0.0
H2880 H 0.8057 0.88467 0.44144 0.0
H2881 H 0.80624 0.82403 0.4664 0.0
H2882 H 0.81856 0.86638 0.38657 0.0
H2883 H 0.78872 0.86124 0.38498 0.0
H2884 H 0.80475 0.88632 0.40312 0.0
H2885 H 0.8047 0.78934 0.44163 0.0
H2886 H 0.78874 0.7866 0.41465 0.0
H2887 H 0.81855 0.79182 0.41616 0.0
H2888 H 0.7658 0.79862 0.33979 0.0
H2889 H 0.83757 0.8108 0.34448 0.0
H2890 H 0.75871 0.83006 0.38941 0.0
H2891 H 0.76055 0.8051 0.39975 0.0
H2892 H 0.74592 0.80312 0.37222 0.0
H2893 H 0.84854 0.8458 0.39519 0.0
H2894 H 0.8596 0.82314 0.37946 0.0
H2895 H 0.84645 0.82011 0.40522 0.0
C2896 C 0.45526 0.55612 0.85818 0.0
C2897 C 0.4688 0.55667 0.8398 0.0
C2898 C 0.4639 0.55469 0.88069 0.0
C2899 C 0.48695 0.55405 0.88586 0.0
C2900 C 0.50068 0.55535 0.86752 0.0
C2901 C 0.49161 0.55635 0.84527 0.0
C2902 C 0.44803 0.55311 0.89891 0.0
C2903 C 0.52526 0.55524 0.87124 0.0
C2904 C 0.51573 0.56761 0.94906 0.0
C2905 C 0.51749 0.5464 0.95388 0.0
C2906 C 0.50583 0.5703 0.92764 0.0
C2907 C 0.49671 0.55143 0.90981 0.0
C2908 C 0.49815 0.52998 0.91474 0.0
C2909 C 0.50843 0.52778 0.93615 0.0
C2910 C 0.50547 0.59366 0.92398 0.0
C2911 C 0.48881 0.50903 0.89715 0.0
H2912 H 0.43761 0.55582 0.85479 0.0
H2913 H 0.50265 0.55659 0.83176 0.0
H2914 H 0.44699 0.53674 0.90423 0.0
H2915 H 0.45437 0.56641 0.91419 0.0
H2916 H 0.43096 0.55469 0.89299 0.0
H2917 H 0.53421 0.55781 0.85603 0.0
H2918 H 0.53316 0.56861 0.88596 0.0
H2919 H 0.52746 0.539 0.87536 0.0
H2920 H 0.52244 0.5824 0.96205 0.0
H2921 H 0.50926 0.51118 0.93902 0.0
H2922 H 0.48808 0.59522 0.91944 0.0
H2923 H 0.51523 0.59697 0.90949 0.0
H2924 H 0.51255 0.60669 0.93931 0.0
H2925 H 0.47109 0.50871 0.89169 0.0
H2926 H 0.48977 0.49353 0.90364 0.0
H2927 H 0.49816 0.509 0.88182 0.0
C2928 C 0.81243 0.16343 0.13215 0.0
C2929 C 0.81519 0.16636 0.10973 0.0
C2930 C 0.81116 0.1816 0.14969 0.0
C2931 C 0.81256 0.20331 0.14476 0.0
C2932 C 0.81584 0.20649 0.1223 0.0
C2933 C 0.81717 0.18804 0.1051 0.0
C2934 C 0.80791 0.17748 0.17345 0.0
C2935 C 0.81747 0.22934 0.11632 0.0
C2936 C 0.78643 0.24392 0.18579 0.0
C2937 C 0.8051 0.25633 0.20035 0.0
C2938 C 0.7887 0.2271 0.16724 0.0
C2939 C 0.81015 0.22252 0.16307 0.0
C2940 C 0.82914 0.23561 0.17713 0.0
C2941 C 0.8264 0.25233 0.19553 0.0
C2942 C 0.76802 0.21361 0.15262 0.0
C2943 C 0.8523 0.23136 0.17333 0.0
H2944 H 0.81091 0.14681 0.13597 0.0
H2945 H 0.81924 0.19055 0.08787 0.0
H2946 H 0.8214 0.18854 0.18578 0.0
H2947 H 0.79184 0.18168 0.17869 0.0
H2948 H 0.80786 0.15979 0.17468 0.0
H2949 H 0.82081 0.22921 0.09828 0.0
H2950 H 0.80164 0.23528 0.11927 0.0
H2951 H 0.83101 0.24164 0.12752 0.0
H2952 H 0.76991 0.24678 0.18934 0.0
H2953 H 0.84097 0.26175 0.20664 0.0
H2954 H 0.76551 0.1959 0.15468 0.0
H2955 H 0.77005 0.21367 0.13436 0.0
H2956 H 0.75277 0.22016 0.15713 0.0
H2957 H 0.85352 0.21456 0.17665 0.0
H2958 H 0.86548 0.24409 0.18461 0.0
H2959 H 0.85567 0.23136 0.15534 0.0
C2960 C 0.14394 0.56417 0.30716 0.0
C2961 C 0.14112 0.57569 0.28955 0.0
C2962 C 0.13559 0.57036 0.32818 0.0
C2963 C 0.12471 0.58885 0.33175 0.0
C2964 C 0.12369 0.60179 0.31475 0.0
C2965 C 0.13158 0.59481 0.29364 0.0
C2966 C 0.13678 0.55597 0.34581 0.0
C2967 C 0.11302 0.62212 0.31832 0.0
C2968 C 0.07674 0.58 0.36793 0.0
C2969 C 0.08681 0.59079 0.38969 0.0
C2970 C 0.08864 0.5803 0.34875 0.0
C2971 C 0.11112 0.59197 0.35136 0.0
C2972 C 0.12089 0.60436 0.37301 0.0
C2973 C 0.10867 0.60337 0.39207 0.0
C2974 C 0.07763 0.56669 0.32599 0.0
C2975 C 0.14457 0.6176 0.37627 0.0
H2976 H 0.15144 0.54946 0.30404 0.0
H2977 H 0.12985 0.60404 0.28016 0.0
H2978 H 0.1434 0.56653 0.36271 0.0
H2979 H 0.11971 0.54687 0.34752 0.0
H2980 H 0.14748 0.54345 0.34122 0.0
H2981 H 0.11754 0.63277 0.3056 0.0
H2982 H 0.09457 0.61667 0.31666 0.0
H2983 H 0.11809 0.63241 0.33569 0.0
H2984 H 0.05997 0.56996 0.36605 0.0
H2985 H 0.11642 0.61183 0.4089 0.0
H2986 H 0.08639 0.55273 0.32033 0.0
H2987 H 0.07885 0.57722 0.31287 0.0
H2988 H 0.05971 0.55946 0.32673 0.0
H2989 H 0.15636 0.606 0.37648 0.0
H2990 H 0.14785 0.63006 0.3926 0.0
H2991 H 0.14817 0.62648 0.36202 0.0
C2992 C 0.81062 0.86658 0.6216 0.0
C2993 C 0.8123 0.85232 0.60087 0.0
C2994 C 0.80831 0.85849 0.64195 0.0
C2995 C 0.80809 0.83556 0.64187 0.0
C2996 C 0.81 0.82107 0.62105 0.0
C2997 C 0.81185 0.82956 0.60078 0.0
C2998 C 0.80598 0.87453 0.66358 0.0
C2999 C 0.8103 0.79663 0.62024 0.0
C3000 C 0.82416 0.82185 0.69937 0.0
C3001 C 0.80333 0.81304 0.70626 0.0
C3002 C 0.82595 0.8286 0.67827 0.0
C3003 C 0.80641 0.82703 0.66373 0.0
C3004 C 0.7853 0.81819 0.67058 0.0
C3005 C 0.78403 0.81107 0.69161 0.0
C3006 C 0.84884 0.83748 0.67159 0.0
C3007 C 0.764 0.81663 0.65587 0.0
H3008 H 0.81073 0.88416 0.62189 0.0
H3009 H 0.81312 0.8184 0.5849 0.0
H3010 H 0.79038 0.86823 0.67097 0.0
H3011 H 0.82012 0.87562 0.67643 0.0
H3012 H 0.80564 0.89167 0.66066 0.0
H3013 H 0.81206 0.78758 0.60282 0.0
H3014 H 0.82436 0.79506 0.63196 0.0
H3015 H 0.79466 0.78829 0.62616 0.0
H3016 H 0.83923 0.82321 0.71037 0.0
H3017 H 0.76788 0.80431 0.69675 0.0
H3018 H 0.85027 0.85529 0.67017 0.0
H3019 H 0.85131 0.82798 0.65462 0.0
H3020 H 0.86246 0.83635 0.68411 0.0
H3021 H 0.76233 0.8336 0.65345 0.0
H3022 H 0.74894 0.80913 0.66342 0.0
H3023 H 0.76456 0.80635 0.63875 0.0
C3024 C 0.69101 0.46718 0.49263 0.0
C3025 C 0.71082 0.47674 0.50685 0.0
C3026 C 0.67105 0.47528 0.49608 0.0
C3027 C 0.67038 0.49286 0.51482 0.0
C3028 C 0.69028 0.50231 0.52948 0.0
C3029 C 0.71026 0.49447 0.52507 0.0
C3030 C 0.65071 0.46517 0.47941 0.0
C3031 C 0.69037 0.52051 0.55009 0.0
C3032 C 0.62525 0.52845 0.51331 0.0
C3033 C 0.60839 0.51776 0.52487 0.0
C3034 C 0.64522 0.52045 0.50978 0.0
C3035 C 0.64909 0.50167 0.51872 0.0
C3036 C 0.63232 0.49112 0.5309 0.0
C3037 C 0.61206 0.49895 0.53339 0.0
C3038 C 0.66192 0.53174 0.49582 0.0
C3039 C 0.63576 0.47148 0.54133 0.0
H3040 H 0.69122 0.45354 0.47845 0.0
H3041 H 0.72534 0.50182 0.53634 0.0
H3042 H 0.63696 0.45713 0.48827 0.0
H3043 H 0.64467 0.47853 0.47226 0.0
H3044 H 0.65417 0.45241 0.46511 0.0
H3045 H 0.70676 0.5253 0.56052 0.0
H3046 H 0.68642 0.53563 0.54467 0.0
H3047 H 0.67723 0.51479 0.56093 0.0
H3048 H 0.62247 0.54268 0.50618 0.0
H3049 H 0.59915 0.49046 0.54221 0.0
H3050 H 0.6648 0.51931 0.48093 0.0
H3051 H 0.67821 0.5384 0.50613 0.0
H3052 H 0.65624 0.54575 0.48952 0.0
H3053 H 0.63642 0.45689 0.52768 0.0
H3054 H 0.62218 0.46642 0.552 0.0
H3055 H 0.65197 0.47572 0.55201 0.0
C3056 C 0.21024 0.12988 0.49171 0.0
C3057 C 0.21029 0.15045 0.48503 0.0
C3058 C 0.19021 0.11566 0.49423 0.0
C3059 C 0.16955 0.12173 0.48926 0.0
C3060 C 0.1694 0.14207 0.48164 0.0
C3061 C 0.1898 0.15637 0.47993 0.0
C3062 C 0.19124 0.09449 0.50302 0.0
C3063 C 0.14771 0.14885 0.47556 0.0
C3064 C 0.11855 0.07405 0.48151 0.0
C3065 C 0.10984 0.0783 0.50267 0.0
C3066 C 0.13745 0.08856 0.47652 0.0
C3067 C 0.14829 0.10731 0.49336 0.0
C3068 C 0.13956 0.11155 0.51478 0.0
C3069 C 0.12028 0.09721 0.51902 0.0
C3070 C 0.14583 0.08381 0.45326 0.0
C3071 C 0.15092 0.1309 0.53348 0.0
H3072 H 0.22596 0.12512 0.4957 0.0
H3073 H 0.18972 0.17215 0.4746 0.0
H3074 H 0.18338 0.09506 0.51931 0.0
H3075 H 0.1817 0.07965 0.49074 0.0
H3076 H 0.20866 0.09211 0.50598 0.0
H3077 H 0.15038 0.16407 0.46795 0.0
H3078 H 0.13664 0.13495 0.46332 0.0
H3079 H 0.1388 0.15227 0.49105 0.0
H3080 H 0.11035 0.05962 0.46872 0.0
H3081 H 0.11366 0.10053 0.53544 0.0
H3082 H 0.16267 0.0797 0.45482 0.0
H3083 H 0.14747 0.09895 0.44558 0.0
H3084 H 0.13456 0.06965 0.4415 0.0
H3085 H 0.16827 0.12908 0.5379 0.0
H3086 H 0.14198 0.13192 0.54916 0.0
H3087 H 0.15202 0.14695 0.52754 0.0
C3088 C 0.23483 0.95317 0.7786 0.0
C3089 C 0.21463 0.95226 0.76513 0.0
C3090 C 0.24533 0.93397 0.77881 0.0
C3091 C 0.23646 0.91233 0.76468 0.0
C3092 C 0.21626 0.91141 0.7508 0.0
C3093 C 0.20573 0.93069 0.75144 0.0
C3094 C 0.26609 0.93691 0.79471 0.0
C3095 C 0.20561 0.88979 0.73478 0.0
C3096 C 0.27632 0.86756 0.75098 0.0
C3097 C 0.26961 0.85102 0.76419 0.0
C3098 C 0.26577 0.88671 0.75066 0.0
C3099 C 0.248 0.89106 0.76451 0.0
C3100 C 0.24148 0.87464 0.7782 0.0
C3101 C 0.25176 0.85523 0.77758 0.0
C3102 C 0.2737 0.90239 0.73505 0.0
C3103 C 0.22358 0.87771 0.79409 0.0
H3104 H 0.24245 0.96906 0.78955 0.0
H3105 H 0.19038 0.92882 0.74071 0.0
H3106 H 0.26378 0.92414 0.80561 0.0
H3107 H 0.28042 0.93427 0.78472 0.0
H3108 H 0.27035 0.95385 0.80586 0.0
H3109 H 0.19119 0.89168 0.72371 0.0
H3110 H 0.21813 0.88368 0.72381 0.0
H3111 H 0.19973 0.87674 0.74469 0.0
H3112 H 0.28982 0.86537 0.74036 0.0
H3113 H 0.24596 0.84339 0.78823 0.0
H3114 H 0.28152 0.91915 0.74529 0.0
H3115 H 0.25927 0.90456 0.7242 0.0
H3116 H 0.28606 0.89623 0.72388 0.0
H3117 H 0.22781 0.89467 0.80517 0.0
H3118 H 0.22137 0.865 0.80507 0.0
H3119 H 0.20744 0.87646 0.78409 0.0
C3120 C 0.3668 0.99847 0.97604 0.0
C3121 C 0.35465 0.99473 0.99465 0.0
C3122 C 0.39039 1.00285 0.97801 0.0
C3123 C 0.40242 1.00421 0.99931 0.0
C3124 C 0.39026 1.00102 0.01834 0.0
C3125 C 0.36662 0.99599 0.01572 0.0
C3126 C 0.40243 0.00551 0.95707 0.0
C3127 C 0.40225 1.00291 0.04153 0.0
C3128 C 0.46293 0.99521 1.00031 0.0
C3129 C 0.47534 0.01724 0.00389 0.0
C3130 C 0.43932 0.99074 0.9987 0.0
C3131 C 0.42766 0.00873 0.00149 0.0
C3132 C 0.44018 0.03104 0.00569 0.0
C3133 C 0.46374 0.03499 0.00648 0.0
C3134 C 0.42683 0.96669 0.99359 0.0
C3135 C 0.42868 0.0508 0.00949 0.0
H3136 H 0.35783 0.9973 0.95961 0.0
H3137 H 0.35748 0.99317 0.03023 0.0
H3138 H 0.41355 0.02228 0.95989 0.0
H3139 H 0.41316 0.99285 0.95377 0.0
H3140 H 0.39072 1.00355 0.94166 0.0
H3141 H 0.3905 1.00122 0.05488 0.0
H3142 H 0.41236 0.98972 0.04094 0.0
H3143 H 0.41396 0.01935 0.04656 0.0
H3144 H 0.47169 0.98137 0.99826 0.0
H3145 H 0.47314 0.05208 0.00958 0.0
H3146 H 0.41549 0.96354 0.97772 0.0
H3147 H 0.41628 0.96344 0.00753 0.0
H3148 H 0.43825 0.95459 0.9915 0.0
H3149 H 0.41801 0.0507 0.99388 0.0
H3150 H 0.44076 0.06707 0.01394 0.0
H3151 H 0.41758 0.04956 0.02342 0.0
C3152 C 0.86009 0.60766 0.79641 0.0
C3153 C 0.85403 0.58803 0.80495 0.0
C3154 C 0.84433 0.62065 0.79257 0.0
C3155 C 0.8221 0.61413 0.79792 0.0
C3156 C 0.81634 0.59533 0.80824 0.0
C3157 C 0.83233 0.58228 0.81135 0.0
C3158 C 0.85112 0.64051 0.78137 0.0
C3159 C 0.79307 0.58842 0.81501 0.0
C3160 C 0.7885 0.65915 0.79463 0.0
C3161 C 0.77842 0.65237 0.77213 0.0
C3162 C 0.80131 0.6459 0.80407 0.0
C3163 C 0.80463 0.62573 0.79048 0.0
C3164 C 0.79325 0.61803 0.76839 0.0
C3165 C 0.77999 0.63127 0.75965 0.0
C3166 C 0.81254 0.65438 0.82798 0.0
C3167 C 0.79644 0.59665 0.75327 0.0
H3168 H 0.87684 0.61217 0.79142 0.0
H3169 H 0.82764 0.56721 0.81817 0.0
H3170 H 0.84168 0.63736 0.76435 0.0
H3171 H 0.84694 0.65577 0.79166 0.0
H3172 H 0.86928 0.6439 0.77918 0.0
H3173 H 0.79226 0.57573 0.82599 0.0
H3174 H 0.78717 0.60321 0.82424 0.0
H3175 H 0.78136 0.58116 0.79951 0.0
H3176 H 0.78762 0.67545 0.80449 0.0
H3177 H 0.77175 0.62557 0.74252 0.0
H3178 H 0.83004 0.66289 0.82721 0.0
H3179 H 0.81297 0.64038 0.83706 0.0
H3180 H 0.80391 0.66665 0.83804 0.0
H3181 H 0.814 0.59864 0.74885 0.0
H3182 H 0.7852 0.59222 0.7372 0.0
H3183 H 0.79334 0.58249 0.76235 0.0
C3184 C 0.85069 0.66223 0.00846 0.0
C3185 C 0.8305 0.64755 0.00951 0.0
C3186 C 0.87129 0.65536 0.01084 0.0
C3187 C 0.87156 0.63329 0.01407 0.0
C3188 C 0.85116 0.61824 0.01426 0.0
C3189 C 0.83098 0.62556 0.01208 0.0
C3190 C 0.89273 0.67188 0.01062 0.0
C3191 C 0.85061 0.59447 0.01735 0.0
C3192 C 0.92021 0.60364 0.00426 0.0
C3193 C 0.9282 0.60382 0.0267 0.0
C3194 C 0.90266 0.61444 0.99978 0.0
C3195 C 0.89296 0.62582 0.0182 0.0
C3196 C 0.9019 0.6272 0.04085 0.0
C3197 C 0.91931 0.61607 0.04483 0.0
C3198 C 0.89353 0.61239 0.9754 0.0
C3199 C 0.89222 0.63936 0.06097 0.0
H3200 H 0.85044 0.67924 0.00652 0.0
H3201 H 0.81545 0.61399 0.01261 0.0
H3202 H 0.90227 0.67573 0.02765 0.0
H3203 H 0.9034 0.6645 0.99815 0.0
H3204 H 0.88967 0.68781 0.00629 0.0
H3205 H 0.8333 0.58457 0.016 0.0
H3206 H 0.85992 0.58578 0.00433 0.0
H3207 H 0.85893 0.59465 0.03432 0.0
H3208 H 0.92695 0.59409 0.99017 0.0
H3209 H 0.92569 0.61655 0.0622 0.0
H3210 H 0.89102 0.62889 0.97223 0.0
H3211 H 0.87699 0.60083 0.97214 0.0
H3212 H 0.90475 0.60579 0.96305 0.0
H3213 H 0.89027 0.65618 0.05832 0.0
H3214 H 0.90279 0.64136 0.07719 0.0
H3215 H 0.87536 0.62981 0.06268 0.0
C3216 C 0.20917 0.12143 0.78761 0.0
C3217 C 0.21376 0.102 0.77362 0.0
C3218 C 0.22081 0.14368 0.78737 0.0
C3219 C 0.23749 0.14772 0.77213 0.0
C3220 C 0.24242 0.12818 0.758 0.0
C3221 C 0.23085 0.10591 0.75903 0.0
C3222 C 0.21481 0.16309 0.80338 0.0
C3223 C 0.25942 0.13083 0.74097 0.0
C3224 C 0.24916 0.20778 0.75666 0.0
C3225 C 0.26953 0.21901 0.76956 0.0
C3226 C 0.23916 0.18492 0.75685 0.0
C3227 C 0.24904 0.17218 0.77071 0.0
C3228 C 0.26953 0.18348 0.78391 0.0
C3229 C 0.27947 0.2062 0.78297 0.0
C3230 C 0.21777 0.17432 0.74196 0.0
C3231 C 0.28089 0.17164 0.79954 0.0
H3232 H 0.19599 0.11925 0.79883 0.0
H3233 H 0.2345 0.0916 0.74755 0.0
H3234 H 0.23012 0.17395 0.81316 0.0
H3235 H 0.20692 0.17351 0.79347 0.0
H3236 H 0.20308 0.15744 0.8156 0.0
H3237 H 0.2621 0.11442 0.73161 0.0
H3238 H 0.25377 0.14026 0.72845 0.0
H3239 H 0.27563 0.14074 0.74969 0.0
H3240 H 0.24099 0.21685 0.74603 0.0
H3241 H 0.29504 0.2141 0.79321 0.0
H3242 H 0.20404 0.17023 0.75274 0.0
H3243 H 0.21967 0.15835 0.73102 0.0
H3244 H 0.21284 0.18547 0.73088 0.0
H3245 H 0.26941 0.16655 0.81217 0.0
H3246 H 0.29655 0.18232 0.80882 0.0
H3247 H 0.2849 0.15611 0.7896 0.0
C3248 C 0.37219 0.96364 0.29995 0.0
C3249 C 0.39484 0.96782 0.29596 0.0
C3250 C 0.36073 0.94183 0.29988 0.0
C3251 C 0.37231 0.9239 0.29609 0.0
C3252 C 0.39555 0.92828 0.29388 0.0
C3253 C 0.40652 0.9502 0.29365 0.0
C3254 C 0.33589 0.93778 0.30208 0.0
C3255 C 0.40854 0.90962 0.29026 0.0
C3256 C 0.34397 0.86603 0.30357 0.0
C3257 C 0.33709 0.85542 0.28087 0.0
C3258 C 0.35547 0.88845 0.30894 0.0
C3259 C 0.35965 0.90045 0.29118 0.0
C3260 C 0.35212 0.88991 0.26831 0.0
C3261 C 0.34112 0.86745 0.26343 0.0
C3262 C 0.3636 0.8991 0.33344 0.0
C3263 C 0.35586 0.90228 0.24892 0.0
H3264 H 0.36306 0.97719 0.3018 0.0
H3265 H 0.4241 0.95339 0.29088 0.0
H3266 H 0.3268 0.9294 0.28526 0.0
H3267 H 0.33139 0.92649 0.31418 0.0
H3268 H 0.33001 0.95365 0.30795 0.0
H3269 H 0.42688 0.91613 0.29219 0.0
H3270 H 0.40445 0.89839 0.30251 0.0
H3271 H 0.40382 0.89933 0.27284 0.0
H3272 H 0.34096 0.85663 0.31703 0.0
H3273 H 0.33554 0.85929 0.24589 0.0
H3274 H 0.35735 0.91484 0.33856 0.0
H3275 H 0.38213 0.90364 0.3353 0.0
H3276 H 0.35818 0.88777 0.34531 0.0
H3277 H 0.34885 0.91774 0.2522 0.0
H3278 H 0.34805 0.89188 0.23225 0.0
H3279 H 0.37403 0.90746 0.24766 0.0
C3280 C 0.5814 0.3522 0.56337 0.0
C3281 C 0.58425 0.32997 0.55903 0.0
C3282 C 0.5754 0.36233 0.54557 0.0
C3283 C 0.57174 0.34972 0.52292 0.0
C3284 C 0.5753 0.32747 0.51832 0.0
C3285 C 0.58167 0.31788 0.53648 0.0
C3286 C 0.57221 0.38631 0.55114 0.0
C3287 C 0.57129 0.31343 0.49449 0.0
C3288 C 0.53099 0.37465 0.49211 0.0
C3289 C 0.54559 0.39059 0.48328 0.0
C3290 C 0.53908 0.35896 0.50263 0.0
C3291 C 0.56233 0.35959 0.50477 0.0
C3292 C 0.57669 0.37344 0.49318 0.0
C3293 C 0.56804 0.38857 0.48219 0.0
C3294 C 0.52306 0.34377 0.51401 0.0
C3295 C 0.60156 0.37431 0.49472 0.0
H3296 H 0.58363 0.36164 0.58076 0.0
H3297 H 0.58384 0.30062 0.53309 0.0
H3298 H 0.58191 0.39645 0.54024 0.0
H3299 H 0.55432 0.3868 0.54761 0.0
H3300 H 0.57751 0.39428 0.56929 0.0
H3301 H 0.57903 0.29841 0.49309 0.0
H3302 H 0.55304 0.30767 0.48988 0.0
H3303 H 0.57794 0.32334 0.48186 0.0
H3304 H 0.51358 0.37573 0.49301 0.0
H3305 H 0.57931 0.40016 0.47454 0.0
H3306 H 0.52442 0.35087 0.53256 0.0
H3307 H 0.5272 0.32685 0.51187 0.0
H3308 H 0.50546 0.34204 0.50705 0.0
H3309 H 0.60926 0.38478 0.51137 0.0
H3310 H 0.60949 0.38182 0.48096 0.0
H3311 H 0.60534 0.35735 0.4938 0.0
C3312 C 0.4342 0.76583 0.36532 0.0
C3313 C 0.45311 0.77905 0.35892 0.0
C3314 C 0.4132 0.7627 0.35301 0.0
C3315 C 0.41126 0.77312 0.33408 0.0
C3316 C 0.43017 0.78699 0.32805 0.0
C3317 C 0.45079 0.78973 0.34049 0.0
C3318 C 0.39326 0.74791 0.3599 0.0
C3319 C 0.42878 0.79869 0.30814 0.0
C3320 C 0.36923 0.75339 0.2827 0.0
C3321 C 0.35627 0.76986 0.28615 0.0
C3322 C 0.38593 0.7528 0.29942 0.0
C3323 C 0.38984 0.76934 0.31977 0.0
C3324 C 0.37579 0.78514 0.32383 0.0
C3325 C 0.35932 0.78538 0.30675 0.0
C3326 C 0.40058 0.73568 0.29447 0.0
C3327 C 0.37947 0.80312 0.34521 0.0
H3328 H 0.4359 0.75759 0.37959 0.0
H3329 H 0.46522 0.80026 0.33562 0.0
H3330 H 0.37911 0.75682 0.3619 0.0
H3331 H 0.38759 0.73275 0.34628 0.0
H3332 H 0.39714 0.74251 0.37609 0.0
H3333 H 0.44499 0.80939 0.30616 0.0
H3334 H 0.4235 0.78608 0.2921 0.0
H3335 H 0.41607 0.80938 0.31037 0.0
H3336 H 0.36681 0.74148 0.2666 0.0
H3337 H 0.35003 0.79878 0.30883 0.0
H3338 H 0.40347 0.72836 0.30965 0.0
H3339 H 0.4171 0.744 0.29029 0.0
H3340 H 0.39316 0.72191 0.27987 0.0
H3341 H 0.38288 0.79606 0.36045 0.0
H3342 H 0.36481 0.81128 0.34763 0.0
H3343 H 0.39424 0.81618 0.34408 0.0
C3344 C 0.11571 0.70561 0.11288 0.0
C3345 C 0.10891 0.72269 0.1035 0.0
C3346 C 0.11155 0.68345 0.10052 0.0
C3347 C 0.10022 0.67831 0.07836 0.0
C3348 C 0.09437 0.69565 0.06837 0.0
C3349 C 0.09884 0.71764 0.08102 0.0
C3350 C 0.11828 0.66537 0.11159 0.0
C3351 C 0.08221 0.69082 0.0448 0.0
C3352 C 0.09735 0.62147 0.04002 0.0
C3353 C 0.07653 0.60978 0.04416 0.0
C3354 C 0.10549 0.64378 0.05123 0.0
C3355 C 0.09233 0.65461 0.06662 0.0
C3356 C 0.07119 0.64295 0.07062 0.0
C3357 C 0.06361 0.62063 0.05944 0.0
C3358 C 0.12819 0.6557 0.04674 0.0
C3359 C 0.0565 0.65406 0.08665 0.0
H3360 H 0.12368 0.70939 0.13014 0.0
H3361 H 0.09368 0.73074 0.07352 0.0
H3362 H 0.1031 0.65432 0.11547 0.0
H3363 H 0.12716 0.65473 0.0998 0.0
H3364 H 0.12922 0.67242 0.1277 0.0
H3365 H 0.0808 0.7064 0.03864 0.0
H3366 H 0.09089 0.68055 0.03244 0.0
H3367 H 0.06511 0.68099 0.04501 0.0
H3368 H 0.10745 0.61308 0.02833 0.0
H3369 H 0.04743 0.61173 0.06257 0.0
H3370 H 0.13919 0.66137 0.06293 0.0
H3371 H 0.1266 0.67089 0.03996 0.0
H3372 H 0.1364 0.64484 0.0344 0.0
H3373 H 0.06537 0.65976 0.104 0.0
H3374 H 0.04044 0.64265 0.08774 0.0
H3375 H 0.05276 0.66911 0.08088 0.0
C3376 C 0.09629 0.2843 0.90671 0.0
C3377 C 0.07578 0.27525 0.89367 0.0
C3378 C 0.11637 0.28684 0.89624 0.0
C3379 C 0.11573 0.28043 0.87224 0.0
C3380 C 0.09515 0.2705 0.85916 0.0
C3381 C 0.07549 0.2679 0.87006 0.0
C3382 C 0.13811 0.29708 0.91071 0.0
C3383 C 0.09373 0.26355 0.8335 0.0
C3384 C 0.1583 0.30907 0.83828 0.0
C3385 C 0.17031 0.2922 0.83121 0.0
C3386 C 0.14119 0.30588 0.85265 0.0
C3387 C 0.13613 0.28539 0.86032 0.0
C3388 C 0.14898 0.26877 0.85427 0.0
C3389 C 0.16584 0.27231 0.83965 0.0
C3390 C 0.12781 0.32399 0.85867 0.0
C3391 C 0.1442 0.24681 0.86232 0.0
H3392 H 0.09662 0.28986 0.92499 0.0
H3393 H 0.05971 0.26076 0.85986 0.0
H3394 H 0.15084 0.28674 0.90632 0.0
H3395 H 0.14464 0.31396 0.90725 0.0
H3396 H 0.13609 0.29878 0.92922 0.0
H3397 H 0.07655 0.25521 0.82597 0.0
H3398 H 0.09908 0.27852 0.82595 0.0
H3399 H 0.10519 0.25191 0.82853 0.0
H3400 H 0.16204 0.3247 0.83229 0.0
H3401 H 0.17497 0.25913 0.8342 0.0
H3402 H 0.127 0.32812 0.87738 0.0
H3403 H 0.11041 0.31786 0.85069 0.0
H3404 H 0.13497 0.33958 0.8528 0.0
H3405 H 0.14232 0.24977 0.88088 0.0
H3406 H 0.15762 0.23708 0.85886 0.0
H3407 H 0.12822 0.23647 0.85347 0.0
C3408 C 0.58592 0.76283 0.9588 0.0
C3409 C 0.58367 0.75559 0.93503 0.0
C3410 C 0.58015 0.74764 0.97325 0.0
C3411 C 0.57172 0.72471 0.9637 0.0
C3412 C 0.56922 0.71734 0.93971 0.0
C3413 C 0.57533 0.73285 0.92567 0.0
C3414 C 0.58325 0.7561 0.99875 0.0
C3415 C 0.56011 0.69305 0.92887 0.0
C3416 C 0.57534 0.68074 0.99958 0.0
C3417 C 0.55347 0.6761 0.0059 0.0
C3418 C 0.5816 0.69674 0.98613 0.0
C3419 C 0.56558 0.70837 0.97876 0.0
C3420 C 0.54357 0.70402 0.98536 0.0
C3421 C 0.53778 0.68794 0.99885 0.0
C3422 C 0.60524 0.70086 0.97943 0.0
C3423 C 0.52604 0.71612 0.97788 0.0
H3424 H 0.59244 0.78036 0.96617 0.0
H3425 H 0.57349 0.72714 0.90732 0.0
H3426 H 0.56706 0.75235 0.00611 0.0
H3427 H 0.5949 0.74732 0.00667 0.0
H3428 H 0.58995 0.77445 0.00347 0.0
H3429 H 0.55891 0.69008 0.90995 0.0
H3430 H 0.57099 0.68232 0.93469 0.0
H3431 H 0.54324 0.6876 0.93428 0.0
H3432 H 0.58746 0.6714 0.00465 0.0
H3433 H 0.52092 0.68459 0.00386 0.0
H3434 H 0.61291 0.71896 0.98446 0.0
H3435 H 0.6051 0.69611 0.96065 0.0
H3436 H 0.61593 0.69117 0.98743 0.0
H3437 H 0.53187 0.7345 0.98345 0.0
H3438 H 0.50982 0.71114 0.98486 0.0
H3439 H 0.52327 0.71249 0.95899 0.0
C3440 C 0.08047 0.80053 0.67394 0.0
C3441 C 0.07512 0.7887 0.65141 0.0
C3442 C 0.09999 0.79918 0.68647 0.0
C3443 C 0.11434 0.78559 0.67619 0.0
C3444 C 0.11 0.77517 0.65286 0.0
C3445 C 0.09041 0.77694 0.64066 0.0
C3446 C 0.10426 0.81082 0.71123 0.0
C3447 C 0.12503 0.76063 0.64132 0.0
C3448 C 0.17 0.78873 0.70888 0.0
C3449 C 0.16491 0.77072 0.72013 0.0
C3450 C 0.15383 0.7936 0.69413 0.0
C3451 C 0.13214 0.78008 0.69059 0.0
C3452 C 0.12701 0.76163 0.70158 0.0
C3453 C 0.14349 0.75718 0.71625 0.0
C3454 C 0.15985 0.81332 0.6826 0.0
C3455 C 0.10399 0.74684 0.69817 0.0
H3456 H 0.06877 0.80984 0.68219 0.0
H3457 H 0.08636 0.76782 0.62321 0.0
H3458 H 0.10133 0.79814 0.72217 0.0
H3459 H 0.12189 0.81984 0.71523 0.0
H3460 H 0.09316 0.82297 0.71577 0.0
H3461 H 0.1213 0.75663 0.62249 0.0
H3462 H 0.14285 0.76896 0.64552 0.0
H3463 H 0.12268 0.74466 0.64758 0.0
H3464 H 0.1867 0.79897 0.71152 0.0
H3465 H 0.1395 0.74335 0.72504 0.0
H3466 H 0.14938 0.82583 0.68809 0.0
H3467 H 0.15635 0.80776 0.66385 0.0
H3468 H 0.17772 0.82168 0.68657 0.0
H3469 H 0.0915 0.75692 0.7043 0.0
H3470 H 0.10299 0.73273 0.70738 0.0
H3471 H 0.09925 0.73981 0.67976 0.0
C3472 C 0.10573 0.39493 0.4101 0.0
C3473 C 0.09746 0.37372 0.41482 0.0
C3474 C 0.09927 0.41418 0.42198 0.0
C3475 C 0.08408 0.41209 0.4388 0.0
C3476 C 0.07603 0.39081 0.44393 0.0
C3477 C 0.08289 0.37194 0.43198 0.0
C3478 C 0.10842 0.43669 0.41631 0.0
C3479 C 0.0598 0.3879 0.46177 0.0
C3480 C 0.07969 0.46165 0.48478 0.0
C3481 C 0.06025 0.46782 0.47664 0.0
C3482 C 0.08804 0.44402 0.47225 0.0
C3483 C 0.07652 0.43206 0.45121 0.0
C3484 C 0.05702 0.43833 0.44273 0.0
C3485 C 0.04919 0.45628 0.45551 0.0
C3486 C 0.10902 0.438 0.48172 0.0
C3487 C 0.04418 0.42578 0.42044 0.0
H3488 H 0.11699 0.39647 0.39689 0.0
H3489 H 0.07636 0.35566 0.43579 0.0
H3490 H 0.09454 0.44373 0.40973 0.0
H3491 H 0.11665 0.44866 0.43193 0.0
H3492 H 0.12069 0.43559 0.40337 0.0
H3493 H 0.05515 0.37019 0.46374 0.0
H3494 H 0.0672 0.39836 0.4785 0.0
H3495 H 0.04435 0.39367 0.45711 0.0
H3496 H 0.08854 0.4707 0.50096 0.0
H3497 H 0.03421 0.46103 0.44911 0.0
H3498 H 0.12145 0.4378 0.46892 0.0
H3499 H 0.10507 0.42089 0.48548 0.0
H3500 H 0.11679 0.44989 0.4976 0.0
H3501 H 0.05539 0.42554 0.40651 0.0
H3502 H 0.02986 0.4333 0.4158 0.0
H3503 H 0.03773 0.40809 0.4216 0.0
C3504 C 0.43271 0.26098 0.17421 0.0
C3505 C 0.45079 0.25292 0.18263 0.0
C3506 C 0.41375 0.26164 0.1863 0.0
C3507 C 0.413 0.25406 0.2072 0.0
C3508 C 0.43049 0.24444 0.21488 0.0
C3509 C 0.44916 0.24397 0.20249 0.0
C3510 C 0.39521 0.27178 0.17749 0.0
C3511 C 0.43023 0.23608 0.23701 0.0
C3512 C 0.38193 0.28491 0.25124 0.0
C3513 C 0.36146 0.26986 0.24941 0.0
C3514 C 0.39902 0.27965 0.23797 0.0
C3515 C 0.3955 0.25885 0.22242 0.0
C3516 C 0.37529 0.24311 0.22125 0.0
C3517 C 0.35847 0.24878 0.23487 0.0
C3518 C 0.42054 0.29673 0.23997 0.0
C3519 C 0.37102 0.22077 0.20488 0.0
H3520 H 0.43379 0.26776 0.1588 0.0
H3521 H 0.4629 0.23733 0.20893 0.0
H3522 H 0.3787 0.26095 0.17801 0.0
H3523 H 0.39537 0.28829 0.1886 0.0
H3524 H 0.39698 0.27429 0.15976 0.0
H3525 H 0.44361 0.22648 0.23906 0.0
H3526 H 0.43268 0.25057 0.25153 0.0
H3527 H 0.41386 0.22524 0.23803 0.0
H3528 H 0.38435 0.30117 0.26255 0.0
H3529 H 0.34258 0.23716 0.23324 0.0
H3530 H 0.42266 0.30234 0.22355 0.0
H3531 H 0.43503 0.28909 0.24368 0.0
H3532 H 0.42094 0.3117 0.25359 0.0
H3533 H 0.36968 0.22349 0.18712 0.0
H3534 H 0.35538 0.2096 0.20763 0.0
H3535 H 0.38518 0.21211 0.20663 0.0
C3536 C 0.63927 0.52267 0.3598 0.0
C3537 C 0.62885 0.52915 0.34106 0.0
C3538 C 0.62994 0.52352 0.3816 0.0
C3539 C 0.60924 0.5308 0.38557 0.0
C3540 C 0.59862 0.53695 0.3666 0.0
C3541 C 0.60833 0.53618 0.3453 0.0
C3542 C 0.64253 0.51684 0.40066 0.0
C3543 C 0.57665 0.54457 0.36875 0.0
C3544 C 0.57256 0.51591 0.43534 0.0
C3545 C 0.57631 0.53599 0.45212 0.0
C3546 C 0.58316 0.51392 0.41436 0.0
C3547 C 0.59863 0.53225 0.40911 0.0
C3548 C 0.60272 0.55245 0.42612 0.0
C3549 C 0.59172 0.55407 0.44687 0.0
C3550 C 0.57749 0.49194 0.39749 0.0
C3551 C 0.61888 0.57271 0.42239 0.0
H3552 H 0.65504 0.51731 0.35767 0.0
H3553 H 0.59949 0.54128 0.33163 0.0
H3554 H 0.64681 0.53116 0.41539 0.0
H3555 H 0.63182 0.50289 0.40658 0.0
H3556 H 0.65816 0.5115 0.39543 0.0
H3557 H 0.56989 0.54823 0.35258 0.0
H3558 H 0.56414 0.53148 0.37397 0.0
H3559 H 0.57881 0.55993 0.38223 0.0
H3560 H 0.56102 0.50151 0.4385 0.0
H3561 H 0.5954 0.56976 0.45917 0.0
H3562 H 0.59295 0.48557 0.39368 0.0
H3563 H 0.5698 0.49449 0.38122 0.0
H3564 H 0.56575 0.47898 0.40384 0.0
H3565 H 0.63526 0.56822 0.41882 0.0
H3566 H 0.62147 0.58682 0.43734 0.0
H3567 H 0.61256 0.57849 0.40728 0.0
C3568 C 0.2842 0.89801 0.05136 0.0
C3569 C 0.28423 0.92104 0.057 0.0
C3570 C 0.28796 0.88585 0.06823 0.0
C3571 C 0.2915 0.89686 0.09141 0.0
C3572 C 0.29101 0.92 0.09732 0.0
C3573 C 0.28758 0.93188 0.08 0.0
C3574 C 0.28864 0.86127 0.06116 0.0
C3575 C 0.29436 0.93221 0.12188 0.0
C3576 C 0.28358 0.85738 0.13311 0.0
C3577 C 0.30565 0.85541 0.13846 0.0
C3578 C 0.27877 0.8717 0.1187 0.0
C3579 C 0.29644 0.88412 0.10921 0.0
C3580 C 0.31882 0.88278 0.11521 0.0
C3581 C 0.32315 0.86851 0.12984 0.0
C3582 C 0.25473 0.87293 0.11301 0.0
C3583 C 0.33813 0.89559 0.10531 0.0
H3584 H 0.28173 0.88952 0.03363 0.0
H3585 H 0.28753 0.94966 0.08447 0.0
H3586 H 0.30526 0.85834 0.06674 0.0
H3587 H 0.27601 0.85108 0.06959 0.0
H3588 H 0.28539 0.85518 0.04242 0.0
H3589 H 0.29225 0.94987 0.12372 0.0
H3590 H 0.28229 0.92347 0.13201 0.0
H3591 H 0.31138 0.93216 0.12929 0.0
H3592 H 0.27004 0.84752 0.14004 0.0
H3593 H 0.34022 0.86691 0.1338 0.0
H3594 H 0.24957 0.86515 0.09483 0.0
H3595 H 0.25284 0.89067 0.11544 0.0
H3596 H 0.24322 0.86416 0.12365 0.0
H3597 H 0.33702 0.88923 0.08664 0.0
H3598 H 0.35458 0.89398 0.11294 0.0
H3599 H 0.33735 0.91363 0.10802 0.0
C3600 C 0.96476 0.5679 0.86503 0.0
C3601 C 0.95886 0.54589 0.85255 0.0
C3602 C 0.97824 0.57277 0.88582 0.0
C3603 C 0.98511 0.55504 0.89446 0.0
C3604 C 0.97855 0.53271 0.8821 0.0
C3605 C 0.96584 0.52849 0.86109 0.0
C3606 C 0.9855 0.59682 0.89827 0.0
C3607 C 0.98488 0.51322 0.89105 0.0
C3608 C 0.0347 0.55988 0.93689 0.0
C3609 C 0.02418 0.5583 0.95682 0.0
C3610 C 0.02241 0.56085 0.91676 0.0
C3611 C 0.99899 0.5594 0.9165 0.0
C3612 C 0.9885 0.5588 0.93688 0.0
C3613 C 1.0013 0.55852 0.95688 0.0
C3614 C 0.03426 0.5622 0.89549 0.0
C3615 C 0.9635 0.55657 0.93724 0.0
H3616 H 0.95945 0.58132 0.85819 0.0
H3617 H 0.96104 0.51143 0.85141 0.0
H3618 H 0.97984 0.59882 0.91566 0.0
H3619 H 0.00403 0.6015 0.90024 0.0
H3620 H 0.97883 0.60865 0.88919 0.0
H3621 H 0.97739 0.4968 0.87986 0.0
H3622 H 0.00331 0.51496 0.89252 0.0
H3623 H 0.97933 0.51316 0.90835 0.0
H3624 H 0.05245 0.55993 0.93693 0.0
H3625 H 0.99307 0.55705 0.97223 0.0
H3626 H 0.02851 0.57453 0.88646 0.0
H3627 H 0.03026 0.54564 0.88369 0.0
H3628 H 0.0527 0.56703 0.89936 0.0
H3629 H 0.95739 0.56871 0.92823 0.0
H3630 H 0.9584 0.55924 0.95489 0.0
H3631 H 0.95509 0.5395 0.92817 0.0
C3632 C 0.26578 0.2136 0.59307 0.0
C3633 C 0.27613 0.22215 0.57528 0.0
C3634 C 0.26951 0.22559 0.61567 0.0
C3635 C 0.28395 0.2469 0.62093 0.0
C3636 C 0.29382 0.25612 0.60301 0.0
C3637 C 0.2898 0.24365 0.58039 0.0
C3638 C 0.25852 0.21503 0.63408 0.0
C3639 C 0.30918 0.27885 0.60785 0.0
C3640 C 0.27865 0.28027 0.68003 0.0
C3641 C 0.29552 0.27462 0.69341 0.0
C3642 C 0.27548 0.27248 0.65621 0.0
C3643 C 0.28944 0.25863 0.6454 0.0
C3644 C 0.30715 0.25378 0.65867 0.0
C3645 C 0.30997 0.26182 0.6824 0.0
C3646 C 0.25652 0.27822 0.64276 0.0
C3647 C 0.32247 0.23911 0.64798 0.0
H3648 H 0.25498 0.19713 0.58944 0.0
H3649 H 0.29789 0.25045 0.56686 0.0
H3650 H 0.27151 0.21212 0.64622 0.0
H3651 H 0.24895 0.2265 0.64388 0.0
H3652 H 0.247 0.19877 0.62707 0.0
H3653 H 0.31385 0.2846 0.59196 0.0
H3654 H 0.30113 0.29146 0.61815 0.0
H3655 H 0.32466 0.27813 0.618 0.0
H3656 H 0.26745 0.29025 0.68823 0.0
H3657 H 0.32321 0.25747 0.69241 0.0
H3658 H 0.24325 0.26299 0.63698 0.0
H3659 H 0.26237 0.28405 0.6273 0.0
H3660 H 0.24905 0.2914 0.65299 0.0
H3661 H 0.31291 0.2217 0.64205 0.0
H3662 H 0.33676 0.23879 0.66012 0.0
H3663 H 0.32911 0.24503 0.63286 0.0
C3664 C 0.61381 0.51211 0.19199 0.0
C3665 C 0.63727 0.51869 0.19722 0.0
C3666 C 0.60263 0.51392 0.17079 0.0
C3667 C 0.61464 0.52312 0.15376 0.0
C3668 C 0.63828 0.53 0.15911 0.0
C3669 C 0.64907 0.52752 0.18016 0.0
C3670 C 0.5777 0.50571 0.16656 0.0
C3671 C 0.65239 0.54039 0.14254 0.0
C3672 C 0.5901 0.51166 0.08915 0.0
C3673 C 0.58091 0.53067 0.08706 0.0
C3674 C 0.60048 0.50886 0.1103 0.0
C3675 C 0.60271 0.52561 0.13069 0.0
C3676 C 0.59364 0.54493 0.12863 0.0
C3677 C 0.58285 0.54705 0.1074 0.0
C3678 C 0.60902 0.48762 0.11079 0.0
C3679 C 0.5956 0.56378 0.149 0.0
H3680 H 0.60402 0.50523 0.20447 0.0
H3681 H 0.66705 0.53294 0.18341 0.0
H3682 H 0.56944 0.51986 0.16466 0.0
H3683 H 0.57358 0.49312 0.15037 0.0
H3684 H 0.57062 0.49803 0.18059 0.0
H3685 H 0.67031 0.54569 0.14912 0.0
H3686 H 0.65099 0.52823 0.12617 0.0
H3687 H 0.6462 0.55522 0.13885 0.0
H3688 H 0.58895 0.49858 0.07412 0.0
H3689 H 0.57618 0.56197 0.10669 0.0
H3690 H 0.60157 0.47943 0.12433 0.0
H3691 H 0.6274 0.49166 0.11499 0.0
H3692 H 0.60509 0.47553 0.09424 0.0
H3693 H 0.58681 0.55755 0.16294 0.0
H3694 H 0.58848 0.57799 0.14492 0.0
H3695 H 0.61343 0.57006 0.1555 0.0
C3696 C 0.28678 0.89061 0.93378 0.0
C3697 C 0.27752 0.90812 0.92777 0.0
C3698 C 0.29059 0.8728 0.91708 0.0
C3699 C 0.28486 0.87229 0.89375 0.0
C3700 C 0.27469 0.88942 0.88762 0.0
C3701 C 0.27125 0.90713 0.90465 0.0
C3702 C 0.30156 0.85498 0.92439 0.0
C3703 C 0.26808 0.88944 0.86297 0.0
C3704 C 0.31627 0.84399 0.84747 0.0
C3705 C 0.30089 0.82413 0.83803 0.0
C3706 C 0.31163 0.85927 0.86616 0.0
C3707 C 0.29092 0.85483 0.8756 0.0
C3708 C 0.27571 0.83435 0.86681 0.0
C3709 C 0.28093 0.81918 0.84821 0.0
C3710 C 0.32851 0.88069 0.87516 0.0
C3711 C 0.25342 0.82898 0.87625 0.0
H3712 H 0.29173 0.89113 0.95154 0.0
H3713 H 0.26399 0.92046 0.89977 0.0
H3714 H 0.29165 0.83805 0.91681 0.0
H3715 H 0.31835 0.85601 0.91805 0.0
H3716 H 0.30347 0.8568 0.94322 0.0
H3717 H 0.25885 0.90296 0.86112 0.0
H3718 H 0.28324 0.89178 0.85366 0.0
H3719 H 0.25744 0.87307 0.85466 0.0
H3720 H 0.33174 0.84795 0.83973 0.0
H3721 H 0.26881 0.80404 0.84086 0.0
H3722 H 0.33208 0.88305 0.89389 0.0
H3723 H 0.32159 0.89523 0.87177 0.0
H3724 H 0.34449 0.88083 0.86717 0.0
H3725 H 0.25566 0.83128 0.89508 0.0
H3726 H 0.24439 0.81156 0.86907 0.0
H3727 H 0.24284 0.84074 0.87218 0.0
C3728 C 0.93416 0.54175 0.72035 0.0
C3729 C 0.91378 0.53016 0.72553 0.0
C3730 C 0.94321 0.53449 0.70004 0.0
C3731 C 0.93163 0.51504 0.68462 0.0
C3732 C 0.91032 0.50411 0.68903 0.0
C3733 C 0.90156 0.51187 0.7095 0.0
C3734 C 0.96583 0.54686 0.69579 0.0
C3735 C 0.89746 0.48342 0.6729 0.0
C3736 C 0.95687 0.5073 0.62833 0.0
C3737 C 0.97283 0.49463 0.6327 0.0
C3738 C 0.94194 0.51268 0.6444 0.0
C3739 C 0.94311 0.50521 0.66526 0.0
C3740 C 0.95798 0.49092 0.66893 0.0
C3741 C 0.97274 0.48586 0.6526 0.0
C3742 C 0.92622 0.52781 0.63979 0.0
C3743 C 0.95947 0.48233 0.69084 0.0
H3744 H 0.94351 0.55604 0.73264 0.0
H3745 H 0.88578 0.50287 0.71347 0.0
H3746 H 0.97831 0.53604 0.6966 0.0
H3747 H 0.96524 0.55085 0.67851 0.0
H3748 H 0.97169 0.56272 0.70849 0.0
H3749 H 0.8798 0.47917 0.67679 0.0
H3750 H 0.89771 0.48568 0.65498 0.0
H3751 H 0.90548 0.46899 0.67429 0.0
H3752 H 0.95694 0.5142 0.61298 0.0
H3753 H 0.9848 0.47572 0.65579 0.0
H3754 H 0.93292 0.54504 0.64963 0.0
H3755 H 0.90951 0.5221 0.64539 0.0
H3756 H 0.92427 0.52854 0.62143 0.0
H3757 H 0.9671 0.49644 0.70501 0.0
H3758 H 0.96977 0.46923 0.68983 0.0
H3759 H 0.94256 0.47529 0.69514 0.0
C3760 C 0.28675 0.24709 0.43336 0.0
C3761 C 0.2932 0.22688 0.43547 0.0
C3762 C 0.28999 0.2561 0.41354 0.0
C3763 C 0.30012 0.2448 0.39537 0.0
C3764 C 0.30717 0.2247 0.39766 0.0
C3765 C 0.30356 0.21598 0.41755 0.0
C3766 C 0.28195 0.2774 0.41178 0.0
C3767 C 0.31804 0.21205 0.37881 0.0
C3768 C 0.28669 0.25308 0.33493 0.0
C3769 C 0.30566 0.26842 0.33149 0.0
C3770 C 0.28467 0.24549 0.35556 0.0
C3771 C 0.30211 0.25319 0.37343 0.0
C3772 C 0.32136 0.26862 0.37012 0.0
C3773 C 0.32286 0.27613 0.34928 0.0
C3774 C 0.26373 0.22926 0.35824 0.0
C3775 C 0.34041 0.27714 0.38861 0.0
H3776 H 0.27867 0.25563 0.447 0.0
H3777 H 0.30867 0.20039 0.41894 0.0
H3778 H 0.29574 0.28999 0.40767 0.0
H3779 H 0.26843 0.27388 0.39769 0.0
H3780 H 0.27547 0.28482 0.42778 0.0
H3781 H 0.32376 0.19741 0.38369 0.0
H3782 H 0.30602 0.20596 0.36337 0.0
H3783 H 0.3326 0.22335 0.37412 0.0
H3784 H 0.27312 0.24707 0.32151 0.0
H3785 H 0.33756 0.28798 0.34691 0.0
H3786 H 0.25525 0.23672 0.37277 0.0
H3787 H 0.26808 0.21366 0.36212 0.0
H3788 H 0.25175 0.22477 0.34269 0.0
H3789 H 0.33431 0.28573 0.40428 0.0
H3790 H 0.35423 0.28902 0.38346 0.0
H3791 H 0.34711 0.26285 0.39302 0.0
C3792 C 0.38315 0.5922 0.51393 0.0
C3793 C 0.37346 0.58778 0.53376 0.0
C3794 C 0.40421 0.5871 0.50893 0.0
C3795 C 0.41628 0.57763 0.52426 0.0
C3796 C 0.40664 0.5733 0.54438 0.0
C3797 C 0.38542 0.57821 0.54876 0.0
C3798 C 0.41352 0.59177 0.48714 0.0
C3799 C 0.41886 0.56359 0.56148 0.0
C3800 C 0.46182 0.54488 0.50487 0.0
C3801 C 0.48171 0.56063 0.5128 0.0
C3802 C 0.44058 0.55037 0.50781 0.0
C3803 C 0.43887 0.57213 0.5193 0.0
C3804 C 0.45886 0.58828 0.52685 0.0
C3805 C 0.47989 0.58242 0.5234 0.0
C3806 C 0.4199 0.53263 0.49909 0.0
C3807 C 0.4581 0.61161 0.53936 0.0
H3808 H 0.37419 0.59955 0.50215 0.0
H3809 H 0.37832 0.57481 0.56421 0.0
H3810 H 0.42975 0.60379 0.4911 0.0
H3811 H 0.41672 0.57608 0.47674 0.0
H3812 H 0.40203 0.59881 0.47679 0.0
H3813 H 0.40942 0.56161 0.57652 0.0
H3814 H 0.42189 0.54694 0.5533 0.0
H3815 H 0.43542 0.57458 0.56745 0.0
H3816 H 0.46281 0.52799 0.49667 0.0
H3817 H 0.49495 0.59479 0.52981 0.0
H3818 H 0.40844 0.53913 0.48819 0.0
H3819 H 0.4108 0.52829 0.51366 0.0
H3820 H 0.42389 0.51709 0.4891 0.0
H3821 H 0.44738 0.61951 0.52914 0.0
H3822 H 0.47496 0.62259 0.54317 0.0
H3823 H 0.45056 0.61067 0.55565 0.0
C3824 C 0.89655 0.93061 0.55016 0.0
C3825 C 0.88102 0.93558 0.53472 0.0
C3826 C 0.91921 0.94158 0.55261 0.0
C3827 C 0.92645 0.95759 0.53908 0.0
C3828 C 0.91086 0.96235 0.52328 0.0
C3829 C 0.88846 0.95142 0.5214 0.0
C3830 C 0.93535 0.9362 0.56974 0.0
C3831 C 0.91782 0.97899 0.5082 0.0
C3832 C 0.97801 1.00429 0.55194 0.0
C3833 C 0.99196 0.99617 0.53598 0.0
C3834 C 0.95727 0.99114 0.55453 0.0
C3835 C 0.95028 0.96939 0.54078 0.0
C3836 C 0.96499 0.96055 0.52582 0.0
C3837 C 0.98558 0.97402 0.5236 0.0
C3838 C 0.94223 1.00108 0.57092 0.0
C3839 C 0.95837 0.93746 0.51088 0.0
H3840 H 0.89095 0.91844 0.56055 0.0
H3841 H 0.87672 0.95527 0.50923 0.0
H3842 H 0.94901 0.92968 0.56101 0.0
H3843 H 0.94318 0.9517 0.58219 0.0
H3844 H 0.92707 0.9236 0.57918 0.0
H3845 H 0.90364 0.98061 0.49662 0.0
H3846 H 0.92497 0.99575 0.51883 0.0
H3847 H 0.931 0.97375 0.49767 0.0
H3848 H 0.98286 0.02125 0.56181 0.0
H3849 H 0.99631 0.96736 0.51144 0.0
H3850 H 0.93474 0.98871 0.58095 0.0
H3851 H 0.92831 0.00553 0.56119 0.0
H3852 H 0.95132 0.01645 0.58286 0.0
H3853 H 0.95081 0.92501 0.52079 0.0
H3854 H 0.97284 0.93175 0.50293 0.0
H3855 H 0.9456 0.93772 0.49708 0.0
C3856 C 0.89585 0.14703 0.25957 0.0
C3857 C 0.88584 0.12733 0.2671 0.0
C3858 C 0.88546 0.16633 0.25969 0.0
C3859 C 0.86428 0.16774 0.26871 0.0
C3860 C 0.85438 0.148 0.27688 0.0
C3861 C 0.86468 0.1285 0.27545 0.0
C3862 C 0.89764 0.18515 0.24959 0.0
C3863 C 0.83265 0.14704 0.28769 0.0
C3864 C 0.85163 0.23024 0.28383 0.0
C3865 C 0.83113 0.22954 0.27103 0.0
C3866 C 0.86194 0.21088 0.28374 0.0
C3867 C 0.85279 0.18924 0.26952 0.0
C3868 C 0.83238 0.18871 0.256 0.0
C3869 C 0.82189 0.20807 0.25735 0.0
C3870 C 0.88287 0.21418 0.2995 0.0
C3871 C 0.82121 0.16767 0.23938 0.0
H3872 H 0.91196 0.14728 0.25286 0.0
H3873 H 0.85611 0.1141 0.28158 0.0
H3874 H 0.8864 0.19571 0.24409 0.0
H3875 H 0.91085 0.19587 0.26247 0.0
H3876 H 0.90609 0.17841 0.23467 0.0
H3877 H 0.83292 0.13833 0.30229 0.0
H3878 H 0.82896 0.16388 0.29386 0.0
H3879 H 0.81886 0.13707 0.27502 0.0
H3880 H 0.85967 0.24611 0.29459 0.0
H3881 H 0.80642 0.20639 0.24687 0.0
H3882 H 0.89729 0.22222 0.29148 0.0
H3883 H 0.88619 0.1982 0.30342 0.0
H3884 H 0.88173 0.22568 0.3158 0.0
H3885 H 0.83303 0.15657 0.23387 0.0
H3886 H 0.81332 0.17183 0.22401 0.0
H3887 H 0.80768 0.15832 0.24752 0.0
C3888 C 0.72968 0.06498 0.02888 0.0
C3889 C 0.73795 0.08816 0.03582 0.0
C3890 C 0.70644 0.05599 0.02628 0.0
C3891 C 0.69097 0.07045 0.03068 0.0
C3892 C 0.6993 0.0938 0.03794 0.0
C3893 C 0.7225 0.10229 0.0404 0.0
C3894 C 0.69838 0.03101 0.01855 0.0
C3895 C 0.68363 0.10995 0.04284 0.0
C3896 C 0.63072 0.05376 0.00304 0.0
C3897 C 0.6185 0.04829 0.02112 0.0
C3898 C 0.65421 0.06031 0.00575 0.0
C3899 C 0.6661 0.06151 0.02708 0.0
C3900 C 0.65395 0.05556 0.04527 0.0
C3901 C 0.6304 0.04906 0.0421 0.0
C3902 C 0.66629 0.0665 0.98584 0.0
C3903 C 0.66581 0.05655 0.0683 0.0
H3904 H 0.74137 0.05388 0.0253 0.0
H3905 H 0.72854 0.12021 0.0458 0.0
H3906 H 0.68758 0.02435 0.03099 0.0
H3907 H 0.68807 0.02743 0.00197 0.0
H3908 H 0.71242 0.02191 0.01657 0.0
H3909 H 0.69271 0.12755 0.04888 0.0
H3910 H 0.67267 0.10912 0.02719 0.0
H3911 H 0.67265 0.10519 0.05597 0.0
H3912 H 0.6219 0.05319 0.98669 0.0
H3913 H 0.62129 0.04484 0.0562 0.0
H3914 H 0.67957 0.05663 0.98242 0.0
H3915 H 0.67456 0.08447 0.99002 0.0
H3916 H 0.65485 0.06356 0.97004 0.0
H3917 H 0.6792 0.04664 0.06645 0.0
H3918 H 0.65424 0.05009 0.08027 0.0
H3919 H 0.67392 0.07414 0.07591 0.0
C3920 C 0.24898 0.51008 0.26553 0.0
C3921 C 0.22586 0.50165 0.26267 0.0
C3922 C 0.26381 0.49784 0.2735 0.0
C3923 C 0.25531 0.47657 0.27844 0.0
C3924 C 0.23194 0.46827 0.27623 0.0
C3925 C 0.21747 0.48099 0.26849 0.0
C3926 C 0.28862 0.50736 0.27594 0.0
C3927 C 0.22227 0.44556 0.28118 0.0
C3928 C 0.29228 0.43348 0.2719 0.0
C3929 C 0.29887 0.43342 0.29465 0.0
C3930 C 0.27831 0.44765 0.26644 0.0
C3931 C 0.27089 0.46224 0.28417 0.0
C3932 C 0.27791 0.46268 0.30719 0.0
C3933 C 0.29175 0.44813 0.31217 0.0
C3934 C 0.27101 0.44653 0.24169 0.0
C3935 C 0.27052 0.47824 0.3265 0.0
H3936 H 0.25555 0.52615 0.26127 0.0
H3937 H 0.19961 0.47442 0.26634 0.0
H3938 H 0.29608 0.50685 0.29308 0.0
H3939 H 0.29688 0.49698 0.26323 0.0
H3940 H 0.29238 0.52493 0.27337 0.0
H3941 H 0.20371 0.44213 0.27993 0.0
H3942 H 0.2277 0.43228 0.2689 0.0
H3943 H 0.2286 0.44435 0.29851 0.0
H3944 H 0.29742 0.42183 0.25833 0.0
H3945 H 0.2969 0.44814 0.32977 0.0
H3946 H 0.27567 0.46334 0.23737 0.0
H3947 H 0.25255 0.44136 0.23865 0.0
H3948 H 0.2786 0.43451 0.22995 0.0
H3949 H 0.27481 0.4958 0.32404 0.0
H3950 H 0.27836 0.47732 0.34337 0.0
H3951 H 0.2521 0.47393 0.32661 0.0
C3952 C 0.2323 0.40495 0.03138 0.0
C3953 C 0.25413 0.41657 0.03917 0.0
C3954 C 0.21546 0.41648 0.0264 0.0
C3955 C 0.22062 0.44015 0.0293 0.0
C3956 C 0.24241 0.452 0.03795 0.0
C3957 C 0.25887 0.44008 0.04281 0.0
C3958 C 0.19237 0.4033 0.01734 0.0
C3959 C 0.24857 0.47724 0.04135 0.0
C3960 C 0.18745 0.46983 0.99363 0.0
C3961 C 0.17381 0.47886 0.00938 0.0
C3962 C 0.20235 0.45674 0.99975 0.0
C3963 C 0.20367 0.45258 0.02219 0.0
C3964 C 0.18964 0.46129 0.03806 0.0
C3965 C 0.1749 0.47435 0.03147 0.0
C3966 C 0.21698 0.44767 0.98231 0.0
C3967 C 0.19059 0.45729 0.06215 0.0
H3968 H 0.22851 0.38679 0.02858 0.0
H3969 H 0.27567 0.44921 0.04893 0.0
H3970 H 0.17963 0.40997 0.02755 0.0
H3971 H 0.18865 0.40513 0.99954 0.0
H3972 H 0.19064 0.38517 0.01758 0.0
H3973 H 0.26591 0.484 0.04937 0.0
H3974 H 0.24704 0.48239 0.02466 0.0
H3975 H 0.2369 0.48504 0.05223 0.0
H3976 H 0.18644 0.47297 0.97645 0.0
H3977 H 0.16459 0.48148 0.04382 0.0
H3978 H 0.21466 0.4292 0.98036 0.0
H3979 H 0.23482 0.45484 0.98819 0.0
H3980 H 0.21329 0.45167 0.96535 0.0
H3981 H 0.1884 0.43908 0.06201 0.0
H3982 H 0.17757 0.464 0.07195 0.0
H3983 H 0.20723 0.46543 0.07119 0.0
C3984 C 0.88446 0.95859 0.23991 0.0
C3985 C 0.88524 0.97714 0.25797 0.0
C3986 C 0.87303 0.9363 0.2404 0.0
C3987 C 0.86237 0.93121 0.2599 0.0
C3988 C 0.86302 0.94987 0.27825 0.0
C3989 C 0.87405 0.97225 0.27701 0.0
C3990 C 0.87274 0.91796 0.2199 0.0
C3991 C 0.85279 0.94604 0.29983 0.0
C3992 C 0.81812 0.87493 0.25554 0.0
C3993 C 0.83065 0.85969 0.26215 0.0
C3994 C 0.82799 0.89767 0.25463 0.0
C3995 C 0.85124 0.90656 0.26113 0.0
C3996 C 0.86388 0.89135 0.26818 0.0
C3997 C 0.85372 0.8685 0.26828 0.0
C3998 C 0.81341 0.91219 0.24625 0.0
C3999 C 0.88842 0.8993 0.2759 0.0
H4000 H 0.89321 0.96149 0.22518 0.0
H4001 H 0.87485 0.98578 0.29156 0.0
H4002 H 0.8828 0.90592 0.22433 0.0
H4003 H 0.8554 0.90848 0.2146 0.0
H4004 H 0.8796 0.92461 0.2052 0.0
H4005 H 0.85408 0.9619 0.31247 0.0
H4006 H 0.83492 0.93781 0.29591 0.0
H4007 H 0.86133 0.93455 0.30764 0.0
H4008 H 0.80041 0.86894 0.2506 0.0
H4009 H 0.86397 0.85752 0.27362 0.0
H4010 H 0.82028 0.91838 0.23134 0.0
H4011 H 0.81336 0.92709 0.25973 0.0
H4012 H 0.7959 0.90306 0.24123 0.0
H4013 H 0.89762 0.90388 0.26149 0.0
H4014 H 0.8958 0.88634 0.28244 0.0
H4015 H 0.89095 0.91459 0.28952 0.0
C4016 C 0.74208 0.10755 0.71658 0.0
C4017 C 0.72077 0.10368 0.70481 0.0
C4018 C 0.7552 0.12924 0.72257 0.0
C4019 C 0.74681 0.14738 0.71653 0.0
C4020 C 0.72637 0.14325 0.7027 0.0
C4021 C 0.71357 0.12142 0.697 0.0
C4022 C 0.77705 0.13295 0.73709 0.0
C4023 C 0.71705 0.16214 0.69559 0.0
C4024 C 0.75833 0.2031 0.75789 0.0
C4025 C 0.77379 0.2163 0.74707 0.0
C4026 C 0.75006 0.18043 0.74845 0.0
C4027 C 0.75736 0.17074 0.72759 0.0
C4028 C 0.7736 0.18372 0.71699 0.0
C4029 C 0.78169 0.2064 0.7269 0.0
C4030 C 0.73295 0.16704 0.76045 0.0
C4031 C 0.78179 0.17391 0.69478 0.0
H4032 H 0.74795 0.09391 0.72247 0.0
H4033 H 0.6973 0.11855 0.68758 0.0
H4034 H 0.79012 0.14507 0.73126 0.0
H4035 H 0.77475 0.14014 0.75498 0.0
H4036 H 0.78309 0.11706 0.73683 0.0
H4037 H 0.70276 0.15588 0.68226 0.0
H4038 H 0.7112 0.17208 0.71064 0.0
H4039 H 0.73016 0.17362 0.68904 0.0
H4040 H 0.75237 0.21057 0.77362 0.0
H4041 H 0.79364 0.21653 0.71844 0.0
H4042 H 0.73853 0.15168 0.76342 0.0
H4043 H 0.71686 0.16165 0.74955 0.0
H4044 H 0.72992 0.1768 0.77711 0.0
H4045 H 0.7865 0.15761 0.69567 0.0
H4046 H 0.79639 0.18532 0.69026 0.0
H4047 H 0.76814 0.17066 0.68087 0.0
loop_
_geom_bond_atom_site_label_1
_geom_bond_atom_site_label_2
_geom_bond_distance
_geom_bond_site_symmetry_2
_ccdc_geom_bond_type
C0 O1 1.306 . S
C0 O3 1.160 . S
O1 C0 1.306 . S
O1 Cd2 2.228 . S
Cd2 O1 2.228 . S
Cd2 O6 2.273 . S
Cd2 O10 2.277 . S
O3 C0 1.160 . S
O3 Cd4 2.203 . S
Cd4 O3 2.203 . S
Cd4 O6 2.411 . S
Cd4 O7 2.333 . S
Cd4 O8 2.352 . S
Cd4 O12 2.277 . S
Cd4 O13 2.356 . S
C5 O10 1.209 . S
C5 O12 1.226 . S
O6 Cd2 2.273 . S
O6 Cd4 2.411 . S
O6 C9 1.320 . S
O7 Cd4 2.333 . S
O7 C9 1.214 . S
O8 Cd4 2.352 . S
O8 C11 1.258 . S
C9 O6 1.320 . S
C9 O7 1.214 . S
O10 Cd2 2.277 . S
O10 C5 1.209 . S
C11 O8 1.258 . S
C11 O13 1.282 . S
O12 Cd4 2.277 . S
O12 C5 1.226 . S
O13 Cd4 2.356 . S
O13 C11 1.282 . S
C14 O15 1.306 . S
C14 O17 1.160 . S
O15 C14 1.306 . S
O15 Cd16 2.228 1_655 S
Cd16 O15 2.228 1_455 S
Cd16 O20 2.273 . S
Cd16 O24 2.277 1_455 S
O17 C14 1.160 . S
O17 Cd18 2.203 1_655 S
Cd18 O17 2.203 1_455 S
Cd18 O20 2.411 . S
Cd18 O21 2.333 . S
Cd18 O22 2.352 . S
Cd18 O26 2.277 1_455 S
Cd18 O27 2.356 . S
C19 O24 1.209 . S
C19 O26 1.226 . S
O20 Cd16 2.273 . S
O20 Cd18 2.411 . S
O20 C23 1.320 . S
O21 Cd18 2.333 . S
O21 C23 1.214 . S
O22 Cd18 2.352 . S
O22 C25 1.258 . S
C23 O20 1.320 . S
C23 O21 1.214 . S
O24 Cd16 2.277 1_655 S
O24 C19 1.209 . S
C25 O22 1.258 . S
C25 O27 1.282 . S
O26 Cd18 2.277 1_655 S
O26 C19 1.226 . S
O27 Cd18 2.356 . S
O27 C25 1.282 . S
C28 O29 1.306 . S
C28 O31 1.160 . S
O29 C28 1.306 . S
O29 Cd30 2.228 . S
Cd30 O29 2.228 . S
Cd30 O34 2.273 . S
Cd30 O38 2.277 . S
O31 C28 1.160 . S
O31 Cd32 2.203 . S
Cd32 O31 2.203 . S
Cd32 O34 2.411 . S
Cd32 O35 2.333 . S
Cd32 O36 2.352 . S
Cd32 O40 2.277 . S
Cd32 O41 2.356 . S
C33 O38 1.209 . S
C33 O40 1.226 . S
O34 Cd30 2.273 . S
O34 Cd32 2.411 . S
O34 C37 1.320 . S
O35 Cd32 2.333 . S
O35 C37 1.214 . S
O36 Cd32 2.352 . S
O36 C39 1.258 . S
C37 O34 1.320 . S
C37 O35 1.214 . S
O38 Cd30 2.277 . S
O38 C33 1.209 . S
C39 O36 1.258 . S
C39 O41 1.282 . S
O40 Cd32 2.277 . S
O40 C33 1.226 . S
O41 Cd32 2.356 . S
O41 C39 1.282 . S
C42 O43 1.306 . S
C42 O45 1.160 . S
O43 C42 1.306 . S
O43 Cd44 2.228 . S
Cd44 O43 2.228 . S
Cd44 O48 2.273 . S
Cd44 O52 2.277 . S
O45 C42 1.160 . S
O45 Cd46 2.203 . S
Cd46 O45 2.203 . S
Cd46 O48 2.411 . S
Cd46 O49 2.333 . S
Cd46 O50 2.352 . S
Cd46 O54 2.277 . S
Cd46 O55 2.356 . S
C47 O52 1.209 . S
C47 O54 1.226 . S
O48 Cd44 2.273 . S
O48 Cd46 2.411 . S
O48 C51 1.320 . S
O49 Cd46 2.333 . S
O49 C51 1.214 . S
O50 Cd46 2.352 . S
O50 C53 1.258 . S
C51 O48 1.320 . S
C51 O49 1.214 . S
O52 Cd44 2.277 . S
O52 C47 1.209 . S
C53 O50 1.258 . S
C53 O55 1.282 . S
O54 Cd46 2.277 . S
O54 C47 1.226 . S
O55 Cd46 2.356 . S
O55 C53 1.282 . S
C56 O57 1.306 . S
C56 O59 1.160 . S
O57 C56 1.306 . S
O57 Cd58 2.228 . S
Cd58 O57 2.228 . S
Cd58 O62 2.273 . S
Cd58 O66 2.277 . S
O59 C56 1.160 . S
O59 Cd60 2.203 . S
Cd60 O59 2.203 . S
Cd60 O62 2.411 . S
Cd60 O63 2.333 . S
Cd60 O64 2.352 . S
Cd60 O68 2.277 . S
Cd60 O69 2.356 . S
C61 O66 1.209 . S
C61 O68 1.226 . S
O62 Cd58 2.273 . S
O62 Cd60 2.411 . S
O62 C65 1.320 . S
O63 Cd60 2.333 . S
O63 C65 1.214 . S
O64 Cd60 2.352 . S
O64 C67 1.258 . S
C65 O62 1.320 . S
C65 O63 1.214 . S
O66 Cd58 2.277 . S
O66 C61 1.209 . S
C67 O64 1.258 . S
C67 O69 1.282 . S
O68 Cd60 2.277 . S
O68 C61 1.226 . S
O69 Cd60 2.356 . S
O69 C67 1.282 . S
C70 O71 1.306 . S
C70 O73 1.160 . S
O71 C70 1.306 . S
O71 Cd72 2.228 . S
Cd72 O71 2.228 . S
Cd72 O76 2.273 . S
Cd72 O80 2.277 . S
O73 C70 1.160 . S
O73 Cd74 2.203 . S
Cd74 O73 2.203 . S
Cd74 O76 2.411 . S
Cd74 O77 2.333 . S
Cd74 O78 2.352 . S
Cd74 O82 2.277 . S
Cd74 O83 2.356 . S
C75 O80 1.209 . S
C75 O82 1.226 . S
O76 Cd72 2.273 . S
O76 Cd74 2.411 . S
O76 C79 1.320 . S
O77 Cd74 2.333 . S
O77 C79 1.214 . S
O78 Cd74 2.352 . S
O78 C81 1.258 . S
C79 O76 1.320 . S
C79 O77 1.214 . S
O80 Cd72 2.277 . S
O80 C75 1.209 . S
C81 O78 1.258 . S
C81 O83 1.282 . S
O82 Cd74 2.277 . S
O82 C75 1.226 . S
O83 Cd74 2.356 . S
O83 C81 1.282 . S
C84 O85 1.306 . S
C84 O87 1.160 . S
O85 C84 1.306 . S
O85 Cd86 2.228 . S
Cd86 O85 2.228 . S
Cd86 O90 2.273 . S
Cd86 O94 2.277 . S
O87 C84 1.160 . S
O87 Cd88 2.203 . S
Cd88 O87 2.203 . S
Cd88 O90 2.411 . S
Cd88 O91 2.333 . S
Cd88 O92 2.352 . S
Cd88 O96 2.277 . S
Cd88 O97 2.356 . S
C89 O94 1.209 . S
C89 O96 1.226 . S
O90 Cd86 2.273 . S
O90 Cd88 2.411 . S
O90 C93 1.320 . S
O91 Cd88 2.333 . S
O91 C93 1.214 . S
O92 Cd88 2.352 . S
O92 C95 1.258 . S
C93 O90 1.320 . S
C93 O91 1.214 . S
O94 Cd86 2.277 . S
O94 C89 1.209 . S
C95 O92 1.258 . S
C95 O97 1.282 . S
O96 Cd88 2.277 . S
O96 C89 1.226 . S
O97 Cd88 2.356 . S
O97 C95 1.282 . S
C98 O99 1.306 . S
C98 O101 1.160 . S
O99 C98 1.306 . S
O99 Cd100 2.228 1_655 S
Cd100 O99 2.228 1_455 S
Cd100 O104 2.273 . S
Cd100 O108 2.277 . S
O101 C98 1.160 . S
O101 Cd102 2.203 1_655 S
Cd102 O101 2.203 1_455 S
Cd102 O104 2.411 . S
Cd102 O105 2.333 . S
Cd102 O106 2.352 . S
Cd102 O110 2.277 . S
Cd102 O111 2.356 . S
C103 O108 1.209 . S
C103 O110 1.226 . S
O104 Cd100 2.273 . S
O104 Cd102 2.411 . S
O104 C107 1.320 . S
O105 Cd102 2.333 . S
O105 C107 1.214 . S
O106 Cd102 2.352 . S
O106 C109 1.258 . S
C107 O104 1.320 . S
C107 O105 1.214 . S
O108 Cd100 2.277 . S
O108 C103 1.209 . S
C109 O106 1.258 . S
C109 O111 1.282 . S
O110 Cd102 2.277 . S
O110 C103 1.226 . S
O111 Cd102 2.356 . S
O111 C109 1.282 . S
C112 O113 1.306 1_545 S
C112 O115 1.160 . S
O113 C112 1.306 1_565 S
O113 Cd114 2.228 . S
Cd114 O113 2.228 . S
Cd114 O118 2.273 1_565 S
Cd114 O122 2.277 . S
O115 C112 1.160 . S
O115 Cd116 2.203 . S
Cd116 O115 2.203 . S
Cd116 O118 2.411 . S
Cd116 O119 2.333 . S
Cd116 O120 2.352 . S
Cd116 O124 2.277 1_545 S
Cd116 O125 2.356 . S
C117 O122 1.209 . S
C117 O124 1.226 . S
O118 Cd114 2.273 1_545 S
O118 Cd116 2.411 . S
O118 C121 1.320 . S
O119 Cd116 2.333 . S
O119 C121 1.214 . S
O120 Cd116 2.352 . S
O120 C123 1.258 . S
C121 O118 1.320 . S
C121 O119 1.214 . S
O122 Cd114 2.277 . S
O122 C117 1.209 . S
C123 O120 1.258 . S
C123 O125 1.282 . S
O124 Cd116 2.277 1_565 S
O124 C117 1.226 . S
O125 Cd116 2.356 . S
O125 C123 1.282 . S
C126 O127 1.306 . S
C126 O129 1.160 . S
O127 C126 1.306 . S
O127 Cd128 2.228 . S
Cd128 O127 2.228 . S
Cd128 O132 2.273 . S
Cd128 O136 2.277 . S
O129 C126 1.160 . S
O129 Cd130 2.203 . S
Cd130 O129 2.203 . S
Cd130 O132 2.411 . S
Cd130 O133 2.333 . S
Cd130 O134 2.352 . S
Cd130 O138 2.277 . S
Cd130 O139 2.356 . S
C131 O136 1.209 . S
C131 O138 1.226 . S
O132 Cd128 2.273 . S
O132 Cd130 2.411 . S
O132 C135 1.320 . S
O133 Cd130 2.333 . S
O133 C135 1.214 . S
O134 Cd130 2.352 . S
O134 C137 1.258 . S
C135 O132 1.320 . S
C135 O133 1.214 . S
O136 Cd128 2.277 . S
O136 C131 1.209 . S
C137 O134 1.258 . S
C137 O139 1.282 . S
O138 Cd130 2.277 . S
O138 C131 1.226 . S
O139 Cd130 2.356 . S
O139 C137 1.282 . S
C140 O141 1.306 . S
C140 O143 1.160 . S
O141 C140 1.306 . S
O141 Cd142 2.228 . S
Cd142 O141 2.228 . S
Cd142 O146 2.273 . S
Cd142 O150 2.277 . S
O143 C140 1.160 . S
O143 Cd144 2.203 . S
Cd144 O143 2.203 . S
Cd144 O146 2.411 . S
Cd144 O147 2.333 . S
Cd144 O148 2.352 1_545 S
Cd144 O152 2.277 . S
Cd144 O153 2.356 1_545 S
C145 O150 1.209 . S
C145 O152 1.226 . S
O146 Cd142 2.273 . S
O146 Cd144 2.411 . S
O146 C149 1.320 . S
O147 Cd144 2.333 . S
O147 C149 1.214 . S
O148 Cd144 2.352 1_565 S
O148 C151 1.258 . S
C149 O146 1.320 . S
C149 O147 1.214 . S
O150 Cd142 2.277 . S
O150 C145 1.209 . S
C151 O148 1.258 . S
C151 O153 1.282 . S
O152 Cd144 2.277 . S
O152 C145 1.226 . S
O153 Cd144 2.356 1_565 S
O153 C151 1.282 . S
C154 O155 1.308 1_554 S
C154 O157 1.160 . S
O155 C154 1.308 1_556 S
O155 Cd156 2.225 . S
Cd156 O155 2.225 . S
Cd156 O160 2.273 1_556 S
Cd156 O164 2.277 . S
O157 C154 1.160 . S
O157 Cd158 2.203 . S
Cd158 O157 2.203 . S
Cd158 O160 2.411 . S
Cd158 O161 2.333 . S
Cd158 O162 2.352 . S
Cd158 O166 2.277 1_554 S
Cd158 O167 2.356 . S
C159 O164 1.209 . S
C159 O166 1.226 . S
O160 Cd156 2.273 1_554 S
O160 Cd158 2.411 . S
O160 C163 1.320 . S
O161 Cd158 2.333 . S
O161 C163 1.214 . S
O162 Cd158 2.352 . S
O162 C165 1.258 . S
C163 O160 1.320 . S
C163 O161 1.214 . S
O164 Cd156 2.277 . S
O164 C159 1.209 . S
C165 O162 1.258 . S
C165 O167 1.282 . S
O166 Cd158 2.277 1_556 S
O166 C159 1.226 . S
O167 Cd158 2.356 . S
O167 C165 1.282 . S
C168 O169 1.306 . S
C168 O171 1.160 . S
O169 C168 1.306 . S
O169 Cd170 2.228 1_554 S
Cd170 O169 2.228 1_556 S
Cd170 O174 2.273 1_556 S
Cd170 O178 2.277 . S
O171 C168 1.160 . S
O171 Cd172 2.203 . S
Cd172 O171 2.203 . S
Cd172 O174 2.411 . S
Cd172 O175 2.333 . S
Cd172 O176 2.352 . S
Cd172 O180 2.277 1_554 S
Cd172 O181 2.356 . S
C173 O178 1.209 . S
C173 O180 1.226 . S
O174 Cd170 2.273 1_554 S
O174 Cd172 2.411 . S
O174 C177 1.320 . S
O175 Cd172 2.333 . S
O175 C177 1.214 . S
O176 Cd172 2.352 . S
O176 C179 1.258 . S
C177 O174 1.320 . S
C177 O175 1.214 . S
O178 Cd170 2.277 . S
O178 C173 1.209 . S
C179 O176 1.258 . S
C179 O181 1.282 . S
O180 Cd172 2.277 1_556 S
O180 C173 1.226 . S
O181 Cd172 2.356 . S
O181 C179 1.282 . S
C182 O183 1.306 . S
C182 O185 1.160 . S
O183 C182 1.306 . S
O183 Cd184 2.228 . S
Cd184 O183 2.228 . S
Cd184 O188 2.273 . S
Cd184 O192 2.277 . S
O185 C182 1.160 . S
O185 Cd186 2.203 . S
Cd186 O185 2.203 . S
Cd186 O188 2.411 . S
Cd186 O189 2.333 . S
Cd186 O190 2.352 1_554 S
Cd186 O194 2.277 . S
Cd186 O195 2.356 1_554 S
C187 O192 1.209 . S
C187 O194 1.226 . S
O188 Cd184 2.273 . S
O188 Cd186 2.411 . S
O188 C191 1.320 . S
O189 Cd186 2.333 . S
O189 C191 1.214 . S
O190 Cd186 2.352 1_556 S
O190 C193 1.258 . S
C191 O188 1.320 . S
C191 O189 1.214 . S
O192 Cd184 2.277 . S
O192 C187 1.209 . S
C193 O190 1.258 . S
C193 O195 1.282 . S
O194 Cd186 2.277 . S
O194 C187 1.226 . S
O195 Cd186 2.356 1_556 S
O195 C193 1.282 . S
C196 O197 1.306 . S
C196 O199 1.160 . S
O197 C196 1.306 . S
O197 Cd198 2.228 . S
Cd198 O197 2.228 . S
Cd198 O202 2.273 . S
Cd198 O206 2.277 . S
O199 C196 1.160 . S
O199 Cd200 2.203 . S
Cd200 O199 2.203 . S
Cd200 O202 2.411 . S
Cd200 O203 2.333 . S
Cd200 O204 2.352 . S
Cd200 O208 2.277 . S
Cd200 O209 2.356 . S
C201 O206 1.209 . S
C201 O208 1.226 . S
O202 Cd198 2.273 . S
O202 Cd200 2.411 . S
O202 C205 1.320 . S
O203 Cd200 2.333 . S
O203 C205 1.214 . S
O204 Cd200 2.352 . S
O204 C207 1.258 . S
C205 O202 1.320 . S
C205 O203 1.214 . S
O206 Cd198 2.277 . S
O206 C201 1.209 . S
C207 O204 1.258 . S
C207 O209 1.282 . S
O208 Cd200 2.277 . S
O208 C201 1.226 . S
O209 Cd200 2.356 . S
O209 C207 1.282 . S
C210 O211 1.306 . S
C210 O213 1.160 . S
O211 C210 1.306 . S
O211 Cd212 2.228 . S
Cd212 O211 2.228 . S
Cd212 O216 2.273 . S
Cd212 O220 2.277 . S
O213 C210 1.160 . S
O213 Cd214 2.203 . S
Cd214 O213 2.203 . S
Cd214 O216 2.411 . S
Cd214 O217 2.333 . S
Cd214 O218 2.352 . S
Cd214 O222 2.277 . S
Cd214 O223 2.356 . S
C215 O220 1.209 . S
C215 O222 1.226 . S
O216 Cd212 2.273 . S
O216 Cd214 2.411 . S
O216 C219 1.320 . S
O217 Cd214 2.333 . S
O217 C219 1.214 . S
O218 Cd214 2.352 . S
O218 C221 1.258 . S
C219 O216 1.320 . S
C219 O217 1.214 . S
O220 Cd212 2.277 . S
O220 C215 1.209 . S
C221 O218 1.258 . S
C221 O223 1.282 . S
O222 Cd214 2.277 . S
O222 C215 1.226 . S
O223 Cd214 2.356 . S
O223 C221 1.282 . S
C224 O225 1.306 . S
C224 O227 1.160 . S
O225 C224 1.306 . S
O225 Cd226 2.228 . S
Cd226 O225 2.228 . S
Cd226 O230 2.273 . S
Cd226 O234 2.277 . S
O227 C224 1.160 . S
O227 Cd228 2.203 . S
Cd228 O227 2.203 . S
Cd228 O230 2.411 . S
Cd228 O231 2.333 . S
Cd228 O232 2.352 . S
Cd228 O236 2.277 . S
Cd228 O237 2.356 . S
C229 O234 1.209 . S
C229 O236 1.226 . S
O230 Cd226 2.273 . S
O230 Cd228 2.411 . S
O230 C233 1.320 . S
O231 Cd228 2.333 . S
O231 C233 1.214 . S
O232 Cd228 2.352 . S
O232 C235 1.258 . S
C233 O230 1.320 . S
C233 O231 1.214 . S
O234 Cd226 2.277 . S
O234 C229 1.209 . S
C235 O232 1.258 . S
C235 O237 1.282 . S
O236 Cd228 2.277 . S
O236 C229 1.226 . S
O237 Cd228 2.356 . S
O237 C235 1.282 . S
C238 O239 1.306 . S
C238 O241 1.160 . S
O239 C238 1.306 . S
O239 Cd240 2.228 . S
Cd240 O239 2.228 . S
Cd240 O244 2.273 . S
Cd240 O248 2.277 . S
O241 C238 1.160 . S
O241 Cd242 2.203 . S
Cd242 O241 2.203 . S
Cd242 O244 2.411 . S
Cd242 O245 2.333 . S
Cd242 O246 2.352 . S
Cd242 O250 2.277 . S
Cd242 O251 2.356 . S
C243 O248 1.209 . S
C243 O250 1.226 . S
O244 Cd240 2.273 . S
O244 Cd242 2.411 . S
O244 C247 1.320 . S
O245 Cd242 2.333 . S
O245 C247 1.214 . S
O246 Cd242 2.352 . S
O246 C249 1.258 . S
C247 O244 1.320 . S
C247 O245 1.214 . S
O248 Cd240 2.277 . S
O248 C243 1.209 . S
C249 O246 1.258 . S
C249 O251 1.282 . S
O250 Cd242 2.277 . S
O250 C243 1.226 . S
O251 Cd242 2.356 . S
O251 C249 1.282 . S
C252 O253 1.306 . S
C252 O255 1.160 . S
O253 C252 1.306 . S
O253 Cd254 2.228 . S
Cd254 O253 2.228 . S
Cd254 O258 2.273 . S
Cd254 O262 2.277 . S
O255 C252 1.160 . S
O255 Cd256 2.203 . S
Cd256 O255 2.203 . S
Cd256 O258 2.411 . S
Cd256 O259 2.333 . S
Cd256 O260 2.352 . S
Cd256 O264 2.277 . S
Cd256 O265 2.356 . S
C257 O262 1.209 . S
C257 O264 1.226 . S
O258 Cd254 2.273 . S
O258 Cd256 2.411 . S
O258 C261 1.320 . S
O259 Cd256 2.333 . S
O259 C261 1.214 . S
O260 Cd256 2.352 . S
O260 C263 1.258 . S
C261 O258 1.320 . S
C261 O259 1.214 . S
O262 Cd254 2.277 . S
O262 C257 1.209 . S
C263 O260 1.258 . S
C263 O265 1.282 . S
O264 Cd256 2.277 . S
O264 C257 1.226 . S
O265 Cd256 2.356 . S
O265 C263 1.282 . S
C266 O267 1.306 . S
C266 O269 1.160 . S
O267 C266 1.306 . S
O267 Cd268 2.228 . S
Cd268 O267 2.228 . S
Cd268 O272 2.273 . S
Cd268 O276 2.277 . S
O269 C266 1.160 . S
O269 Cd270 2.203 . S
Cd270 O269 2.203 . S
Cd270 O272 2.411 . S
Cd270 O273 2.333 . S
Cd270 O274 2.352 . S
Cd270 O278 2.277 . S
Cd270 O279 2.356 . S
C271 O276 1.209 . S
C271 O278 1.226 . S
O272 Cd268 2.273 . S
O272 Cd270 2.411 . S
O272 C275 1.320 . S
O273 Cd270 2.333 . S
O273 C275 1.214 . S
O274 Cd270 2.352 . S
O274 C277 1.258 . S
C275 O272 1.320 . S
C275 O273 1.214 . S
O276 Cd268 2.277 . S
O276 C271 1.209 . S
C277 O274 1.258 . S
C277 O279 1.282 . S
O278 Cd270 2.277 . S
O278 C271 1.226 . S
O279 Cd270 2.356 . S
O279 C277 1.282 . S
C280 O281 1.306 . S
C280 O283 1.160 . S
O281 C280 1.306 . S
O281 Cd282 2.228 . S
Cd282 O281 2.228 . S
Cd282 O286 2.273 . S
Cd282 O290 2.277 . S
O283 C280 1.160 . S
O283 Cd284 2.203 . S
Cd284 O283 2.203 . S
Cd284 O286 2.411 . S
Cd284 O287 2.333 . S
Cd284 O288 2.352 1_554 S
Cd284 O292 2.277 . S
Cd284 O293 2.356 1_554 S
C285 O290 1.209 . S
C285 O292 1.226 . S
O286 Cd282 2.273 . S
O286 Cd284 2.411 . S
O286 C289 1.320 . S
O287 Cd284 2.333 . S
O287 C289 1.214 . S
O288 Cd284 2.352 1_556 S
O288 C291 1.258 . S
C289 O286 1.320 . S
C289 O287 1.214 . S
O290 Cd282 2.277 . S
O290 C285 1.209 . S
C291 O288 1.258 . S
C291 O293 1.282 . S
O292 Cd284 2.277 . S
O292 C285 1.226 . S
O293 Cd284 2.356 1_556 S
O293 C291 1.282 . S
C294 O295 1.306 . S
C294 O297 1.160 . S
O295 C294 1.306 . S
O295 Cd296 2.228 . S
Cd296 O295 2.228 . S
Cd296 O300 2.273 . S
Cd296 O304 2.277 . S
O297 C294 1.160 . S
O297 Cd298 2.203 . S
Cd298 O297 2.203 . S
Cd298 O300 2.411 . S
Cd298 O301 2.333 . S
Cd298 O302 2.352 . S
Cd298 O306 2.277 . S
Cd298 O307 2.356 . S
C299 O304 1.209 . S
C299 O306 1.226 . S
O300 Cd296 2.273 . S
O300 Cd298 2.411 . S
O300 C303 1.320 . S
O301 Cd298 2.333 . S
O301 C303 1.214 . S
O302 Cd298 2.352 . S
O302 C305 1.258 . S
C303 O300 1.320 . S
C303 O301 1.214 . S
O304 Cd296 2.277 . S
O304 C299 1.209 . S
C305 O302 1.258 . S
C305 O307 1.282 . S
O306 Cd298 2.277 . S
O306 C299 1.226 . S
O307 Cd298 2.356 . S
O307 C305 1.282 . S
C308 O309 1.306 . S
C308 O311 1.160 . S
O309 C308 1.306 . S
O309 Cd310 2.228 . S
Cd310 O309 2.228 . S
Cd310 O314 2.273 . S
Cd310 O318 2.277 . S
O311 C308 1.160 . S
O311 Cd312 2.203 . S
Cd312 O311 2.203 . S
Cd312 O314 2.411 . S
Cd312 O315 2.333 . S
Cd312 O316 2.352 . S
Cd312 O320 2.277 . S
Cd312 O321 2.356 . S
C313 O318 1.209 . S
C313 O320 1.226 . S
O314 Cd310 2.273 . S
O314 Cd312 2.411 . S
O314 C317 1.320 . S
O315 Cd312 2.333 . S
O315 C317 1.214 . S
O316 Cd312 2.352 . S
O316 C319 1.258 . S
C317 O314 1.320 . S
C317 O315 1.214 . S
O318 Cd310 2.277 . S
O318 C313 1.209 . S
C319 O316 1.258 . S
C319 O321 1.282 . S
O320 Cd312 2.277 . S
O320 C313 1.226 . S
O321 Cd312 2.356 . S
O321 C319 1.282 . S
C322 O323 1.306 . S
C322 O325 1.160 . S
O323 C322 1.306 . S
O323 Cd324 2.228 . S
Cd324 O323 2.228 . S
Cd324 O328 2.273 . S
Cd324 O332 2.277 . S
O325 C322 1.160 . S
O325 Cd326 2.203 . S
Cd326 O325 2.203 . S
Cd326 O328 2.411 . S
Cd326 O329 2.333 . S
Cd326 O330 2.352 . S
Cd326 O334 2.277 . S
Cd326 O335 2.356 . S
C327 O332 1.209 . S
C327 O334 1.226 . S
O328 Cd324 2.273 . S
O328 Cd326 2.411 . S
O328 C331 1.320 . S
O329 Cd326 2.333 . S
O329 C331 1.214 . S
O330 Cd326 2.352 . S
O330 C333 1.258 . S
C331 O328 1.320 . S
C331 O329 1.214 . S
O332 Cd324 2.277 . S
O332 C327 1.209 . S
C333 O330 1.258 . S
C333 O335 1.282 . S
O334 Cd326 2.277 . S
O334 C327 1.226 . S
O335 Cd326 2.356 . S
O335 C333 1.282 . S
Eu336 C345 2.828 . S
Eu336 O347 2.392 . S
Eu336 O349 2.418 . S
Eu336 O354 2.373 . S
Eu336 O357 2.488 . S
Eu336 O358 2.471 1_554 S
Eu336 O359 2.349 1_554 S
Eu337 O346 2.369 . S
Eu337 O350 2.435 1_544 S
Eu337 O351 2.430 1_545 S
Eu337 O352 2.380 . S
Eu337 O355 2.427 1_554 S
Eu337 O356 2.425 1_554 S
Eu337 C366 2.776 1_545 S
C338 O356 1.244 . S
C338 O359 1.265 . S
C339 C340 1.379 1_554 S
C339 C343 1.373 . S
C339 C345 1.505 . S
C340 C339 1.379 1_556 S
C340 C342 1.369 . S
C340 H368 0.930 . S
C341 C343 1.383 . S
C341 C344 1.382 1_554 S
C341 H369 0.930 . S
C342 C340 1.369 . S
C342 C344 1.392 . S
C342 H370 0.930 . S
C343 C339 1.373 . S
C343 C341 1.383 . S
C343 H371 0.931 . S
C344 C341 1.382 1_556 S
C344 C342 1.392 . S
C345 Eu336 2.828 . S
C345 C339 1.505 . S
C345 O357 1.249 . S
C345 O358 1.244 1_554 S
O346 Eu337 2.369 . S
O346 C348 1.258 . S
O347 Eu336 2.392 . S
O347 C348 1.242 . S
C348 O346 1.258 . S
C348 O347 1.242 . S
O349 Eu336 2.418 . S
O349 C353 1.244 . S
O350 Eu337 2.435 1_566 S
O350 C366 1.198 1_556 S
O351 Eu337 2.430 1_565 S
O351 C366 1.244 . S
O352 Eu337 2.380 . S
O352 C353 1.265 . S
C353 O349 1.244 . S
C353 O352 1.265 . S
O354 Eu336 2.373 . S
O354 C367 1.258 . S
O355 Eu337 2.427 1_556 S
O355 C367 1.241 1_556 S
O356 Eu337 2.425 1_556 S
O356 C338 1.244 . S
O357 Eu336 2.488 . S
O357 C345 1.249 . S
O358 Eu336 2.471 1_556 S
O358 C345 1.244 1_556 S
O359 Eu336 2.349 1_556 S
O359 C338 1.265 . S
C360 C361 1.379 . S
C360 C364 1.373 . S
C360 C366 1.505 . S
C361 C360 1.379 . S
C361 C363 1.369 . S
C361 H372 0.930 . S
C362 C364 1.383 . S
C362 C365 1.382 . S
C362 H373 0.930 . S
C363 C361 1.369 . S
C363 C365 1.392 . S
C363 H374 0.930 . S
C364 C360 1.373 . S
C364 C362 1.383 . S
C364 H375 0.931 1_554 S
C365 C362 1.382 . S
C365 C363 1.392 . S
C366 Eu337 2.776 1_565 S
C366 O350 1.198 1_554 S
C366 O351 1.244 . S
C366 C360 1.505 . S
C367 O354 1.258 . S
C367 O355 1.241 1_554 S
H368 C340 0.930 . S
H369 C341 0.930 . S
H370 C342 0.930 . S
H371 C343 0.931 . S
H372 C361 0.930 . S
H373 C362 0.930 . S
H374 C363 0.930 . S
H375 C364 0.931 1_556 S
Eu376 C385 2.828 . S
Eu376 O387 2.392 . S
Eu376 O389 2.418 . S
Eu376 O394 2.373 . S
Eu376 O397 2.488 . S
Eu376 O398 2.471 . S
Eu376 O399 2.349 . S
Eu377 O386 2.373 . S
Eu377 O390 2.488 . S
Eu377 O391 2.471 . S
Eu377 O392 2.349 . S
Eu377 O395 2.392 . S
Eu377 O396 2.418 . S
Eu377 C406 2.828 . S
C378 O396 1.244 . S
C378 O399 1.265 . S
C379 C380 1.379 . S
C379 C383 1.373 . S
C379 C385 1.505 . S
C380 C379 1.379 . S
C380 C382 1.369 . S
C380 H408 0.930 . S
C381 C383 1.383 . S
C381 C384 1.382 . S
C381 H409 0.930 . S
C382 C380 1.369 . S
C382 C384 1.392 . S
C382 H410 0.930 . S
C383 C379 1.373 . S
C383 C381 1.383 . S
C383 H411 0.931 . S
C384 C381 1.382 . S
C384 C382 1.392 . S
C385 Eu376 2.828 . S
C385 C379 1.505 . S
C385 O397 1.249 . S
C385 O398 1.244 . S
O386 Eu377 2.373 . S
O386 C388 1.258 . S
O387 Eu376 2.392 . S
O387 C388 1.242 . S
C388 O386 1.258 . S
C388 O387 1.242 . S
O389 Eu376 2.418 . S
O389 C393 1.244 . S
O390 Eu377 2.488 . S
O390 C406 1.249 . S
O391 Eu377 2.471 . S
O391 C406 1.244 . S
O392 Eu377 2.349 . S
O392 C393 1.265 . S
C393 O389 1.244 . S
C393 O392 1.265 . S
O394 Eu376 2.373 . S
O394 C407 1.258 . S
O395 Eu377 2.392 . S
O395 C407 1.242 . S
O396 Eu377 2.418 . S
O396 C378 1.244 . S
O397 Eu376 2.488 . S
O397 C385 1.249 . S
O398 Eu376 2.471 . S
O398 C385 1.244 . S
O399 Eu376 2.349 . S
O399 C378 1.265 . S
C400 C401 1.379 . S
C400 C404 1.373 . S
C400 C406 1.505 . S
C401 C400 1.379 . S
C401 C403 1.369 . S
C401 H412 0.930 . S
C402 C404 1.383 . S
C402 C405 1.382 . S
C402 H413 0.930 . S
C403 C401 1.369 . S
C403 C405 1.392 . S
C403 H414 0.930 . S
C404 C400 1.373 . S
C404 C402 1.383 . S
C404 H415 0.931 . S
C405 C402 1.382 . S
C405 C403 1.392 . S
C406 Eu377 2.828 . S
C406 O390 1.249 . S
C406 O391 1.244 . S
C406 C400 1.505 . S
C407 O394 1.258 . S
C407 O395 1.242 . S
H408 C380 0.930 . S
H409 C381 0.930 . S
H410 C382 0.930 . S
H411 C383 0.931 . S
H412 C401 0.930 . S
H413 C402 0.930 . S
H414 C403 0.930 . S
H415 C404 0.931 . S
Eu416 C425 2.828 . S
Eu416 O427 2.392 . S
Eu416 O429 2.418 . S
Eu416 O434 2.373 1_545 S
Eu416 O437 2.488 . S
Eu416 O438 2.471 . S
Eu416 O439 2.349 . S
Eu417 O426 2.373 . S
Eu417 O430 2.488 . S
Eu417 O431 2.471 . S
Eu417 O432 2.349 . S
Eu417 O435 2.392 1_545 S
Eu417 O436 2.418 . S
Eu417 C446 2.828 . S
C418 O436 1.244 . S
C418 O439 1.265 . S
C419 C420 1.379 . S
C419 C423 1.373 . S
C419 C425 1.505 1_565 S
C420 C419 1.379 . S
C420 C422 1.369 . S
C420 H448 0.930 . S
C421 C423 1.383 . S
C421 C424 1.382 . S
C421 H449 0.930 . S
C422 C420 1.369 . S
C422 C424 1.392 . S
C422 H450 0.930 . S
C423 C419 1.373 . S
C423 C421 1.383 . S
C423 H451 0.939 . S
C424 C421 1.382 . S
C424 C422 1.392 . S
C425 Eu416 2.828 . S
C425 C419 1.505 1_545 S
C425 O437 1.249 . S
C425 O438 1.244 . S
O426 Eu417 2.373 . S
O426 C428 1.258 . S
O427 Eu416 2.392 . S
O427 C428 1.242 . S
C428 O426 1.258 . S
C428 O427 1.242 . S
O429 Eu416 2.418 . S
O429 C433 1.244 . S
O430 Eu417 2.488 . S
O430 C446 1.249 . S
O431 Eu417 2.471 . S
O431 C446 1.244 . S
O432 Eu417 2.349 . S
O432 C433 1.265 . S
C433 O429 1.244 . S
C433 O432 1.265 . S
O434 Eu416 2.373 1_565 S
O434 C447 1.258 . S
O435 Eu417 2.392 1_565 S
O435 C447 1.242 . S
O436 Eu417 2.418 . S
O436 C418 1.244 . S
O437 Eu416 2.488 . S
O437 C425 1.249 . S
O438 Eu416 2.471 . S
O438 C425 1.244 . S
O439 Eu416 2.349 . S
O439 C418 1.265 . S
C440 C441 1.379 . S
C440 C444 1.373 . S
C440 C446 1.505 . S
C441 C440 1.379 . S
C441 C443 1.369 . S
C441 H452 0.930 . S
C442 C444 1.383 . S
C442 C445 1.382 . S
C442 H453 0.930 . S
C443 C441 1.369 . S
C443 C445 1.392 . S
C443 H454 0.930 . S
C444 C440 1.373 . S
C444 C442 1.383 . S
C444 H455 0.931 . S
C445 C442 1.382 . S
C445 C443 1.392 . S
C446 Eu417 2.828 . S
C446 O430 1.249 . S
C446 O431 1.244 . S
C446 C440 1.505 . S
C447 O434 1.258 . S
C447 O435 1.242 . S
H448 C420 0.930 . S
H449 C421 0.930 . S
H450 C422 0.930 . S
H451 C423 0.939 . S
H452 C441 0.930 . S
H453 C442 0.930 . S
H454 C443 0.930 . S
H455 C444 0.931 . S
Eu456 C465 2.828 . S
Eu456 O467 2.392 . S
Eu456 O469 2.418 . S
Eu456 O474 2.373 . S
Eu456 O477 2.488 . S
Eu456 O478 2.471 . S
Eu456 O479 2.349 . S
Eu457 O466 2.373 . S
Eu457 O470 2.488 . S
Eu457 O471 2.471 . S
Eu457 O472 2.349 . S
Eu457 O475 2.392 . S
Eu457 O476 2.418 . S
Eu457 C486 2.828 . S
C458 O476 1.244 . S
C458 O479 1.265 . S
C459 C460 1.379 . S
C459 C463 1.373 . S
C459 C465 1.505 . S
C460 C459 1.379 . S
C460 C462 1.369 . S
C460 H488 0.930 . S
C461 C463 1.383 . S
C461 C464 1.382 . S
C461 H489 0.930 . S
C462 C460 1.369 . S
C462 C464 1.392 . S
C462 H490 0.930 . S
C463 C459 1.373 . S
C463 C461 1.383 . S
C463 H491 0.931 . S
C464 C461 1.382 . S
C464 C462 1.392 . S
C465 Eu456 2.828 . S
C465 C459 1.505 . S
C465 O477 1.249 . S
C465 O478 1.244 . S
O466 Eu457 2.373 . S
O466 C468 1.258 . S
O467 Eu456 2.392 . S
O467 C468 1.242 . S
C468 O466 1.258 . S
C468 O467 1.242 . S
O469 Eu456 2.418 . S
O469 C473 1.244 . S
O470 Eu457 2.488 . S
O470 C486 1.249 . S
O471 Eu457 2.471 . S
O471 C486 1.244 . S
O472 Eu457 2.349 . S
O472 C473 1.265 . S
C473 O469 1.244 . S
C473 O472 1.265 . S
O474 Eu456 2.373 . S
O474 C487 1.258 . S
O475 Eu457 2.392 . S
O475 C487 1.242 . S
O476 Eu457 2.418 . S
O476 C458 1.244 . S
O477 Eu456 2.488 . S
O477 C465 1.249 . S
O478 Eu456 2.471 . S
O478 C465 1.244 . S
O479 Eu456 2.349 . S
O479 C458 1.265 . S
C480 C481 1.379 . S
C480 C484 1.373 . S
C480 C486 1.505 . S
C481 C480 1.379 . S
C481 C483 1.369 . S
C481 H492 0.930 . S
C482 C484 1.383 . S
C482 C485 1.382 . S
C482 H493 0.930 . S
C483 C481 1.369 . S
C483 C485 1.392 . S
C483 H494 0.930 . S
C484 C480 1.373 . S
C484 C482 1.383 . S
C484 H495 0.931 . S
C485 C482 1.382 . S
C485 C483 1.392 . S
C486 Eu457 2.828 . S
C486 O470 1.249 . S
C486 O471 1.244 . S
C486 C480 1.505 . S
C487 O474 1.258 . S
C487 O475 1.242 . S
H488 C460 0.930 . S
H489 C461 0.930 . S
H490 C462 0.930 . S
H491 C463 0.931 . S
H492 C481 0.930 . S
H493 C482 0.930 . S
H494 C483 0.930 . S
H495 C484 0.931 . S
Eu496 C505 2.828 . S
Eu496 O507 2.392 . S
Eu496 O509 2.418 . S
Eu496 O514 2.373 . S
Eu496 O517 2.488 . S
Eu496 O518 2.471 . S
Eu496 O519 2.349 . S
Eu497 O506 2.373 . S
Eu497 O510 2.488 1_545 S
Eu497 O511 2.471 1_545 S
Eu497 O512 2.349 . S
Eu497 O515 2.392 . S
Eu497 O516 2.418 . S
Eu497 C526 2.828 1_545 S
C498 O516 1.244 . S
C498 O519 1.265 . S
C499 C500 1.379 . S
C499 C503 1.373 . S
C499 C505 1.505 . S
C500 C499 1.379 . S
C500 C502 1.369 . S
C500 H528 0.930 . S
C501 C503 1.383 . S
C501 C504 1.382 . S
C501 H529 0.935 . S
C502 C500 1.369 . S
C502 C504 1.392 . S
C502 H530 0.930 . S
C503 C499 1.373 . S
C503 C501 1.383 . S
C503 H531 0.931 . S
C504 C501 1.382 . S
C504 C502 1.392 . S
C505 Eu496 2.828 . S
C505 C499 1.505 . S
C505 O517 1.249 . S
C505 O518 1.244 . S
O506 Eu497 2.373 . S
O506 C508 1.258 . S
O507 Eu496 2.392 . S
O507 C508 1.242 . S
C508 O506 1.258 . S
C508 O507 1.242 . S
O509 Eu496 2.418 . S
O509 C513 1.244 . S
O510 Eu497 2.488 1_565 S
O510 C526 1.249 . S
O511 Eu497 2.471 1_565 S
O511 C526 1.244 . S
O512 Eu497 2.349 . S
O512 C513 1.265 . S
C513 O509 1.244 . S
C513 O512 1.265 . S
O514 Eu496 2.373 . S
O514 C527 1.258 . S
O515 Eu497 2.392 . S
O515 C527 1.242 . S
O516 Eu497 2.418 . S
O516 C498 1.244 . S
O517 Eu496 2.488 . S
O517 C505 1.249 . S
O518 Eu496 2.471 . S
O518 C505 1.244 . S
O519 Eu496 2.349 . S
O519 C498 1.265 . S
C520 C521 1.379 . S
C520 C524 1.373 . S
C520 C526 1.505 . S
C521 C520 1.379 . S
C521 C523 1.369 . S
C521 H532 0.930 . S
C522 C524 1.383 . S
C522 C525 1.382 . S
C522 H533 0.930 . S
C523 C521 1.369 . S
C523 C525 1.392 . S
C523 H534 0.930 . S
C524 C520 1.373 . S
C524 C522 1.383 . S
C524 H535 0.931 . S
C525 C522 1.382 . S
C525 C523 1.392 . S
C526 Eu497 2.828 1_565 S
C526 O510 1.249 . S
C526 O511 1.244 . S
C526 C520 1.505 . S
C527 O514 1.258 . S
C527 O515 1.242 . S
H528 C500 0.930 . S
H529 C501 0.935 . S
H530 C502 0.930 . S
H531 C503 0.931 . S
H532 C521 0.930 . S
H533 C522 0.930 . S
H534 C523 0.930 . S
H535 C524 0.931 . S
Eu536 C545 2.828 . S
Eu536 O547 2.392 . S
Eu536 O549 2.418 . S
Eu536 O554 2.373 . S
Eu536 O557 2.488 . S
Eu536 O558 2.471 . S
Eu536 O559 2.349 . S
Eu537 O546 2.373 . S
Eu537 O550 2.488 . S
Eu537 O551 2.471 . S
Eu537 O552 2.349 . S
Eu537 O555 2.392 . S
Eu537 O556 2.418 . S
Eu537 C566 2.828 . S
C538 O556 1.244 . S
C538 O559 1.265 . S
C539 C540 1.379 . S
C539 C543 1.373 . S
C539 C545 1.505 . S
C540 C539 1.379 . S
C540 C542 1.369 . S
C540 H568 0.930 . S
C541 C543 1.383 . S
C541 C544 1.382 . S
C541 H569 0.930 . S
C542 C540 1.369 . S
C542 C544 1.392 . S
C542 H570 0.930 . S
C543 C539 1.373 . S
C543 C541 1.383 . S
C543 H571 0.931 . S
C544 C541 1.382 . S
C544 C542 1.392 . S
C545 Eu536 2.828 . S
C545 C539 1.505 . S
C545 O557 1.249 . S
C545 O558 1.244 . S
O546 Eu537 2.373 . S
O546 C548 1.258 . S
O547 Eu536 2.392 . S
O547 C548 1.242 . S
C548 O546 1.258 . S
C548 O547 1.242 . S
O549 Eu536 2.418 . S
O549 C553 1.244 . S
O550 Eu537 2.488 . S
O550 C566 1.249 . S
O551 Eu537 2.471 . S
O551 C566 1.244 . S
O552 Eu537 2.349 . S
O552 C553 1.265 . S
C553 O549 1.244 . S
C553 O552 1.265 . S
O554 Eu536 2.373 . S
O554 C567 1.258 . S
O555 Eu537 2.392 . S
O555 C567 1.242 . S
O556 Eu537 2.418 . S
O556 C538 1.244 . S
O557 Eu536 2.488 . S
O557 C545 1.249 . S
O558 Eu536 2.471 . S
O558 C545 1.244 . S
O559 Eu536 2.349 . S
O559 C538 1.265 . S
C560 C561 1.379 . S
C560 C564 1.373 . S
C560 C566 1.505 . S
C561 C560 1.379 . S
C561 C563 1.369 . S
C561 H572 0.930 . S
C562 C564 1.383 . S
C562 C565 1.382 . S
C562 H573 0.930 . S
C563 C561 1.369 . S
C563 C565 1.392 . S
C563 H574 0.930 . S
C564 C560 1.373 . S
C564 C562 1.383 . S
C564 H575 0.931 . S
C565 C562 1.382 . S
C565 C563 1.392 . S
C566 Eu537 2.828 . S
C566 O550 1.249 . S
C566 O551 1.244 . S
C566 C560 1.505 . S
C567 O554 1.258 . S
C567 O555 1.242 . S
H568 C540 0.930 . S
H569 C541 0.930 . S
H570 C542 0.930 . S
H571 C543 0.931 . S
H572 C561 0.930 . S
H573 C562 0.930 . S
H574 C563 0.930 . S
H575 C564 0.931 . S
Eu576 C585 2.828 . S
Eu576 O587 2.392 . S
Eu576 O589 2.418 1_545 S
Eu576 O594 2.373 . S
Eu576 O597 2.488 . S
Eu576 O598 2.471 . S
Eu576 O599 2.349 . S
Eu577 O586 2.374 1_556 S
Eu577 O590 2.488 . S
Eu577 O591 2.471 . S
Eu577 O592 2.349 . S
Eu577 O595 2.392 . S
Eu577 O596 2.418 1_556 S
Eu577 C606 2.828 . S
C578 O596 1.244 . S
C578 O599 1.265 . S
C579 C580 1.379 . S
C579 C583 1.373 1_545 S
C579 C585 1.505 . S
C580 C579 1.379 . S
C580 C582 1.369 . S
C580 H608 0.930 . S
C581 C583 1.383 . S
C581 C584 1.382 1_565 S
C581 H609 0.930 . S
C582 C580 1.369 . S
C582 C584 1.392 . S
C582 H610 0.930 . S
C583 C579 1.373 1_565 S
C583 C581 1.383 . S
C583 H611 0.931 . S
C584 C581 1.382 1_545 S
C584 C582 1.392 . S
C585 Eu576 2.828 . S
C585 C579 1.505 . S
C585 O597 1.249 . S
C585 O598 1.244 . S
O586 Eu577 2.374 1_554 S
O586 C588 1.254 . S
O587 Eu576 2.392 . S
O587 C588 1.242 . S
C588 O586 1.254 . S
C588 O587 1.242 . S
O589 Eu576 2.418 1_565 S
O589 C593 1.244 . S
O590 Eu577 2.488 . S
O590 C606 1.249 . S
O591 Eu577 2.471 . S
O591 C606 1.244 . S
O592 Eu577 2.349 . S
O592 C593 1.265 1_546 S
C593 O589 1.244 . S
C593 O592 1.265 1_564 S
O594 Eu576 2.373 . S
O594 C607 1.258 . S
O595 Eu577 2.392 . S
O595 C607 1.242 1_556 S
O596 Eu577 2.418 1_554 S
O596 C578 1.244 . S
O597 Eu576 2.488 . S
O597 C585 1.249 . S
O598 Eu576 2.471 . S
O598 C585 1.244 . S
O599 Eu576 2.349 . S
O599 C578 1.265 . S
C600 C601 1.379 . S
C600 C604 1.373 . S
C600 C606 1.505 . S
C601 C600 1.379 . S
C601 C603 1.369 . S
C601 H612 0.930 . S
C602 C604 1.383 . S
C602 C605 1.382 . S
C602 H613 0.930 . S
C603 C601 1.369 . S
C603 C605 1.392 . S
C603 H614 0.930 . S
C604 C600 1.373 . S
C604 C602 1.383 . S
C604 H615 0.931 . S
C605 C602 1.382 . S
C605 C603 1.392 . S
C606 Eu577 2.828 . S
C606 O590 1.249 . S
C606 O591 1.244 . S
C606 C600 1.505 . S
C607 O594 1.258 . S
C607 O595 1.242 1_554 S
H608 C580 0.930 . S
H609 C581 0.930 . S
H610 C582 0.930 . S
H611 C583 0.931 . S
H612 C601 0.930 . S
H613 C602 0.930 . S
H614 C603 0.930 . S
H615 C604 0.931 . S
Eu616 C625 2.828 . S
Eu616 O627 2.392 . S
Eu616 O629 2.418 . S
Eu616 O634 2.373 . S
Eu616 O637 2.488 . S
Eu616 O638 2.471 . S
Eu616 O639 2.349 . S
Eu617 O626 2.373 . S
Eu617 O630 2.488 . S
Eu617 O631 2.471 . S
Eu617 O632 2.349 . S
Eu617 O635 2.392 . S
Eu617 O636 2.418 . S
Eu617 C646 2.828 . S
C618 O636 1.244 . S
C618 O639 1.265 . S
C619 C620 1.379 . S
C619 C623 1.373 . S
C619 C625 1.505 . S
C620 C619 1.379 . S
C620 C622 1.369 . S
C620 H648 0.930 . S
C621 C623 1.383 . S
C621 C624 1.382 . S
C621 H649 0.930 . S
C622 C620 1.369 . S
C622 C624 1.392 . S
C622 H650 0.930 . S
C623 C619 1.373 . S
C623 C621 1.383 . S
C623 H651 0.931 . S
C624 C621 1.382 . S
C624 C622 1.392 . S
C625 Eu616 2.828 . S
C625 C619 1.505 . S
C625 O637 1.249 . S
C625 O638 1.244 . S
O626 Eu617 2.373 . S
O626 C628 1.258 . S
O627 Eu616 2.392 . S
O627 C628 1.242 . S
C628 O626 1.258 . S
C628 O627 1.242 . S
O629 Eu616 2.418 . S
O629 C633 1.244 . S
O630 Eu617 2.488 . S
O630 C646 1.249 . S
O631 Eu617 2.471 . S
O631 C646 1.244 . S
O632 Eu617 2.349 . S
O632 C633 1.265 . S
C633 O629 1.244 . S
C633 O632 1.265 . S
O634 Eu616 2.373 . S
O634 C647 1.258 . S
O635 Eu617 2.392 . S
O635 C647 1.242 . S
O636 Eu617 2.418 . S
O636 C618 1.244 . S
O637 Eu616 2.488 . S
O637 C625 1.249 . S
O638 Eu616 2.471 . S
O638 C625 1.244 . S
O639 Eu616 2.349 . S
O639 C618 1.265 . S
C640 C641 1.379 . S
C640 C644 1.373 . S
C640 C646 1.505 . S
C641 C640 1.379 . S
C641 C643 1.369 . S
C641 H652 0.930 . S
C642 C644 1.383 . S
C642 C645 1.382 . S
C642 H653 0.930 . S
C643 C641 1.369 . S
C643 C645 1.392 . S
C643 H654 0.930 . S
C644 C640 1.373 . S
C644 C642 1.383 . S
C644 H655 0.931 . S
C645 C642 1.382 . S
C645 C643 1.392 . S
C646 Eu617 2.828 . S
C646 O630 1.249 . S
C646 O631 1.244 . S
C646 C640 1.505 . S
C647 O634 1.258 . S
C647 O635 1.242 . S
H648 C620 0.930 . S
H649 C621 0.930 . S
H650 C622 0.930 . S
H651 C623 0.931 . S
H652 C641 0.930 . S
H653 C642 0.930 . S
H654 C643 0.930 . S
H655 C644 0.931 . S
Eu656 C665 2.828 . S
Eu656 O667 2.392 . S
Eu656 O669 2.418 . S
Eu656 O674 2.373 1_554 S
Eu656 O677 2.488 . S
Eu656 O678 2.471 . S
Eu656 O679 2.349 . S
Eu657 O666 2.373 . S
Eu657 O670 2.488 . S
Eu657 O671 2.471 . S
Eu657 O672 2.349 . S
Eu657 O675 2.392 1_554 S
Eu657 O676 2.418 . S
Eu657 C686 2.828 . S
C658 O676 1.244 . S
C658 O679 1.265 . S
C659 C660 1.379 . S
C659 C663 1.373 . S
C659 C665 1.505 1_556 S
C660 C659 1.379 . S
C660 C662 1.369 . S
C660 H688 0.930 . S
C661 C663 1.385 . S
C661 C664 1.382 . S
C661 H689 0.930 . S
C662 C660 1.369 . S
C662 C664 1.392 . S
C662 H690 0.930 . S
C663 C659 1.373 . S
C663 C661 1.385 . S
C663 H691 0.929 1_556 S
C664 C661 1.382 . S
C664 C662 1.392 . S
C665 Eu656 2.828 . S
C665 C659 1.505 1_554 S
C665 O677 1.249 . S
C665 O678 1.244 . S
O666 Eu657 2.373 . S
O666 C668 1.258 . S
O667 Eu656 2.392 . S
O667 C668 1.242 . S
C668 O666 1.258 . S
C668 O667 1.242 . S
O669 Eu656 2.418 . S
O669 C673 1.244 . S
O670 Eu657 2.488 . S
O670 C686 1.249 . S
O671 Eu657 2.471 . S
O671 C686 1.244 . S
O672 Eu657 2.349 . S
O672 C673 1.265 . S
C673 O669 1.244 . S
C673 O672 1.265 . S
O674 Eu656 2.373 1_556 S
O674 C687 1.258 . S
O675 Eu657 2.392 1_556 S
O675 C687 1.242 . S
O676 Eu657 2.418 . S
O676 C658 1.244 . S
O677 Eu656 2.488 . S
O677 C665 1.249 . S
O678 Eu656 2.471 . S
O678 C665 1.244 . S
O679 Eu656 2.349 . S
O679 C658 1.265 . S
C680 C681 1.379 . S
C680 C684 1.373 . S
C680 C686 1.505 . S
C681 C680 1.379 . S
C681 C683 1.369 . S
C681 H692 0.930 . S
C682 C684 1.383 . S
C682 C685 1.382 . S
C682 H693 0.930 . S
C683 C681 1.369 . S
C683 C685 1.392 . S
C683 H694 0.930 . S
C684 C680 1.373 . S
C684 C682 1.383 . S
C684 H695 0.931 . S
C685 C682 1.382 . S
C685 C683 1.392 . S
C686 Eu657 2.828 . S
C686 O670 1.249 . S
C686 O671 1.244 . S
C686 C680 1.505 . S
C687 O674 1.258 . S
C687 O675 1.242 . S
H688 C660 0.930 . S
H689 C661 0.930 . S
H690 C662 0.930 . S
H691 C663 0.929 1_554 S
H692 C681 0.930 . S
H693 C682 0.930 . S
H694 C683 0.930 . S
H695 C684 0.931 . S
Eu696 C705 2.828 . S
Eu696 O707 2.392 . S
Eu696 O709 2.418 . S
Eu696 O714 2.373 . S
Eu696 O717 2.488 . S
Eu696 O718 2.471 . S
Eu696 O719 2.349 . S
Eu697 O706 2.373 . S
Eu697 O710 2.488 . S
Eu697 O711 2.471 . S
Eu697 O712 2.349 . S
Eu697 O715 2.392 . S
Eu697 O716 2.418 . S
Eu697 C726 2.828 . S
C698 O716 1.244 . S
C698 O719 1.265 . S
C699 C700 1.379 . S
C699 C703 1.373 . S
C699 C705 1.505 . S
C700 C699 1.379 . S
C700 C702 1.369 . S
C700 H728 0.930 . S
C701 C703 1.383 . S
C701 C704 1.382 . S
C701 H729 0.930 . S
C702 C700 1.369 . S
C702 C704 1.392 . S
C702 H730 0.930 . S
C703 C699 1.373 . S
C703 C701 1.383 . S
C703 H731 0.931 . S
C704 C701 1.382 . S
C704 C702 1.392 . S
C705 Eu696 2.828 . S
C705 C699 1.505 . S
C705 O717 1.249 . S
C705 O718 1.244 . S
O706 Eu697 2.373 . S
O706 C708 1.258 . S
O707 Eu696 2.392 . S
O707 C708 1.242 . S
C708 O706 1.258 . S
C708 O707 1.242 . S
O709 Eu696 2.418 . S
O709 C713 1.244 . S
O710 Eu697 2.488 . S
O710 C726 1.249 . S
O711 Eu697 2.471 . S
O711 C726 1.244 . S
O712 Eu697 2.349 . S
O712 C713 1.265 . S
C713 O709 1.244 . S
C713 O712 1.265 . S
O714 Eu696 2.373 . S
O714 C727 1.258 . S
O715 Eu697 2.392 . S
O715 C727 1.242 . S
O716 Eu697 2.418 . S
O716 C698 1.244 . S
O717 Eu696 2.488 . S
O717 C705 1.249 . S
O718 Eu696 2.471 . S
O718 C705 1.244 . S
O719 Eu696 2.349 . S
O719 C698 1.265 . S
C720 C721 1.379 . S
C720 C724 1.373 . S
C720 C726 1.505 . S
C721 C720 1.379 . S
C721 C723 1.369 . S
C721 H732 0.930 . S
C722 C724 1.383 . S
C722 C725 1.382 . S
C722 H733 0.930 . S
C723 C721 1.369 . S
C723 C725 1.392 . S
C723 H734 0.930 . S
C724 C720 1.373 . S
C724 C722 1.383 . S
C724 H735 0.931 . S
C725 C722 1.382 . S
C725 C723 1.392 . S
C726 Eu697 2.828 . S
C726 O710 1.249 . S
C726 O711 1.244 . S
C726 C720 1.505 . S
C727 O714 1.258 . S
C727 O715 1.242 . S
H728 C700 0.930 . S
H729 C701 0.930 . S
H730 C702 0.930 . S
H731 C703 0.931 . S
H732 C721 0.930 . S
H733 C722 0.930 . S
H734 C723 0.930 . S
H735 C724 0.931 . S
Eu736 C745 2.828 . S
Eu736 O747 2.392 . S
Eu736 O749 2.418 . S
Eu736 O754 2.373 . S
Eu736 O757 2.488 . S
Eu736 O758 2.471 . S
Eu736 O759 2.349 . S
Eu737 O746 2.373 . S
Eu737 O750 2.488 . S
Eu737 O751 2.471 . S
Eu737 O752 2.349 . S
Eu737 O755 2.392 . S
Eu737 O756 2.418 . S
Eu737 C766 2.828 . S
C738 O756 1.244 . S
C738 O759 1.265 . S
C739 C740 1.379 1_455 S
C739 C743 1.373 . S
C739 C745 1.505 . S
C740 C739 1.379 1_655 S
C740 C742 1.369 . S
C740 H768 0.930 . S
C741 C743 1.394 . S
C741 C744 1.369 1_455 S
C741 H769 0.934 . S
C742 C740 1.369 . S
C742 C744 1.392 . S
C742 H770 0.930 . S
C743 C739 1.373 . S
C743 C741 1.394 . S
C743 H771 0.931 . S
C744 C741 1.369 1_655 S
C744 C742 1.392 . S
C745 Eu736 2.828 . S
C745 C739 1.505 . S
C745 O757 1.249 . S
C745 O758 1.244 . S
O746 Eu737 2.373 . S
O746 C748 1.258 . S
O747 Eu736 2.392 . S
O747 C748 1.242 . S
C748 O746 1.258 . S
C748 O747 1.242 . S
O749 Eu736 2.418 . S
O749 C753 1.244 . S
O750 Eu737 2.488 . S
O750 C766 1.249 . S
O751 Eu737 2.471 . S
O751 C766 1.244 . S
O752 Eu737 2.349 . S
O752 C753 1.265 . S
C753 O749 1.244 . S
C753 O752 1.265 . S
O754 Eu736 2.373 . S
O754 C767 1.292 . S
O755 Eu737 2.392 . S
O755 C767 1.252 . S
O756 Eu737 2.418 . S
O756 C738 1.244 . S
O757 Eu736 2.488 . S
O757 C745 1.249 . S
O758 Eu736 2.471 . S
O758 C745 1.244 . S
O759 Eu736 2.349 . S
O759 C738 1.265 . S
C760 C761 1.379 . S
C760 C764 1.373 . S
C760 C766 1.505 . S
C761 C760 1.379 . S
C761 C763 1.369 . S
C761 H772 0.930 . S
C762 C764 1.383 . S
C762 C765 1.382 . S
C762 H773 0.930 . S
C763 C761 1.369 . S
C763 C765 1.392 . S
C763 H774 0.930 . S
C764 C760 1.373 . S
C764 C762 1.383 . S
C764 H775 0.931 . S
C765 C762 1.382 . S
C765 C763 1.392 . S
C766 Eu737 2.828 . S
C766 O750 1.249 . S
C766 O751 1.244 . S
C766 C760 1.505 . S
C767 O754 1.292 . S
C767 O755 1.252 . S
H768 C740 0.930 . S
H769 C741 0.934 . S
H770 C742 0.930 . S
H771 C743 0.931 . S
H772 C761 0.930 . S
H773 C762 0.930 . S
H774 C763 0.930 . S
H775 C764 0.931 . S
Eu776 C785 2.828 . S
Eu776 O787 2.392 . S
Eu776 O789 2.418 . S
Eu776 O794 2.373 . S
Eu776 O797 2.488 . S
Eu776 O798 2.471 . S
Eu776 O799 2.349 . S
Eu777 O786 2.373 . S
Eu777 O790 2.488 . S
Eu777 O791 2.471 . S
Eu777 O792 2.349 . S
Eu777 O795 2.392 . S
Eu777 O796 2.418 . S
Eu777 C806 2.828 . S
C778 O796 1.244 . S
C778 O799 1.265 . S
C779 C780 1.379 . S
C779 C783 1.373 . S
C779 C785 1.505 . S
C780 C779 1.379 . S
C780 C782 1.369 . S
C780 H808 0.930 . S
C781 C783 1.383 . S
C781 C784 1.382 . S
C781 H809 0.930 . S
C782 C780 1.369 . S
C782 C784 1.392 . S
C782 H810 0.930 . S
C783 C779 1.373 . S
C783 C781 1.383 . S
C783 H811 0.931 . S
C784 C781 1.382 . S
C784 C782 1.392 . S
C785 Eu776 2.828 . S
C785 C779 1.505 . S
C785 O797 1.249 . S
C785 O798 1.244 . S
O786 Eu777 2.373 . S
O786 C788 1.258 . S
O787 Eu776 2.392 . S
O787 C788 1.242 . S
C788 O786 1.258 . S
C788 O787 1.242 . S
O789 Eu776 2.418 . S
O789 C793 1.244 . S
O790 Eu777 2.488 . S
O790 C806 1.249 . S
O791 Eu777 2.471 . S
O791 C806 1.244 . S
O792 Eu777 2.349 . S
O792 C793 1.265 . S
C793 O789 1.244 . S
C793 O792 1.265 . S
O794 Eu776 2.373 . S
O794 C807 1.258 . S
O795 Eu777 2.392 . S
O795 C807 1.242 . S
O796 Eu777 2.418 . S
O796 C778 1.244 . S
O797 Eu776 2.488 . S
O797 C785 1.249 . S
O798 Eu776 2.471 . S
O798 C785 1.244 . S
O799 Eu776 2.349 . S
O799 C778 1.265 . S
C800 C801 1.379 . S
C800 C804 1.373 . S
C800 C806 1.505 . S
C801 C800 1.379 . S
C801 C803 1.369 . S
C801 H812 0.930 . S
C802 C804 1.383 . S
C802 C805 1.382 . S
C802 H813 0.930 . S
C803 C801 1.369 . S
C803 C805 1.392 . S
C803 H814 0.930 . S
C804 C800 1.373 . S
C804 C802 1.383 . S
C804 H815 0.931 . S
C805 C802 1.382 . S
C805 C803 1.392 . S
C806 Eu777 2.828 . S
C806 O790 1.249 . S
C806 O791 1.244 . S
C806 C800 1.505 . S
C807 O794 1.258 . S
C807 O795 1.242 . S
H808 C780 0.930 . S
H809 C781 0.930 . S
H810 C782 0.930 . S
H811 C783 0.931 . S
H812 C801 0.930 . S
H813 C802 0.930 . S
H814 C803 0.930 . S
H815 C804 0.931 . S
Eu816 C825 2.828 . S
Eu816 O827 2.392 . S
Eu816 O829 2.418 . S
Eu816 O834 2.373 . S
Eu816 O837 2.488 . S
Eu816 O838 2.471 . S
Eu816 O839 2.349 . S
Eu817 O826 2.373 . S
Eu817 O830 2.488 . S
Eu817 O831 2.471 . S
Eu817 O832 2.349 . S
Eu817 O835 2.392 . S
Eu817 O836 2.418 . S
Eu817 C846 2.828 . S
C818 O836 1.244 . S
C818 O839 1.265 . S
C819 C820 1.379 . S
C819 C823 1.373 . S
C819 C825 1.505 . S
C820 C819 1.379 . S
C820 C822 1.369 . S
C820 H848 0.930 . S
C821 C823 1.383 . S
C821 C824 1.382 . S
C821 H849 0.930 . S
C822 C820 1.369 . S
C822 C824 1.392 . S
C822 H850 0.930 . S
C823 C819 1.373 . S
C823 C821 1.383 . S
C823 H851 0.931 . S
C824 C821 1.382 . S
C824 C822 1.392 . S
C825 Eu816 2.828 . S
C825 C819 1.505 . S
C825 O837 1.249 . S
C825 O838 1.244 . S
O826 Eu817 2.373 . S
O826 C828 1.258 . S
O827 Eu816 2.392 . S
O827 C828 1.242 . S
C828 O826 1.258 . S
C828 O827 1.242 . S
O829 Eu816 2.418 . S
O829 C833 1.244 . S
O830 Eu817 2.488 . S
O830 C846 1.249 . S
O831 Eu817 2.471 . S
O831 C846 1.244 . S
O832 Eu817 2.349 . S
O832 C833 1.265 . S
C833 O829 1.244 . S
C833 O832 1.265 . S
O834 Eu816 2.373 . S
O834 C847 1.258 . S
O835 Eu817 2.392 . S
O835 C847 1.242 . S
O836 Eu817 2.418 . S
O836 C818 1.244 . S
O837 Eu816 2.488 . S
O837 C825 1.249 . S
O838 Eu816 2.471 . S
O838 C825 1.244 . S
O839 Eu816 2.349 . S
O839 C818 1.265 . S
C840 C841 1.379 . S
C840 C844 1.373 . S
C840 C846 1.505 . S
C841 C840 1.379 . S
C841 C843 1.369 . S
C841 H852 0.930 . S
C842 C844 1.383 . S
C842 C845 1.382 . S
C842 H853 0.930 . S
C843 C841 1.369 . S
C843 C845 1.392 . S
C843 H854 0.930 . S
C844 C840 1.373 . S
C844 C842 1.383 . S
C844 H855 0.931 . S
C845 C842 1.382 . S
C845 C843 1.392 . S
C846 Eu817 2.828 . S
C846 O830 1.249 . S
C846 O831 1.244 . S
C846 C840 1.505 . S
C847 O834 1.258 . S
C847 O835 1.242 . S
H848 C820 0.930 . S
H849 C821 0.930 . S
H850 C822 0.930 . S
H851 C823 0.931 . S
H852 C841 0.930 . S
H853 C842 0.930 . S
H854 C843 0.930 . S
H855 C844 0.931 . S
Eu856 C865 2.828 . S
Eu856 O867 2.392 . S
Eu856 O869 2.418 . S
Eu856 O874 2.373 . S
Eu856 O877 2.488 . S
Eu856 O878 2.471 . S
Eu856 O879 2.349 . S
Eu857 O866 2.373 . S
Eu857 O870 2.488 . S
Eu857 O871 2.471 . S
Eu857 O872 2.349 . S
Eu857 O875 2.392 . S
Eu857 O876 2.418 . S
Eu857 C886 2.828 . S
C858 O876 1.244 . S
C858 O879 1.265 . S
C859 C860 1.379 . S
C859 C863 1.373 . S
C859 C865 1.505 . S
C860 C859 1.379 . S
C860 C862 1.369 . S
C860 H888 0.930 . S
C861 C863 1.383 . S
C861 C864 1.382 . S
C861 H889 0.930 . S
C862 C860 1.369 . S
C862 C864 1.392 . S
C862 H890 0.930 . S
C863 C859 1.373 . S
C863 C861 1.383 . S
C863 H891 0.931 . S
C864 C861 1.382 . S
C864 C862 1.392 . S
C865 Eu856 2.828 . S
C865 C859 1.505 . S
C865 O877 1.249 . S
C865 O878 1.244 . S
O866 Eu857 2.373 . S
O866 C868 1.258 . S
O867 Eu856 2.392 . S
O867 C868 1.242 . S
C868 O866 1.258 . S
C868 O867 1.242 . S
O869 Eu856 2.418 . S
O869 C873 1.244 . S
O870 Eu857 2.488 . S
O870 C886 1.249 . S
O871 Eu857 2.471 . S
O871 C886 1.244 . S
O872 Eu857 2.349 . S
O872 C873 1.265 . S
C873 O869 1.244 . S
C873 O872 1.265 . S
O874 Eu856 2.373 . S
O874 C887 1.258 . S
O875 Eu857 2.392 . S
O875 C887 1.242 . S
O876 Eu857 2.418 . S
O876 C858 1.244 . S
O877 Eu856 2.488 . S
O877 C865 1.249 . S
O878 Eu856 2.471 . S
O878 C865 1.244 . S
O879 Eu856 2.349 . S
O879 C858 1.265 . S
C880 C881 1.379 . S
C880 C884 1.373 . S
C880 C886 1.505 . S
C881 C880 1.379 . S
C881 C883 1.369 . S
C881 H892 0.930 . S
C882 C884 1.383 . S
C882 C885 1.382 . S
C882 H893 0.930 . S
C883 C881 1.369 . S
C883 C885 1.392 . S
C883 H894 0.930 . S
C884 C880 1.373 . S
C884 C882 1.383 . S
C884 H895 0.931 . S
C885 C882 1.382 . S
C885 C883 1.392 . S
C886 Eu857 2.828 . S
C886 O870 1.249 . S
C886 O871 1.244 . S
C886 C880 1.505 . S
C887 O874 1.258 . S
C887 O875 1.242 . S
H888 C860 0.930 . S
H889 C861 0.930 . S
H890 C862 0.930 . S
H891 C863 0.931 . S
H892 C881 0.930 . S
H893 C882 0.930 . S
H894 C883 0.930 . S
H895 C884 0.931 . S
Eu896 C905 2.828 . S
Eu896 O907 2.392 . S
Eu896 O909 2.418 . S
Eu896 O914 2.373 . S
Eu896 O917 2.488 . S
Eu896 O918 2.471 . S
Eu896 O919 2.349 . S
Eu897 O906 2.373 . S
Eu897 O910 2.488 . S
Eu897 O911 2.471 . S
Eu897 O912 2.349 . S
Eu897 O915 2.392 . S
Eu897 O916 2.418 . S
Eu897 C926 2.828 . S
C898 O916 1.244 . S
C898 O919 1.265 . S
C899 C900 1.379 . S
C899 C903 1.373 . S
C899 C905 1.505 . S
C900 C899 1.379 . S
C900 C902 1.369 . S
C900 H928 0.930 . S
C901 C903 1.383 . S
C901 C904 1.382 . S
C901 H929 0.930 . S
C902 C900 1.369 . S
C902 C904 1.392 . S
C902 H930 0.930 . S
C903 C899 1.373 . S
C903 C901 1.383 . S
C903 H931 0.931 . S
C904 C901 1.382 . S
C904 C902 1.392 . S
C905 Eu896 2.828 . S
C905 C899 1.505 . S
C905 O917 1.249 . S
C905 O918 1.244 . S
O906 Eu897 2.373 . S
O906 C908 1.258 . S
O907 Eu896 2.392 . S
O907 C908 1.242 . S
C908 O906 1.258 . S
C908 O907 1.242 . S
O909 Eu896 2.418 . S
O909 C913 1.244 . S
O910 Eu897 2.488 . S
O910 C926 1.249 . S
O911 Eu897 2.471 . S
O911 C926 1.244 . S
O912 Eu897 2.349 . S
O912 C913 1.265 . S
C913 O909 1.244 . S
C913 O912 1.265 . S
O914 Eu896 2.373 . S
O914 C927 1.258 . S
O915 Eu897 2.392 . S
O915 C927 1.242 . S
O916 Eu897 2.418 . S
O916 C898 1.244 . S
O917 Eu896 2.488 . S
O917 C905 1.249 . S
O918 Eu896 2.471 . S
O918 C905 1.244 . S
O919 Eu896 2.349 . S
O919 C898 1.265 . S
C920 C921 1.379 . S
C920 C924 1.373 . S
C920 C926 1.505 . S
C921 C920 1.379 . S
C921 C923 1.369 . S
C921 H932 0.930 . S
C922 C924 1.383 . S
C922 C925 1.382 . S
C922 H933 0.930 . S
C923 C921 1.369 . S
C923 C925 1.392 . S
C923 H934 0.930 . S
C924 C920 1.373 . S
C924 C922 1.383 . S
C924 H935 0.931 . S
C925 C922 1.382 . S
C925 C923 1.392 . S
C926 Eu897 2.828 . S
C926 O910 1.249 . S
C926 O911 1.244 . S
C926 C920 1.505 . S
C927 O914 1.258 . S
C927 O915 1.242 . S
H928 C900 0.930 . S
H929 C901 0.930 . S
H930 C902 0.930 . S
H931 C903 0.931 . S
H932 C921 0.930 . S
H933 C922 0.930 . S
H934 C923 0.930 . S
H935 C924 0.931 . S
Eu936 C945 2.828 1_554 S
Eu936 O947 2.392 . S
Eu936 O949 2.418 1_554 S
Eu936 O954 2.373 1_554 S
Eu936 O957 2.488 1_554 S
Eu936 O958 2.471 . S
Eu936 O959 2.349 . S
Eu937 O946 2.373 . S
Eu937 O950 2.488 1_455 S
Eu937 O951 2.471 1_455 S
Eu937 O952 2.349 1_554 S
Eu937 O955 2.392 . S
Eu937 O956 2.418 . S
Eu937 C966 2.828 1_455 S
C938 O956 1.244 . S
C938 O959 1.265 . S
C939 C940 1.379 1_556 S
C939 C943 1.373 . S
C939 C945 1.505 . S
C940 C939 1.379 1_554 S
C940 C942 1.369 . S
C940 H968 0.930 . S
C941 C943 1.383 . S
C941 C944 1.382 . S
C941 H969 0.930 . S
C942 C940 1.369 . S
C942 C944 1.392 1_554 S
C942 H970 0.930 . S
C943 C939 1.373 . S
C943 C941 1.383 . S
C943 H971 0.931 . S
C944 C941 1.382 . S
C944 C942 1.392 1_556 S
C945 Eu936 2.828 1_556 S
C945 C939 1.505 . S
C945 O957 1.249 . S
C945 O958 1.244 1_556 S
O946 Eu937 2.373 . S
O946 C948 1.258 . S
O947 Eu936 2.392 . S
O947 C948 1.242 . S
C948 O946 1.258 . S
C948 O947 1.242 . S
O949 Eu936 2.418 1_556 S
O949 C953 1.244 . S
O950 Eu937 2.488 1_655 S
O950 C966 1.249 . S
O951 Eu937 2.471 1_655 S
O951 C966 1.244 . S
O952 Eu937 2.349 1_556 S
O952 C953 1.265 . S
C953 O949 1.244 . S
C953 O952 1.265 . S
O954 Eu936 2.373 1_556 S
O954 C967 1.258 1_556 S
O955 Eu937 2.392 . S
O955 C967 1.242 . S
O956 Eu937 2.418 . S
O956 C938 1.244 . S
O957 Eu936 2.488 1_556 S
O957 C945 1.249 . S
O958 Eu936 2.471 . S
O958 C945 1.244 1_554 S
O959 Eu936 2.349 . S
O959 C938 1.265 . S
C960 C961 1.379 . S
C960 C964 1.373 . S
C960 C966 1.505 . S
C961 C960 1.379 . S
C961 C963 1.369 . S
C961 H972 0.930 . S
C962 C964 1.383 . S
C962 C965 1.382 . S
C962 H973 0.930 . S
C963 C961 1.369 . S
C963 C965 1.392 . S
C963 H974 0.930 . S
C964 C960 1.373 . S
C964 C962 1.383 . S
C964 H975 0.931 . S
C965 C962 1.382 . S
C965 C963 1.392 . S
C966 Eu937 2.828 1_655 S
C966 O950 1.249 . S
C966 O951 1.244 . S
C966 C960 1.505 . S
C967 O954 1.258 1_554 S
C967 O955 1.242 . S
H968 C940 0.930 . S
H969 C941 0.930 . S
H970 C942 0.930 . S
H971 C943 0.931 . S
H972 C961 0.930 . S
H973 C962 0.930 . S
H974 C963 0.930 . S
H975 C964 0.931 . S
C976 C977 1.391 . S
C976 C978 1.394 . S
C976 H992 0.931 1_455 S
C977 C976 1.391 . S
C977 C981 1.376 . S
C978 C976 1.394 . S
C978 C979 1.369 . S
C978 C982 1.531 . S
C979 C978 1.369 . S
C979 C980 1.410 . S
C979 C987 1.503 . S
C980 C979 1.410 . S
C980 C981 1.392 . S
C980 C983 1.511 . S
C981 C977 1.376 . S
C981 C980 1.392 . S
C981 H993 0.929 . S
C982 C978 1.531 . S
C982 H994 0.960 . S
C982 H995 0.962 1_455 S
C982 H996 0.960 . S
C983 C980 1.511 . S
C983 H997 0.961 . S
C983 H998 0.961 . S
C983 H999 0.961 . S
C984 C985 1.370 . S
C984 C986 1.363 . S
C984 H1000 0.931 . S
C985 C984 1.370 . S
C985 C989 1.408 . S
C986 C984 1.363 . S
C986 C987 1.370 . S
C986 C990 1.524 1_455 S
C987 C979 1.503 . S
C987 C986 1.370 . S
C987 C988 1.403 . S
C988 C987 1.403 . S
C988 C989 1.404 . S
C988 C991 1.539 . S
C989 C985 1.408 . S
C989 C988 1.404 . S
C989 H1001 0.930 . S
C990 C986 1.524 1_655 S
C990 H1002 0.956 . S
C990 H1003 0.961 . S
C990 H1004 0.961 . S
C991 C988 1.539 . S
C991 H1005 0.958 . S
C991 H1006 0.961 . S
C991 H1007 0.960 . S
H992 C976 0.931 1_655 S
H993 C981 0.929 . S
H994 C982 0.960 . S
H995 C982 0.962 1_655 S
H996 C982 0.960 . S
H997 C983 0.961 . S
H998 C983 0.961 . S
H999 C983 0.961 . S
H1000 C984 0.931 . S
H1001 C989 0.930 . S
H1002 C990 0.956 . S
H1003 C990 0.961 . S
H1004 C990 0.961 . S
H1005 C991 0.958 . S
H1006 C991 0.961 . S
H1007 C991 0.960 . S
C1008 C1009 1.391 . S
C1008 C1010 1.394 . S
C1008 H1024 0.931 . S
C1009 C1008 1.391 . S
C1009 C1013 1.376 . S
C1010 C1008 1.394 . S
C1010 C1011 1.369 . S
C1010 C1014 1.531 . S
C1011 C1010 1.369 . S
C1011 C1012 1.410 . S
C1011 C1019 1.503 . S
C1012 C1011 1.410 . S
C1012 C1013 1.392 . S
C1012 C1015 1.511 . S
C1013 C1009 1.376 . S
C1013 C1012 1.392 . S
C1013 H1025 0.929 . S
C1014 C1010 1.531 . S
C1014 H1026 0.960 . S
C1014 H1027 0.962 . S
C1014 H1028 0.960 . S
C1015 C1012 1.511 . S
C1015 H1029 0.961 . S
C1015 H1030 0.961 . S
C1015 H1031 0.961 . S
C1016 C1017 1.370 . S
C1016 C1018 1.363 . S
C1016 H1032 0.931 . S
C1017 C1016 1.370 . S
C1017 C1021 1.408 . S
C1018 C1016 1.363 . S
C1018 C1019 1.370 . S
C1018 C1022 1.524 . S
C1019 C1011 1.503 . S
C1019 C1018 1.370 . S
C1019 C1020 1.403 . S
C1020 C1019 1.403 . S
C1020 C1021 1.404 . S
C1020 C1023 1.539 . S
C1021 C1017 1.408 . S
C1021 C1020 1.404 . S
C1021 H1033 0.930 . S
C1022 C1018 1.524 . S
C1022 H1034 0.956 . S
C1022 H1035 0.961 . S
C1022 H1036 0.961 . S
C1023 C1020 1.539 . S
C1023 H1037 0.958 . S
C1023 H1038 0.961 . S
C1023 H1039 0.960 . S
H1024 C1008 0.931 . S
H1025 C1013 0.929 . S
H1026 C1014 0.960 . S
H1027 C1014 0.962 . S
H1028 C1014 0.960 . S
H1029 C1015 0.961 . S
H1030 C1015 0.961 . S
H1031 C1015 0.961 . S
H1032 C1016 0.931 . S
H1033 C1021 0.930 . S
H1034 C1022 0.956 . S
H1035 C1022 0.961 . S
H1036 C1022 0.961 . S
H1037 C1023 0.958 . S
H1038 C1023 0.961 . S
H1039 C1023 0.960 . S
C1040 C1041 1.391 . S
C1040 C1042 1.394 . S
C1040 H1056 0.931 . S
C1041 C1040 1.391 . S
C1041 C1045 1.376 . S
C1042 C1040 1.394 . S
C1042 C1043 1.369 . S
C1042 C1046 1.531 . S
C1043 C1042 1.369 . S
C1043 C1044 1.410 . S
C1043 C1051 1.503 . S
C1044 C1043 1.410 . S
C1044 C1045 1.392 . S
C1044 C1047 1.511 . S
C1045 C1041 1.376 . S
C1045 C1044 1.392 . S
C1045 H1057 0.929 . S
C1046 C1042 1.531 . S
C1046 H1058 0.960 . S
C1046 H1059 0.962 . S
C1046 H1060 0.960 . S
C1047 C1044 1.511 . S
C1047 H1061 0.961 . S
C1047 H1062 0.961 . S
C1047 H1063 0.961 . S
C1048 C1049 1.370 . S
C1048 C1050 1.363 . S
C1048 H1064 0.931 . S
C1049 C1048 1.370 . S
C1049 C1053 1.408 . S
C1050 C1048 1.363 . S
C1050 C1051 1.370 . S
C1050 C1054 1.524 . S
C1051 C1043 1.503 . S
C1051 C1050 1.370 . S
C1051 C1052 1.403 . S
C1052 C1051 1.403 . S
C1052 C1053 1.404 . S
C1052 C1055 1.539 . S
C1053 C1049 1.408 . S
C1053 C1052 1.404 . S
C1053 H1065 0.930 . S
C1054 C1050 1.524 . S
C1054 H1066 0.956 . S
C1054 H1067 0.961 . S
C1054 H1068 0.961 . S
C1055 C1052 1.539 . S
C1055 H1069 0.958 . S
C1055 H1070 0.961 . S
C1055 H1071 0.960 . S
H1056 C1040 0.931 . S
H1057 C1045 0.929 . S
H1058 C1046 0.960 . S
H1059 C1046 0.962 . S
H1060 C1046 0.960 . S
H1061 C1047 0.961 . S
H1062 C1047 0.961 . S
H1063 C1047 0.961 . S
H1064 C1048 0.931 . S
H1065 C1053 0.930 . S
H1066 C1054 0.956 . S
H1067 C1054 0.961 . S
H1068 C1054 0.961 . S
H1069 C1055 0.958 . S
H1070 C1055 0.961 . S
H1071 C1055 0.960 . S
C1072 C1073 1.391 . S
C1072 C1074 1.394 . S
C1072 H1088 0.931 . S
C1073 C1072 1.391 . S
C1073 C1077 1.376 . S
C1074 C1072 1.394 . S
C1074 C1075 1.369 . S
C1074 C1078 1.531 . S
C1075 C1074 1.369 . S
C1075 C1076 1.410 . S
C1075 C1083 1.503 . S
C1076 C1075 1.410 . S
C1076 C1077 1.392 . S
C1076 C1079 1.511 . S
C1077 C1073 1.376 . S
C1077 C1076 1.392 . S
C1077 H1089 0.929 . S
C1078 C1074 1.531 . S
C1078 H1090 0.960 . S
C1078 H1091 0.962 . S
C1078 H1092 0.960 . S
C1079 C1076 1.511 . S
C1079 H1093 0.961 . S
C1079 H1094 0.961 . S
C1079 H1095 0.961 . S
C1080 C1081 1.370 . S
C1080 C1082 1.363 . S
C1080 H1096 0.931 . S
C1081 C1080 1.370 . S
C1081 C1085 1.408 . S
C1082 C1080 1.363 . S
C1082 C1083 1.370 . S
C1082 C1086 1.524 . S
C1083 C1075 1.503 . S
C1083 C1082 1.370 . S
C1083 C1084 1.403 . S
C1084 C1083 1.403 . S
C1084 C1085 1.404 . S
C1084 C1087 1.539 . S
C1085 C1081 1.408 . S
C1085 C1084 1.404 . S
C1085 H1097 0.930 . S
C1086 C1082 1.524 . S
C1086 H1098 0.956 . S
C1086 H1099 0.961 . S
C1086 H1100 0.961 . S
C1087 C1084 1.539 . S
C1087 H1101 0.958 . S
C1087 H1102 0.961 . S
C1087 H1103 0.960 . S
H1088 C1072 0.931 . S
H1089 C1077 0.929 . S
H1090 C1078 0.960 . S
H1091 C1078 0.962 . S
H1092 C1078 0.960 . S
H1093 C1079 0.961 . S
H1094 C1079 0.961 . S
H1095 C1079 0.961 . S
H1096 C1080 0.931 . S
H1097 C1085 0.930 . S
H1098 C1086 0.956 . S
H1099 C1086 0.961 . S
H1100 C1086 0.961 . S
H1101 C1087 0.958 . S
H1102 C1087 0.961 . S
H1103 C1087 0.960 . S
C1104 C1105 1.391 . S
C1104 C1106 1.394 . S
C1104 H1120 0.931 . S
C1105 C1104 1.391 . S
C1105 C1109 1.376 . S
C1106 C1104 1.394 . S
C1106 C1107 1.369 . S
C1106 C1110 1.531 . S
C1107 C1106 1.369 . S
C1107 C1108 1.410 . S
C1107 C1115 1.503 . S
C1108 C1107 1.410 . S
C1108 C1109 1.392 . S
C1108 C1111 1.511 . S
C1109 C1105 1.376 . S
C1109 C1108 1.392 . S
C1109 H1121 0.943 . S
C1110 C1106 1.531 . S
C1110 H1122 0.960 . S
C1110 H1123 0.962 . S
C1110 H1124 0.960 . S
C1111 C1108 1.511 . S
C1111 H1125 0.961 . S
C1111 H1126 0.961 . S
C1111 H1127 0.961 . S
C1112 C1113 1.370 . S
C1112 C1114 1.363 . S
C1112 H1128 0.931 . S
C1113 C1112 1.370 . S
C1113 C1117 1.408 . S
C1114 C1112 1.363 . S
C1114 C1115 1.370 . S
C1114 C1118 1.524 . S
C1115 C1107 1.503 . S
C1115 C1114 1.370 . S
C1115 C1116 1.403 . S
C1116 C1115 1.403 . S
C1116 C1117 1.404 . S
C1116 C1119 1.539 . S
C1117 C1113 1.408 . S
C1117 C1116 1.404 . S
C1117 H1129 0.930 . S
C1118 C1114 1.524 . S
C1118 H1130 0.956 . S
C1118 H1131 0.961 . S
C1118 H1132 0.961 . S
C1119 C1116 1.539 . S
C1119 H1133 0.958 . S
C1119 H1134 0.961 1_455 S
C1119 H1135 0.960 1_455 S
H1120 C1104 0.931 . S
H1121 C1109 0.943 . S
H1122 C1110 0.960 . S
H1123 C1110 0.962 . S
H1124 C1110 0.960 . S
H1125 C1111 0.961 . S
H1126 C1111 0.961 . S
H1127 C1111 0.961 . S
H1128 C1112 0.931 . S
H1129 C1117 0.930 . S
H1130 C1118 0.956 . S
H1131 C1118 0.961 . S
H1132 C1118 0.961 . S
H1133 C1119 0.958 . S
H1134 C1119 0.961 1_655 S
H1135 C1119 0.960 1_655 S
C1136 C1137 1.391 . S
C1136 C1138 1.394 . S
C1136 H1152 0.931 . S
C1137 C1136 1.391 . S
C1137 C1141 1.376 . S
C1138 C1136 1.394 . S
C1138 C1139 1.369 . S
C1138 C1142 1.531 . S
C1139 C1138 1.369 . S
C1139 C1140 1.410 . S
C1139 C1147 1.503 . S
C1140 C1139 1.410 . S
C1140 C1141 1.392 . S
C1140 C1143 1.511 . S
C1141 C1137 1.376 . S
C1141 C1140 1.392 . S
C1141 H1153 0.929 . S
C1142 C1138 1.531 . S
C1142 H1154 0.960 . S
C1142 H1155 0.962 . S
C1142 H1156 0.960 . S
C1143 C1140 1.511 . S
C1143 H1157 0.961 . S
C1143 H1158 0.961 . S
C1143 H1159 0.961 . S
C1144 C1145 1.370 . S
C1144 C1146 1.363 . S
C1144 H1160 0.931 . S
C1145 C1144 1.370 . S
C1145 C1149 1.408 . S
C1146 C1144 1.363 . S
C1146 C1147 1.370 . S
C1146 C1150 1.524 . S
C1147 C1139 1.503 . S
C1147 C1146 1.370 . S
C1147 C1148 1.403 . S
C1148 C1147 1.403 . S
C1148 C1149 1.404 . S
C1148 C1151 1.539 . S
C1149 C1145 1.408 . S
C1149 C1148 1.404 . S
C1149 H1161 0.930 . S
C1150 C1146 1.524 . S
C1150 H1162 0.956 . S
C1150 H1163 0.961 . S
C1150 H1164 0.961 . S
C1151 C1148 1.539 . S
C1151 H1165 0.958 . S
C1151 H1166 0.961 . S
C1151 H1167 0.960 . S
H1152 C1136 0.931 . S
H1153 C1141 0.929 . S
H1154 C1142 0.960 . S
H1155 C1142 0.962 . S
H1156 C1142 0.960 . S
H1157 C1143 0.961 . S
H1158 C1143 0.961 . S
H1159 C1143 0.961 . S
H1160 C1144 0.931 . S
H1161 C1149 0.930 . S
H1162 C1150 0.956 . S
H1163 C1150 0.961 . S
H1164 C1150 0.961 . S
H1165 C1151 0.958 . S
H1166 C1151 0.961 . S
H1167 C1151 0.960 . S
C1168 C1169 1.391 . S
C1168 C1170 1.394 . S
C1168 H1184 0.931 . S
C1169 C1168 1.391 . S
C1169 C1173 1.376 . S
C1170 C1168 1.394 . S
C1170 C1171 1.369 . S
C1170 C1174 1.531 . S
C1171 C1170 1.369 . S
C1171 C1172 1.410 . S
C1171 C1179 1.503 . S
C1172 C1171 1.410 . S
C1172 C1173 1.392 . S
C1172 C1175 1.511 . S
C1173 C1169 1.376 . S
C1173 C1172 1.392 . S
C1173 H1185 0.929 . S
C1174 C1170 1.531 . S
C1174 H1186 0.960 . S
C1174 H1187 0.962 . S
C1174 H1188 0.960 . S
C1175 C1172 1.511 . S
C1175 H1189 0.961 . S
C1175 H1190 0.961 . S
C1175 H1191 0.961 . S
C1176 C1177 1.370 . S
C1176 C1178 1.363 . S
C1176 H1192 0.931 . S
C1177 C1176 1.370 . S
C1177 C1181 1.408 . S
C1178 C1176 1.363 . S
C1178 C1179 1.370 . S
C1178 C1182 1.524 . S
C1179 C1171 1.503 . S
C1179 C1178 1.370 . S
C1179 C1180 1.403 . S
C1180 C1179 1.403 . S
C1180 C1181 1.404 . S
C1180 C1183 1.539 . S
C1181 C1177 1.408 . S
C1181 C1180 1.404 . S
C1181 H1193 0.930 . S
C1182 C1178 1.524 . S
C1182 H1194 0.956 . S
C1182 H1195 0.961 . S
C1182 H1196 0.961 . S
C1183 C1180 1.539 . S
C1183 H1197 0.958 . S
C1183 H1198 0.961 . S
C1183 H1199 0.960 . S
H1184 C1168 0.931 . S
H1185 C1173 0.929 . S
H1186 C1174 0.960 . S
H1187 C1174 0.962 . S
H1188 C1174 0.960 . S
H1189 C1175 0.961 . S
H1190 C1175 0.961 . S
H1191 C1175 0.961 . S
H1192 C1176 0.931 . S
H1193 C1181 0.930 . S
H1194 C1182 0.956 . S
H1195 C1182 0.961 . S
H1196 C1182 0.961 . S
H1197 C1183 0.958 . S
H1198 C1183 0.961 . S
H1199 C1183 0.960 . S
C1200 C1201 1.391 . S
C1200 C1202 1.394 . S
C1200 H1216 0.931 . S
C1201 C1200 1.391 . S
C1201 C1205 1.376 . S
C1202 C1200 1.394 . S
C1202 C1203 1.369 . S
C1202 C1206 1.531 . S
C1203 C1202 1.369 . S
C1203 C1204 1.410 . S
C1203 C1211 1.503 . S
C1204 C1203 1.410 . S
C1204 C1205 1.392 . S
C1204 C1207 1.511 . S
C1205 C1201 1.376 . S
C1205 C1204 1.392 . S
C1205 H1217 0.929 . S
C1206 C1202 1.531 . S
C1206 H1218 0.960 . S
C1206 H1219 0.962 . S
C1206 H1220 0.960 . S
C1207 C1204 1.511 . S
C1207 H1221 0.961 . S
C1207 H1222 0.961 . S
C1207 H1223 0.961 . S
C1208 C1209 1.370 . S
C1208 C1210 1.363 . S
C1208 H1224 0.931 . S
C1209 C1208 1.370 . S
C1209 C1213 1.408 . S
C1210 C1208 1.363 . S
C1210 C1211 1.370 . S
C1210 C1214 1.524 . S
C1211 C1203 1.503 . S
C1211 C1210 1.370 . S
C1211 C1212 1.403 . S
C1212 C1211 1.403 . S
C1212 C1213 1.404 . S
C1212 C1215 1.539 . S
C1213 C1209 1.408 . S
C1213 C1212 1.404 . S
C1213 H1225 0.930 . S
C1214 C1210 1.524 . S
C1214 H1226 0.956 . S
C1214 H1227 0.961 . S
C1214 H1228 0.961 . S
C1215 C1212 1.539 . S
C1215 H1229 0.958 . S
C1215 H1230 0.961 . S
C1215 H1231 0.960 . S
H1216 C1200 0.931 . S
H1217 C1205 0.929 . S
H1218 C1206 0.960 . S
H1219 C1206 0.962 . S
H1220 C1206 0.960 . S
H1221 C1207 0.961 . S
H1222 C1207 0.961 . S
H1223 C1207 0.961 . S
H1224 C1208 0.931 . S
H1225 C1213 0.930 . S
H1226 C1214 0.956 . S
H1227 C1214 0.961 . S
H1228 C1214 0.961 . S
H1229 C1215 0.958 . S
H1230 C1215 0.961 . S
H1231 C1215 0.960 . S
C1232 C1233 1.391 . S
C1232 C1234 1.394 . S
C1232 H1248 0.931 . S
C1233 C1232 1.391 . S
C1233 C1237 1.376 . S
C1234 C1232 1.394 . S
C1234 C1235 1.369 . S
C1234 C1238 1.531 1_655 S
C1235 C1234 1.369 . S
C1235 C1236 1.410 . S
C1235 C1243 1.491 1_655 S
C1236 C1235 1.410 . S
C1236 C1237 1.392 . S
C1236 C1239 1.511 . S
C1237 C1233 1.376 . S
C1237 C1236 1.392 . S
C1237 H1249 0.929 . S
C1238 C1234 1.531 1_455 S
C1238 H1250 0.960 . S
C1238 H1251 0.962 . S
C1238 H1252 0.960 . S
C1239 C1236 1.511 . S
C1239 H1253 0.961 . S
C1239 H1254 0.961 . S
C1239 H1255 0.961 . S
C1240 C1241 1.370 . S
C1240 C1242 1.363 . S
C1240 H1256 0.931 . S
C1241 C1240 1.370 . S
C1241 C1245 1.408 . S
C1242 C1240 1.363 . S
C1242 C1243 1.384 . S
C1242 C1246 1.524 . S
C1243 C1235 1.491 1_455 S
C1243 C1242 1.384 . S
C1243 C1244 1.402 1_455 S
C1244 C1243 1.402 1_655 S
C1244 C1245 1.404 1_655 S
C1244 C1247 1.539 . S
C1245 C1241 1.408 . S
C1245 C1244 1.404 1_455 S
C1245 H1257 0.930 . S
C1246 C1242 1.524 . S
C1246 H1258 0.956 . S
C1246 H1259 0.961 . S
C1246 H1260 0.961 . S
C1247 C1244 1.539 . S
C1247 H1261 0.958 1_545 S
C1247 H1262 0.961 1_545 S
C1247 H1263 0.960 . S
H1248 C1232 0.931 . S
H1249 C1237 0.929 . S
H1250 C1238 0.960 . S
H1251 C1238 0.962 . S
H1252 C1238 0.960 . S
H1253 C1239 0.961 . S
H1254 C1239 0.961 . S
H1255 C1239 0.961 . S
H1256 C1240 0.931 . S
H1257 C1245 0.930 . S
H1258 C1246 0.956 . S
H1259 C1246 0.961 . S
H1260 C1246 0.961 . S
H1261 C1247 0.958 1_565 S
H1262 C1247 0.961 1_565 S
H1263 C1247 0.960 . S
C1264 C1265 1.391 . S
C1264 C1266 1.394 . S
C1264 H1280 0.931 . S
C1265 C1264 1.391 . S
C1265 C1269 1.376 . S
C1266 C1264 1.394 . S
C1266 C1267 1.369 . S
C1266 C1270 1.531 . S
C1267 C1266 1.369 . S
C1267 C1268 1.410 . S
C1267 C1275 1.503 . S
C1268 C1267 1.410 . S
C1268 C1269 1.392 . S
C1268 C1271 1.511 . S
C1269 C1265 1.376 . S
C1269 C1268 1.392 . S
C1269 H1281 0.929 . S
C1270 C1266 1.531 . S
C1270 H1282 0.960 . S
C1270 H1283 0.962 . S
C1270 H1284 0.960 . S
C1271 C1268 1.511 . S
C1271 H1285 0.961 . S
C1271 H1286 0.961 . S
C1271 H1287 0.961 . S
C1272 C1273 1.370 . S
C1272 C1274 1.363 . S
C1272 H1288 0.931 . S
C1273 C1272 1.370 . S
C1273 C1277 1.408 . S
C1274 C1272 1.363 . S
C1274 C1275 1.370 . S
C1274 C1278 1.524 . S
C1275 C1267 1.503 . S
C1275 C1274 1.370 . S
C1275 C1276 1.403 . S
C1276 C1275 1.403 . S
C1276 C1277 1.404 . S
C1276 C1279 1.539 . S
C1277 C1273 1.408 . S
C1277 C1276 1.404 . S
C1277 H1289 0.930 . S
C1278 C1274 1.524 . S
C1278 H1290 0.956 . S
C1278 H1291 0.961 . S
C1278 H1292 0.961 . S
C1279 C1276 1.539 . S
C1279 H1293 0.958 . S
C1279 H1294 0.961 . S
C1279 H1295 0.960 . S
H1280 C1264 0.931 . S
H1281 C1269 0.929 . S
H1282 C1270 0.960 . S
H1283 C1270 0.962 . S
H1284 C1270 0.960 . S
H1285 C1271 0.961 . S
H1286 C1271 0.961 . S
H1287 C1271 0.961 . S
H1288 C1272 0.931 . S
H1289 C1277 0.930 . S
H1290 C1278 0.956 . S
H1291 C1278 0.961 . S
H1292 C1278 0.961 . S
H1293 C1279 0.958 . S
H1294 C1279 0.961 . S
H1295 C1279 0.960 . S
C1296 C1297 1.391 . S
C1296 C1298 1.394 . S
C1296 H1312 0.931 . S
C1297 C1296 1.391 . S
C1297 C1301 1.376 . S
C1298 C1296 1.394 . S
C1298 C1299 1.369 . S
C1298 C1302 1.531 . S
C1299 C1298 1.369 . S
C1299 C1300 1.410 . S
C1299 C1307 1.503 . S
C1300 C1299 1.410 . S
C1300 C1301 1.392 . S
C1300 C1303 1.511 . S
C1301 C1297 1.376 . S
C1301 C1300 1.392 . S
C1301 H1313 0.929 . S
C1302 C1298 1.531 . S
C1302 H1314 0.960 . S
C1302 H1315 0.962 . S
C1302 H1316 0.960 . S
C1303 C1300 1.511 . S
C1303 H1317 0.961 . S
C1303 H1318 0.961 . S
C1303 H1319 0.961 . S
C1304 C1305 1.370 . S
C1304 C1306 1.363 . S
C1304 H1320 0.931 . S
C1305 C1304 1.370 . S
C1305 C1309 1.408 . S
C1306 C1304 1.363 . S
C1306 C1307 1.370 . S
C1306 C1310 1.524 . S
C1307 C1299 1.503 . S
C1307 C1306 1.370 . S
C1307 C1308 1.403 . S
C1308 C1307 1.403 . S
C1308 C1309 1.404 . S
C1308 C1311 1.539 . S
C1309 C1305 1.408 . S
C1309 C1308 1.404 . S
C1309 H1321 0.930 . S
C1310 C1306 1.524 . S
C1310 H1322 0.956 . S
C1310 H1323 0.961 . S
C1310 H1324 0.961 1_545 S
C1311 C1308 1.539 . S
C1311 H1325 0.958 . S
C1311 H1326 0.961 . S
C1311 H1327 0.960 . S
H1312 C1296 0.931 . S
H1313 C1301 0.929 . S
H1314 C1302 0.960 . S
H1315 C1302 0.962 . S
H1316 C1302 0.960 . S
H1317 C1303 0.961 . S
H1318 C1303 0.961 . S
H1319 C1303 0.961 . S
H1320 C1304 0.931 . S
H1321 C1309 0.930 . S
H1322 C1310 0.956 . S
H1323 C1310 0.961 . S
H1324 C1310 0.961 1_565 S
H1325 C1311 0.958 . S
H1326 C1311 0.961 . S
H1327 C1311 0.960 . S
C1328 C1329 1.391 . S
C1328 C1330 1.394 . S
C1328 H1344 0.931 . S
C1329 C1328 1.391 . S
C1329 C1333 1.376 . S
C1330 C1328 1.394 . S
C1330 C1331 1.369 . S
C1330 C1334 1.531 . S
C1331 C1330 1.369 . S
C1331 C1332 1.410 . S
C1331 C1339 1.503 . S
C1332 C1331 1.410 . S
C1332 C1333 1.392 . S
C1332 C1335 1.511 . S
C1333 C1329 1.376 . S
C1333 C1332 1.392 . S
C1333 H1345 0.929 . S
C1334 C1330 1.531 . S
C1334 H1346 0.960 . S
C1334 H1347 0.962 . S
C1334 H1348 0.960 . S
C1335 C1332 1.511 . S
C1335 H1349 0.961 . S
C1335 H1350 0.961 . S
C1335 H1351 0.961 . S
C1336 C1337 1.370 . S
C1336 C1338 1.363 . S
C1336 H1352 0.931 . S
C1337 C1336 1.370 . S
C1337 C1341 1.408 . S
C1338 C1336 1.363 . S
C1338 C1339 1.370 . S
C1338 C1342 1.524 . S
C1339 C1331 1.503 . S
C1339 C1338 1.370 . S
C1339 C1340 1.403 . S
C1340 C1339 1.403 . S
C1340 C1341 1.404 . S
C1340 C1343 1.539 . S
C1341 C1337 1.408 . S
C1341 C1340 1.404 . S
C1341 H1353 0.930 . S
C1342 C1338 1.524 . S
C1342 H1354 0.956 . S
C1342 H1355 0.961 . S
C1342 H1356 0.961 . S
C1343 C1340 1.539 . S
C1343 H1357 0.958 . S
C1343 H1358 0.961 . S
C1343 H1359 0.960 . S
H1344 C1328 0.931 . S
H1345 C1333 0.929 . S
H1346 C1334 0.960 . S
H1347 C1334 0.962 . S
H1348 C1334 0.960 . S
H1349 C1335 0.961 . S
H1350 C1335 0.961 . S
H1351 C1335 0.961 . S
H1352 C1336 0.931 . S
H1353 C1341 0.930 . S
H1354 C1342 0.956 . S
H1355 C1342 0.961 . S
H1356 C1342 0.961 . S
H1357 C1343 0.958 . S
H1358 C1343 0.961 . S
H1359 C1343 0.960 . S
C1360 C1361 1.391 . S
C1360 C1362 1.394 . S
C1360 H1376 0.931 . S
C1361 C1360 1.391 . S
C1361 C1365 1.376 . S
C1362 C1360 1.394 . S
C1362 C1363 1.369 . S
C1362 C1366 1.531 . S
C1363 C1362 1.369 . S
C1363 C1364 1.410 . S
C1363 C1371 1.521 . S
C1364 C1363 1.410 . S
C1364 C1365 1.392 . S
C1364 C1367 1.511 1_655 S
C1365 C1361 1.376 . S
C1365 C1364 1.392 . S
C1365 H1377 0.929 . S
C1366 C1362 1.531 . S
C1366 H1378 0.960 . S
C1366 H1379 0.962 . S
C1366 H1380 0.960 . S
C1367 C1364 1.511 1_455 S
C1367 H1381 0.961 . S
C1367 H1382 0.961 . S
C1367 H1383 0.961 . S
C1368 C1369 1.370 . S
C1368 C1370 1.363 . S
C1368 H1384 0.931 . S
C1369 C1368 1.370 . S
C1369 C1373 1.408 . S
C1370 C1368 1.363 . S
C1370 C1371 1.347 1_455 S
C1370 C1374 1.524 . S
C1371 C1363 1.521 . S
C1371 C1370 1.347 1_655 S
C1371 C1372 1.410 . S
C1372 C1371 1.410 . S
C1372 C1373 1.404 1_655 S
C1372 C1375 1.539 . S
C1373 C1369 1.408 . S
C1373 C1372 1.404 1_455 S
C1373 H1385 0.930 1_455 S
C1374 C1370 1.524 . S
C1374 H1386 0.956 . S
C1374 H1387 0.961 . S
C1374 H1388 0.961 . S
C1375 C1372 1.539 . S
C1375 H1389 0.958 . S
C1375 H1390 0.961 1_545 S
C1375 H1391 0.960 . S
H1376 C1360 0.931 . S
H1377 C1365 0.929 . S
H1378 C1366 0.960 . S
H1379 C1366 0.962 . S
H1380 C1366 0.960 . S
H1381 C1367 0.961 . S
H1382 C1367 0.961 . S
H1383 C1367 0.961 . S
H1384 C1368 0.931 . S
H1385 C1373 0.930 1_655 S
H1386 C1374 0.956 . S
H1387 C1374 0.961 . S
H1388 C1374 0.961 . S
H1389 C1375 0.958 . S
H1390 C1375 0.961 1_565 S
H1391 C1375 0.960 . S
C1392 C1393 1.391 . S
C1392 C1394 1.394 . S
C1392 H1408 0.931 . S
C1393 C1392 1.391 . S
C1393 C1397 1.376 . S
C1394 C1392 1.394 . S
C1394 C1395 1.369 . S
C1394 C1398 1.531 . S
C1395 C1394 1.369 . S
C1395 C1396 1.410 . S
C1395 C1403 1.503 . S
C1396 C1395 1.410 . S
C1396 C1397 1.392 . S
C1396 C1399 1.511 . S
C1397 C1393 1.376 . S
C1397 C1396 1.392 . S
C1397 H1409 0.929 . S
C1398 C1394 1.531 . S
C1398 H1410 0.960 . S
C1398 H1411 0.962 . S
C1398 H1412 0.960 . S
C1399 C1396 1.511 . S
C1399 H1413 0.961 . S
C1399 H1414 0.961 . S
C1399 H1415 0.961 . S
C1400 C1401 1.370 . S
C1400 C1402 1.363 . S
C1400 H1416 0.931 . S
C1401 C1400 1.370 . S
C1401 C1405 1.408 . S
C1402 C1400 1.363 . S
C1402 C1403 1.370 . S
C1402 C1406 1.524 . S
C1403 C1395 1.503 . S
C1403 C1402 1.370 . S
C1403 C1404 1.403 . S
C1404 C1403 1.403 . S
C1404 C1405 1.404 . S
C1404 C1407 1.539 . S
C1405 C1401 1.408 . S
C1405 C1404 1.404 . S
C1405 H1417 0.930 . S
C1406 C1402 1.524 . S
C1406 H1418 0.956 . S
C1406 H1419 0.961 . S
C1406 H1420 0.961 . S
C1407 C1404 1.539 . S
C1407 H1421 0.958 . S
C1407 H1422 0.961 . S
C1407 H1423 0.960 . S
H1408 C1392 0.931 . S
H1409 C1397 0.929 . S
H1410 C1398 0.960 . S
H1411 C1398 0.962 . S
H1412 C1398 0.960 . S
H1413 C1399 0.961 . S
H1414 C1399 0.961 . S
H1415 C1399 0.961 . S
H1416 C1400 0.931 . S
H1417 C1405 0.930 . S
H1418 C1406 0.956 . S
H1419 C1406 0.961 . S
H1420 C1406 0.961 . S
H1421 C1407 0.958 . S
H1422 C1407 0.961 . S
H1423 C1407 0.960 . S
C1424 C1425 1.391 . S
C1424 C1426 1.394 . S
C1424 H1440 0.931 . S
C1425 C1424 1.391 . S
C1425 C1429 1.376 . S
C1426 C1424 1.394 . S
C1426 C1427 1.369 . S
C1426 C1430 1.531 . S
C1427 C1426 1.369 . S
C1427 C1428 1.410 . S
C1427 C1435 1.503 . S
C1428 C1427 1.410 . S
C1428 C1429 1.392 . S
C1428 C1431 1.511 . S
C1429 C1425 1.376 . S
C1429 C1428 1.392 . S
C1429 H1441 0.929 . S
C1430 C1426 1.531 . S
C1430 H1442 0.960 . S
C1430 H1443 0.962 . S
C1430 H1444 0.960 . S
C1431 C1428 1.511 . S
C1431 H1445 0.961 . S
C1431 H1446 0.961 . S
C1431 H1447 0.961 . S
C1432 C1433 1.370 . S
C1432 C1434 1.363 . S
C1432 H1448 0.931 . S
C1433 C1432 1.370 . S
C1433 C1437 1.408 . S
C1434 C1432 1.363 . S
C1434 C1435 1.370 . S
C1434 C1438 1.524 . S
C1435 C1427 1.503 . S
C1435 C1434 1.370 . S
C1435 C1436 1.403 . S
C1436 C1435 1.403 . S
C1436 C1437 1.404 . S
C1436 C1439 1.539 . S
C1437 C1433 1.408 . S
C1437 C1436 1.404 . S
C1437 H1449 0.930 . S
C1438 C1434 1.524 . S
C1438 H1450 0.956 . S
C1438 H1451 0.961 . S
C1438 H1452 0.961 . S
C1439 C1436 1.539 . S
C1439 H1453 0.958 . S
C1439 H1454 0.961 . S
C1439 H1455 0.960 . S
H1440 C1424 0.931 . S
H1441 C1429 0.929 . S
H1442 C1430 0.960 . S
H1443 C1430 0.962 . S
H1444 C1430 0.960 . S
H1445 C1431 0.961 . S
H1446 C1431 0.961 . S
H1447 C1431 0.961 . S
H1448 C1432 0.931 . S
H1449 C1437 0.930 . S
H1450 C1438 0.956 . S
H1451 C1438 0.961 . S
H1452 C1438 0.961 . S
H1453 C1439 0.958 . S
H1454 C1439 0.961 . S
H1455 C1439 0.960 . S
C1456 C1457 1.391 . S
C1456 C1458 1.394 . S
C1456 H1472 0.931 . S
C1457 C1456 1.391 . S
C1457 C1461 1.376 . S
C1458 C1456 1.394 . S
C1458 C1459 1.369 . S
C1458 C1462 1.531 . S
C1459 C1458 1.369 . S
C1459 C1460 1.410 . S
C1459 C1467 1.503 . S
C1460 C1459 1.410 . S
C1460 C1461 1.392 . S
C1460 C1463 1.511 . S
C1461 C1457 1.376 . S
C1461 C1460 1.392 . S
C1461 H1473 0.929 . S
C1462 C1458 1.531 . S
C1462 H1474 0.960 . S
C1462 H1475 0.962 . S
C1462 H1476 0.960 . S
C1463 C1460 1.511 . S
C1463 H1477 0.961 . S
C1463 H1478 0.961 . S
C1463 H1479 0.961 . S
C1464 C1465 1.370 . S
C1464 C1466 1.363 . S
C1464 H1480 0.931 . S
C1465 C1464 1.370 . S
C1465 C1469 1.408 . S
C1466 C1464 1.363 . S
C1466 C1467 1.370 . S
C1466 C1470 1.524 . S
C1467 C1459 1.503 . S
C1467 C1466 1.370 . S
C1467 C1468 1.403 . S
C1468 C1467 1.403 . S
C1468 C1469 1.404 . S
C1468 C1471 1.539 . S
C1469 C1465 1.408 . S
C1469 C1468 1.404 . S
C1469 H1481 0.930 . S
C1470 C1466 1.524 . S
C1470 H1482 0.956 . S
C1470 H1483 0.961 . S
C1470 H1484 0.961 . S
C1471 C1468 1.539 . S
C1471 H1485 0.958 . S
C1471 H1486 0.961 . S
C1471 H1487 0.960 . S
H1472 C1456 0.931 . S
H1473 C1461 0.929 . S
H1474 C1462 0.960 . S
H1475 C1462 0.962 . S
H1476 C1462 0.960 . S
H1477 C1463 0.961 . S
H1478 C1463 0.961 . S
H1479 C1463 0.961 . S
H1480 C1464 0.931 . S
H1481 C1469 0.930 . S
H1482 C1470 0.956 . S
H1483 C1470 0.961 . S
H1484 C1470 0.961 . S
H1485 C1471 0.958 . S
H1486 C1471 0.961 . S
H1487 C1471 0.960 . S
C1488 C1489 1.391 . S
C1488 C1490 1.394 . S
C1488 H1504 0.931 . S
C1489 C1488 1.391 . S
C1489 C1493 1.376 . S
C1490 C1488 1.394 . S
C1490 C1491 1.369 . S
C1490 C1494 1.531 . S
C1491 C1490 1.369 . S
C1491 C1492 1.410 . S
C1491 C1499 1.503 . S
C1492 C1491 1.410 . S
C1492 C1493 1.392 . S
C1492 C1495 1.511 1_565 S
C1493 C1489 1.376 . S
C1493 C1492 1.392 . S
C1493 H1505 0.932 . S
C1494 C1490 1.531 . S
C1494 H1506 0.960 . S
C1494 H1507 0.962 . S
C1494 H1508 0.960 . S
C1495 C1492 1.511 1_545 S
C1495 H1509 0.961 . S
C1495 H1510 0.961 . S
C1495 H1511 0.961 . S
C1496 C1497 1.382 . S
C1496 C1498 1.339 1_545 S
C1496 H1512 0.930 1_554 S
C1497 C1496 1.382 . S
C1497 C1501 1.408 . S
C1498 C1496 1.339 1_565 S
C1498 C1499 1.370 . S
C1498 C1502 1.524 1_554 S
C1499 C1491 1.503 . S
C1499 C1498 1.370 . S
C1499 C1500 1.409 . S
C1500 C1499 1.409 . S
C1500 C1501 1.386 1_565 S
C1500 C1503 1.549 . S
C1501 C1497 1.408 . S
C1501 C1500 1.386 1_545 S
C1501 H1513 0.930 . S
C1502 C1498 1.524 1_556 S
C1502 H1514 0.956 . S
C1502 H1515 0.961 . S
C1502 H1516 0.961 . S
C1503 C1500 1.549 . S
C1503 H1517 0.958 . S
C1503 H1518 0.961 1_565 S
C1503 H1519 0.960 1_565 S
H1504 C1488 0.931 . S
H1505 C1493 0.932 . S
H1506 C1494 0.960 . S
H1507 C1494 0.962 . S
H1508 C1494 0.960 . S
H1509 C1495 0.961 . S
H1510 C1495 0.961 . S
H1511 C1495 0.961 . S
H1512 C1496 0.930 1_556 S
H1513 C1501 0.930 . S
H1514 C1502 0.956 . S
H1515 C1502 0.961 . S
H1516 C1502 0.961 . S
H1517 C1503 0.958 . S
H1518 C1503 0.961 1_545 S
H1519 C1503 0.960 1_545 S
C1520 C1521 1.391 1_556 S
C1520 C1522 1.394 . S
C1520 H1536 0.931 . S
C1521 C1520 1.391 1_554 S
C1521 C1525 1.376 . S
C1522 C1520 1.394 . S
C1522 C1523 1.344 1_556 S
C1522 C1526 1.531 . S
C1523 C1522 1.344 1_554 S
C1523 C1524 1.427 . S
C1523 C1531 1.516 . S
C1524 C1523 1.427 . S
C1524 C1525 1.392 . S
C1524 C1527 1.511 . S
C1525 C1521 1.376 . S
C1525 C1524 1.392 . S
C1525 H1537 0.929 . S
C1526 C1522 1.531 . S
C1526 H1538 0.960 . S
C1526 H1539 0.962 . S
C1526 H1540 0.960 . S
C1527 C1524 1.511 . S
C1527 H1541 0.961 . S
C1527 H1542 0.961 . S
C1527 H1543 0.961 . S
C1528 C1529 1.370 . S
C1528 C1530 1.363 . S
C1528 H1544 0.931 . S
C1529 C1528 1.370 . S
C1529 C1533 1.408 1_554 S
C1530 C1528 1.363 . S
C1530 C1531 1.370 . S
C1530 C1534 1.524 . S
C1531 C1523 1.516 . S
C1531 C1530 1.370 . S
C1531 C1532 1.403 1_554 S
C1532 C1531 1.403 1_556 S
C1532 C1533 1.404 . S
C1532 C1535 1.539 . S
C1533 C1529 1.408 1_556 S
C1533 C1532 1.404 . S
C1533 H1545 0.930 . S
C1534 C1530 1.524 . S
C1534 H1546 0.956 . S
C1534 H1547 0.961 . S
C1534 H1548 0.961 . S
C1535 C1532 1.539 . S
C1535 H1549 0.958 . S
C1535 H1550 0.961 . S
C1535 H1551 0.960 . S
H1536 C1520 0.931 . S
H1537 C1525 0.929 . S
H1538 C1526 0.960 . S
H1539 C1526 0.962 . S
H1540 C1526 0.960 . S
H1541 C1527 0.961 . S
H1542 C1527 0.961 . S
H1543 C1527 0.961 . S
H1544 C1528 0.931 . S
H1545 C1533 0.930 . S
H1546 C1534 0.956 . S
H1547 C1534 0.961 . S
H1548 C1534 0.961 . S
H1549 C1535 0.958 . S
H1550 C1535 0.961 . S
H1551 C1535 0.960 . S
C1552 C1553 1.391 . S
C1552 C1554 1.394 . S
C1552 H1568 0.931 . S
C1553 C1552 1.391 . S
C1553 C1557 1.376 . S
C1554 C1552 1.394 . S
C1554 C1555 1.369 . S
C1554 C1558 1.531 . S
C1555 C1554 1.369 . S
C1555 C1556 1.410 . S
C1555 C1563 1.503 . S
C1556 C1555 1.410 . S
C1556 C1557 1.392 . S
C1556 C1559 1.511 . S
C1557 C1553 1.376 . S
C1557 C1556 1.392 . S
C1557 H1569 0.929 . S
C1558 C1554 1.531 . S
C1558 H1570 0.960 . S
C1558 H1571 0.962 . S
C1558 H1572 0.960 . S
C1559 C1556 1.511 . S
C1559 H1573 0.961 . S
C1559 H1574 0.961 . S
C1559 H1575 0.961 . S
C1560 C1561 1.370 . S
C1560 C1562 1.363 . S
C1560 H1576 0.931 . S
C1561 C1560 1.370 . S
C1561 C1565 1.408 . S
C1562 C1560 1.363 . S
C1562 C1563 1.370 . S
C1562 C1566 1.524 . S
C1563 C1555 1.503 . S
C1563 C1562 1.370 . S
C1563 C1564 1.403 . S
C1564 C1563 1.403 . S
C1564 C1565 1.404 . S
C1564 C1567 1.539 . S
C1565 C1561 1.408 . S
C1565 C1564 1.404 . S
C1565 H1577 0.930 . S
C1566 C1562 1.524 . S
C1566 H1578 0.956 . S
C1566 H1579 0.961 . S
C1566 H1580 0.961 . S
C1567 C1564 1.539 . S
C1567 H1581 0.958 . S
C1567 H1582 0.961 . S
C1567 H1583 0.960 . S
H1568 C1552 0.931 . S
H1569 C1557 0.929 . S
H1570 C1558 0.960 . S
H1571 C1558 0.962 . S
H1572 C1558 0.960 . S
H1573 C1559 0.961 . S
H1574 C1559 0.961 . S
H1575 C1559 0.961 . S
H1576 C1560 0.931 . S
H1577 C1565 0.930 . S
H1578 C1566 0.956 . S
H1579 C1566 0.961 . S
H1580 C1566 0.961 . S
H1581 C1567 0.958 . S
H1582 C1567 0.961 . S
H1583 C1567 0.960 . S
C1584 C1585 1.391 . S
C1584 C1586 1.394 . S
C1584 H1600 0.931 . S
C1585 C1584 1.391 . S
C1585 C1589 1.376 . S
C1586 C1584 1.394 . S
C1586 C1587 1.369 . S
C1586 C1590 1.531 . S
C1587 C1586 1.369 . S
C1587 C1588 1.410 . S
C1587 C1595 1.503 . S
C1588 C1587 1.410 . S
C1588 C1589 1.392 . S
C1588 C1591 1.511 . S
C1589 C1585 1.376 . S
C1589 C1588 1.392 . S
C1589 H1601 0.929 . S
C1590 C1586 1.531 . S
C1590 H1602 0.960 . S
C1590 H1603 0.962 . S
C1590 H1604 0.960 . S
C1591 C1588 1.511 . S
C1591 H1605 0.961 . S
C1591 H1606 0.961 . S
C1591 H1607 0.961 . S
C1592 C1593 1.370 . S
C1592 C1594 1.363 . S
C1592 H1608 0.931 . S
C1593 C1592 1.370 . S
C1593 C1597 1.408 . S
C1594 C1592 1.363 . S
C1594 C1595 1.370 . S
C1594 C1598 1.524 . S
C1595 C1587 1.503 . S
C1595 C1594 1.370 . S
C1595 C1596 1.403 . S
C1596 C1595 1.403 . S
C1596 C1597 1.404 . S
C1596 C1599 1.539 . S
C1597 C1593 1.408 . S
C1597 C1596 1.404 . S
C1597 H1609 0.930 . S
C1598 C1594 1.524 . S
C1598 H1610 0.956 . S
C1598 H1611 0.961 . S
C1598 H1612 0.961 . S
C1599 C1596 1.539 . S
C1599 H1613 0.958 . S
C1599 H1614 0.961 . S
C1599 H1615 0.960 . S
H1600 C1584 0.931 . S
H1601 C1589 0.929 . S
H1602 C1590 0.960 . S
H1603 C1590 0.962 . S
H1604 C1590 0.960 . S
H1605 C1591 0.961 . S
H1606 C1591 0.961 . S
H1607 C1591 0.961 . S
H1608 C1592 0.931 . S
H1609 C1597 0.930 . S
H1610 C1598 0.956 . S
H1611 C1598 0.961 . S
H1612 C1598 0.961 . S
H1613 C1599 0.958 . S
H1614 C1599 0.961 . S
H1615 C1599 0.960 . S
C1616 C1617 1.391 . S
C1616 C1618 1.394 . S
C1616 H1632 0.931 . S
C1617 C1616 1.391 . S
C1617 C1621 1.376 . S
C1618 C1616 1.394 . S
C1618 C1619 1.369 . S
C1618 C1622 1.531 . S
C1619 C1618 1.369 . S
C1619 C1620 1.410 . S
C1619 C1627 1.503 . S
C1620 C1619 1.410 . S
C1620 C1621 1.392 . S
C1620 C1623 1.511 . S
C1621 C1617 1.376 . S
C1621 C1620 1.392 . S
C1621 H1633 0.929 . S
C1622 C1618 1.531 . S
C1622 H1634 0.960 . S
C1622 H1635 0.962 . S
C1622 H1636 0.960 . S
C1623 C1620 1.511 . S
C1623 H1637 0.961 . S
C1623 H1638 0.961 . S
C1623 H1639 0.961 . S
C1624 C1625 1.370 . S
C1624 C1626 1.363 . S
C1624 H1640 0.931 . S
C1625 C1624 1.370 . S
C1625 C1629 1.408 . S
C1626 C1624 1.363 . S
C1626 C1627 1.370 . S
C1626 C1630 1.524 . S
C1627 C1619 1.503 . S
C1627 C1626 1.370 . S
C1627 C1628 1.403 . S
C1628 C1627 1.403 . S
C1628 C1629 1.404 . S
C1628 C1631 1.539 . S
C1629 C1625 1.408 . S
C1629 C1628 1.404 . S
C1629 H1641 0.930 . S
C1630 C1626 1.524 . S
C1630 H1642 0.956 . S
C1630 H1643 0.961 . S
C1630 H1644 0.961 . S
C1631 C1628 1.539 . S
C1631 H1645 0.958 . S
C1631 H1646 0.961 . S
C1631 H1647 0.960 . S
H1632 C1616 0.931 . S
H1633 C1621 0.929 . S
H1634 C1622 0.960 . S
H1635 C1622 0.962 . S
H1636 C1622 0.960 . S
H1637 C1623 0.961 . S
H1638 C1623 0.961 . S
H1639 C1623 0.961 . S
H1640 C1624 0.931 . S
H1641 C1629 0.930 . S
H1642 C1630 0.956 . S
H1643 C1630 0.961 . S
H1644 C1630 0.961 . S
H1645 C1631 0.958 . S
H1646 C1631 0.961 . S
H1647 C1631 0.960 . S
C1648 C1649 1.391 . S
C1648 C1650 1.394 . S
C1648 H1664 0.931 . S
C1649 C1648 1.391 . S
C1649 C1653 1.376 . S
C1650 C1648 1.394 . S
C1650 C1651 1.369 . S
C1650 C1654 1.531 . S
C1651 C1650 1.369 . S
C1651 C1652 1.410 . S
C1651 C1659 1.503 . S
C1652 C1651 1.410 . S
C1652 C1653 1.392 . S
C1652 C1655 1.511 . S
C1653 C1649 1.376 . S
C1653 C1652 1.392 . S
C1653 H1665 0.929 . S
C1654 C1650 1.531 . S
C1654 H1666 0.960 . S
C1654 H1667 0.962 . S
C1654 H1668 0.960 . S
C1655 C1652 1.511 . S
C1655 H1669 0.961 . S
C1655 H1670 0.961 . S
C1655 H1671 0.961 . S
C1656 C1657 1.370 . S
C1656 C1658 1.363 . S
C1656 H1672 0.931 . S
C1657 C1656 1.370 . S
C1657 C1661 1.408 . S
C1658 C1656 1.363 . S
C1658 C1659 1.370 . S
C1658 C1662 1.524 . S
C1659 C1651 1.503 . S
C1659 C1658 1.370 . S
C1659 C1660 1.403 . S
C1660 C1659 1.403 . S
C1660 C1661 1.404 . S
C1660 C1663 1.539 . S
C1661 C1657 1.408 . S
C1661 C1660 1.404 . S
C1661 H1673 0.930 . S
C1662 C1658 1.524 . S
C1662 H1674 0.956 . S
C1662 H1675 0.961 . S
C1662 H1676 0.961 . S
C1663 C1660 1.539 . S
C1663 H1677 0.958 . S
C1663 H1678 0.961 . S
C1663 H1679 0.960 . S
H1664 C1648 0.931 . S
H1665 C1653 0.929 . S
H1666 C1654 0.960 . S
H1667 C1654 0.962 . S
H1668 C1654 0.960 . S
H1669 C1655 0.961 . S
H1670 C1655 0.961 . S
H1671 C1655 0.961 . S
H1672 C1656 0.931 . S
H1673 C1661 0.930 . S
H1674 C1662 0.956 . S
H1675 C1662 0.961 . S
H1676 C1662 0.961 . S
H1677 C1663 0.958 . S
H1678 C1663 0.961 . S
H1679 C1663 0.960 . S
C1680 C1681 1.391 . S
C1680 C1682 1.394 . S
C1680 H1696 0.931 . S
C1681 C1680 1.391 . S
C1681 C1685 1.376 . S
C1682 C1680 1.394 . S
C1682 C1683 1.369 . S
C1682 C1686 1.531 . S
C1683 C1682 1.369 . S
C1683 C1684 1.410 . S
C1683 C1691 1.503 . S
C1684 C1683 1.410 . S
C1684 C1685 1.392 . S
C1684 C1687 1.511 . S
C1685 C1681 1.376 . S
C1685 C1684 1.392 . S
C1685 H1697 0.929 . S
C1686 C1682 1.531 . S
C1686 H1698 0.960 . S
C1686 H1699 0.962 . S
C1686 H1700 0.960 . S
C1687 C1684 1.511 . S
C1687 H1701 0.961 . S
C1687 H1702 0.961 . S
C1687 H1703 0.961 . S
C1688 C1689 1.370 . S
C1688 C1690 1.363 . S
C1688 H1704 0.931 . S
C1689 C1688 1.370 . S
C1689 C1693 1.408 . S
C1690 C1688 1.363 . S
C1690 C1691 1.370 . S
C1690 C1694 1.524 . S
C1691 C1683 1.503 . S
C1691 C1690 1.370 . S
C1691 C1692 1.403 . S
C1692 C1691 1.403 . S
C1692 C1693 1.404 . S
C1692 C1695 1.539 . S
C1693 C1689 1.408 . S
C1693 C1692 1.404 . S
C1693 H1705 0.930 . S
C1694 C1690 1.524 . S
C1694 H1706 0.956 . S
C1694 H1707 0.961 . S
C1694 H1708 0.961 . S
C1695 C1692 1.539 . S
C1695 H1709 0.958 . S
C1695 H1710 0.961 . S
C1695 H1711 0.960 . S
H1696 C1680 0.931 . S
H1697 C1685 0.929 . S
H1698 C1686 0.960 . S
H1699 C1686 0.962 . S
H1700 C1686 0.960 . S
H1701 C1687 0.961 . S
H1702 C1687 0.961 . S
H1703 C1687 0.961 . S
H1704 C1688 0.931 . S
H1705 C1693 0.930 . S
H1706 C1694 0.956 . S
H1707 C1694 0.961 . S
H1708 C1694 0.961 . S
H1709 C1695 0.958 . S
H1710 C1695 0.961 . S
H1711 C1695 0.960 . S
C1712 C1713 1.391 . S
C1712 C1714 1.394 . S
C1712 H1728 0.931 . S
C1713 C1712 1.391 . S
C1713 C1717 1.376 . S
C1714 C1712 1.394 . S
C1714 C1715 1.369 . S
C1714 C1718 1.531 . S
C1715 C1714 1.369 . S
C1715 C1716 1.410 . S
C1715 C1723 1.503 . S
C1716 C1715 1.410 . S
C1716 C1717 1.392 . S
C1716 C1719 1.511 . S
C1717 C1713 1.376 . S
C1717 C1716 1.392 . S
C1717 H1729 0.929 . S
C1718 C1714 1.531 . S
C1718 H1730 0.960 . S
C1718 H1731 0.962 . S
C1718 H1732 0.960 . S
C1719 C1716 1.511 . S
C1719 H1733 0.961 . S
C1719 H1734 0.961 . S
C1719 H1735 0.961 . S
C1720 C1721 1.370 . S
C1720 C1722 1.363 . S
C1720 H1736 0.931 . S
C1721 C1720 1.370 . S
C1721 C1725 1.408 . S
C1722 C1720 1.363 . S
C1722 C1723 1.370 . S
C1722 C1726 1.524 . S
C1723 C1715 1.503 . S
C1723 C1722 1.370 . S
C1723 C1724 1.403 . S
C1724 C1723 1.403 . S
C1724 C1725 1.404 . S
C1724 C1727 1.539 . S
C1725 C1721 1.408 . S
C1725 C1724 1.404 . S
C1725 H1737 0.930 . S
C1726 C1722 1.524 . S
C1726 H1738 0.956 . S
C1726 H1739 0.961 . S
C1726 H1740 0.961 . S
C1727 C1724 1.539 . S
C1727 H1741 0.958 . S
C1727 H1742 0.961 . S
C1727 H1743 0.960 . S
H1728 C1712 0.931 . S
H1729 C1717 0.929 . S
H1730 C1718 0.960 . S
H1731 C1718 0.962 . S
H1732 C1718 0.960 . S
H1733 C1719 0.961 . S
H1734 C1719 0.961 . S
H1735 C1719 0.961 . S
H1736 C1720 0.931 . S
H1737 C1725 0.930 . S
H1738 C1726 0.956 . S
H1739 C1726 0.961 . S
H1740 C1726 0.961 . S
H1741 C1727 0.958 . S
H1742 C1727 0.961 . S
H1743 C1727 0.960 . S
C1744 C1745 1.391 . S
C1744 C1746 1.394 . S
C1744 H1760 0.931 . S
C1745 C1744 1.391 . S
C1745 C1749 1.376 . S
C1746 C1744 1.394 . S
C1746 C1747 1.369 . S
C1746 C1750 1.531 . S
C1747 C1746 1.369 . S
C1747 C1748 1.410 . S
C1747 C1755 1.503 . S
C1748 C1747 1.410 . S
C1748 C1749 1.392 . S
C1748 C1751 1.511 . S
C1749 C1745 1.376 . S
C1749 C1748 1.392 . S
C1749 H1761 0.929 . S
C1750 C1746 1.531 . S
C1750 H1762 0.960 . S
C1750 H1763 0.962 . S
C1750 H1764 0.960 . S
C1751 C1748 1.511 . S
C1751 H1765 0.961 . S
C1751 H1766 0.961 . S
C1751 H1767 0.961 . S
C1752 C1753 1.370 . S
C1752 C1754 1.363 . S
C1752 H1768 0.931 . S
C1753 C1752 1.370 . S
C1753 C1757 1.408 . S
C1754 C1752 1.363 . S
C1754 C1755 1.370 . S
C1754 C1758 1.524 . S
C1755 C1747 1.503 . S
C1755 C1754 1.370 . S
C1755 C1756 1.403 . S
C1756 C1755 1.403 . S
C1756 C1757 1.404 . S
C1756 C1759 1.539 . S
C1757 C1753 1.408 . S
C1757 C1756 1.404 . S
C1757 H1769 0.930 . S
C1758 C1754 1.524 . S
C1758 H1770 0.956 . S
C1758 H1771 0.961 . S
C1758 H1772 0.961 . S
C1759 C1756 1.539 . S
C1759 H1773 0.958 . S
C1759 H1774 0.961 . S
C1759 H1775 0.960 . S
H1760 C1744 0.931 . S
H1761 C1749 0.929 . S
H1762 C1750 0.960 . S
H1763 C1750 0.962 . S
H1764 C1750 0.960 . S
H1765 C1751 0.961 . S
H1766 C1751 0.961 . S
H1767 C1751 0.961 . S
H1768 C1752 0.931 . S
H1769 C1757 0.930 . S
H1770 C1758 0.956 . S
H1771 C1758 0.961 . S
H1772 C1758 0.961 . S
H1773 C1759 0.958 . S
H1774 C1759 0.961 . S
H1775 C1759 0.960 . S
C1776 C1777 1.391 . S
C1776 C1778 1.394 . S
C1776 H1792 0.931 . S
C1777 C1776 1.391 . S
C1777 C1781 1.376 . S
C1778 C1776 1.394 . S
C1778 C1779 1.369 . S
C1778 C1782 1.531 . S
C1779 C1778 1.369 . S
C1779 C1780 1.410 . S
C1779 C1787 1.503 . S
C1780 C1779 1.410 . S
C1780 C1781 1.392 . S
C1780 C1783 1.511 . S
C1781 C1777 1.376 . S
C1781 C1780 1.392 . S
C1781 H1793 0.929 . S
C1782 C1778 1.531 . S
C1782 H1794 0.960 . S
C1782 H1795 0.962 . S
C1782 H1796 0.960 . S
C1783 C1780 1.511 . S
C1783 H1797 0.961 . S
C1783 H1798 0.961 . S
C1783 H1799 0.961 . S
C1784 C1785 1.370 . S
C1784 C1786 1.363 . S
C1784 H1800 0.931 . S
C1785 C1784 1.370 . S
C1785 C1789 1.408 . S
C1786 C1784 1.363 . S
C1786 C1787 1.370 . S
C1786 C1790 1.524 . S
C1787 C1779 1.503 . S
C1787 C1786 1.370 . S
C1787 C1788 1.403 . S
C1788 C1787 1.403 . S
C1788 C1789 1.404 . S
C1788 C1791 1.539 . S
C1789 C1785 1.408 . S
C1789 C1788 1.404 . S
C1789 H1801 0.930 . S
C1790 C1786 1.524 . S
C1790 H1802 0.956 . S
C1790 H1803 0.961 . S
C1790 H1804 0.961 . S
C1791 C1788 1.539 . S
C1791 H1805 0.958 . S
C1791 H1806 0.961 . S
C1791 H1807 0.960 . S
H1792 C1776 0.931 . S
H1793 C1781 0.929 . S
H1794 C1782 0.960 . S
H1795 C1782 0.962 . S
H1796 C1782 0.960 . S
H1797 C1783 0.961 . S
H1798 C1783 0.961 . S
H1799 C1783 0.961 . S
H1800 C1784 0.931 . S
H1801 C1789 0.930 . S
H1802 C1790 0.956 . S
H1803 C1790 0.961 . S
H1804 C1790 0.961 . S
H1805 C1791 0.958 . S
H1806 C1791 0.961 . S
H1807 C1791 0.960 . S
C1808 C1809 1.391 . S
C1808 C1810 1.394 . S
C1808 H1824 0.931 . S
C1809 C1808 1.391 . S
C1809 C1813 1.376 . S
C1810 C1808 1.394 . S
C1810 C1811 1.369 . S
C1810 C1814 1.531 . S
C1811 C1810 1.369 . S
C1811 C1812 1.410 . S
C1811 C1819 1.503 . S
C1812 C1811 1.410 . S
C1812 C1813 1.392 . S
C1812 C1815 1.511 . S
C1813 C1809 1.376 . S
C1813 C1812 1.392 . S
C1813 H1825 0.929 . S
C1814 C1810 1.531 . S
C1814 H1826 0.960 . S
C1814 H1827 0.962 . S
C1814 H1828 0.960 . S
C1815 C1812 1.511 . S
C1815 H1829 0.961 . S
C1815 H1830 0.961 . S
C1815 H1831 0.961 . S
C1816 C1817 1.370 . S
C1816 C1818 1.363 . S
C1816 H1832 0.931 . S
C1817 C1816 1.370 . S
C1817 C1821 1.408 . S
C1818 C1816 1.363 . S
C1818 C1819 1.370 . S
C1818 C1822 1.524 . S
C1819 C1811 1.503 . S
C1819 C1818 1.370 . S
C1819 C1820 1.403 . S
C1820 C1819 1.403 . S
C1820 C1821 1.404 . S
C1820 C1823 1.539 . S
C1821 C1817 1.408 . S
C1821 C1820 1.404 . S
C1821 H1833 0.930 . S
C1822 C1818 1.524 . S
C1822 H1834 0.956 . S
C1822 H1835 0.961 . S
C1822 H1836 0.961 . S
C1823 C1820 1.539 . S
C1823 H1837 0.958 . S
C1823 H1838 0.961 . S
C1823 H1839 0.960 . S
H1824 C1808 0.931 . S
H1825 C1813 0.929 . S
H1826 C1814 0.960 . S
H1827 C1814 0.962 . S
H1828 C1814 0.960 . S
H1829 C1815 0.961 . S
H1830 C1815 0.961 . S
H1831 C1815 0.961 . S
H1832 C1816 0.931 . S
H1833 C1821 0.930 . S
H1834 C1822 0.956 . S
H1835 C1822 0.961 . S
H1836 C1822 0.961 . S
H1837 C1823 0.958 . S
H1838 C1823 0.961 . S
H1839 C1823 0.960 . S
C1840 C1841 1.391 . S
C1840 C1842 1.394 . S
C1840 H1856 0.931 . S
C1841 C1840 1.391 . S
C1841 C1845 1.376 . S
C1842 C1840 1.394 . S
C1842 C1843 1.369 . S
C1842 C1846 1.531 . S
C1843 C1842 1.369 . S
C1843 C1844 1.410 . S
C1843 C1851 1.503 . S
C1844 C1843 1.410 . S
C1844 C1845 1.392 . S
C1844 C1847 1.511 . S
C1845 C1841 1.376 . S
C1845 C1844 1.392 . S
C1845 H1857 0.929 . S
C1846 C1842 1.531 . S
C1846 H1858 0.960 . S
C1846 H1859 0.962 . S
C1846 H1860 0.960 . S
C1847 C1844 1.511 . S
C1847 H1861 0.961 . S
C1847 H1862 0.961 . S
C1847 H1863 0.961 . S
C1848 C1849 1.370 . S
C1848 C1850 1.363 . S
C1848 H1864 0.931 . S
C1849 C1848 1.370 . S
C1849 C1853 1.408 . S
C1850 C1848 1.363 . S
C1850 C1851 1.370 . S
C1850 C1854 1.524 . S
C1851 C1843 1.503 . S
C1851 C1850 1.370 . S
C1851 C1852 1.403 . S
C1852 C1851 1.403 . S
C1852 C1853 1.404 . S
C1852 C1855 1.539 . S
C1853 C1849 1.408 . S
C1853 C1852 1.404 . S
C1853 H1865 0.930 . S
C1854 C1850 1.524 . S
C1854 H1866 0.956 . S
C1854 H1867 0.961 . S
C1854 H1868 0.961 . S
C1855 C1852 1.539 . S
C1855 H1869 0.958 . S
C1855 H1870 0.961 . S
C1855 H1871 0.960 . S
H1856 C1840 0.931 . S
H1857 C1845 0.929 . S
H1858 C1846 0.960 . S
H1859 C1846 0.962 . S
H1860 C1846 0.960 . S
H1861 C1847 0.961 . S
H1862 C1847 0.961 . S
H1863 C1847 0.961 . S
H1864 C1848 0.931 . S
H1865 C1853 0.930 . S
H1866 C1854 0.956 . S
H1867 C1854 0.961 . S
H1868 C1854 0.961 . S
H1869 C1855 0.958 . S
H1870 C1855 0.961 . S
H1871 C1855 0.960 . S
C1872 C1873 1.391 . S
C1872 C1874 1.394 . S
C1872 H1888 0.931 . S
C1873 C1872 1.391 . S
C1873 C1877 1.376 . S
C1874 C1872 1.394 . S
C1874 C1875 1.369 . S
C1874 C1878 1.531 . S
C1875 C1874 1.369 . S
C1875 C1876 1.410 . S
C1875 C1883 1.503 . S
C1876 C1875 1.410 . S
C1876 C1877 1.392 . S
C1876 C1879 1.511 . S
C1877 C1873 1.376 . S
C1877 C1876 1.392 . S
C1877 H1889 0.929 . S
C1878 C1874 1.531 . S
C1878 H1890 0.960 . S
C1878 H1891 0.962 . S
C1878 H1892 0.960 . S
C1879 C1876 1.511 . S
C1879 H1893 0.961 . S
C1879 H1894 0.961 . S
C1879 H1895 0.961 . S
C1880 C1881 1.370 . S
C1880 C1882 1.363 . S
C1880 H1896 0.931 . S
C1881 C1880 1.370 . S
C1881 C1885 1.408 . S
C1882 C1880 1.363 . S
C1882 C1883 1.370 . S
C1882 C1886 1.524 . S
C1883 C1875 1.503 . S
C1883 C1882 1.370 . S
C1883 C1884 1.403 . S
C1884 C1883 1.403 . S
C1884 C1885 1.404 . S
C1884 C1887 1.539 . S
C1885 C1881 1.408 . S
C1885 C1884 1.404 . S
C1885 H1897 0.930 . S
C1886 C1882 1.524 . S
C1886 H1898 0.956 . S
C1886 H1899 0.961 . S
C1886 H1900 0.961 . S
C1887 C1884 1.539 . S
C1887 H1901 0.958 . S
C1887 H1902 0.961 . S
C1887 H1903 0.960 . S
H1888 C1872 0.931 . S
H1889 C1877 0.929 . S
H1890 C1878 0.960 . S
H1891 C1878 0.962 . S
H1892 C1878 0.960 . S
H1893 C1879 0.961 . S
H1894 C1879 0.961 . S
H1895 C1879 0.961 . S
H1896 C1880 0.931 . S
H1897 C1885 0.930 . S
H1898 C1886 0.956 . S
H1899 C1886 0.961 . S
H1900 C1886 0.961 . S
H1901 C1887 0.958 . S
H1902 C1887 0.961 . S
H1903 C1887 0.960 . S
C1904 C1905 1.391 . S
C1904 C1906 1.394 . S
C1904 H1920 0.931 . S
C1905 C1904 1.391 . S
C1905 C1909 1.376 . S
C1906 C1904 1.394 . S
C1906 C1907 1.369 . S
C1906 C1910 1.531 . S
C1907 C1906 1.369 . S
C1907 C1908 1.410 . S
C1907 C1915 1.503 . S
C1908 C1907 1.410 . S
C1908 C1909 1.392 . S
C1908 C1911 1.511 . S
C1909 C1905 1.376 . S
C1909 C1908 1.392 . S
C1909 H1921 0.929 . S
C1910 C1906 1.531 . S
C1910 H1922 0.960 . S
C1910 H1923 0.962 . S
C1910 H1924 0.960 . S
C1911 C1908 1.511 . S
C1911 H1925 0.961 . S
C1911 H1926 0.961 . S
C1911 H1927 0.961 . S
C1912 C1913 1.370 . S
C1912 C1914 1.363 . S
C1912 H1928 0.931 . S
C1913 C1912 1.370 . S
C1913 C1917 1.408 . S
C1914 C1912 1.363 . S
C1914 C1915 1.370 . S
C1914 C1918 1.524 . S
C1915 C1907 1.503 . S
C1915 C1914 1.370 . S
C1915 C1916 1.403 . S
C1916 C1915 1.403 . S
C1916 C1917 1.404 . S
C1916 C1919 1.539 . S
C1917 C1913 1.408 . S
C1917 C1916 1.404 . S
C1917 H1929 0.930 . S
C1918 C1914 1.524 . S
C1918 H1930 0.956 . S
C1918 H1931 0.961 . S
C1918 H1932 0.961 . S
C1919 C1916 1.539 . S
C1919 H1933 0.958 . S
C1919 H1934 0.961 . S
C1919 H1935 0.960 . S
H1920 C1904 0.931 . S
H1921 C1909 0.929 . S
H1922 C1910 0.960 . S
H1923 C1910 0.962 . S
H1924 C1910 0.960 . S
H1925 C1911 0.961 . S
H1926 C1911 0.961 . S
H1927 C1911 0.961 . S
H1928 C1912 0.931 . S
H1929 C1917 0.930 . S
H1930 C1918 0.956 . S
H1931 C1918 0.961 . S
H1932 C1918 0.961 . S
H1933 C1919 0.958 . S
H1934 C1919 0.961 . S
H1935 C1919 0.960 . S
C1936 C1937 1.391 . S
C1936 C1938 1.394 . S
C1936 H1952 0.931 . S
C1937 C1936 1.391 . S
C1937 C1941 1.376 . S
C1938 C1936 1.394 . S
C1938 C1939 1.369 . S
C1938 C1942 1.531 . S
C1939 C1938 1.369 . S
C1939 C1940 1.410 . S
C1939 C1947 1.503 . S
C1940 C1939 1.410 . S
C1940 C1941 1.392 . S
C1940 C1943 1.511 . S
C1941 C1937 1.376 . S
C1941 C1940 1.392 . S
C1941 H1953 0.929 . S
C1942 C1938 1.531 . S
C1942 H1954 0.960 . S
C1942 H1955 0.962 . S
C1942 H1956 0.960 . S
C1943 C1940 1.511 . S
C1943 H1957 0.961 . S
C1943 H1958 0.961 . S
C1943 H1959 0.961 . S
C1944 C1945 1.370 . S
C1944 C1946 1.363 . S
C1944 H1960 0.931 1_556 S
C1945 C1944 1.370 . S
C1945 C1949 1.408 . S
C1946 C1944 1.363 . S
C1946 C1947 1.370 . S
C1946 C1950 1.524 . S
C1947 C1939 1.503 . S
C1947 C1946 1.370 . S
C1947 C1948 1.403 . S
C1948 C1947 1.403 . S
C1948 C1949 1.404 . S
C1948 C1951 1.539 . S
C1949 C1945 1.408 . S
C1949 C1948 1.404 . S
C1949 H1961 0.930 . S
C1950 C1946 1.524 . S
C1950 H1962 0.956 . S
C1950 H1963 0.961 . S
C1950 H1964 0.961 1_556 S
C1951 C1948 1.539 . S
C1951 H1965 0.958 . S
C1951 H1966 0.961 . S
C1951 H1967 0.960 . S
H1952 C1936 0.931 . S
H1953 C1941 0.929 . S
H1954 C1942 0.960 . S
H1955 C1942 0.962 . S
H1956 C1942 0.960 . S
H1957 C1943 0.961 . S
H1958 C1943 0.961 . S
H1959 C1943 0.961 . S
H1960 C1944 0.931 1_554 S
H1961 C1949 0.930 . S
H1962 C1950 0.956 . S
H1963 C1950 0.961 . S
H1964 C1950 0.961 1_554 S
H1965 C1951 0.958 . S
H1966 C1951 0.961 . S
H1967 C1951 0.960 . S
C1968 C1969 1.391 . S
C1968 C1970 1.394 . S
C1968 H1984 0.931 . S
C1969 C1968 1.391 . S
C1969 C1973 1.376 . S
C1970 C1968 1.394 . S
C1970 C1971 1.369 . S
C1970 C1974 1.531 . S
C1971 C1970 1.369 . S
C1971 C1972 1.410 . S
C1971 C1979 1.503 . S
C1972 C1971 1.410 . S
C1972 C1973 1.392 . S
C1972 C1975 1.511 . S
C1973 C1969 1.376 . S
C1973 C1972 1.392 . S
C1973 H1985 0.929 . S
C1974 C1970 1.531 . S
C1974 H1986 0.960 . S
C1974 H1987 0.962 . S
C1974 H1988 0.960 . S
C1975 C1972 1.511 . S
C1975 H1989 0.961 . S
C1975 H1990 0.961 . S
C1975 H1991 0.961 . S
C1976 C1977 1.370 . S
C1976 C1978 1.363 . S
C1976 H1992 0.931 . S
C1977 C1976 1.370 . S
C1977 C1981 1.408 . S
C1978 C1976 1.363 . S
C1978 C1979 1.370 . S
C1978 C1982 1.524 . S
C1979 C1971 1.503 . S
C1979 C1978 1.370 . S
C1979 C1980 1.403 . S
C1980 C1979 1.403 . S
C1980 C1981 1.404 . S
C1980 C1983 1.539 . S
C1981 C1977 1.408 . S
C1981 C1980 1.404 . S
C1981 H1993 0.930 . S
C1982 C1978 1.524 . S
C1982 H1994 0.956 . S
C1982 H1995 0.961 . S
C1982 H1996 0.961 . S
C1983 C1980 1.539 . S
C1983 H1997 0.958 . S
C1983 H1998 0.961 . S
C1983 H1999 0.960 . S
H1984 C1968 0.931 . S
H1985 C1973 0.929 . S
H1986 C1974 0.960 . S
H1987 C1974 0.962 . S
H1988 C1974 0.960 . S
H1989 C1975 0.961 . S
H1990 C1975 0.961 . S
H1991 C1975 0.961 . S
H1992 C1976 0.931 . S
H1993 C1981 0.930 . S
H1994 C1982 0.956 . S
H1995 C1982 0.961 . S
H1996 C1982 0.961 . S
H1997 C1983 0.958 . S
H1998 C1983 0.961 . S
H1999 C1983 0.960 . S
C2000 C2001 1.391 1_565 S
C2000 C2002 1.394 . S
C2000 H2016 0.931 . S
C2001 C2000 1.391 1_545 S
C2001 C2005 1.376 . S
C2002 C2000 1.394 . S
C2002 C2003 1.369 1_565 S
C2002 C2006 1.531 . S
C2003 C2002 1.369 1_545 S
C2003 C2004 1.410 . S
C2003 C2011 1.503 . S
C2004 C2003 1.410 . S
C2004 C2005 1.392 . S
C2004 C2007 1.511 . S
C2005 C2001 1.376 . S
C2005 C2004 1.392 . S
C2005 H2017 0.929 . S
C2006 C2002 1.531 . S
C2006 H2018 0.960 . S
C2006 H2019 0.962 . S
C2006 H2020 0.960 . S
C2007 C2004 1.511 . S
C2007 H2021 0.961 . S
C2007 H2022 0.961 . S
C2007 H2023 0.961 . S
C2008 C2009 1.370 . S
C2008 C2010 1.363 . S
C2008 H2024 0.931 . S
C2009 C2008 1.370 . S
C2009 C2013 1.408 . S
C2010 C2008 1.363 . S
C2010 C2011 1.370 . S
C2010 C2014 1.524 . S
C2011 C2003 1.503 . S
C2011 C2010 1.370 . S
C2011 C2012 1.403 . S
C2012 C2011 1.403 . S
C2012 C2013 1.404 . S
C2012 C2015 1.539 . S
C2013 C2009 1.408 . S
C2013 C2012 1.404 . S
C2013 H2025 0.930 . S
C2014 C2010 1.524 . S
C2014 H2026 0.956 . S
C2014 H2027 0.961 . S
C2014 H2028 0.961 . S
C2015 C2012 1.539 . S
C2015 H2029 0.958 1_545 S
C2015 H2030 0.961 . S
C2015 H2031 0.960 . S
H2016 C2000 0.931 . S
H2017 C2005 0.929 . S
H2018 C2006 0.960 . S
H2019 C2006 0.962 . S
H2020 C2006 0.960 . S
H2021 C2007 0.961 . S
H2022 C2007 0.961 . S
H2023 C2007 0.961 . S
H2024 C2008 0.931 . S
H2025 C2013 0.930 . S
H2026 C2014 0.956 . S
H2027 C2014 0.961 . S
H2028 C2014 0.961 . S
H2029 C2015 0.958 1_565 S
H2030 C2015 0.961 . S
H2031 C2015 0.960 . S
C2032 C2033 1.391 . S
C2032 C2034 1.394 . S
C2032 H2048 0.931 . S
C2033 C2032 1.391 . S
C2033 C2037 1.376 . S
C2034 C2032 1.394 . S
C2034 C2035 1.369 . S
C2034 C2038 1.531 . S
C2035 C2034 1.369 . S
C2035 C2036 1.410 . S
C2035 C2043 1.503 . S
C2036 C2035 1.410 . S
C2036 C2037 1.392 . S
C2036 C2039 1.511 . S
C2037 C2033 1.376 . S
C2037 C2036 1.392 . S
C2037 H2049 0.929 . S
C2038 C2034 1.531 . S
C2038 H2050 0.960 . S
C2038 H2051 0.962 . S
C2038 H2052 0.960 . S
C2039 C2036 1.511 . S
C2039 H2053 0.961 . S
C2039 H2054 0.961 . S
C2039 H2055 0.961 . S
C2040 C2041 1.370 . S
C2040 C2042 1.363 . S
C2040 H2056 0.931 . S
C2041 C2040 1.370 . S
C2041 C2045 1.408 . S
C2042 C2040 1.363 . S
C2042 C2043 1.370 . S
C2042 C2046 1.524 . S
C2043 C2035 1.503 . S
C2043 C2042 1.370 . S
C2043 C2044 1.403 . S
C2044 C2043 1.403 . S
C2044 C2045 1.404 . S
C2044 C2047 1.539 . S
C2045 C2041 1.408 . S
C2045 C2044 1.404 . S
C2045 H2057 0.930 . S
C2046 C2042 1.524 . S
C2046 H2058 0.956 . S
C2046 H2059 0.961 . S
C2046 H2060 0.961 . S
C2047 C2044 1.539 . S
C2047 H2061 0.958 . S
C2047 H2062 0.961 . S
C2047 H2063 0.960 . S
H2048 C2032 0.931 . S
H2049 C2037 0.929 . S
H2050 C2038 0.960 . S
H2051 C2038 0.962 . S
H2052 C2038 0.960 . S
H2053 C2039 0.961 . S
H2054 C2039 0.961 . S
H2055 C2039 0.961 . S
H2056 C2040 0.931 . S
H2057 C2045 0.930 . S
H2058 C2046 0.956 . S
H2059 C2046 0.961 . S
H2060 C2046 0.961 . S
H2061 C2047 0.958 . S
H2062 C2047 0.961 . S
H2063 C2047 0.960 . S
C2064 C2065 1.391 . S
C2064 C2066 1.394 . S
C2064 H2080 0.944 . S
C2065 C2064 1.391 . S
C2065 C2069 1.376 . S
C2066 C2064 1.394 . S
C2066 C2067 1.369 . S
C2066 C2070 1.531 . S
C2067 C2066 1.369 . S
C2067 C2068 1.410 . S
C2067 C2075 1.503 . S
C2068 C2067 1.410 . S
C2068 C2069 1.392 . S
C2068 C2071 1.511 . S
C2069 C2065 1.376 . S
C2069 C2068 1.392 . S
C2069 H2081 0.929 . S
C2070 C2066 1.531 . S
C2070 H2082 0.960 . S
C2070 H2083 0.962 1_545 S
C2070 H2084 0.960 . S
C2071 C2068 1.511 . S
C2071 H2085 0.961 . S
C2071 H2086 0.961 . S
C2071 H2087 0.961 . S
C2072 C2073 1.370 . S
C2072 C2074 1.363 . S
C2072 H2088 0.915 1_545 S
C2073 C2072 1.370 . S
C2073 C2077 1.408 . S
C2074 C2072 1.363 . S
C2074 C2075 1.370 . S
C2074 C2078 1.524 1_545 S
C2075 C2067 1.503 . S
C2075 C2074 1.370 . S
C2075 C2076 1.403 . S
C2076 C2075 1.403 . S
C2076 C2077 1.404 . S
C2076 C2079 1.539 . S
C2077 C2073 1.408 . S
C2077 C2076 1.404 . S
C2077 H2089 0.930 . S
C2078 C2074 1.524 1_565 S
C2078 H2090 0.956 . S
C2078 H2091 0.961 . S
C2078 H2092 0.961 . S
C2079 C2076 1.539 . S
C2079 H2093 0.958 . S
C2079 H2094 0.961 . S
C2079 H2095 0.960 . S
H2080 C2064 0.944 . S
H2081 C2069 0.929 . S
H2082 C2070 0.960 . S
H2083 C2070 0.962 1_565 S
H2084 C2070 0.960 . S
H2085 C2071 0.961 . S
H2086 C2071 0.961 . S
H2087 C2071 0.961 . S
H2088 C2072 0.915 1_565 S
H2089 C2077 0.930 . S
H2090 C2078 0.956 . S
H2091 C2078 0.961 . S
H2092 C2078 0.961 . S
H2093 C2079 0.958 . S
H2094 C2079 0.961 . S
H2095 C2079 0.960 . S
C2096 C2097 1.391 . S
C2096 C2098 1.394 . S
C2096 H2112 0.931 . S
C2097 C2096 1.391 . S
C2097 C2101 1.376 . S
C2098 C2096 1.394 . S
C2098 C2099 1.369 . S
C2098 C2102 1.531 . S
C2099 C2098 1.369 . S
C2099 C2100 1.410 . S
C2099 C2107 1.503 . S
C2100 C2099 1.410 . S
C2100 C2101 1.392 . S
C2100 C2103 1.511 . S
C2101 C2097 1.376 . S
C2101 C2100 1.392 . S
C2101 H2113 0.929 . S
C2102 C2098 1.531 . S
C2102 H2114 0.960 . S
C2102 H2115 0.962 . S
C2102 H2116 0.960 . S
C2103 C2100 1.511 . S
C2103 H2117 0.961 . S
C2103 H2118 0.961 . S
C2103 H2119 0.961 . S
C2104 C2105 1.370 . S
C2104 C2106 1.363 . S
C2104 H2120 0.931 . S
C2105 C2104 1.370 . S
C2105 C2109 1.408 . S
C2106 C2104 1.363 . S
C2106 C2107 1.370 . S
C2106 C2110 1.524 . S
C2107 C2099 1.503 . S
C2107 C2106 1.370 . S
C2107 C2108 1.403 . S
C2108 C2107 1.403 . S
C2108 C2109 1.404 . S
C2108 C2111 1.539 . S
C2109 C2105 1.408 . S
C2109 C2108 1.404 . S
C2109 H2121 0.930 . S
C2110 C2106 1.524 . S
C2110 H2122 0.956 . S
C2110 H2123 0.961 . S
C2110 H2124 0.961 . S
C2111 C2108 1.539 . S
C2111 H2125 0.958 . S
C2111 H2126 0.961 . S
C2111 H2127 0.960 . S
H2112 C2096 0.931 . S
H2113 C2101 0.929 . S
H2114 C2102 0.960 . S
H2115 C2102 0.962 . S
H2116 C2102 0.960 . S
H2117 C2103 0.961 . S
H2118 C2103 0.961 . S
H2119 C2103 0.961 . S
H2120 C2104 0.931 . S
H2121 C2109 0.930 . S
H2122 C2110 0.956 . S
H2123 C2110 0.961 . S
H2124 C2110 0.961 . S
H2125 C2111 0.958 . S
H2126 C2111 0.961 . S
H2127 C2111 0.960 . S
C2128 C2129 1.391 . S
C2128 C2130 1.394 . S
C2128 H2144 0.931 . S
C2129 C2128 1.391 . S
C2129 C2133 1.376 . S
C2130 C2128 1.394 . S
C2130 C2131 1.369 . S
C2130 C2134 1.531 . S
C2131 C2130 1.369 . S
C2131 C2132 1.410 . S
C2131 C2139 1.503 . S
C2132 C2131 1.410 . S
C2132 C2133 1.392 . S
C2132 C2135 1.511 . S
C2133 C2129 1.376 . S
C2133 C2132 1.392 . S
C2133 H2145 0.929 . S
C2134 C2130 1.531 . S
C2134 H2146 0.960 . S
C2134 H2147 0.962 . S
C2134 H2148 0.960 . S
C2135 C2132 1.511 . S
C2135 H2149 0.965 1_545 S
C2135 H2150 0.961 . S
C2135 H2151 0.961 . S
C2136 C2137 1.370 . S
C2136 C2138 1.363 . S
C2136 H2152 0.931 1_545 S
C2137 C2136 1.370 . S
C2137 C2141 1.408 . S
C2138 C2136 1.363 . S
C2138 C2139 1.370 . S
C2138 C2142 1.524 1_545 S
C2139 C2131 1.503 . S
C2139 C2138 1.370 . S
C2139 C2140 1.403 . S
C2140 C2139 1.403 . S
C2140 C2141 1.404 . S
C2140 C2143 1.539 . S
C2141 C2137 1.408 . S
C2141 C2140 1.404 . S
C2141 H2153 0.930 . S
C2142 C2138 1.524 1_565 S
C2142 H2154 0.956 . S
C2142 H2155 0.961 . S
C2142 H2156 0.961 . S
C2143 C2140 1.539 . S
C2143 H2157 0.958 . S
C2143 H2158 0.961 . S
C2143 H2159 0.960 . S
H2144 C2128 0.931 . S
H2145 C2133 0.929 . S
H2146 C2134 0.960 . S
H2147 C2134 0.962 . S
H2148 C2134 0.960 . S
H2149 C2135 0.965 1_565 S
H2150 C2135 0.961 . S
H2151 C2135 0.961 . S
H2152 C2136 0.931 1_565 S
H2153 C2141 0.930 . S
H2154 C2142 0.956 . S
H2155 C2142 0.961 . S
H2156 C2142 0.961 . S
H2157 C2143 0.958 . S
H2158 C2143 0.961 . S
H2159 C2143 0.960 . S
C2160 C2161 1.391 . S
C2160 C2162 1.394 . S
C2160 H2176 0.931 . S
C2161 C2160 1.391 . S
C2161 C2165 1.376 . S
C2162 C2160 1.394 . S
C2162 C2163 1.369 . S
C2162 C2166 1.531 . S
C2163 C2162 1.369 . S
C2163 C2164 1.410 . S
C2163 C2171 1.503 . S
C2164 C2163 1.410 . S
C2164 C2165 1.392 . S
C2164 C2167 1.511 . S
C2165 C2161 1.376 . S
C2165 C2164 1.392 . S
C2165 H2177 0.929 . S
C2166 C2162 1.531 . S
C2166 H2178 0.960 . S
C2166 H2179 0.962 . S
C2166 H2180 0.960 . S
C2167 C2164 1.511 . S
C2167 H2181 0.961 . S
C2167 H2182 0.961 . S
C2167 H2183 0.961 . S
C2168 C2169 1.370 . S
C2168 C2170 1.363 . S
C2168 H2184 0.931 . S
C2169 C2168 1.370 . S
C2169 C2173 1.408 . S
C2170 C2168 1.363 . S
C2170 C2171 1.370 . S
C2170 C2174 1.524 . S
C2171 C2163 1.503 . S
C2171 C2170 1.370 . S
C2171 C2172 1.403 . S
C2172 C2171 1.403 . S
C2172 C2173 1.404 . S
C2172 C2175 1.539 . S
C2173 C2169 1.408 . S
C2173 C2172 1.404 . S
C2173 H2185 0.930 . S
C2174 C2170 1.524 . S
C2174 H2186 0.956 . S
C2174 H2187 0.961 . S
C2174 H2188 0.961 . S
C2175 C2172 1.539 . S
C2175 H2189 0.958 . S
C2175 H2190 0.961 . S
C2175 H2191 0.960 . S
H2176 C2160 0.931 . S
H2177 C2165 0.929 . S
H2178 C2166 0.960 . S
H2179 C2166 0.962 . S
H2180 C2166 0.960 . S
H2181 C2167 0.961 . S
H2182 C2167 0.961 . S
H2183 C2167 0.961 . S
H2184 C2168 0.931 . S
H2185 C2173 0.930 . S
H2186 C2174 0.956 . S
H2187 C2174 0.961 . S
H2188 C2174 0.961 . S
H2189 C2175 0.958 . S
H2190 C2175 0.961 . S
H2191 C2175 0.960 . S
C2192 C2193 1.419 . S
C2192 C2194 1.394 . S
C2192 H2208 0.931 . S
C2193 C2192 1.419 . S
C2193 C2197 1.346 1_565 S
C2194 C2192 1.394 . S
C2194 C2195 1.369 . S
C2194 C2198 1.531 . S
C2195 C2194 1.369 . S
C2195 C2196 1.410 1_565 S
C2195 C2203 1.503 . S
C2196 C2195 1.410 1_545 S
C2196 C2197 1.392 . S
C2196 C2199 1.511 . S
C2197 C2193 1.346 1_545 S
C2197 C2196 1.392 . S
C2197 H2209 0.929 . S
C2198 C2194 1.531 . S
C2198 H2210 0.960 . S
C2198 H2211 0.962 . S
C2198 H2212 0.960 . S
C2199 C2196 1.511 . S
C2199 H2213 0.961 . S
C2199 H2214 0.961 . S
C2199 H2215 0.961 . S
C2200 C2201 1.370 1_545 S
C2200 C2202 1.363 . S
C2200 H2216 0.931 . S
C2201 C2200 1.370 1_565 S
C2201 C2205 1.408 . S
C2202 C2200 1.363 . S
C2202 C2203 1.370 1_545 S
C2202 C2206 1.524 . S
C2203 C2195 1.503 . S
C2203 C2202 1.370 1_565 S
C2203 C2204 1.403 . S
C2204 C2203 1.403 . S
C2204 C2205 1.404 . S
C2204 C2207 1.539 . S
C2205 C2201 1.408 . S
C2205 C2204 1.404 . S
C2205 H2217 0.930 . S
C2206 C2202 1.524 . S
C2206 H2218 0.956 . S
C2206 H2219 0.961 . S
C2206 H2220 0.961 . S
C2207 C2204 1.539 . S
C2207 H2221 0.958 . S
C2207 H2222 0.961 . S
C2207 H2223 0.960 . S
H2208 C2192 0.931 . S
H2209 C2197 0.929 . S
H2210 C2198 0.960 . S
H2211 C2198 0.962 . S
H2212 C2198 0.960 . S
H2213 C2199 0.961 . S
H2214 C2199 0.961 . S
H2215 C2199 0.961 . S
H2216 C2200 0.931 . S
H2217 C2205 0.930 . S
H2218 C2206 0.956 . S
H2219 C2206 0.961 . S
H2220 C2206 0.961 . S
H2221 C2207 0.958 . S
H2222 C2207 0.961 . S
H2223 C2207 0.960 . S
C2224 C2225 1.391 . S
C2224 C2226 1.394 . S
C2224 H2240 0.931 . S
C2225 C2224 1.391 . S
C2225 C2229 1.376 . S
C2226 C2224 1.394 . S
C2226 C2227 1.369 . S
C2226 C2230 1.531 . S
C2227 C2226 1.369 . S
C2227 C2228 1.410 . S
C2227 C2235 1.503 . S
C2228 C2227 1.410 . S
C2228 C2229 1.392 . S
C2228 C2231 1.511 . S
C2229 C2225 1.376 . S
C2229 C2228 1.392 . S
C2229 H2241 0.929 . S
C2230 C2226 1.531 . S
C2230 H2242 0.960 . S
C2230 H2243 0.962 . S
C2230 H2244 0.960 . S
C2231 C2228 1.511 . S
C2231 H2245 0.961 . S
C2231 H2246 0.961 . S
C2231 H2247 0.961 . S
C2232 C2233 1.370 . S
C2232 C2234 1.363 . S
C2232 H2248 0.931 . S
C2233 C2232 1.370 . S
C2233 C2237 1.408 . S
C2234 C2232 1.363 . S
C2234 C2235 1.370 . S
C2234 C2238 1.524 . S
C2235 C2227 1.503 . S
C2235 C2234 1.370 . S
C2235 C2236 1.403 . S
C2236 C2235 1.403 . S
C2236 C2237 1.404 . S
C2236 C2239 1.539 . S
C2237 C2233 1.408 . S
C2237 C2236 1.404 . S
C2237 H2249 0.930 . S
C2238 C2234 1.524 . S
C2238 H2250 0.956 . S
C2238 H2251 0.961 . S
C2238 H2252 0.961 . S
C2239 C2236 1.539 . S
C2239 H2253 0.958 . S
C2239 H2254 0.961 . S
C2239 H2255 0.960 . S
H2240 C2224 0.931 . S
H2241 C2229 0.929 . S
H2242 C2230 0.960 . S
H2243 C2230 0.962 . S
H2244 C2230 0.960 . S
H2245 C2231 0.961 . S
H2246 C2231 0.961 . S
H2247 C2231 0.961 . S
H2248 C2232 0.931 . S
H2249 C2237 0.930 . S
H2250 C2238 0.956 . S
H2251 C2238 0.961 . S
H2252 C2238 0.961 . S
H2253 C2239 0.958 . S
H2254 C2239 0.961 . S
H2255 C2239 0.960 . S
C2256 C2257 1.391 . S
C2256 C2258 1.394 . S
C2256 H2272 0.931 . S
C2257 C2256 1.391 . S
C2257 C2261 1.376 . S
C2258 C2256 1.394 . S
C2258 C2259 1.369 . S
C2258 C2262 1.531 . S
C2259 C2258 1.369 . S
C2259 C2260 1.410 . S
C2259 C2267 1.503 . S
C2260 C2259 1.410 . S
C2260 C2261 1.392 . S
C2260 C2263 1.511 1_554 S
C2261 C2257 1.376 . S
C2261 C2260 1.392 . S
C2261 H2273 0.929 . S
C2262 C2258 1.531 . S
C2262 H2274 0.960 . S
C2262 H2275 0.962 . S
C2262 H2276 0.960 . S
C2263 C2260 1.511 1_556 S
C2263 H2277 0.961 1_556 S
C2263 H2278 0.961 1_556 S
C2263 H2279 0.961 . S
C2264 C2265 1.370 . S
C2264 C2266 1.363 . S
C2264 H2280 0.931 . S
C2265 C2264 1.370 . S
C2265 C2269 1.408 1_554 S
C2266 C2264 1.363 . S
C2266 C2267 1.370 . S
C2266 C2270 1.524 . S
C2267 C2259 1.503 . S
C2267 C2266 1.370 . S
C2267 C2268 1.403 1_554 S
C2268 C2267 1.403 1_556 S
C2268 C2269 1.404 . S
C2268 C2271 1.539 . S
C2269 C2265 1.408 1_556 S
C2269 C2268 1.404 . S
C2269 H2281 0.930 . S
C2270 C2266 1.524 . S
C2270 H2282 0.956 . S
C2270 H2283 0.961 . S
C2270 H2284 0.961 . S
C2271 C2268 1.539 . S
C2271 H2285 0.958 . S
C2271 H2286 0.961 . S
C2271 H2287 0.960 . S
H2272 C2256 0.931 . S
H2273 C2261 0.929 . S
H2274 C2262 0.960 . S
H2275 C2262 0.962 . S
H2276 C2262 0.960 . S
H2277 C2263 0.961 1_554 S
H2278 C2263 0.961 1_554 S
H2279 C2263 0.961 . S
H2280 C2264 0.931 . S
H2281 C2269 0.930 . S
H2282 C2270 0.956 . S
H2283 C2270 0.961 . S
H2284 C2270 0.961 . S
H2285 C2271 0.958 . S
H2286 C2271 0.961 . S
H2287 C2271 0.960 . S
C2288 C2289 1.391 . S
C2288 C2290 1.394 . S
C2288 H2304 0.931 1_554 S
C2289 C2288 1.391 . S
C2289 C2293 1.376 . S
C2290 C2288 1.394 . S
C2290 C2291 1.369 . S
C2290 C2294 1.531 1_554 S
C2291 C2290 1.369 . S
C2291 C2292 1.410 . S
C2291 C2299 1.503 . S
C2292 C2291 1.410 . S
C2292 C2293 1.392 . S
C2292 C2295 1.511 . S
C2293 C2289 1.376 . S
C2293 C2292 1.392 . S
C2293 H2305 0.929 . S
C2294 C2290 1.531 1_556 S
C2294 H2306 0.960 . S
C2294 H2307 0.962 . S
C2294 H2308 0.960 . S
C2295 C2292 1.511 . S
C2295 H2309 0.961 . S
C2295 H2310 0.961 . S
C2295 H2311 0.961 . S
C2296 C2297 1.370 . S
C2296 C2298 1.363 . S
C2296 H2312 0.931 . S
C2297 C2296 1.370 . S
C2297 C2301 1.408 . S
C2298 C2296 1.363 . S
C2298 C2299 1.370 . S
C2298 C2302 1.524 . S
C2299 C2291 1.503 . S
C2299 C2298 1.370 . S
C2299 C2300 1.403 . S
C2300 C2299 1.403 . S
C2300 C2301 1.404 . S
C2300 C2303 1.539 . S
C2301 C2297 1.408 . S
C2301 C2300 1.404 . S
C2301 H2313 0.930 . S
C2302 C2298 1.524 . S
C2302 H2314 0.956 1_554 S
C2302 H2315 0.961 . S
C2302 H2316 0.961 . S
C2303 C2300 1.539 . S
C2303 H2317 0.958 . S
C2303 H2318 0.961 . S
C2303 H2319 0.960 . S
H2304 C2288 0.931 1_556 S
H2305 C2293 0.929 . S
H2306 C2294 0.960 . S
H2307 C2294 0.962 . S
H2308 C2294 0.960 . S
H2309 C2295 0.961 . S
H2310 C2295 0.961 . S
H2311 C2295 0.961 . S
H2312 C2296 0.931 . S
H2313 C2301 0.930 . S
H2314 C2302 0.956 1_556 S
H2315 C2302 0.961 . S
H2316 C2302 0.961 . S
H2317 C2303 0.958 . S
H2318 C2303 0.961 . S
H2319 C2303 0.960 . S
C2320 C2321 1.391 . S
C2320 C2322 1.394 . S
C2320 H2336 0.931 . S
C2321 C2320 1.391 . S
C2321 C2325 1.376 . S
C2322 C2320 1.394 . S
C2322 C2323 1.369 . S
C2322 C2326 1.531 . S
C2323 C2322 1.369 . S
C2323 C2324 1.410 . S
C2323 C2331 1.503 . S
C2324 C2323 1.410 . S
C2324 C2325 1.392 . S
C2324 C2327 1.511 . S
C2325 C2321 1.376 . S
C2325 C2324 1.392 . S
C2325 H2337 0.929 . S
C2326 C2322 1.531 . S
C2326 H2338 0.960 . S
C2326 H2339 0.962 . S
C2326 H2340 0.960 . S
C2327 C2324 1.511 . S
C2327 H2341 0.961 . S
C2327 H2342 0.961 . S
C2327 H2343 0.961 . S
C2328 C2329 1.370 . S
C2328 C2330 1.363 . S
C2328 H2344 0.931 . S
C2329 C2328 1.370 . S
C2329 C2333 1.408 . S
C2330 C2328 1.363 . S
C2330 C2331 1.370 . S
C2330 C2334 1.524 . S
C2331 C2323 1.503 . S
C2331 C2330 1.370 . S
C2331 C2332 1.403 . S
C2332 C2331 1.403 . S
C2332 C2333 1.404 . S
C2332 C2335 1.539 . S
C2333 C2329 1.408 . S
C2333 C2332 1.404 . S
C2333 H2345 0.930 . S
C2334 C2330 1.524 . S
C2334 H2346 0.956 . S
C2334 H2347 0.961 . S
C2334 H2348 0.961 . S
C2335 C2332 1.539 . S
C2335 H2349 0.958 . S
C2335 H2350 0.961 . S
C2335 H2351 0.960 . S
H2336 C2320 0.931 . S
H2337 C2325 0.929 . S
H2338 C2326 0.960 . S
H2339 C2326 0.962 . S
H2340 C2326 0.960 . S
H2341 C2327 0.961 . S
H2342 C2327 0.961 . S
H2343 C2327 0.961 . S
H2344 C2328 0.931 . S
H2345 C2333 0.930 . S
H2346 C2334 0.956 . S
H2347 C2334 0.961 . S
H2348 C2334 0.961 . S
H2349 C2335 0.958 . S
H2350 C2335 0.961 . S
H2351 C2335 0.960 . S
C2352 C2353 1.391 . S
C2352 C2354 1.394 . S
C2352 H2368 0.931 . S
C2353 C2352 1.391 . S
C2353 C2357 1.376 . S
C2354 C2352 1.394 . S
C2354 C2355 1.369 . S
C2354 C2358 1.531 . S
C2355 C2354 1.369 . S
C2355 C2356 1.410 . S
C2355 C2363 1.503 . S
C2356 C2355 1.410 . S
C2356 C2357 1.392 . S
C2356 C2359 1.511 . S
C2357 C2353 1.376 . S
C2357 C2356 1.392 . S
C2357 H2369 0.929 . S
C2358 C2354 1.531 . S
C2358 H2370 0.960 . S
C2358 H2371 0.962 . S
C2358 H2372 0.960 . S
C2359 C2356 1.511 . S
C2359 H2373 0.961 . S
C2359 H2374 0.961 . S
C2359 H2375 0.961 . S
C2360 C2361 1.370 . S
C2360 C2362 1.363 . S
C2360 H2376 0.931 . S
C2361 C2360 1.370 . S
C2361 C2365 1.408 . S
C2362 C2360 1.363 . S
C2362 C2363 1.370 . S
C2362 C2366 1.524 . S
C2363 C2355 1.503 . S
C2363 C2362 1.370 . S
C2363 C2364 1.403 . S
C2364 C2363 1.403 . S
C2364 C2365 1.404 . S
C2364 C2367 1.539 . S
C2365 C2361 1.408 . S
C2365 C2364 1.404 . S
C2365 H2377 0.930 . S
C2366 C2362 1.524 . S
C2366 H2378 0.956 . S
C2366 H2379 0.961 . S
C2366 H2380 0.961 . S
C2367 C2364 1.539 . S
C2367 H2381 0.958 . S
C2367 H2382 0.961 . S
C2367 H2383 0.960 . S
H2368 C2352 0.931 . S
H2369 C2357 0.929 . S
H2370 C2358 0.960 . S
H2371 C2358 0.962 . S
H2372 C2358 0.960 . S
H2373 C2359 0.961 . S
H2374 C2359 0.961 . S
H2375 C2359 0.961 . S
H2376 C2360 0.931 . S
H2377 C2365 0.930 . S
H2378 C2366 0.956 . S
H2379 C2366 0.961 . S
H2380 C2366 0.961 . S
H2381 C2367 0.958 . S
H2382 C2367 0.961 . S
H2383 C2367 0.960 . S
C2384 C2385 1.412 . S
C2384 C2386 1.394 . S
C2384 H2400 0.931 . S
C2385 C2384 1.412 . S
C2385 C2389 1.392 . S
C2386 C2384 1.394 . S
C2386 C2387 1.369 . S
C2386 C2390 1.531 . S
C2387 C2386 1.369 . S
C2387 C2388 1.410 . S
C2387 C2395 1.503 . S
C2388 C2387 1.410 . S
C2388 C2389 1.392 . S
C2388 C2391 1.511 . S
C2389 C2385 1.392 . S
C2389 C2388 1.392 . S
C2389 H2401 0.933 . S
C2390 C2386 1.531 . S
C2390 H2402 0.960 . S
C2390 H2403 0.962 . S
C2390 H2404 0.960 . S
C2391 C2388 1.511 . S
C2391 H2405 0.961 . S
C2391 H2406 0.961 . S
C2391 H2407 0.961 . S
C2392 C2393 1.370 . S
C2392 C2394 1.363 . S
C2392 H2408 0.931 . S
C2393 C2392 1.370 . S
C2393 C2397 1.408 . S
C2394 C2392 1.363 . S
C2394 C2395 1.370 . S
C2394 C2398 1.524 . S
C2395 C2387 1.503 . S
C2395 C2394 1.370 . S
C2395 C2396 1.403 . S
C2396 C2395 1.403 . S
C2396 C2397 1.404 . S
C2396 C2399 1.539 . S
C2397 C2393 1.408 . S
C2397 C2396 1.404 . S
C2397 H2409 0.930 . S
C2398 C2394 1.524 . S
C2398 H2410 0.956 . S
C2398 H2411 0.961 . S
C2398 H2412 0.961 . S
C2399 C2396 1.539 . S
C2399 H2413 0.958 . S
C2399 H2414 0.961 . S
C2399 H2415 0.960 . S
H2400 C2384 0.931 . S
H2401 C2389 0.933 . S
H2402 C2390 0.960 . S
H2403 C2390 0.962 . S
H2404 C2390 0.960 . S
H2405 C2391 0.961 . S
H2406 C2391 0.961 . S
H2407 C2391 0.961 . S
H2408 C2392 0.931 . S
H2409 C2397 0.930 . S
H2410 C2398 0.956 . S
H2411 C2398 0.961 . S
H2412 C2398 0.961 . S
H2413 C2399 0.958 . S
H2414 C2399 0.961 . S
H2415 C2399 0.960 . S
C2416 C2417 1.391 . S
C2416 C2418 1.394 . S
C2416 H2432 0.931 . S
C2417 C2416 1.391 . S
C2417 C2421 1.376 . S
C2418 C2416 1.394 . S
C2418 C2419 1.369 . S
C2418 C2422 1.531 . S
C2419 C2418 1.369 . S
C2419 C2420 1.410 . S
C2419 C2427 1.503 . S
C2420 C2419 1.410 . S
C2420 C2421 1.392 . S
C2420 C2423 1.511 . S
C2421 C2417 1.376 . S
C2421 C2420 1.392 . S
C2421 H2433 0.929 . S
C2422 C2418 1.531 . S
C2422 H2434 0.960 . S
C2422 H2435 0.962 . S
C2422 H2436 0.960 . S
C2423 C2420 1.511 . S
C2423 H2437 0.961 . S
C2423 H2438 0.961 . S
C2423 H2439 0.961 . S
C2424 C2425 1.370 . S
C2424 C2426 1.363 . S
C2424 H2440 0.931 . S
C2425 C2424 1.370 . S
C2425 C2429 1.408 . S
C2426 C2424 1.363 . S
C2426 C2427 1.370 . S
C2426 C2430 1.524 . S
C2427 C2419 1.503 . S
C2427 C2426 1.370 . S
C2427 C2428 1.403 . S
C2428 C2427 1.403 . S
C2428 C2429 1.404 . S
C2428 C2431 1.539 . S
C2429 C2425 1.408 . S
C2429 C2428 1.404 . S
C2429 H2441 0.930 . S
C2430 C2426 1.524 . S
C2430 H2442 0.956 . S
C2430 H2443 0.961 . S
C2430 H2444 0.961 . S
C2431 C2428 1.539 . S
C2431 H2445 0.958 . S
C2431 H2446 0.961 . S
C2431 H2447 0.960 . S
H2432 C2416 0.931 . S
H2433 C2421 0.929 . S
H2434 C2422 0.960 . S
H2435 C2422 0.962 . S
H2436 C2422 0.960 . S
H2437 C2423 0.961 . S
H2438 C2423 0.961 . S
H2439 C2423 0.961 . S
H2440 C2424 0.931 . S
H2441 C2429 0.930 . S
H2442 C2430 0.956 . S
H2443 C2430 0.961 . S
H2444 C2430 0.961 . S
H2445 C2431 0.958 . S
H2446 C2431 0.961 . S
H2447 C2431 0.960 . S
C2448 C2449 1.391 . S
C2448 C2450 1.394 . S
C2448 H2464 0.931 . S
C2449 C2448 1.391 . S
C2449 C2453 1.376 . S
C2450 C2448 1.394 . S
C2450 C2451 1.369 . S
C2450 C2454 1.531 . S
C2451 C2450 1.369 . S
C2451 C2452 1.410 . S
C2451 C2459 1.503 . S
C2452 C2451 1.410 . S
C2452 C2453 1.392 . S
C2452 C2455 1.511 . S
C2453 C2449 1.376 . S
C2453 C2452 1.392 . S
C2453 H2465 0.929 . S
C2454 C2450 1.531 . S
C2454 H2466 0.960 . S
C2454 H2467 0.962 . S
C2454 H2468 0.960 . S
C2455 C2452 1.511 . S
C2455 H2469 0.961 . S
C2455 H2470 0.961 . S
C2455 H2471 0.961 . S
C2456 C2457 1.370 . S
C2456 C2458 1.363 . S
C2456 H2472 0.931 . S
C2457 C2456 1.370 . S
C2457 C2461 1.408 . S
C2458 C2456 1.363 . S
C2458 C2459 1.370 . S
C2458 C2462 1.524 . S
C2459 C2451 1.503 . S
C2459 C2458 1.370 . S
C2459 C2460 1.403 . S
C2460 C2459 1.403 . S
C2460 C2461 1.404 . S
C2460 C2463 1.539 . S
C2461 C2457 1.408 . S
C2461 C2460 1.404 . S
C2461 H2473 0.930 . S
C2462 C2458 1.524 . S
C2462 H2474 0.956 . S
C2462 H2475 0.961 . S
C2462 H2476 0.961 . S
C2463 C2460 1.539 . S
C2463 H2477 0.958 . S
C2463 H2478 0.961 . S
C2463 H2479 0.960 . S
H2464 C2448 0.931 . S
H2465 C2453 0.929 . S
H2466 C2454 0.960 . S
H2467 C2454 0.962 . S
H2468 C2454 0.960 . S
H2469 C2455 0.961 . S
H2470 C2455 0.961 . S
H2471 C2455 0.961 . S
H2472 C2456 0.931 . S
H2473 C2461 0.930 . S
H2474 C2462 0.956 . S
H2475 C2462 0.961 . S
H2476 C2462 0.961 . S
H2477 C2463 0.958 . S
H2478 C2463 0.961 . S
H2479 C2463 0.960 . S
C2480 C2481 1.391 . S
C2480 C2482 1.394 . S
C2480 H2496 0.931 . S
C2481 C2480 1.391 . S
C2481 C2485 1.376 . S
C2482 C2480 1.394 . S
C2482 C2483 1.369 . S
C2482 C2486 1.531 . S
C2483 C2482 1.369 . S
C2483 C2484 1.410 . S
C2483 C2491 1.503 . S
C2484 C2483 1.410 . S
C2484 C2485 1.392 . S
C2484 C2487 1.511 . S
C2485 C2481 1.376 . S
C2485 C2484 1.392 . S
C2485 H2497 0.929 . S
C2486 C2482 1.531 . S
C2486 H2498 0.960 . S
C2486 H2499 0.962 . S
C2486 H2500 0.960 . S
C2487 C2484 1.511 . S
C2487 H2501 0.961 . S
C2487 H2502 0.961 . S
C2487 H2503 0.961 . S
C2488 C2489 1.370 . S
C2488 C2490 1.363 . S
C2488 H2504 0.931 . S
C2489 C2488 1.370 . S
C2489 C2493 1.408 . S
C2490 C2488 1.363 . S
C2490 C2491 1.370 . S
C2490 C2494 1.524 . S
C2491 C2483 1.503 . S
C2491 C2490 1.370 . S
C2491 C2492 1.403 . S
C2492 C2491 1.403 . S
C2492 C2493 1.404 . S
C2492 C2495 1.539 . S
C2493 C2489 1.408 . S
C2493 C2492 1.404 . S
C2493 H2505 0.930 . S
C2494 C2490 1.524 . S
C2494 H2506 0.956 . S
C2494 H2507 0.961 . S
C2494 H2508 0.961 . S
C2495 C2492 1.539 . S
C2495 H2509 0.958 . S
C2495 H2510 0.961 . S
C2495 H2511 0.960 . S
H2496 C2480 0.931 . S
H2497 C2485 0.929 . S
H2498 C2486 0.960 . S
H2499 C2486 0.962 . S
H2500 C2486 0.960 . S
H2501 C2487 0.961 . S
H2502 C2487 0.961 . S
H2503 C2487 0.961 . S
H2504 C2488 0.931 . S
H2505 C2493 0.930 . S
H2506 C2494 0.956 . S
H2507 C2494 0.961 . S
H2508 C2494 0.961 . S
H2509 C2495 0.958 . S
H2510 C2495 0.961 . S
H2511 C2495 0.960 . S
C2512 C2513 1.391 . S
C2512 C2514 1.394 . S
C2512 H2528 0.931 . S
C2513 C2512 1.391 . S
C2513 C2517 1.376 . S
C2514 C2512 1.394 . S
C2514 C2515 1.369 . S
C2514 C2518 1.531 . S
C2515 C2514 1.369 . S
C2515 C2516 1.410 . S
C2515 C2523 1.503 . S
C2516 C2515 1.410 . S
C2516 C2517 1.392 . S
C2516 C2519 1.511 . S
C2517 C2513 1.376 . S
C2517 C2516 1.392 . S
C2517 H2529 0.929 . S
C2518 C2514 1.531 . S
C2518 H2530 0.960 . S
C2518 H2531 0.962 . S
C2518 H2532 0.960 . S
C2519 C2516 1.511 . S
C2519 H2533 0.961 . S
C2519 H2534 0.961 . S
C2519 H2535 0.961 . S
C2520 C2521 1.370 . S
C2520 C2522 1.363 . S
C2520 H2536 0.931 . S
C2521 C2520 1.370 . S
C2521 C2525 1.408 . S
C2522 C2520 1.363 . S
C2522 C2523 1.370 . S
C2522 C2526 1.524 . S
C2523 C2515 1.503 . S
C2523 C2522 1.370 . S
C2523 C2524 1.403 . S
C2524 C2523 1.403 . S
C2524 C2525 1.404 . S
C2524 C2527 1.539 . S
C2525 C2521 1.408 . S
C2525 C2524 1.404 . S
C2525 H2537 0.930 . S
C2526 C2522 1.524 . S
C2526 H2538 0.956 . S
C2526 H2539 0.961 . S
C2526 H2540 0.961 . S
C2527 C2524 1.539 . S
C2527 H2541 0.958 . S
C2527 H2542 0.961 . S
C2527 H2543 0.960 . S
H2528 C2512 0.931 . S
H2529 C2517 0.929 . S
H2530 C2518 0.960 . S
H2531 C2518 0.962 . S
H2532 C2518 0.960 . S
H2533 C2519 0.961 . S
H2534 C2519 0.961 . S
H2535 C2519 0.961 . S
H2536 C2520 0.931 . S
H2537 C2525 0.930 . S
H2538 C2526 0.956 . S
H2539 C2526 0.961 . S
H2540 C2526 0.961 . S
H2541 C2527 0.958 . S
H2542 C2527 0.961 . S
H2543 C2527 0.960 . S
C2544 C2545 1.391 . S
C2544 C2546 1.394 . S
C2544 H2560 0.931 . S
C2545 C2544 1.391 . S
C2545 C2549 1.376 . S
C2546 C2544 1.394 . S
C2546 C2547 1.369 . S
C2546 C2550 1.531 . S
C2547 C2546 1.369 . S
C2547 C2548 1.410 . S
C2547 C2555 1.503 . S
C2548 C2547 1.410 . S
C2548 C2549 1.392 . S
C2548 C2551 1.511 . S
C2549 C2545 1.376 . S
C2549 C2548 1.392 . S
C2549 H2561 0.929 . S
C2550 C2546 1.531 . S
C2550 H2562 0.960 . S
C2550 H2563 0.962 . S
C2550 H2564 0.960 . S
C2551 C2548 1.511 . S
C2551 H2565 0.961 . S
C2551 H2566 0.961 . S
C2551 H2567 0.961 . S
C2552 C2553 1.370 . S
C2552 C2554 1.363 . S
C2552 H2568 0.931 . S
C2553 C2552 1.370 . S
C2553 C2557 1.408 . S
C2554 C2552 1.363 . S
C2554 C2555 1.370 . S
C2554 C2558 1.524 . S
C2555 C2547 1.503 . S
C2555 C2554 1.370 . S
C2555 C2556 1.403 . S
C2556 C2555 1.403 . S
C2556 C2557 1.404 . S
C2556 C2559 1.539 . S
C2557 C2553 1.408 . S
C2557 C2556 1.404 . S
C2557 H2569 0.930 . S
C2558 C2554 1.524 . S
C2558 H2570 0.956 . S
C2558 H2571 0.961 . S
C2558 H2572 0.961 . S
C2559 C2556 1.539 . S
C2559 H2573 0.958 . S
C2559 H2574 0.961 . S
C2559 H2575 0.960 . S
H2560 C2544 0.931 . S
H2561 C2549 0.929 . S
H2562 C2550 0.960 . S
H2563 C2550 0.962 . S
H2564 C2550 0.960 . S
H2565 C2551 0.961 . S
H2566 C2551 0.961 . S
H2567 C2551 0.961 . S
H2568 C2552 0.931 . S
H2569 C2557 0.930 . S
H2570 C2558 0.956 . S
H2571 C2558 0.961 . S
H2572 C2558 0.961 . S
H2573 C2559 0.958 . S
H2574 C2559 0.961 . S
H2575 C2559 0.960 . S
C2576 C2577 1.391 . S
C2576 C2578 1.394 . S
C2576 H2592 0.931 . S
C2577 C2576 1.391 . S
C2577 C2581 1.376 . S
C2578 C2576 1.394 . S
C2578 C2579 1.369 . S
C2578 C2582 1.531 . S
C2579 C2578 1.369 . S
C2579 C2580 1.410 . S
C2579 C2587 1.503 . S
C2580 C2579 1.410 . S
C2580 C2581 1.392 . S
C2580 C2583 1.511 1_455 S
C2581 C2577 1.376 . S
C2581 C2580 1.392 . S
C2581 H2593 0.929 1_455 S
C2582 C2578 1.531 . S
C2582 H2594 0.960 . S
C2582 H2595 0.962 . S
C2582 H2596 0.960 . S
C2583 C2580 1.511 1_655 S
C2583 H2597 0.961 . S
C2583 H2598 0.961 . S
C2583 H2599 0.961 . S
C2584 C2585 1.383 . S
C2584 C2586 1.363 1_554 S
C2584 H2600 0.931 . S
C2585 C2584 1.383 . S
C2585 C2589 1.383 1_554 S
C2586 C2584 1.363 1_556 S
C2586 C2587 1.370 . S
C2586 C2590 1.501 1_556 S
C2587 C2579 1.503 . S
C2587 C2586 1.370 . S
C2587 C2588 1.403 . S
C2588 C2587 1.403 . S
C2588 C2589 1.404 . S
C2588 C2591 1.539 . S
C2589 C2585 1.383 1_556 S
C2589 C2588 1.404 . S
C2589 H2601 0.930 . S
C2590 C2586 1.501 1_554 S
C2590 H2602 0.933 1_554 S
C2590 H2603 0.964 1_554 S
C2590 H2604 1.006 . S
C2591 C2588 1.539 . S
C2591 H2605 0.958 . S
C2591 H2606 0.961 . S
C2591 H2607 0.960 . S
H2592 C2576 0.931 . S
H2593 C2581 0.929 1_655 S
H2594 C2582 0.960 . S
H2595 C2582 0.962 . S
H2596 C2582 0.960 . S
H2597 C2583 0.961 . S
H2598 C2583 0.961 . S
H2599 C2583 0.961 . S
H2600 C2584 0.931 . S
H2601 C2589 0.930 . S
H2602 C2590 0.933 1_556 S
H2603 C2590 0.964 1_556 S
H2604 C2590 1.006 . S
H2605 C2591 0.958 . S
H2606 C2591 0.961 . S
H2607 C2591 0.960 . S
C2608 C2609 1.391 . S
C2608 C2610 1.394 . S
C2608 H2624 0.931 . S
C2609 C2608 1.391 . S
C2609 C2613 1.376 . S
C2610 C2608 1.394 . S
C2610 C2611 1.369 1_455 S
C2610 C2614 1.531 . S
C2611 C2610 1.369 1_655 S
C2611 C2612 1.410 . S
C2611 C2619 1.503 . S
C2612 C2611 1.410 . S
C2612 C2613 1.392 1_655 S
C2612 C2615 1.511 . S
C2613 C2609 1.376 . S
C2613 C2612 1.392 1_455 S
C2613 H2625 0.929 . S
C2614 C2610 1.531 . S
C2614 H2626 0.960 1_455 S
C2614 H2627 0.962 1_455 S
C2614 H2628 0.960 . S
C2615 C2612 1.511 . S
C2615 H2629 0.961 . S
C2615 H2630 0.961 . S
C2615 H2631 0.961 . S
C2616 C2617 1.370 . S
C2616 C2618 1.363 . S
C2616 H2632 0.931 . S
C2617 C2616 1.370 . S
C2617 C2621 1.408 . S
C2618 C2616 1.363 . S
C2618 C2619 1.370 . S
C2618 C2622 1.524 . S
C2619 C2611 1.503 . S
C2619 C2618 1.370 . S
C2619 C2620 1.403 . S
C2620 C2619 1.403 . S
C2620 C2621 1.404 . S
C2620 C2623 1.539 . S
C2621 C2617 1.408 . S
C2621 C2620 1.404 . S
C2621 H2633 0.930 . S
C2622 C2618 1.524 . S
C2622 H2634 0.956 . S
C2622 H2635 0.961 . S
C2622 H2636 0.961 . S
C2623 C2620 1.539 . S
C2623 H2637 0.958 . S
C2623 H2638 0.961 . S
C2623 H2639 0.960 . S
H2624 C2608 0.931 . S
H2625 C2613 0.929 . S
H2626 C2614 0.960 1_655 S
H2627 C2614 0.962 1_655 S
H2628 C2614 0.960 . S
H2629 C2615 0.961 . S
H2630 C2615 0.961 . S
H2631 C2615 0.961 . S
H2632 C2616 0.931 . S
H2633 C2621 0.930 . S
H2634 C2622 0.956 . S
H2635 C2622 0.961 . S
H2636 C2622 0.961 . S
H2637 C2623 0.958 . S
H2638 C2623 0.961 . S
H2639 C2623 0.960 . S
C2640 C2641 1.391 . S
C2640 C2642 1.394 . S
C2640 H2656 0.931 . S
C2641 C2640 1.391 . S
C2641 C2645 1.376 . S
C2642 C2640 1.394 . S
C2642 C2643 1.369 . S
C2642 C2646 1.531 . S
C2643 C2642 1.369 . S
C2643 C2644 1.410 . S
C2643 C2651 1.503 . S
C2644 C2643 1.410 . S
C2644 C2645 1.392 . S
C2644 C2647 1.511 . S
C2645 C2641 1.376 . S
C2645 C2644 1.392 . S
C2645 H2657 0.929 . S
C2646 C2642 1.531 . S
C2646 H2658 0.960 . S
C2646 H2659 0.962 . S
C2646 H2660 0.960 . S
C2647 C2644 1.511 . S
C2647 H2661 0.961 . S
C2647 H2662 0.961 . S
C2647 H2663 0.961 . S
C2648 C2649 1.370 . S
C2648 C2650 1.363 . S
C2648 H2664 0.931 . S
C2649 C2648 1.370 . S
C2649 C2653 1.408 . S
C2650 C2648 1.363 . S
C2650 C2651 1.370 . S
C2650 C2654 1.524 . S
C2651 C2643 1.503 . S
C2651 C2650 1.370 . S
C2651 C2652 1.403 . S
C2652 C2651 1.403 . S
C2652 C2653 1.404 . S
C2652 C2655 1.539 . S
C2653 C2649 1.408 . S
C2653 C2652 1.404 . S
C2653 H2665 0.930 . S
C2654 C2650 1.524 . S
C2654 H2666 0.956 . S
C2654 H2667 0.961 . S
C2654 H2668 0.961 . S
C2655 C2652 1.539 . S
C2655 H2669 0.958 . S
C2655 H2670 0.961 . S
C2655 H2671 0.960 . S
H2656 C2640 0.931 . S
H2657 C2645 0.929 . S
H2658 C2646 0.960 . S
H2659 C2646 0.962 . S
H2660 C2646 0.960 . S
H2661 C2647 0.961 . S
H2662 C2647 0.961 . S
H2663 C2647 0.961 . S
H2664 C2648 0.931 . S
H2665 C2653 0.930 . S
H2666 C2654 0.956 . S
H2667 C2654 0.961 . S
H2668 C2654 0.961 . S
H2669 C2655 0.958 . S
H2670 C2655 0.961 . S
H2671 C2655 0.960 . S
C2672 C2673 1.391 . S
C2672 C2674 1.394 . S
C2672 H2688 0.931 . S
C2673 C2672 1.391 . S
C2673 C2677 1.376 . S
C2674 C2672 1.394 . S
C2674 C2675 1.369 . S
C2674 C2678 1.531 1_455 S
C2675 C2674 1.369 . S
C2675 C2676 1.410 . S
C2675 C2683 1.503 1_455 S
C2676 C2675 1.410 . S
C2676 C2677 1.392 . S
C2676 C2679 1.511 . S
C2677 C2673 1.376 . S
C2677 C2676 1.392 . S
C2677 H2689 0.929 . S
C2678 C2674 1.531 1_655 S
C2678 H2690 0.960 . S
C2678 H2691 0.962 . S
C2678 H2692 0.960 . S
C2679 C2676 1.511 . S
C2679 H2693 0.961 . S
C2679 H2694 0.961 . S
C2679 H2695 0.961 . S
C2680 C2681 1.370 . S
C2680 C2682 1.363 . S
C2680 H2696 0.931 . S
C2681 C2680 1.370 . S
C2681 C2685 1.408 . S
C2682 C2680 1.363 . S
C2682 C2683 1.370 . S
C2682 C2686 1.524 . S
C2683 C2675 1.503 1_655 S
C2683 C2682 1.370 . S
C2683 C2684 1.403 . S
C2684 C2683 1.403 . S
C2684 C2685 1.404 . S
C2684 C2687 1.539 . S
C2685 C2681 1.408 . S
C2685 C2684 1.404 . S
C2685 H2697 0.930 . S
C2686 C2682 1.524 . S
C2686 H2698 0.956 . S
C2686 H2699 0.961 . S
C2686 H2700 0.961 . S
C2687 C2684 1.539 . S
C2687 H2701 0.958 . S
C2687 H2702 0.961 . S
C2687 H2703 0.960 1_655 S
H2688 C2672 0.931 . S
H2689 C2677 0.929 . S
H2690 C2678 0.960 . S
H2691 C2678 0.962 . S
H2692 C2678 0.960 . S
H2693 C2679 0.961 . S
H2694 C2679 0.961 . S
H2695 C2679 0.961 . S
H2696 C2680 0.931 . S
H2697 C2685 0.930 . S
H2698 C2686 0.956 . S
H2699 C2686 0.961 . S
H2700 C2686 0.961 . S
H2701 C2687 0.958 . S
H2702 C2687 0.961 . S
H2703 C2687 0.960 1_455 S
C2704 C2705 1.391 1_455 S
C2704 C2706 1.394 . S
C2704 H2720 0.931 . S
C2705 C2704 1.391 1_655 S
C2705 C2709 1.376 . S
C2706 C2704 1.394 . S
C2706 C2707 1.369 . S
C2706 C2710 1.531 . S
C2707 C2706 1.369 . S
C2707 C2708 1.410 1_455 S
C2707 C2715 1.503 . S
C2708 C2707 1.410 1_655 S
C2708 C2709 1.392 . S
C2708 C2711 1.511 . S
C2709 C2705 1.376 . S
C2709 C2708 1.392 . S
C2709 H2721 0.929 . S
C2710 C2706 1.531 . S
C2710 H2722 0.960 . S
C2710 H2723 0.962 . S
C2710 H2724 0.960 . S
C2711 C2708 1.511 . S
C2711 H2725 0.961 . S
C2711 H2726 0.961 . S
C2711 H2727 0.961 . S
C2712 C2713 1.370 . S
C2712 C2714 1.363 . S
C2712 H2728 0.931 . S
C2713 C2712 1.370 . S
C2713 C2717 1.408 . S
C2714 C2712 1.363 . S
C2714 C2715 1.370 . S
C2714 C2718 1.524 . S
C2715 C2707 1.503 . S
C2715 C2714 1.370 . S
C2715 C2716 1.403 . S
C2716 C2715 1.403 . S
C2716 C2717 1.404 . S
C2716 C2719 1.539 . S
C2717 C2713 1.408 . S
C2717 C2716 1.404 . S
C2717 H2729 0.930 . S
C2718 C2714 1.524 . S
C2718 H2730 0.956 . S
C2718 H2731 0.961 . S
C2718 H2732 0.961 . S
C2719 C2716 1.539 . S
C2719 H2733 0.958 . S
C2719 H2734 0.961 . S
C2719 H2735 0.960 . S
H2720 C2704 0.931 . S
H2721 C2709 0.929 . S
H2722 C2710 0.960 . S
H2723 C2710 0.962 . S
H2724 C2710 0.960 . S
H2725 C2711 0.961 . S
H2726 C2711 0.961 . S
H2727 C2711 0.961 . S
H2728 C2712 0.931 . S
H2729 C2717 0.930 . S
H2730 C2718 0.956 . S
H2731 C2718 0.961 . S
H2732 C2718 0.961 . S
H2733 C2719 0.958 . S
H2734 C2719 0.961 . S
H2735 C2719 0.960 . S
C2736 C2737 1.391 . S
C2736 C2738 1.394 . S
C2736 H2752 0.931 . S
C2737 C2736 1.391 . S
C2737 C2741 1.376 . S
C2738 C2736 1.394 . S
C2738 C2739 1.369 . S
C2738 C2742 1.531 . S
C2739 C2738 1.369 . S
C2739 C2740 1.410 . S
C2739 C2747 1.503 . S
C2740 C2739 1.410 . S
C2740 C2741 1.392 . S
C2740 C2743 1.511 . S
C2741 C2737 1.376 . S
C2741 C2740 1.392 . S
C2741 H2753 0.929 . S
C2742 C2738 1.531 . S
C2742 H2754 0.960 . S
C2742 H2755 0.962 . S
C2742 H2756 0.960 . S
C2743 C2740 1.511 . S
C2743 H2757 0.961 . S
C2743 H2758 0.961 . S
C2743 H2759 0.961 . S
C2744 C2745 1.370 . S
C2744 C2746 1.363 . S
C2744 H2760 0.931 . S
C2745 C2744 1.370 . S
C2745 C2749 1.408 . S
C2746 C2744 1.363 . S
C2746 C2747 1.370 . S
C2746 C2750 1.524 . S
C2747 C2739 1.503 . S
C2747 C2746 1.370 . S
C2747 C2748 1.403 . S
C2748 C2747 1.403 . S
C2748 C2749 1.404 . S
C2748 C2751 1.539 . S
C2749 C2745 1.408 . S
C2749 C2748 1.404 . S
C2749 H2761 0.930 . S
C2750 C2746 1.524 . S
C2750 H2762 0.956 . S
C2750 H2763 0.961 . S
C2750 H2764 0.961 . S
C2751 C2748 1.539 . S
C2751 H2765 0.958 . S
C2751 H2766 0.961 . S
C2751 H2767 0.960 . S
H2752 C2736 0.931 . S
H2753 C2741 0.929 . S
H2754 C2742 0.960 . S
H2755 C2742 0.962 . S
H2756 C2742 0.960 . S
H2757 C2743 0.961 . S
H2758 C2743 0.961 . S
H2759 C2743 0.961 . S
H2760 C2744 0.931 . S
H2761 C2749 0.930 . S
H2762 C2750 0.956 . S
H2763 C2750 0.961 . S
H2764 C2750 0.961 . S
H2765 C2751 0.958 . S
H2766 C2751 0.961 . S
H2767 C2751 0.960 . S
C2768 C2769 1.391 . S
C2768 C2770 1.394 . S
C2768 H2784 0.931 . S
C2769 C2768 1.391 . S
C2769 C2773 1.376 . S
C2770 C2768 1.394 . S
C2770 C2771 1.369 . S
C2770 C2774 1.531 . S
C2771 C2770 1.369 . S
C2771 C2772 1.410 . S
C2771 C2779 1.503 . S
C2772 C2771 1.410 . S
C2772 C2773 1.392 . S
C2772 C2775 1.511 . S
C2773 C2769 1.376 . S
C2773 C2772 1.392 . S
C2773 H2785 0.929 . S
C2774 C2770 1.531 . S
C2774 H2786 0.960 . S
C2774 H2787 0.962 . S
C2774 H2788 0.960 . S
C2775 C2772 1.511 . S
C2775 H2789 0.961 . S
C2775 H2790 0.961 . S
C2775 H2791 0.961 . S
C2776 C2777 1.370 . S
C2776 C2778 1.363 . S
C2776 H2792 0.931 . S
C2777 C2776 1.370 . S
C2777 C2781 1.408 . S
C2778 C2776 1.363 . S
C2778 C2779 1.370 . S
C2778 C2782 1.524 . S
C2779 C2771 1.503 . S
C2779 C2778 1.370 . S
C2779 C2780 1.403 . S
C2780 C2779 1.403 . S
C2780 C2781 1.404 . S
C2780 C2783 1.539 . S
C2781 C2777 1.408 . S
C2781 C2780 1.404 . S
C2781 H2793 0.930 . S
C2782 C2778 1.524 . S
C2782 H2794 0.956 . S
C2782 H2795 0.961 . S
C2782 H2796 0.961 . S
C2783 C2780 1.539 . S
C2783 H2797 0.958 . S
C2783 H2798 0.961 . S
C2783 H2799 0.960 . S
H2784 C2768 0.931 . S
H2785 C2773 0.929 . S
H2786 C2774 0.960 . S
H2787 C2774 0.962 . S
H2788 C2774 0.960 . S
H2789 C2775 0.961 . S
H2790 C2775 0.961 . S
H2791 C2775 0.961 . S
H2792 C2776 0.931 . S
H2793 C2781 0.930 . S
H2794 C2782 0.956 . S
H2795 C2782 0.961 . S
H2796 C2782 0.961 . S
H2797 C2783 0.958 . S
H2798 C2783 0.961 . S
H2799 C2783 0.960 . S
C2800 C2801 1.391 . S
C2800 C2802 1.394 . S
C2800 H2816 0.931 . S
C2801 C2800 1.391 . S
C2801 C2805 1.376 . S
C2802 C2800 1.394 . S
C2802 C2803 1.369 . S
C2802 C2806 1.531 . S
C2803 C2802 1.369 . S
C2803 C2804 1.410 . S
C2803 C2811 1.503 . S
C2804 C2803 1.410 . S
C2804 C2805 1.392 . S
C2804 C2807 1.511 . S
C2805 C2801 1.376 . S
C2805 C2804 1.392 . S
C2805 H2817 0.929 . S
C2806 C2802 1.531 . S
C2806 H2818 0.960 . S
C2806 H2819 0.962 . S
C2806 H2820 0.960 . S
C2807 C2804 1.511 . S
C2807 H2821 0.961 . S
C2807 H2822 0.961 . S
C2807 H2823 0.961 . S
C2808 C2809 1.370 . S
C2808 C2810 1.363 . S
C2808 H2824 0.931 . S
C2809 C2808 1.370 . S
C2809 C2813 1.408 . S
C2810 C2808 1.363 . S
C2810 C2811 1.370 . S
C2810 C2814 1.524 . S
C2811 C2803 1.503 . S
C2811 C2810 1.370 . S
C2811 C2812 1.403 . S
C2812 C2811 1.403 . S
C2812 C2813 1.404 . S
C2812 C2815 1.539 . S
C2813 C2809 1.408 . S
C2813 C2812 1.404 . S
C2813 H2825 0.930 . S
C2814 C2810 1.524 . S
C2814 H2826 0.956 . S
C2814 H2827 0.961 . S
C2814 H2828 0.961 . S
C2815 C2812 1.539 . S
C2815 H2829 0.958 . S
C2815 H2830 0.961 . S
C2815 H2831 0.960 . S
H2816 C2800 0.931 . S
H2817 C2805 0.929 . S
H2818 C2806 0.960 . S
H2819 C2806 0.962 . S
H2820 C2806 0.960 . S
H2821 C2807 0.961 . S
H2822 C2807 0.961 . S
H2823 C2807 0.961 . S
H2824 C2808 0.931 . S
H2825 C2813 0.930 . S
H2826 C2814 0.956 . S
H2827 C2814 0.961 . S
H2828 C2814 0.961 . S
H2829 C2815 0.958 . S
H2830 C2815 0.961 . S
H2831 C2815 0.960 . S
C2832 C2833 1.391 . S
C2832 C2834 1.394 . S
C2832 H2848 0.931 . S
C2833 C2832 1.391 . S
C2833 C2837 1.376 . S
C2834 C2832 1.394 . S
C2834 C2835 1.369 . S
C2834 C2838 1.531 . S
C2835 C2834 1.369 . S
C2835 C2836 1.410 . S
C2835 C2843 1.503 . S
C2836 C2835 1.410 . S
C2836 C2837 1.392 . S
C2836 C2839 1.511 . S
C2837 C2833 1.376 . S
C2837 C2836 1.392 . S
C2837 H2849 0.929 . S
C2838 C2834 1.531 . S
C2838 H2850 0.960 . S
C2838 H2851 0.962 . S
C2838 H2852 0.960 . S
C2839 C2836 1.511 . S
C2839 H2853 0.961 . S
C2839 H2854 0.961 . S
C2839 H2855 0.961 . S
C2840 C2841 1.370 . S
C2840 C2842 1.363 . S
C2840 H2856 0.931 . S
C2841 C2840 1.370 . S
C2841 C2845 1.408 . S
C2842 C2840 1.363 . S
C2842 C2843 1.370 . S
C2842 C2846 1.524 . S
C2843 C2835 1.503 . S
C2843 C2842 1.370 . S
C2843 C2844 1.403 . S
C2844 C2843 1.403 . S
C2844 C2845 1.404 . S
C2844 C2847 1.539 . S
C2845 C2841 1.408 . S
C2845 C2844 1.404 . S
C2845 H2857 0.930 . S
C2846 C2842 1.524 . S
C2846 H2858 0.956 . S
C2846 H2859 0.961 . S
C2846 H2860 0.961 . S
C2847 C2844 1.539 . S
C2847 H2861 0.958 . S
C2847 H2862 0.961 . S
C2847 H2863 0.960 . S
H2848 C2832 0.931 . S
H2849 C2837 0.929 . S
H2850 C2838 0.960 . S
H2851 C2838 0.962 . S
H2852 C2838 0.960 . S
H2853 C2839 0.961 . S
H2854 C2839 0.961 . S
H2855 C2839 0.961 . S
H2856 C2840 0.931 . S
H2857 C2845 0.930 . S
H2858 C2846 0.956 . S
H2859 C2846 0.961 . S
H2860 C2846 0.961 . S
H2861 C2847 0.958 . S
H2862 C2847 0.961 . S
H2863 C2847 0.960 . S
C2864 C2865 1.391 . S
C2864 C2866 1.394 . S
C2864 H2880 0.931 . S
C2865 C2864 1.391 . S
C2865 C2869 1.376 . S
C2866 C2864 1.394 . S
C2866 C2867 1.369 . S
C2866 C2870 1.531 . S
C2867 C2866 1.369 . S
C2867 C2868 1.410 . S
C2867 C2875 1.503 . S
C2868 C2867 1.410 . S
C2868 C2869 1.392 . S
C2868 C2871 1.511 . S
C2869 C2865 1.376 . S
C2869 C2868 1.392 . S
C2869 H2881 0.929 . S
C2870 C2866 1.531 . S
C2870 H2882 0.960 . S
C2870 H2883 0.962 . S
C2870 H2884 0.960 . S
C2871 C2868 1.511 . S
C2871 H2885 0.961 . S
C2871 H2886 0.961 . S
C2871 H2887 0.961 . S
C2872 C2873 1.370 . S
C2872 C2874 1.363 . S
C2872 H2888 0.931 . S
C2873 C2872 1.370 . S
C2873 C2877 1.408 . S
C2874 C2872 1.363 . S
C2874 C2875 1.370 . S
C2874 C2878 1.524 . S
C2875 C2867 1.503 . S
C2875 C2874 1.370 . S
C2875 C2876 1.403 . S
C2876 C2875 1.403 . S
C2876 C2877 1.404 . S
C2876 C2879 1.539 . S
C2877 C2873 1.408 . S
C2877 C2876 1.404 . S
C2877 H2889 0.930 . S
C2878 C2874 1.524 . S
C2878 H2890 0.956 . S
C2878 H2891 0.961 . S
C2878 H2892 0.961 . S
C2879 C2876 1.539 . S
C2879 H2893 0.958 . S
C2879 H2894 0.961 . S
C2879 H2895 0.960 . S
H2880 C2864 0.931 . S
H2881 C2869 0.929 . S
H2882 C2870 0.960 . S
H2883 C2870 0.962 . S
H2884 C2870 0.960 . S
H2885 C2871 0.961 . S
H2886 C2871 0.961 . S
H2887 C2871 0.961 . S
H2888 C2872 0.931 . S
H2889 C2877 0.930 . S
H2890 C2878 0.956 . S
H2891 C2878 0.961 . S
H2892 C2878 0.961 . S
H2893 C2879 0.958 . S
H2894 C2879 0.961 . S
H2895 C2879 0.960 . S
C2896 C2897 1.391 . S
C2896 C2898 1.394 . S
C2896 H2912 0.931 . S
C2897 C2896 1.391 . S
C2897 C2901 1.376 . S
C2898 C2896 1.394 . S
C2898 C2899 1.369 . S
C2898 C2902 1.531 . S
C2899 C2898 1.369 . S
C2899 C2900 1.410 . S
C2899 C2907 1.503 . S
C2900 C2899 1.410 . S
C2900 C2901 1.392 . S
C2900 C2903 1.511 . S
C2901 C2897 1.376 . S
C2901 C2900 1.392 . S
C2901 H2913 0.929 . S
C2902 C2898 1.531 . S
C2902 H2914 0.960 . S
C2902 H2915 0.962 . S
C2902 H2916 0.960 . S
C2903 C2900 1.511 . S
C2903 H2917 0.961 . S
C2903 H2918 0.961 . S
C2903 H2919 0.961 . S
C2904 C2905 1.370 . S
C2904 C2906 1.363 . S
C2904 H2920 0.931 . S
C2905 C2904 1.370 . S
C2905 C2909 1.408 . S
C2906 C2904 1.363 . S
C2906 C2907 1.370 . S
C2906 C2910 1.524 . S
C2907 C2899 1.503 . S
C2907 C2906 1.370 . S
C2907 C2908 1.403 . S
C2908 C2907 1.403 . S
C2908 C2909 1.404 . S
C2908 C2911 1.539 . S
C2909 C2905 1.408 . S
C2909 C2908 1.404 . S
C2909 H2921 0.930 . S
C2910 C2906 1.524 . S
C2910 H2922 0.956 . S
C2910 H2923 0.961 . S
C2910 H2924 0.961 . S
C2911 C2908 1.539 . S
C2911 H2925 0.958 . S
C2911 H2926 0.961 . S
C2911 H2927 0.960 . S
H2912 C2896 0.931 . S
H2913 C2901 0.929 . S
H2914 C2902 0.960 . S
H2915 C2902 0.962 . S
H2916 C2902 0.960 . S
H2917 C2903 0.961 . S
H2918 C2903 0.961 . S
H2919 C2903 0.961 . S
H2920 C2904 0.931 . S
H2921 C2909 0.930 . S
H2922 C2910 0.956 . S
H2923 C2910 0.961 . S
H2924 C2910 0.961 . S
H2925 C2911 0.958 . S
H2926 C2911 0.961 . S
H2927 C2911 0.960 . S
C2928 C2929 1.391 . S
C2928 C2930 1.394 . S
C2928 H2944 0.931 . S
C2929 C2928 1.391 . S
C2929 C2933 1.376 . S
C2930 C2928 1.394 . S
C2930 C2931 1.369 . S
C2930 C2934 1.531 . S
C2931 C2930 1.369 . S
C2931 C2932 1.410 . S
C2931 C2939 1.503 . S
C2932 C2931 1.410 . S
C2932 C2933 1.392 . S
C2932 C2935 1.511 . S
C2933 C2929 1.376 . S
C2933 C2932 1.392 . S
C2933 H2945 0.929 . S
C2934 C2930 1.531 . S
C2934 H2946 0.960 . S
C2934 H2947 0.962 . S
C2934 H2948 0.960 . S
C2935 C2932 1.511 . S
C2935 H2949 0.961 . S
C2935 H2950 0.961 . S
C2935 H2951 0.961 . S
C2936 C2937 1.370 . S
C2936 C2938 1.363 . S
C2936 H2952 0.931 . S
C2937 C2936 1.370 . S
C2937 C2941 1.408 . S
C2938 C2936 1.363 . S
C2938 C2939 1.370 . S
C2938 C2942 1.524 . S
C2939 C2931 1.503 . S
C2939 C2938 1.370 . S
C2939 C2940 1.403 . S
C2940 C2939 1.403 . S
C2940 C2941 1.404 . S
C2940 C2943 1.539 . S
C2941 C2937 1.408 . S
C2941 C2940 1.404 . S
C2941 H2953 0.930 . S
C2942 C2938 1.524 . S
C2942 H2954 0.956 . S
C2942 H2955 0.961 . S
C2942 H2956 0.961 . S
C2943 C2940 1.539 . S
C2943 H2957 0.958 . S
C2943 H2958 0.961 . S
C2943 H2959 0.960 . S
H2944 C2928 0.931 . S
H2945 C2933 0.929 . S
H2946 C2934 0.960 . S
H2947 C2934 0.962 . S
H2948 C2934 0.960 . S
H2949 C2935 0.961 . S
H2950 C2935 0.961 . S
H2951 C2935 0.961 . S
H2952 C2936 0.931 . S
H2953 C2941 0.930 . S
H2954 C2942 0.956 . S
H2955 C2942 0.961 . S
H2956 C2942 0.961 . S
H2957 C2943 0.958 . S
H2958 C2943 0.961 . S
H2959 C2943 0.960 . S
C2960 C2961 1.391 . S
C2960 C2962 1.394 . S
C2960 H2976 0.931 . S
C2961 C2960 1.391 . S
C2961 C2965 1.376 . S
C2962 C2960 1.394 . S
C2962 C2963 1.369 . S
C2962 C2966 1.531 . S
C2963 C2962 1.369 . S
C2963 C2964 1.410 . S
C2963 C2971 1.503 . S
C2964 C2963 1.410 . S
C2964 C2965 1.392 . S
C2964 C2967 1.511 . S
C2965 C2961 1.376 . S
C2965 C2964 1.392 . S
C2965 H2977 0.929 . S
C2966 C2962 1.531 . S
C2966 H2978 0.960 . S
C2966 H2979 0.962 . S
C2966 H2980 0.960 . S
C2967 C2964 1.511 . S
C2967 H2981 0.961 . S
C2967 H2982 0.961 . S
C2967 H2983 0.961 . S
C2968 C2969 1.370 . S
C2968 C2970 1.363 . S
C2968 H2984 0.931 . S
C2969 C2968 1.370 . S
C2969 C2973 1.408 . S
C2970 C2968 1.363 . S
C2970 C2971 1.370 . S
C2970 C2974 1.524 . S
C2971 C2963 1.503 . S
C2971 C2970 1.370 . S
C2971 C2972 1.403 . S
C2972 C2971 1.403 . S
C2972 C2973 1.404 . S
C2972 C2975 1.539 . S
C2973 C2969 1.408 . S
C2973 C2972 1.404 . S
C2973 H2985 0.930 . S
C2974 C2970 1.524 . S
C2974 H2986 0.956 . S
C2974 H2987 0.961 . S
C2974 H2988 0.961 . S
C2975 C2972 1.539 . S
C2975 H2989 0.958 . S
C2975 H2990 0.961 . S
C2975 H2991 0.960 . S
H2976 C2960 0.931 . S
H2977 C2965 0.929 . S
H2978 C2966 0.960 . S
H2979 C2966 0.962 . S
H2980 C2966 0.960 . S
H2981 C2967 0.961 . S
H2982 C2967 0.961 . S
H2983 C2967 0.961 . S
H2984 C2968 0.931 . S
H2985 C2973 0.930 . S
H2986 C2974 0.956 . S
H2987 C2974 0.961 . S
H2988 C2974 0.961 . S
H2989 C2975 0.958 . S
H2990 C2975 0.961 . S
H2991 C2975 0.960 . S
C2992 C2993 1.391 . S
C2992 C2994 1.394 . S
C2992 H3008 0.931 . S
C2993 C2992 1.391 . S
C2993 C2997 1.376 . S
C2994 C2992 1.394 . S
C2994 C2995 1.369 . S
C2994 C2998 1.531 . S
C2995 C2994 1.369 . S
C2995 C2996 1.410 . S
C2995 C3003 1.503 . S
C2996 C2995 1.410 . S
C2996 C2997 1.392 . S
C2996 C2999 1.511 . S
C2997 C2993 1.376 . S
C2997 C2996 1.392 . S
C2997 H3009 0.929 . S
C2998 C2994 1.531 . S
C2998 H3010 0.960 . S
C2998 H3011 0.962 . S
C2998 H3012 0.960 . S
C2999 C2996 1.511 . S
C2999 H3013 0.961 . S
C2999 H3014 0.961 . S
C2999 H3015 0.961 . S
C3000 C3001 1.370 . S
C3000 C3002 1.363 . S
C3000 H3016 0.931 . S
C3001 C3000 1.370 . S
C3001 C3005 1.408 . S
C3002 C3000 1.363 . S
C3002 C3003 1.370 . S
C3002 C3006 1.524 . S
C3003 C2995 1.503 . S
C3003 C3002 1.370 . S
C3003 C3004 1.403 . S
C3004 C3003 1.403 . S
C3004 C3005 1.404 . S
C3004 C3007 1.539 . S
C3005 C3001 1.408 . S
C3005 C3004 1.404 . S
C3005 H3017 0.930 . S
C3006 C3002 1.524 . S
C3006 H3018 0.956 . S
C3006 H3019 0.961 . S
C3006 H3020 0.961 . S
C3007 C3004 1.539 . S
C3007 H3021 0.958 . S
C3007 H3022 0.961 . S
C3007 H3023 0.960 . S
H3008 C2992 0.931 . S
H3009 C2997 0.929 . S
H3010 C2998 0.960 . S
H3011 C2998 0.962 . S
H3012 C2998 0.960 . S
H3013 C2999 0.961 . S
H3014 C2999 0.961 . S
H3015 C2999 0.961 . S
H3016 C3000 0.931 . S
H3017 C3005 0.930 . S
H3018 C3006 0.956 . S
H3019 C3006 0.961 . S
H3020 C3006 0.961 . S
H3021 C3007 0.958 . S
H3022 C3007 0.961 . S
H3023 C3007 0.960 . S
C3024 C3025 1.391 . S
C3024 C3026 1.394 . S
C3024 H3040 0.931 . S
C3025 C3024 1.391 . S
C3025 C3029 1.376 . S
C3026 C3024 1.394 . S
C3026 C3027 1.369 . S
C3026 C3030 1.531 . S
C3027 C3026 1.369 . S
C3027 C3028 1.410 . S
C3027 C3035 1.503 . S
C3028 C3027 1.410 . S
C3028 C3029 1.392 . S
C3028 C3031 1.511 . S
C3029 C3025 1.376 . S
C3029 C3028 1.392 . S
C3029 H3041 0.929 . S
C3030 C3026 1.531 . S
C3030 H3042 0.960 . S
C3030 H3043 0.962 . S
C3030 H3044 0.960 . S
C3031 C3028 1.511 . S
C3031 H3045 0.961 . S
C3031 H3046 0.961 . S
C3031 H3047 0.961 . S
C3032 C3033 1.370 . S
C3032 C3034 1.363 . S
C3032 H3048 0.931 . S
C3033 C3032 1.370 . S
C3033 C3037 1.408 . S
C3034 C3032 1.363 . S
C3034 C3035 1.370 . S
C3034 C3038 1.524 . S
C3035 C3027 1.503 . S
C3035 C3034 1.370 . S
C3035 C3036 1.403 . S
C3036 C3035 1.403 . S
C3036 C3037 1.404 . S
C3036 C3039 1.539 . S
C3037 C3033 1.408 . S
C3037 C3036 1.404 . S
C3037 H3049 0.930 . S
C3038 C3034 1.524 . S
C3038 H3050 0.956 . S
C3038 H3051 0.961 . S
C3038 H3052 0.961 . S
C3039 C3036 1.539 . S
C3039 H3053 0.958 . S
C3039 H3054 0.961 . S
C3039 H3055 0.960 . S
H3040 C3024 0.931 . S
H3041 C3029 0.929 . S
H3042 C3030 0.960 . S
H3043 C3030 0.962 . S
H3044 C3030 0.960 . S
H3045 C3031 0.961 . S
H3046 C3031 0.961 . S
H3047 C3031 0.961 . S
H3048 C3032 0.931 . S
H3049 C3037 0.930 . S
H3050 C3038 0.956 . S
H3051 C3038 0.961 . S
H3052 C3038 0.961 . S
H3053 C3039 0.958 . S
H3054 C3039 0.961 . S
H3055 C3039 0.960 . S
C3056 C3057 1.391 . S
C3056 C3058 1.394 . S
C3056 H3072 0.931 . S
C3057 C3056 1.391 . S
C3057 C3061 1.376 . S
C3058 C3056 1.394 . S
C3058 C3059 1.369 . S
C3058 C3062 1.531 . S
C3059 C3058 1.369 . S
C3059 C3060 1.410 . S
C3059 C3067 1.503 . S
C3060 C3059 1.410 . S
C3060 C3061 1.392 . S
C3060 C3063 1.511 . S
C3061 C3057 1.376 . S
C3061 C3060 1.392 . S
C3061 H3073 0.929 . S
C3062 C3058 1.531 . S
C3062 H3074 0.960 . S
C3062 H3075 0.962 . S
C3062 H3076 0.960 . S
C3063 C3060 1.511 . S
C3063 H3077 0.961 . S
C3063 H3078 0.961 . S
C3063 H3079 0.961 . S
C3064 C3065 1.370 . S
C3064 C3066 1.363 . S
C3064 H3080 0.931 . S
C3065 C3064 1.370 . S
C3065 C3069 1.408 . S
C3066 C3064 1.363 . S
C3066 C3067 1.370 . S
C3066 C3070 1.524 . S
C3067 C3059 1.503 . S
C3067 C3066 1.370 . S
C3067 C3068 1.403 . S
C3068 C3067 1.403 . S
C3068 C3069 1.404 . S
C3068 C3071 1.539 . S
C3069 C3065 1.408 . S
C3069 C3068 1.404 . S
C3069 H3081 0.930 . S
C3070 C3066 1.524 . S
C3070 H3082 0.956 . S
C3070 H3083 0.961 . S
C3070 H3084 0.961 . S
C3071 C3068 1.539 . S
C3071 H3085 0.958 . S
C3071 H3086 0.961 . S
C3071 H3087 0.960 . S
H3072 C3056 0.931 . S
H3073 C3061 0.929 . S
H3074 C3062 0.960 . S
H3075 C3062 0.962 . S
H3076 C3062 0.960 . S
H3077 C3063 0.961 . S
H3078 C3063 0.961 . S
H3079 C3063 0.961 . S
H3080 C3064 0.931 . S
H3081 C3069 0.930 . S
H3082 C3070 0.956 . S
H3083 C3070 0.961 . S
H3084 C3070 0.961 . S
H3085 C3071 0.958 . S
H3086 C3071 0.961 . S
H3087 C3071 0.960 . S
C3088 C3089 1.391 . S
C3088 C3090 1.394 . S
C3088 H3104 0.931 . S
C3089 C3088 1.391 . S
C3089 C3093 1.376 . S
C3090 C3088 1.394 . S
C3090 C3091 1.369 . S
C3090 C3094 1.531 . S
C3091 C3090 1.369 . S
C3091 C3092 1.410 . S
C3091 C3099 1.503 . S
C3092 C3091 1.410 . S
C3092 C3093 1.392 . S
C3092 C3095 1.511 . S
C3093 C3089 1.376 . S
C3093 C3092 1.392 . S
C3093 H3105 0.929 . S
C3094 C3090 1.531 . S
C3094 H3106 0.960 . S
C3094 H3107 0.962 . S
C3094 H3108 0.960 . S
C3095 C3092 1.511 . S
C3095 H3109 0.961 . S
C3095 H3110 0.961 . S
C3095 H3111 0.961 . S
C3096 C3097 1.370 . S
C3096 C3098 1.363 . S
C3096 H3112 0.931 . S
C3097 C3096 1.370 . S
C3097 C3101 1.408 . S
C3098 C3096 1.363 . S
C3098 C3099 1.370 . S
C3098 C3102 1.524 . S
C3099 C3091 1.503 . S
C3099 C3098 1.370 . S
C3099 C3100 1.403 . S
C3100 C3099 1.403 . S
C3100 C3101 1.404 . S
C3100 C3103 1.539 . S
C3101 C3097 1.408 . S
C3101 C3100 1.404 . S
C3101 H3113 0.930 . S
C3102 C3098 1.524 . S
C3102 H3114 0.956 . S
C3102 H3115 0.961 . S
C3102 H3116 0.961 . S
C3103 C3100 1.539 . S
C3103 H3117 0.958 . S
C3103 H3118 0.961 . S
C3103 H3119 0.960 . S
H3104 C3088 0.931 . S
H3105 C3093 0.929 . S
H3106 C3094 0.960 . S
H3107 C3094 0.962 . S
H3108 C3094 0.960 . S
H3109 C3095 0.961 . S
H3110 C3095 0.961 . S
H3111 C3095 0.961 . S
H3112 C3096 0.931 . S
H3113 C3101 0.930 . S
H3114 C3102 0.956 . S
H3115 C3102 0.961 . S
H3116 C3102 0.961 . S
H3117 C3103 0.958 . S
H3118 C3103 0.961 . S
H3119 C3103 0.960 . S
C3120 C3121 1.391 1_556 S
C3120 C3122 1.394 . S
C3120 H3136 0.931 . S
C3121 C3120 1.391 1_554 S
C3121 C3125 1.376 . S
C3122 C3120 1.394 . S
C3122 C3123 1.369 1_556 S
C3122 C3126 1.531 . S
C3123 C3122 1.369 1_554 S
C3123 C3124 1.410 . S
C3123 C3131 1.503 . S
C3124 C3123 1.410 . S
C3124 C3125 1.392 . S
C3124 C3127 1.511 1_565 S
C3125 C3121 1.376 . S
C3125 C3124 1.392 . S
C3125 H3137 0.929 . S
C3126 C3122 1.531 . S
C3126 H3138 0.960 . S
C3126 H3139 0.962 . S
C3126 H3140 0.960 . S
C3127 C3124 1.511 1_545 S
C3127 H3141 0.961 1_545 S
C3127 H3142 0.961 . S
C3127 H3143 0.961 . S
C3128 C3129 1.370 1_565 S
C3128 C3130 1.363 . S
C3128 H3144 0.931 . S
C3129 C3128 1.370 1_545 S
C3129 C3133 1.408 . S
C3130 C3128 1.363 . S
C3130 C3131 1.370 . S
C3130 C3134 1.524 . S
C3131 C3123 1.503 . S
C3131 C3130 1.370 . S
C3131 C3132 1.403 1_565 S
C3132 C3131 1.403 1_545 S
C3132 C3133 1.404 . S
C3132 C3135 1.539 . S
C3133 C3129 1.408 . S
C3133 C3132 1.404 . S
C3133 H3145 0.930 . S
C3134 C3130 1.524 . S
C3134 H3146 0.956 . S
C3134 H3147 0.961 . S
C3134 H3148 0.961 . S
C3135 C3132 1.539 . S
C3135 H3149 0.958 1_554 S
C3135 H3150 0.961 . S
C3135 H3151 0.960 . S
H3136 C3120 0.931 . S
H3137 C3125 0.929 . S
H3138 C3126 0.960 . S
H3139 C3126 0.962 . S
H3140 C3126 0.960 . S
H3141 C3127 0.961 1_565 S
H3142 C3127 0.961 . S
H3143 C3127 0.961 . S
H3144 C3128 0.931 . S
H3145 C3133 0.930 . S
H3146 C3134 0.956 . S
H3147 C3134 0.961 . S
H3148 C3134 0.961 . S
H3149 C3135 0.958 1_556 S
H3150 C3135 0.961 . S
H3151 C3135 0.960 . S
C3152 C3153 1.391 . S
C3152 C3154 1.394 . S
C3152 H3168 0.931 . S
C3153 C3152 1.391 . S
C3153 C3157 1.376 . S
C3154 C3152 1.394 . S
C3154 C3155 1.369 . S
C3154 C3158 1.531 . S
C3155 C3154 1.369 . S
C3155 C3156 1.410 . S
C3155 C3163 1.503 . S
C3156 C3155 1.410 . S
C3156 C3157 1.392 . S
C3156 C3159 1.511 . S
C3157 C3153 1.376 . S
C3157 C3156 1.392 . S
C3157 H3169 0.929 . S
C3158 C3154 1.531 . S
C3158 H3170 0.960 . S
C3158 H3171 0.962 . S
C3158 H3172 0.960 . S
C3159 C3156 1.511 . S
C3159 H3173 0.961 . S
C3159 H3174 0.961 . S
C3159 H3175 0.961 . S
C3160 C3161 1.370 . S
C3160 C3162 1.363 . S
C3160 H3176 0.931 . S
C3161 C3160 1.370 . S
C3161 C3165 1.408 . S
C3162 C3160 1.363 . S
C3162 C3163 1.370 . S
C3162 C3166 1.524 . S
C3163 C3155 1.503 . S
C3163 C3162 1.370 . S
C3163 C3164 1.403 . S
C3164 C3163 1.403 . S
C3164 C3165 1.404 . S
C3164 C3167 1.539 . S
C3165 C3161 1.408 . S
C3165 C3164 1.404 . S
C3165 H3177 0.930 . S
C3166 C3162 1.524 . S
C3166 H3178 0.956 . S
C3166 H3179 0.961 . S
C3166 H3180 0.961 . S
C3167 C3164 1.539 . S
C3167 H3181 0.958 . S
C3167 H3182 0.961 . S
C3167 H3183 0.960 . S
H3168 C3152 0.931 . S
H3169 C3157 0.929 . S
H3170 C3158 0.960 . S
H3171 C3158 0.962 . S
H3172 C3158 0.960 . S
H3173 C3159 0.961 . S
H3174 C3159 0.961 . S
H3175 C3159 0.961 . S
H3176 C3160 0.931 . S
H3177 C3165 0.930 . S
H3178 C3166 0.956 . S
H3179 C3166 0.961 . S
H3180 C3166 0.961 . S
H3181 C3167 0.958 . S
H3182 C3167 0.961 . S
H3183 C3167 0.960 . S
C3184 C3185 1.391 . S
C3184 C3186 1.394 . S
C3184 H3200 0.931 . S
C3185 C3184 1.391 . S
C3185 C3189 1.376 . S
C3186 C3184 1.394 . S
C3186 C3187 1.369 . S
C3186 C3190 1.531 . S
C3187 C3186 1.369 . S
C3187 C3188 1.410 . S
C3187 C3195 1.503 . S
C3188 C3187 1.410 . S
C3188 C3189 1.392 . S
C3188 C3191 1.511 . S
C3189 C3185 1.376 . S
C3189 C3188 1.392 . S
C3189 H3201 0.929 . S
C3190 C3186 1.531 . S
C3190 H3202 0.960 . S
C3190 H3203 0.962 . S
C3190 H3204 0.960 . S
C3191 C3188 1.511 . S
C3191 H3205 0.961 . S
C3191 H3206 0.961 . S
C3191 H3207 0.961 . S
C3192 C3193 1.370 . S
C3192 C3194 1.363 . S
C3192 H3208 0.931 . S
C3193 C3192 1.370 . S
C3193 C3197 1.408 . S
C3194 C3192 1.363 . S
C3194 C3195 1.370 . S
C3194 C3198 1.524 1_554 S
C3195 C3187 1.503 . S
C3195 C3194 1.370 . S
C3195 C3196 1.403 . S
C3196 C3195 1.403 . S
C3196 C3197 1.404 . S
C3196 C3199 1.539 . S
C3197 C3193 1.408 . S
C3197 C3196 1.404 . S
C3197 H3209 0.930 . S
C3198 C3194 1.524 1_556 S
C3198 H3210 0.956 . S
C3198 H3211 0.961 . S
C3198 H3212 0.961 . S
C3199 C3196 1.539 . S
C3199 H3213 0.958 . S
C3199 H3214 0.961 . S
C3199 H3215 0.960 . S
H3200 C3184 0.931 . S
H3201 C3189 0.929 . S
H3202 C3190 0.960 . S
H3203 C3190 0.962 . S
H3204 C3190 0.960 . S
H3205 C3191 0.961 . S
H3206 C3191 0.961 . S
H3207 C3191 0.961 . S
H3208 C3192 0.931 . S
H3209 C3197 0.930 . S
H3210 C3198 0.956 . S
H3211 C3198 0.961 . S
H3212 C3198 0.961 . S
H3213 C3199 0.958 . S
H3214 C3199 0.961 . S
H3215 C3199 0.960 . S
C3216 C3217 1.391 . S
C3216 C3218 1.394 . S
C3216 H3232 0.931 . S
C3217 C3216 1.391 . S
C3217 C3221 1.376 . S
C3218 C3216 1.394 . S
C3218 C3219 1.369 . S
C3218 C3222 1.531 . S
C3219 C3218 1.369 . S
C3219 C3220 1.410 . S
C3219 C3227 1.503 . S
C3220 C3219 1.410 . S
C3220 C3221 1.392 . S
C3220 C3223 1.511 . S
C3221 C3217 1.376 . S
C3221 C3220 1.392 . S
C3221 H3233 0.929 . S
C3222 C3218 1.531 . S
C3222 H3234 0.960 . S
C3222 H3235 0.962 . S
C3222 H3236 0.960 . S
C3223 C3220 1.511 . S
C3223 H3237 0.961 . S
C3223 H3238 0.961 . S
C3223 H3239 0.961 . S
C3224 C3225 1.370 . S
C3224 C3226 1.363 . S
C3224 H3240 0.931 . S
C3225 C3224 1.370 . S
C3225 C3229 1.408 . S
C3226 C3224 1.363 . S
C3226 C3227 1.370 . S
C3226 C3230 1.524 . S
C3227 C3219 1.503 . S
C3227 C3226 1.370 . S
C3227 C3228 1.403 . S
C3228 C3227 1.403 . S
C3228 C3229 1.404 . S
C3228 C3231 1.539 . S
C3229 C3225 1.408 . S
C3229 C3228 1.404 . S
C3229 H3241 0.930 . S
C3230 C3226 1.524 . S
C3230 H3242 0.956 . S
C3230 H3243 0.961 . S
C3230 H3244 0.961 . S
C3231 C3228 1.539 . S
C3231 H3245 0.958 . S
C3231 H3246 0.961 . S
C3231 H3247 0.960 . S
H3232 C3216 0.931 . S
H3233 C3221 0.929 . S
H3234 C3222 0.960 . S
H3235 C3222 0.962 . S
H3236 C3222 0.960 . S
H3237 C3223 0.961 . S
H3238 C3223 0.961 . S
H3239 C3223 0.961 . S
H3240 C3224 0.931 . S
H3241 C3229 0.930 . S
H3242 C3230 0.956 . S
H3243 C3230 0.961 . S
H3244 C3230 0.961 . S
H3245 C3231 0.958 . S
H3246 C3231 0.961 . S
H3247 C3231 0.960 . S
C3248 C3249 1.391 . S
C3248 C3250 1.394 . S
C3248 H3264 0.931 . S
C3249 C3248 1.391 . S
C3249 C3253 1.376 . S
C3250 C3248 1.394 . S
C3250 C3251 1.369 . S
C3250 C3254 1.531 . S
C3251 C3250 1.369 . S
C3251 C3252 1.410 . S
C3251 C3259 1.503 . S
C3252 C3251 1.410 . S
C3252 C3253 1.392 . S
C3252 C3255 1.511 . S
C3253 C3249 1.376 . S
C3253 C3252 1.392 . S
C3253 H3265 0.929 . S
C3254 C3250 1.531 . S
C3254 H3266 0.960 . S
C3254 H3267 0.962 . S
C3254 H3268 0.960 . S
C3255 C3252 1.511 . S
C3255 H3269 0.961 . S
C3255 H3270 0.961 . S
C3255 H3271 0.961 . S
C3256 C3257 1.370 . S
C3256 C3258 1.363 . S
C3256 H3272 0.931 . S
C3257 C3256 1.370 . S
C3257 C3261 1.408 . S
C3258 C3256 1.363 . S
C3258 C3259 1.370 . S
C3258 C3262 1.524 . S
C3259 C3251 1.503 . S
C3259 C3258 1.370 . S
C3259 C3260 1.403 . S
C3260 C3259 1.403 . S
C3260 C3261 1.404 . S
C3260 C3263 1.539 . S
C3261 C3257 1.408 . S
C3261 C3260 1.404 . S
C3261 H3273 0.930 . S
C3262 C3258 1.524 . S
C3262 H3274 0.956 . S
C3262 H3275 0.961 . S
C3262 H3276 0.961 . S
C3263 C3260 1.539 . S
C3263 H3277 0.958 . S
C3263 H3278 0.961 . S
C3263 H3279 0.960 . S
H3264 C3248 0.931 . S
H3265 C3253 0.929 . S
H3266 C3254 0.960 . S
H3267 C3254 0.962 . S
H3268 C3254 0.960 . S
H3269 C3255 0.961 . S
H3270 C3255 0.961 . S
H3271 C3255 0.961 . S
H3272 C3256 0.931 . S
H3273 C3261 0.930 . S
H3274 C3262 0.956 . S
H3275 C3262 0.961 . S
H3276 C3262 0.961 . S
H3277 C3263 0.958 . S
H3278 C3263 0.961 . S
H3279 C3263 0.960 . S
C3280 C3281 1.391 . S
C3280 C3282 1.394 . S
C3280 H3296 0.931 . S
C3281 C3280 1.391 . S
C3281 C3285 1.376 . S
C3282 C3280 1.394 . S
C3282 C3283 1.369 . S
C3282 C3286 1.531 . S
C3283 C3282 1.369 . S
C3283 C3284 1.410 . S
C3283 C3291 1.503 . S
C3284 C3283 1.410 . S
C3284 C3285 1.392 . S
C3284 C3287 1.511 . S
C3285 C3281 1.376 . S
C3285 C3284 1.392 . S
C3285 H3297 0.929 . S
C3286 C3282 1.531 . S
C3286 H3298 0.960 . S
C3286 H3299 0.962 . S
C3286 H3300 0.960 . S
C3287 C3284 1.511 . S
C3287 H3301 0.961 . S
C3287 H3302 0.961 . S
C3287 H3303 0.961 . S
C3288 C3289 1.370 . S
C3288 C3290 1.363 . S
C3288 H3304 0.931 . S
C3289 C3288 1.370 . S
C3289 C3293 1.408 . S
C3290 C3288 1.363 . S
C3290 C3291 1.370 . S
C3290 C3294 1.524 . S
C3291 C3283 1.503 . S
C3291 C3290 1.370 . S
C3291 C3292 1.403 . S
C3292 C3291 1.403 . S
C3292 C3293 1.404 . S
C3292 C3295 1.539 . S
C3293 C3289 1.408 . S
C3293 C3292 1.404 . S
C3293 H3305 0.930 . S
C3294 C3290 1.524 . S
C3294 H3306 0.956 . S
C3294 H3307 0.961 . S
C3294 H3308 0.961 . S
C3295 C3292 1.539 . S
C3295 H3309 0.958 . S
C3295 H3310 0.961 . S
C3295 H3311 0.960 . S
H3296 C3280 0.931 . S
H3297 C3285 0.929 . S
H3298 C3286 0.960 . S
H3299 C3286 0.962 . S
H3300 C3286 0.960 . S
H3301 C3287 0.961 . S
H3302 C3287 0.961 . S
H3303 C3287 0.961 . S
H3304 C3288 0.931 . S
H3305 C3293 0.930 . S
H3306 C3294 0.956 . S
H3307 C3294 0.961 . S
H3308 C3294 0.961 . S
H3309 C3295 0.958 . S
H3310 C3295 0.961 . S
H3311 C3295 0.960 . S
C3312 C3313 1.391 . S
C3312 C3314 1.394 . S
C3312 H3328 0.931 . S
C3313 C3312 1.391 . S
C3313 C3317 1.376 . S
C3314 C3312 1.394 . S
C3314 C3315 1.369 . S
C3314 C3318 1.531 . S
C3315 C3314 1.369 . S
C3315 C3316 1.410 . S
C3315 C3323 1.503 . S
C3316 C3315 1.410 . S
C3316 C3317 1.392 . S
C3316 C3319 1.511 . S
C3317 C3313 1.376 . S
C3317 C3316 1.392 . S
C3317 H3329 0.929 . S
C3318 C3314 1.531 . S
C3318 H3330 0.960 . S
C3318 H3331 0.962 . S
C3318 H3332 0.960 . S
C3319 C3316 1.511 . S
C3319 H3333 0.961 . S
C3319 H3334 0.961 . S
C3319 H3335 0.961 . S
C3320 C3321 1.370 . S
C3320 C3322 1.363 . S
C3320 H3336 0.931 . S
C3321 C3320 1.370 . S
C3321 C3325 1.408 . S
C3322 C3320 1.363 . S
C3322 C3323 1.370 . S
C3322 C3326 1.524 . S
C3323 C3315 1.503 . S
C3323 C3322 1.370 . S
C3323 C3324 1.403 . S
C3324 C3323 1.403 . S
C3324 C3325 1.404 . S
C3324 C3327 1.539 . S
C3325 C3321 1.408 . S
C3325 C3324 1.404 . S
C3325 H3337 0.930 . S
C3326 C3322 1.524 . S
C3326 H3338 0.956 . S
C3326 H3339 0.961 . S
C3326 H3340 0.961 . S
C3327 C3324 1.539 . S
C3327 H3341 0.958 . S
C3327 H3342 0.961 . S
C3327 H3343 0.960 . S
H3328 C3312 0.931 . S
H3329 C3317 0.929 . S
H3330 C3318 0.960 . S
H3331 C3318 0.962 . S
H3332 C3318 0.960 . S
H3333 C3319 0.961 . S
H3334 C3319 0.961 . S
H3335 C3319 0.961 . S
H3336 C3320 0.931 . S
H3337 C3325 0.930 . S
H3338 C3326 0.956 . S
H3339 C3326 0.961 . S
H3340 C3326 0.961 . S
H3341 C3327 0.958 . S
H3342 C3327 0.961 . S
H3343 C3327 0.960 . S
C3344 C3345 1.391 . S
C3344 C3346 1.394 . S
C3344 H3360 0.931 . S
C3345 C3344 1.391 . S
C3345 C3349 1.376 . S
C3346 C3344 1.394 . S
C3346 C3347 1.369 . S
C3346 C3350 1.531 . S
C3347 C3346 1.369 . S
C3347 C3348 1.410 . S
C3347 C3355 1.503 . S
C3348 C3347 1.410 . S
C3348 C3349 1.392 . S
C3348 C3351 1.511 . S
C3349 C3345 1.376 . S
C3349 C3348 1.392 . S
C3349 H3361 0.929 . S
C3350 C3346 1.531 . S
C3350 H3362 0.960 . S
C3350 H3363 0.962 . S
C3350 H3364 0.960 . S
C3351 C3348 1.511 . S
C3351 H3365 0.961 . S
C3351 H3366 0.961 . S
C3351 H3367 0.961 . S
C3352 C3353 1.370 . S
C3352 C3354 1.363 . S
C3352 H3368 0.931 . S
C3353 C3352 1.370 . S
C3353 C3357 1.408 . S
C3354 C3352 1.363 . S
C3354 C3355 1.370 . S
C3354 C3358 1.524 . S
C3355 C3347 1.503 . S
C3355 C3354 1.370 . S
C3355 C3356 1.403 . S
C3356 C3355 1.403 . S
C3356 C3357 1.404 . S
C3356 C3359 1.539 . S
C3357 C3353 1.408 . S
C3357 C3356 1.404 . S
C3357 H3369 0.930 . S
C3358 C3354 1.524 . S
C3358 H3370 0.956 . S
C3358 H3371 0.961 . S
C3358 H3372 0.961 . S
C3359 C3356 1.539 . S
C3359 H3373 0.958 . S
C3359 H3374 0.961 . S
C3359 H3375 0.960 . S
H3360 C3344 0.931 . S
H3361 C3349 0.929 . S
H3362 C3350 0.960 . S
H3363 C3350 0.962 . S
H3364 C3350 0.960 . S
H3365 C3351 0.961 . S
H3366 C3351 0.961 . S
H3367 C3351 0.961 . S
H3368 C3352 0.931 . S
H3369 C3357 0.930 . S
H3370 C3358 0.956 . S
H3371 C3358 0.961 . S
H3372 C3358 0.961 . S
H3373 C3359 0.958 . S
H3374 C3359 0.961 . S
H3375 C3359 0.960 . S
C3376 C3377 1.391 . S
C3376 C3378 1.394 . S
C3376 H3392 0.931 . S
C3377 C3376 1.391 . S
C3377 C3381 1.376 . S
C3378 C3376 1.394 . S
C3378 C3379 1.369 . S
C3378 C3382 1.531 . S
C3379 C3378 1.369 . S
C3379 C3380 1.410 . S
C3379 C3387 1.503 . S
C3380 C3379 1.410 . S
C3380 C3381 1.392 . S
C3380 C3383 1.511 . S
C3381 C3377 1.376 . S
C3381 C3380 1.392 . S
C3381 H3393 0.929 . S
C3382 C3378 1.531 . S
C3382 H3394 0.960 . S
C3382 H3395 0.962 . S
C3382 H3396 0.960 . S
C3383 C3380 1.511 . S
C3383 H3397 0.961 . S
C3383 H3398 0.961 . S
C3383 H3399 0.961 . S
C3384 C3385 1.370 . S
C3384 C3386 1.363 . S
C3384 H3400 0.931 . S
C3385 C3384 1.370 . S
C3385 C3389 1.408 . S
C3386 C3384 1.363 . S
C3386 C3387 1.370 . S
C3386 C3390 1.524 . S
C3387 C3379 1.503 . S
C3387 C3386 1.370 . S
C3387 C3388 1.403 . S
C3388 C3387 1.403 . S
C3388 C3389 1.404 . S
C3388 C3391 1.539 . S
C3389 C3385 1.408 . S
C3389 C3388 1.404 . S
C3389 H3401 0.930 . S
C3390 C3386 1.524 . S
C3390 H3402 0.956 . S
C3390 H3403 0.961 . S
C3390 H3404 0.961 . S
C3391 C3388 1.539 . S
C3391 H3405 0.958 . S
C3391 H3406 0.961 . S
C3391 H3407 0.960 . S
H3392 C3376 0.931 . S
H3393 C3381 0.929 . S
H3394 C3382 0.960 . S
H3395 C3382 0.962 . S
H3396 C3382 0.960 . S
H3397 C3383 0.961 . S
H3398 C3383 0.961 . S
H3399 C3383 0.961 . S
H3400 C3384 0.931 . S
H3401 C3389 0.930 . S
H3402 C3390 0.956 . S
H3403 C3390 0.961 . S
H3404 C3390 0.961 . S
H3405 C3391 0.958 . S
H3406 C3391 0.961 . S
H3407 C3391 0.960 . S
C3408 C3409 1.391 . S
C3408 C3410 1.394 . S
C3408 H3424 0.931 . S
C3409 C3408 1.391 . S
C3409 C3413 1.376 . S
C3410 C3408 1.394 . S
C3410 C3411 1.369 . S
C3410 C3414 1.531 . S
C3411 C3410 1.369 . S
C3411 C3412 1.410 . S
C3411 C3419 1.503 . S
C3412 C3411 1.410 . S
C3412 C3413 1.392 . S
C3412 C3415 1.511 . S
C3413 C3409 1.376 . S
C3413 C3412 1.392 . S
C3413 H3425 0.929 . S
C3414 C3410 1.531 . S
C3414 H3426 0.960 . S
C3414 H3427 0.962 . S
C3414 H3428 0.960 . S
C3415 C3412 1.511 . S
C3415 H3429 0.961 . S
C3415 H3430 0.961 . S
C3415 H3431 0.961 . S
C3416 C3417 1.370 . S
C3416 C3418 1.363 . S
C3416 H3432 0.931 . S
C3417 C3416 1.370 . S
C3417 C3421 1.408 . S
C3418 C3416 1.363 . S
C3418 C3419 1.370 . S
C3418 C3422 1.524 . S
C3419 C3411 1.503 . S
C3419 C3418 1.370 . S
C3419 C3420 1.403 . S
C3420 C3419 1.403 . S
C3420 C3421 1.404 . S
C3420 C3423 1.539 . S
C3421 C3417 1.408 . S
C3421 C3420 1.404 . S
C3421 H3433 0.930 . S
C3422 C3418 1.524 . S
C3422 H3434 0.956 . S
C3422 H3435 0.961 . S
C3422 H3436 0.961 . S
C3423 C3420 1.539 . S
C3423 H3437 0.958 . S
C3423 H3438 0.961 . S
C3423 H3439 0.960 . S
H3424 C3408 0.931 . S
H3425 C3413 0.929 . S
H3426 C3414 0.960 . S
H3427 C3414 0.962 . S
H3428 C3414 0.960 . S
H3429 C3415 0.961 . S
H3430 C3415 0.961 . S
H3431 C3415 0.961 . S
H3432 C3416 0.931 . S
H3433 C3421 0.930 . S
H3434 C3422 0.956 . S
H3435 C3422 0.961 . S
H3436 C3422 0.961 . S
H3437 C3423 0.958 . S
H3438 C3423 0.961 . S
H3439 C3423 0.960 . S
C3440 C3441 1.391 . S
C3440 C3442 1.394 . S
C3440 H3456 0.931 . S
C3441 C3440 1.391 . S
C3441 C3445 1.376 . S
C3442 C3440 1.394 . S
C3442 C3443 1.369 . S
C3442 C3446 1.531 . S
C3443 C3442 1.369 . S
C3443 C3444 1.410 . S
C3443 C3451 1.503 . S
C3444 C3443 1.410 . S
C3444 C3445 1.392 . S
C3444 C3447 1.511 . S
C3445 C3441 1.376 . S
C3445 C3444 1.392 . S
C3445 H3457 0.929 . S
C3446 C3442 1.531 . S
C3446 H3458 0.960 . S
C3446 H3459 0.962 . S
C3446 H3460 0.960 . S
C3447 C3444 1.511 . S
C3447 H3461 0.961 . S
C3447 H3462 0.961 . S
C3447 H3463 0.961 . S
C3448 C3449 1.370 . S
C3448 C3450 1.363 . S
C3448 H3464 0.931 . S
C3449 C3448 1.370 . S
C3449 C3453 1.408 . S
C3450 C3448 1.363 . S
C3450 C3451 1.370 . S
C3450 C3454 1.524 . S
C3451 C3443 1.503 . S
C3451 C3450 1.370 . S
C3451 C3452 1.403 . S
C3452 C3451 1.403 . S
C3452 C3453 1.404 . S
C3452 C3455 1.539 . S
C3453 C3449 1.408 . S
C3453 C3452 1.404 . S
C3453 H3465 0.930 . S
C3454 C3450 1.524 . S
C3454 H3466 0.956 . S
C3454 H3467 0.961 . S
C3454 H3468 0.961 . S
C3455 C3452 1.539 . S
C3455 H3469 0.958 . S
C3455 H3470 0.961 . S
C3455 H3471 0.960 . S
H3456 C3440 0.931 . S
H3457 C3445 0.929 . S
H3458 C3446 0.960 . S
H3459 C3446 0.962 . S
H3460 C3446 0.960 . S
H3461 C3447 0.961 . S
H3462 C3447 0.961 . S
H3463 C3447 0.961 . S
H3464 C3448 0.931 . S
H3465 C3453 0.930 . S
H3466 C3454 0.956 . S
H3467 C3454 0.961 . S
H3468 C3454 0.961 . S
H3469 C3455 0.958 . S
H3470 C3455 0.961 . S
H3471 C3455 0.960 . S
C3472 C3473 1.391 . S
C3472 C3474 1.394 . S
C3472 H3488 0.931 . S
C3473 C3472 1.391 . S
C3473 C3477 1.376 . S
C3474 C3472 1.394 . S
C3474 C3475 1.369 . S
C3474 C3478 1.531 . S
C3475 C3474 1.369 . S
C3475 C3476 1.410 . S
C3475 C3483 1.503 . S
C3476 C3475 1.410 . S
C3476 C3477 1.392 . S
C3476 C3479 1.511 . S
C3477 C3473 1.376 . S
C3477 C3476 1.392 . S
C3477 H3489 0.929 . S
C3478 C3474 1.531 . S
C3478 H3490 0.960 . S
C3478 H3491 0.962 . S
C3478 H3492 0.960 . S
C3479 C3476 1.511 . S
C3479 H3493 0.961 . S
C3479 H3494 0.961 . S
C3479 H3495 0.961 . S
C3480 C3481 1.370 . S
C3480 C3482 1.363 . S
C3480 H3496 0.931 . S
C3481 C3480 1.370 . S
C3481 C3485 1.408 . S
C3482 C3480 1.363 . S
C3482 C3483 1.370 . S
C3482 C3486 1.524 . S
C3483 C3475 1.503 . S
C3483 C3482 1.370 . S
C3483 C3484 1.403 . S
C3484 C3483 1.403 . S
C3484 C3485 1.404 . S
C3484 C3487 1.539 . S
C3485 C3481 1.408 . S
C3485 C3484 1.404 . S
C3485 H3497 0.930 . S
C3486 C3482 1.524 . S
C3486 H3498 0.956 . S
C3486 H3499 0.961 . S
C3486 H3500 0.961 . S
C3487 C3484 1.539 . S
C3487 H3501 0.958 . S
C3487 H3502 0.961 . S
C3487 H3503 0.960 . S
H3488 C3472 0.931 . S
H3489 C3477 0.929 . S
H3490 C3478 0.960 . S
H3491 C3478 0.962 . S
H3492 C3478 0.960 . S
H3493 C3479 0.961 . S
H3494 C3479 0.961 . S
H3495 C3479 0.961 . S
H3496 C3480 0.931 . S
H3497 C3485 0.930 . S
H3498 C3486 0.956 . S
H3499 C3486 0.961 . S
H3500 C3486 0.961 . S
H3501 C3487 0.958 . S
H3502 C3487 0.961 . S
H3503 C3487 0.960 . S
C3504 C3505 1.391 . S
C3504 C3506 1.394 . S
C3504 H3520 0.931 . S
C3505 C3504 1.391 . S
C3505 C3509 1.376 . S
C3506 C3504 1.394 . S
C3506 C3507 1.369 . S
C3506 C3510 1.531 . S
C3507 C3506 1.369 . S
C3507 C3508 1.410 . S
C3507 C3515 1.503 . S
C3508 C3507 1.410 . S
C3508 C3509 1.392 . S
C3508 C3511 1.511 . S
C3509 C3505 1.376 . S
C3509 C3508 1.392 . S
C3509 H3521 0.929 . S
C3510 C3506 1.531 . S
C3510 H3522 0.960 . S
C3510 H3523 0.962 . S
C3510 H3524 0.960 . S
C3511 C3508 1.511 . S
C3511 H3525 0.961 . S
C3511 H3526 0.961 . S
C3511 H3527 0.961 . S
C3512 C3513 1.370 . S
C3512 C3514 1.363 . S
C3512 H3528 0.931 . S
C3513 C3512 1.370 . S
C3513 C3517 1.408 . S
C3514 C3512 1.363 . S
C3514 C3515 1.370 . S
C3514 C3518 1.524 . S
C3515 C3507 1.503 . S
C3515 C3514 1.370 . S
C3515 C3516 1.403 . S
C3516 C3515 1.403 . S
C3516 C3517 1.404 . S
C3516 C3519 1.539 . S
C3517 C3513 1.408 . S
C3517 C3516 1.404 . S
C3517 H3529 0.930 . S
C3518 C3514 1.524 . S
C3518 H3530 0.956 . S
C3518 H3531 0.961 . S
C3518 H3532 0.961 . S
C3519 C3516 1.539 . S
C3519 H3533 0.958 . S
C3519 H3534 0.961 . S
C3519 H3535 0.960 . S
H3520 C3504 0.931 . S
H3521 C3509 0.929 . S
H3522 C3510 0.960 . S
H3523 C3510 0.962 . S
H3524 C3510 0.960 . S
H3525 C3511 0.961 . S
H3526 C3511 0.961 . S
H3527 C3511 0.961 . S
H3528 C3512 0.931 . S
H3529 C3517 0.930 . S
H3530 C3518 0.956 . S
H3531 C3518 0.961 . S
H3532 C3518 0.961 . S
H3533 C3519 0.958 . S
H3534 C3519 0.961 . S
H3535 C3519 0.960 . S
C3536 C3537 1.391 . S
C3536 C3538 1.394 . S
C3536 H3552 0.931 . S
C3537 C3536 1.391 . S
C3537 C3541 1.376 . S
C3538 C3536 1.394 . S
C3538 C3539 1.369 . S
C3538 C3542 1.531 . S
C3539 C3538 1.369 . S
C3539 C3540 1.410 . S
C3539 C3547 1.503 . S
C3540 C3539 1.410 . S
C3540 C3541 1.392 . S
C3540 C3543 1.511 . S
C3541 C3537 1.376 . S
C3541 C3540 1.392 . S
C3541 H3553 0.929 . S
C3542 C3538 1.531 . S
C3542 H3554 0.960 . S
C3542 H3555 0.962 . S
C3542 H3556 0.960 . S
C3543 C3540 1.511 . S
C3543 H3557 0.961 . S
C3543 H3558 0.961 . S
C3543 H3559 0.961 . S
C3544 C3545 1.370 . S
C3544 C3546 1.363 . S
C3544 H3560 0.931 . S
C3545 C3544 1.370 . S
C3545 C3549 1.408 . S
C3546 C3544 1.363 . S
C3546 C3547 1.370 . S
C3546 C3550 1.524 . S
C3547 C3539 1.503 . S
C3547 C3546 1.370 . S
C3547 C3548 1.403 . S
C3548 C3547 1.403 . S
C3548 C3549 1.404 . S
C3548 C3551 1.539 . S
C3549 C3545 1.408 . S
C3549 C3548 1.404 . S
C3549 H3561 0.930 . S
C3550 C3546 1.524 . S
C3550 H3562 0.956 . S
C3550 H3563 0.961 . S
C3550 H3564 0.961 . S
C3551 C3548 1.539 . S
C3551 H3565 0.958 . S
C3551 H3566 0.961 . S
C3551 H3567 0.960 . S
H3552 C3536 0.931 . S
H3553 C3541 0.929 . S
H3554 C3542 0.960 . S
H3555 C3542 0.962 . S
H3556 C3542 0.960 . S
H3557 C3543 0.961 . S
H3558 C3543 0.961 . S
H3559 C3543 0.961 . S
H3560 C3544 0.931 . S
H3561 C3549 0.930 . S
H3562 C3550 0.956 . S
H3563 C3550 0.961 . S
H3564 C3550 0.961 . S
H3565 C3551 0.958 . S
H3566 C3551 0.961 . S
H3567 C3551 0.960 . S
C3568 C3569 1.391 . S
C3568 C3570 1.394 . S
C3568 H3584 0.931 . S
C3569 C3568 1.391 . S
C3569 C3573 1.376 . S
C3570 C3568 1.394 . S
C3570 C3571 1.369 . S
C3570 C3574 1.531 . S
C3571 C3570 1.369 . S
C3571 C3572 1.410 . S
C3571 C3579 1.503 . S
C3572 C3571 1.410 . S
C3572 C3573 1.392 . S
C3572 C3575 1.511 . S
C3573 C3569 1.376 . S
C3573 C3572 1.392 . S
C3573 H3585 0.929 . S
C3574 C3570 1.531 . S
C3574 H3586 0.960 . S
C3574 H3587 0.962 . S
C3574 H3588 0.960 . S
C3575 C3572 1.511 . S
C3575 H3589 0.961 . S
C3575 H3590 0.961 . S
C3575 H3591 0.961 . S
C3576 C3577 1.370 . S
C3576 C3578 1.363 . S
C3576 H3592 0.931 . S
C3577 C3576 1.370 . S
C3577 C3581 1.408 . S
C3578 C3576 1.363 . S
C3578 C3579 1.370 . S
C3578 C3582 1.524 . S
C3579 C3571 1.503 . S
C3579 C3578 1.370 . S
C3579 C3580 1.403 . S
C3580 C3579 1.403 . S
C3580 C3581 1.404 . S
C3580 C3583 1.539 . S
C3581 C3577 1.408 . S
C3581 C3580 1.404 . S
C3581 H3593 0.930 . S
C3582 C3578 1.524 . S
C3582 H3594 0.956 . S
C3582 H3595 0.961 . S
C3582 H3596 0.961 . S
C3583 C3580 1.539 . S
C3583 H3597 0.958 . S
C3583 H3598 0.961 . S
C3583 H3599 0.960 . S
H3584 C3568 0.931 . S
H3585 C3573 0.929 . S
H3586 C3574 0.960 . S
H3587 C3574 0.962 . S
H3588 C3574 0.960 . S
H3589 C3575 0.961 . S
H3590 C3575 0.961 . S
H3591 C3575 0.961 . S
H3592 C3576 0.931 . S
H3593 C3581 0.930 . S
H3594 C3582 0.956 . S
H3595 C3582 0.961 . S
H3596 C3582 0.961 . S
H3597 C3583 0.958 . S
H3598 C3583 0.961 . S
H3599 C3583 0.960 . S
C3600 C3601 1.391 . S
C3600 C3602 1.394 . S
C3600 H3616 0.931 . S
C3601 C3600 1.391 . S
C3601 C3605 1.376 . S
C3602 C3600 1.394 . S
C3602 C3603 1.369 . S
C3602 C3606 1.531 . S
C3603 C3602 1.369 . S
C3603 C3604 1.410 . S
C3603 C3611 1.503 . S
C3604 C3603 1.410 . S
C3604 C3605 1.392 . S
C3604 C3607 1.511 . S
C3605 C3601 1.376 . S
C3605 C3604 1.392 . S
C3605 H3617 0.929 . S
C3606 C3602 1.531 . S
C3606 H3618 0.960 . S
C3606 H3619 0.962 . S
C3606 H3620 0.960 . S
C3607 C3604 1.511 . S
C3607 H3621 0.961 . S
C3607 H3622 0.961 . S
C3607 H3623 0.961 . S
C3608 C3609 1.370 . S
C3608 C3610 1.363 . S
C3608 H3624 0.931 . S
C3609 C3608 1.370 . S
C3609 C3613 1.408 1_455 S
C3610 C3608 1.363 . S
C3610 C3611 1.370 1_455 S
C3610 C3614 1.524 . S
C3611 C3603 1.503 . S
C3611 C3610 1.370 1_655 S
C3611 C3612 1.403 . S
C3612 C3611 1.403 . S
C3612 C3613 1.404 . S
C3612 C3615 1.539 . S
C3613 C3609 1.408 1_655 S
C3613 C3612 1.404 . S
C3613 H3625 0.930 . S
C3614 C3610 1.524 . S
C3614 H3626 0.956 . S
C3614 H3627 0.961 . S
C3614 H3628 0.961 . S
C3615 C3612 1.539 . S
C3615 H3629 0.958 . S
C3615 H3630 0.961 . S
C3615 H3631 0.960 . S
H3616 C3600 0.931 . S
H3617 C3605 0.929 . S
H3618 C3606 0.960 . S
H3619 C3606 0.962 . S
H3620 C3606 0.960 . S
H3621 C3607 0.961 . S
H3622 C3607 0.961 . S
H3623 C3607 0.961 . S
H3624 C3608 0.931 . S
H3625 C3613 0.930 . S
H3626 C3614 0.956 . S
H3627 C3614 0.961 . S
H3628 C3614 0.961 . S
H3629 C3615 0.958 . S
H3630 C3615 0.961 . S
H3631 C3615 0.960 . S
C3632 C3633 1.391 . S
C3632 C3634 1.394 . S
C3632 H3648 0.931 . S
C3633 C3632 1.391 . S
C3633 C3637 1.376 . S
C3634 C3632 1.394 . S
C3634 C3635 1.369 . S
C3634 C3638 1.531 . S
C3635 C3634 1.369 . S
C3635 C3636 1.410 . S
C3635 C3643 1.503 . S
C3636 C3635 1.410 . S
C3636 C3637 1.392 . S
C3636 C3639 1.511 . S
C3637 C3633 1.376 . S
C3637 C3636 1.392 . S
C3637 H3649 0.929 . S
C3638 C3634 1.531 . S
C3638 H3650 0.960 . S
C3638 H3651 0.962 . S
C3638 H3652 0.960 . S
C3639 C3636 1.511 . S
C3639 H3653 0.961 . S
C3639 H3654 0.961 . S
C3639 H3655 0.961 . S
C3640 C3641 1.370 . S
C3640 C3642 1.363 . S
C3640 H3656 0.931 . S
C3641 C3640 1.370 . S
C3641 C3645 1.408 . S
C3642 C3640 1.363 . S
C3642 C3643 1.370 . S
C3642 C3646 1.524 . S
C3643 C3635 1.503 . S
C3643 C3642 1.370 . S
C3643 C3644 1.403 . S
C3644 C3643 1.403 . S
C3644 C3645 1.404 . S
C3644 C3647 1.539 . S
C3645 C3641 1.408 . S
C3645 C3644 1.404 . S
C3645 H3657 0.930 . S
C3646 C3642 1.524 . S
C3646 H3658 0.956 . S
C3646 H3659 0.961 . S
C3646 H3660 0.961 . S
C3647 C3644 1.539 . S
C3647 H3661 0.958 . S
C3647 H3662 0.961 . S
C3647 H3663 0.960 . S
H3648 C3632 0.931 . S
H3649 C3637 0.929 . S
H3650 C3638 0.960 . S
H3651 C3638 0.962 . S
H3652 C3638 0.960 . S
H3653 C3639 0.961 . S
H3654 C3639 0.961 . S
H3655 C3639 0.961 . S
H3656 C3640 0.931 . S
H3657 C3645 0.930 . S
H3658 C3646 0.956 . S
H3659 C3646 0.961 . S
H3660 C3646 0.961 . S
H3661 C3647 0.958 . S
H3662 C3647 0.961 . S
H3663 C3647 0.960 . S
C3664 C3665 1.391 . S
C3664 C3666 1.394 . S
C3664 H3680 0.931 . S
C3665 C3664 1.391 . S
C3665 C3669 1.376 . S
C3666 C3664 1.394 . S
C3666 C3667 1.369 . S
C3666 C3670 1.531 . S
C3667 C3666 1.369 . S
C3667 C3668 1.410 . S
C3667 C3675 1.503 . S
C3668 C3667 1.410 . S
C3668 C3669 1.392 . S
C3668 C3671 1.511 . S
C3669 C3665 1.376 . S
C3669 C3668 1.392 . S
C3669 H3681 0.929 . S
C3670 C3666 1.531 . S
C3670 H3682 0.960 . S
C3670 H3683 0.962 . S
C3670 H3684 0.960 . S
C3671 C3668 1.511 . S
C3671 H3685 0.961 . S
C3671 H3686 0.961 . S
C3671 H3687 0.961 . S
C3672 C3673 1.370 . S
C3672 C3674 1.363 . S
C3672 H3688 0.931 . S
C3673 C3672 1.370 . S
C3673 C3677 1.408 . S
C3674 C3672 1.363 . S
C3674 C3675 1.370 . S
C3674 C3678 1.524 . S
C3675 C3667 1.503 . S
C3675 C3674 1.370 . S
C3675 C3676 1.403 . S
C3676 C3675 1.403 . S
C3676 C3677 1.404 . S
C3676 C3679 1.539 . S
C3677 C3673 1.408 . S
C3677 C3676 1.404 . S
C3677 H3689 0.930 . S
C3678 C3674 1.524 . S
C3678 H3690 0.956 . S
C3678 H3691 0.961 . S
C3678 H3692 0.961 . S
C3679 C3676 1.539 . S
C3679 H3693 0.958 . S
C3679 H3694 0.961 . S
C3679 H3695 0.960 . S
H3680 C3664 0.931 . S
H3681 C3669 0.929 . S
H3682 C3670 0.960 . S
H3683 C3670 0.962 . S
H3684 C3670 0.960 . S
H3685 C3671 0.961 . S
H3686 C3671 0.961 . S
H3687 C3671 0.961 . S
H3688 C3672 0.931 . S
H3689 C3677 0.930 . S
H3690 C3678 0.956 . S
H3691 C3678 0.961 . S
H3692 C3678 0.961 . S
H3693 C3679 0.958 . S
H3694 C3679 0.961 . S
H3695 C3679 0.960 . S
C3696 C3697 1.391 . S
C3696 C3698 1.394 . S
C3696 H3712 0.931 . S
C3697 C3696 1.391 . S
C3697 C3701 1.376 . S
C3698 C3696 1.394 . S
C3698 C3699 1.369 . S
C3698 C3702 1.531 . S
C3699 C3698 1.369 . S
C3699 C3700 1.410 . S
C3699 C3707 1.503 . S
C3700 C3699 1.410 . S
C3700 C3701 1.392 . S
C3700 C3703 1.511 . S
C3701 C3697 1.376 . S
C3701 C3700 1.392 . S
C3701 H3713 0.929 . S
C3702 C3698 1.531 . S
C3702 H3714 0.960 . S
C3702 H3715 0.962 . S
C3702 H3716 0.960 . S
C3703 C3700 1.511 . S
C3703 H3717 0.961 . S
C3703 H3718 0.961 . S
C3703 H3719 0.961 . S
C3704 C3705 1.370 . S
C3704 C3706 1.363 . S
C3704 H3720 0.931 . S
C3705 C3704 1.370 . S
C3705 C3709 1.408 . S
C3706 C3704 1.363 . S
C3706 C3707 1.370 . S
C3706 C3710 1.524 . S
C3707 C3699 1.503 . S
C3707 C3706 1.370 . S
C3707 C3708 1.403 . S
C3708 C3707 1.403 . S
C3708 C3709 1.404 . S
C3708 C3711 1.539 . S
C3709 C3705 1.408 . S
C3709 C3708 1.404 . S
C3709 H3721 0.930 . S
C3710 C3706 1.524 . S
C3710 H3722 0.956 . S
C3710 H3723 0.961 . S
C3710 H3724 0.961 . S
C3711 C3708 1.539 . S
C3711 H3725 0.958 . S
C3711 H3726 0.961 . S
C3711 H3727 0.960 . S
H3712 C3696 0.931 . S
H3713 C3701 0.929 . S
H3714 C3702 0.960 . S
H3715 C3702 0.962 . S
H3716 C3702 0.960 . S
H3717 C3703 0.961 . S
H3718 C3703 0.961 . S
H3719 C3703 0.961 . S
H3720 C3704 0.931 . S
H3721 C3709 0.930 . S
H3722 C3710 0.956 . S
H3723 C3710 0.961 . S
H3724 C3710 0.961 . S
H3725 C3711 0.958 . S
H3726 C3711 0.961 . S
H3727 C3711 0.960 . S
C3728 C3729 1.391 . S
C3728 C3730 1.394 . S
C3728 H3744 0.931 . S
C3729 C3728 1.391 . S
C3729 C3733 1.376 . S
C3730 C3728 1.394 . S
C3730 C3731 1.369 . S
C3730 C3734 1.531 . S
C3731 C3730 1.369 . S
C3731 C3732 1.410 . S
C3731 C3739 1.503 . S
C3732 C3731 1.410 . S
C3732 C3733 1.392 . S
C3732 C3735 1.511 . S
C3733 C3729 1.376 . S
C3733 C3732 1.392 . S
C3733 H3745 0.929 . S
C3734 C3730 1.531 . S
C3734 H3746 0.960 . S
C3734 H3747 0.962 1_655 S
C3734 H3748 0.960 . S
C3735 C3732 1.511 . S
C3735 H3749 0.961 . S
C3735 H3750 0.961 . S
C3735 H3751 0.961 . S
C3736 C3737 1.370 . S
C3736 C3738 1.363 . S
C3736 H3752 0.931 . S
C3737 C3736 1.370 . S
C3737 C3741 1.408 . S
C3738 C3736 1.363 . S
C3738 C3739 1.370 . S
C3738 C3742 1.524 . S
C3739 C3731 1.503 . S
C3739 C3738 1.370 . S
C3739 C3740 1.403 . S
C3740 C3739 1.403 . S
C3740 C3741 1.404 . S
C3740 C3743 1.539 . S
C3741 C3737 1.408 . S
C3741 C3740 1.404 . S
C3741 H3753 0.930 . S
C3742 C3738 1.524 . S
C3742 H3754 0.956 . S
C3742 H3755 0.961 . S
C3742 H3756 0.961 . S
C3743 C3740 1.539 . S
C3743 H3757 0.958 . S
C3743 H3758 0.961 . S
C3743 H3759 0.960 . S
H3744 C3728 0.931 . S
H3745 C3733 0.929 . S
H3746 C3734 0.960 . S
H3747 C3734 0.962 1_455 S
H3748 C3734 0.960 . S
H3749 C3735 0.961 . S
H3750 C3735 0.961 . S
H3751 C3735 0.961 . S
H3752 C3736 0.931 . S
H3753 C3741 0.930 . S
H3754 C3742 0.956 . S
H3755 C3742 0.961 . S
H3756 C3742 0.961 . S
H3757 C3743 0.958 . S
H3758 C3743 0.961 . S
H3759 C3743 0.960 . S
C3760 C3761 1.391 . S
C3760 C3762 1.394 . S
C3760 H3776 0.931 . S
C3761 C3760 1.391 . S
C3761 C3765 1.376 . S
C3762 C3760 1.394 . S
C3762 C3763 1.369 . S
C3762 C3766 1.531 . S
C3763 C3762 1.369 . S
C3763 C3764 1.410 . S
C3763 C3771 1.503 . S
C3764 C3763 1.410 . S
C3764 C3765 1.392 . S
C3764 C3767 1.511 . S
C3765 C3761 1.376 . S
C3765 C3764 1.392 . S
C3765 H3777 0.929 . S
C3766 C3762 1.531 . S
C3766 H3778 0.960 . S
C3766 H3779 0.962 . S
C3766 H3780 0.960 . S
C3767 C3764 1.511 . S
C3767 H3781 0.961 . S
C3767 H3782 0.961 . S
C3767 H3783 0.961 . S
C3768 C3769 1.370 . S
C3768 C3770 1.363 . S
C3768 H3784 0.931 . S
C3769 C3768 1.370 . S
C3769 C3773 1.408 . S
C3770 C3768 1.363 . S
C3770 C3771 1.370 . S
C3770 C3774 1.524 . S
C3771 C3763 1.503 . S
C3771 C3770 1.370 . S
C3771 C3772 1.403 . S
C3772 C3771 1.403 . S
C3772 C3773 1.404 . S
C3772 C3775 1.539 . S
C3773 C3769 1.408 . S
C3773 C3772 1.404 . S
C3773 H3785 0.930 . S
C3774 C3770 1.524 . S
C3774 H3786 0.956 . S
C3774 H3787 0.961 . S
C3774 H3788 0.961 . S
C3775 C3772 1.539 . S
C3775 H3789 0.958 . S
C3775 H3790 0.961 . S
C3775 H3791 0.960 . S
H3776 C3760 0.931 . S
H3777 C3765 0.929 . S
H3778 C3766 0.960 . S
H3779 C3766 0.962 . S
H3780 C3766 0.960 . S
H3781 C3767 0.961 . S
H3782 C3767 0.961 . S
H3783 C3767 0.961 . S
H3784 C3768 0.931 . S
H3785 C3773 0.930 . S
H3786 C3774 0.956 . S
H3787 C3774 0.961 . S
H3788 C3774 0.961 . S
H3789 C3775 0.958 . S
H3790 C3775 0.961 . S
H3791 C3775 0.960 . S
C3792 C3793 1.391 . S
C3792 C3794 1.394 . S
C3792 H3808 0.931 . S
C3793 C3792 1.391 . S
C3793 C3797 1.376 . S
C3794 C3792 1.394 . S
C3794 C3795 1.369 . S
C3794 C3798 1.531 . S
C3795 C3794 1.369 . S
C3795 C3796 1.410 . S
C3795 C3803 1.503 . S
C3796 C3795 1.410 . S
C3796 C3797 1.392 . S
C3796 C3799 1.511 . S
C3797 C3793 1.376 . S
C3797 C3796 1.392 . S
C3797 H3809 0.929 . S
C3798 C3794 1.531 . S
C3798 H3810 0.960 . S
C3798 H3811 0.962 . S
C3798 H3812 0.960 . S
C3799 C3796 1.511 . S
C3799 H3813 0.961 . S
C3799 H3814 0.961 . S
C3799 H3815 0.961 . S
C3800 C3801 1.370 . S
C3800 C3802 1.363 . S
C3800 H3816 0.931 . S
C3801 C3800 1.370 . S
C3801 C3805 1.408 . S
C3802 C3800 1.363 . S
C3802 C3803 1.370 . S
C3802 C3806 1.524 . S
C3803 C3795 1.503 . S
C3803 C3802 1.370 . S
C3803 C3804 1.403 . S
C3804 C3803 1.403 . S
C3804 C3805 1.404 . S
C3804 C3807 1.539 . S
C3805 C3801 1.408 . S
C3805 C3804 1.404 . S
C3805 H3817 0.930 . S
C3806 C3802 1.524 . S
C3806 H3818 0.956 . S
C3806 H3819 0.961 . S
C3806 H3820 0.961 . S
C3807 C3804 1.539 . S
C3807 H3821 0.958 . S
C3807 H3822 0.961 . S
C3807 H3823 0.960 . S
H3808 C3792 0.931 . S
H3809 C3797 0.929 . S
H3810 C3798 0.960 . S
H3811 C3798 0.962 . S
H3812 C3798 0.960 . S
H3813 C3799 0.961 . S
H3814 C3799 0.961 . S
H3815 C3799 0.961 . S
H3816 C3800 0.931 . S
H3817 C3805 0.930 . S
H3818 C3806 0.956 . S
H3819 C3806 0.961 . S
H3820 C3806 0.961 . S
H3821 C3807 0.958 . S
H3822 C3807 0.961 . S
H3823 C3807 0.960 . S
C3824 C3825 1.391 . S
C3824 C3826 1.394 . S
C3824 H3840 0.931 . S
C3825 C3824 1.391 . S
C3825 C3829 1.376 . S
C3826 C3824 1.394 . S
C3826 C3827 1.369 . S
C3826 C3830 1.531 . S
C3827 C3826 1.369 . S
C3827 C3828 1.410 . S
C3827 C3835 1.503 . S
C3828 C3827 1.410 . S
C3828 C3829 1.392 . S
C3828 C3831 1.511 . S
C3829 C3825 1.376 . S
C3829 C3828 1.392 . S
C3829 H3841 0.929 . S
C3830 C3826 1.531 . S
C3830 H3842 0.960 . S
C3830 H3843 0.962 . S
C3830 H3844 0.960 . S
C3831 C3828 1.511 . S
C3831 H3845 0.961 . S
C3831 H3846 0.961 . S
C3831 H3847 0.961 . S
C3832 C3833 1.370 . S
C3832 C3834 1.363 . S
C3832 H3848 0.931 . S
C3833 C3832 1.370 . S
C3833 C3837 1.408 . S
C3834 C3832 1.363 . S
C3834 C3835 1.370 . S
C3834 C3838 1.524 . S
C3835 C3827 1.503 . S
C3835 C3834 1.370 . S
C3835 C3836 1.403 . S
C3836 C3835 1.403 . S
C3836 C3837 1.404 . S
C3836 C3839 1.539 . S
C3837 C3833 1.408 . S
C3837 C3836 1.404 . S
C3837 H3849 0.930 . S
C3838 C3834 1.524 . S
C3838 H3850 0.956 . S
C3838 H3851 0.961 . S
C3838 H3852 0.961 . S
C3839 C3836 1.539 . S
C3839 H3853 0.958 . S
C3839 H3854 0.961 . S
C3839 H3855 0.960 . S
H3840 C3824 0.931 . S
H3841 C3829 0.929 . S
H3842 C3830 0.960 . S
H3843 C3830 0.962 . S
H3844 C3830 0.960 . S
H3845 C3831 0.961 . S
H3846 C3831 0.961 . S
H3847 C3831 0.961 . S
H3848 C3832 0.931 . S
H3849 C3837 0.930 . S
H3850 C3838 0.956 . S
H3851 C3838 0.961 . S
H3852 C3838 0.961 . S
H3853 C3839 0.958 . S
H3854 C3839 0.961 . S
H3855 C3839 0.960 . S
C3856 C3857 1.391 . S
C3856 C3858 1.394 . S
C3856 H3872 0.931 . S
C3857 C3856 1.391 . S
C3857 C3861 1.376 . S
C3858 C3856 1.394 . S
C3858 C3859 1.369 . S
C3858 C3862 1.531 . S
C3859 C3858 1.369 . S
C3859 C3860 1.410 . S
C3859 C3867 1.503 . S
C3860 C3859 1.410 . S
C3860 C3861 1.392 . S
C3860 C3863 1.511 . S
C3861 C3857 1.376 . S
C3861 C3860 1.392 . S
C3861 H3873 0.929 . S
C3862 C3858 1.531 . S
C3862 H3874 0.960 . S
C3862 H3875 0.962 . S
C3862 H3876 0.960 . S
C3863 C3860 1.511 . S
C3863 H3877 0.961 . S
C3863 H3878 0.961 . S
C3863 H3879 0.961 . S
C3864 C3865 1.370 . S
C3864 C3866 1.363 . S
C3864 H3880 0.931 . S
C3865 C3864 1.370 . S
C3865 C3869 1.408 . S
C3866 C3864 1.363 . S
C3866 C3867 1.370 . S
C3866 C3870 1.524 . S
C3867 C3859 1.503 . S
C3867 C3866 1.370 . S
C3867 C3868 1.403 . S
C3868 C3867 1.403 . S
C3868 C3869 1.404 . S
C3868 C3871 1.539 . S
C3869 C3865 1.408 . S
C3869 C3868 1.404 . S
C3869 H3881 0.930 . S
C3870 C3866 1.524 . S
C3870 H3882 0.956 . S
C3870 H3883 0.961 . S
C3870 H3884 0.961 . S
C3871 C3868 1.539 . S
C3871 H3885 0.958 . S
C3871 H3886 0.961 . S
C3871 H3887 0.960 . S
H3872 C3856 0.931 . S
H3873 C3861 0.929 . S
H3874 C3862 0.960 . S
H3875 C3862 0.962 . S
H3876 C3862 0.960 . S
H3877 C3863 0.961 . S
H3878 C3863 0.961 . S
H3879 C3863 0.961 . S
H3880 C3864 0.931 . S
H3881 C3869 0.930 . S
H3882 C3870 0.956 . S
H3883 C3870 0.961 . S
H3884 C3870 0.961 . S
H3885 C3871 0.958 . S
H3886 C3871 0.961 . S
H3887 C3871 0.960 . S
C3888 C3889 1.391 . S
C3888 C3890 1.394 . S
C3888 H3904 0.931 . S
C3889 C3888 1.391 . S
C3889 C3893 1.376 . S
C3890 C3888 1.394 . S
C3890 C3891 1.369 . S
C3890 C3894 1.531 . S
C3891 C3890 1.369 . S
C3891 C3892 1.410 . S
C3891 C3899 1.503 . S
C3892 C3891 1.410 . S
C3892 C3893 1.392 . S
C3892 C3895 1.511 . S
C3893 C3889 1.376 . S
C3893 C3892 1.392 . S
C3893 H3905 0.929 . S
C3894 C3890 1.531 . S
C3894 H3906 0.960 . S
C3894 H3907 0.962 . S
C3894 H3908 0.960 . S
C3895 C3892 1.511 . S
C3895 H3909 0.961 . S
C3895 H3910 0.961 . S
C3895 H3911 0.961 . S
C3896 C3897 1.370 1_556 S
C3896 C3898 1.363 . S
C3896 H3912 0.931 . S
C3897 C3896 1.370 1_554 S
C3897 C3901 1.408 . S
C3898 C3896 1.363 . S
C3898 C3899 1.370 1_556 S
C3898 C3902 1.524 . S
C3899 C3891 1.503 . S
C3899 C3898 1.370 1_554 S
C3899 C3900 1.403 . S
C3900 C3899 1.403 . S
C3900 C3901 1.404 . S
C3900 C3903 1.539 . S
C3901 C3897 1.408 . S
C3901 C3900 1.404 . S
C3901 H3913 0.930 . S
C3902 C3898 1.524 . S
C3902 H3914 0.956 . S
C3902 H3915 0.961 . S
C3902 H3916 0.961 . S
C3903 C3900 1.539 . S
C3903 H3917 0.958 . S
C3903 H3918 0.961 . S
C3903 H3919 0.960 . S
H3904 C3888 0.931 . S
H3905 C3893 0.929 . S
H3906 C3894 0.960 . S
H3907 C3894 0.962 . S
H3908 C3894 0.960 . S
H3909 C3895 0.961 . S
H3910 C3895 0.961 . S
H3911 C3895 0.961 . S
H3912 C3896 0.931 . S
H3913 C3901 0.930 . S
H3914 C3902 0.956 . S
H3915 C3902 0.961 . S
H3916 C3902 0.961 . S
H3917 C3903 0.958 . S
H3918 C3903 0.961 . S
H3919 C3903 0.960 . S
C3920 C3921 1.391 . S
C3920 C3922 1.394 . S
C3920 H3936 0.931 . S
C3921 C3920 1.391 . S
C3921 C3925 1.376 . S
C3922 C3920 1.394 . S
C3922 C3923 1.369 . S
C3922 C3926 1.531 . S
C3923 C3922 1.369 . S
C3923 C3924 1.410 . S
C3923 C3931 1.503 . S
C3924 C3923 1.410 . S
C3924 C3925 1.392 . S
C3924 C3927 1.511 . S
C3925 C3921 1.376 . S
C3925 C3924 1.392 . S
C3925 H3937 0.929 . S
C3926 C3922 1.531 . S
C3926 H3938 0.960 . S
C3926 H3939 0.962 . S
C3926 H3940 0.960 . S
C3927 C3924 1.511 . S
C3927 H3941 0.961 . S
C3927 H3942 0.961 . S
C3927 H3943 0.961 . S
C3928 C3929 1.370 . S
C3928 C3930 1.363 . S
C3928 H3944 0.931 . S
C3929 C3928 1.370 . S
C3929 C3933 1.408 . S
C3930 C3928 1.363 . S
C3930 C3931 1.370 . S
C3930 C3934 1.524 . S
C3931 C3923 1.503 . S
C3931 C3930 1.370 . S
C3931 C3932 1.403 . S
C3932 C3931 1.403 . S
C3932 C3933 1.404 . S
C3932 C3935 1.539 . S
C3933 C3929 1.408 . S
C3933 C3932 1.404 . S
C3933 H3945 0.930 . S
C3934 C3930 1.524 . S
C3934 H3946 0.956 . S
C3934 H3947 0.961 . S
C3934 H3948 0.961 . S
C3935 C3932 1.539 . S
C3935 H3949 0.958 . S
C3935 H3950 0.961 . S
C3935 H3951 0.960 . S
H3936 C3920 0.931 . S
H3937 C3925 0.929 . S
H3938 C3926 0.960 . S
H3939 C3926 0.962 . S
H3940 C3926 0.960 . S
H3941 C3927 0.961 . S
H3942 C3927 0.961 . S
H3943 C3927 0.961 . S
H3944 C3928 0.931 . S
H3945 C3933 0.930 . S
H3946 C3934 0.956 . S
H3947 C3934 0.961 . S
H3948 C3934 0.961 . S
H3949 C3935 0.958 . S
H3950 C3935 0.961 . S
H3951 C3935 0.960 . S
C3952 C3953 1.391 . S
C3952 C3954 1.394 . S
C3952 H3968 0.931 . S
C3953 C3952 1.391 . S
C3953 C3957 1.376 . S
C3954 C3952 1.394 . S
C3954 C3955 1.369 . S
C3954 C3958 1.531 . S
C3955 C3954 1.369 . S
C3955 C3956 1.413 . S
C3955 C3963 1.503 . S
C3956 C3955 1.413 . S
C3956 C3957 1.394 . S
C3956 C3959 1.506 1_554 S
C3957 C3953 1.376 . S
C3957 C3956 1.394 . S
C3957 H3969 0.929 1_554 S
C3958 C3954 1.531 . S
C3958 H3970 0.960 . S
C3958 H3971 0.962 . S
C3958 H3972 0.960 . S
C3959 C3956 1.506 1_556 S
C3959 H3973 0.961 . S
C3959 H3974 0.961 . S
C3959 H3975 0.961 . S
C3960 C3961 1.370 . S
C3960 C3962 1.363 . S
C3960 H3976 0.931 . S
C3961 C3960 1.370 . S
C3961 C3965 1.408 1_556 S
C3962 C3960 1.363 . S
C3962 C3963 1.370 1_556 S
C3962 C3966 1.524 . S
C3963 C3955 1.503 . S
C3963 C3962 1.370 1_554 S
C3963 C3964 1.403 . S
C3964 C3963 1.403 . S
C3964 C3965 1.404 . S
C3964 C3967 1.539 . S
C3965 C3961 1.408 1_554 S
C3965 C3964 1.404 . S
C3965 H3977 0.930 . S
C3966 C3962 1.524 . S
C3966 H3978 0.956 . S
C3966 H3979 0.961 . S
C3966 H3980 0.961 . S
C3967 C3964 1.539 . S
C3967 H3981 0.958 . S
C3967 H3982 0.961 . S
C3967 H3983 0.960 . S
H3968 C3952 0.931 . S
H3969 C3957 0.929 1_556 S
H3970 C3958 0.960 . S
H3971 C3958 0.962 . S
H3972 C3958 0.960 . S
H3973 C3959 0.961 . S
H3974 C3959 0.961 . S
H3975 C3959 0.961 . S
H3976 C3960 0.931 . S
H3977 C3965 0.930 . S
H3978 C3966 0.956 . S
H3979 C3966 0.961 . S
H3980 C3966 0.961 . S
H3981 C3967 0.958 . S
H3982 C3967 0.961 . S
H3983 C3967 0.960 . S
C3984 C3985 1.391 . S
C3984 C3986 1.394 . S
C3984 H4000 0.931 . S
C3985 C3984 1.391 . S
C3985 C3989 1.376 . S
C3986 C3984 1.394 . S
C3986 C3987 1.369 . S
C3986 C3990 1.531 . S
C3987 C3986 1.369 . S
C3987 C3988 1.410 . S
C3987 C3995 1.503 . S
C3988 C3987 1.410 . S
C3988 C3989 1.392 . S
C3988 C3991 1.511 . S
C3989 C3985 1.376 . S
C3989 C3988 1.392 . S
C3989 H4001 0.929 . S
C3990 C3986 1.531 . S
C3990 H4002 0.960 . S
C3990 H4003 0.962 . S
C3990 H4004 0.960 . S
C3991 C3988 1.511 . S
C3991 H4005 0.961 . S
C3991 H4006 0.961 . S
C3991 H4007 0.961 . S
C3992 C3993 1.370 . S
C3992 C3994 1.363 . S
C3992 H4008 0.931 . S
C3993 C3992 1.370 . S
C3993 C3997 1.408 . S
C3994 C3992 1.363 . S
C3994 C3995 1.370 . S
C3994 C3998 1.524 . S
C3995 C3987 1.503 . S
C3995 C3994 1.370 . S
C3995 C3996 1.403 . S
C3996 C3995 1.403 . S
C3996 C3997 1.404 . S
C3996 C3999 1.539 . S
C3997 C3993 1.408 . S
C3997 C3996 1.404 . S
C3997 H4009 0.930 . S
C3998 C3994 1.524 . S
C3998 H4010 0.956 . S
C3998 H4011 0.961 . S
C3998 H4012 0.961 . S
C3999 C3996 1.539 . S
C3999 H4013 0.958 . S
C3999 H4014 0.961 . S
C3999 H4015 0.960 . S
H4000 C3984 0.931 . S
H4001 C3989 0.929 . S
H4002 C3990 0.960 . S
H4003 C3990 0.962 . S
H4004 C3990 0.960 . S
H4005 C3991 0.961 . S
H4006 C3991 0.961 . S
H4007 C3991 0.961 . S
H4008 C3992 0.931 . S
H4009 C3997 0.930 . S
H4010 C3998 0.956 . S
H4011 C3998 0.961 . S
H4012 C3998 0.961 . S
H4013 C3999 0.958 . S
H4014 C3999 0.961 . S
H4015 C3999 0.960 . S
C4016 C4017 1.391 . S
C4016 C4018 1.394 . S
C4016 H4032 0.931 . S
C4017 C4016 1.391 . S
C4017 C4021 1.376 . S
C4018 C4016 1.394 . S
C4018 C4019 1.369 . S
C4018 C4022 1.531 . S
C4019 C4018 1.369 . S
C4019 C4020 1.410 . S
C4019 C4027 1.503 . S
C4020 C4019 1.410 . S
C4020 C4021 1.392 . S
C4020 C4023 1.511 . S
C4021 C4017 1.376 . S
C4021 C4020 1.392 . S
C4021 H4033 0.929 . S
C4022 C4018 1.531 . S
C4022 H4034 0.960 . S
C4022 H4035 0.962 . S
C4022 H4036 0.960 . S
C4023 C4020 1.511 . S
C4023 H4037 0.961 . S
C4023 H4038 0.961 . S
C4023 H4039 0.961 . S
C4024 C4025 1.370 . S
C4024 C4026 1.363 . S
C4024 H4040 0.931 . S
C4025 C4024 1.370 . S
C4025 C4029 1.408 . S
C4026 C4024 1.363 . S
C4026 C4027 1.370 . S
C4026 C4030 1.524 . S
C4027 C4019 1.503 . S
C4027 C4026 1.370 . S
C4027 C4028 1.403 . S
C4028 C4027 1.403 . S
C4028 C4029 1.404 . S
C4028 C4031 1.539 . S
C4029 C4025 1.408 . S
C4029 C4028 1.404 . S
C4029 H4041 0.930 . S
C4030 C4026 1.524 . S
C4030 H4042 0.956 . S
C4030 H4043 0.961 . S
C4030 H4044 0.961 . S
C4031 C4028 1.539 . S
C4031 H4045 0.958 . S
C4031 H4046 0.961 . S
C4031 H4047 0.960 . S
H4032 C4016 0.931 . S
H4033 C4021 0.929 . S
H4034 C4022 0.960 . S
H4035 C4022 0.962 . S
H4036 C4022 0.960 . S
H4037 C4023 0.961 . S
H4038 C4023 0.961 . S
H4039 C4023 0.961 . S
H4040 C4024 0.931 . S
H4041 C4029 0.930 . S
H4042 C4030 0.956 . S
H4043 C4030 0.961 . S
H4044 C4030 0.961 . S
H4045 C4031 0.958 . S
H4046 C4031 0.961 . S
H4047 C4031 0.960 . S
C977 C109 1.031 . S
C985 C344 1.054 . S
C1009 C65 1.423 . S
C1017 C378 1.419 . S
C1041 C75 0.643 . S
C1049 C447 0.635 . S
C1081 C485 0.934 . S
C1073 C84 0.932 . S
C1105 C25 1.452 . S
C1113 C525 1.405 . S
C1145 C544 0.347 . S
C1137 C28 0.407 . S
C1177 C578 1.271 . S
C1169 C47 1.275 . S
C1201 C9 1.724 . S
C1209 C647 1.723 . S
C1241 C353 2.533 . S
C1233 C233 2.561 . S
C1265 C249 1.085 . S
C1273 C405 1.071 . S
C1305 C418 1.430 . S
C1297 C275 1.440 . S
C1337 C487 1.378 . S
C1329 C173 1.366 . S
C1361 C224 1.959 . S
C1369 C527 2.015 . S
C1401 C553 1.851 . S
C1393 C243 1.893 . S
C1433 C605 0.299 . S
C1425 C266 0.306 . S
C1465 C618 2.175 . S
C1457 C179 2.177 . S
C1497 C348 2.488 . S
C1489 C163 2.488 . S
C1521 C289 1.973 . S
C1529 C658 1.984 . S
C1561 C708 2.678 . S
C1553 C333 2.674 . S
C1593 C767 1.490 1_655 S
C1585 C308 1.536 . S
C1617 C123 1.516 . S
C1625 C645 1.479 . S
C1649 C126 1.410 . S
C1657 C445 1.467 . S
C1681 C327 2.514 . S
C1689 C778 2.486 . S
C1721 C847 0.933 . S
C1713 C299 0.976 . S
C1753 C365 1.066 . S
C1745 C67 1.034 . S
C1785 C833 1.441 . S
C1777 C98 1.428 . S
C1809 C89 0.660 . S
C1817 C428 0.674 . S
C1841 C79 0.967 . S
C1849 C784 0.956 . S
C1881 C504 1.423 . S
C1873 C11 1.430 . S
C1905 C51 0.367 . S
C1913 C725 0.379 . S
C1945 C593 1.361 1_556 S
C1937 C33 1.324 . S
C1977 C868 1.689 . S
C1969 C14 1.701 . S
C2009 C338 2.498 . S
C2001 C140 2.528 . S
C2041 C824 1.030 . S
C2033 C319 1.084 . S
C2065 C112 1.442 . S
C2073 C433 1.449 . S
C2097 C285 1.410 . S
C2105 C788 1.406 . S
C2129 C149 2.016 . S
C2137 C508 2.036 . S
C2169 C698 1.885 . S
C2161 C313 1.908 . S
C2193 C121 0.328 1_565 S
C2201 C584 0.406 1_565 S
C2225 C291 2.211 . S
C2233 C873 2.196 . S
C2257 C182 2.525 . S
C2265 C367 2.503 1_655 S
C2289 C168 1.939 . S
C2297 C673 2.002 . S
C2321 C263 2.727 . S
C2329 C567 2.732 . S
C2353 C247 1.574 . S
C2361 C748 1.600 . S
C2393 C864 1.459 . S
C2385 C277 1.476 1_565 S
C2417 C219 1.478 . S
C2425 C424 1.478 . S
C2457 C473 2.539 . S
C2449 C257 2.563 . S
C2489 C388 0.957 . S
C2481 C201 0.954 . S
C2513 C81 1.025 . S
C2521 C904 1.067 . S
C2553 C818 1.424 . S
C2545 C93 1.410 . S
C2577 C103 0.655 . S
C2585 C967 0.629 . S
C2609 C56 0.927 . S
C2617 C805 0.921 . S
C2641 C53 1.419 . S
C2649 C685 1.432 . S
C2681 C704 0.328 . S
C2673 C0 0.321 . S
C2713 C738 1.285 . S
C2705 C19 1.270 . S
C2745 C887 1.723 . S
C2737 C37 1.716 . S
C2777 C913 2.534 . S
C2769 C261 2.562 . S
C2801 C193 1.081 . S
C2809 C845 1.048 . S
C2841 C938 1.432 . S
C2833 C205 1.439 . S
C2873 C807 1.380 . S
C2865 C215 1.382 . S
C2905 C687 2.019 . S
C2897 C252 1.952 . S
C2929 C187 1.895 . S
C2937 C713 1.850 . S
C2969 C765 0.367 . S
C2961 C196 0.295 . S
C2993 C221 2.168 . S
C3001 C858 2.175 . S
C3033 C908 2.485 . S
C3025 C317 2.486 . S
C3057 C135 1.975 . S
C3065 C498 1.987 . S
C3097 C548 2.676 . S
C3089 C151 2.680 . S
C3129 C607 1.533 . S
C3121 C154 1.529 . S
C3161 C885 1.491 . S
C3153 C305 1.462 . S
C3185 C280 1.418 . S
C3193 C965 1.468 . S
C3225 C458 2.487 . S
C3217 C145 2.514 . S
C3257 C407 0.937 . S
C3249 C117 0.973 . S
C3281 C95 1.070 . S
C3289 C925 1.064 . S
C3321 C393 1.434 . S
C3313 C70 1.420 . S
C3345 C61 0.670 . S
C3353 C948 0.653 . S
C3377 C107 0.964 . S
C3385 C464 0.957 . S
C3409 C39 1.423 . S
C3417 C664 1.420 . S
C3449 C565 0.379 . S
C3441 C23 0.362 . S
C3473 C5 1.308 . S
C3481 C753 1.360 . S
C3505 C42 1.695 . S
C3513 C628 1.697 . S
C3545 C898 2.503 . S
C3537 C322 2.525 . S
C3569 C165 1.064 . S
C3577 C384 1.055 . S
C3609 C953 1.449 . S
C3601 C294 1.450 . S
C3633 C131 1.387 . S
C3641 C468 1.406 . S
C3665 C331 2.016 . S
C3673 C668 2.036 . S
C3705 C538 1.885 . S
C3697 C159 1.908 . S
C3729 C303 0.382 . S
C3737 C744 0.402 . S
C3769 C633 2.198 . S
C3761 C137 2.202 . S
C3801 C927 2.500 . S
C3793 C238 2.528 . S
C3833 C513 2.005 1_665 S
C3825 C210 1.940 . S
C3857 C235 2.723 . S
C3865 C727 2.728 . S
C3897 C588 1.600 . S
C3889 C191 1.579 . S
C3921 C207 1.463 . S
C3929 C624 1.484 . S
C3953 C177 1.497 . S
C3961 C944 1.461 . S
C3993 C793 2.543 . S
C3985 C229 2.561 1_565 S
C4025 C828 0.936 . S
C4017 C271 0.960 . S
