# Generated by pormake.
# Topology csq, (4,8)-cn, num edge types: 1
# Building blocks:
#     Node 0, Type 0, BuildingBlock: NAWXER_clean_sbu_0, # of connection points: 4
#     Node 1, Type 0, BuildingBlock: NAWXER_clean_sbu_0, # of connection points: 4
#     Node 2, Type 0, BuildingBlock: NAWXER_clean_sbu_0, # of connection points: 4
#     Node 3, Type 0, BuildingBlock: NAWXER_clean_sbu_0, # of connection points: 4
#     Node 4, Type 0, BuildingBlock: NAWXER_clean_sbu_0, # of connection points: 4
#     Node 5, Type 0, BuildingBlock: NAWXER_clean_sbu_0, # of connection points: 4
#     Node 6, Type 1, BuildingBlock: TAGTUT_clean_sbu_3, # of connection points: 8
#     Node 7, Type 1, BuildingBlock: TAGTUT_clean_sbu_3, # of connection points: 8
#     Node 8, Type 1, BuildingBlock: TAGTUT_clean_sbu_3, # of connection points: 8
#     Edge 9, Type (0, 1), BuildingBlock: CIFDUS_clean_linker_0, # of connection points: 2
#     Edge 10, Type (0, 1), BuildingBlock: CIFDUS_clean_linker_0, # of connection points: 2
#     Edge 11, Type (0, 1), BuildingBlock: CIFDUS_clean_linker_0, # of connection points: 2
#     Edge 12, Type (0, 1), BuildingBlock: CIFDUS_clean_linker_0, # of connection points: 2
#     Edge 13, Type (0, 1), BuildingBlock: CIFDUS_clean_linker_0, # of connection points: 2
#     Edge 14, Type (0, 1), BuildingBlock: CIFDUS_clean_linker_0, # of connection points: 2
#     Edge 15, Type (0, 1), BuildingBlock: CIFDUS_clean_linker_0, # of connection points: 2
#     Edge 16, Type (0, 1), BuildingBlock: CIFDUS_clean_linker_0, # of connection points: 2
#     Edge 17, Type (0, 1), BuildingBlock: CIFDUS_clean_linker_0, # of connection points: 2
#     Edge 18, Type (0, 1), BuildingBlock: CIFDUS_clean_linker_0, # of connection points: 2
#     Edge 19, Type (0, 1), BuildingBlock: CIFDUS_clean_linker_0, # of connection points: 2
#     Edge 20, Type (0, 1), BuildingBlock: CIFDUS_clean_linker_0, # of connection points: 2
#     Edge 21, Type (0, 1), BuildingBlock: CIFDUS_clean_linker_0, # of connection points: 2
#     Edge 22, Type (0, 1), BuildingBlock: CIFDUS_clean_linker_0, # of connection points: 2
#     Edge 23, Type (0, 1), BuildingBlock: CIFDUS_clean_linker_0, # of connection points: 2
#     Edge 24, Type (0, 1), BuildingBlock: CIFDUS_clean_linker_0, # of connection points: 2
#     Edge 25, Type (0, 1), BuildingBlock: CIFDUS_clean_linker_0, # of connection points: 2
#     Edge 26, Type (0, 1), BuildingBlock: CIFDUS_clean_linker_0, # of connection points: 2
#     Edge 27, Type (0, 1), BuildingBlock: CIFDUS_clean_linker_0, # of connection points: 2
#     Edge 28, Type (0, 1), BuildingBlock: CIFDUS_clean_linker_0, # of connection points: 2
#     Edge 29, Type (0, 1), BuildingBlock: CIFDUS_clean_linker_0, # of connection points: 2
#     Edge 30, Type (0, 1), BuildingBlock: CIFDUS_clean_linker_0, # of connection points: 2
#     Edge 31, Type (0, 1), BuildingBlock: CIFDUS_clean_linker_0, # of connection points: 2
#     Edge 32, Type (0, 1), BuildingBlock: CIFDUS_clean_linker_0, # of connection points: 2
# Relax obj value: 0.043
# Max RMSD: 0.115
# Mean RMSD: 0.076
data_MOF--net-csq--node1-NAWXER_clean_sbu_0--node2-TAGTUT_clean_sbu_3--edge1-CIFDUS_clean_linker_0
_symmetry_space_group_name_H-M    P1
_symmetry_Int_Tables_number       1
_symmetry_cell_setting            triclinic
loop_
_symmetry_equiv_pos_as_xyz
'x, y, z'
_cell_length_a     44.426649
_cell_length_b     43.69259
_cell_length_c     17.031578
_cell_angle_alpha  92.590104
_cell_angle_beta   92.19242
_cell_angle_gamma 119.60162
loop_
_atom_site_label
_atom_site_type_symbol
_atom_site_fract_x
_atom_site_fract_y
_atom_site_fract_z
_atom_type_partial_charge
C0 C 0.31055 0.50972 0.10047 0.0
C1 C 0.2063 0.48144 0.23831 0.0
O2 O 0.30112 0.53157 0.12398 0.0
Zn3 Zn 0.25812 0.4969 0.16515 0.0
O4 O 0.29054 0.47652 0.10571 0.0
Zn5 Zn 0.2412 0.4416 0.1503 0.0
O6 O 0.2112 0.41384 0.05808 0.0
O7 O 0.22627 0.4702 0.06001 0.0
O8 O 0.20831 0.45434 0.21439 0.0
O9 O 0.23002 0.51198 0.22346 0.0
O10 O 0.27833 0.47671 0.25297 0.0
O11 O 0.25549 0.41913 0.22719 0.0
C12 C 0.2099 0.43893 0.02621 0.0
C13 C 0.27592 0.44725 0.26945 0.0
C14 C 0.71686 0.19944 0.04923 0.0
C15 C 0.7925 0.28973 0.25939 0.0
O16 O 0.74578 0.20092 0.06748 0.0
Zn17 Zn 0.7911 0.22897 0.14397 0.0
O18 O 0.7101 0.22183 0.08272 0.0
Zn19 Zn 0.75304 0.24637 0.15348 0.0
O20 O 0.79283 0.27474 0.07748 0.0
O21 O 0.82707 0.25143 0.07159 0.0
O22 O 0.76307 0.2847 0.23268 0.0
O23 O 0.80441 0.27051 0.23131 0.0
O24 O 0.78801 0.19132 0.20588 0.0
O25 O 0.74611 0.20422 0.22192 0.0
C26 C 0.81932 0.2745 0.05139 0.0
C27 C 0.76019 0.18547 0.23678 0.0
C28 C 0.5156 0.7912 0.17794 0.0
C29 C 0.53192 0.73274 0.94276 0.0
O30 O 0.54464 0.79678 0.15438 0.0
Zn31 Zn 0.52602 0.7622 0.06311 0.0
O32 O 0.48741 0.76775 0.14013 0.0
Zn33 Zn 0.47054 0.73069 0.03965 0.0
O34 O 0.44574 0.68467 0.08423 0.0
O35 O 0.50185 0.71397 0.11946 0.0
O36 O 0.50024 0.72227 0.95584 0.0
O37 O 0.55603 0.75513 0.99171 0.0
O38 O 0.50308 0.78445 0.9882 0.0
O39 O 0.44644 0.74805 0.97432 0.0
C40 C 0.4718 0.68684 0.12321 0.0
C41 C 0.47296 0.77671 0.95873 0.0
C42 C 0.81976 0.51714 0.96837 0.0
C43 C 0.73649 0.52424 0.14139 0.0
O44 O 0.82493 0.54854 0.98226 0.0
Zn45 Zn 0.80184 0.57493 0.04479 0.0
O46 O 0.79351 0.49135 0.9948 0.0
Zn47 Zn 0.77691 0.51915 0.0532 0.0
O48 O 0.75506 0.53613 0.96394 0.0
O49 O 0.7868 0.59413 0.96327 0.0
O50 O 0.73812 0.49686 0.11977 0.0
O51 O 0.75871 0.5542 0.11817 0.0
O52 O 0.83975 0.60743 0.1169 0.0
O53 O 0.8205 0.55089 0.13451 0.0
C54 C 0.76086 0.56513 0.93602 0.0
C55 C 0.84205 0.58365 0.15241 0.0
C56 C 0.18983 0.7594 0.22638 0.0
C57 C 0.2339 0.83121 0.00104 0.0
O58 O 0.17939 0.77864 0.19498 0.0
Zn59 Zn 0.21073 0.79452 0.11089 0.0
O60 O 0.21483 0.75699 0.19718 0.0
Zn61 Zn 0.24809 0.77816 0.10194 0.0
O62 O 0.29359 0.80468 0.15526 0.0
O63 O 0.26006 0.82816 0.17284 0.0
O64 O 0.24977 0.81413 0.01661 0.0
O65 O 0.20894 0.82749 0.0413 0.0
O66 O 0.19462 0.74736 0.03531 0.0
O67 O 0.23847 0.73683 0.03926 0.0
C68 C 0.28936 0.82947 0.18432 0.0
C69 C 0.20788 0.72826 0.01408 0.0
C70 C 0.42263 0.25768 0.31746 0.0
C71 C 0.43264 0.18432 0.10928 0.0
O72 O 0.45392 0.26871 0.29964 0.0
Zn73 Zn 0.48122 0.25483 0.21884 0.0
O74 O 0.39781 0.23029 0.28082 0.0
Zn75 Zn 0.42609 0.21998 0.21271 0.0
O76 O 0.45566 0.2053 0.29087 0.0
O77 O 0.51105 0.24483 0.28607 0.0
O78 O 0.40444 0.17942 0.13664 0.0
O79 O 0.4616 0.21087 0.13543 0.0
O80 O 0.50023 0.29414 0.15001 0.0
O81 O 0.44331 0.26176 0.1348 0.0
C82 C 0.48765 0.21658 0.31234 0.0
C83 C 0.47163 0.2879 0.11544 0.0
C84 C 0.06056 0.47805 0.50397 0.0
C85 C 0.05497 0.4211 0.76687 0.0
C86 C 0.95366 0.41049 0.77418 0.0
Mg87 Mg 0.02604 0.52334 0.44618 0.0
Mg88 Mg 0.01411 0.5748 0.5724 0.0
O89 O 0.00357 0.52855 0.54221 0.0
Mg90 Mg 0.01611 0.50171 0.61622 0.0
O91 O 0.02967 0.47298 0.68163 0.0
Mg92 Mg 0.00428 0.42553 0.62078 0.0
Mg93 Mg 0.0268 0.47352 0.79051 0.0
C94 C 0.97502 0.53358 0.72075 0.0
O95 O 0.05755 0.55104 0.68965 0.0
O96 O 0.99701 0.54711 0.38105 0.0
O97 O 0.05527 0.53075 0.81073 0.0
O98 O 0.07338 0.5793 0.46329 0.0
O99 O 0.98714 0.5799 0.47124 0.0
O100 O 0.06808 0.61245 0.55901 0.0
O101 O 0.97492 0.44955 0.55238 0.0
O102 O 0.97786 0.46757 0.43092 0.0
C103 C 0.96382 0.44376 0.47983 0.0
C104 C 0.98452 0.56717 0.40039 0.0
O105 O 0.97817 0.5063 0.70239 0.0
O106 O 0.03847 0.40951 0.69867 0.0
O107 O 0.98959 0.56204 0.68407 0.0
O108 O 0.96226 0.40299 0.7085 0.0
O109 O 0.05424 0.44543 0.81009 0.0
O110 O 0.97341 0.4395 0.81487 0.0
O111 O 0.05314 0.50177 0.5258 0.0
O112 O 0.04622 0.44811 0.53353 0.0
C113 C 0.08534 0.60839 0.50525 0.0
C114 C 0.06634 0.55583 0.76391 0.0
C115 C 0.497 0.06083 0.51632 0.0
C116 C 0.60149 0.04168 0.43934 0.0
C117 C 0.53766 0.93705 0.5032 0.0
Mg118 Mg 0.4361 0.01812 0.63738 0.0
Mg119 Mg 0.45387 0.98759 0.79481 0.0
O120 O 0.45421 0.98879 0.68585 0.0
Mg121 Mg 0.49805 0.0038 0.63197 0.0
O122 O 0.53962 0.01867 0.5686 0.0
Mg123 Mg 0.51551 0.99901 0.46156 0.0
Mg124 Mg 0.5749 0.00861 0.59748 0.0
C125 C 0.49159 0.94395 0.75503 0.0
O126 O 0.53712 0.03998 0.73575 0.0
O127 O 0.38349 0.98163 0.6937 0.0
O128 O 0.58386 0.03341 0.71674 0.0
O129 O 0.45346 0.05669 0.74798 0.0
O130 O 0.39883 0.96271 0.80094 0.0
O131 O 0.47669 0.04047 0.84484 0.0
O132 O 0.46453 0.97015 0.5233 0.0
O133 O 0.41982 0.97975 0.52999 0.0
C134 C 0.43534 0.96548 0.49541 0.0
C135 C 0.37591 0.96362 0.75488 0.0
O136 O 0.50074 0.95699 0.68781 0.0
O137 O 0.56982 0.02952 0.41301 0.0
O138 O 0.47696 0.9546 0.80426 0.0
O139 O 0.52256 0.95047 0.46389 0.0
O140 O 0.60963 0.03776 0.5097 0.0
O141 O 0.55785 0.95357 0.56443 0.0
O142 O 0.49043 0.04843 0.58439 0.0
O143 O 0.50826 0.04786 0.4636 0.0
C144 C 0.46863 0.06219 0.81664 0.0
C145 C 0.56802 0.04625 0.75661 0.0
C146 C 0.5529 0.5919 0.71805 0.0
C147 C 0.46203 0.50585 0.89971 0.0
C148 C 0.49106 0.43046 0.81356 0.0
Mg149 Mg 0.57322 0.57527 0.54644 0.0
Mg150 Mg 0.51861 0.50625 0.42783 0.0
O151 O 0.54159 0.5231 0.52883 0.0
Mg152 Mg 0.51568 0.514 0.62602 0.0
O153 O 0.49244 0.50693 0.72658 0.0
Mg154 Mg 0.53259 0.5197 0.80497 0.0
Mg155 Mg 0.45147 0.46418 0.73815 0.0
C156 C 0.47929 0.43752 0.52412 0.0
O157 O 0.46575 0.5065 0.56374 0.0
O158 O 0.60275 0.56857 0.44141 0.0
O159 O 0.4238 0.46246 0.6266 0.0
O160 O 0.53956 0.58752 0.46193 0.0
O161 O 0.56538 0.51827 0.36964 0.0
O162 O 0.4987 0.54019 0.39043 0.0
O163 O 0.56262 0.51893 0.69639 0.0
O164 O 0.60429 0.5618 0.63341 0.0
C165 C 0.59472 0.54003 0.68738 0.0
C166 C 0.59589 0.54497 0.38484 0.0
O167 O 0.4922 0.45472 0.59145 0.0
O168 O 0.4953 0.51995 0.89982 0.0
O169 O 0.48366 0.45247 0.45883 0.0
O170 O 0.51578 0.46214 0.82777 0.0
O171 O 0.44104 0.48458 0.84363 0.0
O172 O 0.46329 0.42362 0.77325 0.0
O173 O 0.54037 0.57438 0.65109 0.0
O174 O 0.55064 0.57644 0.78126 0.0
C175 C 0.51352 0.57311 0.41128 0.0
C176 C 0.43378 0.48336 0.57032 0.0
H177 H 0.19052 0.53128 0.29735 0.0
H178 H 0.15387 0.41915 0.2788 0.0
H179 H 0.10479 0.40854 0.35371 0.0
H180 H 0.07332 0.4304 0.42903 0.0
H181 H 0.10853 0.54195 0.45225 0.0
H182 H 0.15657 0.55331 0.36992 0.0
C183 C 0.17174 0.50456 0.30961 0.0
C184 C 0.17621 0.47615 0.28277 0.0
C185 C 0.14315 0.49842 0.3533 0.0
C186 C 0.15141 0.44165 0.29883 0.0
C187 C 0.12316 0.43543 0.34171 0.0
C188 C 0.09133 0.45726 0.41588 0.0
C189 C 0.08738 0.48528 0.44719 0.0
C190 C 0.11897 0.46356 0.36982 0.0
C191 C 0.11084 0.51984 0.42867 0.0
C192 C 0.13848 0.52636 0.38203 0.0
H193 H 0.69849 0.13324 0.18534 0.0
H194 H 0.77516 0.16848 0.38066 0.0
H195 H 0.73251 0.12336 0.46021 0.0
H196 H 0.67129 0.08003 0.4783 0.0
H197 H 0.59465 0.04832 0.28242 0.0
H198 H 0.6395 0.08601 0.19856 0.0
C199 C 0.70602 0.13023 0.24469 0.0
C200 C 0.73959 0.15363 0.2776 0.0
C201 C 0.68121 0.10546 0.29012 0.0
C202 C 0.74942 0.15018 0.35435 0.0
C203 C 0.72494 0.12477 0.39982 0.0
C204 C 0.66446 0.08101 0.41703 0.0
C205 C 0.6295 0.06182 0.38716 0.0
C206 C 0.69039 0.10322 0.36915 0.0
C207 C 0.62119 0.06321 0.30742 0.0
C208 C 0.64683 0.08467 0.25923 0.0
H209 H 0.50365 0.69751 0.26605 0.0
H210 H 0.43336 0.61456 0.09506 0.0
H211 H 0.43731 0.57049 0.17338 0.0
H212 H 0.46636 0.55703 0.28395 0.0
H213 H 0.53584 0.64194 0.45389 0.0
H214 H 0.52617 0.6835 0.38303 0.0
C215 C 0.4888 0.66968 0.24647 0.0
C216 C 0.46863 0.65922 0.17472 0.0
C217 C 0.49128 0.64486 0.29137 0.0
C218 C 0.44907 0.62313 0.15032 0.0
C219 C 0.45153 0.59804 0.1948 0.0
C220 C 0.47897 0.58451 0.30602 0.0
C221 C 0.50248 0.59632 0.37338 0.0
C222 C 0.47339 0.60874 0.26449 0.0
C223 C 0.51817 0.63202 0.40157 0.0
C224 C 0.51268 0.65597 0.36108 0.0
H225 H 0.88615 0.56169 0.12157 0.0
H226 H 0.86622 0.6241 0.29234 0.0
H227 H 0.91267 0.62802 0.38315 0.0
H228 H 0.9532 0.60691 0.41814 0.0
H229 H 0.97101 0.54283 0.2457 0.0
H230 H 0.93123 0.54678 0.15015 0.0
C231 C 0.89251 0.57664 0.17832 0.0
C232 C 0.87305 0.59226 0.20164 0.0
C233 C 0.91846 0.57817 0.22956 0.0
C234 C 0.88123 0.61194 0.27416 0.0
C235 C 0.90748 0.61392 0.32581 0.0
C236 C 0.94872 0.59415 0.3594 0.0
C237 C 0.96446 0.57393 0.33969 0.0
C238 C 0.92542 0.59609 0.30496 0.0
C239 C 0.95885 0.55809 0.26288 0.0
C240 C 0.9361 0.56029 0.20814 0.0
H241 H 0.35004 0.83651 0.24871 0.0
H242 H 0.29255 0.89183 0.22188 0.0
H243 H 0.33615 0.94132 0.30686 0.0
H244 H 0.38659 0.96608 0.39919 0.0
H245 H 0.44371 0.91111 0.43416 0.0
H246 H 0.40493 0.86476 0.33353 0.0
C247 C 0.34732 0.85957 0.26096 0.0
C248 C 0.31776 0.86019 0.23044 0.0
C249 C 0.37239 0.88797 0.31105 0.0
C250 C 0.31468 0.89035 0.246 0.0
C251 C 0.33967 0.91878 0.29429 0.0
C252 C 0.39083 0.94416 0.38422 0.0
C253 C 0.41743 0.94155 0.4248 0.0
C254 C 0.368 0.9174 0.32877 0.0
C255 C 0.42321 0.91352 0.40369 0.0
C256 C 0.40087 0.8869 0.34678 0.0
H257 H 0.45515 0.28683 0.45993 0.0
H258 H 0.37751 0.2815 0.29167 0.0
H259 H 0.38396 0.33636 0.35282 0.0
H260 H 0.42176 0.39188 0.43317 0.0
H261 H 0.49904 0.3969 0.60236 0.0
H262 H 0.48218 0.33566 0.56341 0.0
C263 C 0.43861 0.29698 0.43909 0.0
C264 C 0.41625 0.28072 0.37119 0.0
C265 C 0.44294 0.32873 0.47371 0.0
C266 C 0.39478 0.29369 0.34422 0.0
C267 C 0.39882 0.32528 0.3785 0.0
C268 C 0.43407 0.37907 0.46308 0.0
C269 C 0.46211 0.39881 0.51885 0.0
C270 C 0.42435 0.34403 0.44005 0.0
C271 C 0.47757 0.38211 0.55869 0.0
C272 C 0.46811 0.34723 0.53604 0.0
H273 H 0.52338 0.82921 0.88193 0.0
H274 H 0.41492 0.78155 0.92667 0.0
H275 H 0.41094 0.828 0.86051 0.0
H276 H 0.43944 0.88479 0.80169 0.0
H277 H 0.54726 0.93263 0.75329 0.0
H278 H 0.55041 0.88305 0.80837 0.0
C279 C 0.49879 0.82883 0.87654 0.0
C280 C 0.46955 0.80224 0.91022 0.0
C281 C 0.49669 0.8556 0.83811 0.0
C282 C 0.43777 0.80174 0.90159 0.0
C283 C 0.43552 0.82835 0.86401 0.0
C284 C 0.46353 0.88408 0.80235 0.0
C285 C 0.49324 0.91232 0.77475 0.0
C286 C 0.46497 0.85577 0.83385 0.0
C287 C 0.52416 0.91108 0.77445 0.0
C288 C 0.52593 0.88291 0.80634 0.0
H289 H 0.69373 0.51497 0.91493 0.0
H290 H 0.76916 0.61516 0.83498 0.0
H291 H 0.72375 0.61603 0.75059 0.0
H292 H 0.66283 0.58896 0.70294 0.0
H293 H 0.58707 0.48996 0.78762 0.0
H294 H 0.63275 0.48824 0.86848 0.0
C295 C 0.70036 0.53679 0.87822 0.0
C296 C 0.73471 0.56481 0.88022 0.0
C297 C 0.67413 0.53752 0.83194 0.0
C298 C 0.74285 0.59326 0.83384 0.0
C299 C 0.71694 0.5938 0.786 0.0
C300 C 0.65626 0.56695 0.73899 0.0
C301 C 0.62167 0.53956 0.73923 0.0
C302 C 0.6825 0.56621 0.78523 0.0
C303 C 0.6135 0.51142 0.78679 0.0
C304 C 0.63959 0.51033 0.8326 0.0
H305 H 0.15549 0.71314 0.90463 0.0
H306 H 0.21287 0.66898 0.0158 0.0
H307 H 0.1742 0.61164 0.94634 0.0
H308 H 0.12219 0.57334 0.86037 0.0
H309 H 0.06671 0.61739 0.74111 0.0
H310 H 0.10665 0.6758 0.80699 0.0
C311 C 0.15958 0.69096 0.91297 0.0
C312 C 0.18666 0.69501 0.96561 0.0
C313 C 0.13759 0.65821 0.87184 0.0
C314 C 0.19218 0.66639 0.97537 0.0
C315 C 0.17001 0.6336 0.93604 0.0
C316 C 0.11905 0.59587 0.84872 0.0
C317 C 0.09155 0.59139 0.79737 0.0
C318 C 0.14236 0.62912 0.88524 0.0
C319 C 0.08783 0.62055 0.78092 0.0
C320 C 0.11052 0.65376 0.81865 0.0
H321 H 0.48426 0.17027 0.09156 0.0
H322 H 0.38284 0.14382 0.99184 0.0
H323 H 0.38727 0.10647 0.88608 0.0
H324 H 0.41981 0.08103 0.82438 0.0
H325 H 0.51845 0.103 0.93294 0.0
H326 H 0.51588 0.1436 0.03253 0.0
C327 C 0.46313 0.15636 0.04651 0.0
C328 C 0.43334 0.15978 0.04871 0.0
C329 C 0.46572 0.1348 0.98729 0.0
C330 C 0.40589 0.14129 0.99117 0.0
C331 C 0.40857 0.12025 0.93064 0.0
C332 C 0.44107 0.09533 0.86894 0.0
C333 C 0.46979 0.08997 0.8704 0.0
C334 C 0.43843 0.11697 0.92813 0.0
C335 C 0.49656 0.10745 0.92987 0.0
C336 C 0.49488 0.1303 0.98711 0.0
H337 H 0.35409 0.48596 0.13853 0.0
H338 H 0.34408 0.56019 0.99709 0.0
H339 H 0.39636 0.57126 0.93107 0.0
H340 H 0.43826 0.55157 0.89895 0.0
H341 H 0.44737 0.47682 0.03995 0.0
H342 H 0.40267 0.47481 0.12295 0.0
C343 C 0.36377 0.50499 0.09406 0.0
C344 C 0.34506 0.52167 0.07095 0.0
C345 C 0.39362 0.51107 0.05677 0.0
C346 C 0.35804 0.54687 0.01495 0.0
C347 C 0.38778 0.55305 0.97717 0.0
C348 C 0.43138 0.53605 0.94999 0.0
C349 C 0.44605 0.51459 0.96427 0.0
C350 C 0.40496 0.53428 0.99561 0.0
C351 C 0.4367 0.49395 0.02915 0.0
C352 C 0.41082 0.49242 0.07566 0.0
H353 H 0.84337 0.26997 0.91008 0.0
H354 H 0.84586 0.34387 0.08999 0.0
H355 H 0.88573 0.39343 0.01708 0.0
H356 H 0.92258 0.41551 0.90574 0.0
H357 H 0.91666 0.34112 0.72134 0.0
H358 H 0.87483 0.29225 0.79104 0.0
C359 C 0.85273 0.29697 0.93285 0.0
C360 C 0.84245 0.30356 0.00533 0.0
C361 C 0.87475 0.32525 0.88956 0.0
C362 C 0.85387 0.33846 0.03415 0.0
C363 C 0.87655 0.36673 0.99257 0.0
C364 C 0.91173 0.38866 0.88025 0.0
C365 C 0.92324 0.38212 0.80908 0.0
C366 C 0.88749 0.36044 0.92056 0.0
C367 C 0.9085 0.3471 0.7763 0.0
C368 C 0.8847 0.31896 0.81638 0.0
H369 H 0.88633 0.56618 0.9518 0.0
H370 H 0.81205 0.45655 0.8908 0.0
H371 H 0.85513 0.45032 0.81578 0.0
H372 H 0.91292 0.47793 0.7585 0.0
H373 H 0.98565 0.58797 0.82141 0.0
H374 H 0.94447 0.59189 0.90569 0.0
C375 C 0.87943 0.54085 0.92207 0.0
C376 C 0.84574 0.51206 0.92562 0.0
C377 C 0.90425 0.5375 0.87964 0.0
C378 C 0.83767 0.47925 0.88836 0.0
C379 C 0.86233 0.47569 0.84549 0.0
C380 C 0.91994 0.50248 0.79213 0.0
C381 C 0.95227 0.53271 0.78323 0.0
C382 C 0.89561 0.50484 0.83961 0.0
C383 C 0.96089 0.56442 0.82672 0.0
C384 C 0.93728 0.56675 0.87471 0.0
H385 H 0.25369 0.82642 0.8548 0.0
H386 H 0.24965 0.89927 0.02725 0.0
H387 H 0.29016 0.94913 0.95597 0.0
H388 H 0.33532 0.9714 0.85956 0.0
H389 H 0.33762 0.8984 0.68481 0.0
H390 H 0.28859 0.84915 0.74027 0.0
C391 C 0.26077 0.8532 0.87495 0.0
C392 C 0.24907 0.85935 0.94619 0.0
C393 C 0.28393 0.88166 0.83347 0.0
C394 C 0.25825 0.89401 0.97215 0.0
C395 C 0.28166 0.92252 0.93181 0.0
C396 C 0.32388 0.9449 0.83156 0.0
C397 C 0.33967 0.93835 0.76807 0.0
C398 C 0.29588 0.91668 0.8644 0.0
C399 C 0.32535 0.90393 0.73297 0.0
C400 C 0.29765 0.87574 0.76535 0.0
H401 H 0.5257 0.34262 0.04836 0.0
H402 H 0.41381 0.28225 0.03951 0.0
H403 H 0.40989 0.31788 0.93826 0.0
H404 H 0.43783 0.36879 0.85789 0.0
H405 H 0.54955 0.43045 0.86862 0.0
H406 H 0.55379 0.3915 0.96134 0.0
C407 C 0.50048 0.33721 0.02416 0.0
C408 C 0.47017 0.30987 0.05248 0.0
C409 C 0.49827 0.35796 0.96543 0.0
C410 C 0.43769 0.30317 0.01962 0.0
C411 C 0.43534 0.32353 0.96129 0.0
C412 C 0.46311 0.37321 0.87898 0.0
C413 C 0.49328 0.40253 0.85602 0.0
C414 C 0.4654 0.35124 0.93425 0.0
C415 C 0.52584 0.40809 0.88515 0.0
C416 C 0.52832 0.38594 0.93873 0.0
H417 H 0.14469 0.38404 0.98884 0.0
H418 H 0.22444 0.48082 0.90533 0.0
H419 H 0.18346 0.47903 0.80313 0.0
H420 H 0.12313 0.45632 0.75489 0.0
H421 H 0.04169 0.36337 0.84642 0.0
H422 H 0.08481 0.3566 0.92701 0.0
C423 C 0.15322 0.40401 0.94649 0.0
C424 C 0.18741 0.43259 0.95442 0.0
C425 C 0.12901 0.40361 0.88995 0.0
C426 C 0.19817 0.45869 0.90027 0.0
C427 C 0.17473 0.45774 0.8421 0.0
C428 C 0.11508 0.43384 0.79025 0.0
C429 C 0.07962 0.41007 0.79434 0.0
C430 C 0.13981 0.43125 0.83875 0.0
C431 C 0.06904 0.38151 0.84159 0.0
C432 C 0.09366 0.37796 0.88826 0.0
H433 H 0.64821 0.17883 0.0051 0.0
H434 H 0.72857 0.15215 0.96845 0.0
H435 H 0.68866 0.10091 0.88393 0.0
H436 H 0.63221 0.06408 0.81716 0.0
H437 H 0.55124 0.09035 0.84166 0.0
H438 H 0.58961 0.14037 0.93544 0.0
C439 C 0.65695 0.16191 0.97813 0.0
C440 C 0.69158 0.16973 0.99344 0.0
C441 C 0.63361 0.13195 0.92815 0.0
C442 C 0.70227 0.1472 0.9582 0.0
C443 C 0.67937 0.11758 0.90976 0.0
C444 C 0.6226 0.08042 0.84329 0.0
C445 C 0.58867 0.07317 0.82246 0.0
C446 C 0.64511 0.10972 0.89424 0.0
C447 C 0.57701 0.0949 0.85747 0.0
C448 C 0.59915 0.12381 0.91036 0.0
H449 H 0.58877 0.72546 0.91999 0.0
H450 H 0.49024 0.70267 0.80915 0.0
H451 H 0.49329 0.66256 0.71005 0.0
H452 H 0.51692 0.6239 0.67533 0.0
H453 H 0.61275 0.64291 0.79276 0.0
H454 H 0.61869 0.69523 0.86589 0.0
C455 C 0.56856 0.71255 0.87269 0.0
C456 C 0.53893 0.71627 0.8732 0.0
C457 C 0.56996 0.68859 0.81684 0.0
C458 C 0.51299 0.69956 0.81121 0.0
C459 C 0.51468 0.6766 0.7543 0.0
C460 C 0.53998 0.64065 0.71376 0.0
C461 C 0.56428 0.6297 0.72908 0.0
C462 C 0.54206 0.66941 0.75918 0.0
C463 C 0.5938 0.65112 0.78003 0.0
C464 C 0.5969 0.68068 0.82284 0.0
H465 H 0.44793 0.16708 0.41227 0.0
H466 H 0.54824 0.21511 0.31537 0.0
H467 H 0.56051 0.17201 0.37338 0.0
H468 H 0.5407 0.11749 0.44136 0.0
H469 H 0.44227 0.07105 0.54581 0.0
H470 H 0.43131 0.11677 0.49579 0.0
C471 C 0.47269 0.16842 0.40494 0.0
C472 C 0.49703 0.19417 0.3589 0.0
C473 C 0.47975 0.14366 0.43928 0.0
C474 C 0.5291 0.19573 0.3506 0.0
C475 C 0.53605 0.17091 0.38335 0.0
C476 C 0.51703 0.11768 0.45393 0.0
C477 C 0.49212 0.09079 0.49635 0.0
C478 C 0.51127 0.14429 0.42616 0.0
C479 C 0.4618 0.09152 0.51332 0.0
C480 C 0.45549 0.11754 0.48437 0.0
H481 H 0.33923 0.50142 0.31376 0.0
H482 H 0.26826 0.39361 0.35992 0.0
H483 H 0.31092 0.39532 0.45877 0.0
H484 H 0.36874 0.42786 0.53108 0.0
H485 H 0.43993 0.53467 0.47696 0.0
H486 H 0.39684 0.53281 0.3813 0.0
C487 C 0.33288 0.47837 0.34608 0.0
C488 C 0.30046 0.44762 0.33082 0.0
C489 C 0.35768 0.47933 0.40077 0.0
C490 C 0.29298 0.41765 0.37134 0.0
C491 C 0.31736 0.41865 0.42763 0.0
C492 C 0.37471 0.45073 0.49852 0.0
C493 C 0.40746 0.48141 0.51143 0.0
C494 C 0.34983 0.44939 0.44276 0.0
C495 C 0.41503 0.51068 0.46797 0.0
C496 C 0.39034 0.50973 0.4135 0.0
H497 H 0.83839 0.29302 0.37273 0.0
H498 H 0.80121 0.35605 0.26215 0.0
H499 H 0.8514 0.40995 0.32276 0.0
H500 H 0.9092 0.43899 0.39422 0.0
H501 H 0.94504 0.37614 0.51056 0.0
H502 H 0.89203 0.32204 0.46033 0.0
C503 C 0.84084 0.31856 0.36376 0.0
C504 C 0.81626 0.32067 0.31298 0.0
C505 C 0.86987 0.34932 0.39822 0.0
C506 C 0.81958 0.35379 0.30174 0.0
C507 C 0.84853 0.38459 0.33545 0.0
C508 C 0.90525 0.41338 0.40865 0.0
C509 C 0.93119 0.41124 0.45408 0.0
C510 C 0.87441 0.38265 0.38142 0.0
C511 C 0.92554 0.37818 0.47465 0.0
C512 C 0.89527 0.34738 0.44612 0.0
H513 H 0.56558 0.83255 0.29598 0.0
H514 H 0.45997 0.79794 0.21114 0.0
H515 H 0.45576 0.83609 0.31293 0.0
H516 H 0.48359 0.88377 0.41658 0.0
H517 H 0.58867 0.91912 0.50475 0.0
H518 H 0.59115 0.87555 0.41339 0.0
C519 C 0.54161 0.8332 0.30032 0.0
C520 C 0.51335 0.81273 0.24505 0.0
C521 C 0.53911 0.85516 0.36007 0.0
C522 C 0.48225 0.81347 0.25236 0.0
C523 C 0.47973 0.83531 0.31071 0.0
C524 C 0.50674 0.88131 0.41723 0.0
C525 C 0.53593 0.90474 0.46695 0.0
C526 C 0.50818 0.8568 0.36369 0.0
C527 C 0.5657 0.90117 0.4675 0.0
C528 C 0.5673 0.87659 0.4144 0.0
H529 H 0.73201 0.57822 0.21553 0.0
H530 H 0.67635 0.46486 0.17169 0.0
H531 H 0.62745 0.46153 0.23983 0.0
H532 H 0.60018 0.49089 0.31059 0.0
H533 H 0.65702 0.60394 0.35957 0.0
H534 H 0.70563 0.60732 0.29004 0.0
C535 C 0.70926 0.55272 0.22112 0.0
C536 C 0.70792 0.52182 0.1883 0.0
C537 C 0.6813 0.55099 0.26072 0.0
C538 C 0.67824 0.48905 0.19663 0.0
C539 C 0.65016 0.48715 0.23524 0.0
C540 C 0.62308 0.51632 0.30546 0.0
C541 C 0.62476 0.5472 0.33954 0.0
C542 C 0.65129 0.51796 0.26702 0.0
C543 C 0.65495 0.57982 0.33368 0.0
C544 C 0.68279 0.58175 0.29405 0.0
H545 H 0.19835 0.70772 0.28942 0.0
H546 H 0.14184 0.76403 0.31479 0.0
H547 H 0.10915 0.72603 0.417 0.0
H548 H 0.09155 0.67226 0.48682 0.0
H549 H 0.14419 0.61273 0.45168 0.0
H550 H 0.18413 0.65701 0.36774 0.0
C551 C 0.17922 0.71204 0.318 0.0
C552 C 0.17236 0.73854 0.2937 0.0
C553 C 0.15993 0.68954 0.37554 0.0
C554 C 0.14745 0.74366 0.33159 0.0
C555 C 0.12877 0.72196 0.39027 0.0
C556 C 0.1126 0.66972 0.46316 0.0
C557 C 0.11525 0.63953 0.47624 0.0
C558 C 0.13417 0.69425 0.41132 0.0
C559 C 0.14196 0.63598 0.44322 0.0
C560 C 0.1645 0.66108 0.39445 0.0
loop_
_geom_bond_atom_site_label_1
_geom_bond_atom_site_label_2
_geom_bond_distance
_geom_bond_site_symmetry_2
_ccdc_geom_bond_type
C0 O2 1.247 . S
C0 O4 1.258 . S
C1 O8 1.247 . S
C1 O9 1.258 . S
O2 C0 1.247 . S
O2 Zn3 2.028 . S
Zn3 O2 2.028 . S
Zn3 O7 2.035 . S
Zn3 O9 2.035 . S
Zn3 O10 2.028 . S
O4 C0 1.258 . S
O4 Zn5 2.035 . S
Zn5 O4 2.035 . S
Zn5 O6 2.028 . S
Zn5 O8 2.028 . S
Zn5 O11 2.035 . S
O6 Zn5 2.028 . S
O6 C12 1.247 . S
O7 Zn3 2.035 . S
O7 C12 1.258 . S
O8 C1 1.247 . S
O8 Zn5 2.028 . S
O9 C1 1.258 . S
O9 Zn3 2.035 . S
O10 Zn3 2.028 . S
O10 C13 1.247 . S
O11 Zn5 2.035 . S
O11 C13 1.258 . S
C12 O6 1.247 . S
C12 O7 1.258 . S
C13 O10 1.247 . S
C13 O11 1.258 . S
C14 O16 1.247 . S
C14 O18 1.258 . S
C15 O22 1.247 . S
C15 O23 1.258 . S
O16 C14 1.247 . S
O16 Zn17 2.028 . S
Zn17 O16 2.028 . S
Zn17 O21 2.035 . S
Zn17 O23 2.035 . S
Zn17 O24 2.028 . S
O18 C14 1.258 . S
O18 Zn19 2.035 . S
Zn19 O18 2.035 . S
Zn19 O20 2.028 . S
Zn19 O22 2.028 . S
Zn19 O25 2.035 . S
O20 Zn19 2.028 . S
O20 C26 1.247 . S
O21 Zn17 2.035 . S
O21 C26 1.258 . S
O22 C15 1.247 . S
O22 Zn19 2.028 . S
O23 C15 1.258 . S
O23 Zn17 2.035 . S
O24 Zn17 2.028 . S
O24 C27 1.247 . S
O25 Zn19 2.035 . S
O25 C27 1.258 . S
C26 O20 1.247 . S
C26 O21 1.258 . S
C27 O24 1.247 . S
C27 O25 1.258 . S
C28 O30 1.247 . S
C28 O32 1.258 . S
C29 O36 1.247 . S
C29 O37 1.258 . S
O30 C28 1.247 . S
O30 Zn31 2.028 . S
Zn31 O30 2.028 . S
Zn31 O35 2.035 . S
Zn31 O37 2.035 1_554 S
Zn31 O38 2.028 1_554 S
O32 C28 1.258 . S
O32 Zn33 2.035 . S
Zn33 O32 2.035 . S
Zn33 O34 2.028 . S
Zn33 O36 2.028 1_554 S
Zn33 O39 2.035 1_554 S
O34 Zn33 2.028 . S
O34 C40 1.247 . S
O35 Zn31 2.035 . S
O35 C40 1.258 . S
O36 C29 1.247 . S
O36 Zn33 2.028 1_556 S
O37 C29 1.258 . S
O37 Zn31 2.035 1_556 S
O38 Zn31 2.028 1_556 S
O38 C41 1.247 . S
O39 Zn33 2.035 1_556 S
O39 C41 1.258 . S
C40 O34 1.247 . S
C40 O35 1.258 . S
C41 O38 1.247 . S
C41 O39 1.258 . S
C42 O44 1.247 . S
C42 O46 1.258 . S
C43 O50 1.247 . S
C43 O51 1.258 . S
O44 C42 1.247 . S
O44 Zn45 2.028 1_556 S
Zn45 O44 2.028 1_554 S
Zn45 O49 2.035 1_554 S
Zn45 O51 2.035 . S
Zn45 O52 2.028 . S
O46 C42 1.258 . S
O46 Zn47 2.035 1_556 S
Zn47 O46 2.035 1_554 S
Zn47 O48 2.028 1_554 S
Zn47 O50 2.028 . S
Zn47 O53 2.035 . S
O48 Zn47 2.028 1_556 S
O48 C54 1.247 . S
O49 Zn45 2.035 1_556 S
O49 C54 1.258 . S
O50 C43 1.247 . S
O50 Zn47 2.028 . S
O51 C43 1.258 . S
O51 Zn45 2.035 . S
O52 Zn45 2.028 . S
O52 C55 1.247 . S
O53 Zn47 2.035 . S
O53 C55 1.258 . S
C54 O48 1.247 . S
C54 O49 1.258 . S
C55 O52 1.247 . S
C55 O53 1.258 . S
C56 O58 1.247 . S
C56 O60 1.258 . S
C57 O64 1.247 . S
C57 O65 1.258 . S
O58 C56 1.247 . S
O58 Zn59 2.028 . S
Zn59 O58 2.028 . S
Zn59 O63 2.035 . S
Zn59 O65 2.035 . S
Zn59 O66 2.028 . S
O60 C56 1.258 . S
O60 Zn61 2.035 . S
Zn61 O60 2.035 . S
Zn61 O62 2.028 . S
Zn61 O64 2.028 . S
Zn61 O67 2.035 . S
O62 Zn61 2.028 . S
O62 C68 1.247 . S
O63 Zn59 2.035 . S
O63 C68 1.258 . S
O64 C57 1.247 . S
O64 Zn61 2.028 . S
O65 C57 1.258 . S
O65 Zn59 2.035 . S
O66 Zn59 2.028 . S
O66 C69 1.247 . S
O67 Zn61 2.035 . S
O67 C69 1.258 . S
C68 O62 1.247 . S
C68 O63 1.258 . S
C69 O66 1.247 . S
C69 O67 1.258 . S
C70 O72 1.247 . S
C70 O74 1.258 . S
C71 O78 1.247 . S
C71 O79 1.258 . S
O72 C70 1.247 . S
O72 Zn73 2.028 . S
Zn73 O72 2.028 . S
Zn73 O77 2.035 . S
Zn73 O79 2.035 . S
Zn73 O80 2.028 . S
O74 C70 1.258 . S
O74 Zn75 2.035 . S
Zn75 O74 2.035 . S
Zn75 O76 2.028 . S
Zn75 O78 2.028 . S
Zn75 O81 2.035 . S
O76 Zn75 2.028 . S
O76 C82 1.247 . S
O77 Zn73 2.035 . S
O77 C82 1.258 . S
O78 C71 1.247 . S
O78 Zn75 2.028 . S
O79 C71 1.258 . S
O79 Zn73 2.035 . S
O80 Zn73 2.028 . S
O80 C83 1.247 . S
O81 Zn75 2.035 . S
O81 C83 1.258 . S
C82 O76 1.247 . S
C82 O77 1.258 . S
C83 O80 1.247 . S
C83 O81 1.258 . S
C84 O111 1.312 . S
C84 O112 1.208 . S
C85 O106 1.331 . S
C85 O109 1.244 . S
C86 O108 1.264 . S
C86 O110 1.273 . S
Mg87 O89 1.936 1_455 S
Mg87 O96 2.081 1_455 S
Mg87 O98 2.023 . S
Mg87 O102 2.031 1_455 S
Mg87 O111 2.291 . S
Mg88 O89 1.963 . S
Mg88 O99 1.942 . S
Mg88 O100 1.955 1_655 S
Mg88 O107 1.986 . S
O89 Mg87 1.936 1_655 S
O89 Mg88 1.963 . S
O89 Mg90 1.915 1_655 S
Mg90 O89 1.915 1_455 S
Mg90 O91 1.915 . S
Mg90 O95 2.013 . S
Mg90 O101 2.114 1_455 S
Mg90 O105 2.013 1_455 S
Mg90 O111 2.114 . S
O91 Mg90 1.915 . S
O91 Mg92 1.936 . S
O91 Mg93 1.963 . S
Mg92 O91 1.936 . S
Mg92 O101 2.291 1_455 S
Mg92 O106 2.081 . S
Mg92 O108 2.023 1_455 S
Mg92 O112 2.031 . S
Mg93 O91 1.963 . S
Mg93 O97 1.986 . S
Mg93 O109 1.942 . S
Mg93 O110 1.955 1_455 S
C94 O105 1.191 . S
C94 O107 1.307 . S
O95 Mg90 2.013 . S
O95 C114 1.191 . S
O96 Mg87 2.081 1_655 S
O96 C104 1.331 . S
O97 Mg93 1.986 . S
O97 C114 1.307 . S
O98 Mg87 2.023 . S
O98 C113 1.264 . S
O99 Mg88 1.942 . S
O99 C104 1.244 . S
O100 Mg88 1.955 1_455 S
O100 C113 1.273 . S
O101 Mg90 2.114 1_655 S
O101 Mg92 2.291 1_655 S
O101 C103 1.312 . S
O102 Mg87 2.031 1_655 S
O102 C103 1.208 . S
C103 O101 1.312 . S
C103 O102 1.208 . S
C104 O96 1.331 . S
C104 O99 1.244 . S
O105 Mg90 2.013 1_655 S
O105 C94 1.191 . S
O106 C85 1.331 . S
O106 Mg92 2.081 . S
O107 Mg88 1.986 . S
O107 C94 1.307 . S
O108 C86 1.264 . S
O108 Mg92 2.023 1_655 S
O109 C85 1.244 . S
O109 Mg93 1.942 . S
O110 C86 1.273 . S
O110 Mg93 1.955 1_655 S
O111 C84 1.312 . S
O111 Mg87 2.291 . S
O111 Mg90 2.114 . S
O112 C84 1.208 . S
O112 Mg92 2.031 . S
C113 O98 1.264 . S
C113 O100 1.273 . S
C114 O95 1.191 . S
C114 O97 1.307 . S
C115 O142 1.312 . S
C115 O143 1.208 . S
C116 O137 1.331 . S
C116 O140 1.244 . S
C117 O139 1.264 . S
C117 O141 1.273 . S
Mg118 O120 1.936 1_545 S
Mg118 O127 2.081 1_545 S
Mg118 O129 2.023 . S
Mg118 O133 2.031 1_545 S
Mg118 O142 2.291 . S
Mg119 O120 1.963 . S
Mg119 O130 1.942 . S
Mg119 O131 1.955 1_565 S
Mg119 O138 1.986 . S
O120 Mg118 1.936 1_565 S
O120 Mg119 1.963 . S
O120 Mg121 1.915 1_565 S
Mg121 O120 1.915 1_545 S
Mg121 O122 1.915 . S
Mg121 O126 2.013 . S
Mg121 O132 2.114 1_545 S
Mg121 O136 2.013 1_545 S
Mg121 O142 2.114 . S
O122 Mg121 1.915 . S
O122 Mg123 1.936 . S
O122 Mg124 1.963 . S
Mg123 O122 1.936 . S
Mg123 O132 2.291 1_545 S
Mg123 O137 2.081 . S
Mg123 O139 2.023 1_545 S
Mg123 O143 2.031 . S
Mg124 O122 1.963 . S
Mg124 O128 1.986 . S
Mg124 O140 1.942 . S
Mg124 O141 1.955 1_545 S
C125 O136 1.191 . S
C125 O138 1.307 . S
O126 Mg121 2.013 . S
O126 C145 1.191 . S
O127 Mg118 2.081 1_565 S
O127 C135 1.331 . S
O128 Mg124 1.986 . S
O128 C145 1.307 . S
O129 Mg118 2.023 . S
O129 C144 1.264 . S
O130 Mg119 1.942 . S
O130 C135 1.244 . S
O131 Mg119 1.955 1_545 S
O131 C144 1.273 . S
O132 Mg121 2.114 1_565 S
O132 Mg123 2.291 1_565 S
O132 C134 1.312 . S
O133 Mg118 2.031 1_565 S
O133 C134 1.208 . S
C134 O132 1.312 . S
C134 O133 1.208 . S
C135 O127 1.331 . S
C135 O130 1.244 . S
O136 Mg121 2.013 1_565 S
O136 C125 1.191 . S
O137 C116 1.331 . S
O137 Mg123 2.081 . S
O138 Mg119 1.986 . S
O138 C125 1.307 . S
O139 C117 1.264 . S
O139 Mg123 2.023 1_565 S
O140 C116 1.244 . S
O140 Mg124 1.942 . S
O141 C117 1.273 . S
O141 Mg124 1.955 1_565 S
O142 C115 1.312 . S
O142 Mg118 2.291 . S
O142 Mg121 2.114 . S
O143 C115 1.208 . S
O143 Mg123 2.031 . S
C144 O129 1.264 . S
C144 O131 1.273 . S
C145 O126 1.191 . S
C145 O128 1.307 . S
C146 O173 1.312 . S
C146 O174 1.208 . S
C147 O168 1.331 . S
C147 O171 1.244 . S
C148 O170 1.264 . S
C148 O172 1.273 . S
Mg149 O151 1.936 . S
Mg149 O158 2.081 . S
Mg149 O160 2.023 . S
Mg149 O164 2.031 . S
Mg149 O173 2.291 . S
Mg150 O151 1.963 . S
Mg150 O161 1.942 . S
Mg150 O162 1.955 . S
Mg150 O169 1.986 . S
O151 Mg149 1.936 . S
O151 Mg150 1.963 . S
O151 Mg152 1.915 . S
Mg152 O151 1.915 . S
Mg152 O153 1.915 . S
Mg152 O157 2.013 . S
Mg152 O163 2.114 . S
Mg152 O167 2.013 . S
Mg152 O173 2.114 . S
O153 Mg152 1.915 . S
O153 Mg154 1.936 . S
O153 Mg155 1.963 . S
Mg154 O153 1.936 . S
Mg154 O163 2.291 . S
Mg154 O168 2.081 . S
Mg154 O170 2.023 . S
Mg154 O174 2.031 . S
Mg155 O153 1.963 . S
Mg155 O159 1.986 . S
Mg155 O171 1.942 . S
Mg155 O172 1.955 . S
C156 O167 1.191 . S
C156 O169 1.307 . S
O157 Mg152 2.013 . S
O157 C176 1.191 . S
O158 Mg149 2.081 . S
O158 C166 1.331 . S
O159 Mg155 1.986 . S
O159 C176 1.307 . S
O160 Mg149 2.023 . S
O160 C175 1.264 . S
O161 Mg150 1.942 . S
O161 C166 1.244 . S
O162 Mg150 1.955 . S
O162 C175 1.273 . S
O163 Mg152 2.114 . S
O163 Mg154 2.291 . S
O163 C165 1.312 . S
O164 Mg149 2.031 . S
O164 C165 1.208 . S
C165 O163 1.312 . S
C165 O164 1.208 . S
C166 O158 1.331 . S
C166 O161 1.244 . S
O167 Mg152 2.013 . S
O167 C156 1.191 . S
O168 C147 1.331 . S
O168 Mg154 2.081 . S
O169 Mg150 1.986 . S
O169 C156 1.307 . S
O170 C148 1.264 . S
O170 Mg154 2.023 . S
O171 C147 1.244 . S
O171 Mg155 1.942 . S
O172 C148 1.273 . S
O172 Mg155 1.955 . S
O173 C146 1.312 . S
O173 Mg149 2.291 . S
O173 Mg152 2.114 . S
O174 C146 1.208 . S
O174 Mg154 2.031 . S
C175 O160 1.264 . S
C175 O162 1.273 . S
C176 O157 1.191 . S
C176 O159 1.307 . S
H177 C183 0.930 . S
H178 C186 0.930 . S
H179 C187 0.930 . S
H180 C188 0.930 . S
H181 C191 0.930 . S
H182 C192 0.930 . S
C183 H177 0.930 . S
C183 C184 1.355 . S
C183 C185 1.415 . S
C184 C183 1.355 . S
C184 C186 1.419 . S
C185 C183 1.415 . S
C185 C190 1.425 . S
C185 C192 1.409 . S
C186 H178 0.930 . S
C186 C184 1.419 . S
C186 C187 1.362 . S
C187 H179 0.930 . S
C187 C186 1.362 . S
C187 C190 1.409 . S
C188 H180 0.930 . S
C188 C189 1.355 . S
C188 C190 1.415 . S
C189 C188 1.355 . S
C189 C191 1.419 . S
C190 C185 1.425 . S
C190 C187 1.409 . S
C190 C188 1.415 . S
C191 H181 0.930 . S
C191 C189 1.419 . S
C191 C192 1.362 . S
C192 H182 0.930 . S
C192 C185 1.409 . S
C192 C191 1.362 . S
H193 C199 0.930 . S
H194 C202 0.930 . S
H195 C203 0.930 . S
H196 C204 0.930 . S
H197 C207 0.930 . S
H198 C208 0.930 . S
C199 H193 0.930 . S
C199 C200 1.355 . S
C199 C201 1.415 . S
C200 C199 1.355 . S
C200 C202 1.419 . S
C201 C199 1.415 . S
C201 C206 1.425 . S
C201 C208 1.409 . S
C202 H194 0.930 . S
C202 C200 1.419 . S
C202 C203 1.362 . S
C203 H195 0.930 . S
C203 C202 1.362 . S
C203 C206 1.409 . S
C204 H196 0.930 . S
C204 C205 1.355 . S
C204 C206 1.415 . S
C205 C204 1.355 . S
C205 C207 1.419 . S
C206 C201 1.425 . S
C206 C203 1.409 . S
C206 C204 1.415 . S
C207 H197 0.930 . S
C207 C205 1.419 . S
C207 C208 1.362 . S
C208 H198 0.930 . S
C208 C201 1.409 . S
C208 C207 1.362 . S
H209 C215 0.930 . S
H210 C218 0.930 . S
H211 C219 0.930 . S
H212 C220 0.930 . S
H213 C223 0.930 . S
H214 C224 0.930 . S
C215 H209 0.930 . S
C215 C216 1.355 . S
C215 C217 1.415 . S
C216 C215 1.355 . S
C216 C218 1.419 . S
C217 C215 1.415 . S
C217 C222 1.425 . S
C217 C224 1.409 . S
C218 H210 0.930 . S
C218 C216 1.419 . S
C218 C219 1.362 . S
C219 H211 0.930 . S
C219 C218 1.362 . S
C219 C222 1.409 . S
C220 H212 0.930 . S
C220 C221 1.355 . S
C220 C222 1.415 . S
C221 C220 1.355 . S
C221 C223 1.419 . S
C222 C217 1.425 . S
C222 C219 1.409 . S
C222 C220 1.415 . S
C223 H213 0.930 . S
C223 C221 1.419 . S
C223 C224 1.362 . S
C224 H214 0.930 . S
C224 C217 1.409 . S
C224 C223 1.362 . S
H225 C231 0.930 . S
H226 C234 0.930 . S
H227 C235 0.930 . S
H228 C236 0.930 . S
H229 C239 0.930 . S
H230 C240 0.930 . S
C231 H225 0.930 . S
C231 C232 1.355 . S
C231 C233 1.415 . S
C232 C231 1.355 . S
C232 C234 1.419 . S
C233 C231 1.415 . S
C233 C238 1.425 . S
C233 C240 1.409 . S
C234 H226 0.930 . S
C234 C232 1.419 . S
C234 C235 1.362 . S
C235 H227 0.930 . S
C235 C234 1.362 . S
C235 C238 1.409 . S
C236 H228 0.930 . S
C236 C237 1.355 . S
C236 C238 1.415 . S
C237 C236 1.355 . S
C237 C239 1.419 . S
C238 C233 1.425 . S
C238 C235 1.409 . S
C238 C236 1.415 . S
C239 H229 0.930 . S
C239 C237 1.419 . S
C239 C240 1.362 . S
C240 H230 0.930 . S
C240 C233 1.409 . S
C240 C239 1.362 . S
H241 C247 0.930 . S
H242 C250 0.930 . S
H243 C251 0.930 . S
H244 C252 0.930 . S
H245 C255 0.930 . S
H246 C256 0.930 . S
C247 H241 0.930 . S
C247 C248 1.355 . S
C247 C249 1.415 . S
C248 C247 1.355 . S
C248 C250 1.419 . S
C249 C247 1.415 . S
C249 C254 1.425 . S
C249 C256 1.409 . S
C250 H242 0.930 . S
C250 C248 1.419 . S
C250 C251 1.362 . S
C251 H243 0.930 . S
C251 C250 1.362 . S
C251 C254 1.409 . S
C252 H244 0.930 . S
C252 C253 1.355 . S
C252 C254 1.415 . S
C253 C252 1.355 . S
C253 C255 1.419 . S
C254 C249 1.425 . S
C254 C251 1.409 . S
C254 C252 1.415 . S
C255 H245 0.930 . S
C255 C253 1.419 . S
C255 C256 1.362 . S
C256 H246 0.930 . S
C256 C249 1.409 . S
C256 C255 1.362 . S
H257 C263 0.930 . S
H258 C266 0.930 . S
H259 C267 0.930 . S
H260 C268 0.930 . S
H261 C271 0.930 . S
H262 C272 0.930 . S
C263 H257 0.930 . S
C263 C264 1.355 . S
C263 C265 1.415 . S
C264 C263 1.355 . S
C264 C266 1.419 . S
C265 C263 1.415 . S
C265 C270 1.425 . S
C265 C272 1.409 . S
C266 H258 0.930 . S
C266 C264 1.419 . S
C266 C267 1.362 . S
C267 H259 0.930 . S
C267 C266 1.362 . S
C267 C270 1.409 . S
C268 H260 0.930 . S
C268 C269 1.355 . S
C268 C270 1.415 . S
C269 C268 1.355 . S
C269 C271 1.419 . S
C270 C265 1.425 . S
C270 C267 1.409 . S
C270 C268 1.415 . S
C271 H261 0.930 . S
C271 C269 1.419 . S
C271 C272 1.362 . S
C272 H262 0.930 . S
C272 C265 1.409 . S
C272 C271 1.362 . S
H273 C279 0.930 . S
H274 C282 0.930 . S
H275 C283 0.930 . S
H276 C284 0.930 . S
H277 C287 0.930 . S
H278 C288 0.930 . S
C279 H273 0.930 . S
C279 C280 1.355 . S
C279 C281 1.415 . S
C280 C279 1.355 . S
C280 C282 1.419 . S
C281 C279 1.415 . S
C281 C286 1.425 . S
C281 C288 1.409 . S
C282 H274 0.930 . S
C282 C280 1.419 . S
C282 C283 1.362 . S
C283 H275 0.930 . S
C283 C282 1.362 . S
C283 C286 1.409 . S
C284 H276 0.930 . S
C284 C285 1.355 . S
C284 C286 1.415 . S
C285 C284 1.355 . S
C285 C287 1.419 . S
C286 C281 1.425 . S
C286 C283 1.409 . S
C286 C284 1.415 . S
C287 H277 0.930 . S
C287 C285 1.419 . S
C287 C288 1.362 . S
C288 H278 0.930 . S
C288 C281 1.409 . S
C288 C287 1.362 . S
H289 C295 0.930 . S
H290 C298 0.930 . S
H291 C299 0.930 . S
H292 C300 0.930 . S
H293 C303 0.930 . S
H294 C304 0.930 . S
C295 H289 0.930 . S
C295 C296 1.355 . S
C295 C297 1.415 . S
C296 C295 1.355 . S
C296 C298 1.419 . S
C297 C295 1.415 . S
C297 C302 1.425 . S
C297 C304 1.409 . S
C298 H290 0.930 . S
C298 C296 1.419 . S
C298 C299 1.362 . S
C299 H291 0.930 . S
C299 C298 1.362 . S
C299 C302 1.409 . S
C300 H292 0.930 . S
C300 C301 1.355 . S
C300 C302 1.415 . S
C301 C300 1.355 . S
C301 C303 1.419 . S
C302 C297 1.425 . S
C302 C299 1.409 . S
C302 C300 1.415 . S
C303 H293 0.930 . S
C303 C301 1.419 . S
C303 C304 1.362 . S
C304 H294 0.930 . S
C304 C297 1.409 . S
C304 C303 1.362 . S
H305 C311 0.930 . S
H306 C314 0.930 . S
H307 C315 0.930 1_554 S
H308 C316 0.930 . S
H309 C319 0.930 . S
H310 C320 0.930 . S
C311 H305 0.930 . S
C311 C312 1.355 . S
C311 C313 1.415 . S
C312 C311 1.355 . S
C312 C314 1.419 1_556 S
C313 C311 1.415 . S
C313 C318 1.425 . S
C313 C320 1.409 . S
C314 H306 0.930 . S
C314 C312 1.419 1_554 S
C314 C315 1.362 1_554 S
C315 H307 0.930 1_556 S
C315 C314 1.362 1_556 S
C315 C318 1.409 . S
C316 H308 0.930 . S
C316 C317 1.355 . S
C316 C318 1.415 . S
C317 C316 1.355 . S
C317 C319 1.419 . S
C318 C313 1.425 . S
C318 C315 1.409 . S
C318 C316 1.415 . S
C319 H309 0.930 . S
C319 C317 1.419 . S
C319 C320 1.362 . S
C320 H310 0.930 . S
C320 C313 1.409 . S
C320 C319 1.362 . S
H321 C327 0.930 . S
H322 C330 0.930 . S
H323 C331 0.930 . S
H324 C332 0.930 . S
H325 C335 0.930 . S
H326 C336 0.930 . S
C327 H321 0.930 . S
C327 C328 1.355 . S
C327 C329 1.415 1_554 S
C328 C327 1.355 . S
C328 C330 1.419 . S
C329 C327 1.415 1_556 S
C329 C334 1.425 . S
C329 C336 1.409 . S
C330 H322 0.930 . S
C330 C328 1.419 . S
C330 C331 1.362 1_554 S
C331 H323 0.930 . S
C331 C330 1.362 1_556 S
C331 C334 1.409 . S
C332 H324 0.930 . S
C332 C333 1.355 . S
C332 C334 1.415 . S
C333 C332 1.355 . S
C333 C335 1.419 . S
C334 C329 1.425 . S
C334 C331 1.409 . S
C334 C332 1.415 . S
C335 H325 0.930 . S
C335 C333 1.419 . S
C335 C336 1.362 . S
C336 H326 0.930 . S
C336 C329 1.409 . S
C336 C335 1.362 . S
H337 C343 0.930 . S
H338 C346 0.930 . S
H339 C347 0.930 . S
H340 C348 0.930 . S
H341 C351 0.930 . S
H342 C352 0.930 . S
C343 H337 0.930 . S
C343 C344 1.355 . S
C343 C345 1.415 . S
C344 C343 1.355 . S
C344 C346 1.419 1_554 S
C345 C343 1.415 . S
C345 C350 1.425 1_554 S
C345 C352 1.409 . S
C346 H338 0.930 . S
C346 C344 1.419 1_556 S
C346 C347 1.362 . S
C347 H339 0.930 . S
C347 C346 1.362 . S
C347 C350 1.409 . S
C348 H340 0.930 . S
C348 C349 1.355 . S
C348 C350 1.415 . S
C349 C348 1.355 . S
C349 C351 1.419 . S
C350 C345 1.425 1_556 S
C350 C347 1.409 . S
C350 C348 1.415 . S
C351 H341 0.930 . S
C351 C349 1.419 . S
C351 C352 1.362 1_556 S
C352 H342 0.930 . S
C352 C345 1.409 . S
C352 C351 1.362 1_554 S
H353 C359 0.930 . S
H354 C362 0.930 . S
H355 C363 0.930 . S
H356 C364 0.930 . S
H357 C367 0.930 . S
H358 C368 0.930 . S
C359 H353 0.930 . S
C359 C360 1.355 . S
C359 C361 1.415 . S
C360 C359 1.355 . S
C360 C362 1.419 . S
C361 C359 1.415 . S
C361 C366 1.425 . S
C361 C368 1.409 . S
C362 H354 0.930 . S
C362 C360 1.419 . S
C362 C363 1.362 . S
C363 H355 0.930 . S
C363 C362 1.362 . S
C363 C366 1.409 . S
C364 H356 0.930 . S
C364 C365 1.355 . S
C364 C366 1.415 . S
C365 C364 1.355 . S
C365 C367 1.419 . S
C366 C361 1.425 . S
C366 C363 1.409 . S
C366 C364 1.415 . S
C367 H357 0.930 . S
C367 C365 1.419 . S
C367 C368 1.362 . S
C368 H358 0.930 . S
C368 C361 1.409 . S
C368 C367 1.362 . S
H369 C375 0.930 . S
H370 C378 0.930 . S
H371 C379 0.930 . S
H372 C380 0.930 . S
H373 C383 0.930 . S
H374 C384 0.930 . S
C375 H369 0.930 . S
C375 C376 1.355 . S
C375 C377 1.415 . S
C376 C375 1.355 . S
C376 C378 1.419 . S
C377 C375 1.415 . S
C377 C382 1.425 . S
C377 C384 1.409 . S
C378 H370 0.930 . S
C378 C376 1.419 . S
C378 C379 1.362 . S
C379 H371 0.930 . S
C379 C378 1.362 . S
C379 C382 1.409 . S
C380 H372 0.930 . S
C380 C381 1.355 . S
C380 C382 1.415 . S
C381 C380 1.355 . S
C381 C383 1.419 . S
C382 C377 1.425 . S
C382 C379 1.409 . S
C382 C380 1.415 . S
C383 H373 0.930 . S
C383 C381 1.419 . S
C383 C384 1.362 . S
C384 H374 0.930 . S
C384 C377 1.409 . S
C384 C383 1.362 . S
H385 C391 0.930 . S
H386 C394 0.930 . S
H387 C395 0.928 1_554 S
H388 C396 0.930 . S
H389 C399 0.930 . S
H390 C400 0.930 . S
C391 H385 0.930 . S
C391 C392 1.355 . S
C391 C393 1.415 . S
C392 C391 1.355 . S
C392 C394 1.419 1_556 S
C393 C391 1.415 . S
C393 C398 1.425 . S
C393 C400 1.409 . S
C394 H386 0.930 . S
C394 C392 1.419 1_554 S
C394 C395 1.360 1_554 S
C395 H387 0.928 1_556 S
C395 C394 1.360 1_556 S
C395 C398 1.414 . S
C396 H388 0.930 . S
C396 C397 1.355 . S
C396 C398 1.415 . S
C397 C396 1.355 . S
C397 C399 1.419 . S
C398 C393 1.425 . S
C398 C395 1.414 . S
C398 C396 1.415 . S
C399 H389 0.930 . S
C399 C397 1.419 . S
C399 C400 1.362 . S
C400 H390 0.930 . S
C400 C393 1.409 . S
C400 C399 1.362 . S
H401 C407 0.930 . S
H402 C410 0.930 . S
H403 C411 0.930 . S
H404 C412 0.930 . S
H405 C415 0.930 . S
H406 C416 0.930 . S
C407 H401 0.930 . S
C407 C408 1.355 . S
C407 C409 1.415 1_554 S
C408 C407 1.355 . S
C408 C410 1.419 1_554 S
C409 C407 1.415 1_556 S
C409 C414 1.425 . S
C409 C416 1.409 . S
C410 H402 0.930 . S
C410 C408 1.419 1_556 S
C410 C411 1.362 . S
C411 H403 0.930 . S
C411 C410 1.362 . S
C411 C414 1.409 . S
C412 H404 0.930 . S
C412 C413 1.355 . S
C412 C414 1.415 . S
C413 C412 1.355 . S
C413 C415 1.419 . S
C414 C409 1.425 . S
C414 C411 1.409 . S
C414 C412 1.415 . S
C415 H405 0.930 . S
C415 C413 1.419 . S
C415 C416 1.362 . S
C416 H406 0.930 . S
C416 C409 1.409 . S
C416 C415 1.362 . S
H417 C423 0.930 . S
H418 C426 0.930 . S
H419 C427 0.930 . S
H420 C428 0.930 . S
H421 C431 0.930 . S
H422 C432 0.930 1_554 S
C423 H417 0.930 . S
C423 C424 1.355 . S
C423 C425 1.415 1_554 S
C424 C423 1.355 . S
C424 C426 1.419 1_554 S
C425 C423 1.415 1_556 S
C425 C430 1.425 . S
C425 C432 1.409 . S
C426 H418 0.930 . S
C426 C424 1.419 1_556 S
C426 C427 1.362 . S
C427 H419 0.930 . S
C427 C426 1.362 . S
C427 C430 1.409 . S
C428 H420 0.930 . S
C428 C429 1.355 . S
C428 C430 1.415 . S
C429 C428 1.355 . S
C429 C431 1.419 . S
C430 C425 1.425 . S
C430 C427 1.409 . S
C430 C428 1.415 . S
C431 H421 0.930 . S
C431 C429 1.419 . S
C431 C432 1.362 . S
C432 H422 0.930 1_556 S
C432 C425 1.409 . S
C432 C431 1.362 . S
H433 C439 0.930 . S
H434 C442 0.930 1_554 S
H435 C443 0.930 . S
H436 C444 0.930 . S
H437 C447 0.930 . S
H438 C448 0.930 . S
C439 H433 0.930 . S
C439 C440 1.355 . S
C439 C441 1.415 . S
C440 C439 1.355 . S
C440 C442 1.419 . S
C441 C439 1.415 . S
C441 C446 1.425 . S
C441 C448 1.409 . S
C442 H434 0.930 1_556 S
C442 C440 1.419 . S
C442 C443 1.362 . S
C443 H435 0.930 . S
C443 C442 1.362 . S
C443 C446 1.409 . S
C444 H436 0.930 . S
C444 C445 1.355 . S
C444 C446 1.415 . S
C445 C444 1.355 . S
C445 C447 1.419 . S
C446 C441 1.425 . S
C446 C443 1.409 . S
C446 C444 1.415 . S
C447 H437 0.930 . S
C447 C445 1.419 . S
C447 C448 1.362 . S
C448 H438 0.930 . S
C448 C441 1.409 . S
C448 C447 1.362 . S
H449 C455 0.930 . S
H450 C458 0.930 . S
H451 C459 0.930 . S
H452 C460 0.930 . S
H453 C463 0.930 . S
H454 C464 0.930 . S
C455 H449 0.930 . S
C455 C456 1.355 . S
C455 C457 1.415 . S
C456 C455 1.355 . S
C456 C458 1.419 . S
C457 C455 1.415 . S
C457 C462 1.425 . S
C457 C464 1.409 . S
C458 H450 0.930 . S
C458 C456 1.419 . S
C458 C459 1.362 . S
C459 H451 0.930 . S
C459 C458 1.362 . S
C459 C462 1.409 . S
C460 H452 0.930 . S
C460 C461 1.355 . S
C460 C462 1.415 . S
C461 C460 1.355 . S
C461 C463 1.419 . S
C462 C457 1.425 . S
C462 C459 1.409 . S
C462 C460 1.415 . S
C463 H453 0.930 . S
C463 C461 1.419 . S
C463 C464 1.362 . S
C464 H454 0.930 . S
C464 C457 1.409 . S
C464 C463 1.362 . S
H465 C471 0.930 . S
H466 C474 0.930 . S
H467 C475 0.930 . S
H468 C476 0.930 . S
H469 C479 0.930 . S
H470 C480 0.930 . S
C471 H465 0.930 . S
C471 C472 1.355 . S
C471 C473 1.415 . S
C472 C471 1.355 . S
C472 C474 1.419 . S
C473 C471 1.415 . S
C473 C478 1.425 . S
C473 C480 1.409 . S
C474 H466 0.930 . S
C474 C472 1.419 . S
C474 C475 1.362 . S
C475 H467 0.930 . S
C475 C474 1.362 . S
C475 C478 1.409 . S
C476 H468 0.930 . S
C476 C477 1.355 . S
C476 C478 1.415 . S
C477 C476 1.355 . S
C477 C479 1.419 . S
C478 C473 1.425 . S
C478 C475 1.409 . S
C478 C476 1.415 . S
C479 H469 0.930 . S
C479 C477 1.419 . S
C479 C480 1.362 . S
C480 H470 0.930 . S
C480 C473 1.409 . S
C480 C479 1.362 . S
H481 C487 0.930 . S
H482 C490 0.930 . S
H483 C491 0.930 . S
H484 C492 0.930 . S
H485 C495 0.930 . S
H486 C496 0.930 . S
C487 H481 0.930 . S
C487 C488 1.355 . S
C487 C489 1.415 . S
C488 C487 1.355 . S
C488 C490 1.419 . S
C489 C487 1.415 . S
C489 C494 1.425 . S
C489 C496 1.409 . S
C490 H482 0.930 . S
C490 C488 1.419 . S
C490 C491 1.362 . S
C491 H483 0.930 . S
C491 C490 1.362 . S
C491 C494 1.409 . S
C492 H484 0.930 . S
C492 C493 1.355 . S
C492 C494 1.415 . S
C493 C492 1.355 . S
C493 C495 1.419 . S
C494 C489 1.425 . S
C494 C491 1.409 . S
C494 C492 1.415 . S
C495 H485 0.930 . S
C495 C493 1.419 . S
C495 C496 1.362 . S
C496 H486 0.930 . S
C496 C489 1.409 . S
C496 C495 1.362 . S
H497 C503 0.930 . S
H498 C506 0.930 . S
H499 C507 0.930 . S
H500 C508 0.930 . S
H501 C511 0.930 . S
H502 C512 0.930 . S
C503 H497 0.930 . S
C503 C504 1.355 . S
C503 C505 1.415 . S
C504 C503 1.355 . S
C504 C506 1.419 . S
C505 C503 1.415 . S
C505 C510 1.425 . S
C505 C512 1.409 . S
C506 H498 0.930 . S
C506 C504 1.419 . S
C506 C507 1.362 . S
C507 H499 0.930 . S
C507 C506 1.362 . S
C507 C510 1.409 . S
C508 H500 0.930 . S
C508 C509 1.355 . S
C508 C510 1.415 . S
C509 C508 1.355 . S
C509 C511 1.419 . S
C510 C505 1.425 . S
C510 C507 1.409 . S
C510 C508 1.415 . S
C511 H501 0.930 . S
C511 C509 1.419 . S
C511 C512 1.362 . S
C512 H502 0.930 . S
C512 C505 1.409 . S
C512 C511 1.362 . S
H513 C519 0.930 . S
H514 C522 0.930 . S
H515 C523 0.930 . S
H516 C524 0.930 . S
H517 C527 0.930 . S
H518 C528 0.930 . S
C519 H513 0.930 . S
C519 C520 1.355 . S
C519 C521 1.415 . S
C520 C519 1.355 . S
C520 C522 1.419 . S
C521 C519 1.415 . S
C521 C526 1.425 . S
C521 C528 1.409 . S
C522 H514 0.930 . S
C522 C520 1.419 . S
C522 C523 1.362 . S
C523 H515 0.930 . S
C523 C522 1.362 . S
C523 C526 1.409 . S
C524 H516 0.930 . S
C524 C525 1.355 . S
C524 C526 1.415 . S
C525 C524 1.355 . S
C525 C527 1.419 . S
C526 C521 1.425 . S
C526 C523 1.409 . S
C526 C524 1.415 . S
C527 H517 0.930 . S
C527 C525 1.419 . S
C527 C528 1.362 . S
C528 H518 0.930 . S
C528 C521 1.409 . S
C528 C527 1.362 . S
H529 C535 0.930 . S
H530 C538 0.930 . S
H531 C539 0.930 . S
H532 C540 0.930 . S
H533 C543 0.930 . S
H534 C544 0.930 . S
C535 H529 0.930 . S
C535 C536 1.355 . S
C535 C537 1.415 . S
C536 C535 1.355 . S
C536 C538 1.419 . S
C537 C535 1.415 . S
C537 C542 1.425 . S
C537 C544 1.409 . S
C538 H530 0.930 . S
C538 C536 1.419 . S
C538 C539 1.362 . S
C539 H531 0.930 . S
C539 C538 1.362 . S
C539 C542 1.409 . S
C540 H532 0.930 . S
C540 C541 1.355 . S
C540 C542 1.415 . S
C541 C540 1.355 . S
C541 C543 1.419 . S
C542 C537 1.425 . S
C542 C539 1.409 . S
C542 C540 1.415 . S
C543 H533 0.930 . S
C543 C541 1.419 . S
C543 C544 1.362 . S
C544 H534 0.930 . S
C544 C537 1.409 . S
C544 C543 1.362 . S
H545 C551 0.930 . S
H546 C554 0.930 . S
H547 C555 0.930 . S
H548 C556 0.930 . S
H549 C559 0.930 . S
H550 C560 0.930 . S
C551 H545 0.930 . S
C551 C552 1.355 . S
C551 C553 1.415 . S
C552 C551 1.355 . S
C552 C554 1.419 . S
C553 C551 1.415 . S
C553 C558 1.425 . S
C553 C560 1.409 . S
C554 H546 0.930 . S
C554 C552 1.419 . S
C554 C555 1.362 . S
C555 H547 0.930 . S
C555 C554 1.362 . S
C555 C558 1.409 . S
C556 H548 0.930 . S
C556 C557 1.355 . S
C556 C558 1.415 . S
C557 C556 1.355 . S
C557 C559 1.419 . S
C558 C553 1.425 . S
C558 C555 1.409 . S
C558 C556 1.415 . S
C559 H549 0.930 . S
C559 C557 1.419 . S
C559 C560 1.362 . S
C560 H550 0.930 . S
C560 C553 1.409 . S
C560 C559 1.362 . S
C184 C1 1.722 . S
C189 C84 1.661 . S
C200 C27 1.471 . S
C205 C116 1.457 . S
C221 C175 1.764 . S
C216 C40 1.795 . S
C237 C104 1.317 . S
C232 C55 1.358 . S
C248 C68 1.632 . S
C253 C134 1.548 . S
C269 C156 1.245 . S
C264 C70 1.218 . S
C285 C125 1.583 . S
C280 C41 1.653 . S
C296 C54 1.312 . S
C301 C165 1.256 . S
C317 C114 1.574 . S
C312 C69 1.583 1_556 S
C328 C71 1.446 . S
C333 C144 1.425 . S
C344 C0 1.700 . S
C349 C147 1.648 . S
C365 C86 1.465 . S
C360 C26 1.501 1_556 S
C381 C94 1.552 . S
C376 C42 1.614 . S
C397 C135 1.424 . S
C392 C57 1.438 1_556 S
C413 C148 1.776 . S
C408 C83 1.817 . S
C429 C85 1.347 . S
C424 C12 1.395 . S
C445 C145 1.512 . S
C440 C14 1.564 1_556 S
C456 C29 1.249 . S
C461 C146 1.166 . S
C477 C115 1.533 . S
C472 C82 1.643 . S
C493 C176 1.259 . S
C488 C13 1.277 . S
C509 C103 1.497 . S
C504 C15 1.572 . S
C525 C117 1.415 . S
C520 C28 1.466 . S
C536 C43 1.722 . S
C541 C166 1.686 . S
C552 C56 1.532 . S
C557 C113 1.521 . S
