# Generated by pormake.
# Topology gar, (4,6)-cn, num edge types: 1
# Building blocks:
#     Node 0, Type 0, BuildingBlock: QUQFOY_clean_sbu_3, # of connection points: 4
#     Node 1, Type 0, BuildingBlock: QUQFOY_clean_sbu_3, # of connection points: 4
#     Node 2, Type 0, BuildingBlock: QUQFOY_clean_sbu_3, # of connection points: 4
#     Node 3, Type 0, BuildingBlock: QUQFOY_clean_sbu_3, # of connection points: 4
#     Node 4, Type 0, BuildingBlock: QUQFOY_clean_sbu_3, # of connection points: 4
#     Node 5, Type 0, BuildingBlock: QUQFOY_clean_sbu_3, # of connection points: 4
#     Node 6, Type 0, BuildingBlock: QUQFOY_clean_sbu_3, # of connection points: 4
#     Node 7, Type 0, BuildingBlock: QUQFOY_clean_sbu_3, # of connection points: 4
#     Node 8, Type 0, BuildingBlock: QUQFOY_clean_sbu_3, # of connection points: 4
#     Node 9, Type 0, BuildingBlock: QUQFOY_clean_sbu_3, # of connection points: 4
#     Node 10, Type 0, BuildingBlock: QUQFOY_clean_sbu_3, # of connection points: 4
#     Node 11, Type 0, BuildingBlock: QUQFOY_clean_sbu_3, # of connection points: 4
#     Node 12, Type 0, BuildingBlock: QUQFOY_clean_sbu_3, # of connection points: 4
#     Node 13, Type 0, BuildingBlock: QUQFOY_clean_sbu_3, # of connection points: 4
#     Node 14, Type 0, BuildingBlock: QUQFOY_clean_sbu_3, # of connection points: 4
#     Node 15, Type 0, BuildingBlock: QUQFOY_clean_sbu_3, # of connection points: 4
#     Node 16, Type 0, BuildingBlock: QUQFOY_clean_sbu_3, # of connection points: 4
#     Node 17, Type 0, BuildingBlock: QUQFOY_clean_sbu_3, # of connection points: 4
#     Node 18, Type 0, BuildingBlock: QUQFOY_clean_sbu_3, # of connection points: 4
#     Node 19, Type 0, BuildingBlock: QUQFOY_clean_sbu_3, # of connection points: 4
#     Node 20, Type 0, BuildingBlock: QUQFOY_clean_sbu_3, # of connection points: 4
#     Node 21, Type 0, BuildingBlock: QUQFOY_clean_sbu_3, # of connection points: 4
#     Node 22, Type 0, BuildingBlock: QUQFOY_clean_sbu_3, # of connection points: 4
#     Node 23, Type 0, BuildingBlock: QUQFOY_clean_sbu_3, # of connection points: 4
#     Node 24, Type 1, BuildingBlock: PAMTOO_clean_sbu_0, # of connection points: 6
#     Node 25, Type 1, BuildingBlock: PAMTOO_clean_sbu_0, # of connection points: 6
#     Node 26, Type 1, BuildingBlock: PAMTOO_clean_sbu_0, # of connection points: 6
#     Node 27, Type 1, BuildingBlock: PAMTOO_clean_sbu_0, # of connection points: 6
#     Node 28, Type 1, BuildingBlock: PAMTOO_clean_sbu_0, # of connection points: 6
#     Node 29, Type 1, BuildingBlock: PAMTOO_clean_sbu_0, # of connection points: 6
#     Node 30, Type 1, BuildingBlock: PAMTOO_clean_sbu_0, # of connection points: 6
#     Node 31, Type 1, BuildingBlock: PAMTOO_clean_sbu_0, # of connection points: 6
#     Node 32, Type 1, BuildingBlock: PAMTOO_clean_sbu_0, # of connection points: 6
#     Node 33, Type 1, BuildingBlock: PAMTOO_clean_sbu_0, # of connection points: 6
#     Node 34, Type 1, BuildingBlock: PAMTOO_clean_sbu_0, # of connection points: 6
#     Node 35, Type 1, BuildingBlock: PAMTOO_clean_sbu_0, # of connection points: 6
#     Node 36, Type 1, BuildingBlock: PAMTOO_clean_sbu_0, # of connection points: 6
#     Node 37, Type 1, BuildingBlock: PAMTOO_clean_sbu_0, # of connection points: 6
#     Node 38, Type 1, BuildingBlock: PAMTOO_clean_sbu_0, # of connection points: 6
#     Node 39, Type 1, BuildingBlock: PAMTOO_clean_sbu_0, # of connection points: 6
#     Edge 40, Type (0, 1), None
#     Edge 41, Type (0, 1), None
#     Edge 42, Type (0, 1), None
#     Edge 43, Type (0, 1), None
#     Edge 44, Type (0, 1), None
#     Edge 45, Type (0, 1), None
#     Edge 46, Type (0, 1), None
#     Edge 47, Type (0, 1), None
#     Edge 48, Type (0, 1), None
#     Edge 49, Type (0, 1), None
#     Edge 50, Type (0, 1), None
#     Edge 51, Type (0, 1), None
#     Edge 52, Type (0, 1), None
#     Edge 53, Type (0, 1), None
#     Edge 54, Type (0, 1), None
#     Edge 55, Type (0, 1), None
#     Edge 56, Type (0, 1), None
#     Edge 57, Type (0, 1), None
#     Edge 58, Type (0, 1), None
#     Edge 59, Type (0, 1), None
#     Edge 60, Type (0, 1), None
#     Edge 61, Type (0, 1), None
#     Edge 62, Type (0, 1), None
#     Edge 63, Type (0, 1), None
#     Edge 64, Type (0, 1), None
#     Edge 65, Type (0, 1), None
#     Edge 66, Type (0, 1), None
#     Edge 67, Type (0, 1), None
#     Edge 68, Type (0, 1), None
#     Edge 69, Type (0, 1), None
#     Edge 70, Type (0, 1), None
#     Edge 71, Type (0, 1), None
#     Edge 72, Type (0, 1), None
#     Edge 73, Type (0, 1), None
#     Edge 74, Type (0, 1), None
#     Edge 75, Type (0, 1), None
#     Edge 76, Type (0, 1), None
#     Edge 77, Type (0, 1), None
#     Edge 78, Type (0, 1), None
#     Edge 79, Type (0, 1), None
#     Edge 80, Type (0, 1), None
#     Edge 81, Type (0, 1), None
#     Edge 82, Type (0, 1), None
#     Edge 83, Type (0, 1), None
#     Edge 84, Type (0, 1), None
#     Edge 85, Type (0, 1), None
#     Edge 86, Type (0, 1), None
#     Edge 87, Type (0, 1), None
#     Edge 88, Type (0, 1), None
#     Edge 89, Type (0, 1), None
#     Edge 90, Type (0, 1), None
#     Edge 91, Type (0, 1), None
#     Edge 92, Type (0, 1), None
#     Edge 93, Type (0, 1), None
#     Edge 94, Type (0, 1), None
#     Edge 95, Type (0, 1), None
#     Edge 96, Type (0, 1), None
#     Edge 97, Type (0, 1), None
#     Edge 98, Type (0, 1), None
#     Edge 99, Type (0, 1), None
#     Edge 100, Type (0, 1), None
#     Edge 101, Type (0, 1), None
#     Edge 102, Type (0, 1), None
#     Edge 103, Type (0, 1), None
#     Edge 104, Type (0, 1), None
#     Edge 105, Type (0, 1), None
#     Edge 106, Type (0, 1), None
#     Edge 107, Type (0, 1), None
#     Edge 108, Type (0, 1), None
#     Edge 109, Type (0, 1), None
#     Edge 110, Type (0, 1), None
#     Edge 111, Type (0, 1), None
#     Edge 112, Type (0, 1), None
#     Edge 113, Type (0, 1), None
#     Edge 114, Type (0, 1), None
#     Edge 115, Type (0, 1), None
#     Edge 116, Type (0, 1), None
#     Edge 117, Type (0, 1), None
#     Edge 118, Type (0, 1), None
#     Edge 119, Type (0, 1), None
#     Edge 120, Type (0, 1), None
#     Edge 121, Type (0, 1), None
#     Edge 122, Type (0, 1), None
#     Edge 123, Type (0, 1), None
#     Edge 124, Type (0, 1), None
#     Edge 125, Type (0, 1), None
#     Edge 126, Type (0, 1), None
#     Edge 127, Type (0, 1), None
#     Edge 128, Type (0, 1), None
#     Edge 129, Type (0, 1), None
#     Edge 130, Type (0, 1), None
#     Edge 131, Type (0, 1), None
#     Edge 132, Type (0, 1), None
#     Edge 133, Type (0, 1), None
#     Edge 134, Type (0, 1), None
#     Edge 135, Type (0, 1), None
# Relax obj value: 0.314
# Max RMSD: 0.315
# Mean RMSD: 0.193
data_MOF--net-gar--node1-QUQFOY_clean_sbu_3--node2-PAMTOO_clean_sbu_0--edge1-none
_symmetry_space_group_name_H-M    P1
_symmetry_Int_Tables_number       1
_symmetry_cell_setting            triclinic
loop_
_symmetry_equiv_pos_as_xyz
'x, y, z'
_cell_length_a     29.747975
_cell_length_b     30.333668
_cell_length_c     28.168669
_cell_angle_alpha  100.02631
_cell_angle_beta   98.641852
_cell_angle_gamma 107.41635
loop_
_atom_site_label
_atom_site_type_symbol
_atom_site_fract_x
_atom_site_fract_y
_atom_site_fract_z
_atom_type_partial_charge
C0 C 1.0212 0.41391 0.32799 0.0
O1 O 0.04874 0.4488 0.31518 0.0
Cd2 Cd 0.14105 0.47158 0.35262 0.0
O3 O 1.04256 0.39104 0.35165 0.0
Cd4 Cd 0.13623 0.41467 0.38644 0.0
C5 C 0.14287 0.53001 0.45446 0.0
O6 O 0.2165 0.44239 0.34987 0.0
O7 O 0.18852 0.36855 0.34893 0.0
O8 O 0.10108 0.34064 0.40576 0.0
C9 C 0.2235 0.40177 0.34276 0.0
O10 O 0.15491 0.54486 0.41732 0.0
C11 C 0.11885 0.35525 0.45186 0.0
O12 O 0.13488 0.4859 0.45278 0.0
O13 O 0.14954 0.397 0.46719 0.0
C14 C 0.99124 0.82747 0.80077 0.0
O15 O 0.99719 0.78871 0.8069 0.0
Cd16 Cd 0.07826 0.77926 0.78486 0.0
O17 O 1.02437 0.85344 0.78318 0.0
Cd18 Cd 0.09758 0.82795 0.7486 0.0
C19 C 0.07291 0.71087 0.68569 0.0
O20 O 0.1716 0.82417 0.81242 0.0
O21 O 0.18476 0.85232 0.74902 0.0
O22 O 0.11736 0.90568 0.73124 0.0
C23 C 0.20277 0.84218 0.78739 0.0
O24 O 0.07186 0.70287 0.72831 0.0
C25 C 0.1104 0.88958 0.68489 0.0
O26 O 0.07617 0.75261 0.68096 0.0
O27 O 0.09338 0.84485 0.66849 0.0
C28 C 0.52123 0.91391 0.82793 0.0
O29 O 0.54877 0.94879 0.81509 0.0
Cd30 Cd 0.64107 0.97159 0.85258 0.0
O31 O 0.5426 0.89107 0.85163 0.0
Cd32 Cd 0.63627 0.9147 0.88643 0.0
C33 C 0.64289 0.03003 0.95443 0.0
O34 O 0.71652 0.94242 0.84982 0.0
O35 O 0.6886 0.8686 0.849 0.0
O36 O 0.6011 0.84067 0.90574 0.0
C37 C 0.72356 0.90181 0.84278 0.0
O38 O 0.65492 0.04487 0.91727 0.0
C39 C 0.61888 0.85528 0.95184 0.0
O40 O 0.63492 0.98593 0.95276 0.0
O41 O 0.64957 0.89703 0.96718 0.0
C42 C 0.4912 0.32743 0.30075 0.0
O43 O 0.49712 0.28866 0.30684 0.0
Cd44 Cd 0.57821 0.27924 0.28481 0.0
O45 O 0.52434 0.35342 0.2832 0.0
Cd46 Cd 0.59755 0.32796 0.2486 0.0
C47 C 0.57292 0.2109 0.18563 0.0
O48 O 0.67156 0.32412 0.3124 0.0
O49 O 0.68475 0.35242 0.2491 0.0
O50 O 0.61733 0.40569 0.23123 0.0
C51 C 0.70274 0.3422 0.28742 0.0
O52 O 0.57181 0.20286 0.22824 0.0
C53 C 0.61037 0.38958 0.18488 0.0
O54 O 0.5762 0.25266 0.18093 0.0
O55 O 0.59334 0.34485 0.16849 0.0
C56 C 0.08132 0.82814 0.1964 0.0
O57 O 0.10822 0.80641 0.21307 0.0
Cd58 Cd 0.1879 0.81717 0.21572 0.0
O59 O 0.09491 0.85925 0.17107 0.0
Cd60 Cd 0.16383 0.8892 0.12727 0.0
C61 C 0.15825 0.75833 0.09338 0.0
O62 O 0.20357 0.89631 0.21255 0.0
O63 O 0.25555 0.91183 0.1686 0.0
O64 O 0.18412 0.98088 0.11349 0.0
C65 C 0.24729 0.9063 0.21071 0.0
O66 O 0.17442 0.76342 0.13899 0.0
C67 C 0.14262 0.97989 0.09231 0.0
O68 O 0.14956 0.79382 0.07739 0.0
O69 O 0.11148 0.93857 0.08528 0.0
C70 C 0.44686 0.82311 0.38407 0.0
O71 O 0.4775 0.84323 0.36114 0.0
Cd72 Cd 0.56049 0.86984 0.37444 0.0
O73 O 0.46015 0.81081 0.42458 0.0
Cd74 Cd 0.5476 0.81645 0.47904 0.0
C75 C 0.58013 0.94946 0.48667 0.0
O76 O 0.57467 0.80728 0.40429 0.0
O77 O 0.63182 0.84366 0.46748 0.0
O78 O 0.53042 0.72505 0.48264 0.0
C79 C 0.61914 0.82846 0.42099 0.0
O80 O 0.58292 0.93999 0.44158 0.0
C81 C 0.55869 0.72922 0.52332 0.0
O82 O 0.56691 0.91498 0.50939 0.0
O83 O 0.57879 0.77267 0.54692 0.0
C84 C 0.5813 0.32812 0.6964 0.0
O85 O 0.6082 0.3064 0.71308 0.0
Cd86 Cd 0.68788 0.31715 0.71574 0.0
O87 O 0.5949 0.35923 0.67106 0.0
Cd88 Cd 0.66384 0.38917 0.62727 0.0
C89 C 0.65826 0.25831 0.59341 0.0
O90 O 0.70357 0.39628 0.71256 0.0
O91 O 0.75555 0.41178 0.66862 0.0
O92 O 0.68413 0.48084 0.61343 0.0
C93 C 0.74729 0.40625 0.71073 0.0
O94 O 0.67441 0.26339 0.63902 0.0
C95 C 0.64263 0.47986 0.59229 0.0
O96 O 0.64958 0.29379 0.5774 0.0
O97 O 0.61148 0.43854 0.5853 0.0
C98 C 0.9468 0.32307 0.88412 0.0
O99 O 0.97743 0.34321 0.86118 0.0
Cd100 Cd 0.06041 0.36985 0.87445 0.0
O101 O 0.96011 0.31079 0.92462 0.0
Cd102 Cd 0.04757 0.31647 0.97906 0.0
C103 C 0.08009 0.44948 0.98668 0.0
O104 O 0.07462 0.30731 0.90431 0.0
O105 O 0.13179 0.34365 0.96749 0.0
O106 O 1.03039 0.22507 0.98266 0.0
C107 C 0.1191 0.32847 0.921 0.0
O108 O 0.08285 0.44 0.94159 0.0
C109 C 0.05865 0.22924 0.02335 0.0
O110 O 0.06688 0.415 0.00941 0.0
O111 O 0.07875 0.27269 0.04695 0.0
C112 C 0.52424 0.09603 0.40751 0.0
O113 O 0.53264 0.07142 0.37063 0.0
Cd114 Cd 0.49063 0.98685 0.35068 0.0
O115 O 0.48116 0.09075 0.41232 0.0
Cd116 Cd 0.40311 0.04459 0.3602 0.0
C117 C 0.41443 0.96972 0.41061 0.0
O118 O 0.42378 0.99342 0.29756 0.0
O119 O 0.43045 0.06334 0.28623 0.0
O120 O 0.38091 0.11146 0.37693 0.0
C121 C 0.43536 1.02347 0.27176 0.0
O122 O 0.45973 0.9808 0.42387 0.0
C123 C 0.33883 0.09366 0.3494 0.0
O124 O 0.39583 1.00047 0.42551 0.0
O125 O 0.32322 0.04907 0.33064 0.0
C126 C 0.38497 0.20676 0.59918 0.0
O127 O 0.34598 0.18283 0.60878 0.0
Cd128 Cd 0.26996 0.18721 0.59653 0.0
O129 O 0.38711 0.24001 0.57601 0.0
Cd130 Cd 0.32779 0.27884 0.54274 0.0
C131 C 0.31698 0.30439 0.66477 0.0
O132 O 0.26509 0.20335 0.51844 0.0
O133 O 0.23886 0.26155 0.53462 0.0
O134 O 0.34535 0.27753 0.45832 0.0
C135 C 0.22971 0.21687 0.52365 0.0
O136 O 0.29304 0.26047 0.65724 0.0
C137 C 0.3552 0.3214 0.45897 0.0
O138 O 0.33562 0.3222 0.63114 0.0
O139 O 0.35389 0.34741 0.49913 0.0
C140 C 0.13707 0.11737 0.91858 0.0
O141 O 0.10971 0.13331 0.89273 0.0
Cd142 Cd 0.15632 0.15614 0.8302 0.0
O143 O 0.17448 0.11405 0.90279 0.0
Cd144 Cd 0.19612 0.13013 0.81584 0.0
C145 C 0.24515 0.24546 0.84051 0.0
O146 O 0.12337 0.12163 0.74473 0.0
O147 O 0.19569 0.15788 0.7386 0.0
O148 O 0.19966 0.05024 0.78252 0.0
C149 C 0.15147 0.13982 0.71791 0.0
O150 O 0.20032 0.23911 0.83185 0.0
C151 C 0.24369 0.06544 0.77975 0.0
O152 O 0.25853 0.21027 0.84594 0.0
O153 O 0.26625 0.10919 0.79849 0.0
C154 C 0.47222 0.09737 0.98994 0.0
O155 O 0.46304 0.12813 0.9684 0.0
Cd156 Cd 0.37739 0.1061 0.95239 0.0
O157 O 0.43874 0.06501 0.99895 0.0
Cd158 Cd 0.35817 1.02091 0.999 0.0
C159 C 0.34081 0.99149 0.89174 0.0
O160 O 0.37107 0.10259 0.03806 0.0
O161 O 0.30785 0.0474 0.04579 0.0
O162 O 0.33873 0.96283 0.04625 0.0
C163 C 0.33493 0.09056 0.0577 0.0
O164 O 0.37086 0.0325 0.89698 0.0
C165 C 0.37785 0.95374 0.04897 0.0
O166 O 0.31167 0.98438 0.91997 0.0
O167 O 0.40839 0.97516 0.02667 0.0
C168 C 0.47703 0.5345 0.06917 0.0
O169 O 0.44528 0.54921 0.04901 0.0
Cd170 Cd 0.36441 0.52825 0.0362 0.0
O171 O 0.46582 0.49965 0.09042 0.0
Cd172 Cd 0.37928 0.44785 0.09528 0.0
C173 C 0.35638 0.42111 0.96768 0.0
O174 O 0.35227 0.5144 0.11324 0.0
O175 O 0.29755 0.45172 0.06816 0.0
O176 O 0.39621 0.44763 0.18381 0.0
C177 C 0.30926 0.49538 0.08904 0.0
O178 O 0.34473 0.4584 0.97241 0.0
C179 C 0.36829 0.406 0.18149 0.0
O180 O 0.37388 0.40829 0.00543 0.0
O181 O 0.34859 0.3802 0.13815 0.0
C182 C 0.87037 0.09845 0.12173 0.0
O183 O 0.87216 0.09801 0.16691 0.0
Cd184 Cd 0.82703 0.13627 0.21064 0.0
O185 O 0.85633 0.1287 0.10315 0.0
Cd186 Cd 0.82902 0.19415 0.13312 0.0
C187 C 0.87775 0.25602 0.23246 0.0
O188 O 0.76288 0.12947 0.14495 0.0
O189 O 0.76322 0.20094 0.17065 0.0
O190 O 0.8149 0.2039 0.04738 0.0
C191 C 0.73967 0.15707 0.15567 0.0
O192 O 0.85299 0.21991 0.24531 0.0
C193 C 0.81035 0.24443 0.05985 0.0
O194 O 0.89411 0.25091 0.19376 0.0
O195 O 0.81521 0.26089 0.1054 0.0
C196 C 0.17353 0.65776 0.31326 0.0
O197 O 0.14046 0.65496 0.27751 0.0
Cd198 Cd 0.14712 0.63541 0.19451 0.0
O199 O 0.20996 0.64557 0.30646 0.0
Cd200 Cd 0.25076 0.61605 0.24557 0.0
C201 C 0.25625 0.72372 0.22779 0.0
O202 O 0.17905 0.57186 0.18989 0.0
O203 O 0.24172 0.58695 0.15786 0.0
O204 O 0.2871 0.57773 0.29991 0.0
C205 C 0.19617 0.5718 0.15155 0.0
O206 O 0.21255 0.71032 0.20443 0.0
C207 C 0.32879 0.59477 0.29093 0.0
O208 O 0.27455 0.69575 0.24518 0.0
O209 O 0.33334 0.61959 0.25893 0.0
C210 C 0.97706 0.03449 0.56916 0.0
O211 O 0.94531 0.04919 0.54898 0.0
Cd212 Cd 0.86445 0.02826 0.53617 0.0
O213 O 0.96585 0.99965 0.59044 0.0
Cd214 Cd 0.87931 0.94787 0.59528 0.0
C215 C 0.85637 0.92111 0.46767 0.0
O216 O 0.85231 1.01444 0.61322 0.0
O217 O 0.79758 0.95175 0.56817 0.0
O218 O 0.89622 0.94767 0.68382 0.0
C219 C 0.8093 0.99542 0.58904 0.0
O220 O 0.84473 0.95839 0.47239 0.0
C221 C 0.86832 0.90604 0.68151 0.0
O222 O 0.87389 0.9083 0.50542 0.0
O223 O 0.84863 0.88023 0.63817 0.0
C224 C 0.07534 0.10293 0.40595 0.0
O225 O 0.08544 0.07069 0.37934 0.0
Cd226 Cd 1.04036 0.06278 0.29748 0.0
O227 O 0.05056 0.12416 0.3843 0.0
Cd228 Cd 1.0095 0.10331 0.2919 0.0
C229 C 0.94841 0.98622 0.28776 0.0
O230 O 0.07491 0.1034 0.2377 0.0
O231 O 1.00593 0.10292 0.20097 0.0
O232 O 1.0118 0.18421 0.32498 0.0
C233 C 0.04897 0.10582 0.19842 0.0
O234 O 0.98639 0.98136 0.276 0.0
C235 C 0.96616 0.1729 0.31842 0.0
O236 O 0.94571 0.02775 0.29664 0.0
O237 O 0.94118 0.13118 0.29353 0.0
C238 C 0.37038 0.59848 0.62165 0.0
O239 O 0.37218 0.59804 0.66683 0.0
Cd240 Cd 0.32706 0.63628 0.7106 0.0
O241 O 0.35632 0.62873 0.60308 0.0
Cd242 Cd 0.32899 0.69416 0.63306 0.0
C243 C 0.37779 0.75602 0.7324 0.0
O244 O 0.26289 0.62948 0.64493 0.0
O245 O 0.26322 0.70095 0.67064 0.0
O246 O 0.31481 0.70387 0.54732 0.0
C247 C 0.23967 0.65708 0.65567 0.0
O248 O 0.35304 0.71992 0.74526 0.0
C249 C 0.31027 0.74442 0.55979 0.0
O250 O 0.39411 0.75092 0.69368 0.0
O251 O 0.31517 0.76089 0.60534 0.0
C252 C 0.57531 0.60292 0.9059 0.0
O253 O 0.58543 0.57068 0.8793 0.0
Cd254 Cd 0.54034 0.56277 0.79743 0.0
O255 O 0.55052 0.62413 0.88424 0.0
Cd256 Cd 0.50948 0.60328 0.79184 0.0
C257 C 0.44839 0.4862 0.78773 0.0
O258 O 0.5749 0.60336 0.73765 0.0
O259 O 0.50592 0.60287 0.7009 0.0
O260 O 0.5118 0.68419 0.82491 0.0
C261 C 0.54896 0.60577 0.69836 0.0
O262 O 0.48637 0.48134 0.77599 0.0
C263 C 0.46616 0.67289 0.81834 0.0
O264 O 0.44569 0.52773 0.79659 0.0
O265 O 0.44118 0.63117 0.79346 0.0
C266 C 0.6736 0.15764 0.81324 0.0
O267 O 0.64048 0.15476 0.77749 0.0
Cd268 Cd 0.64713 0.13526 0.6945 0.0
O269 O 0.71005 0.14551 0.80642 0.0
Cd270 Cd 0.75086 0.11602 0.74551 0.0
C271 C 0.75622 0.22366 0.72777 0.0
O272 O 0.67915 0.07177 0.68985 0.0
O273 O 0.7418 0.08692 0.65779 0.0
O274 O 0.78721 0.07775 0.79989 0.0
C275 C 0.69626 0.07175 0.6515 0.0
O276 O 0.7125 0.21022 0.70447 0.0
C277 C 0.8289 0.09477 0.79091 0.0
O278 O 0.77459 0.19572 0.74511 0.0
O279 O 0.83346 0.11956 0.75888 0.0
C280 C 0.88494 0.7068 0.09919 0.0
O281 O 0.84595 0.68286 0.10877 0.0
Cd282 Cd 0.76992 0.68723 0.09651 0.0
O283 O 0.88707 0.74005 0.076 0.0
Cd284 Cd 0.82774 0.77884 0.0427 0.0
C285 C 0.81697 0.80441 0.16475 0.0
O286 O 0.76507 0.70334 0.01841 0.0
O287 O 0.73881 0.76153 0.03454 0.0
O288 O 0.84545 0.77755 0.95833 0.0
C289 C 0.72967 0.71685 0.02359 0.0
O290 O 0.79302 0.76049 0.15723 0.0
C291 C 0.85519 0.82141 0.95894 0.0
O292 O 0.83561 0.82221 0.13111 0.0
O293 O 0.85375 0.84739 0.99905 0.0
C294 C 1.02422 0.59596 0.90748 0.0
O295 O 1.03262 0.57132 0.87062 0.0
Cd296 Cd 0.99057 0.48676 0.8507 0.0
O297 O 0.98113 0.59068 0.91228 0.0
Cd298 Cd 0.90307 0.54452 0.86018 0.0
C299 C 0.91436 0.46968 0.91063 0.0
O300 O 0.92372 0.49332 0.79756 0.0
O301 O 0.93037 0.56322 0.78619 0.0
O302 O 0.88092 0.61142 0.87691 0.0
C303 C 0.93529 0.52336 0.77175 0.0
O304 O 0.95967 0.48077 0.92389 0.0
C305 C 0.83885 0.59366 0.84938 0.0
O306 O 0.89575 0.50042 0.92551 0.0
O307 O 0.8232 0.54906 0.83062 0.0
C308 C 0.97216 0.59727 0.49004 0.0
O309 O 0.96294 0.62805 0.46857 0.0
Cd310 Cd 0.8773 0.60602 0.45262 0.0
O311 O 0.93871 0.56487 0.49904 0.0
Cd312 Cd 0.85815 0.52074 0.49913 0.0
C313 C 0.84074 0.49147 0.39184 0.0
O314 O 0.87105 0.60238 0.53829 0.0
O315 O 0.80789 0.54718 0.54607 0.0
O316 O 0.83867 0.46246 0.54615 0.0
C317 C 0.83495 0.59035 0.55796 0.0
O318 O 0.87078 0.53249 0.39709 0.0
C319 C 0.87786 0.45349 0.54896 0.0
O320 O 0.81163 0.48432 0.42008 0.0
O321 O 0.90846 0.47507 0.52682 0.0
C322 C 0.63708 0.61737 0.41854 0.0
O323 O 0.60972 0.63332 0.3927 0.0
Cd324 Cd 0.6563 0.65615 0.33016 0.0
O325 O 0.67448 0.61403 0.40273 0.0
Cd326 Cd 0.6961 0.63013 0.31578 0.0
C327 C 0.74514 0.74546 0.34046 0.0
O328 O 0.62335 0.62164 0.24469 0.0
O329 O 0.69567 0.65788 0.23855 0.0
O330 O 0.69964 0.55024 0.28247 0.0
C331 C 0.65145 0.63982 0.21786 0.0
O332 O 0.70031 0.73912 0.33181 0.0
C333 C 0.74368 0.56544 0.27968 0.0
O334 O 0.75852 0.71027 0.34589 0.0
O335 O 0.76624 0.60919 0.29842 0.0
Dy336 Dy 0.14912 0.1401 0.08898 0.0
Dy337 Dy 0.04829 0.07113 0.03317 0.0
C338 C 0.12625 0.10631 0.96703 0.0
O339 O 0.10792 0.19253 0.07528 0.0
O340 O 0.04411 0.14185 0.01584 0.0
O341 O 0.21524 0.19374 0.08764 0.0
O342 O 0.2021 0.17789 0.15678 0.0
O343 O 1.03608 0.09866 0.10882 0.0
O344 O 0.1131 0.12055 0.15151 0.0
O345 O 0.08544 1.01847 0.05641 0.0
O346 O 0.16211 0.06798 0.0911 0.0
O347 O 0.99658 0.9999 0.01945 0.0
O348 O 0.9778 0.05337 0.98806 0.0
C349 C 0.07016 0.1861 0.03965 0.0
O350 O 0.15789 0.12909 0.00884 0.0
O351 O 0.08246 0.07952 0.96749 0.0
C352 C 0.27736 0.1819 0.13757 0.0
C353 C 0.32467 0.12519 0.09351 0.0
C354 C 0.33669 0.17277 0.09016 0.0
C355 C 0.3131 0.20133 0.11252 0.0
C356 C 0.27307 0.13771 0.14891 0.0
C357 C 0.29627 0.10922 0.12646 0.0
C358 C 0.23454 0.19649 0.13307 0.0
C359 C 0.06688 0.10901 0.15112 0.0
C360 C 0.13001 1.02414 0.07894 0.0
C361 C 0.92246 1.01088 0.02691 0.0
C362 C 0.88268 0.06249 0.08958 0.0
C363 C 0.9122 0.03882 0.10918 0.0
C364 C 0.93235 1.01321 0.0779 0.0
C365 C 0.88494 1.02579 0.00708 0.0
C366 C 0.86606 0.05267 0.0383 0.0
C367 C 0.96157 1.01315 1.00041 0.0
H368 H 0.35964 0.18607 0.06576 0.0
H369 H 0.31734 0.23561 0.10389 0.0
H370 H 0.24636 0.12196 0.16872 0.0
H371 H 0.28803 0.07307 0.13094 0.0
H372 H 0.92311 0.04355 0.14867 0.0
H373 H 0.96017 1.00078 0.09433 0.0
H374 H 0.87506 1.02289 0.96792 0.0
H375 H 0.84093 0.06831 0.02223 0.0
Dy376 Dy 0.37332 0.85795 0.26718 0.0
Dy377 Dy 0.30456 0.85406 0.3464 0.0
C378 C 0.39071 0.93909 0.36174 0.0
O379 O 0.38666 0.80648 0.31173 0.0
O380 O 0.3732 0.84268 0.38269 0.0
O381 O 0.43921 0.89386 0.24675 0.0
O382 O 0.39244 0.82617 0.20131 0.0
O383 O 0.28816 0.78247 0.30041 0.0
O384 O 0.30327 0.80249 0.22895 0.0
O385 O 0.26377 0.8743 0.28327 0.0
O386 O 0.32466 0.89813 0.24203 0.0
O387 O 0.24038 0.82109 0.37177 0.0
O388 O 0.29752 0.88259 0.41949 0.0
C389 C 0.3963 0.81728 0.36036 0.0
O390 O 0.41123 0.91156 0.33895 0.0
O391 O 0.34433 0.92816 0.3492 0.0
C392 C 0.41832 0.88796 0.16222 0.0
C393 C 0.39078 0.9283 0.08537 0.0
C394 C 0.37672 0.93729 0.13001 0.0
C395 C 0.39158 0.91856 0.16806 0.0
C396 C 0.43244 0.87803 0.11728 0.0
C397 C 0.41961 0.89927 0.07906 0.0
C398 C 0.42685 0.86532 0.20309 0.0
C399 C 0.27999 0.77279 0.25225 0.0
C400 C 0.28064 0.8937 0.24791 0.0
C401 C 0.26916 0.8177 0.45294 0.0
C402 C 0.298 0.77078 0.5234 0.0
C403 C 0.30291 0.75827 0.47467 0.0
C404 C 0.2886 0.78153 0.43975 0.0
C405 C 0.26526 0.83112 0.50181 0.0
C406 C 0.2797 0.80788 0.5369 0.0
C407 C 0.26038 0.84547 0.41712 0.0
H408 H 0.35635 0.96116 0.13673 0.0
H409 H 0.3838 0.92999 0.20309 0.0
H410 H 0.45324 0.85445 0.11195 0.0
H411 H 0.4314 0.89261 0.04478 0.0
H412 H 0.31729 0.7302 0.46338 0.0
H413 H 0.29322 0.77153 0.40242 0.0
H414 H 0.2517 0.85986 0.51292 0.0
H415 H 0.27579 0.81844 0.57441 0.0
Dy416 Dy 0.57421 0.09609 0.56583 0.0
Dy417 Dy 0.66114 0.11496 0.51084 0.0
C418 C 0.56016 0.10938 0.45299 0.0
O419 O 0.56451 1.01827 0.53508 0.0
O420 O 0.62832 0.03318 0.49647 0.0
O421 O 0.49975 0.07236 0.57077 0.0
O422 O 0.55533 0.11648 0.63524 0.0
O423 O 0.68783 0.11255 0.58796 0.0
O424 O 0.62122 0.06288 0.60318 0.0
O425 O 0.65571 0.18995 0.52698 0.0
O426 O 0.61982 0.17484 0.59058 0.0
O427 O 0.73707 0.15237 0.51761 0.0
O428 O 0.69774 0.09421 0.45433 0.0
C429 C 0.59246 1.00248 0.50935 0.0
O430 O 0.54392 0.1074 0.49364 0.0
O431 O 0.60377 0.11053 0.44978 0.0
C432 C 0.48518 0.13508 0.61841 0.0
C433 C 0.4263 0.19106 0.61217 0.0
C434 C 0.46069 0.19394 0.58295 0.0
C435 C 0.4902 0.16602 0.58618 0.0
C436 C 0.45465 0.13598 0.65119 0.0
C437 C 0.42564 0.16423 0.64845 0.0
C438 C 0.5094 0.09988 0.61486 0.0
C439 C 0.66777 0.07915 0.60924 0.0
C440 C 0.64019 0.20588 0.56573 0.0
C441 C 0.76223 0.08571 0.50769 0.0
C442 C 0.78601 1.02594 0.56663 0.0
C443 C 0.80748 0.07564 0.58209 0.0
C444 C 0.79618 0.10507 0.55275 0.0
C445 C 0.74052 0.03593 0.49255 0.0
C446 C 0.75181 1.0066 0.522 0.0
C447 C 0.73894 0.11641 0.48572 0.0
H448 H 0.46204 0.21446 0.55501 0.0
H449 H 0.51473 0.16627 0.56136 0.0
H450 H 0.45131 0.11305 0.67692 0.0
H451 H 0.40009 0.16235 0.67234 0.0
H452 H 0.83463 0.09176 0.61603 0.0
H453 H 0.81265 0.14319 0.56633 0.0
H454 H 0.71328 1.01945 0.45873 0.0
H455 H 0.73506 0.96864 0.50905 0.0
Dy456 Dy 0.38538 0.34428 0.82659 0.0
Dy457 Dy 0.30365 0.39089 0.80235 0.0
C458 C 0.4105 0.44549 0.79583 0.0
O459 O 0.38687 0.38286 0.90277 0.0
O460 O 0.31619 0.39839 0.88394 0.0
O461 O 0.45834 0.3501 0.85738 0.0
O462 O 0.40893 0.28381 0.80897 0.0
O463 O 0.26596 0.31605 0.80875 0.0
O464 O 0.32632 0.29792 0.85334 0.0
O465 O 0.32123 0.37101 0.72874 0.0
O466 O 0.34003 0.30924 0.7506 0.0
O467 O 0.23316 0.38255 0.76086 0.0
O468 O 0.27334 0.44712 0.81695 0.0
C469 C 0.35189 0.39663 0.91627 0.0
O470 O 0.4182 0.40489 0.79289 0.0
O471 O 0.37142 0.45095 0.80828 0.0
C472 C 0.48422 0.31477 0.79029 0.0
C473 C 0.53833 0.32267 0.71696 0.0
C474 C 0.53229 0.36318 0.74346 0.0
C475 C 0.50561 0.35931 0.78007 0.0
C476 C 0.48712 0.27387 0.76098 0.0
C477 C 0.514 0.27779 0.72454 0.0
C478 C 0.45385 0.31047 0.82691 0.0
C479 C 0.28049 0.28983 0.83625 0.0
C480 C 0.32945 0.3311 0.71645 0.0
C481 C 0.19643 0.40224 0.82554 0.0
C482 C 0.14806 0.35142 0.88834 0.0
C483 C 0.13104 0.33702 0.83681 0.0
C484 C 0.1547 0.3624 0.80578 0.0
C485 C 0.21226 0.41756 0.87729 0.0
C486 C 0.18871 0.39199 0.90815 0.0
C487 C 0.23064 0.4174 0.79384 0.0
H488 H 0.55161 0.39817 0.73903 0.0
H489 H 0.50298 0.39149 0.80122 0.0
H490 H 0.46954 0.23909 0.76702 0.0
H491 H 0.51887 0.24612 0.70479 0.0
H492 H 0.0992 0.30615 0.82044 0.0
H493 H 0.14207 0.34914 0.76618 0.0
H494 H 0.24465 0.4477 0.89415 0.0
H495 H 0.20234 0.40384 0.94755 0.0
Dy496 Dy 0.13428 0.08254 0.55719 0.0
Dy497 Dy 0.08838 0.1659 0.57167 0.0
C498 C 1.02615 0.06192 0.56649 0.0
O499 O 0.10041 0.07914 0.47949 0.0
O500 O 0.08401 0.14946 0.48897 0.0
O501 O 0.12557 1.00932 0.52772 0.0
O502 O 0.19353 0.05682 0.57519 0.0
O503 O 0.1622 0.20259 0.56246 0.0
O504 O 0.18182 0.13871 0.52714 0.0
O505 O 0.09816 0.14555 0.64552 0.0
O506 O 0.16406 0.12568 0.63496 0.0
O507 O 0.09648 0.23703 0.60967 0.0
O508 O 1.02857 0.19218 0.56068 0.0
C509 C 0.08766 0.11154 0.46075 0.0
O510 O 0.06517 0.05292 0.58303 0.0
O511 O 1.02921 0.09785 0.54607 0.0
C512 C 0.15894 0.98206 0.59118 0.0
C513 C 0.12565 0.92115 0.65208 0.0
C514 C 0.13644 0.97019 0.66845 0.0
C515 C 0.15299 1.0004 0.63829 0.0
C516 C 0.14884 0.93315 0.57488 0.0
C517 C 0.13237 0.9028 0.60524 0.0
C518 C 0.16581 1.01275 0.55638 0.0
C519 C 0.18795 0.18444 0.53637 0.0
C520 C 0.13647 0.13614 0.66408 0.0
C521 C 0.06375 0.26924 0.54941 0.0
C522 C 0.10094 0.326 0.48596 0.0
C523 C 0.11234 0.34486 0.5372 0.0
C524 C 0.0939 0.31659 0.56876 0.0
C525 C 0.05054 0.25146 0.49794 0.0
C526 C 0.06929 0.27936 0.46672 0.0
C527 C 0.05664 0.23565 0.58172 0.0
H528 H 0.13151 0.98516 0.70431 0.0
H529 H 0.15933 0.03796 0.65116 0.0
H530 H 0.15209 0.91835 0.53818 0.0
H531 H 0.12477 0.86503 0.59199 0.0
H532 H 0.13605 0.38107 0.55293 0.0
H533 H 0.10524 0.33083 0.60831 0.0
H534 H 1.028 0.21495 0.48157 0.0
H535 H 0.05992 0.26378 0.42747 0.0
Dy536 Dy 0.36208 0.90048 0.76102 0.0
Dy537 Dy 0.36048 0.84962 0.85276 0.0
C538 C 0.34969 0.95112 0.8646 0.0
O539 O 0.44307 0.91546 0.78307 0.0
O540 O 0.44112 0.87875 0.84793 0.0
O541 O 0.38524 0.96193 0.73036 0.0
O542 O 0.32409 0.90072 0.68899 0.0
O543 O 0.34114 0.79923 0.78148 0.0
O544 O 0.38602 0.8386 0.73543 0.0
O545 O 0.2812 0.8452 0.83938 0.0
O546 O 0.28215 0.86587 0.76487 0.0
O547 O 0.33259 0.78486 0.87661 0.0
O548 O 0.39659 0.84094 0.92165 0.0
C549 C 0.46585 0.90187 0.8188 0.0
O550 O 0.36918 0.95604 0.82656 0.0
O551 O 0.34312 0.91329 0.8827 0.0
C552 C 0.31353 0.9765 0.7054 0.0
C553 C 0.26704 0.03473 0.75327 0.0
C554 C 0.31135 0.05501 0.74043 0.0
C555 C 0.33427 1.02624 0.71671 0.0
C556 C 0.2676 0.95647 0.71527 0.0
C557 C 0.24484 0.98523 0.73919 0.0
C558 C 0.34473 0.94689 0.69755 0.0
C559 C 0.37157 0.8008 0.75284 0.0
C560 C 0.25784 0.85145 0.79867 0.0
C561 C 0.40065 0.76319 0.89685 0.0
C562 C 0.44339 0.70437 0.84407 0.0
C563 C 0.46901 0.75285 0.86365 0.0
C564 C 0.44799 0.78193 0.88986 0.0
C565 C 0.37602 0.71418 0.87924 0.0
C566 C 0.39702 0.68517 0.85291 0.0
C567 C 0.37275 0.79516 0.90891 0.0
H568 H 0.32904 0.09316 0.74985 0.0
H569 H 0.3698 0.04279 0.71022 0.0
H570 H 0.25042 0.91834 0.70739 0.0
H571 H 0.2107 0.96853 0.74833 0.0
H572 H 0.50485 0.7686 0.8576 0.0
H573 H 0.46801 0.81958 0.90226 0.0
H574 H 0.33929 0.69879 0.88326 0.0
H575 H 0.37669 0.64768 0.83917 0.0
Dy576 Dy 0.62712 0.16515 0.04964 0.0
Dy577 Dy 0.58705 0.07383 0.09301 0.0
C578 C 0.63226 0.06126 0.99621 0.0
O579 O 0.55751 0.12491 0.99838 0.0
O580 O 0.52477 0.08953 0.05604 0.0
O581 O 0.61816 0.21829 0.01056 0.0
O582 O 0.68982 0.22091 0.04446 0.0
O583 O 0.58325 0.1353 0.15035 0.0
O584 O 0.58615 0.19044 0.10332 0.0
O585 O 0.66628 0.09814 0.11146 0.0
O586 O 0.67145 0.17492 0.12377 0.0
O587 O 0.5938 0.03795 0.15169 0.0
O588 O 0.53597 1.00433 0.08611 0.0
C589 C 0.52036 0.10324 0.01461 0.0
O590 O 0.6496 0.10813 0.00427 0.0
O591 O 0.60303 0.04061 0.02256 0.0
C592 C 0.67382 0.22112 0.96056 0.0
C593 C 0.6725 0.17902 0.86346 0.0
C594 C 0.69732 0.16745 0.90296 0.0
C595 C 0.69752 0.18784 0.95089 0.0
C596 C 0.65038 0.23415 0.92106 0.0
C597 C 0.64955 0.21301 0.87259 0.0
C598 C 0.66398 0.2322 0.00979 0.0
C599 C 0.57859 0.17607 0.14388 0.0
C600 C 0.68925 0.14241 0.13345 0.0
C601 C 0.51736 1.00384 0.16356 0.0
C602 C 0.46368 1.01706 0.23468 0.0
C603 C 0.45983 0.03739 0.194 0.0
C604 C 0.48648 0.03072 0.1585 0.0
C605 C 0.52156 0.98394 0.20429 0.0
C606 C 0.4951 0.99081 0.23982 0.0
C607 C 0.55195 1.00517 0.13219 0.0
H608 H 0.71568 0.14171 0.89685 0.0
H609 H 0.71536 0.17628 0.98031 0.0
H610 H 0.63094 0.25886 0.92765 0.0
H611 H 0.63094 0.22309 0.8424 0.0
H612 H 0.43614 0.05813 0.18958 0.0
H613 H 0.48404 0.04775 0.12791 0.0
H614 H 0.54655 0.96464 0.20951 0.0
H615 H 0.50005 0.97609 0.27151 0.0
Dy616 Dy 0.32479 0.31321 0.29256 0.0
Dy617 Dy 0.39057 0.41769 0.34874 0.0
C618 C 0.36144 0.33896 0.41284 0.0
O619 O 0.26762 0.34769 0.31114 0.0
O620 O 0.31403 0.42516 0.34408 0.0
O621 O 0.26076 0.25416 0.28953 0.0
O622 O 0.30621 0.24726 0.2382 0.0
O623 O 0.38086 0.42179 0.26951 0.0
O624 O 0.33343 0.34655 0.2271 0.0
O625 O 0.44907 0.38299 0.33589 0.0
O626 O 0.40136 0.3086 0.29182 0.0
O627 O 0.45594 0.47702 0.3557 0.0
O628 O 0.40543 0.48303 0.40135 0.0
C629 C 0.27055 0.39185 0.33108 0.0
O630 O 0.34591 0.30723 0.37079 0.0
O631 O 0.37916 0.38443 0.41395 0.0
C632 C 0.28608 0.1887 0.28232 0.0
C633 C 0.31572 0.12593 0.33139 0.0
C634 C 0.3443 0.1738 0.34115 0.0
C635 C 0.33042 0.20397 0.31571 0.0
C636 C 0.25527 0.14165 0.27429 0.0
C637 C 0.27064 0.10983 0.298 0.0
C638 C 0.27376 0.22473 0.25986 0.0
C639 C 0.36022 0.39005 0.22788 0.0
C640 C 0.44524 0.34029 0.31031 0.0
C641 C 0.43163 0.54483 0.36294 0.0
C642 C 0.36991 0.58485 0.31581 0.0
C643 C 0.39471 0.56129 0.28818 0.0
C644 C 0.42541 0.5411 0.31165 0.0
C645 C 0.41313 0.57545 0.39099 0.0
C646 C 0.38124 0.59432 0.36739 0.0
C647 C 0.44058 0.50601 0.3832 0.0
H648 H 0.37944 0.18774 0.36602 0.0
H649 H 0.35538 0.23937 0.32158 0.0
H650 H 0.22042 0.12941 0.24912 0.0
H651 H 0.24813 0.07284 0.28944 0.0
H652 H 0.38675 0.55447 0.24822 0.0
H653 H 0.43974 0.51832 0.28893 0.0
H654 H 0.4184 0.58006 0.43057 0.0
H655 H 0.36316 0.6137 0.38918 0.0
Dy656 Dy 0.63424 0.58253 0.05715 0.0
Dy657 Dy 0.58835 0.6659 0.07162 0.0
C658 C 0.52611 0.56192 0.06648 0.0
O659 O 0.60037 0.57913 0.97945 0.0
O660 O 0.58397 0.64945 0.98892 0.0
O661 O 0.62552 0.50931 0.02768 0.0
O662 O 0.69349 0.5568 0.07515 0.0
O663 O 0.66217 0.70257 0.06239 0.0
O664 O 0.68179 0.63869 0.02709 0.0
O665 O 0.59814 0.64555 0.14547 0.0
O666 O 0.66404 0.62567 0.13491 0.0
O667 O 0.59646 0.73702 0.10964 0.0
O668 O 0.52855 0.69219 0.06063 0.0
C669 C 0.58762 0.61152 0.96071 0.0
O670 O 0.56513 0.55292 0.08301 0.0
O671 O 0.52916 0.59785 0.04606 0.0
C672 C 0.65888 0.48204 0.09114 0.0
C673 C 0.6256 0.42115 0.15206 0.0
C674 C 0.6364 0.47019 0.16843 0.0
C675 C 0.65294 0.50039 0.13826 0.0
C676 C 0.64878 0.43313 0.07485 0.0
C677 C 0.63231 0.40279 0.10522 0.0
C678 C 0.66576 0.51273 0.05635 0.0
C679 C 0.68791 0.68442 0.03632 0.0
C680 C 0.63644 0.63614 0.16403 0.0
C681 C 0.56376 0.76927 0.04939 0.0
C682 C 0.60096 0.82602 0.98594 0.0
C683 C 0.61239 0.84487 0.03719 0.0
C684 C 0.59395 0.8166 0.06874 0.0
C685 C 0.55052 0.7515 0.99792 0.0
C686 C 0.56927 0.77941 0.9667 0.0
C687 C 0.55664 0.73566 0.08168 0.0
H688 H 0.63148 0.48516 0.20429 0.0
H689 H 0.65928 0.53796 0.15112 0.0
H690 H 0.65203 0.41833 0.03815 0.0
H691 H 0.62471 0.36502 0.09197 0.0
H692 H 0.63613 0.88107 0.05292 0.0
H693 H 0.60531 0.83083 0.1083 0.0
H694 H 0.52795 0.71501 0.98154 0.0
H695 H 0.55987 0.76383 0.92744 0.0
Dy696 Dy 0.86205 0.40049 0.26107 0.0
Dy697 Dy 0.86044 0.34961 0.3528 0.0
C698 C 0.84964 0.45111 0.36467 0.0
O699 O 0.94305 0.41551 0.28317 0.0
O700 O 0.94108 0.3787 0.34795 0.0
O701 O 0.88523 0.46192 0.23038 0.0
O702 O 0.82408 0.40071 0.18902 0.0
O703 O 0.84109 0.29923 0.28152 0.0
O704 O 0.886 0.33861 0.2355 0.0
O705 O 0.78116 0.34518 0.33941 0.0
O706 O 0.78212 0.36589 0.26491 0.0
O707 O 0.83255 0.28485 0.37664 0.0
O708 O 0.89654 0.34093 0.42169 0.0
C709 C 0.96582 0.40187 0.31886 0.0
O710 O 0.86906 0.45604 0.32659 0.0
O711 O 0.84312 0.41329 0.38278 0.0
C712 C 0.81353 0.47649 0.20538 0.0
C713 C 0.76702 0.53473 0.25321 0.0
C714 C 0.74483 0.48523 0.23915 0.0
C715 C 0.7676 0.45646 0.21524 0.0
C716 C 0.83427 0.52623 0.21667 0.0
C717 C 0.81134 0.555 0.24037 0.0
C718 C 0.84473 0.44688 0.19757 0.0
C719 C 0.87153 0.3008 0.25289 0.0
C720 C 0.75781 0.35146 0.2987 0.0
C721 C 0.90061 0.26317 0.3969 0.0
C722 C 0.94338 0.20437 0.34414 0.0
C723 C 0.96899 0.25285 0.36375 0.0
C724 C 0.94796 0.28192 0.38994 0.0
C725 C 0.87598 0.21417 0.37927 0.0
C726 C 0.89699 0.18516 0.35295 0.0
C727 C 0.8727 0.29515 0.40895 0.0
H728 H 0.71069 0.46853 0.24828 0.0
H729 H 0.75042 0.41833 0.20738 0.0
H730 H 0.86979 0.54278 0.21018 0.0
H731 H 0.82902 0.59316 0.24978 0.0
H732 H 1.00485 0.2686 0.35772 0.0
H733 H 0.96798 0.31957 0.40236 0.0
H734 H 0.83925 0.19878 0.38326 0.0
H735 H 0.87667 0.14767 0.33918 0.0
Dy736 Dy 0.12707 0.66512 0.54968 0.0
Dy737 Dy 0.08706 0.5738 0.59308 0.0
C738 C 0.13224 0.56124 0.49625 0.0
O739 O 0.05744 0.62484 0.49844 0.0
O740 O 1.02475 0.58946 0.55613 0.0
O741 O 0.11805 0.71824 0.51059 0.0
O742 O 0.18972 0.72092 0.54449 0.0
O743 O 0.08326 0.63527 0.65042 0.0
O744 O 0.08609 0.69038 0.60337 0.0
O745 O 0.16628 0.59813 0.6115 0.0
O746 O 0.17143 0.6749 0.62379 0.0
O747 O 0.0938 0.53794 0.65178 0.0
O748 O 1.03602 0.50428 0.58617 0.0
C749 C 1.02031 0.60316 0.51469 0.0
O750 O 0.14955 0.60811 0.5043 0.0
O751 O 0.10304 0.54059 0.52263 0.0
C752 C 0.17371 0.72115 0.4606 0.0
C753 C 0.17242 0.67911 0.36349 0.0
C754 C 0.19721 0.66751 0.40297 0.0
C755 C 0.1974 0.68786 0.45091 0.0
C756 C 0.1503 0.73422 0.42112 0.0
C757 C 0.14947 0.71311 0.37265 0.0
C758 C 0.16387 0.7322 0.50983 0.0
C759 C 0.07857 0.67602 0.64394 0.0
C760 C 0.18925 0.6424 0.63348 0.0
C761 C 1.01736 0.50376 0.6636 0.0
C762 C 0.96362 0.51694 0.73467 0.0
C763 C 0.95978 0.53726 0.69398 0.0
C764 C 0.98645 0.5306 0.6585 0.0
C765 C 1.02155 0.48386 0.70433 0.0
C766 C 0.99506 0.49071 0.73984 0.0
C767 C 0.05198 0.50513 0.63226 0.0
H768 H 0.21557 0.64176 0.39686 0.0
H769 H 0.21523 0.67629 0.48032 0.0
H770 H 0.13086 0.75892 0.42773 0.0
H771 H 0.13088 0.72322 0.34247 0.0
H772 H 0.93607 0.55798 0.68954 0.0
H773 H 0.98401 0.54763 0.62791 0.0
H774 H 0.04656 0.46459 0.70957 0.0
H775 H 1.00001 0.47601 0.77153 0.0
Dy776 Dy 0.88539 0.84429 0.32658 0.0
Dy777 Dy 0.80366 0.8909 0.30235 0.0
C778 C 0.91051 0.9455 0.29585 0.0
O779 O 0.88688 0.88288 0.40275 0.0
O780 O 0.81617 0.89836 0.38393 0.0
O781 O 0.95834 0.85011 0.35738 0.0
O782 O 0.90893 0.78382 0.30897 0.0
O783 O 0.76597 0.81606 0.30872 0.0
O784 O 0.82631 0.79792 0.35331 0.0
O785 O 0.82124 0.87103 0.22873 0.0
O786 O 0.84005 0.80926 0.25057 0.0
O787 O 0.73318 0.88259 0.26085 0.0
O788 O 0.77336 0.94713 0.31697 0.0
C789 C 0.85189 0.89662 0.41626 0.0
O790 O 0.9182 0.90489 0.29287 0.0
O791 O 0.87144 0.95096 0.30832 0.0
C792 C 0.98424 0.81478 0.2903 0.0
C793 C 1.03835 0.82267 0.21698 0.0
C794 C 1.0323 0.86318 0.24346 0.0
C795 C 1.00562 0.85932 0.28007 0.0
C796 C 0.98715 0.77388 0.26101 0.0
C797 C 1.01403 0.7778 0.22457 0.0
C798 C 0.95386 0.81048 0.32691 0.0
C799 C 0.78049 0.78984 0.33621 0.0
C800 C 0.82946 0.83112 0.21643 0.0
C801 C 0.69645 0.90225 0.32552 0.0
C802 C 0.6481 0.85142 0.38833 0.0
C803 C 0.6311 0.83698 0.3368 0.0
C804 C 0.65475 0.86236 0.30577 0.0
C805 C 0.71225 0.91761 0.37727 0.0
C806 C 0.68871 0.89203 0.40814 0.0
C807 C 0.73066 0.91742 0.29383 0.0
H808 H 0.05161 0.89817 0.23903 0.0
H809 H 1.00298 0.89149 0.30121 0.0
H810 H 0.96957 0.7391 0.26705 0.0
H811 H 1.01891 0.74613 0.20482 0.0
H812 H 0.5993 0.80608 0.32043 0.0
H813 H 0.64214 0.84908 0.26617 0.0
H814 H 0.7446 0.94778 0.39413 0.0
H815 H 0.70232 0.90392 0.44754 0.0
Dy816 Dy 0.8733 0.35786 0.76723 0.0
Dy817 Dy 0.8045 0.354 0.84642 0.0
C818 C 0.89066 0.43902 0.86176 0.0
O819 O 0.88657 0.30638 0.81178 0.0
O820 O 0.87314 0.34263 0.88273 0.0
O821 O 0.93921 0.39376 0.74683 0.0
O822 O 0.89245 0.32605 0.70141 0.0
O823 O 0.78805 0.2824 0.8004 0.0
O824 O 0.80324 0.30244 0.72896 0.0
O825 O 0.76375 0.37427 0.7833 0.0
O826 O 0.82464 0.39803 0.74203 0.0
O827 O 0.74034 0.32102 0.87181 0.0
O828 O 0.79746 0.38256 0.9195 0.0
C829 C 0.89623 0.31721 0.86042 0.0
O830 O 0.91118 0.41149 0.83899 0.0
O831 O 0.84427 0.42809 0.84921 0.0
C832 C 0.91835 0.38781 0.66228 0.0
C833 C 0.89079 0.42807 0.58538 0.0
C834 C 0.87672 0.43708 0.63001 0.0
C835 C 0.89159 0.4184 0.66808 0.0
C836 C 0.93248 0.37785 0.61735 0.0
C837 C 0.91964 0.39906 0.57911 0.0
C838 C 0.92687 0.3652 0.70318 0.0
C839 C 0.77992 0.27273 0.75224 0.0
C840 C 0.78062 0.39364 0.74793 0.0
C841 C 0.76918 0.31768 0.95299 0.0
C842 C 0.79807 0.2708 0.02347 0.0
C843 C 0.80299 0.2583 0.97473 0.0
C844 C 0.78865 0.28154 0.93981 0.0
C845 C 0.76529 0.33111 0.00187 0.0
C846 C 0.77976 0.30789 0.03697 0.0
C847 C 0.76034 0.34543 0.91715 0.0
H848 H 0.85635 0.46095 0.63669 0.0
H849 H 0.88381 0.42984 0.7031 0.0
H850 H 0.95329 0.35428 0.61206 0.0
H851 H 0.93145 0.39239 0.54483 0.0
H852 H 0.81738 0.23024 0.96345 0.0
H853 H 0.79326 0.27154 0.90248 0.0
H854 H 0.75171 0.35984 0.01297 0.0
H855 H 0.77585 0.31845 0.07447 0.0
Dy856 Dy 0.82486 0.81326 0.79259 0.0
Dy857 Dy 0.8906 0.91773 0.84875 0.0
C858 C 0.86149 0.83897 0.91282 0.0
O859 O 0.76771 0.84773 0.81128 0.0
O860 O 0.81407 0.92524 0.84398 0.0
O861 O 0.76086 0.75422 0.78968 0.0
O862 O 0.80616 0.74732 0.73819 0.0
O863 O 0.88089 0.92184 0.76953 0.0
O864 O 0.83348 0.84659 0.72713 0.0
O865 O 0.9491 0.88299 0.83597 0.0
O866 O 0.90141 0.80866 0.79174 0.0
O867 O 0.95599 0.97704 0.85574 0.0
O868 O 0.90549 0.98304 0.90141 0.0
C869 C 0.77061 0.8919 0.83111 0.0
O870 O 0.84624 0.80725 0.87078 0.0
O871 O 0.87895 0.88446 0.91392 0.0
C872 C 0.78614 0.68873 0.78229 0.0
C873 C 0.81579 0.62595 0.83134 0.0
C874 C 0.84445 0.67378 0.84097 0.0
C875 C 0.83055 0.70396 0.81555 0.0
C876 C 0.75527 0.64171 0.77437 0.0
C877 C 0.77065 0.60988 0.79806 0.0
C878 C 0.77378 0.72479 0.75992 0.0
C879 C 0.86026 0.8901 0.7279 0.0
C880 C 0.94528 0.84032 0.81031 0.0
C881 C 0.93172 0.04488 0.86304 0.0
C882 C 0.87003 0.08489 0.81585 0.0
C883 C 0.89494 0.06143 0.78827 0.0
C884 C 0.92562 0.04123 0.81177 0.0
C885 C 0.91312 0.07542 0.89106 0.0
C886 C 0.88124 0.09428 0.86743 0.0
C887 C 0.94065 1.00603 0.88327 0.0
H888 H 0.87964 0.68769 0.86574 0.0
H889 H 0.85554 0.73934 0.82136 0.0
H890 H 0.72036 0.62951 0.7493 0.0
H891 H 0.74807 0.57292 0.78959 0.0
H892 H 0.88707 0.05467 0.74832 0.0
H893 H 0.94003 1.01851 0.78907 0.0
H894 H 0.91829 0.07995 0.93063 0.0
H895 H 0.86308 0.11359 0.88918 0.0
Dy896 Dy 0.64915 0.64006 0.58895 0.0
Dy897 Dy 0.54831 0.57109 0.53312 0.0
C898 C 0.62627 0.6063 0.46699 0.0
O899 O 0.60796 0.69251 0.57525 0.0
O900 O 0.54415 0.64183 0.51581 0.0
O901 O 0.71534 0.6936 0.58762 0.0
O902 O 0.70207 0.6779 0.65677 0.0
O903 O 0.5361 0.59863 0.60876 0.0
O904 O 0.61311 0.62049 0.65146 0.0
O905 O 0.58545 0.51844 0.5564 0.0
O906 O 0.66213 0.56794 0.59104 0.0
O907 O 0.49658 0.49989 0.51942 0.0
O908 O 0.47785 0.55335 0.48796 0.0
C909 C 0.57019 0.68608 0.53962 0.0
O910 O 0.65789 0.62915 0.5088 0.0
O911 O 0.58251 0.57944 0.46744 0.0
C912 C 0.77736 0.68177 0.63769 0.0
C913 C 0.82466 0.62499 0.59375 0.0
C914 C 0.83678 0.67259 0.59044 0.0
C915 C 0.81319 0.70118 0.61273 0.0
C916 C 0.77296 0.63755 0.64901 0.0
C917 C 0.79616 0.60903 0.62662 0.0
C918 C 0.73457 0.69641 0.63308 0.0
C919 C 0.56688 0.60896 0.65106 0.0
C920 C 0.63002 0.5241 0.57891 0.0
C921 C 0.42247 0.51092 0.52682 0.0
C922 C 0.3827 0.56254 0.58949 0.0
C923 C 0.41218 0.53883 0.60909 0.0
C924 C 0.43232 0.51321 0.5778 0.0
C925 C 0.38499 0.52588 0.50699 0.0
C926 C 0.36611 0.55276 0.53821 0.0
C927 C 0.46159 0.51314 0.50034 0.0
H928 H 0.85981 0.68587 0.5661 0.0
H929 H 0.81752 0.73547 0.60412 0.0
H930 H 0.74617 0.62182 0.66875 0.0
H931 H 0.78784 0.57287 0.63108 0.0
H932 H 0.42306 0.54352 0.64857 0.0
H933 H 0.46011 0.50074 0.59424 0.0
H934 H 0.37514 0.52302 0.46783 0.0
H935 H 0.34101 0.56843 0.52213 0.0
Dy936 Dy 0.07416 0.59612 0.06581 0.0
Dy937 Dy 0.16112 0.61497 0.01085 0.0
C938 C 0.06014 0.60936 0.95296 0.0
O939 O 0.06444 0.5183 0.03504 0.0
O940 O 0.12832 0.53319 0.99652 0.0
O941 O 0.9997 0.57241 0.07074 0.0
O942 O 0.05528 0.6165 0.13522 0.0
O943 O 0.18777 0.61258 0.08799 0.0
O944 O 0.12115 0.56291 0.10318 0.0
O945 O 0.15569 0.68996 0.02697 0.0
O946 O 0.11978 0.67487 0.09056 0.0
O947 O 0.23705 0.65237 0.01764 0.0
O948 O 0.19773 0.59421 0.95437 0.0
C949 C 0.09242 0.5025 0.00937 0.0
O950 O 0.0439 0.60746 0.99363 0.0
O951 O 0.10374 0.61047 0.94977 0.0
C952 C 0.98515 0.63512 0.1184 0.0
C953 C 0.92628 0.69111 0.11218 0.0
C954 C 0.96066 0.69399 0.08295 0.0
C955 C 0.99016 0.66607 0.08618 0.0
C956 C 0.95462 0.63603 0.15119 0.0
C957 C 0.92562 0.66429 0.14846 0.0
C958 C 1.00935 0.59991 0.11483 0.0
C959 C 0.16771 0.57918 0.10927 0.0
C960 C 0.14016 0.7059 0.06571 0.0
C961 C 0.2622 0.5857 0.00774 0.0
C962 C 0.28596 0.5259 0.06665 0.0
C963 C 0.30741 0.5756 0.08215 0.0
C964 C 0.29612 0.60504 0.05282 0.0
C965 C 0.24051 0.53592 0.99256 0.0
C966 C 0.25179 0.50657 0.022 0.0
C967 C 0.23893 0.61641 0.98577 0.0
H968 H 0.96201 0.71452 0.05502 0.0
H969 H 1.01469 0.66632 0.06135 0.0
H970 H 0.95129 0.6131 0.17692 0.0
H971 H 0.90007 0.6624 0.17235 0.0
H972 H 0.33453 0.59171 0.11611 0.0
H973 H 0.31257 0.64316 0.06643 0.0
H974 H 0.21331 0.51945 0.95872 0.0
H975 H 0.23507 0.46862 0.00901 0.0
loop_
_geom_bond_atom_site_label_1
_geom_bond_atom_site_label_2
_geom_bond_distance
_geom_bond_site_symmetry_2
_ccdc_geom_bond_type
C0 O1 1.306 1_655 S
C0 O3 1.160 . S
O1 C0 1.306 1_455 S
O1 Cd2 2.228 . S
Cd2 O1 2.228 . S
Cd2 O6 2.273 . S
Cd2 O10 2.277 . S
O3 C0 1.160 . S
O3 Cd4 2.203 1_655 S
Cd4 O3 2.203 1_455 S
Cd4 O6 2.411 . S
Cd4 O7 2.333 . S
Cd4 O8 2.352 . S
Cd4 O12 2.277 . S
Cd4 O13 2.356 . S
C5 O10 1.209 . S
C5 O12 1.226 . S
O6 Cd2 2.273 . S
O6 Cd4 2.411 . S
O6 C9 1.320 . S
O7 Cd4 2.333 . S
O7 C9 1.214 . S
O8 Cd4 2.352 . S
O8 C11 1.258 . S
C9 O6 1.320 . S
C9 O7 1.214 . S
O10 Cd2 2.277 . S
O10 C5 1.209 . S
C11 O8 1.258 . S
C11 O13 1.282 . S
O12 Cd4 2.277 . S
O12 C5 1.226 . S
O13 Cd4 2.356 . S
O13 C11 1.282 . S
C14 O15 1.306 1_655 S
C14 O17 1.160 . S
O15 C14 1.306 1_455 S
O15 Cd16 2.228 . S
Cd16 O15 2.228 . S
Cd16 O20 2.273 . S
Cd16 O24 2.277 . S
O17 C14 1.160 . S
O17 Cd18 2.203 1_655 S
Cd18 O17 2.203 1_455 S
Cd18 O20 2.411 . S
Cd18 O21 2.333 . S
Cd18 O22 2.352 . S
Cd18 O26 2.277 . S
Cd18 O27 2.356 . S
C19 O24 1.209 . S
C19 O26 1.226 . S
O20 Cd16 2.273 . S
O20 Cd18 2.411 . S
O20 C23 1.320 . S
O21 Cd18 2.333 . S
O21 C23 1.214 . S
O22 Cd18 2.352 . S
O22 C25 1.258 . S
C23 O20 1.320 . S
C23 O21 1.214 . S
O24 Cd16 2.277 . S
O24 C19 1.209 . S
C25 O22 1.258 . S
C25 O27 1.282 . S
O26 Cd18 2.277 . S
O26 C19 1.226 . S
O27 Cd18 2.356 . S
O27 C25 1.282 . S
C28 O29 1.306 . S
C28 O31 1.160 . S
O29 C28 1.306 . S
O29 Cd30 2.228 . S
Cd30 O29 2.228 . S
Cd30 O34 2.273 . S
Cd30 O38 2.277 . S
O31 C28 1.160 . S
O31 Cd32 2.203 . S
Cd32 O31 2.203 . S
Cd32 O34 2.411 . S
Cd32 O35 2.333 . S
Cd32 O36 2.352 . S
Cd32 O40 2.277 . S
Cd32 O41 2.356 . S
C33 O38 1.209 . S
C33 O40 1.226 . S
O34 Cd30 2.273 . S
O34 Cd32 2.411 . S
O34 C37 1.320 . S
O35 Cd32 2.333 . S
O35 C37 1.214 . S
O36 Cd32 2.352 . S
O36 C39 1.258 . S
C37 O34 1.320 . S
C37 O35 1.214 . S
O38 Cd30 2.277 . S
O38 C33 1.209 . S
C39 O36 1.258 . S
C39 O41 1.282 . S
O40 Cd32 2.277 . S
O40 C33 1.226 . S
O41 Cd32 2.356 . S
O41 C39 1.282 . S
C42 O43 1.306 . S
C42 O45 1.160 . S
O43 C42 1.306 . S
O43 Cd44 2.228 . S
Cd44 O43 2.228 . S
Cd44 O48 2.273 . S
Cd44 O52 2.277 . S
O45 C42 1.160 . S
O45 Cd46 2.203 . S
Cd46 O45 2.203 . S
Cd46 O48 2.411 . S
Cd46 O49 2.333 . S
Cd46 O50 2.352 . S
Cd46 O54 2.277 . S
Cd46 O55 2.356 . S
C47 O52 1.209 . S
C47 O54 1.226 . S
O48 Cd44 2.273 . S
O48 Cd46 2.411 . S
O48 C51 1.320 . S
O49 Cd46 2.333 . S
O49 C51 1.214 . S
O50 Cd46 2.352 . S
O50 C53 1.258 . S
C51 O48 1.320 . S
C51 O49 1.214 . S
O52 Cd44 2.277 . S
O52 C47 1.209 . S
C53 O50 1.258 . S
C53 O55 1.282 . S
O54 Cd46 2.277 . S
O54 C47 1.226 . S
O55 Cd46 2.356 . S
O55 C53 1.282 . S
C56 O57 1.306 . S
C56 O59 1.160 . S
O57 C56 1.306 . S
O57 Cd58 2.228 . S
Cd58 O57 2.228 . S
Cd58 O62 2.273 . S
Cd58 O66 2.277 . S
O59 C56 1.160 . S
O59 Cd60 2.203 . S
Cd60 O59 2.203 . S
Cd60 O62 2.411 . S
Cd60 O63 2.333 . S
Cd60 O64 2.352 . S
Cd60 O68 2.277 . S
Cd60 O69 2.356 . S
C61 O66 1.209 . S
C61 O68 1.226 . S
O62 Cd58 2.273 . S
O62 Cd60 2.411 . S
O62 C65 1.320 . S
O63 Cd60 2.333 . S
O63 C65 1.214 . S
O64 Cd60 2.352 . S
O64 C67 1.258 . S
C65 O62 1.320 . S
C65 O63 1.214 . S
O66 Cd58 2.277 . S
O66 C61 1.209 . S
C67 O64 1.258 . S
C67 O69 1.282 . S
O68 Cd60 2.277 . S
O68 C61 1.226 . S
O69 Cd60 2.356 . S
O69 C67 1.282 . S
C70 O71 1.306 . S
C70 O73 1.160 . S
O71 C70 1.306 . S
O71 Cd72 2.228 . S
Cd72 O71 2.228 . S
Cd72 O76 2.273 . S
Cd72 O80 2.277 . S
O73 C70 1.160 . S
O73 Cd74 2.203 . S
Cd74 O73 2.203 . S
Cd74 O76 2.411 . S
Cd74 O77 2.333 . S
Cd74 O78 2.352 . S
Cd74 O82 2.277 . S
Cd74 O83 2.356 . S
C75 O80 1.209 . S
C75 O82 1.226 . S
O76 Cd72 2.273 . S
O76 Cd74 2.411 . S
O76 C79 1.320 . S
O77 Cd74 2.333 . S
O77 C79 1.214 . S
O78 Cd74 2.352 . S
O78 C81 1.258 . S
C79 O76 1.320 . S
C79 O77 1.214 . S
O80 Cd72 2.277 . S
O80 C75 1.209 . S
C81 O78 1.258 . S
C81 O83 1.282 . S
O82 Cd74 2.277 . S
O82 C75 1.226 . S
O83 Cd74 2.356 . S
O83 C81 1.282 . S
C84 O85 1.306 . S
C84 O87 1.160 . S
O85 C84 1.306 . S
O85 Cd86 2.228 . S
Cd86 O85 2.228 . S
Cd86 O90 2.273 . S
Cd86 O94 2.277 . S
O87 C84 1.160 . S
O87 Cd88 2.203 . S
Cd88 O87 2.203 . S
Cd88 O90 2.411 . S
Cd88 O91 2.333 . S
Cd88 O92 2.352 . S
Cd88 O96 2.277 . S
Cd88 O97 2.356 . S
C89 O94 1.209 . S
C89 O96 1.226 . S
O90 Cd86 2.273 . S
O90 Cd88 2.411 . S
O90 C93 1.320 . S
O91 Cd88 2.333 . S
O91 C93 1.214 . S
O92 Cd88 2.352 . S
O92 C95 1.258 . S
C93 O90 1.320 . S
C93 O91 1.214 . S
O94 Cd86 2.277 . S
O94 C89 1.209 . S
C95 O92 1.258 . S
C95 O97 1.282 . S
O96 Cd88 2.277 . S
O96 C89 1.226 . S
O97 Cd88 2.356 . S
O97 C95 1.282 . S
C98 O99 1.306 . S
C98 O101 1.160 . S
O99 C98 1.306 . S
O99 Cd100 2.228 1_655 S
Cd100 O99 2.228 1_455 S
Cd100 O104 2.273 . S
Cd100 O108 2.277 1_556 S
O101 C98 1.160 . S
O101 Cd102 2.203 1_656 S
Cd102 O101 2.203 1_454 S
Cd102 O104 2.411 1_554 S
Cd102 O105 2.333 . S
Cd102 O106 2.352 1_454 S
Cd102 O110 2.277 . S
Cd102 O111 2.356 . S
C103 O108 1.209 . S
C103 O110 1.226 . S
O104 Cd100 2.273 . S
O104 Cd102 2.411 1_556 S
O104 C107 1.320 . S
O105 Cd102 2.333 . S
O105 C107 1.214 1_554 S
O106 Cd102 2.352 1_656 S
O106 C109 1.258 1_556 S
C107 O104 1.320 . S
C107 O105 1.214 1_556 S
O108 Cd100 2.277 1_554 S
O108 C103 1.209 . S
C109 O106 1.258 1_554 S
C109 O111 1.282 1_655 S
O110 Cd102 2.277 . S
O110 C103 1.226 . S
O111 Cd102 2.356 . S
O111 C109 1.282 1_455 S
C112 O113 1.306 . S
C112 O115 1.160 . S
O113 C112 1.306 . S
O113 Cd114 2.228 1_545 S
Cd114 O113 2.228 1_565 S
Cd114 O118 2.273 1_565 S
Cd114 O122 2.277 . S
O115 C112 1.160 . S
O115 Cd116 2.203 . S
Cd116 O115 2.203 . S
Cd116 O118 2.411 . S
Cd116 O119 2.333 1_545 S
Cd116 O120 2.352 . S
Cd116 O124 2.277 1_545 S
Cd116 O125 2.356 . S
C117 O122 1.209 . S
C117 O124 1.226 . S
O118 Cd114 2.273 1_545 S
O118 Cd116 2.411 . S
O118 C121 1.325 1_545 S
O119 Cd116 2.333 1_565 S
O119 C121 1.208 . S
O120 Cd116 2.352 . S
O120 C123 1.258 . S
C121 O118 1.325 1_565 S
C121 O119 1.208 . S
O122 Cd114 2.277 . S
O122 C117 1.209 . S
C123 O120 1.258 . S
C123 O125 1.282 . S
O124 Cd116 2.277 1_565 S
O124 C117 1.226 . S
O125 Cd116 2.356 . S
O125 C123 1.282 . S
C126 O127 1.306 . S
C126 O129 1.160 . S
O127 C126 1.306 . S
O127 Cd128 2.228 . S
Cd128 O127 2.228 . S
Cd128 O132 2.273 . S
Cd128 O136 2.277 . S
O129 C126 1.160 . S
O129 Cd130 2.203 . S
Cd130 O129 2.203 . S
Cd130 O132 2.411 . S
Cd130 O133 2.333 . S
Cd130 O134 2.352 . S
Cd130 O138 2.277 . S
Cd130 O139 2.356 . S
C131 O136 1.209 . S
C131 O138 1.226 . S
O132 Cd128 2.273 . S
O132 Cd130 2.411 . S
O132 C135 1.320 . S
O133 Cd130 2.333 . S
O133 C135 1.214 . S
O134 Cd130 2.352 . S
O134 C137 1.258 . S
C135 O132 1.320 . S
C135 O133 1.214 . S
O136 Cd128 2.277 . S
O136 C131 1.209 . S
C137 O134 1.258 . S
C137 O139 1.282 . S
O138 Cd130 2.277 . S
O138 C131 1.226 . S
O139 Cd130 2.356 . S
O139 C137 1.282 . S
C140 O141 1.306 . S
C140 O143 1.160 . S
O141 C140 1.306 . S
O141 Cd142 2.228 . S
Cd142 O141 2.228 . S
Cd142 O146 2.273 . S
Cd142 O150 2.277 . S
O143 C140 1.160 . S
O143 Cd144 2.203 . S
Cd144 O143 2.203 . S
Cd144 O146 2.411 . S
Cd144 O147 2.333 . S
Cd144 O148 2.352 . S
Cd144 O152 2.277 . S
Cd144 O153 2.356 . S
C145 O150 1.209 . S
C145 O152 1.226 . S
O146 Cd142 2.273 . S
O146 Cd144 2.411 . S
O146 C149 1.320 . S
O147 Cd144 2.333 . S
O147 C149 1.214 . S
O148 Cd144 2.352 . S
O148 C151 1.258 . S
C149 O146 1.320 . S
C149 O147 1.214 . S
O150 Cd142 2.277 . S
O150 C145 1.209 . S
C151 O148 1.258 . S
C151 O153 1.282 . S
O152 Cd144 2.277 . S
O152 C145 1.226 . S
O153 Cd144 2.356 . S
O153 C151 1.282 . S
C154 O155 1.306 1_554 S
C154 O157 1.160 . S
O155 C154 1.306 1_556 S
O155 Cd156 2.228 . S
Cd156 O155 2.228 . S
Cd156 O160 2.273 1_556 S
Cd156 O164 2.277 1_545 S
O157 C154 1.160 . S
O157 Cd158 2.203 1_545 S
Cd158 O157 2.203 1_565 S
Cd158 O160 2.411 1_565 S
Cd158 O161 2.333 1_554 S
Cd158 O162 2.351 . S
Cd158 O166 2.277 1_554 S
Cd158 O167 2.356 . S
C159 O164 1.209 . S
C159 O166 1.226 . S
O160 Cd156 2.273 1_554 S
O160 Cd158 2.411 1_545 S
O160 C163 1.320 1_554 S
O161 Cd158 2.333 1_556 S
O161 C163 1.214 1_565 S
O162 Cd158 2.351 . S
O162 C165 1.260 . S
C163 O160 1.320 1_556 S
C163 O161 1.214 1_545 S
O164 Cd156 2.277 1_565 S
O164 C159 1.209 . S
C165 O162 1.260 . S
C165 O167 1.282 . S
O166 Cd158 2.277 1_556 S
O166 C159 1.226 . S
O167 Cd158 2.356 . S
O167 C165 1.282 . S
C168 O169 1.306 . S
C168 O171 1.160 . S
O169 C168 1.306 . S
O169 Cd170 2.228 . S
Cd170 O169 2.228 . S
Cd170 O174 2.273 . S
Cd170 O178 2.277 1_554 S
O171 C168 1.160 . S
O171 Cd172 2.203 . S
Cd172 O171 2.203 . S
Cd172 O174 2.411 . S
Cd172 O175 2.333 . S
Cd172 O176 2.352 . S
Cd172 O180 2.277 1_554 S
Cd172 O181 2.356 . S
C173 O178 1.209 . S
C173 O180 1.226 . S
O174 Cd170 2.273 . S
O174 Cd172 2.411 . S
O174 C177 1.320 . S
O175 Cd172 2.333 . S
O175 C177 1.214 . S
O176 Cd172 2.352 . S
O176 C179 1.258 . S
C177 O174 1.320 . S
C177 O175 1.214 . S
O178 Cd170 2.277 1_556 S
O178 C173 1.209 . S
C179 O176 1.258 . S
C179 O181 1.282 . S
O180 Cd172 2.277 1_556 S
O180 C173 1.226 . S
O181 Cd172 2.356 . S
O181 C179 1.282 . S
C182 O183 1.306 . S
C182 O185 1.160 . S
O183 C182 1.306 . S
O183 Cd184 2.228 . S
Cd184 O183 2.228 . S
Cd184 O188 2.273 . S
Cd184 O192 2.277 . S
O185 C182 1.160 . S
O185 Cd186 2.203 . S
Cd186 O185 2.203 . S
Cd186 O188 2.411 . S
Cd186 O189 2.333 . S
Cd186 O190 2.352 . S
Cd186 O194 2.277 . S
Cd186 O195 2.356 . S
C187 O192 1.209 . S
C187 O194 1.226 . S
O188 Cd184 2.273 . S
O188 Cd186 2.411 . S
O188 C191 1.320 . S
O189 Cd186 2.333 . S
O189 C191 1.214 . S
O190 Cd186 2.352 . S
O190 C193 1.258 . S
C191 O188 1.320 . S
C191 O189 1.214 . S
O192 Cd184 2.277 . S
O192 C187 1.209 . S
C193 O190 1.258 . S
C193 O195 1.282 . S
O194 Cd186 2.277 . S
O194 C187 1.226 . S
O195 Cd186 2.356 . S
O195 C193 1.282 . S
C196 O197 1.306 . S
C196 O199 1.160 . S
O197 C196 1.306 . S
O197 Cd198 2.228 . S
Cd198 O197 2.228 . S
Cd198 O202 2.273 . S
Cd198 O206 2.277 . S
O199 C196 1.160 . S
O199 Cd200 2.203 . S
Cd200 O199 2.203 . S
Cd200 O202 2.411 . S
Cd200 O203 2.333 . S
Cd200 O204 2.352 . S
Cd200 O208 2.277 . S
Cd200 O209 2.356 . S
C201 O206 1.209 . S
C201 O208 1.226 . S
O202 Cd198 2.273 . S
O202 Cd200 2.411 . S
O202 C205 1.320 . S
O203 Cd200 2.333 . S
O203 C205 1.214 . S
O204 Cd200 2.352 . S
O204 C207 1.258 . S
C205 O202 1.320 . S
C205 O203 1.214 . S
O206 Cd198 2.277 . S
O206 C201 1.209 . S
C207 O204 1.258 . S
C207 O209 1.282 . S
O208 Cd200 2.277 . S
O208 C201 1.226 . S
O209 Cd200 2.356 . S
O209 C207 1.282 . S
C210 O211 1.306 . S
C210 O213 1.160 . S
O211 C210 1.306 . S
O211 Cd212 2.228 . S
Cd212 O211 2.228 . S
Cd212 O216 2.273 . S
Cd212 O220 2.277 . S
O213 C210 1.160 . S
O213 Cd214 2.203 . S
Cd214 O213 2.203 . S
Cd214 O216 2.411 . S
Cd214 O217 2.333 . S
Cd214 O218 2.352 . S
Cd214 O222 2.277 . S
Cd214 O223 2.356 . S
C215 O220 1.209 . S
C215 O222 1.226 . S
O216 Cd212 2.273 . S
O216 Cd214 2.411 . S
O216 C219 1.320 . S
O217 Cd214 2.333 . S
O217 C219 1.214 . S
O218 Cd214 2.352 . S
O218 C221 1.258 . S
C219 O216 1.320 . S
C219 O217 1.214 . S
O220 Cd212 2.277 . S
O220 C215 1.209 . S
C221 O218 1.258 . S
C221 O223 1.282 . S
O222 Cd214 2.277 . S
O222 C215 1.226 . S
O223 Cd214 2.356 . S
O223 C221 1.282 . S
C224 O225 1.306 . S
C224 O227 1.160 1_455 S
O225 C224 1.306 . S
O225 Cd226 2.228 1_545 S
Cd226 O225 2.228 1_565 S
Cd226 O230 2.273 1_565 S
Cd226 O234 2.277 1_455 S
O227 C224 1.160 1_655 S
O227 Cd228 2.203 . S
Cd228 O227 2.203 . S
Cd228 O230 2.411 1_655 S
Cd228 O231 2.333 . S
Cd228 O232 2.352 . S
Cd228 O236 2.277 1_545 S
Cd228 O237 2.356 . S
C229 O234 1.209 . S
C229 O236 1.226 . S
O230 Cd226 2.273 1_545 S
O230 Cd228 2.411 1_455 S
O230 C233 1.320 . S
O231 Cd228 2.333 . S
O231 C233 1.214 1_655 S
O232 Cd228 2.352 . S
O232 C235 1.258 . S
C233 O230 1.320 . S
C233 O231 1.214 1_455 S
O234 Cd226 2.277 1_655 S
O234 C229 1.209 . S
C235 O232 1.258 . S
C235 O237 1.282 . S
O236 Cd228 2.277 1_565 S
O236 C229 1.226 . S
O237 Cd228 2.356 . S
O237 C235 1.282 . S
C238 O239 1.306 . S
C238 O241 1.160 . S
O239 C238 1.306 . S
O239 Cd240 2.228 . S
Cd240 O239 2.228 . S
Cd240 O244 2.273 . S
Cd240 O248 2.277 . S
O241 C238 1.160 . S
O241 Cd242 2.203 . S
Cd242 O241 2.203 . S
Cd242 O244 2.411 . S
Cd242 O245 2.333 . S
Cd242 O246 2.352 . S
Cd242 O250 2.277 . S
Cd242 O251 2.356 . S
C243 O248 1.209 . S
C243 O250 1.226 . S
O244 Cd240 2.273 . S
O244 Cd242 2.411 . S
O244 C247 1.320 . S
O245 Cd242 2.333 . S
O245 C247 1.214 . S
O246 Cd242 2.352 . S
O246 C249 1.258 . S
C247 O244 1.320 . S
C247 O245 1.214 . S
O248 Cd240 2.277 . S
O248 C243 1.209 . S
C249 O246 1.258 . S
C249 O251 1.282 . S
O250 Cd242 2.277 . S
O250 C243 1.226 . S
O251 Cd242 2.356 . S
O251 C249 1.282 . S
C252 O253 1.306 . S
C252 O255 1.160 . S
O253 C252 1.306 . S
O253 Cd254 2.228 . S
Cd254 O253 2.228 . S
Cd254 O258 2.273 . S
Cd254 O262 2.277 . S
O255 C252 1.160 . S
O255 Cd256 2.203 . S
Cd256 O255 2.203 . S
Cd256 O258 2.411 . S
Cd256 O259 2.333 . S
Cd256 O260 2.352 . S
Cd256 O264 2.277 . S
Cd256 O265 2.356 . S
C257 O262 1.209 . S
C257 O264 1.226 . S
O258 Cd254 2.273 . S
O258 Cd256 2.411 . S
O258 C261 1.320 . S
O259 Cd256 2.333 . S
O259 C261 1.214 . S
O260 Cd256 2.352 . S
O260 C263 1.258 . S
C261 O258 1.320 . S
C261 O259 1.214 . S
O262 Cd254 2.277 . S
O262 C257 1.209 . S
C263 O260 1.258 . S
C263 O265 1.282 . S
O264 Cd256 2.277 . S
O264 C257 1.226 . S
O265 Cd256 2.356 . S
O265 C263 1.282 . S
C266 O267 1.306 . S
C266 O269 1.160 . S
O267 C266 1.306 . S
O267 Cd268 2.228 . S
Cd268 O267 2.228 . S
Cd268 O272 2.273 . S
Cd268 O276 2.277 . S
O269 C266 1.160 . S
O269 Cd270 2.203 . S
Cd270 O269 2.203 . S
Cd270 O272 2.411 . S
Cd270 O273 2.333 . S
Cd270 O274 2.352 . S
Cd270 O278 2.277 . S
Cd270 O279 2.356 . S
C271 O276 1.209 . S
C271 O278 1.226 . S
O272 Cd268 2.273 . S
O272 Cd270 2.411 . S
O272 C275 1.320 . S
O273 Cd270 2.333 . S
O273 C275 1.214 . S
O274 Cd270 2.352 . S
O274 C277 1.258 . S
C275 O272 1.320 . S
C275 O273 1.214 . S
O276 Cd268 2.277 . S
O276 C271 1.209 . S
C277 O274 1.258 . S
C277 O279 1.282 . S
O278 Cd270 2.277 . S
O278 C271 1.226 . S
O279 Cd270 2.356 . S
O279 C277 1.282 . S
C280 O281 1.306 . S
C280 O283 1.160 . S
O281 C280 1.306 . S
O281 Cd282 2.228 . S
Cd282 O281 2.228 . S
Cd282 O286 2.273 . S
Cd282 O290 2.277 . S
O283 C280 1.160 . S
O283 Cd284 2.203 . S
Cd284 O283 2.203 . S
Cd284 O286 2.411 . S
Cd284 O287 2.333 . S
Cd284 O288 2.352 1_554 S
Cd284 O292 2.277 . S
Cd284 O293 2.356 . S
C285 O290 1.209 . S
C285 O292 1.226 . S
O286 Cd282 2.273 . S
O286 Cd284 2.411 . S
O286 C289 1.320 . S
O287 Cd284 2.333 . S
O287 C289 1.214 . S
O288 Cd284 2.352 1_556 S
O288 C291 1.258 . S
C289 O286 1.320 . S
C289 O287 1.214 . S
O290 Cd282 2.277 . S
O290 C285 1.209 . S
C291 O288 1.258 . S
C291 O293 1.282 1_556 S
O292 Cd284 2.277 . S
O292 C285 1.226 . S
O293 Cd284 2.356 . S
O293 C291 1.282 1_554 S
C294 O295 1.306 . S
C294 O297 1.160 . S
O295 C294 1.306 . S
O295 Cd296 2.228 . S
Cd296 O295 2.228 . S
Cd296 O300 2.273 . S
Cd296 O304 2.277 . S
O297 C294 1.160 . S
O297 Cd298 2.203 . S
Cd298 O297 2.203 . S
Cd298 O300 2.411 . S
Cd298 O301 2.333 . S
Cd298 O302 2.352 . S
Cd298 O306 2.277 . S
Cd298 O307 2.356 . S
C299 O304 1.209 . S
C299 O306 1.226 . S
O300 Cd296 2.273 . S
O300 Cd298 2.411 . S
O300 C303 1.320 . S
O301 Cd298 2.333 . S
O301 C303 1.214 . S
O302 Cd298 2.352 . S
O302 C305 1.258 . S
C303 O300 1.320 . S
C303 O301 1.214 . S
O304 Cd296 2.277 . S
O304 C299 1.209 . S
C305 O302 1.258 . S
C305 O307 1.282 . S
O306 Cd298 2.277 . S
O306 C299 1.226 . S
O307 Cd298 2.356 . S
O307 C305 1.282 . S
C308 O309 1.306 . S
C308 O311 1.160 . S
O309 C308 1.306 . S
O309 Cd310 2.228 . S
Cd310 O309 2.228 . S
Cd310 O314 2.273 . S
Cd310 O318 2.277 . S
O311 C308 1.160 . S
O311 Cd312 2.203 . S
Cd312 O311 2.203 . S
Cd312 O314 2.411 . S
Cd312 O315 2.333 . S
Cd312 O316 2.352 . S
Cd312 O320 2.277 . S
Cd312 O321 2.356 . S
C313 O318 1.209 . S
C313 O320 1.226 . S
O314 Cd310 2.273 . S
O314 Cd312 2.411 . S
O314 C317 1.320 . S
O315 Cd312 2.333 . S
O315 C317 1.214 . S
O316 Cd312 2.352 . S
O316 C319 1.258 . S
C317 O314 1.320 . S
C317 O315 1.214 . S
O318 Cd310 2.277 . S
O318 C313 1.209 . S
C319 O316 1.258 . S
C319 O321 1.282 . S
O320 Cd312 2.277 . S
O320 C313 1.226 . S
O321 Cd312 2.356 . S
O321 C319 1.282 . S
C322 O323 1.306 . S
C322 O325 1.160 . S
O323 C322 1.306 . S
O323 Cd324 2.228 . S
Cd324 O323 2.228 . S
Cd324 O328 2.273 . S
Cd324 O332 2.277 . S
O325 C322 1.160 . S
O325 Cd326 2.203 . S
Cd326 O325 2.203 . S
Cd326 O328 2.411 . S
Cd326 O329 2.333 . S
Cd326 O330 2.352 . S
Cd326 O334 2.277 . S
Cd326 O335 2.356 . S
C327 O332 1.209 . S
C327 O334 1.226 . S
O328 Cd324 2.273 . S
O328 Cd326 2.411 . S
O328 C331 1.320 . S
O329 Cd326 2.333 . S
O329 C331 1.214 . S
O330 Cd326 2.352 . S
O330 C333 1.258 . S
C331 O328 1.320 . S
C331 O329 1.214 . S
O332 Cd324 2.277 . S
O332 C327 1.209 . S
C333 O330 1.258 . S
C333 O335 1.282 . S
O334 Cd326 2.277 . S
O334 C327 1.226 . S
O335 Cd326 2.356 . S
O335 C333 1.282 . S
Dy336 O339 2.307 . S
Dy336 O341 2.395 . S
Dy336 O342 2.379 . S
Dy336 O344 2.339 . S
Dy336 O346 2.298 . S
Dy336 O350 2.275 . S
Dy336 C358 2.738 . S
Dy337 O340 2.298 1_655 S
Dy337 O343 2.275 1_655 S
Dy337 O345 2.307 1_655 S
Dy337 O347 2.395 . S
Dy337 O348 2.379 1_554 S
Dy337 O351 2.339 1_654 S
Dy337 C367 2.738 . S
C338 O350 1.254 1_556 S
C338 O351 1.257 . S
O339 Dy336 2.307 . S
O339 C349 1.266 . S
O340 Dy337 2.298 1_455 S
O340 C349 1.236 . S
O341 Dy336 2.395 . S
O341 C358 1.255 . S
O342 Dy336 2.379 . S
O342 C358 1.249 . S
O343 Dy337 2.275 1_455 S
O343 C359 1.254 . S
O344 Dy336 2.339 . S
O344 C359 1.257 . S
O345 Dy337 2.307 1_455 S
O345 C360 1.266 . S
O346 Dy336 2.298 . S
O346 C360 1.236 . S
O347 Dy337 2.395 . S
O347 C367 1.255 . S
O348 Dy337 2.379 1_556 S
O348 C367 1.249 1_556 S
C349 O339 1.266 . S
C349 O340 1.236 . S
O350 Dy336 2.275 . S
O350 C338 1.254 1_554 S
O351 Dy337 2.339 1_456 S
O351 C338 1.257 . S
C352 C355 1.344 . S
C352 C356 1.328 . S
C352 C358 1.516 . S
C353 C354 1.304 . S
C353 C357 1.323 . S
C354 C353 1.304 . S
C354 C355 1.371 . S
C354 H368 0.930 . S
C355 C352 1.344 . S
C355 C354 1.371 . S
C355 H369 0.931 . S
C356 C352 1.328 . S
C356 C357 1.433 . S
C356 H370 0.931 . S
C357 C353 1.323 . S
C357 C356 1.433 . S
C357 H371 0.933 . S
C358 Dy336 2.738 . S
C358 O341 1.255 . S
C358 O342 1.249 . S
C358 C352 1.516 . S
C359 O343 1.254 . S
C359 O344 1.257 . S
C360 O345 1.266 . S
C360 O346 1.236 . S
C361 C364 1.344 . S
C361 C365 1.328 1_554 S
C361 C367 1.516 . S
C362 C363 1.304 . S
C362 C366 1.323 1_554 S
C363 C362 1.304 . S
C363 C364 1.371 . S
C363 H372 0.930 . S
C364 C361 1.344 . S
C364 C363 1.371 . S
C364 H373 0.931 . S
C365 C361 1.328 1_556 S
C365 C366 1.433 . S
C365 H374 0.931 . S
C366 C362 1.323 1_556 S
C366 C365 1.433 . S
C366 H375 0.933 . S
C367 Dy337 2.738 . S
C367 O347 1.255 . S
C367 O348 1.249 1_554 S
C367 C361 1.516 . S
H368 C354 0.930 . S
H369 C355 0.931 . S
H370 C356 0.931 . S
H371 C357 0.933 . S
H372 C363 0.930 . S
H373 C364 0.931 . S
H374 C365 0.931 . S
H375 C366 0.933 . S
Dy376 O379 2.307 . S
Dy376 O381 2.395 . S
Dy376 O382 2.379 . S
Dy376 O384 2.339 . S
Dy376 O386 2.298 . S
Dy376 O390 2.275 . S
Dy376 C398 2.738 . S
Dy377 O380 2.298 . S
Dy377 O383 2.275 . S
Dy377 O385 2.307 . S
Dy377 O387 2.395 . S
Dy377 O388 2.379 . S
Dy377 O391 2.339 . S
Dy377 C407 2.738 . S
C378 O390 1.254 . S
C378 O391 1.257 . S
O379 Dy376 2.307 . S
O379 C389 1.266 . S
O380 Dy377 2.298 . S
O380 C389 1.236 . S
O381 Dy376 2.395 . S
O381 C398 1.255 . S
O382 Dy376 2.379 . S
O382 C398 1.249 . S
O383 Dy377 2.275 . S
O383 C399 1.254 . S
O384 Dy376 2.339 . S
O384 C399 1.257 . S
O385 Dy377 2.307 . S
O385 C400 1.266 . S
O386 Dy376 2.298 . S
O386 C400 1.236 . S
O387 Dy377 2.395 . S
O387 C407 1.255 . S
O388 Dy377 2.379 . S
O388 C407 1.249 . S
C389 O379 1.266 . S
C389 O380 1.236 . S
O390 Dy376 2.275 . S
O390 C378 1.254 . S
O391 Dy377 2.339 . S
O391 C378 1.257 . S
C392 C395 1.344 . S
C392 C396 1.328 . S
C392 C398 1.516 . S
C393 C394 1.304 . S
C393 C397 1.323 . S
C394 C393 1.304 . S
C394 C395 1.371 . S
C394 H408 0.930 . S
C395 C392 1.344 . S
C395 C394 1.371 . S
C395 H409 0.931 . S
C396 C392 1.328 . S
C396 C397 1.433 . S
C396 H410 0.931 . S
C397 C393 1.323 . S
C397 C396 1.433 . S
C397 H411 0.933 . S
C398 Dy376 2.738 . S
C398 O381 1.255 . S
C398 O382 1.249 . S
C398 C392 1.516 . S
C399 O383 1.254 . S
C399 O384 1.257 . S
C400 O385 1.266 . S
C400 O386 1.236 . S
C401 C404 1.344 . S
C401 C405 1.328 . S
C401 C407 1.516 . S
C402 C403 1.304 . S
C402 C406 1.323 . S
C403 C402 1.304 . S
C403 C404 1.371 . S
C403 H412 0.930 . S
C404 C401 1.344 . S
C404 C403 1.371 . S
C404 H413 0.931 . S
C405 C401 1.328 . S
C405 C406 1.433 . S
C405 H414 0.931 . S
C406 C402 1.323 . S
C406 C405 1.433 . S
C406 H415 0.933 . S
C407 Dy377 2.738 . S
C407 O387 1.255 . S
C407 O388 1.249 . S
C407 C401 1.516 . S
H408 C394 0.930 . S
H409 C395 0.931 . S
H410 C396 0.931 . S
H411 C397 0.933 . S
H412 C403 0.930 . S
H413 C404 0.931 . S
H414 C405 0.931 . S
H415 C406 0.933 . S
Dy416 O419 2.307 . S
Dy416 O421 2.395 . S
Dy416 O422 2.379 . S
Dy416 O424 2.339 . S
Dy416 O426 2.298 . S
Dy416 O430 2.275 . S
Dy416 C438 2.738 . S
Dy417 O420 2.298 . S
Dy417 O423 2.275 . S
Dy417 O425 2.307 . S
Dy417 O427 2.395 . S
Dy417 O428 2.379 . S
Dy417 O431 2.339 . S
Dy417 C447 2.738 . S
C418 O430 1.254 . S
C418 O431 1.257 . S
O419 Dy416 2.307 . S
O419 C429 1.266 1_545 S
O420 Dy417 2.298 . S
O420 C429 1.236 1_545 S
O421 Dy416 2.395 . S
O421 C438 1.255 . S
O422 Dy416 2.379 . S
O422 C438 1.249 . S
O423 Dy417 2.275 . S
O423 C439 1.254 . S
O424 Dy416 2.339 . S
O424 C439 1.257 . S
O425 Dy417 2.307 . S
O425 C440 1.266 . S
O426 Dy416 2.298 . S
O426 C440 1.236 . S
O427 Dy417 2.395 . S
O427 C447 1.255 . S
O428 Dy417 2.379 . S
O428 C447 1.249 . S
C429 O419 1.266 1_565 S
C429 O420 1.236 1_565 S
O430 Dy416 2.275 . S
O430 C418 1.254 . S
O431 Dy417 2.339 . S
O431 C418 1.257 . S
C432 C435 1.344 . S
C432 C436 1.328 . S
C432 C438 1.516 . S
C433 C434 1.304 . S
C433 C437 1.323 . S
C434 C433 1.304 . S
C434 C435 1.371 . S
C434 H448 0.930 . S
C435 C432 1.344 . S
C435 C434 1.371 . S
C435 H449 0.931 . S
C436 C432 1.328 . S
C436 C437 1.433 . S
C436 H450 0.931 . S
C437 C433 1.323 . S
C437 C436 1.433 . S
C437 H451 0.933 . S
C438 Dy416 2.738 . S
C438 O421 1.255 . S
C438 O422 1.249 . S
C438 C432 1.516 . S
C439 O423 1.254 . S
C439 O424 1.257 . S
C440 O425 1.266 . S
C440 O426 1.236 . S
C441 C444 1.346 . S
C441 C445 1.328 1_545 S
C441 C447 1.516 . S
C442 C443 1.304 . S
C442 C446 1.323 . S
C443 C442 1.304 . S
C443 C444 1.368 1_565 S
C443 H452 0.930 . S
C444 C441 1.346 . S
C444 C443 1.368 1_545 S
C444 H453 0.932 . S
C445 C441 1.328 1_565 S
C445 C446 1.433 . S
C445 H454 0.931 . S
C446 C442 1.323 . S
C446 C445 1.433 . S
C446 H455 0.933 . S
C447 Dy417 2.738 . S
C447 O427 1.255 . S
C447 O428 1.249 . S
C447 C441 1.516 . S
H448 C434 0.930 . S
H449 C435 0.931 . S
H450 C436 0.931 . S
H451 C437 0.933 . S
H452 C443 0.930 . S
H453 C444 0.932 . S
H454 C445 0.931 . S
H455 C446 0.933 . S
Dy456 O459 2.307 . S
Dy456 O461 2.395 . S
Dy456 O462 2.379 . S
Dy456 O464 2.339 . S
Dy456 O466 2.298 . S
Dy456 O470 2.275 . S
Dy456 C478 2.738 . S
Dy457 O460 2.298 . S
Dy457 O463 2.275 . S
Dy457 O465 2.307 . S
Dy457 O467 2.395 . S
Dy457 O468 2.379 . S
Dy457 O471 2.339 . S
Dy457 C487 2.738 . S
C458 O470 1.254 . S
C458 O471 1.257 . S
O459 Dy456 2.307 . S
O459 C469 1.266 . S
O460 Dy457 2.298 . S
O460 C469 1.236 . S
O461 Dy456 2.395 . S
O461 C478 1.255 . S
O462 Dy456 2.379 . S
O462 C478 1.249 . S
O463 Dy457 2.275 . S
O463 C479 1.254 . S
O464 Dy456 2.339 . S
O464 C479 1.257 . S
O465 Dy457 2.307 . S
O465 C480 1.266 . S
O466 Dy456 2.298 . S
O466 C480 1.236 . S
O467 Dy457 2.395 . S
O467 C487 1.255 . S
O468 Dy457 2.379 . S
O468 C487 1.249 . S
C469 O459 1.266 . S
C469 O460 1.236 . S
O470 Dy456 2.275 . S
O470 C458 1.254 . S
O471 Dy457 2.339 . S
O471 C458 1.257 . S
C472 C475 1.344 . S
C472 C476 1.328 . S
C472 C478 1.516 . S
C473 C474 1.304 . S
C473 C477 1.323 . S
C474 C473 1.304 . S
C474 C475 1.371 . S
C474 H488 0.930 . S
C475 C472 1.344 . S
C475 C474 1.371 . S
C475 H489 0.931 . S
C476 C472 1.328 . S
C476 C477 1.433 . S
C476 H490 0.931 . S
C477 C473 1.323 . S
C477 C476 1.433 . S
C477 H491 0.933 . S
C478 Dy456 2.738 . S
C478 O461 1.255 . S
C478 O462 1.249 . S
C478 C472 1.516 . S
C479 O463 1.254 . S
C479 O464 1.257 . S
C480 O465 1.266 . S
C480 O466 1.236 . S
C481 C484 1.344 . S
C481 C485 1.328 . S
C481 C487 1.516 . S
C482 C483 1.304 . S
C482 C486 1.323 . S
C483 C482 1.304 . S
C483 C484 1.371 . S
C483 H492 0.930 . S
C484 C481 1.344 . S
C484 C483 1.371 . S
C484 H493 0.931 . S
C485 C481 1.328 . S
C485 C486 1.433 . S
C485 H494 0.931 . S
C486 C482 1.323 . S
C486 C485 1.433 . S
C486 H495 0.933 . S
C487 Dy457 2.738 . S
C487 O467 1.255 . S
C487 O468 1.249 . S
C487 C481 1.516 . S
H488 C474 0.930 . S
H489 C475 0.931 . S
H490 C476 0.931 . S
H491 C477 0.933 . S
H492 C483 0.930 . S
H493 C484 0.931 . S
H494 C485 0.931 . S
H495 C486 0.933 . S
Dy496 O499 2.307 . S
Dy496 O501 2.395 1_545 S
Dy496 O502 2.379 . S
Dy496 O504 2.339 . S
Dy496 O506 2.298 . S
Dy496 O510 2.275 . S
Dy496 C518 2.738 1_545 S
Dy497 O500 2.298 . S
Dy497 O503 2.275 . S
Dy497 O505 2.307 . S
Dy497 O507 2.395 . S
Dy497 O508 2.379 1_455 S
Dy497 O511 2.339 1_455 S
Dy497 C527 2.738 . S
C498 O510 1.254 1_655 S
C498 O511 1.257 . S
O499 Dy496 2.307 . S
O499 C509 1.266 . S
O500 Dy497 2.298 . S
O500 C509 1.236 . S
O501 Dy496 2.395 1_565 S
O501 C518 1.255 . S
O502 Dy496 2.379 . S
O502 C518 1.249 1_545 S
O503 Dy497 2.275 . S
O503 C519 1.254 . S
O504 Dy496 2.339 . S
O504 C519 1.257 . S
O505 Dy497 2.307 . S
O505 C520 1.266 . S
O506 Dy496 2.298 . S
O506 C520 1.236 . S
O507 Dy497 2.395 . S
O507 C527 1.255 . S
O508 Dy497 2.379 1_655 S
O508 C527 1.249 1_655 S
C509 O499 1.266 . S
C509 O500 1.236 . S
O510 Dy496 2.275 . S
O510 C498 1.254 1_455 S
O511 Dy497 2.339 1_655 S
O511 C498 1.257 . S
C512 C515 1.344 . S
C512 C516 1.328 . S
C512 C518 1.516 . S
C513 C514 1.304 . S
C513 C517 1.323 . S
C514 C513 1.304 . S
C514 C515 1.371 . S
C514 H528 0.930 . S
C515 C512 1.344 . S
C515 C514 1.371 . S
C515 H529 0.931 . S
C516 C512 1.328 . S
C516 C517 1.433 . S
C516 H530 0.931 . S
C517 C513 1.323 . S
C517 C516 1.433 . S
C517 H531 0.933 . S
C518 Dy496 2.738 1_565 S
C518 O501 1.255 . S
C518 O502 1.249 1_565 S
C518 C512 1.516 . S
C519 O503 1.254 . S
C519 O504 1.257 . S
C520 O505 1.266 . S
C520 O506 1.236 . S
C521 C524 1.344 . S
C521 C525 1.328 1_455 S
C521 C527 1.516 . S
C522 C523 1.304 . S
C522 C526 1.323 1_455 S
C523 C522 1.304 . S
C523 C524 1.371 . S
C523 H532 0.930 . S
C524 C521 1.344 . S
C524 C523 1.371 . S
C524 H533 0.931 . S
C525 C521 1.328 1_655 S
C525 C526 1.433 . S
C525 H534 0.931 . S
C526 C522 1.323 1_655 S
C526 C525 1.433 . S
C526 H535 0.933 . S
C527 Dy497 2.738 . S
C527 O507 1.255 . S
C527 O508 1.249 1_455 S
C527 C521 1.516 . S
H528 C514 0.930 . S
H529 C515 0.931 . S
H530 C516 0.931 . S
H531 C517 0.933 . S
H532 C523 0.930 . S
H533 C524 0.931 . S
H534 C525 0.931 . S
H535 C526 0.933 . S
Dy536 O539 2.307 . S
Dy536 O541 2.395 . S
Dy536 O542 2.379 . S
Dy536 O544 2.339 . S
Dy536 O546 2.298 . S
Dy536 O550 2.275 . S
Dy536 C558 2.738 . S
Dy537 O540 2.298 . S
Dy537 O543 2.275 . S
Dy537 O545 2.307 . S
Dy537 O547 2.395 . S
Dy537 O548 2.379 . S
Dy537 O551 2.339 . S
Dy537 C567 2.738 . S
C538 O550 1.254 . S
C538 O551 1.257 . S
O539 Dy536 2.307 . S
O539 C549 1.266 . S
O540 Dy537 2.298 . S
O540 C549 1.236 . S
O541 Dy536 2.395 . S
O541 C558 1.255 . S
O542 Dy536 2.379 . S
O542 C558 1.249 . S
O543 Dy537 2.275 . S
O543 C559 1.254 . S
O544 Dy536 2.339 . S
O544 C559 1.257 . S
O545 Dy537 2.307 . S
O545 C560 1.266 . S
O546 Dy536 2.298 . S
O546 C560 1.236 . S
O547 Dy537 2.395 . S
O547 C567 1.255 . S
O548 Dy537 2.379 . S
O548 C567 1.249 . S
C549 O539 1.266 . S
C549 O540 1.236 . S
O550 Dy536 2.275 . S
O550 C538 1.254 . S
O551 Dy537 2.339 . S
O551 C538 1.257 . S
C552 C555 1.344 . S
C552 C556 1.328 . S
C552 C558 1.516 . S
C553 C554 1.304 . S
C553 C557 1.323 . S
C554 C553 1.304 . S
C554 C555 1.371 1_545 S
C554 H568 0.930 . S
C555 C552 1.344 . S
C555 C554 1.371 1_565 S
C555 H569 0.931 . S
C556 C552 1.328 . S
C556 C557 1.433 1_565 S
C556 H570 0.931 . S
C557 C553 1.323 . S
C557 C556 1.433 1_545 S
C557 H571 0.933 . S
C558 Dy536 2.738 . S
C558 O541 1.255 . S
C558 O542 1.249 . S
C558 C552 1.516 . S
C559 O543 1.254 . S
C559 O544 1.257 . S
C560 O545 1.266 . S
C560 O546 1.236 . S
C561 C564 1.344 . S
C561 C565 1.328 . S
C561 C567 1.516 . S
C562 C563 1.304 . S
C562 C566 1.323 . S
C563 C562 1.304 . S
C563 C564 1.371 . S
C563 H572 0.930 . S
C564 C561 1.344 . S
C564 C563 1.371 . S
C564 H573 0.931 . S
C565 C561 1.328 . S
C565 C566 1.433 . S
C565 H574 0.931 . S
C566 C562 1.323 . S
C566 C565 1.433 . S
C566 H575 0.933 . S
C567 Dy537 2.738 . S
C567 O547 1.255 . S
C567 O548 1.249 . S
C567 C561 1.516 . S
H568 C554 0.930 . S
H569 C555 0.931 . S
H570 C556 0.931 . S
H571 C557 0.933 . S
H572 C563 0.930 . S
H573 C564 0.931 . S
H574 C565 0.931 . S
H575 C566 0.933 . S
Dy576 O579 2.307 . S
Dy576 O581 2.395 1_554 S
Dy576 O582 2.379 1_554 S
Dy576 O584 2.339 . S
Dy576 O586 2.298 . S
Dy576 O590 2.275 . S
Dy576 C598 2.738 1_554 S
Dy577 O580 2.298 . S
Dy577 O583 2.275 . S
Dy577 O585 2.307 . S
Dy577 O587 2.395 . S
Dy577 O588 2.373 1_545 S
Dy577 O591 2.339 . S
Dy577 C607 2.738 . S
C578 O590 1.254 . S
C578 O591 1.257 . S
O579 Dy576 2.307 . S
O579 C589 1.266 . S
O580 Dy577 2.298 . S
O580 C589 1.236 . S
O581 Dy576 2.395 1_556 S
O581 C598 1.255 . S
O582 Dy576 2.379 1_556 S
O582 C598 1.249 . S
O583 Dy577 2.275 . S
O583 C599 1.254 . S
O584 Dy576 2.339 . S
O584 C599 1.257 . S
O585 Dy577 2.307 . S
O585 C600 1.266 . S
O586 Dy576 2.298 . S
O586 C600 1.236 . S
O587 Dy577 2.395 . S
O587 C607 1.255 . S
O588 Dy577 2.373 1_565 S
O588 C607 1.244 1_565 S
C589 O579 1.266 . S
C589 O580 1.236 . S
O590 Dy576 2.275 . S
O590 C578 1.254 . S
O591 Dy577 2.339 . S
O591 C578 1.257 . S
C592 C595 1.344 . S
C592 C596 1.328 . S
C592 C598 1.516 . S
C593 C594 1.304 . S
C593 C597 1.323 . S
C594 C593 1.304 . S
C594 C595 1.371 . S
C594 H608 0.930 . S
C595 C592 1.344 . S
C595 C594 1.371 . S
C595 H609 0.931 . S
C596 C592 1.328 . S
C596 C597 1.433 . S
C596 H610 0.931 . S
C597 C593 1.323 . S
C597 C596 1.433 . S
C597 H611 0.933 . S
C598 Dy576 2.738 1_556 S
C598 O581 1.255 . S
C598 O582 1.249 . S
C598 C592 1.516 . S
C599 O583 1.254 . S
C599 O584 1.257 . S
C600 O585 1.266 . S
C600 O586 1.236 . S
C601 C604 1.344 . S
C601 C605 1.328 1_545 S
C601 C607 1.516 . S
C602 C603 1.304 1_565 S
C602 C606 1.323 . S
C603 C602 1.304 1_545 S
C603 C604 1.371 . S
C603 H612 0.930 . S
C604 C601 1.344 . S
C604 C603 1.371 . S
C604 H613 0.931 . S
C605 C601 1.328 1_565 S
C605 C606 1.433 . S
C605 H614 0.931 . S
C606 C602 1.323 . S
C606 C605 1.433 . S
C606 H615 0.933 . S
C607 Dy577 2.738 . S
C607 O587 1.255 . S
C607 O588 1.244 1_545 S
C607 C601 1.516 . S
H608 C594 0.930 . S
H609 C595 0.931 . S
H610 C596 0.931 . S
H611 C597 0.933 . S
H612 C603 0.930 . S
H613 C604 0.931 . S
H614 C605 0.931 . S
H615 C606 0.933 . S
Dy616 O619 2.307 . S
Dy616 O621 2.395 . S
Dy616 O622 2.379 . S
Dy616 O624 2.339 . S
Dy616 O626 2.298 . S
Dy616 O630 2.275 . S
Dy616 C638 2.738 . S
Dy617 O620 2.298 . S
Dy617 O623 2.275 . S
Dy617 O625 2.307 . S
Dy617 O627 2.395 . S
Dy617 O628 2.379 . S
Dy617 O631 2.339 . S
Dy617 C647 2.738 . S
C618 O630 1.254 . S
C618 O631 1.257 . S
O619 Dy616 2.307 . S
O619 C629 1.266 . S
O620 Dy617 2.298 . S
O620 C629 1.236 . S
O621 Dy616 2.395 . S
O621 C638 1.255 . S
O622 Dy616 2.379 . S
O622 C638 1.249 . S
O623 Dy617 2.275 . S
O623 C639 1.254 . S
O624 Dy616 2.339 . S
O624 C639 1.257 . S
O625 Dy617 2.307 . S
O625 C640 1.266 . S
O626 Dy616 2.298 . S
O626 C640 1.236 . S
O627 Dy617 2.395 . S
O627 C647 1.255 . S
O628 Dy617 2.379 . S
O628 C647 1.249 . S
C629 O619 1.266 . S
C629 O620 1.236 . S
O630 Dy616 2.275 . S
O630 C618 1.254 . S
O631 Dy617 2.339 . S
O631 C618 1.257 . S
C632 C635 1.344 . S
C632 C636 1.328 . S
C632 C638 1.516 . S
C633 C634 1.304 . S
C633 C637 1.323 . S
C634 C633 1.304 . S
C634 C635 1.371 . S
C634 H648 0.930 . S
C635 C632 1.344 . S
C635 C634 1.371 . S
C635 H649 0.931 . S
C636 C632 1.328 . S
C636 C637 1.433 . S
C636 H650 0.931 . S
C637 C633 1.323 . S
C637 C636 1.433 . S
C637 H651 0.933 . S
C638 Dy616 2.738 . S
C638 O621 1.255 . S
C638 O622 1.249 . S
C638 C632 1.516 . S
C639 O623 1.254 . S
C639 O624 1.257 . S
C640 O625 1.266 . S
C640 O626 1.236 . S
C641 C644 1.344 . S
C641 C645 1.328 . S
C641 C647 1.516 . S
C642 C643 1.304 . S
C642 C646 1.323 . S
C643 C642 1.304 . S
C643 C644 1.371 . S
C643 H652 0.930 . S
C644 C641 1.344 . S
C644 C643 1.371 . S
C644 H653 0.931 . S
C645 C641 1.328 . S
C645 C646 1.433 . S
C645 H654 0.931 . S
C646 C642 1.323 . S
C646 C645 1.433 . S
C646 H655 0.933 . S
C647 Dy617 2.738 . S
C647 O627 1.255 . S
C647 O628 1.249 . S
C647 C641 1.516 . S
H648 C634 0.930 . S
H649 C635 0.931 . S
H650 C636 0.931 . S
H651 C637 0.933 . S
H652 C643 0.930 . S
H653 C644 0.931 . S
H654 C645 0.931 . S
H655 C646 0.933 . S
Dy656 O659 2.307 1_554 S
Dy656 O661 2.395 . S
Dy656 O662 2.379 . S
Dy656 O664 2.339 . S
Dy656 O666 2.298 . S
Dy656 O670 2.275 . S
Dy656 C678 2.738 . S
Dy657 O660 2.298 1_554 S
Dy657 O663 2.275 . S
Dy657 O665 2.307 . S
Dy657 O667 2.395 . S
Dy657 O668 2.379 . S
Dy657 O671 2.339 . S
Dy657 C687 2.738 . S
C658 O670 1.254 . S
C658 O671 1.257 . S
O659 Dy656 2.307 1_556 S
O659 C669 1.266 . S
O660 Dy657 2.298 1_556 S
O660 C669 1.236 . S
O661 Dy656 2.395 . S
O661 C678 1.255 . S
O662 Dy656 2.379 . S
O662 C678 1.249 . S
O663 Dy657 2.275 . S
O663 C679 1.254 . S
O664 Dy656 2.339 . S
O664 C679 1.257 . S
O665 Dy657 2.307 . S
O665 C680 1.266 . S
O666 Dy656 2.298 . S
O666 C680 1.236 . S
O667 Dy657 2.395 . S
O667 C687 1.255 . S
O668 Dy657 2.379 . S
O668 C687 1.249 . S
C669 O659 1.266 . S
C669 O660 1.236 . S
O670 Dy656 2.275 . S
O670 C658 1.254 . S
O671 Dy657 2.339 . S
O671 C658 1.257 . S
C672 C675 1.344 . S
C672 C676 1.328 . S
C672 C678 1.516 . S
C673 C674 1.304 . S
C673 C677 1.323 . S
C674 C673 1.304 . S
C674 C675 1.371 . S
C674 H688 0.930 . S
C675 C672 1.344 . S
C675 C674 1.371 . S
C675 H689 0.931 . S
C676 C672 1.328 . S
C676 C677 1.433 . S
C676 H690 0.931 . S
C677 C673 1.323 . S
C677 C676 1.433 . S
C677 H691 0.933 . S
C678 Dy656 2.738 . S
C678 O661 1.255 . S
C678 O662 1.249 . S
C678 C672 1.516 . S
C679 O663 1.254 . S
C679 O664 1.257 . S
C680 O665 1.266 . S
C680 O666 1.236 . S
C681 C684 1.344 . S
C681 C685 1.328 . S
C681 C687 1.516 1_556 S
C682 C683 1.304 . S
C682 C686 1.323 . S
C683 C682 1.304 . S
C683 C684 1.371 . S
C683 H692 0.930 . S
C684 C681 1.344 . S
C684 C683 1.371 . S
C684 H693 0.931 . S
C685 C681 1.328 . S
C685 C686 1.433 . S
C685 H694 0.931 . S
C686 C682 1.323 . S
C686 C685 1.433 . S
C686 H695 0.933 . S
C687 Dy657 2.738 . S
C687 O667 1.255 . S
C687 O668 1.249 . S
C687 C681 1.516 1_554 S
H688 C674 0.930 . S
H689 C675 0.931 . S
H690 C676 0.931 . S
H691 C677 0.933 . S
H692 C683 0.930 . S
H693 C684 0.931 . S
H694 C685 0.931 . S
H695 C686 0.933 . S
Dy696 O699 2.307 . S
Dy696 O701 2.395 . S
Dy696 O702 2.379 . S
Dy696 O704 2.339 . S
Dy696 O706 2.298 . S
Dy696 O710 2.275 . S
Dy696 C718 2.738 . S
Dy697 O700 2.298 . S
Dy697 O703 2.275 . S
Dy697 O705 2.307 . S
Dy697 O707 2.395 . S
Dy697 O708 2.379 . S
Dy697 O711 2.339 . S
Dy697 C727 2.738 . S
C698 O710 1.254 . S
C698 O711 1.257 . S
O699 Dy696 2.307 . S
O699 C709 1.266 . S
O700 Dy697 2.298 . S
O700 C709 1.236 . S
O701 Dy696 2.395 . S
O701 C718 1.255 . S
O702 Dy696 2.379 . S
O702 C718 1.249 . S
O703 Dy697 2.275 . S
O703 C719 1.254 . S
O704 Dy696 2.339 . S
O704 C719 1.257 . S
O705 Dy697 2.307 . S
O705 C720 1.266 . S
O706 Dy696 2.298 . S
O706 C720 1.236 . S
O707 Dy697 2.395 . S
O707 C727 1.255 . S
O708 Dy697 2.379 . S
O708 C727 1.249 . S
C709 O699 1.266 . S
C709 O700 1.236 . S
O710 Dy696 2.275 . S
O710 C698 1.254 . S
O711 Dy697 2.339 . S
O711 C698 1.257 . S
C712 C715 1.344 . S
C712 C716 1.328 . S
C712 C718 1.516 . S
C713 C714 1.304 . S
C713 C717 1.323 . S
C714 C713 1.304 . S
C714 C715 1.371 . S
C714 H728 0.930 . S
C715 C712 1.344 . S
C715 C714 1.371 . S
C715 H729 0.931 . S
C716 C712 1.328 . S
C716 C717 1.433 . S
C716 H730 0.931 . S
C717 C713 1.323 . S
C717 C716 1.433 . S
C717 H731 0.933 . S
C718 Dy696 2.738 . S
C718 O701 1.255 . S
C718 O702 1.249 . S
C718 C712 1.516 . S
C719 O703 1.254 . S
C719 O704 1.257 . S
C720 O705 1.266 . S
C720 O706 1.236 . S
C721 C724 1.344 . S
C721 C725 1.328 . S
C721 C727 1.516 . S
C722 C723 1.304 . S
C722 C726 1.323 . S
C723 C722 1.304 . S
C723 C724 1.371 . S
C723 H732 0.930 . S
C724 C721 1.344 . S
C724 C723 1.371 . S
C724 H733 0.931 . S
C725 C721 1.328 . S
C725 C726 1.433 . S
C725 H734 0.931 . S
C726 C722 1.323 . S
C726 C725 1.433 . S
C726 H735 0.933 . S
C727 Dy697 2.738 . S
C727 O707 1.255 . S
C727 O708 1.249 . S
C727 C721 1.516 . S
H728 C714 0.930 . S
H729 C715 0.931 . S
H730 C716 0.931 . S
H731 C717 0.933 . S
H732 C723 0.930 . S
H733 C724 0.931 . S
H734 C725 0.931 . S
H735 C726 0.933 . S
Dy736 O739 2.307 1_455 S
Dy736 O741 2.395 . S
Dy736 O742 2.379 . S
Dy736 O744 2.339 . S
Dy736 O746 2.298 . S
Dy736 O750 2.275 . S
Dy736 C758 2.738 . S
Dy737 O740 2.298 1_455 S
Dy737 O743 2.275 . S
Dy737 O745 2.307 . S
Dy737 O747 2.395 . S
Dy737 O748 2.379 . S
Dy737 O751 2.339 . S
Dy737 C767 2.751 . S
C738 O750 1.254 . S
C738 O751 1.257 . S
O739 Dy736 2.307 1_655 S
O739 C749 1.266 . S
O740 Dy737 2.298 1_655 S
O740 C749 1.236 . S
O741 Dy736 2.395 . S
O741 C758 1.255 . S
O742 Dy736 2.379 . S
O742 C758 1.249 . S
O743 Dy737 2.275 . S
O743 C759 1.254 . S
O744 Dy736 2.339 . S
O744 C759 1.257 . S
O745 Dy737 2.307 . S
O745 C760 1.266 . S
O746 Dy736 2.298 . S
O746 C760 1.236 . S
O747 Dy737 2.395 . S
O747 C767 1.252 . S
O748 Dy737 2.379 . S
O748 C767 1.265 . S
C749 O739 1.266 . S
C749 O740 1.236 . S
O750 Dy736 2.275 . S
O750 C738 1.254 . S
O751 Dy737 2.339 . S
O751 C738 1.257 . S
C752 C755 1.344 . S
C752 C756 1.328 . S
C752 C758 1.516 . S
C753 C754 1.304 . S
C753 C757 1.323 . S
C754 C753 1.304 . S
C754 C755 1.371 . S
C754 H768 0.930 . S
C755 C752 1.344 . S
C755 C754 1.371 . S
C755 H769 0.931 . S
C756 C752 1.328 . S
C756 C757 1.433 . S
C756 H770 0.931 . S
C757 C753 1.323 . S
C757 C756 1.433 . S
C757 H771 0.933 . S
C758 Dy736 2.738 . S
C758 O741 1.255 . S
C758 O742 1.249 . S
C758 C752 1.516 . S
C759 O743 1.254 . S
C759 O744 1.257 . S
C760 O745 1.266 . S
C760 O746 1.236 . S
C761 C764 1.344 . S
C761 C765 1.328 . S
C761 C767 1.503 1_655 S
C762 C763 1.304 . S
C762 C766 1.323 . S
C763 C762 1.304 . S
C763 C764 1.371 . S
C763 H772 0.930 . S
C764 C761 1.344 . S
C764 C763 1.371 . S
C764 H773 0.931 . S
C765 C761 1.328 . S
C765 C766 1.433 . S
C765 H774 0.931 . S
C766 C762 1.323 . S
C766 C765 1.433 . S
C766 H775 0.933 . S
C767 Dy737 2.751 . S
C767 O747 1.252 . S
C767 O748 1.265 . S
C767 C761 1.503 1_455 S
H768 C754 0.930 . S
H769 C755 0.931 . S
H770 C756 0.931 . S
H771 C757 0.933 . S
H772 C763 0.930 . S
H773 C764 0.931 . S
H774 C765 0.931 . S
H775 C766 0.933 . S
Dy776 O779 2.307 . S
Dy776 O781 2.395 . S
Dy776 O782 2.379 . S
Dy776 O784 2.339 . S
Dy776 O786 2.298 . S
Dy776 O790 2.275 . S
Dy776 C798 2.738 . S
Dy777 O780 2.298 . S
Dy777 O783 2.275 . S
Dy777 O785 2.307 . S
Dy777 O787 2.395 . S
Dy777 O788 2.379 . S
Dy777 O791 2.339 . S
Dy777 C807 2.738 . S
C778 O790 1.254 . S
C778 O791 1.257 . S
O779 Dy776 2.307 . S
O779 C789 1.266 . S
O780 Dy777 2.298 . S
O780 C789 1.236 . S
O781 Dy776 2.395 . S
O781 C798 1.255 . S
O782 Dy776 2.379 . S
O782 C798 1.249 . S
O783 Dy777 2.275 . S
O783 C799 1.254 . S
O784 Dy776 2.339 . S
O784 C799 1.257 . S
O785 Dy777 2.307 . S
O785 C800 1.266 . S
O786 Dy776 2.298 . S
O786 C800 1.236 . S
O787 Dy777 2.395 . S
O787 C807 1.255 . S
O788 Dy777 2.379 . S
O788 C807 1.249 . S
C789 O779 1.266 . S
C789 O780 1.236 . S
O790 Dy776 2.275 . S
O790 C778 1.254 . S
O791 Dy777 2.339 . S
O791 C778 1.257 . S
C792 C795 1.344 . S
C792 C796 1.328 . S
C792 C798 1.516 . S
C793 C794 1.304 . S
C793 C797 1.323 1_455 S
C794 C793 1.304 . S
C794 C795 1.371 1_455 S
C794 H808 0.930 . S
C795 C792 1.344 . S
C795 C794 1.371 1_655 S
C795 H809 0.931 . S
C796 C792 1.328 . S
C796 C797 1.433 . S
C796 H810 0.931 . S
C797 C793 1.323 1_655 S
C797 C796 1.433 . S
C797 H811 0.922 1_655 S
C798 Dy776 2.738 . S
C798 O781 1.255 . S
C798 O782 1.249 . S
C798 C792 1.516 . S
C799 O783 1.254 . S
C799 O784 1.257 . S
C800 O785 1.266 . S
C800 O786 1.236 . S
C801 C804 1.344 . S
C801 C805 1.328 . S
C801 C807 1.516 . S
C802 C803 1.304 . S
C802 C806 1.323 . S
C803 C802 1.304 . S
C803 C804 1.371 . S
C803 H812 0.930 . S
C804 C801 1.344 . S
C804 C803 1.371 . S
C804 H813 0.931 . S
C805 C801 1.328 . S
C805 C806 1.433 . S
C805 H814 0.931 . S
C806 C802 1.323 . S
C806 C805 1.433 . S
C806 H815 0.933 . S
C807 Dy777 2.738 . S
C807 O787 1.255 . S
C807 O788 1.249 . S
C807 C801 1.516 . S
H808 C794 0.930 . S
H809 C795 0.931 . S
H810 C796 0.931 . S
H811 C797 0.922 1_455 S
H812 C803 0.930 . S
H813 C804 0.931 . S
H814 C805 0.931 . S
H815 C806 0.933 . S
Dy816 O819 2.307 . S
Dy816 O821 2.395 . S
Dy816 O822 2.379 . S
Dy816 O824 2.339 . S
Dy816 O826 2.298 . S
Dy816 O830 2.275 . S
Dy816 C838 2.738 . S
Dy817 O820 2.298 . S
Dy817 O823 2.275 . S
Dy817 O825 2.307 . S
Dy817 O827 2.395 . S
Dy817 O828 2.379 . S
Dy817 O831 2.339 . S
Dy817 C847 2.738 . S
C818 O830 1.254 . S
C818 O831 1.257 . S
O819 Dy816 2.307 . S
O819 C829 1.266 . S
O820 Dy817 2.298 . S
O820 C829 1.236 . S
O821 Dy816 2.395 . S
O821 C838 1.255 . S
O822 Dy816 2.379 . S
O822 C838 1.249 . S
O823 Dy817 2.275 . S
O823 C839 1.254 . S
O824 Dy816 2.339 . S
O824 C839 1.257 . S
O825 Dy817 2.307 . S
O825 C840 1.266 . S
O826 Dy816 2.298 . S
O826 C840 1.236 . S
O827 Dy817 2.395 . S
O827 C847 1.255 . S
O828 Dy817 2.379 . S
O828 C847 1.249 . S
C829 O819 1.266 . S
C829 O820 1.236 . S
O830 Dy816 2.275 . S
O830 C818 1.254 . S
O831 Dy817 2.339 . S
O831 C818 1.257 . S
C832 C835 1.344 . S
C832 C836 1.328 . S
C832 C838 1.516 . S
C833 C834 1.304 . S
C833 C837 1.323 . S
C834 C833 1.304 . S
C834 C835 1.371 . S
C834 H848 0.930 . S
C835 C832 1.344 . S
C835 C834 1.371 . S
C835 H849 0.931 . S
C836 C832 1.328 . S
C836 C837 1.433 . S
C836 H850 0.931 . S
C837 C833 1.323 . S
C837 C836 1.433 . S
C837 H851 0.933 . S
C838 Dy816 2.738 . S
C838 O821 1.255 . S
C838 O822 1.249 . S
C838 C832 1.516 . S
C839 O823 1.254 . S
C839 O824 1.257 . S
C840 O825 1.266 . S
C840 O826 1.236 . S
C841 C844 1.344 . S
C841 C845 1.328 1_556 S
C841 C847 1.516 . S
C842 C843 1.304 . S
C842 C846 1.323 . S
C843 C842 1.304 . S
C843 C844 1.371 1_554 S
C843 H852 0.930 . S
C844 C841 1.344 . S
C844 C843 1.371 1_556 S
C844 H853 0.931 . S
C845 C841 1.328 1_554 S
C845 C846 1.433 . S
C845 H854 0.931 . S
C846 C842 1.323 . S
C846 C845 1.433 . S
C846 H855 0.933 . S
C847 Dy817 2.738 . S
C847 O827 1.255 . S
C847 O828 1.249 . S
C847 C841 1.516 . S
H848 C834 0.930 . S
H849 C835 0.931 . S
H850 C836 0.931 . S
H851 C837 0.933 . S
H852 C843 0.930 . S
H853 C844 0.931 . S
H854 C845 0.931 . S
H855 C846 0.933 . S
Dy856 O859 2.307 . S
Dy856 O861 2.395 . S
Dy856 O862 2.379 . S
Dy856 O864 2.339 . S
Dy856 O866 2.298 . S
Dy856 O870 2.275 . S
Dy856 C878 2.738 . S
Dy857 O860 2.298 . S
Dy857 O863 2.275 . S
Dy857 O865 2.307 . S
Dy857 O867 2.395 . S
Dy857 O868 2.379 . S
Dy857 O871 2.339 . S
Dy857 C887 2.738 . S
C858 O870 1.254 . S
C858 O871 1.257 . S
O859 Dy856 2.307 . S
O859 C869 1.266 . S
O860 Dy857 2.298 . S
O860 C869 1.236 . S
O861 Dy856 2.395 . S
O861 C878 1.255 . S
O862 Dy856 2.379 . S
O862 C878 1.249 . S
O863 Dy857 2.275 . S
O863 C879 1.254 . S
O864 Dy856 2.339 . S
O864 C879 1.257 . S
O865 Dy857 2.307 . S
O865 C880 1.266 . S
O866 Dy856 2.298 . S
O866 C880 1.236 . S
O867 Dy857 2.395 . S
O867 C887 1.255 . S
O868 Dy857 2.379 . S
O868 C887 1.249 . S
C869 O859 1.266 . S
C869 O860 1.236 . S
O870 Dy856 2.275 . S
O870 C858 1.254 . S
O871 Dy857 2.339 . S
O871 C858 1.257 . S
C872 C875 1.344 . S
C872 C876 1.328 . S
C872 C878 1.516 . S
C873 C874 1.304 . S
C873 C877 1.323 . S
C874 C873 1.304 . S
C874 C875 1.371 . S
C874 H888 0.930 . S
C875 C872 1.344 . S
C875 C874 1.371 . S
C875 H889 0.931 . S
C876 C872 1.328 . S
C876 C877 1.433 . S
C876 H890 0.931 . S
C877 C873 1.323 . S
C877 C876 1.433 . S
C877 H891 0.933 . S
C878 Dy856 2.738 . S
C878 O861 1.255 . S
C878 O862 1.249 . S
C878 C872 1.516 . S
C879 O863 1.254 . S
C879 O864 1.257 . S
C880 O865 1.266 . S
C880 O866 1.236 . S
C881 C884 1.344 . S
C881 C885 1.328 . S
C881 C887 1.516 1_545 S
C882 C883 1.304 . S
C882 C886 1.323 . S
C883 C882 1.304 . S
C883 C884 1.371 . S
C883 H892 0.930 . S
C884 C881 1.344 . S
C884 C883 1.371 . S
C884 H893 0.931 . S
C885 C881 1.328 . S
C885 C886 1.433 . S
C885 H894 0.931 . S
C886 C882 1.323 . S
C886 C885 1.433 . S
C886 H895 0.933 . S
C887 Dy857 2.738 . S
C887 O867 1.255 . S
C887 O868 1.249 . S
C887 C881 1.516 1_565 S
H888 C874 0.930 . S
H889 C875 0.931 . S
H890 C876 0.931 . S
H891 C877 0.933 . S
H892 C883 0.930 . S
H893 C884 0.931 . S
H894 C885 0.931 . S
H895 C886 0.933 . S
Dy896 O899 2.307 . S
Dy896 O901 2.395 . S
Dy896 O902 2.379 . S
Dy896 O904 2.339 . S
Dy896 O906 2.298 . S
Dy896 O910 2.275 . S
Dy896 C918 2.738 . S
Dy897 O900 2.298 . S
Dy897 O903 2.275 . S
Dy897 O905 2.307 . S
Dy897 O907 2.395 . S
Dy897 O908 2.379 . S
Dy897 O911 2.339 . S
Dy897 C927 2.738 . S
C898 O910 1.254 . S
C898 O911 1.257 . S
O899 Dy896 2.307 . S
O899 C909 1.266 . S
O900 Dy897 2.298 . S
O900 C909 1.236 . S
O901 Dy896 2.395 . S
O901 C918 1.255 . S
O902 Dy896 2.379 . S
O902 C918 1.249 . S
O903 Dy897 2.275 . S
O903 C919 1.254 . S
O904 Dy896 2.339 . S
O904 C919 1.257 . S
O905 Dy897 2.307 . S
O905 C920 1.266 . S
O906 Dy896 2.298 . S
O906 C920 1.236 . S
O907 Dy897 2.395 . S
O907 C927 1.255 . S
O908 Dy897 2.379 . S
O908 C927 1.249 . S
C909 O899 1.266 . S
C909 O900 1.236 . S
O910 Dy896 2.275 . S
O910 C898 1.254 . S
O911 Dy897 2.339 . S
O911 C898 1.257 . S
C912 C915 1.344 . S
C912 C916 1.328 . S
C912 C918 1.516 . S
C913 C914 1.304 . S
C913 C917 1.323 . S
C914 C913 1.304 . S
C914 C915 1.371 . S
C914 H928 0.930 . S
C915 C912 1.344 . S
C915 C914 1.371 . S
C915 H929 0.931 . S
C916 C912 1.328 . S
C916 C917 1.433 . S
C916 H930 0.931 . S
C917 C913 1.323 . S
C917 C916 1.433 . S
C917 H931 0.933 . S
C918 Dy896 2.738 . S
C918 O901 1.255 . S
C918 O902 1.249 . S
C918 C912 1.516 . S
C919 O903 1.254 . S
C919 O904 1.257 . S
C920 O905 1.266 . S
C920 O906 1.236 . S
C921 C924 1.344 . S
C921 C925 1.328 . S
C921 C927 1.516 . S
C922 C923 1.304 . S
C922 C926 1.323 . S
C923 C922 1.304 . S
C923 C924 1.371 . S
C923 H932 0.930 . S
C924 C921 1.344 . S
C924 C923 1.371 . S
C924 H933 0.931 . S
C925 C921 1.328 . S
C925 C926 1.433 . S
C925 H934 0.931 . S
C926 C922 1.323 . S
C926 C925 1.433 . S
C926 H935 0.933 . S
C927 Dy897 2.738 . S
C927 O907 1.255 . S
C927 O908 1.249 . S
C927 C921 1.516 . S
H928 C914 0.930 . S
H929 C915 0.931 . S
H930 C916 0.931 . S
H931 C917 0.933 . S
H932 C923 0.930 . S
H933 C924 0.931 . S
H934 C925 0.931 . S
H935 C926 0.933 . S
Dy936 O939 2.307 . S
Dy936 O941 2.395 1_455 S
Dy936 O942 2.379 1_455 S
Dy936 O944 2.339 . S
Dy936 O946 2.298 . S
Dy936 O950 2.275 . S
Dy936 C958 2.738 1_455 S
Dy937 O940 2.298 . S
Dy937 O943 2.275 . S
Dy937 O945 2.307 . S
Dy937 O947 2.395 . S
Dy937 O948 2.379 1_554 S
Dy937 O951 2.339 1_554 S
Dy937 C967 2.738 . S
C938 O950 1.254 1_556 S
C938 O951 1.257 . S
O939 Dy936 2.307 . S
O939 C949 1.266 . S
O940 Dy937 2.298 . S
O940 C949 1.236 . S
O941 Dy936 2.395 1_655 S
O941 C958 1.255 . S
O942 Dy936 2.379 1_655 S
O942 C958 1.249 . S
O943 Dy937 2.275 . S
O943 C959 1.254 . S
O944 Dy936 2.339 . S
O944 C959 1.257 . S
O945 Dy937 2.307 . S
O945 C960 1.266 . S
O946 Dy936 2.298 . S
O946 C960 1.236 . S
O947 Dy937 2.395 . S
O947 C967 1.255 . S
O948 Dy937 2.379 1_556 S
O948 C967 1.249 1_556 S
C949 O939 1.266 . S
C949 O940 1.236 . S
O950 Dy936 2.275 . S
O950 C938 1.254 1_554 S
O951 Dy937 2.339 1_556 S
O951 C938 1.257 . S
C952 C955 1.344 . S
C952 C956 1.328 . S
C952 C958 1.516 . S
C953 C954 1.304 . S
C953 C957 1.323 . S
C954 C953 1.304 . S
C954 C955 1.371 . S
C954 H968 0.930 . S
C955 C952 1.344 . S
C955 C954 1.371 . S
C955 H969 0.931 . S
C956 C952 1.328 . S
C956 C957 1.433 . S
C956 H970 0.931 . S
C957 C953 1.323 . S
C957 C956 1.433 . S
C957 H971 0.933 . S
C958 Dy936 2.738 1_655 S
C958 O941 1.255 . S
C958 O942 1.249 . S
C958 C952 1.516 . S
C959 O943 1.254 . S
C959 O944 1.257 . S
C960 O945 1.266 . S
C960 O946 1.236 . S
C961 C964 1.344 . S
C961 C965 1.328 1_554 S
C961 C967 1.516 . S
C962 C963 1.304 1_556 S
C962 C966 1.323 . S
C963 C962 1.304 1_554 S
C963 C964 1.371 . S
C963 H972 0.930 . S
C964 C961 1.344 . S
C964 C963 1.371 . S
C964 H973 0.931 . S
C965 C961 1.328 1_556 S
C965 C966 1.433 . S
C965 H974 0.931 . S
C966 C962 1.323 . S
C966 C965 1.433 . S
C966 H975 0.933 . S
C967 Dy937 2.738 . S
C967 O947 1.255 . S
C967 O948 1.249 1_554 S
C967 C961 1.516 . S
H968 C954 0.930 . S
H969 C955 0.931 . S
H970 C956 0.931 . S
H971 C957 0.933 . S
H972 C963 0.930 . S
H973 C964 0.931 . S
H974 C965 0.931 . S
H975 C966 0.933 . S
C109 C349 3.853 1_655 S
C65 C400 3.180 . S
C75 C429 2.535 . S
C473 C84 1.992 . S
C25 C513 2.042 . S
C549 C28 2.407 . S
C599 C47 3.144 . S
C9 C629 3.974 . S
C359 C233 3.339 . S
C249 C402 1.255 . S
C439 C275 2.281 . S
C469 C173 1.750 . S
C224 C509 1.958 . S
C559 C243 2.063 . S
C593 C266 1.124 . S
C639 C179 3.012 . S
C353 C163 3.034 1_554 S
C289 C679 2.723 . S
C713 C333 2.537 . S
C749 C308 0.995 . S
C123 C633 3.226 . S
C126 C433 2.456 . S
C327 C799 2.666 . S
C818 C299 0.486 . S
C360 C67 3.912 1_545 S
C829 C98 2.872 . S
C89 C440 2.595 . S
C79 C802 2.279 . S
C522 C11 2.086 . S
C51 C720 2.449 . S
C578 C33 3.241 1_544 S
C880 C14 4.052 . S
C338 C140 3.404 . S
C833 C319 1.290 . S
C112 C418 2.135 . S
C285 C800 1.765 . S
C149 C520 1.980 . S
C698 C313 1.907 . S
C121 C602 1.166 . S
C291 C858 3.117 . S
C182 C362 3.447 . S
C168 C658 2.496 . S
C263 C562 2.557 . S
C247 C760 0.825 . S
C882 C277 3.304 . S
C219 C442 2.536 . S
C458 C257 2.703 . S
C399 C201 0.368 . S
C81 C909 3.815 . S
C840 C93 3.108 . S
C103 C949 2.581 . S
C56 C793 1.981 . S
C53 C673 2.025 . S
C709 C0 2.442 . S
C759 C19 3.181 . S
C869 C37 3.967 . S
C919 C261 3.320 . S
C193 C842 1.207 . S
C959 C205 2.375 . S
C789 C215 1.730 . S
C669 C252 1.950 . S
C187 C719 1.990 . S
C753 C196 1.155 . S
C221 C879 3.018 . S
C913 C317 3.285 . S
C135 C519 2.725 . S
C553 C151 2.439 . S
C589 C154 0.796 . S
C873 C305 3.165 . S
C280 C953 2.449 . S
C479 C145 2.666 . S
C378 C117 0.572 . S
C95 C920 3.908 . S
C389 C70 2.966 . S
C61 C960 2.604 . S
C107 C482 2.231 . S
C39 C682 2.092 . S
C560 C23 2.486 . S
C5 C738 3.217 . S
C42 C640 4.045 . S
C898 C322 3.384 . S
C165 C393 1.401 . S
C938 C294 2.170 1_455 S
C131 C480 1.744 . S
C331 C680 1.981 . S
C538 C159 1.994 . S
C303 C762 1.176 . S
C618 C137 3.096 . S
C922 C238 3.336 . S
C498 C210 2.491 1_545 S
C235 C722 2.508 . S
C600 C191 0.756 . S
C207 C642 3.266 . S
C177 C962 2.587 1_554 S
C778 C229 2.702 . S
C839 C271 0.490 . S
