# Generated by pormake.
# Topology ftw, (4,12)-cn, num edge types: 1
# Building blocks:
#     Node 0, Type 0, BuildingBlock: ESEHIV_clean_sbu_0, # of connection points: 4
#     Node 1, Type 0, BuildingBlock: ESEHIV_clean_sbu_0, # of connection points: 4
#     Node 2, Type 0, BuildingBlock: ESEHIV_clean_sbu_0, # of connection points: 4
#     Node 3, Type 1, BuildingBlock: EZIPEK_clean_sbu_0, # of connection points: 12
#     Edge 4, Type (0, 1), BuildingBlock: MIFKUJ_clean_linker_0, # of connection points: 2
#     Edge 5, Type (0, 1), BuildingBlock: MIFKUJ_clean_linker_0, # of connection points: 2
#     Edge 6, Type (0, 1), BuildingBlock: MIFKUJ_clean_linker_0, # of connection points: 2
#     Edge 7, Type (0, 1), BuildingBlock: MIFKUJ_clean_linker_0, # of connection points: 2
#     Edge 8, Type (0, 1), BuildingBlock: MIFKUJ_clean_linker_0, # of connection points: 2
#     Edge 9, Type (0, 1), BuildingBlock: MIFKUJ_clean_linker_0, # of connection points: 2
#     Edge 10, Type (0, 1), BuildingBlock: MIFKUJ_clean_linker_0, # of connection points: 2
#     Edge 11, Type (0, 1), BuildingBlock: MIFKUJ_clean_linker_0, # of connection points: 2
#     Edge 12, Type (0, 1), BuildingBlock: MIFKUJ_clean_linker_0, # of connection points: 2
#     Edge 13, Type (0, 1), BuildingBlock: MIFKUJ_clean_linker_0, # of connection points: 2
#     Edge 14, Type (0, 1), BuildingBlock: MIFKUJ_clean_linker_0, # of connection points: 2
#     Edge 15, Type (0, 1), BuildingBlock: MIFKUJ_clean_linker_0, # of connection points: 2
# Relax obj value: 0.024
# Max RMSD: 0.144
# Mean RMSD: 0.113
data_MOF--net-ftw--node1-ESEHIV_clean_sbu_0--node2-EZIPEK_clean_sbu_0--edge1-MIFKUJ_clean_linker_0
_symmetry_space_group_name_H-M    P1
_symmetry_Int_Tables_number       1
_symmetry_cell_setting            triclinic
loop_
_symmetry_equiv_pos_as_xyz
'x, y, z'
_cell_length_a     31.512982
_cell_length_b     31.110197
_cell_length_c     30.494624
_cell_angle_alpha  87.300691
_cell_angle_beta   87.069893
_cell_angle_gamma 92.678676
loop_
_atom_site_label
_atom_site_type_symbol
_atom_site_fract_x
_atom_site_fract_y
_atom_site_fract_z
_atom_type_partial_charge
Cu0 Cu 0.97462 0.50645 0.50478 0.0
N1 N 0.93944 0.47446 0.46984 0.0
N2 N 0.92331 0.42582 0.42094 0.0
C3 C 0.94733 0.43539 0.45492 0.0
C4 C 0.89923 0.46003 0.41446 0.0
C5 C 0.90942 0.49003 0.44445 0.0
O6 O 1.00607 0.46682 0.5408 0.0
C7 C 0.02371 0.58194 0.47065 0.0
O8 O 1.02112 0.59495 0.51096 0.0
H9 H 0.97321 0.41645 0.46563 0.0
H10 H 0.89876 0.52253 0.44467 0.0
N11 N 0.943 0.5404 0.54232 0.0
N12 N 0.9294 0.58496 0.59616 0.0
C13 C 0.95802 0.55954 0.57746 0.0
C14 C 0.903 0.55323 0.53936 0.0
C15 C 0.8946 0.58091 0.57238 0.0
C16 C 0.98522 0.44837 0.57394 0.0
O17 O 0.94496 0.45651 0.58086 0.0
H18 H 0.99018 0.55651 0.58766 0.0
H19 H 0.88159 0.54398 0.51457 0.0
O20 O 1.00958 0.54415 0.46305 0.0
H21 H 0.87804 0.46433 0.38792 0.0
H22 H 0.86541 0.59731 0.57794 0.0
Cu23 Cu 0.53746 0.05566 0.49895 0.0
N24 N 0.57638 0.08773 0.53036 0.0
N25 N 0.62714 0.09917 0.57776 0.0
C26 C 0.60797 0.07046 0.55242 0.0
C27 C 0.607 0.13608 0.57119 0.0
C28 C 0.5758 0.12898 0.54182 0.0
O29 O 0.57134 0.01871 0.46212 0.0
C30 C 0.47849 0.0504 0.56751 0.0
O31 O 0.48643 0.09212 0.56135 0.0
H32 H 0.61501 0.03675 0.55194 0.0
H33 H 0.55287 0.15167 0.53155 0.0
N34 N 0.50411 0.08963 0.46312 0.0
N35 N 0.45455 0.10428 0.41537 0.0
C36 C 0.46935 0.07459 0.44366 0.0
C37 C 0.51128 0.13052 0.44697 0.0
C38 C 0.48086 0.13955 0.41727 0.0
C39 C 0.58499 0.03407 0.42422 0.0
O40 O 0.57401 0.07247 0.41085 0.0
H41 H 0.45659 0.04168 0.44838 0.0
H42 H 0.53802 0.1515 0.45434 0.0
O43 O 0.49788 0.02528 0.54236 0.0
H44 H 0.61357 0.1657 0.5874 0.0
H45 H 0.47889 0.16932 0.39779 0.0
Cu46 Cu 0.5325 0.51001 0.98214 0.0
N47 N 0.50149 0.547 0.94698 0.0
N48 N 0.45463 0.59668 0.93093 0.0
C49 C 0.46687 0.56733 0.96123 0.0
C50 C 0.48263 0.59459 0.89615 0.0
C51 C 0.51144 0.5639 0.90611 0.0
O52 O 0.49106 0.47289 0.01831 0.0
C53 C 0.60374 0.5637 0.98649 0.0
O54 O 0.60571 0.55348 0.94516 0.0
H55 H 0.45235 0.5623 0.99413 0.0
H56 H 0.53869 0.55577 0.8857 0.0
N57 N 0.56511 0.47178 0.95036 0.0
N58 N 0.61237 0.42136 0.93847 0.0
C59 C 0.59635 0.44896 0.96721 0.0
C60 C 0.56118 0.45828 0.90943 0.0
C61 C 0.59024 0.42713 0.90203 0.0
C62 C 0.46472 0.45194 0.99584 0.0
O63 O 0.46696 0.45802 0.95288 0.0
H64 H 0.60611 0.45162 0.00053 0.0
H65 H 0.5382 0.46956 0.88694 0.0
O66 O 0.57282 0.54754 0.01174 0.0
H67 H 0.48283 0.61445 0.86601 0.0
H68 H 0.59459 0.40998 0.87219 0.0
C69 C 0.04167 0.11529 0.89553 0.0
C70 C 1.02332 0.10913 0.10948 0.0
C71 C 0.02767 0.90611 0.90194 0.0
C72 C 0.03468 0.90161 0.11426 0.0
C73 C 0.13556 0.90801 0.99966 0.0
C74 C 0.13739 0.117 0.00535 0.0
C75 C 0.92823 0.89986 0.01283 0.0
C76 C 0.93087 0.10934 0.00258 0.0
C77 C 0.92774 0.99746 0.11489 0.0
C78 C 0.13426 0.01592 0.10764 0.0
C79 C 0.9323 0.01199 0.90139 0.0
C80 C 0.13822 0.01096 0.89517 0.0
Eu81 Eu 0.03384 0.09015 0.0031 0.0
O82 O 0.07014 0.04702 0.04165 0.0
O83 O 0.99673 0.04604 0.96633 0.0
Eu84 Eu 0.11362 0.01174 0.00218 0.0
Eu85 Eu 0.95242 1.0054 0.00748 0.0
O86 O 0.07217 0.04938 0.9635 0.0
O87 O 0.99482 0.04415 0.04428 0.0
Eu88 Eu 0.03481 1.01021 0.92177 0.0
Eu89 Eu 0.0314 1.00617 0.08806 0.0
O90 O 0.07103 0.97252 0.96592 0.0
O91 O 0.07009 0.97034 0.04386 0.0
O92 O 0.99411 0.96771 0.046 0.0
O93 O 0.99567 0.96946 0.96826 0.0
Eu94 Eu 0.03224 0.92655 0.00722 0.0
O95 O 0.03854 0.12747 0.937 0.0
O96 O 0.02682 0.12369 0.06744 0.0
O97 O 0.03058 0.89198 0.94362 0.0
O98 O 0.03334 0.88914 0.07298 0.0
O99 O 0.14885 0.9495 0.99979 0.0
O100 O 0.14983 0.0767 0.00226 0.0
O101 O 0.91584 0.94041 0.01152 0.0
O102 O 0.91752 0.06781 0.00528 0.0
O103 O 0.96792 0.99718 0.12691 0.0
O104 O 0.09351 0.01355 0.12249 0.0
O105 O 0.97307 0.0135 0.88677 0.0
O106 O 0.0981 1.00656 0.88328 0.0
O107 O 0.96859 0.88816 0.01143 0.0
O108 O 0.09492 0.89327 0.00244 0.0
O109 O 0.97147 0.12408 0.00147 0.0
O110 O 0.09696 0.1285 0.0063 0.0
O111 O 0.02473 0.06796 0.12357 0.0
O112 O 0.03453 0.94233 0.12626 0.0
O113 O 0.04153 0.07462 0.88322 0.0
O114 O 0.0279 0.94732 0.88745 0.0
O115 O 0.15034 0.0158 0.93605 0.0
O116 O 0.14799 0.01418 0.06561 0.0
O117 O 0.91832 1.00802 0.94358 0.0
O118 O 0.91574 1.00194 0.0736 0.0
H119 H 0.93823 0.343 0.44303 0.0
H120 H 0.95253 0.28565 0.39251 0.0
H121 H 0.93952 0.37521 0.28201 0.0
H122 H 0.92341 0.43159 0.33238 0.0
H123 H 0.90499 0.30335 0.26379 0.0
H124 H 0.03967 0.34447 0.32113 0.0
H125 H 0.08974 0.35765 0.37918 0.0
H126 H 0.07332 0.2251 0.42544 0.0
H127 H 1.02277 0.21125 0.36791 0.0
H128 H 1.0161 0.1964 0.09704 0.0
H129 H 0.99785 0.24765 0.15231 0.0
H130 H 0.99264 0.14573 0.25358 0.0
H131 H 1.01139 0.09416 0.1988 0.0
H132 H 0.03432 0.2199 0.2784 0.0
H133 H 0.90246 0.18025 0.21342 0.0
H134 H 0.85585 0.1704 0.15172 0.0
H135 H 0.87162 0.3054 0.11527 0.0
H136 H 0.91878 0.31594 0.17642 0.0
C137 C 0.93814 0.3501 0.40793 0.0
C138 C 0.92959 0.39156 0.39157 0.0
C139 C 0.94656 0.3175 0.37906 0.0
C140 C 0.94789 0.3262 0.33329 0.0
C141 C 0.93859 0.36752 0.31708 0.0
C142 C 0.92931 0.39976 0.34589 0.0
C143 C 0.9596 0.29281 0.30204 0.0
C144 C 0.93353 0.28547 0.26683 0.0
C145 C 0.99645 0.2688 0.3062 0.0
C146 C 0.02713 0.27694 0.34053 0.0
C147 C 0.04656 0.3182 0.34385 0.0
C148 C 0.07505 0.32578 0.37663 0.0
C149 C 0.08461 0.29226 0.40606 0.0
C150 C 0.06583 0.25104 0.40266 0.0
C151 C 0.0373 0.2433 0.36995 0.0
C152 C 1.01143 0.18478 0.13106 0.0
C153 C 1.01514 0.14098 0.14329 0.0
C154 C 1.00078 0.21416 0.1626 0.0
C155 C 0.99337 0.20036 0.20694 0.0
C156 C 0.99818 0.15701 0.21951 0.0
C157 C 1.00886 0.12757 0.18803 0.0
C158 C 0.98004 0.23108 0.2401 0.0
C159 C 1.00573 0.23775 0.27563 0.0
C160 C 0.94328 0.25504 0.23578 0.0
C161 C 0.91439 0.2488 0.19937 0.0
C162 C 0.89617 0.20777 0.19212 0.0
C163 C 0.86964 0.20208 0.15726 0.0
C164 C 0.86083 0.23727 0.1296 0.0
C165 C 0.87848 0.2782 0.13675 0.0
C166 C 0.90506 0.28405 0.17154 0.0
H167 H 0.84028 0.23289 0.10268 0.0
H168 H 0.10664 0.2982 0.43143 0.0
H169 H 0.59354 0.03893 0.33563 0.0
H170 H 0.65273 0.01603 0.2893 0.0
H171 H 0.70849 0.95953 0.40334 0.0
H172 H 0.64851 0.9824 0.45027 0.0
H173 H 0.76436 0.01676 0.35261 0.0
H174 H 0.67434 0.89411 0.32828 0.0
H175 H 0.60788 0.85457 0.31181 0.0
H176 H 0.61049 0.9202 0.18458 0.0
H177 H 0.67662 0.96064 0.2005 0.0
H178 H 0.93382 0.96773 0.20048 0.0
H179 H 0.87686 0.95867 0.25821 0.0
H180 H 0.78738 1.00597 0.16724 0.0
H181 H 0.8437 0.0142 0.10923 0.0
H182 H 0.75271 0.93888 0.21513 0.0
H183 H 0.83305 0.0701 0.24382 0.0
H184 H 0.89856 0.11237 0.25843 0.0
H185 H 0.91245 0.03392 0.37595 0.0
H186 H 0.84745 0.99058 0.36158 0.0
C187 C 0.61785 0.02068 0.35077 0.0
C188 C 0.61641 0.01234 0.3965 0.0
C189 C 0.65165 1.00752 0.32422 0.0
C190 C 0.685 0.98592 0.34278 0.0
C191 C 0.68297 0.97602 0.38835 0.0
C192 C 0.6486 0.98874 0.41503 0.0
C193 C 0.7233 0.97764 0.31455 0.0
C194 C 0.76216 0.99874 0.32313 0.0
C195 C 0.72015 0.955 0.27558 0.0
C196 C 0.68041 0.93057 0.26571 0.0
C197 C 0.66061 0.90034 0.2969 0.0
C198 C 0.623 0.87773 0.28764 0.0
C199 C 0.60495 0.8849 0.2472 0.0
C200 C 0.62451 0.91466 0.21589 0.0
C201 C 0.66211 0.93739 0.22499 0.0
C202 C 0.90203 0.9763 0.19275 0.0
C203 C 0.89346 0.99201 0.15021 0.0
C204 C 0.86948 0.97104 0.22583 0.0
C205 C 0.82786 0.98201 0.21723 0.0
C206 C 0.81917 0.99713 0.17467 0.0
C207 C 0.85153 1.002 0.14152 0.0
C208 C 0.79333 0.97908 0.25251 0.0
C209 C 0.75521 0.956 0.24514 0.0
C210 C 0.79701 1.0003 0.29235 0.0
C211 C 0.83566 0.02681 0.30138 0.0
C212 C 0.85022 0.06169 0.27264 0.0
C213 C 0.88724 0.08587 0.28087 0.0
C214 C 0.90967 0.07582 0.31804 0.0
C215 C 0.89507 0.04163 0.34713 0.0
C216 C 0.85816 0.01723 0.33895 0.0
H217 H 0.93833 0.09458 0.32434 0.0
H218 H 0.57582 0.86736 0.2401 0.0
H219 H 0.03169 0.56704 0.38271 0.0
H220 H 0.03914 0.62086 0.32131 0.0
H221 H 0.04711 0.72225 0.41264 0.0
H222 H 0.03979 0.6688 0.47418 0.0
H223 H 0.98715 0.73611 0.35209 0.0
H224 H 0.13328 0.69981 0.35181 0.0
H225 H 0.19322 0.65165 0.3503 0.0
H226 H 0.15836 0.6086 0.22473 0.0
H227 H 0.0978 0.65609 0.22578 0.0
H228 H 0.03915 0.91231 0.20262 0.0
H229 H 0.04196 0.85689 0.26129 0.0
H230 H 0.03756 0.75842 0.16651 0.0
H231 H 0.03535 0.81379 0.10709 0.0
H232 H 0.09556 0.74212 0.22779 0.0
H233 H 0.94951 0.77834 0.22784 0.0
H234 H 0.89075 0.82798 0.22819 0.0
H235 H 0.92525 0.87112 0.35381 0.0
H236 H 0.9847 0.82221 0.3539 0.0
C237 C 0.03583 0.60073 0.38976 0.0
C238 C 0.035 0.61356 0.43343 0.0
C239 C 0.04009 0.63147 0.35459 0.0
C240 C 0.04355 0.67559 0.3624 0.0
C241 C 0.0443 0.68839 0.40588 0.0
C242 C 0.04036 0.6577 0.44103 0.0
C243 C 0.04378 0.70849 0.32545 0.0
C244 C 1.01121 0.73779 0.32522 0.0
C245 C 0.07443 0.70989 0.28977 0.0
C246 C 0.11071 0.68116 0.28911 0.0
C247 C 0.13813 0.67976 0.32407 0.0
C248 C 0.17228 0.65265 0.32325 0.0
C249 C 0.17952 0.62698 0.2875 0.0
C250 C 0.15267 0.62845 0.25244 0.0
C251 C 0.11845 0.65548 0.25311 0.0
C252 C 0.03878 0.87893 0.19398 0.0
C253 C 0.0367 0.86766 0.14993 0.0
C254 C 0.04031 0.84723 0.22773 0.0
C255 C 0.03941 0.80347 0.21837 0.0
C256 C 0.03818 0.792 0.17447 0.0
C257 C 0.03672 0.82376 0.14056 0.0
C258 C 0.03912 0.76984 0.25463 0.0
C259 C 0.07151 0.74036 0.25466 0.0
C260 C 1.0082 0.76815 0.29012 0.0
C261 C 0.97181 0.79685 0.2907 0.0
C262 C 0.94473 0.79858 0.25544 0.0
C263 C 0.91128 0.82658 0.25556 0.0
C264 C 0.90434 0.85277 0.29095 0.0
C265 C 0.93071 0.85085 0.32639 0.0
C266 C 0.96426 0.82296 0.3264 0.0
H267 H 0.87847 0.87448 0.29095 0.0
H268 H 0.20599 0.60603 0.28692 0.0
H269 H 0.38047 0.05798 0.43289 0.0
H270 H 0.32426 0.04413 0.38211 0.0
H271 H 0.39682 0.12031 0.27984 0.0
H272 H 0.4521 0.13559 0.33128 0.0
H273 H 0.31862 0.1361 0.2731 0.0
H274 H 0.39162 1.0051 0.28737 0.0
H275 H 0.42168 0.94308 0.32607 0.0
H276 H 0.2972 0.90134 0.37997 0.0
H277 H 0.26647 0.96345 0.34202 0.0
H278 H 0.21571 0.04933 0.09197 0.0
H279 H 0.26859 0.06477 0.14569 0.0
H280 H 0.1804 0.01479 0.25055 0.0
H281 H 0.12696 0.9994 0.19699 0.0
H282 H 0.26494 0.98566 0.25585 0.0
H283 H 0.19323 0.11812 0.23667 0.0
H284 H 0.16571 0.17821 0.19272 0.0
H285 H 0.29236 0.21529 0.14181 0.0
H286 H 0.32061 0.15491 0.18501 0.0
C287 C 0.38424 0.07181 0.39959 0.0
C288 C 0.42068 0.09771 0.38597 0.0
C289 C 0.35223 0.06374 0.37046 0.0
C290 C 0.35654 0.08034 0.32664 0.0
C291 C 0.3926 0.10702 0.31334 0.0
C292 C 0.42421 0.1158 0.34275 0.0
C293 C 0.32384 0.06957 0.29459 0.0
C294 C 0.30737 0.10311 0.26906 0.0
C295 C 0.30846 0.02659 0.28941 0.0
C296 C 0.32682 0.98917 0.31222 0.0
C297 C 0.37071 0.98286 0.30773 0.0
C298 C 0.38786 0.94767 0.32949 0.0
C299 C 0.36138 0.91836 0.35556 0.0
C300 C 0.31768 0.92411 0.35982 0.0
C301 C 0.30037 0.95928 0.33817 0.0
C302 C 0.20757 0.0412 0.1264 0.0
C303 C 0.16703 0.02304 0.14016 0.0
C304 C 0.23781 0.05032 0.15708 0.0
C305 C 0.22831 0.04121 0.20211 0.0
C306 C 0.18831 0.02214 0.21593 0.0
C307 C 0.15779 0.01349 0.1853 0.0
C308 C 0.26004 0.05208 0.23473 0.0
C309 C 0.27629 0.01858 0.26017 0.0
C310 C 0.27574 0.09493 0.23922 0.0
C311 C 0.25899 0.13174 0.2138 0.0
C312 C 0.2152 0.13888 0.21588 0.0
C313 C 0.19947 0.17301 0.19113 0.0
C314 C 0.22726 0.20046 0.16442 0.0
C315 C 0.27088 0.19394 0.16249 0.0
C316 C 0.28677 0.15979 0.18715 0.0
H317 H 0.21494 0.22685 0.14536 0.0
H318 H 0.37472 0.89113 0.37238 0.0
H319 H 0.98316 0.57584 0.66221 0.0
H320 H 1.00089 0.62903 0.71585 0.0
H321 H 0.91049 0.71391 0.66155 0.0
H322 H 0.89334 0.66136 0.60728 0.0
H323 H 0.98808 0.75476 0.67042 0.0
H324 H 0.88892 0.66031 0.75989 0.0
H325 H 0.86133 0.59058 0.79438 0.0
H326 H 0.97701 0.57807 0.86141 0.0
H327 H 1.00552 0.64747 0.82686 0.0
H328 H 0.98167 0.91197 0.82908 0.0
H329 H 0.96624 0.85561 0.77841 0.0
H330 H 0.04463 0.76964 0.85005 0.0
H331 H 0.0584 0.82545 0.90224 0.0
H332 H 0.97641 0.7276 0.83227 0.0
H333 H 0.0766 0.81999 0.74554 0.0
H334 H 0.10712 0.88879 0.71148 0.0
H335 H 0.99507 0.90361 0.63887 0.0
H336 H 0.96362 0.83516 0.67295 0.0
C337 C 0.96698 0.60578 0.66178 0.0
C338 C 0.9369 0.61439 0.63038 0.0
C339 C 0.97692 0.636 0.69265 0.0
C340 C 0.95689 0.67535 0.69276 0.0
C341 C 0.92629 0.6837 0.66203 0.0
C342 C 0.91623 0.65345 0.63128 0.0
C343 C 0.96914 0.7087 0.72353 0.0
C344 C 0.98505 0.74906 0.70585 0.0
C345 C 0.96668 0.70062 0.76965 0.0
C346 C 0.94952 0.65888 0.79041 0.0
C347 C 0.90862 0.64251 0.78168 0.0
C348 C 0.89279 0.60308 0.80131 0.0
C349 C 0.91744 0.57985 0.82997 0.0
C350 C 0.95796 0.59606 0.83915 0.0
C351 C 0.97396 0.63545 0.81959 0.0
C352 C 0.99602 0.88122 0.83369 0.0
C353 C 1.02142 0.87312 0.86939 0.0
C354 C 0.98729 0.84901 0.80462 0.0
C355 C 1.00486 0.8085 0.80986 0.0
C356 C 0.03071 0.80059 0.84528 0.0
C357 C 0.03867 0.83251 0.87498 0.0
C358 C 0.99504 0.77403 0.77923 0.0
C359 C 0.97968 0.73338 0.79687 0.0
C360 C 0.99861 0.78161 0.73298 0.0
C361 C 1.01763 0.82258 0.71205 0.0
C362 C 0.05837 0.83803 0.72249 0.0
C363 C 0.07585 0.87696 0.70316 0.0
C364 C 0.05302 0.90059 0.67309 0.0
C365 C 1.01271 0.88528 0.66218 0.0
C366 C 0.99507 0.84639 0.68145 0.0
H367 H 0.0666 0.93073 0.65818 0.0
H368 H 0.90512 0.54934 0.84515 0.0
H369 H 0.42785 0.97525 0.57372 0.0
H370 H 0.37031 0.95552 0.62996 0.0
H371 H 0.40143 0.07095 0.69703 0.0
H372 H 0.45804 0.0907 0.64151 0.0
H373 H 0.38505 0.99969 0.75434 0.0
H374 H 0.32335 0.06952 0.6269 0.0
H375 H 0.30688 0.07421 0.54864 0.0
H376 H 0.24028 0.95034 0.56344 0.0
H377 H 0.25692 0.94468 0.64168 0.0
H378 H 0.21301 0.0586 0.88729 0.0
H379 H 0.27059 0.05496 0.83112 0.0
H380 H 0.19932 0.95428 0.76996 0.0
H381 H 0.14034 0.9601 0.82464 0.0
H382 H 0.23619 1.00198 0.709 0.0
H383 H 0.28807 0.93552 0.83841 0.0
H384 H 0.3046 0.92901 0.91651 0.0
H385 H 0.39021 0.04057 0.89891 0.0
H386 H 0.37378 0.04825 0.82081 0.0
C387 C 0.4227 0.99591 0.6009 0.0
C388 C 0.4472 0.03462 0.60312 0.0
C389 C 0.38978 0.98477 0.63282 0.0
C390 C 0.38145 0.01198 0.66752 0.0
C391 C 0.40727 0.04949 0.67063 0.0
C392 C 0.43952 0.06082 0.6387 0.0
C393 C 0.34467 1.00351 0.69967 0.0
C394 C 0.35245 1.00009 0.74454 0.0
C395 C 0.30216 1.00274 0.68678 0.0
C396 C 0.29182 1.00644 0.63993 0.0
C397 C 0.30548 0.04315 0.61336 0.0
C398 C 0.29607 0.04601 0.56904 0.0
C399 C 0.27268 0.01253 0.55104 0.0
C400 C 0.25849 0.9762 0.57739 0.0
C401 C 0.26789 0.97315 0.62172 0.0
C402 C 0.20965 0.03581 0.86174 0.0
C403 C 0.1724 1.00949 0.86037 0.0
C404 C 0.24275 0.0334 0.82983 0.0
C405 C 0.2401 1.00333 0.79688 0.0
C406 C 0.20243 0.97753 0.79508 0.0
C407 C 0.16873 0.98086 0.82632 0.0
C408 C 0.27643 0.99944 0.76415 0.0
C409 C 0.26861 1.00052 0.71912 0.0
C410 C 0.319 0.99749 0.77693 0.0
C411 C 0.32954 0.99254 0.82375 0.0
C412 C 0.31031 0.95876 0.85121 0.0
C413 C 0.31966 0.95486 0.8955 0.0
C414 C 0.34841 0.98432 0.91268 0.0
C415 C 0.36797 0.01774 0.88556 0.0
C416 C 0.35871 0.02185 0.84125 0.0
H417 H 0.35554 0.98124 0.94699 0.0
H418 H 0.26544 0.01479 0.51671 0.0
H419 H 0.05005 0.39416 0.55714 0.0
H420 H 0.07514 0.33804 0.60799 0.0
H421 H 0.98939 0.37886 0.71092 0.0
H422 H 0.96382 0.43389 0.66048 0.0
H423 H 0.07378 0.35932 0.73837 0.0
H424 H 0.95658 0.29946 0.65481 0.0
H425 H 0.92555 0.28191 0.58477 0.0
H426 H 0.03242 0.20665 0.55186 0.0
H427 H 0.06427 0.22419 0.62156 0.0
H428 H 1.01702 0.19808 0.89992 0.0
H429 H 1.02154 0.25454 0.8415 0.0
H430 H 0.08044 0.16807 0.75285 0.0
H431 H 0.07444 0.11074 0.81092 0.0
H432 H 0.02628 0.20916 0.71066 0.0
H433 H 0.13783 0.25443 0.79735 0.0
H434 H 0.17422 0.27145 0.86453 0.0
H435 H 0.08978 0.37331 0.88773 0.0
H436 H 0.05239 0.35651 0.82106 0.0
C437 C 0.03718 0.39149 0.59082 0.0
C438 C 1.00481 0.41811 0.60484 0.0
C439 C 0.05142 0.35947 0.61975 0.0
C440 C 0.03401 0.35431 0.66318 0.0
C441 C 1.00333 0.38238 0.67764 0.0
C442 C 0.98859 0.41364 0.64869 0.0
C443 C 0.04452 0.31772 0.69301 0.0
C444 C 0.06354 0.32642 0.73246 0.0
C445 C 0.0326 0.27468 0.68443 0.0
C446 C 1.01298 0.26348 0.64309 0.0
C447 C 0.97354 0.27937 0.6325 0.0
C448 C 0.9558 0.2694 0.59291 0.0
C449 C 0.97706 0.24329 0.56382 0.0
C450 C 1.01602 0.22693 0.57439 0.0
C451 C 0.03391 0.23684 0.61393 0.0
C452 C 0.03121 0.19109 0.8681 0.0
C453 C 0.04546 0.14989 0.86018 0.0
C454 C 0.03405 0.22357 0.83469 0.0
C455 C 0.05219 0.21603 0.79281 0.0
C456 C 0.06646 0.17485 0.78482 0.0
C457 C 0.06299 0.14208 0.81809 0.0
C458 C 0.05439 0.25071 0.75716 0.0
C459 C 0.03765 0.24173 0.71653 0.0
C460 C 0.06948 0.29335 0.76428 0.0
C461 C 0.09212 0.30402 0.80425 0.0
C462 C 0.12683 0.28031 0.81689 0.0
C463 C 0.14767 0.28993 0.85488 0.0
C464 C 0.13428 0.32339 0.8804 0.0
C465 C 0.10011 0.34739 0.86792 0.0
C466 C 0.07911 0.33787 0.82998 0.0
H467 H 0.15044 0.33076 0.90982 0.0
H468 H 0.96331 0.23566 0.53315 0.0
H469 H 0.63274 0.13105 0.65831 0.0
H470 H 0.6849 0.11435 0.71239 0.0
H471 H 0.74646 0.03163 0.6216 0.0
H472 H 0.6929 0.04698 0.56819 0.0
H473 H 0.74515 0.99398 0.69716 0.0
H474 H 0.78841 0.13664 0.64519 0.0
H475 H 0.78152 0.21373 0.62571 0.0
H476 H 0.74545 0.2362 0.76008 0.0
H477 H 0.75159 0.1591 0.78028 0.0
H478 H 0.93945 0.99497 0.814 0.0
H479 H 0.88734 1.00753 0.75835 0.0
H480 H 0.8007 0.05418 0.85715 0.0
H481 H 0.85211 0.04092 0.91315 0.0
H482 H 0.81768 0.1096 0.77637 0.0
H483 H 0.77678 0.96192 0.82489 0.0
H484 H 0.79157 0.88564 0.84008 0.0
H485 H 0.83313 0.87457 0.70499 0.0
H486 H 0.81911 0.95096 0.68908 0.0
C487 C 0.65765 0.10964 0.64979 0.0
C488 C 0.65899 0.09059 0.60891 0.0
C489 C 0.68761 0.10014 0.68069 0.0
C490 C 0.72038 0.07232 0.67097 0.0
C491 C 0.72164 0.0532 0.63006 0.0
C492 C 0.69112 0.06204 0.59948 0.0
C493 C 0.75272 0.06266 0.70376 0.0
C494 C 0.76136 0.01944 0.71392 0.0
C495 C 0.77396 0.09561 0.72616 0.0
C496 C 0.77005 0.14199 0.71416 0.0
C497 C 0.77868 0.15795 0.67052 0.0
C498 C 0.77497 0.20167 0.65937 0.0
C499 C 0.76294 0.22982 0.69162 0.0
C500 C 0.7547 0.21434 0.73512 0.0
C501 C 0.75833 0.17064 0.74646 0.0
C502 C 0.9092 1.00764 0.82396 0.0
C503 C 0.89998 0.01701 0.86804 0.0
C504 C 0.87946 0.01471 0.79214 0.0
C505 C 0.84024 0.03183 0.80368 0.0
C506 C 0.83083 0.04098 0.84762 0.0
C507 C 0.86019 0.03319 0.87959 0.0
C508 C 0.80943 0.04127 0.76973 0.0
C509 C 0.8013 0.08439 0.75939 0.0
C510 C 0.78954 1.00838 0.74646 0.0
C511 C 0.79727 0.96227 0.75589 0.0
C512 C 0.78936 0.94332 0.79849 0.0
C513 C 0.79754 0.90004 0.80722 0.0
C514 C 0.81337 0.87532 0.77356 0.0
C515 C 0.8209 0.89377 0.73104 0.0
C516 C 0.81279 0.93703 0.72214 0.0
H517 H 0.81973 0.84184 0.78041 0.0
H518 H 0.7601 0.26366 0.68291 0.0
H519 H 0.38329 0.45966 0.0276 0.0
H520 H 0.32813 0.40114 0.03845 0.0
H521 H 0.42273 0.30823 0.01327 0.0
H522 H 0.47759 0.3668 0.0022 0.0
H523 H 0.35867 0.29716 0.96144 0.0
H524 H 0.37086 0.31229 0.11533 0.0
H525 H 0.37275 0.3494 0.18492 0.0
H526 H 0.24501 0.38799 0.17007 0.0
H527 H 0.24255 0.3516 0.10003 0.0
H528 H 0.22399 0.10933 0.00182 0.0
H529 H 0.27949 0.16562 0.00839 0.0
H530 H 0.18422 0.25948 0.02424 0.0
H531 H 0.12817 0.20328 0.01799 0.0
H532 H 0.24815 0.2696 0.08242 0.0
H533 H 0.23773 0.25562 0.92719 0.0
H534 H 0.23529 0.21531 0.85956 0.0
H535 H 0.36064 0.17203 0.87915 0.0
H536 H 0.36363 0.21168 0.94725 0.0
C537 C 0.39244 0.42658 0.02632 0.0
C538 C 0.43478 0.41754 0.0153 0.0
C539 C 0.36089 0.39311 0.03221 0.0
C540 C 0.37113 0.35005 0.02676 0.0
C541 C 0.41392 0.34104 0.01773 0.0
C542 C 0.44537 0.37445 0.01196 0.0
C543 C 0.33698 0.31509 0.02595 0.0
C544 C 0.33502 0.29071 0.98835 0.0
C545 C 0.30519 0.30723 0.06035 0.0
C546 C 0.30673 0.32967 0.10213 0.0
C547 C 0.34334 0.32909 0.12664 0.0
C548 C 0.34447 0.3499 0.16624 0.0
C549 C 0.30908 0.37117 0.18183 0.0
C550 C 0.27244 0.37158 0.1579 0.0
C551 C 0.27115 0.35085 0.11827 0.0
C552 C 0.2146 0.14189 0.00661 0.0
C553 C 0.17133 0.1516 0.00892 0.0
C554 C 0.24653 0.17413 0.01037 0.0
C555 C 0.23614 0.21694 0.0164 0.0
C556 C 0.19306 0.22671 0.01956 0.0
C557 C 0.16102 0.19448 0.01567 0.0
C558 C 0.27034 0.25154 0.01833 0.0
C559 C 0.27209 0.27595 0.05583 0.0
C560 C 0.30208 0.25938 0.98397 0.0
C561 C 0.30076 0.23631 0.94252 0.0
C562 C 0.26469 0.23733 0.9172 0.0
C563 C 0.26322 0.21463 0.87877 0.0
C564 C 0.29774 0.19105 0.86513 0.0
C565 C 0.33391 0.19029 0.88978 0.0
C566 C 0.33554 0.21292 0.92826 0.0
H567 H 0.29651 0.17341 0.83542 0.0
H568 H 0.31 0.38722 0.21252 0.0
H569 H 0.45455 0.67895 0.89733 0.0
H570 H 0.39934 0.73072 0.9093 0.0
H571 H 0.32377 0.63452 0.98892 0.0
H572 H 0.37918 0.58263 0.97731 0.0
H573 H 0.27702 0.68374 0.92534 0.0
H574 H 0.37477 0.70554 0.0402 0.0
H575 H 0.44545 0.7196 0.06919 0.0
H576 H 0.45923 0.84021 0.99418 0.0
H577 H 0.38886 0.82656 0.96421 0.0
H578 H 0.12729 0.82086 0.01881 0.0
H579 H 0.18067 0.7674 0.00789 0.0
H580 H 0.27157 0.86757 0.95698 0.0
H581 H 0.21877 0.92151 0.96899 0.0
H582 H 0.31057 0.8151 0.00565 0.0
H583 H 0.21596 0.79663 0.8899 0.0
H584 H 0.14663 0.78499 0.85714 0.0
H585 H 0.1286 0.66164 0.92653 0.0
H586 H 0.19747 0.67287 0.96036 0.0
C587 C 0.42601 0.66867 0.91701 0.0
C588 C 0.42127 0.62666 0.93642 0.0
C589 C 0.39457 0.69836 0.92402 0.0
C590 C 0.35747 0.68656 0.95015 0.0
C591 C 0.35212 0.64434 0.96865 0.0
C592 C 0.38388 0.61482 0.96223 0.0
C593 C 0.32489 0.71869 0.95909 0.0
C594 C 0.28409 0.71221 0.94338 0.0
C595 C 0.33452 0.75647 0.98147 0.0
C596 C 0.37675 0.7648 0.9996 0.0
C597 C 0.39304 0.73487 0.02958 0.0
C598 C 0.43301 0.74281 0.04625 0.0
C599 C 0.45687 0.78071 0.03344 0.0
C600 C 0.44075 0.81083 0.00402 0.0
C601 C 0.40081 0.80302 0.9872 0.0
C602 C 0.15866 0.83163 0.00533 0.0
C603 C 0.16856 0.8756 0.99467 0.0
C604 C 0.18918 0.80089 0.99886 0.0
C605 C 0.2301 0.81319 0.98067 0.0
C606 C 0.24028 0.85717 0.97084 0.0
C607 C 0.20997 0.88803 0.97781 0.0
C608 C 0.26233 0.78041 0.97188 0.0
C609 C 0.30322 0.78672 0.98757 0.0
C610 C 0.25295 0.74287 0.94874 0.0
C611 C 0.21173 0.73578 0.92802 0.0
C612 C 0.19709 0.76714 0.89842 0.0
C613 C 0.15788 0.76062 0.87964 0.0
C614 C 0.1332 0.72264 0.88982 0.0
C615 C 0.14773 0.69107 0.91873 0.0
C616 C 0.18685 0.69749 0.93771 0.0
H617 H 0.10288 0.71762 0.87524 0.0
H618 H 0.48781 0.7868 0.0464 0.0
H619 H 0.67841 0.42964 0.99172 0.0
H620 H 0.73263 0.37743 0.00554 0.0
H621 H 0.6745 0.29166 0.91649 0.0
H622 H 0.62001 0.34359 0.90281 0.0
H623 H 0.69475 0.24995 0.99568 0.0
H624 H 0.76358 0.3492 0.88376 0.0
H625 H 0.78904 0.42114 0.85314 0.0
H626 H 0.86706 0.4375 0.96312 0.0
H627 H 0.84165 0.36583 0.99467 0.0
H628 H 0.85342 0.10006 0.96712 0.0
H629 H 0.80024 0.15384 0.95853 0.0
H630 H 0.87947 0.24544 0.02341 0.0
H631 H 0.93388 0.19215 0.02989 0.0
H632 H 0.84812 0.28611 0.96089 0.0
H633 H 0.78374 0.18936 0.07345 0.0
H634 H 0.75854 0.11935 0.10889 0.0
H635 H 0.67186 0.10037 0.00657 0.0
H636 H 0.69706 0.17006 0.97015 0.0
C637 C 0.67704 0.3996 0.97522 0.0
C638 C 0.64484 0.39088 0.94607 0.0
C639 C 0.70823 0.36987 0.98295 0.0
C640 C 0.70782 0.33066 0.96189 0.0
C641 C 0.67553 0.3217 0.93308 0.0
C642 C 0.64458 0.35158 0.925 0.0
C643 C 0.74097 0.29893 0.96983 0.0
C644 C 0.72827 0.25762 0.98765 0.0
C645 C 0.78485 0.30943 0.96094 0.0
C646 C 0.8004 0.35234 0.94177 0.0
C647 C 0.78593 0.36827 0.90157 0.0
C648 C 0.8004 0.40897 0.88401 0.0
C649 C 0.82958 0.43392 0.90622 0.0
C650 C 0.84444 0.41816 0.94597 0.0
C651 C 0.83004 0.37749 0.96368 0.0
C652 C 0.85941 0.13156 0.97982 0.0
C653 C 0.89783 0.14172 0.99934 0.0
C654 C 0.82876 0.16235 0.97516 0.0
C655 C 0.83504 0.20371 0.99125 0.0
C656 C 0.87353 0.21387 0.0108 0.0
C657 C 0.90466 0.18333 0.01459 0.0
C658 C 0.80207 0.23655 0.98649 0.0
C659 C 0.81471 0.27821 0.96929 0.0
C660 C 0.75815 0.22661 0.99685 0.0
C661 C 0.74259 0.18483 0.01888 0.0
C662 C 0.75952 0.17017 0.05836 0.0
C663 C 0.7452 0.13053 0.07864 0.0
C664 C 0.71367 0.10538 0.05995 0.0
C665 C 0.69631 0.11988 0.02099 0.0
C666 C 0.71057 0.15947 0.00054 0.0
H667 H 0.70264 0.07469 0.07569 0.0
H668 H 0.84073 0.46543 0.89258 0.0
H669 H 0.68452 0.57589 0.95259 0.0
H670 H 0.7375 0.63188 0.96794 0.0
H671 H 0.65168 0.67896 0.0673 0.0
H672 H 0.59791 0.62211 0.05202 0.0
H673 H 0.68833 0.74412 0.00601 0.0
H674 H 0.7368 0.63034 0.09963 0.0
H675 H 0.75764 0.5564 0.11757 0.0
H676 H 0.85892 0.57076 0.01752 0.0
H677 H 0.83836 0.6446 0.99858 0.0
H678 H 0.84915 0.90091 0.05403 0.0
H679 H 0.79329 0.84336 0.06009 0.0
H680 H 0.87377 0.76304 0.98369 0.0
H681 H 0.93053 0.81968 0.97985 0.0
H682 H 0.83595 0.71496 0.0434 0.0
H683 H 0.78513 0.82215 0.9425 0.0
H684 H 0.76456 0.89475 0.91844 0.0
H685 H 0.66839 0.89159 0.02362 0.0
H686 H 0.68885 0.81927 0.04879 0.0
C687 C 0.67697 0.59771 0.97821 0.0
C688 C 0.63698 0.59448 0.00116 0.0
C689 C 0.70744 0.62972 0.98701 0.0
C690 C 0.69878 0.65962 0.01889 0.0
C691 C 0.65912 0.65616 0.04261 0.0
C692 C 0.62858 0.62351 0.03414 0.0
C693 C 0.7308 0.69535 0.02532 0.0
C694 C 0.72038 0.73793 0.01515 0.0
C695 C 0.77303 0.68717 0.03578 0.0
C696 C 0.78587 0.64296 0.04754 0.0
C697 C 0.76337 0.61766 0.08128 0.0
C698 C 0.77516 0.57577 0.09166 0.0
C699 C 0.80954 0.55888 0.06866 0.0
C700 C 0.8323 0.58389 0.03532 0.0
C701 C 0.82064 0.6258 0.02481 0.0
C702 C 0.85488 0.87096 0.03849 0.0
C703 C 0.89421 0.86495 0.01624 0.0
C704 C 0.82277 0.83805 0.04176 0.0
C705 C 0.82862 0.79883 0.02158 0.0
C706 C 0.86815 0.79279 0.99964 0.0
C707 C 0.90065 0.82529 0.99732 0.0
C708 C 0.79391 0.76403 0.02322 0.0
C709 C 0.80382 0.7215 0.03481 0.0
C710 C 0.7514 0.77219 0.01318 0.0
C711 C 0.73883 0.8155 0.99781 0.0
C712 C 0.75977 0.83705 0.96066 0.0
C713 C 0.74812 0.87813 0.9468 0.0
C714 C 0.71525 0.89778 0.96952 0.0
C715 C 0.69389 0.87635 0.00609 0.0
C716 C 0.7055 0.83533 0.02017 0.0
H717 H 0.70629 0.92958 0.95873 0.0
H718 H 0.81859 0.52642 0.0767 0.0
loop_
_geom_bond_atom_site_label_1
_geom_bond_atom_site_label_2
_geom_bond_distance
_geom_bond_site_symmetry_2
_ccdc_geom_bond_type
Cu0 N1 1.999 . S
Cu0 O6 1.974 . S
Cu0 N11 1.985 . S
Cu0 O20 1.959 . S
N1 Cu0 1.999 . S
N1 C3 1.263 . S
N1 C5 1.389 . S
N2 C3 1.358 . S
N2 C4 1.400 . S
C3 N1 1.263 . S
C3 N2 1.358 . S
C3 H9 0.930 1_455 S
C4 N2 1.400 . S
C4 C5 1.351 . S
C4 H21 0.930 . S
C5 N1 1.389 . S
C5 C4 1.351 . S
C5 H10 0.930 . S
O6 Cu0 1.974 . S
O6 C16 1.282 1_455 S
C7 O8 1.261 . S
C7 O20 1.251 1_655 S
O8 C7 1.261 . S
H9 C3 0.930 1_655 S
H10 C5 0.930 . S
N11 Cu0 1.985 . S
N11 C13 1.335 . S
N11 C14 1.390 1_455 S
N12 C13 1.345 . S
N12 C15 1.336 1_455 S
C13 N11 1.335 . S
C13 N12 1.345 . S
C13 H18 0.930 . S
C14 N11 1.390 1_655 S
C14 C15 1.346 . S
C14 H19 0.930 . S
C15 N12 1.336 1_655 S
C15 C14 1.346 . S
C15 H22 0.929 . S
C16 O6 1.282 1_655 S
C16 O17 1.216 . S
O17 C16 1.216 . S
H18 C13 0.930 . S
H19 C14 0.930 . S
O20 Cu0 1.959 . S
O20 C7 1.251 1_455 S
H21 C4 0.930 . S
H22 C15 0.929 . S
Cu23 N24 1.999 . S
Cu23 O29 1.974 . S
Cu23 N34 1.985 . S
Cu23 O43 1.959 . S
N24 Cu23 1.999 . S
N24 C26 1.263 . S
N24 C28 1.389 . S
N25 C26 1.358 . S
N25 C27 1.400 . S
C26 N24 1.263 . S
C26 N25 1.358 . S
C26 H32 0.930 1_565 S
C27 N25 1.400 . S
C27 C28 1.351 . S
C27 H44 0.930 . S
C28 N24 1.389 . S
C28 C27 1.351 . S
C28 H33 0.930 . S
O29 Cu23 1.974 . S
O29 C39 1.282 1_565 S
C30 O31 1.261 . S
C30 O43 1.251 1_545 S
O31 C30 1.261 . S
H32 C26 0.930 1_545 S
H33 C28 0.930 . S
N34 Cu23 1.985 . S
N34 C36 1.335 . S
N34 C37 1.390 1_565 S
N35 C36 1.345 . S
N35 C38 1.336 1_565 S
C36 N34 1.335 . S
C36 N35 1.345 . S
C36 H41 0.930 . S
C37 N34 1.390 1_545 S
C37 C38 1.346 . S
C37 H42 0.930 . S
C38 N35 1.336 1_545 S
C38 C37 1.346 . S
C38 H45 0.929 . S
C39 O29 1.282 1_545 S
C39 O40 1.216 . S
O40 C39 1.216 . S
H41 C36 0.930 . S
H42 C37 0.930 . S
O43 Cu23 1.959 . S
O43 C30 1.251 1_565 S
H44 C27 0.930 . S
H45 C38 0.929 . S
Cu46 N47 1.999 . S
Cu46 O52 1.974 . S
Cu46 N57 1.985 . S
Cu46 O66 1.959 . S
N47 Cu46 1.999 . S
N47 C49 1.263 . S
N47 C51 1.389 . S
N48 C49 1.358 . S
N48 C50 1.400 . S
C49 N47 1.263 . S
C49 N48 1.358 . S
C49 H55 0.930 1_556 S
C50 N48 1.400 . S
C50 C51 1.351 . S
C50 H67 0.930 . S
C51 N47 1.389 . S
C51 C50 1.351 . S
C51 H56 0.930 . S
O52 Cu46 1.974 . S
O52 C62 1.282 1_556 S
C53 O54 1.261 . S
C53 O66 1.251 1_554 S
O54 C53 1.261 . S
H55 C49 0.930 1_554 S
H56 C51 0.930 . S
N57 Cu46 1.985 . S
N57 C59 1.335 . S
N57 C60 1.390 1_556 S
N58 C59 1.345 . S
N58 C61 1.336 1_556 S
C59 N57 1.335 . S
C59 N58 1.345 . S
C59 H64 0.930 . S
C60 N57 1.390 1_554 S
C60 C61 1.346 . S
C60 H65 0.930 . S
C61 N58 1.336 1_554 S
C61 C60 1.346 . S
C61 H68 0.929 . S
C62 O52 1.282 1_554 S
C62 O63 1.216 . S
O63 C62 1.216 . S
H64 C59 0.930 . S
H65 C60 0.930 . S
O66 Cu46 1.959 . S
O66 C53 1.251 1_556 S
H67 C50 0.930 . S
H68 C61 0.929 . S
C69 O95 1.283 . S
C69 O113 1.283 . S
C70 O96 1.283 . S
C70 O111 1.283 . S
C71 O97 1.283 . S
C71 O114 1.283 . S
C72 O98 1.283 . S
C72 O112 1.283 . S
C73 O99 1.284 1_554 S
C73 O108 1.283 . S
C74 O100 1.283 . S
C74 O110 1.283 . S
C75 O101 1.283 . S
C75 O107 1.283 . S
C76 O102 1.283 . S
C76 O109 1.284 1_554 S
C77 O103 1.283 . S
C77 O118 1.283 . S
C78 O104 1.283 . S
C78 O116 1.283 . S
C79 O105 1.283 . S
C79 O117 1.283 . S
C80 O106 1.283 . S
C80 O115 1.283 . S
Eu81 O82 2.370 1_556 S
Eu81 O83 2.370 1_455 S
Eu81 O86 2.370 . S
Eu81 O87 2.370 1_456 S
Eu81 O95 2.363 . S
Eu81 O96 2.363 1_556 S
Eu81 O109 2.363 1_455 S
Eu81 O110 2.363 . S
O82 Eu81 2.370 1_554 S
O82 Eu84 2.370 1_554 S
O82 Eu89 2.360 1_455 S
O83 Eu81 2.370 1_655 S
O83 Eu85 2.370 1_556 S
O83 Eu88 2.370 1_655 S
Eu84 O82 2.370 1_556 S
Eu84 O86 2.370 . S
Eu84 O90 2.370 1_545 S
Eu84 O91 2.370 1_546 S
Eu84 O99 2.363 1_545 S
Eu84 O100 2.363 . S
Eu84 O115 2.363 . S
Eu84 O116 2.363 1_556 S
Eu85 O83 2.370 1_554 S
Eu85 O87 2.370 . S
Eu85 O92 2.370 1_545 S
Eu85 O93 2.370 1_544 S
Eu85 O101 2.363 1_545 S
Eu85 O102 2.363 . S
Eu85 O117 2.363 1_554 S
Eu85 O118 2.363 . S
O86 Eu81 2.370 . S
O86 Eu84 2.370 . S
O86 Eu88 2.370 . S
O87 Eu81 2.370 1_654 S
O87 Eu85 2.370 . S
O87 Eu89 2.381 . S
Eu88 O83 2.370 1_455 S
Eu88 O86 2.370 . S
Eu88 O90 2.370 1_545 S
Eu88 O93 2.370 1_445 S
Eu88 O105 2.363 1_455 S
Eu88 O106 2.363 . S
Eu88 O113 2.363 . S
Eu88 O114 2.363 1_545 S
Eu89 O82 2.360 1_655 S
Eu89 O87 2.381 . S
Eu89 O91 2.360 1_645 S
Eu89 O92 2.380 1_545 S
Eu89 O103 2.380 . S
Eu89 O104 2.346 1_655 S
Eu89 O111 2.363 1_655 S
Eu89 O112 2.363 1_545 S
O90 Eu84 2.370 1_565 S
O90 Eu88 2.370 1_565 S
O90 Eu94 2.362 1_456 S
O91 Eu84 2.370 1_564 S
O91 Eu89 2.360 1_465 S
O91 Eu94 2.362 1_455 S
O92 Eu85 2.370 1_565 S
O92 Eu89 2.380 1_565 S
O92 Eu94 2.378 . S
O93 Eu85 2.370 1_566 S
O93 Eu88 2.370 1_665 S
O93 Eu94 2.378 1_556 S
Eu94 O90 2.362 1_654 S
Eu94 O91 2.362 1_655 S
Eu94 O92 2.378 . S
Eu94 O93 2.378 1_554 S
Eu94 O97 2.363 1_654 S
Eu94 O98 2.363 . S
Eu94 O107 2.376 . S
Eu94 O108 2.349 1_655 S
O95 C69 1.283 . S
O95 Eu81 2.363 . S
O96 C70 1.283 . S
O96 Eu81 2.363 1_554 S
O97 C71 1.283 . S
O97 Eu94 2.363 1_456 S
O98 C72 1.283 . S
O98 Eu94 2.363 . S
O99 C73 1.284 1_556 S
O99 Eu84 2.363 1_565 S
O100 C74 1.283 . S
O100 Eu84 2.363 . S
O101 C75 1.283 . S
O101 Eu85 2.363 1_565 S
O102 C76 1.283 . S
O102 Eu85 2.363 . S
O103 C77 1.283 . S
O103 Eu89 2.380 . S
O104 C78 1.283 . S
O104 Eu89 2.346 1_455 S
O105 C79 1.283 . S
O105 Eu88 2.363 1_655 S
O106 C80 1.283 . S
O106 Eu88 2.363 . S
O107 C75 1.283 . S
O107 Eu94 2.376 . S
O108 C73 1.283 . S
O108 Eu94 2.349 1_455 S
O109 C76 1.284 1_556 S
O109 Eu81 2.363 1_655 S
O110 C74 1.283 . S
O110 Eu81 2.363 . S
O111 C70 1.283 . S
O111 Eu89 2.363 1_455 S
O112 C72 1.283 . S
O112 Eu89 2.363 1_565 S
O113 C69 1.283 . S
O113 Eu88 2.363 . S
O114 C71 1.283 . S
O114 Eu88 2.363 1_565 S
O115 C80 1.283 . S
O115 Eu84 2.363 . S
O116 C78 1.283 . S
O116 Eu84 2.363 1_554 S
O117 C79 1.283 . S
O117 Eu85 2.363 1_556 S
O118 C77 1.283 . S
O118 Eu85 2.363 . S
H119 C137 0.951 . S
H120 C139 0.951 . S
H121 C141 0.950 . S
H122 C142 0.950 . S
H123 C144 0.950 . S
H124 C147 0.950 . S
H125 C148 0.950 . S
H126 C150 0.950 . S
H127 C151 0.950 . S
H128 C152 0.951 . S
H129 C154 0.951 . S
H130 C156 0.950 . S
H131 C157 0.950 . S
H132 C159 0.950 . S
H133 C162 0.950 . S
H134 C163 0.950 . S
H135 C165 0.950 . S
H136 C166 0.950 . S
C137 H119 0.951 . S
C137 C138 1.366 . S
C137 C139 1.388 . S
C138 C137 1.366 . S
C138 C142 1.385 . S
C139 H120 0.951 . S
C139 C137 1.388 . S
C139 C140 1.366 . S
C140 C139 1.366 . S
C140 C141 1.414 . S
C140 C143 1.499 . S
C141 H121 0.950 . S
C141 C140 1.414 . S
C141 C142 1.374 . S
C142 H122 0.950 . S
C142 C138 1.385 . S
C142 C141 1.374 . S
C143 C140 1.499 . S
C143 C144 1.373 1_455 S
C143 C145 1.389 . S
C144 H123 0.950 . S
C144 C143 1.373 1_655 S
C144 C160 1.377 . S
C145 C143 1.389 . S
C145 C146 1.524 . S
C145 C159 1.377 . S
C146 C145 1.524 . S
C146 C147 1.397 . S
C146 C151 1.363 . S
C147 H124 0.950 . S
C147 C146 1.397 . S
C147 C148 1.334 . S
C148 H125 0.950 . S
C148 C147 1.334 . S
C148 C149 1.287 . S
C149 C148 1.287 . S
C149 C150 1.524 . S
C149 H168 0.913 . S
C150 H126 0.950 . S
C150 C149 1.524 . S
C150 C151 1.415 . S
C151 H127 0.950 . S
C151 C146 1.363 . S
C151 C150 1.415 . S
C152 H128 0.951 . S
C152 C153 1.366 1_655 S
C152 C154 1.388 . S
C153 C152 1.366 1_455 S
C153 C157 1.385 . S
C154 H129 0.951 . S
C154 C152 1.388 . S
C154 C155 1.366 1_655 S
C155 C154 1.366 1_455 S
C155 C156 1.414 . S
C155 C158 1.499 . S
C156 H130 0.950 . S
C156 C155 1.414 . S
C156 C157 1.374 . S
C157 H131 0.950 . S
C157 C153 1.385 . S
C157 C156 1.374 . S
C158 C155 1.499 . S
C158 C159 1.373 . S
C158 C160 1.389 1_455 S
C159 H132 0.950 . S
C159 C145 1.377 . S
C159 C158 1.373 . S
C160 C144 1.377 . S
C160 C158 1.389 1_655 S
C160 C161 1.524 . S
C161 C160 1.524 . S
C161 C162 1.397 . S
C161 C166 1.363 . S
C162 H133 0.950 . S
C162 C161 1.397 . S
C162 C163 1.334 . S
C163 H134 0.950 . S
C163 C162 1.334 . S
C163 C164 1.287 . S
C164 C163 1.287 . S
C164 C165 1.524 . S
C164 H167 0.999 . S
C165 H135 0.950 . S
C165 C164 1.524 . S
C165 C166 1.415 . S
C166 H136 0.950 . S
C166 C161 1.363 . S
C166 C165 1.415 . S
H167 C164 0.999 . S
H168 C149 0.913 . S
H169 C187 0.951 . S
H170 C189 0.951 . S
H171 C191 0.950 . S
H172 C192 0.950 . S
H173 C194 0.950 . S
H174 C197 0.950 . S
H175 C198 0.950 . S
H176 C200 0.950 . S
H177 C201 0.950 1_545 S
H178 C202 0.951 . S
H179 C204 0.951 . S
H180 C206 0.950 . S
H181 C207 0.950 . S
H182 C209 0.950 . S
H183 C212 0.950 . S
H184 C213 0.950 . S
H185 C215 0.950 . S
H186 C216 0.950 . S
C187 H169 0.951 . S
C187 C188 1.366 . S
C187 C189 1.388 . S
C188 C187 1.366 . S
C188 C192 1.385 1_545 S
C189 H170 0.951 . S
C189 C187 1.388 . S
C189 C190 1.366 . S
C190 C189 1.366 . S
C190 C191 1.414 1_545 S
C190 C193 1.499 . S
C191 H171 0.950 . S
C191 C190 1.414 1_565 S
C191 C192 1.374 . S
C192 H172 0.950 . S
C192 C188 1.385 1_565 S
C192 C191 1.374 . S
C193 C190 1.499 . S
C193 C194 1.373 . S
C193 C195 1.389 1_545 S
C194 H173 0.950 . S
C194 C193 1.373 . S
C194 C210 1.377 . S
C195 C193 1.389 1_565 S
C195 C196 1.524 . S
C195 C209 1.377 . S
C196 C195 1.524 . S
C196 C197 1.397 . S
C196 C201 1.363 . S
C197 H174 0.950 . S
C197 C196 1.397 . S
C197 C198 1.334 . S
C198 H175 0.950 . S
C198 C197 1.334 . S
C198 C199 1.287 . S
C199 C198 1.287 . S
C199 C200 1.524 . S
C199 H218 0.913 . S
C200 H176 0.950 . S
C200 C199 1.524 . S
C200 C201 1.415 . S
C201 H177 0.950 1_565 S
C201 C196 1.363 . S
C201 C200 1.415 . S
C202 H178 0.951 . S
C202 C203 1.366 1_565 S
C202 C204 1.388 . S
C203 C202 1.366 1_545 S
C203 C207 1.385 . S
C204 H179 0.951 . S
C204 C202 1.388 . S
C204 C205 1.366 1_565 S
C205 C204 1.366 1_545 S
C205 C206 1.414 . S
C205 C208 1.499 . S
C206 H180 0.950 . S
C206 C205 1.414 . S
C206 C207 1.374 . S
C207 H181 0.950 . S
C207 C203 1.385 . S
C207 C206 1.374 . S
C208 C205 1.499 . S
C208 C209 1.373 1_545 S
C208 C210 1.389 . S
C209 H182 0.950 . S
C209 C195 1.377 . S
C209 C208 1.373 1_565 S
C210 C194 1.377 . S
C210 C208 1.389 . S
C210 C211 1.524 . S
C211 C210 1.524 . S
C211 C212 1.397 . S
C211 C216 1.363 . S
C212 H183 0.950 . S
C212 C211 1.397 . S
C212 C213 1.334 . S
C213 H184 0.950 . S
C213 C212 1.334 . S
C213 C214 1.287 . S
C214 C213 1.287 . S
C214 C215 1.524 . S
C214 H217 0.999 . S
C215 H185 0.950 . S
C215 C214 1.524 . S
C215 C216 1.415 . S
C216 H186 0.950 . S
C216 C211 1.363 . S
C216 C215 1.415 . S
H217 C214 0.999 . S
H218 C199 0.913 . S
H219 C237 0.957 . S
H220 C239 0.951 . S
H221 C241 0.950 . S
H222 C242 0.950 . S
H223 C244 0.950 . S
H224 C247 0.950 . S
H225 C248 0.950 . S
H226 C250 0.950 . S
H227 C251 0.950 . S
H228 C252 0.951 . S
H229 C254 0.951 . S
H230 C256 0.950 . S
H231 C257 0.950 . S
H232 C259 0.950 . S
H233 C262 0.950 . S
H234 C263 0.950 . S
H235 C265 0.950 . S
H236 C266 0.950 . S
C237 H219 0.957 . S
C237 C238 1.361 1_455 S
C237 C239 1.387 . S
C238 C237 1.361 1_655 S
C238 C242 1.385 . S
C239 H220 0.951 . S
C239 C237 1.387 . S
C239 C240 1.366 1_455 S
C240 C239 1.366 1_655 S
C240 C241 1.414 . S
C240 C243 1.499 . S
C241 H221 0.950 . S
C241 C240 1.414 . S
C241 C242 1.374 . S
C242 H222 0.950 . S
C242 C238 1.385 . S
C242 C241 1.374 . S
C243 C240 1.499 . S
C243 C244 1.373 . S
C243 C245 1.389 1_655 S
C244 H223 0.950 . S
C244 C243 1.373 . S
C244 C260 1.377 . S
C245 C243 1.389 1_455 S
C245 C246 1.524 . S
C245 C259 1.377 . S
C246 C245 1.524 . S
C246 C247 1.397 . S
C246 C251 1.363 . S
C247 H224 0.950 . S
C247 C246 1.397 . S
C247 C248 1.334 . S
C248 H225 0.950 . S
C248 C247 1.334 . S
C248 C249 1.287 . S
C249 C248 1.287 . S
C249 C250 1.524 . S
C249 H268 0.913 . S
C250 H226 0.950 . S
C250 C249 1.524 . S
C250 C251 1.415 . S
C251 H227 0.950 . S
C251 C246 1.363 . S
C251 C250 1.415 . S
C252 H228 0.951 . S
C252 C253 1.366 . S
C252 C254 1.388 . S
C253 C252 1.366 . S
C253 C257 1.385 1_655 S
C254 H229 0.951 . S
C254 C252 1.388 . S
C254 C255 1.366 . S
C255 C254 1.366 . S
C255 C256 1.414 1_655 S
C255 C258 1.499 . S
C256 H230 0.950 . S
C256 C255 1.414 1_455 S
C256 C257 1.374 . S
C257 H231 0.950 . S
C257 C253 1.385 1_455 S
C257 C256 1.374 . S
C258 C255 1.499 . S
C258 C259 1.373 1_655 S
C258 C260 1.389 . S
C259 H232 0.950 . S
C259 C245 1.377 . S
C259 C258 1.373 1_455 S
C260 C244 1.377 . S
C260 C258 1.389 . S
C260 C261 1.524 . S
C261 C260 1.524 . S
C261 C262 1.397 . S
C261 C266 1.363 . S
C262 H233 0.950 . S
C262 C261 1.397 . S
C262 C263 1.334 . S
C263 H234 0.950 . S
C263 C262 1.334 . S
C263 C264 1.287 . S
C264 C263 1.287 . S
C264 C265 1.524 . S
C264 H267 0.999 . S
C265 H235 0.950 . S
C265 C264 1.524 . S
C265 C266 1.415 . S
C266 H236 0.950 . S
C266 C261 1.363 . S
C266 C265 1.415 . S
H267 C264 0.999 . S
H268 C249 0.913 . S
H269 C287 0.951 . S
H270 C289 0.951 . S
H271 C291 0.950 . S
H272 C292 0.950 . S
H273 C294 0.950 . S
H274 C297 0.950 . S
H275 C298 0.950 . S
H276 C300 0.950 . S
H277 C301 0.950 . S
H278 C302 0.951 . S
H279 C304 0.951 . S
H280 C306 0.950 . S
H281 C307 0.950 . S
H282 C309 0.950 . S
H283 C312 0.950 . S
H284 C313 0.950 . S
H285 C315 0.950 . S
H286 C316 0.950 . S
C287 H269 0.951 . S
C287 C288 1.366 . S
C287 C289 1.388 . S
C288 C287 1.366 . S
C288 C292 1.385 1_565 S
C289 H270 0.951 . S
C289 C287 1.388 . S
C289 C290 1.366 . S
C290 C289 1.366 . S
C290 C291 1.414 1_565 S
C290 C293 1.499 . S
C291 H271 0.950 . S
C291 C290 1.414 1_545 S
C291 C292 1.374 . S
C292 H272 0.950 . S
C292 C288 1.385 1_545 S
C292 C291 1.374 . S
C293 C290 1.499 . S
C293 C294 1.373 1_565 S
C293 C295 1.389 . S
C294 H273 0.950 . S
C294 C293 1.373 1_545 S
C294 C310 1.377 . S
C295 C293 1.389 . S
C295 C296 1.524 . S
C295 C309 1.377 . S
C296 C295 1.524 . S
C296 C297 1.397 . S
C296 C301 1.363 . S
C297 H274 0.950 . S
C297 C296 1.397 . S
C297 C298 1.334 . S
C298 H275 0.950 . S
C298 C297 1.334 . S
C298 C299 1.287 . S
C299 C298 1.287 . S
C299 C300 1.524 . S
C299 H318 0.913 . S
C300 H276 0.950 . S
C300 C299 1.524 . S
C300 C301 1.415 . S
C301 H277 0.950 . S
C301 C296 1.363 . S
C301 C300 1.415 . S
C302 H278 0.951 . S
C302 C303 1.366 . S
C302 C304 1.388 . S
C303 C302 1.366 . S
C303 C307 1.385 1_545 S
C304 H279 0.951 . S
C304 C302 1.388 . S
C304 C305 1.366 . S
C305 C304 1.366 . S
C305 C306 1.414 1_545 S
C305 C308 1.499 . S
C306 H280 0.950 . S
C306 C305 1.414 1_565 S
C306 C307 1.374 . S
C307 H281 0.950 . S
C307 C303 1.385 1_565 S
C307 C306 1.374 . S
C308 C305 1.499 . S
C308 C309 1.373 1_545 S
C308 C310 1.389 . S
C309 H282 0.950 . S
C309 C295 1.377 . S
C309 C308 1.373 1_565 S
C310 C294 1.377 . S
C310 C308 1.389 . S
C310 C311 1.524 . S
C311 C310 1.524 . S
C311 C312 1.397 . S
C311 C316 1.363 . S
C312 H283 0.950 . S
C312 C311 1.397 . S
C312 C313 1.334 . S
C313 H284 0.950 . S
C313 C312 1.334 . S
C313 C314 1.287 . S
C314 C313 1.287 . S
C314 C315 1.524 . S
C314 H317 0.999 . S
C315 H285 0.950 . S
C315 C314 1.524 . S
C315 C316 1.415 . S
C316 H286 0.950 . S
C316 C311 1.363 . S
C316 C315 1.415 . S
H317 C314 0.999 . S
H318 C299 0.913 . S
H319 C337 0.951 . S
H320 C339 0.951 . S
H321 C341 0.950 . S
H322 C342 0.950 . S
H323 C344 0.955 . S
H324 C347 0.950 . S
H325 C348 0.950 . S
H326 C350 0.950 . S
H327 C351 0.950 . S
H328 C352 0.951 . S
H329 C354 0.951 . S
H330 C356 0.950 . S
H331 C357 0.950 . S
H332 C359 0.950 . S
H333 C362 0.950 . S
H334 C363 0.950 . S
H335 C365 0.950 . S
H336 C366 0.950 . S
C337 H319 0.951 . S
C337 C338 1.366 . S
C337 C339 1.388 . S
C338 C337 1.366 . S
C338 C342 1.385 1_455 S
C339 H320 0.951 . S
C339 C337 1.388 . S
C339 C340 1.366 . S
C340 C339 1.366 . S
C340 C341 1.414 1_455 S
C340 C343 1.499 . S
C341 H321 0.950 . S
C341 C340 1.414 1_655 S
C341 C342 1.374 . S
C342 H322 0.950 . S
C342 C338 1.385 1_655 S
C342 C341 1.374 . S
C343 C340 1.499 . S
C343 C344 1.369 1_455 S
C343 C345 1.389 . S
C344 H323 0.955 . S
C344 C343 1.369 1_655 S
C344 C360 1.376 1_655 S
C345 C343 1.389 . S
C345 C346 1.524 . S
C345 C359 1.377 . S
C346 C345 1.524 . S
C346 C347 1.397 1_455 S
C346 C351 1.363 . S
C347 H324 0.950 . S
C347 C346 1.397 1_655 S
C347 C348 1.334 . S
C348 H325 0.950 . S
C348 C347 1.334 . S
C348 C349 1.287 1_655 S
C349 C348 1.287 1_455 S
C349 C350 1.524 . S
C349 H368 0.913 . S
C350 H326 0.950 . S
C350 C349 1.524 . S
C350 C351 1.415 . S
C351 H327 0.950 . S
C351 C346 1.363 . S
C351 C350 1.415 . S
C352 H328 0.951 . S
C352 C353 1.366 1_655 S
C352 C354 1.388 . S
C353 C352 1.366 1_455 S
C353 C357 1.385 . S
C354 H329 0.951 . S
C354 C352 1.388 . S
C354 C355 1.366 1_655 S
C355 C354 1.366 1_455 S
C355 C356 1.414 . S
C355 C358 1.499 . S
C356 H330 0.950 . S
C356 C355 1.414 . S
C356 C357 1.374 . S
C357 H331 0.950 . S
C357 C353 1.385 . S
C357 C356 1.374 . S
C358 C355 1.499 . S
C358 C359 1.373 . S
C358 C360 1.394 . S
C359 H332 0.950 . S
C359 C345 1.377 . S
C359 C358 1.373 . S
C360 C344 1.376 1_455 S
C360 C358 1.394 . S
C360 C361 1.522 1_455 S
C361 C360 1.522 1_655 S
C361 C362 1.397 1_655 S
C361 C366 1.363 . S
C362 H333 0.950 . S
C362 C361 1.397 1_455 S
C362 C363 1.334 . S
C363 H334 0.950 . S
C363 C362 1.334 . S
C363 C364 1.287 1_455 S
C364 C363 1.287 1_655 S
C364 C365 1.524 . S
C364 H367 0.999 . S
C365 H335 0.950 . S
C365 C364 1.524 . S
C365 C366 1.415 . S
C366 H336 0.950 . S
C366 C361 1.363 . S
C366 C365 1.415 . S
H367 C364 0.999 . S
H368 C349 0.913 . S
H369 C387 0.951 . S
H370 C389 0.951 . S
H371 C391 0.950 . S
H372 C392 0.950 . S
H373 C394 0.950 . S
H374 C397 0.950 1_545 S
H375 C398 0.950 . S
H376 C400 0.950 . S
H377 C401 0.950 . S
H378 C402 0.951 . S
H379 C404 0.951 . S
H380 C406 0.950 . S
H381 C407 0.950 . S
H382 C409 0.950 . S
H383 C412 0.950 . S
H384 C413 0.950 . S
H385 C415 0.950 . S
H386 C416 0.950 . S
C387 H369 0.951 . S
C387 C388 1.366 1_565 S
C387 C389 1.388 . S
C388 C387 1.366 1_545 S
C388 C392 1.385 . S
C389 H370 0.951 . S
C389 C387 1.388 . S
C389 C390 1.366 1_565 S
C390 C389 1.366 1_545 S
C390 C391 1.414 . S
C390 C393 1.499 . S
C391 H371 0.950 . S
C391 C390 1.414 . S
C391 C392 1.374 . S
C392 H372 0.950 . S
C392 C388 1.385 . S
C392 C391 1.374 . S
C393 C390 1.499 . S
C393 C394 1.373 . S
C393 C395 1.389 1_545 S
C394 H373 0.950 . S
C394 C393 1.373 . S
C394 C410 1.377 . S
C395 C393 1.389 1_565 S
C395 C396 1.524 . S
C395 C409 1.377 . S
C396 C395 1.524 . S
C396 C397 1.397 . S
C396 C401 1.363 . S
C397 H374 0.950 1_565 S
C397 C396 1.397 . S
C397 C398 1.334 . S
C398 H375 0.950 . S
C398 C397 1.334 . S
C398 C399 1.287 . S
C399 C398 1.287 . S
C399 C400 1.524 . S
C399 H418 0.913 . S
C400 H376 0.950 . S
C400 C399 1.524 . S
C400 C401 1.415 . S
C401 H377 0.950 . S
C401 C396 1.363 . S
C401 C400 1.415 . S
C402 H378 0.951 . S
C402 C403 1.366 . S
C402 C404 1.388 . S
C403 C402 1.366 . S
C403 C407 1.385 1_545 S
C404 H379 0.951 . S
C404 C402 1.388 . S
C404 C405 1.366 . S
C405 C404 1.366 . S
C405 C406 1.414 1_545 S
C405 C408 1.499 . S
C406 H380 0.950 . S
C406 C405 1.414 1_565 S
C406 C407 1.374 . S
C407 H381 0.950 . S
C407 C403 1.385 1_565 S
C407 C406 1.374 . S
C408 C405 1.499 . S
C408 C409 1.373 1_545 S
C408 C410 1.389 . S
C409 H382 0.950 . S
C409 C395 1.377 . S
C409 C408 1.373 1_565 S
C410 C394 1.377 . S
C410 C408 1.389 . S
C410 C411 1.524 . S
C411 C410 1.524 . S
C411 C412 1.397 . S
C411 C416 1.363 . S
C412 H383 0.950 . S
C412 C411 1.397 . S
C412 C413 1.334 . S
C413 H384 0.950 . S
C413 C412 1.334 . S
C413 C414 1.287 . S
C414 C413 1.287 . S
C414 C415 1.524 . S
C414 H417 0.999 . S
C415 H385 0.950 . S
C415 C414 1.524 . S
C415 C416 1.415 . S
C416 H386 0.950 . S
C416 C411 1.363 . S
C416 C415 1.415 . S
H417 C414 0.999 . S
H418 C399 0.913 . S
H419 C437 0.951 . S
H420 C439 0.951 . S
H421 C441 0.950 . S
H422 C442 0.950 . S
H423 C444 0.950 . S
H424 C447 0.950 . S
H425 C448 0.950 . S
H426 C450 0.950 . S
H427 C451 0.950 . S
H428 C452 0.951 . S
H429 C454 0.951 . S
H430 C456 0.950 . S
H431 C457 0.950 . S
H432 C459 0.950 . S
H433 C462 0.950 . S
H434 C463 0.950 . S
H435 C465 0.950 . S
H436 C466 0.950 . S
C437 H419 0.951 . S
C437 C438 1.366 1_455 S
C437 C439 1.388 . S
C438 C437 1.366 1_655 S
C438 C442 1.385 . S
C439 H420 0.951 . S
C439 C437 1.388 . S
C439 C440 1.366 1_455 S
C440 C439 1.366 1_655 S
C440 C441 1.414 . S
C440 C443 1.499 . S
C441 H421 0.950 . S
C441 C440 1.414 . S
C441 C442 1.374 . S
C442 H422 0.950 . S
C442 C438 1.385 . S
C442 C441 1.374 . S
C443 C440 1.499 . S
C443 C444 1.373 . S
C443 C445 1.389 . S
C444 H423 0.950 . S
C444 C443 1.373 . S
C444 C460 1.377 . S
C445 C443 1.389 . S
C445 C446 1.524 . S
C445 C459 1.377 1_655 S
C446 C445 1.524 . S
C446 C447 1.397 . S
C446 C451 1.363 1_655 S
C447 H424 0.950 . S
C447 C446 1.397 . S
C447 C448 1.334 . S
C448 H425 0.950 . S
C448 C447 1.334 . S
C448 C449 1.287 . S
C449 C448 1.287 . S
C449 C450 1.524 1_655 S
C449 H468 0.913 . S
C450 H426 0.950 . S
C450 C449 1.524 1_455 S
C450 C451 1.415 . S
C451 H427 0.950 . S
C451 C446 1.363 1_455 S
C451 C450 1.415 . S
C452 H428 0.951 . S
C452 C453 1.366 1_655 S
C452 C454 1.388 . S
C453 C452 1.366 1_455 S
C453 C457 1.385 . S
C454 H429 0.951 . S
C454 C452 1.388 . S
C454 C455 1.366 1_655 S
C455 C454 1.366 1_455 S
C455 C456 1.414 . S
C455 C458 1.499 . S
C456 H430 0.950 . S
C456 C455 1.414 . S
C456 C457 1.374 . S
C457 H431 0.950 . S
C457 C453 1.385 . S
C457 C456 1.374 . S
C458 C455 1.499 . S
C458 C459 1.373 . S
C458 C460 1.389 1_455 S
C459 H432 0.950 . S
C459 C445 1.377 1_455 S
C459 C458 1.373 . S
C460 C444 1.377 . S
C460 C458 1.389 1_655 S
C460 C461 1.524 1_655 S
C461 C460 1.524 1_455 S
C461 C462 1.397 . S
C461 C466 1.363 1_455 S
C462 H433 0.950 . S
C462 C461 1.397 . S
C462 C463 1.334 . S
C463 H434 0.950 . S
C463 C462 1.334 . S
C463 C464 1.287 . S
C464 C463 1.287 . S
C464 C465 1.524 1_455 S
C464 H467 0.999 . S
C465 H435 0.950 . S
C465 C464 1.524 1_655 S
C465 C466 1.415 . S
C466 H436 0.950 . S
C466 C461 1.363 1_655 S
C466 C465 1.415 . S
H467 C464 0.999 . S
H468 C449 0.913 . S
H469 C487 0.951 . S
H470 C489 0.951 . S
H471 C491 0.950 . S
H472 C492 0.950 . S
H473 C494 0.950 . S
H474 C497 0.950 . S
H475 C498 0.950 . S
H476 C500 0.950 . S
H477 C501 0.950 . S
H478 C502 0.951 . S
H479 C504 0.951 . S
H480 C506 0.950 . S
H481 C507 0.950 . S
H482 C509 0.950 . S
H483 C512 0.950 . S
H484 C513 0.950 . S
H485 C515 0.950 . S
H486 C516 0.950 . S
C487 H469 0.951 . S
C487 C488 1.366 1_545 S
C487 C489 1.388 . S
C488 C487 1.366 1_565 S
C488 C492 1.385 . S
C489 H470 0.951 . S
C489 C487 1.388 . S
C489 C490 1.366 1_545 S
C490 C489 1.366 1_565 S
C490 C491 1.414 . S
C490 C493 1.499 . S
C491 H471 0.950 . S
C491 C490 1.414 . S
C491 C492 1.374 . S
C492 H472 0.950 . S
C492 C488 1.385 . S
C492 C491 1.374 . S
C493 C490 1.499 . S
C493 C494 1.383 . S
C493 C495 1.380 1_565 S
C494 H473 0.950 . S
C494 C493 1.383 . S
C494 C510 1.377 . S
C495 C493 1.380 1_545 S
C495 C496 1.524 . S
C495 C509 1.377 . S
C496 C495 1.524 . S
C496 C497 1.397 . S
C496 C501 1.363 . S
C497 H474 0.950 . S
C497 C496 1.397 . S
C497 C498 1.334 . S
C498 H475 0.950 . S
C498 C497 1.334 . S
C498 C499 1.287 . S
C499 C498 1.287 . S
C499 C500 1.524 . S
C499 H518 0.913 . S
C500 H476 0.950 . S
C500 C499 1.524 . S
C500 C501 1.415 . S
C501 H477 0.950 . S
C501 C496 1.363 . S
C501 C500 1.415 . S
C502 H478 0.951 . S
C502 C503 1.366 1_565 S
C502 C504 1.388 . S
C503 C502 1.366 1_545 S
C503 C507 1.385 . S
C504 H479 0.951 . S
C504 C502 1.388 . S
C504 C505 1.351 1_565 S
C505 C504 1.351 1_545 S
C505 C506 1.431 . S
C505 C508 1.498 . S
C506 H480 0.950 . S
C506 C505 1.431 . S
C506 C507 1.374 . S
C507 H481 0.950 . S
C507 C503 1.385 . S
C507 C506 1.374 . S
C508 C505 1.498 . S
C508 C509 1.377 . S
C508 C510 1.386 1_545 S
C509 H482 0.950 . S
C509 C495 1.377 . S
C509 C508 1.377 . S
C510 C494 1.377 . S
C510 C508 1.386 1_565 S
C510 C511 1.524 . S
C511 C510 1.524 . S
C511 C512 1.397 . S
C511 C516 1.363 . S
C512 H483 0.950 . S
C512 C511 1.397 . S
C512 C513 1.334 . S
C513 H484 0.950 . S
C513 C512 1.334 . S
C513 C514 1.287 . S
C514 C513 1.287 . S
C514 C515 1.524 . S
C514 H517 0.999 . S
C515 H485 0.950 . S
C515 C514 1.524 . S
C515 C516 1.415 . S
C516 H486 0.950 . S
C516 C511 1.363 . S
C516 C515 1.415 . S
H517 C514 0.999 . S
H518 C499 0.913 . S
H519 C537 0.951 . S
H520 C539 0.951 . S
H521 C541 0.954 . S
H522 C542 0.950 . S
H523 C544 0.950 . S
H524 C547 0.950 . S
H525 C548 0.950 . S
H526 C550 0.950 . S
H527 C551 0.950 . S
H528 C552 0.951 . S
H529 C554 0.951 . S
H530 C556 0.950 . S
H531 C557 0.950 . S
H532 C559 0.950 . S
H533 C562 0.950 . S
H534 C563 0.950 . S
H535 C565 0.950 . S
H536 C566 0.950 . S
C537 H519 0.951 . S
C537 C538 1.366 . S
C537 C539 1.388 . S
C538 C537 1.366 . S
C538 C542 1.385 . S
C539 H520 0.951 . S
C539 C537 1.388 . S
C539 C540 1.366 . S
C540 C539 1.366 . S
C540 C541 1.414 . S
C540 C543 1.499 . S
C541 H521 0.954 . S
C541 C540 1.414 . S
C541 C542 1.374 . S
C542 H522 0.950 . S
C542 C538 1.385 . S
C542 C541 1.374 . S
C543 C540 1.499 . S
C543 C544 1.373 1_554 S
C543 C545 1.389 . S
C544 H523 0.950 . S
C544 C543 1.373 1_556 S
C544 C560 1.377 . S
C545 C543 1.389 . S
C545 C546 1.524 . S
C545 C559 1.377 . S
C546 C545 1.524 . S
C546 C547 1.397 . S
C546 C551 1.363 . S
C547 H524 0.950 . S
C547 C546 1.397 . S
C547 C548 1.334 . S
C548 H525 0.950 . S
C548 C547 1.334 . S
C548 C549 1.287 . S
C549 C548 1.287 . S
C549 C550 1.524 . S
C549 H568 0.913 . S
C550 H526 0.950 . S
C550 C549 1.524 . S
C550 C551 1.415 . S
C551 H527 0.950 . S
C551 C546 1.363 . S
C551 C550 1.415 . S
C552 H528 0.951 . S
C552 C553 1.366 . S
C552 C554 1.388 . S
C553 C552 1.366 . S
C553 C557 1.385 1_556 S
C554 H529 0.951 . S
C554 C552 1.388 . S
C554 C555 1.366 . S
C555 C554 1.366 . S
C555 C556 1.414 1_556 S
C555 C558 1.499 . S
C556 H530 0.950 . S
C556 C555 1.414 1_554 S
C556 C557 1.374 . S
C557 H531 0.950 . S
C557 C553 1.385 1_554 S
C557 C556 1.374 . S
C558 C555 1.499 . S
C558 C559 1.373 1_556 S
C558 C560 1.389 . S
C559 H532 0.950 . S
C559 C545 1.377 . S
C559 C558 1.373 1_554 S
C560 C544 1.377 . S
C560 C558 1.389 . S
C560 C561 1.524 . S
C561 C560 1.524 . S
C561 C562 1.397 . S
C561 C566 1.363 . S
C562 H533 0.950 . S
C562 C561 1.397 . S
C562 C563 1.334 . S
C563 H534 0.950 . S
C563 C562 1.334 . S
C563 C564 1.287 . S
C564 C563 1.287 . S
C564 C565 1.524 . S
C564 H567 0.999 . S
C565 H535 0.950 . S
C565 C564 1.524 . S
C565 C566 1.415 . S
C566 H536 0.950 . S
C566 C561 1.363 . S
C566 C565 1.415 . S
H567 C564 0.999 . S
H568 C549 0.913 . S
H569 C587 0.951 . S
H570 C589 0.951 . S
H571 C591 0.950 . S
H572 C592 0.950 . S
H573 C594 0.950 . S
H574 C597 0.950 . S
H575 C598 0.950 . S
H576 C600 0.950 . S
H577 C601 0.950 . S
H578 C602 0.951 . S
H579 C604 0.951 . S
H580 C606 0.950 . S
H581 C607 0.950 . S
H582 C609 0.950 . S
H583 C612 0.950 . S
H584 C613 0.950 . S
H585 C615 0.950 . S
H586 C616 0.950 . S
C587 H569 0.951 . S
C587 C588 1.366 . S
C587 C589 1.388 . S
C588 C587 1.366 . S
C588 C592 1.385 . S
C589 H570 0.951 . S
C589 C587 1.388 . S
C589 C590 1.366 . S
C590 C589 1.366 . S
C590 C591 1.414 . S
C590 C593 1.499 . S
C591 H571 0.950 . S
C591 C590 1.414 . S
C591 C592 1.374 . S
C592 H572 0.950 . S
C592 C588 1.385 . S
C592 C591 1.374 . S
C593 C590 1.499 . S
C593 C594 1.373 . S
C593 C595 1.389 1_556 S
C594 H573 0.950 . S
C594 C593 1.373 . S
C594 C610 1.377 . S
C595 C593 1.389 1_554 S
C595 C596 1.524 . S
C595 C609 1.377 . S
C596 C595 1.524 . S
C596 C597 1.397 . S
C596 C601 1.363 . S
C597 H574 0.950 . S
C597 C596 1.397 . S
C597 C598 1.334 . S
C598 H575 0.950 . S
C598 C597 1.334 . S
C598 C599 1.287 . S
C599 C598 1.287 . S
C599 C600 1.524 . S
C599 H618 0.913 . S
C600 H576 0.950 . S
C600 C599 1.524 . S
C600 C601 1.415 . S
C601 H577 0.950 . S
C601 C596 1.363 . S
C601 C600 1.415 . S
C602 H578 0.951 . S
C602 C603 1.366 . S
C602 C604 1.388 . S
C603 C602 1.366 . S
C603 C607 1.385 1_554 S
C604 H579 0.951 . S
C604 C602 1.388 . S
C604 C605 1.366 1_554 S
C605 C604 1.366 1_556 S
C605 C606 1.414 . S
C605 C608 1.499 . S
C606 H580 0.950 . S
C606 C605 1.414 . S
C606 C607 1.374 . S
C607 H581 0.950 . S
C607 C603 1.385 1_556 S
C607 C606 1.374 . S
C608 C605 1.499 . S
C608 C609 1.373 1_556 S
C608 C610 1.389 . S
C609 H582 0.950 . S
C609 C595 1.377 . S
C609 C608 1.373 1_554 S
C610 C594 1.377 . S
C610 C608 1.389 . S
C610 C611 1.524 . S
C611 C610 1.524 . S
C611 C612 1.397 . S
C611 C616 1.363 . S
C612 H583 0.950 . S
C612 C611 1.397 . S
C612 C613 1.334 . S
C613 H584 0.950 . S
C613 C612 1.334 . S
C613 C614 1.287 . S
C614 C613 1.287 . S
C614 C615 1.524 . S
C614 H617 0.999 . S
C615 H585 0.950 . S
C615 C614 1.524 . S
C615 C616 1.415 . S
C616 H586 0.950 . S
C616 C611 1.363 . S
C616 C615 1.415 . S
H617 C614 0.999 . S
H618 C599 0.913 . S
H619 C637 0.951 . S
H620 C639 0.951 . S
H621 C641 0.950 . S
H622 C642 0.950 . S
H623 C644 0.950 . S
H624 C647 0.950 . S
H625 C648 0.950 . S
H626 C650 0.950 . S
H627 C651 0.950 . S
H628 C652 0.951 . S
H629 C654 0.951 . S
H630 C656 0.950 . S
H631 C657 0.950 . S
H632 C659 0.950 . S
H633 C662 0.950 . S
H634 C663 0.950 . S
H635 C665 0.950 . S
H636 C666 0.950 . S
C637 H619 0.951 . S
C637 C638 1.366 1_554 S
C637 C639 1.388 . S
C638 C637 1.366 1_556 S
C638 C642 1.385 . S
C639 H620 0.951 . S
C639 C637 1.388 . S
C639 C640 1.366 1_554 S
C640 C639 1.366 1_556 S
C640 C641 1.414 . S
C640 C643 1.499 . S
C641 H621 0.950 . S
C641 C640 1.414 . S
C641 C642 1.374 . S
C642 H622 0.950 . S
C642 C638 1.385 . S
C642 C641 1.374 . S
C643 C640 1.499 . S
C643 C644 1.373 1_556 S
C643 C645 1.389 . S
C644 H623 0.950 . S
C644 C643 1.373 1_554 S
C644 C660 1.377 . S
C645 C643 1.389 . S
C645 C646 1.524 . S
C645 C659 1.377 . S
C646 C645 1.524 . S
C646 C647 1.397 . S
C646 C651 1.363 . S
C647 H624 0.950 . S
C647 C646 1.397 . S
C647 C648 1.334 . S
C648 H625 0.950 . S
C648 C647 1.334 . S
C648 C649 1.287 . S
C649 C648 1.287 . S
C649 C650 1.524 . S
C649 H668 0.913 . S
C650 H626 0.950 . S
C650 C649 1.524 . S
C650 C651 1.415 . S
C651 H627 0.950 . S
C651 C646 1.363 . S
C651 C650 1.415 . S
C652 H628 0.951 . S
C652 C653 1.368 . S
C652 C654 1.388 . S
C653 C652 1.368 . S
C653 C657 1.382 1_556 S
C654 H629 0.951 . S
C654 C652 1.388 . S
C654 C655 1.371 . S
C655 C654 1.371 . S
C655 C656 1.409 1_556 S
C655 C658 1.499 . S
C656 H630 0.950 . S
C656 C655 1.409 1_554 S
C656 C657 1.374 . S
C657 H631 0.950 . S
C657 C653 1.382 1_554 S
C657 C656 1.374 . S
C658 C655 1.499 . S
C658 C659 1.373 . S
C658 C660 1.389 1_556 S
C659 H632 0.950 . S
C659 C645 1.377 . S
C659 C658 1.373 . S
C660 C644 1.377 . S
C660 C658 1.389 1_554 S
C660 C661 1.524 . S
C661 C660 1.524 . S
C661 C662 1.397 . S
C661 C666 1.363 . S
C662 H633 0.950 . S
C662 C661 1.397 . S
C662 C663 1.334 . S
C663 H634 0.950 . S
C663 C662 1.334 . S
C663 C664 1.287 . S
C664 C663 1.287 . S
C664 C665 1.524 . S
C664 H667 0.999 . S
C665 H635 0.950 . S
C665 C664 1.524 . S
C665 C666 1.415 . S
C666 H636 0.950 . S
C666 C661 1.363 . S
C666 C665 1.415 . S
H667 C664 0.999 . S
H668 C649 0.913 . S
H669 C687 0.951 . S
H670 C689 0.951 . S
H671 C691 0.950 . S
H672 C692 0.950 . S
H673 C694 0.950 . S
H674 C697 0.950 . S
H675 C698 0.937 1_554 S
H676 C700 0.950 . S
H677 C701 0.950 . S
H678 C702 0.951 . S
H679 C704 0.951 . S
H680 C706 0.950 . S
H681 C707 0.950 . S
H682 C709 0.950 . S
H683 C712 0.950 1_556 S
H684 C713 0.948 1_556 S
H685 C715 0.950 . S
H686 C716 0.950 . S
C687 H669 0.951 . S
C687 C688 1.366 1_556 S
C687 C689 1.388 . S
C688 C687 1.366 1_554 S
C688 C692 1.385 . S
C689 H670 0.951 . S
C689 C687 1.388 . S
C689 C690 1.366 1_556 S
C690 C689 1.366 1_554 S
C690 C691 1.414 . S
C690 C693 1.499 . S
C691 H671 0.950 . S
C691 C690 1.414 . S
C691 C692 1.374 . S
C692 H672 0.950 . S
C692 C688 1.385 . S
C692 C691 1.374 . S
C693 C690 1.499 . S
C693 C694 1.373 . S
C693 C695 1.389 1_554 S
C694 H673 0.950 . S
C694 C693 1.373 . S
C694 C710 1.377 . S
C695 C693 1.389 1_556 S
C695 C696 1.524 . S
C695 C709 1.377 . S
C696 C695 1.524 . S
C696 C697 1.397 1_556 S
C696 C701 1.363 . S
C697 H674 0.950 . S
C697 C696 1.397 1_554 S
C697 C698 1.328 1_554 S
C698 H675 0.937 1_556 S
C698 C697 1.328 1_556 S
C698 C699 1.307 . S
C699 C698 1.307 . S
C699 C700 1.524 . S
C699 H718 0.913 . S
C700 H676 0.950 . S
C700 C699 1.524 . S
C700 C701 1.415 . S
C701 H677 0.950 . S
C701 C696 1.363 . S
C701 C700 1.415 . S
C702 H678 0.951 . S
C702 C703 1.366 . S
C702 C704 1.388 . S
C703 C702 1.366 . S
C703 C707 1.385 1_554 S
C704 H679 0.951 . S
C704 C702 1.388 . S
C704 C705 1.366 . S
C705 C704 1.366 . S
C705 C706 1.414 1_554 S
C705 C708 1.499 . S
C706 H680 0.950 . S
C706 C705 1.414 1_556 S
C706 C707 1.374 . S
C707 H681 0.950 . S
C707 C703 1.385 1_556 S
C707 C706 1.374 . S
C708 C705 1.499 . S
C708 C709 1.373 1_554 S
C708 C710 1.389 . S
C709 H682 0.950 . S
C709 C695 1.377 . S
C709 C708 1.373 1_556 S
C710 C694 1.377 . S
C710 C708 1.389 . S
C710 C711 1.524 . S
C711 C710 1.524 . S
C711 C712 1.397 . S
C711 C716 1.363 . S
C712 H683 0.950 1_554 S
C712 C711 1.397 . S
C712 C713 1.334 . S
C713 H684 0.948 1_554 S
C713 C712 1.334 . S
C713 C714 1.287 . S
C714 C713 1.287 . S
C714 C715 1.524 . S
C714 H717 0.999 . S
C715 H685 0.950 . S
C715 C714 1.524 . S
C715 C716 1.415 . S
C716 H686 0.950 . S
C716 C711 1.363 . S
C716 C715 1.415 . S
H717 C714 0.999 . S
H718 C699 0.913 . S
C153 C70 1.202 . S
C138 N2 1.162 . S
C203 C77 1.610 . S
C188 C39 1.598 . S
C253 C72 1.426 . S
C238 C7 1.419 . S
C303 C78 1.379 . S
C288 N35 1.328 . S
C338 N12 1.126 . S
C353 C71 1.170 . S
C403 C80 1.648 . S
C388 C30 1.643 . S
C438 C16 1.376 . S
C453 C69 1.388 . S
C488 N25 1.367 . S
C503 C79 1.412 . S
C538 C62 1.816 . S
C553 C74 1.832 . S
C588 N48 1.570 . S
C603 C73 1.627 . S
C653 C76 1.596 1_556 S
C638 N58 1.529 . S
C703 C75 1.871 . S
C688 C53 1.861 . S
