# Generated by pormake.
# Topology fgl, (4,4)-cn, num edge types: 1
# Building blocks:
#     Node 0, Type 0, BuildingBlock: ESEHIV_clean_sbu_0, # of connection points: 4
#     Node 1, Type 0, BuildingBlock: ESEHIV_clean_sbu_0, # of connection points: 4
#     Node 2, Type 0, BuildingBlock: ESEHIV_clean_sbu_0, # of connection points: 4
#     Node 3, Type 0, BuildingBlock: ESEHIV_clean_sbu_0, # of connection points: 4
#     Node 4, Type 0, BuildingBlock: ESEHIV_clean_sbu_0, # of connection points: 4
#     Node 5, Type 0, BuildingBlock: ESEHIV_clean_sbu_0, # of connection points: 4
#     Node 6, Type 0, BuildingBlock: ESEHIV_clean_sbu_0, # of connection points: 4
#     Node 7, Type 0, BuildingBlock: ESEHIV_clean_sbu_0, # of connection points: 4
#     Node 8, Type 0, BuildingBlock: ESEHIV_clean_sbu_0, # of connection points: 4
#     Node 9, Type 0, BuildingBlock: ESEHIV_clean_sbu_0, # of connection points: 4
#     Node 10, Type 0, BuildingBlock: ESEHIV_clean_sbu_0, # of connection points: 4
#     Node 11, Type 0, BuildingBlock: ESEHIV_clean_sbu_0, # of connection points: 4
#     Node 12, Type 0, BuildingBlock: ESEHIV_clean_sbu_0, # of connection points: 4
#     Node 13, Type 0, BuildingBlock: ESEHIV_clean_sbu_0, # of connection points: 4
#     Node 14, Type 0, BuildingBlock: ESEHIV_clean_sbu_0, # of connection points: 4
#     Node 15, Type 0, BuildingBlock: ESEHIV_clean_sbu_0, # of connection points: 4
#     Node 16, Type 0, BuildingBlock: ESEHIV_clean_sbu_0, # of connection points: 4
#     Node 17, Type 0, BuildingBlock: ESEHIV_clean_sbu_0, # of connection points: 4
#     Node 18, Type 1, BuildingBlock: KUFVIS_clean_sbu_0, # of connection points: 4
#     Node 19, Type 1, BuildingBlock: KUFVIS_clean_sbu_0, # of connection points: 4
#     Node 20, Type 1, BuildingBlock: KUFVIS_clean_sbu_0, # of connection points: 4
#     Node 21, Type 1, BuildingBlock: KUFVIS_clean_sbu_0, # of connection points: 4
#     Node 22, Type 1, BuildingBlock: KUFVIS_clean_sbu_0, # of connection points: 4
#     Node 23, Type 1, BuildingBlock: KUFVIS_clean_sbu_0, # of connection points: 4
#     Node 24, Type 1, BuildingBlock: KUFVIS_clean_sbu_0, # of connection points: 4
#     Node 25, Type 1, BuildingBlock: KUFVIS_clean_sbu_0, # of connection points: 4
#     Node 26, Type 1, BuildingBlock: KUFVIS_clean_sbu_0, # of connection points: 4
#     Node 27, Type 1, BuildingBlock: KUFVIS_clean_sbu_0, # of connection points: 4
#     Node 28, Type 1, BuildingBlock: KUFVIS_clean_sbu_0, # of connection points: 4
#     Node 29, Type 1, BuildingBlock: KUFVIS_clean_sbu_0, # of connection points: 4
#     Node 30, Type 1, BuildingBlock: KUFVIS_clean_sbu_0, # of connection points: 4
#     Node 31, Type 1, BuildingBlock: KUFVIS_clean_sbu_0, # of connection points: 4
#     Node 32, Type 1, BuildingBlock: KUFVIS_clean_sbu_0, # of connection points: 4
#     Node 33, Type 1, BuildingBlock: KUFVIS_clean_sbu_0, # of connection points: 4
#     Node 34, Type 1, BuildingBlock: KUFVIS_clean_sbu_0, # of connection points: 4
#     Node 35, Type 1, BuildingBlock: KUFVIS_clean_sbu_0, # of connection points: 4
#     Edge 36, Type (0, 1), None
#     Edge 37, Type (0, 1), None
#     Edge 38, Type (0, 1), None
#     Edge 39, Type (0, 1), None
#     Edge 40, Type (0, 1), None
#     Edge 41, Type (0, 1), None
#     Edge 42, Type (0, 1), None
#     Edge 43, Type (0, 1), None
#     Edge 44, Type (0, 1), None
#     Edge 45, Type (0, 1), None
#     Edge 46, Type (0, 1), None
#     Edge 47, Type (0, 1), None
#     Edge 48, Type (0, 1), None
#     Edge 49, Type (0, 1), None
#     Edge 50, Type (0, 1), None
#     Edge 51, Type (0, 1), None
#     Edge 52, Type (0, 1), None
#     Edge 53, Type (0, 1), None
#     Edge 54, Type (0, 1), None
#     Edge 55, Type (0, 1), None
#     Edge 56, Type (0, 1), None
#     Edge 57, Type (0, 1), None
#     Edge 58, Type (0, 1), None
#     Edge 59, Type (0, 1), None
#     Edge 60, Type (0, 1), None
#     Edge 61, Type (0, 1), None
#     Edge 62, Type (0, 1), None
#     Edge 63, Type (0, 1), None
#     Edge 64, Type (0, 1), None
#     Edge 65, Type (0, 1), None
#     Edge 66, Type (0, 1), None
#     Edge 67, Type (0, 1), None
#     Edge 68, Type (0, 1), None
#     Edge 69, Type (0, 1), None
#     Edge 70, Type (0, 1), None
#     Edge 71, Type (0, 1), None
#     Edge 72, Type (0, 1), None
#     Edge 73, Type (0, 1), None
#     Edge 74, Type (0, 1), None
#     Edge 75, Type (0, 1), None
#     Edge 76, Type (0, 1), None
#     Edge 77, Type (0, 1), None
#     Edge 78, Type (0, 1), None
#     Edge 79, Type (0, 1), None
#     Edge 80, Type (0, 1), None
#     Edge 81, Type (0, 1), None
#     Edge 82, Type (0, 1), None
#     Edge 83, Type (0, 1), None
#     Edge 84, Type (0, 1), None
#     Edge 85, Type (0, 1), None
#     Edge 86, Type (0, 1), None
#     Edge 87, Type (0, 1), None
#     Edge 88, Type (0, 1), None
#     Edge 89, Type (0, 1), None
#     Edge 90, Type (0, 1), None
#     Edge 91, Type (0, 1), None
#     Edge 92, Type (0, 1), None
#     Edge 93, Type (0, 1), None
#     Edge 94, Type (0, 1), None
#     Edge 95, Type (0, 1), None
#     Edge 96, Type (0, 1), None
#     Edge 97, Type (0, 1), None
#     Edge 98, Type (0, 1), None
#     Edge 99, Type (0, 1), None
#     Edge 100, Type (0, 1), None
#     Edge 101, Type (0, 1), None
#     Edge 102, Type (0, 1), None
#     Edge 103, Type (0, 1), None
#     Edge 104, Type (0, 1), None
#     Edge 105, Type (0, 1), None
#     Edge 106, Type (0, 1), None
#     Edge 107, Type (0, 1), None
# Relax obj value: 0.049
# Max RMSD: 0.151
# Mean RMSD: 0.081
data_MOF--net-fgl--node1-ESEHIV_clean_sbu_0--node2-KUFVIS_clean_sbu_0--edge1-none
_symmetry_space_group_name_H-M    P1
_symmetry_Int_Tables_number       1
_symmetry_cell_setting            triclinic
loop_
_symmetry_equiv_pos_as_xyz
'x, y, z'
_cell_length_a     33.702741
_cell_length_b     34.780375
_cell_length_c     23.750612
_cell_angle_alpha  88.171797
_cell_angle_beta   90.26579
_cell_angle_gamma 119.03589
loop_
_atom_site_label
_atom_site_type_symbol
_atom_site_fract_x
_atom_site_fract_y
_atom_site_fract_z
_atom_type_partial_charge
Cu0 Cu 0.08257 0.56703 0.06452 0.0
N1 N 0.07025 0.58221 0.13643 0.0
N2 N 0.05115 0.6168 0.20098 0.0
C3 C 0.0355 0.58252 0.1653 0.0
C4 C 0.09656 0.6377 0.19508 0.0
C5 C 0.10792 0.61624 0.15668 0.0
O6 O 0.09534 0.62142 1.02366 0.0
C7 C 0.12036 0.52227 0.12263 0.0
O8 O 0.10959 0.53212 0.17105 0.0
H9 H 0.99999 0.56172 0.15596 0.0
H10 H 0.14174 0.6274 0.14009 0.0
N11 N 0.04652 0.52241 1.01368 0.0
N12 N 0.03508 0.47588 0.94332 0.0
C13 C 0.0655 0.50543 0.97845 0.0
C14 C 1.00304 0.50486 0.99751 0.0
C15 C 0.99583 0.47588 0.95487 0.0
C16 C 0.05949 0.6253 1.02606 0.0
O17 O 1.02207 0.59229 0.04686 0.0
H18 H 0.101 0.5142 0.97915 0.0
H19 H 0.97802 0.51193 1.01564 0.0
O20 O 0.12733 0.54796 0.07954 0.0
H21 H 0.12005 0.6671 0.21647 0.0
H22 H 0.96392 0.45625 0.93398 0.0
Cu23 Cu 0.53893 0.58823 1.02762 0.0
N24 N 0.54578 0.61449 0.95394 0.0
N25 N 0.58581 0.64785 0.87378 0.0
C26 C 0.58392 0.62619 0.92316 0.0
C27 C 0.54689 0.65016 0.87358 0.0
C28 C 0.52235 0.62965 0.92293 0.0
O29 O 0.60064 0.63035 0.0568 0.0
C30 C 0.47268 0.49677 1.01642 0.0
O31 O 0.44496 0.51279 1.02303 0.0
H32 H 0.61069 0.61972 0.93778 0.0
H33 H 0.49076 0.62773 0.93614 0.0
N34 N 0.49672 0.58809 0.08007 0.0
N35 N 0.4539 0.56955 0.15917 0.0
C36 C 0.48193 0.56146 0.12713 0.0
C37 C 0.47727 0.61382 0.0824 0.0
C38 C 0.45131 0.60281 0.13122 0.0
C39 C 0.60797 0.66396 0.08576 0.0
O40 O 0.57366 0.66512 0.10978 0.0
H41 H 0.49186 0.53683 0.13771 0.0
H42 H 0.48234 0.63934 0.05143 0.0
O43 O 0.51599 0.52334 1.01663 0.0
H44 H 0.53812 0.66809 0.8426 0.0
H45 H 0.43144 0.6178 0.14464 0.0
Cu46 Cu 0.53546 0.06032 0.09402 0.0
N47 N 0.51063 1.0155 0.04296 0.0
N48 N 0.48268 0.99792 0.95665 0.0
C49 C 0.50351 0.02991 0.99332 0.0
C50 C 0.47766 0.96093 0.9834 0.0
C51 C 0.49504 0.972 0.03761 0.0
O52 O 0.47886 0.06273 0.12274 0.0
C53 C 0.61436 0.08573 0.03523 0.0
O54 O 0.60115 0.04508 0.05266 0.0
H55 H 0.51203 0.06389 0.98515 0.0
H56 H 0.49457 0.94982 0.07089 0.0
N57 N 0.56987 0.05604 0.15402 0.0
N58 N 0.62798 0.0811 0.21467 0.0
C59 C 0.60464 0.0919 0.17687 0.0
C60 C 0.57347 1.02148 0.17479 0.0
C61 C 0.60937 0.03681 0.21182 0.0
C62 C 0.45228 0.0725 0.09382 0.0
O63 O 0.46577 0.08972 0.04296 0.0
H64 H 0.61201 0.12523 0.16682 0.0
H65 H 0.55231 0.98779 0.16286 0.0
O66 O 0.58829 0.10224 0.04607 0.0
H67 H 0.4597 0.92817 0.96704 0.0
H68 H 0.62015 1.01663 0.23594 0.0
Cu69 Cu 0.56667 0.06971 0.55235 0.0
N70 N 0.62348 0.11238 0.52549 0.0
N71 N 0.67727 0.13785 0.45826 0.0
C72 C 0.6485 0.10267 0.48986 0.0
C73 C 0.67164 0.17143 0.47674 0.0
C74 C 0.63849 0.15562 0.51809 0.0
O75 O 0.58073 1.01952 0.54697 0.0
C76 C 0.47895 0.07407 0.52359 0.0
O77 O 0.45541 0.03735 0.5531 0.0
H78 H 0.63997 0.06953 0.47943 0.0
H79 H 0.62254 0.17304 0.53593 0.0
N80 N 0.55626 0.07185 0.62892 0.0
N81 N 0.51178 0.05303 0.70536 0.0
C82 C 0.51594 0.04353 0.65205 0.0
C83 C 0.5798 0.0994 0.6701 0.0
C84 C 0.55237 0.08713 0.71802 0.0
C85 C 0.61349 1.02436 0.58003 0.0
O86 O 0.62667 0.05479 0.6177 0.0
H87 H 0.48952 1.0168 0.62955 0.0
H88 H 0.61366 0.12707 0.66516 0.0
O89 O 0.52183 0.0878 0.51495 0.0
H90 H 0.68684 0.20422 0.45752 0.0
H91 H 0.56036 0.10318 0.75773 0.0
Cu92 Cu 0.0479 0.57099 0.5669 0.0
N93 N 0.06751 0.55016 0.63464 0.0
N94 N 0.06166 0.49583 0.69831 0.0
C95 C 0.07204 0.51296 0.64407 0.0
C96 C 0.05157 0.5241 0.72412 0.0
C97 C 0.05519 0.55659 0.68592 0.0
O98 O 1.00742 0.51442 0.53682 0.0
C99 C 0.06132 0.651 0.59443 0.0
O100 O 0.09794 0.65046 0.61255 0.0
H101 H 0.07961 0.49673 0.6113 0.0
H102 H 0.04455 0.58068 0.69395 0.0
N103 N 0.08029 0.60367 0.50019 0.0
N104 N 0.06896 0.64089 0.42711 0.0
C105 C 0.05273 0.60251 0.4576 0.0
C106 C 0.11696 0.64414 0.49398 0.0
C107 C 0.10998 0.66707 0.44933 0.0
C108 C 0.03306 0.50055 0.51684 0.0
O109 O 0.07705 0.52709 0.5141 0.0
H110 H 1.01808 0.57615 0.45465 0.0
H111 H 0.14426 0.65831 0.52385 0.0
O112 O 1.02689 0.614 0.58317 0.0
H113 H 0.04044 0.52074 0.76759 0.0
H114 H 0.13197 0.70123 0.43695 0.0
Cu115 Cu 0.52996 0.61483 0.50365 0.0
N116 N 0.5831 0.65454 0.46941 0.0
N117 N 0.65731 0.68372 0.46183 0.0
C118 C 0.61709 0.64787 0.45316 0.0
C119 C 0.6489 0.71375 0.48492 0.0
C120 C 0.60271 0.69613 0.48751 0.0
O121 O 0.54867 0.63881 0.58157 0.0
C122 C 0.48039 0.58857 0.40595 0.0
O123 O 0.51514 0.58176 0.3995 0.0
H124 H 0.61285 0.61609 0.44221 0.0
H125 H 0.58468 0.71029 0.50855 0.0
N126 N 0.51593 0.55609 0.51188 0.0
N127 N 0.46411 0.49001 0.54477 0.0
C128 C 0.47202 0.52862 0.52253 0.0
C129 C 0.53713 0.53251 0.52403 0.0
C130 C 0.50477 0.49123 0.54456 0.0
C131 C 0.58176 0.63517 0.60409 0.0
O132 O 0.59725 0.61253 0.57793 0.0
H133 H 0.44593 0.53627 0.51189 0.0
H134 H 0.57343 0.54514 0.52273 0.0
O135 O 0.47974 0.60812 0.45084 0.0
H136 H 0.6742 0.74564 0.49908 0.0
H137 H 0.51146 0.46625 0.56355 0.0
Cu138 Cu 0.74402 0.9054 0.38008 0.0
N139 N 0.77875 0.96678 0.36758 0.0
N140 N 0.7821 0.03295 0.36342 0.0
C141 C 0.75691 0.98943 0.35459 0.0
C142 C 0.82233 0.03853 0.38211 0.0
C143 C 0.81999 0.99735 0.38527 0.0
O144 O 0.70484 0.90223 0.44776 0.0
C145 C 0.74416 0.87918 0.26547 0.0
O146 O 0.78748 0.90704 0.2714 0.0
H147 H 0.72161 0.97344 0.34234 0.0
H148 H 0.84519 0.98999 0.40323 0.0
N149 N 0.77599 0.87474 0.39688 0.0
N150 N 0.78409 0.81471 0.38844 0.0
C151 C 0.75822 0.83375 0.37789 0.0
C152 C 0.81548 0.88256 0.4208 0.0
C153 C 0.82032 0.84512 0.4161 0.0
C154 C 0.72438 0.92583 0.49096 0.0
O155 O 0.76891 0.94707 0.49158 0.0
H156 H 0.72598 0.81782 0.35701 0.0
H157 H 0.83906 0.91302 0.43988 0.0
O158 O 0.71659 0.87638 0.30534 0.0
H159 H 0.85046 0.06946 0.39461 0.0
H160 H 0.84807 0.84069 0.43157 0.0
Cu161 Cu 0.20978 0.92315 0.3863 0.0
N162 N 0.15385 0.89681 0.34837 0.0
N163 N 0.09677 0.82961 0.32986 0.0
C164 C 0.14198 0.85652 0.32886 0.0
C165 C 0.07896 0.85453 0.34723 0.0
C166 C 0.11413 0.89618 0.35812 0.0
O167 O 0.18764 0.87623 0.45096 0.0
C168 C 0.24656 0.94827 0.27321 0.0
O169 O 0.20754 0.94679 0.26322 0.0
H170 H 0.16636 0.84514 0.3227 0.0
H171 H 0.11076 0.92193 0.37826 0.0
N172 N 0.23993 0.98189 0.41678 0.0
N173 N 0.30314 0.04525 0.44042 0.0
C174 C 0.28412 1.01158 0.40408 0.0
C175 C 0.23098 0.99855 0.46278 0.0
C176 C 0.26937 0.03705 0.47716 0.0
C177 C 0.15465 0.87647 0.47829 0.0
O178 O 0.14743 0.90959 0.46679 0.0
H179 H 0.30328 1.00664 0.3714 0.0
H180 H 0.19998 0.98308 0.48726 0.0
O181 O 0.25276 0.93381 0.32163 0.0
H182 H 0.04323 0.84272 0.35357 0.0
H183 H 0.27262 0.05631 0.51356 0.0
Cu184 Cu 0.1994 0.41162 0.40891 0.0
N185 N 0.17574 0.36538 0.35948 0.0
N186 N 0.14783 0.34866 0.27293 0.0
C187 C 0.18183 0.37717 0.30477 0.0
C188 C 0.12109 0.31489 0.30862 0.0
C189 C 0.13805 0.32577 0.36263 0.0
O190 O 0.14663 0.42042 0.4331 0.0
C191 C 0.28388 0.43906 0.36328 0.0
O192 O 0.26852 0.39702 0.37474 0.0
H193 H 0.20532 0.41054 0.29044 0.0
H194 H 0.12009 0.30978 0.40143 0.0
N195 N 0.2254 0.40119 0.47179 0.0
N196 N 0.27904 0.41687 0.53623 0.0
C197 C 0.25905 0.43326 0.50128 0.0
C198 C 0.226 0.36384 0.48569 0.0
C199 C 0.25907 0.37335 0.52517 0.0
C200 C 0.11308 0.41276 0.40072 0.0
O201 O 0.11737 0.40743 0.34713 0.0
H202 H 0.2693 0.46781 0.49605 0.0
H203 H 0.20548 0.33257 0.46639 0.0
O204 O 0.25702 0.45501 0.37103 0.0
H205 H 0.08736 0.28901 0.29887 0.0
H206 H 0.26772 0.34977 0.5444 0.0
Cu207 Cu 0.22977 0.37949 0.89143 0.0
N208 N 0.27501 0.42459 0.85104 0.0
N209 N 0.32469 0.45223 0.78082 0.0
C210 C 0.29928 0.41661 0.81325 0.0
C211 C 0.31784 0.48467 0.80066 0.0
C212 C 0.28662 0.46722 0.84429 0.0
O213 O 0.26679 0.34612 0.89788 0.0
C214 C 0.12896 0.35389 0.85795 0.0
O215 O 0.11465 0.32043 0.89414 0.0
H216 H 0.29444 0.38413 0.80536 0.0
H217 H 0.2713 0.4834 0.86669 0.0
N218 N 0.22769 0.40049 0.96144 0.0
N219 N 0.19156 0.41218 0.03106 0.0
C220 C 0.19095 0.40274 0.97676 0.0
C221 C 0.25448 0.41168 1.00717 0.0
C222 C 0.23168 0.41835 0.05101 0.0
C223 C 0.2857 0.33892 0.94177 0.0
O224 O 0.26642 0.33428 0.99119 0.0
H225 H 0.16289 0.39541 0.94927 0.0
H226 H 0.28739 0.41348 1.00923 0.0
O227 O 0.1726 0.3763 0.84857 0.0
H228 H 0.33169 0.51761 0.78221 0.0
H229 H 0.24283 0.42542 0.09411 0.0
Cu230 Cu 0.70864 0.9019 0.87594 0.0
N231 N 0.74875 0.88532 0.84394 0.0
N232 N 0.73842 0.82439 0.80191 0.0
C233 C 0.7375 0.84245 0.85089 0.0
C234 C 0.7552 0.85782 0.7633 0.0
C235 C 0.76302 0.89568 0.78981 0.0
O236 O 0.68268 0.85534 0.94164 0.0
C237 C 0.67852 0.90256 0.75474 0.0
O238 O 0.67145 0.86237 0.74858 0.0
H239 H 0.72054 0.82278 0.88824 0.0
H240 H 0.77044 0.92641 0.76841 0.0
N241 N 0.73424 0.9575 0.907 0.0
N242 N 0.74087 1.02287 0.92738 0.0
C243 C 0.71348 0.98254 0.90766 0.0
C244 C 0.77608 0.98275 0.92692 0.0
C245 C 0.78019 1.02296 0.93976 0.0
C246 C 0.69248 0.86077 0.99493 0.0
O247 O 0.70929 0.90053 1.01432 0.0
H248 H 0.67933 0.97162 0.89288 0.0
H249 H 0.80194 0.97294 0.93069 0.0
O250 O 0.6833 0.91722 0.80499 0.0
H251 H 0.75862 0.8546 0.71863 0.0
H252 H 0.81019 0.05046 0.95633 0.0
Cu253 Cu 0.21617 0.87803 0.86882 0.0
N254 N 0.19476 0.87541 0.79445 0.0
N255 N 0.15166 0.85391 0.7168 0.0
C256 C 0.16028 0.87642 0.76533 0.0
C257 C 0.18224 0.83932 0.71626 0.0
C258 C 0.20853 0.85304 0.76233 0.0
O259 O 0.17626 0.81907 0.89751 0.0
C260 C 0.29652 0.93119 0.82898 0.0
O261 O 0.27179 0.9497 0.81566 0.0
H262 H 0.1403 0.88995 0.78126 0.0
H263 H 0.23343 0.84338 0.7747 0.0
N264 N 0.22229 0.91972 0.92254 0.0
N265 N 0.25053 0.96238 0.9978 0.0
C266 C 0.24826 0.92826 0.96938 0.0
C267 C 0.20837 0.94992 0.92086 0.0
C268 C 0.2251 0.97576 0.9674 0.0
C269 C 0.13763 0.81675 0.90164 0.0
O270 O 0.13586 0.85319 0.89575 0.0
H271 H 0.26621 0.91059 0.9813 0.0
H272 H 0.18926 0.95408 0.88685 0.0
O273 O 0.27808 0.89451 0.85639 0.0
H274 H 0.18443 0.81813 0.68536 0.0
H275 H 0.22061 1.00371 0.97666 0.0
Cu276 Cu 0.41548 0.23241 0.75514 0.0
N277 N 0.38177 0.25745 0.72978 0.0
N278 N 0.36832 0.31065 0.69864 0.0
C279 C 0.40018 0.30045 0.71494 0.0
C280 C 0.32852 0.27247 0.70217 0.0
C281 C 0.33695 0.23958 0.72204 0.0
O282 O 0.42899 0.25802 0.83389 0.0
C283 C 0.46709 0.23274 0.6378 0.0
O284 O 0.51013 0.26218 0.64143 0.0
H285 H 0.43624 0.32323 0.71372 0.0
H286 H 0.31247 0.20531 0.73012 0.0
N287 N 0.38236 0.17304 0.77644 0.0
N288 N 0.3838 0.11016 0.79323 0.0
C289 C 0.38975 0.14167 0.75434 0.0
C290 C 0.36916 0.15946 0.83019 0.0
C291 C 0.3705 0.12104 0.84084 0.0
C292 C 0.43713 0.29633 0.8495 0.0
O293 O 0.45794 0.33001 0.81402 0.0
H294 H 0.40513 0.14492 0.71332 0.0
H295 H 0.3644 0.17884 0.86146 0.0
O296 O 0.44014 0.22661 0.67959 0.0
H297 H 0.29553 0.26867 0.69155 0.0
H298 H 0.36418 0.10351 0.88119 0.0
Cu299 Cu 0.86151 0.21901 0.68822 0.0
N300 N 0.86339 0.24927 0.61996 0.0
N301 N 0.89979 0.29969 0.55031 0.0
C302 C 0.89893 0.28872 0.60559 0.0
C303 C 0.86238 0.266 0.52882 0.0
C304 C 0.84003 0.23482 0.5719 0.0
O305 O 0.92706 0.25709 0.71639 0.0
C306 C 0.78623 0.12835 0.67464 0.0
O307 O 0.76232 0.14807 0.68422 0.0
H308 H 0.92615 0.30745 0.63411 0.0
H309 H 0.81144 0.20229 0.5672 0.0
N310 N 0.82316 0.2239 0.74072 0.0
N311 N 0.77747 0.20777 0.81575 0.0
C312 C 0.80375 0.19637 0.78564 0.0
C313 C 0.80864 0.25372 0.74238 0.0
C314 C 0.78089 0.24421 0.7892 0.0
C315 C 0.93854 0.29237 0.74455 0.0
O316 O 0.9062 0.29955 0.763 0.0
H317 H 0.80872 0.16843 0.79578 0.0
H318 H 0.81783 0.28056 0.71188 0.0
O319 O 0.83028 0.15216 0.67358 0.0
H320 H 0.8549 0.26147 0.48443 0.0
H321 H 0.76378 0.26209 0.80196 0.0
Cu322 Cu 0.86965 0.70647 0.69475 0.0
N323 N 0.8429 0.66466 0.63953 0.0
N324 N 0.80865 0.65108 0.55614 0.0
C325 C 0.84515 0.67868 0.58565 0.0
C326 C 0.78366 0.61668 0.59179 0.0
C327 C 0.80472 0.62545 0.64367 0.0
O328 O 0.81676 0.71361 0.72447 0.0
C329 C 0.95309 0.7349 0.64658 0.0
O330 O 0.93439 0.69182 0.64828 0.0
H331 H 0.86881 0.71204 0.57151 0.0
H332 H 0.78988 0.60779 0.68302 0.0
N333 N 0.89662 0.69114 0.75389 0.0
N334 N 0.95102 0.70511 0.81753 0.0
C335 C 0.93137 0.72224 0.78301 0.0
C336 C 0.89596 0.65307 0.76779 0.0
C337 C 0.92942 0.66155 0.80716 0.0
C338 C 0.78793 0.71608 0.69101 0.0
O339 O 0.79871 0.72304 0.63721 0.0
H340 H 0.94224 0.75689 0.7785 0.0
H341 H 0.87363 0.62175 0.74967 0.0
O342 O 0.92814 0.75202 0.65993 0.0
H343 H 0.74992 0.59024 0.58342 0.0
H344 H 0.93622 0.63721 0.82792 0.0
Cu345 Cu 0.84921 0.6941 0.18327 0.0
N346 N 0.8811 0.7057 0.11678 0.0
N347 N 0.93868 0.72136 0.05769 0.0
C348 C 0.90318 0.68877 0.08683 0.0
C349 C 0.93936 0.75892 0.07294 0.0
C350 C 0.90411 0.74917 0.10752 0.0
O351 O 0.89918 0.70021 0.23733 0.0
C352 C 0.79043 0.73263 0.14479 0.0
O353 O 0.77217 0.69639 0.11707 0.0
H354 H 0.89408 0.65435 0.08697 0.0
H355 H 0.89787 0.77278 0.1287 0.0
N356 N 0.80134 0.63723 0.19626 0.0
N357 N 0.78614 0.64724 0.2838 0.0
C358 C 0.77643 0.64815 0.22907 0.0
C359 C 0.81384 0.6148 0.2328 0.0
C360 C 0.80818 0.6241 0.28727 0.0
C361 C 0.91842 0.67571 0.23418 0.0
O362 O 0.90728 0.64834 0.19305 0.0
H363 H 0.757 0.66312 0.21312 0.0
H364 H 0.83141 0.5978 0.22024 0.0
O365 O 0.82196 0.73729 0.18033 0.0
H366 H 0.96351 0.79208 0.05881 0.0
H367 H 0.82073 0.61659 0.32554 0.0
Cu368 Cu 0.40544 0.25844 0.24167 0.0
N369 N 0.35198 0.20372 0.23568 0.0
N370 N 0.33255 0.13532 0.20751 0.0
C371 C 0.355 0.16649 0.24562 0.0
C372 C 0.31182 0.15212 0.17415 0.0
C373 C 0.3238 0.19397 0.19154 0.0
O374 O 0.43704 0.23675 0.3003 0.0
C375 C 0.43342 0.31073 0.12892 0.0
O376 O 0.45424 0.34719 0.15676 0.0
H377 H 0.3794 0.16482 0.27371 0.0
H378 H 0.31855 0.21795 0.16767 0.0
N379 N 0.40522 0.30887 0.27265 0.0
N380 N 0.41126 0.37627 0.28341 0.0
C381 C 0.38838 0.33666 0.25784 0.0
C382 C 0.43893 0.33207 0.30836 0.0
C383 C 0.44277 0.37263 0.31486 0.0
C384 C 0.42369 0.22772 0.35299 0.0
O385 O 0.39515 0.24026 0.37112 0.0
H386 H 0.36273 0.32945 0.22616 0.0
H387 H 0.4619 0.32141 0.32548 0.0
O388 O 0.41857 0.27347 0.15663 0.0
H389 H 0.29342 0.13737 0.13625 0.0
H390 H 0.46792 0.39816 0.34042 0.0
Cu391 Cu 0.89116 0.26213 0.1667 0.0
N392 N 0.86554 0.26323 0.09724 0.0
N393 N 0.812 0.23518 0.03131 0.0
C394 C 0.82197 0.25118 0.08366 0.0
C395 C 0.85069 0.23737 1.01206 0.0
C396 C 0.88343 0.25523 0.05186 0.0
O397 O 0.85353 0.20385 0.20131 0.0
C398 C 0.97533 0.32415 0.14013 0.0
O399 O 0.94998 0.34219 0.12885 0.0
H400 H 0.79657 0.24648 0.11416 0.0
H401 H 0.91598 0.25622 0.05103 0.0
N402 N 0.89428 0.30214 0.21832 0.0
N403 N 0.92375 0.34222 0.29322 0.0
C404 C 0.9173 0.30662 0.266 0.0
C405 C 0.88575 0.3361 0.21483 0.0
C406 C 0.90388 0.361 0.26174 0.0
C407 C 0.81709 0.20212 0.21899 0.0
O408 O 0.81328 0.23735 0.21286 0.0
H409 H 0.93102 0.2853 0.27879 0.0
H410 H 0.87049 0.34376 0.17911 0.0
O411 O 0.95575 0.28358 0.15591 0.0
H412 H 0.8538 0.22288 0.97374 0.0
H413 H 0.90492 0.39187 0.27024 0.0
Mn414 Mn 0.0346 0.71012 0.30072 0.0
Mn415 Mn 0.95392 0.60352 0.32086 0.0
C416 C 0.96253 0.68751 0.26153 0.0
C417 C 0.07466 0.78539 0.32159 0.0
C418 C 1.02829 0.63023 0.23564 0.0
O419 O 0.06104 0.69055 0.36762 0.0
O420 O 1.00764 0.61981 0.37038 0.0
C421 C 0.9309 0.61938 0.43494 0.0
N422 N 0.91759 0.60209 0.38316 0.0
C423 C 0.83898 0.56652 0.41108 0.0
C424 C 0.85171 0.58395 0.46476 0.0
C425 C 0.89788 0.61094 0.47653 0.0
C426 C 0.8733 0.57794 0.37057 0.0
H427 H 0.96642 0.63929 0.44443 0.0
C428 C 0.04553 0.65101 0.38695 0.0
O429 O 0.09308 0.76702 0.29272 0.0
O430 O 0.03409 0.7597 0.34159 0.0
N431 N 0.89866 0.57784 0.27941 0.0
C432 C 0.89244 0.56041 0.22733 0.0
C433 C 0.8487 0.52941 0.21052 0.0
C434 C 0.81173 0.51561 0.24786 0.0
C435 C 0.81888 0.53301 0.30172 0.0
C436 C 0.86334 0.56366 0.31623 0.0
H437 H 0.92086 0.56921 0.19921 0.0
O438 O 0.99876 0.72093 0.24098 0.0
O439 O 0.96922 0.66603 0.30378 0.0
O440 O 0.04865 0.67038 0.2507 0.0
O441 O 0.98938 0.60199 0.25523 0.0
C442 C 0.78379 0.52035 0.34206 0.0
C443 C 0.79372 0.53775 0.39639 0.0
H444 H 0.82638 0.57666 0.4973 0.0
H445 H 0.90802 0.62455 0.51782 0.0
H446 H 0.84361 0.51567 0.16916 0.0
H447 H 0.77809 0.49155 0.23484 0.0
H448 H 0.74904 0.49726 0.33173 0.0
H449 H 0.76644 0.52809 0.42687 0.0
Mn450 Mn 0.39907 0.47746 0.29906 0.0
Mn451 Mn 0.36295 0.55283 0.29331 0.0
C452 C 0.33276 0.46465 0.34749 0.0
C453 C 0.40731 0.41398 0.28151 0.0
C454 C 0.44078 0.56328 0.36769 0.0
O455 O 0.43094 0.51305 0.22614 0.0
O456 O 0.40943 0.56482 0.23341 0.0
C457 C 0.31804 0.52851 0.18202 0.0
N458 N 0.31609 0.53535 0.23791 0.0
C459 C 0.23825 0.51938 0.23022 0.0
C460 C 0.23967 0.51253 0.1726 0.0
C461 C 0.27973 0.51706 0.14844 0.0
C462 C 0.2776 0.531 0.26148 0.0
H463 H 0.34853 0.53174 0.16297 0.0
C464 C 0.43116 0.54844 0.2081 0.0
O465 O 0.43759 0.44875 0.30529 0.0
O466 O 0.37242 0.41661 0.26216 0.0
N467 N 0.31653 0.54477 0.34573 0.0
C468 C 0.31888 0.54684 0.40259 0.0
C469 C 0.28175 0.54304 0.43381 0.0
C470 C 0.2418 0.53536 0.40601 0.0
C471 C 0.23942 0.53136 0.34732 0.0
C472 C 0.27815 0.53687 0.31851 0.0
H473 H 0.34844 0.54968 0.42311 0.0
O474 O 0.35808 0.44812 0.36482 0.0
O475 O 0.34772 0.49022 0.30251 0.0
O476 O 0.44019 0.52991 0.34659 0.0
O477 O 0.41149 0.57524 0.35381 0.0
C478 C 0.19974 0.52056 0.31656 0.0
C479 C 0.19916 0.51455 0.25804 0.0
H480 H 0.21016 0.50354 0.14658 0.0
H481 H 0.28108 0.51176 0.104 0.0
H482 H 0.28354 0.54496 0.47922 0.0
H483 H 0.21278 0.5313 0.43025 0.0
H484 H 0.16923 0.51597 0.33765 0.0
H485 H 0.16829 0.50568 0.23499 0.0
Mn486 Mn 0.73972 0.10999 0.32096 0.0
Mn487 Mn 0.72118 0.1981 0.29963 0.0
C488 C 0.78357 0.16583 0.25425 0.0
C489 C 0.76705 0.0626 0.35392 0.0
C490 C 0.66251 0.10777 0.24942 0.0
O491 O 0.70715 0.10843 0.39573 0.0
O492 O 0.69922 0.1667 0.37147 0.0
C493 C 0.7767 0.2503 0.39501 0.0
N494 N 0.76469 0.24795 0.33976 0.0
C495 C 0.80266 0.32694 0.32938 0.0
C496 C 0.81474 0.33008 0.38616 0.0
C497 C 0.80171 0.29159 0.41906 0.0
C498 C 0.77817 0.28486 0.30739 0.0
H499 H 0.76648 0.22099 0.42109 0.0
C500 C 0.69576 0.13753 0.40736 0.0
O501 O 0.72733 0.04911 0.33365 0.0
O502 O 0.79138 0.10493 0.36046 0.0
N503 N 0.74041 0.23737 0.23473 0.0
C504 C 0.72349 0.22951 0.18168 0.0
C505 C 0.73378 0.26529 0.14376 0.0
C506 C 0.75985 0.30848 0.16105 0.0
C507 C 0.77525 0.31598 0.2163 0.0
C508 C 0.76495 0.27936 0.25204 0.0
H509 H 0.70242 0.19621 0.16886 0.0
O510 O 0.77708 0.1261 0.25003 0.0
O511 O 0.76399 0.17308 0.29659 0.0
O512 O 0.68234 0.09031 0.27642 0.0
O513 O 0.67395 0.14851 0.25421 0.0
C514 C 0.79931 0.35852 0.23763 0.0
C515 C 0.81283 0.36399 0.29426 0.0
H516 H 0.8335 0.36184 0.40511 0.0
H517 H 0.8098 0.29387 0.46331 0.0
H518 H 0.72233 0.26042 0.10089 0.0
H519 H 0.76726 0.33568 0.13169 0.0
H520 H 0.80741 0.38727 0.21089 0.0
H521 H 0.83123 0.39685 0.3103 0.0
Mn522 Mn 0.0462 0.40447 0.83525 0.0
Mn523 Mn 0.08553 0.38305 0.71809 0.0
C524 C 0.09534 0.37163 0.845 0.0
C525 C 0.04079 0.4498 0.90546 0.0
C526 C 0.98684 0.32771 0.75608 0.0
O527 O 0.04236 0.44654 0.77386 0.0
O528 O 0.07637 0.43647 0.69915 0.0
C529 C 0.1746 0.4632 0.70658 0.0
N530 N 0.14958 0.41867 0.71322 0.0
C531 C 0.21611 0.41037 0.71031 0.0
C532 C 0.24238 0.45597 0.70067 0.0
C533 C 0.22181 0.48266 0.70054 0.0
C534 C 0.16942 0.39301 0.71717 0.0
H535 H 0.15864 0.48362 0.70477 0.0
C536 C 0.05965 0.45812 0.72395 0.0
O537 O 1.00609 0.41636 0.88544 0.0
O538 O 0.08019 0.45693 0.88666 0.0
N539 N 0.09651 0.33435 0.73011 0.0
C540 C 0.06614 0.29079 0.7388 0.0
C541 C 0.08174 0.26006 0.74355 0.0
C542 C 0.12828 0.27425 0.73853 0.0
C543 C 0.15875 0.31909 0.72923 0.0
C544 C 0.14134 0.34836 0.72576 0.0
H545 H 1.0302 0.27926 0.74191 0.0
O546 O 0.06641 0.3678 0.88372 0.0
O547 O 0.0937 0.39428 0.80054 0.0
O548 O 0.99365 0.3481 0.80182 0.0
O549 O 1.01789 0.34112 0.71816 0.0
C550 C 0.20552 0.33571 0.72106 0.0
C551 C 0.23378 0.38102 0.71015 0.0
H552 H 0.27813 0.47098 0.69178 0.0
H553 H 0.24208 0.51789 0.6936 0.0
H554 H 0.05787 0.22546 0.75044 0.0
H555 H 0.14021 0.2504 0.74137 0.0
H556 H 0.21991 0.3138 0.72111 0.0
H557 H 0.26843 0.39227 0.69865 0.0
Mn558 Mn 0.66672 0.70086 0.72085 0.0
Mn559 Mn 0.72475 0.69977 0.83559 0.0
C560 C 0.74125 0.70961 0.70677 0.0
C561 C 0.60822 0.65891 0.65456 0.0
C562 C 0.72026 0.78056 0.79322 0.0
O563 O 0.61952 0.68168 0.78778 0.0
O564 O 0.6589 0.66763 0.85312 0.0
C565 C 0.69284 0.60423 0.84584 0.0
N566 N 0.72749 0.64645 0.84225 0.0
C567 C 0.78206 0.6237 0.86759 0.0
C568 C 0.74715 0.57989 0.87157 0.0
C569 C 0.70236 0.57005 0.85988 0.0
C570 C 0.77075 0.65606 0.85088 0.0
H571 H 0.65818 0.59684 0.83882 0.0
C572 C 0.62222 0.66628 0.83665 0.0
O573 O 0.61918 0.69923 0.66499 0.0
O574 O 0.63004 0.64305 0.68343 0.0
N575 N 0.78899 0.72867 0.82916 0.0
C576 C 0.81846 0.77265 0.82397 0.0
C577 C 0.86454 0.78819 0.83442 0.0
C578 C 0.8795 0.75855 0.85183 0.0
C579 C 0.84838 0.71346 0.85804 0.0
C580 C 0.80325 0.69974 0.845 0.0
H581 H 0.80686 0.79588 0.81339 0.0
O582 O 0.71874 0.71652 0.66703 0.0
O583 O 0.71714 0.69316 0.7534 0.0
O584 O 0.70026 0.76506 0.74672 0.0
O585 O 0.72413 0.75661 0.83255 0.0
C586 C 0.85979 0.68185 0.8795 0.0
C587 C 0.82717 0.63687 0.88229 0.0
H588 H 0.75426 0.55367 0.88421 0.0
H589 H 0.67514 0.53638 0.86311 0.0
H590 H 0.88816 0.82311 0.83141 0.0
H591 H 0.91481 0.77114 0.86246 0.0
H592 H 0.89326 0.69178 0.89548 0.0
H593 H 0.8368 0.61298 0.89786 0.0
Mn594 Mn 0.41835 1.01256 0.8418 0.0
Mn595 Mn 0.37217 1.00037 0.71421 0.0
C596 C 0.34438 0.95966 0.83364 0.0
C597 C 0.46259 1.00348 0.90983 0.0
C598 C 0.39235 0.07603 0.78784 0.0
O599 O 0.4716 0.04588 0.78593 0.0
O600 O 0.43562 1.01291 0.70737 0.0
C601 C 0.37157 0.91903 0.68014 0.0
N602 N 0.35003 0.94311 0.68543 0.0
C603 C 0.28684 0.89231 0.6315 0.0
C604 C 0.30867 0.86722 0.6243 0.0
C605 C 0.35064 0.87994 0.65017 0.0
C606 C 0.308 0.92909 0.66511 0.0
H607 H 0.4045 0.93007 0.69835 0.0
C608 C 0.47195 0.03627 0.73449 0.0
O609 O 0.45858 0.03854 0.90452 0.0
O610 O 0.44318 0.9736 0.87226 0.0
N611 N 0.30996 0.98773 0.71192 0.0
C612 C 0.29195 1.01405 0.72526 0.0
C613 C 0.24862 1.00409 0.70612 0.0
C614 C 0.22513 0.96876 0.67056 0.0
C615 C 0.24477 0.94307 0.65558 0.0
C616 C 0.287 0.95313 0.67836 0.0
H617 H 0.31027 0.04263 0.74998 0.0
O618 O 0.36107 0.97332 0.88294 0.0
O619 O 0.37181 0.97613 0.79069 0.0
O620 O 0.39764 0.05805 0.83228 0.0
O621 O 0.39267 0.06169 0.73903 0.0
C622 C 0.22458 0.90851 0.61774 0.0
C623 C 0.24524 0.88266 0.60632 0.0
H624 H 0.29335 0.83798 0.59951 0.0
H625 H 0.36734 0.86033 0.64572 0.0
H626 H 0.234 1.02451 0.71732 0.0
H627 H 0.19227 0.96192 0.65455 0.0
H628 H 0.19258 0.90085 0.59844 0.0
H629 H 0.22856 0.85518 0.57876 0.0
Mn630 Mn 0.70941 1.0084 0.6207 0.0
Mn631 Mn 0.61244 0.91265 0.6003 0.0
C632 C 0.64551 1.00649 0.57109 0.0
C633 C 0.75918 0.07984 0.66108 0.0
C634 C 0.69998 0.93609 0.53678 0.0
O635 O 0.70753 0.96782 0.6904 0.0
O636 O 0.64307 0.90543 0.66947 0.0
C637 C 0.56229 0.91358 0.70188 0.0
N638 N 0.56538 0.91273 0.64479 0.0
C639 C 0.49726 0.9179 0.63241 0.0
C640 C 0.49336 0.91872 0.69107 0.0
C641 C 0.52596 0.91651 0.72591 0.0
C642 C 0.53421 0.915 0.61085 0.0
H643 H 0.58753 0.91249 0.72896 0.0
C644 C 0.67615 0.92773 0.70266 0.0
O645 O 0.77478 0.0592 0.63196 0.0
O646 O 0.71569 0.0576 0.67079 0.0
N647 N 0.57948 0.91626 0.53643 0.0
C648 C 0.58901 0.91661 0.48062 0.0
C649 C 0.55836 0.9162 0.44023 0.0
C650 C 0.51844 0.91579 0.45753 0.0
C651 C 0.50994 0.9167 0.51511 0.0
C652 C 0.54116 0.91588 0.55353 0.0
H653 H 0.61945 0.91659 0.46679 0.0
O654 O 0.68728 0.03565 0.55909 0.0
O655 O 0.64372 0.97689 0.60685 0.0
O656 O 0.72267 0.97225 0.56226 0.0
O657 O 0.65833 0.90983 0.54896 0.0
C658 C 0.47194 0.9186 0.53597 0.0
C659 C 0.46632 0.92036 0.59439 0.0
H660 H 0.46564 0.92112 0.71004 0.0
H661 H 0.52323 0.91732 0.7712 0.0
H662 H 0.56531 0.91584 0.39586 0.0
H663 H 0.49455 0.91437 0.42608 0.0
H664 H 0.44707 0.91931 0.50761 0.0
H665 H 0.4382 0.92388 0.60937 0.0
Mn666 Mn 0.0696 0.76513 0.59727 0.0
Mn667 Mn 0.0518 0.85119 0.60398 0.0
C668 C 1.00358 0.75913 0.64101 0.0
C669 C 0.06444 0.6952 0.58672 0.0
C670 C 0.11782 0.84081 0.6776 0.0
O671 O 0.11121 0.803 0.52847 0.0
O672 O 0.10308 0.86129 0.55183 0.0
C673 C 1.02226 0.85226 0.48561 0.0
N674 N 1.014 0.84988 0.54208 0.0
C675 C 0.94221 0.84787 0.52578 0.0
C676 C 0.95011 0.85029 0.46774 0.0
C677 C 0.99031 0.85273 0.44763 0.0
C678 C 0.97538 0.84804 0.5617 0.0
H679 H 0.05303 0.85408 0.46965 0.0
C680 C 0.12311 0.84444 0.52342 0.0
O681 O 0.09917 0.72821 0.60721 0.0
O682 O 0.03485 0.70406 0.56254 0.0
N683 N 1.00254 0.84469 0.65028 0.0
C684 C 0.99846 0.83956 0.70697 0.0
C685 C 0.9611 0.83837 0.73447 0.0
C686 C 0.92686 0.8402 0.70257 0.0
C687 C 0.93062 0.84326 0.64365 0.0
C688 C 0.96964 0.84587 0.61907 0.0
H689 H 1.02321 0.8351 0.72969 0.0
O690 O 1.02437 0.73858 0.66043 0.0
O691 O 1.0245 0.78676 0.59941 0.0
O692 O 0.11481 0.81146 0.64562 0.0
O693 O 0.09094 0.85681 0.67222 0.0
C694 C 0.89693 0.84316 0.60837 0.0
C695 C 0.90273 0.84544 0.54944 0.0
H696 H 0.9257 0.85054 0.43813 0.0
H697 H 0.99639 0.85537 0.40282 0.0
H698 H 0.95837 0.83512 0.77992 0.0
H699 H 0.89752 0.83842 0.72353 0.0
H700 H 0.86633 0.84102 0.62609 0.0
H701 H 0.87654 0.84527 0.52281 0.0
Mn702 Mn 0.37536 0.4142 0.64374 0.0
Mn703 Mn 0.38645 0.51713 0.63045 0.0
C704 C 0.42743 0.463 0.57697 0.0
C705 C 0.37353 0.34985 0.67922 0.0
C706 C 0.31323 0.43732 0.57377 0.0
O707 O 0.34893 0.41993 0.71769 0.0
O708 O 0.3564 0.48579 0.69906 0.0
C709 C 0.45106 0.54584 0.72505 0.0
N710 N 0.43731 0.55477 0.6746 0.0
C711 C 0.49119 0.63144 0.67912 0.0
C712 C 0.50607 0.62328 0.73089 0.0
C713 C 0.48645 0.58013 0.75369 0.0
C714 C 0.45855 0.59534 0.65042 0.0
H715 H 0.43512 0.51281 0.74321 0.0
C716 C 0.34513 0.45291 0.73167 0.0
O717 O 0.34038 0.35045 0.65423 0.0
O718 O 0.41034 0.38768 0.6846 0.0
N719 N 0.41281 0.56281 0.57308 0.0
C720 C 0.38991 0.56655 0.52755 0.0
C721 C 0.40244 0.60824 0.5026 0.0
C722 C 0.43777 0.64609 0.52496 0.0
C723 C 0.45896 0.64235 0.57374 0.0
C724 C 0.44481 0.6 0.59729 0.0
H725 H 0.36075 0.53794 0.51227 0.0
O726 O 0.41039 0.42069 0.57412 0.0
O727 O 0.41527 0.47751 0.62053 0.0
O728 O 0.32542 0.41271 0.59895 0.0
O729 O 0.33288 0.47891 0.58142 0.0
C730 C 0.49072 0.67946 0.60256 0.0
C731 C 0.50733 0.67398 0.65498 0.0
H732 H 0.53294 0.64999 0.75272 0.0
H733 H 0.49793 0.57347 0.79359 0.0
H734 H 0.38432 0.61198 0.46719 0.0
H735 H 0.44677 0.67804 0.5059 0.0
H736 H 0.50216 0.71237 0.58509 0.0
H737 H 0.5321 0.70261 0.67658 0.0
Mn738 Mn 0.71723 0.79355 0.14562 0.0
Mn739 Mn 0.73863 0.7634 1.01846 0.0
C740 C 0.76565 0.75982 0.14417 0.0
C741 C 0.73164 0.84766 0.21734 0.0
C742 C 0.65291 0.70514 0.08508 0.0
O743 O 0.69895 0.82827 0.08551 0.0
O744 O 0.71067 0.80247 1.00599 0.0
C745 C 0.81022 0.854 0.98675 0.0
N746 N 0.79702 0.81058 0.99662 0.0
C747 C 0.87239 0.82318 0.97755 0.0
C748 C 0.8868 0.86794 0.96714 0.0
C749 C 0.85553 0.88343 0.97182 0.0
C750 C 0.82694 0.79549 0.99309 0.0
H751 H 0.78652 0.8663 0.9902 0.0
C752 C 0.69816 0.82669 0.03131 0.0
O753 O 0.69212 0.81359 0.21122 0.0
O754 O 0.76216 0.85085 0.18143 0.0
N755 N 0.76552 0.72656 1.01538 0.0
C756 C 0.74371 0.68194 1.01061 0.0
C757 C 0.76941 0.6605 1.00373 0.0
C758 C 0.81672 0.68551 0.99746 0.0
C759 C 0.83726 0.73155 0.99358 0.0
C760 C 0.81014 0.75093 1.00251 0.0
H761 H 0.70721 0.66282 1.01427 0.0
O762 O 0.74635 0.76236 0.1899 0.0
O763 O 0.7563 0.7778 0.09962 0.0
O764 O 0.66147 0.73295 0.12434 0.0
O765 O 0.67903 0.71305 0.04223 0.0
C766 C 0.88294 0.75878 0.97784 0.0
C767 C 0.90091 0.80465 0.97113 0.0
H768 H 0.92162 0.89059 0.95489 0.0
H769 H 0.86626 0.91791 0.96371 0.0
H770 H 0.75288 0.62496 1.00305 0.0
H771 H 0.83663 0.66899 0.99302 0.0
H772 H 0.90413 0.74452 0.96813 0.0
H773 H 0.93609 0.82496 0.95832 0.0
Mn774 Mn 0.32189 1.0247 0.1197 0.0
Mn775 Mn 0.38546 0.04771 0.23621 0.0
C776 C 0.40304 0.05854 0.10972 0.0
C777 C 0.27528 0.98244 0.04447 0.0
C778 C 0.3383 0.09962 0.19775 0.0
O779 O 0.27666 0.98489 0.18325 0.0
O780 O 0.32441 0.99744 0.25574 0.0
C781 C 0.39253 0.96692 0.25579 0.0
N782 N 0.41264 1.01132 0.24651 0.0
C783 C 0.48588 1.02001 0.26809 0.0
C784 C 0.46634 0.97442 0.27776 0.0
C785 C 0.4194 0.94766 0.27107 0.0
C786 C 0.45774 0.03716 0.25145 0.0
H787 H 0.35624 0.9465 0.25232 0.0
C788 C 0.28506 0.97687 0.23406 0.0
O789 O 0.27218 1.01441 0.06596 0.0
O790 O 0.30447 0.97271 0.06808 0.0
N791 N 0.4452 0.09529 0.22484 0.0
C792 C 0.45906 0.13837 0.21126 0.0
C793 C 0.50535 0.16929 0.2136 0.0
C794 C 0.53651 0.15566 0.23122 0.0
C795 C 0.52101 0.11114 0.24521 0.0
C796 C 0.47493 0.08168 0.24034 0.0
H797 H 0.435 0.14912 0.19921 0.0
O798 O 0.37738 0.06198 0.07107 0.0
O799 O 0.38019 0.03519 0.15437 0.0
O800 O 0.3241 0.07965 0.1521 0.0
O801 O 0.36024 0.08899 0.233 0.0
C802 C 0.54927 0.09492 0.26531 0.0
C803 C 0.53191 0.04939 0.27624 0.0
H804 H 0.48695 0.95972 0.29087 0.0
H805 H 0.40389 0.91246 0.27881 0.0
H806 H 0.51687 0.20361 0.20293 0.0
H807 H 0.57213 0.17963 0.23424 0.0
H808 H 0.58467 0.11744 0.27256 0.0
H809 H 0.55417 0.03733 0.29178 0.0
Mn810 Mn 0.10121 0.39176 0.16446 0.0
Mn811 Mn 0.06147 0.39889 0.03764 0.0
C812 C 1.02364 0.35317 0.14989 0.0
C813 C 0.13223 0.36365 0.2296 0.0
C814 C 0.10735 0.4756 0.11511 0.0
O815 O 0.15613 0.41281 0.11194 0.0
O816 O 0.12012 0.40078 0.02884 0.0
C817 C 0.04401 0.31497 0.98817 0.0
N818 N 1.02966 0.34396 1.0018 0.0
C819 C 0.96235 0.3066 0.9466 0.0
C820 C 0.97689 0.27696 0.93036 0.0
C821 C 1.01726 0.28041 0.95253 0.0
C822 C 0.98933 0.33891 0.9842 0.0
H823 H 0.07618 0.31913 1.00303 0.0
C824 C 0.15522 0.40955 0.05851 0.0
O825 O 0.14057 0.40411 0.22892 0.0
O826 O 0.10573 0.33838 0.19095 0.0
N827 N 1.004 0.39696 0.04173 0.0
C828 C 0.99115 0.42229 0.07091 0.0
C829 C 0.94709 0.41647 0.06375 0.0
C830 C 0.91823 0.38708 1.02375 0.0
C831 C 0.93274 0.36201 0.99362 0.0
C832 C 0.97537 0.36662 1.00607 0.0
H833 H 1.01403 0.44608 0.09992 0.0
O834 O 0.03909 0.36348 0.20059 0.0
O835 O 0.05377 0.36722 0.10993 0.0
O836 O 0.10506 0.45219 0.1583 0.0
O837 O 0.09377 0.45919 0.06717 0.0
C838 C 0.90656 0.33219 0.95225 0.0
C839 C 0.92181 0.30501 0.92793 0.0
H840 H 0.95695 0.25101 0.90177 0.0
H841 H 1.02839 0.25732 0.94078 0.0
H842 H 0.93608 0.43575 0.08741 0.0
H843 H 0.885 0.38389 1.01675 0.0
H844 H 0.87402 0.32884 0.94018 0.0
H845 H 0.90086 0.28135 0.89733 0.0
Mn846 Mn 0.41154 0.37416 0.97482 0.0
Mn847 Mn 0.33711 0.26557 0.98753 0.0
C848 C 0.33429 0.34585 0.94133 0.0
C849 C 0.45149 0.44878 1.00482 0.0
C850 C 0.41677 0.30336 0.90268 0.0
O851 O 0.43634 0.35154 0.04238 0.0
O852 O 0.38197 0.28035 0.05126 0.0
C853 C 0.29294 0.26582 0.09491 0.0
N854 N 0.28966 0.25595 0.03945 0.0
C855 C 0.20935 0.23084 0.04074 0.0
C856 C 0.21164 0.23905 0.09841 0.0
C857 C 0.25369 0.2569 0.1255 0.0
C858 C 0.24953 0.2397 1.01263 0.0
H859 H 0.32533 0.28083 0.1156 0.0
C860 C 0.41788 0.31378 0.06921 0.0
O861 O 0.4691 0.43359 0.96969 0.0
O862 O 0.41101 0.42071 1.02346 0.0
N863 N 0.2912 0.24753 0.93101 0.0
C864 C 0.29551 0.24606 0.87417 0.0
C865 C 0.257 0.23181 0.84022 0.0
C866 C 0.21452 0.21938 0.86486 0.0
C867 C 0.21089 0.22127 0.92334 0.0
C868 C 0.25033 0.23523 0.95522 0.0
H869 H 0.32805 0.25588 0.85472 0.0
O870 O 0.36769 0.38206 0.92024 0.0
O871 O 0.34809 0.32695 0.97895 0.0
O872 O 0.42903 0.34306 0.91455 0.0
O873 O 0.38407 0.27101 0.92965 0.0
C874 C 0.16986 0.21092 0.95104 0.0
C875 C 0.16909 0.21571 1.00969 0.0
H876 H 0.18152 0.23279 0.12196 0.0
H877 H 0.25595 0.2643 0.1697 0.0
H878 H 0.25999 0.23061 0.79509 0.0
H879 H 0.18502 0.2089 0.83839 0.0
H880 H 0.13884 0.20004 0.92746 0.0
H881 H 0.13752 0.20854 0.03032 0.0
Mn882 Mn 0.7219 0.11834 0.95267 0.0
Mn883 Mn 0.68868 0.1953 0.9512 0.0
C884 C 0.66094 0.10942 1.00988 0.0
C885 C 0.73255 0.05724 0.93421 0.0
C886 C 0.77061 0.20696 1.01035 0.0
O887 O 0.74714 0.14873 0.87709 0.0
O888 O 0.73423 0.20567 0.89011 0.0
C889 C 0.64516 0.18169 0.83963 0.0
N890 N 0.64171 0.18126 0.89684 0.0
C891 C 0.56744 0.17513 0.89059 0.0
C892 C 0.57005 0.17472 0.83179 0.0
C893 C 0.60949 0.17894 0.80626 0.0
C894 C 0.60462 0.17913 0.9217 0.0
H895 H 0.67539 0.18546 0.81922 0.0
C896 C 0.75218 0.18658 0.86254 0.0
O897 O 0.76348 0.0931 0.95452 0.0
O898 O 0.69414 0.05615 0.92228 0.0
N899 N 0.64393 0.1891 1.00525 0.0
C900 C 0.64754 0.19182 0.06204 0.0
C901 C 0.61247 0.1916 0.09408 0.0
C902 C 0.57325 0.187 0.06722 0.0
C903 C 0.5695 0.18249 1.00866 0.0
C904 C 0.6059 0.18349 0.97912 0.0
H905 H 0.67604 0.19177 0.08215 0.0
O906 O 0.68803 0.09414 1.02441 0.0
O907 O 0.67086 0.13177 0.96191 0.0
O908 O 0.76767 0.1737 0.98727 0.0
O909 O 0.73793 0.21562 1.00919 0.0
C910 C 0.53133 0.17748 0.97837 0.0
C911 C 0.53027 0.17376 0.91936 0.0
H912 H 0.54251 0.17237 0.80579 0.0
H913 H 0.61259 0.18039 0.76081 0.0
H914 H 0.61537 0.1943 0.13932 0.0
H915 H 0.54606 0.18646 0.09197 0.0
H916 H 0.5028 0.1769 0.99998 0.0
H917 H 0.50104 0.1706 0.8964 0.0
Mn918 Mn 0.03542 0.70998 0.95456 0.0
Mn919 Mn 1.02533 0.80277 0.9376 0.0
C920 C 0.09628 0.77588 0.91608 0.0
C921 C 0.05462 0.66017 0.99683 0.0
C922 C 0.98136 0.72545 0.85955 0.0
O923 O 0.9805 0.69383 1.01088 0.0
O924 O 0.98637 0.75793 0.98853 0.0
C925 C 0.057 0.82887 0.05432 0.0
N926 N 0.05607 0.83995 0.99895 0.0
C927 C 0.09932 0.91703 1.01716 0.0
C928 C 0.09952 0.90659 0.07464 0.0
C929 C 0.07885 0.86224 0.09318 0.0
C930 C 0.07824 0.88225 0.98039 0.0
H931 H 0.04097 0.79482 0.06871 0.0
C932 C 0.96767 0.72255 1.01688 0.0
O933 O 1.02434 0.64906 0.9583 0.0
O934 O 0.07241 0.70018 1.01448 0.0
N935 N 0.0609 0.85363 0.89098 0.0
C936 C 0.05763 0.8578 0.83462 0.0
C937 C 0.07421 0.90002 0.80901 0.0
C938 C 0.09512 0.93748 0.84175 0.0
C939 C 0.09797 0.93245 0.90005 0.0
C940 C 0.07935 0.88961 0.92318 0.0
H941 H 0.04236 0.82856 0.81066 0.0
O942 O 0.09206 0.73777 0.90567 0.0
O943 O 0.06471 0.77548 0.94707 0.0
O944 O 0.99462 0.70234 0.88789 0.0
O945 O 0.99249 0.76514 0.87208 0.0
C946 C 0.11777 0.96818 0.93629 0.0
C947 C 0.11906 0.96047 0.9948 0.0
H948 H 0.11578 0.9323 0.10477 0.0
H949 H 0.07937 0.85382 0.13734 0.0
H950 H 0.07235 0.90409 0.76397 0.0
H951 H 0.10866 0.96988 0.82172 0.0
H952 H 0.13262 1.00169 0.91953 0.0
H953 H 0.13519 0.98814 1.02217 0.0
Mn954 Mn 0.4258 0.15243 0.5107 0.0
Mn955 Mn 0.44226 0.11221 0.39064 0.0
C956 C 0.4574 0.10369 0.51569 0.0
C957 C 0.45087 0.20483 0.58601 0.0
C958 C 0.34813 0.07735 0.44317 0.0
O959 O 0.42365 0.19471 0.44573 0.0
O960 O 0.44049 0.16818 0.36921 0.0
C961 C 0.53567 0.18286 0.36665 0.0
N962 N 0.50596 0.13963 0.37808 0.0
C963 C 0.56624 0.12179 0.38501 0.0
C964 C 0.59746 0.16599 0.37174 0.0
C965 C 0.58217 0.19668 0.36291 0.0
C966 C 0.52038 0.10994 0.38744 0.0
H967 H 0.52397 0.20658 0.36044 0.0
C968 C 0.43171 0.19628 0.39199 0.0
O969 O 0.40836 0.1798 0.57487 0.0
O970 O 0.47879 0.20232 0.55077 0.0
N971 N 0.44451 0.05896 0.40345 0.0
C972 C 0.40964 1.01744 0.41373 0.0
C973 C 0.41897 0.98255 0.42161 0.0
C974 C 0.46399 0.99084 0.41915 0.0
C975 C 0.49918 0.03372 0.40842 0.0
C976 C 0.4877 0.06697 0.39908 0.0
H977 H 0.37494 1.01085 0.41589 0.0
O978 O 0.43705 0.10917 0.55832 0.0
O979 O 0.45758 0.12648 0.47049 0.0
O980 O 0.36217 0.10192 0.48623 0.0
O981 O 0.37521 0.08051 0.40342 0.0
C982 C 0.5451 0.0447 0.40568 0.0
C983 C 0.57828 0.08841 0.39238 0.0
H984 H 0.63315 0.17688 0.36749 0.0
H985 H 0.60617 0.23082 0.35301 0.0
H986 H 0.39161 0.94941 0.42962 0.0
H987 H 0.47108 0.96401 0.42477 0.0
H988 H 0.55508 1.01954 0.41117 0.0
H989 H 0.61229 0.09512 0.38424 0.0
Mn990 Mn 0.98931 0.38543 0.42097 0.0
Mn991 Mn 0.0407 0.38312 0.54021 0.0
C992 C 0.06904 0.41036 0.41912 0.0
C993 C 0.94794 0.35759 0.34058 0.0
C994 C 1.0182 0.45437 0.50976 0.0
O995 O 0.9352 0.34085 0.47007 0.0
O996 O 0.97418 0.34915 0.54896 0.0
C997 C 1.01138 0.28774 0.54351 0.0
N998 N 0.04493 0.33043 0.54508 0.0
C999 C 0.09973 0.30841 0.57227 0.0
C1000 C 0.06594 0.26421 0.57114 0.0
C1001 C 1.0216 0.25381 0.55608 0.0
C1002 C 0.08787 0.34073 0.55747 0.0
H1003 H 0.977 0.27956 0.53339 0.0
C1004 C 0.93701 0.33188 0.52218 0.0
O1005 O 0.94791 0.38991 0.36572 0.0
O1006 O 0.97213 0.34085 0.36211 0.0
N1007 N 0.10493 0.4137 0.54197 0.0
C1008 C 0.13325 0.45798 0.54193 0.0
C1009 C 0.17848 0.47406 0.55767 0.0
C1010 C 0.19345 0.4444 0.57489 0.0
C1011 C 0.16366 0.39892 0.57423 0.0
C1012 C 0.11941 0.38487 0.55695 0.0
H1013 H 0.12123 0.48083 0.53091 0.0
O1014 O 0.04933 0.42363 0.38234 0.0
O1015 O 0.04102 0.38176 0.45689 0.0
O1016 O 0.99645 0.43708 0.4659 0.0
O1017 O 0.03853 0.43825 0.53903 0.0
C1018 C 0.17579 0.36697 0.59123 0.0
C1019 C 0.14438 0.32181 0.58907 0.0
H1020 H 0.07357 0.23806 0.58219 0.0
H1021 H 0.9952 0.2198 0.55522 0.0
H1022 H 0.2014 0.50914 0.55804 0.0
H1023 H 0.22806 0.4571 0.58855 0.0
H1024 H 0.20945 0.37683 0.60577 0.0
H1025 H 0.15472 0.2978 0.60163 0.0
Mn1026 Mn 0.76629 0.69054 0.43717 0.0
Mn1027 Mn 0.70012 0.68832 0.33038 0.0
C1028 C 0.69792 0.68692 0.45295 0.0
C1029 C 0.79448 0.66301 0.50828 0.0
C1030 C 0.77111 0.77177 0.37816 0.0
O1031 O 0.78786 0.66619 0.37518 0.0
O1032 O 0.75728 0.6901 0.30929 0.0
C1033 C 0.67298 0.5945 0.30496 0.0
N1034 N 0.66298 0.62788 0.3099 0.0
C1035 C 0.58686 0.58141 0.27778 0.0
C1036 C 0.59762 0.54797 0.26863 0.0
C1037 C 0.64055 0.55419 0.2836 0.0
C1038 C 0.62031 0.62057 0.30037 0.0
H1039 H 0.7046 0.59744 0.31854 0.0
C1040 C 0.77649 0.66782 0.32443 0.0
O1041 O 0.81857 0.702 0.48544 0.0
O1042 O 0.75432 0.63864 0.48788 0.0
N1043 N 0.64387 0.68854 0.33989 0.0
C1044 C 0.63757 0.72309 0.35317 0.0
C1045 C 0.59518 0.72063 0.34481 0.0
C1046 C 0.56014 0.68355 0.32019 0.0
C1047 C 0.56783 0.64919 0.30459 0.0
C1048 C 0.61045 0.65295 0.31541 0.0
H1049 H 0.66453 0.75217 0.37078 0.0
O1050 O 0.73074 0.70616 0.48855 0.0
O1051 O 0.70518 0.67047 0.40855 0.0
O1052 O 0.79282 0.75343 0.39981 0.0
O1053 O 0.73441 0.74998 0.35123 0.0
C1054 C 0.53484 0.61147 0.27831 0.0
C1055 C 0.54403 0.5772 0.26588 0.0
H1056 H 0.57277 0.51695 0.25172 0.0
H1057 H 0.64863 0.52789 0.27891 0.0
H1058 H 0.58981 0.7476 0.35645 0.0
H1059 H 0.52759 0.68191 0.31309 0.0
H1060 H 0.50196 0.6082 0.26902 0.0
H1061 H 0.51794 0.5476 0.24752 0.0
loop_
_geom_bond_atom_site_label_1
_geom_bond_atom_site_label_2
_geom_bond_distance
_geom_bond_site_symmetry_2
_ccdc_geom_bond_type
Cu0 N1 1.999 . S
Cu0 O6 1.974 1_554 S
Cu0 N11 1.985 1_554 S
Cu0 O20 1.959 . S
N1 Cu0 1.999 . S
N1 C3 1.263 . S
N1 C5 1.389 . S
N2 C3 1.358 . S
N2 C4 1.400 . S
C3 N1 1.263 . S
C3 N2 1.358 . S
C3 H9 0.930 . S
C4 N2 1.400 . S
C4 C5 1.351 . S
C4 H21 0.930 . S
C5 N1 1.389 . S
C5 C4 1.351 . S
C5 H10 0.930 . S
O6 Cu0 1.974 1_556 S
O6 C16 1.282 . S
C7 O8 1.261 . S
C7 O20 1.251 . S
O8 C7 1.261 . S
H9 C3 0.930 . S
H10 C5 0.930 . S
N11 Cu0 1.985 1_556 S
N11 C13 1.335 . S
N11 C14 1.390 . S
N12 C13 1.345 . S
N12 C15 1.336 . S
C13 N11 1.335 . S
C13 N12 1.345 . S
C13 H18 0.930 . S
C14 N11 1.390 . S
C14 C15 1.346 . S
C14 H19 0.930 . S
C15 N12 1.336 . S
C15 C14 1.346 . S
C15 H22 0.929 . S
C16 O6 1.282 . S
C16 O17 1.216 1_455 S
O17 C16 1.216 1_655 S
H18 C13 0.930 . S
H19 C14 0.930 . S
O20 Cu0 1.959 . S
O20 C7 1.251 . S
H21 C4 0.930 . S
H22 C15 0.929 . S
Cu23 N24 1.999 1_554 S
Cu23 O29 1.974 . S
Cu23 N34 1.985 . S
Cu23 O43 1.959 1_554 S
N24 Cu23 1.999 1_556 S
N24 C26 1.263 . S
N24 C28 1.389 . S
N25 C26 1.358 . S
N25 C27 1.400 . S
C26 N24 1.263 . S
C26 N25 1.358 . S
C26 H32 0.930 . S
C27 N25 1.400 . S
C27 C28 1.351 . S
C27 H44 0.930 . S
C28 N24 1.389 . S
C28 C27 1.351 . S
C28 H33 0.930 . S
O29 Cu23 1.974 . S
O29 C39 1.282 . S
C30 O31 1.261 1_556 S
C30 O43 1.251 . S
O31 C30 1.261 1_554 S
H32 C26 0.930 . S
H33 C28 0.930 . S
N34 Cu23 1.985 . S
N34 C36 1.335 . S
N34 C37 1.390 . S
N35 C36 1.345 . S
N35 C38 1.336 . S
C36 N34 1.335 . S
C36 N35 1.345 . S
C36 H41 0.930 . S
C37 N34 1.390 . S
C37 C38 1.346 . S
C37 H42 0.930 . S
C38 N35 1.336 . S
C38 C37 1.346 . S
C38 H45 0.929 . S
C39 O29 1.282 . S
C39 O40 1.216 . S
O40 C39 1.216 . S
H41 C36 0.930 . S
H42 C37 0.930 . S
O43 Cu23 1.959 1_556 S
O43 C30 1.251 . S
H44 C27 0.930 . S
H45 C38 0.929 . S
Cu46 N47 1.999 1_554 S
Cu46 O52 1.974 . S
Cu46 N57 1.985 . S
Cu46 O66 1.959 . S
N47 Cu46 1.999 1_556 S
N47 C49 1.263 . S
N47 C51 1.389 . S
N48 C49 1.358 . S
N48 C50 1.400 . S
C49 N47 1.263 . S
C49 N48 1.358 . S
C49 H55 0.930 . S
C50 N48 1.400 . S
C50 C51 1.351 . S
C50 H67 0.930 . S
C51 N47 1.389 . S
C51 C50 1.351 . S
C51 H56 0.930 . S
O52 Cu46 1.974 . S
O52 C62 1.282 . S
C53 O54 1.261 . S
C53 O66 1.251 1_546 S
O54 C53 1.261 . S
H55 C49 0.930 . S
H56 C51 0.930 . S
N57 Cu46 1.985 . S
N57 C59 1.335 . S
N57 C60 1.390 1_565 S
N58 C59 1.345 1_545 S
N58 C61 1.336 . S
C59 N57 1.335 . S
C59 N58 1.345 1_565 S
C59 H64 0.930 . S
C60 N57 1.390 1_545 S
C60 C61 1.346 . S
C60 H65 0.930 . S
C61 N58 1.336 . S
C61 C60 1.346 . S
C61 H68 0.929 . S
C62 O52 1.282 . S
C62 O63 1.216 1_565 S
O63 C62 1.216 1_545 S
H64 C59 0.930 . S
H65 C60 0.930 . S
O66 Cu46 1.959 . S
O66 C53 1.251 1_564 S
H67 C50 0.930 . S
H68 C61 0.929 . S
Cu69 N70 1.999 . S
Cu69 O75 1.974 . S
Cu69 N80 1.985 . S
Cu69 O89 1.959 . S
N70 Cu69 1.999 . S
N70 C72 1.263 . S
N70 C74 1.389 . S
N71 C72 1.358 . S
N71 C73 1.400 . S
C72 N70 1.263 . S
C72 N71 1.358 . S
C72 H78 0.930 . S
C73 N71 1.400 . S
C73 C74 1.351 . S
C73 H90 0.930 . S
C74 N70 1.389 . S
C74 C73 1.351 . S
C74 H79 0.930 . S
O75 Cu69 1.974 . S
O75 C85 1.282 1_545 S
C76 O77 1.261 . S
C76 O89 1.251 . S
O77 C76 1.261 . S
H78 C72 0.930 . S
H79 C74 0.930 . S
N80 Cu69 1.985 . S
N80 C82 1.335 . S
N80 C83 1.368 1_545 S
N81 C82 1.345 . S
N81 C84 1.336 1_545 S
C82 N80 1.335 . S
C82 N81 1.345 . S
C82 H87 0.930 . S
C83 N80 1.368 1_565 S
C83 C84 1.340 . S
C83 H88 0.955 . S
C84 N81 1.336 1_565 S
C84 C83 1.340 . S
C84 H91 0.929 . S
C85 O75 1.282 1_565 S
C85 O86 1.216 . S
O86 C85 1.216 . S
H87 C82 0.930 . S
H88 C83 0.955 . S
O89 Cu69 1.959 . S
O89 C76 1.251 . S
H90 C73 0.930 . S
H91 C84 0.929 . S
Cu92 N93 1.999 . S
Cu92 O98 1.974 . S
Cu92 N103 1.985 . S
Cu92 O112 1.959 . S
N93 Cu92 1.999 . S
N93 C95 1.263 . S
N93 C97 1.389 . S
N94 C95 1.358 . S
N94 C96 1.400 . S
C95 N93 1.263 . S
C95 N94 1.358 . S
C95 H101 0.930 . S
C96 N94 1.400 . S
C96 C97 1.351 . S
C96 H113 0.930 . S
C97 N93 1.389 . S
C97 C96 1.351 . S
C97 H102 0.930 1_455 S
O98 Cu92 1.974 . S
O98 C108 1.282 . S
C99 O100 1.261 . S
C99 O112 1.251 . S
O100 C99 1.261 . S
H101 C95 0.930 . S
H102 C97 0.930 1_655 S
N103 Cu92 1.985 . S
N103 C105 1.335 . S
N103 C106 1.390 . S
N104 C105 1.345 . S
N104 C107 1.336 . S
C105 N103 1.335 . S
C105 N104 1.345 . S
C105 H110 0.930 . S
C106 N103 1.390 . S
C106 C107 1.346 . S
C106 H111 0.930 . S
C107 N104 1.336 . S
C107 C106 1.346 . S
C107 H114 0.929 . S
C108 O98 1.282 . S
C108 O109 1.216 . S
O109 C108 1.216 . S
H110 C105 0.930 . S
H111 C106 0.930 . S
O112 Cu92 1.959 . S
O112 C99 1.251 . S
H113 C96 0.930 . S
H114 C107 0.929 . S
Cu115 N116 1.999 . S
Cu115 O121 1.974 . S
Cu115 N126 1.985 . S
Cu115 O135 1.959 . S
N116 Cu115 1.999 . S
N116 C118 1.263 . S
N116 C120 1.389 . S
N117 C118 1.358 . S
N117 C119 1.400 . S
C118 N116 1.263 . S
C118 N117 1.358 . S
C118 H124 0.930 . S
C119 N117 1.400 . S
C119 C120 1.351 . S
C119 H136 0.930 . S
C120 N116 1.389 . S
C120 C119 1.351 . S
C120 H125 0.930 . S
O121 Cu115 1.974 . S
O121 C131 1.282 . S
C122 O123 1.261 . S
C122 O135 1.251 . S
O123 C122 1.261 . S
H124 C118 0.930 . S
H125 C120 0.930 . S
N126 Cu115 1.985 . S
N126 C128 1.335 . S
N126 C129 1.390 . S
N127 C128 1.345 . S
N127 C130 1.336 . S
C128 N126 1.335 . S
C128 N127 1.345 . S
C128 H133 0.930 . S
C129 N126 1.390 . S
C129 C130 1.346 . S
C129 H134 0.930 . S
C130 N127 1.336 . S
C130 C129 1.346 . S
C130 H137 0.929 . S
C131 O121 1.282 . S
C131 O132 1.216 . S
O132 C131 1.216 . S
H133 C128 0.930 . S
H134 C129 0.930 . S
O135 Cu115 1.959 . S
O135 C122 1.251 . S
H136 C119 0.930 . S
H137 C130 0.929 . S
Cu138 N139 1.999 . S
Cu138 O144 1.974 . S
Cu138 N149 1.985 . S
Cu138 O158 1.959 . S
N139 Cu138 1.999 . S
N139 C141 1.263 . S
N139 C143 1.389 . S
N140 C141 1.358 . S
N140 C142 1.400 . S
C141 N139 1.263 . S
C141 N140 1.358 . S
C141 H147 0.930 . S
C142 N140 1.400 . S
C142 C143 1.351 . S
C142 H159 0.930 . S
C143 N139 1.389 . S
C143 C142 1.351 . S
C143 H148 0.930 . S
O144 Cu138 1.974 . S
O144 C154 1.282 . S
C145 O146 1.261 . S
C145 O158 1.251 . S
O146 C145 1.261 . S
H147 C141 0.930 . S
H148 C143 0.930 . S
N149 Cu138 1.985 . S
N149 C151 1.335 . S
N149 C152 1.390 . S
N150 C151 1.345 . S
N150 C153 1.336 . S
C151 N149 1.335 . S
C151 N150 1.345 . S
C151 H156 0.930 . S
C152 N149 1.390 . S
C152 C153 1.346 . S
C152 H157 0.930 . S
C153 N150 1.336 . S
C153 C152 1.346 . S
C153 H160 0.929 . S
C154 O144 1.282 . S
C154 O155 1.216 . S
O155 C154 1.216 . S
H156 C151 0.930 . S
H157 C152 0.930 . S
O158 Cu138 1.959 . S
O158 C145 1.251 . S
H159 C142 0.930 . S
H160 C153 0.929 . S
Cu161 N162 1.999 . S
Cu161 O167 1.974 . S
Cu161 N172 1.985 . S
Cu161 O181 1.959 . S
N162 Cu161 1.999 . S
N162 C164 1.263 . S
N162 C166 1.389 . S
N163 C164 1.358 . S
N163 C165 1.400 . S
C164 N162 1.263 . S
C164 N163 1.358 . S
C164 H170 0.930 . S
C165 N163 1.400 . S
C165 C166 1.351 . S
C165 H182 0.930 . S
C166 N162 1.389 . S
C166 C165 1.351 . S
C166 H171 0.930 . S
O167 Cu161 1.974 . S
O167 C177 1.282 . S
C168 O169 1.261 . S
C168 O181 1.251 . S
O169 C168 1.261 . S
H170 C164 0.930 . S
H171 C166 0.930 . S
N172 Cu161 1.985 . S
N172 C174 1.335 . S
N172 C175 1.390 . S
N173 C174 1.324 1_545 S
N173 C176 1.337 1_545 S
C174 N172 1.335 . S
C174 N173 1.324 1_565 S
C174 H179 0.930 . S
C175 N172 1.390 . S
C175 C176 1.346 . S
C175 H180 0.930 . S
C176 N173 1.337 1_565 S
C176 C175 1.346 . S
C176 H183 0.930 . S
C177 O167 1.282 . S
C177 O178 1.216 . S
O178 C177 1.216 . S
H179 C174 0.930 . S
H180 C175 0.930 . S
O181 Cu161 1.959 . S
O181 C168 1.251 . S
H182 C165 0.930 . S
H183 C176 0.930 . S
Cu184 N185 1.999 . S
Cu184 O190 1.974 . S
Cu184 N195 1.985 . S
Cu184 O204 1.959 . S
N185 Cu184 1.999 . S
N185 C187 1.263 . S
N185 C189 1.389 . S
N186 C187 1.358 . S
N186 C188 1.400 . S
C187 N185 1.263 . S
C187 N186 1.358 . S
C187 H193 0.930 . S
C188 N186 1.400 . S
C188 C189 1.351 . S
C188 H205 0.930 . S
C189 N185 1.389 . S
C189 C188 1.351 . S
C189 H194 0.930 . S
O190 Cu184 1.974 . S
O190 C200 1.282 . S
C191 O192 1.261 . S
C191 O204 1.251 . S
O192 C191 1.261 . S
H193 C187 0.930 . S
H194 C189 0.930 . S
N195 Cu184 1.985 . S
N195 C197 1.335 . S
N195 C198 1.390 . S
N196 C197 1.345 . S
N196 C199 1.336 . S
C197 N195 1.335 . S
C197 N196 1.345 . S
C197 H202 0.930 . S
C198 N195 1.390 . S
C198 C199 1.346 . S
C198 H203 0.930 . S
C199 N196 1.336 . S
C199 C198 1.346 . S
C199 H206 0.929 . S
C200 O190 1.282 . S
C200 O201 1.216 . S
O201 C200 1.216 . S
H202 C197 0.930 . S
H203 C198 0.930 . S
O204 Cu184 1.959 . S
O204 C191 1.251 . S
H205 C188 0.930 . S
H206 C199 0.929 . S
Cu207 N208 1.999 . S
Cu207 O213 1.974 . S
Cu207 N218 1.985 . S
Cu207 O227 1.959 . S
N208 Cu207 1.999 . S
N208 C210 1.263 . S
N208 C212 1.389 . S
N209 C210 1.358 . S
N209 C211 1.400 . S
C210 N208 1.263 . S
C210 N209 1.358 . S
C210 H216 0.930 . S
C211 N209 1.400 . S
C211 C212 1.351 . S
C211 H228 0.930 . S
C212 N208 1.389 . S
C212 C211 1.351 . S
C212 H217 0.930 . S
O213 Cu207 1.974 . S
O213 C223 1.282 . S
C214 O215 1.261 . S
C214 O227 1.251 . S
O215 C214 1.261 . S
H216 C210 0.930 . S
H217 C212 0.930 . S
N218 Cu207 1.985 . S
N218 C220 1.335 . S
N218 C221 1.390 . S
N219 C220 1.345 1_554 S
N219 C222 1.336 . S
C220 N218 1.335 . S
C220 N219 1.345 1_556 S
C220 H225 0.930 . S
C221 N218 1.390 . S
C221 C222 1.346 1_556 S
C221 H226 0.930 . S
C222 N219 1.336 . S
C222 C221 1.346 1_554 S
C222 H229 0.929 . S
C223 O213 1.282 . S
C223 O224 1.216 . S
O224 C223 1.216 . S
H225 C220 0.930 . S
H226 C221 0.930 . S
O227 Cu207 1.959 . S
O227 C214 1.251 . S
H228 C211 0.930 . S
H229 C222 0.929 . S
Cu230 N231 1.999 . S
Cu230 O236 1.974 . S
Cu230 N241 1.985 . S
Cu230 O250 1.959 . S
N231 Cu230 1.999 . S
N231 C233 1.263 . S
N231 C235 1.389 . S
N232 C233 1.358 . S
N232 C234 1.400 . S
C233 N231 1.263 . S
C233 N232 1.358 . S
C233 H239 0.930 . S
C234 N232 1.400 . S
C234 C235 1.351 . S
C234 H251 0.930 . S
C235 N231 1.389 . S
C235 C234 1.351 . S
C235 H240 0.930 . S
O236 Cu230 1.974 . S
O236 C246 1.282 . S
C237 O238 1.261 . S
C237 O250 1.251 . S
O238 C237 1.261 . S
H239 C233 0.930 . S
H240 C235 0.930 . S
N241 Cu230 1.985 . S
N241 C243 1.335 . S
N241 C244 1.390 . S
N242 C243 1.349 . S
N242 C245 1.340 . S
C243 N241 1.335 . S
C243 N242 1.349 . S
C243 H248 0.930 . S
C244 N241 1.390 . S
C244 C245 1.346 . S
C244 H249 0.930 . S
C245 N242 1.340 . S
C245 C244 1.346 . S
C245 H252 0.929 . S
C246 O236 1.282 . S
C246 O247 1.216 . S
O247 C246 1.216 . S
H248 C243 0.930 . S
H249 C244 0.930 . S
O250 Cu230 1.959 . S
O250 C237 1.251 . S
H251 C234 0.930 . S
H252 C245 0.929 . S
Cu253 N254 1.999 . S
Cu253 O259 1.974 . S
Cu253 N264 1.985 . S
Cu253 O273 1.959 . S
N254 Cu253 1.999 . S
N254 C256 1.263 . S
N254 C258 1.389 . S
N255 C256 1.358 . S
N255 C257 1.400 . S
C256 N254 1.263 . S
C256 N255 1.358 . S
C256 H262 0.930 . S
C257 N255 1.400 . S
C257 C258 1.351 . S
C257 H274 0.930 . S
C258 N254 1.389 . S
C258 C257 1.351 . S
C258 H263 0.930 . S
O259 Cu253 1.974 . S
O259 C269 1.282 . S
C260 O261 1.261 . S
C260 O273 1.251 . S
O261 C260 1.261 . S
H262 C256 0.930 . S
H263 C258 0.930 . S
N264 Cu253 1.985 . S
N264 C266 1.335 . S
N264 C267 1.390 . S
N265 C266 1.345 . S
N265 C268 1.336 1_556 S
C266 N264 1.335 . S
C266 N265 1.345 . S
C266 H271 0.930 . S
C267 N264 1.390 . S
C267 C268 1.346 1_556 S
C267 H272 0.930 . S
C268 N265 1.336 1_554 S
C268 C267 1.346 1_554 S
C268 H275 0.929 . S
C269 O259 1.282 . S
C269 O270 1.216 . S
O270 C269 1.216 . S
H271 C266 0.930 . S
H272 C267 0.930 . S
O273 Cu253 1.959 . S
O273 C260 1.251 . S
H274 C257 0.930 . S
H275 C268 0.929 . S
Cu276 N277 1.999 . S
Cu276 O282 1.974 . S
Cu276 N287 1.985 . S
Cu276 O296 1.959 . S
N277 Cu276 1.999 . S
N277 C279 1.263 . S
N277 C281 1.389 . S
N278 C279 1.358 . S
N278 C280 1.400 . S
C279 N277 1.263 . S
C279 N278 1.358 . S
C279 H285 0.930 . S
C280 N278 1.400 . S
C280 C281 1.351 . S
C280 H297 0.930 . S
C281 N277 1.389 . S
C281 C280 1.351 . S
C281 H286 0.930 . S
O282 Cu276 1.974 . S
O282 C292 1.282 . S
C283 O284 1.261 . S
C283 O296 1.251 . S
O284 C283 1.261 . S
H285 C279 0.930 . S
H286 C281 0.930 . S
N287 Cu276 1.985 . S
N287 C289 1.335 . S
N287 C290 1.390 . S
N288 C289 1.345 . S
N288 C291 1.336 . S
C289 N287 1.335 . S
C289 N288 1.345 . S
C289 H294 0.930 . S
C290 N287 1.390 . S
C290 C291 1.346 . S
C290 H295 0.930 . S
C291 N288 1.336 . S
C291 C290 1.346 . S
C291 H298 0.929 . S
C292 O282 1.282 . S
C292 O293 1.216 . S
O293 C292 1.216 . S
H294 C289 0.930 . S
H295 C290 0.930 . S
O296 Cu276 1.959 . S
O296 C283 1.251 . S
H297 C280 0.930 . S
H298 C291 0.929 . S
Cu299 N300 1.999 . S
Cu299 O305 1.974 . S
Cu299 N310 1.985 . S
Cu299 O319 1.959 . S
N300 Cu299 1.999 . S
N300 C302 1.263 . S
N300 C304 1.389 . S
N301 C302 1.358 . S
N301 C303 1.400 . S
C302 N300 1.263 . S
C302 N301 1.358 . S
C302 H308 0.930 . S
C303 N301 1.400 . S
C303 C304 1.351 . S
C303 H320 0.930 . S
C304 N300 1.389 . S
C304 C303 1.351 . S
C304 H309 0.930 . S
O305 Cu299 1.974 . S
O305 C315 1.282 . S
C306 O307 1.261 . S
C306 O319 1.251 . S
O307 C306 1.261 . S
H308 C302 0.930 . S
H309 C304 0.930 . S
N310 Cu299 1.985 . S
N310 C312 1.335 . S
N310 C313 1.390 . S
N311 C312 1.345 . S
N311 C314 1.336 . S
C312 N310 1.335 . S
C312 N311 1.345 . S
C312 H317 0.930 . S
C313 N310 1.390 . S
C313 C314 1.346 . S
C313 H318 0.930 . S
C314 N311 1.336 . S
C314 C313 1.346 . S
C314 H321 0.929 . S
C315 O305 1.282 . S
C315 O316 1.216 . S
O316 C315 1.216 . S
H317 C312 0.930 . S
H318 C313 0.930 . S
O319 Cu299 1.959 . S
O319 C306 1.251 . S
H320 C303 0.930 . S
H321 C314 0.929 . S
Cu322 N323 1.999 . S
Cu322 O328 1.974 . S
Cu322 N333 1.985 . S
Cu322 O342 1.959 . S
N323 Cu322 1.999 . S
N323 C325 1.263 . S
N323 C327 1.389 . S
N324 C325 1.358 . S
N324 C326 1.400 . S
C325 N323 1.263 . S
C325 N324 1.358 . S
C325 H331 0.930 . S
C326 N324 1.400 . S
C326 C327 1.351 . S
C326 H343 0.930 . S
C327 N323 1.389 . S
C327 C326 1.351 . S
C327 H332 0.930 . S
O328 Cu322 1.974 . S
O328 C338 1.282 . S
C329 O330 1.261 . S
C329 O342 1.251 . S
O330 C329 1.261 . S
H331 C325 0.930 . S
H332 C327 0.930 . S
N333 Cu322 1.985 . S
N333 C335 1.335 . S
N333 C336 1.390 . S
N334 C335 1.345 . S
N334 C337 1.336 . S
C335 N333 1.335 . S
C335 N334 1.345 . S
C335 H340 0.930 . S
C336 N333 1.390 . S
C336 C337 1.346 . S
C336 H341 0.930 . S
C337 N334 1.336 . S
C337 C336 1.346 . S
C337 H344 0.929 . S
C338 O328 1.282 . S
C338 O339 1.216 . S
O339 C338 1.216 . S
H340 C335 0.930 . S
H341 C336 0.930 . S
O342 Cu322 1.959 . S
O342 C329 1.251 . S
H343 C326 0.930 . S
H344 C337 0.929 . S
Cu345 N346 1.999 . S
Cu345 O351 1.974 . S
Cu345 N356 1.985 . S
Cu345 O365 1.959 . S
N346 Cu345 1.999 . S
N346 C348 1.263 . S
N346 C350 1.389 . S
N347 C348 1.358 . S
N347 C349 1.400 . S
C348 N346 1.263 . S
C348 N347 1.358 . S
C348 H354 0.930 . S
C349 N347 1.400 . S
C349 C350 1.351 . S
C349 H366 0.930 1_554 S
C350 N346 1.389 . S
C350 C349 1.351 . S
C350 H355 0.930 . S
O351 Cu345 1.974 . S
O351 C361 1.282 . S
C352 O353 1.261 . S
C352 O365 1.251 . S
O353 C352 1.261 . S
H354 C348 0.930 . S
H355 C350 0.930 . S
N356 Cu345 1.985 . S
N356 C358 1.335 . S
N356 C359 1.390 . S
N357 C358 1.345 . S
N357 C360 1.336 . S
C358 N356 1.335 . S
C358 N357 1.345 . S
C358 H363 0.930 . S
C359 N356 1.390 . S
C359 C360 1.346 . S
C359 H364 0.930 . S
C360 N357 1.336 . S
C360 C359 1.346 . S
C360 H367 0.929 . S
C361 O351 1.282 . S
C361 O362 1.216 . S
O362 C361 1.216 . S
H363 C358 0.930 . S
H364 C359 0.930 . S
O365 Cu345 1.959 . S
O365 C352 1.251 . S
H366 C349 0.930 1_556 S
H367 C360 0.929 . S
Cu368 N369 1.999 . S
Cu368 O374 1.974 . S
Cu368 N379 1.985 . S
Cu368 O388 1.959 . S
N369 Cu368 1.999 . S
N369 C371 1.263 . S
N369 C373 1.389 . S
N370 C371 1.358 . S
N370 C372 1.400 . S
C371 N369 1.263 . S
C371 N370 1.358 . S
C371 H377 0.930 . S
C372 N370 1.400 . S
C372 C373 1.351 . S
C372 H389 0.930 . S
C373 N369 1.389 . S
C373 C372 1.351 . S
C373 H378 0.930 . S
O374 Cu368 1.974 . S
O374 C384 1.282 . S
C375 O376 1.261 . S
C375 O388 1.251 . S
O376 C375 1.261 . S
H377 C371 0.930 . S
H378 C373 0.930 . S
N379 Cu368 1.985 . S
N379 C381 1.335 . S
N379 C382 1.390 . S
N380 C381 1.345 . S
N380 C383 1.336 . S
C381 N379 1.335 . S
C381 N380 1.345 . S
C381 H386 0.930 . S
C382 N379 1.390 . S
C382 C383 1.346 . S
C382 H387 0.930 . S
C383 N380 1.336 . S
C383 C382 1.346 . S
C383 H390 0.929 . S
C384 O374 1.282 . S
C384 O385 1.216 . S
O385 C384 1.216 . S
H386 C381 0.930 . S
H387 C382 0.930 . S
O388 Cu368 1.959 . S
O388 C375 1.251 . S
H389 C372 0.930 . S
H390 C383 0.929 . S
Cu391 N392 1.999 . S
Cu391 O397 1.974 . S
Cu391 N402 1.985 . S
Cu391 O411 1.959 . S
N392 Cu391 1.999 . S
N392 C394 1.263 . S
N392 C396 1.389 . S
N393 C394 1.358 . S
N393 C395 1.400 . S
C394 N392 1.263 . S
C394 N393 1.358 . S
C394 H400 0.930 . S
C395 N393 1.400 . S
C395 C396 1.351 . S
C395 H412 0.930 1_554 S
C396 N392 1.389 . S
C396 C395 1.351 . S
C396 H401 0.930 . S
O397 Cu391 1.974 . S
O397 C407 1.282 . S
C398 O399 1.261 . S
C398 O411 1.251 . S
O399 C398 1.261 . S
H400 C394 0.930 . S
H401 C396 0.930 . S
N402 Cu391 1.985 . S
N402 C404 1.335 . S
N402 C405 1.390 . S
N403 C404 1.345 . S
N403 C406 1.336 . S
C404 N402 1.335 . S
C404 N403 1.345 . S
C404 H409 0.930 . S
C405 N402 1.390 . S
C405 C406 1.346 . S
C405 H410 0.930 . S
C406 N403 1.336 . S
C406 C405 1.346 . S
C406 H413 0.929 . S
C407 O397 1.282 . S
C407 O408 1.216 . S
O408 C407 1.216 . S
H409 C404 0.930 . S
H410 C405 0.930 . S
O411 Cu391 1.959 . S
O411 C398 1.251 . S
H412 C395 0.930 1_556 S
H413 C406 0.929 . S
Mn414 O419 2.095 . S
Mn414 O429 2.162 . S
Mn414 O430 2.297 . S
Mn414 O438 2.385 1_455 S
Mn414 O439 2.209 1_455 S
Mn414 O440 2.094 . S
Mn415 O420 2.121 . S
Mn415 N422 2.257 . S
Mn415 N431 2.282 . S
Mn415 O439 2.215 . S
Mn415 O441 2.117 . S
C416 O438 1.234 . S
C416 O439 1.283 . S
C417 O429 1.281 . S
C417 O430 1.236 . S
C418 O440 1.240 . S
C418 O441 1.264 1_455 S
O419 Mn414 2.095 . S
O419 C428 1.250 1_455 S
O420 Mn415 2.121 . S
O420 C428 1.258 . S
C421 N422 1.326 . S
C421 C425 1.460 . S
C421 H427 0.929 . S
N422 Mn415 2.257 . S
N422 C421 1.326 . S
N422 C426 1.362 . S
C423 C424 1.258 . S
C423 C426 1.431 . S
C423 C443 1.449 . S
C424 C423 1.258 . S
C424 C425 1.477 . S
C424 H444 0.931 . S
C425 C421 1.460 . S
C425 C424 1.477 . S
C425 H445 0.930 . S
C426 N422 1.362 . S
C426 C423 1.431 . S
C426 C436 1.476 . S
H427 C421 0.929 . S
C428 O419 1.250 1_655 S
C428 O420 1.258 . S
O429 Mn414 2.162 . S
O429 C417 1.281 . S
O430 Mn414 2.297 . S
O430 C417 1.236 . S
N431 Mn415 2.282 . S
N431 C432 1.328 . S
N431 C436 1.318 . S
C432 N431 1.328 . S
C432 C433 1.457 . S
C432 H437 0.929 . S
C433 C432 1.457 . S
C433 C434 1.291 . S
C433 H446 0.931 . S
C434 C433 1.291 . S
C434 C435 1.373 . S
C434 H447 0.929 . S
C435 C434 1.373 . S
C435 C436 1.396 . S
C435 C442 1.403 . S
C436 C426 1.476 . S
C436 N431 1.318 . S
C436 C435 1.396 . S
H437 C432 0.929 . S
O438 Mn414 2.385 1_655 S
O438 C416 1.234 . S
O439 Mn414 2.209 1_655 S
O439 Mn415 2.215 . S
O439 C416 1.283 . S
O440 Mn414 2.094 . S
O440 C418 1.240 . S
O441 Mn415 2.117 . S
O441 C418 1.264 1_655 S
C442 C435 1.403 . S
C442 C443 1.399 . S
C442 H448 0.929 . S
C443 C423 1.449 . S
C443 C442 1.399 . S
C443 H449 0.930 . S
H444 C424 0.931 . S
H445 C425 0.930 . S
H446 C433 0.931 . S
H447 C434 0.929 . S
H448 C442 0.929 . S
H449 C443 0.930 . S
Mn450 O455 2.095 . S
Mn450 O465 2.162 . S
Mn450 O466 2.297 . S
Mn450 O474 2.385 . S
Mn450 O475 2.209 . S
Mn450 O476 2.094 . S
Mn451 O456 2.121 . S
Mn451 N458 2.257 . S
Mn451 N467 2.282 . S
Mn451 O475 2.215 . S
Mn451 O477 2.117 . S
C452 O474 1.234 . S
C452 O475 1.283 . S
C453 O465 1.281 . S
C453 O466 1.236 . S
C454 O476 1.240 . S
C454 O477 1.264 . S
O455 Mn450 2.095 . S
O455 C464 1.250 . S
O456 Mn451 2.121 . S
O456 C464 1.258 . S
C457 N458 1.326 . S
C457 C461 1.460 . S
C457 H463 0.929 . S
N458 Mn451 2.257 . S
N458 C457 1.326 . S
N458 C462 1.362 . S
C459 C460 1.258 . S
C459 C462 1.431 . S
C459 C479 1.449 . S
C460 C459 1.258 . S
C460 C461 1.477 . S
C460 H480 0.931 . S
C461 C457 1.460 . S
C461 C460 1.477 . S
C461 H481 0.930 . S
C462 N458 1.362 . S
C462 C459 1.431 . S
C462 C472 1.476 . S
H463 C457 0.929 . S
C464 O455 1.250 . S
C464 O456 1.258 . S
O465 Mn450 2.162 . S
O465 C453 1.281 . S
O466 Mn450 2.297 . S
O466 C453 1.236 . S
N467 Mn451 2.282 . S
N467 C468 1.328 . S
N467 C472 1.318 . S
C468 N467 1.328 . S
C468 C469 1.457 . S
C468 H473 0.929 . S
C469 C468 1.457 . S
C469 C470 1.291 . S
C469 H482 0.931 . S
C470 C469 1.291 . S
C470 C471 1.373 . S
C470 H483 0.929 . S
C471 C470 1.373 . S
C471 C472 1.396 . S
C471 C478 1.403 . S
C472 C462 1.476 . S
C472 N467 1.318 . S
C472 C471 1.396 . S
H473 C468 0.929 . S
O474 Mn450 2.385 . S
O474 C452 1.234 . S
O475 Mn450 2.209 . S
O475 Mn451 2.215 . S
O475 C452 1.283 . S
O476 Mn450 2.094 . S
O476 C454 1.240 . S
O477 Mn451 2.117 . S
O477 C454 1.264 . S
C478 C471 1.403 . S
C478 C479 1.399 . S
C478 H484 0.929 . S
C479 C459 1.449 . S
C479 C478 1.399 . S
C479 H485 0.930 . S
H480 C460 0.931 . S
H481 C461 0.930 . S
H482 C469 0.931 . S
H483 C470 0.929 . S
H484 C478 0.929 . S
H485 C479 0.930 . S
Mn486 O491 2.095 . S
Mn486 O501 2.162 . S
Mn486 O502 2.297 . S
Mn486 O510 2.385 . S
Mn486 O511 2.209 . S
Mn486 O512 2.094 . S
Mn487 O492 2.121 . S
Mn487 N494 2.257 . S
Mn487 N503 2.282 . S
Mn487 O511 2.215 . S
Mn487 O513 2.117 . S
C488 O510 1.234 . S
C488 O511 1.283 . S
C489 O501 1.281 . S
C489 O502 1.236 . S
C490 O512 1.240 . S
C490 O513 1.264 . S
O491 Mn486 2.095 . S
O491 C500 1.250 . S
O492 Mn487 2.121 . S
O492 C500 1.258 . S
C493 N494 1.326 . S
C493 C497 1.460 . S
C493 H499 0.929 . S
N494 Mn487 2.257 . S
N494 C493 1.326 . S
N494 C498 1.362 . S
C495 C496 1.258 . S
C495 C498 1.431 . S
C495 C515 1.449 . S
C496 C495 1.258 . S
C496 C497 1.477 . S
C496 H516 0.931 . S
C497 C493 1.460 . S
C497 C496 1.477 . S
C497 H517 0.930 . S
C498 N494 1.362 . S
C498 C495 1.431 . S
C498 C508 1.476 . S
H499 C493 0.929 . S
C500 O491 1.250 . S
C500 O492 1.258 . S
O501 Mn486 2.162 . S
O501 C489 1.281 . S
O502 Mn486 2.297 . S
O502 C489 1.236 . S
N503 Mn487 2.282 . S
N503 C504 1.328 . S
N503 C508 1.318 . S
C504 N503 1.328 . S
C504 C505 1.457 . S
C504 H509 0.929 . S
C505 C504 1.457 . S
C505 C506 1.291 . S
C505 H518 0.931 . S
C506 C505 1.291 . S
C506 C507 1.373 . S
C506 H519 0.929 . S
C507 C506 1.373 . S
C507 C508 1.396 . S
C507 C514 1.403 . S
C508 C498 1.476 . S
C508 N503 1.318 . S
C508 C507 1.396 . S
H509 C504 0.929 . S
O510 Mn486 2.385 . S
O510 C488 1.234 . S
O511 Mn486 2.209 . S
O511 Mn487 2.215 . S
O511 C488 1.283 . S
O512 Mn486 2.094 . S
O512 C490 1.240 . S
O513 Mn487 2.117 . S
O513 C490 1.264 . S
C514 C507 1.403 . S
C514 C515 1.399 . S
C514 H520 0.929 . S
C515 C495 1.449 . S
C515 C514 1.399 . S
C515 H521 0.930 . S
H516 C496 0.931 . S
H517 C497 0.930 . S
H518 C505 0.931 . S
H519 C506 0.929 . S
H520 C514 0.929 . S
H521 C515 0.930 . S
Mn522 O527 2.095 . S
Mn522 O537 2.162 1_455 S
Mn522 O538 2.297 . S
Mn522 O546 2.385 . S
Mn522 O547 2.209 . S
Mn522 O548 2.094 1_455 S
Mn523 O528 2.121 . S
Mn523 N530 2.257 . S
Mn523 N539 2.282 . S
Mn523 O547 2.215 . S
Mn523 O549 2.117 1_455 S
C524 O546 1.234 . S
C524 O547 1.283 . S
C525 O537 1.281 1_455 S
C525 O538 1.236 . S
C526 O548 1.240 . S
C526 O549 1.264 . S
O527 Mn522 2.095 . S
O527 C536 1.250 . S
O528 Mn523 2.121 . S
O528 C536 1.258 . S
C529 N530 1.326 . S
C529 C533 1.460 . S
C529 H535 0.929 . S
N530 Mn523 2.257 . S
N530 C529 1.326 . S
N530 C534 1.362 . S
C531 C532 1.258 . S
C531 C534 1.431 . S
C531 C551 1.449 . S
C532 C531 1.258 . S
C532 C533 1.477 . S
C532 H552 0.931 . S
C533 C529 1.460 . S
C533 C532 1.477 . S
C533 H553 0.930 . S
C534 N530 1.362 . S
C534 C531 1.431 . S
C534 C544 1.476 . S
H535 C529 0.929 . S
C536 O527 1.250 . S
C536 O528 1.258 . S
O537 Mn522 2.162 1_655 S
O537 C525 1.281 1_655 S
O538 Mn522 2.297 . S
O538 C525 1.236 . S
N539 Mn523 2.282 . S
N539 C540 1.328 . S
N539 C544 1.318 . S
C540 N539 1.328 . S
C540 C541 1.457 . S
C540 H545 0.929 . S
C541 C540 1.457 . S
C541 C542 1.291 . S
C541 H554 0.931 . S
C542 C541 1.291 . S
C542 C543 1.373 . S
C542 H555 0.929 . S
C543 C542 1.373 . S
C543 C544 1.396 . S
C543 C550 1.403 . S
C544 C534 1.476 . S
C544 N539 1.318 . S
C544 C543 1.396 . S
H545 C540 0.929 . S
O546 Mn522 2.385 . S
O546 C524 1.234 . S
O547 Mn522 2.209 . S
O547 Mn523 2.215 . S
O547 C524 1.283 . S
O548 Mn522 2.094 1_655 S
O548 C526 1.240 . S
O549 Mn523 2.117 1_655 S
O549 C526 1.264 . S
C550 C543 1.403 . S
C550 C551 1.399 . S
C550 H556 0.929 . S
C551 C531 1.449 . S
C551 C550 1.399 . S
C551 H557 0.930 . S
H552 C532 0.931 . S
H553 C533 0.930 . S
H554 C541 0.931 . S
H555 C542 0.929 . S
H556 C550 0.929 . S
H557 C551 0.930 . S
Mn558 O563 2.095 . S
Mn558 O573 2.162 . S
Mn558 O574 2.297 . S
Mn558 O582 2.385 . S
Mn558 O583 2.209 . S
Mn558 O584 2.094 . S
Mn559 O564 2.121 . S
Mn559 N566 2.257 . S
Mn559 N575 2.282 . S
Mn559 O583 2.215 . S
Mn559 O585 2.117 . S
C560 O582 1.234 . S
C560 O583 1.283 . S
C561 O573 1.281 . S
C561 O574 1.236 . S
C562 O584 1.240 . S
C562 O585 1.264 . S
O563 Mn558 2.095 . S
O563 C572 1.250 . S
O564 Mn559 2.121 . S
O564 C572 1.258 . S
C565 N566 1.326 . S
C565 C569 1.460 . S
C565 H571 0.929 . S
N566 Mn559 2.257 . S
N566 C565 1.326 . S
N566 C570 1.362 . S
C567 C568 1.258 . S
C567 C570 1.431 . S
C567 C587 1.449 . S
C568 C567 1.258 . S
C568 C569 1.477 . S
C568 H588 0.931 . S
C569 C565 1.460 . S
C569 C568 1.477 . S
C569 H589 0.930 . S
C570 N566 1.362 . S
C570 C567 1.431 . S
C570 C580 1.476 . S
H571 C565 0.929 . S
C572 O563 1.250 . S
C572 O564 1.258 . S
O573 Mn558 2.162 . S
O573 C561 1.281 . S
O574 Mn558 2.297 . S
O574 C561 1.236 . S
N575 Mn559 2.282 . S
N575 C576 1.328 . S
N575 C580 1.318 . S
C576 N575 1.328 . S
C576 C577 1.457 . S
C576 H581 0.929 . S
C577 C576 1.457 . S
C577 C578 1.291 . S
C577 H590 0.931 . S
C578 C577 1.291 . S
C578 C579 1.373 . S
C578 H591 0.929 . S
C579 C578 1.373 . S
C579 C580 1.396 . S
C579 C586 1.403 . S
C580 C570 1.476 . S
C580 N575 1.318 . S
C580 C579 1.396 . S
H581 C576 0.929 . S
O582 Mn558 2.385 . S
O582 C560 1.234 . S
O583 Mn558 2.209 . S
O583 Mn559 2.215 . S
O583 C560 1.283 . S
O584 Mn558 2.094 . S
O584 C562 1.240 . S
O585 Mn559 2.117 . S
O585 C562 1.264 . S
C586 C579 1.403 . S
C586 C587 1.399 . S
C586 H592 0.929 . S
C587 C567 1.449 . S
C587 C586 1.399 . S
C587 H593 0.930 . S
H588 C568 0.931 . S
H589 C569 0.930 . S
H590 C577 0.931 . S
H591 C578 0.929 . S
H592 C586 0.929 . S
H593 C587 0.930 . S
Mn594 O599 2.095 . S
Mn594 O609 2.162 . S
Mn594 O610 2.297 1_545 S
Mn594 O618 2.385 1_545 S
Mn594 O619 2.209 1_545 S
Mn594 O620 2.094 . S
Mn595 O600 2.121 . S
Mn595 N602 2.257 . S
Mn595 N611 2.282 . S
Mn595 O619 2.215 . S
Mn595 O621 2.117 1_565 S
C596 O618 1.234 . S
C596 O619 1.283 . S
C597 O609 1.281 1_565 S
C597 O610 1.236 . S
C598 O620 1.240 . S
C598 O621 1.264 . S
O599 Mn594 2.095 . S
O599 C608 1.250 . S
O600 Mn595 2.121 . S
O600 C608 1.258 1_565 S
C601 N602 1.326 . S
C601 C605 1.460 . S
C601 H607 0.929 . S
N602 Mn595 2.257 . S
N602 C601 1.326 . S
N602 C606 1.362 . S
C603 C604 1.258 . S
C603 C606 1.431 . S
C603 C623 1.449 . S
C604 C603 1.258 . S
C604 C605 1.477 . S
C604 H624 0.931 . S
C605 C601 1.460 . S
C605 C604 1.477 . S
C605 H625 0.930 . S
C606 N602 1.362 . S
C606 C603 1.431 . S
C606 C616 1.476 . S
H607 C601 0.929 . S
C608 O599 1.250 . S
C608 O600 1.258 1_545 S
O609 Mn594 2.162 . S
O609 C597 1.281 1_545 S
O610 Mn594 2.297 1_565 S
O610 C597 1.236 . S
N611 Mn595 2.282 . S
N611 C612 1.328 . S
N611 C616 1.318 . S
C612 N611 1.328 . S
C612 C613 1.457 . S
C612 H617 0.929 1_565 S
C613 C612 1.457 . S
C613 C614 1.291 . S
C613 H626 0.931 . S
C614 C613 1.291 . S
C614 C615 1.373 . S
C614 H627 0.929 . S
C615 C614 1.373 . S
C615 C616 1.396 . S
C615 C622 1.403 . S
C616 C606 1.476 . S
C616 N611 1.318 . S
C616 C615 1.396 . S
H617 C612 0.929 1_545 S
O618 Mn594 2.385 1_565 S
O618 C596 1.234 . S
O619 Mn594 2.209 1_565 S
O619 Mn595 2.215 . S
O619 C596 1.283 . S
O620 Mn594 2.094 . S
O620 C598 1.240 . S
O621 Mn595 2.117 1_545 S
O621 C598 1.264 . S
C622 C615 1.403 . S
C622 C623 1.399 . S
C622 H628 0.929 . S
C623 C603 1.449 . S
C623 C622 1.399 . S
C623 H629 0.930 . S
H624 C604 0.931 . S
H625 C605 0.930 . S
H626 C613 0.931 . S
H627 C614 0.929 . S
H628 C622 0.929 . S
H629 C623 0.930 . S
Mn630 O635 2.095 1_545 S
Mn630 O645 2.162 . S
Mn630 O646 2.297 . S
Mn630 O654 2.385 . S
Mn630 O655 2.209 1_545 S
Mn630 O656 2.094 1_545 S
Mn631 O636 2.121 . S
Mn631 N638 2.257 . S
Mn631 N647 2.282 . S
Mn631 O655 2.215 . S
Mn631 O657 2.117 . S
C632 O654 1.234 . S
C632 O655 1.283 1_545 S
C633 O645 1.281 . S
C633 O646 1.236 . S
C634 O656 1.240 . S
C634 O657 1.264 . S
O635 Mn630 2.095 1_565 S
O635 C644 1.250 . S
O636 Mn631 2.121 . S
O636 C644 1.258 . S
C637 N638 1.326 . S
C637 C641 1.460 . S
C637 H643 0.929 . S
N638 Mn631 2.257 . S
N638 C637 1.326 . S
N638 C642 1.362 . S
C639 C640 1.258 . S
C639 C642 1.431 . S
C639 C659 1.449 . S
C640 C639 1.258 . S
C640 C641 1.477 . S
C640 H660 0.931 . S
C641 C637 1.460 . S
C641 C640 1.477 . S
C641 H661 0.930 . S
C642 N638 1.362 . S
C642 C639 1.431 . S
C642 C652 1.476 . S
H643 C637 0.929 . S
C644 O635 1.250 . S
C644 O636 1.258 . S
O645 Mn630 2.162 . S
O645 C633 1.281 . S
O646 Mn630 2.297 . S
O646 C633 1.236 . S
N647 Mn631 2.282 . S
N647 C648 1.328 . S
N647 C652 1.318 . S
C648 N647 1.328 . S
C648 C649 1.457 . S
C648 H653 0.929 . S
C649 C648 1.457 . S
C649 C650 1.291 . S
C649 H662 0.931 . S
C650 C649 1.291 . S
C650 C651 1.373 . S
C650 H663 0.929 . S
C651 C650 1.373 . S
C651 C652 1.396 . S
C651 C658 1.403 . S
C652 C642 1.476 . S
C652 N647 1.318 . S
C652 C651 1.396 . S
H653 C648 0.929 . S
O654 Mn630 2.385 . S
O654 C632 1.234 . S
O655 Mn630 2.209 1_565 S
O655 Mn631 2.215 . S
O655 C632 1.283 1_565 S
O656 Mn630 2.094 1_565 S
O656 C634 1.240 . S
O657 Mn631 2.117 . S
O657 C634 1.264 . S
C658 C651 1.403 . S
C658 C659 1.399 . S
C658 H664 0.929 . S
C659 C639 1.449 . S
C659 C658 1.399 . S
C659 H665 0.930 . S
H660 C640 0.931 . S
H661 C641 0.930 . S
H662 C649 0.931 . S
H663 C650 0.929 . S
H664 C658 0.929 . S
H665 C659 0.930 . S
Mn666 O671 2.095 . S
Mn666 O681 2.162 . S
Mn666 O682 2.297 . S
Mn666 O690 2.385 1_455 S
Mn666 O691 2.209 . S
Mn666 O692 2.094 . S
Mn667 O672 2.121 . S
Mn667 N674 2.257 1_455 S
Mn667 N683 2.282 1_455 S
Mn667 O691 2.215 . S
Mn667 O693 2.117 . S
C668 O690 1.234 . S
C668 O691 1.283 1_655 S
C669 O681 1.281 . S
C669 O682 1.236 . S
C670 O692 1.240 . S
C670 O693 1.264 . S
O671 Mn666 2.095 . S
O671 C680 1.250 . S
O672 Mn667 2.121 . S
O672 C680 1.258 . S
C673 N674 1.326 . S
C673 C677 1.460 . S
C673 H679 0.929 1_655 S
N674 Mn667 2.257 1_655 S
N674 C673 1.326 . S
N674 C678 1.362 . S
C675 C676 1.258 . S
C675 C678 1.431 . S
C675 C695 1.449 . S
C676 C675 1.258 . S
C676 C677 1.477 . S
C676 H696 0.931 . S
C677 C673 1.460 . S
C677 C676 1.477 . S
C677 H697 0.930 . S
C678 N674 1.362 . S
C678 C675 1.431 . S
C678 C688 1.476 . S
H679 C673 0.929 1_455 S
C680 O671 1.250 . S
C680 O672 1.258 . S
O681 Mn666 2.162 . S
O681 C669 1.281 . S
O682 Mn666 2.297 . S
O682 C669 1.236 . S
N683 Mn667 2.282 1_655 S
N683 C684 1.328 . S
N683 C688 1.318 . S
C684 N683 1.328 . S
C684 C685 1.457 . S
C684 H689 0.929 1_655 S
C685 C684 1.457 . S
C685 C686 1.291 . S
C685 H698 0.931 . S
C686 C685 1.291 . S
C686 C687 1.373 . S
C686 H699 0.929 . S
C687 C686 1.373 . S
C687 C688 1.396 . S
C687 C694 1.403 . S
C688 C678 1.476 . S
C688 N683 1.318 . S
C688 C687 1.396 . S
H689 C684 0.929 1_455 S
O690 Mn666 2.385 1_655 S
O690 C668 1.234 . S
O691 Mn666 2.209 . S
O691 Mn667 2.215 . S
O691 C668 1.283 1_455 S
O692 Mn666 2.094 . S
O692 C670 1.240 . S
O693 Mn667 2.117 . S
O693 C670 1.264 . S
C694 C687 1.403 . S
C694 C695 1.399 . S
C694 H700 0.929 . S
C695 C675 1.449 . S
C695 C694 1.399 . S
C695 H701 0.930 . S
H696 C676 0.931 . S
H697 C677 0.930 . S
H698 C685 0.931 . S
H699 C686 0.929 . S
H700 C694 0.929 . S
H701 C695 0.930 . S
Mn702 O707 2.095 . S
Mn702 O717 2.162 . S
Mn702 O718 2.297 . S
Mn702 O726 2.385 . S
Mn702 O727 2.209 . S
Mn702 O728 2.094 . S
Mn703 O708 2.121 . S
Mn703 N710 2.257 . S
Mn703 N719 2.282 . S
Mn703 O727 2.215 . S
Mn703 O729 2.117 . S
C704 O726 1.234 . S
C704 O727 1.283 . S
C705 O717 1.281 . S
C705 O718 1.236 . S
C706 O728 1.240 . S
C706 O729 1.264 . S
O707 Mn702 2.095 . S
O707 C716 1.250 . S
O708 Mn703 2.121 . S
O708 C716 1.258 . S
C709 N710 1.326 . S
C709 C713 1.460 . S
C709 H715 0.929 . S
N710 Mn703 2.257 . S
N710 C709 1.326 . S
N710 C714 1.362 . S
C711 C712 1.258 . S
C711 C714 1.431 . S
C711 C731 1.449 . S
C712 C711 1.258 . S
C712 C713 1.477 . S
C712 H732 0.931 . S
C713 C709 1.460 . S
C713 C712 1.477 . S
C713 H733 0.930 . S
C714 N710 1.362 . S
C714 C711 1.431 . S
C714 C724 1.476 . S
H715 C709 0.929 . S
C716 O707 1.250 . S
C716 O708 1.258 . S
O717 Mn702 2.162 . S
O717 C705 1.281 . S
O718 Mn702 2.297 . S
O718 C705 1.236 . S
N719 Mn703 2.282 . S
N719 C720 1.328 . S
N719 C724 1.318 . S
C720 N719 1.328 . S
C720 C721 1.457 . S
C720 H725 0.929 . S
C721 C720 1.457 . S
C721 C722 1.291 . S
C721 H734 0.931 . S
C722 C721 1.291 . S
C722 C723 1.373 . S
C722 H735 0.929 . S
C723 C722 1.373 . S
C723 C724 1.396 . S
C723 C730 1.403 . S
C724 C714 1.476 . S
C724 N719 1.318 . S
C724 C723 1.396 . S
H725 C720 0.929 . S
O726 Mn702 2.385 . S
O726 C704 1.234 . S
O727 Mn702 2.209 . S
O727 Mn703 2.215 . S
O727 C704 1.283 . S
O728 Mn702 2.094 . S
O728 C706 1.240 . S
O729 Mn703 2.117 . S
O729 C706 1.264 . S
C730 C723 1.403 . S
C730 C731 1.399 . S
C730 H736 0.929 . S
C731 C711 1.449 . S
C731 C730 1.399 . S
C731 H737 0.930 . S
H732 C712 0.931 . S
H733 C713 0.930 . S
H734 C721 0.931 . S
H735 C722 0.929 . S
H736 C730 0.929 . S
H737 C731 0.930 . S
Mn738 O743 2.095 . S
Mn738 O753 2.162 . S
Mn738 O754 2.297 . S
Mn738 O762 2.385 . S
Mn738 O763 2.209 . S
Mn738 O764 2.094 . S
Mn739 O744 2.121 . S
Mn739 N746 2.257 . S
Mn739 N755 2.282 1_556 S
Mn739 O763 2.215 1_556 S
Mn739 O765 2.117 1_556 S
C740 O762 1.234 . S
C740 O763 1.283 . S
C741 O753 1.281 . S
C741 O754 1.236 . S
C742 O764 1.240 . S
C742 O765 1.264 . S
O743 Mn738 2.095 . S
O743 C752 1.250 1_554 S
O744 Mn739 2.121 . S
O744 C752 1.258 . S
C745 N746 1.326 . S
C745 C749 1.460 . S
C745 H751 0.929 . S
N746 Mn739 2.257 . S
N746 C745 1.326 . S
N746 C750 1.362 . S
C747 C748 1.258 . S
C747 C750 1.431 . S
C747 C767 1.449 . S
C748 C747 1.258 . S
C748 C749 1.477 . S
C748 H768 0.931 . S
C749 C745 1.460 . S
C749 C748 1.477 . S
C749 H769 0.930 . S
C750 N746 1.362 . S
C750 C747 1.431 . S
C750 C760 1.476 . S
H751 C745 0.929 . S
C752 O743 1.250 1_556 S
C752 O744 1.258 . S
O753 Mn738 2.162 . S
O753 C741 1.281 . S
O754 Mn738 2.297 . S
O754 C741 1.236 . S
N755 Mn739 2.282 1_554 S
N755 C756 1.328 . S
N755 C760 1.318 1_554 S
C756 N755 1.328 . S
C756 C757 1.457 . S
C756 H761 0.929 . S
C757 C756 1.457 . S
C757 C758 1.291 . S
C757 H770 0.931 . S
C758 C757 1.291 . S
C758 C759 1.373 . S
C758 H771 0.929 . S
C759 C758 1.373 . S
C759 C760 1.396 1_554 S
C759 C766 1.403 1_554 S
C760 C750 1.476 . S
C760 N755 1.318 1_556 S
C760 C759 1.396 1_556 S
H761 C756 0.929 . S
O762 Mn738 2.385 . S
O762 C740 1.234 . S
O763 Mn738 2.209 . S
O763 Mn739 2.215 1_554 S
O763 C740 1.283 . S
O764 Mn738 2.094 . S
O764 C742 1.240 . S
O765 Mn739 2.117 1_554 S
O765 C742 1.264 . S
C766 C759 1.403 1_556 S
C766 C767 1.399 . S
C766 H772 0.929 . S
C767 C747 1.449 . S
C767 C766 1.399 . S
C767 H773 0.930 . S
H768 C748 0.931 . S
H769 C749 0.930 . S
H770 C757 0.931 . S
H771 C758 0.929 . S
H772 C766 0.929 . S
H773 C767 0.930 . S
Mn774 O779 2.095 . S
Mn774 O789 2.162 . S
Mn774 O790 2.297 . S
Mn774 O798 2.385 1_565 S
Mn774 O799 2.209 . S
Mn774 O800 2.094 1_565 S
Mn775 O780 2.121 1_545 S
Mn775 N782 2.257 1_545 S
Mn775 N791 2.282 . S
Mn775 O799 2.215 1_545 S
Mn775 O801 2.117 . S
C776 O798 1.234 1_565 S
C776 O799 1.283 . S
C777 O789 1.281 . S
C777 O790 1.236 . S
C778 O800 1.240 . S
C778 O801 1.264 . S
O779 Mn774 2.095 . S
O779 C788 1.250 . S
O780 Mn775 2.121 1_565 S
O780 C788 1.258 . S
C781 N782 1.326 . S
C781 C785 1.460 . S
C781 H787 0.929 . S
N782 Mn775 2.257 1_565 S
N782 C781 1.326 . S
N782 C786 1.362 . S
C783 C784 1.258 . S
C783 C786 1.431 . S
C783 C803 1.449 . S
C784 C783 1.258 . S
C784 C785 1.477 . S
C784 H804 0.931 . S
C785 C781 1.460 . S
C785 C784 1.477 . S
C785 H805 0.930 . S
C786 N782 1.362 . S
C786 C783 1.431 . S
C786 C796 1.476 1_565 S
H787 C781 0.929 . S
C788 O779 1.250 . S
C788 O780 1.258 . S
O789 Mn774 2.162 . S
O789 C777 1.281 . S
O790 Mn774 2.297 . S
O790 C777 1.236 . S
N791 Mn775 2.282 . S
N791 C792 1.328 . S
N791 C796 1.318 . S
C792 N791 1.328 . S
C792 C793 1.457 . S
C792 H797 0.929 . S
C793 C792 1.457 . S
C793 C794 1.291 . S
C793 H806 0.931 . S
C794 C793 1.291 . S
C794 C795 1.373 . S
C794 H807 0.929 . S
C795 C794 1.373 . S
C795 C796 1.396 . S
C795 C802 1.403 . S
C796 C786 1.476 1_545 S
C796 N791 1.318 . S
C796 C795 1.396 . S
H797 C792 0.929 . S
O798 Mn774 2.385 1_545 S
O798 C776 1.234 1_545 S
O799 Mn774 2.209 . S
O799 Mn775 2.215 1_565 S
O799 C776 1.283 . S
O800 Mn774 2.094 1_545 S
O800 C778 1.240 . S
O801 Mn775 2.117 . S
O801 C778 1.264 . S
C802 C795 1.403 . S
C802 C803 1.399 1_545 S
C802 H808 0.929 . S
C803 C783 1.449 . S
C803 C802 1.399 1_565 S
C803 H809 0.930 . S
H804 C784 0.931 . S
H805 C785 0.930 . S
H806 C793 0.931 . S
H807 C794 0.929 . S
H808 C802 0.929 . S
H809 C803 0.930 . S
Mn810 O815 2.095 . S
Mn810 O825 2.162 . S
Mn810 O826 2.297 . S
Mn810 O834 2.385 1_455 S
Mn810 O835 2.209 1_455 S
Mn810 O836 2.094 . S
Mn811 O816 2.121 1_654 S
Mn811 N818 2.257 1_554 S
Mn811 N827 2.282 . S
Mn811 O835 2.215 . S
Mn811 O837 2.117 1_655 S
C812 O834 1.234 . S
C812 O835 1.283 . S
C813 O825 1.281 . S
C813 O826 1.236 . S
C814 O836 1.240 . S
C814 O837 1.264 . S
O815 Mn810 2.095 . S
O815 C824 1.250 . S
O816 Mn811 2.121 1_456 S
O816 C824 1.258 1_556 S
C817 N818 1.326 . S
C817 C821 1.460 . S
C817 H823 0.929 . S
N818 Mn811 2.257 1_556 S
N818 C817 1.326 . S
N818 C822 1.362 . S
C819 C820 1.258 . S
C819 C822 1.431 . S
C819 C839 1.449 . S
C820 C819 1.258 . S
C820 C821 1.477 . S
C820 H840 0.931 . S
C821 C817 1.460 . S
C821 C820 1.477 . S
C821 H841 0.930 . S
C822 N818 1.362 . S
C822 C819 1.431 . S
C822 C832 1.476 1_556 S
H823 C817 0.929 . S
C824 O815 1.250 . S
C824 O816 1.258 1_554 S
O825 Mn810 2.162 . S
O825 C813 1.281 . S
O826 Mn810 2.297 . S
O826 C813 1.236 . S
N827 Mn811 2.282 . S
N827 C828 1.328 . S
N827 C832 1.318 . S
C828 N827 1.328 . S
C828 C829 1.457 . S
C828 H833 0.929 . S
C829 C828 1.457 . S
C829 C830 1.291 . S
C829 H842 0.931 . S
C830 C829 1.291 . S
C830 C831 1.373 . S
C830 H843 0.929 . S
C831 C830 1.373 . S
C831 C832 1.396 . S
C831 C838 1.403 . S
C832 C822 1.476 1_554 S
C832 N827 1.318 . S
C832 C831 1.396 . S
H833 C828 0.929 . S
O834 Mn810 2.385 1_655 S
O834 C812 1.234 . S
O835 Mn810 2.209 1_655 S
O835 Mn811 2.215 . S
O835 C812 1.283 . S
O836 Mn810 2.094 . S
O836 C814 1.240 . S
O837 Mn811 2.117 1_455 S
O837 C814 1.264 . S
C838 C831 1.403 . S
C838 C839 1.399 1_554 S
C838 H844 0.929 . S
C839 C819 1.449 . S
C839 C838 1.399 1_556 S
C839 H845 0.930 . S
H840 C820 0.931 . S
H841 C821 0.930 . S
H842 C829 0.931 . S
H843 C830 0.929 . S
H844 C838 0.929 . S
H845 C839 0.930 . S
Mn846 O851 2.083 1_556 S
Mn846 O861 2.162 . S
Mn846 O862 2.297 1_556 S
Mn846 O870 2.385 . S
Mn846 O871 2.209 . S
Mn846 O872 2.094 . S
Mn847 O852 2.121 1_556 S
Mn847 N854 2.260 . S
Mn847 N863 2.282 . S
Mn847 O871 2.215 . S
Mn847 O873 2.117 . S
C848 O870 1.234 . S
C848 O871 1.283 . S
C849 O861 1.281 . S
C849 O862 1.236 1_556 S
C850 O872 1.240 . S
C850 O873 1.264 . S
O851 Mn846 2.083 1_554 S
O851 C860 1.262 . S
O852 Mn847 2.121 1_554 S
O852 C860 1.258 . S
C853 N854 1.319 1_554 S
C853 C857 1.460 . S
C853 H859 0.929 . S
N854 Mn847 2.260 . S
N854 C853 1.319 1_556 S
N854 C858 1.367 . S
C855 C856 1.258 1_556 S
C855 C858 1.431 . S
C855 C875 1.449 . S
C856 C855 1.258 1_554 S
C856 C857 1.477 . S
C856 H876 0.931 . S
C857 C853 1.460 . S
C857 C856 1.477 . S
C857 H877 0.930 . S
C858 N854 1.367 . S
C858 C855 1.431 . S
C858 C868 1.476 . S
H859 C853 0.929 . S
C860 O851 1.262 . S
C860 O852 1.258 . S
O861 Mn846 2.162 . S
O861 C849 1.281 . S
O862 Mn846 2.297 1_554 S
O862 C849 1.236 1_554 S
N863 Mn847 2.282 . S
N863 C864 1.328 . S
N863 C868 1.318 . S
C864 N863 1.328 . S
C864 C865 1.457 . S
C864 H869 0.929 . S
C865 C864 1.457 . S
C865 C866 1.291 . S
C865 H878 0.931 . S
C866 C865 1.291 . S
C866 C867 1.373 . S
C866 H879 0.929 . S
C867 C866 1.373 . S
C867 C868 1.396 . S
C867 C874 1.403 . S
C868 C858 1.476 . S
C868 N863 1.318 . S
C868 C867 1.396 . S
H869 C864 0.929 . S
O870 Mn846 2.385 . S
O870 C848 1.234 . S
O871 Mn846 2.209 . S
O871 Mn847 2.215 . S
O871 C848 1.283 . S
O872 Mn846 2.094 . S
O872 C850 1.240 . S
O873 Mn847 2.117 . S
O873 C850 1.264 . S
C874 C867 1.403 . S
C874 C875 1.399 . S
C874 H880 0.929 . S
C875 C855 1.449 . S
C875 C874 1.399 . S
C875 H881 0.930 . S
H876 C856 0.931 . S
H877 C857 0.930 . S
H878 C865 0.931 . S
H879 C866 0.929 . S
H880 C874 0.929 . S
H881 C875 0.930 . S
Mn882 O887 2.095 . S
Mn882 O897 2.162 . S
Mn882 O898 2.297 . S
Mn882 O906 2.385 . S
Mn882 O907 2.209 . S
Mn882 O908 2.094 1_556 S
Mn883 O888 2.121 . S
Mn883 N890 2.257 . S
Mn883 N899 2.282 1_556 S
Mn883 O907 2.215 . S
Mn883 O909 2.117 . S
C884 O906 1.234 . S
C884 O907 1.283 . S
C885 O897 1.281 . S
C885 O898 1.236 . S
C886 O908 1.240 . S
C886 O909 1.264 1_554 S
O887 Mn882 2.095 . S
O887 C896 1.250 . S
O888 Mn883 2.121 . S
O888 C896 1.258 . S
C889 N890 1.326 . S
C889 C893 1.460 . S
C889 H895 0.929 . S
N890 Mn883 2.257 . S
N890 C889 1.326 . S
N890 C894 1.362 . S
C891 C892 1.258 . S
C891 C894 1.431 . S
C891 C911 1.449 . S
C892 C891 1.258 . S
C892 C893 1.477 . S
C892 H912 0.931 . S
C893 C889 1.460 . S
C893 C892 1.477 . S
C893 H913 0.930 . S
C894 N890 1.362 . S
C894 C891 1.431 . S
C894 C904 1.476 . S
H895 C889 0.929 . S
C896 O887 1.250 . S
C896 O888 1.258 . S
O897 Mn882 2.162 . S
O897 C885 1.281 . S
O898 Mn882 2.297 . S
O898 C885 1.236 . S
N899 Mn883 2.282 1_554 S
N899 C900 1.328 . S
N899 C904 1.318 1_554 S
C900 N899 1.328 . S
C900 C901 1.457 . S
C900 H905 0.929 . S
C901 C900 1.457 . S
C901 C902 1.291 . S
C901 H914 0.931 . S
C902 C901 1.291 . S
C902 C903 1.373 . S
C902 H915 0.929 . S
C903 C902 1.373 . S
C903 C904 1.396 1_554 S
C903 C910 1.403 . S
C904 C894 1.476 . S
C904 N899 1.318 1_556 S
C904 C903 1.396 1_556 S
H905 C900 0.929 . S
O906 Mn882 2.385 . S
O906 C884 1.234 . S
O907 Mn882 2.209 . S
O907 Mn883 2.215 . S
O907 C884 1.283 . S
O908 Mn882 2.094 1_554 S
O908 C886 1.240 . S
O909 Mn883 2.117 . S
O909 C886 1.264 1_556 S
C910 C903 1.403 . S
C910 C911 1.399 1_554 S
C910 H916 0.929 . S
C911 C891 1.449 . S
C911 C910 1.399 1_556 S
C911 H917 0.930 . S
H912 C892 0.931 . S
H913 C893 0.930 . S
H914 C901 0.931 . S
H915 C902 0.929 . S
H916 C910 0.929 . S
H917 C911 0.930 . S
Mn918 O923 2.095 . S
Mn918 O933 2.154 1_655 S
Mn918 O934 2.297 1_655 S
Mn918 O942 2.385 1_655 S
Mn918 O943 2.209 1_655 S
Mn918 O944 2.094 . S
Mn919 O924 2.121 . S
Mn919 N926 2.257 1_655 S
Mn919 N935 2.282 1_655 S
Mn919 O943 2.215 1_655 S
Mn919 O945 2.117 . S
C920 O942 1.234 . S
C920 O943 1.283 . S
C921 O933 1.288 . S
C921 O934 1.236 . S
C922 O944 1.240 . S
C922 O945 1.264 . S
O923 Mn918 2.095 . S
O923 C932 1.250 . S
O924 Mn919 2.121 . S
O924 C932 1.258 . S
C925 N926 1.326 . S
C925 C929 1.460 1_556 S
C925 H931 0.929 1_556 S
N926 Mn919 2.257 1_455 S
N926 C925 1.326 . S
N926 C930 1.362 . S
C927 C928 1.258 . S
C927 C930 1.431 . S
C927 C947 1.449 . S
C928 C927 1.258 . S
C928 C929 1.477 1_556 S
C928 H948 0.931 . S
C929 C925 1.460 1_554 S
C929 C928 1.477 1_554 S
C929 H949 0.930 . S
C930 N926 1.362 . S
C930 C927 1.431 . S
C930 C940 1.476 . S
H931 C925 0.929 1_554 S
C932 O923 1.250 . S
C932 O924 1.258 . S
O933 Mn918 2.154 1_455 S
O933 C921 1.288 . S
O934 Mn918 2.297 1_455 S
O934 C921 1.236 . S
N935 Mn919 2.282 1_455 S
N935 C936 1.328 . S
N935 C940 1.318 . S
C936 N935 1.328 . S
C936 C937 1.457 . S
C936 H941 0.929 . S
C937 C936 1.457 . S
C937 C938 1.291 . S
C937 H950 0.931 . S
C938 C937 1.291 . S
C938 C939 1.373 . S
C938 H951 0.929 . S
C939 C938 1.373 . S
C939 C940 1.396 . S
C939 C946 1.403 . S
C940 C930 1.476 . S
C940 N935 1.318 . S
C940 C939 1.396 . S
H941 C936 0.929 . S
O942 Mn918 2.385 1_455 S
O942 C920 1.234 . S
O943 Mn918 2.209 1_455 S
O943 Mn919 2.215 1_455 S
O943 C920 1.283 . S
O944 Mn918 2.094 . S
O944 C922 1.240 . S
O945 Mn919 2.117 . S
O945 C922 1.264 . S
C946 C939 1.403 . S
C946 C947 1.399 . S
C946 H952 0.929 . S
C947 C927 1.449 . S
C947 C946 1.399 . S
C947 H953 0.930 . S
H948 C928 0.931 . S
H949 C929 0.930 . S
H950 C937 0.931 . S
H951 C938 0.929 . S
H952 C946 0.929 . S
H953 C947 0.930 . S
Mn954 O959 2.095 . S
Mn954 O969 2.162 . S
Mn954 O970 2.297 . S
Mn954 O978 2.385 . S
Mn954 O979 2.209 . S
Mn954 O980 2.094 . S
Mn955 O960 2.121 . S
Mn955 N962 2.257 . S
Mn955 N971 2.282 . S
Mn955 O979 2.215 . S
Mn955 O981 2.117 . S
C956 O978 1.234 . S
C956 O979 1.283 . S
C957 O969 1.281 . S
C957 O970 1.236 . S
C958 O980 1.240 . S
C958 O981 1.264 . S
O959 Mn954 2.095 . S
O959 C968 1.250 . S
O960 Mn955 2.121 . S
O960 C968 1.258 . S
C961 N962 1.326 . S
C961 C965 1.460 . S
C961 H967 0.929 . S
N962 Mn955 2.257 . S
N962 C961 1.326 . S
N962 C966 1.362 . S
C963 C964 1.258 . S
C963 C966 1.431 . S
C963 C983 1.449 . S
C964 C963 1.258 . S
C964 C965 1.477 . S
C964 H984 0.931 . S
C965 C961 1.460 . S
C965 C964 1.477 . S
C965 H985 0.930 . S
C966 N962 1.362 . S
C966 C963 1.431 . S
C966 C976 1.476 . S
H967 C961 0.929 . S
C968 O959 1.250 . S
C968 O960 1.258 . S
O969 Mn954 2.162 . S
O969 C957 1.281 . S
O970 Mn954 2.297 . S
O970 C957 1.236 . S
N971 Mn955 2.282 . S
N971 C972 1.328 . S
N971 C976 1.318 . S
C972 N971 1.328 . S
C972 C973 1.457 1_545 S
C972 H977 0.929 1_545 S
C973 C972 1.457 1_565 S
C973 C974 1.291 . S
C973 H986 0.931 . S
C974 C973 1.291 . S
C974 C975 1.373 1_565 S
C974 H987 0.929 . S
C975 C974 1.373 1_545 S
C975 C976 1.396 . S
C975 C982 1.403 . S
C976 C966 1.476 . S
C976 N971 1.318 . S
C976 C975 1.396 . S
H977 C972 0.929 1_565 S
O978 Mn954 2.385 . S
O978 C956 1.234 . S
O979 Mn954 2.209 . S
O979 Mn955 2.215 . S
O979 C956 1.283 . S
O980 Mn954 2.094 . S
O980 C958 1.240 . S
O981 Mn955 2.117 . S
O981 C958 1.264 . S
C982 C975 1.403 . S
C982 C983 1.399 . S
C982 H988 0.929 . S
C983 C963 1.449 . S
C983 C982 1.399 . S
C983 H989 0.930 . S
H984 C964 0.931 . S
H985 C965 0.930 . S
H986 C973 0.931 . S
H987 C974 0.929 . S
H988 C982 0.929 . S
H989 C983 0.930 . S
Mn990 O995 2.095 . S
Mn990 O1005 2.162 . S
Mn990 O1006 2.297 . S
Mn990 O1014 2.385 1_655 S
Mn990 O1015 2.209 1_655 S
Mn990 O1016 2.094 . S
Mn991 O996 2.121 1_455 S
Mn991 N998 2.257 . S
Mn991 N1007 2.282 . S
Mn991 O1015 2.215 . S
Mn991 O1017 2.117 . S
C992 O1014 1.234 . S
C992 O1015 1.283 . S
C993 O1005 1.281 . S
C993 O1006 1.236 . S
C994 O1016 1.240 1_455 S
C994 O1017 1.264 . S
O995 Mn990 2.095 . S
O995 C1004 1.250 . S
O996 Mn991 2.121 1_655 S
O996 C1004 1.258 . S
C997 N998 1.326 . S
C997 C1001 1.460 . S
C997 H1003 0.929 . S
N998 Mn991 2.257 . S
N998 C997 1.326 . S
N998 C1002 1.362 . S
C999 C1000 1.258 . S
C999 C1002 1.431 . S
C999 C1019 1.449 . S
C1000 C999 1.258 . S
C1000 C1001 1.477 . S
C1000 H1020 0.931 . S
C1001 C997 1.460 . S
C1001 C1000 1.477 . S
C1001 H1021 0.930 . S
C1002 N998 1.362 . S
C1002 C999 1.431 . S
C1002 C1012 1.476 . S
H1003 C997 0.929 . S
C1004 O995 1.250 . S
C1004 O996 1.258 . S
O1005 Mn990 2.162 . S
O1005 C993 1.281 . S
O1006 Mn990 2.297 . S
O1006 C993 1.236 . S
N1007 Mn991 2.282 . S
N1007 C1008 1.328 . S
N1007 C1012 1.318 . S
C1008 N1007 1.328 . S
C1008 C1009 1.457 . S
C1008 H1013 0.929 . S
C1009 C1008 1.457 . S
C1009 C1010 1.291 . S
C1009 H1022 0.931 . S
C1010 C1009 1.291 . S
C1010 C1011 1.373 . S
C1010 H1023 0.929 . S
C1011 C1010 1.373 . S
C1011 C1012 1.396 . S
C1011 C1018 1.403 . S
C1012 C1002 1.476 . S
C1012 N1007 1.318 . S
C1012 C1011 1.396 . S
H1013 C1008 0.929 . S
O1014 Mn990 2.385 1_455 S
O1014 C992 1.234 . S
O1015 Mn990 2.209 1_455 S
O1015 Mn991 2.215 . S
O1015 C992 1.283 . S
O1016 Mn990 2.094 . S
O1016 C994 1.240 1_655 S
O1017 Mn991 2.117 . S
O1017 C994 1.264 . S
C1018 C1011 1.403 . S
C1018 C1019 1.399 . S
C1018 H1024 0.929 . S
C1019 C999 1.449 . S
C1019 C1018 1.399 . S
C1019 H1025 0.930 . S
H1020 C1000 0.931 . S
H1021 C1001 0.930 . S
H1022 C1009 0.931 . S
H1023 C1010 0.929 . S
H1024 C1018 0.929 . S
H1025 C1019 0.930 . S
Mn1026 O1031 2.095 . S
Mn1026 O1041 2.162 . S
Mn1026 O1042 2.297 . S
Mn1026 O1050 2.385 . S
Mn1026 O1051 2.209 . S
Mn1026 O1052 2.094 . S
Mn1027 O1032 2.121 . S
Mn1027 N1034 2.257 . S
Mn1027 N1043 2.282 . S
Mn1027 O1051 2.215 . S
Mn1027 O1053 2.117 . S
C1028 O1050 1.234 . S
C1028 O1051 1.283 . S
C1029 O1041 1.281 . S
C1029 O1042 1.236 . S
C1030 O1052 1.240 . S
C1030 O1053 1.264 . S
O1031 Mn1026 2.095 . S
O1031 C1040 1.250 . S
O1032 Mn1027 2.121 . S
O1032 C1040 1.258 . S
C1033 N1034 1.326 . S
C1033 C1037 1.460 . S
C1033 H1039 0.929 . S
N1034 Mn1027 2.257 . S
N1034 C1033 1.326 . S
N1034 C1038 1.362 . S
C1035 C1036 1.258 . S
C1035 C1038 1.431 . S
C1035 C1055 1.449 . S
C1036 C1035 1.258 . S
C1036 C1037 1.477 . S
C1036 H1056 0.931 . S
C1037 C1033 1.460 . S
C1037 C1036 1.477 . S
C1037 H1057 0.930 . S
C1038 N1034 1.362 . S
C1038 C1035 1.431 . S
C1038 C1048 1.476 . S
H1039 C1033 0.929 . S
C1040 O1031 1.250 . S
C1040 O1032 1.258 . S
O1041 Mn1026 2.162 . S
O1041 C1029 1.281 . S
O1042 Mn1026 2.297 . S
O1042 C1029 1.236 . S
N1043 Mn1027 2.282 . S
N1043 C1044 1.328 . S
N1043 C1048 1.318 . S
C1044 N1043 1.328 . S
C1044 C1045 1.457 . S
C1044 H1049 0.929 . S
C1045 C1044 1.457 . S
C1045 C1046 1.291 . S
C1045 H1058 0.931 . S
C1046 C1045 1.291 . S
C1046 C1047 1.373 . S
C1046 H1059 0.929 . S
C1047 C1046 1.373 . S
C1047 C1048 1.396 . S
C1047 C1054 1.403 . S
C1048 C1038 1.476 . S
C1048 N1043 1.318 . S
C1048 C1047 1.396 . S
H1049 C1044 0.929 . S
O1050 Mn1026 2.385 . S
O1050 C1028 1.234 . S
O1051 Mn1026 2.209 . S
O1051 Mn1027 2.215 . S
O1051 C1028 1.283 . S
O1052 Mn1026 2.094 . S
O1052 C1030 1.240 . S
O1053 Mn1027 2.117 . S
O1053 C1030 1.264 . S
C1054 C1047 1.403 . S
C1054 C1055 1.399 . S
C1054 H1060 0.929 . S
C1055 C1035 1.449 . S
C1055 C1054 1.399 . S
C1055 H1061 0.930 . S
H1056 C1036 0.931 . S
H1057 C1037 0.930 . S
H1058 C1045 0.931 . S
H1059 C1046 0.929 . S
H1060 C1054 0.929 . S
H1061 C1055 0.930 . S
C7 C814 1.404 . S
C742 C39 2.056 . S
C776 C62 1.596 . S
C76 C956 2.395 . S
C108 C994 1.496 . S
N117 C1028 1.621 . S
C921 C16 1.355 . S
C30 C849 2.173 . S
C884 C53 1.570 . S
C85 C632 2.293 1_565 S
C669 C99 1.874 . S
N127 C704 1.463 . S
N150 C1030 1.141 . S
C958 N173 1.643 . S
C992 C200 1.310 . S
C214 C524 1.939 . S
N232 C562 1.711 . S
C260 C596 1.509 . S
C489 N140 1.229 1_545 S
N163 C417 1.163 . S
C452 C191 1.837 . S
C848 C223 2.517 . S
C885 N242 1.728 1_545 S
C920 C269 1.904 . S
N288 C598 1.814 . S
C315 C526 1.609 . S
C338 C560 1.802 . S
C352 C740 2.340 . S
C778 N370 1.852 . S
C812 C398 1.705 . S
C705 N278 0.840 . S
C306 C633 2.003 . S
C329 C668 1.749 . S
C416 C361 1.785 . S
N380 C453 1.695 . S
C488 C407 1.740 . S
C525 N12 1.619 . S
N25 C572 1.922 . S
C597 N48 1.401 . S
C608 N81 1.438 . S
C536 N94 1.911 . S
C561 C131 1.658 . S
C418 N2 1.994 . S
N35 C464 1.417 . S
N58 C490 1.944 . S
C500 N71 1.112 . S
C428 N104 1.560 1_655 S
C454 C122 1.797 . S
C145 C741 2.698 . S
C168 C788 2.162 . S
N186 C813 1.494 . S
C824 N219 1.506 . S
C752 C246 2.060 . S
C777 N265 1.401 1_554 S
C634 C154 2.687 . S
C177 C680 2.157 . S
N196 C706 1.158 . S
N209 C716 0.986 . S
C237 C644 2.279 . S
C670 N255 1.412 . S
C283 C957 2.086 . S
N301 C1004 1.768 . S
N324 C1029 1.607 . S
C1040 N357 0.779 . S
C968 C384 2.160 . S
N403 C993 1.222 . S
C292 C850 2.378 . S
C896 N311 1.191 . S
N334 C922 1.767 . S
N347 C932 1.177 1_554 S
C860 C375 2.357 . S
N393 C886 1.415 . S
