# Generated by pormake.
# Topology pth, (4,4)-cn, num edge types: 1
# Building blocks:
#     Node 0, Type 0, BuildingBlock: QUQFOY_clean_sbu_3, # of connection points: 4
#     Node 1, Type 0, BuildingBlock: QUQFOY_clean_sbu_3, # of connection points: 4
#     Node 2, Type 0, BuildingBlock: QUQFOY_clean_sbu_3, # of connection points: 4
#     Node 3, Type 1, BuildingBlock: MUDLON_clean_sbu_0, # of connection points: 4
#     Node 4, Type 1, BuildingBlock: MUDLON_clean_sbu_0, # of connection points: 4
#     Node 5, Type 1, BuildingBlock: MUDLON_clean_sbu_0, # of connection points: 4
#     Edge 6, Type (0, 1), BuildingBlock: UVAHIK_clean_linker_0, # of connection points: 2
#     Edge 7, Type (0, 1), BuildingBlock: UVAHIK_clean_linker_0, # of connection points: 2
#     Edge 8, Type (0, 1), BuildingBlock: UVAHIK_clean_linker_0, # of connection points: 2
#     Edge 9, Type (0, 1), BuildingBlock: UVAHIK_clean_linker_0, # of connection points: 2
#     Edge 10, Type (0, 1), BuildingBlock: UVAHIK_clean_linker_0, # of connection points: 2
#     Edge 11, Type (0, 1), BuildingBlock: UVAHIK_clean_linker_0, # of connection points: 2
#     Edge 12, Type (0, 1), BuildingBlock: UVAHIK_clean_linker_0, # of connection points: 2
#     Edge 13, Type (0, 1), BuildingBlock: UVAHIK_clean_linker_0, # of connection points: 2
#     Edge 14, Type (0, 1), BuildingBlock: UVAHIK_clean_linker_0, # of connection points: 2
#     Edge 15, Type (0, 1), BuildingBlock: UVAHIK_clean_linker_0, # of connection points: 2
#     Edge 16, Type (0, 1), BuildingBlock: UVAHIK_clean_linker_0, # of connection points: 2
#     Edge 17, Type (0, 1), BuildingBlock: UVAHIK_clean_linker_0, # of connection points: 2
# Relax obj value: 0.015
# Max RMSD: 0.071
# Mean RMSD: 0.054
data_MOF--net-pth--node1-QUQFOY_clean_sbu_3--node2-MUDLON_clean_sbu_0--edge1-UVAHIK_clean_linker_0
_symmetry_space_group_name_H-M    P1
_symmetry_Int_Tables_number       1
_symmetry_cell_setting            triclinic
loop_
_symmetry_equiv_pos_as_xyz
'x, y, z'
_cell_length_a     29.590807
_cell_length_b     29.338667
_cell_length_c     80.490177
_cell_angle_alpha  90.000256
_cell_angle_beta   90.608667
_cell_angle_gamma 120.82201
loop_
_atom_site_label
_atom_site_type_symbol
_atom_site_fract_x
_atom_site_fract_y
_atom_site_fract_z
_atom_type_partial_charge
C0 C 0.02705 0.19833 0.10879 0.0
O1 O 0.00381 0.19892 0.09552 0.0
Cd2 Cd 0.98279 0.13769 0.07286 0.0
O3 O 0.03912 0.16275 0.11092 0.0
Cd4 Cd 0.02876 0.08378 0.09531 0.0
C5 C 0.10599 0.16 0.06375 0.0
O6 O 0.93954 0.04816 0.08267 0.0
O7 O 0.98582 0.01514 0.07418 0.0
O8 O 0.00343 0.03954 0.12218 0.0
C9 C 0.94231 0.01371 0.07388 0.0
O10 O 0.06577 0.16288 0.05979 0.0
C11 C 0.0326 0.01958 0.1217 0.0
O12 O 0.10615 0.13596 0.07697 0.0
O13 O 0.06192 0.03078 0.10909 0.0
C14 C 0.14561 0.15402 0.45086 0.0
O15 O 0.16812 0.18452 0.43867 0.0
Cd16 Cd 0.12175 0.1765 0.41303 0.0
O17 O 0.09635 0.12036 0.45015 0.0
Cd18 Cd 0.0198 0.09252 0.43077 0.0
C19 C 0.0718 0.04454 0.40336 0.0
O20 O 0.04154 0.17664 0.41722 0.0
O21 O 0.98336 0.10432 0.40487 0.0
O22 O 0.96772 0.1028 0.452 0.0
C23 C 0.0074 0.1546 0.40564 0.0
O24 O 0.1037 0.09332 0.40023 0.0
C25 C 0.93156 0.05443 0.45274 0.0
O26 O 0.03769 0.03129 0.41478 0.0
O27 O 0.93627 0.02222 0.44337 0.0
C28 C 0.94642 0.09077 0.74518 0.0
O29 O 0.94425 0.10995 0.7591 0.0
Cd30 Cd -0.001 0.12107 0.78287 0.0
O31 O 0.97817 0.07391 0.74317 0.0
Cd32 Cd 0.04509 0.06522 0.76026 0.0
C33 C 0.9609 0.99193 0.7914 0.0
O34 O 0.0855 0.15558 0.77207 0.0
O35 O 0.11753 0.10873 0.78096 0.0
O36 O 0.08637 0.07252 0.73317 0.0
C37 C 0.11931 0.15278 0.78109 0.0
O38 O 0.96445 0.03499 0.79622 0.0
C39 C 0.09866 0.03767 0.73612 0.0
O40 O 0.98258 0.99035 0.77797 0.0
O41 O 0.08565 0.01523 0.75018 0.0
Mg42 Mg 0.03061 0.58522 0.26284 0.0
C43 C 0.97773 0.47033 0.27487 0.0
O44 O -0.00325 0.46355 0.26103 0.0
C45 C 0.98499 0.649 0.24784 0.0
O46 O 0.99122 0.66686 0.26316 0.0
C47 C 0.08754 0.57788 0.23298 0.0
O48 O 0.07688 0.61371 0.22766 0.0
O49 O 0.07852 0.56353 0.24809 0.0
O50 O 0.98091 0.51463 0.27756 0.0
O51 O 0.06964 0.64952 0.28127 0.0
C52 C 0.0419 0.64299 0.29406 0.0
O53 O -0.00408 0.59913 0.29519 0.0
O54 O 0.99306 0.61125 0.2447 0.0
Mg55 Mg 0.51489 0.04957 0.59413 0.0
C56 C 0.44094 0.07275 0.57734 0.0
O57 O 0.41357 0.02228 0.58124 0.0
C58 C 0.62436 0.08949 0.60879 0.0
O59 O 0.63118 0.07498 0.59405 0.0
C60 C 0.44923 0.99473 0.62474 0.0
O61 O 0.4959 0.01625 0.63187 0.0
O62 O 0.44613 0.9966 0.609 0.0
O63 O 0.4895 0.09924 0.5815 0.0
O64 O 0.53753 0.01711 0.57353 0.0
C65 C 0.54868 0.98059 0.57342 0.0
O66 O 0.54215 0.95294 0.58695 0.0
O67 O 0.5814 0.08799 0.61172 0.0
Mg68 Mg 0.5455 0.55663 0.9283 0.0
C69 C 0.48056 0.54683 0.89717 0.0
O70 O 0.52557 0.58716 0.89227 0.0
C71 C 0.60443 0.62681 0.95494 0.0
O72 O 0.62295 0.59534 0.95204 0.0
C73 C 0.49003 0.44303 0.94121 0.0
O74 O 0.46942 0.43265 0.92616 0.0
O75 O 0.52638 0.49012 0.94476 0.0
O76 O 0.47689 0.53025 0.91199 0.0
O77 O 0.61594 0.58757 0.91315 0.0
C78 C 0.61973 0.57052 0.899 0.0
O79 O 0.58008 0.52584 0.89319 0.0
O80 O 0.56619 0.62118 0.94594 0.0
C81 C 0.0542 0.23357 0.13802 0.0
C82 C 0.0401 0.23945 0.12176 0.0
C83 C 0.0648 0.27193 0.15027 0.0
C84 C 0.04193 0.38311 0.15937 0.0
H85 H 0.14727 0.41888 0.19398 0.0
C86 C 0.09969 0.55768 0.20371 0.0
C87 C 0.09776 0.54633 0.22075 0.0
C88 C 0.09909 0.52265 0.19182 0.0
C89 C 0.11761 0.40911 0.18441 0.0
H90 H 0.028 0.29133 0.10552 0.0
H91 H 0.04795 0.35856 0.12655 0.0
H92 H 0.13298 0.35271 0.17281 0.0
H93 H 0.0974 0.49082 0.23865 0.0
H94 H 0.09696 0.42987 0.2178 0.0
H95 H 0.02703 0.43984 0.17081 0.0
C96 C 0.04921 0.32363 0.1301 0.0
C97 C 0.10919 0.371 0.17231 0.0
C98 C 0.03804 0.2851 0.11796 0.0
C99 C 0.09888 0.50082 0.22563 0.0
C100 C 0.09864 0.46586 0.21369 0.0
C101 C 0.05077 0.42146 0.1713 0.0
C102 C 0.06205 0.31736 0.1465 0.0
C103 C 0.07128 0.35759 0.15957 0.0
C104 C 0.09693 0.47555 0.19665 0.0
C105 C 0.08877 0.43508 0.18393 0.0
H106 H 0.05607 0.19882 0.14138 0.0
H107 H 0.07396 0.2653 0.16277 0.0
H108 H 0.01141 0.37302 0.15009 0.0
H109 H 0.09923 0.59248 0.19947 0.0
H110 H 0.09878 0.5317 0.17879 0.0
C111 C 0.87375 0.07524 0.46949 0.0
C112 C 0.88588 0.0375 0.46378 0.0
C113 C 0.83096 0.06036 0.47989 0.0
C114 C 0.75226 0.96841 0.51178 0.0
H115 H 0.65118 0.01081 0.50082 0.0
C116 C 0.5884 0.93507 0.55786 0.0
C117 C 0.57707 0.97602 0.55897 0.0
C118 C 0.61961 0.93432 0.54497 0.0
C119 C 0.67929 -0.00087 0.50423 0.0
H120 H 0.86278 0.95451 0.46464 0.0
H121 H 0.78848 0.92872 0.48342 0.0
H122 H 0.71911 0.02598 0.48101 0.0
H123 H 0.58918 0.04788 0.54715 0.0
H124 H 0.64445 0.04771 0.52529 0.0
H125 H 0.71477 0.94444 0.53538 0.0
C126 C 0.81199 0.96971 0.47957 0.0
C127 C 0.71797 0.00749 0.49277 0.0
C128 C 0.85431 0.98442 0.46881 0.0
C129 C 0.59664 0.01541 0.54667 0.0
C130 C 0.62827 0.01508 0.53397 0.0
C131 C 0.71411 0.96091 0.52341 0.0
C132 C 0.79979 0.00757 0.48511 0.0
C133 C 0.75539 0.99307 0.49654 0.0
C134 C 0.64075 0.97486 0.53297 0.0
C135 C 0.67769 0.9772 0.51995 0.0
H136 H 0.89716 0.11641 0.46581 0.0
H137 H 0.82272 0.09042 0.48409 0.0
H138 H 0.78089 0.95723 0.51503 0.0
H139 H 0.57381 0.90399 0.56709 0.0
H140 H 0.62747 0.90214 0.54451 0.0
C141 C 0.91288 0.89261 0.79516 0.0
C142 C 0.9316 0.94372 0.80176 0.0
C143 C 0.88393 0.84751 0.80503 0.0
C144 C 0.85953 0.80347 0.84855 0.0
H145 H 0.72252 0.69188 0.83295 0.0
C146 C 0.70178 0.65755 0.89344 0.0
C147 C 0.66411 0.60606 0.88804 0.0
C148 C 0.7392 0.69403 0.88251 0.0
C149 C 0.76113 0.72196 0.83743 0.0
H150 H 0.93557 0.9874 0.82403 0.0
H151 H 0.88615 0.9091 0.84121 0.0
H152 H 0.77916 0.7642 0.81437 0.0
H153 H 0.63824 0.55181 0.86704 0.0
H154 H 0.70459 0.61506 0.84805 0.0
H155 H 0.84199 0.7617 0.87156 0.0
C156 C 0.89357 0.90382 0.82841 0.0
C157 C 0.7935 0.76355 0.82676 0.0
C158 C 0.9216 0.94868 0.8185 0.0
C159 C 0.66651 0.59119 0.87161 0.0
C160 C 0.70431 0.62769 0.86067 0.0
C161 C 0.82753 0.76163 0.85914 0.0
C162 C 0.87412 0.85272 0.82178 0.0
C163 C 0.84248 0.8054 0.83235 0.0
C164 C 0.74047 0.68003 0.86587 0.0
C165 C 0.77725 0.72095 0.8539 0.0
H166 H 0.91984 0.88743 0.7823 0.0
H167 H 0.8695 0.80857 0.79962 0.0
H168 H 0.89746 0.83479 0.85312 0.0
H169 H 0.70114 0.67058 0.90599 0.0
H170 H 0.76567 0.73401 0.88699 0.0
C171 C 0.00465 0.9791 0.14988 0.0
C172 C 0.03014 0.98296 0.13485 0.0
C173 C -0.00097 0.94226 0.16193 0.0
C174 C 0.99152 0.81449 0.16708 0.0
H175 H 0.02174 0.85595 0.21345 0.0
C176 C 0.9928 0.67445 0.21776 0.0
C177 C 0.97933 0.67949 0.23408 0.0
C178 C -0.00409 0.70932 0.20533 0.0
C179 C 0.01209 0.84325 0.20061 0.0
H180 H 0.07003 0.9513 0.12073 0.0
H181 H 0.05963 0.88633 0.14177 0.0
H182 H 0.03532 0.92191 0.19266 0.0
H183 H 0.95528 0.72296 0.24986 0.0
H184 H 0.95842 0.78214 0.2281 0.0
H185 H 0.96717 0.73561 0.17499 0.0
C186 C 0.04409 0.912 0.14419 0.0
C187 C 0.02029 0.8813 0.18867 0.0
C188 C 0.0504 0.94946 0.13221 0.0
C189 C 0.96619 0.71825 0.23745 0.0
C190 C 0.9686 0.75264 0.22498 0.0
C191 C 0.98267 0.77619 0.17905 0.0
C192 C 0.01813 0.90786 0.15915 0.0
C193 C 0.01021 0.86742 0.17177 0.0
C194 C 0.98497 0.74972 0.20884 0.0
C195 C 0.99289 0.79001 0.19601 0.0
H196 H 0.98854 0.00428 0.15229 0.0
H197 H 0.97854 0.9398 0.17327 0.0
H198 H 0.98274 0.80245 0.15416 0.0
H199 H 0.00347 0.64523 0.21473 0.0
H200 H 0.0091 0.7059 0.19315 0.0
C201 C 0.15286 0.12155 0.47908 0.0
C202 C 0.17726 0.15531 0.46553 0.0
C203 C 0.18291 0.11936 0.49225 0.0
C204 C 0.31591 0.18863 0.51221 0.0
H205 H 0.27218 0.04717 0.52785 0.0
C206 C 0.44284 0.13607 0.55571 0.0
C207 C 0.415 0.09525 0.56722 0.0
C208 C 0.41557 0.14962 0.54422 0.0
C209 C 0.28464 0.08711 0.52384 0.0
H210 H 0.25264 0.21473 0.45556 0.0
H211 H 0.30502 0.21042 0.47845 0.0
H212 H 0.22111 0.05878 0.5063 0.0
H213 H 0.33745 0.0399 0.57667 0.0
H214 H 0.29046 0.0643 0.55713 0.0
H215 H 0.38004 0.21662 0.52977 0.0
C216 C 0.26256 0.18595 0.47896 0.0
C217 C 0.25523 0.09377 0.51144 0.0
C218 C 0.23245 0.1882 0.46578 0.0
C219 C 0.35999 0.07095 0.56778 0.0
C220 C 0.33298 0.0847 0.55649 0.0
C221 C 0.34551 0.18193 0.52468 0.0
C222 C 0.23821 0.15075 0.49221 0.0
C223 C 0.27014 0.14457 0.50552 0.0
C224 C 0.36012 0.12274 0.54416 0.0
C225 C 0.32991 0.13104 0.53074 0.0
H226 H 0.11047 0.09596 0.47941 0.0
H227 H 0.16274 0.09255 0.50241 0.0
H228 H 0.32841 0.22838 0.50798 0.0
H229 H 0.48526 0.15534 0.55498 0.0
H230 H 0.4377 0.17916 0.5349 0.0
C231 C 0.14912 0.24033 0.79513 0.0
C232 C 0.15609 0.19707 0.79219 0.0
C233 C 0.18282 0.28124 0.80604 0.0
C234 C 0.31522 0.34567 0.82494 0.0
H235 H 0.25705 0.39456 0.85874 0.0
C236 C 0.4482 0.52366 0.8677 0.0
C237 C 0.43841 0.51457 0.8848 0.0
C238 C 0.41188 0.48846 0.85594 0.0
C239 C 0.27384 0.38135 0.84935 0.0
H240 H 0.20432 0.16322 0.79825 0.0
H241 H 0.2636 0.23501 0.8171 0.0
H242 H 0.19808 0.32542 0.83899 0.0
H243 H 0.38134 0.46273 0.90289 0.0
H244 H 0.31761 0.40178 0.88233 0.0
H245 H 0.39087 0.40116 0.83533 0.0
C246 C 0.232 0.23721 0.81098 0.0
C247 C 0.24014 0.34205 0.83798 0.0
C248 C 0.1979 0.19598 0.80024 0.0
C249 C 0.39015 0.47095 0.88983 0.0
C250 C 0.35356 0.43606 0.87804 0.0
C251 C 0.3489 0.38539 0.83615 0.0
C252 C 0.22468 0.28016 0.81408 0.0
C253 C 0.26045 0.32341 0.82575 0.0
C254 C 0.36463 0.44367 0.86098 0.0
C255 C 0.32861 0.40341 0.84857 0.0
H256 H 0.1172 0.2423 0.78914 0.0
H257 H 0.17644 0.314 0.80808 0.0
H258 H 0.33208 0.33242 0.81558 0.0
H259 H 0.48491 0.55679 0.86336 0.0
H260 H 0.42122 0.49577 0.84288 0.0
C261 C 0.87456 0.10378 0.73372 0.0
C262 C 0.91297 0.08992 0.73111 0.0
C263 C 0.8444 0.10526 0.72046 0.0
C264 C 0.80309 0.05871 0.67691 0.0
H265 H 0.76799 0.16925 0.67612 0.0
C266 C 0.70562 0.09241 0.61955 0.0
C267 C 0.66231 0.09868 0.62248 0.0
C268 C 0.73784 0.09422 0.63268 0.0
C269 C 0.77713 0.1379 0.67622 0.0
H270 H 0.94944 0.06645 0.7124 0.0
H271 H 0.89751 0.06989 0.68923 0.0
H272 H 0.82044 0.16561 0.69911 0.0
H273 H 0.62027 0.11385 0.64153 0.0
H274 H 0.67694 0.11751 0.66445 0.0
H275 H 0.76014 0.03138 0.65393 0.0
C276 C 0.89004 0.0788 0.7016 0.0
C277 C 0.8071 0.13567 0.68943 0.0
C278 C 0.92005 0.07703 0.7149 0.0
C279 C 0.65334 0.10899 0.63881 0.0
C280 C 0.68587 0.11115 0.65195 0.0
C281 C 0.77343 0.06118 0.66365 0.0
C282 C 0.85196 0.09323 0.70418 0.0
C283 C 0.8204 0.09593 0.68999 0.0
C284 C 0.72786 0.10268 0.64908 0.0
C285 C 0.76003 0.10076 0.66314 0.0
H286 H 0.86773 0.11365 0.74604 0.0
H287 H 0.81482 0.11551 0.72303 0.0
H288 H 0.81164 0.02697 0.67701 0.0
H289 H 0.71388 0.08453 0.60715 0.0
H290 H 0.77037 0.08844 0.63 0.0
C291 C 0.85551 0.98093 0.059 0.0
C292 C 0.89783 0.97419 0.06345 0.0
C293 C 0.81489 0.9439 0.04855 0.0
C294 C 0.75113 0.80503 0.03463 0.0
H295 H 0.7169 0.85053 0.99357 0.0
C296 C 0.66732 0.66699 0.97872 0.0
C297 C 0.6285 0.66691 0.96848 0.0
C298 C 0.69158 0.7043 0.99142 0.0
C299 C 0.72513 0.83718 0.00513 0.0
H300 H 0.93029 0.92305 0.06067 0.0
H301 H 0.85936 0.8584 0.04284 0.0
H302 H 0.7753 0.91688 0.01418 0.0
H303 H 0.58476 0.70642 0.96362 0.0
H304 H 0.62774 0.77247 0.98605 0.0
H305 H 0.7022 0.72568 0.02563 0.0
C306 C 0.8575 0.89221 0.04733 0.0
C307 C 0.75862 0.87516 0.01691 0.0
C308 C 0.8983 0.92944 0.05748 0.0
C309 C 0.61445 0.70536 0.97132 0.0
C310 C 0.63917 0.74324 0.9841 0.0
C311 C 0.71753 0.76724 0.02298 0.0
C312 C 0.81546 0.89904 0.04269 0.0
C313 C 0.77335 0.85942 0.0315 0.0
C314 C 0.67788 0.74285 0.99435 0.0
C315 C 0.70568 0.78285 0.00781 0.0
H316 H 0.85425 0.01518 0.06336 0.0
H317 H 0.7829 0.95007 0.04516 0.0
H318 H 0.76105 0.79173 0.0459 0.0
H319 H 0.67941 0.6382 0.97693 0.0
H320 H 0.722 0.70345 -0.00122 0.0
C321 C 0.11176 0.01902 0.38054 0.0
C322 C 0.07458 0.00355 0.3933 0.0
C323 C 0.11396 0.98119 0.37061 0.0
C324 C 0.07497 0.8397 0.36865 0.0
H325 H 0.08994 0.86388 0.32112 0.0
C326 C 0.02779 0.67342 0.3214 0.0
C327 C 0.05695 0.68531 0.30671 0.0
C328 C 0.03657 0.71341 0.33264 0.0
C329 C 0.08675 0.85688 0.33438 0.0
H330 H 0.01098 0.93569 0.4057 0.0
H331 H 0.01468 0.86944 0.38825 0.0
H332 H 0.09076 0.93053 0.33937 0.0
H333 H 0.11984 0.74855 0.29264 0.0
H334 H 0.13575 0.81885 0.31247 0.0
H335 H 0.07046 0.7658 0.36364 0.0
C336 C 0.04243 0.91108 0.38606 0.0
C337 C 0.08701 0.89506 0.34486 0.0
C338 C 0.0401 0.94905 0.39601 0.0
C339 C 0.09673 0.7381 0.30385 0.0
C340 C 0.10548 0.77838 0.31514 0.0
C341 C 0.07487 0.80157 0.35817 0.0
C342 C 0.07914 0.92675 0.37315 0.0
C343 C 0.08056 0.88671 0.36211 0.0
C344 C 0.07483 0.76657 0.32955 0.0
C345 C 0.08008 0.80934 0.34087 0.0
H346 H 0.13918 0.06058 0.3781 0.0
H347 H 0.14322 0.99467 0.36096 0.0
H348 H 0.07084 0.83242 0.38189 0.0
H349 H -0.0031 0.63316 0.32404 0.0
H350 H 0.01174 0.70276 0.34345 0.0
C351 C 0.15505 -0.00047 0.72905 0.0
C352 C 0.12778 0.02476 0.72394 0.0
C353 C 0.18455 0.98952 0.71771 0.0
C354 C 0.24527 0.03042 0.67572 0.0
H355 H 0.26655 0.91145 0.68149 0.0
C356 C 0.35942 0.9823 0.62815 0.0
C357 C 0.40265 0.98101 0.63504 0.0
C358 C 0.32046 0.9802 0.63839 0.0
C359 C 0.26084 0.94478 0.67974 0.0
H360 H 0.10852 0.0576 0.7028 0.0
H361 H 0.15769 0.03803 0.68286 0.0
H362 H 0.20833 0.92234 0.70023 0.0
H363 H 0.43682 0.97279 0.65798 0.0
H364 H 0.36784 0.96753 0.6758 0.0
H365 H 0.29707 0.05202 0.65501 0.0
C366 C 0.1582 0.02764 0.69574 0.0
C367 C 0.22778 0.95139 0.69055 0.0
C368 C 0.12955 0.03856 0.70715 0.0
C369 C 0.40407 0.97389 0.65228 0.0
C370 C 0.36456 0.97083 0.66249 0.0
C371 C 0.27746 0.02321 0.66476 0.0
C372 C 0.1868 0.0036 0.70086 0.0
C373 C 0.21994 0.99472 0.68884 0.0
C374 C 0.32331 0.97573 0.6557 0.0
C375 C 0.28604 0.98066 0.66674 0.0
H376 H 0.15472 0.98871 0.74193 0.0
H377 H 0.20661 0.9719 0.72231 0.0
H378 H 0.24151 0.06497 0.67412 0.0
H379 H 0.35715 0.98802 0.61494 0.0
H380 H 0.28883 0.98359 0.63282 0.0
C381 C 0.19571 0.17839 0.05476 0.0
C382 C 0.15196 0.18465 0.05247 0.0
C383 C 0.23723 0.20022 0.04336 0.0
C384 C 0.33149 0.2776 0.02143 0.0
H385 H 0.29138 0.27194 0.97512 0.0
C386 C 0.47195 0.4203 0.97143 0.0
C387 C 0.46336 0.4039 0.95469 0.0
C388 C 0.43935 0.38636 0.98388 0.0
C389 C 0.30367 0.27321 0.98792 0.0
H390 H 0.11878 0.22046 0.03663 0.0
H391 H 0.19043 0.25836 0.01717 0.0
H392 H 0.22395 0.22622 0.99575 0.0
H393 H 0.41688 0.33726 0.93813 0.0
H394 H 0.36129 0.27753 0.95983 0.0
H395 H 0.41149 0.32482 0.01348 0.0
C396 C 0.19246 0.2357 0.02748 0.0
C397 C 0.26474 0.24752 -0.00017 0.0
C398 C 0.15136 0.21412 0.03877 0.0
C399 C 0.42417 0.3514 0.95087 0.0
C400 C 0.39197 0.31727 0.96333 0.0
C401 C 0.37068 0.30335 0.00945 0.0
C402 C 0.23559 0.22847 0.02944 0.0
C403 C 0.27797 0.25053 0.01678 0.0
C404 C 0.39768 0.33497 0.97991 0.0
C405 C 0.3572 0.30242 0.99255 0.0
H406 H 0.19751 0.156 0.06519 0.0
H407 H 0.26996 0.19398 0.04523 0.0
H408 H 0.34304 0.2807 0.03439 0.0
H409 H 0.50178 0.4605 0.97484 0.0
H410 H 0.44493 0.40169 -0.00356 0.0
C411 C 0.97428 0.16239 0.37767 0.0
C412 C -0.00142 0.18583 0.39293 0.0
C413 C 0.96658 0.1918 0.36548 0.0
C414 C 0.01118 0.3315 0.35338 0.0
H415 H 0.89294 0.2621 0.32258 0.0
C416 C 0.96604 0.44867 0.30522 0.0
C417 C 0.96456 0.43223 0.28869 0.0
C418 C 0.96368 0.41668 0.31846 0.0
C419 C 0.92609 0.28192 0.33112 0.0
H420 H 0.03272 0.25816 0.40755 0.0
H421 H 0.01728 0.30898 0.38666 0.0
H422 H 0.90184 0.21113 0.34501 0.0
H423 H 0.95588 0.36776 0.27317 0.0
H424 H 0.95019 0.3112 0.29638 0.0
H425 H 0.03448 0.40254 0.33961 0.0
C426 C 0.00571 0.26836 0.38377 0.0
C427 C 0.93156 0.2527 0.34392 0.0
C428 C 0.01431 0.23915 0.39585 0.0
C429 C 0.95717 0.38159 0.28574 0.0
C430 C 0.95387 0.34918 0.29901 0.0
C431 C 0.00511 0.36083 0.34079 0.0
C432 C 0.98207 0.24526 0.36833 0.0
C433 C 0.97459 0.2769 0.35515 0.0
C434 C 0.95877 0.36716 0.31549 0.0
C435 C 0.96284 0.33625 0.32943 0.0
H436 H 0.96204 0.12144 0.37499 0.0
H437 H 0.94935 0.17267 0.35369 0.0
H438 H 0.04544 0.35159 0.36146 0.0
H439 H 0.97187 0.48748 0.30797 0.0
H440 H 0.96707 0.43125 0.33105 0.0
loop_
_geom_bond_atom_site_label_1
_geom_bond_atom_site_label_2
_geom_bond_distance
_geom_bond_site_symmetry_2
_ccdc_geom_bond_type
C0 O1 1.306 . S
C0 O3 1.160 . S
O1 C0 1.306 . S
O1 Cd2 2.228 1_455 S
Cd2 O1 2.228 1_655 S
Cd2 O6 2.273 . S
Cd2 O10 2.277 1_655 S
O3 C0 1.160 . S
O3 Cd4 2.203 . S
Cd4 O3 2.203 . S
Cd4 O6 2.411 1_455 S
Cd4 O7 2.333 . S
Cd4 O8 2.352 . S
Cd4 O12 2.277 . S
Cd4 O13 2.356 . S
C5 O10 1.209 . S
C5 O12 1.226 . S
O6 Cd2 2.273 . S
O6 Cd4 2.411 1_655 S
O6 C9 1.320 . S
O7 Cd4 2.333 . S
O7 C9 1.214 1_455 S
O8 Cd4 2.352 . S
O8 C11 1.258 1_545 S
C9 O6 1.320 . S
C9 O7 1.214 1_655 S
O10 Cd2 2.277 1_455 S
O10 C5 1.209 . S
C11 O8 1.258 1_565 S
C11 O13 1.282 1_565 S
O12 Cd4 2.277 . S
O12 C5 1.226 . S
O13 Cd4 2.356 . S
O13 C11 1.282 1_545 S
C14 O15 1.306 . S
C14 O17 1.160 . S
O15 C14 1.306 . S
O15 Cd16 2.228 . S
Cd16 O15 2.228 . S
Cd16 O20 2.273 . S
Cd16 O24 2.277 . S
O17 C14 1.160 . S
O17 Cd18 2.203 . S
Cd18 O17 2.203 . S
Cd18 O20 2.411 . S
Cd18 O21 2.333 1_455 S
Cd18 O22 2.352 1_455 S
Cd18 O26 2.277 1_445 S
Cd18 O27 2.356 1_455 S
C19 O24 1.209 1_565 S
C19 O26 1.226 1_455 S
O20 Cd16 2.273 . S
O20 Cd18 2.411 . S
O20 C23 1.320 . S
O21 Cd18 2.333 1_655 S
O21 C23 1.214 1_655 S
O22 Cd18 2.352 1_655 S
O22 C25 1.258 . S
C23 O20 1.320 . S
C23 O21 1.214 1_455 S
O24 Cd16 2.277 . S
O24 C19 1.209 1_545 S
C25 O22 1.258 . S
C25 O27 1.282 . S
O26 Cd18 2.277 1_665 S
O26 C19 1.226 1_655 S
O27 Cd18 2.356 1_655 S
O27 C25 1.282 . S
C28 O29 1.306 . S
C28 O31 1.160 . S
O29 C28 1.306 . S
O29 Cd30 2.228 . S
Cd30 O29 2.228 . S
Cd30 O34 2.273 1_655 S
Cd30 O38 2.277 . S
O31 C28 1.160 . S
O31 Cd32 2.203 1_655 S
Cd32 O31 2.203 1_455 S
Cd32 O34 2.411 . S
Cd32 O35 2.333 . S
Cd32 O36 2.352 . S
Cd32 O40 2.277 1_445 S
Cd32 O41 2.356 . S
C33 O38 1.209 . S
C33 O40 1.226 1_545 S
O34 Cd30 2.273 1_455 S
O34 Cd32 2.411 . S
O34 C37 1.320 . S
O35 Cd32 2.333 . S
O35 C37 1.214 . S
O36 Cd32 2.352 . S
O36 C39 1.258 . S
C37 O34 1.320 . S
C37 O35 1.214 . S
O38 Cd30 2.277 . S
O38 C33 1.209 . S
C39 O36 1.258 . S
C39 O41 1.282 . S
O40 Cd32 2.277 1_665 S
O40 C33 1.226 1_565 S
O41 Cd32 2.356 . S
O41 C39 1.282 . S
Mg42 O49 2.141 . S
Mg42 O50 2.048 . S
Mg42 O51 2.048 . S
Mg42 O54 2.141 . S
C43 O44 1.313 1_455 S
C43 O50 1.195 . S
O44 C43 1.313 1_655 S
C45 O46 1.245 1_455 S
C45 O54 1.289 . S
O46 C45 1.245 1_655 S
C47 O48 1.245 1_455 S
C47 O49 1.289 . S
O48 C47 1.245 1_655 S
O49 Mg42 2.141 . S
O49 C47 1.289 . S
O50 Mg42 2.048 . S
O50 C43 1.195 . S
O51 Mg42 2.048 . S
O51 C52 1.195 . S
C52 O51 1.195 . S
C52 O53 1.313 1_455 S
O53 C52 1.313 1_655 S
O54 Mg42 2.141 . S
O54 C45 1.289 . S
Mg55 O62 2.141 . S
Mg55 O63 2.048 . S
Mg55 O64 2.048 . S
Mg55 O67 2.141 . S
C56 O57 1.313 . S
C56 O63 1.195 . S
O57 C56 1.313 . S
C58 O59 1.245 . S
C58 O67 1.289 . S
O59 C58 1.245 . S
C60 O61 1.245 . S
C60 O62 1.289 . S
O61 C60 1.245 . S
O62 Mg55 2.141 . S
O62 C60 1.289 . S
O63 Mg55 2.048 . S
O63 C56 1.195 . S
O64 Mg55 2.048 . S
O64 C65 1.195 . S
C65 O64 1.195 . S
C65 O66 1.313 . S
O66 C65 1.313 . S
O67 Mg55 2.141 . S
O67 C58 1.289 . S
Mg68 O75 2.141 . S
Mg68 O76 2.048 . S
Mg68 O77 2.048 . S
Mg68 O80 2.141 . S
C69 O70 1.313 . S
C69 O76 1.195 . S
O70 C69 1.313 . S
C71 O72 1.245 . S
C71 O80 1.289 . S
O72 C71 1.245 . S
C73 O74 1.245 . S
C73 O75 1.289 . S
O74 C73 1.245 . S
O75 Mg68 2.141 . S
O75 C73 1.289 . S
O76 Mg68 2.048 . S
O76 C69 1.195 . S
O77 Mg68 2.048 . S
O77 C78 1.195 . S
C78 O77 1.195 . S
C78 O79 1.313 . S
O79 C78 1.313 . S
O80 Mg68 2.141 . S
O80 C71 1.289 . S
C81 C82 1.349 . S
C81 C83 1.327 . S
C81 H106 0.950 . S
C82 C81 1.349 . S
C82 C98 1.349 . S
C83 C81 1.327 . S
C83 C102 1.429 . S
C83 H107 0.950 . S
C84 C101 1.574 . S
C84 C103 1.368 . S
C84 H108 0.949 . S
H85 C89 0.949 . S
C86 C87 1.349 . S
C86 C88 1.327 . S
C86 H109 0.950 . S
C87 C86 1.349 . S
C87 C99 1.349 . S
C88 C86 1.327 . S
C88 C104 1.429 . S
C88 H110 0.950 . S
C89 H85 0.949 . S
C89 C97 1.574 . S
C89 C105 1.368 . S
H90 C98 0.950 . S
H91 C96 0.950 . S
H92 C97 0.949 . S
H93 C99 0.950 . S
H94 C100 0.950 . S
H95 C101 0.949 . S
C96 H91 0.950 . S
C96 C98 1.327 . S
C96 C102 1.429 . S
C97 C89 1.574 . S
C97 H92 0.949 . S
C97 C103 1.368 . S
C98 C82 1.349 . S
C98 H90 0.950 . S
C98 C96 1.327 . S
C99 C87 1.349 . S
C99 H93 0.950 . S
C99 C100 1.327 . S
C100 H94 0.950 . S
C100 C99 1.327 . S
C100 C104 1.429 . S
C101 C84 1.574 . S
C101 H95 0.949 . S
C101 C105 1.368 . S
C102 C83 1.429 . S
C102 C96 1.429 . S
C102 C103 1.523 . S
C103 C84 1.368 . S
C103 C97 1.368 . S
C103 C102 1.523 . S
C104 C88 1.429 . S
C104 C100 1.429 . S
C104 C105 1.523 . S
C105 C89 1.368 . S
C105 C101 1.368 . S
C105 C104 1.523 . S
H106 C81 0.950 . S
H107 C83 0.950 . S
H108 C84 0.949 . S
H109 C86 0.950 . S
H110 C88 0.950 . S
C111 C112 1.349 . S
C111 C113 1.327 . S
C111 H136 0.950 . S
C112 C111 1.349 . S
C112 C128 1.349 . S
C113 C111 1.327 . S
C113 C132 1.429 . S
C113 H137 0.950 . S
C114 C131 1.574 . S
C114 C133 1.368 . S
C114 H138 0.949 1_545 S
H115 C119 0.949 . S
C116 C117 1.349 . S
C116 C118 1.327 . S
C116 H139 0.950 . S
C117 C116 1.349 . S
C117 C129 1.349 . S
C118 C116 1.327 . S
C118 C134 1.429 . S
C118 H140 0.950 1_545 S
C119 H115 0.949 . S
C119 C127 1.574 . S
C119 C135 1.368 . S
H120 C128 0.950 1_565 S
H121 C126 0.950 1_565 S
H122 C127 0.949 . S
H123 C129 0.950 . S
H124 C130 0.950 . S
H125 C131 0.949 1_565 S
C126 H121 0.950 1_545 S
C126 C128 1.327 . S
C126 C132 1.429 . S
C127 C119 1.574 . S
C127 H122 0.949 . S
C127 C133 1.368 . S
C128 C112 1.349 . S
C128 H120 0.950 1_545 S
C128 C126 1.327 . S
C129 C117 1.349 . S
C129 H123 0.950 . S
C129 C130 1.327 . S
C130 H124 0.950 . S
C130 C129 1.327 . S
C130 C134 1.429 . S
C131 C114 1.574 . S
C131 H125 0.949 1_545 S
C131 C135 1.368 . S
C132 C113 1.429 . S
C132 C126 1.429 . S
C132 C133 1.523 . S
C133 C114 1.368 . S
C133 C127 1.368 . S
C133 C132 1.523 . S
C134 C118 1.429 . S
C134 C130 1.429 . S
C134 C135 1.523 . S
C135 C119 1.368 . S
C135 C131 1.368 . S
C135 C134 1.523 . S
H136 C111 0.950 . S
H137 C113 0.950 . S
H138 C114 0.949 1_565 S
H139 C116 0.950 . S
H140 C118 0.950 1_565 S
C141 C142 1.349 . S
C141 C143 1.327 . S
C141 H166 0.950 . S
C142 C141 1.349 . S
C142 C158 1.349 . S
C143 C141 1.327 . S
C143 C162 1.429 . S
C143 H167 0.950 . S
C144 C161 1.574 . S
C144 C163 1.368 . S
C144 H168 0.949 . S
H145 C149 0.949 . S
C146 C147 1.349 . S
C146 C148 1.327 . S
C146 H169 0.950 . S
C147 C146 1.349 . S
C147 C159 1.349 . S
C148 C146 1.327 . S
C148 C164 1.429 . S
C148 H170 0.950 . S
C149 H145 0.949 . S
C149 C157 1.574 . S
C149 C165 1.368 . S
H150 C158 0.950 1_545 S
H151 C156 0.950 . S
H152 C157 0.949 . S
H153 C159 0.950 . S
H154 C160 0.950 . S
H155 C161 0.949 . S
C156 H151 0.950 . S
C156 C158 1.327 . S
C156 C162 1.429 . S
C157 C149 1.574 . S
C157 H152 0.949 . S
C157 C163 1.368 . S
C158 C142 1.349 . S
C158 H150 0.950 1_565 S
C158 C156 1.327 . S
C159 C147 1.349 . S
C159 H153 0.950 . S
C159 C160 1.327 . S
C160 H154 0.950 . S
C160 C159 1.327 . S
C160 C164 1.429 . S
C161 C144 1.574 . S
C161 H155 0.949 . S
C161 C165 1.368 . S
C162 C143 1.429 . S
C162 C156 1.429 . S
C162 C163 1.523 . S
C163 C144 1.368 . S
C163 C157 1.368 . S
C163 C162 1.523 . S
C164 C148 1.429 . S
C164 C160 1.429 . S
C164 C165 1.523 . S
C165 C149 1.368 . S
C165 C161 1.368 . S
C165 C164 1.523 . S
H166 C141 0.950 . S
H167 C143 0.950 . S
H168 C144 0.949 . S
H169 C146 0.950 . S
H170 C148 0.950 . S
C171 C172 1.349 . S
C171 C173 1.327 . S
C171 H196 0.950 1_565 S
C172 C171 1.349 . S
C172 C188 1.349 . S
C173 C171 1.327 . S
C173 C192 1.429 . S
C173 H197 0.950 . S
C174 C191 1.574 . S
C174 C193 1.368 . S
C174 H198 0.949 . S
H175 C179 0.949 . S
C176 C177 1.349 . S
C176 C178 1.327 . S
C176 H199 0.950 . S
C177 C176 1.349 . S
C177 C189 1.349 . S
C178 C176 1.327 . S
C178 C194 1.429 . S
C178 H200 0.950 . S
C179 H175 0.949 . S
C179 C187 1.574 . S
C179 C195 1.368 . S
H180 C188 0.950 . S
H181 C186 0.950 . S
H182 C187 0.949 . S
H183 C189 0.950 . S
H184 C190 0.950 . S
H185 C191 0.949 . S
C186 H181 0.950 . S
C186 C188 1.327 . S
C186 C192 1.429 . S
C187 C179 1.574 . S
C187 H182 0.949 . S
C187 C193 1.368 . S
C188 C172 1.349 . S
C188 H180 0.950 . S
C188 C186 1.327 . S
C189 C177 1.349 . S
C189 H183 0.950 . S
C189 C190 1.327 . S
C190 H184 0.950 . S
C190 C189 1.327 . S
C190 C194 1.429 . S
C191 C174 1.574 . S
C191 H185 0.949 . S
C191 C195 1.368 . S
C192 C173 1.429 . S
C192 C186 1.429 . S
C192 C193 1.523 . S
C193 C174 1.368 . S
C193 C187 1.368 . S
C193 C192 1.523 . S
C194 C178 1.429 . S
C194 C190 1.429 . S
C194 C195 1.523 . S
C195 C179 1.368 . S
C195 C191 1.368 . S
C195 C194 1.523 . S
H196 C171 0.950 1_545 S
H197 C173 0.950 . S
H198 C174 0.949 . S
H199 C176 0.950 . S
H200 C178 0.950 . S
C201 C202 1.349 . S
C201 C203 1.327 . S
C201 H226 0.950 . S
C202 C201 1.349 . S
C202 C218 1.349 . S
C203 C201 1.327 . S
C203 C222 1.429 . S
C203 H227 0.950 . S
C204 C221 1.574 . S
C204 C223 1.368 . S
C204 H228 0.949 . S
H205 C209 0.949 . S
C206 C207 1.349 . S
C206 C208 1.327 . S
C206 H229 0.950 . S
C207 C206 1.349 . S
C207 C219 1.349 . S
C208 C206 1.327 . S
C208 C224 1.429 . S
C208 H230 0.950 . S
C209 H205 0.949 . S
C209 C217 1.574 . S
C209 C225 1.368 . S
H210 C218 0.950 . S
H211 C216 0.950 . S
H212 C217 0.949 . S
H213 C219 0.950 . S
H214 C220 0.950 . S
H215 C221 0.949 . S
C216 H211 0.950 . S
C216 C218 1.327 . S
C216 C222 1.429 . S
C217 C209 1.574 . S
C217 H212 0.949 . S
C217 C223 1.368 . S
C218 C202 1.349 . S
C218 H210 0.950 . S
C218 C216 1.327 . S
C219 C207 1.349 . S
C219 H213 0.950 . S
C219 C220 1.327 . S
C220 H214 0.950 . S
C220 C219 1.327 . S
C220 C224 1.429 . S
C221 C204 1.574 . S
C221 H215 0.949 . S
C221 C225 1.368 . S
C222 C203 1.429 . S
C222 C216 1.429 . S
C222 C223 1.523 . S
C223 C204 1.368 . S
C223 C217 1.368 . S
C223 C222 1.523 . S
C224 C208 1.429 . S
C224 C220 1.429 . S
C224 C225 1.523 . S
C225 C209 1.368 . S
C225 C221 1.368 . S
C225 C224 1.523 . S
H226 C201 0.950 . S
H227 C203 0.950 . S
H228 C204 0.949 . S
H229 C206 0.950 . S
H230 C208 0.950 . S
C231 C232 1.349 . S
C231 C233 1.327 . S
C231 H256 0.950 . S
C232 C231 1.349 . S
C232 C248 1.349 . S
C233 C231 1.327 . S
C233 C252 1.429 . S
C233 H257 0.950 . S
C234 C251 1.574 . S
C234 C253 1.368 . S
C234 H258 0.949 . S
H235 C239 0.949 . S
C236 C237 1.349 . S
C236 C238 1.327 . S
C236 H259 0.950 . S
C237 C236 1.349 . S
C237 C249 1.349 . S
C238 C236 1.327 . S
C238 C254 1.429 . S
C238 H260 0.950 . S
C239 H235 0.949 . S
C239 C247 1.574 . S
C239 C255 1.368 . S
H240 C248 0.950 . S
H241 C246 0.950 . S
H242 C247 0.949 . S
H243 C249 0.950 . S
H244 C250 0.950 . S
H245 C251 0.949 . S
C246 H241 0.950 . S
C246 C248 1.327 . S
C246 C252 1.429 . S
C247 C239 1.574 . S
C247 H242 0.949 . S
C247 C253 1.368 . S
C248 C232 1.349 . S
C248 H240 0.950 . S
C248 C246 1.327 . S
C249 C237 1.349 . S
C249 H243 0.950 . S
C249 C250 1.327 . S
C250 H244 0.950 . S
C250 C249 1.327 . S
C250 C254 1.429 . S
C251 C234 1.574 . S
C251 H245 0.949 . S
C251 C255 1.368 . S
C252 C233 1.429 . S
C252 C246 1.429 . S
C252 C253 1.523 . S
C253 C234 1.368 . S
C253 C247 1.368 . S
C253 C252 1.523 . S
C254 C238 1.429 . S
C254 C250 1.429 . S
C254 C255 1.523 . S
C255 C239 1.368 . S
C255 C251 1.368 . S
C255 C254 1.523 . S
H256 C231 0.950 . S
H257 C233 0.950 . S
H258 C234 0.949 . S
H259 C236 0.950 . S
H260 C238 0.950 . S
C261 C262 1.349 . S
C261 C263 1.327 . S
C261 H286 0.950 . S
C262 C261 1.349 . S
C262 C278 1.349 . S
C263 C261 1.327 . S
C263 C282 1.429 . S
C263 H287 0.950 . S
C264 C281 1.574 . S
C264 C283 1.368 . S
C264 H288 0.949 . S
H265 C269 0.949 . S
C266 C267 1.349 . S
C266 C268 1.327 . S
C266 H289 0.950 . S
C267 C266 1.349 . S
C267 C279 1.349 . S
C268 C266 1.327 . S
C268 C284 1.429 . S
C268 H290 0.950 . S
C269 H265 0.949 . S
C269 C277 1.574 . S
C269 C285 1.368 . S
H270 C278 0.950 . S
H271 C276 0.950 . S
H272 C277 0.949 . S
H273 C279 0.950 . S
H274 C280 0.950 . S
H275 C281 0.949 . S
C276 H271 0.950 . S
C276 C278 1.327 . S
C276 C282 1.429 . S
C277 C269 1.574 . S
C277 H272 0.949 . S
C277 C283 1.368 . S
C278 C262 1.349 . S
C278 H270 0.950 . S
C278 C276 1.327 . S
C279 C267 1.349 . S
C279 H273 0.950 . S
C279 C280 1.327 . S
C280 H274 0.950 . S
C280 C279 1.327 . S
C280 C284 1.429 . S
C281 C264 1.574 . S
C281 H275 0.949 . S
C281 C285 1.368 . S
C282 C263 1.429 . S
C282 C276 1.429 . S
C282 C283 1.523 . S
C283 C264 1.368 . S
C283 C277 1.368 . S
C283 C282 1.523 . S
C284 C268 1.429 . S
C284 C280 1.429 . S
C284 C285 1.523 . S
C285 C269 1.368 . S
C285 C281 1.368 . S
C285 C284 1.523 . S
H286 C261 0.950 . S
H287 C263 0.950 . S
H288 C264 0.949 . S
H289 C266 0.950 . S
H290 C268 0.950 . S
C291 C292 1.349 . S
C291 C293 1.327 . S
C291 H316 0.950 1_565 S
C292 C291 1.349 . S
C292 C308 1.349 . S
C293 C291 1.327 . S
C293 C312 1.429 . S
C293 H317 0.950 . S
C294 C311 1.574 . S
C294 C313 1.368 . S
C294 H318 0.949 . S
H295 C299 0.941 1_556 S
C296 C297 1.349 . S
C296 C298 1.327 . S
C296 H319 0.950 . S
C297 C296 1.349 . S
C297 C309 1.349 . S
C298 C296 1.327 . S
C298 C314 1.429 . S
C298 H320 0.950 . S
C299 H295 0.941 1_554 S
C299 C307 1.574 . S
C299 C315 1.368 . S
H300 C308 0.950 . S
H301 C306 0.950 . S
H302 C307 0.949 . S
H303 C309 0.950 . S
H304 C310 0.950 . S
H305 C311 0.949 . S
C306 H301 0.950 . S
C306 C308 1.327 . S
C306 C312 1.429 . S
C307 C299 1.574 . S
C307 H302 0.949 . S
C307 C313 1.368 . S
C308 C292 1.349 . S
C308 H300 0.950 . S
C308 C306 1.327 . S
C309 C297 1.349 . S
C309 H303 0.950 . S
C309 C310 1.327 . S
C310 H304 0.950 . S
C310 C309 1.327 . S
C310 C314 1.429 . S
C311 C294 1.574 . S
C311 H305 0.949 . S
C311 C315 1.368 . S
C312 C293 1.429 . S
C312 C306 1.429 . S
C312 C313 1.523 . S
C313 C294 1.368 . S
C313 C307 1.368 . S
C313 C312 1.523 . S
C314 C298 1.429 . S
C314 C310 1.429 . S
C314 C315 1.523 1_556 S
C315 C299 1.368 . S
C315 C311 1.368 . S
C315 C314 1.523 1_554 S
H316 C291 0.950 1_545 S
H317 C293 0.950 . S
H318 C294 0.949 . S
H319 C296 0.950 . S
H320 C298 0.950 . S
C321 C322 1.349 . S
C321 C323 1.327 . S
C321 H346 0.950 1_565 S
C322 C321 1.349 . S
C322 C338 1.349 1_455 S
C323 C321 1.327 . S
C323 C342 1.429 . S
C323 H347 0.950 . S
C324 C341 1.574 . S
C324 C343 1.368 1_655 S
C324 H348 0.949 . S
H325 C329 0.949 . S
C326 C327 1.349 . S
C326 C328 1.327 . S
C326 H349 0.950 1_455 S
C327 C326 1.349 . S
C327 C339 1.349 . S
C328 C326 1.327 . S
C328 C344 1.429 . S
C328 H350 0.950 1_455 S
C329 H325 0.949 . S
C329 C337 1.574 . S
C329 C345 1.368 . S
H330 C338 0.950 . S
H331 C336 0.950 . S
H332 C337 0.949 . S
H333 C339 0.950 . S
H334 C340 0.950 . S
H335 C341 0.949 . S
C336 H331 0.950 . S
C336 C338 1.327 . S
C336 C342 1.429 1_655 S
C337 C329 1.574 . S
C337 H332 0.949 . S
C337 C343 1.368 . S
C338 C322 1.349 1_655 S
C338 H330 0.950 . S
C338 C336 1.327 . S
C339 C327 1.349 . S
C339 H333 0.950 . S
C339 C340 1.327 . S
C340 H334 0.950 . S
C340 C339 1.327 . S
C340 C344 1.429 . S
C341 C324 1.574 . S
C341 H335 0.949 . S
C341 C345 1.368 1_655 S
C342 C323 1.429 . S
C342 C336 1.429 1_455 S
C342 C343 1.523 . S
C343 C324 1.368 1_455 S
C343 C337 1.368 . S
C343 C342 1.523 . S
C344 C328 1.429 . S
C344 C340 1.429 . S
C344 C345 1.523 . S
C345 C329 1.368 . S
C345 C341 1.368 1_455 S
C345 C344 1.523 . S
H346 C321 0.950 1_545 S
H347 C323 0.950 . S
H348 C324 0.949 . S
H349 C326 0.950 1_655 S
H350 C328 0.950 1_655 S
C351 C352 1.349 . S
C351 C353 1.327 . S
C351 H376 0.950 . S
C352 C351 1.349 . S
C352 C368 1.349 . S
C353 C351 1.327 . S
C353 C372 1.429 . S
C353 H377 0.957 . S
C354 C371 1.574 . S
C354 C373 1.368 . S
C354 H378 0.949 . S
H355 C359 0.949 . S
C356 C357 1.349 . S
C356 C358 1.327 . S
C356 H379 0.950 . S
C357 C356 1.349 . S
C357 C369 1.349 . S
C358 C356 1.327 . S
C358 C374 1.429 . S
C358 H380 0.950 . S
C359 H355 0.949 . S
C359 C367 1.574 . S
C359 C375 1.368 . S
H360 C368 0.950 . S
H361 C366 0.950 . S
H362 C367 0.953 . S
H363 C369 0.950 . S
H364 C370 0.950 . S
H365 C371 0.949 . S
C366 H361 0.950 . S
C366 C368 1.327 . S
C366 C372 1.429 . S
C367 C359 1.574 . S
C367 H362 0.953 . S
C367 C373 1.368 . S
C368 C352 1.349 . S
C368 H360 0.950 . S
C368 C366 1.327 . S
C369 C357 1.349 . S
C369 H363 0.950 . S
C369 C370 1.327 . S
C370 H364 0.950 . S
C370 C369 1.327 . S
C370 C374 1.429 . S
C371 C354 1.574 . S
C371 H365 0.949 . S
C371 C375 1.368 . S
C372 C353 1.429 . S
C372 C366 1.429 . S
C372 C373 1.523 . S
C373 C354 1.368 . S
C373 C367 1.368 . S
C373 C372 1.523 . S
C374 C358 1.429 . S
C374 C370 1.429 . S
C374 C375 1.523 . S
C375 C359 1.368 . S
C375 C371 1.368 . S
C375 C374 1.523 . S
H376 C351 0.950 . S
H377 C353 0.957 . S
H378 C354 0.949 . S
H379 C356 0.950 . S
H380 C358 0.950 . S
C381 C382 1.349 . S
C381 C383 1.327 . S
C381 H406 0.950 . S
C382 C381 1.349 . S
C382 C398 1.349 . S
C383 C381 1.327 . S
C383 C402 1.429 . S
C383 H407 0.950 . S
C384 C401 1.574 . S
C384 C403 1.368 . S
C384 H408 0.949 . S
H385 C389 1.003 . S
C386 C387 1.349 . S
C386 C388 1.327 . S
C386 H409 0.950 . S
C387 C386 1.349 . S
C387 C399 1.349 . S
C388 C386 1.327 . S
C388 C404 1.429 . S
C388 H410 0.950 1_556 S
C389 H385 1.003 . S
C389 C397 1.535 1_556 S
C389 C405 1.349 1_556 S
H390 C398 0.950 . S
H391 C396 0.950 . S
H392 C397 0.949 . S
H393 C399 0.950 . S
H394 C400 0.950 . S
H395 C401 0.949 . S
C396 H391 0.950 . S
C396 C398 1.327 . S
C396 C402 1.429 . S
C397 C389 1.535 1_554 S
C397 H392 0.949 . S
C397 C403 1.368 . S
C398 C382 1.349 . S
C398 H390 0.950 . S
C398 C396 1.327 . S
C399 C387 1.349 . S
C399 H393 0.950 . S
C399 C400 1.327 . S
C400 H394 0.950 . S
C400 C399 1.327 . S
C400 C404 1.429 . S
C401 C384 1.574 . S
C401 H395 0.949 . S
C401 C405 1.368 . S
C402 C383 1.429 . S
C402 C396 1.429 . S
C402 C403 1.523 . S
C403 C384 1.368 . S
C403 C397 1.368 . S
C403 C402 1.523 . S
C404 C388 1.429 . S
C404 C400 1.429 . S
C404 C405 1.523 1_556 S
C405 C389 1.349 1_554 S
C405 C401 1.368 . S
C405 C404 1.523 1_554 S
H406 C381 0.950 . S
H407 C383 0.950 . S
H408 C384 0.949 . S
H409 C386 0.950 . S
H410 C388 0.950 1_554 S
C411 C412 1.349 . S
C411 C413 1.327 . S
C411 H436 0.950 1_455 S
C412 C411 1.349 . S
C412 C428 1.349 . S
C413 C411 1.327 . S
C413 C432 1.429 . S
C413 H437 0.950 1_455 S
C414 C431 1.574 . S
C414 C433 1.368 . S
C414 H438 0.949 . S
H415 C419 0.949 1_655 S
C416 C417 1.349 . S
C416 C418 1.327 . S
C416 H439 0.950 . S
C417 C416 1.349 . S
C417 C429 1.349 . S
C418 C416 1.327 . S
C418 C434 1.429 . S
C418 H440 0.950 . S
C419 H415 0.949 1_455 S
C419 C427 1.574 . S
C419 C435 1.368 . S
H420 C428 0.950 . S
H421 C426 0.950 . S
H422 C427 0.949 1_655 S
H423 C429 0.950 . S
H424 C430 0.943 1_655 S
H425 C431 0.949 . S
C426 H421 0.950 . S
C426 C428 1.327 . S
C426 C432 1.429 . S
C427 C419 1.574 . S
C427 H422 0.949 1_455 S
C427 C433 1.368 . S
C428 C412 1.349 . S
C428 H420 0.950 . S
C428 C426 1.327 . S
C429 C417 1.349 . S
C429 H423 0.950 . S
C429 C430 1.327 . S
C430 H424 0.943 1_455 S
C430 C429 1.327 . S
C430 C434 1.429 . S
C431 C414 1.574 . S
C431 H425 0.949 . S
C431 C435 1.368 . S
C432 C413 1.429 . S
C432 C426 1.429 . S
C432 C433 1.523 . S
C433 C414 1.368 . S
C433 C427 1.368 . S
C433 C432 1.523 . S
C434 C418 1.429 . S
C434 C430 1.429 . S
C434 C435 1.523 . S
C435 C419 1.368 . S
C435 C431 1.368 . S
C435 C434 1.523 . S
H436 C411 0.950 1_655 S
H437 C413 0.950 1_655 S
H438 C414 0.949 . S
H439 C416 0.950 . S
H440 C418 0.950 . S
C87 C47 1.369 . S
C82 C0 1.380 . S
C112 C25 1.473 . S
C117 C65 1.466 . S
C142 C33 1.499 1_565 S
C147 C78 1.491 . S
C172 C11 1.346 . S
C177 C45 1.336 . S
C207 C56 1.475 . S
C202 C14 1.478 . S
C232 C37 1.490 . S
C237 C69 1.487 . S
C267 C58 1.390 . S
C262 C28 1.397 . S
C292 C9 1.413 1_565 S
C297 C71 1.405 . S
C327 C52 1.510 . S
C322 C19 1.516 . S
C357 C60 1.382 . S
C352 C39 1.394 . S
C387 C73 1.408 . S
C382 C5 1.421 . S
C412 C23 1.537 . S
C417 C43 1.537 . S
