# Generated by pormake.
# Topology tbo, (3,4)-cn, num edge types: 1
# Building blocks:
#     Node 0, Type 0, BuildingBlock: OLANEW_clean_sbu_2, # of connection points: 3
#     Node 1, Type 0, BuildingBlock: OLANEW_clean_sbu_2, # of connection points: 3
#     Node 2, Type 0, BuildingBlock: OLANEW_clean_sbu_2, # of connection points: 3
#     Node 3, Type 0, BuildingBlock: OLANEW_clean_sbu_2, # of connection points: 3
#     Node 4, Type 0, BuildingBlock: OLANEW_clean_sbu_2, # of connection points: 3
#     Node 5, Type 0, BuildingBlock: OLANEW_clean_sbu_2, # of connection points: 3
#     Node 6, Type 0, BuildingBlock: OLANEW_clean_sbu_2, # of connection points: 3
#     Node 7, Type 0, BuildingBlock: OLANEW_clean_sbu_2, # of connection points: 3
#     Node 8, Type 0, BuildingBlock: OLANEW_clean_sbu_2, # of connection points: 3
#     Node 9, Type 0, BuildingBlock: OLANEW_clean_sbu_2, # of connection points: 3
#     Node 10, Type 0, BuildingBlock: OLANEW_clean_sbu_2, # of connection points: 3
#     Node 11, Type 0, BuildingBlock: OLANEW_clean_sbu_2, # of connection points: 3
#     Node 12, Type 0, BuildingBlock: OLANEW_clean_sbu_2, # of connection points: 3
#     Node 13, Type 0, BuildingBlock: OLANEW_clean_sbu_2, # of connection points: 3
#     Node 14, Type 0, BuildingBlock: OLANEW_clean_sbu_2, # of connection points: 3
#     Node 15, Type 0, BuildingBlock: OLANEW_clean_sbu_2, # of connection points: 3
#     Node 16, Type 0, BuildingBlock: OLANEW_clean_sbu_2, # of connection points: 3
#     Node 17, Type 0, BuildingBlock: OLANEW_clean_sbu_2, # of connection points: 3
#     Node 18, Type 0, BuildingBlock: OLANEW_clean_sbu_2, # of connection points: 3
#     Node 19, Type 0, BuildingBlock: OLANEW_clean_sbu_2, # of connection points: 3
#     Node 20, Type 0, BuildingBlock: OLANEW_clean_sbu_2, # of connection points: 3
#     Node 21, Type 0, BuildingBlock: OLANEW_clean_sbu_2, # of connection points: 3
#     Node 22, Type 0, BuildingBlock: OLANEW_clean_sbu_2, # of connection points: 3
#     Node 23, Type 0, BuildingBlock: OLANEW_clean_sbu_2, # of connection points: 3
#     Node 24, Type 0, BuildingBlock: OLANEW_clean_sbu_2, # of connection points: 3
#     Node 25, Type 0, BuildingBlock: OLANEW_clean_sbu_2, # of connection points: 3
#     Node 26, Type 0, BuildingBlock: OLANEW_clean_sbu_2, # of connection points: 3
#     Node 27, Type 0, BuildingBlock: OLANEW_clean_sbu_2, # of connection points: 3
#     Node 28, Type 0, BuildingBlock: OLANEW_clean_sbu_2, # of connection points: 3
#     Node 29, Type 0, BuildingBlock: OLANEW_clean_sbu_2, # of connection points: 3
#     Node 30, Type 0, BuildingBlock: OLANEW_clean_sbu_2, # of connection points: 3
#     Node 31, Type 0, BuildingBlock: OLANEW_clean_sbu_2, # of connection points: 3
#     Node 32, Type 1, BuildingBlock: ESEHIV_clean_sbu_0, # of connection points: 4
#     Node 33, Type 1, BuildingBlock: ESEHIV_clean_sbu_0, # of connection points: 4
#     Node 34, Type 1, BuildingBlock: ESEHIV_clean_sbu_0, # of connection points: 4
#     Node 35, Type 1, BuildingBlock: ESEHIV_clean_sbu_0, # of connection points: 4
#     Node 36, Type 1, BuildingBlock: ESEHIV_clean_sbu_0, # of connection points: 4
#     Node 37, Type 1, BuildingBlock: ESEHIV_clean_sbu_0, # of connection points: 4
#     Node 38, Type 1, BuildingBlock: ESEHIV_clean_sbu_0, # of connection points: 4
#     Node 39, Type 1, BuildingBlock: ESEHIV_clean_sbu_0, # of connection points: 4
#     Node 40, Type 1, BuildingBlock: ESEHIV_clean_sbu_0, # of connection points: 4
#     Node 41, Type 1, BuildingBlock: ESEHIV_clean_sbu_0, # of connection points: 4
#     Node 42, Type 1, BuildingBlock: ESEHIV_clean_sbu_0, # of connection points: 4
#     Node 43, Type 1, BuildingBlock: ESEHIV_clean_sbu_0, # of connection points: 4
#     Node 44, Type 1, BuildingBlock: ESEHIV_clean_sbu_0, # of connection points: 4
#     Node 45, Type 1, BuildingBlock: ESEHIV_clean_sbu_0, # of connection points: 4
#     Node 46, Type 1, BuildingBlock: ESEHIV_clean_sbu_0, # of connection points: 4
#     Node 47, Type 1, BuildingBlock: ESEHIV_clean_sbu_0, # of connection points: 4
#     Node 48, Type 1, BuildingBlock: ESEHIV_clean_sbu_0, # of connection points: 4
#     Node 49, Type 1, BuildingBlock: ESEHIV_clean_sbu_0, # of connection points: 4
#     Node 50, Type 1, BuildingBlock: ESEHIV_clean_sbu_0, # of connection points: 4
#     Node 51, Type 1, BuildingBlock: ESEHIV_clean_sbu_0, # of connection points: 4
#     Node 52, Type 1, BuildingBlock: ESEHIV_clean_sbu_0, # of connection points: 4
#     Node 53, Type 1, BuildingBlock: ESEHIV_clean_sbu_0, # of connection points: 4
#     Node 54, Type 1, BuildingBlock: ESEHIV_clean_sbu_0, # of connection points: 4
#     Node 55, Type 1, BuildingBlock: ESEHIV_clean_sbu_0, # of connection points: 4
#     Edge 56, Type (0, 1), BuildingBlock: AJUNOK_clean_linker_0, # of connection points: 2
#     Edge 57, Type (0, 1), BuildingBlock: AJUNOK_clean_linker_0, # of connection points: 2
#     Edge 58, Type (0, 1), BuildingBlock: AJUNOK_clean_linker_0, # of connection points: 2
#     Edge 59, Type (0, 1), BuildingBlock: AJUNOK_clean_linker_0, # of connection points: 2
#     Edge 60, Type (0, 1), BuildingBlock: AJUNOK_clean_linker_0, # of connection points: 2
#     Edge 61, Type (0, 1), BuildingBlock: AJUNOK_clean_linker_0, # of connection points: 2
#     Edge 62, Type (0, 1), BuildingBlock: AJUNOK_clean_linker_0, # of connection points: 2
#     Edge 63, Type (0, 1), BuildingBlock: AJUNOK_clean_linker_0, # of connection points: 2
#     Edge 64, Type (0, 1), BuildingBlock: AJUNOK_clean_linker_0, # of connection points: 2
#     Edge 65, Type (0, 1), BuildingBlock: AJUNOK_clean_linker_0, # of connection points: 2
#     Edge 66, Type (0, 1), BuildingBlock: AJUNOK_clean_linker_0, # of connection points: 2
#     Edge 67, Type (0, 1), BuildingBlock: AJUNOK_clean_linker_0, # of connection points: 2
#     Edge 68, Type (0, 1), BuildingBlock: AJUNOK_clean_linker_0, # of connection points: 2
#     Edge 69, Type (0, 1), BuildingBlock: AJUNOK_clean_linker_0, # of connection points: 2
#     Edge 70, Type (0, 1), BuildingBlock: AJUNOK_clean_linker_0, # of connection points: 2
#     Edge 71, Type (0, 1), BuildingBlock: AJUNOK_clean_linker_0, # of connection points: 2
#     Edge 72, Type (0, 1), BuildingBlock: AJUNOK_clean_linker_0, # of connection points: 2
#     Edge 73, Type (0, 1), BuildingBlock: AJUNOK_clean_linker_0, # of connection points: 2
#     Edge 74, Type (0, 1), BuildingBlock: AJUNOK_clean_linker_0, # of connection points: 2
#     Edge 75, Type (0, 1), BuildingBlock: AJUNOK_clean_linker_0, # of connection points: 2
#     Edge 76, Type (0, 1), BuildingBlock: AJUNOK_clean_linker_0, # of connection points: 2
#     Edge 77, Type (0, 1), BuildingBlock: AJUNOK_clean_linker_0, # of connection points: 2
#     Edge 78, Type (0, 1), BuildingBlock: AJUNOK_clean_linker_0, # of connection points: 2
#     Edge 79, Type (0, 1), BuildingBlock: AJUNOK_clean_linker_0, # of connection points: 2
#     Edge 80, Type (0, 1), BuildingBlock: AJUNOK_clean_linker_0, # of connection points: 2
#     Edge 81, Type (0, 1), BuildingBlock: AJUNOK_clean_linker_0, # of connection points: 2
#     Edge 82, Type (0, 1), BuildingBlock: AJUNOK_clean_linker_0, # of connection points: 2
#     Edge 83, Type (0, 1), BuildingBlock: AJUNOK_clean_linker_0, # of connection points: 2
#     Edge 84, Type (0, 1), BuildingBlock: AJUNOK_clean_linker_0, # of connection points: 2
#     Edge 85, Type (0, 1), BuildingBlock: AJUNOK_clean_linker_0, # of connection points: 2
#     Edge 86, Type (0, 1), BuildingBlock: AJUNOK_clean_linker_0, # of connection points: 2
#     Edge 87, Type (0, 1), BuildingBlock: AJUNOK_clean_linker_0, # of connection points: 2
#     Edge 88, Type (0, 1), BuildingBlock: AJUNOK_clean_linker_0, # of connection points: 2
#     Edge 89, Type (0, 1), BuildingBlock: AJUNOK_clean_linker_0, # of connection points: 2
#     Edge 90, Type (0, 1), BuildingBlock: AJUNOK_clean_linker_0, # of connection points: 2
#     Edge 91, Type (0, 1), BuildingBlock: AJUNOK_clean_linker_0, # of connection points: 2
#     Edge 92, Type (0, 1), BuildingBlock: AJUNOK_clean_linker_0, # of connection points: 2
#     Edge 93, Type (0, 1), BuildingBlock: AJUNOK_clean_linker_0, # of connection points: 2
#     Edge 94, Type (0, 1), BuildingBlock: AJUNOK_clean_linker_0, # of connection points: 2
#     Edge 95, Type (0, 1), BuildingBlock: AJUNOK_clean_linker_0, # of connection points: 2
#     Edge 96, Type (0, 1), BuildingBlock: AJUNOK_clean_linker_0, # of connection points: 2
#     Edge 97, Type (0, 1), BuildingBlock: AJUNOK_clean_linker_0, # of connection points: 2
#     Edge 98, Type (0, 1), BuildingBlock: AJUNOK_clean_linker_0, # of connection points: 2
#     Edge 99, Type (0, 1), BuildingBlock: AJUNOK_clean_linker_0, # of connection points: 2
#     Edge 100, Type (0, 1), BuildingBlock: AJUNOK_clean_linker_0, # of connection points: 2
#     Edge 101, Type (0, 1), BuildingBlock: AJUNOK_clean_linker_0, # of connection points: 2
#     Edge 102, Type (0, 1), BuildingBlock: AJUNOK_clean_linker_0, # of connection points: 2
#     Edge 103, Type (0, 1), BuildingBlock: AJUNOK_clean_linker_0, # of connection points: 2
#     Edge 104, Type (0, 1), BuildingBlock: AJUNOK_clean_linker_0, # of connection points: 2
#     Edge 105, Type (0, 1), BuildingBlock: AJUNOK_clean_linker_0, # of connection points: 2
#     Edge 106, Type (0, 1), BuildingBlock: AJUNOK_clean_linker_0, # of connection points: 2
#     Edge 107, Type (0, 1), BuildingBlock: AJUNOK_clean_linker_0, # of connection points: 2
#     Edge 108, Type (0, 1), BuildingBlock: AJUNOK_clean_linker_0, # of connection points: 2
#     Edge 109, Type (0, 1), BuildingBlock: AJUNOK_clean_linker_0, # of connection points: 2
#     Edge 110, Type (0, 1), BuildingBlock: AJUNOK_clean_linker_0, # of connection points: 2
#     Edge 111, Type (0, 1), BuildingBlock: AJUNOK_clean_linker_0, # of connection points: 2
#     Edge 112, Type (0, 1), BuildingBlock: AJUNOK_clean_linker_0, # of connection points: 2
#     Edge 113, Type (0, 1), BuildingBlock: AJUNOK_clean_linker_0, # of connection points: 2
#     Edge 114, Type (0, 1), BuildingBlock: AJUNOK_clean_linker_0, # of connection points: 2
#     Edge 115, Type (0, 1), BuildingBlock: AJUNOK_clean_linker_0, # of connection points: 2
#     Edge 116, Type (0, 1), BuildingBlock: AJUNOK_clean_linker_0, # of connection points: 2
#     Edge 117, Type (0, 1), BuildingBlock: AJUNOK_clean_linker_0, # of connection points: 2
#     Edge 118, Type (0, 1), BuildingBlock: AJUNOK_clean_linker_0, # of connection points: 2
#     Edge 119, Type (0, 1), BuildingBlock: AJUNOK_clean_linker_0, # of connection points: 2
#     Edge 120, Type (0, 1), BuildingBlock: AJUNOK_clean_linker_0, # of connection points: 2
#     Edge 121, Type (0, 1), BuildingBlock: AJUNOK_clean_linker_0, # of connection points: 2
#     Edge 122, Type (0, 1), BuildingBlock: AJUNOK_clean_linker_0, # of connection points: 2
#     Edge 123, Type (0, 1), BuildingBlock: AJUNOK_clean_linker_0, # of connection points: 2
#     Edge 124, Type (0, 1), BuildingBlock: AJUNOK_clean_linker_0, # of connection points: 2
#     Edge 125, Type (0, 1), BuildingBlock: AJUNOK_clean_linker_0, # of connection points: 2
#     Edge 126, Type (0, 1), BuildingBlock: AJUNOK_clean_linker_0, # of connection points: 2
#     Edge 127, Type (0, 1), BuildingBlock: AJUNOK_clean_linker_0, # of connection points: 2
#     Edge 128, Type (0, 1), BuildingBlock: AJUNOK_clean_linker_0, # of connection points: 2
#     Edge 129, Type (0, 1), BuildingBlock: AJUNOK_clean_linker_0, # of connection points: 2
#     Edge 130, Type (0, 1), BuildingBlock: AJUNOK_clean_linker_0, # of connection points: 2
#     Edge 131, Type (0, 1), BuildingBlock: AJUNOK_clean_linker_0, # of connection points: 2
#     Edge 132, Type (0, 1), BuildingBlock: AJUNOK_clean_linker_0, # of connection points: 2
#     Edge 133, Type (0, 1), BuildingBlock: AJUNOK_clean_linker_0, # of connection points: 2
#     Edge 134, Type (0, 1), BuildingBlock: AJUNOK_clean_linker_0, # of connection points: 2
#     Edge 135, Type (0, 1), BuildingBlock: AJUNOK_clean_linker_0, # of connection points: 2
#     Edge 136, Type (0, 1), BuildingBlock: AJUNOK_clean_linker_0, # of connection points: 2
#     Edge 137, Type (0, 1), BuildingBlock: AJUNOK_clean_linker_0, # of connection points: 2
#     Edge 138, Type (0, 1), BuildingBlock: AJUNOK_clean_linker_0, # of connection points: 2
#     Edge 139, Type (0, 1), BuildingBlock: AJUNOK_clean_linker_0, # of connection points: 2
#     Edge 140, Type (0, 1), BuildingBlock: AJUNOK_clean_linker_0, # of connection points: 2
#     Edge 141, Type (0, 1), BuildingBlock: AJUNOK_clean_linker_0, # of connection points: 2
#     Edge 142, Type (0, 1), BuildingBlock: AJUNOK_clean_linker_0, # of connection points: 2
#     Edge 143, Type (0, 1), BuildingBlock: AJUNOK_clean_linker_0, # of connection points: 2
#     Edge 144, Type (0, 1), BuildingBlock: AJUNOK_clean_linker_0, # of connection points: 2
#     Edge 145, Type (0, 1), BuildingBlock: AJUNOK_clean_linker_0, # of connection points: 2
#     Edge 146, Type (0, 1), BuildingBlock: AJUNOK_clean_linker_0, # of connection points: 2
#     Edge 147, Type (0, 1), BuildingBlock: AJUNOK_clean_linker_0, # of connection points: 2
#     Edge 148, Type (0, 1), BuildingBlock: AJUNOK_clean_linker_0, # of connection points: 2
#     Edge 149, Type (0, 1), BuildingBlock: AJUNOK_clean_linker_0, # of connection points: 2
#     Edge 150, Type (0, 1), BuildingBlock: AJUNOK_clean_linker_0, # of connection points: 2
#     Edge 151, Type (0, 1), BuildingBlock: AJUNOK_clean_linker_0, # of connection points: 2
# Relax obj value: 0.026
# Max RMSD: 0.197
# Mean RMSD: 0.108
data_MOF--net-tbo--node1-OLANEW_clean_sbu_2--node2-ESEHIV_clean_sbu_0--edge1-AJUNOK_clean_linker_0
_symmetry_space_group_name_H-M    P1
_symmetry_Int_Tables_number       1
_symmetry_cell_setting            triclinic
loop_
_symmetry_equiv_pos_as_xyz
'x, y, z'
_cell_length_a     59.04566
_cell_length_b     60.602656
_cell_length_c     58.299404
_cell_angle_alpha  96.877495
_cell_angle_beta   90.625516
_cell_angle_gamma 99.291287
loop_
_atom_site_label
_atom_site_type_symbol
_atom_site_fract_x
_atom_site_fract_y
_atom_site_fract_z
_atom_type_partial_charge
O0 O 0.22608 0.16626 0.20547 0.0
Cd1 Cd 0.21283 0.13891 0.23287 0.0
O2 O 0.19732 0.1855 0.21073 0.0
Cd3 Cd 0.17347 0.16991 0.23508 0.0
O4 O 0.13955 0.17489 0.24836 0.0
C5 C 0.13319 0.17373 0.26903 0.0
O6 O 0.14728 0.16817 0.28412 0.0
C7 C 0.21605 0.18252 0.20111 0.0
C8 C 0.23322 0.09966 0.23289 0.0
O9 O 0.21639 0.10043 0.21909 0.0
O10 O 0.2411 0.11774 0.24623 0.0
O11 O 0.91526 0.22237 0.17067 0.0
Cd12 Cd 0.88869 0.20606 0.13809 0.0
O13 O 0.90184 0.19334 0.18883 0.0
Cd14 Cd 0.87716 0.17193 0.16423 0.0
O15 O 0.85641 0.13855 0.1646 0.0
C16 C 0.84983 0.13431 0.18454 0.0
O17 O 0.85486 0.15024 0.20205 0.0
C18 C 0.91516 0.21201 0.18842 0.0
C19 C 0.87427 0.23569 0.10967 0.0
O20 O 0.86434 0.23208 0.12863 0.0
O21 O 0.89151 0.22584 0.10449 0.0
O22 O 0.85744 0.80626 0.14929 0.0
Cd23 Cd 0.85711 0.82101 0.19048 0.0
O24 O 0.86762 0.83939 0.13738 0.0
Cd25 Cd 0.86695 0.8591 0.17126 0.0
O26 O 0.85732 0.8872 0.19422 0.0
C27 C 0.83641 0.88987 0.19346 0.0
O28 O 0.82186 0.8752 0.17989 0.0
C29 C 0.86246 0.8181 0.1329 0.0
C30 C 0.89702 0.82053 0.21648 0.0
O31 O 0.88288 0.8024 0.21015 0.0
O32 O 0.89268 0.83901 0.21022 0.0
O33 O 0.25372 0.83525 0.20728 0.0
Cd34 Cd 0.25709 0.79609 0.19502 0.0
O35 O 0.21675 0.82358 0.20636 0.0
Cd36 Cd 0.1805 0.82559 0.20979 0.0
O37 O 0.14444 0.81865 0.21803 0.0
C38 C 0.1337 0.79853 0.21611 0.0
O39 O 0.1445 0.78201 0.20814 0.0
C40 C 0.23358 0.83964 0.21016 0.0
C41 C 0.25306 0.78724 0.14714 0.0
O42 O 0.23545 0.78276 0.15946 0.0
O43 O 0.27234 0.79545 0.15754 0.0
O44 O 0.27245 0.90752 0.86698 0.0
Cd45 Cd 0.27177 0.86682 0.86381 0.0
O46 O 0.23599 0.89855 0.85777 0.0
Cd47 Cd 0.19992 0.89925 0.84923 0.0
O48 O 0.165 0.88278 0.83817 0.0
C49 C 0.15963 0.86173 0.83929 0.0
O50 O 0.175 0.85112 0.84762 0.0
C51 C 0.25351 0.91376 0.86249 0.0
C52 C 0.2783 0.84944 0.90514 0.0
O53 O 0.29516 0.85434 0.89197 0.0
O54 O 0.25852 0.85321 0.89898 0.0
O55 O 0.25396 0.21712 0.95496 0.0
Cd56 Cd 0.23368 0.21392 0.91761 0.0
O57 O 0.2221 0.21326 0.97437 0.0
Cd58 Cd 0.19958 0.21696 0.94521 0.0
O59 O 0.17394 0.22793 0.92325 0.0
C60 C 0.16951 0.24778 0.92828 0.0
O61 O 0.18062 0.26056 0.94599 0.0
C62 C 0.24389 0.2151 0.97392 0.0
C63 C 0.24493 0.17724 0.88877 0.0
O64 O 0.25697 0.19691 0.8896 0.0
O65 O 0.2272 0.17497 0.90131 0.0
O66 O 0.86717 0.20684 0.85081 0.0
Cd67 Cd 0.88407 0.18909 0.81663 0.0
O68 O 0.84952 0.17257 0.85238 0.0
Cd69 Cd 0.82773 0.14548 0.86702 0.0
O70 O 0.80716 0.11217 0.86541 0.0
C71 C 0.78536 0.10923 0.86546 0.0
O72 O 0.77505 0.12697 0.86845 0.0
C73 C 0.85325 0.19317 0.86085 0.0
C74 C 0.93142 0.20249 0.8163 0.0
O75 O 0.91778 0.21203 0.80505 0.0
O76 O 0.92265 0.18658 0.82773 0.0
O77 O 0.89654 0.88431 0.80594 0.0
Cd78 Cd 0.86174 0.89341 0.82518 0.0
O79 O 0.90537 0.86236 0.83117 0.0
Cd80 Cd 0.87598 0.86222 0.85461 0.0
O81 O 0.85232 0.85317 0.88271 0.0
C82 C 0.86081 0.84884 0.90154 0.0
O83 O 0.8832 0.85037 0.90354 0.0
C84 C 0.90997 0.87188 0.813 0.0
C85 C 0.83176 0.91335 0.79925 0.0
O86 O 0.84871 0.92542 0.81114 0.0
O87 O 0.82947 0.89194 0.79908 0.0
O88 O 0.24732 0.69278 0.66348 0.0
Cd89 Cd 0.22611 0.67225 0.69284 0.0
O90 O 0.2267 0.71947 0.65757 0.0
Cd91 Cd 0.1975 0.7216 0.6807 0.0
O92 O 0.16991 0.74064 0.69326 0.0
C93 C 0.15716 0.74706 0.67844 0.0
O94 O 0.16052 0.74158 0.65639 0.0
C95 C 0.24365 0.70918 0.6529 0.0
C96 C 0.24279 0.63272 0.70172 0.0
O97 O 0.22885 0.63258 0.68467 0.0
O98 O 0.24921 0.65155 0.71438 0.0
O99 O 0.92687 0.72689 0.68758 0.0
Cd100 Cd 0.89192 0.70706 0.6662 0.0
O101 O 0.93954 0.6958 0.69395 0.0
Cd102 Cd 0.90882 0.6716 0.6833 0.0
O103 O 0.89428 0.64245 0.7001 0.0
C104 C 0.90337 0.64215 0.71993 0.0
O105 O 0.91946 0.65899 0.72801 0.0
C106 C 0.94235 0.71715 0.69544 0.0
C107 C 0.87562 0.72985 0.63169 0.0
O108 O 0.86941 0.73302 0.65267 0.0
O109 O 0.88996 0.71626 0.62711 0.0
O110 O 0.89396 0.31743 0.67912 0.0
Cd111 Cd 0.90526 0.34158 0.71598 0.0
O112 O 0.86802 0.3384 0.67235 0.0
Cd113 Cd 0.87409 0.36409 0.70233 0.0
O114 O 0.86945 0.39446 0.72488 0.0
C115 C 0.8528 0.40447 0.72054 0.0
O116 O 0.83894 0.39604 0.70276 0.0
C117 C 0.87785 0.32148 0.66634 0.0
C118 C 0.94366 0.33421 0.74118 0.0
O119 O 0.92372 0.32269 0.7432 0.0
O120 O 0.9456 0.34865 0.72665 0.0
O121 O 0.16357 0.40878 0.65317 0.0
Cd122 Cd 0.13508 0.38384 0.62732 0.0
O123 O 0.16844 0.3787 0.6687 0.0
Cd124 Cd 0.17992 0.361 0.69598 0.0
O125 O 0.17117 0.3434 0.72595 0.0
C126 C 0.15645 0.32546 0.72298 0.0
O127 O 0.14875 0.31758 0.70187 0.0
C128 C 0.17354 0.39982 0.66819 0.0
C129 C 0.15559 0.35043 0.6027 0.0
O130 O 0.15398 0.3688 0.59445 0.0
O131 O 0.1472 0.34774 0.62255 0.0
O132 O 0.23516 0.39527 0.3609 0.0
Cd133 Cd 0.21903 0.36365 0.38194 0.0
O134 O 0.2106 0.38322 0.33157 0.0
Cd135 Cd 0.18895 0.35616 0.34617 0.0
O136 O 0.15526 0.33528 0.34667 0.0
C137 C 0.14081 0.3366 0.33074 0.0
O138 O 0.14708 0.35 0.31501 0.0
C139 C 0.22766 0.3971 0.34073 0.0
C140 C 0.24481 0.35359 0.41915 0.0
O141 O 0.24788 0.3455 0.39828 0.0
O142 O 0.23024 0.36714 0.42233 0.0
O143 O 0.23053 0.69414 0.40016 0.0
Cd144 Cd 0.22201 0.66706 0.36495 0.0
O145 O 0.20302 0.715 0.39866 0.0
Cd146 Cd 0.17997 0.70226 0.36873 0.0
O147 O 0.14854 0.71266 0.35605 0.0
C148 C 0.1441 0.73117 0.36633 0.0
O149 O 0.15834 0.74199 0.38293 0.0
C150 C 0.22085 0.71059 0.40844 0.0
C151 C 0.25442 0.63774 0.35579 0.0
O152 O 0.25728 0.65731 0.34897 0.0
O153 O 0.23645 0.6321 0.36726 0.0
O154 O 0.82389 0.70316 0.35384 0.0
Cd155 Cd 0.83279 0.69259 0.31344 0.0
O156 O 0.81515 0.66705 0.35589 0.0
Cd157 Cd 0.8021 0.63686 0.37172 0.0
O158 O 0.79158 0.60054 0.36581 0.0
C159 C 0.77428 0.59333 0.35225 0.0
O160 O 0.76273 0.60809 0.34499 0.0
C161 C 0.81742 0.68717 0.36571 0.0
C162 C 0.8787 0.70895 0.30587 0.0
O163 O 0.86281 0.72065 0.30332 0.0
O164 O 0.8728 0.6891 0.31159 0.0
O165 O 0.8826 0.33623 0.35962 0.0
Cd166 Cd 0.85235 0.35934 0.36842 0.0
O167 O 0.87435 0.31427 0.38708 0.0
Cd168 Cd 0.84571 0.32694 0.40531 0.0
O169 O 0.8225 0.32136 0.43425 0.0
C170 C 0.82777 0.33161 0.45442 0.0
O171 O 0.84639 0.34691 0.45722 0.0
C172 C 0.88642 0.31981 0.37006 0.0
C173 C 0.84701 0.38997 0.3367 0.0
O174 O 0.86086 0.39561 0.35429 0.0
O175 O 0.83602 0.36975 0.33386 0.0
O176 O 0.71644 0.17134 0.66548 0.0
Cd177 Cd 0.69927 0.15181 0.69737 0.0
O178 O 0.69522 0.19827 0.66607 0.0
Cd179 Cd 0.67325 0.19058 0.69525 0.0
O180 O 0.6467 0.1969 0.72036 0.0
C181 C 0.63168 0.20808 0.71421 0.0
O182 O 0.63271 0.21442 0.69341 0.0
C183 C 0.71124 0.18855 0.65731 0.0
C184 C 0.71491 0.11102 0.70285 0.0
O185 O 0.69817 0.11165 0.68887 0.0
O186 O 0.72464 0.12975 0.71395 0.0
O187 O 0.3989 0.26066 0.69367 0.0
Cd188 Cd 0.35916 0.24751 0.6791 0.0
O189 O 0.40049 0.22748 0.70511 0.0
Cd190 Cd 0.36515 0.20984 0.69889 0.0
O191 O 0.33819 0.18349 0.7088 0.0
C192 C 0.34479 0.16844 0.71952 0.0
O193 O 0.36693 0.16935 0.72329 0.0
C194 C 0.4101 0.24741 0.70267 0.0
C195 C 0.3441 0.26669 0.64127 0.0
O196 O 0.34255 0.27575 0.6621 0.0
O197 O 0.35345 0.24893 0.63827 0.0
O198 O 0.36531 0.86258 0.69808 0.0
Cd199 Cd 0.37518 0.87521 0.73922 0.0
O200 O 0.34292 0.8881 0.69677 0.0
Cd201 Cd 0.35014 0.9066 0.73113 0.0
O202 O 0.34111 0.93596 0.75221 0.0
C203 C 0.32437 0.94355 0.74381 0.0
O204 O 0.31456 0.93314 0.72427 0.0
C205 C 0.35111 0.87138 0.68697 0.0
C206 C 0.41637 0.86499 0.75615 0.0
O207 O 0.39828 0.85 0.75297 0.0
O208 O 0.4152 0.88475 0.75096 0.0
O209 O 0.66356 0.8875 0.61852 0.0
Cd210 Cd 0.64964 0.86019 0.58512 0.0
O211 O 0.65692 0.85959 0.63946 0.0
Cd212 Cd 0.65615 0.84478 0.67183 0.0
O213 O 0.64489 0.83582 0.7054 0.0
C214 C 0.62627 0.82219 0.70632 0.0
O215 O 0.6153 0.8131 0.68688 0.0
C216 C 0.6633 0.88047 0.63819 0.0
C217 C 0.68004 0.83017 0.57375 0.0
O218 O 0.68096 0.84824 0.56415 0.0
O219 O 0.66465 0.8263 0.58875 0.0
O220 O 0.77061 0.87677 0.35729 0.0
Cd221 Cd 0.7639 0.83925 0.37057 0.0
O222 O 0.73565 0.86851 0.34216 0.0
Cd223 Cd 0.70567 0.87388 0.32195 0.0
O224 O 0.67151 0.8759 0.30785 0.0
C225 C 0.66509 0.86847 0.28707 0.0
O226 O 0.67963 0.85972 0.27325 0.0
C227 C 0.75439 0.88231 0.34581 0.0
C228 C 0.78864 0.83106 0.40928 0.0
O229 O 0.79641 0.82818 0.38888 0.0
O230 O 0.7697 0.8388 0.41147 0.0
O231 O 0.76369 0.18929 0.37415 0.0
Cd232 Cd 0.76032 0.18193 0.33204 0.0
O233 O 0.72944 0.19871 0.37564 0.0
Cd234 Cd 0.6981 0.21155 0.38722 0.0
O235 O 0.66601 0.2251 0.38274 0.0
C236 C 0.65957 0.22703 0.36226 0.0
O237 O 0.67227 0.22078 0.34507 0.0
C238 C 0.74761 0.19583 0.38611 0.0
C239 C 0.76771 0.13844 0.31605 0.0
O240 O 0.78447 0.15489 0.31954 0.0
O241 O 0.74745 0.1426 0.32016 0.0
O242 O 0.3198 0.24093 0.37357 0.0
Cd243 Cd 0.34655 0.24203 0.34202 0.0
O244 O 0.31345 0.20396 0.36873 0.0
Cd245 Cd 0.29684 0.17073 0.37634 0.0
O246 O 0.28222 0.13497 0.37433 0.0
C247 C 0.26553 0.12714 0.36015 0.0
O248 O 0.25711 0.14108 0.34809 0.0
C249 C 0.30993 0.22244 0.37974 0.0
C250 C 0.39156 0.25637 0.35926 0.0
O251 O 0.37934 0.2705 0.35323 0.0
O252 O 0.38248 0.23551 0.35695 0.0
O253 O 0.40948 0.86508 0.35003 0.0
Cd254 Cd 0.37764 0.88165 0.36871 0.0
O255 O 0.41309 0.84021 0.37426 0.0
Cd256 Cd 0.38681 0.84174 0.40041 0.0
O257 O 0.37232 0.82751 0.4312 0.0
C258 C 0.38603 0.82378 0.44678 0.0
O259 O 0.40823 0.82915 0.44419 0.0
C260 C 0.41955 0.84964 0.35649 0.0
C261 C 0.35209 0.90611 0.34251 0.0
O262 O 0.37049 0.91587 0.35373 0.0
O263 O 0.34631 0.88485 0.34303 0.0
O264 O 0.74801 0.68009 0.14439 0.0
Cd265 Cd 0.74469 0.6593 0.17877 0.0
O266 O 0.72269 0.69822 0.16183 0.0
Cd267 Cd 0.69748 0.72092 0.16943 0.0
O268 O 0.67044 0.7369 0.18699 0.0
C269 C 0.65522 0.72484 0.19745 0.0
O270 O 0.65599 0.70323 0.19679 0.0
C271 C 0.73596 0.69581 0.14494 0.0
C272 C 0.75939 0.61753 0.18085 0.0
O273 O 0.73877 0.6186 0.17452 0.0
O274 O 0.77347 0.63613 0.18481 0.0
O275 O 0.41053 0.74014 0.16776 0.0
Cd276 Cd 0.37472 0.72188 0.14769 0.0
O277 O 0.40851 0.71414 0.19135 0.0
Cd278 Cd 0.37663 0.69154 0.17955 0.0
O279 O 0.35455 0.66094 0.18799 0.0
C280 C 0.35742 0.65705 0.2087 0.0
O281 O 0.37197 0.67169 0.22232 0.0
C282 C 0.41887 0.73222 0.1846 0.0
C283 C 0.36616 0.74031 0.10736 0.0
O284 O 0.3599 0.74866 0.12706 0.0
O285 O 0.37677 0.72341 0.10681 0.0
O286 O 0.39586 0.33191 0.21581 0.0
Cd287 Cd 0.41833 0.34837 0.25116 0.0
O288 O 0.3756 0.35954 0.21543 0.0
Cd289 Cd 0.38739 0.3837 0.24625 0.0
O290 O 0.38122 0.41374 0.26942 0.0
C291 C 0.38447 0.43298 0.26217 0.0
O292 O 0.39293 0.43454 0.24156 0.0
C293 C 0.38047 0.34068 0.20643 0.0
C294 C 0.45036 0.32272 0.26561 0.0
O295 O 0.4294 0.31929 0.27166 0.0
O296 O 0.45606 0.3379 0.25226 0.0
O297 O 0.72335 0.34677 0.18679 0.0
Cd298 Cd 0.71021 0.30602 0.18207 0.0
O299 O 0.70611 0.34892 0.21974 0.0
Cd300 Cd 0.69369 0.36407 0.2522 0.0
O301 O 0.67594 0.36602 0.2848 0.0
C302 C 0.66205 0.37967 0.29002 0.0
O303 O 0.65885 0.3941 0.27566 0.0
C304 C 0.71839 0.35865 0.20491 0.0
C305 C 0.72092 0.2864 0.13872 0.0
O306 O 0.70095 0.29159 0.14238 0.0
O307 O 0.73568 0.29036 0.15559 0.0
O308 O 0.7449 0.41044 0.89158 0.0
Cd309 Cd 0.7214 0.37595 0.90086 0.0
O310 O 0.71934 0.42389 0.87161 0.0
Cd311 Cd 0.69033 0.39608 0.87071 0.0
O312 O 0.65816 0.37247 0.86187 0.0
C313 C 0.64469 0.37491 0.84547 0.0
O314 O 0.65027 0.39201 0.83361 0.0
C315 C 0.73944 0.4258 0.88057 0.0
C316 C 0.74579 0.35604 0.93205 0.0
O317 O 0.74697 0.35094 0.91017 0.0
O318 O 0.73289 0.37038 0.93915 0.0
O319 O 0.72605 0.66442 0.8973 0.0
Cd320 Cd 0.70923 0.64436 0.86034 0.0
O321 O 0.69929 0.68525 0.89554 0.0
Cd322 Cd 0.6792 0.71268 0.90336 0.0
O323 O 0.65124 0.73196 0.8993 0.0
C324 C 0.65385 0.75335 0.90143 0.0
O325 O 0.6743 0.76499 0.90715 0.0
C326 C 0.71653 0.68064 0.90623 0.0
C327 C 0.73714 0.61578 0.83844 0.0
O328 O 0.74016 0.6368 0.83609 0.0
O329 O 0.72085 0.6082 0.85118 0.0
O330 O 0.36501 0.67884 0.86772 0.0
Cd331 Cd 0.39083 0.66612 0.83838 0.0
O332 O 0.35126 0.64407 0.87282 0.0
Cd333 Cd 0.32638 0.61763 0.88501 0.0
O334 O 0.30258 0.58614 0.87799 0.0
C335 C 0.28373 0.58644 0.86742 0.0
O336 O 0.2785 0.60601 0.86374 0.0
C337 C 0.35102 0.66504 0.87756 0.0
C338 C 0.42745 0.70039 0.834 0.0
O339 O 0.40794 0.70002 0.82402 0.0
O340 O 0.4298 0.68442 0.84592 0.0
O341 O 0.38727 0.34967 0.8583 0.0
Cd342 Cd 0.35867 0.37382 0.87108 0.0
O343 O 0.38387 0.32807 0.88658 0.0
Cd344 Cd 0.35691 0.33943 0.90862 0.0
O345 O 0.33706 0.33592 0.94029 0.0
C346 C 0.34776 0.33148 0.95782 0.0
O347 O 0.3697 0.33022 0.95608 0.0
C348 C 0.39326 0.33367 0.86809 0.0
C349 C 0.34338 0.39977 0.83869 0.0
O350 O 0.36295 0.40578 0.84927 0.0
O351 O 0.33129 0.38119 0.84277 0.0
Cu352 Cu 0.30078 0.26617 0.09138 0.0
N353 N 0.29769 0.28868 0.07273 0.0
N354 N 0.30426 0.30785 0.04229 0.0
C355 C 0.31094 0.29233 0.05449 0.0
C356 C 0.28614 0.31448 0.05349 0.0
C357 C 0.2821 0.30259 0.07229 0.0
O358 O 0.30602 0.24145 0.06863 0.0
C359 C 0.32247 0.29554 0.1271 0.0
O360 O 0.30374 0.30396 0.12358 0.0
H361 H 0.32488 0.28321 0.04984 0.0
H362 H 0.26861 0.30382 0.08453 0.0
N363 N 0.27413 0.2573 0.10733 0.0
N364 N 0.25104 0.24 0.1322 0.0
C365 C 0.27293 0.24611 0.12606 0.0
C366 C 0.25226 0.25816 0.10131 0.0
C367 C 0.23798 0.24756 0.11665 0.0
C368 C 0.29047 0.22428 0.06375 0.0
O369 O 0.27794 0.21678 0.08052 0.0
H370 H 0.28779 0.24199 0.13462 0.0
H371 H 0.24701 0.26509 0.08624 0.0
O372 O 0.32554 0.27782 0.11419 0.0
H373 H 0.27658 0.32707 0.04857 0.0
H374 H 0.2194 0.24472 0.11577 0.0
Cu375 Cu 0.79813 0.26231 1.00088 0.0
N376 N 0.77075 0.25686 0.01643 0.0
N377 N 0.74719 0.25786 0.04618 0.0
C378 C 0.76862 0.25591 0.03925 0.0
C379 C 0.73528 0.25955 0.02671 0.0
C380 C 0.74982 0.25879 0.00841 0.0
O381 O 0.82393 0.26329 0.02223 0.0
C382 C 0.78828 0.30548 0.99457 0.0
O383 O 0.78171 0.30588 0.01604 0.0
H384 H 0.78288 0.25532 0.0508 0.0
H385 H 0.746 0.26162 0.99092 0.0
N386 N 0.79921 0.23867 0.97776 0.0
N387 N 0.80956 0.21938 0.94565 0.0
C388 C 0.81158 0.23966 0.95857 0.0
C389 C 0.78883 0.21714 0.97695 0.0
C390 C 0.79512 0.20519 0.95707 0.0
C391 C 0.82737 0.27584 0.04148 0.0
O392 O 0.81465 0.29154 0.04651 0.0
H393 H 0.82168 0.25504 0.95418 0.0
H394 H 0.77771 0.21059 0.99004 0.0
O395 O 0.79786 0.2892 0.98581 0.0
H396 H 0.718 0.26329 0.02596 0.0
H397 H 0.78987 0.18735 0.95167 0.0
Cu398 Cu 0.78645 0.76812 0.01688 0.0
N399 N 0.78797 0.79246 0.99938 0.0
N400 N 0.80166 0.81475 0.97291 0.0
C401 C 0.80534 0.79811 0.98526 0.0
C402 C 0.78086 0.81949 0.97915 0.0
C403 C 0.77245 0.80573 0.99551 0.0
O404 O 0.77645 0.7415 0.99481 0.0
C405 C 0.8263 0.78911 0.04137 0.0
O406 O 0.819 0.80692 0.03517 0.0
H407 H 0.82009 0.78956 0.98356 0.0
H408 H 0.75591 0.80499 0.00341 0.0
N409 N 0.76565 0.76708 0.04095 0.0
N410 N 0.74919 0.75367 0.07208 0.0
C411 C 0.7638 0.75062 0.05477 0.0
C412 C 0.75166 0.78121 0.04974 0.0
C413 C 0.74138 0.7729 0.06891 0.0
C414 C 0.75554 0.73949 0.98795 0.0
O415 O 0.74329 0.7545 0.9968 0.0
H416 H 0.77369 0.737 0.05256 0.0
H417 H 0.74936 0.79659 0.04302 0.0
O418 O 0.81577 0.76961 0.0333 0.0
H419 H 0.77228 0.83186 0.97224 0.0
H420 H 0.72911 0.78046 0.07957 0.0
Cu421 Cu 0.29093 0.75367 0.99402 0.0
N422 N 0.26725 0.75506 0.01478 0.0
N423 N 0.25147 0.76302 0.04868 0.0
C424 C 0.27078 0.75975 0.03773 0.0
C425 C 0.23475 0.75951 0.0321 0.0
C426 C 0.24462 0.75465 0.01103 0.0
O427 O 0.31857 0.75295 0.01183 0.0
C428 C 0.28544 0.79635 0.98065 0.0
O429 O 0.27505 0.7993 1.00031 0.0
H430 H 0.28735 0.76136 0.04635 0.0
H431 H 0.23615 0.75207 0.99415 0.0
N432 N 0.28554 0.72711 0.97403 0.0
N433 N 0.29272 0.70152 0.9455 0.0
C434 C 0.29737 0.72324 0.95485 0.0
C435 C 0.27292 0.70716 0.97706 0.0
C436 C 0.27743 0.69123 0.95945 0.0
C437 C 0.32828 0.76923 0.02623 0.0
O438 O 0.32108 0.78873 0.02729 0.0
H439 H 0.31043 0.73578 0.94889 0.0
H440 H 0.26225 0.70419 0.99171 0.0
O441 O 0.29418 0.77858 0.97561 0.0
H442 H 0.21704 0.76144 0.0349 0.0
H443 H 0.27078 0.67336 0.95757 0.0
Cu444 Cu 0.01139 0.25573 0.30059 0.0
N445 N 0.02348 0.22911 0.30164 0.0
N446 N 0.0487 0.20519 0.29678 0.0
C447 C 0.04356 0.22526 0.29256 0.0
C448 C 0.031 0.1959 0.30882 0.0
C449 C 0.01544 0.21071 0.31179 0.0
O450 O 0.03759 0.27982 0.30394 0.0
C451 C 0.97611 0.23827 0.26982 0.0
O452 O 0.97132 0.22649 0.28718 0.0
H453 H 0.05451 0.23725 0.2835 0.0
H454 H 0.9995 0.20829 0.32081 0.0
N455 N 0.9914 0.26083 0.32471 0.0
N456 N 0.96257 0.2731 0.34438 0.0
C457 C 0.9739 0.27263 0.32436 0.0
C458 C 0.99128 0.25378 0.34574 0.0
C459 C 0.9736 0.26138 0.35793 0.0
C460 C 0.05017 0.2809 0.32207 0.0
O461 O 0.04379 0.26674 0.33706 0.0
H462 H 0.9694 0.28045 0.30958 0.0
H463 H 1.00331 0.24394 0.35186 0.0
O464 O 0.99411 0.25314 0.27156 0.0
H465 H 0.02928 0.17952 0.31485 0.0
H466 H 0.96951 0.25885 0.37557 0.0
Cu467 Cu 0.7807 0.0056 0.25358 0.0
N468 N 0.79079 0.01997 0.22629 0.0
N469 N 0.80547 0.04667 0.20483 0.0
C470 C 0.80492 0.03971 0.22601 0.0
C471 C 0.7912 0.03055 0.19126 0.0
C472 C 0.78216 0.01409 0.20458 0.0
O473 O 0.77245 0.03533 0.26819 0.0
C474 C 0.80978 0.97271 0.23867 0.0
O475 O 0.82576 0.98869 0.24868 0.0
H476 H 0.81396 0.04922 0.2412 0.0
H477 H 0.76929 0.9995 0.19914 0.0
N478 N 0.76996 0.99123 0.28095 0.0
N479 N 0.76283 0.96625 0.30636 0.0
C480 C 0.77425 0.97156 0.28728 0.0
C481 C 0.75525 0.99848 0.2965 0.0
C482 C 0.75086 0.98315 0.31216 0.0
C483 C 0.78656 0.04906 0.28174 0.0
O484 O 0.80662 0.04368 0.28651 0.0
H485 H 0.78465 0.96085 0.27758 0.0
H486 H 0.74768 0.01354 0.29622 0.0
O487 O 0.78909 0.97611 0.23846 0.0
H488 H 0.78648 0.03126 0.17341 0.0
H489 H 0.73943 0.98419 0.3265 0.0
Cu490 Cu 0.01477 0.76907 0.29203 0.0
N491 N 1.00026 0.79388 0.28928 0.0
N492 N 0.97489 0.81207 0.27381 0.0
C493 C 0.9826 0.79233 0.27417 0.0
C494 C 0.9885 0.82676 0.28947 0.0
C495 C 0.00409 0.81544 0.2991 0.0
O496 O 0.9894 0.74427 0.29144 0.0
C497 C 0.04958 0.78524 0.266 0.0
O498 O 0.04843 0.80235 0.28181 0.0
H499 H 0.97545 0.77673 0.26379 0.0
H500 H 0.01753 0.82253 0.31188 0.0
N501 N 0.03308 0.77125 0.31878 0.0
N502 N 0.06216 0.76535 0.34092 0.0
C503 C 0.05144 0.76079 0.31994 0.0
C504 C 0.03199 0.78285 0.33979 0.0
C505 C 0.04988 0.77915 0.35355 0.0
C506 C 0.97511 0.74765 0.30716 0.0
O507 O 0.98051 0.76493 0.3232 0.0
H508 H 0.05707 0.75034 0.30545 0.0
H509 H 0.01914 0.79322 0.34475 0.0
O510 O 0.03536 0.76712 0.26649 0.0
H511 H 0.9879 0.84457 0.29329 0.0
H512 H 0.05331 0.78585 0.37152 0.0
Cu513 Cu 0.26383 0.98676 0.28597 0.0
N514 N 0.25229 1.00101 0.31239 0.0
N515 N 0.24568 0.03096 0.3361 0.0
C516 C 0.24909 0.0226 0.31419 0.0
C517 C 0.24667 0.01385 0.34872 0.0
C518 C 0.25066 0.99531 0.33401 0.0
O519 O 0.27009 0.01087 0.2659 0.0
C520 C 0.28636 0.95564 0.30454 0.0
O521 O 0.26487 0.94718 0.30771 0.0
H522 H 0.25151 0.03265 0.30005 0.0
H523 H 0.25389 0.97947 0.33902 0.0
N524 N 0.24207 0.96296 0.27189 0.0
N525 N 0.22816 0.92968 0.25175 0.0
C526 C 0.247 0.94522 0.25783 0.0
C527 C 0.2193 0.95859 0.27493 0.0
C528 C 0.21067 0.938 0.26255 0.0
C529 C 0.25535 0.01299 0.25043 0.0
O530 O 0.23826 0.99641 0.24488 0.0
H531 H 0.26435 0.94319 0.25338 0.0
H532 H 0.20981 0.9693 0.2859 0.0
O533 O 0.29059 0.97384 0.29517 0.0
H534 H 0.24603 0.01508 0.36738 0.0
H535 H 0.19301 0.92958 0.26196 0.0
Cu536 Cu 0.04288 0.81806 0.75571 0.0
N537 N 0.06222 0.81619 0.73037 0.0
N538 N 0.08892 0.80322 0.70772 0.0
C539 C 0.0802 0.80492 0.72906 0.0
C540 C 0.07636 0.81465 0.69529 0.0
C541 C 0.05986 0.82251 0.70926 0.0
O542 O 0.06254 0.82695 0.78314 0.0
C543 C 0.02345 0.77176 0.74241 0.0
O544 O 0.04352 0.76897 0.73423 0.0
H545 H 0.08573 0.79665 0.74304 0.0
H546 H 0.04656 0.83143 0.70412 0.0
N547 N 0.02358 0.83968 0.75538 0.0
N548 N 0.99337 0.8565 0.7655 0.0
C549 C 1.00355 0.8382 0.76641 0.0
C550 C 0.02635 0.85973 0.74715 0.0
C551 C 0.0077 0.87015 0.75335 0.0
C552 C 0.07495 0.81473 0.79205 0.0
O553 O 0.07224 0.7931 0.78464 0.0
H554 H 0.99677 0.824 0.77535 0.0
H555 H 0.04118 0.86659 0.738 0.0
O556 O 0.02137 0.79009 0.75469 0.0
H557 H 0.07858 0.81689 0.67727 0.0
H558 H 0.00547 0.88686 0.75005 0.0
Cu559 Cu 0.26466 0.05551 0.80597 0.0
N560 N 0.26834 0.073 0.77972 0.0
N561 N 0.28226 0.09811 0.7562 0.0
C562 C 0.2861 0.08882 0.77556 0.0
C563 C 0.26146 0.0874 0.74776 0.0
C564 C 0.2529 0.07197 0.76235 0.0
O565 O 0.25464 0.0822 0.82547 0.0
C566 C 0.29495 0.02425 0.7906 0.0
O567 O 0.30817 0.03656 0.80723 0.0
H568 H 0.30136 0.09368 0.78662 0.0
H569 H 0.23656 0.06079 0.76048 0.0
N570 N 0.26057 0.0376 0.83205 0.0
N571 N 0.25618 0.00771 0.85167 0.0
C572 C 0.25525 0.01496 0.83071 0.0
C573 C 0.26463 0.04494 0.85467 0.0
C574 C 0.26184 0.02655 0.86681 0.0
C575 C 0.27006 0.09828 0.83411 0.0
O576 O 0.29171 0.09642 0.83112 0.0
H577 H 0.25189 0.00392 0.8146 0.0
H578 H 0.26992 0.06233 0.86182 0.0
O579 O 0.27539 0.02935 0.78645 0.0
H580 H 0.25316 0.09022 0.73198 0.0
H581 H 0.26419 0.02703 0.88531 0.0
Cu582 Cu 0.06114 0.2798 0.81841 0.0
N583 N 0.04514 0.30338 0.81473 0.0
N584 N 0.01965 0.32131 0.79921 0.0
C585 C 0.0269 0.30146 0.80015 0.0
C586 C 0.03385 0.33641 0.81392 0.0
C587 C 0.04965 0.32528 0.82344 0.0
O588 O 0.03838 0.2528 0.8119 0.0
C589 C 0.10226 0.29657 0.79944 0.0
O590 O 0.10384 0.31027 0.81885 0.0
H591 H 0.0196 0.28591 0.78974 0.0
H592 H 0.06364 0.33268 0.83549 0.0
N593 N 0.07448 0.28229 0.84808 0.0
N594 N 0.0981 0.27823 0.87697 0.0
C595 C 0.09226 0.27262 0.85431 0.0
C596 C 0.06873 0.29424 0.86747 0.0
C597 C 0.08321 0.29171 0.88534 0.0
C598 C 0.02664 0.24443 0.82786 0.0
O599 O 0.03271 0.25177 0.84951 0.0
H600 H 0.10098 0.262 0.84236 0.0
H601 H 0.05488 0.30398 0.86854 0.0
O602 O 0.0849 0.28103 0.79582 0.0
H603 H 0.0329 0.35416 0.81755 0.0
H604 H 0.08254 0.29891 0.90317 0.0
Cu605 Cu 0.73802 0.99264 0.75503 0.0
N606 N 0.73282 1.00291 0.78553 0.0
N607 N 0.73885 0.02576 0.81864 0.0
C608 C 0.74688 0.02002 0.79765 0.0
C609 C 0.71889 0.01166 0.81997 0.0
C610 C 0.71527 0.99736 0.79944 0.0
O611 O 0.74345 0.02001 0.73972 0.0
C612 C 0.7607 0.95787 0.76411 0.0
O613 O 0.7398 0.94989 0.76989 0.0
H614 H 0.76232 0.02875 0.79078 0.0
H615 H 0.7007 0.98421 0.79488 0.0
N616 N 0.71227 0.97318 0.74158 0.0
N617 N 0.69059 0.94634 0.71756 0.0
C618 C 0.71215 0.95586 0.72477 0.0
C619 C 0.69007 0.97483 0.74496 0.0
C620 C 0.67664 0.95827 0.73019 0.0
C621 C 0.7326 0.02263 0.72147 0.0
O622 O 0.71974 0.00505 0.70986 0.0
H623 H 0.72758 0.95074 0.71757 0.0
H624 H 0.6841 0.98779 0.7566 0.0
O625 O 0.76424 0.9768 0.75617 0.0
H626 H 0.7077 0.01186 0.83455 0.0
H627 H 0.65815 0.95601 0.72804 0.0
Cu628 Cu 0.3026 0.77691 0.54665 0.0
N629 N 0.30792 0.80481 0.56488 0.0
N630 N 0.31882 0.83127 0.59473 0.0
C631 C 0.31457 0.80899 0.58737 0.0
C632 C 0.31475 0.8415 0.57612 0.0
C633 C 0.30799 0.82512 0.55775 0.0
O634 O 0.29217 0.75348 0.56591 0.0
C635 C 0.34693 0.78788 0.52858 0.0
O636 O 0.35212 0.80093 0.54819 0.0
H637 H 0.31651 0.796 0.59809 0.0
H638 H 0.30412 0.82779 0.54021 0.0
N639 N 0.27825 0.77582 0.52594 0.0
N640 N 0.25568 0.76374 0.49451 0.0
C641 C 0.27606 0.76353 0.50503 0.0
C642 C 0.25858 0.78415 0.52894 0.0
C643 C 0.24456 0.7767 0.50951 0.0
C644 C 0.30225 0.74708 0.58272 0.0
O645 O 0.32421 0.75449 0.58705 0.0
H646 H 0.28902 0.75413 0.49793 0.0
H647 H 0.2544 0.79413 0.54448 0.0
O648 O 0.32836 0.77373 0.52671 0.0
H649 H 0.31729 0.85951 0.57556 0.0
H650 H 0.22715 0.77969 0.50717 0.0
Cu651 Cu 0.803 0.75861 0.51692 0.0
N652 N 0.80103 0.73277 0.49566 0.0
N653 N 0.80205 0.71031 0.46251 0.0
C654 C 0.80258 0.73164 0.47255 0.0
C655 C 0.79961 0.69745 0.47999 0.0
C656 C 0.79911 0.71138 0.50041 0.0
O657 O 0.80626 0.78473 0.50007 0.0
C658 C 0.82678 0.76553 0.5606 0.0
O659 O 0.81029 0.77681 0.56726 0.0
H660 H 0.8047 0.74621 0.46327 0.0
H661 H 0.7978 0.70633 0.51759 0.0
N662 N 0.77529 0.75788 0.53193 0.0
N663 N 0.7443 0.76974 0.54736 0.0
C664 C 0.76419 0.7755 0.53672 0.0
C665 C 0.762 0.74029 0.53966 0.0
C666 C 0.74279 0.74755 0.54916 0.0
C667 C 0.82134 0.78928 0.48517 0.0
O668 O 0.83845 0.77783 0.48315 0.0
H669 H 0.77066 0.79225 0.53257 0.0
H670 H 0.76585 0.72334 0.53823 0.0
O671 O 0.82759 0.75802 0.53931 0.0
H672 H 0.79828 0.67931 0.47822 0.0
H673 H 0.72855 0.73713 0.55619 0.0
Cu674 Cu 0.78169 0.24402 0.54464 0.0
N675 N 0.77663 0.22035 0.52051 0.0
N676 N 0.76575 0.20501 0.48449 0.0
C677 C 0.77662 0.22337 0.49798 0.0
C678 C 0.75902 0.18961 0.49895 0.0
C679 C 0.76564 0.19916 0.52119 0.0
O680 O 0.77825 0.27042 0.52947 0.0
C681 C 0.76467 0.22132 0.58062 0.0
O682 O 0.78272 0.21184 0.57523 0.0
H683 H 0.78269 0.23935 0.4918 0.0
H684 H 0.76107 0.19171 0.53678 0.0
N685 N 0.81123 0.24848 0.55819 0.0
N686 N 0.83903 0.26321 0.58458 0.0
C687 C 0.8163 0.25941 0.57954 0.0
C688 C 0.83148 0.24487 0.54938 0.0
C689 C 0.84875 0.25398 0.56572 0.0
C690 C 0.79144 0.28939 0.53337 0.0
O691 O 0.80442 0.29379 0.55229 0.0
H692 H 0.80356 0.26555 0.59072 0.0
H693 H 0.83365 0.23724 0.53197 0.0
O694 O 0.76023 0.23679 0.56902 0.0
H695 H 0.74915 0.17303 0.49393 0.0
H696 H 0.86703 0.255 0.56334 0.0
Cu697 Cu 0.26703 0.27933 0.52363 0.0
N698 N 0.24016 0.277 0.54009 0.0
N699 N 0.20992 0.28765 0.55821 0.0
C700 C 0.2278 0.29366 0.54484 0.0
C701 C 0.21123 0.26641 0.56223 0.0
C702 C 0.22991 0.25983 0.55091 0.0
O703 O 0.29264 0.28035 0.54522 0.0
C704 C 0.28241 0.31251 0.49298 0.0
O705 O 0.30094 0.30314 0.49033 0.0
H706 H 0.23255 0.31024 0.53949 0.0
H707 H 0.23593 0.24393 0.55108 0.0
N708 N 0.26551 0.25401 0.5017 0.0
N709 N 0.26826 0.2334 0.46768 0.0
C710 C 0.26869 0.25425 0.47894 0.0
C711 C 0.26283 0.23218 0.50508 0.0
C712 C 0.26462 0.21941 0.48411 0.0
C713 C 0.2941 0.29257 0.5647 0.0
O714 O 0.27941 0.30657 0.56897 0.0
H715 H 0.27252 0.26953 0.47098 0.0
H716 H 0.26059 0.22607 0.52172 0.0
O717 O 0.26768 0.30574 0.50744 0.0
H718 H 0.19975 0.25652 0.57289 0.0
H719 H 0.26405 0.20134 0.48133 0.0
Cu720 Cu 0.82819 0.52515 0.79945 0.0
N721 N 0.85488 0.54475 0.79421 0.0
N722 N 0.87694 0.57087 0.77679 0.0
C723 C 0.85582 0.5588 0.77794 0.0
C724 C 0.88982 0.5643 0.79316 0.0
C725 C 0.87618 0.548 0.8038 0.0
O726 O 0.80253 0.54129 0.79748 0.0
C727 C 0.84284 0.48714 0.77934 0.0
O728 O 0.85848 0.49442 0.79589 0.0
H729 H 0.84104 0.56042 0.76752 0.0
H730 H 0.88155 0.5391 0.81733 0.0
N731 N 0.8263 0.51542 0.82855 0.0
N732 N 0.80878 0.49621 0.85552 0.0
C733 C 0.80647 0.50419 0.83521 0.0
C734 C 0.84194 0.51462 0.84529 0.0
C735 C 0.83114 0.50256 0.86195 0.0
C736 C 0.80527 0.56061 0.80942 0.0
O737 O 0.8249 0.5682 0.82069 0.0
H738 H 0.79095 0.50064 0.82443 0.0
H739 H 0.86001 0.52129 0.84498 0.0
O740 O 0.82673 0.49848 0.77715 0.0
H741 H 0.90784 0.57064 0.79699 0.0
H742 H 0.83923 0.49811 0.87711 0.0
Cu743 Cu 0.26527 0.49579 0.75641 0.0
N744 N 0.29109 0.4838 0.76496 0.0
N745 N 0.31243 0.46276 0.78245 0.0
C746 C 0.29148 0.46404 0.77339 0.0
C747 C 0.32569 0.4824 0.77904 0.0
C748 C 0.31253 0.49528 0.7684 0.0
O749 O 0.2408 0.47299 0.74214 0.0
C750 C 0.25601 0.50706 0.80405 0.0
O751 O 0.26211 0.48777 0.80741 0.0
H752 H 0.2764 0.45132 0.77345 0.0
H753 H 0.31786 0.51238 0.76467 0.0
N754 N 0.27248 0.5174 0.73606 0.0
N755 N 0.27117 0.54886 0.71978 0.0
C756 C 0.26598 0.53788 0.73837 0.0
C757 C 0.28206 0.51527 0.71526 0.0
C758 C 0.28121 0.53463 0.70513 0.0
C759 C 0.24464 0.4565 0.72791 0.0
O760 O 0.26592 0.45375 0.72394 0.0
H761 H 0.2565 0.54408 0.75288 0.0
H762 H 0.28842 0.50037 0.70765 0.0
O763 O 0.25484 0.51216 0.78361 0.0
H764 H 0.34336 0.48775 0.78501 0.0
H765 H 0.28708 0.53783 0.68813 0.0
Cu766 Cu 0.30548 0.53072 0.28765 0.0
N767 N 0.28178 0.50608 0.2853 0.0
N768 N 0.26062 0.47401 0.29324 0.0
C769 C 0.27899 0.48999 0.29952 0.0
C770 C 0.25121 0.48052 0.27444 0.0
C771 C 0.26436 0.5003 0.26955 0.0
O772 O 0.334 0.51839 0.28832 0.0
C773 C 0.31045 0.57104 0.32041 0.0
O774 O 0.33108 0.57623 0.31237 0.0
H775 H 0.29026 0.48983 0.31415 0.0
H776 H 0.26139 0.50983 0.25558 0.0
N777 N 0.30605 0.545 0.26085 0.0
N778 N 0.31513 0.57239 0.23836 0.0
C779 C 0.30991 0.56738 0.25984 0.0
C780 C 0.30821 0.53548 0.23909 0.0
C781 C 0.31369 0.55233 0.22515 0.0
C782 C 0.34046 0.5069 0.30334 0.0
O783 O 0.33047 0.50713 0.32335 0.0
H784 H 0.30995 0.57981 0.27473 0.0
H785 H 0.30753 0.51761 0.23407 0.0
O786 O 0.29874 0.55176 0.31371 0.0
H787 H 0.23572 0.4719 0.26513 0.0
H788 H 0.31805 0.55004 0.20712 0.0
Cu789 Cu 0.78378 0.48998 0.25111 0.0
N790 N 0.80967 0.4795 0.26159 0.0
N791 N 0.82985 0.45769 0.27912 0.0
C792 C 0.80906 0.46002 0.27071 0.0
C793 C 0.84408 0.47656 0.27512 0.0
C794 C 0.83159 0.48996 0.26425 0.0
O795 O 0.76123 0.46361 0.24131 0.0
C796 C 0.77581 0.5082 0.2974 0.0
O797 O 0.78739 0.49323 0.30413 0.0
H798 H 0.79332 0.44849 0.27244 0.0
H799 H 0.83786 0.50649 0.25943 0.0
N800 N 0.79019 0.50818 0.22738 0.0
N801 N 0.78786 0.53618 0.20607 0.0
C802 C 0.77791 0.52398 0.22231 0.0
C803 C 0.8086 0.51045 0.21393 0.0
C804 C 0.80725 0.52779 0.20084 0.0
C805 C 0.76203 0.45233 0.22159 0.0
O806 O 0.77716 0.45989 0.20686 0.0
H807 H 0.76259 0.52723 0.23125 0.0
H808 H 0.82238 0.50069 0.21418 0.0
O809 O 0.77208 0.50862 0.27596 0.0
H810 H 0.86211 0.48062 0.28019 0.0
H811 H 0.81976 0.53403 0.18873 0.0
Cu812 Cu 0.52384 0.28632 0.79362 0.0
N813 N 0.50262 0.2856 0.8173 0.0
N814 N 0.47186 0.29296 0.83714 0.0
C815 C 0.48344 0.29506 0.81746 0.0
C816 C 0.48441 0.28189 0.84994 0.0
C817 C 0.50331 0.27733 0.83765 0.0
O818 O 0.50583 0.28681 0.76543 0.0
C819 C 0.56107 0.31016 0.81901 0.0
O820 O 0.55607 0.29217 0.82964 0.0
H821 H 0.4782 0.3035 0.80343 0.0
H822 H 0.51686 0.26908 0.84346 0.0
N823 N 0.53847 0.26088 0.78963 0.0
N824 N 0.5626 0.23837 0.77478 0.0
C825 C 0.55504 0.25819 0.77435 0.0
C826 C 0.53532 0.24204 0.80011 0.0
C827 C 0.55018 0.22809 0.79095 0.0
C828 C 0.4937 0.26791 0.75785 0.0
O829 O 0.49544 0.25035 0.76853 0.0
H830 H 0.56145 0.27064 0.76313 0.0
H831 H 0.52282 0.23846 0.81314 0.0
O832 O 0.54832 0.31198 0.80174 0.0
H833 H 0.48076 0.2781 0.86733 0.0
H834 H 0.55123 0.21143 0.79536 0.0
Cu835 Cu 0.53949 0.8031 0.81802 0.0
N836 N 0.55732 0.80699 0.84524 0.0
N837 N 0.58254 0.79913 0.87064 0.0
C838 C 0.56973 0.79167 0.85114 0.0
C839 C 0.57817 0.82011 0.87721 0.0
C840 C 0.56242 0.82488 0.86155 0.0
O841 O 0.55933 0.79988 0.79206 0.0
C842 C 0.49998 0.77673 0.83134 0.0
O843 O 0.49791 0.79561 0.84416 0.0
H844 H 0.57015 0.77576 0.84064 0.0
H845 H 0.55572 0.84048 0.86166 0.0
N846 N 0.52445 0.82734 0.81406 0.0
N847 N 0.49861 0.84558 0.79935 0.0
C848 C 0.50339 0.82551 0.80421 0.0
C849 C 0.53339 0.84935 0.8157 0.0
C850 C 0.51745 0.86065 0.80681 0.0
C851 C 0.57819 0.81343 0.79206 0.0
O852 O 0.58396 0.82852 0.81014 0.0
H853 H 0.49206 0.80958 0.80037 0.0
H854 H 0.55067 0.8565 0.82183 0.0
O855 O 0.51703 0.77612 0.81828 0.0
H856 H 0.58607 0.8313 0.89203 0.0
H857 H 0.52001 0.87844 0.80503 0.0
Cu858 Cu 0.53834 0.80479 0.25801 0.0
N859 N 0.52472 0.81112 0.28634 0.0
N860 N 0.49954 0.82165 0.3121 0.0
C861 C 0.50443 0.81837 0.28949 0.0
C862 C 0.5174 0.81608 0.32354 0.0
C863 C 0.53294 0.80969 0.30763 0.0
O864 O 0.51388 0.79435 0.23479 0.0
C865 C 0.56748 0.84711 0.26645 0.0
O866 O 0.55408 0.85128 0.28371 0.0
H867 H 0.49333 0.82075 0.27541 0.0
H868 H 0.54915 0.8045 0.31129 0.0
N869 N 0.55581 0.78181 0.25878 0.0
N870 N 0.58301 0.76114 0.24855 0.0
C871 C 0.57261 0.77846 0.244 0.0
C872 C 0.55539 0.76598 0.27318 0.0
C873 C 0.5721 0.75309 0.2668 0.0
C874 C 0.50067 0.77658 0.23894 0.0
O875 O 0.50487 0.76769 0.2577 0.0
H876 H 0.5768 0.78837 0.22991 0.0
H877 H 0.54379 0.76395 0.28729 0.0
O878 O 0.5609 0.8302 0.25139 0.0
H879 H 0.51917 0.81677 0.34213 0.0
H880 H 0.57608 0.73906 0.27508 0.0
Cu881 Cu 0.54726 0.29773 0.35386 0.0
N882 N 0.52355 0.2939 0.37459 0.0
N883 N 0.4873 0.28538 0.38526 0.0
C884 C 0.5014 0.29476 0.3698 0.0
C885 C 0.50123 0.27916 0.40097 0.0
C886 C 0.52362 0.28441 0.39429 0.0
O887 O 0.53351 0.29686 0.3232 0.0
C888 C 0.58114 0.27006 0.34153 0.0
O889 O 0.58027 0.27756 0.32135 0.0
H890 H 0.4955 0.30015 0.35407 0.0
H891 H 0.53866 0.28 0.4022 0.0
N892 N 0.56494 0.32614 0.36019 0.0
N893 N 0.59341 0.35369 0.35421 0.0
C894 C 0.58636 0.33127 0.35277 0.0
C895 C 0.55807 0.346 0.36674 0.0
C896 C 0.57563 0.36311 0.36295 0.0
C897 C 0.51609 0.28278 0.3151 0.0
O898 O 0.50929 0.26505 0.32575 0.0
H899 H 0.59564 0.31886 0.34409 0.0
H900 H 0.54088 0.34789 0.37194 0.0
O901 O 0.56735 0.2757 0.35692 0.0
H902 H 0.49558 0.27022 0.41542 0.0
H903 H 0.57478 0.38094 0.36483 0.0
C904 C 0.24472 0.19391 0.17102 0.0
C905 C 0.22569 0.19812 0.18429 0.0
C906 C 0.25326 0.20791 0.15439 0.0
C907 C 0.24304 0.22657 0.15026 0.0
H908 H 0.25288 0.1795 0.17319 0.0
H909 H 0.26758 0.20375 0.14424 0.0
S910 S 0.19448 0.24652 0.18158 0.0
N911 N 0.198 0.22361 0.19296 0.0
N912 N 0.21414 0.24952 0.1618 0.0
C913 C 0.22453 0.23137 0.16376 0.0
C914 C 0.21586 0.21729 0.18074 0.0
C915 C 0.86985 0.24581 0.06966 0.0
C916 C 0.86484 0.24912 0.09325 0.0
C917 C 0.85853 0.25554 0.05316 0.0
C918 C 0.84202 0.2693 0.05959 0.0
H919 H 0.88177 0.23469 0.06367 0.0
H920 H 0.86219 0.25158 0.0351 0.0
S921 S 0.82472 0.28553 0.11952 0.0
N922 N 0.84364 0.26869 0.12246 0.0
N923 N 0.82275 0.28733 0.09157 0.0
C924 C 0.83799 0.27399 0.08331 0.0
C925 C 0.84927 0.26379 0.10009 0.0
C926 C 0.8445 0.78664 0.10297 0.0
C927 C 0.85885 0.80767 0.1084 0.0
C928 C 0.83591 0.77917 0.08029 0.0
C929 C 0.84143 0.79247 0.06232 0.0
H930 H 0.83832 0.77671 0.11656 0.0
H931 H 0.82325 0.76397 0.07733 0.0
S932 S 0.88255 0.84599 0.06623 0.0
N933 N 0.88144 0.83953 0.09297 0.0
N934 N 0.86514 0.82553 0.05056 0.0
C935 C 0.85774 0.81217 0.06702 0.0
C936 C 0.8665 0.81977 0.09001 0.0
C937 C 0.23377 0.76633 0.11049 0.0
C938 C 0.25141 0.78271 0.12162 0.0
C939 C 0.23321 0.76053 0.08639 0.0
C940 C 0.25021 0.77098 0.07277 0.0
H941 H 0.22081 0.75738 0.1205 0.0
H942 H 0.22002 0.74721 0.07845 0.0
S943 S 0.29753 0.81758 0.09292 0.0
N944 N 0.28463 0.81106 0.11675 0.0
N945 N 0.28329 0.80035 0.07161 0.0
C946 C 0.26703 0.78829 0.08352 0.0
C947 C 0.26771 0.7941 0.10793 0.0
C948 C 0.29898 0.82539 0.9271 0.0
C949 C 0.28126 0.83823 0.92595 0.0
C950 C 0.30061 0.81244 0.94524 0.0
C951 C 0.28485 0.81216 0.96319 0.0
H952 H 0.31117 0.82458 0.91339 0.0
H953 H 0.31409 0.80222 0.94495 0.0
S954 S 0.23648 0.84452 0.96932 0.0
N955 N 0.24844 0.85096 0.94501 0.0
N956 N 0.25172 0.82699 0.97935 0.0
C957 C 0.26771 0.82581 0.96284 0.0
C958 C 0.26584 0.83872 0.94415 0.0
C959 C 0.24699 0.20501 0.01408 0.0
C960 C 0.25737 0.2154 0.99566 0.0
C961 C 0.25855 0.20656 0.03549 0.0
C962 C 0.28089 0.21891 0.03958 0.0
H963 H 0.22957 0.19593 0.01211 0.0
H964 H 0.24935 0.19886 0.04925 0.0
S965 S 0.31632 0.24808 0.99645 0.0
N966 N 0.29183 0.23738 0.98241 0.0
N967 N 0.31354 0.24042 0.02265 0.0
C968 C 0.29189 0.2285 0.02092 0.0
C969 C 0.28015 0.22674 0.99901 0.0
C970 C 0.81947 0.19124 0.88642 0.0
C971 C 0.8421 0.2009 0.88225 0.0
C972 C 0.80893 0.1975 0.90707 0.0
C973 C 0.82057 0.21377 0.92426 0.0
H974 H 0.80969 0.17891 0.87355 0.0
H975 H 0.79145 0.18967 0.90953 0.0
S976 S 0.88031 0.24387 0.92182 0.0
N977 N 0.87586 0.22754 0.89688 0.0
N978 N 0.85619 0.23915 0.93583 0.0
C979 C 0.84314 0.22378 0.92016 0.0
C980 C 0.85384 0.21742 0.89909 0.0
C981 C 0.82166 0.83729 0.9176 0.0
C982 C 0.84579 0.84123 0.92058 0.0
C983 C 0.8073 0.82914 0.93492 0.0
C984 C 0.81648 0.82444 0.95585 0.0
H985 H 0.81375 0.84018 0.90162 0.0
H986 H 0.78891 0.82591 0.93166 0.0
S987 S 0.87814 0.83385 0.9735 0.0
N988 N 0.87796 0.84111 0.9471 0.0
N989 N 0.85097 0.82592 0.97933 0.0
C990 C 0.84044 0.8289 0.95936 0.0
C991 C 0.85507 0.83727 0.94184 0.0
C992 C 0.09858 0.1913 0.26137 0.0
C993 C 0.11083 0.18041 0.27624 0.0
C994 C 0.07824 0.19909 0.26812 0.0
C995 C 0.06907 0.19608 0.28989 0.0
H996 H 0.10495 0.19428 0.24447 0.0
H997 H 0.06958 0.20758 0.25619 0.0
S998 S 0.094 0.16842 0.33529 0.0
N999 N 0.1119 0.16679 0.31381 0.0
N1000 N 0.07366 0.18143 0.32634 0.0
C1001 C 0.08081 0.18488 0.30481 0.0
C1002 C 0.10168 0.17709 0.29804 0.0
C1003 C 0.82836 0.10873 0.21036 0.0
C1004 C 0.83777 0.11168 0.18862 0.0
C1005 C 0.81787 0.08753 0.21544 0.0
C1006 C 0.81633 0.0683 0.19903 0.0
H1007 H 0.82911 0.12291 0.22371 0.0
H1008 H 0.81071 0.08626 0.23234 0.0
S1009 S 0.83865 0.06655 0.13972 0.0
N1010 N 0.84495 0.09335 0.15053 0.0
N1011 N 0.82543 0.05342 0.16027 0.0
C1012 C 0.82552 0.07093 0.17717 0.0
C1013 C 0.83619 0.09261 0.17193 0.0
C1014 C 0.93111 0.80315 0.22466 0.0
C1015 C 0.9177 0.81992 0.23067 0.0
C1016 C 0.95016 0.80134 0.23838 0.0
C1017 C 0.95623 0.81577 0.25913 0.0
H1018 H 0.9269 0.79136 0.20914 0.0
H1019 H 0.96012 0.78834 0.23259 0.0
S1020 S 0.92551 0.86197 0.28292 0.0
N1021 N 0.91143 0.85133 0.25843 0.0
N1022 N 0.94645 0.8472 0.28512 0.0
C1023 C 0.94283 0.83272 0.2653 0.0
C1024 C 0.92373 0.83492 0.25087 0.0
C1025 C 0.21416 0.86683 0.2355 0.0
C1026 C 0.23026 0.86288 0.21854 0.0
C1027 C 0.21292 0.8888 0.2457 0.0
C1028 C 0.22767 0.90756 0.23919 0.0
H1029 H 0.20324 0.85283 0.24178 0.0
H1030 H 0.20106 0.89099 0.25948 0.0
S1031 S 0.27027 0.90629 0.19292 0.0
N1032 N 0.25966 0.87953 0.19408 0.0
N1033 N 0.25687 0.92078 0.21268 0.0
C1034 C 0.24288 0.90384 0.22127 0.0
C1035 C 0.2443 0.88151 0.21111 0.0
C1036 C 0.12041 0.86098 0.82209 0.0
C1037 C 0.13707 0.84915 0.82978 0.0
C1038 C 0.09987 0.84964 0.81109 0.0
C1039 C 0.09508 0.82592 0.80711 0.0
H1040 H 0.12344 0.87923 0.82405 0.0
H1041 H 0.08805 0.85971 0.80492 0.0
S1042 S 0.13196 0.78684 0.82593 0.0
N1043 N 0.14655 0.8122 0.83426 0.0
N1044 N 0.10802 0.79094 0.81343 0.0
C1045 C 0.11107 0.81382 0.81572 0.0
C1046 C 0.13201 0.8254 0.82706 0.0
C1047 C 0.23621 0.13698 0.8707 0.0
C1048 C 0.2515 0.15757 0.87416 0.0
C1049 C 0.24219 0.11798 0.85749 0.0
C1050 C 0.26382 0.11872 0.84746 0.0
H1051 H 0.21945 0.13546 0.87828 0.0
H1052 H 0.2299 0.10249 0.85544 0.0
S1053 S 0.3099 0.16865 0.8506 0.0
N1054 N 0.28908 0.17762 0.86587 0.0
N1055 N 0.30034 0.14194 0.84127 0.0
C1056 C 0.2792 0.13923 0.85058 0.0
C1057 C 0.27304 0.15864 0.86384 0.0
C1058 C 0.96965 0.20829 0.83679 0.0
C1059 C 0.95647 0.21052 0.81722 0.0
C1060 C 0.9928 0.21827 0.83948 0.0
C1061 C 1.00377 0.23044 0.82249 0.0
H1062 H 0.96176 0.19973 0.85069 0.0
H1063 H 1.00193 0.21709 0.85539 0.0
S1064 S 0.9775 0.23857 0.76654 0.0
N1065 N 0.95645 0.22413 0.77966 0.0
N1066 N 1.00013 0.24222 0.78429 0.0
C1067 C 0.99117 0.23141 0.80207 0.0
C1068 C 0.96746 0.22166 0.79957 0.0
C1069 C 0.81843 0.94739 0.78611 0.0
C1070 C 0.81457 0.92397 0.78734 0.0
C1071 C 0.80145 0.95817 0.77724 0.0
C1072 C 0.77983 0.94599 0.76956 0.0
H1073 H 0.83448 0.95763 0.79264 0.0
H1074 H 0.80488 0.9763 0.77748 0.0
S1075 S 0.76166 0.88416 0.76675 0.0
N1076 N 0.78795 0.88878 0.77818 0.0
N1077 N 0.75612 0.90908 0.76195 0.0
C1078 C 0.77611 0.92249 0.76969 0.0
C1079 C 0.79344 0.91147 0.77843 0.0
C1080 C 0.257 0.07635 0.25318 0.0
C1081 C 0.24202 0.07811 0.2347 0.0
C1082 C 0.26285 0.05547 0.25717 0.0
C1083 C 0.25382 0.03544 0.24295 0.0
H1084 H 0.26346 0.09103 0.26534 0.0
H1085 H 0.27344 0.05491 0.2723 0.0
S1086 S 0.21703 0.03128 0.19003 0.0
N1087 N 0.2207 0.05823 0.20036 0.0
N1088 N 0.2315 0.01921 0.20797 0.0
C1089 C 0.2402 0.03724 0.22348 0.0
C1090 C 0.23433 0.05846 0.21936 0.0
C1091 C 0.23709 0.94486 0.8467 0.0
C1092 C 0.25264 0.93805 0.86181 0.0
C1093 C 0.23802 0.9677 0.84385 0.0
C1094 C 0.25431 0.98459 0.85619 0.0
H1095 H 0.22476 0.93245 0.83625 0.0
H1096 H 0.22609 0.97218 0.83165 0.0
S1097 S 0.29853 0.97569 0.89832 0.0
N1098 N 0.28445 0.95017 0.88973 0.0
N1099 N 0.28624 0.99287 0.88422 0.0
C1100 C 0.26956 0.97804 0.87178 0.0
C1101 C 0.26872 0.95484 0.87459 0.0
C1102 C 0.13842 0.24173 0.89719 0.0
C1103 C 0.15167 0.25616 0.91489 0.0
C1104 C 0.12114 0.24909 0.88474 0.0
C1105 C 0.1163 0.27113 0.88956 0.0
H1106 H 0.14123 0.2245 0.89301 0.0
H1107 H 0.11117 0.23731 0.87153 0.0
S1108 S 0.14704 0.31623 0.93276 0.0
N1109 N 0.15935 0.29408 0.93567 0.0
N1110 N 0.12706 0.30775 0.91217 0.0
C1111 C 0.12966 0.28588 0.90684 0.0
C1112 C 0.14729 0.27845 0.91949 0.0
C1113 C 0.78422 0.0687 0.85057 0.0
C1114 C 0.7722 0.08647 0.85782 0.0
C1115 C 0.77288 0.04828 0.83906 0.0
C1116 C 0.74908 0.04465 0.83469 0.0
H1117 H 0.80273 0.07091 0.85261 0.0
H1118 H 0.78291 0.03554 0.83258 0.0
S1119 S 0.7091 0.08428 0.85253 0.0
N1120 N 0.73464 0.09807 0.86173 0.0
N1121 N 0.71345 0.05943 0.84008 0.0
C1122 C 0.73654 0.06145 0.84333 0.0
C1123 C 0.74809 0.08243 0.85492 0.0
C1124 C 0.94702 0.85645 0.80957 0.0
C1125 C 0.93128 0.86845 0.80028 0.0
C1126 C 0.96716 0.85278 0.79819 0.0
C1127 C 0.97261 0.86093 0.77696 0.0
H1128 H 0.94388 0.84981 0.8259 0.0
H1129 H 0.97871 0.84365 0.80629 0.0
S1130 S 0.93703 0.89266 0.74456 0.0
N1131 N 0.92255 0.88818 0.76809 0.0
N1132 N 0.96026 0.88102 0.74671 0.0
C1133 C 0.9571 0.87292 0.76738 0.0
C1134 C 0.9365 0.8767 0.77898 0.0
C1135 C 0.84547 0.92814 0.21639 0.0
C1136 C 0.82898 0.91018 0.20609 0.0
C1137 C 0.83907 0.94812 0.22704 0.0
C1138 C 0.81589 0.95101 0.22789 0.0
H1139 H 0.86358 0.92699 0.21588 0.0
H1140 H 0.85251 0.9615 0.23439 0.0
S1141 S 0.76577 0.90846 0.20503 0.0
N1142 N 0.78825 0.89618 0.19851 0.0
N1143 N 0.77624 0.93363 0.2185 0.0
C1144 C 0.79914 0.93295 0.21821 0.0
C1145 C 0.80567 0.9126 0.20733 0.0
C1146 C 0.09949 0.81215 0.23377 0.0
C1147 C 0.11033 0.79391 0.22538 0.0
C1148 C 0.0791 0.80887 0.2457 0.0
C1149 C 0.06856 0.78721 0.24968 0.0
H1150 H 0.10722 0.82929 0.23191 0.0
H1151 H 0.07196 0.8236 0.25257 0.0
S1152 S 0.08833 0.73346 0.2291 0.0
N1153 N 0.1078 0.75305 0.22012 0.0
N1154 N 0.06927 0.747 0.24268 0.0
C1155 C 0.07826 0.76863 0.24012 0.0
C1156 C 0.09921 0.77196 0.22795 0.0
C1157 C 0.92563 0.21175 0.22981 0.0
C1158 C 0.93049 0.2209 0.20899 0.0
C1159 C 0.94029 0.21793 0.24925 0.0
C1160 C 0.96062 0.23357 0.24892 0.0
H1161 H 0.9104 0.19938 0.23115 0.0
H1162 H 0.93563 0.21002 0.26461 0.0
S1163 S 0.98093 0.26351 0.19913 0.0
N1164 N 0.95673 0.2472 0.18943 0.0
N1165 N 0.98449 0.2589 0.2262 0.0
C1166 C 0.96548 0.24347 0.22847 0.0
C1167 C 0.95038 0.23715 0.2085 0.0
C1168 C 0.24997 0.72613 0.61614 0.0
C1169 C 0.25905 0.71665 0.63433 0.0
C1170 C 0.26397 0.73487 0.59908 0.0
C1171 C 0.28786 0.73495 0.59961 0.0
H1172 H 0.23181 0.72703 0.61515 0.0
H1173 H 0.25597 0.74236 0.58581 0.0
S1174 S 0.32013 0.71108 0.643 0.0
N1175 N 0.29328 0.70678 0.65132 0.0
N1176 N 0.31984 0.72375 0.61946 0.0
C1177 C 0.29715 0.72497 0.61738 0.0
C1178 C 0.28271 0.71566 0.63464 0.0
C1179 C 0.84951 0.75518 0.619 0.0
C1180 C 0.86551 0.74068 0.61324 0.0
C1181 C 0.83794 0.76394 0.60192 0.0
C1182 C 0.84178 0.75856 0.57825 0.0
H1183 H 0.84535 0.7594 0.63687 0.0
H1184 H 0.82532 0.77445 0.6074 0.0
S1185 S 0.8836 0.72304 0.55391 0.0
N1186 N 0.88583 0.72264 0.5821 0.0
N1187 N 0.8641 0.73904 0.55004 0.0
C1188 C 0.85853 0.74491 0.57225 0.0
C1189 C 0.87036 0.736 0.5897 0.0
C1190 C 0.85104 0.31159 0.63188 0.0
C1191 C 0.8695 0.3065 0.64471 0.0
C1192 C 0.84159 0.29758 0.61218 0.0
C1193 C 0.85016 0.27783 0.60421 0.0
H1194 H 0.84348 0.32645 0.6372 0.0
H1195 H 0.82735 0.30226 0.60307 0.0
S1196 S 0.89867 0.25686 0.63058 0.0
N1197 N 0.89643 0.28033 0.6474 0.0
N1198 N 0.87847 0.25398 0.6101 0.0
C1199 C 0.86896 0.27268 0.61631 0.0
C1200 C 0.87862 0.28697 0.63662 0.0
C1201 C 0.17478 0.31645 0.60207 0.0
C1202 C 0.16775 0.33326 0.59024 0.0
C1203 C 0.18793 0.30112 0.59128 0.0
C1204 C 0.19452 0.30201 0.56827 0.0
H1205 H 0.17072 0.31552 0.62004 0.0
H1206 H 0.1937 0.28903 0.60129 0.0
S1207 S 0.17797 0.34066 0.52868 0.0
N1208 N 0.16669 0.3485 0.55352 0.0
N1209 N 0.19113 0.31947 0.53327 0.0
C1210 C 0.18673 0.31801 0.55591 0.0
C1211 C 0.17341 0.33368 0.56688 0.0
C1212 C 0.27389 0.33278 0.43484 0.0
C1213 C 0.25655 0.34614 0.43896 0.0
C1214 C 0.28331 0.3232 0.45275 0.0
C1215 C 0.2756 0.32635 0.47549 0.0
H1216 H 0.27976 0.32905 0.41748 0.0
H1217 H 0.29583 0.31223 0.44843 0.0
S1218 S 0.23222 0.36153 0.49607 0.0
N1219 N 0.23342 0.36342 0.46808 0.0
N1220 N 0.25088 0.34513 0.50152 0.0
C1221 C 0.25909 0.34051 0.48009 0.0
C1222 C 0.24966 0.35048 0.46192 0.0
C1223 C 0.24498 0.71691 0.44507 0.0
C1224 C 0.23012 0.72482 0.43012 0.0
C1225 C 0.25324 0.72971 0.466 0.0
C1226 C 0.24707 0.75099 0.4728 0.0
H1227 H 0.24998 0.70051 0.44081 0.0
H1228 H 0.26423 0.72268 0.47714 0.0
S1229 S 0.21032 0.78036 0.43902 0.0
N1230 N 0.21055 0.75597 0.42312 0.0
N1231 N 0.22642 0.78001 0.46226 0.0
C1232 C 0.23264 0.75933 0.45783 0.0
C1233 C 0.22412 0.74628 0.43655 0.0
C1234 C 0.80067 0.70962 0.39791 0.0
C1235 C 0.81273 0.69204 0.39043 0.0
C1236 C 0.79676 0.71509 0.42142 0.0
C1237 C 0.80502 0.70336 0.43833 0.0
H1238 H 0.79416 0.71918 0.38549 0.0
H1239 H 0.78726 0.72867 0.42642 0.0
S1240 S 0.83982 0.65753 0.42764 0.0
N1241 N 0.83417 0.66388 0.40166 0.0
N1242 N 0.82714 0.67429 0.44587 0.0
C1243 C 0.81736 0.6859 0.43101 0.0
C1244 C 0.82117 0.68024 0.40705 0.0
C1245 C 0.79842 0.30433 0.47211 0.0
C1246 C 0.81534 0.32379 0.47489 0.0
C1247 C 0.78931 0.29432 0.49125 0.0
C1248 C 0.79682 0.30323 0.51401 0.0
H1249 H 0.79293 0.29605 0.455 0.0
H1250 H 0.77726 0.27873 0.488 0.0
S1251 S 0.83736 0.35644 0.53095 0.0
N1252 N 0.83665 0.35347 0.50242 0.0
N1253 N 0.81968 0.33458 0.53826 0.0
C1254 C 0.81221 0.32376 0.51709 0.0
C1255 C 0.82144 0.33403 0.4976 0.0
C1256 C 0.14015 0.77298 0.70811 0.0
C1257 C 0.13936 0.76124 0.68568 0.0
C1258 C 0.1239 0.7869 0.71499 0.0
C1259 C 0.10609 0.78965 0.6998 0.0
H1260 H 0.15357 0.77164 0.72042 0.0
H1261 H 0.12538 0.79571 0.73237 0.0
S1262 S 0.09515 0.76111 0.63977 0.0
N1263 N 0.11856 0.75256 0.64859 0.0
N1264 N 0.08792 0.77818 0.66168 0.0
C1265 C 0.10491 0.77772 0.67744 0.0
C1266 C 0.12152 0.76366 0.67037 0.0
C1267 C 0.90515 0.62499 0.7567 0.0
C1268 C 0.89637 0.62336 0.73387 0.0
C1269 C 0.89902 0.60766 0.77045 0.0
C1270 C 0.88382 0.58801 0.76198 0.0
H1271 H 0.91675 0.63987 0.76419 0.0
H1272 H 0.90586 0.60985 0.78803 0.0
S1273 S 0.8573 0.57444 0.70291 0.0
N1274 N 0.8724 0.59989 0.70311 0.0
N1275 N 0.86117 0.56723 0.72892 0.0
C1276 C 0.87522 0.58591 0.73908 0.0
C1277 C 0.88142 0.60359 0.72504 0.0
C1278 C 0.96225 0.3123 0.76778 0.0
C1279 C 0.96361 0.33123 0.75568 0.0
C1280 C 0.98059 0.30923 0.78194 0.0
C1281 C 1.00089 0.32513 0.78492 0.0
H1282 H 0.94693 0.29963 0.76624 0.0
H1283 H 0.97878 0.29439 0.79086 0.0
S1284 S 0.01357 0.37737 0.75692 0.0
N1285 N 0.98732 0.366 0.74748 0.0
N1286 N 0.0216 0.36018 0.7742 0.0
C1287 C 1.00256 0.34412 0.77299 0.0
C1288 C 0.984 0.34715 0.75832 0.0
C1289 C 0.2107 0.40598 0.69079 0.0
C1290 C 0.19055 0.41387 0.68488 0.0
C1291 C 0.22796 0.41975 0.70507 0.0
C1292 C 0.22547 0.44174 0.71431 0.0
H1293 H 0.21353 0.38934 0.68365 0.0
H1294 H 0.24345 0.41319 0.70871 0.0
S1295 S 0.17542 0.46993 0.70477 0.0
N1296 N 0.16879 0.44478 0.6897 0.0
N1297 N 0.20092 0.47052 0.71694 0.0
C1298 C 0.20507 0.44957 0.70905 0.0
C1299 C 0.18771 0.43569 0.69418 0.0
C1300 C 0.10312 0.322 0.30976 0.0
C1301 C 0.11741 0.32303 0.3295 0.0
C1302 C 0.08122 0.30879 0.3077 0.0
C1303 C 0.07266 0.29611 0.32534 0.0
H1304 H 0.10898 0.33119 0.29552 0.0
H1305 H 0.07111 0.30824 0.29196 0.0
S1306 S 0.1026 0.29421 0.38136 0.0
N1307 N 0.12095 0.31103 0.36754 0.0
N1308 N 0.07987 0.28635 0.36382 0.0
C1309 C 0.08654 0.29747 0.34547 0.0
C1310 C 0.10888 0.31086 0.34751 0.0
C1311 C 0.26398 0.59856 0.35164 0.0
C1312 C 0.27057 0.62158 0.3494 0.0
C1313 C 0.27759 0.58251 0.34334 0.0
C1314 C 0.29857 0.58877 0.33267 0.0
H1315 H 0.24769 0.59268 0.35904 0.0
H1316 H 0.27121 0.56493 0.34465 0.0
S1317 S 0.32488 0.64721 0.32467 0.0
N1318 N 0.3004 0.65002 0.33722 0.0
N1319 N 0.32604 0.61999 0.32189 0.0
C1320 C 0.30601 0.6119 0.3315 0.0
C1321 C 0.292 0.62823 0.33975 0.0
C1322 C 0.9204 0.70485 0.30437 0.0
C1323 C 0.90324 0.71853 0.30356 0.0
C1324 C 0.94385 0.71405 0.30439 0.0
C1325 C 0.95082 0.73723 0.30399 0.0
H1326 H 0.91572 0.68699 0.30547 0.0
H1327 H 0.95654 0.70315 0.30568 0.0
S1328 S 0.91324 0.78014 0.29981 0.0
N1329 N 0.8953 0.75635 0.30055 0.0
N1330 N 0.93917 0.77348 0.30132 0.0
C1331 C 0.93399 0.75094 0.30238 0.0
C1332 C 0.91023 0.74163 0.30195 0.0
C1333 C 0.85454 0.42915 0.32531 0.0
C1334 C 0.8433 0.40665 0.32073 0.0
C1335 C 0.85049 0.44556 0.31136 0.0
C1336 C 0.83497 0.44022 0.29226 0.0
H1337 H 0.86631 0.43431 0.34006 0.0
H1338 H 0.8591 0.46272 0.316 0.0
S1339 S 0.80251 0.38355 0.27141 0.0
N1340 N 0.81683 0.37974 0.29472 0.0
N1341 N 0.80949 0.41055 0.26852 0.0
C1342 C 0.8241 0.41771 0.28704 0.0
C1343 C 0.82821 0.40096 0.30123 0.0
C1344 C 0.24938 0.59314 0.68928 0.0
C1345 C 0.25094 0.61166 0.70666 0.0
C1346 C 0.25646 0.5729 0.69354 0.0
C1347 C 0.265 0.57017 0.71547 0.0
H1348 H 0.24265 0.59426 0.67218 0.0
H1349 H 0.25473 0.55908 0.6797 0.0
S1350 S 0.27298 0.61337 0.7669 0.0
N1351 N 0.26216 0.62589 0.74668 0.0
N1352 N 0.27514 0.58781 0.75463 0.0
C1353 C 0.26677 0.58851 0.73298 0.0
C1354 C 0.25987 0.60925 0.72859 0.0
C1355 C 0.2484 0.43657 0.34032 0.0
C1356 C 0.23762 0.41608 0.32813 0.0
C1357 C 0.25586 0.45537 0.3288 0.0
C1358 C 0.25296 0.45438 0.30465 0.0
H1359 H 0.25047 0.43834 0.35897 0.0
H1360 H 0.2635 0.47097 0.33899 0.0
S1361 S 0.22843 0.40381 0.26443 0.0
N1362 N 0.22605 0.39539 0.29032 0.0
N1363 N 0.2405 0.43056 0.26877 0.0
C1364 C 0.24299 0.43375 0.29218 0.0
C1365 C 0.23526 0.41465 0.30389 0.0
C1366 C 0.10616 0.72715 0.34492 0.0
C1367 C 0.1232 0.74032 0.36008 0.0
C1368 C 0.08626 0.73537 0.33894 0.0
C1369 C 0.08252 0.75709 0.34785 0.0
H1370 H 0.1081 0.71027 0.33767 0.0
H1371 H 0.07357 0.72452 0.32737 0.0
S1372 S 0.12233 0.79895 0.38708 0.0
N1373 N 0.13521 0.77662 0.3833 0.0
N1374 N 0.09802 0.792 0.37176 0.0
C1375 C 0.09945 0.77052 0.36285 0.0
C1376 C 0.11972 0.76217 0.369 0.0
C1377 C 0.78471 0.55467 0.34753 0.0
C1378 C 0.77051 0.56963 0.34113 0.0
C1379 C 0.78503 0.53388 0.33424 0.0
C1380 C 0.77128 0.52735 0.31397 0.0
H1381 H 0.79662 0.55952 0.36221 0.0
H1382 H 0.79727 0.52359 0.33909 0.0
S1383 S 0.72776 0.55819 0.29214 0.0
N1384 N 0.73975 0.57478 0.31506 0.0
N1385 N 0.74061 0.53582 0.29001 0.0
C1386 C 0.75552 0.54117 0.30852 0.0
C1387 C 0.75505 0.56228 0.32214 0.0
C1388 C 0.92276 0.31619 0.34863 0.0
C1389 C 0.90532 0.30711 0.36276 0.0
C1390 C 0.94124 0.3049 0.34246 0.0
C1391 C 0.94304 0.28408 0.35017 0.0
H1392 H 0.92241 0.33237 0.34262 0.0
H1393 H 0.9545 0.31276 0.33199 0.0
S1394 S 0.9007 0.25169 0.3852 0.0
N1395 N 0.89033 0.27505 0.38282 0.0
N1396 N 0.92481 0.25394 0.37099 0.0
C1397 C 0.92539 0.27447 0.36366 0.0
C1398 C 0.90662 0.28593 0.36999 0.0
C1399 C 0.865 0.43446 0.75362 0.0
C1400 C 0.84941 0.42546 0.73518 0.0
C1401 C 0.86259 0.4543 0.76764 0.0
C1402 C 0.84445 0.4661 0.76393 0.0
H1403 H 0.87934 0.42618 0.75731 0.0
H1404 H 0.87519 0.46038 0.78155 0.0
S1405 S 0.79868 0.44969 0.71808 0.0
N1406 N 0.81494 0.42989 0.71401 0.0
N1407 N 0.81045 0.46723 0.74046 0.0
C1408 C 0.82862 0.45731 0.74562 0.0
C1409 C 0.83109 0.43702 0.73124 0.0
C1410 C 0.12574 0.29889 0.73938 0.0
C1411 C 0.14529 0.31575 0.74305 0.0
C1412 C 0.11261 0.29187 0.75784 0.0
C1413 C 0.11848 0.30143 0.78074 0.0
H1414 H 0.11986 0.2917 0.72201 0.0
H1415 H 0.09714 0.27961 0.75396 0.0
S1416 S 0.17023 0.34334 0.80012 0.0
N1417 N 0.17147 0.33978 0.77167 0.0
N1418 N 0.14679 0.32658 0.80635 0.0
C1419 C 0.13889 0.31711 0.78484 0.0
C1420 C 0.1523 0.32426 0.76602 0.0
C1421 C 0.96263 0.75249 0.71835 0.0
C1422 C 0.96318 0.73054 0.70763 0.0
C1423 C 0.98184 0.76521 0.73066 0.0
C1424 C 1.00252 0.75664 0.73242 0.0
H1425 H 0.94718 0.75989 0.71735 0.0
H1426 H 0.98064 0.78221 0.73819 0.0
S1427 S 0.01284 0.69992 0.70786 0.0
N1428 N 0.986 0.70054 0.70006 0.0
N1429 N 0.02222 0.72466 0.72284 0.0
C1430 C 1.00324 0.73463 0.72203 0.0
C1431 C 0.98357 0.72154 0.70973 0.0
C1432 C 0.74261 0.18726 0.6288 0.0
C1433 C 0.72414 0.19738 0.63752 0.0
C1434 C 0.75533 0.19515 0.61046 0.0
C1435 C 0.75022 0.21355 0.59983 0.0
H1436 H 0.74746 0.17309 0.63623 0.0
H1437 H 0.76937 0.18662 0.60462 0.0
S1438 S 0.70343 0.2461 0.61578 0.0
N1439 N 0.70123 0.22692 0.63386 0.0
N1440 N 0.72523 0.24166 0.59933 0.0
C1441 C 0.73172 0.22383 0.6082 0.0
C1442 C 0.7187 0.2158 0.62702 0.0
C1443 C 0.3326 0.26305 0.59922 0.0
C1444 C 0.33389 0.27543 0.62137 0.0
C1445 C 0.32068 0.26935 0.58073 0.0
C1446 C 0.30949 0.2883 0.58356 0.0
H1447 H 0.34017 0.24786 0.59624 0.0
H1448 H 0.31952 0.2587 0.56431 0.0
S1449 S 0.31015 0.32817 0.6373 0.0
N1450 N 0.32473 0.30884 0.64448 0.0
N1451 N 0.3024 0.32065 0.60982 0.0
C1452 C 0.31173 0.30156 0.60529 0.0
C1453 C 0.32389 0.29514 0.62414 0.0
C1454 C 0.35084 0.84229 0.65228 0.0
C1455 C 0.34327 0.86181 0.66291 0.0
C1456 C 0.34282 0.83244 0.63004 0.0
C1457 C 0.32704 0.84178 0.61746 0.0
H1458 H 0.36291 0.83439 0.66126 0.0
H1459 H 0.34917 0.81748 0.62254 0.0
S1460 S 0.3013 0.89237 0.63732 0.0
N1461 N 0.31874 0.88999 0.65887 0.0
N1462 N 0.30369 0.87123 0.61734 0.0
C1463 C 0.31937 0.86127 0.62775 0.0
C1464 C 0.32746 0.87132 0.65038 0.0
C1465 C 0.7092 0.81624 0.54748 0.0
C1466 C 0.69621 0.81424 0.56744 0.0
C1467 C 0.72469 0.80156 0.54101 0.0
C1468 C 0.72791 0.78432 0.55425 0.0
H1469 H 0.70732 0.82917 0.53661 0.0
H1470 H 0.73407 0.80361 0.52535 0.0
S1471 S 0.69919 0.77265 0.60882 0.0
N1472 N 0.68812 0.79398 0.60082 0.0
N1473 N 0.71758 0.76667 0.5888 0.0
C1474 C 0.71519 0.78219 0.57435 0.0
C1475 C 0.69929 0.79709 0.58091 0.0
C1476 C 0.78946 0.82495 0.45106 0.0
C1477 C 0.7999 0.82371 0.42944 0.0
C1478 C 0.79746 0.81502 0.46942 0.0
C1479 C 0.81632 0.80341 0.46706 0.0
H1480 H 0.77431 0.83282 0.4536 0.0
H1481 H 0.78811 0.81565 0.48531 0.0
S1482 S 0.85165 0.79777 0.41498 0.0
N1483 N 0.83158 0.81182 0.40748 0.0
N1484 N 0.84661 0.79319 0.44195 0.0
C1485 C 0.82791 0.80336 0.44606 0.0
C1486 C 0.8197 0.81347 0.42728 0.0
C1487 C 0.77287 0.20909 0.42117 0.0
C1488 C 0.75086 0.20001 0.41156 0.0
C1489 C 0.77745 0.21105 0.44504 0.0
C1490 C 0.76037 0.20345 0.46013 0.0
H1491 H 0.78676 0.21454 0.4101 0.0
H1492 H 0.79464 0.21799 0.45171 0.0
S1493 S 0.69978 0.17904 0.44394 0.0
N1494 N 0.71165 0.18393 0.41913 0.0
N1495 N 0.72033 0.18743 0.46404 0.0
C1496 C 0.73819 0.19469 0.45086 0.0
C1497 C 0.73341 0.19305 0.42656 0.0
C1498 C 0.29839 0.20834 0.41706 0.0
C1499 C 0.29578 0.22278 0.40042 0.0
C1500 C 0.2882 0.21101 0.43861 0.0
C1501 C 0.27495 0.22815 0.44419 0.0
H1502 H 0.30955 0.19582 0.41401 0.0
H1503 H 0.29189 0.20046 0.45143 0.0
S1504 S 0.25974 0.26774 0.40485 0.0
N1505 N 0.27711 0.25314 0.38983 0.0
N1506 N 0.25715 0.25761 0.42993 0.0
C1507 C 0.27082 0.24154 0.42694 0.0
C1508 C 0.28148 0.23903 0.40518 0.0
C1509 C 0.35492 0.80066 0.46673 0.0
C1510 C 0.37716 0.81331 0.46743 0.0
C1511 C 0.34586 0.79119 0.48618 0.0
C1512 C 0.35851 0.79433 0.50729 0.0
H1513 H 0.34429 0.79819 0.45108 0.0
H1514 H 0.32838 0.78222 0.48489 0.0
S1515 S 0.41798 0.82509 0.51802 0.0
N1516 N 0.41207 0.82749 0.49077 0.0
N1517 N 0.3948 0.81015 0.52739 0.0
C1518 C 0.38099 0.80641 0.50806 0.0
C1519 C 0.39036 0.81576 0.48814 0.0
C1520 C 0.59747 0.22706 0.72235 0.0
C1521 C 0.6137 0.21474 0.73015 0.0
C1522 C 0.58082 0.23448 0.73695 0.0
C1523 C 0.57952 0.22985 0.75999 0.0
H1524 H 0.59764 0.23122 0.70479 0.0
H1525 H 0.56874 0.24386 0.73007 0.0
S1526 S 0.61793 0.19849 0.78932 0.0
N1527 N 0.62732 0.19826 0.76273 0.0
N1528 N 0.59603 0.21239 0.79014 0.0
C1529 C 0.59543 0.21738 0.76807 0.0
C1530 C 0.6125 0.20982 0.75319 0.0
C1531 C 0.33631 0.13342 0.73894 0.0
C1532 C 0.32812 0.15041 0.72827 0.0
C1533 C 0.32126 0.11646 0.74796 0.0
C1534 C 0.29736 0.11567 0.74663 0.0
H1535 H 0.35456 0.13315 0.74042 0.0
H1536 H 0.3284 0.10372 0.75585 0.0
S1537 S 0.26692 0.15655 0.72144 0.0
N1538 N 0.29433 0.16554 0.71741 0.0
N1539 N 0.26615 0.1338 0.7346 0.0
C1540 C 0.28886 0.13253 0.73611 0.0
C1541 C 0.3042 0.14985 0.7269 0.0
C1542 C 0.45182 0.8763 0.78148 0.0
C1543 C 0.43773 0.85984 0.7663 0.0
C1544 C 0.47154 0.87147 0.7922 0.0
C1545 C 0.47824 0.85009 0.78786 0.0
H1546 H 0.44725 0.8929 0.78559 0.0
H1547 H 0.4814 0.88453 0.80428 0.0
S1548 S 0.44848 0.80204 0.74695 0.0
N1549 N 0.43235 0.82181 0.74629 0.0
N1550 N 0.46999 0.81299 0.76528 0.0
C1551 C 0.46463 0.83372 0.77196 0.0
C1552 C 0.44427 0.83854 0.76147 0.0
C1553 C 0.69019 0.9128 0.65893 0.0
C1554 C 0.67036 0.89651 0.65911 0.0
C1555 C 0.697 0.92867 0.6783 0.0
C1556 C 0.68401 0.92904 0.6984 0.0
H1557 H 0.70052 0.91328 0.6437 0.0
H1558 H 0.71222 0.94111 0.67731 0.0
S1559 S 0.63032 0.89033 0.70737 0.0
N1560 N 0.63739 0.88212 0.68074 0.0
N1561 N 0.65054 0.91154 0.71737 0.0
C1562 C 0.66416 0.9128 0.69879 0.0
C1563 C 0.65725 0.89662 0.67909 0.0
C1564 C 0.63183 0.85175 0.25999 0.0
C1565 C 0.64064 0.86674 0.27954 0.0
C1566 C 0.60819 0.84688 0.25468 0.0
C1567 C 0.59235 0.85687 0.26868 0.0
H1568 H 0.64312 0.84271 0.24938 0.0
H1569 H 0.60226 0.83416 0.24028 0.0
S1570 S 0.60709 0.90091 0.31898 0.0
N1571 N 0.63202 0.89412 0.31088 0.0
N1572 N 0.58765 0.88515 0.30085 0.0
C1573 C 0.60116 0.87347 0.287 0.0
C1574 C 0.62525 0.87833 0.29248 0.0
C1575 C 0.79435 0.11052 0.30735 0.0
C1576 C 0.77181 0.11536 0.30755 0.0
C1577 C 0.79886 0.08897 0.29932 0.0
C1578 C 0.78107 0.07143 0.2909 0.0
H1579 H 0.8087 0.12346 0.31349 0.0
H1580 H 0.81653 0.0862 0.2994 0.0
S1581 S 0.71896 0.07509 0.28793 0.0
N1582 N 0.7314 0.10061 0.29885 0.0
N1583 N 0.73993 0.06021 0.28358 0.0
C1584 C 0.75843 0.07596 0.29106 0.0
C1585 C 0.75379 0.09788 0.29944 0.0
C1586 C 0.42649 0.28613 0.36641 0.0
C1587 C 0.41564 0.26391 0.368 0.0
C1588 C 0.44968 0.29327 0.373 0.0
C1589 C 0.46286 0.27862 0.38172 0.0
H1590 H 0.41723 0.29798 0.35942 0.0
H1591 H 0.45755 0.31028 0.37082 0.0
S1592 S 0.44264 0.21894 0.38995 0.0
N1593 N 0.41984 0.22746 0.3796 0.0
N1594 N 0.46338 0.24093 0.39178 0.0
C1595 C 0.45211 0.25657 0.38403 0.0
C1596 C 0.42853 0.24921 0.37719 0.0
C1597 C 0.31475 0.90836 0.32287 0.0
C1598 C 0.33691 0.91903 0.33067 0.0
C1599 C 0.299 0.92032 0.31386 0.0
C1600 C 0.30468 0.94349 0.31191 0.0
H1601 H 0.30914 0.89069 0.32437 0.0
H1602 H 0.28201 0.91128 0.30869 0.0
S1603 S 0.36097 0.97925 0.3281 0.0
N1604 N 0.36415 0.95412 0.33466 0.0
N1605 N 0.3345 0.97648 0.31738 0.0
C1606 C 0.32708 0.95426 0.31864 0.0
C1607 C 0.34316 0.94209 0.32812 0.0
C1608 C 0.71232 0.06928 0.69245 0.0
C1609 C 0.72195 0.08912 0.70663 0.0
C1610 C 0.71684 0.04809 0.69673 0.0
C1611 C 0.73112 0.04566 0.71549 0.0
H1612 H 0.70071 0.07 0.67814 0.0
H1613 H 0.7084 0.03342 0.68559 0.0
S1614 S 0.76204 0.09245 0.75699 0.0
N1615 N 0.74763 0.10507 0.73949 0.0
N1616 N 0.75602 0.06529 0.74762 0.0
C1617 C 0.74168 0.06545 0.72927 0.0
C1618 C 0.73712 0.08711 0.72484 0.0
C1619 C 0.73869 0.91594 0.33568 0.0
C1620 C 0.75735 0.90427 0.33652 0.0
C1621 C 0.74071 0.93623 0.32604 0.0
C1622 C 0.7615 0.94573 0.31691 0.0
H1623 H 0.72242 0.9095 0.34273 0.0
H1624 H 0.72571 0.94434 0.32537 0.0
S1625 S 0.81604 0.92268 0.31655 0.0
N1626 N 0.79763 0.90416 0.3284 0.0
N1627 N 0.80156 0.94257 0.31066 0.0
C1628 C 0.78051 0.93456 0.31824 0.0
C1629 C 0.77843 0.91385 0.32807 0.0
C1630 C 0.63394 0.24143 0.33498 0.0
C1631 C 0.63867 0.23688 0.35753 0.0
C1632 C 0.61502 0.25155 0.32993 0.0
C1633 C 0.59984 0.25753 0.34716 0.0
H1634 H 0.64516 0.2375 0.32104 0.0
H1635 H 0.61254 0.25502 0.31236 0.0
S1636 S 0.6037 0.24821 0.40888 0.0
N1637 N 0.62599 0.23842 0.39717 0.0
N1638 N 0.59041 0.25733 0.38772 0.0
C1639 C 0.60398 0.25255 0.36972 0.0
C1640 C 0.62337 0.24231 0.37489 0.0
C1641 C 0.2662 0.08781 0.36922 0.0
C1642 C 0.25745 0.10242 0.35561 0.0
C1643 C 0.26108 0.06433 0.36367 0.0
C1644 C 0.2471 0.05457 0.34424 0.0
H1645 H 0.27778 0.09451 0.38383 0.0
H1646 H 0.26917 0.05383 0.3739 0.0
S1647 S 0.21764 0.08491 0.30448 0.0
N1648 N 0.23238 0.10507 0.32289 0.0
N1649 N 0.2228 0.06101 0.31269 0.0
C1650 C 0.23716 0.06885 0.33129 0.0
C1651 C 0.2423 0.09274 0.33692 0.0
C1652 C 0.45051 0.82576 0.35203 0.0
C1653 C 0.43957 0.8425 0.34389 0.0
C1654 C 0.46988 0.81905 0.34148 0.0
C1655 C 0.47919 0.82859 0.32217 0.0
H1656 H 0.44423 0.81777 0.3669 0.0
H1657 H 0.47758 0.80612 0.34843 0.0
S1658 S 0.45754 0.87311 0.29386 0.0
N1659 N 0.43974 0.86848 0.31507 0.0
N1660 N 0.4763 0.85581 0.29532 0.0
C1661 C 0.46844 0.84516 0.31358 0.0
C1662 C 0.44865 0.85213 0.32442 0.0
C1663 C 0.32906 0.97687 0.77441 0.0
C1664 C 0.31641 0.96398 0.75542 0.0
C1665 C 0.32211 0.99641 0.78546 0.0
C1666 C 0.30215 0.00383 0.77808 0.0
H1667 H 0.34456 0.97193 0.78079 0.0
H1668 H 0.33246 0.00565 0.80003 0.0
S1669 S 0.26274 0.97607 0.72923 0.0
N1670 N 0.28279 0.96004 0.72975 0.0
N1671 N 0.26977 0.99667 0.75052 0.0
C1672 C 0.28929 0.99109 0.75913 0.0
C1673 C 0.2964 0.97122 0.74782 0.0
C1674 C 0.59451 0.80406 0.7293 0.0
C1675 C 0.61576 0.81838 0.72884 0.0
C1676 C 0.58294 0.80187 0.74996 0.0
C1677 C 0.59208 0.81397 0.77102 0.0
H1678 H 0.58637 0.79487 0.71348 0.0
H1679 H 0.56631 0.79115 0.7492 0.0
S1680 S 0.64836 0.85192 0.77973 0.0
N1681 N 0.64634 0.84353 0.75169 0.0
N1682 N 0.6246 0.8394 0.79047 0.0
C1683 C 0.61382 0.82754 0.77102 0.0
C1684 C 0.62565 0.82974 0.74997 0.0
C1685 C 0.44812 0.23878 0.71393 0.0
C1686 C 0.43389 0.25503 0.71216 0.0
C1687 C 0.46854 0.24384 0.72724 0.0
C1688 C 0.47564 0.26537 0.73943 0.0
H1689 H 0.44287 0.2216 0.70592 0.0
H1690 H 0.47822 0.23036 0.72901 0.0
S1691 S 0.44602 0.31475 0.73843 0.0
N1692 N 0.42945 0.29424 0.7219 0.0
N1693 N 0.46798 0.30374 0.74714 0.0
C1694 C 0.46262 0.28235 0.73635 0.0
C1695 C 0.44168 0.27717 0.72265 0.0
C1696 C 0.7411 0.7021 0.10346 0.0
C1697 C 0.73767 0.71083 0.12639 0.0
C1698 C 0.74417 0.71609 0.08581 0.0
C1699 C 0.74419 0.73947 0.09032 0.0
H1700 H 0.74149 0.68428 0.09912 0.0
H1701 H 0.7467 0.70852 0.06844 0.0
S1702 S 0.73789 0.77103 0.14789 0.0
N1703 N 0.73565 0.74453 0.15289 0.0
N1704 N 0.7415 0.7708 0.11982 0.0
C1705 C 0.74079 0.74843 0.11321 0.0
C1706 C 0.73756 0.73413 0.1312 0.0
C1707 C 0.35071 0.76927 0.08725 0.0
C1708 C 0.36005 0.7492 0.08584 0.0
C1709 C 0.34211 0.77665 0.06751 0.0
C1710 C 0.34221 0.76408 0.04561 0.0
H1711 H 0.34928 0.77903 0.10385 0.0
H1712 H 0.33415 0.79161 0.0697 0.0
S1713 S 0.36735 0.71192 0.03196 0.0
N1714 N 0.371 0.71813 0.06024 0.0
N1715 N 0.35453 0.73187 0.02327 0.0
C1716 C 0.35278 0.74476 0.04371 0.0
C1717 C 0.36176 0.73735 0.06378 0.0
C1718 C 0.35018 0.33909 0.17567 0.0
C1719 C 0.36724 0.32887 0.18526 0.0
C1720 C 0.33635 0.32828 0.15669 0.0
C1721 C 0.33886 0.3067 0.14619 0.0
H1722 H 0.34713 0.35558 0.18306 0.0
H1723 H 0.32336 0.33699 0.15036 0.0
S1724 S 0.38154 0.27267 0.1637 0.0
N1725 N 0.38636 0.29594 0.18216 0.0
N1726 N 0.36027 0.27565 0.1463 0.0
C1727 C 0.35621 0.29639 0.15508 0.0
C1728 C 0.37038 0.30743 0.17462 0.0
C1729 C 0.75032 0.28101 0.10916 0.0
C1730 C 0.72724 0.27725 0.11543 0.0
C1731 C 0.75673 0.27413 0.08674 0.0
C1732 C 0.74038 0.26289 0.06971 0.0
H1733 H 0.76351 0.29007 0.12142 0.0
H1734 H 0.77457 0.27847 0.08258 0.0
S1735 S 0.67805 0.24633 0.07834 0.0
N1736 N 0.68815 0.26012 0.10347 0.0
N1737 N 0.70035 0.2464 0.06148 0.0
C1738 C 0.71736 0.25809 0.0761 0.0
C1739 C 0.71076 0.26545 0.0989 0.0
C1740 C 0.771 0.32812 0.9401 0.0
C1741 C 0.75846 0.34512 0.94853 0.0
C1742 C 0.78165 0.31626 0.95514 0.0
C1743 C 0.78021 0.32082 0.9793 0.0
H1744 H 0.77211 0.32344 0.92167 0.0
H1745 H 0.79033 0.3028 0.94765 0.0
S1746 S 0.75178 0.36555 0.01037 0.0
N1747 N 0.74695 0.36726 0.98275 0.0
N1748 N 0.76693 0.34499 0.01098 0.0
C1749 C 0.76874 0.33858 0.988 0.0
C1750 C 0.75788 0.35068 0.97266 0.0
C1751 C 0.75 0.69908 0.93224 0.0
C1752 C 0.72607 0.69422 0.92802 0.0
C1753 C 0.75954 0.71298 0.95219 0.0
C1754 C 0.74544 0.7224 0.96864 0.0
H1755 H 0.76149 0.69268 0.91969 0.0
H1756 H 0.77806 0.717 0.95428 0.0
S1757 S 0.68165 0.71142 0.96762 0.0
N1758 N 0.68853 0.69737 0.94336 0.0
N1759 N 0.70624 0.72369 0.98059 0.0
C1760 C 0.72145 0.7166 0.96517 0.0
C1761 C 0.71181 0.70247 0.94493 0.0
C1762 C 0.32806 0.66255 0.9133 0.0
C1763 C 0.33442 0.67348 0.89381 0.0
C1764 C 0.31349 0.6712 0.92965 0.0
C1765 C 0.30501 0.69119 0.92716 0.0
H1766 H 0.33516 0.64779 0.91653 0.0
H1767 H 0.30972 0.66281 0.94487 0.0
S1768 S 0.31478 0.72508 0.87829 0.0
N1769 N 0.32984 0.70451 0.87222 0.0
N1770 N 0.3026 0.72078 0.90308 0.0
C1771 C 0.31063 0.70186 0.90743 0.0
C1772 C 0.32536 0.69304 0.89076 0.0
C1773 C 0.34889 0.32292 0.99876 0.0
C1774 C 0.33591 0.32673 0.97961 0.0
C1775 C 0.33845 0.3172 0.01918 0.0
C1776 C 0.31455 0.31512 0.0215 0.0
H1777 H 0.36736 0.32413 0.99798 0.0
H1778 H 0.34921 0.31433 0.03332 0.0
S1779 S 0.27249 0.32287 0.97663 0.0
N1780 N 0.2976 0.32789 0.96442 0.0
N1781 N 0.27805 0.31698 0.00284 0.0
C1782 C 0.30129 0.31911 1.00269 0.0
C1783 C 0.31194 0.32492 0.98177 0.0
C1784 C 0.6191 0.72058 0.21989 0.0
C1785 C 0.63697 0.73479 0.21048 0.0
C1786 C 0.60171 0.72931 0.23244 0.0
C1787 C 0.6014 0.7526 0.23606 0.0
H1788 H 0.61839 0.70248 0.21747 0.0
H1789 H 0.58818 0.71769 0.23904 0.0
S1790 S 0.64488 0.79731 0.2166 0.0
N1791 N 0.65363 0.77356 0.20656 0.0
N1792 N 0.62112 0.78987 0.23038 0.0
C1793 C 0.61928 0.76707 0.22709 0.0
C1794 C 0.637 0.7582 0.21426 0.0
C1795 C 0.32987 0.62034 0.20264 0.0
C1796 C 0.34576 0.63593 0.21707 0.0
C1797 C 0.31962 0.59981 0.20984 0.0
C1798 C 0.32473 0.59412 0.23179 0.0
H1799 H 0.32547 0.62386 0.18551 0.0
H1800 H 0.30766 0.58823 0.19813 0.0
S1801 S 0.36586 0.62847 0.2759 0.0
N1802 N 0.36627 0.6439 0.2544 0.0
N1803 N 0.3474 0.60535 0.26756 0.0
C1804 C 0.34051 0.60955 0.24643 0.0
C1805 C 0.3509 0.63042 0.23916 0.0
C1806 C 0.46041 0.29275 0.28827 0.0
C1807 C 0.46762 0.31045 0.27503 0.0
C1808 C 0.47629 0.2827 0.29979 0.0
C1809 C 0.50009 0.29007 0.29876 0.0
H1810 H 0.44229 0.28708 0.29046 0.0
H1811 H 0.46975 0.26995 0.31066 0.0
S1812 S 0.52817 0.33402 0.26444 0.0
N1813 N 0.50042 0.33347 0.25991 0.0
N1814 N 0.53016 0.31476 0.2818 0.0
C1815 C 0.50759 0.30686 0.28457 0.0
C1816 C 0.49142 0.31698 0.27266 0.0
C1817 C 0.73259 0.39404 0.23134 0.0
C1818 C 0.72754 0.38311 0.20877 0.0
C1819 C 0.74279 0.41674 0.23532 0.0
C1820 C 0.7488 0.42928 0.21686 0.0
H1821 H 0.72971 0.38481 0.24608 0.0
H1822 H 0.74695 0.42418 0.25301 0.0
S1823 S 0.7384 0.40895 0.15449 0.0
N1824 N 0.72845 0.38689 0.16769 0.0
N1825 N 0.7482 0.42943 0.1752 0.0
C1826 C 0.74357 0.41871 0.19421 0.0
C1827 C 0.73288 0.39566 0.19016 0.0
C1828 C 0.60906 0.3608 0.82044 0.0
C1829 C 0.62311 0.35858 0.83949 0.0
C1830 C 0.58889 0.34536 0.81409 0.0
C1831 C 0.58189 0.32704 0.82653 0.0
H1832 H 0.61373 0.37448 0.81014 0.0
H1833 H 0.57888 0.34769 0.79916 0.0
S1834 S 0.61211 0.314 0.87839 0.0
N1835 N 0.62816 0.33681 0.87107 0.0
N1836 N 0.59048 0.30799 0.85934 0.0
C1837 C 0.59562 0.32483 0.84585 0.0
C1838 C 0.61614 0.34051 0.85227 0.0
C1839 C 0.77542 0.6109 0.82294 0.0
C1840 C 0.75307 0.60114 0.82802 0.0
C1841 C 0.79187 0.59753 0.81576 0.0
C1842 C 0.78647 0.57389 0.81284 0.0
H1843 H 0.78063 0.62903 0.82557 0.0
H1844 H 0.80918 0.60577 0.81312 0.0
S1845 S 0.72985 0.53996 0.82149 0.0
N1846 N 0.72594 0.56633 0.82808 0.0
N1847 N 0.75689 0.5412 0.81403 0.0
C1848 C 0.76387 0.56386 0.8165 0.0
C1849 C 0.74717 0.5775 0.82427 0.0
C1850 C 0.44127 0.7411 0.83182 0.0
C1851 C 0.44634 0.71931 0.83259 0.0
C1852 C 0.45881 0.75962 0.83155 0.0
C1853 C 0.48198 0.75687 0.83133 0.0
H1854 H 0.42362 0.74397 0.83197 0.0
H1855 H 0.4542 0.77619 0.8313 0.0
S1856 S 0.50438 0.7033 0.83247 0.0
N1857 N 0.4762 0.69601 0.83301 0.0
N1858 N 0.50918 0.7308 0.83156 0.0
C1859 C 0.48731 0.73515 0.83158 0.0
C1860 C 0.46947 0.71636 0.83249 0.0
C1861 C 0.3502 0.42812 0.81045 0.0
C1862 C 0.33473 0.41442 0.82302 0.0
C1863 C 0.34261 0.44314 0.79666 0.0
C1864 C 0.31928 0.44557 0.79521 0.0
H1865 H 0.36837 0.42725 0.81128 0.0
H1866 H 0.35529 0.45311 0.78722 0.0
S1867 S 0.27197 0.41412 0.82593 0.0
N1868 N 0.29504 0.40413 0.83331 0.0
N1869 N 0.28086 0.43306 0.80849 0.0
C1870 C 0.3036 0.43182 0.80774 0.0
C1871 C 0.31132 0.41614 0.82137 0.0
C1872 C 0.78976 0.59466 0.1894 0.0
C1873 C 0.76644 0.59575 0.18511 0.0
C1874 C 0.7967 0.57497 0.19555 0.0
C1875 C 0.78059 0.55566 0.19802 0.0
H1876 H 0.8028 0.60927 0.18839 0.0
H1877 H 0.81475 0.57512 0.19918 0.0
S1878 S 0.7177 0.54889 0.18733 0.0
N1879 N 0.72736 0.57505 0.18266 0.0
N1880 N 0.74051 0.5383 0.19439 0.0
C1881 C 0.75734 0.55624 0.19321 0.0
C1882 C 0.75026 0.57618 0.18668 0.0
C1883 C 0.78059 0.44401 0.87916 0.0
C1884 C 0.75708 0.44542 0.87701 0.0
C1885 C 0.79759 0.46128 0.87337 0.0
C1886 C 0.79168 0.4806 0.86531 0.0
H1887 H 0.78594 0.42903 0.88438 0.0
H1888 H 0.81537 0.45895 0.87405 0.0
S1889 S 0.73303 0.49441 0.86044 0.0
N1890 N 0.72905 0.46905 0.86887 0.0
N1891 N 0.76105 0.50152 0.8583 0.0
C1892 C 0.76839 0.48292 0.86457 0.0
C1893 C 0.75108 0.46533 0.87033 0.0
C1894 C 0.63834 0.78856 0.8954 0.0
C1895 C 0.63454 0.765 0.89559 0.0
C1896 C 0.62102 0.79976 0.88807 0.0
C1897 C 0.59928 0.78784 0.88054 0.0
H1898 H 0.65501 0.79843 0.90037 0.0
H1899 H 0.62495 0.81775 0.88745 0.0
S1900 S 0.57936 0.72658 0.88024 0.0
N1901 N 0.60644 0.73049 0.88938 0.0
N1902 N 0.57411 0.75166 0.87569 0.0
C1903 C 0.59488 0.76451 0.88158 0.0
C1904 C 0.61243 0.75307 0.88911 0.0
C1905 C 0.27744 0.54447 0.85876 0.0
C1906 C 0.27114 0.56518 0.85484 0.0
C1907 C 0.27043 0.52488 0.84339 0.0
C1908 C 0.257 0.52536 0.82344 0.0
H1909 H 0.28914 0.54363 0.87296 0.0
H1910 H 0.27719 0.5098 0.8462 0.0
S1911 S 0.23163 0.57398 0.80797 0.0
N1912 N 0.24735 0.58396 0.83166 0.0
N1913 N 0.23435 0.54718 0.80273 0.0
C1914 C 0.24848 0.5453 0.82072 0.0
C1915 C 0.2555 0.56523 0.83644 0.0
C1916 C 0.42845 0.33254 0.84419 0.0
C1917 C 0.41227 0.32207 0.85874 0.0
C1918 C 0.4476 0.32277 0.83687 0.0
C1919 C 0.45136 0.30211 0.84374 0.0
H1920 H 0.42671 0.34876 0.83895 0.0
H1921 H 0.45993 0.33182 0.8263 0.0
S1922 S 0.41259 0.26628 0.87907 0.0
N1923 N 0.40036 0.28881 0.87804 0.0
N1924 N 0.43606 0.27045 0.86399 0.0
C1925 C 0.43483 0.29101 0.85744 0.0
C1926 C 0.41539 0.30096 0.86498 0.0
C1927 C 0.37732 0.4729 0.26501 0.0
C1928 C 0.37623 0.45281 0.27517 0.0
C1929 C 0.36697 0.49084 0.27505 0.0
C1930 C 0.35515 0.48965 0.29583 0.0
H1931 H 0.38546 0.47455 0.2486 0.0
H1932 H 0.3675 0.50545 0.2659 0.0
S1933 S 0.34951 0.44189 0.33098 0.0
N1934 N 0.36405 0.43363 0.3084 0.0
N1935 N 0.34468 0.46733 0.3273 0.0
C1936 C 0.35518 0.47026 0.307 0.0
C1937 C 0.36565 0.45186 0.29667 0.0
C1938 C 0.62654 0.38605 0.31123 0.0
C1939 C 0.64685 0.3766 0.3099 0.0
C1940 C 0.60972 0.37989 0.32713 0.0
C1941 C 0.61268 0.36412 0.34228 0.0
H1942 H 0.6229 0.39723 0.29899 0.0
H1943 H 0.59366 0.38627 0.32643 0.0
S1944 S 0.66443 0.33787 0.34902 0.0
N1945 N 0.67026 0.35317 0.32755 0.0
N1946 N 0.63857 0.34172 0.35734 0.0
C1947 C 0.63367 0.35612 0.34253 0.0
C1948 C 0.65079 0.36233 0.32638 0.0
C1949 C 0.44957 0.73381 0.21474 0.0
C1950 C 0.44044 0.74393 0.19703 0.0
C1951 C 0.46915 0.74445 0.22772 0.0
C1952 C 0.48067 0.76576 0.22366 0.0
H1953 H 0.44144 0.71749 0.2189 0.0
H1954 H 0.47517 0.7358 0.24122 0.0
S1955 S 0.46442 0.7995 0.17888 0.0
N1956 N 0.44484 0.77649 0.1757 0.0
N1957 N 0.48185 0.79653 0.20025 0.0
C1958 C 0.47212 0.77601 0.20572 0.0
C1959 C 0.45199 0.76511 0.1924 0.0
loop_
_geom_bond_atom_site_label_1
_geom_bond_atom_site_label_2
_geom_bond_distance
_geom_bond_site_symmetry_2
_ccdc_geom_bond_type
O0 Cd1 2.300 . S
O0 C7 1.275 . S
Cd1 O0 2.300 . S
Cd1 O9 2.381 . S
Cd1 O10 2.378 . S
O2 Cd3 2.385 . S
O2 C7 1.255 . S
Cd3 O2 2.385 . S
Cd3 O4 2.317 . S
O4 Cd3 2.317 . S
O4 C5 1.232 . S
C5 O4 1.232 . S
C5 O6 1.218 . S
O6 C5 1.218 . S
C7 O0 1.275 . S
C7 O2 1.255 . S
C8 O9 1.258 . S
C8 O10 1.256 . S
O9 Cd1 2.381 . S
O9 C8 1.258 . S
O10 Cd1 2.378 . S
O10 C8 1.256 . S
O11 Cd12 2.300 . S
O11 C18 1.275 . S
Cd12 O11 2.300 . S
Cd12 O20 2.381 . S
Cd12 O21 2.378 . S
O13 Cd14 2.385 . S
O13 C18 1.255 . S
Cd14 O13 2.385 . S
Cd14 O15 2.317 . S
O15 Cd14 2.317 . S
O15 C16 1.232 . S
C16 O15 1.232 . S
C16 O17 1.218 . S
O17 C16 1.218 . S
C18 O11 1.275 . S
C18 O13 1.255 . S
C19 O20 1.258 . S
C19 O21 1.256 . S
O20 Cd12 2.381 . S
O20 C19 1.258 . S
O21 Cd12 2.378 . S
O21 C19 1.256 . S
O22 Cd23 2.300 . S
O22 C29 1.275 . S
Cd23 O22 2.300 . S
Cd23 O31 2.381 . S
Cd23 O32 2.378 . S
O24 Cd25 2.385 . S
O24 C29 1.255 . S
Cd25 O24 2.385 . S
Cd25 O26 2.317 . S
O26 Cd25 2.317 . S
O26 C27 1.232 . S
C27 O26 1.232 . S
C27 O28 1.218 . S
O28 C27 1.218 . S
C29 O22 1.275 . S
C29 O24 1.255 . S
C30 O31 1.258 . S
C30 O32 1.256 . S
O31 Cd23 2.381 . S
O31 C30 1.258 . S
O32 Cd23 2.378 . S
O32 C30 1.256 . S
O33 Cd34 2.300 . S
O33 C40 1.275 . S
Cd34 O33 2.300 . S
Cd34 O42 2.381 . S
Cd34 O43 2.378 . S
O35 Cd36 2.385 . S
O35 C40 1.255 . S
Cd36 O35 2.385 . S
Cd36 O37 2.317 . S
O37 Cd36 2.317 . S
O37 C38 1.232 . S
C38 O37 1.232 . S
C38 O39 1.218 . S
O39 C38 1.218 . S
C40 O33 1.275 . S
C40 O35 1.255 . S
C41 O42 1.258 . S
C41 O43 1.256 . S
O42 Cd34 2.381 . S
O42 C41 1.258 . S
O43 Cd34 2.378 . S
O43 C41 1.256 . S
O44 Cd45 2.300 . S
O44 C51 1.275 . S
Cd45 O44 2.300 . S
Cd45 O53 2.381 . S
Cd45 O54 2.378 . S
O46 Cd47 2.385 . S
O46 C51 1.255 . S
Cd47 O46 2.385 . S
Cd47 O48 2.317 . S
O48 Cd47 2.317 . S
O48 C49 1.232 . S
C49 O48 1.232 . S
C49 O50 1.218 . S
O50 C49 1.218 . S
C51 O44 1.275 . S
C51 O46 1.255 . S
C52 O53 1.258 . S
C52 O54 1.256 . S
O53 Cd45 2.381 . S
O53 C52 1.258 . S
O54 Cd45 2.378 . S
O54 C52 1.256 . S
O55 Cd56 2.300 . S
O55 C62 1.275 . S
Cd56 O55 2.300 . S
Cd56 O64 2.381 . S
Cd56 O65 2.378 . S
O57 Cd58 2.385 . S
O57 C62 1.255 . S
Cd58 O57 2.385 . S
Cd58 O59 2.317 . S
O59 Cd58 2.317 . S
O59 C60 1.232 . S
C60 O59 1.232 . S
C60 O61 1.218 . S
O61 C60 1.218 . S
C62 O55 1.275 . S
C62 O57 1.255 . S
C63 O64 1.258 . S
C63 O65 1.256 . S
O64 Cd56 2.381 . S
O64 C63 1.258 . S
O65 Cd56 2.378 . S
O65 C63 1.256 . S
O66 Cd67 2.300 . S
O66 C73 1.275 . S
Cd67 O66 2.300 . S
Cd67 O75 2.381 . S
Cd67 O76 2.378 . S
O68 Cd69 2.385 . S
O68 C73 1.255 . S
Cd69 O68 2.385 . S
Cd69 O70 2.317 . S
O70 Cd69 2.317 . S
O70 C71 1.232 . S
C71 O70 1.232 . S
C71 O72 1.218 . S
O72 C71 1.218 . S
C73 O66 1.275 . S
C73 O68 1.255 . S
C74 O75 1.258 . S
C74 O76 1.256 . S
O75 Cd67 2.381 . S
O75 C74 1.258 . S
O76 Cd67 2.378 . S
O76 C74 1.256 . S
O77 Cd78 2.300 . S
O77 C84 1.275 . S
Cd78 O77 2.300 . S
Cd78 O86 2.381 . S
Cd78 O87 2.378 . S
O79 Cd80 2.385 . S
O79 C84 1.255 . S
Cd80 O79 2.385 . S
Cd80 O81 2.317 . S
O81 Cd80 2.317 . S
O81 C82 1.232 . S
C82 O81 1.232 . S
C82 O83 1.218 . S
O83 C82 1.218 . S
C84 O77 1.275 . S
C84 O79 1.255 . S
C85 O86 1.258 . S
C85 O87 1.256 . S
O86 Cd78 2.381 . S
O86 C85 1.258 . S
O87 Cd78 2.378 . S
O87 C85 1.256 . S
O88 Cd89 2.300 . S
O88 C95 1.275 . S
Cd89 O88 2.300 . S
Cd89 O97 2.381 . S
Cd89 O98 2.378 . S
O90 Cd91 2.385 . S
O90 C95 1.255 . S
Cd91 O90 2.385 . S
Cd91 O92 2.317 . S
O92 Cd91 2.317 . S
O92 C93 1.232 . S
C93 O92 1.232 . S
C93 O94 1.218 . S
O94 C93 1.218 . S
C95 O88 1.275 . S
C95 O90 1.255 . S
C96 O97 1.258 . S
C96 O98 1.256 . S
O97 Cd89 2.381 . S
O97 C96 1.258 . S
O98 Cd89 2.378 . S
O98 C96 1.256 . S
O99 Cd100 2.300 . S
O99 C106 1.275 . S
Cd100 O99 2.300 . S
Cd100 O108 2.381 . S
Cd100 O109 2.378 . S
O101 Cd102 2.385 . S
O101 C106 1.255 . S
Cd102 O101 2.385 . S
Cd102 O103 2.317 . S
O103 Cd102 2.317 . S
O103 C104 1.232 . S
C104 O103 1.232 . S
C104 O105 1.218 . S
O105 C104 1.218 . S
C106 O99 1.275 . S
C106 O101 1.255 . S
C107 O108 1.258 . S
C107 O109 1.256 . S
O108 Cd100 2.381 . S
O108 C107 1.258 . S
O109 Cd100 2.378 . S
O109 C107 1.256 . S
O110 Cd111 2.300 . S
O110 C117 1.275 . S
Cd111 O110 2.300 . S
Cd111 O119 2.381 . S
Cd111 O120 2.378 . S
O112 Cd113 2.385 . S
O112 C117 1.255 . S
Cd113 O112 2.385 . S
Cd113 O114 2.317 . S
O114 Cd113 2.317 . S
O114 C115 1.232 . S
C115 O114 1.232 . S
C115 O116 1.218 . S
O116 C115 1.218 . S
C117 O110 1.275 . S
C117 O112 1.255 . S
C118 O119 1.258 . S
C118 O120 1.256 . S
O119 Cd111 2.381 . S
O119 C118 1.258 . S
O120 Cd111 2.378 . S
O120 C118 1.256 . S
O121 Cd122 2.300 . S
O121 C128 1.275 . S
Cd122 O121 2.300 . S
Cd122 O130 2.381 . S
Cd122 O131 2.378 . S
O123 Cd124 2.385 . S
O123 C128 1.255 . S
Cd124 O123 2.385 . S
Cd124 O125 2.317 . S
O125 Cd124 2.317 . S
O125 C126 1.232 . S
C126 O125 1.232 . S
C126 O127 1.218 . S
O127 C126 1.218 . S
C128 O121 1.275 . S
C128 O123 1.255 . S
C129 O130 1.258 . S
C129 O131 1.256 . S
O130 Cd122 2.381 . S
O130 C129 1.258 . S
O131 Cd122 2.378 . S
O131 C129 1.256 . S
O132 Cd133 2.300 . S
O132 C139 1.275 . S
Cd133 O132 2.300 . S
Cd133 O141 2.381 . S
Cd133 O142 2.378 . S
O134 Cd135 2.385 . S
O134 C139 1.255 . S
Cd135 O134 2.385 . S
Cd135 O136 2.317 . S
O136 Cd135 2.317 . S
O136 C137 1.232 . S
C137 O136 1.232 . S
C137 O138 1.218 . S
O138 C137 1.218 . S
C139 O132 1.275 . S
C139 O134 1.255 . S
C140 O141 1.258 . S
C140 O142 1.256 . S
O141 Cd133 2.381 . S
O141 C140 1.258 . S
O142 Cd133 2.378 . S
O142 C140 1.256 . S
O143 Cd144 2.300 . S
O143 C150 1.275 . S
Cd144 O143 2.300 . S
Cd144 O152 2.381 . S
Cd144 O153 2.378 . S
O145 Cd146 2.385 . S
O145 C150 1.255 . S
Cd146 O145 2.385 . S
Cd146 O147 2.317 . S
O147 Cd146 2.317 . S
O147 C148 1.232 . S
C148 O147 1.232 . S
C148 O149 1.218 . S
O149 C148 1.218 . S
C150 O143 1.275 . S
C150 O145 1.255 . S
C151 O152 1.258 . S
C151 O153 1.256 . S
O152 Cd144 2.381 . S
O152 C151 1.258 . S
O153 Cd144 2.378 . S
O153 C151 1.256 . S
O154 Cd155 2.300 . S
O154 C161 1.275 . S
Cd155 O154 2.300 . S
Cd155 O163 2.381 . S
Cd155 O164 2.378 . S
O156 Cd157 2.385 . S
O156 C161 1.255 . S
Cd157 O156 2.385 . S
Cd157 O158 2.317 . S
O158 Cd157 2.317 . S
O158 C159 1.232 . S
C159 O158 1.232 . S
C159 O160 1.218 . S
O160 C159 1.218 . S
C161 O154 1.275 . S
C161 O156 1.255 . S
C162 O163 1.258 . S
C162 O164 1.256 . S
O163 Cd155 2.381 . S
O163 C162 1.258 . S
O164 Cd155 2.378 . S
O164 C162 1.256 . S
O165 Cd166 2.300 . S
O165 C172 1.275 . S
Cd166 O165 2.300 . S
Cd166 O174 2.381 . S
Cd166 O175 2.378 . S
O167 Cd168 2.385 . S
O167 C172 1.255 . S
Cd168 O167 2.385 . S
Cd168 O169 2.317 . S
O169 Cd168 2.317 . S
O169 C170 1.232 . S
C170 O169 1.232 . S
C170 O171 1.218 . S
O171 C170 1.218 . S
C172 O165 1.275 . S
C172 O167 1.255 . S
C173 O174 1.258 . S
C173 O175 1.256 . S
O174 Cd166 2.381 . S
O174 C173 1.258 . S
O175 Cd166 2.378 . S
O175 C173 1.256 . S
O176 Cd177 2.300 . S
O176 C183 1.275 . S
Cd177 O176 2.300 . S
Cd177 O185 2.381 . S
Cd177 O186 2.378 . S
O178 Cd179 2.385 . S
O178 C183 1.255 . S
Cd179 O178 2.385 . S
Cd179 O180 2.317 . S
O180 Cd179 2.317 . S
O180 C181 1.232 . S
C181 O180 1.232 . S
C181 O182 1.218 . S
O182 C181 1.218 . S
C183 O176 1.275 . S
C183 O178 1.255 . S
C184 O185 1.258 . S
C184 O186 1.256 . S
O185 Cd177 2.381 . S
O185 C184 1.258 . S
O186 Cd177 2.378 . S
O186 C184 1.256 . S
O187 Cd188 2.300 . S
O187 C194 1.275 . S
Cd188 O187 2.300 . S
Cd188 O196 2.381 . S
Cd188 O197 2.378 . S
O189 Cd190 2.385 . S
O189 C194 1.255 . S
Cd190 O189 2.385 . S
Cd190 O191 2.317 . S
O191 Cd190 2.317 . S
O191 C192 1.232 . S
C192 O191 1.232 . S
C192 O193 1.218 . S
O193 C192 1.218 . S
C194 O187 1.275 . S
C194 O189 1.255 . S
C195 O196 1.258 . S
C195 O197 1.256 . S
O196 Cd188 2.381 . S
O196 C195 1.258 . S
O197 Cd188 2.378 . S
O197 C195 1.256 . S
O198 Cd199 2.300 . S
O198 C205 1.275 . S
Cd199 O198 2.300 . S
Cd199 O207 2.381 . S
Cd199 O208 2.378 . S
O200 Cd201 2.385 . S
O200 C205 1.255 . S
Cd201 O200 2.385 . S
Cd201 O202 2.317 . S
O202 Cd201 2.317 . S
O202 C203 1.232 . S
C203 O202 1.232 . S
C203 O204 1.218 . S
O204 C203 1.218 . S
C205 O198 1.275 . S
C205 O200 1.255 . S
C206 O207 1.258 . S
C206 O208 1.256 . S
O207 Cd199 2.381 . S
O207 C206 1.258 . S
O208 Cd199 2.378 . S
O208 C206 1.256 . S
O209 Cd210 2.300 . S
O209 C216 1.275 . S
Cd210 O209 2.300 . S
Cd210 O218 2.381 . S
Cd210 O219 2.378 . S
O211 Cd212 2.385 . S
O211 C216 1.255 . S
Cd212 O211 2.385 . S
Cd212 O213 2.317 . S
O213 Cd212 2.317 . S
O213 C214 1.232 . S
C214 O213 1.232 . S
C214 O215 1.218 . S
O215 C214 1.218 . S
C216 O209 1.275 . S
C216 O211 1.255 . S
C217 O218 1.258 . S
C217 O219 1.256 . S
O218 Cd210 2.381 . S
O218 C217 1.258 . S
O219 Cd210 2.378 . S
O219 C217 1.256 . S
O220 Cd221 2.300 . S
O220 C227 1.275 . S
Cd221 O220 2.300 . S
Cd221 O229 2.381 . S
Cd221 O230 2.378 . S
O222 Cd223 2.385 . S
O222 C227 1.255 . S
Cd223 O222 2.385 . S
Cd223 O224 2.317 . S
O224 Cd223 2.317 . S
O224 C225 1.232 . S
C225 O224 1.232 . S
C225 O226 1.218 . S
O226 C225 1.218 . S
C227 O220 1.275 . S
C227 O222 1.255 . S
C228 O229 1.258 . S
C228 O230 1.256 . S
O229 Cd221 2.381 . S
O229 C228 1.258 . S
O230 Cd221 2.378 . S
O230 C228 1.256 . S
O231 Cd232 2.300 . S
O231 C238 1.275 . S
Cd232 O231 2.300 . S
Cd232 O240 2.381 . S
Cd232 O241 2.378 . S
O233 Cd234 2.385 . S
O233 C238 1.255 . S
Cd234 O233 2.385 . S
Cd234 O235 2.317 . S
O235 Cd234 2.317 . S
O235 C236 1.232 . S
C236 O235 1.232 . S
C236 O237 1.218 . S
O237 C236 1.218 . S
C238 O231 1.275 . S
C238 O233 1.255 . S
C239 O240 1.258 . S
C239 O241 1.256 . S
O240 Cd232 2.381 . S
O240 C239 1.258 . S
O241 Cd232 2.378 . S
O241 C239 1.256 . S
O242 Cd243 2.300 . S
O242 C249 1.275 . S
Cd243 O242 2.300 . S
Cd243 O251 2.381 . S
Cd243 O252 2.378 . S
O244 Cd245 2.385 . S
O244 C249 1.255 . S
Cd245 O244 2.385 . S
Cd245 O246 2.317 . S
O246 Cd245 2.317 . S
O246 C247 1.232 . S
C247 O246 1.232 . S
C247 O248 1.218 . S
O248 C247 1.218 . S
C249 O242 1.275 . S
C249 O244 1.255 . S
C250 O251 1.258 . S
C250 O252 1.256 . S
O251 Cd243 2.381 . S
O251 C250 1.258 . S
O252 Cd243 2.378 . S
O252 C250 1.256 . S
O253 Cd254 2.300 . S
O253 C260 1.275 . S
Cd254 O253 2.300 . S
Cd254 O262 2.381 . S
Cd254 O263 2.378 . S
O255 Cd256 2.385 . S
O255 C260 1.255 . S
Cd256 O255 2.385 . S
Cd256 O257 2.317 . S
O257 Cd256 2.317 . S
O257 C258 1.232 . S
C258 O257 1.232 . S
C258 O259 1.218 . S
O259 C258 1.218 . S
C260 O253 1.275 . S
C260 O255 1.255 . S
C261 O262 1.258 . S
C261 O263 1.256 . S
O262 Cd254 2.381 . S
O262 C261 1.258 . S
O263 Cd254 2.378 . S
O263 C261 1.256 . S
O264 Cd265 2.300 . S
O264 C271 1.275 . S
Cd265 O264 2.300 . S
Cd265 O273 2.381 . S
Cd265 O274 2.378 . S
O266 Cd267 2.385 . S
O266 C271 1.255 . S
Cd267 O266 2.385 . S
Cd267 O268 2.317 . S
O268 Cd267 2.317 . S
O268 C269 1.232 . S
C269 O268 1.232 . S
C269 O270 1.218 . S
O270 C269 1.218 . S
C271 O264 1.275 . S
C271 O266 1.255 . S
C272 O273 1.258 . S
C272 O274 1.256 . S
O273 Cd265 2.381 . S
O273 C272 1.258 . S
O274 Cd265 2.378 . S
O274 C272 1.256 . S
O275 Cd276 2.300 . S
O275 C282 1.275 . S
Cd276 O275 2.300 . S
Cd276 O284 2.381 . S
Cd276 O285 2.378 . S
O277 Cd278 2.385 . S
O277 C282 1.255 . S
Cd278 O277 2.385 . S
Cd278 O279 2.317 . S
O279 Cd278 2.317 . S
O279 C280 1.232 . S
C280 O279 1.232 . S
C280 O281 1.218 . S
O281 C280 1.218 . S
C282 O275 1.275 . S
C282 O277 1.255 . S
C283 O284 1.258 . S
C283 O285 1.256 . S
O284 Cd276 2.381 . S
O284 C283 1.258 . S
O285 Cd276 2.378 . S
O285 C283 1.256 . S
O286 Cd287 2.300 . S
O286 C293 1.275 . S
Cd287 O286 2.300 . S
Cd287 O295 2.381 . S
Cd287 O296 2.378 . S
O288 Cd289 2.385 . S
O288 C293 1.255 . S
Cd289 O288 2.385 . S
Cd289 O290 2.317 . S
O290 Cd289 2.317 . S
O290 C291 1.232 . S
C291 O290 1.232 . S
C291 O292 1.218 . S
O292 C291 1.218 . S
C293 O286 1.275 . S
C293 O288 1.255 . S
C294 O295 1.258 . S
C294 O296 1.256 . S
O295 Cd287 2.381 . S
O295 C294 1.258 . S
O296 Cd287 2.378 . S
O296 C294 1.256 . S
O297 Cd298 2.300 . S
O297 C304 1.275 . S
Cd298 O297 2.300 . S
Cd298 O306 2.381 . S
Cd298 O307 2.378 . S
O299 Cd300 2.385 . S
O299 C304 1.255 . S
Cd300 O299 2.385 . S
Cd300 O301 2.317 . S
O301 Cd300 2.317 . S
O301 C302 1.232 . S
C302 O301 1.232 . S
C302 O303 1.218 . S
O303 C302 1.218 . S
C304 O297 1.275 . S
C304 O299 1.255 . S
C305 O306 1.258 . S
C305 O307 1.256 . S
O306 Cd298 2.381 . S
O306 C305 1.258 . S
O307 Cd298 2.378 . S
O307 C305 1.256 . S
O308 Cd309 2.300 . S
O308 C315 1.275 . S
Cd309 O308 2.300 . S
Cd309 O317 2.381 . S
Cd309 O318 2.378 . S
O310 Cd311 2.385 . S
O310 C315 1.255 . S
Cd311 O310 2.385 . S
Cd311 O312 2.317 . S
O312 Cd311 2.317 . S
O312 C313 1.232 . S
C313 O312 1.232 . S
C313 O314 1.218 . S
O314 C313 1.218 . S
C315 O308 1.275 . S
C315 O310 1.255 . S
C316 O317 1.258 . S
C316 O318 1.256 . S
O317 Cd309 2.381 . S
O317 C316 1.258 . S
O318 Cd309 2.378 . S
O318 C316 1.256 . S
O319 Cd320 2.300 . S
O319 C326 1.275 . S
Cd320 O319 2.300 . S
Cd320 O328 2.381 . S
Cd320 O329 2.378 . S
O321 Cd322 2.385 . S
O321 C326 1.255 . S
Cd322 O321 2.385 . S
Cd322 O323 2.317 . S
O323 Cd322 2.317 . S
O323 C324 1.232 . S
C324 O323 1.232 . S
C324 O325 1.218 . S
O325 C324 1.218 . S
C326 O319 1.275 . S
C326 O321 1.255 . S
C327 O328 1.258 . S
C327 O329 1.256 . S
O328 Cd320 2.381 . S
O328 C327 1.258 . S
O329 Cd320 2.378 . S
O329 C327 1.256 . S
O330 Cd331 2.300 . S
O330 C337 1.275 . S
Cd331 O330 2.300 . S
Cd331 O339 2.381 . S
Cd331 O340 2.378 . S
O332 Cd333 2.385 . S
O332 C337 1.255 . S
Cd333 O332 2.385 . S
Cd333 O334 2.317 . S
O334 Cd333 2.317 . S
O334 C335 1.232 . S
C335 O334 1.232 . S
C335 O336 1.218 . S
O336 C335 1.218 . S
C337 O330 1.275 . S
C337 O332 1.255 . S
C338 O339 1.258 . S
C338 O340 1.256 . S
O339 Cd331 2.381 . S
O339 C338 1.258 . S
O340 Cd331 2.378 . S
O340 C338 1.256 . S
O341 Cd342 2.300 . S
O341 C348 1.275 . S
Cd342 O341 2.300 . S
Cd342 O350 2.381 . S
Cd342 O351 2.378 . S
O343 Cd344 2.385 . S
O343 C348 1.255 . S
Cd344 O343 2.385 . S
Cd344 O345 2.317 . S
O345 Cd344 2.317 . S
O345 C346 1.232 . S
C346 O345 1.232 . S
C346 O347 1.218 . S
O347 C346 1.218 . S
C348 O341 1.275 . S
C348 O343 1.255 . S
C349 O350 1.258 . S
C349 O351 1.256 . S
O350 Cd342 2.381 . S
O350 C349 1.258 . S
O351 Cd342 2.378 . S
O351 C349 1.256 . S
Cu352 N353 1.999 . S
Cu352 O358 1.974 . S
Cu352 N363 1.985 . S
Cu352 O372 1.959 . S
N353 Cu352 1.999 . S
N353 C355 1.263 . S
N353 C357 1.389 . S
N354 C355 1.358 . S
N354 C356 1.400 . S
C355 N353 1.263 . S
C355 N354 1.358 . S
C355 H361 0.930 . S
C356 N354 1.400 . S
C356 C357 1.351 . S
C356 H373 0.930 . S
C357 N353 1.389 . S
C357 C356 1.351 . S
C357 H362 0.930 . S
O358 Cu352 1.974 . S
O358 C368 1.282 . S
C359 O360 1.261 . S
C359 O372 1.251 . S
O360 C359 1.261 . S
H361 C355 0.930 . S
H362 C357 0.930 . S
N363 Cu352 1.985 . S
N363 C365 1.335 . S
N363 C366 1.390 . S
N364 C365 1.345 . S
N364 C367 1.336 . S
C365 N363 1.335 . S
C365 N364 1.345 . S
C365 H370 0.930 . S
C366 N363 1.390 . S
C366 C367 1.346 . S
C366 H371 0.930 . S
C367 N364 1.336 . S
C367 C366 1.346 . S
C367 H374 0.929 . S
C368 O358 1.282 . S
C368 O369 1.216 . S
O369 C368 1.216 . S
H370 C365 0.930 . S
H371 C366 0.930 . S
O372 Cu352 1.959 . S
O372 C359 1.251 . S
H373 C356 0.930 . S
H374 C367 0.929 . S
Cu375 N376 1.999 . S
Cu375 O381 1.974 . S
Cu375 N386 1.985 1_554 S
Cu375 O395 1.959 1_554 S
N376 Cu375 1.999 . S
N376 C378 1.263 . S
N376 C380 1.389 . S
N377 C378 1.358 . S
N377 C379 1.400 . S
C378 N376 1.263 . S
C378 N377 1.358 . S
C378 H384 0.930 . S
C379 N377 1.400 . S
C379 C380 1.351 . S
C379 H396 0.930 . S
C380 N376 1.389 . S
C380 C379 1.351 . S
C380 H385 0.930 . S
O381 Cu375 1.974 . S
O381 C391 1.282 . S
C382 O383 1.261 . S
C382 O395 1.251 . S
O383 C382 1.261 . S
H384 C378 0.930 . S
H385 C380 0.930 . S
N386 Cu375 1.985 1_556 S
N386 C388 1.335 . S
N386 C389 1.390 . S
N387 C388 1.345 . S
N387 C390 1.336 . S
C388 N386 1.335 . S
C388 N387 1.345 . S
C388 H393 0.930 . S
C389 N386 1.390 . S
C389 C390 1.346 . S
C389 H394 0.930 1_556 S
C390 N387 1.336 . S
C390 C389 1.346 . S
C390 H397 0.929 . S
C391 O381 1.282 . S
C391 O392 1.216 . S
O392 C391 1.216 . S
H393 C388 0.930 . S
H394 C389 0.930 1_554 S
O395 Cu375 1.959 1_556 S
O395 C382 1.251 . S
H396 C379 0.930 . S
H397 C390 0.929 . S
Cu398 N399 1.999 . S
Cu398 O404 1.974 . S
Cu398 N409 1.985 . S
Cu398 O418 1.959 . S
N399 Cu398 1.999 . S
N399 C401 1.263 . S
N399 C403 1.389 . S
N400 C401 1.358 1_556 S
N400 C402 1.400 1_556 S
C401 N399 1.263 . S
C401 N400 1.358 1_554 S
C401 H407 0.930 1_554 S
C402 N400 1.400 1_554 S
C402 C403 1.351 . S
C402 H419 0.930 . S
C403 N399 1.389 . S
C403 C402 1.351 . S
C403 H408 0.930 . S
O404 Cu398 1.974 . S
O404 C414 1.296 . S
C405 O406 1.261 . S
C405 O418 1.251 . S
O406 C405 1.261 . S
H407 C401 0.930 1_556 S
H408 C403 0.930 . S
N409 Cu398 1.985 . S
N409 C411 1.335 . S
N409 C412 1.390 . S
N410 C411 1.345 . S
N410 C413 1.336 . S
C411 N409 1.335 . S
C411 N410 1.345 . S
C411 H416 0.930 . S
C412 N409 1.390 . S
C412 C413 1.346 . S
C412 H417 0.930 . S
C413 N410 1.336 . S
C413 C412 1.346 . S
C413 H420 0.929 . S
C414 O404 1.296 . S
C414 O415 1.224 . S
O415 C414 1.224 . S
H416 C411 0.930 . S
H417 C412 0.930 . S
O418 Cu398 1.959 . S
O418 C405 1.251 . S
H419 C402 0.930 . S
H420 C413 0.929 . S
Cu421 N422 1.999 1_556 S
Cu421 O427 1.974 1_556 S
Cu421 N432 1.985 . S
Cu421 O441 1.959 . S
N422 Cu421 1.999 1_554 S
N422 C424 1.263 . S
N422 C426 1.389 . S
N423 C424 1.358 . S
N423 C425 1.400 . S
C424 N422 1.263 . S
C424 N423 1.358 . S
C424 H430 0.930 . S
C425 N423 1.400 . S
C425 C426 1.351 . S
C425 H442 0.930 . S
C426 N422 1.389 . S
C426 C425 1.351 . S
C426 H431 0.930 . S
O427 Cu421 1.974 1_554 S
O427 C437 1.282 . S
C428 O429 1.261 . S
C428 O441 1.251 . S
O429 C428 1.261 . S
H430 C424 0.930 . S
H431 C426 0.930 . S
N432 Cu421 1.985 . S
N432 C434 1.335 . S
N432 C435 1.390 . S
N433 C434 1.345 . S
N433 C436 1.336 . S
C434 N432 1.335 . S
C434 N433 1.345 . S
C434 H439 0.930 . S
C435 N432 1.390 . S
C435 C436 1.346 . S
C435 H440 0.930 . S
C436 N433 1.336 . S
C436 C435 1.346 . S
C436 H443 0.929 . S
C437 O427 1.282 . S
C437 O438 1.216 . S
O438 C437 1.216 . S
H439 C434 0.930 . S
H440 C435 0.930 . S
O441 Cu421 1.959 . S
O441 C428 1.251 . S
H442 C425 0.930 . S
H443 C436 0.929 . S
Cu444 N445 1.999 . S
Cu444 O450 1.974 . S
Cu444 N455 1.985 1_455 S
Cu444 O464 1.959 1_455 S
N445 Cu444 1.999 . S
N445 C447 1.263 . S
N445 C449 1.389 . S
N446 C447 1.358 . S
N446 C448 1.400 . S
C447 N445 1.263 . S
C447 N446 1.358 . S
C447 H453 0.930 . S
C448 N446 1.400 . S
C448 C449 1.351 . S
C448 H465 0.930 . S
C449 N445 1.389 . S
C449 C448 1.351 . S
C449 H454 0.930 . S
O450 Cu444 1.974 . S
O450 C460 1.282 . S
C451 O452 1.261 . S
C451 O464 1.251 . S
O452 C451 1.261 . S
H453 C447 0.930 . S
H454 C449 0.930 . S
N455 Cu444 1.985 1_655 S
N455 C457 1.335 . S
N455 C458 1.390 . S
N456 C457 1.345 . S
N456 C459 1.336 . S
C457 N455 1.335 . S
C457 N456 1.345 . S
C457 H462 0.930 . S
C458 N455 1.390 . S
C458 C459 1.346 . S
C458 H463 0.930 1_655 S
C459 N456 1.336 . S
C459 C458 1.346 . S
C459 H466 0.929 . S
C460 O450 1.282 . S
C460 O461 1.216 . S
O461 C460 1.216 . S
H462 C457 0.930 . S
H463 C458 0.930 1_455 S
O464 Cu444 1.959 1_655 S
O464 C451 1.251 . S
H465 C448 0.930 . S
H466 C459 0.929 . S
Cu467 N468 2.010 . S
Cu467 O473 1.987 . S
Cu467 N478 1.975 1_545 S
Cu467 O487 1.946 1_545 S
N468 Cu467 2.010 . S
N468 C470 1.263 . S
N468 C472 1.389 . S
N469 C470 1.358 . S
N469 C471 1.400 . S
C470 N468 1.263 . S
C470 N469 1.358 . S
C470 H476 0.930 . S
C471 N469 1.400 . S
C471 C472 1.351 . S
C471 H488 0.930 . S
C472 N468 1.389 . S
C472 C471 1.351 . S
C472 H477 0.930 . S
O473 Cu467 1.987 . S
O473 C483 1.282 . S
C474 O475 1.261 . S
C474 O487 1.251 . S
O475 C474 1.261 . S
H476 C470 0.930 . S
H477 C472 0.930 . S
N478 Cu467 1.975 1_565 S
N478 C480 1.335 . S
N478 C481 1.390 . S
N479 C480 1.345 . S
N479 C482 1.336 . S
C480 N478 1.335 . S
C480 N479 1.345 . S
C480 H485 0.930 . S
C481 N478 1.390 . S
C481 C482 1.346 . S
C481 H486 0.930 1_565 S
C482 N479 1.336 . S
C482 C481 1.346 . S
C482 H489 0.929 . S
C483 O473 1.282 . S
C483 O484 1.216 . S
O484 C483 1.216 . S
H485 C480 0.930 . S
H486 C481 0.930 1_545 S
O487 Cu467 1.946 1_565 S
O487 C474 1.251 . S
H488 C471 0.930 . S
H489 C482 0.929 . S
Cu490 N491 1.999 . S
Cu490 O496 1.974 . S
Cu490 N501 1.985 . S
Cu490 O510 1.959 . S
N491 Cu490 1.999 . S
N491 C493 1.263 . S
N491 C495 1.389 . S
N492 C493 1.358 1_655 S
N492 C494 1.400 1_655 S
C493 N491 1.263 . S
C493 N492 1.358 1_455 S
C493 H499 0.930 1_455 S
C494 N492 1.400 1_455 S
C494 C495 1.351 . S
C494 H511 0.930 . S
C495 N491 1.389 . S
C495 C494 1.351 . S
C495 H500 0.930 . S
O496 Cu490 1.974 . S
O496 C506 1.282 . S
C497 O498 1.261 . S
C497 O510 1.251 . S
O498 C497 1.261 . S
H499 C493 0.930 1_655 S
H500 C495 0.930 . S
N501 Cu490 1.985 . S
N501 C503 1.335 . S
N501 C504 1.390 . S
N502 C503 1.345 . S
N502 C505 1.336 . S
C503 N501 1.335 . S
C503 N502 1.345 . S
C503 H508 0.930 . S
C504 N501 1.390 . S
C504 C505 1.346 . S
C504 H509 0.930 . S
C505 N502 1.336 . S
C505 C504 1.346 . S
C505 H512 0.929 . S
C506 O496 1.282 . S
C506 O507 1.216 . S
O507 C506 1.216 . S
H508 C503 0.930 . S
H509 C504 0.930 . S
O510 Cu490 1.959 . S
O510 C497 1.251 . S
H511 C494 0.930 . S
H512 C505 0.929 . S
Cu513 N514 2.003 1_565 S
Cu513 O519 1.978 1_565 S
Cu513 N524 1.982 . S
Cu513 O533 1.955 . S
N514 Cu513 2.003 1_545 S
N514 C516 1.263 . S
N514 C518 1.389 . S
N515 C516 1.358 . S
N515 C517 1.400 . S
C516 N514 1.263 . S
C516 N515 1.358 . S
C516 H522 0.930 . S
C517 N515 1.400 . S
C517 C518 1.351 . S
C517 H534 0.930 . S
C518 N514 1.389 . S
C518 C517 1.351 . S
C518 H523 0.930 . S
O519 Cu513 1.978 1_545 S
O519 C529 1.282 . S
C520 O521 1.261 . S
C520 O533 1.251 . S
O521 C520 1.261 . S
H522 C516 0.930 . S
H523 C518 0.930 . S
N524 Cu513 1.982 . S
N524 C526 1.335 . S
N524 C527 1.390 . S
N525 C526 1.345 . S
N525 C528 1.336 . S
C526 N524 1.335 . S
C526 N525 1.345 . S
C526 H531 0.930 . S
C527 N524 1.390 . S
C527 C528 1.346 . S
C527 H532 0.930 . S
C528 N525 1.336 . S
C528 C527 1.346 . S
C528 H535 0.929 . S
C529 O519 1.282 . S
C529 O530 1.216 . S
O530 C529 1.216 . S
H531 C526 0.930 . S
H532 C527 0.930 . S
O533 Cu513 1.955 . S
O533 C520 1.251 . S
H534 C517 0.930 . S
H535 C528 0.929 . S
Cu536 N537 1.999 . S
Cu536 O542 1.974 . S
Cu536 N547 1.985 1_455 S
Cu536 O556 1.959 1_455 S
N537 Cu536 1.999 . S
N537 C539 1.263 . S
N537 C541 1.389 . S
N538 C539 1.358 . S
N538 C540 1.400 . S
C539 N537 1.263 . S
C539 N538 1.358 . S
C539 H545 0.930 . S
C540 N538 1.400 . S
C540 C541 1.351 . S
C540 H557 0.930 . S
C541 N537 1.389 . S
C541 C540 1.351 . S
C541 H546 0.930 . S
O542 Cu536 1.974 . S
O542 C552 1.282 . S
C543 O544 1.261 . S
C543 O556 1.251 . S
O544 C543 1.261 . S
H545 C539 0.930 . S
H546 C541 0.930 . S
N547 Cu536 1.985 1_655 S
N547 C549 1.335 . S
N547 C550 1.390 . S
N548 C549 1.345 . S
N548 C551 1.336 . S
C549 N547 1.335 . S
C549 N548 1.345 . S
C549 H554 0.930 . S
C550 N547 1.390 . S
C550 C551 1.346 . S
C550 H555 0.930 1_655 S
C551 N548 1.336 . S
C551 C550 1.346 . S
C551 H558 0.929 . S
C552 O542 1.282 . S
C552 O553 1.216 . S
O553 C552 1.216 . S
H554 C549 0.930 . S
H555 C550 0.930 1_455 S
O556 Cu536 1.959 1_655 S
O556 C543 1.251 . S
H557 C540 0.930 . S
H558 C551 0.929 . S
Cu559 N560 1.999 . S
Cu559 O565 1.974 . S
Cu559 N570 1.985 1_545 S
Cu559 O579 1.959 1_545 S
N560 Cu559 1.999 . S
N560 C562 1.263 . S
N560 C564 1.389 . S
N561 C562 1.358 . S
N561 C563 1.400 . S
C562 N560 1.263 . S
C562 N561 1.358 . S
C562 H568 0.930 . S
C563 N561 1.400 . S
C563 C564 1.351 . S
C563 H580 0.930 . S
C564 N560 1.389 . S
C564 C563 1.351 . S
C564 H569 0.930 . S
O565 Cu559 1.974 . S
O565 C575 1.282 . S
C566 O567 1.261 . S
C566 O579 1.251 . S
O567 C566 1.261 . S
H568 C562 0.930 . S
H569 C564 0.930 . S
N570 Cu559 1.985 1_565 S
N570 C572 1.335 . S
N570 C573 1.390 . S
N571 C572 1.345 . S
N571 C574 1.336 . S
C572 N570 1.335 . S
C572 N571 1.345 . S
C572 H577 0.930 . S
C573 N570 1.390 . S
C573 C574 1.346 . S
C573 H578 0.930 1_565 S
C574 N571 1.336 . S
C574 C573 1.346 . S
C574 H581 0.929 . S
C575 O565 1.282 . S
C575 O576 1.216 . S
O576 C575 1.216 . S
H577 C572 0.930 . S
H578 C573 0.930 1_545 S
O579 Cu559 1.959 1_565 S
O579 C566 1.251 . S
H580 C563 0.930 . S
H581 C574 0.929 . S
Cu582 N583 1.999 . S
Cu582 O588 1.974 . S
Cu582 N593 1.985 . S
Cu582 O602 1.959 . S
N583 Cu582 1.999 . S
N583 C585 1.263 . S
N583 C587 1.389 . S
N584 C585 1.358 . S
N584 C586 1.400 . S
C585 N583 1.263 . S
C585 N584 1.358 . S
C585 H591 0.930 . S
C586 N584 1.400 . S
C586 C587 1.351 . S
C586 H603 0.930 . S
C587 N583 1.389 . S
C587 C586 1.351 . S
C587 H592 0.930 . S
O588 Cu582 1.974 . S
O588 C598 1.282 . S
C589 O590 1.261 . S
C589 O602 1.251 . S
O590 C589 1.261 . S
H591 C585 0.930 . S
H592 C587 0.930 . S
N593 Cu582 1.985 . S
N593 C595 1.335 . S
N593 C596 1.390 . S
N594 C595 1.345 . S
N594 C597 1.336 . S
C595 N593 1.335 . S
C595 N594 1.345 . S
C595 H600 0.930 . S
C596 N593 1.390 . S
C596 C597 1.346 . S
C596 H601 0.930 . S
C597 N594 1.336 . S
C597 C596 1.346 . S
C597 H604 0.929 . S
C598 O588 1.282 . S
C598 O599 1.216 . S
O599 C598 1.216 . S
H600 C595 0.930 . S
H601 C596 0.930 . S
O602 Cu582 1.959 . S
O602 C589 1.251 . S
H603 C586 0.930 . S
H604 C597 0.929 . S
Cu605 N606 1.999 . S
Cu605 O611 1.974 . S
Cu605 N616 1.985 . S
Cu605 O625 1.959 . S
N606 Cu605 1.999 . S
N606 C608 1.263 . S
N606 C610 1.389 . S
N607 C608 1.358 . S
N607 C609 1.400 . S
C608 N606 1.263 . S
C608 N607 1.358 . S
C608 H614 0.930 . S
C609 N607 1.400 . S
C609 C610 1.351 . S
C609 H626 0.930 . S
C610 N606 1.389 . S
C610 C609 1.351 . S
C610 H615 0.930 . S
O611 Cu605 1.974 . S
O611 C621 1.282 . S
C612 O613 1.261 . S
C612 O625 1.251 . S
O613 C612 1.261 . S
H614 C608 0.930 . S
H615 C610 0.930 . S
N616 Cu605 1.985 . S
N616 C618 1.335 1_545 S
N616 C619 1.390 . S
N617 C618 1.345 . S
N617 C620 1.336 . S
C618 N616 1.335 1_565 S
C618 N617 1.345 . S
C618 H623 0.930 . S
C619 N616 1.390 . S
C619 C620 1.346 1_545 S
C619 H624 0.930 . S
C620 N617 1.336 . S
C620 C619 1.346 1_565 S
C620 H627 0.929 . S
C621 O611 1.282 . S
C621 O622 1.216 . S
O622 C621 1.216 . S
H623 C618 0.930 . S
H624 C619 0.930 . S
O625 Cu605 1.959 . S
O625 C612 1.251 . S
H626 C609 0.930 . S
H627 C620 0.929 . S
Cu628 N629 1.999 . S
Cu628 O634 1.974 . S
Cu628 N639 1.985 . S
Cu628 O648 1.959 . S
N629 Cu628 1.999 . S
N629 C631 1.263 . S
N629 C633 1.389 . S
N630 C631 1.358 . S
N630 C632 1.400 . S
C631 N629 1.263 . S
C631 N630 1.358 . S
C631 H637 0.930 . S
C632 N630 1.400 . S
C632 C633 1.351 . S
C632 H649 0.930 . S
C633 N629 1.389 . S
C633 C632 1.351 . S
C633 H638 0.930 . S
O634 Cu628 1.974 . S
O634 C644 1.282 . S
C635 O636 1.261 . S
C635 O648 1.251 . S
O636 C635 1.261 . S
H637 C631 0.930 . S
H638 C633 0.930 . S
N639 Cu628 1.985 . S
N639 C641 1.335 . S
N639 C642 1.390 . S
N640 C641 1.345 . S
N640 C643 1.336 . S
C641 N639 1.335 . S
C641 N640 1.345 . S
C641 H646 0.930 . S
C642 N639 1.390 . S
C642 C643 1.346 . S
C642 H647 0.930 . S
C643 N640 1.336 . S
C643 C642 1.346 . S
C643 H650 0.929 . S
C644 O634 1.282 . S
C644 O645 1.216 . S
O645 C644 1.216 . S
H646 C641 0.930 . S
H647 C642 0.930 . S
O648 Cu628 1.959 . S
O648 C635 1.251 . S
H649 C632 0.930 . S
H650 C643 0.929 . S
Cu651 N652 1.999 . S
Cu651 O657 1.974 . S
Cu651 N662 1.985 . S
Cu651 O671 1.959 . S
N652 Cu651 1.999 . S
N652 C654 1.263 . S
N652 C656 1.389 . S
N653 C654 1.358 . S
N653 C655 1.400 . S
C654 N652 1.263 . S
C654 N653 1.358 . S
C654 H660 0.930 . S
C655 N653 1.400 . S
C655 C656 1.351 . S
C655 H672 0.930 . S
C656 N652 1.389 . S
C656 C655 1.351 . S
C656 H661 0.930 . S
O657 Cu651 1.974 . S
O657 C667 1.282 . S
C658 O659 1.261 . S
C658 O671 1.251 . S
O659 C658 1.261 . S
H660 C654 0.930 . S
H661 C656 0.930 . S
N662 Cu651 1.985 . S
N662 C664 1.335 . S
N662 C665 1.390 . S
N663 C664 1.345 . S
N663 C666 1.336 . S
C664 N662 1.335 . S
C664 N663 1.345 . S
C664 H669 0.930 . S
C665 N662 1.390 . S
C665 C666 1.346 . S
C665 H670 0.930 . S
C666 N663 1.336 . S
C666 C665 1.346 . S
C666 H673 0.929 . S
C667 O657 1.282 . S
C667 O668 1.216 . S
O668 C667 1.216 . S
H669 C664 0.930 . S
H670 C665 0.930 . S
O671 Cu651 1.959 . S
O671 C658 1.251 . S
H672 C655 0.930 . S
H673 C666 0.929 . S
Cu674 N675 1.999 . S
Cu674 O680 1.974 . S
Cu674 N685 1.985 . S
Cu674 O694 1.959 . S
N675 Cu674 1.999 . S
N675 C677 1.263 . S
N675 C679 1.389 . S
N676 C677 1.358 . S
N676 C678 1.400 . S
C677 N675 1.263 . S
C677 N676 1.358 . S
C677 H683 0.930 . S
C678 N676 1.400 . S
C678 C679 1.351 . S
C678 H695 0.930 . S
C679 N675 1.389 . S
C679 C678 1.351 . S
C679 H684 0.930 . S
O680 Cu674 1.974 . S
O680 C690 1.282 . S
C681 O682 1.261 . S
C681 O694 1.251 . S
O682 C681 1.261 . S
H683 C677 0.930 . S
H684 C679 0.930 . S
N685 Cu674 1.985 . S
N685 C687 1.335 . S
N685 C688 1.390 . S
N686 C687 1.345 . S
N686 C689 1.336 . S
C687 N685 1.335 . S
C687 N686 1.345 . S
C687 H692 0.930 . S
C688 N685 1.390 . S
C688 C689 1.346 . S
C688 H693 0.930 . S
C689 N686 1.336 . S
C689 C688 1.346 . S
C689 H696 0.929 . S
C690 O680 1.282 . S
C690 O691 1.216 . S
O691 C690 1.216 . S
H692 C687 0.930 . S
H693 C688 0.930 . S
O694 Cu674 1.959 . S
O694 C681 1.251 . S
H695 C678 0.930 . S
H696 C689 0.929 . S
Cu697 N698 1.999 . S
Cu697 O703 1.974 . S
Cu697 N708 1.985 . S
Cu697 O717 1.959 . S
N698 Cu697 1.999 . S
N698 C700 1.263 . S
N698 C702 1.389 . S
N699 C700 1.358 . S
N699 C701 1.400 . S
C700 N698 1.263 . S
C700 N699 1.358 . S
C700 H706 0.930 . S
C701 N699 1.400 . S
C701 C702 1.351 . S
C701 H718 0.930 . S
C702 N698 1.389 . S
C702 C701 1.351 . S
C702 H707 0.930 . S
O703 Cu697 1.974 . S
O703 C713 1.282 . S
C704 O705 1.261 . S
C704 O717 1.251 . S
O705 C704 1.261 . S
H706 C700 0.930 . S
H707 C702 0.930 . S
N708 Cu697 1.985 . S
N708 C710 1.335 . S
N708 C711 1.390 . S
N709 C710 1.345 . S
N709 C712 1.336 . S
C710 N708 1.335 . S
C710 N709 1.345 . S
C710 H715 0.930 . S
C711 N708 1.390 . S
C711 C712 1.346 . S
C711 H716 0.930 . S
C712 N709 1.336 . S
C712 C711 1.346 . S
C712 H719 0.929 . S
C713 O703 1.282 . S
C713 O714 1.216 . S
O714 C713 1.216 . S
H715 C710 0.930 . S
H716 C711 0.930 . S
O717 Cu697 1.959 . S
O717 C704 1.251 . S
H718 C701 0.930 . S
H719 C712 0.929 . S
Cu720 N721 1.999 . S
Cu720 O726 1.974 . S
Cu720 N731 1.985 . S
Cu720 O740 1.959 . S
N721 Cu720 1.999 . S
N721 C723 1.263 . S
N721 C725 1.389 . S
N722 C723 1.358 . S
N722 C724 1.400 . S
C723 N721 1.263 . S
C723 N722 1.358 . S
C723 H729 0.930 . S
C724 N722 1.400 . S
C724 C725 1.351 . S
C724 H741 0.930 . S
C725 N721 1.389 . S
C725 C724 1.351 . S
C725 H730 0.930 . S
O726 Cu720 1.974 . S
O726 C736 1.282 . S
C727 O728 1.261 . S
C727 O740 1.251 . S
O728 C727 1.261 . S
H729 C723 0.930 . S
H730 C725 0.930 . S
N731 Cu720 1.985 . S
N731 C733 1.335 . S
N731 C734 1.390 . S
N732 C733 1.345 . S
N732 C735 1.336 . S
C733 N731 1.335 . S
C733 N732 1.345 . S
C733 H738 0.930 . S
C734 N731 1.390 . S
C734 C735 1.346 . S
C734 H739 0.930 . S
C735 N732 1.336 . S
C735 C734 1.346 . S
C735 H742 0.929 . S
C736 O726 1.282 . S
C736 O737 1.216 . S
O737 C736 1.216 . S
H738 C733 0.930 . S
H739 C734 0.930 . S
O740 Cu720 1.959 . S
O740 C727 1.251 . S
H741 C724 0.930 . S
H742 C735 0.929 . S
Cu743 N744 1.999 . S
Cu743 O749 1.974 . S
Cu743 N754 1.985 . S
Cu743 O763 1.959 . S
N744 Cu743 1.999 . S
N744 C746 1.263 . S
N744 C748 1.389 . S
N745 C746 1.358 . S
N745 C747 1.400 . S
C746 N744 1.263 . S
C746 N745 1.358 . S
C746 H752 0.930 . S
C747 N745 1.400 . S
C747 C748 1.351 . S
C747 H764 0.930 . S
C748 N744 1.389 . S
C748 C747 1.351 . S
C748 H753 0.930 . S
O749 Cu743 1.974 . S
O749 C759 1.282 . S
C750 O751 1.261 . S
C750 O763 1.251 . S
O751 C750 1.261 . S
H752 C746 0.930 . S
H753 C748 0.930 . S
N754 Cu743 1.985 . S
N754 C756 1.335 . S
N754 C757 1.390 . S
N755 C756 1.345 . S
N755 C758 1.336 . S
C756 N754 1.335 . S
C756 N755 1.345 . S
C756 H761 0.930 . S
C757 N754 1.390 . S
C757 C758 1.346 . S
C757 H762 0.930 . S
C758 N755 1.336 . S
C758 C757 1.346 . S
C758 H765 0.929 . S
C759 O749 1.282 . S
C759 O760 1.216 . S
O760 C759 1.216 . S
H761 C756 0.930 . S
H762 C757 0.930 . S
O763 Cu743 1.959 . S
O763 C750 1.251 . S
H764 C747 0.930 . S
H765 C758 0.929 . S
Cu766 N767 1.999 . S
Cu766 O772 1.974 . S
Cu766 N777 1.985 . S
Cu766 O786 1.959 . S
N767 Cu766 1.999 . S
N767 C769 1.263 . S
N767 C771 1.389 . S
N768 C769 1.358 . S
N768 C770 1.400 . S
C769 N767 1.263 . S
C769 N768 1.358 . S
C769 H775 0.930 . S
C770 N768 1.400 . S
C770 C771 1.351 . S
C770 H787 0.930 . S
C771 N767 1.389 . S
C771 C770 1.351 . S
C771 H776 0.930 . S
O772 Cu766 1.974 . S
O772 C782 1.282 . S
C773 O774 1.261 . S
C773 O786 1.251 . S
O774 C773 1.261 . S
H775 C769 0.930 . S
H776 C771 0.930 . S
N777 Cu766 1.985 . S
N777 C779 1.335 . S
N777 C780 1.390 . S
N778 C779 1.345 . S
N778 C781 1.336 . S
C779 N777 1.335 . S
C779 N778 1.345 . S
C779 H784 0.930 . S
C780 N777 1.390 . S
C780 C781 1.346 . S
C780 H785 0.930 . S
C781 N778 1.336 . S
C781 C780 1.346 . S
C781 H788 0.929 . S
C782 O772 1.282 . S
C782 O783 1.216 . S
O783 C782 1.216 . S
H784 C779 0.930 . S
H785 C780 0.930 . S
O786 Cu766 1.959 . S
O786 C773 1.251 . S
H787 C770 0.930 . S
H788 C781 0.929 . S
Cu789 N790 1.999 . S
Cu789 O795 1.974 . S
Cu789 N800 1.985 . S
Cu789 O809 1.959 . S
N790 Cu789 1.999 . S
N790 C792 1.263 . S
N790 C794 1.389 . S
N791 C792 1.358 . S
N791 C793 1.400 . S
C792 N790 1.263 . S
C792 N791 1.358 . S
C792 H798 0.930 . S
C793 N791 1.400 . S
C793 C794 1.351 . S
C793 H810 0.930 . S
C794 N790 1.389 . S
C794 C793 1.351 . S
C794 H799 0.930 . S
O795 Cu789 1.974 . S
O795 C805 1.282 . S
C796 O797 1.261 . S
C796 O809 1.251 . S
O797 C796 1.261 . S
H798 C792 0.930 . S
H799 C794 0.930 . S
N800 Cu789 1.985 . S
N800 C802 1.335 . S
N800 C803 1.390 . S
N801 C802 1.345 . S
N801 C804 1.336 . S
C802 N800 1.335 . S
C802 N801 1.345 . S
C802 H807 0.930 . S
C803 N800 1.390 . S
C803 C804 1.346 . S
C803 H808 0.930 . S
C804 N801 1.336 . S
C804 C803 1.346 . S
C804 H811 0.929 . S
C805 O795 1.282 . S
C805 O806 1.216 . S
O806 C805 1.216 . S
H807 C802 0.930 . S
H808 C803 0.930 . S
O809 Cu789 1.959 . S
O809 C796 1.251 . S
H810 C793 0.930 . S
H811 C804 0.929 . S
Cu812 N813 1.999 . S
Cu812 O818 1.974 . S
Cu812 N823 1.985 . S
Cu812 O832 1.959 . S
N813 Cu812 1.999 . S
N813 C815 1.263 . S
N813 C817 1.389 . S
N814 C815 1.358 . S
N814 C816 1.400 . S
C815 N813 1.263 . S
C815 N814 1.358 . S
C815 H821 0.930 . S
C816 N814 1.400 . S
C816 C817 1.351 . S
C816 H833 0.930 . S
C817 N813 1.389 . S
C817 C816 1.351 . S
C817 H822 0.930 . S
O818 Cu812 1.974 . S
O818 C828 1.282 . S
C819 O820 1.261 . S
C819 O832 1.251 . S
O820 C819 1.261 . S
H821 C815 0.930 . S
H822 C817 0.930 . S
N823 Cu812 1.985 . S
N823 C825 1.335 . S
N823 C826 1.390 . S
N824 C825 1.345 . S
N824 C827 1.336 . S
C825 N823 1.335 . S
C825 N824 1.345 . S
C825 H830 0.930 . S
C826 N823 1.390 . S
C826 C827 1.346 . S
C826 H831 0.930 . S
C827 N824 1.336 . S
C827 C826 1.346 . S
C827 H834 0.929 . S
C828 O818 1.282 . S
C828 O829 1.216 . S
O829 C828 1.216 . S
H830 C825 0.930 . S
H831 C826 0.930 . S
O832 Cu812 1.959 . S
O832 C819 1.251 . S
H833 C816 0.930 . S
H834 C827 0.929 . S
Cu835 N836 1.999 . S
Cu835 O841 1.974 . S
Cu835 N846 1.985 . S
Cu835 O855 1.959 . S
N836 Cu835 1.999 . S
N836 C838 1.263 . S
N836 C840 1.389 . S
N837 C838 1.358 . S
N837 C839 1.400 . S
C838 N836 1.263 . S
C838 N837 1.358 . S
C838 H844 0.930 . S
C839 N837 1.400 . S
C839 C840 1.351 . S
C839 H856 0.930 . S
C840 N836 1.389 . S
C840 C839 1.351 . S
C840 H845 0.930 . S
O841 Cu835 1.974 . S
O841 C851 1.282 . S
C842 O843 1.261 . S
C842 O855 1.251 . S
O843 C842 1.261 . S
H844 C838 0.930 . S
H845 C840 0.930 . S
N846 Cu835 1.985 . S
N846 C848 1.335 . S
N846 C849 1.390 . S
N847 C848 1.345 . S
N847 C850 1.336 . S
C848 N846 1.335 . S
C848 N847 1.345 . S
C848 H853 0.930 . S
C849 N846 1.390 . S
C849 C850 1.346 . S
C849 H854 0.930 . S
C850 N847 1.336 . S
C850 C849 1.346 . S
C850 H857 0.929 . S
C851 O841 1.282 . S
C851 O852 1.216 . S
O852 C851 1.216 . S
H853 C848 0.930 . S
H854 C849 0.930 . S
O855 Cu835 1.959 . S
O855 C842 1.251 . S
H856 C839 0.930 . S
H857 C850 0.929 . S
Cu858 N859 1.999 . S
Cu858 O864 1.974 . S
Cu858 N869 1.985 . S
Cu858 O878 1.959 . S
N859 Cu858 1.999 . S
N859 C861 1.263 . S
N859 C863 1.389 . S
N860 C861 1.358 . S
N860 C862 1.400 . S
C861 N859 1.263 . S
C861 N860 1.358 . S
C861 H867 0.930 . S
C862 N860 1.400 . S
C862 C863 1.351 . S
C862 H879 0.930 . S
C863 N859 1.389 . S
C863 C862 1.351 . S
C863 H868 0.930 . S
O864 Cu858 1.974 . S
O864 C874 1.282 . S
C865 O866 1.261 . S
C865 O878 1.251 . S
O866 C865 1.261 . S
H867 C861 0.930 . S
H868 C863 0.930 . S
N869 Cu858 1.985 . S
N869 C871 1.335 . S
N869 C872 1.390 . S
N870 C871 1.345 . S
N870 C873 1.336 . S
C871 N869 1.335 . S
C871 N870 1.345 . S
C871 H876 0.930 . S
C872 N869 1.390 . S
C872 C873 1.346 . S
C872 H877 0.930 . S
C873 N870 1.336 . S
C873 C872 1.346 . S
C873 H880 0.929 . S
C874 O864 1.282 . S
C874 O875 1.216 . S
O875 C874 1.216 . S
H876 C871 0.930 . S
H877 C872 0.930 . S
O878 Cu858 1.959 . S
O878 C865 1.251 . S
H879 C862 0.930 . S
H880 C873 0.929 . S
Cu881 N882 1.999 . S
Cu881 O887 1.974 . S
Cu881 N892 1.985 . S
Cu881 O901 1.959 . S
N882 Cu881 1.999 . S
N882 C884 1.263 . S
N882 C886 1.389 . S
N883 C884 1.358 . S
N883 C885 1.400 . S
C884 N882 1.263 . S
C884 N883 1.358 . S
C884 H890 0.930 . S
C885 N883 1.400 . S
C885 C886 1.351 . S
C885 H902 0.930 . S
C886 N882 1.389 . S
C886 C885 1.351 . S
C886 H891 0.930 . S
O887 Cu881 1.974 . S
O887 C897 1.282 . S
C888 O889 1.261 . S
C888 O901 1.251 . S
O889 C888 1.261 . S
H890 C884 0.930 . S
H891 C886 0.930 . S
N892 Cu881 1.985 . S
N892 C894 1.335 . S
N892 C895 1.390 . S
N893 C894 1.345 . S
N893 C896 1.336 . S
C894 N892 1.335 . S
C894 N893 1.345 . S
C894 H899 0.930 . S
C895 N892 1.390 . S
C895 C896 1.346 . S
C895 H900 0.930 . S
C896 N893 1.336 . S
C896 C895 1.346 . S
C896 H903 0.929 . S
C897 O887 1.282 . S
C897 O898 1.216 . S
O898 C897 1.216 . S
H899 C894 0.930 . S
H900 C895 0.930 . S
O901 Cu881 1.959 . S
O901 C888 1.251 . S
H902 C885 0.930 . S
H903 C896 0.929 . S
C904 C905 1.369 . S
C904 C906 1.419 . S
C904 H908 0.930 . S
C905 C904 1.369 . S
C905 C914 1.429 . S
C906 C904 1.419 . S
C906 C907 1.363 . S
C906 H909 0.929 . S
C907 C906 1.363 . S
C907 C913 1.428 . S
H908 C904 0.930 . S
H909 C906 0.929 . S
S910 N911 1.613 . S
S910 N912 1.610 . S
N911 S910 1.613 . S
N911 C914 1.350 . S
N912 S910 1.610 . S
N912 C913 1.351 . S
C913 C907 1.428 . S
C913 N912 1.351 . S
C913 C914 1.434 . S
C914 C905 1.429 . S
C914 N911 1.350 . S
C914 C913 1.434 . S
C915 C916 1.369 . S
C915 C917 1.419 . S
C915 H919 0.930 . S
C916 C915 1.369 . S
C916 C925 1.429 . S
C917 C915 1.419 . S
C917 C918 1.363 . S
C917 H920 0.929 . S
C918 C917 1.363 . S
C918 C924 1.428 . S
H919 C915 0.930 . S
H920 C917 0.929 . S
S921 N922 1.613 . S
S921 N923 1.610 . S
N922 S921 1.613 . S
N922 C925 1.350 . S
N923 S921 1.610 . S
N923 C924 1.351 . S
C924 C918 1.428 . S
C924 N923 1.351 . S
C924 C925 1.434 . S
C925 C916 1.429 . S
C925 N922 1.350 . S
C925 C924 1.434 . S
C926 C927 1.369 . S
C926 C928 1.419 . S
C926 H930 0.930 . S
C927 C926 1.369 . S
C927 C936 1.429 . S
C928 C926 1.419 . S
C928 C929 1.363 . S
C928 H931 0.929 . S
C929 C928 1.363 . S
C929 C935 1.428 . S
H930 C926 0.930 . S
H931 C928 0.929 . S
S932 N933 1.613 . S
S932 N934 1.610 . S
N933 S932 1.613 . S
N933 C936 1.350 . S
N934 S932 1.610 . S
N934 C935 1.351 . S
C935 C929 1.428 . S
C935 N934 1.351 . S
C935 C936 1.434 . S
C936 C927 1.429 . S
C936 N933 1.350 . S
C936 C935 1.434 . S
C937 C938 1.369 . S
C937 C939 1.419 . S
C937 H941 0.930 . S
C938 C937 1.369 . S
C938 C947 1.429 . S
C939 C937 1.419 . S
C939 C940 1.363 . S
C939 H942 0.929 . S
C940 C939 1.363 . S
C940 C946 1.428 . S
H941 C937 0.930 . S
H942 C939 0.929 . S
S943 N944 1.613 . S
S943 N945 1.610 . S
N944 S943 1.613 . S
N944 C947 1.350 . S
N945 S943 1.610 . S
N945 C946 1.351 . S
C946 C940 1.428 . S
C946 N945 1.351 . S
C946 C947 1.434 . S
C947 C938 1.429 . S
C947 N944 1.350 . S
C947 C946 1.434 . S
C948 C949 1.369 . S
C948 C950 1.419 . S
C948 H952 0.930 . S
C949 C948 1.369 . S
C949 C958 1.429 . S
C950 C948 1.419 . S
C950 C951 1.363 . S
C950 H953 0.929 . S
C951 C950 1.363 . S
C951 C957 1.428 . S
H952 C948 0.930 . S
H953 C950 0.929 . S
S954 N955 1.613 . S
S954 N956 1.610 . S
N955 S954 1.613 . S
N955 C958 1.350 . S
N956 S954 1.610 . S
N956 C957 1.351 . S
C957 C951 1.428 . S
C957 N956 1.351 . S
C957 C958 1.434 . S
C958 C949 1.429 . S
C958 N955 1.350 . S
C958 C957 1.434 . S
C959 C960 1.369 . S
C959 C961 1.419 . S
C959 H963 0.930 . S
C960 C959 1.369 . S
C960 C969 1.429 . S
C961 C959 1.419 . S
C961 C962 1.363 . S
C961 H964 0.929 . S
C962 C961 1.363 . S
C962 C968 1.428 . S
H963 C959 0.930 . S
H964 C961 0.929 . S
S965 N966 1.613 . S
S965 N967 1.610 . S
N966 S965 1.613 . S
N966 C969 1.350 . S
N967 S965 1.610 . S
N967 C968 1.351 . S
C968 C962 1.428 . S
C968 N967 1.351 . S
C968 C969 1.434 . S
C969 C960 1.429 . S
C969 N966 1.350 . S
C969 C968 1.434 . S
C970 C971 1.369 . S
C970 C972 1.419 . S
C970 H974 0.930 . S
C971 C970 1.369 . S
C971 C980 1.429 . S
C972 C970 1.419 . S
C972 C973 1.363 . S
C972 H975 0.929 . S
C973 C972 1.363 . S
C973 C979 1.428 . S
H974 C970 0.930 . S
H975 C972 0.929 . S
S976 N977 1.613 . S
S976 N978 1.610 . S
N977 S976 1.613 . S
N977 C980 1.350 . S
N978 S976 1.610 . S
N978 C979 1.351 . S
C979 C973 1.428 . S
C979 N978 1.351 . S
C979 C980 1.434 . S
C980 C971 1.429 . S
C980 N977 1.350 . S
C980 C979 1.434 . S
C981 C982 1.369 . S
C981 C983 1.419 . S
C981 H985 0.930 . S
C982 C981 1.369 . S
C982 C991 1.429 . S
C983 C981 1.419 . S
C983 C984 1.363 . S
C983 H986 0.929 . S
C984 C983 1.363 . S
C984 C990 1.428 . S
H985 C981 0.930 . S
H986 C983 0.929 . S
S987 N988 1.613 . S
S987 N989 1.610 . S
N988 S987 1.613 . S
N988 C991 1.350 . S
N989 S987 1.610 . S
N989 C990 1.351 . S
C990 C984 1.428 . S
C990 N989 1.351 . S
C990 C991 1.434 . S
C991 C982 1.429 . S
C991 N988 1.350 . S
C991 C990 1.434 . S
C992 C993 1.369 . S
C992 C994 1.419 . S
C992 H996 0.930 . S
C993 C992 1.369 . S
C993 C1002 1.429 . S
C994 C992 1.419 . S
C994 C995 1.363 . S
C994 H997 0.929 . S
C995 C994 1.363 . S
C995 C1001 1.428 . S
H996 C992 0.930 . S
H997 C994 0.929 . S
S998 N999 1.613 . S
S998 N1000 1.610 . S
N999 S998 1.613 . S
N999 C1002 1.350 . S
N1000 S998 1.610 . S
N1000 C1001 1.351 . S
C1001 C995 1.428 . S
C1001 N1000 1.351 . S
C1001 C1002 1.434 . S
C1002 C993 1.429 . S
C1002 N999 1.350 . S
C1002 C1001 1.434 . S
C1003 C1004 1.369 . S
C1003 C1005 1.419 . S
C1003 H1007 0.930 . S
C1004 C1003 1.369 . S
C1004 C1013 1.429 . S
C1005 C1003 1.419 . S
C1005 C1006 1.363 . S
C1005 H1008 0.929 . S
C1006 C1005 1.363 . S
C1006 C1012 1.428 . S
H1007 C1003 0.930 . S
H1008 C1005 0.929 . S
S1009 N1010 1.613 . S
S1009 N1011 1.610 . S
N1010 S1009 1.613 . S
N1010 C1013 1.350 . S
N1011 S1009 1.610 . S
N1011 C1012 1.351 . S
C1012 C1006 1.428 . S
C1012 N1011 1.351 . S
C1012 C1013 1.434 . S
C1013 C1004 1.429 . S
C1013 N1010 1.350 . S
C1013 C1012 1.434 . S
C1014 C1015 1.369 . S
C1014 C1016 1.419 . S
C1014 H1018 0.930 . S
C1015 C1014 1.369 . S
C1015 C1024 1.429 . S
C1016 C1014 1.419 . S
C1016 C1017 1.363 . S
C1016 H1019 0.929 . S
C1017 C1016 1.363 . S
C1017 C1023 1.428 . S
H1018 C1014 0.930 . S
H1019 C1016 0.929 . S
S1020 N1021 1.613 . S
S1020 N1022 1.610 . S
N1021 S1020 1.613 . S
N1021 C1024 1.350 . S
N1022 S1020 1.610 . S
N1022 C1023 1.351 . S
C1023 C1017 1.428 . S
C1023 N1022 1.351 . S
C1023 C1024 1.434 . S
C1024 C1015 1.429 . S
C1024 N1021 1.350 . S
C1024 C1023 1.434 . S
C1025 C1026 1.369 . S
C1025 C1027 1.419 . S
C1025 H1029 0.930 . S
C1026 C1025 1.369 . S
C1026 C1035 1.429 . S
C1027 C1025 1.419 . S
C1027 C1028 1.363 . S
C1027 H1030 0.929 . S
C1028 C1027 1.363 . S
C1028 C1034 1.428 . S
H1029 C1025 0.930 . S
H1030 C1027 0.929 . S
S1031 N1032 1.613 . S
S1031 N1033 1.610 . S
N1032 S1031 1.613 . S
N1032 C1035 1.350 . S
N1033 S1031 1.610 . S
N1033 C1034 1.351 . S
C1034 C1028 1.428 . S
C1034 N1033 1.351 . S
C1034 C1035 1.434 . S
C1035 C1026 1.429 . S
C1035 N1032 1.350 . S
C1035 C1034 1.434 . S
C1036 C1037 1.369 . S
C1036 C1038 1.419 . S
C1036 H1040 0.930 . S
C1037 C1036 1.369 . S
C1037 C1046 1.429 . S
C1038 C1036 1.419 . S
C1038 C1039 1.363 . S
C1038 H1041 0.929 . S
C1039 C1038 1.363 . S
C1039 C1045 1.428 . S
H1040 C1036 0.930 . S
H1041 C1038 0.929 . S
S1042 N1043 1.613 . S
S1042 N1044 1.610 . S
N1043 S1042 1.613 . S
N1043 C1046 1.350 . S
N1044 S1042 1.610 . S
N1044 C1045 1.351 . S
C1045 C1039 1.428 . S
C1045 N1044 1.351 . S
C1045 C1046 1.434 . S
C1046 C1037 1.429 . S
C1046 N1043 1.350 . S
C1046 C1045 1.434 . S
C1047 C1048 1.369 . S
C1047 C1049 1.419 . S
C1047 H1051 0.930 . S
C1048 C1047 1.369 . S
C1048 C1057 1.429 . S
C1049 C1047 1.419 . S
C1049 C1050 1.363 . S
C1049 H1052 0.929 . S
C1050 C1049 1.363 . S
C1050 C1056 1.428 . S
H1051 C1047 0.930 . S
H1052 C1049 0.929 . S
S1053 N1054 1.613 . S
S1053 N1055 1.610 . S
N1054 S1053 1.613 . S
N1054 C1057 1.350 . S
N1055 S1053 1.610 . S
N1055 C1056 1.351 . S
C1056 C1050 1.428 . S
C1056 N1055 1.351 . S
C1056 C1057 1.434 . S
C1057 C1048 1.429 . S
C1057 N1054 1.350 . S
C1057 C1056 1.434 . S
C1058 C1059 1.369 . S
C1058 C1060 1.419 1_655 S
C1058 H1062 0.930 . S
C1059 C1058 1.369 . S
C1059 C1068 1.429 . S
C1060 C1058 1.419 1_455 S
C1060 C1061 1.363 . S
C1060 H1063 0.929 . S
C1061 C1060 1.363 . S
C1061 C1067 1.428 . S
H1062 C1058 0.930 . S
H1063 C1060 0.929 . S
S1064 N1065 1.613 1_455 S
S1064 N1066 1.610 . S
N1065 S1064 1.613 1_655 S
N1065 C1068 1.350 . S
N1066 S1064 1.610 . S
N1066 C1067 1.351 . S
C1067 C1061 1.428 . S
C1067 N1066 1.351 . S
C1067 C1068 1.434 1_455 S
C1068 C1059 1.429 . S
C1068 N1065 1.350 . S
C1068 C1067 1.434 1_655 S
C1069 C1070 1.369 . S
C1069 C1071 1.419 . S
C1069 H1073 0.930 . S
C1070 C1069 1.369 . S
C1070 C1079 1.429 . S
C1071 C1069 1.419 . S
C1071 C1072 1.363 . S
C1071 H1074 0.929 1_565 S
C1072 C1071 1.363 . S
C1072 C1078 1.428 . S
H1073 C1069 0.930 . S
H1074 C1071 0.929 1_545 S
S1075 N1076 1.613 . S
S1075 N1077 1.610 . S
N1076 S1075 1.613 . S
N1076 C1079 1.350 . S
N1077 S1075 1.610 . S
N1077 C1078 1.351 . S
C1078 C1072 1.428 . S
C1078 N1077 1.351 . S
C1078 C1079 1.434 . S
C1079 C1070 1.429 . S
C1079 N1076 1.350 . S
C1079 C1078 1.434 . S
C1080 C1081 1.369 . S
C1080 C1082 1.419 . S
C1080 H1084 0.930 . S
C1081 C1080 1.369 . S
C1081 C1090 1.429 . S
C1082 C1080 1.419 . S
C1082 C1083 1.363 . S
C1082 H1085 0.929 . S
C1083 C1082 1.363 . S
C1083 C1089 1.428 . S
H1084 C1080 0.930 . S
H1085 C1082 0.929 . S
S1086 N1087 1.613 . S
S1086 N1088 1.610 . S
N1087 S1086 1.613 . S
N1087 C1090 1.350 . S
N1088 S1086 1.610 . S
N1088 C1089 1.351 . S
C1089 C1083 1.428 . S
C1089 N1088 1.351 . S
C1089 C1090 1.434 . S
C1090 C1081 1.429 . S
C1090 N1087 1.350 . S
C1090 C1089 1.434 . S
C1091 C1092 1.369 . S
C1091 C1093 1.419 . S
C1091 H1095 0.930 . S
C1092 C1091 1.369 . S
C1092 C1101 1.429 . S
C1093 C1091 1.419 . S
C1093 C1094 1.363 . S
C1093 H1096 0.929 . S
C1094 C1093 1.363 . S
C1094 C1100 1.428 . S
H1095 C1091 0.930 . S
H1096 C1093 0.929 . S
S1097 N1098 1.613 . S
S1097 N1099 1.610 . S
N1098 S1097 1.613 . S
N1098 C1101 1.350 . S
N1099 S1097 1.610 . S
N1099 C1100 1.351 . S
C1100 C1094 1.428 . S
C1100 N1099 1.351 . S
C1100 C1101 1.434 . S
C1101 C1092 1.429 . S
C1101 N1098 1.350 . S
C1101 C1100 1.434 . S
C1102 C1103 1.369 . S
C1102 C1104 1.419 . S
C1102 H1106 0.930 . S
C1103 C1102 1.369 . S
C1103 C1112 1.429 . S
C1104 C1102 1.419 . S
C1104 C1105 1.363 . S
C1104 H1107 0.929 . S
C1105 C1104 1.363 . S
C1105 C1111 1.428 . S
H1106 C1102 0.930 . S
H1107 C1104 0.929 . S
S1108 N1109 1.613 . S
S1108 N1110 1.610 . S
N1109 S1108 1.613 . S
N1109 C1112 1.350 . S
N1110 S1108 1.610 . S
N1110 C1111 1.351 . S
C1111 C1105 1.428 . S
C1111 N1110 1.351 . S
C1111 C1112 1.434 . S
C1112 C1103 1.429 . S
C1112 N1109 1.350 . S
C1112 C1111 1.434 . S
C1113 C1114 1.369 . S
C1113 C1115 1.419 . S
C1113 H1117 0.930 . S
C1114 C1113 1.369 . S
C1114 C1123 1.429 . S
C1115 C1113 1.419 . S
C1115 C1116 1.363 . S
C1115 H1118 0.929 . S
C1116 C1115 1.363 . S
C1116 C1122 1.428 . S
H1117 C1113 0.930 . S
H1118 C1115 0.929 . S
S1119 N1120 1.613 . S
S1119 N1121 1.610 . S
N1120 S1119 1.613 . S
N1120 C1123 1.350 . S
N1121 S1119 1.610 . S
N1121 C1122 1.351 . S
C1122 C1116 1.428 . S
C1122 N1121 1.351 . S
C1122 C1123 1.434 . S
C1123 C1114 1.429 . S
C1123 N1120 1.350 . S
C1123 C1122 1.434 . S
C1124 C1125 1.369 . S
C1124 C1126 1.419 . S
C1124 H1128 0.930 . S
C1125 C1124 1.369 . S
C1125 C1134 1.429 . S
C1126 C1124 1.419 . S
C1126 C1127 1.363 . S
C1126 H1129 0.929 . S
C1127 C1126 1.363 . S
C1127 C1133 1.428 . S
H1128 C1124 0.930 . S
H1129 C1126 0.929 . S
S1130 N1131 1.613 . S
S1130 N1132 1.610 . S
N1131 S1130 1.613 . S
N1131 C1134 1.350 . S
N1132 S1130 1.610 . S
N1132 C1133 1.351 . S
C1133 C1127 1.428 . S
C1133 N1132 1.351 . S
C1133 C1134 1.434 . S
C1134 C1125 1.429 . S
C1134 N1131 1.350 . S
C1134 C1133 1.434 . S
C1135 C1136 1.369 . S
C1135 C1137 1.419 . S
C1135 H1139 0.930 . S
C1136 C1135 1.369 . S
C1136 C1145 1.429 . S
C1137 C1135 1.419 . S
C1137 C1138 1.363 . S
C1137 H1140 0.929 . S
C1138 C1137 1.363 . S
C1138 C1144 1.428 . S
H1139 C1135 0.930 . S
H1140 C1137 0.929 . S
S1141 N1142 1.613 . S
S1141 N1143 1.610 . S
N1142 S1141 1.613 . S
N1142 C1145 1.350 . S
N1143 S1141 1.610 . S
N1143 C1144 1.351 . S
C1144 C1138 1.428 . S
C1144 N1143 1.351 . S
C1144 C1145 1.434 . S
C1145 C1136 1.429 . S
C1145 N1142 1.350 . S
C1145 C1144 1.434 . S
C1146 C1147 1.369 . S
C1146 C1148 1.419 . S
C1146 H1150 0.930 . S
C1147 C1146 1.369 . S
C1147 C1156 1.429 . S
C1148 C1146 1.419 . S
C1148 C1149 1.363 . S
C1148 H1151 0.929 . S
C1149 C1148 1.363 . S
C1149 C1155 1.428 . S
H1150 C1146 0.930 . S
H1151 C1148 0.929 . S
S1152 N1153 1.613 . S
S1152 N1154 1.610 . S
N1153 S1152 1.613 . S
N1153 C1156 1.350 . S
N1154 S1152 1.610 . S
N1154 C1155 1.351 . S
C1155 C1149 1.428 . S
C1155 N1154 1.351 . S
C1155 C1156 1.434 . S
C1156 C1147 1.429 . S
C1156 N1153 1.350 . S
C1156 C1155 1.434 . S
C1157 C1158 1.369 . S
C1157 C1159 1.419 . S
C1157 H1161 0.930 . S
C1158 C1157 1.369 . S
C1158 C1167 1.429 . S
C1159 C1157 1.419 . S
C1159 C1160 1.363 . S
C1159 H1162 0.929 . S
C1160 C1159 1.363 . S
C1160 C1166 1.428 . S
H1161 C1157 0.930 . S
H1162 C1159 0.929 . S
S1163 N1164 1.613 . S
S1163 N1165 1.610 . S
N1164 S1163 1.613 . S
N1164 C1167 1.350 . S
N1165 S1163 1.610 . S
N1165 C1166 1.351 . S
C1166 C1160 1.428 . S
C1166 N1165 1.351 . S
C1166 C1167 1.434 . S
C1167 C1158 1.429 . S
C1167 N1164 1.350 . S
C1167 C1166 1.434 . S
C1168 C1169 1.369 . S
C1168 C1170 1.419 . S
C1168 H1172 0.930 . S
C1169 C1168 1.369 . S
C1169 C1178 1.429 . S
C1170 C1168 1.419 . S
C1170 C1171 1.363 . S
C1170 H1173 0.929 . S
C1171 C1170 1.363 . S
C1171 C1177 1.428 . S
H1172 C1168 0.930 . S
H1173 C1170 0.929 . S
S1174 N1175 1.613 . S
S1174 N1176 1.610 . S
N1175 S1174 1.613 . S
N1175 C1178 1.350 . S
N1176 S1174 1.610 . S
N1176 C1177 1.351 . S
C1177 C1171 1.428 . S
C1177 N1176 1.351 . S
C1177 C1178 1.434 . S
C1178 C1169 1.429 . S
C1178 N1175 1.350 . S
C1178 C1177 1.434 . S
C1179 C1180 1.369 . S
C1179 C1181 1.419 . S
C1179 H1183 0.930 . S
C1180 C1179 1.369 . S
C1180 C1189 1.429 . S
C1181 C1179 1.419 . S
C1181 C1182 1.363 . S
C1181 H1184 0.929 . S
C1182 C1181 1.363 . S
C1182 C1188 1.428 . S
H1183 C1179 0.930 . S
H1184 C1181 0.929 . S
S1185 N1186 1.613 . S
S1185 N1187 1.610 . S
N1186 S1185 1.613 . S
N1186 C1189 1.350 . S
N1187 S1185 1.610 . S
N1187 C1188 1.351 . S
C1188 C1182 1.428 . S
C1188 N1187 1.351 . S
C1188 C1189 1.434 . S
C1189 C1180 1.429 . S
C1189 N1186 1.350 . S
C1189 C1188 1.434 . S
C1190 C1191 1.369 . S
C1190 C1192 1.419 . S
C1190 H1194 0.930 . S
C1191 C1190 1.369 . S
C1191 C1200 1.429 . S
C1192 C1190 1.419 . S
C1192 C1193 1.363 . S
C1192 H1195 0.929 . S
C1193 C1192 1.363 . S
C1193 C1199 1.428 . S
H1194 C1190 0.930 . S
H1195 C1192 0.929 . S
S1196 N1197 1.613 . S
S1196 N1198 1.610 . S
N1197 S1196 1.613 . S
N1197 C1200 1.350 . S
N1198 S1196 1.610 . S
N1198 C1199 1.351 . S
C1199 C1193 1.428 . S
C1199 N1198 1.351 . S
C1199 C1200 1.434 . S
C1200 C1191 1.429 . S
C1200 N1197 1.350 . S
C1200 C1199 1.434 . S
C1201 C1202 1.369 . S
C1201 C1203 1.419 . S
C1201 H1205 0.930 . S
C1202 C1201 1.369 . S
C1202 C1211 1.429 . S
C1203 C1201 1.419 . S
C1203 C1204 1.363 . S
C1203 H1206 0.929 . S
C1204 C1203 1.363 . S
C1204 C1210 1.428 . S
H1205 C1201 0.930 . S
H1206 C1203 0.929 . S
S1207 N1208 1.613 . S
S1207 N1209 1.610 . S
N1208 S1207 1.613 . S
N1208 C1211 1.350 . S
N1209 S1207 1.610 . S
N1209 C1210 1.351 . S
C1210 C1204 1.428 . S
C1210 N1209 1.351 . S
C1210 C1211 1.434 . S
C1211 C1202 1.429 . S
C1211 N1208 1.350 . S
C1211 C1210 1.434 . S
C1212 C1213 1.369 . S
C1212 C1214 1.419 . S
C1212 H1216 0.930 . S
C1213 C1212 1.369 . S
C1213 C1222 1.429 . S
C1214 C1212 1.419 . S
C1214 C1215 1.363 . S
C1214 H1217 0.929 . S
C1215 C1214 1.363 . S
C1215 C1221 1.428 . S
H1216 C1212 0.930 . S
H1217 C1214 0.929 . S
S1218 N1219 1.613 . S
S1218 N1220 1.610 . S
N1219 S1218 1.613 . S
N1219 C1222 1.350 . S
N1220 S1218 1.610 . S
N1220 C1221 1.351 . S
C1221 C1215 1.428 . S
C1221 N1220 1.351 . S
C1221 C1222 1.434 . S
C1222 C1213 1.429 . S
C1222 N1219 1.350 . S
C1222 C1221 1.434 . S
C1223 C1224 1.369 . S
C1223 C1225 1.419 . S
C1223 H1227 0.930 . S
C1224 C1223 1.369 . S
C1224 C1233 1.429 . S
C1225 C1223 1.419 . S
C1225 C1226 1.363 . S
C1225 H1228 0.929 . S
C1226 C1225 1.363 . S
C1226 C1232 1.428 . S
H1227 C1223 0.930 . S
H1228 C1225 0.929 . S
S1229 N1230 1.613 . S
S1229 N1231 1.610 . S
N1230 S1229 1.613 . S
N1230 C1233 1.350 . S
N1231 S1229 1.610 . S
N1231 C1232 1.351 . S
C1232 C1226 1.428 . S
C1232 N1231 1.351 . S
C1232 C1233 1.434 . S
C1233 C1224 1.429 . S
C1233 N1230 1.350 . S
C1233 C1232 1.434 . S
C1234 C1235 1.369 . S
C1234 C1236 1.419 . S
C1234 H1238 0.930 . S
C1235 C1234 1.369 . S
C1235 C1244 1.429 . S
C1236 C1234 1.419 . S
C1236 C1237 1.363 . S
C1236 H1239 0.929 . S
C1237 C1236 1.363 . S
C1237 C1243 1.428 . S
H1238 C1234 0.930 . S
H1239 C1236 0.929 . S
S1240 N1241 1.613 . S
S1240 N1242 1.610 . S
N1241 S1240 1.613 . S
N1241 C1244 1.350 . S
N1242 S1240 1.610 . S
N1242 C1243 1.351 . S
C1243 C1237 1.428 . S
C1243 N1242 1.351 . S
C1243 C1244 1.434 . S
C1244 C1235 1.429 . S
C1244 N1241 1.350 . S
C1244 C1243 1.434 . S
C1245 C1246 1.369 . S
C1245 C1247 1.419 . S
C1245 H1249 0.930 . S
C1246 C1245 1.369 . S
C1246 C1255 1.429 . S
C1247 C1245 1.419 . S
C1247 C1248 1.363 . S
C1247 H1250 0.929 . S
C1248 C1247 1.363 . S
C1248 C1254 1.428 . S
H1249 C1245 0.930 . S
H1250 C1247 0.929 . S
S1251 N1252 1.613 . S
S1251 N1253 1.610 . S
N1252 S1251 1.613 . S
N1252 C1255 1.350 . S
N1253 S1251 1.610 . S
N1253 C1254 1.351 . S
C1254 C1248 1.428 . S
C1254 N1253 1.351 . S
C1254 C1255 1.434 . S
C1255 C1246 1.429 . S
C1255 N1252 1.350 . S
C1255 C1254 1.434 . S
C1256 C1257 1.369 . S
C1256 C1258 1.419 . S
C1256 H1260 0.930 . S
C1257 C1256 1.369 . S
C1257 C1266 1.429 . S
C1258 C1256 1.419 . S
C1258 C1259 1.363 . S
C1258 H1261 0.929 . S
C1259 C1258 1.363 . S
C1259 C1265 1.428 . S
H1260 C1256 0.930 . S
H1261 C1258 0.929 . S
S1262 N1263 1.613 . S
S1262 N1264 1.610 . S
N1263 S1262 1.613 . S
N1263 C1266 1.350 . S
N1264 S1262 1.610 . S
N1264 C1265 1.351 . S
C1265 C1259 1.428 . S
C1265 N1264 1.351 . S
C1265 C1266 1.434 . S
C1266 C1257 1.429 . S
C1266 N1263 1.350 . S
C1266 C1265 1.434 . S
C1267 C1268 1.369 . S
C1267 C1269 1.419 . S
C1267 H1271 0.930 . S
C1268 C1267 1.369 . S
C1268 C1277 1.429 . S
C1269 C1267 1.419 . S
C1269 C1270 1.363 . S
C1269 H1272 0.929 . S
C1270 C1269 1.363 . S
C1270 C1276 1.428 . S
H1271 C1267 0.930 . S
H1272 C1269 0.929 . S
S1273 N1274 1.613 . S
S1273 N1275 1.610 . S
N1274 S1273 1.613 . S
N1274 C1277 1.350 . S
N1275 S1273 1.610 . S
N1275 C1276 1.351 . S
C1276 C1270 1.428 . S
C1276 N1275 1.351 . S
C1276 C1277 1.434 . S
C1277 C1268 1.429 . S
C1277 N1274 1.350 . S
C1277 C1276 1.434 . S
C1278 C1279 1.369 . S
C1278 C1280 1.419 . S
C1278 H1282 0.930 . S
C1279 C1278 1.369 . S
C1279 C1288 1.429 . S
C1280 C1278 1.419 . S
C1280 C1281 1.363 1_655 S
C1280 H1283 0.929 . S
C1281 C1280 1.363 1_455 S
C1281 C1287 1.428 . S
H1282 C1278 0.930 . S
H1283 C1280 0.929 . S
S1284 N1285 1.613 . S
S1284 N1286 1.610 . S
N1285 S1284 1.613 . S
N1285 C1288 1.350 1_455 S
N1286 S1284 1.610 . S
N1286 C1287 1.351 . S
C1287 C1281 1.428 . S
C1287 N1286 1.351 . S
C1287 C1288 1.434 1_455 S
C1288 C1279 1.429 . S
C1288 N1285 1.350 1_655 S
C1288 C1287 1.434 1_655 S
C1289 C1290 1.369 . S
C1289 C1291 1.419 . S
C1289 H1293 0.930 . S
C1290 C1289 1.369 . S
C1290 C1299 1.429 . S
C1291 C1289 1.419 . S
C1291 C1292 1.363 . S
C1291 H1294 0.929 . S
C1292 C1291 1.363 . S
C1292 C1298 1.428 . S
H1293 C1289 0.930 . S
H1294 C1291 0.929 . S
S1295 N1296 1.613 . S
S1295 N1297 1.610 . S
N1296 S1295 1.613 . S
N1296 C1299 1.350 . S
N1297 S1295 1.610 . S
N1297 C1298 1.351 . S
C1298 C1292 1.428 . S
C1298 N1297 1.351 . S
C1298 C1299 1.434 . S
C1299 C1290 1.429 . S
C1299 N1296 1.350 . S
C1299 C1298 1.434 . S
C1300 C1301 1.369 . S
C1300 C1302 1.419 . S
C1300 H1304 0.930 . S
C1301 C1300 1.369 . S
C1301 C1310 1.429 . S
C1302 C1300 1.419 . S
C1302 C1303 1.363 . S
C1302 H1305 0.929 . S
C1303 C1302 1.363 . S
C1303 C1309 1.428 . S
H1304 C1300 0.930 . S
H1305 C1302 0.929 . S
S1306 N1307 1.613 . S
S1306 N1308 1.610 . S
N1307 S1306 1.613 . S
N1307 C1310 1.350 . S
N1308 S1306 1.610 . S
N1308 C1309 1.351 . S
C1309 C1303 1.428 . S
C1309 N1308 1.351 . S
C1309 C1310 1.434 . S
C1310 C1301 1.429 . S
C1310 N1307 1.350 . S
C1310 C1309 1.434 . S
C1311 C1312 1.369 . S
C1311 C1313 1.419 . S
C1311 H1315 0.930 . S
C1312 C1311 1.369 . S
C1312 C1321 1.429 . S
C1313 C1311 1.419 . S
C1313 C1314 1.363 . S
C1313 H1316 0.929 . S
C1314 C1313 1.363 . S
C1314 C1320 1.428 . S
H1315 C1311 0.930 . S
H1316 C1313 0.929 . S
S1317 N1318 1.613 . S
S1317 N1319 1.610 . S
N1318 S1317 1.613 . S
N1318 C1321 1.350 . S
N1319 S1317 1.610 . S
N1319 C1320 1.351 . S
C1320 C1314 1.428 . S
C1320 N1319 1.351 . S
C1320 C1321 1.434 . S
C1321 C1312 1.429 . S
C1321 N1318 1.350 . S
C1321 C1320 1.434 . S
C1322 C1323 1.369 . S
C1322 C1324 1.419 . S
C1322 H1326 0.930 . S
C1323 C1322 1.369 . S
C1323 C1332 1.429 . S
C1324 C1322 1.419 . S
C1324 C1325 1.363 . S
C1324 H1327 0.929 . S
C1325 C1324 1.363 . S
C1325 C1331 1.428 . S
H1326 C1322 0.930 . S
H1327 C1324 0.929 . S
S1328 N1329 1.613 . S
S1328 N1330 1.610 . S
N1329 S1328 1.613 . S
N1329 C1332 1.350 . S
N1330 S1328 1.610 . S
N1330 C1331 1.351 . S
C1331 C1325 1.428 . S
C1331 N1330 1.351 . S
C1331 C1332 1.434 . S
C1332 C1323 1.429 . S
C1332 N1329 1.350 . S
C1332 C1331 1.434 . S
C1333 C1334 1.369 . S
C1333 C1335 1.419 . S
C1333 H1337 0.930 . S
C1334 C1333 1.369 . S
C1334 C1343 1.429 . S
C1335 C1333 1.419 . S
C1335 C1336 1.363 . S
C1335 H1338 0.929 . S
C1336 C1335 1.363 . S
C1336 C1342 1.428 . S
H1337 C1333 0.930 . S
H1338 C1335 0.929 . S
S1339 N1340 1.613 . S
S1339 N1341 1.610 . S
N1340 S1339 1.613 . S
N1340 C1343 1.350 . S
N1341 S1339 1.610 . S
N1341 C1342 1.351 . S
C1342 C1336 1.428 . S
C1342 N1341 1.351 . S
C1342 C1343 1.434 . S
C1343 C1334 1.429 . S
C1343 N1340 1.350 . S
C1343 C1342 1.434 . S
C1344 C1345 1.369 . S
C1344 C1346 1.419 . S
C1344 H1348 0.930 . S
C1345 C1344 1.369 . S
C1345 C1354 1.429 . S
C1346 C1344 1.419 . S
C1346 C1347 1.363 . S
C1346 H1349 0.929 . S
C1347 C1346 1.363 . S
C1347 C1353 1.428 . S
H1348 C1344 0.930 . S
H1349 C1346 0.929 . S
S1350 N1351 1.613 . S
S1350 N1352 1.610 . S
N1351 S1350 1.613 . S
N1351 C1354 1.350 . S
N1352 S1350 1.610 . S
N1352 C1353 1.351 . S
C1353 C1347 1.428 . S
C1353 N1352 1.351 . S
C1353 C1354 1.434 . S
C1354 C1345 1.429 . S
C1354 N1351 1.350 . S
C1354 C1353 1.434 . S
C1355 C1356 1.369 . S
C1355 C1357 1.419 . S
C1355 H1359 0.930 . S
C1356 C1355 1.369 . S
C1356 C1365 1.429 . S
C1357 C1355 1.419 . S
C1357 C1358 1.363 . S
C1357 H1360 0.929 . S
C1358 C1357 1.363 . S
C1358 C1364 1.428 . S
H1359 C1355 0.930 . S
H1360 C1357 0.929 . S
S1361 N1362 1.613 . S
S1361 N1363 1.610 . S
N1362 S1361 1.613 . S
N1362 C1365 1.350 . S
N1363 S1361 1.610 . S
N1363 C1364 1.351 . S
C1364 C1358 1.428 . S
C1364 N1363 1.351 . S
C1364 C1365 1.434 . S
C1365 C1356 1.429 . S
C1365 N1362 1.350 . S
C1365 C1364 1.434 . S
C1366 C1367 1.369 . S
C1366 C1368 1.419 . S
C1366 H1370 0.930 . S
C1367 C1366 1.369 . S
C1367 C1376 1.429 . S
C1368 C1366 1.419 . S
C1368 C1369 1.363 . S
C1368 H1371 0.929 . S
C1369 C1368 1.363 . S
C1369 C1375 1.428 . S
H1370 C1366 0.930 . S
H1371 C1368 0.929 . S
S1372 N1373 1.613 . S
S1372 N1374 1.610 . S
N1373 S1372 1.613 . S
N1373 C1376 1.350 . S
N1374 S1372 1.610 . S
N1374 C1375 1.351 . S
C1375 C1369 1.428 . S
C1375 N1374 1.351 . S
C1375 C1376 1.434 . S
C1376 C1367 1.429 . S
C1376 N1373 1.350 . S
C1376 C1375 1.434 . S
C1377 C1378 1.369 . S
C1377 C1379 1.419 . S
C1377 H1381 0.930 . S
C1378 C1377 1.369 . S
C1378 C1387 1.429 . S
C1379 C1377 1.419 . S
C1379 C1380 1.363 . S
C1379 H1382 0.929 . S
C1380 C1379 1.363 . S
C1380 C1386 1.428 . S
H1381 C1377 0.930 . S
H1382 C1379 0.929 . S
S1383 N1384 1.613 . S
S1383 N1385 1.610 . S
N1384 S1383 1.613 . S
N1384 C1387 1.350 . S
N1385 S1383 1.610 . S
N1385 C1386 1.351 . S
C1386 C1380 1.428 . S
C1386 N1385 1.351 . S
C1386 C1387 1.434 . S
C1387 C1378 1.429 . S
C1387 N1384 1.350 . S
C1387 C1386 1.434 . S
C1388 C1389 1.369 . S
C1388 C1390 1.419 . S
C1388 H1392 0.930 . S
C1389 C1388 1.369 . S
C1389 C1398 1.429 . S
C1390 C1388 1.419 . S
C1390 C1391 1.363 . S
C1390 H1393 0.929 . S
C1391 C1390 1.363 . S
C1391 C1397 1.428 . S
H1392 C1388 0.930 . S
H1393 C1390 0.929 . S
S1394 N1395 1.613 . S
S1394 N1396 1.610 . S
N1395 S1394 1.613 . S
N1395 C1398 1.350 . S
N1396 S1394 1.610 . S
N1396 C1397 1.351 . S
C1397 C1391 1.428 . S
C1397 N1396 1.351 . S
C1397 C1398 1.434 . S
C1398 C1389 1.429 . S
C1398 N1395 1.350 . S
C1398 C1397 1.434 . S
C1399 C1400 1.369 . S
C1399 C1401 1.419 . S
C1399 H1403 0.930 . S
C1400 C1399 1.369 . S
C1400 C1409 1.429 . S
C1401 C1399 1.419 . S
C1401 C1402 1.363 . S
C1401 H1404 0.929 . S
C1402 C1401 1.363 . S
C1402 C1408 1.428 . S
H1403 C1399 0.930 . S
H1404 C1401 0.929 . S
S1405 N1406 1.613 . S
S1405 N1407 1.610 . S
N1406 S1405 1.613 . S
N1406 C1409 1.350 . S
N1407 S1405 1.610 . S
N1407 C1408 1.351 . S
C1408 C1402 1.428 . S
C1408 N1407 1.351 . S
C1408 C1409 1.434 . S
C1409 C1400 1.429 . S
C1409 N1406 1.350 . S
C1409 C1408 1.434 . S
C1410 C1411 1.369 . S
C1410 C1412 1.419 . S
C1410 H1414 0.930 . S
C1411 C1410 1.369 . S
C1411 C1420 1.429 . S
C1412 C1410 1.419 . S
C1412 C1413 1.363 . S
C1412 H1415 0.929 . S
C1413 C1412 1.363 . S
C1413 C1419 1.428 . S
H1414 C1410 0.930 . S
H1415 C1412 0.929 . S
S1416 N1417 1.613 . S
S1416 N1418 1.610 . S
N1417 S1416 1.613 . S
N1417 C1420 1.350 . S
N1418 S1416 1.610 . S
N1418 C1419 1.351 . S
C1419 C1413 1.428 . S
C1419 N1418 1.351 . S
C1419 C1420 1.434 . S
C1420 C1411 1.429 . S
C1420 N1417 1.350 . S
C1420 C1419 1.434 . S
C1421 C1422 1.369 . S
C1421 C1423 1.419 . S
C1421 H1425 0.930 . S
C1422 C1421 1.369 . S
C1422 C1431 1.429 . S
C1423 C1421 1.419 . S
C1423 C1424 1.363 . S
C1423 H1426 0.929 . S
C1424 C1423 1.363 . S
C1424 C1430 1.428 . S
H1425 C1421 0.930 . S
H1426 C1423 0.929 . S
S1427 N1428 1.613 . S
S1427 N1429 1.610 . S
N1428 S1427 1.613 . S
N1428 C1431 1.350 . S
N1429 S1427 1.610 . S
N1429 C1430 1.351 . S
C1430 C1424 1.428 . S
C1430 N1429 1.351 . S
C1430 C1431 1.434 . S
C1431 C1422 1.429 . S
C1431 N1428 1.350 . S
C1431 C1430 1.434 . S
C1432 C1433 1.369 . S
C1432 C1434 1.419 . S
C1432 H1436 0.930 . S
C1433 C1432 1.369 . S
C1433 C1442 1.429 . S
C1434 C1432 1.419 . S
C1434 C1435 1.363 . S
C1434 H1437 0.929 . S
C1435 C1434 1.363 . S
C1435 C1441 1.428 . S
H1436 C1432 0.930 . S
H1437 C1434 0.929 . S
S1438 N1439 1.613 . S
S1438 N1440 1.610 . S
N1439 S1438 1.613 . S
N1439 C1442 1.350 . S
N1440 S1438 1.610 . S
N1440 C1441 1.351 . S
C1441 C1435 1.428 . S
C1441 N1440 1.351 . S
C1441 C1442 1.434 . S
C1442 C1433 1.429 . S
C1442 N1439 1.350 . S
C1442 C1441 1.434 . S
C1443 C1444 1.369 . S
C1443 C1445 1.419 . S
C1443 H1447 0.930 . S
C1444 C1443 1.369 . S
C1444 C1453 1.429 . S
C1445 C1443 1.419 . S
C1445 C1446 1.363 . S
C1445 H1448 0.929 . S
C1446 C1445 1.363 . S
C1446 C1452 1.428 . S
H1447 C1443 0.930 . S
H1448 C1445 0.929 . S
S1449 N1450 1.613 . S
S1449 N1451 1.610 . S
N1450 S1449 1.613 . S
N1450 C1453 1.350 . S
N1451 S1449 1.610 . S
N1451 C1452 1.351 . S
C1452 C1446 1.428 . S
C1452 N1451 1.351 . S
C1452 C1453 1.434 . S
C1453 C1444 1.429 . S
C1453 N1450 1.350 . S
C1453 C1452 1.434 . S
C1454 C1455 1.369 . S
C1454 C1456 1.419 . S
C1454 H1458 0.930 . S
C1455 C1454 1.369 . S
C1455 C1464 1.429 . S
C1456 C1454 1.419 . S
C1456 C1457 1.363 . S
C1456 H1459 0.929 . S
C1457 C1456 1.363 . S
C1457 C1463 1.428 . S
H1458 C1454 0.930 . S
H1459 C1456 0.929 . S
S1460 N1461 1.613 . S
S1460 N1462 1.610 . S
N1461 S1460 1.613 . S
N1461 C1464 1.350 . S
N1462 S1460 1.610 . S
N1462 C1463 1.351 . S
C1463 C1457 1.428 . S
C1463 N1462 1.351 . S
C1463 C1464 1.434 . S
C1464 C1455 1.429 . S
C1464 N1461 1.350 . S
C1464 C1463 1.434 . S
C1465 C1466 1.369 . S
C1465 C1467 1.419 . S
C1465 H1469 0.930 . S
C1466 C1465 1.369 . S
C1466 C1475 1.429 . S
C1467 C1465 1.419 . S
C1467 C1468 1.363 . S
C1467 H1470 0.929 . S
C1468 C1467 1.363 . S
C1468 C1474 1.428 . S
H1469 C1465 0.930 . S
H1470 C1467 0.929 . S
S1471 N1472 1.613 . S
S1471 N1473 1.610 . S
N1472 S1471 1.613 . S
N1472 C1475 1.350 . S
N1473 S1471 1.610 . S
N1473 C1474 1.351 . S
C1474 C1468 1.428 . S
C1474 N1473 1.351 . S
C1474 C1475 1.434 . S
C1475 C1466 1.429 . S
C1475 N1472 1.350 . S
C1475 C1474 1.434 . S
C1476 C1477 1.369 . S
C1476 C1478 1.419 . S
C1476 H1480 0.930 . S
C1477 C1476 1.369 . S
C1477 C1486 1.429 . S
C1478 C1476 1.419 . S
C1478 C1479 1.363 . S
C1478 H1481 0.929 . S
C1479 C1478 1.363 . S
C1479 C1485 1.428 . S
H1480 C1476 0.930 . S
H1481 C1478 0.929 . S
S1482 N1483 1.613 . S
S1482 N1484 1.610 . S
N1483 S1482 1.613 . S
N1483 C1486 1.350 . S
N1484 S1482 1.610 . S
N1484 C1485 1.351 . S
C1485 C1479 1.428 . S
C1485 N1484 1.351 . S
C1485 C1486 1.434 . S
C1486 C1477 1.429 . S
C1486 N1483 1.350 . S
C1486 C1485 1.434 . S
C1487 C1488 1.369 . S
C1487 C1489 1.419 . S
C1487 H1491 0.930 . S
C1488 C1487 1.369 . S
C1488 C1497 1.429 . S
C1489 C1487 1.419 . S
C1489 C1490 1.363 . S
C1489 H1492 0.929 . S
C1490 C1489 1.363 . S
C1490 C1496 1.428 . S
H1491 C1487 0.930 . S
H1492 C1489 0.929 . S
S1493 N1494 1.613 . S
S1493 N1495 1.610 . S
N1494 S1493 1.613 . S
N1494 C1497 1.350 . S
N1495 S1493 1.610 . S
N1495 C1496 1.351 . S
C1496 C1490 1.428 . S
C1496 N1495 1.351 . S
C1496 C1497 1.434 . S
C1497 C1488 1.429 . S
C1497 N1494 1.350 . S
C1497 C1496 1.434 . S
C1498 C1499 1.369 . S
C1498 C1500 1.419 . S
C1498 H1502 0.930 . S
C1499 C1498 1.369 . S
C1499 C1508 1.429 . S
C1500 C1498 1.419 . S
C1500 C1501 1.363 . S
C1500 H1503 0.929 . S
C1501 C1500 1.363 . S
C1501 C1507 1.428 . S
H1502 C1498 0.930 . S
H1503 C1500 0.929 . S
S1504 N1505 1.613 . S
S1504 N1506 1.610 . S
N1505 S1504 1.613 . S
N1505 C1508 1.350 . S
N1506 S1504 1.610 . S
N1506 C1507 1.351 . S
C1507 C1501 1.428 . S
C1507 N1506 1.351 . S
C1507 C1508 1.434 . S
C1508 C1499 1.429 . S
C1508 N1505 1.350 . S
C1508 C1507 1.434 . S
C1509 C1510 1.369 . S
C1509 C1511 1.419 . S
C1509 H1513 0.930 . S
C1510 C1509 1.369 . S
C1510 C1519 1.429 . S
C1511 C1509 1.419 . S
C1511 C1512 1.363 . S
C1511 H1514 0.929 . S
C1512 C1511 1.363 . S
C1512 C1518 1.428 . S
H1513 C1509 0.930 . S
H1514 C1511 0.929 . S
S1515 N1516 1.613 . S
S1515 N1517 1.610 . S
N1516 S1515 1.613 . S
N1516 C1519 1.350 . S
N1517 S1515 1.610 . S
N1517 C1518 1.351 . S
C1518 C1512 1.428 . S
C1518 N1517 1.351 . S
C1518 C1519 1.434 . S
C1519 C1510 1.429 . S
C1519 N1516 1.350 . S
C1519 C1518 1.434 . S
C1520 C1521 1.369 . S
C1520 C1522 1.419 . S
C1520 H1524 0.930 . S
C1521 C1520 1.369 . S
C1521 C1530 1.429 . S
C1522 C1520 1.419 . S
C1522 C1523 1.363 . S
C1522 H1525 0.929 . S
C1523 C1522 1.363 . S
C1523 C1529 1.428 . S
H1524 C1520 0.930 . S
H1525 C1522 0.929 . S
S1526 N1527 1.613 . S
S1526 N1528 1.610 . S
N1527 S1526 1.613 . S
N1527 C1530 1.350 . S
N1528 S1526 1.610 . S
N1528 C1529 1.351 . S
C1529 C1523 1.428 . S
C1529 N1528 1.351 . S
C1529 C1530 1.434 . S
C1530 C1521 1.429 . S
C1530 N1527 1.350 . S
C1530 C1529 1.434 . S
C1531 C1532 1.369 . S
C1531 C1533 1.419 . S
C1531 H1535 0.930 . S
C1532 C1531 1.369 . S
C1532 C1541 1.429 . S
C1533 C1531 1.419 . S
C1533 C1534 1.363 . S
C1533 H1536 0.929 . S
C1534 C1533 1.363 . S
C1534 C1540 1.428 . S
H1535 C1531 0.930 . S
H1536 C1533 0.929 . S
S1537 N1538 1.613 . S
S1537 N1539 1.610 . S
N1538 S1537 1.613 . S
N1538 C1541 1.350 . S
N1539 S1537 1.610 . S
N1539 C1540 1.351 . S
C1540 C1534 1.428 . S
C1540 N1539 1.351 . S
C1540 C1541 1.434 . S
C1541 C1532 1.429 . S
C1541 N1538 1.350 . S
C1541 C1540 1.434 . S
C1542 C1543 1.369 . S
C1542 C1544 1.419 . S
C1542 H1546 0.930 . S
C1543 C1542 1.369 . S
C1543 C1552 1.429 . S
C1544 C1542 1.419 . S
C1544 C1545 1.363 . S
C1544 H1547 0.929 . S
C1545 C1544 1.363 . S
C1545 C1551 1.428 . S
H1546 C1542 0.930 . S
H1547 C1544 0.929 . S
S1548 N1549 1.613 . S
S1548 N1550 1.610 . S
N1549 S1548 1.613 . S
N1549 C1552 1.350 . S
N1550 S1548 1.610 . S
N1550 C1551 1.351 . S
C1551 C1545 1.428 . S
C1551 N1550 1.351 . S
C1551 C1552 1.434 . S
C1552 C1543 1.429 . S
C1552 N1549 1.350 . S
C1552 C1551 1.434 . S
C1553 C1554 1.369 . S
C1553 C1555 1.419 . S
C1553 H1557 0.930 . S
C1554 C1553 1.369 . S
C1554 C1563 1.429 . S
C1555 C1553 1.419 . S
C1555 C1556 1.363 . S
C1555 H1558 0.929 . S
C1556 C1555 1.363 . S
C1556 C1562 1.428 . S
H1557 C1553 0.930 . S
H1558 C1555 0.929 . S
S1559 N1560 1.613 . S
S1559 N1561 1.610 . S
N1560 S1559 1.613 . S
N1560 C1563 1.350 . S
N1561 S1559 1.610 . S
N1561 C1562 1.351 . S
C1562 C1556 1.428 . S
C1562 N1561 1.351 . S
C1562 C1563 1.434 . S
C1563 C1554 1.429 . S
C1563 N1560 1.350 . S
C1563 C1562 1.434 . S
C1564 C1565 1.369 . S
C1564 C1566 1.419 . S
C1564 H1568 0.930 . S
C1565 C1564 1.369 . S
C1565 C1574 1.429 . S
C1566 C1564 1.419 . S
C1566 C1567 1.363 . S
C1566 H1569 0.929 . S
C1567 C1566 1.363 . S
C1567 C1573 1.428 . S
H1568 C1564 0.930 . S
H1569 C1566 0.929 . S
S1570 N1571 1.613 . S
S1570 N1572 1.610 . S
N1571 S1570 1.613 . S
N1571 C1574 1.350 . S
N1572 S1570 1.610 . S
N1572 C1573 1.351 . S
C1573 C1567 1.428 . S
C1573 N1572 1.351 . S
C1573 C1574 1.434 . S
C1574 C1565 1.429 . S
C1574 N1571 1.350 . S
C1574 C1573 1.434 . S
C1575 C1576 1.369 . S
C1575 C1577 1.419 . S
C1575 H1579 0.930 . S
C1576 C1575 1.369 . S
C1576 C1585 1.429 . S
C1577 C1575 1.419 . S
C1577 C1578 1.363 . S
C1577 H1580 0.929 . S
C1578 C1577 1.363 . S
C1578 C1584 1.428 . S
H1579 C1575 0.930 . S
H1580 C1577 0.929 . S
S1581 N1582 1.613 . S
S1581 N1583 1.610 . S
N1582 S1581 1.613 . S
N1582 C1585 1.350 . S
N1583 S1581 1.610 . S
N1583 C1584 1.351 . S
C1584 C1578 1.428 . S
C1584 N1583 1.351 . S
C1584 C1585 1.434 . S
C1585 C1576 1.429 . S
C1585 N1582 1.350 . S
C1585 C1584 1.434 . S
C1586 C1587 1.369 . S
C1586 C1588 1.419 . S
C1586 H1590 0.930 . S
C1587 C1586 1.369 . S
C1587 C1596 1.429 . S
C1588 C1586 1.419 . S
C1588 C1589 1.363 . S
C1588 H1591 0.929 . S
C1589 C1588 1.363 . S
C1589 C1595 1.428 . S
H1590 C1586 0.930 . S
H1591 C1588 0.929 . S
S1592 N1593 1.613 . S
S1592 N1594 1.610 . S
N1593 S1592 1.613 . S
N1593 C1596 1.350 . S
N1594 S1592 1.610 . S
N1594 C1595 1.351 . S
C1595 C1589 1.428 . S
C1595 N1594 1.351 . S
C1595 C1596 1.434 . S
C1596 C1587 1.429 . S
C1596 N1593 1.350 . S
C1596 C1595 1.434 . S
C1597 C1598 1.369 . S
C1597 C1599 1.419 . S
C1597 H1601 0.930 . S
C1598 C1597 1.369 . S
C1598 C1607 1.429 . S
C1599 C1597 1.419 . S
C1599 C1600 1.363 . S
C1599 H1602 0.929 . S
C1600 C1599 1.363 . S
C1600 C1606 1.428 . S
H1601 C1597 0.930 . S
H1602 C1599 0.929 . S
S1603 N1604 1.613 . S
S1603 N1605 1.610 . S
N1604 S1603 1.613 . S
N1604 C1607 1.350 . S
N1605 S1603 1.610 . S
N1605 C1606 1.351 . S
C1606 C1600 1.428 . S
C1606 N1605 1.351 . S
C1606 C1607 1.434 . S
C1607 C1598 1.429 . S
C1607 N1604 1.350 . S
C1607 C1606 1.434 . S
C1608 C1609 1.369 . S
C1608 C1610 1.419 . S
C1608 H1612 0.930 . S
C1609 C1608 1.369 . S
C1609 C1618 1.429 . S
C1610 C1608 1.419 . S
C1610 C1611 1.363 . S
C1610 H1613 0.929 . S
C1611 C1610 1.363 . S
C1611 C1617 1.428 . S
H1612 C1608 0.930 . S
H1613 C1610 0.929 . S
S1614 N1615 1.613 . S
S1614 N1616 1.610 . S
N1615 S1614 1.613 . S
N1615 C1618 1.350 . S
N1616 S1614 1.610 . S
N1616 C1617 1.351 . S
C1617 C1611 1.428 . S
C1617 N1616 1.351 . S
C1617 C1618 1.434 . S
C1618 C1609 1.429 . S
C1618 N1615 1.350 . S
C1618 C1617 1.434 . S
C1619 C1620 1.369 . S
C1619 C1621 1.419 . S
C1619 H1623 0.930 . S
C1620 C1619 1.369 . S
C1620 C1629 1.429 . S
C1621 C1619 1.419 . S
C1621 C1622 1.363 . S
C1621 H1624 0.929 . S
C1622 C1621 1.363 . S
C1622 C1628 1.428 . S
H1623 C1619 0.930 . S
H1624 C1621 0.929 . S
S1625 N1626 1.613 . S
S1625 N1627 1.610 . S
N1626 S1625 1.613 . S
N1626 C1629 1.350 . S
N1627 S1625 1.610 . S
N1627 C1628 1.351 . S
C1628 C1622 1.428 . S
C1628 N1627 1.351 . S
C1628 C1629 1.434 . S
C1629 C1620 1.429 . S
C1629 N1626 1.350 . S
C1629 C1628 1.434 . S
C1630 C1631 1.369 . S
C1630 C1632 1.419 . S
C1630 H1634 0.930 . S
C1631 C1630 1.369 . S
C1631 C1640 1.429 . S
C1632 C1630 1.419 . S
C1632 C1633 1.363 . S
C1632 H1635 0.929 . S
C1633 C1632 1.363 . S
C1633 C1639 1.428 . S
H1634 C1630 0.930 . S
H1635 C1632 0.929 . S
S1636 N1637 1.613 . S
S1636 N1638 1.610 . S
N1637 S1636 1.613 . S
N1637 C1640 1.350 . S
N1638 S1636 1.610 . S
N1638 C1639 1.351 . S
C1639 C1633 1.428 . S
C1639 N1638 1.351 . S
C1639 C1640 1.434 . S
C1640 C1631 1.429 . S
C1640 N1637 1.350 . S
C1640 C1639 1.434 . S
C1641 C1642 1.369 . S
C1641 C1643 1.419 . S
C1641 H1645 0.930 . S
C1642 C1641 1.369 . S
C1642 C1651 1.429 . S
C1643 C1641 1.419 . S
C1643 C1644 1.363 . S
C1643 H1646 0.929 . S
C1644 C1643 1.363 . S
C1644 C1650 1.428 . S
H1645 C1641 0.930 . S
H1646 C1643 0.929 . S
S1647 N1648 1.613 . S
S1647 N1649 1.610 . S
N1648 S1647 1.613 . S
N1648 C1651 1.350 . S
N1649 S1647 1.610 . S
N1649 C1650 1.351 . S
C1650 C1644 1.428 . S
C1650 N1649 1.351 . S
C1650 C1651 1.434 . S
C1651 C1642 1.429 . S
C1651 N1648 1.350 . S
C1651 C1650 1.434 . S
C1652 C1653 1.369 . S
C1652 C1654 1.419 . S
C1652 H1656 0.930 . S
C1653 C1652 1.369 . S
C1653 C1662 1.429 . S
C1654 C1652 1.419 . S
C1654 C1655 1.363 . S
C1654 H1657 0.929 . S
C1655 C1654 1.363 . S
C1655 C1661 1.428 . S
H1656 C1652 0.930 . S
H1657 C1654 0.929 . S
S1658 N1659 1.613 . S
S1658 N1660 1.610 . S
N1659 S1658 1.613 . S
N1659 C1662 1.350 . S
N1660 S1658 1.610 . S
N1660 C1661 1.351 . S
C1661 C1655 1.428 . S
C1661 N1660 1.351 . S
C1661 C1662 1.434 . S
C1662 C1653 1.429 . S
C1662 N1659 1.350 . S
C1662 C1661 1.434 . S
C1663 C1664 1.369 . S
C1663 C1665 1.419 . S
C1663 H1667 0.930 . S
C1664 C1663 1.369 . S
C1664 C1673 1.429 . S
C1665 C1663 1.419 . S
C1665 C1666 1.363 . S
C1665 H1668 0.929 . S
C1666 C1665 1.363 . S
C1666 C1672 1.428 . S
H1667 C1663 0.930 . S
H1668 C1665 0.929 . S
S1669 N1670 1.613 . S
S1669 N1671 1.610 . S
N1670 S1669 1.613 . S
N1670 C1673 1.350 . S
N1671 S1669 1.610 . S
N1671 C1672 1.351 . S
C1672 C1666 1.428 . S
C1672 N1671 1.351 . S
C1672 C1673 1.434 . S
C1673 C1664 1.429 . S
C1673 N1670 1.350 . S
C1673 C1672 1.434 . S
C1674 C1675 1.369 . S
C1674 C1676 1.419 . S
C1674 H1678 0.930 . S
C1675 C1674 1.369 . S
C1675 C1684 1.429 . S
C1676 C1674 1.419 . S
C1676 C1677 1.363 . S
C1676 H1679 0.929 . S
C1677 C1676 1.363 . S
C1677 C1683 1.428 . S
H1678 C1674 0.930 . S
H1679 C1676 0.929 . S
S1680 N1681 1.613 . S
S1680 N1682 1.610 . S
N1681 S1680 1.613 . S
N1681 C1684 1.350 . S
N1682 S1680 1.610 . S
N1682 C1683 1.351 . S
C1683 C1677 1.428 . S
C1683 N1682 1.351 . S
C1683 C1684 1.434 . S
C1684 C1675 1.429 . S
C1684 N1681 1.350 . S
C1684 C1683 1.434 . S
C1685 C1686 1.369 . S
C1685 C1687 1.419 . S
C1685 H1689 0.930 . S
C1686 C1685 1.369 . S
C1686 C1695 1.429 . S
C1687 C1685 1.419 . S
C1687 C1688 1.363 . S
C1687 H1690 0.929 . S
C1688 C1687 1.363 . S
C1688 C1694 1.428 . S
H1689 C1685 0.930 . S
H1690 C1687 0.929 . S
S1691 N1692 1.613 . S
S1691 N1693 1.610 . S
N1692 S1691 1.613 . S
N1692 C1695 1.350 . S
N1693 S1691 1.610 . S
N1693 C1694 1.351 . S
C1694 C1688 1.428 . S
C1694 N1693 1.351 . S
C1694 C1695 1.434 . S
C1695 C1686 1.429 . S
C1695 N1692 1.350 . S
C1695 C1694 1.434 . S
C1696 C1697 1.369 . S
C1696 C1698 1.419 . S
C1696 H1700 0.930 . S
C1697 C1696 1.369 . S
C1697 C1706 1.429 . S
C1698 C1696 1.419 . S
C1698 C1699 1.363 . S
C1698 H1701 0.929 . S
C1699 C1698 1.363 . S
C1699 C1705 1.428 . S
H1700 C1696 0.930 . S
H1701 C1698 0.929 . S
S1702 N1703 1.613 . S
S1702 N1704 1.610 . S
N1703 S1702 1.613 . S
N1703 C1706 1.350 . S
N1704 S1702 1.610 . S
N1704 C1705 1.351 . S
C1705 C1699 1.428 . S
C1705 N1704 1.351 . S
C1705 C1706 1.434 . S
C1706 C1697 1.429 . S
C1706 N1703 1.350 . S
C1706 C1705 1.434 . S
C1707 C1708 1.369 . S
C1707 C1709 1.419 . S
C1707 H1711 0.930 . S
C1708 C1707 1.369 . S
C1708 C1717 1.429 . S
C1709 C1707 1.419 . S
C1709 C1710 1.363 . S
C1709 H1712 0.929 . S
C1710 C1709 1.363 . S
C1710 C1716 1.428 . S
H1711 C1707 0.930 . S
H1712 C1709 0.929 . S
S1713 N1714 1.613 . S
S1713 N1715 1.610 . S
N1714 S1713 1.613 . S
N1714 C1717 1.350 . S
N1715 S1713 1.610 . S
N1715 C1716 1.351 . S
C1716 C1710 1.428 . S
C1716 N1715 1.351 . S
C1716 C1717 1.434 . S
C1717 C1708 1.429 . S
C1717 N1714 1.350 . S
C1717 C1716 1.434 . S
C1718 C1719 1.369 . S
C1718 C1720 1.419 . S
C1718 H1722 0.930 . S
C1719 C1718 1.369 . S
C1719 C1728 1.429 . S
C1720 C1718 1.419 . S
C1720 C1721 1.363 . S
C1720 H1723 0.929 . S
C1721 C1720 1.363 . S
C1721 C1727 1.428 . S
H1722 C1718 0.930 . S
H1723 C1720 0.929 . S
S1724 N1725 1.613 . S
S1724 N1726 1.610 . S
N1725 S1724 1.613 . S
N1725 C1728 1.350 . S
N1726 S1724 1.610 . S
N1726 C1727 1.351 . S
C1727 C1721 1.428 . S
C1727 N1726 1.351 . S
C1727 C1728 1.434 . S
C1728 C1719 1.429 . S
C1728 N1725 1.350 . S
C1728 C1727 1.434 . S
C1729 C1730 1.369 . S
C1729 C1731 1.419 . S
C1729 H1733 0.930 . S
C1730 C1729 1.369 . S
C1730 C1739 1.429 . S
C1731 C1729 1.419 . S
C1731 C1732 1.363 . S
C1731 H1734 0.929 . S
C1732 C1731 1.363 . S
C1732 C1738 1.428 . S
H1733 C1729 0.930 . S
H1734 C1731 0.929 . S
S1735 N1736 1.613 . S
S1735 N1737 1.610 . S
N1736 S1735 1.613 . S
N1736 C1739 1.350 . S
N1737 S1735 1.610 . S
N1737 C1738 1.351 . S
C1738 C1732 1.428 . S
C1738 N1737 1.351 . S
C1738 C1739 1.434 . S
C1739 C1730 1.429 . S
C1739 N1736 1.350 . S
C1739 C1738 1.434 . S
C1740 C1741 1.369 . S
C1740 C1742 1.419 . S
C1740 H1744 0.930 . S
C1741 C1740 1.369 . S
C1741 C1750 1.429 . S
C1742 C1740 1.419 . S
C1742 C1743 1.363 . S
C1742 H1745 0.929 . S
C1743 C1742 1.363 . S
C1743 C1749 1.428 . S
H1744 C1740 0.930 . S
H1745 C1742 0.929 . S
S1746 N1747 1.613 . S
S1746 N1748 1.610 . S
N1747 S1746 1.613 . S
N1747 C1750 1.350 . S
N1748 S1746 1.610 . S
N1748 C1749 1.351 . S
C1749 C1743 1.428 . S
C1749 N1748 1.351 . S
C1749 C1750 1.434 . S
C1750 C1741 1.429 . S
C1750 N1747 1.350 . S
C1750 C1749 1.434 . S
C1751 C1752 1.369 . S
C1751 C1753 1.419 . S
C1751 H1755 0.930 . S
C1752 C1751 1.369 . S
C1752 C1761 1.429 . S
C1753 C1751 1.419 . S
C1753 C1754 1.363 . S
C1753 H1756 0.929 . S
C1754 C1753 1.363 . S
C1754 C1760 1.428 . S
H1755 C1751 0.930 . S
H1756 C1753 0.929 . S
S1757 N1758 1.613 . S
S1757 N1759 1.610 . S
N1758 S1757 1.613 . S
N1758 C1761 1.350 . S
N1759 S1757 1.610 . S
N1759 C1760 1.351 . S
C1760 C1754 1.428 . S
C1760 N1759 1.351 . S
C1760 C1761 1.434 . S
C1761 C1752 1.429 . S
C1761 N1758 1.350 . S
C1761 C1760 1.434 . S
C1762 C1763 1.369 . S
C1762 C1764 1.419 . S
C1762 H1766 0.930 . S
C1763 C1762 1.369 . S
C1763 C1772 1.429 . S
C1764 C1762 1.419 . S
C1764 C1765 1.363 . S
C1764 H1767 0.929 . S
C1765 C1764 1.363 . S
C1765 C1771 1.428 . S
H1766 C1762 0.930 . S
H1767 C1764 0.929 . S
S1768 N1769 1.613 . S
S1768 N1770 1.610 . S
N1769 S1768 1.613 . S
N1769 C1772 1.350 . S
N1770 S1768 1.610 . S
N1770 C1771 1.351 . S
C1771 C1765 1.428 . S
C1771 N1770 1.351 . S
C1771 C1772 1.434 . S
C1772 C1763 1.429 . S
C1772 N1769 1.350 . S
C1772 C1771 1.434 . S
C1773 C1774 1.369 . S
C1773 C1775 1.419 . S
C1773 H1777 0.930 . S
C1774 C1773 1.369 . S
C1774 C1783 1.429 . S
C1775 C1773 1.419 . S
C1775 C1776 1.363 . S
C1775 H1778 0.929 . S
C1776 C1775 1.363 . S
C1776 C1782 1.428 . S
H1777 C1773 0.930 . S
H1778 C1775 0.929 . S
S1779 N1780 1.613 . S
S1779 N1781 1.610 . S
N1780 S1779 1.613 . S
N1780 C1783 1.350 . S
N1781 S1779 1.610 . S
N1781 C1782 1.351 . S
C1782 C1776 1.428 . S
C1782 N1781 1.351 . S
C1782 C1783 1.434 . S
C1783 C1774 1.429 . S
C1783 N1780 1.350 . S
C1783 C1782 1.434 . S
C1784 C1785 1.369 . S
C1784 C1786 1.419 . S
C1784 H1788 0.930 . S
C1785 C1784 1.369 . S
C1785 C1794 1.429 . S
C1786 C1784 1.419 . S
C1786 C1787 1.363 . S
C1786 H1789 0.929 . S
C1787 C1786 1.363 . S
C1787 C1793 1.428 . S
H1788 C1784 0.930 . S
H1789 C1786 0.929 . S
S1790 N1791 1.613 . S
S1790 N1792 1.610 . S
N1791 S1790 1.613 . S
N1791 C1794 1.350 . S
N1792 S1790 1.610 . S
N1792 C1793 1.351 . S
C1793 C1787 1.428 . S
C1793 N1792 1.351 . S
C1793 C1794 1.434 . S
C1794 C1785 1.429 . S
C1794 N1791 1.350 . S
C1794 C1793 1.434 . S
C1795 C1796 1.369 . S
C1795 C1797 1.419 . S
C1795 H1799 0.930 . S
C1796 C1795 1.369 . S
C1796 C1805 1.429 . S
C1797 C1795 1.419 . S
C1797 C1798 1.363 . S
C1797 H1800 0.929 . S
C1798 C1797 1.363 . S
C1798 C1804 1.428 . S
H1799 C1795 0.930 . S
H1800 C1797 0.929 . S
S1801 N1802 1.613 . S
S1801 N1803 1.610 . S
N1802 S1801 1.613 . S
N1802 C1805 1.350 . S
N1803 S1801 1.610 . S
N1803 C1804 1.351 . S
C1804 C1798 1.428 . S
C1804 N1803 1.351 . S
C1804 C1805 1.434 . S
C1805 C1796 1.429 . S
C1805 N1802 1.350 . S
C1805 C1804 1.434 . S
C1806 C1807 1.369 . S
C1806 C1808 1.419 . S
C1806 H1810 0.930 . S
C1807 C1806 1.369 . S
C1807 C1816 1.429 . S
C1808 C1806 1.419 . S
C1808 C1809 1.363 . S
C1808 H1811 0.929 . S
C1809 C1808 1.363 . S
C1809 C1815 1.428 . S
H1810 C1806 0.930 . S
H1811 C1808 0.929 . S
S1812 N1813 1.613 . S
S1812 N1814 1.610 . S
N1813 S1812 1.613 . S
N1813 C1816 1.350 . S
N1814 S1812 1.610 . S
N1814 C1815 1.351 . S
C1815 C1809 1.428 . S
C1815 N1814 1.351 . S
C1815 C1816 1.434 . S
C1816 C1807 1.429 . S
C1816 N1813 1.350 . S
C1816 C1815 1.434 . S
C1817 C1818 1.369 . S
C1817 C1819 1.419 . S
C1817 H1821 0.930 . S
C1818 C1817 1.369 . S
C1818 C1827 1.429 . S
C1819 C1817 1.419 . S
C1819 C1820 1.363 . S
C1819 H1822 0.929 . S
C1820 C1819 1.363 . S
C1820 C1826 1.428 . S
H1821 C1817 0.930 . S
H1822 C1819 0.929 . S
S1823 N1824 1.613 . S
S1823 N1825 1.610 . S
N1824 S1823 1.613 . S
N1824 C1827 1.350 . S
N1825 S1823 1.610 . S
N1825 C1826 1.351 . S
C1826 C1820 1.428 . S
C1826 N1825 1.351 . S
C1826 C1827 1.434 . S
C1827 C1818 1.429 . S
C1827 N1824 1.350 . S
C1827 C1826 1.434 . S
C1828 C1829 1.369 . S
C1828 C1830 1.419 . S
C1828 H1832 0.930 . S
C1829 C1828 1.369 . S
C1829 C1838 1.429 . S
C1830 C1828 1.419 . S
C1830 C1831 1.363 . S
C1830 H1833 0.929 . S
C1831 C1830 1.363 . S
C1831 C1837 1.428 . S
H1832 C1828 0.930 . S
H1833 C1830 0.929 . S
S1834 N1835 1.613 . S
S1834 N1836 1.610 . S
N1835 S1834 1.613 . S
N1835 C1838 1.350 . S
N1836 S1834 1.610 . S
N1836 C1837 1.351 . S
C1837 C1831 1.428 . S
C1837 N1836 1.351 . S
C1837 C1838 1.434 . S
C1838 C1829 1.429 . S
C1838 N1835 1.350 . S
C1838 C1837 1.434 . S
C1839 C1840 1.369 . S
C1839 C1841 1.419 . S
C1839 H1843 0.930 . S
C1840 C1839 1.369 . S
C1840 C1849 1.429 . S
C1841 C1839 1.419 . S
C1841 C1842 1.363 . S
C1841 H1844 0.929 . S
C1842 C1841 1.363 . S
C1842 C1848 1.428 . S
H1843 C1839 0.930 . S
H1844 C1841 0.929 . S
S1845 N1846 1.613 . S
S1845 N1847 1.610 . S
N1846 S1845 1.613 . S
N1846 C1849 1.350 . S
N1847 S1845 1.610 . S
N1847 C1848 1.351 . S
C1848 C1842 1.428 . S
C1848 N1847 1.351 . S
C1848 C1849 1.434 . S
C1849 C1840 1.429 . S
C1849 N1846 1.350 . S
C1849 C1848 1.434 . S
C1850 C1851 1.369 . S
C1850 C1852 1.419 . S
C1850 H1854 0.930 . S
C1851 C1850 1.369 . S
C1851 C1860 1.429 . S
C1852 C1850 1.419 . S
C1852 C1853 1.363 . S
C1852 H1855 0.929 . S
C1853 C1852 1.363 . S
C1853 C1859 1.428 . S
H1854 C1850 0.930 . S
H1855 C1852 0.929 . S
S1856 N1857 1.613 . S
S1856 N1858 1.610 . S
N1857 S1856 1.613 . S
N1857 C1860 1.350 . S
N1858 S1856 1.610 . S
N1858 C1859 1.351 . S
C1859 C1853 1.428 . S
C1859 N1858 1.351 . S
C1859 C1860 1.434 . S
C1860 C1851 1.429 . S
C1860 N1857 1.350 . S
C1860 C1859 1.434 . S
C1861 C1862 1.369 . S
C1861 C1863 1.419 . S
C1861 H1865 0.930 . S
C1862 C1861 1.369 . S
C1862 C1871 1.429 . S
C1863 C1861 1.419 . S
C1863 C1864 1.363 . S
C1863 H1866 0.929 . S
C1864 C1863 1.363 . S
C1864 C1870 1.428 . S
H1865 C1861 0.930 . S
H1866 C1863 0.929 . S
S1867 N1868 1.613 . S
S1867 N1869 1.610 . S
N1868 S1867 1.613 . S
N1868 C1871 1.350 . S
N1869 S1867 1.610 . S
N1869 C1870 1.351 . S
C1870 C1864 1.428 . S
C1870 N1869 1.351 . S
C1870 C1871 1.434 . S
C1871 C1862 1.429 . S
C1871 N1868 1.350 . S
C1871 C1870 1.434 . S
C1872 C1873 1.369 . S
C1872 C1874 1.419 . S
C1872 H1876 0.930 . S
C1873 C1872 1.369 . S
C1873 C1882 1.429 . S
C1874 C1872 1.419 . S
C1874 C1875 1.363 . S
C1874 H1877 0.929 . S
C1875 C1874 1.363 . S
C1875 C1881 1.428 . S
H1876 C1872 0.930 . S
H1877 C1874 0.929 . S
S1878 N1879 1.613 . S
S1878 N1880 1.610 . S
N1879 S1878 1.613 . S
N1879 C1882 1.350 . S
N1880 S1878 1.610 . S
N1880 C1881 1.351 . S
C1881 C1875 1.428 . S
C1881 N1880 1.351 . S
C1881 C1882 1.434 . S
C1882 C1873 1.429 . S
C1882 N1879 1.350 . S
C1882 C1881 1.434 . S
C1883 C1884 1.369 . S
C1883 C1885 1.419 . S
C1883 H1887 0.930 . S
C1884 C1883 1.369 . S
C1884 C1893 1.429 . S
C1885 C1883 1.419 . S
C1885 C1886 1.363 . S
C1885 H1888 0.929 . S
C1886 C1885 1.363 . S
C1886 C1892 1.428 . S
H1887 C1883 0.930 . S
H1888 C1885 0.929 . S
S1889 N1890 1.613 . S
S1889 N1891 1.610 . S
N1890 S1889 1.613 . S
N1890 C1893 1.350 . S
N1891 S1889 1.610 . S
N1891 C1892 1.351 . S
C1892 C1886 1.428 . S
C1892 N1891 1.351 . S
C1892 C1893 1.434 . S
C1893 C1884 1.429 . S
C1893 N1890 1.350 . S
C1893 C1892 1.434 . S
C1894 C1895 1.369 . S
C1894 C1896 1.419 . S
C1894 H1898 0.930 . S
C1895 C1894 1.369 . S
C1895 C1904 1.429 . S
C1896 C1894 1.419 . S
C1896 C1897 1.363 . S
C1896 H1899 0.929 . S
C1897 C1896 1.363 . S
C1897 C1903 1.428 . S
H1898 C1894 0.930 . S
H1899 C1896 0.929 . S
S1900 N1901 1.613 . S
S1900 N1902 1.610 . S
N1901 S1900 1.613 . S
N1901 C1904 1.350 . S
N1902 S1900 1.610 . S
N1902 C1903 1.351 . S
C1903 C1897 1.428 . S
C1903 N1902 1.351 . S
C1903 C1904 1.434 . S
C1904 C1895 1.429 . S
C1904 N1901 1.350 . S
C1904 C1903 1.434 . S
C1905 C1906 1.369 . S
C1905 C1907 1.419 . S
C1905 H1909 0.930 . S
C1906 C1905 1.369 . S
C1906 C1915 1.429 . S
C1907 C1905 1.419 . S
C1907 C1908 1.363 . S
C1907 H1910 0.929 . S
C1908 C1907 1.363 . S
C1908 C1914 1.428 . S
H1909 C1905 0.930 . S
H1910 C1907 0.929 . S
S1911 N1912 1.613 . S
S1911 N1913 1.610 . S
N1912 S1911 1.613 . S
N1912 C1915 1.350 . S
N1913 S1911 1.610 . S
N1913 C1914 1.351 . S
C1914 C1908 1.428 . S
C1914 N1913 1.351 . S
C1914 C1915 1.434 . S
C1915 C1906 1.429 . S
C1915 N1912 1.350 . S
C1915 C1914 1.434 . S
C1916 C1917 1.369 . S
C1916 C1918 1.419 . S
C1916 H1920 0.930 . S
C1917 C1916 1.369 . S
C1917 C1926 1.429 . S
C1918 C1916 1.419 . S
C1918 C1919 1.363 . S
C1918 H1921 0.929 . S
C1919 C1918 1.363 . S
C1919 C1925 1.428 . S
H1920 C1916 0.930 . S
H1921 C1918 0.929 . S
S1922 N1923 1.613 . S
S1922 N1924 1.610 . S
N1923 S1922 1.613 . S
N1923 C1926 1.350 . S
N1924 S1922 1.610 . S
N1924 C1925 1.351 . S
C1925 C1919 1.428 . S
C1925 N1924 1.351 . S
C1925 C1926 1.434 . S
C1926 C1917 1.429 . S
C1926 N1923 1.350 . S
C1926 C1925 1.434 . S
C1927 C1928 1.369 . S
C1927 C1929 1.419 . S
C1927 H1931 0.930 . S
C1928 C1927 1.369 . S
C1928 C1937 1.429 . S
C1929 C1927 1.419 . S
C1929 C1930 1.363 . S
C1929 H1932 0.929 . S
C1930 C1929 1.363 . S
C1930 C1936 1.428 . S
H1931 C1927 0.930 . S
H1932 C1929 0.929 . S
S1933 N1934 1.613 . S
S1933 N1935 1.610 . S
N1934 S1933 1.613 . S
N1934 C1937 1.350 . S
N1935 S1933 1.610 . S
N1935 C1936 1.351 . S
C1936 C1930 1.428 . S
C1936 N1935 1.351 . S
C1936 C1937 1.434 . S
C1937 C1928 1.429 . S
C1937 N1934 1.350 . S
C1937 C1936 1.434 . S
C1938 C1939 1.369 . S
C1938 C1940 1.419 . S
C1938 H1942 0.930 . S
C1939 C1938 1.369 . S
C1939 C1948 1.429 . S
C1940 C1938 1.419 . S
C1940 C1941 1.363 . S
C1940 H1943 0.929 . S
C1941 C1940 1.363 . S
C1941 C1947 1.428 . S
H1942 C1938 0.930 . S
H1943 C1940 0.929 . S
S1944 N1945 1.613 . S
S1944 N1946 1.610 . S
N1945 S1944 1.613 . S
N1945 C1948 1.350 . S
N1946 S1944 1.610 . S
N1946 C1947 1.351 . S
C1947 C1941 1.428 . S
C1947 N1946 1.351 . S
C1947 C1948 1.434 . S
C1948 C1939 1.429 . S
C1948 N1945 1.350 . S
C1948 C1947 1.434 . S
C1949 C1950 1.369 . S
C1949 C1951 1.419 . S
C1949 H1953 0.930 . S
C1950 C1949 1.369 . S
C1950 C1959 1.429 . S
C1951 C1949 1.419 . S
C1951 C1952 1.363 . S
C1951 H1954 0.929 . S
C1952 C1951 1.363 . S
C1952 C1958 1.428 . S
H1953 C1949 0.930 . S
H1954 C1951 0.929 . S
S1955 N1956 1.613 . S
S1955 N1957 1.610 . S
N1956 S1955 1.613 . S
N1956 C1959 1.350 . S
N1957 S1955 1.610 . S
N1957 C1958 1.351 . S
C1958 C1952 1.428 . S
C1958 N1957 1.351 . S
C1958 C1959 1.434 . S
C1959 C1950 1.429 . S
C1959 N1956 1.350 . S
C1959 C1958 1.434 . S
C907 N364 1.846 . S
C905 C7 1.827 . S
C918 C391 1.530 . S
C916 C19 1.514 . S
C927 C29 1.780 . S
C929 C405 1.792 . S
C940 N423 1.231 . S
C938 C41 1.231 . S
C949 C52 1.550 . S
C951 C428 1.541 . S
C960 C62 1.574 . S
C962 C368 1.611 1_556 S
C971 C73 1.197 . S
C973 N387 1.188 . S
C984 N400 1.723 . S
C982 C82 1.483 . S
C995 N446 1.705 . S
C993 C5 1.471 . S
C1004 C16 1.490 . S
C1006 N469 1.626 . S
C1015 C30 1.591 . S
C1017 N492 1.520 . S
C1028 N525 1.221 . S
C1026 C40 1.225 . S
C1037 C49 1.345 . S
C1039 C552 1.502 . S
C1050 C575 1.521 . S
C1048 C63 1.544 . S
C1059 C74 1.310 . S
C1061 C598 1.337 . S
C1072 C612 1.564 1_565 S
C1070 C85 1.531 . S
C1081 C8 1.602 . S
C1083 C529 1.636 . S
C1092 C51 1.546 . S
C1094 N571 1.553 . S
C1105 N594 1.681 . S
C1103 C60 1.593 . S
C1114 C71 1.079 . S
C1116 N607 1.263 . S
C1127 N548 1.828 . S
C1125 C84 1.787 . S
C1138 C474 1.635 . S
C1136 C27 1.482 . S
C1147 C38 1.129 . S
C1149 C497 1.301 . S
C1160 C451 1.698 . S
C1158 C18 1.673 . S
C1171 C644 1.922 . S
C1169 C95 1.785 . S
C1180 C107 1.467 . S
C1182 C658 1.472 . S
C1191 C117 1.753 . S
C1193 N686 1.686 . S
C1204 N699 1.322 . S
C1202 C129 1.319 . S
C1213 C140 1.507 . S
C1215 C704 1.499 . S
C1224 C150 1.559 . S
C1226 N640 1.527 . S
C1235 C161 1.269 . S
C1237 N653 1.284 . S
C1246 C170 1.480 . S
C1248 C690 1.750 . S
C1259 N538 1.690 . S
C1257 C93 1.459 . S
C1268 C104 1.449 . S
C1270 N722 1.568 . S
C1281 N584 1.546 . S
C1279 C118 1.644 . S
C1290 C128 1.142 . S
C1292 C759 1.153 . S
C1301 C137 1.377 . S
C1303 C460 1.531 . S
C1314 C773 1.526 . S
C1312 C151 1.529 . S
C1323 C162 1.242 . S
C1325 C506 1.280 1_655 S
C1336 N791 1.501 . S
C1334 C173 1.500 . S
C1345 C96 1.546 . S
C1347 N755 1.536 . S
C1358 N768 1.560 . S
C1356 C139 1.587 . S
C1367 C148 1.486 . S
C1369 N502 1.594 . S
C1380 C796 1.243 . S
C1378 C159 1.047 . S
C1389 C172 1.800 . S
C1391 N456 1.829 . S
C1400 C115 1.406 . S
C1402 C727 1.548 . S
C1411 C126 1.282 . S
C1413 C589 1.447 . S
C1422 C106 1.707 . S
C1424 C543 1.728 . S
C1433 C183 1.869 . S
C1435 C681 1.978 . S
C1446 C713 1.414 . S
C1444 C195 1.409 . S
C1455 C205 1.726 . S
C1457 N630 1.702 . S
C1466 C217 1.243 . S
C1468 N663 1.215 . S
C1477 C228 1.586 . S
C1479 C667 1.564 . S
C1488 C238 1.587 . S
C1490 N676 1.603 . S
C1501 N709 1.159 . S
C1499 C249 1.179 . S
C1510 C258 1.553 . S
C1512 C635 1.815 . S
C1523 N824 1.702 . S
C1521 C181 1.488 . S
C1532 C192 1.401 . S
C1534 N561 1.533 . S
C1545 N847 1.500 . S
C1543 C206 1.521 . S
C1554 C216 1.198 . S
C1556 N617 1.211 . S
C1565 C225 1.369 . S
C1567 C865 1.540 . S
C1576 C239 1.610 . S
C1578 C483 1.588 . S
C1589 N883 1.269 . S
C1587 C250 1.217 . S
C1598 C261 1.600 . S
C1600 C520 1.617 . S
C1611 C621 1.635 . S
C1609 C184 1.604 . S
C1622 N479 1.601 . S
C1620 C227 1.624 . S
C1631 C236 1.651 . S
C1633 C888 1.804 . S
C1642 C247 1.029 . S
C1644 N515 1.182 . S
C1655 N860 1.950 . S
C1653 C260 1.843 . S
C1666 C566 1.525 . S
C1664 C203 1.401 . S
C1677 C851 1.476 . S
C1675 C214 1.277 . S
C1688 C828 1.683 . S
C1686 C194 1.657 . S
C1697 C271 1.707 . S
C1699 N410 1.753 . S
C1708 C283 1.432 . S
C1710 C437 1.443 . S
C1721 C359 1.860 . S
C1719 C293 1.850 . S
C1732 N377 1.246 . S
C1730 C305 1.238 . S
C1743 C382 1.551 . S
C1741 C316 1.569 . S
C1754 C414 1.565 1_556 S
C1752 C326 1.567 . S
C1765 N433 1.293 . S
C1763 C337 1.322 . S
C1774 C346 1.486 . S
C1776 N354 1.746 1_556 S
C1785 C269 1.406 . S
C1787 N870 1.643 . S
C1798 N778 1.562 . S
C1796 C280 1.410 . S
C1809 C897 1.690 . S
C1807 C294 1.735 . S
C1820 C805 1.059 . S
C1818 C304 1.090 . S
C1829 C313 1.374 . S
C1831 C819 1.532 . S
C1842 C736 1.505 . S
C1840 C327 1.536 . S
C1853 C842 1.385 . S
C1851 C338 1.396 . S
C1862 C349 1.509 . S
C1864 N745 1.510 . S
C1875 N801 1.476 . S
C1873 C272 1.491 . S
C1886 N732 1.543 . S
C1884 C315 1.538 . S
C1897 N837 1.517 . S
C1895 C324 1.446 . S
C1906 C335 1.092 . S
C1908 C750 1.286 . S
C1917 C348 1.766 . S
C1919 N814 1.858 . S
C1928 C291 1.493 . S
C1930 C782 1.639 . S
C1939 C302 1.158 . S
C1941 N893 1.292 . S
C1952 C874 1.655 . S
C1950 C282 1.644 . S
