# Generated by pormake.
# Topology scu, (8,4)-cn, num edge types: 1
# Building blocks:
#     Node 0, Type 0, BuildingBlock: GIZVER_clean_sbu_0, # of connection points: 8
#     Node 1, Type 1, BuildingBlock: KOZSID_clean_sbu_0, # of connection points: 4
#     Node 2, Type 1, BuildingBlock: KOZSID_clean_sbu_0, # of connection points: 4
#     Edge 3, Type (0, 1), BuildingBlock: KIFKEQ_clean_linker_1, # of connection points: 2
#     Edge 4, Type (0, 1), BuildingBlock: KIFKEQ_clean_linker_1, # of connection points: 2
#     Edge 5, Type (0, 1), BuildingBlock: KIFKEQ_clean_linker_1, # of connection points: 2
#     Edge 6, Type (0, 1), BuildingBlock: KIFKEQ_clean_linker_1, # of connection points: 2
#     Edge 7, Type (0, 1), BuildingBlock: KIFKEQ_clean_linker_1, # of connection points: 2
#     Edge 8, Type (0, 1), BuildingBlock: KIFKEQ_clean_linker_1, # of connection points: 2
#     Edge 9, Type (0, 1), BuildingBlock: KIFKEQ_clean_linker_1, # of connection points: 2
#     Edge 10, Type (0, 1), BuildingBlock: KIFKEQ_clean_linker_1, # of connection points: 2
# Relax obj value: 0.045
# Max RMSD: 0.113
# Mean RMSD: 0.103
data_MOF--net-scu--node1-GIZVER_clean_sbu_0--node2-KOZSID_clean_sbu_0--edge1-KIFKEQ_clean_linker_1
_symmetry_space_group_name_H-M    P1
_symmetry_Int_Tables_number       1
_symmetry_cell_setting            triclinic
loop_
_symmetry_equiv_pos_as_xyz
'x, y, z'
_cell_length_a     26.9803
_cell_length_b     27.630554
_cell_length_c     24.215155
_cell_angle_alpha  95.135624
_cell_angle_beta   78.932865
_cell_angle_gamma 111.76606
loop_
_atom_site_label
_atom_site_type_symbol
_atom_site_fract_x
_atom_site_fract_y
_atom_site_fract_z
_atom_type_partial_charge
Co0 Co 0.01632 0.94548 0.12949 0.0
Co1 Co 0.10197 0.02136 0.08613 0.0
Co2 Co 0.00885 0.01259 1.01842 0.0
O3 O 0.04439 0.97499 0.05529 0.0
H4 H 0.05693 0.95179 0.02908 0.0
O5 O 0.97342 0.05033 0.98168 0.0
Co6 Co 1.00123 0.08005 0.90761 0.0
Co7 Co 0.91602 1.00419 0.95085 0.0
H8 H 0.96079 0.07342 1.00799 0.0
O9 O 0.15842 1.00215 0.09228 0.0
O10 O 0.08318 0.99338 0.15701 0.0
O11 O 0.10874 0.09312 0.09557 0.0
O12 O 0.03119 0.07874 0.06629 0.0
O13 O 0.07685 0.03878 0.96089 0.0
O14 O 0.02494 0.11174 0.84149 0.0
O15 O 0.9736 0.13244 0.91743 0.0
O16 O 0.03641 0.03102 0.887 0.0
O17 O 0.98645 0.94641 0.97057 0.0
O18 O 0.90899 0.93241 0.94126 0.0
O19 O 0.9339 0.03254 0.88029 0.0
O20 O 0.85949 0.02352 0.94655 0.0
C21 C 0.01837 0.88404 0.17199 0.0
C22 C 0.94006 0.99186 0.12896 0.0
C23 C 0.0704 0.10757 0.09075 0.0
C24 C 0.13114 0.99016 0.14272 0.0
C25 C 0.99912 0.14165 0.86547 0.0
C26 C 0.07731 0.03319 0.90772 0.0
C27 C 0.94715 0.91772 0.94613 0.0
C28 C 0.88603 0.03586 0.89588 0.0
O29 O 0.99244 0.91393 0.19571 0.0
O30 O 0.04416 0.89324 0.12012 0.0
O31 O 0.94072 0.98632 0.07578 0.0
O32 O 0.98101 0.99439 0.14974 0.0
C33 C 0.06582 0.60426 0.43834 0.0
C34 C 0.11715 0.63937 0.41827 0.0
C35 C 0.15253 0.62783 0.44329 0.0
C36 C 0.12098 0.58652 0.47716 0.0
N37 N 0.06749 0.57079 0.47531 0.0
Co38 Co 0.0076 0.51215 0.51861 0.0
N39 N 0.05983 0.49544 0.55574 0.0
C40 C 0.11423 0.52026 0.54818 0.0
C41 C 0.13962 0.50031 0.57896 0.0
C42 C 0.09909 0.46021 0.60793 0.0
C43 C 0.05108 0.45792 0.59305 0.0
N44 N 0.94771 0.45353 0.56193 0.0
C45 C 0.94938 0.42009 0.59894 0.0
C46 C 0.89804 0.385 0.61903 0.0
C47 C 0.86267 0.39652 0.59399 0.0
C48 C 0.89422 0.4378 0.56008 0.0
N49 N 0.95538 0.52886 0.48147 0.0
C50 C 0.90098 0.50403 0.489 0.0
C51 C 0.8756 0.52399 0.45824 0.0
C52 C 0.91611 0.56413 0.42931 0.0
C53 C 0.96413 0.56642 0.4442 0.0
N54 N 0.01589 0.46256 0.45568 0.0
C55 C 0.0277 0.39108 0.36738 0.0
C56 C 0.97671 0.39244 0.39133 0.0
C57 C 0.97177 0.42793 0.43508 0.0
C58 C 0.07266 0.4266 0.38834 0.0
C59 C 0.06594 0.46174 0.43179 0.0
N60 N 0.99932 0.56175 0.58154 0.0
C61 C 0.94264 0.59783 0.64886 0.0
C62 C 0.98766 0.6333 0.66981 0.0
C63 C 0.03859 0.6318 0.64589 0.0
C64 C 0.04346 0.5963 0.60216 0.0
C65 C 0.9493 0.56265 0.60542 0.0
H66 H 0.08344 0.59765 0.58572 0.0
H67 H 0.91331 0.5368 0.59165 0.0
H68 H 0.93177 0.4265 0.45155 0.0
H69 H 0.10191 0.48763 0.44554 0.0
C70 C 0.14032 0.56195 0.51147 0.0
C71 C 0.01683 0.60504 0.42161 0.0
C72 C 0.99837 0.41935 0.6157 0.0
C73 C 0.8749 0.46235 0.52574 0.0
H74 H 0.12787 0.67032 0.38878 0.0
H75 H 0.19607 0.64739 0.43766 0.0
H76 H 0.18252 0.5133 0.58008 0.0
H77 H 0.10427 0.43539 0.63678 0.0
H78 H 0.88732 0.35407 0.64856 0.0
H79 H 0.81913 0.37696 0.59962 0.0
H80 H 0.83269 0.511 0.45712 0.0
H81 H 0.91094 0.58898 0.4005 0.0
H82 H 0.9405 0.3665 0.37625 0.0
H83 H 0.11307 0.4269 0.37212 0.0
H84 H 0.90227 0.59762 0.6651 0.0
H85 H 0.07483 0.65767 0.66098 0.0
C86 C 0.41366 0.96565 0.61613 0.0
C87 C 0.38112 0.91916 0.64264 0.0
C88 C 0.39762 0.88117 0.61476 0.0
C89 C 0.43926 0.90647 0.57312 0.0
N90 N 0.45106 0.95854 0.57314 0.0
Co91 Co 0.50751 1.00963 0.51825 0.0
N92 N 0.53029 0.95326 0.47565 0.0
C93 C 0.51003 0.90202 0.48803 0.0
C94 C 0.53561 0.8731 0.45372 0.0
C95 C 0.57508 0.90792 0.41757 0.0
C96 C 0.57109 0.95634 0.43165 0.0
N97 N 0.56297 0.0605 0.46255 0.0
C98 C 0.59964 0.05332 0.41881 0.0
C99 C 0.63011 0.09933 0.39046 0.0
C100 C 0.61305 0.13713 0.41795 0.0
C101 C 0.573 0.11214 0.46107 0.0
N102 N 0.48568 0.06617 0.56165 0.0
C103 C 0.50775 0.11774 0.55086 0.0
C104 C 0.48381 0.1471 0.58669 0.0
C105 C 0.44375 0.11228 0.62237 0.0
C106 C 0.44564 0.06336 0.60637 0.0
N107 N 0.56289 0.02106 0.5664 0.0
C108 C 0.64198 0.03643 0.63376 0.0
C109 C 0.64032 0.07815 0.60666 0.0
C110 C 0.60049 0.06971 0.5737 0.0
C111 C 0.60385 0.98693 0.62618 0.0
C112 C 0.56517 0.98016 0.59254 0.0
N113 N 0.45203 0.99814 0.47024 0.0
C114 C 0.40194 0.03195 0.4214 0.0
C115 C 0.3689 0.98159 0.40774 0.0
C116 C 0.37879 0.93967 0.4251 0.0
C117 C 0.42022 0.94875 0.45596 0.0
C118 C 0.44296 0.03927 0.45225 0.0
H119 H 0.42534 0.91512 0.46819 0.0
H120 H 0.4666 0.07859 0.46121 0.0
H121 H 0.60089 0.10318 0.55474 0.0
H122 H 0.53766 0.94141 0.58835 0.0
C123 C 0.46789 0.88245 0.53315 0.0
C124 C 0.40673 0.01524 0.63297 0.0
C125 C 0.60837 1.00434 0.4035 0.0
C126 C 0.54719 0.13672 0.50344 0.0
H127 H 0.34847 0.91323 0.6782 0.0
H128 H 0.38089 0.83993 0.62345 0.0
H129 H 0.5273 0.83177 0.45556 0.0
H130 H 0.60415 0.89867 0.38528 0.0
H131 H 0.6621 0.10517 0.35425 0.0
H132 H 0.62896 0.17821 0.40854 0.0
H133 H 0.49303 0.18866 0.58565 0.0
H134 H 0.41544 0.12187 0.65534 0.0
H135 H 0.66884 0.11731 0.6118 0.0
H136 H 0.604 0.95329 0.64587 0.0
H137 H 0.3967 0.06579 0.40781 0.0
H138 H 0.35417 0.89988 0.41571 0.0
H139 H 0.14942 0.18518 0.13756 0.0
H140 H 0.98253 0.13763 0.11569 0.0
H141 H 0.13902 0.25641 0.20011 0.0
H142 H 0.97239 0.20891 0.17815 0.0
H143 H 0.11011 0.40431 0.27642 0.0
H144 H 0.12166 0.33994 0.20432 0.0
H145 H 0.97046 0.22629 0.28159 0.0
H146 H 0.95944 0.28982 0.35458 0.0
C147 C 0.1108 0.1904 0.14527 0.0
C148 C 0.06682 0.15549 0.1216 0.0
C149 C 0.1049 0.23134 0.18105 0.0
C150 C 0.05474 0.23803 0.19449 0.0
C151 C 0.01136 0.20439 0.16917 0.0
C152 C 0.01739 0.1638 0.13292 0.0
C153 C 0.07948 0.3655 0.27847 0.0
C154 C 0.03386 0.35247 0.32173 0.0
C155 C 0.08605 0.32868 0.23689 0.0
C156 C 0.04692 0.27806 0.23711 0.0
C157 C 1.00093 0.26521 0.27969 0.0
C158 C 0.9946 0.30181 0.32155 0.0
H159 H 0.92089 0.99178 0.24393 0.0
H160 H 0.84852 0.99982 0.10228 0.0
H161 H 0.84132 0.99543 0.30809 0.0
H162 H 0.76899 1.00512 0.16696 0.0
H163 H 0.6113 0.95812 0.29855 0.0
H164 H 0.69093 0.95603 0.23129 0.0
H165 H 0.79442 0.05097 0.34641 0.0
H166 H 0.7145 0.05088 0.41401 0.0
C167 C 0.88818 0.99483 0.22635 0.0
C168 C 0.89135 0.99548 0.16771 0.0
C169 C 0.84244 0.99728 0.26338 0.0
C170 C 0.79842 1.00084 0.24308 0.0
C171 C 0.80164 1.00173 0.18433 0.0
C172 C 0.84745 0.99898 0.14714 0.0
C173 C 0.65122 0.97824 0.30926 0.0
C174 C 0.65689 1.00411 0.3616 0.0
C175 C 0.69693 0.97754 0.2706 0.0
C176 C 0.74948 1.00308 0.28325 0.0
C177 C 0.75481 0.02991 0.33541 0.0
C178 C 0.70911 0.03026 0.37409 0.0
H179 H 0.08603 0.82726 0.15053 0.0
H180 H 0.95263 0.84468 0.27027 0.0
H181 H 0.08849 0.76091 0.20981 0.0
H182 H 0.95386 0.77808 0.32809 0.0
H183 H 0.99964 0.69562 0.45151 0.0
H184 H 1.00291 0.7629 0.39038 0.0
H185 H 0.0432 0.67384 0.24435 0.0
H186 H 0.04144 0.60747 0.30646 0.0
C187 C 0.05688 0.81659 0.18909 0.0
C188 C 0.01924 0.84154 0.2055 0.0
C189 C 0.05815 0.7784 0.22316 0.0
C190 C 0.02167 0.76406 0.27441 0.0
C191 C 0.98356 0.78861 0.28993 0.0
C192 C 0.98257 0.82677 0.25629 0.0
C193 C 0.00942 0.69076 0.40633 0.0
C194 C 0.02018 0.64648 0.38363 0.0
C195 C 0.01094 0.72908 0.37106 0.0
C196 C 0.02285 0.72399 0.31193 0.0
C197 C 0.0344 0.67968 0.28944 0.0
C198 C 0.03308 0.64142 0.3249 0.0
H199 H 0.22354 0.96862 0.12283 0.0
H200 H 0.09744 0.981 0.25711 0.0
H201 H 0.27316 0.95759 0.19127 0.0
H202 H 0.14729 0.96918 0.32617 0.0
H203 H 0.29821 0.03313 0.41843 0.0
H204 H 0.2329 0.02509 0.35791 0.0
H205 H 0.27435 0.90149 0.26269 0.0
H206 H 0.34108 0.91082 0.3219 0.0
C207 C 0.20599 0.96828 0.16702 0.0
C208 C 0.15699 0.97663 0.18459 0.0
C209 C 0.23429 0.96146 0.2063 0.0
C210 C 0.21435 0.96284 0.26418 0.0
C211 C 0.16398 0.96861 0.28181 0.0
C212 C 0.13538 0.97517 0.24231 0.0
C213 C 0.29331 1.00419 0.38462 0.0
C214 C 0.32538 0.97312 0.3745 0.0
C215 C 0.25532 0.99905 0.35046 0.0
C216 C 0.24862 0.96279 0.30536 0.0
C217 C 0.27898 0.93015 0.29678 0.0
C218 C 0.31694 0.93524 0.33097 0.0
H219 H 0.86764 0.84026 0.89985 0.0
H220 H 0.03465 0.8871 0.921 0.0
H221 H 0.8774 0.76874 0.83742 0.0
H222 H 0.04415 0.8155 0.85868 0.0
H223 H 0.90534 0.62043 0.76084 0.0
H224 H 0.89427 0.68496 0.83299 0.0
H225 H 0.04564 0.79812 0.75534 0.0
H226 H 0.05618 0.73446 0.68235 0.0
C227 C 0.90615 0.83482 0.89201 0.0
C228 C 0.95037 0.86963 0.91541 0.0
C229 C 0.91168 0.7937 0.8563 0.0
C230 C 0.96169 0.78673 0.84269 0.0
C231 C 1.00529 0.82025 0.86779 0.0
C232 C 0.99963 0.86102 0.90396 0.0
C233 C 0.93611 0.65916 0.75873 0.0
C234 C 0.98165 0.67201 0.71539 0.0
C235 C 0.92981 0.69607 0.80033 0.0
C236 C 0.96916 0.74659 0.80004 0.0
C237 C 0.01502 0.75926 0.75733 0.0
C238 C 0.02108 0.72259 0.71545 0.0
H239 H 0.16693 0.02106 0.93415 0.0
H240 H 0.09767 0.03607 0.79287 0.0
H241 H 0.24576 0.01434 0.86939 0.0
H242 H 0.17667 0.03117 0.72863 0.0
H243 H 0.30071 0.97331 0.62098 0.0
H244 H 0.22126 0.97456 0.68851 0.0
H245 H 0.32522 0.06204 0.8066 0.0
H246 H 0.40423 0.05842 0.7394 0.0
C247 C 0.16857 0.02317 0.88935 0.0
C248 C 0.12571 0.02897 0.8689 0.0
C249 C 0.214 0.01961 0.85211 0.0
C250 C 0.21792 0.02204 0.79342 0.0
C251 C 0.17497 0.02802 0.77325 0.0
C252 C 0.12956 0.03119 0.81033 0.0
C253 C 0.30629 0.99254 0.66155 0.0
C254 C 0.35847 0.01614 0.67489 0.0
C255 C 0.26087 0.9937 0.70021 0.0
C256 C 0.26646 0.01886 0.7532 0.0
C257 C 0.31895 0.04184 0.76666 0.0
C258 C 0.36436 0.04026 0.72804 0.0
H259 H 0.06487 0.18155 0.76741 0.0
H260 H 0.93075 0.19769 0.88702 0.0
H261 H 0.06292 0.24779 0.70956 0.0
H262 H 0.92759 0.26368 0.82772 0.0
H263 H 0.97343 0.41688 0.73083 0.0
H264 H 0.97218 0.35084 0.79307 0.0
H265 H 0.0133 0.26203 0.64722 0.0
H266 H 0.01605 0.32898 0.58595 0.0
C267 C 0.03464 0.19912 0.78137 0.0
C268 C 0.99797 0.18409 0.83211 0.0
C269 C 0.03323 0.23706 0.74771 0.0
C270 C 0.99469 0.26111 0.76317 0.0
C271 C 0.95824 0.24656 0.81441 0.0
C272 C 0.95993 0.20859 0.8485 0.0
C273 C 0.98205 0.38304 0.71245 0.0
C274 C 0.99506 0.37797 0.65374 0.0
C275 C 0.98104 0.34498 0.74799 0.0
C276 C 0.99303 0.30087 0.72558 0.0
C277 C 1.00496 0.29572 0.66646 0.0
C278 C 1.00617 0.33384 0.63112 0.0
H279 H 0.79951 0.06644 0.92012 0.0
H280 H 0.91173 0.03714 0.78033 0.0
H281 H 0.74532 0.07552 0.8552 0.0
H282 H 0.85643 0.04546 0.71492 0.0
H283 H 0.75126 0.09312 0.61415 0.0
H284 H 0.81676 0.1032 0.67618 0.0
H285 H 0.68751 1.0064 0.79882 0.0
H286 H 0.62263 0.99716 0.73783 0.0
C287 C 0.8129 0.06237 0.87541 0.0
C288 C 0.85913 0.04975 0.85537 0.0
C289 C 0.78176 0.06752 0.83824 0.0
C290 C 0.79594 0.05997 0.78014 0.0
C291 C 0.84447 0.05134 0.75957 0.0
C292 C 0.87597 0.04638 0.79697 0.0
C293 C 0.73702 0.07453 0.65467 0.0
C294 C 0.68193 0.04423 0.67118 0.0
C295 C 0.77447 0.07999 0.68987 0.0
C296 C 0.75718 0.05588 0.74244 0.0
C297 C 0.70199 0.02612 0.75894 0.0
C298 C 0.66487 0.02033 0.72375 0.0
loop_
_geom_bond_atom_site_label_1
_geom_bond_atom_site_label_2
_geom_bond_distance
_geom_bond_site_symmetry_2
_ccdc_geom_bond_type
Co0 O3 2.042 1_655 S
Co0 O10 2.264 1_655 S
Co0 O29 2.286 . S
Co0 O30 2.069 1_655 S
Co0 O32 2.015 . S
Co1 O3 2.122 1_545 S
Co1 O9 2.073 . S
Co1 O10 2.327 1_545 S
Co1 O11 1.976 . S
Co2 O3 2.100 1_545 S
Co2 O5 2.074 1_454 S
Co2 O12 2.127 . S
Co2 O13 2.148 1_554 S
Co2 O17 2.095 1_444 S
Co2 O31 2.139 1_445 S
O3 Co0 2.042 1_455 S
O3 Co1 2.122 1_565 S
O3 Co2 2.100 1_565 S
O3 H4 0.980 . S
H4 O3 0.980 . S
O5 Co2 2.074 1_656 S
O5 Co6 2.042 1_655 S
O5 Co7 2.122 1_545 S
O5 H8 0.980 . S
Co6 O5 2.042 1_455 S
Co6 O14 2.286 . S
Co6 O15 2.069 1_455 S
Co6 O16 2.015 . S
Co6 O19 2.264 1_455 S
Co7 O5 2.122 1_565 S
Co7 O18 1.976 . S
Co7 O19 2.327 1_565 S
Co7 O20 2.073 . S
H8 O5 0.980 . S
O9 Co1 2.073 . S
O9 C24 1.245 1_545 S
O10 Co0 2.264 1_455 S
O10 Co1 2.327 1_565 S
O10 C24 1.257 . S
O11 Co1 1.976 . S
O11 C23 1.251 . S
O12 Co2 2.127 . S
O12 C23 1.274 . S
O13 Co2 2.148 1_556 S
O13 C26 1.246 . S
O14 Co6 2.286 . S
O14 C25 1.259 1_455 S
O15 Co6 2.069 1_655 S
O15 C25 1.289 . S
O16 Co6 2.015 . S
O16 C26 1.257 . S
O17 Co2 2.095 1_666 S
O17 C27 1.274 . S
O18 Co7 1.976 . S
O18 C27 1.251 . S
O19 Co6 2.264 1_655 S
O19 Co7 2.327 1_545 S
O19 C28 1.257 . S
O20 Co7 2.073 . S
O20 C28 1.245 1_565 S
C21 O29 1.259 1_455 S
C21 O30 1.289 . S
C22 O31 1.246 . S
C22 O32 1.257 . S
C23 O11 1.251 . S
C23 O12 1.274 . S
C24 O9 1.245 1_565 S
C24 O10 1.257 . S
C25 O14 1.259 1_655 S
C25 O15 1.289 . S
C26 O13 1.246 . S
C26 O16 1.257 . S
C27 O17 1.274 . S
C27 O18 1.251 . S
C28 O19 1.257 . S
C28 O20 1.245 1_545 S
O29 Co0 2.286 . S
O29 C21 1.259 1_655 S
O30 Co0 2.069 1_455 S
O30 C21 1.289 . S
O31 Co2 2.139 1_665 S
O31 C22 1.246 . S
O32 Co0 2.015 . S
O32 C22 1.257 . S
C33 C34 1.443 . S
C33 N37 1.376 . S
C33 C71 1.389 . S
C34 C33 1.443 . S
C34 C35 1.340 . S
C34 H74 0.951 . S
C35 C34 1.340 . S
C35 C36 1.439 . S
C35 H75 0.950 . S
C36 C35 1.439 . S
C36 N37 1.374 . S
C36 C70 1.395 . S
N37 C33 1.376 . S
N37 C36 1.374 . S
N37 Co38 2.014 . S
Co38 N37 2.014 . S
Co38 N39 2.009 . S
Co38 N44 2.002 1_455 S
Co38 N49 1.980 1_455 S
Co38 N54 2.286 . S
Co38 N60 2.279 1_455 S
N39 Co38 2.009 . S
N39 C40 1.376 . S
N39 C43 1.383 . S
C40 N39 1.376 . S
C40 C41 1.446 . S
C40 C70 1.391 . S
C41 C40 1.446 . S
C41 C42 1.339 . S
C41 H76 0.949 . S
C42 C41 1.339 . S
C42 C43 1.439 . S
C42 H77 0.950 . S
C43 N39 1.383 . S
C43 C42 1.439 . S
C43 C72 1.391 . S
N44 Co38 2.002 1_655 S
N44 C45 1.376 . S
N44 C48 1.374 . S
C45 N44 1.376 . S
C45 C46 1.443 . S
C45 C72 1.391 1_655 S
C46 C45 1.443 . S
C46 C47 1.340 . S
C46 H78 0.951 . S
C47 C46 1.340 . S
C47 C48 1.439 . S
C47 H79 0.950 . S
C48 N44 1.374 . S
C48 C47 1.439 . S
C48 C73 1.395 . S
N49 Co38 1.980 1_655 S
N49 C50 1.376 . S
N49 C53 1.383 . S
C50 N49 1.376 . S
C50 C51 1.446 . S
C50 C73 1.391 . S
C51 C50 1.446 . S
C51 C52 1.339 . S
C51 H80 0.949 . S
C52 C51 1.339 . S
C52 C53 1.439 . S
C52 H81 0.950 . S
C53 N49 1.383 . S
C53 C52 1.439 . S
C53 C71 1.392 1_655 S
N54 Co38 2.286 . S
N54 C57 1.332 1_455 S
N54 C59 1.332 . S
C55 C56 1.386 1_455 S
C55 C58 1.388 . S
C56 C55 1.386 1_655 S
C56 C57 1.382 . S
C56 H82 0.950 . S
C57 N54 1.332 1_655 S
C57 C56 1.382 . S
C57 H68 0.952 . S
C58 C55 1.388 . S
C58 C59 1.382 . S
C58 H83 0.950 . S
C59 N54 1.332 . S
C59 C58 1.382 . S
C59 H69 0.948 . S
N60 Co38 2.279 1_655 S
N60 C64 1.332 1_655 S
N60 C65 1.332 . S
C61 C62 1.387 1_655 S
C61 C65 1.382 . S
C61 H84 0.950 . S
C62 C61 1.387 1_455 S
C62 C63 1.386 . S
C63 C62 1.386 . S
C63 C64 1.382 . S
C63 H85 0.950 . S
C64 N60 1.332 1_455 S
C64 C63 1.382 . S
C64 H66 0.952 . S
C65 N60 1.332 . S
C65 C61 1.382 . S
C65 H67 0.948 . S
H66 C64 0.952 . S
H67 C65 0.948 . S
H68 C57 0.952 . S
H69 C59 0.948 . S
C70 C36 1.395 . S
C70 C40 1.391 . S
C71 C33 1.389 . S
C71 C53 1.392 1_455 S
C72 C43 1.391 . S
C72 C45 1.391 1_455 S
C73 C48 1.395 . S
C73 C50 1.391 . S
H74 C34 0.951 . S
H75 C35 0.950 . S
H76 C41 0.949 . S
H77 C42 0.950 . S
H78 C46 0.951 . S
H79 C47 0.950 . S
H80 C51 0.949 . S
H81 C52 0.950 . S
H82 C56 0.950 . S
H83 C58 0.950 . S
H84 C61 0.950 . S
H85 C63 0.950 . S
C86 C87 1.443 . S
C86 N90 1.376 . S
C86 C124 1.391 1_565 S
C87 C86 1.443 . S
C87 C88 1.340 . S
C87 H127 0.951 . S
C88 C87 1.340 . S
C88 C89 1.439 . S
C88 H128 0.950 . S
C89 C88 1.439 . S
C89 N90 1.374 . S
C89 C123 1.395 . S
N90 C86 1.376 . S
N90 C89 1.374 . S
N90 Co91 2.001 1_565 S
Co91 N90 2.001 1_545 S
Co91 N92 1.983 1_545 S
Co91 N97 2.015 . S
Co91 N102 2.007 . S
Co91 N107 2.277 1_545 S
Co91 N113 2.288 . S
N92 Co91 1.983 1_565 S
N92 C93 1.376 . S
N92 C96 1.383 . S
C93 N92 1.376 . S
C93 C94 1.446 . S
C93 C123 1.391 . S
C94 C93 1.446 . S
C94 C95 1.339 . S
C94 H129 0.949 . S
C95 C94 1.339 . S
C95 C96 1.439 . S
C95 H130 0.950 . S
C96 N92 1.383 . S
C96 C95 1.439 . S
C96 C125 1.392 1_565 S
N97 Co91 2.015 . S
N97 C98 1.376 . S
N97 C101 1.374 . S
C98 N97 1.376 . S
C98 C99 1.443 . S
C98 C125 1.389 . S
C99 C98 1.443 . S
C99 C100 1.340 . S
C99 H131 0.951 . S
C100 C99 1.340 . S
C100 C101 1.439 . S
C100 H132 0.950 . S
C101 N97 1.374 . S
C101 C100 1.439 . S
C101 C126 1.395 . S
N102 Co91 2.007 . S
N102 C103 1.376 . S
N102 C106 1.383 . S
C103 N102 1.376 . S
C103 C104 1.446 . S
C103 C126 1.391 . S
C104 C103 1.446 . S
C104 C105 1.339 . S
C104 H133 0.949 . S
C105 C104 1.339 . S
C105 C106 1.439 . S
C105 H134 0.950 . S
C106 N102 1.383 . S
C106 C105 1.439 . S
C106 C124 1.390 . S
N107 Co91 2.277 1_565 S
N107 C110 1.332 1_565 S
N107 C112 1.332 . S
C108 C109 1.386 . S
C108 C111 1.388 1_545 S
C109 C108 1.386 . S
C109 C110 1.382 . S
C109 H135 0.950 . S
C110 N107 1.332 1_545 S
C110 C109 1.382 . S
C110 H121 0.952 . S
C111 C108 1.388 1_565 S
C111 C112 1.382 . S
C111 H136 0.950 . S
C112 N107 1.332 . S
C112 C111 1.382 . S
C112 H122 0.948 . S
N113 Co91 2.288 . S
N113 C117 1.332 1_545 S
N113 C118 1.332 . S
C114 C115 1.388 . S
C114 C118 1.382 . S
C114 H137 0.950 . S
C115 C114 1.388 . S
C115 C116 1.386 1_545 S
C116 C115 1.386 1_565 S
C116 C117 1.382 . S
C116 H138 0.950 . S
C117 N113 1.332 1_565 S
C117 C116 1.382 . S
C117 H119 0.952 . S
C118 N113 1.332 . S
C118 C114 1.382 . S
C118 H120 0.948 . S
H119 C117 0.952 . S
H120 C118 0.948 . S
H121 C110 0.952 . S
H122 C112 0.948 . S
C123 C89 1.395 . S
C123 C93 1.391 . S
C124 C86 1.391 1_545 S
C124 C106 1.390 . S
C125 C96 1.392 1_545 S
C125 C98 1.389 . S
C126 C101 1.395 . S
C126 C103 1.391 . S
H127 C87 0.951 . S
H128 C88 0.950 . S
H129 C94 0.949 . S
H130 C95 0.950 . S
H131 C99 0.951 . S
H132 C100 0.950 . S
H133 C104 0.949 . S
H134 C105 0.950 . S
H135 C109 0.950 . S
H136 C111 0.950 . S
H137 C114 0.950 . S
H138 C116 0.950 . S
H139 C147 0.950 . S
H140 C152 0.950 . S
H141 C149 0.950 . S
H142 C151 0.950 . S
H143 C153 0.950 . S
H144 C155 0.950 . S
H145 C157 0.950 . S
H146 C158 0.950 . S
C147 H139 0.950 . S
C147 C148 1.386 1_655 S
C147 C149 1.391 . S
C148 C147 1.386 1_455 S
C148 C152 1.393 . S
C149 H141 0.950 . S
C149 C147 1.391 . S
C149 C150 1.400 1_655 S
C150 C149 1.400 1_455 S
C150 C151 1.398 . S
C150 C156 1.490 . S
C151 H142 0.950 . S
C151 C150 1.398 . S
C151 C152 1.391 . S
C152 H140 0.950 . S
C152 C148 1.393 . S
C152 C151 1.391 . S
C153 H143 0.950 . S
C153 C154 1.378 1_455 S
C153 C155 1.391 . S
C154 C153 1.378 1_655 S
C154 C158 1.398 . S
C155 H144 0.950 . S
C155 C153 1.391 . S
C155 C156 1.400 . S
C156 C150 1.490 . S
C156 C155 1.400 . S
C156 C157 1.399 1_455 S
C157 H145 0.950 . S
C157 C156 1.399 1_655 S
C157 C158 1.391 . S
C158 H146 0.950 . S
C158 C154 1.398 . S
C158 C157 1.391 . S
H159 C167 0.950 . S
H160 C172 0.950 . S
H161 C169 0.950 . S
H162 C171 0.950 . S
H163 C173 0.950 . S
H164 C175 0.950 . S
H165 C177 0.950 . S
H166 C178 0.950 . S
C167 H159 0.950 . S
C167 C168 1.386 . S
C167 C169 1.391 . S
C168 C167 1.386 . S
C168 C172 1.393 1_565 S
C169 H161 0.950 . S
C169 C167 1.391 . S
C169 C170 1.400 . S
C170 C169 1.400 . S
C170 C171 1.398 1_565 S
C170 C176 1.491 . S
C171 H162 0.950 . S
C171 C170 1.398 1_545 S
C171 C172 1.391 . S
C172 H160 0.950 . S
C172 C168 1.393 1_545 S
C172 C171 1.391 . S
C173 H163 0.950 . S
C173 C174 1.386 1_545 S
C173 C175 1.391 . S
C174 C173 1.386 1_565 S
C174 C178 1.393 . S
C175 H164 0.950 . S
C175 C173 1.391 . S
C175 C176 1.400 1_545 S
C176 C170 1.491 . S
C176 C175 1.400 1_565 S
C176 C177 1.398 . S
C177 H165 0.950 . S
C177 C176 1.398 . S
C177 C178 1.391 . S
C178 H166 0.950 . S
C178 C174 1.393 . S
C178 C177 1.391 . S
H179 C187 0.950 . S
H180 C192 0.950 1_655 S
H181 C189 0.950 . S
H182 C191 0.950 1_655 S
H183 C193 0.950 . S
H184 C195 0.950 . S
H185 C197 0.950 . S
H186 C198 0.950 . S
C187 H179 0.950 . S
C187 C188 1.386 . S
C187 C189 1.391 . S
C188 C187 1.386 . S
C188 C192 1.393 . S
C189 H181 0.950 . S
C189 C187 1.391 . S
C189 C190 1.400 . S
C190 C189 1.400 . S
C190 C191 1.398 . S
C190 C196 1.491 . S
C191 H182 0.950 1_455 S
C191 C190 1.398 . S
C191 C192 1.391 . S
C192 H180 0.950 1_455 S
C192 C188 1.393 . S
C192 C191 1.391 . S
C193 H183 0.950 . S
C193 C194 1.388 . S
C193 C195 1.391 . S
C194 C193 1.388 . S
C194 C198 1.393 1_655 S
C195 H184 0.950 . S
C195 C193 1.391 . S
C195 C196 1.400 1_655 S
C196 C190 1.491 . S
C196 C195 1.400 1_455 S
C196 C197 1.398 . S
C197 H185 0.950 . S
C197 C196 1.398 . S
C197 C198 1.391 . S
C198 H186 0.950 . S
C198 C194 1.393 1_455 S
C198 C197 1.391 . S
H199 C207 0.950 . S
H200 C212 0.950 . S
H201 C209 0.950 . S
H202 C211 0.950 . S
H203 C213 0.950 . S
H204 C215 0.950 . S
H205 C217 0.950 . S
H206 C218 0.950 . S
C207 H199 0.950 . S
C207 C208 1.386 1_545 S
C207 C209 1.391 . S
C208 C207 1.386 1_565 S
C208 C212 1.393 . S
C209 H201 0.950 . S
C209 C207 1.391 . S
C209 C210 1.400 1_545 S
C210 C209 1.400 1_565 S
C210 C211 1.398 . S
C210 C216 1.491 . S
C211 H202 0.950 . S
C211 C210 1.398 . S
C211 C212 1.391 . S
C212 H200 0.950 . S
C212 C208 1.393 . S
C212 C211 1.391 . S
C213 H203 0.950 . S
C213 C214 1.386 . S
C213 C215 1.391 . S
C214 C213 1.386 . S
C214 C218 1.393 1_565 S
C215 H204 0.950 . S
C215 C213 1.391 . S
C215 C216 1.400 . S
C216 C210 1.491 . S
C216 C215 1.400 . S
C216 C217 1.398 1_565 S
C217 H205 0.950 . S
C217 C216 1.398 1_545 S
C217 C218 1.391 . S
C218 H206 0.950 . S
C218 C214 1.393 1_545 S
C218 C217 1.391 . S
H219 C227 0.950 . S
H220 C232 0.950 . S
H221 C229 0.950 . S
H222 C231 0.950 . S
H223 C233 0.950 . S
H224 C235 0.950 . S
H225 C237 0.950 . S
H226 C238 0.950 . S
C227 H219 0.950 . S
C227 C228 1.386 . S
C227 C229 1.391 . S
C228 C227 1.386 . S
C228 C232 1.393 1_455 S
C229 H221 0.950 . S
C229 C227 1.391 . S
C229 C230 1.400 . S
C230 C229 1.400 . S
C230 C231 1.398 1_455 S
C230 C236 1.491 . S
C231 H222 0.950 . S
C231 C230 1.398 1_655 S
C231 C232 1.391 . S
C232 H220 0.950 . S
C232 C228 1.393 1_655 S
C232 C231 1.391 . S
C233 H223 0.950 . S
C233 C234 1.389 . S
C233 C235 1.391 . S
C234 C233 1.389 . S
C234 C238 1.391 1_655 S
C235 H224 0.950 . S
C235 C233 1.391 . S
C235 C236 1.401 1_655 S
C236 C230 1.491 . S
C236 C235 1.401 1_455 S
C236 C237 1.397 . S
C237 H225 0.950 . S
C237 C236 1.397 . S
C237 C238 1.391 . S
C238 H226 0.950 . S
C238 C234 1.391 1_455 S
C238 C237 1.391 . S
H239 C247 0.950 . S
H240 C252 0.950 . S
H241 C249 0.950 . S
H242 C251 0.950 . S
H243 C253 0.950 . S
H244 C255 0.950 . S
H245 C257 0.950 . S
H246 C258 0.950 . S
C247 H239 0.950 . S
C247 C248 1.386 . S
C247 C249 1.391 . S
C248 C247 1.386 . S
C248 C252 1.393 . S
C249 H241 0.950 . S
C249 C247 1.391 . S
C249 C250 1.400 . S
C250 C249 1.400 . S
C250 C251 1.398 . S
C250 C256 1.491 . S
C251 H242 0.950 . S
C251 C250 1.398 . S
C251 C252 1.391 . S
C252 H240 0.950 . S
C252 C248 1.393 . S
C252 C251 1.391 . S
C253 H243 0.950 . S
C253 C254 1.386 . S
C253 C255 1.391 . S
C254 C253 1.386 . S
C254 C258 1.393 . S
C255 H244 0.950 . S
C255 C253 1.391 . S
C255 C256 1.400 . S
C256 C250 1.491 . S
C256 C255 1.400 . S
C256 C257 1.398 . S
C257 H245 0.950 . S
C257 C256 1.398 . S
C257 C258 1.391 . S
C258 H246 0.950 . S
C258 C254 1.393 . S
C258 C257 1.391 . S
H259 C267 0.950 . S
H260 C272 0.950 . S
H261 C269 0.950 . S
H262 C271 0.950 . S
H263 C273 0.950 . S
H264 C275 0.950 . S
H265 C277 0.950 . S
H266 C278 0.950 . S
C267 H259 0.950 . S
C267 C268 1.386 1_455 S
C267 C269 1.391 . S
C268 C267 1.386 1_655 S
C268 C272 1.393 . S
C269 H261 0.950 . S
C269 C267 1.391 . S
C269 C270 1.400 1_455 S
C270 C269 1.400 1_655 S
C270 C271 1.398 . S
C270 C276 1.491 . S
C271 H262 0.950 . S
C271 C270 1.398 . S
C271 C272 1.391 . S
C272 H260 0.950 . S
C272 C268 1.393 . S
C272 C271 1.391 . S
C273 H263 0.950 . S
C273 C274 1.386 1_655 S
C273 C275 1.391 . S
C274 C273 1.386 1_455 S
C274 C278 1.393 . S
C275 H264 0.950 . S
C275 C273 1.391 . S
C275 C276 1.400 . S
C276 C270 1.491 . S
C276 C275 1.400 . S
C276 C277 1.398 1_655 S
C277 H265 0.950 . S
C277 C276 1.398 1_455 S
C277 C278 1.391 . S
C278 H266 0.950 . S
C278 C274 1.393 . S
C278 C277 1.391 . S
H279 C287 0.950 . S
H280 C292 0.950 . S
H281 C289 0.950 . S
H282 C291 0.950 . S
H283 C293 0.950 . S
H284 C295 0.950 . S
H285 C297 0.950 . S
H286 C298 0.950 . S
C287 H279 0.950 . S
C287 C288 1.386 . S
C287 C289 1.391 . S
C288 C287 1.386 . S
C288 C292 1.393 1_545 S
C289 H281 0.950 . S
C289 C287 1.391 . S
C289 C290 1.400 . S
C290 C289 1.400 . S
C290 C291 1.398 1_545 S
C290 C296 1.491 . S
C291 H282 0.950 . S
C291 C290 1.398 1_565 S
C291 C292 1.391 . S
C292 H280 0.950 . S
C292 C288 1.393 1_565 S
C292 C291 1.391 . S
C293 H283 0.950 . S
C293 C294 1.386 1_565 S
C293 C295 1.391 . S
C294 C293 1.386 1_545 S
C294 C298 1.393 . S
C295 H284 0.950 . S
C295 C293 1.391 . S
C295 C296 1.400 1_565 S
C296 C290 1.491 . S
C296 C295 1.400 1_545 S
C296 C297 1.398 . S
C297 H285 0.950 . S
C297 C296 1.398 . S
C297 C298 1.391 . S
C298 H286 0.950 . S
C298 C294 1.393 . S
C298 C297 1.391 . S
C148 C23 1.268 . S
C154 C55 1.372 1_655 S
C168 C22 1.549 . S
C174 C125 1.584 1_565 S
C188 C21 1.906 . S
C194 C71 1.909 1_655 S
C208 C24 1.455 . S
C214 C115 1.523 1_565 S
C228 C27 1.303 1_455 S
C234 C62 1.375 1_655 S
C248 C26 1.552 . S
C254 C124 1.584 . S
C274 C72 1.910 . S
C268 C25 1.905 . S
C288 C28 1.461 . S
C294 C108 1.524 . S
