# Generated by pormake.
# Topology wbl, (4,4)-cn, num edge types: 1
# Building blocks:
#     Node 0, Type 0, BuildingBlock: MUDLON_clean_sbu_0, # of connection points: 4
#     Node 1, Type 0, BuildingBlock: MUDLON_clean_sbu_0, # of connection points: 4
#     Node 2, Type 0, BuildingBlock: MUDLON_clean_sbu_0, # of connection points: 4
#     Node 3, Type 0, BuildingBlock: MUDLON_clean_sbu_0, # of connection points: 4
#     Node 4, Type 0, BuildingBlock: MUDLON_clean_sbu_0, # of connection points: 4
#     Node 5, Type 0, BuildingBlock: MUDLON_clean_sbu_0, # of connection points: 4
#     Node 6, Type 0, BuildingBlock: MUDLON_clean_sbu_0, # of connection points: 4
#     Node 7, Type 0, BuildingBlock: MUDLON_clean_sbu_0, # of connection points: 4
#     Node 8, Type 1, BuildingBlock: CEKHIL_clean_sbu_0, # of connection points: 4
#     Node 9, Type 1, BuildingBlock: CEKHIL_clean_sbu_0, # of connection points: 4
#     Node 10, Type 1, BuildingBlock: CEKHIL_clean_sbu_0, # of connection points: 4
#     Node 11, Type 1, BuildingBlock: CEKHIL_clean_sbu_0, # of connection points: 4
#     Node 12, Type 1, BuildingBlock: CEKHIL_clean_sbu_0, # of connection points: 4
#     Node 13, Type 1, BuildingBlock: CEKHIL_clean_sbu_0, # of connection points: 4
#     Node 14, Type 1, BuildingBlock: CEKHIL_clean_sbu_0, # of connection points: 4
#     Node 15, Type 1, BuildingBlock: CEKHIL_clean_sbu_0, # of connection points: 4
#     Edge 16, Type (0, 1), BuildingBlock: EZIPEK_clean_linker_0, # of connection points: 2
#     Edge 17, Type (0, 1), BuildingBlock: EZIPEK_clean_linker_0, # of connection points: 2
#     Edge 18, Type (0, 1), BuildingBlock: EZIPEK_clean_linker_0, # of connection points: 2
#     Edge 19, Type (0, 1), BuildingBlock: EZIPEK_clean_linker_0, # of connection points: 2
#     Edge 20, Type (0, 1), BuildingBlock: EZIPEK_clean_linker_0, # of connection points: 2
#     Edge 21, Type (0, 1), BuildingBlock: EZIPEK_clean_linker_0, # of connection points: 2
#     Edge 22, Type (0, 1), BuildingBlock: EZIPEK_clean_linker_0, # of connection points: 2
#     Edge 23, Type (0, 1), BuildingBlock: EZIPEK_clean_linker_0, # of connection points: 2
#     Edge 24, Type (0, 1), BuildingBlock: EZIPEK_clean_linker_0, # of connection points: 2
#     Edge 25, Type (0, 1), BuildingBlock: EZIPEK_clean_linker_0, # of connection points: 2
#     Edge 26, Type (0, 1), BuildingBlock: EZIPEK_clean_linker_0, # of connection points: 2
#     Edge 27, Type (0, 1), BuildingBlock: EZIPEK_clean_linker_0, # of connection points: 2
#     Edge 28, Type (0, 1), BuildingBlock: EZIPEK_clean_linker_0, # of connection points: 2
#     Edge 29, Type (0, 1), BuildingBlock: EZIPEK_clean_linker_0, # of connection points: 2
#     Edge 30, Type (0, 1), BuildingBlock: EZIPEK_clean_linker_0, # of connection points: 2
#     Edge 31, Type (0, 1), BuildingBlock: EZIPEK_clean_linker_0, # of connection points: 2
#     Edge 32, Type (0, 1), BuildingBlock: EZIPEK_clean_linker_0, # of connection points: 2
#     Edge 33, Type (0, 1), BuildingBlock: EZIPEK_clean_linker_0, # of connection points: 2
#     Edge 34, Type (0, 1), BuildingBlock: EZIPEK_clean_linker_0, # of connection points: 2
#     Edge 35, Type (0, 1), BuildingBlock: EZIPEK_clean_linker_0, # of connection points: 2
#     Edge 36, Type (0, 1), BuildingBlock: EZIPEK_clean_linker_0, # of connection points: 2
#     Edge 37, Type (0, 1), BuildingBlock: EZIPEK_clean_linker_0, # of connection points: 2
#     Edge 38, Type (0, 1), BuildingBlock: EZIPEK_clean_linker_0, # of connection points: 2
#     Edge 39, Type (0, 1), BuildingBlock: EZIPEK_clean_linker_0, # of connection points: 2
#     Edge 40, Type (0, 1), BuildingBlock: EZIPEK_clean_linker_0, # of connection points: 2
#     Edge 41, Type (0, 1), BuildingBlock: EZIPEK_clean_linker_0, # of connection points: 2
#     Edge 42, Type (0, 1), BuildingBlock: EZIPEK_clean_linker_0, # of connection points: 2
#     Edge 43, Type (0, 1), BuildingBlock: EZIPEK_clean_linker_0, # of connection points: 2
#     Edge 44, Type (0, 1), BuildingBlock: EZIPEK_clean_linker_0, # of connection points: 2
#     Edge 45, Type (0, 1), BuildingBlock: EZIPEK_clean_linker_0, # of connection points: 2
#     Edge 46, Type (0, 1), BuildingBlock: EZIPEK_clean_linker_0, # of connection points: 2
#     Edge 47, Type (0, 1), BuildingBlock: EZIPEK_clean_linker_0, # of connection points: 2
# Relax obj value: 0.230
# Max RMSD: 0.220
# Mean RMSD: 0.174
data_MOF--net-wbl--node1-MUDLON_clean_sbu_0--node2-CEKHIL_clean_sbu_0--edge1-EZIPEK_clean_linker_0
_symmetry_space_group_name_H-M    P1
_symmetry_Int_Tables_number       1
_symmetry_cell_setting            triclinic
loop_
_symmetry_equiv_pos_as_xyz
'x, y, z'
_cell_length_a     25.42299
_cell_length_b     25.615645
_cell_length_c     55.630994
_cell_angle_alpha  90.286403
_cell_angle_beta   90.119093
_cell_angle_gamma 89.928682
loop_
_atom_site_label
_atom_site_type_symbol
_atom_site_fract_x
_atom_site_fract_y
_atom_site_fract_z
_atom_type_partial_charge
Mg0 Mg 0.05864 0.08346 0.34904 0.0
C1 C 0.03395 0.97495 0.37298 0.0
O2 O 0.99066 0.96995 0.36027 0.0
C3 C 0.95872 0.08109 0.31609 0.0
O4 O 0.98425 0.0492 0.30169 0.0
C5 C 0.12796 0.03471 0.31311 0.0
O6 O 0.09289 0.99804 0.31683 0.0
O7 O 0.12271 0.07869 0.32353 0.0
O8 O 0.06423 0.01355 0.36989 0.0
O9 O 0.0692 0.13631 0.37905 0.0
C10 C 0.02965 0.16366 0.38506 0.0
O11 O 0.99431 0.1751 0.36865 0.0
O12 O 0.98049 0.09821 0.33506 0.0
Mg13 Mg 0.09478 0.55052 0.59516 0.0
C14 C 0.19315 0.53001 0.62575 0.0
O15 O 0.16759 0.48846 0.63293 0.0
C16 C 0.07989 0.43663 0.57704 0.0
O17 O 0.11982 0.42599 0.59118 0.0
C18 C 0.12731 0.63582 0.56306 0.0
O19 O 0.16716 0.60341 0.56123 0.0
O20 O 0.08738 0.62291 0.57541 0.0
O21 O 0.17604 0.5541 0.60746 0.0
O22 O 0.05098 0.55572 0.62852 0.0
C23 C 0.04665 0.51355 0.64025 0.0
O24 O 0.0629 0.46968 0.63057 0.0
O25 O 0.06468 0.48363 0.57455 0.0
Mg26 Mg 0.62472 0.59914 0.84614 0.0
C27 C 0.65135 0.68015 0.88401 0.0
O28 O 0.68925 0.64672 0.88853 0.0
C29 C 0.74233 0.59471 0.83189 0.0
O30 O 0.74605 0.63985 0.84305 0.0
C31 C 0.54295 0.64127 0.81243 0.0
O32 O 0.57399 0.68211 0.81405 0.0
O33 O 0.55604 0.5991 0.82284 0.0
O34 O 0.62415 0.67342 0.86509 0.0
O35 O 0.6118 0.54521 0.87531 0.0
C36 C 0.65263 0.52889 0.88613 0.0
O37 O 0.69924 0.53929 0.87732 0.0
O38 O 0.69754 0.57335 0.82923 0.0
Mg39 Mg 0.61214 0.10896 0.10029 0.0
C40 C 0.69636 0.14391 0.1383 0.0
O41 O 0.72114 0.16944 0.12141 0.0
C42 C 0.62616 0.02324 0.06078 0.0
O43 O 0.64011 0.06089 0.04618 0.0
C44 C 0.67409 0.18418 0.07106 0.0
O45 O 0.70876 0.14654 0.0736 0.0
O46 O 0.62731 0.17726 0.07843 0.0
O47 O 0.65785 0.11446 0.13308 0.0
O48 O 0.53635 0.10711 0.11788 0.0
C49 C 0.53669 0.06789 0.13185 0.0
O50 O 0.57679 0.03554 0.13114 0.0
O51 O 0.61654 0.03339 0.08269 0.0
Mg52 Mg 0.14123 0.58368 0.93106 0.0
C53 C 0.11969 0.61682 0.8807 0.0
O54 O 0.09709 0.57083 0.88019 0.0
C55 C 0.02364 0.58123 0.94015 0.0
O56 O 0.02314 0.60598 0.91953 0.0
C57 C 0.21544 0.66246 0.95278 0.0
O58 O 0.18317 0.69434 0.94164 0.0
O59 O 0.20586 0.61369 0.95278 0.0
O60 O 0.13427 0.6361 0.90074 0.0
O61 O 0.16658 0.51325 0.91284 0.0
C62 C 0.13408 0.47747 0.90742 0.0
O63 O 0.08787 0.47864 0.91793 0.0
O64 O 0.06744 0.56905 0.94971 0.0
Mg65 Mg 0.62935 0.61205 0.18112 0.0
C66 C 0.53669 0.63051 0.14884 0.0
O67 O 0.52101 0.66028 0.16669 0.0
C68 C 0.62982 0.50326 0.2028 0.0
O69 O 0.60806 0.49078 0.18214 0.0
C70 C 0.57594 0.68652 0.21563 0.0
O71 O 0.56166 0.6425 0.22569 0.0
O72 O 0.60706 0.68568 0.19777 0.0
O73 O 0.57327 0.59774 0.15245 0.0
O74 O 0.69818 0.6179 0.15842 0.0
C75 C 0.69933 0.58081 0.14312 0.0
O76 O 0.66662 0.54161 0.14553 0.0
O77 O 0.64122 0.55054 0.20731 0.0
Mg78 Mg 0.52724 0.09561 0.43341 0.0
C79 C 0.50192 0.1832 0.39707 0.0
O80 O 0.45282 0.16769 0.39831 0.0
C81 C 0.42263 0.1023 0.46499 0.0
O82 O 0.43814 0.14633 0.47488 0.0
C83 C 0.60496 0.13822 0.46877 0.0
O84 O 0.5714 0.17722 0.46807 0.0
O85 O 0.59479 0.09633 0.4573 0.0
O86 O 0.53535 0.16554 0.41193 0.0
O87 O 0.53328 0.03599 0.40542 0.0
C88 C 0.4893 0.02477 0.39576 0.0
O89 O 0.44779 0.04901 0.40426 0.0
O90 O 0.45145 0.07895 0.44978 0.0
Mg91 Mg 0.03721 0.04953 0.68032 0.0
C92 C 0.07264 0.07033 0.63004 0.0
O93 O 0.03019 0.09942 0.63016 0.0
C94 C 0.05075 0.13549 0.71946 0.0
O95 O 0.07465 0.09929 0.73208 0.0
C96 C 0.1127 0.97019 0.69881 0.0
O97 O 0.14405 1.00047 0.68639 0.0
O98 O 0.06439 0.98257 0.701 0.0
O99 O 0.0897 0.05153 0.64964 0.0
O100 O 0.96301 0.0344 0.66221 0.0
C101 C 0.93371 0.07241 0.65611 0.0
O102 O 0.94397 0.11822 0.66575 0.0
O103 O 0.03284 0.12452 0.6987 0.0
Co104 Co 0.48999 0.73636 0.01488 0.0
O105 O 0.44017 0.68631 0.00269 0.0
O106 O 0.43224 0.77215 -0.00093 0.0
C107 C 0.4984 0.70058 0.05158 0.0
O108 O 0.53283 0.79932 0.02615 0.0
Co109 Co 0.60263 0.69941 0.02818 0.0
O110 O 0.61454 0.77373 0.03663 0.0
C111 C 0.57497 0.71387 0.97745 0.0
C112 C 0.41281 0.72582 0.9953 0.0
C113 C 0.57963 0.80901 0.03402 0.0
O114 O 0.53087 0.73433 0.9838 0.0
O115 O 0.60679 0.69249 0.99231 0.0
O116 O 0.45901 0.731 0.04675 0.0
O117 O 0.52815 0.68831 0.03357 0.0
Co118 Co 0.40491 0.96824 0.2515 0.0
O119 O 0.35299 0.01988 0.2598 0.0
O120 O 0.34272 0.93431 0.26376 0.0
C121 C 0.4265 0.00256 0.21555 0.0
O122 O 0.4494 0.90355 0.24473 0.0
Co123 Co 0.52161 1.00038 0.2457 0.0
O124 O 0.52929 0.92877 0.23214 0.0
C125 C 0.47653 0.99209 0.29418 0.0
C126 C 0.32374 0.98117 0.26651 0.0
C127 C 0.49532 0.8933 0.23619 0.0
O128 O 0.43495 0.97181 0.2849 0.0
O129 O 0.51414 0.0107 0.28155 0.0
O130 O 0.38518 0.9731 0.21761 0.0
O131 O 0.45003 0.01418 0.2355 0.0
Co132 Co 0.15386 0.914 0.49923 0.0
O133 O 0.10891 0.85964 0.51109 0.0
O134 O 0.19538 0.86307 0.51653 0.0
C135 C 0.11849 0.91456 0.462 0.0
O136 O 0.21291 0.96321 0.48906 0.0
Co137 Co 0.10604 0.01962 0.48245 0.0
O138 O 0.17914 0.03703 0.47333 0.0
C139 C 0.11672 0.99759 0.53417 0.0
C140 C 0.1512 0.83849 0.51969 0.0
C141 C 0.21803 0.00845 0.47928 0.0
O142 O 0.14309 0.95593 0.52947 0.0
O143 O 0.0949 0.02591 0.51808 0.0
O144 O 0.1542 0.88047 0.46765 0.0
O145 O 0.10277 0.94435 0.47937 0.0
Co146 Co 0.23461 0.70569 0.75288 0.0
O147 O 0.17126 0.73877 0.74133 0.0
O148 O 0.25158 0.77141 0.73776 0.0
C149 C 0.20149 0.6863 0.78939 0.0
O150 O 0.3087 0.68468 0.7632 0.0
Co151 Co 0.23668 0.58909 0.76719 0.0
O152 O 0.30657 0.60631 0.78112 0.0
C153 C 0.23533 0.61823 0.71585 0.0
C154 C 0.20119 0.7769 0.73456 0.0
C155 C 0.33077 0.64783 0.7752 0.0
O156 O 0.24353 0.66633 0.72157 0.0
O157 O 0.22614 0.58274 0.73144 0.0
O158 O 0.22038 0.73238 0.78518 0.0
O159 O 0.2 0.6547 0.77124 0.0
Co160 Co 0.92419 0.19181 0.51981 0.0
O161 O 0.99135 0.21902 0.53011 0.0
O162 O 0.91473 0.25788 0.53627 0.0
C163 C 0.95047 0.17293 0.48195 0.0
O164 O 0.84697 0.1782 0.51099 0.0
Co165 Co 0.90939 0.07796 0.50516 0.0
O166 O 0.83554 0.09545 0.49835 0.0
C167 C 0.90895 0.1043 0.55659 0.0
C168 C 0.96571 0.25917 0.53822 0.0
C169 C 0.81799 0.1409 0.50274 0.0
O170 O 0.9169 0.15241 0.55109 0.0
O171 O 0.90453 0.06826 0.54076 0.0
O172 O 0.93567 0.2196 0.48793 0.0
O173 O 0.95294 0.13918 0.49924 0.0
Co174 Co 0.99193 0.44646 0.77735 0.0
O175 O 0.96249 0.51004 0.79004 0.0
O176 O 0.93041 0.43086 0.7965 0.0
C177 C 1.00052 0.4753 0.73953 0.0
O178 O 0.01035 0.37237 0.76555 0.0
Co179 Co 0.10586 0.44579 0.75739 0.0
O180 O 0.08863 0.37452 0.7466 0.0
C181 C 0.08965 0.44306 0.80971 0.0
C182 C 0.9259 0.48119 0.79918 0.0
C183 C 0.04716 0.35053 0.753 0.0
O184 O 0.03958 0.44038 0.80635 0.0
O185 O 0.12278 0.44672 0.79254 0.0
O186 O 0.95553 0.4588 0.74729 0.0
O187 O 0.03737 0.47912 0.75557 0.0
Co188 Co 0.7515 0.45684 0.01273 0.0
O189 O 0.70182 0.41432 0.02955 0.0
O190 O 0.78757 0.39856 0.0275 0.0
C191 C 0.70053 0.46102 0.97935 0.0
O192 O 0.81402 0.49076 0.99596 0.0
Co193 Co 0.72154 0.5679 0.99613 0.0
O194 O 0.78808 0.5649 0.97779 0.0
C195 C 0.75215 0.55032 0.04696 0.0
C196 C 0.74095 0.38361 0.03422 0.0
C197 C 0.82255 0.5302 0.98224 0.0
O198 O 0.76229 0.50215 0.04207 0.0
O199 O 0.73072 0.58079 0.0316 0.0
O200 O 0.73239 0.42224 0.98287 0.0
O201 O 0.69994 0.49543 0.99647 0.0
Co202 Co 0.67879 0.25017 0.28205 0.0
O203 O 0.63274 0.3028 0.26936 0.0
O204 O 0.71968 0.30932 0.27133 0.0
C205 C 0.62966 0.23429 0.31524 0.0
O206 O 0.7389 0.20433 0.2939 0.0
Co207 Co 0.63928 0.13722 0.2859 0.0
O208 O 0.7127 0.12044 0.29534 0.0
C209 C 0.66919 0.17656 0.23895 0.0
C210 C 0.67487 0.32921 0.26461 0.0
C211 C 0.74785 0.15548 0.29739 0.0
O212 O 0.68586 0.21833 0.2492 0.0
O213 O 0.64452 0.14058 0.25004 0.0
O214 O 0.6636 0.27218 0.31496 0.0
O215 O 0.62427 0.20928 0.29507 0.0
C216 C 0.21485 0.98894 0.31337 0.0
C217 C 0.178 0.02101 0.30111 0.0
C218 C 0.23337 0.01996 0.26511 0.0
C219 C 0.27201 0.99106 0.27788 0.0
N220 N 0.30259 0.95173 0.31472 0.0
N221 N 0.1535 0.07204 0.26663 0.0
C222 C 0.26336 0.97597 0.30209 0.0
C223 C 0.1877 0.03806 0.27735 0.0
N224 N 0.20355 0.97138 0.33596 0.0
N225 N 0.23942 0.02804 0.24098 0.0
H226 H 0.11879 0.08463 0.2748 0.0
H227 H 0.16105 0.09062 0.2504 0.0
H228 H 0.27176 0.01421 0.23133 0.0
H229 H 0.21052 0.04423 0.23003 0.0
H230 H 0.22484 0.94244 0.34474 0.0
H231 H 0.1711 0.98424 0.34578 0.0
H232 H 0.30119 0.94453 0.33308 0.0
H233 H 0.33874 0.9415 0.30729 0.0
C234 C 0.13685 0.73304 0.56715 0.0
C235 C 0.13132 0.68824 0.55216 0.0
C236 C 0.14713 0.74148 0.51642 0.0
C237 C 0.14872 0.78672 0.53119 0.0
N238 N 0.14175 0.82758 0.57011 0.0
N239 N 0.12356 0.65005 0.51266 0.0
C240 C 0.14269 0.78307 0.55645 0.0
C241 C 0.13454 0.6925 0.52681 0.0
N242 N 0.13868 0.72747 0.59157 0.0
N243 N 0.15894 0.74527 0.49251 0.0
H244 H 0.11374 0.61366 0.51969 0.0
H245 H 0.1197 0.65169 0.49405 0.0
H246 H 0.16822 0.78059 0.4843 0.0
H247 H 0.16397 0.71316 0.48121 0.0
H248 H 0.14876 0.75742 0.60341 0.0
H249 H 0.13334 0.69177 0.60013 0.0
H250 H 0.1308 0.8286 0.58812 0.0
H251 H 0.14961 0.86438 0.56303 0.0
C252 C 0.47578 0.61179 0.78201 0.0
C253 C 0.49038 0.64609 0.80097 0.0
C254 C 0.40556 0.69125 0.79739 0.0
C255 C 0.38762 0.65167 0.78144 0.0
N256 N 0.40586 0.5747 0.75764 0.0
N257 N 0.46552 0.71289 0.82961 0.0
C258 C 0.4229 0.61203 0.77348 0.0
C259 C 0.45452 0.68468 0.80929 0.0
N260 N 0.51298 0.58046 0.77159 0.0
N261 N 0.37638 0.73534 0.80119 0.0
H262 H 0.49991 0.70808 0.83954 0.0
H263 H 0.43816 0.73705 0.83807 0.0
H264 H 0.34063 0.74256 0.79271 0.0
H265 H 0.39042 0.76748 0.81078 0.0
H266 H 0.50634 0.55833 0.75614 0.0
H267 H 0.55218 0.57999 0.77716 0.0
H268 H 0.42695 0.54092 0.75363 0.0
H269 H 0.36944 0.57665 0.74904 0.0
C270 C 0.64013 0.92716 0.06579 0.0
C271 C 0.61906 0.96874 0.05205 0.0
C272 C 0.5813 0.90488 0.02397 0.0
C273 C 0.59421 0.86386 0.04005 0.0
N274 N 0.6287 0.83836 0.07897 0.0
N275 N 0.56017 0.9964 0.02027 0.0
C276 C 0.62186 0.87554 0.0617 0.0
C277 C 0.58722 0.95754 0.03164 0.0
N278 N 0.67874 0.93667 0.08237 0.0
N279 N 0.5654 0.89389 0.00101 0.0
H280 H 0.56116 0.03531 0.02576 0.0
H281 H 0.53235 0.98901 0.00689 0.0
H282 H 0.56348 0.85601 0.99411 0.0
H283 H 0.56021 0.92264 0.98802 0.0
H284 H 0.69891 0.90702 0.09127 0.0
H285 H 0.69475 0.97369 0.0852 0.0
H286 H 0.64349 0.84685 0.09603 0.0
H287 H 0.61483 0.8003 0.07738 0.0
C288 C 0.27204 0.67903 0.98906 0.0
C289 C 0.26457 0.68286 0.96384 0.0
C290 C 0.35266 0.72166 0.95945 0.0
C291 C 0.36001 0.71738 0.98463 0.0
N292 N 0.32443 0.70251 0.02405 0.0
N293 N 0.29487 0.71126 0.9249 0.0
C294 C 0.31898 0.69901 -0.00038 0.0
C295 C 0.3039 0.70569 0.94902 0.0
N296 N 0.23439 0.6558 0.0029 0.0
N297 N 0.39327 0.73893 0.9455 0.0
H298 H 0.26203 0.6959 0.91615 0.0
H299 H 0.31879 0.73261 0.91344 0.0
H300 H 0.42827 0.75332 0.95274 0.0
H301 H 0.39363 0.73753 0.92682 0.0
H302 H 0.23991 0.64561 0.02081 0.0
H303 H 0.19789 0.64417 0.99618 0.0
H304 H 0.29447 0.69464 0.0362 0.0
H305 H 0.35794 0.71782 0.0323 0.0
C306 C 0.58508 0.77453 0.23508 0.0
C307 C 0.55285 0.7368 0.22366 0.0
C308 C 0.48046 0.80018 0.22141 0.0
C309 C 0.51241 0.83779 0.2334 0.0
N310 N 0.58768 0.85332 0.2591 0.0
N311 N 0.46583 0.70909 0.21166 0.0
C312 C 0.56266 0.82283 0.24239 0.0
C313 C 0.4992 0.74808 0.21874 0.0
N314 N 0.63716 0.76433 0.23903 0.0
N315 N 0.43335 0.81429 0.2115 0.0
H316 H 0.4778 0.6706 0.20908 0.0
H317 H 0.4252 0.71383 0.2105 0.0
H318 H 0.41648 0.85093 0.21365 0.0
H319 H 0.41236 0.7905 0.19966 0.0
H320 H 0.66386 0.79279 0.24458 0.0
H321 H 0.6544 0.72819 0.23535 0.0
H322 H 0.62201 0.842 0.26791 0.0
H323 H 0.57085 0.88698 0.26637 0.0
C324 C 0.35511 0.0625 0.49249 0.0
C325 C 0.36921 0.08114 0.46942 0.0
C326 C 0.2877 0.0451 0.45247 0.0
C327 C 0.27145 0.03042 0.47584 0.0
N328 N 0.28514 0.03395 0.51883 0.0
N329 N 0.34416 0.10018 0.42854 0.0
C330 C 0.30393 0.04142 0.49609 0.0
C331 C 0.33413 0.0752 0.4497 0.0
N332 N 0.39118 0.06312 0.51074 0.0
N333 N 0.25955 0.02897 0.43283 0.0
H334 H 0.37678 0.12422 0.42613 0.0
H335 H 0.31761 0.1015 0.41427 0.0
H336 H 0.2254 0.00668 0.43416 0.0
H337 H 0.27261 0.03348 0.41523 0.0
H338 H 0.38525 0.04455 0.52713 0.0
H339 H 0.42882 0.0787 0.50887 0.0
H340 H 0.30466 0.04688 0.53422 0.0
H341 H 0.24791 0.01884 0.52236 0.0
C342 C 0.1316 0.9088 0.73297 0.0
C343 C 0.13296 0.91969 0.70802 0.0
C344 C 0.18289 0.83891 0.70073 0.0
C345 C 0.17817 0.82616 0.72539 0.0
N346 N 0.14195 0.84495 0.76462 0.0
N347 N 0.14963 0.89009 0.66747 0.0
C348 C 0.15039 0.85978 0.74137 0.0
C349 C 0.1559 0.88339 0.69169 0.0
N350 N 0.11493 0.94633 0.7488 0.0
N351 N 0.21335 0.8087 0.68595 0.0
H352 H 0.12863 0.92117 0.66012 0.0
H353 H 0.16059 0.86228 0.65471 0.0
H354 H 0.23236 0.77491 0.69175 0.0
H355 H 0.22303 0.81915 0.66845 0.0
H356 H 0.11871 0.94314 0.76737 0.0
H357 H 0.10121 0.98282 0.7434 0.0
H358 H 0.11651 0.86454 0.77622 0.0
H359 H 0.15764 0.81101 0.77199 0.0
C360 C 0.79212 0.54583 0.80006 0.0
C361 C 0.79023 0.56622 0.82381 0.0
C362 C 0.8783 0.53019 0.83175 0.0
C363 C 0.87766 0.50587 0.80882 0.0
N364 N 0.83018 0.48257 0.77271 0.0
N365 N 0.82726 0.56874 0.86395 0.0
C366 C 0.83323 0.51098 0.79353 0.0
C367 C 0.83225 0.55615 0.84015 0.0
N368 N 0.75624 0.56198 0.78331 0.0
N369 N 0.92301 0.52875 0.84543 0.0
H370 H 0.79387 0.58635 0.87117 0.0
H371 H 0.85427 0.55742 0.87703 0.0
H372 H 0.95645 0.50774 0.84039 0.0
H373 H 0.92811 0.551 0.86099 0.0
H374 H 0.75894 0.55274 0.7651 0.0
H375 H 0.72684 0.58924 0.78705 0.0
H376 H 0.7963 0.48048 0.7622 0.0
H377 H 0.85974 0.45719 0.76702 0.0
C378 C 0.71393 0.23813 0.03834 0.0
C379 C 0.69137 0.23554 0.06165 0.0
C380 C 0.70923 0.32896 0.06812 0.0
C381 C 0.73056 0.33169 0.04469 0.0
N382 N 0.75938 0.28941 0.00817 0.0
N383 N 0.66214 0.27901 0.09798 0.0
C384 C 0.73502 0.2863 0.03004 0.0
C385 C 0.68752 0.28111 0.07635 0.0
N386 N 0.71166 0.19527 0.02355 0.0
N387 N 0.71228 0.3718 0.08288 0.0
H388 H 0.64863 0.24459 0.10564 0.0
H389 H 0.65176 0.31176 0.10804 0.0
H390 H 0.72894 0.40704 0.07746 0.0
H391 H 0.70275 0.37165 0.10105 0.0
H392 H 0.72266 0.19508 0.00557 0.0
H393 H 0.69476 0.15998 0.02868 0.0
H394 H 0.7693 0.25729 0.99762 0.0
H395 H 0.77286 0.32428 0.0009 0.0
C396 C 0.89374 0.12696 0.28937 0.0
C397 C 0.90433 0.09817 0.31057 0.0
C398 C 0.81406 0.11356 0.32453 0.0
C399 C 0.80227 0.13816 0.3024 0.0
N400 N 0.82781 0.15992 0.26187 0.0
N401 N 0.8725 0.05599 0.34641 0.0
C402 C 0.84125 0.1426 0.28427 0.0
C403 C 0.86388 0.08925 0.32766 0.0
N404 N 0.93408 0.14153 0.27465 0.0
N405 N 0.77818 0.11481 0.3428 0.0
H406 H 0.90806 0.03646 0.34899 0.0
H407 H 0.84306 0.04384 0.3581 0.0
H408 H 0.74143 0.13264 0.34116 0.0
H409 H 0.78651 0.10246 0.36021 0.0
H410 H 0.92942 0.16758 0.26048 0.0
H411 H 0.9732 0.13137 0.27779 0.0
H412 H 0.85312 0.15807 0.24719 0.0
H413 H 0.78993 0.17207 0.25733 0.0
C414 C 0.00218 0.37607 0.57752 0.0
C415 C 0.04901 0.39332 0.56618 0.0
C416 C 0.03607 0.32786 0.53451 0.0
C417 C 0.99389 0.30572 0.5478 0.0
N418 N 0.94352 0.30341 0.58453 0.0
N419 N 0.11434 0.38184 0.53528 0.0
C420 C 0.97862 0.32842 0.57001 0.0
C421 C 0.0673 0.36783 0.54516 0.0
N422 N 0.97948 0.40563 0.59514 0.0
N423 N 0.04429 0.31317 0.51116 0.0
H424 H 0.13713 0.41252 0.54197 0.0
H425 H 0.1324 0.36065 0.52155 0.0
H426 H 0.01982 0.28711 0.50207 0.0
H427 H 0.07142 0.33133 0.49997 0.0
H428 H 0.94278 0.39729 0.60248 0.0
H429 H 0.99451 0.44163 0.60045 0.0
H430 H 0.93521 0.31568 0.602 0.0
H431 H 0.92681 0.26743 0.58016 0.0
C432 C 0.69493 0.17824 0.46802 0.0
C433 C 0.65766 0.14569 0.47969 0.0
C434 C 0.72306 0.1237 0.51052 0.0
C435 C 0.76189 0.15045 0.4971 0.0
N436 N 0.78663 0.20191 0.46281 0.0
N437 N 0.6351 0.08685 0.51168 0.0
C438 C 0.74816 0.17826 0.47602 0.0
C439 C 0.67133 0.1185 0.50096 0.0
N440 N 0.67965 0.20855 0.44906 0.0
N441 N 0.73584 0.10407 0.53259 0.0
H442 H 0.59615 0.08425 0.50586 0.0
H443 H 0.64398 0.06124 0.52558 0.0
H444 H 0.77337 0.10797 0.54004 0.0
H445 H 0.70867 0.08804 0.5444 0.0
H446 H 0.70299 0.2377 0.44169 0.0
H447 H 0.64221 0.20702 0.44144 0.0
H448 H 0.78084 0.21662 0.4456 0.0
H449 H 0.82561 0.20455 0.46852 0.0
C450 C 0.0275 0.20193 0.75154 0.0
C451 C 0.04792 0.19028 0.72836 0.0
C452 C 0.05466 0.28376 0.72011 0.0
C453 C 0.0419 0.29548 0.74444 0.0
N454 N 0.02497 0.26374 0.78457 0.0
N455 N 0.09266 0.22082 0.69281 0.0
C456 C 0.03038 0.25407 0.76054 0.0
C457 C 0.06459 0.23138 0.71321 0.0
N458 N 0.0038 0.16373 0.7647 0.0
N459 N 0.05643 0.32254 0.70334 0.0
H460 H 0.1038 0.18321 0.68767 0.0
H461 H 0.11018 0.24982 0.68248 0.0
H462 H 0.04886 0.36156 0.70738 0.0
H463 H 0.06 0.31516 0.68497 0.0
H464 H 0.98355 0.17129 0.78061 0.0
H465 H 0.99978 0.12542 0.75855 0.0
H466 H 0.02233 0.23421 0.79732 0.0
H467 H 0.02805 0.30088 0.7921 0.0
C468 C 0.96199 0.58028 0.97551 0.0
C469 C 0.97334 0.56517 0.95147 0.0
C470 C 0.88571 0.52544 0.94778 0.0
C471 C 0.87575 0.53801 0.97218 0.0
N472 N 0.9069 0.56889 0.01066 0.0
N473 N 0.95069 0.51378 0.91639 0.0
C474 C 0.91488 0.56248 0.98652 0.0
C475 C 0.93646 0.53508 0.93802 0.0
N476 N 0.99456 0.61426 0.98736 0.0
N477 N 0.84638 0.50492 0.93384 0.0
H478 H 0.9879 0.51858 0.90888 0.0
H479 H 0.92749 0.48733 0.90686 0.0
H480 H 0.80955 0.49494 0.94067 0.0
H481 H 0.84904 0.50069 0.91526 0.0
H482 H 0.98545 0.63122 0.00388 0.0
H483 H 0.02865 0.62952 0.97976 0.0
H484 H 0.93618 0.5811 0.02253 0.0
H485 H 0.8722 0.55794 0.01923 0.0
C486 C 0.62276 0.45911 0.24292 0.0
C487 C 0.64582 0.46176 0.21975 0.0
C488 C 0.69293 0.37972 0.2269 0.0
C489 C 0.67101 0.37773 0.25035 0.0
N490 N 0.62503 0.4206 0.28269 0.0
N491 N 0.71248 0.43242 0.192 0.0
C492 C 0.639 0.41913 0.25898 0.0
C493 C 0.68389 0.42442 0.21245 0.0
N494 N 0.58365 0.49324 0.24915 0.0
N495 N 0.71991 0.33784 0.21783 0.0
H496 H 0.70738 0.46501 0.18107 0.0
H497 H 0.74463 0.40952 0.18709 0.0
H498 H 0.72814 0.3044 0.22772 0.0
H499 H 0.73073 0.33446 0.19985 0.0
H500 H 0.5612 0.48966 0.26469 0.0
H501 H 0.57072 0.52307 0.23789 0.0
H502 H 0.60597 0.45217 0.29071 0.0
H503 H 0.63705 0.39224 0.29495 0.0
C504 C 0.09845 0.91976 0.39403 0.0
C505 C 0.04685 0.94022 0.39328 0.0
C506 C 0.03811 0.92308 0.43624 0.0
C507 C 0.09353 0.91649 0.43787 0.0
N508 N 0.17776 0.91129 0.41755 0.0
N509 N 0.96626 0.96175 0.41405 0.0
C510 C 0.12413 0.91429 0.41653 0.0
C511 C 0.01576 0.94103 0.41439 0.0
N512 N 0.12309 0.90696 0.37304 0.0
N513 N 0.00674 0.91101 0.45533 0.0
H514 H 0.94745 0.97342 0.39833 0.0
H515 H 0.94497 0.9698 0.42963 0.0
H516 H 0.0215 0.89483 0.47114 0.0
H517 H 0.9658 0.91116 0.45438 0.0
H518 H 0.15922 0.88776 0.37241 0.0
H519 H 0.10433 0.91079 0.35641 0.0
H520 H 0.20161 0.9153 0.40246 0.0
H521 H 0.19903 0.90994 0.43353 0.0
C522 C 0.25314 0.52936 0.6617 0.0
C523 C 0.22659 0.55819 0.64374 0.0
C524 C 0.21569 0.63149 0.67137 0.0
C525 C 0.2387 0.60157 0.69014 0.0
N526 N 0.29914 0.53178 0.69989 0.0
N527 N 0.21399 0.6454 0.62847 0.0
C528 C 0.26392 0.55346 0.68427 0.0
C529 C 0.21853 0.61233 0.64748 0.0
N530 N 0.26718 0.47881 0.65721 0.0
N531 N 0.18725 0.67558 0.67617 0.0
H532 H 0.22129 0.63328 0.61087 0.0
H533 H 0.21117 0.68577 0.63065 0.0
H534 H 0.17936 0.68901 0.69347 0.0
H535 H 0.16627 0.69538 0.66291 0.0
H536 H 0.28065 0.45346 0.67046 0.0
H537 H 0.2638 0.46222 0.64009 0.0
H538 H 0.32149 0.49882 0.69581 0.0
H539 H 0.31039 0.55025 0.71583 0.0
C540 C 0.57517 0.71112 0.90888 0.0
C541 C 0.63002 0.7116 0.9045 0.0
C542 C 0.64382 0.73572 0.94671 0.0
C543 C 0.59196 0.7183 0.95198 0.0
N544 N 0.50899 0.68436 0.93713 0.0
N545 N 0.71658 0.73409 0.91849 0.0
C546 C 0.55729 0.70555 0.93281 0.0
C547 C 0.66436 0.72752 0.92321 0.0
N548 N 0.54029 0.71676 0.89044 0.0
N549 N 0.67254 0.76148 0.96382 0.0
H550 H 0.7313 0.73311 0.90098 0.0
H551 H 0.74497 0.73909 0.93183 0.0
H552 H 0.65743 0.77085 0.98073 0.0
H553 H 0.70893 0.77852 0.96043 0.0
H554 H 0.49976 0.71909 0.89312 0.0
H555 H 0.55249 0.72758 0.87331 0.0
H556 H 0.48486 0.67019 0.9234 0.0
H557 H 0.49539 0.67576 0.95431 0.0
C558 C 0.47065 0.00942 0.14996 0.0
C559 C 0.49558 0.05869 0.15006 0.0
C560 C 0.46007 0.07606 0.19017 0.0
C561 C 0.44518 0.02277 0.19203 0.0
N562 N 0.44142 0.93676 0.17377 0.0
N563 N 0.51763 0.13849 0.17107 0.0
C564 C 0.45085 0.98901 0.1718 0.0
C565 C 0.49066 0.0924 0.17023 0.0
N566 N 0.46671 0.98188 0.12894 0.0
N567 N 0.44393 0.11135 0.20712 0.0
H568 H 0.53987 0.15241 0.15676 0.0
H569 H 0.52076 0.16118 0.18661 0.0
H570 H 0.41943 0.10129 0.22138 0.0
H571 H 0.44987 0.15142 0.20551 0.0
H572 H 0.44478 0.94772 0.12721 0.0
H573 H 0.48089 0.99635 0.11268 0.0
H574 H 0.45082 0.90978 0.16037 0.0
H575 H 0.42895 0.91942 0.18956 0.0
C576 C 0.195 0.6452 0.85485 0.0
C577 C 0.1399 0.63879 0.85797 0.0
C578 C 0.12531 0.66133 0.81564 0.0
C579 C 0.17995 0.67177 0.81318 0.0
N580 N 0.2653 0.68283 0.83159 0.0
N581 N 0.05168 0.6476 0.84266 0.0
C582 C 0.21416 0.66708 0.83322 0.0
C583 C 0.10475 0.64864 0.83869 0.0
N584 N 0.22956 0.62634 0.87162 0.0
N585 N 0.09302 0.66358 0.79598 0.0
H586 H 0.03542 0.6391 0.85939 0.0
H587 H 0.02381 0.65938 0.83007 0.0
H588 H 0.10546 0.67676 0.77923 0.0
H589 H 0.0545 0.64985 0.79589 0.0
H590 H 0.27005 0.62458 0.86889 0.0
H591 H 0.21806 0.60693 0.88714 0.0
H592 H 0.2902 0.68632 0.84641 0.0
H593 H 0.28171 0.69636 0.81573 0.0
C594 C 0.50899 0.61147 0.10614 0.0
C595 C 0.5267 0.64753 0.1238 0.0
C596 C 0.52132 0.71851 0.09461 0.0
C597 C 0.50845 0.68196 0.07631 0.0
N598 N 0.49506 0.59253 0.0638 0.0
N599 N 0.56611 0.73166 0.13233 0.0
C600 C 0.50422 0.62796 0.08178 0.0
C601 C 0.53729 0.70009 0.11741 0.0
N602 N 0.49477 0.56218 0.11281 0.0
N603 N 0.51841 0.77095 0.09042 0.0
H604 H 0.58262 0.71891 0.14843 0.0
H605 H 0.57938 0.76849 0.1273 0.0
H606 H 0.50946 0.78687 0.07373 0.0
H607 H 0.52134 0.79877 0.1041 0.0
H608 H 0.47642 0.53566 0.10132 0.0
H609 H 0.49747 0.54908 0.1305 0.0
H610 H 0.49769 0.55232 0.06617 0.0
H611 H 0.48779 0.60325 0.04605 0.0
C612 C 0.53055 0.98203 0.35849 0.0
C613 C 0.4854 0.99806 0.37169 0.0
C614 C 0.43568 0.00779 0.33457 0.0
C615 C 0.48044 0.99335 0.32089 0.0
N616 N 0.56542 0.95079 0.32039 0.0
N617 N 0.39054 0.99394 0.372 0.0
C618 C 0.52668 0.97581 0.33298 0.0
C619 C 0.43639 1.00009 0.35963 0.0
N620 N 0.57649 0.97153 0.37022 0.0
N621 N 0.39367 0.03208 0.32412 0.0
H622 H 0.39017 0.9826 0.39 0.0
H623 H 0.35389 0.99299 0.36355 0.0
H624 H 0.39304 0.04305 0.30611 0.0
H625 H 0.36219 0.04668 0.33411 0.0
H626 H 0.61263 0.96817 0.36157 0.0
H627 H 0.57801 0.96525 0.38871 0.0
H628 H 0.59782 0.9331 0.32844 0.0
H629 H 0.56281 0.94309 0.30203 0.0
C630 C 0.11428 0.08386 0.58984 0.0
C631 C 0.0917 0.04948 0.60681 0.0
C632 C 0.08735 0.97993 0.57635 0.0
C633 C 0.11122 0.01398 0.55957 0.0
N634 N 0.15908 0.09329 0.55168 0.0
N635 N 0.064 0.96221 0.61764 0.0
C636 C 0.12812 0.06455 0.56671 0.0
C637 C 0.0814 0.99646 0.60062 0.0
N638 N 0.12175 0.13521 0.59572 0.0
N639 N 0.06636 0.93352 0.56867 0.0
H640 H 0.05325 0.9731 0.63499 0.0
H641 H 0.06307 0.92195 0.61501 0.0
H642 H 0.06726 0.92096 0.55084 0.0
H643 H 0.0438 0.90915 0.57943 0.0
H644 H 0.13167 0.16368 0.58323 0.0
H645 H 0.1152 0.15003 0.61296 0.0
H646 H 0.17705 0.12817 0.55674 0.0
H647 H 0.17103 0.0799 0.53481 0.0
C648 C 0.6723 0.45358 0.91291 0.0
C649 C 0.64918 0.50352 0.90982 0.0
C650 C 0.6374 0.51145 0.95336 0.0
C651 C 0.67086 0.46785 0.95638 0.0
N652 N 0.69081 0.38257 0.94027 0.0
N653 N 0.60793 0.58021 0.92714 0.0
C654 C 0.67975 0.43409 0.93652 0.0
C655 C 0.62991 0.53198 0.92999 0.0
N656 N 0.68847 0.42558 0.89329 0.0
N657 N 0.61004 0.53083 0.97254 0.0
H658 H 0.59959 0.59647 0.91047 0.0
H659 H 0.60083 0.60546 0.94148 0.0
H660 H 0.61001 0.5123 0.9892 0.0
H661 H 0.58174 0.5601 0.97116 0.0
H662 H 0.712 0.39237 0.89439 0.0
H663 H 0.68005 0.43697 0.87571 0.0
H664 H 0.69457 0.35517 0.9265 0.0
H665 H 0.68823 0.36561 0.95722 0.0
C666 C 0.68594 0.20548 0.17274 0.0
C667 C 0.70419 0.15662 0.164 0.0
C668 C 0.70936 0.12447 0.20531 0.0
C669 C 0.68129 0.16937 0.21321 0.0
N670 N 0.63524 0.24915 0.20352 0.0
N671 N 0.73262 0.06857 0.17168 0.0
C672 C 0.66779 0.20919 0.19671 0.0
C673 C 0.71595 0.11582 0.18026 0.0
N674 N 0.68596 0.24838 0.15829 0.0
N675 N 0.73141 0.09125 0.22165 0.0
H676 H 0.74137 0.06226 0.15357 0.0
H677 H 0.73545 0.03531 0.18231 0.0
H678 H 0.72887 0.09704 0.24018 0.0
H679 H 0.75652 0.06079 0.21685 0.0
H680 H 0.67671 0.28574 0.16448 0.0
H681 H 0.70195 0.24808 0.14113 0.0
H682 H 0.61996 0.27625 0.19146 0.0
H683 H 0.61911 0.25228 0.22068 0.0
C684 C 0.96802 0.13169 0.41665 0.0
C685 C 0.01279 0.16193 0.41049 0.0
C686 C 0.02421 0.18577 0.45285 0.0
C687 C 0.97442 0.16345 0.45805 0.0
N688 N 0.89615 0.11943 0.44432 0.0
N689 N 0.08302 0.21962 0.42233 0.0
C690 C 0.94565 0.1373 0.43982 0.0
C691 C 0.04111 0.18921 0.42853 0.0
N692 N 0.94809 0.09599 0.4007 0.0
N693 N 0.05579 0.20243 0.47123 0.0
H694 H 0.09677 0.22227 0.40473 0.0
H695 H 0.10174 0.24496 0.43427 0.0
H696 H 0.04514 0.19865 0.48923 0.0
H697 H 0.09436 0.21496 0.46885 0.0
H698 H 0.91838 0.06975 0.40506 0.0
H699 H 0.96504 0.08847 0.38399 0.0
H700 H 0.8708 0.10584 0.43095 0.0
H701 H 0.87904 0.1221 0.4612 0.0
C702 C 0.05443 0.54083 0.68368 0.0
C703 C 0.02769 0.51282 0.66531 0.0
C704 C 0.98394 0.45942 0.6954 0.0
C705 C 0.00833 0.48932 0.71397 0.0
N706 N 0.05205 0.56993 0.72502 0.0
N707 N 0.95455 0.45851 0.65403 0.0
C708 C 0.03916 0.53358 0.70793 0.0
C709 C 0.98821 0.47646 0.67134 0.0
N710 N 0.09599 0.57237 0.67833 0.0
N711 N 0.9596 0.4131 0.70026 0.0
H712 H 0.95551 0.47248 0.63645 0.0
H713 H 0.92211 0.43511 0.65778 0.0
H714 H 0.95926 0.39592 0.71717 0.0
H715 H 0.94572 0.38811 0.68684 0.0
H716 H 0.12026 0.58841 0.69154 0.0
H717 H 0.10885 0.57918 0.66088 0.0
H718 H 0.07066 0.60502 0.72095 0.0
H719 H 0.03852 0.5683 0.74267 0.0
C720 C 0.54356 0.25283 0.37147 0.0
C721 C 0.52352 0.20162 0.37393 0.0
C722 C 0.5784 0.17234 0.34085 0.0
C723 C 0.59443 0.22419 0.33618 0.0
N724 N 0.57854 0.31639 0.34375 0.0
N725 N 0.50783 0.1184 0.35479 0.0
C726 C 0.57324 0.26553 0.35055 0.0
C727 C 0.53587 0.1635 0.35644 0.0
N728 N 0.53438 0.28915 0.38899 0.0
N729 N 0.60654 0.13104 0.33226 0.0
H730 H 0.47461 0.11143 0.36517 0.0
H731 H 0.51373 0.09181 0.34081 0.0
H732 H 0.64318 0.13626 0.32445 0.0
H733 H 0.59783 0.09239 0.33654 0.0
H734 H 0.55276 0.3255 0.38933 0.0
H735 H 0.51057 0.28145 0.40382 0.0
H736 H 0.56018 0.34712 0.35279 0.0
H737 H 0.59565 0.32755 0.3276 0.0
C738 C 0.87822 0.11467 0.62367 0.0
C739 C 0.90547 0.07023 0.63238 0.0
C740 C 0.92591 0.04295 0.59149 0.0
C741 C 0.90364 0.09007 0.5825 0.0
N742 N 0.83984 0.1587 0.58925 0.0
N743 N 0.92321 0.97982 0.62374 0.0
C744 C 0.87391 0.12248 0.59836 0.0
C745 C 0.91837 0.03001 0.61596 0.0
N746 N 0.85627 0.14892 0.63962 0.0
N747 N 0.9572 0.01212 0.57743 0.0
H748 H 0.91345 0.9693 0.64128 0.0
H749 H 0.92932 0.94831 0.61214 0.0
H750 H 0.97049 0.02285 0.56047 0.0
H751 H 0.97489 0.97828 0.58381 0.0
H752 H 0.84222 0.18567 0.63489 0.0
H753 H 0.85258 0.14 0.65784 0.0
H754 H 0.81437 0.18085 0.5998 0.0
H755 H 0.83277 0.1627 0.57088 0.0
C756 C 0.17083 0.47341 0.86573 0.0
C757 C 0.13917 0.45031 0.88362 0.0
C758 C 0.08993 0.40556 0.85165 0.0
C759 C 0.11008 0.44217 0.83481 0.0
N760 N 0.16774 0.516 0.82736 0.0
N761 N 0.07701 0.38335 0.89368 0.0
C762 C 0.15074 0.477 0.84209 0.0
C763 C 0.10152 0.41242 0.87655 0.0
N764 N 0.21972 0.49178 0.87127 0.0
N765 N 0.06163 0.36351 0.84377 0.0
H766 H 0.0897 0.38343 0.91155 0.0
H767 H 0.0443 0.36002 0.89028 0.0
H768 H 0.05521 0.35582 0.82559 0.0
H769 H 0.04921 0.33347 0.85493 0.0
H770 H 0.24529 0.50654 0.85835 0.0
H771 H 0.23697 0.48514 0.88802 0.0
H772 H 0.19519 0.54378 0.83285 0.0
H773 H 0.15041 0.5246 0.81087 0.0
C774 C 0.71747 0.62303 0.10334 0.0
C775 C 0.72995 0.58415 0.1206 0.0
C776 C 0.78112 0.53648 0.09022 0.0
C777 C 0.75943 0.56952 0.07237 0.0
N778 N 0.73939 0.65997 0.06473 0.0
N779 N 0.77877 0.5073 0.13171 0.0
C780 C 0.73774 0.61799 0.07973 0.0
C781 C 0.76428 0.54238 0.11448 0.0
N782 N 0.68297 0.66237 0.10867 0.0
N783 N 0.82026 0.50234 0.08415 0.0
H784 H 0.76993 0.5128 0.14986 0.0
H785 H 0.79793 0.47225 0.12803 0.0
H786 H 0.83756 0.50252 0.06715 0.0
H787 H 0.84008 0.47892 0.09643 0.0
H788 H 0.66745 0.6872 0.09566 0.0
H789 H 0.66673 0.66815 0.12564 0.0
H790 H 0.72731 0.69727 0.06989 0.0
H791 H 0.76035 0.65915 0.04863 0.0
loop_
_geom_bond_atom_site_label_1
_geom_bond_atom_site_label_2
_geom_bond_distance
_geom_bond_site_symmetry_2
_ccdc_geom_bond_type
Mg0 O7 2.141 . S
Mg0 O8 2.048 1_545 S
Mg0 O9 2.048 1_455 S
Mg0 O12 2.141 1_455 S
C1 O2 1.313 . S
C1 O8 1.195 . S
O2 C1 1.313 . S
C3 O4 1.245 . S
C3 O12 1.289 . S
O4 C3 1.245 . S
C5 O6 1.245 . S
C5 O7 1.289 1_565 S
O6 C5 1.245 . S
O7 Mg0 2.141 . S
O7 C5 1.289 1_545 S
O8 Mg0 2.048 1_565 S
O8 C1 1.195 . S
O9 Mg0 2.048 1_655 S
O9 C10 1.195 . S
C10 O9 1.195 . S
C10 O11 1.313 1_545 S
O11 C10 1.313 1_565 S
O12 Mg0 2.141 1_655 S
O12 C3 1.289 . S
Mg13 O20 2.141 . S
Mg13 O21 2.048 . S
Mg13 O22 2.048 . S
Mg13 O25 2.141 . S
C14 O15 1.313 . S
C14 O21 1.195 . S
O15 C14 1.313 . S
C16 O17 1.245 . S
C16 O25 1.289 . S
O17 C16 1.245 . S
C18 O19 1.245 . S
C18 O20 1.289 . S
O19 C18 1.245 . S
O20 Mg13 2.141 . S
O20 C18 1.289 . S
O21 Mg13 2.048 . S
O21 C14 1.195 . S
O22 Mg13 2.048 . S
O22 C23 1.195 . S
C23 O22 1.195 . S
C23 O24 1.313 . S
O24 C23 1.313 . S
O25 Mg13 2.141 . S
O25 C16 1.289 . S
Mg26 O33 2.141 . S
Mg26 O34 2.048 . S
Mg26 O35 2.048 . S
Mg26 O38 2.141 . S
C27 O28 1.313 . S
C27 O34 1.195 . S
O28 C27 1.313 . S
C29 O30 1.245 . S
C29 O38 1.289 . S
O30 C29 1.245 . S
C31 O32 1.245 . S
C31 O33 1.289 . S
O32 C31 1.245 . S
O33 Mg26 2.141 . S
O33 C31 1.289 . S
O34 Mg26 2.048 . S
O34 C27 1.195 . S
O35 Mg26 2.048 . S
O35 C36 1.195 . S
C36 O35 1.195 . S
C36 O37 1.313 . S
O37 C36 1.313 . S
O38 Mg26 2.141 . S
O38 C29 1.289 . S
Mg39 O46 2.141 . S
Mg39 O47 2.048 . S
Mg39 O48 2.048 . S
Mg39 O51 2.141 . S
C40 O41 1.313 . S
C40 O47 1.195 . S
O41 C40 1.313 . S
C42 O43 1.245 . S
C42 O51 1.289 . S
O43 C42 1.245 . S
C44 O45 1.245 . S
C44 O46 1.289 . S
O45 C44 1.245 . S
O46 Mg39 2.141 . S
O46 C44 1.289 . S
O47 Mg39 2.048 . S
O47 C40 1.195 . S
O48 Mg39 2.048 . S
O48 C49 1.195 . S
C49 O48 1.195 . S
C49 O50 1.313 . S
O50 C49 1.313 . S
O51 Mg39 2.141 . S
O51 C42 1.289 . S
Mg52 O59 2.141 . S
Mg52 O60 2.048 . S
Mg52 O61 2.048 . S
Mg52 O64 2.141 . S
C53 O54 1.313 . S
C53 O60 1.195 . S
O54 C53 1.313 . S
C55 O56 1.245 . S
C55 O64 1.289 . S
O56 C55 1.245 . S
C57 O58 1.245 . S
C57 O59 1.289 . S
O58 C57 1.245 . S
O59 Mg52 2.141 . S
O59 C57 1.289 . S
O60 Mg52 2.048 . S
O60 C53 1.195 . S
O61 Mg52 2.048 . S
O61 C62 1.195 . S
C62 O61 1.195 . S
C62 O63 1.313 . S
O63 C62 1.313 . S
O64 Mg52 2.141 . S
O64 C55 1.289 . S
Mg65 O72 2.141 . S
Mg65 O73 2.048 . S
Mg65 O74 2.048 . S
Mg65 O77 2.141 . S
C66 O67 1.313 . S
C66 O73 1.195 . S
O67 C66 1.313 . S
C68 O69 1.245 . S
C68 O77 1.289 . S
O69 C68 1.245 . S
C70 O71 1.245 . S
C70 O72 1.289 . S
O71 C70 1.245 . S
O72 Mg65 2.141 . S
O72 C70 1.289 . S
O73 Mg65 2.048 . S
O73 C66 1.195 . S
O74 Mg65 2.048 . S
O74 C75 1.195 . S
C75 O74 1.195 . S
C75 O76 1.313 . S
O76 C75 1.313 . S
O77 Mg65 2.141 . S
O77 C68 1.289 . S
Mg78 O85 2.141 . S
Mg78 O86 2.048 . S
Mg78 O87 2.048 . S
Mg78 O90 2.141 . S
C79 O80 1.313 . S
C79 O86 1.195 . S
O80 C79 1.313 . S
C81 O82 1.245 . S
C81 O90 1.289 . S
O82 C81 1.245 . S
C83 O84 1.245 . S
C83 O85 1.289 . S
O84 C83 1.245 . S
O85 Mg78 2.141 . S
O85 C83 1.289 . S
O86 Mg78 2.048 . S
O86 C79 1.195 . S
O87 Mg78 2.048 . S
O87 C88 1.195 . S
C88 O87 1.195 . S
C88 O89 1.313 . S
O89 C88 1.313 . S
O90 Mg78 2.141 . S
O90 C81 1.289 . S
Mg91 O98 2.141 1_655 S
Mg91 O99 2.048 1_655 S
Mg91 O100 2.048 1_565 S
Mg91 O103 2.141 1_565 S
C92 O93 1.313 . S
C92 O99 1.195 . S
O93 C92 1.313 . S
C94 O95 1.245 1_655 S
C94 O103 1.289 . S
O95 C94 1.245 1_455 S
C96 O97 1.245 . S
C96 O98 1.289 . S
O97 C96 1.245 . S
O98 Mg91 2.141 1_455 S
O98 C96 1.289 . S
O99 Mg91 2.048 1_455 S
O99 C92 1.195 . S
O100 Mg91 2.048 1_545 S
O100 C101 1.195 . S
C101 O100 1.195 . S
C101 O102 1.313 1_655 S
O102 C101 1.313 1_455 S
O103 Mg91 2.141 1_545 S
O103 C94 1.289 . S
Co104 O105 2.216 1_554 S
Co104 O106 2.091 1_554 S
Co104 O108 2.004 . S
Co104 O114 2.021 1_554 S
Co104 O116 2.137 . S
Co104 O117 2.244 . S
O105 Co104 2.216 1_556 S
O105 C112 1.247 . S
O106 Co104 2.091 1_556 S
O106 C112 1.261 . S
C107 O116 1.247 . S
C107 O117 1.272 . S
O108 Co104 2.004 . S
O108 C113 1.259 . S
Co109 O110 2.061 . S
Co109 O115 2.052 1_554 S
Co109 O117 2.135 . S
O110 Co109 2.061 . S
O110 C113 1.235 . S
C111 O114 1.238 . S
C111 O115 1.241 . S
C112 O105 1.247 . S
C112 O106 1.261 . S
C113 O108 1.259 . S
C113 O110 1.235 . S
O114 Co104 2.021 1_556 S
O114 C111 1.238 . S
O115 Co109 2.052 1_556 S
O115 C111 1.241 . S
O116 Co104 2.137 . S
O116 C107 1.247 . S
O117 Co104 2.244 . S
O117 C107 1.272 . S
O117 Co109 2.135 . S
Co118 O119 2.216 . S
Co118 O120 2.091 . S
Co118 O122 2.004 . S
Co118 O128 2.021 . S
Co118 O130 2.137 . S
Co118 O131 2.244 . S
O119 Co118 2.216 . S
O119 C126 1.247 . S
O120 Co118 2.091 . S
O120 C126 1.261 . S
C121 O130 1.247 . S
C121 O131 1.272 . S
O122 Co118 2.004 . S
O122 C127 1.259 . S
Co123 O124 2.061 . S
Co123 O129 2.052 . S
Co123 O131 2.135 . S
O124 Co123 2.061 . S
O124 C127 1.235 . S
C125 O128 1.238 . S
C125 O129 1.241 . S
C126 O119 1.247 . S
C126 O120 1.261 . S
C127 O122 1.259 . S
C127 O124 1.235 . S
O128 Co118 2.021 . S
O128 C125 1.238 . S
O129 Co123 2.052 . S
O129 C125 1.241 . S
O130 Co118 2.137 . S
O130 C121 1.247 . S
O131 Co118 2.244 . S
O131 C121 1.272 . S
O131 Co123 2.135 . S
Co132 O133 2.216 . S
Co132 O134 2.091 . S
Co132 O136 2.004 . S
Co132 O142 2.021 . S
Co132 O144 2.137 . S
Co132 O145 2.244 . S
O133 Co132 2.216 . S
O133 C140 1.247 . S
O134 Co132 2.091 . S
O134 C140 1.261 . S
C135 O144 1.247 . S
C135 O145 1.272 . S
O136 Co132 2.004 . S
O136 C141 1.259 . S
Co137 O138 2.061 . S
Co137 O143 2.052 . S
Co137 O145 2.135 . S
O138 Co137 2.061 . S
O138 C141 1.235 . S
C139 O142 1.238 . S
C139 O143 1.241 . S
C140 O133 1.247 . S
C140 O134 1.261 . S
C141 O136 1.259 . S
C141 O138 1.235 . S
O142 Co132 2.021 . S
O142 C139 1.238 . S
O143 Co137 2.052 . S
O143 C139 1.241 . S
O144 Co132 2.137 . S
O144 C135 1.247 . S
O145 Co132 2.244 . S
O145 C135 1.272 . S
O145 Co137 2.135 . S
Co146 O147 2.216 . S
Co146 O148 2.091 . S
Co146 O150 2.004 . S
Co146 O156 2.021 . S
Co146 O158 2.137 . S
Co146 O159 2.244 . S
O147 Co146 2.216 . S
O147 C154 1.247 . S
O148 Co146 2.091 . S
O148 C154 1.261 . S
C149 O158 1.247 . S
C149 O159 1.272 . S
O150 Co146 2.004 . S
O150 C155 1.259 . S
Co151 O152 2.061 . S
Co151 O157 2.052 . S
Co151 O159 2.135 . S
O152 Co151 2.061 . S
O152 C155 1.235 . S
C153 O156 1.238 . S
C153 O157 1.241 . S
C154 O147 1.247 . S
C154 O148 1.261 . S
C155 O150 1.259 . S
C155 O152 1.235 . S
O156 Co146 2.021 . S
O156 C153 1.238 . S
O157 Co151 2.052 . S
O157 C153 1.241 . S
O158 Co146 2.137 . S
O158 C149 1.247 . S
O159 Co146 2.244 . S
O159 C149 1.272 . S
O159 Co151 2.135 . S
Co160 O161 2.216 . S
Co160 O162 2.091 . S
Co160 O164 2.004 . S
Co160 O170 2.021 . S
Co160 O172 2.137 . S
Co160 O173 2.244 . S
O161 Co160 2.216 . S
O161 C168 1.247 . S
O162 Co160 2.091 . S
O162 C168 1.261 . S
C163 O172 1.247 . S
C163 O173 1.272 . S
O164 Co160 2.004 . S
O164 C169 1.259 . S
Co165 O166 2.061 . S
Co165 O171 2.052 . S
Co165 O173 2.135 . S
O166 Co165 2.061 . S
O166 C169 1.235 . S
C167 O170 1.238 . S
C167 O171 1.241 . S
C168 O161 1.247 . S
C168 O162 1.261 . S
C169 O164 1.259 . S
C169 O166 1.235 . S
O170 Co160 2.021 . S
O170 C167 1.238 . S
O171 Co165 2.052 . S
O171 C167 1.241 . S
O172 Co160 2.137 . S
O172 C163 1.247 . S
O173 Co160 2.244 . S
O173 C163 1.272 . S
O173 Co165 2.135 . S
Co174 O175 2.216 . S
Co174 O176 2.091 . S
Co174 O178 2.004 . S
Co174 O184 2.021 . S
Co174 O186 2.137 . S
Co174 O187 2.244 1_655 S
O175 Co174 2.216 . S
O175 C182 1.247 . S
O176 Co174 2.091 . S
O176 C182 1.261 . S
C177 O186 1.247 . S
C177 O187 1.272 1_655 S
O178 Co174 2.004 . S
O178 C183 1.259 . S
Co179 O180 2.061 . S
Co179 O185 2.052 . S
Co179 O187 2.135 . S
O180 Co179 2.061 . S
O180 C183 1.235 1_455 S
C181 O184 1.238 1_455 S
C181 O185 1.241 . S
C182 O175 1.247 . S
C182 O176 1.261 . S
C183 O178 1.259 . S
C183 O180 1.235 1_655 S
O184 Co174 2.021 . S
O184 C181 1.238 1_655 S
O185 Co179 2.052 . S
O185 C181 1.241 . S
O186 Co174 2.137 . S
O186 C177 1.247 . S
O187 Co174 2.244 1_455 S
O187 C177 1.272 1_455 S
O187 Co179 2.135 . S
Co188 O189 2.216 . S
Co188 O190 2.091 . S
Co188 O192 2.004 . S
Co188 O198 2.021 . S
Co188 O200 2.137 1_554 S
Co188 O201 2.245 1_554 S
O189 Co188 2.216 . S
O189 C196 1.247 . S
O190 Co188 2.091 . S
O190 C196 1.261 . S
C191 O200 1.247 . S
C191 O201 1.269 . S
O192 Co188 2.004 . S
O192 C197 1.259 . S
Co193 O194 2.061 . S
Co193 O199 2.052 . S
Co193 O201 2.135 1_554 S
O194 Co193 2.061 . S
O194 C197 1.235 . S
C195 O198 1.238 . S
C195 O199 1.241 . S
C196 O189 1.247 . S
C196 O190 1.261 . S
C197 O192 1.259 . S
C197 O194 1.235 . S
O198 Co188 2.021 . S
O198 C195 1.238 . S
O199 Co193 2.052 . S
O199 C195 1.241 . S
O200 Co188 2.137 1_556 S
O200 C191 1.247 . S
O201 Co188 2.245 1_556 S
O201 C191 1.269 . S
O201 Co193 2.135 1_556 S
Co202 O203 2.216 . S
Co202 O204 2.091 . S
Co202 O206 2.004 . S
Co202 O212 2.021 . S
Co202 O214 2.137 . S
Co202 O215 2.244 . S
O203 Co202 2.216 . S
O203 C210 1.247 . S
O204 Co202 2.091 . S
O204 C210 1.261 . S
C205 O214 1.247 . S
C205 O215 1.272 . S
O206 Co202 2.004 . S
O206 C211 1.259 . S
Co207 O208 2.061 . S
Co207 O213 2.052 . S
Co207 O215 2.135 . S
O208 Co207 2.061 . S
O208 C211 1.235 . S
C209 O212 1.238 . S
C209 O213 1.241 . S
C210 O203 1.247 . S
C210 O204 1.261 . S
C211 O206 1.259 . S
C211 O208 1.235 . S
O212 Co202 2.021 . S
O212 C209 1.238 . S
O213 Co207 2.052 . S
O213 C209 1.241 . S
O214 Co202 2.137 . S
O214 C205 1.247 . S
O215 Co202 2.244 . S
O215 C205 1.272 . S
O215 Co207 2.135 . S
C216 C217 1.363 . S
C216 C222 1.379 . S
C216 N224 1.356 . S
C217 C216 1.363 . S
C217 C223 1.367 . S
C218 C219 1.363 . S
C218 C223 1.379 . S
C218 N225 1.356 1_565 S
C219 C218 1.363 . S
C219 C222 1.363 . S
N220 C222 1.356 . S
N220 H232 0.984 . S
N220 H233 0.985 . S
N221 C223 1.353 1_545 S
N221 H226 0.984 . S
N221 H227 0.985 . S
C222 C216 1.379 . S
C222 C219 1.363 . S
C222 N220 1.356 . S
C223 C217 1.367 . S
C223 C218 1.379 . S
C223 N221 1.353 1_565 S
N224 C216 1.356 . S
N224 H230 0.984 . S
N224 H231 0.984 . S
N225 C218 1.356 1_545 S
N225 H228 0.984 . S
N225 H229 0.985 . S
H226 N221 0.984 . S
H227 N221 0.985 . S
H228 N225 0.984 . S
H229 N225 0.985 . S
H230 N224 0.984 . S
H231 N224 0.984 . S
H232 N220 0.984 . S
H233 N220 0.985 . S
C234 C235 1.363 . S
C234 C240 1.379 . S
C234 N242 1.356 . S
C235 C234 1.363 . S
C235 C241 1.363 . S
C236 C237 1.363 . S
C236 C241 1.379 . S
C236 N243 1.356 . S
C237 C236 1.363 . S
C237 C240 1.363 . S
N238 C240 1.356 . S
N238 H250 0.984 . S
N238 H251 0.985 . S
N239 C241 1.356 . S
N239 H244 0.984 . S
N239 H245 0.985 . S
C240 C234 1.379 . S
C240 C237 1.363 . S
C240 N238 1.356 . S
C241 C235 1.363 . S
C241 C236 1.379 . S
C241 N239 1.356 . S
N242 C234 1.356 . S
N242 H248 0.984 . S
N242 H249 0.984 . S
N243 C236 1.356 . S
N243 H246 0.984 . S
N243 H247 0.985 . S
H244 N239 0.984 . S
H245 N239 0.985 . S
H246 N243 0.984 . S
H247 N243 0.985 . S
H248 N242 0.984 . S
H249 N242 0.984 . S
H250 N238 0.984 . S
H251 N238 0.985 . S
C252 C253 1.363 . S
C252 C258 1.379 . S
C252 N260 1.356 . S
C253 C252 1.363 . S
C253 C259 1.363 . S
C254 C255 1.363 . S
C254 C259 1.379 . S
C254 N261 1.356 . S
C255 C254 1.363 . S
C255 C258 1.363 . S
N256 C258 1.356 . S
N256 H268 0.984 . S
N256 H269 0.985 . S
N257 C259 1.356 . S
N257 H262 0.984 . S
N257 H263 0.985 . S
C258 C252 1.379 . S
C258 C255 1.363 . S
C258 N256 1.356 . S
C259 C253 1.363 . S
C259 C254 1.379 . S
C259 N257 1.356 . S
N260 C252 1.356 . S
N260 H266 0.984 . S
N260 H267 0.984 . S
N261 C254 1.356 . S
N261 H264 0.984 . S
N261 H265 0.985 . S
H262 N257 0.984 . S
H263 N257 0.985 . S
H264 N261 0.984 . S
H265 N261 0.985 . S
H266 N260 0.984 . S
H267 N260 0.984 . S
H268 N256 0.984 . S
H269 N256 0.985 . S
C270 C271 1.363 . S
C270 C276 1.379 1_545 S
C270 N278 1.356 . S
C271 C270 1.363 . S
C271 C277 1.363 . S
C272 C273 1.363 1_545 S
C272 C277 1.379 . S
C272 N279 1.356 1_544 S
C273 C272 1.363 1_565 S
C273 C276 1.363 . S
N274 C276 1.356 . S
N274 H286 0.984 . S
N274 H287 0.985 . S
N275 C277 1.356 . S
N275 H280 0.984 . S
N275 H281 0.985 . S
C276 C270 1.379 1_565 S
C276 C273 1.363 . S
C276 N274 1.356 . S
C277 C271 1.363 . S
C277 C272 1.379 . S
C277 N275 1.356 . S
N278 C270 1.356 . S
N278 H284 0.998 . S
N278 H285 0.984 . S
N279 C272 1.356 1_566 S
N279 H282 0.984 . S
N279 H283 0.985 1_565 S
H280 N275 0.984 . S
H281 N275 0.985 . S
H282 N279 0.984 . S
H283 N279 0.985 1_545 S
H284 N278 0.998 . S
H285 N278 0.984 . S
H286 N274 0.984 . S
H287 N274 0.985 . S
C288 C289 1.363 . S
C288 C294 1.379 . S
C288 N296 1.356 . S
C289 C288 1.363 . S
C289 C295 1.363 . S
C290 C291 1.363 . S
C290 C295 1.379 . S
C290 N297 1.356 . S
C291 C290 1.363 . S
C291 C294 1.363 . S
N292 C294 1.356 1_554 S
N292 H304 0.984 . S
N292 H305 0.985 . S
N293 C295 1.356 . S
N293 H298 0.984 . S
N293 H299 0.985 . S
C294 C288 1.379 . S
C294 C291 1.363 . S
C294 N292 1.356 1_556 S
C295 C289 1.363 . S
C295 C290 1.379 . S
C295 N293 1.356 . S
N296 C288 1.356 . S
N296 H302 0.984 . S
N296 H303 0.984 . S
N297 C290 1.356 . S
N297 H300 0.984 . S
N297 H301 0.985 . S
H298 N293 0.984 . S
H299 N293 0.985 . S
H300 N297 0.984 . S
H301 N297 0.985 . S
H302 N296 0.984 . S
H303 N296 0.984 . S
H304 N292 0.984 . S
H305 N292 0.985 . S
C306 C307 1.363 . S
C306 C312 1.379 . S
C306 N314 1.356 . S
C307 C306 1.363 . S
C307 C313 1.363 . S
C308 C309 1.363 . S
C308 C313 1.379 . S
C308 N315 1.356 . S
C309 C308 1.363 . S
C309 C312 1.363 . S
N310 C312 1.356 . S
N310 H322 0.984 . S
N310 H323 0.985 . S
N311 C313 1.356 . S
N311 H316 0.984 . S
N311 H317 0.985 . S
C312 C306 1.379 . S
C312 C309 1.363 . S
C312 N310 1.356 . S
C313 C307 1.363 . S
C313 C308 1.379 . S
C313 N311 1.356 . S
N314 C306 1.356 . S
N314 H320 0.984 . S
N314 H321 0.984 . S
N315 C308 1.356 . S
N315 H318 0.984 . S
N315 H319 0.985 . S
H316 N311 0.984 . S
H317 N311 0.985 . S
H318 N315 0.984 . S
H319 N315 0.985 . S
H320 N314 0.984 . S
H321 N314 0.984 . S
H322 N310 0.984 . S
H323 N310 0.985 . S
C324 C325 1.361 1_565 S
C324 C330 1.381 . S
C324 N332 1.356 1_565 S
C325 C324 1.361 1_545 S
C325 C331 1.363 . S
C326 C327 1.363 1_545 S
C326 C331 1.379 . S
C326 N333 1.356 1_545 S
C327 C326 1.363 1_565 S
C327 C330 1.363 . S
N328 C330 1.356 . S
N328 H340 0.984 . S
N328 H341 0.985 . S
N329 C331 1.356 . S
N329 H334 0.984 . S
N329 H335 0.985 . S
C330 C324 1.381 . S
C330 C327 1.363 . S
C330 N328 1.356 . S
C331 C325 1.363 . S
C331 C326 1.379 . S
C331 N329 1.356 . S
N332 C324 1.356 1_545 S
N332 H338 0.984 1_545 S
N332 H339 0.984 . S
N333 C326 1.356 1_565 S
N333 H336 0.984 . S
N333 H337 0.985 1_565 S
H334 N329 0.984 . S
H335 N329 0.985 . S
H336 N333 0.984 . S
H337 N333 0.985 1_545 S
H338 N332 0.984 1_565 S
H339 N332 0.984 . S
H340 N328 0.984 . S
H341 N328 0.985 . S
C342 C343 1.363 . S
C342 C348 1.379 . S
C342 N350 1.356 . S
C343 C342 1.363 . S
C343 C349 1.363 . S
C344 C345 1.363 . S
C344 C349 1.379 . S
C344 N351 1.356 . S
C345 C344 1.363 . S
C345 C348 1.363 . S
N346 C348 1.356 . S
N346 H358 0.984 . S
N346 H359 0.985 . S
N347 C349 1.356 . S
N347 H352 0.984 . S
N347 H353 0.985 . S
C348 C342 1.379 . S
C348 C345 1.363 . S
C348 N346 1.356 . S
C349 C343 1.363 . S
C349 C344 1.379 . S
C349 N347 1.356 . S
N350 C342 1.356 . S
N350 H356 0.984 . S
N350 H357 0.984 . S
N351 C344 1.356 . S
N351 H354 0.984 . S
N351 H355 0.985 . S
H352 N347 0.984 . S
H353 N347 0.985 . S
H354 N351 0.984 . S
H355 N351 0.985 . S
H356 N350 0.984 . S
H357 N350 0.984 . S
H358 N346 0.984 . S
H359 N346 0.985 . S
C360 C361 1.363 . S
C360 C366 1.379 . S
C360 N368 1.356 . S
C361 C360 1.363 . S
C361 C367 1.363 . S
C362 C363 1.363 . S
C362 C367 1.379 . S
C362 N369 1.356 . S
C363 C362 1.363 . S
C363 C366 1.363 . S
N364 C366 1.356 . S
N364 H376 0.984 . S
N364 H377 0.985 . S
N365 C367 1.356 . S
N365 H370 0.984 . S
N365 H371 0.985 . S
C366 C360 1.379 . S
C366 C363 1.363 . S
C366 N364 1.356 . S
C367 C361 1.363 . S
C367 C362 1.379 . S
C367 N365 1.356 . S
N368 C360 1.356 . S
N368 H374 0.984 . S
N368 H375 0.984 . S
N369 C362 1.356 . S
N369 H372 0.984 . S
N369 H373 0.985 . S
H370 N365 0.984 . S
H371 N365 0.985 . S
H372 N369 0.984 . S
H373 N369 0.985 . S
H374 N368 0.984 . S
H375 N368 0.984 . S
H376 N364 0.984 . S
H377 N364 0.985 . S
C378 C379 1.363 . S
C378 C384 1.379 . S
C378 N386 1.356 . S
C379 C378 1.363 . S
C379 C385 1.363 . S
C380 C381 1.363 . S
C380 C385 1.379 . S
C380 N387 1.356 . S
C381 C380 1.363 . S
C381 C384 1.363 . S
N382 C384 1.356 . S
N382 H394 0.984 . S
N382 H395 0.985 . S
N383 C385 1.356 . S
N383 H388 0.984 . S
N383 H389 0.985 . S
C384 C378 1.379 . S
C384 C381 1.363 . S
C384 N382 1.356 . S
C385 C379 1.363 . S
C385 C380 1.379 . S
C385 N383 1.356 . S
N386 C378 1.356 . S
N386 H392 0.984 . S
N386 H393 0.984 . S
N387 C380 1.356 . S
N387 H390 0.984 . S
N387 H391 0.985 . S
H388 N383 0.984 . S
H389 N383 0.985 . S
H390 N387 0.984 . S
H391 N387 0.985 . S
H392 N386 0.984 . S
H393 N386 0.984 . S
H394 N382 0.984 . S
H395 N382 0.985 . S
C396 C397 1.363 . S
C396 C402 1.379 . S
C396 N404 1.356 . S
C397 C396 1.363 . S
C397 C403 1.363 . S
C398 C399 1.363 . S
C398 C403 1.379 . S
C398 N405 1.356 . S
C399 C398 1.363 . S
C399 C402 1.363 . S
N400 C402 1.356 . S
N400 H412 0.984 . S
N400 H413 0.985 . S
N401 C403 1.356 . S
N401 H406 0.984 . S
N401 H407 0.985 . S
C402 C396 1.379 . S
C402 C399 1.363 . S
C402 N400 1.356 . S
C403 C397 1.363 . S
C403 C398 1.379 . S
C403 N401 1.356 . S
N404 C396 1.356 . S
N404 H410 0.984 . S
N404 H411 0.984 . S
N405 C398 1.356 . S
N405 H408 0.984 . S
N405 H409 0.985 . S
H406 N401 0.984 . S
H407 N401 0.985 . S
H408 N405 0.984 . S
H409 N405 0.985 . S
H410 N404 0.984 . S
H411 N404 0.984 . S
H412 N400 0.984 . S
H413 N400 0.985 . S
C414 C415 1.363 . S
C414 C420 1.379 1_455 S
C414 N422 1.356 . S
C415 C414 1.363 . S
C415 C421 1.363 . S
C416 C417 1.363 1_455 S
C416 C421 1.379 . S
C416 N423 1.356 1_455 S
C417 C416 1.363 1_655 S
C417 C420 1.363 . S
N418 C420 1.356 . S
N418 H430 0.984 . S
N418 H431 0.985 . S
N419 C421 1.356 . S
N419 H424 0.984 . S
N419 H425 0.985 . S
C420 C414 1.379 1_655 S
C420 C417 1.363 . S
C420 N418 1.356 . S
C421 C415 1.363 . S
C421 C416 1.379 . S
C421 N419 1.356 . S
N422 C414 1.356 . S
N422 H428 0.984 . S
N422 H429 0.984 . S
N423 C416 1.356 1_655 S
N423 H426 0.984 . S
N423 H427 0.985 1_655 S
H424 N419 0.984 . S
H425 N419 0.985 . S
H426 N423 0.984 . S
H427 N423 0.985 1_455 S
H428 N422 0.984 . S
H429 N422 0.984 . S
H430 N418 0.984 . S
H431 N418 0.985 . S
C432 C433 1.363 . S
C432 C438 1.379 . S
C432 N440 1.356 . S
C433 C432 1.363 . S
C433 C439 1.363 . S
C434 C435 1.363 . S
C434 C439 1.379 . S
C434 N441 1.356 . S
C435 C434 1.363 . S
C435 C438 1.363 . S
N436 C438 1.356 . S
N436 H448 0.984 . S
N436 H449 0.985 . S
N437 C439 1.356 . S
N437 H442 0.984 . S
N437 H443 0.985 . S
C438 C432 1.379 . S
C438 C435 1.363 . S
C438 N436 1.356 . S
C439 C433 1.363 . S
C439 C434 1.379 . S
C439 N437 1.356 . S
N440 C432 1.356 . S
N440 H446 0.984 . S
N440 H447 0.984 . S
N441 C434 1.356 . S
N441 H444 0.984 . S
N441 H445 0.985 . S
H442 N437 0.984 . S
H443 N437 0.985 . S
H444 N441 0.984 . S
H445 N441 0.985 . S
H446 N440 0.984 . S
H447 N440 0.984 . S
H448 N436 0.984 . S
H449 N436 0.985 . S
C450 C451 1.363 . S
C450 C456 1.379 . S
C450 N458 1.356 . S
C451 C450 1.363 . S
C451 C457 1.363 . S
C452 C453 1.363 . S
C452 C457 1.379 . S
C452 N459 1.356 1_655 S
C453 C452 1.363 . S
C453 C456 1.363 . S
N454 C456 1.356 . S
N454 H466 0.984 . S
N454 H467 0.985 . S
N455 C457 1.356 1_455 S
N455 H460 0.984 . S
N455 H461 0.985 . S
C456 C450 1.379 . S
C456 C453 1.363 . S
C456 N454 1.356 . S
C457 C451 1.363 . S
C457 C452 1.379 . S
C457 N455 1.356 1_655 S
N458 C450 1.356 . S
N458 H464 0.984 . S
N458 H465 0.984 . S
N459 C452 1.356 1_455 S
N459 H462 0.982 1_455 S
N459 H463 0.985 . S
H460 N455 0.984 . S
H461 N455 0.985 . S
H462 N459 0.982 1_655 S
H463 N459 0.985 . S
H464 N458 0.984 . S
H465 N458 0.984 . S
H466 N454 0.984 . S
H467 N454 0.985 . S
C468 C469 1.363 . S
C468 C474 1.379 1_556 S
C468 N476 1.356 . S
C469 C468 1.363 . S
C469 C475 1.363 . S
C470 C471 1.363 1_556 S
C470 C475 1.379 1_655 S
C470 N477 1.356 . S
C471 C470 1.363 1_554 S
C471 C474 1.363 1_655 S
N472 C474 1.356 1_655 S
N472 H484 0.984 . S
N472 H485 0.985 . S
N473 C475 1.356 . S
N473 H478 0.984 . S
N473 H479 0.985 . S
C474 C468 1.379 1_554 S
C474 C471 1.363 1_455 S
C474 N472 1.356 1_455 S
C475 C469 1.363 . S
C475 C470 1.379 1_455 S
C475 N473 1.356 . S
N476 C468 1.356 . S
N476 H482 0.984 1_556 S
N476 H483 0.984 . S
N477 C470 1.356 . S
N477 H480 0.984 . S
N477 H481 0.985 . S
H478 N473 0.984 . S
H479 N473 0.985 . S
H480 N477 0.984 . S
H481 N477 0.985 . S
H482 N476 0.984 1_554 S
H483 N476 0.984 . S
H484 N472 0.984 . S
H485 N472 0.985 . S
C486 C487 1.363 . S
C486 C492 1.379 . S
C486 N494 1.356 . S
C487 C486 1.363 . S
C487 C493 1.363 . S
C488 C489 1.363 . S
C488 C493 1.379 . S
C488 N495 1.356 . S
C489 C488 1.363 . S
C489 C492 1.363 . S
N490 C492 1.356 . S
N490 H502 0.984 . S
N490 H503 0.985 . S
N491 C493 1.356 . S
N491 H496 0.984 . S
N491 H497 0.985 . S
C492 C486 1.379 . S
C492 C489 1.363 . S
C492 N490 1.356 . S
C493 C487 1.363 . S
C493 C488 1.379 . S
C493 N491 1.356 . S
N494 C486 1.356 . S
N494 H500 0.984 . S
N494 H501 0.984 . S
N495 C488 1.356 . S
N495 H498 0.984 . S
N495 H499 0.985 . S
H496 N491 0.984 . S
H497 N491 0.985 . S
H498 N495 0.984 . S
H499 N495 0.985 . S
H500 N494 0.984 . S
H501 N494 0.984 . S
H502 N490 0.984 . S
H503 N490 0.985 . S
C504 C505 1.363 . S
C504 C510 1.379 . S
C504 N512 1.356 . S
C505 C504 1.363 . S
C505 C511 1.363 . S
C506 C507 1.363 . S
C506 C511 1.379 . S
C506 N513 1.356 . S
C507 C506 1.363 . S
C507 C510 1.363 . S
N508 C510 1.356 . S
N508 H520 0.984 . S
N508 H521 0.985 . S
N509 C511 1.356 . S
N509 H514 0.984 . S
N509 H515 0.985 1_565 S
C510 C504 1.379 . S
C510 C507 1.363 . S
C510 N508 1.356 . S
C511 C505 1.363 . S
C511 C506 1.379 . S
C511 N509 1.356 . S
N512 C504 1.356 . S
N512 H518 0.984 . S
N512 H519 0.984 . S
N513 C506 1.356 . S
N513 H516 0.984 . S
N513 H517 0.985 . S
H514 N509 0.984 . S
H515 N509 0.985 1_545 S
H516 N513 0.984 . S
H517 N513 0.985 . S
H518 N512 0.984 . S
H519 N512 0.984 . S
H520 N508 0.984 . S
H521 N508 0.985 . S
C522 C523 1.363 . S
C522 C528 1.379 . S
C522 N530 1.356 . S
C523 C522 1.363 . S
C523 C529 1.363 . S
C524 C525 1.363 . S
C524 C529 1.379 . S
C524 N531 1.356 . S
C525 C524 1.363 . S
C525 C528 1.363 . S
N526 C528 1.356 . S
N526 H538 0.984 . S
N526 H539 0.985 . S
N527 C529 1.356 . S
N527 H532 0.984 . S
N527 H533 0.985 . S
C528 C522 1.379 . S
C528 C525 1.363 . S
C528 N526 1.356 . S
C529 C523 1.363 . S
C529 C524 1.379 . S
C529 N527 1.356 . S
N530 C522 1.356 . S
N530 H536 0.984 . S
N530 H537 0.984 . S
N531 C524 1.356 . S
N531 H534 0.984 . S
N531 H535 0.985 . S
H532 N527 0.984 . S
H533 N527 0.985 . S
H534 N531 0.984 . S
H535 N531 0.985 . S
H536 N530 0.984 . S
H537 N530 0.984 . S
H538 N526 0.984 . S
H539 N526 0.985 . S
C540 C541 1.363 . S
C540 C546 1.379 . S
C540 N548 1.356 . S
C541 C540 1.363 . S
C541 C547 1.363 . S
C542 C543 1.363 . S
C542 C547 1.379 . S
C542 N549 1.356 . S
C543 C542 1.363 . S
C543 C546 1.363 . S
N544 C546 1.356 . S
N544 H556 0.984 . S
N544 H557 0.985 . S
N545 C547 1.356 . S
N545 H550 0.984 . S
N545 H551 0.985 . S
C546 C540 1.379 . S
C546 C543 1.363 . S
C546 N544 1.356 . S
C547 C541 1.363 . S
C547 C542 1.379 . S
C547 N545 1.356 . S
N548 C540 1.356 . S
N548 H554 0.984 . S
N548 H555 0.984 . S
N549 C542 1.356 . S
N549 H552 0.984 . S
N549 H553 0.985 . S
H550 N545 0.984 . S
H551 N545 0.985 . S
H552 N549 0.984 . S
H553 N549 0.985 . S
H554 N548 0.984 . S
H555 N548 0.984 . S
H556 N544 0.984 . S
H557 N544 0.985 . S
C558 C559 1.363 . S
C558 C564 1.379 . S
C558 N566 1.356 . S
C559 C558 1.363 . S
C559 C565 1.363 . S
C560 C561 1.363 . S
C560 C565 1.379 . S
C560 N567 1.356 . S
C561 C560 1.363 . S
C561 C564 1.363 . S
N562 C564 1.356 1_565 S
N562 H574 0.984 . S
N562 H575 0.985 . S
N563 C565 1.356 . S
N563 H568 0.984 . S
N563 H569 0.985 . S
C564 C558 1.379 . S
C564 C561 1.363 . S
C564 N562 1.356 1_545 S
C565 C559 1.363 . S
C565 C560 1.379 . S
C565 N563 1.356 . S
N566 C558 1.356 . S
N566 H572 0.984 . S
N566 H573 0.984 . S
N567 C560 1.356 . S
N567 H570 0.984 . S
N567 H571 0.985 . S
H568 N563 0.984 . S
H569 N563 0.985 . S
H570 N567 0.984 . S
H571 N567 0.985 . S
H572 N566 0.984 . S
H573 N566 0.984 . S
H574 N562 0.984 . S
H575 N562 0.985 . S
C576 C577 1.363 . S
C576 C582 1.379 . S
C576 N584 1.356 . S
C577 C576 1.363 . S
C577 C583 1.363 . S
C578 C579 1.363 . S
C578 C583 1.379 . S
C578 N585 1.356 . S
C579 C578 1.363 . S
C579 C582 1.363 . S
N580 C582 1.356 . S
N580 H592 0.984 . S
N580 H593 0.985 . S
N581 C583 1.356 . S
N581 H586 0.984 . S
N581 H587 0.985 . S
C582 C576 1.379 . S
C582 C579 1.363 . S
C582 N580 1.356 . S
C583 C577 1.363 . S
C583 C578 1.379 . S
C583 N581 1.356 . S
N584 C576 1.356 . S
N584 H590 0.984 . S
N584 H591 0.984 . S
N585 C578 1.356 . S
N585 H588 0.984 . S
N585 H589 0.985 . S
H586 N581 0.984 . S
H587 N581 0.985 . S
H588 N585 0.984 . S
H589 N585 0.985 . S
H590 N584 0.984 . S
H591 N584 0.984 . S
H592 N580 0.984 . S
H593 N580 0.985 . S
C594 C595 1.363 . S
C594 C600 1.379 . S
C594 N602 1.356 . S
C595 C594 1.363 . S
C595 C601 1.363 . S
C596 C597 1.363 . S
C596 C601 1.379 . S
C596 N603 1.356 . S
C597 C596 1.363 . S
C597 C600 1.363 . S
N598 C600 1.356 . S
N598 H610 0.984 . S
N598 H611 0.985 . S
N599 C601 1.356 . S
N599 H604 0.984 . S
N599 H605 0.985 . S
C600 C594 1.379 . S
C600 C597 1.363 . S
C600 N598 1.356 . S
C601 C595 1.363 . S
C601 C596 1.379 . S
C601 N599 1.356 . S
N602 C594 1.356 . S
N602 H608 0.984 . S
N602 H609 0.984 . S
N603 C596 1.356 . S
N603 H606 0.984 . S
N603 H607 0.985 . S
H604 N599 0.984 . S
H605 N599 0.985 . S
H606 N603 0.984 . S
H607 N603 0.985 . S
H608 N602 0.984 . S
H609 N602 0.984 . S
H610 N598 0.984 . S
H611 N598 0.985 . S
C612 C613 1.363 . S
C612 C618 1.381 . S
C612 N620 1.356 . S
C613 C612 1.363 . S
C613 C619 1.363 . S
C614 C615 1.363 . S
C614 C619 1.379 . S
C614 N621 1.356 . S
C615 C614 1.363 . S
C615 C618 1.363 . S
N616 C618 1.354 1_565 S
N616 H628 0.984 . S
N616 H629 0.985 . S
N617 C619 1.356 . S
N617 H622 0.984 . S
N617 H623 0.985 . S
C618 C612 1.381 . S
C618 C615 1.363 . S
C618 N616 1.354 1_545 S
C619 C613 1.363 . S
C619 C614 1.379 . S
C619 N617 1.356 . S
N620 C612 1.356 . S
N620 H626 0.984 . S
N620 H627 0.984 . S
N621 C614 1.356 . S
N621 H624 0.985 . S
N621 H625 0.985 . S
H622 N617 0.984 . S
H623 N617 0.985 . S
H624 N621 0.985 . S
H625 N621 0.985 . S
H626 N620 0.984 . S
H627 N620 0.984 . S
H628 N616 0.984 . S
H629 N616 0.985 . S
C630 C631 1.363 . S
C630 C636 1.379 . S
C630 N638 1.356 . S
C631 C630 1.363 . S
C631 C637 1.363 . S
C632 C633 1.363 . S
C632 C637 1.379 . S
C632 N639 1.356 . S
C633 C632 1.363 . S
C633 C636 1.363 . S
N634 C636 1.356 . S
N634 H646 0.984 . S
N634 H647 0.985 . S
N635 C637 1.356 . S
N635 H640 0.984 . S
N635 H641 0.985 1_455 S
C636 C630 1.379 . S
C636 C633 1.363 . S
C636 N634 1.356 . S
C637 C631 1.363 . S
C637 C632 1.379 . S
C637 N635 1.356 . S
N638 C630 1.356 . S
N638 H644 0.984 . S
N638 H645 0.984 . S
N639 C632 1.356 . S
N639 H642 0.984 . S
N639 H643 0.985 . S
H640 N635 0.984 . S
H641 N635 0.985 1_655 S
H642 N639 0.984 . S
H643 N639 0.985 . S
H644 N638 0.984 . S
H645 N638 0.984 . S
H646 N634 0.984 . S
H647 N634 0.985 . S
C648 C649 1.363 . S
C648 C654 1.379 . S
C648 N656 1.356 . S
C649 C648 1.363 . S
C649 C655 1.363 . S
C650 C651 1.363 . S
C650 C655 1.379 . S
C650 N657 1.356 . S
C651 C650 1.363 . S
C651 C654 1.363 . S
N652 C654 1.356 . S
N652 H664 0.984 . S
N652 H665 0.985 . S
N653 C655 1.356 . S
N653 H658 0.984 . S
N653 H659 0.985 . S
C654 C648 1.379 . S
C654 C651 1.363 . S
C654 N652 1.356 . S
C655 C649 1.363 . S
C655 C650 1.379 . S
C655 N653 1.356 . S
N656 C648 1.356 . S
N656 H662 0.984 . S
N656 H663 0.984 . S
N657 C650 1.356 . S
N657 H660 0.984 . S
N657 H661 0.985 . S
H658 N653 0.984 . S
H659 N653 0.985 . S
H660 N657 0.984 . S
H661 N657 0.985 . S
H662 N656 0.984 . S
H663 N656 0.984 . S
H664 N652 0.984 . S
H665 N652 0.985 . S
C666 C667 1.363 . S
C666 C672 1.379 . S
C666 N674 1.356 . S
C667 C666 1.363 . S
C667 C673 1.363 . S
C668 C669 1.363 . S
C668 C673 1.379 . S
C668 N675 1.356 . S
C669 C668 1.363 . S
C669 C672 1.363 . S
N670 C672 1.356 . S
N670 H682 0.984 . S
N670 H683 0.985 . S
N671 C673 1.356 . S
N671 H676 0.984 . S
N671 H677 0.985 . S
C672 C666 1.379 . S
C672 C669 1.363 . S
C672 N670 1.356 . S
C673 C667 1.363 . S
C673 C668 1.379 . S
C673 N671 1.356 . S
N674 C666 1.356 . S
N674 H680 0.984 . S
N674 H681 0.984 . S
N675 C668 1.356 . S
N675 H678 0.984 . S
N675 H679 0.985 . S
H676 N671 0.984 . S
H677 N671 0.985 . S
H678 N675 0.984 . S
H679 N675 0.985 . S
H680 N674 0.984 . S
H681 N674 0.984 . S
H682 N670 0.984 . S
H683 N670 0.985 . S
C684 C685 1.363 . S
C684 C690 1.379 . S
C684 N692 1.356 . S
C685 C684 1.363 . S
C685 C691 1.363 . S
C686 C687 1.363 . S
C686 C691 1.379 . S
C686 N693 1.356 . S
C687 C686 1.363 . S
C687 C690 1.363 . S
N688 C690 1.356 . S
N688 H700 0.984 . S
N688 H701 0.985 . S
N689 C691 1.356 . S
N689 H694 0.984 . S
N689 H695 0.985 . S
C690 C684 1.379 . S
C690 C687 1.363 . S
C690 N688 1.356 . S
C691 C685 1.363 . S
C691 C686 1.379 . S
C691 N689 1.356 . S
N692 C684 1.356 . S
N692 H698 0.984 . S
N692 H699 0.984 . S
N693 C686 1.356 . S
N693 H696 0.984 . S
N693 H697 0.985 . S
H694 N689 0.984 . S
H695 N689 0.985 . S
H696 N693 0.984 . S
H697 N693 0.985 . S
H698 N692 0.984 . S
H699 N692 0.984 . S
H700 N688 0.984 . S
H701 N688 0.985 . S
C702 C703 1.363 . S
C702 C708 1.379 . S
C702 N710 1.356 . S
C703 C702 1.363 . S
C703 C709 1.363 . S
C704 C705 1.363 . S
C704 C709 1.379 . S
C704 N711 1.356 1_455 S
C705 C704 1.363 . S
C705 C708 1.363 . S
N706 C708 1.356 . S
N706 H718 0.984 . S
N706 H719 0.985 . S
N707 C709 1.356 . S
N707 H712 0.984 . S
N707 H713 0.985 . S
C708 C702 1.379 . S
C708 C705 1.363 . S
C708 N706 1.356 . S
C709 C703 1.363 . S
C709 C704 1.379 . S
C709 N707 1.356 . S
N710 C702 1.356 . S
N710 H716 0.984 . S
N710 H717 0.984 . S
N711 C704 1.356 1_655 S
N711 H714 0.984 . S
N711 H715 0.985 . S
H712 N707 0.984 . S
H713 N707 0.985 . S
H714 N711 0.984 . S
H715 N711 0.985 . S
H716 N710 0.984 . S
H717 N710 0.984 . S
H718 N706 0.984 . S
H719 N706 0.985 . S
C720 C721 1.363 . S
C720 C726 1.379 . S
C720 N728 1.356 . S
C721 C720 1.363 . S
C721 C727 1.363 . S
C722 C723 1.363 . S
C722 C727 1.379 . S
C722 N729 1.356 . S
C723 C722 1.363 . S
C723 C726 1.363 . S
N724 C726 1.356 . S
N724 H736 0.984 . S
N724 H737 0.985 . S
N725 C727 1.356 . S
N725 H730 0.984 . S
N725 H731 0.985 . S
C726 C720 1.379 . S
C726 C723 1.363 . S
C726 N724 1.356 . S
C727 C721 1.363 . S
C727 C722 1.379 . S
C727 N725 1.356 . S
N728 C720 1.356 . S
N728 H734 0.984 . S
N728 H735 0.984 . S
N729 C722 1.356 . S
N729 H732 0.984 . S
N729 H733 0.985 . S
H730 N725 0.984 . S
H731 N725 0.985 . S
H732 N729 0.984 . S
H733 N729 0.985 . S
H734 N728 0.984 . S
H735 N728 0.984 . S
H736 N724 0.984 . S
H737 N724 0.985 . S
C738 C739 1.363 . S
C738 C744 1.379 . S
C738 N746 1.356 . S
C739 C738 1.363 . S
C739 C745 1.363 . S
C740 C741 1.363 . S
C740 C745 1.379 . S
C740 N747 1.356 . S
C741 C740 1.363 . S
C741 C744 1.363 . S
N742 C744 1.356 . S
N742 H754 0.984 . S
N742 H755 0.985 . S
N743 C745 1.356 . S
N743 H748 0.984 . S
N743 H749 0.973 1_545 S
C744 C738 1.379 . S
C744 C741 1.363 . S
C744 N742 1.356 . S
C745 C739 1.363 . S
C745 C740 1.379 . S
C745 N743 1.356 . S
N746 C738 1.356 . S
N746 H752 0.984 . S
N746 H753 0.984 . S
N747 C740 1.356 . S
N747 H750 0.984 . S
N747 H751 0.985 . S
H748 N743 0.984 . S
H749 N743 0.973 1_565 S
H750 N747 0.984 . S
H751 N747 0.985 . S
H752 N746 0.984 . S
H753 N746 0.984 . S
H754 N742 0.984 . S
H755 N742 0.985 . S
C756 C757 1.363 . S
C756 C762 1.379 . S
C756 N764 1.356 . S
C757 C756 1.363 . S
C757 C763 1.363 . S
C758 C759 1.363 . S
C758 C763 1.379 . S
C758 N765 1.356 1_455 S
C759 C758 1.363 . S
C759 C762 1.363 . S
N760 C762 1.356 . S
N760 H772 0.984 . S
N760 H773 0.985 . S
N761 C763 1.356 . S
N761 H766 0.984 . S
N761 H767 0.985 . S
C762 C756 1.379 . S
C762 C759 1.363 . S
C762 N760 1.356 . S
C763 C757 1.363 . S
C763 C758 1.379 . S
C763 N761 1.356 . S
N764 C756 1.356 . S
N764 H770 0.984 . S
N764 H771 0.984 . S
N765 C758 1.356 1_655 S
N765 H768 0.984 . S
N765 H769 0.985 . S
H766 N761 0.984 . S
H767 N761 0.985 . S
H768 N765 0.984 . S
H769 N765 0.985 . S
H770 N764 0.984 . S
H771 N764 0.984 . S
H772 N760 0.984 . S
H773 N760 0.985 . S
C774 C775 1.363 . S
C774 C780 1.379 . S
C774 N782 1.356 . S
C775 C774 1.363 . S
C775 C781 1.363 . S
C776 C777 1.363 . S
C776 C781 1.379 . S
C776 N783 1.356 . S
C777 C776 1.363 . S
C777 C780 1.363 . S
N778 C780 1.356 . S
N778 H790 0.984 . S
N778 H791 0.985 . S
N779 C781 1.356 . S
N779 H784 0.984 . S
N779 H785 0.985 . S
C780 C774 1.379 . S
C780 C777 1.363 . S
C780 N778 1.356 . S
C781 C775 1.363 . S
C781 C776 1.379 . S
C781 N779 1.356 . S
N782 C774 1.356 . S
N782 H788 0.984 . S
N782 H789 0.984 . S
N783 C776 1.356 . S
N783 H786 0.984 . S
N783 H787 0.985 . S
H784 N779 0.984 . S
H785 N779 0.985 . S
H786 N783 0.984 . S
H787 N783 0.985 . S
H788 N782 0.984 . S
H789 N782 0.984 . S
H790 N778 0.984 . S
H791 N778 0.985 . S
C219 C126 1.394 . S
C217 C5 1.391 . S
C237 C140 1.410 . S
C235 C18 1.408 . S
C255 C155 1.383 . S
C253 C31 1.405 . S
C271 C42 1.310 . S
C273 C113 1.354 . S
C289 C57 1.464 . S
C291 C112 1.512 . S
C307 C70 1.479 . S
C309 C127 1.471 . S
C327 C141 1.479 . S
C325 C81 1.532 . S
C345 C154 1.520 . S
C343 C96 1.473 . S
C361 C29 1.512 . S
C363 C182 1.509 . S
C381 C196 1.520 . S
C379 C44 1.473 . S
C397 C3 1.522 . S
C399 C211 1.463 . S
C417 C168 1.518 . S
C415 C16 1.523 . S
C433 C83 1.389 . S
C435 C169 1.364 . S
C451 C94 1.327 . S
C453 C183 1.373 . S
C471 C197 1.387 . S
C469 C55 1.336 . S
C487 C68 1.348 . S
C489 C210 1.424 . S
C507 C135 1.433 . S
C505 C1 1.444 . S
C525 C153 1.413 . S
C523 C14 1.447 . S
C541 C27 1.439 . S
C543 C111 1.407 . S
C559 C49 1.437 . S
C561 C121 1.428 1_545 S
C577 C53 1.648 . S
C579 C149 1.750 . S
C597 C107 1.759 . S
C595 C66 1.652 . S
C615 C125 1.731 1_545 S
C613 C88 1.745 . S
C633 C139 1.732 . S
C631 C92 1.650 . S
C651 C191 1.748 . S
C649 C36 1.744 . S
C669 C209 1.720 . S
C667 C40 1.639 . S
C685 C10 1.744 . S
C687 C163 1.749 . S
C705 C177 1.753 1_455 S
C703 C23 1.746 . S
C723 C205 1.432 . S
C721 C79 1.443 . S
C739 C101 1.443 . S
C741 C167 1.409 . S
C759 C181 1.411 . S
C757 C62 1.443 . S
C777 C195 1.421 . S
C775 C75 1.452 . S
