# Generated by pormake.
# Topology cml, (3,6)-cn, num edge types: 1
# Building blocks:
#     Node 0, Type 0, BuildingBlock: OLANEW_clean_sbu_2, # of connection points: 3
#     Node 1, Type 0, BuildingBlock: OLANEW_clean_sbu_2, # of connection points: 3
#     Node 2, Type 0, BuildingBlock: OLANEW_clean_sbu_2, # of connection points: 3
#     Node 3, Type 0, BuildingBlock: OLANEW_clean_sbu_2, # of connection points: 3
#     Node 4, Type 0, BuildingBlock: OLANEW_clean_sbu_2, # of connection points: 3
#     Node 5, Type 0, BuildingBlock: OLANEW_clean_sbu_2, # of connection points: 3
#     Node 6, Type 0, BuildingBlock: OLANEW_clean_sbu_2, # of connection points: 3
#     Node 7, Type 0, BuildingBlock: OLANEW_clean_sbu_2, # of connection points: 3
#     Node 8, Type 1, BuildingBlock: OJICUG_clean_sbu_0, # of connection points: 6
#     Node 9, Type 1, BuildingBlock: OJICUG_clean_sbu_0, # of connection points: 6
#     Node 10, Type 1, BuildingBlock: OJICUG_clean_sbu_0, # of connection points: 6
#     Node 11, Type 1, BuildingBlock: OJICUG_clean_sbu_0, # of connection points: 6
#     Edge 12, Type (0, 1), BuildingBlock: XUDNAN_clean_linker_2, # of connection points: 2
#     Edge 13, Type (0, 1), BuildingBlock: XUDNAN_clean_linker_2, # of connection points: 2
#     Edge 14, Type (0, 1), BuildingBlock: XUDNAN_clean_linker_2, # of connection points: 2
#     Edge 15, Type (0, 1), BuildingBlock: XUDNAN_clean_linker_2, # of connection points: 2
#     Edge 16, Type (0, 1), BuildingBlock: XUDNAN_clean_linker_2, # of connection points: 2
#     Edge 17, Type (0, 1), BuildingBlock: XUDNAN_clean_linker_2, # of connection points: 2
#     Edge 18, Type (0, 1), BuildingBlock: XUDNAN_clean_linker_2, # of connection points: 2
#     Edge 19, Type (0, 1), BuildingBlock: XUDNAN_clean_linker_2, # of connection points: 2
#     Edge 20, Type (0, 1), BuildingBlock: XUDNAN_clean_linker_2, # of connection points: 2
#     Edge 21, Type (0, 1), BuildingBlock: XUDNAN_clean_linker_2, # of connection points: 2
#     Edge 22, Type (0, 1), BuildingBlock: XUDNAN_clean_linker_2, # of connection points: 2
#     Edge 23, Type (0, 1), BuildingBlock: XUDNAN_clean_linker_2, # of connection points: 2
#     Edge 24, Type (0, 1), BuildingBlock: XUDNAN_clean_linker_2, # of connection points: 2
#     Edge 25, Type (0, 1), BuildingBlock: XUDNAN_clean_linker_2, # of connection points: 2
#     Edge 26, Type (0, 1), BuildingBlock: XUDNAN_clean_linker_2, # of connection points: 2
#     Edge 27, Type (0, 1), BuildingBlock: XUDNAN_clean_linker_2, # of connection points: 2
#     Edge 28, Type (0, 1), BuildingBlock: XUDNAN_clean_linker_2, # of connection points: 2
#     Edge 29, Type (0, 1), BuildingBlock: XUDNAN_clean_linker_2, # of connection points: 2
#     Edge 30, Type (0, 1), BuildingBlock: XUDNAN_clean_linker_2, # of connection points: 2
#     Edge 31, Type (0, 1), BuildingBlock: XUDNAN_clean_linker_2, # of connection points: 2
#     Edge 32, Type (0, 1), BuildingBlock: XUDNAN_clean_linker_2, # of connection points: 2
#     Edge 33, Type (0, 1), BuildingBlock: XUDNAN_clean_linker_2, # of connection points: 2
#     Edge 34, Type (0, 1), BuildingBlock: XUDNAN_clean_linker_2, # of connection points: 2
#     Edge 35, Type (0, 1), BuildingBlock: XUDNAN_clean_linker_2, # of connection points: 2
# Relax obj value: 0.021
# Max RMSD: 0.072
# Mean RMSD: 0.061
data_MOF--net-cml--node1-OLANEW_clean_sbu_2--node2-OJICUG_clean_sbu_0--edge1-XUDNAN_clean_linker_2
_symmetry_space_group_name_H-M    P1
_symmetry_Int_Tables_number       1
_symmetry_cell_setting            triclinic
loop_
_symmetry_equiv_pos_as_xyz
'x, y, z'
_cell_length_a     43.07593
_cell_length_b     41.449952
_cell_length_c     38.968039
_cell_angle_alpha  88.107151
_cell_angle_beta   87.676891
_cell_angle_gamma 88.668371
loop_
_atom_site_label
_atom_site_type_symbol
_atom_site_fract_x
_atom_site_fract_y
_atom_site_fract_z
_atom_type_partial_charge
O0 O 0.30546 0.43272 0.9451 0.0
Cd1 Cd 0.27363 0.39376 0.98019 0.0
O2 O 0.35083 0.40886 0.95385 0.0
Cd3 Cd 0.33217 0.37254 -0.00947 0.0
O4 O 0.33479 0.35736 0.04467 0.0
C5 C 0.32273 0.37636 0.06668 0.0
O6 O 0.30715 0.40205 0.05569 0.0
C7 C 0.33493 0.43181 0.94035 0.0
C8 C 0.24031 0.34371 0.95247 0.0
O9 O 0.22914 0.37266 0.95259 0.0
O10 O 0.26775 0.33887 0.96347 0.0
O11 O 0.70493 0.64041 0.51784 0.0
Cd12 Cd 0.72375 0.6319 0.45859 0.0
O13 O 0.73499 0.60074 0.53711 0.0
Cd14 Cd 0.74339 0.58133 0.48628 0.0
O15 O 0.72182 0.55122 0.44957 0.0
C16 C 0.70481 0.52915 0.46301 0.0
O17 O 0.70308 0.52548 0.49666 0.0
C18 C 0.71601 0.62409 0.54294 0.0
C19 C 0.77879 0.6647 0.4442 0.0
O20 O 0.75287 0.67631 0.43378 0.0
O21 O 0.77872 0.63761 0.46099 0.0
O22 O 0.73001 0.40308 0.93056 0.0
Cd23 Cd 0.73946 0.34788 0.95344 0.0
O24 O 0.69812 0.41313 0.97465 0.0
Cd25 Cd 0.70713 0.36969 0.00598 0.0
O26 O 0.69579 0.35332 0.05853 0.0
C27 C 0.67115 0.33777 0.06557 0.0
O28 O 0.65456 0.32845 0.04028 0.0
C29 C 0.71057 0.42188 0.94583 0.0
C30 C 0.79932 0.32054 0.94673 0.0
O31 O 0.7807 0.32024 0.9219 0.0
O32 O 0.79009 0.33485 0.97411 0.0
O33 O 0.30628 0.6058 0.44527 0.0
Cd34 Cd 0.28857 0.65963 0.4639 0.0
O35 O 0.29386 0.58187 0.49499 0.0
Cd36 Cd 0.28392 0.62555 0.5234 0.0
O37 O 0.30232 0.63625 0.57302 0.0
C38 C 0.3277 0.65105 0.57465 0.0
O39 O 0.34082 0.66328 0.54625 0.0
C40 C 0.30437 0.58023 0.46414 0.0
C41 C 0.23637 0.68558 0.43131 0.0
O42 O 0.26343 0.68576 0.41639 0.0
O43 O 0.23365 0.67272 0.46161 0.0
O44 O 0.80868 0.9234 0.95303 0.0
Cd45 Cd 0.76481 0.89276 0.98034 0.0
O46 O 0.84202 0.88256 0.95686 0.0
Cd47 Cd 0.81244 0.85401 -0.00768 0.0
O48 O 0.81738 0.84464 0.04731 0.0
C49 C 0.81034 0.86781 0.06692 0.0
O50 O 0.79733 0.89409 0.05362 0.0
C51 C 0.83577 0.91146 0.94705 0.0
C52 C 0.72603 0.85781 0.93909 0.0
O53 O 0.72361 0.8886 0.9408 0.0
O54 O 0.74747 0.84331 0.95595 0.0
O55 O 0.18757 0.15022 0.54079 0.0
Cd56 Cd 0.19787 0.14797 0.47859 0.0
O57 O 0.22386 0.11452 0.55458 0.0
Cd58 Cd 0.22848 0.09937 0.50158 0.0
O59 O 0.20882 0.07229 0.46093 0.0
C60 C 0.1934 0.04779 0.47122 0.0
O61 O 0.19177 0.0403 0.50427 0.0
C62 C 0.20301 0.1351 0.56361 0.0
C63 C 0.24816 0.1866 0.45925 0.0
O64 O 0.22084 0.19877 0.46449 0.0
O65 O 0.25184 0.1559 0.4625 0.0
O66 O 0.21789 0.88099 0.95515 0.0
Cd67 Cd 0.23388 0.82732 0.9772 0.0
O68 O 0.2475 0.90708 -0.01106 0.0
Cd69 Cd 0.2558 0.86424 0.02141 0.0
O70 O 0.2348 0.85329 0.07211 0.0
C71 C 0.20863 0.83972 0.07527 0.0
O72 O 0.19622 0.82867 0.04786 0.0
C73 C 0.22868 0.90741 0.96465 0.0
C74 C 0.28583 0.80295 0.94066 0.0
O75 O 0.25845 0.80124 0.92925 0.0
O76 O 0.28885 0.81612 0.9696 0.0
O77 O 0.78894 0.09009 0.46427 0.0
Cd78 Cd 0.76704 0.13876 0.49161 0.0
O79 O 0.82354 0.07953 0.50352 0.0
Cd80 Cd 0.81076 0.11644 0.54048 0.0
O81 O 0.82385 0.12638 0.5926 0.0
C82 C 0.84639 0.1446 0.59791 0.0
O83 O 0.85981 0.16032 0.57171 0.0
C84 C 0.81156 0.07296 0.47538 0.0
C85 C 0.71723 0.16768 0.45685 0.0
O86 O 0.74536 0.17072 0.4455 0.0
O87 O 0.71231 0.15081 0.48461 0.0
Sc88 Sc 0.99534 0.81698 0.29939 0.0
Sc89 Sc 0.99626 0.90165 0.29995 0.0
Sc90 Sc 0.00078 0.85686 0.37807 0.0
O91 O -0.00265 0.85845 0.3259 0.0
C92 C 0.95416 0.79943 0.36688 0.0
C93 C 0.94749 0.86199 0.25904 0.0
C94 C 0.95083 0.91417 0.36512 0.0
C95 C 0.04187 0.85967 0.25203 0.0
C96 C 0.04727 0.79992 0.35454 0.0
C97 C 0.04447 0.91614 0.35724 0.0
O98 O 0.96086 0.79654 0.33504 0.0
O99 O 0.9596 0.88788 0.26798 0.0
O100 O 0.9631 0.89252 0.3847 0.0
O101 O 0.02991 0.83277 0.26103 0.0
O102 O 0.03866 0.82137 0.37583 0.0
O103 O 0.03247 0.92169 0.3284 0.0
O104 O 0.03321 0.79537 0.32706 0.0
O105 O 0.03232 0.88645 0.26397 0.0
O106 O 0.03533 0.89371 0.37795 0.0
O107 O 0.95762 0.83416 0.26832 0.0
O108 O 0.96721 0.81934 0.38545 0.0
O109 O 0.96052 0.92005 0.33434 0.0
Sc110 Sc 0.03539 0.18065 0.82795 0.0
Sc111 Sc 0.04326 0.09585 0.82351 0.0
Sc112 Sc 0.03587 0.13119 0.90405 0.0
O113 O 0.0381 0.13597 0.85186 0.0
C114 C 0.0801 0.19213 0.88992 0.0
C115 C 0.08611 0.14524 0.77978 0.0
C116 C 0.08863 0.07849 0.88366 0.0
C117 C 0.99274 0.13808 0.7829 0.0
C118 C 0.98652 0.18886 0.89129 0.0
C119 C 0.99657 0.07067 0.88404 0.0
O120 O 0.06916 0.20032 0.86093 0.0
O121 O 0.07747 0.11714 0.789 0.0
O122 O 0.07395 0.09637 0.90501 0.0
O123 O 0.00152 0.16528 0.79272 0.0
O124 O -0.00175 0.16617 0.90971 0.0
O125 O 0.01064 0.06896 0.85491 0.0
O126 O -0.00295 0.1964 0.86121 0.0
O127 O 0.00536 0.11129 0.79209 0.0
O128 O 0.00141 0.09295 0.90491 0.0
O129 O 0.07321 0.17082 0.79119 0.0
O130 O 0.07044 0.16794 0.90807 0.0
O131 O 0.08099 0.07623 0.8527 0.0
Sc132 Sc 0.48337 0.30714 0.31667 0.0
Sc133 Sc 0.48806 0.39214 0.31477 0.0
Sc134 Sc 0.49264 0.34869 0.39346 0.0
O135 O 0.48798 0.34928 0.34161 0.0
C136 C 0.43991 0.29692 0.38434 0.0
C137 C 0.43723 0.35397 0.27549 0.0
C138 C 0.44658 0.40968 0.38125 0.0
C139 C 0.53045 0.34638 0.26687 0.0
C140 C 0.53417 0.28721 0.37201 0.0
C141 C 0.54024 0.40328 0.36895 0.0
O142 O 0.44766 0.29035 0.35341 0.0
O143 O 0.44966 0.37966 0.28456 0.0
O144 O 0.45879 0.38754 0.40006 0.0
O145 O 0.51829 0.32005 0.27761 0.0
O146 O 0.52674 0.30946 0.39271 0.0
O147 O 0.52652 0.40994 0.3413 0.0
O148 O 0.52023 0.28341 0.34435 0.0
O149 O 0.52192 0.37389 0.27779 0.0
O150 O 0.53101 0.38152 0.39052 0.0
O151 O 0.44679 0.32592 0.28479 0.0
O152 O 0.4545 0.31663 0.40171 0.0
O153 O 0.45461 0.41445 0.34976 0.0
Sc154 Sc 0.53018 0.69003 0.78569 0.0
Sc155 Sc 0.53402 0.60569 0.79635 0.0
Sc156 Sc 0.53132 0.65392 0.86928 0.0
O157 O 0.53202 0.64993 0.81721 0.0
C158 C 0.57386 0.71321 0.84495 0.0
C159 C 0.57947 0.64667 0.74521 0.0
C160 C 0.582 0.59713 0.85583 0.0
C161 C 0.48579 0.64234 0.74871 0.0
C162 C 0.48045 0.70698 0.84547 0.0
C163 C 0.48793 0.59309 0.86148 0.0
O164 O 0.56194 0.71582 0.81561 0.0
O165 O 0.56795 0.6205 0.75724 0.0
O166 O 0.56879 0.61792 0.87534 0.0
O167 O 0.49765 0.66982 0.75194 0.0
O168 O 0.49359 0.68978 0.86868 0.0
O169 O 0.50091 0.58484 0.83318 0.0
O170 O 0.49076 0.70876 0.81446 0.0
O171 O 0.49543 0.61693 0.7644 0.0
O172 O 0.49555 0.61802 0.87713 0.0
O173 O 0.56925 0.67442 0.75364 0.0
O174 O 0.5664 0.69104 0.86701 0.0
O175 O 0.5724 0.59089 0.82647 0.0
H176 H 0.1866 0.34543 0.91581 0.0
H177 H 0.25035 0.2798 0.96813 0.0
H178 H 0.21632 0.23436 0.95788 0.0
H179 H 0.11634 0.30914 0.94588 0.0
H180 H 0.0969 0.31445 0.90592 0.0
H181 H 0.12653 0.34202 0.91643 0.0
H182 H 0.157 0.3299 0.85948 0.0
H183 H 0.1273 0.30251 0.84863 0.0
H184 H 0.16725 0.2887 0.84972 0.0
H185 H 0.17334 0.1968 0.94649 0.0
H186 H 0.12749 0.1682 0.92814 0.0
H187 H 0.09302 0.25675 0.87918 0.0
C188 C 0.19355 0.32144 0.92476 0.0
C189 C 0.22119 0.31624 0.94286 0.0
C190 C 0.22945 0.28443 0.95407 0.0
C191 C 0.21016 0.25844 0.94852 0.0
C192 C 0.18286 0.26444 0.93117 0.0
C193 C 0.17481 0.29501 0.91883 0.0
C194 C 0.14436 0.29464 0.90049 0.0
C195 C 0.11957 0.31635 0.91825 0.0
C196 C 0.14928 0.30452 0.86231 0.0
C197 C 0.13634 0.25923 0.90498 0.0
C198 C 0.15874 0.24235 0.9231 0.0
C199 C 0.15584 0.20967 0.93191 0.0
C200 C 0.1296 0.19368 0.92157 0.0
C201 C 0.10672 0.21017 0.90213 0.0
C202 C 0.11026 0.24342 0.89373 0.0
H203 H 0.79456 0.70483 0.3892 0.0
H204 H 0.82861 0.6641 0.4849 0.0
H205 H 0.87697 0.6947 0.47568 0.0
H206 H 0.86906 0.70063 0.34259 0.0
H207 H 0.86244 0.73762 0.31809 0.0
H208 H 0.83004 0.71341 0.33274 0.0
H209 H 0.8048 0.76276 0.36306 0.0
H210 H 0.83716 0.7871 0.34856 0.0
H211 H 0.82653 0.78366 0.39372 0.0
H212 H 0.91995 0.73202 0.45789 0.0
H213 H 0.95786 0.76903 0.42935 0.0
H214 H 0.8985 0.78152 0.3424 0.0
C215 C 0.81222 0.70247 0.40819 0.0
C216 C 0.80788 0.68238 0.4379 0.0
C217 C 0.83159 0.67939 0.46197 0.0
C218 C 0.85904 0.69674 0.45702 0.0
C219 C 0.86262 0.71643 0.42751 0.0
C220 C 0.84013 0.71898 0.4032 0.0
C221 C 0.85044 0.74077 0.37304 0.0
C222 C 0.85316 0.72198 0.33964 0.0
C223 C 0.82842 0.77032 0.3694 0.0
C224 C 0.88206 0.75033 0.38443 0.0
C225 C 0.8884 0.73637 0.41616 0.0
C226 C 0.91546 0.74279 0.43285 0.0
C227 C 0.93675 0.76389 0.41655 0.0
C228 C 0.93112 0.77776 0.38366 0.0
C229 C 0.90349 0.77078 0.36735 0.0
H230 H 0.83088 0.2981 0.88917 0.0
H231 H 0.83627 0.3031 -0.00014 0.0
H232 H 0.88471 0.27011 -0.0024 0.0
H233 H 0.85859 0.2172 0.8814 0.0
H234 H 0.88104 0.2247 0.84202 0.0
H235 H 0.84714 0.2494 0.852 0.0
H236 H 0.8802 0.30085 0.84563 0.0
H237 H 0.91416 0.2763 0.83536 0.0
H238 H 0.91447 0.30366 0.87034 0.0
H239 H 0.93026 0.23323 0.98394 0.0
H240 H 0.97315 0.19977 0.95907 0.0
H241 H 0.94021 0.22132 0.85686 0.0
C242 C 0.8424 0.29249 0.91289 0.0
C243 C 0.82974 0.30313 0.94472 0.0
C244 C 0.84558 0.29535 0.97517 0.0
C245 C 0.87305 0.2765 0.97417 0.0
C246 C 0.88465 0.26598 0.94247 0.0
C247 C 0.87014 0.2741 0.9123 0.0
C248 C 0.8877 0.25993 0.8816 0.0
C249 C 0.8674 0.23641 0.86318 0.0
C250 C 0.89985 0.28679 0.85677 0.0
C251 C 0.9141 0.24224 0.8993 0.0
C252 C 0.91171 0.24581 0.93444 0.0
C253 C 0.93259 0.23057 0.95642 0.0
C254 C 0.95676 0.21147 0.94207 0.0
C255 C 0.96013 0.2081 0.90604 0.0
C256 C 0.93844 0.22376 0.88447 0.0
H257 H 0.18389 0.71388 0.4609 0.0
H258 H 0.22808 0.69063 0.36249 0.0
H259 H 0.18363 0.71572 0.33273 0.0
H260 H 0.10393 0.70234 0.43858 0.0
H261 H 0.08889 0.73644 0.46206 0.0
H262 H 0.12323 0.71493 0.47593 0.0
H263 H 0.15356 0.76826 0.47277 0.0
H264 H 0.11933 0.78992 0.45887 0.0
H265 H 0.15504 0.79212 0.43323 0.0
H266 H 0.13462 0.74244 0.31366 0.0
H267 H 0.08573 0.77318 0.30572 0.0
H268 H 0.07429 0.78321 0.41613 0.0
C269 C 0.18397 0.7138 0.4331 0.0
C270 C 0.20924 0.70002 0.41393 0.0
C271 C 0.20891 0.70097 0.37761 0.0
C272 C 0.18375 0.71508 0.36051 0.0
C273 C 0.15929 0.72861 0.38009 0.0
C274 C 0.15929 0.72847 0.41555 0.0
C275 C 0.13084 0.74637 0.43021 0.0
C276 C 0.11052 0.72366 0.45305 0.0
C277 C 0.14027 0.77592 0.44993 0.0
C278 C 0.11484 0.75646 0.39744 0.0
C279 C 0.13154 0.74555 0.36891 0.0
C280 C 0.12138 0.75119 0.33578 0.0
C281 C 0.09347 0.76859 0.33157 0.0
C282 C 0.07613 0.78062 0.3603 0.0
C283 C 0.08709 0.77448 0.39368 0.0
H284 H 0.70783 0.79469 0.94921 0.0
H285 H 0.69375 0.88041 0.88428 0.0
H286 H 0.65507 0.85185 0.85223 0.0
H287 H 0.69794 0.73487 0.88379 0.0
H288 H 0.67692 0.70756 0.91267 0.0
H289 H 0.70524 0.73378 0.92905 0.0
H290 H 0.66352 0.75666 0.97197 0.0
H291 H 0.63507 0.73059 0.95565 0.0
H292 H 0.62775 0.77358 0.95603 0.0
H293 H 0.61778 0.8147 0.82758 0.0
H294 H 0.58183 0.77234 0.81349 0.0
H295 H 0.61699 0.71082 0.89627 0.0
C296 C 0.69691 0.80724 0.92791 0.0
C297 C 0.70406 0.83972 0.91896 0.0
C298 C 0.68875 0.85555 0.89147 0.0
C299 C 0.66678 0.8395 0.87308 0.0
C300 C 0.66 0.80767 0.88273 0.0
C301 C 0.6744 0.79171 0.90962 0.0
C302 C 0.66143 0.7581 0.91583 0.0
C303 C 0.6869 0.73204 0.90998 0.0
C304 C 0.64603 0.75454 0.95202 0.0
C305 C 0.63747 0.75776 0.88829 0.0
C306 C 0.63739 0.78652 0.8693 0.0
C307 C 0.61761 0.79209 0.84228 0.0
C308 C 0.59727 0.76774 0.83443 0.0
C309 C 0.59642 0.73811 0.85373 0.0
C310 C 0.6169 0.73318 0.8811 0.0
H311 H 0.30146 0.17265 0.42083 0.0
H312 H 0.25467 0.24805 0.47931 0.0
H313 H 0.29951 0.28335 0.46781 0.0
H314 H 0.37963 0.18724 0.44502 0.0
H315 H 0.39697 0.1804 0.40294 0.0
H316 H 0.36174 0.1603 0.41668 0.0
H317 H 0.33445 0.18387 0.36306 0.0
H318 H 0.36962 0.20391 0.34909 0.0
H319 H 0.33384 0.22691 0.35463 0.0
H320 H 0.34965 0.3094 0.45249 0.0
H321 H 0.40012 0.32782 0.42834 0.0
H322 H 0.41341 0.23784 0.37512 0.0
C323 C 0.3008 0.19657 0.43123 0.0
C324 C 0.27478 0.20765 0.45116 0.0
C325 C 0.27439 0.23921 0.46395 0.0
C326 C 0.29979 0.25934 0.4577 0.0
C327 C 0.32512 0.24774 0.43808 0.0
C328 C 0.32569 0.21735 0.4245 0.0
C329 C 0.35525 0.2116 0.40281 0.0
C330 C 0.37454 0.1832 0.41777 0.0
C331 C 0.34784 0.20627 0.36516 0.0
C332 C 0.37125 0.24343 0.40659 0.0
C333 C 0.35357 0.26364 0.42751 0.0
C334 C 0.36364 0.29392 0.43588 0.0
C335 C 0.39243 0.30406 0.42219 0.0
C336 C 0.41065 0.28423 0.39989 0.0
C337 C 0.39986 0.25351 0.39196 0.0
H338 H 0.34209 0.7814 0.96458 0.0
H339 H 0.29077 0.7958 0.87153 0.0
H340 H 0.33588 0.77492 0.83733 0.0
H341 H 0.41825 0.80176 0.92833 0.0
H342 H 0.4384 0.77058 0.95257 0.0
H343 H 0.40271 0.7882 0.96985 0.0
H344 H 0.37896 0.73139 0.97689 0.0
H345 H 0.41459 0.7136 0.95972 0.0
H346 H 0.37834 0.70606 0.9402 0.0
H347 H 0.38607 0.75342 0.81318 0.0
H348 H 0.43714 0.728 0.80041 0.0
H349 H 0.45571 0.72389 0.90928 0.0
C350 C 0.34051 0.78036 0.93698 0.0
C351 C 0.31307 0.79043 0.92059 0.0
C352 C 0.31159 0.78821 0.88454 0.0
C353 C 0.33712 0.77651 0.8649 0.0
C354 C 0.36379 0.76672 0.88178 0.0
C355 C 0.36563 0.76811 0.917 0.0
C356 C 0.39655 0.75439 0.92875 0.0
C357 C 0.41507 0.78028 0.94589 0.0
C358 C 0.39182 0.72459 0.95281 0.0
C359 C 0.41179 0.74518 0.89458 0.0
C360 C 0.39254 0.75292 0.86786 0.0
C361 C 0.40136 0.74718 0.83386 0.0
C362 C 0.43054 0.73282 0.8269 0.0
C363 C 0.45055 0.72394 0.85383 0.0
C364 C 0.44096 0.73031 0.88815 0.0
H365 H 0.66346 0.19528 0.48398 0.0
H366 H 0.71305 0.17541 0.38765 0.0
H367 H 0.67023 0.20141 0.35572 0.0
H368 H 0.58496 0.18522 0.45602 0.0
H369 H 0.56889 0.21872 0.47974 0.0
H370 H 0.60227 0.1965 0.49511 0.0
H371 H 0.63292 0.2495 0.49578 0.0
H372 H 0.59963 0.27187 0.48048 0.0
H373 H 0.63653 0.2745 0.45715 0.0
H374 H 0.62187 0.22838 0.33431 0.0
H375 H 0.57381 0.26023 0.32444 0.0
H376 H 0.55737 0.26751 0.43457 0.0
C377 C 0.66505 0.19614 0.45616 0.0
C378 C 0.6913 0.18301 0.43816 0.0
C379 C 0.69304 0.18524 0.40183 0.0
C380 C 0.66881 0.19983 0.38352 0.0
C381 C 0.64328 0.21266 0.40196 0.0
C382 C 0.64141 0.21146 0.43747 0.0
C383 C 0.61239 0.22916 0.45094 0.0
C384 C 0.59086 0.20601 0.47168 0.0
C385 C 0.62089 0.25797 0.47235 0.0
C386 C 0.59822 0.24036 0.41746 0.0
C387 C 0.61619 0.23006 0.38956 0.0
C388 C 0.60767 0.23671 0.35593 0.0
C389 C 0.58024 0.25469 0.3506 0.0
C390 C 0.56185 0.26638 0.37872 0.0
C391 C 0.57104 0.25903 0.41259 0.0
H392 H 0.39321 0.43271 0.90865 0.0
H393 H 0.31434 0.49461 0.93696 0.0
H394 H 0.34496 0.54266 0.92012 0.0
H395 H 0.45193 0.48054 0.93765 0.0
H396 H 0.47932 0.4734 0.90237 0.0
H397 H 0.45084 0.44361 0.91458 0.0
H398 H 0.43094 0.4452 0.85269 0.0
H399 H 0.45977 0.47457 0.84009 0.0
H400 H 0.4193 0.48333 0.83303 0.0
H401 H 0.38654 0.58406 0.90737 0.0
H402 H 0.43284 0.61569 0.88932 0.0
H403 H 0.48307 0.5272 0.86418 0.0
C404 C 0.38217 0.45636 0.91058 0.0
C405 C 0.35132 0.45987 0.9241 0.0
C406 C 0.33777 0.49126 0.92634 0.0
C407 C 0.35509 0.51873 0.91712 0.0
C408 C 0.38575 0.51446 0.90495 0.0
C409 C 0.3989 0.48404 0.9007 0.0
C410 C 0.43221 0.48613 0.88671 0.0
C411 C 0.4549 0.46996 0.91183 0.0
C412 C 0.43575 0.47144 0.85101 0.0
C413 C 0.43599 0.52243 0.88456 0.0
C414 C 0.40905 0.53835 0.89566 0.0
C415 C 0.40756 0.57187 0.89804 0.0
C416 C 0.43402 0.58962 0.88806 0.0
C417 C 0.4614 0.57388 0.87526 0.0
C418 C 0.46231 0.53984 0.87359 0.0
H419 H 0.6651 0.4814 0.48484 0.0
H420 H 0.69932 0.53367 0.3931 0.0
H421 H 0.66291 0.50455 0.35848 0.0
H422 H 0.65259 0.4044 0.44377 0.0
H423 H 0.61782 0.39644 0.46967 0.0
H424 H 0.64839 0.4194 0.48665 0.0
H425 H 0.60903 0.46618 0.49926 0.0
H426 H 0.57842 0.44348 0.48217 0.0
H427 H 0.58657 0.4834 0.46488 0.0
H428 H 0.62001 0.4732 0.33484 0.0
H429 H 0.57473 0.44059 0.32325 0.0
H430 H 0.56878 0.40828 0.43046 0.0
C431 C 0.66532 0.48641 0.45739 0.0
C432 C 0.68511 0.5098 0.44166 0.0
C433 C 0.68446 0.51578 0.40569 0.0
C434 C 0.66387 0.49936 0.38582 0.0
C435 C 0.64427 0.4769 0.40228 0.0
C436 C 0.645 0.47022 0.4372 0.0
C437 C 0.62058 0.44605 0.44886 0.0
C438 C 0.63576 0.41471 0.46307 0.0
C439 C 0.59728 0.46067 0.47535 0.0
C440 C 0.60553 0.44072 0.41515 0.0
C441 C 0.61965 0.45863 0.38859 0.0
C442 C 0.60897 0.45883 0.35536 0.0
C443 C 0.58311 0.44032 0.3491 0.0
C444 C 0.56816 0.42181 0.37595 0.0
C445 C 0.57982 0.42188 0.40932 0.0
H446 H 0.66752 0.46543 0.9713 0.0
H447 H 0.72981 0.44831 0.88305 0.0
H448 H 0.7082 0.49707 0.85369 0.0
H449 H 0.60324 0.48706 0.92591 0.0
H450 H 0.58859 0.51766 0.95452 0.0
H451 H 0.61228 0.48476 0.97072 0.0
H452 H 0.65061 0.52536 -0.00622 0.0
H453 H 0.62694 0.5585 0.97765 0.0
H454 H 0.66757 0.55556 0.9649 0.0
H455 H 0.67503 0.54243 0.83099 0.0
H456 H 0.63283 0.58107 0.81639 0.0
H457 H 0.59237 0.56965 0.91963 0.0
C458 C 0.67723 0.4723 0.94612 0.0
C459 C 0.70051 0.45304 0.92953 0.0
C460 C 0.71214 0.46272 0.89637 0.0
C461 C 0.70005 0.49045 0.87954 0.0
C462 C 0.67658 0.5084 0.89635 0.0
C463 C 0.66544 0.49984 0.92902 0.0
C464 C 0.63818 0.52139 0.94018 0.0
C465 C 0.60885 0.50153 0.94829 0.0
C466 C 0.64632 0.54139 0.97096 0.0
C467 C 0.63483 0.54262 0.90811 0.0
C468 C 0.65753 0.53498 0.88333 0.0
C469 C 0.65759 0.54908 0.85041 0.0
C470 C 0.63349 0.57092 0.84235 0.0
C471 C 0.60965 0.57858 0.86706 0.0
C472 C 0.61081 0.56488 0.90062 0.0
H473 H 0.3417 0.56944 0.40629 0.0
H474 H 0.29882 0.5208 0.49591 0.0
H475 H 0.32822 0.47094 0.48214 0.0
H476 H 0.3456 0.49763 0.35052 0.0
H477 H 0.38272 0.50891 0.33132 0.0
H478 H 0.35536 0.53965 0.34569 0.0
H479 H 0.39722 0.56246 0.38355 0.0
H480 H 0.42454 0.53159 0.36972 0.0
H481 H 0.41556 0.53621 0.4149 0.0
H482 H 0.36688 0.42876 0.46341 0.0
H483 H 0.40924 0.39526 0.43778 0.0
H484 H 0.4266 0.47024 0.35934 0.0
C485 C 0.33779 0.54804 0.42244 0.0
C486 C 0.31784 0.54909 0.45216 0.0
C487 C 0.31388 0.52066 0.47298 0.0
C488 C 0.33051 0.49216 0.46539 0.0
C489 C 0.35085 0.49229 0.4367 0.0
C490 C 0.35423 0.51928 0.4152 0.0
C491 C 0.379 0.51344 0.38716 0.0
C492 C 0.36481 0.51499 0.35156 0.0
C493 C 0.40565 0.53735 0.38897 0.0
C494 C 0.38959 0.47933 0.39691 0.0
C495 C 0.37296 0.46759 0.42552 0.0
C496 C 0.37974 0.43747 0.44067 0.0
C497 C 0.40402 0.41872 0.42607 0.0
C498 C 0.42121 0.43005 0.39649 0.0
C499 C 0.41367 0.46073 0.38169 0.0
H500 H 0.84118 0.97784 0.94801 0.0
H501 H 0.88858 0.89048 0.91344 0.0
H502 H 0.9343 0.92215 0.89489 0.0
H503 H 0.87329 0.03255 0.8797 0.0
H504 H 0.87712 0.06552 0.90816 0.0
H505 H 0.84703 0.03649 0.91661 0.0
H506 H 0.86741 0.02523 0.97754 0.0
H507 H 0.89784 0.05386 0.9691 0.0
H508 H 0.90746 0.01287 0.98229 0.0
H509 H 0.97522 0.96169 0.88205 0.0
H510 H 0.00929 0.00815 0.87263 0.0
H511 H 0.9376 0.07132 0.91677 0.0
C512 C 0.86095 0.96555 0.93583 0.0
C513 C 0.86119 0.93164 0.93188 0.0
C514 C 0.88778 0.91636 0.91659 0.0
C515 C 0.91391 0.93415 0.90605 0.0
C516 C 0.91329 0.96726 0.91114 0.0
C517 C 0.88754 0.98299 0.92543 0.0
C518 C 0.89371 0.01877 0.92885 0.0
C519 C 0.87147 0.03956 0.90703 0.0
C520 C 0.89147 0.02822 0.9667 0.0
C521 C 0.92699 0.02053 0.91436 0.0
C522 C 0.93757 0.99039 0.90429 0.0
C523 C 0.9672 0.98541 0.88974 0.0
C524 C 0.98639 0.01199 0.88455 0.0
C525 C 0.97617 0.04332 0.89404 0.0
C526 C 0.94617 0.04759 0.9097 0.0
H527 H 0.15748 0.9952 0.48623 0.0
H528 H 0.18863 0.05896 0.40175 0.0
H529 H 0.15585 0.03028 0.36257 0.0
H530 H 0.15333 0.92213 0.43647 0.0
H531 H 0.11901 0.90844 0.46008 0.0
H532 H 0.14662 0.93252 0.48075 0.0
H533 H 0.10272 0.9738 0.49681 0.0
H534 H 0.07503 0.94996 0.47608 0.0
H535 H 0.0796 0.99185 0.46342 0.0
H536 H 0.117 0.99697 0.33363 0.0
H537 H 0.07592 0.96093 0.31669 0.0
H538 H 0.07053 0.91889 0.42032 0.0
C539 C 0.15777 0.00293 0.4594 0.0
C540 C 0.17567 0.02932 0.44704 0.0
C541 C 0.17518 0.03875 0.41178 0.0
C542 C 0.15664 0.02261 0.38934 0.0
C543 C 0.13891 0.99701 0.40253 0.0
C544 C 0.13948 0.9871 0.4367 0.0
C545 C 0.11738 0.95974 0.44476 0.0
C546 C 0.13515 0.92888 0.45618 0.0
C547 C 0.09219 0.96944 0.47186 0.0
C548 C 0.10383 0.95618 0.40991 0.0
C549 C 0.11664 0.97777 0.38586 0.0
C550 C 0.10698 0.97978 0.35217 0.0
C551 C 0.08353 0.95925 0.34285 0.0
C552 C 0.06994 0.93699 0.36715 0.0
C553 C 0.08053 0.93541 0.40104 0.0
H554 H 0.18913 0.91743 0.91153 0.0
H555 H 0.2394 0.9679 0.98704 0.0
H556 H 0.21216 0.01866 0.97061 0.0
H557 H 0.18655 0.98601 0.84651 0.0
H558 H 0.14807 0.97601 0.83444 0.0
H559 H 0.17456 0.94459 0.8489 0.0
H560 H 0.13367 0.92641 0.89576 0.0
H561 H 0.10725 0.95792 0.88177 0.0
H562 H 0.11822 0.95528 0.92594 0.0
H563 H 0.17367 0.06153 0.95295 0.0
H564 H 0.13019 0.09502 0.9307 0.0
H565 H 0.10681 0.01787 0.86446 0.0
C566 C 0.19506 0.93932 0.92396 0.0
C567 C 0.21643 0.93862 0.95059 0.0
C568 C 0.22325 0.96778 0.96646 0.0
C569 C 0.20786 0.99677 0.95734 0.0
C570 C 0.18609 0.99637 0.9319 0.0
C571 C 0.18012 0.96856 0.91493 0.0
C572 C 0.15435 0.97426 0.88993 0.0
C573 C 0.16663 0.96997 0.85274 0.0
C574 C 0.12675 0.95216 0.89891 0.0
C575 C 0.14598 0.00927 0.89648 0.0
C576 C 0.1646 0.02159 0.92075 0.0
C577 C 0.15942 0.05243 0.93333 0.0
C578 C 0.13459 0.07117 0.92075 0.0
C579 C 0.11548 0.05911 0.89563 0.0
C580 C 0.12154 0.02792 0.8831 0.0
H581 H 0.85744 0.02962 0.49412 0.0
H582 H 0.79746 0.05605 0.41028 0.0
H583 H 0.82385 0.01451 0.37482 0.0
H584 H 0.92564 0.01844 0.44428 0.0
H585 H 0.94021 0.98442 0.46928 0.0
H586 H 0.91463 0.01382 0.48927 0.0
H587 H 0.87687 0.96863 0.50942 0.0
H588 H 0.90241 0.939 0.48954 0.0
H589 H 0.86225 0.94218 0.4783 0.0
H590 H 0.8602 0.97455 0.34661 0.0
H591 H 0.90287 0.93765 0.32795 0.0
H592 H 0.93846 0.93569 0.43058 0.0
C593 C 0.84945 0.02638 0.46849 0.0
C594 C 0.82529 0.04616 0.45501 0.0
C595 C 0.81577 0.04117 0.42126 0.0
C596 C 0.83062 0.0176 0.40093 0.0
C597 C 0.8547 -0.00102 0.41484 0.0
C598 C 0.86387 0.00288 0.44795 0.0
C599 C 0.89142 0.98089 0.45617 0.0
C600 C 0.91963 0.00058 0.46527 0.0
C601 C 0.8827 0.95621 0.48507 0.0
C602 C 0.89693 0.96464 0.42214 0.0
C603 C 0.87535 0.97534 0.39873 0.0
C604 C 0.87689 0.96563 0.36485 0.0
C605 C 0.9013 0.94477 0.35448 0.0
C606 C 0.92382 0.93365 0.37791 0.0
C607 C 0.92123 0.9433 0.41234 0.0
H608 H 0.36041 0.33015 0.09718 0.0
H609 H 0.30274 0.41487 0.11909 0.0
H610 H 0.32116 0.41397 0.17814 0.0
H611 H 0.35221 0.29104 0.18544 0.0
H612 H 0.392 0.27655 0.18367 0.0
H613 H 0.37073 0.28078 0.14481 0.0
H614 H 0.41372 0.31733 0.1176 0.0
H615 H 0.43497 0.3134 0.15633 0.0
H616 H 0.42426 0.35293 0.13943 0.0
H617 H 0.35206 0.40969 0.2308 0.0
H618 H 0.39108 0.39997 0.27498 0.0
H619 H 0.42707 0.31655 0.22075 0.0
C620 C 0.35096 0.34795 0.11468 0.0
C621 C 0.33008 0.37257 0.10345 0.0
C622 C 0.31867 0.39571 0.12705 0.0
C623 C 0.32895 0.39538 0.16072 0.0
C624 C 0.35033 0.37147 0.17063 0.0
C625 C 0.36088 0.34786 0.1485 0.0
C626 C 0.38567 0.32645 0.16471 0.0
C627 C 0.37447 0.29164 0.16997 0.0
C628 C 0.41646 0.32763 0.14324 0.0
C629 C 0.38833 0.34257 0.19878 0.0
C630 C 0.36756 0.36837 0.20175 0.0
C631 C 0.36785 0.38905 0.22922 0.0
C632 C 0.39014 0.38345 0.25409 0.0
C633 C 0.41163 0.35722 0.25149 0.0
C634 C 0.41026 0.33619 0.22384 0.0
H635 H 0.67032 0.66706 0.5649 0.0
H636 H 0.73475 0.59273 0.60156 0.0
H637 H 0.71001 0.59526 0.65945 0.0
H638 H 0.66433 0.71297 0.64684 0.0
H639 H 0.62358 0.72185 0.64178 0.0
H640 H 0.64932 0.71791 0.60443 0.0
H641 H 0.61399 0.67421 0.58188 0.0
H642 H 0.58837 0.67772 0.61922 0.0
H643 H 0.60537 0.63898 0.60865 0.0
H644 H 0.67333 0.59857 0.70981 0.0
H645 H 0.6293 0.60626 0.75154 0.0
H646 H 0.58984 0.68047 0.68435 0.0
C647 C 0.67983 0.65202 0.58533 0.0
C648 C 0.7045 0.62969 0.57862 0.0
C649 C 0.71593 0.61007 0.60599 0.0
C650 C 0.70206 0.61135 0.63904 0.0
C651 C 0.67707 0.63271 0.64449 0.0
C652 C 0.66635 0.65313 0.61861 0.0
C653 C 0.63764 0.67206 0.63076 0.0
C654 C 0.64412 0.70835 0.63097 0.0
C655 C 0.60971 0.66532 0.60882 0.0
C656 C 0.63316 0.65801 0.66698 0.0
C657 C 0.65631 0.63546 0.67437 0.0
C658 C 0.65554 0.61677 0.70474 0.0
C659 C 0.6304 0.62113 0.72814 0.0
C660 C 0.6066 0.64422 0.7212 0.0
C661 C 0.60824 0.66326 0.69052 0.0
H662 H 0.61959 0.30545 0.09047 0.0
H663 H 0.69302 0.3671 0.1213 0.0
H664 H 0.66669 0.37224 0.17817 0.0
H665 H 0.55825 0.34721 0.12831 0.0
H666 H 0.53609 0.31263 0.14276 0.0
H667 H 0.56252 0.30984 0.10599 0.0
H668 H 0.59118 0.26111 0.13481 0.0
H669 H 0.56451 0.26342 0.17157 0.0
H670 H 0.60578 0.26482 0.17718 0.0
H671 H 0.62854 0.37845 0.22719 0.0
H672 H 0.58378 0.37945 0.26889 0.0
H673 H 0.53651 0.3109 0.20878 0.0
C674 C 0.63056 0.31931 0.1095 0.0
C675 C 0.65833 0.33593 0.10137 0.0
C676 C 0.67183 0.35403 0.12691 0.0
C677 C 0.65702 0.35716 0.15932 0.0
C678 C 0.62907 0.34152 0.16603 0.0
C679 C 0.61629 0.32233 0.14219 0.0
C680 C 0.58522 0.30947 0.1554 0.0
C681 C 0.55899 0.32046 0.1317 0.0
C682 C 0.58678 0.27251 0.16002 0.0
C683 C 0.58199 0.32554 0.18975 0.0
C684 C 0.60757 0.34394 0.19532 0.0
C685 C 0.60874 0.36351 0.22359 0.0
C686 C 0.58317 0.36413 0.24693 0.0
C687 C 0.55704 0.34501 0.24205 0.0
C688 C 0.55657 0.32521 0.21332 0.0
H689 H 0.37928 0.68483 0.58975 0.0
H690 H 0.31561 0.61264 0.63181 0.0
H691 H 0.34844 0.60384 0.68177 0.0
H692 H 0.44823 0.6456 0.61292 0.0
H693 H 0.46789 0.68138 0.62438 0.0
H694 H 0.43824 0.68418 0.59312 0.0
H695 H 0.40788 0.7269 0.62906 0.0
H696 H 0.43769 0.72458 0.66025 0.0
H697 H 0.39775 0.71784 0.67363 0.0
H698 H 0.39118 0.59807 0.7233 0.0
H699 H 0.43783 0.60078 0.75785 0.0
H700 H 0.47229 0.67894 0.69103 0.0
C701 C 0.37193 0.66762 0.60979 0.0
C702 C 0.3449 0.64939 0.60681 0.0
C703 C 0.33612 0.62702 0.63356 0.0
C704 C 0.35469 0.62174 0.66201 0.0
C705 C 0.38166 0.6394 0.66363 0.0
C706 C 0.38996 0.66238 0.63864 0.0
C707 C 0.42042 0.67768 0.64636 0.0
C708 C 0.44515 0.67185 0.61747 0.0
C709 C 0.41564 0.7139 0.65271 0.0
C710 C 0.42834 0.65908 0.67908 0.0
C711 C 0.40574 0.637 0.68847 0.0
C712 C 0.40878 0.61564 0.71656 0.0
C713 C 0.43545 0.61718 0.73583 0.0
C714 C 0.45853 0.64017 0.72717 0.0
C715 C 0.45481 0.66141 0.69846 0.0
H716 H 0.84886 0.82291 0.09812 0.0
H717 H 0.79862 0.91336 0.11512 0.0
H718 H 0.8244 0.91836 0.16994 0.0
H719 H 0.85031 0.79529 0.19102 0.0
H720 H 0.88898 0.77824 0.18538 0.0
H721 H 0.86291 0.77903 0.1503 0.0
H722 H 0.90395 0.80929 0.11181 0.0
H723 H 0.92996 0.80894 0.14676 0.0
H724 H 0.91892 0.84669 0.1259 0.0
H725 H 0.86117 0.91818 0.21747 0.0
H726 H 0.90433 0.91096 0.25693 0.0
H727 H 0.93016 0.81993 0.2106 0.0
C728 C 0.84253 0.84325 0.11388 0.0
C729 C 0.82164 0.86772 0.10233 0.0
C730 C 0.81446 0.89427 0.12343 0.0
C731 C 0.82896 0.89731 0.15467 0.0
C732 C 0.85033 0.87343 0.16467 0.0
C733 C 0.8568 0.84664 0.1452 0.0
C734 C 0.88258 0.82585 0.16038 0.0
C735 C 0.87046 0.79263 0.17249 0.0
C736 C 0.91049 0.82252 0.13468 0.0
C737 C 0.89045 0.84584 0.19058 0.0
C738 C 0.87137 0.87304 0.19271 0.0
C739 C 0.87583 0.89664 0.21654 0.0
C740 C 0.90053 0.89244 0.23867 0.0
C741 C 0.92041 0.86479 0.23694 0.0
C742 C 0.91494 0.84097 0.21292 0.0
H743 H 0.15686 0.17398 0.59169 0.0
H744 H 0.23015 0.10529 0.61895 0.0
H745 H 0.21221 0.10703 0.67974 0.0
H746 H 0.15669 0.22086 0.67269 0.0
H747 H 0.11501 0.22613 0.67339 0.0
H748 H 0.13665 0.22367 0.63293 0.0
H749 H 0.10253 0.17647 0.6161 0.0
H750 H 0.08094 0.17868 0.65642 0.0
H751 H 0.09956 0.14115 0.64422 0.0
H752 H 0.18146 0.10876 0.7349 0.0
H753 H 0.14092 0.11215 0.78142 0.0
H754 H 0.08859 0.18144 0.71985 0.0
C755 C 0.1697 0.15998 0.61055 0.0
C756 C 0.19498 0.13954 0.60051 0.0
C757 C 0.21081 0.12122 0.62597 0.0
C758 C 0.20085 0.12212 0.66062 0.0
C759 C 0.17528 0.14177 0.66949 0.0
C760 C 0.16011 0.16069 0.64528 0.0
C761 C 0.13154 0.17739 0.66107 0.0
C762 C 0.1352 0.2142 0.65996 0.0
C763 C 0.10191 0.16783 0.64341 0.0
C764 C 0.13221 0.16373 0.69758 0.0
C765 C 0.15786 0.1435 0.70194 0.0
C766 C 0.16178 0.12522 0.73215 0.0
C767 C 0.13865 0.12721 0.75835 0.0
C768 C 0.11214 0.14754 0.75429 0.0
C769 C 0.10922 0.16658 0.72388 0.0
H770 H 0.15433 0.8089 0.09384 0.0
H771 H 0.22003 0.87691 0.12973 0.0
H772 H 0.18499 0.88783 0.17968 0.0
H773 H 0.08653 0.85217 0.11551 0.0
H774 H 0.064 0.8179 0.13013 0.0
H775 H 0.09524 0.8129 0.09853 0.0
H776 H 0.12096 0.76872 0.13723 0.0
H777 H 0.08951 0.77323 0.16877 0.0
H778 H 0.1291 0.77749 0.18093 0.0
H779 H 0.14035 0.89701 0.22089 0.0
H780 H 0.0916 0.89798 0.25636 0.0
H781 H 0.05588 0.8213 0.19695 0.0
C782 C 0.16162 0.82557 0.11259 0.0
C783 C 0.1899 0.84211 0.10779 0.0
C784 C 0.19858 0.86383 0.13287 0.0
C785 C 0.17877 0.87031 0.1613 0.0
C786 C 0.15063 0.85443 0.16465 0.0
C787 C 0.14233 0.83194 0.1415 0.0
C788 C 0.11045 0.81872 0.15095 0.0
C789 C 0.08772 0.82586 0.12206 0.0
C790 C 0.11265 0.78238 0.16002 0.0
C791 C 0.10181 0.83805 0.1824 0.0
C792 C 0.1253 0.85865 0.18965 0.0
C793 C 0.12202 0.88058 0.21591 0.0
C794 C 0.09416 0.88116 0.23568 0.0
C795 C 0.07012 0.85965 0.22939 0.0
C796 C 0.07408 0.83774 0.20248 0.0
H797 H 0.89304 0.18234 0.61947 0.0
H798 H 0.83265 0.10392 0.65283 0.0
H799 H 0.8615 0.09651 0.70591 0.0
H800 H 0.96186 0.14797 0.64739 0.0
H801 H 0.97798 0.18456 0.66209 0.0
H802 H 0.95057 0.18651 0.62842 0.0
H803 H 0.91503 0.22555 0.6637 0.0
H804 H 0.94256 0.22404 0.69738 0.0
H805 H 0.90257 0.21405 0.70702 0.0
H806 H 0.90127 0.09204 0.75058 0.0
H807 H 0.94615 0.09505 0.78778 0.0
H808 H 0.97903 0.17852 0.72815 0.0
C809 C 0.88542 0.16411 0.63831 0.0
C810 C 0.86059 0.14368 0.63192 0.0
C811 C 0.85149 0.11997 0.65714 0.0
C812 C 0.86778 0.11551 0.68739 0.0
C813 C 0.89276 0.13533 0.69236 0.0
C814 C 0.90119 0.15961 0.66891 0.0
C815 C 0.92975 0.17667 0.6799 0.0
C816 C 0.95662 0.17373 0.65284 0.0
C817 C 0.92201 0.21219 0.68746 0.0
C818 C 0.93669 0.15741 0.71253 0.0
C819 C 0.91505 0.13365 0.71918 0.0
C820 C 0.91796 0.11099 0.74612 0.0
C821 C 0.9436 0.11273 0.76692 0.0
C822 C 0.96574 0.13719 0.76093 0.0
C823 C 0.96204 0.16 0.73362 0.0
loop_
_geom_bond_atom_site_label_1
_geom_bond_atom_site_label_2
_geom_bond_distance
_geom_bond_site_symmetry_2
_ccdc_geom_bond_type
O0 Cd1 2.300 . S
O0 C7 1.275 . S
Cd1 O0 2.300 . S
Cd1 O9 2.381 . S
Cd1 O10 2.378 . S
O2 Cd3 2.385 1_556 S
O2 C7 1.255 . S
Cd3 O2 2.385 1_554 S
Cd3 O4 2.317 . S
O4 Cd3 2.317 . S
O4 C5 1.232 . S
C5 O4 1.232 . S
C5 O6 1.218 . S
O6 C5 1.218 . S
C7 O0 1.275 . S
C7 O2 1.255 . S
C8 O9 1.258 . S
C8 O10 1.256 . S
O9 Cd1 2.381 . S
O9 C8 1.258 . S
O10 Cd1 2.378 . S
O10 C8 1.256 . S
O11 Cd12 2.300 . S
O11 C18 1.275 . S
Cd12 O11 2.300 . S
Cd12 O20 2.381 . S
Cd12 O21 2.378 . S
O13 Cd14 2.385 . S
O13 C18 1.255 . S
Cd14 O13 2.385 . S
Cd14 O15 2.317 . S
O15 Cd14 2.317 . S
O15 C16 1.232 . S
C16 O15 1.232 . S
C16 O17 1.218 . S
O17 C16 1.218 . S
C18 O11 1.275 . S
C18 O13 1.255 . S
C19 O20 1.258 . S
C19 O21 1.256 . S
O20 Cd12 2.381 . S
O20 C19 1.258 . S
O21 Cd12 2.378 . S
O21 C19 1.256 . S
O22 Cd23 2.300 . S
O22 C29 1.275 . S
Cd23 O22 2.300 . S
Cd23 O31 2.381 . S
Cd23 O32 2.378 . S
O24 Cd25 2.385 . S
O24 C29 1.255 1_554 S
Cd25 O24 2.385 . S
Cd25 O26 2.317 . S
O26 Cd25 2.317 . S
O26 C27 1.232 . S
C27 O26 1.232 . S
C27 O28 1.218 . S
O28 C27 1.218 . S
C29 O22 1.275 . S
C29 O24 1.255 1_556 S
C30 O31 1.258 . S
C30 O32 1.256 . S
O31 Cd23 2.381 . S
O31 C30 1.258 . S
O32 Cd23 2.378 . S
O32 C30 1.256 . S
O33 Cd34 2.300 . S
O33 C40 1.275 . S
Cd34 O33 2.300 . S
Cd34 O42 2.381 . S
Cd34 O43 2.378 . S
O35 Cd36 2.385 . S
O35 C40 1.255 . S
Cd36 O35 2.385 . S
Cd36 O37 2.317 . S
O37 Cd36 2.317 . S
O37 C38 1.232 . S
C38 O37 1.232 . S
C38 O39 1.218 . S
O39 C38 1.218 . S
C40 O33 1.275 . S
C40 O35 1.255 . S
C41 O42 1.258 . S
C41 O43 1.256 . S
O42 Cd34 2.381 . S
O42 C41 1.258 . S
O43 Cd34 2.378 . S
O43 C41 1.256 . S
O44 Cd45 2.300 . S
O44 C51 1.275 . S
Cd45 O44 2.300 . S
Cd45 O53 2.381 . S
Cd45 O54 2.378 . S
O46 Cd47 2.385 1_556 S
O46 C51 1.255 . S
Cd47 O46 2.385 1_554 S
Cd47 O48 2.317 . S
O48 Cd47 2.317 . S
O48 C49 1.232 . S
C49 O48 1.232 . S
C49 O50 1.218 . S
O50 C49 1.218 . S
C51 O44 1.275 . S
C51 O46 1.255 . S
C52 O53 1.258 . S
C52 O54 1.256 . S
O53 Cd45 2.381 . S
O53 C52 1.258 . S
O54 Cd45 2.378 . S
O54 C52 1.256 . S
O55 Cd56 2.300 . S
O55 C62 1.275 . S
Cd56 O55 2.300 . S
Cd56 O64 2.381 . S
Cd56 O65 2.378 . S
O57 Cd58 2.385 . S
O57 C62 1.255 . S
Cd58 O57 2.385 . S
Cd58 O59 2.317 . S
O59 Cd58 2.317 . S
O59 C60 1.232 . S
C60 O59 1.232 . S
C60 O61 1.218 . S
O61 C60 1.218 . S
C62 O55 1.275 . S
C62 O57 1.255 . S
C63 O64 1.258 . S
C63 O65 1.256 . S
O64 Cd56 2.381 . S
O64 C63 1.258 . S
O65 Cd56 2.378 . S
O65 C63 1.256 . S
O66 Cd67 2.300 . S
O66 C73 1.275 . S
Cd67 O66 2.300 . S
Cd67 O75 2.381 . S
Cd67 O76 2.378 . S
O68 Cd69 2.385 . S
O68 C73 1.255 1_554 S
Cd69 O68 2.385 . S
Cd69 O70 2.317 . S
O70 Cd69 2.317 . S
O70 C71 1.232 . S
C71 O70 1.232 . S
C71 O72 1.218 . S
O72 C71 1.218 . S
C73 O66 1.275 . S
C73 O68 1.255 1_556 S
C74 O75 1.258 . S
C74 O76 1.256 . S
O75 Cd67 2.381 . S
O75 C74 1.258 . S
O76 Cd67 2.378 . S
O76 C74 1.256 . S
O77 Cd78 2.300 . S
O77 C84 1.275 . S
Cd78 O77 2.300 . S
Cd78 O86 2.381 . S
Cd78 O87 2.378 . S
O79 Cd80 2.385 . S
O79 C84 1.255 . S
Cd80 O79 2.385 . S
Cd80 O81 2.317 . S
O81 Cd80 2.317 . S
O81 C82 1.232 . S
C82 O81 1.232 . S
C82 O83 1.218 . S
O83 C82 1.218 . S
C84 O77 1.275 . S
C84 O79 1.255 . S
C85 O86 1.258 . S
C85 O87 1.256 . S
O86 Cd78 2.381 . S
O86 C85 1.258 . S
O87 Cd78 2.378 . S
O87 C85 1.256 . S
Sc88 O91 2.025 . S
Sc88 O98 2.105 1_455 S
Sc88 O101 2.105 . S
Sc88 O104 2.105 . S
Sc88 O107 2.105 1_455 S
Sc89 O91 2.025 . S
Sc89 O99 2.105 1_455 S
Sc89 O103 2.105 . S
Sc89 O105 2.105 . S
Sc89 O109 2.105 1_455 S
Sc90 O91 2.025 . S
Sc90 O100 2.105 1_455 S
Sc90 O102 2.105 . S
Sc90 O106 2.105 . S
Sc90 O108 2.105 1_455 S
O91 Sc88 2.025 . S
O91 Sc89 2.025 . S
O91 Sc90 2.025 . S
C92 O98 1.268 . S
C92 O108 1.268 . S
C93 O99 1.268 . S
C93 O107 1.268 . S
C94 O100 1.268 . S
C94 O109 1.268 . S
C95 O101 1.268 . S
C95 O105 1.268 . S
C96 O102 1.268 . S
C96 O104 1.268 . S
C97 O103 1.268 . S
C97 O106 1.268 . S
O98 Sc88 2.105 1_655 S
O98 C92 1.268 . S
O99 Sc89 2.105 1_655 S
O99 C93 1.268 . S
O100 Sc90 2.105 1_655 S
O100 C94 1.268 . S
O101 Sc88 2.105 . S
O101 C95 1.268 . S
O102 Sc90 2.105 . S
O102 C96 1.268 . S
O103 Sc89 2.105 . S
O103 C97 1.268 . S
O104 Sc88 2.105 . S
O104 C96 1.268 . S
O105 Sc89 2.105 . S
O105 C95 1.268 . S
O106 Sc90 2.105 . S
O106 C97 1.268 . S
O107 Sc88 2.105 1_655 S
O107 C93 1.268 . S
O108 Sc90 2.105 1_655 S
O108 C92 1.268 . S
O109 Sc89 2.105 1_655 S
O109 C94 1.268 . S
Sc110 O113 2.025 . S
Sc110 O120 2.105 . S
Sc110 O123 2.105 1_455 S
Sc110 O126 2.105 1_455 S
Sc110 O129 2.105 . S
Sc111 O113 2.025 . S
Sc111 O121 2.105 . S
Sc111 O125 2.105 1_455 S
Sc111 O127 2.105 1_455 S
Sc111 O131 2.105 . S
Sc112 O113 2.025 . S
Sc112 O122 2.105 . S
Sc112 O124 2.105 1_455 S
Sc112 O128 2.105 1_455 S
Sc112 O130 2.105 . S
O113 Sc110 2.025 . S
O113 Sc111 2.025 . S
O113 Sc112 2.025 . S
C114 O120 1.268 . S
C114 O130 1.268 . S
C115 O121 1.268 . S
C115 O129 1.268 . S
C116 O122 1.268 . S
C116 O131 1.268 . S
C117 O123 1.268 . S
C117 O127 1.268 . S
C118 O124 1.268 . S
C118 O126 1.268 . S
C119 O125 1.268 . S
C119 O128 1.268 . S
O120 Sc110 2.105 . S
O120 C114 1.268 . S
O121 Sc111 2.105 . S
O121 C115 1.268 . S
O122 Sc112 2.105 . S
O122 C116 1.268 . S
O123 Sc110 2.105 1_655 S
O123 C117 1.268 . S
O124 Sc112 2.105 1_655 S
O124 C118 1.268 . S
O125 Sc111 2.105 1_655 S
O125 C119 1.268 . S
O126 Sc110 2.105 1_655 S
O126 C118 1.268 . S
O127 Sc111 2.105 1_655 S
O127 C117 1.268 . S
O128 Sc112 2.105 1_655 S
O128 C119 1.268 . S
O129 Sc110 2.105 . S
O129 C115 1.268 . S
O130 Sc112 2.105 . S
O130 C114 1.268 . S
O131 Sc111 2.105 . S
O131 C116 1.268 . S
Sc132 O135 2.025 . S
Sc132 O142 2.105 . S
Sc132 O145 2.105 . S
Sc132 O148 2.105 . S
Sc132 O151 2.105 . S
Sc133 O135 2.025 . S
Sc133 O143 2.105 . S
Sc133 O147 2.105 . S
Sc133 O149 2.105 . S
Sc133 O153 2.105 . S
Sc134 O135 2.025 . S
Sc134 O144 2.105 . S
Sc134 O146 2.105 . S
Sc134 O150 2.105 . S
Sc134 O152 2.105 . S
O135 Sc132 2.025 . S
O135 Sc133 2.025 . S
O135 Sc134 2.025 . S
C136 O142 1.268 . S
C136 O152 1.268 . S
C137 O143 1.268 . S
C137 O151 1.268 . S
C138 O144 1.268 . S
C138 O153 1.268 . S
C139 O145 1.268 . S
C139 O149 1.268 . S
C140 O146 1.268 . S
C140 O148 1.268 . S
C141 O147 1.268 . S
C141 O150 1.268 . S
O142 Sc132 2.105 . S
O142 C136 1.268 . S
O143 Sc133 2.105 . S
O143 C137 1.268 . S
O144 Sc134 2.105 . S
O144 C138 1.268 . S
O145 Sc132 2.105 . S
O145 C139 1.268 . S
O146 Sc134 2.105 . S
O146 C140 1.268 . S
O147 Sc133 2.105 . S
O147 C141 1.268 . S
O148 Sc132 2.105 . S
O148 C140 1.268 . S
O149 Sc133 2.105 . S
O149 C139 1.268 . S
O150 Sc134 2.105 . S
O150 C141 1.268 . S
O151 Sc132 2.105 . S
O151 C137 1.268 . S
O152 Sc134 2.105 . S
O152 C136 1.268 . S
O153 Sc133 2.105 . S
O153 C138 1.268 . S
Sc154 O157 2.025 . S
Sc154 O164 2.105 . S
Sc154 O167 2.105 . S
Sc154 O170 2.105 . S
Sc154 O173 2.105 . S
Sc155 O157 2.025 . S
Sc155 O165 2.105 . S
Sc155 O169 2.105 . S
Sc155 O171 2.105 . S
Sc155 O175 2.105 . S
Sc156 O157 2.025 . S
Sc156 O166 2.105 . S
Sc156 O168 2.105 . S
Sc156 O172 2.105 . S
Sc156 O174 2.105 . S
O157 Sc154 2.025 . S
O157 Sc155 2.025 . S
O157 Sc156 2.025 . S
C158 O164 1.268 . S
C158 O174 1.268 . S
C159 O165 1.268 . S
C159 O173 1.268 . S
C160 O166 1.268 . S
C160 O175 1.268 . S
C161 O167 1.268 . S
C161 O171 1.268 . S
C162 O168 1.268 . S
C162 O170 1.268 . S
C163 O169 1.268 . S
C163 O172 1.268 . S
O164 Sc154 2.105 . S
O164 C158 1.268 . S
O165 Sc155 2.105 . S
O165 C159 1.268 . S
O166 Sc156 2.105 . S
O166 C160 1.268 . S
O167 Sc154 2.105 . S
O167 C161 1.268 . S
O168 Sc156 2.105 . S
O168 C162 1.268 . S
O169 Sc155 2.105 . S
O169 C163 1.268 . S
O170 Sc154 2.105 . S
O170 C162 1.268 . S
O171 Sc155 2.105 . S
O171 C161 1.268 . S
O172 Sc156 2.105 . S
O172 C163 1.268 . S
O173 Sc154 2.105 . S
O173 C159 1.268 . S
O174 Sc156 2.105 . S
O174 C158 1.268 . S
O175 Sc155 2.105 . S
O175 C160 1.268 . S
H176 C188 0.930 . S
H177 C190 0.930 . S
H178 C191 0.930 . S
H179 C195 0.959 . S
H180 C195 0.959 . S
H181 C195 0.961 . S
H182 C196 0.960 . S
H183 C196 0.961 . S
H184 C196 0.959 . S
H185 C199 0.929 . S
H186 C200 0.931 . S
H187 C202 0.930 . S
C188 H176 0.930 . S
C188 C189 1.399 . S
C188 C193 1.399 . S
C189 C188 1.399 . S
C189 C190 1.376 . S
C190 H177 0.930 . S
C190 C189 1.376 . S
C190 C191 1.388 . S
C191 H178 0.930 . S
C191 C190 1.388 . S
C191 C192 1.390 . S
C192 C191 1.390 . S
C192 C193 1.394 . S
C192 C198 1.465 . S
C193 C188 1.399 . S
C193 C192 1.394 . S
C193 C194 1.516 . S
C194 C193 1.516 . S
C194 C195 1.502 . S
C194 C196 1.561 . S
C194 C197 1.526 . S
C195 H179 0.959 . S
C195 H180 0.959 . S
C195 H181 0.961 . S
C195 C194 1.502 . S
C196 H182 0.960 . S
C196 H183 0.961 . S
C196 H184 0.959 . S
C196 C194 1.561 . S
C197 C194 1.526 . S
C197 C198 1.396 . S
C197 C202 1.390 . S
C198 C192 1.465 . S
C198 C197 1.396 . S
C198 C199 1.399 . S
C199 H185 0.929 . S
C199 C198 1.399 . S
C199 C200 1.385 . S
C200 H186 0.931 . S
C200 C199 1.385 . S
C200 C201 1.389 . S
C201 C200 1.389 . S
C201 C202 1.387 . S
C202 H187 0.930 . S
C202 C197 1.390 . S
C202 C201 1.387 . S
H203 C215 0.930 . S
H204 C217 0.930 . S
H205 C218 0.930 . S
H206 C222 0.959 . S
H207 C222 0.959 . S
H208 C222 0.961 . S
H209 C223 0.960 . S
H210 C223 0.961 . S
H211 C223 0.959 . S
H212 C226 0.929 . S
H213 C227 0.931 . S
H214 C229 0.930 . S
C215 H203 0.930 . S
C215 C216 1.399 . S
C215 C220 1.399 . S
C216 C215 1.399 . S
C216 C217 1.376 . S
C217 H204 0.930 . S
C217 C216 1.376 . S
C217 C218 1.388 . S
C218 H205 0.930 . S
C218 C217 1.388 . S
C218 C219 1.390 . S
C219 C218 1.390 . S
C219 C220 1.394 . S
C219 C225 1.465 . S
C220 C215 1.399 . S
C220 C219 1.394 . S
C220 C221 1.516 . S
C221 C220 1.516 . S
C221 C222 1.502 . S
C221 C223 1.561 . S
C221 C224 1.526 . S
C222 H206 0.959 . S
C222 H207 0.959 . S
C222 H208 0.961 . S
C222 C221 1.502 . S
C223 H209 0.960 . S
C223 H210 0.961 . S
C223 H211 0.959 . S
C223 C221 1.561 . S
C224 C221 1.526 . S
C224 C225 1.396 . S
C224 C229 1.390 . S
C225 C219 1.465 . S
C225 C224 1.396 . S
C225 C226 1.399 . S
C226 H212 0.929 . S
C226 C225 1.399 . S
C226 C227 1.385 . S
C227 H213 0.931 . S
C227 C226 1.385 . S
C227 C228 1.389 . S
C228 C227 1.389 . S
C228 C229 1.387 . S
C229 H214 0.930 . S
C229 C224 1.390 . S
C229 C228 1.387 . S
H230 C242 0.930 . S
H231 C244 0.927 1_554 S
H232 C245 0.930 . S
H233 C249 0.959 . S
H234 C249 0.959 . S
H235 C249 0.961 . S
H236 C250 0.960 . S
H237 C250 0.961 . S
H238 C250 0.959 . S
H239 C253 0.929 . S
H240 C254 0.931 . S
H241 C256 0.930 . S
C242 H230 0.930 . S
C242 C243 1.399 . S
C242 C247 1.399 . S
C243 C242 1.399 . S
C243 C244 1.376 . S
C244 H231 0.927 1_556 S
C244 C243 1.376 . S
C244 C245 1.388 . S
C245 H232 0.930 . S
C245 C244 1.388 . S
C245 C246 1.390 . S
C246 C245 1.390 . S
C246 C247 1.394 . S
C246 C252 1.465 . S
C247 C242 1.399 . S
C247 C246 1.394 . S
C247 C248 1.516 . S
C248 C247 1.516 . S
C248 C249 1.502 . S
C248 C250 1.561 . S
C248 C251 1.526 . S
C249 H233 0.959 . S
C249 H234 0.959 . S
C249 H235 0.961 . S
C249 C248 1.502 . S
C250 H236 0.960 . S
C250 H237 0.961 . S
C250 H238 0.959 . S
C250 C248 1.561 . S
C251 C248 1.526 . S
C251 C252 1.396 . S
C251 C256 1.390 . S
C252 C246 1.465 . S
C252 C251 1.396 . S
C252 C253 1.399 . S
C253 H239 0.929 . S
C253 C252 1.399 . S
C253 C254 1.385 . S
C254 H240 0.931 . S
C254 C253 1.385 . S
C254 C255 1.389 . S
C255 C254 1.389 . S
C255 C256 1.387 . S
C256 H241 0.930 . S
C256 C251 1.390 . S
C256 C255 1.387 . S
H257 C269 0.930 . S
H258 C271 0.930 . S
H259 C272 0.930 . S
H260 C276 0.959 . S
H261 C276 0.959 . S
H262 C276 0.961 . S
H263 C277 0.960 . S
H264 C277 0.961 . S
H265 C277 0.959 . S
H266 C280 0.929 . S
H267 C281 0.931 . S
H268 C283 0.930 . S
C269 H257 0.930 . S
C269 C270 1.399 . S
C269 C274 1.399 . S
C270 C269 1.399 . S
C270 C271 1.376 . S
C271 H258 0.930 . S
C271 C270 1.376 . S
C271 C272 1.388 . S
C272 H259 0.930 . S
C272 C271 1.388 . S
C272 C273 1.390 . S
C273 C272 1.390 . S
C273 C274 1.394 . S
C273 C279 1.465 . S
C274 C269 1.399 . S
C274 C273 1.394 . S
C274 C275 1.516 . S
C275 C274 1.516 . S
C275 C276 1.502 . S
C275 C277 1.561 . S
C275 C278 1.526 . S
C276 H260 0.959 . S
C276 H261 0.959 . S
C276 H262 0.961 . S
C276 C275 1.502 . S
C277 H263 0.960 . S
C277 H264 0.961 . S
C277 H265 0.959 . S
C277 C275 1.561 . S
C278 C275 1.526 . S
C278 C279 1.396 . S
C278 C283 1.390 . S
C279 C273 1.465 . S
C279 C278 1.396 . S
C279 C280 1.399 . S
C280 H266 0.929 . S
C280 C279 1.399 . S
C280 C281 1.385 . S
C281 H267 0.931 . S
C281 C280 1.385 . S
C281 C282 1.389 . S
C282 C281 1.389 . S
C282 C283 1.387 . S
C283 H268 0.930 . S
C283 C278 1.390 . S
C283 C282 1.387 . S
H284 C296 0.930 . S
H285 C298 0.930 . S
H286 C299 0.930 . S
H287 C303 0.959 . S
H288 C303 0.959 . S
H289 C303 0.961 . S
H290 C304 0.960 . S
H291 C304 0.961 . S
H292 C304 0.959 . S
H293 C307 0.929 . S
H294 C308 0.931 . S
H295 C310 0.930 . S
C296 H284 0.930 . S
C296 C297 1.399 . S
C296 C301 1.399 . S
C297 C296 1.399 . S
C297 C298 1.376 . S
C298 H285 0.930 . S
C298 C297 1.376 . S
C298 C299 1.388 . S
C299 H286 0.930 . S
C299 C298 1.388 . S
C299 C300 1.390 . S
C300 C299 1.390 . S
C300 C301 1.394 . S
C300 C306 1.465 . S
C301 C296 1.399 . S
C301 C300 1.394 . S
C301 C302 1.516 . S
C302 C301 1.516 . S
C302 C303 1.502 . S
C302 C304 1.561 . S
C302 C305 1.526 . S
C303 H287 0.959 . S
C303 H288 0.959 . S
C303 H289 0.961 . S
C303 C302 1.502 . S
C304 H290 0.960 . S
C304 H291 0.961 . S
C304 H292 0.959 . S
C304 C302 1.561 . S
C305 C302 1.526 . S
C305 C306 1.396 . S
C305 C310 1.390 . S
C306 C300 1.465 . S
C306 C305 1.396 . S
C306 C307 1.399 . S
C307 H293 0.929 . S
C307 C306 1.399 . S
C307 C308 1.385 . S
C308 H294 0.931 . S
C308 C307 1.385 . S
C308 C309 1.389 . S
C309 C308 1.389 . S
C309 C310 1.387 . S
C310 H295 0.930 . S
C310 C305 1.390 . S
C310 C309 1.387 . S
H311 C323 0.930 . S
H312 C325 0.930 . S
H313 C326 0.930 . S
H314 C330 0.959 . S
H315 C330 0.959 . S
H316 C330 0.961 . S
H317 C331 0.960 . S
H318 C331 0.961 . S
H319 C331 0.959 . S
H320 C334 0.929 . S
H321 C335 0.931 . S
H322 C337 0.930 . S
C323 H311 0.930 . S
C323 C324 1.399 . S
C323 C328 1.399 . S
C324 C323 1.399 . S
C324 C325 1.376 . S
C325 H312 0.930 . S
C325 C324 1.376 . S
C325 C326 1.388 . S
C326 H313 0.930 . S
C326 C325 1.388 . S
C326 C327 1.390 . S
C327 C326 1.390 . S
C327 C328 1.394 . S
C327 C333 1.465 . S
C328 C323 1.399 . S
C328 C327 1.394 . S
C328 C329 1.516 . S
C329 C328 1.516 . S
C329 C330 1.502 . S
C329 C331 1.561 . S
C329 C332 1.526 . S
C330 H314 0.959 . S
C330 H315 0.959 . S
C330 H316 0.961 . S
C330 C329 1.502 . S
C331 H317 0.960 . S
C331 H318 0.961 . S
C331 H319 0.959 . S
C331 C329 1.561 . S
C332 C329 1.526 . S
C332 C333 1.396 . S
C332 C337 1.390 . S
C333 C327 1.465 . S
C333 C332 1.396 . S
C333 C334 1.399 . S
C334 H320 0.929 . S
C334 C333 1.399 . S
C334 C335 1.385 . S
C335 H321 0.931 . S
C335 C334 1.385 . S
C335 C336 1.389 . S
C336 C335 1.389 . S
C336 C337 1.387 . S
C337 H322 0.930 . S
C337 C332 1.390 . S
C337 C336 1.387 . S
H338 C350 0.930 . S
H339 C352 0.930 . S
H340 C353 0.930 . S
H341 C357 0.959 . S
H342 C357 0.959 . S
H343 C357 0.961 . S
H344 C358 0.960 . S
H345 C358 0.961 . S
H346 C358 0.959 . S
H347 C361 0.929 . S
H348 C362 0.931 . S
H349 C364 0.930 . S
C350 H338 0.930 . S
C350 C351 1.399 . S
C350 C355 1.399 . S
C351 C350 1.399 . S
C351 C352 1.376 . S
C352 H339 0.930 . S
C352 C351 1.376 . S
C352 C353 1.388 . S
C353 H340 0.930 . S
C353 C352 1.388 . S
C353 C354 1.390 . S
C354 C353 1.390 . S
C354 C355 1.394 . S
C354 C360 1.465 . S
C355 C350 1.399 . S
C355 C354 1.394 . S
C355 C356 1.516 . S
C356 C355 1.516 . S
C356 C357 1.502 . S
C356 C358 1.561 . S
C356 C359 1.526 . S
C357 H341 0.959 . S
C357 H342 0.959 . S
C357 H343 0.961 . S
C357 C356 1.502 . S
C358 H344 0.960 . S
C358 H345 0.961 . S
C358 H346 0.959 . S
C358 C356 1.561 . S
C359 C356 1.526 . S
C359 C360 1.396 . S
C359 C364 1.390 . S
C360 C354 1.465 . S
C360 C359 1.396 . S
C360 C361 1.399 . S
C361 H347 0.929 . S
C361 C360 1.399 . S
C361 C362 1.385 . S
C362 H348 0.931 . S
C362 C361 1.385 . S
C362 C363 1.389 . S
C363 C362 1.389 . S
C363 C364 1.387 . S
C364 H349 0.930 . S
C364 C359 1.390 . S
C364 C363 1.387 . S
H365 C377 0.930 . S
H366 C379 0.930 . S
H367 C380 0.930 . S
H368 C384 0.959 . S
H369 C384 0.959 . S
H370 C384 0.961 . S
H371 C385 0.960 . S
H372 C385 0.961 . S
H373 C385 0.959 . S
H374 C388 0.929 . S
H375 C389 0.931 . S
H376 C391 0.930 . S
C377 H365 0.930 . S
C377 C378 1.399 . S
C377 C382 1.399 . S
C378 C377 1.399 . S
C378 C379 1.376 . S
C379 H366 0.930 . S
C379 C378 1.376 . S
C379 C380 1.388 . S
C380 H367 0.930 . S
C380 C379 1.388 . S
C380 C381 1.390 . S
C381 C380 1.390 . S
C381 C382 1.394 . S
C381 C387 1.465 . S
C382 C377 1.399 . S
C382 C381 1.394 . S
C382 C383 1.516 . S
C383 C382 1.516 . S
C383 C384 1.502 . S
C383 C385 1.561 . S
C383 C386 1.526 . S
C384 H368 0.959 . S
C384 H369 0.959 . S
C384 H370 0.961 . S
C384 C383 1.502 . S
C385 H371 0.960 . S
C385 H372 0.961 . S
C385 H373 0.959 . S
C385 C383 1.561 . S
C386 C383 1.526 . S
C386 C387 1.396 . S
C386 C391 1.390 . S
C387 C381 1.465 . S
C387 C386 1.396 . S
C387 C388 1.399 . S
C388 H374 0.929 . S
C388 C387 1.399 . S
C388 C389 1.385 . S
C389 H375 0.931 . S
C389 C388 1.385 . S
C389 C390 1.389 . S
C390 C389 1.389 . S
C390 C391 1.387 . S
C391 H376 0.930 . S
C391 C386 1.390 . S
C391 C390 1.387 . S
H392 C404 0.930 . S
H393 C406 0.930 . S
H394 C407 0.930 . S
H395 C411 0.959 . S
H396 C411 0.959 . S
H397 C411 0.961 . S
H398 C412 0.960 . S
H399 C412 0.961 . S
H400 C412 0.959 . S
H401 C415 0.929 . S
H402 C416 0.931 . S
H403 C418 0.930 . S
C404 H392 0.930 . S
C404 C405 1.399 . S
C404 C409 1.399 . S
C405 C404 1.399 . S
C405 C406 1.376 . S
C406 H393 0.930 . S
C406 C405 1.376 . S
C406 C407 1.388 . S
C407 H394 0.930 . S
C407 C406 1.388 . S
C407 C408 1.390 . S
C408 C407 1.390 . S
C408 C409 1.394 . S
C408 C414 1.465 . S
C409 C404 1.399 . S
C409 C408 1.394 . S
C409 C410 1.516 . S
C410 C409 1.516 . S
C410 C411 1.502 . S
C410 C412 1.561 . S
C410 C413 1.526 . S
C411 H395 0.959 . S
C411 H396 0.959 . S
C411 H397 0.961 . S
C411 C410 1.502 . S
C412 H398 0.960 . S
C412 H399 0.961 . S
C412 H400 0.959 . S
C412 C410 1.561 . S
C413 C410 1.526 . S
C413 C414 1.396 . S
C413 C418 1.390 . S
C414 C408 1.465 . S
C414 C413 1.396 . S
C414 C415 1.399 . S
C415 H401 0.929 . S
C415 C414 1.399 . S
C415 C416 1.385 . S
C416 H402 0.931 . S
C416 C415 1.385 . S
C416 C417 1.389 . S
C417 C416 1.389 . S
C417 C418 1.387 . S
C418 H403 0.930 . S
C418 C413 1.390 . S
C418 C417 1.387 . S
H419 C431 0.930 . S
H420 C433 0.930 . S
H421 C434 0.930 . S
H422 C438 0.959 . S
H423 C438 0.959 . S
H424 C438 0.961 . S
H425 C439 0.960 . S
H426 C439 0.961 . S
H427 C439 0.959 . S
H428 C442 0.929 . S
H429 C443 0.931 . S
H430 C445 0.930 . S
C431 H419 0.930 . S
C431 C432 1.399 . S
C431 C436 1.399 . S
C432 C431 1.399 . S
C432 C433 1.376 . S
C433 H420 0.930 . S
C433 C432 1.376 . S
C433 C434 1.388 . S
C434 H421 0.930 . S
C434 C433 1.388 . S
C434 C435 1.390 . S
C435 C434 1.390 . S
C435 C436 1.394 . S
C435 C441 1.465 . S
C436 C431 1.399 . S
C436 C435 1.394 . S
C436 C437 1.516 . S
C437 C436 1.516 . S
C437 C438 1.502 . S
C437 C439 1.561 . S
C437 C440 1.526 . S
C438 H422 0.959 . S
C438 H423 0.959 . S
C438 H424 0.961 . S
C438 C437 1.502 . S
C439 H425 0.960 . S
C439 H426 0.961 . S
C439 H427 0.959 . S
C439 C437 1.561 . S
C440 C437 1.526 . S
C440 C441 1.396 . S
C440 C445 1.390 . S
C441 C435 1.465 . S
C441 C440 1.396 . S
C441 C442 1.399 . S
C442 H428 0.929 . S
C442 C441 1.399 . S
C442 C443 1.385 . S
C443 H429 0.931 . S
C443 C442 1.385 . S
C443 C444 1.389 . S
C444 C443 1.389 . S
C444 C445 1.387 . S
C445 H430 0.930 . S
C445 C440 1.390 . S
C445 C444 1.387 . S
H446 C458 0.930 . S
H447 C460 0.930 . S
H448 C461 0.930 . S
H449 C465 0.959 . S
H450 C465 0.959 . S
H451 C465 0.961 1_554 S
H452 C466 0.960 . S
H453 C466 0.961 . S
H454 C466 0.959 . S
H455 C469 0.929 . S
H456 C470 0.931 . S
H457 C472 0.930 . S
C458 H446 0.930 . S
C458 C459 1.399 . S
C458 C463 1.399 . S
C459 C458 1.399 . S
C459 C460 1.376 . S
C460 H447 0.930 . S
C460 C459 1.376 . S
C460 C461 1.388 . S
C461 H448 0.930 . S
C461 C460 1.388 . S
C461 C462 1.390 . S
C462 C461 1.390 . S
C462 C463 1.394 . S
C462 C468 1.465 . S
C463 C458 1.399 . S
C463 C462 1.394 . S
C463 C464 1.516 . S
C464 C463 1.516 . S
C464 C465 1.502 . S
C464 C466 1.561 . S
C464 C467 1.526 . S
C465 H449 0.959 . S
C465 H450 0.959 . S
C465 H451 0.961 1_556 S
C465 C464 1.502 . S
C466 H452 0.960 . S
C466 H453 0.961 . S
C466 H454 0.959 . S
C466 C464 1.561 . S
C467 C464 1.526 . S
C467 C468 1.396 . S
C467 C472 1.390 . S
C468 C462 1.465 . S
C468 C467 1.396 . S
C468 C469 1.399 . S
C469 H455 0.929 . S
C469 C468 1.399 . S
C469 C470 1.385 . S
C470 H456 0.931 . S
C470 C469 1.385 . S
C470 C471 1.389 . S
C471 C470 1.389 . S
C471 C472 1.387 . S
C472 H457 0.930 . S
C472 C467 1.390 . S
C472 C471 1.387 . S
H473 C485 0.930 . S
H474 C487 0.930 . S
H475 C488 0.930 . S
H476 C492 0.959 . S
H477 C492 0.959 . S
H478 C492 0.961 . S
H479 C493 0.960 . S
H480 C493 0.961 . S
H481 C493 0.959 . S
H482 C496 0.929 . S
H483 C497 0.931 . S
H484 C499 0.930 . S
C485 H473 0.930 . S
C485 C486 1.399 . S
C485 C490 1.399 . S
C486 C485 1.399 . S
C486 C487 1.376 . S
C487 H474 0.930 . S
C487 C486 1.376 . S
C487 C488 1.388 . S
C488 H475 0.930 . S
C488 C487 1.388 . S
C488 C489 1.390 . S
C489 C488 1.390 . S
C489 C490 1.394 . S
C489 C495 1.465 . S
C490 C485 1.399 . S
C490 C489 1.394 . S
C490 C491 1.516 . S
C491 C490 1.516 . S
C491 C492 1.502 . S
C491 C493 1.561 . S
C491 C494 1.526 . S
C492 H476 0.959 . S
C492 H477 0.959 . S
C492 H478 0.961 . S
C492 C491 1.502 . S
C493 H479 0.960 . S
C493 H480 0.961 . S
C493 H481 0.959 . S
C493 C491 1.561 . S
C494 C491 1.526 . S
C494 C495 1.396 . S
C494 C499 1.390 . S
C495 C489 1.465 . S
C495 C494 1.396 . S
C495 C496 1.399 . S
C496 H482 0.929 . S
C496 C495 1.399 . S
C496 C497 1.385 . S
C497 H483 0.931 . S
C497 C496 1.385 . S
C497 C498 1.389 . S
C498 C497 1.389 . S
C498 C499 1.387 . S
C499 H484 0.930 . S
C499 C494 1.390 . S
C499 C498 1.387 . S
H500 C512 0.930 . S
H501 C514 0.930 . S
H502 C515 0.930 . S
H503 C519 0.959 . S
H504 C519 0.959 . S
H505 C519 0.961 . S
H506 C520 0.960 1_554 S
H507 C520 0.961 . S
H508 C520 0.959 . S
H509 C523 0.929 . S
H510 C524 0.931 . S
H511 C526 0.930 . S
C512 H500 0.930 . S
C512 C513 1.399 . S
C512 C517 1.392 1_565 S
C513 C512 1.399 . S
C513 C514 1.376 . S
C514 H501 0.930 . S
C514 C513 1.376 . S
C514 C515 1.388 . S
C515 H502 0.930 . S
C515 C514 1.388 . S
C515 C516 1.390 . S
C516 C515 1.390 . S
C516 C517 1.385 1_565 S
C516 C522 1.465 1_565 S
C517 C512 1.392 1_545 S
C517 C516 1.385 1_545 S
C517 C518 1.531 . S
C518 C517 1.531 . S
C518 C519 1.502 . S
C518 C520 1.561 . S
C518 C521 1.526 . S
C519 H503 0.959 . S
C519 H504 0.959 . S
C519 H505 0.961 . S
C519 C518 1.502 . S
C520 H506 0.960 1_556 S
C520 H507 0.961 . S
C520 H508 0.959 . S
C520 C518 1.561 . S
C521 C518 1.526 . S
C521 C522 1.396 . S
C521 C526 1.390 . S
C522 C516 1.465 1_545 S
C522 C521 1.396 . S
C522 C523 1.399 1_545 S
C523 H509 0.929 . S
C523 C522 1.399 1_565 S
C523 C524 1.385 1_565 S
C524 H510 0.931 . S
C524 C523 1.385 1_545 S
C524 C525 1.389 . S
C525 C524 1.389 . S
C525 C526 1.387 . S
C526 H511 0.930 . S
C526 C521 1.390 . S
C526 C525 1.387 . S
H527 C539 0.930 . S
H528 C541 0.930 . S
H529 C542 0.930 . S
H530 C546 0.959 . S
H531 C546 0.959 . S
H532 C546 0.961 . S
H533 C547 0.960 . S
H534 C547 0.961 . S
H535 C547 0.959 . S
H536 C550 0.929 1_545 S
H537 C551 0.931 . S
H538 C553 0.930 . S
C539 H527 0.930 . S
C539 C540 1.399 1_565 S
C539 C544 1.399 . S
C540 C539 1.399 1_545 S
C540 C541 1.376 . S
C541 H528 0.930 . S
C541 C540 1.376 . S
C541 C542 1.388 . S
C542 H529 0.930 . S
C542 C541 1.388 . S
C542 C543 1.390 . S
C543 C542 1.390 . S
C543 C544 1.394 1_545 S
C543 C549 1.465 1_545 S
C544 C539 1.399 . S
C544 C543 1.394 1_565 S
C544 C545 1.516 . S
C545 C544 1.516 . S
C545 C546 1.502 . S
C545 C547 1.561 . S
C545 C548 1.526 . S
C546 H530 0.959 . S
C546 H531 0.959 . S
C546 H532 0.961 . S
C546 C545 1.502 . S
C547 H533 0.960 . S
C547 H534 0.961 . S
C547 H535 0.959 . S
C547 C545 1.561 . S
C548 C545 1.526 . S
C548 C549 1.396 . S
C548 C553 1.390 . S
C549 C543 1.465 1_565 S
C549 C548 1.396 . S
C549 C550 1.399 . S
C550 H536 0.929 1_565 S
C550 C549 1.399 . S
C550 C551 1.385 . S
C551 H537 0.931 . S
C551 C550 1.385 . S
C551 C552 1.389 . S
C552 C551 1.389 . S
C552 C553 1.387 . S
C553 H538 0.930 . S
C553 C548 1.390 . S
C553 C552 1.387 . S
H554 C566 0.930 . S
H555 C568 0.930 1_554 S
H556 C569 0.930 . S
H557 C573 0.959 . S
H558 C573 0.959 . S
H559 C573 0.961 . S
H560 C574 0.960 . S
H561 C574 0.961 . S
H562 C574 0.959 . S
H563 C577 0.929 . S
H564 C578 0.931 . S
H565 C580 0.930 . S
C566 H554 0.930 . S
C566 C567 1.399 . S
C566 C571 1.399 . S
C567 C566 1.399 . S
C567 C568 1.376 . S
C568 H555 0.930 1_556 S
C568 C567 1.376 . S
C568 C569 1.388 1_565 S
C569 H556 0.930 . S
C569 C568 1.388 1_545 S
C569 C570 1.390 . S
C570 C569 1.390 . S
C570 C571 1.394 1_545 S
C570 C576 1.465 . S
C571 C566 1.399 . S
C571 C570 1.394 1_565 S
C571 C572 1.516 . S
C572 C571 1.516 . S
C572 C573 1.502 . S
C572 C574 1.561 . S
C572 C575 1.526 1_565 S
C573 H557 0.959 . S
C573 H558 0.959 . S
C573 H559 0.961 . S
C573 C572 1.502 . S
C574 H560 0.960 . S
C574 H561 0.961 . S
C574 H562 0.959 . S
C574 C572 1.561 . S
C575 C572 1.526 1_545 S
C575 C576 1.396 . S
C575 C580 1.390 . S
C576 C570 1.465 . S
C576 C575 1.396 . S
C576 C577 1.399 . S
C577 H563 0.929 . S
C577 C576 1.399 . S
C577 C578 1.385 . S
C578 H564 0.931 . S
C578 C577 1.385 . S
C578 C579 1.389 . S
C579 C578 1.389 . S
C579 C580 1.387 . S
C580 H565 0.930 . S
C580 C575 1.390 . S
C580 C579 1.387 . S
H581 C593 0.930 . S
H582 C595 0.930 . S
H583 C596 0.930 . S
H584 C600 0.959 . S
H585 C600 0.959 . S
H586 C600 0.961 . S
H587 C601 0.960 . S
H588 C601 0.961 . S
H589 C601 0.959 . S
H590 C604 0.929 1_545 S
H591 C605 0.931 . S
H592 C607 0.930 . S
C593 H581 0.930 . S
C593 C594 1.399 . S
C593 C598 1.399 . S
C594 C593 1.399 . S
C594 C595 1.376 . S
C595 H582 0.930 . S
C595 C594 1.376 . S
C595 C596 1.388 . S
C596 H583 0.930 . S
C596 C595 1.388 . S
C596 C597 1.390 . S
C597 C596 1.390 . S
C597 C598 1.394 . S
C597 C603 1.465 1_545 S
C598 C593 1.399 . S
C598 C597 1.394 . S
C598 C599 1.516 1_545 S
C599 C598 1.516 1_565 S
C599 C600 1.502 . S
C599 C601 1.561 . S
C599 C602 1.526 . S
C600 H584 0.959 . S
C600 H585 0.959 . S
C600 H586 0.961 . S
C600 C599 1.502 . S
C601 H587 0.960 . S
C601 H588 0.961 . S
C601 H589 0.959 . S
C601 C599 1.561 . S
C602 C599 1.526 . S
C602 C603 1.396 . S
C602 C607 1.390 . S
C603 C597 1.465 1_565 S
C603 C602 1.396 . S
C603 C604 1.399 . S
C604 H590 0.929 1_565 S
C604 C603 1.399 . S
C604 C605 1.385 . S
C605 H591 0.931 . S
C605 C604 1.385 . S
C605 C606 1.389 . S
C606 C605 1.389 . S
C606 C607 1.387 . S
C607 H592 0.930 . S
C607 C602 1.390 . S
C607 C606 1.387 . S
H608 C620 0.930 . S
H609 C622 0.930 . S
H610 C623 0.930 . S
H611 C627 0.959 . S
H612 C627 0.959 . S
H613 C627 0.961 . S
H614 C628 0.960 . S
H615 C628 0.961 . S
H616 C628 0.959 . S
H617 C631 0.929 . S
H618 C632 0.931 . S
H619 C634 0.930 . S
C620 H608 0.930 . S
C620 C621 1.399 . S
C620 C625 1.399 . S
C621 C620 1.399 . S
C621 C622 1.376 . S
C622 H609 0.930 . S
C622 C621 1.376 . S
C622 C623 1.388 . S
C623 H610 0.930 . S
C623 C622 1.388 . S
C623 C624 1.390 . S
C624 C623 1.390 . S
C624 C625 1.394 . S
C624 C630 1.465 . S
C625 C620 1.399 . S
C625 C624 1.394 . S
C625 C626 1.516 . S
C626 C625 1.516 . S
C626 C627 1.502 . S
C626 C628 1.561 . S
C626 C629 1.526 . S
C627 H611 0.959 . S
C627 H612 0.959 . S
C627 H613 0.961 . S
C627 C626 1.502 . S
C628 H614 0.960 . S
C628 H615 0.961 . S
C628 H616 0.959 . S
C628 C626 1.561 . S
C629 C626 1.526 . S
C629 C630 1.396 . S
C629 C634 1.390 . S
C630 C624 1.465 . S
C630 C629 1.396 . S
C630 C631 1.399 . S
C631 H617 0.929 . S
C631 C630 1.399 . S
C631 C632 1.385 . S
C632 H618 0.931 . S
C632 C631 1.385 . S
C632 C633 1.389 . S
C633 C632 1.389 . S
C633 C634 1.387 . S
C634 H619 0.930 . S
C634 C629 1.390 . S
C634 C633 1.387 . S
H635 C647 0.930 . S
H636 C649 0.930 . S
H637 C650 0.930 . S
H638 C654 0.959 . S
H639 C654 0.959 . S
H640 C654 0.961 . S
H641 C655 0.960 . S
H642 C655 0.961 . S
H643 C655 0.959 . S
H644 C658 0.929 . S
H645 C659 0.931 . S
H646 C661 0.930 . S
C647 H635 0.930 . S
C647 C648 1.399 . S
C647 C652 1.399 . S
C648 C647 1.399 . S
C648 C649 1.376 . S
C649 H636 0.930 . S
C649 C648 1.376 . S
C649 C650 1.388 . S
C650 H637 0.930 . S
C650 C649 1.388 . S
C650 C651 1.390 . S
C651 C650 1.390 . S
C651 C652 1.394 . S
C651 C657 1.465 . S
C652 C647 1.399 . S
C652 C651 1.394 . S
C652 C653 1.516 . S
C653 C652 1.516 . S
C653 C654 1.502 . S
C653 C655 1.561 . S
C653 C656 1.526 . S
C654 H638 0.959 . S
C654 H639 0.959 . S
C654 H640 0.961 . S
C654 C653 1.502 . S
C655 H641 0.960 . S
C655 H642 0.961 . S
C655 H643 0.959 . S
C655 C653 1.561 . S
C656 C653 1.526 . S
C656 C657 1.396 . S
C656 C661 1.390 . S
C657 C651 1.465 . S
C657 C656 1.396 . S
C657 C658 1.399 . S
C658 H644 0.929 . S
C658 C657 1.399 . S
C658 C659 1.385 . S
C659 H645 0.931 . S
C659 C658 1.385 . S
C659 C660 1.389 . S
C660 C659 1.389 . S
C660 C661 1.387 . S
C661 H646 0.930 . S
C661 C656 1.390 . S
C661 C660 1.387 . S
H662 C674 0.930 . S
H663 C676 0.930 . S
H664 C677 0.930 . S
H665 C681 0.959 . S
H666 C681 0.959 . S
H667 C681 0.961 . S
H668 C682 0.960 . S
H669 C682 0.961 . S
H670 C682 0.959 . S
H671 C685 0.929 . S
H672 C686 0.931 . S
H673 C688 0.930 . S
C674 H662 0.930 . S
C674 C675 1.399 . S
C674 C679 1.399 . S
C675 C674 1.399 . S
C675 C676 1.376 . S
C676 H663 0.930 . S
C676 C675 1.376 . S
C676 C677 1.388 . S
C677 H664 0.930 . S
C677 C676 1.388 . S
C677 C678 1.390 . S
C678 C677 1.390 . S
C678 C679 1.394 . S
C678 C684 1.465 . S
C679 C674 1.399 . S
C679 C678 1.394 . S
C679 C680 1.516 . S
C680 C679 1.516 . S
C680 C681 1.502 . S
C680 C682 1.561 . S
C680 C683 1.526 . S
C681 H665 0.959 . S
C681 H666 0.959 . S
C681 H667 0.961 . S
C681 C680 1.502 . S
C682 H668 0.960 . S
C682 H669 0.961 . S
C682 H670 0.959 . S
C682 C680 1.561 . S
C683 C680 1.526 . S
C683 C684 1.396 . S
C683 C688 1.390 . S
C684 C678 1.465 . S
C684 C683 1.396 . S
C684 C685 1.399 . S
C685 H671 0.929 . S
C685 C684 1.399 . S
C685 C686 1.385 . S
C686 H672 0.931 . S
C686 C685 1.385 . S
C686 C687 1.389 . S
C687 C686 1.389 . S
C687 C688 1.387 . S
C688 H673 0.930 . S
C688 C683 1.390 . S
C688 C687 1.387 . S
H689 C701 0.930 . S
H690 C703 0.930 . S
H691 C704 0.930 . S
H692 C708 0.959 . S
H693 C708 0.959 . S
H694 C708 0.961 . S
H695 C709 0.960 . S
H696 C709 0.961 . S
H697 C709 0.959 . S
H698 C712 0.929 . S
H699 C713 0.931 . S
H700 C715 0.930 . S
C701 H689 0.930 . S
C701 C702 1.399 . S
C701 C706 1.399 . S
C702 C701 1.399 . S
C702 C703 1.376 . S
C703 H690 0.930 . S
C703 C702 1.376 . S
C703 C704 1.388 . S
C704 H691 0.930 . S
C704 C703 1.388 . S
C704 C705 1.390 . S
C705 C704 1.390 . S
C705 C706 1.394 . S
C705 C711 1.465 . S
C706 C701 1.399 . S
C706 C705 1.394 . S
C706 C707 1.516 . S
C707 C706 1.516 . S
C707 C708 1.502 . S
C707 C709 1.561 . S
C707 C710 1.526 . S
C708 H692 0.959 . S
C708 H693 0.959 . S
C708 H694 0.961 . S
C708 C707 1.502 . S
C709 H695 0.960 . S
C709 H696 0.961 . S
C709 H697 0.959 . S
C709 C707 1.561 . S
C710 C707 1.526 . S
C710 C711 1.396 . S
C710 C715 1.390 . S
C711 C705 1.465 . S
C711 C710 1.396 . S
C711 C712 1.399 . S
C712 H698 0.929 . S
C712 C711 1.399 . S
C712 C713 1.385 . S
C713 H699 0.931 . S
C713 C712 1.385 . S
C713 C714 1.389 . S
C714 C713 1.389 . S
C714 C715 1.387 . S
C715 H700 0.930 . S
C715 C710 1.390 . S
C715 C714 1.387 . S
H716 C728 0.930 . S
H717 C730 0.930 . S
H718 C731 0.930 . S
H719 C735 0.959 . S
H720 C735 0.959 . S
H721 C735 0.961 . S
H722 C736 0.960 . S
H723 C736 0.961 . S
H724 C736 0.959 . S
H725 C739 0.929 . S
H726 C740 0.931 . S
H727 C742 0.930 . S
C728 H716 0.930 . S
C728 C729 1.399 . S
C728 C733 1.399 . S
C729 C728 1.399 . S
C729 C730 1.376 . S
C730 H717 0.930 . S
C730 C729 1.376 . S
C730 C731 1.388 . S
C731 H718 0.930 . S
C731 C730 1.388 . S
C731 C732 1.390 . S
C732 C731 1.390 . S
C732 C733 1.394 . S
C732 C738 1.465 . S
C733 C728 1.399 . S
C733 C732 1.394 . S
C733 C734 1.516 . S
C734 C733 1.516 . S
C734 C735 1.502 . S
C734 C736 1.561 . S
C734 C737 1.526 . S
C735 H719 0.959 . S
C735 H720 0.959 . S
C735 H721 0.961 . S
C735 C734 1.502 . S
C736 H722 0.960 . S
C736 H723 0.961 . S
C736 H724 0.959 . S
C736 C734 1.561 . S
C737 C734 1.526 . S
C737 C738 1.396 . S
C737 C742 1.390 . S
C738 C732 1.465 . S
C738 C737 1.396 . S
C738 C739 1.399 . S
C739 H725 0.929 . S
C739 C738 1.399 . S
C739 C740 1.385 . S
C740 H726 0.931 . S
C740 C739 1.385 . S
C740 C741 1.389 . S
C741 C740 1.389 . S
C741 C742 1.387 . S
C742 H727 0.930 . S
C742 C737 1.390 . S
C742 C741 1.387 . S
H743 C755 0.930 . S
H744 C757 0.930 . S
H745 C758 0.930 . S
H746 C762 0.959 . S
H747 C762 0.959 . S
H748 C762 0.961 . S
H749 C763 0.960 . S
H750 C763 0.961 . S
H751 C763 0.959 . S
H752 C766 0.929 . S
H753 C767 0.931 . S
H754 C769 0.930 . S
C755 H743 0.930 . S
C755 C756 1.399 . S
C755 C760 1.399 . S
C756 C755 1.399 . S
C756 C757 1.376 . S
C757 H744 0.930 . S
C757 C756 1.376 . S
C757 C758 1.388 . S
C758 H745 0.930 . S
C758 C757 1.388 . S
C758 C759 1.390 . S
C759 C758 1.390 . S
C759 C760 1.394 . S
C759 C765 1.465 . S
C760 C755 1.399 . S
C760 C759 1.394 . S
C760 C761 1.516 . S
C761 C760 1.516 . S
C761 C762 1.502 . S
C761 C763 1.561 . S
C761 C764 1.526 . S
C762 H746 0.959 . S
C762 H747 0.959 . S
C762 H748 0.961 . S
C762 C761 1.502 . S
C763 H749 0.960 . S
C763 H750 0.961 . S
C763 H751 0.959 . S
C763 C761 1.561 . S
C764 C761 1.526 . S
C764 C765 1.396 . S
C764 C769 1.390 . S
C765 C759 1.465 . S
C765 C764 1.396 . S
C765 C766 1.399 . S
C766 H752 0.929 . S
C766 C765 1.399 . S
C766 C767 1.385 . S
C767 H753 0.931 . S
C767 C766 1.385 . S
C767 C768 1.389 . S
C768 C767 1.389 . S
C768 C769 1.387 . S
C769 H754 0.930 . S
C769 C764 1.390 . S
C769 C768 1.387 . S
H770 C782 0.930 . S
H771 C784 0.930 . S
H772 C785 0.930 . S
H773 C789 0.959 . S
H774 C789 0.959 . S
H775 C789 0.961 . S
H776 C790 0.960 . S
H777 C790 0.961 . S
H778 C790 0.959 . S
H779 C793 0.929 . S
H780 C794 0.931 . S
H781 C796 0.930 . S
C782 H770 0.930 . S
C782 C783 1.399 . S
C782 C787 1.399 . S
C783 C782 1.399 . S
C783 C784 1.376 . S
C784 H771 0.930 . S
C784 C783 1.376 . S
C784 C785 1.388 . S
C785 H772 0.930 . S
C785 C784 1.388 . S
C785 C786 1.390 . S
C786 C785 1.390 . S
C786 C787 1.394 . S
C786 C792 1.465 . S
C787 C782 1.399 . S
C787 C786 1.394 . S
C787 C788 1.516 . S
C788 C787 1.516 . S
C788 C789 1.502 . S
C788 C790 1.561 . S
C788 C791 1.526 . S
C789 H773 0.959 . S
C789 H774 0.959 . S
C789 H775 0.961 . S
C789 C788 1.502 . S
C790 H776 0.960 . S
C790 H777 0.961 . S
C790 H778 0.959 . S
C790 C788 1.561 . S
C791 C788 1.526 . S
C791 C792 1.396 . S
C791 C796 1.390 . S
C792 C786 1.465 . S
C792 C791 1.396 . S
C792 C793 1.399 . S
C793 H779 0.929 . S
C793 C792 1.399 . S
C793 C794 1.385 . S
C794 H780 0.931 . S
C794 C793 1.385 . S
C794 C795 1.389 . S
C795 C794 1.389 . S
C795 C796 1.387 . S
C796 H781 0.930 . S
C796 C791 1.390 . S
C796 C795 1.387 . S
H797 C809 0.930 . S
H798 C811 0.930 . S
H799 C812 0.930 . S
H800 C816 0.959 . S
H801 C816 0.959 . S
H802 C816 0.961 . S
H803 C817 0.960 . S
H804 C817 0.961 . S
H805 C817 0.959 . S
H806 C820 0.929 . S
H807 C821 0.931 . S
H808 C823 0.930 . S
C809 H797 0.930 . S
C809 C810 1.399 . S
C809 C814 1.399 . S
C810 C809 1.399 . S
C810 C811 1.376 . S
C811 H798 0.930 . S
C811 C810 1.376 . S
C811 C812 1.388 . S
C812 H799 0.930 . S
C812 C811 1.388 . S
C812 C813 1.390 . S
C813 C812 1.390 . S
C813 C814 1.394 . S
C813 C819 1.465 . S
C814 C809 1.399 . S
C814 C813 1.394 . S
C814 C815 1.516 . S
C815 C814 1.516 . S
C815 C816 1.502 . S
C815 C817 1.561 . S
C815 C818 1.526 . S
C816 H800 0.959 . S
C816 H801 0.959 . S
C816 H802 0.961 . S
C816 C815 1.502 . S
C817 H803 0.960 . S
C817 H804 0.961 . S
C817 H805 0.959 . S
C817 C815 1.561 . S
C818 C815 1.526 . S
C818 C819 1.396 . S
C818 C823 1.390 . S
C819 C813 1.465 . S
C819 C818 1.396 . S
C819 C820 1.399 . S
C820 H806 0.929 . S
C820 C819 1.399 . S
C820 C821 1.385 . S
C821 H807 0.931 . S
C821 C820 1.385 . S
C821 C822 1.389 . S
C822 C821 1.389 . S
C822 C823 1.387 . S
C823 H808 0.930 . S
C823 C818 1.390 . S
C823 C822 1.387 . S
C189 C8 1.655 . S
C201 C114 1.708 . S
C228 C92 1.362 . S
C216 C19 1.428 . S
C255 C118 1.494 . S
C243 C30 1.541 . S
C282 C96 1.529 . S
C270 C41 1.545 . S
C309 C158 1.694 . S
C297 C52 1.685 . S
C336 C136 1.411 . S
C324 C63 1.424 . S
C351 C74 1.541 . S
C363 C162 1.530 . S
C390 C140 1.543 . S
C378 C85 1.544 . S
C405 C7 1.689 . S
C417 C163 1.714 . S
C444 C141 1.321 . S
C432 C16 1.285 . S
C459 C29 1.562 . S
C471 C160 1.572 . S
C486 C40 1.524 . S
C498 C138 1.477 . S
C525 C119 1.699 . S
C513 C51 1.622 . S
C540 C60 1.284 . S
C552 C97 1.320 . S
C579 C116 1.562 . S
C567 C73 1.580 . S
C606 C94 1.506 . S
C594 C84 1.497 . S
C633 C137 1.445 . S
C621 C5 1.193 . S
C660 C159 1.430 . S
C648 C18 1.484 . S
C675 C27 1.297 . S
C687 C139 1.470 . S
C714 C161 1.455 . S
C702 C38 1.283 . S
C741 C93 1.431 . S
C729 C49 1.134 . S
C756 C62 1.482 . S
C768 C115 1.437 . S
C783 C71 1.312 . S
C795 C95 1.477 . S
C810 C82 1.284 . S
C822 C117 1.456 . S
