# Generated by pormake.
# Topology pts, (4,4)-cn, num edge types: 1
# Building blocks:
#     Node 0, Type 0, BuildingBlock: NAWXER_clean_sbu_0, # of connection points: 4
#     Node 1, Type 0, BuildingBlock: NAWXER_clean_sbu_0, # of connection points: 4
#     Node 2, Type 1, BuildingBlock: AZAVOO_clean_sbu_0, # of connection points: 4
#     Node 3, Type 1, BuildingBlock: AZAVOO_clean_sbu_0, # of connection points: 4
#     Edge 4, Type (0, 1), BuildingBlock: MIFKUJ_clean_linker_0, # of connection points: 2
#     Edge 5, Type (0, 1), BuildingBlock: MIFKUJ_clean_linker_0, # of connection points: 2
#     Edge 6, Type (0, 1), BuildingBlock: MIFKUJ_clean_linker_0, # of connection points: 2
#     Edge 7, Type (0, 1), BuildingBlock: MIFKUJ_clean_linker_0, # of connection points: 2
#     Edge 8, Type (0, 1), BuildingBlock: MIFKUJ_clean_linker_0, # of connection points: 2
#     Edge 9, Type (0, 1), BuildingBlock: MIFKUJ_clean_linker_0, # of connection points: 2
#     Edge 10, Type (0, 1), BuildingBlock: MIFKUJ_clean_linker_0, # of connection points: 2
#     Edge 11, Type (0, 1), BuildingBlock: MIFKUJ_clean_linker_0, # of connection points: 2
# Relax obj value: 0.010
# Max RMSD: 0.059
# Mean RMSD: 0.047
data_MOF--net-pts--node1-NAWXER_clean_sbu_0--node2-AZAVOO_clean_sbu_0--edge1-MIFKUJ_clean_linker_0
_symmetry_space_group_name_H-M    P1
_symmetry_Int_Tables_number       1
_symmetry_cell_setting            triclinic
loop_
_symmetry_equiv_pos_as_xyz
'x, y, z'
_cell_length_a     29.819409
_cell_length_b     30.569768
_cell_length_c     48.982399
_cell_angle_alpha  89.930483
_cell_angle_beta   95.993496
_cell_angle_gamma 90.061262
loop_
_atom_site_label
_atom_site_type_symbol
_atom_site_fract_x
_atom_site_fract_y
_atom_site_fract_z
_atom_type_partial_charge
C0 C 0.49131 0.99106 0.97414 0.0
C1 C 0.61942 0.99329 0.04509 0.0
O2 O 0.51055 0.95807 0.98608 0.0
Zn3 Zn 0.55483 0.99064 0.0099 0.0
O4 O 0.50501 0.02974 0.98079 0.0
Zn5 Zn 0.5546 0.06069 0.00921 0.0
O6 O 0.59043 0.09216 0.98475 0.0
O7 O 0.59636 0.02038 0.98166 0.0
O8 O 0.6061 0.0316 0.03725 0.0
O9 O 0.59854 0.95983 0.03493 0.0
O10 O 0.51262 0.02062 0.0369 0.0
O11 O 0.51701 0.09227 0.03303 0.0
C12 C 0.60724 0.05882 0.97407 0.0
C13 C 0.50051 0.05885 0.04385 0.0
C14 C 0.01335 0.57073 0.46899 0.0
C15 C 0.01169 0.46167 0.54181 0.0
O16 O 0.97886 0.55588 0.4791 0.0
Zn17 Zn 0.01106 0.51732 0.50617 0.0
O18 O 0.05283 0.55906 0.47909 0.0
Zn19 Zn 0.08314 0.51823 0.51102 0.0
O20 O 0.11754 0.47939 0.49013 0.0
O21 O 0.04371 0.47087 0.48166 0.0
O22 O 0.0516 0.47322 0.53712 0.0
O23 O 0.97763 0.4793 0.52831 0.0
O24 O 0.0404 0.56131 0.53665 0.0
O25 O 0.11438 0.55938 0.53675 0.0
C26 C 0.08393 0.45992 0.47734 0.0
C27 C 0.07961 0.5745 0.54636 0.0
Mg28 Mg 0.10562 0.00414 0.27556 0.0
O29 O 0.0374 0.00135 0.24838 0.0
O30 O 0.98414 0.99013 0.27669 0.0
Mg31 Mg 0.01583 0.99162 0.32101 0.0
C32 C 0.99637 0.99466 0.25266 0.0
C33 C 0.16652 0.00064 0.2279 0.0
O34 O 0.16829 0.96007 0.23681 0.0
O35 O 0.09222 0.07438 0.28867 0.0
O36 O 0.03941 0.0626 0.317 0.0
O37 O 0.10986 0.93055 0.27516 0.0
O38 O 0.07841 0.9681 0.3064 0.0
C39 C 0.06553 0.08834 0.30549 0.0
C40 C 0.0878 0.93067 0.29654 0.0
O41 O 0.14208 0.02792 0.23919 0.0
Mg42 Mg 1.00284 0.00433 0.74542 0.0
O43 O 0.06906 0.00544 0.77447 0.0
O44 O 0.12547 0.00508 0.74769 0.0
Mg45 Mg 0.09682 -0.00061 0.70282 0.0
C46 C 0.11109 0.00613 0.77133 0.0
C47 C 0.92467 0.0448 0.7737 0.0
O48 O 0.91266 0.05355 0.74769 0.0
O49 O 0.01214 0.07557 0.73223 0.0
O50 O 0.06654 0.06795 0.7045 0.0
O51 O 1.00255 0.93098 0.74618 0.0
O52 O 0.03526 0.97037 0.71614 0.0
C53 C 0.03792 0.09149 0.71546 0.0
C54 C 0.02664 0.93239 0.72567 0.0
O55 O 0.96185 0.02516 0.7802 0.0
H56 H 0.46625 0.99318 0.07275 0.0
H57 H 0.40415 0.99622 0.10102 0.0
H58 H 0.39216 0.13525 0.08732 0.0
H59 H 0.45517 0.1326 0.0586 0.0
H60 H 0.3843 0.10847 0.14285 0.0
H61 H 0.31743 0.0748 0.0527 0.0
H62 H 0.3105 0.03659 0.00815 0.0
H63 H 0.29418 0.91407 0.04884 0.0
H64 H 0.30155 0.95138 0.0937 0.0
H65 H 0.17999 0.08367 0.20843 0.0
H66 H 0.23063 0.10548 0.17438 0.0
H67 H 0.26797 0.9705 0.16481 0.0
H68 H 0.21748 0.94855 0.19834 0.0
H69 H 0.25437 0.01052 0.11592 0.0
H70 H 0.33462 0.04182 0.20537 0.0
H71 H 0.34497 0.07802 0.25057 0.0
H72 H 0.33756 0.20387 0.21133 0.0
H73 H 0.32661 0.16836 0.16587 0.0
C74 C 0.45079 0.02461 0.07576 0.0
C75 C 0.46553 0.06264 0.06315 0.0
C76 C 0.4151 0.02621 0.09192 0.0
C77 C 0.393 0.06578 0.09585 0.0
C78 C 0.40863 0.10432 0.08435 0.0
C79 C 0.4446 0.10275 0.068 0.0
C80 C 0.35305 0.06565 0.11157 0.0
C81 C 0.35528 0.08798 0.13668 0.0
C82 C 0.31547 0.03849 0.10362 0.0
C83 C 0.31024 0.01593 0.07661 0.0
C84 C 0.3126 0.03968 0.05218 0.0
C85 C 0.30859 0.01818 0.02686 0.0
C86 C 0.30202 0.97295 0.02566 0.0
C87 C 0.29927 0.94912 0.04979 0.0
C88 C 0.30326 0.97044 0.07517 0.0
C89 C 0.19874 0.05865 0.19889 0.0
C90 C 0.19481 0.01437 0.20621 0.0
C91 C 0.2278 0.07118 0.17952 0.0
C92 C 0.25341 0.03966 0.16719 0.0
C93 C 0.24855 0.99542 0.17399 0.0
C94 C 0.21972 0.98293 0.19329 0.0
C95 C 0.28632 0.05208 0.1477 0.0
C96 C 0.28273 0.03197 0.12182 0.0
C97 C 0.32262 0.08118 0.15499 0.0
C98 C 0.32921 0.10247 0.18227 0.0
C99 C 0.33482 0.07722 0.2064 0.0
C100 C 0.34087 0.0976 0.23205 0.0
C101 C 0.34176 0.14322 0.23382 0.0
C102 C 0.33675 0.16855 0.20993 0.0
C103 C 0.33063 0.14831 0.18422 0.0
H104 H 0.34646 0.15894 0.2537 0.0
H105 H 0.299 0.95639 0.00603 0.0
H106 H 0.07572 0.40552 0.56433 0.0
H107 H 0.06758 0.34755 0.59761 0.0
H108 H 0.92795 0.38195 0.60026 0.0
H109 H 0.93557 0.44028 0.56633 0.0
H110 H 0.98456 0.36378 0.65486 0.0
H111 H 0.93694 0.30151 0.56769 0.0
H112 H 0.94034 0.28526 0.51869 0.0
H113 H 0.06553 0.2173 0.53823 0.0
H114 H 0.06374 0.23447 0.58719 0.0
H115 H 0.965 0.1459 0.71863 0.0
H116 H 0.95007 0.21502 0.69362 0.0
H117 H 0.08157 0.20851 0.66467 0.0
H118 H 0.09678 0.14019 0.68941 0.0
H119 H 0.01003 0.21277 0.62287 0.0
H120 H 0.06124 0.28395 0.70926 0.0
H121 H 0.05788 0.30071 0.75824 0.0
H122 H 0.92311 0.34968 0.74021 0.0
H123 H 0.92546 0.33263 0.69114 0.0
C124 C 0.04325 0.40108 0.57202 0.0
C125 C 0.0062 0.42738 0.56257 0.0
C126 C 0.03872 0.36794 0.59108 0.0
C127 C 0.9972 0.36055 0.60132 0.0
C128 C 0.96029 0.38736 0.5926 0.0
C129 C 0.96463 0.42036 0.57312 0.0
C130 C 0.99279 0.32297 0.61992 0.0
C131 C 0.98907 0.33058 0.64786 0.0
C132 C 0.99892 0.27983 0.61069 0.0
C133 C 1.0004 0.26969 0.58114 0.0
C134 C 0.96555 0.28366 0.5615 0.0
C135 C 0.96719 0.27429 0.5337 0.0
C136 C 1.00327 0.25051 0.52529 0.0
C137 C 0.03777 0.23602 0.54469 0.0
C138 C 0.03647 0.24559 0.57248 0.0
C139 C 0.99115 0.15985 0.70753 0.0
C140 C 0.03183 0.13721 0.70568 0.0
C141 C 0.98251 0.19926 0.69322 0.0
C142 C 0.01453 0.21648 0.67704 0.0
C143 C 0.05625 0.19548 0.67681 0.0
C144 C 0.06487 0.1564 0.69101 0.0
C145 C 1.00375 0.25363 0.65804 0.0
C146 C 0.00452 0.2458 0.62989 0.0
C147 C 0.99466 0.2963 0.66713 0.0
C148 C 0.99329 0.30646 0.6966 0.0
C149 C 0.03071 0.29785 0.71578 0.0
C150 C 0.02903 0.30751 0.74355 0.0
C151 C 0.99024 0.32609 0.75235 0.0
C152 C 0.95309 0.33518 0.73338 0.0
C153 C 0.95459 0.32555 0.70559 0.0
H154 H 0.98902 0.33357 0.77385 0.0
H155 H 0.00434 0.24317 0.50377 0.0
H156 H 0.68242 0.05559 0.06004 0.0
H157 H 0.74887 0.04945 0.09338 0.0
H158 H 0.71439 0.91558 0.10959 0.0
H159 H 0.64765 0.92123 0.0758 0.0
H160 H 0.73554 0.97016 0.15751 0.0
H161 H 0.79763 0.93054 0.07411 0.0
H162 H 0.81196 0.94086 0.02585 0.0
H163 H 0.87988 0.06206 0.04674 0.0
H164 H 0.86537 0.05278 0.09508 0.0
H165 H 0.93279 0.93154 0.24528 0.0
H166 H 0.87224 0.92485 0.20792 0.0
H167 H 0.91912 0.04234 0.17081 0.0
H168 H 0.982 0.04695 0.20729 0.0
H169 H 0.89105 0.99129 0.13234 0.0
H170 H 0.82522 0.03792 0.2128 0.0
H171 H 0.80857 0.03428 0.26104 0.0
H172 H 0.74508 0.90921 0.24612 0.0
H173 H 0.7618 0.9119 0.19785 0.0
C174 C 0.68888 0.02475 0.07064 0.0
C175 C 0.65969 0.98887 0.06531 0.0
C176 C 0.72703 0.02128 0.08959 0.0
C177 C 0.73666 0.98201 0.10377 0.0
C178 C 0.70752 0.94613 0.09873 0.0
C179 C 0.66954 0.94938 0.07942 0.0
C180 C 0.77661 0.97919 0.12438 0.0
C181 C 0.76967 0.97395 0.15204 0.0
C182 C 0.82085 0.98575 0.1172 0.0
C183 C 0.83009 0.99111 0.08819 0.0
C184 C 0.81533 0.95955 0.06838 0.0
C185 C 0.82354 0.96519 0.04102 0.0
C186 C 0.84673 0.00214 0.03322 0.0
C187 C 0.86189 0.03346 0.05281 0.0
C188 C 0.85374 0.028 0.0802 0.0
C189 C 0.93027 0.95569 0.22898 0.0
C190 C 0.9616 0.99001 0.22919 0.0
C191 C 0.89545 0.95209 0.20774 0.0
C192 C 0.89 0.98388 0.18691 0.0
C193 C 0.92228 0.01751 0.18669 0.0
C194 C 0.95812 0.02026 0.20752 0.0
C195 C 0.85021 0.98255 0.16578 0.0
C196 C 0.85707 0.98715 0.13796 0.0
C197 C 0.80566 0.9764 0.17287 0.0
C198 C 0.79513 0.97494 0.2018 0.0
C199 C 0.80791 0.00955 0.21985 0.0
C200 C 0.79844 0.00766 0.24719 0.0
C201 C 0.77589 0.97149 0.25665 0.0
C202 C 0.76259 0.93719 0.23877 0.0
C203 C 0.77201 0.93889 0.21141 0.0
H204 H 0.76863 0.97007 0.27783 0.0
H205 H 0.85303 0.00646 0.01202 0.0
H206 H 0.14184 0.64018 0.55697 0.0
H207 H 0.14082 0.6977 0.59184 0.0
H208 H 0.02515 0.63654 0.62221 0.0
H209 H 0.02474 0.58087 0.58665 0.0
H210 H 0.00837 0.71658 0.61636 0.0
H211 H 0.13665 0.63799 0.65817 0.0
H212 H 0.21152 0.60314 0.66073 0.0
H213 H 0.27185 0.72654 0.64387 0.0
H214 H 0.19723 0.76205 0.64085 0.0
H215 H 1.00016 0.84827 0.73416 0.0
H216 H 0.01781 0.78313 0.70825 0.0
H217 H 0.10547 0.85986 0.66241 0.0
H218 H 0.08748 0.92505 0.68769 0.0
H219 H 0.13862 0.77198 0.67795 0.0
H220 H 0.00728 0.84769 0.63396 0.0
H221 H 0.93191 0.88111 0.63311 0.0
H222 H 0.87708 0.75842 0.65667 0.0
H223 H 0.95235 0.72444 0.65805 0.0
C224 C 0.11664 0.63891 0.57136 0.0
C225 C 0.08316 0.60642 0.56904 0.0
C226 C 0.11616 0.67162 0.59138 0.0
C227 C 0.08298 0.67148 0.60984 0.0
C228 C 0.05086 0.63772 0.60813 0.0
C229 C 0.05068 0.60585 0.58782 0.0
C230 C 0.07917 0.70795 0.62959 0.0
C231 C 0.03685 0.72795 0.63013 0.0
C232 C 0.11637 0.72383 0.64721 0.0
C233 C 0.16128 0.70258 0.64902 0.0
C234 C 0.16583 0.65763 0.65479 0.0
C235 C 0.20823 0.63777 0.65637 0.0
C236 C 0.2464 0.66258 0.6524 0.0
C237 C 0.24225 0.70735 0.64691 0.0
C238 C 0.19992 0.72737 0.64529 0.0
C239 C 0.02384 0.85115 0.71892 0.0
C240 C 0.04219 0.89201 0.71291 0.0
C241 C 0.03388 0.81391 0.70416 0.0
C242 C 0.0628 0.81684 0.68338 0.0
C243 C 0.08325 0.85695 0.67846 0.0
C244 C 0.07273 0.89427 0.69291 0.0
C245 C 0.06792 0.77943 0.66481 0.0
C246 C 0.11034 0.75982 0.66433 0.0
C247 C 0.03078 0.76336 0.64745 0.0
C248 C 0.9855 0.78368 0.64641 0.0
C249 C 0.97922 0.82795 0.63919 0.0
C250 C 0.93652 0.84697 0.63857 0.0
C251 C 0.89975 0.82194 0.64491 0.0
C252 C 0.9056 0.77779 0.65181 0.0
C253 C 0.94827 0.75863 0.6525 0.0
H254 H 0.86671 0.83672 0.64442 0.0
H255 H 0.2792 0.64715 0.65363 0.0
H256 H 0.46889 0.04284 0.93005 0.0
H257 H 0.39966 0.04133 0.89886 0.0
H258 H 0.35382 0.92871 0.94142 0.0
H259 H 0.42462 0.92893 0.97204 0.0
H260 H 0.32876 0.92053 0.88898 0.0
H261 H 0.31535 0.03384 0.95344 0.0
H262 H 0.3381 0.09896 0.98124 0.0
H263 H 0.33984 0.17577 0.90796 0.0
H264 H 0.31797 0.11103 0.87966 0.0
H265 H 0.10454 0.96831 0.82147 0.0
H266 H 0.16442 0.96227 0.85985 0.0
H267 H 0.25311 0.03847 0.81437 0.0
H268 H 0.1942 0.0435 0.77579 0.0
H269 H 0.24721 0.06149 0.8743 0.0
H270 H 0.27008 0.94084 0.8113 0.0
H271 H 0.24451 0.8747 0.78538 0.0
H272 H 0.21876 0.81087 0.86033 0.0
H273 H 0.24356 0.87698 0.88664 0.0
C274 C 0.4443 0.01741 0.93254 0.0
C275 C 0.45191 0.98616 0.95352 0.0
C276 C 0.40454 0.01678 0.91485 0.0
C277 C 0.37079 0.98577 0.9183 0.0
C278 C 0.37916 0.95321 0.9385 0.0
C279 C 0.4196 0.95326 0.95592 0.0
C280 C 0.32678 0.9883 0.901 0.0
C281 C 0.31054 0.95118 0.88623 0.0
C282 C 0.30259 0.0282 0.89743 0.0
C283 C 0.31524 0.06745 0.9144 0.0
C284 C 0.32082 0.06456 0.94323 0.0
C285 C 0.33355 0.10139 0.95909 0.0
C286 C 0.34041 0.14142 0.94638 0.0
C287 C 0.3345 0.14473 0.91778 0.0
C288 C 0.3219 0.10798 0.90181 0.0
C289 C 0.13664 0.98419 0.81986 0.0
C290 C 0.14483 0.0063 0.79567 0.0
C291 C 0.17076 0.98057 0.84169 0.0
C292 C 0.21308 -0.00016 0.8398 0.0
C293 C 0.22062 0.02342 0.81615 0.0
C294 C 0.18702 0.02616 0.79415 0.0
C295 C 0.25045 0.99427 0.86187 0.0
C296 C 0.26522 0.03079 0.87754 0.0
C297 C 0.27266 0.95373 0.86668 0.0
C298 C 0.25808 0.914 0.85087 0.0
C299 C 0.25852 0.91287 0.82221 0.0
C300 C 0.24427 0.87536 0.80746 0.0
C301 C 0.22986 0.83866 0.82119 0.0
C302 C 0.22982 0.83936 0.84971 0.0
C303 C 0.24398 0.87682 0.86455 0.0
H304 H 0.21885 0.80964 0.80973 0.0
H305 H 0.35027 0.16989 0.95869 0.0
H306 H 0.02562 0.39422 0.46201 0.0
H307 H 0.03443 0.33586 0.42906 0.0
H308 H 0.16438 0.38741 0.41429 0.0
H309 H 0.15625 0.44586 0.448 0.0
H310 H 0.09921 0.36353 0.36455 0.0
H311 H 0.17374 0.30638 0.44676 0.0
H312 H 0.18665 0.28721 0.4958 0.0
H313 H 0.07149 0.20204 0.48712 0.0
H314 H 0.05672 0.22206 0.43829 0.0
H315 H 0.13087 0.14973 0.2978 0.0
H316 H 0.14297 0.21958 0.32224 0.0
H317 H 0.0201 0.19992 0.35985 0.0
H318 H 0.00745 0.13092 0.33557 0.0
H319 H 0.10045 0.2097 0.39701 0.0
H320 H 0.02187 0.2768 0.31543 0.0
H321 H 0.01189 0.29512 0.26613 0.0
H322 H 0.14092 0.35896 0.27346 0.0
H323 H 0.15194 0.34046 0.32277 0.0
C324 C 0.05613 0.39323 0.45179 0.0
C325 C 0.09032 0.42452 0.45761 0.0
C326 C 0.06109 0.35987 0.43299 0.0
C327 C 0.10001 0.35745 0.4193 0.0
C328 C 0.13408 0.38891 0.42467 0.0
C329 C 0.12952 0.42198 0.44401 0.0
C330 C 0.10454 0.32108 0.39989 0.0
C331 C 0.10052 0.32984 0.37159 0.0
C332 C 0.10608 0.27728 0.40918 0.0
C333 C 0.11383 0.26616 0.43884 0.0
C334 C 0.15063 0.28421 0.45539 0.0
C335 C 0.15831 0.27316 0.48318 0.0
C336 C 0.12976 0.24364 0.49462 0.0
C337 C 0.09338 0.22519 0.47831 0.0
C338 C 0.08528 0.23645 0.45057 0.0
C339 C 0.10581 0.16088 0.3107 0.0
C340 C 0.06853 0.13437 0.31505 0.0
C341 C 0.11286 0.20072 0.32467 0.0
C342 C 0.08269 0.21448 0.34307 0.0
C343 C 0.04397 0.1896 0.34591 0.0
C344 C 0.03681 0.15013 0.33196 0.0
C345 C 0.0931 0.25205 0.3617 0.0
C346 C 0.10004 0.24337 0.38994 0.0
C347 C 0.09466 0.29571 0.3523 0.0
C348 C 0.088 0.30672 0.32269 0.0
C349 C 0.04834 0.29431 0.30647 0.0
C350 C 0.04243 0.30484 0.27854 0.0
C351 C 0.07582 0.32804 0.26665 0.0
C352 C 0.11513 0.34089 0.28268 0.0
C353 C 0.12121 0.33042 0.31062 0.0
H354 H 0.07118 0.33618 0.24502 0.0
H355 H 0.13601 0.23489 0.51609 0.0
H356 H 0.64058 0.13441 0.95305 0.0
H357 H 0.69399 0.14046 0.91831 0.0
H358 H 0.70109 -0.00019 0.91383 0.0
H359 H 0.64782 0.99342 0.94803 0.0
H360 H 0.78112 0.11154 0.91725 0.0
H361 H 0.70746 0.96918 0.84848 0.0
H362 H 0.63401 0.93361 0.83562 0.0
H363 H 0.56555 0.05262 0.85225 0.0
H364 H 0.63858 0.08909 0.86482 0.0
H365 H 0.93676 0.02805 0.82906 0.0
H366 H 0.88268 0.03976 0.86264 0.0
H367 H 0.78846 0.09585 0.79942 0.0
H368 H 0.84202 0.0839 0.76572 0.0
H369 H 0.74808 0.03633 0.82767 0.0
H370 H 0.84284 0.16 0.84929 0.0
H371 H 0.91442 0.19931 0.86125 0.0
H372 H 0.93714 0.12606 0.93626 0.0
H373 H 0.86597 0.08585 0.92457 0.0
C374 C 0.65347 0.10481 0.94461 0.0
C375 C 0.63962 0.06345 0.95321 0.0
C376 C 0.68411 0.10832 0.92486 0.0
C377 C 0.70112 0.07059 0.91325 0.0
C378 C 0.68788 0.02938 0.92216 0.0
C379 C 0.65741 0.02583 0.94181 0.0
C380 C 0.73242 0.07375 0.89164 0.0
C381 C 0.77389 0.09528 0.89761 0.0
C382 C 0.72265 0.05314 0.86584 0.0
C383 C 0.67853 0.03175 0.85779 0.0
C384 C 0.67675 0.98783 0.84924 0.0
C385 C 0.63518 0.9675 0.84203 0.0
C386 C 0.59514 0.99081 0.84318 0.0
C387 C 0.59659 0.03456 0.85144 0.0
C388 C 0.63806 0.05507 0.85864 0.0
C389 C 0.90471 0.04327 0.82235 0.0
C390 C 0.89368 0.05486 0.79466 0.0
C391 C 0.87389 0.05013 0.84161 0.0
C392 C 0.83155 0.06889 0.83359 0.0
C393 C 0.82087 0.08127 0.80608 0.0
C394 C 0.85163 0.07448 0.78684 0.0
C395 C 0.79737 0.07325 0.85346 0.0
C396 C 0.75532 0.05294 0.8472 0.0
C397 C 0.80644 0.0955 0.87879 0.0
C398 C 0.84923 0.11965 0.88593 0.0
C399 C 0.86327 0.15202 0.86823 0.0
C400 C 0.90374 0.17451 0.87499 0.0
C401 C 0.93036 0.16512 0.89947 0.0
C402 C 0.91651 0.13327 0.91729 0.0
C403 C 0.87607 0.11066 0.91062 0.0
H404 H 0.96169 0.18257 0.90467 0.0
H405 H 0.563 0.97499 0.83763 0.0
H406 H 0.05831 0.56601 0.42416 0.0
H407 H 0.06174 0.62116 0.38833 0.0
H408 H 0.9657 0.70043 0.42617 0.0
H409 H 0.96025 0.6436 0.46125 0.0
H410 H 0.95356 0.71194 0.37292 0.0
H411 H 0.08218 0.71528 0.43998 0.0
H412 H 0.14787 0.68528 0.4687 0.0
H413 H 0.21012 0.65167 0.39637 0.0
H414 H 0.14446 0.68093 0.3672 0.0
H415 H 0.03678 0.92198 0.33951 0.0
H416 H 0.0153 0.85505 0.36159 0.0
H417 H 0.08606 0.77893 0.30576 0.0
H418 H 0.10659 0.84626 0.28264 0.0
H419 H 0.10948 0.76305 0.36416 0.0
H420 H 0.97931 0.77125 0.29786 0.0
H421 H 0.9142 0.80818 0.27258 0.0
H422 H 0.85552 0.82851 0.34795 0.0
H423 H 0.92067 0.79234 0.37377 0.0
C424 C 0.03722 0.59482 0.42443 0.0
C425 C 0.00933 0.60095 0.44547 0.0
C426 C 0.03937 0.62642 0.40408 0.0
C427 C 0.01509 0.66563 0.40502 0.0
C428 C 0.98501 0.6706 0.42511 0.0
C429 C 0.98189 0.63824 0.44513 0.0
C430 C 0.02399 0.7025 0.38648 0.0
C431 C 0.98762 0.72327 0.37115 0.0
C432 C 0.06851 0.71721 0.38394 0.0
C433 C 0.1082 0.69986 0.40142 0.0
C434 C 0.10975 0.70122 0.4302 0.0
C435 C 0.14698 0.68438 0.44656 0.0
C436 C 0.18309 0.66647 0.43436 0.0
C437 C 0.18209 0.66548 0.40578 0.0
C438 C 0.14489 0.68221 0.38933 0.0
C439 C 0.04694 0.89118 0.33134 0.0
C440 C 0.07299 0.88962 0.30901 0.0
C441 C 0.03465 0.85284 0.3441 0.0
C442 C 0.04871 0.81212 0.33512 0.0
C443 C 0.07461 0.81016 0.31281 0.0
C444 C 0.08629 0.84861 0.29966 0.0
C445 C 0.03918 0.77218 0.35061 0.0
C446 C 0.0755 0.75115 0.3656 0.0
C447 C 0.99464 0.75811 0.35331 0.0
C448 C 0.95509 0.77934 0.33778 0.0
C449 C 0.9527 0.78388 0.30908 0.0
C450 C 0.91575 0.80464 0.29464 0.0
C451 C 0.88078 0.82076 0.30865 0.0
C452 C 0.88264 0.81603 0.33712 0.0
C453 C 0.91955 0.79535 0.35167 0.0
H454 H 0.85222 0.83685 0.29744 0.0
H455 H 0.21189 0.65344 0.44706 0.0
loop_
_geom_bond_atom_site_label_1
_geom_bond_atom_site_label_2
_geom_bond_distance
_geom_bond_site_symmetry_2
_ccdc_geom_bond_type
C0 O2 1.247 1_545 S
C0 O4 1.258 . S
C1 O8 1.247 . S
C1 O9 1.258 1_545 S
O2 C0 1.247 1_565 S
O2 Zn3 2.028 1_556 S
Zn3 O2 2.028 1_554 S
Zn3 O7 2.035 1_554 S
Zn3 O9 2.035 . S
Zn3 O10 2.028 . S
O4 C0 1.258 . S
O4 Zn5 2.035 1_556 S
Zn5 O4 2.035 1_554 S
Zn5 O6 2.028 1_554 S
Zn5 O8 2.028 . S
Zn5 O11 2.035 . S
O6 Zn5 2.028 1_556 S
O6 C12 1.247 . S
O7 Zn3 2.035 1_556 S
O7 C12 1.258 1_565 S
O8 C1 1.247 . S
O8 Zn5 2.028 . S
O9 C1 1.258 1_565 S
O9 Zn3 2.035 . S
O10 Zn3 2.028 . S
O10 C13 1.247 1_565 S
O11 Zn5 2.035 . S
O11 C13 1.258 . S
C12 O6 1.247 . S
C12 O7 1.258 1_545 S
C13 O10 1.247 1_545 S
C13 O11 1.258 . S
C14 O16 1.247 . S
C14 O18 1.258 . S
C15 O22 1.247 . S
C15 O23 1.258 . S
O16 C14 1.247 . S
O16 Zn17 2.028 1_455 S
Zn17 O16 2.028 1_655 S
Zn17 O21 2.035 1_655 S
Zn17 O23 2.035 1_655 S
Zn17 O24 2.028 1_655 S
O18 C14 1.258 . S
O18 Zn19 2.035 . S
Zn19 O18 2.035 . S
Zn19 O20 2.028 . S
Zn19 O22 2.028 . S
Zn19 O25 2.035 . S
O20 Zn19 2.028 . S
O20 C26 1.247 . S
O21 Zn17 2.035 1_455 S
O21 C26 1.258 . S
O22 C15 1.247 . S
O22 Zn19 2.028 . S
O23 C15 1.258 . S
O23 Zn17 2.035 1_455 S
O24 Zn17 2.028 1_455 S
O24 C27 1.247 . S
O25 Zn19 2.035 . S
O25 C27 1.258 . S
C26 O20 1.247 . S
C26 O21 1.258 . S
C27 O24 1.247 . S
C27 O25 1.258 . S
Mg28 O29 2.028 . S
Mg28 O35 1.986 . S
Mg28 O37 2.114 1_545 S
Mg28 O38 2.251 1_545 S
Mg28 O41 2.010 . S
O29 Mg28 2.028 . S
O29 C32 1.250 . S
O30 Mg31 2.028 . S
O30 C32 1.248 1_655 S
Mg31 O30 2.028 . S
Mg31 O36 2.032 1_655 S
Mg31 O38 2.079 1_645 S
C32 O29 1.250 . S
C32 O30 1.248 1_455 S
C33 O34 1.264 . S
C33 O41 1.249 . S
O34 C33 1.264 . S
O35 Mg28 1.986 . S
O35 C39 1.246 . S
O36 Mg31 2.032 1_455 S
O36 C39 1.259 . S
O37 Mg28 2.114 1_565 S
O37 C40 1.252 . S
O38 Mg28 2.251 1_565 S
O38 Mg31 2.079 1_465 S
O38 C40 1.273 . S
C39 O35 1.246 . S
C39 O36 1.259 . S
C40 O37 1.252 . S
C40 O38 1.273 . S
O41 Mg28 2.010 . S
O41 C33 1.249 . S
Mg42 O43 2.028 1_655 S
Mg42 O49 1.986 1_655 S
Mg42 O51 2.114 1_545 S
Mg42 O52 2.251 1_645 S
Mg42 O55 2.010 . S
O43 Mg42 2.028 1_455 S
O43 C46 1.250 . S
O44 Mg45 2.028 . S
O44 C46 1.248 . S
Mg45 O44 2.028 . S
Mg45 O50 2.032 . S
Mg45 O52 2.079 1_545 S
C46 O43 1.250 . S
C46 O44 1.248 . S
C47 O48 1.264 . S
C47 O55 1.249 . S
O48 C47 1.264 . S
O49 Mg42 1.986 1_455 S
O49 C53 1.246 . S
O50 Mg45 2.032 . S
O50 C53 1.259 . S
O51 Mg42 2.114 1_565 S
O51 C54 1.252 1_655 S
O52 Mg42 2.251 1_465 S
O52 Mg45 2.079 1_565 S
O52 C54 1.273 . S
C53 O49 1.246 . S
C53 O50 1.259 . S
C54 O51 1.252 1_455 S
C54 O52 1.273 . S
O55 Mg42 2.010 . S
O55 C47 1.249 . S
H56 C74 0.951 . S
H57 C76 0.951 . S
H58 C78 0.950 . S
H59 C79 0.950 . S
H60 C81 0.950 . S
H61 C84 0.950 1_545 S
H62 C85 0.950 . S
H63 C87 0.950 . S
H64 C88 0.950 . S
H65 C89 0.951 . S
H66 C91 0.951 . S
H67 C93 0.950 . S
H68 C94 0.950 . S
H69 C96 0.950 . S
H70 C99 0.950 . S
H71 C100 0.950 . S
H72 C102 0.950 . S
H73 C103 0.950 . S
C74 H56 0.951 . S
C74 C75 1.366 1_565 S
C74 C76 1.388 . S
C75 C74 1.366 1_545 S
C75 C79 1.385 . S
C76 H57 0.951 . S
C76 C74 1.388 . S
C76 C77 1.366 1_565 S
C77 C76 1.366 1_545 S
C77 C78 1.414 . S
C77 C80 1.499 . S
C78 H58 0.950 . S
C78 C77 1.414 . S
C78 C79 1.374 . S
C79 H59 0.950 . S
C79 C75 1.385 . S
C79 C78 1.374 . S
C80 C77 1.499 . S
C80 C81 1.373 . S
C80 C82 1.389 1_545 S
C81 H60 0.950 . S
C81 C80 1.373 . S
C81 C97 1.377 . S
C82 C80 1.389 1_565 S
C82 C83 1.524 . S
C82 C96 1.377 . S
C83 C82 1.524 . S
C83 C84 1.397 . S
C83 C88 1.363 . S
C84 H61 0.950 1_565 S
C84 C83 1.397 . S
C84 C85 1.334 . S
C85 H62 0.950 . S
C85 C84 1.334 . S
C85 C86 1.287 . S
C86 C85 1.287 . S
C86 C87 1.524 . S
C86 H105 0.913 . S
C87 H63 0.950 . S
C87 C86 1.524 . S
C87 C88 1.415 . S
C88 H64 0.950 . S
C88 C83 1.363 . S
C88 C87 1.415 . S
C89 H65 0.951 . S
C89 C90 1.366 . S
C89 C91 1.388 . S
C90 C89 1.366 . S
C90 C94 1.385 1_545 S
C91 H66 0.951 . S
C91 C89 1.388 . S
C91 C92 1.366 . S
C92 C91 1.366 . S
C92 C93 1.414 1_545 S
C92 C95 1.499 . S
C93 H67 0.950 . S
C93 C92 1.414 1_565 S
C93 C94 1.374 . S
C94 H68 0.950 . S
C94 C90 1.385 1_565 S
C94 C93 1.374 . S
C95 C92 1.499 . S
C95 C96 1.373 1_545 S
C95 C97 1.389 . S
C96 H69 0.950 . S
C96 C82 1.377 . S
C96 C95 1.373 1_565 S
C97 C81 1.377 . S
C97 C95 1.389 . S
C97 C98 1.524 . S
C98 C97 1.524 . S
C98 C99 1.397 . S
C98 C103 1.363 . S
C99 H70 0.950 . S
C99 C98 1.397 . S
C99 C100 1.334 . S
C100 H71 0.950 . S
C100 C99 1.334 . S
C100 C101 1.287 . S
C101 C100 1.287 . S
C101 C102 1.524 . S
C101 H104 0.999 . S
C102 H72 0.950 . S
C102 C101 1.524 . S
C102 C103 1.415 . S
C103 H73 0.950 . S
C103 C98 1.363 . S
C103 C102 1.415 . S
H104 C101 0.999 . S
H105 C86 0.913 . S
H106 C124 0.951 . S
H107 C126 0.951 . S
H108 C128 0.971 . S
H109 C129 0.950 1_655 S
H110 C131 0.950 . S
H111 C134 0.950 1_655 S
H112 C135 0.937 1_655 S
H113 C137 0.950 . S
H114 C138 0.950 . S
H115 C139 0.951 . S
H116 C141 0.951 . S
H117 C143 0.950 . S
H118 C144 0.950 . S
H119 C146 0.950 . S
H120 C149 0.950 . S
H121 C150 0.950 . S
H122 C152 0.950 . S
H123 C153 0.950 . S
C124 H106 0.951 . S
C124 C125 1.366 . S
C124 C126 1.388 . S
C125 C124 1.366 . S
C125 C129 1.385 . S
C126 H107 0.951 . S
C126 C124 1.388 . S
C126 C127 1.366 . S
C127 C126 1.366 . S
C127 C128 1.397 1_455 S
C127 C130 1.499 . S
C128 H108 0.971 . S
C128 C127 1.397 1_655 S
C128 C129 1.371 1_655 S
C129 H109 0.950 1_455 S
C129 C125 1.385 . S
C129 C128 1.371 1_455 S
C130 C127 1.499 . S
C130 C131 1.373 . S
C130 C132 1.389 . S
C131 H110 0.950 . S
C131 C130 1.373 . S
C131 C147 1.377 . S
C132 C130 1.389 . S
C132 C133 1.524 . S
C132 C146 1.377 . S
C133 C132 1.524 . S
C133 C134 1.397 . S
C133 C138 1.363 . S
C134 H111 0.950 1_455 S
C134 C133 1.397 . S
C134 C135 1.334 . S
C135 H112 0.937 1_455 S
C135 C134 1.334 . S
C135 C136 1.287 . S
C136 C135 1.287 . S
C136 C137 1.524 . S
C136 H155 0.913 . S
C137 H113 0.950 . S
C137 C136 1.524 . S
C137 C138 1.415 . S
C138 H114 0.950 . S
C138 C133 1.363 . S
C138 C137 1.415 . S
C139 H115 0.951 . S
C139 C140 1.366 1_655 S
C139 C141 1.388 . S
C140 C139 1.366 1_455 S
C140 C144 1.385 . S
C141 H116 0.951 . S
C141 C139 1.388 . S
C141 C142 1.366 1_655 S
C142 C141 1.366 1_455 S
C142 C143 1.414 . S
C142 C145 1.499 . S
C143 H117 0.950 . S
C143 C142 1.414 . S
C143 C144 1.374 . S
C144 H118 0.950 . S
C144 C140 1.385 . S
C144 C143 1.374 . S
C145 C142 1.499 . S
C145 C146 1.373 . S
C145 C147 1.389 . S
C146 H119 0.950 . S
C146 C132 1.377 . S
C146 C145 1.373 . S
C147 C131 1.377 . S
C147 C145 1.389 . S
C147 C148 1.524 . S
C148 C147 1.524 . S
C148 C149 1.397 . S
C148 C153 1.363 1_455 S
C149 H120 0.950 . S
C149 C148 1.397 . S
C149 C150 1.334 . S
C150 H121 0.950 . S
C150 C149 1.334 . S
C150 C151 1.287 . S
C151 C150 1.287 . S
C151 C152 1.524 1_455 S
C151 H154 0.999 . S
C152 H122 0.950 . S
C152 C151 1.524 1_655 S
C152 C153 1.415 . S
C153 H123 0.950 . S
C153 C148 1.363 1_655 S
C153 C152 1.415 . S
H154 C151 0.999 . S
H155 C136 0.913 . S
H156 C174 0.951 . S
H157 C176 0.951 . S
H158 C178 0.950 . S
H159 C179 0.950 . S
H160 C181 0.950 . S
H161 C184 0.950 1_565 S
H162 C185 0.950 . S
H163 C187 0.950 . S
H164 C188 0.950 . S
H165 C189 0.951 . S
H166 C191 0.951 . S
H167 C193 0.950 . S
H168 C194 0.950 . S
H169 C196 0.950 . S
H170 C199 0.950 . S
H171 C200 0.950 1_545 S
H172 C202 0.950 . S
H173 C203 0.950 . S
C174 H156 0.951 . S
C174 C175 1.366 . S
C174 C176 1.388 . S
C175 C174 1.366 . S
C175 C179 1.385 1_545 S
C176 H157 0.951 . S
C176 C174 1.388 . S
C176 C177 1.366 . S
C177 C176 1.366 . S
C177 C178 1.414 1_545 S
C177 C180 1.499 . S
C178 H158 0.950 . S
C178 C177 1.414 1_565 S
C178 C179 1.374 . S
C179 H159 0.950 . S
C179 C175 1.385 1_565 S
C179 C178 1.374 . S
C180 C177 1.499 . S
C180 C181 1.373 1_545 S
C180 C182 1.389 . S
C181 H160 0.950 . S
C181 C180 1.373 1_565 S
C181 C197 1.377 . S
C182 C180 1.389 . S
C182 C183 1.524 . S
C182 C196 1.377 . S
C183 C182 1.524 . S
C183 C184 1.397 . S
C183 C188 1.363 . S
C184 H161 0.950 1_545 S
C184 C183 1.397 . S
C184 C185 1.334 . S
C185 H162 0.950 . S
C185 C184 1.334 . S
C185 C186 1.287 . S
C186 C185 1.287 . S
C186 C187 1.524 . S
C186 H205 0.913 . S
C187 H163 0.950 . S
C187 C186 1.524 . S
C187 C188 1.415 . S
C188 H164 0.950 . S
C188 C183 1.363 . S
C188 C187 1.415 . S
C189 H165 0.951 . S
C189 C190 1.366 1_565 S
C189 C191 1.388 . S
C190 C189 1.366 1_545 S
C190 C194 1.385 . S
C191 H166 0.951 . S
C191 C189 1.388 . S
C191 C192 1.366 1_565 S
C192 C191 1.366 1_545 S
C192 C193 1.414 . S
C192 C195 1.499 . S
C193 H167 0.950 . S
C193 C192 1.414 . S
C193 C194 1.374 . S
C194 H168 0.950 . S
C194 C190 1.385 . S
C194 C193 1.374 . S
C195 C192 1.499 . S
C195 C196 1.373 . S
C195 C197 1.389 1_545 S
C196 H169 0.950 . S
C196 C182 1.377 . S
C196 C195 1.373 . S
C197 C181 1.377 . S
C197 C195 1.389 1_565 S
C197 C198 1.524 . S
C198 C197 1.524 . S
C198 C199 1.397 1_565 S
C198 C203 1.363 . S
C199 H170 0.950 . S
C199 C198 1.397 1_545 S
C199 C200 1.334 1_545 S
C200 H171 0.950 1_565 S
C200 C199 1.334 1_565 S
C200 C201 1.287 . S
C201 C200 1.287 . S
C201 C202 1.524 . S
C201 H204 0.999 . S
C202 H172 0.950 . S
C202 C201 1.524 . S
C202 C203 1.415 . S
C203 H173 0.950 . S
C203 C198 1.363 . S
C203 C202 1.415 . S
H204 C201 0.999 . S
H205 C186 0.913 . S
H206 C224 0.951 . S
H207 C226 0.951 . S
H208 C228 0.950 1_655 S
H209 C229 0.950 1_655 S
H210 C231 0.950 . S
H211 C234 0.950 . S
H212 C235 0.950 . S
H213 C237 0.950 . S
H214 C238 0.950 . S
H215 C239 0.951 . S
H216 C241 0.964 . S
H217 C243 0.950 . S
H218 C244 0.950 . S
H219 C246 0.950 . S
H220 C249 0.950 . S
H221 C250 0.950 . S
H222 C252 0.950 . S
H223 C253 0.950 . S
C224 H206 0.951 . S
C224 C225 1.366 . S
C224 C226 1.388 . S
C225 C224 1.366 . S
C225 C229 1.385 . S
C226 H207 0.951 . S
C226 C224 1.388 . S
C226 C227 1.366 . S
C227 C226 1.366 . S
C227 C228 1.414 . S
C227 C230 1.499 . S
C228 H208 0.950 1_455 S
C228 C227 1.414 . S
C228 C229 1.374 . S
C229 H209 0.950 1_455 S
C229 C225 1.385 . S
C229 C228 1.374 . S
C230 C227 1.499 . S
C230 C231 1.373 1_455 S
C230 C232 1.389 . S
C231 H210 0.950 . S
C231 C230 1.373 1_655 S
C231 C247 1.377 . S
C232 C230 1.389 . S
C232 C233 1.524 . S
C232 C246 1.377 . S
C233 C232 1.524 . S
C233 C234 1.397 . S
C233 C238 1.363 . S
C234 H211 0.950 . S
C234 C233 1.397 . S
C234 C235 1.334 . S
C235 H212 0.950 . S
C235 C234 1.334 . S
C235 C236 1.287 . S
C236 C235 1.287 . S
C236 C237 1.524 . S
C236 H255 0.913 . S
C237 H213 0.950 . S
C237 C236 1.524 . S
C237 C238 1.415 . S
C238 H214 0.950 . S
C238 C233 1.363 . S
C238 C237 1.415 . S
C239 H215 0.951 . S
C239 C240 1.366 1_655 S
C239 C241 1.390 . S
C240 C239 1.366 1_455 S
C240 C244 1.385 . S
C241 H216 0.964 . S
C241 C239 1.390 . S
C241 C242 1.351 1_655 S
C242 C241 1.351 1_455 S
C242 C243 1.414 . S
C242 C245 1.499 . S
C243 H217 0.950 . S
C243 C242 1.414 . S
C243 C244 1.374 . S
C244 H218 0.950 . S
C244 C240 1.385 . S
C244 C243 1.374 . S
C245 C242 1.499 . S
C245 C246 1.373 . S
C245 C247 1.389 1_455 S
C246 H219 0.950 . S
C246 C232 1.377 . S
C246 C245 1.373 . S
C247 C231 1.377 . S
C247 C245 1.389 1_655 S
C247 C248 1.524 . S
C248 C247 1.524 . S
C248 C249 1.397 . S
C248 C253 1.363 . S
C249 H220 0.950 . S
C249 C248 1.397 . S
C249 C250 1.334 . S
C250 H221 0.950 . S
C250 C249 1.334 . S
C250 C251 1.287 . S
C251 C250 1.287 . S
C251 C252 1.524 . S
C251 H254 0.999 . S
C252 H222 0.950 . S
C252 C251 1.524 . S
C252 C253 1.415 . S
C253 H223 0.950 . S
C253 C248 1.363 . S
C253 C252 1.415 . S
H254 C251 0.999 . S
H255 C236 0.913 . S
H256 C274 0.951 . S
H257 C276 0.951 . S
H258 C278 0.950 . S
H259 C279 0.950 . S
H260 C281 0.950 . S
H261 C284 0.950 . S
H262 C285 0.950 . S
H263 C287 0.950 . S
H264 C288 0.950 . S
H265 C289 0.951 . S
H266 C291 0.951 . S
H267 C293 0.950 . S
H268 C294 0.950 . S
H269 C296 0.950 . S
H270 C299 0.950 . S
H271 C300 0.950 . S
H272 C302 0.950 . S
H273 C303 0.950 . S
C274 H256 0.951 . S
C274 C275 1.366 . S
C274 C276 1.388 . S
C275 C274 1.366 . S
C275 C279 1.385 1_545 S
C276 H257 0.951 . S
C276 C274 1.388 . S
C276 C277 1.366 . S
C277 C276 1.366 . S
C277 C278 1.414 1_545 S
C277 C280 1.499 . S
C278 H258 0.950 . S
C278 C277 1.414 1_565 S
C278 C279 1.374 . S
C279 H259 0.950 . S
C279 C275 1.385 1_565 S
C279 C278 1.374 . S
C280 C277 1.499 . S
C280 C281 1.373 1_545 S
C280 C282 1.389 . S
C281 H260 0.950 . S
C281 C280 1.373 1_565 S
C281 C297 1.377 . S
C282 C280 1.389 . S
C282 C283 1.524 . S
C282 C296 1.377 . S
C283 C282 1.524 . S
C283 C284 1.397 . S
C283 C288 1.363 . S
C284 H261 0.950 . S
C284 C283 1.397 . S
C284 C285 1.334 . S
C285 H262 0.950 . S
C285 C284 1.334 . S
C285 C286 1.287 . S
C286 C285 1.287 . S
C286 C287 1.524 . S
C286 H305 0.913 . S
C287 H263 0.950 . S
C287 C286 1.524 . S
C287 C288 1.415 . S
C288 H264 0.950 . S
C288 C283 1.363 . S
C288 C287 1.415 . S
C289 H265 0.951 . S
C289 C290 1.366 1_565 S
C289 C291 1.388 . S
C290 C289 1.366 1_545 S
C290 C294 1.385 . S
C291 H266 0.951 . S
C291 C289 1.388 . S
C291 C292 1.366 1_565 S
C292 C291 1.366 1_545 S
C292 C293 1.414 . S
C292 C295 1.499 . S
C293 H267 0.950 . S
C293 C292 1.414 . S
C293 C294 1.374 . S
C294 H268 0.950 . S
C294 C290 1.385 . S
C294 C293 1.374 . S
C295 C292 1.499 . S
C295 C296 1.373 . S
C295 C297 1.389 1_545 S
C296 H269 0.950 . S
C296 C282 1.377 . S
C296 C295 1.373 . S
C297 C281 1.377 . S
C297 C295 1.389 1_565 S
C297 C298 1.524 . S
C298 C297 1.524 . S
C298 C299 1.397 . S
C298 C303 1.363 . S
C299 H270 0.950 . S
C299 C298 1.397 . S
C299 C300 1.334 . S
C300 H271 0.950 . S
C300 C299 1.334 . S
C300 C301 1.287 . S
C301 C300 1.287 . S
C301 C302 1.524 . S
C301 H304 0.999 . S
C302 H272 0.950 . S
C302 C301 1.524 . S
C302 C303 1.415 . S
C303 H273 0.950 . S
C303 C298 1.363 . S
C303 C302 1.415 . S
H304 C301 0.999 . S
H305 C286 0.913 . S
H306 C324 0.931 1_655 S
H307 C326 0.951 . S
H308 C328 0.950 . S
H309 C329 0.950 . S
H310 C331 0.950 . S
H311 C334 0.950 . S
H312 C335 0.950 . S
H313 C337 0.950 . S
H314 C338 0.950 . S
H315 C339 0.951 . S
H316 C341 0.951 . S
H317 C343 0.950 . S
H318 C344 0.950 . S
H319 C346 0.950 . S
H320 C349 0.950 . S
H321 C350 0.950 1_655 S
H322 C352 0.950 . S
H323 C353 0.950 . S
C324 H306 0.931 1_455 S
C324 C325 1.366 . S
C324 C326 1.388 . S
C325 C324 1.366 . S
C325 C329 1.385 . S
C326 H307 0.951 . S
C326 C324 1.388 . S
C326 C327 1.366 . S
C327 C326 1.366 . S
C327 C328 1.414 . S
C327 C330 1.499 . S
C328 H308 0.950 . S
C328 C327 1.414 . S
C328 C329 1.374 . S
C329 H309 0.950 . S
C329 C325 1.385 . S
C329 C328 1.374 . S
C330 C327 1.499 . S
C330 C331 1.373 . S
C330 C332 1.389 . S
C331 H310 0.950 . S
C331 C330 1.373 . S
C331 C347 1.377 . S
C332 C330 1.389 . S
C332 C333 1.524 . S
C332 C346 1.377 . S
C333 C332 1.524 . S
C333 C334 1.397 . S
C333 C338 1.363 . S
C334 H311 0.950 . S
C334 C333 1.397 . S
C334 C335 1.334 . S
C335 H312 0.950 . S
C335 C334 1.334 . S
C335 C336 1.287 . S
C336 C335 1.287 . S
C336 C337 1.524 . S
C336 H355 0.913 . S
C337 H313 0.950 . S
C337 C336 1.524 . S
C337 C338 1.415 . S
C338 H314 0.950 . S
C338 C333 1.363 . S
C338 C337 1.415 . S
C339 H315 0.951 . S
C339 C340 1.366 . S
C339 C341 1.388 . S
C340 C339 1.366 . S
C340 C344 1.385 . S
C341 H316 0.951 . S
C341 C339 1.388 . S
C341 C342 1.366 . S
C342 C341 1.366 . S
C342 C343 1.414 . S
C342 C345 1.499 . S
C343 H317 0.950 . S
C343 C342 1.414 . S
C343 C344 1.374 . S
C344 H318 0.950 . S
C344 C340 1.385 . S
C344 C343 1.374 . S
C345 C342 1.499 . S
C345 C346 1.373 . S
C345 C347 1.389 . S
C346 H319 0.950 . S
C346 C332 1.377 . S
C346 C345 1.373 . S
C347 C331 1.377 . S
C347 C345 1.389 . S
C347 C348 1.524 . S
C348 C347 1.524 . S
C348 C349 1.397 . S
C348 C353 1.363 . S
C349 H320 0.950 . S
C349 C348 1.397 . S
C349 C350 1.334 . S
C350 H321 0.950 1_455 S
C350 C349 1.334 . S
C350 C351 1.287 . S
C351 C350 1.287 . S
C351 C352 1.524 . S
C351 H354 0.999 . S
C352 H322 0.950 . S
C352 C351 1.524 . S
C352 C353 1.415 . S
C353 H323 0.950 . S
C353 C348 1.363 . S
C353 C352 1.415 . S
H354 C351 0.999 . S
H355 C336 0.913 . S
H356 C374 0.951 . S
H357 C376 0.951 . S
H358 C378 0.950 . S
H359 C379 0.949 1_565 S
H360 C381 0.950 . S
H361 C384 0.950 . S
H362 C385 0.950 . S
H363 C387 0.950 . S
H364 C388 0.950 . S
H365 C389 0.951 . S
H366 C391 0.951 . S
H367 C393 0.950 . S
H368 C394 0.950 . S
H369 C396 0.950 . S
H370 C399 0.950 . S
H371 C400 0.950 . S
H372 C402 0.950 . S
H373 C403 0.950 . S
C374 H356 0.951 . S
C374 C375 1.366 . S
C374 C376 1.388 . S
C375 C374 1.366 . S
C375 C379 1.385 . S
C376 H357 0.951 . S
C376 C374 1.388 . S
C376 C377 1.366 . S
C377 C376 1.366 . S
C377 C378 1.414 . S
C377 C380 1.499 . S
C378 H358 0.950 . S
C378 C377 1.414 . S
C378 C379 1.374 . S
C379 H359 0.949 1_545 S
C379 C375 1.385 . S
C379 C378 1.374 . S
C380 C377 1.499 . S
C380 C381 1.373 . S
C380 C382 1.389 1_545 S
C381 H360 0.950 . S
C381 C380 1.373 . S
C381 C397 1.377 . S
C382 C380 1.389 1_565 S
C382 C383 1.524 . S
C382 C396 1.377 . S
C383 C382 1.524 . S
C383 C384 1.397 . S
C383 C388 1.363 . S
C384 H361 0.950 . S
C384 C383 1.397 . S
C384 C385 1.334 . S
C385 H362 0.950 . S
C385 C384 1.334 . S
C385 C386 1.287 . S
C386 C385 1.287 . S
C386 C387 1.524 . S
C386 H405 0.913 . S
C387 H363 0.950 . S
C387 C386 1.524 . S
C387 C388 1.415 . S
C388 H364 0.950 . S
C388 C383 1.363 . S
C388 C387 1.415 . S
C389 H365 0.951 . S
C389 C390 1.366 . S
C389 C391 1.388 . S
C390 C389 1.366 . S
C390 C394 1.385 . S
C391 H366 0.951 . S
C391 C389 1.388 . S
C391 C392 1.366 . S
C392 C391 1.366 . S
C392 C393 1.414 . S
C392 C395 1.499 . S
C393 H367 0.950 . S
C393 C392 1.414 . S
C393 C394 1.374 . S
C394 H368 0.950 . S
C394 C390 1.385 . S
C394 C393 1.374 . S
C395 C392 1.499 . S
C395 C396 1.373 1_545 S
C395 C397 1.389 . S
C396 H369 0.950 . S
C396 C382 1.377 . S
C396 C395 1.373 1_565 S
C397 C381 1.377 . S
C397 C395 1.389 . S
C397 C398 1.524 . S
C398 C397 1.524 . S
C398 C399 1.397 . S
C398 C403 1.363 . S
C399 H370 0.950 . S
C399 C398 1.397 . S
C399 C400 1.334 . S
C400 H371 0.950 . S
C400 C399 1.334 . S
C400 C401 1.287 . S
C401 C400 1.287 . S
C401 C402 1.524 . S
C401 H404 0.999 . S
C402 H372 0.950 . S
C402 C401 1.524 . S
C402 C403 1.415 . S
C403 H373 0.950 . S
C403 C398 1.363 . S
C403 C402 1.415 . S
H404 C401 0.999 . S
H405 C386 0.913 . S
H406 C424 0.951 . S
H407 C426 0.951 . S
H408 C428 0.950 . S
H409 C429 0.950 . S
H410 C431 0.950 1_655 S
H411 C434 0.950 . S
H412 C435 0.950 . S
H413 C437 0.950 . S
H414 C438 0.950 . S
H415 C439 0.951 . S
H416 C441 0.951 . S
H417 C443 0.950 . S
H418 C444 0.950 . S
H419 C446 0.950 . S
H420 C449 0.950 . S
H421 C450 0.950 . S
H422 C452 0.950 . S
H423 C453 0.950 . S
C424 H406 0.951 . S
C424 C425 1.366 . S
C424 C426 1.388 . S
C425 C424 1.366 . S
C425 C429 1.385 . S
C426 H407 0.951 . S
C426 C424 1.388 . S
C426 C427 1.366 . S
C427 C426 1.366 . S
C427 C428 1.414 . S
C427 C430 1.499 . S
C428 H408 0.950 . S
C428 C427 1.414 . S
C428 C429 1.374 . S
C429 H409 0.950 . S
C429 C425 1.385 . S
C429 C428 1.374 . S
C430 C427 1.499 . S
C430 C431 1.373 . S
C430 C432 1.389 . S
C431 H410 0.950 1_455 S
C431 C430 1.373 . S
C431 C447 1.377 . S
C432 C430 1.389 . S
C432 C433 1.524 . S
C432 C446 1.377 . S
C433 C432 1.524 . S
C433 C434 1.397 . S
C433 C438 1.363 . S
C434 H411 0.950 . S
C434 C433 1.397 . S
C434 C435 1.334 . S
C435 H412 0.950 . S
C435 C434 1.334 . S
C435 C436 1.287 . S
C436 C435 1.287 . S
C436 C437 1.524 . S
C436 H455 0.913 . S
C437 H413 0.950 . S
C437 C436 1.524 . S
C437 C438 1.415 . S
C438 H414 0.950 . S
C438 C433 1.363 . S
C438 C437 1.415 . S
C439 H415 0.951 . S
C439 C440 1.366 . S
C439 C441 1.388 . S
C440 C439 1.366 . S
C440 C444 1.385 . S
C441 H416 0.951 . S
C441 C439 1.388 . S
C441 C442 1.366 . S
C442 C441 1.366 . S
C442 C443 1.414 . S
C442 C445 1.499 . S
C443 H417 0.950 . S
C443 C442 1.414 . S
C443 C444 1.374 . S
C444 H418 0.950 . S
C444 C440 1.385 . S
C444 C443 1.374 . S
C445 C442 1.499 . S
C445 C446 1.373 . S
C445 C447 1.389 . S
C446 H419 0.950 . S
C446 C432 1.377 . S
C446 C445 1.373 . S
C447 C431 1.377 . S
C447 C445 1.389 . S
C447 C448 1.524 1_455 S
C448 C447 1.524 1_655 S
C448 C449 1.397 . S
C448 C453 1.363 . S
C449 H420 0.950 . S
C449 C448 1.397 . S
C449 C450 1.334 . S
C450 H421 0.950 . S
C450 C449 1.334 . S
C450 C451 1.287 . S
C451 C450 1.287 . S
C451 C452 1.524 . S
C451 H454 0.999 . S
C452 H422 0.950 . S
C452 C451 1.524 . S
C452 C453 1.415 . S
C453 H423 0.950 . S
C453 C448 1.363 . S
C453 C452 1.415 . S
H454 C451 0.999 . S
H455 C436 0.913 . S
C90 C33 1.244 . S
C75 C13 1.454 . S
C140 C53 1.423 . S
C125 C15 1.454 . S
C190 C32 1.438 1_655 S
C175 C1 1.470 . S
C240 C54 1.471 . S
C225 C27 1.471 . S
C290 C46 1.438 . S
C275 C0 1.470 . S
C340 C39 1.423 . S
C325 C26 1.454 . S
C390 C47 1.242 . S
C375 C12 1.454 . S
C425 C14 1.471 . S
C440 C40 1.470 . S
