# Generated by pormake.
# Topology gar, (4,6)-cn, num edge types: 1
# Building blocks:
#     Node 0, Type 0, BuildingBlock: KUFVIS_clean_sbu_0, # of connection points: 4
#     Node 1, Type 0, BuildingBlock: KUFVIS_clean_sbu_0, # of connection points: 4
#     Node 2, Type 0, BuildingBlock: KUFVIS_clean_sbu_0, # of connection points: 4
#     Node 3, Type 0, BuildingBlock: KUFVIS_clean_sbu_0, # of connection points: 4
#     Node 4, Type 0, BuildingBlock: KUFVIS_clean_sbu_0, # of connection points: 4
#     Node 5, Type 0, BuildingBlock: KUFVIS_clean_sbu_0, # of connection points: 4
#     Node 6, Type 0, BuildingBlock: KUFVIS_clean_sbu_0, # of connection points: 4
#     Node 7, Type 0, BuildingBlock: KUFVIS_clean_sbu_0, # of connection points: 4
#     Node 8, Type 0, BuildingBlock: KUFVIS_clean_sbu_0, # of connection points: 4
#     Node 9, Type 0, BuildingBlock: KUFVIS_clean_sbu_0, # of connection points: 4
#     Node 10, Type 0, BuildingBlock: KUFVIS_clean_sbu_0, # of connection points: 4
#     Node 11, Type 0, BuildingBlock: KUFVIS_clean_sbu_0, # of connection points: 4
#     Node 12, Type 0, BuildingBlock: KUFVIS_clean_sbu_0, # of connection points: 4
#     Node 13, Type 0, BuildingBlock: KUFVIS_clean_sbu_0, # of connection points: 4
#     Node 14, Type 0, BuildingBlock: KUFVIS_clean_sbu_0, # of connection points: 4
#     Node 15, Type 0, BuildingBlock: KUFVIS_clean_sbu_0, # of connection points: 4
#     Node 16, Type 0, BuildingBlock: KUFVIS_clean_sbu_0, # of connection points: 4
#     Node 17, Type 0, BuildingBlock: KUFVIS_clean_sbu_0, # of connection points: 4
#     Node 18, Type 0, BuildingBlock: KUFVIS_clean_sbu_0, # of connection points: 4
#     Node 19, Type 0, BuildingBlock: KUFVIS_clean_sbu_0, # of connection points: 4
#     Node 20, Type 0, BuildingBlock: KUFVIS_clean_sbu_0, # of connection points: 4
#     Node 21, Type 0, BuildingBlock: KUFVIS_clean_sbu_0, # of connection points: 4
#     Node 22, Type 0, BuildingBlock: KUFVIS_clean_sbu_0, # of connection points: 4
#     Node 23, Type 0, BuildingBlock: KUFVIS_clean_sbu_0, # of connection points: 4
#     Node 24, Type 1, BuildingBlock: KUMBUR_clean_sbu_0, # of connection points: 6
#     Node 25, Type 1, BuildingBlock: KUMBUR_clean_sbu_0, # of connection points: 6
#     Node 26, Type 1, BuildingBlock: KUMBUR_clean_sbu_0, # of connection points: 6
#     Node 27, Type 1, BuildingBlock: KUMBUR_clean_sbu_0, # of connection points: 6
#     Node 28, Type 1, BuildingBlock: KUMBUR_clean_sbu_0, # of connection points: 6
#     Node 29, Type 1, BuildingBlock: KUMBUR_clean_sbu_0, # of connection points: 6
#     Node 30, Type 1, BuildingBlock: KUMBUR_clean_sbu_0, # of connection points: 6
#     Node 31, Type 1, BuildingBlock: KUMBUR_clean_sbu_0, # of connection points: 6
#     Node 32, Type 1, BuildingBlock: KUMBUR_clean_sbu_0, # of connection points: 6
#     Node 33, Type 1, BuildingBlock: KUMBUR_clean_sbu_0, # of connection points: 6
#     Node 34, Type 1, BuildingBlock: KUMBUR_clean_sbu_0, # of connection points: 6
#     Node 35, Type 1, BuildingBlock: KUMBUR_clean_sbu_0, # of connection points: 6
#     Node 36, Type 1, BuildingBlock: KUMBUR_clean_sbu_0, # of connection points: 6
#     Node 37, Type 1, BuildingBlock: KUMBUR_clean_sbu_0, # of connection points: 6
#     Node 38, Type 1, BuildingBlock: KUMBUR_clean_sbu_0, # of connection points: 6
#     Node 39, Type 1, BuildingBlock: KUMBUR_clean_sbu_0, # of connection points: 6
#     Edge 40, Type (0, 1), BuildingBlock: MIFKUJ_clean_linker_0, # of connection points: 2
#     Edge 41, Type (0, 1), BuildingBlock: MIFKUJ_clean_linker_0, # of connection points: 2
#     Edge 42, Type (0, 1), BuildingBlock: MIFKUJ_clean_linker_0, # of connection points: 2
#     Edge 43, Type (0, 1), BuildingBlock: MIFKUJ_clean_linker_0, # of connection points: 2
#     Edge 44, Type (0, 1), BuildingBlock: MIFKUJ_clean_linker_0, # of connection points: 2
#     Edge 45, Type (0, 1), BuildingBlock: MIFKUJ_clean_linker_0, # of connection points: 2
#     Edge 46, Type (0, 1), BuildingBlock: MIFKUJ_clean_linker_0, # of connection points: 2
#     Edge 47, Type (0, 1), BuildingBlock: MIFKUJ_clean_linker_0, # of connection points: 2
#     Edge 48, Type (0, 1), BuildingBlock: MIFKUJ_clean_linker_0, # of connection points: 2
#     Edge 49, Type (0, 1), BuildingBlock: MIFKUJ_clean_linker_0, # of connection points: 2
#     Edge 50, Type (0, 1), BuildingBlock: MIFKUJ_clean_linker_0, # of connection points: 2
#     Edge 51, Type (0, 1), BuildingBlock: MIFKUJ_clean_linker_0, # of connection points: 2
#     Edge 52, Type (0, 1), BuildingBlock: MIFKUJ_clean_linker_0, # of connection points: 2
#     Edge 53, Type (0, 1), BuildingBlock: MIFKUJ_clean_linker_0, # of connection points: 2
#     Edge 54, Type (0, 1), BuildingBlock: MIFKUJ_clean_linker_0, # of connection points: 2
#     Edge 55, Type (0, 1), BuildingBlock: MIFKUJ_clean_linker_0, # of connection points: 2
#     Edge 56, Type (0, 1), BuildingBlock: MIFKUJ_clean_linker_0, # of connection points: 2
#     Edge 57, Type (0, 1), BuildingBlock: MIFKUJ_clean_linker_0, # of connection points: 2
#     Edge 58, Type (0, 1), BuildingBlock: MIFKUJ_clean_linker_0, # of connection points: 2
#     Edge 59, Type (0, 1), BuildingBlock: MIFKUJ_clean_linker_0, # of connection points: 2
#     Edge 60, Type (0, 1), BuildingBlock: MIFKUJ_clean_linker_0, # of connection points: 2
#     Edge 61, Type (0, 1), BuildingBlock: MIFKUJ_clean_linker_0, # of connection points: 2
#     Edge 62, Type (0, 1), BuildingBlock: MIFKUJ_clean_linker_0, # of connection points: 2
#     Edge 63, Type (0, 1), BuildingBlock: MIFKUJ_clean_linker_0, # of connection points: 2
#     Edge 64, Type (0, 1), BuildingBlock: MIFKUJ_clean_linker_0, # of connection points: 2
#     Edge 65, Type (0, 1), BuildingBlock: MIFKUJ_clean_linker_0, # of connection points: 2
#     Edge 66, Type (0, 1), BuildingBlock: MIFKUJ_clean_linker_0, # of connection points: 2
#     Edge 67, Type (0, 1), BuildingBlock: MIFKUJ_clean_linker_0, # of connection points: 2
#     Edge 68, Type (0, 1), BuildingBlock: MIFKUJ_clean_linker_0, # of connection points: 2
#     Edge 69, Type (0, 1), BuildingBlock: MIFKUJ_clean_linker_0, # of connection points: 2
#     Edge 70, Type (0, 1), BuildingBlock: MIFKUJ_clean_linker_0, # of connection points: 2
#     Edge 71, Type (0, 1), BuildingBlock: MIFKUJ_clean_linker_0, # of connection points: 2
#     Edge 72, Type (0, 1), BuildingBlock: MIFKUJ_clean_linker_0, # of connection points: 2
#     Edge 73, Type (0, 1), BuildingBlock: MIFKUJ_clean_linker_0, # of connection points: 2
#     Edge 74, Type (0, 1), BuildingBlock: MIFKUJ_clean_linker_0, # of connection points: 2
#     Edge 75, Type (0, 1), BuildingBlock: MIFKUJ_clean_linker_0, # of connection points: 2
#     Edge 76, Type (0, 1), BuildingBlock: MIFKUJ_clean_linker_0, # of connection points: 2
#     Edge 77, Type (0, 1), BuildingBlock: MIFKUJ_clean_linker_0, # of connection points: 2
#     Edge 78, Type (0, 1), BuildingBlock: MIFKUJ_clean_linker_0, # of connection points: 2
#     Edge 79, Type (0, 1), BuildingBlock: MIFKUJ_clean_linker_0, # of connection points: 2
#     Edge 80, Type (0, 1), BuildingBlock: MIFKUJ_clean_linker_0, # of connection points: 2
#     Edge 81, Type (0, 1), BuildingBlock: MIFKUJ_clean_linker_0, # of connection points: 2
#     Edge 82, Type (0, 1), BuildingBlock: MIFKUJ_clean_linker_0, # of connection points: 2
#     Edge 83, Type (0, 1), BuildingBlock: MIFKUJ_clean_linker_0, # of connection points: 2
#     Edge 84, Type (0, 1), BuildingBlock: MIFKUJ_clean_linker_0, # of connection points: 2
#     Edge 85, Type (0, 1), BuildingBlock: MIFKUJ_clean_linker_0, # of connection points: 2
#     Edge 86, Type (0, 1), BuildingBlock: MIFKUJ_clean_linker_0, # of connection points: 2
#     Edge 87, Type (0, 1), BuildingBlock: MIFKUJ_clean_linker_0, # of connection points: 2
#     Edge 88, Type (0, 1), BuildingBlock: MIFKUJ_clean_linker_0, # of connection points: 2
#     Edge 89, Type (0, 1), BuildingBlock: MIFKUJ_clean_linker_0, # of connection points: 2
#     Edge 90, Type (0, 1), BuildingBlock: MIFKUJ_clean_linker_0, # of connection points: 2
#     Edge 91, Type (0, 1), BuildingBlock: MIFKUJ_clean_linker_0, # of connection points: 2
#     Edge 92, Type (0, 1), BuildingBlock: MIFKUJ_clean_linker_0, # of connection points: 2
#     Edge 93, Type (0, 1), BuildingBlock: MIFKUJ_clean_linker_0, # of connection points: 2
#     Edge 94, Type (0, 1), BuildingBlock: MIFKUJ_clean_linker_0, # of connection points: 2
#     Edge 95, Type (0, 1), BuildingBlock: MIFKUJ_clean_linker_0, # of connection points: 2
#     Edge 96, Type (0, 1), BuildingBlock: MIFKUJ_clean_linker_0, # of connection points: 2
#     Edge 97, Type (0, 1), BuildingBlock: MIFKUJ_clean_linker_0, # of connection points: 2
#     Edge 98, Type (0, 1), BuildingBlock: MIFKUJ_clean_linker_0, # of connection points: 2
#     Edge 99, Type (0, 1), BuildingBlock: MIFKUJ_clean_linker_0, # of connection points: 2
#     Edge 100, Type (0, 1), BuildingBlock: MIFKUJ_clean_linker_0, # of connection points: 2
#     Edge 101, Type (0, 1), BuildingBlock: MIFKUJ_clean_linker_0, # of connection points: 2
#     Edge 102, Type (0, 1), BuildingBlock: MIFKUJ_clean_linker_0, # of connection points: 2
#     Edge 103, Type (0, 1), BuildingBlock: MIFKUJ_clean_linker_0, # of connection points: 2
#     Edge 104, Type (0, 1), BuildingBlock: MIFKUJ_clean_linker_0, # of connection points: 2
#     Edge 105, Type (0, 1), BuildingBlock: MIFKUJ_clean_linker_0, # of connection points: 2
#     Edge 106, Type (0, 1), BuildingBlock: MIFKUJ_clean_linker_0, # of connection points: 2
#     Edge 107, Type (0, 1), BuildingBlock: MIFKUJ_clean_linker_0, # of connection points: 2
#     Edge 108, Type (0, 1), BuildingBlock: MIFKUJ_clean_linker_0, # of connection points: 2
#     Edge 109, Type (0, 1), BuildingBlock: MIFKUJ_clean_linker_0, # of connection points: 2
#     Edge 110, Type (0, 1), BuildingBlock: MIFKUJ_clean_linker_0, # of connection points: 2
#     Edge 111, Type (0, 1), BuildingBlock: MIFKUJ_clean_linker_0, # of connection points: 2
#     Edge 112, Type (0, 1), BuildingBlock: MIFKUJ_clean_linker_0, # of connection points: 2
#     Edge 113, Type (0, 1), BuildingBlock: MIFKUJ_clean_linker_0, # of connection points: 2
#     Edge 114, Type (0, 1), BuildingBlock: MIFKUJ_clean_linker_0, # of connection points: 2
#     Edge 115, Type (0, 1), BuildingBlock: MIFKUJ_clean_linker_0, # of connection points: 2
#     Edge 116, Type (0, 1), BuildingBlock: MIFKUJ_clean_linker_0, # of connection points: 2
#     Edge 117, Type (0, 1), BuildingBlock: MIFKUJ_clean_linker_0, # of connection points: 2
#     Edge 118, Type (0, 1), BuildingBlock: MIFKUJ_clean_linker_0, # of connection points: 2
#     Edge 119, Type (0, 1), BuildingBlock: MIFKUJ_clean_linker_0, # of connection points: 2
#     Edge 120, Type (0, 1), BuildingBlock: MIFKUJ_clean_linker_0, # of connection points: 2
#     Edge 121, Type (0, 1), BuildingBlock: MIFKUJ_clean_linker_0, # of connection points: 2
#     Edge 122, Type (0, 1), BuildingBlock: MIFKUJ_clean_linker_0, # of connection points: 2
#     Edge 123, Type (0, 1), BuildingBlock: MIFKUJ_clean_linker_0, # of connection points: 2
#     Edge 124, Type (0, 1), BuildingBlock: MIFKUJ_clean_linker_0, # of connection points: 2
#     Edge 125, Type (0, 1), BuildingBlock: MIFKUJ_clean_linker_0, # of connection points: 2
#     Edge 126, Type (0, 1), BuildingBlock: MIFKUJ_clean_linker_0, # of connection points: 2
#     Edge 127, Type (0, 1), BuildingBlock: MIFKUJ_clean_linker_0, # of connection points: 2
#     Edge 128, Type (0, 1), BuildingBlock: MIFKUJ_clean_linker_0, # of connection points: 2
#     Edge 129, Type (0, 1), BuildingBlock: MIFKUJ_clean_linker_0, # of connection points: 2
#     Edge 130, Type (0, 1), BuildingBlock: MIFKUJ_clean_linker_0, # of connection points: 2
#     Edge 131, Type (0, 1), BuildingBlock: MIFKUJ_clean_linker_0, # of connection points: 2
#     Edge 132, Type (0, 1), BuildingBlock: MIFKUJ_clean_linker_0, # of connection points: 2
#     Edge 133, Type (0, 1), BuildingBlock: MIFKUJ_clean_linker_0, # of connection points: 2
#     Edge 134, Type (0, 1), BuildingBlock: MIFKUJ_clean_linker_0, # of connection points: 2
#     Edge 135, Type (0, 1), BuildingBlock: MIFKUJ_clean_linker_0, # of connection points: 2
# Relax obj value: 0.113
# Max RMSD: 0.313
# Mean RMSD: 0.146
data_MOF--net-gar--node1-KUFVIS_clean_sbu_0--node2-KUMBUR_clean_sbu_0--edge1-MIFKUJ_clean_linker_0
_symmetry_space_group_name_H-M    P1
_symmetry_Int_Tables_number       1
_symmetry_cell_setting            triclinic
loop_
_symmetry_equiv_pos_as_xyz
'x, y, z'
_cell_length_a     76.030573
_cell_length_b     71.733745
_cell_length_c     73.214985
_cell_angle_alpha  99.599474
_cell_angle_beta   93.105955
_cell_angle_gamma 102.1742
loop_
_atom_site_label
_atom_site_type_symbol
_atom_site_fract_x
_atom_site_fract_y
_atom_site_fract_z
_atom_type_partial_charge
Mn0 Mn 0.09658 0.32084 0.39374 0.0
Mn1 Mn 0.09211 0.34449 0.35823 0.0
C2 C 0.06887 0.32529 0.38438 0.0
C3 C 0.09716 0.29314 0.40542 0.0
C4 C 0.1065 0.3649 0.39698 0.0
O5 O 0.11957 0.32002 0.38166 0.0
O6 O 0.11564 0.33707 0.35916 0.0
C7 C 0.09069 0.31151 0.32751 0.0
N8 N 0.08314 0.3258 0.33619 0.0
C9 C 0.05836 0.31789 0.31233 0.0
C10 C 0.06589 0.30311 0.30309 0.0
C11 C 0.08211 0.29989 0.31074 0.0
C12 C 0.06753 0.32899 0.32899 0.0
H13 H 0.10319 0.30906 0.33331 0.0
C14 C 0.12491 0.32806 0.36813 0.0
O15 O 0.10531 0.31011 0.41468 0.0
O16 O 0.08919 0.29223 0.38906 0.0
N17 N 0.07002 0.35275 0.35544 0.0
C18 C 0.06434 0.36721 0.3664 0.0
C19 C 0.04834 0.3723 0.36076 0.0
C20 C 0.0385 0.36262 0.34384 0.0
C21 C 0.04461 0.34778 0.33279 0.0
C22 C 0.06072 0.34345 0.33907 0.0
H23 H 0.07191 0.37472 0.37939 0.0
O24 O 0.07215 0.32227 0.40109 0.0
O25 O 0.08187 0.32552 0.3735 0.0
O26 O 0.10598 0.34967 0.40392 0.0
O27 O 0.10107 0.36468 0.38016 0.0
C28 C 0.03524 0.33697 0.31593 0.0
C29 C 0.04209 0.32198 0.30574 0.0
H30 H 0.05932 0.29411 0.29015 0.0
H31 H 0.088 0.28851 0.3037 0.0
H32 H 0.04363 0.38368 0.3694 0.0
H33 H 0.02626 0.36667 0.33949 0.0
H34 H 0.02268 0.33993 0.31078 0.0
H35 H 0.03469 0.31366 0.29288 0.0
Mn36 Mn 0.01267 0.76664 0.65238 0.0
Mn37 Mn 0.02971 0.80094 0.69 0.0
C38 C 0.04233 0.77169 0.66334 0.0
C39 C 0.99785 0.7356 0.6395 0.0
C40 C 0.02185 0.8096 0.65187 0.0
O41 O 0.9905 0.77197 0.66381 0.0
O42 O 1.00306 0.79318 0.68985 0.0
C43 C 0.02082 0.77755 0.71926 0.0
N44 N 0.03329 0.78907 0.71094 0.0
C45 C 0.05716 0.78802 0.7334 0.0
C46 C 0.04455 0.77627 0.74232 0.0
C47 C 0.02631 0.77094 0.73516 0.0
C48 C 0.05089 0.79411 0.71757 0.0
H49 H 0.00679 0.77339 0.7138 0.0
C50 C 0.98942 0.78232 0.67941 0.0
O51 O 0.99796 0.74972 0.63046 0.0
O52 O 0.00616 0.73962 0.65612 0.0
N53 N 0.05548 0.80922 0.69193 0.0
C54 C 0.06615 0.81894 0.68063 0.0
C55 C 0.0849 0.82466 0.68534 0.0
C56 C 0.09246 0.82035 0.70163 0.0
C57 C 0.08121 0.8102 0.71296 0.0
C58 C 0.06264 0.80486 0.70755 0.0
H59 H 0.06045 0.82197 0.66797 0.0
O60 O 0.03716 0.76331 0.64621 0.0
O61 O 0.03002 0.77675 0.67339 0.0
O62 O 0.01667 0.79215 0.6435 0.0
O63 O 0.02694 0.81466 0.66921 0.0
C64 C 0.08773 0.80489 0.72927 0.0
C65 C 0.07573 0.79371 0.73943 0.0
H66 H 0.04874 0.77112 0.75458 0.0
H67 H 0.01651 0.76177 0.74189 0.0
H68 H 0.0935 0.83229 0.6764 0.0
H69 H 0.10694 0.82469 0.70518 0.0
H70 H 0.10202 0.80893 0.73389 0.0
H71 H 0.08098 0.78931 0.75168 0.0
Mn72 Mn 0.59477 0.81973 0.89337 0.0
Mn73 Mn 0.5909 0.84529 0.85924 0.0
C74 C 0.56727 0.82566 0.88484 0.0
C75 C 0.59482 0.79105 0.90342 0.0
C76 C 0.60752 0.86343 0.89821 0.0
O77 O 0.61784 0.8194 0.88092 0.0
O78 O 0.61256 0.83455 0.85723 0.0
C79 C 0.5837 0.8126 0.82732 0.0
N80 N 0.57887 0.82825 0.83724 0.0
C81 C 0.55288 0.82453 0.81562 0.0
C82 C 0.55767 0.80849 0.80503 0.0
C83 C 0.5731 0.80243 0.81097 0.0
C84 C 0.56393 0.83401 0.83182 0.0
H85 H 0.59553 0.8079 0.8319 0.0
C86 C 0.62211 0.8258 0.86618 0.0
O87 O 0.6033 0.80755 0.91332 0.0
O88 O 0.58684 0.79114 0.8873 0.0
N89 N 0.57038 0.85667 0.85937 0.0
C90 C 0.56719 0.87176 0.87171 0.0
C91 C 0.55229 0.87962 0.86791 0.0
C92 C 0.54093 0.87198 0.85142 0.0
C93 C 0.54436 0.8563 0.83902 0.0
C94 C 0.55957 0.84926 0.84343 0.0
H95 H 0.576 0.87782 0.88431 0.0
O96 O 0.57026 0.82127 0.90103 0.0
O97 O 0.58031 0.82617 0.87408 0.0
O98 O 0.60465 0.84788 0.9048 0.0
O99 O 0.60313 0.86413 0.88131 0.0
C100 C 0.53326 0.84728 0.82253 0.0
C101 C 0.53745 0.83133 0.81091 0.0
H102 H 0.54953 0.80061 0.79241 0.0
H103 H 0.57682 0.78998 0.80295 0.0
H104 H 0.54965 0.89164 0.8776 0.0
H105 H 0.52962 0.87829 0.84847 0.0
H106 H 0.52134 0.85231 0.81878 0.0
H107 H 0.52865 0.82432 0.79844 0.0
Mn108 Mn 0.51228 0.26785 0.15744 0.0
Mn109 Mn 0.47801 0.25621 0.12337 0.0
C110 C 0.50035 0.23629 0.14419 0.0
C111 C 0.5425 0.27511 0.16773 0.0
C112 C 0.47313 0.26762 0.16392 0.0
O113 O 0.51354 0.29311 0.14854 0.0
O114 O 0.49036 0.28391 0.12583 0.0
C115 C 0.49892 0.26075 0.09082 0.0
N116 N 0.48694 0.24944 0.09983 0.0
C117 C 0.48373 0.22198 0.07504 0.0
C118 C 0.496 0.23335 0.06547 0.0
C119 C 0.5036 0.25282 0.07339 0.0
C120 C 0.47935 0.23075 0.09223 0.0
H121 H 0.50489 0.27568 0.0969 0.0
C122 C 0.50352 0.29647 0.13551 0.0
O123 O 0.53055 0.27985 0.17854 0.0
O124 O 0.53703 0.26716 0.15055 0.0
N125 N 0.46543 0.22957 0.11968 0.0
C126 C 0.4551 0.22014 0.13142 0.0
C127 C 0.44709 0.20032 0.12594 0.0
C128 C 0.44982 0.1904 0.10848 0.0
C129 C 0.46051 0.20041 0.09663 0.0
C130 C 0.46797 0.22022 0.10275 0.0
H131 H 0.45319 0.2276 0.14498 0.0
O132 O 0.50862 0.24044 0.16083 0.0
O133 O 0.49909 0.25072 0.13603 0.0
O134 O 0.48963 0.27058 0.17001 0.0
O135 O 0.46738 0.26233 0.14678 0.0
C136 C 0.46448 0.19137 0.07922 0.0
C137 C 0.47608 0.20214 0.06843 0.0
H138 H 0.49983 0.22722 0.05213 0.0
H139 H 0.51312 0.26167 0.06612 0.0
H140 H 0.43898 0.19267 0.13523 0.0
H141 H 0.44383 0.17505 0.1044 0.0
H142 H 0.45894 0.17606 0.07414 0.0
H143 H 0.47929 0.19494 0.05523 0.0
Mn144 Mn 0.09131 0.81419 0.12404 0.0
Mn145 Mn 0.05971 0.79894 0.08699 0.0
C146 C 0.0826 0.78114 0.11006 0.0
C147 C 0.12143 0.8228 0.13897 0.0
C148 C 0.05001 0.80892 0.12651 0.0
O149 O 0.09111 0.84018 0.11429 0.0
O150 O 0.06965 0.82732 0.09042 0.0
C151 C 0.08371 0.80669 0.05733 0.0
N152 N 0.07129 0.79415 0.06474 0.0
C153 C 0.07117 0.76817 0.03925 0.0
C154 C 0.08387 0.78084 0.03128 0.0
C155 C 0.09019 0.80018 0.04038 0.0
C156 C 0.06512 0.77552 0.0561 0.0
H157 H 0.08865 0.82154 0.06431 0.0
C158 C 0.08091 0.84187 0.10021 0.0
O159 O 0.10779 0.82699 0.14736 0.0
O160 O 0.11796 0.81564 0.12132 0.0
N161 N 0.04896 0.77178 0.08184 0.0
C162 C 0.0375 0.76118 0.09191 0.0
C163 C 0.03038 0.74138 0.08504 0.0
C164 C 0.03498 0.73274 0.06782 0.0
C165 C 0.04658 0.74401 0.05759 0.0
C166 C 0.05317 0.7637 0.06509 0.0
H167 H 0.03394 0.76774 0.10516 0.0
O168 O 0.08919 0.78645 0.12727 0.0
O169 O 0.08086 0.79522 0.10146 0.0
O170 O 0.06627 0.81417 0.13408 0.0
O171 O 0.04621 0.80296 0.10904 0.0
C172 C 0.05225 0.73638 0.04047 0.0
C173 C 0.06455 0.74844 0.03133 0.0
H174 H 0.08899 0.77584 0.01827 0.0
H175 H 0.10005 0.81002 0.03436 0.0
H176 H 0.02144 0.73278 0.09302 0.0
H177 H 0.02963 0.71741 0.06267 0.0
H178 H 0.04745 0.72118 0.03437 0.0
H179 H 0.069 0.74234 0.01831 0.0
Mn180 Mn 0.51829 0.76837 0.42664 0.0
Mn181 Mn 0.51753 0.7946 0.39223 0.0
C182 C 0.4901 0.7696 0.41114 0.0
C183 C 0.52207 0.73962 0.43791 0.0
C184 C 0.52621 0.81286 0.43314 0.0
O185 O 0.54472 0.77322 0.41881 0.0
O186 O 0.54016 0.78541 0.39295 0.0
C187 C 0.51578 0.76413 0.35914 0.0
N188 N 0.50896 0.77858 0.36863 0.0
C189 C 0.4864 0.77574 0.34341 0.0
C190 C 0.49326 0.76091 0.33325 0.0
C191 C 0.50795 0.75501 0.34121 0.0
C192 C 0.49469 0.78419 0.36124 0.0
H193 H 0.52709 0.75962 0.36523 0.0
C194 C 0.55006 0.77879 0.40381 0.0
O195 O 0.52568 0.75666 0.44831 0.0
O196 O 0.51597 0.73902 0.42082 0.0
N197 N 0.49631 0.80459 0.38983 0.0
C198 C 0.49071 0.81831 0.40191 0.0
C199 C 0.47602 0.82565 0.39625 0.0
C200 C 0.46736 0.81899 0.37819 0.0
C201 C 0.4733 0.8048 0.36604 0.0
C202 C 0.4881 0.79812 0.37242 0.0
H203 H 0.49748 0.82376 0.41569 0.0
O204 O 0.49083 0.76441 0.42731 0.0
O205 O 0.50567 0.77348 0.40449 0.0
O206 O 0.52196 0.79719 0.43963 0.0
O207 O 0.52644 0.81303 0.41577 0.0
C208 C 0.46504 0.79688 0.34792 0.0
C209 C 0.4715 0.78227 0.33666 0.0
H210 H 0.48727 0.75385 0.31941 0.0
H211 H 0.51325 0.7435 0.3335 0.0
H212 H 0.47147 0.83656 0.40573 0.0
H213 H 0.45618 0.82488 0.37382 0.0
H214 H 0.45351 0.80169 0.34262 0.0
H215 H 0.46483 0.77605 0.32288 0.0
Mn216 Mn 0.58969 0.31413 0.62431 0.0
Mn217 Mn 0.5583 0.30309 0.58728 0.0
C218 C 0.57966 0.28182 0.60806 0.0
C219 C 0.61972 0.32111 0.63931 0.0
C220 C 0.54887 0.31167 0.62712 0.0
O221 O 0.59041 0.34134 0.61661 0.0
O222 O 0.57035 0.33093 0.59114 0.0
C223 C 0.58277 0.30887 0.55764 0.0
N224 N 0.56915 0.29751 0.56475 0.0
C225 C 0.56426 0.27292 0.53724 0.0
C226 C 0.57796 0.28452 0.52939 0.0
C227 C 0.58743 0.30247 0.53975 0.0
C228 C 0.56051 0.27988 0.55527 0.0
H229 H 0.59001 0.32265 0.5656 0.0
C230 C 0.58158 0.34444 0.6022 0.0
O231 O 0.60608 0.32479 0.64797 0.0
O232 O 0.61638 0.31525 0.62143 0.0
N233 N 0.54545 0.27661 0.58176 0.0
C234 C 0.53347 0.26669 0.59186 0.0
C235 C 0.52365 0.24794 0.58398 0.0
C236 C 0.52586 0.23986 0.56565 0.0
C237 C 0.53813 0.25049 0.55551 0.0
C238 C 0.54789 0.26885 0.56425 0.0
H239 H 0.53139 0.27304 0.60579 0.0
O240 O 0.58654 0.28558 0.62521 0.0
O241 O 0.57868 0.297 0.6009 0.0
O242 O 0.56491 0.31415 0.63476 0.0
O243 O 0.54521 0.30808 0.60953 0.0
C244 C 0.54079 0.24377 0.53693 0.0
C245 C 0.55399 0.25486 0.52785 0.0
H246 H 0.58142 0.27972 0.51549 0.0
H247 H 0.59817 0.31142 0.53389 0.0
H248 H 0.51419 0.23987 0.59191 0.0
H249 H 0.51808 0.2255 0.5595 0.0
H250 H 0.53251 0.23023 0.5295 0.0
H251 H 0.55599 0.24954 0.51358 0.0
Mn252 Mn 0.01896 0.269 0.92666 0.0
Mn253 Mn 0.0224 0.29742 0.89391 0.0
C254 C 0.99203 0.27275 0.90991 0.0
C255 C 0.02052 0.2392 0.93704 0.0
C256 C 0.02835 0.31356 0.93534 0.0
O257 O 0.04615 0.27278 0.9208 0.0
O258 O 0.04391 0.28693 0.89595 0.0
C259 C 0.02184 0.26784 0.86031 0.0
N260 N 0.01541 0.28276 0.86947 0.0
C261 C 0.99733 0.28429 0.84206 0.0
C262 C 1.00384 0.26902 0.83221 0.0
C263 C 0.01603 0.26064 0.84143 0.0
C264 C 1.00335 0.29055 0.86091 0.0
H265 H 0.03138 0.26158 0.86736 0.0
C266 C 0.05263 0.27889 0.90645 0.0
O267 O 0.02361 0.25577 0.94818 0.0
O268 O 0.01608 0.23962 0.9197 0.0
N269 N 1.00258 0.30895 0.89008 0.0
C270 C 0.99694 0.32276 0.90196 0.0
C271 C 0.98542 0.33322 0.89493 0.0
C272 C 0.98012 0.32948 0.87579 0.0
C273 C 0.98509 0.31438 0.86405 0.0
C274 C 0.99685 0.30472 0.87178 0.0
H275 H 1.0017 0.32627 0.91653 0.0
O276 O 0.99146 0.26639 0.92554 0.0
O277 O 0.00814 0.27601 0.90424 0.0
O278 O 0.02296 0.29746 0.9408 0.0
O279 O 0.03007 0.3147 0.91834 0.0
C280 C 0.97925 0.30887 0.84493 0.0
C281 C 0.98514 0.29359 0.834 0.0
H282 H 0.99953 0.26358 0.8176 0.0
H283 H 0.02107 0.24881 0.83395 0.0
H284 H 0.98122 0.34462 0.90408 0.0
H285 H 0.97283 0.33872 0.87012 0.0
H286 H 0.97007 0.31611 0.83856 0.0
H287 H 0.98032 0.28922 0.81939 0.0
Mn288 Mn 0.42218 0.04916 0.29849 0.0
Mn289 Mn 0.39089 0.04426 0.32917 0.0
C290 C 0.40927 0.01916 0.30384 0.0
C291 C 0.43069 0.05124 0.26924 0.0
C292 C 0.43082 0.05894 0.34025 0.0
O293 O 0.41442 0.07439 0.30119 0.0
O294 O 0.39241 0.06916 0.3205 0.0
C295 C 0.35815 0.04133 0.30412 0.0
N296 N 0.36767 0.03344 0.3159 0.0
C297 C 0.3434 1.00526 0.31319 0.0
C298 C 0.33322 0.01326 0.3013 0.0
C299 C 0.3407 0.03127 0.29659 0.0
C300 C 0.36076 0.01591 0.32018 0.0
H301 H 0.36375 0.05529 0.30064 0.0
C302 C 0.40195 0.07942 0.31037 0.0
O303 O 0.4419 0.05866 0.28392 0.0
O304 O 0.41421 0.04313 0.27159 0.0
N305 N 0.3879 0.02048 0.3384 0.0
C306 C 0.3989 0.01555 0.35124 0.0
C307 C 0.39337 0.99795 0.35749 0.0
C308 C 0.37649 0.98574 0.35069 0.0
C309 C 0.36517 0.9914 0.33792 0.0
C310 C 0.37141 0.00911 0.33219 0.0
H311 H 0.41183 0.02492 0.35661 0.0
O312 O 0.42497 0.02223 0.29734 0.0
O313 O 0.40178 0.03387 0.30719 0.0
O314 O 0.43558 0.0571 0.32387 0.0
O315 O 0.4144 0.05495 0.34401 0.0
C316 C 0.34782 0.98032 0.33088 0.0
C317 C 0.33691 0.98731 0.31862 0.0
H318 H 0.31958 1.00581 0.29584 0.0
H319 H 0.33295 0.03748 0.28736 0.0
H320 H 0.4021 0.99379 0.36751 0.0
H321 H 0.37227 0.97215 0.35553 0.0
H322 H 0.34266 0.96652 0.33499 0.0
H323 H 0.32351 0.97877 0.31348 0.0
Mn324 Mn 0.29436 0.19704 0.51303 0.0
Mn325 Mn 0.29051 0.15901 0.47784 0.0
C326 C 0.26576 0.17785 0.50113 0.0
C327 C 0.29793 0.21045 0.54522 0.0
C328 C 0.29993 0.2008 0.47237 0.0
O329 O 0.31985 0.19126 0.51369 0.0
O330 O 0.31471 0.16408 0.49164 0.0
C331 C 0.29161 0.12724 0.49854 0.0
N332 N 0.2827 0.13514 0.48627 0.0
C333 C 0.25883 0.10643 0.47893 0.0
C334 C 0.26785 0.09787 0.49133 0.0
C335 C 0.28419 0.10841 0.50135 0.0
C336 C 0.26673 0.12535 0.47695 0.0
H337 H 0.30438 0.13515 0.50595 0.0
C338 C 0.32483 0.17671 0.50448 0.0
O339 O 0.30227 0.22107 0.53273 0.0
O340 O 0.29202 0.19201 0.53906 0.0
N341 N 0.26757 0.15267 0.46351 0.0
C342 C 0.26085 0.16286 0.45172 0.0
C343 C 0.24421 0.15464 0.44119 0.0
C344 C 0.23487 0.13589 0.44254 0.0
C345 C 0.24225 0.12556 0.45448 0.0
C346 C 0.25871 0.13463 0.4649 0.0
H347 H 0.26808 0.17715 0.45038 0.0
O348 O 0.26752 0.19549 0.51001 0.0
O349 O 0.28082 0.17222 0.49937 0.0
O350 O 0.29795 0.20862 0.48894 0.0
O351 O 0.29833 0.18262 0.4673 0.0
C352 C 0.23408 0.10649 0.45619 0.0
C353 C 0.24252 0.09684 0.46816 0.0
H354 H 0.26247 0.08317 0.4932 0.0
H355 H 0.2912 0.10191 0.51097 0.0
H356 H 0.2386 0.16269 0.43201 0.0
H357 H 0.22211 0.12954 0.43428 0.0
H358 H 0.22144 0.099 0.44816 0.0
H359 H 0.23638 0.08196 0.46884 0.0
Mn360 Mn 0.17084 0.01781 0.76643 0.0
Mn361 Mn 0.20509 0.02731 0.80085 0.0
C362 C 0.18777 0.05119 0.77788 0.0
C363 C 0.15712 0.01421 0.73341 0.0
C364 C 0.16515 0.01712 0.80941 0.0
O365 O 0.17954 0.98994 0.76494 0.0
O366 O 0.20288 0.9999 0.78724 0.0
C367 C 0.23572 0.02632 0.77762 0.0
N368 N 0.22794 0.03554 0.79169 0.0
C369 C 0.25405 0.06201 0.7987 0.0
C370 C 0.26261 0.05248 0.78471 0.0
C371 C 0.25332 0.03466 0.77398 0.0
C372 C 0.2365 0.053 0.80164 0.0
H373 H 0.22845 0.01287 0.76911 0.0
C374 C 0.1935 0.98656 0.77435 0.0
O375 O 0.14817 0.00873 0.74688 0.0
O376 O 0.17436 0.01965 0.73842 0.0
N377 N 0.20948 0.05295 0.81513 0.0
C378 C 0.19866 0.06107 0.82679 0.0
C379 C 0.20566 0.07915 0.83822 0.0
C380 C 0.22369 0.08861 0.83757 0.0
C381 C 0.23438 0.08032 0.82501 0.0
C382 C 0.22674 0.06217 0.81414 0.0
H383 H 0.18489 0.0537 0.82765 0.0
O384 O 0.17126 0.04703 0.77044 0.0
O385 O 0.19371 0.03559 0.7793 0.0
O386 O 0.15866 0.01594 0.7924 0.0
O387 O 0.18223 0.01967 0.81323 0.0
C388 C 0.25234 0.08925 0.82294 0.0
C389 C 0.2621 0.08023 0.80962 0.0
H390 H 0.27617 0.05888 0.78185 0.0
H391 H 0.25968 0.02739 0.7629 0.0
H392 H 0.19729 0.08559 0.84778 0.0
H393 H 0.22922 0.1021 0.84694 0.0
H394 H 0.25875 0.10311 0.8314 0.0
H395 H 0.27574 0.08748 0.80784 0.0
Mn396 Mn 0.31984 0.93051 0.01981 0.0
Mn397 Mn 0.327 0.96273 0.99101 0.0
C398 C 0.34881 0.94341 0.01412 0.0
C399 C 0.31594 0.92267 0.04852 0.0
C400 C 0.31354 0.91966 0.97803 0.0
O401 O 0.29622 0.93895 0.01828 0.0
O402 O 0.30324 0.96225 1.00098 0.0
C403 C 0.3294 0.99805 0.01954 0.0
N404 N 0.33684 0.98848 1.00532 0.0
C405 C 0.3622 0.02004 0.00921 0.0
C406 C 0.35327 0.02825 0.02331 0.0
C407 C 0.33727 0.01733 0.02836 0.0
C408 C 0.35235 0.99692 0.99927 0.0
H409 H 0.31706 0.99087 0.0244 0.0
C410 C 0.29245 0.95238 0.01048 0.0
O411 O 0.30956 0.91016 0.03346 0.0
O412 O 0.32378 0.94018 0.0469 0.0
N413 N 0.34945 0.96396 0.97943 0.0
C414 C 0.35417 0.94947 0.96743 0.0
C415 C 0.36983 0.95258 0.95784 0.0
C416 C 0.38171 0.97072 0.95949 0.0
C417 C 0.37845 0.98651 0.97133 0.0
C418 C 0.35966 0.98204 0.98265 0.0
H419 H 0.34595 0.93495 0.96504 0.0
O420 O 0.34505 0.92705 0.01996 0.0
O421 O 0.33542 0.95168 0.01177 0.0
O422 O 0.31432 0.91503 0.99394 0.0
O423 O 0.31689 0.93712 0.97535 0.0
C424 C 0.39343 0.00867 0.97608 0.0
C425 C 0.38229 0.03192 1.00247 0.0
H426 H 0.35871 0.04295 0.03057 0.0
H427 H 0.33061 0.02402 0.03953 0.0
H428 H 0.37286 0.94034 0.94886 0.0
H429 H 0.39366 0.9722 0.952 0.0
H430 H 0.40548 0.01054 0.96845 0.0
H431 H 0.388 0.04684 0.00955 0.0
Mn432 Mn 0.31397 0.38925 0.03647 0.0
Mn433 Mn 0.32012 0.42687 0.01332 0.0
C434 C 0.34326 0.40687 0.03413 0.0
C435 C 0.30847 0.37665 0.06398 0.0
C436 C 0.31045 0.38466 0.99379 0.0
O437 O 0.28875 0.39555 0.03457 0.0
O438 O 0.29549 0.42232 0.02158 0.0
C439 C 0.31889 0.45833 0.04464 0.0
N440 N 0.32765 0.45079 0.03047 0.0
C441 C 0.35223 0.47891 0.03655 0.0
C442 C 0.34344 0.48706 0.05117 0.0
C443 C 0.32673 0.47669 0.05527 0.0
C444 C 0.34382 0.46052 0.02654 0.0
H445 H 0.30603 0.45039 0.04779 0.0
C446 C 0.28456 0.41007 0.02876 0.0
O447 O 0.30455 0.36579 0.04761 0.0
O448 O 0.31527 0.39492 0.06439 0.0
N449 N 0.34335 0.43312 1.0043 0.0
C450 C 0.35019 0.42298 0.99003 0.0
C451 C 0.36668 0.43142 0.98392 0.0
C452 C 0.37584 0.45024 0.99241 0.0
C453 C 0.3686 0.46033 0.00717 0.0
C454 C 0.352 0.45129 0.01248 0.0
H455 H 0.34308 0.40863 0.98323 0.0
O456 O 0.34064 0.38949 0.0379 0.0
O457 O 0.32875 0.41345 0.03207 0.0
O458 O 0.311 0.37708 0.00839 0.0
O459 O 0.31286 0.40293 0.99445 0.0
C460 C 0.37717 0.47901 0.01682 0.0
C461 C 0.36907 0.48823 0.0316 0.0
H462 H 0.34942 0.50124 0.05937 0.0
H463 H 0.31988 0.48285 0.06657 0.0
H464 H 0.37222 0.42351 0.97257 0.0
H465 H 0.38837 0.45682 0.98739 0.0
H466 H 0.39008 0.48633 0.01312 0.0
H467 H 0.37591 0.50248 0.03907 0.0
Mn468 Mn 0.79079 0.16073 0.02426 0.0
Mn469 Mn 0.77622 0.11901 0.99372 0.0
C470 C 0.76062 0.14631 0.01933 0.0
C471 C 0.79994 0.17734 0.05378 0.0
C472 C 0.78939 0.15802 0.98276 0.0
O473 O 0.81358 0.15084 0.02099 0.0
O474 O 0.80175 0.12133 1.0031 0.0
C475 C 0.77693 0.09027 0.01827 0.0
N476 N 0.76777 0.09762 1.00577 0.0
C477 C 0.74116 0.07235 1.00497 0.0
C478 C 0.75043 0.06431 0.01762 0.0
C479 C 0.76836 0.07341 0.02442 0.0
C480 C 0.7504 0.08922 0.99943 0.0
H481 H 0.79059 0.09733 0.0236 0.0
C482 C 0.81482 0.13413 0.01269 0.0
O483 O 0.80371 0.18556 0.03952 0.0
O484 O 0.79212 0.15907 0.05085 0.0
N485 N 0.75152 0.11536 0.98426 0.0
C486 C 0.74372 0.12666 0.97462 0.0
C487 C 0.72537 0.12053 0.96799 0.0
C488 C 0.71526 0.10284 0.97132 0.0
C489 C 0.72351 0.09166 0.98161 0.0
C490 C 0.74178 0.09864 0.98804 0.0
H491 H 0.75136 0.14038 0.97228 0.0
O492 O 0.76573 0.16478 0.02573 0.0
O493 O 0.77329 0.13709 0.01566 0.0
O494 O 0.79182 0.1682 0.99895 0.0
O495 O 0.78402 0.13963 0.97934 0.0
C496 C 0.71426 0.07407 0.98606 0.0
C497 C 0.72302 0.06449 0.99787 0.0
H498 H 0.74385 0.05131 0.0224 0.0
H499 H 0.77555 0.06745 0.03436 0.0
H500 H 0.71904 0.12943 0.96036 0.0
H501 H 0.70111 0.09815 0.9662 0.0
H502 H 0.70018 0.06813 0.98105 0.0
H503 H 0.71556 0.05134 1.00175 0.0
Mn504 Mn 0.18671 0.54808 0.24739 0.0
Mn505 Mn 0.22417 0.55898 0.27739 0.0
C506 C 0.20438 0.57857 0.25324 0.0
C507 C 0.171 0.53753 0.21887 0.0
C508 C 0.18664 0.55319 0.28932 0.0
O509 O 0.19123 0.52178 0.24867 0.0
O510 O 0.21689 0.53069 0.26825 0.0
C511 C 0.25054 0.54813 0.25162 0.0
N512 N 0.24535 0.56158 0.26433 0.0
C513 C 0.27325 0.58477 0.26415 0.0
C514 C 0.27891 0.57118 0.25104 0.0
C515 C 0.26746 0.55282 0.24467 0.0
C516 C 0.25616 0.57936 0.27037 0.0
H517 H 0.24184 0.53394 0.2469 0.0
C518 C 0.20424 0.51804 0.25795 0.0
O519 O 0.16305 0.53668 0.23401 0.0
O520 O 0.18845 0.54392 0.22023 0.0
N521 N 0.23242 0.58607 0.28711 0.0
C522 C 0.22423 0.59802 0.29847 0.0
C523 C 0.23352 0.61723 0.30541 0.0
C524 C 0.25123 0.6238 0.30092 0.0
C525 C 0.25938 0.61115 0.28931 0.0
C526 C 0.24934 0.59231 0.28252 0.0
H527 H 0.21073 0.59292 0.30218 0.0
O528 O 0.18742 0.57583 0.24749 0.0
O529 O 0.21041 0.56348 0.25574 0.0
O530 O 0.1787 0.55022 0.27313 0.0
O531 O 0.20371 0.55691 0.29271 0.0
C532 C 0.27704 0.61652 0.28409 0.0
C533 C 0.28386 0.60347 0.27127 0.0
H534 H 0.29199 0.5747 0.24572 0.0
H535 H 0.27173 0.54227 0.23454 0.0
H536 H 0.22711 0.62689 0.31434 0.0
H537 H 0.25839 0.63859 0.30638 0.0
H538 H 0.28534 0.63084 0.2895 0.0
H539 H 0.29725 0.608 0.26692 0.0
Mn540 Mn 0.8143 0.89065 0.53802 0.0
Mn541 Mn 0.81812 0.92644 0.5127 0.0
C542 C 0.84317 0.90854 0.5342 0.0
C543 C 0.80985 0.88003 0.56679 0.0
C544 C 0.80917 0.88354 0.49525 0.0
O545 O 0.78862 0.89578 0.53606 0.0
O546 O 0.7942 0.92216 0.52248 0.0
C547 C 0.81762 0.95943 0.54276 0.0
N548 N 0.82565 0.95134 0.52824 0.0
C549 C 0.84842 0.98067 0.53028 0.0
C550 C 0.84036 0.9894 0.54521 0.0
C551 C 0.82495 0.97868 0.55154 0.0
C552 C 0.8406 0.9614 0.52221 0.0
H553 H 0.80572 0.95124 0.54756 0.0
C554 C 0.78385 0.91 0.53023 0.0
O555 O 0.80602 0.86812 0.55097 0.0
O556 O 0.81606 0.89812 0.56593 0.0
N557 N 0.84055 0.93256 0.50218 0.0
C558 C 0.84719 0.92161 0.48833 0.0
C559 C 0.86223 0.93026 0.48001 0.0
C560 C 0.87023 0.95002 0.48603 0.0
C561 C 0.86363 0.96077 0.50079 0.0
C562 C 0.84833 0.95152 0.5082 0.0
H563 H 0.84076 0.90657 0.48331 0.0
O564 O 0.84104 0.89169 0.5391 0.0
O565 O 0.82835 0.91464 0.53202 0.0
O566 O 0.81106 0.87693 0.51028 0.0
O567 O 0.81055 0.90155 0.49507 0.0
C568 C 0.87148 0.98036 0.5083 0.0
C569 C 0.864 0.99024 0.52319 0.0
H570 H 0.84594 1.00426 0.55198 0.0
H571 H 0.81869 0.98528 0.5631 0.0
H572 H 0.86737 0.92183 0.4687 0.0
H573 H 0.8812 0.95691 0.47897 0.0
H574 H 0.88341 0.98787 0.5029 0.0
H575 H 0.87033 1.00519 0.52908 0.0
Mn576 Mn 0.93821 0.06716 0.26914 0.0
Mn577 Mn 0.90438 0.06299 0.29818 0.0
C578 C 0.92119 0.03511 0.27288 0.0
C579 C 0.95174 0.06828 0.23827 0.0
C580 C 0.94446 0.07145 0.31364 0.0
O581 O 0.93014 0.09521 0.27173 0.0
O582 O 0.90814 0.08923 0.29061 0.0
C583 C 0.87423 0.06385 0.27105 0.0
N584 N 0.88135 0.05518 0.28397 0.0
C585 C 0.85387 0.0307 0.28149 0.0
C586 C 0.84617 0.03951 0.26835 0.0
C587 C 0.85645 0.05608 0.26302 0.0
C588 C 0.87169 0.03903 0.28893 0.0
H589 H 0.88205 0.07656 0.26685 0.0
C590 C 0.91684 0.1004 0.28052 0.0
O591 O 0.96073 0.0747 0.25443 0.0
O592 O 0.93458 0.06241 0.23979 0.0
N593 N 0.89801 0.03885 0.30664 0.0
C594 C 0.90774 0.03142 0.31867 0.0
C595 C 0.89934 0.01502 0.32558 0.0
C596 C 0.88106 1.00644 0.32007 0.0
C597 C 0.87147 0.01394 0.30728 0.0
C598 C 0.88043 0.03058 0.30118 0.0
H599 H 0.92171 0.03807 0.32323 0.0
O600 O 0.93729 0.03797 0.26729 0.0
O601 O 0.91535 0.05114 0.27627 0.0
O602 O 0.95074 0.07169 0.29749 0.0
O603 O 0.92752 0.07019 0.31508 0.0
C604 C 0.85337 1.00558 0.30037 0.0
C605 C 0.84463 0.01385 0.28735 0.0
H606 H 0.83245 0.03357 0.26214 0.0
H607 H 0.85066 0.06289 0.25277 0.0
H608 H 0.90688 0.00926 0.3354 0.0
H609 H 0.87438 0.99429 0.32595 0.0
H610 H 0.84614 0.99264 0.30479 0.0
H611 H 0.83081 1.00711 0.28189 0.0
Mn612 Mn 0.28998 0.65865 0.52481 0.0
Mn613 Mn 0.27891 0.62013 0.48994 0.0
C614 C 0.26029 0.64355 0.51571 0.0
C615 C 0.29647 0.67279 0.55556 0.0
C616 C 0.29103 0.66112 0.48407 0.0
O617 O 0.31342 0.64969 0.52332 0.0
O618 O 0.30412 0.62392 0.50005 0.0
C619 C 0.28182 0.58864 0.51056 0.0
N620 N 0.27191 0.59672 0.49935 0.0
C621 C 0.24765 0.56837 0.49394 0.0
C622 C 0.25758 0.55967 0.50539 0.0
C623 C 0.27467 0.56994 0.5139 0.0
C624 C 0.25526 0.5872 0.49153 0.0
H625 H 0.29514 0.59631 0.51675 0.0
C626 C 0.31607 0.63494 0.51239 0.0
O627 O 0.30156 0.6824 0.54252 0.0
O628 O 0.28848 0.65459 0.55073 0.0
N629 N 0.25452 0.61493 0.47925 0.0
C630 C 0.24629 0.6259 0.46959 0.0
C631 C 0.22866 0.61821 0.4611 0.0
C632 C 0.2199 0.59919 0.46226 0.0
C633 C 0.22873 0.58821 0.47226 0.0
C634 C 0.24604 0.59686 0.48091 0.0
H635 H 0.25313 0.64039 0.46838 0.0
O636 O 0.26449 0.66161 0.52392 0.0
O637 O 0.27355 0.63507 0.51281 0.0
O638 O 0.29354 0.66915 0.50105 0.0
O639 O 0.28553 0.64296 0.47848 0.0
C640 C 0.22122 0.56889 0.47367 0.0
C641 C 0.23067 0.55897 0.4845 0.0
H642 H 0.25221 0.54512 0.50775 0.0
H643 H 0.28243 0.56334 0.52276 0.0
H644 H 0.22194 0.62681 0.45345 0.0
H645 H 0.20642 0.59316 0.45543 0.0
H646 H 0.20831 0.56148 0.46622 0.0
H647 H 0.22491 0.54404 0.48533 0.0
Mn648 Mn 0.43696 0.56557 0.76916 0.0
Mn649 Mn 0.40359 0.56083 0.79879 0.0
C650 C 0.42007 0.53353 0.77242 0.0
C651 C 0.4501 0.56728 0.73823 0.0
C652 C 0.44378 0.56944 0.81362 0.0
O653 O 0.4285 0.59328 0.77214 0.0
O654 O 0.40712 0.58748 0.79186 0.0
C655 C 0.37257 0.5624 0.77316 0.0
N656 N 0.38031 0.55309 0.78507 0.0
C657 C 0.35343 0.52763 0.78173 0.0
C658 C 0.34515 0.53704 0.76955 0.0
C659 C 0.35479 0.55447 0.76521 0.0
C660 C 0.37117 0.53627 0.7893 0.0
H661 H 0.37987 0.57579 0.76973 0.0
C662 C 0.41555 0.59854 0.78147 0.0
O663 O 0.45927 0.57349 0.75431 0.0
O664 O 0.43299 0.56126 0.7399 0.0
N665 N 0.39779 0.5362 0.80652 0.0
C666 C 0.4081 0.5282 0.81746 0.0
C667 C 0.40062 0.51043 0.82261 0.0
C668 C 0.38259 0.50112 0.81662 0.0
C669 C 0.37222 0.50962 0.80542 0.0
C670 C 0.38037 0.52742 0.8008 0.0
H671 H 0.42197 0.53521 0.82217 0.0
O672 O 0.43615 0.53642 0.76679 0.0
O673 O 0.41426 0.54954 0.77631 0.0
O674 O 0.4498 0.56983 0.79737 0.0
O675 O 0.42689 0.56795 0.81533 0.0
C676 C 0.35425 0.50088 0.79828 0.0
C677 C 0.34488 0.50986 0.78641 0.0
H678 H 0.33146 0.53092 0.76332 0.0
H679 H 0.34852 0.56177 0.75576 0.0
H680 H 0.40875 0.50392 0.83118 0.0
H681 H 0.3769 0.48739 0.8206 0.0
H682 H 0.34762 0.48708 0.80156 0.0
H683 H 0.33117 0.50284 0.78078 0.0
Mn684 Mn 0.68737 0.04371 0.75094 0.0
Mn685 Mn 0.72426 0.05006 0.78104 0.0
C686 C 0.70381 0.0742 0.76326 0.0
C687 C 0.67223 0.03863 0.72194 0.0
C688 C 0.68647 0.04162 0.79218 0.0
O689 O 0.69282 0.01714 0.74642 0.0
O690 O 0.7167 0.02295 0.76786 0.0
C691 C 0.74994 0.04349 0.7529 0.0
N692 N 0.74534 0.05476 0.76795 0.0
C693 C 0.77334 0.07839 0.76998 0.0
C694 C 0.77844 0.06701 0.75456 0.0
C695 C 0.76661 0.04958 0.74589 0.0
C696 C 0.75646 0.07173 0.77617 0.0
H697 H 0.74095 0.03001 0.74628 0.0
C698 C 0.70517 0.0118 0.75522 0.0
O699 O 0.66406 0.03392 0.73613 0.0
O700 O 0.68957 0.04584 0.72443 0.0
N701 N 0.73326 0.07565 0.7949 0.0
C702 C 0.72581 0.08549 0.80888 0.0
C703 C 0.73584 0.10327 0.81896 0.0
C704 C 0.75344 0.11056 0.81467 0.0
C705 C 0.76072 0.10037 0.80005 0.0
C706 C 0.75016 0.08265 0.79062 0.0
H707 H 0.71237 0.07977 0.81237 0.0
O708 O 0.687 0.0716 0.75702 0.0
O709 O 0.71068 0.05898 0.76191 0.0
O710 O 0.67879 0.03977 0.77595 0.0
O711 O 0.70355 0.04586 0.79591 0.0
C712 C 0.77803 0.10704 0.79449 0.0
C713 C 0.78426 0.09617 0.77932 0.0
H714 H 0.79132 0.07159 0.74916 0.0
H715 H 0.77036 0.0409 0.73384 0.0
H716 H 0.73013 0.11118 0.83016 0.0
H717 H 0.76134 0.12387 0.82281 0.0
H718 H 0.78663 0.12056 0.80167 0.0
H719 H 0.79746 0.10163 0.77496 0.0
Mn720 Mn 0.79388 0.69731 0.01432 0.0
Mn721 Mn 0.78907 0.6601 0.97817 0.0
C722 C 0.76496 0.67823 1.00253 0.0
C723 C 0.79769 0.71043 0.04665 0.0
C724 C 0.79902 0.70217 0.97378 0.0
O725 O 0.81939 0.69116 0.01441 0.0
O726 O 0.81334 0.66492 0.99136 0.0
C727 C 0.79128 0.62718 0.99695 0.0
N728 N 0.78192 0.6356 0.98553 0.0
C729 C 0.75993 0.60581 0.97514 0.0
C730 C 0.76925 0.59676 0.98679 0.0
C731 C 0.78487 0.60757 0.99794 0.0
C732 C 0.76657 0.62551 0.97522 0.0
H733 H 0.80368 0.63528 1.00499 0.0
C734 C 0.82398 0.67678 1.00434 0.0
O735 O 0.8023 0.72109 0.03427 0.0
O736 O 0.79143 0.69206 0.04036 0.0
N737 N 0.76589 0.65409 0.9645 0.0
C738 C 0.75816 0.66523 0.95459 0.0
C739 C 0.74164 0.65702 0.94382 0.0
C740 C 0.73357 0.63733 0.94293 0.0
C741 C 0.74193 0.62617 0.95315 0.0
C742 C 0.75798 0.63535 0.96421 0.0
H743 H 0.76456 0.68024 0.95488 0.0
O744 O 0.76688 0.69588 0.01148 0.0
O745 O 0.77995 0.6726 1.00039 0.0
O746 O 0.79771 0.70968 0.99062 0.0
O747 O 0.79648 0.68399 0.96818 0.0
C748 C 0.73533 0.60616 0.95236 0.0
C749 C 0.74463 0.59594 0.963 0.0
H750 H 0.76455 0.58151 0.98727 0.0
H751 H 0.79217 0.60069 0.00693 0.0
H752 H 0.73532 0.66575 0.93595 0.0
H753 H 0.72104 0.63092 0.93428 0.0
H754 H 0.72335 0.59842 0.94334 0.0
H755 H 0.74021 0.58042 0.96147 0.0
Mn756 Mn 0.92305 0.54874 0.79881 0.0
Mn757 Mn 0.89069 0.54279 0.82815 0.0
C758 C 0.90785 0.51837 0.80129 0.0
C759 C 0.93365 0.55309 0.77075 0.0
C760 C 0.93037 0.55523 0.84038 0.0
O761 O 0.91694 0.57506 0.80426 0.0
O762 O 0.89276 0.56818 0.82068 0.0
C763 C 0.85802 0.54099 0.80342 0.0
N764 N 0.8674 0.53267 0.81491 0.0
C765 C 0.84219 0.50568 0.81343 0.0
C766 C 0.83219 0.51395 0.80164 0.0
C767 C 0.84024 0.53153 0.79638 0.0
C768 C 0.86001 0.51541 0.81948 0.0
H769 H 0.86404 0.55475 0.79975 0.0
C770 C 0.90365 0.57957 0.81253 0.0
O771 O 0.94409 0.55849 0.78615 0.0
O772 O 0.91654 0.54617 0.77169 0.0
N773 N 0.8877 0.51835 0.83607 0.0
C774 C 0.89939 0.51198 0.84702 0.0
C775 C 0.89382 0.494 0.85257 0.0
C776 C 0.87619 0.48297 0.84712 0.0
C777 C 0.86434 0.48998 0.83608 0.0
C778 C 0.87077 0.50781 0.83066 0.0
H779 H 0.91287 0.52051 0.85149 0.0
O780 O 0.92365 0.52077 0.79498 0.0
O781 O 0.90155 0.53372 0.80578 0.0
O782 O 0.93568 0.55298 0.82428 0.0
O783 O 0.91384 0.5529 0.84352 0.0
C784 C 0.84629 0.4802 0.83057 0.0
C785 C 0.83513 0.48829 0.81961 0.0
H786 H 0.81837 0.50689 0.79645 0.0
H787 H 0.83269 0.53782 0.78708 0.0
H788 H 0.90304 0.48875 0.86115 0.0
H789 H 0.87186 0.4692 0.85159 0.0
H790 H 0.84075 0.46661 0.83491 0.0
H791 H 0.82108 0.48111 0.81624 0.0
Mn792 Mn 0.81941 0.42798 0.51988 0.0
Mn793 Mn 0.82532 0.45896 0.48984 0.0
C794 C 0.8478 0.44461 0.51645 0.0
C795 C 0.81465 0.41879 0.54789 0.0
C796 C 0.81651 0.41557 0.47833 0.0
O797 O 0.79453 0.43317 0.51584 0.0
O798 O 0.80066 0.45632 0.49805 0.0
C799 C 0.82221 0.4964 0.51172 0.0
N800 N 0.83233 0.48546 0.50187 0.0
C801 C 0.85502 0.51383 0.4999 0.0
C802 C 0.84475 0.52539 0.50995 0.0
C803 C 0.82843 0.5166 0.51613 0.0
C804 C 0.84832 0.49374 0.49628 0.0
H805 H 0.80924 0.48983 0.51566 0.0
C806 C 0.79011 0.44582 0.50728 0.0
O807 O 0.81032 0.40657 0.53238 0.0
O808 O 0.82051 0.43706 0.54721 0.0
N809 N 0.84899 0.46264 0.48148 0.0
C810 C 0.85674 0.44953 0.47104 0.0
C811 C 0.87373 0.45581 0.46478 0.0
C812 C 0.88231 0.47557 0.4688 0.0
C813 C 0.87386 0.48883 0.47921 0.0
C814 C 0.85728 0.4816 0.48574 0.0
H815 H 0.85006 0.43438 0.46757 0.0
O816 O 0.84553 0.42831 0.52246 0.0
O817 O 0.83341 0.45075 0.51257 0.0
O818 O 0.81709 0.41183 0.49452 0.0
O819 O 0.81844 0.43264 0.47499 0.0
C820 C 0.88095 0.509 0.48283 0.0
C821 C 0.87136 0.52152 0.49287 0.0
H822 H 0.8492 0.54104 0.51287 0.0
H823 H 0.8204 0.52542 0.52382 0.0
H824 H 0.88009 0.44548 0.45664 0.0
H825 H 0.89524 0.48044 0.46362 0.0
H826 H 0.89364 0.51507 0.47778 0.0
H827 H 0.87681 0.53703 0.49531 0.0
Mn828 Mn 0.67005 0.51845 0.26664 0.0
Mn829 Mn 0.7036 0.52862 0.30195 0.0
C830 C 0.68714 0.5515 0.27772 0.0
C831 C 0.65664 0.51429 0.23355 0.0
C832 C 0.66359 0.51863 0.30968 0.0
O833 O 0.67903 0.49099 0.26565 0.0
O834 O 0.70104 0.50071 0.28952 0.0
C835 C 0.73546 0.5254 0.28106 0.0
N836 N 0.72672 0.53614 0.29302 0.0
C837 C 0.75232 0.56321 0.29843 0.0
C838 C 0.76164 0.55244 0.28624 0.0
C839 C 0.75312 0.53349 0.27742 0.0
C840 C 0.73468 0.5545 0.30133 0.0
H841 H 0.72907 0.51074 0.27444 0.0
C842 C 0.69224 0.48752 0.2761 0.0
O843 O 0.64755 0.5091 0.24703 0.0
O844 O 0.67386 0.51982 0.23863 0.0
N845 N 0.70775 0.55489 0.31483 0.0
C846 C 0.69662 0.56371 0.32552 0.0
C847 C 0.7028 0.58305 0.33457 0.0
C848 C 0.72039 0.59307 0.33272 0.0
C849 C 0.73159 0.58366 0.32171 0.0
C850 C 0.72464 0.56443 0.31285 0.0
H851 H 0.6831 0.55612 0.32709 0.0
O852 O 0.67068 0.54767 0.27017 0.0
O853 O 0.69278 0.53588 0.27956 0.0
O854 O 0.65744 0.51682 0.29245 0.0
O855 O 0.68061 0.52176 0.31404 0.0
C856 C 0.74944 0.59257 0.31929 0.0
C857 C 0.75987 0.58222 0.30792 0.0
H858 H 0.77531 0.5586 0.2835 0.0
H859 H 0.76021 0.52509 0.26796 0.0
H860 H 0.69403 0.5902 0.34301 0.0
H861 H 0.72514 0.60797 0.33977 0.0
H862 H 0.75534 0.60731 0.32623 0.0
H863 H 0.77374 0.58896 0.30671 0.0
Tb864 Tb 0.03447 0.03179 0.01089 0.0
C865 C 0.07955 0.09914 0.04466 0.0
C866 C 0.09241 0.11528 0.02043 0.0
C867 C 0.08232 0.13393 0.04695 0.0
C868 C 0.08668 0.09819 0.02776 0.0
C869 C 0.07826 0.11725 0.05495 0.0
C870 C 0.08938 0.13294 0.02967 0.0
C871 C 0.07347 0.1021 0.08171 0.0
N872 N 0.0763 0.08283 0.05211 0.0
C873 C 0.07517 0.08467 0.07099 0.0
C874 C 0.07435 0.11835 0.07347 0.0
Tb875 Tb 0.07727 0.05415 0.0325 0.0
N876 N 0.0894 0.08083 0.01927 0.0
C877 C 0.10022 0.08043 1.00481 0.0
C878 C 0.10169 0.11429 1.00449 0.0
C879 C 0.10602 0.09689 0.99695 0.0
H880 H 0.07584 0.0729 0.07823 0.0
H881 H 0.1141 0.09617 0.98523 0.0
H882 H 0.0933 0.14609 0.02402 0.0
H883 H 0.07192 0.10308 0.09643 0.0
H884 H 0.10503 0.06771 0.99936 0.0
H885 H 0.01944 0.97611 0.05252 0.0
H886 H 0.10629 0.12706 0.99845 0.0
H887 H 0.02258 0.02991 0.96639 0.0
H888 H 0.02836 0.00943 0.04685 0.0
H889 H 0.01248 1.00501 0.93813 0.0
H890 H 0.08105 0.14786 0.05449 0.0
H891 H 0.01293 0.94844 0.02615 0.0
H892 H 0.00881 0.9368 0.99144 0.0
H893 H 0.07339 0.13198 0.08187 0.0
H894 H 0.00707 0.94474 0.96002 0.0
N895 N 0.02747 1.00104 0.01746 0.0
C896 C 0.02566 0.99762 0.03517 0.0
C897 C 0.01692 0.96311 0.02355 0.0
C898 C 0.01772 0.96676 1.00539 0.0
C899 C 0.0206 0.97867 0.03848 0.0
C900 C 0.02293 0.98614 1.00283 0.0
H901 H 0.00811 0.97022 0.93998 0.0
N902 N 0.0252 0.00953 0.98393 0.0
C903 C 0.01525 1.00072 0.95129 0.0
C904 C 0.02189 0.99056 0.98533 0.0
C905 C 0.02103 0.0148 0.96735 0.0
C906 C 0.01286 0.98111 0.95238 0.0
C907 C 0.01571 0.9758 0.96965 0.0
O908 O 0.01422 0.0447 1.00097 0.0
O909 O 0.05294 0.06009 0.02021 0.0
O910 O 0.05885 0.0486 0.05549 0.0
O911 O 0.03049 0.04379 0.04035 0.0
O912 O 0.04091 0.05335 0.99333 0.0
O913 O 0.00914 0.02637 0.0213 0.0
O914 O 0.09058 0.05085 0.05741 0.0
O915 O 0.05661 0.02769 0.02848 0.0
O916 O 0.05284 0.02611 0.98814 0.0
O917 O 0.08091 0.04396 1.00222 0.0
O918 O 0.08188 0.02517 0.02284 0.0
O919 O 0.10569 0.05842 0.03415 0.0
C920 C 0.05147 0.06677 1.00515 0.0
C921 C 0.98417 0.02842 1.00228 0.0
C922 C 0.95364 0.03285 0.99773 0.0
C923 C 0.97179 0.04025 1.00429 0.0
C924 C 0.94791 0.01336 0.98891 0.0
C925 C 0.97849 0.00898 0.99338 0.0
C926 C 0.96037 1.00152 0.98664 0.0
C927 C 0.0411 0.04757 0.05618 0.0
C928 C 1.00243 0.03666 0.01103 0.0
C929 C 0.01167 0.95633 0.97191 0.0
C930 C 0.01265 0.95181 0.98979 0.0
C931 C 0.06603 0.01515 0.02419 0.0
C932 C 0.12306 0.05544 0.06175 0.0
C933 C 0.13536 0.0451 0.05398 0.0
C934 C 0.15138 0.04511 0.06446 0.0
C935 C 0.15512 0.05604 0.08261 0.0
C936 C 0.1268 0.06607 0.07991 0.0
C937 C 0.1429 0.0665 0.09023 0.0
C938 C 0.07045 0.03348 0.98712 0.0
C939 C 0.10622 0.05496 0.05098 0.0
H940 H 0.97622 0.05515 0.01158 0.0
H941 H 0.93388 0.00738 0.98373 0.0
H942 H 0.9879 0.99955 0.99196 0.0
H943 H 0.95594 0.98651 0.97984 0.0
H944 H 0.13217 0.03657 0.04005 0.0
H945 H 0.16753 0.05656 0.09087 0.0
H946 H 0.11737 0.07416 0.086 0.0
H947 H 0.14587 0.07489 0.1042 0.0
Tb948 Tb 0.31509 0.78421 0.25196 0.0
C949 C 0.30006 0.84927 0.31307 0.0
C950 C 0.32952 0.86312 0.32949 0.0
C951 C 0.30622 0.88158 0.33216 0.0
C952 C 0.3173 0.84751 0.31779 0.0
C953 C 0.2943 0.86635 0.32016 0.0
C954 C 0.32381 0.87996 0.33684 0.0
C955 C 0.26514 0.85194 0.30357 0.0
N956 N 0.28899 0.8344 0.30125 0.0
C957 C 0.27143 0.83536 0.29706 0.0
C958 C 0.27667 0.86759 0.31511 0.0
Tb959 Tb 0.29883 0.80611 0.29335 0.0
N960 N 0.32241 0.83111 0.30999 0.0
C961 C 0.34055 0.83102 0.31199 0.0
C962 C 0.34731 0.86168 0.33305 0.0
C963 C 0.35291 0.84572 0.3239 0.0
H964 H 0.26182 0.82307 0.28918 0.0
H965 H 0.36691 0.84481 0.32563 0.0
H966 H 0.333 0.89197 0.34587 0.0
H967 H 0.25127 0.85244 0.29997 0.0
H968 H 0.34633 0.82026 0.30408 0.0
H969 H 0.25949 0.72455 0.22191 0.0
H970 H 0.35699 0.87321 0.34211 0.0
H971 H 0.35931 0.78808 0.25376 0.0
H972 H 0.27319 0.75698 0.23908 0.0
H973 H 0.38049 0.76691 0.24638 0.0
H974 H 0.302 0.89473 0.33778 0.0
H975 H 0.27845 0.70106 0.21287 0.0
H976 H 0.30925 0.69353 0.21328 0.0
H977 H 0.27175 0.88042 0.32028 0.0
H978 H 0.34214 0.70473 0.22096 0.0
N979 N 0.30029 0.75285 0.23961 0.0
C980 C 0.28197 0.74734 0.23507 0.0
C981 C 0.2847 0.71553 0.22027 0.0
C982 C 0.30336 0.72111 0.22497 0.0
C983 C 0.27398 0.72873 0.22534 0.0
C984 C 0.31082 0.74016 0.23453 0.0
H985 H 0.36885 0.73206 0.23341 0.0
N986 N 0.33572 0.76519 0.24691 0.0
C987 C 0.36607 0.76087 0.24436 0.0
C988 C 0.32918 0.74642 0.23879 0.0
C989 C 0.35397 0.7728 0.24871 0.0
C990 C 0.35946 0.74123 0.23705 0.0
C991 C 0.3408 0.73386 0.23372 0.0
O992 O 0.32961 0.80267 0.23575 0.0
O993 O 0.31264 0.81088 0.26949 0.0
O994 O 0.28459 0.81327 0.26874 0.0
O995 O 0.28812 0.78918 0.24487 0.0
O996 O 0.33785 0.80774 0.26266 0.0
O997 O 0.30687 0.78024 0.22338 0.0
O998 O 0.27113 0.79416 0.29302 0.0
O999 O 0.29609 0.7808 0.27211 0.0
O1000 O 0.33167 0.77822 0.2757 0.0
O1001 O 0.32226 0.79485 0.303 0.0
O1002 O 0.29711 0.7772 0.29973 0.0
O1003 O 0.28769 0.80648 0.319 0.0
C1004 C 0.32895 0.8196 0.27072 0.0
C1005 C 0.32908 0.79131 0.20411 0.0
C1006 C 0.33913 0.80385 0.17686 0.0
C1007 C 0.33028 0.8054 0.19307 0.0
C1008 C 0.34747 0.78822 0.1721 0.0
C1009 C 0.33727 0.77562 0.1994 0.0
C1010 C 0.34655 0.77417 0.18341 0.0
C1011 C 0.27969 0.80277 0.25172 0.0
C1012 C 0.31961 0.79432 0.22065 0.0
C1013 C 0.33345 0.71464 0.22485 0.0
C1014 C 0.31475 0.70829 0.22041 0.0
C1015 C 0.29504 0.76848 0.28268 0.0
C1016 C 0.26289 0.77985 0.31869 0.0
C1017 C 0.27231 0.772 0.33136 0.0
C1018 C 0.26359 0.75577 0.33833 0.0
C1019 C 0.24532 0.74731 0.33233 0.0
C1020 C 0.2447 0.77122 0.31281 0.0
C1021 C 0.236 0.75497 0.31956 0.0
C1022 C 0.33322 0.7846 0.29418 0.0
C1023 C 0.27182 0.79674 0.3111 0.0
H1024 H 0.3243 0.81775 0.19723 0.0
H1025 H 0.35437 0.78671 0.15956 0.0
H1026 H 0.33654 0.76464 0.20796 0.0
H1027 H 0.3529 0.76209 0.17969 0.0
H1028 H 0.28647 0.77837 0.33565 0.0
H1029 H 0.23812 0.73501 0.33776 0.0
H1030 H 0.23725 0.77704 0.30293 0.0
H1031 H 0.22194 0.74841 0.31502 0.0
Tb1032 Tb 0.57693 0.04591 0.5172 0.0
C1033 C 0.51741 0.01139 0.55083 0.0
C1034 C 0.50119 0.98561 0.52639 0.0
C1035 C 0.50437 0.97971 0.55795 0.0
C1036 C 0.51161 1.00467 0.53232 0.0
C1037 C 0.51308 0.99927 0.56402 0.0
C1038 C 0.49841 0.97288 0.53911 0.0
C1039 C 0.52267 0.02747 0.58822 0.0
N1040 N 0.52515 0.0305 0.55613 0.0
C1041 C 0.52643 0.03888 0.57459 0.0
C1042 C 0.51646 0.00745 0.58293 0.0
Tb1043 Tb 0.53348 0.04715 0.53234 0.0
N1044 N 0.51431 0.01754 0.52059 0.0
C1045 C 0.50496 0.01289 0.5033 0.0
C1046 C 0.49287 0.98035 0.50822 0.0
C1047 C 0.49425 0.99428 0.49686 0.0
H1048 H 0.53097 0.05441 0.57896 0.0
H1049 H 0.48724 0.99063 0.48303 0.0
H1050 H 0.49079 0.95807 0.53473 0.0
H1051 H 0.52447 0.03415 0.60278 0.0
H1052 H 0.50553 0.0233 0.49421 0.0
H1053 H 0.61073 0.10469 0.57214 0.0
H1054 H 0.48466 0.96592 0.50316 0.0
H1055 H 0.58331 0.03615 0.47266 0.0
H1056 H 0.59176 0.07239 0.55918 0.0
H1057 H 0.59947 0.05318 0.44965 0.0
H1058 H 0.50125 0.97007 0.56783 0.0
H1059 H 0.62576 0.12545 0.55118 0.0
H1060 H 0.63227 0.12954 0.51853 0.0
H1061 H 0.51331 0.99865 0.5935 0.0
H1062 H 0.62888 0.11568 0.48507 0.0
N1063 N 0.59491 0.07519 0.53101 0.0
C1064 C 0.598 0.08133 0.54984 0.0
C1065 C 0.61727 0.11133 0.54538 0.0
C1066 C 0.61482 0.10453 0.52615 0.0
C1067 C 0.60889 0.09961 0.55727 0.0
C1068 C 0.60338 0.08619 0.51933 0.0
H1069 H 0.61685 0.08708 0.45925 0.0
N1070 N 0.59081 0.0605 0.49475 0.0
C1071 C 0.59994 0.06057 0.46388 0.0
C1072 C 0.60118 0.07862 0.50052 0.0
C1073 C 0.59081 0.05098 0.47692 0.0
C1074 C 0.60968 0.07973 0.46934 0.0
C1075 C 0.61072 0.08886 0.48795 0.0
O1076 O 0.59012 0.02434 0.50541 0.0
O1077 O 0.55093 0.02817 0.52096 0.0
O1078 O 0.5535 0.05158 0.55634 0.0
O1079 O 0.57189 0.03345 0.54196 0.0
O1080 O 0.56203 0.02182 0.49623 0.0
O1081 O 0.60003 0.04204 0.53203 0.0
O1082 O 0.52229 0.06676 0.55025 0.0
O1083 O 0.56119 0.06407 0.53304 0.0
O1084 O 0.56258 0.05662 0.49587 0.0
O1085 O 0.53291 0.04568 0.50251 0.0
O1086 O 0.54058 0.07613 0.52571 0.0
O1087 O 0.50896 0.0534 0.52311 0.0
C1088 C 0.54872 0.01608 0.50565 0.0
C1089 C 0.62126 0.02893 0.51453 0.0
C1090 C 0.64795 0.01503 0.51421 0.0
C1091 C 0.6299 0.01418 0.5181 0.0
C1092 C 0.65716 0.03053 0.5065 0.0
C1093 C 0.63072 0.04429 0.50683 0.0
C1094 C 0.64854 0.04501 0.50276 0.0
C1095 C 0.56587 0.04125 0.55713 0.0
C1096 C 0.60255 0.0282 0.51923 0.0
C1097 C 0.62158 0.10747 0.49453 0.0
C1098 C 0.62358 0.11533 0.51359 0.0
C1099 C 0.55777 0.07958 0.5289 0.0
C1100 C 0.49074 0.06533 0.54557 0.0
C1101 C 0.47944 0.07646 0.53876 0.0
C1102 C 0.46287 0.07759 0.54629 0.0
C1103 C 0.45811 0.06754 0.56093 0.0
C1104 C 0.48528 0.05502 0.55968 0.0
C1105 C 0.46911 0.05624 0.56737 0.0
C1106 C 0.5449 0.05315 0.49182 0.0
C1107 C 0.5085 0.06547 0.53835 0.0
H1108 H 0.62274 1.00229 0.52415 0.0
H1109 H 0.67105 0.0314 0.5034 0.0
H1110 H 0.62445 0.05579 0.50409 0.0
H1111 H 0.65574 0.05691 0.49682 0.0
H1112 H 0.48359 0.08412 0.52759 0.0
H1113 H 0.44594 0.06851 0.56768 0.0
H1114 H 0.49358 0.04625 0.56495 0.0
H1115 H 0.46514 0.04853 0.57853 0.0
Tb1116 Tb 0.28111 0.29843 0.77046 0.0
C1117 C 0.33953 0.26493 0.80273 0.0
C1118 C 0.35155 0.289 0.83017 0.0
C1119 C 0.35196 0.25517 0.82995 0.0
C1120 C 0.34299 0.28383 0.81191 0.0
C1121 C 0.34458 0.25045 0.81132 0.0
C1122 C 0.35541 0.27445 0.83939 0.0
C1123 C 0.33707 0.22858 0.78171 0.0
N1124 N 0.33277 0.26114 0.78469 0.0
C1125 C 0.33233 0.2435 0.77383 0.0
C1126 C 0.34288 0.23194 0.80065 0.0
Tb1127 Tb 0.32434 0.28605 0.77317 0.0
N1128 N 0.33946 0.29739 0.80229 0.0
C1129 C 0.34594 0.31668 0.80954 0.0
C1130 C 0.35676 0.30866 0.83823 0.0
C1131 C 0.35432 0.32257 0.82769 0.0
H1132 H 0.32774 0.24072 0.75921 0.0
H1133 H 0.35879 0.33785 0.83355 0.0
H1134 H 0.36175 0.27807 0.85352 0.0
H1135 H 0.3362 0.21449 0.7732 0.0
H1136 H 0.34412 0.32776 0.80181 0.0
H1137 H 0.24715 0.24969 0.70808 0.0
H1138 H 0.36331 0.31325 0.85226 0.0
H1139 H 0.27592 0.34265 0.78691 0.0
H1140 H 0.26124 0.25812 0.74015 0.0
H1141 H 0.26762 0.36984 0.77445 0.0
H1142 H 0.3557 0.24421 0.83692 0.0
H1143 H 0.24369 0.27557 0.69058 0.0
H1144 H 0.24567 0.31116 0.69105 0.0
H1145 H 0.34664 0.2204 0.80671 0.0
H1146 H 0.25114 0.34426 0.70938 0.0
N1147 N 0.26669 0.28872 0.74093 0.0
C1148 C 0.25989 0.2697 0.73289 0.0
C1149 C 0.25 0.27941 0.70472 0.0
C1150 C 0.25532 0.29879 0.71366 0.0
C1151 C 0.25183 0.26477 0.71458 0.0
C1152 C 0.26352 0.30295 0.73205 0.0
H1153 H 0.25879 0.36622 0.74078 0.0
N1154 N 0.27267 0.32409 0.7604 0.0
C1155 C 0.26746 0.35636 0.76518 0.0
C1156 C 0.26659 0.32142 0.74224 0.0
C1157 C 0.27218 0.34092 0.77218 0.0
C1158 C 0.26256 0.35429 0.74616 0.0
C1159 C 0.26158 0.33645 0.7345 0.0
O1160 O 0.26708 0.3047 0.79415 0.0
O1161 O 0.30301 0.29452 0.78868 0.0
O1162 O 0.30493 0.26083 0.78076 0.0
O1163 O 0.2774 0.26648 0.77012 0.0
O1164 O 0.29285 0.31891 0.79544 0.0
O1165 O 0.25438 0.28269 0.77142 0.0
O1166 O 0.3392 0.27662 0.75119 0.0
O1167 O 0.30246 0.28977 0.75481 0.0
O1168 O 0.30028 0.32475 0.76467 0.0
O1169 O 0.32818 0.31774 0.77208 0.0
O1170 O 0.31273 0.26542 0.74824 0.0
O1171 O 0.34989 0.30316 0.77 0.0
C1172 C 0.30429 0.30969 0.80091 0.0
C1173 C 0.23529 0.29892 0.78966 0.0
C1174 C 0.20755 0.30042 0.80531 0.0
C1175 C 0.22347 0.2932 0.80309 0.0
C1176 C 0.20428 0.31396 0.79437 0.0
C1177 C 0.23086 0.3115 0.77836 0.0
C1178 C 0.21568 0.31922 0.78093 0.0
C1179 C 0.28709 0.25484 0.77615 0.0
C1180 C 0.25232 0.29211 0.78762 0.0
C1181 C 0.25481 0.33283 0.71571 0.0
C1182 C 0.2517 0.31399 0.70527 0.0
C1183 C 0.30133 0.27457 0.74262 0.0
C1184 C 0.37107 0.28658 0.75608 0.0
C1185 C 0.38347 0.29233 0.74314 0.0
C1186 C 0.40069 0.28759 0.74361 0.0
C1187 C 0.40478 0.27649 0.75678 0.0
C1188 C 0.37603 0.2762 0.76934 0.0
C1189 C 0.39265 0.27103 0.76954 0.0
C1190 C 0.3183 0.33003 0.76781 0.0
C1191 C 0.35295 0.29121 0.75576 0.0
H1192 H 0.22648 0.28293 0.81143 0.0
H1193 H 0.19273 0.3205 0.79605 0.0
H1194 H 0.23913 0.31543 0.76751 0.0
H1195 H 0.21266 0.32929 0.77238 0.0
H1196 H 0.37982 0.30066 0.73305 0.0
H1197 H 0.41745 0.27188 0.75724 0.0
H1198 H 0.36704 0.27198 0.77955 0.0
H1199 H 0.39618 0.26271 0.77967 0.0
Tb1200 Tb 0.05095 0.06825 0.53324 0.0
C1201 C 0.07424 0.01007 0.47508 0.0
C1202 C 0.04919 0.99937 0.45124 0.0
C1203 C 0.07943 0.99722 0.44343 0.0
C1204 C 0.05614 0.00762 0.46974 0.0
C1205 C 0.08611 1.00469 0.46206 0.0
C1206 C 0.06097 0.99449 0.43804 0.0
C1207 C 0.10994 0.01293 0.48711 0.0
N1208 N 0.08005 0.01685 0.49325 0.0
C1209 C 0.0976 0.01782 0.49951 0.0
C1210 C 0.10421 1.00646 0.46826 0.0
Tb1211 Tb 0.05881 0.02432 0.51258 0.0
N1212 N 0.04519 0.01228 0.48294 0.0
C1213 C 0.02685 0.00817 0.47854 0.0
C1214 C 0.03055 0.99564 0.4467 0.0
C1215 C 0.01933 1.00005 0.4604 0.0
H1216 H 0.10233 0.02275 0.51402 0.0
H1217 H 1.00485 0.99704 0.45707 0.0
H1218 H 0.05589 0.98822 0.42375 0.0
H1219 H 0.12385 0.01408 0.49212 0.0
H1220 H 0.01771 0.01122 0.48876 0.0
H1221 H 0.0979 0.08979 0.59525 0.0
H1222 H 0.02463 0.98879 0.43285 0.0
H1223 H 0.00917 0.07736 0.52669 0.0
H1224 H 0.08918 0.08069 0.56168 0.0
H1225 H 0.98527 0.08386 0.54601 0.0
H1226 H 0.08833 0.99307 0.4332 0.0
H1227 H 0.07456 0.0926 0.61716 0.0
H1228 H 0.04215 0.09266 0.62198 0.0
H1229 H 0.11376 1.00251 0.4587 0.0
H1230 H 0.01142 0.09111 0.6085 0.0
N1231 N 0.06089 0.0772 0.56423 0.0
C1232 C 0.07874 0.08158 0.57093 0.0
C1233 C 0.0706 0.08844 0.60236 0.0
C1234 C 0.05256 0.08556 0.59534 0.0
C1235 C 0.08381 0.08693 0.59004 0.0
C1236 C 0.04812 0.08022 0.57594 0.0
H1237 H 0.99017 0.08813 0.58022 0.0
N1238 N 0.02765 0.0762 0.54948 0.0
C1239 C 0.99797 0.0825 0.55247 0.0
C1240 C 0.03093 0.07974 0.56834 0.0
C1241 C 0.01168 0.07855 0.54149 0.0
C1242 C 1.00079 0.0849 0.57176 0.0
C1243 C 0.01757 0.08402 0.57996 0.0
O1244 O 0.05292 0.0883 0.51494 0.0
O1245 O 0.04997 0.04964 0.50579 0.0
O1246 O 0.07884 0.0467 0.50319 0.0
O1247 O 0.07967 0.0699 0.52921 0.0
O1248 O 0.02899 0.06236 0.51066 0.0
O1249 O 0.0634 0.09746 0.54343 0.0
O1250 O 0.06866 1.0037 0.52473 0.0
O1251 O 0.05951 0.04264 0.54012 0.0
O1252 O 0.02822 0.0475 0.54068 0.0
O1253 O 0.03051 0.02064 0.5192 0.0
O1254 O 0.08089 0.03056 0.53499 0.0
O1255 O 0.04128 0.99717 0.51187 0.0
C1256 C 0.03496 0.05147 0.49777 0.0
C1257 C 0.05276 0.12012 0.5287 0.0
C1258 C 0.05108 0.14914 0.51638 0.0
C1259 C 0.05759 0.1322 0.51583 0.0
C1260 C 0.03944 0.15373 0.52988 0.0
C1261 C 0.04122 0.12486 0.54219 0.0
C1262 C 0.03453 0.14159 0.54268 0.0
C1263 C 0.08704 0.063 0.51439 0.0
C1264 C 0.06029 0.10292 0.52784 0.0
C1265 C 0.02157 0.08798 0.59935 0.0
C1266 C 0.03905 0.08881 0.60703 0.0
C1267 C 0.07443 0.04054 0.5481 0.0
C1268 C 0.05463 0.97098 0.51566 0.0
C1269 C 0.04957 0.9588 0.52835 0.0
C1270 C 0.05251 0.94001 0.5254 0.0
C1271 C 0.06033 0.93334 0.50933 0.0
C1272 C 0.06234 0.96435 0.49959 0.0
C1273 C 0.06508 0.94545 0.49641 0.0
C1274 C 0.0218 0.0296 0.53172 0.0
C1275 C 0.05341 0.99104 0.52098 0.0
H1276 H 0.06641 0.12834 0.50535 0.0
H1277 H 0.0344 0.16686 0.53076 0.0
H1278 H 0.03752 0.11583 0.55243 0.0
H1279 H 0.02568 0.14527 0.55313 0.0
H1280 H 0.04407 0.9643 0.54102 0.0
H1281 H 0.06273 0.91881 0.50678 0.0
H1282 H 0.06653 0.97381 0.4898 0.0
H1283 H 0.07116 0.94028 0.48408 0.0
Tb1284 Tb 0.32233 0.80453 0.7658 0.0
C1285 C 0.27628 0.74912 0.80648 0.0
C1286 C 0.28293 0.71814 0.79432 0.0
C1287 C 0.27313 0.724 0.82538 0.0
C1288 C 0.28193 0.73713 0.79237 0.0
C1289 C 0.27136 0.74255 0.82297 0.0
C1290 C 0.27894 0.71182 0.81108 0.0
C1291 C 0.26165 0.77233 0.83264 0.0
N1292 N 0.27449 0.76681 0.80348 0.0
C1293 C 0.26663 0.77815 0.81602 0.0
C1294 C 0.26418 0.75452 0.83622 0.0
Tb1295 Tb 0.28325 0.77512 0.7759 0.0
N1296 N 0.2853 0.74367 0.7763 0.0
C1297 C 0.28859 0.7313 0.76112 0.0
C1298 C 0.2873 0.70587 0.77916 0.0
C1299 C 0.28987 0.7124 0.7624 0.0
H1300 H 0.2642 0.79176 0.81341 0.0
H1301 H 0.29291 0.70292 0.75045 0.0
H1302 H 0.2798 0.69735 0.81291 0.0
H1303 H 0.25567 0.78151 0.84256 0.0
H1304 H 0.29065 0.73592 0.74798 0.0
H1305 H 0.31391 0.87718 0.79048 0.0
H1306 H 0.28825 0.69119 0.7801 0.0
H1307 H 0.34023 0.78623 0.72777 0.0
H1308 H 0.31487 0.84383 0.79306 0.0
H1309 H 0.34944 0.79632 0.69876 0.0
H1310 H 0.26959 0.71876 0.83804 0.0
H1311 H 0.32013 0.88882 0.76118 0.0
H1312 H 0.32833 0.88209 0.72824 0.0
H1313 H 0.26003 0.74985 0.84894 0.0
H1314 H 0.33785 0.86001 0.70321 0.0
N1315 N 0.32046 0.83581 0.76489 0.0
C1316 C 0.31721 0.84837 0.77992 0.0
C1317 C 0.32005 0.8739 0.76193 0.0
C1318 C 0.32406 0.8613 0.7468 0.0
C1319 C 0.31672 0.86744 0.77859 0.0
C1320 C 0.3243 0.84214 0.7488 0.0
H1321 H 0.34608 0.82814 0.69223 0.0
N1322 N 0.33088 0.81188 0.7378 0.0
C1323 C 0.34378 0.8058 0.7087 0.0
C1324 C 0.32973 0.82978 0.73477 0.0
C1325 C 0.33844 0.80013 0.72529 0.0
C1326 C 0.34183 0.82376 0.70505 0.0
C1327 C 0.33502 0.83614 0.71828 0.0
O1328 O 0.34839 0.79939 0.76879 0.0
O1329 O 0.31242 0.77651 0.77494 0.0
O1330 O 0.30036 0.7832 0.80169 0.0
O1331 O 0.31703 0.81161 0.79493 0.0
O1332 O 0.32938 0.77668 0.75483 0.0
O1333 O 0.34284 0.826 0.78268 0.0
O1334 O 0.25671 0.77913 0.77462 0.0
O1335 O 0.29321 0.80332 0.76718 0.0
O1336 O 0.30518 0.79613 0.73977 0.0
O1337 O 0.28837 0.76808 0.74691 0.0
O1338 O 0.27586 0.80292 0.78687 0.0
O1339 O 0.26359 0.75511 0.75689 0.0
C1340 C 0.32126 0.76542 0.76516 0.0
C1341 C 0.37276 0.82616 0.7749 0.0
C1342 C 0.40539 0.83333 0.7826 0.0
C1343 C 0.38765 0.82777 0.78754 0.0
C1344 C 0.40777 0.83832 0.76491 0.0
C1345 C 0.3754 0.83171 0.75763 0.0
C1346 C 0.39285 0.8379 0.75274 0.0
C1347 C 0.31132 0.80027 0.80678 0.0
C1348 C 0.35509 0.81608 0.77928 0.0
C1349 C 0.33397 0.85489 0.71583 0.0
C1350 C 0.32853 0.86746 0.73009 0.0
C1351 C 0.28427 0.8144 0.7769 0.0
C1352 C 0.23352 0.75159 0.76477 0.0
C1353 C 0.21832 0.75288 0.75396 0.0
C1354 C 0.20096 0.74372 0.75742 0.0
C1355 C 0.19912 0.73244 0.77149 0.0
C1356 C 0.2316 0.74026 0.77867 0.0
C1357 C 0.21441 0.7306 0.78191 0.0
C1358 C 0.29386 0.77917 0.73481 0.0
C1359 C 0.25079 0.76371 0.76201 0.0
H1360 H 0.38517 0.82409 0.80106 0.0
H1361 H 0.42104 0.84214 0.76015 0.0
H1362 H 0.36414 0.83083 0.74775 0.0
H1363 H 0.39484 0.84179 0.73921 0.0
H1364 H 0.22012 0.76141 0.743 0.0
H1365 H 0.18591 0.72539 0.77473 0.0
H1366 H 0.24323 0.73906 0.78712 0.0
H1367 H 0.21291 0.72198 0.79278 0.0
Tb1368 Tb 0.56275 0.04371 0.04913 0.0
C1369 C 0.50508 0.04501 0.99019 0.0
C1370 C 0.49245 0.01275 0.97302 0.0
C1371 C 0.47275 0.03486 0.981 0.0
C1372 C 0.50732 0.02701 0.98248 0.0
C1373 C 0.48791 0.04951 0.98868 0.0
C1374 C 0.47503 0.01643 0.97316 0.0
C1375 C 0.50252 0.08315 0.99848 0.0
N1376 N 0.52014 0.0587 0.99717 0.0
C1377 C 0.51915 0.07788 0.9995 0.0
C1378 C 0.4867 0.06881 0.99372 0.0
Tb1379 Tb 0.54659 0.04773 1.00159 0.0
N1380 N 0.5244 0.02429 0.98243 0.0
C1381 C 0.52771 0.00887 0.97037 0.0
C1382 C 0.49571 0.99576 0.9628 0.0
C1383 C 0.51349 0.9941 0.96096 0.0
H1384 H 0.53121 0.08937 1.00247 0.0
H1385 H 0.51629 0.98156 0.95217 0.0
H1386 H 0.46339 1.00551 0.96638 0.0
H1387 H 0.502 0.09831 1.00107 0.0
H1388 H 0.54134 0.00759 0.96832 0.0
H1389 H 0.6063 0.11066 0.0881 0.0
H1390 H 0.4847 0.98444 0.95535 0.0
H1391 H 0.56813 0.99905 0.05374 0.0
H1392 H 0.57722 0.08871 0.07637 0.0
H1393 H 0.59342 0.98304 0.05704 0.0
H1394 H 0.45941 0.03793 0.98011 0.0
H1395 H 0.63457 0.099 0.08544 0.0
H1396 H 0.64923 0.07078 0.07828 0.0
H1397 H 0.4738 0.0729 0.99274 0.0
H1398 H 0.64569 0.03545 0.06981 0.0
N1399 N 0.58867 0.06509 0.06446 0.0
C1400 C 0.58936 0.08342 0.07417 0.0
C1401 C 0.62179 0.08934 0.07973 0.0
C1402 C 0.6208 0.06988 0.07228 0.0
C1403 C 0.60589 0.09597 0.08123 0.0
C1404 C 0.60381 0.05795 0.06487 0.0
H1405 H 0.62484 1.00248 0.06218 0.0
N1406 N 0.58501 0.02717 0.05474 0.0
C1407 C 0.59608 0.99856 0.05754 0.0
C1408 C 0.60189 0.0382 0.05992 0.0
C1409 C 0.58179 0.00773 0.05554 0.0
C1410 C 0.61377 0.00956 0.0604 0.0
C1411 C 0.6168 0.02973 0.06248 0.0
O1412 O 0.5482 0.02214 0.06214 0.0
O1413 O 0.54122 0.03688 0.02672 0.0
O1414 O 0.54248 0.07148 0.02283 0.0
O1415 O 0.56489 0.07375 0.04613 0.0
O1416 O 0.53486 0.04593 0.05313 0.0
O1417 O 0.55696 0.05224 0.07636 0.0
O1418 O 0.55772 0.07405 0.99329 0.0
O1419 O 0.56796 0.05379 0.02376 0.0
O1420 O 0.56626 0.01887 0.02885 0.0
O1421 O 0.5469 0.01746 1.00244 0.0
O1422 O 0.57446 0.04517 0.99735 0.0
O1423 O 0.55642 0.04628 0.97543 0.0
C1424 C 0.52851 0.03967 0.03619 0.0
C1425 C 0.55116 0.02852 0.09499 0.0
C1426 C 0.53935 0.02443 0.12442 0.0
C1427 C 0.53752 0.02918 0.10682 0.0
C1428 C 0.55515 0.01903 0.13024 0.0
C1429 C 0.56699 0.02319 0.10071 0.0
C1430 C 0.56889 0.01832 0.11832 0.0
C1431 C 0.55224 0.08065 0.03837 0.0
C1432 C 0.54845 0.03468 0.07736 0.0
C1433 C 0.63402 0.04167 0.06821 0.0
C1434 C 0.63603 0.06177 0.07306 0.0
C1435 C 0.58067 0.05066 0.01448 0.0
C1436 C 0.55815 0.07306 0.96075 0.0
C1437 C 0.57035 0.07142 0.9474 0.0
C1438 C 0.56828 0.07829 0.93083 0.0
C1439 C 0.55369 0.08689 0.92768 0.0
C1440 C 0.54361 0.08167 0.95765 0.0
C1441 C 0.54144 0.08862 0.94112 0.0
C1442 C 0.55828 0.01036 0.01216 0.0
C1443 C 0.56121 0.06508 0.97735 0.0
H1444 H 0.52568 0.03415 0.10259 0.0
H1445 H 0.55685 0.01543 0.14392 0.0
H1446 H 0.57788 0.02313 0.09184 0.0
H1447 H 0.5811 0.01423 0.12283 0.0
H1448 H 0.58132 0.0643 0.94976 0.0
H1449 H 0.55181 0.0923 0.91492 0.0
H1450 H 0.53395 0.08293 0.96778 0.0
H1451 H 0.53022 0.09527 0.93867 0.0
Tb1452 Tb 0.31425 0.30882 0.27742 0.0
C1453 C 0.24417 0.25593 0.26001 0.0
C1454 C 0.23622 0.22939 0.27682 0.0
C1455 C 0.21291 0.24462 0.26618 0.0
C1456 C 0.24923 0.2423 0.26922 0.0
C1457 C 0.22588 0.25722 0.2584 0.0
C1458 C 0.21807 0.23075 0.27539 0.0
C1459 C 0.23451 0.28377 0.24211 0.0
N1460 N 0.2572 0.26826 0.25313 0.0
C1461 C 0.25248 0.28218 0.24427 0.0
C1462 C 0.22115 0.27126 0.24921 0.0
Tb1463 Tb 0.28606 0.26294 0.25667 0.0
N1464 N 0.26687 0.24144 0.27042 0.0
C1465 C 0.27214 0.22681 0.27762 0.0
C1466 C 0.24179 0.21527 0.28534 0.0
C1467 C 0.25981 0.21384 0.28555 0.0
H1468 H 0.26234 0.29288 0.23943 0.0
H1469 H 0.26419 0.20263 0.29163 0.0
H1470 H 0.2079 0.22102 0.28122 0.0
H1471 H 0.23105 0.29492 0.23524 0.0
H1472 H 0.28595 0.22527 0.27731 0.0
H1473 H 0.36941 0.31294 0.2341 0.0
H1474 H 0.23221 0.20512 0.29137 0.0
H1475 H 0.31363 0.32649 0.32221 0.0
H1476 H 0.33779 0.30451 0.24042 0.0
H1477 H 0.33544 0.33867 0.34985 0.0
H1478 H 0.19884 0.24548 0.26515 0.0
H1479 H 0.39359 0.32337 0.26002 0.0
H1480 H 0.40226 0.33194 0.29448 0.0
H1481 H 0.20727 0.27272 0.24771 0.0
H1482 H 0.39295 0.33829 0.32618 0.0
N1483 N 0.34338 0.31108 0.27001 0.0
C1484 C 0.34794 0.30937 0.25205 0.0
C1485 C 0.37959 0.31997 0.26299 0.0
C1486 C 0.3749 0.32194 0.28132 0.0
C1487 C 0.36601 0.31398 0.24832 0.0
C1488 C 0.35643 0.31769 0.28439 0.0
H1489 H 0.36805 0.34084 0.34701 0.0
N1490 N 0.3333 0.31948 0.30413 0.0
C1491 C 0.34006 0.3337 0.33656 0.0
C1492 C 0.3512 0.32163 0.30212 0.0
C1493 C 0.32768 0.32652 0.32084 0.0
C1494 C 0.35844 0.33489 0.3349 0.0
C1495 C 0.36427 0.32941 0.31741 0.0
O1496 O 0.30081 0.33184 0.28113 0.0
O1497 O 0.28693 0.29207 0.26945 0.0
O1498 O 0.2874 0.28051 0.23483 0.0
O1499 O 0.30904 0.30843 0.24774 0.0
O1500 O 0.293 0.30911 0.29587 0.0
O1501 O 0.32692 0.33544 0.27071 0.0
O1502 O 0.29393 0.25519 0.22986 0.0
O1503 O 0.31302 0.28073 0.26105 0.0
O1504 O 0.31523 0.29077 0.29894 0.0
O1505 O 0.29242 0.26274 0.28689 0.0
O1506 O 0.30972 0.25266 0.26513 0.0
O1507 O 0.275 0.23493 0.2413 0.0
C1508 C 0.28063 0.2968 0.28476 0.0
C1509 C 0.31869 0.36327 0.28619 0.0
C1510 C 0.31258 0.3953 0.28974 0.0
C1511 C 0.30839 0.3758 0.28136 0.0
C1512 C 0.32688 0.40214 0.30383 0.0
C1513 C 0.33318 0.36999 0.30005 0.0
C1514 C 0.33713 0.38943 0.30897 0.0
C1515 C 0.29785 0.29749 0.23381 0.0
C1516 C 0.31389 0.34363 0.27566 0.0
C1517 C 0.38271 0.33243 0.3146 0.0
C1518 C 0.38801 0.32882 0.29655 0.0
C1519 C 0.32153 0.26848 0.26533 0.0
C1520 C 0.29493 0.22266 0.22159 0.0
C1521 C 0.30252 0.21353 0.2345 0.0
C1522 C 0.31253 0.19976 0.22856 0.0
C1523 C 0.31502 0.19518 0.2096 0.0
C1524 C 0.29753 0.21807 0.20271 0.0
C1525 C 0.30754 0.20434 0.19675 0.0
C1526 C 0.30434 0.274 0.30054 0.0
C1527 C 0.28484 0.23747 0.22766 0.0
H1528 H 0.297 0.37024 0.27085 0.0
H1529 H 0.33025 0.41722 0.31061 0.0
H1530 H 0.34142 0.3604 0.30382 0.0
H1531 H 0.34826 0.39471 0.31971 0.0
H1532 H 0.30048 0.21688 0.24909 0.0
H1533 H 0.32289 0.18468 0.20477 0.0
H1534 H 0.29187 0.22516 0.19262 0.0
H1535 H 0.30955 0.20084 0.18217 0.0
Tb1536 Tb 0.55041 0.56645 0.03256 0.0
C1537 C 0.5729 0.50888 0.97413 0.0
C1538 C 0.54757 0.49966 0.95055 0.0
C1539 C 0.57757 0.49725 0.94202 0.0
C1540 C 0.55478 0.50691 0.96916 0.0
C1541 C 0.58449 0.50373 0.96071 0.0
C1542 C 0.55913 0.49524 0.93695 0.0
C1543 C 0.60848 0.51021 0.98547 0.0
N1544 N 0.57898 0.51488 0.99233 0.0
C1545 C 0.59643 0.515 0.99825 0.0
C1546 C 0.60254 0.50472 0.96658 0.0
Tb1547 Tb 0.55825 0.52243 0.01221 0.0
N1548 N 0.54405 0.51103 0.98276 0.0
C1549 C 0.52567 0.50685 0.9788 0.0
C1550 C 0.5289 0.49649 0.94629 0.0
C1551 C 0.51788 0.49986 0.96054 0.0
H1552 H 0.60124 0.51915 0.0128 0.0
H1553 H 0.50338 0.4971 0.95747 0.0
H1554 H 0.55387 0.48979 0.92255 0.0
H1555 H 0.62233 0.51068 0.99021 0.0
H1556 H 0.51681 0.50929 0.98952 0.0
H1557 H 0.59844 0.58787 0.0937 0.0
H1558 H 0.52283 0.491 0.93216 0.0
H1559 H 0.50943 0.57728 0.02687 0.0
H1560 H 0.58917 0.57889 0.06025 0.0
H1561 H 0.48602 0.58457 0.04671 0.0
H1562 H 0.58627 0.49334 0.93148 0.0
H1563 H 0.57553 0.59043 0.11614 0.0
H1564 H 0.54331 0.59069 0.12162 0.0
H1565 H 0.61187 0.50087 0.95671 0.0
H1566 H 0.51256 0.58991 0.10873 0.0
N1567 N 0.5609 0.5749 0.0634 0.0
C1568 C 0.57886 0.57956 0.06973 0.0
C1569 C 0.5713 0.58623 0.10138 0.0
C1570 C 0.55315 0.58332 0.09474 0.0
C1571 C 0.58427 0.58486 0.08877 0.0
C1572 C 0.54835 0.57793 0.07539 0.0
H1573 H 0.49119 0.58803 0.08083 0.0
N1574 N 0.52761 0.57476 0.04929 0.0
C1575 C 0.49855 0.58247 0.0529 0.0
C1576 C 0.53112 0.57788 0.0681 0.0
C1577 C 0.51192 0.57808 0.04164 0.0
C1578 C 0.50151 0.58439 0.07214 0.0
C1579 C 0.51813 0.58264 0.08001 0.0
O1580 O 0.55427 0.58637 0.01407 0.0
O1581 O 0.54918 0.54766 1.00524 0.0
O1582 O 0.57858 0.54452 1.00286 0.0
O1583 O 0.5791 0.56853 0.0282 0.0
O1584 O 0.52832 0.56073 0.01025 0.0
O1585 O 0.56104 0.59594 0.04331 0.0
O1586 O 0.56855 0.50183 0.02401 0.0
O1587 O 0.55885 0.54079 0.03973 0.0
O1588 O 0.52633 0.54624 0.03836 0.0
O1589 O 0.53054 0.51783 0.02051 0.0
O1590 O 0.58052 0.52913 0.03435 0.0
O1591 O 0.54128 0.49485 0.0108 0.0
C1592 C 0.53414 0.54965 0.99739 0.0
C1593 C 0.5515 0.61778 0.02664 0.0
C1594 C 0.54931 0.64549 0.01246 0.0
C1595 C 0.55679 0.62945 0.01352 0.0
C1596 C 0.53638 0.64978 0.0245 0.0
C1597 C 0.53892 0.62246 0.039 0.0
C1598 C 0.53129 0.63832 0.03779 0.0
C1599 C 0.58632 0.56136 0.01341 0.0
C1600 C 0.55969 0.6012 0.02735 0.0
C1601 C 0.52243 0.58643 0.09936 0.0
C1602 C 0.53993 0.58682 0.10671 0.0
C1603 C 0.57389 0.53881 0.04756 0.0
C1604 C 0.5552 0.46895 0.01401 0.0
C1605 C 0.55014 0.45621 0.02621 0.0
C1606 C 0.55288 0.43734 0.0225 0.0
C1607 C 0.56071 0.43124 0.00625 0.0
C1608 C 0.56287 0.46286 0.99773 0.0
C1609 C 0.56556 0.44395 0.99387 0.0
C1610 C 0.52087 0.5276 0.03123 0.0
C1611 C 0.55355 0.48882 0.01981 0.0
H1612 H 0.5667 0.62603 1.00412 0.0
H1613 H 0.53053 0.66221 0.02387 0.0
H1614 H 0.53514 0.61408 0.0497 0.0
H1615 H 0.52156 0.64185 0.04729 0.0
H1616 H 0.54456 0.46124 0.03899 0.0
H1617 H 0.56293 0.41667 1.00309 0.0
H1618 H 0.56698 0.4727 0.98826 0.0
H1619 H 0.57157 0.4392 0.98135 0.0
Tb1620 Tb 0.82586 0.31052 0.26586 0.0
C1621 C 0.78018 0.25104 0.30247 0.0
C1622 C 0.78373 0.2202 0.28567 0.0
C1623 C 0.77532 0.2228 0.31741 0.0
C1624 C 0.78431 0.24008 0.28655 0.0
C1625 C 0.77552 0.24253 0.31805 0.0
C1626 C 0.77936 0.21165 0.30123 0.0
C1627 C 0.77041 0.27328 0.33322 0.0
N1628 N 0.78013 0.26993 0.30242 0.0
C1629 C 0.77482 0.28099 0.31731 0.0
C1630 C 0.77082 0.25399 0.33363 0.0
Tb1631 Tb 0.78657 0.28037 0.27524 0.0
N1632 N 0.78863 0.24883 0.27182 0.0
C1633 C 0.79213 0.2384 0.25558 0.0
C1634 C 0.78739 0.20947 0.26912 0.0
C1635 C 0.79159 0.21859 0.25398 0.0
H1636 H 0.77429 0.29586 0.3171 0.0
H1637 H 0.79434 0.2104 0.24107 0.0
H1638 H 0.77894 0.19639 0.30084 0.0
H1639 H 0.76656 0.2822 0.3451 0.0
H1640 H 0.79521 0.24521 0.24376 0.0
H1641 H 0.81932 0.38142 0.2996 0.0
H1642 H 0.78684 0.19415 0.26791 0.0
H1643 H 0.8409 0.3005 0.22313 0.0
H1644 H 0.82739 0.34993 0.29813 0.0
H1645 H 0.83754 0.31078 0.19299 0.0
H1646 H 0.7718 0.21598 0.32925 0.0
H1647 H 0.80973 0.39163 0.2707 0.0
H1648 H 0.80574 0.38511 0.23576 0.0
H1649 H 0.76721 0.248 0.34591 0.0
H1650 H 0.8102 0.36526 0.20631 0.0
N1651 N 0.82034 0.34098 0.26884 0.0
C1652 C 0.8224 0.35359 0.28545 0.0
C1653 C 0.81288 0.3775 0.27 0.0
C1654 C 0.81273 0.36539 0.25288 0.0
C1655 C 0.81823 0.37177 0.28634 0.0
C1656 C 0.81683 0.34708 0.25275 0.0
H1657 H 0.82248 0.33768 0.19021 0.0
N1658 N 0.82599 0.31989 0.23709 0.0
C1659 C 0.83211 0.31781 0.20496 0.0
C1660 C 0.81943 0.33594 0.23623 0.0
C1661 C 0.8339 0.31199 0.22211 0.0
C1662 C 0.82354 0.33293 0.20344 0.0
C1663 C 0.81782 0.34277 0.21936 0.0
O1664 O 0.8499 0.32809 0.26036 0.0
O1665 O 0.81513 0.28101 0.2709 0.0
O1666 O 0.80591 0.28608 0.29934 0.0
O1667 O 0.82 0.31624 0.29471 0.0
O1668 O 0.84024 0.28642 0.26317 0.0
O1669 O 0.84834 0.31695 0.28592 0.0
O1670 O 0.75998 0.28283 0.27895 0.0
O1671 O 0.79633 0.30902 0.26706 0.0
O1672 O 0.81675 0.28872 0.24127 0.0
O1673 O 0.78663 0.2786 0.24535 0.0
O1674 O 0.78003 0.30792 0.28817 0.0
O1675 O 0.76581 0.26185 0.25642 0.0
C1676 C 0.82895 0.27281 0.26867 0.0
C1677 C 0.87553 0.31884 0.27155 0.0
C1678 C 0.90575 0.31735 0.28249 0.0
C1679 C 0.88959 0.32323 0.28574 0.0
C1680 C 0.90773 0.30688 0.26501 0.0
C1681 C 0.87758 0.30817 0.25414 0.0
C1682 C 0.89363 0.30224 0.25093 0.0
C1683 C 0.8155 0.30362 0.30569 0.0
C1684 C 0.8589 0.32561 0.27499 0.0
C1685 C 0.81187 0.36 0.21919 0.0
C1686 C 0.80938 0.37134 0.23596 0.0
C1687 C 0.78753 0.31949 0.27773 0.0
C1688 C 0.73622 0.25626 0.26609 0.0
C1689 C 0.72142 0.2576 0.25471 0.0
C1690 C 0.70396 0.24748 0.25674 0.0
C1691 C 0.70166 0.23503 0.26981 0.0
C1692 C 0.73386 0.24396 0.27916 0.0
C1693 C 0.7166 0.23319 0.28084 0.0
C1694 C 0.80012 0.28012 0.23491 0.0
C1695 C 0.75341 0.26926 0.26461 0.0
H1696 H 0.88805 0.33142 0.29919 0.0
H1697 H 0.92009 0.30206 0.26236 0.0
H1698 H 0.86685 0.30442 0.243 0.0
H1699 H 0.89513 0.29403 0.23752 0.0
H1700 H 0.72354 0.26699 0.24448 0.0
H1701 H 0.68833 0.22715 0.27186 0.0
H1702 H 0.74516 0.24285 0.28816 0.0
H1703 H 0.71473 0.22376 0.291 0.0
Tb1704 Tb 0.06455 0.53935 0.55583 0.0
C1705 C 0.01422 0.56178 0.49932 0.0
C1706 C 0.99189 0.53262 0.48658 0.0
C1707 C 0.98381 0.5639 0.48942 0.0
C1708 C 0.00945 0.54201 0.49467 0.0
C1709 C 1.00176 0.57312 0.49599 0.0
C1710 C 0.97886 0.54361 0.48473 0.0
C1711 C 0.02652 0.60123 0.50212 0.0
N1712 N 0.03181 0.5699 0.5049 0.0
C1713 C 0.03835 0.58923 0.505 0.0
C1714 C 0.00803 0.59321 0.49812 0.0
Tb1715 Tb 0.05042 0.54966 0.51058 0.0
N1716 N 0.02265 0.53218 0.4963 0.0
C1717 C 0.01944 0.51288 0.48851 0.0
C1718 C 0.98831 0.5127 0.47964 0.0
C1719 C 1.00227 0.50288 0.48023 0.0
H1720 H 0.05261 0.59558 0.50814 0.0
H1721 H 0.9998 0.48755 0.47448 0.0
H1722 H 0.96521 0.53666 0.47883 0.0
H1723 H 0.03168 0.61665 0.50301 0.0
H1724 H 0.02986 0.50482 0.48888 0.0
H1725 H 0.10372 0.60803 0.59722 0.0
H1726 H 0.97503 0.50493 0.47324 0.0
H1727 H 0.073 0.49472 0.54928 0.0
H1728 H 0.07784 0.588 0.5782 0.0
H1729 H 0.09744 0.47954 0.55799 0.0
H1730 H 0.97393 0.57232 0.48695 0.0
H1731 H 0.12947 0.59453 0.60601 0.0
H1732 H 0.14383 0.56639 0.60418 0.0
H1733 H 0.99891 0.60248 0.49574 0.0
H1734 H 0.1424 0.53182 0.59331 0.0
N1735 N 0.08787 0.56161 0.57469 0.0
C1736 C 0.08845 0.58092 0.58126 0.0
C1737 C 0.11794 0.58521 0.59729 0.0
C1738 C 0.11741 0.56565 0.59102 0.0
C1739 C 0.10342 0.59285 0.59239 0.0
C1740 C 0.10203 0.55398 0.57972 0.0
H1741 H 0.1253 0.49952 0.57623 0.0
N1742 N 0.08683 0.52353 0.56211 0.0
C1743 C 0.09884 0.49501 0.56228 0.0
C1744 C 0.10148 0.53448 0.57323 0.0
C1745 C 0.08497 0.50377 0.55746 0.0
C1746 C 0.11451 0.50634 0.57255 0.0
C1747 C 0.11591 0.52622 0.57837 0.0
O1748 O 0.05078 0.51244 0.56104 0.0
O1749 O 0.04458 0.53242 0.53174 0.0
O1750 O 0.03986 0.56826 0.532 0.0
O1751 O 0.05615 0.56675 0.55997 0.0
O1752 O 0.03588 0.53649 0.55808 0.0
O1753 O 0.05833 0.53855 0.58321 0.0
O1754 O 0.06772 0.56438 0.49357 0.0
O1755 O 0.07128 0.55263 0.53252 0.0
O1756 O 0.0774 0.52462 0.53357 0.0
O1757 O 0.05591 0.52071 0.50907 0.0
O1758 O 0.0728 0.57536 0.51894 0.0
O1759 O 0.05462 0.53449 0.48471 0.0
C1760 C 0.03084 0.53172 0.5407 0.0
C1761 C 0.04644 0.50821 0.5924 0.0
C1762 C 0.0299 0.50191 0.61891 0.0
C1763 C 0.03468 0.51314 0.60536 0.0
C1764 C 0.03736 0.48568 0.61959 0.0
C1765 C 0.05365 0.49186 0.59283 0.0
C1766 C 0.04916 0.48068 0.60654 0.0
C1767 C 0.04551 0.57443 0.5499 0.0
C1768 C 0.04985 0.52028 0.57835 0.0
C1769 C 0.13116 0.5379 0.5894 0.0
C1770 C 0.13194 0.55756 0.59565 0.0
C1771 C 0.08046 0.56917 0.53203 0.0
C1772 C 0.05912 0.5536 0.46194 0.0
C1773 C 0.07099 0.55232 0.4483 0.0
C1774 C 0.06668 0.55621 0.43073 0.0
C1775 C 0.05012 0.56119 0.42686 0.0
C1776 C 0.04256 0.55847 0.45808 0.0
C1777 C 0.0381 0.56227 0.44054 0.0
C1778 C 0.0705 0.5166 0.51649 0.0
C1779 C 0.06441 0.54967 0.48002 0.0
H1780 H 0.02925 0.52592 0.60491 0.0
H1781 H 0.03391 0.47679 0.63002 0.0
H1782 H 0.0626 0.48772 0.58269 0.0
H1783 H 0.05475 0.46807 0.60699 0.0
H1784 H 0.08356 0.54807 0.45136 0.0
H1785 H 0.04657 0.56441 0.41338 0.0
H1786 H 0.03313 0.55927 0.46847 0.0
H1787 H 0.02535 0.56608 0.43757 0.0
Tb1788 Tb 0.78257 0.79945 0.27275 0.0
C1789 C 0.8412 0.76569 0.30275 0.0
C1790 C 0.85415 0.79014 0.32958 0.0
C1791 C 0.85407 0.75633 0.32998 0.0
C1792 C 0.84494 0.78469 0.31163 0.0
C1793 C 0.84631 0.75133 0.31149 0.0
C1794 C 0.85803 0.77576 0.33903 0.0
C1795 C 0.83858 0.72914 0.28209 0.0
N1796 N 0.83439 0.76174 0.28474 0.0
C1797 C 0.83403 0.74403 0.27401 0.0
C1798 C 0.84442 0.7327 0.30102 0.0
Tb1799 Tb 0.82557 0.78644 0.27306 0.0
N1800 N 0.84143 0.79807 0.30177 0.0
C1801 C 0.84847 0.81739 0.30846 0.0
C1802 C 0.86019 0.80987 0.33694 0.0
C1803 C 0.85769 0.82356 0.3262 0.0
H1804 H 0.82941 0.74115 0.25938 0.0
H1805 H 0.8628 0.83887 0.33158 0.0
H1806 H 0.86485 0.77962 0.35295 0.0
H1807 H 0.83761 0.71497 0.27371 0.0
H1808 H 0.84669 0.82834 0.30058 0.0
H1809 H 0.74567 0.74665 0.21418 0.0
H1810 H 0.86763 0.81468 0.35043 0.0
H1811 H 0.77777 0.84427 0.28636 0.0
H1812 H 0.76131 0.7574 0.24546 0.0
H1813 H 0.76877 0.87012 0.27209 0.0
H1814 H 0.85788 0.74547 0.33707 0.0
H1815 H 0.74159 0.77068 0.19463 0.0
H1816 H 0.74387 0.80575 0.19235 0.0
H1817 H 0.84816 0.72122 0.30721 0.0
H1818 H 0.7501 0.83983 0.20836 0.0
N1819 N 0.76675 0.78758 0.24398 0.0
C1820 C 0.75964 0.76826 0.23739 0.0
C1821 C 0.74853 0.77557 0.20847 0.0
C1822 C 0.75434 0.79534 0.21591 0.0
C1823 C 0.7507 0.76198 0.2195 0.0
C1824 C 0.7633 0.80088 0.23399 0.0
H1825 H 0.75881 0.86394 0.23844 0.0
N1826 N 0.77347 0.82388 0.26093 0.0
C1827 C 0.76828 0.85609 0.26365 0.0
C1828 C 0.7668 0.81986 0.24286 0.0
C1829 C 0.77329 0.84138 0.2717 0.0
C1830 C 0.76278 0.85258 0.24464 0.0
C1831 C 0.76147 0.83409 0.23409 0.0
O1832 O 0.76844 0.80961 0.29509 0.0
O1833 O 0.80501 0.79508 0.28997 0.0
O1834 O 0.80656 0.76049 0.27945 0.0
O1835 O 0.77844 0.76792 0.27445 0.0
O1836 O 0.79538 0.8197 0.29758 0.0
O1837 O 0.75732 0.78262 0.2772 0.0
O1838 O 0.84017 0.77607 0.2512 0.0
O1839 O 0.8031 0.79067 0.25582 0.0
O1840 O 0.80161 0.82557 0.26635 0.0
O1841 O 0.82957 0.81805 0.27195 0.0
O1842 O 0.81289 0.76615 0.24829 0.0
O1843 O 0.85037 0.80378 0.26817 0.0
C1844 C 0.80678 0.81015 0.3025 0.0
C1845 C 0.73652 0.79958 0.29132 0.0
C1846 C 0.7074 0.79897 0.30478 0.0
C1847 C 0.72476 0.79459 0.30504 0.0
C1848 C 0.70247 0.80896 0.29099 0.0
C1849 C 0.73078 0.80892 0.27752 0.0
C1850 C 0.714 0.81376 0.2775 0.0
C1851 C 0.78855 0.75551 0.27768 0.0
C1852 C 0.75466 0.795 0.29128 0.0
C1853 C 0.75401 0.82905 0.21549 0.0
C1854 C 0.75046 0.80965 0.20637 0.0
C1855 C 0.80136 0.77551 0.2434 0.0
C1856 C 0.87201 0.78726 0.25546 0.0
C1857 C 0.8841 0.79231 0.24205 0.0
C1858 C 0.90188 0.78912 0.24347 0.0
C1859 C 0.90696 0.78026 0.25808 0.0
C1860 C 0.87779 0.77886 0.27 0.0
C1861 C 0.89505 0.77523 0.27117 0.0
C1862 C 0.81968 0.8306 0.26855 0.0
C1863 C 0.85358 0.79108 0.25467 0.0
H1864 H 0.72895 0.78701 0.31554 0.0
H1865 H 0.68959 0.81312 0.29058 0.0
H1866 H 0.73925 0.81247 0.26668 0.0
H1867 H 0.70984 0.82121 0.26689 0.0
H1868 H 0.87984 0.79904 0.23089 0.0
H1869 H 0.92026 0.77715 0.2594 0.0
H1870 H 0.869 0.77518 0.28055 0.0
H1871 H 0.89927 0.76858 0.28238 0.0
Tb1872 Tb 0.81887 0.28611 0.74963 0.0
C1873 C 0.80025 0.34753 0.79783 0.0
C1874 C 0.82652 0.36252 0.8195 0.0
C1875 C 0.80872 0.38273 0.80722 0.0
C1876 C 0.8149 0.34574 0.80878 0.0
C1877 C 0.79665 0.36605 0.79746 0.0
C1878 C 0.82363 0.38097 0.81825 0.0
C1879 C 0.76813 0.35028 0.78024 0.0
N1880 N 0.78898 0.33114 0.78831 0.0
C1881 C 0.77223 0.33238 0.78122 0.0
C1882 C 0.78067 0.36725 0.7879 0.0
Tb1883 Tb 0.79726 0.30207 0.78993 0.0
N1884 N 0.81739 0.32763 0.80952 0.0
C1885 C 0.82987 0.32568 0.82303 0.0
C1886 C 0.84057 0.36033 0.83143 0.0
C1887 C 0.84196 0.3418 0.83351 0.0
H1888 H 0.76154 0.31971 0.77667 0.0
H1889 H 0.85204 0.33988 0.84363 0.0
H1890 H 0.8326 0.39394 0.82611 0.0
H1891 H 0.75509 0.35092 0.77399 0.0
H1892 H 0.83048 0.31198 0.82681 0.0
H1893 H 0.7613 0.23663 0.70582 0.0
H1894 H 0.84982 0.37281 0.83975 0.0
H1895 H 0.85974 0.27793 0.76185 0.0
H1896 H 0.77615 0.26618 0.72558 0.0
H1897 H 0.87456 0.25106 0.75968 0.0
H1898 H 0.80633 0.39702 0.80679 0.0
H1899 H 0.77622 0.20917 0.70027 0.0
H1900 H 0.80154 0.1944 0.70795 0.0
H1901 H 0.77741 0.38115 0.78731 0.0
H1902 H 0.83163 0.19778 0.72369 0.0
N1903 N 0.80075 0.25733 0.73256 0.0
C1904 C 0.78365 0.25517 0.72401 0.0
C1905 C 0.78293 0.22234 0.70961 0.0
C1906 C 0.79983 0.22393 0.71872 0.0
C1907 C 0.77466 0.23788 0.71253 0.0
C1908 C 0.80859 0.24178 0.73014 0.0
H1909 H 0.85862 0.21853 0.74325 0.0
N1910 N 0.83366 0.26089 0.74982 0.0
C1911 C 0.86055 0.24852 0.75427 0.0
C1912 C 0.82541 0.24356 0.73921 0.0
C1913 C 0.85166 0.26374 0.75599 0.0
C1914 C 0.85158 0.23028 0.7449 0.0
C1915 C 0.83403 0.22772 0.73675 0.0
O1916 O 0.84553 0.29939 0.74668 0.0
O1917 O 0.81817 0.30999 0.77196 0.0
O1918 O 0.7793 0.29942 0.76409 0.0
O1919 O 0.79505 0.29472 0.73762 0.0
O1920 O 0.81786 0.31446 0.74443 0.0
O1921 O 0.82704 0.28465 0.72248 0.0
O1922 O 0.76963 0.29388 0.79331 0.0
O1923 O 0.79806 0.27895 0.76718 0.0
O1924 O 0.83589 0.288 0.77604 0.0
O1925 O 0.81882 0.29017 0.80137 0.0
O1926 O 0.79425 0.27165 0.79277 0.0
O1927 O 0.78939 0.30431 0.81709 0.0
C1928 C 0.81811 0.32241 0.76157 0.0
C1929 C 0.85384 0.30723 0.71805 0.0
C1930 C 0.85608 0.32799 0.69509 0.0
C1931 C 0.84551 0.3168 0.70614 0.0
C1932 C 0.87486 0.32989 0.69615 0.0
C1933 C 0.87268 0.30942 0.71926 0.0
C1934 C 0.88315 0.32072 0.70835 0.0
C1935 C 0.78065 0.29856 0.7459 0.0
C1936 C 0.84355 0.29393 0.7287 0.0
C1937 C 0.82521 0.21002 0.72566 0.0
C1938 C 0.80816 0.20814 0.71662 0.0
C1939 C 0.79595 0.26501 0.77566 0.0
C1940 C 0.7625 0.28209 0.82065 0.0
C1941 C 0.77147 0.27155 0.83105 0.0
C1942 C 0.7616 0.25818 0.84078 0.0
C1943 C 0.74264 0.25531 0.83971 0.0
C1944 C 0.74361 0.27881 0.81954 0.0
C1945 C 0.73374 0.26542 0.82899 0.0
C1946 C 0.8337 0.28747 0.79385 0.0
C1947 C 0.77242 0.29708 0.81134 0.0
H1948 H 0.83096 0.31512 0.70504 0.0
H1949 H 0.88307 0.33849 0.68757 0.0
H1950 H 0.87928 0.3021 0.72847 0.0
H1951 H 0.89765 0.32226 0.70926 0.0
H1952 H 0.78605 0.27381 0.83159 0.0
H1953 H 0.73464 0.24553 0.84744 0.0
H1954 H 0.73651 0.28681 0.81152 0.0
H1955 H 0.71916 0.2631 0.82826 0.0
Tb1956 Tb 0.81681 0.81895 0.78576 0.0
C1957 C 0.75154 0.77211 0.75411 0.0
C1958 C 0.73545 0.75611 0.7768 0.0
C1959 C 0.7188 0.76743 0.75334 0.0
C1960 C 0.75181 0.76342 0.76953 0.0
C1961 C 0.73492 0.77387 0.74564 0.0
C1962 C 0.71905 0.75822 0.76863 0.0
C1963 C 0.75057 0.78384 0.72012 0.0
N1964 N 0.76728 0.77734 0.74649 0.0
C1965 C 0.76646 0.78117 0.72871 0.0
C1966 C 0.73477 0.78072 0.7289 0.0
Tb1967 Tb 0.79305 0.77266 0.76197 0.0
N1968 N 0.76788 0.76092 0.7766 0.0
C1969 C 0.76794 0.74948 0.7899 0.0
C1970 C 0.73592 0.74603 0.79147 0.0
C1971 C 0.75221 0.74253 0.7979 0.0
H1972 H 0.77764 0.78134 0.72035 0.0
H1973 H 0.75256 0.73378 0.8085 0.0
H1974 H 0.70637 0.75189 0.77333 0.0
H1975 H 0.75039 0.78748 0.70636 0.0
H1976 H 0.77976 0.74462 0.79405 0.0
H1977 H 0.86104 0.84564 0.7354 0.0
H1978 H 0.72371 0.74003 0.7973 0.0
H1979 H 0.82924 0.81563 0.83023 0.0
H1980 H 0.8331 0.8396 0.74959 0.0
H1981 H 0.85565 0.81138 0.84782 0.0
H1982 H 0.70595 0.7685 0.74693 0.0
H1983 H 0.88879 0.84016 0.75045 0.0
H1984 H 0.90382 0.82928 0.77643 0.0
H1985 H 0.72232 0.78224 0.722 0.0
H1986 H 0.90222 0.81919 0.80683 0.0
N1987 N 0.84292 0.82626 0.77103 0.0
C1988 C 0.84415 0.83483 0.75559 0.0
C1989 C 0.87603 0.83592 0.75613 0.0
C1990 C 0.8752 0.82851 0.77254 0.0
C1991 C 0.86044 0.83915 0.74768 0.0
C1992 C 0.85831 0.82401 0.77991 0.0
H1993 H 0.88439 0.81241 0.83348 0.0
N1994 N 0.84122 0.81534 0.80426 0.0
C1995 C 0.85627 0.81271 0.83334 0.0
C1996 C 0.8574 0.81819 0.79696 0.0
C1997 C 0.84101 0.8145 0.8229 0.0
C1998 C 0.87245 0.81341 0.82525 0.0
C1999 C 0.87337 0.81697 0.80713 0.0
O2000 O 0.81426 0.83564 0.8115 0.0
O2001 O 0.79137 0.79795 0.78132 0.0
O2002 O 0.80155 0.79267 0.74236 0.0
O2003 O 0.80675 0.8242 0.75891 0.0
O2004 O 0.79051 0.82607 0.78069 0.0
O2005 O 0.82673 0.84904 0.78977 0.0
O2006 O 0.79516 0.75936 0.73462 0.0
O2007 O 0.81866 0.7934 0.76646 0.0
O2008 O 0.80819 0.79959 0.80575 0.0
O2009 O 0.80311 0.76803 0.7893 0.0
O2010 O 0.81876 0.76541 0.76861 0.0
O2011 O 0.78563 0.74228 0.75507 0.0
C2012 C 0.78069 0.80885 0.7797 0.0
C2013 C 0.81172 0.86745 0.8108 0.0
C2014 C 0.79479 0.88988 0.80129 0.0
C2015 C 0.80339 0.87452 0.79672 0.0
C2016 C 0.79428 0.8979 0.82009 0.0
C2017 C 0.81118 0.87558 0.8295 0.0
C2018 C 0.80243 0.89072 0.8341 0.0
C2019 C 0.8032 0.8116 0.74306 0.0
C2020 C 0.8213 0.85186 0.80637 0.0
C2021 C 0.88993 0.82033 0.79932 0.0
C2022 C 0.89085 0.82615 0.78206 0.0
C2023 C 0.82905 0.78224 0.76877 0.0
C2024 C 0.80028 0.72798 0.73061 0.0
C2025 C 0.81067 0.7202 0.74241 0.0
C2026 C 0.81973 0.70598 0.73498 0.0
C2027 C 0.81863 0.69993 0.71559 0.0
C2028 C 0.79934 0.72191 0.7113 0.0
C2029 C 0.80856 0.70798 0.70383 0.0
C2030 C 0.80656 0.78071 0.80512 0.0
C2031 C 0.78987 0.742 0.73806 0.0
H2032 H 0.80386 0.86835 0.78223 0.0
H2033 H 0.78743 0.90958 0.82394 0.0
H2034 H 0.81756 0.87022 0.84052 0.0
H2035 H 0.80198 0.89693 0.84855 0.0
H2036 H 0.81164 0.72511 0.75733 0.0
H2037 H 0.82527 0.68873 0.70953 0.0
H2038 H 0.79134 0.72784 0.70202 0.0
H2039 H 0.80769 0.70322 0.68893 0.0
Tb2040 Tb 0.53223 0.53283 0.51048 0.0
C2041 C 0.58191 0.59519 0.55417 0.0
C2042 C 0.5884 0.61704 0.5323 0.0
C2043 C 0.58675 0.63007 0.56478 0.0
C2044 C 0.58426 0.59805 0.5362 0.0
C2045 C 0.58405 0.61127 0.56882 0.0
C2046 C 0.58891 0.63295 0.54653 0.0
C2047 C 0.58447 0.58957 0.59056 0.0
N2048 N 0.57967 0.57687 0.55759 0.0
C2049 C 0.5827 0.57421 0.57559 0.0
C2050 C 0.5846 0.60813 0.58716 0.0
Tb2051 Tb 0.57534 0.55252 0.5316 0.0
N2052 N 0.58386 0.58233 0.52282 0.0
C2053 C 0.58919 0.58495 0.50564 0.0
C2054 C 0.59263 0.61957 0.51441 0.0
C2055 C 0.59347 0.60349 0.50118 0.0
H2056 H 0.58286 0.55995 0.57851 0.0
H2057 H 0.59728 0.60532 0.48745 0.0
H2058 H 0.59175 0.64759 0.54371 0.0
H2059 H 0.58588 0.58709 0.6047 0.0
H2060 H 0.59015 0.57303 0.49504 0.0
H2061 H 0.51022 0.47879 0.55306 0.0
H2062 H 0.59588 0.63391 0.51087 0.0
H2063 H 0.52553 0.52645 0.46342 0.0
H2064 H 0.51765 0.51125 0.54636 0.0
H2065 H 0.52282 0.49986 0.43683 0.0
H2066 H 0.58809 0.64254 0.5758 0.0
H2067 H 0.51144 0.45053 0.52895 0.0
H2068 H 0.51616 0.43764 0.49617 0.0
H2069 H 0.58621 0.62008 0.59877 0.0
H2070 H 0.52023 0.44352 0.46439 0.0
N2071 N 0.52392 0.50262 0.51844 0.0
C2072 C 0.51858 0.49956 0.53549 0.0
C2073 C 0.51497 0.46503 0.52589 0.0
C2074 C 0.51944 0.46803 0.5082 0.0
C2075 C 0.5142 0.48086 0.53947 0.0
C2076 C 0.52366 0.4872 0.50477 0.0
H2077 H 0.5224 0.46662 0.44205 0.0
N2078 N 0.5284 0.50901 0.48399 0.0
C2079 C 0.52406 0.49703 0.45086 0.0
C2080 C 0.52617 0.49053 0.48697 0.0
C2081 C 0.52563 0.51208 0.46607 0.0
C2082 C 0.52388 0.47833 0.45386 0.0
C2083 C 0.52421 0.47474 0.47204 0.0
O2084 O 0.51509 0.54263 0.49261 0.0
O2085 O 0.55451 0.55817 0.51318 0.0
O2086 O 0.55617 0.55166 0.55474 0.0
O2087 O 0.52716 0.54191 0.54008 0.0
O2088 O 0.52991 0.56261 0.5199 0.0
O2089 O 0.50444 0.52609 0.51351 0.0
O2090 O 0.59208 0.54232 0.54957 0.0
O2091 O 0.55296 0.52742 0.52909 0.0
O2092 O 0.55144 0.53447 0.48755 0.0
O2093 O 0.58042 0.54257 0.50218 0.0
O2094 O 0.57735 0.5226 0.52226 0.0
O2095 O 0.60322 0.55896 0.52894 0.0
C2096 C 0.54585 0.57142 0.51756 0.0
C2097 C 0.48332 0.52979 0.49008 0.0
C2098 C 0.45346 0.53663 0.48792 0.0
C2099 C 0.46988 0.53788 0.49812 0.0
C2100 C 0.45004 0.52536 0.46987 0.0
C2101 C 0.47993 0.51854 0.47219 0.0
C2102 C 0.46312 0.51607 0.46224 0.0
C2103 C 0.5382 0.54829 0.55562 0.0
C2104 C 0.50095 0.53555 0.5006 0.0
C2105 C 0.52145 0.45577 0.47563 0.0
C2106 C 0.51906 0.45242 0.4937 0.0
C2107 C 0.56143 0.514 0.52486 0.0
C2108 C 0.62394 0.55429 0.55224 0.0
C2109 C 0.6365 0.54377 0.54581 0.0
C2110 C 0.65326 0.54635 0.55586 0.0
C2111 C 0.65759 0.5604 0.57228 0.0
C2112 C 0.6283 0.56838 0.56845 0.0
C2113 C 0.6452 0.57146 0.57841 0.0
C2114 C 0.56931 0.53683 0.48667 0.0
C2115 C 0.60637 0.54909 0.54164 0.0
H2116 H 0.47266 0.5459 0.51228 0.0
H2117 H 0.43757 0.52416 0.46145 0.0
H2118 H 0.49017 0.51196 0.46586 0.0
H2119 H 0.46045 0.5075 0.44834 0.0
H2120 H 0.63302 0.53335 0.53288 0.0
H2121 H 0.67036 0.56263 0.58053 0.0
H2122 H 0.61878 0.57687 0.57341 0.0
H2123 H 0.64861 0.58225 0.59103 0.0
Tb2124 Tb 0.07936 0.54932 0.01688 0.0
C2125 C 0.01194 0.51568 0.0532 0.0
C2126 C 0.99482 0.48924 0.03 0.0
C2127 C 0.99264 0.48814 0.06281 0.0
C2128 C 0.00749 0.50712 0.03486 0.0
C2129 C 1.00418 0.50664 0.06744 0.0
C2130 C 0.98794 0.47945 0.04407 0.0
C2131 C 0.01765 0.53596 0.08929 0.0
N2132 N 0.02259 0.53379 0.05693 0.0
C2133 C 0.02487 0.54434 0.07462 0.0
C2134 C 0.00752 0.51688 0.08574 0.0
Tb2135 Tb 0.03465 0.54619 0.03227 0.0
N2136 N 0.01404 0.5174 0.02182 0.0
C2137 C 0.00701 0.51141 1.00368 0.0
C2138 C 0.9886 0.4824 0.01127 0.0
C2139 C 0.99434 0.49381 0.99813 0.0
H2140 H 0.03269 0.55908 0.07764 0.0
H2141 H 0.98915 0.48901 0.98366 0.0
H2142 H 0.97837 0.46558 0.04063 0.0
H2143 H 0.01991 0.54423 0.10332 0.0
H2144 H 0.01121 0.51992 0.99321 0.0
H2145 H 0.12076 0.6099 0.0653 0.0
H2146 H 0.97879 0.46879 0.00693 0.0
H2147 H 0.07928 0.53656 0.97105 0.0
H2148 H 0.10028 0.5778 0.05608 0.0
H2149 H 0.09162 0.55137 0.94515 0.0
H2150 H 0.98668 0.48083 0.07354 0.0
H2151 H 0.13186 0.62891 0.04135 0.0
H2152 H 0.13363 0.63054 0.00739 0.0
H2153 H 1.00181 0.51048 0.0971 0.0
H2154 H 0.12589 0.61448 0.97462 0.0
N2155 N 0.09907 0.57866 0.02706 0.0
C2156 C 0.10492 0.58583 0.04539 0.0
C2157 C 0.12278 0.6148 0.03718 0.0
C2158 C 0.11768 0.60685 0.01839 0.0
C2159 C 0.11659 0.60409 0.05073 0.0
C2160 C 0.10575 0.58849 0.01376 0.0
H2161 H 0.11044 0.5848 0.95127 0.0
N2162 N 0.09056 0.56151 0.9918 0.0
C2163 C 0.09441 0.55951 0.95923 0.0
C2164 C 0.10144 0.57954 0.99544 0.0
C2165 C 0.08745 0.55114 0.97401 0.0
C2166 C 0.105 0.57839 0.96273 0.0
C2167 C 0.10884 0.58857 0.98105 0.0
O2168 O 0.09113 0.52637 1.00572 0.0
O2169 O 0.05385 0.53025 0.0201 0.0
O2170 O 0.04909 0.53226 0.05053 0.0
O2171 O 0.07856 0.54737 0.04623 0.0
O2172 O 0.06548 0.52372 0.9965 0.0
O2173 O 0.10247 0.54517 0.0315 0.0
O2174 O 0.02228 0.56847 0.04418 0.0
O2175 O 0.06023 0.56497 0.02925 0.0
O2176 O 0.06506 0.56374 0.99941 0.0
O2177 O 0.03592 0.54702 1.0026 0.0
O2178 O 0.04859 0.57142 0.05299 0.0
O2179 O 0.01387 0.55322 0.01635 0.0
C2180 C 0.05192 0.5176 1.00533 0.0
C2181 C 0.12232 0.53032 0.01335 0.0
C2182 C 0.14804 0.51487 0.01114 0.0
C2183 C 0.13115 0.51598 0.0177 0.0
C2184 C 0.15607 0.52834 1.00047 0.0
C2185 C 0.13068 0.54375 1.00284 0.0
C2186 C 0.14749 0.54276 0.99647 0.0
C2187 C 0.06672 0.53685 0.05512 0.0
C2188 C 0.1041 0.53053 0.01908 0.0
C2189 C 0.12016 0.60721 0.98547 0.0
C2190 C 0.12455 0.61635 1.00413 0.0
C2191 C 0.06213 0.57733 0.04412 0.0
C2192 C 0.99175 0.56487 0.03336 0.0
C2193 C 0.9827 0.57929 0.02957 0.0
C2194 C 0.96422 0.57735 0.0323 0.0
C2195 C 0.95512 0.56117 0.03918 0.0
C2196 C 0.98231 0.54888 0.04021 0.0
C2197 C 0.96414 0.54711 0.04317 0.0
C2198 C 0.04786 0.5573 0.99359 0.0
C2199 C 0.01082 0.56619 0.02972 0.0
H2200 H 0.12474 0.50549 0.02575 0.0
H2201 H 0.16907 0.52774 0.99531 0.0
H2202 H 0.12419 0.55488 0.9994 0.0
H2203 H 0.15382 0.55312 0.98829 0.0
H2204 H 0.98985 0.59164 0.02415 0.0
H2205 H 0.94096 0.55943 0.0415 0.0
H2206 H 0.98893 0.5377 0.04316 0.0
H2207 H 0.95698 0.53471 0.04847 0.0
H2208 H 0.00813 0.22637 0.96822 0.0
H2209 H 0.01259 0.19797 0.98059 0.0
H2210 H 0.04463 0.18397 0.93549 0.0
H2211 H 0.03824 0.2112 0.92204 0.0
H2212 H 0.03046 0.15285 0.94125 0.0
H2213 H 0.05991 0.20806 0.98986 0.0
H2214 H 0.06061 0.23745 0.01316 0.0
H2215 H 0.01824 0.20563 0.03976 0.0
H2216 H 0.01723 0.17613 0.01657 0.0
H2217 H 0.06762 0.08431 0.97867 0.0
H2218 H 0.06425 0.1145 0.9693 0.0
H2219 H 0.03009 0.12389 0.01355 0.0
H2220 H 0.03534 0.09455 0.0242 0.0
H2221 H 0.04442 0.15691 0.00888 0.0
H2222 H 0.01515 0.10205 0.96151 0.0
H2223 H 0.01415 0.07205 0.93898 0.0
H2224 H 0.05537 0.10284 0.91031 0.0
H2225 H 0.05671 0.13297 0.93277 0.0
C2226 C 0.01596 0.21707 0.96082 0.0
C2227 C 0.02272 0.22112 0.94403 0.0
C2228 C 0.0189 0.20088 0.96818 0.0
C2229 C 0.02971 0.18872 0.95967 0.0
C2230 C 0.03631 0.19278 0.94269 0.0
C2231 C 0.03266 0.20849 0.93489 0.0
C2232 C 0.03384 0.17169 0.96799 0.0
C2233 C 0.03382 0.15409 0.95604 0.0
C2234 C 0.03761 0.1723 0.98744 0.0
C2235 C 0.03841 0.18999 1.00142 0.0
C2236 C 0.05073 0.20738 1.00066 0.0
C2237 C 0.05118 0.22404 0.01384 0.0
C2238 C 0.03945 0.22342 0.0279 0.0
C2239 C 0.0273 0.20611 0.02887 0.0
C2240 C 0.02681 0.18942 0.01573 0.0
C2241 C 0.05995 0.09321 0.98685 0.0
C2242 C 0.05229 0.08724 1.00257 0.0
C2243 C 0.05755 0.11035 0.98114 0.0
C2244 C 0.04612 0.12145 0.98998 0.0
C2245 C 0.03886 0.11581 0.00615 0.0
C2246 C 0.04196 0.099 0.0124 0.0
C2247 C 0.04141 0.13839 0.98207 0.0
C2248 C 0.0412 0.15584 0.99407 0.0
C2249 C 0.03734 0.13765 0.96269 0.0
C2250 C 0.03609 0.1197 0.94886 0.0
C2251 C 0.02398 0.1024 0.95039 0.0
C2252 C 0.02338 0.08538 0.93765 0.0
C2253 C 0.03471 0.08553 0.92324 0.0
C2254 C 0.0466 0.10274 0.92147 0.0
C2255 C 0.04726 0.11979 0.93417 0.0
H2256 H 0.03426 0.07233 0.91343 0.0
H2257 H 0.0398 0.23633 0.03808 0.0
H2258 H 0.13207 0.83657 0.1762 0.0
H2259 H 0.15908 0.83375 0.19431 0.0
H2260 H 0.17785 0.80634 0.14446 0.0
H2261 H 0.15065 0.80891 0.1263 0.0
H2262 H 0.18311 0.78727 0.17136 0.0
H2263 H 0.19761 0.85489 0.16753 0.0
H2264 H 0.1928 0.88819 0.17083 0.0
H2265 H 0.18919 0.89048 0.22947 0.0
H2266 H 0.19377 0.8571 0.22646 0.0
H2267 H 0.26973 0.78798 0.21453 0.0
H2268 H 0.24469 0.79234 0.19473 0.0
H2269 H 0.22848 0.82803 0.24137 0.0
H2270 H 0.25459 0.82538 0.26054 0.0
H2271 H 0.22204 0.84273 0.21498 0.0
H2272 H 0.20647 0.77477 0.21916 0.0
H2273 H 0.21128 0.74147 0.21611 0.0
H2274 H 0.21635 0.7393 0.1577 0.0
H2275 H 0.21177 0.77266 0.16045 0.0
C2276 C 0.14206 0.83022 0.16897 0.0
C2277 C 0.13912 0.82324 0.14962 0.0
C2278 C 0.15763 0.8286 0.17942 0.0
C2279 C 0.1709 0.82 0.17091 0.0
C2280 C 0.16802 0.8131 0.15154 0.0
C2281 C 0.15245 0.81475 0.14107 0.0
C2282 C 0.18744 0.81782 0.1822 0.0
C2283 C 0.19172 0.79949 0.18073 0.0
C2284 C 0.19867 0.83347 0.1949 0.0
C2285 C 0.19583 0.85346 0.19673 0.0
C2286 C 0.19564 0.86245 0.18109 0.0
C2287 C 0.19299 0.88134 0.18292 0.0
C2288 C 0.19064 0.89142 0.20034 0.0
C2289 C 0.19098 0.88265 0.21598 0.0
C2290 C 0.19362 0.86375 0.21423 0.0
C2291 C 0.2609 0.79683 0.22067 0.0
C2292 C 0.26424 0.80594 0.23956 0.0
C2293 C 0.24625 0.79911 0.20925 0.0
C2294 C 0.23389 0.80997 0.21643 0.0
C2295 C 0.23744 0.81936 0.23521 0.0
C2296 C 0.25245 0.81761 0.24644 0.0
C2297 C 0.21765 0.81205 0.20447 0.0
C2298 C 0.21343 0.83041 0.20574 0.0
C2299 C 0.20637 0.79635 0.19173 0.0
C2300 C 0.20894 0.77625 0.19005 0.0
C2301 C 0.20869 0.76721 0.20569 0.0
C2302 C 0.21137 0.74833 0.20401 0.0
C2303 C 0.21417 0.73829 0.18673 0.0
C2304 C 0.21421 0.74709 0.17108 0.0
C2305 C 0.21156 0.76597 0.17268 0.0
H2306 H 0.21626 0.72369 0.18547 0.0
H2307 H 0.18859 0.90605 0.20172 0.0
H2308 H 0.55273 0.84421 0.43133 0.0
H2309 H 0.55646 0.87744 0.44784 0.0
H2310 H 0.51086 0.8592 0.47841 0.0
H2311 H 0.50795 0.82555 0.46259 0.0
H2312 H 0.53829 0.90072 0.44561 0.0
H2313 H 0.50811 0.89195 0.51571 0.0
H2314 H 0.50847 0.87181 0.53993 0.0
H2315 H 0.55872 0.85925 0.52349 0.0
H2316 H 0.55867 0.87935 0.49925 0.0
H2317 H 0.5265 0.993 0.47691 0.0
H2318 H 0.51969 0.95771 0.46905 0.0
H2319 H 0.5526 0.95592 0.51842 0.0
H2320 H 0.55677 0.99116 0.52773 0.0
H2321 H 0.53222 0.92432 0.51203 0.0
H2322 H 0.5674 0.95604 0.46916 0.0
H2323 H 0.57439 0.97837 0.44697 0.0
H2324 H 0.52712 0.94699 0.41121 0.0
H2325 H 0.51974 0.92463 0.4333 0.0
C2326 C 0.54382 0.8472 0.44197 0.0
C2327 C 0.53015 0.83218 0.44573 0.0
C2328 C 0.54583 0.86633 0.45133 0.0
C2329 C 0.53392 0.87125 0.46447 0.0
C2330 C 0.52055 0.85606 0.4687 0.0
C2331 C 0.51883 0.83672 0.45961 0.0
C2332 C 0.53475 0.89232 0.47233 0.0
C2333 C 0.53705 0.90574 0.4602 0.0
C2334 C 0.53343 0.89943 0.49139 0.0
C2335 C 0.53326 0.88693 0.50556 0.0
C2336 C 0.5192 0.88484 0.51726 0.0
C2337 C 0.51935 0.87344 0.53098 0.0
C2338 C 0.53357 0.8642 0.5332 0.0
C2339 C 0.54766 0.86632 0.52169 0.0
C2340 C 0.54755 0.87765 0.50792 0.0
C2341 C 0.53147 0.98495 0.48655 0.0
C2342 C 0.54158 0.99481 0.50325 0.0
C2343 C 0.52807 0.9647 0.48177 0.0
C2344 C 0.53637 0.95382 0.49252 0.0
C2345 C 0.54603 0.96366 0.50964 0.0
C2346 C 0.54841 0.98389 0.51504 0.0
C2347 C 0.53595 0.93267 0.48531 0.0
C2348 C 0.53358 0.91925 0.49749 0.0
C2349 C 0.53829 0.92567 0.46645 0.0
C2350 C 0.54295 0.93879 0.45294 0.0
C2351 C 0.5585 0.95394 0.45658 0.0
C2352 C 0.56251 0.96661 0.44403 0.0
C2353 C 0.55118 0.96413 0.42772 0.0
C2354 C 0.53586 0.94891 0.42386 0.0
C2355 C 0.53177 0.93623 0.43637 0.0
H2356 H 0.55428 0.97399 0.41805 0.0
H2357 H 0.5337 0.85544 0.54388 0.0
H2358 H 0.54866 0.31181 0.66485 0.0
H2359 H 0.52265 0.30954 0.68336 0.0
H2360 H 0.48787 0.30924 0.63477 0.0
H2361 H 0.51373 0.31159 0.61622 0.0
H2362 H 0.47853 0.33125 0.66474 0.0
H2363 H 0.48818 0.26748 0.6495 0.0
H2364 H 0.50547 0.24185 0.64662 0.0
H2365 H 0.51744 0.25266 0.70594 0.0
H2366 H 0.50043 0.2786 0.70915 0.0
H2367 H 0.39636 0.2899 0.70607 0.0
H2368 H 0.42032 0.29614 0.68506 0.0
H2369 H 0.46078 0.30501 0.73109 0.0
H2370 H 0.43727 0.29978 0.7521 0.0
H2371 H 0.46553 0.27748 0.70018 0.0
H2372 H 0.45515 0.34237 0.71411 0.0
H2373 H 0.43664 0.36685 0.71535 0.0
H2374 H 0.4241 0.35185 0.6561 0.0
H2375 H 0.44234 0.32705 0.65457 0.0
C2376 C 0.53554 0.31147 0.65811 0.0
C2377 C 0.53342 0.31185 0.63896 0.0
C2378 C 0.5206 0.31006 0.66872 0.0
C2379 C 0.50315 0.30901 0.66048 0.0
C2380 C 0.50111 0.31002 0.64152 0.0
C2381 C 0.51599 0.31131 0.63089 0.0
C2382 C 0.487 0.30618 0.67146 0.0
C2383 C 0.47559 0.31934 0.67229 0.0
C2384 C 0.48297 0.29066 0.68136 0.0
C2385 C 0.49319 0.2751 0.67955 0.0
C2386 C 0.49462 0.2645 0.66192 0.0
C2387 C 0.50435 0.2499 0.66023 0.0
C2388 C 0.51259 0.24566 0.67608 0.0
C2389 C 0.51107 0.25598 0.69367 0.0
C2390 C 0.50138 0.27063 0.69544 0.0
C2391 C 0.41035 0.29357 0.71179 0.0
C2392 C 0.41476 0.29386 0.73081 0.0
C2393 C 0.42406 0.29702 0.69972 0.0
C2394 C 0.44243 0.30074 0.70642 0.0
C2395 C 0.44677 0.30187 0.72548 0.0
C2396 C 0.43321 0.29874 0.73749 0.0
C2397 C 0.45731 0.30277 0.69379 0.0
C2398 C 0.46845 0.28936 0.69258 0.0
C2399 C 0.46087 0.31786 0.68334 0.0
C2400 C 0.44991 0.3327 0.68426 0.0
C2401 C 0.44829 0.34415 0.70138 0.0
C2402 C 0.43788 0.35812 0.70213 0.0
C2403 C 0.42915 0.36086 0.68582 0.0
C2404 C 0.43084 0.34968 0.66873 0.0
C2405 C 0.44122 0.33567 0.66791 0.0
H2406 H 0.4211 0.37169 0.68643 0.0
H2407 H 0.5201 0.23434 0.67475 0.0
H2408 H 0.99768 0.80979 0.62349 0.0
H2409 H 0.99981 0.8336 0.60299 0.0
H2410 H 0.05048 0.86557 0.63342 0.0
H2411 H 0.04727 0.84307 0.65505 0.0
H2412 H 0.03388 0.88937 0.62539 0.0
H2413 H 0.04501 0.8304 0.58842 0.0
H2414 H 0.03684 0.79567 0.57411 0.0
H2415 H 0.98973 0.80446 0.54467 0.0
H2416 H 0.99755 0.83919 0.55892 0.0
H2417 H 0.07396 0.9198 0.54081 0.0
H2418 H 0.06655 0.89958 0.56443 0.0
H2419 H 0.01411 0.91346 0.56615 0.0
H2420 H 0.02132 0.9336 0.54239 0.0
H2421 H 0.02864 0.86717 0.55704 0.0
H2422 H 0.0155 0.92373 0.60747 0.0
H2423 H 0.02488 0.95609 0.62745 0.0
H2424 H 0.07996 0.95017 0.63095 0.0
H2425 H 0.07073 0.91755 0.61129 0.0
C2426 C 0.00911 0.8221 0.62586 0.0
C2427 C 0.02246 0.82458 0.6406 0.0
C2428 C 0.01044 0.83552 0.61405 0.0
C2429 C 0.0256 0.85098 0.61629 0.0
C2430 C 0.03869 0.85367 0.63135 0.0
C2431 C 0.03693 0.84077 0.64365 0.0
C2432 C 0.02801 0.86451 0.6031 0.0
C2433 C 0.03278 0.88439 0.61045 0.0
C2434 C 0.0263 0.85812 0.58357 0.0
C2435 C 0.0218 0.83732 0.57482 0.0
C2436 C 0.03289 0.82489 0.57893 0.0
C2437 C 0.02832 0.80522 0.57083 0.0
C2438 C 0.01276 0.79786 0.55851 0.0
C2439 C 1.00177 0.81017 0.55421 0.0
C2440 C 0.00628 0.82985 0.56227 0.0
C2441 C 0.06083 0.91841 0.54614 0.0
C2442 C 0.04808 0.9279 0.53961 0.0
C2443 C 0.05672 0.90711 0.55971 0.0
C2444 C 0.03987 0.90525 0.56688 0.0
C2445 C 0.02723 0.915 0.56075 0.0
C2446 C 0.03133 0.92634 0.5472 0.0
C2447 C 0.035 0.8917 0.57955 0.0
C2448 C 0.02963 0.8719 0.572 0.0
C2449 C 0.03652 0.898 0.59889 0.0
C2450 C 0.04251 0.91853 0.60773 0.0
C2451 C 0.02965 0.92956 0.61222 0.0
C2452 C 0.0349 0.9478 0.62364 0.0
C2453 C 0.053 0.95513 0.63052 0.0
C2454 C 0.06595 0.94444 0.62563 0.0
C2455 C 0.06073 0.9261 0.61434 0.0
H2456 H 0.05701 0.96907 0.63969 0.0
H2457 H 0.00923 0.78262 0.55228 0.0
H2458 H 0.5444 0.84647 0.90104 0.0
H2459 H 0.51409 0.84718 0.88804 0.0
H2460 H 0.5193 0.80529 0.84 0.0
H2461 H 0.54897 0.804 0.8534 0.0
H2462 H 0.50426 0.85889 0.85908 0.0
H2463 H 0.48103 0.77809 0.8205 0.0
H2464 H 0.48275 0.74562 0.82638 0.0
H2465 H 0.49013 0.76731 0.88524 0.0
H2466 H 0.48815 0.79981 0.87974 0.0
H2467 H 0.44053 0.85476 0.78499 0.0
H2468 H 0.46628 0.85253 0.80468 0.0
H2469 H 0.43171 0.81144 0.83142 0.0
H2470 H 0.40666 0.81071 0.80957 0.0
H2471 H 0.45892 0.8001 0.82857 0.0
H2472 H 0.45111 0.86458 0.85181 0.0
H2473 H 0.44775 0.89759 0.84938 0.0
H2474 H 0.49925 0.90933 0.82716 0.0
H2475 H 0.50269 0.87629 0.82908 0.0
C2476 C 0.53881 0.83728 0.88785 0.0
C2477 C 0.54896 0.82564 0.87783 0.0
C2478 C 0.52163 0.83771 0.88042 0.0
C2479 C 0.5144 0.82622 0.8631 0.0
C2480 C 0.5244 0.814 0.85354 0.0
C2481 C 0.54144 0.81348 0.86102 0.0
C2482 C 0.49692 0.82769 0.85432 0.0
C2483 C 0.49433 0.84606 0.85241 0.0
C2484 C 0.48358 0.81101 0.8463 0.0
C2485 C 0.48456 0.79141 0.84968 0.0
C2486 C 0.4829 0.7759 0.8347 0.0
C2487 C 0.48395 0.7575 0.83797 0.0
C2488 C 0.48659 0.75442 0.85617 0.0
C2489 C 0.48814 0.76972 0.87115 0.0
C2490 C 0.48707 0.78814 0.86796 0.0
C2491 C 0.43834 0.84484 0.79467 0.0
C2492 C 0.42117 0.83306 0.79553 0.0
C2493 C 0.45312 0.84401 0.80639 0.0
C2494 C 0.45092 0.83232 0.82005 0.0
C2495 C 0.43382 0.82073 0.82112 0.0
C2496 C 0.41927 0.82071 0.80876 0.0
C2497 C 0.46651 0.83136 0.83263 0.0
C2498 C 0.46877 0.81302 0.83526 0.0
C2499 C 0.47925 0.84815 0.84179 0.0
C2500 C 0.4772 0.86803 0.84069 0.0
C2501 C 0.46169 0.87422 0.84638 0.0
C2502 C 0.45975 0.89291 0.84505 0.0
C2503 C 0.47329 0.90556 0.83815 0.0
C2504 C 0.48879 0.89955 0.83255 0.0
C2505 C 0.49076 0.88086 0.8338 0.0
H2506 H 0.47176 0.92002 0.83713 0.0
H2507 H 0.48742 0.74017 0.85867 0.0
H2508 H 0.48741 0.20103 0.15356 0.0
H2509 H 0.48998 0.16942 0.13586 0.0
H2510 H 0.51407 0.19811 0.09297 0.0
H2511 H 0.51273 0.22931 0.11098 0.0
H2512 H 0.48695 0.1604 0.08089 0.0
H2513 H 0.5371 0.19607 0.12805 0.0
H2514 H 0.54892 0.20794 0.16079 0.0
H2515 H 0.5407 0.14937 0.17023 0.0
H2516 H 0.52809 0.13725 0.13762 0.0
H2517 H 0.54516 0.11346 0.0287 0.0
H2518 H 0.53111 0.1369 0.04756 0.0
H2519 H 0.52899 0.1036 0.09177 0.0
H2520 H 0.54357 0.08096 0.07341 0.0
H2521 H 0.54013 0.13928 0.10555 0.0
H2522 H 0.49102 0.10215 0.06267 0.0
H2523 H 0.47457 0.08672 0.03213 0.0
H2524 H 0.47939 0.14255 0.0165 0.0
H2525 H 0.49602 0.15833 0.04689 0.0
C2526 C 0.49287 0.20033 0.14017 0.0
C2527 C 0.49926 0.21726 0.13315 0.0
C2528 C 0.49417 0.18244 0.13009 0.0
C2529 C 0.50191 0.18168 0.11311 0.0
C2530 C 0.5077 0.19854 0.10589 0.0
C2531 C 0.50687 0.21628 0.11612 0.0
C2532 C 0.5069 0.16419 0.104 0.0
C2533 C 0.49842 0.15551 0.08628 0.0
C2534 C 0.52176 0.15796 0.1114 0.0
C2535 C 0.53056 0.16571 0.13063 0.0
C2536 C 0.53723 0.1857 0.13718 0.0
C2537 C 0.54422 0.19251 0.15573 0.0
C2538 C 0.54538 0.17944 0.16767 0.0
C2539 C 0.53961 0.15953 0.16106 0.0
C2540 C 0.53236 0.15271 0.14262 0.0
C2541 C 0.54176 0.11137 0.04249 0.0
C2542 C 0.54554 0.09569 0.04979 0.0
C2543 C 0.53364 0.12456 0.05315 0.0
C2544 C 0.5288 0.12171 0.0709 0.0
C2545 C 0.53268 0.10603 0.07813 0.0
C2546 C 0.54111 0.09319 0.06768 0.0
C2547 C 0.52022 0.13541 0.0823 0.0
C2548 C 0.52827 0.14362 0.10031 0.0
C2549 C 0.50472 0.14085 0.07539 0.0
C2550 C 0.49482 0.13141 0.05704 0.0
C2551 C 0.48866 0.11113 0.05268 0.0
C2552 C 0.47925 0.10233 0.03542 0.0
C2553 C 0.47587 0.11366 0.02242 0.0
C2554 C 0.48196 0.13381 0.02662 0.0
C2555 C 0.49134 0.1427 0.04387 0.0
H2556 H 0.46859 0.10682 0.00906 0.0
H2557 H 0.55093 0.18474 0.18198 0.0
H2558 H 0.14783 0.35465 0.35351 0.0
H2559 H 0.17527 0.35037 0.33907 0.0
H2560 H 0.1683 0.29336 0.3533 0.0
H2561 H 0.14123 0.29791 0.36845 0.0
H2562 H 0.20348 0.31299 0.35755 0.0
H2563 H 0.15118 0.30173 0.31009 0.0
H2564 H 0.1272 0.31381 0.2948 0.0
H2565 H 0.16709 0.36023 0.28118 0.0
H2566 H 0.19123 0.34856 0.29661 0.0
H2567 H 0.25916 0.2718 0.3022 0.0
H2568 H 0.22991 0.2752 0.31297 0.0
H2569 H 0.23339 0.3265 0.28839 0.0
H2570 H 0.26132 0.3214 0.27554 0.0
H2571 H 0.20058 0.31226 0.28949 0.0
H2572 H 0.25211 0.32775 0.33383 0.0
H2573 H 0.27895 0.32093 0.34958 0.0
H2574 H 0.24507 0.27529 0.37111 0.0
H2575 H 0.21806 0.28159 0.35517 0.0
C2576 C 0.15236 0.34134 0.35377 0.0
C2577 C 0.14245 0.32646 0.36179 0.0
C2578 C 0.16793 0.33892 0.34552 0.0
C2579 C 0.1734 0.32137 0.34476 0.0
C2580 C 0.16411 0.30695 0.35371 0.0
C2581 C 0.14872 0.30953 0.36232 0.0
C2582 C 0.18811 0.31742 0.3337 0.0
C2583 C 0.20283 0.31265 0.34265 0.0
C2584 C 0.18752 0.31792 0.31445 0.0
C2585 C 0.17297 0.32432 0.30456 0.0
C2586 C 0.15481 0.3145 0.30383 0.0
C2587 C 0.14119 0.3213 0.29516 0.0
C2588 C 0.14562 0.33778 0.28703 0.0
C2589 C 0.16367 0.34746 0.28748 0.0
C2590 C 0.17732 0.34075 0.29616 0.0
C2591 C 0.25305 0.28308 0.2983 0.0
C2592 C 0.26188 0.29599 0.28766 0.0
C2593 C 0.23658 0.28523 0.30465 0.0
C2594 C 0.22988 0.3015 0.30202 0.0
C2595 C 0.23833 0.31386 0.29059 0.0
C2596 C 0.25427 0.31105 0.28337 0.0
C2597 C 0.21576 0.30719 0.31322 0.0
C2598 C 0.20127 0.31251 0.30437 0.0
C2599 C 0.21698 0.30812 0.33274 0.0
C2600 C 0.23309 0.30505 0.34322 0.0
C2601 C 0.25039 0.31628 0.34194 0.0
C2602 C 0.26564 0.31247 0.35085 0.0
C2603 C 0.26372 0.29767 0.36131 0.0
C2604 C 0.24654 0.28674 0.36298 0.0
C2605 C 0.23125 0.29042 0.35403 0.0
H2606 H 0.27553 0.29469 0.36815 0.0
H2607 H 0.13506 0.34304 0.28037 0.0
H2608 H 0.98838 0.07294 0.23215 0.0
H2609 H 1.00304 0.06899 0.20334 0.0
H2610 H 0.95123 0.05645 0.17162 0.0
H2611 H 0.93647 0.05916 0.20074 0.0
H2612 H 0.96717 0.03765 0.15055 0.0
H2613 H 0.99335 0.10384 0.17908 0.0
H2614 H 0.00974 0.1308 0.20355 0.0
H2615 H 0.05599 0.10524 0.20322 0.0
H2616 H 0.0398 0.07802 0.17889 0.0
H2617 H 1.00522 0.04805 0.06298 0.0
H2618 H 0.99094 0.05176 0.09212 0.0
H2619 H 0.04182 0.0557 0.12289 0.0
H2620 H 0.05619 0.05206 0.09359 0.0
H2621 H 0.02669 0.07891 0.14415 0.0
H2622 H 1.00031 0.01331 0.11455 0.0
H2623 H 0.98409 0.98746 0.08902 0.0
H2624 H 0.93796 0.01325 0.09061 0.0
H2625 H 0.95402 0.03942 0.11598 0.0
C2626 C 0.97993 0.06947 0.21912 0.0
C2627 C 0.96089 0.0667 0.21951 0.0
C2628 C 0.98855 0.06739 0.20215 0.0
C2629 C 0.97885 0.06296 0.18417 0.0
C2630 C 0.95973 0.05999 0.18462 0.0
C2631 C 0.95107 0.0617 0.20165 0.0
C2632 C 0.98831 0.06103 0.16535 0.0
C2633 C 0.98006 0.04707 0.1494 0.0
C2634 C 0.00559 0.07255 0.16268 0.0
C2635 C 0.0153 0.08881 0.17733 0.0
C2636 C 0.00698 0.10392 0.18431 0.0
C2637 C 0.01624 0.11925 0.19815 0.0
C2638 C 0.03387 0.1197 0.20498 0.0
C2639 C 0.04232 0.10485 0.19795 0.0
C2640 C 0.03311 0.08948 0.18413 0.0
C2641 C 0.01358 0.04965 0.07584 0.0
C2642 C 0.03227 0.0498 0.07514 0.0
C2643 C 1.00517 0.05166 0.09292 0.0
C2644 C 0.01476 0.05378 0.11066 0.0
C2645 C 0.03352 0.05414 0.10999 0.0
C2646 C 0.04195 0.05206 0.09285 0.0
C2647 C 0.00546 0.05569 0.12949 0.0
C2648 C 0.01376 0.06958 0.14539 0.0
C2649 C 0.98819 0.04425 0.13206 0.0
C2650 C 0.97842 0.0284 0.11704 0.0
C2651 C 0.98674 0.0135 0.1094 0.0
C2652 C 0.97757 0.9988 0.09496 0.0
C2653 C 0.96002 0.99874 0.08817 0.0
C2654 C 0.95156 0.01334 0.09586 0.0
C2655 C 0.96069 0.0281 0.11028 0.0
H2656 H 0.95294 0.98735 0.07698 0.0
H2657 H 0.04102 0.13158 0.21568 0.0
H2658 H 0.30874 0.69921 0.48879 0.0
H2659 H 0.31151 0.71973 0.46504 0.0
H2660 H 0.28072 0.67143 0.42457 0.0
H2661 H 0.27857 0.65082 0.4477 0.0
H2662 H 0.3091 0.68896 0.41094 0.0
H2663 H 0.26216 0.70868 0.44801 0.0
H2664 H 0.25109 0.72248 0.47718 0.0
H2665 H 0.29133 0.77525 0.4809 0.0
H2666 H 0.30276 0.76165 0.45186 0.0
H2667 H 0.26151 0.71789 0.34097 0.0
H2668 H 0.27407 0.70565 0.36658 0.0
H2669 H 0.30126 0.76399 0.3924 0.0
H2670 H 0.28753 0.77651 0.36756 0.0
H2671 H 0.28326 0.74735 0.41611 0.0
H2672 H 0.32663 0.72742 0.37529 0.0
H2673 H 0.33902 0.71132 0.34805 0.0
H2674 H 0.30356 0.65699 0.35123 0.0
H2675 H 0.29108 0.67273 0.37853 0.0
C2676 C 0.30271 0.693 0.47476 0.0
C2677 C 0.29349 0.67345 0.47002 0.0
C2678 C 0.30422 0.70473 0.46132 0.0
C2679 C 0.29622 0.69704 0.4432 0.0
C2680 C 0.28708 0.67754 0.4385 0.0
C2681 C 0.28586 0.66579 0.45175 0.0
C2682 C 0.29718 0.70893 0.42874 0.0
C2683 C 0.30345 0.70176 0.412 0.0
C2684 C 0.29044 0.72597 0.43055 0.0
C2685 C 0.28343 0.73409 0.4479 0.0
C2686 C 0.26871 0.72318 0.45512 0.0
C2687 C 0.26236 0.73097 0.47162 0.0
C2688 C 0.27053 0.74971 0.48091 0.0
C2689 C 0.28503 0.76072 0.4737 0.0
C2690 C 0.29144 0.75299 0.45723 0.0
C2691 C 0.27019 0.72811 0.35208 0.0
C2692 C 0.27331 0.74816 0.35238 0.0
C2693 C 0.27768 0.72107 0.36651 0.0
C2694 C 0.28884 0.73392 0.38122 0.0
C2695 C 0.29277 0.75387 0.38108 0.0
C2696 C 0.285 0.76096 0.36681 0.0
C2697 C 0.29428 0.7267 0.39781 0.0
C2698 C 0.28933 0.73486 0.41506 0.0
C2699 C 0.30185 0.71023 0.39641 0.0
C2700 C 0.30801 0.70124 0.37894 0.0
C2701 C 0.32136 0.7121 0.37003 0.0
C2702 C 0.32849 0.70299 0.35469 0.0
C2703 C 0.32222 0.68309 0.34808 0.0
C2704 C 0.30851 0.67234 0.35649 0.0
C2705 C 0.30147 0.68133 0.37192 0.0
H2706 H 0.32798 0.67592 0.33647 0.0
H2707 H 0.2656 0.75572 0.49368 0.0
H2708 H 0.63585 0.02933 0.71541 0.0
H2709 H 0.61791 0.02916 0.687 0.0
H2710 H 0.66656 0.04383 0.65967 0.0
H2711 H 0.68483 0.04492 0.68864 0.0
H2712 H 0.64493 0.06432 0.65098 0.0
H2713 H 0.63887 0.9978 0.64962 0.0
H2714 H 0.63371 0.9664 0.66021 0.0
H2715 H 0.5789 0.96952 0.66882 0.0
H2716 H 0.58382 1.00112 0.65856 0.0
H2717 H 0.59079 0.02015 0.56191 0.0
H2718 H 0.60851 0.02015 0.59044 0.0
H2719 H 0.57885 0.05784 0.62129 0.0
H2720 H 0.56176 0.05927 0.59236 0.0
H2721 H 0.59161 0.01092 0.62679 0.0
H2722 H 0.6053 0.08392 0.62867 0.0
H2723 H 0.61336 0.10966 0.6104 0.0
H2724 H 0.65967 0.08809 0.59367 0.0
H2725 H 0.65107 0.06123 0.61092 0.0
C2726 C 0.64279 0.03236 0.70334 0.0
C2727 C 0.66174 0.03703 0.70415 0.0
C2728 C 0.63249 0.03215 0.68707 0.0
C2729 C 0.6409 0.03612 0.67116 0.0
C2730 C 0.65984 0.04065 0.67183 0.0
C2731 C 0.67023 0.04116 0.68829 0.0
C2732 C 0.62971 0.03619 0.65416 0.0
C2733 C 0.63332 0.05259 0.64573 0.0
C2734 C 0.61477 0.02074 0.647 0.0
C2735 C 0.61178 1.00193 0.65353 0.0
C2736 C 0.62577 0.99189 0.65397 0.0
C2737 C 0.62288 0.97404 0.65987 0.0
C2738 C 0.606 0.96599 0.66524 0.0
C2739 C 0.59198 0.97579 0.6647 0.0
C2740 C 0.59481 0.99367 0.65884 0.0
C2741 C 0.58796 0.02854 0.5747 0.0
C2742 C 0.57482 0.03974 0.5749 0.0
C2743 C 0.59812 0.02847 0.59094 0.0
C2744 C 0.59511 0.03928 0.60768 0.0
C2745 C 0.58149 0.04977 0.60825 0.0
C2746 C 0.57157 0.05029 0.59183 0.0
C2747 C 0.60641 0.03932 0.62446 0.0
C2748 C 0.60301 0.02275 0.63251 0.0
C2749 C 0.62199 0.05411 0.63066 0.0
C2750 C 0.62739 0.07048 0.62082 0.0
C2751 C 0.61704 0.0845 0.62088 0.0
C2752 C 0.62177 0.09936 0.61076 0.0
C2753 C 0.63717 0.10074 0.60103 0.0
C2754 C 0.64777 0.08706 0.60124 0.0
C2755 C 0.64289 0.07192 0.61107 0.0
H2756 H 0.64085 0.11235 0.59327 0.0
H2757 H 0.60378 0.95215 0.66977 0.0
H2758 H 0.3107 0.3456 0.98393 0.0
H2759 H 0.30891 0.32671 0.95233 0.0
H2760 H 0.30326 0.37697 0.92937 0.0
H2761 H 0.3046 0.39557 0.96046 0.0
H2762 H 0.28101 0.34635 0.91002 0.0
H2763 H 0.3446 0.36145 0.93417 0.0
H2764 H 0.36978 0.35994 0.9562 0.0
H2765 H 0.35612 0.29771 0.94267 0.0
H2766 H 0.33072 0.29887 0.92075 0.0
H2767 H 0.31374 0.34367 0.82414 0.0
H2768 H 0.31438 0.34992 0.85792 0.0
H2769 H 0.30487 0.28854 0.85803 0.0
H2770 H 0.30388 0.2821 0.82367 0.0
H2771 H 0.33183 0.31703 0.88938 0.0
H2772 H 0.27103 0.30178 0.86227 0.0
H2773 H 0.24651 0.30293 0.83945 0.0
H2774 H 0.25415 0.36427 0.85854 0.0
H2775 H 0.27914 0.36358 0.88121 0.0
C2776 C 0.30886 0.35254 0.97214 0.0
C2777 C 0.30789 0.3722 0.97488 0.0
C2778 C 0.30798 0.34175 0.95404 0.0
C2779 C 0.30617 0.35043 0.93833 0.0
C2780 C 0.30466 0.36984 0.94113 0.0
C2781 C 0.3055 0.38054 0.95906 0.0
C2782 C 0.30617 0.33983 0.91887 0.0
C2783 C 0.29213 0.33993 0.9056 0.0
C2784 C 0.32034 0.33082 0.91297 0.0
C2785 C 0.33566 0.33024 0.92602 0.0
C2786 C 0.34691 0.34745 0.93601 0.0
C2787 C 0.36122 0.34666 0.94845 0.0
C2788 C 0.36451 0.32874 0.95088 0.0
C2789 C 0.35353 0.31158 0.94081 0.0
C2790 C 0.33919 0.31229 0.92838 0.0
C2791 C 0.31223 0.33148 0.83135 0.0
C2792 C 0.30889 0.31242 0.82128 0.0
C2793 C 0.31256 0.33509 0.85068 0.0
C2794 C 0.30951 0.31973 0.86051 0.0
C2795 C 0.30729 0.30062 0.85069 0.0
C2796 C 0.30682 0.29695 0.83111 0.0
C2797 C 0.30694 0.32408 0.8807 0.0
C2798 C 0.3205 0.323 0.89398 0.0
C2799 C 0.29228 0.3321 0.8867 0.0
C2800 C 0.27707 0.33264 0.87333 0.0
C2801 C 0.26761 0.31555 0.8615 0.0
C2802 C 0.2536 0.31612 0.84859 0.0
C2803 C 0.24875 0.33366 0.84751 0.0
C2804 C 0.25792 0.35068 0.85937 0.0
C2805 C 0.27202 0.35022 0.87226 0.0
H2806 H 0.23787 0.33404 0.8375 0.0
H2807 H 0.3756 0.32815 0.96053 0.0
H2808 H 0.93486 0.07266 0.34993 0.0
H2809 H 0.95101 0.0688 0.37812 0.0
H2810 H 0.99781 0.06456 0.3486 0.0
H2811 H 0.98116 0.06778 0.31975 0.0
H2812 H 1.00004 0.04287 0.37228 0.0
H2813 H 0.99221 0.1069 0.3867 0.0
H2814 H 0.97702 0.13428 0.39026 0.0
H2815 H 0.94266 0.10807 0.42801 0.0
H2816 H 0.95754 0.0804 0.42451 0.0
H2817 H 0.05207 0.04859 0.46307 0.0
H2818 H 0.03978 0.05181 0.43208 0.0
H2819 H 0.98929 0.05705 0.45401 0.0
H2820 H 1.00155 0.05416 0.4845 0.0
H2821 H 0.99183 0.0802 0.4332 0.0
H2822 H 0.9974 0.01101 0.40799 0.0
H2823 H 0.01471 0.98551 0.40123 0.0
H2824 H 0.05817 0.02656 0.38521 0.0
H2825 H 0.04059 0.05195 0.39076 0.0
C2826 C 0.94869 0.0712 0.34916 0.0
C2827 C 0.95634 0.07101 0.33181 0.0
C2828 C 0.95823 0.06906 0.3658 0.0
C2829 C 0.97636 0.06678 0.36663 0.0
C2830 C 0.98408 0.0664 0.34926 0.0
C2831 C 0.97443 0.06848 0.33242 0.0
C2832 C 0.98669 0.06457 0.38526 0.0
C2833 C 0.99817 0.05131 0.38547 0.0
C2834 C 0.98509 0.07519 0.40329 0.0
C2835 C 0.97583 0.0915 0.40517 0.0
C2836 C 0.9813 0.1069 0.39562 0.0
C2837 C 0.97277 0.12248 0.39766 0.0
C2838 C 0.95884 0.12288 0.4093 0.0
C2839 C 0.95343 0.10771 0.41896 0.0
C2840 C 0.9619 0.09208 0.41697 0.0
C2841 C 0.03824 0.05009 0.46131 0.0
C2842 C 0.02803 0.05089 0.47703 0.0
C2843 C 0.03095 0.05189 0.44315 0.0
C2844 C 0.01304 0.05468 0.43958 0.0
C2845 C 1.00302 0.05516 0.45537 0.0
C2846 C 0.0102 0.05333 0.47325 0.0
C2847 C 1.00465 0.05797 0.42038 0.0
C2848 C 0.99352 0.07156 0.42006 0.0
C2849 C 0.00697 0.04806 0.40228 0.0
C2850 C 0.01791 0.03335 0.40012 0.0
C2851 C 0.01072 0.01457 0.40317 0.0
C2852 C 0.02049 1.00013 0.39939 0.0
C2853 C 0.03766 1.0045 0.39313 0.0
C2854 C 0.04494 0.02323 0.39021 0.0
C2855 C 0.035 0.03758 0.39344 0.0
H2856 H 0.04526 0.99332 0.39038 0.0
H2857 H 0.95228 0.13498 0.41088 0.0
H2858 H 0.27649 0.66084 0.58277 0.0
H2859 H 0.27396 0.68031 0.61288 0.0
H2860 H 0.31513 0.72719 0.60133 0.0
H2861 H 0.31765 0.70791 0.57111 0.0
H2862 H 0.31883 0.71864 0.63777 0.0
H2863 H 0.27382 0.72996 0.59415 0.0
H2864 H 0.24763 0.72022 0.57055 0.0
H2865 H 0.21491 0.69384 0.60941 0.0
H2866 H 0.24101 0.70314 0.63316 0.0
H2867 H 0.30472 0.7952 0.7047 0.0
H2868 H 0.30271 0.77775 0.67271 0.0
H2869 H 0.26947 0.72716 0.68796 0.0
H2870 H 0.27214 0.74396 0.72004 0.0
H2871 H 0.26092 0.73822 0.64945 0.0
H2872 H 0.30476 0.7175 0.68805 0.0
H2873 H 0.32942 0.72357 0.71295 0.0
H2874 H 0.36196 0.76497 0.68536 0.0
H2875 H 0.33742 0.75878 0.66003 0.0
C2876 C 0.28528 0.67513 0.58684 0.0
C2877 C 0.2973 0.68293 0.57473 0.0
C2878 C 0.28368 0.68625 0.60389 0.0
C2879 C 0.29418 0.70517 0.60901 0.0
C2880 C 0.30687 0.71261 0.59741 0.0
C2881 C 0.30832 0.7016 0.58026 0.0
C2882 C 0.29176 0.71738 0.62638 0.0
C2883 C 0.30628 0.72319 0.64017 0.0
C2884 C 0.27513 0.72268 0.62963 0.0
C2885 C 0.25944 0.71705 0.61535 0.0
C2886 C 0.2611 0.7219 0.5976 0.0
C2887 C 0.24625 0.7165 0.58421 0.0
C2888 C 0.22963 0.70636 0.58845 0.0
C2889 C 0.22781 0.70166 0.60612 0.0
C2890 C 0.24262 0.707 0.61956 0.0
C2891 C 0.29698 0.7804 0.70125 0.0
C2892 C 0.28934 0.77067 0.71502 0.0
C2893 C 0.2956 0.7706 0.68297 0.0
C2894 C 0.28606 0.75125 0.67827 0.0
C2895 C 0.27685 0.74214 0.69151 0.0
C2896 C 0.27854 0.75177 0.70983 0.0
C2897 C 0.28807 0.73963 0.66047 0.0
C2898 C 0.2735 0.73384 0.64678 0.0
C2899 C 0.30447 0.73397 0.65734 0.0
C2900 C 0.31928 0.73783 0.67233 0.0
C2901 C 0.31715 0.72797 0.68737 0.0
C2902 C 0.33111 0.73143 0.70155 0.0
C2903 C 0.34721 0.74485 0.70089 0.0
C2904 C 0.34945 0.75465 0.6859 0.0
C2905 C 0.33556 0.7511 0.67158 0.0
H2906 H 0.358 0.74758 0.71194 0.0
H2907 H 0.21815 0.7022 0.57807 0.0
H2908 H 0.64978 0.02995 0.7897 0.0
H2909 H 0.63035 0.03476 0.8146 0.0
H2910 H 0.67725 0.05732 0.8542 0.0
H2911 H 0.69692 0.0523 0.82943 0.0
H2912 H 0.64954 0.03473 0.86839 0.0
H2913 H 0.65841 0.08824 0.83588 0.0
H2914 H 0.65876 0.10398 0.80839 0.0
H2915 H 0.60177 0.08051 0.79558 0.0
H2916 H 0.60115 0.06434 0.82283 0.0
H2917 H 0.60498 0.08539 0.9364 0.0
H2918 H 0.62589 0.07753 0.91365 0.0
H2919 H 0.58123 0.05644 0.87109 0.0
H2920 H 0.56025 0.06431 0.8938 0.0
H2921 H 0.60907 0.07905 0.85917 0.0
H2922 H 0.60056 0.02509 0.89181 0.0
H2923 H 0.60068 0.00926 0.91923 0.0
H2924 H 0.65741 0.03413 0.93219 0.0
H2925 H 0.6576 0.05031 0.90495 0.0
C2926 C 0.656 0.03559 0.80375 0.0
C2927 C 0.6749 0.04104 0.80758 0.0
C2928 C 0.64487 0.03838 0.81792 0.0
C2929 C 0.65247 0.04679 0.83603 0.0
C2930 C 0.67124 0.05093 0.8402 0.0
C2931 C 0.68242 0.04805 0.82604 0.0
C2932 C 0.64085 0.05247 0.85031 0.0
C2933 C 0.64082 0.04459 0.86654 0.0
C2934 C 0.62944 0.06519 0.84765 0.0
C2935 C 0.62978 0.07493 0.83128 0.0
C2936 C 0.64599 0.0863 0.82711 0.0
C2937 C 0.64623 0.09532 0.81158 0.0
C2938 C 0.63031 0.09321 0.80022 0.0
C2939 C 0.6141 0.0821 0.80437 0.0
C2940 C 0.6138 0.07302 0.81986 0.0
C2941 C 0.59966 0.07915 0.92216 0.0
C2942 C 0.58104 0.07548 0.91676 0.0
C2943 C 0.61158 0.07458 0.90925 0.0
C2944 C 0.605 0.06614 0.89084 0.0
C2945 C 0.58649 0.06291 0.88531 0.0
C2946 C 0.57457 0.06754 0.89819 0.0
C2947 C 0.61743 0.06101 0.87716 0.0
C2948 C 0.61774 0.06915 0.86106 0.0
C2949 C 0.62915 0.04862 0.88002 0.0
C2950 C 0.62903 0.03909 0.89649 0.0
C2951 C 0.61302 0.02734 0.90061 0.0
C2952 C 0.61304 0.01828 0.91609 0.0
C2953 C 0.62901 0.02077 0.92746 0.0
C2954 C 0.64504 0.03228 0.92338 0.0
C2955 C 0.64509 0.04138 0.90792 0.0
H2956 H 0.62897 0.01366 0.93938 0.0
H2957 H 0.63052 0.10021 0.78821 0.0
H2958 H 0.2967 0.33856 0.06715 0.0
H2959 H 0.29398 0.32487 0.09553 0.0
H2960 H 0.3114 0.3823 0.1286 0.0
H2961 H 0.31474 0.396 0.10019 0.0
H2962 H 0.32752 0.35986 0.14326 0.0
H2963 H 0.26538 0.35422 0.12263 0.0
H2964 H 0.23769 0.34454 0.10098 0.0
H2965 H 0.23975 0.28463 0.09684 0.0
H2966 H 0.26759 0.29397 0.11829 0.0
H2967 H 0.3059 0.33523 0.22964 0.0
H2968 H 0.30609 0.34819 0.20096 0.0
H2969 H 0.28937 0.29009 0.16912 0.0
H2970 H 0.2882 0.27704 0.1981 0.0
H2971 H 0.27305 0.31242 0.15376 0.0
H2972 H 0.33573 0.31886 0.17494 0.0
H2973 H 0.36219 0.32922 0.19827 0.0
H2974 H 0.35811 0.38857 0.20247 0.0
H2975 H 0.33153 0.37853 0.1793 0.0
C2976 C 0.29987 0.34831 0.08046 0.0
C2977 C 0.3059 0.36842 0.08133 0.0
C2978 C 0.29818 0.34045 0.09675 0.0
C2979 C 0.30219 0.35249 0.11439 0.0
C2980 C 0.30816 0.37261 0.11526 0.0
C2981 C 0.31 0.38047 0.09896 0.0
C2982 C 0.30074 0.34415 0.13188 0.0
C2983 C 0.31548 0.34968 0.14558 0.0
C2984 C 0.28526 0.33046 0.13497 0.0
C2985 C 0.26867 0.32482 0.12189 0.0
C2986 C 0.26002 0.33899 0.11696 0.0
C2987 C 0.24428 0.33357 0.10476 0.0
C2988 C 0.237 0.31399 0.09749 0.0
C2989 C 0.24542 0.29979 0.10244 0.0
C2990 C 0.26118 0.30514 0.11463 0.0
C2991 C 0.30223 0.32517 0.21654 0.0
C2992 C 0.29723 0.30507 0.21615 0.0
C2993 C 0.30248 0.33262 0.20007 0.0
C2994 C 0.29833 0.32016 0.18269 0.0
C2995 C 0.29282 0.30006 0.18229 0.0
C2996 C 0.29216 0.29259 0.19886 0.0
C2997 C 0.29979 0.32815 0.16505 0.0
C2998 C 0.28509 0.32254 0.15134 0.0
C2999 C 0.31527 0.34184 0.16198 0.0
C3000 C 0.33161 0.34793 0.17545 0.0
C3001 C 0.34048 0.33411 0.18086 0.0
C3002 C 0.35548 0.33993 0.19406 0.0
C3003 C 0.36181 0.35954 0.20186 0.0
C3004 C 0.3532 0.37339 0.19641 0.0
C3005 C 0.33819 0.36765 0.18321 0.0
H3006 H 0.3734 0.364 0.21212 0.0
H3007 H 0.2248 0.30982 0.08806 0.0
H3008 H 0.27347 0.96826 0.98724 0.0
H3009 H 0.24622 0.98029 0.99321 0.0
H3010 H 0.24533 0.96094 0.04599 0.0
H3011 H 0.27221 0.94813 0.03974 0.0
H3012 H 0.21176 0.95597 0.02977 0.0
H3013 H 0.26575 0.00769 0.04275 0.0
H3014 H 0.29419 0.0265 0.03419 0.0
H3015 H 0.2649 0.0427 0.9898 0.0
H3016 H 0.23632 0.02373 0.99792 0.0
H3017 H 0.16795 0.02184 0.08179 0.0
H3018 H 0.18932 1.00302 0.06937 0.0
H3019 H 0.18407 0.02245 0.01706 0.0
H3020 H 0.1629 0.04168 0.02954 0.0
H3021 H 0.21943 0.02657 0.0305 0.0
H3022 H 0.16507 0.97725 0.01932 0.0
H3023 H 0.13677 0.95717 0.02674 0.0
H3024 H 0.16653 0.93599 0.06722 0.0
H3025 H 0.195 0.9562 0.06027 0.0
C3026 C 0.2673 0.96635 1.0 0.0
C3027 C 0.27501 0.95756 0.01317 0.0
C3028 C 0.25178 0.97321 1.00338 0.0
C3029 C 0.24409 0.9719 0.02023 0.0
C3030 C 0.25116 0.96215 0.03295 0.0
C3031 C 0.26651 0.95491 0.02939 0.0
C3032 C 0.22962 0.98204 0.02523 0.0
C3033 C 0.21344 0.97143 0.03011 0.0
C3034 C 0.23181 1.00213 0.02524 0.0
C3035 C 0.24891 0.0142 0.02087 0.0
C3036 C 0.26538 0.01524 0.03115 0.0
C3037 C 0.28153 0.02591 0.02636 0.0
C3038 C 0.28135 0.03577 0.01145 0.0
C3039 C 0.26502 0.03505 1.00135 0.0
C3040 C 0.24884 0.02437 0.00605 0.0
C3041 C 0.17142 0.02218 0.06768 0.0
C3042 C 0.16392 0.03334 0.05668 0.0
C3043 C 0.18345 0.01127 0.06055 0.0
C3044 C 0.1881 0.01128 0.04228 0.0
C3045 C 0.18055 0.02226 0.03118 0.0
C3046 C 0.16844 0.03314 0.03829 0.0
C3047 C 0.20156 1.00053 0.03518 0.0
C3048 C 0.21763 0.01108 0.03002 0.0
C3049 C 0.19928 0.98041 0.03499 0.0
C3050 C 0.18216 0.96839 0.03939 0.0
C3051 C 0.16557 0.96847 0.02995 0.0
C3052 C 0.1495 0.95703 0.03404 0.0
C3053 C 0.14985 0.94534 0.04747 0.0
C3054 C 0.16628 0.94507 0.05683 0.0
C3055 C 0.18239 0.95651 0.05282 0.0
H3056 H 0.1374 0.93647 0.05059 0.0
H3057 H 0.29387 0.04397 0.00773 0.0
H3058 H 0.75705 0.6438 0.01447 0.0
H3059 H 0.72756 0.62295 0.0153 0.0
H3060 H 0.70268 0.65955 0.98599 0.0
H3061 H 0.73233 0.68149 0.98674 0.0
H3062 H 0.68342 0.65258 0.01087 0.0
H3063 H 0.69091 0.58981 0.96323 0.0
H3064 H 0.70358 0.56124 0.95309 0.0
H3065 H 0.72557 0.56449 0.0091 0.0
H3066 H 0.71173 0.59206 0.01971 0.0
H3067 H 0.59488 0.59067 0.99396 0.0
H3068 H 0.62508 0.60981 0.99092 0.0
H3069 H 0.64883 0.57544 0.02413 0.0
H3070 H 0.61864 0.55595 0.02648 0.0
H3071 H 0.66814 0.58077 0.99778 0.0
H3072 H 0.6441 0.62443 0.04076 0.0
H3073 H 0.62107 0.64241 0.05117 0.0
H3074 H 0.6283 0.67283 1.00537 0.0
H3075 H 0.65125 0.65484 0.99456 0.0
C3076 C 0.74531 0.64716 0.00784 0.0
C3077 C 0.7471 0.66418 1.0003 0.0
C3078 C 0.72827 0.63491 0.00802 0.0
C3079 C 0.71246 0.63893 1.00017 0.0
C3080 C 0.71442 0.65579 0.99215 0.0
C3081 C 0.73144 0.66839 0.99249 0.0
C3082 C 0.69384 0.62705 1.00203 0.0
C3083 C 0.68019 0.63686 0.00766 0.0
C3084 C 0.68914 0.6064 0.99873 0.0
C3085 C 0.7013 0.59378 0.99205 0.0
C3086 C 0.69893 0.58478 0.97325 0.0
C3087 C 0.70576 0.56834 0.96754 0.0
C3088 C 0.71547 0.56111 0.98043 0.0
C3089 C 0.71823 0.57022 0.99908 0.0
C3090 C 0.71079 0.58618 1.00497 0.0
C3091 C 0.60663 0.58708 1.00032 0.0
C3092 C 0.60455 0.57166 0.01015 0.0
C3093 C 0.6239 0.59821 0.99885 0.0
C3094 C 0.63943 0.59444 0.00758 0.0
C3095 C 0.63721 0.57879 0.01725 0.0
C3096 C 0.61997 0.56756 0.01855 0.0
C3097 C 0.65801 0.60628 0.00624 0.0
C3098 C 0.67151 0.59652 1.00083 0.0
C3099 C 0.66254 0.62683 0.00993 0.0
C3100 C 0.64929 0.6382 0.01678 0.0
C3101 C 0.64075 0.63493 0.03289 0.0
C3102 C 0.62771 0.64511 0.03886 0.0
C3103 C 0.6232 0.65873 0.02892 0.0
C3104 C 0.63181 0.66228 0.01305 0.0
C3105 C 0.64486 0.65212 0.00702 0.0
H3106 H 0.61306 0.66655 0.03352 0.0
H3107 H 0.7209 0.54849 0.97594 0.0
H3108 H 0.702 0.46833 0.30351 0.0
H3109 H 0.71629 0.44094 0.30244 0.0
H3110 H 0.71515 0.43469 0.24291 0.0
H3111 H 0.69949 0.46176 0.24398 0.0
H3112 H 0.71509 0.40058 0.24715 0.0
H3113 H 0.75734 0.45611 0.28339 0.0
H3114 H 0.76732 0.48422 0.30899 0.0
H3115 H 0.75377 0.44724 0.34901 0.0
H3116 H 0.7436 0.41897 0.32363 0.0
H3117 H 0.77661 0.33364 0.24509 0.0
H3118 H 0.76146 0.36048 0.24298 0.0
H3119 H 0.76133 0.37174 0.30258 0.0
H3120 H 0.77732 0.34587 0.30458 0.0
H3121 H 0.76297 0.40398 0.29693 0.0
H3122 H 0.71989 0.34869 0.26138 0.0
H3123 H 0.70964 0.32025 0.23615 0.0
H3124 H 0.72477 0.35604 0.1955 0.0
H3125 H 0.73516 0.38466 0.2205 0.0
C3126 C 0.7044 0.46109 0.28998 0.0
C3127 C 0.69884 0.46786 0.27388 0.0
C3128 C 0.71326 0.44524 0.28938 0.0
C3129 C 0.71817 0.4352 0.27265 0.0
C3130 C 0.71217 0.44156 0.25634 0.0
C3131 C 0.70285 0.45733 0.25691 0.0
C3132 C 0.72924 0.41854 0.27237 0.0
C3133 C 0.72568 0.40175 0.25807 0.0
C3134 C 0.74327 0.41859 0.28641 0.0
C3135 C 0.74959 0.43549 0.30163 0.0
C3136 C 0.75646 0.45401 0.29765 0.0
C3137 C 0.76215 0.46996 0.31212 0.0
C3138 C 0.76114 0.46752 0.33061 0.0
C3139 C 0.75453 0.44912 0.33468 0.0
C3140 C 0.74883 0.43312 0.32027 0.0
C3141 C 0.77374 0.34201 0.25786 0.0
C3142 C 0.77914 0.33731 0.27513 0.0
C3143 C 0.76446 0.35751 0.25665 0.0
C3144 C 0.75929 0.36897 0.27258 0.0
C3145 C 0.76471 0.36403 0.28972 0.0
C3146 C 0.77409 0.3488 0.29091 0.0
C3147 C 0.74867 0.38585 0.27188 0.0
C3148 C 0.75235 0.40274 0.28602 0.0
C3149 C 0.73474 0.38581 0.25777 0.0
C3150 C 0.72842 0.36873 0.24278 0.0
C3151 C 0.72107 0.35045 0.24705 0.0
C3152 C 0.71523 0.33431 0.2328 0.0
C3153 C 0.7166 0.33633 0.21424 0.0
C3154 C 0.72374 0.3545 0.20988 0.0
C3155 C 0.72957 0.37068 0.22408 0.0
H3156 H 0.71211 0.32382 0.20323 0.0
H3157 H 0.76552 0.47989 0.34178 0.0
H3158 H 0.857 0.47708 0.5424 0.0
H3159 H 0.8877 0.49582 0.55327 0.0
H3160 H 0.90849 0.46052 0.50953 0.0
H3161 H 0.8782 0.44025 0.50059 0.0
H3162 H 0.92789 0.46492 0.54171 0.0
H3163 H 0.89416 0.51589 0.52013 0.0
H3164 H 0.87641 0.54036 0.53103 0.0
H3165 H 0.91333 0.56199 0.57983 0.0
H3166 H 0.93111 0.53786 0.56941 0.0
H3167 H 0.01139 0.49862 0.51999 0.0
H3168 H 0.97852 0.48873 0.5162 0.0
H3169 H 0.97569 0.5438 0.54921 0.0
H3170 H 0.008 0.5549 0.54927 0.0
H3171 H 0.94703 0.53347 0.53423 0.0
H3172 H 0.97801 0.50134 0.56838 0.0
H3173 H 1.00134 0.48443 0.57711 0.0
H3174 H 0.97663 0.43458 0.53568 0.0
H3175 H 0.95331 0.45136 0.52644 0.0
C3176 C 0.86822 0.47367 0.53501 0.0
C3177 C 0.86545 0.45781 0.52027 0.0
C3178 C 0.88569 0.4844 0.54116 0.0
C3179 C 0.90037 0.47997 0.53191 0.0
C3180 C 0.89736 0.46429 0.51687 0.0
C3181 C 0.88009 0.45292 0.51149 0.0
C3182 C 0.91913 0.49078 0.53772 0.0
C3183 C 0.93216 0.47995 0.54015 0.0
C3184 C 0.9249 0.51092 0.53807 0.0
C3185 C 0.91374 0.52499 0.54399 0.0
C3186 C 0.89835 0.5259 0.53311 0.0
C3187 C 0.8883 0.5396 0.53924 0.0
C3188 C 0.89363 0.55255 0.55605 0.0
C3189 C 0.9091 0.5519 0.56684 0.0
C3190 C 0.91913 0.5382 0.56085 0.0
C3191 C 1.00352 0.50908 0.52493 0.0
C3192 C 0.01198 0.5278 0.53394 0.0
C3193 C 0.98482 0.50325 0.52344 0.0
C3194 C 0.97462 0.5152 0.5331 0.0
C3195 C 0.98307 0.53428 0.54145 0.0
C3196 C 1.00162 0.54062 0.54158 0.0
C3197 C 0.95578 0.50706 0.53629 0.0
C3198 C 0.94297 0.51845 0.53585 0.0
C3199 C 0.95054 0.4883 0.54068 0.0
C3200 C 0.96396 0.47764 0.54665 0.0
C3201 C 0.97755 0.48677 0.56112 0.0
C3202 C 0.9908 0.47724 0.56613 0.0
C3203 C 0.99048 0.45845 0.55693 0.0
C3204 C 0.97685 0.44914 0.54278 0.0
C3205 C 0.96359 0.45864 0.53766 0.0
H3206 H 1.00079 0.45111 0.56078 0.0
H3207 H 0.8858 0.56313 0.56069 0.0
H3208 H 0.4042 0.11502 0.33154 0.0
H3209 H 0.39116 0.14109 0.32227 0.0
H3210 H 0.37005 0.10388 0.26948 0.0
H3211 H 0.38405 0.07875 0.27825 0.0
H3212 H 0.38398 0.13747 0.2638 0.0
H3213 H 0.34374 0.11194 0.30799 0.0
H3214 H 0.33743 0.10423 0.33893 0.0
H3215 H 0.35713 0.1642 0.36383 0.0
H3216 H 0.36369 0.17221 0.33304 0.0
H3217 H 0.30948 0.1612 0.22632 0.0
H3218 H 0.32582 0.14525 0.24635 0.0
H3219 H 0.34947 0.20052 0.28131 0.0
H3220 H 0.3331 0.2167 0.2612 0.0
H3221 H 0.33921 0.16534 0.29992 0.0
H3222 H 0.37431 0.18893 0.25109 0.0
H3223 H 0.37744 0.19313 0.21861 0.0
H3224 H 0.36358 0.1313 0.20054 0.0
H3225 H 0.36021 0.12682 0.23296 0.0
C3226 C 0.39697 0.11279 0.31791 0.0
C3227 C 0.39518 0.09537 0.30538 0.0
C3228 C 0.38944 0.12745 0.31271 0.0
C3229 C 0.37961 0.12432 0.29524 0.0
C3230 C 0.37777 0.10667 0.28292 0.0
C3231 C 0.3857 0.09238 0.28788 0.0
C3232 C 0.37107 0.13915 0.28936 0.0
C3233 C 0.37424 0.14359 0.27176 0.0
C3234 C 0.35867 0.14742 0.29992 0.0
C3235 C 0.35434 0.14264 0.3183 0.0
C3236 C 0.34677 0.12345 0.32009 0.0
C3237 C 0.34315 0.11903 0.33758 0.0
C3238 C 0.34692 0.13371 0.35334 0.0
C3239 C 0.35423 0.15285 0.35162 0.0
C3240 C 0.35788 0.15734 0.33416 0.0
C3241 C 0.31799 0.16989 0.23841 0.0
C3242 C 0.32042 0.19012 0.24207 0.0
C3243 C 0.32714 0.1608 0.24988 0.0
C3244 C 0.33896 0.17187 0.26499 0.0
C3245 C 0.3404 0.1919 0.26959 0.0
C3246 C 0.33114 0.20105 0.25812 0.0
C3247 C 0.35154 0.16267 0.2741 0.0
C3248 C 0.34927 0.15952 0.29226 0.0
C3249 C 0.36439 0.15497 0.26384 0.0
C3250 C 0.36697 0.1576 0.24443 0.0
C3251 C 0.3719 0.17628 0.24019 0.0
C3252 C 0.37371 0.17869 0.22179 0.0
C3253 C 0.3707 0.16249 0.2075 0.0
C3254 C 0.36594 0.14384 0.21162 0.0
C3255 C 0.36412 0.14136 0.23001 0.0
H3256 H 0.37206 0.16438 0.19325 0.0
H3257 H 0.34415 0.13026 0.36689 0.0
H3258 H 0.33838 0.172 0.53821 0.0
H3259 H 0.36416 0.15775 0.54428 0.0
H3260 H 0.37719 0.15807 0.48761 0.0
H3261 H 0.35055 0.17082 0.48129 0.0
H3262 H 0.3801 0.12658 0.49341 0.0
H3263 H 0.40418 0.18913 0.53027 0.0
H3264 H 0.40491 0.21818 0.55392 0.0
H3265 H 0.39898 0.1833 0.59646 0.0
H3266 H 0.398 0.154 0.57302 0.0
H3267 H 0.47151 0.11217 0.53292 0.0
H3268 H 0.45074 0.13171 0.52381 0.0
H3269 H 0.40563 0.08975 0.53617 0.0
H3270 H 0.42578 0.06945 0.54374 0.0
H3271 H 0.42218 0.14423 0.55086 0.0
H3272 H 0.39031 0.0806 0.50605 0.0
H3273 H 0.39272 0.05485 0.48003 0.0
H3274 H 0.41762 0.09783 0.44941 0.0
H3275 H 0.41627 0.12382 0.47574 0.0
C3276 C 0.34709 0.16953 0.52725 0.0
C3277 C 0.34269 0.17285 0.50939 0.0
C3278 C 0.36191 0.16137 0.53071 0.0
C3279 C 0.37301 0.15695 0.51651 0.0
C3280 C 0.36896 0.16117 0.49887 0.0
C3281 C 0.35385 0.16873 0.49529 0.0
C3282 C 0.3879 0.14664 0.51952 0.0
C3283 C 0.38934 0.13075 0.50596 0.0
C3284 C 0.4003 0.15182 0.53573 0.0
C3285 C 0.40088 0.16937 0.54987 0.0
C3286 C 0.40292 0.18765 0.54465 0.0
C3287 C 0.4034 0.20416 0.55802 0.0
C3288 C 0.40195 0.20258 0.57668 0.0
C3289 C 0.40008 0.1845 0.58201 0.0
C3290 C 0.39959 0.16794 0.56869 0.0
C3291 C 0.45714 0.10679 0.53323 0.0
C3292 C 0.45048 0.08918 0.53933 0.0
C3293 C 0.44529 0.11809 0.52814 0.0
C3294 C 0.42659 0.11203 0.52905 0.0
C3295 C 0.41994 0.0945 0.53493 0.0
C3296 C 0.43163 0.08306 0.53963 0.0
C3297 C 0.41391 0.12432 0.52496 0.0
C3298 C 0.41293 0.14044 0.53833 0.0
C3299 C 0.40223 0.11973 0.50842 0.0
C3300 C 0.40367 0.10407 0.49305 0.0
C3301 C 0.39678 0.08453 0.49401 0.0
C3302 C 0.39793 0.0699 0.47919 0.0
C3303 C 0.40556 0.0747 0.46318 0.0
C3304 C 0.41204 0.09414 0.46196 0.0
C3305 C 0.41119 0.1088 0.47686 0.0
H3306 H 0.40629 0.06337 0.45165 0.0
H3307 H 0.40233 0.21538 0.58701 0.0
H3308 H 0.71931 0.56268 0.26227 0.0
H3309 H 0.73626 0.59476 0.26086 0.0
H3310 H 0.7006 0.61958 0.29677 0.0
H3311 H 0.68235 0.58708 0.29588 0.0
H3312 H 0.70734 0.64424 0.28156 0.0
H3313 H 0.77152 0.6254 0.29862 0.0
H3314 H 0.79407 0.60599 0.28958 0.0
H3315 H 0.77744 0.60226 0.23191 0.0
H3316 H 0.75564 0.62257 0.24059 0.0
H3317 H 0.75984 0.74236 0.29762 0.0
H3318 H 0.74442 0.70913 0.29893 0.0
H3319 H 0.77822 0.68756 0.25876 0.0
H3320 H 0.7949 0.7208 0.25931 0.0
H3321 H 0.7726 0.66183 0.27417 0.0
H3322 H 0.72446 0.68934 0.2542 0.0
H3323 H 0.70444 0.71242 0.25539 0.0
H3324 H 0.68841 0.69946 0.30805 0.0
H3325 H 0.70846 0.67644 0.30724 0.0
C3326 C 0.71514 0.57501 0.27 0.0
C3327 C 0.69936 0.57183 0.27939 0.0
C3328 C 0.72528 0.59401 0.26948 0.0
C3329 C 0.72067 0.61114 0.27889 0.0
C3330 C 0.705 0.6076 0.28876 0.0
C3331 C 0.69443 0.58861 0.28858 0.0
C3332 C 0.73108 0.6324 0.27819 0.0
C3333 C 0.72176 0.64774 0.28046 0.0
C3334 C 0.7498 0.63835 0.2752 0.0
C3335 C 0.76144 0.62465 0.27026 0.0
C3336 C 0.77247 0.62008 0.28405 0.0
C3337 C 0.78523 0.60913 0.27899 0.0
C3338 C 0.78681 0.60244 0.26023 0.0
C3339 C 0.776 0.60716 0.24644 0.0
C3340 C 0.7636 0.61854 0.25141 0.0
C3341 C 0.76412 0.73051 0.28918 0.0
C3342 C 0.77892 0.73465 0.27851 0.0
C3343 C 0.75491 0.71113 0.28961 0.0
C3344 C 0.75927 0.69478 0.27851 0.0
C3345 C 0.77411 0.69914 0.26774 0.0
C3346 C 0.78382 0.71848 0.26796 0.0
C3347 C 0.74897 0.67346 0.27832 0.0
C3348 C 0.75827 0.65826 0.27582 0.0
C3349 C 0.73008 0.66755 0.2802 0.0
C3350 C 0.7181 0.68138 0.28075 0.0
C3351 C 0.71673 0.69151 0.26607 0.0
C3352 C 0.70538 0.70456 0.26667 0.0
C3353 C 0.69521 0.70745 0.28182 0.0
C3354 C 0.69632 0.69724 0.29636 0.0
C3355 C 0.70767 0.68419 0.29583 0.0
H3356 H 0.68644 0.71757 0.28227 0.0
H3357 H 0.7966 0.59385 0.25639 0.0
H3358 H 0.87974 0.50862 0.77558 0.0
H3359 H 0.86202 0.4763 0.76334 0.0
H3360 H 0.88963 0.45394 0.80515 0.0
H3361 H 0.90942 0.48608 0.81534 0.0
H3362 H 0.88932 0.43313 0.77317 0.0
H3363 H 0.82134 0.4465 0.79796 0.0
H3364 H 0.79728 0.46377 0.79198 0.0
H3365 H 0.81536 0.46991 0.73835 0.0
H3366 H 0.83879 0.45181 0.74367 0.0
H3367 H 0.84632 0.34255 0.78605 0.0
H3368 H 0.8586 0.37755 0.79073 0.0
H3369 H 0.81744 0.38244 0.7497 0.0
H3370 H 0.80399 0.34801 0.74692 0.0
H3371 H 0.82279 0.41198 0.77196 0.0
H3372 H 0.86214 0.37953 0.73963 0.0
H3373 H 0.88018 0.35487 0.73324 0.0
H3374 H 0.91537 0.38134 0.78279 0.0
H3375 H 0.89728 0.40604 0.78972 0.0
C3376 C 0.88174 0.49671 0.78223 0.0
C3377 C 0.89556 0.49955 0.79651 0.0
C3378 C 0.87127 0.47824 0.77549 0.0
C3379 C 0.87387 0.46257 0.78364 0.0
C3380 C 0.88732 0.46578 0.79857 0.0
C3381 C 0.89851 0.48406 0.80454 0.0
C3382 C 0.86422 0.44245 0.77595 0.0
C3383 C 0.87475 0.42851 0.7729 0.0
C3384 C 0.84515 0.43629 0.77388 0.0
C3385 C 0.83266 0.44916 0.77181 0.0
C3386 C 0.82046 0.45203 0.78513 0.0
C3387 C 0.80674 0.46165 0.78172 0.0
C3388 C 0.80513 0.46845 0.76504 0.0
C3389 C 0.81688 0.4651 0.75147 0.0
C3390 C 0.83031 0.45509 0.75465 0.0
C3391 C 0.83962 0.3514 0.77868 0.0
C3392 C 0.82397 0.34314 0.76672 0.0
C3393 C 0.84679 0.3712 0.78099 0.0
C3394 C 0.83919 0.38248 0.77019 0.0
C3395 C 0.82346 0.37407 0.75827 0.0
C3396 C 0.81583 0.35449 0.75663 0.0
C3397 C 0.84802 0.40286 0.77078 0.0
C3398 C 0.83736 0.41661 0.77223 0.0
C3399 C 0.86682 0.40875 0.76975 0.0
C3400 C 0.87832 0.39459 0.76522 0.0
C3401 C 0.87374 0.3801 0.74917 0.0
C3402 C 0.88394 0.36608 0.74547 0.0
C3403 C 0.89892 0.3665 0.75759 0.0
C3404 C 0.90377 0.38104 0.77341 0.0
C3405 C 0.89355 0.39508 0.77722 0.0
H3406 H 0.90677 0.35557 0.75471 0.0
H3407 H 0.79459 0.476 0.7625 0.0
H3408 H 0.06622 0.84724 0.0672 0.0
H3409 H 0.0641 0.87679 0.0565 0.0
H3410 H 0.09417 0.91054 0.10707 0.0
H3411 H 0.09598 0.88032 0.11844 0.0
H3412 H 0.06564 0.92618 0.09707 0.0
H3413 H 0.11374 0.90592 0.0637 0.0
H3414 H 0.12735 0.88239 0.04398 0.0
H3415 H 0.08449 0.87415 1.00073 0.0
H3416 H 0.07058 0.89754 0.02024 0.0
H3417 H 0.07267 0.01394 0.06093 0.0
H3418 H 0.07657 0.9864 0.07497 0.0
H3419 H 0.06109 0.94859 0.02155 0.0
H3420 H 0.05947 0.97681 0.00725 0.0
H3421 H 0.08389 0.93556 0.03467 0.0
H3422 H 0.0337 0.95207 0.06659 0.0
H3423 H 0.01747 0.97369 0.08547 0.0
H3424 H 0.05992 0.98662 0.12982 0.0
H3425 H 0.07636 0.9651 0.11125 0.0
C3426 C 0.07253 0.86082 0.07627 0.0
C3427 C 0.08136 0.86104 0.09387 0.0
C3428 C 0.07137 0.87793 0.06992 0.0
C3429 C 0.07921 0.89621 0.08067 0.0
C3430 C 0.08805 0.89671 0.09832 0.0
C3431 C 0.08921 0.87936 0.1048 0.0
C3432 C 0.07779 0.91442 0.07325 0.0
C3433 C 0.0699 0.92838 0.08353 0.0
C3434 C 0.08261 0.91723 0.05526 0.0
C3435 C 0.0911 0.90339 0.04345 0.0
C3436 C 0.1072 0.89902 0.05001 0.0
C3437 C 0.11497 0.88573 0.03886 0.0
C3438 C 0.10677 0.87675 0.02113 0.0
C3439 C 0.09083 0.88111 0.01446 0.0
C3440 C 0.08303 0.89443 0.02553 0.0
C3441 C 0.06988 0.99969 0.05223 0.0
C3442 C 0.06526 0.99757 0.033 0.0
C3443 C 0.07189 0.9837 0.06037 0.0
C3444 C 0.06863 0.96477 0.04971 0.0
C3445 C 0.06376 0.96273 0.03042 0.0
C3446 C 0.06253 0.97891 0.02217 0.0
C3447 C 0.07129 0.94742 0.05825 0.0
C3448 C 0.0795 0.93355 0.04819 0.0
C3449 C 0.06629 0.94446 0.07623 0.0
C3450 C 0.05633 0.95719 0.08746 0.0
C3451 C 0.03959 0.95962 0.08033 0.0
C3452 C 0.03036 0.97183 0.09097 0.0
C3453 C 0.03772 0.98162 0.10875 0.0
C3454 C 0.05426 0.97908 0.11602 0.0
C3455 C 0.06351 0.96684 0.10548 0.0
H3456 H 0.03058 0.99111 0.11692 0.0
H3457 H 0.11279 0.86643 0.01254 0.0
H3458 H 0.98057 0.26036 0.87252 0.0
H3459 H 0.95389 0.26517 0.85496 0.0
H3460 H 0.93592 0.29036 0.9061 0.0
H3461 H 0.96371 0.28787 0.92324 0.0
H3462 H 0.9149 0.24997 0.86528 0.0
H3463 H 0.92939 0.31668 0.8988 0.0
H3464 H 0.9427 0.35117 0.91025 0.0
H3465 H 0.9479 0.36025 0.85414 0.0
H3466 H 0.93671 0.32523 0.84252 0.0
H3467 H 0.83223 0.27204 0.826 0.0
H3468 H 0.85742 0.26866 0.84677 0.0
H3469 H 0.89523 0.29326 0.81074 0.0
H3470 H 0.87025 0.29725 0.79042 0.0
H3471 H 0.90438 0.31014 0.84645 0.0
H3472 H 0.88404 0.24242 0.81466 0.0
H3473 H 0.86024 0.21234 0.80655 0.0
H3474 H 0.85554 0.21101 0.86453 0.0
H3475 H 0.87915 0.24118 0.87297 0.0
C3476 C 0.97145 0.26794 0.87989 0.0
C3477 C 0.97513 0.27494 0.89919 0.0
C3478 C 0.95598 0.27054 0.86983 0.0
C3479 C 0.94316 0.27959 0.87876 0.0
C3480 C 0.94609 0.28508 0.89832 0.0
C3481 C 0.9619 0.2831 0.9083 0.0
C3482 C 0.92585 0.28067 0.86783 0.0
C3483 C 0.91276 0.26328 0.86129 0.0
C3484 C 0.92234 0.29797 0.86258 0.0
C3485 C 0.93325 0.31784 0.86989 0.0
C3486 C 0.9347 0.32557 0.88899 0.0
C3487 C 0.9416 0.34539 0.8955 0.0
C3488 C 0.94632 0.3579 0.88296 0.0
C3489 C 0.94433 0.35056 0.86388 0.0
C3490 C 0.9382 0.33062 0.85738 0.0
C3491 C 0.84592 0.27659 0.82241 0.0
C3492 C 0.84905 0.28459 0.8062 0.0
C3493 C 0.86037 0.27449 0.83427 0.0
C3494 C 0.87844 0.28033 0.83032 0.0
C3495 C 0.88153 0.28835 0.81415 0.0
C3496 C 0.86713 0.29044 0.80232 0.0
C3497 C 0.89427 0.27963 0.84349 0.0
C3498 C 0.90695 0.29693 0.85032 0.0
C3499 C 0.89696 0.26262 0.84965 0.0
C3500 C 0.88334 0.24406 0.84444 0.0
C3501 C 0.87793 0.23571 0.82567 0.0
C3502 C 0.86445 0.21865 0.82102 0.0
C3503 C 0.85638 0.20977 0.83502 0.0
C3504 C 0.86182 0.21788 0.8537 0.0
C3505 C 0.87527 0.23493 0.85842 0.0
H3506 H 0.84593 0.1966 0.83139 0.0
H3507 H 0.95141 0.37327 0.88803 0.0
H3508 H 0.59234 0.2699 0.57475 0.0
H3509 H 0.59137 0.23673 0.55941 0.0
H3510 H 0.55901 0.21493 0.6011 0.0
H3511 H 0.56112 0.24823 0.61712 0.0
H3512 H 0.58543 0.19813 0.59784 0.0
H3513 H 0.53808 0.18955 0.53481 0.0
H3514 H 0.53156 0.19786 0.50415 0.0
H3515 H 0.58765 0.22414 0.50326 0.0
H3516 H 0.59461 0.21463 0.53318 0.0
H3517 H 0.55718 0.09645 0.56479 0.0
H3518 H 0.56313 0.13111 0.57725 0.0
H3519 H 0.58422 0.1432 0.52579 0.0
H3520 H 0.57599 0.10855 0.51271 0.0
H3521 H 0.56665 0.16602 0.53247 0.0
H3522 H 0.61029 0.15413 0.57503 0.0
H3523 H 0.62447 0.14044 0.59912 0.0
H3524 H 0.58516 0.15387 0.6362 0.0
H3525 H 0.57088 0.16792 0.61236 0.0
C3526 C 0.58461 0.25799 0.58034 0.0
C3527 C 0.57653 0.26173 0.59701 0.0
C3528 C 0.58383 0.23882 0.57133 0.0
C3529 C 0.57464 0.22282 0.57855 0.0
C3530 C 0.56612 0.22675 0.59497 0.0
C3531 C 0.56729 0.24586 0.60419 0.0
C3532 C 0.57573 0.20217 0.57094 0.0
C3533 C 0.5811 0.19112 0.58352 0.0
C3534 C 0.57124 0.19284 0.55206 0.0
C3535 C 0.56668 0.20257 0.53683 0.0
C3536 C 0.54891 0.19762 0.52831 0.0
C3537 C 0.54523 0.20199 0.51078 0.0
C3538 C 0.55915 0.21172 0.50185 0.0
C3539 C 0.57683 0.21688 0.51031 0.0
C3540 C 0.58065 0.21195 0.52753 0.0
C3541 C 0.56361 0.10655 0.55638 0.0
C3542 C 0.56672 0.09972 0.53797 0.0
C3543 C 0.56714 0.12654 0.56358 0.0
C3544 C 0.57446 0.14032 0.55276 0.0
C3545 C 0.57845 0.13325 0.53461 0.0
C3546 C 0.57411 0.11331 0.52716 0.0
C3547 C 0.57607 0.16183 0.55941 0.0
C3548 C 0.57105 0.17295 0.54679 0.0
C3549 C 0.58171 0.17144 0.57802 0.0
C3550 C 0.58948 0.16194 0.5919 0.0
C3551 C 0.60457 0.15398 0.58825 0.0
C3552 C 0.61268 0.14626 0.60191 0.0
C3553 C 0.60571 0.14626 0.6192 0.0
C3554 C 0.59055 0.1539 0.62283 0.0
C3555 C 0.5825 0.16183 0.60928 0.0
H3556 H 0.61207 0.14039 0.62982 0.0
H3557 H 0.55625 0.21523 0.48835 0.0
H3558 H 0.56006 0.77796 0.36878 0.0
H3559 H 0.58955 0.77902 0.35776 0.0
H3560 H 0.61201 0.77866 0.41298 0.0
H3561 H 0.58186 0.77781 0.42452 0.0
H3562 H 0.63412 0.80642 0.39332 0.0
H3563 H 0.60736 0.73884 0.38328 0.0
H3564 H 0.5826 0.70986 0.37374 0.0
H3565 H 0.58068 0.72034 0.31768 0.0
H3566 H 0.60526 0.74956 0.32695 0.0
H3567 H 0.71283 0.80032 0.34294 0.0
H3568 H 0.68962 0.79373 0.36462 0.0
H3569 H 0.64821 0.77887 0.31864 0.0
H3570 H 0.67113 0.78418 0.29714 0.0
H3571 H 0.63903 0.75552 0.34017 0.0
H3572 H 0.6618 0.82603 0.35168 0.0
H3573 H 0.68575 0.85582 0.36122 0.0
H3574 H 0.69498 0.8402 0.41447 0.0
H3575 H 0.67125 0.81019 0.40513 0.0
C3576 C 0.57112 0.77805 0.37879 0.0
C3577 C 0.56838 0.77776 0.39766 0.0
C3578 C 0.58811 0.77865 0.37235 0.0
C3579 C 0.6031 0.77884 0.38443 0.0
C3580 C 0.60064 0.77854 0.40335 0.0
C3581 C 0.58338 0.77785 0.4099 0.0
C3582 C 0.62092 0.77889 0.3766 0.0
C3583 C 0.6354 0.79507 0.38199 0.0
C3584 C 0.62262 0.76426 0.36164 0.0
C3585 C 0.60815 0.74641 0.35583 0.0
C3586 C 0.60163 0.735 0.36893 0.0
C3587 C 0.58761 0.71853 0.36357 0.0
C3588 C 0.58007 0.71326 0.34512 0.0
C3589 C 0.58655 0.72442 0.33197 0.0
C3590 C 0.60056 0.74092 0.33726 0.0
C3591 C 0.69879 0.7953 0.33746 0.0
C3592 C 0.69391 0.79313 0.31824 0.0
C3593 C 0.68545 0.79179 0.34992 0.0
C3594 C 0.66693 0.78619 0.34346 0.0
C3595 C 0.66226 0.78326 0.3242 0.0
C3596 C 0.67547 0.78652 0.31184 0.0
C3597 C 0.65211 0.78348 0.35629 0.0
C3598 C 0.63806 0.76673 0.35176 0.0
C3599 C 0.65087 0.79763 0.37198 0.0
C3600 C 0.66492 0.81579 0.37763 0.0
C3601 C 0.66901 0.82891 0.36538 0.0
C3602 C 0.68255 0.84582 0.37075 0.0
C3603 C 0.69194 0.84985 0.38841 0.0
C3604 C 0.68775 0.83702 0.40077 0.0
C3605 C 0.67426 0.82007 0.39545 0.0
H3606 H 0.70243 0.86293 0.39254 0.0
H3607 H 0.5692 0.70052 0.341 0.0
H3608 H 0.07249 0.25895 0.39517 0.0
H3609 H 0.06667 0.2323 0.4126 0.0
H3610 H 0.11206 0.26178 0.45223 0.0
H3611 H 0.11771 0.28876 0.43524 0.0
H3612 H 0.09367 0.20927 0.42731 0.0
H3613 H 0.09641 0.26812 0.48115 0.0
H3614 H 0.08837 0.29984 0.4899 0.0
H3615 H 0.03462 0.2756 0.46365 0.0
H3616 H 0.04253 0.24386 0.45448 0.0
H3617 H 0.08476 0.16027 0.50511 0.0
H3618 H 0.09402 0.18251 0.48373 0.0
H3619 H 0.03927 0.18966 0.47641 0.0
H3620 H 0.02988 0.16721 0.49754 0.0
H3621 H 0.06271 0.22371 0.48426 0.0
H3622 H 0.05724 0.16281 0.44376 0.0
H3623 H 0.0631 0.13056 0.43247 0.0
H3624 H 0.11877 0.15649 0.42862 0.0
H3625 H 0.11351 0.18874 0.44092 0.0
C3626 C 0.08144 0.25956 0.4074 0.0
C3627 C 0.09549 0.27589 0.41399 0.0
C3628 C 0.07808 0.24439 0.41729 0.0
C3629 C 0.08884 0.24537 0.43369 0.0
C3630 C 0.10354 0.26105 0.43967 0.0
C3631 C 0.10675 0.27635 0.42996 0.0
C3632 C 0.08379 0.23079 0.44539 0.0
C3633 C 0.08714 0.21234 0.43994 0.0
C3634 C 0.07483 0.23489 0.46141 0.0
C3635 C 0.07009 0.25382 0.46699 0.0
C3636 C 0.08293 0.26965 0.47716 0.0
C3637 C 0.0784 0.2876 0.48218 0.0
C3638 C 0.06101 0.28975 0.47728 0.0
C3639 C 0.0481 0.27394 0.46737 0.0
C3640 C 0.05261 0.256 0.46222 0.0
C3641 C 0.07466 0.16633 0.49869 0.0
C3642 C 0.05661 0.16208 0.50301 0.0
C3643 C 0.07997 0.17904 0.48654 0.0
C3644 C 0.06729 0.1876 0.4785 0.0
C3645 C 0.04924 0.18319 0.48258 0.0
C3646 C 0.04392 0.17048 0.49469 0.0
C3647 C 0.07292 0.20195 0.46655 0.0
C3648 C 0.06951 0.22046 0.47185 0.0
C3649 C 0.08176 0.19773 0.45033 0.0
C3650 C 0.08503 0.1782 0.44355 0.0
C3651 C 0.07083 0.1616 0.4409 0.0
C3652 C 0.07405 0.1433 0.43435 0.0
C3653 C 0.09135 0.14144 0.43002 0.0
C3654 C 0.10543 0.15789 0.43221 0.0
C3655 C 0.10236 0.17618 0.43908 0.0
H3656 H 0.09381 0.12727 0.42486 0.0
H3657 H 0.05751 0.30365 0.48121 0.0
H3658 H 0.57314 0.27681 0.14951 0.0
H3659 H 0.60288 0.2744 0.16238 0.0
H3660 H 0.58174 0.26993 0.21551 0.0
H3661 H 0.55282 0.27395 0.20318 0.0
H3662 H 0.61239 0.29062 0.22205 0.0
H3663 H 0.58833 0.2284 0.17843 0.0
H3664 H 0.57841 0.20817 0.1473 0.0
H3665 H 0.62835 0.2329 0.12719 0.0
H3666 H 0.63866 0.25322 0.1581 0.0
H3667 H 0.67309 0.22101 0.24103 0.0
H3668 H 0.64713 0.22729 0.22375 0.0
H3669 H 0.67428 0.28746 0.22935 0.0
H3670 H 0.69947 0.28176 0.24774 0.0
H3671 H 0.64286 0.24054 0.19174 0.0
H3672 H 0.64648 0.31516 0.23554 0.0
H3673 H 0.65718 0.33314 0.26735 0.0
H3674 H 0.64581 0.27988 0.28844 0.0
H3675 H 0.63503 0.26163 0.25676 0.0
C3676 C 0.57509 0.27571 0.16403 0.0
C3677 C 0.56084 0.27576 0.17545 0.0
C3678 C 0.59196 0.27404 0.1713 0.0
C3679 C 0.59448 0.27158 0.18983 0.0
C3680 C 0.58022 0.27192 0.2012 0.0
C3681 C 0.56367 0.27426 0.19416 0.0
C3682 C 0.6118 0.26866 0.19778 0.0
C3683 C 0.61898 0.27964 0.21532 0.0
C3684 C 0.62064 0.2545 0.18905 0.0
C3685 C 0.61417 0.24247 0.17048 0.0
C3686 C 0.59713 0.22961 0.16733 0.0
C3687 C 0.59145 0.21812 0.14975 0.0
C3688 C 0.60265 0.21935 0.1353 0.0
C3689 C 0.61965 0.232 0.13838 0.0
C3690 C 0.62544 0.24347 0.15591 0.0
C3691 C 0.67341 0.23561 0.23878 0.0
C3692 C 0.68834 0.25085 0.24581 0.0
C3693 C 0.65871 0.23911 0.2287 0.0
C3694 C 0.65879 0.25786 0.22545 0.0
C3695 C 0.67388 0.27294 0.23193 0.0
C3696 C 0.68837 0.26957 0.24227 0.0
C3697 C 0.64273 0.26191 0.21611 0.0
C3698 C 0.63608 0.25141 0.19833 0.0
C3699 C 0.63409 0.27619 0.22471 0.0
C3700 C 0.64005 0.28708 0.24383 0.0
C3701 C 0.64617 0.30734 0.247 0.0
C3702 C 0.6523 0.31755 0.26498 0.0
C3703 C 0.65219 0.30766 0.2799 0.0
C3704 C 0.64593 0.28752 0.27687 0.0
C3705 C 0.63984 0.27724 0.25891 0.0
H3706 H 0.65695 0.31559 0.2938 0.0
H3707 H 0.59819 0.21043 0.12173 0.0
H3708 H 0.60861 0.90016 0.89206 0.0
H3709 H 0.61005 0.92847 0.91598 0.0
H3710 H 0.62255 0.89668 0.95823 0.0
H3711 H 0.62083 0.86811 0.93445 0.0
H3712 H 0.59018 0.90633 0.96036 0.0
H3713 H 0.65103 0.93975 0.95533 0.0
H3714 H 0.67675 0.95265 0.93846 0.0
H3715 H 0.64588 0.98831 0.91551 0.0
H3716 H 0.61993 0.97563 0.93222 0.0
H3717 H 0.56571 0.97895 0.0248 0.0
H3718 H 0.58309 0.95669 0.00975 0.0
H3719 H 0.58459 0.98473 0.9618 0.0
H3720 H 0.56968 0.0085 0.97794 0.0
H3721 H 0.61498 0.97713 0.96758 0.0
H3722 H 0.55348 0.94033 0.96434 0.0
H3723 H 0.52514 0.9266 0.97696 0.0
H3724 H 0.55371 0.89617 0.00979 0.0
H3725 H 0.58225 0.90989 0.9975 0.0
C3726 C 0.61233 0.89937 0.90635 0.0
C3727 C 0.614 0.88175 0.91145 0.0
C3728 C 0.61333 0.91565 0.92001 0.0
C3729 C 0.61629 0.91452 0.93883 0.0
C3730 C 0.62023 0.89771 0.94374 0.0
C3731 C 0.61912 0.88139 0.93012 0.0
C3732 C 0.61087 0.92871 0.95301 0.0
C3733 C 0.59596 0.92181 0.96241 0.0
C3734 C 0.61791 0.94883 0.95489 0.0
C3735 C 0.63356 0.95675 0.94505 0.0
C3736 C 0.64972 0.95033 0.94667 0.0
C3737 C 0.66434 0.95764 0.93717 0.0
C3738 C 0.66296 0.97136 0.926 0.0
C3739 C 0.64695 0.97782 0.9243 0.0
C3740 C 0.63231 0.97062 0.93383 0.0
C3741 C 0.5699 0.98037 0.01114 0.0
C3742 C 0.5658 0.99494 1.00223 0.0
C3743 C 0.57965 0.96759 1.00248 0.0
C3744 C 0.5848 0.96884 0.98451 0.0
C3745 C 0.58065 0.98342 0.97562 0.0
C3746 C 0.57153 0.99658 0.98457 0.0
C3747 C 0.59407 0.95471 0.9746 0.0
C3748 C 0.60957 0.96162 0.96596 0.0
C3749 C 0.58716 0.93454 0.9728 0.0
C3750 C 0.57001 0.92628 0.98017 0.0
C3751 C 0.55372 0.9308 0.97434 0.0
C3752 C 0.53763 0.92301 0.98142 0.0
C3753 C 0.53763 0.91057 0.99421 0.0
C3754 C 0.55373 0.90584 0.99991 0.0
C3755 C 0.56986 0.9136 0.99289 0.0
H3756 H 0.52516 0.90454 0.99966 0.0
H3757 H 0.67428 0.97697 0.91862 0.0
H3758 H 0.98206 0.79435 0.7149 0.0
H3759 H 0.95275 0.78846 0.72738 0.0
H3760 H 0.92739 0.75885 0.67318 0.0
H3761 H 0.95667 0.76459 0.66042 0.0
H3762 H 0.91266 0.78936 0.69065 0.0
H3763 H 0.92814 0.73117 0.70448 0.0
H3764 H 0.94888 0.71309 0.71683 0.0
H3765 H 0.95199 0.74818 0.77102 0.0
H3766 H 0.93122 0.76641 0.75899 0.0
H3767 H 0.83051 0.78211 0.73218 0.0
H3768 H 0.85504 0.77677 0.71388 0.0
H3769 H 0.88847 0.77877 0.76427 0.0
H3770 H 0.86234 0.77989 0.78195 0.0
H3771 H 0.89697 0.7554 0.7432 0.0
H3772 H 0.8995 0.82215 0.72606 0.0
H3773 H 0.88804 0.84747 0.71314 0.0
H3774 H 0.85788 0.80429 0.66824 0.0
H3775 H 0.86939 0.77887 0.68097 0.0
C3776 C 0.97027 0.78664 0.70558 0.0
C3777 C 0.97163 0.78006 0.68665 0.0
C3778 C 0.95362 0.78303 0.71281 0.0
C3779 C 0.93816 0.77289 0.7012 0.0
C3780 C 0.93936 0.76645 0.6823 0.0
C3781 C 0.95603 0.7699 0.67506 0.0
C3782 C 0.92048 0.77105 0.7085 0.0
C3783 C 0.90894 0.78167 0.70196 0.0
C3784 C 0.91615 0.76145 0.72346 0.0
C3785 C 0.92817 0.75013 0.73083 0.0
C3786 C 0.93327 0.73502 0.71902 0.0
C3787 C 0.94501 0.72473 0.72597 0.0
C3788 C 0.95178 0.7295 0.74469 0.0
C3789 C 0.94677 0.74453 0.75651 0.0
C3790 C 0.93492 0.75474 0.74967 0.0
C3791 C 0.84321 0.78165 0.7393 0.0
C3792 C 0.84496 0.78232 0.75855 0.0
C3793 C 0.85746 0.77899 0.72882 0.0
C3794 C 0.87415 0.77827 0.73753 0.0
C3795 C 0.87584 0.77922 0.75697 0.0
C3796 C 0.86108 0.78031 0.76723 0.0
C3797 C 0.88945 0.77526 0.72649 0.0
C3798 C 0.90042 0.76322 0.73196 0.0
C3799 C 0.89374 0.7843 0.71097 0.0
C3800 C 0.88456 0.79867 0.70495 0.0
C3801 C 0.88985 0.81808 0.71387 0.0
C3802 C 0.88359 0.83244 0.70642 0.0
C3803 C 0.87211 0.82746 0.68997 0.0
C3804 C 0.86666 0.80809 0.68107 0.0
C3805 C 0.87307 0.79374 0.68837 0.0
H3806 H 0.86784 0.83865 0.68383 0.0
H3807 H 0.96086 0.72153 0.75005 0.0
H3808 H 0.13166 0.02821 0.81495 0.0
H3809 H 0.11532 0.03067 0.84321 0.0
H3810 H 0.15501 0.00814 0.87143 0.0
H3811 H 0.17147 1.00614 0.84353 0.0
H3812 H 0.12281 0.99265 0.88278 0.0
H3813 H 0.15213 0.05779 0.88028 0.0
H3814 H 0.15996 0.08746 0.86688 0.0
H3815 H 0.10421 0.09094 0.8633 0.0
H3816 H 0.096 0.06105 0.87638 0.0
H3817 H 0.10634 0.03282 0.98009 0.0
H3818 H 0.12033 0.02918 0.95049 0.0
H3819 H 0.06908 0.02502 0.92052 0.0
H3820 H 0.05487 0.02782 0.95007 0.0
H3821 H 0.10623 0.05393 0.90988 0.0
H3822 H 0.07622 0.98899 0.91059 0.0
H3823 H 0.06725 0.95915 0.92347 0.0
H3824 H 0.12269 0.9548 0.92922 0.0
H3825 H 0.13204 0.98496 0.91674 0.0
C3826 C 0.13691 0.02351 0.82701 0.0
C3827 C 0.15318 0.01671 0.82621 0.0
C3828 C 0.1275 0.02512 0.84358 0.0
C3829 C 0.13356 0.01977 0.86034 0.0
C3830 C 0.14951 0.01249 0.85928 0.0
C3831 C 0.15909 0.0113 0.84294 0.0
C3832 C 0.12376 0.02189 0.87879 0.0
C3833 C 0.11946 1.00624 0.88858 0.0
C3834 C 0.1186 0.03925 0.88711 0.0
C3835 C 0.12342 0.05706 0.87909 0.0
C3836 C 0.14151 0.06477 0.87646 0.0
C3837 C 0.14603 0.08165 0.86895 0.0
C3838 C 0.13258 0.09106 0.86419 0.0
C3839 C 0.1146 0.08361 0.86695 0.0
C3840 C 0.11001 0.0667 0.8744 0.0
C3841 C 0.09783 0.03096 0.96728 0.0
C3842 C 0.07909 0.03047 0.96817 0.0
C3843 C 0.10602 0.0289 0.95004 0.0
C3844 C 0.09615 0.0268 0.9325 0.0
C3845 C 0.07747 0.02658 0.93335 0.0
C3846 C 0.06917 0.02808 0.95058 0.0
C3847 C 0.10523 0.02468 0.91367 0.0
C3848 C 0.10955 0.04035 0.90397 0.0
C3849 C 0.11021 1.0073 0.90529 0.0
C3850 C 0.10486 0.98944 0.91311 0.0
C3851 C 0.08654 0.98187 0.91492 0.0
C3852 C 0.08138 0.96486 0.92207 0.0
C3853 C 0.09441 0.95514 0.92726 0.0
C3854 C 0.11263 0.96241 0.92527 0.0
C3855 C 0.11787 0.97948 0.91818 0.0
H3856 H 0.09037 0.94192 0.93274 0.0
H3857 H 0.13611 0.10414 0.85841 0.0
H3858 H 0.81852 0.38313 0.55062 0.0
H3859 H 0.82268 0.37016 0.57846 0.0
H3860 H 0.81757 0.42388 0.61218 0.0
H3861 H 0.81461 0.4377 0.58381 0.0
H3862 H 0.84391 0.41032 0.62654 0.0
H3863 H 0.78172 0.38174 0.60401 0.0
H3864 H 0.75704 0.36499 0.5798 0.0
H3865 H 0.78117 0.31566 0.57 0.0
H3866 H 0.80609 0.33218 0.594 0.0
H3867 H 0.84019 0.3585 0.70259 0.0
H3868 H 0.82931 0.37608 0.67976 0.0
H3869 H 0.8424 0.33526 0.63511 0.0
H3870 H 0.85351 0.31795 0.65785 0.0
H3871 H 0.80788 0.34481 0.62983 0.0
H3872 H 0.87138 0.37393 0.64651 0.0
H3873 H 0.89808 0.38972 0.66859 0.0
H3874 H 0.87293 0.43678 0.68767 0.0
H3875 H 0.84596 0.42111 0.66583 0.0
C3876 C 0.81801 0.39219 0.56391 0.0
C3877 C 0.81575 0.41126 0.56514 0.0
C3878 C 0.82034 0.38469 0.57983 0.0
C3879 C 0.81965 0.39578 0.59729 0.0
C3880 C 0.81774 0.41501 0.59871 0.0
C3881 C 0.81595 0.42283 0.58262 0.0
C3882 C 0.82151 0.38708 0.61389 0.0
C3883 C 0.83567 0.39628 0.62759 0.0
C3884 C 0.81107 0.36848 0.61485 0.0
C3885 C 0.79575 0.35821 0.60084 0.0
C3886 C 0.78175 0.36732 0.5967 0.0
C3887 C 0.76774 0.35787 0.58299 0.0
C3888 C 0.76753 0.33927 0.57338 0.0
C3889 C 0.78132 0.33004 0.57749 0.0
C3890 C 0.79536 0.33942 0.59119 0.0
C3891 C 0.84044 0.35325 0.68787 0.0
C3892 C 0.84761 0.33709 0.68172 0.0
C3893 C 0.83434 0.36324 0.67496 0.0
C3894 C 0.83522 0.35689 0.65593 0.0
C3895 C 0.84165 0.34023 0.6498 0.0
C3896 C 0.84797 0.33044 0.66268 0.0
C3897 C 0.83024 0.36803 0.64228 0.0
C3898 C 0.81562 0.35918 0.6291 0.0
C3899 C 0.84036 0.3868 0.64169 0.0
C3900 C 0.85656 0.39623 0.65477 0.0
C3901 C 0.87147 0.38755 0.65556 0.0
C3902 C 0.88667 0.39649 0.66799 0.0
C3903 C 0.88717 0.4142 0.67958 0.0
C3904 C 0.8725 0.42304 0.67871 0.0
C3905 C 0.85726 0.41414 0.66631 0.0
H3906 H 0.89895 0.42111 0.6892 0.0
H3907 H 0.75669 0.33201 0.56274 0.0
H3908 H 0.42785 0.05858 0.37723 0.0
H3909 H 0.45263 0.06415 0.40151 0.0
H3910 H 0.49127 0.07758 0.3619 0.0
H3911 H 0.46674 0.0718 0.33749 0.0
H3912 H 0.49914 0.05102 0.38146 0.0
H3913 H 0.48329 0.11294 0.39443 0.0
H3914 H 0.4627 0.13511 0.40072 0.0
H3915 H 0.44938 0.11309 0.45047 0.0
H3916 H 0.46923 0.09019 0.44407 0.0
H3917 H 0.5628 0.06494 0.46254 0.0
H3918 H 0.54913 0.07299 0.43457 0.0
H3919 H 0.4968 0.06116 0.45577 0.0
H3920 H 0.51003 0.05364 0.48335 0.0
H3921 H 0.50319 0.09446 0.44255 0.0
H3922 H 0.50899 0.02715 0.42525 0.0
H3923 H 0.52697 1.00212 0.42049 0.0
H3924 H 0.55658 0.03159 0.38138 0.0
H3925 H 0.53889 0.05692 0.38611 0.0
C3926 C 0.44159 0.06301 0.37375 0.0
C3927 C 0.44533 0.06467 0.35547 0.0
C3928 C 0.4557 0.06621 0.38761 0.0
C3929 C 0.47367 0.07141 0.38338 0.0
C3930 C 0.47744 0.07361 0.36531 0.0
C3931 C 0.46338 0.07034 0.35145 0.0
C3932 C 0.48853 0.07346 0.39767 0.0
C3933 C 0.50035 0.06086 0.39468 0.0
C3934 C 0.48983 0.08612 0.41489 0.0
C3935 C 0.47773 0.0998 0.41871 0.0
C3936 C 0.47579 0.11266 0.40659 0.0
C3937 C 0.4642 0.12531 0.41015 0.0
C3938 C 0.45462 0.12541 0.42591 0.0
C3939 C 0.45663 0.11285 0.43816 0.0
C3940 C 0.46805 0.10002 0.43456 0.0
C3941 C 0.54842 0.06403 0.46115 0.0
C3942 C 0.53749 0.0582 0.47494 0.0
C3943 C 0.54069 0.0687 0.44528 0.0
C3944 C 0.52205 0.06765 0.4433 0.0
C3945 C 0.51126 0.06215 0.45718 0.0
C3946 C 0.51888 0.05758 0.47286 0.0
C3947 C 0.51306 0.07141 0.42662 0.0
C3948 C 0.50239 0.08517 0.42907 0.0
C3949 C 0.51238 0.05936 0.40917 0.0
C3950 C 0.5228 0.04402 0.40619 0.0
C3951 C 0.51942 0.02834 0.41573 0.0
C3952 C 0.52954 0.0141 0.41303 0.0
C3953 C 0.54295 0.0153 0.40069 0.0
C3954 C 0.54622 0.0307 0.39097 0.0
C3955 C 0.53616 0.045 0.39365 0.0
H3956 H 0.55077 1.00427 0.39861 0.0
H3957 H 0.44571 0.13528 0.42868 0.0
H3958 H 0.77775 0.69583 0.07315 0.0
H3959 H 0.77766 0.71068 0.10585 0.0
H3960 H 0.81948 0.7591 0.0988 0.0
H3961 H 0.81917 0.74463 0.06583 0.0
H3962 H 0.82506 0.74255 0.13278 0.0
H3963 H 0.78311 0.76953 0.10157 0.0
H3964 H 0.75723 0.77012 0.08008 0.0
H3965 H 0.72134 0.73494 0.11059 0.0
H3966 H 0.7471 0.73385 0.1321 0.0
H3967 H 0.80673 0.80269 0.22013 0.0
H3968 H 0.80566 0.79519 0.1858 0.0
H3969 H 0.7846 0.73475 0.18676 0.0
H3970 H 0.78648 0.74197 0.22071 0.0
H3971 H 0.76999 0.76198 0.15548 0.0
H3972 H 0.81654 0.72915 0.18055 0.0
H3973 H 0.84263 0.73221 0.20331 0.0
H3974 H 0.87023 0.78326 0.18452 0.0
H3975 H 0.84412 0.78062 0.16189 0.0
C3976 C 0.787 0.70959 0.07856 0.0
C3977 C 0.79849 0.71899 0.06683 0.0
C3978 C 0.78689 0.71811 0.09727 0.0
C3979 C 0.79855 0.73605 0.10487 0.0
C3980 C 0.81037 0.74526 0.09332 0.0
C3981 C 0.81016 0.73698 0.07445 0.0
C3982 C 0.79811 0.74518 0.12477 0.0
C3983 C 0.81307 0.74697 0.13761 0.0
C3984 C 0.78258 0.75114 0.13131 0.0
C3985 C 0.76706 0.75137 0.11827 0.0
C3986 C 0.76973 0.76168 0.10354 0.0
C3987 C 0.75508 0.76217 0.0914 0.0
C3988 C 0.73766 0.75251 0.09392 0.0
C3989 C 0.73486 0.74236 0.10862 0.0
C3990 C 0.74948 0.74181 0.1208 0.0
C3991 C 0.80133 0.78795 0.21292 0.0
C3992 C 0.79629 0.77296 0.22308 0.0
C3993 C 0.80085 0.78363 0.19334 0.0
C3994 C 0.7951 0.76436 0.1837 0.0
C3995 C 0.78909 0.74968 0.19383 0.0
C3996 C 0.79005 0.75386 0.21324 0.0
C3997 C 0.79674 0.75892 0.16336 0.0
C3998 C 0.782 0.7577 0.1505 0.0
C3999 C 0.81248 0.75366 0.15675 0.0
C4000 C 0.82839 0.7548 0.16973 0.0
C4001 C 0.82816 0.74106 0.18137 0.0
C4002 C 0.84293 0.74272 0.19423 0.0
C4003 C 0.85807 0.75795 0.19541 0.0
C4004 C 0.85849 0.77149 0.18364 0.0
C4005 C 0.84371 0.76993 0.1708 0.0
H4006 H 0.86945 0.75921 0.20542 0.0
H4007 H 0.72632 0.75293 0.08453 0.0
H4008 H 0.17228 0.02048 0.69999 0.0
H4009 H 0.1581 0.0244 0.67049 0.0
H4010 H 0.10662 0.01818 0.69332 0.0
H4011 H 0.1207 0.01277 0.7224 0.0
H4012 H 0.09609 1.00684 0.66077 0.0
H4013 H 0.14022 0.06584 0.68165 0.0
H4014 H 0.17025 0.08699 0.69257 0.0
H4015 H 0.19135 0.06413 0.6425 0.0
H4016 H 0.16148 0.04271 0.63137 0.0
H4017 H 0.05653 0.04051 0.58206 0.0
H4018 H 0.06915 0.03813 0.61316 0.0
H4019 H 0.12037 0.03547 0.59173 0.0
H4020 H 0.10823 0.03926 0.56143 0.0
H4021 H 0.12972 0.05242 0.62426 0.0
H4022 H 0.08253 0.99342 0.60412 0.0
H4023 H 0.05062 0.97974 0.59221 0.0
H4024 H 0.03352 0.00833 0.64223 0.0
H4025 H 0.06534 0.02256 0.65423 0.0
C4026 C 0.15789 0.01979 0.69887 0.0
C4027 C 0.14799 0.01615 0.71427 0.0
C4028 C 0.14958 0.02247 0.68168 0.0
C4029 C 0.13085 0.0225 0.67882 0.0
C4030 C 0.12094 0.01853 0.69422 0.0
C4031 C 0.12918 0.0154 0.71127 0.0
C4032 C 0.12179 0.02649 0.66024 0.0
C4033 C 0.10369 0.017 0.65312 0.0
C4034 C 0.13074 0.03974 0.64919 0.0
C4035 C 0.14869 0.05254 0.65579 0.0
C4036 C 0.1513 0.06526 0.67303 0.0
C4037 C 0.16828 0.0773 0.67924 0.0
C4038 C 0.18271 0.07686 0.66826 0.0
C4039 C 0.18017 0.06443 0.65101 0.0
C4040 C 0.16322 0.05235 0.64473 0.0
C4041 C 0.07055 0.03969 0.58395 0.0
C4042 C 0.08115 0.04032 0.5686 0.0
C4043 C 0.0779 0.03794 0.602 0.0
C4044 C 0.09604 0.0359 0.60562 0.0
C4045 C 0.10648 0.03685 0.59024 0.0
C4046 C 0.09932 0.03898 0.57248 0.0
C4047 C 0.10434 0.03256 0.62475 0.0
C4048 C 0.12227 0.04215 0.63193 0.0
C4049 C 0.09511 0.0198 0.63599 0.0
C4050 C 0.07628 0.00911 0.63002 0.0
C4051 C 0.07195 0.99664 0.61263 0.0
C4052 C 0.05389 0.98901 0.60576 0.0
C4053 C 0.04006 0.9934 0.61635 0.0
C4054 C 0.04425 1.0051 0.63398 0.0
C4055 C 0.0623 0.01294 0.64083 0.0
H4056 H 0.02608 0.9875 0.611 0.0
H4057 H 0.19585 0.08618 0.6731 0.0
H4058 H 0.80755 0.41482 0.44168 0.0
H4059 H 0.80753 0.38841 0.41581 0.0
H4060 H 0.82334 0.35401 0.45414 0.0
H4061 H 0.82319 0.38013 0.48016 0.0
H4062 H 0.84461 0.35938 0.42013 0.0
H4063 H 0.78568 0.33699 0.43936 0.0
H4064 H 0.75633 0.34134 0.44996 0.0
H4065 H 0.7433 0.3601 0.39919 0.0
H4066 H 0.77271 0.35614 0.3884 0.0
H4067 H 0.82235 0.28476 0.33362 0.0
H4068 H 0.82296 0.2971 0.36724 0.0
H4069 H 0.81083 0.35014 0.35515 0.0
H4070 H 0.81046 0.33819 0.32201 0.0
H4071 H 0.78778 0.32634 0.38069 0.0
H4072 H 0.84848 0.3584 0.36679 0.0
H4073 H 0.87811 0.35692 0.35522 0.0
H4074 H 0.88783 0.32177 0.39511 0.0
H4075 H 0.85806 0.3228 0.40669 0.0
C4076 C 0.81087 0.40159 0.4446 0.0
C4077 C 0.81524 0.39944 0.46285 0.0
C4078 C 0.81088 0.38661 0.4299 0.0
C4079 C 0.81541 0.36949 0.43333 0.0
C4080 C 0.81982 0.36724 0.45145 0.0
C4081 C 0.81956 0.38209 0.4662 0.0
C4082 C 0.8155 0.35403 0.41769 0.0
C4083 C 0.83221 0.35159 0.41176 0.0
C4084 C 0.79926 0.34425 0.4069 0.0
C4085 C 0.7814 0.3463 0.41311 0.0
C4086 C 0.77659 0.34214 0.4305 0.0
C4087 C 0.75995 0.34452 0.43654 0.0
C4088 C 0.74796 0.351 0.42526 0.0
C4089 C 0.75259 0.35506 0.4079 0.0
C4090 C 0.76923 0.35271 0.4018 0.0
C4091 C 0.82008 0.29913 0.33832 0.0
C4092 C 0.81685 0.31083 0.32553 0.0
C4093 C 0.82037 0.30605 0.35731 0.0
C4094 C 0.81701 0.32443 0.36332 0.0
C4095 C 0.81354 0.33594 0.35052 0.0
C4096 C 0.81358 0.32924 0.33171 0.0
C4097 C 0.81686 0.33207 0.38296 0.0
C4098 C 0.80014 0.33325 0.38954 0.0
C4099 C 0.83307 0.34085 0.39422 0.0
C4100 C 0.85097 0.3404 0.38739 0.0
C4101 C 0.85685 0.35017 0.37294 0.0
C4102 C 0.87368 0.34946 0.36641 0.0
C4103 C 0.88482 0.33918 0.37436 0.0
C4104 C 0.87917 0.32967 0.38892 0.0
C4105 C 0.86232 0.3303 0.39546 0.0
H4106 H 0.89785 0.33864 0.3693 0.0
H4107 H 0.73509 0.35285 0.42997 0.0
H4108 H 0.41261 0.0313 0.2361 0.0
H4109 H 0.42533 0.02674 0.20603 0.0
H4110 H 0.47606 0.06406 0.23113 0.0
H4111 H 0.46343 0.06905 0.2608 0.0
H4112 H 0.46751 0.07128 0.19789 0.0
H4113 H 0.46756 0.01368 0.22588 0.0
H4114 H 0.45265 0.98452 0.23756 0.0
H4115 H 0.42197 0.96192 0.18457 0.0
H4116 H 0.43657 0.99107 0.17267 0.0
H4117 H 0.5429 0.04537 0.15935 0.0
H4118 H 0.51856 0.05085 0.17875 0.0
H4119 H 0.47915 0.01394 0.13606 0.0
H4120 H 0.50351 0.00829 0.1167 0.0
H4121 H 0.47465 1.00532 0.17125 0.0
H4122 H 0.47983 0.06009 0.14188 0.0
H4123 H 0.49255 0.0902 0.13062 0.0
H4124 H 0.51315 0.11845 0.18638 0.0
H4125 H 0.50077 0.08845 0.19797 0.0
C4126 C 0.42634 0.03883 0.23503 0.0
C4127 C 0.4371 0.05047 0.25072 0.0
C4128 C 0.4336 0.03609 0.21794 0.0
C4129 C 0.45164 0.0449 0.21652 0.0
C4130 C 0.46207 0.05717 0.23199 0.0
C4131 C 0.45485 0.05997 0.24895 0.0
C4132 C 0.46032 0.04094 0.1993 0.0
C4133 C 0.46912 0.05687 0.19204 0.0
C4134 C 0.46171 0.02203 0.19128 0.0
C4135 C 0.45294 1.00463 0.19849 0.0
C4136 C 0.45752 1.00255 0.21679 0.0
C4137 C 0.44915 0.98603 0.22343 0.0
C4138 C 0.43632 0.97141 0.21184 0.0
C4139 C 0.43187 0.97327 0.19355 0.0
C4140 C 0.44018 0.98978 0.18686 0.0
C4141 C 0.52906 0.03826 0.15428 0.0
C4142 C 0.52498 0.02628 0.13673 0.0
C4143 C 0.5152 0.04161 0.16517 0.0
C4144 C 0.49714 0.03298 0.15862 0.0
C4145 C 0.49304 0.0208 0.1412 0.0
C4146 C 0.50689 0.01755 0.13025 0.0
C4147 C 0.48273 0.03585 0.17063 0.0
C4148 C 0.47277 0.0197 0.1768 0.0
C4149 C 0.48042 0.05459 0.17783 0.0
C4150 C 0.48941 0.07201 0.17076 0.0
C4151 C 0.48735 0.07261 0.15169 0.0
C4152 C 0.49442 0.08968 0.14527 0.0
C4153 C 0.50353 0.1062 0.15782 0.0
C4154 C 0.50601 0.10563 0.17673 0.0
C4155 C 0.49897 0.08861 0.18322 0.0
H4156 H 0.50845 0.11954 0.15296 0.0
H4157 H 0.42986 0.95862 0.217 0.0
H4158 H 0.82095 0.69728 0.94624 0.0
H4159 H 0.82448 0.71349 0.91939 0.0
H4160 H 0.78919 0.75004 0.94079 0.0
H4161 H 0.78587 0.73396 0.96806 0.0
H4162 H 0.77937 0.73074 0.90314 0.0
H4163 H 0.83234 0.76983 0.94057 0.0
H4164 H 0.86123 0.77589 0.95993 0.0
H4165 H 0.88455 0.74696 0.91441 0.0
H4166 H 0.8557 0.74044 0.89486 0.0
H4167 H 0.7979 0.79749 0.83876 0.0
H4168 H 0.79896 0.78598 0.8684 0.0
H4169 H 0.81817 0.73668 0.84212 0.0
H4170 H 0.81674 0.74788 0.81218 0.0
H4171 H 0.83703 0.76396 0.88267 0.0
H4172 H 0.78504 0.71804 0.84884 0.0
H4173 H 0.75657 0.70818 0.82842 0.0
H4174 H 0.73301 0.74688 0.86575 0.0
H4175 H 0.76137 0.75689 0.88629 0.0
C4176 C 0.81425 0.70908 0.94546 0.0
C4177 C 0.80325 0.71445 0.95939 0.0
C4178 C 0.81629 0.71834 0.93008 0.0
C4179 C 0.80718 0.73307 0.92804 0.0
C4180 C 0.79645 0.73879 0.9421 0.0
C4181 C 0.79467 0.72972 0.95776 0.0
C4182 C 0.80796 0.74141 0.91061 0.0
C4183 C 0.79197 0.73833 0.89893 0.0
C4184 C 0.82446 0.75062 0.90457 0.0
C4185 C 0.8418 0.75449 0.91631 0.0
C4186 C 0.84358 0.76459 0.93474 0.0
C4187 C 0.85995 0.76814 0.94574 0.0
C4188 C 0.8747 0.76178 0.93842 0.0
C4189 C 0.87311 0.75187 0.92007 0.0
C4190 C 0.85675 0.74825 0.90902 0.0
C4191 C 0.80241 0.78421 0.83926 0.0
C4192 C 0.80721 0.77357 0.82307 0.0
C4193 C 0.80304 0.77769 0.85624 0.0
C4194 C 0.80876 0.76055 0.85751 0.0
C4195 C 0.81382 0.75001 0.84147 0.0
C4196 C 0.81287 0.75635 0.82436 0.0
C4197 C 0.80848 0.75326 0.87544 0.0
C4198 C 0.82449 0.75654 0.88711 0.0
C4199 C 0.79215 0.74382 0.88138 0.0
C4200 C 0.77528 0.73835 0.86892 0.0
C4201 C 0.77381 0.72457 0.85254 0.0
C4202 C 0.75769 0.71887 0.841 0.0
C4203 C 0.74298 0.72691 0.84569 0.0
C4204 C 0.74437 0.74066 0.862 0.0
C4205 C 0.76046 0.74632 0.87365 0.0
H4206 H 0.73055 0.72233 0.83667 0.0
H4207 H 0.88738 0.76456 0.94696 0.0
H4208 H 0.82069 0.10329 0.02649 0.0
H4209 H 0.84853 0.09184 0.02762 0.0
H4210 H 0.8757 0.14105 1.00521 0.0
H4211 H 0.84746 0.15271 1.00415 0.0
H4212 H 0.87786 0.10462 0.98537 0.0
H4213 H 0.88884 0.13917 0.04763 0.0
H4214 H 0.88113 0.15019 0.07928 0.0
H4215 H 0.87054 0.09161 0.08895 0.0
H4216 H 0.87791 0.08016 0.05722 0.0
H4217 H 0.95774 0.06923 0.99028 0.0
H4218 H 0.93727 0.09119 0.99642 0.0
H4219 H 0.90068 0.04745 0.01829 0.0
H4220 H 0.92125 0.0254 0.01233 0.0
H4221 H 0.90696 0.08604 0.03989 0.0
H4222 H 0.89033 0.05115 0.97702 0.0
H4223 H 0.89639 0.03878 0.94504 0.0
H4224 H 0.91598 0.09709 0.93653 0.0
H4225 H 0.91027 0.10979 0.9686 0.0
C4226 C 0.83259 0.11174 0.02195 0.0
C4227 C 0.83205 0.12866 0.01501 0.0
C4228 C 0.84853 0.10533 0.02281 0.0
C4229 C 0.86408 0.11574 0.01665 0.0
C4230 C 0.86375 0.133 0.01016 0.0
C4231 C 0.84776 0.1396 0.00956 0.0
C4232 C 0.87993 0.10718 0.0152 0.0
C4233 C 0.88464 0.10106 0.99733 0.0
C4234 C 0.88815 0.10202 0.03081 0.0
C4235 C 0.88389 0.1088 0.05001 0.0
C4236 C 0.88477 0.12861 0.05646 0.0
C4237 C 0.88046 0.13494 0.07442 0.0
C4238 C 0.87534 0.12161 0.08612 0.0
C4239 C 0.87453 0.10192 0.07988 0.0
C4240 C 0.8788 0.0955 0.06191 0.0
C4241 C 0.94534 0.06434 0.99643 0.0
C4242 C 0.94087 0.04561 1.00065 0.0
C4243 C 0.93375 0.07687 0.99996 0.0
C4244 C 0.91759 0.07081 0.00776 0.0
C4245 C 0.9132 0.05227 0.0123 0.0
C4246 C 0.92476 0.03966 0.00867 0.0
C4247 C 0.90474 0.08345 0.01008 0.0
C4248 C 0.90052 0.09011 0.02803 0.0
C4249 C 0.8968 0.08899 0.99455 0.0
C4250 C 0.90009 0.0814 0.97524 0.0
C4251 C 0.89608 0.06132 0.96837 0.0
C4252 C 0.89942 0.05425 0.95023 0.0
C4253 C 0.90662 0.06714 0.93878 0.0
C4254 C 0.91043 0.08713 0.94543 0.0
C4255 C 0.90714 0.09427 0.96358 0.0
H4256 H 0.9092 0.06164 0.92473 0.0
H4257 H 0.87202 0.12654 0.10003 0.0
H4258 H 0.37132 0.39928 0.01452 0.0
H4259 H 0.40172 0.42014 0.01578 0.0
H4260 H 0.38757 0.46238 0.05824 0.0
H4261 H 0.35719 0.44163 0.0568 0.0
H4262 H 0.41218 0.45769 0.00867 0.0
H4263 H 0.4245 0.48335 0.08764 0.0
H4264 H 0.41605 0.47134 0.11637 0.0
H4265 H 0.41115 0.41268 0.08826 0.0
H4266 H 0.41966 0.42437 0.05943 0.0
H4267 H 0.48878 0.53964 0.03312 0.0
H4268 H 0.45867 0.51981 0.03569 0.0
H4269 H 0.48219 0.47087 0.03995 0.0
H4270 H 0.5121 0.49038 0.03685 0.0
H4271 H 0.45351 0.47872 0.06662 0.0
H4272 H 0.46611 0.46863 1.00139 0.0
H4273 H 0.47484 0.48098 0.97294 0.0
H4274 H 0.42949 0.50797 0.97315 0.0
H4275 H 0.42074 0.4961 1.00184 0.0
C4276 C 0.37477 0.41302 0.02412 0.0
C4277 C 0.3618 0.41911 0.0352 0.0
C4278 C 0.3921 0.42496 0.0248 0.0
C4279 C 0.39702 0.44293 0.03706 0.0
C4280 C 0.38422 0.44861 0.04869 0.0
C4281 C 0.36682 0.43681 0.04779 0.0
C4282 C 0.41544 0.45577 0.03761 0.0
C4283 C 0.42103 0.46241 0.02141 0.0
C4284 C 0.42736 0.46183 0.0541 0.0
C4285 C 0.42261 0.45473 0.07142 0.0
C4286 C 0.4217 0.4679 0.08765 0.0
C4287 C 0.41687 0.46115 0.10392 0.0
C4288 C 0.41304 0.44125 0.10413 0.0
C4289 C 0.41407 0.42807 0.08807 0.0
C4290 C 0.41886 0.43475 0.07176 0.0
C4291 C 0.48757 0.52478 0.03495 0.0
C4292 C 0.50286 0.51663 0.03485 0.0
C4293 C 0.47035 0.51343 0.03636 0.0
C4294 C 0.46816 0.49384 0.03811 0.0
C4295 C 0.48352 0.48595 0.03875 0.0
C4296 C 0.50061 0.49711 0.03689 0.0
C4297 C 0.44981 0.4811 0.03781 0.0
C4298 C 0.44436 0.47435 0.05401 0.0
C4299 C 0.43793 0.47503 0.02134 0.0
C4300 C 0.44289 0.48167 1.00384 0.0
C4301 C 0.4581 0.47733 0.99544 0.0
C4302 C 0.46304 0.48423 0.97927 0.0
C4303 C 0.45277 0.49531 0.97127 0.0
C4304 C 0.43746 0.49942 0.97938 0.0
C4305 C 0.4325 0.4926 0.99559 0.0
H4306 H 0.45663 0.50067 0.95876 0.0
H4307 H 0.40929 0.43605 0.11674 0.0
H4308 H 0.39704 0.61845 0.80698 0.0
H4309 H 0.38253 0.64533 0.80551 0.0
H4310 H 0.40023 0.64896 0.75115 0.0
H4311 H 0.41585 0.62232 0.75315 0.0
H4312 H 0.39831 0.68308 0.76235 0.0
H4313 H 0.35001 0.62915 0.76754 0.0
H4314 H 0.33393 0.60233 0.78176 0.0
H4315 H 0.33374 0.64222 0.83246 0.0
H4316 H 0.35 0.66921 0.81861 0.0
H4317 H 0.33965 0.74482 0.74156 0.0
H4318 H 0.35427 0.71823 0.74412 0.0
H4319 H 0.33874 0.7186 0.79978 0.0
H4320 H 0.32311 0.74516 0.79668 0.0
H4321 H 0.33948 0.68273 0.78837 0.0
H4322 H 0.38729 0.7366 0.78325 0.0
H4323 H 0.40327 0.76361 0.76925 0.0
H4324 H 0.40428 0.72401 0.71858 0.0
H4325 H 0.38815 0.6968 0.73224 0.0
C4326 C 0.39817 0.62489 0.79461 0.0
C4327 C 0.40823 0.61747 0.78032 0.0
C4328 C 0.38926 0.6405 0.79358 0.0
C4329 C 0.389 0.64974 0.77784 0.0
C4330 C 0.39948 0.64271 0.76363 0.0
C4331 C 0.40874 0.62716 0.76481 0.0
C4332 C 0.37828 0.66646 0.77645 0.0
C4333 C 0.38531 0.68252 0.76789 0.0
C4334 C 0.36121 0.66728 0.78385 0.0
C4335 C 0.35136 0.65113 0.79211 0.0
C4336 C 0.3466 0.63216 0.78175 0.0
C4337 C 0.33745 0.61694 0.78974 0.0
C4338 C 0.33285 0.62056 0.80802 0.0
C4339 C 0.33733 0.63942 0.81832 0.0
C4340 C 0.3465 0.65468 0.81041 0.0
C4341 C 0.33895 0.73921 0.75437 0.0
C4342 C 0.32945 0.74763 0.76857 0.0
C4343 C 0.34792 0.72385 0.75606 0.0
C4344 C 0.34874 0.71579 0.77245 0.0
C4345 C 0.33898 0.72395 0.7868 0.0
C4346 C 0.32976 0.73945 0.78501 0.0
C4347 C 0.3595 0.69923 0.77422 0.0
C4348 C 0.35247 0.68324 0.78283 0.0
C4349 C 0.37657 0.69846 0.76687 0.0
C4350 C 0.38638 0.71472 0.75871 0.0
C4351 C 0.39086 0.73368 0.7691 0.0
C4352 C 0.39995 0.74902 0.76122 0.0
C4353 C 0.40475 0.74553 0.74302 0.0
C4354 C 0.40053 0.72669 0.73267 0.0
C4355 C 0.39144 0.7113 0.74048 0.0
H4356 H 0.41176 0.75743 0.73693 0.0
H4357 H 0.32579 0.60876 0.81419 0.0
H4358 H 0.2517 0.60996 0.52825 0.0
H4359 H 0.22212 0.59425 0.5358 0.0
H4360 H 0.19855 0.63644 0.51356 0.0
H4361 H 0.22848 0.65255 0.50632 0.0
H4362 H 0.19293 0.63412 0.55081 0.0
H4363 H 0.17082 0.57598 0.48939 0.0
H4364 H 0.17323 0.54478 0.47071 0.0
H4365 H 0.20409 0.53312 0.51667 0.0
H4366 H 0.20117 0.56384 0.53579 0.0
H4367 H 0.09853 0.60662 0.53735 0.0
H4368 H 0.13124 0.61841 0.54204 0.0
H4369 H 0.13703 0.56132 0.54935 0.0
H4370 H 0.1052 0.54906 0.54055 0.0
H4371 H 0.15503 0.56881 0.52588 0.0
H4372 H 0.15279 0.60752 0.58386 0.0
H4373 H 0.14219 0.63053 0.6073 0.0
H4374 H 0.15817 0.6758 0.57592 0.0
H4375 H 0.16853 0.65301 0.55211 0.0
C4376 C 0.24007 0.61535 0.52422 0.0
C4377 C 0.24212 0.63214 0.51634 0.0
C4378 C 0.22317 0.60633 0.52853 0.0
C4379 C 0.20814 0.61398 0.52493 0.0
C4380 C 0.21006 0.63027 0.51627 0.0
C4381 C 0.22703 0.63942 0.51213 0.0
C4382 C 0.19099 0.60684 0.53239 0.0
C4383 C 0.1845 0.61982 0.54547 0.0
C4384 C 0.18061 0.58789 0.5263 0.0
C4385 C 0.18651 0.5726 0.5137 0.0
C4386 C 0.17862 0.56703 0.49526 0.0
C4387 C 0.17965 0.5492 0.48478 0.0
C4388 C 0.18881 0.53698 0.49249 0.0
C4389 C 0.19707 0.54263 0.51068 0.0
C4390 C 0.19578 0.56029 0.52132 0.0
C4391 C 0.1069 0.59676 0.54024 0.0
C4392 C 0.0993 0.57701 0.53924 0.0
C4393 C 0.12558 0.60358 0.54335 0.0
C4394 C 0.13676 0.59084 0.54629 0.0
C4395 C 0.12882 0.57149 0.54698 0.0
C4396 C 0.11045 0.56445 0.54234 0.0
C4397 C 0.15631 0.59617 0.54414 0.0
C4398 C 0.16335 0.58298 0.53192 0.0
C4399 C 0.16735 0.6146 0.55174 0.0
C4400 C 0.16136 0.62849 0.56614 0.0
C4401 C 0.15393 0.62234 0.58189 0.0
C4402 C 0.14796 0.63535 0.59524 0.0
C4403 C 0.14947 0.65459 0.59308 0.0
C4404 C 0.15701 0.66088 0.57758 0.0
C4405 C 0.16295 0.64793 0.56416 0.0
H4406 H 0.14484 0.66463 0.60343 0.0
H4407 H 0.18959 0.52318 0.48435 0.0
H4408 H 0.70989 0.98903 0.77958 0.0
H4409 H 0.72081 0.95932 0.77331 0.0
H4410 H 0.71648 0.96033 0.71443 0.0
H4411 H 0.70555 0.99054 0.72081 0.0
H4412 H 0.70894 0.9224 0.75067 0.0
H4413 H 0.74872 0.95466 0.7025 0.0
H4414 H 0.76324 0.98516 0.69271 0.0
H4415 H 0.78083 0.01134 0.74971 0.0
H4416 H 0.7663 0.98098 0.75976 0.0
H4417 H 0.77304 0.86924 0.77045 0.0
H4418 H 0.75585 0.88223 0.74828 0.0
H4419 H 0.77988 0.94043 0.77711 0.0
H4420 H 0.79753 0.92763 0.79874 0.0
H4421 H 0.77401 0.93996 0.74095 0.0
H4422 H 0.74108 0.91544 0.79074 0.0
H4423 H 0.72898 0.88973 0.80829 0.0
H4424 H 0.69905 0.85478 0.75841 0.0
H4425 H 0.71112 0.88024 0.74056 0.0
C4426 C 0.71073 0.98255 0.76526 0.0
C4427 C 0.70702 0.99185 0.75064 0.0
C4428 C 0.71688 0.9656 0.76167 0.0
C4429 C 0.71949 0.9578 0.74342 0.0
C4430 C 0.71454 0.96628 0.72858 0.0
C4431 C 0.7082 0.98332 0.73219 0.0
C4432 C 0.72983 0.94262 0.74096 0.0
C4433 C 0.72298 0.92564 0.74769 0.0
C4434 C 0.74822 0.94733 0.73765 0.0
C4435 C 0.7564 0.96571 0.73181 0.0
C4436 C 0.75561 0.96699 0.71289 0.0
C4437 C 0.76384 0.98421 0.70732 0.0
C4438 C 0.77297 1.00015 0.72057 0.0
C4439 C 0.77376 0.99898 0.73946 0.0
C4440 C 0.76552 0.98179 0.7451 0.0
C4441 C 0.775 0.88482 0.77168 0.0
C4442 C 0.78624 0.8975 0.7865 0.0
C4443 C 0.76521 0.89217 0.75905 0.0
C4444 C 0.76647 0.91221 0.76125 0.0
C4445 C 0.77875 0.9249 0.77517 0.0
C4446 C 0.78859 0.91759 0.7877 0.0
C4447 C 0.75324 0.92007 0.75129 0.0
C4448 C 0.75967 0.93571 0.74247 0.0
C4449 C 0.73459 0.91466 0.75353 0.0
C4450 C 0.72722 0.89951 0.76428 0.0
C4451 C 0.73201 0.9022 0.78352 0.0
C4452 C 0.72515 0.88771 0.79352 0.0
C4453 C 0.71336 0.87058 0.78443 0.0
C4454 C 0.70826 0.86801 0.76539 0.0
C4455 C 0.7151 0.88245 0.75533 0.0
H4456 H 0.70818 0.85929 0.79211 0.0
H4457 H 0.77949 0.01338 0.71617 0.0
H4458 H 0.77477 0.93572 0.5573 0.0
H4459 H 0.74804 0.94952 0.5561 0.0
H4460 H 0.72599 0.90794 0.50625 0.0
H4461 H 0.75313 0.89452 0.50724 0.0
H4462 H 0.72495 0.94257 0.5008 0.0
H4463 H 0.70643 0.90771 0.54929 0.0
H4464 H 0.70944 0.89673 0.57924 0.0
H4465 H 0.71867 0.95557 0.60839 0.0
H4466 H 0.71597 0.96693 0.57858 0.0
H4467 H 0.64467 0.97834 0.49488 0.0
H4468 H 0.66452 0.95606 0.49905 0.0
H4469 H 0.69346 0.99682 0.54672 0.0
H4470 H 0.67365 0.01899 0.5425 0.0
H4471 H 0.68876 0.95999 0.55274 0.0
H4472 H 0.70976 0.99502 0.50469 0.0
H4473 H 0.70753 1.00664 0.47498 0.0
H4474 H 0.69419 0.94787 0.44524 0.0
H4475 H 0.69608 0.93588 0.47482 0.0
C4476 C 0.76385 0.92903 0.54655 0.0
C4477 C 0.76571 0.91368 0.53269 0.0
C4478 C 0.74858 0.93697 0.54581 0.0
C4479 C 0.73479 0.92968 0.53118 0.0
C4480 C 0.73634 0.91376 0.51774 0.0
C4481 C 0.75169 0.90588 0.51845 0.0
C4482 C 0.71976 0.93984 0.52899 0.0
C4483 C 0.71677 0.94595 0.51205 0.0
C4484 C 0.7094 0.9449 0.54379 0.0
C4485 C 0.71114 0.93817 0.56171 0.0
C4486 C 0.70925 0.91832 0.56208 0.0
C4487 C 0.71087 0.91203 0.57903 0.0
C4488 C 0.71428 0.92545 0.59571 0.0
C4489 C 0.71605 0.94519 0.59547 0.0
C4490 C 0.71445 0.95156 0.57855 0.0
C4491 C 0.65504 0.98226 0.50645 0.0
C4492 C 0.65768 1.00025 0.51844 0.0
C4493 C 0.66646 0.96965 0.50874 0.0
C4494 C 0.68065 0.97488 0.52306 0.0
C4495 C 0.68265 0.99248 0.53557 0.0
C4496 C 0.67135 1.00511 0.53319 0.0
C4497 C 0.69397 0.96257 0.52459 0.0
C4498 C 0.69675 0.95625 0.54142 0.0
C4499 C 0.70419 0.95737 0.50972 0.0
C4500 C 0.70282 0.96455 0.49197 0.0
C4501 C 0.70616 0.98457 0.49183 0.0
C4502 C 0.705 0.99123 0.47501 0.0
C4503 C 0.70066 0.978 0.45824 0.0
C4504 C 0.6975 0.95809 0.45824 0.0
C4505 C 0.69861 0.95136 0.47503 0.0
H4506 H 0.6998 0.98318 0.44523 0.0
H4507 H 0.71552 0.92055 0.60882 0.0
H4508 H 0.43078 0.50257 0.78433 0.0
H4509 H 0.41353 0.46909 0.78298 0.0
H4510 H 0.3669 0.48325 0.75759 0.0
H4511 H 0.38439 0.51651 0.7582 0.0
H4512 H 0.36687 0.45856 0.79561 0.0
H4513 H 0.37236 0.45891 0.72945 0.0
H4514 H 0.38977 0.46537 0.70286 0.0
H4515 H 0.42464 0.42892 0.71691 0.0
H4516 H 0.40758 0.42256 0.74383 0.0
H4517 H 0.30554 0.36431 0.77233 0.0
H4518 H 0.3219 0.39776 0.77302 0.0
H4519 H 0.37084 0.37796 0.76364 0.0
H4520 H 0.35445 0.34443 0.76309 0.0
H4521 H 0.36994 0.40594 0.7434 0.0
H4522 H 0.3628 0.40219 0.8068 0.0
H4523 H 0.34683 0.39589 0.83432 0.0
H4524 H 0.31658 0.43881 0.82713 0.0
H4525 H 0.33215 0.44512 0.79934 0.0
C4526 C 0.41682 0.49867 0.7785 0.0
C4527 C 0.40895 0.51289 0.7721 0.0
C4528 C 0.40686 0.47932 0.77774 0.0
C4529 C 0.38858 0.47316 0.77035 0.0
C4530 C 0.38081 0.48723 0.76355 0.0
C4531 C 0.39086 0.50652 0.76411 0.0
C4532 C 0.37788 0.45217 0.7695 0.0
C4533 C 0.36737 0.44719 0.78401 0.0
C4534 C 0.3786 0.43672 0.7548 0.0
C4535 C 0.38892 0.44055 0.73879 0.0
C4536 C 0.38391 0.45252 0.72702 0.0
C4537 C 0.39366 0.4561 0.71186 0.0
C4538 C 0.40836 0.44764 0.70824 0.0
C4539 C 0.41329 0.43553 0.71977 0.0
C4540 C 0.40359 0.43194 0.73498 0.0
C4541 C 0.31969 0.36685 0.77019 0.0
C4542 C 0.32829 0.35105 0.76745 0.0
C4543 C 0.32926 0.38632 0.77078 0.0
C4544 C 0.34797 0.39107 0.76849 0.0
C4545 C 0.35654 0.37526 0.76545 0.0
C4546 C 0.34702 0.35582 0.76517 0.0
C4547 C 0.35849 0.41225 0.76938 0.0
C4548 C 0.36921 0.41727 0.75497 0.0
C4549 C 0.35794 0.42774 0.78423 0.0
C4550 C 0.34846 0.42392 0.80083 0.0
C4551 C 0.3526 0.41013 0.81096 0.0
C4552 C 0.34365 0.40659 0.82663 0.0
C4553 C 0.33065 0.41689 0.83243 0.0
C4554 C 0.32661 0.4308 0.82259 0.0
C4555 C 0.33549 0.43436 0.80687 0.0
H4556 H 0.32375 0.41415 0.84458 0.0
H4557 H 0.41589 0.4504 0.69648 0.0
H4558 H 0.19992 0.61494 0.2643 0.0
H4559 H 0.22043 0.64504 0.26045 0.0
H4560 H 0.25645 0.61208 0.23388 0.0
H4561 H 0.23553 0.58195 0.23697 0.0
H4562 H 0.27255 0.64248 0.26421 0.0
H4563 H 0.23939 0.63292 0.20722 0.0
H4564 H 0.21272 0.62383 0.18429 0.0
H4565 H 0.19231 0.67155 0.21167 0.0
H4566 H 0.21864 0.68068 0.23506 0.0
H4567 H 0.31634 0.74253 0.27675 0.0
H4568 H 0.30609 0.70823 0.26323 0.0
H4569 H 0.25058 0.71327 0.26694 0.0
H4570 H 0.26102 0.74815 0.27786 0.0
H4571 H 0.25186 0.69304 0.236 0.0
H4572 H 0.28006 0.69313 0.299 0.0
H4573 H 0.30758 0.70449 0.32076 0.0
H4574 H 0.33682 0.67355 0.28232 0.0
H4575 H 0.30955 0.66259 0.26004 0.0
C4576 C 0.21219 0.61424 0.25761 0.0
C4577 C 0.21669 0.59647 0.25157 0.0
C4578 C 0.22376 0.63126 0.25528 0.0
C4579 C 0.23975 0.63053 0.24675 0.0
C4580 C 0.24409 0.61274 0.2404 0.0
C4581 C 0.23236 0.59571 0.24246 0.0
C4582 C 0.25241 0.64868 0.24598 0.0
C4583 C 0.26828 0.65351 0.25789 0.0
C4584 C 0.24694 0.66271 0.23706 0.0
C4585 C 0.23105 0.65749 0.22295 0.0
C4586 C 0.22917 0.64141 0.20846 0.0
C4587 C 0.21409 0.63625 0.19536 0.0
C4588 C 0.20083 0.64711 0.19651 0.0
C4589 C 0.20261 0.66316 0.21078 0.0
C4590 C 0.21763 0.66836 0.22396 0.0
C4591 C 0.30199 0.7362 0.27445 0.0
C4592 C 0.28933 0.74771 0.2773 0.0
C4593 C 0.29611 0.71657 0.26704 0.0
C4594 C 0.27753 0.70809 0.26403 0.0
C4595 C 0.26497 0.71955 0.26865 0.0
C4596 C 0.27086 0.73933 0.27506 0.0
C4597 C 0.27081 0.68733 0.25627 0.0
C4598 C 0.25633 0.68199 0.24228 0.0
C4599 C 0.27739 0.67277 0.26353 0.0
C4600 C 0.2929 0.67726 0.27783 0.0
C4601 C 0.29233 0.68862 0.29529 0.0
C4602 C 0.30792 0.69512 0.30763 0.0
C4603 C 0.324 0.68987 0.30285 0.0
C4604 C 0.3244 0.67772 0.28592 0.0
C4605 C 0.3089 0.67141 0.27342 0.0
H4606 H 0.33617 0.69519 0.31225 0.0
H4607 H 0.18917 0.64309 0.18635 0.0
H4608 H 0.54391 0.73861 0.46869 0.0
H4609 H 0.5493 0.7104 0.48117 0.0
H4610 H 0.51241 0.67235 0.43723 0.0
H4611 H 0.5074 0.70059 0.42425 0.0
H4612 H 0.50785 0.66504 0.47701 0.0
H4613 H 0.5529 0.67329 0.43246 0.0
H4614 H 0.57855 0.69238 0.41953 0.0
H4615 H 0.61041 0.70264 0.47196 0.0
H4616 H 0.58483 0.68386 0.48528 0.0
H4617 H 0.55337 0.57772 0.48214 0.0
H4618 H 0.55072 0.60621 0.46834 0.0
H4619 H 0.53741 0.63434 0.52083 0.0
H4620 H 0.53998 0.60596 0.5345 0.0
H4621 H 0.56695 0.64606 0.47558 0.0
H4622 H 0.5085 0.66009 0.51511 0.0
H4623 H 0.48485 0.64268 0.53183 0.0
H4624 H 0.4811 0.59034 0.49208 0.0
H4625 H 0.50486 0.60741 0.47533 0.0
C4626 C 0.53694 0.72426 0.46158 0.0
C4627 C 0.5252 0.72204 0.44536 0.0
C4628 C 0.54008 0.70806 0.46878 0.0
C4629 C 0.53131 0.68906 0.46024 0.0
C4630 C 0.51938 0.68677 0.44417 0.0
C4631 C 0.51656 0.70298 0.43669 0.0
C4632 C 0.5346 0.67172 0.46809 0.0
C4633 C 0.52078 0.66093 0.47657 0.0
C4634 C 0.5515 0.66625 0.46798 0.0
C4635 C 0.56691 0.67732 0.4599 0.0
C4636 C 0.56532 0.67975 0.44127 0.0
C4637 C 0.57986 0.69049 0.43386 0.0
C4638 C 0.59609 0.69876 0.44493 0.0
C4639 C 0.59783 0.69625 0.46341 0.0
C4640 C 0.58332 0.68555 0.47089 0.0
C4641 C 0.55033 0.59019 0.49085 0.0
C4642 C 0.5474 0.58971 0.50964 0.0
C4643 C 0.5487 0.6065 0.4829 0.0
C4644 C 0.54362 0.6226 0.49335 0.0
C4645 C 0.54108 0.6222 0.51223 0.0
C4646 C 0.54273 0.60597 0.52014 0.0
C4647 C 0.54018 0.63934 0.48445 0.0
C4648 C 0.55399 0.6501 0.47588 0.0
C4649 C 0.5234 0.6451 0.48482 0.0
C4650 C 0.50842 0.63498 0.49405 0.0
C4651 C 0.50251 0.6449 0.50991 0.0
C4652 C 0.48923 0.63506 0.51948 0.0
C4653 C 0.48159 0.61539 0.51313 0.0
C4654 C 0.48711 0.60553 0.4971 0.0
C4655 C 0.50052 0.61526 0.48759 0.0
H4656 H 0.47135 0.60788 0.52062 0.0
H4657 H 0.60732 0.70707 0.43917 0.0
H4658 H 0.62557 0.31922 0.67604 0.0
H4659 H 0.65252 0.31516 0.69291 0.0
H4660 H 0.68114 0.31836 0.64383 0.0
H4661 H 0.65343 0.32085 0.62641 0.0
H4662 H 0.69278 0.29436 0.65867 0.0
H4663 H 0.68684 0.35761 0.68766 0.0
H4664 H 0.67149 0.38199 0.70343 0.0
H4665 H 0.66248 0.35044 0.74828 0.0
H4666 H 0.67763 0.32578 0.73268 0.0
H4667 H 0.77926 0.30772 0.71071 0.0
H4668 H 0.75313 0.31229 0.69217 0.0
H4669 H 0.71931 0.29896 0.73574 0.0
H4670 H 0.7452 0.29413 0.75411 0.0
H4671 H 0.7116 0.3293 0.72339 0.0
H4672 H 0.71829 0.26624 0.69363 0.0
H4673 H 0.73542 0.24345 0.67821 0.0
H4674 H 0.74492 0.27691 0.6348 0.0
H4675 H 0.72805 0.30004 0.65011 0.0
C4676 C 0.63764 0.31932 0.66881 0.0
C4677 C 0.63724 0.32074 0.64983 0.0
C4678 C 0.65329 0.31712 0.67862 0.0
C4679 C 0.66949 0.31706 0.67011 0.0
C4680 C 0.6691 0.31847 0.65106 0.0
C4681 C 0.6532 0.32009 0.64104 0.0
C4682 C 0.6865 0.31503 0.6809 0.0
C4683 C 0.69694 0.30234 0.6727 0.0
C4684 C 0.69223 0.32495 0.69949 0.0
C4685 C 0.68322 0.33979 0.70893 0.0
C4686 C 0.6815 0.35584 0.70084 0.0
C4687 C 0.67285 0.36971 0.70975 0.0
C4688 C 0.66598 0.36774 0.72682 0.0
C4689 C 0.6678 0.35193 0.73505 0.0
C4690 C 0.67643 0.33803 0.7262 0.0
C4691 C 0.76625 0.30568 0.71633 0.0
C4692 C 0.76459 0.30088 0.73416 0.0
C4693 C 0.75122 0.30827 0.70566 0.0
C4694 C 0.73398 0.30595 0.71238 0.0
C4695 C 0.73233 0.30104 0.73013 0.0
C4696 C 0.7473 0.29839 0.74075 0.0
C4697 C 0.71769 0.30871 0.70114 0.0
C4698 C 0.70741 0.32146 0.7093 0.0
C4699 C 0.71227 0.29906 0.6825 0.0
C4700 C 0.72202 0.28492 0.67307 0.0
C4701 C 0.72409 0.26876 0.68083 0.0
C4702 C 0.73376 0.25579 0.67211 0.0
C4703 C 0.74128 0.25875 0.65555 0.0
C4704 C 0.73909 0.27465 0.64763 0.0
C4705 C 0.72947 0.28768 0.65631 0.0
H4706 H 0.74877 0.24871 0.64883 0.0
H4707 H 0.65927 0.37848 0.73369 0.0
H4708 H 1.00375 0.32837 0.95576 0.0
H4709 H 0.00696 0.36217 0.97166 0.0
H4710 H 0.0627 0.37523 0.96001 0.0
H4711 H 0.0593 0.34175 0.94342 0.0
H4712 H 0.04665 0.39108 1.00185 0.0
H4713 H 0.04762 0.38977 0.93317 0.0
H4714 H 0.03359 0.37595 0.90126 0.0
H4715 H 0.98307 0.38836 0.91691 0.0
H4716 H 0.99676 0.4019 0.94903 0.0
H4717 H 0.06848 0.49478 0.0231 0.0
H4718 H 0.06588 0.46018 0.01387 0.0
H4719 H 0.01926 0.45698 0.97588 0.0
H4720 H 0.02591 0.49206 0.98115 0.0
H4721 H 0.02996 0.43344 0.96005 0.0
H4722 H 0.02604 0.43716 0.0271 0.0
H4723 H 0.03695 0.44948 0.06022 0.0
H4724 H 0.08639 0.43084 0.05128 0.0
H4725 H 0.07587 0.4186 0.01814 0.0
C4726 C 0.01683 0.33831 0.95712 0.0
C4727 C 0.03138 0.33231 0.94864 0.0
C4728 C 0.01862 0.35766 0.96611 0.0
C4729 C 0.0351 0.37128 0.96713 0.0
C4730 C 0.0499 0.365 0.95955 0.0
C4731 C 0.04797 0.34584 0.95013 0.0
C4732 C 0.03645 0.3924 0.97432 0.0
C4733 C 0.04295 0.40048 0.99285 0.0
C4734 C 0.03122 0.40457 0.96279 0.0
C4735 C 0.02316 0.39667 0.94347 0.0
C4736 C 0.03349 0.38938 0.92983 0.0
C4737 C 0.02561 0.38165 0.91171 0.0
C4738 C 0.00748 0.38137 0.90705 0.0
C4739 C 0.99714 0.38868 0.92053 0.0
C4740 C 1.00494 0.39636 0.93869 0.0
C4741 C 0.05738 0.48651 0.01313 0.0
C4742 C 0.04627 0.4962 1.00409 0.0
C4743 C 0.05563 0.46635 0.00795 0.0
C4744 C 0.04166 0.45481 0.99467 0.0
C4745 C 0.03022 0.46474 0.98617 0.0
C4746 C 0.0333 0.48506 0.98993 0.0
C4747 C 0.03969 0.433 0.98838 0.0
C4748 C 0.03322 0.42451 0.9697 0.0
C4749 C 0.04427 0.42035 1.00014 0.0
C4750 C 0.0502 0.42706 0.02017 0.0
C4751 C 0.03921 0.43566 0.03225 0.0
C4752 C 0.04535 0.44266 0.051 0.0
C4753 C 0.06236 0.44095 0.05782 0.0
C4754 C 0.07323 0.43214 0.04597 0.0
C4755 C 0.06718 0.42514 0.02723 0.0
H4756 H 0.06718 0.4464 0.07228 0.0
H4757 H 1.00143 0.37547 0.89299 0.0
H4758 H 0.01375 0.79878 0.11514 0.0
H4759 H 0.98833 0.79709 0.13409 0.0
H4760 H 0.02515 0.8171 0.18377 0.0
H4761 H 0.05087 0.81851 0.16481 0.0
H4762 H 0.99916 0.78782 0.18866 0.0
H4763 H 0.99988 0.84673 0.16569 0.0
H4764 H 1.00002 0.86715 0.14172 0.0
H4765 H 0.94895 0.83182 0.11636 0.0
H4766 H 0.94865 0.81101 0.14003 0.0
H4767 H 0.93719 0.80794 0.25222 0.0
H4768 H 0.96111 0.81273 0.23148 0.0
H4769 H 0.92217 0.78832 0.18402 0.0
H4770 H 0.89798 0.7834 0.20494 0.0
H4771 H 0.9484 0.81924 0.17715 0.0
H4772 H 0.9476 0.76042 0.19984 0.0
H4773 H 0.94719 0.73992 0.22376 0.0
H4774 H 0.99835 0.77485 0.24931 0.0
H4775 H 0.99891 0.79577 0.2257 0.0
C4776 C 0.01657 0.80298 0.13009 0.0
C4777 C 0.03453 0.80891 0.13835 0.0
C4778 C 1.0019 0.80208 0.14096 0.0
C4779 C 1.00466 0.80723 0.16044 0.0
C4780 C 0.02256 0.81311 0.16878 0.0
C4781 C 0.03731 0.814 0.15789 0.0
C4782 C 0.98891 0.80595 0.17205 0.0
C4783 C 0.98824 0.79497 0.18628 0.0
C4784 C 0.97422 0.81469 0.16869 0.0
C4785 C 0.97433 0.82722 0.15452 0.0
C4786 C 0.98875 0.84324 0.15492 0.0
C4787 C 0.98885 0.85489 0.1414 0.0
C4788 C 0.97453 0.85076 0.1275 0.0
C4789 C 0.96005 0.83499 0.12712 0.0
C4790 C 0.9599 0.82327 0.14059 0.0
C4791 C 0.93362 0.80368 0.23736 0.0
C4792 C 0.91562 0.79493 0.23031 0.0
C4793 C 0.94737 0.80643 0.22548 0.0
C4794 C 0.94362 0.80047 0.20614 0.0
C4795 C 0.92549 0.7929 0.19889 0.0
C4796 C 0.91162 0.79015 0.21086 0.0
C4797 C 0.95883 0.80133 0.19386 0.0
C4798 C 0.95936 0.81213 0.1795 0.0
C4799 C 0.9734 0.7924 0.19703 0.0
C4800 C 0.97322 0.77975 0.21111 0.0
C4801 C 0.9587 0.76381 0.21064 0.0
C4802 C 0.95844 0.7521 0.22413 0.0
C4803 C 0.97271 0.7561 0.23807 0.0
C4804 C 0.98729 0.77178 0.23851 0.0
C4805 C 0.98759 0.78356 0.22508 0.0
H4806 H 0.97249 0.74703 0.24851 0.0
H4807 H 0.97463 0.8598 0.11704 0.0
H4808 H 0.48128 0.31842 0.12485 0.0
H4809 H 0.48971 0.34625 0.10934 0.0
H4810 H 0.54563 0.34235 0.11513 0.0
H4811 H 0.53737 0.31555 0.13187 0.0
H4812 H 0.54483 0.37771 0.11764 0.0
H4813 H 0.51541 0.3197 0.07461 0.0
H4814 H 0.49076 0.29115 0.06253 0.0
H4815 H 0.45415 0.32836 0.05666 0.0
H4816 H 0.47855 0.35713 0.06892 0.0
H4817 H 0.57318 0.41519 0.03682 0.0
H4818 H 0.56481 0.3942 0.05964 0.0
H4819 H 0.51317 0.41006 0.06165 0.0
H4820 H 0.52135 0.43086 0.03874 0.0
H4821 H 0.51116 0.37008 0.05588 0.0
H4822 H 0.54381 0.42848 0.09717 0.0
H4823 H 0.56999 0.45544 0.10884 0.0
H4824 H 0.60289 0.41498 0.11609 0.0
H4825 H 0.57699 0.3877 0.10423 0.0
C4826 C 0.49541 0.32397 0.12325 0.0
C4827 C 0.50872 0.31504 0.12945 0.0
C4828 C 0.50019 0.33966 0.11425 0.0
C4829 C 0.51821 0.34593 0.11057 0.0
C4830 C 0.53164 0.33769 0.11776 0.0
C4831 C 0.52693 0.32244 0.12733 0.0
C4832 C 0.52293 0.36011 0.0982 0.0
C4833 C 0.53757 0.37594 0.10406 0.0
C4834 C 0.51336 0.35783 0.08054 0.0
C4835 C 0.49876 0.34055 0.07282 0.0
C4836 C 0.50209 0.32178 0.0708 0.0
C4837 C 0.48816 0.30557 0.06393 0.0
C4838 C 0.47089 0.30794 0.05886 0.0
C4839 C 0.46753 0.32655 0.0606 0.0
C4840 C 0.4814 0.34281 0.06749 0.0
C4841 C 0.56 0.41404 0.04205 0.0
C4842 C 0.54782 0.42441 0.03593 0.0
C4843 C 0.55535 0.40229 0.05519 0.0
C4844 C 0.53846 0.40079 0.06232 0.0
C4845 C 0.52629 0.41116 0.05628 0.0
C4846 C 0.53097 0.42298 0.04325 0.0
C4847 C 0.53306 0.38756 0.07533 0.0
C4848 C 0.51832 0.37186 0.06951 0.0
C4849 C 0.54286 0.38966 0.09277 0.0
C4850 C 0.5585 0.40605 0.09964 0.0
C4851 C 0.55667 0.42532 0.10107 0.0
C4852 C 0.57145 0.44067 0.10778 0.0
C4853 C 0.58809 0.43696 0.11317 0.0
C4854 C 0.59 0.41785 0.11189 0.0
C4855 C 0.57527 0.40243 0.10519 0.0
H4856 H 0.59948 0.44889 0.11839 0.0
H4857 H 0.46012 0.29537 0.05357 0.0
H4858 H 0.04529 0.34428 0.4013 0.0
H4859 H 0.01423 0.34317 0.38939 0.0
H4860 H 0.0202 0.3031 0.34026 0.0
H4861 H 0.05072 0.3034 0.35273 0.0
H4862 H 1.00339 0.35493 0.36036 0.0
H4863 H 0.98109 0.27581 0.32046 0.0
H4864 H 0.98562 0.24324 0.32286 0.0
H4865 H 0.99676 0.26051 0.38212 0.0
H4866 H 0.99202 0.29311 0.38011 0.0
H4867 H 0.94081 0.33433 0.28064 0.0
H4868 H 0.96602 0.33829 0.30423 0.0
H4869 H 0.92901 0.31407 0.34128 0.0
H4870 H 0.90368 0.31011 0.31766 0.0
H4871 H 0.95764 0.29504 0.33323 0.0
H4872 H 0.94965 0.35935 0.35668 0.0
H4873 H 0.94488 0.3917 0.35355 0.0
H4874 H 0.99367 0.403 0.32637 0.0
H4875 H 0.99841 0.37055 0.32893 0.0
C4876 C 0.03976 0.33512 0.38807 0.0
C4877 C 0.05035 0.32449 0.37749 0.0
C4878 C 0.02213 0.3345 0.38128 0.0
C4879 C 0.01489 0.323 0.364 0.0
C4880 C 0.02535 0.31179 0.3538 0.0
C4881 C 0.04287 0.31225 0.36071 0.0
C4882 C 0.99684 0.32363 0.35605 0.0
C4883 C 0.99338 0.34181 0.35455 0.0
C4884 C 0.98364 0.30654 0.34868 0.0
C4885 C 0.98628 0.28692 0.35012 0.0
C4886 C 0.98439 0.27262 0.33402 0.0
C4887 C 0.98701 0.25416 0.3353 0.0
C4888 C 0.9915 0.24982 0.35263 0.0
C4889 C 0.99332 0.26391 0.36871 0.0
C4890 C 0.99068 0.28239 0.3675 0.0
C4891 C 0.93809 0.33013 0.29393 0.0
C4892 C 0.92048 0.32178 0.2974 0.0
C4893 C 0.95239 0.33254 0.30739 0.0
C4894 C 0.94921 0.32654 0.32441 0.0
C4895 C 0.93156 0.31886 0.3282 0.0
C4896 C 0.9172 0.31664 0.31479 0.0
C4897 C 0.96463 0.3262 0.33715 0.0
C4898 C 0.96762 0.3081 0.33938 0.0
C4899 C 0.97744 0.34327 0.34503 0.0
C4900 C 0.97452 0.36267 0.34324 0.0
C4901 C 0.95932 0.36874 0.35001 0.0
C4902 C 0.9566 0.38707 0.3483 0.0
C4903 C 0.96901 0.39944 0.33985 0.0
C4904 C 0.98412 0.39347 0.33302 0.0
C4905 C 0.98687 0.37513 0.33465 0.0
H4906 H 0.96689 0.41363 0.33855 0.0
H4907 H 0.99355 0.23552 0.35359 0.0
H4908 H 0.9895 0.70407 0.65603 0.0
H4909 H 0.9883 0.67074 0.64101 0.0
H4910 H 0.99093 0.68864 0.5876 0.0
H4911 H 0.99145 0.72179 0.6024 0.0
H4912 H 0.97499 0.65087 0.58351 0.0
H4913 H 0.02913 0.69501 0.61418 0.0
H4914 H 0.04849 0.71775 0.64015 0.0
H4915 H 0.04318 0.6727 0.67278 0.0
H4916 H 0.02354 0.64979 0.64709 0.0
H4917 H 0.04039 0.60757 0.53953 0.0
H4918 H 0.02426 0.63045 0.55563 0.0
H4919 H 0.01776 0.59784 0.60027 0.0
H4920 H 0.03329 0.57442 0.58373 0.0
H4921 H 0.03204 0.63881 0.61049 0.0
H4922 H 0.98216 0.59317 0.57212 0.0
H4923 H 0.96814 0.57362 0.54186 0.0
H4924 H 0.97141 0.62541 0.51895 0.0
H4925 H 0.98558 0.6453 0.54901 0.0
C4926 C 0.98899 0.7007 0.641 0.0
C4927 C 0.99106 0.71544 0.63036 0.0
C4928 C 0.98826 0.6817 0.63246 0.0
C4929 C 0.99008 0.67753 0.61336 0.0
C4930 C 0.98961 0.6917 0.60241 0.0
C4931 C 0.99001 0.71064 0.61089 0.0
C4932 C 0.99655 0.66027 0.60566 0.0
C4933 C 0.98733 0.64806 0.58949 0.0
C4934 C 0.01291 0.65699 0.61333 0.0
C4935 C 0.02459 0.6708 0.62887 0.0
C4936 C 0.03192 0.69002 0.62698 0.0
C4937 C 0.04298 0.70293 0.64162 0.0
C4938 C 0.04699 0.6967 0.65814 0.0
C4939 C 0.04 0.67753 0.66001 0.0
C4940 C 0.02889 0.66459 0.64543 0.0
C4941 C 0.03505 0.60502 0.55244 0.0
C4942 C 0.03748 0.5891 0.56016 0.0
C4943 C 0.02605 0.61812 0.5617 0.0
C4944 C 0.01955 0.61537 0.5788 0.0
C4945 C 0.02255 0.59987 0.58691 0.0
C4946 C 0.03149 0.58671 0.57758 0.0
C4947 C 0.01035 0.62935 0.58859 0.0
C4948 C 0.01928 0.64113 0.60499 0.0
C4949 C 0.9942 0.63265 0.58068 0.0
C4950 C 0.98489 0.62074 0.56285 0.0
C4951 C 0.97988 0.6004 0.56064 0.0
C4952 C 0.97195 0.58925 0.54351 0.0
C4953 C 0.96889 0.59827 0.52852 0.0
C4954 C 0.97374 0.61846 0.53061 0.0
C4955 C 0.98166 0.62968 0.5477 0.0
H4956 H 0.96272 0.58962 0.5153 0.0
H4957 H 0.05555 0.70671 0.66945 0.0
H4958 H 0.65366 0.82604 0.88597 0.0
H4959 H 0.68292 0.8253 0.87338 0.0
H4960 H 0.658 0.82027 0.81792 0.0
H4961 H 0.62913 0.82157 0.83024 0.0
H4962 H 0.68176 0.79044 0.83929 0.0
H4963 H 0.67603 0.85005 0.81274 0.0
H4964 H 0.67416 0.88436 0.81701 0.0
H4965 H 0.72105 0.89991 0.8565 0.0
H4966 H 0.72289 0.86553 0.85274 0.0
H4967 H 0.75122 0.82011 0.76746 0.0
H4968 H 0.72323 0.81963 0.78259 0.0
H4969 H 0.74372 0.79293 0.82541 0.0
H4970 H 0.77139 0.79287 0.80996 0.0
H4971 H 0.72428 0.84087 0.81496 0.0
H4972 H 0.71806 0.77478 0.84611 0.0
H4973 H 0.70816 0.73933 0.8436 0.0
H4974 H 0.67861 0.73511 0.79105 0.0
H4975 H 0.68725 0.77072 0.79387 0.0
C4976 C 0.65455 0.82488 0.87112 0.0
C4977 C 0.63929 0.82388 0.85902 0.0
C4978 C 0.67121 0.82484 0.86405 0.0
C4979 C 0.67258 0.82374 0.84492 0.0
C4980 C 0.65727 0.82221 0.83284 0.0
C4981 C 0.64077 0.82255 0.83985 0.0
C4982 C 0.68901 0.82043 0.83691 0.0
C4983 C 0.69134 0.80147 0.83419 0.0
C4984 C 0.70095 0.83482 0.83 0.0
C4985 C 0.69926 0.85521 0.83289 0.0
C4986 C 0.68562 0.8607 0.82271 0.0
C4987 C 0.68465 0.88018 0.82493 0.0
C4988 C 0.69738 0.8943 0.83715 0.0
C4989 C 0.71111 0.88895 0.84716 0.0
C4990 C 0.71209 0.86948 0.84503 0.0
C4991 C 0.74946 0.81374 0.77984 0.0
C4992 C 0.76321 0.80638 0.78748 0.0
C4993 C 0.73351 0.81332 0.78841 0.0
C4994 C 0.73134 0.80608 0.80505 0.0
C4995 C 0.74489 0.79814 0.81238 0.0
C4996 C 0.76077 0.79833 0.80366 0.0
C4997 C 0.71673 0.81034 0.81634 0.0
C4998 C 0.71493 0.82971 0.8201 0.0
C4999 C 0.70489 0.79614 0.82379 0.0
C5000 C 0.70422 0.77522 0.81961 0.0
C5001 C 0.71012 0.76618 0.83363 0.0
C5002 C 0.70452 0.74612 0.83232 0.0
C5003 C 0.69336 0.73488 0.8169 0.0
C5004 C 0.68751 0.74376 0.80286 0.0
C5005 C 0.69275 0.76389 0.8043 0.0
H5006 H 0.68903 0.71936 0.81598 0.0
H5007 H 0.69668 0.90939 0.83876 0.0
H5008 H 0.43429 0.56015 0.70116 0.0
H5009 H 0.44835 0.55816 0.6718 0.0
H5010 H 0.50067 0.56811 0.70198 0.0
H5011 H 0.48661 0.57149 0.73136 0.0
H5012 H 0.5094 0.58191 0.67512 0.0
H5013 H 0.46913 0.51905 0.66946 0.0
H5014 H 0.43989 0.49603 0.66895 0.0
H5015 H 0.41758 0.5194 0.62501 0.0
H5016 H 0.44665 0.54266 0.62538 0.0
H5017 H 0.554 0.55351 0.59271 0.0
H5018 H 0.54015 0.55647 0.62215 0.0
H5019 H 0.48845 0.55133 0.59241 0.0
H5020 H 0.50228 0.54777 0.56292 0.0
H5021 H 0.4797 0.53517 0.6189 0.0
H5022 H 0.5209 0.59726 0.62404 0.0
H5023 H 0.55075 0.61895 0.62391 0.0
H5024 H 0.57188 0.59595 0.66876 0.0
H5025 H 0.54222 0.57391 0.66896 0.0
C5026 C 0.44882 0.56199 0.70171 0.0
C5027 C 0.45896 0.56603 0.71933 0.0
C5028 C 0.45709 0.56049 0.68449 0.0
C5029 C 0.47607 0.56223 0.68355 0.0
C5030 C 0.48616 0.56649 0.70128 0.0
C5031 C 0.47793 0.5684 0.71851 0.0
C5032 C 0.48534 0.55995 0.66466 0.0
C5033 C 0.50275 0.57137 0.66307 0.0
C5034 C 0.47738 0.54669 0.6479 0.0
C5035 C 0.45998 0.5327 0.64758 0.0
C5036 C 0.45796 0.51931 0.65975 0.0
C5037 C 0.44142 0.50623 0.65948 0.0
C5038 C 0.42688 0.50629 0.64699 0.0
C5039 C 0.42885 0.51939 0.63469 0.0
C5040 C 0.44535 0.53251 0.63491 0.0
C5041 C 0.53973 0.55329 0.59222 0.0
C5042 C 0.5297 0.5507 0.57469 0.0
C5043 C 0.53158 0.55511 0.6095 0.0
C5044 C 0.51284 0.55479 0.61054 0.0
C5045 C 0.50281 0.55188 0.59294 0.0
C5046 C 0.51093 0.54989 0.57568 0.0
C5047 C 0.50368 0.55708 0.62943 0.0
C5048 C 0.48631 0.54568 0.63099 0.0
C5049 C 0.51172 0.57026 0.64617 0.0
C5050 C 0.52939 0.58384 0.64641 0.0
C5051 C 0.53193 0.59681 0.63384 0.0
C5052 C 0.54882 0.60914 0.63374 0.0
C5053 C 0.56321 0.6088 0.64629 0.0
C5054 C 0.56072 0.59618 0.65903 0.0
C5055 C 0.54388 0.58377 0.65915 0.0
H5056 H 0.57628 0.61833 0.64616 0.0
H5057 H 0.41408 0.49616 0.64681 0.0
H5058 H 0.7699 0.14816 0.94924 0.0
H5059 H 0.77184 0.16671 0.9244 0.0
H5060 H 0.81789 0.20819 0.95513 0.0
H5061 H 0.81447 0.19073 0.98121 0.0
H5062 H 0.79818 0.22656 0.94105 0.0
H5063 H 0.82101 0.17172 0.91342 0.0
H5064 H 0.82062 0.13686 0.90486 0.0
H5065 H 0.7694 0.1273 0.87293 0.0
H5066 H 0.76925 0.16197 0.88181 0.0
H5067 H 0.79394 0.27179 0.86253 0.0
H5068 H 0.80733 0.25536 0.88443 0.0
H5069 H 0.76297 0.20536 0.86879 0.0
H5070 H 0.75058 0.2208 0.84568 0.0
H5071 H 0.79129 0.19366 0.87506 0.0
H5072 H 0.76592 0.24677 0.90842 0.0
H5073 H 0.76536 0.28128 0.91828 0.0
H5074 H 0.82098 0.29368 0.94018 0.0
H5075 H 0.82187 0.25929 0.93031 0.0
C5076 C 0.78042 0.16123 0.95072 0.0
C5077 C 0.792 0.16811 0.96707 0.0
C5078 C 0.78175 0.17167 0.93635 0.0
C5079 C 0.79547 0.18845 0.93757 0.0
C5080 C 0.80732 0.19516 0.95382 0.0
C5081 C 0.80542 0.18519 0.96862 0.0
C5082 C 0.79659 0.19954 0.92228 0.0
C5083 C 0.79712 0.21945 0.92661 0.0
C5084 C 0.79511 0.19028 0.90347 0.0
C5085 C 0.79527 0.16946 0.89803 0.0
C5086 C 0.80969 0.16216 0.90457 0.0
C5087 C 0.80951 0.14243 0.89974 0.0
C5088 C 0.79504 0.12988 0.88829 0.0
C5089 C 0.78064 0.13702 0.88175 0.0
C5090 C 0.78068 0.15671 0.88668 0.0
C5091 C 0.78732 0.25708 0.86337 0.0
C5092 C 0.77093 0.24775 0.85264 0.0
C5093 C 0.79487 0.24784 0.8761 0.0
C5094 C 0.78585 0.22941 0.87866 0.0
C5095 C 0.77009 0.21969 0.86721 0.0
C5096 C 0.76285 0.22866 0.85417 0.0
C5097 C 0.79188 0.22037 0.89383 0.0
C5098 C 0.79286 0.20086 0.88949 0.0
C5099 C 0.79466 0.22998 0.91263 0.0
C5100 C 0.79403 0.25059 0.91838 0.0
C5101 C 0.77804 0.25691 0.91522 0.0
C5102 C 0.77767 0.27643 0.92083 0.0
C5103 C 0.79315 0.28968 0.92977 0.0
C5104 C 0.80902 0.28343 0.93319 0.0
C5105 C 0.80947 0.26394 0.9276 0.0
H5106 H 0.79284 0.30478 0.9341 0.0
H5107 H 0.79496 0.11462 0.88453 0.0
H5108 H 0.1825 0.53165 0.1841 0.0
H5109 H 0.16395 0.52697 0.15456 0.0
H5110 H 0.11705 0.5308 0.18458 0.0
H5111 H 0.13509 0.5343 0.21372 0.0
H5112 H 0.10747 0.50447 0.15656 0.0
H5113 H 0.14214 0.56982 0.16749 0.0
H5114 H 0.16941 0.59642 0.17358 0.0
H5115 H 0.18842 0.57379 0.12217 0.0
H5116 H 0.16136 0.5469 0.11588 0.0
H5117 H 0.05604 0.53976 0.09011 0.0
H5118 H 0.07314 0.5348 0.11745 0.0
H5119 H 0.11218 0.51552 0.08248 0.0
H5120 H 0.09485 0.51999 0.05516 0.0
H5121 H 0.12602 0.54783 0.11153 0.0
H5122 H 0.08519 0.48398 0.10111 0.0
H5123 H 0.05455 0.46287 0.09693 0.0
H5124 H 0.04373 0.48938 0.15084 0.0
H5125 H 0.07406 0.51105 0.15522 0.0
C5126 C 0.16818 0.53117 0.18425 0.0
C5127 C 0.16016 0.53325 0.20105 0.0
C5128 C 0.15766 0.52866 0.16748 0.0
C5129 C 0.13923 0.52879 0.16751 0.0
C5130 C 0.13123 0.53053 0.18429 0.0
C5131 C 0.14158 0.53255 0.20092 0.0
C5132 C 0.12814 0.52756 0.15017 0.0
C5133 C 0.11151 0.51401 0.14675 0.0
C5134 C 0.13345 0.54011 0.1375 0.0
C5135 C 0.14984 0.55617 0.14134 0.0
C5136 C 0.15222 0.5704 0.15757 0.0
C5137 C 0.16762 0.58555 0.16104 0.0
C5138 C 0.18067 0.58675 0.14831 0.0
C5139 C 0.17832 0.57281 0.13205 0.0
C5140 C 0.16296 0.55761 0.12852 0.0
C5141 C 0.06778 0.53368 0.08824 0.0
C5142 C 0.07419 0.53016 0.07074 0.0
C5143 C 0.07762 0.53106 0.10379 0.0
C5144 C 0.09382 0.52488 0.10175 0.0
C5145 C 0.09968 0.52035 0.08414 0.0
C5146 C 0.08983 0.5229 0.06866 0.0
C5147 C 0.10555 0.52479 0.11808 0.0
C5148 C 0.12222 0.53815 0.12129 0.0
C5149 C 0.09994 0.51271 0.13094 0.0
C5150 C 0.08192 0.49918 0.12848 0.0
C5151 C 0.07627 0.48538 0.11205 0.0
C5152 C 0.05896 0.47332 0.10963 0.0
C5153 C 0.04726 0.47474 0.1236 0.0
C5154 C 0.05282 0.48826 0.14004 0.0
C5155 C 0.07007 0.50044 0.1425 0.0
H5156 H 0.03387 0.46537 0.12168 0.0
H5157 H 0.19257 0.5985 0.15102 0.0
H5158 H 0.79291 0.88872 0.46295 0.0
H5159 H 0.79226 0.87041 0.43162 0.0
H5160 H 0.81924 0.83061 0.45358 0.0
H5161 H 0.81992 0.84903 0.48523 0.0
H5162 H 0.83563 0.8431 0.42463 0.0
H5163 H 0.77497 0.81632 0.43522 0.0
H5164 H 0.74404 0.81612 0.44382 0.0
H5165 H 0.73478 0.8468 0.39993 0.0
H5166 H 0.76579 0.8475 0.39125 0.0
H5167 H 0.80181 0.78226 0.32503 0.0
H5168 H 0.80274 0.78873 0.35937 0.0
H5169 H 0.82244 0.84974 0.36 0.0
H5170 H 0.82092 0.84347 0.32604 0.0
H5171 H 0.78195 0.82024 0.37846 0.0
H5172 H 0.85223 0.8608 0.39016 0.0
H5173 H 0.88403 0.86016 0.38525 0.0
H5174 H 0.87292 0.79927 0.38707 0.0
H5175 H 0.84098 0.79955 0.39149 0.0
C5176 C 0.79844 0.87587 0.46122 0.0
C5177 C 0.80644 0.87037 0.47671 0.0
C5178 C 0.79799 0.86533 0.44322 0.0
C5179 C 0.80559 0.84898 0.44008 0.0
C5180 C 0.81321 0.84312 0.45556 0.0
C5181 C 0.81347 0.85358 0.4737 0.0
C5182 C 0.80669 0.83903 0.42057 0.0
C5183 C 0.82378 0.8379 0.41469 0.0
C5184 C 0.79135 0.83218 0.40733 0.0
C5185 C 0.77278 0.83208 0.41267 0.0
C5186 C 0.76641 0.8232 0.42751 0.0
C5187 C 0.74885 0.82297 0.43238 0.0
C5188 C 0.73747 0.83147 0.42245 0.0
C5189 C 0.74363 0.84024 0.40762 0.0
C5190 C 0.7612 0.84055 0.40271 0.0
C5191 C 0.80691 0.79692 0.33258 0.0
C5192 C 0.81166 0.81233 0.32285 0.0
C5193 C 0.8073 0.80065 0.35218 0.0
C5194 C 0.81276 0.81975 0.36232 0.0
C5195 C 0.81836 0.8349 0.35259 0.0
C5196 C 0.81755 0.83127 0.33316 0.0
C5197 C 0.81084 0.82456 0.38269 0.0
C5198 C 0.79365 0.82508 0.38861 0.0
C5199 C 0.82598 0.83086 0.39602 0.0
C5200 C 0.84435 0.83017 0.39102 0.0
C5201 C 0.85658 0.84725 0.38923 0.0
C5202 C 0.87461 0.84697 0.3866 0.0
C5203 C 0.88054 0.82973 0.38604 0.0
C5204 C 0.86835 0.81264 0.38764 0.0
C5205 C 0.85025 0.8128 0.38998 0.0
H5206 H 0.89452 0.82955 0.38414 0.0
H5207 H 0.72387 0.83122 0.42623 0.0
H5208 H 0.47989 0.56387 0.81885 0.0
H5209 H 0.4968 0.56053 0.8474 0.0
H5210 H 0.45204 0.56945 0.87865 0.0
H5211 H 0.43546 0.57315 0.8505 0.0
H5212 H 0.4789 0.58554 0.90171 0.0
H5213 H 0.46837 0.52164 0.86313 0.0
H5214 H 0.4707 0.49838 0.83494 0.0
H5215 H 0.5286 0.51593 0.84296 0.0
H5216 H 0.5266 0.53946 0.87106 0.0
H5217 H 0.50062 0.55207 0.98432 0.0
H5218 H 0.48824 0.55509 0.95387 0.0
H5219 H 0.5385 0.54992 0.93152 0.0
H5220 H 0.55118 0.54697 0.96264 0.0
H5221 H 0.51167 0.53296 0.90341 0.0
H5222 H 0.52394 0.59496 0.94102 0.0
H5223 H 0.52407 0.6195 0.96893 0.0
H5224 H 0.46612 0.60827 0.96202 0.0
H5225 H 0.46562 0.58329 0.93426 0.0
C5226 C 0.4736 0.5654 0.83177 0.0
C5227 C 0.45592 0.56907 0.83162 0.0
C5228 C 0.48336 0.56314 0.84844 0.0
C5229 C 0.47607 0.56426 0.86609 0.0
C5230 C 0.4586 0.56835 0.86588 0.0
C5231 C 0.4489 0.57054 0.84933 0.0
C5232 C 0.48615 0.5614 0.88458 0.0
C5233 C 0.48575 0.57375 0.90181 0.0
C5234 C 0.49614 0.54667 0.88578 0.0
C5235 C 0.49733 0.53241 0.86906 0.0
C5236 C 0.48159 0.52059 0.85882 0.0
C5237 C 0.48285 0.50736 0.84287 0.0
C5238 C 0.49978 0.50571 0.83714 0.0
C5239 C 0.51549 0.51724 0.84739 0.0
C5240 C 0.5143 0.53051 0.86333 0.0
C5241 C 0.50926 0.55144 0.97305 0.0
C5242 C 0.52716 0.54915 0.97671 0.0
C5243 C 0.50203 0.55337 0.95525 0.0
C5244 C 0.51213 0.55329 0.93956 0.0
C5245 C 0.52995 0.55028 0.94286 0.0
C5246 C 0.53735 0.54847 0.96096 0.0
C5247 C 0.50401 0.55685 0.92046 0.0
C5248 C 0.50475 0.54469 0.90324 0.0
C5249 C 0.4946 0.57198 0.91915 0.0
C5250 C 0.49473 0.58713 0.93565 0.0
C5251 C 0.51121 0.59764 0.94552 0.0
C5252 C 0.51135 0.61164 0.96131 0.0
C5253 C 0.49511 0.61546 0.96726 0.0
C5254 C 0.47869 0.60528 0.9574 0.0
C5255 C 0.47846 0.59119 0.94163 0.0
H5256 H 0.49525 0.62632 0.97949 0.0
H5257 H 0.50074 0.49547 0.82478 0.0
H5258 H 0.78577 0.20846 0.06067 0.0
H5259 H 0.7804 0.22513 0.0909 0.0
H5260 H 0.8085 0.18918 0.1179 0.0
H5261 H 0.81225 0.17112 0.08731 0.0
H5262 H 0.78168 0.19353 0.13559 0.0
H5263 H 0.82826 0.23866 0.11314 0.0
H5264 H 0.84189 0.25811 0.0906 0.0
H5265 H 0.79844 0.28796 0.0928 0.0
H5266 H 0.78447 0.26852 0.11521 0.0
H5267 H 0.82366 0.26404 0.21501 0.0
H5268 H 0.8183 0.24639 0.18303 0.0
H5269 H 0.76411 0.2558 0.17956 0.0
H5270 H 0.76921 0.27325 0.21197 0.0
H5271 H 0.79857 0.2655 0.14991 0.0
H5272 H 0.75398 0.21886 0.17601 0.0
H5273 H 0.74617 0.20174 0.20204 0.0
H5274 H 0.79238 0.17642 0.19567 0.0
H5275 H 0.80068 0.19379 0.1699 0.0
C5276 C 0.7911 0.20442 0.07311 0.0
C5277 C 0.79994 0.18907 0.07194 0.0
C5278 C 0.78796 0.21387 0.09034 0.0
C5279 C 0.79449 0.20877 0.10666 0.0
C5280 C 0.80344 0.1934 0.10546 0.0
C5281 C 0.80586 0.18334 0.08812 0.0
C5282 C 0.79215 0.21964 0.12493 0.0
C5283 C 0.78533 0.20926 0.13864 0.0
C5284 C 0.79673 0.24019 0.12893 0.0
C5285 C 0.80525 0.25203 0.11567 0.0
C5286 C 0.82159 0.24931 0.10873 0.0
C5287 C 0.82937 0.26033 0.09599 0.0
C5288 C 0.821 0.27422 0.09023 0.0
C5289 C 0.80489 0.27717 0.09725 0.0
C5290 C 0.79705 0.26618 0.10998 0.0
C5291 C 0.81064 0.26246 0.2074 0.0
C5292 C 0.79685 0.27006 0.21569 0.0
C5293 C 0.8076 0.25233 0.18928 0.0
C5294 C 0.79083 0.24986 0.17929 0.0
C5295 C 0.77705 0.25758 0.18736 0.0
C5296 C 0.77998 0.26747 0.20569 0.0
C5297 C 0.78823 0.23937 0.16022 0.0
C5298 C 0.79434 0.2498 0.14647 0.0
C5299 C 0.78351 0.21896 0.15638 0.0
C5300 C 0.77799 0.20769 0.17113 0.0
C5301 C 0.76251 0.20971 0.18024 0.0
C5302 C 0.75801 0.19999 0.19496 0.0
C5303 C 0.76882 0.18806 0.20057 0.0
C5304 C 0.78406 0.18572 0.19137 0.0
C5305 C 0.78865 0.19547 0.17669 0.0
H5306 H 0.76536 0.1806 0.21202 0.0
H5307 H 0.82703 0.28272 0.08034 0.0
H5308 H 0.19713 0.56299 0.32667 0.0
H5309 H 0.17741 0.56094 0.35195 0.0
H5310 H 0.13105 0.5372 0.31181 0.0
H5311 H 0.15036 0.53936 0.28662 0.0
H5312 H 0.12676 0.56789 0.33596 0.0
H5313 H 0.14653 0.50896 0.3373 0.0
H5314 H 0.16839 0.48831 0.33957 0.0
H5315 H 0.18858 0.5202 0.39429 0.0
H5316 H 0.16707 0.54131 0.39221 0.0
H5317 H 0.05919 0.53983 0.39408 0.0
H5318 H 0.08085 0.53735 0.37078 0.0
H5319 H 0.12475 0.56622 0.41249 0.0
H5320 H 0.10323 0.56928 0.43575 0.0
H5321 H 0.13103 0.533 0.38859 0.0
H5322 H 0.11163 0.59259 0.38608 0.0
H5323 H 0.08882 0.61216 0.38375 0.0
H5324 H 0.06716 0.57736 0.33054 0.0
H5325 H 0.08972 0.55742 0.33269 0.0
C5326 C 0.18275 0.55726 0.32328 0.0
C5327 C 0.17525 0.5516 0.30472 0.0
C5328 C 0.17158 0.55597 0.33768 0.0
C5329 C 0.1529 0.54888 0.33358 0.0
C5330 C 0.14548 0.54276 0.31512 0.0
C5331 C 0.15655 0.54411 0.30078 0.0
C5332 C 0.14075 0.5492 0.34836 0.0
C5333 C 0.12756 0.56007 0.34735 0.0
C5334 C 0.1422 0.53934 0.36334 0.0
C5335 C 0.15535 0.52688 0.36449 0.0
C5336 C 0.15579 0.51173 0.34972 0.0
C5337 C 0.16809 0.49992 0.35099 0.0
C5338 C 0.17992 0.503 0.36703 0.0
C5339 C 0.17946 0.51788 0.38185 0.0
C5340 C 0.16721 0.52978 0.38063 0.0
C5341 C 0.07343 0.54582 0.39821 0.0
C5342 C 0.07956 0.55488 0.41661 0.0
C5343 C 0.08574 0.5442 0.38501 0.0
C5344 C 0.10423 0.55164 0.3901 0.0
C5345 C 0.11046 0.56032 0.40849 0.0
C5346 C 0.09818 0.56207 0.42167 0.0
C5347 C 0.11701 0.55144 0.37594 0.0
C5348 C 0.13032 0.54076 0.37715 0.0
C5349 C 0.11567 0.56136 0.36104 0.0
C5350 C 0.10224 0.57344 0.35962 0.0
C5351 C 0.10192 0.58904 0.37395 0.0
C5352 C 0.08905 0.6002 0.37265 0.0
C5353 C 0.07652 0.59598 0.35702 0.0
C5354 C 0.07687 0.58061 0.34264 0.0
C5355 C 0.0897 0.56938 0.34388 0.0
H5356 H 0.06657 0.60464 0.35604 0.0
H5357 H 0.1894 0.49379 0.36801 0.0
H5358 H 0.80403 0.84273 0.57332 0.0
H5359 H 0.8019 0.83176 0.60312 0.0
H5360 H 0.80772 0.8909 0.63128 0.0
H5361 H 0.81099 0.90197 0.60156 0.0
H5362 H 0.82517 0.87663 0.6517 0.0
H5363 H 0.76542 0.85263 0.62367 0.0
H5364 H 0.74044 0.83545 0.59998 0.0
H5365 H 0.75553 0.78148 0.60259 0.0
H5366 H 0.78077 0.79839 0.62614 0.0
H5367 H 0.79947 0.8476 0.7375 0.0
H5368 H 0.79918 0.8598 0.70819 0.0
H5369 H 0.80609 0.80492 0.67874 0.0
H5370 H 0.80652 0.79269 0.70794 0.0
H5371 H 0.7808 0.81791 0.65994 0.0
H5372 H 0.84074 0.84612 0.69085 0.0
H5373 H 0.86402 0.86648 0.71504 0.0
H5374 H 0.84262 0.91625 0.7099 0.0
H5375 H 0.81983 0.89645 0.68505 0.0
C5376 C 0.80479 0.85341 0.58586 0.0
C5377 C 0.80764 0.87325 0.58496 0.0
C5378 C 0.80339 0.84708 0.60299 0.0
C5379 C 0.80424 0.86035 0.61973 0.0
C5380 C 0.80699 0.88021 0.61876 0.0
C5381 C 0.80879 0.88657 0.60167 0.0
C5382 C 0.80292 0.85368 0.63821 0.0
C5383 C 0.81518 0.86398 0.65346 0.0
C5384 C 0.79007 0.83706 0.64087 0.0
C5385 C 0.77511 0.82682 0.62651 0.0
C5386 C 0.76352 0.83713 0.61906 0.0
C5387 C 0.74929 0.82743 0.60569 0.0
C5388 C 0.74644 0.80739 0.59974 0.0
C5389 C 0.75779 0.79701 0.60719 0.0
C5390 C 0.77205 0.80664 0.62056 0.0
C5391 C 0.80095 0.83811 0.72479 0.0
C5392 C 0.8029 0.81908 0.72516 0.0
C5393 C 0.80081 0.84514 0.708 0.0
C5394 C 0.80273 0.83337 0.69114 0.0
C5395 C 0.80452 0.81432 0.69147 0.0
C5396 C 0.80475 0.80732 0.70825 0.0
C5397 C 0.80304 0.84084 0.67316 0.0
C5398 C 0.79063 0.83064 0.65806 0.0
C5399 C 0.81524 0.858 0.67085 0.0
C5400 C 0.82864 0.86979 0.6861 0.0
C5401 C 0.84109 0.86142 0.69485 0.0
C5402 C 0.85415 0.87282 0.70869 0.0
C5403 C 0.85465 0.89254 0.71418 0.0
C5404 C 0.84221 0.90096 0.70567 0.0
C5405 C 0.82932 0.88969 0.69159 0.0
H5406 H 0.86473 0.9013 0.72495 0.0
H5407 H 0.7354 0.79991 0.5894 0.0
H5408 H 0.75579 0.43038 0.49095 0.0
H5409 H 0.72897 0.44363 0.49774 0.0
H5410 H 0.76188 0.48918 0.53957 0.0
H5411 H 0.78793 0.47512 0.53378 0.0
H5412 H 0.7322 0.47731 0.55211 0.0
H5413 H 0.74945 0.49501 0.49334 0.0
H5414 H 0.75563 0.48812 0.46045 0.0
H5415 H 0.7014 0.45438 0.44597 0.0
H5416 H 0.69498 0.46091 0.47883 0.0
H5417 H 0.69021 0.55658 0.55742 0.0
H5418 H 0.71068 0.53575 0.54686 0.0
H5419 H 0.66524 0.48788 0.52754 0.0
H5420 H 0.64468 0.508 0.53907 0.0
H5421 H 0.69699 0.49671 0.50223 0.0
H5422 H 0.68068 0.48238 0.56278 0.0
H5423 H 0.67609 0.49248 0.59574 0.0
H5424 H 0.73148 0.5237 0.60654 0.0
H5425 H 0.73629 0.51401 0.57355 0.0
C5426 C 0.757 0.44301 0.50175 0.0
C5427 C 0.77366 0.452 0.51178 0.0
C5428 C 0.74186 0.45067 0.50549 0.0
C5429 C 0.74354 0.46757 0.51894 0.0
C5430 C 0.76025 0.47614 0.52915 0.0
C5431 C 0.77514 0.46826 0.52574 0.0
C5432 C 0.72817 0.47673 0.52258 0.0
C5433 C 0.72457 0.48154 0.54115 0.0
C5434 C 0.71799 0.482 0.50828 0.0
C5435 C 0.7218 0.47826 0.48853 0.0
C5436 C 0.73889 0.48603 0.48314 0.0
C5437 C 0.74243 0.48221 0.46451 0.0
C5438 C 0.72893 0.47077 0.45113 0.0
C5439 C 0.71185 0.4632 0.45635 0.0
C5440 C 0.70825 0.46697 0.47496 0.0
C5441 C 0.68455 0.54159 0.55111 0.0
C5442 C 0.6658 0.53401 0.54916 0.0
C5443 C 0.69623 0.52984 0.54484 0.0
C5444 C 0.6893 0.51048 0.53634 0.0
C5445 C 0.67068 0.50293 0.53387 0.0
C5446 C 0.65901 0.51451 0.54046 0.0
C5447 C 0.70168 0.49767 0.53167 0.0
C5448 C 0.70456 0.49215 0.51301 0.0
C5449 C 0.71154 0.49209 0.54586 0.0
C5450 C 0.70879 0.4976 0.56573 0.0
C5451 C 0.69183 0.49151 0.57218 0.0
C5452 C 0.6892 0.49714 0.59085 0.0
C5453 C 0.70348 0.50875 0.60322 0.0
C5454 C 0.72043 0.51471 0.59694 0.0
C5455 C 0.72313 0.50914 0.57827 0.0
H5456 H 0.70141 0.51311 0.61768 0.0
H5457 H 0.7317 0.46781 0.43672 0.0
H5458 H 0.25617 0.15353 0.52497 0.0
H5459 H 0.22659 0.13395 0.52736 0.0
H5460 H 0.20652 0.14905 0.47667 0.0
H5461 H 0.23534 0.17195 0.4769 0.0
H5462 H 0.18144 0.14667 0.49254 0.0
H5463 H 0.20975 0.0873 0.48691 0.0
H5464 H 0.23137 0.06821 0.49583 0.0
H5465 H 0.22786 0.08948 0.55353 0.0
H5466 H 0.20541 0.10764 0.54493 0.0
H5467 H 0.10311 0.06516 0.48173 0.0
H5468 H 0.13362 0.08359 0.47808 0.0
H5469 H 0.14379 0.10086 0.53763 0.0
H5470 H 0.11341 0.08315 0.54131 0.0
H5471 H 0.17233 0.08527 0.51692 0.0
H5472 H 0.13548 0.13283 0.5191 0.0
H5473 H 0.10914 0.1442 0.50809 0.0
H5474 H 0.12781 0.14139 0.45357 0.0
H5475 H 0.15405 0.12972 0.46421 0.0
C5476 C 0.24541 0.15246 0.51426 0.0
C5477 C 0.24826 0.16375 0.50035 0.0
C5478 C 0.22838 0.14069 0.51531 0.0
C5479 C 0.21388 0.13873 0.50173 0.0
C5480 C 0.21705 0.14992 0.48753 0.0
C5481 C 0.23376 0.1628 0.48732 0.0
C5482 C 0.19521 0.12651 0.50303 0.0
C5483 C 0.1798 0.13301 0.49743 0.0
C5484 C 0.19213 0.10884 0.51011 0.0
C5485 C 0.20666 0.09946 0.51527 0.0
C5486 C 0.21397 0.08821 0.50146 0.0
C5487 C 0.22616 0.07739 0.50645 0.0
C5488 C 0.23141 0.07811 0.52518 0.0
C5489 C 0.22403 0.08917 0.53902 0.0
C5490 C 0.21141 0.09952 0.53411 0.0
C5491 C 0.1119 0.07286 0.494 0.0
C5492 C 0.10577 0.07284 0.51179 0.0
C5493 C 0.12928 0.08342 0.49192 0.0
C5494 C 0.14096 0.0937 0.5076 0.0
C5495 C 0.13503 0.09312 0.52534 0.0
C5496 C 0.1176 0.08302 0.5274 0.0
C5497 C 0.15935 0.10521 0.50573 0.0
C5498 C 0.17442 0.09871 0.51155 0.0
C5499 C 0.16208 0.12258 0.49858 0.0
C5500 C 0.14661 0.13024 0.49239 0.0
C5501 C 0.13388 0.13455 0.50473 0.0
C5502 C 0.11896 0.1411 0.49855 0.0
C5503 C 0.11674 0.14359 0.4801 0.0
C5504 C 0.12949 0.13957 0.46785 0.0
C5505 C 0.1444 0.13298 0.47394 0.0
H5506 H 0.10516 0.14862 0.4753 0.0
H5507 H 0.24096 0.06984 0.52897 0.0
H5508 H 0.17617 0.94537 0.76617 0.0
H5509 H 0.19015 0.91695 0.76496 0.0
H5510 H 0.24289 0.95491 0.77391 0.0
H5511 H 0.22919 0.98285 0.77586 0.0
H5512 H 0.24597 0.92314 0.74907 0.0
H5513 H 0.22131 0.93005 0.80862 0.0
H5514 H 0.19685 0.93122 0.82929 0.0
H5515 H 0.16903 0.87396 0.80221 0.0
H5516 H 0.19322 0.87256 0.78121 0.0
H5517 H 0.2806 0.83333 0.74497 0.0
H5518 H 0.26503 0.85946 0.7418 0.0
H5519 H 0.25418 0.86422 0.79931 0.0
H5520 H 0.26876 0.83757 0.80195 0.0
H5521 H 0.22896 0.87466 0.78942 0.0
H5522 H 0.24583 0.88469 0.72042 0.0
H5523 H 0.26892 0.88382 0.69801 0.0
H5524 H 0.31084 0.90861 0.74232 0.0
H5525 H 0.288 0.90848 0.76519 0.0
C5526 C 0.19076 0.94787 0.7676 0.0
C5527 C 0.20111 0.96736 0.77073 0.0
C5528 C 0.19898 0.93125 0.76709 0.0
C5529 C 0.21814 0.93285 0.76932 0.0
C5530 C 0.2283 0.95225 0.77197 0.0
C5531 C 0.22016 0.96869 0.77298 0.0
C5532 C 0.22773 0.91508 0.76929 0.0
C5533 C 0.24206 0.91267 0.75804 0.0
C5534 C 0.22339 0.9005 0.78056 0.0
C5535 C 0.20897 0.90127 0.79325 0.0
C5536 C 0.20991 0.91776 0.807 0.0
C5537 C 0.19611 0.91846 0.81878 0.0
C5538 C 0.18137 0.9027 0.81704 0.0
C5539 C 0.18043 0.88617 0.80353 0.0
C5540 C 0.19419 0.88541 0.7917 0.0
C5541 C 0.27516 0.84003 0.75709 0.0
C5542 C 0.27663 0.83273 0.7739 0.0
C5543 C 0.26609 0.85566 0.75538 0.0
C5544 C 0.25795 0.8654 0.77036 0.0
C5545 C 0.25968 0.85793 0.78705 0.0
C5546 C 0.26848 0.84232 0.78868 0.0
C5547 C 0.24751 0.88255 0.76921 0.0
C5548 C 0.23304 0.88504 0.78043 0.0
C5549 C 0.25146 0.89701 0.75763 0.0
C5550 C 0.26531 0.89637 0.74443 0.0
C5551 C 0.26001 0.88972 0.72537 0.0
C5552 C 0.27304 0.88923 0.71266 0.0
C5553 C 0.29136 0.89586 0.71882 0.0
C5554 C 0.29667 0.903 0.7377 0.0
C5555 C 0.28372 0.90305 0.75057 0.0
H5556 H 0.30144 0.89563 0.70895 0.0
H5557 H 0.17069 0.90327 0.82617 0.0
H5558 H 0.36007 0.97079 0.0444 0.0
H5559 H 0.3902 0.99241 0.05217 0.0
H5560 H 0.40843 0.96314 1.00272 0.0
H5561 H 0.3785 0.94083 0.99553 0.0
H5562 H 0.42844 0.98024 0.04973 0.0
H5563 H 0.38016 0.99134 0.00995 0.0
H5564 H 0.35299 0.00999 0.97075 0.0
H5565 H 0.40865 0.05612 0.97484 0.0
H5566 H 0.4266 0.04483 1.00008 0.0
H5567 H 0.50948 1.00588 0.01632 0.0
H5568 H 0.4765 0.99512 0.01286 0.0
H5569 H 0.47189 0.05172 0.04043 0.0
H5570 H 0.50496 0.06259 0.04374 0.0
H5571 H 0.44355 0.02895 0.0094 0.0
H5572 H 0.47341 0.02557 0.06821 0.0
H5573 H 0.49863 0.01765 0.08551 0.0
H5574 H 0.48255 0.95825 0.05769 0.0
H5575 H 0.45736 0.96595 0.03988 0.0
C5576 C 0.37065 0.96898 0.03536 0.0
C5577 C 0.36703 0.95515 0.01882 0.0
C5578 C 0.38777 0.98109 0.03992 0.0
C5579 C 0.40102 0.97979 0.0275 0.0
C5580 C 0.398 0.96459 0.01203 0.0
C5581 C 0.38098 0.95213 0.00778 0.0
C5582 C 0.41754 0.99487 0.02984 0.0
C5583 C 0.43138 0.99149 0.04136 0.0
C5584 C 0.4209 0.01012 0.0191 0.0
C5585 C 0.40663 0.01626 0.00726 0.0
C5586 C 0.38493 1.0026 1.00257 0.0
C5587 C 0.36688 0.01492 0.97726 0.0
C5588 C 0.37998 0.03441 0.97056 0.0
C5589 C 0.40152 0.04352 0.97983 0.0
C5590 C 0.41336 0.03561 0.99624 0.0
C5591 C 0.50134 0.01617 0.02095 0.0
C5592 C 0.50942 0.03502 0.03006 0.0
C5593 C 0.48263 0.01007 0.019 0.0
C5594 C 0.47198 0.02267 0.02653 0.0
C5595 C 0.48001 0.04195 0.03445 0.0
C5596 C 0.49876 0.04806 0.03643 0.0
C5597 C 0.45313 0.01461 0.02922 0.0
C5598 C 0.43926 0.01918 0.01873 0.0
C5599 C 0.44913 1.0013 0.04128 0.0
C5600 C 0.46354 0.99634 0.05274 0.0
C5601 C 0.47526 0.01082 0.06579 0.0
C5602 C 0.48959 1.00638 0.07565 0.0
C5603 C 0.49224 0.98745 0.07274 0.0
C5604 C 0.48049 0.9729 0.05997 0.0
C5605 C 0.46616 0.97729 0.05 0.0
H5606 H 0.5034 0.98408 0.08039 0.0
H5607 H 0.37436 0.0412 0.96022 0.0
H5608 H 0.88066 0.59697 0.83267 0.0
H5609 H 0.868 0.62362 0.82548 0.0
H5610 H 0.90321 0.6303 0.78158 0.0
H5611 H 0.91615 0.60373 0.78873 0.0
H5612 H 0.89831 0.66487 0.80021 0.0
H5613 H 0.86219 0.60129 0.77203 0.0
H5614 H 0.84414 0.56837 0.77184 0.0
H5615 H 0.80754 0.59213 0.80657 0.0
H5616 H 0.82552 0.6252 0.80717 0.0
H5617 H 0.8525 0.69709 0.73071 0.0
H5618 H 0.8681 0.68 0.75009 0.0
H5619 H 0.82587 0.67848 0.78729 0.0
H5620 H 0.80961 0.6946 0.76736 0.0
H5621 H 0.83328 0.64379 0.77731 0.0
H5622 H 0.86769 0.70827 0.80041 0.0
H5623 H 0.88538 0.74059 0.7978 0.0
H5624 H 0.92527 0.71442 0.77077 0.0
H5625 H 0.90764 0.68204 0.77277 0.0
C5626 C 0.88602 0.60439 0.82176 0.0
C5627 C 0.89914 0.59809 0.811 0.0
C5628 C 0.87876 0.61956 0.8177 0.0
C5629 C 0.88448 0.62846 0.80281 0.0
C5630 C 0.89865 0.62339 0.79309 0.0
C5631 C 0.90601 0.60825 0.79719 0.0
C5632 C 0.87454 0.64169 0.79613 0.0
C5633 C 0.88409 0.66036 0.79519 0.0
C5634 C 0.85594 0.63566 0.78999 0.0
C5635 C 0.84533 0.61571 0.78985 0.0
C5636 C 0.85041 0.59949 0.7798 0.0
C5637 C 0.84016 0.5808 0.77958 0.0
C5638 C 0.82472 0.57817 0.78923 0.0
C5639 C 0.81952 0.5942 0.79914 0.0
C5640 C 0.82973 0.61291 0.79942 0.0
C5641 C 0.84653 0.69308 0.74298 0.0
C5642 C 0.82984 0.69706 0.74749 0.0
C5643 C 0.85556 0.6836 0.75417 0.0
C5644 C 0.84821 0.67835 0.77022 0.0
C5645 C 0.83175 0.68264 0.77501 0.0
C5646 C 0.82259 0.69193 0.76369 0.0
C5647 C 0.85711 0.667 0.7811 0.0
C5648 C 0.84737 0.64858 0.78278 0.0
C5649 C 0.87557 0.67318 0.78772 0.0
C5650 C 0.8863 0.69272 0.78668 0.0
C5651 C 0.88018 0.70943 0.79378 0.0
C5652 C 0.8902 0.72778 0.79239 0.0
C5653 C 0.90643 0.72961 0.78406 0.0
C5654 C 0.91269 0.71307 0.77715 0.0
C5655 C 0.9027 0.69471 0.77842 0.0
H5656 H 0.91418 0.74383 0.78303 0.0
H5657 H 0.8167 0.56373 0.78896 0.0
H5658 H 0.83859 0.6507 0.98235 0.0
H5659 H 0.86521 0.63879 0.98928 0.0
H5660 H 0.87755 0.6797 0.04094 0.0
H5661 H 0.85021 0.69179 0.03428 0.0
H5662 H 0.90908 0.67219 0.01595 0.0
H5663 H 0.86033 0.64051 0.04769 0.0
H5664 H 0.82876 0.6238 0.04939 0.0
H5665 H 0.83361 0.57837 1.00497 0.0
H5666 H 0.86512 0.595 1.00278 0.0
H5667 H 0.96979 0.61612 0.04719 0.0
H5668 H 0.94881 0.63737 0.04393 0.0
H5669 H 0.91409 0.59155 1.00392 0.0
H5670 H 0.93467 0.57026 0.00775 0.0
H5671 H 0.89452 0.60463 0.02743 0.0
H5672 H 0.94081 0.63502 0.99313 0.0
H5673 H 0.97166 0.65111 0.98795 0.0
H5674 H 0.97125 0.69781 0.03293 0.0
H5675 H 0.94048 0.68182 0.03857 0.0
C5676 C 0.84693 0.65749 0.99516 0.0
C5677 C 0.84198 0.67216 0.00788 0.0
C5678 C 0.86227 0.65061 0.99903 0.0
C5679 C 0.87329 0.65824 0.01564 0.0
C5680 C 0.86917 0.67365 0.028 0.0
C5681 C 0.85356 0.68053 0.02418 0.0
C5682 C 0.88801 0.64862 0.02036 0.0
C5683 C 0.90603 0.65759 0.01892 0.0
C5684 C 0.8839 0.62932 0.02352 0.0
C5685 C 0.86506 0.61908 0.02502 0.0
C5686 C 0.85462 0.62703 0.0382 0.0
C5687 C 0.83675 0.61757 0.03926 0.0
C5688 C 0.82919 0.60003 0.0273 0.0
C5689 C 0.83949 0.59194 0.01424 0.0
C5690 C 0.85737 0.60137 0.0131 0.0
C5691 C 0.95788 0.61082 0.03741 0.0
C5692 C 0.95382 0.59157 0.02772 0.0
C5693 C 0.94585 0.62295 0.03555 0.0
C5694 C 0.92973 0.61612 0.02369 0.0
C5695 C 0.92627 0.59718 0.01331 0.0
C5696 C 0.9381 0.58505 0.01537 0.0
C5697 C 0.91583 0.62801 0.0228 0.0
C5698 C 0.89781 0.61936 0.02483 0.0
C5699 C 0.91998 0.64745 0.01984 0.0
C5700 C 0.93843 0.65711 0.01642 0.0
C5701 C 0.94735 0.64864 1.00202 0.0
C5702 C 0.96482 0.65775 0.99899 0.0
C5703 C 0.97343 0.67544 0.01014 0.0
C5704 C 0.96458 0.68408 0.02432 0.0
C5705 C 0.94712 0.67501 0.02744 0.0
H5706 H 0.98695 0.68248 0.00777 0.0
H5707 H 0.81538 0.59268 0.02821 0.0
H5708 H 0.22377 0.06492 0.77085 0.0
H5709 H 0.24088 0.09856 0.77286 0.0
H5710 H 0.19404 0.11943 0.7892 0.0
H5711 H 0.17738 0.08591 0.78849 0.0
H5712 H 0.21946 0.13138 0.75231 0.0
H5713 H 0.21299 0.13899 0.81806 0.0
H5714 H 0.21594 0.13752 0.85142 0.0
H5715 H 0.27321 0.14316 0.85021 0.0
H5716 H 0.27052 0.14444 0.81674 0.0
H5717 H 0.2514 0.23587 0.76425 0.0
H5718 H 0.23549 0.20266 0.76501 0.0
H5719 H 0.28394 0.19182 0.79024 0.0
H5720 H 0.29976 0.22536 0.79002 0.0
H5721 H 0.25783 0.17444 0.80622 0.0
H5722 H 0.26281 0.17304 0.74043 0.0
H5723 H 0.2582 0.18402 0.7107 0.0
H5724 H 0.20081 0.17127 0.71407 0.0
H5725 H 0.20511 0.16049 0.74396 0.0
C5726 C 0.21733 0.07662 0.77587 0.0
C5727 C 0.19926 0.07218 0.78054 0.0
C5728 C 0.22713 0.09612 0.77668 0.0
C5729 C 0.21919 0.11222 0.7816 0.0
C5730 C 0.201 0.10778 0.7858 0.0
C5731 C 0.19135 0.08833 0.78536 0.0
C5732 C 0.22921 0.13321 0.78079 0.0
C5733 C 0.22777 0.1407 0.76423 0.0
C5734 C 0.24033 0.14605 0.79602 0.0
C5735 C 0.24146 0.14122 0.81479 0.0
C5736 C 0.2261 0.13922 0.82474 0.0
C5737 C 0.22778 0.13882 0.84376 0.0
C5738 C 0.24477 0.14033 0.85296 0.0
C5739 C 0.26007 0.14202 0.84309 0.0
C5740 C 0.25846 0.14247 0.82408 0.0
C5741 C 0.25885 0.22653 0.76994 0.0
C5742 C 0.27725 0.23383 0.77686 0.0
C5743 C 0.24962 0.20713 0.77021 0.0
C5744 C 0.25826 0.19379 0.77726 0.0
C5745 C 0.27658 0.2012 0.78447 0.0
C5746 C 0.28582 0.22065 0.78424 0.0
C5747 C 0.24829 0.17263 0.77774 0.0
C5748 C 0.24977 0.16503 0.79419 0.0
C5749 C 0.23686 0.15993 0.76255 0.0
C5750 C 0.2343 0.16611 0.74448 0.0
C5751 C 0.24922 0.17267 0.73486 0.0
C5752 C 0.24666 0.17886 0.71799 0.0
C5753 C 0.22923 0.17838 0.71052 0.0
C5754 C 0.21431 0.17165 0.71988 0.0
C5755 C 0.2168 0.16549 0.73677 0.0
H5756 H 0.22728 0.1832 0.69747 0.0
H5757 H 0.24604 0.14004 0.86769 0.0
H5758 H 0.38829 1.00477 0.27206 0.0
H5759 H 0.37347 0.97095 0.2606 0.0
H5760 H 0.38864 0.95731 0.31392 0.0
H5761 H 0.40715 0.98992 0.32305 0.0
H5762 H 0.3952 0.93305 0.2921 0.0
H5763 H 0.33706 0.95813 0.28798 0.0
H5764 H 0.31812 0.97741 0.27431 0.0
H5765 H 0.32903 0.95344 0.2195 0.0
H5766 H 0.34762 0.93379 0.23286 0.0
H5767 H 0.31048 0.84871 0.27799 0.0
H5768 H 0.32296 0.88348 0.27993 0.0
H5769 H 0.37162 0.87028 0.25854 0.0
H5770 H 0.36091 0.83665 0.26058 0.0
H5771 H 0.33451 0.90685 0.25811 0.0
H5772 H 0.4041 0.89576 0.27028 0.0
H5773 H 0.42186 0.87653 0.28552 0.0
H5774 H 0.38713 0.87608 0.3298 0.0
H5775 H 0.36852 0.89415 0.31421 0.0
C5776 C 0.38823 0.99435 0.28123 0.0
C5777 C 0.39803 0.9998 0.29877 0.0
C5778 C 0.37944 0.97508 0.27483 0.0
C5779 C 0.37935 0.96138 0.28647 0.0
C5780 C 0.38854 0.96739 0.30445 0.0
C5781 C 0.3987 0.98615 0.31004 0.0
C5782 C 0.37168 0.94044 0.27975 0.0
C5783 C 0.38174 0.92759 0.28498 0.0
C5784 C 0.3547 0.93279 0.26924 0.0
C5785 C 0.34389 0.94489 0.26143 0.0
C5786 C 0.3355 0.95723 0.27307 0.0
C5787 C 0.32484 0.96815 0.26538 0.0
C5788 C 0.32261 0.9669 0.2461 0.0
C5789 C 0.33085 0.95452 0.23443 0.0
C5790 C 0.34137 0.94343 0.24204 0.0
C5791 C 0.32423 0.85352 0.27492 0.0
C5792 C 0.33525 0.84031 0.27075 0.0
C5793 C 0.33114 0.87322 0.27537 0.0
C5794 C 0.34867 0.87953 0.27032 0.0
C5795 C 0.35865 0.86592 0.26381 0.0
C5796 C 0.35237 0.84663 0.26479 0.0
C5797 C 0.35708 0.90029 0.27283 0.0
C5798 C 0.34763 0.91275 0.26589 0.0
C5799 C 0.37446 0.90784 0.28225 0.0
C5800 C 0.38485 0.89594 0.291 0.0
C5801 C 0.40014 0.89124 0.28314 0.0
C5802 C 0.41023 0.8804 0.29174 0.0
C5803 C 0.40543 0.87476 0.30849 0.0
C5804 C 0.39052 0.87993 0.3166 0.0
C5805 C 0.38008 0.89026 0.3078 0.0
H5806 H 0.41337 0.86657 0.31525 0.0
H5807 H 0.31437 0.97541 0.2402 0.0
H5808 H 0.58225 0.35267 0.5674 0.0
H5809 H 0.57931 0.38221 0.55686 0.0
H5810 H 0.58087 0.41097 0.61369 0.0
H5811 H 0.5837 0.38074 0.62449 0.0
H5812 H 0.55391 0.41893 0.5922 0.0
H5813 H 0.61692 0.4225 0.58606 0.0
H5814 H 0.64378 0.41075 0.57622 0.0
H5815 H 0.62242 0.40067 0.51904 0.0
H5816 H 0.59533 0.41215 0.52856 0.0
H5817 H 0.55588 0.51005 0.56118 0.0
H5818 H 0.55962 0.48291 0.57635 0.0
H5819 H 0.56862 0.45098 0.52361 0.0
H5820 H 0.56569 0.47847 0.50879 0.0
H5821 H 0.59188 0.44642 0.54597 0.0
H5822 H 0.52722 0.43583 0.55139 0.0
H5823 H 0.4985 0.44422 0.56007 0.0
H5824 H 0.52164 0.46573 0.6164 0.0
H5825 H 0.55032 0.45704 0.60809 0.0
C5826 C 0.58249 0.36533 0.57784 0.0
C5827 C 0.58364 0.36419 0.59693 0.0
C5828 C 0.58075 0.38239 0.57169 0.0
C5829 C 0.58008 0.3992 0.58434 0.0
C5830 C 0.58148 0.39835 0.60352 0.0
C5831 C 0.58337 0.3811 0.60975 0.0
C5832 C 0.57721 0.4171 0.57718 0.0
C5833 C 0.56247 0.42516 0.58237 0.0
C5834 C 0.58784 0.42508 0.5638 0.0
C5835 C 0.60406 0.41808 0.55804 0.0
C5836 C 0.6179 0.41765 0.5714 0.0
C5837 C 0.63317 0.41106 0.56588 0.0
C5838 C 0.63479 0.40495 0.54702 0.0
C5839 C 0.62115 0.40541 0.53364 0.0
C5840 C 0.60585 0.41198 0.53909 0.0
C5841 C 0.55818 0.49701 0.55276 0.0
C5842 C 0.55999 0.49627 0.53361 0.0
C5843 C 0.5603 0.48134 0.56147 0.0
C5844 C 0.56425 0.46439 0.55129 0.0
C5845 C 0.56565 0.46365 0.53204 0.0
C5846 C 0.56379 0.47937 0.52344 0.0
C5847 C 0.56827 0.4481 0.56062 0.0
C5848 C 0.58331 0.44033 0.55586 0.0
C5849 C 0.55777 0.44022 0.57417 0.0
C5850 C 0.54091 0.44613 0.57905 0.0
C5851 C 0.52618 0.44253 0.56556 0.0
C5852 C 0.5099 0.44717 0.57046 0.0
C5853 C 0.50831 0.45569 0.58872 0.0
C5854 C 0.52292 0.45927 0.60222 0.0
C5855 C 0.53914 0.45437 0.59747 0.0
H5856 H 0.49573 0.4594 0.59244 0.0
H5857 H 0.64664 0.39987 0.54278 0.0
H5858 H 0.46286 0.788 0.42167 0.0
H5859 H 0.43517 0.7886 0.40298 0.0
H5860 H 0.44985 0.75025 0.35736 0.0
H5861 H 0.47711 0.7493 0.37625 0.0
H5862 H 0.42866 0.80193 0.37397 0.0
H5863 H 0.41491 0.72649 0.3266 0.0
H5864 H 0.41817 0.69324 0.32799 0.0
H5865 H 0.41548 0.70405 0.38715 0.0
H5866 H 0.41199 0.73727 0.38606 0.0
H5867 H 0.36778 0.7823 0.28559 0.0
H5868 H 0.39303 0.77877 0.30614 0.0
H5869 H 0.3585 0.77467 0.35066 0.0
H5870 H 0.33333 0.7787 0.33032 0.0
H5871 H 0.3878 0.74394 0.3356 0.0
H5872 H 0.37733 0.80741 0.36559 0.0
H5873 H 0.37414 0.84089 0.36541 0.0
H5874 H 0.42525 0.85385 0.34262 0.0
H5875 H 0.42841 0.82024 0.34209 0.0
C5876 C 0.46002 0.77949 0.40774 0.0
C5877 C 0.47247 0.76895 0.40035 0.0
C5878 C 0.44416 0.77991 0.39693 0.0
C5879 C 0.44 0.76943 0.37852 0.0
C5880 C 0.4522 0.75826 0.37149 0.0
C5881 C 0.46802 0.75788 0.38228 0.0
C5882 C 0.42347 0.7708 0.36652 0.0
C5883 C 0.41988 0.78914 0.36563 0.0
C5884 C 0.41148 0.75433 0.35548 0.0
C5885 C 0.41337 0.73438 0.35626 0.0
C5886 C 0.41495 0.72172 0.33988 0.0
C5887 C 0.41685 0.7029 0.34062 0.0
C5888 C 0.4171 0.69656 0.35765 0.0
C5889 C 0.41536 0.709 0.37398 0.0
C5890 C 0.41344 0.72783 0.37331 0.0
C5891 C 0.36541 0.78032 0.29962 0.0
C5892 C 0.3483 0.78055 0.30609 0.0
C5893 C 0.37999 0.7785 0.31148 0.0
C5894 C 0.37786 0.77664 0.33012 0.0
C5895 C 0.36067 0.77631 0.33646 0.0
C5896 C 0.34621 0.77853 0.32474 0.0
C5897 C 0.39351 0.775 0.3429 0.0
C5898 C 0.39686 0.75665 0.34385 0.0
C5899 C 0.40528 0.79141 0.354 0.0
C5900 C 0.40294 0.81126 0.3535 0.0
C5901 C 0.38767 0.81727 0.36014 0.0
C5902 C 0.38591 0.83629 0.36025 0.0
C5903 C 0.39948 0.84947 0.35401 0.0
C5904 C 0.41471 0.8436 0.34739 0.0
C5905 C 0.41647 0.82456 0.34714 0.0
H5906 H 0.3983 0.8643 0.35455 0.0
H5907 H 0.4186 0.68199 0.3582 0.0
H5908 H 0.06734 0.74808 0.12234 0.0
H5909 H 0.06551 0.71437 0.10749 0.0
H5910 H 0.09168 0.73438 0.06124 0.0
H5911 H 0.09465 0.76801 0.07683 0.0
H5912 H 0.04953 0.69136 0.07806 0.0
H5913 H 0.11256 0.70167 0.03877 0.0
H5914 H 0.14179 0.72477 0.0396 0.0
H5915 H 0.14306 0.74053 0.09895 0.0
H5916 H 0.11392 0.71734 0.09848 0.0
H5917 H 0.06306 0.60167 0.01841 0.0
H5918 H 0.06814 0.63737 0.02567 0.0
H5919 H 0.08227 0.63643 0.08324 0.0
H5920 H 0.07659 0.60099 0.0762 0.0
H5921 H 0.10395 0.66968 0.0564 0.0
H5922 H 0.05012 0.64299 0.09091 0.0
H5923 H 0.02185 0.61795 0.08841 0.0
H5924 H 1.0035 0.63446 0.03822 0.0
H5925 H 0.03183 0.65944 0.04035 0.0
C5926 C 0.07272 0.74522 0.10902 0.0
C5927 C 0.08063 0.76068 0.10048 0.0
C5928 C 0.07159 0.72591 0.10043 0.0
C5929 C 0.07856 0.72152 0.08318 0.0
C5930 C 0.08649 0.73709 0.07467 0.0
C5931 C 0.08789 0.75639 0.08343 0.0
C5932 C 0.07788 0.70074 0.07455 0.0
C5933 C 0.06152 0.68682 0.07338 0.0
C5934 C 0.09328 0.69437 0.06792 0.0
C5935 C 0.11103 0.7079 0.06856 0.0
C5936 C 0.11915 0.70999 0.052 0.0
C5937 C 0.13567 0.72311 0.05241 0.0
C5938 C 0.14425 0.73415 0.06931 0.0
C5939 C 0.13637 0.732 0.08587 0.0
C5940 C 0.11986 0.71887 0.08554 0.0
C5941 C 0.06784 0.60916 0.03246 0.0
C5942 C 0.06971 0.59856 0.04672 0.0
C5943 C 0.07062 0.62955 0.03663 0.0
C5944 C 0.07555 0.63959 0.05504 0.0
C5945 C 0.07851 0.62905 0.06896 0.0
C5946 C 0.07535 0.60879 0.06491 0.0
C5947 C 0.07586 0.6607 0.06039 0.0
C5948 C 0.09203 0.67451 0.06093 0.0
C5949 C 0.06041 0.66702 0.06646 0.0
C5950 C 0.043 0.65298 0.06578 0.0
C5951 C 0.04001 0.64129 0.07939 0.0
C5952 C 0.02403 0.62709 0.07801 0.0
C5953 C 0.01091 0.6246 0.06316 0.0
C5954 C 0.01368 0.6364 0.04971 0.0
C5955 C 0.02969 0.65058 0.051 0.0
H5956 H 0.99862 0.61351 0.06209 0.0
H5957 H 0.15703 0.74434 0.06959 0.0
H5958 H 0.08321 0.27208 0.92579 0.0
H5959 H 0.11286 0.27105 0.91353 0.0
H5960 H 0.09207 0.28053 0.86068 0.0
H5961 H 0.06331 0.28097 0.87214 0.0
H5962 H 0.10924 0.25276 0.85498 0.0
H5963 H 0.12052 0.31703 0.89567 0.0
H5964 H 0.12406 0.33833 0.92644 0.0
H5965 H 0.1655 0.31154 0.94508 0.0
H5966 H 0.16203 0.28994 0.9145 0.0
H5967 H 0.17079 0.29375 0.79933 0.0
H5968 H 0.14827 0.28676 0.82075 0.0
H5969 H 0.18957 0.28346 0.86209 0.0
H5970 H 0.21276 0.29214 0.84087 0.0
H5971 H 0.16601 0.30112 0.87887 0.0
H5972 H 0.15858 0.24142 0.8362 0.0
H5973 H 0.15521 0.22001 0.80555 0.0
H5974 H 0.1062 0.237 0.79091 0.0
H5975 H 0.1094 0.25872 0.82135 0.0
C5976 C 0.085 0.27369 0.91153 0.0
C5977 C 0.07066 0.27664 0.90012 0.0
C5978 C 0.10199 0.27328 0.90455 0.0
C5979 C 0.10483 0.27577 0.88609 0.0
C5980 C 0.09042 0.27844 0.87487 0.0
C5981 C 0.07377 0.27877 0.88165 0.0
C5982 C 0.12233 0.27553 0.87756 0.0
C5983 C 0.12166 0.26333 0.86028 0.0
C5984 C 0.13886 0.28872 0.88465 0.0
C5985 C 0.14085 0.30172 0.90293 0.0
C5986 C 0.13027 0.31559 0.9064 0.0
C5987 C 0.13229 0.32773 0.92378 0.0
C5988 C 0.14495 0.32624 0.93773 0.0
C5989 C 0.15566 0.31265 0.93429 0.0
C5990 C 0.15368 0.30046 0.91695 0.0
C5991 C 0.17531 0.29181 0.81302 0.0
C5992 C 0.19381 0.29385 0.81831 0.0
C5993 C 0.16223 0.28743 0.82526 0.0
C5994 C 0.16698 0.2841 0.84305 0.0
C5995 C 0.18542 0.28582 0.84843 0.0
C5996 C 0.1987 0.29059 0.83618 0.0
C5997 C 0.15246 0.27916 0.85574 0.0
C5998 C 0.15374 0.29026 0.87375 0.0
C5999 C 0.13634 0.26493 0.84934 0.0
C6000 C 0.13426 0.25171 0.83106 0.0
C6001 C 0.14712 0.24064 0.82642 0.0
C6002 C 0.14524 0.22846 0.80907 0.0
C6003 C 0.13051 0.22715 0.79629 0.0
C6004 C 0.1176 0.23801 0.80083 0.0
C6005 C 0.11942 0.25023 0.81814 0.0
H6006 H 0.12909 0.21771 0.78287 0.0
H6007 H 0.14649 0.33565 0.95118 0.0
H6008 H 0.61607 0.78415 0.93142 0.0
H6009 H 0.60983 0.75644 0.94747 0.0
H6010 H 0.56203 0.73089 0.90977 0.0
H6011 H 0.56837 0.75831 0.89335 0.0
H6012 H 0.55907 0.73907 0.95164 0.0
H6013 H 0.59085 0.70831 0.90378 0.0
H6014 H 0.61699 0.70704 0.88548 0.0
H6015 H 0.65115 0.71186 0.93549 0.0
H6016 H 0.62524 0.71347 0.95413 0.0
H6017 H 0.52819 0.65486 0.9861 0.0
H6018 H 0.53763 0.67709 0.96477 0.0
H6019 H 0.59299 0.68716 0.98807 0.0
H6020 H 0.58363 0.66385 0.00857 0.0
H6021 H 0.59306 0.68731 0.95329 0.0
H6022 H 0.56494 0.71954 1.00176 0.0
H6023 H 0.54132 0.72396 0.02283 0.0
H6024 H 0.50351 0.72067 0.97602 0.0
H6025 H 0.52688 0.71604 0.95465 0.0
C6026 C 0.60447 0.7724 0.92631 0.0
C6027 C 0.59271 0.77325 0.91117 0.0
C6028 C 0.60095 0.75666 0.93546 0.0
C6029 C 0.58553 0.7418 0.92968 0.0
C6030 C 0.57405 0.7423 0.91425 0.0
C6031 C 0.57773 0.75785 0.90487 0.0
C6032 C 0.58058 0.7266 0.94077 0.0
C6033 C 0.56625 0.72752 0.95183 0.0
C6034 C 0.59063 0.71229 0.94154 0.0
C6035 C 0.60616 0.71118 0.93035 0.0
C6036 C 0.60397 0.70928 0.91089 0.0
C6037 C 0.61873 0.70846 0.90045 0.0
C6038 C 0.63573 0.70941 0.90932 0.0
C6039 C 0.63798 0.71114 0.92864 0.0
C6040 C 0.62326 0.71199 0.93915 0.0
C6041 C 0.54237 0.6617 0.98646 0.0
C6042 C 0.55519 0.65797 0.99899 0.0
C6043 C 0.54775 0.67445 0.97441 0.0
C6044 C 0.56592 0.68422 0.97526 0.0
C6045 C 0.57888 0.67989 0.9873 0.0
C6046 C 0.57355 0.66668 0.99901 0.0
C6047 C 0.57121 0.69944 0.96405 0.0
C6048 C 0.58573 0.69873 0.9531 0.0
C6049 C 0.56168 0.71439 0.96382 0.0
C6050 C 0.54761 0.71729 0.97661 0.0
C6051 C 0.55156 0.71965 0.99596 0.0
C6052 C 0.53823 0.72221 0.00795 0.0
C6053 C 0.52092 0.72256 1.00077 0.0
C6054 C 0.51692 0.7204 0.98157 0.0
C6055 C 0.53021 0.71783 0.96951 0.0
H6056 H 0.51061 0.72454 0.01007 0.0
H6057 H 0.64714 0.70876 0.90121 0.0
H6058 H 0.07628 0.78315 0.65327 0.0
H6059 H 0.10431 0.77855 0.66842 0.0
H6060 H 0.07331 0.74871 0.70691 0.0
H6061 H 0.04564 0.75402 0.69231 0.0
H6062 H 0.10095 0.77221 0.72495 0.0
H6063 H 0.09066 0.72438 0.66965 0.0
H6064 H 0.08479 0.71191 0.6359 0.0
H6065 H 0.13535 0.74757 0.62686 0.0
H6066 H 0.14139 0.76046 0.66055 0.0
H6067 H 0.16896 0.71744 0.74534 0.0
H6068 H 0.14256 0.72284 0.72807 0.0
H6069 H 0.17086 0.7813 0.72682 0.0
H6070 H 0.19669 0.77677 0.74529 0.0
H6071 H 0.14526 0.74267 0.68989 0.0
H6072 H 0.15005 0.79616 0.74611 0.0
H6073 H 0.15443 0.80693 0.78018 0.0
H6074 H 0.11257 0.75863 0.78683 0.0
H6075 H 0.10826 0.7474 0.75277 0.0
C6076 C 0.07565 0.77572 0.66502 0.0
C6077 C 0.05915 0.76935 0.67207 0.0
C6078 C 0.09152 0.77298 0.67356 0.0
C6079 C 0.09081 0.76315 0.68867 0.0
C6080 C 0.07415 0.75642 0.69534 0.0
C6081 C 0.05842 0.75948 0.68706 0.0
C6082 C 0.10739 0.76008 0.69784 0.0
C6083 C 0.11067 0.76602 0.71717 0.0
C6084 C 0.11989 0.75144 0.6878 0.0
C6085 C 0.11641 0.7435 0.66759 0.0
C6086 C 0.10047 0.72965 0.66044 0.0
C6087 C 0.09711 0.7225 0.64133 0.0
C6088 C 0.10967 0.72898 0.62924 0.0
C6089 C 0.12563 0.74258 0.63624 0.0
C6090 C 0.12904 0.74979 0.65535 0.0
C6091 C 0.16949 0.73155 0.74167 0.0
C6092 C 0.18498 0.74664 0.74672 0.0
C6093 C 0.15452 0.73449 0.73162 0.0
C6094 C 0.15497 0.75243 0.72632 0.0
C6095 C 0.17041 0.76739 0.73092 0.0
C6096 C 0.1852 0.76464 0.74131 0.0
C6097 C 0.13894 0.75581 0.71665 0.0
C6098 C 0.13568 0.74952 0.69738 0.0
C6099 C 0.12639 0.76418 0.72665 0.0
C6100 C 0.12914 0.77073 0.74703 0.0
C6101 C 0.14201 0.78769 0.75489 0.0
C6102 C 0.14443 0.79391 0.77417 0.0
C6103 C 0.13386 0.7834 0.78568 0.0
C6104 C 0.12082 0.76669 0.77792 0.0
C6105 C 0.11842 0.76037 0.75864 0.0
H6106 H 0.13572 0.78826 0.80061 0.0
H6107 H 0.10705 0.72343 0.61444 0.0
H6108 H 0.1002 0.39931 0.39086 0.0
H6109 H 0.10442 0.42899 0.41332 0.0
H6110 H 0.13096 0.40369 0.45344 0.0
H6111 H 0.1256 0.37318 0.43121 0.0
H6112 H 0.10646 0.41659 0.46842 0.0
H6113 H 0.15287 0.44595 0.43572 0.0
H6114 H 0.16942 0.45532 0.40944 0.0
H6115 H 0.12901 0.48537 0.39486 0.0
H6116 H 0.112 0.47587 0.4208 0.0
H6117 H 0.10261 0.50789 0.52597 0.0
H6118 H 0.11763 0.48537 0.50759 0.0
H6119 H 0.0759 0.47516 0.46247 0.0
H6120 H 0.06008 0.49669 0.48112 0.0
H6121 H 0.11732 0.48355 0.45533 0.0
H6122 H 0.06811 0.44348 0.48344 0.0
H6123 H 0.05317 0.43561 0.51116 0.0
H6124 H 0.103 0.42762 0.53576 0.0
H6125 H 0.11827 0.43573 0.50826 0.0
C6126 C 0.10724 0.40011 0.40433 0.0
C6127 C 0.11226 0.38381 0.40941 0.0
C6128 C 0.10992 0.41728 0.41712 0.0
C6129 C 0.11825 0.41872 0.43503 0.0
C6130 C 0.12452 0.40289 0.43968 0.0
C6131 C 0.12141 0.38548 0.427 0.0
C6132 C 0.11741 0.43536 0.44955 0.0
C6133 C 0.10947 0.43131 0.46575 0.0
C6134 C 0.12115 0.45462 0.44614 0.0
C6135 C 0.13114 0.46015 0.43026 0.0
C6136 C 0.14742 0.45442 0.42683 0.0
C6137 C 0.15689 0.45977 0.41199 0.0
C6138 C 0.15027 0.47093 0.40049 0.0
C6139 C 0.13413 0.47674 0.40379 0.0
C6140 C 0.12458 0.4714 0.41859 0.0
C6141 C 0.09638 0.50056 0.51232 0.0
C6142 C 0.07982 0.50353 0.50523 0.0
C6143 C 0.10518 0.48803 0.50176 0.0
C6144 C 0.09778 0.47884 0.48383 0.0
C6145 C 0.08172 0.48235 0.47635 0.0
C6146 C 0.07267 0.4945 0.48706 0.0
C6147 C 0.10593 0.46429 0.47328 0.0
C6148 C 0.11511 0.46886 0.45804 0.0
C6149 C 0.10364 0.4456 0.47764 0.0
C6150 C 0.09436 0.44041 0.49395 0.0
C6151 C 0.0759 0.44019 0.49484 0.0
C6152 C 0.06737 0.43567 0.51049 0.0
C6153 C 0.07715 0.43118 0.52524 0.0
C6154 C 0.09546 0.43114 0.52434 0.0
C6155 C 0.10405 0.43569 0.50873 0.0
H6156 H 0.07053 0.42768 0.53735 0.0
H6157 H 0.15763 0.47507 0.38902 0.0
H6158 H 0.43685 0.2538 0.15782 0.0
H6159 H 0.41457 0.25615 0.18006 0.0
H6160 H 0.45652 0.28793 0.22279 0.0
H6161 H 0.47926 0.2851 0.20061 0.0
H6162 H 0.43102 0.26037 0.23538 0.0
H6163 H 0.43164 0.31244 0.20214 0.0
H6164 H 0.43167 0.32723 0.17406 0.0
H6165 H 0.37945 0.2909 0.154 0.0
H6166 H 0.37926 0.2756 0.18175 0.0
H6167 H 0.35423 0.27683 0.28587 0.0
H6168 H 0.38378 0.27929 0.27324 0.0
H6169 H 0.35676 0.25714 0.21794 0.0
H6170 H 0.32778 0.25651 0.23034 0.0
H6171 H 0.37943 0.2875 0.21668 0.0
H6172 H 0.38148 0.23173 0.24683 0.0
H6173 H 0.38067 0.21682 0.27492 0.0
H6174 H 0.42724 0.26005 0.3007 0.0
H6175 H 0.42803 0.27559 0.27303 0.0
C6176 C 0.44142 0.26133 0.17191 0.0
C6177 C 0.45977 0.26948 0.17743 0.0
C6178 C 0.42866 0.26264 0.1846 0.0
C6179 C 0.43396 0.27254 0.20288 0.0
C6180 C 0.45228 0.28035 0.20865 0.0
C6181 C 0.46516 0.2788 0.19597 0.0
C6182 C 0.42003 0.275 0.21559 0.0
C6183 C 0.41987 0.26667 0.2316 0.0
C6184 C 0.40561 0.28325 0.21054 0.0
C6185 C 0.40546 0.29285 0.19405 0.0
C6186 C 0.42019 0.30756 0.19172 0.0
C6187 C 0.42024 0.31601 0.17584 0.0
C6188 C 0.40557 0.31001 0.16226 0.0
C6189 C 0.3908 0.29555 0.16454 0.0
C6190 C 0.3907 0.287 0.18036 0.0
C6191 C 0.35483 0.27245 0.27106 0.0
C6192 C 0.33904 0.26718 0.25888 0.0
C6193 C 0.37161 0.2736 0.26387 0.0
C6194 C 0.37249 0.2686 0.24458 0.0
C6195 C 0.35645 0.26153 0.2328 0.0
C6196 C 0.33989 0.26105 0.23987 0.0
C6197 C 0.38977 0.2719 0.23605 0.0
C6198 C 0.3907 0.28161 0.22088 0.0
C6199 C 0.40476 0.26486 0.24185 0.0
C6200 C 0.40476 0.25487 0.25796 0.0
C6201 C 0.39154 0.23804 0.2585 0.0
C6202 C 0.39106 0.2295 0.27434 0.0
C6203 C 0.40391 0.23743 0.28953 0.0
C6204 C 0.4173 0.25391 0.28892 0.0
C6205 C 0.41777 0.26262 0.27319 0.0
H6206 H 0.40347 0.2308 0.30178 0.0
H6207 H 0.40565 0.31655 0.14996 0.0
H6208 H 0.6308 0.53116 0.315 0.0
H6209 H 0.61424 0.53389 0.34311 0.0
H6210 H 0.65187 0.50842 0.37092 0.0
H6211 H 0.66861 0.50622 0.34322 0.0
H6212 H 0.61833 0.49404 0.38121 0.0
H6213 H 0.65226 0.55797 0.38096 0.0
H6214 H 0.66263 0.58786 0.36845 0.0
H6215 H 0.60838 0.59633 0.36486 0.0
H6216 H 0.59763 0.56627 0.37704 0.0
H6217 H 0.60142 0.5257 0.47797 0.0
H6218 H 0.61499 0.52162 0.44819 0.0
H6219 H 0.57062 0.53852 0.42151 0.0
H6220 H 0.55657 0.54178 0.45118 0.0
H6221 H 0.60629 0.5571 0.41012 0.0
H6222 H 0.57227 0.494 0.41099 0.0
H6223 H 0.56145 0.46404 0.4232 0.0
H6224 H 0.6151 0.45376 0.42517 0.0
H6225 H 0.62633 0.48393 0.41334 0.0
C6226 C 0.63551 0.52583 0.32693 0.0
C6227 C 0.65129 0.51818 0.32613 0.0
C6228 C 0.62598 0.5276 0.34338 0.0
C6229 C 0.63144 0.52151 0.35995 0.0
C6230 C 0.64687 0.51334 0.35887 0.0
C6231 C 0.6566 0.51203 0.34267 0.0
C6232 C 0.62161 0.52388 0.37828 0.0
C6233 C 0.61598 0.50799 0.38746 0.0
C6234 C 0.61775 0.54177 0.38706 0.0
C6235 C 0.62411 0.55975 0.37968 0.0
C6236 C 0.64251 0.5661 0.37733 0.0
C6237 C 0.64846 0.58309 0.37033 0.0
C6238 C 0.63616 0.59396 0.36581 0.0
C6239 C 0.61788 0.58787 0.36832 0.0
C6240 C 0.61185 0.57086 0.37526 0.0
C6241 C 0.59434 0.52848 0.46582 0.0
C6242 C 0.57756 0.53403 0.46758 0.0
C6243 C 0.60227 0.52612 0.4485 0.0
C6244 C 0.59423 0.52976 0.43188 0.0
C6245 C 0.57755 0.53557 0.43365 0.0
C6246 C 0.56933 0.53735 0.45089 0.0
C6247 C 0.60307 0.52727 0.413 0.0
C6248 C 0.60859 0.54315 0.4038 0.0
C6249 C 0.60677 0.50936 0.40416 0.0
C6250 C 0.6002 0.49138 0.41153 0.0
C6251 C 0.58182 0.4855 0.41427 0.0
C6252 C 0.5756 0.46845 0.42107 0.0
C6253 C 0.5876 0.45703 0.42501 0.0
C6254 C 0.60584 0.46265 0.42215 0.0
C6255 C 0.61214 0.47974 0.41541 0.0
H6256 H 0.58275 0.4438 0.43023 0.0
H6257 H 0.64079 0.60712 0.36042 0.0
H6258 H 0.29548 0.89046 0.0576 0.0
H6259 H 0.30269 0.8749 0.08335 0.0
H6260 H 0.34726 0.92344 0.10414 0.0
H6261 H 0.33988 0.93936 0.07862 0.0
H6262 H 0.33838 0.86655 0.08676 0.0
H6263 H 0.35049 0.9279 0.14082 0.0
H6264 H 0.34 0.95735 0.15359 0.0
H6265 H 0.28504 0.9246 0.14535 0.0
H6266 H 0.29529 0.89504 0.13235 0.0
H6267 H 0.36733 0.82199 0.15993 0.0
H6268 H 0.36706 0.84751 0.14143 0.0
H6269 H 0.31086 0.84475 0.14969 0.0
H6270 H 0.31084 0.8191 0.16759 0.0
H6271 H 0.33129 0.88266 0.15419 0.0
H6272 H 0.32064 0.82053 0.11128 0.0
H6273 H 0.329 0.79005 0.09783 0.0
H6274 H 0.37834 0.82247 0.08225 0.0
H6275 H 0.37034 0.85313 0.09584 0.0
C6276 C 0.3064 0.89811 0.06803 0.0
C6277 C 0.31713 0.91606 0.06623 0.0
C6278 C 0.31055 0.88919 0.08261 0.0
C6279 C 0.32548 0.8981 0.09545 0.0
C6280 C 0.33553 0.91657 0.09443 0.0
C6281 C 0.33126 0.92564 0.07992 0.0
C6282 C 0.33141 0.88704 0.10868 0.0
C6283 C 0.3372 0.87021 0.10157 0.0
C6284 C 0.3298 0.89191 0.12782 0.0
C6285 C 0.32361 0.90944 0.13567 0.0
C6286 C 0.33618 0.92706 0.14177 0.0
C6287 C 0.33029 0.94374 0.14899 0.0
C6288 C 0.31186 0.94285 0.15028 0.0
C6289 C 0.29929 0.92527 0.14432 0.0
C6290 C 0.30513 0.90858 0.137 0.0
C6291 C 0.35493 0.82675 0.15762 0.0
C6292 C 0.33913 0.8186 0.16512 0.0
C6293 C 0.35486 0.84142 0.14732 0.0
C6294 C 0.33899 0.84797 0.14446 0.0
C6295 C 0.32328 0.83999 0.15205 0.0
C6296 C 0.32329 0.82531 0.16218 0.0
C6297 C 0.33807 0.86198 0.13225 0.0
C6298 C 0.33312 0.8793 0.1395 0.0
C6299 C 0.34038 0.85746 0.11315 0.0
C6300 C 0.34501 0.83906 0.10474 0.0
C6301 C 0.33332 0.82113 0.10508 0.0
C6302 C 0.33798 0.80384 0.09743 0.0
C6303 C 0.35422 0.80432 0.08924 0.0
C6304 C 0.36579 0.82211 0.08863 0.0
C6305 C 0.3612 0.83944 0.09629 0.0
H6306 H 0.35782 0.79092 0.08333 0.0
H6307 H 0.30732 0.95577 0.15591 0.0
H6308 H 0.92767 0.571 0.87641 0.0
H6309 H 0.95069 0.57631 0.90262 0.0
H6310 H 0.98633 0.553 0.86568 0.0
H6311 H 0.96395 0.54841 0.83955 0.0
H6312 H 0.96378 0.54933 0.91562 0.0
H6313 H 0.02518 0.56928 0.87622 0.0
H6314 H 0.03531 0.58848 0.85216 0.0
H6315 H 1.00265 0.62855 0.87144 0.0
H6316 H 0.99217 0.60938 0.89541 0.0
H6317 H 0.03346 0.52848 0.96538 0.0
H6318 H 0.01667 0.53167 0.93707 0.0
H6319 H 0.03091 0.59407 0.9536 0.0
H6320 H 0.0485 0.59083 0.98157 0.0
H6321 H 0.02826 0.58224 0.91589 0.0
H6322 H 0.99268 0.57006 0.96738 0.0
H6323 H 0.98253 0.55207 0.99223 0.0
H6324 H 0.96309 0.50005 0.95169 0.0
H6325 H 0.97312 0.51774 0.92657 0.0
C6326 C 0.94055 0.56733 0.87393 0.0
C6327 C 0.94414 0.55944 0.85604 0.0
C6328 C 0.95362 0.57038 0.88881 0.0
C6329 C 0.97025 0.56543 0.88588 0.0
C6330 C 0.9738 0.55754 0.86804 0.0
C6331 C 0.96094 0.5548 0.85318 0.0
C6332 C 0.9834 0.56683 0.90162 0.0
C6333 C 0.97782 0.55674 0.91584 0.0
C6334 C 1.00164 0.57643 0.90176 0.0
C6335 C 0.00791 0.58795 0.88749 0.0
C6336 C 0.02024 0.58223 0.87532 0.0
C6337 C 0.02596 0.59303 0.86166 0.0
C6338 C 0.01962 0.60972 0.86027 0.0
C6339 C 0.00749 0.61559 0.87248 0.0
C6340 C 1.00158 0.60471 0.88602 0.0
C6341 C 0.03345 0.54283 0.96251 0.0
C6342 C 0.04186 0.55948 0.97532 0.0
C6343 C 0.02391 0.54463 0.94652 0.0
C6344 C 0.02228 0.56306 0.94375 0.0
C6345 C 0.03206 0.57978 0.95575 0.0
C6346 C 0.042 0.57796 0.97158 0.0
C6347 C 0.00863 0.5647 0.92976 0.0
C6348 C 0.01414 0.57517 0.91584 0.0
C6349 C 0.99024 0.55573 0.93011 0.0
C6350 C 0.98371 0.5452 0.94513 0.0
C6351 C 0.98626 0.55478 0.96378 0.0
C6352 C 0.98054 0.54464 0.97791 0.0
C6353 C 0.97222 0.52493 0.97355 0.0
C6354 C 0.96952 0.51532 0.95504 0.0
C6355 C 0.97516 0.52541 0.94084 0.0
H6356 H 0.96783 0.51711 0.98453 0.0
H6357 H 0.02411 0.61811 0.84973 0.0
H6358 H 0.28954 0.1914 0.57414 0.0
H6359 H 0.2892 0.20527 0.6069 0.0
H6360 H 0.30728 0.26277 0.59502 0.0
H6361 H 0.30804 0.24887 0.56217 0.0
H6362 H 0.32374 0.26079 0.62731 0.0
H6363 H 0.26204 0.24404 0.6016 0.0
H6364 H 0.23429 0.22284 0.58433 0.0
H6365 H 0.23314 0.1836 0.62282 0.0
H6366 H 0.26103 0.20445 0.6402 0.0
H6367 H 0.30419 0.3016 0.71908 0.0
H6368 H 0.3023 0.29416 0.68472 0.0
H6369 H 0.28756 0.23302 0.68627 0.0
H6370 H 0.28943 0.24038 0.72011 0.0
H6371 H 0.26821 0.24084 0.65833 0.0
H6372 H 0.33111 0.25611 0.68241 0.0
H6373 H 0.35874 0.27724 0.70002 0.0
H6374 H 0.35743 0.31936 0.66491 0.0
H6375 H 0.3296 0.2986 0.64727 0.0
C6376 C 0.29356 0.207 0.57847 0.0
C6377 C 0.29873 0.21899 0.56541 0.0
C6378 C 0.29325 0.21496 0.59727 0.0
C6379 C 0.29786 0.23518 0.60355 0.0
C6380 C 0.30355 0.24716 0.59063 0.0
C6381 C 0.30395 0.23918 0.57179 0.0
C6382 C 0.29643 0.24367 0.62348 0.0
C6383 C 0.31147 0.25667 0.63397 0.0
C6384 C 0.28053 0.23826 0.63244 0.0
C6385 C 0.2637 0.22574 0.62211 0.0
C6386 C 0.25593 0.23083 0.60631 0.0
C6387 C 0.24017 0.21888 0.59651 0.0
C6388 C 0.23198 0.20186 0.60245 0.0
C6389 C 0.23951 0.19678 0.61823 0.0
C6390 C 0.25528 0.20867 0.62807 0.0
C6391 C 0.30007 0.28666 0.71197 0.0
C6392 C 0.2967 0.27156 0.72222 0.0
C6393 C 0.29919 0.28237 0.69237 0.0
C6394 C 0.29496 0.26296 0.68281 0.0
C6395 C 0.29082 0.24807 0.69316 0.0
C6396 C 0.29187 0.25231 0.71254 0.0
C6397 C 0.29559 0.25764 0.6622 0.0
C6398 C 0.28039 0.24518 0.65159 0.0
C6399 C 0.31133 0.26352 0.65319 0.0
C6400 C 0.32816 0.27591 0.66366 0.0
C6401 C 0.33664 0.26994 0.67854 0.0
C6402 C 0.35234 0.28184 0.68851 0.0
C6403 C 0.35981 0.29966 0.68362 0.0
C6404 C 0.35161 0.30558 0.66871 0.0
C6405 C 0.33587 0.29375 0.65872 0.0
H6406 H 0.37197 0.30885 0.69135 0.0
H6407 H 0.21978 0.19263 0.59484 0.0
H6408 H 0.67119 0.5162 0.19906 0.0
H6409 H 0.65698 0.51928 0.16927 0.0
H6410 H 0.60721 0.52136 0.19414 0.0
H6411 H 0.62108 0.51639 0.22345 0.0
H6412 H 0.59508 0.5085 0.16274 0.0
H6413 H 0.64582 0.56414 0.17719 0.0
H6414 H 0.67797 0.58072 0.18458 0.0
H6415 H 0.69128 0.54804 0.13461 0.0
H6416 H 0.65924 0.53119 0.12702 0.0
H6417 H 0.55603 0.53913 0.08164 0.0
H6418 H 0.56854 0.53651 0.11269 0.0
H6419 H 0.61908 0.53148 0.09065 0.0
H6420 H 0.60719 0.53578 0.06058 0.0
H6421 H 0.63003 0.54705 0.12137 0.0
H6422 H 0.57887 0.49188 0.10663 0.0
H6423 H 0.54655 0.47614 0.09905 0.0
H6424 H 0.53378 0.50892 0.14923 0.0
H6425 H 0.566 0.52496 0.15701 0.0
C6426 C 0.65716 0.51718 0.1983 0.0
C6427 C 0.64761 0.51591 0.21432 0.0
C6428 C 0.64888 0.51942 0.18094 0.0
C6429 C 0.63068 0.52153 0.17855 0.0
C6430 C 0.62112 0.52 0.19463 0.0
C6431 C 0.62924 0.51715 0.21182 0.0
C6432 C 0.62163 0.52504 0.15978 0.0
C6433 C 0.60295 0.5172 0.15401 0.0
C6434 C 0.63104 0.53605 0.14719 0.0
C6435 C 0.6502 0.54631 0.15164 0.0
C6436 C 0.65563 0.56048 0.16782 0.0
C6437 C 0.67382 0.56991 0.17204 0.0
C6438 C 0.68666 0.5654 0.16009 0.0
C6439 C 0.68133 0.55151 0.14386 0.0
C6440 C 0.66316 0.54203 0.13958 0.0
C6441 C 0.5699 0.53776 0.08341 0.0
C6442 C 0.58042 0.538 0.06797 0.0
C6443 C 0.57717 0.53582 0.10145 0.0
C6444 C 0.59513 0.53319 0.10496 0.0
C6445 C 0.60539 0.53348 0.08938 0.0
C6446 C 0.59835 0.53587 0.0717 0.0
C6447 C 0.6036 0.53029 0.1242 0.0
C6448 C 0.62218 0.53829 0.13008 0.0
C6449 C 0.59408 0.5195 0.13685 0.0
C6450 C 0.5748 0.50967 0.13233 0.0
C6451 C 0.56915 0.49574 0.11602 0.0
C6452 C 0.55085 0.48679 0.11168 0.0
C6453 C 0.53812 0.49154 0.12364 0.0
C6454 C 0.54365 0.50524 0.13998 0.0
C6455 C 0.56193 0.51425 0.14437 0.0
H6456 H 0.52396 0.4846 0.12026 0.0
H6457 H 0.70074 0.5727 0.1634 0.0
H6458 H 0.32171 0.88467 0.97792 0.0
H6459 H 0.32422 0.86091 0.95079 0.0
H6460 H 0.30471 0.89548 0.91482 0.0
H6461 H 0.30274 0.91989 0.94193 0.0
H6462 H 0.29243 0.84327 0.91908 0.0
H6463 H 0.33277 0.90335 0.90046 0.0
H6464 H 0.35895 0.93117 0.90808 0.0
H6465 H 0.39163 0.89422 0.92573 0.0
H6466 H 0.36546 0.86629 0.91862 0.0
H6467 H 0.28896 0.82002 0.82364 0.0
H6468 H 0.29136 0.83496 0.85641 0.0
H6469 H 0.34079 0.81594 0.86588 0.0
H6470 H 0.33802 0.80037 0.83283 0.0
H6471 H 0.34288 0.85547 0.87919 0.0
H6472 H 0.30762 0.79514 0.88538 0.0
H6473 H 0.28357 0.7653 0.87881 0.0
H6474 H 0.2433 0.7991 0.8865 0.0
H6475 H 0.26711 0.82919 0.89297 0.0
C6476 C 0.3177 0.88714 0.96426 0.0
C6477 C 0.31198 0.9041 0.96195 0.0
C6478 C 0.31936 0.87368 0.94886 0.0
C6479 C 0.31516 0.87694 0.93105 0.0
C6480 C 0.30854 0.89324 0.92862 0.0
C6481 C 0.30718 0.90695 0.94402 0.0
C6482 C 0.31694 0.86279 0.91492 0.0
C6483 C 0.30337 0.84585 0.91025 0.0
C6484 C 0.33178 0.86592 0.90423 0.0
C6485 C 0.34711 0.88289 0.90941 0.0
C6486 C 0.34543 0.90127 0.90633 0.0
C6487 C 0.3603 0.91701 0.91042 0.0
C6488 C 0.37695 0.91445 0.91735 0.0
C6489 C 0.37872 0.89618 0.92038 0.0
C6490 C 0.36387 0.88042 0.91639 0.0
C6491 C 0.30009 0.81873 0.83286 0.0
C6492 C 0.31314 0.80891 0.82621 0.0
C6493 C 0.30146 0.82718 0.85145 0.0
C6494 C 0.31604 0.82609 0.86345 0.0
C6495 C 0.32933 0.81655 0.85673 0.0
C6496 C 0.32779 0.8078 0.83805 0.0
C6497 C 0.31776 0.83637 0.88265 0.0
C6498 C 0.33205 0.85259 0.8881 0.0
C6499 C 0.30366 0.83242 0.89418 0.0
C6500 C 0.28918 0.81444 0.88967 0.0
C6501 C 0.29363 0.79623 0.88553 0.0
C6502 C 0.28005 0.77926 0.8819 0.0
C6503 C 0.26193 0.7803 0.88237 0.0
C6504 C 0.25735 0.79832 0.88628 0.0
C6505 C 0.27089 0.81534 0.88996 0.0
H6506 H 0.25142 0.76714 0.8796 0.0
H6507 H 0.38848 0.92663 0.9204 0.0
H6508 H 0.96785 0.55087 0.76559 0.0
H6509 H 0.9812 0.54578 0.73655 0.0
H6510 H 0.93152 0.54844 0.70653 0.0
H6511 H 0.91744 0.55205 0.73602 0.0
H6512 H 0.94354 0.52122 0.68885 0.0
H6513 H 0.97175 0.58654 0.71236 0.0
H6514 H 0.9871 0.61503 0.73572 0.0
H6515 H 0.03282 0.58951 0.74194 0.0
H6516 H 0.01765 0.56071 0.71886 0.0
H6517 H 0.99842 0.51301 0.61177 0.0
H6518 H 0.97971 0.52616 0.63451 0.0
H6519 H 0.01475 0.51724 0.67908 0.0
H6520 H 0.03387 0.5047 0.65645 0.0
H6521 H 0.00718 0.55384 0.68452 0.0
H6522 H 0.97396 0.48594 0.66374 0.0
H6523 H 0.95791 0.459 0.63907 0.0
H6524 H 0.9207 0.49321 0.62555 0.0
H6525 H 0.93668 0.52043 0.64999 0.0
C6526 C 0.95979 0.55071 0.75287 0.0
C6527 C 0.94171 0.55221 0.75302 0.0
C6528 C 0.96751 0.54793 0.73623 0.0
C6529 C 0.95762 0.54749 0.71938 0.0
C6530 C 0.93949 0.54906 0.71943 0.0
C6531 C 0.9315 0.55122 0.7362 0.0
C6532 C 0.96616 0.54405 0.70185 0.0
C6533 C 0.95729 0.52873 0.6877 0.0
C6534 C 0.98408 0.5539 0.70024 0.0
C6535 C 0.99353 0.57144 0.71383 0.0
C6536 C 0.98507 0.58697 0.71873 0.0
C6537 C 0.99373 0.60317 0.73195 0.0
C6538 C 0.01093 0.60408 0.7403 0.0
C6539 C 0.01951 0.5888 0.73543 0.0
C6540 C 0.0109 0.57255 0.72224 0.0
C6541 C 1.00208 0.51382 0.62644 0.0
C6542 C 0.01753 0.50778 0.63243 0.0
C6543 C 0.99137 0.52126 0.63934 0.0
C6544 C 0.99587 0.52256 0.65838 0.0
C6545 C 0.01113 0.51632 0.66439 0.0
C6546 C 0.02188 0.50894 0.65149 0.0
C6547 C 0.98484 0.5305 0.67225 0.0
C6548 C 0.99327 0.54676 0.68557 0.0
C6549 C 0.96643 0.52186 0.67283 0.0
C6550 C 0.9566 0.50525 0.65855 0.0
C6551 C 0.9624 0.48773 0.65544 0.0
C6552 C 0.95332 0.47241 0.64151 0.0
C6553 C 0.93832 0.47441 0.63071 0.0
C6554 C 0.93233 0.49169 0.6339 0.0
C6555 C 0.94138 0.50705 0.64779 0.0
H6556 H 0.93133 0.46255 0.61991 0.0
H6557 H 0.0176 0.61663 0.75055 0.0
H6558 H 0.28294 0.2292 0.46477 0.0
H6559 H 0.28434 0.2439 0.43663 0.0
H6560 H 0.32501 0.21324 0.41807 0.0
H6561 H 0.32326 0.19814 0.44576 0.0
H6562 H 0.33169 0.25393 0.41291 0.0
H6563 H 0.28599 0.19371 0.40013 0.0
H6564 H 0.25844 0.17133 0.40611 0.0
H6565 H 0.22761 0.21425 0.40093 0.0
H6566 H 0.25508 0.23696 0.39505 0.0
H6567 H 0.3002 0.23706 0.30775 0.0
H6568 H 0.30005 0.22692 0.3381 0.0
H6569 H 0.30922 0.28668 0.36534 0.0
H6570 H 0.30912 0.29674 0.33513 0.0
H6571 H 0.27785 0.2325 0.36676 0.0
H6572 H 0.3314 0.2949 0.3973 0.0
H6573 H 0.35915 0.31619 0.38997 0.0
H6574 H 0.3745 0.26681 0.3588 0.0
H6575 H 0.34662 0.24536 0.36566 0.0
C6576 C 0.2925 0.22601 0.45491 0.0
C6577 C 0.30312 0.21267 0.45756 0.0
C6578 C 0.29319 0.23429 0.43878 0.0
C6579 C 0.30478 0.22966 0.42521 0.0
C6580 C 0.31604 0.21711 0.42834 0.0
C6581 C 0.31504 0.20851 0.44419 0.0
C6582 C 0.30442 0.2368 0.4072 0.0
C6583 C 0.31984 0.24935 0.40293 0.0
C6584 C 0.2891 0.23074 0.39397 0.0
C6585 C 0.2726 0.2171 0.39741 0.0
C6586 C 0.27337 0.19844 0.40044 0.0
C6587 C 0.25776 0.18568 0.40378 0.0
C6588 C 0.24129 0.1914 0.40401 0.0
C6589 C 0.24039 0.20986 0.40081 0.0
C6590 C 0.25596 0.22267 0.39744 0.0
C6591 C 0.30213 0.24803 0.32018 0.0
C6592 C 0.30495 0.26777 0.31893 0.0
C6593 C 0.30213 0.24222 0.33756 0.0
C6594 C 0.305 0.25604 0.3541 0.0
C6595 C 0.30757 0.27575 0.35287 0.0
C6596 C 0.3076 0.28153 0.33551 0.0
C6597 C 0.30502 0.24981 0.37259 0.0
C6598 C 0.28958 0.23732 0.37689 0.0
C6599 C 0.32026 0.25594 0.38587 0.0
C6600 C 0.33703 0.26863 0.38194 0.0
C6601 C 0.34075 0.28864 0.38892 0.0
C6602 C 0.35643 0.30072 0.38477 0.0
C6603 C 0.36858 0.29285 0.37392 0.0
C6604 C 0.36505 0.27289 0.36714 0.0
C6605 C 0.34928 0.26079 0.37107 0.0
H6606 H 0.38073 0.30222 0.37076 0.0
H6607 H 0.22921 0.18151 0.40659 0.0
H6608 H 0.32393 0.60186 0.49473 0.0
H6609 H 0.35044 0.58953 0.50033 0.0
H6610 H 0.37356 0.64079 0.54124 0.0
H6611 H 0.34649 0.65357 0.53589 0.0
H6612 H 0.39624 0.62804 0.51238 0.0
H6613 H 0.36227 0.60406 0.55903 0.0
H6614 H 0.33476 0.58978 0.57261 0.0
H6615 H 0.328 0.53723 0.53248 0.0
H6616 H 0.3553 0.55128 0.51844 0.0
H6617 H 0.46191 0.57201 0.51132 0.0
H6618 H 0.44148 0.59125 0.5243 0.0
H6619 H 0.39607 0.54837 0.49464 0.0
H6620 H 0.41633 0.52786 0.48282 0.0
H6621 H 0.38877 0.56251 0.52864 0.0
H6622 H 0.41751 0.58888 0.47792 0.0
H6623 H 0.44302 0.60356 0.46173 0.0
H6624 H 0.45756 0.65215 0.50687 0.0
H6625 H 0.43255 0.63741 0.52366 0.0
C6626 C 0.33457 0.61072 0.5049 0.0
C6627 C 0.33308 0.62873 0.51493 0.0
C6628 C 0.34965 0.6035 0.50818 0.0
C6629 C 0.36358 0.61411 0.52147 0.0
C6630 C 0.36264 0.63239 0.53114 0.0
C6631 C 0.3473 0.63965 0.528 0.0
C6632 C 0.37935 0.60591 0.5241 0.0
C6633 C 0.39503 0.61404 0.51659 0.0
C6634 C 0.37725 0.58749 0.52921 0.0
C6635 C 0.3609 0.57875 0.53771 0.0
C6636 C 0.35489 0.58948 0.55304 0.0
C6637 C 0.33932 0.58142 0.56082 0.0
C6638 C 0.32965 0.5626 0.55342 0.0
C6639 C 0.33554 0.55179 0.53822 0.0
C6640 C 0.35109 0.55979 0.53038 0.0
C6641 C 0.44759 0.56628 0.5078 0.0
C6642 C 0.44082 0.54827 0.49587 0.0
C6643 C 0.43598 0.57752 0.51511 0.0
C6644 C 0.41745 0.57141 0.51008 0.0
C6645 C 0.41046 0.55334 0.49856 0.0
C6646 C 0.42206 0.54178 0.49158 0.0
C6647 C 0.40536 0.58424 0.51608 0.0
C6648 C 0.39041 0.57687 0.52517 0.0
C6649 C 0.40804 0.6033 0.51219 0.0
C6650 C 0.42333 0.61187 0.5022 0.0
C6651 C 0.42631 0.60255 0.48453 0.0
C6652 C 0.44067 0.61089 0.47523 0.0
C6653 C 0.45193 0.62875 0.48328 0.0
C6654 C 0.44885 0.6383 0.50066 0.0
C6655 C 0.43466 0.6299 0.51012 0.0
H6656 H 0.46306 0.63518 0.47608 0.0
H6657 H 0.3176 0.55639 0.55946 0.0
H6658 H 0.85635 0.94693 0.5491 0.0
H6659 H 0.88656 0.9667 0.5481 0.0
H6660 H 0.90359 0.91525 0.52338 0.0
H6661 H 0.87266 0.89651 0.52133 0.0
H6662 H 0.91596 0.97037 0.56328 0.0
H6663 H 0.9345 0.91782 0.51061 0.0
H6664 H 0.92594 0.89568 0.48027 0.0
H6665 H 0.90187 0.93788 0.45936 0.0
H6666 H 0.91047 0.96019 0.48972 0.0
H6667 H 0.01091 0.01189 0.56073 0.0
H6668 H 0.98141 0.99055 0.56259 0.0
H6669 H 0.96193 1.00233 0.51016 0.0
H6670 H 0.99162 0.02294 0.50804 0.0
H6671 H 0.95267 0.96557 0.50953 0.0
H6672 H 0.9495 0.02169 0.55557 0.0
H6673 H 0.96079 0.04589 0.58412 0.0
H6674 H 0.95675 1.00035 0.61609 0.0
H6675 H 0.94573 0.97588 0.58766 0.0
C6676 C 0.86631 0.9402 0.54229 0.0
C6677 C 0.8617 0.92054 0.53388 0.0
C6678 C 0.88386 0.95139 0.54218 0.0
C6679 C 0.89772 0.94297 0.53473 0.0
C6680 C 0.8933 0.92284 0.52773 0.0
C6681 C 0.87553 0.91189 0.527 0.0
C6682 C 0.91672 0.95515 0.53536 0.0
C6683 C 0.92383 0.96923 0.55139 0.0
C6684 C 0.92774 0.95378 0.5203 0.0
C6685 C 0.92193 0.94004 0.50262 0.0
C6686 C 0.92705 0.92214 0.49961 0.0
C6687 C 0.9223 0.90962 0.48244 0.0
C6688 C 0.913 0.91519 0.46801 0.0
C6689 C 0.90867 0.93339 0.47067 0.0
C6690 C 0.91328 0.94585 0.48789 0.0
C6691 C 1.00016 0.01016 0.54983 0.0
C6692 C 1.00338 0.01925 0.53439 0.0
C6693 C 0.98328 0.99795 0.55087 0.0
C6694 C 0.96918 0.99485 0.53661 0.0
C6695 C 0.97245 1.00435 0.52136 0.0
C6696 C 0.98937 0.01628 0.52021 0.0
C6697 C 0.95131 0.98117 0.53698 0.0
C6698 C 0.94463 0.96672 0.5213 0.0
C6699 C 0.94079 0.98221 0.55236 0.0
C6700 C 0.94692 0.99697 0.56948 0.0
C6701 C 0.95108 0.01685 0.56868 0.0
C6702 C 0.95744 0.03061 0.58484 0.0
C6703 C 0.95951 0.02466 0.6019 0.0
C6704 C 0.95515 1.00494 0.60286 0.0
C6705 C 0.94884 0.99113 0.58674 0.0
H6706 H 0.96446 0.03533 0.61439 0.0
H6707 H 0.90939 0.90553 0.45469 0.0
H6708 H 0.92967 0.13498 0.26452 0.0
H6709 H 0.91534 0.16265 0.26264 0.0
H6710 H 0.87095 0.13638 0.29056 0.0
H6711 H 0.88496 0.10926 0.29247 0.0
H6712 H 0.85508 0.15188 0.26881 0.0
H6713 H 0.90815 0.18225 0.30918 0.0
H6714 H 0.94059 0.19305 0.31987 0.0
H6715 H 0.94943 0.22352 0.27426 0.0
H6716 H 0.91704 0.2127 0.26316 0.0
H6717 H 0.82031 0.24321 0.2922 0.0
H6718 H 0.83333 0.21445 0.29325 0.0
H6719 H 0.86779 0.2304 0.25122 0.0
H6720 H 0.85363 0.2575 0.2488 0.0
H6721 H 0.88847 0.22044 0.28024 0.0
H6722 H 0.83525 0.18978 0.24022 0.0
H6723 H 0.80306 0.17759 0.22897 0.0
H6724 H 0.79454 0.14789 0.27511 0.0
H6725 H 0.82672 0.15995 0.2867 0.0
C6726 C 0.91692 0.13497 0.27041 0.0
C6727 C 0.90905 0.11903 0.27884 0.0
C6728 C 0.90851 0.15124 0.26942 0.0
C6729 C 0.89156 0.1527 0.2766 0.0
C6730 C 0.88376 0.13663 0.28472 0.0
C6731 C 0.89216 0.12068 0.28591 0.0
C6732 C 0.88175 0.17018 0.27569 0.0
C6733 C 0.86265 0.16681 0.2717 0.0
C6734 C 0.89069 0.19035 0.27893 0.0
C6735 C 0.91022 0.19645 0.2852 0.0
C6736 C 0.91704 0.19108 0.30131 0.0
C6737 C 0.93541 0.19724 0.30747 0.0
C6738 C 0.94708 0.20891 0.29771 0.0
C6739 C 0.94039 0.21444 0.28178 0.0
C6740 C 0.92202 0.20829 0.27554 0.0
C6741 C 0.82977 0.24009 0.2823 0.0
C6742 C 0.83457 0.25285 0.26948 0.0
C6743 C 0.83782 0.22356 0.28325 0.0
C6744 C 0.85201 0.21932 0.27226 0.0
C6745 C 0.85707 0.23242 0.25998 0.0
C6746 C 0.84861 0.24826 0.25854 0.0
C6747 C 0.86188 0.20205 0.27356 0.0
C6748 C 0.88096 0.20549 0.27754 0.0
C6749 C 0.85291 0.18196 0.27048 0.0
C6750 C 0.83335 0.17593 0.26443 0.0
C6751 C 0.82647 0.18087 0.24812 0.0
C6752 C 0.80826 0.17383 0.24157 0.0
C6753 C 0.7968 0.16184 0.25122 0.0
C6754 C 0.80347 0.15707 0.26758 0.0
C6755 C 0.82169 0.164 0.27414 0.0
H6756 H 0.7827 0.15642 0.24612 0.0
H6757 H 0.96128 0.2137 0.30253 0.0
H6758 H 0.7282 0.15507 0.0119 0.0
H6759 H 0.69864 0.13789 0.01935 0.0
H6760 H 0.72432 0.09811 0.04315 0.0
H6761 H 0.75372 0.11556 0.03635 0.0
H6762 H 0.69608 0.08133 0.01486 0.0
H6763 H 0.70851 0.12769 0.07157 0.0
H6764 H 0.71707 0.1607 0.09028 0.0
H6765 H 0.67057 0.17509 0.06508 0.0
H6766 H 0.6619 0.1423 0.04596 0.0
H6767 H 0.6071 0.03108 0.01763 0.0
H6768 H 0.63908 0.04536 0.02732 0.0
H6769 H 0.62822 0.10272 0.0309 0.0
H6770 H 0.59613 0.08826 0.02426 0.0
H6771 H 0.65248 0.10753 0.05356 0.0
H6772 H 0.64533 0.07136 0.9901 0.0
H6773 H 0.63681 0.04238 0.96543 0.0
H6774 H 0.67253 0.01471 0.99317 0.0
H6775 H 0.68097 0.04349 0.01826 0.0
C6776 C 0.72739 0.14267 0.01873 0.0
C6777 C 0.74288 0.13598 0.02286 0.0
C6778 C 0.71068 0.13307 0.02315 0.0
C6779 C 0.70951 0.11693 0.03192 0.0
C6780 C 0.72509 0.11061 0.03646 0.0
C6781 C 0.74173 0.1203 0.03223 0.0
C6782 C 0.69181 0.1053 0.03437 0.0
C6783 C 0.68649 0.08693 0.02327 0.0
C6784 C 0.67953 0.1129 0.0455 0.0
C6785 C 0.68458 0.13251 0.05729 0.0
C6786 C 0.70016 0.13792 0.06993 0.0
C6787 C 0.70503 0.1566 0.08062 0.0
C6788 C 0.69438 0.16998 0.07887 0.0
C6789 C 0.67881 0.16471 0.06644 0.0
C6790 C 0.67389 0.14606 0.0557 0.0
C6791 C 0.61174 0.04672 0.02086 0.0
C6792 C 0.59954 0.05873 0.02048 0.0
C6793 C 0.62998 0.05492 0.0261 0.0
C6794 C 0.63635 0.07521 0.02929 0.0
C6795 C 0.62385 0.08708 0.02876 0.0
C6796 C 0.60554 0.07887 0.02476 0.0
C6797 C 0.65593 0.08426 0.03206 0.0
C6798 C 0.66186 0.10189 0.04473 0.0
C6799 C 0.66858 0.07669 0.02121 0.0
C6800 C 0.66352 0.0594 0.00618 0.0
C6801 C 0.65126 0.05903 0.99098 0.0
C6802 C 0.64646 0.04263 0.97692 0.0
C6803 C 0.65408 0.02664 0.97772 0.0
C6804 C 0.66657 0.02706 0.99259 0.0
C6805 C 0.67134 0.04339 0.00676 0.0
H6806 H 0.65037 0.01394 0.96682 0.0
H6807 H 0.69817 0.18444 0.08715 0.0
H6808 H 0.20879 0.49388 0.22706 0.0
H6809 H 0.22263 0.46596 0.22751 0.0
H6810 H 0.21736 0.47072 0.2864 0.0
H6811 H 0.20379 0.49861 0.28602 0.0
H6812 H 0.25429 0.4826 0.27037 0.0
H6813 H 0.19903 0.43295 0.26769 0.0
H6814 H 0.16949 0.4141 0.25235 0.0
H6815 H 0.19513 0.39279 0.20487 0.0
H6816 H 0.22483 0.41184 0.21982 0.0
H6817 H 0.29793 0.42153 0.31151 0.0
H6818 H 0.27587 0.43887 0.30117 0.0
H6819 H 0.27925 0.41369 0.24402 0.0
H6820 H 0.30165 0.39676 0.25415 0.0
H6821 H 0.2436 0.41092 0.25365 0.0
H6822 H 0.29874 0.45775 0.25649 0.0
H6823 H 0.32855 0.47744 0.27025 0.0
H6824 H 0.30374 0.50526 0.31519 0.0
H6825 H 0.27379 0.48547 0.30187 0.0
C6826 C 0.20967 0.48815 0.23979 0.0
C6827 C 0.20548 0.49809 0.25655 0.0
C6828 C 0.21752 0.47233 0.24003 0.0
C6829 C 0.22091 0.46658 0.25699 0.0
C6830 C 0.2146 0.47504 0.27323 0.0
C6831 C 0.20693 0.49088 0.27302 0.0
C6832 C 0.23498 0.45596 0.259 0.0
C6833 C 0.252 0.46691 0.26684 0.0
C6834 C 0.23189 0.43573 0.25358 0.0
C6835 C 0.21412 0.42397 0.24479 0.0
C6836 C 0.19836 0.42439 0.25391 0.0
C6837 C 0.18159 0.41365 0.2453 0.0
C6838 C 0.18043 0.40229 0.22762 0.0
C6839 C 0.19605 0.40162 0.21855 0.0
C6840 C 0.21286 0.41237 0.22709 0.0
C6841 C 0.29429 0.4201 0.29675 0.0
C6842 C 0.30144 0.40791 0.28363 0.0
C6843 C 0.28159 0.42976 0.29089 0.0
C6844 C 0.27603 0.42733 0.27189 0.0
C6845 C 0.28338 0.4155 0.25873 0.0
C6846 C 0.29618 0.406 0.26455 0.0
C6847 C 0.2627 0.43752 0.26585 0.0
C6848 C 0.24595 0.42661 0.25703 0.0
C6849 C 0.26604 0.45791 0.27021 0.0
C6850 C 0.28402 0.47002 0.27823 0.0
C6851 C 0.29965 0.46796 0.26938 0.0
C6852 C 0.31657 0.47915 0.27709 0.0
C6853 C 0.31804 0.49257 0.2936 0.0
C6854 C 0.30258 0.49485 0.3024 0.0
C6855 C 0.28562 0.48366 0.29477 0.0
H6856 H 0.33116 0.50124 0.29954 0.0
H6857 H 0.16743 0.39398 0.22097 0.0
H6858 H 0.27021 0.427 0.05875 0.0
H6859 H 0.24369 0.44144 0.05775 0.0
H6860 H 0.23197 0.41687 0.9993 0.0
H6861 H 0.25867 0.40294 1.00029 0.0
H6862 H 0.23347 0.45394 1.00446 0.0
H6863 H 0.20392 0.40207 0.03398 0.0
H6864 H 0.20031 0.38176 0.05818 0.0
H6865 H 0.20148 0.43204 0.09972 0.0
H6866 H 0.20535 0.45269 0.07579 0.0
H6867 H 0.15491 0.48563 0.98603 0.0
H6868 H 0.1748 0.46384 0.99097 0.0
H6869 H 0.18353 0.48912 0.04942 0.0
H6870 H 0.16284 0.51034 0.04453 0.0
H6871 H 0.18358 0.45212 0.0455 0.0
H6872 H 0.2139 0.50409 0.01719 0.0
H6873 H 0.21807 0.52533 0.99378 0.0
H6874 H 0.21661 0.47604 0.95096 0.0
H6875 H 0.21219 0.45448 0.97409 0.0
C6876 C 0.26147 0.42403 0.04593 0.0
C6877 C 0.26613 0.41343 0.02971 0.0
C6878 C 0.24637 0.43238 0.04531 0.0
C6879 C 0.23568 0.43021 0.02845 0.0
C6880 C 0.23991 0.41875 0.01248 0.0
C6881 C 0.25503 0.41057 0.01309 0.0
C6882 C 0.22137 0.44143 0.02683 0.0
C6883 C 0.2224 0.45322 0.01325 0.0
C6884 C 0.2073 0.44128 0.03877 0.0
C6885 C 0.20512 0.42892 0.05314 0.0
C6886 C 0.20358 0.40881 0.04831 0.0
C6887 C 0.20145 0.39724 0.06196 0.0
C6888 C 0.20072 0.40561 0.08048 0.0
C6889 C 0.20208 0.42558 0.08538 0.0
C6890 C 0.20423 0.43721 0.07178 0.0
C6891 C 0.16079 0.48619 0.99998 0.0
C6892 C 0.15748 0.49966 0.01489 0.0
C6893 C 0.17229 0.47388 1.00279 0.0
C6894 C 0.18117 0.47522 0.02047 0.0
C6895 C 0.177 0.4879 0.03561 0.0
C6896 C 0.16518 0.5 0.03285 0.0
C6897 C 0.19549 0.4642 0.02284 0.0
C6898 C 0.1946 0.45268 0.03665 0.0
C6899 C 0.20985 0.46472 0.01124 0.0
C6900 C 0.21257 0.47767 0.99734 0.0
C6901 C 0.21435 0.49778 1.00276 0.0
C6902 C 0.21677 0.50987 0.98955 0.0
C6903 C 0.21757 0.50203 0.97089 0.0
C6904 C 0.21598 0.48209 0.96541 0.0
C6905 C 0.21353 0.46993 0.97857 0.0
H6906 H 0.21944 0.51142 0.96068 0.0
H6907 H 0.19905 0.39662 0.09104 0.0
H6908 H 0.88508 0.01722 0.2603 0.0
H6909 H 0.86834 0.98405 0.26078 0.0
H6910 H 0.91709 0.97114 0.28299 0.0
H6911 H 0.93301 1.00467 0.28442 0.0
H6912 H 0.86558 0.95067 0.24538 0.0
H6913 H 0.91701 0.93798 0.29477 0.0
H6914 H 0.93575 0.95145 0.32462 0.0
H6915 H 0.89247 0.97552 0.34662 0.0
H6916 H 0.87362 0.96209 0.31678 0.0
H6917 H 0.85663 0.84564 0.26846 0.0
H6918 H 0.87307 0.87908 0.26893 0.0
H6919 H 0.82288 0.89766 0.26927 0.0
H6920 H 0.80638 0.86423 0.26822 0.0
H6921 H 0.87496 0.91418 0.29552 0.0
H6922 H 0.82146 0.92017 0.24847 0.0
H6923 H 0.80227 0.90339 0.21966 0.0
H6924 H 0.84893 0.89034 0.19427 0.0
H6925 H 0.86823 0.90647 0.22319 0.0
C6926 C 0.89203 0.00759 0.26617 0.0
C6927 C 0.91034 0.01446 0.27339 0.0
C6928 C 0.88244 0.98817 0.26611 0.0
C6929 C 0.89076 0.97427 0.27271 0.0
C6930 C 0.90937 0.98104 0.279 0.0
C6931 C 0.91881 1.00053 0.27945 0.0
C6932 C 0.88036 0.95287 0.27198 0.0
C6933 C 0.86762 0.94313 0.25669 0.0
C6934 C 0.88277 0.9416 0.28598 0.0
C6935 C 0.89434 0.95005 0.30342 0.0
C6936 C 0.91166 0.9464 0.30594 0.0
C6937 C 0.92227 0.95396 0.32282 0.0
C6938 C 0.91543 0.96464 0.33741 0.0
C6939 C 0.8979 0.96758 0.3352 0.0
C6940 C 0.88735 0.96022 0.31827 0.0
C6941 C 0.8489 0.85669 0.26837 0.0
C6942 C 0.82979 0.85156 0.26804 0.0
C6943 C 0.85849 0.8761 0.26868 0.0
C6944 C 0.84951 0.89147 0.26862 0.0
C6945 C 0.83047 0.88643 0.26854 0.0
C6946 C 0.82087 0.867 0.26811 0.0
C6947 C 0.86002 0.91259 0.26937 0.0
C6948 C 0.87288 0.92203 0.28444 0.0
C6949 C 0.85771 0.92354 0.25527 0.0
C6950 C 0.84616 0.91424 0.23796 0.0
C6951 C 0.82755 0.91357 0.23677 0.0
C6952 C 0.81667 0.90414 0.22046 0.0
C6953 C 0.82437 0.89575 0.20516 0.0
C6954 C 0.84297 0.89674 0.20616 0.0
C6955 C 0.85385 0.90591 0.22253 0.0
H6956 H 0.81594 0.88853 0.19252 0.0
H6957 H 0.92362 0.97044 0.35049 0.0
H6958 H 0.73605 0.08598 0.75064 0.0
H6959 H 0.75398 0.11914 0.75462 0.0
H6960 H 0.71352 0.13982 0.78633 0.0
H6961 H 0.69603 0.10628 0.78341 0.0
H6962 H 0.72715 0.14781 0.74312 0.0
H6963 H 0.73743 0.16148 0.81072 0.0
H6964 H 0.74873 0.16301 0.84331 0.0
H6965 H 0.80141 0.16001 0.82636 0.0
H6966 H 0.79039 0.15847 0.79372 0.0
H6967 H 0.76186 0.25056 0.76077 0.0
H6968 H 0.74666 0.21635 0.75372 0.0
H6969 H 0.79785 0.20083 0.7637 0.0
H6970 H 0.81234 0.23511 0.77347 0.0
H6971 H 0.77713 0.19015 0.78682 0.0
H6972 H 0.76387 0.17761 0.71664 0.0
H6973 H 0.75107 0.18413 0.68714 0.0
H6974 H 0.70246 0.191 0.712 0.0
H6975 H 0.71459 0.18358 0.74125 0.0
C6976 C 0.73148 0.0975 0.75926 0.0
C6977 C 0.71514 0.09373 0.76736 0.0
C6978 C 0.74167 0.11635 0.7615 0.0
C6979 C 0.73524 0.13165 0.77124 0.0
C6980 C 0.71891 0.12798 0.77939 0.0
C6981 C 0.70888 0.10899 0.77749 0.0
C6982 C 0.74348 0.15129 0.76897 0.0
C6983 C 0.73812 0.1572 0.75265 0.0
C6984 C 0.75767 0.16325 0.78136 0.0
C6985 C 0.76295 0.15927 0.79976 0.0
C6986 C 0.75123 0.16043 0.81388 0.0
C6987 C 0.75768 0.1617 0.8324 0.0
C6988 C 0.77579 0.16169 0.83687 0.0
C6989 C 0.7874 0.16003 0.82285 0.0
C6990 C 0.78104 0.15888 0.80436 0.0
C6991 C 0.7698 0.23968 0.76096 0.0
C6992 C 0.78816 0.24506 0.76732 0.0
C6993 C 0.76122 0.22015 0.75651 0.0
C6994 C 0.77113 0.20595 0.75794 0.0
C6995 C 0.78995 0.21157 0.76249 0.0
C6996 C 0.79823 0.23103 0.76811 0.0
C6997 C 0.76171 0.18649 0.76032 0.0
C6998 C 0.76663 0.18063 0.77683 0.0
C6999 C 0.74693 0.17483 0.74826 0.0
C7000 C 0.74023 0.18038 0.73112 0.0
C7001 C 0.75052 0.18067 0.7158 0.0
C7002 C 0.74333 0.18437 0.69911 0.0
C7003 C 0.72612 0.18829 0.69781 0.0
C7004 C 0.71586 0.18813 0.71306 0.0
C7005 C 0.72279 0.18398 0.72961 0.0
H7006 H 0.72067 0.19131 0.68492 0.0
H7007 H 0.78088 0.16292 0.85114 0.0
loop_
_geom_bond_atom_site_label_1
_geom_bond_atom_site_label_2
_geom_bond_distance
_geom_bond_site_symmetry_2
_ccdc_geom_bond_type
Mn0 O5 2.095 . S
Mn0 O15 2.162 . S
Mn0 O16 2.297 . S
Mn0 O24 2.385 . S
Mn0 O25 2.209 . S
Mn0 O26 2.094 . S
Mn1 O6 2.121 . S
Mn1 N8 2.257 . S
Mn1 N17 2.282 . S
Mn1 O25 2.215 . S
Mn1 O27 2.117 . S
C2 O24 1.234 . S
C2 O25 1.283 . S
C3 O15 1.281 . S
C3 O16 1.236 . S
C4 O26 1.240 . S
C4 O27 1.264 . S
O5 Mn0 2.095 . S
O5 C14 1.250 . S
O6 Mn1 2.121 . S
O6 C14 1.258 . S
C7 N8 1.326 . S
C7 C11 1.460 . S
C7 H13 0.929 . S
N8 Mn1 2.257 . S
N8 C7 1.326 . S
N8 C12 1.362 . S
C9 C10 1.258 . S
C9 C12 1.431 . S
C9 C29 1.449 . S
C10 C9 1.258 . S
C10 C11 1.477 . S
C10 H30 0.931 . S
C11 C7 1.460 . S
C11 C10 1.477 . S
C11 H31 0.930 . S
C12 N8 1.362 . S
C12 C9 1.431 . S
C12 C22 1.476 . S
H13 C7 0.929 . S
C14 O5 1.250 . S
C14 O6 1.258 . S
O15 Mn0 2.162 . S
O15 C3 1.281 . S
O16 Mn0 2.297 . S
O16 C3 1.236 . S
N17 Mn1 2.282 . S
N17 C18 1.328 . S
N17 C22 1.318 . S
C18 N17 1.328 . S
C18 C19 1.457 . S
C18 H23 0.929 . S
C19 C18 1.457 . S
C19 C20 1.291 . S
C19 H32 0.931 . S
C20 C19 1.291 . S
C20 C21 1.373 . S
C20 H33 0.929 . S
C21 C20 1.373 . S
C21 C22 1.396 . S
C21 C28 1.403 . S
C22 C12 1.476 . S
C22 N17 1.318 . S
C22 C21 1.396 . S
H23 C18 0.929 . S
O24 Mn0 2.385 . S
O24 C2 1.234 . S
O25 Mn0 2.209 . S
O25 Mn1 2.215 . S
O25 C2 1.283 . S
O26 Mn0 2.094 . S
O26 C4 1.240 . S
O27 Mn1 2.117 . S
O27 C4 1.264 . S
C28 C21 1.403 . S
C28 C29 1.399 . S
C28 H34 0.929 . S
C29 C9 1.449 . S
C29 C28 1.399 . S
C29 H35 0.930 . S
H30 C10 0.931 . S
H31 C11 0.930 . S
H32 C19 0.931 . S
H33 C20 0.929 . S
H34 C28 0.929 . S
H35 C29 0.930 . S
Mn36 O41 2.058 1_455 S
Mn36 O51 2.164 1_455 S
Mn36 O52 2.302 1_455 S
Mn36 O60 2.424 . S
Mn36 O61 2.225 . S
Mn36 O62 2.091 . S
Mn37 O42 2.121 1_455 S
Mn37 N44 2.257 . S
Mn37 N53 2.282 . S
Mn37 O61 2.215 . S
Mn37 O63 2.117 . S
C38 O60 1.234 . S
C38 O61 1.283 . S
C39 O51 1.281 . S
C39 O52 1.236 . S
C40 O62 1.240 . S
C40 O63 1.264 . S
O41 Mn36 2.058 1_655 S
O41 C50 1.250 . S
O42 Mn37 2.121 1_655 S
O42 C50 1.258 . S
C43 N44 1.326 . S
C43 C47 1.460 . S
C43 H49 0.929 1_455 S
N44 Mn37 2.257 . S
N44 C43 1.326 . S
N44 C48 1.362 . S
C45 C46 1.258 . S
C45 C48 1.431 . S
C45 C65 1.449 . S
C46 C45 1.258 . S
C46 C47 1.477 . S
C46 H66 0.931 . S
C47 C43 1.460 . S
C47 C46 1.477 . S
C47 H67 0.930 . S
C48 N44 1.362 . S
C48 C45 1.431 . S
C48 C58 1.476 . S
H49 C43 0.929 1_655 S
C50 O41 1.250 . S
C50 O42 1.258 . S
O51 Mn36 2.164 1_655 S
O51 C39 1.281 . S
O52 Mn36 2.302 1_655 S
O52 C39 1.236 . S
N53 Mn37 2.282 . S
N53 C54 1.328 . S
N53 C58 1.318 . S
C54 N53 1.328 . S
C54 C55 1.457 . S
C54 H59 0.929 . S
C55 C54 1.457 . S
C55 C56 1.291 . S
C55 H68 0.931 . S
C56 C55 1.291 . S
C56 C57 1.373 . S
C56 H69 0.929 . S
C57 C56 1.373 . S
C57 C58 1.396 . S
C57 C64 1.403 . S
C58 C48 1.476 . S
C58 N53 1.318 . S
C58 C57 1.396 . S
H59 C54 0.929 . S
O60 Mn36 2.424 . S
O60 C38 1.234 . S
O61 Mn36 2.225 . S
O61 Mn37 2.215 . S
O61 C38 1.283 . S
O62 Mn36 2.091 . S
O62 C40 1.240 . S
O63 Mn37 2.117 . S
O63 C40 1.264 . S
C64 C57 1.403 . S
C64 C65 1.399 . S
C64 H70 0.929 . S
C65 C45 1.449 . S
C65 C64 1.399 . S
C65 H71 0.930 . S
H66 C46 0.931 . S
H67 C47 0.930 . S
H68 C55 0.931 . S
H69 C56 0.929 . S
H70 C64 0.929 . S
H71 C65 0.930 . S
Mn72 O77 2.095 . S
Mn72 O87 2.162 . S
Mn72 O88 2.297 . S
Mn72 O96 2.385 . S
Mn72 O97 2.209 . S
Mn72 O98 2.094 . S
Mn73 O78 2.121 . S
Mn73 N80 2.257 . S
Mn73 N89 2.282 . S
Mn73 O97 2.215 . S
Mn73 O99 2.117 . S
C74 O96 1.234 . S
C74 O97 1.283 . S
C75 O87 1.281 . S
C75 O88 1.236 . S
C76 O98 1.240 . S
C76 O99 1.264 . S
O77 Mn72 2.095 . S
O77 C86 1.250 . S
O78 Mn73 2.121 . S
O78 C86 1.258 . S
C79 N80 1.326 . S
C79 C83 1.460 . S
C79 H85 0.929 . S
N80 Mn73 2.257 . S
N80 C79 1.326 . S
N80 C84 1.362 . S
C81 C82 1.258 . S
C81 C84 1.431 . S
C81 C101 1.449 . S
C82 C81 1.258 . S
C82 C83 1.477 . S
C82 H102 0.931 . S
C83 C79 1.460 . S
C83 C82 1.477 . S
C83 H103 0.930 . S
C84 N80 1.362 . S
C84 C81 1.431 . S
C84 C94 1.476 . S
H85 C79 0.929 . S
C86 O77 1.250 . S
C86 O78 1.258 . S
O87 Mn72 2.162 . S
O87 C75 1.281 . S
O88 Mn72 2.297 . S
O88 C75 1.236 . S
N89 Mn73 2.282 . S
N89 C90 1.328 . S
N89 C94 1.318 . S
C90 N89 1.328 . S
C90 C91 1.457 . S
C90 H95 0.929 . S
C91 C90 1.457 . S
C91 C92 1.291 . S
C91 H104 0.931 . S
C92 C91 1.291 . S
C92 C93 1.373 . S
C92 H105 0.929 . S
C93 C92 1.373 . S
C93 C94 1.396 . S
C93 C100 1.403 . S
C94 C84 1.476 . S
C94 N89 1.318 . S
C94 C93 1.396 . S
H95 C90 0.929 . S
O96 Mn72 2.385 . S
O96 C74 1.234 . S
O97 Mn72 2.209 . S
O97 Mn73 2.215 . S
O97 C74 1.283 . S
O98 Mn72 2.094 . S
O98 C76 1.240 . S
O99 Mn73 2.117 . S
O99 C76 1.264 . S
C100 C93 1.403 . S
C100 C101 1.399 . S
C100 H106 0.929 . S
C101 C81 1.449 . S
C101 C100 1.399 . S
C101 H107 0.930 . S
H102 C82 0.931 . S
H103 C83 0.930 . S
H104 C91 0.931 . S
H105 C92 0.929 . S
H106 C100 0.929 . S
H107 C101 0.930 . S
Mn108 O113 2.095 . S
Mn108 O123 2.162 . S
Mn108 O124 2.297 . S
Mn108 O132 2.385 . S
Mn108 O133 2.209 . S
Mn108 O134 2.094 . S
Mn109 O114 2.121 . S
Mn109 N116 2.257 . S
Mn109 N125 2.282 . S
Mn109 O133 2.215 . S
Mn109 O135 2.117 . S
C110 O132 1.234 . S
C110 O133 1.283 . S
C111 O123 1.281 . S
C111 O124 1.236 . S
C112 O134 1.240 . S
C112 O135 1.264 . S
O113 Mn108 2.095 . S
O113 C122 1.250 . S
O114 Mn109 2.121 . S
O114 C122 1.258 . S
C115 N116 1.326 . S
C115 C119 1.460 . S
C115 H121 0.929 . S
N116 Mn109 2.257 . S
N116 C115 1.326 . S
N116 C120 1.362 . S
C117 C118 1.258 . S
C117 C120 1.431 . S
C117 C137 1.449 . S
C118 C117 1.258 . S
C118 C119 1.477 . S
C118 H138 0.931 . S
C119 C115 1.460 . S
C119 C118 1.477 . S
C119 H139 0.930 . S
C120 N116 1.362 . S
C120 C117 1.431 . S
C120 C130 1.476 . S
H121 C115 0.929 . S
C122 O113 1.250 . S
C122 O114 1.258 . S
O123 Mn108 2.162 . S
O123 C111 1.281 . S
O124 Mn108 2.297 . S
O124 C111 1.236 . S
N125 Mn109 2.282 . S
N125 C126 1.328 . S
N125 C130 1.318 . S
C126 N125 1.328 . S
C126 C127 1.457 . S
C126 H131 0.929 . S
C127 C126 1.457 . S
C127 C128 1.291 . S
C127 H140 0.931 . S
C128 C127 1.291 . S
C128 C129 1.373 . S
C128 H141 0.929 . S
C129 C128 1.373 . S
C129 C130 1.396 . S
C129 C136 1.403 . S
C130 C120 1.476 . S
C130 N125 1.318 . S
C130 C129 1.396 . S
H131 C126 0.929 . S
O132 Mn108 2.385 . S
O132 C110 1.234 . S
O133 Mn108 2.209 . S
O133 Mn109 2.215 . S
O133 C110 1.283 . S
O134 Mn108 2.094 . S
O134 C112 1.240 . S
O135 Mn109 2.117 . S
O135 C112 1.264 . S
C136 C129 1.403 . S
C136 C137 1.399 . S
C136 H142 0.929 . S
C137 C117 1.449 . S
C137 C136 1.399 . S
C137 H143 0.930 . S
H138 C118 0.931 . S
H139 C119 0.930 . S
H140 C127 0.931 . S
H141 C128 0.929 . S
H142 C136 0.929 . S
H143 C137 0.930 . S
Mn144 O149 2.095 . S
Mn144 O159 2.162 . S
Mn144 O160 2.297 . S
Mn144 O168 2.385 . S
Mn144 O169 2.209 . S
Mn144 O170 2.094 . S
Mn145 O150 2.121 . S
Mn145 N152 2.257 . S
Mn145 N161 2.282 . S
Mn145 O169 2.215 . S
Mn145 O171 2.117 . S
C146 O168 1.234 . S
C146 O169 1.283 . S
C147 O159 1.281 . S
C147 O160 1.236 . S
C148 O170 1.240 . S
C148 O171 1.264 . S
O149 Mn144 2.095 . S
O149 C158 1.250 . S
O150 Mn145 2.121 . S
O150 C158 1.258 . S
C151 N152 1.326 . S
C151 C155 1.460 . S
C151 H157 0.929 . S
N152 Mn145 2.257 . S
N152 C151 1.326 . S
N152 C156 1.362 . S
C153 C154 1.258 . S
C153 C156 1.431 . S
C153 C173 1.449 . S
C154 C153 1.258 . S
C154 C155 1.477 . S
C154 H174 0.931 1_554 S
C155 C151 1.460 . S
C155 C154 1.477 . S
C155 H175 0.930 . S
C156 N152 1.362 . S
C156 C153 1.431 . S
C156 C166 1.476 . S
H157 C151 0.929 . S
C158 O149 1.250 . S
C158 O150 1.258 . S
O159 Mn144 2.162 . S
O159 C147 1.281 . S
O160 Mn144 2.297 . S
O160 C147 1.236 . S
N161 Mn145 2.282 . S
N161 C162 1.328 . S
N161 C166 1.318 . S
C162 N161 1.328 . S
C162 C163 1.457 . S
C162 H167 0.929 . S
C163 C162 1.457 . S
C163 C164 1.291 . S
C163 H176 0.931 . S
C164 C163 1.291 . S
C164 C165 1.373 . S
C164 H177 0.929 . S
C165 C164 1.373 . S
C165 C166 1.396 . S
C165 C172 1.403 . S
C166 C156 1.476 . S
C166 N161 1.318 . S
C166 C165 1.396 . S
H167 C162 0.929 . S
O168 Mn144 2.385 . S
O168 C146 1.234 . S
O169 Mn144 2.209 . S
O169 Mn145 2.215 . S
O169 C146 1.283 . S
O170 Mn144 2.094 . S
O170 C148 1.240 . S
O171 Mn145 2.117 . S
O171 C148 1.264 . S
C172 C165 1.403 . S
C172 C173 1.399 . S
C172 H178 0.929 . S
C173 C153 1.449 . S
C173 C172 1.399 . S
C173 H179 0.930 1_554 S
H174 C154 0.931 1_556 S
H175 C155 0.930 . S
H176 C163 0.931 . S
H177 C164 0.929 . S
H178 C172 0.929 . S
H179 C173 0.930 1_556 S
Mn180 O185 2.095 . S
Mn180 O195 2.162 . S
Mn180 O196 2.297 . S
Mn180 O204 2.385 . S
Mn180 O205 2.209 . S
Mn180 O206 2.094 . S
Mn181 O186 2.121 . S
Mn181 N188 2.257 . S
Mn181 N197 2.282 . S
Mn181 O205 2.215 . S
Mn181 O207 2.117 . S
C182 O204 1.234 . S
C182 O205 1.283 . S
C183 O195 1.281 . S
C183 O196 1.236 . S
C184 O206 1.240 . S
C184 O207 1.264 . S
O185 Mn180 2.095 . S
O185 C194 1.250 . S
O186 Mn181 2.121 . S
O186 C194 1.258 . S
C187 N188 1.326 . S
C187 C191 1.460 . S
C187 H193 0.929 . S
N188 Mn181 2.257 . S
N188 C187 1.326 . S
N188 C192 1.362 . S
C189 C190 1.258 . S
C189 C192 1.431 . S
C189 C209 1.449 . S
C190 C189 1.258 . S
C190 C191 1.477 . S
C190 H210 0.931 . S
C191 C187 1.460 . S
C191 C190 1.477 . S
C191 H211 0.930 . S
C192 N188 1.362 . S
C192 C189 1.431 . S
C192 C202 1.476 . S
H193 C187 0.929 . S
C194 O185 1.250 . S
C194 O186 1.258 . S
O195 Mn180 2.162 . S
O195 C183 1.281 . S
O196 Mn180 2.297 . S
O196 C183 1.236 . S
N197 Mn181 2.282 . S
N197 C198 1.328 . S
N197 C202 1.318 . S
C198 N197 1.328 . S
C198 C199 1.457 . S
C198 H203 0.929 . S
C199 C198 1.457 . S
C199 C200 1.291 . S
C199 H212 0.931 . S
C200 C199 1.291 . S
C200 C201 1.373 . S
C200 H213 0.929 . S
C201 C200 1.373 . S
C201 C202 1.396 . S
C201 C208 1.403 . S
C202 C192 1.476 . S
C202 N197 1.318 . S
C202 C201 1.396 . S
H203 C198 0.929 . S
O204 Mn180 2.385 . S
O204 C182 1.234 . S
O205 Mn180 2.209 . S
O205 Mn181 2.215 . S
O205 C182 1.283 . S
O206 Mn180 2.094 . S
O206 C184 1.240 . S
O207 Mn181 2.117 . S
O207 C184 1.264 . S
C208 C201 1.403 . S
C208 C209 1.399 . S
C208 H214 0.929 . S
C209 C189 1.449 . S
C209 C208 1.399 . S
C209 H215 0.930 . S
H210 C190 0.931 . S
H211 C191 0.930 . S
H212 C199 0.931 . S
H213 C200 0.929 . S
H214 C208 0.929 . S
H215 C209 0.930 . S
Mn216 O221 2.095 . S
Mn216 O231 2.162 . S
Mn216 O232 2.297 . S
Mn216 O240 2.385 . S
Mn216 O241 2.209 . S
Mn216 O242 2.094 . S
Mn217 O222 2.121 . S
Mn217 N224 2.257 . S
Mn217 N233 2.282 . S
Mn217 O241 2.215 . S
Mn217 O243 2.117 . S
C218 O240 1.234 . S
C218 O241 1.283 . S
C219 O231 1.281 . S
C219 O232 1.236 . S
C220 O242 1.240 . S
C220 O243 1.264 . S
O221 Mn216 2.095 . S
O221 C230 1.250 . S
O222 Mn217 2.121 . S
O222 C230 1.258 . S
C223 N224 1.326 . S
C223 C227 1.460 . S
C223 H229 0.929 . S
N224 Mn217 2.257 . S
N224 C223 1.326 . S
N224 C228 1.362 . S
C225 C226 1.258 . S
C225 C228 1.431 . S
C225 C245 1.449 . S
C226 C225 1.258 . S
C226 C227 1.477 . S
C226 H246 0.931 . S
C227 C223 1.460 . S
C227 C226 1.477 . S
C227 H247 0.930 . S
C228 N224 1.362 . S
C228 C225 1.431 . S
C228 C238 1.476 . S
H229 C223 0.929 . S
C230 O221 1.250 . S
C230 O222 1.258 . S
O231 Mn216 2.162 . S
O231 C219 1.281 . S
O232 Mn216 2.297 . S
O232 C219 1.236 . S
N233 Mn217 2.282 . S
N233 C234 1.328 . S
N233 C238 1.318 . S
C234 N233 1.328 . S
C234 C235 1.457 . S
C234 H239 0.929 . S
C235 C234 1.457 . S
C235 C236 1.291 . S
C235 H248 0.931 . S
C236 C235 1.291 . S
C236 C237 1.373 . S
C236 H249 0.929 . S
C237 C236 1.373 . S
C237 C238 1.396 . S
C237 C244 1.403 . S
C238 C228 1.476 . S
C238 N233 1.318 . S
C238 C237 1.396 . S
H239 C234 0.929 . S
O240 Mn216 2.385 . S
O240 C218 1.234 . S
O241 Mn216 2.209 . S
O241 Mn217 2.215 . S
O241 C218 1.283 . S
O242 Mn216 2.094 . S
O242 C220 1.240 . S
O243 Mn217 2.117 . S
O243 C220 1.264 . S
C244 C237 1.403 . S
C244 C245 1.399 . S
C244 H250 0.929 . S
C245 C225 1.449 . S
C245 C244 1.399 . S
C245 H251 0.930 . S
H246 C226 0.931 . S
H247 C227 0.930 . S
H248 C235 0.931 . S
H249 C236 0.929 . S
H250 C244 0.929 . S
H251 C245 0.930 . S
Mn252 O257 2.095 . S
Mn252 O267 2.162 . S
Mn252 O268 2.297 . S
Mn252 O276 2.385 1_455 S
Mn252 O277 2.209 . S
Mn252 O278 2.094 . S
Mn253 O258 2.121 . S
Mn253 N260 2.257 . S
Mn253 N269 2.282 1_455 S
Mn253 O277 2.215 . S
Mn253 O279 2.117 . S
C254 O276 1.234 . S
C254 O277 1.283 1_655 S
C255 O267 1.281 . S
C255 O268 1.236 . S
C256 O278 1.240 . S
C256 O279 1.264 . S
O257 Mn252 2.095 . S
O257 C266 1.250 . S
O258 Mn253 2.121 . S
O258 C266 1.258 . S
C259 N260 1.326 . S
C259 C263 1.460 . S
C259 H265 0.929 . S
N260 Mn253 2.257 . S
N260 C259 1.326 . S
N260 C264 1.362 1_455 S
C261 C262 1.258 . S
C261 C264 1.431 . S
C261 C281 1.449 . S
C262 C261 1.258 . S
C262 C263 1.477 1_655 S
C262 H282 0.931 . S
C263 C259 1.460 . S
C263 C262 1.477 1_455 S
C263 H283 0.930 . S
C264 N260 1.362 1_655 S
C264 C261 1.431 . S
C264 C274 1.476 . S
H265 C259 0.929 . S
C266 O257 1.250 . S
C266 O258 1.258 . S
O267 Mn252 2.162 . S
O267 C255 1.281 . S
O268 Mn252 2.297 . S
O268 C255 1.236 . S
N269 Mn253 2.282 1_655 S
N269 C270 1.328 . S
N269 C274 1.318 . S
C270 N269 1.328 . S
C270 C271 1.457 . S
C270 H275 0.929 . S
C271 C270 1.457 . S
C271 C272 1.291 . S
C271 H284 0.931 . S
C272 C271 1.291 . S
C272 C273 1.373 . S
C272 H285 0.929 . S
C273 C272 1.373 . S
C273 C274 1.396 . S
C273 C280 1.403 . S
C274 C264 1.476 . S
C274 N269 1.318 . S
C274 C273 1.396 . S
H275 C270 0.929 . S
O276 Mn252 2.385 1_655 S
O276 C254 1.234 . S
O277 Mn252 2.209 . S
O277 Mn253 2.215 . S
O277 C254 1.283 1_455 S
O278 Mn252 2.094 . S
O278 C256 1.240 . S
O279 Mn253 2.117 . S
O279 C256 1.264 . S
C280 C273 1.403 . S
C280 C281 1.399 . S
C280 H286 0.929 . S
C281 C261 1.449 . S
C281 C280 1.399 . S
C281 H287 0.930 . S
H282 C262 0.931 . S
H283 C263 0.930 . S
H284 C271 0.931 . S
H285 C272 0.929 . S
H286 C280 0.929 . S
H287 C281 0.930 . S
Mn288 O293 2.095 . S
Mn288 O303 2.162 . S
Mn288 O304 2.297 . S
Mn288 O312 2.385 1_545 S
Mn288 O313 2.209 . S
Mn288 O314 2.094 . S
Mn289 O294 2.121 . S
Mn289 N296 2.257 . S
Mn289 N305 2.282 1_545 S
Mn289 O313 2.215 . S
Mn289 O315 2.117 . S
C290 O312 1.234 . S
C290 O313 1.283 1_565 S
C291 O303 1.281 . S
C291 O304 1.236 . S
C292 O314 1.240 . S
C292 O315 1.264 . S
O293 Mn288 2.095 . S
O293 C302 1.250 . S
O294 Mn289 2.121 . S
O294 C302 1.258 . S
C295 N296 1.326 . S
C295 C299 1.460 . S
C295 H301 0.929 . S
N296 Mn289 2.257 . S
N296 C295 1.326 . S
N296 C300 1.362 1_545 S
C297 C298 1.258 . S
C297 C300 1.431 . S
C297 C317 1.449 . S
C298 C297 1.258 . S
C298 C299 1.477 1_565 S
C298 H318 0.931 . S
C299 C295 1.460 . S
C299 C298 1.477 1_545 S
C299 H319 0.930 . S
C300 N296 1.362 1_565 S
C300 C297 1.431 . S
C300 C310 1.476 . S
H301 C295 0.929 . S
C302 O293 1.250 . S
C302 O294 1.258 . S
O303 Mn288 2.162 . S
O303 C291 1.281 . S
O304 Mn288 2.297 . S
O304 C291 1.236 . S
N305 Mn289 2.282 1_565 S
N305 C306 1.328 . S
N305 C310 1.318 . S
C306 N305 1.328 . S
C306 C307 1.457 . S
C306 H311 0.929 . S
C307 C306 1.457 . S
C307 C308 1.291 . S
C307 H320 0.931 . S
C308 C307 1.291 . S
C308 C309 1.373 . S
C308 H321 0.929 . S
C309 C308 1.373 . S
C309 C310 1.396 . S
C309 C316 1.403 . S
C310 C300 1.476 . S
C310 N305 1.318 . S
C310 C309 1.396 . S
H311 C306 0.929 . S
O312 Mn288 2.385 1_565 S
O312 C290 1.234 . S
O313 Mn288 2.209 . S
O313 Mn289 2.215 . S
O313 C290 1.283 1_545 S
O314 Mn288 2.094 . S
O314 C292 1.240 . S
O315 Mn289 2.117 . S
O315 C292 1.264 . S
C316 C309 1.403 . S
C316 C317 1.399 . S
C316 H322 0.929 . S
C317 C297 1.449 . S
C317 C316 1.399 . S
C317 H323 0.930 . S
H318 C298 0.931 . S
H319 C299 0.930 . S
H320 C307 0.931 . S
H321 C308 0.929 . S
H322 C316 0.929 . S
H323 C317 0.930 . S
Mn324 O329 2.095 . S
Mn324 O339 2.162 . S
Mn324 O340 2.297 . S
Mn324 O348 2.385 . S
Mn324 O349 2.209 . S
Mn324 O350 2.094 . S
Mn325 O330 2.121 . S
Mn325 N332 2.257 . S
Mn325 N341 2.282 . S
Mn325 O349 2.215 . S
Mn325 O351 2.117 . S
C326 O348 1.234 . S
C326 O349 1.283 . S
C327 O339 1.281 . S
C327 O340 1.236 . S
C328 O350 1.240 . S
C328 O351 1.264 . S
O329 Mn324 2.095 . S
O329 C338 1.250 . S
O330 Mn325 2.121 . S
O330 C338 1.258 . S
C331 N332 1.326 . S
C331 C335 1.460 . S
C331 H337 0.929 . S
N332 Mn325 2.257 . S
N332 C331 1.326 . S
N332 C336 1.362 . S
C333 C334 1.258 . S
C333 C336 1.431 . S
C333 C353 1.449 . S
C334 C333 1.258 . S
C334 C335 1.477 . S
C334 H354 0.931 . S
C335 C331 1.460 . S
C335 C334 1.477 . S
C335 H355 0.930 . S
C336 N332 1.362 . S
C336 C333 1.431 . S
C336 C346 1.476 . S
H337 C331 0.929 . S
C338 O329 1.250 . S
C338 O330 1.258 . S
O339 Mn324 2.162 . S
O339 C327 1.281 . S
O340 Mn324 2.297 . S
O340 C327 1.236 . S
N341 Mn325 2.282 . S
N341 C342 1.328 . S
N341 C346 1.318 . S
C342 N341 1.328 . S
C342 C343 1.457 . S
C342 H347 0.929 . S
C343 C342 1.457 . S
C343 C344 1.291 . S
C343 H356 0.931 . S
C344 C343 1.291 . S
C344 C345 1.373 . S
C344 H357 0.929 . S
C345 C344 1.373 . S
C345 C346 1.396 . S
C345 C352 1.403 . S
C346 C336 1.476 . S
C346 N341 1.318 . S
C346 C345 1.396 . S
H347 C342 0.929 . S
O348 Mn324 2.385 . S
O348 C326 1.234 . S
O349 Mn324 2.209 . S
O349 Mn325 2.215 . S
O349 C326 1.283 . S
O350 Mn324 2.094 . S
O350 C328 1.240 . S
O351 Mn325 2.117 . S
O351 C328 1.264 . S
C352 C345 1.403 . S
C352 C353 1.399 . S
C352 H358 0.929 . S
C353 C333 1.449 . S
C353 C352 1.399 . S
C353 H359 0.930 . S
H354 C334 0.931 . S
H355 C335 0.930 . S
H356 C343 0.931 . S
H357 C344 0.929 . S
H358 C352 0.929 . S
H359 C353 0.930 . S
Mn360 O365 2.103 . S
Mn360 O375 2.161 . S
Mn360 O376 2.296 . S
Mn360 O384 2.377 1_565 S
Mn360 O385 2.205 1_565 S
Mn360 O386 2.093 . S
Mn361 O366 2.121 1_545 S
Mn361 N368 2.257 . S
Mn361 N377 2.282 . S
Mn361 O385 2.215 . S
Mn361 O387 2.117 . S
C362 O384 1.234 . S
C362 O385 1.283 . S
C363 O375 1.281 . S
C363 O376 1.236 . S
C364 O386 1.245 1_545 S
C364 O387 1.264 . S
O365 Mn360 2.103 . S
O365 C374 1.250 . S
O366 Mn361 2.121 1_565 S
O366 C374 1.258 . S
C367 N368 1.326 . S
C367 C371 1.460 . S
C367 H373 0.922 1_545 S
N368 Mn361 2.257 . S
N368 C367 1.326 . S
N368 C372 1.362 . S
C369 C370 1.258 . S
C369 C372 1.431 . S
C369 C389 1.449 . S
C370 C369 1.258 . S
C370 C371 1.477 . S
C370 H390 0.931 . S
C371 C367 1.460 . S
C371 C370 1.477 . S
C371 H391 0.930 . S
C372 N368 1.362 . S
C372 C369 1.431 . S
C372 C382 1.476 . S
H373 C367 0.922 1_565 S
C374 O365 1.250 . S
C374 O366 1.258 . S
O375 Mn360 2.161 . S
O375 C363 1.281 . S
O376 Mn360 2.296 . S
O376 C363 1.236 . S
N377 Mn361 2.282 . S
N377 C378 1.328 . S
N377 C382 1.318 . S
C378 N377 1.328 . S
C378 C379 1.457 . S
C378 H383 0.929 . S
C379 C378 1.457 . S
C379 C380 1.291 . S
C379 H392 0.931 . S
C380 C379 1.291 . S
C380 C381 1.373 . S
C380 H393 0.929 . S
C381 C380 1.373 . S
C381 C382 1.396 . S
C381 C388 1.403 . S
C382 C372 1.476 . S
C382 N377 1.318 . S
C382 C381 1.396 . S
H383 C378 0.929 . S
O384 Mn360 2.377 1_545 S
O384 C362 1.234 . S
O385 Mn360 2.205 1_545 S
O385 Mn361 2.215 . S
O385 C362 1.283 . S
O386 Mn360 2.093 . S
O386 C364 1.245 1_565 S
O387 Mn361 2.117 . S
O387 C364 1.264 . S
C388 C381 1.403 . S
C388 C389 1.399 . S
C388 H394 0.929 . S
C389 C369 1.449 . S
C389 C388 1.399 . S
C389 H395 0.930 . S
H390 C370 0.931 . S
H391 C371 0.930 . S
H392 C379 0.931 . S
H393 C380 0.929 . S
H394 C388 0.929 . S
H395 C389 0.930 . S
Mn396 O401 2.095 . S
Mn396 O411 2.162 . S
Mn396 O412 2.297 . S
Mn396 O420 2.385 . S
Mn396 O421 2.209 . S
Mn396 O422 2.094 1_554 S
Mn397 O402 2.121 1_556 S
Mn397 N404 2.257 . S
Mn397 N413 2.282 . S
Mn397 O421 2.215 1_556 S
Mn397 O423 2.117 . S
C398 O420 1.234 . S
C398 O421 1.283 . S
C399 O411 1.281 . S
C399 O412 1.236 . S
C400 O422 1.240 . S
C400 O423 1.264 . S
O401 Mn396 2.095 . S
O401 C410 1.250 . S
O402 Mn397 2.121 1_554 S
O402 C410 1.258 . S
C403 N404 1.326 1_554 S
C403 C407 1.460 1_565 S
C403 H409 0.929 . S
N404 Mn397 2.257 . S
N404 C403 1.326 1_556 S
N404 C408 1.362 . S
C405 C406 1.234 1_556 S
C405 C408 1.431 1_545 S
C405 C425 1.449 . S
C406 C405 1.234 1_554 S
C406 C407 1.509 . S
C406 H426 0.927 . S
C407 C403 1.460 1_545 S
C407 C406 1.509 . S
C407 H427 0.930 . S
C408 N404 1.362 . S
C408 C405 1.431 1_565 S
C408 C418 1.476 . S
H409 C403 0.929 . S
C410 O401 1.250 . S
C410 O402 1.258 . S
O411 Mn396 2.162 . S
O411 C399 1.281 . S
O412 Mn396 2.297 . S
O412 C399 1.236 . S
N413 Mn397 2.282 . S
N413 C414 1.328 . S
N413 C418 1.318 . S
C414 N413 1.328 . S
C414 C415 1.457 . S
C414 H419 0.929 . S
C415 C414 1.457 . S
C415 C416 1.291 . S
C415 H428 0.931 . S
C416 C415 1.291 . S
C416 C417 1.373 . S
C416 H429 0.929 . S
C417 C416 1.373 . S
C417 C418 1.396 . S
C417 C424 1.403 1_565 S
C418 C408 1.476 . S
C418 N413 1.318 . S
C418 C417 1.396 . S
H419 C414 0.929 . S
O420 Mn396 2.385 . S
O420 C398 1.234 . S
O421 Mn396 2.209 . S
O421 Mn397 2.215 1_554 S
O421 C398 1.283 . S
O422 Mn396 2.094 1_556 S
O422 C400 1.240 . S
O423 Mn397 2.117 . S
O423 C400 1.264 . S
C424 C417 1.403 1_545 S
C424 C425 1.399 . S
C424 H430 0.929 . S
C425 C405 1.449 . S
C425 C424 1.399 . S
C425 H431 0.930 . S
H426 C406 0.927 . S
H427 C407 0.930 . S
H428 C415 0.931 . S
H429 C416 0.929 . S
H430 C424 0.929 . S
H431 C425 0.930 . S
Mn432 O437 2.095 . S
Mn432 O447 2.162 . S
Mn432 O448 2.297 . S
Mn432 O456 2.385 . S
Mn432 O457 2.209 . S
Mn432 O458 2.094 . S
Mn433 O438 2.121 . S
Mn433 N440 2.257 . S
Mn433 N449 2.282 1_554 S
Mn433 O457 2.215 . S
Mn433 O459 2.117 1_554 S
C434 O456 1.234 . S
C434 O457 1.283 . S
C435 O447 1.281 . S
C435 O448 1.236 . S
C436 O458 1.240 1_556 S
C436 O459 1.264 . S
O437 Mn432 2.095 . S
O437 C446 1.250 . S
O438 Mn433 2.121 . S
O438 C446 1.258 . S
C439 N440 1.326 . S
C439 C443 1.460 . S
C439 H445 0.929 . S
N440 Mn433 2.257 . S
N440 C439 1.326 . S
N440 C444 1.362 . S
C441 C442 1.258 . S
C441 C444 1.431 . S
C441 C461 1.449 . S
C442 C441 1.258 . S
C442 C443 1.477 . S
C442 H462 0.931 . S
C443 C439 1.460 . S
C443 C442 1.477 . S
C443 H463 0.930 . S
C444 N440 1.362 . S
C444 C441 1.431 . S
C444 C454 1.476 . S
H445 C439 0.929 . S
C446 O437 1.250 . S
C446 O438 1.258 . S
O447 Mn432 2.162 . S
O447 C435 1.281 . S
O448 Mn432 2.297 . S
O448 C435 1.236 . S
N449 Mn433 2.282 1_556 S
N449 C450 1.328 . S
N449 C454 1.318 1_556 S
C450 N449 1.328 . S
C450 C451 1.457 . S
C450 H455 0.929 . S
C451 C450 1.457 . S
C451 C452 1.291 . S
C451 H464 0.931 . S
C452 C451 1.291 . S
C452 C453 1.373 . S
C452 H465 0.929 . S
C453 C452 1.373 . S
C453 C454 1.396 1_556 S
C453 C460 1.403 . S
C454 C444 1.476 . S
C454 N449 1.318 1_554 S
C454 C453 1.396 1_554 S
H455 C450 0.929 . S
O456 Mn432 2.385 . S
O456 C434 1.234 . S
O457 Mn432 2.209 . S
O457 Mn433 2.215 . S
O457 C434 1.283 . S
O458 Mn432 2.094 . S
O458 C436 1.240 1_554 S
O459 Mn433 2.117 1_556 S
O459 C436 1.264 . S
C460 C453 1.403 . S
C460 C461 1.399 1_556 S
C460 H466 0.929 . S
C461 C441 1.449 . S
C461 C460 1.399 1_554 S
C461 H467 0.930 . S
H462 C442 0.931 . S
H463 C443 0.930 . S
H464 C451 0.931 . S
H465 C452 0.929 . S
H466 C460 0.929 . S
H467 C461 0.930 . S
Mn468 O473 2.095 . S
Mn468 O483 2.162 . S
Mn468 O484 2.297 . S
Mn468 O492 2.385 . S
Mn468 O493 2.209 . S
Mn468 O494 2.094 . S
Mn469 O474 2.121 1_556 S
Mn469 N476 2.257 . S
Mn469 N485 2.282 . S
Mn469 O493 2.215 1_556 S
Mn469 O495 2.117 . S
C470 O492 1.234 . S
C470 O493 1.283 . S
C471 O483 1.281 . S
C471 O484 1.236 . S
C472 O494 1.240 1_556 S
C472 O495 1.264 . S
O473 Mn468 2.095 . S
O473 C482 1.250 . S
O474 Mn469 2.121 1_554 S
O474 C482 1.258 . S
C475 N476 1.326 . S
C475 C479 1.460 . S
C475 H481 0.929 1_556 S
N476 Mn469 2.257 . S
N476 C475 1.326 . S
N476 C480 1.362 . S
C477 C478 1.258 . S
C477 C480 1.431 . S
C477 C497 1.449 . S
C478 C477 1.258 . S
C478 C479 1.477 . S
C478 H498 0.931 . S
C479 C475 1.460 . S
C479 C478 1.477 . S
C479 H499 0.947 . S
C480 N476 1.362 . S
C480 C477 1.431 . S
C480 C490 1.476 . S
H481 C475 0.929 1_554 S
C482 O473 1.250 . S
C482 O474 1.258 . S
O483 Mn468 2.162 . S
O483 C471 1.281 . S
O484 Mn468 2.297 . S
O484 C471 1.236 . S
N485 Mn469 2.282 . S
N485 C486 1.328 . S
N485 C490 1.318 . S
C486 N485 1.328 . S
C486 C487 1.457 . S
C486 H491 0.929 . S
C487 C486 1.457 . S
C487 C488 1.291 . S
C487 H500 0.931 . S
C488 C487 1.291 . S
C488 C489 1.373 . S
C488 H501 0.929 . S
C489 C488 1.373 . S
C489 C490 1.396 . S
C489 C496 1.403 . S
C490 C480 1.476 . S
C490 N485 1.318 . S
C490 C489 1.396 . S
H491 C486 0.929 . S
O492 Mn468 2.385 . S
O492 C470 1.234 . S
O493 Mn468 2.209 . S
O493 Mn469 2.215 1_554 S
O493 C470 1.283 . S
O494 Mn468 2.094 . S
O494 C472 1.240 1_554 S
O495 Mn469 2.117 . S
O495 C472 1.264 . S
C496 C489 1.403 . S
C496 C497 1.399 . S
C496 H502 0.929 . S
C497 C477 1.449 . S
C497 C496 1.399 . S
C497 H503 0.930 . S
H498 C478 0.931 . S
H499 C479 0.947 . S
H500 C487 0.931 . S
H501 C488 0.929 . S
H502 C496 0.929 . S
H503 C497 0.930 . S
Mn504 O509 2.095 . S
Mn504 O519 2.162 . S
Mn504 O520 2.297 . S
Mn504 O528 2.385 . S
Mn504 O529 2.209 . S
Mn504 O530 2.094 . S
Mn505 O510 2.121 . S
Mn505 N512 2.257 . S
Mn505 N521 2.282 . S
Mn505 O529 2.215 . S
Mn505 O531 2.117 . S
C506 O528 1.234 . S
C506 O529 1.283 . S
C507 O519 1.281 . S
C507 O520 1.236 . S
C508 O530 1.240 . S
C508 O531 1.264 . S
O509 Mn504 2.095 . S
O509 C518 1.250 . S
O510 Mn505 2.121 . S
O510 C518 1.258 . S
C511 N512 1.326 . S
C511 C515 1.460 . S
C511 H517 0.929 . S
N512 Mn505 2.257 . S
N512 C511 1.326 . S
N512 C516 1.362 . S
C513 C514 1.258 . S
C513 C516 1.431 . S
C513 C533 1.449 . S
C514 C513 1.258 . S
C514 C515 1.477 . S
C514 H534 0.931 . S
C515 C511 1.460 . S
C515 C514 1.477 . S
C515 H535 0.930 . S
C516 N512 1.362 . S
C516 C513 1.431 . S
C516 C526 1.476 . S
H517 C511 0.929 . S
C518 O509 1.250 . S
C518 O510 1.258 . S
O519 Mn504 2.162 . S
O519 C507 1.281 . S
O520 Mn504 2.297 . S
O520 C507 1.236 . S
N521 Mn505 2.282 . S
N521 C522 1.328 . S
N521 C526 1.318 . S
C522 N521 1.328 . S
C522 C523 1.457 . S
C522 H527 0.929 . S
C523 C522 1.457 . S
C523 C524 1.291 . S
C523 H536 0.931 . S
C524 C523 1.291 . S
C524 C525 1.373 . S
C524 H537 0.929 . S
C525 C524 1.373 . S
C525 C526 1.396 . S
C525 C532 1.403 . S
C526 C516 1.476 . S
C526 N521 1.318 . S
C526 C525 1.396 . S
H527 C522 0.929 . S
O528 Mn504 2.385 . S
O528 C506 1.234 . S
O529 Mn504 2.209 . S
O529 Mn505 2.215 . S
O529 C506 1.283 . S
O530 Mn504 2.094 . S
O530 C508 1.240 . S
O531 Mn505 2.117 . S
O531 C508 1.264 . S
C532 C525 1.403 . S
C532 C533 1.399 . S
C532 H538 0.929 . S
C533 C513 1.449 . S
C533 C532 1.399 . S
C533 H539 0.930 . S
H534 C514 0.931 . S
H535 C515 0.930 . S
H536 C523 0.931 . S
H537 C524 0.929 . S
H538 C532 0.929 . S
H539 C533 0.930 . S
Mn540 O545 2.095 . S
Mn540 O555 2.162 . S
Mn540 O556 2.297 . S
Mn540 O564 2.385 . S
Mn540 O565 2.209 . S
Mn540 O566 2.094 . S
Mn541 O546 2.121 . S
Mn541 N548 2.257 . S
Mn541 N557 2.282 . S
Mn541 O565 2.215 . S
Mn541 O567 2.117 . S
C542 O564 1.234 . S
C542 O565 1.283 . S
C543 O555 1.281 . S
C543 O556 1.236 . S
C544 O566 1.240 . S
C544 O567 1.264 . S
O545 Mn540 2.095 . S
O545 C554 1.250 . S
O546 Mn541 2.121 . S
O546 C554 1.258 . S
C547 N548 1.326 . S
C547 C551 1.460 . S
C547 H553 0.929 . S
N548 Mn541 2.257 . S
N548 C547 1.326 . S
N548 C552 1.362 . S
C549 C550 1.258 . S
C549 C552 1.431 . S
C549 C569 1.449 . S
C550 C549 1.258 . S
C550 C551 1.477 . S
C550 H570 0.931 . S
C551 C547 1.460 . S
C551 C550 1.477 . S
C551 H571 0.930 . S
C552 N548 1.362 . S
C552 C549 1.431 . S
C552 C562 1.476 . S
H553 C547 0.929 . S
C554 O545 1.250 . S
C554 O546 1.258 . S
O555 Mn540 2.162 . S
O555 C543 1.281 . S
O556 Mn540 2.297 . S
O556 C543 1.236 . S
N557 Mn541 2.282 . S
N557 C558 1.328 . S
N557 C562 1.318 . S
C558 N557 1.328 . S
C558 C559 1.457 . S
C558 H563 0.929 . S
C559 C558 1.457 . S
C559 C560 1.291 . S
C559 H572 0.931 . S
C560 C559 1.291 . S
C560 C561 1.373 . S
C560 H573 0.929 . S
C561 C560 1.373 . S
C561 C562 1.396 . S
C561 C568 1.403 . S
C562 C552 1.476 . S
C562 N557 1.318 . S
C562 C561 1.396 . S
H563 C558 0.929 . S
O564 Mn540 2.385 . S
O564 C542 1.234 . S
O565 Mn540 2.209 . S
O565 Mn541 2.215 . S
O565 C542 1.283 . S
O566 Mn540 2.094 . S
O566 C544 1.240 . S
O567 Mn541 2.117 . S
O567 C544 1.264 . S
C568 C561 1.403 . S
C568 C569 1.399 . S
C568 H574 0.929 . S
C569 C549 1.449 . S
C569 C568 1.399 . S
C569 H575 0.930 . S
H570 C550 0.931 . S
H571 C551 0.930 . S
H572 C559 0.931 . S
H573 C560 0.929 . S
H574 C568 0.929 . S
H575 C569 0.930 . S
Mn576 O581 2.095 . S
Mn576 O591 2.162 . S
Mn576 O592 2.297 . S
Mn576 O600 2.385 . S
Mn576 O601 2.209 . S
Mn576 O602 2.094 . S
Mn577 O582 2.121 . S
Mn577 N584 2.257 . S
Mn577 N593 2.282 . S
Mn577 O601 2.215 . S
Mn577 O603 2.117 . S
C578 O600 1.234 . S
C578 O601 1.283 . S
C579 O591 1.281 . S
C579 O592 1.236 . S
C580 O602 1.240 . S
C580 O603 1.264 . S
O581 Mn576 2.095 . S
O581 C590 1.250 . S
O582 Mn577 2.121 . S
O582 C590 1.258 . S
C583 N584 1.326 . S
C583 C587 1.460 . S
C583 H589 0.929 . S
N584 Mn577 2.257 . S
N584 C583 1.326 . S
N584 C588 1.362 . S
C585 C586 1.258 . S
C585 C588 1.431 . S
C585 C605 1.449 . S
C586 C585 1.258 . S
C586 C587 1.477 . S
C586 H606 0.931 . S
C587 C583 1.460 . S
C587 C586 1.477 . S
C587 H607 0.930 . S
C588 N584 1.362 . S
C588 C585 1.431 . S
C588 C598 1.476 . S
H589 C583 0.929 . S
C590 O581 1.250 . S
C590 O582 1.258 . S
O591 Mn576 2.162 . S
O591 C579 1.281 . S
O592 Mn576 2.297 . S
O592 C579 1.236 . S
N593 Mn577 2.282 . S
N593 C594 1.328 . S
N593 C598 1.318 . S
C594 N593 1.328 . S
C594 C595 1.457 . S
C594 H599 0.929 . S
C595 C594 1.457 . S
C595 C596 1.291 . S
C595 H608 0.931 . S
C596 C595 1.291 . S
C596 C597 1.373 . S
C596 H609 0.929 1_545 S
C597 C596 1.373 . S
C597 C598 1.396 . S
C597 C604 1.403 . S
C598 C588 1.476 . S
C598 N593 1.318 . S
C598 C597 1.396 . S
H599 C594 0.929 . S
O600 Mn576 2.385 . S
O600 C578 1.234 . S
O601 Mn576 2.209 . S
O601 Mn577 2.215 . S
O601 C578 1.283 . S
O602 Mn576 2.094 . S
O602 C580 1.240 . S
O603 Mn577 2.117 . S
O603 C580 1.264 . S
C604 C597 1.403 . S
C604 C605 1.399 . S
C604 H610 0.929 1_545 S
C605 C585 1.449 . S
C605 C604 1.399 . S
C605 H611 0.930 . S
H606 C586 0.931 . S
H607 C587 0.930 . S
H608 C595 0.931 . S
H609 C596 0.929 1_565 S
H610 C604 0.929 1_565 S
H611 C605 0.930 . S
Mn612 O617 2.095 . S
Mn612 O627 2.162 . S
Mn612 O628 2.297 . S
Mn612 O636 2.385 . S
Mn612 O637 2.209 . S
Mn612 O638 2.094 . S
Mn613 O618 2.121 . S
Mn613 N620 2.257 . S
Mn613 N629 2.282 . S
Mn613 O637 2.215 . S
Mn613 O639 2.117 . S
C614 O636 1.234 . S
C614 O637 1.283 . S
C615 O627 1.281 . S
C615 O628 1.236 . S
C616 O638 1.240 . S
C616 O639 1.264 . S
O617 Mn612 2.095 . S
O617 C626 1.250 . S
O618 Mn613 2.121 . S
O618 C626 1.258 . S
C619 N620 1.326 . S
C619 C623 1.460 . S
C619 H625 0.929 . S
N620 Mn613 2.257 . S
N620 C619 1.326 . S
N620 C624 1.362 . S
C621 C622 1.258 . S
C621 C624 1.431 . S
C621 C641 1.449 . S
C622 C621 1.258 . S
C622 C623 1.477 . S
C622 H642 0.931 . S
C623 C619 1.460 . S
C623 C622 1.477 . S
C623 H643 0.930 . S
C624 N620 1.362 . S
C624 C621 1.431 . S
C624 C634 1.476 . S
H625 C619 0.929 . S
C626 O617 1.250 . S
C626 O618 1.258 . S
O627 Mn612 2.162 . S
O627 C615 1.281 . S
O628 Mn612 2.297 . S
O628 C615 1.236 . S
N629 Mn613 2.282 . S
N629 C630 1.328 . S
N629 C634 1.318 . S
C630 N629 1.328 . S
C630 C631 1.457 . S
C630 H635 0.929 . S
C631 C630 1.457 . S
C631 C632 1.291 . S
C631 H644 0.931 . S
C632 C631 1.291 . S
C632 C633 1.373 . S
C632 H645 0.929 . S
C633 C632 1.373 . S
C633 C634 1.396 . S
C633 C640 1.403 . S
C634 C624 1.476 . S
C634 N629 1.318 . S
C634 C633 1.396 . S
H635 C630 0.929 . S
O636 Mn612 2.385 . S
O636 C614 1.234 . S
O637 Mn612 2.209 . S
O637 Mn613 2.215 . S
O637 C614 1.283 . S
O638 Mn612 2.094 . S
O638 C616 1.240 . S
O639 Mn613 2.117 . S
O639 C616 1.264 . S
C640 C633 1.403 . S
C640 C641 1.399 . S
C640 H646 0.929 . S
C641 C621 1.449 . S
C641 C640 1.399 . S
C641 H647 0.930 . S
H642 C622 0.931 . S
H643 C623 0.930 . S
H644 C631 0.931 . S
H645 C632 0.929 . S
H646 C640 0.929 . S
H647 C641 0.930 . S
Mn648 O653 2.095 . S
Mn648 O663 2.162 . S
Mn648 O664 2.297 . S
Mn648 O672 2.385 . S
Mn648 O673 2.209 . S
Mn648 O674 2.094 . S
Mn649 O654 2.121 . S
Mn649 N656 2.257 . S
Mn649 N665 2.282 . S
Mn649 O673 2.215 . S
Mn649 O675 2.117 . S
C650 O672 1.234 . S
C650 O673 1.283 . S
C651 O663 1.281 . S
C651 O664 1.236 . S
C652 O674 1.240 . S
C652 O675 1.264 . S
O653 Mn648 2.095 . S
O653 C662 1.250 . S
O654 Mn649 2.121 . S
O654 C662 1.258 . S
C655 N656 1.326 . S
C655 C659 1.460 . S
C655 H661 0.929 . S
N656 Mn649 2.257 . S
N656 C655 1.326 . S
N656 C660 1.362 . S
C657 C658 1.258 . S
C657 C660 1.431 . S
C657 C677 1.449 . S
C658 C657 1.258 . S
C658 C659 1.477 . S
C658 H678 0.931 . S
C659 C655 1.460 . S
C659 C658 1.477 . S
C659 H679 0.930 . S
C660 N656 1.362 . S
C660 C657 1.431 . S
C660 C670 1.476 . S
H661 C655 0.929 . S
C662 O653 1.250 . S
C662 O654 1.258 . S
O663 Mn648 2.162 . S
O663 C651 1.281 . S
O664 Mn648 2.297 . S
O664 C651 1.236 . S
N665 Mn649 2.282 . S
N665 C666 1.328 . S
N665 C670 1.318 . S
C666 N665 1.328 . S
C666 C667 1.457 . S
C666 H671 0.929 . S
C667 C666 1.457 . S
C667 C668 1.291 . S
C667 H680 0.931 . S
C668 C667 1.291 . S
C668 C669 1.373 . S
C668 H681 0.929 . S
C669 C668 1.373 . S
C669 C670 1.396 . S
C669 C676 1.403 . S
C670 C660 1.476 . S
C670 N665 1.318 . S
C670 C669 1.396 . S
H671 C666 0.929 . S
O672 Mn648 2.385 . S
O672 C650 1.234 . S
O673 Mn648 2.209 . S
O673 Mn649 2.215 . S
O673 C650 1.283 . S
O674 Mn648 2.094 . S
O674 C652 1.240 . S
O675 Mn649 2.117 . S
O675 C652 1.264 . S
C676 C669 1.403 . S
C676 C677 1.399 . S
C676 H682 0.929 . S
C677 C657 1.449 . S
C677 C676 1.399 . S
C677 H683 0.930 . S
H678 C658 0.931 . S
H679 C659 0.930 . S
H680 C667 0.931 . S
H681 C668 0.929 . S
H682 C676 0.929 . S
H683 C677 0.930 . S
Mn684 O689 2.095 . S
Mn684 O699 2.162 . S
Mn684 O700 2.297 . S
Mn684 O708 2.385 . S
Mn684 O709 2.209 . S
Mn684 O710 2.094 . S
Mn685 O690 2.121 . S
Mn685 N692 2.257 . S
Mn685 N701 2.282 . S
Mn685 O709 2.215 . S
Mn685 O711 2.117 . S
C686 O708 1.234 . S
C686 O709 1.283 . S
C687 O699 1.281 . S
C687 O700 1.236 . S
C688 O710 1.240 . S
C688 O711 1.264 . S
O689 Mn684 2.095 . S
O689 C698 1.250 . S
O690 Mn685 2.121 . S
O690 C698 1.258 . S
C691 N692 1.326 . S
C691 C695 1.460 . S
C691 H697 0.929 . S
N692 Mn685 2.257 . S
N692 C691 1.326 . S
N692 C696 1.362 . S
C693 C694 1.258 . S
C693 C696 1.431 . S
C693 C713 1.449 . S
C694 C693 1.258 . S
C694 C695 1.477 . S
C694 H714 0.931 . S
C695 C691 1.460 . S
C695 C694 1.477 . S
C695 H715 0.930 . S
C696 N692 1.362 . S
C696 C693 1.431 . S
C696 C706 1.476 . S
H697 C691 0.929 . S
C698 O689 1.250 . S
C698 O690 1.258 . S
O699 Mn684 2.162 . S
O699 C687 1.281 . S
O700 Mn684 2.297 . S
O700 C687 1.236 . S
N701 Mn685 2.282 . S
N701 C702 1.328 . S
N701 C706 1.318 . S
C702 N701 1.328 . S
C702 C703 1.457 . S
C702 H707 0.929 . S
C703 C702 1.457 . S
C703 C704 1.291 . S
C703 H716 0.931 . S
C704 C703 1.291 . S
C704 C705 1.373 . S
C704 H717 0.929 . S
C705 C704 1.373 . S
C705 C706 1.396 . S
C705 C712 1.403 . S
C706 C696 1.476 . S
C706 N701 1.318 . S
C706 C705 1.396 . S
H707 C702 0.929 . S
O708 Mn684 2.385 . S
O708 C686 1.234 . S
O709 Mn684 2.209 . S
O709 Mn685 2.215 . S
O709 C686 1.283 . S
O710 Mn684 2.094 . S
O710 C688 1.240 . S
O711 Mn685 2.117 . S
O711 C688 1.264 . S
C712 C705 1.403 . S
C712 C713 1.399 . S
C712 H718 0.929 . S
C713 C693 1.449 . S
C713 C712 1.399 . S
C713 H719 0.930 . S
H714 C694 0.931 . S
H715 C695 0.930 . S
H716 C703 0.931 . S
H717 C704 0.929 . S
H718 C712 0.929 . S
H719 C713 0.930 . S
Mn720 O725 2.095 1_554 S
Mn720 O735 2.162 . S
Mn720 O736 2.297 . S
Mn720 O744 2.385 . S
Mn720 O745 2.209 1_554 S
Mn720 O746 2.094 1_554 S
Mn721 O726 2.121 . S
Mn721 N728 2.257 . S
Mn721 N737 2.282 . S
Mn721 O745 2.215 . S
Mn721 O747 2.117 . S
C722 O744 1.234 1_556 S
C722 O745 1.283 . S
C723 O735 1.281 . S
C723 O736 1.236 . S
C724 O746 1.240 . S
C724 O747 1.264 . S
O725 Mn720 2.095 1_556 S
O725 C734 1.250 . S
O726 Mn721 2.121 . S
O726 C734 1.258 . S
C727 N728 1.326 . S
C727 C731 1.460 . S
C727 H733 0.929 . S
N728 Mn721 2.257 . S
N728 C727 1.326 . S
N728 C732 1.362 . S
C729 C730 1.258 . S
C729 C732 1.431 . S
C729 C749 1.449 . S
C730 C729 1.258 . S
C730 C731 1.477 . S
C730 H750 0.931 . S
C731 C727 1.460 . S
C731 C730 1.477 . S
C731 H751 0.930 . S
C732 N728 1.362 . S
C732 C729 1.431 . S
C732 C742 1.476 . S
H733 C727 0.929 . S
C734 O725 1.250 . S
C734 O726 1.258 . S
O735 Mn720 2.162 . S
O735 C723 1.281 . S
O736 Mn720 2.297 . S
O736 C723 1.236 . S
N737 Mn721 2.282 . S
N737 C738 1.328 . S
N737 C742 1.318 . S
C738 N737 1.328 . S
C738 C739 1.457 . S
C738 H743 0.929 . S
C739 C738 1.457 . S
C739 C740 1.291 . S
C739 H752 0.931 . S
C740 C739 1.291 . S
C740 C741 1.373 . S
C740 H753 0.929 . S
C741 C740 1.373 . S
C741 C742 1.396 . S
C741 C748 1.403 . S
C742 C732 1.476 . S
C742 N737 1.318 . S
C742 C741 1.396 . S
H743 C738 0.929 . S
O744 Mn720 2.385 . S
O744 C722 1.234 1_554 S
O745 Mn720 2.209 1_556 S
O745 Mn721 2.215 . S
O745 C722 1.283 . S
O746 Mn720 2.094 1_556 S
O746 C724 1.240 . S
O747 Mn721 2.117 . S
O747 C724 1.264 . S
C748 C741 1.403 . S
C748 C749 1.399 . S
C748 H754 0.929 . S
C749 C729 1.449 . S
C749 C748 1.399 . S
C749 H755 0.930 . S
H750 C730 0.931 . S
H751 C731 0.930 . S
H752 C739 0.931 . S
H753 C740 0.929 . S
H754 C748 0.929 . S
H755 C749 0.930 . S
Mn756 O761 2.095 . S
Mn756 O771 2.162 . S
Mn756 O772 2.297 . S
Mn756 O780 2.385 . S
Mn756 O781 2.209 . S
Mn756 O782 2.094 . S
Mn757 O762 2.121 . S
Mn757 N764 2.257 . S
Mn757 N773 2.282 . S
Mn757 O781 2.215 . S
Mn757 O783 2.117 . S
C758 O780 1.234 . S
C758 O781 1.283 . S
C759 O771 1.281 . S
C759 O772 1.236 . S
C760 O782 1.240 . S
C760 O783 1.264 . S
O761 Mn756 2.095 . S
O761 C770 1.250 . S
O762 Mn757 2.121 . S
O762 C770 1.258 . S
C763 N764 1.326 . S
C763 C767 1.460 . S
C763 H769 0.929 . S
N764 Mn757 2.257 . S
N764 C763 1.326 . S
N764 C768 1.362 . S
C765 C766 1.258 . S
C765 C768 1.431 . S
C765 C785 1.449 . S
C766 C765 1.258 . S
C766 C767 1.477 . S
C766 H786 0.931 . S
C767 C763 1.460 . S
C767 C766 1.477 . S
C767 H787 0.930 . S
C768 N764 1.362 . S
C768 C765 1.431 . S
C768 C778 1.476 . S
H769 C763 0.929 . S
C770 O761 1.250 . S
C770 O762 1.258 . S
O771 Mn756 2.162 . S
O771 C759 1.281 . S
O772 Mn756 2.297 . S
O772 C759 1.236 . S
N773 Mn757 2.282 . S
N773 C774 1.328 . S
N773 C778 1.318 . S
C774 N773 1.328 . S
C774 C775 1.457 . S
C774 H779 0.929 . S
C775 C774 1.457 . S
C775 C776 1.291 . S
C775 H788 0.931 . S
C776 C775 1.291 . S
C776 C777 1.373 . S
C776 H789 0.929 . S
C777 C776 1.373 . S
C777 C778 1.396 . S
C777 C784 1.403 . S
C778 C768 1.476 . S
C778 N773 1.318 . S
C778 C777 1.396 . S
H779 C774 0.929 . S
O780 Mn756 2.385 . S
O780 C758 1.234 . S
O781 Mn756 2.209 . S
O781 Mn757 2.215 . S
O781 C758 1.283 . S
O782 Mn756 2.094 . S
O782 C760 1.240 . S
O783 Mn757 2.117 . S
O783 C760 1.264 . S
C784 C777 1.403 . S
C784 C785 1.399 . S
C784 H790 0.929 . S
C785 C765 1.449 . S
C785 C784 1.399 . S
C785 H791 0.930 . S
H786 C766 0.931 . S
H787 C767 0.930 . S
H788 C775 0.931 . S
H789 C776 0.929 . S
H790 C784 0.929 . S
H791 C785 0.930 . S
Mn792 O797 2.095 . S
Mn792 O807 2.162 . S
Mn792 O808 2.297 . S
Mn792 O816 2.385 . S
Mn792 O817 2.209 . S
Mn792 O818 2.094 . S
Mn793 O798 2.121 . S
Mn793 N800 2.257 . S
Mn793 N809 2.282 . S
Mn793 O817 2.215 . S
Mn793 O819 2.117 . S
C794 O816 1.234 . S
C794 O817 1.283 . S
C795 O807 1.281 . S
C795 O808 1.236 . S
C796 O818 1.240 . S
C796 O819 1.264 . S
O797 Mn792 2.095 . S
O797 C806 1.250 . S
O798 Mn793 2.121 . S
O798 C806 1.258 . S
C799 N800 1.326 . S
C799 C803 1.460 . S
C799 H805 0.929 . S
N800 Mn793 2.257 . S
N800 C799 1.326 . S
N800 C804 1.362 . S
C801 C802 1.258 . S
C801 C804 1.431 . S
C801 C821 1.449 . S
C802 C801 1.258 . S
C802 C803 1.477 . S
C802 H822 0.931 . S
C803 C799 1.460 . S
C803 C802 1.477 . S
C803 H823 0.930 . S
C804 N800 1.362 . S
C804 C801 1.431 . S
C804 C814 1.476 . S
H805 C799 0.929 . S
C806 O797 1.250 . S
C806 O798 1.258 . S
O807 Mn792 2.162 . S
O807 C795 1.281 . S
O808 Mn792 2.297 . S
O808 C795 1.236 . S
N809 Mn793 2.282 . S
N809 C810 1.328 . S
N809 C814 1.318 . S
C810 N809 1.328 . S
C810 C811 1.457 . S
C810 H815 0.929 . S
C811 C810 1.457 . S
C811 C812 1.291 . S
C811 H824 0.931 . S
C812 C811 1.291 . S
C812 C813 1.373 . S
C812 H825 0.929 . S
C813 C812 1.373 . S
C813 C814 1.396 . S
C813 C820 1.403 . S
C814 C804 1.476 . S
C814 N809 1.318 . S
C814 C813 1.396 . S
H815 C810 0.929 . S
O816 Mn792 2.385 . S
O816 C794 1.234 . S
O817 Mn792 2.209 . S
O817 Mn793 2.215 . S
O817 C794 1.283 . S
O818 Mn792 2.094 . S
O818 C796 1.240 . S
O819 Mn793 2.117 . S
O819 C796 1.264 . S
C820 C813 1.403 . S
C820 C821 1.399 . S
C820 H826 0.929 . S
C821 C801 1.449 . S
C821 C820 1.399 . S
C821 H827 0.930 . S
H822 C802 0.931 . S
H823 C803 0.930 . S
H824 C811 0.931 . S
H825 C812 0.929 . S
H826 C820 0.929 . S
H827 C821 0.930 . S
Mn828 O833 2.095 . S
Mn828 O843 2.162 . S
Mn828 O844 2.297 . S
Mn828 O852 2.385 . S
Mn828 O853 2.209 . S
Mn828 O854 2.094 . S
Mn829 O834 2.121 . S
Mn829 N836 2.257 . S
Mn829 N845 2.282 . S
Mn829 O853 2.215 . S
Mn829 O855 2.117 . S
C830 O852 1.234 . S
C830 O853 1.283 . S
C831 O843 1.281 . S
C831 O844 1.236 . S
C832 O854 1.240 . S
C832 O855 1.264 . S
O833 Mn828 2.095 . S
O833 C842 1.250 . S
O834 Mn829 2.121 . S
O834 C842 1.258 . S
C835 N836 1.326 . S
C835 C839 1.460 . S
C835 H841 0.929 . S
N836 Mn829 2.257 . S
N836 C835 1.326 . S
N836 C840 1.362 . S
C837 C838 1.258 . S
C837 C840 1.431 . S
C837 C857 1.449 . S
C838 C837 1.258 . S
C838 C839 1.477 . S
C838 H858 0.931 . S
C839 C835 1.460 . S
C839 C838 1.477 . S
C839 H859 0.930 . S
C840 N836 1.362 . S
C840 C837 1.431 . S
C840 C850 1.476 . S
H841 C835 0.929 . S
C842 O833 1.250 . S
C842 O834 1.258 . S
O843 Mn828 2.162 . S
O843 C831 1.281 . S
O844 Mn828 2.297 . S
O844 C831 1.236 . S
N845 Mn829 2.282 . S
N845 C846 1.328 . S
N845 C850 1.318 . S
C846 N845 1.328 . S
C846 C847 1.457 . S
C846 H851 0.929 . S
C847 C846 1.457 . S
C847 C848 1.291 . S
C847 H860 0.931 . S
C848 C847 1.291 . S
C848 C849 1.373 . S
C848 H861 0.929 . S
C849 C848 1.373 . S
C849 C850 1.396 . S
C849 C856 1.403 . S
C850 C840 1.476 . S
C850 N845 1.318 . S
C850 C849 1.396 . S
H851 C846 0.929 . S
O852 Mn828 2.385 . S
O852 C830 1.234 . S
O853 Mn828 2.209 . S
O853 Mn829 2.215 . S
O853 C830 1.283 . S
O854 Mn828 2.094 . S
O854 C832 1.240 . S
O855 Mn829 2.117 . S
O855 C832 1.264 . S
C856 C849 1.403 . S
C856 C857 1.399 . S
C856 H862 0.929 . S
C857 C837 1.449 . S
C857 C856 1.399 . S
C857 H863 0.930 . S
H858 C838 0.931 . S
H859 C839 0.930 . S
H860 C847 0.931 . S
H861 C848 0.929 . S
H862 C856 0.929 . S
H863 C857 0.930 . S
Tb864 N895 2.660 1_545 S
Tb864 N902 2.600 1_544 S
Tb864 O908 2.546 1_454 S
Tb864 O909 2.610 . S
Tb864 O911 2.320 . S
Tb864 O912 2.567 . S
Tb864 O913 2.413 1_455 S
Tb864 O915 2.362 . S
Tb864 O916 2.421 1_554 S
Tb864 C928 2.833 1_454 S
C865 C868 1.432 . S
C865 C869 1.414 . S
C865 N872 1.359 . S
C866 C868 1.417 . S
C866 C870 1.432 . S
C866 C878 1.410 1_554 S
C867 C869 1.444 . S
C867 C870 1.317 . S
C867 H890 0.929 . S
C868 C865 1.432 . S
C868 C866 1.417 . S
C868 N876 1.360 . S
C869 C865 1.414 . S
C869 C867 1.444 . S
C869 C874 1.385 . S
C870 C866 1.432 . S
C870 C867 1.317 . S
C870 H882 0.930 . S
C871 C873 1.392 . S
C871 C874 1.370 . S
C871 H883 0.931 . S
N872 C865 1.359 . S
N872 C873 1.327 . S
N872 Tb875 2.600 . S
C873 C871 1.392 . S
C873 N872 1.327 . S
C873 H880 0.930 . S
C874 C869 1.385 . S
C874 C871 1.370 . S
C874 H893 0.930 . S
Tb875 N872 2.600 . S
Tb875 N876 2.660 . S
Tb875 O909 2.362 . S
Tb875 O910 2.421 . S
Tb875 O914 2.546 . S
Tb875 O915 2.610 . S
Tb875 O917 2.320 1_554 S
Tb875 O918 2.552 . S
Tb875 O919 2.413 . S
Tb875 C939 2.833 . S
N876 C868 1.360 . S
N876 Tb875 2.660 . S
N876 C877 1.305 1_554 S
C877 N876 1.305 1_556 S
C877 C879 1.407 . S
C877 H884 0.930 . S
C878 C866 1.410 1_556 S
C878 C879 1.345 . S
C878 H886 0.930 . S
C879 C877 1.407 . S
C879 C878 1.345 . S
C879 H881 0.930 . S
H880 C873 0.930 . S
H881 C879 0.930 . S
H882 C870 0.930 . S
H883 C871 0.931 . S
H884 C877 0.930 . S
H885 C899 0.930 . S
H886 C878 0.930 . S
H887 C905 0.951 . S
H888 C896 0.930 1_545 S
H889 C903 0.931 . S
H890 C867 0.929 . S
H891 C897 0.930 . S
H892 C930 0.926 . S
H893 C874 0.930 . S
H894 C929 0.929 . S
N895 Tb864 2.660 1_565 S
N895 C896 1.305 . S
N895 C900 1.357 1_455 S
C896 H888 0.930 1_565 S
C896 N895 1.305 . S
C896 C899 1.407 . S
C897 H891 0.930 . S
C897 C898 1.410 . S
C897 C899 1.345 1_655 S
C898 C897 1.410 . S
C898 C900 1.420 . S
C898 C930 1.428 . S
C899 H885 0.930 . S
C899 C896 1.407 . S
C899 C897 1.345 1_455 S
C900 N895 1.357 1_655 S
C900 C898 1.420 . S
C900 C904 1.433 1_554 S
H901 C906 0.930 . S
N902 Tb864 2.600 1_566 S
N902 C904 1.347 1_455 S
N902 C905 1.327 . S
C903 H889 0.931 . S
C903 C905 1.392 1_655 S
C903 C906 1.370 . S
C904 C900 1.433 1_556 S
C904 N902 1.347 1_655 S
C904 C907 1.424 . S
C905 H887 0.951 . S
C905 N902 1.327 . S
C905 C903 1.392 1_455 S
C906 H901 0.930 . S
C906 C903 1.370 . S
C906 C907 1.385 . S
C907 C904 1.424 . S
C907 C906 1.385 . S
C907 C929 1.444 . S
O908 Tb864 2.546 1_656 S
O908 C928 1.251 . S
O909 Tb864 2.610 . S
O909 Tb875 2.362 . S
O909 C920 1.283 . S
O910 Tb875 2.421 . S
O910 C927 1.262 . S
O911 Tb864 2.320 . S
O911 C927 1.260 . S
O912 Tb864 2.567 . S
O912 C920 1.267 . S
O913 Tb864 2.413 1_655 S
O913 C928 1.256 1_554 S
O914 Tb875 2.546 . S
O914 C939 1.251 . S
O915 Tb864 2.362 . S
O915 Tb875 2.610 . S
O915 C931 1.282 1_545 S
O916 Tb864 2.421 1_556 S
O916 C938 1.262 . S
O917 Tb875 2.320 1_556 S
O917 C938 1.260 . S
O918 Tb875 2.552 . S
O918 C931 1.242 1_545 S
O919 Tb875 2.413 . S
O919 C939 1.256 . S
C920 O909 1.283 . S
C920 O912 1.267 . S
C921 C923 1.382 1_556 S
C921 C925 1.393 . S
C921 C928 1.500 . S
C922 C923 1.398 1_556 S
C922 C924 1.395 . S
C923 C921 1.382 1_554 S
C923 C922 1.398 1_554 S
C923 H940 0.930 . S
C924 C922 1.395 . S
C924 C926 1.392 . S
C924 H941 0.931 . S
C925 C921 1.393 . S
C925 C926 1.401 . S
C925 H942 0.930 . S
C926 C924 1.392 . S
C926 C925 1.401 . S
C926 H943 0.930 . S
C927 O910 1.262 . S
C927 O911 1.260 . S
C928 Tb864 2.833 1_656 S
C928 O908 1.251 . S
C928 O913 1.256 1_556 S
C928 C921 1.500 . S
C929 H894 0.929 . S
C929 C907 1.444 . S
C929 C930 1.325 1_556 S
C930 H892 0.926 . S
C930 C898 1.428 . S
C930 C929 1.325 1_554 S
C931 O915 1.282 1_565 S
C931 O918 1.242 1_565 S
C932 C933 1.382 . S
C932 C936 1.393 . S
C932 C939 1.500 . S
C933 C932 1.382 . S
C933 C934 1.400 . S
C933 H944 0.930 . S
C934 C933 1.400 . S
C934 C935 1.384 . S
C935 C934 1.384 . S
C935 C937 1.392 . S
C935 H945 0.931 . S
C936 C932 1.393 . S
C936 C937 1.401 . S
C936 H946 0.930 . S
C937 C935 1.392 . S
C937 C936 1.401 . S
C937 H947 0.930 . S
C938 O916 1.262 . S
C938 O917 1.260 . S
C939 Tb875 2.833 . S
C939 O914 1.251 . S
C939 O919 1.256 . S
C939 C932 1.500 . S
H940 C923 0.930 . S
H941 C924 0.931 . S
H942 C925 0.930 . S
H943 C926 0.930 . S
H944 C933 0.930 . S
H945 C935 0.931 . S
H946 C936 0.930 . S
H947 C937 0.930 . S
Tb948 N979 2.660 . S
Tb948 N986 2.600 . S
Tb948 O992 2.546 . S
Tb948 O993 2.610 . S
Tb948 O995 2.320 . S
Tb948 O996 2.552 . S
Tb948 O997 2.413 . S
Tb948 O999 2.362 . S
Tb948 O1000 2.421 . S
Tb948 C1012 2.833 . S
C949 C952 1.432 . S
C949 C953 1.414 . S
C949 N956 1.359 . S
C950 C952 1.417 . S
C950 C954 1.432 . S
C950 C962 1.410 . S
C951 C953 1.444 . S
C951 C954 1.317 . S
C951 H974 0.929 . S
C952 C949 1.432 . S
C952 C950 1.417 . S
C952 N960 1.360 . S
C953 C949 1.414 . S
C953 C951 1.444 . S
C953 C958 1.385 . S
C954 C950 1.432 . S
C954 C951 1.317 . S
C954 H966 0.930 . S
C955 C957 1.392 . S
C955 C958 1.370 . S
C955 H967 0.931 . S
N956 C949 1.359 . S
N956 C957 1.327 . S
N956 Tb959 2.600 . S
C957 C955 1.392 . S
C957 N956 1.327 . S
C957 H964 0.930 . S
C958 C953 1.385 . S
C958 C955 1.370 . S
C958 H977 0.930 . S
Tb959 N956 2.600 . S
Tb959 N960 2.660 . S
Tb959 O993 2.362 . S
Tb959 O994 2.421 . S
Tb959 O998 2.546 . S
Tb959 O999 2.610 . S
Tb959 O1001 2.320 . S
Tb959 O1002 2.552 . S
Tb959 O1003 2.413 . S
Tb959 C1023 2.833 . S
N960 C952 1.360 . S
N960 Tb959 2.660 . S
N960 C961 1.305 . S
C961 N960 1.305 . S
C961 C963 1.407 . S
C961 H968 0.930 . S
C962 C950 1.410 . S
C962 C963 1.345 . S
C962 H970 0.930 . S
C963 C961 1.407 . S
C963 C962 1.345 . S
C963 H965 0.930 . S
H964 C957 0.930 . S
H965 C963 0.930 . S
H966 C954 0.930 . S
H967 C955 0.931 . S
H968 C961 0.930 . S
H969 C983 0.930 . S
H970 C962 0.930 . S
H971 C989 0.930 . S
H972 C980 0.930 . S
H973 C987 0.931 . S
H974 C951 0.929 . S
H975 C981 0.930 . S
H976 C1014 0.930 . S
H977 C958 0.930 . S
H978 C1013 0.929 . S
N979 Tb948 2.660 . S
N979 C980 1.305 . S
N979 C984 1.360 . S
C980 H972 0.930 . S
C980 N979 1.305 . S
C980 C983 1.407 . S
C981 H975 0.930 . S
C981 C982 1.410 . S
C981 C983 1.345 . S
C982 C981 1.410 . S
C982 C984 1.417 . S
C982 C1014 1.432 . S
C983 H969 0.930 . S
C983 C980 1.407 . S
C983 C981 1.345 . S
C984 N979 1.360 . S
C984 C982 1.417 . S
C984 C988 1.432 . S
H985 C990 0.930 . S
N986 Tb948 2.600 . S
N986 C988 1.359 . S
N986 C989 1.327 . S
C987 H973 0.931 . S
C987 C989 1.392 . S
C987 C990 1.370 . S
C988 C984 1.432 . S
C988 N986 1.359 . S
C988 C991 1.414 . S
C989 H971 0.930 . S
C989 N986 1.327 . S
C989 C987 1.392 . S
C990 H985 0.930 . S
C990 C987 1.370 . S
C990 C991 1.385 . S
C991 C988 1.414 . S
C991 C990 1.385 . S
C991 C1013 1.444 . S
O992 Tb948 2.546 . S
O992 C1012 1.251 . S
O993 Tb948 2.610 . S
O993 Tb959 2.362 . S
O993 C1004 1.283 . S
O994 Tb959 2.421 . S
O994 C1011 1.262 . S
O995 Tb948 2.320 . S
O995 C1011 1.260 . S
O996 Tb948 2.552 . S
O996 C1004 1.243 . S
O997 Tb948 2.413 . S
O997 C1012 1.256 . S
O998 Tb959 2.546 . S
O998 C1023 1.251 . S
O999 Tb948 2.362 . S
O999 Tb959 2.610 . S
O999 C1015 1.283 . S
O1000 Tb948 2.421 . S
O1000 C1022 1.262 . S
O1001 Tb959 2.320 . S
O1001 C1022 1.260 . S
O1002 Tb959 2.552 . S
O1002 C1015 1.243 . S
O1003 Tb959 2.413 . S
O1003 C1023 1.256 . S
C1004 O993 1.283 . S
C1004 O996 1.243 . S
C1005 C1007 1.382 . S
C1005 C1009 1.393 . S
C1005 C1012 1.500 . S
C1006 C1007 1.400 . S
C1006 C1008 1.384 . S
C1007 C1005 1.382 . S
C1007 C1006 1.400 . S
C1007 H1024 0.930 . S
C1008 C1006 1.384 . S
C1008 C1010 1.392 . S
C1008 H1025 0.931 . S
C1009 C1005 1.393 . S
C1009 C1010 1.401 . S
C1009 H1026 0.930 . S
C1010 C1008 1.392 . S
C1010 C1009 1.401 . S
C1010 H1027 0.930 . S
C1011 O994 1.262 . S
C1011 O995 1.260 . S
C1012 Tb948 2.833 . S
C1012 O992 1.251 . S
C1012 O997 1.256 . S
C1012 C1005 1.500 . S
C1013 H978 0.929 . S
C1013 C991 1.444 . S
C1013 C1014 1.317 . S
C1014 H976 0.930 . S
C1014 C982 1.432 . S
C1014 C1013 1.317 . S
C1015 O999 1.283 . S
C1015 O1002 1.243 . S
C1016 C1017 1.382 . S
C1016 C1020 1.393 . S
C1016 C1023 1.500 . S
C1017 C1016 1.382 . S
C1017 C1018 1.400 . S
C1017 H1028 0.930 . S
C1018 C1017 1.400 . S
C1018 C1019 1.384 . S
C1019 C1018 1.384 . S
C1019 C1021 1.392 . S
C1019 H1029 0.931 . S
C1020 C1016 1.393 . S
C1020 C1021 1.401 . S
C1020 H1030 0.930 . S
C1021 C1019 1.392 . S
C1021 C1020 1.401 . S
C1021 H1031 0.930 . S
C1022 O1000 1.262 . S
C1022 O1001 1.260 . S
C1023 Tb959 2.833 . S
C1023 O998 1.251 . S
C1023 O1003 1.256 . S
C1023 C1016 1.500 . S
H1024 C1007 0.930 . S
H1025 C1008 0.931 . S
H1026 C1009 0.930 . S
H1027 C1010 0.930 . S
H1028 C1017 0.930 . S
H1029 C1019 0.931 . S
H1030 C1020 0.930 . S
H1031 C1021 0.930 . S
Tb1032 N1063 2.660 . S
Tb1032 N1070 2.600 . S
Tb1032 O1076 2.546 . S
Tb1032 O1077 2.610 . S
Tb1032 O1079 2.320 . S
Tb1032 O1080 2.552 . S
Tb1032 O1081 2.413 . S
Tb1032 O1083 2.362 . S
Tb1032 O1084 2.421 . S
Tb1032 C1096 2.833 . S
C1033 C1036 1.430 1_545 S
C1033 C1037 1.396 1_545 S
C1033 N1040 1.379 . S
C1034 C1036 1.417 . S
C1034 C1038 1.432 . S
C1034 C1046 1.410 . S
C1035 C1037 1.444 . S
C1035 C1038 1.317 . S
C1035 H1058 0.929 . S
C1036 C1033 1.430 1_565 S
C1036 C1034 1.417 . S
C1036 N1044 1.360 1_565 S
C1037 C1033 1.396 1_565 S
C1037 C1035 1.444 . S
C1037 C1042 1.385 . S
C1038 C1034 1.432 . S
C1038 C1035 1.317 . S
C1038 H1050 0.930 . S
C1039 C1041 1.392 . S
C1039 C1042 1.370 1_545 S
C1039 H1051 0.931 . S
N1040 C1033 1.379 . S
N1040 C1041 1.327 . S
N1040 Tb1043 2.600 . S
C1041 C1039 1.392 . S
C1041 N1040 1.327 . S
C1041 H1048 0.930 . S
C1042 C1037 1.385 . S
C1042 C1039 1.370 1_565 S
C1042 H1061 0.930 . S
Tb1043 N1040 2.600 . S
Tb1043 N1044 2.660 . S
Tb1043 O1077 2.362 . S
Tb1043 O1078 2.421 . S
Tb1043 O1082 2.546 . S
Tb1043 O1083 2.610 . S
Tb1043 O1085 2.320 . S
Tb1043 O1086 2.552 . S
Tb1043 O1087 2.413 . S
Tb1043 C1107 2.833 . S
N1044 C1036 1.360 1_545 S
N1044 Tb1043 2.660 . S
N1044 C1045 1.305 . S
C1045 N1044 1.305 . S
C1045 C1047 1.407 1_545 S
C1045 H1052 0.930 . S
C1046 C1034 1.410 . S
C1046 C1047 1.345 . S
C1046 H1054 0.930 . S
C1047 C1045 1.407 1_565 S
C1047 C1046 1.345 . S
C1047 H1049 0.930 . S
H1048 C1041 0.930 . S
H1049 C1047 0.930 . S
H1050 C1038 0.930 . S
H1051 C1039 0.931 . S
H1052 C1045 0.930 . S
H1053 C1067 0.930 . S
H1054 C1046 0.930 . S
H1055 C1073 0.930 . S
H1056 C1064 0.930 . S
H1057 C1071 0.931 . S
H1058 C1035 0.929 . S
H1059 C1065 0.930 . S
H1060 C1098 0.930 . S
H1061 C1042 0.930 . S
H1062 C1097 0.929 . S
N1063 Tb1032 2.660 . S
N1063 C1064 1.305 . S
N1063 C1068 1.360 . S
C1064 H1056 0.930 . S
C1064 N1063 1.305 . S
C1064 C1067 1.407 . S
C1065 H1059 0.930 . S
C1065 C1066 1.410 . S
C1065 C1067 1.345 . S
C1066 C1065 1.410 . S
C1066 C1068 1.417 . S
C1066 C1098 1.432 . S
C1067 H1053 0.930 . S
C1067 C1064 1.407 . S
C1067 C1065 1.345 . S
C1068 N1063 1.360 . S
C1068 C1066 1.417 . S
C1068 C1072 1.432 . S
H1069 C1074 0.930 . S
N1070 Tb1032 2.600 . S
N1070 C1072 1.359 . S
N1070 C1073 1.327 . S
C1071 H1057 0.931 . S
C1071 C1073 1.392 . S
C1071 C1074 1.370 . S
C1072 C1068 1.432 . S
C1072 N1070 1.359 . S
C1072 C1075 1.414 . S
C1073 H1055 0.930 . S
C1073 N1070 1.327 . S
C1073 C1071 1.392 . S
C1074 H1069 0.930 . S
C1074 C1071 1.370 . S
C1074 C1075 1.385 . S
C1075 C1072 1.414 . S
C1075 C1074 1.385 . S
C1075 C1097 1.444 . S
O1076 Tb1032 2.546 . S
O1076 C1096 1.251 . S
O1077 Tb1032 2.610 . S
O1077 Tb1043 2.362 . S
O1077 C1088 1.283 . S
O1078 Tb1043 2.421 . S
O1078 C1095 1.262 . S
O1079 Tb1032 2.320 . S
O1079 C1095 1.260 . S
O1080 Tb1032 2.552 . S
O1080 C1088 1.243 . S
O1081 Tb1032 2.413 . S
O1081 C1096 1.256 . S
O1082 Tb1043 2.546 . S
O1082 C1107 1.251 . S
O1083 Tb1032 2.362 . S
O1083 Tb1043 2.610 . S
O1083 C1099 1.283 . S
O1084 Tb1032 2.421 . S
O1084 C1106 1.262 . S
O1085 Tb1043 2.320 . S
O1085 C1106 1.260 . S
O1086 Tb1043 2.552 . S
O1086 C1099 1.243 . S
O1087 Tb1043 2.413 . S
O1087 C1107 1.256 . S
C1088 O1077 1.283 . S
C1088 O1080 1.243 . S
C1089 C1091 1.382 . S
C1089 C1093 1.393 . S
C1089 C1096 1.500 . S
C1090 C1091 1.423 . S
C1090 C1092 1.388 . S
C1091 C1089 1.382 . S
C1091 C1090 1.423 . S
C1091 H1108 0.930 . S
C1092 C1090 1.388 . S
C1092 C1094 1.392 . S
C1092 H1109 0.931 1_545 S
C1093 C1089 1.393 . S
C1093 C1094 1.401 . S
C1093 H1110 0.930 . S
C1094 C1092 1.392 . S
C1094 C1093 1.401 . S
C1094 H1111 0.930 . S
C1095 O1078 1.262 . S
C1095 O1079 1.260 . S
C1096 Tb1032 2.833 . S
C1096 O1076 1.251 . S
C1096 O1081 1.256 . S
C1096 C1089 1.500 . S
C1097 H1062 0.929 . S
C1097 C1075 1.444 . S
C1097 C1098 1.317 . S
C1098 H1060 0.930 . S
C1098 C1066 1.432 . S
C1098 C1097 1.317 . S
C1099 O1083 1.283 . S
C1099 O1086 1.243 . S
C1100 C1101 1.382 . S
C1100 C1104 1.393 . S
C1100 C1107 1.500 . S
C1101 C1100 1.382 . S
C1101 C1102 1.400 . S
C1101 H1112 0.930 . S
C1102 C1101 1.400 . S
C1102 C1103 1.384 . S
C1103 C1102 1.384 . S
C1103 C1105 1.392 . S
C1103 H1113 0.931 . S
C1104 C1100 1.393 . S
C1104 C1105 1.401 . S
C1104 H1114 0.930 . S
C1105 C1103 1.392 . S
C1105 C1104 1.401 . S
C1105 H1115 0.930 . S
C1106 O1084 1.262 . S
C1106 O1085 1.260 . S
C1107 Tb1043 2.833 . S
C1107 O1082 1.251 . S
C1107 O1087 1.256 . S
C1107 C1100 1.500 . S
H1108 C1091 0.930 . S
H1109 C1092 0.931 1_565 S
H1110 C1093 0.930 . S
H1111 C1094 0.930 . S
H1112 C1101 0.930 . S
H1113 C1103 0.931 . S
H1114 C1104 0.930 . S
H1115 C1105 0.930 . S
Tb1116 N1147 2.660 . S
Tb1116 N1154 2.600 . S
Tb1116 O1160 2.546 . S
Tb1116 O1161 2.610 . S
Tb1116 O1163 2.320 . S
Tb1116 O1164 2.552 . S
Tb1116 O1165 2.413 . S
Tb1116 O1167 2.362 . S
Tb1116 O1168 2.421 . S
Tb1116 C1180 2.833 . S
C1117 C1120 1.432 . S
C1117 C1121 1.414 . S
C1117 N1124 1.359 . S
C1118 C1120 1.417 . S
C1118 C1122 1.432 . S
C1118 C1130 1.410 . S
C1119 C1121 1.444 . S
C1119 C1122 1.317 . S
C1119 H1142 0.929 . S
C1120 C1117 1.432 . S
C1120 C1118 1.417 . S
C1120 N1128 1.360 . S
C1121 C1117 1.414 . S
C1121 C1119 1.444 . S
C1121 C1126 1.385 . S
C1122 C1118 1.432 . S
C1122 C1119 1.317 . S
C1122 H1134 0.930 . S
C1123 C1125 1.392 . S
C1123 C1126 1.370 . S
C1123 H1135 0.931 . S
N1124 C1117 1.359 . S
N1124 C1125 1.327 . S
N1124 Tb1127 2.600 . S
C1125 C1123 1.392 . S
C1125 N1124 1.327 . S
C1125 H1132 0.930 . S
C1126 C1121 1.385 . S
C1126 C1123 1.370 . S
C1126 H1145 0.930 . S
Tb1127 N1124 2.600 . S
Tb1127 N1128 2.660 . S
Tb1127 O1161 2.362 . S
Tb1127 O1162 2.421 . S
Tb1127 O1166 2.546 . S
Tb1127 O1167 2.610 . S
Tb1127 O1169 2.320 . S
Tb1127 O1170 2.552 . S
Tb1127 O1171 2.413 . S
Tb1127 C1191 2.833 . S
N1128 C1120 1.360 . S
N1128 Tb1127 2.660 . S
N1128 C1129 1.305 . S
C1129 N1128 1.305 . S
C1129 C1131 1.407 . S
C1129 H1136 0.930 . S
C1130 C1118 1.410 . S
C1130 C1131 1.345 . S
C1130 H1138 0.930 . S
C1131 C1129 1.407 . S
C1131 C1130 1.345 . S
C1131 H1133 0.930 . S
H1132 C1125 0.930 . S
H1133 C1131 0.930 . S
H1134 C1122 0.930 . S
H1135 C1123 0.931 . S
H1136 C1129 0.930 . S
H1137 C1151 0.930 . S
H1138 C1130 0.930 . S
H1139 C1157 0.930 . S
H1140 C1148 0.930 . S
H1141 C1155 0.931 . S
H1142 C1119 0.929 . S
H1143 C1149 0.930 . S
H1144 C1182 0.930 . S
H1145 C1126 0.930 . S
H1146 C1181 0.929 . S
N1147 Tb1116 2.660 . S
N1147 C1148 1.305 . S
N1147 C1152 1.360 . S
C1148 H1140 0.930 . S
C1148 N1147 1.305 . S
C1148 C1151 1.407 . S
C1149 H1143 0.930 . S
C1149 C1150 1.410 . S
C1149 C1151 1.345 . S
C1150 C1149 1.410 . S
C1150 C1152 1.417 . S
C1150 C1182 1.432 . S
C1151 H1137 0.930 . S
C1151 C1148 1.407 . S
C1151 C1149 1.345 . S
C1152 N1147 1.360 . S
C1152 C1150 1.417 . S
C1152 C1156 1.432 . S
H1153 C1158 0.930 . S
N1154 Tb1116 2.600 . S
N1154 C1156 1.359 . S
N1154 C1157 1.327 . S
C1155 H1141 0.931 . S
C1155 C1157 1.392 . S
C1155 C1158 1.370 . S
C1156 C1152 1.432 . S
C1156 N1154 1.359 . S
C1156 C1159 1.414 . S
C1157 H1139 0.930 . S
C1157 N1154 1.327 . S
C1157 C1155 1.392 . S
C1158 H1153 0.930 . S
C1158 C1155 1.370 . S
C1158 C1159 1.385 . S
C1159 C1156 1.414 . S
C1159 C1158 1.385 . S
C1159 C1181 1.444 . S
O1160 Tb1116 2.546 . S
O1160 C1180 1.251 . S
O1161 Tb1116 2.610 . S
O1161 Tb1127 2.362 . S
O1161 C1172 1.283 . S
O1162 Tb1127 2.421 . S
O1162 C1179 1.262 . S
O1163 Tb1116 2.320 . S
O1163 C1179 1.260 . S
O1164 Tb1116 2.552 . S
O1164 C1172 1.243 . S
O1165 Tb1116 2.413 . S
O1165 C1180 1.256 . S
O1166 Tb1127 2.546 . S
O1166 C1191 1.251 . S
O1167 Tb1116 2.362 . S
O1167 Tb1127 2.610 . S
O1167 C1183 1.283 . S
O1168 Tb1116 2.421 . S
O1168 C1190 1.262 . S
O1169 Tb1127 2.320 . S
O1169 C1190 1.260 . S
O1170 Tb1127 2.552 . S
O1170 C1183 1.243 . S
O1171 Tb1127 2.413 . S
O1171 C1191 1.256 . S
C1172 O1161 1.283 . S
C1172 O1164 1.243 . S
C1173 C1175 1.382 . S
C1173 C1177 1.393 . S
C1173 C1180 1.500 . S
C1174 C1175 1.400 . S
C1174 C1176 1.384 . S
C1175 C1173 1.382 . S
C1175 C1174 1.400 . S
C1175 H1192 0.930 . S
C1176 C1174 1.384 . S
C1176 C1178 1.392 . S
C1176 H1193 0.931 . S
C1177 C1173 1.393 . S
C1177 C1178 1.401 . S
C1177 H1194 0.930 . S
C1178 C1176 1.392 . S
C1178 C1177 1.401 . S
C1178 H1195 0.930 . S
C1179 O1162 1.262 . S
C1179 O1163 1.260 . S
C1180 Tb1116 2.833 . S
C1180 O1160 1.251 . S
C1180 O1165 1.256 . S
C1180 C1173 1.500 . S
C1181 H1146 0.929 . S
C1181 C1159 1.444 . S
C1181 C1182 1.317 . S
C1182 H1144 0.930 . S
C1182 C1150 1.432 . S
C1182 C1181 1.317 . S
C1183 O1167 1.283 . S
C1183 O1170 1.243 . S
C1184 C1185 1.382 . S
C1184 C1188 1.393 . S
C1184 C1191 1.500 . S
C1185 C1184 1.382 . S
C1185 C1186 1.400 . S
C1185 H1196 0.930 . S
C1186 C1185 1.400 . S
C1186 C1187 1.384 . S
C1187 C1186 1.384 . S
C1187 C1189 1.392 . S
C1187 H1197 0.931 . S
C1188 C1184 1.393 . S
C1188 C1189 1.401 . S
C1188 H1198 0.930 . S
C1189 C1187 1.392 . S
C1189 C1188 1.401 . S
C1189 H1199 0.930 . S
C1190 O1168 1.262 . S
C1190 O1169 1.260 . S
C1191 Tb1127 2.833 . S
C1191 O1166 1.251 . S
C1191 O1171 1.256 . S
C1191 C1184 1.500 . S
H1192 C1175 0.930 . S
H1193 C1176 0.931 . S
H1194 C1177 0.930 . S
H1195 C1178 0.930 . S
H1196 C1185 0.930 . S
H1197 C1187 0.931 . S
H1198 C1188 0.930 . S
H1199 C1189 0.930 . S
Tb1200 N1231 2.660 . S
Tb1200 N1238 2.600 . S
Tb1200 O1244 2.546 . S
Tb1200 O1245 2.610 . S
Tb1200 O1247 2.320 . S
Tb1200 O1248 2.552 . S
Tb1200 O1249 2.413 . S
Tb1200 O1251 2.362 . S
Tb1200 O1252 2.421 . S
Tb1200 C1264 2.833 . S
C1201 C1204 1.432 . S
C1201 C1205 1.414 . S
C1201 N1208 1.366 . S
C1202 C1204 1.417 . S
C1202 C1206 1.432 . S
C1202 C1214 1.410 . S
C1203 C1205 1.444 . S
C1203 C1206 1.317 . S
C1203 H1226 0.929 . S
C1204 C1201 1.432 . S
C1204 C1202 1.417 . S
C1204 N1212 1.360 . S
C1205 C1201 1.414 . S
C1205 C1203 1.444 . S
C1205 C1210 1.385 . S
C1206 C1202 1.432 . S
C1206 C1203 1.317 . S
C1206 H1218 0.930 . S
C1207 C1209 1.392 1_565 S
C1207 C1210 1.370 . S
C1207 H1219 0.931 . S
N1208 C1201 1.366 . S
N1208 C1209 1.331 1_565 S
N1208 Tb1211 2.593 1_565 S
C1209 C1207 1.392 1_545 S
C1209 N1208 1.331 1_545 S
C1209 H1216 0.930 . S
C1210 C1205 1.385 . S
C1210 C1207 1.370 . S
C1210 H1229 0.930 . S
Tb1211 N1208 2.593 1_545 S
Tb1211 N1212 2.660 1_545 S
Tb1211 O1245 2.362 . S
Tb1211 O1246 2.421 . S
Tb1211 O1250 2.546 1_545 S
Tb1211 O1251 2.610 . S
Tb1211 O1253 2.320 . S
Tb1211 O1254 2.552 . S
Tb1211 O1255 2.413 1_545 S
Tb1211 C1275 2.833 1_545 S
N1212 C1204 1.360 . S
N1212 Tb1211 2.660 1_565 S
N1212 C1213 1.305 . S
C1213 N1212 1.305 . S
C1213 C1215 1.407 . S
C1213 H1220 0.930 . S
C1214 C1202 1.410 . S
C1214 C1215 1.345 . S
C1214 H1222 0.930 . S
C1215 C1213 1.407 . S
C1215 C1214 1.345 . S
C1215 H1217 0.930 1_455 S
H1216 C1209 0.930 . S
H1217 C1215 0.930 1_655 S
H1218 C1206 0.930 . S
H1219 C1207 0.931 . S
H1220 C1213 0.930 . S
H1221 C1235 0.930 . S
H1222 C1214 0.930 . S
H1223 C1241 0.930 . S
H1224 C1232 0.930 . S
H1225 C1239 0.932 1_655 S
H1226 C1203 0.929 . S
H1227 C1233 0.930 . S
H1228 C1266 0.930 . S
H1229 C1210 0.930 . S
H1230 C1265 0.929 . S
N1231 Tb1200 2.660 . S
N1231 C1232 1.305 . S
N1231 C1236 1.360 . S
C1232 H1224 0.930 . S
C1232 N1231 1.305 . S
C1232 C1235 1.407 . S
C1233 H1227 0.930 . S
C1233 C1234 1.410 . S
C1233 C1235 1.345 . S
C1234 C1233 1.410 . S
C1234 C1236 1.417 . S
C1234 C1266 1.432 . S
C1235 H1221 0.930 . S
C1235 C1232 1.407 . S
C1235 C1233 1.345 . S
C1236 N1231 1.360 . S
C1236 C1234 1.417 . S
C1236 C1240 1.432 . S
H1237 C1242 0.930 . S
N1238 Tb1200 2.600 . S
N1238 C1240 1.359 . S
N1238 C1241 1.327 . S
C1239 H1225 0.932 1_455 S
C1239 C1241 1.391 . S
C1239 C1242 1.369 . S
C1240 C1236 1.432 . S
C1240 N1238 1.359 . S
C1240 C1243 1.414 . S
C1241 H1223 0.930 . S
C1241 N1238 1.327 . S
C1241 C1239 1.391 . S
C1242 H1237 0.930 . S
C1242 C1239 1.369 . S
C1242 C1243 1.385 . S
C1243 C1240 1.414 . S
C1243 C1242 1.385 . S
C1243 C1265 1.444 . S
O1244 Tb1200 2.546 . S
O1244 C1264 1.251 . S
O1245 Tb1200 2.610 . S
O1245 Tb1211 2.362 . S
O1245 C1256 1.283 . S
O1246 Tb1211 2.421 . S
O1246 C1263 1.262 . S
O1247 Tb1200 2.320 . S
O1247 C1263 1.260 . S
O1248 Tb1200 2.552 . S
O1248 C1256 1.243 . S
O1249 Tb1200 2.413 . S
O1249 C1264 1.256 . S
O1250 Tb1211 2.546 1_565 S
O1250 C1275 1.251 . S
O1251 Tb1200 2.362 . S
O1251 Tb1211 2.610 . S
O1251 C1267 1.283 . S
O1252 Tb1200 2.421 . S
O1252 C1274 1.262 . S
O1253 Tb1211 2.320 . S
O1253 C1274 1.260 . S
O1254 Tb1211 2.552 . S
O1254 C1267 1.243 . S
O1255 Tb1211 2.413 1_565 S
O1255 C1275 1.256 . S
C1256 O1245 1.283 . S
C1256 O1248 1.243 . S
C1257 C1259 1.382 . S
C1257 C1261 1.393 . S
C1257 C1264 1.500 . S
C1258 C1259 1.400 . S
C1258 C1260 1.384 . S
C1259 C1257 1.382 . S
C1259 C1258 1.400 . S
C1259 H1276 0.930 . S
C1260 C1258 1.384 . S
C1260 C1262 1.392 . S
C1260 H1277 0.931 . S
C1261 C1257 1.393 . S
C1261 C1262 1.401 . S
C1261 H1278 0.930 . S
C1262 C1260 1.392 . S
C1262 C1261 1.401 . S
C1262 H1279 0.930 . S
C1263 O1246 1.262 . S
C1263 O1247 1.260 . S
C1264 Tb1200 2.833 . S
C1264 O1244 1.251 . S
C1264 O1249 1.256 . S
C1264 C1257 1.500 . S
C1265 H1230 0.929 . S
C1265 C1243 1.444 . S
C1265 C1266 1.317 . S
C1266 H1228 0.930 . S
C1266 C1234 1.432 . S
C1266 C1265 1.317 . S
C1267 O1251 1.283 . S
C1267 O1254 1.243 . S
C1268 C1269 1.382 . S
C1268 C1272 1.393 . S
C1268 C1275 1.500 . S
C1269 C1268 1.382 . S
C1269 C1270 1.400 . S
C1269 H1280 0.930 . S
C1270 C1269 1.400 . S
C1270 C1271 1.384 . S
C1271 C1270 1.384 . S
C1271 C1273 1.392 . S
C1271 H1281 0.931 . S
C1272 C1268 1.393 . S
C1272 C1273 1.401 . S
C1272 H1282 0.930 . S
C1273 C1271 1.392 . S
C1273 C1272 1.401 . S
C1273 H1283 0.930 . S
C1274 O1252 1.262 . S
C1274 O1253 1.260 . S
C1275 Tb1211 2.833 1_565 S
C1275 O1250 1.251 . S
C1275 O1255 1.256 . S
C1275 C1268 1.500 . S
H1276 C1259 0.930 . S
H1277 C1260 0.931 . S
H1278 C1261 0.930 . S
H1279 C1262 0.930 . S
H1280 C1269 0.930 . S
H1281 C1271 0.931 . S
H1282 C1272 0.930 . S
H1283 C1273 0.930 . S
Tb1284 N1315 2.660 . S
Tb1284 N1322 2.600 . S
Tb1284 O1328 2.546 . S
Tb1284 O1329 2.610 . S
Tb1284 O1331 2.320 . S
Tb1284 O1332 2.552 . S
Tb1284 O1333 2.413 . S
Tb1284 O1335 2.362 . S
Tb1284 O1336 2.421 . S
Tb1284 C1348 2.833 . S
C1285 C1288 1.432 . S
C1285 C1289 1.414 . S
C1285 N1292 1.359 . S
C1286 C1288 1.417 . S
C1286 C1290 1.432 . S
C1286 C1298 1.410 . S
C1287 C1289 1.444 . S
C1287 C1290 1.317 . S
C1287 H1310 0.929 . S
C1288 C1285 1.432 . S
C1288 C1286 1.417 . S
C1288 N1296 1.360 . S
C1289 C1285 1.414 . S
C1289 C1287 1.444 . S
C1289 C1294 1.385 . S
C1290 C1286 1.432 . S
C1290 C1287 1.317 . S
C1290 H1302 0.930 . S
C1291 C1293 1.392 . S
C1291 C1294 1.370 . S
C1291 H1303 0.931 . S
N1292 C1285 1.359 . S
N1292 C1293 1.327 . S
N1292 Tb1295 2.600 . S
C1293 C1291 1.392 . S
C1293 N1292 1.327 . S
C1293 H1300 0.930 . S
C1294 C1289 1.385 . S
C1294 C1291 1.370 . S
C1294 H1313 0.930 . S
Tb1295 N1292 2.600 . S
Tb1295 N1296 2.660 . S
Tb1295 O1329 2.362 . S
Tb1295 O1330 2.421 . S
Tb1295 O1334 2.546 . S
Tb1295 O1335 2.610 . S
Tb1295 O1337 2.320 . S
Tb1295 O1338 2.552 . S
Tb1295 O1339 2.413 . S
Tb1295 C1359 2.833 . S
N1296 C1288 1.360 . S
N1296 Tb1295 2.660 . S
N1296 C1297 1.305 . S
C1297 N1296 1.305 . S
C1297 C1299 1.407 . S
C1297 H1304 0.930 . S
C1298 C1286 1.410 . S
C1298 C1299 1.345 . S
C1298 H1306 0.930 . S
C1299 C1297 1.407 . S
C1299 C1298 1.345 . S
C1299 H1301 0.930 . S
H1300 C1293 0.930 . S
H1301 C1299 0.930 . S
H1302 C1290 0.930 . S
H1303 C1291 0.931 . S
H1304 C1297 0.930 . S
H1305 C1319 0.930 . S
H1306 C1298 0.930 . S
H1307 C1325 0.930 . S
H1308 C1316 0.930 . S
H1309 C1323 0.931 . S
H1310 C1287 0.929 . S
H1311 C1317 0.930 . S
H1312 C1350 0.930 . S
H1313 C1294 0.930 . S
H1314 C1349 0.929 . S
N1315 Tb1284 2.660 . S
N1315 C1316 1.305 . S
N1315 C1320 1.360 . S
C1316 H1308 0.930 . S
C1316 N1315 1.305 . S
C1316 C1319 1.407 . S
C1317 H1311 0.930 . S
C1317 C1318 1.410 . S
C1317 C1319 1.345 . S
C1318 C1317 1.410 . S
C1318 C1320 1.417 . S
C1318 C1350 1.432 . S
C1319 H1305 0.930 . S
C1319 C1316 1.407 . S
C1319 C1317 1.345 . S
C1320 N1315 1.360 . S
C1320 C1318 1.417 . S
C1320 C1324 1.432 . S
H1321 C1326 0.930 . S
N1322 Tb1284 2.600 . S
N1322 C1324 1.359 . S
N1322 C1325 1.327 . S
C1323 H1309 0.931 . S
C1323 C1325 1.392 . S
C1323 C1326 1.370 . S
C1324 C1320 1.432 . S
C1324 N1322 1.359 . S
C1324 C1327 1.414 . S
C1325 H1307 0.930 . S
C1325 N1322 1.327 . S
C1325 C1323 1.392 . S
C1326 H1321 0.930 . S
C1326 C1323 1.370 . S
C1326 C1327 1.385 . S
C1327 C1324 1.414 . S
C1327 C1326 1.385 . S
C1327 C1349 1.444 . S
O1328 Tb1284 2.546 . S
O1328 C1348 1.251 . S
O1329 Tb1284 2.610 . S
O1329 Tb1295 2.362 . S
O1329 C1340 1.283 . S
O1330 Tb1295 2.421 . S
O1330 C1347 1.262 . S
O1331 Tb1284 2.320 . S
O1331 C1347 1.260 . S
O1332 Tb1284 2.552 . S
O1332 C1340 1.243 . S
O1333 Tb1284 2.413 . S
O1333 C1348 1.256 . S
O1334 Tb1295 2.546 . S
O1334 C1359 1.251 . S
O1335 Tb1284 2.362 . S
O1335 Tb1295 2.610 . S
O1335 C1351 1.283 . S
O1336 Tb1284 2.421 . S
O1336 C1358 1.262 . S
O1337 Tb1295 2.320 . S
O1337 C1358 1.260 . S
O1338 Tb1295 2.552 . S
O1338 C1351 1.243 . S
O1339 Tb1295 2.413 . S
O1339 C1359 1.256 . S
C1340 O1329 1.283 . S
C1340 O1332 1.243 . S
C1341 C1343 1.382 . S
C1341 C1345 1.393 . S
C1341 C1348 1.500 . S
C1342 C1343 1.400 . S
C1342 C1344 1.384 . S
C1343 C1341 1.382 . S
C1343 C1342 1.400 . S
C1343 H1360 0.930 . S
C1344 C1342 1.384 . S
C1344 C1346 1.392 . S
C1344 H1361 0.931 . S
C1345 C1341 1.393 . S
C1345 C1346 1.401 . S
C1345 H1362 0.930 . S
C1346 C1344 1.392 . S
C1346 C1345 1.401 . S
C1346 H1363 0.930 . S
C1347 O1330 1.262 . S
C1347 O1331 1.260 . S
C1348 Tb1284 2.833 . S
C1348 O1328 1.251 . S
C1348 O1333 1.256 . S
C1348 C1341 1.500 . S
C1349 H1314 0.929 . S
C1349 C1327 1.444 . S
C1349 C1350 1.317 . S
C1350 H1312 0.930 . S
C1350 C1318 1.432 . S
C1350 C1349 1.317 . S
C1351 O1335 1.283 . S
C1351 O1338 1.243 . S
C1352 C1353 1.382 . S
C1352 C1356 1.393 . S
C1352 C1359 1.500 . S
C1353 C1352 1.382 . S
C1353 C1354 1.400 . S
C1353 H1364 0.930 . S
C1354 C1353 1.400 . S
C1354 C1355 1.384 . S
C1355 C1354 1.384 . S
C1355 C1357 1.392 . S
C1355 H1365 0.931 . S
C1356 C1352 1.393 . S
C1356 C1357 1.401 . S
C1356 H1366 0.930 . S
C1357 C1355 1.392 . S
C1357 C1356 1.401 . S
C1357 H1367 0.930 . S
C1358 O1336 1.262 . S
C1358 O1337 1.260 . S
C1359 Tb1295 2.833 . S
C1359 O1334 1.251 . S
C1359 O1339 1.256 . S
C1359 C1352 1.500 . S
H1360 C1343 0.930 . S
H1361 C1344 0.931 . S
H1362 C1345 0.930 . S
H1363 C1346 0.930 . S
H1364 C1353 0.930 . S
H1365 C1355 0.931 . S
H1366 C1356 0.930 . S
H1367 C1357 0.930 . S
Tb1368 N1399 2.660 . S
Tb1368 N1406 2.600 . S
Tb1368 O1412 2.546 . S
Tb1368 O1413 2.610 . S
Tb1368 O1415 2.320 . S
Tb1368 O1416 2.552 . S
Tb1368 O1417 2.413 . S
Tb1368 O1419 2.362 . S
Tb1368 O1420 2.421 . S
Tb1368 C1432 2.833 . S
C1369 C1372 1.432 . S
C1369 C1373 1.414 . S
C1369 N1376 1.359 . S
C1370 C1372 1.417 . S
C1370 C1374 1.432 . S
C1370 C1382 1.402 1_545 S
C1371 C1373 1.444 . S
C1371 C1374 1.317 . S
C1371 H1394 0.929 . S
C1372 C1369 1.432 . S
C1372 C1370 1.417 . S
C1372 N1380 1.360 . S
C1373 C1369 1.414 . S
C1373 C1371 1.444 . S
C1373 C1378 1.385 . S
C1374 C1370 1.432 . S
C1374 C1371 1.317 . S
C1374 H1386 0.930 . S
C1375 C1377 1.392 . S
C1375 C1378 1.370 . S
C1375 H1387 0.931 . S
N1376 C1369 1.359 . S
N1376 C1377 1.327 . S
N1376 Tb1379 2.600 . S
C1377 C1375 1.392 . S
C1377 N1376 1.327 . S
C1377 H1384 0.930 . S
C1378 C1373 1.385 . S
C1378 C1375 1.370 . S
C1378 H1397 0.930 . S
Tb1379 N1376 2.600 . S
Tb1379 N1380 2.660 . S
Tb1379 O1413 2.362 1_556 S
Tb1379 O1414 2.421 1_556 S
Tb1379 O1418 2.546 . S
Tb1379 O1419 2.610 1_556 S
Tb1379 O1421 2.320 . S
Tb1379 O1422 2.554 . S
Tb1379 O1423 2.413 . S
Tb1379 C1443 2.833 . S
N1380 C1372 1.360 . S
N1380 Tb1379 2.660 . S
N1380 C1381 1.305 . S
C1381 N1380 1.305 . S
C1381 C1383 1.407 1_545 S
C1381 H1388 0.930 . S
C1382 C1370 1.402 1_565 S
C1382 C1383 1.350 . S
C1382 H1390 0.933 . S
C1383 C1381 1.407 1_565 S
C1383 C1382 1.350 . S
C1383 H1385 0.930 . S
H1384 C1377 0.930 . S
H1385 C1383 0.930 . S
H1386 C1374 0.930 . S
H1387 C1375 0.931 . S
H1388 C1381 0.930 . S
H1389 C1403 0.930 . S
H1390 C1382 0.933 . S
H1391 C1409 0.938 . S
H1392 C1400 0.930 . S
H1393 C1407 0.931 . S
H1394 C1371 0.929 . S
H1395 C1401 0.930 . S
H1396 C1434 0.930 . S
H1397 C1378 0.930 . S
H1398 C1433 0.929 . S
N1399 Tb1368 2.660 . S
N1399 C1400 1.305 . S
N1399 C1404 1.360 . S
C1400 H1392 0.930 . S
C1400 N1399 1.305 . S
C1400 C1403 1.407 . S
C1401 H1395 0.930 . S
C1401 C1402 1.410 . S
C1401 C1403 1.345 . S
C1402 C1401 1.410 . S
C1402 C1404 1.417 . S
C1402 C1434 1.432 . S
C1403 H1389 0.930 . S
C1403 C1400 1.407 . S
C1403 C1401 1.345 . S
C1404 N1399 1.360 . S
C1404 C1402 1.417 . S
C1404 C1408 1.432 . S
H1405 C1410 0.930 1_565 S
N1406 Tb1368 2.600 . S
N1406 C1408 1.359 . S
N1406 C1409 1.302 1_545 S
C1407 H1393 0.931 . S
C1407 C1409 1.410 . S
C1407 C1410 1.370 1_565 S
C1408 C1404 1.432 . S
C1408 N1406 1.359 . S
C1408 C1411 1.414 . S
C1409 H1391 0.938 . S
C1409 N1406 1.302 1_565 S
C1409 C1407 1.410 . S
C1410 H1405 0.930 1_545 S
C1410 C1407 1.370 1_545 S
C1410 C1411 1.385 . S
C1411 C1408 1.414 . S
C1411 C1410 1.385 . S
C1411 C1433 1.444 . S
O1412 Tb1368 2.546 . S
O1412 C1432 1.251 . S
O1413 Tb1368 2.610 . S
O1413 Tb1379 2.362 1_554 S
O1413 C1424 1.283 . S
O1414 Tb1379 2.421 1_554 S
O1414 C1431 1.262 . S
O1415 Tb1368 2.320 . S
O1415 C1431 1.260 . S
O1416 Tb1368 2.552 . S
O1416 C1424 1.243 . S
O1417 Tb1368 2.413 . S
O1417 C1432 1.256 . S
O1418 Tb1379 2.546 . S
O1418 C1443 1.251 . S
O1419 Tb1368 2.362 . S
O1419 Tb1379 2.610 1_554 S
O1419 C1435 1.283 . S
O1420 Tb1368 2.421 . S
O1420 C1442 1.262 . S
O1421 Tb1379 2.320 . S
O1421 C1442 1.260 1_556 S
O1422 Tb1379 2.554 . S
O1422 C1435 1.209 1_556 S
O1423 Tb1379 2.413 . S
O1423 C1443 1.256 . S
C1424 O1413 1.283 . S
C1424 O1416 1.243 . S
C1425 C1427 1.382 . S
C1425 C1429 1.393 . S
C1425 C1432 1.500 . S
C1426 C1427 1.400 . S
C1426 C1428 1.384 . S
C1427 C1425 1.382 . S
C1427 C1426 1.400 . S
C1427 H1444 0.930 . S
C1428 C1426 1.384 . S
C1428 C1430 1.392 1_545 S
C1428 H1445 0.931 . S
C1429 C1425 1.393 . S
C1429 C1430 1.401 1_545 S
C1429 H1446 0.930 1_545 S
C1430 C1428 1.392 1_565 S
C1430 C1429 1.401 1_565 S
C1430 H1447 0.930 . S
C1431 O1414 1.262 . S
C1431 O1415 1.260 . S
C1432 Tb1368 2.833 . S
C1432 O1412 1.251 . S
C1432 O1417 1.256 . S
C1432 C1425 1.500 . S
C1433 H1398 0.929 . S
C1433 C1411 1.444 . S
C1433 C1434 1.317 . S
C1434 H1396 0.930 . S
C1434 C1402 1.432 . S
C1434 C1433 1.317 . S
C1435 O1419 1.283 . S
C1435 O1422 1.209 1_554 S
C1436 C1437 1.382 . S
C1436 C1440 1.393 . S
C1436 C1443 1.500 . S
C1437 C1436 1.382 . S
C1437 C1438 1.400 . S
C1437 H1448 0.930 . S
C1438 C1437 1.400 . S
C1438 C1439 1.384 . S
C1439 C1438 1.384 . S
C1439 C1441 1.392 . S
C1439 H1449 0.931 . S
C1440 C1436 1.393 . S
C1440 C1441 1.401 . S
C1440 H1450 0.930 . S
C1441 C1439 1.392 . S
C1441 C1440 1.401 . S
C1441 H1451 0.930 . S
C1442 O1420 1.262 . S
C1442 O1421 1.260 1_554 S
C1443 Tb1379 2.833 . S
C1443 O1418 1.251 . S
C1443 O1423 1.256 . S
C1443 C1436 1.500 . S
H1444 C1427 0.930 . S
H1445 C1428 0.931 . S
H1446 C1429 0.930 1_565 S
H1447 C1430 0.930 . S
H1448 C1437 0.930 . S
H1449 C1439 0.931 . S
H1450 C1440 0.930 . S
H1451 C1441 0.930 . S
Tb1452 N1483 2.660 . S
Tb1452 N1490 2.600 . S
Tb1452 O1496 2.546 . S
Tb1452 O1497 2.610 . S
Tb1452 O1499 2.320 . S
Tb1452 O1500 2.552 . S
Tb1452 O1501 2.413 . S
Tb1452 O1503 2.362 . S
Tb1452 O1504 2.421 . S
Tb1452 C1516 2.833 . S
C1453 C1456 1.432 . S
C1453 C1457 1.414 . S
C1453 N1460 1.359 . S
C1454 C1456 1.417 . S
C1454 C1458 1.432 . S
C1454 C1466 1.410 . S
C1455 C1457 1.444 . S
C1455 C1458 1.317 . S
C1455 H1478 0.929 . S
C1456 C1453 1.432 . S
C1456 C1454 1.417 . S
C1456 N1464 1.360 . S
C1457 C1453 1.414 . S
C1457 C1455 1.444 . S
C1457 C1462 1.385 . S
C1458 C1454 1.432 . S
C1458 C1455 1.317 . S
C1458 H1470 0.930 . S
C1459 C1461 1.392 . S
C1459 C1462 1.370 . S
C1459 H1471 0.931 . S
N1460 C1453 1.359 . S
N1460 C1461 1.327 . S
N1460 Tb1463 2.600 . S
C1461 C1459 1.392 . S
C1461 N1460 1.327 . S
C1461 H1468 0.930 . S
C1462 C1457 1.385 . S
C1462 C1459 1.370 . S
C1462 H1481 0.930 . S
Tb1463 N1460 2.600 . S
Tb1463 N1464 2.660 . S
Tb1463 O1497 2.362 . S
Tb1463 O1498 2.421 . S
Tb1463 O1502 2.546 . S
Tb1463 O1503 2.610 . S
Tb1463 O1505 2.320 . S
Tb1463 O1506 2.552 . S
Tb1463 O1507 2.413 . S
Tb1463 C1527 2.833 . S
N1464 C1456 1.360 . S
N1464 Tb1463 2.660 . S
N1464 C1465 1.305 . S
C1465 N1464 1.305 . S
C1465 C1467 1.407 . S
C1465 H1472 0.930 . S
C1466 C1454 1.410 . S
C1466 C1467 1.345 . S
C1466 H1474 0.930 . S
C1467 C1465 1.407 . S
C1467 C1466 1.345 . S
C1467 H1469 0.930 . S
H1468 C1461 0.930 . S
H1469 C1467 0.930 . S
H1470 C1458 0.930 . S
H1471 C1459 0.931 . S
H1472 C1465 0.930 . S
H1473 C1487 0.930 . S
H1474 C1466 0.930 . S
H1475 C1493 0.930 . S
H1476 C1484 0.930 . S
H1477 C1491 0.931 . S
H1478 C1455 0.929 . S
H1479 C1485 0.930 . S
H1480 C1518 0.930 . S
H1481 C1462 0.930 . S
H1482 C1517 0.929 . S
N1483 Tb1452 2.660 . S
N1483 C1484 1.305 . S
N1483 C1488 1.360 . S
C1484 H1476 0.930 . S
C1484 N1483 1.305 . S
C1484 C1487 1.407 . S
C1485 H1479 0.930 . S
C1485 C1486 1.410 . S
C1485 C1487 1.345 . S
C1486 C1485 1.410 . S
C1486 C1488 1.417 . S
C1486 C1518 1.432 . S
C1487 H1473 0.930 . S
C1487 C1484 1.407 . S
C1487 C1485 1.345 . S
C1488 N1483 1.360 . S
C1488 C1486 1.417 . S
C1488 C1492 1.432 . S
H1489 C1494 0.930 . S
N1490 Tb1452 2.600 . S
N1490 C1492 1.359 . S
N1490 C1493 1.327 . S
C1491 H1477 0.931 . S
C1491 C1493 1.392 . S
C1491 C1494 1.370 . S
C1492 C1488 1.432 . S
C1492 N1490 1.359 . S
C1492 C1495 1.414 . S
C1493 H1475 0.930 . S
C1493 N1490 1.327 . S
C1493 C1491 1.392 . S
C1494 H1489 0.930 . S
C1494 C1491 1.370 . S
C1494 C1495 1.385 . S
C1495 C1492 1.414 . S
C1495 C1494 1.385 . S
C1495 C1517 1.444 . S
O1496 Tb1452 2.546 . S
O1496 C1516 1.251 . S
O1497 Tb1452 2.610 . S
O1497 Tb1463 2.362 . S
O1497 C1508 1.283 . S
O1498 Tb1463 2.421 . S
O1498 C1515 1.262 . S
O1499 Tb1452 2.320 . S
O1499 C1515 1.260 . S
O1500 Tb1452 2.552 . S
O1500 C1508 1.243 . S
O1501 Tb1452 2.413 . S
O1501 C1516 1.256 . S
O1502 Tb1463 2.546 . S
O1502 C1527 1.251 . S
O1503 Tb1452 2.362 . S
O1503 Tb1463 2.610 . S
O1503 C1519 1.283 . S
O1504 Tb1452 2.421 . S
O1504 C1526 1.262 . S
O1505 Tb1463 2.320 . S
O1505 C1526 1.260 . S
O1506 Tb1463 2.552 . S
O1506 C1519 1.243 . S
O1507 Tb1463 2.413 . S
O1507 C1527 1.256 . S
C1508 O1497 1.283 . S
C1508 O1500 1.243 . S
C1509 C1511 1.382 . S
C1509 C1513 1.393 . S
C1509 C1516 1.500 . S
C1510 C1511 1.400 . S
C1510 C1512 1.384 . S
C1511 C1509 1.382 . S
C1511 C1510 1.400 . S
C1511 H1528 0.930 . S
C1512 C1510 1.384 . S
C1512 C1514 1.392 . S
C1512 H1529 0.931 . S
C1513 C1509 1.393 . S
C1513 C1514 1.401 . S
C1513 H1530 0.930 . S
C1514 C1512 1.392 . S
C1514 C1513 1.401 . S
C1514 H1531 0.930 . S
C1515 O1498 1.262 . S
C1515 O1499 1.260 . S
C1516 Tb1452 2.833 . S
C1516 O1496 1.251 . S
C1516 O1501 1.256 . S
C1516 C1509 1.500 . S
C1517 H1482 0.929 . S
C1517 C1495 1.444 . S
C1517 C1518 1.317 . S
C1518 H1480 0.930 . S
C1518 C1486 1.432 . S
C1518 C1517 1.317 . S
C1519 O1503 1.283 . S
C1519 O1506 1.243 . S
C1520 C1521 1.382 . S
C1520 C1524 1.393 . S
C1520 C1527 1.500 . S
C1521 C1520 1.382 . S
C1521 C1522 1.400 . S
C1521 H1532 0.930 . S
C1522 C1521 1.400 . S
C1522 C1523 1.384 . S
C1523 C1522 1.384 . S
C1523 C1525 1.392 . S
C1523 H1533 0.931 . S
C1524 C1520 1.393 . S
C1524 C1525 1.401 . S
C1524 H1534 0.930 . S
C1525 C1523 1.392 . S
C1525 C1524 1.401 . S
C1525 H1535 0.930 . S
C1526 O1504 1.262 . S
C1526 O1505 1.260 . S
C1527 Tb1463 2.833 . S
C1527 O1502 1.251 . S
C1527 O1507 1.256 . S
C1527 C1520 1.500 . S
H1528 C1511 0.930 . S
H1529 C1512 0.931 . S
H1530 C1513 0.930 . S
H1531 C1514 0.930 . S
H1532 C1521 0.930 . S
H1533 C1523 0.931 . S
H1534 C1524 0.930 . S
H1535 C1525 0.930 . S
Tb1536 N1567 2.660 . S
Tb1536 N1574 2.600 . S
Tb1536 O1580 2.546 . S
Tb1536 O1581 2.610 1_554 S
Tb1536 O1583 2.320 . S
Tb1536 O1584 2.552 1_554 S
Tb1536 O1585 2.413 . S
Tb1536 O1587 2.362 . S
Tb1536 O1588 2.421 . S
Tb1536 C1600 2.833 . S
C1537 C1540 1.432 . S
C1537 C1541 1.414 . S
C1537 N1544 1.359 . S
C1538 C1540 1.417 . S
C1538 C1542 1.432 . S
C1538 C1550 1.410 . S
C1539 C1541 1.444 . S
C1539 C1542 1.317 . S
C1539 H1562 0.929 . S
C1540 C1537 1.432 . S
C1540 C1538 1.417 . S
C1540 N1548 1.360 . S
C1541 C1537 1.414 . S
C1541 C1539 1.444 . S
C1541 C1546 1.385 . S
C1542 C1538 1.432 . S
C1542 C1539 1.317 . S
C1542 H1554 0.930 . S
C1543 C1545 1.392 . S
C1543 C1546 1.370 . S
C1543 H1555 0.931 . S
N1544 C1537 1.359 . S
N1544 C1545 1.327 . S
N1544 Tb1547 2.600 1_556 S
C1545 C1543 1.392 . S
C1545 N1544 1.327 . S
C1545 H1552 0.930 . S
C1546 C1541 1.385 . S
C1546 C1543 1.370 . S
C1546 H1565 0.930 . S
Tb1547 N1544 2.600 1_554 S
Tb1547 N1548 2.660 1_554 S
Tb1547 O1581 2.362 1_554 S
Tb1547 O1582 2.421 . S
Tb1547 O1586 2.546 . S
Tb1547 O1587 2.610 . S
Tb1547 O1589 2.320 . S
Tb1547 O1590 2.552 . S
Tb1547 O1591 2.413 . S
Tb1547 C1611 2.833 . S
N1548 C1540 1.360 . S
N1548 Tb1547 2.660 1_556 S
N1548 C1549 1.305 . S
C1549 N1548 1.305 . S
C1549 C1551 1.407 . S
C1549 H1556 0.930 . S
C1550 C1538 1.410 . S
C1550 C1551 1.345 . S
C1550 H1558 0.930 . S
C1551 C1549 1.407 . S
C1551 C1550 1.345 . S
C1551 H1553 0.930 . S
H1552 C1545 0.930 . S
H1553 C1551 0.930 . S
H1554 C1542 0.930 . S
H1555 C1543 0.931 . S
H1556 C1549 0.930 . S
H1557 C1571 0.930 . S
H1558 C1550 0.930 . S
H1559 C1577 0.930 . S
H1560 C1568 0.930 . S
H1561 C1575 0.931 . S
H1562 C1539 0.929 . S
H1563 C1569 0.930 . S
H1564 C1602 0.930 . S
H1565 C1546 0.930 . S
H1566 C1601 0.929 . S
N1567 Tb1536 2.660 . S
N1567 C1568 1.305 . S
N1567 C1572 1.360 . S
C1568 H1560 0.930 . S
C1568 N1567 1.305 . S
C1568 C1571 1.407 . S
C1569 H1563 0.930 . S
C1569 C1570 1.410 . S
C1569 C1571 1.345 . S
C1570 C1569 1.410 . S
C1570 C1572 1.417 . S
C1570 C1602 1.432 . S
C1571 H1557 0.930 . S
C1571 C1568 1.407 . S
C1571 C1569 1.345 . S
C1572 N1567 1.360 . S
C1572 C1570 1.417 . S
C1572 C1576 1.432 . S
H1573 C1578 0.930 . S
N1574 Tb1536 2.600 . S
N1574 C1576 1.359 . S
N1574 C1577 1.327 . S
C1575 H1561 0.931 . S
C1575 C1577 1.392 . S
C1575 C1578 1.370 . S
C1576 C1572 1.432 . S
C1576 N1574 1.359 . S
C1576 C1579 1.414 . S
C1577 H1559 0.930 . S
C1577 N1574 1.327 . S
C1577 C1575 1.392 . S
C1578 H1573 0.930 . S
C1578 C1575 1.370 . S
C1578 C1579 1.385 . S
C1579 C1576 1.414 . S
C1579 C1578 1.385 . S
C1579 C1601 1.444 . S
O1580 Tb1536 2.546 . S
O1580 C1600 1.251 . S
O1581 Tb1536 2.610 1_556 S
O1581 Tb1547 2.362 1_556 S
O1581 C1592 1.283 . S
O1582 Tb1547 2.421 . S
O1582 C1599 1.262 . S
O1583 Tb1536 2.320 . S
O1583 C1599 1.260 . S
O1584 Tb1536 2.552 1_556 S
O1584 C1592 1.243 . S
O1585 Tb1536 2.413 . S
O1585 C1600 1.256 . S
O1586 Tb1547 2.546 . S
O1586 C1611 1.251 . S
O1587 Tb1536 2.362 . S
O1587 Tb1547 2.610 . S
O1587 C1603 1.283 . S
O1588 Tb1536 2.421 . S
O1588 C1610 1.262 . S
O1589 Tb1547 2.320 . S
O1589 C1610 1.260 . S
O1590 Tb1547 2.552 . S
O1590 C1603 1.243 . S
O1591 Tb1547 2.413 . S
O1591 C1611 1.256 . S
C1592 O1581 1.283 . S
C1592 O1584 1.243 . S
C1593 C1595 1.382 . S
C1593 C1597 1.393 . S
C1593 C1600 1.500 . S
C1594 C1595 1.400 1_556 S
C1594 C1596 1.384 1_556 S
C1595 C1593 1.382 . S
C1595 C1594 1.400 1_554 S
C1595 H1612 0.919 1_554 S
C1596 C1594 1.384 1_554 S
C1596 C1598 1.392 . S
C1596 H1613 0.914 1_554 S
C1597 C1593 1.393 . S
C1597 C1598 1.401 . S
C1597 H1614 0.930 . S
C1598 C1596 1.392 . S
C1598 C1597 1.401 . S
C1598 H1615 0.930 . S
C1599 O1582 1.262 . S
C1599 O1583 1.260 . S
C1600 Tb1536 2.833 . S
C1600 O1580 1.251 . S
C1600 O1585 1.256 . S
C1600 C1593 1.500 . S
C1601 H1566 0.929 . S
C1601 C1579 1.444 . S
C1601 C1602 1.317 . S
C1602 H1564 0.930 . S
C1602 C1570 1.432 . S
C1602 C1601 1.317 . S
C1603 O1587 1.283 . S
C1603 O1590 1.243 . S
C1604 C1605 1.382 . S
C1604 C1608 1.393 . S
C1604 C1611 1.500 . S
C1605 C1604 1.382 . S
C1605 C1606 1.400 . S
C1605 H1616 0.930 . S
C1606 C1605 1.400 . S
C1606 C1607 1.384 . S
C1607 C1606 1.384 . S
C1607 C1609 1.392 . S
C1607 H1617 0.931 . S
C1608 C1604 1.393 . S
C1608 C1609 1.401 . S
C1608 H1618 0.930 . S
C1609 C1607 1.392 . S
C1609 C1608 1.401 . S
C1609 H1619 0.930 . S
C1610 O1588 1.262 . S
C1610 O1589 1.260 . S
C1611 Tb1547 2.833 . S
C1611 O1586 1.251 . S
C1611 O1591 1.256 . S
C1611 C1604 1.500 . S
H1612 C1595 0.919 1_556 S
H1613 C1596 0.914 1_556 S
H1614 C1597 0.930 . S
H1615 C1598 0.930 . S
H1616 C1605 0.930 . S
H1617 C1607 0.931 . S
H1618 C1608 0.930 . S
H1619 C1609 0.930 . S
Tb1620 N1651 2.660 . S
Tb1620 N1658 2.600 . S
Tb1620 O1664 2.546 . S
Tb1620 O1665 2.610 . S
Tb1620 O1667 2.320 . S
Tb1620 O1668 2.552 . S
Tb1620 O1669 2.413 . S
Tb1620 O1671 2.362 . S
Tb1620 O1672 2.421 . S
Tb1620 C1684 2.833 . S
C1621 C1624 1.432 . S
C1621 C1625 1.414 . S
C1621 N1628 1.359 . S
C1622 C1624 1.417 . S
C1622 C1626 1.432 . S
C1622 C1634 1.410 . S
C1623 C1625 1.444 . S
C1623 C1626 1.317 . S
C1623 H1646 0.929 . S
C1624 C1621 1.432 . S
C1624 C1622 1.417 . S
C1624 N1632 1.360 . S
C1625 C1621 1.414 . S
C1625 C1623 1.444 . S
C1625 C1630 1.385 . S
C1626 C1622 1.432 . S
C1626 C1623 1.317 . S
C1626 H1638 0.930 . S
C1627 C1629 1.392 . S
C1627 C1630 1.370 . S
C1627 H1639 0.931 . S
N1628 C1621 1.359 . S
N1628 C1629 1.327 . S
N1628 Tb1631 2.600 . S
C1629 C1627 1.392 . S
C1629 N1628 1.327 . S
C1629 H1636 0.930 . S
C1630 C1625 1.385 . S
C1630 C1627 1.370 . S
C1630 H1649 0.930 . S
Tb1631 N1628 2.600 . S
Tb1631 N1632 2.660 . S
Tb1631 O1665 2.362 . S
Tb1631 O1666 2.421 . S
Tb1631 O1670 2.546 . S
Tb1631 O1671 2.610 . S
Tb1631 O1673 2.320 . S
Tb1631 O1674 2.552 . S
Tb1631 O1675 2.413 . S
Tb1631 C1695 2.833 . S
N1632 C1624 1.360 . S
N1632 Tb1631 2.660 . S
N1632 C1633 1.305 . S
C1633 N1632 1.305 . S
C1633 C1635 1.407 . S
C1633 H1640 0.930 . S
C1634 C1622 1.410 . S
C1634 C1635 1.345 . S
C1634 H1642 0.930 . S
C1635 C1633 1.407 . S
C1635 C1634 1.345 . S
C1635 H1637 0.930 . S
H1636 C1629 0.930 . S
H1637 C1635 0.930 . S
H1638 C1626 0.930 . S
H1639 C1627 0.931 . S
H1640 C1633 0.930 . S
H1641 C1655 0.930 . S
H1642 C1634 0.930 . S
H1643 C1661 0.930 . S
H1644 C1652 0.930 . S
H1645 C1659 0.931 . S
H1646 C1623 0.929 . S
H1647 C1653 0.930 . S
H1648 C1686 0.930 . S
H1649 C1630 0.930 . S
H1650 C1685 0.929 . S
N1651 Tb1620 2.660 . S
N1651 C1652 1.305 . S
N1651 C1656 1.360 . S
C1652 H1644 0.930 . S
C1652 N1651 1.305 . S
C1652 C1655 1.407 . S
C1653 H1647 0.930 . S
C1653 C1654 1.410 . S
C1653 C1655 1.345 . S
C1654 C1653 1.410 . S
C1654 C1656 1.417 . S
C1654 C1686 1.432 . S
C1655 H1641 0.930 . S
C1655 C1652 1.407 . S
C1655 C1653 1.345 . S
C1656 N1651 1.360 . S
C1656 C1654 1.417 . S
C1656 C1660 1.432 . S
H1657 C1662 0.930 . S
N1658 Tb1620 2.600 . S
N1658 C1660 1.359 . S
N1658 C1661 1.327 . S
C1659 H1645 0.931 . S
C1659 C1661 1.392 . S
C1659 C1662 1.370 . S
C1660 C1656 1.432 . S
C1660 N1658 1.359 . S
C1660 C1663 1.414 . S
C1661 H1643 0.930 . S
C1661 N1658 1.327 . S
C1661 C1659 1.392 . S
C1662 H1657 0.930 . S
C1662 C1659 1.370 . S
C1662 C1663 1.385 . S
C1663 C1660 1.414 . S
C1663 C1662 1.385 . S
C1663 C1685 1.444 . S
O1664 Tb1620 2.546 . S
O1664 C1684 1.251 . S
O1665 Tb1620 2.610 . S
O1665 Tb1631 2.362 . S
O1665 C1676 1.283 . S
O1666 Tb1631 2.421 . S
O1666 C1683 1.262 . S
O1667 Tb1620 2.320 . S
O1667 C1683 1.260 . S
O1668 Tb1620 2.552 . S
O1668 C1676 1.243 . S
O1669 Tb1620 2.413 . S
O1669 C1684 1.256 . S
O1670 Tb1631 2.546 . S
O1670 C1695 1.251 . S
O1671 Tb1620 2.362 . S
O1671 Tb1631 2.610 . S
O1671 C1687 1.283 . S
O1672 Tb1620 2.421 . S
O1672 C1694 1.262 . S
O1673 Tb1631 2.320 . S
O1673 C1694 1.260 . S
O1674 Tb1631 2.552 . S
O1674 C1687 1.243 . S
O1675 Tb1631 2.413 . S
O1675 C1695 1.256 . S
C1676 O1665 1.283 . S
C1676 O1668 1.243 . S
C1677 C1679 1.382 . S
C1677 C1681 1.393 . S
C1677 C1684 1.500 . S
C1678 C1679 1.400 . S
C1678 C1680 1.384 . S
C1679 C1677 1.382 . S
C1679 C1678 1.400 . S
C1679 H1696 0.930 . S
C1680 C1678 1.384 . S
C1680 C1682 1.392 . S
C1680 H1697 0.931 . S
C1681 C1677 1.393 . S
C1681 C1682 1.401 . S
C1681 H1698 0.930 . S
C1682 C1680 1.392 . S
C1682 C1681 1.401 . S
C1682 H1699 0.930 . S
C1683 O1666 1.262 . S
C1683 O1667 1.260 . S
C1684 Tb1620 2.833 . S
C1684 O1664 1.251 . S
C1684 O1669 1.256 . S
C1684 C1677 1.500 . S
C1685 H1650 0.929 . S
C1685 C1663 1.444 . S
C1685 C1686 1.317 . S
C1686 H1648 0.930 . S
C1686 C1654 1.432 . S
C1686 C1685 1.317 . S
C1687 O1671 1.283 . S
C1687 O1674 1.243 . S
C1688 C1689 1.382 . S
C1688 C1692 1.393 . S
C1688 C1695 1.500 . S
C1689 C1688 1.382 . S
C1689 C1690 1.400 . S
C1689 H1700 0.930 . S
C1690 C1689 1.400 . S
C1690 C1691 1.384 . S
C1691 C1690 1.384 . S
C1691 C1693 1.392 . S
C1691 H1701 0.931 . S
C1692 C1688 1.393 . S
C1692 C1693 1.401 . S
C1692 H1702 0.930 . S
C1693 C1691 1.392 . S
C1693 C1692 1.401 . S
C1693 H1703 0.930 . S
C1694 O1672 1.262 . S
C1694 O1673 1.260 . S
C1695 Tb1631 2.833 . S
C1695 O1670 1.251 . S
C1695 O1675 1.256 . S
C1695 C1688 1.500 . S
H1696 C1679 0.930 . S
H1697 C1680 0.931 . S
H1698 C1681 0.930 . S
H1699 C1682 0.930 . S
H1700 C1689 0.930 . S
H1701 C1691 0.931 . S
H1702 C1692 0.930 . S
H1703 C1693 0.930 . S
Tb1704 N1735 2.660 . S
Tb1704 N1742 2.600 . S
Tb1704 O1748 2.546 . S
Tb1704 O1749 2.610 . S
Tb1704 O1751 2.320 . S
Tb1704 O1752 2.552 . S
Tb1704 O1753 2.413 . S
Tb1704 O1755 2.362 . S
Tb1704 O1756 2.421 . S
Tb1704 C1768 2.833 . S
C1705 C1708 1.432 . S
C1705 C1709 1.414 1_455 S
C1705 N1712 1.359 . S
C1706 C1708 1.417 1_655 S
C1706 C1710 1.432 . S
C1706 C1718 1.410 . S
C1707 C1709 1.444 . S
C1707 C1710 1.317 . S
C1707 H1730 0.929 . S
C1708 C1705 1.432 . S
C1708 C1706 1.417 1_455 S
C1708 N1716 1.360 . S
C1709 C1705 1.414 1_655 S
C1709 C1707 1.444 . S
C1709 C1714 1.385 . S
C1710 C1706 1.432 . S
C1710 C1707 1.317 . S
C1710 H1722 0.930 . S
C1711 C1713 1.392 . S
C1711 C1714 1.370 1_455 S
C1711 H1723 0.931 . S
N1712 C1705 1.359 . S
N1712 C1713 1.327 . S
N1712 Tb1715 2.600 . S
C1713 C1711 1.392 . S
C1713 N1712 1.327 . S
C1713 H1720 0.930 . S
C1714 C1709 1.385 . S
C1714 C1711 1.370 1_655 S
C1714 H1733 0.930 . S
Tb1715 N1712 2.600 . S
Tb1715 N1716 2.660 . S
Tb1715 O1749 2.362 . S
Tb1715 O1750 2.421 . S
Tb1715 O1754 2.546 . S
Tb1715 O1755 2.610 . S
Tb1715 O1757 2.320 . S
Tb1715 O1758 2.552 . S
Tb1715 O1759 2.413 . S
Tb1715 C1779 2.833 . S
N1716 C1708 1.360 . S
N1716 Tb1715 2.660 . S
N1716 C1717 1.305 . S
C1717 N1716 1.305 . S
C1717 C1719 1.407 . S
C1717 H1724 0.930 . S
C1718 C1706 1.410 . S
C1718 C1719 1.345 1_655 S
C1718 H1726 0.930 . S
C1719 C1717 1.407 . S
C1719 C1718 1.345 1_455 S
C1719 H1721 0.930 . S
H1720 C1713 0.930 . S
H1721 C1719 0.930 . S
H1722 C1710 0.930 . S
H1723 C1711 0.931 . S
H1724 C1717 0.930 . S
H1725 C1739 0.930 . S
H1726 C1718 0.930 . S
H1727 C1745 0.930 . S
H1728 C1736 0.930 . S
H1729 C1743 0.931 . S
H1730 C1707 0.929 . S
H1731 C1737 0.930 . S
H1732 C1770 0.930 . S
H1733 C1714 0.930 . S
H1734 C1769 0.929 . S
N1735 Tb1704 2.660 . S
N1735 C1736 1.305 . S
N1735 C1740 1.360 . S
C1736 H1728 0.930 . S
C1736 N1735 1.305 . S
C1736 C1739 1.407 . S
C1737 H1731 0.930 . S
C1737 C1738 1.410 . S
C1737 C1739 1.345 . S
C1738 C1737 1.410 . S
C1738 C1740 1.417 . S
C1738 C1770 1.432 . S
C1739 H1725 0.930 . S
C1739 C1736 1.407 . S
C1739 C1737 1.345 . S
C1740 N1735 1.360 . S
C1740 C1738 1.417 . S
C1740 C1744 1.432 . S
H1741 C1746 0.930 . S
N1742 Tb1704 2.600 . S
N1742 C1744 1.359 . S
N1742 C1745 1.327 . S
C1743 H1729 0.931 . S
C1743 C1745 1.392 . S
C1743 C1746 1.370 . S
C1744 C1740 1.432 . S
C1744 N1742 1.359 . S
C1744 C1747 1.414 . S
C1745 H1727 0.930 . S
C1745 N1742 1.327 . S
C1745 C1743 1.392 . S
C1746 H1741 0.930 . S
C1746 C1743 1.370 . S
C1746 C1747 1.385 . S
C1747 C1744 1.414 . S
C1747 C1746 1.385 . S
C1747 C1769 1.444 . S
O1748 Tb1704 2.546 . S
O1748 C1768 1.251 . S
O1749 Tb1704 2.610 . S
O1749 Tb1715 2.362 . S
O1749 C1760 1.283 . S
O1750 Tb1715 2.421 . S
O1750 C1767 1.262 . S
O1751 Tb1704 2.320 . S
O1751 C1767 1.260 . S
O1752 Tb1704 2.552 . S
O1752 C1760 1.243 . S
O1753 Tb1704 2.413 . S
O1753 C1768 1.256 . S
O1754 Tb1715 2.546 . S
O1754 C1779 1.251 . S
O1755 Tb1704 2.362 . S
O1755 Tb1715 2.610 . S
O1755 C1771 1.283 . S
O1756 Tb1704 2.421 . S
O1756 C1778 1.262 . S
O1757 Tb1715 2.320 . S
O1757 C1778 1.260 . S
O1758 Tb1715 2.552 . S
O1758 C1771 1.243 . S
O1759 Tb1715 2.413 . S
O1759 C1779 1.256 . S
C1760 O1749 1.283 . S
C1760 O1752 1.243 . S
C1761 C1763 1.382 . S
C1761 C1765 1.393 . S
C1761 C1768 1.500 . S
C1762 C1763 1.400 . S
C1762 C1764 1.384 . S
C1763 C1761 1.382 . S
C1763 C1762 1.400 . S
C1763 H1780 0.930 . S
C1764 C1762 1.384 . S
C1764 C1766 1.392 . S
C1764 H1781 0.931 . S
C1765 C1761 1.393 . S
C1765 C1766 1.401 . S
C1765 H1782 0.930 . S
C1766 C1764 1.392 . S
C1766 C1765 1.401 . S
C1766 H1783 0.930 . S
C1767 O1750 1.262 . S
C1767 O1751 1.260 . S
C1768 Tb1704 2.833 . S
C1768 O1748 1.251 . S
C1768 O1753 1.256 . S
C1768 C1761 1.500 . S
C1769 H1734 0.929 . S
C1769 C1747 1.444 . S
C1769 C1770 1.317 . S
C1770 H1732 0.930 . S
C1770 C1738 1.432 . S
C1770 C1769 1.317 . S
C1771 O1755 1.283 . S
C1771 O1758 1.243 . S
C1772 C1773 1.382 . S
C1772 C1776 1.393 . S
C1772 C1779 1.500 . S
C1773 C1772 1.382 . S
C1773 C1774 1.400 . S
C1773 H1784 0.930 . S
C1774 C1773 1.400 . S
C1774 C1775 1.384 . S
C1775 C1774 1.384 . S
C1775 C1777 1.392 . S
C1775 H1785 0.931 . S
C1776 C1772 1.393 . S
C1776 C1777 1.401 . S
C1776 H1786 0.930 . S
C1777 C1775 1.392 . S
C1777 C1776 1.401 . S
C1777 H1787 0.930 . S
C1778 O1756 1.262 . S
C1778 O1757 1.260 . S
C1779 Tb1715 2.833 . S
C1779 O1754 1.251 . S
C1779 O1759 1.256 . S
C1779 C1772 1.500 . S
H1780 C1763 0.930 . S
H1781 C1764 0.931 . S
H1782 C1765 0.930 . S
H1783 C1766 0.930 . S
H1784 C1773 0.930 . S
H1785 C1775 0.931 . S
H1786 C1776 0.930 . S
H1787 C1777 0.930 . S
Tb1788 N1819 2.660 . S
Tb1788 N1826 2.600 . S
Tb1788 O1832 2.546 . S
Tb1788 O1833 2.610 . S
Tb1788 O1835 2.320 . S
Tb1788 O1836 2.552 . S
Tb1788 O1837 2.413 . S
Tb1788 O1839 2.362 . S
Tb1788 O1840 2.421 . S
Tb1788 C1852 2.833 . S
C1789 C1792 1.432 . S
C1789 C1793 1.414 . S
C1789 N1796 1.359 . S
C1790 C1792 1.417 . S
C1790 C1794 1.432 . S
C1790 C1802 1.410 . S
C1791 C1793 1.444 . S
C1791 C1794 1.317 . S
C1791 H1814 0.929 . S
C1792 C1789 1.432 . S
C1792 C1790 1.417 . S
C1792 N1800 1.360 . S
C1793 C1789 1.414 . S
C1793 C1791 1.444 . S
C1793 C1798 1.385 . S
C1794 C1790 1.432 . S
C1794 C1791 1.317 . S
C1794 H1806 0.930 . S
C1795 C1797 1.392 . S
C1795 C1798 1.370 . S
C1795 H1807 0.931 . S
N1796 C1789 1.359 . S
N1796 C1797 1.327 . S
N1796 Tb1799 2.600 . S
C1797 C1795 1.392 . S
C1797 N1796 1.327 . S
C1797 H1804 0.930 . S
C1798 C1793 1.385 . S
C1798 C1795 1.370 . S
C1798 H1817 0.930 . S
Tb1799 N1796 2.600 . S
Tb1799 N1800 2.660 . S
Tb1799 O1833 2.362 . S
Tb1799 O1834 2.421 . S
Tb1799 O1838 2.546 . S
Tb1799 O1839 2.610 . S
Tb1799 O1841 2.320 . S
Tb1799 O1842 2.552 . S
Tb1799 O1843 2.413 . S
Tb1799 C1863 2.833 . S
N1800 C1792 1.360 . S
N1800 Tb1799 2.660 . S
N1800 C1801 1.305 . S
C1801 N1800 1.305 . S
C1801 C1803 1.407 . S
C1801 H1808 0.930 . S
C1802 C1790 1.410 . S
C1802 C1803 1.345 . S
C1802 H1810 0.930 . S
C1803 C1801 1.407 . S
C1803 C1802 1.345 . S
C1803 H1805 0.930 . S
H1804 C1797 0.930 . S
H1805 C1803 0.930 . S
H1806 C1794 0.930 . S
H1807 C1795 0.931 . S
H1808 C1801 0.930 . S
H1809 C1823 0.930 . S
H1810 C1802 0.930 . S
H1811 C1829 0.930 . S
H1812 C1820 0.930 . S
H1813 C1827 0.931 . S
H1814 C1791 0.929 . S
H1815 C1821 0.930 . S
H1816 C1854 0.930 . S
H1817 C1798 0.930 . S
H1818 C1853 0.929 . S
N1819 Tb1788 2.660 . S
N1819 C1820 1.305 . S
N1819 C1824 1.360 . S
C1820 H1812 0.930 . S
C1820 N1819 1.305 . S
C1820 C1823 1.407 . S
C1821 H1815 0.930 . S
C1821 C1822 1.410 . S
C1821 C1823 1.345 . S
C1822 C1821 1.410 . S
C1822 C1824 1.417 . S
C1822 C1854 1.432 . S
C1823 H1809 0.930 . S
C1823 C1820 1.407 . S
C1823 C1821 1.345 . S
C1824 N1819 1.360 . S
C1824 C1822 1.417 . S
C1824 C1828 1.432 . S
H1825 C1830 0.930 . S
N1826 Tb1788 2.600 . S
N1826 C1828 1.359 . S
N1826 C1829 1.327 . S
C1827 H1813 0.931 . S
C1827 C1829 1.392 . S
C1827 C1830 1.370 . S
C1828 C1824 1.432 . S
C1828 N1826 1.359 . S
C1828 C1831 1.414 . S
C1829 H1811 0.930 . S
C1829 N1826 1.327 . S
C1829 C1827 1.392 . S
C1830 H1825 0.930 . S
C1830 C1827 1.370 . S
C1830 C1831 1.385 . S
C1831 C1828 1.414 . S
C1831 C1830 1.385 . S
C1831 C1853 1.444 . S
O1832 Tb1788 2.546 . S
O1832 C1852 1.251 . S
O1833 Tb1788 2.610 . S
O1833 Tb1799 2.362 . S
O1833 C1844 1.283 . S
O1834 Tb1799 2.421 . S
O1834 C1851 1.262 . S
O1835 Tb1788 2.320 . S
O1835 C1851 1.260 . S
O1836 Tb1788 2.552 . S
O1836 C1844 1.243 . S
O1837 Tb1788 2.413 . S
O1837 C1852 1.256 . S
O1838 Tb1799 2.546 . S
O1838 C1863 1.251 . S
O1839 Tb1788 2.362 . S
O1839 Tb1799 2.610 . S
O1839 C1855 1.283 . S
O1840 Tb1788 2.421 . S
O1840 C1862 1.262 . S
O1841 Tb1799 2.320 . S
O1841 C1862 1.260 . S
O1842 Tb1799 2.552 . S
O1842 C1855 1.243 . S
O1843 Tb1799 2.413 . S
O1843 C1863 1.256 . S
C1844 O1833 1.283 . S
C1844 O1836 1.243 . S
C1845 C1847 1.382 . S
C1845 C1849 1.393 . S
C1845 C1852 1.500 . S
C1846 C1847 1.400 . S
C1846 C1848 1.384 . S
C1847 C1845 1.382 . S
C1847 C1846 1.400 . S
C1847 H1864 0.930 . S
C1848 C1846 1.384 . S
C1848 C1850 1.392 . S
C1848 H1865 0.931 . S
C1849 C1845 1.393 . S
C1849 C1850 1.401 . S
C1849 H1866 0.930 . S
C1850 C1848 1.392 . S
C1850 C1849 1.401 . S
C1850 H1867 0.930 . S
C1851 O1834 1.262 . S
C1851 O1835 1.260 . S
C1852 Tb1788 2.833 . S
C1852 O1832 1.251 . S
C1852 O1837 1.256 . S
C1852 C1845 1.500 . S
C1853 H1818 0.929 . S
C1853 C1831 1.444 . S
C1853 C1854 1.317 . S
C1854 H1816 0.930 . S
C1854 C1822 1.432 . S
C1854 C1853 1.317 . S
C1855 O1839 1.283 . S
C1855 O1842 1.243 . S
C1856 C1857 1.382 . S
C1856 C1860 1.393 . S
C1856 C1863 1.500 . S
C1857 C1856 1.382 . S
C1857 C1858 1.400 . S
C1857 H1868 0.930 . S
C1858 C1857 1.400 . S
C1858 C1859 1.384 . S
C1859 C1858 1.384 . S
C1859 C1861 1.392 . S
C1859 H1869 0.931 . S
C1860 C1856 1.393 . S
C1860 C1861 1.401 . S
C1860 H1870 0.930 . S
C1861 C1859 1.392 . S
C1861 C1860 1.401 . S
C1861 H1871 0.930 . S
C1862 O1840 1.262 . S
C1862 O1841 1.260 . S
C1863 Tb1799 2.833 . S
C1863 O1838 1.251 . S
C1863 O1843 1.256 . S
C1863 C1856 1.500 . S
H1864 C1847 0.930 . S
H1865 C1848 0.931 . S
H1866 C1849 0.930 . S
H1867 C1850 0.930 . S
H1868 C1857 0.930 . S
H1869 C1859 0.931 . S
H1870 C1860 0.930 . S
H1871 C1861 0.930 . S
Tb1872 N1903 2.660 . S
Tb1872 N1910 2.600 . S
Tb1872 O1916 2.546 . S
Tb1872 O1917 2.610 . S
Tb1872 O1919 2.320 . S
Tb1872 O1920 2.552 . S
Tb1872 O1921 2.413 . S
Tb1872 O1923 2.362 . S
Tb1872 O1924 2.421 . S
Tb1872 C1936 2.833 . S
C1873 C1876 1.432 . S
C1873 C1877 1.414 . S
C1873 N1880 1.359 . S
C1874 C1876 1.417 . S
C1874 C1878 1.432 . S
C1874 C1886 1.410 . S
C1875 C1877 1.444 . S
C1875 C1878 1.317 . S
C1875 H1898 0.929 . S
C1876 C1873 1.432 . S
C1876 C1874 1.417 . S
C1876 N1884 1.360 . S
C1877 C1873 1.414 . S
C1877 C1875 1.444 . S
C1877 C1882 1.385 . S
C1878 C1874 1.432 . S
C1878 C1875 1.317 . S
C1878 H1890 0.930 . S
C1879 C1881 1.392 . S
C1879 C1882 1.370 . S
C1879 H1891 0.931 . S
N1880 C1873 1.359 . S
N1880 C1881 1.327 . S
N1880 Tb1883 2.600 . S
C1881 C1879 1.392 . S
C1881 N1880 1.327 . S
C1881 H1888 0.930 . S
C1882 C1877 1.385 . S
C1882 C1879 1.370 . S
C1882 H1901 0.930 . S
Tb1883 N1880 2.600 . S
Tb1883 N1884 2.660 . S
Tb1883 O1917 2.362 . S
Tb1883 O1918 2.421 . S
Tb1883 O1922 2.546 . S
Tb1883 O1923 2.610 . S
Tb1883 O1925 2.320 . S
Tb1883 O1926 2.552 . S
Tb1883 O1927 2.413 . S
Tb1883 C1947 2.833 . S
N1884 C1876 1.360 . S
N1884 Tb1883 2.660 . S
N1884 C1885 1.305 . S
C1885 N1884 1.305 . S
C1885 C1887 1.407 . S
C1885 H1892 0.930 . S
C1886 C1874 1.410 . S
C1886 C1887 1.345 . S
C1886 H1894 0.930 . S
C1887 C1885 1.407 . S
C1887 C1886 1.345 . S
C1887 H1889 0.930 . S
H1888 C1881 0.930 . S
H1889 C1887 0.930 . S
H1890 C1878 0.930 . S
H1891 C1879 0.931 . S
H1892 C1885 0.930 . S
H1893 C1907 0.930 . S
H1894 C1886 0.930 . S
H1895 C1913 0.930 . S
H1896 C1904 0.930 . S
H1897 C1911 0.931 . S
H1898 C1875 0.929 . S
H1899 C1905 0.930 . S
H1900 C1938 0.930 . S
H1901 C1882 0.930 . S
H1902 C1937 0.929 . S
N1903 Tb1872 2.660 . S
N1903 C1904 1.305 . S
N1903 C1908 1.360 . S
C1904 H1896 0.930 . S
C1904 N1903 1.305 . S
C1904 C1907 1.407 . S
C1905 H1899 0.930 . S
C1905 C1906 1.410 . S
C1905 C1907 1.345 . S
C1906 C1905 1.410 . S
C1906 C1908 1.417 . S
C1906 C1938 1.432 . S
C1907 H1893 0.930 . S
C1907 C1904 1.407 . S
C1907 C1905 1.345 . S
C1908 N1903 1.360 . S
C1908 C1906 1.417 . S
C1908 C1912 1.432 . S
H1909 C1914 0.930 . S
N1910 Tb1872 2.600 . S
N1910 C1912 1.359 . S
N1910 C1913 1.327 . S
C1911 H1897 0.931 . S
C1911 C1913 1.392 . S
C1911 C1914 1.370 . S
C1912 C1908 1.432 . S
C1912 N1910 1.359 . S
C1912 C1915 1.414 . S
C1913 H1895 0.930 . S
C1913 N1910 1.327 . S
C1913 C1911 1.392 . S
C1914 H1909 0.930 . S
C1914 C1911 1.370 . S
C1914 C1915 1.385 . S
C1915 C1912 1.414 . S
C1915 C1914 1.385 . S
C1915 C1937 1.444 . S
O1916 Tb1872 2.546 . S
O1916 C1936 1.251 . S
O1917 Tb1872 2.610 . S
O1917 Tb1883 2.362 . S
O1917 C1928 1.283 . S
O1918 Tb1883 2.421 . S
O1918 C1935 1.262 . S
O1919 Tb1872 2.320 . S
O1919 C1935 1.260 . S
O1920 Tb1872 2.552 . S
O1920 C1928 1.243 . S
O1921 Tb1872 2.413 . S
O1921 C1936 1.256 . S
O1922 Tb1883 2.546 . S
O1922 C1947 1.251 . S
O1923 Tb1872 2.362 . S
O1923 Tb1883 2.610 . S
O1923 C1939 1.283 . S
O1924 Tb1872 2.421 . S
O1924 C1946 1.262 . S
O1925 Tb1883 2.320 . S
O1925 C1946 1.260 . S
O1926 Tb1883 2.552 . S
O1926 C1939 1.243 . S
O1927 Tb1883 2.413 . S
O1927 C1947 1.256 . S
C1928 O1917 1.283 . S
C1928 O1920 1.243 . S
C1929 C1931 1.382 . S
C1929 C1933 1.393 . S
C1929 C1936 1.500 . S
C1930 C1931 1.400 . S
C1930 C1932 1.384 . S
C1931 C1929 1.382 . S
C1931 C1930 1.400 . S
C1931 H1948 0.930 . S
C1932 C1930 1.384 . S
C1932 C1934 1.392 . S
C1932 H1949 0.931 . S
C1933 C1929 1.393 . S
C1933 C1934 1.401 . S
C1933 H1950 0.930 . S
C1934 C1932 1.392 . S
C1934 C1933 1.401 . S
C1934 H1951 0.930 . S
C1935 O1918 1.262 . S
C1935 O1919 1.260 . S
C1936 Tb1872 2.833 . S
C1936 O1916 1.251 . S
C1936 O1921 1.256 . S
C1936 C1929 1.500 . S
C1937 H1902 0.929 . S
C1937 C1915 1.444 . S
C1937 C1938 1.317 . S
C1938 H1900 0.930 . S
C1938 C1906 1.432 . S
C1938 C1937 1.317 . S
C1939 O1923 1.283 . S
C1939 O1926 1.243 . S
C1940 C1941 1.382 . S
C1940 C1944 1.393 . S
C1940 C1947 1.500 . S
C1941 C1940 1.382 . S
C1941 C1942 1.400 . S
C1941 H1952 0.930 . S
C1942 C1941 1.400 . S
C1942 C1943 1.384 . S
C1943 C1942 1.384 . S
C1943 C1945 1.392 . S
C1943 H1953 0.931 . S
C1944 C1940 1.393 . S
C1944 C1945 1.401 . S
C1944 H1954 0.930 . S
C1945 C1943 1.392 . S
C1945 C1944 1.401 . S
C1945 H1955 0.930 . S
C1946 O1924 1.262 . S
C1946 O1925 1.260 . S
C1947 Tb1883 2.833 . S
C1947 O1922 1.251 . S
C1947 O1927 1.256 . S
C1947 C1940 1.500 . S
H1948 C1931 0.930 . S
H1949 C1932 0.931 . S
H1950 C1933 0.930 . S
H1951 C1934 0.930 . S
H1952 C1941 0.930 . S
H1953 C1943 0.931 . S
H1954 C1944 0.930 . S
H1955 C1945 0.930 . S
Tb1956 N1987 2.660 . S
Tb1956 N1994 2.600 . S
Tb1956 O2000 2.546 . S
Tb1956 O2001 2.610 . S
Tb1956 O2003 2.320 . S
Tb1956 O2004 2.552 . S
Tb1956 O2005 2.413 . S
Tb1956 O2007 2.362 . S
Tb1956 O2008 2.421 . S
Tb1956 C2020 2.833 . S
C1957 C1960 1.432 . S
C1957 C1961 1.414 . S
C1957 N1964 1.359 . S
C1958 C1960 1.417 . S
C1958 C1962 1.432 . S
C1958 C1970 1.410 . S
C1959 C1961 1.444 . S
C1959 C1962 1.317 . S
C1959 H1982 0.929 . S
C1960 C1957 1.432 . S
C1960 C1958 1.417 . S
C1960 N1968 1.360 . S
C1961 C1957 1.414 . S
C1961 C1959 1.444 . S
C1961 C1966 1.385 . S
C1962 C1958 1.432 . S
C1962 C1959 1.317 . S
C1962 H1974 0.930 . S
C1963 C1965 1.392 . S
C1963 C1966 1.370 . S
C1963 H1975 0.931 . S
N1964 C1957 1.359 . S
N1964 C1965 1.327 . S
N1964 Tb1967 2.600 . S
C1965 C1963 1.392 . S
C1965 N1964 1.327 . S
C1965 H1972 0.930 . S
C1966 C1961 1.385 . S
C1966 C1963 1.370 . S
C1966 H1985 0.930 . S
Tb1967 N1964 2.600 . S
Tb1967 N1968 2.660 . S
Tb1967 O2001 2.362 . S
Tb1967 O2002 2.421 . S
Tb1967 O2006 2.546 . S
Tb1967 O2007 2.610 . S
Tb1967 O2009 2.320 . S
Tb1967 O2010 2.552 . S
Tb1967 O2011 2.413 . S
Tb1967 C2031 2.833 . S
N1968 C1960 1.360 . S
N1968 Tb1967 2.660 . S
N1968 C1969 1.305 . S
C1969 N1968 1.305 . S
C1969 C1971 1.407 . S
C1969 H1976 0.930 . S
C1970 C1958 1.410 . S
C1970 C1971 1.345 . S
C1970 H1978 0.930 . S
C1971 C1969 1.407 . S
C1971 C1970 1.345 . S
C1971 H1973 0.930 . S
H1972 C1965 0.930 . S
H1973 C1971 0.930 . S
H1974 C1962 0.930 . S
H1975 C1963 0.931 . S
H1976 C1969 0.930 . S
H1977 C1991 0.930 . S
H1978 C1970 0.930 . S
H1979 C1997 0.930 . S
H1980 C1988 0.930 . S
H1981 C1995 0.931 . S
H1982 C1959 0.929 . S
H1983 C1989 0.930 . S
H1984 C2022 0.930 . S
H1985 C1966 0.930 . S
H1986 C2021 0.929 . S
N1987 Tb1956 2.660 . S
N1987 C1988 1.305 . S
N1987 C1992 1.360 . S
C1988 H1980 0.930 . S
C1988 N1987 1.305 . S
C1988 C1991 1.407 . S
C1989 H1983 0.930 . S
C1989 C1990 1.410 . S
C1989 C1991 1.345 . S
C1990 C1989 1.410 . S
C1990 C1992 1.417 . S
C1990 C2022 1.432 . S
C1991 H1977 0.930 . S
C1991 C1988 1.407 . S
C1991 C1989 1.345 . S
C1992 N1987 1.360 . S
C1992 C1990 1.417 . S
C1992 C1996 1.432 . S
H1993 C1998 0.930 . S
N1994 Tb1956 2.600 . S
N1994 C1996 1.359 . S
N1994 C1997 1.327 . S
C1995 H1981 0.931 . S
C1995 C1997 1.392 . S
C1995 C1998 1.370 . S
C1996 C1992 1.432 . S
C1996 N1994 1.359 . S
C1996 C1999 1.414 . S
C1997 H1979 0.930 . S
C1997 N1994 1.327 . S
C1997 C1995 1.392 . S
C1998 H1993 0.930 . S
C1998 C1995 1.370 . S
C1998 C1999 1.385 . S
C1999 C1996 1.414 . S
C1999 C1998 1.385 . S
C1999 C2021 1.444 . S
O2000 Tb1956 2.546 . S
O2000 C2020 1.251 . S
O2001 Tb1956 2.610 . S
O2001 Tb1967 2.362 . S
O2001 C2012 1.283 . S
O2002 Tb1967 2.421 . S
O2002 C2019 1.262 . S
O2003 Tb1956 2.320 . S
O2003 C2019 1.260 . S
O2004 Tb1956 2.552 . S
O2004 C2012 1.243 . S
O2005 Tb1956 2.413 . S
O2005 C2020 1.256 . S
O2006 Tb1967 2.546 . S
O2006 C2031 1.251 . S
O2007 Tb1956 2.362 . S
O2007 Tb1967 2.610 . S
O2007 C2023 1.283 . S
O2008 Tb1956 2.421 . S
O2008 C2030 1.262 . S
O2009 Tb1967 2.320 . S
O2009 C2030 1.260 . S
O2010 Tb1967 2.552 . S
O2010 C2023 1.243 . S
O2011 Tb1967 2.413 . S
O2011 C2031 1.256 . S
C2012 O2001 1.283 . S
C2012 O2004 1.243 . S
C2013 C2015 1.382 . S
C2013 C2017 1.393 . S
C2013 C2020 1.500 . S
C2014 C2015 1.400 . S
C2014 C2016 1.384 . S
C2015 C2013 1.382 . S
C2015 C2014 1.400 . S
C2015 H2032 0.930 . S
C2016 C2014 1.384 . S
C2016 C2018 1.392 . S
C2016 H2033 0.931 . S
C2017 C2013 1.393 . S
C2017 C2018 1.401 . S
C2017 H2034 0.930 . S
C2018 C2016 1.392 . S
C2018 C2017 1.401 . S
C2018 H2035 0.930 . S
C2019 O2002 1.262 . S
C2019 O2003 1.260 . S
C2020 Tb1956 2.833 . S
C2020 O2000 1.251 . S
C2020 O2005 1.256 . S
C2020 C2013 1.500 . S
C2021 H1986 0.929 . S
C2021 C1999 1.444 . S
C2021 C2022 1.317 . S
C2022 H1984 0.930 . S
C2022 C1990 1.432 . S
C2022 C2021 1.317 . S
C2023 O2007 1.283 . S
C2023 O2010 1.243 . S
C2024 C2025 1.382 . S
C2024 C2028 1.393 . S
C2024 C2031 1.500 . S
C2025 C2024 1.382 . S
C2025 C2026 1.400 . S
C2025 H2036 0.930 . S
C2026 C2025 1.400 . S
C2026 C2027 1.384 . S
C2027 C2026 1.384 . S
C2027 C2029 1.392 . S
C2027 H2037 0.931 . S
C2028 C2024 1.393 . S
C2028 C2029 1.401 . S
C2028 H2038 0.930 . S
C2029 C2027 1.392 . S
C2029 C2028 1.401 . S
C2029 H2039 0.930 . S
C2030 O2008 1.262 . S
C2030 O2009 1.260 . S
C2031 Tb1967 2.833 . S
C2031 O2006 1.251 . S
C2031 O2011 1.256 . S
C2031 C2024 1.500 . S
H2032 C2015 0.930 . S
H2033 C2016 0.931 . S
H2034 C2017 0.930 . S
H2035 C2018 0.930 . S
H2036 C2025 0.930 . S
H2037 C2027 0.931 . S
H2038 C2028 0.930 . S
H2039 C2029 0.930 . S
Tb2040 N2071 2.660 . S
Tb2040 N2078 2.600 . S
Tb2040 O2084 2.546 . S
Tb2040 O2085 2.610 . S
Tb2040 O2087 2.320 . S
Tb2040 O2088 2.552 . S
Tb2040 O2089 2.413 . S
Tb2040 O2091 2.362 . S
Tb2040 O2092 2.421 . S
Tb2040 C2104 2.833 . S
C2041 C2044 1.432 . S
C2041 C2045 1.414 . S
C2041 N2048 1.359 . S
C2042 C2044 1.417 . S
C2042 C2046 1.432 . S
C2042 C2054 1.410 . S
C2043 C2045 1.444 . S
C2043 C2046 1.317 . S
C2043 H2066 0.929 . S
C2044 C2041 1.432 . S
C2044 C2042 1.417 . S
C2044 N2052 1.360 . S
C2045 C2041 1.414 . S
C2045 C2043 1.444 . S
C2045 C2050 1.385 . S
C2046 C2042 1.432 . S
C2046 C2043 1.317 . S
C2046 H2058 0.930 . S
C2047 C2049 1.392 . S
C2047 C2050 1.370 . S
C2047 H2059 0.931 . S
N2048 C2041 1.359 . S
N2048 C2049 1.327 . S
N2048 Tb2051 2.600 . S
C2049 C2047 1.392 . S
C2049 N2048 1.327 . S
C2049 H2056 0.930 . S
C2050 C2045 1.385 . S
C2050 C2047 1.370 . S
C2050 H2069 0.930 . S
Tb2051 N2048 2.600 . S
Tb2051 N2052 2.660 . S
Tb2051 O2085 2.362 . S
Tb2051 O2086 2.421 . S
Tb2051 O2090 2.546 . S
Tb2051 O2091 2.610 . S
Tb2051 O2093 2.320 . S
Tb2051 O2094 2.552 . S
Tb2051 O2095 2.413 . S
Tb2051 C2115 2.833 . S
N2052 C2044 1.360 . S
N2052 Tb2051 2.660 . S
N2052 C2053 1.305 . S
C2053 N2052 1.305 . S
C2053 C2055 1.407 . S
C2053 H2060 0.930 . S
C2054 C2042 1.410 . S
C2054 C2055 1.345 . S
C2054 H2062 0.930 . S
C2055 C2053 1.407 . S
C2055 C2054 1.345 . S
C2055 H2057 0.930 . S
H2056 C2049 0.930 . S
H2057 C2055 0.930 . S
H2058 C2046 0.930 . S
H2059 C2047 0.931 . S
H2060 C2053 0.930 . S
H2061 C2075 0.930 . S
H2062 C2054 0.930 . S
H2063 C2081 0.930 . S
H2064 C2072 0.930 . S
H2065 C2079 0.931 . S
H2066 C2043 0.929 . S
H2067 C2073 0.930 . S
H2068 C2106 0.930 . S
H2069 C2050 0.930 . S
H2070 C2105 0.929 . S
N2071 Tb2040 2.660 . S
N2071 C2072 1.305 . S
N2071 C2076 1.360 . S
C2072 H2064 0.930 . S
C2072 N2071 1.305 . S
C2072 C2075 1.407 . S
C2073 H2067 0.930 . S
C2073 C2074 1.410 . S
C2073 C2075 1.345 . S
C2074 C2073 1.410 . S
C2074 C2076 1.417 . S
C2074 C2106 1.432 . S
C2075 H2061 0.930 . S
C2075 C2072 1.407 . S
C2075 C2073 1.345 . S
C2076 N2071 1.360 . S
C2076 C2074 1.417 . S
C2076 C2080 1.432 . S
H2077 C2082 0.930 . S
N2078 Tb2040 2.600 . S
N2078 C2080 1.359 . S
N2078 C2081 1.327 . S
C2079 H2065 0.931 . S
C2079 C2081 1.392 . S
C2079 C2082 1.370 . S
C2080 C2076 1.432 . S
C2080 N2078 1.359 . S
C2080 C2083 1.414 . S
C2081 H2063 0.930 . S
C2081 N2078 1.327 . S
C2081 C2079 1.392 . S
C2082 H2077 0.930 . S
C2082 C2079 1.370 . S
C2082 C2083 1.385 . S
C2083 C2080 1.414 . S
C2083 C2082 1.385 . S
C2083 C2105 1.444 . S
O2084 Tb2040 2.546 . S
O2084 C2104 1.251 . S
O2085 Tb2040 2.610 . S
O2085 Tb2051 2.362 . S
O2085 C2096 1.283 . S
O2086 Tb2051 2.421 . S
O2086 C2103 1.262 . S
O2087 Tb2040 2.320 . S
O2087 C2103 1.260 . S
O2088 Tb2040 2.552 . S
O2088 C2096 1.243 . S
O2089 Tb2040 2.413 . S
O2089 C2104 1.256 . S
O2090 Tb2051 2.546 . S
O2090 C2115 1.251 . S
O2091 Tb2040 2.362 . S
O2091 Tb2051 2.610 . S
O2091 C2107 1.283 . S
O2092 Tb2040 2.421 . S
O2092 C2114 1.262 . S
O2093 Tb2051 2.320 . S
O2093 C2114 1.260 . S
O2094 Tb2051 2.552 . S
O2094 C2107 1.243 . S
O2095 Tb2051 2.413 . S
O2095 C2115 1.256 . S
C2096 O2085 1.283 . S
C2096 O2088 1.243 . S
C2097 C2099 1.382 . S
C2097 C2101 1.393 . S
C2097 C2104 1.500 . S
C2098 C2099 1.400 . S
C2098 C2100 1.384 . S
C2099 C2097 1.382 . S
C2099 C2098 1.400 . S
C2099 H2116 0.930 . S
C2100 C2098 1.384 . S
C2100 C2102 1.392 . S
C2100 H2117 0.931 . S
C2101 C2097 1.393 . S
C2101 C2102 1.401 . S
C2101 H2118 0.930 . S
C2102 C2100 1.392 . S
C2102 C2101 1.401 . S
C2102 H2119 0.930 . S
C2103 O2086 1.262 . S
C2103 O2087 1.260 . S
C2104 Tb2040 2.833 . S
C2104 O2084 1.251 . S
C2104 O2089 1.256 . S
C2104 C2097 1.500 . S
C2105 H2070 0.929 . S
C2105 C2083 1.444 . S
C2105 C2106 1.317 . S
C2106 H2068 0.930 . S
C2106 C2074 1.432 . S
C2106 C2105 1.317 . S
C2107 O2091 1.283 . S
C2107 O2094 1.243 . S
C2108 C2109 1.382 . S
C2108 C2112 1.393 . S
C2108 C2115 1.500 . S
C2109 C2108 1.382 . S
C2109 C2110 1.400 . S
C2109 H2120 0.930 . S
C2110 C2109 1.400 . S
C2110 C2111 1.384 . S
C2111 C2110 1.384 . S
C2111 C2113 1.392 . S
C2111 H2121 0.931 . S
C2112 C2108 1.393 . S
C2112 C2113 1.401 . S
C2112 H2122 0.930 . S
C2113 C2111 1.392 . S
C2113 C2112 1.401 . S
C2113 H2123 0.930 . S
C2114 O2092 1.262 . S
C2114 O2093 1.260 . S
C2115 Tb2051 2.833 . S
C2115 O2090 1.251 . S
C2115 O2095 1.256 . S
C2115 C2108 1.500 . S
H2116 C2099 0.930 . S
H2117 C2100 0.931 . S
H2118 C2101 0.930 . S
H2119 C2102 0.930 . S
H2120 C2109 0.930 . S
H2121 C2111 0.931 . S
H2122 C2112 0.930 . S
H2123 C2113 0.930 . S
Tb2124 N2155 2.660 . S
Tb2124 N2162 2.600 1_554 S
Tb2124 O2168 2.546 1_554 S
Tb2124 O2169 2.610 . S
Tb2124 O2171 2.320 . S
Tb2124 O2172 2.552 . S
Tb2124 O2173 2.413 . S
Tb2124 O2175 2.362 . S
Tb2124 O2176 2.421 1_554 S
Tb2124 C2188 2.833 1_554 S
C2125 C2128 1.431 1_455 S
C2125 C2129 1.403 1_455 S
C2125 N2132 1.373 . S
C2126 C2128 1.417 . S
C2126 C2130 1.432 . S
C2126 C2138 1.410 1_554 S
C2127 C2129 1.444 . S
C2127 C2130 1.317 . S
C2127 H2150 0.929 . S
C2128 C2125 1.431 1_655 S
C2128 C2126 1.417 . S
C2128 N2136 1.360 1_655 S
C2129 C2125 1.403 1_655 S
C2129 C2127 1.444 . S
C2129 C2134 1.385 . S
C2130 C2126 1.432 . S
C2130 C2127 1.317 . S
C2130 H2142 0.930 . S
C2131 C2133 1.392 . S
C2131 C2134 1.370 1_455 S
C2131 H2143 0.931 . S
N2132 C2125 1.373 . S
N2132 C2133 1.327 . S
N2132 Tb2135 2.600 . S
C2133 C2131 1.392 . S
C2133 N2132 1.327 . S
C2133 H2140 0.930 . S
C2134 C2129 1.385 . S
C2134 C2131 1.370 1_655 S
C2134 H2153 0.930 . S
Tb2135 N2132 2.600 . S
Tb2135 N2136 2.660 . S
Tb2135 O2169 2.362 . S
Tb2135 O2170 2.421 . S
Tb2135 O2174 2.546 . S
Tb2135 O2175 2.610 . S
Tb2135 O2177 2.320 1_554 S
Tb2135 O2178 2.552 . S
Tb2135 O2179 2.361 1_455 S
Tb2135 C2199 2.833 1_455 S
N2136 C2128 1.360 1_455 S
N2136 Tb2135 2.660 . S
N2136 C2137 1.305 1_554 S
C2137 N2136 1.305 1_556 S
C2137 C2139 1.407 1_455 S
C2137 H2144 0.930 . S
C2138 C2126 1.410 1_556 S
C2138 C2139 1.345 . S
C2138 H2146 0.930 . S
C2139 C2137 1.407 1_655 S
C2139 C2138 1.345 . S
C2139 H2141 0.930 . S
H2140 C2133 0.930 . S
H2141 C2139 0.930 . S
H2142 C2130 0.930 . S
H2143 C2131 0.931 . S
H2144 C2137 0.930 . S
H2145 C2159 0.930 . S
H2146 C2138 0.930 . S
H2147 C2165 0.930 . S
H2148 C2156 0.930 . S
H2149 C2163 0.931 . S
H2150 C2127 0.929 . S
H2151 C2157 0.930 . S
H2152 C2190 0.930 . S
H2153 C2134 0.930 . S
H2154 C2189 0.929 . S
N2155 Tb2124 2.660 . S
N2155 C2156 1.305 . S
N2155 C2160 1.360 . S
C2156 H2148 0.930 . S
C2156 N2155 1.305 . S
C2156 C2159 1.407 . S
C2157 H2151 0.930 . S
C2157 C2158 1.410 . S
C2157 C2159 1.345 . S
C2158 C2157 1.410 . S
C2158 C2160 1.417 . S
C2158 C2190 1.432 . S
C2159 H2145 0.930 . S
C2159 C2156 1.407 . S
C2159 C2157 1.345 . S
C2160 N2155 1.360 . S
C2160 C2158 1.417 . S
C2160 C2164 1.432 1_554 S
H2161 C2166 0.930 . S
N2162 Tb2124 2.600 1_556 S
N2162 C2164 1.359 . S
N2162 C2165 1.327 . S
C2163 H2149 0.931 . S
C2163 C2165 1.392 . S
C2163 C2166 1.370 . S
C2164 C2160 1.432 1_556 S
C2164 N2162 1.359 . S
C2164 C2167 1.414 . S
C2165 H2147 0.930 . S
C2165 N2162 1.327 . S
C2165 C2163 1.392 . S
C2166 H2161 0.930 . S
C2166 C2163 1.370 . S
C2166 C2167 1.385 . S
C2167 C2164 1.414 . S
C2167 C2166 1.385 . S
C2167 C2189 1.444 . S
O2168 Tb2124 2.546 1_556 S
O2168 C2188 1.251 . S
O2169 Tb2124 2.610 . S
O2169 Tb2135 2.362 . S
O2169 C2180 1.283 . S
O2170 Tb2135 2.421 . S
O2170 C2187 1.262 . S
O2171 Tb2124 2.320 . S
O2171 C2187 1.260 . S
O2172 Tb2124 2.552 . S
O2172 C2180 1.243 . S
O2173 Tb2124 2.413 . S
O2173 C2188 1.256 1_554 S
O2174 Tb2135 2.546 . S
O2174 C2199 1.251 1_455 S
O2175 Tb2124 2.362 . S
O2175 Tb2135 2.610 . S
O2175 C2191 1.283 . S
O2176 Tb2124 2.421 1_556 S
O2176 C2198 1.262 . S
O2177 Tb2135 2.320 1_556 S
O2177 C2198 1.260 . S
O2178 Tb2135 2.552 . S
O2178 C2191 1.243 . S
O2179 Tb2135 2.361 1_655 S
O2179 C2199 1.271 . S
C2180 O2169 1.283 . S
C2180 O2172 1.243 . S
C2181 C2183 1.382 1_556 S
C2181 C2185 1.393 . S
C2181 C2188 1.500 . S
C2182 C2183 1.400 . S
C2182 C2184 1.384 1_554 S
C2183 C2181 1.382 1_554 S
C2183 C2182 1.400 . S
C2183 H2200 0.930 . S
C2184 C2182 1.384 1_556 S
C2184 C2186 1.392 . S
C2184 H2201 0.931 . S
C2185 C2181 1.393 . S
C2185 C2186 1.401 . S
C2185 H2202 0.930 . S
C2186 C2184 1.392 . S
C2186 C2185 1.401 . S
C2186 H2203 0.930 . S
C2187 O2170 1.262 . S
C2187 O2171 1.260 . S
C2188 Tb2124 2.833 1_556 S
C2188 O2168 1.251 . S
C2188 O2173 1.256 1_556 S
C2188 C2181 1.500 . S
C2189 H2154 0.929 . S
C2189 C2167 1.444 . S
C2189 C2190 1.317 1_556 S
C2190 H2152 0.930 . S
C2190 C2158 1.432 . S
C2190 C2189 1.317 1_554 S
C2191 O2175 1.283 . S
C2191 O2178 1.243 . S
C2192 C2193 1.382 . S
C2192 C2196 1.393 . S
C2192 C2199 1.500 . S
C2193 C2192 1.382 . S
C2193 C2194 1.400 . S
C2193 H2204 0.930 . S
C2194 C2193 1.400 . S
C2194 C2195 1.384 . S
C2195 C2194 1.384 . S
C2195 C2197 1.392 . S
C2195 H2205 0.931 . S
C2196 C2192 1.393 . S
C2196 C2197 1.401 . S
C2196 H2206 0.930 . S
C2197 C2195 1.392 . S
C2197 C2196 1.401 . S
C2197 H2207 0.930 . S
C2198 O2176 1.262 . S
C2198 O2177 1.260 . S
C2199 Tb2135 2.833 1_655 S
C2199 O2174 1.251 1_655 S
C2199 O2179 1.271 . S
C2199 C2192 1.500 . S
H2200 C2183 0.930 . S
H2201 C2184 0.931 . S
H2202 C2185 0.930 . S
H2203 C2186 0.930 . S
H2204 C2193 0.930 . S
H2205 C2195 0.931 . S
H2206 C2196 0.930 . S
H2207 C2197 0.930 . S
H2208 C2226 0.951 1_655 S
H2209 C2228 0.951 1_655 S
H2210 C2230 0.950 . S
H2211 C2231 0.950 . S
H2212 C2233 0.950 . S
H2213 C2236 0.950 . S
H2214 C2237 0.950 . S
H2215 C2239 0.950 1_655 S
H2216 C2240 0.944 1_655 S
H2217 C2241 0.951 . S
H2218 C2243 0.951 . S
H2219 C2245 0.950 . S
H2220 C2246 0.950 . S
H2221 C2248 0.954 . S
H2222 C2251 0.950 . S
H2223 C2252 0.950 . S
H2224 C2254 0.950 . S
H2225 C2255 0.950 . S
C2226 H2208 0.951 1_455 S
C2226 C2227 1.366 . S
C2226 C2228 1.388 . S
C2227 C2226 1.366 . S
C2227 C2231 1.385 . S
C2228 H2209 0.951 1_455 S
C2228 C2226 1.388 . S
C2228 C2229 1.366 . S
C2229 C2228 1.366 . S
C2229 C2230 1.414 . S
C2229 C2232 1.499 . S
C2230 H2210 0.950 . S
C2230 C2229 1.414 . S
C2230 C2231 1.374 . S
C2231 H2211 0.950 . S
C2231 C2227 1.385 . S
C2231 C2230 1.374 . S
C2232 C2229 1.499 . S
C2232 C2233 1.373 . S
C2232 C2234 1.389 . S
C2233 H2212 0.950 . S
C2233 C2232 1.373 . S
C2233 C2249 1.377 . S
C2234 C2232 1.389 . S
C2234 C2235 1.524 1_556 S
C2234 C2248 1.375 1_556 S
C2235 C2234 1.524 1_554 S
C2235 C2236 1.397 . S
C2235 C2240 1.363 . S
C2236 H2213 0.950 . S
C2236 C2235 1.397 . S
C2236 C2237 1.334 . S
C2237 H2214 0.950 . S
C2237 C2236 1.334 . S
C2237 C2238 1.287 . S
C2238 C2237 1.287 . S
C2238 C2239 1.524 . S
C2238 H2257 0.913 . S
C2239 H2215 0.950 1_455 S
C2239 C2238 1.524 . S
C2239 C2240 1.415 . S
C2240 H2216 0.944 1_455 S
C2240 C2235 1.363 . S
C2240 C2239 1.415 . S
C2241 H2217 0.951 . S
C2241 C2242 1.366 1_556 S
C2241 C2243 1.388 . S
C2242 C2241 1.366 1_554 S
C2242 C2246 1.385 . S
C2243 H2218 0.951 . S
C2243 C2241 1.388 . S
C2243 C2244 1.366 . S
C2244 C2243 1.366 . S
C2244 C2245 1.414 1_556 S
C2244 C2247 1.499 . S
C2245 H2219 0.950 . S
C2245 C2244 1.414 1_554 S
C2245 C2246 1.374 . S
C2246 H2220 0.950 . S
C2246 C2242 1.385 . S
C2246 C2245 1.374 . S
C2247 C2244 1.499 . S
C2247 C2248 1.371 1_556 S
C2247 C2249 1.389 . S
C2248 H2221 0.954 . S
C2248 C2234 1.375 1_554 S
C2248 C2247 1.371 1_554 S
C2249 C2233 1.377 . S
C2249 C2247 1.389 . S
C2249 C2250 1.524 . S
C2250 C2249 1.524 . S
C2250 C2251 1.397 . S
C2250 C2255 1.363 . S
C2251 H2222 0.950 . S
C2251 C2250 1.397 . S
C2251 C2252 1.334 . S
C2252 H2223 0.950 . S
C2252 C2251 1.334 . S
C2252 C2253 1.287 . S
C2253 C2252 1.287 . S
C2253 C2254 1.524 . S
C2253 H2256 0.999 . S
C2254 H2224 0.950 . S
C2254 C2253 1.524 . S
C2254 C2255 1.415 . S
C2255 H2225 0.950 . S
C2255 C2250 1.363 . S
C2255 C2254 1.415 . S
H2256 C2253 0.999 . S
H2257 C2238 0.913 . S
H2258 C2276 0.951 . S
H2259 C2278 0.951 . S
H2260 C2280 0.950 . S
H2261 C2281 0.950 . S
H2262 C2283 0.950 . S
H2263 C2286 0.950 . S
H2264 C2287 0.950 . S
H2265 C2289 0.950 . S
H2266 C2290 0.950 . S
H2267 C2291 0.951 . S
H2268 C2293 0.951 . S
H2269 C2295 0.950 . S
H2270 C2296 0.950 . S
H2271 C2298 0.950 . S
H2272 C2301 0.950 . S
H2273 C2302 0.950 . S
H2274 C2304 0.950 . S
H2275 C2305 0.950 . S
C2276 H2258 0.951 . S
C2276 C2277 1.366 . S
C2276 C2278 1.388 . S
C2277 C2276 1.366 . S
C2277 C2281 1.385 . S
C2278 H2259 0.951 . S
C2278 C2276 1.388 . S
C2278 C2279 1.366 . S
C2279 C2278 1.366 . S
C2279 C2280 1.414 . S
C2279 C2282 1.499 . S
C2280 H2260 0.950 . S
C2280 C2279 1.414 . S
C2280 C2281 1.374 . S
C2281 H2261 0.950 . S
C2281 C2277 1.385 . S
C2281 C2280 1.374 . S
C2282 C2279 1.499 . S
C2282 C2283 1.373 . S
C2282 C2284 1.389 . S
C2283 H2262 0.950 . S
C2283 C2282 1.373 . S
C2283 C2299 1.377 . S
C2284 C2282 1.389 . S
C2284 C2285 1.524 . S
C2284 C2298 1.377 . S
C2285 C2284 1.524 . S
C2285 C2286 1.397 . S
C2285 C2290 1.363 . S
C2286 H2263 0.950 . S
C2286 C2285 1.397 . S
C2286 C2287 1.334 . S
C2287 H2264 0.950 . S
C2287 C2286 1.334 . S
C2287 C2288 1.287 . S
C2288 C2287 1.287 . S
C2288 C2289 1.524 . S
C2288 H2307 0.913 . S
C2289 H2265 0.950 . S
C2289 C2288 1.524 . S
C2289 C2290 1.415 . S
C2290 H2266 0.950 . S
C2290 C2285 1.363 . S
C2290 C2289 1.415 . S
C2291 H2267 0.951 . S
C2291 C2292 1.366 . S
C2291 C2293 1.388 . S
C2292 C2291 1.366 . S
C2292 C2296 1.385 . S
C2293 H2268 0.951 . S
C2293 C2291 1.388 . S
C2293 C2294 1.366 . S
C2294 C2293 1.366 . S
C2294 C2295 1.414 . S
C2294 C2297 1.499 . S
C2295 H2269 0.950 . S
C2295 C2294 1.414 . S
C2295 C2296 1.374 . S
C2296 H2270 0.950 . S
C2296 C2292 1.385 . S
C2296 C2295 1.374 . S
C2297 C2294 1.499 . S
C2297 C2298 1.373 . S
C2297 C2299 1.389 . S
C2298 H2271 0.950 . S
C2298 C2284 1.377 . S
C2298 C2297 1.373 . S
C2299 C2283 1.377 . S
C2299 C2297 1.389 . S
C2299 C2300 1.524 . S
C2300 C2299 1.524 . S
C2300 C2301 1.397 . S
C2300 C2305 1.363 . S
C2301 H2272 0.950 . S
C2301 C2300 1.397 . S
C2301 C2302 1.334 . S
C2302 H2273 0.950 . S
C2302 C2301 1.334 . S
C2302 C2303 1.287 . S
C2303 C2302 1.287 . S
C2303 C2304 1.524 . S
C2303 H2306 0.999 . S
C2304 H2274 0.950 . S
C2304 C2303 1.524 . S
C2304 C2305 1.415 . S
C2305 H2275 0.950 . S
C2305 C2300 1.363 . S
C2305 C2304 1.415 . S
H2306 C2303 0.999 . S
H2307 C2288 0.913 . S
H2308 C2326 0.951 . S
H2309 C2328 0.951 . S
H2310 C2330 0.950 . S
H2311 C2331 0.950 . S
H2312 C2333 0.950 . S
H2313 C2336 0.950 . S
H2314 C2337 0.950 . S
H2315 C2339 0.950 . S
H2316 C2340 0.950 . S
H2317 C2341 0.951 . S
H2318 C2343 0.951 . S
H2319 C2345 0.950 . S
H2320 C2346 0.950 . S
H2321 C2348 0.950 . S
H2322 C2351 0.950 . S
H2323 C2352 0.950 . S
H2324 C2354 0.950 . S
H2325 C2355 0.950 . S
C2326 H2308 0.951 . S
C2326 C2327 1.366 . S
C2326 C2328 1.388 . S
C2327 C2326 1.366 . S
C2327 C2331 1.385 . S
C2328 H2309 0.951 . S
C2328 C2326 1.388 . S
C2328 C2329 1.366 . S
C2329 C2328 1.366 . S
C2329 C2330 1.414 . S
C2329 C2332 1.499 . S
C2330 H2310 0.950 . S
C2330 C2329 1.414 . S
C2330 C2331 1.374 . S
C2331 H2311 0.950 . S
C2331 C2327 1.385 . S
C2331 C2330 1.374 . S
C2332 C2329 1.499 . S
C2332 C2333 1.373 . S
C2332 C2334 1.389 . S
C2333 H2312 0.950 . S
C2333 C2332 1.373 . S
C2333 C2349 1.377 . S
C2334 C2332 1.389 . S
C2334 C2335 1.524 . S
C2334 C2348 1.377 . S
C2335 C2334 1.524 . S
C2335 C2336 1.397 . S
C2335 C2340 1.363 . S
C2336 H2313 0.950 . S
C2336 C2335 1.397 . S
C2336 C2337 1.334 . S
C2337 H2314 0.950 . S
C2337 C2336 1.334 . S
C2337 C2338 1.287 . S
C2338 C2337 1.287 . S
C2338 C2339 1.524 . S
C2338 H2357 0.913 . S
C2339 H2315 0.950 . S
C2339 C2338 1.524 . S
C2339 C2340 1.415 . S
C2340 H2316 0.950 . S
C2340 C2335 1.363 . S
C2340 C2339 1.415 . S
C2341 H2317 0.951 . S
C2341 C2342 1.366 . S
C2341 C2343 1.388 . S
C2342 C2341 1.366 . S
C2342 C2346 1.385 . S
C2343 H2318 0.951 . S
C2343 C2341 1.388 . S
C2343 C2344 1.366 . S
C2344 C2343 1.366 . S
C2344 C2345 1.414 . S
C2344 C2347 1.499 . S
C2345 H2319 0.950 . S
C2345 C2344 1.414 . S
C2345 C2346 1.374 . S
C2346 H2320 0.950 . S
C2346 C2342 1.385 . S
C2346 C2345 1.374 . S
C2347 C2344 1.499 . S
C2347 C2348 1.373 . S
C2347 C2349 1.389 . S
C2348 H2321 0.950 . S
C2348 C2334 1.377 . S
C2348 C2347 1.373 . S
C2349 C2333 1.377 . S
C2349 C2347 1.389 . S
C2349 C2350 1.524 . S
C2350 C2349 1.524 . S
C2350 C2351 1.397 . S
C2350 C2355 1.363 . S
C2351 H2322 0.950 . S
C2351 C2350 1.397 . S
C2351 C2352 1.334 . S
C2352 H2323 0.950 . S
C2352 C2351 1.334 . S
C2352 C2353 1.287 . S
C2353 C2352 1.287 . S
C2353 C2354 1.524 . S
C2353 H2356 0.999 . S
C2354 H2324 0.950 . S
C2354 C2353 1.524 . S
C2354 C2355 1.415 . S
C2355 H2325 0.950 . S
C2355 C2350 1.363 . S
C2355 C2354 1.415 . S
H2356 C2353 0.999 . S
H2357 C2338 0.913 . S
H2358 C2376 0.951 . S
H2359 C2378 0.951 . S
H2360 C2380 0.950 . S
H2361 C2381 0.950 . S
H2362 C2383 0.950 . S
H2363 C2386 0.950 . S
H2364 C2387 0.950 . S
H2365 C2389 0.950 . S
H2366 C2390 0.950 . S
H2367 C2391 0.951 . S
H2368 C2393 0.951 . S
H2369 C2395 0.950 . S
H2370 C2396 0.950 . S
H2371 C2398 0.950 . S
H2372 C2401 0.950 . S
H2373 C2402 0.950 . S
H2374 C2404 0.950 . S
H2375 C2405 0.950 . S
C2376 H2358 0.951 . S
C2376 C2377 1.366 . S
C2376 C2378 1.388 . S
C2377 C2376 1.366 . S
C2377 C2381 1.385 . S
C2378 H2359 0.951 . S
C2378 C2376 1.388 . S
C2378 C2379 1.366 . S
C2379 C2378 1.366 . S
C2379 C2380 1.414 . S
C2379 C2382 1.499 . S
C2380 H2360 0.950 . S
C2380 C2379 1.414 . S
C2380 C2381 1.374 . S
C2381 H2361 0.950 . S
C2381 C2377 1.385 . S
C2381 C2380 1.374 . S
C2382 C2379 1.499 . S
C2382 C2383 1.373 . S
C2382 C2384 1.389 . S
C2383 H2362 0.950 . S
C2383 C2382 1.373 . S
C2383 C2399 1.377 . S
C2384 C2382 1.389 . S
C2384 C2385 1.524 . S
C2384 C2398 1.377 . S
C2385 C2384 1.524 . S
C2385 C2386 1.397 . S
C2385 C2390 1.363 . S
C2386 H2363 0.950 . S
C2386 C2385 1.397 . S
C2386 C2387 1.334 . S
C2387 H2364 0.950 . S
C2387 C2386 1.334 . S
C2387 C2388 1.287 . S
C2388 C2387 1.287 . S
C2388 C2389 1.524 . S
C2388 H2407 0.913 . S
C2389 H2365 0.950 . S
C2389 C2388 1.524 . S
C2389 C2390 1.415 . S
C2390 H2366 0.950 . S
C2390 C2385 1.363 . S
C2390 C2389 1.415 . S
C2391 H2367 0.951 . S
C2391 C2392 1.366 . S
C2391 C2393 1.388 . S
C2392 C2391 1.366 . S
C2392 C2396 1.385 . S
C2393 H2368 0.951 . S
C2393 C2391 1.388 . S
C2393 C2394 1.366 . S
C2394 C2393 1.366 . S
C2394 C2395 1.414 . S
C2394 C2397 1.499 . S
C2395 H2369 0.950 . S
C2395 C2394 1.414 . S
C2395 C2396 1.374 . S
C2396 H2370 0.950 . S
C2396 C2392 1.385 . S
C2396 C2395 1.374 . S
C2397 C2394 1.499 . S
C2397 C2398 1.373 . S
C2397 C2399 1.389 . S
C2398 H2371 0.950 . S
C2398 C2384 1.377 . S
C2398 C2397 1.373 . S
C2399 C2383 1.377 . S
C2399 C2397 1.389 . S
C2399 C2400 1.524 . S
C2400 C2399 1.524 . S
C2400 C2401 1.397 . S
C2400 C2405 1.363 . S
C2401 H2372 0.950 . S
C2401 C2400 1.397 . S
C2401 C2402 1.334 . S
C2402 H2373 0.950 . S
C2402 C2401 1.334 . S
C2402 C2403 1.287 . S
C2403 C2402 1.287 . S
C2403 C2404 1.524 . S
C2403 H2406 0.999 . S
C2404 H2374 0.950 . S
C2404 C2403 1.524 . S
C2404 C2405 1.415 . S
C2405 H2375 0.950 . S
C2405 C2400 1.363 . S
C2405 C2404 1.415 . S
H2406 C2403 0.999 . S
H2407 C2388 0.913 . S
H2408 C2426 0.951 . S
H2409 C2428 0.951 . S
H2410 C2430 0.950 . S
H2411 C2431 0.950 . S
H2412 C2433 0.950 . S
H2413 C2436 0.950 . S
H2414 C2437 0.950 . S
H2415 C2439 0.950 . S
H2416 C2440 0.950 . S
H2417 C2441 0.951 . S
H2418 C2443 0.951 . S
H2419 C2445 0.950 . S
H2420 C2446 0.950 . S
H2421 C2448 0.950 . S
H2422 C2451 0.950 . S
H2423 C2452 0.950 . S
H2424 C2454 0.950 . S
H2425 C2455 0.950 . S
C2426 H2408 0.951 . S
C2426 C2427 1.366 1_655 S
C2426 C2428 1.388 . S
C2427 C2426 1.366 1_455 S
C2427 C2431 1.385 . S
C2428 H2409 0.951 . S
C2428 C2426 1.388 . S
C2428 C2429 1.366 1_655 S
C2429 C2428 1.366 1_455 S
C2429 C2430 1.414 . S
C2429 C2432 1.499 . S
C2430 H2410 0.950 . S
C2430 C2429 1.414 . S
C2430 C2431 1.374 . S
C2431 H2411 0.950 . S
C2431 C2427 1.385 . S
C2431 C2430 1.374 . S
C2432 C2429 1.499 . S
C2432 C2433 1.373 . S
C2432 C2434 1.389 . S
C2433 H2412 0.950 . S
C2433 C2432 1.373 . S
C2433 C2449 1.377 . S
C2434 C2432 1.389 . S
C2434 C2435 1.524 . S
C2434 C2448 1.377 . S
C2435 C2434 1.524 . S
C2435 C2436 1.397 . S
C2435 C2440 1.363 1_455 S
C2436 H2413 0.950 . S
C2436 C2435 1.397 . S
C2436 C2437 1.334 . S
C2437 H2414 0.950 . S
C2437 C2436 1.334 . S
C2437 C2438 1.323 . S
C2438 C2437 1.323 . S
C2438 C2439 1.487 1_455 S
C2438 H2457 0.912 1_455 S
C2439 H2415 0.950 . S
C2439 C2438 1.487 1_655 S
C2439 C2440 1.415 . S
C2440 H2416 0.950 . S
C2440 C2435 1.363 1_655 S
C2440 C2439 1.415 . S
C2441 H2417 0.951 . S
C2441 C2442 1.366 . S
C2441 C2443 1.388 . S
C2442 C2441 1.366 . S
C2442 C2446 1.385 . S
C2443 H2418 0.951 . S
C2443 C2441 1.388 . S
C2443 C2444 1.366 . S
C2444 C2443 1.366 . S
C2444 C2445 1.414 . S
C2444 C2447 1.499 . S
C2445 H2419 0.950 . S
C2445 C2444 1.414 . S
C2445 C2446 1.374 . S
C2446 H2420 0.950 . S
C2446 C2442 1.385 . S
C2446 C2445 1.374 . S
C2447 C2444 1.499 . S
C2447 C2448 1.373 . S
C2447 C2449 1.389 . S
C2448 H2421 0.950 . S
C2448 C2434 1.377 . S
C2448 C2447 1.373 . S
C2449 C2433 1.377 . S
C2449 C2447 1.389 . S
C2449 C2450 1.524 . S
C2450 C2449 1.524 . S
C2450 C2451 1.397 . S
C2450 C2455 1.363 . S
C2451 H2422 0.950 . S
C2451 C2450 1.397 . S
C2451 C2452 1.334 . S
C2452 H2423 0.950 . S
C2452 C2451 1.334 . S
C2452 C2453 1.287 . S
C2453 C2452 1.287 . S
C2453 C2454 1.524 . S
C2453 H2456 0.999 . S
C2454 H2424 0.950 . S
C2454 C2453 1.524 . S
C2454 C2455 1.415 . S
C2455 H2425 0.950 . S
C2455 C2450 1.363 . S
C2455 C2454 1.415 . S
H2456 C2453 0.999 . S
H2457 C2438 0.912 1_655 S
H2458 C2476 0.951 . S
H2459 C2478 0.951 . S
H2460 C2480 0.950 . S
H2461 C2481 0.950 . S
H2462 C2483 0.950 . S
H2463 C2486 0.950 . S
H2464 C2487 0.950 . S
H2465 C2489 0.950 . S
H2466 C2490 0.950 . S
H2467 C2491 0.951 . S
H2468 C2493 0.951 . S
H2469 C2495 0.950 . S
H2470 C2496 0.950 . S
H2471 C2498 0.950 . S
H2472 C2501 0.950 . S
H2473 C2502 0.950 . S
H2474 C2504 0.950 . S
H2475 C2505 0.950 . S
C2476 H2458 0.951 . S
C2476 C2477 1.366 . S
C2476 C2478 1.388 . S
C2477 C2476 1.366 . S
C2477 C2481 1.385 . S
C2478 H2459 0.951 . S
C2478 C2476 1.388 . S
C2478 C2479 1.366 . S
C2479 C2478 1.366 . S
C2479 C2480 1.414 . S
C2479 C2482 1.499 . S
C2480 H2460 0.950 . S
C2480 C2479 1.414 . S
C2480 C2481 1.374 . S
C2481 H2461 0.950 . S
C2481 C2477 1.385 . S
C2481 C2480 1.374 . S
C2482 C2479 1.499 . S
C2482 C2483 1.373 . S
C2482 C2484 1.389 . S
C2483 H2462 0.950 . S
C2483 C2482 1.373 . S
C2483 C2499 1.377 . S
C2484 C2482 1.389 . S
C2484 C2485 1.524 . S
C2484 C2498 1.377 . S
C2485 C2484 1.524 . S
C2485 C2486 1.397 . S
C2485 C2490 1.363 . S
C2486 H2463 0.950 . S
C2486 C2485 1.397 . S
C2486 C2487 1.334 . S
C2487 H2464 0.950 . S
C2487 C2486 1.334 . S
C2487 C2488 1.287 . S
C2488 C2487 1.287 . S
C2488 C2489 1.524 . S
C2488 H2507 0.913 . S
C2489 H2465 0.950 . S
C2489 C2488 1.524 . S
C2489 C2490 1.415 . S
C2490 H2466 0.950 . S
C2490 C2485 1.363 . S
C2490 C2489 1.415 . S
C2491 H2467 0.951 . S
C2491 C2492 1.366 . S
C2491 C2493 1.388 . S
C2492 C2491 1.366 . S
C2492 C2496 1.385 . S
C2493 H2468 0.951 . S
C2493 C2491 1.388 . S
C2493 C2494 1.366 . S
C2494 C2493 1.366 . S
C2494 C2495 1.414 . S
C2494 C2497 1.499 . S
C2495 H2469 0.950 . S
C2495 C2494 1.414 . S
C2495 C2496 1.374 . S
C2496 H2470 0.950 . S
C2496 C2492 1.385 . S
C2496 C2495 1.374 . S
C2497 C2494 1.499 . S
C2497 C2498 1.373 . S
C2497 C2499 1.389 . S
C2498 H2471 0.950 . S
C2498 C2484 1.377 . S
C2498 C2497 1.373 . S
C2499 C2483 1.377 . S
C2499 C2497 1.389 . S
C2499 C2500 1.524 . S
C2500 C2499 1.524 . S
C2500 C2501 1.397 . S
C2500 C2505 1.363 . S
C2501 H2472 0.950 . S
C2501 C2500 1.397 . S
C2501 C2502 1.334 . S
C2502 H2473 0.950 . S
C2502 C2501 1.334 . S
C2502 C2503 1.287 . S
C2503 C2502 1.287 . S
C2503 C2504 1.524 . S
C2503 H2506 0.999 . S
C2504 H2474 0.950 . S
C2504 C2503 1.524 . S
C2504 C2505 1.415 . S
C2505 H2475 0.950 . S
C2505 C2500 1.363 . S
C2505 C2504 1.415 . S
H2506 C2503 0.999 . S
H2507 C2488 0.913 . S
H2508 C2526 0.951 . S
H2509 C2528 0.951 . S
H2510 C2530 0.950 . S
H2511 C2531 0.950 . S
H2512 C2533 0.950 . S
H2513 C2536 0.950 . S
H2514 C2537 0.950 . S
H2515 C2539 0.950 . S
H2516 C2540 0.950 . S
H2517 C2541 0.951 . S
H2518 C2543 0.951 . S
H2519 C2545 0.950 . S
H2520 C2546 0.950 . S
H2521 C2548 0.950 . S
H2522 C2551 0.950 . S
H2523 C2552 0.950 . S
H2524 C2554 0.950 . S
H2525 C2555 0.950 . S
C2526 H2508 0.951 . S
C2526 C2527 1.366 . S
C2526 C2528 1.388 . S
C2527 C2526 1.366 . S
C2527 C2531 1.385 . S
C2528 H2509 0.951 . S
C2528 C2526 1.388 . S
C2528 C2529 1.366 . S
C2529 C2528 1.366 . S
C2529 C2530 1.414 . S
C2529 C2532 1.499 . S
C2530 H2510 0.950 . S
C2530 C2529 1.414 . S
C2530 C2531 1.374 . S
C2531 H2511 0.950 . S
C2531 C2527 1.385 . S
C2531 C2530 1.374 . S
C2532 C2529 1.499 . S
C2532 C2533 1.373 . S
C2532 C2534 1.389 . S
C2533 H2512 0.950 . S
C2533 C2532 1.373 . S
C2533 C2549 1.377 . S
C2534 C2532 1.389 . S
C2534 C2535 1.524 . S
C2534 C2548 1.377 . S
C2535 C2534 1.524 . S
C2535 C2536 1.397 . S
C2535 C2540 1.363 . S
C2536 H2513 0.950 . S
C2536 C2535 1.397 . S
C2536 C2537 1.334 . S
C2537 H2514 0.950 . S
C2537 C2536 1.334 . S
C2537 C2538 1.287 . S
C2538 C2537 1.287 . S
C2538 C2539 1.524 . S
C2538 H2557 0.913 . S
C2539 H2515 0.950 . S
C2539 C2538 1.524 . S
C2539 C2540 1.415 . S
C2540 H2516 0.950 . S
C2540 C2535 1.363 . S
C2540 C2539 1.415 . S
C2541 H2517 0.951 . S
C2541 C2542 1.366 . S
C2541 C2543 1.388 . S
C2542 C2541 1.366 . S
C2542 C2546 1.385 . S
C2543 H2518 0.951 . S
C2543 C2541 1.388 . S
C2543 C2544 1.366 . S
C2544 C2543 1.366 . S
C2544 C2545 1.414 . S
C2544 C2547 1.499 . S
C2545 H2519 0.950 . S
C2545 C2544 1.414 . S
C2545 C2546 1.374 . S
C2546 H2520 0.950 . S
C2546 C2542 1.385 . S
C2546 C2545 1.374 . S
C2547 C2544 1.499 . S
C2547 C2548 1.373 . S
C2547 C2549 1.389 . S
C2548 H2521 0.950 . S
C2548 C2534 1.377 . S
C2548 C2547 1.373 . S
C2549 C2533 1.377 . S
C2549 C2547 1.389 . S
C2549 C2550 1.524 . S
C2550 C2549 1.524 . S
C2550 C2551 1.397 . S
C2550 C2555 1.363 . S
C2551 H2522 0.950 . S
C2551 C2550 1.397 . S
C2551 C2552 1.334 . S
C2552 H2523 0.950 . S
C2552 C2551 1.334 . S
C2552 C2553 1.287 . S
C2553 C2552 1.287 . S
C2553 C2554 1.524 . S
C2553 H2556 0.959 1_554 S
C2554 H2524 0.950 . S
C2554 C2553 1.524 . S
C2554 C2555 1.415 . S
C2555 H2525 0.950 . S
C2555 C2550 1.363 . S
C2555 C2554 1.415 . S
H2556 C2553 0.959 1_556 S
H2557 C2538 0.913 . S
H2558 C2576 0.951 . S
H2559 C2578 0.951 . S
H2560 C2580 0.950 . S
H2561 C2581 0.950 . S
H2562 C2583 0.950 . S
H2563 C2586 0.950 . S
H2564 C2587 0.950 . S
H2565 C2589 0.950 . S
H2566 C2590 0.950 . S
H2567 C2591 0.951 . S
H2568 C2593 0.951 . S
H2569 C2595 0.950 . S
H2570 C2596 0.950 . S
H2571 C2598 0.950 . S
H2572 C2601 0.950 . S
H2573 C2602 0.950 . S
H2574 C2604 0.950 . S
H2575 C2605 0.950 . S
C2576 H2558 0.951 . S
C2576 C2577 1.366 . S
C2576 C2578 1.388 . S
C2577 C2576 1.366 . S
C2577 C2581 1.385 . S
C2578 H2559 0.951 . S
C2578 C2576 1.388 . S
C2578 C2579 1.366 . S
C2579 C2578 1.366 . S
C2579 C2580 1.414 . S
C2579 C2582 1.499 . S
C2580 H2560 0.950 . S
C2580 C2579 1.414 . S
C2580 C2581 1.374 . S
C2581 H2561 0.950 . S
C2581 C2577 1.385 . S
C2581 C2580 1.374 . S
C2582 C2579 1.499 . S
C2582 C2583 1.373 . S
C2582 C2584 1.389 . S
C2583 H2562 0.950 . S
C2583 C2582 1.373 . S
C2583 C2599 1.377 . S
C2584 C2582 1.389 . S
C2584 C2585 1.524 . S
C2584 C2598 1.377 . S
C2585 C2584 1.524 . S
C2585 C2586 1.397 . S
C2585 C2590 1.363 . S
C2586 H2563 0.950 . S
C2586 C2585 1.397 . S
C2586 C2587 1.334 . S
C2587 H2564 0.950 . S
C2587 C2586 1.334 . S
C2587 C2588 1.287 . S
C2588 C2587 1.287 . S
C2588 C2589 1.524 . S
C2588 H2607 0.913 . S
C2589 H2565 0.950 . S
C2589 C2588 1.524 . S
C2589 C2590 1.415 . S
C2590 H2566 0.950 . S
C2590 C2585 1.363 . S
C2590 C2589 1.415 . S
C2591 H2567 0.951 . S
C2591 C2592 1.366 . S
C2591 C2593 1.388 . S
C2592 C2591 1.366 . S
C2592 C2596 1.385 . S
C2593 H2568 0.951 . S
C2593 C2591 1.388 . S
C2593 C2594 1.366 . S
C2594 C2593 1.366 . S
C2594 C2595 1.414 . S
C2594 C2597 1.499 . S
C2595 H2569 0.950 . S
C2595 C2594 1.414 . S
C2595 C2596 1.374 . S
C2596 H2570 0.950 . S
C2596 C2592 1.385 . S
C2596 C2595 1.374 . S
C2597 C2594 1.499 . S
C2597 C2598 1.373 . S
C2597 C2599 1.389 . S
C2598 H2571 0.950 . S
C2598 C2584 1.377 . S
C2598 C2597 1.373 . S
C2599 C2583 1.377 . S
C2599 C2597 1.389 . S
C2599 C2600 1.524 . S
C2600 C2599 1.524 . S
C2600 C2601 1.397 . S
C2600 C2605 1.363 . S
C2601 H2572 0.950 . S
C2601 C2600 1.397 . S
C2601 C2602 1.334 . S
C2602 H2573 0.950 . S
C2602 C2601 1.334 . S
C2602 C2603 1.287 . S
C2603 C2602 1.287 . S
C2603 C2604 1.524 . S
C2603 H2606 0.999 . S
C2604 H2574 0.950 . S
C2604 C2603 1.524 . S
C2604 C2605 1.415 . S
C2605 H2575 0.950 . S
C2605 C2600 1.363 . S
C2605 C2604 1.415 . S
H2606 C2603 0.999 . S
H2607 C2588 0.913 . S
H2608 C2626 0.951 . S
H2609 C2628 0.951 1_455 S
H2610 C2630 0.950 . S
H2611 C2631 0.950 . S
H2612 C2633 0.950 . S
H2613 C2636 0.950 1_655 S
H2614 C2637 0.950 . S
H2615 C2639 0.950 . S
H2616 C2640 0.950 . S
H2617 C2641 0.951 . S
H2618 C2643 0.951 1_655 S
H2619 C2645 0.950 . S
H2620 C2646 0.950 . S
H2621 C2648 0.950 . S
H2622 C2651 0.950 . S
H2623 C2652 0.905 1_565 S
H2624 C2654 0.950 . S
H2625 C2655 0.950 . S
C2626 H2608 0.951 . S
C2626 C2627 1.366 . S
C2626 C2628 1.388 . S
C2627 C2626 1.366 . S
C2627 C2631 1.385 . S
C2628 H2609 0.951 1_655 S
C2628 C2626 1.388 . S
C2628 C2629 1.366 . S
C2629 C2628 1.366 . S
C2629 C2630 1.414 . S
C2629 C2632 1.499 . S
C2630 H2610 0.950 . S
C2630 C2629 1.414 . S
C2630 C2631 1.374 . S
C2631 H2611 0.950 . S
C2631 C2627 1.385 . S
C2631 C2630 1.374 . S
C2632 C2629 1.499 . S
C2632 C2633 1.373 . S
C2632 C2634 1.389 1_655 S
C2633 H2612 0.950 . S
C2633 C2632 1.373 . S
C2633 C2649 1.377 . S
C2634 C2632 1.389 1_455 S
C2634 C2635 1.524 . S
C2634 C2648 1.377 . S
C2635 C2634 1.524 . S
C2635 C2636 1.397 . S
C2635 C2640 1.363 . S
C2636 H2613 0.950 1_455 S
C2636 C2635 1.397 . S
C2636 C2637 1.334 . S
C2637 H2614 0.950 . S
C2637 C2636 1.334 . S
C2637 C2638 1.287 . S
C2638 C2637 1.287 . S
C2638 C2639 1.524 . S
C2638 H2657 0.913 . S
C2639 H2615 0.950 . S
C2639 C2638 1.524 . S
C2639 C2640 1.415 . S
C2640 H2616 0.950 . S
C2640 C2635 1.363 . S
C2640 C2639 1.415 . S
C2641 H2617 0.951 . S
C2641 C2642 1.366 . S
C2641 C2643 1.388 . S
C2642 C2641 1.366 . S
C2642 C2646 1.385 . S
C2643 H2618 0.951 1_455 S
C2643 C2641 1.388 . S
C2643 C2644 1.366 . S
C2644 C2643 1.366 . S
C2644 C2645 1.414 . S
C2644 C2647 1.499 . S
C2645 H2619 0.950 . S
C2645 C2644 1.414 . S
C2645 C2646 1.374 . S
C2646 H2620 0.950 . S
C2646 C2642 1.385 . S
C2646 C2645 1.374 . S
C2647 C2644 1.499 . S
C2647 C2648 1.373 . S
C2647 C2649 1.389 1_455 S
C2648 H2621 0.950 . S
C2648 C2634 1.377 . S
C2648 C2647 1.373 . S
C2649 C2633 1.377 . S
C2649 C2647 1.389 1_655 S
C2649 C2650 1.524 . S
C2650 C2649 1.524 . S
C2650 C2651 1.397 . S
C2650 C2655 1.363 . S
C2651 H2622 0.950 . S
C2651 C2650 1.397 . S
C2651 C2652 1.368 . S
C2652 H2623 0.905 1_545 S
C2652 C2651 1.368 . S
C2652 C2653 1.294 . S
C2653 C2652 1.294 . S
C2653 C2654 1.548 . S
C2653 H2656 0.984 1_545 S
C2654 H2624 0.950 . S
C2654 C2653 1.548 . S
C2654 C2655 1.415 . S
C2655 H2625 0.950 . S
C2655 C2650 1.363 . S
C2655 C2654 1.415 . S
H2656 C2653 0.984 1_565 S
H2657 C2638 0.913 . S
H2658 C2676 0.951 . S
H2659 C2678 0.951 . S
H2660 C2680 0.950 . S
H2661 C2681 0.950 . S
H2662 C2683 0.950 . S
H2663 C2686 0.950 . S
H2664 C2687 0.950 . S
H2665 C2689 0.950 . S
H2666 C2690 0.950 . S
H2667 C2691 0.951 . S
H2668 C2693 0.951 . S
H2669 C2695 0.950 . S
H2670 C2696 0.950 . S
H2671 C2698 0.950 . S
H2672 C2701 0.950 . S
H2673 C2702 0.950 . S
H2674 C2704 0.950 . S
H2675 C2705 0.950 . S
C2676 H2658 0.951 . S
C2676 C2677 1.366 . S
C2676 C2678 1.388 . S
C2677 C2676 1.366 . S
C2677 C2681 1.385 . S
C2678 H2659 0.951 . S
C2678 C2676 1.388 . S
C2678 C2679 1.366 . S
C2679 C2678 1.366 . S
C2679 C2680 1.414 . S
C2679 C2682 1.499 . S
C2680 H2660 0.950 . S
C2680 C2679 1.414 . S
C2680 C2681 1.374 . S
C2681 H2661 0.950 . S
C2681 C2677 1.385 . S
C2681 C2680 1.374 . S
C2682 C2679 1.499 . S
C2682 C2683 1.373 . S
C2682 C2684 1.389 . S
C2683 H2662 0.950 . S
C2683 C2682 1.373 . S
C2683 C2699 1.377 . S
C2684 C2682 1.389 . S
C2684 C2685 1.524 . S
C2684 C2698 1.377 . S
C2685 C2684 1.524 . S
C2685 C2686 1.397 . S
C2685 C2690 1.363 . S
C2686 H2663 0.950 . S
C2686 C2685 1.397 . S
C2686 C2687 1.334 . S
C2687 H2664 0.950 . S
C2687 C2686 1.334 . S
C2687 C2688 1.287 . S
C2688 C2687 1.287 . S
C2688 C2689 1.524 . S
C2688 H2707 0.913 . S
C2689 H2665 0.950 . S
C2689 C2688 1.524 . S
C2689 C2690 1.415 . S
C2690 H2666 0.950 . S
C2690 C2685 1.363 . S
C2690 C2689 1.415 . S
C2691 H2667 0.951 . S
C2691 C2692 1.366 . S
C2691 C2693 1.388 . S
C2692 C2691 1.366 . S
C2692 C2696 1.385 . S
C2693 H2668 0.951 . S
C2693 C2691 1.388 . S
C2693 C2694 1.366 . S
C2694 C2693 1.366 . S
C2694 C2695 1.414 . S
C2694 C2697 1.499 . S
C2695 H2669 0.950 . S
C2695 C2694 1.414 . S
C2695 C2696 1.374 . S
C2696 H2670 0.950 . S
C2696 C2692 1.385 . S
C2696 C2695 1.374 . S
C2697 C2694 1.499 . S
C2697 C2698 1.373 . S
C2697 C2699 1.389 . S
C2698 H2671 0.950 . S
C2698 C2684 1.377 . S
C2698 C2697 1.373 . S
C2699 C2683 1.377 . S
C2699 C2697 1.389 . S
C2699 C2700 1.524 . S
C2700 C2699 1.524 . S
C2700 C2701 1.397 . S
C2700 C2705 1.363 . S
C2701 H2672 0.950 . S
C2701 C2700 1.397 . S
C2701 C2702 1.334 . S
C2702 H2673 0.950 . S
C2702 C2701 1.334 . S
C2702 C2703 1.287 . S
C2703 C2702 1.287 . S
C2703 C2704 1.524 . S
C2703 H2706 0.999 . S
C2704 H2674 0.950 . S
C2704 C2703 1.524 . S
C2704 C2705 1.415 . S
C2705 H2675 0.950 . S
C2705 C2700 1.363 . S
C2705 C2704 1.415 . S
H2706 C2703 0.999 . S
H2707 C2688 0.913 . S
H2708 C2726 0.951 . S
H2709 C2728 0.951 . S
H2710 C2730 0.950 . S
H2711 C2731 0.950 . S
H2712 C2733 0.950 . S
H2713 C2736 0.950 . S
H2714 C2737 0.950 . S
H2715 C2739 0.950 . S
H2716 C2740 0.950 1_545 S
H2717 C2741 0.951 . S
H2718 C2743 0.951 . S
H2719 C2745 0.950 . S
H2720 C2746 0.950 . S
H2721 C2748 0.950 . S
H2722 C2751 0.950 . S
H2723 C2752 0.950 . S
H2724 C2754 0.950 . S
H2725 C2755 0.950 . S
C2726 H2708 0.951 . S
C2726 C2727 1.366 . S
C2726 C2728 1.388 . S
C2727 C2726 1.366 . S
C2727 C2731 1.385 . S
C2728 H2709 0.951 . S
C2728 C2726 1.388 . S
C2728 C2729 1.366 . S
C2729 C2728 1.366 . S
C2729 C2730 1.414 . S
C2729 C2732 1.499 . S
C2730 H2710 0.950 . S
C2730 C2729 1.414 . S
C2730 C2731 1.374 . S
C2731 H2711 0.950 . S
C2731 C2727 1.385 . S
C2731 C2730 1.374 . S
C2732 C2729 1.499 . S
C2732 C2733 1.373 . S
C2732 C2734 1.389 . S
C2733 H2712 0.950 . S
C2733 C2732 1.373 . S
C2733 C2749 1.377 . S
C2734 C2732 1.389 . S
C2734 C2735 1.524 . S
C2734 C2748 1.377 . S
C2735 C2734 1.524 . S
C2735 C2736 1.397 1_545 S
C2735 C2740 1.363 1_545 S
C2736 H2713 0.950 . S
C2736 C2735 1.397 1_565 S
C2736 C2737 1.334 . S
C2737 H2714 0.950 . S
C2737 C2736 1.334 . S
C2737 C2738 1.287 . S
C2738 C2737 1.287 . S
C2738 C2739 1.524 . S
C2738 H2757 0.913 . S
C2739 H2715 0.950 . S
C2739 C2738 1.524 . S
C2739 C2740 1.415 . S
C2740 H2716 0.950 1_565 S
C2740 C2735 1.363 1_565 S
C2740 C2739 1.415 . S
C2741 H2717 0.951 . S
C2741 C2742 1.366 . S
C2741 C2743 1.388 . S
C2742 C2741 1.366 . S
C2742 C2746 1.385 . S
C2743 H2718 0.951 . S
C2743 C2741 1.388 . S
C2743 C2744 1.366 . S
C2744 C2743 1.366 . S
C2744 C2745 1.414 . S
C2744 C2747 1.499 . S
C2745 H2719 0.950 . S
C2745 C2744 1.414 . S
C2745 C2746 1.374 . S
C2746 H2720 0.950 . S
C2746 C2742 1.385 . S
C2746 C2745 1.374 . S
C2747 C2744 1.499 . S
C2747 C2748 1.373 . S
C2747 C2749 1.389 . S
C2748 H2721 0.950 . S
C2748 C2734 1.377 . S
C2748 C2747 1.373 . S
C2749 C2733 1.377 . S
C2749 C2747 1.389 . S
C2749 C2750 1.524 . S
C2750 C2749 1.524 . S
C2750 C2751 1.397 . S
C2750 C2755 1.363 . S
C2751 H2722 0.950 . S
C2751 C2750 1.397 . S
C2751 C2752 1.334 . S
C2752 H2723 0.950 . S
C2752 C2751 1.334 . S
C2752 C2753 1.287 . S
C2753 C2752 1.287 . S
C2753 C2754 1.524 . S
C2753 H2756 0.999 . S
C2754 H2724 0.950 . S
C2754 C2753 1.524 . S
C2754 C2755 1.415 . S
C2755 H2725 0.950 . S
C2755 C2750 1.363 . S
C2755 C2754 1.415 . S
H2756 C2753 0.999 . S
H2757 C2738 0.913 . S
H2758 C2776 0.951 . S
H2759 C2778 0.951 . S
H2760 C2780 0.950 . S
H2761 C2781 0.950 . S
H2762 C2783 0.950 . S
H2763 C2786 0.950 . S
H2764 C2787 0.950 . S
H2765 C2789 0.950 . S
H2766 C2790 0.950 . S
H2767 C2791 0.951 . S
H2768 C2793 0.951 . S
H2769 C2795 0.950 . S
H2770 C2796 0.950 . S
H2771 C2798 0.950 . S
H2772 C2801 0.950 . S
H2773 C2802 0.950 . S
H2774 C2804 0.950 . S
H2775 C2805 0.950 . S
C2776 H2758 0.951 . S
C2776 C2777 1.366 . S
C2776 C2778 1.388 . S
C2777 C2776 1.366 . S
C2777 C2781 1.385 . S
C2778 H2759 0.951 . S
C2778 C2776 1.388 . S
C2778 C2779 1.366 . S
C2779 C2778 1.366 . S
C2779 C2780 1.414 . S
C2779 C2782 1.499 . S
C2780 H2760 0.950 . S
C2780 C2779 1.414 . S
C2780 C2781 1.374 . S
C2781 H2761 0.950 . S
C2781 C2777 1.385 . S
C2781 C2780 1.374 . S
C2782 C2779 1.499 . S
C2782 C2783 1.373 . S
C2782 C2784 1.389 . S
C2783 H2762 0.950 . S
C2783 C2782 1.373 . S
C2783 C2799 1.377 . S
C2784 C2782 1.389 . S
C2784 C2785 1.524 . S
C2784 C2798 1.377 . S
C2785 C2784 1.524 . S
C2785 C2786 1.397 . S
C2785 C2790 1.363 . S
C2786 H2763 0.950 . S
C2786 C2785 1.397 . S
C2786 C2787 1.334 . S
C2787 H2764 0.950 . S
C2787 C2786 1.334 . S
C2787 C2788 1.287 . S
C2788 C2787 1.287 . S
C2788 C2789 1.524 . S
C2788 H2807 0.913 . S
C2789 H2765 0.950 . S
C2789 C2788 1.524 . S
C2789 C2790 1.415 . S
C2790 H2766 0.950 . S
C2790 C2785 1.363 . S
C2790 C2789 1.415 . S
C2791 H2767 0.951 . S
C2791 C2792 1.366 . S
C2791 C2793 1.388 . S
C2792 C2791 1.366 . S
C2792 C2796 1.385 . S
C2793 H2768 0.951 . S
C2793 C2791 1.388 . S
C2793 C2794 1.366 . S
C2794 C2793 1.366 . S
C2794 C2795 1.414 . S
C2794 C2797 1.499 . S
C2795 H2769 0.950 . S
C2795 C2794 1.414 . S
C2795 C2796 1.374 . S
C2796 H2770 0.950 . S
C2796 C2792 1.385 . S
C2796 C2795 1.374 . S
C2797 C2794 1.499 . S
C2797 C2798 1.373 . S
C2797 C2799 1.389 . S
C2798 H2771 0.950 . S
C2798 C2784 1.377 . S
C2798 C2797 1.373 . S
C2799 C2783 1.377 . S
C2799 C2797 1.389 . S
C2799 C2800 1.524 . S
C2800 C2799 1.524 . S
C2800 C2801 1.397 . S
C2800 C2805 1.363 . S
C2801 H2772 0.950 . S
C2801 C2800 1.397 . S
C2801 C2802 1.334 . S
C2802 H2773 0.950 . S
C2802 C2801 1.334 . S
C2802 C2803 1.287 . S
C2803 C2802 1.287 . S
C2803 C2804 1.524 . S
C2803 H2806 0.999 . S
C2804 H2774 0.950 . S
C2804 C2803 1.524 . S
C2804 C2805 1.415 . S
C2805 H2775 0.950 . S
C2805 C2800 1.363 . S
C2805 C2804 1.415 . S
H2806 C2803 0.999 . S
H2807 C2788 0.913 . S
H2808 C2826 0.951 . S
H2809 C2828 0.951 . S
H2810 C2830 0.950 1_455 S
H2811 C2831 0.950 . S
H2812 C2833 0.950 . S
H2813 C2836 0.950 . S
H2814 C2837 0.950 . S
H2815 C2839 0.950 . S
H2816 C2840 0.950 . S
H2817 C2841 0.951 . S
H2818 C2843 0.951 . S
H2819 C2845 0.950 1_655 S
H2820 C2846 0.950 . S
H2821 C2848 0.950 . S
H2822 C2851 0.950 . S
H2823 C2852 0.950 . S
H2824 C2854 0.950 . S
H2825 C2855 0.950 . S
C2826 H2808 0.951 . S
C2826 C2827 1.366 . S
C2826 C2828 1.388 . S
C2827 C2826 1.366 . S
C2827 C2831 1.385 . S
C2828 H2809 0.951 . S
C2828 C2826 1.388 . S
C2828 C2829 1.366 . S
C2829 C2828 1.366 . S
C2829 C2830 1.414 . S
C2829 C2832 1.499 . S
C2830 H2810 0.950 1_655 S
C2830 C2829 1.414 . S
C2830 C2831 1.374 . S
C2831 H2811 0.950 . S
C2831 C2827 1.385 . S
C2831 C2830 1.374 . S
C2832 C2829 1.499 . S
C2832 C2833 1.373 1_655 S
C2832 C2834 1.389 . S
C2833 H2812 0.950 . S
C2833 C2832 1.373 1_455 S
C2833 C2849 1.377 . S
C2834 C2832 1.389 . S
C2834 C2835 1.524 . S
C2834 C2848 1.377 . S
C2835 C2834 1.524 . S
C2835 C2836 1.397 . S
C2835 C2840 1.363 . S
C2836 H2813 0.950 . S
C2836 C2835 1.397 . S
C2836 C2837 1.334 . S
C2837 H2814 0.950 . S
C2837 C2836 1.334 . S
C2837 C2838 1.287 . S
C2838 C2837 1.287 . S
C2838 C2839 1.524 . S
C2838 H2857 0.913 . S
C2839 H2815 0.950 . S
C2839 C2838 1.524 . S
C2839 C2840 1.415 . S
C2840 H2816 0.950 . S
C2840 C2835 1.363 . S
C2840 C2839 1.415 . S
C2841 H2817 0.951 . S
C2841 C2842 1.366 . S
C2841 C2843 1.388 . S
C2842 C2841 1.366 . S
C2842 C2846 1.385 . S
C2843 H2818 0.951 . S
C2843 C2841 1.388 . S
C2843 C2844 1.366 . S
C2844 C2843 1.366 . S
C2844 C2845 1.414 . S
C2844 C2847 1.499 . S
C2845 H2819 0.950 1_455 S
C2845 C2844 1.414 . S
C2845 C2846 1.374 . S
C2846 H2820 0.950 . S
C2846 C2842 1.385 . S
C2846 C2845 1.374 . S
C2847 C2844 1.499 . S
C2847 C2848 1.373 1_455 S
C2847 C2849 1.389 . S
C2848 H2821 0.950 . S
C2848 C2834 1.377 . S
C2848 C2847 1.373 1_655 S
C2849 C2833 1.377 . S
C2849 C2847 1.389 . S
C2849 C2850 1.524 . S
C2850 C2849 1.524 . S
C2850 C2851 1.397 . S
C2850 C2855 1.363 . S
C2851 H2822 0.950 . S
C2851 C2850 1.397 . S
C2851 C2852 1.334 1_545 S
C2852 H2823 0.950 . S
C2852 C2851 1.334 1_565 S
C2852 C2853 1.287 . S
C2853 C2852 1.287 . S
C2853 C2854 1.524 1_565 S
C2853 H2856 0.999 . S
C2854 H2824 0.950 . S
C2854 C2853 1.524 1_545 S
C2854 C2855 1.415 . S
C2855 H2825 0.950 . S
C2855 C2850 1.363 . S
C2855 C2854 1.415 . S
H2856 C2853 0.999 . S
H2857 C2838 0.913 . S
H2858 C2876 0.951 . S
H2859 C2878 0.951 . S
H2860 C2880 0.950 . S
H2861 C2881 0.950 . S
H2862 C2883 0.950 . S
H2863 C2886 0.950 . S
H2864 C2887 0.950 . S
H2865 C2889 0.950 . S
H2866 C2890 0.950 . S
H2867 C2891 0.951 . S
H2868 C2893 0.951 . S
H2869 C2895 0.950 . S
H2870 C2896 0.950 . S
H2871 C2898 0.950 . S
H2872 C2901 0.950 . S
H2873 C2902 0.950 . S
H2874 C2904 0.950 . S
H2875 C2905 0.950 . S
C2876 H2858 0.951 . S
C2876 C2877 1.366 . S
C2876 C2878 1.388 . S
C2877 C2876 1.366 . S
C2877 C2881 1.385 . S
C2878 H2859 0.951 . S
C2878 C2876 1.388 . S
C2878 C2879 1.366 . S
C2879 C2878 1.366 . S
C2879 C2880 1.414 . S
C2879 C2882 1.499 . S
C2880 H2860 0.950 . S
C2880 C2879 1.414 . S
C2880 C2881 1.374 . S
C2881 H2861 0.950 . S
C2881 C2877 1.385 . S
C2881 C2880 1.374 . S
C2882 C2879 1.499 . S
C2882 C2883 1.373 . S
C2882 C2884 1.389 . S
C2883 H2862 0.950 . S
C2883 C2882 1.373 . S
C2883 C2899 1.377 . S
C2884 C2882 1.389 . S
C2884 C2885 1.524 . S
C2884 C2898 1.377 . S
C2885 C2884 1.524 . S
C2885 C2886 1.397 . S
C2885 C2890 1.363 . S
C2886 H2863 0.950 . S
C2886 C2885 1.397 . S
C2886 C2887 1.334 . S
C2887 H2864 0.950 . S
C2887 C2886 1.334 . S
C2887 C2888 1.287 . S
C2888 C2887 1.287 . S
C2888 C2889 1.524 . S
C2888 H2907 0.913 . S
C2889 H2865 0.950 . S
C2889 C2888 1.524 . S
C2889 C2890 1.415 . S
C2890 H2866 0.950 . S
C2890 C2885 1.363 . S
C2890 C2889 1.415 . S
C2891 H2867 0.951 . S
C2891 C2892 1.366 . S
C2891 C2893 1.388 . S
C2892 C2891 1.366 . S
C2892 C2896 1.385 . S
C2893 H2868 0.951 . S
C2893 C2891 1.388 . S
C2893 C2894 1.366 . S
C2894 C2893 1.366 . S
C2894 C2895 1.414 . S
C2894 C2897 1.499 . S
C2895 H2869 0.950 . S
C2895 C2894 1.414 . S
C2895 C2896 1.374 . S
C2896 H2870 0.950 . S
C2896 C2892 1.385 . S
C2896 C2895 1.374 . S
C2897 C2894 1.499 . S
C2897 C2898 1.373 . S
C2897 C2899 1.389 . S
C2898 H2871 0.950 . S
C2898 C2884 1.377 . S
C2898 C2897 1.373 . S
C2899 C2883 1.377 . S
C2899 C2897 1.389 . S
C2899 C2900 1.524 . S
C2900 C2899 1.524 . S
C2900 C2901 1.397 . S
C2900 C2905 1.363 . S
C2901 H2872 0.950 . S
C2901 C2900 1.397 . S
C2901 C2902 1.334 . S
C2902 H2873 0.950 . S
C2902 C2901 1.334 . S
C2902 C2903 1.287 . S
C2903 C2902 1.287 . S
C2903 C2904 1.524 . S
C2903 H2906 0.999 . S
C2904 H2874 0.950 . S
C2904 C2903 1.524 . S
C2904 C2905 1.415 . S
C2905 H2875 0.950 . S
C2905 C2900 1.363 . S
C2905 C2904 1.415 . S
H2906 C2903 0.999 . S
H2907 C2888 0.913 . S
H2908 C2926 0.951 . S
H2909 C2928 0.951 . S
H2910 C2930 0.950 . S
H2911 C2931 0.950 . S
H2912 C2933 0.950 . S
H2913 C2936 0.950 . S
H2914 C2937 0.950 . S
H2915 C2939 0.950 . S
H2916 C2940 0.950 . S
H2917 C2941 0.951 . S
H2918 C2943 0.951 . S
H2919 C2945 0.950 . S
H2920 C2946 0.950 . S
H2921 C2948 0.950 . S
H2922 C2951 0.950 . S
H2923 C2952 0.933 1_565 S
H2924 C2954 0.950 . S
H2925 C2955 0.950 . S
C2926 H2908 0.951 . S
C2926 C2927 1.366 . S
C2926 C2928 1.388 . S
C2927 C2926 1.366 . S
C2927 C2931 1.385 . S
C2928 H2909 0.951 . S
C2928 C2926 1.388 . S
C2928 C2929 1.366 . S
C2929 C2928 1.366 . S
C2929 C2930 1.414 . S
C2929 C2932 1.499 . S
C2930 H2910 0.950 . S
C2930 C2929 1.414 . S
C2930 C2931 1.374 . S
C2931 H2911 0.950 . S
C2931 C2927 1.385 . S
C2931 C2930 1.374 . S
C2932 C2929 1.499 . S
C2932 C2933 1.373 . S
C2932 C2934 1.389 . S
C2933 H2912 0.950 . S
C2933 C2932 1.373 . S
C2933 C2949 1.377 . S
C2934 C2932 1.389 . S
C2934 C2935 1.524 . S
C2934 C2948 1.377 . S
C2935 C2934 1.524 . S
C2935 C2936 1.397 . S
C2935 C2940 1.363 . S
C2936 H2913 0.950 . S
C2936 C2935 1.397 . S
C2936 C2937 1.334 . S
C2937 H2914 0.950 . S
C2937 C2936 1.334 . S
C2937 C2938 1.287 . S
C2938 C2937 1.287 . S
C2938 C2939 1.524 . S
C2938 H2957 0.913 . S
C2939 H2915 0.950 . S
C2939 C2938 1.524 . S
C2939 C2940 1.415 . S
C2940 H2916 0.950 . S
C2940 C2935 1.363 . S
C2940 C2939 1.415 . S
C2941 H2917 0.951 . S
C2941 C2942 1.366 . S
C2941 C2943 1.388 . S
C2942 C2941 1.366 . S
C2942 C2946 1.385 . S
C2943 H2918 0.951 . S
C2943 C2941 1.388 . S
C2943 C2944 1.366 . S
C2944 C2943 1.366 . S
C2944 C2945 1.414 . S
C2944 C2947 1.499 . S
C2945 H2919 0.950 . S
C2945 C2944 1.414 . S
C2945 C2946 1.374 . S
C2946 H2920 0.950 . S
C2946 C2942 1.385 . S
C2946 C2945 1.374 . S
C2947 C2944 1.499 . S
C2947 C2948 1.373 . S
C2947 C2949 1.389 . S
C2948 H2921 0.950 . S
C2948 C2934 1.377 . S
C2948 C2947 1.373 . S
C2949 C2933 1.377 . S
C2949 C2947 1.389 . S
C2949 C2950 1.524 . S
C2950 C2949 1.524 . S
C2950 C2951 1.397 . S
C2950 C2955 1.363 . S
C2951 H2922 0.950 . S
C2951 C2950 1.397 . S
C2951 C2952 1.360 . S
C2952 H2923 0.933 1_545 S
C2952 C2951 1.360 . S
C2952 C2953 1.280 . S
C2953 C2952 1.280 . S
C2953 C2954 1.524 . S
C2953 H2956 0.999 1_545 S
C2954 H2924 0.950 . S
C2954 C2953 1.524 . S
C2954 C2955 1.415 . S
C2955 H2925 0.950 . S
C2955 C2950 1.363 . S
C2955 C2954 1.415 . S
H2956 C2953 0.999 1_565 S
H2957 C2938 0.913 . S
H2958 C2976 0.951 . S
H2959 C2978 0.951 . S
H2960 C2980 0.950 . S
H2961 C2981 0.950 . S
H2962 C2983 0.950 . S
H2963 C2986 0.950 . S
H2964 C2987 0.950 . S
H2965 C2989 0.950 . S
H2966 C2990 0.950 . S
H2967 C2991 0.951 . S
H2968 C2993 0.951 . S
H2969 C2995 0.950 . S
H2970 C2996 0.950 . S
H2971 C2998 0.950 . S
H2972 C3001 0.950 . S
H2973 C3002 0.950 . S
H2974 C3004 0.950 . S
H2975 C3005 0.950 . S
C2976 H2958 0.951 . S
C2976 C2977 1.366 . S
C2976 C2978 1.388 . S
C2977 C2976 1.366 . S
C2977 C2981 1.385 . S
C2978 H2959 0.951 . S
C2978 C2976 1.388 . S
C2978 C2979 1.366 . S
C2979 C2978 1.366 . S
C2979 C2980 1.414 . S
C2979 C2982 1.499 . S
C2980 H2960 0.950 . S
C2980 C2979 1.414 . S
C2980 C2981 1.374 . S
C2981 H2961 0.950 . S
C2981 C2977 1.385 . S
C2981 C2980 1.374 . S
C2982 C2979 1.499 . S
C2982 C2983 1.373 . S
C2982 C2984 1.389 . S
C2983 H2962 0.950 . S
C2983 C2982 1.373 . S
C2983 C2999 1.377 . S
C2984 C2982 1.389 . S
C2984 C2985 1.524 . S
C2984 C2998 1.377 . S
C2985 C2984 1.524 . S
C2985 C2986 1.397 . S
C2985 C2990 1.363 . S
C2986 H2963 0.950 . S
C2986 C2985 1.397 . S
C2986 C2987 1.334 . S
C2987 H2964 0.950 . S
C2987 C2986 1.334 . S
C2987 C2988 1.287 . S
C2988 C2987 1.287 . S
C2988 C2989 1.524 . S
C2988 H3007 0.913 . S
C2989 H2965 0.950 . S
C2989 C2988 1.524 . S
C2989 C2990 1.415 . S
C2990 H2966 0.950 . S
C2990 C2985 1.363 . S
C2990 C2989 1.415 . S
C2991 H2967 0.951 . S
C2991 C2992 1.366 . S
C2991 C2993 1.388 . S
C2992 C2991 1.366 . S
C2992 C2996 1.385 . S
C2993 H2968 0.951 . S
C2993 C2991 1.388 . S
C2993 C2994 1.366 . S
C2994 C2993 1.366 . S
C2994 C2995 1.414 . S
C2994 C2997 1.499 . S
C2995 H2969 0.950 . S
C2995 C2994 1.414 . S
C2995 C2996 1.374 . S
C2996 H2970 0.950 . S
C2996 C2992 1.385 . S
C2996 C2995 1.374 . S
C2997 C2994 1.499 . S
C2997 C2998 1.373 . S
C2997 C2999 1.389 . S
C2998 H2971 0.950 . S
C2998 C2984 1.377 . S
C2998 C2997 1.373 . S
C2999 C2983 1.377 . S
C2999 C2997 1.389 . S
C2999 C3000 1.524 . S
C3000 C2999 1.524 . S
C3000 C3001 1.397 . S
C3000 C3005 1.363 . S
C3001 H2972 0.950 . S
C3001 C3000 1.397 . S
C3001 C3002 1.334 . S
C3002 H2973 0.950 . S
C3002 C3001 1.334 . S
C3002 C3003 1.287 . S
C3003 C3002 1.287 . S
C3003 C3004 1.524 . S
C3003 H3006 0.999 . S
C3004 H2974 0.950 . S
C3004 C3003 1.524 . S
C3004 C3005 1.415 . S
C3005 H2975 0.950 . S
C3005 C3000 1.363 . S
C3005 C3004 1.415 . S
H3006 C3003 0.999 . S
H3007 C2988 0.913 . S
H3008 C3026 1.002 . S
H3009 C3028 0.933 1_556 S
H3010 C3030 0.950 . S
H3011 C3031 0.950 . S
H3012 C3033 0.950 . S
H3013 C3036 0.950 . S
H3014 C3037 0.950 . S
H3015 C3039 0.950 . S
H3016 C3040 0.950 . S
H3017 C3041 0.951 . S
H3018 C3043 0.951 . S
H3019 C3045 0.950 1_556 S
H3020 C3046 0.950 1_556 S
H3021 C3048 0.950 1_545 S
H3022 C3051 0.950 . S
H3023 C3052 0.950 . S
H3024 C3054 0.950 . S
H3025 C3055 0.950 . S
C3026 H3008 1.002 . S
C3026 C3027 1.319 1_556 S
C3026 C3028 1.387 1_556 S
C3027 C3026 1.319 1_554 S
C3027 C3031 1.385 . S
C3028 H3009 0.933 1_554 S
C3028 C3026 1.387 1_554 S
C3028 C3029 1.384 . S
C3029 C3028 1.384 . S
C3029 C3030 1.414 . S
C3029 C3032 1.499 . S
C3030 H3010 0.950 . S
C3030 C3029 1.414 . S
C3030 C3031 1.374 . S
C3031 H3011 0.950 . S
C3031 C3027 1.385 . S
C3031 C3030 1.374 . S
C3032 C3029 1.499 . S
C3032 C3033 1.373 . S
C3032 C3034 1.389 . S
C3033 H3012 0.950 . S
C3033 C3032 1.373 . S
C3033 C3049 1.377 . S
C3034 C3032 1.389 . S
C3034 C3035 1.524 1_565 S
C3034 C3048 1.377 . S
C3035 C3034 1.524 1_545 S
C3035 C3036 1.397 . S
C3035 C3040 1.363 1_554 S
C3036 H3013 0.950 . S
C3036 C3035 1.397 . S
C3036 C3037 1.334 . S
C3037 H3014 0.950 . S
C3037 C3036 1.334 . S
C3037 C3038 1.287 . S
C3038 C3037 1.287 . S
C3038 C3039 1.524 1_554 S
C3038 H3057 0.915 . S
C3039 H3015 0.950 . S
C3039 C3038 1.524 1_556 S
C3039 C3040 1.415 . S
C3040 H3016 0.950 . S
C3040 C3035 1.363 1_556 S
C3040 C3039 1.415 . S
C3041 H3017 0.951 . S
C3041 C3042 1.366 1_565 S
C3041 C3043 1.388 . S
C3042 C3041 1.366 1_545 S
C3042 C3046 1.385 . S
C3043 H3018 0.951 . S
C3043 C3041 1.388 . S
C3043 C3044 1.366 . S
C3044 C3043 1.366 . S
C3044 C3045 1.414 . S
C3044 C3047 1.499 . S
C3045 H3019 0.950 1_554 S
C3045 C3044 1.414 . S
C3045 C3046 1.374 1_565 S
C3046 H3020 0.950 1_554 S
C3046 C3042 1.385 . S
C3046 C3045 1.374 1_545 S
C3047 C3044 1.499 . S
C3047 C3048 1.373 . S
C3047 C3049 1.389 . S
C3048 H3021 0.950 1_565 S
C3048 C3034 1.377 . S
C3048 C3047 1.373 . S
C3049 C3033 1.377 . S
C3049 C3047 1.389 . S
C3049 C3050 1.524 . S
C3050 C3049 1.524 . S
C3050 C3051 1.397 . S
C3050 C3055 1.363 . S
C3051 H3022 0.950 . S
C3051 C3050 1.397 . S
C3051 C3052 1.334 . S
C3052 H3023 0.950 . S
C3052 C3051 1.334 . S
C3052 C3053 1.287 . S
C3053 C3052 1.287 . S
C3053 C3054 1.524 . S
C3053 H3056 0.999 . S
C3054 H3024 0.950 . S
C3054 C3053 1.524 . S
C3054 C3055 1.415 . S
C3055 H3025 0.950 . S
C3055 C3050 1.363 . S
C3055 C3054 1.415 . S
H3056 C3053 0.999 . S
H3057 C3038 0.915 . S
H3058 C3076 0.951 . S
H3059 C3078 0.951 . S
H3060 C3080 0.950 . S
H3061 C3081 0.950 . S
H3062 C3083 0.950 . S
H3063 C3086 0.950 . S
H3064 C3087 0.950 . S
H3065 C3089 0.950 . S
H3066 C3090 0.950 1_554 S
H3067 C3091 0.951 . S
H3068 C3093 0.951 . S
H3069 C3095 0.950 . S
H3070 C3096 0.950 . S
H3071 C3098 0.950 . S
H3072 C3101 0.950 . S
H3073 C3102 0.950 . S
H3074 C3104 0.950 . S
H3075 C3105 0.950 1_556 S
C3076 H3058 0.951 . S
C3076 C3077 1.366 1_554 S
C3076 C3078 1.388 . S
C3077 C3076 1.366 1_556 S
C3077 C3081 1.385 . S
C3078 H3059 0.951 . S
C3078 C3076 1.388 . S
C3078 C3079 1.366 1_554 S
C3079 C3078 1.366 1_556 S
C3079 C3080 1.414 . S
C3079 C3082 1.499 . S
C3080 H3060 0.950 . S
C3080 C3079 1.414 . S
C3080 C3081 1.374 . S
C3081 H3061 0.950 . S
C3081 C3077 1.385 . S
C3081 C3080 1.374 . S
C3082 C3079 1.499 . S
C3082 C3083 1.373 1_556 S
C3082 C3084 1.389 . S
C3083 H3062 0.950 . S
C3083 C3082 1.373 1_554 S
C3083 C3099 1.377 . S
C3084 C3082 1.389 . S
C3084 C3085 1.524 . S
C3084 C3098 1.377 . S
C3085 C3084 1.524 . S
C3085 C3086 1.397 . S
C3085 C3090 1.363 . S
C3086 H3063 0.950 . S
C3086 C3085 1.397 . S
C3086 C3087 1.334 . S
C3087 H3064 0.950 . S
C3087 C3086 1.334 . S
C3087 C3088 1.287 . S
C3088 C3087 1.287 . S
C3088 C3089 1.524 . S
C3088 H3107 0.913 . S
C3089 H3065 0.950 . S
C3089 C3088 1.524 . S
C3089 C3090 1.415 . S
C3090 H3066 0.950 1_556 S
C3090 C3085 1.363 . S
C3090 C3089 1.415 . S
C3091 H3067 0.951 . S
C3091 C3092 1.366 1_556 S
C3091 C3093 1.388 . S
C3092 C3091 1.366 1_554 S
C3092 C3096 1.385 . S
C3093 H3068 0.951 . S
C3093 C3091 1.388 . S
C3093 C3094 1.366 1_556 S
C3094 C3093 1.366 1_554 S
C3094 C3095 1.414 . S
C3094 C3097 1.499 . S
C3095 H3069 0.950 . S
C3095 C3094 1.414 . S
C3095 C3096 1.374 . S
C3096 H3070 0.950 . S
C3096 C3092 1.385 . S
C3096 C3095 1.374 . S
C3097 C3094 1.499 . S
C3097 C3098 1.373 1_554 S
C3097 C3099 1.389 . S
C3098 H3071 0.950 . S
C3098 C3084 1.377 . S
C3098 C3097 1.373 1_556 S
C3099 C3083 1.377 . S
C3099 C3097 1.389 . S
C3099 C3100 1.524 . S
C3100 C3099 1.524 . S
C3100 C3101 1.397 . S
C3100 C3105 1.363 . S
C3101 H3072 0.950 . S
C3101 C3100 1.397 . S
C3101 C3102 1.334 . S
C3102 H3073 0.950 . S
C3102 C3101 1.334 . S
C3102 C3103 1.287 . S
C3103 C3102 1.287 . S
C3103 C3104 1.524 . S
C3103 H3106 0.999 . S
C3104 H3074 0.950 . S
C3104 C3103 1.524 . S
C3104 C3105 1.415 . S
C3105 H3075 0.950 1_554 S
C3105 C3100 1.363 . S
C3105 C3104 1.415 . S
H3106 C3103 0.999 . S
H3107 C3088 0.913 . S
H3108 C3126 0.951 . S
H3109 C3128 0.951 . S
H3110 C3130 0.950 . S
H3111 C3131 0.950 . S
H3112 C3133 0.950 . S
H3113 C3136 0.950 . S
H3114 C3137 0.950 . S
H3115 C3139 0.950 . S
H3116 C3140 0.950 . S
H3117 C3141 0.951 . S
H3118 C3143 0.951 . S
H3119 C3145 0.950 . S
H3120 C3146 0.950 . S
H3121 C3148 0.950 . S
H3122 C3151 0.950 . S
H3123 C3152 0.950 . S
H3124 C3154 0.950 . S
H3125 C3155 0.950 . S
C3126 H3108 0.951 . S
C3126 C3127 1.366 . S
C3126 C3128 1.388 . S
C3127 C3126 1.366 . S
C3127 C3131 1.385 . S
C3128 H3109 0.951 . S
C3128 C3126 1.388 . S
C3128 C3129 1.366 . S
C3129 C3128 1.366 . S
C3129 C3130 1.414 . S
C3129 C3132 1.499 . S
C3130 H3110 0.950 . S
C3130 C3129 1.414 . S
C3130 C3131 1.374 . S
C3131 H3111 0.950 . S
C3131 C3127 1.385 . S
C3131 C3130 1.374 . S
C3132 C3129 1.499 . S
C3132 C3133 1.373 . S
C3132 C3134 1.389 . S
C3133 H3112 0.950 . S
C3133 C3132 1.373 . S
C3133 C3149 1.377 . S
C3134 C3132 1.389 . S
C3134 C3135 1.524 . S
C3134 C3148 1.377 . S
C3135 C3134 1.524 . S
C3135 C3136 1.397 . S
C3135 C3140 1.363 . S
C3136 H3113 0.950 . S
C3136 C3135 1.397 . S
C3136 C3137 1.334 . S
C3137 H3114 0.950 . S
C3137 C3136 1.334 . S
C3137 C3138 1.287 . S
C3138 C3137 1.287 . S
C3138 C3139 1.524 . S
C3138 H3157 0.913 . S
C3139 H3115 0.950 . S
C3139 C3138 1.524 . S
C3139 C3140 1.415 . S
C3140 H3116 0.950 . S
C3140 C3135 1.363 . S
C3140 C3139 1.415 . S
C3141 H3117 0.951 . S
C3141 C3142 1.366 . S
C3141 C3143 1.388 . S
C3142 C3141 1.366 . S
C3142 C3146 1.385 . S
C3143 H3118 0.951 . S
C3143 C3141 1.388 . S
C3143 C3144 1.366 . S
C3144 C3143 1.366 . S
C3144 C3145 1.414 . S
C3144 C3147 1.499 . S
C3145 H3119 0.950 . S
C3145 C3144 1.414 . S
C3145 C3146 1.374 . S
C3146 H3120 0.950 . S
C3146 C3142 1.385 . S
C3146 C3145 1.374 . S
C3147 C3144 1.499 . S
C3147 C3148 1.373 . S
C3147 C3149 1.389 . S
C3148 H3121 0.950 . S
C3148 C3134 1.377 . S
C3148 C3147 1.373 . S
C3149 C3133 1.377 . S
C3149 C3147 1.389 . S
C3149 C3150 1.524 . S
C3150 C3149 1.524 . S
C3150 C3151 1.397 . S
C3150 C3155 1.363 . S
C3151 H3122 0.950 . S
C3151 C3150 1.397 . S
C3151 C3152 1.334 . S
C3152 H3123 0.950 . S
C3152 C3151 1.334 . S
C3152 C3153 1.287 . S
C3153 C3152 1.287 . S
C3153 C3154 1.524 . S
C3153 H3156 0.999 . S
C3154 H3124 0.950 . S
C3154 C3153 1.524 . S
C3154 C3155 1.415 . S
C3155 H3125 0.950 . S
C3155 C3150 1.363 . S
C3155 C3154 1.415 . S
H3156 C3153 0.999 . S
H3157 C3138 0.913 . S
H3158 C3176 0.951 . S
H3159 C3178 0.951 . S
H3160 C3180 0.950 . S
H3161 C3181 0.950 . S
H3162 C3183 0.950 . S
H3163 C3186 0.950 . S
H3164 C3187 0.950 . S
H3165 C3189 0.950 . S
H3166 C3190 0.950 . S
H3167 C3191 0.951 . S
H3168 C3193 0.951 . S
H3169 C3195 0.950 . S
H3170 C3196 0.950 . S
H3171 C3198 0.950 . S
H3172 C3201 0.950 . S
H3173 C3202 0.986 . S
H3174 C3204 0.950 . S
H3175 C3205 0.950 . S
C3176 H3158 0.951 . S
C3176 C3177 1.366 . S
C3176 C3178 1.388 . S
C3177 C3176 1.366 . S
C3177 C3181 1.385 . S
C3178 H3159 0.951 . S
C3178 C3176 1.388 . S
C3178 C3179 1.366 . S
C3179 C3178 1.366 . S
C3179 C3180 1.414 . S
C3179 C3182 1.499 . S
C3180 H3160 0.950 . S
C3180 C3179 1.414 . S
C3180 C3181 1.374 . S
C3181 H3161 0.950 . S
C3181 C3177 1.385 . S
C3181 C3180 1.374 . S
C3182 C3179 1.499 . S
C3182 C3183 1.373 . S
C3182 C3184 1.389 . S
C3183 H3162 0.950 . S
C3183 C3182 1.373 . S
C3183 C3199 1.377 . S
C3184 C3182 1.389 . S
C3184 C3185 1.524 . S
C3184 C3198 1.377 . S
C3185 C3184 1.524 . S
C3185 C3186 1.397 . S
C3185 C3190 1.363 . S
C3186 H3163 0.950 . S
C3186 C3185 1.397 . S
C3186 C3187 1.334 . S
C3187 H3164 0.950 . S
C3187 C3186 1.334 . S
C3187 C3188 1.287 . S
C3188 C3187 1.287 . S
C3188 C3189 1.524 . S
C3188 H3207 0.913 . S
C3189 H3165 0.950 . S
C3189 C3188 1.524 . S
C3189 C3190 1.415 . S
C3190 H3166 0.950 . S
C3190 C3185 1.363 . S
C3190 C3189 1.415 . S
C3191 H3167 0.951 . S
C3191 C3192 1.366 . S
C3191 C3193 1.388 1_455 S
C3192 C3191 1.366 . S
C3192 C3196 1.385 . S
C3193 H3168 0.951 . S
C3193 C3191 1.388 1_655 S
C3193 C3194 1.366 . S
C3194 C3193 1.366 . S
C3194 C3195 1.414 . S
C3194 C3197 1.499 . S
C3195 H3169 0.950 . S
C3195 C3194 1.414 . S
C3195 C3196 1.374 1_655 S
C3196 H3170 0.950 . S
C3196 C3192 1.385 . S
C3196 C3195 1.374 1_455 S
C3197 C3194 1.499 . S
C3197 C3198 1.373 . S
C3197 C3199 1.389 . S
C3198 H3171 0.950 . S
C3198 C3184 1.377 . S
C3198 C3197 1.373 . S
C3199 C3183 1.377 . S
C3199 C3197 1.389 . S
C3199 C3200 1.524 . S
C3200 C3199 1.524 . S
C3200 C3201 1.397 . S
C3200 C3205 1.363 . S
C3201 H3172 0.950 . S
C3201 C3200 1.397 . S
C3201 C3202 1.334 . S
C3202 H3173 0.986 . S
C3202 C3201 1.334 . S
C3202 C3203 1.287 . S
C3203 C3202 1.287 . S
C3203 C3204 1.524 . S
C3203 H3206 0.999 . S
C3204 H3174 0.950 . S
C3204 C3203 1.524 . S
C3204 C3205 1.415 . S
C3205 H3175 0.950 . S
C3205 C3200 1.363 . S
C3205 C3204 1.415 . S
H3206 C3203 0.999 . S
H3207 C3188 0.913 . S
H3208 C3226 0.951 . S
H3209 C3228 0.951 . S
H3210 C3230 0.950 . S
H3211 C3231 0.950 . S
H3212 C3233 0.950 . S
H3213 C3236 0.950 . S
H3214 C3237 0.950 . S
H3215 C3239 0.950 . S
H3216 C3240 0.950 . S
H3217 C3241 0.951 . S
H3218 C3243 0.951 . S
H3219 C3245 0.950 . S
H3220 C3246 0.950 . S
H3221 C3248 0.950 . S
H3222 C3251 0.950 . S
H3223 C3252 0.950 . S
H3224 C3254 0.950 . S
H3225 C3255 0.950 . S
C3226 H3208 0.951 . S
C3226 C3227 1.366 . S
C3226 C3228 1.388 . S
C3227 C3226 1.366 . S
C3227 C3231 1.385 . S
C3228 H3209 0.951 . S
C3228 C3226 1.388 . S
C3228 C3229 1.366 . S
C3229 C3228 1.366 . S
C3229 C3230 1.414 . S
C3229 C3232 1.499 . S
C3230 H3210 0.950 . S
C3230 C3229 1.414 . S
C3230 C3231 1.374 . S
C3231 H3211 0.950 . S
C3231 C3227 1.385 . S
C3231 C3230 1.374 . S
C3232 C3229 1.499 . S
C3232 C3233 1.373 . S
C3232 C3234 1.389 . S
C3233 H3212 0.950 . S
C3233 C3232 1.373 . S
C3233 C3249 1.377 . S
C3234 C3232 1.389 . S
C3234 C3235 1.524 . S
C3234 C3248 1.377 . S
C3235 C3234 1.524 . S
C3235 C3236 1.397 . S
C3235 C3240 1.363 . S
C3236 H3213 0.950 . S
C3236 C3235 1.397 . S
C3236 C3237 1.334 . S
C3237 H3214 0.950 . S
C3237 C3236 1.334 . S
C3237 C3238 1.287 . S
C3238 C3237 1.287 . S
C3238 C3239 1.524 . S
C3238 H3257 0.913 . S
C3239 H3215 0.950 . S
C3239 C3238 1.524 . S
C3239 C3240 1.415 . S
C3240 H3216 0.950 . S
C3240 C3235 1.363 . S
C3240 C3239 1.415 . S
C3241 H3217 0.951 . S
C3241 C3242 1.366 . S
C3241 C3243 1.388 . S
C3242 C3241 1.366 . S
C3242 C3246 1.385 . S
C3243 H3218 0.951 . S
C3243 C3241 1.388 . S
C3243 C3244 1.366 . S
C3244 C3243 1.366 . S
C3244 C3245 1.414 . S
C3244 C3247 1.499 . S
C3245 H3219 0.950 . S
C3245 C3244 1.414 . S
C3245 C3246 1.374 . S
C3246 H3220 0.950 . S
C3246 C3242 1.385 . S
C3246 C3245 1.374 . S
C3247 C3244 1.499 . S
C3247 C3248 1.373 . S
C3247 C3249 1.389 . S
C3248 H3221 0.950 . S
C3248 C3234 1.377 . S
C3248 C3247 1.373 . S
C3249 C3233 1.377 . S
C3249 C3247 1.389 . S
C3249 C3250 1.524 . S
C3250 C3249 1.524 . S
C3250 C3251 1.397 . S
C3250 C3255 1.363 . S
C3251 H3222 0.950 . S
C3251 C3250 1.397 . S
C3251 C3252 1.334 . S
C3252 H3223 0.950 . S
C3252 C3251 1.334 . S
C3252 C3253 1.287 . S
C3253 C3252 1.287 . S
C3253 C3254 1.524 . S
C3253 H3256 0.999 . S
C3254 H3224 0.950 . S
C3254 C3253 1.524 . S
C3254 C3255 1.415 . S
C3255 H3225 0.950 . S
C3255 C3250 1.363 . S
C3255 C3254 1.415 . S
H3256 C3253 0.999 . S
H3257 C3238 0.913 . S
H3258 C3276 0.951 . S
H3259 C3278 0.951 . S
H3260 C3280 0.950 . S
H3261 C3281 0.950 . S
H3262 C3283 0.950 . S
H3263 C3286 0.950 . S
H3264 C3287 0.950 . S
H3265 C3289 0.950 . S
H3266 C3290 0.950 . S
H3267 C3291 0.951 . S
H3268 C3293 0.951 . S
H3269 C3295 0.950 . S
H3270 C3296 0.950 . S
H3271 C3298 0.950 . S
H3272 C3301 0.950 . S
H3273 C3302 0.950 . S
H3274 C3304 0.950 . S
H3275 C3305 0.950 . S
C3276 H3258 0.951 . S
C3276 C3277 1.366 . S
C3276 C3278 1.388 . S
C3277 C3276 1.366 . S
C3277 C3281 1.385 . S
C3278 H3259 0.951 . S
C3278 C3276 1.388 . S
C3278 C3279 1.366 . S
C3279 C3278 1.366 . S
C3279 C3280 1.414 . S
C3279 C3282 1.499 . S
C3280 H3260 0.950 . S
C3280 C3279 1.414 . S
C3280 C3281 1.374 . S
C3281 H3261 0.950 . S
C3281 C3277 1.385 . S
C3281 C3280 1.374 . S
C3282 C3279 1.499 . S
C3282 C3283 1.373 . S
C3282 C3284 1.389 . S
C3283 H3262 0.950 . S
C3283 C3282 1.373 . S
C3283 C3299 1.377 . S
C3284 C3282 1.389 . S
C3284 C3285 1.524 . S
C3284 C3298 1.377 . S
C3285 C3284 1.524 . S
C3285 C3286 1.397 . S
C3285 C3290 1.363 . S
C3286 H3263 0.950 . S
C3286 C3285 1.397 . S
C3286 C3287 1.334 . S
C3287 H3264 0.950 . S
C3287 C3286 1.334 . S
C3287 C3288 1.287 . S
C3288 C3287 1.287 . S
C3288 C3289 1.524 . S
C3288 H3307 0.913 . S
C3289 H3265 0.950 . S
C3289 C3288 1.524 . S
C3289 C3290 1.415 . S
C3290 H3266 0.950 . S
C3290 C3285 1.363 . S
C3290 C3289 1.415 . S
C3291 H3267 0.951 . S
C3291 C3292 1.366 . S
C3291 C3293 1.388 . S
C3292 C3291 1.366 . S
C3292 C3296 1.385 . S
C3293 H3268 0.951 . S
C3293 C3291 1.388 . S
C3293 C3294 1.366 . S
C3294 C3293 1.366 . S
C3294 C3295 1.414 . S
C3294 C3297 1.499 . S
C3295 H3269 0.950 . S
C3295 C3294 1.414 . S
C3295 C3296 1.374 . S
C3296 H3270 0.950 . S
C3296 C3292 1.385 . S
C3296 C3295 1.374 . S
C3297 C3294 1.499 . S
C3297 C3298 1.373 . S
C3297 C3299 1.389 . S
C3298 H3271 0.950 . S
C3298 C3284 1.377 . S
C3298 C3297 1.373 . S
C3299 C3283 1.377 . S
C3299 C3297 1.389 . S
C3299 C3300 1.524 . S
C3300 C3299 1.524 . S
C3300 C3301 1.397 . S
C3300 C3305 1.363 . S
C3301 H3272 0.950 . S
C3301 C3300 1.397 . S
C3301 C3302 1.334 . S
C3302 H3273 0.950 . S
C3302 C3301 1.334 . S
C3302 C3303 1.287 . S
C3303 C3302 1.287 . S
C3303 C3304 1.524 . S
C3303 H3306 0.999 . S
C3304 H3274 0.950 . S
C3304 C3303 1.524 . S
C3304 C3305 1.415 . S
C3305 H3275 0.950 . S
C3305 C3300 1.363 . S
C3305 C3304 1.415 . S
H3306 C3303 0.999 . S
H3307 C3288 0.913 . S
H3308 C3326 0.951 . S
H3309 C3328 0.951 . S
H3310 C3330 0.950 . S
H3311 C3331 0.950 . S
H3312 C3333 0.950 . S
H3313 C3336 0.950 . S
H3314 C3337 0.950 . S
H3315 C3339 0.950 . S
H3316 C3340 0.950 . S
H3317 C3341 0.951 . S
H3318 C3343 0.951 . S
H3319 C3345 0.950 . S
H3320 C3346 0.950 . S
H3321 C3348 0.950 . S
H3322 C3351 0.950 . S
H3323 C3352 0.950 . S
H3324 C3354 0.950 . S
H3325 C3355 0.950 . S
C3326 H3308 0.951 . S
C3326 C3327 1.366 . S
C3326 C3328 1.388 . S
C3327 C3326 1.366 . S
C3327 C3331 1.385 . S
C3328 H3309 0.951 . S
C3328 C3326 1.388 . S
C3328 C3329 1.366 . S
C3329 C3328 1.366 . S
C3329 C3330 1.414 . S
C3329 C3332 1.499 . S
C3330 H3310 0.950 . S
C3330 C3329 1.414 . S
C3330 C3331 1.374 . S
C3331 H3311 0.950 . S
C3331 C3327 1.385 . S
C3331 C3330 1.374 . S
C3332 C3329 1.499 . S
C3332 C3333 1.373 . S
C3332 C3334 1.389 . S
C3333 H3312 0.950 . S
C3333 C3332 1.373 . S
C3333 C3349 1.377 . S
C3334 C3332 1.389 . S
C3334 C3335 1.524 . S
C3334 C3348 1.377 . S
C3335 C3334 1.524 . S
C3335 C3336 1.397 . S
C3335 C3340 1.363 . S
C3336 H3313 0.950 . S
C3336 C3335 1.397 . S
C3336 C3337 1.334 . S
C3337 H3314 0.950 . S
C3337 C3336 1.334 . S
C3337 C3338 1.287 . S
C3338 C3337 1.287 . S
C3338 C3339 1.524 . S
C3338 H3357 0.913 . S
C3339 H3315 0.950 . S
C3339 C3338 1.524 . S
C3339 C3340 1.415 . S
C3340 H3316 0.950 . S
C3340 C3335 1.363 . S
C3340 C3339 1.415 . S
C3341 H3317 0.951 . S
C3341 C3342 1.366 . S
C3341 C3343 1.388 . S
C3342 C3341 1.366 . S
C3342 C3346 1.385 . S
C3343 H3318 0.951 . S
C3343 C3341 1.388 . S
C3343 C3344 1.366 . S
C3344 C3343 1.366 . S
C3344 C3345 1.414 . S
C3344 C3347 1.499 . S
C3345 H3319 0.950 . S
C3345 C3344 1.414 . S
C3345 C3346 1.374 . S
C3346 H3320 0.950 . S
C3346 C3342 1.385 . S
C3346 C3345 1.374 . S
C3347 C3344 1.499 . S
C3347 C3348 1.373 . S
C3347 C3349 1.389 . S
C3348 H3321 0.950 . S
C3348 C3334 1.377 . S
C3348 C3347 1.373 . S
C3349 C3333 1.377 . S
C3349 C3347 1.389 . S
C3349 C3350 1.524 . S
C3350 C3349 1.524 . S
C3350 C3351 1.397 . S
C3350 C3355 1.363 . S
C3351 H3322 0.950 . S
C3351 C3350 1.397 . S
C3351 C3352 1.334 . S
C3352 H3323 0.950 . S
C3352 C3351 1.334 . S
C3352 C3353 1.287 . S
C3353 C3352 1.287 . S
C3353 C3354 1.524 . S
C3353 H3356 0.999 . S
C3354 H3324 0.950 . S
C3354 C3353 1.524 . S
C3354 C3355 1.415 . S
C3355 H3325 0.950 . S
C3355 C3350 1.363 . S
C3355 C3354 1.415 . S
H3356 C3353 0.999 . S
H3357 C3338 0.913 . S
H3358 C3376 0.951 . S
H3359 C3378 0.951 . S
H3360 C3380 0.950 . S
H3361 C3381 0.950 . S
H3362 C3383 0.950 . S
H3363 C3386 0.950 . S
H3364 C3387 0.950 . S
H3365 C3389 0.950 . S
H3366 C3390 0.950 . S
H3367 C3391 0.951 . S
H3368 C3393 0.951 . S
H3369 C3395 0.950 . S
H3370 C3396 0.950 . S
H3371 C3398 0.950 . S
H3372 C3401 0.950 . S
H3373 C3402 0.950 . S
H3374 C3404 0.950 . S
H3375 C3405 0.950 . S
C3376 H3358 0.951 . S
C3376 C3377 1.366 . S
C3376 C3378 1.388 . S
C3377 C3376 1.366 . S
C3377 C3381 1.385 . S
C3378 H3359 0.951 . S
C3378 C3376 1.388 . S
C3378 C3379 1.366 . S
C3379 C3378 1.366 . S
C3379 C3380 1.414 . S
C3379 C3382 1.499 . S
C3380 H3360 0.950 . S
C3380 C3379 1.414 . S
C3380 C3381 1.374 . S
C3381 H3361 0.950 . S
C3381 C3377 1.385 . S
C3381 C3380 1.374 . S
C3382 C3379 1.499 . S
C3382 C3383 1.373 . S
C3382 C3384 1.389 . S
C3383 H3362 0.950 . S
C3383 C3382 1.373 . S
C3383 C3399 1.377 . S
C3384 C3382 1.389 . S
C3384 C3385 1.524 . S
C3384 C3398 1.377 . S
C3385 C3384 1.524 . S
C3385 C3386 1.397 . S
C3385 C3390 1.363 . S
C3386 H3363 0.950 . S
C3386 C3385 1.397 . S
C3386 C3387 1.334 . S
C3387 H3364 0.950 . S
C3387 C3386 1.334 . S
C3387 C3388 1.287 . S
C3388 C3387 1.287 . S
C3388 C3389 1.524 . S
C3388 H3407 0.913 . S
C3389 H3365 0.950 . S
C3389 C3388 1.524 . S
C3389 C3390 1.415 . S
C3390 H3366 0.950 . S
C3390 C3385 1.363 . S
C3390 C3389 1.415 . S
C3391 H3367 0.951 . S
C3391 C3392 1.366 . S
C3391 C3393 1.388 . S
C3392 C3391 1.366 . S
C3392 C3396 1.385 . S
C3393 H3368 0.951 . S
C3393 C3391 1.388 . S
C3393 C3394 1.366 . S
C3394 C3393 1.366 . S
C3394 C3395 1.414 . S
C3394 C3397 1.499 . S
C3395 H3369 0.950 . S
C3395 C3394 1.414 . S
C3395 C3396 1.374 . S
C3396 H3370 0.950 . S
C3396 C3392 1.385 . S
C3396 C3395 1.374 . S
C3397 C3394 1.499 . S
C3397 C3398 1.373 . S
C3397 C3399 1.389 . S
C3398 H3371 0.950 . S
C3398 C3384 1.377 . S
C3398 C3397 1.373 . S
C3399 C3383 1.377 . S
C3399 C3397 1.389 . S
C3399 C3400 1.524 . S
C3400 C3399 1.524 . S
C3400 C3401 1.397 . S
C3400 C3405 1.363 . S
C3401 H3372 0.950 . S
C3401 C3400 1.397 . S
C3401 C3402 1.334 . S
C3402 H3373 0.950 . S
C3402 C3401 1.334 . S
C3402 C3403 1.287 . S
C3403 C3402 1.287 . S
C3403 C3404 1.524 . S
C3403 H3406 0.999 . S
C3404 H3374 0.950 . S
C3404 C3403 1.524 . S
C3404 C3405 1.415 . S
C3405 H3375 0.950 . S
C3405 C3400 1.363 . S
C3405 C3404 1.415 . S
H3406 C3403 0.999 . S
H3407 C3388 0.913 . S
H3408 C3426 0.951 . S
H3409 C3428 0.951 . S
H3410 C3430 0.950 . S
H3411 C3431 0.950 . S
H3412 C3433 0.950 . S
H3413 C3436 0.950 . S
H3414 C3437 0.950 . S
H3415 C3439 0.950 . S
H3416 C3440 0.950 . S
H3417 C3441 0.951 . S
H3418 C3443 0.951 . S
H3419 C3445 0.950 . S
H3420 C3446 0.950 . S
H3421 C3448 0.950 . S
H3422 C3451 0.950 . S
H3423 C3452 0.950 . S
H3424 C3454 0.950 . S
H3425 C3455 0.950 . S
C3426 H3408 0.951 . S
C3426 C3427 1.366 . S
C3426 C3428 1.388 . S
C3427 C3426 1.366 . S
C3427 C3431 1.385 . S
C3428 H3409 0.951 . S
C3428 C3426 1.388 . S
C3428 C3429 1.366 . S
C3429 C3428 1.366 . S
C3429 C3430 1.414 . S
C3429 C3432 1.499 . S
C3430 H3410 0.950 . S
C3430 C3429 1.414 . S
C3430 C3431 1.374 . S
C3431 H3411 0.950 . S
C3431 C3427 1.385 . S
C3431 C3430 1.374 . S
C3432 C3429 1.499 . S
C3432 C3433 1.373 . S
C3432 C3434 1.389 . S
C3433 H3412 0.950 . S
C3433 C3432 1.373 . S
C3433 C3449 1.377 . S
C3434 C3432 1.389 . S
C3434 C3435 1.524 . S
C3434 C3448 1.377 . S
C3435 C3434 1.524 . S
C3435 C3436 1.397 . S
C3435 C3440 1.363 . S
C3436 H3413 0.950 . S
C3436 C3435 1.397 . S
C3436 C3437 1.334 . S
C3437 H3414 0.950 . S
C3437 C3436 1.334 . S
C3437 C3438 1.292 1_554 S
C3438 C3437 1.292 1_556 S
C3438 C3439 1.522 . S
C3438 H3457 0.910 . S
C3439 H3415 0.950 . S
C3439 C3438 1.522 . S
C3439 C3440 1.415 1_556 S
C3440 H3416 0.950 . S
C3440 C3435 1.363 . S
C3440 C3439 1.415 1_554 S
C3441 H3417 0.951 . S
C3441 C3442 1.366 . S
C3441 C3443 1.388 . S
C3442 C3441 1.366 . S
C3442 C3446 1.385 . S
C3443 H3418 0.951 . S
C3443 C3441 1.388 . S
C3443 C3444 1.366 . S
C3444 C3443 1.366 . S
C3444 C3445 1.414 . S
C3444 C3447 1.499 . S
C3445 H3419 0.950 . S
C3445 C3444 1.414 . S
C3445 C3446 1.374 . S
C3446 H3420 0.950 . S
C3446 C3442 1.385 . S
C3446 C3445 1.374 . S
C3447 C3444 1.499 . S
C3447 C3448 1.373 . S
C3447 C3449 1.389 . S
C3448 H3421 0.950 . S
C3448 C3434 1.377 . S
C3448 C3447 1.373 . S
C3449 C3433 1.377 . S
C3449 C3447 1.389 . S
C3449 C3450 1.524 . S
C3450 C3449 1.524 . S
C3450 C3451 1.397 . S
C3450 C3455 1.363 . S
C3451 H3422 0.950 . S
C3451 C3450 1.397 . S
C3451 C3452 1.334 . S
C3452 H3423 0.950 . S
C3452 C3451 1.334 . S
C3452 C3453 1.287 . S
C3453 C3452 1.287 . S
C3453 C3454 1.524 . S
C3453 H3456 0.999 . S
C3454 H3424 0.950 . S
C3454 C3453 1.524 . S
C3454 C3455 1.415 . S
C3455 H3425 0.950 . S
C3455 C3450 1.363 . S
C3455 C3454 1.415 . S
H3456 C3453 0.999 . S
H3457 C3438 0.910 . S
H3458 C3476 0.951 . S
H3459 C3478 0.951 . S
H3460 C3480 0.950 . S
H3461 C3481 0.950 . S
H3462 C3483 0.950 . S
H3463 C3486 0.950 . S
H3464 C3487 0.950 . S
H3465 C3489 0.950 . S
H3466 C3490 0.950 . S
H3467 C3491 0.951 . S
H3468 C3493 0.951 . S
H3469 C3495 0.950 . S
H3470 C3496 0.950 . S
H3471 C3498 0.950 . S
H3472 C3501 0.950 . S
H3473 C3502 0.950 . S
H3474 C3504 0.950 . S
H3475 C3505 0.950 . S
C3476 H3458 0.951 . S
C3476 C3477 1.366 . S
C3476 C3478 1.388 . S
C3477 C3476 1.366 . S
C3477 C3481 1.385 . S
C3478 H3459 0.951 . S
C3478 C3476 1.388 . S
C3478 C3479 1.366 . S
C3479 C3478 1.366 . S
C3479 C3480 1.414 . S
C3479 C3482 1.499 . S
C3480 H3460 0.950 . S
C3480 C3479 1.414 . S
C3480 C3481 1.374 . S
C3481 H3461 0.950 . S
C3481 C3477 1.385 . S
C3481 C3480 1.374 . S
C3482 C3479 1.499 . S
C3482 C3483 1.373 . S
C3482 C3484 1.389 . S
C3483 H3462 0.950 . S
C3483 C3482 1.373 . S
C3483 C3499 1.377 . S
C3484 C3482 1.389 . S
C3484 C3485 1.524 . S
C3484 C3498 1.377 . S
C3485 C3484 1.524 . S
C3485 C3486 1.397 . S
C3485 C3490 1.363 . S
C3486 H3463 0.950 . S
C3486 C3485 1.397 . S
C3486 C3487 1.334 . S
C3487 H3464 0.950 . S
C3487 C3486 1.334 . S
C3487 C3488 1.287 . S
C3488 C3487 1.287 . S
C3488 C3489 1.524 . S
C3488 H3507 0.913 . S
C3489 H3465 0.950 . S
C3489 C3488 1.524 . S
C3489 C3490 1.415 . S
C3490 H3466 0.950 . S
C3490 C3485 1.363 . S
C3490 C3489 1.415 . S
C3491 H3467 0.951 . S
C3491 C3492 1.366 . S
C3491 C3493 1.388 . S
C3492 C3491 1.366 . S
C3492 C3496 1.385 . S
C3493 H3468 0.951 . S
C3493 C3491 1.388 . S
C3493 C3494 1.366 . S
C3494 C3493 1.366 . S
C3494 C3495 1.414 . S
C3494 C3497 1.499 . S
C3495 H3469 0.950 . S
C3495 C3494 1.414 . S
C3495 C3496 1.374 . S
C3496 H3470 0.950 . S
C3496 C3492 1.385 . S
C3496 C3495 1.374 . S
C3497 C3494 1.499 . S
C3497 C3498 1.373 . S
C3497 C3499 1.389 . S
C3498 H3471 0.950 . S
C3498 C3484 1.377 . S
C3498 C3497 1.373 . S
C3499 C3483 1.377 . S
C3499 C3497 1.389 . S
C3499 C3500 1.524 . S
C3500 C3499 1.524 . S
C3500 C3501 1.397 . S
C3500 C3505 1.363 . S
C3501 H3472 0.950 . S
C3501 C3500 1.397 . S
C3501 C3502 1.334 . S
C3502 H3473 0.950 . S
C3502 C3501 1.334 . S
C3502 C3503 1.287 . S
C3503 C3502 1.287 . S
C3503 C3504 1.524 . S
C3503 H3506 0.999 . S
C3504 H3474 0.950 . S
C3504 C3503 1.524 . S
C3504 C3505 1.415 . S
C3505 H3475 0.950 . S
C3505 C3500 1.363 . S
C3505 C3504 1.415 . S
H3506 C3503 0.999 . S
H3507 C3488 0.913 . S
H3508 C3526 0.951 . S
H3509 C3528 0.951 . S
H3510 C3530 0.950 . S
H3511 C3531 0.950 . S
H3512 C3533 0.950 . S
H3513 C3536 0.950 . S
H3514 C3537 0.950 . S
H3515 C3539 0.950 . S
H3516 C3540 0.950 . S
H3517 C3541 0.951 . S
H3518 C3543 0.951 . S
H3519 C3545 0.950 . S
H3520 C3546 0.950 . S
H3521 C3548 0.950 . S
H3522 C3551 0.950 . S
H3523 C3552 0.950 . S
H3524 C3554 0.950 . S
H3525 C3555 0.950 . S
C3526 H3508 0.951 . S
C3526 C3527 1.366 . S
C3526 C3528 1.388 . S
C3527 C3526 1.366 . S
C3527 C3531 1.385 . S
C3528 H3509 0.951 . S
C3528 C3526 1.388 . S
C3528 C3529 1.366 . S
C3529 C3528 1.366 . S
C3529 C3530 1.414 . S
C3529 C3532 1.499 . S
C3530 H3510 0.950 . S
C3530 C3529 1.414 . S
C3530 C3531 1.374 . S
C3531 H3511 0.950 . S
C3531 C3527 1.385 . S
C3531 C3530 1.374 . S
C3532 C3529 1.499 . S
C3532 C3533 1.373 . S
C3532 C3534 1.389 . S
C3533 H3512 0.950 . S
C3533 C3532 1.373 . S
C3533 C3549 1.377 . S
C3534 C3532 1.389 . S
C3534 C3535 1.524 . S
C3534 C3548 1.377 . S
C3535 C3534 1.524 . S
C3535 C3536 1.397 . S
C3535 C3540 1.363 . S
C3536 H3513 0.950 . S
C3536 C3535 1.397 . S
C3536 C3537 1.334 . S
C3537 H3514 0.950 . S
C3537 C3536 1.334 . S
C3537 C3538 1.287 . S
C3538 C3537 1.287 . S
C3538 C3539 1.524 . S
C3538 H3557 0.913 . S
C3539 H3515 0.950 . S
C3539 C3538 1.524 . S
C3539 C3540 1.415 . S
C3540 H3516 0.950 . S
C3540 C3535 1.363 . S
C3540 C3539 1.415 . S
C3541 H3517 0.951 . S
C3541 C3542 1.366 . S
C3541 C3543 1.388 . S
C3542 C3541 1.366 . S
C3542 C3546 1.385 . S
C3543 H3518 0.951 . S
C3543 C3541 1.388 . S
C3543 C3544 1.366 . S
C3544 C3543 1.366 . S
C3544 C3545 1.414 . S
C3544 C3547 1.499 . S
C3545 H3519 0.950 . S
C3545 C3544 1.414 . S
C3545 C3546 1.374 . S
C3546 H3520 0.950 . S
C3546 C3542 1.385 . S
C3546 C3545 1.374 . S
C3547 C3544 1.499 . S
C3547 C3548 1.373 . S
C3547 C3549 1.389 . S
C3548 H3521 0.950 . S
C3548 C3534 1.377 . S
C3548 C3547 1.373 . S
C3549 C3533 1.377 . S
C3549 C3547 1.389 . S
C3549 C3550 1.524 . S
C3550 C3549 1.524 . S
C3550 C3551 1.397 . S
C3550 C3555 1.363 . S
C3551 H3522 0.950 . S
C3551 C3550 1.397 . S
C3551 C3552 1.334 . S
C3552 H3523 0.950 . S
C3552 C3551 1.334 . S
C3552 C3553 1.287 . S
C3553 C3552 1.287 . S
C3553 C3554 1.524 . S
C3553 H3556 0.999 . S
C3554 H3524 0.950 . S
C3554 C3553 1.524 . S
C3554 C3555 1.415 . S
C3555 H3525 0.950 . S
C3555 C3550 1.363 . S
C3555 C3554 1.415 . S
H3556 C3553 0.999 . S
H3557 C3538 0.913 . S
H3558 C3576 0.951 . S
H3559 C3578 0.951 . S
H3560 C3580 0.950 . S
H3561 C3581 0.950 . S
H3562 C3583 0.950 . S
H3563 C3586 0.950 . S
H3564 C3587 0.950 . S
H3565 C3589 0.950 . S
H3566 C3590 0.950 . S
H3567 C3591 0.951 . S
H3568 C3593 0.951 . S
H3569 C3595 0.950 . S
H3570 C3596 0.950 . S
H3571 C3598 0.950 . S
H3572 C3601 0.950 . S
H3573 C3602 0.950 . S
H3574 C3604 0.950 . S
H3575 C3605 0.950 . S
C3576 H3558 0.951 . S
C3576 C3577 1.366 . S
C3576 C3578 1.388 . S
C3577 C3576 1.366 . S
C3577 C3581 1.385 . S
C3578 H3559 0.951 . S
C3578 C3576 1.388 . S
C3578 C3579 1.366 . S
C3579 C3578 1.366 . S
C3579 C3580 1.414 . S
C3579 C3582 1.499 . S
C3580 H3560 0.950 . S
C3580 C3579 1.414 . S
C3580 C3581 1.374 . S
C3581 H3561 0.950 . S
C3581 C3577 1.385 . S
C3581 C3580 1.374 . S
C3582 C3579 1.499 . S
C3582 C3583 1.373 . S
C3582 C3584 1.389 . S
C3583 H3562 0.950 . S
C3583 C3582 1.373 . S
C3583 C3599 1.377 . S
C3584 C3582 1.389 . S
C3584 C3585 1.524 . S
C3584 C3598 1.377 . S
C3585 C3584 1.524 . S
C3585 C3586 1.397 . S
C3585 C3590 1.363 . S
C3586 H3563 0.950 . S
C3586 C3585 1.397 . S
C3586 C3587 1.334 . S
C3587 H3564 0.950 . S
C3587 C3586 1.334 . S
C3587 C3588 1.287 . S
C3588 C3587 1.287 . S
C3588 C3589 1.524 . S
C3588 H3607 0.913 . S
C3589 H3565 0.950 . S
C3589 C3588 1.524 . S
C3589 C3590 1.415 . S
C3590 H3566 0.950 . S
C3590 C3585 1.363 . S
C3590 C3589 1.415 . S
C3591 H3567 0.951 . S
C3591 C3592 1.366 . S
C3591 C3593 1.388 . S
C3592 C3591 1.366 . S
C3592 C3596 1.385 . S
C3593 H3568 0.951 . S
C3593 C3591 1.388 . S
C3593 C3594 1.366 . S
C3594 C3593 1.366 . S
C3594 C3595 1.414 . S
C3594 C3597 1.499 . S
C3595 H3569 0.950 . S
C3595 C3594 1.414 . S
C3595 C3596 1.374 . S
C3596 H3570 0.950 . S
C3596 C3592 1.385 . S
C3596 C3595 1.374 . S
C3597 C3594 1.499 . S
C3597 C3598 1.373 . S
C3597 C3599 1.389 . S
C3598 H3571 0.950 . S
C3598 C3584 1.377 . S
C3598 C3597 1.373 . S
C3599 C3583 1.377 . S
C3599 C3597 1.389 . S
C3599 C3600 1.524 . S
C3600 C3599 1.524 . S
C3600 C3601 1.397 . S
C3600 C3605 1.363 . S
C3601 H3572 0.950 . S
C3601 C3600 1.397 . S
C3601 C3602 1.334 . S
C3602 H3573 0.950 . S
C3602 C3601 1.334 . S
C3602 C3603 1.287 . S
C3603 C3602 1.287 . S
C3603 C3604 1.524 . S
C3603 H3606 0.999 . S
C3604 H3574 0.950 . S
C3604 C3603 1.524 . S
C3604 C3605 1.415 . S
C3605 H3575 0.950 . S
C3605 C3600 1.363 . S
C3605 C3604 1.415 . S
H3606 C3603 0.999 . S
H3607 C3588 0.913 . S
H3608 C3626 0.951 . S
H3609 C3628 0.951 . S
H3610 C3630 0.950 . S
H3611 C3631 0.950 . S
H3612 C3633 0.950 . S
H3613 C3636 0.950 . S
H3614 C3637 0.950 . S
H3615 C3639 0.950 . S
H3616 C3640 0.950 . S
H3617 C3641 0.951 . S
H3618 C3643 0.951 . S
H3619 C3645 0.950 . S
H3620 C3646 0.950 . S
H3621 C3648 0.950 . S
H3622 C3651 0.950 . S
H3623 C3652 0.950 . S
H3624 C3654 0.950 . S
H3625 C3655 0.950 . S
C3626 H3608 0.951 . S
C3626 C3627 1.366 . S
C3626 C3628 1.388 . S
C3627 C3626 1.366 . S
C3627 C3631 1.385 . S
C3628 H3609 0.951 . S
C3628 C3626 1.388 . S
C3628 C3629 1.366 . S
C3629 C3628 1.366 . S
C3629 C3630 1.414 . S
C3629 C3632 1.499 . S
C3630 H3610 0.950 . S
C3630 C3629 1.414 . S
C3630 C3631 1.374 . S
C3631 H3611 0.950 . S
C3631 C3627 1.385 . S
C3631 C3630 1.374 . S
C3632 C3629 1.499 . S
C3632 C3633 1.373 . S
C3632 C3634 1.389 . S
C3633 H3612 0.950 . S
C3633 C3632 1.373 . S
C3633 C3649 1.377 . S
C3634 C3632 1.389 . S
C3634 C3635 1.524 . S
C3634 C3648 1.377 . S
C3635 C3634 1.524 . S
C3635 C3636 1.397 . S
C3635 C3640 1.363 . S
C3636 H3613 0.950 . S
C3636 C3635 1.397 . S
C3636 C3637 1.334 . S
C3637 H3614 0.950 . S
C3637 C3636 1.334 . S
C3637 C3638 1.287 . S
C3638 C3637 1.287 . S
C3638 C3639 1.524 . S
C3638 H3657 0.913 . S
C3639 H3615 0.950 . S
C3639 C3638 1.524 . S
C3639 C3640 1.415 . S
C3640 H3616 0.950 . S
C3640 C3635 1.363 . S
C3640 C3639 1.415 . S
C3641 H3617 0.951 . S
C3641 C3642 1.366 . S
C3641 C3643 1.388 . S
C3642 C3641 1.366 . S
C3642 C3646 1.385 . S
C3643 H3618 0.951 . S
C3643 C3641 1.388 . S
C3643 C3644 1.366 . S
C3644 C3643 1.366 . S
C3644 C3645 1.414 . S
C3644 C3647 1.499 . S
C3645 H3619 0.950 . S
C3645 C3644 1.414 . S
C3645 C3646 1.374 . S
C3646 H3620 0.950 . S
C3646 C3642 1.385 . S
C3646 C3645 1.374 . S
C3647 C3644 1.499 . S
C3647 C3648 1.373 . S
C3647 C3649 1.389 . S
C3648 H3621 0.950 . S
C3648 C3634 1.377 . S
C3648 C3647 1.373 . S
C3649 C3633 1.377 . S
C3649 C3647 1.389 . S
C3649 C3650 1.524 . S
C3650 C3649 1.524 . S
C3650 C3651 1.397 . S
C3650 C3655 1.363 . S
C3651 H3622 0.950 . S
C3651 C3650 1.397 . S
C3651 C3652 1.334 . S
C3652 H3623 0.950 . S
C3652 C3651 1.334 . S
C3652 C3653 1.287 . S
C3653 C3652 1.287 . S
C3653 C3654 1.524 . S
C3653 H3656 0.999 . S
C3654 H3624 0.950 . S
C3654 C3653 1.524 . S
C3654 C3655 1.415 . S
C3655 H3625 0.950 . S
C3655 C3650 1.363 . S
C3655 C3654 1.415 . S
H3656 C3653 0.999 . S
H3657 C3638 0.913 . S
H3658 C3676 0.951 . S
H3659 C3678 0.951 . S
H3660 C3680 0.950 . S
H3661 C3681 0.950 . S
H3662 C3683 0.950 . S
H3663 C3686 0.950 . S
H3664 C3687 0.950 . S
H3665 C3689 0.950 . S
H3666 C3690 0.950 . S
H3667 C3691 0.951 . S
H3668 C3693 0.951 . S
H3669 C3695 0.950 . S
H3670 C3696 0.950 . S
H3671 C3698 0.950 . S
H3672 C3701 0.950 . S
H3673 C3702 0.950 . S
H3674 C3704 0.950 . S
H3675 C3705 0.950 . S
C3676 H3658 0.951 . S
C3676 C3677 1.366 . S
C3676 C3678 1.388 . S
C3677 C3676 1.366 . S
C3677 C3681 1.385 . S
C3678 H3659 0.951 . S
C3678 C3676 1.388 . S
C3678 C3679 1.366 . S
C3679 C3678 1.366 . S
C3679 C3680 1.414 . S
C3679 C3682 1.499 . S
C3680 H3660 0.950 . S
C3680 C3679 1.414 . S
C3680 C3681 1.374 . S
C3681 H3661 0.950 . S
C3681 C3677 1.385 . S
C3681 C3680 1.374 . S
C3682 C3679 1.499 . S
C3682 C3683 1.373 . S
C3682 C3684 1.389 . S
C3683 H3662 0.950 . S
C3683 C3682 1.373 . S
C3683 C3699 1.377 . S
C3684 C3682 1.389 . S
C3684 C3685 1.524 . S
C3684 C3698 1.377 . S
C3685 C3684 1.524 . S
C3685 C3686 1.397 . S
C3685 C3690 1.363 . S
C3686 H3663 0.950 . S
C3686 C3685 1.397 . S
C3686 C3687 1.334 . S
C3687 H3664 0.950 . S
C3687 C3686 1.334 . S
C3687 C3688 1.287 . S
C3688 C3687 1.287 . S
C3688 C3689 1.524 . S
C3688 H3707 0.913 . S
C3689 H3665 0.950 . S
C3689 C3688 1.524 . S
C3689 C3690 1.415 . S
C3690 H3666 0.950 . S
C3690 C3685 1.363 . S
C3690 C3689 1.415 . S
C3691 H3667 0.951 . S
C3691 C3692 1.366 . S
C3691 C3693 1.388 . S
C3692 C3691 1.366 . S
C3692 C3696 1.385 . S
C3693 H3668 0.951 . S
C3693 C3691 1.388 . S
C3693 C3694 1.366 . S
C3694 C3693 1.366 . S
C3694 C3695 1.414 . S
C3694 C3697 1.499 . S
C3695 H3669 0.950 . S
C3695 C3694 1.414 . S
C3695 C3696 1.374 . S
C3696 H3670 0.950 . S
C3696 C3692 1.385 . S
C3696 C3695 1.374 . S
C3697 C3694 1.499 . S
C3697 C3698 1.373 . S
C3697 C3699 1.389 . S
C3698 H3671 0.950 . S
C3698 C3684 1.377 . S
C3698 C3697 1.373 . S
C3699 C3683 1.377 . S
C3699 C3697 1.389 . S
C3699 C3700 1.524 . S
C3700 C3699 1.524 . S
C3700 C3701 1.397 . S
C3700 C3705 1.363 . S
C3701 H3672 0.950 . S
C3701 C3700 1.397 . S
C3701 C3702 1.334 . S
C3702 H3673 0.950 . S
C3702 C3701 1.334 . S
C3702 C3703 1.287 . S
C3703 C3702 1.287 . S
C3703 C3704 1.524 . S
C3703 H3706 0.999 . S
C3704 H3674 0.950 . S
C3704 C3703 1.524 . S
C3704 C3705 1.415 . S
C3705 H3675 0.950 . S
C3705 C3700 1.363 . S
C3705 C3704 1.415 . S
H3706 C3703 0.999 . S
H3707 C3688 0.913 . S
H3708 C3726 0.951 . S
H3709 C3728 0.951 . S
H3710 C3730 0.950 . S
H3711 C3731 0.950 . S
H3712 C3733 0.950 . S
H3713 C3736 0.950 . S
H3714 C3737 0.950 . S
H3715 C3739 0.950 . S
H3716 C3740 0.950 . S
H3717 C3741 0.951 . S
H3718 C3743 0.971 . S
H3719 C3745 0.950 . S
H3720 C3746 0.950 . S
H3721 C3748 0.950 . S
H3722 C3751 0.950 . S
H3723 C3752 0.950 . S
H3724 C3754 0.940 1_554 S
H3725 C3755 0.950 . S
C3726 H3708 0.951 . S
C3726 C3727 1.366 . S
C3726 C3728 1.388 . S
C3727 C3726 1.366 . S
C3727 C3731 1.385 . S
C3728 H3709 0.951 . S
C3728 C3726 1.388 . S
C3728 C3729 1.366 . S
C3729 C3728 1.366 . S
C3729 C3730 1.414 . S
C3729 C3732 1.499 . S
C3730 H3710 0.950 . S
C3730 C3729 1.414 . S
C3730 C3731 1.374 . S
C3731 H3711 0.950 . S
C3731 C3727 1.385 . S
C3731 C3730 1.374 . S
C3732 C3729 1.499 . S
C3732 C3733 1.373 . S
C3732 C3734 1.389 . S
C3733 H3712 0.950 . S
C3733 C3732 1.373 . S
C3733 C3749 1.377 . S
C3734 C3732 1.389 . S
C3734 C3735 1.524 . S
C3734 C3748 1.377 . S
C3735 C3734 1.524 . S
C3735 C3736 1.397 . S
C3735 C3740 1.363 . S
C3736 H3713 0.950 . S
C3736 C3735 1.397 . S
C3736 C3737 1.334 . S
C3737 H3714 0.950 . S
C3737 C3736 1.334 . S
C3737 C3738 1.287 . S
C3738 C3737 1.287 . S
C3738 C3739 1.524 . S
C3738 H3757 0.913 . S
C3739 H3715 0.950 . S
C3739 C3738 1.524 . S
C3739 C3740 1.415 . S
C3740 H3716 0.950 . S
C3740 C3735 1.363 . S
C3740 C3739 1.415 . S
C3741 H3717 0.951 . S
C3741 C3742 1.366 1_564 S
C3741 C3743 1.388 1_554 S
C3742 C3741 1.366 1_546 S
C3742 C3746 1.385 . S
C3743 H3718 0.971 . S
C3743 C3741 1.388 1_556 S
C3743 C3744 1.366 . S
C3744 C3743 1.366 . S
C3744 C3745 1.414 . S
C3744 C3747 1.499 . S
C3745 H3719 0.950 . S
C3745 C3744 1.414 . S
C3745 C3746 1.374 1_565 S
C3746 H3720 0.950 . S
C3746 C3742 1.385 . S
C3746 C3745 1.374 1_545 S
C3747 C3744 1.499 . S
C3747 C3748 1.373 . S
C3747 C3749 1.389 . S
C3748 H3721 0.950 . S
C3748 C3734 1.377 . S
C3748 C3747 1.373 . S
C3749 C3733 1.377 . S
C3749 C3747 1.389 . S
C3749 C3750 1.524 . S
C3750 C3749 1.524 . S
C3750 C3751 1.397 . S
C3750 C3755 1.363 . S
C3751 H3722 0.950 . S
C3751 C3750 1.397 . S
C3751 C3752 1.334 . S
C3752 H3723 0.950 . S
C3752 C3751 1.334 . S
C3752 C3753 1.287 . S
C3753 C3752 1.287 . S
C3753 C3754 1.527 . S
C3753 H3756 0.999 1_556 S
C3754 H3724 0.940 1_556 S
C3754 C3753 1.527 . S
C3754 C3755 1.422 . S
C3755 H3725 0.950 . S
C3755 C3750 1.363 . S
C3755 C3754 1.422 . S
H3756 C3753 0.999 1_554 S
H3757 C3738 0.913 . S
H3758 C3776 0.951 . S
H3759 C3778 0.951 . S
H3760 C3780 0.950 . S
H3761 C3781 0.950 . S
H3762 C3783 0.950 . S
H3763 C3786 0.950 . S
H3764 C3787 0.950 . S
H3765 C3789 0.950 . S
H3766 C3790 0.950 . S
H3767 C3791 0.951 . S
H3768 C3793 0.951 . S
H3769 C3795 0.950 . S
H3770 C3796 0.950 . S
H3771 C3798 0.950 . S
H3772 C3801 0.950 . S
H3773 C3802 0.950 . S
H3774 C3804 0.950 . S
H3775 C3805 0.950 . S
C3776 H3758 0.951 . S
C3776 C3777 1.366 . S
C3776 C3778 1.388 . S
C3777 C3776 1.366 . S
C3777 C3781 1.385 . S
C3778 H3759 0.951 . S
C3778 C3776 1.388 . S
C3778 C3779 1.366 . S
C3779 C3778 1.366 . S
C3779 C3780 1.414 . S
C3779 C3782 1.499 . S
C3780 H3760 0.950 . S
C3780 C3779 1.414 . S
C3780 C3781 1.374 . S
C3781 H3761 0.950 . S
C3781 C3777 1.385 . S
C3781 C3780 1.374 . S
C3782 C3779 1.499 . S
C3782 C3783 1.373 . S
C3782 C3784 1.389 . S
C3783 H3762 0.950 . S
C3783 C3782 1.373 . S
C3783 C3799 1.377 . S
C3784 C3782 1.389 . S
C3784 C3785 1.524 . S
C3784 C3798 1.377 . S
C3785 C3784 1.524 . S
C3785 C3786 1.397 . S
C3785 C3790 1.363 . S
C3786 H3763 0.950 . S
C3786 C3785 1.397 . S
C3786 C3787 1.334 . S
C3787 H3764 0.950 . S
C3787 C3786 1.334 . S
C3787 C3788 1.287 . S
C3788 C3787 1.287 . S
C3788 C3789 1.524 . S
C3788 H3807 0.913 . S
C3789 H3765 0.950 . S
C3789 C3788 1.524 . S
C3789 C3790 1.415 . S
C3790 H3766 0.950 . S
C3790 C3785 1.363 . S
C3790 C3789 1.415 . S
C3791 H3767 0.951 . S
C3791 C3792 1.366 . S
C3791 C3793 1.388 . S
C3792 C3791 1.366 . S
C3792 C3796 1.385 . S
C3793 H3768 0.951 . S
C3793 C3791 1.388 . S
C3793 C3794 1.366 . S
C3794 C3793 1.366 . S
C3794 C3795 1.414 . S
C3794 C3797 1.499 . S
C3795 H3769 0.950 . S
C3795 C3794 1.414 . S
C3795 C3796 1.374 . S
C3796 H3770 0.950 . S
C3796 C3792 1.385 . S
C3796 C3795 1.374 . S
C3797 C3794 1.499 . S
C3797 C3798 1.373 . S
C3797 C3799 1.389 . S
C3798 H3771 0.950 . S
C3798 C3784 1.377 . S
C3798 C3797 1.373 . S
C3799 C3783 1.377 . S
C3799 C3797 1.389 . S
C3799 C3800 1.524 . S
C3800 C3799 1.524 . S
C3800 C3801 1.397 . S
C3800 C3805 1.363 . S
C3801 H3772 0.950 . S
C3801 C3800 1.397 . S
C3801 C3802 1.334 . S
C3802 H3773 0.950 . S
C3802 C3801 1.334 . S
C3802 C3803 1.287 . S
C3803 C3802 1.287 . S
C3803 C3804 1.524 . S
C3803 H3806 0.999 . S
C3804 H3774 0.950 . S
C3804 C3803 1.524 . S
C3804 C3805 1.415 . S
C3805 H3775 0.950 . S
C3805 C3800 1.363 . S
C3805 C3804 1.415 . S
H3806 C3803 0.999 . S
H3807 C3788 0.913 . S
H3808 C3826 0.951 . S
H3809 C3828 0.951 . S
H3810 C3830 0.950 . S
H3811 C3831 0.950 . S
H3812 C3833 0.950 . S
H3813 C3836 0.950 . S
H3814 C3837 0.950 . S
H3815 C3839 0.950 . S
H3816 C3840 0.950 . S
H3817 C3841 0.951 1_565 S
H3818 C3843 0.951 1_565 S
H3819 C3845 0.950 . S
H3820 C3846 0.950 . S
H3821 C3848 0.950 . S
H3822 C3851 0.950 . S
H3823 C3852 0.950 . S
H3824 C3854 0.950 . S
H3825 C3855 0.950 . S
C3826 H3808 0.951 . S
C3826 C3827 1.366 . S
C3826 C3828 1.388 . S
C3827 C3826 1.366 . S
C3827 C3831 1.385 1_545 S
C3828 H3809 0.951 . S
C3828 C3826 1.388 . S
C3828 C3829 1.366 . S
C3829 C3828 1.366 . S
C3829 C3830 1.414 1_545 S
C3829 C3832 1.499 . S
C3830 H3810 0.950 . S
C3830 C3829 1.414 1_565 S
C3830 C3831 1.374 . S
C3831 H3811 0.950 . S
C3831 C3827 1.385 1_565 S
C3831 C3830 1.374 . S
C3832 C3829 1.499 . S
C3832 C3833 1.373 1_545 S
C3832 C3834 1.389 . S
C3833 H3812 0.950 . S
C3833 C3832 1.373 1_565 S
C3833 C3849 1.377 . S
C3834 C3832 1.389 . S
C3834 C3835 1.524 . S
C3834 C3848 1.377 . S
C3835 C3834 1.524 . S
C3835 C3836 1.397 . S
C3835 C3840 1.363 . S
C3836 H3813 0.950 . S
C3836 C3835 1.397 . S
C3836 C3837 1.334 . S
C3837 H3814 0.950 . S
C3837 C3836 1.334 . S
C3837 C3838 1.287 . S
C3838 C3837 1.287 . S
C3838 C3839 1.524 . S
C3838 H3857 0.913 . S
C3839 H3815 0.950 . S
C3839 C3838 1.524 . S
C3839 C3840 1.415 . S
C3840 H3816 0.950 . S
C3840 C3835 1.363 . S
C3840 C3839 1.415 . S
C3841 H3817 0.951 1_545 S
C3841 C3842 1.366 . S
C3841 C3843 1.388 . S
C3842 C3841 1.366 . S
C3842 C3846 1.385 . S
C3843 H3818 0.951 1_545 S
C3843 C3841 1.388 . S
C3843 C3844 1.366 . S
C3844 C3843 1.366 . S
C3844 C3845 1.414 . S
C3844 C3847 1.499 . S
C3845 H3819 0.950 . S
C3845 C3844 1.414 . S
C3845 C3846 1.374 . S
C3846 H3820 0.950 . S
C3846 C3842 1.385 . S
C3846 C3845 1.374 . S
C3847 C3844 1.499 . S
C3847 C3848 1.373 . S
C3847 C3849 1.389 1_545 S
C3848 H3821 0.950 . S
C3848 C3834 1.377 . S
C3848 C3847 1.373 . S
C3849 C3833 1.377 . S
C3849 C3847 1.389 1_565 S
C3849 C3850 1.524 . S
C3850 C3849 1.524 . S
C3850 C3851 1.397 . S
C3850 C3855 1.363 . S
C3851 H3822 0.950 . S
C3851 C3850 1.397 . S
C3851 C3852 1.334 . S
C3852 H3823 0.950 . S
C3852 C3851 1.334 . S
C3852 C3853 1.287 . S
C3853 C3852 1.287 . S
C3853 C3854 1.524 . S
C3853 H3856 0.999 . S
C3854 H3824 0.950 . S
C3854 C3853 1.524 . S
C3854 C3855 1.415 . S
C3855 H3825 0.950 . S
C3855 C3850 1.363 . S
C3855 C3854 1.415 . S
H3856 C3853 0.999 . S
H3857 C3838 0.913 . S
H3858 C3876 0.951 . S
H3859 C3878 0.951 . S
H3860 C3880 0.950 . S
H3861 C3881 0.950 . S
H3862 C3883 0.950 . S
H3863 C3886 0.950 . S
H3864 C3887 0.950 . S
H3865 C3889 0.950 . S
H3866 C3890 0.950 . S
H3867 C3891 0.951 . S
H3868 C3893 0.951 . S
H3869 C3895 0.950 . S
H3870 C3896 0.950 . S
H3871 C3898 0.950 . S
H3872 C3901 0.950 . S
H3873 C3902 0.950 . S
H3874 C3904 0.950 . S
H3875 C3905 0.950 . S
C3876 H3858 0.951 . S
C3876 C3877 1.366 . S
C3876 C3878 1.388 . S
C3877 C3876 1.366 . S
C3877 C3881 1.385 . S
C3878 H3859 0.951 . S
C3878 C3876 1.388 . S
C3878 C3879 1.366 . S
C3879 C3878 1.366 . S
C3879 C3880 1.414 . S
C3879 C3882 1.499 . S
C3880 H3860 0.950 . S
C3880 C3879 1.414 . S
C3880 C3881 1.374 . S
C3881 H3861 0.950 . S
C3881 C3877 1.385 . S
C3881 C3880 1.374 . S
C3882 C3879 1.499 . S
C3882 C3883 1.373 . S
C3882 C3884 1.389 . S
C3883 H3862 0.950 . S
C3883 C3882 1.373 . S
C3883 C3899 1.377 . S
C3884 C3882 1.389 . S
C3884 C3885 1.524 . S
C3884 C3898 1.377 . S
C3885 C3884 1.524 . S
C3885 C3886 1.397 . S
C3885 C3890 1.363 . S
C3886 H3863 0.950 . S
C3886 C3885 1.397 . S
C3886 C3887 1.334 . S
C3887 H3864 0.950 . S
C3887 C3886 1.334 . S
C3887 C3888 1.287 . S
C3888 C3887 1.287 . S
C3888 C3889 1.524 . S
C3888 H3907 0.913 . S
C3889 H3865 0.950 . S
C3889 C3888 1.524 . S
C3889 C3890 1.415 . S
C3890 H3866 0.950 . S
C3890 C3885 1.363 . S
C3890 C3889 1.415 . S
C3891 H3867 0.951 . S
C3891 C3892 1.366 . S
C3891 C3893 1.388 . S
C3892 C3891 1.366 . S
C3892 C3896 1.385 . S
C3893 H3868 0.951 . S
C3893 C3891 1.388 . S
C3893 C3894 1.366 . S
C3894 C3893 1.366 . S
C3894 C3895 1.414 . S
C3894 C3897 1.499 . S
C3895 H3869 0.950 . S
C3895 C3894 1.414 . S
C3895 C3896 1.374 . S
C3896 H3870 0.950 . S
C3896 C3892 1.385 . S
C3896 C3895 1.374 . S
C3897 C3894 1.499 . S
C3897 C3898 1.373 . S
C3897 C3899 1.389 . S
C3898 H3871 0.950 . S
C3898 C3884 1.377 . S
C3898 C3897 1.373 . S
C3899 C3883 1.377 . S
C3899 C3897 1.389 . S
C3899 C3900 1.524 . S
C3900 C3899 1.524 . S
C3900 C3901 1.397 . S
C3900 C3905 1.363 . S
C3901 H3872 0.950 . S
C3901 C3900 1.397 . S
C3901 C3902 1.334 . S
C3902 H3873 0.950 . S
C3902 C3901 1.334 . S
C3902 C3903 1.287 . S
C3903 C3902 1.287 . S
C3903 C3904 1.524 . S
C3903 H3906 0.999 . S
C3904 H3874 0.950 . S
C3904 C3903 1.524 . S
C3904 C3905 1.415 . S
C3905 H3875 0.950 . S
C3905 C3900 1.363 . S
C3905 C3904 1.415 . S
H3906 C3903 0.999 . S
H3907 C3888 0.913 . S
H3908 C3926 0.951 . S
H3909 C3928 0.951 . S
H3910 C3930 0.950 . S
H3911 C3931 0.950 . S
H3912 C3933 0.950 . S
H3913 C3936 0.950 . S
H3914 C3937 0.950 . S
H3915 C3939 0.950 . S
H3916 C3940 0.950 . S
H3917 C3941 0.951 . S
H3918 C3943 0.951 . S
H3919 C3945 0.950 . S
H3920 C3946 0.950 . S
H3921 C3948 0.950 . S
H3922 C3951 0.950 . S
H3923 C3952 0.938 1_565 S
H3924 C3954 0.950 . S
H3925 C3955 0.950 . S
C3926 H3908 0.951 . S
C3926 C3927 1.366 . S
C3926 C3928 1.388 . S
C3927 C3926 1.366 . S
C3927 C3931 1.385 . S
C3928 H3909 0.951 . S
C3928 C3926 1.388 . S
C3928 C3929 1.366 . S
C3929 C3928 1.366 . S
C3929 C3930 1.414 . S
C3929 C3932 1.499 . S
C3930 H3910 0.950 . S
C3930 C3929 1.414 . S
C3930 C3931 1.374 . S
C3931 H3911 0.950 . S
C3931 C3927 1.385 . S
C3931 C3930 1.374 . S
C3932 C3929 1.499 . S
C3932 C3933 1.373 . S
C3932 C3934 1.389 . S
C3933 H3912 0.950 . S
C3933 C3932 1.373 . S
C3933 C3949 1.377 . S
C3934 C3932 1.389 . S
C3934 C3935 1.524 . S
C3934 C3948 1.377 . S
C3935 C3934 1.524 . S
C3935 C3936 1.397 . S
C3935 C3940 1.363 . S
C3936 H3913 0.950 . S
C3936 C3935 1.397 . S
C3936 C3937 1.334 . S
C3937 H3914 0.950 . S
C3937 C3936 1.334 . S
C3937 C3938 1.287 . S
C3938 C3937 1.287 . S
C3938 C3939 1.524 . S
C3938 H3957 0.913 . S
C3939 H3915 0.950 . S
C3939 C3938 1.524 . S
C3939 C3940 1.415 . S
C3940 H3916 0.950 . S
C3940 C3935 1.363 . S
C3940 C3939 1.415 . S
C3941 H3917 0.951 . S
C3941 C3942 1.366 . S
C3941 C3943 1.388 . S
C3942 C3941 1.366 . S
C3942 C3946 1.385 . S
C3943 H3918 0.951 . S
C3943 C3941 1.388 . S
C3943 C3944 1.366 . S
C3944 C3943 1.366 . S
C3944 C3945 1.414 . S
C3944 C3947 1.499 . S
C3945 H3919 0.950 . S
C3945 C3944 1.414 . S
C3945 C3946 1.374 . S
C3946 H3920 0.950 . S
C3946 C3942 1.385 . S
C3946 C3945 1.374 . S
C3947 C3944 1.499 . S
C3947 C3948 1.373 . S
C3947 C3949 1.389 . S
C3948 H3921 0.950 . S
C3948 C3934 1.377 . S
C3948 C3947 1.373 . S
C3949 C3933 1.377 . S
C3949 C3947 1.389 . S
C3949 C3950 1.524 . S
C3950 C3949 1.524 . S
C3950 C3951 1.397 . S
C3950 C3955 1.363 . S
C3951 H3922 0.950 . S
C3951 C3950 1.397 . S
C3951 C3952 1.345 . S
C3952 H3923 0.938 1_545 S
C3952 C3951 1.345 . S
C3952 C3953 1.289 . S
C3953 C3952 1.289 . S
C3953 C3954 1.524 . S
C3953 H3956 0.999 1_545 S
C3954 H3924 0.950 . S
C3954 C3953 1.524 . S
C3954 C3955 1.415 . S
C3955 H3925 0.950 . S
C3955 C3950 1.363 . S
C3955 C3954 1.415 . S
H3956 C3953 0.999 1_565 S
H3957 C3938 0.913 . S
H3958 C3976 0.951 . S
H3959 C3978 0.951 . S
H3960 C3980 0.950 . S
H3961 C3981 0.950 . S
H3962 C3983 0.950 . S
H3963 C3986 0.950 . S
H3964 C3987 0.950 . S
H3965 C3989 0.950 . S
H3966 C3990 0.950 . S
H3967 C3991 0.951 . S
H3968 C3993 0.951 . S
H3969 C3995 0.950 . S
H3970 C3996 0.950 . S
H3971 C3998 0.950 . S
H3972 C4001 0.950 . S
H3973 C4002 0.950 . S
H3974 C4004 0.950 . S
H3975 C4005 0.950 . S
C3976 H3958 0.951 . S
C3976 C3977 1.366 . S
C3976 C3978 1.388 . S
C3977 C3976 1.366 . S
C3977 C3981 1.385 . S
C3978 H3959 0.951 . S
C3978 C3976 1.388 . S
C3978 C3979 1.366 . S
C3979 C3978 1.366 . S
C3979 C3980 1.414 . S
C3979 C3982 1.499 . S
C3980 H3960 0.950 . S
C3980 C3979 1.414 . S
C3980 C3981 1.374 . S
C3981 H3961 0.950 . S
C3981 C3977 1.385 . S
C3981 C3980 1.374 . S
C3982 C3979 1.499 . S
C3982 C3983 1.373 . S
C3982 C3984 1.389 . S
C3983 H3962 0.950 . S
C3983 C3982 1.373 . S
C3983 C3999 1.377 . S
C3984 C3982 1.389 . S
C3984 C3985 1.524 . S
C3984 C3998 1.377 . S
C3985 C3984 1.524 . S
C3985 C3986 1.397 . S
C3985 C3990 1.363 . S
C3986 H3963 0.950 . S
C3986 C3985 1.397 . S
C3986 C3987 1.334 . S
C3987 H3964 0.950 . S
C3987 C3986 1.334 . S
C3987 C3988 1.287 . S
C3988 C3987 1.287 . S
C3988 C3989 1.524 . S
C3988 H4007 0.913 . S
C3989 H3965 0.950 . S
C3989 C3988 1.524 . S
C3989 C3990 1.415 . S
C3990 H3966 0.950 . S
C3990 C3985 1.363 . S
C3990 C3989 1.415 . S
C3991 H3967 0.951 . S
C3991 C3992 1.366 . S
C3991 C3993 1.388 . S
C3992 C3991 1.366 . S
C3992 C3996 1.385 . S
C3993 H3968 0.951 . S
C3993 C3991 1.388 . S
C3993 C3994 1.366 . S
C3994 C3993 1.366 . S
C3994 C3995 1.414 . S
C3994 C3997 1.499 . S
C3995 H3969 0.950 . S
C3995 C3994 1.414 . S
C3995 C3996 1.374 . S
C3996 H3970 0.950 . S
C3996 C3992 1.385 . S
C3996 C3995 1.374 . S
C3997 C3994 1.499 . S
C3997 C3998 1.373 . S
C3997 C3999 1.389 . S
C3998 H3971 0.950 . S
C3998 C3984 1.377 . S
C3998 C3997 1.373 . S
C3999 C3983 1.377 . S
C3999 C3997 1.389 . S
C3999 C4000 1.524 . S
C4000 C3999 1.524 . S
C4000 C4001 1.397 . S
C4000 C4005 1.363 . S
C4001 H3972 0.950 . S
C4001 C4000 1.397 . S
C4001 C4002 1.334 . S
C4002 H3973 0.950 . S
C4002 C4001 1.334 . S
C4002 C4003 1.287 . S
C4003 C4002 1.287 . S
C4003 C4004 1.524 . S
C4003 H4006 0.999 . S
C4004 H3974 0.950 . S
C4004 C4003 1.524 . S
C4004 C4005 1.415 . S
C4005 H3975 0.950 . S
C4005 C4000 1.363 . S
C4005 C4004 1.415 . S
H4006 C4003 0.999 . S
H4007 C3988 0.913 . S
H4008 C4026 0.951 . S
H4009 C4028 0.950 1_565 S
H4010 C4030 0.950 . S
H4011 C4031 0.950 . S
H4012 C4033 0.950 1_565 S
H4013 C4036 0.950 . S
H4014 C4037 0.950 . S
H4015 C4039 0.950 . S
H4016 C4040 0.950 . S
H4017 C4041 0.951 . S
H4018 C4043 0.951 . S
H4019 C4045 0.950 . S
H4020 C4046 0.950 . S
H4021 C4048 0.950 . S
H4022 C4051 0.950 . S
H4023 C4052 0.950 . S
H4024 C4054 0.950 . S
H4025 C4055 0.950 1_545 S
C4026 H4008 0.951 . S
C4026 C4027 1.366 . S
C4026 C4028 1.385 1_565 S
C4027 C4026 1.366 . S
C4027 C4031 1.385 1_565 S
C4028 H4009 0.950 1_545 S
C4028 C4026 1.385 1_545 S
C4028 C4029 1.369 . S
C4029 C4028 1.369 . S
C4029 C4030 1.414 . S
C4029 C4032 1.499 . S
C4030 H4010 0.950 . S
C4030 C4029 1.414 . S
C4030 C4031 1.374 . S
C4031 H4011 0.950 . S
C4031 C4027 1.385 1_545 S
C4031 C4030 1.374 . S
C4032 C4029 1.499 . S
C4032 C4033 1.373 . S
C4032 C4034 1.389 . S
C4033 H4012 0.950 1_545 S
C4033 C4032 1.373 . S
C4033 C4049 1.377 . S
C4034 C4032 1.389 . S
C4034 C4035 1.524 . S
C4034 C4048 1.377 . S
C4035 C4034 1.524 . S
C4035 C4036 1.397 . S
C4035 C4040 1.363 . S
C4036 H4013 0.950 . S
C4036 C4035 1.397 . S
C4036 C4037 1.334 . S
C4037 H4014 0.950 . S
C4037 C4036 1.334 . S
C4037 C4038 1.287 . S
C4038 C4037 1.287 . S
C4038 C4039 1.524 . S
C4038 H4057 0.913 . S
C4039 H4015 0.950 . S
C4039 C4038 1.524 . S
C4039 C4040 1.415 . S
C4040 H4016 0.950 . S
C4040 C4035 1.363 . S
C4040 C4039 1.415 . S
C4041 H4017 0.951 . S
C4041 C4042 1.366 . S
C4041 C4043 1.388 . S
C4042 C4041 1.366 . S
C4042 C4046 1.385 . S
C4043 H4018 0.951 . S
C4043 C4041 1.388 . S
C4043 C4044 1.366 . S
C4044 C4043 1.366 . S
C4044 C4045 1.414 . S
C4044 C4047 1.499 . S
C4045 H4019 0.950 . S
C4045 C4044 1.414 . S
C4045 C4046 1.374 . S
C4046 H4020 0.950 . S
C4046 C4042 1.385 . S
C4046 C4045 1.374 . S
C4047 C4044 1.499 . S
C4047 C4048 1.373 . S
C4047 C4049 1.389 . S
C4048 H4021 0.950 . S
C4048 C4034 1.377 . S
C4048 C4047 1.373 . S
C4049 C4033 1.377 . S
C4049 C4047 1.389 . S
C4049 C4050 1.524 1_545 S
C4050 C4049 1.524 1_565 S
C4050 C4051 1.397 . S
C4050 C4055 1.363 . S
C4051 H4022 0.950 . S
C4051 C4050 1.397 . S
C4051 C4052 1.334 . S
C4052 H4023 0.950 . S
C4052 C4051 1.334 . S
C4052 C4053 1.287 . S
C4053 C4052 1.287 . S
C4053 C4054 1.524 . S
C4053 H4056 0.999 . S
C4054 H4024 0.950 . S
C4054 C4053 1.524 . S
C4054 C4055 1.415 . S
C4055 H4025 0.950 1_565 S
C4055 C4050 1.363 . S
C4055 C4054 1.415 . S
H4056 C4053 0.999 . S
H4057 C4038 0.913 . S
H4058 C4076 0.951 . S
H4059 C4078 0.951 . S
H4060 C4080 0.950 . S
H4061 C4081 0.950 . S
H4062 C4083 0.950 . S
H4063 C4086 0.950 . S
H4064 C4087 0.950 . S
H4065 C4089 0.950 . S
H4066 C4090 0.950 . S
H4067 C4091 0.951 . S
H4068 C4093 0.951 . S
H4069 C4095 0.950 . S
H4070 C4096 0.950 . S
H4071 C4098 0.950 . S
H4072 C4101 0.950 . S
H4073 C4102 0.950 . S
H4074 C4104 0.950 . S
H4075 C4105 0.950 . S
C4076 H4058 0.951 . S
C4076 C4077 1.366 . S
C4076 C4078 1.388 . S
C4077 C4076 1.366 . S
C4077 C4081 1.385 . S
C4078 H4059 0.951 . S
C4078 C4076 1.388 . S
C4078 C4079 1.366 . S
C4079 C4078 1.366 . S
C4079 C4080 1.414 . S
C4079 C4082 1.499 . S
C4080 H4060 0.950 . S
C4080 C4079 1.414 . S
C4080 C4081 1.374 . S
C4081 H4061 0.950 . S
C4081 C4077 1.385 . S
C4081 C4080 1.374 . S
C4082 C4079 1.499 . S
C4082 C4083 1.373 . S
C4082 C4084 1.389 . S
C4083 H4062 0.950 . S
C4083 C4082 1.373 . S
C4083 C4099 1.377 . S
C4084 C4082 1.389 . S
C4084 C4085 1.524 . S
C4084 C4098 1.377 . S
C4085 C4084 1.524 . S
C4085 C4086 1.397 . S
C4085 C4090 1.363 . S
C4086 H4063 0.950 . S
C4086 C4085 1.397 . S
C4086 C4087 1.334 . S
C4087 H4064 0.950 . S
C4087 C4086 1.334 . S
C4087 C4088 1.287 . S
C4088 C4087 1.287 . S
C4088 C4089 1.524 . S
C4088 H4107 0.913 . S
C4089 H4065 0.950 . S
C4089 C4088 1.524 . S
C4089 C4090 1.415 . S
C4090 H4066 0.950 . S
C4090 C4085 1.363 . S
C4090 C4089 1.415 . S
C4091 H4067 0.951 . S
C4091 C4092 1.366 . S
C4091 C4093 1.388 . S
C4092 C4091 1.366 . S
C4092 C4096 1.385 . S
C4093 H4068 0.951 . S
C4093 C4091 1.388 . S
C4093 C4094 1.366 . S
C4094 C4093 1.366 . S
C4094 C4095 1.414 . S
C4094 C4097 1.499 . S
C4095 H4069 0.950 . S
C4095 C4094 1.414 . S
C4095 C4096 1.374 . S
C4096 H4070 0.950 . S
C4096 C4092 1.385 . S
C4096 C4095 1.374 . S
C4097 C4094 1.499 . S
C4097 C4098 1.373 . S
C4097 C4099 1.389 . S
C4098 H4071 0.950 . S
C4098 C4084 1.377 . S
C4098 C4097 1.373 . S
C4099 C4083 1.377 . S
C4099 C4097 1.389 . S
C4099 C4100 1.524 . S
C4100 C4099 1.524 . S
C4100 C4101 1.397 . S
C4100 C4105 1.363 . S
C4101 H4072 0.950 . S
C4101 C4100 1.397 . S
C4101 C4102 1.334 . S
C4102 H4073 0.950 . S
C4102 C4101 1.334 . S
C4102 C4103 1.287 . S
C4103 C4102 1.287 . S
C4103 C4104 1.524 . S
C4103 H4106 0.999 . S
C4104 H4074 0.950 . S
C4104 C4103 1.524 . S
C4104 C4105 1.415 . S
C4105 H4075 0.950 . S
C4105 C4100 1.363 . S
C4105 C4104 1.415 . S
H4106 C4103 0.999 . S
H4107 C4088 0.913 . S
H4108 C4126 0.951 . S
H4109 C4128 0.951 . S
H4110 C4130 0.950 . S
H4111 C4131 0.950 . S
H4112 C4133 0.950 . S
H4113 C4136 0.950 . S
H4114 C4137 0.950 . S
H4115 C4139 0.950 . S
H4116 C4140 0.950 . S
H4117 C4141 0.951 . S
H4118 C4143 0.951 . S
H4119 C4145 0.950 . S
H4120 C4146 0.950 . S
H4121 C4148 0.982 . S
H4122 C4151 0.950 . S
H4123 C4152 0.950 . S
H4124 C4154 0.950 . S
H4125 C4155 0.950 . S
C4126 H4108 0.951 . S
C4126 C4127 1.366 . S
C4126 C4128 1.388 . S
C4127 C4126 1.366 . S
C4127 C4131 1.385 . S
C4128 H4109 0.951 . S
C4128 C4126 1.388 . S
C4128 C4129 1.366 . S
C4129 C4128 1.366 . S
C4129 C4130 1.414 . S
C4129 C4132 1.499 . S
C4130 H4110 0.950 . S
C4130 C4129 1.414 . S
C4130 C4131 1.374 . S
C4131 H4111 0.950 . S
C4131 C4127 1.385 . S
C4131 C4130 1.374 . S
C4132 C4129 1.499 . S
C4132 C4133 1.373 . S
C4132 C4134 1.389 . S
C4133 H4112 0.950 . S
C4133 C4132 1.373 . S
C4133 C4149 1.377 . S
C4134 C4132 1.389 . S
C4134 C4135 1.524 1_545 S
C4134 C4148 1.377 . S
C4135 C4134 1.524 1_565 S
C4135 C4136 1.397 . S
C4135 C4140 1.363 . S
C4136 H4113 0.950 . S
C4136 C4135 1.397 . S
C4136 C4137 1.334 . S
C4137 H4114 0.950 . S
C4137 C4136 1.334 . S
C4137 C4138 1.287 . S
C4138 C4137 1.287 . S
C4138 C4139 1.524 . S
C4138 H4157 0.913 . S
C4139 H4115 0.950 . S
C4139 C4138 1.524 . S
C4139 C4140 1.415 . S
C4140 H4116 0.950 . S
C4140 C4135 1.363 . S
C4140 C4139 1.415 . S
C4141 H4117 0.951 . S
C4141 C4142 1.366 . S
C4141 C4143 1.388 . S
C4142 C4141 1.366 . S
C4142 C4146 1.385 . S
C4143 H4118 0.951 . S
C4143 C4141 1.388 . S
C4143 C4144 1.366 . S
C4144 C4143 1.366 . S
C4144 C4145 1.414 . S
C4144 C4147 1.499 . S
C4145 H4119 0.950 . S
C4145 C4144 1.414 . S
C4145 C4146 1.374 . S
C4146 H4120 0.950 . S
C4146 C4142 1.385 . S
C4146 C4145 1.374 . S
C4147 C4144 1.499 . S
C4147 C4148 1.373 . S
C4147 C4149 1.389 . S
C4148 H4121 0.982 . S
C4148 C4134 1.377 . S
C4148 C4147 1.373 . S
C4149 C4133 1.377 . S
C4149 C4147 1.389 . S
C4149 C4150 1.524 . S
C4150 C4149 1.524 . S
C4150 C4151 1.397 . S
C4150 C4155 1.363 . S
C4151 H4122 0.950 . S
C4151 C4150 1.397 . S
C4151 C4152 1.334 . S
C4152 H4123 0.950 . S
C4152 C4151 1.334 . S
C4152 C4153 1.287 . S
C4153 C4152 1.287 . S
C4153 C4154 1.524 . S
C4153 H4156 0.999 . S
C4154 H4124 0.950 . S
C4154 C4153 1.524 . S
C4154 C4155 1.415 . S
C4155 H4125 0.950 . S
C4155 C4150 1.363 . S
C4155 C4154 1.415 . S
H4156 C4153 0.999 . S
H4157 C4138 0.913 . S
H4158 C4176 0.951 . S
H4159 C4178 0.951 . S
H4160 C4180 0.950 . S
H4161 C4181 0.950 . S
H4162 C4183 0.950 . S
H4163 C4186 0.950 . S
H4164 C4187 0.950 . S
H4165 C4189 0.950 . S
H4166 C4190 0.950 . S
H4167 C4191 0.951 . S
H4168 C4193 0.951 . S
H4169 C4195 0.950 . S
H4170 C4196 0.950 . S
H4171 C4198 0.950 . S
H4172 C4201 0.950 . S
H4173 C4202 0.950 . S
H4174 C4204 0.950 . S
H4175 C4205 0.950 . S
C4176 H4158 0.951 . S
C4176 C4177 1.366 . S
C4176 C4178 1.388 . S
C4177 C4176 1.366 . S
C4177 C4181 1.385 . S
C4178 H4159 0.951 . S
C4178 C4176 1.388 . S
C4178 C4179 1.366 . S
C4179 C4178 1.366 . S
C4179 C4180 1.414 . S
C4179 C4182 1.499 . S
C4180 H4160 0.950 . S
C4180 C4179 1.414 . S
C4180 C4181 1.374 . S
C4181 H4161 0.950 . S
C4181 C4177 1.385 . S
C4181 C4180 1.374 . S
C4182 C4179 1.499 . S
C4182 C4183 1.373 . S
C4182 C4184 1.389 . S
C4183 H4162 0.950 . S
C4183 C4182 1.373 . S
C4183 C4199 1.377 . S
C4184 C4182 1.389 . S
C4184 C4185 1.524 . S
C4184 C4198 1.377 . S
C4185 C4184 1.524 . S
C4185 C4186 1.397 . S
C4185 C4190 1.363 . S
C4186 H4163 0.950 . S
C4186 C4185 1.397 . S
C4186 C4187 1.334 . S
C4187 H4164 0.950 . S
C4187 C4186 1.334 . S
C4187 C4188 1.287 . S
C4188 C4187 1.287 . S
C4188 C4189 1.524 . S
C4188 H4207 0.913 . S
C4189 H4165 0.950 . S
C4189 C4188 1.524 . S
C4189 C4190 1.415 . S
C4190 H4166 0.950 . S
C4190 C4185 1.363 . S
C4190 C4189 1.415 . S
C4191 H4167 0.951 . S
C4191 C4192 1.366 . S
C4191 C4193 1.388 . S
C4192 C4191 1.366 . S
C4192 C4196 1.385 . S
C4193 H4168 0.951 . S
C4193 C4191 1.388 . S
C4193 C4194 1.366 . S
C4194 C4193 1.366 . S
C4194 C4195 1.414 . S
C4194 C4197 1.499 . S
C4195 H4169 0.950 . S
C4195 C4194 1.414 . S
C4195 C4196 1.374 . S
C4196 H4170 0.950 . S
C4196 C4192 1.385 . S
C4196 C4195 1.374 . S
C4197 C4194 1.499 . S
C4197 C4198 1.373 . S
C4197 C4199 1.389 . S
C4198 H4171 0.950 . S
C4198 C4184 1.377 . S
C4198 C4197 1.373 . S
C4199 C4183 1.377 . S
C4199 C4197 1.389 . S
C4199 C4200 1.524 . S
C4200 C4199 1.524 . S
C4200 C4201 1.397 . S
C4200 C4205 1.363 . S
C4201 H4172 0.950 . S
C4201 C4200 1.397 . S
C4201 C4202 1.334 . S
C4202 H4173 0.950 . S
C4202 C4201 1.334 . S
C4202 C4203 1.287 . S
C4203 C4202 1.287 . S
C4203 C4204 1.524 . S
C4203 H4206 0.999 . S
C4204 H4174 0.950 . S
C4204 C4203 1.524 . S
C4204 C4205 1.415 . S
C4205 H4175 0.950 . S
C4205 C4200 1.363 . S
C4205 C4204 1.415 . S
H4206 C4203 0.999 . S
H4207 C4188 0.913 . S
H4208 C4226 0.951 . S
H4209 C4228 0.951 . S
H4210 C4230 0.958 . S
H4211 C4231 0.950 . S
H4212 C4233 0.950 . S
H4213 C4236 0.950 . S
H4214 C4237 0.950 . S
H4215 C4239 0.950 . S
H4216 C4240 0.950 . S
H4217 C4241 0.951 . S
H4218 C4243 0.962 . S
H4219 C4245 0.950 . S
H4220 C4246 0.950 . S
H4221 C4248 0.950 . S
H4222 C4251 0.950 . S
H4223 C4252 0.950 . S
H4224 C4254 0.950 . S
H4225 C4255 0.950 . S
C4226 H4208 0.951 . S
C4226 C4227 1.366 . S
C4226 C4228 1.388 . S
C4227 C4226 1.366 . S
C4227 C4231 1.385 . S
C4228 H4209 0.951 . S
C4228 C4226 1.388 . S
C4228 C4229 1.366 . S
C4229 C4228 1.366 . S
C4229 C4230 1.414 . S
C4229 C4232 1.499 . S
C4230 H4210 0.958 . S
C4230 C4229 1.414 . S
C4230 C4231 1.374 . S
C4231 H4211 0.950 . S
C4231 C4227 1.385 . S
C4231 C4230 1.374 . S
C4232 C4229 1.499 . S
C4232 C4233 1.373 1_554 S
C4232 C4234 1.389 . S
C4233 H4212 0.950 . S
C4233 C4232 1.373 1_556 S
C4233 C4249 1.377 . S
C4234 C4232 1.389 . S
C4234 C4235 1.524 . S
C4234 C4248 1.377 . S
C4235 C4234 1.524 . S
C4235 C4236 1.397 . S
C4235 C4240 1.363 . S
C4236 H4213 0.950 . S
C4236 C4235 1.397 . S
C4236 C4237 1.334 . S
C4237 H4214 0.950 . S
C4237 C4236 1.334 . S
C4237 C4238 1.287 . S
C4238 C4237 1.287 . S
C4238 C4239 1.524 . S
C4238 H4257 0.913 . S
C4239 H4215 0.950 . S
C4239 C4238 1.524 . S
C4239 C4240 1.415 . S
C4240 H4216 0.950 . S
C4240 C4235 1.363 . S
C4240 C4239 1.415 . S
C4241 H4217 0.951 . S
C4241 C4242 1.366 1_556 S
C4241 C4243 1.388 . S
C4242 C4241 1.366 1_554 S
C4242 C4246 1.385 . S
C4243 H4218 0.962 . S
C4243 C4241 1.388 . S
C4243 C4244 1.354 1_556 S
C4244 C4243 1.354 1_554 S
C4244 C4245 1.414 . S
C4244 C4247 1.499 . S
C4245 H4219 0.950 . S
C4245 C4244 1.414 . S
C4245 C4246 1.374 . S
C4246 H4220 0.950 . S
C4246 C4242 1.385 . S
C4246 C4245 1.374 . S
C4247 C4244 1.499 . S
C4247 C4248 1.373 . S
C4247 C4249 1.389 1_554 S
C4248 H4221 0.950 . S
C4248 C4234 1.377 . S
C4248 C4247 1.373 . S
C4249 C4233 1.377 . S
C4249 C4247 1.389 1_556 S
C4249 C4250 1.524 . S
C4250 C4249 1.524 . S
C4250 C4251 1.397 . S
C4250 C4255 1.363 . S
C4251 H4222 0.950 . S
C4251 C4250 1.397 . S
C4251 C4252 1.334 . S
C4252 H4223 0.950 . S
C4252 C4251 1.334 . S
C4252 C4253 1.287 . S
C4253 C4252 1.287 . S
C4253 C4254 1.524 . S
C4253 H4256 0.999 . S
C4254 H4224 0.950 . S
C4254 C4253 1.524 . S
C4254 C4255 1.415 . S
C4255 H4225 0.950 . S
C4255 C4250 1.363 . S
C4255 C4254 1.415 . S
H4256 C4253 0.999 . S
H4257 C4238 0.913 . S
H4258 C4276 0.951 . S
H4259 C4278 0.951 . S
H4260 C4280 0.950 . S
H4261 C4281 0.950 . S
H4262 C4283 0.950 . S
H4263 C4286 0.950 . S
H4264 C4287 0.950 . S
H4265 C4289 0.950 . S
H4266 C4290 0.950 . S
H4267 C4291 0.951 . S
H4268 C4293 0.951 . S
H4269 C4295 0.950 . S
H4270 C4296 0.950 . S
H4271 C4298 0.950 . S
H4272 C4301 0.950 . S
H4273 C4302 0.950 . S
H4274 C4304 0.950 . S
H4275 C4305 0.950 . S
C4276 H4258 0.951 . S
C4276 C4277 1.366 . S
C4276 C4278 1.388 . S
C4277 C4276 1.366 . S
C4277 C4281 1.385 . S
C4278 H4259 0.951 . S
C4278 C4276 1.388 . S
C4278 C4279 1.366 . S
C4279 C4278 1.366 . S
C4279 C4280 1.414 . S
C4279 C4282 1.499 . S
C4280 H4260 0.950 . S
C4280 C4279 1.414 . S
C4280 C4281 1.374 . S
C4281 H4261 0.950 . S
C4281 C4277 1.385 . S
C4281 C4280 1.374 . S
C4282 C4279 1.499 . S
C4282 C4283 1.373 . S
C4282 C4284 1.389 . S
C4283 H4262 0.950 . S
C4283 C4282 1.373 . S
C4283 C4299 1.377 . S
C4284 C4282 1.389 . S
C4284 C4285 1.524 . S
C4284 C4298 1.377 . S
C4285 C4284 1.524 . S
C4285 C4286 1.397 . S
C4285 C4290 1.363 . S
C4286 H4263 0.950 . S
C4286 C4285 1.397 . S
C4286 C4287 1.334 . S
C4287 H4264 0.950 . S
C4287 C4286 1.334 . S
C4287 C4288 1.287 . S
C4288 C4287 1.287 . S
C4288 C4289 1.524 . S
C4288 H4307 0.913 . S
C4289 H4265 0.950 . S
C4289 C4288 1.524 . S
C4289 C4290 1.415 . S
C4290 H4266 0.950 . S
C4290 C4285 1.363 . S
C4290 C4289 1.415 . S
C4291 H4267 0.951 . S
C4291 C4292 1.366 . S
C4291 C4293 1.388 . S
C4292 C4291 1.366 . S
C4292 C4296 1.385 . S
C4293 H4268 0.951 . S
C4293 C4291 1.388 . S
C4293 C4294 1.366 . S
C4294 C4293 1.366 . S
C4294 C4295 1.414 . S
C4294 C4297 1.499 . S
C4295 H4269 0.950 . S
C4295 C4294 1.414 . S
C4295 C4296 1.374 . S
C4296 H4270 0.950 . S
C4296 C4292 1.385 . S
C4296 C4295 1.374 . S
C4297 C4294 1.499 . S
C4297 C4298 1.373 . S
C4297 C4299 1.389 . S
C4298 H4271 0.950 . S
C4298 C4284 1.377 . S
C4298 C4297 1.373 . S
C4299 C4283 1.377 . S
C4299 C4297 1.389 . S
C4299 C4300 1.528 . S
C4300 C4299 1.528 . S
C4300 C4301 1.395 1_554 S
C4300 C4305 1.361 1_554 S
C4301 H4272 0.950 . S
C4301 C4300 1.395 1_556 S
C4301 C4302 1.334 . S
C4302 H4273 0.950 . S
C4302 C4301 1.334 . S
C4302 C4303 1.287 . S
C4303 C4302 1.287 . S
C4303 C4304 1.524 . S
C4303 H4306 0.999 . S
C4304 H4274 0.950 . S
C4304 C4303 1.524 . S
C4304 C4305 1.415 . S
C4305 H4275 0.950 . S
C4305 C4300 1.361 1_556 S
C4305 C4304 1.415 . S
H4306 C4303 0.999 . S
H4307 C4288 0.913 . S
H4308 C4326 0.951 . S
H4309 C4328 0.951 . S
H4310 C4330 0.950 . S
H4311 C4331 0.950 . S
H4312 C4333 0.950 . S
H4313 C4336 0.950 . S
H4314 C4337 0.950 . S
H4315 C4339 0.950 . S
H4316 C4340 0.950 . S
H4317 C4341 0.951 . S
H4318 C4343 0.951 . S
H4319 C4345 0.950 . S
H4320 C4346 0.950 . S
H4321 C4348 0.950 . S
H4322 C4351 0.950 . S
H4323 C4352 0.950 . S
H4324 C4354 0.950 . S
H4325 C4355 0.950 . S
C4326 H4308 0.951 . S
C4326 C4327 1.366 . S
C4326 C4328 1.388 . S
C4327 C4326 1.366 . S
C4327 C4331 1.385 . S
C4328 H4309 0.951 . S
C4328 C4326 1.388 . S
C4328 C4329 1.366 . S
C4329 C4328 1.366 . S
C4329 C4330 1.414 . S
C4329 C4332 1.499 . S
C4330 H4310 0.950 . S
C4330 C4329 1.414 . S
C4330 C4331 1.374 . S
C4331 H4311 0.950 . S
C4331 C4327 1.385 . S
C4331 C4330 1.374 . S
C4332 C4329 1.499 . S
C4332 C4333 1.373 . S
C4332 C4334 1.389 . S
C4333 H4312 0.950 . S
C4333 C4332 1.373 . S
C4333 C4349 1.377 . S
C4334 C4332 1.389 . S
C4334 C4335 1.524 . S
C4334 C4348 1.377 . S
C4335 C4334 1.524 . S
C4335 C4336 1.397 . S
C4335 C4340 1.363 . S
C4336 H4313 0.950 . S
C4336 C4335 1.397 . S
C4336 C4337 1.334 . S
C4337 H4314 0.950 . S
C4337 C4336 1.334 . S
C4337 C4338 1.287 . S
C4338 C4337 1.287 . S
C4338 C4339 1.524 . S
C4338 H4357 0.913 . S
C4339 H4315 0.950 . S
C4339 C4338 1.524 . S
C4339 C4340 1.415 . S
C4340 H4316 0.950 . S
C4340 C4335 1.363 . S
C4340 C4339 1.415 . S
C4341 H4317 0.951 . S
C4341 C4342 1.366 . S
C4341 C4343 1.388 . S
C4342 C4341 1.366 . S
C4342 C4346 1.385 . S
C4343 H4318 0.951 . S
C4343 C4341 1.388 . S
C4343 C4344 1.366 . S
C4344 C4343 1.366 . S
C4344 C4345 1.414 . S
C4344 C4347 1.499 . S
C4345 H4319 0.950 . S
C4345 C4344 1.414 . S
C4345 C4346 1.374 . S
C4346 H4320 0.950 . S
C4346 C4342 1.385 . S
C4346 C4345 1.374 . S
C4347 C4344 1.499 . S
C4347 C4348 1.373 . S
C4347 C4349 1.389 . S
C4348 H4321 0.950 . S
C4348 C4334 1.377 . S
C4348 C4347 1.373 . S
C4349 C4333 1.377 . S
C4349 C4347 1.389 . S
C4349 C4350 1.524 . S
C4350 C4349 1.524 . S
C4350 C4351 1.397 . S
C4350 C4355 1.363 . S
C4351 H4322 0.950 . S
C4351 C4350 1.397 . S
C4351 C4352 1.334 . S
C4352 H4323 0.950 . S
C4352 C4351 1.334 . S
C4352 C4353 1.287 . S
C4353 C4352 1.287 . S
C4353 C4354 1.524 . S
C4353 H4356 0.999 . S
C4354 H4324 0.950 . S
C4354 C4353 1.524 . S
C4354 C4355 1.415 . S
C4355 H4325 0.950 . S
C4355 C4350 1.363 . S
C4355 C4354 1.415 . S
H4356 C4353 0.999 . S
H4357 C4338 0.913 . S
H4358 C4376 0.951 . S
H4359 C4378 0.951 . S
H4360 C4380 0.950 . S
H4361 C4381 0.950 . S
H4362 C4383 0.950 . S
H4363 C4386 0.950 . S
H4364 C4387 0.950 . S
H4365 C4389 0.950 . S
H4366 C4390 0.950 . S
H4367 C4391 0.951 . S
H4368 C4393 0.951 . S
H4369 C4395 0.950 . S
H4370 C4396 0.950 . S
H4371 C4398 0.950 . S
H4372 C4401 0.950 . S
H4373 C4402 0.950 . S
H4374 C4404 0.950 . S
H4375 C4405 0.950 . S
C4376 H4358 0.951 . S
C4376 C4377 1.366 . S
C4376 C4378 1.388 . S
C4377 C4376 1.366 . S
C4377 C4381 1.385 . S
C4378 H4359 0.951 . S
C4378 C4376 1.388 . S
C4378 C4379 1.366 . S
C4379 C4378 1.366 . S
C4379 C4380 1.414 . S
C4379 C4382 1.499 . S
C4380 H4360 0.950 . S
C4380 C4379 1.414 . S
C4380 C4381 1.374 . S
C4381 H4361 0.950 . S
C4381 C4377 1.385 . S
C4381 C4380 1.374 . S
C4382 C4379 1.499 . S
C4382 C4383 1.373 . S
C4382 C4384 1.389 . S
C4383 H4362 0.950 . S
C4383 C4382 1.373 . S
C4383 C4399 1.377 . S
C4384 C4382 1.389 . S
C4384 C4385 1.524 . S
C4384 C4398 1.377 . S
C4385 C4384 1.524 . S
C4385 C4386 1.397 . S
C4385 C4390 1.363 . S
C4386 H4363 0.950 . S
C4386 C4385 1.397 . S
C4386 C4387 1.334 . S
C4387 H4364 0.950 . S
C4387 C4386 1.334 . S
C4387 C4388 1.287 . S
C4388 C4387 1.287 . S
C4388 C4389 1.524 . S
C4388 H4407 0.913 . S
C4389 H4365 0.950 . S
C4389 C4388 1.524 . S
C4389 C4390 1.415 . S
C4390 H4366 0.950 . S
C4390 C4385 1.363 . S
C4390 C4389 1.415 . S
C4391 H4367 0.951 . S
C4391 C4392 1.366 . S
C4391 C4393 1.388 . S
C4392 C4391 1.366 . S
C4392 C4396 1.385 . S
C4393 H4368 0.951 . S
C4393 C4391 1.388 . S
C4393 C4394 1.366 . S
C4394 C4393 1.366 . S
C4394 C4395 1.414 . S
C4394 C4397 1.499 . S
C4395 H4369 0.950 . S
C4395 C4394 1.414 . S
C4395 C4396 1.374 . S
C4396 H4370 0.950 . S
C4396 C4392 1.385 . S
C4396 C4395 1.374 . S
C4397 C4394 1.499 . S
C4397 C4398 1.373 . S
C4397 C4399 1.389 . S
C4398 H4371 0.950 . S
C4398 C4384 1.377 . S
C4398 C4397 1.373 . S
C4399 C4383 1.377 . S
C4399 C4397 1.389 . S
C4399 C4400 1.524 . S
C4400 C4399 1.524 . S
C4400 C4401 1.397 . S
C4400 C4405 1.363 . S
C4401 H4372 0.950 . S
C4401 C4400 1.397 . S
C4401 C4402 1.334 . S
C4402 H4373 0.950 . S
C4402 C4401 1.334 . S
C4402 C4403 1.287 . S
C4403 C4402 1.287 . S
C4403 C4404 1.524 . S
C4403 H4406 0.999 . S
C4404 H4374 0.950 . S
C4404 C4403 1.524 . S
C4404 C4405 1.415 . S
C4405 H4375 0.950 . S
C4405 C4400 1.363 . S
C4405 C4404 1.415 . S
H4406 C4403 0.999 . S
H4407 C4388 0.913 . S
H4408 C4426 0.951 . S
H4409 C4428 0.953 . S
H4410 C4430 0.950 . S
H4411 C4431 0.950 . S
H4412 C4433 0.950 . S
H4413 C4436 0.950 . S
H4414 C4437 0.950 1_545 S
H4415 C4439 0.950 . S
H4416 C4440 0.950 . S
H4417 C4441 0.951 . S
H4418 C4443 0.951 . S
H4419 C4445 0.950 . S
H4420 C4446 0.950 . S
H4421 C4448 0.950 . S
H4422 C4451 0.950 . S
H4423 C4452 0.950 . S
H4424 C4454 0.950 . S
H4425 C4455 0.950 . S
C4426 H4408 0.951 . S
C4426 C4427 1.366 . S
C4426 C4428 1.435 . S
C4427 C4426 1.366 . S
C4427 C4431 1.385 1_545 S
C4428 H4409 0.953 . S
C4428 C4426 1.435 . S
C4428 C4429 1.318 1_545 S
C4429 C4428 1.318 1_565 S
C4429 C4430 1.414 . S
C4429 C4432 1.499 . S
C4430 H4410 0.950 . S
C4430 C4429 1.414 . S
C4430 C4431 1.374 . S
C4431 H4411 0.950 . S
C4431 C4427 1.385 1_565 S
C4431 C4430 1.374 . S
C4432 C4429 1.499 . S
C4432 C4433 1.373 . S
C4432 C4434 1.389 . S
C4433 H4412 0.950 . S
C4433 C4432 1.373 . S
C4433 C4449 1.377 . S
C4434 C4432 1.389 . S
C4434 C4435 1.524 . S
C4434 C4448 1.377 . S
C4435 C4434 1.524 . S
C4435 C4436 1.397 . S
C4435 C4440 1.363 . S
C4436 H4413 0.950 . S
C4436 C4435 1.397 . S
C4436 C4437 1.335 . S
C4437 H4414 0.950 1_565 S
C4437 C4436 1.335 . S
C4437 C4438 1.286 1_565 S
C4438 C4437 1.286 1_545 S
C4438 C4439 1.524 . S
C4438 H4457 0.913 . S
C4439 H4415 0.950 . S
C4439 C4438 1.524 . S
C4439 C4440 1.415 1_545 S
C4440 H4416 0.950 . S
C4440 C4435 1.363 . S
C4440 C4439 1.415 1_565 S
C4441 H4417 0.951 . S
C4441 C4442 1.366 . S
C4441 C4443 1.388 . S
C4442 C4441 1.366 . S
C4442 C4446 1.385 . S
C4443 H4418 0.951 . S
C4443 C4441 1.388 . S
C4443 C4444 1.366 . S
C4444 C4443 1.366 . S
C4444 C4445 1.414 . S
C4444 C4447 1.499 . S
C4445 H4419 0.950 . S
C4445 C4444 1.414 . S
C4445 C4446 1.374 . S
C4446 H4420 0.950 . S
C4446 C4442 1.385 . S
C4446 C4445 1.374 . S
C4447 C4444 1.499 . S
C4447 C4448 1.373 . S
C4447 C4449 1.389 . S
C4448 H4421 0.950 . S
C4448 C4434 1.377 . S
C4448 C4447 1.373 . S
C4449 C4433 1.377 . S
C4449 C4447 1.389 . S
C4449 C4450 1.524 . S
C4450 C4449 1.524 . S
C4450 C4451 1.397 . S
C4450 C4455 1.363 . S
C4451 H4422 0.950 . S
C4451 C4450 1.397 . S
C4451 C4452 1.334 . S
C4452 H4423 0.950 . S
C4452 C4451 1.334 . S
C4452 C4453 1.287 . S
C4453 C4452 1.287 . S
C4453 C4454 1.524 . S
C4453 H4456 0.999 . S
C4454 H4424 0.950 . S
C4454 C4453 1.524 . S
C4454 C4455 1.415 . S
C4455 H4425 0.950 . S
C4455 C4450 1.363 . S
C4455 C4454 1.415 . S
H4456 C4453 0.999 . S
H4457 C4438 0.913 . S
H4458 C4476 0.951 . S
H4459 C4478 0.951 . S
H4460 C4480 0.950 . S
H4461 C4481 0.950 . S
H4462 C4483 0.950 . S
H4463 C4486 0.950 . S
H4464 C4487 0.950 . S
H4465 C4489 0.950 . S
H4466 C4490 0.950 . S
H4467 C4491 0.951 . S
H4468 C4493 0.951 . S
H4469 C4495 0.950 . S
H4470 C4496 0.950 1_545 S
H4471 C4498 0.950 . S
H4472 C4501 0.950 . S
H4473 C4502 0.950 . S
H4474 C4504 0.950 . S
H4475 C4505 0.950 . S
C4476 H4458 0.951 . S
C4476 C4477 1.366 . S
C4476 C4478 1.388 . S
C4477 C4476 1.366 . S
C4477 C4481 1.385 . S
C4478 H4459 0.951 . S
C4478 C4476 1.388 . S
C4478 C4479 1.366 . S
C4479 C4478 1.366 . S
C4479 C4480 1.414 . S
C4479 C4482 1.499 . S
C4480 H4460 0.950 . S
C4480 C4479 1.414 . S
C4480 C4481 1.374 . S
C4481 H4461 0.950 . S
C4481 C4477 1.385 . S
C4481 C4480 1.374 . S
C4482 C4479 1.499 . S
C4482 C4483 1.373 . S
C4482 C4484 1.389 . S
C4483 H4462 0.950 . S
C4483 C4482 1.373 . S
C4483 C4499 1.377 . S
C4484 C4482 1.389 . S
C4484 C4485 1.524 . S
C4484 C4498 1.377 . S
C4485 C4484 1.524 . S
C4485 C4486 1.397 . S
C4485 C4490 1.363 . S
C4486 H4463 0.950 . S
C4486 C4485 1.397 . S
C4486 C4487 1.334 . S
C4487 H4464 0.950 . S
C4487 C4486 1.334 . S
C4487 C4488 1.287 . S
C4488 C4487 1.287 . S
C4488 C4489 1.524 . S
C4488 H4507 0.913 . S
C4489 H4465 0.950 . S
C4489 C4488 1.524 . S
C4489 C4490 1.415 . S
C4490 H4466 0.950 . S
C4490 C4485 1.363 . S
C4490 C4489 1.415 . S
C4491 H4467 0.951 . S
C4491 C4492 1.366 . S
C4491 C4493 1.388 . S
C4492 C4491 1.366 . S
C4492 C4496 1.385 . S
C4493 H4468 0.951 . S
C4493 C4491 1.388 . S
C4493 C4494 1.366 . S
C4494 C4493 1.366 . S
C4494 C4495 1.414 . S
C4494 C4497 1.499 . S
C4495 H4469 0.950 . S
C4495 C4494 1.414 . S
C4495 C4496 1.374 . S
C4496 H4470 0.950 1_565 S
C4496 C4492 1.385 . S
C4496 C4495 1.374 . S
C4497 C4494 1.499 . S
C4497 C4498 1.373 . S
C4497 C4499 1.389 . S
C4498 H4471 0.950 . S
C4498 C4484 1.377 . S
C4498 C4497 1.373 . S
C4499 C4483 1.377 . S
C4499 C4497 1.389 . S
C4499 C4500 1.524 . S
C4500 C4499 1.524 . S
C4500 C4501 1.397 . S
C4500 C4505 1.363 . S
C4501 H4472 0.950 . S
C4501 C4500 1.397 . S
C4501 C4502 1.334 . S
C4502 H4473 0.950 . S
C4502 C4501 1.334 . S
C4502 C4503 1.287 . S
C4503 C4502 1.287 . S
C4503 C4504 1.524 . S
C4503 H4506 0.999 . S
C4504 H4474 0.950 . S
C4504 C4503 1.524 . S
C4504 C4505 1.415 . S
C4505 H4475 0.950 . S
C4505 C4500 1.363 . S
C4505 C4504 1.415 . S
H4506 C4503 0.999 . S
H4507 C4488 0.913 . S
H4508 C4526 0.951 . S
H4509 C4528 0.951 . S
H4510 C4530 0.950 . S
H4511 C4531 0.950 . S
H4512 C4533 0.950 . S
H4513 C4536 0.950 . S
H4514 C4537 0.950 . S
H4515 C4539 0.950 . S
H4516 C4540 0.950 . S
H4517 C4541 0.951 . S
H4518 C4543 0.951 . S
H4519 C4545 0.950 . S
H4520 C4546 0.950 . S
H4521 C4548 0.950 . S
H4522 C4551 0.950 . S
H4523 C4552 0.950 . S
H4524 C4554 0.950 . S
H4525 C4555 0.950 . S
C4526 H4508 0.951 . S
C4526 C4527 1.366 . S
C4526 C4528 1.388 . S
C4527 C4526 1.366 . S
C4527 C4531 1.385 . S
C4528 H4509 0.951 . S
C4528 C4526 1.388 . S
C4528 C4529 1.366 . S
C4529 C4528 1.366 . S
C4529 C4530 1.414 . S
C4529 C4532 1.499 . S
C4530 H4510 0.950 . S
C4530 C4529 1.414 . S
C4530 C4531 1.374 . S
C4531 H4511 0.950 . S
C4531 C4527 1.385 . S
C4531 C4530 1.374 . S
C4532 C4529 1.499 . S
C4532 C4533 1.373 . S
C4532 C4534 1.389 . S
C4533 H4512 0.950 . S
C4533 C4532 1.373 . S
C4533 C4549 1.377 . S
C4534 C4532 1.389 . S
C4534 C4535 1.524 . S
C4534 C4548 1.377 . S
C4535 C4534 1.524 . S
C4535 C4536 1.397 . S
C4535 C4540 1.363 . S
C4536 H4513 0.950 . S
C4536 C4535 1.397 . S
C4536 C4537 1.334 . S
C4537 H4514 0.950 . S
C4537 C4536 1.334 . S
C4537 C4538 1.287 . S
C4538 C4537 1.287 . S
C4538 C4539 1.524 . S
C4538 H4557 0.913 . S
C4539 H4515 0.950 . S
C4539 C4538 1.524 . S
C4539 C4540 1.415 . S
C4540 H4516 0.950 . S
C4540 C4535 1.363 . S
C4540 C4539 1.415 . S
C4541 H4517 0.951 . S
C4541 C4542 1.366 . S
C4541 C4543 1.388 . S
C4542 C4541 1.366 . S
C4542 C4546 1.385 . S
C4543 H4518 0.951 . S
C4543 C4541 1.388 . S
C4543 C4544 1.366 . S
C4544 C4543 1.366 . S
C4544 C4545 1.414 . S
C4544 C4547 1.499 . S
C4545 H4519 0.950 . S
C4545 C4544 1.414 . S
C4545 C4546 1.374 . S
C4546 H4520 0.950 . S
C4546 C4542 1.385 . S
C4546 C4545 1.374 . S
C4547 C4544 1.499 . S
C4547 C4548 1.373 . S
C4547 C4549 1.389 . S
C4548 H4521 0.950 . S
C4548 C4534 1.377 . S
C4548 C4547 1.373 . S
C4549 C4533 1.377 . S
C4549 C4547 1.389 . S
C4549 C4550 1.524 . S
C4550 C4549 1.524 . S
C4550 C4551 1.397 . S
C4550 C4555 1.363 . S
C4551 H4522 0.950 . S
C4551 C4550 1.397 . S
C4551 C4552 1.334 . S
C4552 H4523 0.950 . S
C4552 C4551 1.334 . S
C4552 C4553 1.287 . S
C4553 C4552 1.287 . S
C4553 C4554 1.524 . S
C4553 H4556 0.999 . S
C4554 H4524 0.950 . S
C4554 C4553 1.524 . S
C4554 C4555 1.415 . S
C4555 H4525 0.950 . S
C4555 C4550 1.363 . S
C4555 C4554 1.415 . S
H4556 C4553 0.999 . S
H4557 C4538 0.913 . S
H4558 C4576 0.951 . S
H4559 C4578 0.951 . S
H4560 C4580 0.950 . S
H4561 C4581 0.950 . S
H4562 C4583 0.950 . S
H4563 C4586 0.950 . S
H4564 C4587 0.950 . S
H4565 C4589 0.950 . S
H4566 C4590 0.950 . S
H4567 C4591 0.951 . S
H4568 C4593 0.951 . S
H4569 C4595 0.950 . S
H4570 C4596 0.950 . S
H4571 C4598 0.950 . S
H4572 C4601 0.950 . S
H4573 C4602 0.950 . S
H4574 C4604 0.950 . S
H4575 C4605 0.950 . S
C4576 H4558 0.951 . S
C4576 C4577 1.366 . S
C4576 C4578 1.388 . S
C4577 C4576 1.366 . S
C4577 C4581 1.385 . S
C4578 H4559 0.951 . S
C4578 C4576 1.388 . S
C4578 C4579 1.366 . S
C4579 C4578 1.366 . S
C4579 C4580 1.414 . S
C4579 C4582 1.499 . S
C4580 H4560 0.950 . S
C4580 C4579 1.414 . S
C4580 C4581 1.374 . S
C4581 H4561 0.950 . S
C4581 C4577 1.385 . S
C4581 C4580 1.374 . S
C4582 C4579 1.499 . S
C4582 C4583 1.373 . S
C4582 C4584 1.389 . S
C4583 H4562 0.950 . S
C4583 C4582 1.373 . S
C4583 C4599 1.377 . S
C4584 C4582 1.389 . S
C4584 C4585 1.524 . S
C4584 C4598 1.377 . S
C4585 C4584 1.524 . S
C4585 C4586 1.397 . S
C4585 C4590 1.363 . S
C4586 H4563 0.950 . S
C4586 C4585 1.397 . S
C4586 C4587 1.334 . S
C4587 H4564 0.950 . S
C4587 C4586 1.334 . S
C4587 C4588 1.287 . S
C4588 C4587 1.287 . S
C4588 C4589 1.524 . S
C4588 H4607 0.913 . S
C4589 H4565 0.950 . S
C4589 C4588 1.524 . S
C4589 C4590 1.415 . S
C4590 H4566 0.950 . S
C4590 C4585 1.363 . S
C4590 C4589 1.415 . S
C4591 H4567 0.951 . S
C4591 C4592 1.366 . S
C4591 C4593 1.388 . S
C4592 C4591 1.366 . S
C4592 C4596 1.385 . S
C4593 H4568 0.951 . S
C4593 C4591 1.388 . S
C4593 C4594 1.366 . S
C4594 C4593 1.366 . S
C4594 C4595 1.414 . S
C4594 C4597 1.499 . S
C4595 H4569 0.950 . S
C4595 C4594 1.414 . S
C4595 C4596 1.374 . S
C4596 H4570 0.950 . S
C4596 C4592 1.385 . S
C4596 C4595 1.374 . S
C4597 C4594 1.499 . S
C4597 C4598 1.373 . S
C4597 C4599 1.389 . S
C4598 H4571 0.950 . S
C4598 C4584 1.377 . S
C4598 C4597 1.373 . S
C4599 C4583 1.377 . S
C4599 C4597 1.389 . S
C4599 C4600 1.524 . S
C4600 C4599 1.524 . S
C4600 C4601 1.397 . S
C4600 C4605 1.363 . S
C4601 H4572 0.950 . S
C4601 C4600 1.397 . S
C4601 C4602 1.334 . S
C4602 H4573 0.950 . S
C4602 C4601 1.334 . S
C4602 C4603 1.287 . S
C4603 C4602 1.287 . S
C4603 C4604 1.524 . S
C4603 H4606 0.999 . S
C4604 H4574 0.950 . S
C4604 C4603 1.524 . S
C4604 C4605 1.415 . S
C4605 H4575 0.950 . S
C4605 C4600 1.363 . S
C4605 C4604 1.415 . S
H4606 C4603 0.999 . S
H4607 C4588 0.913 . S
H4608 C4626 0.951 . S
H4609 C4628 0.951 . S
H4610 C4630 0.950 . S
H4611 C4631 0.950 . S
H4612 C4633 0.950 . S
H4613 C4636 0.950 . S
H4614 C4637 0.950 . S
H4615 C4639 0.950 . S
H4616 C4640 0.950 . S
H4617 C4641 0.951 . S
H4618 C4643 0.951 . S
H4619 C4645 0.950 . S
H4620 C4646 0.950 . S
H4621 C4648 0.950 . S
H4622 C4651 0.950 . S
H4623 C4652 0.950 . S
H4624 C4654 0.950 . S
H4625 C4655 0.950 . S
C4626 H4608 0.951 . S
C4626 C4627 1.366 . S
C4626 C4628 1.388 . S
C4627 C4626 1.366 . S
C4627 C4631 1.385 . S
C4628 H4609 0.951 . S
C4628 C4626 1.388 . S
C4628 C4629 1.366 . S
C4629 C4628 1.366 . S
C4629 C4630 1.414 . S
C4629 C4632 1.499 . S
C4630 H4610 0.950 . S
C4630 C4629 1.414 . S
C4630 C4631 1.374 . S
C4631 H4611 0.950 . S
C4631 C4627 1.385 . S
C4631 C4630 1.374 . S
C4632 C4629 1.499 . S
C4632 C4633 1.373 . S
C4632 C4634 1.389 . S
C4633 H4612 0.950 . S
C4633 C4632 1.373 . S
C4633 C4649 1.377 . S
C4634 C4632 1.389 . S
C4634 C4635 1.524 . S
C4634 C4648 1.377 . S
C4635 C4634 1.524 . S
C4635 C4636 1.397 . S
C4635 C4640 1.363 . S
C4636 H4613 0.950 . S
C4636 C4635 1.397 . S
C4636 C4637 1.334 . S
C4637 H4614 0.950 . S
C4637 C4636 1.334 . S
C4637 C4638 1.287 . S
C4638 C4637 1.287 . S
C4638 C4639 1.524 . S
C4638 H4657 0.913 . S
C4639 H4615 0.950 . S
C4639 C4638 1.524 . S
C4639 C4640 1.415 . S
C4640 H4616 0.950 . S
C4640 C4635 1.363 . S
C4640 C4639 1.415 . S
C4641 H4617 0.951 . S
C4641 C4642 1.366 . S
C4641 C4643 1.388 . S
C4642 C4641 1.366 . S
C4642 C4646 1.385 . S
C4643 H4618 0.951 . S
C4643 C4641 1.388 . S
C4643 C4644 1.366 . S
C4644 C4643 1.366 . S
C4644 C4645 1.414 . S
C4644 C4647 1.499 . S
C4645 H4619 0.950 . S
C4645 C4644 1.414 . S
C4645 C4646 1.374 . S
C4646 H4620 0.950 . S
C4646 C4642 1.385 . S
C4646 C4645 1.374 . S
C4647 C4644 1.499 . S
C4647 C4648 1.373 . S
C4647 C4649 1.389 . S
C4648 H4621 0.950 . S
C4648 C4634 1.377 . S
C4648 C4647 1.373 . S
C4649 C4633 1.377 . S
C4649 C4647 1.389 . S
C4649 C4650 1.524 . S
C4650 C4649 1.524 . S
C4650 C4651 1.397 . S
C4650 C4655 1.363 . S
C4651 H4622 0.950 . S
C4651 C4650 1.397 . S
C4651 C4652 1.334 . S
C4652 H4623 0.950 . S
C4652 C4651 1.334 . S
C4652 C4653 1.287 . S
C4653 C4652 1.287 . S
C4653 C4654 1.524 . S
C4653 H4656 0.999 . S
C4654 H4624 0.950 . S
C4654 C4653 1.524 . S
C4654 C4655 1.415 . S
C4655 H4625 0.950 . S
C4655 C4650 1.363 . S
C4655 C4654 1.415 . S
H4656 C4653 0.999 . S
H4657 C4638 0.913 . S
H4658 C4676 0.951 . S
H4659 C4678 0.951 . S
H4660 C4680 0.950 . S
H4661 C4681 0.950 . S
H4662 C4683 0.950 . S
H4663 C4686 0.950 . S
H4664 C4687 0.950 . S
H4665 C4689 0.950 . S
H4666 C4690 0.950 . S
H4667 C4691 0.951 . S
H4668 C4693 0.951 . S
H4669 C4695 0.950 . S
H4670 C4696 0.950 . S
H4671 C4698 0.950 . S
H4672 C4701 0.950 . S
H4673 C4702 0.950 . S
H4674 C4704 0.950 . S
H4675 C4705 0.950 . S
C4676 H4658 0.951 . S
C4676 C4677 1.366 . S
C4676 C4678 1.388 . S
C4677 C4676 1.366 . S
C4677 C4681 1.385 . S
C4678 H4659 0.951 . S
C4678 C4676 1.388 . S
C4678 C4679 1.366 . S
C4679 C4678 1.366 . S
C4679 C4680 1.414 . S
C4679 C4682 1.499 . S
C4680 H4660 0.950 . S
C4680 C4679 1.414 . S
C4680 C4681 1.374 . S
C4681 H4661 0.950 . S
C4681 C4677 1.385 . S
C4681 C4680 1.374 . S
C4682 C4679 1.499 . S
C4682 C4683 1.373 . S
C4682 C4684 1.389 . S
C4683 H4662 0.950 . S
C4683 C4682 1.373 . S
C4683 C4699 1.377 . S
C4684 C4682 1.389 . S
C4684 C4685 1.524 . S
C4684 C4698 1.377 . S
C4685 C4684 1.524 . S
C4685 C4686 1.397 . S
C4685 C4690 1.363 . S
C4686 H4663 0.950 . S
C4686 C4685 1.397 . S
C4686 C4687 1.334 . S
C4687 H4664 0.950 . S
C4687 C4686 1.334 . S
C4687 C4688 1.287 . S
C4688 C4687 1.287 . S
C4688 C4689 1.524 . S
C4688 H4707 0.913 . S
C4689 H4665 0.950 . S
C4689 C4688 1.524 . S
C4689 C4690 1.415 . S
C4690 H4666 0.950 . S
C4690 C4685 1.363 . S
C4690 C4689 1.415 . S
C4691 H4667 0.951 . S
C4691 C4692 1.366 . S
C4691 C4693 1.388 . S
C4692 C4691 1.366 . S
C4692 C4696 1.385 . S
C4693 H4668 0.951 . S
C4693 C4691 1.388 . S
C4693 C4694 1.366 . S
C4694 C4693 1.366 . S
C4694 C4695 1.414 . S
C4694 C4697 1.499 . S
C4695 H4669 0.950 . S
C4695 C4694 1.414 . S
C4695 C4696 1.374 . S
C4696 H4670 0.950 . S
C4696 C4692 1.385 . S
C4696 C4695 1.374 . S
C4697 C4694 1.499 . S
C4697 C4698 1.373 . S
C4697 C4699 1.389 . S
C4698 H4671 0.950 . S
C4698 C4684 1.377 . S
C4698 C4697 1.373 . S
C4699 C4683 1.377 . S
C4699 C4697 1.389 . S
C4699 C4700 1.524 . S
C4700 C4699 1.524 . S
C4700 C4701 1.397 . S
C4700 C4705 1.363 . S
C4701 H4672 0.950 . S
C4701 C4700 1.397 . S
C4701 C4702 1.334 . S
C4702 H4673 0.950 . S
C4702 C4701 1.334 . S
C4702 C4703 1.287 . S
C4703 C4702 1.287 . S
C4703 C4704 1.524 . S
C4703 H4706 0.999 . S
C4704 H4674 0.950 . S
C4704 C4703 1.524 . S
C4704 C4705 1.415 . S
C4705 H4675 0.950 . S
C4705 C4700 1.363 . S
C4705 C4704 1.415 . S
H4706 C4703 0.999 . S
H4707 C4688 0.913 . S
H4708 C4726 0.999 . S
H4709 C4728 0.951 . S
H4710 C4730 0.950 . S
H4711 C4731 0.950 . S
H4712 C4733 0.938 1_554 S
H4713 C4736 0.950 . S
H4714 C4737 0.950 . S
H4715 C4739 0.950 . S
H4716 C4740 0.950 . S
H4717 C4741 0.951 . S
H4718 C4743 0.951 . S
H4719 C4745 0.953 . S
H4720 C4746 0.950 . S
H4721 C4748 0.950 . S
H4722 C4751 0.950 . S
H4723 C4752 0.950 . S
H4724 C4754 0.950 . S
H4725 C4755 0.950 . S
C4726 H4708 0.999 . S
C4726 C4727 1.366 . S
C4726 C4728 1.388 . S
C4727 C4726 1.366 . S
C4727 C4731 1.385 . S
C4728 H4709 0.951 . S
C4728 C4726 1.388 . S
C4728 C4729 1.366 . S
C4729 C4728 1.366 . S
C4729 C4730 1.414 . S
C4729 C4732 1.499 . S
C4730 H4710 0.950 . S
C4730 C4729 1.414 . S
C4730 C4731 1.374 . S
C4731 H4711 0.950 . S
C4731 C4727 1.385 . S
C4731 C4730 1.374 . S
C4732 C4729 1.499 . S
C4732 C4733 1.373 . S
C4732 C4734 1.389 . S
C4733 H4712 0.938 1_556 S
C4733 C4732 1.373 . S
C4733 C4749 1.367 1_556 S
C4734 C4732 1.389 . S
C4734 C4735 1.524 . S
C4734 C4748 1.377 . S
C4735 C4734 1.524 . S
C4735 C4736 1.397 . S
C4735 C4740 1.363 1_455 S
C4736 H4713 0.950 . S
C4736 C4735 1.397 . S
C4736 C4737 1.334 . S
C4737 H4714 0.950 . S
C4737 C4736 1.334 . S
C4737 C4738 1.287 1_455 S
C4738 C4737 1.287 1_655 S
C4738 C4739 1.524 . S
C4738 H4757 0.913 . S
C4739 H4715 0.950 . S
C4739 C4738 1.524 . S
C4739 C4740 1.415 . S
C4740 H4716 0.950 . S
C4740 C4735 1.363 1_655 S
C4740 C4739 1.415 . S
C4741 H4717 0.951 . S
C4741 C4742 1.366 . S
C4741 C4743 1.388 . S
C4742 C4741 1.366 . S
C4742 C4746 1.385 . S
C4743 H4718 0.951 . S
C4743 C4741 1.388 . S
C4743 C4744 1.366 1_554 S
C4744 C4743 1.366 1_556 S
C4744 C4745 1.415 . S
C4744 C4747 1.499 . S
C4745 H4719 0.953 . S
C4745 C4744 1.415 . S
C4745 C4746 1.371 1_556 S
C4746 H4720 0.950 . S
C4746 C4742 1.385 . S
C4746 C4745 1.371 1_554 S
C4747 C4744 1.499 . S
C4747 C4748 1.373 . S
C4747 C4749 1.356 1_556 S
C4748 H4721 0.950 . S
C4748 C4734 1.377 . S
C4748 C4747 1.373 . S
C4749 C4733 1.367 1_554 S
C4749 C4747 1.356 1_554 S
C4749 C4750 1.575 . S
C4750 C4749 1.575 . S
C4750 C4751 1.397 . S
C4750 C4755 1.363 . S
C4751 H4722 0.950 . S
C4751 C4750 1.397 . S
C4751 C4752 1.334 . S
C4752 H4723 0.950 . S
C4752 C4751 1.334 . S
C4752 C4753 1.287 . S
C4753 C4752 1.287 . S
C4753 C4754 1.524 . S
C4753 H4756 0.999 . S
C4754 H4724 0.950 . S
C4754 C4753 1.524 . S
C4754 C4755 1.415 . S
C4755 H4725 0.950 . S
C4755 C4750 1.363 . S
C4755 C4754 1.415 . S
H4756 C4753 0.999 . S
H4757 C4738 0.913 . S
H4758 C4776 0.951 . S
H4759 C4778 0.951 . S
H4760 C4780 0.950 . S
H4761 C4781 0.950 . S
H4762 C4783 0.950 . S
H4763 C4786 0.950 . S
H4764 C4787 0.950 . S
H4765 C4789 0.950 . S
H4766 C4790 0.950 . S
H4767 C4791 0.951 . S
H4768 C4793 0.951 . S
H4769 C4795 0.950 . S
H4770 C4796 0.950 . S
H4771 C4798 0.950 . S
H4772 C4801 0.950 . S
H4773 C4802 0.950 . S
H4774 C4804 0.950 . S
H4775 C4805 0.950 . S
C4776 H4758 0.951 . S
C4776 C4777 1.366 . S
C4776 C4778 1.388 1_455 S
C4777 C4776 1.366 . S
C4777 C4781 1.385 . S
C4778 H4759 0.951 . S
C4778 C4776 1.388 1_655 S
C4778 C4779 1.366 . S
C4779 C4778 1.366 . S
C4779 C4780 1.414 1_655 S
C4779 C4782 1.499 . S
C4780 H4760 0.950 . S
C4780 C4779 1.414 1_455 S
C4780 C4781 1.374 . S
C4781 H4761 0.950 . S
C4781 C4777 1.385 . S
C4781 C4780 1.374 . S
C4782 C4779 1.499 . S
C4782 C4783 1.373 . S
C4782 C4784 1.389 . S
C4783 H4762 0.950 . S
C4783 C4782 1.373 . S
C4783 C4799 1.377 . S
C4784 C4782 1.389 . S
C4784 C4785 1.524 . S
C4784 C4798 1.377 . S
C4785 C4784 1.524 . S
C4785 C4786 1.397 . S
C4785 C4790 1.363 . S
C4786 H4763 0.950 . S
C4786 C4785 1.397 . S
C4786 C4787 1.334 . S
C4787 H4764 0.950 . S
C4787 C4786 1.334 . S
C4787 C4788 1.287 . S
C4788 C4787 1.287 . S
C4788 C4789 1.524 . S
C4788 H4807 0.913 . S
C4789 H4765 0.950 . S
C4789 C4788 1.524 . S
C4789 C4790 1.415 . S
C4790 H4766 0.950 . S
C4790 C4785 1.363 . S
C4790 C4789 1.415 . S
C4791 H4767 0.951 . S
C4791 C4792 1.366 . S
C4791 C4793 1.388 . S
C4792 C4791 1.366 . S
C4792 C4796 1.385 . S
C4793 H4768 0.951 . S
C4793 C4791 1.388 . S
C4793 C4794 1.366 . S
C4794 C4793 1.366 . S
C4794 C4795 1.414 . S
C4794 C4797 1.499 . S
C4795 H4769 0.950 . S
C4795 C4794 1.414 . S
C4795 C4796 1.374 . S
C4796 H4770 0.950 . S
C4796 C4792 1.385 . S
C4796 C4795 1.374 . S
C4797 C4794 1.499 . S
C4797 C4798 1.373 . S
C4797 C4799 1.389 . S
C4798 H4771 0.950 . S
C4798 C4784 1.377 . S
C4798 C4797 1.373 . S
C4799 C4783 1.377 . S
C4799 C4797 1.389 . S
C4799 C4800 1.524 . S
C4800 C4799 1.524 . S
C4800 C4801 1.397 . S
C4800 C4805 1.363 . S
C4801 H4772 0.950 . S
C4801 C4800 1.397 . S
C4801 C4802 1.334 . S
C4802 H4773 0.950 . S
C4802 C4801 1.334 . S
C4802 C4803 1.287 . S
C4803 C4802 1.287 . S
C4803 C4804 1.524 . S
C4803 H4806 0.999 . S
C4804 H4774 0.950 . S
C4804 C4803 1.524 . S
C4804 C4805 1.415 . S
C4805 H4775 0.950 . S
C4805 C4800 1.363 . S
C4805 C4804 1.415 . S
H4806 C4803 0.999 . S
H4807 C4788 0.913 . S
H4808 C4826 0.951 . S
H4809 C4828 0.951 . S
H4810 C4830 0.950 . S
H4811 C4831 0.950 . S
H4812 C4833 0.950 . S
H4813 C4836 0.950 . S
H4814 C4837 0.950 . S
H4815 C4839 0.950 . S
H4816 C4840 0.950 . S
H4817 C4841 0.951 . S
H4818 C4843 0.951 . S
H4819 C4845 0.950 . S
H4820 C4846 0.950 . S
H4821 C4848 0.950 . S
H4822 C4851 0.950 . S
H4823 C4852 0.950 . S
H4824 C4854 0.950 . S
H4825 C4855 0.950 . S
C4826 H4808 0.951 . S
C4826 C4827 1.366 . S
C4826 C4828 1.388 . S
C4827 C4826 1.366 . S
C4827 C4831 1.385 . S
C4828 H4809 0.951 . S
C4828 C4826 1.388 . S
C4828 C4829 1.366 . S
C4829 C4828 1.366 . S
C4829 C4830 1.414 . S
C4829 C4832 1.499 . S
C4830 H4810 0.950 . S
C4830 C4829 1.414 . S
C4830 C4831 1.374 . S
C4831 H4811 0.950 . S
C4831 C4827 1.385 . S
C4831 C4830 1.374 . S
C4832 C4829 1.499 . S
C4832 C4833 1.373 . S
C4832 C4834 1.389 . S
C4833 H4812 0.950 . S
C4833 C4832 1.373 . S
C4833 C4849 1.377 . S
C4834 C4832 1.389 . S
C4834 C4835 1.524 . S
C4834 C4848 1.377 . S
C4835 C4834 1.524 . S
C4835 C4836 1.397 . S
C4835 C4840 1.363 . S
C4836 H4813 0.950 . S
C4836 C4835 1.397 . S
C4836 C4837 1.334 . S
C4837 H4814 0.950 . S
C4837 C4836 1.334 . S
C4837 C4838 1.287 . S
C4838 C4837 1.287 . S
C4838 C4839 1.524 . S
C4838 H4857 0.913 . S
C4839 H4815 0.950 . S
C4839 C4838 1.524 . S
C4839 C4840 1.415 . S
C4840 H4816 0.950 . S
C4840 C4835 1.363 . S
C4840 C4839 1.415 . S
C4841 H4817 0.951 . S
C4841 C4842 1.366 . S
C4841 C4843 1.388 . S
C4842 C4841 1.366 . S
C4842 C4846 1.385 . S
C4843 H4818 0.951 . S
C4843 C4841 1.388 . S
C4843 C4844 1.366 . S
C4844 C4843 1.366 . S
C4844 C4845 1.414 . S
C4844 C4847 1.499 . S
C4845 H4819 0.950 . S
C4845 C4844 1.414 . S
C4845 C4846 1.374 . S
C4846 H4820 0.950 . S
C4846 C4842 1.385 . S
C4846 C4845 1.374 . S
C4847 C4844 1.499 . S
C4847 C4848 1.373 . S
C4847 C4849 1.389 . S
C4848 H4821 0.950 . S
C4848 C4834 1.377 . S
C4848 C4847 1.373 . S
C4849 C4833 1.377 . S
C4849 C4847 1.389 . S
C4849 C4850 1.524 . S
C4850 C4849 1.524 . S
C4850 C4851 1.397 . S
C4850 C4855 1.363 . S
C4851 H4822 0.950 . S
C4851 C4850 1.397 . S
C4851 C4852 1.334 . S
C4852 H4823 0.950 . S
C4852 C4851 1.334 . S
C4852 C4853 1.287 . S
C4853 C4852 1.287 . S
C4853 C4854 1.524 . S
C4853 H4856 0.999 . S
C4854 H4824 0.950 . S
C4854 C4853 1.524 . S
C4854 C4855 1.415 . S
C4855 H4825 0.950 . S
C4855 C4850 1.363 . S
C4855 C4854 1.415 . S
H4856 C4853 0.999 . S
H4857 C4838 0.913 . S
H4858 C4876 0.951 . S
H4859 C4878 0.951 . S
H4860 C4880 0.950 . S
H4861 C4881 0.950 . S
H4862 C4883 0.949 . S
H4863 C4886 0.950 . S
H4864 C4887 0.950 . S
H4865 C4889 0.950 . S
H4866 C4890 0.950 . S
H4867 C4891 0.951 . S
H4868 C4893 0.951 . S
H4869 C4895 0.950 . S
H4870 C4896 0.950 . S
H4871 C4898 0.950 . S
H4872 C4901 0.950 . S
H4873 C4902 0.950 . S
H4874 C4904 0.950 . S
H4875 C4905 0.950 . S
C4876 H4858 0.951 . S
C4876 C4877 1.366 . S
C4876 C4878 1.388 . S
C4877 C4876 1.366 . S
C4877 C4881 1.385 . S
C4878 H4859 0.951 . S
C4878 C4876 1.388 . S
C4878 C4879 1.366 . S
C4879 C4878 1.366 . S
C4879 C4880 1.414 . S
C4879 C4882 1.499 . S
C4880 H4860 0.950 . S
C4880 C4879 1.414 . S
C4880 C4881 1.374 . S
C4881 H4861 0.950 . S
C4881 C4877 1.385 . S
C4881 C4880 1.374 . S
C4882 C4879 1.499 . S
C4882 C4883 1.372 . S
C4882 C4884 1.389 1_455 S
C4883 H4862 0.949 . S
C4883 C4882 1.372 . S
C4883 C4899 1.379 1_455 S
C4884 C4882 1.389 1_655 S
C4884 C4885 1.524 . S
C4884 C4898 1.377 . S
C4885 C4884 1.524 . S
C4885 C4886 1.397 1_655 S
C4885 C4890 1.363 . S
C4886 H4863 0.950 . S
C4886 C4885 1.397 1_455 S
C4886 C4887 1.334 . S
C4887 H4864 0.950 . S
C4887 C4886 1.334 . S
C4887 C4888 1.306 . S
C4888 C4887 1.306 . S
C4888 C4889 1.492 1_455 S
C4888 H4907 0.931 . S
C4889 H4865 0.950 . S
C4889 C4888 1.492 1_655 S
C4889 C4890 1.415 . S
C4890 H4866 0.950 . S
C4890 C4885 1.363 . S
C4890 C4889 1.415 . S
C4891 H4867 0.951 . S
C4891 C4892 1.366 . S
C4891 C4893 1.388 . S
C4892 C4891 1.366 . S
C4892 C4896 1.385 . S
C4893 H4868 0.951 . S
C4893 C4891 1.388 . S
C4893 C4894 1.366 . S
C4894 C4893 1.366 . S
C4894 C4895 1.414 . S
C4894 C4897 1.499 . S
C4895 H4869 0.950 . S
C4895 C4894 1.414 . S
C4895 C4896 1.374 . S
C4896 H4870 0.950 . S
C4896 C4892 1.385 . S
C4896 C4895 1.374 . S
C4897 C4894 1.499 . S
C4897 C4898 1.373 . S
C4897 C4899 1.389 . S
C4898 H4871 0.950 . S
C4898 C4884 1.377 . S
C4898 C4897 1.373 . S
C4899 C4883 1.379 1_655 S
C4899 C4897 1.389 . S
C4899 C4900 1.524 . S
C4900 C4899 1.524 . S
C4900 C4901 1.397 . S
C4900 C4905 1.363 . S
C4901 H4872 0.950 . S
C4901 C4900 1.397 . S
C4901 C4902 1.334 . S
C4902 H4873 0.950 . S
C4902 C4901 1.334 . S
C4902 C4903 1.287 . S
C4903 C4902 1.287 . S
C4903 C4904 1.524 . S
C4903 H4906 0.999 . S
C4904 H4874 0.950 . S
C4904 C4903 1.524 . S
C4904 C4905 1.415 . S
C4905 H4875 0.950 . S
C4905 C4900 1.363 . S
C4905 C4904 1.415 . S
H4906 C4903 0.999 . S
H4907 C4888 0.931 . S
H4908 C4926 0.951 . S
H4909 C4928 0.951 . S
H4910 C4930 0.950 . S
H4911 C4931 0.950 . S
H4912 C4933 0.950 1_655 S
H4913 C4936 0.950 . S
H4914 C4937 0.950 . S
H4915 C4939 0.950 . S
H4916 C4940 0.950 . S
H4917 C4941 0.951 . S
H4918 C4943 0.951 . S
H4919 C4945 0.950 . S
H4920 C4946 0.950 . S
H4921 C4948 0.950 . S
H4922 C4951 0.950 . S
H4923 C4952 0.950 . S
H4924 C4954 0.950 . S
H4925 C4955 0.950 . S
C4926 H4908 0.951 . S
C4926 C4927 1.366 . S
C4926 C4928 1.388 1_655 S
C4927 C4926 1.366 . S
C4927 C4931 1.385 . S
C4928 H4909 0.951 . S
C4928 C4926 1.388 1_455 S
C4928 C4929 1.366 . S
C4929 C4928 1.366 . S
C4929 C4930 1.414 . S
C4929 C4932 1.499 . S
C4930 H4910 0.950 . S
C4930 C4929 1.414 . S
C4930 C4931 1.374 1_455 S
C4931 H4911 0.950 . S
C4931 C4927 1.385 . S
C4931 C4930 1.374 1_655 S
C4932 C4929 1.499 . S
C4932 C4933 1.373 . S
C4932 C4934 1.389 . S
C4933 H4912 0.950 1_455 S
C4933 C4932 1.373 . S
C4933 C4949 1.377 . S
C4934 C4932 1.389 . S
C4934 C4935 1.524 . S
C4934 C4948 1.377 . S
C4935 C4934 1.524 . S
C4935 C4936 1.397 . S
C4935 C4940 1.363 . S
C4936 H4913 0.950 . S
C4936 C4935 1.397 . S
C4936 C4937 1.334 . S
C4937 H4914 0.950 . S
C4937 C4936 1.334 . S
C4937 C4938 1.287 . S
C4938 C4937 1.287 . S
C4938 C4939 1.524 . S
C4938 H4957 0.913 . S
C4939 H4915 0.950 . S
C4939 C4938 1.524 . S
C4939 C4940 1.415 . S
C4940 H4916 0.950 . S
C4940 C4935 1.363 . S
C4940 C4939 1.415 . S
C4941 H4917 0.951 . S
C4941 C4942 1.366 . S
C4941 C4943 1.388 . S
C4942 C4941 1.366 . S
C4942 C4946 1.385 . S
C4943 H4918 0.951 . S
C4943 C4941 1.388 . S
C4943 C4944 1.366 . S
C4944 C4943 1.366 . S
C4944 C4945 1.414 . S
C4944 C4947 1.499 . S
C4945 H4919 0.950 . S
C4945 C4944 1.414 . S
C4945 C4946 1.374 . S
C4946 H4920 0.950 . S
C4946 C4942 1.385 . S
C4946 C4945 1.374 . S
C4947 C4944 1.499 . S
C4947 C4948 1.373 . S
C4947 C4949 1.389 . S
C4948 H4921 0.950 . S
C4948 C4934 1.377 . S
C4948 C4947 1.373 . S
C4949 C4933 1.377 . S
C4949 C4947 1.389 . S
C4949 C4950 1.524 1_455 S
C4950 C4949 1.524 1_655 S
C4950 C4951 1.397 . S
C4950 C4955 1.363 . S
C4951 H4922 0.950 . S
C4951 C4950 1.397 . S
C4951 C4952 1.334 . S
C4952 H4923 0.950 . S
C4952 C4951 1.334 . S
C4952 C4953 1.287 . S
C4953 C4952 1.287 . S
C4953 C4954 1.524 . S
C4953 H4956 0.999 . S
C4954 H4924 0.950 . S
C4954 C4953 1.524 . S
C4954 C4955 1.415 . S
C4955 H4925 0.950 . S
C4955 C4950 1.363 . S
C4955 C4954 1.415 . S
H4956 C4953 0.999 . S
H4957 C4938 0.913 . S
H4958 C4976 0.951 . S
H4959 C4978 0.951 . S
H4960 C4980 0.950 . S
H4961 C4981 0.950 . S
H4962 C4983 0.950 . S
H4963 C4986 0.950 . S
H4964 C4987 0.950 . S
H4965 C4989 0.950 . S
H4966 C4990 0.950 . S
H4967 C4991 0.951 . S
H4968 C4993 0.951 . S
H4969 C4995 0.950 . S
H4970 C4996 0.950 . S
H4971 C4998 0.950 . S
H4972 C5001 0.950 . S
H4973 C5002 0.950 . S
H4974 C5004 0.950 . S
H4975 C5005 0.950 . S
C4976 H4958 0.951 . S
C4976 C4977 1.366 . S
C4976 C4978 1.388 . S
C4977 C4976 1.366 . S
C4977 C4981 1.385 . S
C4978 H4959 0.951 . S
C4978 C4976 1.388 . S
C4978 C4979 1.366 . S
C4979 C4978 1.366 . S
C4979 C4980 1.414 . S
C4979 C4982 1.499 . S
C4980 H4960 0.950 . S
C4980 C4979 1.414 . S
C4980 C4981 1.374 . S
C4981 H4961 0.950 . S
C4981 C4977 1.385 . S
C4981 C4980 1.374 . S
C4982 C4979 1.499 . S
C4982 C4983 1.373 . S
C4982 C4984 1.389 . S
C4983 H4962 0.950 . S
C4983 C4982 1.373 . S
C4983 C4999 1.377 . S
C4984 C4982 1.389 . S
C4984 C4985 1.524 . S
C4984 C4998 1.377 . S
C4985 C4984 1.524 . S
C4985 C4986 1.397 . S
C4985 C4990 1.363 . S
C4986 H4963 0.950 . S
C4986 C4985 1.397 . S
C4986 C4987 1.334 . S
C4987 H4964 0.950 . S
C4987 C4986 1.334 . S
C4987 C4988 1.287 . S
C4988 C4987 1.287 . S
C4988 C4989 1.524 . S
C4988 H5007 0.913 . S
C4989 H4965 0.950 . S
C4989 C4988 1.524 . S
C4989 C4990 1.415 . S
C4990 H4966 0.950 . S
C4990 C4985 1.363 . S
C4990 C4989 1.415 . S
C4991 H4967 0.951 . S
C4991 C4992 1.366 . S
C4991 C4993 1.388 . S
C4992 C4991 1.366 . S
C4992 C4996 1.385 . S
C4993 H4968 0.951 . S
C4993 C4991 1.388 . S
C4993 C4994 1.366 . S
C4994 C4993 1.366 . S
C4994 C4995 1.414 . S
C4994 C4997 1.499 . S
C4995 H4969 0.950 . S
C4995 C4994 1.414 . S
C4995 C4996 1.374 . S
C4996 H4970 0.950 . S
C4996 C4992 1.385 . S
C4996 C4995 1.374 . S
C4997 C4994 1.499 . S
C4997 C4998 1.373 . S
C4997 C4999 1.389 . S
C4998 H4971 0.950 . S
C4998 C4984 1.377 . S
C4998 C4997 1.373 . S
C4999 C4983 1.377 . S
C4999 C4997 1.389 . S
C4999 C5000 1.524 . S
C5000 C4999 1.524 . S
C5000 C5001 1.397 . S
C5000 C5005 1.363 . S
C5001 H4972 0.950 . S
C5001 C5000 1.397 . S
C5001 C5002 1.334 . S
C5002 H4973 0.950 . S
C5002 C5001 1.334 . S
C5002 C5003 1.287 . S
C5003 C5002 1.287 . S
C5003 C5004 1.524 . S
C5003 H5006 0.999 . S
C5004 H4974 0.950 . S
C5004 C5003 1.524 . S
C5004 C5005 1.415 . S
C5005 H4975 0.950 . S
C5005 C5000 1.363 . S
C5005 C5004 1.415 . S
H5006 C5003 0.999 . S
H5007 C4988 0.913 . S
H5008 C5026 0.951 . S
H5009 C5028 0.951 . S
H5010 C5030 0.950 . S
H5011 C5031 0.950 . S
H5012 C5033 0.950 . S
H5013 C5036 0.950 . S
H5014 C5037 0.950 . S
H5015 C5039 0.950 . S
H5016 C5040 0.950 . S
H5017 C5041 0.951 . S
H5018 C5043 0.951 . S
H5019 C5045 0.950 . S
H5020 C5046 0.950 . S
H5021 C5048 0.950 . S
H5022 C5051 0.950 . S
H5023 C5052 0.950 . S
H5024 C5054 0.950 . S
H5025 C5055 0.950 . S
C5026 H5008 0.951 . S
C5026 C5027 1.366 . S
C5026 C5028 1.388 . S
C5027 C5026 1.366 . S
C5027 C5031 1.385 . S
C5028 H5009 0.951 . S
C5028 C5026 1.388 . S
C5028 C5029 1.366 . S
C5029 C5028 1.366 . S
C5029 C5030 1.414 . S
C5029 C5032 1.499 . S
C5030 H5010 0.950 . S
C5030 C5029 1.414 . S
C5030 C5031 1.374 . S
C5031 H5011 0.950 . S
C5031 C5027 1.385 . S
C5031 C5030 1.374 . S
C5032 C5029 1.499 . S
C5032 C5033 1.373 . S
C5032 C5034 1.389 . S
C5033 H5012 0.950 . S
C5033 C5032 1.373 . S
C5033 C5049 1.377 . S
C5034 C5032 1.389 . S
C5034 C5035 1.524 . S
C5034 C5048 1.377 . S
C5035 C5034 1.524 . S
C5035 C5036 1.397 . S
C5035 C5040 1.363 . S
C5036 H5013 0.950 . S
C5036 C5035 1.397 . S
C5036 C5037 1.334 . S
C5037 H5014 0.950 . S
C5037 C5036 1.334 . S
C5037 C5038 1.287 . S
C5038 C5037 1.287 . S
C5038 C5039 1.524 . S
C5038 H5057 0.913 . S
C5039 H5015 0.950 . S
C5039 C5038 1.524 . S
C5039 C5040 1.415 . S
C5040 H5016 0.950 . S
C5040 C5035 1.363 . S
C5040 C5039 1.415 . S
C5041 H5017 0.951 . S
C5041 C5042 1.366 . S
C5041 C5043 1.388 . S
C5042 C5041 1.366 . S
C5042 C5046 1.385 . S
C5043 H5018 0.951 . S
C5043 C5041 1.388 . S
C5043 C5044 1.366 . S
C5044 C5043 1.366 . S
C5044 C5045 1.414 . S
C5044 C5047 1.499 . S
C5045 H5019 0.950 . S
C5045 C5044 1.414 . S
C5045 C5046 1.374 . S
C5046 H5020 0.950 . S
C5046 C5042 1.385 . S
C5046 C5045 1.374 . S
C5047 C5044 1.499 . S
C5047 C5048 1.373 . S
C5047 C5049 1.389 . S
C5048 H5021 0.950 . S
C5048 C5034 1.377 . S
C5048 C5047 1.373 . S
C5049 C5033 1.377 . S
C5049 C5047 1.389 . S
C5049 C5050 1.524 . S
C5050 C5049 1.524 . S
C5050 C5051 1.397 . S
C5050 C5055 1.363 . S
C5051 H5022 0.950 . S
C5051 C5050 1.397 . S
C5051 C5052 1.334 . S
C5052 H5023 0.950 . S
C5052 C5051 1.334 . S
C5052 C5053 1.287 . S
C5053 C5052 1.287 . S
C5053 C5054 1.524 . S
C5053 H5056 0.999 . S
C5054 H5024 0.950 . S
C5054 C5053 1.524 . S
C5054 C5055 1.415 . S
C5055 H5025 0.950 . S
C5055 C5050 1.363 . S
C5055 C5054 1.415 . S
H5056 C5053 0.999 . S
H5057 C5038 0.913 . S
H5058 C5076 0.951 . S
H5059 C5078 0.951 . S
H5060 C5080 0.950 . S
H5061 C5081 0.950 . S
H5062 C5083 0.950 . S
H5063 C5086 0.950 . S
H5064 C5087 0.950 . S
H5065 C5089 0.950 . S
H5066 C5090 0.950 . S
H5067 C5091 0.951 . S
H5068 C5093 0.951 . S
H5069 C5095 0.950 . S
H5070 C5096 0.950 . S
H5071 C5098 0.950 . S
H5072 C5101 0.950 . S
H5073 C5102 0.950 . S
H5074 C5104 0.950 . S
H5075 C5105 0.950 . S
C5076 H5058 0.951 . S
C5076 C5077 1.366 . S
C5076 C5078 1.388 . S
C5077 C5076 1.366 . S
C5077 C5081 1.385 . S
C5078 H5059 0.951 . S
C5078 C5076 1.388 . S
C5078 C5079 1.366 . S
C5079 C5078 1.366 . S
C5079 C5080 1.414 . S
C5079 C5082 1.499 . S
C5080 H5060 0.950 . S
C5080 C5079 1.414 . S
C5080 C5081 1.374 . S
C5081 H5061 0.950 . S
C5081 C5077 1.385 . S
C5081 C5080 1.374 . S
C5082 C5079 1.499 . S
C5082 C5083 1.373 . S
C5082 C5084 1.389 . S
C5083 H5062 0.950 . S
C5083 C5082 1.373 . S
C5083 C5099 1.377 . S
C5084 C5082 1.389 . S
C5084 C5085 1.524 . S
C5084 C5098 1.377 . S
C5085 C5084 1.524 . S
C5085 C5086 1.397 . S
C5085 C5090 1.363 . S
C5086 H5063 0.950 . S
C5086 C5085 1.397 . S
C5086 C5087 1.334 . S
C5087 H5064 0.950 . S
C5087 C5086 1.334 . S
C5087 C5088 1.287 . S
C5088 C5087 1.287 . S
C5088 C5089 1.524 . S
C5088 H5107 0.913 . S
C5089 H5065 0.950 . S
C5089 C5088 1.524 . S
C5089 C5090 1.415 . S
C5090 H5066 0.950 . S
C5090 C5085 1.363 . S
C5090 C5089 1.415 . S
C5091 H5067 0.951 . S
C5091 C5092 1.366 . S
C5091 C5093 1.388 . S
C5092 C5091 1.366 . S
C5092 C5096 1.385 . S
C5093 H5068 0.951 . S
C5093 C5091 1.388 . S
C5093 C5094 1.366 . S
C5094 C5093 1.366 . S
C5094 C5095 1.414 . S
C5094 C5097 1.499 . S
C5095 H5069 0.950 . S
C5095 C5094 1.414 . S
C5095 C5096 1.374 . S
C5096 H5070 0.950 . S
C5096 C5092 1.385 . S
C5096 C5095 1.374 . S
C5097 C5094 1.499 . S
C5097 C5098 1.373 . S
C5097 C5099 1.389 . S
C5098 H5071 0.950 . S
C5098 C5084 1.377 . S
C5098 C5097 1.373 . S
C5099 C5083 1.377 . S
C5099 C5097 1.389 . S
C5099 C5100 1.524 . S
C5100 C5099 1.524 . S
C5100 C5101 1.397 . S
C5100 C5105 1.363 . S
C5101 H5072 0.950 . S
C5101 C5100 1.397 . S
C5101 C5102 1.334 . S
C5102 H5073 0.950 . S
C5102 C5101 1.334 . S
C5102 C5103 1.287 . S
C5103 C5102 1.287 . S
C5103 C5104 1.524 . S
C5103 H5106 0.999 . S
C5104 H5074 0.950 . S
C5104 C5103 1.524 . S
C5104 C5105 1.415 . S
C5105 H5075 0.950 . S
C5105 C5100 1.363 . S
C5105 C5104 1.415 . S
H5106 C5103 0.999 . S
H5107 C5088 0.913 . S
H5108 C5126 0.951 . S
H5109 C5128 0.951 . S
H5110 C5130 0.950 . S
H5111 C5131 0.950 . S
H5112 C5133 0.950 . S
H5113 C5136 0.950 . S
H5114 C5137 0.950 . S
H5115 C5139 0.950 . S
H5116 C5140 0.950 . S
H5117 C5141 0.951 . S
H5118 C5143 0.951 . S
H5119 C5145 0.950 . S
H5120 C5146 0.950 . S
H5121 C5148 0.950 . S
H5122 C5151 0.950 . S
H5123 C5152 0.950 . S
H5124 C5154 0.950 . S
H5125 C5155 0.950 . S
C5126 H5108 0.951 . S
C5126 C5127 1.366 . S
C5126 C5128 1.388 . S
C5127 C5126 1.366 . S
C5127 C5131 1.385 . S
C5128 H5109 0.951 . S
C5128 C5126 1.388 . S
C5128 C5129 1.366 . S
C5129 C5128 1.366 . S
C5129 C5130 1.414 . S
C5129 C5132 1.499 . S
C5130 H5110 0.950 . S
C5130 C5129 1.414 . S
C5130 C5131 1.374 . S
C5131 H5111 0.950 . S
C5131 C5127 1.385 . S
C5131 C5130 1.374 . S
C5132 C5129 1.499 . S
C5132 C5133 1.373 . S
C5132 C5134 1.389 . S
C5133 H5112 0.950 . S
C5133 C5132 1.373 . S
C5133 C5149 1.377 . S
C5134 C5132 1.389 . S
C5134 C5135 1.524 . S
C5134 C5148 1.377 . S
C5135 C5134 1.524 . S
C5135 C5136 1.397 . S
C5135 C5140 1.363 . S
C5136 H5113 0.950 . S
C5136 C5135 1.397 . S
C5136 C5137 1.334 . S
C5137 H5114 0.950 . S
C5137 C5136 1.334 . S
C5137 C5138 1.287 . S
C5138 C5137 1.287 . S
C5138 C5139 1.524 . S
C5138 H5157 0.913 . S
C5139 H5115 0.950 . S
C5139 C5138 1.524 . S
C5139 C5140 1.415 . S
C5140 H5116 0.950 . S
C5140 C5135 1.363 . S
C5140 C5139 1.415 . S
C5141 H5117 0.951 . S
C5141 C5142 1.366 . S
C5141 C5143 1.388 . S
C5142 C5141 1.366 . S
C5142 C5146 1.385 . S
C5143 H5118 0.951 . S
C5143 C5141 1.388 . S
C5143 C5144 1.366 . S
C5144 C5143 1.366 . S
C5144 C5145 1.414 . S
C5144 C5147 1.499 . S
C5145 H5119 0.950 . S
C5145 C5144 1.414 . S
C5145 C5146 1.374 . S
C5146 H5120 0.950 . S
C5146 C5142 1.385 . S
C5146 C5145 1.374 . S
C5147 C5144 1.499 . S
C5147 C5148 1.373 . S
C5147 C5149 1.389 . S
C5148 H5121 0.950 . S
C5148 C5134 1.377 . S
C5148 C5147 1.373 . S
C5149 C5133 1.377 . S
C5149 C5147 1.389 . S
C5149 C5150 1.524 . S
C5150 C5149 1.524 . S
C5150 C5151 1.397 . S
C5150 C5155 1.363 . S
C5151 H5122 0.950 . S
C5151 C5150 1.397 . S
C5151 C5152 1.334 . S
C5152 H5123 0.950 . S
C5152 C5151 1.334 . S
C5152 C5153 1.287 . S
C5153 C5152 1.287 . S
C5153 C5154 1.524 . S
C5153 H5156 0.999 . S
C5154 H5124 0.950 . S
C5154 C5153 1.524 . S
C5154 C5155 1.415 . S
C5155 H5125 0.950 . S
C5155 C5150 1.363 . S
C5155 C5154 1.415 . S
H5156 C5153 0.999 . S
H5157 C5138 0.913 . S
H5158 C5176 0.951 . S
H5159 C5178 0.951 . S
H5160 C5180 0.950 . S
H5161 C5181 0.950 . S
H5162 C5183 0.950 . S
H5163 C5186 0.950 . S
H5164 C5187 0.950 . S
H5165 C5189 0.950 . S
H5166 C5190 0.950 . S
H5167 C5191 0.951 . S
H5168 C5193 0.951 . S
H5169 C5195 0.950 . S
H5170 C5196 0.950 . S
H5171 C5198 0.950 . S
H5172 C5201 0.950 . S
H5173 C5202 0.950 . S
H5174 C5204 0.950 . S
H5175 C5205 0.950 . S
C5176 H5158 0.951 . S
C5176 C5177 1.366 . S
C5176 C5178 1.388 . S
C5177 C5176 1.366 . S
C5177 C5181 1.385 . S
C5178 H5159 0.951 . S
C5178 C5176 1.388 . S
C5178 C5179 1.366 . S
C5179 C5178 1.366 . S
C5179 C5180 1.414 . S
C5179 C5182 1.499 . S
C5180 H5160 0.950 . S
C5180 C5179 1.414 . S
C5180 C5181 1.374 . S
C5181 H5161 0.950 . S
C5181 C5177 1.385 . S
C5181 C5180 1.374 . S
C5182 C5179 1.499 . S
C5182 C5183 1.373 . S
C5182 C5184 1.389 . S
C5183 H5162 0.950 . S
C5183 C5182 1.373 . S
C5183 C5199 1.377 . S
C5184 C5182 1.389 . S
C5184 C5185 1.524 . S
C5184 C5198 1.377 . S
C5185 C5184 1.524 . S
C5185 C5186 1.397 . S
C5185 C5190 1.363 . S
C5186 H5163 0.950 . S
C5186 C5185 1.397 . S
C5186 C5187 1.334 . S
C5187 H5164 0.950 . S
C5187 C5186 1.334 . S
C5187 C5188 1.287 . S
C5188 C5187 1.287 . S
C5188 C5189 1.524 . S
C5188 H5207 0.913 . S
C5189 H5165 0.950 . S
C5189 C5188 1.524 . S
C5189 C5190 1.415 . S
C5190 H5166 0.950 . S
C5190 C5185 1.363 . S
C5190 C5189 1.415 . S
C5191 H5167 0.951 . S
C5191 C5192 1.366 . S
C5191 C5193 1.388 . S
C5192 C5191 1.366 . S
C5192 C5196 1.385 . S
C5193 H5168 0.951 . S
C5193 C5191 1.388 . S
C5193 C5194 1.366 . S
C5194 C5193 1.366 . S
C5194 C5195 1.414 . S
C5194 C5197 1.499 . S
C5195 H5169 0.950 . S
C5195 C5194 1.414 . S
C5195 C5196 1.374 . S
C5196 H5170 0.950 . S
C5196 C5192 1.385 . S
C5196 C5195 1.374 . S
C5197 C5194 1.499 . S
C5197 C5198 1.373 . S
C5197 C5199 1.389 . S
C5198 H5171 0.950 . S
C5198 C5184 1.377 . S
C5198 C5197 1.373 . S
C5199 C5183 1.377 . S
C5199 C5197 1.389 . S
C5199 C5200 1.524 . S
C5200 C5199 1.524 . S
C5200 C5201 1.397 . S
C5200 C5205 1.363 . S
C5201 H5172 0.950 . S
C5201 C5200 1.397 . S
C5201 C5202 1.334 . S
C5202 H5173 0.950 . S
C5202 C5201 1.334 . S
C5202 C5203 1.287 . S
C5203 C5202 1.287 . S
C5203 C5204 1.524 . S
C5203 H5206 0.999 . S
C5204 H5174 0.950 . S
C5204 C5203 1.524 . S
C5204 C5205 1.415 . S
C5205 H5175 0.950 . S
C5205 C5200 1.363 . S
C5205 C5204 1.415 . S
H5206 C5203 0.999 . S
H5207 C5188 0.913 . S
H5208 C5226 0.951 . S
H5209 C5228 0.951 . S
H5210 C5230 0.950 . S
H5211 C5231 0.950 . S
H5212 C5233 0.950 . S
H5213 C5236 0.950 . S
H5214 C5237 0.950 . S
H5215 C5239 0.950 . S
H5216 C5240 0.950 . S
H5217 C5241 0.951 . S
H5218 C5243 0.951 . S
H5219 C5245 0.950 . S
H5220 C5246 0.950 . S
H5221 C5248 0.950 . S
H5222 C5251 0.950 . S
H5223 C5252 0.950 . S
H5224 C5254 0.950 . S
H5225 C5255 0.950 . S
C5226 H5208 0.951 . S
C5226 C5227 1.366 . S
C5226 C5228 1.388 . S
C5227 C5226 1.366 . S
C5227 C5231 1.385 . S
C5228 H5209 0.951 . S
C5228 C5226 1.388 . S
C5228 C5229 1.366 . S
C5229 C5228 1.366 . S
C5229 C5230 1.414 . S
C5229 C5232 1.499 . S
C5230 H5210 0.950 . S
C5230 C5229 1.414 . S
C5230 C5231 1.374 . S
C5231 H5211 0.950 . S
C5231 C5227 1.385 . S
C5231 C5230 1.374 . S
C5232 C5229 1.499 . S
C5232 C5233 1.373 . S
C5232 C5234 1.389 . S
C5233 H5212 0.950 . S
C5233 C5232 1.373 . S
C5233 C5249 1.377 . S
C5234 C5232 1.389 . S
C5234 C5235 1.524 . S
C5234 C5248 1.377 . S
C5235 C5234 1.524 . S
C5235 C5236 1.397 . S
C5235 C5240 1.363 . S
C5236 H5213 0.950 . S
C5236 C5235 1.397 . S
C5236 C5237 1.334 . S
C5237 H5214 0.950 . S
C5237 C5236 1.334 . S
C5237 C5238 1.287 . S
C5238 C5237 1.287 . S
C5238 C5239 1.524 . S
C5238 H5257 0.913 . S
C5239 H5215 0.950 . S
C5239 C5238 1.524 . S
C5239 C5240 1.415 . S
C5240 H5216 0.950 . S
C5240 C5235 1.363 . S
C5240 C5239 1.415 . S
C5241 H5217 0.951 . S
C5241 C5242 1.366 . S
C5241 C5243 1.388 . S
C5242 C5241 1.366 . S
C5242 C5246 1.385 . S
C5243 H5218 0.951 . S
C5243 C5241 1.388 . S
C5243 C5244 1.366 . S
C5244 C5243 1.366 . S
C5244 C5245 1.414 . S
C5244 C5247 1.499 . S
C5245 H5219 0.950 . S
C5245 C5244 1.414 . S
C5245 C5246 1.374 . S
C5246 H5220 0.950 . S
C5246 C5242 1.385 . S
C5246 C5245 1.374 . S
C5247 C5244 1.499 . S
C5247 C5248 1.373 . S
C5247 C5249 1.389 . S
C5248 H5221 0.950 . S
C5248 C5234 1.377 . S
C5248 C5247 1.373 . S
C5249 C5233 1.377 . S
C5249 C5247 1.389 . S
C5249 C5250 1.524 . S
C5250 C5249 1.524 . S
C5250 C5251 1.397 . S
C5250 C5255 1.363 . S
C5251 H5222 0.950 . S
C5251 C5250 1.397 . S
C5251 C5252 1.334 . S
C5252 H5223 0.950 . S
C5252 C5251 1.334 . S
C5252 C5253 1.287 . S
C5253 C5252 1.287 . S
C5253 C5254 1.524 . S
C5253 H5256 0.999 . S
C5254 H5224 0.950 . S
C5254 C5253 1.524 . S
C5254 C5255 1.415 . S
C5255 H5225 0.950 . S
C5255 C5250 1.363 . S
C5255 C5254 1.415 . S
H5256 C5253 0.999 . S
H5257 C5238 0.913 . S
H5258 C5276 0.951 . S
H5259 C5278 0.951 . S
H5260 C5280 0.950 . S
H5261 C5281 0.950 . S
H5262 C5283 0.950 . S
H5263 C5286 0.950 . S
H5264 C5287 0.950 . S
H5265 C5289 0.950 . S
H5266 C5290 0.950 . S
H5267 C5291 0.951 . S
H5268 C5293 0.951 . S
H5269 C5295 0.950 . S
H5270 C5296 0.950 . S
H5271 C5298 0.950 . S
H5272 C5301 0.950 . S
H5273 C5302 0.950 . S
H5274 C5304 0.950 . S
H5275 C5305 0.950 . S
C5276 H5258 0.951 . S
C5276 C5277 1.366 . S
C5276 C5278 1.388 . S
C5277 C5276 1.366 . S
C5277 C5281 1.385 . S
C5278 H5259 0.951 . S
C5278 C5276 1.388 . S
C5278 C5279 1.366 . S
C5279 C5278 1.366 . S
C5279 C5280 1.414 . S
C5279 C5282 1.499 . S
C5280 H5260 0.950 . S
C5280 C5279 1.414 . S
C5280 C5281 1.374 . S
C5281 H5261 0.950 . S
C5281 C5277 1.385 . S
C5281 C5280 1.374 . S
C5282 C5279 1.499 . S
C5282 C5283 1.373 . S
C5282 C5284 1.389 . S
C5283 H5262 0.950 . S
C5283 C5282 1.373 . S
C5283 C5299 1.377 . S
C5284 C5282 1.389 . S
C5284 C5285 1.524 . S
C5284 C5298 1.377 . S
C5285 C5284 1.524 . S
C5285 C5286 1.397 . S
C5285 C5290 1.363 . S
C5286 H5263 0.950 . S
C5286 C5285 1.397 . S
C5286 C5287 1.334 . S
C5287 H5264 0.950 . S
C5287 C5286 1.334 . S
C5287 C5288 1.287 . S
C5288 C5287 1.287 . S
C5288 C5289 1.524 . S
C5288 H5307 0.913 . S
C5289 H5265 0.950 . S
C5289 C5288 1.524 . S
C5289 C5290 1.415 . S
C5290 H5266 0.950 . S
C5290 C5285 1.363 . S
C5290 C5289 1.415 . S
C5291 H5267 0.951 . S
C5291 C5292 1.366 . S
C5291 C5293 1.388 . S
C5292 C5291 1.366 . S
C5292 C5296 1.385 . S
C5293 H5268 0.951 . S
C5293 C5291 1.388 . S
C5293 C5294 1.366 . S
C5294 C5293 1.366 . S
C5294 C5295 1.414 . S
C5294 C5297 1.499 . S
C5295 H5269 0.950 . S
C5295 C5294 1.414 . S
C5295 C5296 1.374 . S
C5296 H5270 0.950 . S
C5296 C5292 1.385 . S
C5296 C5295 1.374 . S
C5297 C5294 1.499 . S
C5297 C5298 1.373 . S
C5297 C5299 1.389 . S
C5298 H5271 0.950 . S
C5298 C5284 1.377 . S
C5298 C5297 1.373 . S
C5299 C5283 1.377 . S
C5299 C5297 1.389 . S
C5299 C5300 1.524 . S
C5300 C5299 1.524 . S
C5300 C5301 1.397 . S
C5300 C5305 1.363 . S
C5301 H5272 0.950 . S
C5301 C5300 1.397 . S
C5301 C5302 1.334 . S
C5302 H5273 0.950 . S
C5302 C5301 1.334 . S
C5302 C5303 1.287 . S
C5303 C5302 1.287 . S
C5303 C5304 1.524 . S
C5303 H5306 0.999 . S
C5304 H5274 0.950 . S
C5304 C5303 1.524 . S
C5304 C5305 1.415 . S
C5305 H5275 0.950 . S
C5305 C5300 1.363 . S
C5305 C5304 1.415 . S
H5306 C5303 0.999 . S
H5307 C5288 0.913 . S
H5308 C5326 0.951 . S
H5309 C5328 0.951 . S
H5310 C5330 0.950 . S
H5311 C5331 0.950 . S
H5312 C5333 0.950 . S
H5313 C5336 0.950 . S
H5314 C5337 0.950 . S
H5315 C5339 0.950 . S
H5316 C5340 0.950 . S
H5317 C5341 0.951 . S
H5318 C5343 0.951 . S
H5319 C5345 0.950 . S
H5320 C5346 0.950 . S
H5321 C5348 0.950 . S
H5322 C5351 0.950 . S
H5323 C5352 0.950 . S
H5324 C5354 0.950 . S
H5325 C5355 0.950 . S
C5326 H5308 0.951 . S
C5326 C5327 1.366 . S
C5326 C5328 1.388 . S
C5327 C5326 1.366 . S
C5327 C5331 1.385 . S
C5328 H5309 0.951 . S
C5328 C5326 1.388 . S
C5328 C5329 1.366 . S
C5329 C5328 1.366 . S
C5329 C5330 1.414 . S
C5329 C5332 1.499 . S
C5330 H5310 0.950 . S
C5330 C5329 1.414 . S
C5330 C5331 1.374 . S
C5331 H5311 0.950 . S
C5331 C5327 1.385 . S
C5331 C5330 1.374 . S
C5332 C5329 1.499 . S
C5332 C5333 1.373 . S
C5332 C5334 1.389 . S
C5333 H5312 0.950 . S
C5333 C5332 1.373 . S
C5333 C5349 1.377 . S
C5334 C5332 1.389 . S
C5334 C5335 1.524 . S
C5334 C5348 1.377 . S
C5335 C5334 1.524 . S
C5335 C5336 1.397 . S
C5335 C5340 1.363 . S
C5336 H5313 0.950 . S
C5336 C5335 1.397 . S
C5336 C5337 1.334 . S
C5337 H5314 0.950 . S
C5337 C5336 1.334 . S
C5337 C5338 1.287 . S
C5338 C5337 1.287 . S
C5338 C5339 1.524 . S
C5338 H5357 0.913 . S
C5339 H5315 0.950 . S
C5339 C5338 1.524 . S
C5339 C5340 1.415 . S
C5340 H5316 0.950 . S
C5340 C5335 1.363 . S
C5340 C5339 1.415 . S
C5341 H5317 0.951 . S
C5341 C5342 1.366 . S
C5341 C5343 1.388 . S
C5342 C5341 1.366 . S
C5342 C5346 1.385 . S
C5343 H5318 0.951 . S
C5343 C5341 1.388 . S
C5343 C5344 1.366 . S
C5344 C5343 1.366 . S
C5344 C5345 1.414 . S
C5344 C5347 1.499 . S
C5345 H5319 0.950 . S
C5345 C5344 1.414 . S
C5345 C5346 1.374 . S
C5346 H5320 0.950 . S
C5346 C5342 1.385 . S
C5346 C5345 1.374 . S
C5347 C5344 1.499 . S
C5347 C5348 1.373 . S
C5347 C5349 1.389 . S
C5348 H5321 0.950 . S
C5348 C5334 1.377 . S
C5348 C5347 1.373 . S
C5349 C5333 1.377 . S
C5349 C5347 1.389 . S
C5349 C5350 1.524 . S
C5350 C5349 1.524 . S
C5350 C5351 1.397 . S
C5350 C5355 1.363 . S
C5351 H5322 0.950 . S
C5351 C5350 1.397 . S
C5351 C5352 1.334 . S
C5352 H5323 0.950 . S
C5352 C5351 1.334 . S
C5352 C5353 1.287 . S
C5353 C5352 1.287 . S
C5353 C5354 1.524 . S
C5353 H5356 0.999 . S
C5354 H5324 0.950 . S
C5354 C5353 1.524 . S
C5354 C5355 1.415 . S
C5355 H5325 0.950 . S
C5355 C5350 1.363 . S
C5355 C5354 1.415 . S
H5356 C5353 0.999 . S
H5357 C5338 0.913 . S
H5358 C5376 0.951 . S
H5359 C5378 0.951 . S
H5360 C5380 0.950 . S
H5361 C5381 0.950 . S
H5362 C5383 0.950 . S
H5363 C5386 0.950 . S
H5364 C5387 0.950 . S
H5365 C5389 0.950 . S
H5366 C5390 0.950 . S
H5367 C5391 0.951 . S
H5368 C5393 0.951 . S
H5369 C5395 0.950 . S
H5370 C5396 0.950 . S
H5371 C5398 0.950 . S
H5372 C5401 0.950 . S
H5373 C5402 0.950 . S
H5374 C5404 0.950 . S
H5375 C5405 0.950 . S
C5376 H5358 0.951 . S
C5376 C5377 1.366 . S
C5376 C5378 1.388 . S
C5377 C5376 1.366 . S
C5377 C5381 1.385 . S
C5378 H5359 0.951 . S
C5378 C5376 1.388 . S
C5378 C5379 1.366 . S
C5379 C5378 1.366 . S
C5379 C5380 1.414 . S
C5379 C5382 1.499 . S
C5380 H5360 0.950 . S
C5380 C5379 1.414 . S
C5380 C5381 1.374 . S
C5381 H5361 0.950 . S
C5381 C5377 1.385 . S
C5381 C5380 1.374 . S
C5382 C5379 1.499 . S
C5382 C5383 1.373 . S
C5382 C5384 1.389 . S
C5383 H5362 0.950 . S
C5383 C5382 1.373 . S
C5383 C5399 1.377 . S
C5384 C5382 1.389 . S
C5384 C5385 1.524 . S
C5384 C5398 1.377 . S
C5385 C5384 1.524 . S
C5385 C5386 1.397 . S
C5385 C5390 1.363 . S
C5386 H5363 0.950 . S
C5386 C5385 1.397 . S
C5386 C5387 1.334 . S
C5387 H5364 0.950 . S
C5387 C5386 1.334 . S
C5387 C5388 1.287 . S
C5388 C5387 1.287 . S
C5388 C5389 1.524 . S
C5388 H5407 0.913 . S
C5389 H5365 0.950 . S
C5389 C5388 1.524 . S
C5389 C5390 1.415 . S
C5390 H5366 0.950 . S
C5390 C5385 1.363 . S
C5390 C5389 1.415 . S
C5391 H5367 0.951 . S
C5391 C5392 1.366 . S
C5391 C5393 1.388 . S
C5392 C5391 1.366 . S
C5392 C5396 1.385 . S
C5393 H5368 0.951 . S
C5393 C5391 1.388 . S
C5393 C5394 1.366 . S
C5394 C5393 1.366 . S
C5394 C5395 1.414 . S
C5394 C5397 1.499 . S
C5395 H5369 0.950 . S
C5395 C5394 1.414 . S
C5395 C5396 1.374 . S
C5396 H5370 0.950 . S
C5396 C5392 1.385 . S
C5396 C5395 1.374 . S
C5397 C5394 1.499 . S
C5397 C5398 1.373 . S
C5397 C5399 1.389 . S
C5398 H5371 0.950 . S
C5398 C5384 1.377 . S
C5398 C5397 1.373 . S
C5399 C5383 1.377 . S
C5399 C5397 1.389 . S
C5399 C5400 1.524 . S
C5400 C5399 1.524 . S
C5400 C5401 1.397 . S
C5400 C5405 1.363 . S
C5401 H5372 0.950 . S
C5401 C5400 1.397 . S
C5401 C5402 1.334 . S
C5402 H5373 0.950 . S
C5402 C5401 1.334 . S
C5402 C5403 1.287 . S
C5403 C5402 1.287 . S
C5403 C5404 1.524 . S
C5403 H5406 0.999 . S
C5404 H5374 0.950 . S
C5404 C5403 1.524 . S
C5404 C5405 1.415 . S
C5405 H5375 0.950 . S
C5405 C5400 1.363 . S
C5405 C5404 1.415 . S
H5406 C5403 0.999 . S
H5407 C5388 0.913 . S
H5408 C5426 0.951 . S
H5409 C5428 0.951 . S
H5410 C5430 0.950 . S
H5411 C5431 0.950 . S
H5412 C5433 0.950 . S
H5413 C5436 0.950 . S
H5414 C5437 0.950 . S
H5415 C5439 0.950 . S
H5416 C5440 0.950 . S
H5417 C5441 0.951 . S
H5418 C5443 0.951 . S
H5419 C5445 0.950 . S
H5420 C5446 0.950 . S
H5421 C5448 0.950 . S
H5422 C5451 0.950 . S
H5423 C5452 0.950 . S
H5424 C5454 0.950 . S
H5425 C5455 0.950 . S
C5426 H5408 0.951 . S
C5426 C5427 1.366 . S
C5426 C5428 1.388 . S
C5427 C5426 1.366 . S
C5427 C5431 1.385 . S
C5428 H5409 0.951 . S
C5428 C5426 1.388 . S
C5428 C5429 1.366 . S
C5429 C5428 1.366 . S
C5429 C5430 1.414 . S
C5429 C5432 1.499 . S
C5430 H5410 0.950 . S
C5430 C5429 1.414 . S
C5430 C5431 1.374 . S
C5431 H5411 0.950 . S
C5431 C5427 1.385 . S
C5431 C5430 1.374 . S
C5432 C5429 1.499 . S
C5432 C5433 1.373 . S
C5432 C5434 1.389 . S
C5433 H5412 0.950 . S
C5433 C5432 1.373 . S
C5433 C5449 1.377 . S
C5434 C5432 1.389 . S
C5434 C5435 1.524 . S
C5434 C5448 1.377 . S
C5435 C5434 1.524 . S
C5435 C5436 1.397 . S
C5435 C5440 1.363 . S
C5436 H5413 0.950 . S
C5436 C5435 1.397 . S
C5436 C5437 1.334 . S
C5437 H5414 0.950 . S
C5437 C5436 1.334 . S
C5437 C5438 1.287 . S
C5438 C5437 1.287 . S
C5438 C5439 1.524 . S
C5438 H5457 0.913 . S
C5439 H5415 0.950 . S
C5439 C5438 1.524 . S
C5439 C5440 1.415 . S
C5440 H5416 0.950 . S
C5440 C5435 1.363 . S
C5440 C5439 1.415 . S
C5441 H5417 0.951 . S
C5441 C5442 1.366 . S
C5441 C5443 1.388 . S
C5442 C5441 1.366 . S
C5442 C5446 1.385 . S
C5443 H5418 0.951 . S
C5443 C5441 1.388 . S
C5443 C5444 1.366 . S
C5444 C5443 1.366 . S
C5444 C5445 1.414 . S
C5444 C5447 1.499 . S
C5445 H5419 0.950 . S
C5445 C5444 1.414 . S
C5445 C5446 1.374 . S
C5446 H5420 0.950 . S
C5446 C5442 1.385 . S
C5446 C5445 1.374 . S
C5447 C5444 1.499 . S
C5447 C5448 1.373 . S
C5447 C5449 1.389 . S
C5448 H5421 0.950 . S
C5448 C5434 1.377 . S
C5448 C5447 1.373 . S
C5449 C5433 1.377 . S
C5449 C5447 1.389 . S
C5449 C5450 1.524 . S
C5450 C5449 1.524 . S
C5450 C5451 1.397 . S
C5450 C5455 1.363 . S
C5451 H5422 0.950 . S
C5451 C5450 1.397 . S
C5451 C5452 1.334 . S
C5452 H5423 0.950 . S
C5452 C5451 1.334 . S
C5452 C5453 1.287 . S
C5453 C5452 1.287 . S
C5453 C5454 1.524 . S
C5453 H5456 0.999 . S
C5454 H5424 0.950 . S
C5454 C5453 1.524 . S
C5454 C5455 1.415 . S
C5455 H5425 0.950 . S
C5455 C5450 1.363 . S
C5455 C5454 1.415 . S
H5456 C5453 0.999 . S
H5457 C5438 0.913 . S
H5458 C5476 0.951 . S
H5459 C5478 0.951 . S
H5460 C5480 0.950 . S
H5461 C5481 0.950 . S
H5462 C5483 0.950 . S
H5463 C5486 0.950 . S
H5464 C5487 0.950 . S
H5465 C5489 0.950 . S
H5466 C5490 0.950 . S
H5467 C5491 0.951 . S
H5468 C5493 0.951 . S
H5469 C5495 0.950 . S
H5470 C5496 0.950 . S
H5471 C5498 0.950 . S
H5472 C5501 0.950 . S
H5473 C5502 0.950 . S
H5474 C5504 0.950 . S
H5475 C5505 0.950 . S
C5476 H5458 0.951 . S
C5476 C5477 1.366 . S
C5476 C5478 1.388 . S
C5477 C5476 1.366 . S
C5477 C5481 1.385 . S
C5478 H5459 0.951 . S
C5478 C5476 1.388 . S
C5478 C5479 1.366 . S
C5479 C5478 1.366 . S
C5479 C5480 1.414 . S
C5479 C5482 1.499 . S
C5480 H5460 0.950 . S
C5480 C5479 1.414 . S
C5480 C5481 1.374 . S
C5481 H5461 0.950 . S
C5481 C5477 1.385 . S
C5481 C5480 1.374 . S
C5482 C5479 1.499 . S
C5482 C5483 1.373 . S
C5482 C5484 1.389 . S
C5483 H5462 0.950 . S
C5483 C5482 1.373 . S
C5483 C5499 1.377 . S
C5484 C5482 1.389 . S
C5484 C5485 1.524 . S
C5484 C5498 1.377 . S
C5485 C5484 1.524 . S
C5485 C5486 1.397 . S
C5485 C5490 1.363 . S
C5486 H5463 0.950 . S
C5486 C5485 1.397 . S
C5486 C5487 1.334 . S
C5487 H5464 0.950 . S
C5487 C5486 1.334 . S
C5487 C5488 1.287 . S
C5488 C5487 1.287 . S
C5488 C5489 1.524 . S
C5488 H5507 0.913 . S
C5489 H5465 0.950 . S
C5489 C5488 1.524 . S
C5489 C5490 1.415 . S
C5490 H5466 0.950 . S
C5490 C5485 1.363 . S
C5490 C5489 1.415 . S
C5491 H5467 0.951 . S
C5491 C5492 1.366 . S
C5491 C5493 1.388 . S
C5492 C5491 1.366 . S
C5492 C5496 1.385 . S
C5493 H5468 0.951 . S
C5493 C5491 1.388 . S
C5493 C5494 1.366 . S
C5494 C5493 1.366 . S
C5494 C5495 1.414 . S
C5494 C5497 1.499 . S
C5495 H5469 0.950 . S
C5495 C5494 1.414 . S
C5495 C5496 1.374 . S
C5496 H5470 0.950 . S
C5496 C5492 1.385 . S
C5496 C5495 1.374 . S
C5497 C5494 1.499 . S
C5497 C5498 1.373 . S
C5497 C5499 1.389 . S
C5498 H5471 0.950 . S
C5498 C5484 1.377 . S
C5498 C5497 1.373 . S
C5499 C5483 1.377 . S
C5499 C5497 1.389 . S
C5499 C5500 1.524 . S
C5500 C5499 1.524 . S
C5500 C5501 1.397 . S
C5500 C5505 1.363 . S
C5501 H5472 0.950 . S
C5501 C5500 1.397 . S
C5501 C5502 1.334 . S
C5502 H5473 0.950 . S
C5502 C5501 1.334 . S
C5502 C5503 1.287 . S
C5503 C5502 1.287 . S
C5503 C5504 1.524 . S
C5503 H5506 0.999 . S
C5504 H5474 0.950 . S
C5504 C5503 1.524 . S
C5504 C5505 1.415 . S
C5505 H5475 0.950 . S
C5505 C5500 1.363 . S
C5505 C5504 1.415 . S
H5506 C5503 0.999 . S
H5507 C5488 0.913 . S
H5508 C5526 0.951 . S
H5509 C5528 0.951 . S
H5510 C5530 0.950 . S
H5511 C5531 0.950 . S
H5512 C5533 0.950 . S
H5513 C5536 0.950 . S
H5514 C5537 0.950 . S
H5515 C5539 0.950 . S
H5516 C5540 0.950 . S
H5517 C5541 0.951 . S
H5518 C5543 0.951 . S
H5519 C5545 0.950 . S
H5520 C5546 0.950 . S
H5521 C5548 0.950 . S
H5522 C5551 0.950 . S
H5523 C5552 0.950 . S
H5524 C5554 0.950 . S
H5525 C5555 0.950 . S
C5526 H5508 0.951 . S
C5526 C5527 1.366 . S
C5526 C5528 1.388 . S
C5527 C5526 1.366 . S
C5527 C5531 1.385 . S
C5528 H5509 0.951 . S
C5528 C5526 1.388 . S
C5528 C5529 1.366 . S
C5529 C5528 1.366 . S
C5529 C5530 1.414 . S
C5529 C5532 1.499 . S
C5530 H5510 0.950 . S
C5530 C5529 1.414 . S
C5530 C5531 1.374 . S
C5531 H5511 0.950 . S
C5531 C5527 1.385 . S
C5531 C5530 1.374 . S
C5532 C5529 1.499 . S
C5532 C5533 1.373 . S
C5532 C5534 1.389 . S
C5533 H5512 0.950 . S
C5533 C5532 1.373 . S
C5533 C5549 1.377 . S
C5534 C5532 1.389 . S
C5534 C5535 1.524 . S
C5534 C5548 1.377 . S
C5535 C5534 1.524 . S
C5535 C5536 1.397 . S
C5535 C5540 1.363 . S
C5536 H5513 0.950 . S
C5536 C5535 1.397 . S
C5536 C5537 1.334 . S
C5537 H5514 0.950 . S
C5537 C5536 1.334 . S
C5537 C5538 1.287 . S
C5538 C5537 1.287 . S
C5538 C5539 1.524 . S
C5538 H5557 0.913 . S
C5539 H5515 0.950 . S
C5539 C5538 1.524 . S
C5539 C5540 1.415 . S
C5540 H5516 0.950 . S
C5540 C5535 1.363 . S
C5540 C5539 1.415 . S
C5541 H5517 0.951 . S
C5541 C5542 1.366 . S
C5541 C5543 1.388 . S
C5542 C5541 1.366 . S
C5542 C5546 1.385 . S
C5543 H5518 0.951 . S
C5543 C5541 1.388 . S
C5543 C5544 1.366 . S
C5544 C5543 1.366 . S
C5544 C5545 1.414 . S
C5544 C5547 1.499 . S
C5545 H5519 0.950 . S
C5545 C5544 1.414 . S
C5545 C5546 1.374 . S
C5546 H5520 0.950 . S
C5546 C5542 1.385 . S
C5546 C5545 1.374 . S
C5547 C5544 1.499 . S
C5547 C5548 1.373 . S
C5547 C5549 1.389 . S
C5548 H5521 0.950 . S
C5548 C5534 1.377 . S
C5548 C5547 1.373 . S
C5549 C5533 1.377 . S
C5549 C5547 1.389 . S
C5549 C5550 1.524 . S
C5550 C5549 1.524 . S
C5550 C5551 1.397 . S
C5550 C5555 1.363 . S
C5551 H5522 0.950 . S
C5551 C5550 1.397 . S
C5551 C5552 1.334 . S
C5552 H5523 0.950 . S
C5552 C5551 1.334 . S
C5552 C5553 1.287 . S
C5553 C5552 1.287 . S
C5553 C5554 1.524 . S
C5553 H5556 0.999 . S
C5554 H5524 0.950 . S
C5554 C5553 1.524 . S
C5554 C5555 1.415 . S
C5555 H5525 0.950 . S
C5555 C5550 1.363 . S
C5555 C5554 1.415 . S
H5556 C5553 0.999 . S
H5557 C5538 0.913 . S
H5558 C5576 0.951 . S
H5559 C5578 0.951 . S
H5560 C5580 0.950 . S
H5561 C5581 0.950 . S
H5562 C5583 0.950 . S
H5563 C5586 0.950 . S
H5564 C5587 0.950 . S
H5565 C5589 0.949 1_554 S
H5566 C5590 0.950 . S
H5567 C5591 0.951 . S
H5568 C5593 0.965 . S
H5569 C5595 0.950 . S
H5570 C5596 0.950 . S
H5571 C5598 0.950 . S
H5572 C5601 0.950 . S
H5573 C5602 0.950 . S
H5574 C5604 0.950 . S
H5575 C5605 0.950 . S
C5576 H5558 0.951 . S
C5576 C5577 1.366 . S
C5576 C5578 1.388 . S
C5577 C5576 1.366 . S
C5577 C5581 1.385 . S
C5578 H5559 0.951 . S
C5578 C5576 1.388 . S
C5578 C5579 1.366 . S
C5579 C5578 1.366 . S
C5579 C5580 1.414 . S
C5579 C5582 1.499 . S
C5580 H5560 0.950 . S
C5580 C5579 1.414 . S
C5580 C5581 1.374 . S
C5581 H5561 0.950 . S
C5581 C5577 1.385 . S
C5581 C5580 1.374 . S
C5582 C5579 1.499 . S
C5582 C5583 1.373 . S
C5582 C5584 1.389 . S
C5583 H5562 0.950 . S
C5583 C5582 1.373 . S
C5583 C5599 1.377 . S
C5584 C5582 1.389 . S
C5584 C5585 1.555 1_565 S
C5584 C5598 1.377 1_565 S
C5585 C5584 1.555 1_545 S
C5585 C5586 1.357 1_544 S
C5585 C5590 1.371 . S
C5586 H5563 0.950 . S
C5586 C5585 1.357 1_566 S
C5586 C5587 1.334 . S
C5587 H5564 0.950 . S
C5587 C5586 1.334 . S
C5587 C5588 1.287 1_565 S
C5588 C5587 1.287 1_545 S
C5588 C5589 1.524 . S
C5588 H5607 0.913 . S
C5589 H5565 0.949 1_556 S
C5589 C5588 1.524 . S
C5589 C5590 1.415 1_556 S
C5590 H5566 0.950 . S
C5590 C5585 1.371 . S
C5590 C5589 1.415 1_554 S
C5591 H5567 0.951 . S
C5591 C5592 1.366 . S
C5591 C5593 1.383 1_545 S
C5592 C5591 1.366 . S
C5592 C5596 1.385 . S
C5593 H5568 0.965 . S
C5593 C5591 1.383 1_565 S
C5593 C5594 1.356 1_565 S
C5594 C5593 1.356 1_545 S
C5594 C5595 1.414 . S
C5594 C5597 1.499 1_545 S
C5595 H5569 0.950 . S
C5595 C5594 1.414 . S
C5595 C5596 1.374 . S
C5596 H5570 0.950 . S
C5596 C5592 1.385 . S
C5596 C5595 1.374 . S
C5597 C5594 1.499 1_565 S
C5597 C5598 1.373 1_565 S
C5597 C5599 1.389 . S
C5598 H5571 0.950 . S
C5598 C5584 1.377 1_545 S
C5598 C5597 1.373 1_545 S
C5599 C5583 1.377 . S
C5599 C5597 1.389 . S
C5599 C5600 1.524 . S
C5600 C5599 1.524 . S
C5600 C5601 1.397 . S
C5600 C5605 1.363 . S
C5601 H5572 0.950 . S
C5601 C5600 1.397 . S
C5601 C5602 1.334 . S
C5602 H5573 0.950 . S
C5602 C5601 1.334 . S
C5602 C5603 1.287 . S
C5603 C5602 1.287 . S
C5603 C5604 1.524 . S
C5603 H5606 0.999 . S
C5604 H5574 0.950 . S
C5604 C5603 1.524 . S
C5604 C5605 1.415 . S
C5605 H5575 0.950 . S
C5605 C5600 1.363 . S
C5605 C5604 1.415 . S
H5606 C5603 0.999 . S
H5607 C5588 0.913 . S
H5608 C5626 0.951 . S
H5609 C5628 0.951 . S
H5610 C5630 0.950 . S
H5611 C5631 0.950 . S
H5612 C5633 0.950 . S
H5613 C5636 0.950 . S
H5614 C5637 0.950 . S
H5615 C5639 0.950 . S
H5616 C5640 0.950 . S
H5617 C5641 0.951 . S
H5618 C5643 0.951 . S
H5619 C5645 0.950 . S
H5620 C5646 0.950 . S
H5621 C5648 0.950 . S
H5622 C5651 0.950 . S
H5623 C5652 0.950 . S
H5624 C5654 0.950 . S
H5625 C5655 0.950 . S
C5626 H5608 0.951 . S
C5626 C5627 1.366 . S
C5626 C5628 1.388 . S
C5627 C5626 1.366 . S
C5627 C5631 1.385 . S
C5628 H5609 0.951 . S
C5628 C5626 1.388 . S
C5628 C5629 1.366 . S
C5629 C5628 1.366 . S
C5629 C5630 1.414 . S
C5629 C5632 1.499 . S
C5630 H5610 0.950 . S
C5630 C5629 1.414 . S
C5630 C5631 1.374 . S
C5631 H5611 0.950 . S
C5631 C5627 1.385 . S
C5631 C5630 1.374 . S
C5632 C5629 1.499 . S
C5632 C5633 1.373 . S
C5632 C5634 1.389 . S
C5633 H5612 0.950 . S
C5633 C5632 1.373 . S
C5633 C5649 1.377 . S
C5634 C5632 1.389 . S
C5634 C5635 1.524 . S
C5634 C5648 1.377 . S
C5635 C5634 1.524 . S
C5635 C5636 1.397 . S
C5635 C5640 1.363 . S
C5636 H5613 0.950 . S
C5636 C5635 1.397 . S
C5636 C5637 1.334 . S
C5637 H5614 0.950 . S
C5637 C5636 1.334 . S
C5637 C5638 1.287 . S
C5638 C5637 1.287 . S
C5638 C5639 1.524 . S
C5638 H5657 0.913 . S
C5639 H5615 0.950 . S
C5639 C5638 1.524 . S
C5639 C5640 1.415 . S
C5640 H5616 0.950 . S
C5640 C5635 1.363 . S
C5640 C5639 1.415 . S
C5641 H5617 0.951 . S
C5641 C5642 1.366 . S
C5641 C5643 1.388 . S
C5642 C5641 1.366 . S
C5642 C5646 1.385 . S
C5643 H5618 0.951 . S
C5643 C5641 1.388 . S
C5643 C5644 1.366 . S
C5644 C5643 1.366 . S
C5644 C5645 1.414 . S
C5644 C5647 1.499 . S
C5645 H5619 0.950 . S
C5645 C5644 1.414 . S
C5645 C5646 1.374 . S
C5646 H5620 0.950 . S
C5646 C5642 1.385 . S
C5646 C5645 1.374 . S
C5647 C5644 1.499 . S
C5647 C5648 1.373 . S
C5647 C5649 1.389 . S
C5648 H5621 0.950 . S
C5648 C5634 1.377 . S
C5648 C5647 1.373 . S
C5649 C5633 1.377 . S
C5649 C5647 1.389 . S
C5649 C5650 1.524 . S
C5650 C5649 1.524 . S
C5650 C5651 1.397 . S
C5650 C5655 1.363 . S
C5651 H5622 0.950 . S
C5651 C5650 1.397 . S
C5651 C5652 1.334 . S
C5652 H5623 0.950 . S
C5652 C5651 1.334 . S
C5652 C5653 1.287 . S
C5653 C5652 1.287 . S
C5653 C5654 1.524 . S
C5653 H5656 0.999 . S
C5654 H5624 0.950 . S
C5654 C5653 1.524 . S
C5654 C5655 1.415 . S
C5655 H5625 0.950 . S
C5655 C5650 1.363 . S
C5655 C5654 1.415 . S
H5656 C5653 0.999 . S
H5657 C5638 0.913 . S
H5658 C5676 0.951 . S
H5659 C5678 0.951 . S
H5660 C5680 0.950 . S
H5661 C5681 0.950 . S
H5662 C5683 0.950 . S
H5663 C5686 0.950 . S
H5664 C5687 0.950 . S
H5665 C5689 0.950 . S
H5666 C5690 0.931 1_556 S
H5667 C5691 0.951 . S
H5668 C5693 0.951 . S
H5669 C5695 0.947 . S
H5670 C5696 0.950 . S
H5671 C5698 0.950 . S
H5672 C5701 0.950 . S
H5673 C5702 0.950 . S
H5674 C5704 0.950 . S
H5675 C5705 0.950 . S
C5676 H5658 0.951 . S
C5676 C5677 1.369 . S
C5676 C5678 1.388 . S
C5677 C5676 1.369 . S
C5677 C5681 1.379 1_556 S
C5678 H5659 0.951 . S
C5678 C5676 1.388 . S
C5678 C5679 1.366 1_556 S
C5679 C5678 1.366 1_554 S
C5679 C5680 1.414 . S
C5679 C5682 1.499 . S
C5680 H5660 0.950 . S
C5680 C5679 1.414 . S
C5680 C5681 1.374 . S
C5681 H5661 0.950 . S
C5681 C5677 1.379 1_554 S
C5681 C5680 1.374 . S
C5682 C5679 1.499 . S
C5682 C5683 1.373 . S
C5682 C5684 1.389 . S
C5683 H5662 0.950 . S
C5683 C5682 1.373 . S
C5683 C5699 1.377 . S
C5684 C5682 1.389 . S
C5684 C5685 1.524 . S
C5684 C5698 1.377 . S
C5685 C5684 1.524 . S
C5685 C5686 1.397 . S
C5685 C5690 1.363 . S
C5686 H5663 0.950 . S
C5686 C5685 1.397 . S
C5686 C5687 1.334 . S
C5687 H5664 0.950 . S
C5687 C5686 1.334 . S
C5687 C5688 1.287 . S
C5688 C5687 1.287 . S
C5688 C5689 1.524 . S
C5688 H5707 0.913 . S
C5689 H5665 0.950 . S
C5689 C5688 1.524 . S
C5689 C5690 1.415 . S
C5690 H5666 0.931 1_554 S
C5690 C5685 1.363 . S
C5690 C5689 1.415 . S
C5691 H5667 0.951 . S
C5691 C5692 1.366 . S
C5691 C5693 1.388 . S
C5692 C5691 1.366 . S
C5692 C5696 1.385 . S
C5693 H5668 0.951 . S
C5693 C5691 1.388 . S
C5693 C5694 1.366 . S
C5694 C5693 1.366 . S
C5694 C5695 1.414 . S
C5694 C5697 1.499 . S
C5695 H5669 0.947 . S
C5695 C5694 1.414 . S
C5695 C5696 1.374 . S
C5696 H5670 0.950 . S
C5696 C5692 1.385 . S
C5696 C5695 1.374 . S
C5697 C5694 1.499 . S
C5697 C5698 1.373 . S
C5697 C5699 1.389 . S
C5698 H5671 0.950 . S
C5698 C5684 1.377 . S
C5698 C5697 1.373 . S
C5699 C5683 1.377 . S
C5699 C5697 1.389 . S
C5699 C5700 1.524 . S
C5700 C5699 1.524 . S
C5700 C5701 1.397 1_554 S
C5700 C5705 1.363 . S
C5701 H5672 0.950 . S
C5701 C5700 1.397 1_556 S
C5701 C5702 1.334 . S
C5702 H5673 0.950 . S
C5702 C5701 1.334 . S
C5702 C5703 1.287 . S
C5703 C5702 1.287 . S
C5703 C5704 1.524 1_556 S
C5703 H5706 0.999 . S
C5704 H5674 0.950 . S
C5704 C5703 1.524 1_554 S
C5704 C5705 1.415 . S
C5705 H5675 0.950 . S
C5705 C5700 1.363 . S
C5705 C5704 1.415 . S
H5706 C5703 0.999 . S
H5707 C5688 0.913 . S
H5708 C5726 0.951 . S
H5709 C5728 0.951 . S
H5710 C5730 0.950 . S
H5711 C5731 0.950 . S
H5712 C5733 0.950 . S
H5713 C5736 0.950 . S
H5714 C5737 0.950 . S
H5715 C5739 0.950 . S
H5716 C5740 0.950 . S
H5717 C5741 0.951 . S
H5718 C5743 0.951 . S
H5719 C5745 0.950 . S
H5720 C5746 0.950 . S
H5721 C5748 0.950 . S
H5722 C5751 0.950 . S
H5723 C5752 0.950 . S
H5724 C5754 0.950 . S
H5725 C5755 0.950 . S
C5726 H5708 0.951 . S
C5726 C5727 1.366 . S
C5726 C5728 1.388 . S
C5727 C5726 1.366 . S
C5727 C5731 1.385 . S
C5728 H5709 0.951 . S
C5728 C5726 1.388 . S
C5728 C5729 1.366 . S
C5729 C5728 1.366 . S
C5729 C5730 1.414 . S
C5729 C5732 1.499 . S
C5730 H5710 0.950 . S
C5730 C5729 1.414 . S
C5730 C5731 1.374 . S
C5731 H5711 0.950 . S
C5731 C5727 1.385 . S
C5731 C5730 1.374 . S
C5732 C5729 1.499 . S
C5732 C5733 1.373 . S
C5732 C5734 1.389 . S
C5733 H5712 0.950 . S
C5733 C5732 1.373 . S
C5733 C5749 1.377 . S
C5734 C5732 1.389 . S
C5734 C5735 1.524 . S
C5734 C5748 1.377 . S
C5735 C5734 1.524 . S
C5735 C5736 1.397 . S
C5735 C5740 1.363 . S
C5736 H5713 0.950 . S
C5736 C5735 1.397 . S
C5736 C5737 1.334 . S
C5737 H5714 0.950 . S
C5737 C5736 1.334 . S
C5737 C5738 1.287 . S
C5738 C5737 1.287 . S
C5738 C5739 1.524 . S
C5738 H5757 0.913 . S
C5739 H5715 0.950 . S
C5739 C5738 1.524 . S
C5739 C5740 1.415 . S
C5740 H5716 0.950 . S
C5740 C5735 1.363 . S
C5740 C5739 1.415 . S
C5741 H5717 0.951 . S
C5741 C5742 1.366 . S
C5741 C5743 1.388 . S
C5742 C5741 1.366 . S
C5742 C5746 1.385 . S
C5743 H5718 0.951 . S
C5743 C5741 1.388 . S
C5743 C5744 1.366 . S
C5744 C5743 1.366 . S
C5744 C5745 1.414 . S
C5744 C5747 1.499 . S
C5745 H5719 0.950 . S
C5745 C5744 1.414 . S
C5745 C5746 1.374 . S
C5746 H5720 0.950 . S
C5746 C5742 1.385 . S
C5746 C5745 1.374 . S
C5747 C5744 1.499 . S
C5747 C5748 1.373 . S
C5747 C5749 1.389 . S
C5748 H5721 0.950 . S
C5748 C5734 1.377 . S
C5748 C5747 1.373 . S
C5749 C5733 1.377 . S
C5749 C5747 1.389 . S
C5749 C5750 1.524 . S
C5750 C5749 1.524 . S
C5750 C5751 1.397 . S
C5750 C5755 1.363 . S
C5751 H5722 0.950 . S
C5751 C5750 1.397 . S
C5751 C5752 1.334 . S
C5752 H5723 0.950 . S
C5752 C5751 1.334 . S
C5752 C5753 1.287 . S
C5753 C5752 1.287 . S
C5753 C5754 1.524 . S
C5753 H5756 0.999 . S
C5754 H5724 0.950 . S
C5754 C5753 1.524 . S
C5754 C5755 1.415 . S
C5755 H5725 0.950 . S
C5755 C5750 1.363 . S
C5755 C5754 1.415 . S
H5756 C5753 0.999 . S
H5757 C5738 0.913 . S
H5758 C5776 0.951 . S
H5759 C5778 0.951 . S
H5760 C5780 0.950 . S
H5761 C5781 0.950 . S
H5762 C5783 0.950 . S
H5763 C5786 0.950 . S
H5764 C5787 0.950 . S
H5765 C5789 0.950 . S
H5766 C5790 0.950 . S
H5767 C5791 0.951 . S
H5768 C5793 0.951 . S
H5769 C5795 0.950 . S
H5770 C5796 0.950 . S
H5771 C5798 0.950 . S
H5772 C5801 0.950 . S
H5773 C5802 0.950 . S
H5774 C5804 0.950 . S
H5775 C5805 0.950 . S
C5776 H5758 0.951 . S
C5776 C5777 1.366 . S
C5776 C5778 1.388 . S
C5777 C5776 1.366 . S
C5777 C5781 1.385 . S
C5778 H5759 0.951 . S
C5778 C5776 1.388 . S
C5778 C5779 1.366 . S
C5779 C5778 1.366 . S
C5779 C5780 1.414 . S
C5779 C5782 1.499 . S
C5780 H5760 0.950 . S
C5780 C5779 1.414 . S
C5780 C5781 1.374 . S
C5781 H5761 0.950 . S
C5781 C5777 1.385 . S
C5781 C5780 1.374 . S
C5782 C5779 1.499 . S
C5782 C5783 1.373 . S
C5782 C5784 1.389 . S
C5783 H5762 0.950 . S
C5783 C5782 1.373 . S
C5783 C5799 1.377 . S
C5784 C5782 1.389 . S
C5784 C5785 1.524 . S
C5784 C5798 1.377 . S
C5785 C5784 1.524 . S
C5785 C5786 1.397 . S
C5785 C5790 1.363 . S
C5786 H5763 0.950 . S
C5786 C5785 1.397 . S
C5786 C5787 1.334 . S
C5787 H5764 0.950 . S
C5787 C5786 1.334 . S
C5787 C5788 1.287 . S
C5788 C5787 1.287 . S
C5788 C5789 1.524 . S
C5788 H5807 0.913 . S
C5789 H5765 0.950 . S
C5789 C5788 1.524 . S
C5789 C5790 1.415 . S
C5790 H5766 0.950 . S
C5790 C5785 1.363 . S
C5790 C5789 1.415 . S
C5791 H5767 0.951 . S
C5791 C5792 1.366 . S
C5791 C5793 1.388 . S
C5792 C5791 1.366 . S
C5792 C5796 1.385 . S
C5793 H5768 0.951 . S
C5793 C5791 1.388 . S
C5793 C5794 1.366 . S
C5794 C5793 1.366 . S
C5794 C5795 1.414 . S
C5794 C5797 1.499 . S
C5795 H5769 0.950 . S
C5795 C5794 1.414 . S
C5795 C5796 1.374 . S
C5796 H5770 0.950 . S
C5796 C5792 1.385 . S
C5796 C5795 1.374 . S
C5797 C5794 1.499 . S
C5797 C5798 1.373 . S
C5797 C5799 1.389 . S
C5798 H5771 0.950 . S
C5798 C5784 1.377 . S
C5798 C5797 1.373 . S
C5799 C5783 1.377 . S
C5799 C5797 1.389 . S
C5799 C5800 1.524 . S
C5800 C5799 1.524 . S
C5800 C5801 1.397 . S
C5800 C5805 1.363 . S
C5801 H5772 0.950 . S
C5801 C5800 1.397 . S
C5801 C5802 1.334 . S
C5802 H5773 0.950 . S
C5802 C5801 1.334 . S
C5802 C5803 1.287 . S
C5803 C5802 1.287 . S
C5803 C5804 1.524 . S
C5803 H5806 0.999 . S
C5804 H5774 0.950 . S
C5804 C5803 1.524 . S
C5804 C5805 1.415 . S
C5805 H5775 0.950 . S
C5805 C5800 1.363 . S
C5805 C5804 1.415 . S
H5806 C5803 0.999 . S
H5807 C5788 0.913 . S
H5808 C5826 0.951 . S
H5809 C5828 0.951 . S
H5810 C5830 0.950 . S
H5811 C5831 0.950 . S
H5812 C5833 0.950 . S
H5813 C5836 0.950 . S
H5814 C5837 0.950 . S
H5815 C5839 0.950 . S
H5816 C5840 0.950 . S
H5817 C5841 0.951 . S
H5818 C5843 0.951 . S
H5819 C5845 0.950 . S
H5820 C5846 0.950 . S
H5821 C5848 0.950 . S
H5822 C5851 0.950 . S
H5823 C5852 0.950 . S
H5824 C5854 0.950 . S
H5825 C5855 0.950 . S
C5826 H5808 0.951 . S
C5826 C5827 1.366 . S
C5826 C5828 1.388 . S
C5827 C5826 1.366 . S
C5827 C5831 1.385 . S
C5828 H5809 0.951 . S
C5828 C5826 1.388 . S
C5828 C5829 1.366 . S
C5829 C5828 1.366 . S
C5829 C5830 1.414 . S
C5829 C5832 1.499 . S
C5830 H5810 0.950 . S
C5830 C5829 1.414 . S
C5830 C5831 1.374 . S
C5831 H5811 0.950 . S
C5831 C5827 1.385 . S
C5831 C5830 1.374 . S
C5832 C5829 1.499 . S
C5832 C5833 1.373 . S
C5832 C5834 1.389 . S
C5833 H5812 0.950 . S
C5833 C5832 1.373 . S
C5833 C5849 1.377 . S
C5834 C5832 1.389 . S
C5834 C5835 1.524 . S
C5834 C5848 1.377 . S
C5835 C5834 1.524 . S
C5835 C5836 1.397 . S
C5835 C5840 1.363 . S
C5836 H5813 0.950 . S
C5836 C5835 1.397 . S
C5836 C5837 1.334 . S
C5837 H5814 0.950 . S
C5837 C5836 1.334 . S
C5837 C5838 1.287 . S
C5838 C5837 1.287 . S
C5838 C5839 1.524 . S
C5838 H5857 0.913 . S
C5839 H5815 0.950 . S
C5839 C5838 1.524 . S
C5839 C5840 1.415 . S
C5840 H5816 0.950 . S
C5840 C5835 1.363 . S
C5840 C5839 1.415 . S
C5841 H5817 0.951 . S
C5841 C5842 1.366 . S
C5841 C5843 1.388 . S
C5842 C5841 1.366 . S
C5842 C5846 1.385 . S
C5843 H5818 0.951 . S
C5843 C5841 1.388 . S
C5843 C5844 1.366 . S
C5844 C5843 1.366 . S
C5844 C5845 1.414 . S
C5844 C5847 1.499 . S
C5845 H5819 0.950 . S
C5845 C5844 1.414 . S
C5845 C5846 1.374 . S
C5846 H5820 0.950 . S
C5846 C5842 1.385 . S
C5846 C5845 1.374 . S
C5847 C5844 1.499 . S
C5847 C5848 1.373 . S
C5847 C5849 1.389 . S
C5848 H5821 0.950 . S
C5848 C5834 1.377 . S
C5848 C5847 1.373 . S
C5849 C5833 1.377 . S
C5849 C5847 1.389 . S
C5849 C5850 1.524 . S
C5850 C5849 1.524 . S
C5850 C5851 1.397 . S
C5850 C5855 1.363 . S
C5851 H5822 0.950 . S
C5851 C5850 1.397 . S
C5851 C5852 1.334 . S
C5852 H5823 0.950 . S
C5852 C5851 1.334 . S
C5852 C5853 1.287 . S
C5853 C5852 1.287 . S
C5853 C5854 1.524 . S
C5853 H5856 0.999 . S
C5854 H5824 0.950 . S
C5854 C5853 1.524 . S
C5854 C5855 1.415 . S
C5855 H5825 0.950 . S
C5855 C5850 1.363 . S
C5855 C5854 1.415 . S
H5856 C5853 0.999 . S
H5857 C5838 0.913 . S
H5858 C5876 0.951 . S
H5859 C5878 0.951 . S
H5860 C5880 0.950 . S
H5861 C5881 0.950 . S
H5862 C5883 0.950 . S
H5863 C5886 0.950 . S
H5864 C5887 0.950 . S
H5865 C5889 0.950 . S
H5866 C5890 0.950 . S
H5867 C5891 0.951 . S
H5868 C5893 0.951 . S
H5869 C5895 0.950 . S
H5870 C5896 0.950 . S
H5871 C5898 0.950 . S
H5872 C5901 0.950 . S
H5873 C5902 0.950 . S
H5874 C5904 0.950 . S
H5875 C5905 0.950 . S
C5876 H5858 0.951 . S
C5876 C5877 1.366 . S
C5876 C5878 1.388 . S
C5877 C5876 1.366 . S
C5877 C5881 1.385 . S
C5878 H5859 0.951 . S
C5878 C5876 1.388 . S
C5878 C5879 1.366 . S
C5879 C5878 1.366 . S
C5879 C5880 1.414 . S
C5879 C5882 1.499 . S
C5880 H5860 0.950 . S
C5880 C5879 1.414 . S
C5880 C5881 1.374 . S
C5881 H5861 0.950 . S
C5881 C5877 1.385 . S
C5881 C5880 1.374 . S
C5882 C5879 1.499 . S
C5882 C5883 1.373 . S
C5882 C5884 1.389 . S
C5883 H5862 0.950 . S
C5883 C5882 1.373 . S
C5883 C5899 1.377 . S
C5884 C5882 1.389 . S
C5884 C5885 1.524 . S
C5884 C5898 1.377 . S
C5885 C5884 1.524 . S
C5885 C5886 1.397 . S
C5885 C5890 1.363 . S
C5886 H5863 0.950 . S
C5886 C5885 1.397 . S
C5886 C5887 1.334 . S
C5887 H5864 0.950 . S
C5887 C5886 1.334 . S
C5887 C5888 1.287 . S
C5888 C5887 1.287 . S
C5888 C5889 1.524 . S
C5888 H5907 0.913 . S
C5889 H5865 0.950 . S
C5889 C5888 1.524 . S
C5889 C5890 1.415 . S
C5890 H5866 0.950 . S
C5890 C5885 1.363 . S
C5890 C5889 1.415 . S
C5891 H5867 0.951 . S
C5891 C5892 1.366 . S
C5891 C5893 1.388 . S
C5892 C5891 1.366 . S
C5892 C5896 1.385 . S
C5893 H5868 0.951 . S
C5893 C5891 1.388 . S
C5893 C5894 1.366 . S
C5894 C5893 1.366 . S
C5894 C5895 1.414 . S
C5894 C5897 1.499 . S
C5895 H5869 0.950 . S
C5895 C5894 1.414 . S
C5895 C5896 1.374 . S
C5896 H5870 0.950 . S
C5896 C5892 1.385 . S
C5896 C5895 1.374 . S
C5897 C5894 1.499 . S
C5897 C5898 1.373 . S
C5897 C5899 1.389 . S
C5898 H5871 0.950 . S
C5898 C5884 1.377 . S
C5898 C5897 1.373 . S
C5899 C5883 1.377 . S
C5899 C5897 1.389 . S
C5899 C5900 1.524 . S
C5900 C5899 1.524 . S
C5900 C5901 1.397 . S
C5900 C5905 1.363 . S
C5901 H5872 0.950 . S
C5901 C5900 1.397 . S
C5901 C5902 1.334 . S
C5902 H5873 0.950 . S
C5902 C5901 1.334 . S
C5902 C5903 1.287 . S
C5903 C5902 1.287 . S
C5903 C5904 1.524 . S
C5903 H5906 0.999 . S
C5904 H5874 0.950 . S
C5904 C5903 1.524 . S
C5904 C5905 1.415 . S
C5905 H5875 0.950 . S
C5905 C5900 1.363 . S
C5905 C5904 1.415 . S
H5906 C5903 0.999 . S
H5907 C5888 0.913 . S
H5908 C5926 0.951 . S
H5909 C5928 0.951 . S
H5910 C5930 0.950 . S
H5911 C5931 0.950 . S
H5912 C5933 0.950 . S
H5913 C5936 0.950 . S
H5914 C5937 0.950 . S
H5915 C5939 0.950 . S
H5916 C5940 0.950 . S
H5917 C5941 0.951 . S
H5918 C5943 0.951 . S
H5919 C5945 0.950 . S
H5920 C5946 0.950 . S
H5921 C5948 0.950 . S
H5922 C5951 0.950 . S
H5923 C5952 0.950 . S
H5924 C5954 0.950 . S
H5925 C5955 0.950 . S
C5926 H5908 0.951 . S
C5926 C5927 1.366 . S
C5926 C5928 1.388 . S
C5927 C5926 1.366 . S
C5927 C5931 1.385 . S
C5928 H5909 0.951 . S
C5928 C5926 1.388 . S
C5928 C5929 1.366 . S
C5929 C5928 1.366 . S
C5929 C5930 1.414 . S
C5929 C5932 1.499 . S
C5930 H5910 0.950 . S
C5930 C5929 1.414 . S
C5930 C5931 1.374 . S
C5931 H5911 0.950 . S
C5931 C5927 1.385 . S
C5931 C5930 1.374 . S
C5932 C5929 1.499 . S
C5932 C5933 1.373 . S
C5932 C5934 1.389 . S
C5933 H5912 0.950 . S
C5933 C5932 1.373 . S
C5933 C5949 1.377 . S
C5934 C5932 1.389 . S
C5934 C5935 1.524 . S
C5934 C5948 1.377 . S
C5935 C5934 1.524 . S
C5935 C5936 1.397 . S
C5935 C5940 1.363 . S
C5936 H5913 0.950 . S
C5936 C5935 1.397 . S
C5936 C5937 1.334 . S
C5937 H5914 0.950 . S
C5937 C5936 1.334 . S
C5937 C5938 1.287 . S
C5938 C5937 1.287 . S
C5938 C5939 1.524 . S
C5938 H5957 0.913 . S
C5939 H5915 0.950 . S
C5939 C5938 1.524 . S
C5939 C5940 1.415 . S
C5940 H5916 0.950 . S
C5940 C5935 1.363 . S
C5940 C5939 1.415 . S
C5941 H5917 0.951 . S
C5941 C5942 1.366 . S
C5941 C5943 1.388 . S
C5942 C5941 1.366 . S
C5942 C5946 1.385 . S
C5943 H5918 0.951 . S
C5943 C5941 1.388 . S
C5943 C5944 1.366 . S
C5944 C5943 1.366 . S
C5944 C5945 1.414 . S
C5944 C5947 1.499 . S
C5945 H5919 0.950 . S
C5945 C5944 1.414 . S
C5945 C5946 1.374 . S
C5946 H5920 0.950 . S
C5946 C5942 1.385 . S
C5946 C5945 1.374 . S
C5947 C5944 1.499 . S
C5947 C5948 1.373 . S
C5947 C5949 1.389 . S
C5948 H5921 0.950 . S
C5948 C5934 1.377 . S
C5948 C5947 1.373 . S
C5949 C5933 1.377 . S
C5949 C5947 1.389 . S
C5949 C5950 1.524 . S
C5950 C5949 1.524 . S
C5950 C5951 1.397 . S
C5950 C5955 1.363 . S
C5951 H5922 0.950 . S
C5951 C5950 1.397 . S
C5951 C5952 1.334 . S
C5952 H5923 0.950 . S
C5952 C5951 1.334 . S
C5952 C5953 1.287 1_455 S
C5953 C5952 1.287 1_655 S
C5953 C5954 1.524 . S
C5953 H5956 0.999 . S
C5954 H5924 0.950 . S
C5954 C5953 1.524 . S
C5954 C5955 1.415 1_655 S
C5955 H5925 0.950 . S
C5955 C5950 1.363 . S
C5955 C5954 1.415 1_455 S
H5956 C5953 0.999 . S
H5957 C5938 0.913 . S
H5958 C5976 0.951 . S
H5959 C5978 0.951 . S
H5960 C5980 0.950 . S
H5961 C5981 0.950 . S
H5962 C5983 0.950 . S
H5963 C5986 0.950 . S
H5964 C5987 0.950 . S
H5965 C5989 0.950 . S
H5966 C5990 0.950 . S
H5967 C5991 0.951 . S
H5968 C5993 0.951 . S
H5969 C5995 0.950 . S
H5970 C5996 0.950 . S
H5971 C5998 0.950 . S
H5972 C6001 0.950 . S
H5973 C6002 0.950 . S
H5974 C6004 0.950 . S
H5975 C6005 0.950 . S
C5976 H5958 0.951 . S
C5976 C5977 1.366 . S
C5976 C5978 1.388 . S
C5977 C5976 1.366 . S
C5977 C5981 1.385 . S
C5978 H5959 0.951 . S
C5978 C5976 1.388 . S
C5978 C5979 1.366 . S
C5979 C5978 1.366 . S
C5979 C5980 1.414 . S
C5979 C5982 1.499 . S
C5980 H5960 0.950 . S
C5980 C5979 1.414 . S
C5980 C5981 1.374 . S
C5981 H5961 0.950 . S
C5981 C5977 1.385 . S
C5981 C5980 1.374 . S
C5982 C5979 1.499 . S
C5982 C5983 1.373 . S
C5982 C5984 1.389 . S
C5983 H5962 0.950 . S
C5983 C5982 1.373 . S
C5983 C5999 1.377 . S
C5984 C5982 1.389 . S
C5984 C5985 1.524 . S
C5984 C5998 1.377 . S
C5985 C5984 1.524 . S
C5985 C5986 1.397 . S
C5985 C5990 1.363 . S
C5986 H5963 0.950 . S
C5986 C5985 1.397 . S
C5986 C5987 1.334 . S
C5987 H5964 0.950 . S
C5987 C5986 1.334 . S
C5987 C5988 1.287 . S
C5988 C5987 1.287 . S
C5988 C5989 1.524 . S
C5988 H6007 0.913 . S
C5989 H5965 0.950 . S
C5989 C5988 1.524 . S
C5989 C5990 1.415 . S
C5990 H5966 0.950 . S
C5990 C5985 1.363 . S
C5990 C5989 1.415 . S
C5991 H5967 0.951 . S
C5991 C5992 1.366 . S
C5991 C5993 1.388 . S
C5992 C5991 1.366 . S
C5992 C5996 1.385 . S
C5993 H5968 0.951 . S
C5993 C5991 1.388 . S
C5993 C5994 1.366 . S
C5994 C5993 1.366 . S
C5994 C5995 1.414 . S
C5994 C5997 1.499 . S
C5995 H5969 0.950 . S
C5995 C5994 1.414 . S
C5995 C5996 1.374 . S
C5996 H5970 0.950 . S
C5996 C5992 1.385 . S
C5996 C5995 1.374 . S
C5997 C5994 1.499 . S
C5997 C5998 1.373 . S
C5997 C5999 1.389 . S
C5998 H5971 0.950 . S
C5998 C5984 1.377 . S
C5998 C5997 1.373 . S
C5999 C5983 1.377 . S
C5999 C5997 1.389 . S
C5999 C6000 1.524 . S
C6000 C5999 1.524 . S
C6000 C6001 1.397 . S
C6000 C6005 1.363 . S
C6001 H5972 0.950 . S
C6001 C6000 1.397 . S
C6001 C6002 1.334 . S
C6002 H5973 0.950 . S
C6002 C6001 1.334 . S
C6002 C6003 1.287 . S
C6003 C6002 1.287 . S
C6003 C6004 1.524 . S
C6003 H6006 0.999 . S
C6004 H5974 0.950 . S
C6004 C6003 1.524 . S
C6004 C6005 1.415 . S
C6005 H5975 0.950 . S
C6005 C6000 1.363 . S
C6005 C6004 1.415 . S
H6006 C6003 0.999 . S
H6007 C5988 0.913 . S
H6008 C6026 0.951 . S
H6009 C6028 0.951 . S
H6010 C6030 0.950 . S
H6011 C6031 0.950 . S
H6012 C6033 0.950 . S
H6013 C6036 0.950 . S
H6014 C6037 0.950 . S
H6015 C6039 0.950 . S
H6016 C6040 0.950 . S
H6017 C6041 0.951 . S
H6018 C6043 0.951 . S
H6019 C6045 0.950 . S
H6020 C6046 0.950 . S
H6021 C6048 0.950 . S
H6022 C6051 0.950 . S
H6023 C6052 0.930 1_554 S
H6024 C6054 0.950 . S
H6025 C6055 0.950 . S
C6026 H6008 0.951 . S
C6026 C6027 1.366 . S
C6026 C6028 1.388 . S
C6027 C6026 1.366 . S
C6027 C6031 1.385 . S
C6028 H6009 0.951 . S
C6028 C6026 1.388 . S
C6028 C6029 1.366 . S
C6029 C6028 1.366 . S
C6029 C6030 1.414 . S
C6029 C6032 1.499 . S
C6030 H6010 0.950 . S
C6030 C6029 1.414 . S
C6030 C6031 1.374 . S
C6031 H6011 0.950 . S
C6031 C6027 1.385 . S
C6031 C6030 1.374 . S
C6032 C6029 1.499 . S
C6032 C6033 1.373 . S
C6032 C6034 1.389 . S
C6033 H6012 0.950 . S
C6033 C6032 1.373 . S
C6033 C6049 1.377 . S
C6034 C6032 1.389 . S
C6034 C6035 1.524 . S
C6034 C6048 1.377 . S
C6035 C6034 1.524 . S
C6035 C6036 1.397 . S
C6035 C6040 1.363 . S
C6036 H6013 0.950 . S
C6036 C6035 1.397 . S
C6036 C6037 1.334 . S
C6037 H6014 0.950 . S
C6037 C6036 1.334 . S
C6037 C6038 1.287 . S
C6038 C6037 1.287 . S
C6038 C6039 1.524 . S
C6038 H6057 0.913 . S
C6039 H6015 0.950 . S
C6039 C6038 1.524 . S
C6039 C6040 1.415 . S
C6040 H6016 0.950 . S
C6040 C6035 1.363 . S
C6040 C6039 1.415 . S
C6041 H6017 0.951 . S
C6041 C6042 1.366 . S
C6041 C6043 1.388 . S
C6042 C6041 1.366 . S
C6042 C6046 1.385 . S
C6043 H6018 0.951 . S
C6043 C6041 1.388 . S
C6043 C6044 1.366 . S
C6044 C6043 1.366 . S
C6044 C6045 1.414 . S
C6044 C6047 1.499 . S
C6045 H6019 0.950 . S
C6045 C6044 1.414 . S
C6045 C6046 1.374 . S
C6046 H6020 0.950 . S
C6046 C6042 1.385 . S
C6046 C6045 1.374 . S
C6047 C6044 1.499 . S
C6047 C6048 1.373 . S
C6047 C6049 1.389 . S
C6048 H6021 0.950 . S
C6048 C6034 1.377 . S
C6048 C6047 1.373 . S
C6049 C6033 1.377 . S
C6049 C6047 1.389 . S
C6049 C6050 1.524 . S
C6050 C6049 1.524 . S
C6050 C6051 1.397 . S
C6050 C6055 1.363 . S
C6051 H6022 0.950 . S
C6051 C6050 1.397 . S
C6051 C6052 1.349 . S
C6052 H6023 0.930 1_556 S
C6052 C6051 1.349 . S
C6052 C6053 1.294 . S
C6053 C6052 1.294 . S
C6053 C6054 1.524 . S
C6053 H6056 0.999 1_556 S
C6054 H6024 0.950 . S
C6054 C6053 1.524 . S
C6054 C6055 1.415 . S
C6055 H6025 0.950 . S
C6055 C6050 1.363 . S
C6055 C6054 1.415 . S
H6056 C6053 0.999 1_554 S
H6057 C6038 0.913 . S
H6058 C6076 0.951 . S
H6059 C6078 0.951 . S
H6060 C6080 0.950 . S
H6061 C6081 0.950 . S
H6062 C6083 0.950 . S
H6063 C6086 0.950 . S
H6064 C6087 0.950 . S
H6065 C6089 0.950 . S
H6066 C6090 0.950 . S
H6067 C6091 0.951 . S
H6068 C6093 0.951 . S
H6069 C6095 0.950 . S
H6070 C6096 0.950 . S
H6071 C6098 0.950 . S
H6072 C6101 0.950 . S
H6073 C6102 0.950 . S
H6074 C6104 0.950 . S
H6075 C6105 0.950 . S
C6076 H6058 0.951 . S
C6076 C6077 1.366 . S
C6076 C6078 1.388 . S
C6077 C6076 1.366 . S
C6077 C6081 1.385 . S
C6078 H6059 0.951 . S
C6078 C6076 1.388 . S
C6078 C6079 1.366 . S
C6079 C6078 1.366 . S
C6079 C6080 1.414 . S
C6079 C6082 1.499 . S
C6080 H6060 0.950 . S
C6080 C6079 1.414 . S
C6080 C6081 1.374 . S
C6081 H6061 0.950 . S
C6081 C6077 1.385 . S
C6081 C6080 1.374 . S
C6082 C6079 1.499 . S
C6082 C6083 1.373 . S
C6082 C6084 1.389 . S
C6083 H6062 0.950 . S
C6083 C6082 1.373 . S
C6083 C6099 1.377 . S
C6084 C6082 1.389 . S
C6084 C6085 1.524 . S
C6084 C6098 1.377 . S
C6085 C6084 1.524 . S
C6085 C6086 1.397 . S
C6085 C6090 1.363 . S
C6086 H6063 0.950 . S
C6086 C6085 1.397 . S
C6086 C6087 1.334 . S
C6087 H6064 0.950 . S
C6087 C6086 1.334 . S
C6087 C6088 1.287 . S
C6088 C6087 1.287 . S
C6088 C6089 1.524 . S
C6088 H6107 0.913 . S
C6089 H6065 0.950 . S
C6089 C6088 1.524 . S
C6089 C6090 1.415 . S
C6090 H6066 0.950 . S
C6090 C6085 1.363 . S
C6090 C6089 1.415 . S
C6091 H6067 0.951 . S
C6091 C6092 1.366 . S
C6091 C6093 1.388 . S
C6092 C6091 1.366 . S
C6092 C6096 1.385 . S
C6093 H6068 0.951 . S
C6093 C6091 1.388 . S
C6093 C6094 1.366 . S
C6094 C6093 1.366 . S
C6094 C6095 1.414 . S
C6094 C6097 1.499 . S
C6095 H6069 0.950 . S
C6095 C6094 1.414 . S
C6095 C6096 1.374 . S
C6096 H6070 0.950 . S
C6096 C6092 1.385 . S
C6096 C6095 1.374 . S
C6097 C6094 1.499 . S
C6097 C6098 1.373 . S
C6097 C6099 1.389 . S
C6098 H6071 0.950 . S
C6098 C6084 1.377 . S
C6098 C6097 1.373 . S
C6099 C6083 1.377 . S
C6099 C6097 1.389 . S
C6099 C6100 1.524 . S
C6100 C6099 1.524 . S
C6100 C6101 1.397 . S
C6100 C6105 1.363 . S
C6101 H6072 0.950 . S
C6101 C6100 1.397 . S
C6101 C6102 1.334 . S
C6102 H6073 0.950 . S
C6102 C6101 1.334 . S
C6102 C6103 1.287 . S
C6103 C6102 1.287 . S
C6103 C6104 1.524 . S
C6103 H6106 0.999 . S
C6104 H6074 0.950 . S
C6104 C6103 1.524 . S
C6104 C6105 1.415 . S
C6105 H6075 0.950 . S
C6105 C6100 1.363 . S
C6105 C6104 1.415 . S
H6106 C6103 0.999 . S
H6107 C6088 0.913 . S
H6108 C6126 0.951 . S
H6109 C6128 0.951 . S
H6110 C6130 0.950 . S
H6111 C6131 0.950 . S
H6112 C6133 0.950 . S
H6113 C6136 0.950 . S
H6114 C6137 0.950 . S
H6115 C6139 0.950 . S
H6116 C6140 0.950 . S
H6117 C6141 0.951 . S
H6118 C6143 0.951 . S
H6119 C6145 0.950 . S
H6120 C6146 0.950 . S
H6121 C6148 0.950 . S
H6122 C6151 0.950 . S
H6123 C6152 0.950 . S
H6124 C6154 0.950 . S
H6125 C6155 0.950 . S
C6126 H6108 0.951 . S
C6126 C6127 1.366 . S
C6126 C6128 1.388 . S
C6127 C6126 1.366 . S
C6127 C6131 1.385 . S
C6128 H6109 0.951 . S
C6128 C6126 1.388 . S
C6128 C6129 1.366 . S
C6129 C6128 1.366 . S
C6129 C6130 1.414 . S
C6129 C6132 1.499 . S
C6130 H6110 0.950 . S
C6130 C6129 1.414 . S
C6130 C6131 1.374 . S
C6131 H6111 0.950 . S
C6131 C6127 1.385 . S
C6131 C6130 1.374 . S
C6132 C6129 1.499 . S
C6132 C6133 1.373 . S
C6132 C6134 1.389 . S
C6133 H6112 0.950 . S
C6133 C6132 1.373 . S
C6133 C6149 1.377 . S
C6134 C6132 1.389 . S
C6134 C6135 1.524 . S
C6134 C6148 1.377 . S
C6135 C6134 1.524 . S
C6135 C6136 1.397 . S
C6135 C6140 1.363 . S
C6136 H6113 0.950 . S
C6136 C6135 1.397 . S
C6136 C6137 1.334 . S
C6137 H6114 0.950 . S
C6137 C6136 1.334 . S
C6137 C6138 1.287 . S
C6138 C6137 1.287 . S
C6138 C6139 1.524 . S
C6138 H6157 0.913 . S
C6139 H6115 0.950 . S
C6139 C6138 1.524 . S
C6139 C6140 1.415 . S
C6140 H6116 0.950 . S
C6140 C6135 1.363 . S
C6140 C6139 1.415 . S
C6141 H6117 0.951 . S
C6141 C6142 1.366 . S
C6141 C6143 1.388 . S
C6142 C6141 1.366 . S
C6142 C6146 1.385 . S
C6143 H6118 0.951 . S
C6143 C6141 1.388 . S
C6143 C6144 1.366 . S
C6144 C6143 1.366 . S
C6144 C6145 1.414 . S
C6144 C6147 1.499 . S
C6145 H6119 0.950 . S
C6145 C6144 1.414 . S
C6145 C6146 1.374 . S
C6146 H6120 0.950 . S
C6146 C6142 1.385 . S
C6146 C6145 1.374 . S
C6147 C6144 1.499 . S
C6147 C6148 1.373 . S
C6147 C6149 1.389 . S
C6148 H6121 0.950 . S
C6148 C6134 1.377 . S
C6148 C6147 1.373 . S
C6149 C6133 1.377 . S
C6149 C6147 1.389 . S
C6149 C6150 1.524 . S
C6150 C6149 1.524 . S
C6150 C6151 1.397 . S
C6150 C6155 1.363 . S
C6151 H6122 0.950 . S
C6151 C6150 1.397 . S
C6151 C6152 1.334 . S
C6152 H6123 0.950 . S
C6152 C6151 1.334 . S
C6152 C6153 1.287 . S
C6153 C6152 1.287 . S
C6153 C6154 1.524 . S
C6153 H6156 0.999 . S
C6154 H6124 0.950 . S
C6154 C6153 1.524 . S
C6154 C6155 1.415 . S
C6155 H6125 0.950 . S
C6155 C6150 1.363 . S
C6155 C6154 1.415 . S
H6156 C6153 0.999 . S
H6157 C6138 0.913 . S
H6158 C6176 0.951 . S
H6159 C6178 0.951 . S
H6160 C6180 0.950 . S
H6161 C6181 0.950 . S
H6162 C6183 0.950 . S
H6163 C6186 0.950 . S
H6164 C6187 0.950 . S
H6165 C6189 0.950 . S
H6166 C6190 0.950 . S
H6167 C6191 0.951 . S
H6168 C6193 0.951 . S
H6169 C6195 0.950 . S
H6170 C6196 0.950 . S
H6171 C6198 0.950 . S
H6172 C6201 0.950 . S
H6173 C6202 0.950 . S
H6174 C6204 0.950 . S
H6175 C6205 0.950 . S
C6176 H6158 0.951 . S
C6176 C6177 1.366 . S
C6176 C6178 1.388 . S
C6177 C6176 1.366 . S
C6177 C6181 1.385 . S
C6178 H6159 0.951 . S
C6178 C6176 1.388 . S
C6178 C6179 1.366 . S
C6179 C6178 1.366 . S
C6179 C6180 1.414 . S
C6179 C6182 1.499 . S
C6180 H6160 0.950 . S
C6180 C6179 1.414 . S
C6180 C6181 1.374 . S
C6181 H6161 0.950 . S
C6181 C6177 1.385 . S
C6181 C6180 1.374 . S
C6182 C6179 1.499 . S
C6182 C6183 1.373 . S
C6182 C6184 1.389 . S
C6183 H6162 0.950 . S
C6183 C6182 1.373 . S
C6183 C6199 1.377 . S
C6184 C6182 1.389 . S
C6184 C6185 1.524 . S
C6184 C6198 1.377 . S
C6185 C6184 1.524 . S
C6185 C6186 1.397 . S
C6185 C6190 1.363 . S
C6186 H6163 0.950 . S
C6186 C6185 1.397 . S
C6186 C6187 1.334 . S
C6187 H6164 0.950 . S
C6187 C6186 1.334 . S
C6187 C6188 1.287 . S
C6188 C6187 1.287 . S
C6188 C6189 1.524 . S
C6188 H6207 0.913 . S
C6189 H6165 0.950 . S
C6189 C6188 1.524 . S
C6189 C6190 1.415 . S
C6190 H6166 0.950 . S
C6190 C6185 1.363 . S
C6190 C6189 1.415 . S
C6191 H6167 0.951 . S
C6191 C6192 1.366 . S
C6191 C6193 1.388 . S
C6192 C6191 1.366 . S
C6192 C6196 1.385 . S
C6193 H6168 0.951 . S
C6193 C6191 1.388 . S
C6193 C6194 1.366 . S
C6194 C6193 1.366 . S
C6194 C6195 1.414 . S
C6194 C6197 1.499 . S
C6195 H6169 0.950 . S
C6195 C6194 1.414 . S
C6195 C6196 1.374 . S
C6196 H6170 0.950 . S
C6196 C6192 1.385 . S
C6196 C6195 1.374 . S
C6197 C6194 1.499 . S
C6197 C6198 1.373 . S
C6197 C6199 1.389 . S
C6198 H6171 0.950 . S
C6198 C6184 1.377 . S
C6198 C6197 1.373 . S
C6199 C6183 1.377 . S
C6199 C6197 1.389 . S
C6199 C6200 1.524 . S
C6200 C6199 1.524 . S
C6200 C6201 1.397 . S
C6200 C6205 1.363 . S
C6201 H6172 0.950 . S
C6201 C6200 1.397 . S
C6201 C6202 1.334 . S
C6202 H6173 0.950 . S
C6202 C6201 1.334 . S
C6202 C6203 1.287 . S
C6203 C6202 1.287 . S
C6203 C6204 1.524 . S
C6203 H6206 0.999 . S
C6204 H6174 0.950 . S
C6204 C6203 1.524 . S
C6204 C6205 1.415 . S
C6205 H6175 0.950 . S
C6205 C6200 1.363 . S
C6205 C6204 1.415 . S
H6206 C6203 0.999 . S
H6207 C6188 0.913 . S
H6208 C6226 0.951 . S
H6209 C6228 0.951 . S
H6210 C6230 0.950 . S
H6211 C6231 0.950 . S
H6212 C6233 0.950 . S
H6213 C6236 0.950 . S
H6214 C6237 0.950 . S
H6215 C6239 0.950 . S
H6216 C6240 0.950 . S
H6217 C6241 0.951 . S
H6218 C6243 0.951 . S
H6219 C6245 0.950 . S
H6220 C6246 0.950 . S
H6221 C6248 0.950 . S
H6222 C6251 0.950 . S
H6223 C6252 0.950 . S
H6224 C6254 0.950 . S
H6225 C6255 0.950 . S
C6226 H6208 0.951 . S
C6226 C6227 1.366 . S
C6226 C6228 1.388 . S
C6227 C6226 1.366 . S
C6227 C6231 1.385 . S
C6228 H6209 0.951 . S
C6228 C6226 1.388 . S
C6228 C6229 1.366 . S
C6229 C6228 1.366 . S
C6229 C6230 1.414 . S
C6229 C6232 1.499 . S
C6230 H6210 0.950 . S
C6230 C6229 1.414 . S
C6230 C6231 1.374 . S
C6231 H6211 0.950 . S
C6231 C6227 1.385 . S
C6231 C6230 1.374 . S
C6232 C6229 1.499 . S
C6232 C6233 1.373 . S
C6232 C6234 1.389 . S
C6233 H6212 0.950 . S
C6233 C6232 1.373 . S
C6233 C6249 1.377 . S
C6234 C6232 1.389 . S
C6234 C6235 1.524 . S
C6234 C6248 1.377 . S
C6235 C6234 1.524 . S
C6235 C6236 1.397 . S
C6235 C6240 1.363 . S
C6236 H6213 0.950 . S
C6236 C6235 1.397 . S
C6236 C6237 1.334 . S
C6237 H6214 0.950 . S
C6237 C6236 1.334 . S
C6237 C6238 1.287 . S
C6238 C6237 1.287 . S
C6238 C6239 1.524 . S
C6238 H6257 0.913 . S
C6239 H6215 0.950 . S
C6239 C6238 1.524 . S
C6239 C6240 1.415 . S
C6240 H6216 0.950 . S
C6240 C6235 1.363 . S
C6240 C6239 1.415 . S
C6241 H6217 0.951 . S
C6241 C6242 1.366 . S
C6241 C6243 1.388 . S
C6242 C6241 1.366 . S
C6242 C6246 1.385 . S
C6243 H6218 0.951 . S
C6243 C6241 1.388 . S
C6243 C6244 1.366 . S
C6244 C6243 1.366 . S
C6244 C6245 1.414 . S
C6244 C6247 1.499 . S
C6245 H6219 0.950 . S
C6245 C6244 1.414 . S
C6245 C6246 1.374 . S
C6246 H6220 0.950 . S
C6246 C6242 1.385 . S
C6246 C6245 1.374 . S
C6247 C6244 1.499 . S
C6247 C6248 1.373 . S
C6247 C6249 1.389 . S
C6248 H6221 0.950 . S
C6248 C6234 1.377 . S
C6248 C6247 1.373 . S
C6249 C6233 1.377 . S
C6249 C6247 1.389 . S
C6249 C6250 1.524 . S
C6250 C6249 1.524 . S
C6250 C6251 1.397 . S
C6250 C6255 1.363 . S
C6251 H6222 0.950 . S
C6251 C6250 1.397 . S
C6251 C6252 1.334 . S
C6252 H6223 0.950 . S
C6252 C6251 1.334 . S
C6252 C6253 1.287 . S
C6253 C6252 1.287 . S
C6253 C6254 1.524 . S
C6253 H6256 0.999 . S
C6254 H6224 0.950 . S
C6254 C6253 1.524 . S
C6254 C6255 1.415 . S
C6255 H6225 0.950 . S
C6255 C6250 1.363 . S
C6255 C6254 1.415 . S
H6256 C6253 0.999 . S
H6257 C6238 0.913 . S
H6258 C6276 0.951 . S
H6259 C6278 0.951 . S
H6260 C6280 0.950 . S
H6261 C6281 0.950 . S
H6262 C6283 0.950 . S
H6263 C6286 0.950 . S
H6264 C6287 0.950 . S
H6265 C6289 0.950 . S
H6266 C6290 0.950 . S
H6267 C6291 0.951 . S
H6268 C6293 0.951 . S
H6269 C6295 0.950 . S
H6270 C6296 0.950 . S
H6271 C6298 0.950 . S
H6272 C6301 0.950 . S
H6273 C6302 0.950 . S
H6274 C6304 0.950 . S
H6275 C6305 0.950 . S
C6276 H6258 0.951 . S
C6276 C6277 1.366 . S
C6276 C6278 1.388 . S
C6277 C6276 1.366 . S
C6277 C6281 1.385 . S
C6278 H6259 0.951 . S
C6278 C6276 1.388 . S
C6278 C6279 1.366 . S
C6279 C6278 1.366 . S
C6279 C6280 1.414 . S
C6279 C6282 1.499 . S
C6280 H6260 0.950 . S
C6280 C6279 1.414 . S
C6280 C6281 1.374 . S
C6281 H6261 0.950 . S
C6281 C6277 1.385 . S
C6281 C6280 1.374 . S
C6282 C6279 1.499 . S
C6282 C6283 1.373 . S
C6282 C6284 1.389 . S
C6283 H6262 0.950 . S
C6283 C6282 1.373 . S
C6283 C6299 1.377 . S
C6284 C6282 1.389 . S
C6284 C6285 1.524 . S
C6284 C6298 1.377 . S
C6285 C6284 1.524 . S
C6285 C6286 1.397 . S
C6285 C6290 1.363 . S
C6286 H6263 0.950 . S
C6286 C6285 1.397 . S
C6286 C6287 1.334 . S
C6287 H6264 0.950 . S
C6287 C6286 1.334 . S
C6287 C6288 1.287 . S
C6288 C6287 1.287 . S
C6288 C6289 1.524 . S
C6288 H6307 0.913 . S
C6289 H6265 0.950 . S
C6289 C6288 1.524 . S
C6289 C6290 1.415 . S
C6290 H6266 0.950 . S
C6290 C6285 1.363 . S
C6290 C6289 1.415 . S
C6291 H6267 0.951 . S
C6291 C6292 1.366 . S
C6291 C6293 1.388 . S
C6292 C6291 1.366 . S
C6292 C6296 1.385 . S
C6293 H6268 0.951 . S
C6293 C6291 1.388 . S
C6293 C6294 1.366 . S
C6294 C6293 1.366 . S
C6294 C6295 1.414 . S
C6294 C6297 1.499 . S
C6295 H6269 0.950 . S
C6295 C6294 1.414 . S
C6295 C6296 1.374 . S
C6296 H6270 0.950 . S
C6296 C6292 1.385 . S
C6296 C6295 1.374 . S
C6297 C6294 1.499 . S
C6297 C6298 1.373 . S
C6297 C6299 1.389 . S
C6298 H6271 0.950 . S
C6298 C6284 1.377 . S
C6298 C6297 1.373 . S
C6299 C6283 1.377 . S
C6299 C6297 1.389 . S
C6299 C6300 1.524 . S
C6300 C6299 1.524 . S
C6300 C6301 1.397 . S
C6300 C6305 1.363 . S
C6301 H6272 0.950 . S
C6301 C6300 1.397 . S
C6301 C6302 1.334 . S
C6302 H6273 0.950 . S
C6302 C6301 1.334 . S
C6302 C6303 1.287 . S
C6303 C6302 1.287 . S
C6303 C6304 1.524 . S
C6303 H6306 0.999 . S
C6304 H6274 0.950 . S
C6304 C6303 1.524 . S
C6304 C6305 1.415 . S
C6305 H6275 0.950 . S
C6305 C6300 1.363 . S
C6305 C6304 1.415 . S
H6306 C6303 0.999 . S
H6307 C6288 0.913 . S
H6308 C6326 0.951 . S
H6309 C6328 0.951 . S
H6310 C6330 0.950 . S
H6311 C6331 0.950 . S
H6312 C6333 0.950 . S
H6313 C6336 0.949 1_655 S
H6314 C6337 0.950 . S
H6315 C6339 0.950 . S
H6316 C6340 0.950 . S
H6317 C6341 0.951 . S
H6318 C6343 0.951 . S
H6319 C6345 0.950 . S
H6320 C6346 0.950 . S
H6321 C6348 0.940 1_455 S
H6322 C6351 0.950 . S
H6323 C6352 0.950 . S
H6324 C6354 0.950 . S
H6325 C6355 0.950 . S
C6326 H6308 0.951 . S
C6326 C6327 1.366 . S
C6326 C6328 1.388 . S
C6327 C6326 1.366 . S
C6327 C6331 1.385 . S
C6328 H6309 0.951 . S
C6328 C6326 1.388 . S
C6328 C6329 1.366 . S
C6329 C6328 1.366 . S
C6329 C6330 1.414 . S
C6329 C6332 1.499 . S
C6330 H6310 0.950 . S
C6330 C6329 1.414 . S
C6330 C6331 1.374 . S
C6331 H6311 0.950 . S
C6331 C6327 1.385 . S
C6331 C6330 1.374 . S
C6332 C6329 1.499 . S
C6332 C6333 1.373 . S
C6332 C6334 1.389 . S
C6333 H6312 0.950 . S
C6333 C6332 1.373 . S
C6333 C6349 1.377 . S
C6334 C6332 1.389 . S
C6334 C6335 1.524 . S
C6334 C6348 1.384 . S
C6335 C6334 1.524 . S
C6335 C6336 1.396 1_655 S
C6335 C6340 1.363 1_655 S
C6336 H6313 0.949 1_455 S
C6336 C6335 1.396 1_455 S
C6336 C6337 1.335 . S
C6337 H6314 0.950 . S
C6337 C6336 1.335 . S
C6337 C6338 1.287 . S
C6338 C6337 1.287 . S
C6338 C6339 1.524 . S
C6338 H6357 0.913 . S
C6339 H6315 0.950 . S
C6339 C6338 1.524 . S
C6339 C6340 1.415 . S
C6340 H6316 0.950 . S
C6340 C6335 1.363 1_455 S
C6340 C6339 1.415 . S
C6341 H6317 0.951 . S
C6341 C6342 1.366 . S
C6341 C6343 1.388 . S
C6342 C6341 1.366 . S
C6342 C6346 1.385 . S
C6343 H6318 0.951 . S
C6343 C6341 1.388 . S
C6343 C6344 1.366 . S
C6344 C6343 1.366 . S
C6344 C6345 1.414 . S
C6344 C6347 1.499 1_455 S
C6345 H6319 0.950 . S
C6345 C6344 1.414 . S
C6345 C6346 1.374 . S
C6346 H6320 0.950 . S
C6346 C6342 1.385 . S
C6346 C6345 1.374 . S
C6347 C6344 1.499 1_655 S
C6347 C6348 1.376 . S
C6347 C6349 1.389 . S
C6348 H6321 0.940 1_655 S
C6348 C6334 1.384 . S
C6348 C6347 1.376 . S
C6349 C6333 1.377 . S
C6349 C6347 1.389 . S
C6349 C6350 1.524 . S
C6350 C6349 1.524 . S
C6350 C6351 1.397 . S
C6350 C6355 1.363 . S
C6351 H6322 0.950 . S
C6351 C6350 1.397 . S
C6351 C6352 1.334 . S
C6352 H6323 0.950 . S
C6352 C6351 1.334 . S
C6352 C6353 1.287 . S
C6353 C6352 1.287 . S
C6353 C6354 1.524 . S
C6353 H6356 0.999 . S
C6354 H6324 0.950 . S
C6354 C6353 1.524 . S
C6354 C6355 1.415 . S
C6355 H6325 0.950 . S
C6355 C6350 1.363 . S
C6355 C6354 1.415 . S
H6356 C6353 0.999 . S
H6357 C6338 0.913 . S
H6358 C6376 0.951 . S
H6359 C6378 0.951 . S
H6360 C6380 0.950 . S
H6361 C6381 0.950 . S
H6362 C6383 0.950 . S
H6363 C6386 0.950 . S
H6364 C6387 0.950 . S
H6365 C6389 0.950 . S
H6366 C6390 0.950 . S
H6367 C6391 0.951 . S
H6368 C6393 0.951 . S
H6369 C6395 0.950 . S
H6370 C6396 0.950 . S
H6371 C6398 0.950 . S
H6372 C6401 0.950 . S
H6373 C6402 0.950 . S
H6374 C6404 0.950 . S
H6375 C6405 0.950 . S
C6376 H6358 0.951 . S
C6376 C6377 1.366 . S
C6376 C6378 1.388 . S
C6377 C6376 1.366 . S
C6377 C6381 1.385 . S
C6378 H6359 0.951 . S
C6378 C6376 1.388 . S
C6378 C6379 1.366 . S
C6379 C6378 1.366 . S
C6379 C6380 1.414 . S
C6379 C6382 1.499 . S
C6380 H6360 0.950 . S
C6380 C6379 1.414 . S
C6380 C6381 1.374 . S
C6381 H6361 0.950 . S
C6381 C6377 1.385 . S
C6381 C6380 1.374 . S
C6382 C6379 1.499 . S
C6382 C6383 1.373 . S
C6382 C6384 1.389 . S
C6383 H6362 0.950 . S
C6383 C6382 1.373 . S
C6383 C6399 1.377 . S
C6384 C6382 1.389 . S
C6384 C6385 1.524 . S
C6384 C6398 1.377 . S
C6385 C6384 1.524 . S
C6385 C6386 1.397 . S
C6385 C6390 1.363 . S
C6386 H6363 0.950 . S
C6386 C6385 1.397 . S
C6386 C6387 1.334 . S
C6387 H6364 0.950 . S
C6387 C6386 1.334 . S
C6387 C6388 1.287 . S
C6388 C6387 1.287 . S
C6388 C6389 1.524 . S
C6388 H6407 0.913 . S
C6389 H6365 0.950 . S
C6389 C6388 1.524 . S
C6389 C6390 1.415 . S
C6390 H6366 0.950 . S
C6390 C6385 1.363 . S
C6390 C6389 1.415 . S
C6391 H6367 0.951 . S
C6391 C6392 1.366 . S
C6391 C6393 1.388 . S
C6392 C6391 1.366 . S
C6392 C6396 1.385 . S
C6393 H6368 0.951 . S
C6393 C6391 1.388 . S
C6393 C6394 1.366 . S
C6394 C6393 1.366 . S
C6394 C6395 1.414 . S
C6394 C6397 1.499 . S
C6395 H6369 0.950 . S
C6395 C6394 1.414 . S
C6395 C6396 1.374 . S
C6396 H6370 0.950 . S
C6396 C6392 1.385 . S
C6396 C6395 1.374 . S
C6397 C6394 1.499 . S
C6397 C6398 1.373 . S
C6397 C6399 1.389 . S
C6398 H6371 0.950 . S
C6398 C6384 1.377 . S
C6398 C6397 1.373 . S
C6399 C6383 1.377 . S
C6399 C6397 1.389 . S
C6399 C6400 1.524 . S
C6400 C6399 1.524 . S
C6400 C6401 1.397 . S
C6400 C6405 1.363 . S
C6401 H6372 0.950 . S
C6401 C6400 1.397 . S
C6401 C6402 1.334 . S
C6402 H6373 0.950 . S
C6402 C6401 1.334 . S
C6402 C6403 1.287 . S
C6403 C6402 1.287 . S
C6403 C6404 1.524 . S
C6403 H6406 0.999 . S
C6404 H6374 0.950 . S
C6404 C6403 1.524 . S
C6404 C6405 1.415 . S
C6405 H6375 0.950 . S
C6405 C6400 1.363 . S
C6405 C6404 1.415 . S
H6406 C6403 0.999 . S
H6407 C6388 0.913 . S
H6408 C6426 0.951 . S
H6409 C6428 0.951 . S
H6410 C6430 0.950 . S
H6411 C6431 0.950 . S
H6412 C6433 0.950 . S
H6413 C6436 0.950 . S
H6414 C6437 0.950 . S
H6415 C6439 0.950 . S
H6416 C6440 0.950 . S
H6417 C6441 0.951 . S
H6418 C6443 0.951 . S
H6419 C6445 0.950 . S
H6420 C6446 0.950 . S
H6421 C6448 0.950 . S
H6422 C6451 0.950 . S
H6423 C6452 0.950 . S
H6424 C6454 0.950 . S
H6425 C6455 0.950 . S
C6426 H6408 0.951 . S
C6426 C6427 1.366 . S
C6426 C6428 1.388 . S
C6427 C6426 1.366 . S
C6427 C6431 1.385 . S
C6428 H6409 0.951 . S
C6428 C6426 1.388 . S
C6428 C6429 1.366 . S
C6429 C6428 1.366 . S
C6429 C6430 1.414 . S
C6429 C6432 1.499 . S
C6430 H6410 0.950 . S
C6430 C6429 1.414 . S
C6430 C6431 1.374 . S
C6431 H6411 0.950 . S
C6431 C6427 1.385 . S
C6431 C6430 1.374 . S
C6432 C6429 1.499 . S
C6432 C6433 1.373 . S
C6432 C6434 1.389 . S
C6433 H6412 0.950 . S
C6433 C6432 1.373 . S
C6433 C6449 1.377 . S
C6434 C6432 1.389 . S
C6434 C6435 1.524 . S
C6434 C6448 1.377 . S
C6435 C6434 1.524 . S
C6435 C6436 1.397 . S
C6435 C6440 1.363 . S
C6436 H6413 0.950 . S
C6436 C6435 1.397 . S
C6436 C6437 1.334 . S
C6437 H6414 0.950 . S
C6437 C6436 1.334 . S
C6437 C6438 1.287 . S
C6438 C6437 1.287 . S
C6438 C6439 1.524 . S
C6438 H6457 0.913 . S
C6439 H6415 0.950 . S
C6439 C6438 1.524 . S
C6439 C6440 1.415 . S
C6440 H6416 0.950 . S
C6440 C6435 1.363 . S
C6440 C6439 1.415 . S
C6441 H6417 0.951 . S
C6441 C6442 1.366 . S
C6441 C6443 1.388 . S
C6442 C6441 1.366 . S
C6442 C6446 1.385 . S
C6443 H6418 0.951 . S
C6443 C6441 1.388 . S
C6443 C6444 1.366 . S
C6444 C6443 1.366 . S
C6444 C6445 1.414 . S
C6444 C6447 1.499 . S
C6445 H6419 0.950 . S
C6445 C6444 1.414 . S
C6445 C6446 1.374 . S
C6446 H6420 0.950 . S
C6446 C6442 1.385 . S
C6446 C6445 1.374 . S
C6447 C6444 1.499 . S
C6447 C6448 1.373 . S
C6447 C6449 1.389 . S
C6448 H6421 0.950 . S
C6448 C6434 1.377 . S
C6448 C6447 1.373 . S
C6449 C6433 1.377 . S
C6449 C6447 1.389 . S
C6449 C6450 1.524 . S
C6450 C6449 1.524 . S
C6450 C6451 1.397 . S
C6450 C6455 1.363 . S
C6451 H6422 0.950 . S
C6451 C6450 1.397 . S
C6451 C6452 1.334 . S
C6452 H6423 0.950 . S
C6452 C6451 1.334 . S
C6452 C6453 1.287 . S
C6453 C6452 1.287 . S
C6453 C6454 1.524 . S
C6453 H6456 0.999 . S
C6454 H6424 0.950 . S
C6454 C6453 1.524 . S
C6454 C6455 1.415 . S
C6455 H6425 0.950 . S
C6455 C6450 1.363 . S
C6455 C6454 1.415 . S
H6456 C6453 0.999 . S
H6457 C6438 0.913 . S
H6458 C6476 0.951 . S
H6459 C6478 0.951 . S
H6460 C6480 0.950 . S
H6461 C6481 0.950 . S
H6462 C6483 0.950 . S
H6463 C6486 0.950 . S
H6464 C6487 0.950 . S
H6465 C6489 0.950 . S
H6466 C6490 0.950 . S
H6467 C6491 0.951 . S
H6468 C6493 0.951 . S
H6469 C6495 0.950 . S
H6470 C6496 0.950 . S
H6471 C6498 0.950 . S
H6472 C6501 0.950 . S
H6473 C6502 0.950 . S
H6474 C6504 0.950 . S
H6475 C6505 0.950 . S
C6476 H6458 0.951 . S
C6476 C6477 1.366 . S
C6476 C6478 1.388 . S
C6477 C6476 1.366 . S
C6477 C6481 1.385 . S
C6478 H6459 0.951 . S
C6478 C6476 1.388 . S
C6478 C6479 1.366 . S
C6479 C6478 1.366 . S
C6479 C6480 1.414 . S
C6479 C6482 1.499 . S
C6480 H6460 0.950 . S
C6480 C6479 1.414 . S
C6480 C6481 1.374 . S
C6481 H6461 0.950 . S
C6481 C6477 1.385 . S
C6481 C6480 1.374 . S
C6482 C6479 1.499 . S
C6482 C6483 1.373 . S
C6482 C6484 1.389 . S
C6483 H6462 0.950 . S
C6483 C6482 1.373 . S
C6483 C6499 1.377 . S
C6484 C6482 1.389 . S
C6484 C6485 1.524 . S
C6484 C6498 1.377 . S
C6485 C6484 1.524 . S
C6485 C6486 1.397 . S
C6485 C6490 1.363 . S
C6486 H6463 0.950 . S
C6486 C6485 1.397 . S
C6486 C6487 1.334 . S
C6487 H6464 0.950 . S
C6487 C6486 1.334 . S
C6487 C6488 1.287 . S
C6488 C6487 1.287 . S
C6488 C6489 1.524 . S
C6488 H6507 0.913 . S
C6489 H6465 0.950 . S
C6489 C6488 1.524 . S
C6489 C6490 1.415 . S
C6490 H6466 0.950 . S
C6490 C6485 1.363 . S
C6490 C6489 1.415 . S
C6491 H6467 0.951 . S
C6491 C6492 1.366 . S
C6491 C6493 1.388 . S
C6492 C6491 1.366 . S
C6492 C6496 1.385 . S
C6493 H6468 0.951 . S
C6493 C6491 1.388 . S
C6493 C6494 1.366 . S
C6494 C6493 1.366 . S
C6494 C6495 1.414 . S
C6494 C6497 1.499 . S
C6495 H6469 0.950 . S
C6495 C6494 1.414 . S
C6495 C6496 1.374 . S
C6496 H6470 0.950 . S
C6496 C6492 1.385 . S
C6496 C6495 1.374 . S
C6497 C6494 1.499 . S
C6497 C6498 1.373 . S
C6497 C6499 1.389 . S
C6498 H6471 0.950 . S
C6498 C6484 1.377 . S
C6498 C6497 1.373 . S
C6499 C6483 1.377 . S
C6499 C6497 1.389 . S
C6499 C6500 1.524 . S
C6500 C6499 1.524 . S
C6500 C6501 1.397 . S
C6500 C6505 1.363 . S
C6501 H6472 0.950 . S
C6501 C6500 1.397 . S
C6501 C6502 1.334 . S
C6502 H6473 0.950 . S
C6502 C6501 1.334 . S
C6502 C6503 1.287 . S
C6503 C6502 1.287 . S
C6503 C6504 1.524 . S
C6503 H6506 0.999 . S
C6504 H6474 0.950 . S
C6504 C6503 1.524 . S
C6504 C6505 1.415 . S
C6505 H6475 0.950 . S
C6505 C6500 1.363 . S
C6505 C6504 1.415 . S
H6506 C6503 0.999 . S
H6507 C6488 0.913 . S
H6508 C6526 0.951 . S
H6509 C6528 0.951 . S
H6510 C6530 0.950 . S
H6511 C6531 0.950 . S
H6512 C6533 0.950 . S
H6513 C6536 0.950 . S
H6514 C6537 0.950 . S
H6515 C6539 0.950 . S
H6516 C6540 0.950 . S
H6517 C6541 0.951 . S
H6518 C6543 0.951 . S
H6519 C6545 0.950 . S
H6520 C6546 0.950 . S
H6521 C6548 0.953 . S
H6522 C6551 0.950 . S
H6523 C6552 0.950 . S
H6524 C6554 0.950 . S
H6525 C6555 0.950 . S
C6526 H6508 0.951 . S
C6526 C6527 1.366 . S
C6526 C6528 1.388 . S
C6527 C6526 1.366 . S
C6527 C6531 1.385 . S
C6528 H6509 0.951 . S
C6528 C6526 1.388 . S
C6528 C6529 1.366 . S
C6529 C6528 1.366 . S
C6529 C6530 1.414 . S
C6529 C6532 1.499 . S
C6530 H6510 0.950 . S
C6530 C6529 1.414 . S
C6530 C6531 1.374 . S
C6531 H6511 0.950 . S
C6531 C6527 1.385 . S
C6531 C6530 1.374 . S
C6532 C6529 1.499 . S
C6532 C6533 1.373 . S
C6532 C6534 1.389 . S
C6533 H6512 0.950 . S
C6533 C6532 1.373 . S
C6533 C6549 1.377 . S
C6534 C6532 1.389 . S
C6534 C6535 1.524 . S
C6534 C6548 1.377 . S
C6535 C6534 1.524 . S
C6535 C6536 1.397 . S
C6535 C6540 1.363 1_655 S
C6536 H6513 0.950 . S
C6536 C6535 1.397 . S
C6536 C6537 1.334 . S
C6537 H6514 0.950 . S
C6537 C6536 1.334 . S
C6537 C6538 1.287 1_655 S
C6538 C6537 1.287 1_455 S
C6538 C6539 1.524 . S
C6538 H6557 0.913 . S
C6539 H6515 0.950 . S
C6539 C6538 1.524 . S
C6539 C6540 1.415 . S
C6540 H6516 0.950 . S
C6540 C6535 1.363 1_455 S
C6540 C6539 1.415 . S
C6541 H6517 0.951 . S
C6541 C6542 1.366 1_655 S
C6541 C6543 1.388 . S
C6542 C6541 1.366 1_455 S
C6542 C6546 1.385 . S
C6543 H6518 0.951 . S
C6543 C6541 1.388 . S
C6543 C6544 1.366 . S
C6544 C6543 1.366 . S
C6544 C6545 1.414 1_655 S
C6544 C6547 1.499 . S
C6545 H6519 0.950 . S
C6545 C6544 1.414 1_455 S
C6545 C6546 1.374 . S
C6546 H6520 0.950 . S
C6546 C6542 1.385 . S
C6546 C6545 1.374 . S
C6547 C6544 1.499 . S
C6547 C6548 1.373 . S
C6547 C6549 1.389 . S
C6548 H6521 0.953 . S
C6548 C6534 1.377 . S
C6548 C6547 1.373 . S
C6549 C6533 1.377 . S
C6549 C6547 1.389 . S
C6549 C6550 1.524 . S
C6550 C6549 1.524 . S
C6550 C6551 1.397 . S
C6550 C6555 1.363 . S
C6551 H6522 0.950 . S
C6551 C6550 1.397 . S
C6551 C6552 1.334 . S
C6552 H6523 0.950 . S
C6552 C6551 1.334 . S
C6552 C6553 1.287 . S
C6553 C6552 1.287 . S
C6553 C6554 1.524 . S
C6553 H6556 0.999 . S
C6554 H6524 0.950 . S
C6554 C6553 1.524 . S
C6554 C6555 1.415 . S
C6555 H6525 0.950 . S
C6555 C6550 1.363 . S
C6555 C6554 1.415 . S
H6556 C6553 0.999 . S
H6557 C6538 0.913 . S
H6558 C6576 0.951 . S
H6559 C6578 0.951 . S
H6560 C6580 0.950 . S
H6561 C6581 0.950 . S
H6562 C6583 0.950 . S
H6563 C6586 0.950 . S
H6564 C6587 0.950 . S
H6565 C6589 0.950 . S
H6566 C6590 0.950 . S
H6567 C6591 0.951 . S
H6568 C6593 0.951 . S
H6569 C6595 0.950 . S
H6570 C6596 0.950 . S
H6571 C6598 0.950 . S
H6572 C6601 0.950 . S
H6573 C6602 0.950 . S
H6574 C6604 0.950 . S
H6575 C6605 0.950 . S
C6576 H6558 0.951 . S
C6576 C6577 1.366 . S
C6576 C6578 1.388 . S
C6577 C6576 1.366 . S
C6577 C6581 1.385 . S
C6578 H6559 0.951 . S
C6578 C6576 1.388 . S
C6578 C6579 1.366 . S
C6579 C6578 1.366 . S
C6579 C6580 1.414 . S
C6579 C6582 1.499 . S
C6580 H6560 0.950 . S
C6580 C6579 1.414 . S
C6580 C6581 1.374 . S
C6581 H6561 0.950 . S
C6581 C6577 1.385 . S
C6581 C6580 1.374 . S
C6582 C6579 1.499 . S
C6582 C6583 1.373 . S
C6582 C6584 1.389 . S
C6583 H6562 0.950 . S
C6583 C6582 1.373 . S
C6583 C6599 1.377 . S
C6584 C6582 1.389 . S
C6584 C6585 1.524 . S
C6584 C6598 1.377 . S
C6585 C6584 1.524 . S
C6585 C6586 1.397 . S
C6585 C6590 1.363 . S
C6586 H6563 0.950 . S
C6586 C6585 1.397 . S
C6586 C6587 1.334 . S
C6587 H6564 0.950 . S
C6587 C6586 1.334 . S
C6587 C6588 1.287 . S
C6588 C6587 1.287 . S
C6588 C6589 1.524 . S
C6588 H6607 0.913 . S
C6589 H6565 0.950 . S
C6589 C6588 1.524 . S
C6589 C6590 1.415 . S
C6590 H6566 0.950 . S
C6590 C6585 1.363 . S
C6590 C6589 1.415 . S
C6591 H6567 0.951 . S
C6591 C6592 1.366 . S
C6591 C6593 1.388 . S
C6592 C6591 1.366 . S
C6592 C6596 1.385 . S
C6593 H6568 0.951 . S
C6593 C6591 1.388 . S
C6593 C6594 1.366 . S
C6594 C6593 1.366 . S
C6594 C6595 1.414 . S
C6594 C6597 1.499 . S
C6595 H6569 0.950 . S
C6595 C6594 1.414 . S
C6595 C6596 1.374 . S
C6596 H6570 0.950 . S
C6596 C6592 1.385 . S
C6596 C6595 1.374 . S
C6597 C6594 1.499 . S
C6597 C6598 1.373 . S
C6597 C6599 1.389 . S
C6598 H6571 0.950 . S
C6598 C6584 1.377 . S
C6598 C6597 1.373 . S
C6599 C6583 1.377 . S
C6599 C6597 1.389 . S
C6599 C6600 1.524 . S
C6600 C6599 1.524 . S
C6600 C6601 1.397 . S
C6600 C6605 1.363 . S
C6601 H6572 0.950 . S
C6601 C6600 1.397 . S
C6601 C6602 1.334 . S
C6602 H6573 0.950 . S
C6602 C6601 1.334 . S
C6602 C6603 1.287 . S
C6603 C6602 1.287 . S
C6603 C6604 1.524 . S
C6603 H6606 0.999 . S
C6604 H6574 0.950 . S
C6604 C6603 1.524 . S
C6604 C6605 1.415 . S
C6605 H6575 0.950 . S
C6605 C6600 1.363 . S
C6605 C6604 1.415 . S
H6606 C6603 0.999 . S
H6607 C6588 0.913 . S
H6608 C6626 0.951 . S
H6609 C6628 0.951 . S
H6610 C6630 0.950 . S
H6611 C6631 0.950 . S
H6612 C6633 0.950 . S
H6613 C6636 0.950 . S
H6614 C6637 0.950 . S
H6615 C6639 0.950 . S
H6616 C6640 0.950 . S
H6617 C6641 0.951 . S
H6618 C6643 0.951 . S
H6619 C6645 0.950 . S
H6620 C6646 0.950 . S
H6621 C6648 0.950 . S
H6622 C6651 0.950 . S
H6623 C6652 0.950 . S
H6624 C6654 0.950 . S
H6625 C6655 0.950 . S
C6626 H6608 0.951 . S
C6626 C6627 1.366 . S
C6626 C6628 1.388 . S
C6627 C6626 1.366 . S
C6627 C6631 1.385 . S
C6628 H6609 0.951 . S
C6628 C6626 1.388 . S
C6628 C6629 1.366 . S
C6629 C6628 1.366 . S
C6629 C6630 1.414 . S
C6629 C6632 1.499 . S
C6630 H6610 0.950 . S
C6630 C6629 1.414 . S
C6630 C6631 1.374 . S
C6631 H6611 0.950 . S
C6631 C6627 1.385 . S
C6631 C6630 1.374 . S
C6632 C6629 1.499 . S
C6632 C6633 1.373 . S
C6632 C6634 1.389 . S
C6633 H6612 0.950 . S
C6633 C6632 1.373 . S
C6633 C6649 1.377 . S
C6634 C6632 1.389 . S
C6634 C6635 1.524 . S
C6634 C6648 1.377 . S
C6635 C6634 1.524 . S
C6635 C6636 1.397 . S
C6635 C6640 1.363 . S
C6636 H6613 0.950 . S
C6636 C6635 1.397 . S
C6636 C6637 1.334 . S
C6637 H6614 0.950 . S
C6637 C6636 1.334 . S
C6637 C6638 1.287 . S
C6638 C6637 1.287 . S
C6638 C6639 1.524 . S
C6638 H6657 0.913 . S
C6639 H6615 0.950 . S
C6639 C6638 1.524 . S
C6639 C6640 1.415 . S
C6640 H6616 0.950 . S
C6640 C6635 1.363 . S
C6640 C6639 1.415 . S
C6641 H6617 0.951 . S
C6641 C6642 1.366 . S
C6641 C6643 1.388 . S
C6642 C6641 1.366 . S
C6642 C6646 1.385 . S
C6643 H6618 0.951 . S
C6643 C6641 1.388 . S
C6643 C6644 1.366 . S
C6644 C6643 1.366 . S
C6644 C6645 1.414 . S
C6644 C6647 1.499 . S
C6645 H6619 0.950 . S
C6645 C6644 1.414 . S
C6645 C6646 1.374 . S
C6646 H6620 0.950 . S
C6646 C6642 1.385 . S
C6646 C6645 1.374 . S
C6647 C6644 1.499 . S
C6647 C6648 1.373 . S
C6647 C6649 1.389 . S
C6648 H6621 0.950 . S
C6648 C6634 1.377 . S
C6648 C6647 1.373 . S
C6649 C6633 1.377 . S
C6649 C6647 1.389 . S
C6649 C6650 1.524 . S
C6650 C6649 1.524 . S
C6650 C6651 1.397 . S
C6650 C6655 1.363 . S
C6651 H6622 0.950 . S
C6651 C6650 1.397 . S
C6651 C6652 1.334 . S
C6652 H6623 0.950 . S
C6652 C6651 1.334 . S
C6652 C6653 1.287 . S
C6653 C6652 1.287 . S
C6653 C6654 1.524 . S
C6653 H6656 0.999 . S
C6654 H6624 0.950 . S
C6654 C6653 1.524 . S
C6654 C6655 1.415 . S
C6655 H6625 0.950 . S
C6655 C6650 1.363 . S
C6655 C6654 1.415 . S
H6656 C6653 0.999 . S
H6657 C6638 0.913 . S
H6658 C6676 0.951 . S
H6659 C6678 0.951 . S
H6660 C6680 0.950 . S
H6661 C6681 0.950 . S
H6662 C6683 0.950 . S
H6663 C6686 0.950 . S
H6664 C6687 0.950 . S
H6665 C6689 0.950 . S
H6666 C6690 0.950 . S
H6667 C6691 0.951 . S
H6668 C6693 0.951 . S
H6669 C6695 0.950 . S
H6670 C6696 0.950 . S
H6671 C6698 0.950 . S
H6672 C6701 0.950 . S
H6673 C6702 0.950 . S
H6674 C6704 0.950 . S
H6675 C6705 0.950 . S
C6676 H6658 0.951 . S
C6676 C6677 1.366 . S
C6676 C6678 1.388 . S
C6677 C6676 1.366 . S
C6677 C6681 1.385 . S
C6678 H6659 0.951 . S
C6678 C6676 1.388 . S
C6678 C6679 1.366 . S
C6679 C6678 1.366 . S
C6679 C6680 1.414 . S
C6679 C6682 1.499 . S
C6680 H6660 0.950 . S
C6680 C6679 1.414 . S
C6680 C6681 1.374 . S
C6681 H6661 0.950 . S
C6681 C6677 1.385 . S
C6681 C6680 1.374 . S
C6682 C6679 1.499 . S
C6682 C6683 1.373 . S
C6682 C6684 1.389 . S
C6683 H6662 0.950 . S
C6683 C6682 1.373 . S
C6683 C6699 1.377 . S
C6684 C6682 1.389 . S
C6684 C6685 1.524 . S
C6684 C6698 1.377 . S
C6685 C6684 1.524 . S
C6685 C6686 1.397 . S
C6685 C6690 1.363 . S
C6686 H6663 0.950 . S
C6686 C6685 1.397 . S
C6686 C6687 1.334 . S
C6687 H6664 0.950 . S
C6687 C6686 1.334 . S
C6687 C6688 1.287 . S
C6688 C6687 1.287 . S
C6688 C6689 1.524 . S
C6688 H6707 0.913 . S
C6689 H6665 0.950 . S
C6689 C6688 1.524 . S
C6689 C6690 1.415 . S
C6690 H6666 0.950 . S
C6690 C6685 1.363 . S
C6690 C6689 1.415 . S
C6691 H6667 0.951 . S
C6691 C6692 1.366 1_565 S
C6691 C6693 1.388 . S
C6692 C6691 1.366 1_545 S
C6692 C6696 1.385 . S
C6693 H6668 0.951 . S
C6693 C6691 1.388 . S
C6693 C6694 1.366 . S
C6694 C6693 1.366 . S
C6694 C6695 1.414 . S
C6694 C6697 1.499 . S
C6695 H6669 0.950 . S
C6695 C6694 1.414 . S
C6695 C6696 1.374 1_565 S
C6696 H6670 0.950 . S
C6696 C6692 1.385 . S
C6696 C6695 1.374 1_545 S
C6697 C6694 1.499 . S
C6697 C6698 1.373 . S
C6697 C6699 1.389 . S
C6698 H6671 0.950 . S
C6698 C6684 1.377 . S
C6698 C6697 1.373 . S
C6699 C6683 1.377 . S
C6699 C6697 1.389 . S
C6699 C6700 1.524 . S
C6700 C6699 1.524 . S
C6700 C6701 1.397 1_565 S
C6700 C6705 1.363 . S
C6701 H6672 0.950 . S
C6701 C6700 1.397 1_545 S
C6701 C6702 1.334 . S
C6702 H6673 0.950 . S
C6702 C6701 1.334 . S
C6702 C6703 1.287 . S
C6703 C6702 1.287 . S
C6703 C6704 1.524 1_545 S
C6703 H6706 0.999 . S
C6704 H6674 0.950 . S
C6704 C6703 1.524 1_565 S
C6704 C6705 1.415 . S
C6705 H6675 0.950 . S
C6705 C6700 1.363 . S
C6705 C6704 1.415 . S
H6706 C6703 0.999 . S
H6707 C6688 0.913 . S
H6708 C6726 0.951 . S
H6709 C6728 0.951 . S
H6710 C6730 0.950 . S
H6711 C6731 0.950 . S
H6712 C6733 0.950 . S
H6713 C6736 0.950 . S
H6714 C6737 0.950 . S
H6715 C6739 0.950 . S
H6716 C6740 0.950 . S
H6717 C6741 0.951 . S
H6718 C6743 0.951 . S
H6719 C6745 0.950 . S
H6720 C6746 0.950 . S
H6721 C6748 0.950 . S
H6722 C6751 0.950 . S
H6723 C6752 0.950 . S
H6724 C6754 0.950 . S
H6725 C6755 0.950 . S
C6726 H6708 0.951 . S
C6726 C6727 1.366 . S
C6726 C6728 1.388 . S
C6727 C6726 1.366 . S
C6727 C6731 1.385 . S
C6728 H6709 0.951 . S
C6728 C6726 1.388 . S
C6728 C6729 1.366 . S
C6729 C6728 1.366 . S
C6729 C6730 1.414 . S
C6729 C6732 1.499 . S
C6730 H6710 0.950 . S
C6730 C6729 1.414 . S
C6730 C6731 1.374 . S
C6731 H6711 0.950 . S
C6731 C6727 1.385 . S
C6731 C6730 1.374 . S
C6732 C6729 1.499 . S
C6732 C6733 1.373 . S
C6732 C6734 1.389 . S
C6733 H6712 0.950 . S
C6733 C6732 1.373 . S
C6733 C6749 1.377 . S
C6734 C6732 1.389 . S
C6734 C6735 1.524 . S
C6734 C6748 1.377 . S
C6735 C6734 1.524 . S
C6735 C6736 1.397 . S
C6735 C6740 1.363 . S
C6736 H6713 0.950 . S
C6736 C6735 1.397 . S
C6736 C6737 1.334 . S
C6737 H6714 0.950 . S
C6737 C6736 1.334 . S
C6737 C6738 1.287 . S
C6738 C6737 1.287 . S
C6738 C6739 1.524 . S
C6738 H6757 0.913 . S
C6739 H6715 0.950 . S
C6739 C6738 1.524 . S
C6739 C6740 1.415 . S
C6740 H6716 0.950 . S
C6740 C6735 1.363 . S
C6740 C6739 1.415 . S
C6741 H6717 0.951 . S
C6741 C6742 1.366 . S
C6741 C6743 1.388 . S
C6742 C6741 1.366 . S
C6742 C6746 1.385 . S
C6743 H6718 0.951 . S
C6743 C6741 1.388 . S
C6743 C6744 1.366 . S
C6744 C6743 1.366 . S
C6744 C6745 1.414 . S
C6744 C6747 1.499 . S
C6745 H6719 0.950 . S
C6745 C6744 1.414 . S
C6745 C6746 1.374 . S
C6746 H6720 0.950 . S
C6746 C6742 1.385 . S
C6746 C6745 1.374 . S
C6747 C6744 1.499 . S
C6747 C6748 1.373 . S
C6747 C6749 1.389 . S
C6748 H6721 0.950 . S
C6748 C6734 1.377 . S
C6748 C6747 1.373 . S
C6749 C6733 1.377 . S
C6749 C6747 1.389 . S
C6749 C6750 1.524 . S
C6750 C6749 1.524 . S
C6750 C6751 1.397 . S
C6750 C6755 1.363 . S
C6751 H6722 0.950 . S
C6751 C6750 1.397 . S
C6751 C6752 1.334 . S
C6752 H6723 0.950 . S
C6752 C6751 1.334 . S
C6752 C6753 1.287 . S
C6753 C6752 1.287 . S
C6753 C6754 1.524 . S
C6753 H6756 0.999 . S
C6754 H6724 0.950 . S
C6754 C6753 1.524 . S
C6754 C6755 1.415 . S
C6755 H6725 0.950 . S
C6755 C6750 1.363 . S
C6755 C6754 1.415 . S
H6756 C6753 0.999 . S
H6757 C6738 0.913 . S
H6758 C6776 0.951 . S
H6759 C6778 0.951 . S
H6760 C6780 0.950 . S
H6761 C6781 0.950 . S
H6762 C6783 0.950 . S
H6763 C6786 0.950 . S
H6764 C6787 0.950 . S
H6765 C6789 0.950 . S
H6766 C6790 0.950 . S
H6767 C6791 0.951 . S
H6768 C6793 0.951 . S
H6769 C6795 0.950 . S
H6770 C6796 0.950 . S
H6771 C6798 0.950 . S
H6772 C6801 0.950 . S
H6773 C6802 0.950 . S
H6774 C6804 0.967 . S
H6775 C6805 0.950 . S
C6776 H6758 0.951 . S
C6776 C6777 1.366 . S
C6776 C6778 1.388 . S
C6777 C6776 1.366 . S
C6777 C6781 1.385 . S
C6778 H6759 0.951 . S
C6778 C6776 1.388 . S
C6778 C6779 1.366 . S
C6779 C6778 1.366 . S
C6779 C6780 1.414 . S
C6779 C6782 1.499 . S
C6780 H6760 0.950 . S
C6780 C6779 1.414 . S
C6780 C6781 1.374 . S
C6781 H6761 0.950 . S
C6781 C6777 1.385 . S
C6781 C6780 1.374 . S
C6782 C6779 1.499 . S
C6782 C6783 1.373 . S
C6782 C6784 1.389 . S
C6783 H6762 0.950 . S
C6783 C6782 1.373 . S
C6783 C6799 1.377 . S
C6784 C6782 1.389 . S
C6784 C6785 1.524 . S
C6784 C6798 1.377 . S
C6785 C6784 1.524 . S
C6785 C6786 1.397 . S
C6785 C6790 1.363 . S
C6786 H6763 0.950 . S
C6786 C6785 1.397 . S
C6786 C6787 1.334 . S
C6787 H6764 0.950 . S
C6787 C6786 1.334 . S
C6787 C6788 1.287 . S
C6788 C6787 1.287 . S
C6788 C6789 1.524 . S
C6788 H6807 0.913 . S
C6789 H6765 0.950 . S
C6789 C6788 1.524 . S
C6789 C6790 1.415 . S
C6790 H6766 0.950 . S
C6790 C6785 1.363 . S
C6790 C6789 1.415 . S
C6791 H6767 0.951 . S
C6791 C6792 1.366 . S
C6791 C6793 1.388 . S
C6792 C6791 1.366 . S
C6792 C6796 1.385 . S
C6793 H6768 0.951 . S
C6793 C6791 1.388 . S
C6793 C6794 1.366 . S
C6794 C6793 1.366 . S
C6794 C6795 1.414 . S
C6794 C6797 1.499 . S
C6795 H6769 0.950 . S
C6795 C6794 1.414 . S
C6795 C6796 1.374 . S
C6796 H6770 0.950 . S
C6796 C6792 1.385 . S
C6796 C6795 1.374 . S
C6797 C6794 1.499 . S
C6797 C6798 1.373 . S
C6797 C6799 1.389 . S
C6798 H6771 0.950 . S
C6798 C6784 1.377 . S
C6798 C6797 1.373 . S
C6799 C6783 1.377 . S
C6799 C6797 1.389 . S
C6799 C6800 1.524 . S
C6800 C6799 1.524 . S
C6800 C6801 1.397 1_554 S
C6800 C6805 1.363 . S
C6801 H6772 0.950 . S
C6801 C6800 1.397 1_556 S
C6801 C6802 1.334 . S
C6802 H6773 0.950 . S
C6802 C6801 1.334 . S
C6802 C6803 1.287 . S
C6803 C6802 1.287 . S
C6803 C6804 1.495 1_556 S
C6803 H6806 0.974 1_545 S
C6804 H6774 0.967 . S
C6804 C6803 1.495 1_554 S
C6804 C6805 1.426 . S
C6805 H6775 0.950 . S
C6805 C6800 1.363 . S
C6805 C6804 1.426 . S
H6806 C6803 0.974 1_565 S
H6807 C6788 0.913 . S
H6808 C6826 0.951 . S
H6809 C6828 0.951 . S
H6810 C6830 0.950 . S
H6811 C6831 0.950 . S
H6812 C6833 0.950 . S
H6813 C6836 0.950 . S
H6814 C6837 0.950 . S
H6815 C6839 0.950 . S
H6816 C6840 0.950 . S
H6817 C6841 0.951 . S
H6818 C6843 0.951 . S
H6819 C6845 0.950 . S
H6820 C6846 0.950 . S
H6821 C6848 0.950 . S
H6822 C6851 0.950 . S
H6823 C6852 0.950 . S
H6824 C6854 0.950 . S
H6825 C6855 0.950 . S
C6826 H6808 0.951 . S
C6826 C6827 1.366 . S
C6826 C6828 1.388 . S
C6827 C6826 1.366 . S
C6827 C6831 1.385 . S
C6828 H6809 0.951 . S
C6828 C6826 1.388 . S
C6828 C6829 1.366 . S
C6829 C6828 1.366 . S
C6829 C6830 1.414 . S
C6829 C6832 1.499 . S
C6830 H6810 0.950 . S
C6830 C6829 1.414 . S
C6830 C6831 1.374 . S
C6831 H6811 0.950 . S
C6831 C6827 1.385 . S
C6831 C6830 1.374 . S
C6832 C6829 1.499 . S
C6832 C6833 1.373 . S
C6832 C6834 1.389 . S
C6833 H6812 0.950 . S
C6833 C6832 1.373 . S
C6833 C6849 1.377 . S
C6834 C6832 1.389 . S
C6834 C6835 1.524 . S
C6834 C6848 1.377 . S
C6835 C6834 1.524 . S
C6835 C6836 1.397 . S
C6835 C6840 1.363 . S
C6836 H6813 0.950 . S
C6836 C6835 1.397 . S
C6836 C6837 1.334 . S
C6837 H6814 0.950 . S
C6837 C6836 1.334 . S
C6837 C6838 1.287 . S
C6838 C6837 1.287 . S
C6838 C6839 1.524 . S
C6838 H6857 0.913 . S
C6839 H6815 0.950 . S
C6839 C6838 1.524 . S
C6839 C6840 1.415 . S
C6840 H6816 0.950 . S
C6840 C6835 1.363 . S
C6840 C6839 1.415 . S
C6841 H6817 0.951 . S
C6841 C6842 1.366 . S
C6841 C6843 1.388 . S
C6842 C6841 1.366 . S
C6842 C6846 1.385 . S
C6843 H6818 0.951 . S
C6843 C6841 1.388 . S
C6843 C6844 1.366 . S
C6844 C6843 1.366 . S
C6844 C6845 1.414 . S
C6844 C6847 1.499 . S
C6845 H6819 0.950 . S
C6845 C6844 1.414 . S
C6845 C6846 1.374 . S
C6846 H6820 0.950 . S
C6846 C6842 1.385 . S
C6846 C6845 1.374 . S
C6847 C6844 1.499 . S
C6847 C6848 1.373 . S
C6847 C6849 1.389 . S
C6848 H6821 0.950 . S
C6848 C6834 1.377 . S
C6848 C6847 1.373 . S
C6849 C6833 1.377 . S
C6849 C6847 1.389 . S
C6849 C6850 1.524 . S
C6850 C6849 1.524 . S
C6850 C6851 1.397 . S
C6850 C6855 1.363 . S
C6851 H6822 0.950 . S
C6851 C6850 1.397 . S
C6851 C6852 1.334 . S
C6852 H6823 0.950 . S
C6852 C6851 1.334 . S
C6852 C6853 1.287 . S
C6853 C6852 1.287 . S
C6853 C6854 1.524 . S
C6853 H6856 0.999 . S
C6854 H6824 0.950 . S
C6854 C6853 1.524 . S
C6854 C6855 1.415 . S
C6855 H6825 0.950 . S
C6855 C6850 1.363 . S
C6855 C6854 1.415 . S
H6856 C6853 0.999 . S
H6857 C6838 0.913 . S
H6858 C6876 0.951 . S
H6859 C6878 0.951 . S
H6860 C6880 0.950 . S
H6861 C6881 0.950 . S
H6862 C6883 0.950 . S
H6863 C6886 0.950 . S
H6864 C6887 0.950 . S
H6865 C6889 0.950 . S
H6866 C6890 0.950 . S
H6867 C6891 0.951 . S
H6868 C6893 0.951 . S
H6869 C6895 0.950 . S
H6870 C6896 0.950 . S
H6871 C6898 0.950 . S
H6872 C6901 0.950 1_554 S
H6873 C6902 0.950 . S
H6874 C6904 0.950 . S
H6875 C6905 0.950 . S
C6876 H6858 0.951 . S
C6876 C6877 1.366 . S
C6876 C6878 1.388 . S
C6877 C6876 1.366 . S
C6877 C6881 1.385 . S
C6878 H6859 0.951 . S
C6878 C6876 1.388 . S
C6878 C6879 1.366 . S
C6879 C6878 1.366 . S
C6879 C6880 1.414 . S
C6879 C6882 1.499 . S
C6880 H6860 0.950 . S
C6880 C6879 1.414 . S
C6880 C6881 1.374 . S
C6881 H6861 0.950 . S
C6881 C6877 1.385 . S
C6881 C6880 1.374 . S
C6882 C6879 1.499 . S
C6882 C6883 1.373 . S
C6882 C6884 1.389 . S
C6883 H6862 0.950 . S
C6883 C6882 1.373 . S
C6883 C6899 1.377 . S
C6884 C6882 1.389 . S
C6884 C6885 1.524 . S
C6884 C6898 1.377 . S
C6885 C6884 1.524 . S
C6885 C6886 1.397 . S
C6885 C6890 1.363 . S
C6886 H6863 0.950 . S
C6886 C6885 1.397 . S
C6886 C6887 1.334 . S
C6887 H6864 0.950 . S
C6887 C6886 1.334 . S
C6887 C6888 1.287 . S
C6888 C6887 1.287 . S
C6888 C6889 1.524 . S
C6888 H6907 0.913 . S
C6889 H6865 0.950 . S
C6889 C6888 1.524 . S
C6889 C6890 1.415 . S
C6890 H6866 0.950 . S
C6890 C6885 1.363 . S
C6890 C6889 1.415 . S
C6891 H6867 0.951 . S
C6891 C6892 1.366 1_556 S
C6891 C6893 1.388 . S
C6892 C6891 1.366 1_554 S
C6892 C6896 1.385 . S
C6893 H6868 0.951 . S
C6893 C6891 1.388 . S
C6893 C6894 1.366 1_556 S
C6894 C6893 1.366 1_554 S
C6894 C6895 1.414 . S
C6894 C6897 1.499 . S
C6895 H6869 0.950 . S
C6895 C6894 1.414 . S
C6895 C6896 1.374 . S
C6896 H6870 0.950 . S
C6896 C6892 1.385 . S
C6896 C6895 1.374 . S
C6897 C6894 1.499 . S
C6897 C6898 1.373 . S
C6897 C6899 1.389 . S
C6898 H6871 0.950 . S
C6898 C6884 1.377 . S
C6898 C6897 1.373 . S
C6899 C6883 1.377 . S
C6899 C6897 1.389 . S
C6899 C6900 1.524 1_554 S
C6900 C6899 1.524 1_556 S
C6900 C6901 1.397 . S
C6900 C6905 1.363 . S
C6901 H6872 0.950 1_556 S
C6901 C6900 1.397 . S
C6901 C6902 1.334 . S
C6902 H6873 0.950 . S
C6902 C6901 1.334 . S
C6902 C6903 1.287 . S
C6903 C6902 1.287 . S
C6903 C6904 1.524 . S
C6903 H6906 0.999 . S
C6904 H6874 0.950 . S
C6904 C6903 1.524 . S
C6904 C6905 1.415 . S
C6905 H6875 0.950 . S
C6905 C6900 1.363 . S
C6905 C6904 1.415 . S
H6906 C6903 0.999 . S
H6907 C6888 0.913 . S
H6908 C6926 0.951 . S
H6909 C6928 0.951 . S
H6910 C6930 0.950 . S
H6911 C6931 0.950 . S
H6912 C6933 0.950 . S
H6913 C6936 0.950 . S
H6914 C6937 0.950 . S
H6915 C6939 0.950 . S
H6916 C6940 0.950 . S
H6917 C6941 0.951 . S
H6918 C6943 0.951 . S
H6919 C6945 0.950 . S
H6920 C6946 0.950 . S
H6921 C6948 0.950 . S
H6922 C6951 0.950 . S
H6923 C6952 0.950 . S
H6924 C6954 0.950 . S
H6925 C6955 0.950 . S
C6926 H6908 0.951 . S
C6926 C6927 1.366 . S
C6926 C6928 1.388 1_545 S
C6927 C6926 1.366 . S
C6927 C6931 1.385 1_545 S
C6928 H6909 0.951 . S
C6928 C6926 1.388 1_565 S
C6928 C6929 1.366 . S
C6929 C6928 1.366 . S
C6929 C6930 1.414 . S
C6929 C6932 1.499 . S
C6930 H6910 0.950 . S
C6930 C6929 1.414 . S
C6930 C6931 1.374 . S
C6931 H6911 0.950 . S
C6931 C6927 1.385 1_565 S
C6931 C6930 1.374 . S
C6932 C6929 1.499 . S
C6932 C6933 1.373 . S
C6932 C6934 1.389 . S
C6933 H6912 0.950 . S
C6933 C6932 1.373 . S
C6933 C6949 1.377 . S
C6934 C6932 1.389 . S
C6934 C6935 1.524 . S
C6934 C6948 1.377 . S
C6935 C6934 1.524 . S
C6935 C6936 1.397 . S
C6935 C6940 1.363 . S
C6936 H6913 0.950 . S
C6936 C6935 1.397 . S
C6936 C6937 1.334 . S
C6937 H6914 0.950 . S
C6937 C6936 1.334 . S
C6937 C6938 1.287 . S
C6938 C6937 1.287 . S
C6938 C6939 1.524 . S
C6938 H6957 0.913 . S
C6939 H6915 0.950 . S
C6939 C6938 1.524 . S
C6939 C6940 1.415 . S
C6940 H6916 0.950 . S
C6940 C6935 1.363 . S
C6940 C6939 1.415 . S
C6941 H6917 0.951 . S
C6941 C6942 1.366 . S
C6941 C6943 1.388 . S
C6942 C6941 1.366 . S
C6942 C6946 1.385 . S
C6943 H6918 0.951 . S
C6943 C6941 1.388 . S
C6943 C6944 1.366 . S
C6944 C6943 1.366 . S
C6944 C6945 1.414 . S
C6944 C6947 1.499 . S
C6945 H6919 0.950 . S
C6945 C6944 1.414 . S
C6945 C6946 1.374 . S
C6946 H6920 0.950 . S
C6946 C6942 1.385 . S
C6946 C6945 1.374 . S
C6947 C6944 1.499 . S
C6947 C6948 1.373 . S
C6947 C6949 1.389 . S
C6948 H6921 0.950 . S
C6948 C6934 1.377 . S
C6948 C6947 1.373 . S
C6949 C6933 1.377 . S
C6949 C6947 1.389 . S
C6949 C6950 1.524 . S
C6950 C6949 1.524 . S
C6950 C6951 1.397 . S
C6950 C6955 1.363 . S
C6951 H6922 0.950 . S
C6951 C6950 1.397 . S
C6951 C6952 1.334 . S
C6952 H6923 0.950 . S
C6952 C6951 1.334 . S
C6952 C6953 1.287 . S
C6953 C6952 1.287 . S
C6953 C6954 1.524 . S
C6953 H6956 0.999 . S
C6954 H6924 0.950 . S
C6954 C6953 1.524 . S
C6954 C6955 1.415 . S
C6955 H6925 0.950 . S
C6955 C6950 1.363 . S
C6955 C6954 1.415 . S
H6956 C6953 0.999 . S
H6957 C6938 0.913 . S
H6958 C6976 0.951 . S
H6959 C6978 0.951 . S
H6960 C6980 0.950 . S
H6961 C6981 0.950 . S
H6962 C6983 0.950 . S
H6963 C6986 0.950 . S
H6964 C6987 0.950 . S
H6965 C6989 0.950 . S
H6966 C6990 0.950 . S
H6967 C6991 0.951 . S
H6968 C6993 0.951 . S
H6969 C6995 0.950 . S
H6970 C6996 0.950 . S
H6971 C6998 0.950 . S
H6972 C7001 0.950 . S
H6973 C7002 0.950 . S
H6974 C7004 0.950 . S
H6975 C7005 0.950 . S
C6976 H6958 0.951 . S
C6976 C6977 1.366 . S
C6976 C6978 1.388 . S
C6977 C6976 1.366 . S
C6977 C6981 1.385 . S
C6978 H6959 0.951 . S
C6978 C6976 1.388 . S
C6978 C6979 1.366 . S
C6979 C6978 1.366 . S
C6979 C6980 1.414 . S
C6979 C6982 1.499 . S
C6980 H6960 0.950 . S
C6980 C6979 1.414 . S
C6980 C6981 1.374 . S
C6981 H6961 0.950 . S
C6981 C6977 1.385 . S
C6981 C6980 1.374 . S
C6982 C6979 1.499 . S
C6982 C6983 1.373 . S
C6982 C6984 1.389 . S
C6983 H6962 0.950 . S
C6983 C6982 1.373 . S
C6983 C6999 1.377 . S
C6984 C6982 1.389 . S
C6984 C6985 1.524 . S
C6984 C6998 1.377 . S
C6985 C6984 1.524 . S
C6985 C6986 1.397 . S
C6985 C6990 1.363 . S
C6986 H6963 0.950 . S
C6986 C6985 1.397 . S
C6986 C6987 1.334 . S
C6987 H6964 0.950 . S
C6987 C6986 1.334 . S
C6987 C6988 1.287 . S
C6988 C6987 1.287 . S
C6988 C6989 1.524 . S
C6988 H7007 0.913 . S
C6989 H6965 0.950 . S
C6989 C6988 1.524 . S
C6989 C6990 1.415 . S
C6990 H6966 0.950 . S
C6990 C6985 1.363 . S
C6990 C6989 1.415 . S
C6991 H6967 0.951 . S
C6991 C6992 1.366 . S
C6991 C6993 1.388 . S
C6992 C6991 1.366 . S
C6992 C6996 1.385 . S
C6993 H6968 0.951 . S
C6993 C6991 1.388 . S
C6993 C6994 1.366 . S
C6994 C6993 1.366 . S
C6994 C6995 1.414 . S
C6994 C6997 1.499 . S
C6995 H6969 0.950 . S
C6995 C6994 1.414 . S
C6995 C6996 1.374 . S
C6996 H6970 0.950 . S
C6996 C6992 1.385 . S
C6996 C6995 1.374 . S
C6997 C6994 1.499 . S
C6997 C6998 1.373 . S
C6997 C6999 1.389 . S
C6998 H6971 0.950 . S
C6998 C6984 1.377 . S
C6998 C6997 1.373 . S
C6999 C6983 1.377 . S
C6999 C6997 1.389 . S
C6999 C7000 1.524 . S
C7000 C6999 1.524 . S
C7000 C7001 1.397 . S
C7000 C7005 1.363 . S
C7001 H6972 0.950 . S
C7001 C7000 1.397 . S
C7001 C7002 1.334 . S
C7002 H6973 0.950 . S
C7002 C7001 1.334 . S
C7002 C7003 1.287 . S
C7003 C7002 1.287 . S
C7003 C7004 1.524 . S
C7003 H7006 0.999 . S
C7004 H6974 0.950 . S
C7004 C7003 1.524 . S
C7004 C7005 1.415 . S
C7005 H6975 0.950 . S
C7005 C7000 1.363 . S
C7005 C7004 1.415 . S
H7006 C7003 0.999 . S
H7007 C6988 0.913 . S
C2227 C255 1.575 . S
C2242 C920 1.467 . S
C2277 C147 2.184 . S
C2292 C1011 2.139 . S
C2327 C184 1.375 . S
C2342 C1088 1.315 1_565 S
C2392 C1186 1.575 . S
C2377 C220 1.728 . S
C2427 C40 1.547 . S
C2442 C1270 1.473 . S
C2492 C1342 0.925 . S
C2477 C74 0.979 . S
C2542 C1431 0.672 . S
C2527 C110 0.672 . S
C2577 C14 1.199 . S
C2592 C1508 1.089 . S
C2642 C927 1.992 . S
C2627 C579 2.093 . S
C2677 C616 0.585 . S
C2692 C1018 0.643 . S
C2742 C1095 1.221 . S
C2727 C687 1.262 . S
C2792 C1172 1.542 . S
C2777 C436 1.623 . S
C2827 C580 2.036 . S
C2842 C1256 1.904 . S
C2892 C1358 1.067 . S
C2877 C615 1.135 . S
C2942 C1438 0.740 . S
C2927 C688 0.739 . S
C2992 C1515 1.376 . S
C2977 C435 1.485 . S
C3042 C934 1.434 . S
C3027 C410 1.521 . S
C3077 C722 2.066 . S
C3092 C1599 1.991 . S
C3142 C1687 2.229 . S
C3127 C842 2.326 . S
C3192 C1760 0.505 . S
C3177 C794 0.383 . S
C3227 C302 0.709 . S
C3242 C1522 0.713 . S
C3277 C338 1.434 . S
C3292 C1102 1.374 . S
C3327 C830 2.426 . S
C3342 C1851 2.351 . S
C3392 C1928 0.781 . S
C3377 C758 0.786 . S
C3442 C931 1.403 . S
C3427 C158 1.436 . S
C3492 C1946 2.115 . S
C3477 C254 2.177 . S
C3527 C218 1.370 . S
C3542 C1099 1.311 . S
C3577 C194 1.618 . S
C3592 C1846 1.548 . S
C3642 C1258 1.473 . S
C3627 C3 1.543 . S
C3677 C111 0.841 . S
C3692 C1690 0.813 . S
C3742 C1442 0.667 1_556 S
C3727 C76 0.665 . S
C3792 C2023 1.163 . S
C3777 C50 1.205 . S
C3842 C938 1.929 . S
C3827 C364 2.026 . S
C3892 C1930 0.604 . S
C3877 C795 0.539 . S
C3927 C292 1.201 . S
C3942 C1106 1.157 . S
C3977 C723 1.571 . S
C3992 C1855 1.463 . S
C4027 C363 2.036 . S
C4042 C1267 1.870 . S
C4092 C1683 1.042 . S
C4077 C796 1.114 . S
C4127 C291 0.704 . S
C4142 C1426 0.717 . S
C4177 C724 1.466 . S
C4192 C2030 1.364 . S
C4227 C482 1.484 . S
C4242 C922 1.423 1_554 S
C4277 C434 2.028 . S
C4292 C1610 1.958 . S
C4327 C662 2.279 . S
C4342 C1340 2.180 . S
C4377 C614 0.334 . S
C4392 C1771 0.497 . S
C4442 C2014 0.693 . S
C4427 C698 0.703 . S
C4477 C554 1.366 . S
C4492 C1090 1.358 1_565 S
C4542 C1190 2.276 . S
C4527 C650 2.350 . S
C4592 C1015 0.720 . S
C4577 C506 0.708 . S
C4627 C183 1.573 . S
C4642 C2096 1.464 . S
C4692 C1935 2.138 . S
C4677 C219 2.184 . S
C4727 C256 1.371 . S
C4742 C2180 1.309 . S
C4777 C148 1.724 . S
C4792 C1858 1.575 . S
C4827 C122 1.579 . S
C4842 C1606 1.529 . S
C4892 C1678 0.884 . S
C4877 C2 0.929 . S
C4942 C1767 0.612 . S
C4927 C39 0.613 . S
C4992 C2012 1.177 . S
C4977 C86 1.290 . S
C5042 C2103 2.002 . S
C5027 C651 2.104 . S
C5077 C472 0.587 . S
C5092 C1942 0.645 . S
C5142 C2187 1.205 . S
C5127 C507 1.247 . S
C5192 C1844 1.547 . S
C5177 C544 1.627 . S
C5242 C1592 1.908 . S
C5227 C652 2.043 . S
C5277 C471 1.123 . S
C5292 C1694 1.057 . S
C5342 C1774 0.742 . S
C5327 C508 0.737 . S
C5377 C543 1.511 . S
C5392 C2019 1.406 . S
C5442 C2110 1.455 . S
C5427 C806 1.542 . S
C5477 C326 2.038 . S
C5492 C1263 1.966 . S
C5542 C1351 2.201 . S
C5527 C374 2.303 . S
C5592 C1424 0.527 . S
C5577 C398 0.409 . S
C5642 C2026 0.694 . S
C5627 C770 0.687 . S
C5677 C734 1.425 . S
C5692 C2194 1.360 . S
C5742 C1179 2.341 . S
C5727 C362 2.408 . S
C5792 C1004 0.799 . S
C5777 C290 0.809 . S
C5827 C230 1.431 . S
C5842 C2107 1.396 . S
C5892 C1022 2.121 . S
C5877 C182 2.184 . S
C5927 C146 1.369 . S
C5942 C2191 1.312 . S
C5977 C266 1.622 . S
C5992 C1174 1.551 . S
C6027 C75 1.585 . S
C6042 C1594 1.511 . S
C6092 C1354 0.912 . S
C6077 C38 0.963 . S
C6127 C4 0.579 . S
C6142 C1778 0.578 . S
C6177 C112 1.236 . S
C6192 C1519 1.115 . S
C6242 C2114 1.930 . S
C6227 C832 2.026 . S
C6277 C399 0.558 . S
C6292 C1006 0.615 . S
C6342 C2198 1.148 . S
C6327 C760 1.192 . S
C6377 C327 1.567 . S
C6392 C1183 1.460 . S
C6427 C831 2.073 . S
C6442 C1603 1.909 . S
C6492 C1347 1.042 . S
C6477 C400 1.113 . S
C6527 C759 0.717 . S
C6542 C1762 0.727 . S
C6592 C1526 1.379 . S
C6577 C328 1.477 . S
C6642 C2098 1.432 . S
C6627 C626 1.489 . S
C6692 C1274 1.960 1_655 S
C6677 C542 2.033 . S
C6727 C590 2.241 . S
C6742 C1676 2.143 . S
C6792 C1435 0.485 . S
C6777 C470 0.340 . S
C6827 C518 0.673 . S
C6842 C1510 0.660 . S
C6877 C446 1.355 . S
C6892 C2182 1.374 . S
C6942 C1862 2.288 . S
C6927 C578 2.363 . S
C6992 C1939 0.703 . S
C6977 C686 0.684 . S
