# Generated by pormake.
# Topology pyr, (3,6)-cn, num edge types: 1
# Building blocks:
#     Node 0, Type 0, BuildingBlock: OLANEW_clean_sbu_2, # of connection points: 3
#     Node 1, Type 0, BuildingBlock: OLANEW_clean_sbu_2, # of connection points: 3
#     Node 2, Type 0, BuildingBlock: OLANEW_clean_sbu_2, # of connection points: 3
#     Node 3, Type 0, BuildingBlock: OLANEW_clean_sbu_2, # of connection points: 3
#     Node 4, Type 0, BuildingBlock: OLANEW_clean_sbu_2, # of connection points: 3
#     Node 5, Type 0, BuildingBlock: OLANEW_clean_sbu_2, # of connection points: 3
#     Node 6, Type 0, BuildingBlock: OLANEW_clean_sbu_2, # of connection points: 3
#     Node 7, Type 0, BuildingBlock: OLANEW_clean_sbu_2, # of connection points: 3
#     Node 8, Type 1, BuildingBlock: LEVNOQ01_clean_sbu_1, # of connection points: 6
#     Node 9, Type 1, BuildingBlock: LEVNOQ01_clean_sbu_1, # of connection points: 6
#     Node 10, Type 1, BuildingBlock: LEVNOQ01_clean_sbu_1, # of connection points: 6
#     Node 11, Type 1, BuildingBlock: LEVNOQ01_clean_sbu_1, # of connection points: 6
#     Edge 12, Type (0, 1), BuildingBlock: ZUJKAS_clean_linker_0, # of connection points: 2
#     Edge 13, Type (0, 1), BuildingBlock: ZUJKAS_clean_linker_0, # of connection points: 2
#     Edge 14, Type (0, 1), BuildingBlock: ZUJKAS_clean_linker_0, # of connection points: 2
#     Edge 15, Type (0, 1), BuildingBlock: ZUJKAS_clean_linker_0, # of connection points: 2
#     Edge 16, Type (0, 1), BuildingBlock: ZUJKAS_clean_linker_0, # of connection points: 2
#     Edge 17, Type (0, 1), BuildingBlock: ZUJKAS_clean_linker_0, # of connection points: 2
#     Edge 18, Type (0, 1), BuildingBlock: ZUJKAS_clean_linker_0, # of connection points: 2
#     Edge 19, Type (0, 1), BuildingBlock: ZUJKAS_clean_linker_0, # of connection points: 2
#     Edge 20, Type (0, 1), BuildingBlock: ZUJKAS_clean_linker_0, # of connection points: 2
#     Edge 21, Type (0, 1), BuildingBlock: ZUJKAS_clean_linker_0, # of connection points: 2
#     Edge 22, Type (0, 1), BuildingBlock: ZUJKAS_clean_linker_0, # of connection points: 2
#     Edge 23, Type (0, 1), BuildingBlock: ZUJKAS_clean_linker_0, # of connection points: 2
#     Edge 24, Type (0, 1), BuildingBlock: ZUJKAS_clean_linker_0, # of connection points: 2
#     Edge 25, Type (0, 1), BuildingBlock: ZUJKAS_clean_linker_0, # of connection points: 2
#     Edge 26, Type (0, 1), BuildingBlock: ZUJKAS_clean_linker_0, # of connection points: 2
#     Edge 27, Type (0, 1), BuildingBlock: ZUJKAS_clean_linker_0, # of connection points: 2
#     Edge 28, Type (0, 1), BuildingBlock: ZUJKAS_clean_linker_0, # of connection points: 2
#     Edge 29, Type (0, 1), BuildingBlock: ZUJKAS_clean_linker_0, # of connection points: 2
#     Edge 30, Type (0, 1), BuildingBlock: ZUJKAS_clean_linker_0, # of connection points: 2
#     Edge 31, Type (0, 1), BuildingBlock: ZUJKAS_clean_linker_0, # of connection points: 2
#     Edge 32, Type (0, 1), BuildingBlock: ZUJKAS_clean_linker_0, # of connection points: 2
#     Edge 33, Type (0, 1), BuildingBlock: ZUJKAS_clean_linker_0, # of connection points: 2
#     Edge 34, Type (0, 1), BuildingBlock: ZUJKAS_clean_linker_0, # of connection points: 2
#     Edge 35, Type (0, 1), BuildingBlock: ZUJKAS_clean_linker_0, # of connection points: 2
# Relax obj value: 0.068
# Max RMSD: 0.150
# Mean RMSD: 0.122
data_MOF--net-pry--node1-OLANEW_clean_sbu_2--node2-LEVNOQ01_clean_sbu_1--edge1-ZUJKAS_clean_linker_0
_symmetry_space_group_name_H-M    P1
_symmetry_Int_Tables_number       1
_symmetry_cell_setting            triclinic
loop_
_symmetry_equiv_pos_as_xyz
'x, y, z'
_cell_length_a     50.448255
_cell_length_b     49.128917
_cell_length_c     48.015394
_cell_angle_alpha  96.21842
_cell_angle_beta   90.325069
_cell_angle_gamma 99.099674
loop_
_atom_site_label
_atom_site_type_symbol
_atom_site_fract_x
_atom_site_fract_y
_atom_site_fract_z
_atom_type_partial_charge
O0 O 0.17749 0.14448 0.12698 0.0
Cd1 Cd 0.13597 0.16162 0.1419 0.0
O2 O 0.17705 0.11691 0.16041 0.0
Cd3 Cd 0.14348 0.12832 0.18532 0.0
O4 O 0.12421 0.12449 0.22588 0.0
C5 C 0.12146 0.1004 0.23395 0.0
O6 O 0.12878 0.08013 0.21712 0.0
C7 C 0.18758 0.12625 0.13863 0.0
C8 C 0.12339 0.2061 0.11485 0.0
O9 O 0.13665 0.21026 0.13819 0.0
O10 O 0.11651 0.18095 0.10393 0.0
O11 O 0.40217 0.91939 0.68975 0.0
Cd12 Cd 0.38189 0.89502 0.64553 0.0
O13 O 0.37245 0.89512 0.71451 0.0
Cd14 Cd 0.34576 0.87807 0.67871 0.0
O15 O 0.30858 0.87624 0.65443 0.0
C16 C 0.3074 0.89327 0.6365 0.0
O17 O 0.32919 0.91046 0.63167 0.0
C18 C 0.39349 0.91303 0.71341 0.0
C19 C 0.40655 0.85004 0.62471 0.0
O20 O 0.41336 0.87399 0.61627 0.0
O21 O 0.38828 0.84742 0.64311 0.0
O22 O 0.6644 0.42826 0.92327 0.0
Cd23 Cd 0.61848 0.41679 0.90319 0.0
O24 O 0.68137 0.39845 0.89381 0.0
Cd25 Cd 0.64267 0.37438 0.88079 0.0
O26 O 0.62124 0.33348 0.88655 0.0
C27 C 0.63623 0.31945 0.89837 0.0
O28 O 0.66122 0.33076 0.9047 0.0
C29 C 0.6846 0.41814 0.91359 0.0
C30 C 0.6148 0.42763 0.84732 0.0
O31 O 0.6156 0.44709 0.86752 0.0
O32 O 0.61557 0.40307 0.85348 0.0
O33 O 0.94558 0.63894 0.43553 0.0
Cd34 Cd 0.92638 0.59289 0.41261 0.0
O35 O 0.94462 0.6254 0.47783 0.0
Cd36 Cd 0.92085 0.58516 0.46452 0.0
O37 O 0.87807 0.57064 0.46728 0.0
C38 C 0.86336 0.58682 0.45854 0.0
O39 O 0.87485 0.60854 0.44686 0.0
C40 C 0.9507 0.64423 0.46173 0.0
C41 C 0.92707 0.58849 0.35401 0.0
O42 O 0.94754 0.5853 0.36852 0.0
O43 O 0.90623 0.59411 0.36718 0.0
O44 O 0.89379 0.87015 0.88518 0.0
Cd45 Cd 0.88174 0.8561 0.93166 0.0
O46 O 0.87221 0.90613 0.88725 0.0
Cd47 Cd 0.85155 0.90426 0.92721 0.0
O48 O 0.81914 0.91825 0.95272 0.0
C49 C 0.79664 0.91662 0.94003 0.0
O50 O 0.79424 0.90583 0.9137 0.0
C51 C 0.88726 0.89073 0.87428 0.0
C52 C 0.9048 0.81035 0.94465 0.0
O53 O 0.88164 0.80712 0.93252 0.0
O54 O 0.91723 0.83519 0.95051 0.0
O55 O 0.633 0.08372 0.41529 0.0
Cd56 Cd 0.64643 0.09767 0.46448 0.0
O57 O 0.63564 0.12797 0.4123 0.0
Cd58 Cd 0.63054 0.16769 0.39828 0.0
O59 O 0.62435 0.21006 0.41204 0.0
C60 C 0.6029 0.21255 0.42515 0.0
O61 O 0.58552 0.19014 0.42792 0.0
C62 C 0.63006 0.10316 0.40071 0.0
C63 C 0.69983 0.09486 0.47718 0.0
O64 O 0.68136 0.07375 0.47754 0.0
O65 O 0.69313 0.11741 0.47036 0.0
O66 O 0.45808 0.70229 0.18284 0.0
Cd67 Cd 0.44989 0.65223 0.18416 0.0
O68 O 0.41534 0.69502 0.17227 0.0
Cd69 Cd 0.37507 0.70168 0.16109 0.0
O70 O 0.33582 0.68844 0.14062 0.0
C71 C 0.33504 0.6706 0.11927 0.0
O72 O 0.35749 0.66227 0.11089 0.0
C73 C 0.43716 0.71194 0.17669 0.0
C74 C 0.44403 0.64029 0.23922 0.0
O75 O 0.46667 0.64092 0.22712 0.0
O76 O 0.42392 0.645 0.22511 0.0
O77 O 0.13346 0.47731 0.66775 0.0
Cd78 Cd 0.13199 0.46551 0.61687 0.0
O79 O 0.13126 0.43257 0.66496 0.0
Cd80 Cd 0.12828 0.39006 0.67492 0.0
O81 O 0.1141 0.34705 0.65902 0.0
C82 C 0.09279 0.34292 0.64388 0.0
O83 O 0.08073 0.36411 0.64008 0.0
C84 C 0.1322 0.45559 0.68013 0.0
C85 C 0.18324 0.46334 0.59669 0.0
O86 O 0.17167 0.48441 0.59426 0.0
O87 O 0.1705 0.4431 0.6084 0.0
O88 O 0.01385 0.01437 0.6322 0.0
Mg89 Mg 0.04177 0.03426 0.60546 0.0
O90 O 0.99044 0.98566 0.59869 0.0
Mg91 Mg 0.00531 -0.00166 0.5546 0.0
O92 O 0.02163 0.04283 0.5717 0.0
O93 O 0.04449 0.076 0.60162 0.0
O94 O 0.02096 0.01194 0.51119 0.0
O95 O 0.96447 0.01545 0.54953 0.0
Mg96 Mg 0.97082 0.96706 0.50544 0.0
O97 O 0.98879 0.95236 0.53775 0.0
O98 O -0.00206 0.98461 0.47682 0.0
O99 O 0.93877 0.98736 0.51763 0.0
O100 O 0.96347 0.9253 0.50367 0.0
C101 C 0.06925 0.99125 0.57313 0.0
C102 C 0.99528 0.99426 0.62466 0.0
C103 C 0.02965 0.06888 0.57926 0.0
C104 C 0.01664 0.00425 0.48505 0.0
C105 C 0.94219 0.00822 0.5359 0.0
C106 C 0.97821 0.92784 0.52614 0.0
O107 O 0.07257 0.01282 0.59065 0.0
O108 O 0.0467 0.98251 0.56024 0.0
O109 O 0.46431 0.09038 0.07615 0.0
Mg110 Mg 0.50636 0.09494 0.07855 0.0
O111 O 0.45925 0.04481 0.06496 0.0
Mg112 Mg 0.50189 0.03208 0.05506 0.0
O113 O 0.52039 0.07524 0.04352 0.0
O114 O 0.52806 0.12128 0.05404 0.0
O115 O 0.54369 0.01878 0.04448 0.0
O116 O 0.48925 0.02761 0.00636 0.0
Mg117 Mg 0.48997 0.98223 0.0276 0.0
O118 O 0.48309 0.98798 0.06962 0.0
O119 O 0.53015 0.98135 0.01541 0.0
O120 O 0.46167 0.98869 0.9984 0.0
O121 O 0.47502 0.94688 0.04272 0.0
C122 C 0.52622 0.06145 0.12004 0.0
C123 C 0.44933 0.06708 0.07107 0.0
C124 C 0.53074 0.09962 0.03722 0.0
C125 C 0.5491 -0.00122 0.02734 0.0
C126 C 0.47189 0.01143 0.99042 0.0
C127 C 0.47454 0.9613 0.06672 0.0
O128 O 0.52524 0.08587 0.11445 0.0
O129 O 0.51734 0.04036 0.10253 0.0
O130 O 0.52641 0.60253 0.59171 0.0
Mg131 Mg 0.51629 0.56086 0.59695 0.0
O132 O 0.51828 0.58656 0.54755 0.0
Mg133 Mg 0.5248 0.53898 0.54101 0.0
O134 O 0.54305 0.53454 0.5857 0.0
O135 O 0.53645 0.55221 0.62993 0.0
O136 O 0.53098 0.49188 0.53302 0.0
O137 O 0.56963 0.55496 0.53032 0.0
Mg138 Mg 0.53671 0.52306 0.48091 0.0
O139 O 0.50587 0.5417 0.49659 0.0
O140 O 0.53441 0.48165 0.48734 0.0
O141 O 0.57406 0.54884 0.48441 0.0
O142 O 0.51153 0.52942 0.45072 0.0
C143 C 0.46586 0.52708 0.57325 0.0
C144 C 0.52167 0.60689 0.56696 0.0
C145 C 0.54862 0.53681 0.61252 0.0
C146 C 0.53319 0.47437 0.51178 0.0
C147 C 0.58373 0.55809 0.50856 0.0
C148 C 0.4983 0.54083 0.47043 0.0
O149 O 0.47553 0.54263 0.59486 0.0
O150 O 0.48054 0.52292 0.55217 0.0
O151 O 0.03101 0.46006 0.06963 0.0
Mg152 Mg 0.03203 0.50272 0.07136 0.0
O153 O 0.02607 0.45972 0.02406 0.0
Mg154 Mg 0.01465 0.50329 0.01464 0.0
O155 O -0.00185 0.51718 0.05947 0.0
O156 O 0.01222 0.51702 0.10415 0.0
O157 O 0.00331 0.5458 0.00344 0.0
O158 O 0.96961 0.48033 0.0091 0.0
Mg159 Mg 0.99324 0.49519 0.9593 0.0
O160 O 0.03161 0.4905 0.96973 0.0
O161 O 0.98557 0.53623 0.96079 0.0
O162 O 0.96178 0.46373 0.96513 0.0
O163 O 0.01394 0.48402 0.92579 0.0
C164 C 0.07478 0.53534 0.04315 0.0
C165 C 0.03 0.44721 0.04536 0.0
C166 C 0.99507 0.52248 0.0864 0.0
C167 C 0.99231 0.55345 0.98217 0.0
C168 C 0.9543 0.46549 0.99014 0.0
C169 C 0.03381 0.48412 0.94282 0.0
O170 O 0.06829 0.52854 0.06709 0.0
O171 O 0.0589 0.52742 0.02203 0.0
H172 H 0.11016 0.13839 0.2769 0.0
H173 H 0.09727 0.12954 0.32474 0.0
H174 H 0.09826 0.04224 0.30289 0.0
H175 H 0.1114 0.05084 0.25549 0.0
H176 H 0.05307 0.09618 0.34392 0.0
H177 H 0.14636 0.05922 0.37289 0.0
H178 H 0.14381 0.07755 0.3426 0.0
H179 H 0.13163 0.04089 0.34077 0.0
C180 C 0.1076 0.11731 0.28231 0.0
C181 C 0.11204 0.09535 0.26243 0.0
C182 C 0.10031 0.11231 0.30966 0.0
C183 C 0.09749 0.08533 0.31758 0.0
C184 C 0.10111 0.06334 0.29751 0.0
H185 H 0.02248 0.98451 0.43079 0.0
H186 H 0.04503 0.00907 0.39388 0.0
C187 C 0.10842 0.06829 0.2703 0.0
C188 C 0.08997 0.07964 0.34649 0.0
H189 H 0.10744 0.04538 0.40034 0.0
C190 C 0.06524 0.08569 0.35657 0.0
C191 C 0.106 0.06619 0.36316 0.0
C192 C 0.13356 0.06086 0.35443 0.0
C193 C 0.0553 0.07682 0.38192 0.0
C194 C 0.07046 0.06161 0.39745 0.0
C195 C 0.09586 0.05702 0.38828 0.0
C196 C 0.05856 0.04695 0.42082 0.0
C197 C 0.02797 0.0823 0.39129 0.0
C198 C 0.05922 0.06007 0.44834 0.0
C199 C 0.04643 0.04595 0.46972 0.0
C200 C 0.03265 0.01867 0.46367 0.0
C201 C 0.03273 0.00555 0.43614 0.0
C202 C 0.04563 0.01951 0.415 0.0
H203 H 0.01935 0.09585 0.3778 0.0
H204 H 0.01406 0.06232 0.3908 0.0
H205 H 0.02934 0.09226 0.41326 0.0
H206 H 0.06917 0.08129 0.45313 0.0
H207 H 0.0466 0.05664 0.49069 0.0
H208 H 0.38918 0.89626 0.76569 0.0
H209 H 0.40629 0.92254 0.80991 0.0
H210 H 0.44292 0.99002 0.76543 0.0
H211 H 0.42664 0.96329 0.72083 0.0
H212 H 0.47513 0.98294 0.80714 0.0
H213 H 0.37363 0.98514 0.84859 0.0
H214 H 0.37874 0.95011 0.83911 0.0
H215 H 0.37908 0.97337 0.81248 0.0
C216 C 0.40103 0.91662 0.76527 0.0
C217 C 0.40632 0.92781 0.73978 0.0
C218 C 0.4106 0.93174 0.7906 0.0
C219 C 0.42509 0.95867 0.7911 0.0
C220 C 0.43146 0.96944 0.7656 0.0
H221 H 0.44321 0.0436 0.96254 0.0
H222 H 0.43464 0.0389 0.91149 0.0
C223 C 0.42222 0.95411 0.74013 0.0
C224 C 0.43351 0.97532 0.81832 0.0
H225 H 0.40999 0.99397 0.88293 0.0
C226 C 0.46083 0.98577 0.82358 0.0
C227 C 0.41482 0.97996 0.83953 0.0
C228 C 0.38492 0.97183 0.83452 0.0
C229 C 0.47015 -0.00115 0.8501 0.0
C230 C 0.45176 0.0008 0.87214 0.0
C231 C 0.42423 0.9922 0.86625 0.0
C232 C 0.46067 0.00815 0.90196 0.0
C233 C 0.49968 0.01003 0.85425 0.0
C234 C 0.47848 0.99294 0.91351 0.0
C235 C 0.48347 0.99584 0.94232 0.0
C236 C 0.47059 0.01379 0.96026 0.0
C237 C 0.45364 0.02998 0.94892 0.0
C238 C 0.4487 0.02717 0.91986 0.0
H239 H 0.50832 0.01754 0.83472 0.0
H240 H 0.50342 0.02731 0.87144 0.0
H241 H 0.51045 0.99313 0.85942 0.0
H242 H 0.48729 0.97748 0.90048 0.0
H243 H 0.4963 0.98285 0.95079 0.0
H244 H 0.60535 0.38994 0.80067 0.0
H245 H 0.60195 0.39949 0.75181 0.0
H246 H 0.61695 0.48733 0.77837 0.0
H247 H 0.62021 0.47806 0.82718 0.0
H248 H 0.56461 0.43198 0.73055 0.0
H249 H 0.67067 0.47566 0.71382 0.0
H250 H 0.66063 0.45397 0.74127 0.0
H251 H 0.65737 0.4901 0.74574 0.0
C252 C 0.6081 0.4113 0.79608 0.0
C253 C 0.61309 0.43328 0.81778 0.0
C254 C 0.60619 0.41667 0.76818 0.0
C255 C 0.60968 0.44407 0.7615 0.0
C256 C 0.61473 0.46602 0.78308 0.0
H257 H 0.58361 0.55449 0.65549 0.0
H258 H 0.60311 0.52553 0.6853 0.0
C259 C 0.61638 0.46069 0.81097 0.0
C260 C 0.60634 0.45008 0.73226 0.0
H261 H 0.63778 0.48736 0.6826 0.0
C262 C 0.58069 0.44347 0.71961 0.0
C263 C 0.62747 0.46484 0.71812 0.0
C264 C 0.65567 0.47136 0.73029 0.0
C265 C 0.575 0.45347 0.69429 0.0
C266 C 0.59577 0.46997 0.68104 0.0
C267 C 0.62191 0.47465 0.69268 0.0
C268 C 0.5896 0.48712 0.65899 0.0
C269 C 0.54634 0.44828 0.68327 0.0
C270 C 0.57699 0.4754 0.63329 0.0
C271 C 0.56579 0.49213 0.61602 0.0
C272 C 0.56717 0.52061 0.62445 0.0
C273 C 0.58219 0.53254 0.64864 0.0
C274 C 0.59335 0.51598 0.66569 0.0
H275 H 0.53218 0.43802 0.69801 0.0
H276 H 0.53981 0.46811 0.67933 0.0
H277 H 0.54491 0.43468 0.66314 0.0
H278 H 0.57435 0.4532 0.62747 0.0
H279 H 0.55417 0.48248 0.59751 0.0
H280 H 0.97036 0.58536 0.32077 0.0
H281 H 0.97081 0.57707 0.26975 0.0
H282 H 0.88497 0.57429 0.26581 0.0
H283 H 0.88446 0.58335 0.31701 0.0
H284 H 0.9456 0.53133 0.23822 0.0
H285 H 0.90973 0.62482 0.206 0.0
H286 H 0.92097 0.62279 0.24137 0.0
H287 H 0.88825 0.60552 0.22918 0.0
C288 C 0.95159 0.58329 0.30908 0.0
C289 C 0.92737 0.585 0.32296 0.0
C290 C 0.95188 0.57856 0.27989 0.0
C291 C 0.92796 0.5753 0.26388 0.0
C292 C 0.90375 0.57731 0.27763 0.0
H293 H 0.94475 0.49646 0.09498 0.0
H294 H 0.91862 0.51035 0.13549 0.0
C295 C 0.90348 0.58233 0.30692 0.0
C296 C 0.92858 0.56798 0.23306 0.0
H297 H 0.91853 0.59111 0.16975 0.0
C298 C 0.9394 0.54424 0.22323 0.0
C299 C 0.9205 0.5849 0.21356 0.0
C300 C 0.9094 0.61107 0.22295 0.0
C301 C 0.94344 0.5375 0.19463 0.0
C302 C 0.93563 0.55453 0.17505 0.0
C303 C 0.924 0.57784 0.18474 0.0
C304 C 0.94335 0.5505 0.14527 0.0
C305 C 0.95756 0.51311 0.18587 0.0
C306 C 0.96397 0.56963 0.13567 0.0
C307 C 0.9785 0.56191 0.11225 0.0
C308 C 0.97253 0.53504 0.09818 0.0
C309 C 0.94944 0.51745 0.10526 0.0
C310 C 0.93476 0.52524 0.12865 0.0
H311 H 0.96643 0.50526 0.20405 0.0
H312 H 0.94296 0.49591 0.17503 0.0
H313 H 0.97385 0.51888 0.17113 0.0
H314 H 0.97087 0.58927 0.14807 0.0
H315 H 0.9965 0.57562 0.10742 0.0
H316 H 0.21051 0.08352 0.15498 0.0
H317 H 0.25271 0.069 0.13959 0.0
H318 H 0.26278 0.13132 0.08221 0.0
H319 H 0.22046 0.14611 0.09745 0.0
H320 H 0.27125 0.05181 0.0821 0.0
H321 H 0.3306 0.14792 0.13698 0.0
H322 H 0.29603 0.13608 0.14492 0.0
H323 H 0.30397 0.15272 0.11385 0.0
C324 C 0.22155 0.09408 0.13892 0.0
C325 C 0.21218 0.11621 0.12764 0.0
C326 C 0.24561 0.08562 0.13008 0.0
C327 C 0.26091 0.09922 0.10995 0.0
C328 C 0.25129 0.1207 0.09794 0.0
H329 H 0.42207 0.10497 0.05293 0.0
H330 H 0.37506 0.10923 0.06003 0.0
C331 C 0.2271 0.1291 0.10665 0.0
C332 C 0.2877 0.09205 0.10281 0.0
H333 H 0.35454 0.11757 0.10998 0.0
C334 C 0.28954 0.06612 0.08812 0.0
C335 C 0.31142 0.11067 0.111 0.0
C336 C 0.31061 0.13834 0.12775 0.0
C337 C 0.31459 0.0587 0.08055 0.0
C338 C 0.33836 0.07752 0.08847 0.0
C339 C 0.33636 0.1032 0.10369 0.0
C340 C 0.36563 0.0719 0.08059 0.0
C341 C 0.3153 0.03119 0.06349 0.0
C342 C 0.37593 0.04894 0.08894 0.0
C343 C 0.4029 0.04616 0.08433 0.0
C344 C 0.42 0.06667 0.07195 0.0
C345 C 0.40936 0.08896 0.06272 0.0
C346 C 0.38249 0.09143 0.0668 0.0
H347 H 0.29564 0.02272 0.05286 0.0
H348 H 0.33102 0.03308 0.04742 0.0
H349 H 0.31999 0.01604 0.0776 0.0
H350 H 0.36352 0.03387 0.10012 0.0
H351 H 0.41072 0.02893 0.09186 0.0
H352 H 0.25739 0.86681 0.64811 0.0
H353 H 0.21409 0.87517 0.63055 0.0
H354 H 0.25486 0.93443 0.57889 0.0
H355 H 0.29822 0.9262 0.59622 0.0
H356 H 0.19805 0.92774 0.63798 0.0
H357 H 0.19635 0.8876 0.52535 0.0
H358 H 0.21801 0.87726 0.55102 0.0
H359 H 0.22688 0.91001 0.53728 0.0
C360 C 0.25718 0.88124 0.63262 0.0
C361 C 0.28129 0.89588 0.6236 0.0
C362 C 0.23241 0.88598 0.62261 0.0
C363 C 0.23128 0.90514 0.60316 0.0
C364 C 0.25528 0.91913 0.59346 0.0
H365 H 0.12196 0.01292 0.57655 0.0
H366 H 0.15979 0.98814 0.58062 0.0
C367 C 0.28006 0.91453 0.60355 0.0
C368 C 0.20519 0.91276 0.59529 0.0
H369 H 0.16496 0.91821 0.53928 0.0
C370 C 0.19058 0.9252 0.61647 0.0
C371 C 0.19546 0.90938 0.56723 0.0
C372 C 0.20984 0.8951 0.5439 0.0
C373 C 0.16714 0.93548 0.61016 0.0
C374 C 0.15813 0.93334 0.58196 0.0
C375 C 0.17202 0.91984 0.56086 0.0
C376 C 0.13576 0.94737 0.57423 0.0
C377 C 0.15259 0.94944 0.63362 0.0
C378 C 0.1099 0.93248 0.56796 0.0
C379 C 0.08809 0.94667 0.56539 0.0
C380 C 0.09205 0.97581 0.56935 0.0
C381 C 0.11829 0.99045 0.57369 0.0
C382 C 0.13993 0.97636 0.576 0.0
H383 H 0.15874 0.94442 0.65447 0.0
H384 H 0.15724 0.97227 0.63338 0.0
H385 H 0.13052 0.94321 0.63077 0.0
H386 H 0.1064 0.91004 0.56653 0.0
H387 H 0.06805 0.93492 0.56218 0.0
H388 H 0.69782 0.45078 0.96338 0.0
H389 H 0.74143 0.45948 0.98831 0.0
H390 H 0.77549 0.41372 0.91954 0.0
H391 H 0.7322 0.40475 0.89464 0.0
H392 H 0.7831 0.39648 0.97482 0.0
H393 H 0.81264 0.5103 0.97109 0.0
H394 H 0.77957 0.49772 0.98281 0.0
H395 H 0.78791 0.4896 0.94695 0.0
C396 C 0.71472 0.44301 0.95335 0.0
C397 C 0.71151 0.42698 0.92705 0.0
C398 C 0.73959 0.44797 0.96766 0.0
C399 C 0.76159 0.43717 0.95575 0.0
C400 C 0.75867 0.42209 0.92912 0.0
H401 H 0.92165 0.42388 0.95922 0.0
H402 H 0.8729 0.41497 0.95957 0.0
C403 C 0.73392 0.41707 0.91488 0.0
C404 C 0.78754 0.44028 0.97119 0.0
H405 H 0.84439 0.4865 0.98927 0.0
C406 C 0.79638 0.41623 0.97844 0.0
C407 C 0.80457 0.46611 0.9763 0.0
C408 C 0.79591 0.49249 0.96884 0.0
C409 C 0.82243 0.41709 0.9892 0.0
C410 C 0.84022 0.44258 0.99226 0.0
C411 C 0.83072 0.46695 0.98691 0.0
C412 C 0.86955 0.44384 0.99633 0.0
C413 C 0.83089 0.39051 0.99631 0.0
C414 C 0.88405 0.46262 0.01726 0.0
C415 C 0.91218 0.46782 0.01707 0.0
C416 C 0.92604 0.45462 0.99562 0.0
C417 C 0.91151 0.43436 0.976 0.0
C418 C 0.88358 0.42911 0.97629 0.0
H419 H 0.81353 0.37624 0.00338 0.0
H420 H 0.83867 0.37982 0.97726 0.0
H421 H 0.84685 0.39448 0.01292 0.0
H422 H 0.8736 0.47432 0.03281 0.0
H423 H 0.92284 0.48368 0.03234 0.0
H424 H 0.83478 0.55065 0.4912 0.0
H425 H 0.78734 0.54785 0.50335 0.0
H426 H 0.77911 0.61238 0.45134 0.0
H427 H 0.82638 0.61547 0.43915 0.0
H428 H 0.76139 0.59842 0.52757 0.0
H429 H 0.71816 0.54277 0.4263 0.0
H430 H 0.75178 0.54102 0.43836 0.0
H431 H 0.74472 0.57163 0.42447 0.0
C432 C 0.82281 0.56407 0.48214 0.0
C433 C 0.83432 0.58327 0.46417 0.0
C434 C 0.79581 0.56254 0.48925 0.0
C435 C 0.7799 0.57994 0.47823 0.0
C436 C 0.79116 0.59876 0.45996 0.0
H437 H 0.61228 0.59137 0.4743 0.0
H438 H 0.66111 0.60055 0.47092 0.0
C439 C 0.81814 0.60045 0.453 0.0
C440 C 0.75147 0.57864 0.4858 0.0
H441 H 0.68795 0.55925 0.4587 0.0
C442 C 0.74522 0.58978 0.51266 0.0
C443 C 0.73065 0.56745 0.46617 0.0
C444 C 0.73648 0.55484 0.43722 0.0
C445 C 0.71846 0.59069 0.52019 0.0
C446 C 0.69755 0.57957 0.50046 0.0
C447 C 0.70397 0.56803 0.47375 0.0
C448 C 0.66874 0.57931 0.50666 0.0
C449 C 0.71296 0.60424 0.54883 0.0
C450 C 0.65683 0.56552 0.52873 0.0
C451 C 0.62887 0.56091 0.53111 0.0
C452 C 0.61253 0.56941 0.51102 0.0
C453 C 0.62452 0.58464 0.49003 0.0
C454 C 0.65237 0.58976 0.48803 0.0
H455 H 0.73075 0.61891 0.5578 0.0
H456 H 0.69567 0.61562 0.54809 0.0
H457 H 0.70811 0.588 0.5632 0.0
H458 H 0.66894 0.55674 0.543 0.0
H459 H 0.62003 0.54873 0.5472 0.0
H460 H 0.1014 0.20508 0.0623 0.0
H461 H 0.08668 0.24356 0.04117 0.0
H462 H 0.11143 0.29817 0.11642 0.0
H463 H 0.12686 0.26013 0.13728 0.0
H464 H 0.04835 0.27327 0.05757 0.0
H465 H 0.14473 0.34475 0.05824 0.0
H466 H 0.14297 0.3089 0.06435 0.0
H467 H 0.13719 0.33459 0.09242 0.0
C468 C 0.10401 0.22538 0.07421 0.0
C469 C 0.11547 0.22956 0.10143 0.0
C470 C 0.09556 0.24736 0.06211 0.0
C471 C 0.09838 0.27396 0.07695 0.0
C472 C 0.10976 0.27811 0.10416 0.0
H473 H 0.01466 0.40862 0.08064 0.0
H474 H 0.02988 0.364 0.08183 0.0
C475 C 0.11842 0.25624 0.11617 0.0
C476 C 0.088 0.29699 0.06482 0.0
H477 H 0.10462 0.36525 0.05428 0.0
C478 C 0.06081 0.29322 0.05642 0.0
C479 C 0.10425 0.32298 0.06279 0.0
C480 C 0.13397 0.32797 0.06965 0.0
C481 C 0.04913 0.31515 0.04773 0.0
C482 C 0.06495 0.3416 0.04769 0.0
C483 C 0.09246 0.34498 0.05447 0.0
C484 C 0.0528 0.36665 0.04402 0.0
C485 C 0.01979 0.31006 0.03927 0.0
C486 C 0.06027 0.38283 0.02205 0.0
C487 C 0.0512 0.40832 0.02108 0.0
C488 C 0.03513 0.41822 0.0425 0.0
C489 C 0.02697 0.40147 0.06383 0.0
C490 C 0.0356 0.37592 0.0645 0.0
H491 H 0.01248 0.28772 0.03278 0.0
H492 H 0.0079 0.31679 0.05738 0.0
H493 H 0.01605 0.32213 0.02177 0.0
H494 H 0.07373 0.37612 0.00617 0.0
H495 H 0.05806 0.42099 0.00462 0.0
H496 H 0.58553 0.2896 0.88917 0.0
H497 H 0.56827 0.24441 0.90506 0.0
H498 H 0.64613 0.24127 0.9409 0.0
H499 H 0.66349 0.28615 0.92535 0.0
H500 H 0.58902 0.18989 0.89571 0.0
H501 H 0.59147 0.23666 0.00658 0.0
H502 H 0.5923 0.25707 0.97742 0.0
H503 H 0.62213 0.24498 0.98823 0.0
C504 C 0.599 0.27916 0.90025 0.0
C505 C 0.62582 0.29153 0.90618 0.0
C506 C 0.58914 0.25335 0.90918 0.0
C507 C 0.60594 0.23972 0.92424 0.0
C508 C 0.63286 0.25163 0.92943 0.0
H509 H 0.584 0.10942 0.02922 0.0
H510 H 0.6047 0.13858 0.99455 0.0
C511 C 0.64271 0.27729 0.92052 0.0
C512 C 0.59521 0.21386 0.93616 0.0
H513 H 0.58331 0.18778 0.99857 0.0
C514 C 0.58765 0.1893 0.91818 0.0
C515 C 0.59336 0.21338 0.96543 0.0
C516 C 0.6 0.23944 0.9856 0.0
C517 C 0.57892 0.16395 0.92892 0.0
C518 C 0.57768 0.16342 0.95824 0.0
C519 C 0.58483 0.18814 0.97608 0.0
C520 C 0.56761 0.13808 0.97149 0.0
C521 C 0.5715 0.13793 0.90897 0.0
C522 C 0.54032 0.12651 0.96871 0.0
C523 C 0.52861 0.10944 0.98826 0.0
C524 C 0.54407 0.10402 0.01079 0.0
C525 C 0.57188 0.11288 0.01163 0.0
C526 C 0.58363 0.12973 0.99198 0.0
H527 H 0.57969 0.14049 0.88782 0.0
H528 H 0.57894 0.12013 0.91709 0.0
H529 H 0.5493 0.13286 0.90684 0.0
H530 H 0.5275 0.13306 0.9534 0.0
H531 H 0.50699 0.10334 0.98772 0.0
H532 H 0.97838 0.6863 0.43547 0.0
H533 H 0.99139 0.73482 0.45473 0.0
H534 H 0.95772 0.71563 0.53406 0.0
H535 H 0.94593 0.66703 0.51538 0.0
H536 H 0.95838 0.76828 0.4707 0.0
H537 H 0.02465 0.7651 0.56209 0.0
H538 H 0.01551 0.73558 0.53614 0.0
H539 H 0.99302 0.74296 0.56398 0.0
C540 C 0.97434 0.69235 0.4572 0.0
C541 C 0.96127 0.67285 0.47394 0.0
C542 C 0.98177 0.72006 0.46821 0.0
C543 C 0.97594 0.72889 0.49603 0.0
C544 C 0.96329 0.70929 0.51289 0.0
H545 H 0.94069 0.89047 0.54639 0.0
H546 H 0.94306 0.84105 0.54527 0.0
C547 C 0.95635 0.68149 0.50207 0.0
C548 C 0.98022 0.75895 0.50625 0.0
H549 H 0.00585 0.80711 0.56054 0.0
C550 C 0.9691 0.77671 0.49016 0.0
C551 C 0.99416 0.77009 0.53172 0.0
C552 C 0.00774 0.75245 0.54931 0.0
C553 C 0.97107 0.80507 0.49897 0.0
C554 C 0.98399 0.81596 0.52492 0.0
C555 C 0.99567 0.79851 0.54085 0.0
C556 C 0.98515 0.84557 0.53525 0.0
C557 C 0.95914 0.82321 0.48045 0.0
C558 C 0.00857 0.86455 0.53211 0.0
C559 C 0.00732 0.89293 0.53322 0.0
C560 C 0.98262 0.90232 0.53732 0.0
C561 C 0.96 0.88364 0.5436 0.0
C562 C 0.96131 0.85544 0.54279 0.0
H563 H 0.95481 0.81282 0.45881 0.0
H564 H 0.94002 0.82817 0.4894 0.0
H565 H 0.97292 0.84306 0.47935 0.0
H566 H 0.02711 0.85722 0.52615 0.0
H567 H 0.02485 0.90697 0.52779 0.0
H568 H 0.43747 0.84562 0.57827 0.0
H569 H 0.45774 0.80561 0.55932 0.0
H570 H 0.42569 0.76089 0.62739 0.0
H571 H 0.40455 0.80032 0.64576 0.0
H572 H 0.4947 0.78091 0.57947 0.0
H573 H 0.40219 0.70393 0.56289 0.0
H574 H 0.40138 0.74051 0.57098 0.0
H575 H 0.40517 0.7192 0.5986 0.0
C576 C 0.4346 0.82717 0.58909 0.0
C577 C 0.41923 0.82606 0.61341 0.0
C578 C 0.44619 0.80431 0.57822 0.0
C579 C 0.44277 0.77994 0.59153 0.0
C580 C 0.4279 0.77905 0.61617 0.0
H581 H 0.54045 0.65583 0.59788 0.0
H582 H 0.52302 0.69927 0.59804 0.0
C583 C 0.416 0.80173 0.62681 0.0
C584 C 0.45563 0.75585 0.58044 0.0
H585 H 0.44354 0.68542 0.56563 0.0
C586 C 0.48342 0.76007 0.57602 0.0
C587 C 0.44093 0.7287 0.57513 0.0
C588 C 0.41073 0.72287 0.57684 0.0
C589 C 0.49709 0.73776 0.56805 0.0
C590 C 0.48273 0.71037 0.56526 0.0
C591 C 0.45472 0.70633 0.56809 0.0
C592 C 0.4964 0.68553 0.56197 0.0
C593 C 0.52679 0.74386 0.56286 0.0
C594 C 0.48736 0.6631 0.54164 0.0
C595 C 0.49703 0.63791 0.54187 0.0
C596 C 0.51596 0.63473 0.56232 0.0
C597 C 0.52603 0.65768 0.58165 0.0
C598 C 0.51622 0.68269 0.58161 0.0
H599 H 0.53223 0.7644 0.55495 0.0
H600 H 0.53807 0.74459 0.5829 0.0
H601 H 0.53329 0.72779 0.54751 0.0
H602 H 0.47186 0.66462 0.52645 0.0
H603 H 0.48819 0.62043 0.52745 0.0
H604 H 0.91488 0.85981 0.83691 0.0
H605 H 0.93057 0.87083 0.79059 0.0
H606 H 0.89769 0.94702 0.802 0.0
H607 H 0.88149 0.93599 0.84781 0.0
H608 H 0.88647 0.91923 0.74924 0.0
H609 H 0.99498 0.92856 0.77702 0.0
H610 H 0.97494 0.89587 0.78184 0.0
H611 H 0.96933 0.92678 0.80307 0.0
C612 C 0.91101 0.87892 0.82956 0.0
C613 C 0.89703 0.89707 0.8462 0.0
C614 C 0.92006 0.88522 0.8031 0.0
C615 C 0.91557 0.90991 0.79294 0.0
C616 C 0.90136 0.92784 0.80937 0.0
H617 H 0.99549 0.01282 0.68009 0.0
H618 H 0.9744 0.98898 0.71796 0.0
C619 C 0.89219 0.92152 0.83565 0.0
C620 C 0.926 0.91766 0.76552 0.0
H621 H 0.98406 0.93652 0.7313 0.0
C622 C 0.90779 0.92273 0.74515 0.0
C623 C 0.95385 0.92238 0.76031 0.0
C624 C 0.97449 0.91836 0.78174 0.0
C625 C 0.91672 0.93314 0.72009 0.0
C626 C 0.94456 0.93828 0.71516 0.0
C627 C 0.96269 0.93236 0.73509 0.0
C628 C 0.95562 0.95277 0.69119 0.0
C629 C 0.89648 0.93985 0.69971 0.0
C630 C 0.95171 0.94048 0.66333 0.0
C631 C 0.96381 0.9542 0.64133 0.0
C632 C 0.9801 0.9803 0.64696 0.0
C633 C 0.98328 0.99267 0.67488 0.0
C634 C 0.97124 0.97906 0.69666 0.0
H635 H 0.87601 0.93826 0.70845 0.0
H636 H 0.90258 0.96114 0.69379 0.0
H637 H 0.89562 0.92518 0.68033 0.0
H638 H 0.9399 0.92006 0.65869 0.0
H639 H 0.96105 0.94405 0.6201 0.0
H640 H 0.63693 0.13526 0.35699 0.0
H641 H 0.61886 0.12295 0.30888 0.0
H642 H 0.58091 0.04339 0.3306 0.0
H643 H 0.59879 0.05545 0.3786 0.0
H644 H 0.62625 0.0669 0.27189 0.0
H645 H 0.52147 0.08484 0.29291 0.0
H646 H 0.54978 0.10337 0.314 0.0
H647 H 0.53818 0.06752 0.31742 0.0
C648 C 0.62444 0.11534 0.35164 0.0
C649 C 0.61905 0.09646 0.37168 0.0
C650 C 0.61432 0.10825 0.32412 0.0
C651 C 0.59846 0.08235 0.31636 0.0
C652 C 0.59301 0.06352 0.33629 0.0
H653 H 0.51277 0.02094 0.15538 0.0
H654 H 0.53098 0.02122 0.20329 0.0
C655 C 0.60331 0.07045 0.36365 0.0
C656 C 0.58788 0.0747 0.28729 0.0
H657 H 0.53104 0.06869 0.24667 0.0
C658 C 0.60543 0.06715 0.26634 0.0
C659 C 0.56065 0.07475 0.28031 0.0
C660 C 0.54128 0.08313 0.3022 0.0
C661 C 0.59647 0.06007 0.23836 0.0
C662 C 0.56941 0.06094 0.23118 0.0
C663 C 0.5517 0.06776 0.2523 0.0
C664 C 0.56003 0.05847 0.20158 0.0
C665 C 0.61608 0.05197 0.21659 0.0
C666 C 0.57047 0.07911 0.1849 0.0
C667 C 0.56001 0.07915 0.15803 0.0
C668 C 0.53893 0.05844 0.14709 0.0
C669 C 0.52913 0.03701 0.16328 0.0
C670 C 0.53941 0.03724 0.19058 0.0
H671 H 0.63337 0.04464 0.22621 0.0
H672 H 0.60612 0.0354 0.20062 0.0
H673 H 0.624 0.07031 0.20576 0.0
H674 H 0.58609 0.09586 0.19309 0.0
H675 H 0.56805 0.09586 0.14597 0.0
H676 H 0.40319 0.64926 0.27476 0.0
H677 H 0.40052 0.64206 0.32454 0.0
H678 H 0.47572 0.61064 0.31951 0.0
H679 H 0.47896 0.61861 0.27038 0.0
H680 H 0.39795 0.59709 0.35156 0.0
H681 H 0.49067 0.66774 0.38611 0.0
H682 H 0.47527 0.66772 0.35207 0.0
H683 H 0.49809 0.64384 0.35747 0.0
C684 C 0.41918 0.6409 0.28437 0.0
C685 C 0.44147 0.63481 0.2688 0.0
C686 C 0.41764 0.63686 0.31278 0.0
C687 C 0.43832 0.62662 0.32595 0.0
C688 C 0.46003 0.61957 0.31008 0.0
H689 H 0.45963 0.51922 0.43196 0.0
H690 H 0.43505 0.54582 0.40441 0.0
C691 C 0.46175 0.62391 0.28191 0.0
C692 C 0.43721 0.62216 0.35599 0.0
H693 H 0.47855 0.62838 0.41327 0.0
C694 C 0.41525 0.60449 0.3654 0.0
C695 C 0.45911 0.6328 0.37462 0.0
C696 C 0.48192 0.65436 0.3671 0.0
C697 C 0.41614 0.59461 0.39172 0.0
C698 C 0.43994 0.60186 0.40847 0.0
C699 C 0.46041 0.62218 0.4004 0.0
C700 C 0.44667 0.58486 0.43053 0.0
C701 C 0.392 0.57562 0.40069 0.0
C702 C 0.46076 0.59743 0.45522 0.0
C703 C 0.47543 0.58208 0.47071 0.0
C704 C 0.47587 0.55405 0.46192 0.0
C705 C 0.45933 0.54083 0.43928 0.0
C706 C 0.44499 0.55609 0.42363 0.0
H707 H 0.37323 0.58286 0.39462 0.0
H708 H 0.39157 0.5545 0.38965 0.0
H709 H 0.3922 0.57448 0.42366 0.0
H710 H 0.46256 0.6196 0.46094 0.0
H711 H 0.48882 0.59272 0.48743 0.0
H712 H 0.11019 0.41545 0.71265 0.0
H713 H 0.1053 0.4202 0.76346 0.0
H714 H 0.14543 0.5049 0.76849 0.0
H715 H 0.15061 0.50024 0.71763 0.0
H716 H 0.14244 0.43667 0.81067 0.0
H717 H 0.07042 0.50999 0.80044 0.0
H718 H 0.08078 0.48868 0.7708 0.0
H719 H 0.10257 0.51957 0.78528 0.0
C720 C 0.1187 0.43481 0.72456 0.0
C721 C 0.13101 0.45739 0.71108 0.0
C722 C 0.11572 0.43755 0.75364 0.0
C723 C 0.12483 0.46295 0.76969 0.0
C724 C 0.13801 0.4852 0.75643 0.0
H725 H 0.07871 0.52089 0.93636 0.0
H726 H 0.10954 0.51573 0.89753 0.0
C727 C 0.14093 0.4825 0.72738 0.0
C728 C 0.11857 0.46684 0.79985 0.0
H729 H 0.08113 0.50153 0.84601 0.0
C730 C 0.12921 0.451 0.81851 0.0
C731 C 0.10115 0.48539 0.80994 0.0
C732 C 0.08783 0.50173 0.7906 0.0
C733 C 0.12277 0.45323 0.84707 0.0
C734 C 0.10521 0.47164 0.85704 0.0
C735 C 0.09503 0.48781 0.83843 0.0
C736 C 0.09419 0.47232 0.88563 0.0
C737 C 0.13457 0.43576 0.86631 0.0
C738 C 0.07648 0.44925 0.89279 0.0
C739 C 0.05892 0.45222 0.9149 0.0
C740 C 0.059 0.47821 0.93026 0.0
C741 C 0.07877 0.5005 0.92522 0.0
C742 C 0.0962 0.4976 0.90289 0.0
H743 H 0.1531 0.42886 0.85769 0.0
H744 H 0.13932 0.44737 0.88737 0.0
H745 H 0.11972 0.41701 0.86883 0.0
H746 H 0.07418 0.42971 0.8795 0.0
H747 H 0.0434 0.43496 0.91804 0.0
H748 H 0.74514 0.91053 0.92012 0.0
H749 H 0.70735 0.9294 0.94193 0.0
H750 H 0.75794 0.96674 0.01292 0.0
H751 H 0.79616 0.94773 0.99127 0.0
H752 H 0.69159 0.92169 0.00734 0.0
H753 H 0.71507 0.02797 0.97405 0.0
H754 H 0.72456 -0.00132 0.95257 0.0
H755 H 0.74133 0.01043 0.98567 0.0
C756 C 0.74834 0.92272 0.94038 0.0
C757 C 0.77371 0.92758 0.95395 0.0
C758 C 0.7267 0.93351 0.95278 0.0
C759 C 0.72996 0.94956 0.97888 0.0
C760 C 0.75514 0.95447 0.99267 0.0
H761 H 0.59598 0.02805 0.05249 0.0
H762 H 0.64193 0.01839 0.04462 0.0
C763 C 0.77687 0.94351 0.98032 0.0
C764 C 0.70656 0.96043 0.99162 0.0
H765 H 0.67251 0.01541 0.99336 0.0
C766 C 0.68759 0.94234 0.00476 0.0
C767 C 0.70157 0.98742 0.98834 0.0
C768 C 0.72161 0.00745 0.97443 0.0
C769 C 0.66317 0.95015 0.01368 0.0
C770 C 0.65735 0.97651 0.00876 0.0
C771 C 0.67696 0.99519 0.997 0.0
C772 C 0.63004 0.98365 0.01301 0.0
C773 C 0.64347 0.92982 0.02769 0.0
C774 C 0.60834 0.96788 0.99729 0.0
C775 C 0.5823 0.97329 0.00166 0.0
C776 C 0.57725 0.99478 0.02181 0.0
C777 C 0.59914 0.01128 0.03692 0.0
C778 C 0.62538 0.00579 0.03247 0.0
H779 H 0.65377 0.91476 0.03752 0.0
H780 H 0.63217 0.94069 0.04398 0.0
H781 H 0.62887 0.91793 0.01173 0.0
H782 H 0.61155 0.95111 0.98172 0.0
H783 H 0.56605 0.96033 0.98938 0.0
H784 H 0.72035 0.04892 0.48792 0.0
H785 H 0.76647 0.04598 0.50137 0.0
H786 H 0.78923 0.1338 0.4976 0.0
H787 H 0.7429 0.13706 0.48393 0.0
H788 H 0.81712 0.07163 0.46622 0.0
H789 H 0.8126 0.10847 0.57984 0.0
H790 H 0.78257 0.09098 0.5609 0.0
H791 H 0.79735 0.12493 0.5534 0.0
C792 C 0.73509 0.06766 0.48994 0.0
C793 C 0.72795 0.09323 0.48486 0.0
C794 C 0.76141 0.06593 0.49765 0.0
C795 C 0.78106 0.0897 0.50062 0.0
C796 C 0.77419 0.11529 0.49554 0.0
H797 H 0.94604 0.06489 0.54573 0.0
H798 H 0.90942 0.09172 0.53955 0.0
C799 C 0.74779 0.11706 0.48766 0.0
C800 C 0.80879 0.087 0.5084 0.0
H801 H 0.84912 0.08583 0.56549 0.0
C802 C 0.82451 0.07544 0.48778 0.0
C803 C 0.81827 0.09212 0.53652 0.0
C804 C 0.80198 0.10486 0.55912 0.0
C805 C 0.84879 0.06721 0.49487 0.0
C806 C 0.85725 0.07024 0.52332 0.0
C807 C 0.8425 0.08357 0.54372 0.0
C808 C 0.87866 0.05551 0.5322 0.0
C809 C 0.86447 0.05373 0.47212 0.0
C810 C 0.8731 0.02659 0.53128 0.0
C811 C 0.89373 0.01142 0.53465 0.0
C812 C 0.92033 0.0249 0.53927 0.0
C813 C 0.92565 0.05406 0.54244 0.0
C814 C 0.90485 0.06935 0.53877 0.0
H815 H 0.85901 0.05885 0.45106 0.0
H816 H 0.8864 0.0603 0.47591 0.0
H817 H 0.86003 0.03087 0.4721 0.0
H818 H 0.85295 0.01563 0.52642 0.0
H819 H 0.88907 0.98897 0.53225 0.0
H820 H 0.28453 0.67983 0.13365 0.0
H821 H 0.24192 0.65774 0.11077 0.0
H822 H 0.28458 0.61211 0.04905 0.0
H823 H 0.32726 0.63368 0.07204 0.0
H824 H 0.2228 0.65745 0.05593 0.0
H825 H 0.23225 0.55104 0.08002 0.0
H826 H 0.2534 0.58159 0.09669 0.0
H827 H 0.25971 0.56815 0.06147 0.0
C828 C 0.28487 0.66515 0.11517 0.0
C829 C 0.30927 0.65838 0.10476 0.0
C830 C 0.26052 0.65259 0.1021 0.0
C831 C 0.26011 0.63304 0.07844 0.0
C832 C 0.28444 0.62676 0.06758 0.0
H833 H 0.11177 0.53159 0.00172 0.0
H834 H 0.15826 0.55677 0.0033 0.0
C835 C 0.30881 0.63922 0.08069 0.0
C836 C 0.23411 0.61897 0.06558 0.0
H837 H 0.19332 0.55613 0.05531 0.0
C838 C 0.21647 0.63524 0.05546 0.0
C839 C 0.22596 0.58997 0.06493 0.0
C840 C 0.24367 0.57161 0.07654 0.0
C841 C 0.19053 0.6234 0.04562 0.0
C842 C 0.18208 0.59465 0.04597 0.0
C843 C 0.2001 0.57814 0.05477 0.0
C844 C 0.15353 0.58218 0.04212 0.0
C845 C 0.17193 0.6418 0.03583 0.0
C846 C 0.13571 0.58844 0.06323 0.0
C847 C 0.10966 0.57393 0.06261 0.0
C848 C 0.10083 0.55309 0.0407 0.0
C849 C 0.11815 0.54776 0.01868 0.0
C850 C 0.14459 0.56201 0.01961 0.0
H851 H 0.18319 0.66165 0.03009 0.0
H852 H 0.15948 0.63112 0.0175 0.0
H853 H 0.1582 0.64668 0.05299 0.0
H854 H 0.14237 0.60367 0.08093 0.0
H855 H 0.09663 0.57841 0.0798 0.0
H856 H 0.2215 0.4392 0.62024 0.0
H857 H 0.26936 0.44494 0.60973 0.0
H858 H 0.25517 0.49139 0.54131 0.0
H859 H 0.2076 0.48719 0.55294 0.0
H860 H 0.3005 0.43303 0.56694 0.0
H861 H 0.30755 0.54743 0.58776 0.0
H862 H 0.2776 0.52405 0.59446 0.0
H863 H 0.28484 0.53239 0.55939 0.0
C864 C 0.22861 0.45041 0.6028 0.0
C865 C 0.21108 0.46322 0.5877 0.0
C866 C 0.25592 0.45362 0.59676 0.0
C867 C 0.26599 0.46927 0.57522 0.0
C868 C 0.24802 0.48009 0.55865 0.0
H869 H 0.43651 0.49476 0.52977 0.0
H870 H 0.38797 0.47792 0.52802 0.0
C871 C 0.22086 0.47756 0.56519 0.0
C872 C 0.29541 0.47602 0.57167 0.0
H873 H 0.3469 0.53044 0.57354 0.0
C874 C 0.31065 0.45432 0.56821 0.0
C875 C 0.30869 0.50385 0.57374 0.0
C876 C 0.29389 0.52827 0.57931 0.0
C877 C 0.33882 0.45975 0.56712 0.0
C878 C 0.35189 0.48753 0.569 0.0
C879 C 0.33668 0.50915 0.57188 0.0
C880 C 0.38146 0.49506 0.5704 0.0
C881 C 0.35447 0.43591 0.56511 0.0
C882 C 0.39374 0.51014 0.59479 0.0
C883 C 0.42124 0.51984 0.59583 0.0
C884 C 0.43708 0.51477 0.57242 0.0
C885 C 0.42486 0.49899 0.54817 0.0
C886 C 0.39719 0.48924 0.54716 0.0
H887 H 0.34164 0.41599 0.56836 0.0
H888 H 0.36332 0.43362 0.54405 0.0
H889 H 0.37123 0.44004 0.58087 0.0
H890 H 0.38189 0.51487 0.61291 0.0
H891 H 0.42993 0.53182 0.61489 0.0
H892 H 0.88216 0.75561 0.93714 0.0
H893 H 0.90166 0.71566 0.94894 0.0
H894 H 0.97384 0.76987 0.97982 0.0
H895 H 0.95443 0.81014 0.96829 0.0
H896 H 0.9789 0.71937 0.93837 0.0
H897 H 0.9182 0.69678 0.03184 0.0
H898 H 0.90027 0.70451 0.00188 0.0
H899 H 0.92482 0.73092 0.02013 0.0
C900 C 0.90214 0.75912 0.94654 0.0
C901 C 0.9167 0.78612 0.9518 0.0
C902 C 0.91321 0.73625 0.95336 0.0
C903 C 0.93906 0.73987 0.9655 0.0
C904 C 0.95379 0.7667 0.97061 0.0
H905 H 0.00215 0.5973 0.02406 0.0
H906 H 0.99274 0.64475 0.02234 0.0
C907 C 0.94266 0.78965 0.96398 0.0
C908 C 0.95086 0.71536 0.97185 0.0
H909 H 0.94252 0.66183 0.01249 0.0
C910 C 0.97122 0.70696 0.9548 0.0
C911 C 0.94108 0.69947 0.99354 0.0
C912 C 0.92002 0.70836 0.01312 0.0
C913 C 0.98109 0.68225 0.95796 0.0
C914 C 0.97012 0.66541 0.97855 0.0
C915 C 0.9508 0.67463 0.9966 0.0
C916 C 0.97661 0.63709 0.97986 0.0
C917 C 0.00286 0.67414 0.93887 0.0
C918 C 0.9703 0.617 0.95678 0.0
C919 C 0.97555 0.59008 0.95769 0.0
C920 C 0.98715 0.5824 0.98183 0.0
C921 C 0.99332 0.60251 0.00512 0.0
C922 C 0.98795 0.62961 0.00418 0.0
H923 H 0.01472 0.69255 0.93078 0.0
H924 H 0.01671 0.66315 0.94983 0.0
H925 H 0.99352 0.66003 0.92061 0.0
H926 H 0.96096 0.62207 0.93804 0.0
H927 H 0.97034 0.57522 0.93938 0.0
H928 H 0.47369 0.75402 0.20227 0.0
H929 H 0.4783 0.8035 0.19676 0.0
H930 H 0.40966 0.78703 0.14004 0.0
H931 H 0.40524 0.73768 0.14506 0.0
H932 H 0.48779 0.82548 0.14708 0.0
H933 H 0.39375 0.85414 0.19144 0.0
H934 H 0.40608 0.8229 0.19841 0.0
H935 H 0.38792 0.82392 0.16626 0.0
C936 C 0.45935 0.76101 0.18892 0.0
C937 C 0.43871 0.74196 0.17458 0.0
C938 C 0.46195 0.78928 0.1859 0.0
C939 C 0.44392 0.79904 0.16856 0.0
C940 C 0.42322 0.7801 0.15432 0.0
H941 H 0.43182 0.92098 0.06706 0.0
H942 H 0.42412 0.88633 0.10006 0.0
C943 C 0.42063 0.75182 0.1573 0.0
C944 C 0.44839 0.82844 0.16285 0.0
H945 H 0.41649 0.88438 0.15955 0.0
C946 C 0.47251 0.83867 0.15045 0.0
C947 C 0.4284 0.84555 0.1673 0.0
C948 C 0.40269 0.83617 0.18185 0.0
C949 C 0.47644 0.86481 0.14055 0.0
C950 C 0.45586 0.88135 0.14366 0.0
C951 C 0.43231 0.87174 0.15742 0.0
C952 C 0.45666 0.9061 0.12845 0.0
C953 C 0.50175 0.87363 0.12501 0.0
C954 C 0.47653 0.92961 0.13438 0.0
C955 C 0.48081 0.94971 0.11554 0.0
C956 C 0.46538 0.94621 0.09061 0.0
C957 C 0.444 0.92404 0.08615 0.0
C958 C 0.43958 0.90426 0.10499 0.0
H959 H 0.51417 0.85686 0.12149 0.0
H960 H 0.49672 0.87998 0.10436 0.0
H961 H 0.51402 0.89176 0.13728 0.0
H962 H 0.48977 0.93147 0.15256 0.0
H963 H 0.49754 0.96655 0.11927 0.0
H964 H 0.1168 0.29659 0.64013 0.0
H965 H 0.09873 0.25034 0.61753 0.0
H966 H 0.02627 0.27953 0.59444 0.0
H967 H 0.04443 0.32604 0.61645 0.0
H968 H 0.05317 0.21827 0.6327 0.0
H969 H 0.04466 0.23682 0.52109 0.0
H970 H 0.06458 0.26126 0.54683 0.0
H971 H 0.02871 0.25904 0.54555 0.0
C972 C 0.09709 0.29323 0.6301 0.0
C973 C 0.08202 0.31495 0.63012 0.0
C974 C 0.08684 0.26683 0.6171 0.0
C975 C 0.06133 0.26162 0.60394 0.0
C976 C 0.04625 0.28326 0.60385 0.0
H977 H 0.98435 0.09168 0.58373 0.0
H978 H 0.98497 0.14129 0.58147 0.0
C979 C 0.05658 0.30976 0.61668 0.0
C980 C 0.04983 0.23299 0.59244 0.0
H981 H 0.02727 0.19165 0.53237 0.0
C982 C 0.04735 0.21249 0.61081 0.0
C983 C 0.04231 0.22559 0.56383 0.0
C984 C 0.04536 0.24674 0.54306 0.0
C985 C 0.03811 0.18467 0.60134 0.0
C986 C 0.03048 0.17717 0.57277 0.0
C987 C 0.0326 0.19765 0.55434 0.0
C988 C 0.02359 0.1476 0.5618 0.0
C989 C 0.03764 0.16332 0.62184 0.0
C990 C 0.0437 0.13446 0.54877 0.0
C991 C 0.04322 0.10611 0.54985 0.0
C992 C 0.02259 0.09085 0.56383 0.0
C993 C 0.00027 0.10305 0.57253 0.0
C994 C 0.00071 0.13143 0.57141 0.0
H995 H 0.04806 0.17214 0.64203 0.0
H996 H 0.01651 0.15507 0.62632 0.0
H997 H 0.04734 0.14567 0.61284 0.0
H998 H 0.0615 0.14661 0.54124 0.0
H999 H 0.06075 0.09708 0.54329 0.0
H1000 H 0.6385 0.26122 0.43317 0.0
H1001 H 0.63054 0.30578 0.457 0.0
H1002 H 0.54843 0.27026 0.4705 0.0
H1003 H 0.55643 0.22565 0.44755 0.0
H1004 H 0.59745 0.33873 0.44319 0.0
H1005 H 0.56929 0.30785 0.54753 0.0
H1006 H 0.58466 0.28592 0.52193 0.0
H1007 H 0.54896 0.28606 0.52056 0.0
C1008 C 0.61879 0.2629 0.44134 0.0
C1009 C 0.59812 0.23987 0.43858 0.0
C1010 C 0.61431 0.28833 0.45507 0.0
C1011 C 0.58908 0.2912 0.46623 0.0
C1012 C 0.56832 0.26834 0.463 0.0
H1013 H 0.5091 0.4286 0.48002 0.0
H1014 H 0.52432 0.38363 0.47398 0.0
C1015 C 0.57285 0.2429 0.44955 0.0
C1016 C 0.58369 0.31853 0.47931 0.0
H1017 H 0.55409 0.34969 0.53542 0.0
C1018 C 0.58845 0.3412 0.46359 0.0
C1019 C 0.57237 0.32202 0.50618 0.0
C1020 C 0.56882 0.29921 0.52513 0.0
C1021 C 0.58063 0.36665 0.47317 0.0
C1022 C 0.56721 0.36933 0.49887 0.0
C1023 C 0.56396 0.34735 0.51549 0.0
C1024 C 0.55455 0.39407 0.50716 0.0
C1025 C 0.58606 0.39028 0.45528 0.0
C1026 C 0.56534 0.41408 0.52912 0.0
C1027 C 0.55632 0.43981 0.53292 0.0
C1028 C 0.5366 0.4456 0.51464 0.0
C1029 C 0.52431 0.42457 0.49438 0.0
C1030 C 0.5331 0.39898 0.49079 0.0
H1031 H 0.60247 0.38751 0.44041 0.0
H1032 H 0.56765 0.39114 0.44287 0.0
H1033 H 0.59155 0.41043 0.46847 0.0
H1034 H 0.58188 0.41053 0.54202 0.0
H1035 H 0.56632 0.45586 0.54843 0.0
loop_
_geom_bond_atom_site_label_1
_geom_bond_atom_site_label_2
_geom_bond_distance
_geom_bond_site_symmetry_2
_ccdc_geom_bond_type
O0 Cd1 2.300 . S
O0 C7 1.275 . S
Cd1 O0 2.300 . S
Cd1 O9 2.381 . S
Cd1 O10 2.378 . S
O2 Cd3 2.385 . S
O2 C7 1.255 . S
Cd3 O2 2.385 . S
Cd3 O4 2.317 . S
O4 Cd3 2.317 . S
O4 C5 1.232 . S
C5 O4 1.232 . S
C5 O6 1.218 . S
O6 C5 1.218 . S
C7 O0 1.275 . S
C7 O2 1.255 . S
C8 O9 1.258 . S
C8 O10 1.256 . S
O9 Cd1 2.381 . S
O9 C8 1.258 . S
O10 Cd1 2.378 . S
O10 C8 1.256 . S
O11 Cd12 2.300 . S
O11 C18 1.275 . S
Cd12 O11 2.300 . S
Cd12 O20 2.381 . S
Cd12 O21 2.378 . S
O13 Cd14 2.385 . S
O13 C18 1.255 . S
Cd14 O13 2.385 . S
Cd14 O15 2.317 . S
O15 Cd14 2.317 . S
O15 C16 1.232 . S
C16 O15 1.232 . S
C16 O17 1.218 . S
O17 C16 1.218 . S
C18 O11 1.275 . S
C18 O13 1.255 . S
C19 O20 1.258 . S
C19 O21 1.256 . S
O20 Cd12 2.381 . S
O20 C19 1.258 . S
O21 Cd12 2.378 . S
O21 C19 1.256 . S
O22 Cd23 2.300 . S
O22 C29 1.275 . S
Cd23 O22 2.300 . S
Cd23 O31 2.381 . S
Cd23 O32 2.378 . S
O24 Cd25 2.385 . S
O24 C29 1.255 . S
Cd25 O24 2.385 . S
Cd25 O26 2.317 . S
O26 Cd25 2.317 . S
O26 C27 1.232 . S
C27 O26 1.232 . S
C27 O28 1.218 . S
O28 C27 1.218 . S
C29 O22 1.275 . S
C29 O24 1.255 . S
C30 O31 1.258 . S
C30 O32 1.256 . S
O31 Cd23 2.381 . S
O31 C30 1.258 . S
O32 Cd23 2.378 . S
O32 C30 1.256 . S
O33 Cd34 2.300 . S
O33 C40 1.275 . S
Cd34 O33 2.300 . S
Cd34 O42 2.381 . S
Cd34 O43 2.378 . S
O35 Cd36 2.385 . S
O35 C40 1.255 . S
Cd36 O35 2.385 . S
Cd36 O37 2.317 . S
O37 Cd36 2.317 . S
O37 C38 1.232 . S
C38 O37 1.232 . S
C38 O39 1.218 . S
O39 C38 1.218 . S
C40 O33 1.275 . S
C40 O35 1.255 . S
C41 O42 1.258 . S
C41 O43 1.256 . S
O42 Cd34 2.381 . S
O42 C41 1.258 . S
O43 Cd34 2.378 . S
O43 C41 1.256 . S
O44 Cd45 2.300 . S
O44 C51 1.275 . S
Cd45 O44 2.300 . S
Cd45 O53 2.381 . S
Cd45 O54 2.378 . S
O46 Cd47 2.385 . S
O46 C51 1.255 . S
Cd47 O46 2.385 . S
Cd47 O48 2.317 . S
O48 Cd47 2.317 . S
O48 C49 1.232 . S
C49 O48 1.232 . S
C49 O50 1.218 . S
O50 C49 1.218 . S
C51 O44 1.275 . S
C51 O46 1.255 . S
C52 O53 1.258 . S
C52 O54 1.256 . S
O53 Cd45 2.381 . S
O53 C52 1.258 . S
O54 Cd45 2.378 . S
O54 C52 1.256 . S
O55 Cd56 2.300 . S
O55 C62 1.275 . S
Cd56 O55 2.300 . S
Cd56 O64 2.381 . S
Cd56 O65 2.378 . S
O57 Cd58 2.385 . S
O57 C62 1.255 . S
Cd58 O57 2.385 . S
Cd58 O59 2.317 . S
O59 Cd58 2.317 . S
O59 C60 1.232 . S
C60 O59 1.232 . S
C60 O61 1.218 . S
O61 C60 1.218 . S
C62 O55 1.275 . S
C62 O57 1.255 . S
C63 O64 1.258 . S
C63 O65 1.256 . S
O64 Cd56 2.381 . S
O64 C63 1.258 . S
O65 Cd56 2.378 . S
O65 C63 1.256 . S
O66 Cd67 2.300 . S
O66 C73 1.275 . S
Cd67 O66 2.300 . S
Cd67 O75 2.381 . S
Cd67 O76 2.378 . S
O68 Cd69 2.385 . S
O68 C73 1.255 . S
Cd69 O68 2.385 . S
Cd69 O70 2.317 . S
O70 Cd69 2.317 . S
O70 C71 1.232 . S
C71 O70 1.232 . S
C71 O72 1.218 . S
O72 C71 1.218 . S
C73 O66 1.275 . S
C73 O68 1.255 . S
C74 O75 1.258 . S
C74 O76 1.256 . S
O75 Cd67 2.381 . S
O75 C74 1.258 . S
O76 Cd67 2.378 . S
O76 C74 1.256 . S
O77 Cd78 2.300 . S
O77 C84 1.275 . S
Cd78 O77 2.300 . S
Cd78 O86 2.381 . S
Cd78 O87 2.378 . S
O79 Cd80 2.385 . S
O79 C84 1.255 . S
Cd80 O79 2.385 . S
Cd80 O81 2.317 . S
O81 Cd80 2.317 . S
O81 C82 1.232 . S
C82 O81 1.232 . S
C82 O83 1.218 . S
O83 C82 1.218 . S
C84 O77 1.275 . S
C84 O79 1.255 . S
C85 O86 1.258 . S
C85 O87 1.256 . S
O86 Cd78 2.381 . S
O86 C85 1.258 . S
O87 Cd78 2.378 . S
O87 C85 1.256 . S
O88 Mg89 1.990 . S
O88 C102 1.253 1_445 S
Mg89 O88 1.990 . S
Mg89 O92 2.180 . S
Mg89 O93 2.117 . S
Mg89 O107 2.032 . S
O90 Mg91 2.072 1_665 S
O90 C102 1.260 . S
Mg91 O90 2.072 1_445 S
Mg91 O92 2.099 . S
Mg91 O94 2.079 . S
Mg91 O95 2.072 1_455 S
Mg91 O97 2.099 1_445 S
Mg91 O108 2.079 1_545 S
O92 Mg89 2.180 . S
O92 Mg91 2.099 . S
O92 C103 1.279 . S
O93 Mg89 2.117 . S
O93 C103 1.250 . S
O94 Mg91 2.079 . S
O94 C104 1.264 . S
O95 Mg91 2.072 1_655 S
O95 C105 1.260 . S
Mg96 O97 2.180 . S
Mg96 O98 2.030 1_565 S
Mg96 O99 1.999 . S
Mg96 O100 2.117 . S
O97 Mg91 2.099 1_665 S
O97 Mg96 2.180 . S
O97 C106 1.279 . S
O98 Mg96 2.030 1_545 S
O98 C104 1.248 1_655 S
O99 Mg96 1.999 . S
O99 C105 1.243 1_565 S
O100 Mg96 2.117 . S
O100 C106 1.250 . S
C101 O107 1.247 1_565 S
C101 O108 1.264 . S
C102 O88 1.253 1_665 S
C102 O90 1.260 . S
C103 O92 1.279 . S
C103 O93 1.250 . S
C104 O94 1.264 . S
C104 O98 1.248 1_455 S
C105 O95 1.260 . S
C105 O99 1.243 1_545 S
C106 O97 1.279 . S
C106 O100 1.250 . S
O107 Mg89 2.032 . S
O107 C101 1.247 1_545 S
O108 Mg91 2.079 1_565 S
O108 C101 1.264 . S
O109 Mg110 1.990 . S
O109 C123 1.253 . S
Mg110 O109 1.990 . S
Mg110 O113 2.180 . S
Mg110 O114 2.117 . S
Mg110 O128 2.030 . S
O111 Mg112 2.072 . S
O111 C123 1.260 . S
Mg112 O111 2.072 . S
Mg112 O113 2.099 . S
Mg112 O115 2.079 . S
Mg112 O116 2.072 . S
Mg112 O118 2.099 1_545 S
Mg112 O129 2.079 . S
O113 Mg110 2.180 . S
O113 Mg112 2.099 . S
O113 C124 1.279 . S
O114 Mg110 2.117 . S
O114 C124 1.250 . S
O115 Mg112 2.079 . S
O115 C125 1.264 . S
O116 Mg112 2.072 . S
O116 C126 1.260 1_554 S
Mg117 O118 2.180 . S
Mg117 O119 2.030 . S
Mg117 O120 1.990 1_554 S
Mg117 O121 2.117 . S
O118 Mg112 2.099 1_565 S
O118 Mg117 2.180 . S
O118 C127 1.279 . S
O119 Mg117 2.030 . S
O119 C125 1.248 1_565 S
O120 Mg117 1.990 1_556 S
O120 C126 1.253 1_565 S
O121 Mg117 2.117 . S
O121 C127 1.250 . S
C122 O128 1.248 . S
C122 O129 1.264 . S
C123 O109 1.253 . S
C123 O111 1.260 . S
C124 O113 1.279 . S
C124 O114 1.250 . S
C125 O115 1.264 . S
C125 O119 1.248 1_545 S
C126 O116 1.260 1_556 S
C126 O120 1.253 1_545 S
C127 O118 1.279 . S
C127 O121 1.250 . S
O128 Mg110 2.030 . S
O128 C122 1.248 . S
O129 Mg112 2.079 . S
O129 C122 1.264 . S
O130 Mg131 1.990 . S
O130 C144 1.253 . S
Mg131 O130 1.990 . S
Mg131 O134 2.180 . S
Mg131 O135 2.117 . S
Mg131 O149 2.030 . S
O132 Mg133 2.072 . S
O132 C144 1.260 . S
Mg133 O132 2.072 . S
Mg133 O134 2.099 . S
Mg133 O136 2.079 . S
Mg133 O137 2.072 . S
Mg133 O139 2.099 . S
Mg133 O150 2.079 . S
O134 Mg131 2.180 . S
O134 Mg133 2.099 . S
O134 C145 1.279 . S
O135 Mg131 2.117 . S
O135 C145 1.250 . S
O136 Mg133 2.079 . S
O136 C146 1.264 . S
O137 Mg133 2.072 . S
O137 C147 1.260 . S
Mg138 O139 2.180 . S
Mg138 O140 2.030 . S
Mg138 O141 1.990 . S
Mg138 O142 2.117 . S
O139 Mg133 2.099 . S
O139 Mg138 2.180 . S
O139 C148 1.279 . S
O140 Mg138 2.030 . S
O140 C146 1.248 . S
O141 Mg138 1.990 . S
O141 C147 1.253 . S
O142 Mg138 2.117 . S
O142 C148 1.250 . S
C143 O149 1.248 . S
C143 O150 1.264 . S
C144 O130 1.253 . S
C144 O132 1.260 . S
C145 O134 1.279 . S
C145 O135 1.250 . S
C146 O136 1.264 . S
C146 O140 1.248 . S
C147 O137 1.260 . S
C147 O141 1.253 . S
C148 O139 1.279 . S
C148 O142 1.250 . S
O149 Mg131 2.030 . S
O149 C143 1.248 . S
O150 Mg133 2.079 . S
O150 C143 1.264 . S
O151 Mg152 1.990 . S
O151 C165 1.253 . S
Mg152 O151 1.990 . S
Mg152 O155 2.180 . S
Mg152 O156 2.117 . S
Mg152 O170 2.030 . S
O153 Mg154 2.072 . S
O153 C165 1.260 . S
Mg154 O153 2.072 . S
Mg154 O155 2.099 . S
Mg154 O157 2.079 . S
Mg154 O158 2.072 1_455 S
Mg154 O160 2.099 1_554 S
Mg154 O171 2.079 . S
O155 Mg152 2.180 . S
O155 Mg154 2.099 . S
O155 C166 1.282 . S
O156 Mg152 2.117 . S
O156 C166 1.252 . S
O157 Mg154 2.079 . S
O157 C167 1.255 1_454 S
O158 Mg154 2.072 1_655 S
O158 C168 1.260 1_554 S
Mg159 O160 2.180 1_655 S
Mg159 O161 2.030 . S
Mg159 O162 1.990 . S
Mg159 O163 2.117 1_655 S
O160 Mg154 2.099 1_556 S
O160 Mg159 2.180 1_455 S
O160 C169 1.279 . S
O161 Mg159 2.030 . S
O161 C167 1.253 . S
O162 Mg159 1.990 . S
O162 C168 1.253 . S
O163 Mg159 2.117 1_455 S
O163 C169 1.250 . S
C164 O170 1.248 . S
C164 O171 1.264 . S
C165 O151 1.253 . S
C165 O153 1.260 . S
C166 O155 1.282 . S
C166 O156 1.252 . S
C167 O157 1.255 1_656 S
C167 O161 1.253 . S
C168 O158 1.260 1_556 S
C168 O162 1.253 . S
C169 O160 1.279 . S
C169 O163 1.250 . S
O170 Mg152 2.030 . S
O170 C164 1.248 . S
O171 Mg154 2.079 . S
O171 C164 1.264 . S
H172 C180 0.929 . S
H173 C182 0.930 . S
H174 C184 0.930 . S
H175 C187 0.929 . S
H176 C190 0.930 . S
H177 C192 0.960 . S
H178 C192 0.960 . S
H179 C192 0.960 . S
C180 H172 0.929 . S
C180 C181 1.377 . S
C180 C182 1.384 . S
C181 C180 1.377 . S
C181 C187 1.390 . S
C182 H173 0.930 . S
C182 C180 1.384 . S
C182 C183 1.372 . S
C183 C182 1.372 . S
C183 C184 1.400 . S
C183 C188 1.490 . S
C184 H174 0.930 . S
C184 C183 1.400 . S
C184 C187 1.386 . S
H185 C201 0.930 1_565 S
H186 C202 0.931 . S
C187 H175 0.929 . S
C187 C181 1.390 . S
C187 C184 1.386 . S
C188 C183 1.490 . S
C188 C190 1.395 . S
C188 C191 1.403 . S
H189 C195 0.930 . S
C190 H176 0.930 . S
C190 C188 1.395 . S
C190 C193 1.403 . S
C191 C188 1.403 . S
C191 C192 1.524 . S
C191 C195 1.400 . S
C192 H177 0.960 . S
C192 H178 0.960 . S
C192 H179 0.960 . S
C192 C191 1.524 . S
C193 C190 1.403 . S
C193 C194 1.392 . S
C193 C197 1.495 . S
C194 C193 1.392 . S
C194 C195 1.385 . S
C194 C196 1.478 . S
C195 H189 0.930 . S
C195 C191 1.400 . S
C195 C194 1.385 . S
C196 C194 1.478 . S
C196 C198 1.381 . S
C196 C202 1.383 . S
C197 C193 1.495 . S
C197 H203 0.959 . S
C197 H204 0.961 . S
C197 H205 0.960 . S
C198 C196 1.381 . S
C198 C199 1.394 . S
C198 H206 0.930 . S
C199 C198 1.394 . S
C199 C200 1.383 . S
C199 H207 0.929 . S
C200 C199 1.383 . S
C200 C201 1.377 . S
C201 H185 0.930 1_545 S
C201 C200 1.377 . S
C201 C202 1.379 . S
C202 H186 0.931 . S
C202 C196 1.383 . S
C202 C201 1.379 . S
H203 C197 0.959 . S
H204 C197 0.961 . S
H205 C197 0.960 . S
H206 C198 0.930 . S
H207 C199 0.929 . S
H208 C216 0.929 . S
H209 C218 0.930 . S
H210 C220 0.930 . S
H211 C223 0.929 . S
H212 C226 0.930 . S
H213 C228 0.960 . S
H214 C228 0.960 . S
H215 C228 0.960 . S
C216 H208 0.929 . S
C216 C217 1.377 . S
C216 C218 1.384 . S
C217 C216 1.377 . S
C217 C223 1.390 . S
C218 H209 0.930 . S
C218 C216 1.384 . S
C218 C219 1.372 . S
C219 C218 1.372 . S
C219 C220 1.400 . S
C219 C224 1.490 . S
C220 H210 0.930 . S
C220 C219 1.400 . S
C220 C223 1.386 . S
H221 C237 0.930 . S
H222 C238 0.931 . S
C223 H211 0.929 . S
C223 C217 1.390 . S
C223 C220 1.386 . S
C224 C219 1.490 . S
C224 C226 1.395 . S
C224 C227 1.403 . S
H225 C231 0.930 . S
C226 H212 0.930 . S
C226 C224 1.395 . S
C226 C229 1.403 . S
C227 C224 1.403 . S
C227 C228 1.524 . S
C227 C231 1.400 . S
C228 H213 0.960 . S
C228 H214 0.960 . S
C228 H215 0.960 . S
C228 C227 1.524 . S
C229 C226 1.403 . S
C229 C230 1.392 . S
C229 C233 1.495 . S
C230 C229 1.392 . S
C230 C231 1.385 . S
C230 C232 1.478 . S
C231 H225 0.930 . S
C231 C227 1.400 . S
C231 C230 1.385 . S
C232 C230 1.478 . S
C232 C234 1.381 . S
C232 C238 1.383 1_565 S
C233 C229 1.495 . S
C233 H239 0.959 . S
C233 H240 0.961 1_565 S
C233 H241 0.960 . S
C234 C232 1.381 . S
C234 C235 1.394 . S
C234 H242 0.930 . S
C235 C234 1.394 . S
C235 C236 1.383 1_565 S
C235 H243 0.929 . S
C236 C235 1.383 1_545 S
C236 C237 1.377 . S
C237 H221 0.930 . S
C237 C236 1.377 . S
C237 C238 1.379 . S
C238 H222 0.931 . S
C238 C232 1.383 1_545 S
C238 C237 1.379 . S
H239 C233 0.959 . S
H240 C233 0.961 1_545 S
H241 C233 0.960 . S
H242 C234 0.930 . S
H243 C235 0.929 . S
H244 C252 0.929 . S
H245 C254 0.930 . S
H246 C256 0.930 . S
H247 C259 0.929 . S
H248 C262 0.930 . S
H249 C264 0.960 . S
H250 C264 0.960 . S
H251 C264 0.960 . S
C252 H244 0.929 . S
C252 C253 1.377 . S
C252 C254 1.384 . S
C253 C252 1.377 . S
C253 C259 1.390 . S
C254 H245 0.930 . S
C254 C252 1.384 . S
C254 C255 1.372 . S
C255 C254 1.372 . S
C255 C256 1.400 . S
C255 C260 1.490 . S
C256 H246 0.930 . S
C256 C255 1.400 . S
C256 C259 1.386 . S
H257 C273 0.930 . S
H258 C274 0.931 . S
C259 H247 0.929 . S
C259 C253 1.390 . S
C259 C256 1.386 . S
C260 C255 1.490 . S
C260 C262 1.395 . S
C260 C263 1.403 . S
H261 C267 0.930 . S
C262 H248 0.930 . S
C262 C260 1.395 . S
C262 C265 1.403 . S
C263 C260 1.403 . S
C263 C264 1.524 . S
C263 C267 1.400 . S
C264 H249 0.960 . S
C264 H250 0.960 . S
C264 H251 0.960 . S
C264 C263 1.524 . S
C265 C262 1.403 . S
C265 C266 1.392 . S
C265 C269 1.495 . S
C266 C265 1.392 . S
C266 C267 1.385 . S
C266 C268 1.478 . S
C267 H261 0.930 . S
C267 C263 1.400 . S
C267 C266 1.385 . S
C268 C266 1.478 . S
C268 C270 1.381 . S
C268 C274 1.383 . S
C269 C265 1.495 . S
C269 H275 0.959 . S
C269 H276 0.961 . S
C269 H277 0.960 . S
C270 C268 1.381 . S
C270 C271 1.394 . S
C270 H278 0.930 . S
C271 C270 1.394 . S
C271 C272 1.383 . S
C271 H279 0.929 . S
C272 C271 1.383 . S
C272 C273 1.377 . S
C273 H257 0.930 . S
C273 C272 1.377 . S
C273 C274 1.379 . S
C274 H258 0.931 . S
C274 C268 1.383 . S
C274 C273 1.379 . S
H275 C269 0.959 . S
H276 C269 0.961 . S
H277 C269 0.960 . S
H278 C270 0.930 . S
H279 C271 0.929 . S
H280 C288 0.929 . S
H281 C290 0.930 . S
H282 C292 0.930 . S
H283 C295 0.929 . S
H284 C298 0.930 . S
H285 C300 0.960 . S
H286 C300 0.960 . S
H287 C300 0.960 . S
C288 H280 0.929 . S
C288 C289 1.377 . S
C288 C290 1.384 . S
C289 C288 1.377 . S
C289 C295 1.390 . S
C290 H281 0.930 . S
C290 C288 1.384 . S
C290 C291 1.372 . S
C291 C290 1.372 . S
C291 C292 1.400 . S
C291 C296 1.490 . S
C292 H282 0.930 . S
C292 C291 1.400 . S
C292 C295 1.386 . S
H293 C309 0.930 . S
H294 C310 0.931 . S
C295 H283 0.929 . S
C295 C289 1.390 . S
C295 C292 1.386 . S
C296 C291 1.490 . S
C296 C298 1.395 . S
C296 C299 1.403 . S
H297 C303 0.930 . S
C298 H284 0.930 . S
C298 C296 1.395 . S
C298 C301 1.403 . S
C299 C296 1.403 . S
C299 C300 1.524 . S
C299 C303 1.400 . S
C300 H285 0.960 . S
C300 H286 0.960 . S
C300 H287 0.960 . S
C300 C299 1.524 . S
C301 C298 1.403 . S
C301 C302 1.392 . S
C301 C305 1.495 1_655 S
C302 C301 1.392 . S
C302 C303 1.385 . S
C302 C304 1.478 . S
C303 H297 0.930 . S
C303 C299 1.400 . S
C303 C302 1.385 . S
C304 C302 1.478 . S
C304 C306 1.381 1_655 S
C304 C310 1.383 . S
C305 C301 1.495 1_455 S
C305 H311 0.959 . S
C305 H312 0.961 1_455 S
C305 H313 0.960 . S
C306 C304 1.381 1_455 S
C306 C307 1.394 . S
C306 H314 0.930 . S
C307 C306 1.394 . S
C307 C308 1.383 1_455 S
C307 H315 0.929 . S
C308 C307 1.383 1_655 S
C308 C309 1.377 . S
C309 H293 0.930 . S
C309 C308 1.377 . S
C309 C310 1.379 . S
C310 H294 0.931 . S
C310 C304 1.383 . S
C310 C309 1.379 . S
H311 C305 0.959 . S
H312 C305 0.961 1_655 S
H313 C305 0.960 . S
H314 C306 0.930 . S
H315 C307 0.929 . S
H316 C324 0.929 . S
H317 C326 0.930 . S
H318 C328 0.930 . S
H319 C331 0.929 . S
H320 C334 0.930 . S
H321 C336 0.960 . S
H322 C336 0.960 . S
H323 C336 0.960 . S
C324 H316 0.929 . S
C324 C325 1.377 . S
C324 C326 1.384 . S
C325 C324 1.377 . S
C325 C331 1.390 . S
C326 H317 0.930 . S
C326 C324 1.384 . S
C326 C327 1.372 . S
C327 C326 1.372 . S
C327 C328 1.400 . S
C327 C332 1.490 . S
C328 H318 0.930 . S
C328 C327 1.400 . S
C328 C331 1.386 . S
H329 C345 0.930 . S
H330 C346 0.931 . S
C331 H319 0.929 . S
C331 C325 1.390 . S
C331 C328 1.386 . S
C332 C327 1.490 . S
C332 C334 1.395 . S
C332 C335 1.403 . S
H333 C339 0.930 . S
C334 H320 0.930 . S
C334 C332 1.395 . S
C334 C337 1.403 . S
C335 C332 1.403 . S
C335 C336 1.524 . S
C335 C339 1.400 . S
C336 H321 0.960 . S
C336 H322 0.960 . S
C336 H323 0.960 . S
C336 C335 1.524 . S
C337 C334 1.403 . S
C337 C338 1.392 . S
C337 C341 1.495 . S
C338 C337 1.392 . S
C338 C339 1.385 . S
C338 C340 1.478 . S
C339 H333 0.930 . S
C339 C335 1.400 . S
C339 C338 1.385 . S
C340 C338 1.478 . S
C340 C342 1.381 . S
C340 C346 1.383 . S
C341 C337 1.495 . S
C341 H347 0.959 . S
C341 H348 0.961 . S
C341 H349 0.960 . S
C342 C340 1.381 . S
C342 C343 1.394 . S
C342 H350 0.930 . S
C343 C342 1.394 . S
C343 C344 1.383 . S
C343 H351 0.929 . S
C344 C343 1.383 . S
C344 C345 1.377 . S
C345 H329 0.930 . S
C345 C344 1.377 . S
C345 C346 1.379 . S
C346 H330 0.931 . S
C346 C340 1.383 . S
C346 C345 1.379 . S
H347 C341 0.959 . S
H348 C341 0.961 . S
H349 C341 0.960 . S
H350 C342 0.930 . S
H351 C343 0.929 . S
H352 C360 0.929 . S
H353 C362 0.930 . S
H354 C364 0.930 . S
H355 C367 0.929 . S
H356 C370 0.930 . S
H357 C372 0.960 . S
H358 C372 0.960 . S
H359 C372 0.960 . S
C360 H352 0.929 . S
C360 C361 1.377 . S
C360 C362 1.384 . S
C361 C360 1.377 . S
C361 C367 1.390 . S
C362 H353 0.930 . S
C362 C360 1.384 . S
C362 C363 1.372 . S
C363 C362 1.372 . S
C363 C364 1.400 . S
C363 C368 1.490 . S
C364 H354 0.930 . S
C364 C363 1.400 . S
C364 C367 1.386 . S
H365 C381 0.930 . S
H366 C382 0.931 . S
C367 H355 0.929 . S
C367 C361 1.390 . S
C367 C364 1.386 . S
C368 C363 1.490 . S
C368 C370 1.395 . S
C368 C371 1.403 . S
H369 C375 0.930 . S
C370 H356 0.930 . S
C370 C368 1.395 . S
C370 C373 1.403 . S
C371 C368 1.403 . S
C371 C372 1.524 . S
C371 C375 1.400 . S
C372 H357 0.960 . S
C372 H358 0.960 . S
C372 H359 0.960 . S
C372 C371 1.524 . S
C373 C370 1.403 . S
C373 C374 1.392 . S
C373 C377 1.495 . S
C374 C373 1.392 . S
C374 C375 1.385 . S
C374 C376 1.478 . S
C375 H369 0.930 . S
C375 C371 1.400 . S
C375 C374 1.385 . S
C376 C374 1.478 . S
C376 C378 1.381 . S
C376 C382 1.383 . S
C377 C373 1.495 . S
C377 H383 0.959 1_565 S
C377 H384 0.961 1_565 S
C377 H385 0.960 . S
C378 C376 1.381 . S
C378 C379 1.394 . S
C378 H386 0.930 . S
C379 C378 1.394 . S
C379 C380 1.383 . S
C379 H387 0.929 . S
C380 C379 1.383 . S
C380 C381 1.377 . S
C381 H365 0.930 . S
C381 C380 1.377 . S
C381 C382 1.379 . S
C382 H366 0.931 . S
C382 C376 1.383 . S
C382 C381 1.379 . S
H383 C377 0.959 1_545 S
H384 C377 0.961 1_545 S
H385 C377 0.960 . S
H386 C378 0.930 . S
H387 C379 0.929 . S
H388 C396 0.929 . S
H389 C398 0.930 . S
H390 C400 0.930 . S
H391 C403 0.929 . S
H392 C406 0.930 . S
H393 C408 0.960 . S
H394 C408 0.960 . S
H395 C408 0.960 . S
C396 H388 0.929 . S
C396 C397 1.377 . S
C396 C398 1.384 . S
C397 C396 1.377 . S
C397 C403 1.390 . S
C398 H389 0.930 . S
C398 C396 1.384 . S
C398 C399 1.372 . S
C399 C398 1.372 . S
C399 C400 1.400 . S
C399 C404 1.490 . S
C400 H390 0.930 . S
C400 C399 1.400 . S
C400 C403 1.386 . S
H401 C417 0.930 . S
H402 C418 0.931 . S
C403 H391 0.929 . S
C403 C397 1.390 . S
C403 C400 1.386 . S
C404 C399 1.490 . S
C404 C406 1.395 . S
C404 C407 1.403 . S
H405 C411 0.930 . S
C406 H392 0.930 . S
C406 C404 1.395 . S
C406 C409 1.403 . S
C407 C404 1.403 . S
C407 C408 1.524 . S
C407 C411 1.400 . S
C408 H393 0.960 . S
C408 H394 0.960 . S
C408 H395 0.960 . S
C408 C407 1.524 . S
C409 C406 1.403 . S
C409 C410 1.392 . S
C409 C413 1.495 . S
C410 C409 1.392 . S
C410 C411 1.385 . S
C410 C412 1.478 . S
C411 H405 0.930 . S
C411 C407 1.400 . S
C411 C410 1.385 . S
C412 C410 1.478 . S
C412 C414 1.381 . S
C412 C418 1.383 . S
C413 C409 1.495 . S
C413 H419 0.959 . S
C413 H420 0.961 . S
C413 H421 0.960 . S
C414 C412 1.381 . S
C414 C415 1.394 1_556 S
C414 H422 0.930 1_556 S
C415 C414 1.394 1_554 S
C415 C416 1.383 1_554 S
C415 H423 0.929 . S
C416 C415 1.383 1_556 S
C416 C417 1.377 . S
C417 H401 0.930 . S
C417 C416 1.377 . S
C417 C418 1.379 . S
C418 H402 0.931 . S
C418 C412 1.383 . S
C418 C417 1.379 . S
H419 C413 0.959 . S
H420 C413 0.961 . S
H421 C413 0.960 . S
H422 C414 0.930 1_554 S
H423 C415 0.929 . S
H424 C432 0.929 . S
H425 C434 0.930 . S
H426 C436 0.930 . S
H427 C439 0.929 . S
H428 C442 0.930 . S
H429 C444 0.960 . S
H430 C444 0.960 . S
H431 C444 0.960 . S
C432 H424 0.929 . S
C432 C433 1.377 . S
C432 C434 1.384 . S
C433 C432 1.377 . S
C433 C439 1.390 . S
C434 H425 0.930 . S
C434 C432 1.384 . S
C434 C435 1.372 . S
C435 C434 1.372 . S
C435 C436 1.400 . S
C435 C440 1.490 . S
C436 H426 0.930 . S
C436 C435 1.400 . S
C436 C439 1.386 . S
H437 C453 0.930 . S
H438 C454 0.931 . S
C439 H427 0.929 . S
C439 C433 1.390 . S
C439 C436 1.386 . S
C440 C435 1.490 . S
C440 C442 1.395 . S
C440 C443 1.403 . S
H441 C447 0.930 . S
C442 H428 0.930 . S
C442 C440 1.395 . S
C442 C445 1.403 . S
C443 C440 1.403 . S
C443 C444 1.524 . S
C443 C447 1.400 . S
C444 H429 0.960 . S
C444 H430 0.960 . S
C444 H431 0.960 . S
C444 C443 1.524 . S
C445 C442 1.403 . S
C445 C446 1.392 . S
C445 C449 1.495 . S
C446 C445 1.392 . S
C446 C447 1.385 . S
C446 C448 1.478 . S
C447 H441 0.930 . S
C447 C443 1.400 . S
C447 C446 1.385 . S
C448 C446 1.478 . S
C448 C450 1.381 . S
C448 C454 1.383 . S
C449 C445 1.495 . S
C449 H455 0.959 . S
C449 H456 0.961 . S
C449 H457 0.960 . S
C450 C448 1.381 . S
C450 C451 1.394 . S
C450 H458 0.930 . S
C451 C450 1.394 . S
C451 C452 1.383 . S
C451 H459 0.929 . S
C452 C451 1.383 . S
C452 C453 1.377 . S
C453 H437 0.930 . S
C453 C452 1.377 . S
C453 C454 1.379 . S
C454 H438 0.931 . S
C454 C448 1.383 . S
C454 C453 1.379 . S
H455 C449 0.959 . S
H456 C449 0.961 . S
H457 C449 0.960 . S
H458 C450 0.930 . S
H459 C451 0.929 . S
H460 C468 0.929 . S
H461 C470 0.930 . S
H462 C472 0.930 . S
H463 C475 0.929 . S
H464 C478 0.930 . S
H465 C480 0.960 . S
H466 C480 0.960 . S
H467 C480 0.960 . S
C468 H460 0.929 . S
C468 C469 1.377 . S
C468 C470 1.384 . S
C469 C468 1.377 . S
C469 C475 1.390 . S
C470 H461 0.930 . S
C470 C468 1.384 . S
C470 C471 1.372 . S
C471 C470 1.372 . S
C471 C472 1.400 . S
C471 C476 1.490 . S
C472 H462 0.930 . S
C472 C471 1.400 . S
C472 C475 1.386 . S
H473 C489 0.930 . S
H474 C490 0.931 . S
C475 H463 0.929 . S
C475 C469 1.390 . S
C475 C472 1.386 . S
C476 C471 1.490 . S
C476 C478 1.395 . S
C476 C479 1.403 . S
H477 C483 0.930 . S
C478 H464 0.930 . S
C478 C476 1.395 . S
C478 C481 1.403 . S
C479 C476 1.403 . S
C479 C480 1.524 . S
C479 C483 1.400 . S
C480 H465 0.960 . S
C480 H466 0.960 . S
C480 H467 0.960 . S
C480 C479 1.524 . S
C481 C478 1.403 . S
C481 C482 1.392 . S
C481 C485 1.495 . S
C482 C481 1.392 . S
C482 C483 1.385 . S
C482 C484 1.478 . S
C483 H477 0.930 . S
C483 C479 1.400 . S
C483 C482 1.385 . S
C484 C482 1.478 . S
C484 C486 1.381 . S
C484 C490 1.383 . S
C485 C481 1.495 . S
C485 H491 0.959 . S
C485 H492 0.961 . S
C485 H493 0.960 . S
C486 C484 1.381 . S
C486 C487 1.394 . S
C486 H494 0.930 . S
C487 C486 1.394 . S
C487 C488 1.383 . S
C487 H495 0.939 . S
C488 C487 1.383 . S
C488 C489 1.377 . S
C489 H473 0.930 . S
C489 C488 1.377 . S
C489 C490 1.379 . S
C490 H474 0.931 . S
C490 C484 1.383 . S
C490 C489 1.379 . S
H491 C485 0.959 . S
H492 C485 0.961 . S
H493 C485 0.960 . S
H494 C486 0.930 . S
H495 C487 0.939 . S
H496 C504 0.929 . S
H497 C506 0.930 . S
H498 C508 0.930 . S
H499 C511 0.929 . S
H500 C514 0.930 . S
H501 C516 0.960 . S
H502 C516 0.960 . S
H503 C516 0.960 . S
C504 H496 0.929 . S
C504 C505 1.377 . S
C504 C506 1.384 . S
C505 C504 1.377 . S
C505 C511 1.390 . S
C506 H497 0.930 . S
C506 C504 1.384 . S
C506 C507 1.372 . S
C507 C506 1.372 . S
C507 C508 1.400 . S
C507 C512 1.490 . S
C508 H498 0.930 . S
C508 C507 1.400 . S
C508 C511 1.386 . S
H509 C525 0.930 . S
H510 C526 0.931 . S
C511 H499 0.929 . S
C511 C505 1.390 . S
C511 C508 1.386 . S
C512 C507 1.490 . S
C512 C514 1.395 . S
C512 C515 1.403 . S
H513 C519 0.930 . S
C514 H500 0.930 . S
C514 C512 1.395 . S
C514 C517 1.403 . S
C515 C512 1.403 . S
C515 C516 1.524 1_556 S
C515 C519 1.400 1_556 S
C516 H501 0.960 . S
C516 H502 0.960 . S
C516 H503 0.960 . S
C516 C515 1.524 1_554 S
C517 C514 1.403 . S
C517 C518 1.392 . S
C517 C521 1.495 . S
C518 C517 1.392 . S
C518 C519 1.385 1_556 S
C518 C520 1.478 . S
C519 H513 0.930 . S
C519 C515 1.400 1_554 S
C519 C518 1.385 1_554 S
C520 C518 1.478 . S
C520 C522 1.381 . S
C520 C526 1.383 1_556 S
C521 C517 1.495 . S
C521 H527 0.959 . S
C521 H528 0.961 . S
C521 H529 0.960 . S
C522 C520 1.381 . S
C522 C523 1.382 1_556 S
C522 H530 0.930 . S
C523 C522 1.382 1_554 S
C523 C524 1.395 . S
C523 H531 0.929 . S
C524 C523 1.395 . S
C524 C525 1.377 . S
C525 H509 0.930 . S
C525 C524 1.377 . S
C525 C526 1.379 . S
C526 H510 0.931 . S
C526 C520 1.383 1_554 S
C526 C525 1.379 . S
H527 C521 0.959 . S
H528 C521 0.961 . S
H529 C521 0.960 . S
H530 C522 0.930 . S
H531 C523 0.929 . S
H532 C540 0.929 . S
H533 C542 0.930 . S
H534 C544 0.930 . S
H535 C547 0.929 . S
H536 C550 0.930 . S
H537 C552 0.960 . S
H538 C552 0.960 . S
H539 C552 0.960 . S
C540 H532 0.929 . S
C540 C541 1.377 . S
C540 C542 1.384 . S
C541 C540 1.377 . S
C541 C547 1.390 . S
C542 H533 0.930 . S
C542 C540 1.384 . S
C542 C543 1.372 . S
C543 C542 1.372 . S
C543 C544 1.400 . S
C543 C548 1.490 . S
C544 H534 0.930 . S
C544 C543 1.400 . S
C544 C547 1.386 . S
H545 C561 0.930 . S
H546 C562 0.931 . S
C547 H535 0.929 . S
C547 C541 1.390 . S
C547 C544 1.386 . S
C548 C543 1.490 . S
C548 C550 1.395 . S
C548 C551 1.403 . S
H549 C555 0.930 . S
C550 H536 0.930 . S
C550 C548 1.395 . S
C550 C553 1.403 . S
C551 C548 1.403 . S
C551 C552 1.524 . S
C551 C555 1.400 . S
C552 H537 0.960 . S
C552 H538 0.960 . S
C552 H539 0.960 . S
C552 C551 1.524 . S
C553 C550 1.403 . S
C553 C554 1.392 . S
C553 C557 1.495 . S
C554 C553 1.392 . S
C554 C555 1.385 . S
C554 C556 1.478 . S
C555 H549 0.930 . S
C555 C551 1.400 . S
C555 C554 1.385 . S
C556 C554 1.478 . S
C556 C558 1.381 . S
C556 C562 1.383 . S
C557 C553 1.495 . S
C557 H563 0.959 . S
C557 H564 0.961 . S
C557 H565 0.960 . S
C558 C556 1.381 . S
C558 C559 1.394 . S
C558 H566 0.930 1_655 S
C559 C558 1.394 . S
C559 C560 1.383 . S
C559 H567 0.929 1_655 S
C560 C559 1.383 . S
C560 C561 1.377 . S
C561 H545 0.930 . S
C561 C560 1.377 . S
C561 C562 1.379 . S
C562 H546 0.931 . S
C562 C556 1.383 . S
C562 C561 1.379 . S
H563 C557 0.959 . S
H564 C557 0.961 . S
H565 C557 0.960 . S
H566 C558 0.930 1_455 S
H567 C559 0.929 1_455 S
H568 C576 0.929 . S
H569 C578 0.930 . S
H570 C580 0.930 . S
H571 C583 0.929 . S
H572 C586 0.930 . S
H573 C588 0.960 . S
H574 C588 0.960 . S
H575 C588 0.960 . S
C576 H568 0.929 . S
C576 C577 1.377 . S
C576 C578 1.384 . S
C577 C576 1.377 . S
C577 C583 1.390 . S
C578 H569 0.930 . S
C578 C576 1.384 . S
C578 C579 1.372 . S
C579 C578 1.372 . S
C579 C580 1.400 . S
C579 C584 1.490 . S
C580 H570 0.930 . S
C580 C579 1.400 . S
C580 C583 1.386 . S
H581 C597 0.930 . S
H582 C598 0.931 . S
C583 H571 0.929 . S
C583 C577 1.390 . S
C583 C580 1.386 . S
C584 C579 1.490 . S
C584 C586 1.395 . S
C584 C587 1.403 . S
H585 C591 0.930 . S
C586 H572 0.930 . S
C586 C584 1.395 . S
C586 C589 1.403 . S
C587 C584 1.403 . S
C587 C588 1.524 . S
C587 C591 1.400 . S
C588 H573 0.960 . S
C588 H574 0.960 . S
C588 H575 0.960 . S
C588 C587 1.524 . S
C589 C586 1.403 . S
C589 C590 1.392 . S
C589 C593 1.495 . S
C590 C589 1.392 . S
C590 C591 1.385 . S
C590 C592 1.478 . S
C591 H585 0.930 . S
C591 C587 1.400 . S
C591 C590 1.385 . S
C592 C590 1.478 . S
C592 C594 1.381 . S
C592 C598 1.383 . S
C593 C589 1.495 . S
C593 H599 0.959 . S
C593 H600 0.961 . S
C593 H601 0.960 . S
C594 C592 1.381 . S
C594 C595 1.394 . S
C594 H602 0.930 . S
C595 C594 1.394 . S
C595 C596 1.383 . S
C595 H603 0.929 . S
C596 C595 1.383 . S
C596 C597 1.377 . S
C597 H581 0.930 . S
C597 C596 1.377 . S
C597 C598 1.379 . S
C598 H582 0.931 . S
C598 C592 1.383 . S
C598 C597 1.379 . S
H599 C593 0.959 . S
H600 C593 0.961 . S
H601 C593 0.960 . S
H602 C594 0.930 . S
H603 C595 0.929 . S
H604 C612 0.929 . S
H605 C614 0.930 . S
H606 C616 0.930 . S
H607 C619 0.929 . S
H608 C622 0.930 . S
H609 C624 0.960 . S
H610 C624 0.960 . S
H611 C624 0.960 . S
C612 H604 0.929 . S
C612 C613 1.377 . S
C612 C614 1.384 . S
C613 C612 1.377 . S
C613 C619 1.390 . S
C614 H605 0.930 . S
C614 C612 1.384 . S
C614 C615 1.372 . S
C615 C614 1.372 . S
C615 C616 1.400 . S
C615 C620 1.490 . S
C616 H606 0.930 . S
C616 C615 1.400 . S
C616 C619 1.386 . S
H617 C633 0.953 1_545 S
H618 C634 0.931 . S
C619 H607 0.929 . S
C619 C613 1.390 . S
C619 C616 1.386 . S
C620 C615 1.490 . S
C620 C622 1.395 . S
C620 C623 1.403 . S
H621 C627 0.930 . S
C622 H608 0.930 . S
C622 C620 1.395 . S
C622 C625 1.403 . S
C623 C620 1.403 . S
C623 C624 1.524 . S
C623 C627 1.400 . S
C624 H609 0.960 . S
C624 H610 0.960 . S
C624 H611 0.960 . S
C624 C623 1.524 . S
C625 C622 1.403 . S
C625 C626 1.392 . S
C625 C629 1.495 . S
C626 C625 1.392 . S
C626 C627 1.385 . S
C626 C628 1.478 . S
C627 H621 0.930 . S
C627 C623 1.400 . S
C627 C626 1.385 . S
C628 C626 1.478 . S
C628 C630 1.381 . S
C628 C634 1.383 . S
C629 C625 1.495 . S
C629 H635 0.959 . S
C629 H636 0.961 . S
C629 H637 0.960 . S
C630 C628 1.381 . S
C630 C631 1.394 . S
C630 H638 0.930 . S
C631 C630 1.394 . S
C631 C632 1.383 . S
C631 H639 0.929 . S
C632 C631 1.383 . S
C632 C633 1.377 . S
C633 H617 0.953 1_565 S
C633 C632 1.377 . S
C633 C634 1.379 . S
C634 H618 0.931 . S
C634 C628 1.383 . S
C634 C633 1.379 . S
H635 C629 0.959 . S
H636 C629 0.961 . S
H637 C629 0.960 . S
H638 C630 0.930 . S
H639 C631 0.929 . S
H640 C648 0.929 . S
H641 C650 0.930 . S
H642 C652 0.930 . S
H643 C655 0.929 . S
H644 C658 0.930 . S
H645 C660 0.960 . S
H646 C660 0.960 . S
H647 C660 0.960 . S
C648 H640 0.929 . S
C648 C649 1.377 . S
C648 C650 1.384 . S
C649 C648 1.377 . S
C649 C655 1.390 . S
C650 H641 0.930 . S
C650 C648 1.384 . S
C650 C651 1.372 . S
C651 C650 1.372 . S
C651 C652 1.400 . S
C651 C656 1.490 . S
C652 H642 0.930 . S
C652 C651 1.400 . S
C652 C655 1.386 . S
H653 C669 0.930 . S
H654 C670 0.931 . S
C655 H643 0.929 . S
C655 C649 1.390 . S
C655 C652 1.386 . S
C656 C651 1.490 . S
C656 C658 1.395 . S
C656 C659 1.403 . S
H657 C663 0.930 . S
C658 H644 0.930 . S
C658 C656 1.395 . S
C658 C661 1.403 . S
C659 C656 1.403 . S
C659 C660 1.524 . S
C659 C663 1.400 . S
C660 H645 0.960 . S
C660 H646 0.960 . S
C660 H647 0.960 . S
C660 C659 1.524 . S
C661 C658 1.403 . S
C661 C662 1.392 . S
C661 C665 1.495 . S
C662 C661 1.392 . S
C662 C663 1.385 . S
C662 C664 1.478 . S
C663 H657 0.930 . S
C663 C659 1.400 . S
C663 C662 1.385 . S
C664 C662 1.478 . S
C664 C666 1.381 . S
C664 C670 1.383 . S
C665 C661 1.495 . S
C665 H671 0.959 . S
C665 H672 0.961 . S
C665 H673 0.960 . S
C666 C664 1.381 . S
C666 C667 1.394 . S
C666 H674 0.930 . S
C667 C666 1.394 . S
C667 C668 1.383 . S
C667 H675 0.929 . S
C668 C667 1.383 . S
C668 C669 1.377 . S
C669 H653 0.930 . S
C669 C668 1.377 . S
C669 C670 1.379 . S
C670 H654 0.931 . S
C670 C664 1.383 . S
C670 C669 1.379 . S
H671 C665 0.959 . S
H672 C665 0.961 . S
H673 C665 0.960 . S
H674 C666 0.930 . S
H675 C667 0.929 . S
H676 C684 0.929 . S
H677 C686 0.930 . S
H678 C688 0.930 . S
H679 C691 0.929 . S
H680 C694 0.930 . S
H681 C696 0.960 . S
H682 C696 0.960 . S
H683 C696 0.960 . S
C684 H676 0.929 . S
C684 C685 1.377 . S
C684 C686 1.384 . S
C685 C684 1.377 . S
C685 C691 1.390 . S
C686 H677 0.930 . S
C686 C684 1.384 . S
C686 C687 1.372 . S
C687 C686 1.372 . S
C687 C688 1.400 . S
C687 C692 1.490 . S
C688 H678 0.930 . S
C688 C687 1.400 . S
C688 C691 1.386 . S
H689 C705 0.930 . S
H690 C706 0.931 . S
C691 H679 0.929 . S
C691 C685 1.390 . S
C691 C688 1.386 . S
C692 C687 1.490 . S
C692 C694 1.395 . S
C692 C695 1.403 . S
H693 C699 0.930 . S
C694 H680 0.930 . S
C694 C692 1.395 . S
C694 C697 1.403 . S
C695 C692 1.403 . S
C695 C696 1.524 . S
C695 C699 1.400 . S
C696 H681 0.960 . S
C696 H682 0.960 . S
C696 H683 0.960 . S
C696 C695 1.524 . S
C697 C694 1.403 . S
C697 C698 1.392 . S
C697 C701 1.495 . S
C698 C697 1.392 . S
C698 C699 1.385 . S
C698 C700 1.478 . S
C699 H693 0.930 . S
C699 C695 1.400 . S
C699 C698 1.385 . S
C700 C698 1.478 . S
C700 C702 1.381 . S
C700 C706 1.383 . S
C701 C697 1.495 . S
C701 H707 0.959 . S
C701 H708 0.961 . S
C701 H709 0.960 . S
C702 C700 1.381 . S
C702 C703 1.394 . S
C702 H710 0.930 . S
C703 C702 1.394 . S
C703 C704 1.383 . S
C703 H711 0.929 . S
C704 C703 1.383 . S
C704 C705 1.377 . S
C705 H689 0.930 . S
C705 C704 1.377 . S
C705 C706 1.379 . S
C706 H690 0.931 . S
C706 C700 1.383 . S
C706 C705 1.379 . S
H707 C701 0.959 . S
H708 C701 0.961 . S
H709 C701 0.960 . S
H710 C702 0.930 . S
H711 C703 0.929 . S
H712 C720 0.929 . S
H713 C722 0.930 . S
H714 C724 0.930 . S
H715 C727 0.929 . S
H716 C730 0.930 . S
H717 C732 0.960 . S
H718 C732 0.960 . S
H719 C732 0.960 . S
C720 H712 0.929 . S
C720 C721 1.377 . S
C720 C722 1.384 . S
C721 C720 1.377 . S
C721 C727 1.390 . S
C722 H713 0.930 . S
C722 C720 1.384 . S
C722 C723 1.372 . S
C723 C722 1.372 . S
C723 C724 1.400 . S
C723 C728 1.490 . S
C724 H714 0.930 . S
C724 C723 1.400 . S
C724 C727 1.386 . S
H725 C741 0.930 . S
H726 C742 0.931 . S
C727 H715 0.929 . S
C727 C721 1.390 . S
C727 C724 1.386 . S
C728 C723 1.490 . S
C728 C730 1.395 . S
C728 C731 1.403 . S
H729 C735 0.930 . S
C730 H716 0.930 . S
C730 C728 1.395 . S
C730 C733 1.403 . S
C731 C728 1.403 . S
C731 C732 1.524 . S
C731 C735 1.400 . S
C732 H717 0.960 . S
C732 H718 0.960 . S
C732 H719 0.960 . S
C732 C731 1.524 . S
C733 C730 1.403 . S
C733 C734 1.392 . S
C733 C737 1.495 . S
C734 C733 1.392 . S
C734 C735 1.385 . S
C734 C736 1.478 . S
C735 H729 0.930 . S
C735 C731 1.400 . S
C735 C734 1.385 . S
C736 C734 1.478 . S
C736 C738 1.381 . S
C736 C742 1.383 . S
C737 C733 1.495 . S
C737 H743 0.959 . S
C737 H744 0.961 . S
C737 H745 0.960 . S
C738 C736 1.381 . S
C738 C739 1.394 . S
C738 H746 0.930 . S
C739 C738 1.394 . S
C739 C740 1.383 . S
C739 H747 0.929 . S
C740 C739 1.383 . S
C740 C741 1.377 . S
C741 H725 0.930 . S
C741 C740 1.377 . S
C741 C742 1.379 . S
C742 H726 0.931 . S
C742 C736 1.383 . S
C742 C741 1.379 . S
H743 C737 0.959 . S
H744 C737 0.961 . S
H745 C737 0.960 . S
H746 C738 0.930 . S
H747 C739 0.929 . S
H748 C756 0.929 . S
H749 C758 0.930 . S
H750 C760 0.930 . S
H751 C763 0.929 . S
H752 C766 0.930 . S
H753 C768 0.960 . S
H754 C768 0.960 1_565 S
H755 C768 0.960 . S
C756 H748 0.929 . S
C756 C757 1.377 . S
C756 C758 1.384 . S
C757 C756 1.377 . S
C757 C763 1.390 . S
C758 H749 0.930 . S
C758 C756 1.384 . S
C758 C759 1.372 . S
C759 C758 1.372 . S
C759 C760 1.400 . S
C759 C764 1.490 . S
C760 H750 0.930 . S
C760 C759 1.400 . S
C760 C763 1.386 . S
H761 C777 0.930 . S
H762 C778 0.931 . S
C763 H751 0.929 . S
C763 C757 1.390 . S
C763 C760 1.386 . S
C764 C759 1.490 . S
C764 C766 1.395 . S
C764 C767 1.403 . S
H765 C771 0.930 1_545 S
C766 H752 0.930 . S
C766 C764 1.395 . S
C766 C769 1.403 . S
C767 C764 1.403 . S
C767 C768 1.524 1_565 S
C767 C771 1.400 . S
C768 H753 0.960 . S
C768 H754 0.960 1_545 S
C768 H755 0.960 . S
C768 C767 1.524 1_545 S
C769 C766 1.403 . S
C769 C770 1.392 . S
C769 C773 1.495 1_556 S
C770 C769 1.392 . S
C770 C771 1.385 . S
C770 C772 1.478 1_556 S
C771 H765 0.930 1_565 S
C771 C767 1.400 . S
C771 C770 1.385 . S
C772 C770 1.478 1_554 S
C772 C774 1.381 1_554 S
C772 C778 1.383 1_565 S
C773 C769 1.495 1_554 S
C773 H779 0.959 . S
C773 H780 0.961 . S
C773 H781 0.960 . S
C774 C772 1.381 1_556 S
C774 C775 1.394 . S
C774 H782 0.930 . S
C775 C774 1.394 . S
C775 C776 1.379 1_566 S
C775 H783 0.929 . S
C776 C775 1.379 1_544 S
C776 C777 1.379 . S
C777 H761 0.930 . S
C777 C776 1.379 . S
C777 C778 1.379 . S
C778 H762 0.931 . S
C778 C772 1.383 1_545 S
C778 C777 1.379 . S
H779 C773 0.959 . S
H780 C773 0.961 . S
H781 C773 0.960 . S
H782 C774 0.930 . S
H783 C775 0.929 . S
H784 C792 0.929 . S
H785 C794 0.930 . S
H786 C796 0.930 . S
H787 C799 0.929 . S
H788 C802 0.930 . S
H789 C804 0.960 . S
H790 C804 0.960 . S
H791 C804 0.960 . S
C792 H784 0.929 . S
C792 C793 1.377 . S
C792 C794 1.384 . S
C793 C792 1.377 . S
C793 C799 1.390 . S
C794 H785 0.930 . S
C794 C792 1.384 . S
C794 C795 1.372 . S
C795 C794 1.372 . S
C795 C796 1.400 . S
C795 C800 1.490 . S
C796 H786 0.930 . S
C796 C795 1.400 . S
C796 C799 1.386 . S
H797 C813 0.930 . S
H798 C814 0.931 . S
C799 H787 0.929 . S
C799 C793 1.390 . S
C799 C796 1.386 . S
C800 C795 1.490 . S
C800 C802 1.395 . S
C800 C803 1.403 . S
H801 C807 0.930 . S
C802 H788 0.930 . S
C802 C800 1.395 . S
C802 C805 1.403 . S
C803 C800 1.403 . S
C803 C804 1.524 . S
C803 C807 1.400 . S
C804 H789 0.960 . S
C804 H790 0.960 . S
C804 H791 0.960 . S
C804 C803 1.524 . S
C805 C802 1.403 . S
C805 C806 1.392 . S
C805 C809 1.495 . S
C806 C805 1.392 . S
C806 C807 1.385 . S
C806 C808 1.478 . S
C807 H801 0.930 . S
C807 C803 1.400 . S
C807 C806 1.385 . S
C808 C806 1.478 . S
C808 C810 1.381 . S
C808 C814 1.383 . S
C809 C805 1.495 . S
C809 H815 0.959 . S
C809 H816 0.961 . S
C809 H817 0.960 . S
C810 C808 1.381 . S
C810 C811 1.394 . S
C810 H818 0.930 . S
C811 C810 1.394 . S
C811 C812 1.383 . S
C811 H819 0.929 1_545 S
C812 C811 1.383 . S
C812 C813 1.377 . S
C813 H797 0.930 . S
C813 C812 1.377 . S
C813 C814 1.379 . S
C814 H798 0.931 . S
C814 C808 1.383 . S
C814 C813 1.379 . S
H815 C809 0.959 . S
H816 C809 0.961 . S
H817 C809 0.960 . S
H818 C810 0.930 . S
H819 C811 0.929 1_565 S
H820 C828 0.929 . S
H821 C830 0.930 . S
H822 C832 0.930 . S
H823 C835 0.929 . S
H824 C838 0.930 . S
H825 C840 0.960 . S
H826 C840 0.960 . S
H827 C840 0.960 . S
C828 H820 0.929 . S
C828 C829 1.377 . S
C828 C830 1.384 . S
C829 C828 1.377 . S
C829 C835 1.390 . S
C830 H821 0.930 . S
C830 C828 1.384 . S
C830 C831 1.372 . S
C831 C830 1.372 . S
C831 C832 1.400 . S
C831 C836 1.490 . S
C832 H822 0.930 . S
C832 C831 1.400 . S
C832 C835 1.386 . S
H833 C849 0.930 . S
H834 C850 0.931 . S
C835 H823 0.929 . S
C835 C829 1.390 . S
C835 C832 1.386 . S
C836 C831 1.490 . S
C836 C838 1.395 . S
C836 C839 1.403 . S
H837 C843 0.930 . S
C838 H824 0.930 . S
C838 C836 1.395 . S
C838 C841 1.403 . S
C839 C836 1.403 . S
C839 C840 1.524 . S
C839 C843 1.400 . S
C840 H825 0.960 . S
C840 H826 0.960 . S
C840 H827 0.960 . S
C840 C839 1.524 . S
C841 C838 1.403 . S
C841 C842 1.392 . S
C841 C845 1.495 . S
C842 C841 1.392 . S
C842 C843 1.385 . S
C842 C844 1.478 . S
C843 H837 0.930 . S
C843 C839 1.400 . S
C843 C842 1.385 . S
C844 C842 1.478 . S
C844 C846 1.381 . S
C844 C850 1.383 . S
C845 C841 1.495 . S
C845 H851 0.959 . S
C845 H852 0.961 . S
C845 H853 0.960 . S
C846 C844 1.381 . S
C846 C847 1.394 . S
C846 H854 0.930 . S
C847 C846 1.394 . S
C847 C848 1.383 . S
C847 H855 0.929 . S
C848 C847 1.383 . S
C848 C849 1.377 . S
C849 H833 0.930 . S
C849 C848 1.377 . S
C849 C850 1.379 . S
C850 H834 0.931 . S
C850 C844 1.383 . S
C850 C849 1.379 . S
H851 C845 0.959 . S
H852 C845 0.961 . S
H853 C845 0.960 . S
H854 C846 0.930 . S
H855 C847 0.929 . S
H856 C864 0.929 . S
H857 C866 0.930 . S
H858 C868 0.930 . S
H859 C871 0.929 . S
H860 C874 0.930 . S
H861 C876 0.960 . S
H862 C876 0.960 . S
H863 C876 0.960 . S
C864 H856 0.929 . S
C864 C865 1.377 . S
C864 C866 1.384 . S
C865 C864 1.377 . S
C865 C871 1.390 . S
C866 H857 0.930 . S
C866 C864 1.384 . S
C866 C867 1.372 . S
C867 C866 1.372 . S
C867 C868 1.400 . S
C867 C872 1.490 . S
C868 H858 0.930 . S
C868 C867 1.400 . S
C868 C871 1.386 . S
H869 C885 0.930 . S
H870 C886 0.931 . S
C871 H859 0.929 . S
C871 C865 1.390 . S
C871 C868 1.386 . S
C872 C867 1.490 . S
C872 C874 1.395 . S
C872 C875 1.403 . S
H873 C879 0.930 . S
C874 H860 0.930 . S
C874 C872 1.395 . S
C874 C877 1.403 . S
C875 C872 1.403 . S
C875 C876 1.524 . S
C875 C879 1.400 . S
C876 H861 0.960 . S
C876 H862 0.960 . S
C876 H863 0.960 . S
C876 C875 1.524 . S
C877 C874 1.403 . S
C877 C878 1.392 . S
C877 C881 1.495 . S
C878 C877 1.392 . S
C878 C879 1.385 . S
C878 C880 1.478 . S
C879 H873 0.930 . S
C879 C875 1.400 . S
C879 C878 1.385 . S
C880 C878 1.478 . S
C880 C882 1.381 . S
C880 C886 1.383 . S
C881 C877 1.495 . S
C881 H887 0.959 . S
C881 H888 0.961 . S
C881 H889 0.960 . S
C882 C880 1.381 . S
C882 C883 1.394 . S
C882 H890 0.930 . S
C883 C882 1.394 . S
C883 C884 1.383 . S
C883 H891 0.929 . S
C884 C883 1.383 . S
C884 C885 1.377 . S
C885 H869 0.930 . S
C885 C884 1.377 . S
C885 C886 1.379 . S
C886 H870 0.931 . S
C886 C880 1.383 . S
C886 C885 1.379 . S
H887 C881 0.959 . S
H888 C881 0.961 . S
H889 C881 0.960 . S
H890 C882 0.930 . S
H891 C883 0.929 . S
H892 C900 0.929 . S
H893 C902 0.930 . S
H894 C904 0.930 . S
H895 C907 0.929 . S
H896 C910 0.930 . S
H897 C912 0.960 . S
H898 C912 0.960 1_556 S
H899 C912 0.960 . S
C900 H892 0.929 . S
C900 C901 1.377 . S
C900 C902 1.384 . S
C901 C900 1.377 . S
C901 C907 1.390 . S
C902 H893 0.930 . S
C902 C900 1.384 . S
C902 C903 1.372 . S
C903 C902 1.372 . S
C903 C904 1.400 . S
C903 C908 1.490 . S
C904 H894 0.930 . S
C904 C903 1.400 . S
C904 C907 1.386 . S
H905 C921 0.930 . S
H906 C922 0.913 1_454 S
C907 H895 0.929 . S
C907 C901 1.390 . S
C907 C904 1.386 . S
C908 C903 1.490 . S
C908 C910 1.395 . S
C908 C911 1.403 . S
H909 C915 0.930 1_554 S
C910 H896 0.930 . S
C910 C908 1.395 . S
C910 C913 1.403 . S
C911 C908 1.403 . S
C911 C912 1.524 1_556 S
C911 C915 1.400 . S
C912 H897 0.960 . S
C912 H898 0.960 1_554 S
C912 H899 0.960 . S
C912 C911 1.524 1_554 S
C913 C910 1.403 . S
C913 C914 1.392 . S
C913 C917 1.495 . S
C914 C913 1.392 . S
C914 C915 1.385 . S
C914 C916 1.478 . S
C915 H909 0.930 1_556 S
C915 C911 1.400 . S
C915 C914 1.385 . S
C916 C914 1.478 . S
C916 C918 1.381 . S
C916 C922 1.410 . S
C917 C913 1.495 . S
C917 H923 0.961 . S
C917 H924 0.961 1_655 S
C917 H925 0.960 . S
C918 C916 1.381 . S
C918 C919 1.394 . S
C918 H926 0.930 . S
C919 C918 1.394 . S
C919 C920 1.383 . S
C919 H927 0.929 . S
C920 C919 1.383 . S
C920 C921 1.377 1_656 S
C921 H905 0.930 . S
C921 C920 1.377 1_454 S
C921 C922 1.369 1_454 S
C922 H906 0.913 1_656 S
C922 C916 1.410 . S
C922 C921 1.369 1_656 S
H923 C917 0.961 . S
H924 C917 0.961 1_455 S
H925 C917 0.960 . S
H926 C918 0.930 . S
H927 C919 0.929 . S
H928 C936 0.929 . S
H929 C938 0.930 . S
H930 C940 0.930 . S
H931 C943 0.929 . S
H932 C946 0.930 . S
H933 C948 0.960 . S
H934 C948 0.960 . S
H935 C948 0.960 . S
C936 H928 0.929 . S
C936 C937 1.377 . S
C936 C938 1.384 . S
C937 C936 1.377 . S
C937 C943 1.390 . S
C938 H929 0.930 . S
C938 C936 1.384 . S
C938 C939 1.372 . S
C939 C938 1.372 . S
C939 C940 1.400 . S
C939 C944 1.490 . S
C940 H930 0.930 . S
C940 C939 1.400 . S
C940 C943 1.386 . S
H941 C957 0.930 . S
H942 C958 0.931 . S
C943 H931 0.929 . S
C943 C937 1.390 . S
C943 C940 1.386 . S
C944 C939 1.490 . S
C944 C946 1.395 . S
C944 C947 1.403 . S
H945 C951 0.930 . S
C946 H932 0.930 . S
C946 C944 1.395 . S
C946 C949 1.403 . S
C947 C944 1.403 . S
C947 C948 1.524 . S
C947 C951 1.400 . S
C948 H933 0.960 . S
C948 H934 0.960 . S
C948 H935 0.960 . S
C948 C947 1.524 . S
C949 C946 1.403 . S
C949 C950 1.392 . S
C949 C953 1.495 . S
C950 C949 1.392 . S
C950 C951 1.385 . S
C950 C952 1.478 . S
C951 H945 0.930 . S
C951 C947 1.400 . S
C951 C950 1.385 . S
C952 C950 1.478 . S
C952 C954 1.381 . S
C952 C958 1.383 . S
C953 C949 1.495 . S
C953 H959 0.959 . S
C953 H960 0.961 . S
C953 H961 0.960 . S
C954 C952 1.381 . S
C954 C955 1.394 . S
C954 H962 0.930 . S
C955 C954 1.394 . S
C955 C956 1.383 . S
C955 H963 0.929 . S
C956 C955 1.383 . S
C956 C957 1.377 . S
C957 H941 0.930 . S
C957 C956 1.377 . S
C957 C958 1.379 . S
C958 H942 0.931 . S
C958 C952 1.383 . S
C958 C957 1.379 . S
H959 C953 0.959 . S
H960 C953 0.961 . S
H961 C953 0.960 . S
H962 C954 0.930 . S
H963 C955 0.929 . S
H964 C972 0.929 . S
H965 C974 0.930 . S
H966 C976 0.930 . S
H967 C979 0.929 . S
H968 C982 0.930 . S
H969 C984 0.960 . S
H970 C984 0.960 . S
H971 C984 0.960 . S
C972 H964 0.929 . S
C972 C973 1.377 . S
C972 C974 1.384 . S
C973 C972 1.377 . S
C973 C979 1.390 . S
C974 H965 0.930 . S
C974 C972 1.384 . S
C974 C975 1.372 . S
C975 C974 1.372 . S
C975 C976 1.400 . S
C975 C980 1.490 . S
C976 H966 0.930 . S
C976 C975 1.400 . S
C976 C979 1.386 . S
H977 C993 0.930 1_655 S
H978 C994 0.931 . S
C979 H967 0.929 . S
C979 C973 1.390 . S
C979 C976 1.386 . S
C980 C975 1.490 . S
C980 C982 1.395 . S
C980 C983 1.403 . S
H981 C987 0.930 . S
C982 H968 0.930 . S
C982 C980 1.395 . S
C982 C985 1.403 . S
C983 C980 1.403 . S
C983 C984 1.524 . S
C983 C987 1.400 . S
C984 H969 0.960 . S
C984 H970 0.960 . S
C984 H971 0.960 . S
C984 C983 1.524 . S
C985 C982 1.403 . S
C985 C986 1.392 . S
C985 C989 1.495 . S
C986 C985 1.392 . S
C986 C987 1.385 . S
C986 C988 1.478 . S
C987 H981 0.930 . S
C987 C983 1.400 . S
C987 C986 1.385 . S
C988 C986 1.478 . S
C988 C990 1.381 . S
C988 C994 1.383 . S
C989 C985 1.495 . S
C989 H995 0.959 . S
C989 H996 0.961 . S
C989 H997 0.960 . S
C990 C988 1.381 . S
C990 C991 1.394 . S
C990 H998 0.930 . S
C991 C990 1.394 . S
C991 C992 1.383 . S
C991 H999 0.929 . S
C992 C991 1.383 . S
C992 C993 1.377 . S
C993 H977 0.930 1_455 S
C993 C992 1.377 . S
C993 C994 1.379 . S
C994 H978 0.931 . S
C994 C988 1.383 . S
C994 C993 1.379 . S
H995 C989 0.959 . S
H996 C989 0.961 . S
H997 C989 0.960 . S
H998 C990 0.930 . S
H999 C991 0.929 . S
H1000 C1008 0.929 . S
H1001 C1010 0.930 . S
H1002 C1012 0.930 . S
H1003 C1015 0.929 . S
H1004 C1018 0.930 . S
H1005 C1020 0.960 . S
H1006 C1020 0.960 . S
H1007 C1020 0.960 . S
C1008 H1000 0.929 . S
C1008 C1009 1.377 . S
C1008 C1010 1.384 . S
C1009 C1008 1.377 . S
C1009 C1015 1.390 . S
C1010 H1001 0.930 . S
C1010 C1008 1.384 . S
C1010 C1011 1.372 . S
C1011 C1010 1.372 . S
C1011 C1012 1.400 . S
C1011 C1016 1.490 . S
C1012 H1002 0.930 . S
C1012 C1011 1.400 . S
C1012 C1015 1.386 . S
H1013 C1029 0.930 . S
H1014 C1030 0.931 . S
C1015 H1003 0.929 . S
C1015 C1009 1.390 . S
C1015 C1012 1.386 . S
C1016 C1011 1.490 . S
C1016 C1018 1.395 . S
C1016 C1019 1.403 . S
H1017 C1023 0.930 . S
C1018 H1004 0.930 . S
C1018 C1016 1.395 . S
C1018 C1021 1.403 . S
C1019 C1016 1.403 . S
C1019 C1020 1.524 . S
C1019 C1023 1.400 . S
C1020 H1005 0.960 . S
C1020 H1006 0.960 . S
C1020 H1007 0.960 . S
C1020 C1019 1.524 . S
C1021 C1018 1.403 . S
C1021 C1022 1.392 . S
C1021 C1025 1.495 . S
C1022 C1021 1.392 . S
C1022 C1023 1.385 . S
C1022 C1024 1.478 . S
C1023 H1017 0.930 . S
C1023 C1019 1.400 . S
C1023 C1022 1.385 . S
C1024 C1022 1.478 . S
C1024 C1026 1.381 . S
C1024 C1030 1.383 . S
C1025 C1021 1.495 . S
C1025 H1031 0.959 . S
C1025 H1032 0.961 . S
C1025 H1033 0.960 . S
C1026 C1024 1.381 . S
C1026 C1027 1.394 . S
C1026 H1034 0.930 . S
C1027 C1026 1.394 . S
C1027 C1028 1.383 . S
C1027 H1035 0.929 . S
C1028 C1027 1.383 . S
C1028 C1029 1.377 . S
C1029 H1013 0.930 . S
C1029 C1028 1.377 . S
C1029 C1030 1.379 . S
C1030 H1014 0.931 . S
C1030 C1024 1.383 . S
C1030 C1029 1.379 . S
H1031 C1025 0.959 . S
H1032 C1025 0.961 . S
H1033 C1025 0.960 . S
H1034 C1026 0.930 . S
H1035 C1027 0.929 . S
C181 C5 1.836 . S
C200 C104 1.914 . S
C217 C18 1.518 . S
C236 C126 1.574 . S
C272 C145 0.991 . S
C253 C30 1.199 . S
C289 C41 1.488 . S
C308 C166 1.138 1_655 S
C344 C123 2.116 . S
C325 C7 2.134 . S
C380 C101 1.886 . S
C361 C16 1.655 . S
C416 C168 1.296 . S
C397 C29 1.289 . S
C452 C147 0.965 . S
C433 C38 0.909 . S
C469 C8 1.896 . S
C488 C165 1.819 . S
C524 C124 1.511 . S
C505 C27 1.466 . S
C541 C40 1.627 . S
C560 C106 1.384 . S
C577 C19 1.112 . S
C596 C144 1.110 . S
C632 C102 1.673 . S
C613 C51 1.679 . S
C649 C62 1.448 . S
C668 C122 1.498 . S
C685 C74 1.372 . S
C704 C148 1.236 . S
C721 C84 1.423 . S
C740 C169 1.307 . S
C757 C49 2.025 . S
C776 C125 2.107 . S
C812 C105 1.689 . S
C793 C63 1.745 . S
C848 C164 1.098 . S
C829 C71 0.975 . S
C884 C143 1.146 . S
C865 C85 1.174 . S
C901 C52 1.634 . S
C920 C167 1.583 . S
C956 C127 1.432 . S
C937 C73 1.687 . S
C992 C103 1.045 . S
C973 C82 0.995 . S
C1009 C60 1.279 . S
C1028 C146 1.501 . S
