# Generated by pormake.
# Topology ssa, (4,4)-cn, num edge types: 1
# Building blocks:
#     Node 0, Type 0, BuildingBlock: KOZSID_clean_sbu_0, # of connection points: 4
#     Node 1, Type 0, BuildingBlock: KOZSID_clean_sbu_0, # of connection points: 4
#     Node 2, Type 0, BuildingBlock: KOZSID_clean_sbu_0, # of connection points: 4
#     Node 3, Type 0, BuildingBlock: KOZSID_clean_sbu_0, # of connection points: 4
#     Node 4, Type 0, BuildingBlock: KOZSID_clean_sbu_0, # of connection points: 4
#     Node 5, Type 0, BuildingBlock: KOZSID_clean_sbu_0, # of connection points: 4
#     Node 6, Type 1, BuildingBlock: ESEHIV_clean_sbu_0, # of connection points: 4
#     Node 7, Type 1, BuildingBlock: ESEHIV_clean_sbu_0, # of connection points: 4
#     Node 8, Type 1, BuildingBlock: ESEHIV_clean_sbu_0, # of connection points: 4
#     Node 9, Type 1, BuildingBlock: ESEHIV_clean_sbu_0, # of connection points: 4
#     Node 10, Type 1, BuildingBlock: ESEHIV_clean_sbu_0, # of connection points: 4
#     Node 11, Type 1, BuildingBlock: ESEHIV_clean_sbu_0, # of connection points: 4
#     Edge 12, Type (0, 1), BuildingBlock: EZIPEK_clean_linker_0, # of connection points: 2
#     Edge 13, Type (0, 1), BuildingBlock: EZIPEK_clean_linker_0, # of connection points: 2
#     Edge 14, Type (0, 1), BuildingBlock: EZIPEK_clean_linker_0, # of connection points: 2
#     Edge 15, Type (0, 1), BuildingBlock: EZIPEK_clean_linker_0, # of connection points: 2
#     Edge 16, Type (0, 1), BuildingBlock: EZIPEK_clean_linker_0, # of connection points: 2
#     Edge 17, Type (0, 1), BuildingBlock: EZIPEK_clean_linker_0, # of connection points: 2
#     Edge 18, Type (0, 1), BuildingBlock: EZIPEK_clean_linker_0, # of connection points: 2
#     Edge 19, Type (0, 1), BuildingBlock: EZIPEK_clean_linker_0, # of connection points: 2
#     Edge 20, Type (0, 1), BuildingBlock: EZIPEK_clean_linker_0, # of connection points: 2
#     Edge 21, Type (0, 1), BuildingBlock: EZIPEK_clean_linker_0, # of connection points: 2
#     Edge 22, Type (0, 1), BuildingBlock: EZIPEK_clean_linker_0, # of connection points: 2
#     Edge 23, Type (0, 1), BuildingBlock: EZIPEK_clean_linker_0, # of connection points: 2
#     Edge 24, Type (0, 1), BuildingBlock: EZIPEK_clean_linker_0, # of connection points: 2
#     Edge 25, Type (0, 1), BuildingBlock: EZIPEK_clean_linker_0, # of connection points: 2
#     Edge 26, Type (0, 1), BuildingBlock: EZIPEK_clean_linker_0, # of connection points: 2
#     Edge 27, Type (0, 1), BuildingBlock: EZIPEK_clean_linker_0, # of connection points: 2
#     Edge 28, Type (0, 1), BuildingBlock: EZIPEK_clean_linker_0, # of connection points: 2
#     Edge 29, Type (0, 1), BuildingBlock: EZIPEK_clean_linker_0, # of connection points: 2
#     Edge 30, Type (0, 1), BuildingBlock: EZIPEK_clean_linker_0, # of connection points: 2
#     Edge 31, Type (0, 1), BuildingBlock: EZIPEK_clean_linker_0, # of connection points: 2
#     Edge 32, Type (0, 1), BuildingBlock: EZIPEK_clean_linker_0, # of connection points: 2
#     Edge 33, Type (0, 1), BuildingBlock: EZIPEK_clean_linker_0, # of connection points: 2
#     Edge 34, Type (0, 1), BuildingBlock: EZIPEK_clean_linker_0, # of connection points: 2
#     Edge 35, Type (0, 1), BuildingBlock: EZIPEK_clean_linker_0, # of connection points: 2
# Relax obj value: 0.030
# Max RMSD: 0.097
# Mean RMSD: 0.055
data_MOF--net-ssa--node1-KOZSID_clean_sbu_0--node2-ESEHIV_clean_sbu_0--edge1-EZIPEK_clean_linker_0
_symmetry_space_group_name_H-M    P1
_symmetry_Int_Tables_number       1
_symmetry_cell_setting            triclinic
loop_
_symmetry_equiv_pos_as_xyz
'x, y, z'
_cell_length_a     41.24762
_cell_length_b     42.437112
_cell_length_c     30.862898
_cell_angle_alpha  86.813225
_cell_angle_beta   90.003725
_cell_angle_gamma 122.9843
loop_
_atom_site_label
_atom_site_type_symbol
_atom_site_fract_x
_atom_site_fract_y
_atom_site_fract_z
_atom_type_partial_charge
C0 C 0.93345 0.50475 0.99975 0.0
C1 C 0.89869 0.49401 0.02034 0.0
C2 C 0.90159 0.48616 0.06329 0.0
C3 C 0.93784 0.49248 0.06665 0.0
N4 N 0.9581 0.50368 0.02862 0.0
Co5 Co 1.01187 0.51521 0.02036 0.0
N6 N 1.01162 0.4927 0.07948 0.0
C7 C 0.98561 0.4845 0.11176 0.0
C8 C 0.99452 0.47498 0.15103 0.0
C9 C 0.02873 0.47789 0.14365 0.0
C10 C 0.03879 0.48863 0.09986 0.0
N11 N 0.06514 0.52535 1.01104 0.0
C12 C 0.08554 0.51395 0.03481 0.0
C13 C 0.12053 0.52599 0.01378 0.0
C14 C 0.12321 0.54719 0.97722 0.0
C15 C 0.08952 0.54641 0.9773 0.0
N16 N 0.01276 0.5393 0.96218 0.0
C17 C 0.04456 0.56119 0.93625 0.0
C18 C 0.03717 0.57382 0.89796 0.0
C19 C 0.99828 0.55916 0.89971 0.0
C20 C 0.98394 0.53835 0.93915 0.0
N21 N 0.03358 0.56401 0.04641 0.0
C22 C 0.06022 0.62771 0.0942 0.0
C23 C 0.02768 0.61454 0.06869 0.0
C24 C 0.01542 0.58315 0.04416 0.0
C25 C 0.07965 0.60922 0.09406 0.0
C26 C 0.06573 0.57754 0.07066 0.0
N27 N 0.98973 0.46643 0.99484 0.0
C28 C 0.98086 0.43158 0.93202 0.0
C29 C 0.94988 0.39879 0.95311 0.0
C30 C 0.94089 0.39991 0.99654 0.0
C31 C 0.96073 0.43409 0.01655 0.0
C32 C 1.0008 0.4648 0.95366 0.0
H33 H 0.95154 0.43447 0.04903 0.0
H34 H 0.02427 0.4894 0.93626 0.0
H35 H 0.99063 0.57387 0.0245 0.0
H36 H 0.08055 0.56347 0.07389 0.0
C37 C 0.95268 0.48528 0.10378 0.0
C38 C 0.94301 0.51934 0.95383 0.0
C39 C 0.07593 0.49736 0.08024 0.0
C40 C 0.07887 0.56328 0.94516 0.0
H41 H 0.8741 0.49271 1.00593 0.0
H42 H 0.87966 0.4765 0.0889 0.0
H43 H 0.97842 0.46748 0.18165 0.0
H44 H 0.04493 0.47374 0.16828 0.0
H45 H 0.1427 0.52149 0.02476 0.0
H46 H 0.147 0.56156 0.95345 0.0
H47 H 0.05731 0.59024 0.87104 0.0
H48 H 0.98223 0.56308 0.87461 0.0
H49 H 1.01178 0.62811 0.068 0.0
H50 H 0.10493 0.61848 0.11334 0.0
H51 H 0.98907 0.43171 0.89863 0.0
H52 H 0.91738 0.37496 0.01409 0.0
C53 C 0.56821 0.01908 0.58305 0.0
C54 C 0.56983 1.00168 0.62163 0.0
C55 C 0.53353 0.97059 0.6303 0.0
C56 C 0.51195 0.97065 0.59652 0.0
N57 N 0.53251 0.99941 0.56628 0.0
Co58 Co 0.51229 0.01085 0.5127 0.0
N59 N 0.45767 0.96929 0.52928 0.0
C60 C 0.44528 0.94661 0.56618 0.0
C61 C 0.40624 0.92022 0.56822 0.0
C62 C 0.393 0.92588 0.52991 0.0
C63 C 0.42492 0.95535 0.50655 0.0
N64 N 0.49209 0.02166 0.45852 0.0
C65 C 0.45658 1.00127 0.44123 0.0
C66 C 0.45602 0.01633 0.40037 0.0
C67 C 0.49241 0.04704 0.39131 0.0
C68 C 0.51317 0.04885 0.42681 0.0
N69 N 0.5669 0.05317 0.49688 0.0
C70 C 0.57909 0.07677 0.46074 0.0
C71 C 0.61705 0.10599 0.46111 0.0
C72 C 0.62971 0.10139 0.50032 0.0
C73 C 0.5987 0.06925 0.52156 0.0
N74 N 0.51894 0.97436 0.48011 0.0
C75 C 0.52335 0.92104 0.4312 0.0
C76 C 0.54058 0.95871 0.41567 0.0
C77 C 0.53803 0.98452 0.44022 0.0
C78 C 0.50417 0.91086 0.47203 0.0
C79 C 0.50268 0.93761 0.49577 0.0
N80 N 0.50573 0.04727 0.54529 0.0
C81 C 0.51742 0.10983 0.55113 0.0
C82 C 0.50509 0.10204 0.59498 0.0
C83 C 0.49163 0.06569 0.61281 0.0
C84 C 0.49205 0.03906 0.58774 0.0
C85 C 0.5174 0.08239 0.52715 0.0
H86 H 0.48206 0.01222 0.60382 0.0
H87 H 0.52758 0.09043 0.49406 0.0
H88 H 0.55163 0.01259 0.42607 0.0
H89 H 0.48765 0.92764 0.52658 0.0
C90 C 0.47165 0.94773 0.59553 0.0
C91 C 0.60013 0.05613 0.56598 0.0
C92 C 0.42332 0.96645 0.46132 0.0
C93 C 0.55308 0.07341 0.42956 0.0
H94 H 0.59427 0.01153 0.64239 0.0
H95 H 0.52353 0.95152 0.65911 0.0
H96 H 0.3897 0.89823 0.59351 0.0
H97 H 0.36354 0.90912 0.51942 0.0
H98 H 0.43217 1.00561 0.37867 0.0
H99 H 0.50294 0.06488 0.36151 0.0
H100 H 0.63299 0.12909 0.43683 0.0
H101 H 0.65816 0.12041 0.5124 0.0
H102 H 0.55609 0.96831 0.3845 0.0
H103 H 0.49048 0.88222 0.48582 0.0
H104 H 0.52756 0.1373 0.53548 0.0
H105 H 0.48138 0.05797 0.64642 0.0
C106 C 0.5828 0.55986 0.95222 0.0
C107 C 0.58866 0.57929 0.91229 0.0
C108 C 0.55459 0.57584 0.90284 0.0
C109 C 0.52975 0.5542 0.93706 0.0
N110 N 0.54609 0.54426 0.96836 0.0
Co111 Co 0.51854 0.5073 0.01956 0.0
N112 N 0.46713 0.4977 1.00249 0.0
C113 C 0.46018 0.51373 0.96773 0.0
C114 C 0.42287 0.50481 0.96687 0.0
C115 C 0.40513 0.48251 1.00391 0.0
C116 C 0.43273 0.47898 0.02519 0.0
N117 N 0.49098 0.46939 0.0699 0.0
C118 C 0.45362 0.4513 0.08446 0.0
C119 C 0.44635 0.42757 0.12101 0.0
C120 C 0.48068 0.43157 0.13061 0.0
C121 C 0.50674 0.45729 0.09937 0.0
N122 N 0.56994 0.51776 0.03774 0.0
C123 C 0.57709 0.50342 0.07395 0.0
C124 C 0.61539 0.5163 0.07813 0.0
C125 C 0.6337 0.53965 0.04191 0.0
C126 C 0.60529 0.53935 0.01749 0.0
N127 N 0.52544 0.54867 0.05603 0.0
C128 C 0.53116 0.60524 0.10822 0.0
C129 C 0.53667 0.57731 0.1256 0.0
C130 C 0.53389 0.54973 0.09926 0.0
C131 C 0.52286 0.60423 0.06411 0.0
C132 C 0.52027 0.57621 0.03896 0.0
N133 N 0.51169 0.46616 0.98262 0.0
C134 C 0.52232 0.41625 0.96851 0.0
C135 C 0.50818 0.41277 0.92652 0.0
C136 C 0.4952 0.43611 0.91366 0.0
C137 C 0.49702 0.46207 0.94181 0.0
C138 C 0.52364 0.44265 0.9958 0.0
H139 H 0.48657 0.47877 0.92954 0.0
H140 H 0.53512 0.44406 0.02721 0.0
H141 H 0.53824 0.52921 0.11473 0.0
H142 H 0.51391 0.57738 1.00565 0.0
C143 C 0.49009 0.5395 0.93855 0.0
C144 C 0.6124 0.55573 0.9729 0.0
C145 C 0.42557 0.45934 0.06801 0.0
C146 C 0.54678 0.47473 0.10052 0.0
H147 H 0.61443 0.59357 0.89139 0.0
H148 H 0.54815 0.58626 0.87346 0.0
H149 H 0.41051 0.51471 0.94314 0.0
H150 H 0.37559 0.47116 0.01471 0.0
H151 H 0.41951 0.41076 0.14 0.0
H152 H 0.48643 0.41898 0.15854 0.0
H153 H 0.6282 0.50818 0.10334 0.0
H154 H 0.66415 0.55369 0.03324 0.0
H155 H 0.54338 0.57687 0.15946 0.0
H156 H 0.51861 0.62528 0.04891 0.0
H157 H 0.53236 0.3986 0.98032 0.0
H158 H 0.48352 0.43428 0.88179 0.0
C159 C 0.93866 0.44044 0.53808 0.0
C160 C 0.90256 0.42018 0.52008 0.0
C161 C 0.90322 0.44186 0.48513 0.0
C162 C 0.93972 0.47391 0.48319 0.0
N163 N 0.96264 0.47372 0.51415 0.0
Co164 Co 0.01799 0.5156 0.52115 0.0
N165 N 0.02136 0.54283 0.46431 0.0
C166 C 0.99081 0.53572 0.44089 0.0
C167 C 1.00094 0.55868 0.40354 0.0
C168 C 0.04042 0.58199 0.40331 0.0
C169 C 0.05236 0.57187 0.44056 0.0
N170 N 0.07337 0.55722 0.52766 0.0
C171 C 0.10042 0.58426 0.49824 0.0
C172 C 0.13584 0.60612 0.51725 0.0
C173 C 0.13078 0.59303 0.55987 0.0
C174 C 0.09276 0.56374 0.5646 0.0
N175 N 0.01456 0.48884 0.57854 0.0
C176 C 0.0408 0.50423 0.60961 0.0
C177 C 0.03049 0.48181 0.64734 0.0
C178 C 0.99508 0.45042 0.64027 0.0
C179 C 0.98566 0.45519 0.59827 0.0
N180 N 0.03561 0.48737 0.4917 0.0
C181 C 0.0697 0.45762 0.44408 0.0
C182 C 0.07971 0.46695 0.48699 0.0
C183 C 0.06274 0.4822 0.50997 0.0
C184 C 0.04053 0.46124 0.42649 0.0
C185 C 0.0234 0.4755 0.45108 0.0
N186 N 1.00056 0.54417 0.55062 0.0
C187 C 0.95784 0.54472 0.60337 0.0
C188 C 0.97489 0.58321 0.59455 0.0
C189 C 1.00512 0.60218 0.56314 0.0
C190 C 0.01757 0.58206 0.54153 0.0
C191 C 0.97098 0.52591 0.58118 0.0
H192 H 0.04089 0.59712 0.51759 0.0
H193 H 0.95708 0.49652 0.58921 0.0
H194 H 0.07277 0.49109 0.5419 0.0
H195 H 1.00132 0.4782 0.4364 0.0
C196 C 0.95411 0.50378 0.45155 0.0
C197 C 0.94704 0.42905 0.58079 0.0
C198 C 0.09317 0.59228 0.45321 0.0
C199 C 0.07571 0.53886 0.6013 0.0
H200 H 0.87779 0.39316 0.53196 0.0
H201 H 0.87978 0.43506 0.46372 0.0
H202 H 0.982 0.55778 0.37867 0.0
H203 H 0.05839 0.60399 0.37858 0.0
H204 H 0.16247 0.62943 0.50203 0.0
H205 H 0.15258 0.60301 0.58419 0.0
H206 H 0.04664 0.48773 0.67671 0.0
H207 H 0.97762 0.4273 0.66402 0.0
H208 H 0.10198 0.46427 0.50182 0.0
H209 H 0.03175 0.45402 0.39353 0.0
H210 H 0.93435 0.52916 0.62743 0.0
H211 H 0.01894 0.63212 0.55551 0.0
C212 C 0.47532 0.98767 0.11087 0.0
C213 C 0.4736 0.99846 0.15199 0.0
C214 C 0.50643 0.03331 0.15559 0.0
C215 C 0.52631 0.04209 0.11654 0.0
N216 N 0.50783 0.01538 0.0879 0.0
Co217 Co 0.52936 0.01739 0.02868 0.0
N218 N 0.57219 0.07182 0.03007 0.0
C219 C 0.58232 0.09201 0.06538 0.0
C220 C 0.61143 0.1291 0.05685 0.0
C221 C 0.6205 0.13265 0.01339 0.0
C222 C 0.59655 0.09736 0.99771 0.0
N223 N 0.5519 0.01905 0.97043 0.0
C224 C 0.5793 0.04855 0.94377 0.0
C225 C 0.58646 0.03594 0.90668 0.0
C226 C 0.56284 0.99747 0.91002 0.0
C227 C 0.54267 0.98863 0.94891 0.0
N228 N 0.48553 0.96326 0.02622 0.0
C229 C 0.48304 0.93999 0.99656 0.0
C230 C 0.45108 0.90403 1.00294 0.0
C231 C 0.4324 0.90417 0.0395 0.0
C232 C 0.45401 0.94035 0.05357 0.0
N233 N 0.49723 0.03336 1.00128 0.0
C234 C 0.465 0.06761 0.95462 0.0
C235 C 0.4667 0.03876 0.93728 0.0
C236 C 0.48225 0.0215 0.96149 0.0
C237 C 0.4768 0.07684 0.99706 0.0
C238 C 0.49321 0.05973 0.0196 0.0
N239 N 0.5621 1.00186 0.0563 0.0
C240 C 0.567 0.95881 0.10556 0.0
C241 C 0.60728 0.98099 0.1018 0.0
C242 C 0.62484 0.01381 0.07413 0.0
C243 C 0.60162 0.02317 0.05074 0.0
C244 C 0.54527 0.96993 0.08336 0.0
H245 H 0.61576 0.0479 0.02876 0.0
H246 H 0.5148 0.95257 0.08907 0.0
H247 H 0.4838 0.99986 0.94701 0.0
H248 H 0.50436 0.06939 0.05092 0.0
C249 C 0.56064 0.07632 0.10435 0.0
C250 C 0.44697 0.94966 0.0967 0.0
C251 C 0.60046 0.08868 0.95292 0.0
C252 C 0.51091 0.95311 0.96285 0.0
H253 H 0.45135 0.98243 0.17718 0.0
H254 H 0.5147 0.05032 0.18334 0.0
H255 H 0.62388 0.15121 0.07929 0.0
H256 H 0.64262 0.15818 0.99542 0.0
H257 H 0.60658 0.05279 0.8799 0.0
H258 H 0.55972 0.97834 0.88614 0.0
H259 H 0.44275 0.88029 0.98379 0.0
H260 H 0.40684 0.87988 0.05524 0.0
H261 H 0.45738 0.03059 0.90468 0.0
H262 H 0.47557 0.09883 1.01162 0.0
H263 H 0.55221 0.9332 0.12664 0.0
H264 H 0.65604 0.03194 0.07057 0.0
C265 C 0.54938 0.59745 0.50865 0.0
C266 C 0.54928 0.62552 0.52955 0.0
C267 C 0.5254 0.60845 0.56553 0.0
C268 C 0.5125 0.57114 0.56457 0.0
N269 N 0.5275 0.56347 0.53087 0.0
Co270 Co 0.51541 0.51274 0.51627 0.0
N271 N 0.47739 0.48699 0.56663 0.0
C272 C 0.46779 0.50345 0.5958 0.0
C273 C 0.44248 0.47886 0.62826 0.0
C274 C 0.43623 0.44475 0.61995 0.0
C275 C 0.45824 0.45061 0.58281 0.0
N276 N 0.50259 0.4618 0.50118 0.0
C277 C 0.48119 0.42784 0.52372 0.0
C278 C 0.48193 0.39999 0.50309 0.0
C279 C 0.5051 0.41704 0.4666 0.0
C280 C 0.5172 0.45418 0.46706 0.0
N281 N 0.55388 0.53863 0.46628 0.0
C282 C 0.56477 0.52232 0.43842 0.0
C283 C 0.58913 0.54654 0.40515 0.0
C284 C 0.59357 0.5802 0.41171 0.0
C285 C 0.57182 0.57465 0.449 0.0
N286 N 0.55766 0.51788 0.55538 0.0
C287 C 0.61259 0.51964 0.61476 0.0
C288 C 0.60375 0.50076 0.57627 0.0
C289 C 0.57736 0.50096 0.54705 0.0
C290 C 0.59411 0.53869 0.62182 0.0
C291 C 0.56668 0.53686 0.59277 0.0
N292 N 0.47332 0.50764 0.47725 0.0
C293 C 0.44238 0.49464 0.40702 0.0
C294 C 0.41649 0.50435 0.42008 0.0
C295 C 0.41984 0.51572 0.46266 0.0
C296 C 0.44769 0.51673 0.49043 0.0
C297 C 0.47023 0.49663 0.43553 0.0
H298 H 0.44821 0.52533 0.52246 0.0
H299 H 0.48917 0.48924 0.42294 0.0
H300 H 0.57299 0.48661 0.51814 0.0
H301 H 0.55277 0.55069 0.60181 0.0
C302 C 0.48511 0.54236 0.59358 0.0
C303 C 0.56738 0.60376 0.46563 0.0
C304 C 0.46255 0.42145 0.56636 0.0
C305 C 0.54656 0.48329 0.44 0.0
H306 H 0.56375 0.65501 0.51887 0.0
H307 H 0.51736 0.62145 0.58876 0.0
H308 H 0.43113 0.48525 0.65567 0.0
H309 H 0.41864 0.41876 0.63979 0.0
H310 H 0.46851 0.37073 0.51418 0.0
H311 H 0.51392 0.40432 0.44388 0.0
H312 H 0.60033 0.53993 0.3778 0.0
H313 H 0.60986 0.6055 0.39051 0.0
H314 H 0.61722 0.48574 0.56862 0.0
H315 H 0.59994 0.55417 0.65065 0.0
H316 H 0.44112 0.48543 0.37468 0.0
H317 H 0.40061 0.52344 0.47475 0.0
Cu318 Cu 0.23815 0.46917 0.23717 0.0
N319 N 0.25139 0.44707 0.19437 0.0
N320 N 0.29065 0.43826 0.15352 0.0
C321 C 0.28189 0.44314 0.19389 0.0
C322 C 0.26446 0.43839 0.12775 0.0
C323 C 0.2407 0.44404 0.15266 0.0
O324 O 0.28475 0.49661 0.27552 0.0
C325 C 0.18049 0.47087 0.18781 0.0
O326 O 0.16795 0.43493 0.19117 0.0
H327 H 0.30004 0.44789 0.22121 0.0
H328 H 0.22 0.44968 0.13965 0.0
N329 N 0.19771 0.43551 0.27654 0.0
N330 N 0.15436 0.42187 0.32987 0.0
C331 C 0.17764 0.44688 0.29763 0.0
C332 C 0.18618 0.40149 0.29563 0.0
C333 C 0.15954 0.39312 0.32894 0.0
C334 C 0.29355 0.47645 0.29945 0.0
O335 O 0.27196 0.43976 0.29742 0.0
H336 H 0.18189 0.47426 0.29124 0.0
H337 H 0.19777 0.38492 0.2876 0.0
O338 O 0.21316 0.49362 0.20524 0.0
H339 H 0.26465 0.4377 0.09273 0.0
H340 H 0.14627 0.36869 0.35177 0.0
Cu341 Cu 0.7798 0.23664 0.75617 0.0
N342 N 0.76441 0.19669 0.72019 0.0
N343 N 0.72641 0.15096 0.67642 0.0
C344 C 0.73508 0.1836 0.6925 0.0
C345 C 0.75151 0.14344 0.69435 0.0
C346 C 0.77508 0.17179 0.72102 0.0
O347 O 0.73374 0.21875 0.7974 0.0
C348 C 0.82874 0.29011 0.68577 0.0
O349 O 0.82732 0.26016 0.67382 0.0
H350 H 0.71906 0.19668 0.68599 0.0
H351 H 0.79728 0.1732 0.741 0.0
N352 N 0.81855 0.24415 0.79404 0.0
N353 N 0.86102 0.27459 0.84531 0.0
C354 C 0.84235 0.27753 0.81105 0.0
C355 C 0.8226 0.21916 0.81832 0.0
C356 C 0.84885 0.23794 0.85006 0.0
C357 C 0.71799 0.18536 0.81627 0.0
O358 O 0.73141 0.16489 0.80582 0.0
H359 H 0.8433 0.3029 0.80105 0.0
H360 H 0.80543 0.18905 0.81569 0.0
O361 O 0.80698 0.28588 0.71866 0.0
H362 H 0.75201 0.11865 0.68937 0.0
H363 H 0.85631 0.22532 0.87636 0.0
Cu364 Cu 0.56377 0.78043 0.27218 0.0
N365 N 0.59188 0.81833 0.22787 0.0
N366 N 0.61771 0.87368 0.18952 0.0
C367 C 0.61618 0.85618 0.22831 0.0
C368 C 0.59509 0.84587 0.16358 0.0
C369 C 0.57921 0.81219 0.18712 0.0
O370 O 0.5344 0.79729 0.30654 0.0
C371 C 0.55947 0.72508 0.22089 0.0
O372 O 0.59654 0.74598 0.22854 0.0
H373 H 0.63007 0.87076 0.25694 0.0
H374 H 0.55658 0.78528 0.17638 0.0
N375 N 0.59312 0.77167 0.31172 0.0
N376 N 0.6023 0.73696 0.36143 0.0
C377 C 0.58122 0.73672 0.32791 0.0
C378 C 0.62356 0.79505 0.33534 0.0
C379 C 0.62899 0.77367 0.3664 0.0
C380 C 0.55399 0.82734 0.32757 0.0
O381 O 0.59172 0.84472 0.32665 0.0
H382 H 0.55596 0.71146 0.317 0.0
H383 H 0.63973 0.82542 0.33162 0.0
O384 O 0.53701 0.73358 0.23855 0.0
H385 H 0.58787 0.84988 0.13086 0.0
H386 H 0.65008 0.78425 0.39151 0.0
Cu387 Cu 0.79712 0.55885 0.78686 0.0
N388 N 0.84113 0.5951 0.75381 0.0
N389 N 0.89091 0.61729 0.70653 0.0
C390 C 0.86053 0.58642 0.72709 0.0
C391 C 0.89093 0.6468 0.72061 0.0
C392 C 0.85993 0.63294 0.74989 0.0
O393 O 0.81711 0.52905 0.81711 0.0
C394 C 0.71885 0.51577 0.74341 0.0
O395 O 0.70426 0.48975 0.77566 0.0
H396 H 0.85245 0.55791 0.7227 0.0
H397 H 0.85162 0.64926 0.76684 0.0
N398 N 0.78488 0.58179 0.8285 0.0
N399 N 0.74913 0.58947 0.87604 0.0
C400 C 0.7489 0.56967 0.84315 0.0
C401 C 0.80878 0.61074 0.85259 0.0
C402 C 0.78678 0.61528 0.88229 0.0
C403 C 0.82532 0.53128 0.85768 0.0
O404 O 0.81144 0.54536 0.883 0.0
H405 H 0.72305 0.54563 0.83144 0.0
H406 H 0.84001 0.62635 0.85003 0.0
O407 O 0.75514 0.54156 0.74274 0.0
H408 H 0.91163 0.67602 0.71029 0.0
H409 H 0.79751 0.63524 0.90726 0.0
Cu410 Cu 0.25523 0.78462 0.27405 0.0
N411 N 0.22035 0.77161 0.22875 0.0
N412 N 0.16805 0.74123 0.18828 0.0
C413 C 0.18173 0.75626 0.22696 0.0
C414 C 0.19905 0.74831 0.16486 0.0
C415 C 0.23076 0.76648 0.18974 0.0
O416 O 0.23364 0.7368 0.31402 0.0
C417 C 0.31609 0.84225 0.21803 0.0
O418 O 0.29327 0.85463 0.22243 0.0
H419 H 0.16358 0.75362 0.25399 0.0
H420 H 0.25907 0.77249 0.18116 0.0
N421 N 0.26178 0.82208 0.30976 0.0
N422 N 0.29387 0.86557 0.35816 0.0
C423 C 0.2965 0.84692 0.32576 0.0
C424 C 0.23615 0.82567 0.33239 0.0
C425 C 0.25587 0.8523 0.36252 0.0
C426 C 0.20012 0.72254 0.33325 0.0
O427 O 0.18202 0.73975 0.32615 0.0
H428 H 0.323 0.84929 0.31604 0.0
H429 H 0.20518 0.80878 0.3291 0.0
O430 O 0.30657 0.81115 0.23968 0.0
H431 H 0.19819 0.73831 0.13307 0.0
H432 H 0.24315 0.86012 0.38696 0.0
Cu433 Cu 0.46794 0.24288 0.75357 0.0
N434 N 0.43671 0.25425 0.72124 0.0
N435 N 0.42553 0.29118 0.67788 0.0
C436 C 0.45152 0.28285 0.69041 0.0
C437 C 0.39278 0.26651 0.70128 0.0
C438 C 0.39969 0.24359 0.72786 0.0
O439 O 0.49984 0.29108 0.78441 0.0
C440 C 0.50908 0.21021 0.7117 0.0
O441 O 0.52935 0.21541 0.74646 0.0
H442 H 0.48169 0.29919 0.67976 0.0
H443 H 0.37962 0.22216 0.75181 0.0
N444 N 0.43872 0.2024 0.7952 0.0
N445 N 0.42745 0.15749 0.846 0.0
C446 C 0.44935 0.17918 0.81098 0.0
C447 C 0.40838 0.19443 0.82096 0.0
C448 C 0.40152 0.16685 0.8525 0.0
C449 C 0.49498 0.29299 0.82523 0.0
O450 O 0.47648 0.2617 0.85005 0.0
H451 H 0.47447 0.18003 0.79938 0.0
H452 H 0.39442 0.20981 0.81959 0.0
O453 O 0.48769 0.22363 0.70886 0.0
H454 H 0.36644 0.26632 0.70068 0.0
H455 H 0.38088 0.15629 0.87967 0.0
C456 C 0.09194 0.45688 0.12905 0.0
C457 C 0.1044 0.49245 0.10788 0.0
C458 C 0.16935 0.5163 0.13827 0.0
C459 C 0.15499 0.48179 0.16374 0.0
N460 N 0.09642 0.42598 0.19458 0.0
N461 N 0.15375 0.55913 0.104 0.0
C462 C 0.11444 0.45407 0.16238 0.0
C463 C 0.14276 0.52314 0.11599 0.0
N464 N 0.0585 0.42535 0.11753 0.0
N465 N 0.20818 0.54217 0.13345 0.0
H466 H 0.13524 0.56558 0.08917 0.0
H467 H 0.17986 0.58258 0.1128 0.0
H468 H 0.22877 0.53835 0.14761 0.0
H469 H 0.21993 0.56584 0.11177 0.0
H470 H 0.04986 0.3984 0.12991 0.0
H471 H 0.04172 0.42588 0.09255 0.0
H472 H 0.06653 0.40677 0.1964 0.0
H473 H 0.11034 0.42533 0.22252 0.0
C474 C 0.62632 0.09548 0.63136 0.0
C475 C 0.63306 0.08081 0.59458 0.0
C476 C 0.70224 0.11588 0.60966 0.0
C477 C 0.69484 0.12725 0.64884 0.0
N478 N 0.64788 0.11925 0.70227 0.0
N479 N 0.67624 0.07013 0.55492 0.0
C480 C 0.65628 0.11467 0.6612 0.0
C481 C 0.67069 0.08884 0.58566 0.0
N482 N 0.59158 0.09174 0.63745 0.0
N483 N 0.7394 0.13218 0.5943 0.0
H484 H 0.65374 0.04988 0.53704 0.0
H485 H 0.7024 0.0723 0.55003 0.0
H486 H 0.76304 0.15341 0.60993 0.0
H487 H 0.74637 0.12751 0.56389 0.0
H488 H 0.58629 0.10482 0.66154 0.0
H489 H 0.56928 0.07856 0.61585 0.0
H490 H 0.61974 0.10764 0.71434 0.0
H491 H 0.66862 0.13089 0.72587 0.0
C492 C 0.50823 0.62851 0.169 0.0
C493 C 0.53575 0.63629 0.13531 0.0
C494 C 0.57038 0.70339 0.15062 0.0
C495 C 0.54689 0.69469 0.189 0.0
N496 N 0.49533 0.64666 0.23704 0.0
N497 N 0.59669 0.68161 0.09843 0.0
C498 C 0.51609 0.6566 0.19871 0.0
C499 C 0.56776 0.67392 0.12728 0.0
N500 N 0.47375 0.59465 0.17158 0.0
N501 N 0.59456 0.74006 0.13537 0.0
H502 H 0.59625 0.66104 0.08098 0.0
H503 H 0.62278 0.70772 0.09487 0.0
H504 H 0.59624 0.76236 0.15015 0.0
H505 H 0.60948 0.74796 0.10544 0.0
H506 H 0.45103 0.58818 0.19288 0.0
H507 H 0.46654 0.57493 0.14867 0.0
H508 H 0.47547 0.61878 0.24796 0.0
H509 H 0.50008 0.66605 0.25954 0.0
C510 C 0.9277 0.6026 0.60344 0.0
C511 C 0.96 0.60237 0.61892 0.0
C512 C 0.95041 0.61888 0.69065 0.0
C513 C 0.91729 0.61756 0.6757 0.0
N514 N 0.87801 0.61551 0.61737 0.0
N515 N 1.00746 0.6181 0.6732 0.0
C516 C 0.90733 0.61204 0.63166 0.0
C517 C 0.97323 0.61334 0.66126 0.0
N518 N 0.91555 0.59198 0.56248 0.0
N519 N 0.95867 0.62357 0.73357 0.0
H520 H 0.02453 0.61405 0.6522 0.0
H521 H 0.02051 0.62883 0.7023 0.0
H522 H 0.94279 0.62852 0.75531 0.0
H523 H 0.97981 0.62082 0.74818 0.0
H524 H 0.88985 0.58739 0.5505 0.0
H525 H 0.93082 0.58642 0.54059 0.0
H526 H 0.87076 0.61482 0.585 0.0
H527 H 0.86243 0.62171 0.63795 0.0
C528 C 0.42032 0.90387 0.16583 0.0
C529 C 0.41354 0.91959 0.12734 0.0
C530 C 0.3433 0.8762 0.14368 0.0
C531 C 0.35 0.8643 0.18508 0.0
N532 N 0.39642 0.87102 0.23727 0.0
N533 N 0.36759 0.92388 0.08369 0.0
C534 C 0.38897 0.87901 0.19642 0.0
C535 C 0.37471 0.90646 0.11744 0.0
N536 N 0.45674 0.91221 0.17307 0.0
N537 N 0.30669 0.85769 0.12851 0.0
H538 H 0.3895 0.94599 0.06375 0.0
H539 H 0.34029 0.91875 0.07788 0.0
H540 H 0.28312 0.83494 0.14581 0.0
H541 H 0.30038 0.86215 0.09696 0.0
H542 H 0.46298 0.89857 0.19753 0.0
H543 H 0.48035 0.93075 0.1525 0.0
H544 H 0.42407 0.88442 0.24951 0.0
H545 H 0.37463 0.85291 0.26018 0.0
C546 C 0.41897 0.35151 0.58771 0.0
C547 C 0.45216 0.38737 0.59533 0.0
C548 C 0.46315 0.36017 0.66141 0.0
C549 C 0.43333 0.32363 0.65071 0.0
N550 N 0.38662 0.28376 0.59982 0.0
N551 N 0.51023 0.4242 0.63507 0.0
C552 C 0.41208 0.31906 0.61283 0.0
C553 C 0.47554 0.39122 0.63091 0.0
N554 N 0.39383 0.34855 0.55692 0.0
N555 N 0.47835 0.36554 0.70167 0.0
H556 H 0.52026 0.44794 0.61392 0.0
H557 H 0.5305 0.42644 0.65695 0.0
H558 H 0.46816 0.3438 0.72587 0.0
H559 H 0.49779 0.39215 0.71256 0.0
H560 H 0.36723 0.32376 0.55281 0.0
H561 H 0.39824 0.37172 0.5378 0.0
H562 H 0.37302 0.27867 0.57024 0.0
H563 H 0.38184 0.25959 0.61686 0.0
C564 C 0.50986 0.88258 0.3642 0.0
C565 C 0.52654 0.89293 0.40572 0.0
C566 C 0.54783 0.84882 0.39985 0.0
C567 C 0.53676 0.84318 0.35588 0.0
N568 N 0.50954 0.8575 0.29491 0.0
N569 N 0.56678 0.88926 0.45989 0.0
C570 C 0.518 0.86053 0.33783 0.0
C571 C 0.54664 0.87661 0.42284 0.0
N572 N 0.48537 0.89301 0.35033 0.0
N573 N 0.55937 0.82716 0.4199 0.0
H574 H 0.568 0.91037 0.47697 0.0
H575 H 0.58541 0.88153 0.47134 0.0
H576 H 0.55995 0.80627 0.40425 0.0
H577 H 0.56428 0.82709 0.453 0.0
H578 H 0.46931 0.88343 0.32254 0.0
H579 H 0.47836 0.90849 0.36879 0.0
H580 H 0.50033 0.87315 0.27828 0.0
H581 H 0.51409 0.84096 0.27522 0.0
C582 C 0.65438 0.5359 0.93998 0.0
C583 C 0.64829 0.56501 0.94795 0.0
C584 C 0.70838 0.61031 0.90633 0.0
C585 C 0.71601 0.58184 0.9018 0.0
N586 N 0.70169 0.52043 0.92554 0.0
N587 N 0.67519 0.63169 0.94847 0.0
C588 C 0.69055 0.54541 0.92195 0.0
C589 C 0.67711 0.60284 0.93417 0.0
N590 N 0.62542 0.49909 0.94882 0.0
N591 N 0.72983 0.64388 0.88258 0.0
H592 H 0.65305 0.62726 0.96944 0.0
H593 H 0.69736 0.6599 0.94264 0.0
H594 H 0.75184 0.64968 0.86054 0.0
H595 H 0.72316 0.66433 0.88158 0.0
H596 H 0.62754 0.47668 0.94108 0.0
H597 H 0.59797 0.4909 0.96013 0.0
H598 H 0.68584 0.49462 0.94345 0.0
H599 H 0.72897 0.52738 0.91498 0.0
C600 C 0.13903 0.61997 0.38503 0.0
C601 C 0.12501 0.62583 0.42411 0.0
C602 C 0.17105 0.69457 0.4085 0.0
C603 C 0.181 0.68902 0.36671 0.0
N604 N 0.17129 0.64554 0.31367 0.0
N605 N 0.12403 0.67022 0.46871 0.0
C606 C 0.16442 0.65139 0.35477 0.0
C607 C 0.14028 0.66359 0.43474 0.0
N608 N 0.12829 0.58427 0.37695 0.0
N609 N 0.1915 0.72985 0.42342 0.0
H610 H 0.10119 0.64875 0.48819 0.0
H611 H 0.13078 0.69696 0.47512 0.0
H612 H 0.21446 0.75285 0.40545 0.0
H613 H 0.18851 0.73546 0.4551 0.0
H614 H 0.14021 0.57818 0.35156 0.0
H615 H 0.10961 0.56092 0.39786 0.0
H616 H 0.1566 0.61922 0.30082 0.0
H617 H 0.19025 0.66759 0.29147 0.0
C618 C 0.41653 0.07401 0.91129 0.0
C619 C 0.45441 0.09055 0.92724 0.0
C620 C 0.47145 0.15215 0.89561 0.0
C621 C 0.43552 0.13494 0.87507 0.0
N622 N 0.37574 0.0788 0.85813 0.0
N623 N 0.52056 0.14419 0.92636 0.0
C624 C 0.40846 0.09562 0.88157 0.0
C625 C 0.48266 0.12933 0.91711 0.0
N626 N 0.38805 0.03817 0.9255 0.0
N627 N 0.49427 0.19044 0.89595 0.0
H628 H 0.53045 0.1284 0.94108 0.0
H629 H 0.54279 0.1713 0.91545 0.0
H630 H 0.48598 0.20789 0.88227 0.0
H631 H 0.51913 0.20448 0.91393 0.0
H632 H 0.35908 0.02597 0.91826 0.0
H633 H 0.39279 0.02178 0.94772 0.0
H634 H 0.3567 0.04972 0.85805 0.0
H635 H 0.36939 0.09395 0.83589 0.0
C636 C 0.34532 0.47599 0.40202 0.0
C637 C 0.38527 0.50113 0.39013 0.0
C638 C 0.36563 0.51512 0.31885 0.0
C639 C 0.3258 0.49144 0.33195 0.0
N640 N 0.27907 0.45755 0.39093 0.0
N641 N 0.43276 0.551 0.34022 0.0
C642 C 0.31628 0.47467 0.37518 0.0
C643 C 0.39516 0.52262 0.3494 0.0
N644 N 0.33469 0.45137 0.43768 0.0
N645 N 0.37544 0.52907 0.27666 0.0
H646 H 0.45481 0.55765 0.36171 0.0
H647 H 0.44145 0.57009 0.3133 0.0
H648 H 0.35495 0.52495 0.25399 0.0
H649 H 0.40352 0.54257 0.26355 0.0
H650 H 0.30615 0.42964 0.44529 0.0
H651 H 0.35454 0.45 0.45725 0.0
H652 H 0.27082 0.44814 0.42338 0.0
H653 H 0.25729 0.45643 0.37254 0.0
C654 C 0.94332 0.34655 0.91041 0.0
C655 C 0.92595 0.36417 0.92878 0.0
C656 C 0.86386 0.31679 0.89929 0.0
C657 C 0.88256 0.30305 0.8757 0.0
N658 N 0.94079 0.307 0.85483 0.0
N659 N 0.87044 0.36926 0.9346 0.0
C660 C 0.9225 0.31838 0.88037 0.0
C661 C 0.88631 0.35003 0.92182 0.0
N662 N 0.97923 0.35599 0.92259 0.0
N663 N 0.82442 0.29741 0.90102 0.0
H664 H 0.88573 0.3941 0.95048 0.0
H665 H 0.84303 0.36241 0.92589 0.0
H666 H 0.8072 0.27239 0.88582 0.0
H667 H 0.80888 0.30393 0.92116 0.0
H668 H 0.99191 0.34173 0.91338 0.0
H669 H 0.99482 0.37574 0.94536 0.0
H670 H 0.97069 0.31989 0.85327 0.0
H671 H 0.9262 0.28651 0.83255 0.0
C672 C 0.91653 0.55715 0.91941 0.0
C673 C 0.91379 0.52228 0.9258 0.0
C674 C 0.85383 0.4925 0.88333 0.0
C675 C 0.85786 0.52785 0.87535 0.0
N676 N 0.89934 0.59527 0.87629 0.0
N677 N 0.8834 0.45814 0.90694 0.0
C678 C 0.89118 0.56053 0.89058 0.0
C679 C 0.88345 0.49037 0.90559 0.0
N680 N 0.94253 0.58697 0.94216 0.0
N681 N 0.82104 0.46074 0.87102 0.0
H682 H 0.90447 0.45586 0.92273 0.0
H683 H 0.86459 0.43494 0.88963 0.0
H684 H 0.79975 0.46162 0.85379 0.0
H685 H 0.81392 0.43361 0.87996 0.0
H686 H 0.94297 0.61171 0.94285 0.0
H687 H 0.96153 0.58585 0.96345 0.0
H688 H 0.92505 0.62028 0.88248 0.0
H689 H 0.88232 0.59891 0.85416 0.0
C690 C 0.38273 0.90517 0.42506 0.0
C691 C 0.38923 0.9404 0.43492 0.0
C692 C 0.33345 0.92707 0.3919 0.0
C693 C 0.32477 0.89035 0.38591 0.0
N694 N 0.33506 0.84123 0.40825 0.0
N695 N 0.36549 0.98124 0.43559 0.0
C696 C 0.3477 0.87845 0.40582 0.0
C697 C 0.36285 0.9502 0.42085 0.0
N698 N 0.41039 0.89747 0.43298 0.0
N699 N 0.31506 0.9406 0.36835 0.0
H700 H 0.3866 0.99872 0.45683 0.0
H701 H 0.34479 0.98769 0.42967 0.0
H702 H 0.29465 0.92506 0.34555 0.0
H703 H 0.32285 0.96844 0.36832 0.0
H704 H 0.40859 0.87363 0.42257 0.0
H705 H 0.43686 0.91672 0.44598 0.0
H706 H 0.3491 0.83057 0.42565 0.0
H707 H 0.30813 0.82051 0.39744 0.0
C708 C 0.46867 0.35135 0.88871 0.0
C709 C 0.50534 0.38392 0.89681 0.0
C710 C 0.53644 0.35947 0.85269 0.0
C711 C 0.49964 0.32756 0.8437 0.0
N712 N 0.4308 0.29914 0.84317 0.0
N713 N 0.57326 0.4231 0.87727 0.0
C714 C 0.46583 0.32548 0.85868 0.0
C715 C 0.53901 0.38917 0.87602 0.0
N716 N 0.43647 0.34414 0.91107 0.0
N717 N 0.56898 0.36092 0.84014 0.0
H718 H 0.57559 0.44549 0.89259 0.0
H719 H 0.59817 0.43023 0.85971 0.0
H720 H 0.56796 0.3404 0.82196 0.0
H721 H 0.59656 0.38112 0.8498 0.0
H722 H 0.40968 0.31884 0.91036 0.0
H723 H 0.43716 0.36205 0.93339 0.0
H724 H 0.40551 0.29832 0.84929 0.0
H725 H 0.42784 0.28068 0.8202 0.0
C726 C 0.13193 0.47254 0.40826 0.0
C727 C 0.09158 0.44678 0.41666 0.0
C728 C 0.09241 0.40395 0.36681 0.0
C729 C 0.13319 0.42816 0.36188 0.0
N730 N 0.19244 0.48012 0.38751 0.0
N731 N 0.035 0.38424 0.41098 0.0
C732 C 0.15313 0.46079 0.38568 0.0
C733 C 0.07224 0.41128 0.39806 0.0
N734 N 0.1498 0.5089 0.41964 0.0
N735 N 0.07277 0.37508 0.34022 0.0
H736 H 0.01967 0.3883 0.43447 0.0
H737 H 0.02072 0.35672 0.4015 0.0
H738 H 0.08661 0.36955 0.3164 0.0
H739 H 0.0427 0.35884 0.33922 0.0
H740 H 0.17833 0.52961 0.41027 0.0
H741 H 0.13518 0.51947 0.43428 0.0
H742 H 0.20827 0.50222 0.40755 0.0
H743 H 0.20861 0.47126 0.37276 0.0
C744 C 0.62008 0.13013 0.88133 0.0
C745 C 0.63119 0.11873 0.91992 0.0
C746 C 0.69968 0.1622 0.89493 0.0
C747 C 0.68847 0.16955 0.85396 0.0
N748 N 0.63729 0.15838 0.80704 0.0
N749 N 0.68233 0.12031 0.95967 0.0
C750 C 0.64842 0.15327 0.84708 0.0
C751 C 0.67127 0.13412 0.92582 0.0
N752 N 0.5823 0.11882 0.87745 0.0
N753 N 0.73795 0.18241 0.90438 0.0
H754 H 0.66276 0.09944 0.98248 0.0
H755 H 0.71051 0.12707 0.96301 0.0
H756 H 0.75922 0.20319 0.88266 0.0
H757 H 0.74806 0.1814 0.93502 0.0
H758 H 0.57262 0.12892 0.85254 0.0
H759 H 0.56096 0.1013 0.90113 0.0
H760 H 0.60866 0.14384 0.79773 0.0
H761 H 0.65721 0.176 0.7822 0.0
C762 C 0.54696 0.64269 0.42414 0.0
C763 C 0.57714 0.63812 0.43758 0.0
C764 C 0.62418 0.69795 0.39761 0.0
C765 C 0.59449 0.70454 0.38882 0.0
N766 N 0.52965 0.68764 0.40594 0.0
N767 N 0.64559 0.66595 0.44529 0.0
C768 C 0.55638 0.67813 0.40557 0.0
C769 C 0.61618 0.6672 0.42689 0.0
N770 N 0.50932 0.61309 0.42847 0.0
N771 N 0.65938 0.71975 0.37644 0.0
H772 H 0.64076 0.64401 0.46712 0.0
H773 H 0.67445 0.68823 0.4417 0.0
H774 H 0.66556 0.74111 0.35299 0.0
H775 H 0.68086 0.71395 0.37881 0.0
H776 H 0.48654 0.61421 0.41571 0.0
H777 H 0.50138 0.58635 0.44073 0.0
H778 H 0.50232 0.67042 0.42102 0.0
H779 H 0.53649 0.71456 0.3961 0.0
C780 C 0.47114 0.12674 0.63765 0.0
C781 C 0.50614 0.13147 0.62221 0.0
C782 C 0.5425 0.19151 0.6587 0.0
C783 C 0.50768 0.18444 0.67831 0.0
N784 N 0.43898 0.1407 0.69198 0.0
N785 N 0.57576 0.16661 0.623 0.0
C786 C 0.472 0.15092 0.66901 0.0
C787 C 0.542 0.16352 0.63397 0.0
N788 N 0.43683 0.09958 0.62152 0.0
N789 N 0.57612 0.22564 0.66253 0.0
H790 H 0.57681 0.14726 0.60468 0.0
H791 H 0.60242 0.18661 0.63496 0.0
H792 H 0.57749 0.24686 0.67959 0.0
H793 H 0.60172 0.23428 0.64547 0.0
H794 H 0.41078 0.09729 0.62771 0.0
H795 H 0.43498 0.08161 0.59852 0.0
H796 H 0.41319 0.11458 0.69037 0.0
H797 H 0.43805 0.15663 0.71584 0.0
C798 C 0.39541 0.47457 0.12766 0.0
C799 C 0.3911 0.44998 0.09573 0.0
C800 C 0.32116 0.41177 0.11268 0.0
C801 C 0.32502 0.44048 0.138 0.0
N802 N 0.36636 0.5031 0.16271 0.0
N803 N 0.34977 0.39408 0.05796 0.0
C804 C 0.36231 0.47267 0.14432 0.0
C805 C 0.35387 0.41802 0.08846 0.0
N806 N 0.43104 0.49973 0.14253 0.0
N807 N 0.28626 0.37831 0.11267 0.0
H808 H 0.37336 0.39695 0.04134 0.0
H809 H 0.32308 0.37267 0.04757 0.0
H810 H 0.26236 0.37295 0.13112 0.0
H811 H 0.28194 0.35492 0.09788 0.0
H812 H 0.43439 0.51317 0.171 0.0
H813 H 0.45643 0.50364 0.12979 0.0
H814 H 0.39298 0.52845 0.16436 0.0
H815 H 0.34307 0.50479 0.17174 0.0
C816 C 0.88115 0.38994 0.62468 0.0
C817 C 0.91582 0.39382 0.60857 0.0
C818 C 0.89664 0.33533 0.65269 0.0
C819 C 0.85933 0.32815 0.66304 0.0
N820 N 0.81476 0.34769 0.65243 0.0
N821 N 0.95178 0.36465 0.60186 0.0
C822 C 0.8513 0.35534 0.64743 0.0
C823 C 0.92197 0.36476 0.62097 0.0
N824 N 0.87692 0.41964 0.61953 0.0
N825 N 0.90903 0.31526 0.67494 0.0
H826 H 0.97061 0.38519 0.5782 0.0
H827 H 0.95536 0.34222 0.60643 0.0
H828 H 0.89298 0.2957 0.70071 0.0
H829 H 0.93712 0.3215 0.67158 0.0
H830 H 0.85453 0.42003 0.63454 0.0
H831 H 0.89759 0.44513 0.60342 0.0
H832 H 0.80602 0.36439 0.63754 0.0
H833 H 0.79227 0.32295 0.66832 0.0
C834 C 0.64766 0.95284 0.11054 0.0
C835 C 0.629 0.96897 0.12914 0.0
C836 C 0.61725 0.93171 0.19741 0.0
C837 C 0.63248 0.91275 0.17746 0.0
N838 N 0.67538 0.91529 0.12318 0.0
N839 N 0.61259 0.98644 0.1942 0.0
C840 C 0.65301 0.92762 0.13702 0.0
C841 C 0.62033 0.96318 0.17434 0.0
N842 N 0.65713 0.95883 0.06718 0.0
N843 N 0.59648 0.91786 0.23586 0.0
H844 H 0.6142 0.00922 0.17708 0.0
H845 H 0.60864 0.98538 0.22773 0.0
H846 H 0.59294 0.89494 0.2543 0.0
H847 H 0.58066 0.928 0.24842 0.0
H848 H 0.66652 0.94414 0.05101 0.0
H849 H 0.65392 0.97731 0.04688 0.0
H850 H 0.69319 0.92653 0.09521 0.0
H851 H 0.67859 0.89617 0.14244 0.0
C852 C 0.67869 0.53054 0.63494 0.0
C853 C 0.64023 0.51896 0.64763 0.0
C854 C 0.65565 0.51074 0.72353 0.0
C855 C 0.69203 0.51713 0.71001 0.0
N856 N 0.73397 0.52599 0.64958 0.0
N857 N 0.59027 0.48998 0.70454 0.0
C858 C 0.70236 0.5251 0.66476 0.0
C859 C 0.62826 0.50672 0.69206 0.0
N860 N 0.69358 0.54843 0.59496 0.0
N861 N 0.64769 0.51067 0.76653 0.0
H862 H 0.56903 0.48602 0.68318 0.0
H863 H 0.57923 0.4766 0.73525 0.0
H864 H 0.6673 0.51594 0.79067 0.0
H865 H 0.62346 0.51003 0.77763 0.0
H866 H 0.72252 0.56083 0.58552 0.0
H867 H 0.6782 0.55455 0.57305 0.0
H868 H 0.74067 0.52788 0.6166 0.0
H869 H 0.75112 0.52078 0.66961 0.0
C870 C 0.09474 0.69718 0.10643 0.0
C871 C 0.07417 0.6592 0.12346 0.0
C872 C 0.10583 0.67884 0.19285 0.0
C873 C 0.12902 0.71641 0.17451 0.0
N874 N 0.1363 0.76324 0.12145 0.0
N875 N 0.04861 0.61617 0.18673 0.0
C876 C 0.1195 0.72609 0.13404 0.0
C877 C 0.07549 0.65107 0.16834 0.0
N878 N 0.09323 0.70541 0.06338 0.0
N879 N 0.11488 0.66881 0.23155 0.0
H880 H 0.02636 0.59553 0.16887 0.0
H881 H 0.04613 0.60917 0.21999 0.0
H882 H 0.13648 0.68806 0.25091 0.0
H883 H 0.10217 0.64095 0.24348 0.0
H884 H 0.11111 0.73217 0.04809 0.0
H885 H 0.07526 0.68503 0.04231 0.0
H886 H 0.12901 0.77276 0.09363 0.0
H887 H 0.15505 0.78435 0.14153 0.0
loop_
_geom_bond_atom_site_label_1
_geom_bond_atom_site_label_2
_geom_bond_distance
_geom_bond_site_symmetry_2
_ccdc_geom_bond_type
C0 C1 1.440 1_556 S
C0 N4 1.376 1_556 S
C0 C38 1.389 . S
C1 C0 1.440 1_554 S
C1 C2 1.352 . S
C1 H41 0.945 1_554 S
C2 C1 1.352 . S
C2 C3 1.439 . S
C2 H42 0.950 . S
C3 C2 1.439 . S
C3 N4 1.374 . S
C3 C37 1.395 . S
N4 C0 1.376 1_554 S
N4 C3 1.374 . S
N4 Co5 2.008 1_655 S
Co5 N4 2.008 1_455 S
Co5 N6 2.000 1_455 S
Co5 N11 2.008 1_554 S
Co5 N16 1.995 1_554 S
Co5 N21 2.282 . S
Co5 N27 2.282 1_454 S
N6 Co5 2.000 1_655 S
N6 C7 1.395 . S
N6 C10 1.358 1_655 S
C7 N6 1.395 . S
C7 C8 1.446 . S
C7 C37 1.391 . S
C8 C7 1.446 . S
C8 C9 1.339 1_655 S
C8 H43 0.949 . S
C9 C8 1.339 1_455 S
C9 C10 1.439 . S
C9 H44 0.950 . S
C10 N6 1.358 1_455 S
C10 C9 1.439 . S
C10 C39 1.392 . S
N11 Co5 2.008 1_556 S
N11 C12 1.376 1_556 S
N11 C15 1.374 . S
C12 N11 1.376 1_554 S
C12 C13 1.443 . S
C12 C39 1.389 . S
C13 C12 1.443 . S
C13 C14 1.340 1_554 S
C13 H45 0.951 . S
C14 C13 1.340 1_556 S
C14 C15 1.439 . S
C14 H46 0.950 . S
C15 N11 1.374 . S
C15 C14 1.439 . S
C15 C40 1.395 . S
N16 Co5 1.995 1_556 S
N16 C17 1.376 . S
N16 C20 1.383 1_455 S
C17 N16 1.376 . S
C17 C18 1.446 . S
C17 C40 1.391 . S
C18 C17 1.446 . S
C18 C19 1.339 . S
C18 H47 0.949 . S
C19 C18 1.339 . S
C19 C20 1.439 1_455 S
C19 H48 0.950 1_455 S
C20 N16 1.383 1_655 S
C20 C19 1.439 1_655 S
C20 C38 1.392 . S
N21 Co5 2.282 . S
N21 C24 1.332 . S
N21 C26 1.332 . S
C22 C23 1.386 . S
C22 C25 1.388 . S
C23 C22 1.386 . S
C23 C24 1.382 . S
C23 H49 0.950 . S
C24 N21 1.332 . S
C24 C23 1.382 . S
C24 H35 0.952 . S
C25 C22 1.388 . S
C25 C26 1.382 . S
C25 H50 0.950 . S
C26 N21 1.332 . S
C26 C25 1.382 . S
C26 H36 0.948 . S
N27 Co5 2.282 1_656 S
N27 C31 1.332 . S
N27 C32 1.332 . S
C28 C29 1.388 . S
C28 C32 1.382 . S
C28 H51 0.950 . S
C29 C28 1.388 . S
C29 C30 1.386 . S
C30 C29 1.386 . S
C30 C31 1.382 . S
C30 H52 0.950 . S
C31 N27 1.332 . S
C31 C30 1.382 . S
C31 H33 0.952 1_556 S
C32 N27 1.332 . S
C32 C28 1.382 . S
C32 H34 0.948 1_655 S
H33 C31 0.952 1_554 S
H34 C32 0.948 1_455 S
H35 C24 0.952 . S
H36 C26 0.948 . S
C37 C3 1.395 . S
C37 C7 1.391 . S
C38 C0 1.389 . S
C38 C20 1.392 . S
C39 C10 1.392 . S
C39 C12 1.389 . S
C40 C15 1.395 . S
C40 C17 1.391 . S
H41 C1 0.945 1_556 S
H42 C2 0.950 . S
H43 C8 0.949 . S
H44 C9 0.950 . S
H45 C13 0.951 . S
H46 C14 0.950 . S
H47 C18 0.949 . S
H48 C19 0.950 1_655 S
H49 C23 0.950 . S
H50 C25 0.950 . S
H51 C28 0.950 . S
H52 C30 0.950 . S
C53 C54 1.443 . S
C53 N57 1.376 . S
C53 C91 1.389 . S
C54 C53 1.443 . S
C54 C55 1.340 1_545 S
C54 H94 0.951 . S
C55 C54 1.340 1_565 S
C55 C56 1.439 . S
C55 H95 0.950 . S
C56 C55 1.439 . S
C56 N57 1.374 1_565 S
C56 C90 1.395 . S
N57 C53 1.376 . S
N57 C56 1.374 1_545 S
N57 Co58 2.008 . S
Co58 N57 2.008 . S
Co58 N59 1.995 1_545 S
Co58 N64 2.008 . S
Co58 N69 1.995 . S
Co58 N74 2.282 1_545 S
Co58 N80 2.282 . S
N59 Co58 1.995 1_565 S
N59 C60 1.376 . S
N59 C63 1.383 . S
C60 N59 1.376 . S
C60 C61 1.446 . S
C60 C90 1.391 . S
C61 C60 1.446 . S
C61 C62 1.339 . S
C61 H96 0.949 . S
C62 C61 1.339 . S
C62 C63 1.439 . S
C62 H97 0.950 . S
C63 N59 1.383 . S
C63 C62 1.439 . S
C63 C92 1.392 . S
N64 Co58 2.008 . S
N64 C65 1.376 1_545 S
N64 C68 1.374 . S
C65 N64 1.376 1_565 S
C65 C66 1.443 1_565 S
C65 C92 1.389 . S
C66 C65 1.443 1_545 S
C66 C67 1.340 . S
C66 H98 0.951 1_545 S
C67 C66 1.340 . S
C67 C68 1.439 . S
C67 H99 0.950 . S
C68 N64 1.374 . S
C68 C67 1.439 . S
C68 C93 1.395 . S
N69 Co58 1.995 . S
N69 C70 1.376 . S
N69 C73 1.383 . S
C70 N69 1.376 . S
C70 C71 1.446 . S
C70 C93 1.391 . S
C71 C70 1.446 . S
C71 C72 1.339 . S
C71 H100 0.949 . S
C72 C71 1.339 . S
C72 C73 1.439 . S
C72 H101 0.950 . S
C73 N69 1.383 . S
C73 C72 1.439 . S
C73 C91 1.392 . S
N74 Co58 2.282 1_565 S
N74 C77 1.332 . S
N74 C79 1.332 . S
C75 C76 1.386 . S
C75 C78 1.388 . S
C76 C75 1.386 . S
C76 C77 1.382 . S
C76 H102 0.950 . S
C77 N74 1.332 . S
C77 C76 1.382 . S
C77 H88 0.952 1_565 S
C78 C75 1.388 . S
C78 C79 1.382 . S
C78 H103 0.950 . S
C79 N74 1.332 . S
C79 C78 1.382 . S
C79 H89 0.948 . S
N80 Co58 2.282 . S
N80 C84 1.332 . S
N80 C85 1.332 . S
C81 C82 1.388 . S
C81 C85 1.382 . S
C81 H104 0.950 . S
C82 C81 1.388 . S
C82 C83 1.386 . S
C83 C82 1.386 . S
C83 C84 1.382 . S
C83 H105 0.950 . S
C84 N80 1.332 . S
C84 C83 1.382 . S
C84 H86 0.954 1_545 S
C85 N80 1.332 . S
C85 C81 1.382 . S
C85 H87 0.948 . S
H86 C84 0.954 1_565 S
H87 C85 0.948 . S
H88 C77 0.952 1_545 S
H89 C79 0.948 . S
C90 C56 1.395 . S
C90 C60 1.391 . S
C91 C53 1.389 . S
C91 C73 1.392 . S
C92 C63 1.392 . S
C92 C65 1.389 . S
C93 C68 1.395 . S
C93 C70 1.391 . S
H94 C54 0.951 . S
H95 C55 0.950 . S
H96 C61 0.949 . S
H97 C62 0.950 . S
H98 C66 0.951 1_565 S
H99 C67 0.950 . S
H100 C71 0.949 . S
H101 C72 0.950 . S
H102 C76 0.950 . S
H103 C78 0.950 . S
H104 C81 0.950 . S
H105 C83 0.950 . S
C106 C107 1.443 . S
C106 N110 1.376 . S
C106 C144 1.389 . S
C107 C106 1.443 . S
C107 C108 1.340 . S
C107 H147 0.951 . S
C108 C107 1.340 . S
C108 C109 1.439 . S
C108 H148 0.950 . S
C109 C108 1.439 . S
C109 N110 1.374 . S
C109 C143 1.395 . S
N110 C106 1.376 . S
N110 C109 1.374 . S
N110 Co111 2.008 1_556 S
Co111 N110 2.008 1_554 S
Co111 N112 1.995 1_554 S
Co111 N117 2.008 . S
Co111 N122 1.995 . S
Co111 N127 2.282 . S
Co111 N133 2.282 1_554 S
N112 Co111 1.995 1_556 S
N112 C113 1.376 . S
N112 C116 1.383 1_556 S
C113 N112 1.376 . S
C113 C114 1.446 . S
C113 C143 1.391 . S
C114 C113 1.446 . S
C114 C115 1.339 1_556 S
C114 H149 0.949 . S
C115 C114 1.339 1_554 S
C115 C116 1.439 . S
C115 H150 0.950 . S
C116 N112 1.383 1_554 S
C116 C115 1.439 . S
C116 C145 1.392 . S
N117 Co111 2.008 . S
N117 C118 1.376 . S
N117 C121 1.374 . S
C118 N117 1.376 . S
C118 C119 1.443 . S
C118 C145 1.389 . S
C119 C118 1.443 . S
C119 C120 1.340 . S
C119 H151 0.951 . S
C120 C119 1.340 . S
C120 C121 1.439 . S
C120 H152 0.950 . S
C121 N117 1.374 . S
C121 C120 1.439 . S
C121 C146 1.395 . S
N122 Co111 1.995 . S
N122 C123 1.376 . S
N122 C126 1.383 1_554 S
C123 N122 1.376 . S
C123 C124 1.446 . S
C123 C146 1.391 . S
C124 C123 1.446 . S
C124 C125 1.339 . S
C124 H153 0.949 . S
C125 C124 1.339 . S
C125 C126 1.439 1_554 S
C125 H154 0.950 1_554 S
C126 N122 1.383 1_556 S
C126 C125 1.439 1_556 S
C126 C144 1.392 . S
N127 Co111 2.282 . S
N127 C130 1.332 . S
N127 C132 1.332 . S
C128 C129 1.386 . S
C128 C131 1.388 . S
C129 C128 1.386 . S
C129 C130 1.382 . S
C129 H155 0.950 . S
C130 N127 1.332 . S
C130 C129 1.382 . S
C130 H141 0.952 . S
C131 C128 1.388 . S
C131 C132 1.382 . S
C131 H156 0.950 . S
C132 N127 1.332 . S
C132 C131 1.382 . S
C132 H142 0.948 . S
N133 Co111 2.282 1_556 S
N133 C137 1.332 . S
N133 C138 1.332 . S
C134 C135 1.388 . S
C134 C138 1.382 . S
C134 H157 0.950 . S
C135 C134 1.388 . S
C135 C136 1.386 . S
C136 C135 1.386 . S
C136 C137 1.382 . S
C136 H158 0.950 . S
C137 N133 1.332 . S
C137 C136 1.382 . S
C137 H139 0.952 . S
C138 N133 1.332 . S
C138 C134 1.382 . S
C138 H140 0.948 1_556 S
H139 C137 0.952 . S
H140 C138 0.948 1_554 S
H141 C130 0.952 . S
H142 C132 0.948 . S
C143 C109 1.395 . S
C143 C113 1.391 . S
C144 C106 1.389 . S
C144 C126 1.392 . S
C145 C116 1.392 . S
C145 C118 1.389 . S
C146 C121 1.395 . S
C146 C123 1.391 . S
H147 C107 0.951 . S
H148 C108 0.950 . S
H149 C114 0.949 . S
H150 C115 0.950 . S
H151 C119 0.951 . S
H152 C120 0.950 . S
H153 C124 0.949 . S
H154 C125 0.950 1_556 S
H155 C129 0.950 . S
H156 C131 0.950 . S
H157 C134 0.950 . S
H158 C136 0.950 . S
C159 C160 1.443 . S
C159 N163 1.376 . S
C159 C197 1.389 . S
C160 C159 1.443 . S
C160 C161 1.340 . S
C160 H200 0.951 . S
C161 C160 1.340 . S
C161 C162 1.439 . S
C161 H201 0.950 . S
C162 C161 1.439 . S
C162 N163 1.374 . S
C162 C196 1.395 . S
N163 C159 1.376 . S
N163 C162 1.374 . S
N163 Co164 2.008 1_655 S
Co164 N163 2.008 1_455 S
Co164 N165 1.995 1_455 S
Co164 N170 2.008 . S
Co164 N175 1.995 . S
Co164 N180 2.282 . S
Co164 N186 2.282 1_455 S
N165 Co164 1.995 1_655 S
N165 C166 1.376 . S
N165 C169 1.383 1_655 S
C166 N165 1.376 . S
C166 C167 1.446 . S
C166 C196 1.391 . S
C167 C166 1.446 . S
C167 C168 1.339 1_655 S
C167 H202 0.949 . S
C168 C167 1.339 1_455 S
C168 C169 1.439 . S
C168 H203 0.950 . S
C169 N165 1.383 1_455 S
C169 C168 1.439 . S
C169 C198 1.392 . S
N170 Co164 2.008 . S
N170 C171 1.376 . S
N170 C174 1.374 . S
C171 N170 1.376 . S
C171 C172 1.443 . S
C171 C198 1.389 . S
C172 C171 1.443 . S
C172 C173 1.340 . S
C172 H204 0.951 . S
C173 C172 1.340 . S
C173 C174 1.439 . S
C173 H205 0.950 . S
C174 N170 1.374 . S
C174 C173 1.439 . S
C174 C199 1.395 . S
N175 Co164 1.995 . S
N175 C176 1.376 . S
N175 C179 1.383 1_455 S
C176 N175 1.376 . S
C176 C177 1.446 . S
C176 C199 1.391 . S
C177 C176 1.446 . S
C177 C178 1.339 1_455 S
C177 H206 0.949 . S
C178 C177 1.339 1_655 S
C178 C179 1.439 . S
C178 H207 0.950 . S
C179 N175 1.383 1_655 S
C179 C178 1.439 . S
C179 C197 1.392 . S
N180 Co164 2.282 . S
N180 C183 1.332 . S
N180 C185 1.332 . S
C181 C182 1.386 . S
C181 C184 1.388 . S
C182 C181 1.386 . S
C182 C183 1.382 . S
C182 H208 0.950 . S
C183 N180 1.332 . S
C183 C182 1.382 . S
C183 H194 0.952 . S
C184 C181 1.388 . S
C184 C185 1.382 . S
C184 H209 0.950 . S
C185 N180 1.332 . S
C185 C184 1.382 . S
C185 H195 0.948 . S
N186 Co164 2.282 1_655 S
N186 C190 1.332 . S
N186 C191 1.332 . S
C187 C188 1.388 . S
C187 C191 1.382 . S
C187 H210 0.950 . S
C188 C187 1.388 . S
C188 C189 1.386 . S
C189 C188 1.386 . S
C189 C190 1.382 . S
C189 H211 0.950 . S
C190 N186 1.332 . S
C190 C189 1.382 . S
C190 H192 0.952 . S
C191 N186 1.332 . S
C191 C187 1.382 . S
C191 H193 0.948 1_655 S
H192 C190 0.952 . S
H193 C191 0.948 1_455 S
H194 C183 0.952 . S
H195 C185 0.948 . S
C196 C162 1.395 . S
C196 C166 1.391 . S
C197 C159 1.389 . S
C197 C179 1.392 . S
C198 C169 1.392 . S
C198 C171 1.389 . S
C199 C174 1.395 . S
C199 C176 1.391 . S
H200 C160 0.951 . S
H201 C161 0.950 . S
H202 C167 0.949 . S
H203 C168 0.950 . S
H204 C172 0.951 . S
H205 C173 0.950 . S
H206 C177 0.949 . S
H207 C178 0.950 . S
H208 C182 0.950 . S
H209 C184 0.950 . S
H210 C187 0.950 . S
H211 C189 0.950 . S
C212 C213 1.443 . S
C212 N216 1.376 1_565 S
C212 C250 1.389 . S
C213 C212 1.443 . S
C213 C214 1.340 1_565 S
C213 H253 0.951 . S
C214 C213 1.340 1_545 S
C214 C215 1.439 . S
C214 H254 0.950 . S
C215 C214 1.439 . S
C215 N216 1.374 . S
C215 C249 1.395 . S
N216 C212 1.376 1_545 S
N216 C215 1.374 . S
N216 Co217 2.008 . S
Co217 N216 2.008 . S
Co217 N218 1.995 . S
Co217 N223 2.008 1_544 S
Co217 N228 1.995 1_545 S
Co217 N233 2.282 1_554 S
Co217 N239 2.282 1_545 S
N218 Co217 1.995 . S
N218 C219 1.376 . S
N218 C222 1.383 1_554 S
C219 N218 1.376 . S
C219 C220 1.446 . S
C219 C249 1.391 . S
C220 C219 1.446 . S
C220 C221 1.339 1_554 S
C220 H255 0.949 . S
C221 C220 1.339 1_556 S
C221 C222 1.439 . S
C221 H256 0.950 . S
C222 N218 1.383 1_556 S
C222 C221 1.439 . S
C222 C251 1.392 . S
N223 Co217 2.008 1_566 S
N223 C224 1.376 1_565 S
N223 C227 1.374 . S
C224 N223 1.376 1_545 S
C224 C225 1.443 . S
C224 C251 1.389 . S
C225 C224 1.443 . S
C225 C226 1.340 1_545 S
C225 H257 0.951 . S
C226 C225 1.340 1_565 S
C226 C227 1.439 . S
C226 H258 0.950 . S
C227 N223 1.374 . S
C227 C226 1.439 . S
C227 C252 1.395 . S
N228 Co217 1.995 1_565 S
N228 C229 1.376 1_554 S
N228 C232 1.383 . S
C229 N228 1.376 1_556 S
C229 C230 1.446 . S
C229 C252 1.391 . S
C230 C229 1.446 . S
C230 C231 1.339 1_556 S
C230 H259 0.949 . S
C231 C230 1.339 1_554 S
C231 C232 1.439 . S
C231 H260 0.950 . S
C232 N228 1.383 . S
C232 C231 1.439 . S
C232 C250 1.392 . S
N233 Co217 2.282 1_556 S
N233 C236 1.332 . S
N233 C238 1.332 . S
C234 C235 1.386 . S
C234 C237 1.388 . S
C235 C234 1.386 . S
C235 C236 1.382 . S
C235 H261 0.950 . S
C236 N233 1.332 . S
C236 C235 1.382 . S
C236 H247 0.952 1_545 S
C237 C234 1.388 . S
C237 C238 1.382 . S
C237 H262 0.950 . S
C238 N233 1.332 . S
C238 C237 1.382 . S
C238 H248 0.948 . S
N239 Co217 2.282 1_565 S
N239 C243 1.332 . S
N239 C244 1.332 . S
C240 C241 1.388 . S
C240 C244 1.382 . S
C240 H263 0.950 . S
C241 C240 1.388 . S
C241 C242 1.386 . S
C242 C241 1.386 . S
C242 C243 1.382 . S
C242 H264 0.950 . S
C243 N239 1.332 . S
C243 C242 1.382 . S
C243 H245 0.952 1_565 S
C244 N239 1.332 . S
C244 C240 1.382 . S
C244 H246 0.948 . S
H245 C243 0.952 1_545 S
H246 C244 0.948 . S
H247 C236 0.952 1_565 S
H248 C238 0.948 . S
C249 C215 1.395 . S
C249 C219 1.391 . S
C250 C212 1.389 . S
C250 C232 1.392 . S
C251 C222 1.392 . S
C251 C224 1.389 . S
C252 C227 1.395 . S
C252 C229 1.391 . S
H253 C213 0.951 . S
H254 C214 0.950 . S
H255 C220 0.949 . S
H256 C221 0.950 . S
H257 C225 0.951 . S
H258 C226 0.950 . S
H259 C230 0.949 . S
H260 C231 0.950 . S
H261 C235 0.950 . S
H262 C237 0.950 . S
H263 C240 0.950 . S
H264 C242 0.950 . S
C265 C266 1.443 . S
C265 N269 1.376 . S
C265 C303 1.389 . S
C266 C265 1.443 . S
C266 C267 1.340 . S
C266 H306 0.951 . S
C267 C266 1.340 . S
C267 C268 1.439 . S
C267 H307 0.950 . S
C268 C267 1.439 . S
C268 N269 1.374 . S
C268 C302 1.395 . S
N269 C265 1.376 . S
N269 C268 1.374 . S
N269 Co270 2.008 . S
Co270 N269 2.008 . S
Co270 N271 1.995 . S
Co270 N276 2.008 . S
Co270 N281 1.995 . S
Co270 N286 2.282 . S
Co270 N292 2.282 . S
N271 Co270 1.995 . S
N271 C272 1.376 . S
N271 C275 1.383 . S
C272 N271 1.376 . S
C272 C273 1.446 . S
C272 C302 1.391 . S
C273 C272 1.446 . S
C273 C274 1.339 . S
C273 H308 0.949 . S
C274 C273 1.339 . S
C274 C275 1.439 . S
C274 H309 0.950 . S
C275 N271 1.383 . S
C275 C274 1.439 . S
C275 C304 1.392 . S
N276 Co270 2.008 . S
N276 C277 1.376 . S
N276 C280 1.374 . S
C277 N276 1.376 . S
C277 C278 1.443 . S
C277 C304 1.389 . S
C278 C277 1.443 . S
C278 C279 1.340 . S
C278 H310 0.951 . S
C279 C278 1.340 . S
C279 C280 1.439 . S
C279 H311 0.950 . S
C280 N276 1.374 . S
C280 C279 1.439 . S
C280 C305 1.395 . S
N281 Co270 1.995 . S
N281 C282 1.376 . S
N281 C285 1.383 . S
C282 N281 1.376 . S
C282 C283 1.446 . S
C282 C305 1.391 . S
C283 C282 1.446 . S
C283 C284 1.339 . S
C283 H312 0.949 . S
C284 C283 1.339 . S
C284 C285 1.439 . S
C284 H313 0.950 . S
C285 N281 1.383 . S
C285 C284 1.439 . S
C285 C303 1.392 . S
N286 Co270 2.282 . S
N286 C289 1.332 . S
N286 C291 1.332 . S
C287 C288 1.386 . S
C287 C290 1.388 . S
C288 C287 1.386 . S
C288 C289 1.382 . S
C288 H314 0.950 . S
C289 N286 1.332 . S
C289 C288 1.382 . S
C289 H300 0.952 . S
C290 C287 1.388 . S
C290 C291 1.382 . S
C290 H315 0.950 . S
C291 N286 1.332 . S
C291 C290 1.382 . S
C291 H301 0.948 . S
N292 Co270 2.282 . S
N292 C296 1.332 . S
N292 C297 1.332 . S
C293 C294 1.388 . S
C293 C297 1.382 . S
C293 H316 0.950 . S
C294 C293 1.388 . S
C294 C295 1.386 . S
C295 C294 1.386 . S
C295 C296 1.382 . S
C295 H317 0.950 . S
C296 N292 1.332 . S
C296 C295 1.382 . S
C296 H298 0.952 . S
C297 N292 1.332 . S
C297 C293 1.382 . S
C297 H299 0.948 . S
H298 C296 0.952 . S
H299 C297 0.948 . S
H300 C289 0.952 . S
H301 C291 0.948 . S
C302 C268 1.395 . S
C302 C272 1.391 . S
C303 C265 1.389 . S
C303 C285 1.392 . S
C304 C275 1.392 . S
C304 C277 1.389 . S
C305 C280 1.395 . S
C305 C282 1.391 . S
H306 C266 0.951 . S
H307 C267 0.950 . S
H308 C273 0.949 . S
H309 C274 0.950 . S
H310 C278 0.951 . S
H311 C279 0.950 . S
H312 C283 0.949 . S
H313 C284 0.950 . S
H314 C288 0.950 . S
H315 C290 0.950 . S
H316 C293 0.950 . S
H317 C295 0.950 . S
Cu318 N319 1.999 . S
Cu318 O324 1.974 . S
Cu318 N329 1.985 . S
Cu318 O338 1.959 . S
N319 Cu318 1.999 . S
N319 C321 1.263 . S
N319 C323 1.389 . S
N320 C321 1.358 . S
N320 C322 1.400 . S
C321 N319 1.263 . S
C321 N320 1.358 . S
C321 H327 0.930 . S
C322 N320 1.400 . S
C322 C323 1.351 . S
C322 H339 0.930 . S
C323 N319 1.389 . S
C323 C322 1.351 . S
C323 H328 0.930 . S
O324 Cu318 1.974 . S
O324 C334 1.282 . S
C325 O326 1.261 . S
C325 O338 1.251 . S
O326 C325 1.261 . S
H327 C321 0.930 . S
H328 C323 0.930 . S
N329 Cu318 1.985 . S
N329 C331 1.335 . S
N329 C332 1.390 . S
N330 C331 1.345 . S
N330 C333 1.336 . S
C331 N329 1.335 . S
C331 N330 1.345 . S
C331 H336 0.930 . S
C332 N329 1.390 . S
C332 C333 1.346 . S
C332 H337 0.930 . S
C333 N330 1.336 . S
C333 C332 1.346 . S
C333 H340 0.929 . S
C334 O324 1.282 . S
C334 O335 1.216 . S
O335 C334 1.216 . S
H336 C331 0.930 . S
H337 C332 0.930 . S
O338 Cu318 1.959 . S
O338 C325 1.251 . S
H339 C322 0.930 . S
H340 C333 0.929 . S
Cu341 N342 1.999 . S
Cu341 O347 1.974 . S
Cu341 N352 1.985 . S
Cu341 O361 1.959 . S
N342 Cu341 1.999 . S
N342 C344 1.263 . S
N342 C346 1.389 . S
N343 C344 1.358 . S
N343 C345 1.400 . S
C344 N342 1.263 . S
C344 N343 1.358 . S
C344 H350 0.930 . S
C345 N343 1.400 . S
C345 C346 1.351 . S
C345 H362 0.930 . S
C346 N342 1.389 . S
C346 C345 1.351 . S
C346 H351 0.930 . S
O347 Cu341 1.974 . S
O347 C357 1.282 . S
C348 O349 1.261 . S
C348 O361 1.251 . S
O349 C348 1.261 . S
H350 C344 0.930 . S
H351 C346 0.930 . S
N352 Cu341 1.985 . S
N352 C354 1.335 . S
N352 C355 1.390 . S
N353 C354 1.345 . S
N353 C356 1.336 . S
C354 N352 1.335 . S
C354 N353 1.345 . S
C354 H359 0.930 . S
C355 N352 1.390 . S
C355 C356 1.346 . S
C355 H360 0.930 . S
C356 N353 1.336 . S
C356 C355 1.346 . S
C356 H363 0.929 . S
C357 O347 1.282 . S
C357 O358 1.216 . S
O358 C357 1.216 . S
H359 C354 0.930 . S
H360 C355 0.930 . S
O361 Cu341 1.959 . S
O361 C348 1.251 . S
H362 C345 0.930 . S
H363 C356 0.929 . S
Cu364 N365 1.999 . S
Cu364 O370 1.974 . S
Cu364 N375 1.985 . S
Cu364 O384 1.959 . S
N365 Cu364 1.999 . S
N365 C367 1.263 . S
N365 C369 1.389 . S
N366 C367 1.358 . S
N366 C368 1.400 . S
C367 N365 1.263 . S
C367 N366 1.358 . S
C367 H373 0.930 . S
C368 N366 1.400 . S
C368 C369 1.351 . S
C368 H385 0.930 . S
C369 N365 1.389 . S
C369 C368 1.351 . S
C369 H374 0.930 . S
O370 Cu364 1.974 . S
O370 C380 1.282 . S
C371 O372 1.261 . S
C371 O384 1.251 . S
O372 C371 1.261 . S
H373 C367 0.930 . S
H374 C369 0.930 . S
N375 Cu364 1.985 . S
N375 C377 1.335 . S
N375 C378 1.390 . S
N376 C377 1.345 . S
N376 C379 1.336 . S
C377 N375 1.335 . S
C377 N376 1.345 . S
C377 H382 0.930 . S
C378 N375 1.390 . S
C378 C379 1.346 . S
C378 H383 0.930 . S
C379 N376 1.336 . S
C379 C378 1.346 . S
C379 H386 0.929 . S
C380 O370 1.282 . S
C380 O381 1.216 . S
O381 C380 1.216 . S
H382 C377 0.930 . S
H383 C378 0.930 . S
O384 Cu364 1.959 . S
O384 C371 1.251 . S
H385 C368 0.930 . S
H386 C379 0.929 . S
Cu387 N388 1.999 . S
Cu387 O393 1.974 . S
Cu387 N398 1.985 . S
Cu387 O407 1.959 . S
N388 Cu387 1.999 . S
N388 C390 1.263 . S
N388 C392 1.389 . S
N389 C390 1.358 . S
N389 C391 1.400 . S
C390 N388 1.263 . S
C390 N389 1.358 . S
C390 H396 0.930 . S
C391 N389 1.400 . S
C391 C392 1.351 . S
C391 H408 0.930 . S
C392 N388 1.389 . S
C392 C391 1.351 . S
C392 H397 0.930 . S
O393 Cu387 1.974 . S
O393 C403 1.282 . S
C394 O395 1.261 . S
C394 O407 1.251 . S
O395 C394 1.261 . S
H396 C390 0.930 . S
H397 C392 0.930 . S
N398 Cu387 1.985 . S
N398 C400 1.335 . S
N398 C401 1.390 . S
N399 C400 1.345 . S
N399 C402 1.336 . S
C400 N398 1.335 . S
C400 N399 1.345 . S
C400 H405 0.930 . S
C401 N398 1.390 . S
C401 C402 1.346 . S
C401 H406 0.930 . S
C402 N399 1.336 . S
C402 C401 1.346 . S
C402 H409 0.929 . S
C403 O393 1.282 . S
C403 O404 1.216 . S
O404 C403 1.216 . S
H405 C400 0.930 . S
H406 C401 0.930 . S
O407 Cu387 1.959 . S
O407 C394 1.251 . S
H408 C391 0.930 . S
H409 C402 0.929 . S
Cu410 N411 1.999 . S
Cu410 O416 1.974 . S
Cu410 N421 1.985 . S
Cu410 O430 1.959 . S
N411 Cu410 1.999 . S
N411 C413 1.263 . S
N411 C415 1.389 . S
N412 C413 1.358 . S
N412 C414 1.400 . S
C413 N411 1.263 . S
C413 N412 1.358 . S
C413 H419 0.930 . S
C414 N412 1.400 . S
C414 C415 1.351 . S
C414 H431 0.930 . S
C415 N411 1.389 . S
C415 C414 1.351 . S
C415 H420 0.930 . S
O416 Cu410 1.974 . S
O416 C426 1.282 . S
C417 O418 1.261 . S
C417 O430 1.251 . S
O418 C417 1.261 . S
H419 C413 0.930 . S
H420 C415 0.930 . S
N421 Cu410 1.985 . S
N421 C423 1.335 . S
N421 C424 1.390 . S
N422 C423 1.345 . S
N422 C425 1.336 . S
C423 N421 1.335 . S
C423 N422 1.345 . S
C423 H428 0.930 . S
C424 N421 1.390 . S
C424 C425 1.346 . S
C424 H429 0.930 . S
C425 N422 1.336 . S
C425 C424 1.346 . S
C425 H432 0.929 . S
C426 O416 1.282 . S
C426 O427 1.216 . S
O427 C426 1.216 . S
H428 C423 0.930 . S
H429 C424 0.930 . S
O430 Cu410 1.959 . S
O430 C417 1.251 . S
H431 C414 0.930 . S
H432 C425 0.929 . S
Cu433 N434 1.999 . S
Cu433 O439 1.974 . S
Cu433 N444 1.985 . S
Cu433 O453 1.959 . S
N434 Cu433 1.999 . S
N434 C436 1.263 . S
N434 C438 1.389 . S
N435 C436 1.358 . S
N435 C437 1.400 . S
C436 N434 1.263 . S
C436 N435 1.358 . S
C436 H442 0.930 . S
C437 N435 1.400 . S
C437 C438 1.351 . S
C437 H454 0.930 . S
C438 N434 1.389 . S
C438 C437 1.351 . S
C438 H443 0.930 . S
O439 Cu433 1.974 . S
O439 C449 1.282 . S
C440 O441 1.261 . S
C440 O453 1.251 . S
O441 C440 1.261 . S
H442 C436 0.930 . S
H443 C438 0.930 . S
N444 Cu433 1.985 . S
N444 C446 1.335 . S
N444 C447 1.390 . S
N445 C446 1.345 . S
N445 C448 1.336 . S
C446 N444 1.335 . S
C446 N445 1.345 . S
C446 H451 0.930 . S
C447 N444 1.390 . S
C447 C448 1.346 . S
C447 H452 0.930 . S
C448 N445 1.336 . S
C448 C447 1.346 . S
C448 H455 0.929 . S
C449 O439 1.282 . S
C449 O450 1.216 . S
O450 C449 1.216 . S
H451 C446 0.930 . S
H452 C447 0.930 . S
O453 Cu433 1.959 . S
O453 C440 1.251 . S
H454 C437 0.930 . S
H455 C448 0.929 . S
C456 C457 1.363 . S
C456 C462 1.379 . S
C456 N464 1.356 . S
C457 C456 1.363 . S
C457 C463 1.363 . S
C458 C459 1.363 . S
C458 C463 1.379 . S
C458 N465 1.356 . S
C459 C458 1.363 . S
C459 C462 1.363 . S
N460 C462 1.356 . S
N460 H472 0.984 . S
N460 H473 0.985 . S
N461 C463 1.356 . S
N461 H466 0.984 . S
N461 H467 0.985 . S
C462 C456 1.379 . S
C462 C459 1.363 . S
C462 N460 1.356 . S
C463 C457 1.363 . S
C463 C458 1.379 . S
C463 N461 1.356 . S
N464 C456 1.356 . S
N464 H470 0.984 . S
N464 H471 0.984 . S
N465 C458 1.356 . S
N465 H468 0.984 . S
N465 H469 0.985 . S
H466 N461 0.984 . S
H467 N461 0.985 . S
H468 N465 0.984 . S
H469 N465 0.985 . S
H470 N464 0.984 . S
H471 N464 0.984 . S
H472 N460 0.984 . S
H473 N460 0.985 . S
C474 C475 1.363 . S
C474 C480 1.379 . S
C474 N482 1.356 . S
C475 C474 1.363 . S
C475 C481 1.363 . S
C476 C477 1.363 . S
C476 C481 1.379 . S
C476 N483 1.356 . S
C477 C476 1.363 . S
C477 C480 1.363 . S
N478 C480 1.356 . S
N478 H490 0.984 . S
N478 H491 0.985 . S
N479 C481 1.356 . S
N479 H484 0.984 . S
N479 H485 0.985 . S
C480 C474 1.379 . S
C480 C477 1.363 . S
C480 N478 1.356 . S
C481 C475 1.363 . S
C481 C476 1.379 . S
C481 N479 1.356 . S
N482 C474 1.356 . S
N482 H488 0.984 . S
N482 H489 0.984 . S
N483 C476 1.356 . S
N483 H486 0.984 . S
N483 H487 0.985 . S
H484 N479 0.984 . S
H485 N479 0.985 . S
H486 N483 0.984 . S
H487 N483 0.985 . S
H488 N482 0.984 . S
H489 N482 0.984 . S
H490 N478 0.984 . S
H491 N478 0.985 . S
C492 C493 1.363 . S
C492 C498 1.379 . S
C492 N500 1.356 . S
C493 C492 1.363 . S
C493 C499 1.363 . S
C494 C495 1.363 . S
C494 C499 1.379 . S
C494 N501 1.356 . S
C495 C494 1.363 . S
C495 C498 1.363 . S
N496 C498 1.356 . S
N496 H508 0.984 . S
N496 H509 0.985 . S
N497 C499 1.356 . S
N497 H502 0.984 . S
N497 H503 0.985 . S
C498 C492 1.379 . S
C498 C495 1.363 . S
C498 N496 1.356 . S
C499 C493 1.363 . S
C499 C494 1.379 . S
C499 N497 1.356 . S
N500 C492 1.356 . S
N500 H506 0.984 . S
N500 H507 0.984 . S
N501 C494 1.356 . S
N501 H504 0.984 . S
N501 H505 0.985 . S
H502 N497 0.984 . S
H503 N497 0.985 . S
H504 N501 0.984 . S
H505 N501 0.985 . S
H506 N500 0.984 . S
H507 N500 0.984 . S
H508 N496 0.984 . S
H509 N496 0.985 . S
C510 C511 1.363 . S
C510 C516 1.379 . S
C510 N518 1.356 . S
C511 C510 1.363 . S
C511 C517 1.363 . S
C512 C513 1.363 . S
C512 C517 1.379 . S
C512 N519 1.356 . S
C513 C512 1.363 . S
C513 C516 1.363 . S
N514 C516 1.356 . S
N514 H526 0.984 . S
N514 H527 0.985 . S
N515 C517 1.356 . S
N515 H520 0.984 . S
N515 H521 0.985 . S
C516 C510 1.379 . S
C516 C513 1.363 . S
C516 N514 1.356 . S
C517 C511 1.363 . S
C517 C512 1.379 . S
C517 N515 1.356 . S
N518 C510 1.356 . S
N518 H524 0.984 . S
N518 H525 0.984 . S
N519 C512 1.356 . S
N519 H522 0.984 . S
N519 H523 0.985 . S
H520 N515 0.984 . S
H521 N515 0.985 . S
H522 N519 0.984 . S
H523 N519 0.985 . S
H524 N518 0.984 . S
H525 N518 0.984 . S
H526 N514 0.984 . S
H527 N514 0.985 . S
C528 C529 1.363 . S
C528 C534 1.379 . S
C528 N536 1.356 . S
C529 C528 1.363 . S
C529 C535 1.363 . S
C530 C531 1.363 . S
C530 C535 1.379 . S
C530 N537 1.356 . S
C531 C530 1.363 . S
C531 C534 1.363 . S
N532 C534 1.356 . S
N532 H544 0.984 . S
N532 H545 0.985 . S
N533 C535 1.356 . S
N533 H538 0.984 . S
N533 H539 0.985 . S
C534 C528 1.379 . S
C534 C531 1.363 . S
C534 N532 1.356 . S
C535 C529 1.363 . S
C535 C530 1.379 . S
C535 N533 1.356 . S
N536 C528 1.356 . S
N536 H542 0.984 . S
N536 H543 0.984 . S
N537 C530 1.356 . S
N537 H540 0.984 . S
N537 H541 0.985 . S
H538 N533 0.984 . S
H539 N533 0.985 . S
H540 N537 0.984 . S
H541 N537 0.985 . S
H542 N536 0.984 . S
H543 N536 0.984 . S
H544 N532 0.984 . S
H545 N532 0.985 . S
C546 C547 1.363 . S
C546 C552 1.379 . S
C546 N554 1.356 . S
C547 C546 1.363 . S
C547 C553 1.363 . S
C548 C549 1.363 . S
C548 C553 1.379 . S
C548 N555 1.356 . S
C549 C548 1.363 . S
C549 C552 1.363 . S
N550 C552 1.356 . S
N550 H562 0.984 . S
N550 H563 0.985 . S
N551 C553 1.356 . S
N551 H556 0.984 . S
N551 H557 0.985 . S
C552 C546 1.379 . S
C552 C549 1.363 . S
C552 N550 1.356 . S
C553 C547 1.363 . S
C553 C548 1.379 . S
C553 N551 1.356 . S
N554 C546 1.356 . S
N554 H560 0.984 . S
N554 H561 0.984 . S
N555 C548 1.356 . S
N555 H558 0.984 . S
N555 H559 0.985 . S
H556 N551 0.984 . S
H557 N551 0.985 . S
H558 N555 0.984 . S
H559 N555 0.985 . S
H560 N554 0.984 . S
H561 N554 0.984 . S
H562 N550 0.984 . S
H563 N550 0.985 . S
C564 C565 1.363 . S
C564 C570 1.379 . S
C564 N572 1.356 . S
C565 C564 1.363 . S
C565 C571 1.363 . S
C566 C567 1.363 . S
C566 C571 1.379 . S
C566 N573 1.356 . S
C567 C566 1.363 . S
C567 C570 1.363 . S
N568 C570 1.356 . S
N568 H580 0.984 . S
N568 H581 0.985 . S
N569 C571 1.356 . S
N569 H574 0.984 . S
N569 H575 0.985 . S
C570 C564 1.379 . S
C570 C567 1.363 . S
C570 N568 1.356 . S
C571 C565 1.363 . S
C571 C566 1.379 . S
C571 N569 1.356 . S
N572 C564 1.356 . S
N572 H578 0.984 . S
N572 H579 0.984 . S
N573 C566 1.356 . S
N573 H576 0.984 . S
N573 H577 0.985 . S
H574 N569 0.984 . S
H575 N569 0.985 . S
H576 N573 0.984 . S
H577 N573 0.985 . S
H578 N572 0.984 . S
H579 N572 0.984 . S
H580 N568 0.984 . S
H581 N568 0.985 . S
C582 C583 1.363 . S
C582 C588 1.379 . S
C582 N590 1.356 . S
C583 C582 1.363 . S
C583 C589 1.363 . S
C584 C585 1.363 . S
C584 C589 1.379 . S
C584 N591 1.356 . S
C585 C584 1.363 . S
C585 C588 1.363 . S
N586 C588 1.356 . S
N586 H598 0.984 . S
N586 H599 0.985 . S
N587 C589 1.356 . S
N587 H592 0.984 . S
N587 H593 0.985 . S
C588 C582 1.379 . S
C588 C585 1.363 . S
C588 N586 1.356 . S
C589 C583 1.363 . S
C589 C584 1.379 . S
C589 N587 1.356 . S
N590 C582 1.356 . S
N590 H596 0.984 . S
N590 H597 0.984 . S
N591 C584 1.356 . S
N591 H594 0.984 . S
N591 H595 0.985 . S
H592 N587 0.984 . S
H593 N587 0.985 . S
H594 N591 0.984 . S
H595 N591 0.985 . S
H596 N590 0.984 . S
H597 N590 0.984 . S
H598 N586 0.984 . S
H599 N586 0.985 . S
C600 C601 1.363 . S
C600 C606 1.379 . S
C600 N608 1.356 . S
C601 C600 1.363 . S
C601 C607 1.363 . S
C602 C603 1.363 . S
C602 C607 1.379 . S
C602 N609 1.356 . S
C603 C602 1.363 . S
C603 C606 1.363 . S
N604 C606 1.356 . S
N604 H616 0.984 . S
N604 H617 0.985 . S
N605 C607 1.356 . S
N605 H610 0.984 . S
N605 H611 0.985 . S
C606 C600 1.379 . S
C606 C603 1.363 . S
C606 N604 1.356 . S
C607 C601 1.363 . S
C607 C602 1.379 . S
C607 N605 1.356 . S
N608 C600 1.356 . S
N608 H614 0.984 . S
N608 H615 0.984 . S
N609 C602 1.356 . S
N609 H612 0.984 . S
N609 H613 0.985 . S
H610 N605 0.984 . S
H611 N605 0.985 . S
H612 N609 0.984 . S
H613 N609 0.985 . S
H614 N608 0.984 . S
H615 N608 0.984 . S
H616 N604 0.984 . S
H617 N604 0.985 . S
C618 C619 1.363 . S
C618 C624 1.379 . S
C618 N626 1.356 . S
C619 C618 1.363 . S
C619 C625 1.363 . S
C620 C621 1.363 . S
C620 C625 1.379 . S
C620 N627 1.356 . S
C621 C620 1.363 . S
C621 C624 1.363 . S
N622 C624 1.356 . S
N622 H634 0.984 . S
N622 H635 0.985 . S
N623 C625 1.356 . S
N623 H628 0.984 . S
N623 H629 0.985 . S
C624 C618 1.379 . S
C624 C621 1.363 . S
C624 N622 1.356 . S
C625 C619 1.363 . S
C625 C620 1.379 . S
C625 N623 1.356 . S
N626 C618 1.356 . S
N626 H632 0.984 . S
N626 H633 0.984 . S
N627 C620 1.356 . S
N627 H630 0.984 . S
N627 H631 0.985 . S
H628 N623 0.984 . S
H629 N623 0.985 . S
H630 N627 0.984 . S
H631 N627 0.985 . S
H632 N626 0.984 . S
H633 N626 0.984 . S
H634 N622 0.984 . S
H635 N622 0.985 . S
C636 C637 1.363 . S
C636 C642 1.379 . S
C636 N644 1.356 . S
C637 C636 1.363 . S
C637 C643 1.363 . S
C638 C639 1.363 . S
C638 C643 1.379 . S
C638 N645 1.356 . S
C639 C638 1.363 . S
C639 C642 1.363 . S
N640 C642 1.356 . S
N640 H652 0.984 . S
N640 H653 0.985 . S
N641 C643 1.356 . S
N641 H646 0.984 . S
N641 H647 0.985 . S
C642 C636 1.379 . S
C642 C639 1.363 . S
C642 N640 1.356 . S
C643 C637 1.363 . S
C643 C638 1.379 . S
C643 N641 1.356 . S
N644 C636 1.356 . S
N644 H650 0.984 . S
N644 H651 0.984 . S
N645 C638 1.356 . S
N645 H648 0.984 . S
N645 H649 0.985 . S
H646 N641 0.984 . S
H647 N641 0.985 . S
H648 N645 0.984 . S
H649 N645 0.985 . S
H650 N644 0.984 . S
H651 N644 0.984 . S
H652 N640 0.984 . S
H653 N640 0.985 . S
C654 C655 1.363 . S
C654 C660 1.379 . S
C654 N662 1.356 . S
C655 C654 1.363 . S
C655 C661 1.363 . S
C656 C657 1.363 . S
C656 C661 1.379 . S
C656 N663 1.356 . S
C657 C656 1.363 . S
C657 C660 1.363 . S
N658 C660 1.356 . S
N658 H670 0.984 . S
N658 H671 0.985 . S
N659 C661 1.356 . S
N659 H664 0.984 . S
N659 H665 0.985 . S
C660 C654 1.379 . S
C660 C657 1.363 . S
C660 N658 1.356 . S
C661 C655 1.363 . S
C661 C656 1.379 . S
C661 N659 1.356 . S
N662 C654 1.356 . S
N662 H668 0.984 . S
N662 H669 0.984 . S
N663 C656 1.356 . S
N663 H666 0.984 . S
N663 H667 0.985 . S
H664 N659 0.984 . S
H665 N659 0.985 . S
H666 N663 0.984 . S
H667 N663 0.985 . S
H668 N662 0.984 . S
H669 N662 0.984 . S
H670 N658 0.984 . S
H671 N658 0.985 . S
C672 C673 1.363 . S
C672 C678 1.379 . S
C672 N680 1.356 . S
C673 C672 1.363 . S
C673 C679 1.363 . S
C674 C675 1.363 . S
C674 C679 1.379 . S
C674 N681 1.356 . S
C675 C674 1.363 . S
C675 C678 1.363 . S
N676 C678 1.356 . S
N676 H688 0.984 . S
N676 H689 0.985 . S
N677 C679 1.356 . S
N677 H682 0.984 . S
N677 H683 0.985 . S
C678 C672 1.379 . S
C678 C675 1.363 . S
C678 N676 1.356 . S
C679 C673 1.363 . S
C679 C674 1.379 . S
C679 N677 1.356 . S
N680 C672 1.356 . S
N680 H686 0.984 . S
N680 H687 0.984 . S
N681 C674 1.356 . S
N681 H684 0.984 . S
N681 H685 0.985 . S
H682 N677 0.984 . S
H683 N677 0.985 . S
H684 N681 0.984 . S
H685 N681 0.985 . S
H686 N680 0.984 . S
H687 N680 0.984 . S
H688 N676 0.984 . S
H689 N676 0.985 . S
C690 C691 1.363 . S
C690 C696 1.379 . S
C690 N698 1.356 . S
C691 C690 1.363 . S
C691 C697 1.363 . S
C692 C693 1.363 . S
C692 C697 1.379 . S
C692 N699 1.356 . S
C693 C692 1.363 . S
C693 C696 1.363 . S
N694 C696 1.356 . S
N694 H706 0.984 . S
N694 H707 0.985 . S
N695 C697 1.356 . S
N695 H700 0.984 . S
N695 H701 0.985 1_565 S
C696 C690 1.379 . S
C696 C693 1.363 . S
C696 N694 1.356 . S
C697 C691 1.363 . S
C697 C692 1.379 . S
C697 N695 1.356 . S
N698 C690 1.356 . S
N698 H704 0.984 . S
N698 H705 0.984 . S
N699 C692 1.356 . S
N699 H702 0.984 . S
N699 H703 0.985 . S
H700 N695 0.984 . S
H701 N695 0.985 1_545 S
H702 N699 0.984 . S
H703 N699 0.985 . S
H704 N698 0.984 . S
H705 N698 0.984 . S
H706 N694 0.984 . S
H707 N694 0.985 . S
C708 C709 1.363 . S
C708 C714 1.379 . S
C708 N716 1.356 . S
C709 C708 1.363 . S
C709 C715 1.363 . S
C710 C711 1.363 . S
C710 C715 1.379 . S
C710 N717 1.356 . S
C711 C710 1.363 . S
C711 C714 1.363 . S
N712 C714 1.356 . S
N712 H724 0.984 . S
N712 H725 0.985 . S
N713 C715 1.356 . S
N713 H718 0.984 . S
N713 H719 0.985 . S
C714 C708 1.379 . S
C714 C711 1.363 . S
C714 N712 1.356 . S
C715 C709 1.363 . S
C715 C710 1.379 . S
C715 N713 1.356 . S
N716 C708 1.356 . S
N716 H722 0.984 . S
N716 H723 0.984 . S
N717 C710 1.356 . S
N717 H720 0.984 . S
N717 H721 0.985 . S
H718 N713 0.984 . S
H719 N713 0.985 . S
H720 N717 0.984 . S
H721 N717 0.985 . S
H722 N716 0.984 . S
H723 N716 0.984 . S
H724 N712 0.984 . S
H725 N712 0.985 . S
C726 C727 1.363 . S
C726 C732 1.379 . S
C726 N734 1.356 . S
C727 C726 1.363 . S
C727 C733 1.363 . S
C728 C729 1.363 . S
C728 C733 1.379 . S
C728 N735 1.356 . S
C729 C728 1.363 . S
C729 C732 1.363 . S
N730 C732 1.356 . S
N730 H742 0.984 . S
N730 H743 0.985 . S
N731 C733 1.356 . S
N731 H736 0.984 . S
N731 H737 0.985 . S
C732 C726 1.379 . S
C732 C729 1.363 . S
C732 N730 1.356 . S
C733 C727 1.363 . S
C733 C728 1.379 . S
C733 N731 1.356 . S
N734 C726 1.356 . S
N734 H740 0.984 . S
N734 H741 0.984 . S
N735 C728 1.356 . S
N735 H738 0.984 . S
N735 H739 0.985 . S
H736 N731 0.984 . S
H737 N731 0.985 . S
H738 N735 0.984 . S
H739 N735 0.985 . S
H740 N734 0.984 . S
H741 N734 0.984 . S
H742 N730 0.984 . S
H743 N730 0.985 . S
C744 C745 1.363 . S
C744 C750 1.379 . S
C744 N752 1.356 . S
C745 C744 1.363 . S
C745 C751 1.363 . S
C746 C747 1.363 . S
C746 C751 1.379 . S
C746 N753 1.356 . S
C747 C746 1.363 . S
C747 C750 1.363 . S
N748 C750 1.356 . S
N748 H760 0.984 . S
N748 H761 0.985 . S
N749 C751 1.356 . S
N749 H754 0.984 . S
N749 H755 0.985 . S
C750 C744 1.379 . S
C750 C747 1.363 . S
C750 N748 1.356 . S
C751 C745 1.363 . S
C751 C746 1.379 . S
C751 N749 1.356 . S
N752 C744 1.356 . S
N752 H758 0.984 . S
N752 H759 0.984 . S
N753 C746 1.356 . S
N753 H756 0.984 . S
N753 H757 0.985 . S
H754 N749 0.984 . S
H755 N749 0.985 . S
H756 N753 0.984 . S
H757 N753 0.985 . S
H758 N752 0.984 . S
H759 N752 0.984 . S
H760 N748 0.984 . S
H761 N748 0.985 . S
C762 C763 1.363 . S
C762 C768 1.379 . S
C762 N770 1.356 . S
C763 C762 1.363 . S
C763 C769 1.363 . S
C764 C765 1.363 . S
C764 C769 1.379 . S
C764 N771 1.356 . S
C765 C764 1.363 . S
C765 C768 1.363 . S
N766 C768 1.356 . S
N766 H778 0.984 . S
N766 H779 0.985 . S
N767 C769 1.356 . S
N767 H772 0.984 . S
N767 H773 0.985 . S
C768 C762 1.379 . S
C768 C765 1.363 . S
C768 N766 1.356 . S
C769 C763 1.363 . S
C769 C764 1.379 . S
C769 N767 1.356 . S
N770 C762 1.356 . S
N770 H776 0.984 . S
N770 H777 0.984 . S
N771 C764 1.356 . S
N771 H774 0.984 . S
N771 H775 0.985 . S
H772 N767 0.984 . S
H773 N767 0.985 . S
H774 N771 0.984 . S
H775 N771 0.985 . S
H776 N770 0.984 . S
H777 N770 0.984 . S
H778 N766 0.984 . S
H779 N766 0.985 . S
C780 C781 1.363 . S
C780 C786 1.379 . S
C780 N788 1.356 . S
C781 C780 1.363 . S
C781 C787 1.363 . S
C782 C783 1.363 . S
C782 C787 1.379 . S
C782 N789 1.356 . S
C783 C782 1.363 . S
C783 C786 1.363 . S
N784 C786 1.356 . S
N784 H796 0.984 . S
N784 H797 0.985 . S
N785 C787 1.356 . S
N785 H790 0.984 . S
N785 H791 0.985 . S
C786 C780 1.379 . S
C786 C783 1.363 . S
C786 N784 1.356 . S
C787 C781 1.363 . S
C787 C782 1.379 . S
C787 N785 1.356 . S
N788 C780 1.356 . S
N788 H794 0.984 . S
N788 H795 0.984 . S
N789 C782 1.356 . S
N789 H792 0.984 . S
N789 H793 0.985 . S
H790 N785 0.984 . S
H791 N785 0.985 . S
H792 N789 0.984 . S
H793 N789 0.985 . S
H794 N788 0.984 . S
H795 N788 0.984 . S
H796 N784 0.984 . S
H797 N784 0.985 . S
C798 C799 1.363 . S
C798 C804 1.379 . S
C798 N806 1.356 . S
C799 C798 1.363 . S
C799 C805 1.363 . S
C800 C801 1.363 . S
C800 C805 1.379 . S
C800 N807 1.356 . S
C801 C800 1.363 . S
C801 C804 1.363 . S
N802 C804 1.356 . S
N802 H814 0.984 . S
N802 H815 0.985 . S
N803 C805 1.356 . S
N803 H808 0.984 . S
N803 H809 0.979 1_554 S
C804 C798 1.379 . S
C804 C801 1.363 . S
C804 N802 1.356 . S
C805 C799 1.363 . S
C805 C800 1.379 . S
C805 N803 1.356 . S
N806 C798 1.356 . S
N806 H812 0.984 . S
N806 H813 0.984 . S
N807 C800 1.356 . S
N807 H810 0.984 . S
N807 H811 0.985 . S
H808 N803 0.984 . S
H809 N803 0.979 1_556 S
H810 N807 0.984 . S
H811 N807 0.985 . S
H812 N806 0.984 . S
H813 N806 0.984 . S
H814 N802 0.984 . S
H815 N802 0.985 . S
C816 C817 1.363 . S
C816 C822 1.379 . S
C816 N824 1.356 . S
C817 C816 1.363 . S
C817 C823 1.363 . S
C818 C819 1.363 . S
C818 C823 1.379 . S
C818 N825 1.356 . S
C819 C818 1.363 . S
C819 C822 1.363 . S
N820 C822 1.356 . S
N820 H832 0.984 . S
N820 H833 0.985 . S
N821 C823 1.356 . S
N821 H826 0.984 . S
N821 H827 0.985 . S
C822 C816 1.379 . S
C822 C819 1.363 . S
C822 N820 1.356 . S
C823 C817 1.363 . S
C823 C818 1.379 . S
C823 N821 1.356 . S
N824 C816 1.356 . S
N824 H830 0.984 . S
N824 H831 0.984 . S
N825 C818 1.356 . S
N825 H828 0.984 . S
N825 H829 0.985 . S
H826 N821 0.984 . S
H827 N821 0.985 . S
H828 N825 0.984 . S
H829 N825 0.985 . S
H830 N824 0.984 . S
H831 N824 0.984 . S
H832 N820 0.984 . S
H833 N820 0.985 . S
C834 C835 1.363 . S
C834 C840 1.379 . S
C834 N842 1.356 . S
C835 C834 1.363 . S
C835 C841 1.363 . S
C836 C837 1.363 . S
C836 C841 1.379 . S
C836 N843 1.356 . S
C837 C836 1.363 . S
C837 C840 1.363 . S
N838 C840 1.356 . S
N838 H850 0.984 . S
N838 H851 0.985 . S
N839 C841 1.356 . S
N839 H844 0.984 . S
N839 H845 0.985 . S
C840 C834 1.379 . S
C840 C837 1.363 . S
C840 N838 1.356 . S
C841 C835 1.363 . S
C841 C836 1.379 . S
C841 N839 1.356 . S
N842 C834 1.356 . S
N842 H848 0.984 . S
N842 H849 0.984 . S
N843 C836 1.356 . S
N843 H846 0.984 . S
N843 H847 0.985 . S
H844 N839 0.984 . S
H845 N839 0.985 . S
H846 N843 0.984 . S
H847 N843 0.985 . S
H848 N842 0.984 . S
H849 N842 0.984 . S
H850 N838 0.984 . S
H851 N838 0.985 . S
C852 C853 1.363 . S
C852 C858 1.379 . S
C852 N860 1.356 . S
C853 C852 1.363 . S
C853 C859 1.363 . S
C854 C855 1.363 . S
C854 C859 1.379 . S
C854 N861 1.356 . S
C855 C854 1.363 . S
C855 C858 1.363 . S
N856 C858 1.356 . S
N856 H868 0.984 . S
N856 H869 0.985 . S
N857 C859 1.356 . S
N857 H862 0.984 . S
N857 H863 0.985 . S
C858 C852 1.379 . S
C858 C855 1.363 . S
C858 N856 1.356 . S
C859 C853 1.363 . S
C859 C854 1.379 . S
C859 N857 1.356 . S
N860 C852 1.356 . S
N860 H866 0.984 . S
N860 H867 0.984 . S
N861 C854 1.356 . S
N861 H864 0.984 . S
N861 H865 0.985 . S
H862 N857 0.984 . S
H863 N857 0.985 . S
H864 N861 0.984 . S
H865 N861 0.985 . S
H866 N860 0.984 . S
H867 N860 0.984 . S
H868 N856 0.984 . S
H869 N856 0.985 . S
C870 C871 1.363 . S
C870 C876 1.379 . S
C870 N878 1.356 . S
C871 C870 1.363 . S
C871 C877 1.363 . S
C872 C873 1.363 . S
C872 C877 1.379 . S
C872 N879 1.356 . S
C873 C872 1.363 . S
C873 C876 1.363 . S
N874 C876 1.356 . S
N874 H886 0.984 . S
N874 H887 0.985 . S
N875 C877 1.356 . S
N875 H880 0.984 . S
N875 H881 0.985 . S
C876 C870 1.379 . S
C876 C873 1.363 . S
C876 N874 1.356 . S
C877 C871 1.363 . S
C877 C872 1.379 . S
C877 N875 1.356 . S
N878 C870 1.356 . S
N878 H884 0.984 . S
N878 H885 0.984 . S
N879 C872 1.356 . S
N879 H882 0.984 . S
N879 H883 0.985 . S
H880 N875 0.984 . S
H881 N875 0.985 . S
H882 N879 0.984 . S
H883 N879 0.985 . S
H884 N878 0.984 . S
H885 N878 0.984 . S
H886 N874 0.984 . S
H887 N874 0.985 . S
C457 C39 2.156 . S
C459 C325 2.125 . S
C475 C91 1.448 . S
C477 N343 1.447 . S
C495 C371 1.919 . S
C493 C128 1.957 . S
C513 N389 1.292 . S
C511 C188 1.303 . S
C531 C417 2.023 . S
C529 C250 2.057 . S
C549 N435 1.475 . S
C547 C304 1.473 . S
C565 C75 1.994 . S
C567 C380 1.991 . S
C583 C144 1.465 . S
C585 N399 1.397 . S
C603 C426 2.090 . S
C601 C198 2.088 . S
C621 N445 1.231 . S
C619 C234 1.313 . S
C637 C294 1.894 . S
C639 C334 1.886 . S
C657 N353 1.230 . S
C655 C29 1.302 . S
C675 C403 1.978 . S
C673 C38 2.026 . S
C691 C92 1.310 . S
C693 N422 1.284 . S
C711 C449 1.774 . S
C709 C135 1.827 . S
C727 C181 1.156 . S
C729 N330 1.122 . S
C745 C251 1.937 . S
C747 C357 1.885 . S
C763 C303 1.295 . S
C765 N376 1.273 . S
C781 C82 1.882 . S
C783 C440 1.864 . S
C801 N320 1.242 . S
C799 C145 1.321 . S
C817 C197 1.988 . S
C819 C348 1.975 . S
C835 C241 1.157 . S
C837 N366 1.076 . S
C853 C287 1.796 . S
C855 C394 1.778 . S
C871 C22 1.172 . S
C873 N412 1.102 . S
