# Generated by pormake.
# Topology bcu-b, (8,8)-cn, num edge types: 1
# Building blocks:
#     Node 0, Type 0, BuildingBlock: TAGTUT_clean_sbu_3, # of connection points: 8
#     Node 1, Type 1, BuildingBlock: TAGTUT_clean_sbu_3, # of connection points: 8
#     Edge 2, Type (0, 1), BuildingBlock: TEMPAE_clean_linker_10, # of connection points: 2
#     Edge 3, Type (0, 1), BuildingBlock: TEMPAE_clean_linker_10, # of connection points: 2
#     Edge 4, Type (0, 1), BuildingBlock: TEMPAE_clean_linker_10, # of connection points: 2
#     Edge 5, Type (0, 1), BuildingBlock: TEMPAE_clean_linker_10, # of connection points: 2
#     Edge 6, Type (0, 1), BuildingBlock: TEMPAE_clean_linker_10, # of connection points: 2
#     Edge 7, Type (0, 1), BuildingBlock: TEMPAE_clean_linker_10, # of connection points: 2
#     Edge 8, Type (0, 1), BuildingBlock: TEMPAE_clean_linker_10, # of connection points: 2
#     Edge 9, Type (0, 1), BuildingBlock: TEMPAE_clean_linker_10, # of connection points: 2
# Relax obj value: 0.012
# Max RMSD: 0.062
# Mean RMSD: 0.062
data_MOF--net-bcu-b--node1-TAGTUT_clean_sbu_3--node2-TAGTUT_clean_sbu_3--edge1-TEMPAE_clean_linker_10
_symmetry_space_group_name_H-M    P1
_symmetry_Int_Tables_number       1
_symmetry_cell_setting            triclinic
loop_
_symmetry_equiv_pos_as_xyz
'x, y, z'
_cell_length_a     19.670833
_cell_length_b     19.540537
_cell_length_c     21.437062
_cell_angle_alpha  91.567398
_cell_angle_beta   88.47897
_cell_angle_gamma 107.44418
loop_
_atom_site_label
_atom_site_type_symbol
_atom_site_fract_x
_atom_site_fract_y
_atom_site_fract_z
_atom_type_partial_charge
C0 C 0.0791 0.09944 0.09676 0.0
C1 C 0.20905 0.90766 0.055 0.0
C2 C 0.15587 0.91422 0.86476 0.0
Mg3 Mg 0.95188 0.13484 0.02517 0.0
Mg4 Mg 0.82729 0.00782 0.95419 0.0
O5 O 0.92491 0.05241 0.96402 0.0
Mg6 Mg 0.99424 5e-05 -0.01569 0.0
O7 O 0.0698 0.95635 0.00732 0.0
Mg8 Mg 0.15861 0.03461 -0.01631 0.0
Mg9 Mg 0.06723 0.86412 -0.01951 0.0
C10 C 0.89604 0.90578 0.87282 0.0
O11 O 0.91242 0.90426 0.03246 0.0
O12 O 0.88751 0.18832 0.96258 0.0
O13 O 0.95771 0.81283 0.0088 0.0
O14 O 0.85174 0.08734 0.08787 0.0
O15 O 0.80739 0.098 0.91215 0.0
O16 O 0.77251 0.99361 0.04331 0.0
O17 O 0.0832 0.08668 0.93393 0.0
O18 O 0.04826 0.1814 0.96275 0.0
C19 C 0.09116 0.15413 0.9329 0.0
C20 C 0.83777 0.16492 0.92261 0.0
O21 O 0.95915 0.93265 0.89445 0.0
O22 O 0.22024 0.97351 0.04024 0.0
O23 O 0.84082 0.92191 0.89377 0.0
O24 O 0.18181 0.97336 0.89496 0.0
O25 O 0.15415 0.85731 0.03702 0.0
O26 O 0.10127 0.86587 0.88489 0.0
O27 O 0.01777 0.07034 0.07348 0.0
O28 O 0.13609 0.09173 0.07177 0.0
C29 C 0.79223 0.03739 0.08924 0.0
C30 C 0.90793 0.83696 0.03129 0.0
C31 C 0.65567 0.59131 0.52708 0.0
C32 C 0.67162 0.33982 0.54964 0.0
C33 C 0.55139 0.28387 0.37873 0.0
Mg34 Mg 0.53603 0.65293 0.47188 0.0
Mg35 Mg 0.36768 0.55817 0.47297 0.0
O36 O 0.46031 0.56169 0.44857 0.0
Mg37 Mg 0.50504 0.48797 0.4755 0.0
O38 O 0.55834 0.42086 0.49986 0.0
Mg39 Mg 0.64215 0.44794 0.44059 0.0
Mg40 Mg 0.51595 0.32252 0.51161 0.0
C41 C 0.3452 0.39607 0.42813 0.0
O42 O 0.435 0.45373 0.56418 0.0
O43 O 0.4752 0.71147 0.41194 0.0
O44 O 0.42551 0.33493 0.56584 0.0
O45 O 0.47286 0.67742 0.55847 0.0
O46 O 0.3605 0.64278 0.41296 0.0
O47 O 0.36629 0.59587 0.56744 0.0
O48 O 0.57765 0.51029 0.38758 0.0
O49 O 0.59565 0.62897 0.38616 0.0
C50 C 0.60559 0.57162 0.36321 0.0
C51 C 0.41022 0.69837 0.39515 0.0
O52 O 0.41241 0.40224 0.42749 0.0
O53 O 0.69511 0.38776 0.50794 0.0
O54 O 0.31976 0.44618 0.44818 0.0
O55 O 0.5993 0.34489 0.37989 0.0
O56 O 0.60516 0.30834 0.55925 0.0
O57 O 0.50703 0.264 0.424 0.0
O58 O 0.58829 0.58046 0.52519 0.0
O59 O 0.6848 0.54801 0.50005 0.0
C60 C 0.41345 0.65152 0.58765 0.0
C61 C 0.40719 0.38994 0.585 0.0
C62 C 0.08134 0.09627 0.2111 0.0
C63 C 0.08633 0.13647 0.15722 0.0
C64 C 0.11327 0.12882 0.26646 0.0
C65 C 0.15079 0.20293 0.2671 0.0
C66 C 0.15008 0.24463 0.21415 0.0
C67 C 0.11827 0.21054 0.15944 0.0
C68 C 0.11239 0.08257 0.32189 0.0
C69 C 0.18833 0.32418 0.21338 0.0
C70 C 0.22096 0.32131 0.40666 0.0
C71 C 0.29461 0.33266 0.39846 0.0
C72 C 0.17205 0.27356 0.36764 0.0
C73 C 0.19757 0.23634 0.3196 0.0
C74 C 0.27093 0.24113 0.31592 0.0
C75 C 0.31881 0.28945 0.35556 0.0
C76 C 0.09404 0.26828 0.37417 0.0
C77 C 0.2998 0.20027 0.26639 0.0
H78 H 0.0579 0.03847 0.20843 0.0
H79 H 0.12303 0.24087 0.11706 0.0
H80 H 0.16282 0.06816 0.32205 0.0
H81 H 0.10844 0.11145 0.36647 0.0
H82 H 0.06742 0.03206 0.31985 0.0
H83 H 0.17679 0.34969 0.17087 0.0
H84 H 0.17277 0.3514 0.25502 0.0
H85 H 0.24671 0.33313 0.21504 0.0
H86 H 0.2016 0.35305 0.44107 0.0
H87 H 0.37549 0.297 0.34972 0.0
H88 H 0.06009 0.21202 0.3676 0.0
H89 H 0.08017 0.30062 0.33757 0.0
H90 H 0.08114 0.28872 0.42047 0.0
H91 H 0.2665 0.14336 0.26392 0.0
H92 H 0.35574 0.2021 0.27521 0.0
H93 H 0.2981 0.22389 0.22016 0.0
C94 C 0.76378 0.07508 0.1963 0.0
C95 C 0.7398 0.04184 0.1389 0.0
C96 C 0.71855 0.10017 0.23642 0.0
C97 C 0.64799 0.09304 0.21812 0.0
C98 C 0.62146 0.05336 0.1631 0.0
C99 C 0.66759 0.02756 0.12434 0.0
C100 C 0.74849 0.14025 0.29562 0.0
C101 C 0.54678 0.04447 0.1417 0.0
C102 C 0.53907 0.15769 0.34268 0.0
C103 C 0.55772 0.23114 0.32954 0.0
C104 C 0.56369 0.11017 0.30425 0.0
C105 C 0.60728 0.13678 0.25134 0.0
C106 C 0.6198 0.20922 0.23452 0.0
C107 C 0.59516 0.25551 0.27394 0.0
C108 C 0.54832 0.03328 0.32362 0.0
C109 C 0.66441 0.23956 0.17759 0.0
H110 H 0.81934 0.08569 0.20801 0.0
H111 H 0.64862 0.00217 0.07989 0.0
H112 H 0.75611 0.1984 0.29006 0.0
H113 H 0.71078 0.12196 0.33543 0.0
H114 H 0.8006 0.13303 0.3072 0.0
H115 H 0.5284 -0.0018 0.10859 0.0
H116 H 0.50861 0.03705 0.18177 0.0
H117 H 0.54593 0.0936 0.1174 0.0
H118 H 0.51021 0.13828 0.38561 0.0
H119 H 0.60902 0.31199 0.26313 0.0
H120 H 0.59386 0.02798 0.35049 0.0
H121 H 0.54168 0.99635 0.28248 0.0
H122 H 0.49964 0.01619 0.35381 0.0
H123 H 0.72077 0.24244 0.18536 0.0
H124 H 0.66229 0.29424 0.1671 0.0
H125 H 0.64617 0.20413 0.13619 0.0
C126 C 0.84059 0.71134 0.05909 0.0
C127 C 0.84727 0.785 0.06312 0.0
C128 C 0.79421 0.66263 0.09917 0.0
C129 C 0.75332 0.68818 0.14397 0.0
C130 C 0.75428 0.76103 0.14394 0.0
C131 C 0.80145 0.80876 0.10344 0.0
C132 C 0.79362 0.58515 0.09697 0.0
C133 C 0.70976 0.78986 0.19007 0.0
C134 C 0.61036 0.56992 0.24852 0.0
C135 C 0.64658 0.57864 0.30486 0.0
C136 C 0.64553 0.60138 0.19392 0.0
C137 C 0.71822 0.64222 0.19656 0.0
C138 C 0.75625 0.64542 0.25235 0.0
C139 C 0.71959 0.61399 0.30617 0.0
C140 C 0.60324 0.59638 0.13537 0.0
C141 C 0.83421 0.68735 0.25674 0.0
H142 H 0.87457 0.69205 0.02698 0.0
H143 H 0.80544 0.86531 0.10623 0.0
H144 H 0.82436 0.57527 0.13662 0.0
H145 H 0.73848 0.54862 0.10175 0.0
H146 H 0.81795 0.57127 0.05291 0.0
H147 H 0.70973 0.84503 0.1788 0.0
H148 H 0.65392 0.75439 0.19115 0.0
H149 H 0.73121 0.79105 0.23759 0.0
H150 H 0.55328 0.54388 0.24835 0.0
H151 H 0.74678 0.62165 0.35038 0.0
H152 H 0.63498 0.59006 0.09326 0.0
H153 H 0.58879 0.64666 0.13062 0.0
H154 H 0.55326 0.55085 0.13678 0.0
H155 H 0.86514 0.67225 0.21754 0.0
H156 H 0.85736 0.67839 0.30139 0.0
H157 H 0.84058 0.74552 0.25326 0.0
C158 C 0.26317 0.81981 0.09885 0.0
C159 C 0.25733 0.8895 0.09889 0.0
C160 C 0.29924 0.79794 0.14625 0.0
C161 C 0.32877 0.8465 0.19562 0.0
C162 C 0.32698 0.91833 0.19382 0.0
C163 C 0.29161 0.93918 0.14509 0.0
C164 C 0.30199 0.7215 0.1454 0.0
C165 C 0.35775 0.97176 0.24548 0.0
C166 C 0.32276 0.74935 0.34672 0.0
C167 C 0.39263 0.74576 0.34978 0.0
C168 C 0.30266 0.78625 0.29883 0.0
C169 C 0.35334 0.81907 0.25213 0.0
C170 C 0.42493 0.8188 0.25676 0.0
C171 C 0.44388 0.78251 0.30591 0.0
C172 C 0.22616 0.78687 0.2965 0.0
C173 C 0.48055 0.85237 0.20779 0.0
H174 H 0.23758 0.7816 0.06267 0.0
H175 H 0.28709 0.99315 0.1454 0.0
H176 H 0.35704 0.72031 0.15377 0.0
H177 H 0.26727 0.69154 0.18346 0.0
H178 H 0.28392 0.69319 0.10039 0.0
H179 H 0.36616 0.02788 0.2309 0.0
H180 H 0.32043 0.96121 0.28628 0.0
H181 H 0.40916 0.96629 0.26088 0.0
H182 H 0.28323 0.72177 0.38102 0.0
H183 H 0.49798 0.77964 0.30791 0.0
H184 H 0.19973 0.75368 0.25611 0.0
H185 H 0.22394 0.84228 0.28987 0.0
H186 H 0.19543 0.76547 0.3396 0.0
H187 H 0.47569 0.81435 0.16756 0.0
H188 H 0.53538 0.86475 0.22599 0.0
H189 H 0.47285 0.90229 0.19034 0.0
C190 C 0.27268 0.90174 0.83067 0.0
C191 C 0.20108 0.89242 0.81704 0.0
C192 C 0.31336 0.86629 0.79527 0.0
C193 C 0.28252 0.82285 0.74338 0.0
C194 C 0.21171 0.81742 0.72678 0.0
C195 C 0.17113 0.85081 0.76485 0.0
C196 C 0.38752 0.87137 0.81609 0.0
C197 C 0.17795 0.77427 0.67011 0.0
C198 C 0.4046 0.77016 0.62359 0.0
C199 C 0.39102 0.69689 0.63511 0.0
C200 C 0.37012 0.81203 0.65872 0.0
C201 C 0.32309 0.78051 0.70819 0.0
C202 C 0.31297 0.70767 0.7227 0.0
C203 C 0.34577 0.6662 0.68497 0.0
C204 C 0.38046 0.88858 0.64021 0.0
C205 C 0.2657 0.67287 0.7768 0.0
H206 H 0.29537 0.93242 0.87204 0.0
H207 H 0.11556 0.84304 0.75476 0.0
H208 H 0.38873 0.81785 0.83115 0.0
H209 H 0.42654 0.88745 0.77692 0.0
H210 H 0.40503 0.91033 0.85548 0.0
H211 H 0.12615 0.78274 0.65932 0.0
H212 H 0.21418 0.78887 0.6288 0.0
H213 H 0.16868 0.71634 0.67814 0.0
H214 H 0.43826 0.79363 0.58406 0.0
H215 H 0.33483 0.60944 0.69352 0.0
H216 H 0.39637 0.92565 0.68094 0.0
H217 H 0.32926 0.89376 0.62368 0.0
H218 H 0.42143 0.90605 0.60253 0.0
H219 H 0.27981 0.70685 0.81967 0.0
H220 H 0.26998 0.61869 0.78618 0.0
H221 H 0.20934 0.6676 0.76667 0.0
C222 C 0.19861 0.17813 0.86191 0.0
C223 C 0.14366 0.20074 0.88978 0.0
C224 C 0.24322 0.21924 0.81573 0.0
C225 C 0.23146 0.28354 0.79639 0.0
C226 C 0.17776 0.30787 0.82595 0.0
C227 C 0.13494 0.26651 0.87266 0.0
C228 C 0.30103 0.19238 0.78587 0.0
C229 C 0.16265 0.37531 0.8058 0.0
C230 C 0.3775 0.40495 0.69615 0.0
C231 C 0.35531 0.37786 0.6366 0.0
C232 C 0.33616 0.37686 0.74911 0.0
C233 C 0.27107 0.32155 0.7415 0.0
C234 C 0.24596 0.29859 0.68085 0.0
C235 C 0.28908 0.32639 0.629 0.0
C236 C 0.36475 0.40234 0.81304 0.0
C237 C 0.17576 0.24132 0.67078 0.0
H238 H 0.20584 0.12769 0.87524 0.0
H239 H 0.09229 0.28436 0.89368 0.0
H240 H 0.2879 0.17658 0.7365 0.0
H241 H 0.35265 0.23566 0.7859 0.0
H242 H 0.30762 0.14534 0.8102 0.0
H243 H 0.1242 0.39081 0.83786 0.0
H244 H 0.21255 0.42067 0.80335 0.0
H245 H 0.14005 0.36666 0.75833 0.0
H246 H 0.42959 0.44389 0.70158 0.0
H247 H 0.27274 0.30533 0.5826 0.0
H248 H 0.38132 0.35935 0.83521 0.0
H249 H 0.32289 0.41377 0.84357 0.0
H250 H 0.41142 0.45133 0.81092 0.0
H251 H 0.17955 0.18901 0.68659 0.0
H252 H 0.16055 0.23545 0.62093 0.0
H253 H 0.13266 0.25396 0.69879 0.0
C254 C 0.87981 0.25802 0.84255 0.0
C255 C 0.8234 0.21491 0.87849 0.0
C256 C 0.8666 0.28966 0.7879 0.0
C257 C 0.79531 0.27931 0.77019 0.0
C258 C 0.73838 0.24117 0.8097 0.0
C259 C 0.75314 0.20815 0.86276 0.0
C260 C 0.92876 0.3285 0.74659 0.0
C261 C 0.6616 0.23105 0.79375 0.0
C262 C 0.74157 0.38382 0.64395 0.0
C263 C 0.72027 0.33076 0.59716 0.0
C264 C 0.77022 0.36956 0.69965 0.0
C265 C 0.77915 0.30113 0.70768 0.0
C266 C 0.76347 0.24968 0.65797 0.0
C267 C 0.73255 0.26458 0.6037 0.0
C268 C 0.78445 0.42526 0.75178 0.0
C269 C 0.7746 0.17698 0.66381 0.0
H270 H 0.9342 0.26191 0.85416 0.0
H271 H 0.70968 0.17429 0.89046 0.0
H272 H 0.93157 0.29407 0.70515 0.0
H273 H 0.92177 0.37893 0.7294 0.0
H274 H 0.98024 0.34136 0.77119 0.0
H275 H 0.62458 0.20894 0.8333 0.0
H276 H 0.65424 0.28282 0.78044 0.0
H277 H 0.64671 0.19346 0.75319 0.0
H278 H 0.73046 0.43453 0.63905 0.0
H279 H 0.71511 0.22348 0.56762 0.0
H280 H 0.83565 0.42971 0.77446 0.0
H281 H 0.74162 0.40875 0.78797 0.0
H282 H 0.78575 0.47896 0.735 0.0
H283 H 0.82765 0.18252 0.68348 0.0
H284 H 0.77048 0.14792 0.61813 0.0
H285 H 0.73371 0.1439 0.69624 0.0
C286 C 0.85145 0.78726 0.82102 0.0
C287 C 0.88574 0.86071 0.81658 0.0
C288 C 0.82208 0.74664 0.76811 0.0
C289 C 0.82582 0.78129 0.71033 0.0
C290 C 0.86426 0.85481 0.70516 0.0
C291 C 0.89412 0.89377 0.75868 0.0
C292 C 0.78297 0.66782 0.77494 0.0
C293 C 0.86909 0.89357 0.64447 0.0
C294 C 0.77424 0.65776 0.56978 0.0
C295 C 0.70085 0.64931 0.56675 0.0
C296 C 0.81649 0.7031 0.61462 0.0
C297 C 0.78477 0.74154 0.65695 0.0
C298 C 0.71198 0.73739 0.65135 0.0
C299 C 0.67068 0.691 0.6063 0.0
C300 C 0.89392 0.70629 0.61912 0.0
C301 C 0.67682 0.77902 0.69509 0.0
H302 H 0.8442 0.76259 0.86642 0.0
H303 H 0.91946 0.9512 0.75617 0.0
H304 H 0.72503 0.65862 0.76899 0.0
H305 H 0.80098 0.63572 0.73818 0.0
H306 H 0.79111 0.6478 0.82132 0.0
H307 H 0.90872 0.94775 0.64626 0.0
H308 H 0.88367 0.86225 0.60519 0.0
H309 H 0.81624 0.89971 0.63424 0.0
H310 H 0.79838 0.6264 0.53889 0.0
H311 H 0.61424 0.68518 0.60393 0.0
H312 H 0.90132 0.67878 0.66188 0.0
H313 H 0.9283 0.7627 0.62302 0.0
H314 H 0.91244 0.6801 0.57821 0.0
H315 H 0.67407 0.75798 0.74295 0.0
H316 H 0.62191 0.77523 0.68076 0.0
H317 H 0.70881 0.8364 0.69712 0.0
loop_
_geom_bond_atom_site_label_1
_geom_bond_atom_site_label_2
_geom_bond_distance
_geom_bond_site_symmetry_2
_ccdc_geom_bond_type
C0 O27 1.312 . S
C0 O28 1.208 . S
C1 O22 1.331 . S
C1 O25 1.244 . S
C2 O24 1.264 . S
C2 O26 1.273 . S
Mg3 O5 1.936 . S
Mg3 O12 2.081 . S
Mg3 O14 2.023 1_556 S
Mg3 O18 2.031 1_655 S
Mg3 O27 2.291 1_656 S
Mg4 O5 1.963 . S
Mg4 O15 1.942 . S
Mg4 O16 1.955 1_556 S
Mg4 O23 1.986 1_545 S
O5 Mg3 1.936 . S
O5 Mg4 1.963 . S
O5 Mg6 1.915 1_546 S
Mg6 O5 1.915 1_564 S
Mg6 O7 1.915 1_655 S
Mg6 O11 2.013 . S
Mg6 O17 2.114 1_664 S
Mg6 O21 2.013 1_554 S
Mg6 O27 2.114 1_665 S
O7 Mg6 1.915 1_455 S
O7 Mg8 1.936 . S
O7 Mg9 1.963 . S
Mg8 O7 1.936 . S
Mg8 O17 2.291 1_564 S
Mg8 O22 2.081 . S
Mg8 O24 2.023 1_554 S
Mg8 O28 2.031 1_565 S
Mg9 O7 1.963 . S
Mg9 O13 1.986 1_455 S
Mg9 O25 1.942 . S
Mg9 O26 1.955 1_554 S
C10 O21 1.191 . S
C10 O23 1.307 . S
O11 Mg6 2.013 . S
O11 C30 1.191 . S
O12 Mg3 2.081 . S
O12 C20 1.331 . S
O13 Mg9 1.986 1_655 S
O13 C30 1.307 . S
O14 Mg3 2.023 1_554 S
O14 C29 1.264 . S
O15 Mg4 1.942 . S
O15 C20 1.244 . S
O16 Mg4 1.955 1_554 S
O16 C29 1.273 . S
O17 Mg6 2.114 1_446 S
O17 Mg8 2.291 1_546 S
O17 C19 1.312 . S
O18 Mg3 2.031 1_455 S
O18 C19 1.208 . S
C19 O17 1.312 . S
C19 O18 1.208 . S
C20 O12 1.331 . S
C20 O15 1.244 . S
O21 Mg6 2.013 1_556 S
O21 C10 1.191 . S
O22 C1 1.331 . S
O22 Mg8 2.081 . S
O23 Mg4 1.986 1_565 S
O23 C10 1.307 . S
O24 C2 1.264 . S
O24 Mg8 2.023 1_556 S
O25 C1 1.244 . S
O25 Mg9 1.942 . S
O26 C2 1.273 . S
O26 Mg9 1.955 1_556 S
O27 C0 1.312 . S
O27 Mg3 2.291 1_454 S
O27 Mg6 2.114 1_445 S
O28 C0 1.208 . S
O28 Mg8 2.031 1_545 S
C29 O14 1.264 . S
C29 O16 1.273 . S
C30 O11 1.191 . S
C30 O13 1.307 . S
C31 O58 1.312 . S
C31 O59 1.208 . S
C32 O53 1.331 . S
C32 O56 1.244 . S
C33 O55 1.264 . S
C33 O57 1.273 . S
Mg34 O36 1.936 . S
Mg34 O43 2.081 . S
Mg34 O45 2.023 . S
Mg34 O49 2.031 . S
Mg34 O58 2.291 . S
Mg35 O36 1.963 . S
Mg35 O46 1.942 . S
Mg35 O47 1.955 . S
Mg35 O54 1.986 . S
O36 Mg34 1.936 . S
O36 Mg35 1.963 . S
O36 Mg37 1.915 . S
Mg37 O36 1.915 . S
Mg37 O38 1.915 . S
Mg37 O42 2.013 . S
Mg37 O48 2.114 . S
Mg37 O52 2.013 . S
Mg37 O58 2.114 . S
O38 Mg37 1.915 . S
O38 Mg39 1.936 . S
O38 Mg40 1.963 . S
Mg39 O38 1.936 . S
Mg39 O48 2.291 . S
Mg39 O53 2.081 . S
Mg39 O55 2.023 . S
Mg39 O59 2.031 . S
Mg40 O38 1.963 . S
Mg40 O44 1.986 . S
Mg40 O56 1.942 . S
Mg40 O57 1.955 . S
C41 O52 1.191 . S
C41 O54 1.307 . S
O42 Mg37 2.013 . S
O42 C61 1.191 . S
O43 Mg34 2.081 . S
O43 C51 1.331 . S
O44 Mg40 1.986 . S
O44 C61 1.307 . S
O45 Mg34 2.023 . S
O45 C60 1.264 . S
O46 Mg35 1.942 . S
O46 C51 1.244 . S
O47 Mg35 1.955 . S
O47 C60 1.273 . S
O48 Mg37 2.114 . S
O48 Mg39 2.291 . S
O48 C50 1.312 . S
O49 Mg34 2.031 . S
O49 C50 1.208 . S
C50 O48 1.312 . S
C50 O49 1.208 . S
C51 O43 1.331 . S
C51 O46 1.244 . S
O52 Mg37 2.013 . S
O52 C41 1.191 . S
O53 C32 1.331 . S
O53 Mg39 2.081 . S
O54 Mg35 1.986 . S
O54 C41 1.307 . S
O55 C33 1.264 . S
O55 Mg39 2.023 . S
O56 C32 1.244 . S
O56 Mg40 1.942 . S
O57 C33 1.273 . S
O57 Mg40 1.955 . S
O58 C31 1.312 . S
O58 Mg34 2.291 . S
O58 Mg37 2.114 . S
O59 C31 1.208 . S
O59 Mg39 2.031 . S
C60 O45 1.264 . S
C60 O47 1.273 . S
C61 O42 1.191 . S
C61 O44 1.307 . S
C62 C63 1.391 . S
C62 C64 1.394 . S
C62 H78 0.931 . S
C63 C62 1.391 . S
C63 C67 1.376 . S
C64 C62 1.394 . S
C64 C65 1.369 . S
C64 C68 1.531 . S
C65 C64 1.369 . S
C65 C66 1.410 . S
C65 C73 1.503 . S
C66 C65 1.410 . S
C66 C67 1.392 . S
C66 C69 1.511 . S
C67 C63 1.376 . S
C67 C66 1.392 . S
C67 H79 0.929 . S
C68 C64 1.531 . S
C68 H80 0.960 . S
C68 H81 0.962 . S
C68 H82 0.960 . S
C69 C66 1.511 . S
C69 H83 0.961 . S
C69 H84 0.961 . S
C69 H85 0.961 . S
C70 C71 1.370 . S
C70 C72 1.363 . S
C70 H86 0.931 . S
C71 C70 1.370 . S
C71 C75 1.408 . S
C72 C70 1.363 . S
C72 C73 1.370 . S
C72 C76 1.524 . S
C73 C65 1.503 . S
C73 C72 1.370 . S
C73 C74 1.403 . S
C74 C73 1.403 . S
C74 C75 1.404 . S
C74 C77 1.539 . S
C75 C71 1.408 . S
C75 C74 1.404 . S
C75 H87 0.930 . S
C76 C72 1.524 . S
C76 H88 0.956 . S
C76 H89 0.961 . S
C76 H90 0.961 . S
C77 C74 1.539 . S
C77 H91 0.958 . S
C77 H92 0.961 . S
C77 H93 0.960 . S
H78 C62 0.931 . S
H79 C67 0.929 . S
H80 C68 0.960 . S
H81 C68 0.962 . S
H82 C68 0.960 . S
H83 C69 0.961 . S
H84 C69 0.961 . S
H85 C69 0.961 . S
H86 C70 0.931 . S
H87 C75 0.930 . S
H88 C76 0.956 . S
H89 C76 0.961 . S
H90 C76 0.961 . S
H91 C77 0.958 . S
H92 C77 0.961 . S
H93 C77 0.960 . S
C94 C95 1.391 . S
C94 C96 1.394 . S
C94 H110 0.931 . S
C95 C94 1.391 . S
C95 C99 1.376 . S
C96 C94 1.394 . S
C96 C97 1.369 . S
C96 C100 1.531 . S
C97 C96 1.369 . S
C97 C98 1.410 . S
C97 C105 1.503 . S
C98 C97 1.410 . S
C98 C99 1.392 . S
C98 C101 1.511 . S
C99 C95 1.376 . S
C99 C98 1.392 . S
C99 H111 0.929 . S
C100 C96 1.531 . S
C100 H112 0.960 . S
C100 H113 0.962 . S
C100 H114 0.960 . S
C101 C98 1.511 . S
C101 H115 0.961 . S
C101 H116 0.961 . S
C101 H117 0.961 . S
C102 C103 1.370 . S
C102 C104 1.363 . S
C102 H118 0.931 . S
C103 C102 1.370 . S
C103 C107 1.408 . S
C104 C102 1.363 . S
C104 C105 1.370 . S
C104 C108 1.524 . S
C105 C97 1.503 . S
C105 C104 1.370 . S
C105 C106 1.403 . S
C106 C105 1.403 . S
C106 C107 1.404 . S
C106 C109 1.539 . S
C107 C103 1.408 . S
C107 C106 1.404 . S
C107 H119 0.930 . S
C108 C104 1.524 . S
C108 H120 0.956 . S
C108 H121 0.961 . S
C108 H122 0.961 . S
C109 C106 1.539 . S
C109 H123 0.958 . S
C109 H124 0.961 . S
C109 H125 0.960 . S
H110 C94 0.931 . S
H111 C99 0.929 . S
H112 C100 0.960 . S
H113 C100 0.962 . S
H114 C100 0.960 . S
H115 C101 0.961 . S
H116 C101 0.961 . S
H117 C101 0.961 . S
H118 C102 0.931 . S
H119 C107 0.930 . S
H120 C108 0.956 . S
H121 C108 0.961 . S
H122 C108 0.961 . S
H123 C109 0.958 . S
H124 C109 0.961 . S
H125 C109 0.960 . S
C126 C127 1.391 . S
C126 C128 1.394 . S
C126 H142 0.931 . S
C127 C126 1.391 . S
C127 C131 1.376 . S
C128 C126 1.394 . S
C128 C129 1.369 . S
C128 C132 1.531 . S
C129 C128 1.369 . S
C129 C130 1.410 . S
C129 C137 1.503 . S
C130 C129 1.410 . S
C130 C131 1.392 . S
C130 C133 1.511 . S
C131 C127 1.376 . S
C131 C130 1.392 . S
C131 H143 0.929 . S
C132 C128 1.531 . S
C132 H144 0.960 . S
C132 H145 0.962 . S
C132 H146 0.960 . S
C133 C130 1.511 . S
C133 H147 0.961 . S
C133 H148 0.961 . S
C133 H149 0.961 . S
C134 C135 1.370 . S
C134 C136 1.363 . S
C134 H150 0.931 . S
C135 C134 1.370 . S
C135 C139 1.408 . S
C136 C134 1.363 . S
C136 C137 1.370 . S
C136 C140 1.524 . S
C137 C129 1.503 . S
C137 C136 1.370 . S
C137 C138 1.403 . S
C138 C137 1.403 . S
C138 C139 1.404 . S
C138 C141 1.539 . S
C139 C135 1.408 . S
C139 C138 1.404 . S
C139 H151 0.930 . S
C140 C136 1.524 . S
C140 H152 0.956 . S
C140 H153 0.961 . S
C140 H154 0.961 . S
C141 C138 1.539 . S
C141 H155 0.958 . S
C141 H156 0.961 . S
C141 H157 0.960 . S
H142 C126 0.931 . S
H143 C131 0.929 . S
H144 C132 0.960 . S
H145 C132 0.962 . S
H146 C132 0.960 . S
H147 C133 0.961 . S
H148 C133 0.961 . S
H149 C133 0.961 . S
H150 C134 0.931 . S
H151 C139 0.930 . S
H152 C140 0.956 . S
H153 C140 0.961 . S
H154 C140 0.961 . S
H155 C141 0.958 . S
H156 C141 0.961 . S
H157 C141 0.960 . S
C158 C159 1.391 . S
C158 C160 1.394 . S
C158 H174 0.931 . S
C159 C158 1.391 . S
C159 C163 1.376 . S
C160 C158 1.394 . S
C160 C161 1.369 . S
C160 C164 1.531 . S
C161 C160 1.369 . S
C161 C162 1.410 . S
C161 C169 1.503 . S
C162 C161 1.410 . S
C162 C163 1.392 . S
C162 C165 1.511 . S
C163 C159 1.376 . S
C163 C162 1.392 . S
C163 H175 0.929 . S
C164 C160 1.531 . S
C164 H176 0.960 . S
C164 H177 0.962 . S
C164 H178 0.960 . S
C165 C162 1.511 . S
C165 H179 0.961 . S
C165 H180 0.961 . S
C165 H181 0.961 . S
C166 C167 1.370 . S
C166 C168 1.363 . S
C166 H182 0.931 . S
C167 C166 1.370 . S
C167 C171 1.408 . S
C168 C166 1.363 . S
C168 C169 1.370 . S
C168 C172 1.524 . S
C169 C161 1.503 . S
C169 C168 1.370 . S
C169 C170 1.403 . S
C170 C169 1.403 . S
C170 C171 1.404 . S
C170 C173 1.539 . S
C171 C167 1.408 . S
C171 C170 1.404 . S
C171 H183 0.930 . S
C172 C168 1.524 . S
C172 H184 0.956 . S
C172 H185 0.961 . S
C172 H186 0.961 . S
C173 C170 1.539 . S
C173 H187 0.958 . S
C173 H188 0.961 . S
C173 H189 0.960 . S
H174 C158 0.931 . S
H175 C163 0.929 . S
H176 C164 0.960 . S
H177 C164 0.962 . S
H178 C164 0.960 . S
H179 C165 0.961 . S
H180 C165 0.961 . S
H181 C165 0.961 . S
H182 C166 0.931 . S
H183 C171 0.930 . S
H184 C172 0.956 . S
H185 C172 0.961 . S
H186 C172 0.961 . S
H187 C173 0.958 . S
H188 C173 0.961 . S
H189 C173 0.960 . S
C190 C191 1.391 . S
C190 C192 1.394 . S
C190 H206 0.931 . S
C191 C190 1.391 . S
C191 C195 1.376 . S
C192 C190 1.394 . S
C192 C193 1.369 . S
C192 C196 1.531 . S
C193 C192 1.369 . S
C193 C194 1.410 . S
C193 C201 1.503 . S
C194 C193 1.410 . S
C194 C195 1.392 . S
C194 C197 1.511 . S
C195 C191 1.376 . S
C195 C194 1.392 . S
C195 H207 0.929 . S
C196 C192 1.531 . S
C196 H208 0.960 . S
C196 H209 0.962 . S
C196 H210 0.960 . S
C197 C194 1.511 . S
C197 H211 0.961 . S
C197 H212 0.961 . S
C197 H213 0.961 . S
C198 C199 1.370 . S
C198 C200 1.363 . S
C198 H214 0.931 . S
C199 C198 1.370 . S
C199 C203 1.408 . S
C200 C198 1.363 . S
C200 C201 1.370 . S
C200 C204 1.524 . S
C201 C193 1.503 . S
C201 C200 1.370 . S
C201 C202 1.403 . S
C202 C201 1.403 . S
C202 C203 1.404 . S
C202 C205 1.539 . S
C203 C199 1.408 . S
C203 C202 1.404 . S
C203 H215 0.930 . S
C204 C200 1.524 . S
C204 H216 0.956 . S
C204 H217 0.961 . S
C204 H218 0.961 . S
C205 C202 1.539 . S
C205 H219 0.958 . S
C205 H220 0.961 . S
C205 H221 0.960 . S
H206 C190 0.931 . S
H207 C195 0.929 . S
H208 C196 0.960 . S
H209 C196 0.962 . S
H210 C196 0.960 . S
H211 C197 0.961 . S
H212 C197 0.961 . S
H213 C197 0.961 . S
H214 C198 0.931 . S
H215 C203 0.930 . S
H216 C204 0.956 . S
H217 C204 0.961 . S
H218 C204 0.961 . S
H219 C205 0.958 . S
H220 C205 0.961 . S
H221 C205 0.960 . S
C222 C223 1.391 . S
C222 C224 1.394 . S
C222 H238 0.931 . S
C223 C222 1.391 . S
C223 C227 1.376 . S
C224 C222 1.394 . S
C224 C225 1.369 . S
C224 C228 1.531 . S
C225 C224 1.369 . S
C225 C226 1.410 . S
C225 C233 1.503 . S
C226 C225 1.410 . S
C226 C227 1.392 . S
C226 C229 1.511 . S
C227 C223 1.376 . S
C227 C226 1.392 . S
C227 H239 0.929 . S
C228 C224 1.531 . S
C228 H240 0.960 . S
C228 H241 0.962 . S
C228 H242 0.960 . S
C229 C226 1.511 . S
C229 H243 0.961 . S
C229 H244 0.961 . S
C229 H245 0.961 . S
C230 C231 1.370 . S
C230 C232 1.363 . S
C230 H246 0.931 . S
C231 C230 1.370 . S
C231 C235 1.408 . S
C232 C230 1.363 . S
C232 C233 1.370 . S
C232 C236 1.524 . S
C233 C225 1.503 . S
C233 C232 1.370 . S
C233 C234 1.403 . S
C234 C233 1.403 . S
C234 C235 1.404 . S
C234 C237 1.539 . S
C235 C231 1.408 . S
C235 C234 1.404 . S
C235 H247 0.930 . S
C236 C232 1.524 . S
C236 H248 0.956 . S
C236 H249 0.961 . S
C236 H250 0.961 . S
C237 C234 1.539 . S
C237 H251 0.958 . S
C237 H252 0.961 . S
C237 H253 0.960 . S
H238 C222 0.931 . S
H239 C227 0.929 . S
H240 C228 0.960 . S
H241 C228 0.962 . S
H242 C228 0.960 . S
H243 C229 0.961 . S
H244 C229 0.961 . S
H245 C229 0.961 . S
H246 C230 0.931 . S
H247 C235 0.930 . S
H248 C236 0.956 . S
H249 C236 0.961 . S
H250 C236 0.961 . S
H251 C237 0.958 . S
H252 C237 0.961 . S
H253 C237 0.960 . S
C254 C255 1.391 . S
C254 C256 1.394 . S
C254 H270 0.931 . S
C255 C254 1.391 . S
C255 C259 1.376 . S
C256 C254 1.394 . S
C256 C257 1.369 . S
C256 C260 1.531 . S
C257 C256 1.369 . S
C257 C258 1.410 . S
C257 C265 1.503 . S
C258 C257 1.410 . S
C258 C259 1.392 . S
C258 C261 1.511 . S
C259 C255 1.376 . S
C259 C258 1.392 . S
C259 H271 0.929 . S
C260 C256 1.531 . S
C260 H272 0.960 . S
C260 H273 0.962 . S
C260 H274 0.960 . S
C261 C258 1.511 . S
C261 H275 0.961 . S
C261 H276 0.961 . S
C261 H277 0.961 . S
C262 C263 1.370 . S
C262 C264 1.363 . S
C262 H278 0.931 . S
C263 C262 1.370 . S
C263 C267 1.408 . S
C264 C262 1.363 . S
C264 C265 1.370 . S
C264 C268 1.524 . S
C265 C257 1.503 . S
C265 C264 1.370 . S
C265 C266 1.403 . S
C266 C265 1.403 . S
C266 C267 1.404 . S
C266 C269 1.539 . S
C267 C263 1.408 . S
C267 C266 1.404 . S
C267 H279 0.930 . S
C268 C264 1.524 . S
C268 H280 0.956 . S
C268 H281 0.961 . S
C268 H282 0.961 . S
C269 C266 1.539 . S
C269 H283 0.958 . S
C269 H284 0.961 . S
C269 H285 0.960 . S
H270 C254 0.931 . S
H271 C259 0.929 . S
H272 C260 0.960 . S
H273 C260 0.962 . S
H274 C260 0.960 . S
H275 C261 0.961 . S
H276 C261 0.961 . S
H277 C261 0.961 . S
H278 C262 0.931 . S
H279 C267 0.930 . S
H280 C268 0.956 . S
H281 C268 0.961 . S
H282 C268 0.961 . S
H283 C269 0.958 . S
H284 C269 0.961 . S
H285 C269 0.960 . S
C286 C287 1.391 . S
C286 C288 1.394 . S
C286 H302 0.931 . S
C287 C286 1.391 . S
C287 C291 1.376 . S
C288 C286 1.394 . S
C288 C289 1.369 . S
C288 C292 1.531 . S
C289 C288 1.369 . S
C289 C290 1.410 . S
C289 C297 1.503 . S
C290 C289 1.410 . S
C290 C291 1.392 . S
C290 C293 1.511 . S
C291 C287 1.376 . S
C291 C290 1.392 . S
C291 H303 0.929 . S
C292 C288 1.531 . S
C292 H304 0.960 . S
C292 H305 0.962 . S
C292 H306 0.960 . S
C293 C290 1.511 . S
C293 H307 0.961 . S
C293 H308 0.961 . S
C293 H309 0.961 . S
C294 C295 1.370 . S
C294 C296 1.363 . S
C294 H310 0.931 . S
C295 C294 1.370 . S
C295 C299 1.408 . S
C296 C294 1.363 . S
C296 C297 1.370 . S
C296 C300 1.524 . S
C297 C289 1.503 . S
C297 C296 1.370 . S
C297 C298 1.403 . S
C298 C297 1.403 . S
C298 C299 1.404 . S
C298 C301 1.539 . S
C299 C295 1.408 . S
C299 C298 1.404 . S
C299 H311 0.930 . S
C300 C296 1.524 . S
C300 H312 0.956 . S
C300 H313 0.961 . S
C300 H314 0.961 . S
C301 C298 1.539 . S
C301 H315 0.958 . S
C301 H316 0.961 . S
C301 H317 0.960 . S
H302 C286 0.931 . S
H303 C291 0.929 . S
H304 C292 0.960 . S
H305 C292 0.962 . S
H306 C292 0.960 . S
H307 C293 0.961 . S
H308 C293 0.961 . S
H309 C293 0.961 . S
H310 C294 0.931 . S
H311 C299 0.930 . S
H312 C300 0.956 . S
H313 C300 0.961 . S
H314 C300 0.961 . S
H315 C301 0.958 . S
H316 C301 0.961 . S
H317 C301 0.960 . S
C63 C0 1.200 . S
C71 C41 1.259 . S
C95 C29 1.679 . S
C103 C33 1.713 . S
C127 C30 1.272 . S
C135 C50 1.214 . S
C159 C1 1.575 . S
C167 C51 1.566 . S
C191 C2 1.700 . S
C199 C60 1.708 . S
C231 C61 1.259 . S
C223 C19 1.211 . S
C255 C20 1.573 . S
C263 C32 1.561 . S
C295 C31 1.246 . S
C287 C10 1.217 . S
