# Generated by pormake.
# Topology ocu, (6,8)-cn, num edge types: 1
# Building blocks:
#     Node 0, Type 0, BuildingBlock: UKALOJ_clean_sbu_0, # of connection points: 6
#     Node 1, Type 0, BuildingBlock: UKALOJ_clean_sbu_0, # of connection points: 6
#     Node 2, Type 0, BuildingBlock: UKALOJ_clean_sbu_0, # of connection points: 6
#     Node 3, Type 0, BuildingBlock: UKALOJ_clean_sbu_0, # of connection points: 6
#     Node 4, Type 0, BuildingBlock: UKALOJ_clean_sbu_0, # of connection points: 6
#     Node 5, Type 0, BuildingBlock: UKALOJ_clean_sbu_0, # of connection points: 6
#     Node 6, Type 0, BuildingBlock: UKALOJ_clean_sbu_0, # of connection points: 6
#     Node 7, Type 0, BuildingBlock: UKALOJ_clean_sbu_0, # of connection points: 6
#     Node 8, Type 1, BuildingBlock: LIZSOE_clean_sbu_0, # of connection points: 8
#     Node 9, Type 1, BuildingBlock: LIZSOE_clean_sbu_0, # of connection points: 8
#     Node 10, Type 1, BuildingBlock: LIZSOE_clean_sbu_0, # of connection points: 8
#     Node 11, Type 1, BuildingBlock: LIZSOE_clean_sbu_0, # of connection points: 8
#     Node 12, Type 1, BuildingBlock: LIZSOE_clean_sbu_0, # of connection points: 8
#     Node 13, Type 1, BuildingBlock: LIZSOE_clean_sbu_0, # of connection points: 8
#     Edge 14, Type (0, 1), BuildingBlock: TEMPAE_clean_linker_10, # of connection points: 2
#     Edge 15, Type (0, 1), BuildingBlock: TEMPAE_clean_linker_10, # of connection points: 2
#     Edge 16, Type (0, 1), BuildingBlock: TEMPAE_clean_linker_10, # of connection points: 2
#     Edge 17, Type (0, 1), BuildingBlock: TEMPAE_clean_linker_10, # of connection points: 2
#     Edge 18, Type (0, 1), BuildingBlock: TEMPAE_clean_linker_10, # of connection points: 2
#     Edge 19, Type (0, 1), BuildingBlock: TEMPAE_clean_linker_10, # of connection points: 2
#     Edge 20, Type (0, 1), BuildingBlock: TEMPAE_clean_linker_10, # of connection points: 2
#     Edge 21, Type (0, 1), BuildingBlock: TEMPAE_clean_linker_10, # of connection points: 2
#     Edge 22, Type (0, 1), BuildingBlock: TEMPAE_clean_linker_10, # of connection points: 2
#     Edge 23, Type (0, 1), BuildingBlock: TEMPAE_clean_linker_10, # of connection points: 2
#     Edge 24, Type (0, 1), BuildingBlock: TEMPAE_clean_linker_10, # of connection points: 2
#     Edge 25, Type (0, 1), BuildingBlock: TEMPAE_clean_linker_10, # of connection points: 2
#     Edge 26, Type (0, 1), BuildingBlock: TEMPAE_clean_linker_10, # of connection points: 2
#     Edge 27, Type (0, 1), BuildingBlock: TEMPAE_clean_linker_10, # of connection points: 2
#     Edge 28, Type (0, 1), BuildingBlock: TEMPAE_clean_linker_10, # of connection points: 2
#     Edge 29, Type (0, 1), BuildingBlock: TEMPAE_clean_linker_10, # of connection points: 2
#     Edge 30, Type (0, 1), BuildingBlock: TEMPAE_clean_linker_10, # of connection points: 2
#     Edge 31, Type (0, 1), BuildingBlock: TEMPAE_clean_linker_10, # of connection points: 2
#     Edge 32, Type (0, 1), BuildingBlock: TEMPAE_clean_linker_10, # of connection points: 2
#     Edge 33, Type (0, 1), BuildingBlock: TEMPAE_clean_linker_10, # of connection points: 2
#     Edge 34, Type (0, 1), BuildingBlock: TEMPAE_clean_linker_10, # of connection points: 2
#     Edge 35, Type (0, 1), BuildingBlock: TEMPAE_clean_linker_10, # of connection points: 2
#     Edge 36, Type (0, 1), BuildingBlock: TEMPAE_clean_linker_10, # of connection points: 2
#     Edge 37, Type (0, 1), BuildingBlock: TEMPAE_clean_linker_10, # of connection points: 2
#     Edge 38, Type (0, 1), BuildingBlock: TEMPAE_clean_linker_10, # of connection points: 2
#     Edge 39, Type (0, 1), BuildingBlock: TEMPAE_clean_linker_10, # of connection points: 2
#     Edge 40, Type (0, 1), BuildingBlock: TEMPAE_clean_linker_10, # of connection points: 2
#     Edge 41, Type (0, 1), BuildingBlock: TEMPAE_clean_linker_10, # of connection points: 2
#     Edge 42, Type (0, 1), BuildingBlock: TEMPAE_clean_linker_10, # of connection points: 2
#     Edge 43, Type (0, 1), BuildingBlock: TEMPAE_clean_linker_10, # of connection points: 2
#     Edge 44, Type (0, 1), BuildingBlock: TEMPAE_clean_linker_10, # of connection points: 2
#     Edge 45, Type (0, 1), BuildingBlock: TEMPAE_clean_linker_10, # of connection points: 2
#     Edge 46, Type (0, 1), BuildingBlock: TEMPAE_clean_linker_10, # of connection points: 2
#     Edge 47, Type (0, 1), BuildingBlock: TEMPAE_clean_linker_10, # of connection points: 2
#     Edge 48, Type (0, 1), BuildingBlock: TEMPAE_clean_linker_10, # of connection points: 2
#     Edge 49, Type (0, 1), BuildingBlock: TEMPAE_clean_linker_10, # of connection points: 2
#     Edge 50, Type (0, 1), BuildingBlock: TEMPAE_clean_linker_10, # of connection points: 2
#     Edge 51, Type (0, 1), BuildingBlock: TEMPAE_clean_linker_10, # of connection points: 2
#     Edge 52, Type (0, 1), BuildingBlock: TEMPAE_clean_linker_10, # of connection points: 2
#     Edge 53, Type (0, 1), BuildingBlock: TEMPAE_clean_linker_10, # of connection points: 2
#     Edge 54, Type (0, 1), BuildingBlock: TEMPAE_clean_linker_10, # of connection points: 2
#     Edge 55, Type (0, 1), BuildingBlock: TEMPAE_clean_linker_10, # of connection points: 2
#     Edge 56, Type (0, 1), BuildingBlock: TEMPAE_clean_linker_10, # of connection points: 2
#     Edge 57, Type (0, 1), BuildingBlock: TEMPAE_clean_linker_10, # of connection points: 2
#     Edge 58, Type (0, 1), BuildingBlock: TEMPAE_clean_linker_10, # of connection points: 2
#     Edge 59, Type (0, 1), BuildingBlock: TEMPAE_clean_linker_10, # of connection points: 2
#     Edge 60, Type (0, 1), BuildingBlock: TEMPAE_clean_linker_10, # of connection points: 2
#     Edge 61, Type (0, 1), BuildingBlock: TEMPAE_clean_linker_10, # of connection points: 2
# Relax obj value: 0.229
# Max RMSD: 0.292
# Mean RMSD: 0.205
data_MOF--net-ocu--node1-UKALOJ_clean_sbu_0--node2-LIZSOE_clean_sbu_0--edge1-TEMPAE_clean_linker_10
_symmetry_space_group_name_H-M    P1
_symmetry_Int_Tables_number       1
_symmetry_cell_setting            triclinic
loop_
_symmetry_equiv_pos_as_xyz
'x, y, z'
_cell_length_a     38.689805
_cell_length_b     38.75277
_cell_length_c     39.422989
_cell_angle_alpha  102.25012
_cell_angle_beta   77.664028
_cell_angle_gamma 96.632359
loop_
_atom_site_label
_atom_site_type_symbol
_atom_site_fract_x
_atom_site_fract_y
_atom_site_fract_z
_atom_type_partial_charge
Zn0 Zn 0.24032 0.2423 0.25683 0.0
O1 O 0.19936 0.27001 0.29531 0.0
C2 C 0.23683 0.29192 0.21356 0.0
Zn3 Zn 0.27925 0.28702 0.27058 0.0
C4 C 0.20639 0.30076 0.31258 0.0
O5 O 0.2382 0.3141 0.30831 0.0
C6 C 0.31361 0.2286 0.21516 0.0
O7 O 0.29584 0.26793 0.31042 0.0
O8 O 0.25942 0.22233 0.29544 0.0
N9 N 0.31157 0.3322 0.27793 0.0
C10 C 0.32854 0.35098 0.25347 0.0
C11 C 0.32731 0.38487 0.30391 0.0
N12 N 0.31107 0.35316 0.30934 0.0
N13 N 0.33834 0.38395 0.26901 0.0
C14 C 0.18751 0.18082 0.27487 0.0
C15 C 0.19529 0.14223 0.22706 0.0
N16 N 0.20823 0.19679 0.2498 0.0
N17 N 0.21284 0.17288 0.21999 0.0
N18 N 0.17941 0.14659 0.2614 0.0
H19 H 0.1968 0.21174 0.325 0.0
H20 H 0.15833 0.18062 0.32872 0.0
H21 H 0.15712 0.21985 0.31228 0.0
C22 C 0.17439 0.19898 0.3124 0.0
C23 C 0.33369 0.33838 0.2141 0.0
H24 H 0.36094 0.34687 0.20153 0.0
H25 H 0.31495 0.35084 0.20351 0.0
H26 H 0.32942 0.30938 0.20659 0.0
O27 O 0.32071 0.25858 0.23385 0.0
O28 O 0.2815 0.2161 0.21764 0.0
C29 C 0.28266 0.23688 0.31346 0.0
O30 O 0.22199 0.26202 0.21879 0.0
O31 O 0.26145 0.30616 0.22992 0.0
Zn32 Zn 0.7848 0.26545 0.24545 0.0
O33 O 0.74958 0.22693 0.21584 0.0
C34 C 0.73735 0.32357 0.24864 0.0
Zn35 Zn 0.74292 0.27316 0.29276 0.0
C36 C 0.71694 0.22118 0.2295 0.0
O37 O 0.70651 0.2364 0.26165 0.0
C38 C 0.81069 0.31747 0.30848 0.0
O39 O 0.76202 0.22921 0.30704 0.0
O40 O 0.80536 0.22444 0.26103 0.0
N41 N 0.70363 0.27717 0.3358 0.0
C42 C 0.70194 0.26361 0.36479 0.0
C43 C 0.64937 0.26297 0.35707 0.0
N44 N 0.67074 0.27816 0.33181 0.0
N45 N 0.66839 0.25227 0.37742 0.0
C46 C 0.82552 0.26866 0.17064 0.0
C47 C 0.87832 0.26493 0.17596 0.0
N48 N 0.82391 0.26072 0.20248 0.0
N49 N 0.8567 0.25726 0.20538 0.0
N50 N 0.85947 0.27279 0.15388 0.0
H51 H 0.76998 0.25921 0.1672 0.0
H52 H 0.79989 0.26636 0.12687 0.0
H53 H 0.78917 0.30275 0.16255 0.0
C54 C 0.7942 0.27438 0.15615 0.0
C55 C 0.73325 0.25825 0.37951 0.0
H56 H 0.75738 0.27389 0.36897 0.0
H57 H 0.73848 0.22988 0.37358 0.0
H58 H 0.72699 0.26624 0.40877 0.0
O59 O 0.77871 0.30981 0.32296 0.0
O60 O 0.82049 0.30401 0.27568 0.0
C61 C 0.7899 0.21472 0.28956 0.0
O62 O 0.76401 0.30772 0.22974 0.0
O63 O 0.72384 0.31551 0.27845 0.0
Zn64 Zn 0.80389 0.79538 0.252 0.0
O65 O 0.78889 0.80794 0.20783 0.0
C66 C 0.73912 0.82512 0.30148 0.0
Zn67 Zn 0.76021 0.75413 0.25724 0.0
C68 C 0.75926 0.79434 0.20057 0.0
O69 O 0.74183 0.77162 0.21775 0.0
C70 C 0.80423 0.755 0.30925 0.0
O71 O 0.7925 0.71605 0.21837 0.0
O72 O 0.83726 0.756 0.2186 0.0
N73 N 0.71826 0.71764 0.26121 0.0
C74 C 0.70596 0.69317 0.23602 0.0
C75 C 0.66942 0.69156 0.28466 0.0
N76 N 0.69564 0.71656 0.29146 0.0
N77 N 0.67557 0.67631 0.25013 0.0
C78 C 0.86286 0.85139 0.27084 0.0
C79 C 0.899 0.84817 0.22142 0.0
N80 N 0.84649 0.83071 0.24624 0.0
N81 N 0.86871 0.82919 0.21538 0.0
N82 N 0.89576 0.8626 0.25601 0.0
H83 H 0.85536 0.88459 0.32248 0.0
H84 H 0.8624 0.83954 0.32149 0.0
H85 H 0.82001 0.85049 0.31633 0.0
C86 C 0.84897 0.85676 0.31 0.0
C87 C 0.72219 0.68737 0.19721 0.0
H88 H 0.738 0.66386 0.1903 0.0
H89 H 0.73996 0.71012 0.18998 0.0
H90 H 0.70123 0.68226 0.18108 0.0
O91 O 0.77833 0.73753 0.29692 0.0
O92 O 0.81894 0.78193 0.29673 0.0
C93 C 0.82525 0.72454 0.20807 0.0
O94 O 0.76975 0.83496 0.28552 0.0
O95 O 0.72893 0.79232 0.29631 0.0
Zn96 Zn 0.28131 0.76694 0.27587 0.0
O97 O 0.25814 0.81039 0.31494 0.0
C98 C 0.21799 0.71574 0.29744 0.0
Zn99 Zn 0.24357 0.7627 0.2408 0.0
C100 C 0.23099 0.82086 0.30769 0.0
O101 O 0.22079 0.80564 0.27931 0.0
C102 C 0.29348 0.70862 0.20945 0.0
O103 O 0.2778 0.80095 0.21147 0.0
O104 O 0.31649 0.80473 0.24541 0.0
N105 N 0.20383 0.76391 0.21546 0.0
C106 C 0.20042 0.75757 0.1814 0.0
C107 C 0.14965 0.76837 0.21334 0.0
N108 N 0.1724 0.77108 0.2352 0.0
N109 N 0.16617 0.75978 0.17919 0.0
C110 C 0.34601 0.7829 0.3123 0.0
C111 C 0.34788 0.73355 0.32758 0.0
N112 N 0.31833 0.76178 0.30292 0.0
N113 N 0.31956 0.73107 0.31223 0.0
N114 N 0.36524 0.76557 0.32717 0.0
H115 H 0.32814 0.8319 0.30716 0.0
H116 H 0.37303 0.82311 0.2847 0.0
H117 H 0.36313 0.83681 0.33196 0.0
C118 C 0.35279 0.82096 0.30891 0.0
C119 C 0.23137 0.75174 0.15112 0.0
H120 H 0.25609 0.7649 0.15914 0.0
H121 H 0.22705 0.76228 0.1284 0.0
H122 H 0.2352 0.723 0.14296 0.0
O123 O 0.26692 0.71964 0.20177 0.0
O124 O 0.30359 0.72362 0.23793 0.0
C125 C 0.30754 0.81411 0.21942 0.0
O126 O 0.24703 0.73029 0.30557 0.0
O127 O 0.20906 0.72375 0.27082 0.0
Zn128 Zn 0.29393 0.76087 0.73955 0.0
O129 O 0.25825 0.72402 0.70898 0.0
C130 C 0.25306 0.82271 0.73701 0.0
Zn131 Zn 0.25082 0.77455 0.78526 0.0
C132 C 0.22537 0.7196 0.7225 0.0
O133 O 0.21501 0.73622 0.75418 0.0
C134 C 0.31879 0.81535 0.80254 0.0
O135 O 0.26763 0.73298 0.80533 0.0
O136 O 0.30884 0.71863 0.75825 0.0
N137 N 0.20911 0.78287 0.82594 0.0
C138 C 0.20329 0.77386 0.85781 0.0
C139 C 0.1531 0.77846 0.84648 0.0
N140 N 0.17789 0.78709 0.81946 0.0
N141 N 0.16825 0.76898 0.8706 0.0
C142 C 0.33864 0.76488 0.66727 0.0
C143 C 0.39019 0.76755 0.67832 0.0
N144 N 0.33527 0.75405 0.6981 0.0
N145 N 0.36756 0.75444 0.70432 0.0
N146 N 0.37262 0.77535 0.65513 0.0
H147 H 0.28348 0.75514 0.66161 0.0
H148 H 0.31549 0.75717 0.62134 0.0
H149 H 0.30468 0.79686 0.65212 0.0
C150 C 0.30855 0.7686 0.65002 0.0
C151 C 0.23155 0.76632 0.87541 0.0
H152 H 0.23409 0.73742 0.87048 0.0
H153 H 0.22383 0.77531 0.90448 0.0
H154 H 0.25744 0.77983 0.86559 0.0
O155 O 0.28561 0.81229 0.8153 0.0
O156 O 0.32968 0.79762 0.77147 0.0
C157 C 0.29341 0.7144 0.78907 0.0
O158 O 0.27932 0.80482 0.72099 0.0
O159 O 0.23543 0.81554 0.76595 0.0
Zn160 Zn 0.29748 0.28758 0.74895 0.0
O161 O 0.27944 0.30074 0.70761 0.0
C162 C 0.23775 0.32299 0.80369 0.0
Zn163 Zn 0.25255 0.24927 0.76361 0.0
C164 C 0.24907 0.28658 0.70338 0.0
O165 O 0.23323 0.26501 0.72282 0.0
C166 C 0.30133 0.25038 0.80922 0.0
O167 O 0.2815 0.20737 0.72658 0.0
O168 O 0.32559 0.24596 0.71262 0.0
N169 N 0.20741 0.21675 0.77162 0.0
C170 C 0.19187 0.19432 0.74727 0.0
C171 C 0.15238 0.20513 0.79414 0.0
N172 N 0.18293 0.22316 0.80091 0.0
N173 N 0.15744 0.18674 0.76068 0.0
C174 C 0.35563 0.34613 0.76392 0.0
C175 C 0.39235 0.34111 0.71465 0.0
N176 N 0.34133 0.3211 0.74061 0.0
N177 N 0.36404 0.31808 0.70993 0.0
N178 N 0.3873 0.3593 0.7482 0.0
H179 H 0.3289 0.38174 0.80841 0.0
H180 H 0.36161 0.35832 0.81848 0.0
H181 H 0.3195 0.33613 0.81207 0.0
C182 C 0.34041 0.35573 0.80286 0.0
C183 C 0.21001 0.18052 0.70988 0.0
H184 H 0.23028 0.16269 0.71037 0.0
H185 H 0.22369 0.20234 0.69691 0.0
H186 H 0.19119 0.16512 0.69369 0.0
O187 O 0.27161 0.23489 0.80402 0.0
O188 O 0.31633 0.27308 0.79072 0.0
C189 C 0.31231 0.21414 0.70895 0.0
O190 O 0.26776 0.32985 0.78471 0.0
O191 O 0.22522 0.29096 0.80122 0.0
Zn192 Zn 0.78658 0.27016 0.78236 0.0
O193 O 0.76197 0.31292 0.82025 0.0
C194 C 0.72404 0.21839 0.8047 0.0
Zn195 Zn 0.74941 0.26474 0.74666 0.0
C196 C 0.73548 0.32363 0.81211 0.0
O197 O 0.72568 0.3085 0.78347 0.0
C198 C 0.8009 0.21092 0.71722 0.0
O199 O 0.78247 0.30227 0.71624 0.0
O200 O 0.82013 0.30918 0.75148 0.0
N201 N 0.71051 0.26331 0.71982 0.0
C202 C 0.70907 0.25619 0.68522 0.0
C203 C 0.65668 0.26443 0.71445 0.0
N204 N 0.67808 0.2689 0.73791 0.0
N205 N 0.67522 0.25635 0.68103 0.0
C206 C 0.82969 0.27475 0.84178 0.0
C207 C 0.88026 0.26429 0.80912 0.0
N208 N 0.82621 0.27048 0.80788 0.0
N209 N 0.85755 0.26367 0.78771 0.0
N210 N 0.86372 0.27101 0.84336 0.0
H211 H 0.77429 0.26738 0.86517 0.0
H212 H 0.79542 0.30931 0.8807 0.0
H213 H 0.80423 0.27034 0.89522 0.0
C214 C 0.79924 0.28057 0.87258 0.0
C215 C 0.7412 0.25101 0.6561 0.0
H216 H 0.76473 0.26679 0.66417 0.0
H217 H 0.73674 0.2588 0.63195 0.0
H218 H 0.74732 0.22283 0.65002 0.0
O219 O 0.77394 0.22074 0.70913 0.0
O220 O 0.81065 0.22718 0.74543 0.0
C221 C 0.81137 0.31714 0.7247 0.0
O222 O 0.75356 0.23215 0.81262 0.0
O223 O 0.7153 0.22686 0.77817 0.0
Zn224 Zn 0.77365 0.77966 0.7684 0.0
O225 O 0.79299 0.75908 0.80592 0.0
C226 C 0.80381 0.7195 0.71458 0.0
Zn227 Zn 0.73249 0.73555 0.76085 0.0
C228 C 0.77832 0.72972 0.81316 0.0
O229 O 0.75154 0.7159 0.79988 0.0
C230 C 0.72844 0.78458 0.71553 0.0
O231 O 0.69287 0.76487 0.79884 0.0
O232 O 0.73429 0.80738 0.80878 0.0
N233 N 0.69909 0.69141 0.75371 0.0
C234 C 0.68073 0.67251 0.77745 0.0
C235 C 0.68111 0.64027 0.7263 0.0
N236 N 0.69904 0.67151 0.72187 0.0
N237 N 0.66925 0.64055 0.76098 0.0
C238 C 0.82201 0.84441 0.75083 0.0
C239 C 0.8298 0.87344 0.80134 0.0
N240 N 0.80721 0.82414 0.77468 0.0
N241 N 0.81215 0.84211 0.80609 0.0
N242 N 0.83564 0.8756 0.76694 0.0
H243 H 0.84995 0.84366 0.69722 0.0
H244 H 0.80281 0.84515 0.70385 0.0
H245 H 0.82123 0.80445 0.70317 0.0
C246 C 0.82416 0.83352 0.71156 0.0
C247 C 0.67653 0.68359 0.81688 0.0
H248 H 0.68499 0.7118 0.82503 0.0
H249 H 0.69236 0.66711 0.8267 0.0
H250 H 0.64836 0.67862 0.82944 0.0
O251 O 0.71424 0.75494 0.72218 0.0
O252 O 0.75374 0.79962 0.73039 0.0
C253 C 0.70195 0.79558 0.81486 0.0
O254 O 0.81284 0.75105 0.72852 0.0
O255 O 0.77196 0.70717 0.72271 0.0
Co256 Co 0.06296 0.96932 0.55159 0.0
N257 N 0.08175 0.9589 0.58828 0.0
C258 C 0.06299 0.93766 0.60993 0.0
N259 N 0.11686 0.94444 0.62119 0.0
C260 C 0.11482 0.96274 0.59599 0.0
C261 C 0.08421 0.929 0.63001 0.0
Co262 Co 0.95583 0.04225 0.4809 0.0
N263 N 0.93149 0.04485 0.44523 0.0
N264 N 0.9048 0.06545 0.40864 0.0
C265 C 0.89271 0.03155 0.40931 0.0
C266 C 0.90868 0.01919 0.43176 0.0
C267 C 0.92852 0.07288 0.43073 0.0
Co268 Co 1.01201 1.00924 0.51632 0.0
C269 C 0.94072 0.04069 0.53275 0.0
H270 H 0.9026 0.99341 0.43886 0.0
O271 O 0.04913 0.97692 0.51516 0.0
O272 O 0.04123 0.02567 0.47332 0.0
O273 O 0.03368 0.04873 0.54847 0.0
O274 O 0.98099 0.99376 0.55842 0.0
O275 O 0.01738 0.96659 0.57922 0.0
O276 O 1.00019 0.04579 0.45045 0.0
O277 O 0.97425 0.04099 0.51716 0.0
O278 O 0.95405 0.99286 0.46544 0.0
O279 O 0.06719 0.01848 0.57045 0.0
O280 O 0.10436 0.9726 0.52145 0.0
O281 O 0.99251 0.96837 0.48528 0.0
O282 O 0.91683 0.03855 0.5134 0.0
C283 C 0.05533 0.04722 0.56844 0.0
C284 C 0.94933 0.10767 0.43874 0.0
H285 H 0.97435 0.10394 0.44647 0.0
H286 H 0.95533 0.12085 0.41553 0.0
H287 H 0.93358 0.12506 0.46141 0.0
C288 C 0.03199 0.03901 0.44968 0.0
C289 C 0.98719 0.97702 0.58062 0.0
H290 H 0.03611 0.92658 0.60947 0.0
H291 H 0.15766 0.96464 0.55195 0.0
H292 H 0.16676 0.99044 0.59313 0.0
H293 H 0.13763 1.00607 0.57026 0.0
C294 C 0.14603 0.98228 0.57685 0.0
C295 C 0.08296 0.97602 0.50121 0.0
C296 C 0.96902 0.96614 0.46702 0.0
H297 H 0.07699 0.91037 0.64776 0.0
H298 H 0.87235 0.01708 0.39571 0.0
Co299 Co 0.56537 0.97368 0.04753 0.0
N300 N 0.57927 0.95685 0.08221 0.0
C301 C 0.5629 0.95805 0.1162 0.0
N302 N 0.61183 0.93071 0.10872 0.0
C303 C 0.60913 0.94048 0.07843 0.0
C304 C 0.5828 0.94193 0.13249 0.0
Co305 Co 0.46606 0.06383 0.98354 0.0
N306 N 0.44936 0.07986 0.94892 0.0
N307 N 0.43077 0.11159 0.91554 0.0
C308 C 0.41561 0.0785 0.9094 0.0
C309 C 0.42654 0.0594 0.93013 0.0
C310 C 0.4511 0.11195 0.93968 0.0
Co311 Co 0.51624 0.01926 0.01579 0.0
C312 C 0.47551 0.08606 0.03272 0.0
H313 H 0.41655 0.03271 0.93282 0.0
O314 O 0.55363 0.98593 0.0113 0.0
O315 O 0.55071 0.04402 0.97848 0.0
O316 O 0.53811 0.05507 0.05511 0.0
O317 O 0.48104 0.99473 0.05282 0.0
O318 O 0.51733 0.96384 0.0691 0.0
O319 O 0.51433 0.07494 0.96143 0.0
O320 O 0.47889 0.05229 0.01971 0.0
O321 O 0.46603 0.01779 0.95594 0.0
O322 O 0.56757 0.01945 0.07462 0.0
O323 O 0.56302 0.93225 0.019 0.0
O324 O 0.49498 0.98315 0.97686 0.0
O325 O 0.46663 0.10516 0.01293 0.0
C326 C 0.55818 0.05015 0.07601 0.0
C327 C 0.47174 0.14434 0.95535 0.0
H328 H 0.49605 0.13715 0.96173 0.0
H329 H 0.47898 0.16315 0.93686 0.0
H330 H 0.45523 0.15773 0.98021 0.0
C331 C 0.54553 0.0666 0.96043 0.0
C332 C 0.48617 0.97191 0.07047 0.0
H333 H 0.53812 0.96984 0.12838 0.0
H334 H 0.63129 0.91052 0.02787 0.0
H335 H 0.66362 0.93764 0.05078 0.0
H336 H 0.63521 0.95749 0.0302 0.0
C337 C 0.63663 0.93645 0.04498 0.0
C338 C 0.55532 0.95179 0.99895 0.0
C339 C 0.4758 0.98744 0.95511 0.0
H340 H 0.57614 0.93823 0.15965 0.0
H341 H 0.39601 0.0695 0.89289 0.0
Co342 Co 0.07745 0.4892 0.04311 0.0
N343 N 0.09621 0.4848 0.08144 0.0
C344 C 0.08696 0.50015 0.11577 0.0
N345 N 0.12278 0.45873 0.11409 0.0
C346 C 0.11811 0.45981 0.0811 0.0
C347 C 0.10338 0.48444 0.13574 0.0
Co348 Co 0.95998 0.53271 0.96226 0.0
N349 N 0.94092 0.53868 0.92398 0.0
N350 N 0.91178 0.56284 0.89194 0.0
C351 C 0.90484 0.52751 0.88512 0.0
C352 C 0.92251 0.51283 0.90486 0.0
C353 C 0.93422 0.56898 0.91503 0.0
Co354 Co 0.02015 0.51291 1.00274 0.0
C355 C 0.96296 0.56363 0.01082 0.0
H356 H 0.91983 0.48527 0.90712 0.0
O357 O 0.06441 0.49133 1.0042 0.0
O358 O 0.04739 0.5381 0.96596 0.0
O359 O 0.02906 0.55487 0.03789 0.0
O360 O 0.99248 0.48787 0.0394 0.0
O361 O 0.03284 0.47175 0.06495 0.0
O362 O 1.00481 0.55304 0.94245 0.0
O363 O 0.97496 0.532 1.0013 0.0
O364 O 0.97309 0.48623 0.93855 0.0
O365 O 0.06744 0.53739 0.06446 0.0
O366 O 0.11805 0.505 0.01795 0.0
O367 O 1.01095 0.47101 0.96761 0.0
O368 O 0.94861 0.57458 0.98855 0.0
C369 C 0.04874 0.56077 0.06058 0.0
C370 C 0.94937 0.6054 0.92919 0.0
H371 H 0.97566 0.60459 0.93566 0.0
H372 H 0.95206 0.62275 0.90956 0.0
H373 H 0.93122 0.61739 0.95357 0.0
C374 C 0.03711 0.55428 0.9454 0.0
C375 C 1.00101 0.4719 0.0611 0.0
H376 H 0.06797 0.52004 0.12591 0.0
H377 H 0.11638 0.41212 0.04229 0.0
H378 H 0.1605 0.42817 0.04968 0.0
H379 H 0.13838 0.44935 0.02465 0.0
C380 C 0.13451 0.43612 0.04757 0.0
C381 C 0.09858 0.49822 0.99371 0.0
C382 C 0.99231 0.46395 0.94386 0.0
H383 H 0.0998 0.49031 0.16431 0.0
H384 H 0.88612 0.51359 0.86915 0.0
Co385 Co 0.54337 0.44684 0.04502 0.0
N386 N 0.5532 0.42642 0.0807 0.0
C387 C 0.53129 0.40154 0.09534 0.0
N388 N 0.57894 0.40782 0.11913 0.0
C389 C 0.58227 0.42976 0.09577 0.0
C390 C 0.54696 0.39011 0.11874 0.0
Co391 Co 0.48195 0.5667 0.98087 0.0
N392 N 0.47413 0.58553 0.94316 0.0
N393 N 0.44927 0.60882 0.90718 0.0
C394 C 0.47897 0.5942 0.88816 0.0
C395 C 0.49405 0.57991 0.91013 0.0
C396 C 0.44705 0.60361 0.94055 0.0
Co397 Co 0.51175 0.50714 0.01378 0.0
C398 C 0.45061 0.55219 0.0244 0.0
H399 H 0.51746 0.56514 0.90211 0.0
O400 O 0.53844 0.46483 0.00958 0.0
O401 O 0.55071 0.52352 0.97707 0.0
O402 O 0.53541 0.53556 0.052 0.0
O403 O 0.47264 0.49083 0.05044 0.0
O404 O 0.49545 0.44749 0.0666 0.0
O405 O 0.53114 0.57085 0.96439 0.0
O406 O 0.48496 0.54964 0.01775 0.0
O407 O 0.4801 0.52209 0.95125 0.0
O408 O 0.5511 0.49168 0.07272 0.0
O409 O 0.58777 0.44834 0.02086 0.0
O410 O 0.4887 0.47813 0.97564 0.0
O411 O 0.43632 0.55997 1.0002 0.0
C412 C 0.54805 0.52429 0.07459 0.0
C413 C 0.41872 0.61736 0.9713 0.0
H414 H 0.42942 0.62421 0.99607 0.0
H415 H 0.40805 0.64109 0.96692 0.0
H416 H 0.39661 0.5966 0.97428 0.0
C417 C 0.55533 0.55017 0.96184 0.0
C418 C 0.47001 0.4662 0.06806 0.0
H419 H 0.50586 0.39147 0.0886 0.0
H420 H 0.63086 0.43708 0.05936 0.0
H421 H 0.63322 0.45702 0.1041 0.0
H422 H 0.60979 0.47733 0.07975 0.0
C423 C 0.61579 0.4517 0.08444 0.0
C424 C 0.57244 0.46055 1.00003 0.0
C425 C 0.48177 0.48949 0.95015 0.0
H426 H 0.5361 0.36959 0.1337 0.0
H427 H 0.48826 0.59267 0.85999 0.0
Co428 Co 0.06378 0.47063 0.54533 0.0
N429 N 0.07689 0.45293 0.57997 0.0
C430 C 0.0623 0.45864 0.61476 0.0
N431 N 0.10587 0.42409 0.60747 0.0
C432 C 0.10355 0.43207 0.57625 0.0
C433 C 0.08002 0.44093 0.63167 0.0
Co434 Co 0.97117 0.5701 0.48481 0.0
N435 N 0.955 0.58557 0.45031 0.0
N436 N 0.93316 0.62005 0.42205 0.0
C437 C 0.94645 0.59197 0.39827 0.0
C438 C 0.96005 0.5711 0.41554 0.0
C439 C 0.93886 0.61552 0.45357 0.0
Co440 Co 0.01669 0.51948 0.51492 0.0
C441 C 0.94891 0.5584 0.53274 0.0
H442 H 0.97367 0.54739 0.4033 0.0
O443 O 0.05201 0.48354 0.50938 0.0
O444 O 0.05212 0.54223 0.47631 0.0
O445 O 0.04158 0.55383 0.5529 0.0
O446 O 0.98072 0.49687 0.55318 0.0
O447 O 0.01608 0.46419 0.56833 0.0
O448 O 0.01735 0.575 0.45946 0.0
O449 O 0.98301 0.55685 0.52026 0.0
O450 O 0.96361 0.52279 0.46067 0.0
O451 O 0.06977 0.51665 0.57166 0.0
O452 O 0.0579 0.42913 0.51748 0.0
O453 O 0.99222 0.48499 0.47736 0.0
O454 O 0.92907 0.56517 0.51238 0.0
C455 C 0.06204 0.54796 0.57297 0.0
C456 C 0.93175 0.64169 0.48774 0.0
H457 H 0.95002 0.63889 0.50506 0.0
H458 H 0.93479 0.66916 0.48289 0.0
H459 H 0.9042 0.63628 0.50176 0.0
C460 C 0.04774 0.56459 0.45757 0.0
C461 C 0.98532 0.47375 0.57077 0.0
H462 H 0.04032 0.47482 0.62708 0.0
H463 H 0.11912 0.39552 0.52784 0.0
H464 H 0.15569 0.41963 0.54631 0.0
H465 H 0.12975 0.44122 0.52465 0.0
C466 C 0.12871 0.42166 0.54182 0.0
C467 C 0.05169 0.44927 0.4972 0.0
C468 C 0.97096 0.49126 0.45857 0.0
H469 H 0.07421 0.44024 0.65964 0.0
H470 H 0.94654 0.58697 0.37016 0.0
Co471 Co 0.57106 0.98294 0.54535 0.0
N472 N 0.58953 0.97823 0.58365 0.0
C473 C 0.58364 0.99664 0.61715 0.0
N474 N 0.61389 0.95143 0.61735 0.0
C475 C 0.60799 0.95089 0.58445 0.0
C476 C 0.59877 0.98046 0.63775 0.0
Co477 Co 0.46493 0.04356 0.46448 0.0
N478 N 0.445 0.04792 0.42719 0.0
N479 N 0.41529 0.07388 0.39745 0.0
C480 C 0.42607 0.04299 0.37695 0.0
C481 C 0.44427 0.02706 0.39527 0.0
C482 C 0.42752 0.07626 0.42768 0.0
Co483 Co 0.518 1.01262 0.50445 0.0
C484 C 0.44507 0.04121 0.51596 0.0
H485 H 0.45632 1.00209 0.38582 0.0
O486 O 0.55764 0.98434 0.50612 0.0
O487 O 0.54818 0.02799 0.46246 0.0
O488 O 0.53638 0.05487 0.53371 0.0
O489 O 0.48738 0.99669 0.54653 0.0
O490 O 0.52558 0.97512 0.57057 0.0
O491 O 0.51053 0.04855 0.43694 0.0
O492 O 0.47925 0.0418 0.50281 0.0
O493 O 0.46397 0.99364 0.44906 0.0
O494 O 0.56965 0.03311 0.56266 0.0
O495 O 0.61252 0.99073 0.51771 0.0
O496 O 0.49948 0.9704 0.47455 0.0
O497 O 0.42369 0.03902 0.49404 0.0
C498 C 0.5561 0.05886 0.55618 0.0
C499 C 0.42487 0.10751 0.45772 0.0
H500 H 0.44683 0.10887 0.47218 0.0
H501 H 0.42562 0.13248 0.44798 0.0
H502 H 0.39947 0.10442 0.47658 0.0
C503 C 0.54166 0.0418 0.43816 0.0
C504 C 0.49429 0.98146 0.56972 0.0
H505 H 0.56791 0.01931 0.62642 0.0
H506 H 0.59896 0.90101 0.55073 0.0
H507 H 0.64504 0.91304 0.55335 0.0
H508 H 0.62327 0.93371 0.52765 0.0
C509 C 0.61974 0.92323 0.55223 0.0
C510 C 0.59216 0.98732 0.49462 0.0
C511 C 0.47795 0.96729 0.45376 0.0
H512 H 0.5974 0.98862 0.666 0.0
H513 H 0.4209 0.03255 0.35062 0.0
C514 C 0.13409 0.09915 0.27513 0.0
C515 C 0.16543 0.11917 0.28087 0.0
C516 C 0.11615 0.07816 0.29934 0.0
C517 C 0.12984 0.07806 0.32991 0.0
C518 C 0.16362 0.09501 0.33338 0.0
C519 C 0.18125 0.11512 0.30845 0.0
C520 C 0.08104 0.05877 0.29397 0.0
C521 C 0.17936 0.09501 0.36528 0.0
C522 C 0.06023 0.08283 0.41354 0.0
C523 C 0.05915 0.04889 0.42068 0.0
C524 C 0.08367 0.09261 0.38438 0.0
C525 C 0.10597 0.06743 0.3613 0.0
C526 C 0.1053 0.03311 0.36869 0.0
C527 C 0.08185 0.02423 0.39859 0.0
C528 C 0.0843 0.1299 0.3782 0.0
C529 C 0.12798 1.00522 0.34453 0.0
H530 H 0.1225 0.10189 0.25321 0.0
H531 H 0.20611 0.13007 0.31199 0.0
H532 H 0.079 0.03204 0.30054 0.0
H533 H 0.05916 0.07357 0.31196 0.0
H534 H 0.07731 0.05603 0.26632 0.0
H535 H 0.2073 0.10634 0.3622 0.0
H536 H 0.16355 0.11097 0.38908 0.0
H537 H 0.17829 0.06768 0.3701 0.0
H538 H 0.04256 0.10177 0.43088 0.0
H539 H 0.08028 0.9977 0.40389 0.0
H540 H 0.076 0.12925 0.35281 0.0
H541 H 0.11166 0.14269 0.37626 0.0
H542 H 0.06644 0.14661 0.39968 0.0
H543 H 0.11331 0.99045 0.32396 0.0
H544 H 0.13371 0.98606 0.3595 0.0
H545 H 0.15346 0.01671 0.33101 0.0
C546 C 0.84357 0.18829 0.2958 0.0
C547 C 0.80664 0.19026 0.30443 0.0
C548 C 0.86067 0.16842 0.31239 0.0
C549 C 0.8403 0.14922 0.3376 0.0
C550 C 0.80285 0.15025 0.34563 0.0
C551 C 0.78654 0.17113 0.32929 0.0
C552 C 0.90065 0.16879 0.30366 0.0
C553 C 0.78 0.1294 0.37158 0.0
C554 C 0.88273 0.07337 0.35677 0.0
C555 C 0.89164 0.08786 0.38986 0.0
C556 C 0.86583 0.09286 0.33965 0.0
C557 C 0.85827 0.12819 0.35554 0.0
C558 C 0.86798 0.14338 0.38852 0.0
C559 C 0.88393 0.12285 0.40557 0.0
C560 C 0.85535 0.07534 0.3049 0.0
C561 C 0.861 0.18118 0.40609 0.0
H562 H 0.85935 0.20342 0.27699 0.0
H563 H 0.75803 0.1725 0.33599 0.0
H564 H 0.91153 0.17927 0.32801 0.0
H565 H 0.90896 0.14146 0.29344 0.0
H566 H 0.91265 0.18526 0.28364 0.0
H567 H 0.75127 0.13257 0.37447 0.0
H568 H 0.78462 0.10087 0.36275 0.0
H569 H 0.78735 0.13805 0.39794 0.0
H570 H 0.88847 0.04632 0.34453 0.0
H571 H 0.88922 0.13391 0.43168 0.0
H572 H 0.86845 0.09023 0.28392 0.0
H573 H 0.82629 0.07574 0.30729 0.0
H574 H 0.86257 0.04746 0.29636 0.0
H575 H 0.87272 0.19923 0.38754 0.0
H576 H 0.87212 0.18975 0.43055 0.0
H577 H 0.83201 0.1841 0.41301 0.0
C578 C 0.92977 0.90818 0.29027 0.0
C579 C 0.92408 0.87273 0.27481 0.0
C580 C 0.94617 0.91742 0.31963 0.0
C581 C 0.95611 0.89021 0.3339 0.0
C582 C 0.95413 0.85469 0.31571 0.0
C583 C 0.93831 0.8464 0.28594 0.0
C584 C 0.94863 0.95581 0.33788 0.0
C585 C 0.96411 0.82495 0.33013 0.0
C586 C 0.99772 0.92869 0.41263 0.0
C587 C 0.9671 0.93549 0.43863 0.0
C588 C 0.9952 0.91055 0.37847 0.0
C589 C 0.9613 0.89853 0.37088 0.0
C590 C 0.93089 0.90116 0.3985 0.0
C591 C 0.93409 0.9204 0.43209 0.0
C592 C 0.02811 0.90841 0.34977 0.0
C593 C 0.89436 0.88752 0.39166 0.0
H594 H 0.91827 0.92818 0.28156 0.0
H595 H 0.93318 0.81892 0.27392 0.0
H596 H 0.92727 0.96009 0.3618 0.0
H597 H 0.9744 0.96311 0.34654 0.0
H598 H 0.94557 0.97386 0.32042 0.0
H599 H 0.96954 0.80103 0.3091 0.0
H600 H 0.98768 0.83299 0.34257 0.0
H601 H 0.94173 0.8177 0.35077 0.0
H602 H 0.02312 0.94127 0.41767 0.0
H603 H 0.91053 0.92608 0.45231 0.0
H604 H 0.0281 0.92835 0.33331 0.0
H605 H 0.02864 0.88199 0.33212 0.0
H606 H 0.05266 0.91379 0.36092 0.0
H607 H 0.88464 0.90588 0.37828 0.0
H608 H 0.87508 0.88559 0.41662 0.0
H609 H 0.89507 0.86106 0.37407 0.0
C610 C 0.20905 0.8562 0.36858 0.0
C611 C 0.20983 0.84918 0.33208 0.0
C612 C 0.18591 0.8802 0.39193 0.0
C613 C 0.16353 0.89839 0.37849 0.0
C614 C 0.16496 0.89198 0.34147 0.0
C615 C 0.18792 0.86748 0.3189 0.0
C616 C 0.18455 0.88518 0.43122 0.0
C617 C 0.14282 0.91087 0.32499 0.0
C618 C 0.08244 0.93131 0.44635 0.0
C619 C 0.09613 0.96414 0.46287 0.0
C620 C 0.10317 0.91052 0.41706 0.0
C621 C 0.13825 0.92316 0.4036 0.0
C622 C 0.1503 0.95824 0.41736 0.0
C623 C 0.1294 0.97804 0.44727 0.0
C624 C 0.08873 0.8737 0.40274 0.0
C625 C 0.18633 0.97396 0.4022 0.0
H626 H 0.22556 0.84192 0.37904 0.0
H627 H 0.1885 0.86251 0.29066 0.0
H628 H 0.19215 0.91319 0.44202 0.0
H629 H 0.15705 0.87896 0.44495 0.0
H630 H 0.20252 0.8681 0.43757 0.0
H631 H 0.13419 0.89301 0.30181 0.0
H632 H 0.11899 0.92124 0.34375 0.0
H633 H 0.1594 0.93344 0.31524 0.0
H634 H 0.05707 0.92009 0.45869 0.0
H635 H 0.14028 1.00328 0.46011 0.0
H636 H 0.10311 0.85399 0.40998 0.0
H637 H 0.09305 0.8689 0.37344 0.0
H638 H 0.05991 0.86921 0.41335 0.0
H639 H 0.20703 0.96334 0.41189 0.0
H640 H 0.18844 1.00328 0.41015 0.0
H641 H 0.19187 0.9667 0.37286 0.0
C642 C 0.26195 0.86109 0.69127 0.0
C643 C 0.2407 0.84891 0.72056 0.0
C644 C 0.2484 0.8821 0.67281 0.0
C645 C 0.21269 0.89097 0.68388 0.0
C646 C 0.19177 0.88034 0.71461 0.0
C647 C 0.2061 0.85971 0.73267 0.0
C648 C 0.27196 0.8939 0.64092 0.0
C649 C 0.15339 0.88869 0.72716 0.0
C650 C 0.16639 0.95677 0.65334 0.0
C651 C 0.14769 0.93376 0.62994 0.0
C652 C 0.19057 0.94382 0.66888 0.0
C653 C 0.19528 0.90701 0.66126 0.0
C654 C 0.17838 0.88433 0.63547 0.0
C655 C 0.15492 0.89807 0.62008 0.0
C656 C 0.20897 0.96903 0.69534 0.0
C657 C 0.1825 0.84495 0.62644 0.0
H658 H 0.28892 0.85357 0.68227 0.0
H659 H 0.18946 0.85056 0.75534 0.0
H660 H 0.25901 0.88636 0.61761 0.0
H661 H 0.27644 0.92318 0.64635 0.0
H662 H 0.2981 0.88231 0.63406 0.0
H663 H 0.14145 0.8804 0.7527 0.0
H664 H 0.15094 0.91749 0.73043 0.0
H665 H 0.13776 0.87486 0.70703 0.0
H666 H 0.16047 0.98433 0.66106 0.0
H667 H 0.1402 0.88046 0.602 0.0
H668 H 0.23703 0.963 0.69162 0.0
H669 H 0.19569 0.96597 0.72252 0.0
H670 H 0.20817 0.99703 0.69315 0.0
H671 H 0.21096 0.83964 0.62021 0.0
H672 H 0.17024 0.83161 0.60356 0.0
H673 H 0.1697 0.83291 0.64962 0.0
C674 C 0.12299 0.19483 0.71826 0.0
C675 C 0.13043 0.17402 0.74046 0.0
C676 C 0.10412 0.18008 0.69139 0.0
C677 C 0.09254 0.14372 0.68693 0.0
C678 C 0.09688 0.12365 0.71176 0.0
C679 C 0.11614 0.1391 0.73823 0.0
C680 C 0.10027 0.20255 0.66568 0.0
C681 C 0.08436 0.08492 0.70822 0.0
C682 C 0.03843 0.09645 0.61877 0.0
C683 C 0.06492 0.07884 0.5932 0.0
C684 C 0.04703 0.11944 0.64897 0.0
C685 C 0.08288 0.12497 0.653 0.0
C686 C 0.10989 0.10957 0.62553 0.0
C687 C 0.10048 0.0863 0.59612 0.0
C688 C 0.01766 0.13566 0.67759 0.0
C689 C 0.14857 0.11561 0.62831 0.0
H690 H 0.1344 0.22192 0.72026 0.0
H691 H 0.12221 0.12331 0.75555 0.0
H692 H 0.12395 0.20068 0.64396 0.0
H693 H 0.07643 0.19372 0.65381 0.0
H694 H 0.09864 0.23078 0.67885 0.0
H695 H 0.08435 0.07485 0.7326 0.0
H696 H 0.05722 0.08035 0.70237 0.0
H697 H 0.10222 0.06928 0.68585 0.0
H698 H 1.01086 0.09004 0.61659 0.0
H699 H 0.12077 0.07238 0.57624 0.0
H700 H 0.02412 0.16448 0.6858 0.0
H701 H 0.01497 0.12357 0.70123 0.0
H702 H 0.99174 0.13157 0.66891 0.0
H703 H 0.15613 0.14435 0.63524 0.0
H704 H 0.16634 0.10429 0.60329 0.0
H705 H 0.1531 0.10313 0.64971 0.0
C706 C 0.84346 0.1644 0.70917 0.0
C707 C 0.82181 0.18157 0.69448 0.0
C708 C 0.86546 0.13823 0.68817 0.0
C709 C 0.86626 0.12905 0.65131 0.0
C710 C 0.84418 0.14606 0.63636 0.0
C711 C 0.82198 0.1718 0.65814 0.0
C712 C 0.88721 0.12008 0.70579 0.0
C713 C 0.84458 0.1376 0.59709 0.0
C714 C 0.94461 0.08975 0.58383 0.0
C715 C 0.92942 0.0563 0.57065 0.0
C716 C 0.92533 0.11303 0.61205 0.0
C717 C 0.8904 0.10221 0.62795 0.0
C718 C 0.87722 0.06664 0.61801 0.0
C719 C 0.8966 0.04431 0.58905 0.0
C720 C 0.94097 0.15036 0.62232 0.0
C721 C 0.84126 0.05307 0.63578 0.0
H722 H 0.84321 0.17143 0.73734 0.0
H723 H 0.80556 0.18506 0.64655 0.0
H724 H 0.87339 0.09408 0.70965 0.0
H725 H 0.91387 0.11514 0.68928 0.0
H726 H 0.89047 0.13576 0.73213 0.0
H727 H 0.82661 0.1537 0.58942 0.0
H728 H 0.87193 0.14245 0.58227 0.0
H729 H 0.83639 0.10918 0.58883 0.0
H730 H 0.96982 0.0993 0.56953 0.0
H731 H 0.88476 0.01843 0.57896 0.0
H732 H 0.93692 0.1586 0.65152 0.0
H733 H 0.92727 0.16871 0.61243 0.0
H734 H 0.96982 0.15321 0.61111 0.0
H735 H 0.83698 0.06275 0.66483 0.0
H736 H 0.83813 0.02366 0.63034 0.0
H737 H 0.82034 0.06304 0.62581 0.0
C738 C 0.83369 0.91692 0.72842 0.0
C739 C 0.85121 0.90508 0.75095 0.0
C740 C 0.85218 0.93734 0.70411 0.0
C741 C 0.88871 0.94671 0.70326 0.0
C742 C 0.90487 0.9396 0.72986 0.0
C743 C 0.88589 0.91839 0.75337 0.0
C744 C 0.83379 0.94485 0.67661 0.0
C745 C 0.94336 0.95083 0.73083 0.0
C746 C 0.9506 0.93483 0.61439 0.0
C747 C 0.95879 0.96969 0.60965 0.0
C748 C 0.92657 0.92716 0.64416 0.0
C749 C 0.91151 0.95531 0.67042 0.0
C750 C 0.91943 0.99072 0.66545 0.0
C751 C 0.94265 0.99746 0.63456 0.0
C752 C 0.91805 0.8889 0.64785 0.0
C753 C 0.9042 0.02149 0.69277 0.0
H754 H 0.80627 0.9076 0.72784 0.0
H755 H 0.89902 0.9097 0.77143 0.0
H756 H 0.84103 0.97229 0.6722 0.0
H757 H 0.84248 0.92663 0.65109 0.0
H758 H 0.80446 0.94098 0.68427 0.0
H759 H 0.94975 0.94988 0.75677 0.0
H760 H 0.96035 0.93276 0.70991 0.0
H761 H 0.95008 0.97806 0.72554 0.0
H762 H 0.96338 0.91358 0.59487 0.0
H763 H 0.94956 0.02449 0.63073 0.0
H764 H 0.88891 0.88261 0.6527 0.0
H765 H 0.92787 0.88427 0.67085 0.0
H766 H 0.93024 0.87025 0.62391 0.0
H767 H 0.87691 0.02428 0.68967 0.0
H768 H 0.92019 0.04673 0.68957 0.0
H769 H 0.90272 0.01729 0.72004 0.0
C770 C 0.37135 0.2019 0.20778 0.0
C771 C 0.34257 0.2069 0.19331 0.0
C772 C 0.39791 0.17943 0.18827 0.0
C773 C 0.39654 0.16285 0.15284 0.0
C774 C 0.36752 0.16816 0.13813 0.0
C775 C 0.34055 0.18944 0.1588 0.0
C776 C 0.42725 0.17334 0.20566 0.0
C777 C 0.36519 0.15177 0.10027 0.0
C778 C 0.47642 0.13816 0.08069 0.0
C779 C 0.46908 0.10147 0.07105 0.0
C780 C 0.45486 0.15847 0.10952 0.0
C781 C 0.426 0.14149 0.13007 0.0
C782 C 0.42241 0.10391 0.12404 0.0
C783 C 0.4439 0.08424 0.09435 0.0
C784 C 0.46009 0.19832 0.11463 0.0
C785 C 0.39336 0.08448 0.14645 0.0
H786 H 0.37253 0.21477 0.2348 0.0
H787 H 0.31818 0.19306 0.14771 0.0
H788 H 0.4313 0.14467 0.20073 0.0
H789 H 0.4525 0.18689 0.19416 0.0
H790 H 0.42154 0.18349 0.2347 0.0
H791 H 0.34159 0.15935 0.0925 0.0
H792 H 0.38935 0.16014 0.08213 0.0
H793 H 0.36387 0.1225 0.09651 0.0
H794 H 0.49598 0.15158 0.06279 0.0
H795 H 0.43796 0.05592 0.08717 0.0
H796 H 0.4572 0.21058 0.14306 0.0
H797 H 0.43944 0.20825 0.10423 0.0
H798 H 0.48655 0.20725 0.10049 0.0
H799 H 0.38917 0.0981 0.17461 0.0
H800 H 0.39949 0.05675 0.1446 0.0
H801 H 0.36815 0.08376 0.13709 0.0
C802 C 0.90103 0.29442 0.10544 0.0
C803 C 0.87254 0.29992 0.13395 0.0
C804 C 0.91898 0.32309 0.09097 0.0
C805 C 0.90816 0.35766 0.106 0.0
C806 C 0.87813 0.36297 0.13346 0.0
C807 C 0.86096 0.33404 0.14737 0.0
C808 C 0.95089 0.31669 0.06143 0.0
C809 C 0.86596 0.39948 0.1503 0.0
C810 C 0.97998 0.43208 0.1042 0.0
C811 C 0.97412 0.44688 0.07669 0.0
C812 C 0.95826 0.40315 0.11432 0.0
C813 C 0.93047 0.3887 0.09611 0.0
C814 C 0.92361 0.40428 0.06921 0.0
C815 C 0.94537 0.4335 0.06001 0.0
C816 C 0.96565 0.38745 0.14379 0.0
C817 C 0.89418 0.38931 0.04932 0.0
H818 H 0.91021 0.26807 0.09579 0.0
H819 H 0.84008 0.33857 0.17063 0.0
H820 H 0.95096 0.33264 0.04116 0.0
H821 H 0.97542 0.32504 0.07227 0.0
H822 H 0.95176 0.28831 0.04848 0.0
H823 H 0.83938 0.39837 0.16781 0.0
H824 H 0.88521 0.41417 0.16638 0.0
H825 H 0.86489 0.41481 0.12983 0.0
H826 H 1.00222 0.4424 0.11703 0.0
H827 H 0.94099 0.44455 0.03835 0.0
H828 H 0.97261 0.35968 0.13347 0.0
H829 H 0.94154 0.38697 0.16485 0.0
H830 H 0.98771 0.40252 0.15581 0.0
H831 H 0.89903 0.36175 0.03539 0.0
H832 H 0.89195 0.40515 0.02957 0.0
H833 H 0.8684 0.38829 0.06806 0.0
C834 C 0.70653 0.79945 0.17578 0.0
C835 C 0.74257 0.80846 0.17649 0.0
C836 C 0.68795 0.81798 0.15948 0.0
C837 C 0.70607 0.84566 0.14283 0.0
C838 C 0.74312 0.8527 0.14061 0.0
C839 C 0.76095 0.83419 0.15779 0.0
C840 C 0.64837 0.80982 0.1627 0.0
C841 C 0.76346 0.88128 0.12206 0.0
C842 C 0.65207 0.88214 0.09058 0.0
C843 C 0.63859 0.91149 0.11533 0.0
C844 C 0.6759 0.86157 0.09825 0.0
C845 C 0.68533 0.86986 0.13195 0.0
C846 C 0.67227 0.89983 0.15681 0.0
C847 C 0.64929 0.92041 0.14804 0.0
C848 C 0.68974 0.83016 0.07088 0.0
C849 C 0.68126 0.90926 0.1933 0.0
H850 H 0.69216 0.77941 0.18994 0.0
H851 H 0.78891 0.84098 0.15789 0.0
H852 H 0.63436 0.83231 0.18049 0.0
H853 H 0.64078 0.80654 0.13657 0.0
H854 H 0.63893 0.78545 0.17357 0.0
H855 H 0.7926 0.87948 0.11758 0.0
H856 H 0.75572 0.87966 0.09621 0.0
H857 H 0.75703 0.90764 0.1384 0.0
H858 H 0.64298 0.87438 0.06575 0.0
H859 H 0.63891 0.94314 0.16712 0.0
H860 H 0.67665 0.80534 0.07891 0.0
H861 H 0.71869 0.82933 0.06887 0.0
H862 H 0.6846 0.83073 0.04434 0.0
H863 H 0.67094 0.88752 0.20792 0.0
H864 H 0.66986 0.93411 0.20903 0.0
H865 H 0.71044 0.9124 0.19127 0.0
C866 C 0.11065 0.75218 0.15681 0.0
C867 C 0.14686 0.7461 0.15097 0.0
C868 C 0.08722 0.72855 0.13901 0.0
C869 C 0.10085 0.69954 0.11345 0.0
C870 C 0.13791 0.6977 0.10224 0.0
C871 C 0.16048 0.72038 0.12177 0.0
C872 C 0.04782 0.73193 0.15122 0.0
C873 C 0.15356 0.66842 0.07307 0.0
C874 C 0.06508 0.60535 0.11107 0.0
C875 C 0.05397 0.59757 0.07871 0.0
C876 C 0.07655 0.64 0.12492 0.0
C877 C 0.07795 0.66695 0.10516 0.0
C878 C 0.06359 0.65982 0.07416 0.0
C879 C 0.05147 0.62509 0.06138 0.0
C880 C 0.09028 0.64699 0.15904 0.0
C881 C 0.06438 0.68765 0.05236 0.0
H882 H 0.09985 0.77285 0.17836 0.0
H883 H 0.18791 0.71493 0.1158 0.0
H884 H 0.03319 0.72149 0.12942 0.0
H885 H 0.0377 0.71636 0.17237 0.0
H886 H 0.04193 0.75994 0.16232 0.0
H887 H 0.1821 0.67484 0.06273 0.0
H888 H 0.15114 0.64362 0.08353 0.0
H889 H 0.13915 0.66338 0.05081 0.0
H890 H 0.06627 0.58416 0.12475 0.0
H891 H 0.04272 0.61915 0.03626 0.0
H892 H 0.08061 0.67186 0.17638 0.0
H893 H 0.11971 0.65008 0.15308 0.0
H894 H 0.08203 0.62499 0.17379 0.0
H895 H 0.06159 0.71445 0.06906 0.0
H896 H 0.04303 0.68158 0.03661 0.0
H897 H 0.09021 0.68813 0.03365 0.0
C898 C 0.38154 0.83728 0.8133 0.0
C899 C 0.34441 0.83832 0.82416 0.0
C900 C 0.40555 0.85805 0.83375 0.0
C901 C 0.39274 0.88131 0.86609 0.0
C902 C 0.3553 0.88233 0.87721 0.0
C903 C 0.3319 0.86092 0.85653 0.0
C904 C 0.44488 0.8552 0.82054 0.0
C905 C 0.33976 0.9067 0.9109 0.0
C906 C 0.45096 0.92282 0.93651 0.0
C907 C 0.46066 0.95717 0.92947 0.0
C908 C 0.43016 0.8975 0.91558 0.0
C909 C 0.41813 0.9064 0.88688 0.0
C910 C 0.42933 0.94045 0.87889 0.0
C911 C 0.45042 0.96479 0.8997 0.0
C912 C 0.41995 0.86153 0.92506 0.0
C913 C 0.41773 0.95199 0.84906 0.0
H914 H 0.392 0.81992 0.78871 0.0
H915 H 0.30353 0.86223 0.8657 0.0
H916 H 0.45755 0.88084 0.81423 0.0
H917 H 0.45716 0.84932 0.84148 0.0
H918 H 0.45084 0.83426 0.79648 0.0
H919 H 0.3103 0.90404 0.91666 0.0
H920 H 0.34943 0.90103 0.93355 0.0
H921 H 0.34869 0.93459 0.90889 0.0
H922 H 0.45822 0.91618 0.95929 0.0
H923 H 0.45799 0.99076 0.89318 0.0
H924 H 0.42511 0.84045 0.90106 0.0
H925 H 0.39111 0.85924 0.93625 0.0
H926 H 0.43463 0.85682 0.94479 0.0
H927 H 0.42564 0.93307 0.82388 0.0
H928 H 0.42922 0.97891 0.84548 0.0
H929 H 0.38838 0.95198 0.85443 0.0
C930 C 0.21423 0.38345 0.81725 0.0
C931 C 0.21719 0.35182 0.82805 0.0
C932 C 0.19341 0.41017 0.83961 0.0
C933 C 0.17638 0.40596 0.8743 0.0
C934 C 0.17981 0.37417 0.88539 0.0
C935 C 0.19943 0.34729 0.86193 0.0
C936 C 0.18929 0.4427 0.82596 0.0
C937 C 0.16323 0.36873 0.92237 0.0
C938 C 0.15472 0.48548 0.94922 0.0
C939 C 0.11736 0.48231 0.9572 0.0
C940 C 0.17423 0.46189 0.92143 0.0
C941 C 0.15621 0.43508 0.89973 0.0
C942 C 0.11866 0.43421 0.9051 0.0
C943 C 0.09976 0.45739 0.93397 0.0
C944 C 0.21406 0.46373 0.91752 0.0
C945 C 0.09811 0.40721 0.88189 0.0
H946 H 0.22742 0.38689 0.79088 0.0
H947 H 0.20161 0.32293 0.87043 0.0
H948 H 0.16072 0.44674 0.82933 0.0
H949 H 0.20148 0.46648 0.84146 0.0
H950 H 0.20182 0.4408 0.79757 0.0
H951 H 0.16956 0.34327 0.92743 0.0
H952 H 0.17269 0.39069 0.94211 0.0
H953 H 0.13399 0.36911 0.92668 0.0
H954 H 0.16893 0.50462 0.96664 0.0
H955 H 0.07119 0.45413 0.93955 0.0
H956 H 0.2273 0.46335 0.8896 0.0
H957 H 0.22158 0.44013 0.92526 0.0
H958 H 0.22438 0.48784 0.9343 0.0
H959 H 0.11162 0.40415 0.85371 0.0
H960 H 0.07062 0.41458 0.88444 0.0
H961 H 0.09654 0.38112 0.88968 0.0
C962 C 0.70829 0.18708 0.85782 0.0
C963 C 0.69994 0.19359 0.82669 0.0
C964 C 0.68564 0.16505 0.87932 0.0
C965 C 0.65333 0.14832 0.86997 0.0
C966 C 0.64504 0.15432 0.83826 0.0
C967 C 0.66806 0.17668 0.81735 0.0
C968 C 0.69609 0.16026 0.91268 0.0
C969 C 0.61132 0.13743 0.82657 0.0
C970 C 0.60335 0.07007 0.91369 0.0
C971 C 0.57594 0.08669 0.93933 0.0
C972 C 0.62869 0.08948 0.89126 0.0
C973 C 0.62724 0.12674 0.89437 0.0
C974 C 0.60021 0.14354 0.92103 0.0
C975 C 0.57534 0.12359 0.94276 0.0
C976 C 0.65656 0.06986 0.86352 0.0
C977 C 0.59714 0.18289 0.92643 0.0
H978 H 0.73254 0.1997 0.86583 0.0
H979 H 0.66086 0.18107 0.79359 0.0
H980 H 0.67617 0.17132 0.93604 0.0
H981 H 0.69641 0.13167 0.91267 0.0
H982 H 0.72259 0.17349 0.91574 0.0
H983 H 0.60935 0.14274 0.80047 0.0
H984 H 0.60985 0.10837 0.82488 0.0
H985 H 0.58804 0.14766 0.84644 0.0
H986 H 0.6043 0.04168 0.91026 0.0
H987 H 0.55507 0.13716 0.96282 0.0
H988 H 0.68337 0.08213 0.86652 0.0
H989 H 0.65301 0.07184 0.83682 0.0
H990 H 0.65533 0.04142 0.86502 0.0
H991 H 0.62238 0.1975 0.9319 0.0
H992 H 0.57528 0.19233 0.94863 0.0
H993 H 0.59231 0.18963 0.90194 0.0
C994 C 0.77912 0.67649 0.83972 0.0
C995 C 0.79557 0.70878 0.83163 0.0
C996 C 0.7973 0.65343 0.85161 0.0
C997 C 0.83308 0.66254 0.85507 0.0
C998 C 0.84943 0.69568 0.84825 0.0
C999 C 0.83045 0.71846 0.83682 0.0
C1000 C 0.77853 0.61864 0.85897 0.0
C1001 C 0.88751 0.70645 0.85157 0.0
C1002 C 0.87411 0.61337 0.909 0.0
C1003 C 0.89283 0.58828 0.88256 0.0
C1004 C 0.85467 0.63773 0.90049 0.0
C1005 C 0.85379 0.63693 0.8646 0.0
C1006 C 0.87247 0.61139 0.83779 0.0
C1007 C 0.89153 0.58718 0.84715 0.0
C1008 C 0.83464 0.66397 0.92993 0.0
C1009 C 0.87215 0.60952 0.79925 0.0
H1010 H 0.7523 0.6686 0.83569 0.0
H1011 H 0.84359 0.74316 0.83039 0.0
H1012 H 0.7887 0.59688 0.83713 0.0
H1013 H 0.78367 0.61305 0.88383 0.0
H1014 H 0.74941 0.61835 0.8611 0.0
H1015 H 0.89581 0.73381 0.84712 0.0
H1016 H 0.8914 0.70473 0.87823 0.0
H1017 H 0.9052 0.68796 0.83197 0.0
H1018 H 0.8741 0.6134 0.93648 0.0
H1019 H 0.90568 0.56747 0.82683 0.0
H1020 H 0.80588 0.65995 0.92939 0.0
H1021 H 0.84346 0.69137 0.92604 0.0
H1022 H 0.83841 0.66147 0.95644 0.0
H1023 H 0.84462 0.60327 0.79466 0.0
H1024 H 0.88912 0.58911 0.78153 0.0
H1025 H 0.8815 0.63558 0.79185 0.0
C1026 C 0.18479 0.31696 0.20292 0.0
C1027 C 0.22137 0.3131 0.19428 0.0
C1028 C 0.16968 0.34097 0.18924 0.0
C1029 C 0.19148 0.36061 0.16514 0.0
C1030 C 0.22836 0.35589 0.15541 0.0
C1031 C 0.243 0.33272 0.17072 0.0
C1032 C 0.1306 0.3463 0.2017 0.0
C1033 C 0.25235 0.37537 0.12896 0.0
C1034 C 0.14146 0.39828 0.10952 0.0
C1035 C 0.14158 0.43432 0.1255 0.0
C1036 C 0.15914 0.37447 0.12096 0.0
C1037 C 0.17557 0.38635 0.15062 0.0
C1038 C 0.17503 0.42245 0.16754 0.0
C1039 C 0.15854 0.44602 0.15448 0.0
C1040 C 0.15968 0.33642 0.10161 0.0
C1041 C 0.19089 0.43601 0.20015 0.0
H1042 H 0.16821 0.30243 0.22187 0.0
H1043 H 0.27131 0.32984 0.16421 0.0
H1044 H 0.1269 0.37451 0.21398 0.0
H1045 H 0.11689 0.33979 0.1789 0.0
H1046 H 0.11758 0.32972 0.22131 0.0
H1047 H 0.28017 0.3679 0.12335 0.0
H1048 H 0.2424 0.36964 0.10379 0.0
H1049 H 0.25216 0.40435 0.13897 0.0
H1050 H 0.12683 0.38827 0.08857 0.0
H1051 H 0.15847 0.47367 0.16726 0.0
H1052 H 0.14308 0.31903 0.11873 0.0
H1053 H 0.18711 0.32782 0.09529 0.0
H1054 H 0.14954 0.33239 0.07663 0.0
H1055 H 0.17713 0.42192 0.22158 0.0
H1056 H 0.18877 0.46491 0.20991 0.0
H1057 H 0.21925 0.43052 0.19453 0.0
C1058 C 0.12455 0.74159 0.914 0.0
C1059 C 0.1534 0.73888 0.88571 0.0
C1060 C 0.10713 0.71097 0.92525 0.0
C1061 C 0.11899 0.67741 0.90733 0.0
C1062 C 0.14871 0.67478 0.87935 0.0
C1063 C 0.16518 0.70553 0.86858 0.0
C1064 C 0.07528 0.71436 0.95516 0.0
C1065 C 0.16203 0.63946 0.85955 0.0
C1066 C 0.08997 0.59659 0.94797 0.0
C1067 C 0.06175 0.58171 0.93107 0.0
C1068 C 0.10858 0.62815 0.94088 0.0
C1069 C 0.09908 0.64466 0.91588 0.0
C1070 C 0.07176 0.62896 0.89752 0.0
C1071 C 0.05341 0.5975 0.90532 0.0
C1072 C 0.13784 0.6442 0.96065 0.0
C1073 C 0.06137 0.64582 0.8703 0.0
H1074 H 0.11517 0.76742 0.92646 0.0
H1075 H 0.18653 0.70346 0.8456 0.0
H1076 H 0.05093 0.70423 0.94453 0.0
H1077 H 0.07734 0.6981 0.97454 0.0
H1078 H 0.07229 0.74225 0.96915 0.0
H1079 H 0.18733 0.64243 0.84044 0.0
H1080 H 0.16621 0.62341 0.87833 0.0
H1081 H 0.14191 0.62439 0.84477 0.0
H1082 H 0.0963 0.5847 0.96822 0.0
H1083 H 0.03168 0.58594 0.89219 0.0
H1084 H 0.13311 0.67206 0.97356 0.0
H1085 H 0.16359 0.64454 0.94177 0.0
H1086 H 0.14006 0.62934 0.9812 0.0
H1087 H 0.05326 0.67293 0.88252 0.0
H1088 H 0.03917 0.63034 0.8588 0.0
H1089 H 0.08444 0.64831 0.84852 0.0
C1090 C 0.30657 0.21041 0.8496 0.0
C1091 C 0.32054 0.23911 0.83321 0.0
C1092 C 0.32716 0.19515 0.86691 0.0
C1093 C 0.36253 0.20901 0.86795 0.0
C1094 C 0.37583 0.23969 0.85392 0.0
C1095 C 0.35466 0.25438 0.83664 0.0
C1096 C 0.31184 0.16264 0.88191 0.0
C1097 C 0.41318 0.25559 0.85498 0.0
C1098 C 0.40546 0.16933 0.92726 0.0
C1099 C 0.42079 0.14053 0.90315 0.0
C1100 C 0.3884 0.19363 0.91589 0.0
C1101 C 0.38647 0.1886 0.87968 0.0
C1102 C 0.40403 0.16086 0.85499 0.0
C1103 C 0.42084 0.13707 0.86712 0.0
C1104 C 0.37021 0.22297 0.94297 0.0
C1105 C 0.40287 0.1547 0.81609 0.0
H1106 H 0.28013 0.19865 0.84736 0.0
H1107 H 0.36555 0.27685 0.82439 0.0
H1108 H 0.32553 0.13921 0.86576 0.0
H1109 H 0.31619 0.1656 0.90932 0.0
H1110 H 0.28295 0.15736 0.88215 0.0
H1111 H 0.41726 0.28262 0.84881 0.0
H1112 H 0.41963 0.25688 0.88134 0.0
H1113 H 0.43216 0.23856 0.83521 0.0
H1114 H 0.40473 0.17146 0.95524 0.0
H1115 H 0.43257 0.11457 0.84872 0.0
H1116 H 0.34116 0.21613 0.94803 0.0
H1117 H 0.37489 0.24818 0.93306 0.0
H1118 H 0.37942 0.22715 0.96846 0.0
H1119 H 0.3754 0.1459 0.81226 0.0
H1120 H 0.42076 0.13426 0.80002 0.0
H1121 H 0.41051 0.17965 0.80592 0.0
C1122 C 0.91791 0.27186 0.86601 0.0
C1123 C 0.88306 0.282 0.87171 0.0
C1124 C 0.94376 0.29425 0.88137 0.0
C1125 C 0.93357 0.32599 0.90461 0.0
C1126 C 0.89719 0.33169 0.91687 0.0
C1127 C 0.87231 0.3101 0.89952 0.0
C1128 C 0.98218 0.28658 0.86806 0.0
C1129 C 0.88503 0.36408 0.94383 0.0
C1130 C 0.98972 0.40072 0.94727 0.0
C1131 C 0.98732 0.42647 0.92767 0.0
C1132 C 0.97531 0.36609 0.93819 0.0
C1133 C 0.95929 0.35706 0.90828 0.0
C1134 C 0.9615 0.38158 0.88562 0.0
C1135 C 0.97489 0.41642 0.89605 0.0
C1136 C 0.97333 0.34083 0.96301 0.0
C1137 C 0.94617 0.37222 0.85238 0.0
H1138 H 0.92614 0.24925 0.84551 0.0
H1139 H 0.84577 0.31846 0.9051 0.0
H1140 H 0.99198 0.29625 0.8429 0.0
H1141 H 0.99918 0.29988 0.88708 0.0
H1142 H 0.98507 0.25761 0.86245 0.0
H1143 H 0.85669 0.36024 0.95654 0.0
H1144 H 0.90121 0.3706 0.9647 0.0
H1145 H 0.88802 0.38705 0.93047 0.0
H1146 H 0.99962 0.40832 0.97175 0.0
H1147 H 0.97373 0.43618 0.88061 0.0
H1148 H 0.97732 0.31341 0.94825 0.0
H1149 H 0.94658 0.34061 0.98016 0.0
H1150 H 0.99325 0.34886 0.98031 0.0
H1151 H 0.95324 0.34552 0.83741 0.0
H1152 H 0.95571 0.39169 0.83479 0.0
H1153 H 0.9168 0.37185 0.85959 0.0
C1154 C 0.67898 0.83688 0.87121 0.0
C1155 C 0.6748 0.81901 0.8374 0.0
C1156 C 0.65404 0.86026 0.89226 0.0
C1157 C 0.62499 0.86727 0.87855 0.0
C1158 C 0.62127 0.84994 0.84391 0.0
C1159 C 0.64588 0.82555 0.82402 0.0
C1160 C 0.65856 0.87713 0.92944 0.0
C1161 C 0.59204 0.85789 0.8274 0.0
C1162 C 0.54922 0.8992 0.95264 0.0
C1163 C 0.55967 0.9354 0.96096 0.0
C1164 C 0.56835 0.87682 0.92367 0.0
C1165 C 0.59787 0.89125 0.90164 0.0
C1166 C 0.60447 0.92862 0.90642 0.0
C1167 C 0.58542 0.95037 0.93632 0.0
C1168 C 0.55987 0.83732 0.91975 0.0
C1169 C 0.63415 0.94541 0.88226 0.0
H1170 H 0.70151 0.83205 0.88141 0.0
H1171 H 0.64316 0.81241 0.79746 0.0
H1172 H 0.66234 0.90632 0.93216 0.0
H1173 H 0.63429 0.8711 0.9487 0.0
H1174 H 0.68162 0.86777 0.93663 0.0
H1175 H 0.59005 0.83909 0.80223 0.0
H1176 H 0.56602 0.85707 0.84577 0.0
H1177 H 0.59743 0.88508 0.82177 0.0
H1178 H 0.52912 0.88758 0.97156 0.0
H1179 H 0.59365 0.97833 0.94247 0.0
H1180 H 0.58024 0.82568 0.92901 0.0
H1181 H 0.5605 0.82467 0.89165 0.0
H1182 H 0.53342 0.83066 0.93549 0.0
H1183 H 0.65976 0.94351 0.88988 0.0
H1184 H 0.63061 0.97384 0.88408 0.0
H1185 H 0.63578 0.93145 0.85437 0.0
C1186 C 0.88476 0.6989 0.18845 0.0
C1187 C 0.84948 0.69836 0.18436 0.0
C1188 C 0.90847 0.67515 0.16554 0.0
C1189 C 0.89724 0.65131 0.13665 0.0
C1190 C 0.86144 0.65046 0.13273 0.0
C1191 C 0.83788 0.67341 0.15702 0.0
C1192 C 0.94574 0.67628 0.17192 0.0
C1193 C 0.84834 0.62637 0.10189 0.0
C1194 C 0.96045 0.62272 0.04948 0.0
C1195 C 0.9591 0.5859 0.04689 0.0
C1196 C 0.94248 0.64471 0.07956 0.0
C1197 C 0.92328 0.62977 0.10849 0.0
C1198 C 0.92586 0.59333 0.10791 0.0
C1199 C 0.94342 0.57164 0.07689 0.0
C1200 C 0.94095 0.68325 0.0786 0.0
C1201 C 0.90778 0.57665 0.13896 0.0
H1202 H 0.89382 0.71783 0.20983 0.0
H1203 H 0.81072 0.6729 0.15367 0.0
H1204 H 0.95536 0.64933 0.16577 0.0
H1205 H 0.96394 0.69236 0.1545 0.0
H1206 H 0.94738 0.68848 0.19976 0.0
H1207 H 0.81984 0.62872 0.1026 0.0
H1208 H 0.86403 0.63286 0.07667 0.0
H1209 H 0.85214 0.59842 0.10179 0.0
H1210 H 0.9727 0.6339 0.02639 0.0
H1211 H 0.94206 0.54324 0.07513 0.0
H1212 H 0.94776 0.70042 0.1029 0.0
H1213 H 0.91353 0.68816 0.07754 0.0
H1214 H 0.95931 0.69126 0.05532 0.0
H1215 H 0.91116 0.5945 0.16426 0.0
H1216 H 0.91833 0.55083 0.1377 0.0
H1217 H 0.87893 0.57204 0.13906 0.0
C1218 C 0.32656 0.84257 0.1646 0.0
C1219 C 0.33151 0.8396 0.19828 0.0
C1220 C 0.34929 0.86532 0.14398 0.0
C1221 C 0.37777 0.88685 0.15714 0.0
C1222 C 0.38232 0.88461 0.19153 0.0
C1223 C 0.35969 0.86103 0.21126 0.0
C1224 C 0.34335 0.86548 0.10743 0.0
C1225 C 0.41153 0.90704 0.20751 0.0
C1226 C 0.46112 0.91565 0.09247 0.0
C1227 C 0.45624 0.95088 0.09119 0.0
C1228 C 0.43585 0.89485 0.11288 0.0
C1229 C 0.40435 0.90924 0.134 0.0
C1230 C 0.39896 0.94482 0.13282 0.0
C1231 C 0.42452 0.96493 0.11126 0.0
C1232 C 0.44314 0.85716 0.11186 0.0
C1233 C 0.36649 0.96204 0.15513 0.0
H1234 H 0.30522 0.82635 0.15382 0.0
H1235 H 0.36403 0.85956 0.23716 0.0
H1236 H 0.3402 0.89284 0.10485 0.0
H1237 H 0.36687 0.85605 0.08743 0.0
H1238 H 0.31955 0.84837 0.10121 0.0
H1239 H 0.40996 0.90483 0.23545 0.0
H1240 H 0.43771 0.8988 0.19197 0.0
H1241 H 0.41025 0.93524 0.20643 0.0
H1242 H 0.48515 0.90398 0.07713 0.0
H1243 H 0.42019 0.99201 0.11109 0.0
H1244 H 0.42061 0.83879 0.10437 0.0
H1245 H 0.44571 0.85407 0.13853 0.0
H1246 H 0.46779 0.84909 0.09283 0.0
H1247 H 0.34217 0.94629 0.14852 0.0
H1248 H 0.36566 0.98953 0.15138 0.0
H1249 H 0.366 0.96263 0.1835 0.0
C1250 C 0.65432 0.19572 0.22058 0.0
C1251 C 0.6913 0.19828 0.20768 0.0
C1252 C 0.63021 0.1751 0.20007 0.0
C1253 C 0.64276 0.15571 0.16542 0.0
C1254 C 0.68004 0.15841 0.15222 0.0
C1255 C 0.70348 0.17953 0.17311 0.0
C1256 C 0.59107 0.17386 0.21575 0.0
C1257 C 0.69542 0.1383 0.11598 0.0
C1258 C 0.58948 0.07041 0.12799 0.0
C1259 C 0.57469 0.07975 0.10158 0.0
C1260 C 0.61064 0.09465 0.14883 0.0
C1261 C 0.61764 0.13032 0.14434 0.0
C1262 C 0.60152 0.14068 0.11894 0.0
C1263 C 0.58055 0.1155 0.09792 0.0
C1264 C 0.62666 0.08144 0.175 0.0
C1265 C 0.60728 0.17829 0.1132 0.0
H1266 H 0.64401 0.21005 0.2469 0.0
H1267 H 0.7317 0.18106 0.16228 0.0
H1268 H 0.5761 0.18066 0.19728 0.0
H1269 H 0.58143 0.14662 0.21963 0.0
H1270 H 0.58495 0.19231 0.24162 0.0
H1271 H 0.72458 0.14392 0.10868 0.0
H1272 H 0.6897 0.10943 0.11514 0.0
H1273 H 0.68278 0.14518 0.09579 0.0
H1274 H 0.58541 0.04326 0.13187 0.0
H1275 H 0.56987 0.12359 0.0778 0.0
H1276 H 0.61905 0.09767 0.20185 0.0
H1277 H 0.65604 0.08418 0.16758 0.0
H1278 H 0.6182 0.05326 0.17618 0.0
H1279 H 0.6018 0.19704 0.13891 0.0
H1280 H 0.5902 0.18348 0.09575 0.0
H1281 H 0.63544 0.18377 0.10093 0.0
C1282 C 0.68134 0.59311 0.78752 0.0
C1283 C 0.65683 0.61088 0.77743 0.0
C1284 C 0.67047 0.5735 0.81449 0.0
C1285 C 0.63436 0.57192 0.83132 0.0
C1286 C 0.60904 0.58626 0.81799 0.0
C1287 C 0.62076 0.6059 0.79122 0.0
C1288 C 0.69796 0.55782 0.8275 0.0
C1289 C 0.57015 0.58478 0.8349 0.0
C1290 C 0.59046 0.52356 0.90454 0.0
C1291 C 0.58588 0.55222 0.93311 0.0
C1292 C 0.60893 0.52865 0.87109 0.0
C1293 C 0.62392 0.56288 0.86691 0.0
C1294 C 0.62323 0.59069 0.89689 0.0
C1295 C 0.60356 0.58514 0.92965 0.0
C1296 C 0.60879 0.49862 0.83973 0.0
C1297 C 0.63974 0.62744 0.89368 0.0
H1298 H 0.70934 0.59755 0.77672 0.0
H1299 H 0.6022 0.62015 0.78337 0.0
H1300 H 0.69931 0.57132 0.85503 0.0
H1301 H 0.69034 0.52943 0.82801 0.0
H1302 H 0.72477 0.56027 0.81068 0.0
H1303 H 0.55354 0.59171 0.8179 0.0
H1304 H 0.56074 0.55805 0.84047 0.0
H1305 H 0.56613 0.60389 0.86049 0.0
H1306 H 0.57625 0.49818 0.90734 0.0
H1307 H 0.5997 0.60719 0.95188 0.0
H1308 H 0.63573 0.49646 0.82311 0.0
H1309 H 0.59128 0.50405 0.82288 0.0
H1310 H 0.59916 0.47292 0.84792 0.0
H1311 H 0.64102 0.64448 0.91994 0.0
H1312 H 0.62375 0.64017 0.88019 0.0
H1313 H 0.66698 0.62621 0.87751 0.0
C1314 C 0.30952 0.70516 0.84435 0.0
C1315 C 0.30964 0.69334 0.80813 0.0
C1316 C 0.33004 0.68993 0.8619 0.0
C1317 C 0.35098 0.66179 0.84292 0.0
C1318 C 0.34983 0.64852 0.80673 0.0
C1319 C 0.32957 0.66477 0.78965 0.0
C1320 C 0.33097 0.70548 0.90024 0.0
C1321 C 0.37114 0.61807 0.78568 0.0
C1322 C 0.43519 0.65029 0.87358 0.0
C1323 C 0.42406 0.62325 0.89289 0.0
C1324 C 0.41156 0.66336 0.85762 0.0
C1325 C 0.37613 0.64826 0.86019 0.0
C1326 C 0.36487 0.62064 0.87949 0.0
C1327 C 0.38893 0.60867 0.89587 0.0
C1328 C 0.42454 0.69333 0.838 0.0
C1329 C 0.32764 0.60333 0.88229 0.0
H1330 H 0.29527 0.72795 0.85858 0.0
H1331 H 0.33 0.65569 0.7616 0.0
H1332 H 0.32598 0.68433 0.91611 0.0
H1333 H 0.35773 0.71846 0.90241 0.0
H1334 H 0.31109 0.7254 0.91198 0.0
H1335 H 0.36431 0.60829 0.75915 0.0
H1336 H 0.39984 0.62664 0.7821 0.0
H1337 H 0.36666 0.59582 0.80017 0.0
H1338 H 0.46248 0.66126 0.87117 0.0
H1339 H 0.38068 0.58719 0.91017 0.0
H1340 H 0.40759 0.71585 0.84916 0.0
H1341 H 0.42254 0.68458 0.80977 0.0
H1342 H 0.45249 0.70287 0.83942 0.0
H1343 H 0.30812 0.62338 0.89475 0.0
H1344 H 0.3231 0.58205 0.89804 0.0
H1345 H 0.32239 0.59181 0.85544 0.0
C1346 C 0.40322 0.4141 0.78649 0.0
C1347 C 0.41279 0.38138 0.7659 0.0
C1348 C 0.42124 0.43085 0.81337 0.0
C1349 C 0.44992 0.41458 0.81904 0.0
C1350 C 0.46219 0.38351 0.7956 0.0
C1351 C 0.44318 0.36703 0.76924 0.0
C1352 C 0.40754 0.46424 0.8376 0.0
C1353 C 0.49337 0.36608 0.80016 0.0
C1354 C 0.49695 0.47551 0.88517 0.0
C1355 C 0.47874 0.46547 0.91674 0.0
C1356 C 0.49008 0.45716 0.8525 0.0
C1357 C 0.46412 0.42839 0.85166 0.0
C1358 C 0.44769 0.41644 0.88334 0.0
C1359 C 0.4555 0.43511 0.91574 0.0
C1360 C 0.50896 0.46985 0.81919 0.0
C1361 C 0.41969 0.38587 0.88334 0.0
H1362 H 0.37964 0.42486 0.78349 0.0
H1363 H 0.45022 0.3415 0.75324 0.0
H1364 H 0.39652 0.45878 0.8645 0.0
H1365 H 0.42945 0.48521 0.83994 0.0
H1366 H 0.38644 0.47454 0.82813 0.0
H1367 H 0.50423 0.34731 0.77572 0.0
H1368 H 0.51484 0.38611 0.80736 0.0
H1369 H 0.48476 0.35107 0.82193 0.0
H1370 H 0.51564 0.49865 0.88619 0.0
H1371 H 0.44168 0.42748 0.94032 0.0
H1372 H 0.48949 0.47651 0.80505 0.0
H1373 H 0.52421 0.44838 0.80108 0.0
H1374 H 0.52741 0.49357 0.82474 0.0
H1375 H 0.39571 0.39354 0.87635 0.0
H1376 H 0.41193 0.37788 0.90954 0.0
H1377 H 0.42929 0.36264 0.86314 0.0
C1378 C 0.70123 0.37705 0.82228 0.0
C1379 C 0.71455 0.35198 0.83614 0.0
C1380 C 0.67853 0.40215 0.84424 0.0
C1381 C 0.66732 0.40098 0.88063 0.0
C1382 C 0.68115 0.37588 0.89476 0.0
C1383 C 0.70512 0.35218 0.87247 0.0
C1384 C 0.66618 0.42945 0.82827 0.0
C1385 C 0.66966 0.37319 0.93327 0.0
C1386 C 0.62701 0.4712 0.95653 0.0
C1387 C 0.59161 0.45748 0.96302 0.0
C1388 C 0.6514 0.45567 0.92691 0.0
C1389 C 0.64035 0.42485 0.90413 0.0
C1390 C 0.60369 0.41373 0.90822 0.0
C1391 C 0.57961 0.43061 0.93742 0.0
C1392 C 0.68968 0.47005 0.92225 0.0
C1393 C 0.59042 0.38128 0.88451 0.0
H1394 H 0.70862 0.37703 0.79414 0.0
H1395 H 0.71512 0.33258 0.88315 0.0
H1396 H 0.63853 0.42182 0.82455 0.0
H1397 H 0.66654 0.45576 0.84612 0.0
H1398 H 0.68295 0.43182 0.8021 0.0
H1399 H 0.68203 0.35161 0.93988 0.0
H1400 H 0.67688 0.39852 0.95031 0.0
H1401 H 0.64038 0.36826 0.93986 0.0
H1402 H 0.63637 0.49198 0.97634 0.0
H1403 H 0.55231 0.41972 0.94254 0.0
H1404 H 0.7016 0.46868 0.89381 0.0
H1405 H 0.70499 0.45385 0.933 0.0
H1406 H 0.69244 0.49793 0.93645 0.0
H1407 H 0.60217 0.38153 0.85635 0.0
H1408 H 0.56104 0.37914 0.88784 0.0
H1409 H 0.5986 0.35731 0.89101 0.0
C1410 C 0.68245 0.35147 0.24819 0.0
C1411 C 0.7183 0.34609 0.23363 0.0
C1412 C 0.66148 0.36594 0.23052 0.0
C1413 C 0.67674 0.37575 0.19763 0.0
C1414 C 0.71356 0.37301 0.18417 0.0
C1415 C 0.73389 0.35813 0.2023 0.0
C1416 C 0.62236 0.36824 0.24585 0.0
C1417 C 0.73106 0.38387 0.1496 0.0
C1418 C 0.61412 0.36583 0.13329 0.0
C1419 C 0.60495 0.40059 0.1375 0.0
C1420 C 0.63807 0.35763 0.1521 0.0
C1421 C 0.65333 0.38494 0.17574 0.0
C1422 C 0.64442 0.42026 0.17981 0.0
C1423 C 0.61992 0.42758 0.16097 0.0
C1424 C 0.64639 0.31954 0.14723 0.0
C1425 C 0.66015 0.45016 0.20458 0.0
H1426 H 0.67007 0.34234 0.2724 0.0
H1427 H 0.76172 0.35485 0.19129 0.0
H1428 H 0.61409 0.39478 0.24615 0.0
H1429 H 0.60688 0.34853 0.22901 0.0
H1430 H 0.61533 0.363 0.27322 0.0
H1431 H 0.76047 0.38471 0.14523 0.0
H1432 H 0.72211 0.36469 0.12742 0.0
H1433 H 0.72321 0.41028 0.14878 0.0
H1434 H 0.60225 0.34501 0.11533 0.0
H1435 H 0.612 0.4543 0.16493 0.0
H1436 H 0.63788 0.31034 0.17276 0.0
H1437 H 0.67542 0.31724 0.1389 0.0
H1438 H 0.63297 0.30161 0.1272 0.0
H1439 H 0.65042 0.44665 0.2323 0.0
H1440 H 0.65313 0.47644 0.20223 0.0
H1441 H 0.68947 0.44985 0.1991 0.0
C1442 C 0.61658 0.65864 0.23594 0.0
C1443 C 0.65212 0.65171 0.23167 0.0
C1444 C 0.59495 0.63826 0.21362 0.0
C1445 C 0.60959 0.61074 0.18643 0.0
C1446 C 0.64489 0.60236 0.18352 0.0
C1447 C 0.66559 0.62274 0.20659 0.0
C1448 C 0.55703 0.64707 0.21815 0.0
C1449 C 0.66137 0.57301 0.15497 0.0
C1450 C 0.55608 0.53764 0.13668 0.0
C1451 C 0.55933 0.54904 0.10459 0.0
C1452 C 0.57026 0.55862 0.16461 0.0
C1453 C 0.5888 0.59141 0.15994 0.0
C1454 C 0.59065 0.60386 0.12822 0.0
C1455 C 0.57544 0.58257 0.10091 0.0
C1456 C 0.56705 0.54476 0.19827 0.0
C1457 C 0.61065 0.63858 0.12227 0.0
H1458 H 0.60632 0.68104 0.2556 0.0
H1459 H 0.69285 0.61702 0.20418 0.0
H1460 H 0.55401 0.65821 0.19534 0.0
H1461 H 0.53887 0.62275 0.21862 0.0
H1462 H 0.54868 0.6666 0.24284 0.0
H1463 H 0.68903 0.5697 0.15674 0.0
H1464 H 0.64543 0.54754 0.15678 0.0
H1465 H 0.66154 0.57878 0.12853 0.0
H1466 H 0.54306 0.51182 0.13967 0.0
H1467 H 0.57787 0.59127 0.07606 0.0
H1468 H 0.56017 0.56597 0.22185 0.0
H1469 H 0.59288 0.53555 0.19919 0.0
H1470 H 0.54667 0.52219 0.20003 0.0
H1471 H 0.60147 0.66027 0.14461 0.0
H1472 H 0.60744 0.64561 0.09728 0.0
H1473 H 0.63932 0.63686 0.12115 0.0
C1474 C 0.33203 0.65869 0.20012 0.0
C1475 C 0.31377 0.6795 0.18571 0.0
C1476 C 0.3545 0.63333 0.17845 0.0
C1477 C 0.35921 0.62866 0.14114 0.0
C1478 C 0.34044 0.64943 0.12643 0.0
C1479 C 0.31753 0.67417 0.14889 0.0
C1480 C 0.37274 0.61186 0.19623 0.0
C1481 C 0.34586 0.64677 0.08689 0.0
C1482 C 0.44426 0.59481 0.08116 0.0
C1483 C 0.43134 0.5636 0.06105 0.0
C1484 C 0.42143 0.61546 0.10861 0.0
C1485 C 0.38507 0.60384 0.11716 0.0
C1486 C 0.37307 0.57005 0.0999 0.0
C1487 C 0.39604 0.55085 0.07125 0.0
C1488 C 0.4356 0.65111 0.1264 0.0
C1489 C 0.33545 0.55509 0.11025 0.0
H1490 H 0.32898 0.66243 0.22864 0.0
H1491 H 0.30384 0.69049 0.13762 0.0
H1492 H 0.35392 0.58971 0.20395 0.0
H1493 H 0.39704 0.60073 0.17903 0.0
H1494 H 0.37996 0.62815 0.22086 0.0
H1495 H 0.33065 0.66587 0.07972 0.0
H1496 H 0.37445 0.65184 0.0758 0.0
H1497 H 0.3375 0.61965 0.07412 0.0
H1498 H 0.47138 0.60508 0.07297 0.0
H1499 H 0.38589 0.52682 0.05563 0.0
H1500 H 0.43022 0.65298 0.15549 0.0
H1501 H 0.42182 0.67235 0.12095 0.0
H1502 H 0.4646 0.65606 0.11716 0.0
H1503 H 0.3267 0.56054 0.13948 0.0
H1504 H 0.33264 0.52605 0.10033 0.0
H1505 H 0.31749 0.56784 0.09896 0.0
C1506 C 0.32634 0.42336 0.23302 0.0
C1507 C 0.34946 0.41314 0.2514 0.0
C1508 C 0.33954 0.4406 0.20457 0.0
C1509 C 0.37654 0.44805 0.19508 0.0
C1510 C 0.39915 0.44275 0.2172 0.0
C1511 C 0.38529 0.42478 0.24503 0.0
C1512 C 0.31457 0.44681 0.18223 0.0
C1513 C 0.43858 0.45219 0.20889 0.0
C1514 C 0.42638 0.42787 0.10128 0.0
C1515 C 0.43825 0.46183 0.09509 0.0
C1516 C 0.40326 0.42315 0.13267 0.0
C1517 C 0.39252 0.45324 0.15872 0.0
C1518 C 0.40163 0.48754 0.15099 0.0
C1519 C 0.42445 0.49146 0.11901 0.0
C1520 C 0.39288 0.38594 0.13911 0.0
C1521 C 0.38972 0.52046 0.17689 0.0
H1522 H 0.29849 0.4143 0.23844 0.0
H1523 H 0.40289 0.41682 0.25953 0.0
H1524 H 0.3212 0.47312 0.17461 0.0
H1525 H 0.31744 0.42645 0.15751 0.0
H1526 H 0.28646 0.44518 0.19624 0.0
H1527 H 0.45128 0.45214 0.23163 0.0
H1528 H 0.45104 0.43263 0.18594 0.0
H1529 H 0.444 0.47872 0.20161 0.0
H1530 H 0.43694 0.405 0.08248 0.0
H1531 H 0.43381 0.51781 0.11425 0.0
H1532 H 0.36399 0.38262 0.14973 0.0
H1533 H 0.40709 0.38086 0.15901 0.0
H1534 H 0.39954 0.3657 0.11459 0.0
H1535 H 0.3695 0.51505 0.20007 0.0
H1536 H 0.37848 0.53724 0.16301 0.0
H1537 H 0.41304 0.53583 0.18634 0.0
C1538 C 0.84452 0.69591 0.65799 0.0
C1539 C 0.83062 0.69519 0.6936 0.0
C1540 C 0.86695 0.66997 0.63715 0.0
C1541 C 0.87595 0.64298 0.65249 0.0
C1542 C 0.86272 0.64302 0.68888 0.0
C1543 C 0.84012 0.66908 0.70893 0.0
C1544 C 0.87986 0.67062 0.5983 0.0
C1545 C 0.87215 0.61568 0.70688 0.0
C1546 C 0.89803 0.56091 0.58282 0.0
C1547 C 0.9345 0.568 0.57109 0.0
C1548 C 0.87894 0.58341 0.61171 0.0
C1549 C 0.89687 0.61355 0.62943 0.0
C1550 C 0.93442 0.61758 0.6211 0.0
C1551 C 0.95292 0.59465 0.59193 0.0
C1552 C 0.83911 0.57707 0.62072 0.0
C1553 C 0.95472 0.64815 0.64067 0.0
H1554 H 0.83685 0.71598 0.64619 0.0
H1555 H 0.82939 0.66876 0.73666 0.0
H1556 H 0.90925 0.67132 0.59164 0.0
H1557 H 0.86956 0.64608 0.58215 0.0
H1558 H 0.87128 0.69378 0.59064 0.0
H1559 H 0.89804 0.62435 0.71499 0.0
H1560 H 0.85199 0.61267 0.73096 0.0
H1561 H 0.87475 0.58939 0.68909 0.0
H1562 H 0.88376 0.54016 0.5669 0.0
H1563 H 0.98113 0.60032 0.58307 0.0
H1564 H 0.82661 0.59747 0.6124 0.0
H1565 H 0.82995 0.57944 0.64972 0.0
H1566 H 0.82969 0.55052 0.60735 0.0
H1567 H 0.95101 0.67295 0.6325 0.0
H1568 H 0.98358 0.64443 0.63512 0.0
H1569 H 0.94451 0.65148 0.66962 0.0
C1570 C 0.40787 0.809 0.61177 0.0
C1571 C 0.38196 0.80755 0.64207 0.0
C1572 C 0.41969 0.8416 0.60167 0.0
C1573 C 0.40511 0.87303 0.62267 0.0
C1574 C 0.37785 0.87134 0.65248 0.0
C1575 C 0.36702 0.83863 0.66213 0.0
C1576 C 0.44909 0.8427 0.56974 0.0
C1577 C 0.36161 0.90424 0.67525 0.0
C1578 C 0.47232 0.95067 0.61974 0.0
C1579 C 0.4651 0.96372 0.59167 0.0
C1580 C 0.45122 0.92247 0.632 0.0
C1581 C 0.4219 0.90776 0.61621 0.0
C1582 C 0.41157 0.92416 0.59152 0.0
C1583 C 0.43344 0.95223 0.57945 0.0
C1584 C 0.46271 0.90604 0.65894 0.0
C1585 C 0.37969 0.90987 0.57512 0.0
H1586 H 0.4195 0.78487 0.59681 0.0
H1587 H 0.34765 0.83732 0.68623 0.0
H1588 H 0.44145 0.85752 0.55162 0.0
H1589 H 0.47332 0.85687 0.57832 0.0
H1590 H 0.45565 0.81579 0.55486 0.0
H1591 H 0.33888 0.89798 0.69608 0.0
H1592 H 0.38185 0.92148 0.68832 0.0
H1593 H 0.35242 0.91972 0.65864 0.0
H1594 H 0.49641 0.96018 0.62976 0.0
H1595 H 0.42751 0.96261 0.55802 0.0
H1596 H 0.47331 0.88007 0.64582 0.0
H1597 H 0.43988 0.90116 0.68016 0.0
H1598 H 0.48366 0.92297 0.67129 0.0
H1599 H 0.35727 0.90133 0.59501 0.0
H1600 H 0.38673 0.88638 0.55407 0.0
H1601 H 0.37079 0.92984 0.563 0.0
C1602 C 0.19315 0.2937 0.68488 0.0
C1603 C 0.23022 0.29882 0.67982 0.0
C1604 C 0.174 0.31148 0.66838 0.0
C1605 C 0.19252 0.33395 0.64542 0.0
C1606 C 0.23005 0.33663 0.63772 0.0
C1607 C 0.24852 0.31931 0.65537 0.0
C1608 C 0.13395 0.3081 0.67743 0.0
C1609 C 0.25065 0.35966 0.6127 0.0
C1610 C 0.1373 0.36936 0.59337 0.0
C1611 C 0.13014 0.40252 0.61481 0.0
C1612 C 0.15879 0.3471 0.60215 0.0
C1613 C 0.17266 0.35811 0.63348 0.0
C1614 C 0.16587 0.39182 0.65492 0.0
C1615 C 0.14478 0.41363 0.6452 0.0
C1616 C 0.16571 0.31147 0.57855 0.0
C1617 C 0.17978 0.40436 0.68883 0.0
H1618 H 0.17887 0.27769 0.7036 0.0
H1619 H 0.27722 0.32297 0.65105 0.0
H1620 H 0.12356 0.33461 0.68787 0.0
H1621 H 0.12322 0.29644 0.65323 0.0
H1622 H 0.12374 0.29129 0.69752 0.0
H1623 H 0.27925 0.35464 0.60539 0.0
H1624 H 0.23965 0.35514 0.5882 0.0
H1625 H 0.24829 0.38794 0.62543 0.0
H1626 H 0.12514 0.36033 0.57042 0.0
H1627 H 0.13917 0.4393 0.66169 0.0
H1628 H 0.15105 0.29026 0.59204 0.0
H1629 H 0.19434 0.30697 0.57325 0.0
H1630 H 0.1572 0.30898 0.55289 0.0
H1631 H 0.16877 0.38623 0.70748 0.0
H1632 H 0.1727 0.43162 0.70202 0.0
H1633 H 0.20907 0.40388 0.68338 0.0
C1634 C 0.67362 0.21417 0.62459 0.0
C1635 C 0.6586 0.24147 0.65123 0.0
C1636 C 0.65299 0.19159 0.60296 0.0
C1637 C 0.61609 0.19494 0.60982 0.0
C1638 C 0.60153 0.22493 0.6331 0.0
C1639 C 0.62331 0.24844 0.65302 0.0
C1640 C 0.66984 0.16108 0.57633 0.0
C1641 C 0.56231 0.22973 0.64037 0.0
C1642 C 0.56881 0.12239 0.55338 0.0
C1643 C 0.56594 0.09518 0.57255 0.0
C1644 C 0.58253 0.15642 0.56639 0.0
C1645 C 0.59301 0.16318 0.59946 0.0
C1646 C 0.58694 0.13662 0.62035 0.0
C1647 C 0.57396 0.10263 0.60631 0.0
C1648 C 0.58843 0.18374 0.54319 0.0
C1649 C 0.59663 0.1433 0.65646 0.0
H1650 H 0.70026 0.20745 0.62254 0.0
H1651 H 0.61165 0.27002 0.6729 0.0
H1652 H 0.66429 0.13674 0.58777 0.0
H1653 H 0.65866 0.15602 0.5519 0.0
H1654 H 0.69908 0.16621 0.56908 0.0
H1655 H 0.55656 0.25758 0.65252 0.0
H1656 H 0.55145 0.22179 0.61576 0.0
H1657 H 0.54825 0.21255 0.65901 0.0
H1658 H 0.56235 0.11666 0.52719 0.0
H1659 H 0.57088 0.08173 0.62137 0.0
H1660 H 0.61331 0.17899 0.5233 0.0
H1661 H 0.59076 0.21121 0.55833 0.0
H1662 H 0.56635 0.18123 0.52867 0.0
H1663 H 0.62592 0.1448 0.65345 0.0
H1664 H 0.58513 0.12192 0.67129 0.0
H1665 H 0.58727 0.16889 0.6724 0.0
C1666 C 0.8259 0.35318 0.36672 0.0
C1667 C 0.83631 0.34072 0.32998 0.0
C1668 C 0.84936 0.3746 0.38734 0.0
C1669 C 0.88474 0.38446 0.37144 0.0
C1670 C 0.89559 0.37154 0.33444 0.0
C1671 C 0.87158 0.35004 0.31443 0.0
C1672 C 0.83591 0.38726 0.42637 0.0
C1673 C 0.93261 0.38101 0.31571 0.0
C1674 C 0.92843 0.47253 0.4158 0.0
C1675 C 0.95147 0.46242 0.43486 0.0
C1676 C 0.90761 0.44778 0.39509 0.0
C1677 C 0.90886 0.4109 0.39267 0.0
C1678 C 0.93239 0.40011 0.41128 0.0
C1679 C 0.95321 0.42573 0.43201 0.0
C1680 C 0.88356 0.46145 0.37615 0.0
C1681 C 0.93515 0.36134 0.4098 0.0
H1682 H 0.79908 0.34626 0.37958 0.0
H1683 H 0.88051 0.34071 0.28631 0.0
H1684 H 0.85402 0.38036 0.44187 0.0
H1685 H 0.83553 0.41652 0.43222 0.0
H1686 H 0.80876 0.37564 0.4355 0.0
H1687 H 0.93807 0.36723 0.28758 0.0
H1688 H 0.93637 0.41 0.31665 0.0
H1689 H 0.95243 0.37416 0.32934 0.0
H1690 H 0.92594 0.50038 0.41741 0.0
H1691 H 0.9704 0.41696 0.44639 0.0
H1692 H 0.85551 0.45322 0.38643 0.0
H1693 H 0.88946 0.44985 0.34746 0.0
H1694 H 0.88637 0.49076 0.37944 0.0
H1695 H 0.90946 0.34967 0.42277 0.0
H1696 H 0.95632 0.35681 0.42314 0.0
H1697 H 0.94066 0.34706 0.38188 0.0
C1698 C 0.70933 0.88226 0.31469 0.0
C1699 C 0.71522 0.85148 0.32541 0.0
C1700 C 0.68602 0.90693 0.33685 0.0
C1701 C 0.66949 0.90169 0.37135 0.0
C1702 C 0.67548 0.87053 0.38217 0.0
C1703 C 0.69754 0.84553 0.35883 0.0
C1704 C 0.67918 0.93864 0.32333 0.0
C1705 C 0.65941 0.86405 0.4189 0.0
C1706 C 0.64657 0.97939 0.44757 0.0
C1707 C 0.60944 0.97418 0.45699 0.0
C1708 C 0.66625 0.95724 0.4187 0.0
C1709 C 0.64847 0.92983 0.39739 0.0
C1710 C 0.61075 0.92736 0.404 0.0
C1711 C 0.59169 0.94928 0.43393 0.0
C1712 C 0.70625 0.96099 0.41339 0.0
C1713 C 0.59038 0.89992 0.38104 0.0
H1714 H 0.72242 0.88669 0.2886 0.0
H1715 H 0.70192 0.82174 0.36718 0.0
H1716 H 0.65036 0.94248 0.32933 0.0
H1717 H 0.69266 0.96287 0.33679 0.0
H1718 H 0.68902 0.93589 0.29434 0.0
H1719 H 0.6671 0.83893 0.4235 0.0
H1720 H 0.66802 0.88624 0.43894 0.0
H1721 H 0.63007 0.86304 0.4232 0.0
H1722 H 0.66067 0.99885 0.46485 0.0
H1723 H 0.56314 0.94506 0.44062 0.0
H1724 H 0.71827 0.96195 0.38542 0.0
H1725 H 0.7157 0.93756 0.41972 0.0
H1726 H 0.71608 0.98516 0.43045 0.0
H1727 H 0.60369 0.89669 0.35279 0.0
H1728 H 0.56276 0.90697 0.38371 0.0
H1729 H 0.58914 0.874 0.38911 0.0
C1730 C 0.16407 0.67164 0.31012 0.0
C1731 C 0.19526 0.69032 0.31934 0.0
C1732 C 0.14266 0.64852 0.33122 0.0
C1733 C 0.15203 0.6437 0.36288 0.0
C1734 C 0.18376 0.6621 0.37195 0.0
C1735 C 0.20477 0.68475 0.35028 0.0
C1736 C 0.10945 0.62967 0.31991 0.0
C1737 C 0.19511 0.6587 0.40534 0.0
C1738 C 0.07611 0.62025 0.43727 0.0
C1739 C 0.078 0.58377 0.43564 0.0
C1740 C 0.10001 0.63962 0.41444 0.0
C1741 C 0.12707 0.62256 0.3882 0.0
C1742 C 0.1298 0.58577 0.3867 0.0
C1743 C 0.10549 0.56691 0.41041 0.0
C1744 C 0.09572 0.67857 0.41814 0.0
C1745 C 0.15782 0.56602 0.35926 0.0
H1746 H 0.15616 0.67524 0.28641 0.0
H1747 H 0.22863 0.69869 0.35809 0.0
H1748 H 0.10905 0.60089 0.31937 0.0
H1749 H 0.08581 0.63966 0.33937 0.0
H1750 H 0.10716 0.63354 0.29337 0.0
H1751 H 0.22147 0.67267 0.40774 0.0
H1752 H 0.17529 0.66989 0.42873 0.0
H1753 H 0.1962 0.63039 0.40606 0.0
H1754 H 0.05516 0.63388 0.45647 0.0
H1755 H 0.10716 0.53878 0.4082 0.0
H1756 H 0.08965 0.6836 0.39343 0.0
H1757 H 0.12086 0.69425 0.42229 0.0
H1758 H 0.07419 0.68836 0.44053 0.0
H1759 H 0.15333 0.56621 0.33243 0.0
H1760 H 0.15772 0.53811 0.36216 0.0
H1761 H 0.18446 0.57943 0.36117 0.0
C1762 C 0.28647 0.17942 0.33125 0.0
C1763 C 0.29783 0.21542 0.33303 0.0
C1764 C 0.30451 0.15684 0.34381 0.0
C1765 C 0.33432 0.17063 0.35922 0.0
C1766 C 0.34474 0.20731 0.36293 0.0
C1767 C 0.32649 0.22924 0.34963 0.0
C1768 C 0.2925 0.11792 0.33923 0.0
C1769 C 0.37609 0.22312 0.37963 0.0
C1770 C 0.36662 0.11404 0.41262 0.0
C1771 C 0.39528 0.09857 0.38822 0.0
C1772 C 0.34695 0.13805 0.40384 0.0
C1773 C 0.3557 0.14627 0.36956 0.0
C1774 C 0.38437 0.13036 0.34464 0.0
C1775 C 0.40377 0.10671 0.35429 0.0
C1776 C 0.31662 0.15436 0.43116 0.0
C1777 C 0.39433 0.13804 0.30764 0.0
H1778 H 0.26434 0.1684 0.31854 0.0
H1779 H 0.33551 0.25697 0.35115 0.0
H1780 H 0.31467 0.10185 0.32389 0.0
H1781 H 0.28457 0.11014 0.36547 0.0
H1782 H 0.26976 0.11115 0.32535 0.0
H1783 H 0.37892 0.25246 0.38333 0.0
H1784 H 0.37343 0.21553 0.40572 0.0
H1785 H 0.40079 0.21252 0.36263 0.0
H1786 H 0.35918 0.1069 0.43843 0.0
H1787 H 0.42581 0.09467 0.33537 0.0
H1788 H 0.29128 0.14594 0.42189 0.0
H1789 H 0.32011 0.18366 0.43482 0.0
H1790 H 0.31444 0.14672 0.45719 0.0
H1791 H 0.3715 0.13029 0.29401 0.0
H1792 H 0.41744 0.12372 0.29151 0.0
H1793 H 0.40079 0.16686 0.30878 0.0
C1794 C 0.67561 0.81091 0.70875 0.0
C1795 C 0.71152 0.80477 0.69666 0.0
C1796 C 0.65984 0.83481 0.69558 0.0
C1797 C 0.68015 0.85179 0.66852 0.0
C1798 C 0.71615 0.84445 0.65519 0.0
C1799 C 0.73168 0.82168 0.67011 0.0
C1800 C 0.62198 0.84316 0.71188 0.0
C1801 C 0.73837 0.86094 0.6255 0.0
C1802 C 0.62639 0.88976 0.61668 0.0
C1803 C 0.63092 0.92632 0.62962 0.0
C1804 C 0.64352 0.86544 0.62794 0.0
C1805 C 0.66376 0.87759 0.65467 0.0
C1806 C 0.6672 0.91428 0.66906 0.0
C1807 C 0.65126 0.93819 0.65594 0.0
C1808 C 0.63978 0.82666 0.6113 0.0
C1809 C 0.68719 0.92826 0.69873 0.0
H1810 H 0.66033 0.79844 0.72995 0.0
H1811 H 0.75957 0.8171 0.66108 0.0
H1812 H 0.62125 0.87164 0.7244 0.0
H1813 H 0.60559 0.83827 0.69123 0.0
H1814 H 0.60971 0.8272 0.73226 0.0
H1815 H 0.76462 0.84968 0.61573 0.0
H1816 H 0.72424 0.85693 0.60308 0.0
H1817 H 0.74279 0.88989 0.63472 0.0
H1818 H 0.60904 0.8799 0.5981 0.0
H1819 H 0.65455 0.96631 0.66642 0.0
H1820 H 0.62434 0.81148 0.63113 0.0
H1821 H 0.66632 0.81597 0.60221 0.0
H1822 H 0.62623 0.822 0.58839 0.0
H1823 H 0.67613 0.91482 0.72136 0.0
H1824 H 0.6859 0.95729 0.7082 0.0
H1825 H 0.71544 0.92241 0.6898 0.0
C1826 C 0.67586 0.18883 0.36236 0.0
C1827 C 0.66005 0.21787 0.38595 0.0
C1828 C 0.66431 0.15422 0.36615 0.0
C1829 C 0.63572 0.14869 0.39369 0.0
C1830 C 0.62045 0.17785 0.41842 0.0
C1831 C 0.63282 0.21235 0.41409 0.0
C1832 C 0.68107 0.12375 0.33938 0.0
C1833 C 0.58959 0.17262 0.44804 0.0
C1834 C 0.56567 0.0742 0.38942 0.0
C1835 C 0.57182 0.05793 0.41584 0.0
C1836 C 0.58901 0.10179 0.37858 0.0
C1837 C 0.61886 0.11282 0.39466 0.0
C1838 C 0.62818 0.09261 0.41675 0.0
C1839 C 0.60457 0.06486 0.42683 0.0
C1840 C 0.57905 0.12202 0.35371 0.0
C1841 C 0.66024 0.10318 0.4338 0.0
H1842 H 0.69608 0.19327 0.33972 0.0
H1843 H 0.62037 0.23494 0.43163 0.0
H1844 H 0.68881 0.10442 0.35299 0.0
H1845 H 0.66157 0.10956 0.32336 0.0
H1846 H 0.70487 0.13269 0.32115 0.0
H1847 H 0.56564 0.1621 0.43684 0.0
H1848 H 0.5952 0.15295 0.46253 0.0
H1849 H 0.58353 0.19774 0.4671 0.0
H1850 H 0.54088 0.06804 0.38 0.0
H1851 H 0.60998 0.05167 0.4466 0.0
H1852 H 0.60272 0.1295 0.33455 0.0
H1853 H 0.56742 0.14681 0.36922 0.0
H1854 H 0.55921 0.10644 0.3388 0.0
H1855 H 0.68283 0.11419 0.41575 0.0
H1856 H 0.66881 0.08035 0.44207 0.0
H1857 H 0.65333 0.12398 0.45777 0.0
C1858 C 0.81355 0.70527 0.33622 0.0
C1859 C 0.81973 0.74127 0.33449 0.0
C1860 C 0.8319 0.68998 0.35557 0.0
C1861 C 0.85638 0.71142 0.37456 0.0
C1862 C 0.86096 0.74829 0.37495 0.0
C1863 C 0.84294 0.76275 0.35442 0.0
C1864 C 0.82671 0.65042 0.35379 0.0
C1865 C 0.88576 0.77217 0.39603 0.0
C1866 C 0.88584 0.66161 0.43516 0.0
C1867 C 0.91701 0.64811 0.41368 0.0
C1868 C 0.86731 0.68508 0.42423 0.0
C1869 C 0.87962 0.69414 0.39051 0.0
C1870 C 0.91203 0.68202 0.36958 0.0
C1871 C 0.93045 0.65949 0.38163 0.0
C1872 C 0.83341 0.69827 0.44777 0.0
C1873 C 0.92592 0.69055 0.33322 0.0
H1874 H 0.79575 0.68847 0.32079 0.0
H1875 H 0.84748 0.79068 0.35352 0.0
H1876 H 0.85192 0.63814 0.34068 0.0
H1877 H 0.81946 0.64444 0.3808 0.0
H1878 H 0.80573 0.63776 0.33887 0.0
H1879 H 0.88286 0.80063 0.39729 0.0
H1880 H 0.88076 0.76708 0.42338 0.0
H1881 H 0.91361 0.76647 0.38382 0.0
H1882 H 0.87485 0.65242 0.45959 0.0
H1883 H 0.95477 0.64942 0.36519 0.0
H1884 H 0.81035 0.68281 0.43795 0.0
H1885 H 0.83133 0.7265 0.44737 0.0
H1886 H 0.83163 0.6954 0.47555 0.0
H1887 H 0.90756 0.67776 0.31531 0.0
H1888 H 0.95275 0.6812 0.32146 0.0
H1889 H 0.92712 0.71949 0.33437 0.0
C1890 C 0.42417 0.7958 0.32561 0.0
C1891 C 0.39393 0.78 0.3444 0.0
C1892 C 0.44698 0.81986 0.34365 0.0
C1893 C 0.43827 0.82857 0.381 0.0
C1894 C 0.41072 0.80863 0.39991 0.0
C1895 C 0.38879 0.78418 0.38112 0.0
C1896 C 0.47709 0.83957 0.32266 0.0
C1897 C 0.40069 0.81707 0.43978 0.0
C1898 C 0.48815 0.90308 0.43386 0.0
C1899 C 0.46868 0.93178 0.43466 0.0
C1900 C 0.4794 0.86921 0.41557 0.0
C1901 C 0.44988 0.86402 0.39885 0.0
C1902 C 0.43014 0.89292 0.3997 0.0
C1903 C 0.44003 0.9265 0.41733 0.0
C1904 C 0.50148 0.83914 0.4144 0.0
C1905 C 0.39847 0.88859 0.382 0.0
H1906 H 0.42809 0.79169 0.29702 0.0
H1907 H 0.36531 0.77147 0.39524 0.0
H1908 H 0.46795 0.86469 0.31968 0.0
H1909 H 0.49993 0.8463 0.33636 0.0
H1910 H 0.48613 0.82383 0.29577 0.0
H1911 H 0.38434 0.79479 0.45038 0.0
H1912 H 0.42454 0.82331 0.45193 0.0
H1913 H 0.38497 0.84071 0.44796 0.0
H1914 H 0.5103 0.90702 0.44738 0.0
H1915 H 0.42485 0.94855 0.41799 0.0
H1916 H 0.50814 0.82369 0.38704 0.0
H1917 H 0.48613 0.82083 0.4312 0.0
H1918 H 0.5265 0.84871 0.42407 0.0
H1919 H 0.40735 0.88086 0.35295 0.0
H1920 H 0.38461 0.91332 0.3875 0.0
H1921 H 0.37912 0.8674 0.39106 0.0
C1922 C 0.18034 0.3391 0.36965 0.0
C1923 C 0.1777 0.32231 0.3351 0.0
C1924 C 0.15424 0.36114 0.39076 0.0
C1925 C 0.12552 0.36792 0.37646 0.0
C1926 C 0.12329 0.35165 0.34113 0.0
C1927 C 0.14905 0.32849 0.32111 0.0
C1928 C 0.15732 0.377 0.42856 0.0
C1929 C 0.09424 0.35933 0.32423 0.0
C1930 C 0.04797 0.397 0.4497 0.0
C1931 C 0.05751 0.43332 0.45897 0.0
C1932 C 0.06794 0.37549 0.42058 0.0
C1933 C 0.09748 0.39093 0.39942 0.0
C1934 C 0.10333 0.4284 0.40519 0.0
C1935 C 0.08336 0.44925 0.43514 0.0
C1936 C 0.06032 0.33585 0.41577 0.0
C1937 C 0.13325 0.44627 0.38222 0.0
H1938 H 0.20267 0.33456 0.38032 0.0
H1939 H 0.1475 0.31617 0.29403 0.0
H1940 H 0.16034 0.4063 0.43231 0.0
H1941 H 0.13277 0.36984 0.4469 0.0
H1942 H 0.1803 0.36789 0.43612 0.0
H1943 H 0.09625 0.34466 0.2965 0.0
H1944 H 0.06785 0.35226 0.33968 0.0
H1945 H 0.0956 0.38812 0.32435 0.0
H1946 H 0.02781 0.3846 0.46795 0.0
H1947 H 0.09095 0.47729 0.44199 0.0
H1948 H 0.07975 0.32467 0.42673 0.0
H1949 H 0.06317 0.32337 0.3874 0.0
H1950 H 0.03321 0.3285 0.42971 0.0
H1951 H 0.15845 0.44521 0.39098 0.0
H1952 H 0.12889 0.47451 0.38414 0.0
H1953 H 0.13633 0.43261 0.35411 0.0
C1954 C 0.34829 0.18874 0.64996 0.0
C1955 C 0.33306 0.18545 0.68482 0.0
C1956 C 0.36828 0.16205 0.62669 0.0
C1957 C 0.37472 0.13189 0.63892 0.0
C1958 C 0.36043 0.12915 0.67462 0.0
C1959 C 0.33911 0.15552 0.69687 0.0
C1960 C 0.38184 0.16581 0.58868 0.0
C1961 C 0.36786 0.0985 0.6894 0.0
C1962 C 0.39317 0.05089 0.56559 0.0
C1963 C 0.43006 0.05555 0.55389 0.0
C1964 C 0.37503 0.07427 0.5945 0.0
C1965 C 0.39428 0.10244 0.61343 0.0
C1966 C 0.43197 0.10453 0.60456 0.0
C1967 C 0.4494 0.0814 0.57462 0.0
C1968 C 0.33496 0.07096 0.60219 0.0
C1969 C 0.4539 0.13292 0.62492 0.0
H1970 H 0.34379 0.2119 0.64062 0.0
H1971 H 0.32793 0.15321 0.72404 0.0
H1972 H 0.41121 0.16638 0.58242 0.0
H1973 H 0.37168 0.14263 0.57068 0.0
H1974 H 0.37372 0.19027 0.58305 0.0
H1975 H 0.35835 0.10224 0.71851 0.0
H1976 H 0.35465 0.07363 0.6768 0.0
H1977 H 0.39678 0.09513 0.68332 0.0
H1978 H 0.37792 0.03091 0.54992 0.0
H1979 H 0.47777 0.08565 0.5659 0.0
H1980 H 0.32505 0.09333 0.59441 0.0
H1981 H 0.32446 0.07246 0.63086 0.0
H1982 H 0.32405 0.04578 0.58752 0.0
H1983 H 0.45373 0.15831 0.61625 0.0
H1984 H 0.48191 0.12624 0.62036 0.0
H1985 H 0.44266 0.137 0.65372 0.0
C1986 C 0.86297 0.36459 0.71517 0.0
C1987 C 0.8344 0.34294 0.70319 0.0
C1988 C 0.88466 0.38834 0.69491 0.0
C1989 C 0.8786 0.39066 0.66106 0.0
C1990 C 0.84961 0.36904 0.64901 0.0
C1991 C 0.82799 0.34602 0.67006 0.0
C1992 C 0.9146 0.41073 0.70965 0.0
C1993 C 0.84198 0.36939 0.61313 0.0
C1994 C 0.92442 0.46814 0.61355 0.0
C1995 C 0.95532 0.45342 0.59224 0.0
C1996 C 0.89932 0.44843 0.63597 0.0
C1997 C 0.90448 0.4127 0.63698 0.0
C1998 C 0.93508 0.39768 0.61462 0.0
C1999 C 0.95976 0.41796 0.5932 0.0
C2000 C 0.86767 0.46623 0.65937 0.0
C2001 C 0.94213 0.35987 0.61342 0.0
H2002 H 0.86848 0.36304 0.74061 0.0
H2003 H 0.80628 0.32971 0.66003 0.0
H2004 H 0.94039 0.40236 0.69319 0.0
H2005 H 0.91313 0.43892 0.70866 0.0
H2006 H 0.91415 0.40859 0.7374 0.0
H2007 H 0.81757 0.3527 0.60808 0.0
H2008 H 0.83896 0.39685 0.61077 0.0
H2009 H 0.86466 0.35949 0.59222 0.0
H2010 H 0.92042 0.49539 0.61366 0.0
H2011 H 0.98311 0.40572 0.57691 0.0
H2012 H 0.86884 0.46775 0.68754 0.0
H2013 H 0.84283 0.45035 0.65454 0.0
H2014 H 0.86643 0.49341 0.65497 0.0
H2015 H 0.94565 0.35682 0.63979 0.0
H2016 H 0.96618 0.35139 0.59364 0.0
H2017 H 0.91908 0.34177 0.60684 0.0
C2018 C 0.21121 0.67752 0.66648 0.0
C2019 C 0.19943 0.69636 0.70113 0.0
C2020 C 0.18751 0.65605 0.64605 0.0
C2021 C 0.15035 0.65289 0.65985 0.0
C2022 C 0.13822 0.67223 0.69465 0.0
C2023 C 0.16256 0.69335 0.71462 0.0
C2024 C 0.20251 0.63616 0.60959 0.0
C2025 C 0.09928 0.67036 0.71108 0.0
C2026 C 0.08604 0.61298 0.59422 0.0
C2027 C 0.08052 0.5771 0.59748 0.0
C2028 C 0.10777 0.63797 0.61459 0.0
C2029 C 0.12494 0.6274 0.63909 0.0
C2030 C 0.1185 0.59153 0.64308 0.0
C2031 C 0.09672 0.56739 0.62274 0.0
C2032 C 0.11308 0.67571 0.60922 0.0
C2033 C 0.13554 0.57809 0.66837 0.0
H2034 H 0.23931 0.67934 0.65518 0.0
H2035 H 0.15252 0.70764 0.74103 0.0
H2036 H 0.19728 0.60725 0.60871 0.0
H2037 H 0.18918 0.64285 0.58979 0.0
H2038 H 0.23155 0.64219 0.60177 0.0
H2039 H 0.09343 0.68837 0.73725 0.0
H2040 H 0.08365 0.67734 0.69328 0.0
H2041 H 0.09015 0.6429 0.71455 0.0
H2042 H 0.07431 0.62138 0.57497 0.0
H2043 H 0.09306 0.54014 0.62627 0.0
H2044 H 0.14129 0.68177 0.5975 0.0
H2045 H 0.10693 0.69414 0.63506 0.0
H2046 H 0.09622 0.68079 0.59152 0.0
H2047 H 0.16484 0.58104 0.66026 0.0
H2048 H 0.1274 0.54981 0.66935 0.0
H2049 H 0.12843 0.59403 0.69544 0.0
loop_
_geom_bond_atom_site_label_1
_geom_bond_atom_site_label_2
_geom_bond_distance
_geom_bond_site_symmetry_2
_ccdc_geom_bond_type
Zn0 O1 2.055 . S
Zn0 O8 2.046 . S
Zn0 N16 2.036 . S
Zn0 O28 2.053 . S
Zn0 O30 2.066 . S
O1 Zn0 2.055 . S
O1 C4 1.259 . S
C2 O30 1.256 . S
C2 O31 1.244 . S
Zn3 O5 2.046 . S
Zn3 O7 2.055 . S
Zn3 N9 2.036 . S
Zn3 O27 2.066 . S
Zn3 O31 2.053 . S
C4 O1 1.259 . S
C4 O5 1.254 . S
O5 Zn3 2.046 . S
O5 C4 1.254 . S
C6 O27 1.256 . S
C6 O28 1.244 . S
O7 Zn3 2.055 . S
O7 C29 1.259 . S
O8 Zn0 2.046 . S
O8 C29 1.254 . S
N9 Zn3 2.036 . S
N9 C10 1.298 . S
N9 N12 1.398 . S
C10 N9 1.298 . S
C10 N13 1.367 . S
C10 C23 1.481 . S
C11 N12 1.299 . S
C11 N13 1.379 . S
N12 N9 1.398 . S
N12 C11 1.299 . S
N13 C10 1.367 . S
N13 C11 1.379 . S
C14 N16 1.298 . S
C14 N18 1.367 . S
C14 C22 1.481 . S
C15 N17 1.299 . S
C15 N18 1.379 . S
N16 Zn0 2.036 . S
N16 C14 1.298 . S
N16 N17 1.398 . S
N17 C15 1.299 . S
N17 N16 1.398 . S
N18 C14 1.367 . S
N18 C15 1.379 . S
H19 C22 0.980 . S
H20 C22 0.981 . S
H21 C22 0.981 . S
C22 C14 1.481 . S
C22 H19 0.980 . S
C22 H20 0.981 . S
C22 H21 0.981 . S
C23 C10 1.481 . S
C23 H24 0.980 . S
C23 H25 0.981 . S
C23 H26 0.981 . S
H24 C23 0.980 . S
H25 C23 0.981 . S
H26 C23 0.981 . S
O27 Zn3 2.066 . S
O27 C6 1.256 . S
O28 Zn0 2.053 . S
O28 C6 1.244 . S
C29 O7 1.259 . S
C29 O8 1.254 . S
O30 Zn0 2.066 . S
O30 C2 1.256 . S
O31 C2 1.244 . S
O31 Zn3 2.053 . S
Zn32 O33 2.055 . S
Zn32 O40 2.046 . S
Zn32 N48 2.036 . S
Zn32 O60 2.053 . S
Zn32 O62 2.066 . S
O33 Zn32 2.055 . S
O33 C36 1.259 . S
C34 O62 1.256 . S
C34 O63 1.244 . S
Zn35 O37 2.046 . S
Zn35 O39 2.055 . S
Zn35 N41 2.036 . S
Zn35 O59 2.066 . S
Zn35 O63 2.053 . S
C36 O33 1.259 . S
C36 O37 1.254 . S
O37 Zn35 2.046 . S
O37 C36 1.254 . S
C38 O59 1.256 . S
C38 O60 1.244 . S
O39 Zn35 2.055 . S
O39 C61 1.259 . S
O40 Zn32 2.046 . S
O40 C61 1.254 . S
N41 Zn35 2.036 . S
N41 C42 1.298 . S
N41 N44 1.398 . S
C42 N41 1.298 . S
C42 N45 1.367 . S
C42 C55 1.481 . S
C43 N44 1.299 . S
C43 N45 1.379 . S
N44 N41 1.398 . S
N44 C43 1.299 . S
N45 C42 1.367 . S
N45 C43 1.379 . S
C46 N48 1.298 . S
C46 N50 1.367 . S
C46 C54 1.481 . S
C47 N49 1.299 . S
C47 N50 1.379 . S
N48 Zn32 2.036 . S
N48 C46 1.298 . S
N48 N49 1.398 . S
N49 C47 1.299 . S
N49 N48 1.398 . S
N50 C46 1.367 . S
N50 C47 1.379 . S
H51 C54 0.980 . S
H52 C54 0.981 . S
H53 C54 0.981 . S
C54 C46 1.481 . S
C54 H51 0.980 . S
C54 H52 0.981 . S
C54 H53 0.981 . S
C55 C42 1.481 . S
C55 H56 0.980 . S
C55 H57 0.981 . S
C55 H58 0.981 . S
H56 C55 0.980 . S
H57 C55 0.981 . S
H58 C55 0.981 . S
O59 Zn35 2.066 . S
O59 C38 1.256 . S
O60 Zn32 2.053 . S
O60 C38 1.244 . S
C61 O39 1.259 . S
C61 O40 1.254 . S
O62 Zn32 2.066 . S
O62 C34 1.256 . S
O63 C34 1.244 . S
O63 Zn35 2.053 . S
Zn64 O65 2.055 . S
Zn64 O72 2.046 . S
Zn64 N80 2.036 . S
Zn64 O92 2.053 . S
Zn64 O94 2.066 . S
O65 Zn64 2.055 . S
O65 C68 1.259 . S
C66 O94 1.256 . S
C66 O95 1.244 . S
Zn67 O69 2.046 . S
Zn67 O71 2.055 . S
Zn67 N73 2.036 . S
Zn67 O91 2.066 . S
Zn67 O95 2.053 . S
C68 O65 1.259 . S
C68 O69 1.254 . S
O69 Zn67 2.046 . S
O69 C68 1.254 . S
C70 O91 1.256 . S
C70 O92 1.244 . S
O71 Zn67 2.055 . S
O71 C93 1.259 . S
O72 Zn64 2.046 . S
O72 C93 1.254 . S
N73 Zn67 2.036 . S
N73 C74 1.298 . S
N73 N76 1.398 . S
C74 N73 1.298 . S
C74 N77 1.367 . S
C74 C87 1.481 . S
C75 N76 1.299 . S
C75 N77 1.379 . S
N76 N73 1.398 . S
N76 C75 1.299 . S
N77 C74 1.367 . S
N77 C75 1.379 . S
C78 N80 1.298 . S
C78 N82 1.367 . S
C78 C86 1.481 . S
C79 N81 1.299 . S
C79 N82 1.379 . S
N80 Zn64 2.036 . S
N80 C78 1.298 . S
N80 N81 1.398 . S
N81 C79 1.299 . S
N81 N80 1.398 . S
N82 C78 1.367 . S
N82 C79 1.379 . S
H83 C86 0.980 . S
H84 C86 0.981 . S
H85 C86 0.981 . S
C86 C78 1.481 . S
C86 H83 0.980 . S
C86 H84 0.981 . S
C86 H85 0.981 . S
C87 C74 1.481 . S
C87 H88 0.980 . S
C87 H89 0.981 . S
C87 H90 0.981 . S
H88 C87 0.980 . S
H89 C87 0.981 . S
H90 C87 0.981 . S
O91 Zn67 2.066 . S
O91 C70 1.256 . S
O92 Zn64 2.053 . S
O92 C70 1.244 . S
C93 O71 1.259 . S
C93 O72 1.254 . S
O94 Zn64 2.066 . S
O94 C66 1.256 . S
O95 C66 1.244 . S
O95 Zn67 2.053 . S
Zn96 O97 2.055 . S
Zn96 O104 2.046 . S
Zn96 N112 2.036 . S
Zn96 O124 2.053 . S
Zn96 O126 2.066 . S
O97 Zn96 2.055 . S
O97 C100 1.259 . S
C98 O126 1.256 . S
C98 O127 1.244 . S
Zn99 O101 2.046 . S
Zn99 O103 2.055 . S
Zn99 N105 2.036 . S
Zn99 O123 2.066 . S
Zn99 O127 2.053 . S
C100 O97 1.259 . S
C100 O101 1.254 . S
O101 Zn99 2.046 . S
O101 C100 1.254 . S
C102 O123 1.256 . S
C102 O124 1.244 . S
O103 Zn99 2.055 . S
O103 C125 1.259 . S
O104 Zn96 2.046 . S
O104 C125 1.254 . S
N105 Zn99 2.036 . S
N105 C106 1.298 . S
N105 N108 1.398 . S
C106 N105 1.298 . S
C106 N109 1.367 . S
C106 C119 1.481 . S
C107 N108 1.299 . S
C107 N109 1.379 . S
N108 N105 1.398 . S
N108 C107 1.299 . S
N109 C106 1.367 . S
N109 C107 1.379 . S
C110 N112 1.298 . S
C110 N114 1.367 . S
C110 C118 1.481 . S
C111 N113 1.299 . S
C111 N114 1.379 . S
N112 Zn96 2.036 . S
N112 C110 1.298 . S
N112 N113 1.398 . S
N113 C111 1.299 . S
N113 N112 1.398 . S
N114 C110 1.367 . S
N114 C111 1.379 . S
H115 C118 0.980 . S
H116 C118 0.981 . S
H117 C118 0.981 . S
C118 C110 1.481 . S
C118 H115 0.980 . S
C118 H116 0.981 . S
C118 H117 0.981 . S
C119 C106 1.481 . S
C119 H120 0.980 . S
C119 H121 0.981 . S
C119 H122 0.981 . S
H120 C119 0.980 . S
H121 C119 0.981 . S
H122 C119 0.981 . S
O123 Zn99 2.066 . S
O123 C102 1.256 . S
O124 Zn96 2.053 . S
O124 C102 1.244 . S
C125 O103 1.259 . S
C125 O104 1.254 . S
O126 Zn96 2.066 . S
O126 C98 1.256 . S
O127 C98 1.244 . S
O127 Zn99 2.053 . S
Zn128 O129 2.055 . S
Zn128 O136 2.046 . S
Zn128 N144 2.036 . S
Zn128 O156 2.053 . S
Zn128 O158 2.066 . S
O129 Zn128 2.055 . S
O129 C132 1.259 . S
C130 O158 1.256 . S
C130 O159 1.244 . S
Zn131 O133 2.046 . S
Zn131 O135 2.055 . S
Zn131 N137 2.036 . S
Zn131 O155 2.066 . S
Zn131 O159 2.053 . S
C132 O129 1.259 . S
C132 O133 1.254 . S
O133 Zn131 2.046 . S
O133 C132 1.254 . S
C134 O155 1.256 . S
C134 O156 1.244 . S
O135 Zn131 2.055 . S
O135 C157 1.259 . S
O136 Zn128 2.046 . S
O136 C157 1.254 . S
N137 Zn131 2.036 . S
N137 C138 1.298 . S
N137 N140 1.398 . S
C138 N137 1.298 . S
C138 N141 1.367 . S
C138 C151 1.481 . S
C139 N140 1.299 . S
C139 N141 1.379 . S
N140 N137 1.398 . S
N140 C139 1.299 . S
N141 C138 1.367 . S
N141 C139 1.379 . S
C142 N144 1.298 . S
C142 N146 1.367 . S
C142 C150 1.481 . S
C143 N145 1.299 . S
C143 N146 1.379 . S
N144 Zn128 2.036 . S
N144 C142 1.298 . S
N144 N145 1.398 . S
N145 C143 1.299 . S
N145 N144 1.398 . S
N146 C142 1.367 . S
N146 C143 1.379 . S
H147 C150 0.980 . S
H148 C150 0.981 . S
H149 C150 0.981 . S
C150 C142 1.481 . S
C150 H147 0.980 . S
C150 H148 0.981 . S
C150 H149 0.981 . S
C151 C138 1.481 . S
C151 H152 0.980 . S
C151 H153 0.981 . S
C151 H154 0.981 . S
H152 C151 0.980 . S
H153 C151 0.981 . S
H154 C151 0.981 . S
O155 Zn131 2.066 . S
O155 C134 1.256 . S
O156 Zn128 2.053 . S
O156 C134 1.244 . S
C157 O135 1.259 . S
C157 O136 1.254 . S
O158 Zn128 2.066 . S
O158 C130 1.256 . S
O159 C130 1.244 . S
O159 Zn131 2.053 . S
Zn160 O161 2.055 . S
Zn160 O168 2.046 . S
Zn160 N176 2.036 . S
Zn160 O188 2.053 . S
Zn160 O190 2.066 . S
O161 Zn160 2.055 . S
O161 C164 1.259 . S
C162 O190 1.256 . S
C162 O191 1.244 . S
Zn163 O165 2.046 . S
Zn163 O167 2.055 . S
Zn163 N169 2.036 . S
Zn163 O187 2.066 . S
Zn163 O191 2.053 . S
C164 O161 1.259 . S
C164 O165 1.254 . S
O165 Zn163 2.046 . S
O165 C164 1.254 . S
C166 O187 1.256 . S
C166 O188 1.244 . S
O167 Zn163 2.055 . S
O167 C189 1.259 . S
O168 Zn160 2.046 . S
O168 C189 1.254 . S
N169 Zn163 2.036 . S
N169 C170 1.298 . S
N169 N172 1.398 . S
C170 N169 1.298 . S
C170 N173 1.367 . S
C170 C183 1.481 . S
C171 N172 1.299 . S
C171 N173 1.379 . S
N172 N169 1.398 . S
N172 C171 1.299 . S
N173 C170 1.367 . S
N173 C171 1.379 . S
C174 N176 1.298 . S
C174 N178 1.367 . S
C174 C182 1.481 . S
C175 N177 1.299 . S
C175 N178 1.379 . S
N176 Zn160 2.036 . S
N176 C174 1.298 . S
N176 N177 1.398 . S
N177 C175 1.299 . S
N177 N176 1.398 . S
N178 C174 1.367 . S
N178 C175 1.379 . S
H179 C182 0.980 . S
H180 C182 0.981 . S
H181 C182 0.981 . S
C182 C174 1.481 . S
C182 H179 0.980 . S
C182 H180 0.981 . S
C182 H181 0.981 . S
C183 C170 1.481 . S
C183 H184 0.980 . S
C183 H185 0.981 . S
C183 H186 0.981 . S
H184 C183 0.980 . S
H185 C183 0.981 . S
H186 C183 0.981 . S
O187 Zn163 2.066 . S
O187 C166 1.256 . S
O188 Zn160 2.053 . S
O188 C166 1.244 . S
C189 O167 1.259 . S
C189 O168 1.254 . S
O190 Zn160 2.066 . S
O190 C162 1.256 . S
O191 C162 1.244 . S
O191 Zn163 2.053 . S
Zn192 O193 2.055 . S
Zn192 O200 2.046 . S
Zn192 N208 2.036 . S
Zn192 O220 2.053 . S
Zn192 O222 2.066 . S
O193 Zn192 2.055 . S
O193 C196 1.259 . S
C194 O222 1.256 . S
C194 O223 1.244 . S
Zn195 O197 2.046 . S
Zn195 O199 2.055 . S
Zn195 N201 2.036 . S
Zn195 O219 2.066 . S
Zn195 O223 2.053 . S
C196 O193 1.259 . S
C196 O197 1.254 . S
O197 Zn195 2.046 . S
O197 C196 1.254 . S
C198 O219 1.256 . S
C198 O220 1.244 . S
O199 Zn195 2.055 . S
O199 C221 1.259 . S
O200 Zn192 2.046 . S
O200 C221 1.254 . S
N201 Zn195 2.036 . S
N201 C202 1.298 . S
N201 N204 1.398 . S
C202 N201 1.298 . S
C202 N205 1.367 . S
C202 C215 1.481 . S
C203 N204 1.299 . S
C203 N205 1.379 . S
N204 N201 1.398 . S
N204 C203 1.299 . S
N205 C202 1.367 . S
N205 C203 1.379 . S
C206 N208 1.298 . S
C206 N210 1.367 . S
C206 C214 1.481 . S
C207 N209 1.299 . S
C207 N210 1.379 . S
N208 Zn192 2.036 . S
N208 C206 1.298 . S
N208 N209 1.398 . S
N209 C207 1.299 . S
N209 N208 1.398 . S
N210 C206 1.367 . S
N210 C207 1.379 . S
H211 C214 0.980 . S
H212 C214 0.981 . S
H213 C214 0.981 . S
C214 C206 1.481 . S
C214 H211 0.980 . S
C214 H212 0.981 . S
C214 H213 0.981 . S
C215 C202 1.481 . S
C215 H216 0.980 . S
C215 H217 0.981 . S
C215 H218 0.981 . S
H216 C215 0.980 . S
H217 C215 0.981 . S
H218 C215 0.981 . S
O219 Zn195 2.066 . S
O219 C198 1.256 . S
O220 Zn192 2.053 . S
O220 C198 1.244 . S
C221 O199 1.259 . S
C221 O200 1.254 . S
O222 Zn192 2.066 . S
O222 C194 1.256 . S
O223 C194 1.244 . S
O223 Zn195 2.053 . S
Zn224 O225 2.055 . S
Zn224 O232 2.046 . S
Zn224 N240 2.036 . S
Zn224 O252 2.053 . S
Zn224 O254 2.066 . S
O225 Zn224 2.055 . S
O225 C228 1.259 . S
C226 O254 1.256 . S
C226 O255 1.244 . S
Zn227 O229 2.046 . S
Zn227 O231 2.055 . S
Zn227 N233 2.036 . S
Zn227 O251 2.066 . S
Zn227 O255 2.053 . S
C228 O225 1.259 . S
C228 O229 1.254 . S
O229 Zn227 2.046 . S
O229 C228 1.254 . S
C230 O251 1.256 . S
C230 O252 1.244 . S
O231 Zn227 2.055 . S
O231 C253 1.259 . S
O232 Zn224 2.046 . S
O232 C253 1.254 . S
N233 Zn227 2.036 . S
N233 C234 1.298 . S
N233 N236 1.398 . S
C234 N233 1.298 . S
C234 N237 1.367 . S
C234 C247 1.481 . S
C235 N236 1.299 . S
C235 N237 1.379 . S
N236 N233 1.398 . S
N236 C235 1.299 . S
N237 C234 1.367 . S
N237 C235 1.379 . S
C238 N240 1.298 . S
C238 N242 1.367 . S
C238 C246 1.481 . S
C239 N241 1.299 . S
C239 N242 1.379 . S
N240 Zn224 2.036 . S
N240 C238 1.298 . S
N240 N241 1.398 . S
N241 C239 1.299 . S
N241 N240 1.398 . S
N242 C238 1.367 . S
N242 C239 1.379 . S
H243 C246 0.980 . S
H244 C246 0.981 . S
H245 C246 0.981 . S
C246 C238 1.481 . S
C246 H243 0.980 . S
C246 H244 0.981 . S
C246 H245 0.981 . S
C247 C234 1.481 . S
C247 H248 0.980 . S
C247 H249 0.981 . S
C247 H250 0.981 . S
H248 C247 0.980 . S
H249 C247 0.981 . S
H250 C247 0.981 . S
O251 Zn227 2.066 . S
O251 C230 1.256 . S
O252 Zn224 2.053 . S
O252 C230 1.244 . S
C253 O231 1.259 . S
C253 O232 1.254 . S
O254 Zn224 2.066 . S
O254 C226 1.256 . S
O255 C226 1.244 . S
O255 Zn227 2.053 . S
Co256 N257 2.034 . S
Co256 O271 2.262 . S
Co256 O275 1.958 1_455 S
Co256 O279 1.950 1_565 S
Co256 O280 2.057 . S
N257 Co256 2.034 . S
N257 C258 1.366 . S
N257 C260 1.332 . S
C258 N257 1.366 . S
C258 C261 1.377 . S
C258 H290 0.931 . S
N259 C260 1.346 . S
N259 C261 1.337 . S
C260 N257 1.332 . S
C260 N259 1.346 . S
C260 C294 1.361 . S
C261 C258 1.377 . S
C261 N259 1.337 . S
C261 H297 0.930 . S
Co262 N263 2.034 . S
Co262 O276 1.950 1_655 S
Co262 O277 2.262 . S
Co262 O278 1.958 1_545 S
Co262 O282 2.057 . S
N263 Co262 2.034 . S
N263 C266 1.366 . S
N263 C267 1.332 . S
N264 C265 1.337 . S
N264 C267 1.346 . S
C265 N264 1.337 . S
C265 C266 1.377 . S
C265 H298 0.930 . S
C266 N263 1.366 . S
C266 C265 1.377 . S
C266 H270 0.931 . S
C267 N263 1.332 . S
C267 N264 1.346 . S
C267 C284 1.361 . S
Co268 O271 2.124 . S
Co268 O272 2.075 1_565 S
Co268 O273 2.083 1_565 S
Co268 O274 2.033 1_455 S
Co268 O277 2.070 1_465 S
Co268 O281 2.025 1_455 S
C269 O277 1.253 . S
C269 O282 1.263 . S
H270 C266 0.931 . S
O271 Co256 2.262 . S
O271 Co268 2.124 . S
O271 C295 1.253 . S
O272 Co268 2.075 1_545 S
O272 C288 1.221 . S
O273 Co268 2.083 1_545 S
O273 C283 1.221 . S
O274 Co268 2.033 1_655 S
O274 C289 1.237 . S
O275 Co256 1.958 1_655 S
O275 C289 1.278 . S
O276 Co262 1.950 1_455 S
O276 C288 1.277 . S
O277 Co262 2.262 . S
O277 Co268 2.070 1_645 S
O277 C269 1.253 . S
O278 Co262 1.958 1_565 S
O278 C296 1.278 . S
O279 Co256 1.950 1_545 S
O279 C283 1.277 . S
O280 Co256 2.057 . S
O280 C295 1.263 . S
O281 Co268 2.025 1_655 S
O281 C296 1.237 . S
O282 Co262 2.057 . S
O282 C269 1.263 . S
C283 O273 1.221 . S
C283 O279 1.277 . S
C284 C267 1.361 . S
C284 H285 0.960 . S
C284 H286 0.961 . S
C284 H287 0.961 . S
H285 C284 0.960 . S
H286 C284 0.961 . S
H287 C284 0.961 . S
C288 O272 1.221 . S
C288 O276 1.277 . S
C289 O274 1.237 . S
C289 O275 1.278 . S
H290 C258 0.931 . S
H291 C294 0.961 . S
H292 C294 0.961 . S
H293 C294 0.960 . S
C294 C260 1.361 . S
C294 H291 0.961 . S
C294 H292 0.961 . S
C294 H293 0.960 . S
C295 O271 1.253 . S
C295 O280 1.263 . S
C296 O278 1.278 . S
C296 O281 1.237 . S
H297 C261 0.930 . S
H298 C265 0.930 . S
Co299 N300 2.034 . S
Co299 O314 2.262 1_554 S
Co299 O318 1.958 . S
Co299 O322 1.924 1_565 S
Co299 O323 2.057 1_554 S
N300 Co299 2.034 . S
N300 C301 1.366 . S
N300 C303 1.332 . S
C301 N300 1.366 . S
C301 C304 1.377 . S
C301 H333 0.931 . S
N302 C303 1.346 . S
N302 C304 1.337 . S
C303 N300 1.332 . S
C303 N302 1.346 . S
C303 C337 1.361 . S
C304 C301 1.377 . S
C304 N302 1.337 . S
C304 H340 0.930 . S
Co305 N306 2.034 . S
Co305 O319 1.950 . S
Co305 O320 2.262 1_556 S
Co305 O321 1.958 1_545 S
Co305 O325 2.057 1_556 S
N306 Co305 2.034 . S
N306 C309 1.366 . S
N306 C310 1.332 . S
N307 C308 1.337 . S
N307 C310 1.346 . S
C308 N307 1.337 . S
C308 C309 1.377 . S
C308 H341 0.930 . S
C309 N306 1.366 . S
C309 C308 1.377 . S
C309 H313 0.931 . S
C310 N306 1.332 . S
C310 N307 1.346 . S
C310 C327 1.361 . S
Co311 O314 2.121 1_554 S
Co311 O315 2.046 1_564 S
Co311 O316 2.054 1_565 S
Co311 O317 2.061 . S
Co311 O320 2.073 1_565 S
Co311 O324 2.054 1_554 S
C312 O320 1.253 . S
C312 O325 1.263 . S
H313 C309 0.931 . S
O314 Co299 2.262 1_556 S
O314 Co311 2.121 1_556 S
O314 C338 1.253 . S
O315 Co311 2.046 1_546 S
O315 C331 1.221 . S
O316 Co311 2.054 1_545 S
O316 C326 1.221 . S
O317 Co311 2.061 . S
O317 C332 1.237 . S
O318 Co299 1.958 . S
O318 C332 1.278 . S
O319 Co305 1.950 . S
O319 C331 1.277 . S
O320 Co305 2.262 1_554 S
O320 Co311 2.073 1_545 S
O320 C312 1.253 . S
O321 Co305 1.958 1_565 S
O321 C339 1.278 . S
O322 Co299 1.924 1_545 S
O322 C326 1.305 . S
O323 Co299 2.057 1_556 S
O323 C338 1.263 . S
O324 Co311 2.054 1_556 S
O324 C339 1.237 . S
O325 Co305 2.057 1_554 S
O325 C312 1.263 . S
C326 O316 1.221 . S
C326 O322 1.305 . S
C327 C310 1.361 . S
C327 H328 0.960 . S
C327 H329 0.961 . S
C327 H330 0.961 . S
H328 C327 0.960 . S
H329 C327 0.961 . S
H330 C327 0.961 . S
C331 O315 1.221 . S
C331 O319 1.277 . S
C332 O317 1.237 . S
C332 O318 1.278 . S
H333 C301 0.931 . S
H334 C337 0.961 . S
H335 C337 0.961 . S
H336 C337 0.960 . S
C337 C303 1.361 . S
C337 H334 0.961 . S
C337 H335 0.961 . S
C337 H336 0.960 . S
C338 O314 1.253 . S
C338 O323 1.263 . S
C339 O321 1.278 . S
C339 O324 1.237 . S
H340 C304 0.930 . S
H341 C308 0.930 . S
Co342 N343 2.034 . S
Co342 O357 2.262 1_554 S
Co342 O361 1.958 1_455 S
Co342 O365 1.950 . S
Co342 O366 2.057 1_554 S
N343 Co342 2.034 . S
N343 C344 1.366 . S
N343 C346 1.332 . S
C344 N343 1.366 . S
C344 C347 1.377 . S
C344 H376 0.931 . S
N345 C346 1.346 . S
N345 C347 1.337 . S
C346 N343 1.332 . S
C346 N345 1.346 . S
C346 C380 1.361 . S
C347 C344 1.377 . S
C347 N345 1.337 . S
C347 H383 0.930 . S
Co348 N349 2.034 . S
Co348 O362 1.925 1_655 S
Co348 O363 2.262 1_556 S
Co348 O364 1.958 . S
Co348 O368 2.057 1_556 S
N349 Co348 2.034 . S
N349 C352 1.366 . S
N349 C353 1.332 . S
N350 C351 1.337 . S
N350 C353 1.346 . S
C351 N350 1.337 . S
C351 C352 1.377 . S
C351 H384 0.930 . S
C352 N349 1.366 . S
C352 C351 1.377 . S
C352 H356 0.931 . S
C353 N349 1.332 . S
C353 N350 1.346 . S
C353 C370 1.361 . S
Co354 O357 2.073 1_654 S
Co354 O358 2.054 1_654 S
Co354 O359 2.046 1_655 S
Co354 O360 2.054 . S
Co354 O363 2.121 . S
Co354 O367 2.061 1_554 S
C355 O363 1.253 . S
C355 O368 1.263 . S
H356 C352 0.931 . S
O357 Co342 2.262 1_556 S
O357 Co354 2.073 1_456 S
O357 C381 1.253 . S
O358 Co354 2.054 1_456 S
O358 C374 1.221 . S
O359 Co354 2.046 1_455 S
O359 C369 1.221 . S
O360 Co354 2.054 . S
O360 C375 1.237 . S
O361 Co342 1.958 1_655 S
O361 C375 1.278 . S
O362 Co348 1.925 1_455 S
O362 C374 1.305 . S
O363 Co348 2.262 1_554 S
O363 Co354 2.121 . S
O363 C355 1.253 . S
O364 Co348 1.958 . S
O364 C382 1.278 . S
O365 Co342 1.950 . S
O365 C369 1.277 . S
O366 Co342 2.057 1_556 S
O366 C381 1.263 . S
O367 Co354 2.061 1_556 S
O367 C382 1.237 . S
O368 Co348 2.057 1_554 S
O368 C355 1.263 . S
C369 O359 1.221 . S
C369 O365 1.277 . S
C370 C353 1.361 . S
C370 H371 0.960 . S
C370 H372 0.961 . S
C370 H373 0.961 . S
H371 C370 0.960 . S
H372 C370 0.961 . S
H373 C370 0.961 . S
C374 O358 1.221 . S
C374 O362 1.305 . S
C375 O360 1.237 . S
C375 O361 1.278 . S
H376 C344 0.931 . S
H377 C380 0.961 . S
H378 C380 0.961 . S
H379 C380 0.960 . S
C380 C346 1.361 . S
C380 H377 0.961 . S
C380 H378 0.961 . S
C380 H379 0.960 . S
C381 O357 1.253 . S
C381 O366 1.263 . S
C382 O364 1.278 . S
C382 O367 1.237 . S
H383 C347 0.930 . S
H384 C351 0.930 . S
Co385 N386 2.034 . S
Co385 O400 2.262 1_554 S
Co385 O404 1.958 . S
Co385 O408 1.950 . S
Co385 O409 2.057 1_554 S
N386 Co385 2.034 . S
N386 C387 1.366 . S
N386 C389 1.332 . S
C387 N386 1.366 . S
C387 C390 1.377 . S
C387 H419 0.931 . S
N388 C389 1.346 . S
N388 C390 1.337 . S
C389 N386 1.332 . S
C389 N388 1.346 . S
C389 C423 1.361 . S
C390 C387 1.377 . S
C390 N388 1.337 . S
C390 H426 0.930 . S
Co391 N392 2.034 . S
Co391 O405 1.950 . S
Co391 O406 2.262 1_556 S
Co391 O407 1.958 . S
Co391 O411 2.057 1_556 S
N392 Co391 2.034 . S
N392 C395 1.366 . S
N392 C396 1.332 . S
N393 C394 1.337 . S
N393 C396 1.346 . S
C394 N393 1.337 . S
C394 C395 1.377 . S
C394 H427 0.930 . S
C395 N392 1.366 . S
C395 C394 1.377 . S
C395 H399 0.931 . S
C396 N392 1.332 . S
C396 N393 1.346 . S
C396 C413 1.361 . S
Co397 O400 2.097 1_554 S
Co397 O401 2.065 1_554 S
Co397 O402 2.065 . S
Co397 O403 2.042 . S
Co397 O406 2.097 . S
Co397 O410 2.042 1_554 S
C398 O406 1.253 . S
C398 O411 1.263 . S
H399 C395 0.931 . S
O400 Co385 2.262 1_556 S
O400 Co397 2.097 1_556 S
O400 C424 1.253 . S
O401 Co397 2.065 1_556 S
O401 C417 1.221 . S
O402 Co397 2.065 . S
O402 C412 1.221 . S
O403 Co397 2.042 . S
O403 C418 1.237 . S
O404 Co385 1.958 . S
O404 C418 1.278 . S
O405 Co391 1.950 . S
O405 C417 1.277 . S
O406 Co391 2.262 1_554 S
O406 Co397 2.097 . S
O406 C398 1.253 . S
O407 Co391 1.958 . S
O407 C425 1.278 . S
O408 Co385 1.950 . S
O408 C412 1.277 . S
O409 Co385 2.057 1_556 S
O409 C424 1.263 . S
O410 Co397 2.042 1_556 S
O410 C425 1.237 . S
O411 Co391 2.057 1_554 S
O411 C398 1.263 . S
C412 O402 1.221 . S
C412 O408 1.277 . S
C413 C396 1.361 . S
C413 H414 0.960 . S
C413 H415 0.961 . S
C413 H416 0.961 . S
H414 C413 0.960 . S
H415 C413 0.961 . S
H416 C413 0.961 . S
C417 O401 1.221 . S
C417 O405 1.277 . S
C418 O403 1.237 . S
C418 O404 1.278 . S
H419 C387 0.931 . S
H420 C423 0.961 . S
H421 C423 0.961 . S
H422 C423 0.960 . S
C423 C389 1.361 . S
C423 H420 0.961 . S
C423 H421 0.961 . S
C423 H422 0.960 . S
C424 O400 1.253 . S
C424 O409 1.263 . S
C425 O407 1.278 . S
C425 O410 1.237 . S
H426 C390 0.930 . S
H427 C394 0.930 . S
Co428 N429 2.034 . S
Co428 O443 2.262 . S
Co428 O447 1.958 1_455 S
Co428 O451 1.950 . S
Co428 O452 2.057 . S
N429 Co428 2.034 . S
N429 C430 1.366 . S
N429 C432 1.332 . S
C430 N429 1.366 . S
C430 C433 1.377 . S
C430 H462 0.931 . S
N431 C432 1.346 . S
N431 C433 1.337 . S
C432 N429 1.332 . S
C432 N431 1.346 . S
C432 C466 1.361 . S
C433 C430 1.377 . S
C433 N431 1.337 . S
C433 H469 0.930 . S
Co434 N435 2.034 . S
Co434 O448 1.937 1_655 S
Co434 O449 2.262 . S
Co434 O450 1.958 . S
Co434 O454 2.057 . S
N435 Co434 2.034 . S
N435 C438 1.366 . S
N435 C439 1.332 . S
N436 C437 1.337 . S
N436 C439 1.346 . S
C437 N436 1.337 . S
C437 C438 1.377 . S
C437 H470 0.930 . S
C438 N435 1.366 . S
C438 C437 1.377 . S
C438 H442 0.931 . S
C439 N435 1.332 . S
C439 N436 1.346 . S
C439 C456 1.361 . S
Co440 O443 2.097 1_655 S
Co440 O444 2.065 1_655 S
Co440 O445 2.065 1_655 S
Co440 O446 2.042 . S
Co440 O449 2.097 . S
Co440 O453 2.042 . S
C441 O449 1.253 . S
C441 O454 1.263 . S
H442 C438 0.931 . S
O443 Co428 2.262 . S
O443 Co440 2.097 1_455 S
O443 C467 1.253 . S
O444 Co440 2.065 1_455 S
O444 C460 1.221 . S
O445 Co440 2.065 1_455 S
O445 C455 1.221 . S
O446 Co440 2.042 . S
O446 C461 1.237 . S
O447 Co428 1.958 1_655 S
O447 C461 1.278 . S
O448 Co434 1.937 1_455 S
O448 C460 1.291 . S
O449 Co434 2.262 . S
O449 Co440 2.097 . S
O449 C441 1.253 . S
O450 Co434 1.958 . S
O450 C468 1.278 . S
O451 Co428 1.950 . S
O451 C455 1.277 . S
O452 Co428 2.057 . S
O452 C467 1.263 . S
O453 Co440 2.042 . S
O453 C468 1.237 . S
O454 Co434 2.057 . S
O454 C441 1.263 . S
C455 O445 1.221 . S
C455 O451 1.277 . S
C456 C439 1.361 . S
C456 H457 0.960 . S
C456 H458 0.961 . S
C456 H459 0.961 . S
H457 C456 0.960 . S
H458 C456 0.961 . S
H459 C456 0.961 . S
C460 O444 1.221 . S
C460 O448 1.291 . S
C461 O446 1.237 . S
C461 O447 1.278 . S
H462 C430 0.931 . S
H463 C466 0.961 . S
H464 C466 0.961 . S
H465 C466 0.960 . S
C466 C432 1.361 . S
C466 H463 0.961 . S
C466 H464 0.961 . S
C466 H465 0.960 . S
C467 O443 1.253 . S
C467 O452 1.263 . S
C468 O450 1.278 . S
C468 O453 1.237 . S
H469 C433 0.930 . S
H470 C437 0.930 . S
Co471 N472 2.034 . S
Co471 O486 2.262 . S
Co471 O490 1.958 . S
Co471 O494 1.950 1_565 S
Co471 O495 2.057 . S
N472 Co471 2.034 . S
N472 C473 1.366 . S
N472 C475 1.332 . S
C473 N472 1.366 . S
C473 C476 1.377 . S
C473 H505 0.931 . S
N474 C475 1.346 . S
N474 C476 1.337 . S
C475 N472 1.332 . S
C475 N474 1.346 . S
C475 C509 1.361 . S
C476 C473 1.377 . S
C476 N474 1.337 . S
C476 H512 0.930 . S
Co477 N478 2.034 . S
Co477 O491 1.950 . S
Co477 O492 2.262 . S
Co477 O493 1.958 1_545 S
Co477 O497 2.057 . S
N478 Co477 2.034 . S
N478 C481 1.366 . S
N478 C482 1.332 . S
N479 C480 1.337 . S
N479 C482 1.346 . S
C480 N479 1.337 . S
C480 C481 1.377 . S
C480 H513 0.930 . S
C481 N478 1.366 . S
C481 C480 1.377 . S
C481 H485 0.931 . S
C482 N478 1.332 . S
C482 N479 1.346 . S
C482 C499 1.361 . S
Co483 O486 2.102 . S
Co483 O487 2.062 1_565 S
Co483 O488 2.063 1_565 S
Co483 O489 2.045 . S
Co483 O492 2.092 1_565 S
Co483 O496 2.044 . S
C484 O492 1.253 . S
C484 O497 1.263 . S
H485 C481 0.931 . S
O486 Co471 2.262 . S
O486 Co483 2.102 . S
O486 C510 1.253 . S
O487 Co483 2.062 1_545 S
O487 C503 1.221 . S
O488 Co483 2.063 1_545 S
O488 C498 1.221 . S
O489 Co483 2.045 . S
O489 C504 1.237 . S
O490 Co471 1.958 . S
O490 C504 1.278 . S
O491 Co477 1.950 . S
O491 C503 1.277 . S
O492 Co477 2.262 . S
O492 Co483 2.092 1_545 S
O492 C484 1.253 . S
O493 Co477 1.958 1_565 S
O493 C511 1.278 . S
O494 Co471 1.950 1_545 S
O494 C498 1.277 . S
O495 Co471 2.057 . S
O495 C510 1.263 . S
O496 Co483 2.044 . S
O496 C511 1.237 . S
O497 Co477 2.057 . S
O497 C484 1.263 . S
C498 O488 1.221 . S
C498 O494 1.277 . S
C499 C482 1.361 . S
C499 H500 0.960 . S
C499 H501 0.961 . S
C499 H502 0.961 . S
H500 C499 0.960 . S
H501 C499 0.961 . S
H502 C499 0.961 . S
C503 O487 1.221 . S
C503 O491 1.277 . S
C504 O489 1.237 . S
C504 O490 1.278 . S
H505 C473 0.931 . S
H506 C509 0.961 . S
H507 C509 0.961 . S
H508 C509 0.960 . S
C509 C475 1.361 . S
C509 H506 0.961 . S
C509 H507 0.961 . S
C509 H508 0.960 . S
C510 O486 1.253 . S
C510 O495 1.263 . S
C511 O493 1.278 . S
C511 O496 1.237 . S
H512 C476 0.930 . S
H513 C480 0.930 . S
C514 C515 1.391 . S
C514 C516 1.394 . S
C514 H530 0.931 . S
C515 C514 1.391 . S
C515 C519 1.376 . S
C516 C514 1.394 . S
C516 C517 1.369 . S
C516 C520 1.531 . S
C517 C516 1.369 . S
C517 C518 1.410 . S
C517 C525 1.503 . S
C518 C517 1.410 . S
C518 C519 1.392 . S
C518 C521 1.511 . S
C519 C515 1.376 . S
C519 C518 1.392 . S
C519 H531 0.929 . S
C520 C516 1.531 . S
C520 H532 0.960 . S
C520 H533 0.962 . S
C520 H534 0.960 . S
C521 C518 1.511 . S
C521 H535 0.961 . S
C521 H536 0.961 . S
C521 H537 0.961 . S
C522 C523 1.370 . S
C522 C524 1.363 . S
C522 H538 0.931 . S
C523 C522 1.370 . S
C523 C527 1.408 . S
C524 C522 1.363 . S
C524 C525 1.370 . S
C524 C528 1.524 . S
C525 C517 1.503 . S
C525 C524 1.370 . S
C525 C526 1.403 . S
C526 C525 1.403 . S
C526 C527 1.404 . S
C526 C529 1.539 . S
C527 C523 1.408 . S
C527 C526 1.404 . S
C527 H539 0.930 . S
C528 C524 1.524 . S
C528 H540 0.956 . S
C528 H541 0.961 . S
C528 H542 0.961 . S
C529 C526 1.539 . S
C529 H543 0.958 . S
C529 H544 0.961 . S
C529 H545 0.960 . S
H530 C514 0.931 . S
H531 C519 0.929 . S
H532 C520 0.960 . S
H533 C520 0.962 . S
H534 C520 0.960 . S
H535 C521 0.961 . S
H536 C521 0.961 . S
H537 C521 0.961 . S
H538 C522 0.931 . S
H539 C527 0.930 . S
H540 C528 0.956 . S
H541 C528 0.961 . S
H542 C528 0.961 . S
H543 C529 0.958 . S
H544 C529 0.961 . S
H545 C529 0.960 . S
C546 C547 1.391 . S
C546 C548 1.394 . S
C546 H562 0.931 . S
C547 C546 1.391 . S
C547 C551 1.376 . S
C548 C546 1.394 . S
C548 C549 1.369 . S
C548 C552 1.531 . S
C549 C548 1.369 . S
C549 C550 1.410 . S
C549 C557 1.503 . S
C550 C549 1.410 . S
C550 C551 1.392 . S
C550 C553 1.511 . S
C551 C547 1.376 . S
C551 C550 1.392 . S
C551 H563 0.929 . S
C552 C548 1.531 . S
C552 H564 0.960 . S
C552 H565 0.962 . S
C552 H566 0.960 . S
C553 C550 1.511 . S
C553 H567 0.961 . S
C553 H568 0.961 . S
C553 H569 0.961 . S
C554 C555 1.370 . S
C554 C556 1.363 . S
C554 H570 0.931 . S
C555 C554 1.370 . S
C555 C559 1.408 . S
C556 C554 1.363 . S
C556 C557 1.370 . S
C556 C560 1.524 . S
C557 C549 1.503 . S
C557 C556 1.370 . S
C557 C558 1.403 . S
C558 C557 1.403 . S
C558 C559 1.404 . S
C558 C561 1.539 . S
C559 C555 1.408 . S
C559 C558 1.404 . S
C559 H571 0.930 . S
C560 C556 1.524 . S
C560 H572 0.956 . S
C560 H573 0.961 . S
C560 H574 0.961 . S
C561 C558 1.539 . S
C561 H575 0.958 . S
C561 H576 0.961 . S
C561 H577 0.960 . S
H562 C546 0.931 . S
H563 C551 0.929 . S
H564 C552 0.960 . S
H565 C552 0.962 . S
H566 C552 0.960 . S
H567 C553 0.961 . S
H568 C553 0.961 . S
H569 C553 0.961 . S
H570 C554 0.931 . S
H571 C559 0.930 . S
H572 C560 0.956 . S
H573 C560 0.961 . S
H574 C560 0.961 . S
H575 C561 0.958 . S
H576 C561 0.961 . S
H577 C561 0.960 . S
C578 C579 1.391 . S
C578 C580 1.394 . S
C578 H594 0.931 . S
C579 C578 1.391 . S
C579 C583 1.376 . S
C580 C578 1.394 . S
C580 C581 1.369 . S
C580 C584 1.531 . S
C581 C580 1.369 . S
C581 C582 1.410 . S
C581 C589 1.503 . S
C582 C581 1.410 . S
C582 C583 1.392 . S
C582 C585 1.511 . S
C583 C579 1.376 . S
C583 C582 1.392 . S
C583 H595 0.929 . S
C584 C580 1.531 . S
C584 H596 0.960 . S
C584 H597 0.962 . S
C584 H598 0.960 . S
C585 C582 1.511 . S
C585 H599 0.961 . S
C585 H600 0.961 . S
C585 H601 0.961 . S
C586 C587 1.370 . S
C586 C588 1.363 . S
C586 H602 0.931 . S
C587 C586 1.370 . S
C587 C591 1.408 . S
C588 C586 1.363 . S
C588 C589 1.370 . S
C588 C592 1.524 . S
C589 C581 1.503 . S
C589 C588 1.370 . S
C589 C590 1.403 . S
C590 C589 1.403 . S
C590 C591 1.404 . S
C590 C593 1.539 . S
C591 C587 1.408 . S
C591 C590 1.404 . S
C591 H603 0.930 . S
C592 C588 1.524 . S
C592 H604 0.956 . S
C592 H605 0.961 . S
C592 H606 0.961 . S
C593 C590 1.539 . S
C593 H607 0.958 . S
C593 H608 0.961 . S
C593 H609 0.960 . S
H594 C578 0.931 . S
H595 C583 0.929 . S
H596 C584 0.960 . S
H597 C584 0.962 . S
H598 C584 0.960 . S
H599 C585 0.961 . S
H600 C585 0.961 . S
H601 C585 0.961 . S
H602 C586 0.931 . S
H603 C591 0.930 . S
H604 C592 0.956 . S
H605 C592 0.961 . S
H606 C592 0.961 . S
H607 C593 0.958 . S
H608 C593 0.961 . S
H609 C593 0.960 . S
C610 C611 1.391 . S
C610 C612 1.394 . S
C610 H626 0.931 . S
C611 C610 1.391 . S
C611 C615 1.376 . S
C612 C610 1.394 . S
C612 C613 1.369 . S
C612 C616 1.531 . S
C613 C612 1.369 . S
C613 C614 1.410 . S
C613 C621 1.503 . S
C614 C613 1.410 . S
C614 C615 1.392 . S
C614 C617 1.511 . S
C615 C611 1.376 . S
C615 C614 1.392 . S
C615 H627 0.929 . S
C616 C612 1.531 . S
C616 H628 0.960 . S
C616 H629 0.962 . S
C616 H630 0.960 . S
C617 C614 1.511 . S
C617 H631 0.961 . S
C617 H632 0.961 . S
C617 H633 0.961 . S
C618 C619 1.370 . S
C618 C620 1.363 . S
C618 H634 0.931 . S
C619 C618 1.370 . S
C619 C623 1.408 . S
C620 C618 1.363 . S
C620 C621 1.370 . S
C620 C624 1.524 . S
C621 C613 1.503 . S
C621 C620 1.370 . S
C621 C622 1.403 . S
C622 C621 1.403 . S
C622 C623 1.404 . S
C622 C625 1.539 . S
C623 C619 1.408 . S
C623 C622 1.404 . S
C623 H635 0.930 . S
C624 C620 1.524 . S
C624 H636 0.956 . S
C624 H637 0.961 . S
C624 H638 0.961 . S
C625 C622 1.539 . S
C625 H639 0.958 . S
C625 H640 0.961 . S
C625 H641 0.960 . S
H626 C610 0.931 . S
H627 C615 0.929 . S
H628 C616 0.960 . S
H629 C616 0.962 . S
H630 C616 0.960 . S
H631 C617 0.961 . S
H632 C617 0.961 . S
H633 C617 0.961 . S
H634 C618 0.931 . S
H635 C623 0.930 . S
H636 C624 0.956 . S
H637 C624 0.961 . S
H638 C624 0.961 . S
H639 C625 0.958 . S
H640 C625 0.961 . S
H641 C625 0.960 . S
C642 C643 1.391 . S
C642 C644 1.394 . S
C642 H658 0.931 . S
C643 C642 1.391 . S
C643 C647 1.376 . S
C644 C642 1.394 . S
C644 C645 1.369 . S
C644 C648 1.531 . S
C645 C644 1.369 . S
C645 C646 1.410 . S
C645 C653 1.503 . S
C646 C645 1.410 . S
C646 C647 1.392 . S
C646 C649 1.511 . S
C647 C643 1.376 . S
C647 C646 1.392 . S
C647 H659 0.929 . S
C648 C644 1.531 . S
C648 H660 0.960 . S
C648 H661 0.962 . S
C648 H662 0.960 . S
C649 C646 1.511 . S
C649 H663 0.961 . S
C649 H664 0.961 . S
C649 H665 0.961 . S
C650 C651 1.370 . S
C650 C652 1.363 . S
C650 H666 0.931 . S
C651 C650 1.370 . S
C651 C655 1.408 . S
C652 C650 1.363 . S
C652 C653 1.370 . S
C652 C656 1.524 . S
C653 C645 1.503 . S
C653 C652 1.370 . S
C653 C654 1.403 . S
C654 C653 1.403 . S
C654 C655 1.404 . S
C654 C657 1.539 . S
C655 C651 1.408 . S
C655 C654 1.404 . S
C655 H667 0.930 . S
C656 C652 1.524 . S
C656 H668 0.956 . S
C656 H669 0.961 . S
C656 H670 0.961 . S
C657 C654 1.539 . S
C657 H671 0.958 . S
C657 H672 0.961 . S
C657 H673 0.960 . S
H658 C642 0.931 . S
H659 C647 0.929 . S
H660 C648 0.960 . S
H661 C648 0.962 . S
H662 C648 0.960 . S
H663 C649 0.961 . S
H664 C649 0.961 . S
H665 C649 0.961 . S
H666 C650 0.931 . S
H667 C655 0.930 . S
H668 C656 0.956 . S
H669 C656 0.961 . S
H670 C656 0.961 . S
H671 C657 0.958 . S
H672 C657 0.961 . S
H673 C657 0.960 . S
C674 C675 1.391 . S
C674 C676 1.394 . S
C674 H690 0.931 . S
C675 C674 1.391 . S
C675 C679 1.376 . S
C676 C674 1.394 . S
C676 C677 1.369 . S
C676 C680 1.531 . S
C677 C676 1.369 . S
C677 C678 1.410 . S
C677 C685 1.503 . S
C678 C677 1.410 . S
C678 C679 1.392 . S
C678 C681 1.511 . S
C679 C675 1.376 . S
C679 C678 1.392 . S
C679 H691 0.929 . S
C680 C676 1.531 . S
C680 H692 0.960 . S
C680 H693 0.962 . S
C680 H694 0.960 . S
C681 C678 1.511 . S
C681 H695 0.961 . S
C681 H696 0.961 . S
C681 H697 0.961 . S
C682 C683 1.370 . S
C682 C684 1.363 . S
C682 H698 0.931 . S
C683 C682 1.370 . S
C683 C687 1.408 . S
C684 C682 1.363 . S
C684 C685 1.370 . S
C684 C688 1.524 . S
C685 C677 1.503 . S
C685 C684 1.370 . S
C685 C686 1.403 . S
C686 C685 1.403 . S
C686 C687 1.404 . S
C686 C689 1.539 . S
C687 C683 1.408 . S
C687 C686 1.404 . S
C687 H699 0.904 1_545 S
C688 C684 1.524 . S
C688 H700 0.956 . S
C688 H701 0.961 . S
C688 H702 0.961 . S
C689 C686 1.539 . S
C689 H703 0.958 . S
C689 H704 0.961 1_545 S
C689 H705 0.960 . S
H690 C674 0.931 . S
H691 C679 0.929 . S
H692 C680 0.960 . S
H693 C680 0.962 . S
H694 C680 0.960 . S
H695 C681 0.961 . S
H696 C681 0.961 . S
H697 C681 0.961 . S
H698 C682 0.931 . S
H699 C687 0.904 1_565 S
H700 C688 0.956 . S
H701 C688 0.961 . S
H702 C688 0.961 . S
H703 C689 0.958 . S
H704 C689 0.961 1_565 S
H705 C689 0.960 . S
C706 C707 1.391 . S
C706 C708 1.394 . S
C706 H722 0.931 . S
C707 C706 1.391 . S
C707 C711 1.376 . S
C708 C706 1.394 . S
C708 C709 1.369 . S
C708 C712 1.531 . S
C709 C708 1.369 . S
C709 C710 1.410 . S
C709 C717 1.503 . S
C710 C709 1.410 . S
C710 C711 1.392 . S
C710 C713 1.511 . S
C711 C707 1.376 . S
C711 C710 1.392 . S
C711 H723 0.929 . S
C712 C708 1.531 . S
C712 H724 0.960 . S
C712 H725 0.962 . S
C712 H726 0.960 . S
C713 C710 1.511 . S
C713 H727 0.961 . S
C713 H728 0.961 . S
C713 H729 0.961 . S
C714 C715 1.370 . S
C714 C716 1.363 . S
C714 H730 0.931 . S
C715 C714 1.370 . S
C715 C719 1.408 . S
C716 C714 1.363 . S
C716 C717 1.370 . S
C716 C720 1.524 . S
C717 C709 1.503 . S
C717 C716 1.370 . S
C717 C718 1.403 . S
C718 C717 1.403 . S
C718 C719 1.404 . S
C718 C721 1.539 . S
C719 C715 1.408 . S
C719 C718 1.404 . S
C719 H731 0.930 . S
C720 C716 1.524 . S
C720 H732 0.956 . S
C720 H733 0.961 . S
C720 H734 0.961 . S
C721 C718 1.539 . S
C721 H735 0.958 . S
C721 H736 0.961 . S
C721 H737 0.960 . S
H722 C706 0.931 . S
H723 C711 0.929 . S
H724 C712 0.960 . S
H725 C712 0.962 . S
H726 C712 0.960 . S
H727 C713 0.961 . S
H728 C713 0.961 . S
H729 C713 0.961 . S
H730 C714 0.931 . S
H731 C719 0.930 . S
H732 C720 0.956 . S
H733 C720 0.961 . S
H734 C720 0.961 . S
H735 C721 0.958 . S
H736 C721 0.961 . S
H737 C721 0.960 . S
C738 C739 1.391 . S
C738 C740 1.394 . S
C738 H754 0.931 . S
C739 C738 1.391 . S
C739 C743 1.376 . S
C740 C738 1.394 . S
C740 C741 1.369 . S
C740 C744 1.531 . S
C741 C740 1.369 . S
C741 C742 1.410 . S
C741 C749 1.503 . S
C742 C741 1.410 . S
C742 C743 1.392 . S
C742 C745 1.511 . S
C743 C739 1.376 . S
C743 C742 1.392 . S
C743 H755 0.929 . S
C744 C740 1.531 . S
C744 H756 0.960 . S
C744 H757 0.962 . S
C744 H758 0.960 . S
C745 C742 1.511 . S
C745 H759 0.961 . S
C745 H760 0.961 . S
C745 H761 0.961 . S
C746 C747 1.370 . S
C746 C748 1.363 . S
C746 H762 0.931 . S
C747 C746 1.370 . S
C747 C751 1.408 . S
C748 C746 1.363 . S
C748 C749 1.370 . S
C748 C752 1.524 . S
C749 C741 1.503 . S
C749 C748 1.370 . S
C749 C750 1.403 . S
C750 C749 1.403 . S
C750 C751 1.404 . S
C750 C753 1.539 . S
C751 C747 1.408 . S
C751 C750 1.404 . S
C751 H763 0.930 . S
C752 C748 1.524 . S
C752 H764 0.956 . S
C752 H765 0.961 . S
C752 H766 0.961 . S
C753 C750 1.539 . S
C753 H767 0.958 . S
C753 H768 0.961 . S
C753 H769 0.960 . S
H754 C738 0.931 . S
H755 C743 0.929 . S
H756 C744 0.960 . S
H757 C744 0.962 . S
H758 C744 0.960 . S
H759 C745 0.961 . S
H760 C745 0.961 . S
H761 C745 0.961 . S
H762 C746 0.931 . S
H763 C751 0.930 . S
H764 C752 0.956 . S
H765 C752 0.961 . S
H766 C752 0.961 . S
H767 C753 0.958 . S
H768 C753 0.961 . S
H769 C753 0.960 . S
C770 C771 1.391 . S
C770 C772 1.394 . S
C770 H786 0.931 . S
C771 C770 1.391 . S
C771 C775 1.376 . S
C772 C770 1.394 . S
C772 C773 1.369 . S
C772 C776 1.531 . S
C773 C772 1.369 . S
C773 C774 1.410 . S
C773 C781 1.503 . S
C774 C773 1.410 . S
C774 C775 1.392 . S
C774 C777 1.511 . S
C775 C771 1.376 . S
C775 C774 1.392 . S
C775 H787 0.929 . S
C776 C772 1.531 . S
C776 H788 0.960 . S
C776 H789 0.962 . S
C776 H790 0.960 . S
C777 C774 1.511 . S
C777 H791 0.961 . S
C777 H792 0.961 . S
C777 H793 0.961 . S
C778 C779 1.370 . S
C778 C780 1.363 . S
C778 H794 0.931 . S
C779 C778 1.370 . S
C779 C783 1.408 . S
C780 C778 1.363 . S
C780 C781 1.370 . S
C780 C784 1.524 . S
C781 C773 1.503 . S
C781 C780 1.370 . S
C781 C782 1.403 . S
C782 C781 1.403 . S
C782 C783 1.404 . S
C782 C785 1.539 . S
C783 C779 1.408 . S
C783 C782 1.404 . S
C783 H795 0.930 . S
C784 C780 1.524 . S
C784 H796 0.956 . S
C784 H797 0.961 . S
C784 H798 0.961 . S
C785 C782 1.539 . S
C785 H799 0.958 . S
C785 H800 0.961 . S
C785 H801 0.960 . S
H786 C770 0.931 . S
H787 C775 0.929 . S
H788 C776 0.960 . S
H789 C776 0.962 . S
H790 C776 0.960 . S
H791 C777 0.961 . S
H792 C777 0.961 . S
H793 C777 0.961 . S
H794 C778 0.931 . S
H795 C783 0.930 . S
H796 C784 0.956 . S
H797 C784 0.961 . S
H798 C784 0.961 . S
H799 C785 0.958 . S
H800 C785 0.961 . S
H801 C785 0.960 . S
C802 C803 1.391 . S
C802 C804 1.394 . S
C802 H818 0.931 . S
C803 C802 1.391 . S
C803 C807 1.376 . S
C804 C802 1.394 . S
C804 C805 1.369 . S
C804 C808 1.531 . S
C805 C804 1.369 . S
C805 C806 1.410 . S
C805 C813 1.503 . S
C806 C805 1.410 . S
C806 C807 1.392 . S
C806 C809 1.511 . S
C807 C803 1.376 . S
C807 C806 1.392 . S
C807 H819 0.929 . S
C808 C804 1.531 . S
C808 H820 0.960 . S
C808 H821 0.962 . S
C808 H822 0.960 . S
C809 C806 1.511 . S
C809 H823 0.961 . S
C809 H824 0.961 . S
C809 H825 0.961 . S
C810 C811 1.370 . S
C810 C812 1.363 . S
C810 H826 0.931 . S
C811 C810 1.370 . S
C811 C815 1.408 . S
C812 C810 1.363 . S
C812 C813 1.370 . S
C812 C816 1.524 . S
C813 C805 1.503 . S
C813 C812 1.370 . S
C813 C814 1.403 . S
C814 C813 1.403 . S
C814 C815 1.404 . S
C814 C817 1.539 . S
C815 C811 1.408 . S
C815 C814 1.404 . S
C815 H827 0.930 . S
C816 C812 1.524 . S
C816 H828 0.956 . S
C816 H829 0.961 . S
C816 H830 0.961 . S
C817 C814 1.539 . S
C817 H831 0.958 . S
C817 H832 0.961 . S
C817 H833 0.960 . S
H818 C802 0.931 . S
H819 C807 0.929 . S
H820 C808 0.960 . S
H821 C808 0.962 . S
H822 C808 0.960 . S
H823 C809 0.961 . S
H824 C809 0.961 . S
H825 C809 0.961 . S
H826 C810 0.931 . S
H827 C815 0.930 . S
H828 C816 0.956 . S
H829 C816 0.961 . S
H830 C816 0.961 . S
H831 C817 0.958 . S
H832 C817 0.961 . S
H833 C817 0.960 . S
C834 C835 1.391 . S
C834 C836 1.394 . S
C834 H850 0.931 . S
C835 C834 1.391 . S
C835 C839 1.376 . S
C836 C834 1.394 . S
C836 C837 1.369 . S
C836 C840 1.531 . S
C837 C836 1.369 . S
C837 C838 1.410 . S
C837 C845 1.503 . S
C838 C837 1.410 . S
C838 C839 1.392 . S
C838 C841 1.511 . S
C839 C835 1.376 . S
C839 C838 1.392 . S
C839 H851 0.929 . S
C840 C836 1.531 . S
C840 H852 0.960 . S
C840 H853 0.962 . S
C840 H854 0.960 . S
C841 C838 1.511 . S
C841 H855 0.961 . S
C841 H856 0.961 . S
C841 H857 0.961 . S
C842 C843 1.370 . S
C842 C844 1.363 . S
C842 H858 0.931 . S
C843 C842 1.370 . S
C843 C847 1.408 . S
C844 C842 1.363 . S
C844 C845 1.370 . S
C844 C848 1.524 . S
C845 C837 1.503 . S
C845 C844 1.370 . S
C845 C846 1.403 . S
C846 C845 1.403 . S
C846 C847 1.404 . S
C846 C849 1.539 . S
C847 C843 1.408 . S
C847 C846 1.404 . S
C847 H859 0.930 . S
C848 C844 1.524 . S
C848 H860 0.956 . S
C848 H861 0.961 . S
C848 H862 0.961 . S
C849 C846 1.539 . S
C849 H863 0.958 . S
C849 H864 0.961 . S
C849 H865 0.960 . S
H850 C834 0.931 . S
H851 C839 0.929 . S
H852 C840 0.960 . S
H853 C840 0.962 . S
H854 C840 0.960 . S
H855 C841 0.961 . S
H856 C841 0.961 . S
H857 C841 0.961 . S
H858 C842 0.931 . S
H859 C847 0.930 . S
H860 C848 0.956 . S
H861 C848 0.961 . S
H862 C848 0.961 . S
H863 C849 0.958 . S
H864 C849 0.961 . S
H865 C849 0.960 . S
C866 C867 1.391 . S
C866 C868 1.394 . S
C866 H882 0.931 . S
C867 C866 1.391 . S
C867 C871 1.376 . S
C868 C866 1.394 . S
C868 C869 1.369 . S
C868 C872 1.531 . S
C869 C868 1.369 . S
C869 C870 1.410 . S
C869 C877 1.503 . S
C870 C869 1.410 . S
C870 C871 1.392 . S
C870 C873 1.511 . S
C871 C867 1.376 . S
C871 C870 1.392 . S
C871 H883 0.929 . S
C872 C868 1.531 . S
C872 H884 0.960 . S
C872 H885 0.962 . S
C872 H886 0.960 . S
C873 C870 1.511 . S
C873 H887 0.961 . S
C873 H888 0.961 . S
C873 H889 0.961 . S
C874 C875 1.370 . S
C874 C876 1.363 . S
C874 H890 0.931 . S
C875 C874 1.370 . S
C875 C879 1.408 . S
C876 C874 1.363 . S
C876 C877 1.370 . S
C876 C880 1.524 . S
C877 C869 1.503 . S
C877 C876 1.370 . S
C877 C878 1.403 . S
C878 C877 1.403 . S
C878 C879 1.404 . S
C878 C881 1.539 . S
C879 C875 1.408 . S
C879 C878 1.404 . S
C879 H891 0.930 . S
C880 C876 1.524 . S
C880 H892 0.956 . S
C880 H893 0.961 . S
C880 H894 0.961 . S
C881 C878 1.539 . S
C881 H895 0.958 . S
C881 H896 0.961 . S
C881 H897 0.960 . S
H882 C866 0.931 . S
H883 C871 0.929 . S
H884 C872 0.960 . S
H885 C872 0.962 . S
H886 C872 0.960 . S
H887 C873 0.961 . S
H888 C873 0.961 . S
H889 C873 0.961 . S
H890 C874 0.931 . S
H891 C879 0.930 . S
H892 C880 0.956 . S
H893 C880 0.961 . S
H894 C880 0.961 . S
H895 C881 0.958 . S
H896 C881 0.961 . S
H897 C881 0.960 . S
C898 C899 1.391 . S
C898 C900 1.394 . S
C898 H914 0.931 . S
C899 C898 1.391 . S
C899 C903 1.376 . S
C900 C898 1.394 . S
C900 C901 1.369 . S
C900 C904 1.531 . S
C901 C900 1.369 . S
C901 C902 1.410 . S
C901 C909 1.503 . S
C902 C901 1.410 . S
C902 C903 1.392 . S
C902 C905 1.511 . S
C903 C899 1.376 . S
C903 C902 1.392 . S
C903 H915 0.929 . S
C904 C900 1.531 . S
C904 H916 0.960 . S
C904 H917 0.962 . S
C904 H918 0.960 . S
C905 C902 1.511 . S
C905 H919 0.961 . S
C905 H920 0.961 . S
C905 H921 0.961 . S
C906 C907 1.370 . S
C906 C908 1.363 . S
C906 H922 0.931 . S
C907 C906 1.370 . S
C907 C911 1.408 . S
C908 C906 1.363 . S
C908 C909 1.370 . S
C908 C912 1.524 . S
C909 C901 1.503 . S
C909 C908 1.370 . S
C909 C910 1.403 . S
C910 C909 1.403 . S
C910 C911 1.404 . S
C910 C913 1.539 . S
C911 C907 1.408 . S
C911 C910 1.404 . S
C911 H923 0.930 . S
C912 C908 1.524 . S
C912 H924 0.956 . S
C912 H925 0.961 . S
C912 H926 0.961 . S
C913 C910 1.539 . S
C913 H927 0.958 . S
C913 H928 0.961 . S
C913 H929 0.960 . S
H914 C898 0.931 . S
H915 C903 0.929 . S
H916 C904 0.960 . S
H917 C904 0.962 . S
H918 C904 0.960 . S
H919 C905 0.961 . S
H920 C905 0.961 . S
H921 C905 0.961 . S
H922 C906 0.931 . S
H923 C911 0.930 . S
H924 C912 0.956 . S
H925 C912 0.961 . S
H926 C912 0.961 . S
H927 C913 0.958 . S
H928 C913 0.961 . S
H929 C913 0.960 . S
C930 C931 1.391 . S
C930 C932 1.394 . S
C930 H946 0.931 . S
C931 C930 1.391 . S
C931 C935 1.376 . S
C932 C930 1.394 . S
C932 C933 1.369 . S
C932 C936 1.531 . S
C933 C932 1.369 . S
C933 C934 1.410 . S
C933 C941 1.503 . S
C934 C933 1.410 . S
C934 C935 1.392 . S
C934 C937 1.511 . S
C935 C931 1.376 . S
C935 C934 1.392 . S
C935 H947 0.929 . S
C936 C932 1.531 . S
C936 H948 0.960 . S
C936 H949 0.962 . S
C936 H950 0.960 . S
C937 C934 1.511 . S
C937 H951 0.961 . S
C937 H952 0.961 . S
C937 H953 0.961 . S
C938 C939 1.370 . S
C938 C940 1.363 . S
C938 H954 0.931 . S
C939 C938 1.370 . S
C939 C943 1.408 . S
C940 C938 1.363 . S
C940 C941 1.370 . S
C940 C944 1.524 . S
C941 C933 1.503 . S
C941 C940 1.370 . S
C941 C942 1.403 . S
C942 C941 1.403 . S
C942 C943 1.404 . S
C942 C945 1.539 . S
C943 C939 1.408 . S
C943 C942 1.404 . S
C943 H955 0.930 . S
C944 C940 1.524 . S
C944 H956 0.956 . S
C944 H957 0.961 . S
C944 H958 0.961 . S
C945 C942 1.539 . S
C945 H959 0.958 . S
C945 H960 0.961 . S
C945 H961 0.960 . S
H946 C930 0.931 . S
H947 C935 0.929 . S
H948 C936 0.960 . S
H949 C936 0.962 . S
H950 C936 0.960 . S
H951 C937 0.961 . S
H952 C937 0.961 . S
H953 C937 0.961 . S
H954 C938 0.931 . S
H955 C943 0.930 . S
H956 C944 0.956 . S
H957 C944 0.961 . S
H958 C944 0.961 . S
H959 C945 0.958 . S
H960 C945 0.961 . S
H961 C945 0.960 . S
C962 C963 1.391 . S
C962 C964 1.394 . S
C962 H978 0.931 . S
C963 C962 1.391 . S
C963 C967 1.376 . S
C964 C962 1.394 . S
C964 C965 1.369 . S
C964 C968 1.531 . S
C965 C964 1.369 . S
C965 C966 1.410 . S
C965 C973 1.503 . S
C966 C965 1.410 . S
C966 C967 1.392 . S
C966 C969 1.511 . S
C967 C963 1.376 . S
C967 C966 1.392 . S
C967 H979 0.929 . S
C968 C964 1.531 . S
C968 H980 0.960 . S
C968 H981 0.962 . S
C968 H982 0.960 . S
C969 C966 1.511 . S
C969 H983 0.961 . S
C969 H984 0.961 . S
C969 H985 0.961 . S
C970 C971 1.370 . S
C970 C972 1.363 . S
C970 H986 0.931 . S
C971 C970 1.370 . S
C971 C975 1.408 . S
C972 C970 1.363 . S
C972 C973 1.370 . S
C972 C976 1.524 . S
C973 C965 1.503 . S
C973 C972 1.370 . S
C973 C974 1.403 . S
C974 C973 1.403 . S
C974 C975 1.404 . S
C974 C977 1.539 . S
C975 C971 1.408 . S
C975 C974 1.404 . S
C975 H987 0.930 . S
C976 C972 1.524 . S
C976 H988 0.956 . S
C976 H989 0.961 . S
C976 H990 0.961 . S
C977 C974 1.539 . S
C977 H991 0.958 . S
C977 H992 0.961 . S
C977 H993 0.960 . S
H978 C962 0.931 . S
H979 C967 0.929 . S
H980 C968 0.960 . S
H981 C968 0.962 . S
H982 C968 0.960 . S
H983 C969 0.961 . S
H984 C969 0.961 . S
H985 C969 0.961 . S
H986 C970 0.931 . S
H987 C975 0.930 . S
H988 C976 0.956 . S
H989 C976 0.961 . S
H990 C976 0.961 . S
H991 C977 0.958 . S
H992 C977 0.961 . S
H993 C977 0.960 . S
C994 C995 1.391 . S
C994 C996 1.394 . S
C994 H1010 0.931 . S
C995 C994 1.391 . S
C995 C999 1.376 . S
C996 C994 1.394 . S
C996 C997 1.369 . S
C996 C1000 1.531 . S
C997 C996 1.369 . S
C997 C998 1.410 . S
C997 C1005 1.503 . S
C998 C997 1.410 . S
C998 C999 1.392 . S
C998 C1001 1.511 . S
C999 C995 1.376 . S
C999 C998 1.392 . S
C999 H1011 0.929 . S
C1000 C996 1.531 . S
C1000 H1012 0.960 . S
C1000 H1013 0.962 . S
C1000 H1014 0.960 . S
C1001 C998 1.511 . S
C1001 H1015 0.961 . S
C1001 H1016 0.961 . S
C1001 H1017 0.961 . S
C1002 C1003 1.370 . S
C1002 C1004 1.363 . S
C1002 H1018 0.931 . S
C1003 C1002 1.370 . S
C1003 C1007 1.408 . S
C1004 C1002 1.363 . S
C1004 C1005 1.370 . S
C1004 C1008 1.524 . S
C1005 C997 1.503 . S
C1005 C1004 1.370 . S
C1005 C1006 1.403 . S
C1006 C1005 1.403 . S
C1006 C1007 1.404 . S
C1006 C1009 1.539 . S
C1007 C1003 1.408 . S
C1007 C1006 1.404 . S
C1007 H1019 0.930 . S
C1008 C1004 1.524 . S
C1008 H1020 0.956 . S
C1008 H1021 0.961 . S
C1008 H1022 0.961 . S
C1009 C1006 1.539 . S
C1009 H1023 0.958 . S
C1009 H1024 0.961 . S
C1009 H1025 0.960 . S
H1010 C994 0.931 . S
H1011 C999 0.929 . S
H1012 C1000 0.960 . S
H1013 C1000 0.962 . S
H1014 C1000 0.960 . S
H1015 C1001 0.961 . S
H1016 C1001 0.961 . S
H1017 C1001 0.961 . S
H1018 C1002 0.931 . S
H1019 C1007 0.930 . S
H1020 C1008 0.956 . S
H1021 C1008 0.961 . S
H1022 C1008 0.961 . S
H1023 C1009 0.958 . S
H1024 C1009 0.961 . S
H1025 C1009 0.960 . S
C1026 C1027 1.391 . S
C1026 C1028 1.394 . S
C1026 H1042 0.931 . S
C1027 C1026 1.391 . S
C1027 C1031 1.376 . S
C1028 C1026 1.394 . S
C1028 C1029 1.369 . S
C1028 C1032 1.531 . S
C1029 C1028 1.369 . S
C1029 C1030 1.410 . S
C1029 C1037 1.503 . S
C1030 C1029 1.410 . S
C1030 C1031 1.392 . S
C1030 C1033 1.511 . S
C1031 C1027 1.376 . S
C1031 C1030 1.392 . S
C1031 H1043 0.929 . S
C1032 C1028 1.531 . S
C1032 H1044 0.960 . S
C1032 H1045 0.962 . S
C1032 H1046 0.960 . S
C1033 C1030 1.511 . S
C1033 H1047 0.961 . S
C1033 H1048 0.961 . S
C1033 H1049 0.961 . S
C1034 C1035 1.370 . S
C1034 C1036 1.363 . S
C1034 H1050 0.931 . S
C1035 C1034 1.370 . S
C1035 C1039 1.408 . S
C1036 C1034 1.363 . S
C1036 C1037 1.370 . S
C1036 C1040 1.524 . S
C1037 C1029 1.503 . S
C1037 C1036 1.370 . S
C1037 C1038 1.403 . S
C1038 C1037 1.403 . S
C1038 C1039 1.404 . S
C1038 C1041 1.539 . S
C1039 C1035 1.408 . S
C1039 C1038 1.404 . S
C1039 H1051 0.930 . S
C1040 C1036 1.524 . S
C1040 H1052 0.956 . S
C1040 H1053 0.961 . S
C1040 H1054 0.961 . S
C1041 C1038 1.539 . S
C1041 H1055 0.958 . S
C1041 H1056 0.961 . S
C1041 H1057 0.960 . S
H1042 C1026 0.931 . S
H1043 C1031 0.929 . S
H1044 C1032 0.960 . S
H1045 C1032 0.962 . S
H1046 C1032 0.960 . S
H1047 C1033 0.961 . S
H1048 C1033 0.961 . S
H1049 C1033 0.961 . S
H1050 C1034 0.931 . S
H1051 C1039 0.930 . S
H1052 C1040 0.956 . S
H1053 C1040 0.961 . S
H1054 C1040 0.961 . S
H1055 C1041 0.958 . S
H1056 C1041 0.961 . S
H1057 C1041 0.960 . S
C1058 C1059 1.391 . S
C1058 C1060 1.394 . S
C1058 H1074 0.931 . S
C1059 C1058 1.391 . S
C1059 C1063 1.376 . S
C1060 C1058 1.394 . S
C1060 C1061 1.369 . S
C1060 C1064 1.531 . S
C1061 C1060 1.369 . S
C1061 C1062 1.410 . S
C1061 C1069 1.503 . S
C1062 C1061 1.410 . S
C1062 C1063 1.392 . S
C1062 C1065 1.511 . S
C1063 C1059 1.376 . S
C1063 C1062 1.392 . S
C1063 H1075 0.929 . S
C1064 C1060 1.531 . S
C1064 H1076 0.960 . S
C1064 H1077 0.962 . S
C1064 H1078 0.960 . S
C1065 C1062 1.511 . S
C1065 H1079 0.961 . S
C1065 H1080 0.961 . S
C1065 H1081 0.961 . S
C1066 C1067 1.370 . S
C1066 C1068 1.363 . S
C1066 H1082 0.931 . S
C1067 C1066 1.370 . S
C1067 C1071 1.408 . S
C1068 C1066 1.363 . S
C1068 C1069 1.370 . S
C1068 C1072 1.524 . S
C1069 C1061 1.503 . S
C1069 C1068 1.370 . S
C1069 C1070 1.403 . S
C1070 C1069 1.403 . S
C1070 C1071 1.404 . S
C1070 C1073 1.539 . S
C1071 C1067 1.408 . S
C1071 C1070 1.404 . S
C1071 H1083 0.930 . S
C1072 C1068 1.524 . S
C1072 H1084 0.956 . S
C1072 H1085 0.961 . S
C1072 H1086 0.961 . S
C1073 C1070 1.539 . S
C1073 H1087 0.958 . S
C1073 H1088 0.961 . S
C1073 H1089 0.960 . S
H1074 C1058 0.931 . S
H1075 C1063 0.929 . S
H1076 C1064 0.960 . S
H1077 C1064 0.962 . S
H1078 C1064 0.960 . S
H1079 C1065 0.961 . S
H1080 C1065 0.961 . S
H1081 C1065 0.961 . S
H1082 C1066 0.931 . S
H1083 C1071 0.930 . S
H1084 C1072 0.956 . S
H1085 C1072 0.961 . S
H1086 C1072 0.961 . S
H1087 C1073 0.958 . S
H1088 C1073 0.961 . S
H1089 C1073 0.960 . S
C1090 C1091 1.391 . S
C1090 C1092 1.394 . S
C1090 H1106 0.931 . S
C1091 C1090 1.391 . S
C1091 C1095 1.376 . S
C1092 C1090 1.394 . S
C1092 C1093 1.369 . S
C1092 C1096 1.531 . S
C1093 C1092 1.369 . S
C1093 C1094 1.410 . S
C1093 C1101 1.503 . S
C1094 C1093 1.410 . S
C1094 C1095 1.392 . S
C1094 C1097 1.511 . S
C1095 C1091 1.376 . S
C1095 C1094 1.392 . S
C1095 H1107 0.929 . S
C1096 C1092 1.531 . S
C1096 H1108 0.960 . S
C1096 H1109 0.962 . S
C1096 H1110 0.960 . S
C1097 C1094 1.511 . S
C1097 H1111 0.961 . S
C1097 H1112 0.961 . S
C1097 H1113 0.961 . S
C1098 C1099 1.370 . S
C1098 C1100 1.363 . S
C1098 H1114 0.931 . S
C1099 C1098 1.370 . S
C1099 C1103 1.408 . S
C1100 C1098 1.363 . S
C1100 C1101 1.370 . S
C1100 C1104 1.524 . S
C1101 C1093 1.503 . S
C1101 C1100 1.370 . S
C1101 C1102 1.403 . S
C1102 C1101 1.403 . S
C1102 C1103 1.404 . S
C1102 C1105 1.539 . S
C1103 C1099 1.408 . S
C1103 C1102 1.404 . S
C1103 H1115 0.930 . S
C1104 C1100 1.524 . S
C1104 H1116 0.956 . S
C1104 H1117 0.961 . S
C1104 H1118 0.961 . S
C1105 C1102 1.539 . S
C1105 H1119 0.958 . S
C1105 H1120 0.961 . S
C1105 H1121 0.960 . S
H1106 C1090 0.931 . S
H1107 C1095 0.929 . S
H1108 C1096 0.960 . S
H1109 C1096 0.962 . S
H1110 C1096 0.960 . S
H1111 C1097 0.961 . S
H1112 C1097 0.961 . S
H1113 C1097 0.961 . S
H1114 C1098 0.931 . S
H1115 C1103 0.930 . S
H1116 C1104 0.956 . S
H1117 C1104 0.961 . S
H1118 C1104 0.961 . S
H1119 C1105 0.958 . S
H1120 C1105 0.961 . S
H1121 C1105 0.960 . S
C1122 C1123 1.391 . S
C1122 C1124 1.394 . S
C1122 H1138 0.931 . S
C1123 C1122 1.391 . S
C1123 C1127 1.376 . S
C1124 C1122 1.394 . S
C1124 C1125 1.369 . S
C1124 C1128 1.531 . S
C1125 C1124 1.369 . S
C1125 C1126 1.410 . S
C1125 C1133 1.503 . S
C1126 C1125 1.410 . S
C1126 C1127 1.392 . S
C1126 C1129 1.511 . S
C1127 C1123 1.376 . S
C1127 C1126 1.392 . S
C1127 H1139 0.929 . S
C1128 C1124 1.531 . S
C1128 H1140 0.960 . S
C1128 H1141 0.962 . S
C1128 H1142 0.960 . S
C1129 C1126 1.511 . S
C1129 H1143 0.961 . S
C1129 H1144 0.961 . S
C1129 H1145 0.961 . S
C1130 C1131 1.370 . S
C1130 C1132 1.363 . S
C1130 H1146 0.931 . S
C1131 C1130 1.370 . S
C1131 C1135 1.408 . S
C1132 C1130 1.363 . S
C1132 C1133 1.370 . S
C1132 C1136 1.524 . S
C1133 C1125 1.503 . S
C1133 C1132 1.370 . S
C1133 C1134 1.403 . S
C1134 C1133 1.403 . S
C1134 C1135 1.404 . S
C1134 C1137 1.539 . S
C1135 C1131 1.408 . S
C1135 C1134 1.404 . S
C1135 H1147 0.930 . S
C1136 C1132 1.524 . S
C1136 H1148 0.956 . S
C1136 H1149 0.961 . S
C1136 H1150 0.961 . S
C1137 C1134 1.539 . S
C1137 H1151 0.958 . S
C1137 H1152 0.961 . S
C1137 H1153 0.960 . S
H1138 C1122 0.931 . S
H1139 C1127 0.929 . S
H1140 C1128 0.960 . S
H1141 C1128 0.962 . S
H1142 C1128 0.960 . S
H1143 C1129 0.961 . S
H1144 C1129 0.961 . S
H1145 C1129 0.961 . S
H1146 C1130 0.931 . S
H1147 C1135 0.930 . S
H1148 C1136 0.956 . S
H1149 C1136 0.961 . S
H1150 C1136 0.961 . S
H1151 C1137 0.958 . S
H1152 C1137 0.961 . S
H1153 C1137 0.960 . S
C1154 C1155 1.391 . S
C1154 C1156 1.394 . S
C1154 H1170 0.931 . S
C1155 C1154 1.391 . S
C1155 C1159 1.376 . S
C1156 C1154 1.394 . S
C1156 C1157 1.369 . S
C1156 C1160 1.531 . S
C1157 C1156 1.369 . S
C1157 C1158 1.410 . S
C1157 C1165 1.503 . S
C1158 C1157 1.410 . S
C1158 C1159 1.392 . S
C1158 C1161 1.511 . S
C1159 C1155 1.376 . S
C1159 C1158 1.392 . S
C1159 H1171 0.929 . S
C1160 C1156 1.531 . S
C1160 H1172 0.960 . S
C1160 H1173 0.962 . S
C1160 H1174 0.960 . S
C1161 C1158 1.511 . S
C1161 H1175 0.961 . S
C1161 H1176 0.961 . S
C1161 H1177 0.961 . S
C1162 C1163 1.370 . S
C1162 C1164 1.363 . S
C1162 H1178 0.931 . S
C1163 C1162 1.370 . S
C1163 C1167 1.408 . S
C1164 C1162 1.363 . S
C1164 C1165 1.370 . S
C1164 C1168 1.524 . S
C1165 C1157 1.503 . S
C1165 C1164 1.370 . S
C1165 C1166 1.403 . S
C1166 C1165 1.403 . S
C1166 C1167 1.404 . S
C1166 C1169 1.539 . S
C1167 C1163 1.408 . S
C1167 C1166 1.404 . S
C1167 H1179 0.930 . S
C1168 C1164 1.524 . S
C1168 H1180 0.956 . S
C1168 H1181 0.961 . S
C1168 H1182 0.961 . S
C1169 C1166 1.539 . S
C1169 H1183 0.958 . S
C1169 H1184 0.961 . S
C1169 H1185 0.960 . S
H1170 C1154 0.931 . S
H1171 C1159 0.929 . S
H1172 C1160 0.960 . S
H1173 C1160 0.962 . S
H1174 C1160 0.960 . S
H1175 C1161 0.961 . S
H1176 C1161 0.961 . S
H1177 C1161 0.961 . S
H1178 C1162 0.931 . S
H1179 C1167 0.930 . S
H1180 C1168 0.956 . S
H1181 C1168 0.961 . S
H1182 C1168 0.961 . S
H1183 C1169 0.958 . S
H1184 C1169 0.961 . S
H1185 C1169 0.960 . S
C1186 C1187 1.391 . S
C1186 C1188 1.394 . S
C1186 H1202 0.931 . S
C1187 C1186 1.391 . S
C1187 C1191 1.376 . S
C1188 C1186 1.394 . S
C1188 C1189 1.369 . S
C1188 C1192 1.531 . S
C1189 C1188 1.369 . S
C1189 C1190 1.410 . S
C1189 C1197 1.503 . S
C1190 C1189 1.410 . S
C1190 C1191 1.392 . S
C1190 C1193 1.511 . S
C1191 C1187 1.376 . S
C1191 C1190 1.392 . S
C1191 H1203 0.929 . S
C1192 C1188 1.531 . S
C1192 H1204 0.960 . S
C1192 H1205 0.962 . S
C1192 H1206 0.960 . S
C1193 C1190 1.511 . S
C1193 H1207 0.961 . S
C1193 H1208 0.961 . S
C1193 H1209 0.961 . S
C1194 C1195 1.370 . S
C1194 C1196 1.363 . S
C1194 H1210 0.931 . S
C1195 C1194 1.370 . S
C1195 C1199 1.408 . S
C1196 C1194 1.363 . S
C1196 C1197 1.370 . S
C1196 C1200 1.524 . S
C1197 C1189 1.503 . S
C1197 C1196 1.370 . S
C1197 C1198 1.403 . S
C1198 C1197 1.403 . S
C1198 C1199 1.404 . S
C1198 C1201 1.539 . S
C1199 C1195 1.408 . S
C1199 C1198 1.404 . S
C1199 H1211 0.930 . S
C1200 C1196 1.524 . S
C1200 H1212 0.956 . S
C1200 H1213 0.961 . S
C1200 H1214 0.961 . S
C1201 C1198 1.539 . S
C1201 H1215 0.958 . S
C1201 H1216 0.961 . S
C1201 H1217 0.960 . S
H1202 C1186 0.931 . S
H1203 C1191 0.929 . S
H1204 C1192 0.960 . S
H1205 C1192 0.962 . S
H1206 C1192 0.960 . S
H1207 C1193 0.961 . S
H1208 C1193 0.961 . S
H1209 C1193 0.961 . S
H1210 C1194 0.931 . S
H1211 C1199 0.930 . S
H1212 C1200 0.956 . S
H1213 C1200 0.961 . S
H1214 C1200 0.961 . S
H1215 C1201 0.958 . S
H1216 C1201 0.961 . S
H1217 C1201 0.960 . S
C1218 C1219 1.391 . S
C1218 C1220 1.394 . S
C1218 H1234 0.931 . S
C1219 C1218 1.391 . S
C1219 C1223 1.376 . S
C1220 C1218 1.394 . S
C1220 C1221 1.369 . S
C1220 C1224 1.531 . S
C1221 C1220 1.369 . S
C1221 C1222 1.410 . S
C1221 C1229 1.503 . S
C1222 C1221 1.410 . S
C1222 C1223 1.392 . S
C1222 C1225 1.511 . S
C1223 C1219 1.376 . S
C1223 C1222 1.392 . S
C1223 H1235 0.929 . S
C1224 C1220 1.531 . S
C1224 H1236 0.960 . S
C1224 H1237 0.962 . S
C1224 H1238 0.960 . S
C1225 C1222 1.511 . S
C1225 H1239 0.961 . S
C1225 H1240 0.961 . S
C1225 H1241 0.961 . S
C1226 C1227 1.370 . S
C1226 C1228 1.363 . S
C1226 H1242 0.931 . S
C1227 C1226 1.370 . S
C1227 C1231 1.408 . S
C1228 C1226 1.363 . S
C1228 C1229 1.370 . S
C1228 C1232 1.524 . S
C1229 C1221 1.503 . S
C1229 C1228 1.370 . S
C1229 C1230 1.403 . S
C1230 C1229 1.403 . S
C1230 C1231 1.404 . S
C1230 C1233 1.539 . S
C1231 C1227 1.408 . S
C1231 C1230 1.404 . S
C1231 H1243 0.930 . S
C1232 C1228 1.524 . S
C1232 H1244 0.956 . S
C1232 H1245 0.961 . S
C1232 H1246 0.961 . S
C1233 C1230 1.539 . S
C1233 H1247 0.958 . S
C1233 H1248 0.961 . S
C1233 H1249 0.960 . S
H1234 C1218 0.931 . S
H1235 C1223 0.929 . S
H1236 C1224 0.960 . S
H1237 C1224 0.962 . S
H1238 C1224 0.960 . S
H1239 C1225 0.961 . S
H1240 C1225 0.961 . S
H1241 C1225 0.961 . S
H1242 C1226 0.931 . S
H1243 C1231 0.930 . S
H1244 C1232 0.956 . S
H1245 C1232 0.961 . S
H1246 C1232 0.961 . S
H1247 C1233 0.958 . S
H1248 C1233 0.961 . S
H1249 C1233 0.960 . S
C1250 C1251 1.391 . S
C1250 C1252 1.394 . S
C1250 H1266 0.931 . S
C1251 C1250 1.391 . S
C1251 C1255 1.376 . S
C1252 C1250 1.394 . S
C1252 C1253 1.369 . S
C1252 C1256 1.531 . S
C1253 C1252 1.369 . S
C1253 C1254 1.410 . S
C1253 C1261 1.503 . S
C1254 C1253 1.410 . S
C1254 C1255 1.392 . S
C1254 C1257 1.511 . S
C1255 C1251 1.376 . S
C1255 C1254 1.392 . S
C1255 H1267 0.929 . S
C1256 C1252 1.531 . S
C1256 H1268 0.960 . S
C1256 H1269 0.962 . S
C1256 H1270 0.960 . S
C1257 C1254 1.511 . S
C1257 H1271 0.961 . S
C1257 H1272 0.961 . S
C1257 H1273 0.961 . S
C1258 C1259 1.370 . S
C1258 C1260 1.363 . S
C1258 H1274 0.931 . S
C1259 C1258 1.370 . S
C1259 C1263 1.408 . S
C1260 C1258 1.363 . S
C1260 C1261 1.370 . S
C1260 C1264 1.524 . S
C1261 C1253 1.503 . S
C1261 C1260 1.370 . S
C1261 C1262 1.403 . S
C1262 C1261 1.403 . S
C1262 C1263 1.404 . S
C1262 C1265 1.539 . S
C1263 C1259 1.408 . S
C1263 C1262 1.404 . S
C1263 H1275 0.930 . S
C1264 C1260 1.524 . S
C1264 H1276 0.956 . S
C1264 H1277 0.961 . S
C1264 H1278 0.961 . S
C1265 C1262 1.539 . S
C1265 H1279 0.958 . S
C1265 H1280 0.961 . S
C1265 H1281 0.960 . S
H1266 C1250 0.931 . S
H1267 C1255 0.929 . S
H1268 C1256 0.960 . S
H1269 C1256 0.962 . S
H1270 C1256 0.960 . S
H1271 C1257 0.961 . S
H1272 C1257 0.961 . S
H1273 C1257 0.961 . S
H1274 C1258 0.931 . S
H1275 C1263 0.930 . S
H1276 C1264 0.956 . S
H1277 C1264 0.961 . S
H1278 C1264 0.961 . S
H1279 C1265 0.958 . S
H1280 C1265 0.961 . S
H1281 C1265 0.960 . S
C1282 C1283 1.391 . S
C1282 C1284 1.394 . S
C1282 H1298 0.931 . S
C1283 C1282 1.391 . S
C1283 C1287 1.376 . S
C1284 C1282 1.394 . S
C1284 C1285 1.369 . S
C1284 C1288 1.531 . S
C1285 C1284 1.369 . S
C1285 C1286 1.410 . S
C1285 C1293 1.503 . S
C1286 C1285 1.410 . S
C1286 C1287 1.392 . S
C1286 C1289 1.511 . S
C1287 C1283 1.376 . S
C1287 C1286 1.392 . S
C1287 H1299 0.929 . S
C1288 C1284 1.531 . S
C1288 H1300 0.960 . S
C1288 H1301 0.962 . S
C1288 H1302 0.960 . S
C1289 C1286 1.511 . S
C1289 H1303 0.961 . S
C1289 H1304 0.961 . S
C1289 H1305 0.961 . S
C1290 C1291 1.370 . S
C1290 C1292 1.363 . S
C1290 H1306 0.931 . S
C1291 C1290 1.370 . S
C1291 C1295 1.408 . S
C1292 C1290 1.363 . S
C1292 C1293 1.370 . S
C1292 C1296 1.524 . S
C1293 C1285 1.503 . S
C1293 C1292 1.370 . S
C1293 C1294 1.403 . S
C1294 C1293 1.403 . S
C1294 C1295 1.404 . S
C1294 C1297 1.539 . S
C1295 C1291 1.408 . S
C1295 C1294 1.404 . S
C1295 H1307 0.930 . S
C1296 C1292 1.524 . S
C1296 H1308 0.956 . S
C1296 H1309 0.961 . S
C1296 H1310 0.961 . S
C1297 C1294 1.539 . S
C1297 H1311 0.958 . S
C1297 H1312 0.961 . S
C1297 H1313 0.960 . S
H1298 C1282 0.931 . S
H1299 C1287 0.929 . S
H1300 C1288 0.960 . S
H1301 C1288 0.962 . S
H1302 C1288 0.960 . S
H1303 C1289 0.961 . S
H1304 C1289 0.961 . S
H1305 C1289 0.961 . S
H1306 C1290 0.931 . S
H1307 C1295 0.930 . S
H1308 C1296 0.956 . S
H1309 C1296 0.961 . S
H1310 C1296 0.961 . S
H1311 C1297 0.958 . S
H1312 C1297 0.961 . S
H1313 C1297 0.960 . S
C1314 C1315 1.391 . S
C1314 C1316 1.394 . S
C1314 H1330 0.931 . S
C1315 C1314 1.391 . S
C1315 C1319 1.376 . S
C1316 C1314 1.394 . S
C1316 C1317 1.369 . S
C1316 C1320 1.531 . S
C1317 C1316 1.369 . S
C1317 C1318 1.410 . S
C1317 C1325 1.503 . S
C1318 C1317 1.410 . S
C1318 C1319 1.392 . S
C1318 C1321 1.511 . S
C1319 C1315 1.376 . S
C1319 C1318 1.392 . S
C1319 H1331 0.929 . S
C1320 C1316 1.531 . S
C1320 H1332 0.960 . S
C1320 H1333 0.962 . S
C1320 H1334 0.960 . S
C1321 C1318 1.511 . S
C1321 H1335 0.961 . S
C1321 H1336 0.961 . S
C1321 H1337 0.961 . S
C1322 C1323 1.370 . S
C1322 C1324 1.363 . S
C1322 H1338 0.931 . S
C1323 C1322 1.370 . S
C1323 C1327 1.408 . S
C1324 C1322 1.363 . S
C1324 C1325 1.370 . S
C1324 C1328 1.524 . S
C1325 C1317 1.503 . S
C1325 C1324 1.370 . S
C1325 C1326 1.403 . S
C1326 C1325 1.403 . S
C1326 C1327 1.404 . S
C1326 C1329 1.539 . S
C1327 C1323 1.408 . S
C1327 C1326 1.404 . S
C1327 H1339 0.930 . S
C1328 C1324 1.524 . S
C1328 H1340 0.956 . S
C1328 H1341 0.961 . S
C1328 H1342 0.961 . S
C1329 C1326 1.539 . S
C1329 H1343 0.958 . S
C1329 H1344 0.961 . S
C1329 H1345 0.960 . S
H1330 C1314 0.931 . S
H1331 C1319 0.929 . S
H1332 C1320 0.960 . S
H1333 C1320 0.962 . S
H1334 C1320 0.960 . S
H1335 C1321 0.961 . S
H1336 C1321 0.961 . S
H1337 C1321 0.961 . S
H1338 C1322 0.931 . S
H1339 C1327 0.930 . S
H1340 C1328 0.956 . S
H1341 C1328 0.961 . S
H1342 C1328 0.961 . S
H1343 C1329 0.958 . S
H1344 C1329 0.961 . S
H1345 C1329 0.960 . S
C1346 C1347 1.391 . S
C1346 C1348 1.394 . S
C1346 H1362 0.931 . S
C1347 C1346 1.391 . S
C1347 C1351 1.376 . S
C1348 C1346 1.394 . S
C1348 C1349 1.369 . S
C1348 C1352 1.531 . S
C1349 C1348 1.369 . S
C1349 C1350 1.410 . S
C1349 C1357 1.503 . S
C1350 C1349 1.410 . S
C1350 C1351 1.392 . S
C1350 C1353 1.511 . S
C1351 C1347 1.376 . S
C1351 C1350 1.392 . S
C1351 H1363 0.929 . S
C1352 C1348 1.531 . S
C1352 H1364 0.960 . S
C1352 H1365 0.962 . S
C1352 H1366 0.960 . S
C1353 C1350 1.511 . S
C1353 H1367 0.961 . S
C1353 H1368 0.961 . S
C1353 H1369 0.961 . S
C1354 C1355 1.370 . S
C1354 C1356 1.363 . S
C1354 H1370 0.931 . S
C1355 C1354 1.370 . S
C1355 C1359 1.408 . S
C1356 C1354 1.363 . S
C1356 C1357 1.370 . S
C1356 C1360 1.524 . S
C1357 C1349 1.503 . S
C1357 C1356 1.370 . S
C1357 C1358 1.403 . S
C1358 C1357 1.403 . S
C1358 C1359 1.404 . S
C1358 C1361 1.539 . S
C1359 C1355 1.408 . S
C1359 C1358 1.404 . S
C1359 H1371 0.930 . S
C1360 C1356 1.524 . S
C1360 H1372 0.956 . S
C1360 H1373 0.961 . S
C1360 H1374 0.961 . S
C1361 C1358 1.539 . S
C1361 H1375 0.958 . S
C1361 H1376 0.961 . S
C1361 H1377 0.960 . S
H1362 C1346 0.931 . S
H1363 C1351 0.929 . S
H1364 C1352 0.960 . S
H1365 C1352 0.962 . S
H1366 C1352 0.960 . S
H1367 C1353 0.961 . S
H1368 C1353 0.961 . S
H1369 C1353 0.961 . S
H1370 C1354 0.931 . S
H1371 C1359 0.930 . S
H1372 C1360 0.956 . S
H1373 C1360 0.961 . S
H1374 C1360 0.961 . S
H1375 C1361 0.958 . S
H1376 C1361 0.961 . S
H1377 C1361 0.960 . S
C1378 C1379 1.391 . S
C1378 C1380 1.394 . S
C1378 H1394 0.931 . S
C1379 C1378 1.391 . S
C1379 C1383 1.376 . S
C1380 C1378 1.394 . S
C1380 C1381 1.369 . S
C1380 C1384 1.531 . S
C1381 C1380 1.369 . S
C1381 C1382 1.410 . S
C1381 C1389 1.503 . S
C1382 C1381 1.410 . S
C1382 C1383 1.392 . S
C1382 C1385 1.511 . S
C1383 C1379 1.376 . S
C1383 C1382 1.392 . S
C1383 H1395 0.929 . S
C1384 C1380 1.531 . S
C1384 H1396 0.960 . S
C1384 H1397 0.962 . S
C1384 H1398 0.960 . S
C1385 C1382 1.511 . S
C1385 H1399 0.961 . S
C1385 H1400 0.961 . S
C1385 H1401 0.961 . S
C1386 C1387 1.370 . S
C1386 C1388 1.363 . S
C1386 H1402 0.931 . S
C1387 C1386 1.370 . S
C1387 C1391 1.408 . S
C1388 C1386 1.363 . S
C1388 C1389 1.370 . S
C1388 C1392 1.524 . S
C1389 C1381 1.503 . S
C1389 C1388 1.370 . S
C1389 C1390 1.403 . S
C1390 C1389 1.403 . S
C1390 C1391 1.404 . S
C1390 C1393 1.539 . S
C1391 C1387 1.408 . S
C1391 C1390 1.404 . S
C1391 H1403 0.930 . S
C1392 C1388 1.524 . S
C1392 H1404 0.956 . S
C1392 H1405 0.961 . S
C1392 H1406 0.961 . S
C1393 C1390 1.539 . S
C1393 H1407 0.958 . S
C1393 H1408 0.961 . S
C1393 H1409 0.960 . S
H1394 C1378 0.931 . S
H1395 C1383 0.929 . S
H1396 C1384 0.960 . S
H1397 C1384 0.962 . S
H1398 C1384 0.960 . S
H1399 C1385 0.961 . S
H1400 C1385 0.961 . S
H1401 C1385 0.961 . S
H1402 C1386 0.931 . S
H1403 C1391 0.930 . S
H1404 C1392 0.956 . S
H1405 C1392 0.961 . S
H1406 C1392 0.961 . S
H1407 C1393 0.958 . S
H1408 C1393 0.961 . S
H1409 C1393 0.960 . S
C1410 C1411 1.391 . S
C1410 C1412 1.394 . S
C1410 H1426 0.931 . S
C1411 C1410 1.391 . S
C1411 C1415 1.376 . S
C1412 C1410 1.394 . S
C1412 C1413 1.369 . S
C1412 C1416 1.531 . S
C1413 C1412 1.369 . S
C1413 C1414 1.410 . S
C1413 C1421 1.503 . S
C1414 C1413 1.410 . S
C1414 C1415 1.392 . S
C1414 C1417 1.511 . S
C1415 C1411 1.376 . S
C1415 C1414 1.392 . S
C1415 H1427 0.929 . S
C1416 C1412 1.531 . S
C1416 H1428 0.960 . S
C1416 H1429 0.962 . S
C1416 H1430 0.960 . S
C1417 C1414 1.511 . S
C1417 H1431 0.961 . S
C1417 H1432 0.961 . S
C1417 H1433 0.961 . S
C1418 C1419 1.370 . S
C1418 C1420 1.363 . S
C1418 H1434 0.931 . S
C1419 C1418 1.370 . S
C1419 C1423 1.408 . S
C1420 C1418 1.363 . S
C1420 C1421 1.370 . S
C1420 C1424 1.524 . S
C1421 C1413 1.503 . S
C1421 C1420 1.370 . S
C1421 C1422 1.403 . S
C1422 C1421 1.403 . S
C1422 C1423 1.404 . S
C1422 C1425 1.539 . S
C1423 C1419 1.408 . S
C1423 C1422 1.404 . S
C1423 H1435 0.930 . S
C1424 C1420 1.524 . S
C1424 H1436 0.956 . S
C1424 H1437 0.961 . S
C1424 H1438 0.961 . S
C1425 C1422 1.539 . S
C1425 H1439 0.958 . S
C1425 H1440 0.961 . S
C1425 H1441 0.960 . S
H1426 C1410 0.931 . S
H1427 C1415 0.929 . S
H1428 C1416 0.960 . S
H1429 C1416 0.962 . S
H1430 C1416 0.960 . S
H1431 C1417 0.961 . S
H1432 C1417 0.961 . S
H1433 C1417 0.961 . S
H1434 C1418 0.931 . S
H1435 C1423 0.930 . S
H1436 C1424 0.956 . S
H1437 C1424 0.961 . S
H1438 C1424 0.961 . S
H1439 C1425 0.958 . S
H1440 C1425 0.961 . S
H1441 C1425 0.960 . S
C1442 C1443 1.391 . S
C1442 C1444 1.394 . S
C1442 H1458 0.931 . S
C1443 C1442 1.391 . S
C1443 C1447 1.376 . S
C1444 C1442 1.394 . S
C1444 C1445 1.369 . S
C1444 C1448 1.531 . S
C1445 C1444 1.369 . S
C1445 C1446 1.410 . S
C1445 C1453 1.503 . S
C1446 C1445 1.410 . S
C1446 C1447 1.392 . S
C1446 C1449 1.511 . S
C1447 C1443 1.376 . S
C1447 C1446 1.392 . S
C1447 H1459 0.929 . S
C1448 C1444 1.531 . S
C1448 H1460 0.960 . S
C1448 H1461 0.962 . S
C1448 H1462 0.960 . S
C1449 C1446 1.511 . S
C1449 H1463 0.961 . S
C1449 H1464 0.961 . S
C1449 H1465 0.961 . S
C1450 C1451 1.370 . S
C1450 C1452 1.363 . S
C1450 H1466 0.931 . S
C1451 C1450 1.370 . S
C1451 C1455 1.408 . S
C1452 C1450 1.363 . S
C1452 C1453 1.370 . S
C1452 C1456 1.524 . S
C1453 C1445 1.503 . S
C1453 C1452 1.370 . S
C1453 C1454 1.403 . S
C1454 C1453 1.403 . S
C1454 C1455 1.404 . S
C1454 C1457 1.539 . S
C1455 C1451 1.408 . S
C1455 C1454 1.404 . S
C1455 H1467 0.930 . S
C1456 C1452 1.524 . S
C1456 H1468 0.956 . S
C1456 H1469 0.961 . S
C1456 H1470 0.961 . S
C1457 C1454 1.539 . S
C1457 H1471 0.958 . S
C1457 H1472 0.961 . S
C1457 H1473 0.960 . S
H1458 C1442 0.931 . S
H1459 C1447 0.929 . S
H1460 C1448 0.960 . S
H1461 C1448 0.962 . S
H1462 C1448 0.960 . S
H1463 C1449 0.961 . S
H1464 C1449 0.961 . S
H1465 C1449 0.961 . S
H1466 C1450 0.931 . S
H1467 C1455 0.930 . S
H1468 C1456 0.956 . S
H1469 C1456 0.961 . S
H1470 C1456 0.961 . S
H1471 C1457 0.958 . S
H1472 C1457 0.961 . S
H1473 C1457 0.960 . S
C1474 C1475 1.391 . S
C1474 C1476 1.394 . S
C1474 H1490 0.931 . S
C1475 C1474 1.391 . S
C1475 C1479 1.376 . S
C1476 C1474 1.394 . S
C1476 C1477 1.369 . S
C1476 C1480 1.531 . S
C1477 C1476 1.369 . S
C1477 C1478 1.410 . S
C1477 C1485 1.503 . S
C1478 C1477 1.410 . S
C1478 C1479 1.392 . S
C1478 C1481 1.511 . S
C1479 C1475 1.376 . S
C1479 C1478 1.392 . S
C1479 H1491 0.929 . S
C1480 C1476 1.531 . S
C1480 H1492 0.960 . S
C1480 H1493 0.962 . S
C1480 H1494 0.960 . S
C1481 C1478 1.511 . S
C1481 H1495 0.961 . S
C1481 H1496 0.961 . S
C1481 H1497 0.961 . S
C1482 C1483 1.370 . S
C1482 C1484 1.363 . S
C1482 H1498 0.931 . S
C1483 C1482 1.370 . S
C1483 C1487 1.408 . S
C1484 C1482 1.363 . S
C1484 C1485 1.370 . S
C1484 C1488 1.524 . S
C1485 C1477 1.503 . S
C1485 C1484 1.370 . S
C1485 C1486 1.403 . S
C1486 C1485 1.403 . S
C1486 C1487 1.404 . S
C1486 C1489 1.539 . S
C1487 C1483 1.408 . S
C1487 C1486 1.404 . S
C1487 H1499 0.930 . S
C1488 C1484 1.524 . S
C1488 H1500 0.956 . S
C1488 H1501 0.961 . S
C1488 H1502 0.961 . S
C1489 C1486 1.539 . S
C1489 H1503 0.958 . S
C1489 H1504 0.961 . S
C1489 H1505 0.960 . S
H1490 C1474 0.931 . S
H1491 C1479 0.929 . S
H1492 C1480 0.960 . S
H1493 C1480 0.962 . S
H1494 C1480 0.960 . S
H1495 C1481 0.961 . S
H1496 C1481 0.961 . S
H1497 C1481 0.961 . S
H1498 C1482 0.931 . S
H1499 C1487 0.930 . S
H1500 C1488 0.956 . S
H1501 C1488 0.961 . S
H1502 C1488 0.961 . S
H1503 C1489 0.958 . S
H1504 C1489 0.961 . S
H1505 C1489 0.960 . S
C1506 C1507 1.391 . S
C1506 C1508 1.394 . S
C1506 H1522 0.931 . S
C1507 C1506 1.391 . S
C1507 C1511 1.376 . S
C1508 C1506 1.394 . S
C1508 C1509 1.369 . S
C1508 C1512 1.531 . S
C1509 C1508 1.369 . S
C1509 C1510 1.410 . S
C1509 C1517 1.503 . S
C1510 C1509 1.410 . S
C1510 C1511 1.392 . S
C1510 C1513 1.511 . S
C1511 C1507 1.376 . S
C1511 C1510 1.392 . S
C1511 H1523 0.929 . S
C1512 C1508 1.531 . S
C1512 H1524 0.960 . S
C1512 H1525 0.962 . S
C1512 H1526 0.960 . S
C1513 C1510 1.511 . S
C1513 H1527 0.961 . S
C1513 H1528 0.961 . S
C1513 H1529 0.961 . S
C1514 C1515 1.370 . S
C1514 C1516 1.363 . S
C1514 H1530 0.931 . S
C1515 C1514 1.370 . S
C1515 C1519 1.408 . S
C1516 C1514 1.363 . S
C1516 C1517 1.370 . S
C1516 C1520 1.524 . S
C1517 C1509 1.503 . S
C1517 C1516 1.370 . S
C1517 C1518 1.403 . S
C1518 C1517 1.403 . S
C1518 C1519 1.404 . S
C1518 C1521 1.539 . S
C1519 C1515 1.408 . S
C1519 C1518 1.404 . S
C1519 H1531 0.930 . S
C1520 C1516 1.524 . S
C1520 H1532 0.956 . S
C1520 H1533 0.961 . S
C1520 H1534 0.961 . S
C1521 C1518 1.539 . S
C1521 H1535 0.958 . S
C1521 H1536 0.961 . S
C1521 H1537 0.960 . S
H1522 C1506 0.931 . S
H1523 C1511 0.929 . S
H1524 C1512 0.960 . S
H1525 C1512 0.962 . S
H1526 C1512 0.960 . S
H1527 C1513 0.961 . S
H1528 C1513 0.961 . S
H1529 C1513 0.961 . S
H1530 C1514 0.931 . S
H1531 C1519 0.930 . S
H1532 C1520 0.956 . S
H1533 C1520 0.961 . S
H1534 C1520 0.961 . S
H1535 C1521 0.958 . S
H1536 C1521 0.961 . S
H1537 C1521 0.960 . S
C1538 C1539 1.391 . S
C1538 C1540 1.394 . S
C1538 H1554 0.931 . S
C1539 C1538 1.391 . S
C1539 C1543 1.376 . S
C1540 C1538 1.394 . S
C1540 C1541 1.369 . S
C1540 C1544 1.531 . S
C1541 C1540 1.369 . S
C1541 C1542 1.410 . S
C1541 C1549 1.503 . S
C1542 C1541 1.410 . S
C1542 C1543 1.392 . S
C1542 C1545 1.511 . S
C1543 C1539 1.376 . S
C1543 C1542 1.392 . S
C1543 H1555 0.929 . S
C1544 C1540 1.531 . S
C1544 H1556 0.960 . S
C1544 H1557 0.962 . S
C1544 H1558 0.960 . S
C1545 C1542 1.511 . S
C1545 H1559 0.961 . S
C1545 H1560 0.961 . S
C1545 H1561 0.961 . S
C1546 C1547 1.370 . S
C1546 C1548 1.363 . S
C1546 H1562 0.931 . S
C1547 C1546 1.370 . S
C1547 C1551 1.408 . S
C1548 C1546 1.363 . S
C1548 C1549 1.370 . S
C1548 C1552 1.524 . S
C1549 C1541 1.503 . S
C1549 C1548 1.370 . S
C1549 C1550 1.403 . S
C1550 C1549 1.403 . S
C1550 C1551 1.404 . S
C1550 C1553 1.539 . S
C1551 C1547 1.408 . S
C1551 C1550 1.404 . S
C1551 H1563 0.930 . S
C1552 C1548 1.524 . S
C1552 H1564 0.956 . S
C1552 H1565 0.961 . S
C1552 H1566 0.961 . S
C1553 C1550 1.539 . S
C1553 H1567 0.958 . S
C1553 H1568 0.961 . S
C1553 H1569 0.960 . S
H1554 C1538 0.931 . S
H1555 C1543 0.929 . S
H1556 C1544 0.960 . S
H1557 C1544 0.962 . S
H1558 C1544 0.960 . S
H1559 C1545 0.961 . S
H1560 C1545 0.961 . S
H1561 C1545 0.961 . S
H1562 C1546 0.931 . S
H1563 C1551 0.930 . S
H1564 C1552 0.956 . S
H1565 C1552 0.961 . S
H1566 C1552 0.961 . S
H1567 C1553 0.958 . S
H1568 C1553 0.961 . S
H1569 C1553 0.960 . S
C1570 C1571 1.391 . S
C1570 C1572 1.394 . S
C1570 H1586 0.931 . S
C1571 C1570 1.391 . S
C1571 C1575 1.376 . S
C1572 C1570 1.394 . S
C1572 C1573 1.369 . S
C1572 C1576 1.531 . S
C1573 C1572 1.369 . S
C1573 C1574 1.410 . S
C1573 C1581 1.503 . S
C1574 C1573 1.410 . S
C1574 C1575 1.392 . S
C1574 C1577 1.511 . S
C1575 C1571 1.376 . S
C1575 C1574 1.392 . S
C1575 H1587 0.929 . S
C1576 C1572 1.531 . S
C1576 H1588 0.960 . S
C1576 H1589 0.962 . S
C1576 H1590 0.960 . S
C1577 C1574 1.511 . S
C1577 H1591 0.961 . S
C1577 H1592 0.961 . S
C1577 H1593 0.961 . S
C1578 C1579 1.370 . S
C1578 C1580 1.363 . S
C1578 H1594 0.931 . S
C1579 C1578 1.370 . S
C1579 C1583 1.408 . S
C1580 C1578 1.363 . S
C1580 C1581 1.370 . S
C1580 C1584 1.524 . S
C1581 C1573 1.503 . S
C1581 C1580 1.370 . S
C1581 C1582 1.403 . S
C1582 C1581 1.403 . S
C1582 C1583 1.404 . S
C1582 C1585 1.539 . S
C1583 C1579 1.408 . S
C1583 C1582 1.404 . S
C1583 H1595 0.930 . S
C1584 C1580 1.524 . S
C1584 H1596 0.956 . S
C1584 H1597 0.961 . S
C1584 H1598 0.961 . S
C1585 C1582 1.539 . S
C1585 H1599 0.958 . S
C1585 H1600 0.961 . S
C1585 H1601 0.960 . S
H1586 C1570 0.931 . S
H1587 C1575 0.929 . S
H1588 C1576 0.960 . S
H1589 C1576 0.962 . S
H1590 C1576 0.960 . S
H1591 C1577 0.961 . S
H1592 C1577 0.961 . S
H1593 C1577 0.961 . S
H1594 C1578 0.931 . S
H1595 C1583 0.930 . S
H1596 C1584 0.956 . S
H1597 C1584 0.961 . S
H1598 C1584 0.961 . S
H1599 C1585 0.958 . S
H1600 C1585 0.961 . S
H1601 C1585 0.960 . S
C1602 C1603 1.391 . S
C1602 C1604 1.394 . S
C1602 H1618 0.931 . S
C1603 C1602 1.391 . S
C1603 C1607 1.376 . S
C1604 C1602 1.394 . S
C1604 C1605 1.369 . S
C1604 C1608 1.531 . S
C1605 C1604 1.369 . S
C1605 C1606 1.410 . S
C1605 C1613 1.503 . S
C1606 C1605 1.410 . S
C1606 C1607 1.392 . S
C1606 C1609 1.511 . S
C1607 C1603 1.376 . S
C1607 C1606 1.392 . S
C1607 H1619 0.929 . S
C1608 C1604 1.531 . S
C1608 H1620 0.960 . S
C1608 H1621 0.962 . S
C1608 H1622 0.960 . S
C1609 C1606 1.511 . S
C1609 H1623 0.961 . S
C1609 H1624 0.961 . S
C1609 H1625 0.961 . S
C1610 C1611 1.370 . S
C1610 C1612 1.363 . S
C1610 H1626 0.931 . S
C1611 C1610 1.370 . S
C1611 C1615 1.408 . S
C1612 C1610 1.363 . S
C1612 C1613 1.370 . S
C1612 C1616 1.524 . S
C1613 C1605 1.503 . S
C1613 C1612 1.370 . S
C1613 C1614 1.403 . S
C1614 C1613 1.403 . S
C1614 C1615 1.404 . S
C1614 C1617 1.539 . S
C1615 C1611 1.408 . S
C1615 C1614 1.404 . S
C1615 H1627 0.930 . S
C1616 C1612 1.524 . S
C1616 H1628 0.956 . S
C1616 H1629 0.961 . S
C1616 H1630 0.961 . S
C1617 C1614 1.539 . S
C1617 H1631 0.958 . S
C1617 H1632 0.961 . S
C1617 H1633 0.960 . S
H1618 C1602 0.931 . S
H1619 C1607 0.929 . S
H1620 C1608 0.960 . S
H1621 C1608 0.962 . S
H1622 C1608 0.960 . S
H1623 C1609 0.961 . S
H1624 C1609 0.961 . S
H1625 C1609 0.961 . S
H1626 C1610 0.931 . S
H1627 C1615 0.930 . S
H1628 C1616 0.956 . S
H1629 C1616 0.961 . S
H1630 C1616 0.961 . S
H1631 C1617 0.958 . S
H1632 C1617 0.961 . S
H1633 C1617 0.960 . S
C1634 C1635 1.391 . S
C1634 C1636 1.394 . S
C1634 H1650 0.931 . S
C1635 C1634 1.391 . S
C1635 C1639 1.376 . S
C1636 C1634 1.394 . S
C1636 C1637 1.369 . S
C1636 C1640 1.531 . S
C1637 C1636 1.369 . S
C1637 C1638 1.410 . S
C1637 C1645 1.503 . S
C1638 C1637 1.410 . S
C1638 C1639 1.392 . S
C1638 C1641 1.511 . S
C1639 C1635 1.376 . S
C1639 C1638 1.392 . S
C1639 H1651 0.929 . S
C1640 C1636 1.531 . S
C1640 H1652 0.960 . S
C1640 H1653 0.962 . S
C1640 H1654 0.960 . S
C1641 C1638 1.511 . S
C1641 H1655 0.961 . S
C1641 H1656 0.961 . S
C1641 H1657 0.961 . S
C1642 C1643 1.370 . S
C1642 C1644 1.363 . S
C1642 H1658 0.931 . S
C1643 C1642 1.370 . S
C1643 C1647 1.408 . S
C1644 C1642 1.363 . S
C1644 C1645 1.370 . S
C1644 C1648 1.524 . S
C1645 C1637 1.503 . S
C1645 C1644 1.370 . S
C1645 C1646 1.403 . S
C1646 C1645 1.403 . S
C1646 C1647 1.404 . S
C1646 C1649 1.539 . S
C1647 C1643 1.408 . S
C1647 C1646 1.404 . S
C1647 H1659 0.930 . S
C1648 C1644 1.524 . S
C1648 H1660 0.956 . S
C1648 H1661 0.961 . S
C1648 H1662 0.961 . S
C1649 C1646 1.539 . S
C1649 H1663 0.958 . S
C1649 H1664 0.961 . S
C1649 H1665 0.960 . S
H1650 C1634 0.931 . S
H1651 C1639 0.929 . S
H1652 C1640 0.960 . S
H1653 C1640 0.962 . S
H1654 C1640 0.960 . S
H1655 C1641 0.961 . S
H1656 C1641 0.961 . S
H1657 C1641 0.961 . S
H1658 C1642 0.931 . S
H1659 C1647 0.930 . S
H1660 C1648 0.956 . S
H1661 C1648 0.961 . S
H1662 C1648 0.961 . S
H1663 C1649 0.958 . S
H1664 C1649 0.961 . S
H1665 C1649 0.960 . S
C1666 C1667 1.391 . S
C1666 C1668 1.394 . S
C1666 H1682 0.931 . S
C1667 C1666 1.391 . S
C1667 C1671 1.376 . S
C1668 C1666 1.394 . S
C1668 C1669 1.369 . S
C1668 C1672 1.531 . S
C1669 C1668 1.369 . S
C1669 C1670 1.410 . S
C1669 C1677 1.503 . S
C1670 C1669 1.410 . S
C1670 C1671 1.392 . S
C1670 C1673 1.511 . S
C1671 C1667 1.376 . S
C1671 C1670 1.392 . S
C1671 H1683 0.929 . S
C1672 C1668 1.531 . S
C1672 H1684 0.960 . S
C1672 H1685 0.962 . S
C1672 H1686 0.960 . S
C1673 C1670 1.511 . S
C1673 H1687 0.961 . S
C1673 H1688 0.961 . S
C1673 H1689 0.961 . S
C1674 C1675 1.370 . S
C1674 C1676 1.363 . S
C1674 H1690 0.931 . S
C1675 C1674 1.370 . S
C1675 C1679 1.408 . S
C1676 C1674 1.363 . S
C1676 C1677 1.370 . S
C1676 C1680 1.524 . S
C1677 C1669 1.503 . S
C1677 C1676 1.370 . S
C1677 C1678 1.403 . S
C1678 C1677 1.403 . S
C1678 C1679 1.404 . S
C1678 C1681 1.539 . S
C1679 C1675 1.408 . S
C1679 C1678 1.404 . S
C1679 H1691 0.930 . S
C1680 C1676 1.524 . S
C1680 H1692 0.956 . S
C1680 H1693 0.961 . S
C1680 H1694 0.961 . S
C1681 C1678 1.539 . S
C1681 H1695 0.958 . S
C1681 H1696 0.961 . S
C1681 H1697 0.960 . S
H1682 C1666 0.931 . S
H1683 C1671 0.929 . S
H1684 C1672 0.960 . S
H1685 C1672 0.962 . S
H1686 C1672 0.960 . S
H1687 C1673 0.961 . S
H1688 C1673 0.961 . S
H1689 C1673 0.961 . S
H1690 C1674 0.931 . S
H1691 C1679 0.930 . S
H1692 C1680 0.956 . S
H1693 C1680 0.961 . S
H1694 C1680 0.961 . S
H1695 C1681 0.958 . S
H1696 C1681 0.961 . S
H1697 C1681 0.960 . S
C1698 C1699 1.391 . S
C1698 C1700 1.394 . S
C1698 H1714 0.931 . S
C1699 C1698 1.391 . S
C1699 C1703 1.376 . S
C1700 C1698 1.394 . S
C1700 C1701 1.369 . S
C1700 C1704 1.531 . S
C1701 C1700 1.369 . S
C1701 C1702 1.410 . S
C1701 C1709 1.503 . S
C1702 C1701 1.410 . S
C1702 C1703 1.392 . S
C1702 C1705 1.511 . S
C1703 C1699 1.376 . S
C1703 C1702 1.392 . S
C1703 H1715 0.929 . S
C1704 C1700 1.531 . S
C1704 H1716 0.960 . S
C1704 H1717 0.962 . S
C1704 H1718 0.960 . S
C1705 C1702 1.511 . S
C1705 H1719 0.961 . S
C1705 H1720 0.961 . S
C1705 H1721 0.961 . S
C1706 C1707 1.370 . S
C1706 C1708 1.363 . S
C1706 H1722 0.931 . S
C1707 C1706 1.370 . S
C1707 C1711 1.408 . S
C1708 C1706 1.363 . S
C1708 C1709 1.370 . S
C1708 C1712 1.524 . S
C1709 C1701 1.503 . S
C1709 C1708 1.370 . S
C1709 C1710 1.403 . S
C1710 C1709 1.403 . S
C1710 C1711 1.404 . S
C1710 C1713 1.539 . S
C1711 C1707 1.408 . S
C1711 C1710 1.404 . S
C1711 H1723 0.930 . S
C1712 C1708 1.524 . S
C1712 H1724 0.956 . S
C1712 H1725 0.961 . S
C1712 H1726 0.961 . S
C1713 C1710 1.539 . S
C1713 H1727 0.958 . S
C1713 H1728 0.961 . S
C1713 H1729 0.960 . S
H1714 C1698 0.931 . S
H1715 C1703 0.929 . S
H1716 C1704 0.960 . S
H1717 C1704 0.962 . S
H1718 C1704 0.960 . S
H1719 C1705 0.961 . S
H1720 C1705 0.961 . S
H1721 C1705 0.961 . S
H1722 C1706 0.931 . S
H1723 C1711 0.930 . S
H1724 C1712 0.956 . S
H1725 C1712 0.961 . S
H1726 C1712 0.961 . S
H1727 C1713 0.958 . S
H1728 C1713 0.961 . S
H1729 C1713 0.960 . S
C1730 C1731 1.391 . S
C1730 C1732 1.394 . S
C1730 H1746 0.931 . S
C1731 C1730 1.391 . S
C1731 C1735 1.376 . S
C1732 C1730 1.394 . S
C1732 C1733 1.369 . S
C1732 C1736 1.531 . S
C1733 C1732 1.369 . S
C1733 C1734 1.410 . S
C1733 C1741 1.503 . S
C1734 C1733 1.410 . S
C1734 C1735 1.392 . S
C1734 C1737 1.511 . S
C1735 C1731 1.376 . S
C1735 C1734 1.392 . S
C1735 H1747 0.929 . S
C1736 C1732 1.531 . S
C1736 H1748 0.960 . S
C1736 H1749 0.962 . S
C1736 H1750 0.960 . S
C1737 C1734 1.511 . S
C1737 H1751 0.961 . S
C1737 H1752 0.961 . S
C1737 H1753 0.961 . S
C1738 C1739 1.370 . S
C1738 C1740 1.363 . S
C1738 H1754 0.931 . S
C1739 C1738 1.370 . S
C1739 C1743 1.408 . S
C1740 C1738 1.363 . S
C1740 C1741 1.370 . S
C1740 C1744 1.524 . S
C1741 C1733 1.503 . S
C1741 C1740 1.370 . S
C1741 C1742 1.403 . S
C1742 C1741 1.403 . S
C1742 C1743 1.404 . S
C1742 C1745 1.539 . S
C1743 C1739 1.408 . S
C1743 C1742 1.404 . S
C1743 H1755 0.930 . S
C1744 C1740 1.524 . S
C1744 H1756 0.956 . S
C1744 H1757 0.961 . S
C1744 H1758 0.961 . S
C1745 C1742 1.539 . S
C1745 H1759 0.958 . S
C1745 H1760 0.961 . S
C1745 H1761 0.960 . S
H1746 C1730 0.931 . S
H1747 C1735 0.929 . S
H1748 C1736 0.960 . S
H1749 C1736 0.962 . S
H1750 C1736 0.960 . S
H1751 C1737 0.961 . S
H1752 C1737 0.961 . S
H1753 C1737 0.961 . S
H1754 C1738 0.931 . S
H1755 C1743 0.930 . S
H1756 C1744 0.956 . S
H1757 C1744 0.961 . S
H1758 C1744 0.961 . S
H1759 C1745 0.958 . S
H1760 C1745 0.961 . S
H1761 C1745 0.960 . S
C1762 C1763 1.391 . S
C1762 C1764 1.394 . S
C1762 H1778 0.931 . S
C1763 C1762 1.391 . S
C1763 C1767 1.376 . S
C1764 C1762 1.394 . S
C1764 C1765 1.369 . S
C1764 C1768 1.531 . S
C1765 C1764 1.369 . S
C1765 C1766 1.410 . S
C1765 C1773 1.503 . S
C1766 C1765 1.410 . S
C1766 C1767 1.392 . S
C1766 C1769 1.511 . S
C1767 C1763 1.376 . S
C1767 C1766 1.392 . S
C1767 H1779 0.929 . S
C1768 C1764 1.531 . S
C1768 H1780 0.960 . S
C1768 H1781 0.962 . S
C1768 H1782 0.960 . S
C1769 C1766 1.511 . S
C1769 H1783 0.961 . S
C1769 H1784 0.961 . S
C1769 H1785 0.961 . S
C1770 C1771 1.370 . S
C1770 C1772 1.363 . S
C1770 H1786 0.931 . S
C1771 C1770 1.370 . S
C1771 C1775 1.408 . S
C1772 C1770 1.363 . S
C1772 C1773 1.370 . S
C1772 C1776 1.524 . S
C1773 C1765 1.503 . S
C1773 C1772 1.370 . S
C1773 C1774 1.403 . S
C1774 C1773 1.403 . S
C1774 C1775 1.404 . S
C1774 C1777 1.539 . S
C1775 C1771 1.408 . S
C1775 C1774 1.404 . S
C1775 H1787 0.930 . S
C1776 C1772 1.524 . S
C1776 H1788 0.956 . S
C1776 H1789 0.961 . S
C1776 H1790 0.961 . S
C1777 C1774 1.539 . S
C1777 H1791 0.958 . S
C1777 H1792 0.961 . S
C1777 H1793 0.960 . S
H1778 C1762 0.931 . S
H1779 C1767 0.929 . S
H1780 C1768 0.960 . S
H1781 C1768 0.962 . S
H1782 C1768 0.960 . S
H1783 C1769 0.961 . S
H1784 C1769 0.961 . S
H1785 C1769 0.961 . S
H1786 C1770 0.931 . S
H1787 C1775 0.930 . S
H1788 C1776 0.956 . S
H1789 C1776 0.961 . S
H1790 C1776 0.961 . S
H1791 C1777 0.958 . S
H1792 C1777 0.961 . S
H1793 C1777 0.960 . S
C1794 C1795 1.391 . S
C1794 C1796 1.394 . S
C1794 H1810 0.931 . S
C1795 C1794 1.391 . S
C1795 C1799 1.376 . S
C1796 C1794 1.394 . S
C1796 C1797 1.369 . S
C1796 C1800 1.531 . S
C1797 C1796 1.369 . S
C1797 C1798 1.410 . S
C1797 C1805 1.503 . S
C1798 C1797 1.410 . S
C1798 C1799 1.392 . S
C1798 C1801 1.511 . S
C1799 C1795 1.376 . S
C1799 C1798 1.392 . S
C1799 H1811 0.929 . S
C1800 C1796 1.531 . S
C1800 H1812 0.960 . S
C1800 H1813 0.962 . S
C1800 H1814 0.960 . S
C1801 C1798 1.511 . S
C1801 H1815 0.961 . S
C1801 H1816 0.961 . S
C1801 H1817 0.961 . S
C1802 C1803 1.370 . S
C1802 C1804 1.363 . S
C1802 H1818 0.931 . S
C1803 C1802 1.370 . S
C1803 C1807 1.408 . S
C1804 C1802 1.363 . S
C1804 C1805 1.370 . S
C1804 C1808 1.524 . S
C1805 C1797 1.503 . S
C1805 C1804 1.370 . S
C1805 C1806 1.403 . S
C1806 C1805 1.403 . S
C1806 C1807 1.404 . S
C1806 C1809 1.539 . S
C1807 C1803 1.408 . S
C1807 C1806 1.404 . S
C1807 H1819 0.930 . S
C1808 C1804 1.524 . S
C1808 H1820 0.956 . S
C1808 H1821 0.961 . S
C1808 H1822 0.961 . S
C1809 C1806 1.539 . S
C1809 H1823 0.958 . S
C1809 H1824 0.961 . S
C1809 H1825 0.960 . S
H1810 C1794 0.931 . S
H1811 C1799 0.929 . S
H1812 C1800 0.960 . S
H1813 C1800 0.962 . S
H1814 C1800 0.960 . S
H1815 C1801 0.961 . S
H1816 C1801 0.961 . S
H1817 C1801 0.961 . S
H1818 C1802 0.931 . S
H1819 C1807 0.930 . S
H1820 C1808 0.956 . S
H1821 C1808 0.961 . S
H1822 C1808 0.961 . S
H1823 C1809 0.958 . S
H1824 C1809 0.961 . S
H1825 C1809 0.960 . S
C1826 C1827 1.391 . S
C1826 C1828 1.394 . S
C1826 H1842 0.931 . S
C1827 C1826 1.391 . S
C1827 C1831 1.376 . S
C1828 C1826 1.394 . S
C1828 C1829 1.369 . S
C1828 C1832 1.531 . S
C1829 C1828 1.369 . S
C1829 C1830 1.410 . S
C1829 C1837 1.503 . S
C1830 C1829 1.410 . S
C1830 C1831 1.392 . S
C1830 C1833 1.511 . S
C1831 C1827 1.376 . S
C1831 C1830 1.392 . S
C1831 H1843 0.929 . S
C1832 C1828 1.531 . S
C1832 H1844 0.960 . S
C1832 H1845 0.962 . S
C1832 H1846 0.960 . S
C1833 C1830 1.511 . S
C1833 H1847 0.961 . S
C1833 H1848 0.961 . S
C1833 H1849 0.961 . S
C1834 C1835 1.370 . S
C1834 C1836 1.363 . S
C1834 H1850 0.931 . S
C1835 C1834 1.370 . S
C1835 C1839 1.408 . S
C1836 C1834 1.363 . S
C1836 C1837 1.370 . S
C1836 C1840 1.524 . S
C1837 C1829 1.503 . S
C1837 C1836 1.370 . S
C1837 C1838 1.403 . S
C1838 C1837 1.403 . S
C1838 C1839 1.404 . S
C1838 C1841 1.539 . S
C1839 C1835 1.408 . S
C1839 C1838 1.404 . S
C1839 H1851 0.930 . S
C1840 C1836 1.524 . S
C1840 H1852 0.956 . S
C1840 H1853 0.961 . S
C1840 H1854 0.961 . S
C1841 C1838 1.539 . S
C1841 H1855 0.958 . S
C1841 H1856 0.961 . S
C1841 H1857 0.960 . S
H1842 C1826 0.931 . S
H1843 C1831 0.929 . S
H1844 C1832 0.960 . S
H1845 C1832 0.962 . S
H1846 C1832 0.960 . S
H1847 C1833 0.961 . S
H1848 C1833 0.961 . S
H1849 C1833 0.961 . S
H1850 C1834 0.931 . S
H1851 C1839 0.930 . S
H1852 C1840 0.956 . S
H1853 C1840 0.961 . S
H1854 C1840 0.961 . S
H1855 C1841 0.958 . S
H1856 C1841 0.961 . S
H1857 C1841 0.960 . S
C1858 C1859 1.391 . S
C1858 C1860 1.394 . S
C1858 H1874 0.931 . S
C1859 C1858 1.391 . S
C1859 C1863 1.376 . S
C1860 C1858 1.394 . S
C1860 C1861 1.369 . S
C1860 C1864 1.531 . S
C1861 C1860 1.369 . S
C1861 C1862 1.410 . S
C1861 C1869 1.503 . S
C1862 C1861 1.410 . S
C1862 C1863 1.392 . S
C1862 C1865 1.511 . S
C1863 C1859 1.376 . S
C1863 C1862 1.392 . S
C1863 H1875 0.929 . S
C1864 C1860 1.531 . S
C1864 H1876 0.960 . S
C1864 H1877 0.962 . S
C1864 H1878 0.960 . S
C1865 C1862 1.511 . S
C1865 H1879 0.961 . S
C1865 H1880 0.961 . S
C1865 H1881 0.961 . S
C1866 C1867 1.370 . S
C1866 C1868 1.363 . S
C1866 H1882 0.931 . S
C1867 C1866 1.370 . S
C1867 C1871 1.408 . S
C1868 C1866 1.363 . S
C1868 C1869 1.370 . S
C1868 C1872 1.524 . S
C1869 C1861 1.503 . S
C1869 C1868 1.370 . S
C1869 C1870 1.403 . S
C1870 C1869 1.403 . S
C1870 C1871 1.404 . S
C1870 C1873 1.539 . S
C1871 C1867 1.408 . S
C1871 C1870 1.404 . S
C1871 H1883 0.930 . S
C1872 C1868 1.524 . S
C1872 H1884 0.956 . S
C1872 H1885 0.961 . S
C1872 H1886 0.961 . S
C1873 C1870 1.539 . S
C1873 H1887 0.958 . S
C1873 H1888 0.961 . S
C1873 H1889 0.960 . S
H1874 C1858 0.931 . S
H1875 C1863 0.929 . S
H1876 C1864 0.960 . S
H1877 C1864 0.962 . S
H1878 C1864 0.960 . S
H1879 C1865 0.961 . S
H1880 C1865 0.961 . S
H1881 C1865 0.961 . S
H1882 C1866 0.931 . S
H1883 C1871 0.930 . S
H1884 C1872 0.956 . S
H1885 C1872 0.961 . S
H1886 C1872 0.961 . S
H1887 C1873 0.958 . S
H1888 C1873 0.961 . S
H1889 C1873 0.960 . S
C1890 C1891 1.391 . S
C1890 C1892 1.394 . S
C1890 H1906 0.931 . S
C1891 C1890 1.391 . S
C1891 C1895 1.376 . S
C1892 C1890 1.394 . S
C1892 C1893 1.369 . S
C1892 C1896 1.531 . S
C1893 C1892 1.369 . S
C1893 C1894 1.410 . S
C1893 C1901 1.503 . S
C1894 C1893 1.410 . S
C1894 C1895 1.392 . S
C1894 C1897 1.511 . S
C1895 C1891 1.376 . S
C1895 C1894 1.392 . S
C1895 H1907 0.929 . S
C1896 C1892 1.531 . S
C1896 H1908 0.960 . S
C1896 H1909 0.962 . S
C1896 H1910 0.960 . S
C1897 C1894 1.511 . S
C1897 H1911 0.961 . S
C1897 H1912 0.961 . S
C1897 H1913 0.961 . S
C1898 C1899 1.370 . S
C1898 C1900 1.363 . S
C1898 H1914 0.931 . S
C1899 C1898 1.370 . S
C1899 C1903 1.408 . S
C1900 C1898 1.363 . S
C1900 C1901 1.370 . S
C1900 C1904 1.524 . S
C1901 C1893 1.503 . S
C1901 C1900 1.370 . S
C1901 C1902 1.403 . S
C1902 C1901 1.403 . S
C1902 C1903 1.404 . S
C1902 C1905 1.539 . S
C1903 C1899 1.408 . S
C1903 C1902 1.404 . S
C1903 H1915 0.930 . S
C1904 C1900 1.524 . S
C1904 H1916 0.956 . S
C1904 H1917 0.961 . S
C1904 H1918 0.961 . S
C1905 C1902 1.539 . S
C1905 H1919 0.958 . S
C1905 H1920 0.961 . S
C1905 H1921 0.960 . S
H1906 C1890 0.931 . S
H1907 C1895 0.929 . S
H1908 C1896 0.960 . S
H1909 C1896 0.962 . S
H1910 C1896 0.960 . S
H1911 C1897 0.961 . S
H1912 C1897 0.961 . S
H1913 C1897 0.961 . S
H1914 C1898 0.931 . S
H1915 C1903 0.930 . S
H1916 C1904 0.956 . S
H1917 C1904 0.961 . S
H1918 C1904 0.961 . S
H1919 C1905 0.958 . S
H1920 C1905 0.961 . S
H1921 C1905 0.960 . S
C1922 C1923 1.391 . S
C1922 C1924 1.394 . S
C1922 H1938 0.931 . S
C1923 C1922 1.391 . S
C1923 C1927 1.376 . S
C1924 C1922 1.394 . S
C1924 C1925 1.369 . S
C1924 C1928 1.531 . S
C1925 C1924 1.369 . S
C1925 C1926 1.410 . S
C1925 C1933 1.503 . S
C1926 C1925 1.410 . S
C1926 C1927 1.392 . S
C1926 C1929 1.511 . S
C1927 C1923 1.376 . S
C1927 C1926 1.392 . S
C1927 H1939 0.929 . S
C1928 C1924 1.531 . S
C1928 H1940 0.960 . S
C1928 H1941 0.962 . S
C1928 H1942 0.960 . S
C1929 C1926 1.511 . S
C1929 H1943 0.961 . S
C1929 H1944 0.961 . S
C1929 H1945 0.961 . S
C1930 C1931 1.370 . S
C1930 C1932 1.363 . S
C1930 H1946 0.931 . S
C1931 C1930 1.370 . S
C1931 C1935 1.408 . S
C1932 C1930 1.363 . S
C1932 C1933 1.370 . S
C1932 C1936 1.524 . S
C1933 C1925 1.503 . S
C1933 C1932 1.370 . S
C1933 C1934 1.403 . S
C1934 C1933 1.403 . S
C1934 C1935 1.404 . S
C1934 C1937 1.539 . S
C1935 C1931 1.408 . S
C1935 C1934 1.404 . S
C1935 H1947 0.930 . S
C1936 C1932 1.524 . S
C1936 H1948 0.956 . S
C1936 H1949 0.961 . S
C1936 H1950 0.961 . S
C1937 C1934 1.539 . S
C1937 H1951 0.958 . S
C1937 H1952 0.961 . S
C1937 H1953 0.960 . S
H1938 C1922 0.931 . S
H1939 C1927 0.929 . S
H1940 C1928 0.960 . S
H1941 C1928 0.962 . S
H1942 C1928 0.960 . S
H1943 C1929 0.961 . S
H1944 C1929 0.961 . S
H1945 C1929 0.961 . S
H1946 C1930 0.931 . S
H1947 C1935 0.930 . S
H1948 C1936 0.956 . S
H1949 C1936 0.961 . S
H1950 C1936 0.961 . S
H1951 C1937 0.958 . S
H1952 C1937 0.961 . S
H1953 C1937 0.960 . S
C1954 C1955 1.391 . S
C1954 C1956 1.394 . S
C1954 H1970 0.931 . S
C1955 C1954 1.391 . S
C1955 C1959 1.376 . S
C1956 C1954 1.394 . S
C1956 C1957 1.369 . S
C1956 C1960 1.531 . S
C1957 C1956 1.369 . S
C1957 C1958 1.410 . S
C1957 C1965 1.503 . S
C1958 C1957 1.410 . S
C1958 C1959 1.392 . S
C1958 C1961 1.511 . S
C1959 C1955 1.376 . S
C1959 C1958 1.392 . S
C1959 H1971 0.929 . S
C1960 C1956 1.531 . S
C1960 H1972 0.960 . S
C1960 H1973 0.962 . S
C1960 H1974 0.960 . S
C1961 C1958 1.511 . S
C1961 H1975 0.961 . S
C1961 H1976 0.961 . S
C1961 H1977 0.961 . S
C1962 C1963 1.370 . S
C1962 C1964 1.363 . S
C1962 H1978 0.931 . S
C1963 C1962 1.370 . S
C1963 C1967 1.408 . S
C1964 C1962 1.363 . S
C1964 C1965 1.370 . S
C1964 C1968 1.524 . S
C1965 C1957 1.503 . S
C1965 C1964 1.370 . S
C1965 C1966 1.403 . S
C1966 C1965 1.403 . S
C1966 C1967 1.404 . S
C1966 C1969 1.539 . S
C1967 C1963 1.408 . S
C1967 C1966 1.404 . S
C1967 H1979 0.930 . S
C1968 C1964 1.524 . S
C1968 H1980 0.956 . S
C1968 H1981 0.961 . S
C1968 H1982 0.961 . S
C1969 C1966 1.539 . S
C1969 H1983 0.958 . S
C1969 H1984 0.961 . S
C1969 H1985 0.960 . S
H1970 C1954 0.931 . S
H1971 C1959 0.929 . S
H1972 C1960 0.960 . S
H1973 C1960 0.962 . S
H1974 C1960 0.960 . S
H1975 C1961 0.961 . S
H1976 C1961 0.961 . S
H1977 C1961 0.961 . S
H1978 C1962 0.931 . S
H1979 C1967 0.930 . S
H1980 C1968 0.956 . S
H1981 C1968 0.961 . S
H1982 C1968 0.961 . S
H1983 C1969 0.958 . S
H1984 C1969 0.961 . S
H1985 C1969 0.960 . S
C1986 C1987 1.391 . S
C1986 C1988 1.394 . S
C1986 H2002 0.931 . S
C1987 C1986 1.391 . S
C1987 C1991 1.376 . S
C1988 C1986 1.394 . S
C1988 C1989 1.369 . S
C1988 C1992 1.531 . S
C1989 C1988 1.369 . S
C1989 C1990 1.410 . S
C1989 C1997 1.503 . S
C1990 C1989 1.410 . S
C1990 C1991 1.392 . S
C1990 C1993 1.511 . S
C1991 C1987 1.376 . S
C1991 C1990 1.392 . S
C1991 H2003 0.929 . S
C1992 C1988 1.531 . S
C1992 H2004 0.960 . S
C1992 H2005 0.962 . S
C1992 H2006 0.960 . S
C1993 C1990 1.511 . S
C1993 H2007 0.961 . S
C1993 H2008 0.961 . S
C1993 H2009 0.961 . S
C1994 C1995 1.370 . S
C1994 C1996 1.363 . S
C1994 H2010 0.931 . S
C1995 C1994 1.370 . S
C1995 C1999 1.408 . S
C1996 C1994 1.363 . S
C1996 C1997 1.370 . S
C1996 C2000 1.524 . S
C1997 C1989 1.503 . S
C1997 C1996 1.370 . S
C1997 C1998 1.403 . S
C1998 C1997 1.403 . S
C1998 C1999 1.404 . S
C1998 C2001 1.539 . S
C1999 C1995 1.408 . S
C1999 C1998 1.404 . S
C1999 H2011 0.930 . S
C2000 C1996 1.524 . S
C2000 H2012 0.956 . S
C2000 H2013 0.961 . S
C2000 H2014 0.961 . S
C2001 C1998 1.539 . S
C2001 H2015 0.958 . S
C2001 H2016 0.961 . S
C2001 H2017 0.960 . S
H2002 C1986 0.931 . S
H2003 C1991 0.929 . S
H2004 C1992 0.960 . S
H2005 C1992 0.962 . S
H2006 C1992 0.960 . S
H2007 C1993 0.961 . S
H2008 C1993 0.961 . S
H2009 C1993 0.961 . S
H2010 C1994 0.931 . S
H2011 C1999 0.930 . S
H2012 C2000 0.956 . S
H2013 C2000 0.961 . S
H2014 C2000 0.961 . S
H2015 C2001 0.958 . S
H2016 C2001 0.961 . S
H2017 C2001 0.960 . S
C2018 C2019 1.391 . S
C2018 C2020 1.394 . S
C2018 H2034 0.931 . S
C2019 C2018 1.391 . S
C2019 C2023 1.376 . S
C2020 C2018 1.394 . S
C2020 C2021 1.369 . S
C2020 C2024 1.531 . S
C2021 C2020 1.369 . S
C2021 C2022 1.410 . S
C2021 C2029 1.503 . S
C2022 C2021 1.410 . S
C2022 C2023 1.392 . S
C2022 C2025 1.511 . S
C2023 C2019 1.376 . S
C2023 C2022 1.392 . S
C2023 H2035 0.929 . S
C2024 C2020 1.531 . S
C2024 H2036 0.960 . S
C2024 H2037 0.962 . S
C2024 H2038 0.960 . S
C2025 C2022 1.511 . S
C2025 H2039 0.961 . S
C2025 H2040 0.961 . S
C2025 H2041 0.961 . S
C2026 C2027 1.370 . S
C2026 C2028 1.363 . S
C2026 H2042 0.931 . S
C2027 C2026 1.370 . S
C2027 C2031 1.408 . S
C2028 C2026 1.363 . S
C2028 C2029 1.370 . S
C2028 C2032 1.524 . S
C2029 C2021 1.503 . S
C2029 C2028 1.370 . S
C2029 C2030 1.403 . S
C2030 C2029 1.403 . S
C2030 C2031 1.404 . S
C2030 C2033 1.539 . S
C2031 C2027 1.408 . S
C2031 C2030 1.404 . S
C2031 H2043 0.930 . S
C2032 C2028 1.524 . S
C2032 H2044 0.956 . S
C2032 H2045 0.961 . S
C2032 H2046 0.961 . S
C2033 C2030 1.539 . S
C2033 H2047 0.958 . S
C2033 H2048 0.961 . S
C2033 H2049 0.960 . S
H2034 C2018 0.931 . S
H2035 C2023 0.929 . S
H2036 C2024 0.960 . S
H2037 C2024 0.962 . S
H2038 C2024 0.960 . S
H2039 C2025 0.961 . S
H2040 C2025 0.961 . S
H2041 C2025 0.961 . S
H2042 C2026 0.931 . S
H2043 C2031 0.930 . S
H2044 C2032 0.956 . S
H2045 C2032 0.961 . S
H2046 C2032 0.961 . S
H2047 C2033 0.958 . S
H2048 C2033 0.961 . S
H2049 C2033 0.960 . S
C523 C288 0.842 . S
C515 N18 0.838 . S
C555 N264 1.546 . S
C547 C61 1.583 . S
C587 C296 0.602 . S
C579 N82 0.559 . S
C611 C100 1.491 . S
C619 C295 1.405 . S
C643 C130 1.663 . S
C651 N259 1.612 . S
C683 C283 0.846 . S
C675 N173 0.930 . S
C707 C198 1.633 . S
C715 C269 1.536 . S
C739 N242 0.624 . S
C747 C289 0.581 . S
C779 C312 1.510 . S
C771 C6 1.644 . S
C803 N50 0.652 . S
C811 C375 0.593 . S
C843 N302 1.555 . S
C835 C68 1.592 . S
C875 C369 0.582 . S
C867 N109 0.681 . S
C899 C134 2.011 . S
C907 C339 1.987 . S
C939 C381 1.540 . S
C931 C162 1.656 . S
C963 C194 2.111 . S
C971 C331 2.102 . S
C995 C228 1.599 . S
C1003 N350 1.564 . S
C1027 C2 1.667 . S
C1035 N345 1.658 . S
C1059 N141 0.778 . S
C1067 C374 0.883 . S
C1099 N307 1.651 . S
C1091 C166 1.696 . S
C1131 C382 0.744 . S
C1123 N210 0.672 . S
C1155 C253 1.518 . S
C1163 C338 1.383 . S
C1187 C93 1.483 . S
C1195 C355 1.373 . S
C1227 C332 1.914 . S
C1219 C125 1.918 . S
C1251 C36 2.050 . S
C1259 C326 2.031 . S
C1283 N237 0.889 . S
C1291 C417 0.826 . S
C1315 C157 1.597 . S
C1323 N393 1.520 . S
C1355 C425 0.611 . S
C1347 N178 0.510 . S
C1387 C424 1.413 . S
C1379 C196 1.511 . S
C1411 C34 1.665 . S
C1419 N388 1.620 . S
C1451 C412 0.894 . S
C1443 N77 0.784 . S
C1475 C102 1.627 . S
C1483 C398 1.526 . S
C1507 N13 0.643 . S
C1515 C418 0.574 . S
C1539 C226 1.629 . S
C1547 C441 1.500 . S
C1579 C504 0.551 . S
C1571 N146 0.665 . S
C1603 C164 1.570 . S
C1611 N431 1.542 . S
C1635 N205 0.521 . S
C1643 C498 0.567 . S
C1675 C468 2.002 . S
C1667 C38 2.011 . S
C1699 C66 1.660 . S
C1707 C510 1.534 . S
C1739 C460 2.103 . S
C1731 C98 2.098 . S
C1771 N479 1.550 . S
C1763 C29 1.586 . S
C1803 N474 1.651 . S
C1795 C230 1.673 . S
C1827 N45 0.811 . S
C1835 C503 0.904 . S
C1859 C70 1.696 . S
C1867 N436 1.651 . S
C1899 C511 0.740 . S
C1891 N114 0.802 . S
C1923 C4 1.522 . S
C1931 C467 1.388 . S
C1955 C189 1.499 . S
C1963 C484 1.364 . S
C1995 C461 1.902 . S
C1987 C221 1.912 . S
C2027 C455 2.020 . S
C2019 C132 2.034 . S
