# Generated by pormake.
# Topology gar, (4,6)-cn, num edge types: 1
# Building blocks:
#     Node 0, Type 0, BuildingBlock: TATPOV_clean_sbu_0, # of connection points: 4
#     Node 1, Type 0, BuildingBlock: TATPOV_clean_sbu_0, # of connection points: 4
#     Node 2, Type 0, BuildingBlock: TATPOV_clean_sbu_0, # of connection points: 4
#     Node 3, Type 0, BuildingBlock: TATPOV_clean_sbu_0, # of connection points: 4
#     Node 4, Type 0, BuildingBlock: TATPOV_clean_sbu_0, # of connection points: 4
#     Node 5, Type 0, BuildingBlock: TATPOV_clean_sbu_0, # of connection points: 4
#     Node 6, Type 0, BuildingBlock: TATPOV_clean_sbu_0, # of connection points: 4
#     Node 7, Type 0, BuildingBlock: TATPOV_clean_sbu_0, # of connection points: 4
#     Node 8, Type 0, BuildingBlock: TATPOV_clean_sbu_0, # of connection points: 4
#     Node 9, Type 0, BuildingBlock: TATPOV_clean_sbu_0, # of connection points: 4
#     Node 10, Type 0, BuildingBlock: TATPOV_clean_sbu_0, # of connection points: 4
#     Node 11, Type 0, BuildingBlock: TATPOV_clean_sbu_0, # of connection points: 4
#     Node 12, Type 0, BuildingBlock: TATPOV_clean_sbu_0, # of connection points: 4
#     Node 13, Type 0, BuildingBlock: TATPOV_clean_sbu_0, # of connection points: 4
#     Node 14, Type 0, BuildingBlock: TATPOV_clean_sbu_0, # of connection points: 4
#     Node 15, Type 0, BuildingBlock: TATPOV_clean_sbu_0, # of connection points: 4
#     Node 16, Type 0, BuildingBlock: TATPOV_clean_sbu_0, # of connection points: 4
#     Node 17, Type 0, BuildingBlock: TATPOV_clean_sbu_0, # of connection points: 4
#     Node 18, Type 0, BuildingBlock: TATPOV_clean_sbu_0, # of connection points: 4
#     Node 19, Type 0, BuildingBlock: TATPOV_clean_sbu_0, # of connection points: 4
#     Node 20, Type 0, BuildingBlock: TATPOV_clean_sbu_0, # of connection points: 4
#     Node 21, Type 0, BuildingBlock: TATPOV_clean_sbu_0, # of connection points: 4
#     Node 22, Type 0, BuildingBlock: TATPOV_clean_sbu_0, # of connection points: 4
#     Node 23, Type 0, BuildingBlock: TATPOV_clean_sbu_0, # of connection points: 4
#     Node 24, Type 1, BuildingBlock: KUMBOL_clean_sbu_0, # of connection points: 6
#     Node 25, Type 1, BuildingBlock: KUMBOL_clean_sbu_0, # of connection points: 6
#     Node 26, Type 1, BuildingBlock: KUMBOL_clean_sbu_0, # of connection points: 6
#     Node 27, Type 1, BuildingBlock: KUMBOL_clean_sbu_0, # of connection points: 6
#     Node 28, Type 1, BuildingBlock: KUMBOL_clean_sbu_0, # of connection points: 6
#     Node 29, Type 1, BuildingBlock: KUMBOL_clean_sbu_0, # of connection points: 6
#     Node 30, Type 1, BuildingBlock: KUMBOL_clean_sbu_0, # of connection points: 6
#     Node 31, Type 1, BuildingBlock: KUMBOL_clean_sbu_0, # of connection points: 6
#     Node 32, Type 1, BuildingBlock: KUMBOL_clean_sbu_0, # of connection points: 6
#     Node 33, Type 1, BuildingBlock: KUMBOL_clean_sbu_0, # of connection points: 6
#     Node 34, Type 1, BuildingBlock: KUMBOL_clean_sbu_0, # of connection points: 6
#     Node 35, Type 1, BuildingBlock: KUMBOL_clean_sbu_0, # of connection points: 6
#     Node 36, Type 1, BuildingBlock: KUMBOL_clean_sbu_0, # of connection points: 6
#     Node 37, Type 1, BuildingBlock: KUMBOL_clean_sbu_0, # of connection points: 6
#     Node 38, Type 1, BuildingBlock: KUMBOL_clean_sbu_0, # of connection points: 6
#     Node 39, Type 1, BuildingBlock: KUMBOL_clean_sbu_0, # of connection points: 6
#     Edge 40, Type (0, 1), BuildingBlock: MIFKUJ_clean_linker_0, # of connection points: 2
#     Edge 41, Type (0, 1), BuildingBlock: MIFKUJ_clean_linker_0, # of connection points: 2
#     Edge 42, Type (0, 1), BuildingBlock: MIFKUJ_clean_linker_0, # of connection points: 2
#     Edge 43, Type (0, 1), BuildingBlock: MIFKUJ_clean_linker_0, # of connection points: 2
#     Edge 44, Type (0, 1), BuildingBlock: MIFKUJ_clean_linker_0, # of connection points: 2
#     Edge 45, Type (0, 1), BuildingBlock: MIFKUJ_clean_linker_0, # of connection points: 2
#     Edge 46, Type (0, 1), BuildingBlock: MIFKUJ_clean_linker_0, # of connection points: 2
#     Edge 47, Type (0, 1), BuildingBlock: MIFKUJ_clean_linker_0, # of connection points: 2
#     Edge 48, Type (0, 1), BuildingBlock: MIFKUJ_clean_linker_0, # of connection points: 2
#     Edge 49, Type (0, 1), BuildingBlock: MIFKUJ_clean_linker_0, # of connection points: 2
#     Edge 50, Type (0, 1), BuildingBlock: MIFKUJ_clean_linker_0, # of connection points: 2
#     Edge 51, Type (0, 1), BuildingBlock: MIFKUJ_clean_linker_0, # of connection points: 2
#     Edge 52, Type (0, 1), BuildingBlock: MIFKUJ_clean_linker_0, # of connection points: 2
#     Edge 53, Type (0, 1), BuildingBlock: MIFKUJ_clean_linker_0, # of connection points: 2
#     Edge 54, Type (0, 1), BuildingBlock: MIFKUJ_clean_linker_0, # of connection points: 2
#     Edge 55, Type (0, 1), BuildingBlock: MIFKUJ_clean_linker_0, # of connection points: 2
#     Edge 56, Type (0, 1), BuildingBlock: MIFKUJ_clean_linker_0, # of connection points: 2
#     Edge 57, Type (0, 1), BuildingBlock: MIFKUJ_clean_linker_0, # of connection points: 2
#     Edge 58, Type (0, 1), BuildingBlock: MIFKUJ_clean_linker_0, # of connection points: 2
#     Edge 59, Type (0, 1), BuildingBlock: MIFKUJ_clean_linker_0, # of connection points: 2
#     Edge 60, Type (0, 1), BuildingBlock: MIFKUJ_clean_linker_0, # of connection points: 2
#     Edge 61, Type (0, 1), BuildingBlock: MIFKUJ_clean_linker_0, # of connection points: 2
#     Edge 62, Type (0, 1), BuildingBlock: MIFKUJ_clean_linker_0, # of connection points: 2
#     Edge 63, Type (0, 1), BuildingBlock: MIFKUJ_clean_linker_0, # of connection points: 2
#     Edge 64, Type (0, 1), BuildingBlock: MIFKUJ_clean_linker_0, # of connection points: 2
#     Edge 65, Type (0, 1), BuildingBlock: MIFKUJ_clean_linker_0, # of connection points: 2
#     Edge 66, Type (0, 1), BuildingBlock: MIFKUJ_clean_linker_0, # of connection points: 2
#     Edge 67, Type (0, 1), BuildingBlock: MIFKUJ_clean_linker_0, # of connection points: 2
#     Edge 68, Type (0, 1), BuildingBlock: MIFKUJ_clean_linker_0, # of connection points: 2
#     Edge 69, Type (0, 1), BuildingBlock: MIFKUJ_clean_linker_0, # of connection points: 2
#     Edge 70, Type (0, 1), BuildingBlock: MIFKUJ_clean_linker_0, # of connection points: 2
#     Edge 71, Type (0, 1), BuildingBlock: MIFKUJ_clean_linker_0, # of connection points: 2
#     Edge 72, Type (0, 1), BuildingBlock: MIFKUJ_clean_linker_0, # of connection points: 2
#     Edge 73, Type (0, 1), BuildingBlock: MIFKUJ_clean_linker_0, # of connection points: 2
#     Edge 74, Type (0, 1), BuildingBlock: MIFKUJ_clean_linker_0, # of connection points: 2
#     Edge 75, Type (0, 1), BuildingBlock: MIFKUJ_clean_linker_0, # of connection points: 2
#     Edge 76, Type (0, 1), BuildingBlock: MIFKUJ_clean_linker_0, # of connection points: 2
#     Edge 77, Type (0, 1), BuildingBlock: MIFKUJ_clean_linker_0, # of connection points: 2
#     Edge 78, Type (0, 1), BuildingBlock: MIFKUJ_clean_linker_0, # of connection points: 2
#     Edge 79, Type (0, 1), BuildingBlock: MIFKUJ_clean_linker_0, # of connection points: 2
#     Edge 80, Type (0, 1), BuildingBlock: MIFKUJ_clean_linker_0, # of connection points: 2
#     Edge 81, Type (0, 1), BuildingBlock: MIFKUJ_clean_linker_0, # of connection points: 2
#     Edge 82, Type (0, 1), BuildingBlock: MIFKUJ_clean_linker_0, # of connection points: 2
#     Edge 83, Type (0, 1), BuildingBlock: MIFKUJ_clean_linker_0, # of connection points: 2
#     Edge 84, Type (0, 1), BuildingBlock: MIFKUJ_clean_linker_0, # of connection points: 2
#     Edge 85, Type (0, 1), BuildingBlock: MIFKUJ_clean_linker_0, # of connection points: 2
#     Edge 86, Type (0, 1), BuildingBlock: MIFKUJ_clean_linker_0, # of connection points: 2
#     Edge 87, Type (0, 1), BuildingBlock: MIFKUJ_clean_linker_0, # of connection points: 2
#     Edge 88, Type (0, 1), BuildingBlock: MIFKUJ_clean_linker_0, # of connection points: 2
#     Edge 89, Type (0, 1), BuildingBlock: MIFKUJ_clean_linker_0, # of connection points: 2
#     Edge 90, Type (0, 1), BuildingBlock: MIFKUJ_clean_linker_0, # of connection points: 2
#     Edge 91, Type (0, 1), BuildingBlock: MIFKUJ_clean_linker_0, # of connection points: 2
#     Edge 92, Type (0, 1), BuildingBlock: MIFKUJ_clean_linker_0, # of connection points: 2
#     Edge 93, Type (0, 1), BuildingBlock: MIFKUJ_clean_linker_0, # of connection points: 2
#     Edge 94, Type (0, 1), BuildingBlock: MIFKUJ_clean_linker_0, # of connection points: 2
#     Edge 95, Type (0, 1), BuildingBlock: MIFKUJ_clean_linker_0, # of connection points: 2
#     Edge 96, Type (0, 1), BuildingBlock: MIFKUJ_clean_linker_0, # of connection points: 2
#     Edge 97, Type (0, 1), BuildingBlock: MIFKUJ_clean_linker_0, # of connection points: 2
#     Edge 98, Type (0, 1), BuildingBlock: MIFKUJ_clean_linker_0, # of connection points: 2
#     Edge 99, Type (0, 1), BuildingBlock: MIFKUJ_clean_linker_0, # of connection points: 2
#     Edge 100, Type (0, 1), BuildingBlock: MIFKUJ_clean_linker_0, # of connection points: 2
#     Edge 101, Type (0, 1), BuildingBlock: MIFKUJ_clean_linker_0, # of connection points: 2
#     Edge 102, Type (0, 1), BuildingBlock: MIFKUJ_clean_linker_0, # of connection points: 2
#     Edge 103, Type (0, 1), BuildingBlock: MIFKUJ_clean_linker_0, # of connection points: 2
#     Edge 104, Type (0, 1), BuildingBlock: MIFKUJ_clean_linker_0, # of connection points: 2
#     Edge 105, Type (0, 1), BuildingBlock: MIFKUJ_clean_linker_0, # of connection points: 2
#     Edge 106, Type (0, 1), BuildingBlock: MIFKUJ_clean_linker_0, # of connection points: 2
#     Edge 107, Type (0, 1), BuildingBlock: MIFKUJ_clean_linker_0, # of connection points: 2
#     Edge 108, Type (0, 1), BuildingBlock: MIFKUJ_clean_linker_0, # of connection points: 2
#     Edge 109, Type (0, 1), BuildingBlock: MIFKUJ_clean_linker_0, # of connection points: 2
#     Edge 110, Type (0, 1), BuildingBlock: MIFKUJ_clean_linker_0, # of connection points: 2
#     Edge 111, Type (0, 1), BuildingBlock: MIFKUJ_clean_linker_0, # of connection points: 2
#     Edge 112, Type (0, 1), BuildingBlock: MIFKUJ_clean_linker_0, # of connection points: 2
#     Edge 113, Type (0, 1), BuildingBlock: MIFKUJ_clean_linker_0, # of connection points: 2
#     Edge 114, Type (0, 1), BuildingBlock: MIFKUJ_clean_linker_0, # of connection points: 2
#     Edge 115, Type (0, 1), BuildingBlock: MIFKUJ_clean_linker_0, # of connection points: 2
#     Edge 116, Type (0, 1), BuildingBlock: MIFKUJ_clean_linker_0, # of connection points: 2
#     Edge 117, Type (0, 1), BuildingBlock: MIFKUJ_clean_linker_0, # of connection points: 2
#     Edge 118, Type (0, 1), BuildingBlock: MIFKUJ_clean_linker_0, # of connection points: 2
#     Edge 119, Type (0, 1), BuildingBlock: MIFKUJ_clean_linker_0, # of connection points: 2
#     Edge 120, Type (0, 1), BuildingBlock: MIFKUJ_clean_linker_0, # of connection points: 2
#     Edge 121, Type (0, 1), BuildingBlock: MIFKUJ_clean_linker_0, # of connection points: 2
#     Edge 122, Type (0, 1), BuildingBlock: MIFKUJ_clean_linker_0, # of connection points: 2
#     Edge 123, Type (0, 1), BuildingBlock: MIFKUJ_clean_linker_0, # of connection points: 2
#     Edge 124, Type (0, 1), BuildingBlock: MIFKUJ_clean_linker_0, # of connection points: 2
#     Edge 125, Type (0, 1), BuildingBlock: MIFKUJ_clean_linker_0, # of connection points: 2
#     Edge 126, Type (0, 1), BuildingBlock: MIFKUJ_clean_linker_0, # of connection points: 2
#     Edge 127, Type (0, 1), BuildingBlock: MIFKUJ_clean_linker_0, # of connection points: 2
#     Edge 128, Type (0, 1), BuildingBlock: MIFKUJ_clean_linker_0, # of connection points: 2
#     Edge 129, Type (0, 1), BuildingBlock: MIFKUJ_clean_linker_0, # of connection points: 2
#     Edge 130, Type (0, 1), BuildingBlock: MIFKUJ_clean_linker_0, # of connection points: 2
#     Edge 131, Type (0, 1), BuildingBlock: MIFKUJ_clean_linker_0, # of connection points: 2
#     Edge 132, Type (0, 1), BuildingBlock: MIFKUJ_clean_linker_0, # of connection points: 2
#     Edge 133, Type (0, 1), BuildingBlock: MIFKUJ_clean_linker_0, # of connection points: 2
#     Edge 134, Type (0, 1), BuildingBlock: MIFKUJ_clean_linker_0, # of connection points: 2
#     Edge 135, Type (0, 1), BuildingBlock: MIFKUJ_clean_linker_0, # of connection points: 2
# Relax obj value: 0.125
# Max RMSD: 0.314
# Mean RMSD: 0.168
data_MOF--net-gar--node1-TATPOV_clean_sbu_0--node2-KUMBOL_clean_sbu_0--edge1-MIFKUJ_clean_linker_0
_symmetry_space_group_name_H-M    P1
_symmetry_Int_Tables_number       1
_symmetry_cell_setting            triclinic
loop_
_symmetry_equiv_pos_as_xyz
'x, y, z'
_cell_length_a     76.837946
_cell_length_b     72.759046
_cell_length_c     73.16956
_cell_angle_alpha  100.32576
_cell_angle_beta   93.487726
_cell_angle_gamma 104.37442
loop_
_atom_site_label
_atom_site_type_symbol
_atom_site_fract_x
_atom_site_fract_y
_atom_site_fract_z
_atom_type_partial_charge
Zn0 Zn 0.08012 0.323 0.41427 0.0
Zn1 Zn 0.09389 0.3122 0.38489 0.0
O2 O 0.10693 0.34054 0.39686 0.0
O3 O 0.10163 0.34498 0.42609 0.0
O4 O 0.10699 0.30748 0.36237 0.0
O5 O 0.07647 0.29695 0.42048 0.0
O6 O 0.0938 0.28958 0.39896 0.0
C7 C 0.10975 0.35127 0.41307 0.0
C8 C 0.05787 0.31997 0.38029 0.0
O9 O 0.06893 0.31109 0.3732 0.0
O10 O 0.0605 0.32797 0.39746 0.0
C11 C 0.11239 0.32107 0.35356 0.0
O12 O 0.10951 0.3381 0.35936 0.0
C13 C 0.0846 0.28528 0.41227 0.0
Zn14 Zn 0.99553 0.73779 0.67834 0.0
Zn15 Zn 0.00567 0.76704 0.66001 0.0
O16 O 0.98372 0.77167 0.67267 0.0
O17 O 0.97873 0.75083 0.69149 0.0
O18 O 0.01109 0.78792 0.64479 0.0
O19 O 0.02143 0.74477 0.68896 0.0
O20 O 0.02891 0.77097 0.67692 0.0
C21 C 0.97532 0.76491 0.68547 0.0
C22 C 0.99335 0.72437 0.63979 0.0
O23 O 0.00142 0.74208 0.64088 0.0
O24 O 0.98733 0.71839 0.65396 0.0
C25 C 0.00461 0.78442 0.62773 0.0
O26 O 0.99428 0.76712 0.62009 0.0
C27 C 0.03309 0.75978 0.68695 0.0
Zn28 Zn 0.57819 0.8252 0.92186 0.0
Zn29 Zn 0.59775 0.82008 0.89356 0.0
O30 O 0.61089 0.84727 0.90785 0.0
O31 O 0.59689 0.85029 0.9331 0.0
O32 O 0.6126 0.81599 0.8727 0.0
O33 O 0.57961 0.79995 0.92784 0.0
O34 O 0.5975 0.79655 0.90574 0.0
C35 C 0.60919 0.85715 0.92352 0.0
C36 C 0.559 0.82196 0.88594 0.0
O37 O 0.57368 0.81957 0.88006 0.0
O38 O 0.55749 0.82486 0.9033 0.0
C39 C 0.61804 0.82842 0.8627 0.0
O40 O 0.61383 0.84505 0.86603 0.0
C41 C 0.58906 0.79037 0.91879 0.0
Zn42 Zn 0.50339 0.24671 0.18523 0.0
Zn43 Zn 0.50521 0.26805 0.15846 0.0
O44 O 0.48499 0.27425 0.17341 0.0
O45 O 0.48459 0.25836 0.19642 0.0
O46 O 0.50828 0.28604 0.14042 0.0
O47 O 0.52964 0.25853 0.19431 0.0
O48 O 0.53118 0.27392 0.17092 0.0
C49 C 0.47841 0.2695 0.18798 0.0
C50 C 0.49398 0.22466 0.14675 0.0
O51 O 0.49715 0.24121 0.14234 0.0
O52 O 0.49581 0.22327 0.16376 0.0
C53 C 0.49564 0.28777 0.12938 0.0
O54 O 0.47907 0.27718 0.12936 0.0
C55 C 0.53882 0.26954 0.18483 0.0
Zn56 Zn 0.10486 0.81204 0.08862 0.0
Zn57 Zn 0.07998 0.80976 0.1121 0.0
O58 O 0.07947 0.83426 0.09974 0.0
O59 O 0.09832 0.83405 0.07831 0.0
O60 O 0.05743 0.80742 0.12669 0.0
O61 O 0.09471 0.78405 0.07509 0.0
O62 O 0.07433 0.78175 0.09497 0.0
C63 C 0.08696 0.84154 0.08652 0.0
C64 C 0.11972 0.81617 0.12777 0.0
O65 O 0.10315 0.81353 0.131 0.0
O66 O 0.12375 0.81705 0.1113 0.0
C67 C 0.057 0.81178 0.14431 0.0
O68 O 0.07234 0.81844 0.15524 0.0
C69 C 0.08141 0.77383 0.08131 0.0
Zn70 Zn 0.49413 0.76221 0.44333 0.0
Zn71 Zn 0.51687 0.763 0.41783 0.0
O72 O 0.52248 0.79132 0.43321 0.0
O73 O 0.50753 0.78932 0.45779 0.0
O74 O 0.53864 0.76445 0.40234 0.0
O75 O 0.49808 0.73763 0.45078 0.0
O76 O 0.51952 0.74054 0.43213 0.0
C77 C 0.51828 0.7994 0.44868 0.0
C78 C 0.47721 0.75955 0.40518 0.0
O79 O 0.49261 0.75827 0.40002 0.0
O80 O 0.47491 0.76138 0.42238 0.0
C81 C 0.54052 0.76897 0.38639 0.0
O82 O 0.52698 0.77295 0.37747 0.0
C83 C 0.51105 0.73188 0.44405 0.0
Zn84 Zn 0.60444 0.3121 0.58894 0.0
Zn85 Zn 0.57956 0.30905 0.61227 0.0
O86 O 0.57785 0.33287 0.59937 0.0
O87 O 0.59655 0.33289 0.5778 0.0
O88 O 0.5583 0.30603 0.62882 0.0
O89 O 0.59588 0.28371 0.57693 0.0
O90 O 0.57408 0.28092 0.59525 0.0
C91 C 0.58489 0.33999 0.58588 0.0
C92 C 0.62006 0.31717 0.62725 0.0
O93 O 0.60347 0.3138 0.63052 0.0
O94 O 0.62396 0.31846 0.61085 0.0
C95 C 0.54734 0.31673 0.63014 0.0
O96 O 0.54986 0.33111 0.62116 0.0
C97 C 0.58232 0.27325 0.58253 0.0
Zn98 Zn 0.99391 0.26146 0.94321 0.0
Zn99 Zn 0.01594 0.26285 0.917 0.0
O100 O 0.02273 0.29123 0.93304 0.0
O101 O 0.00608 0.28929 0.95639 0.0
O102 O 0.03588 0.26417 0.89908 0.0
O103 O 0.00041 0.23862 0.9517 0.0
O104 O 0.019 0.23949 0.93005 0.0
C105 C 0.01773 0.29934 0.94808 0.0
C106 C 0.97507 0.25708 0.90592 0.0
O107 O 0.99092 0.2585 0.9007 0.0
O108 O 0.97293 0.25737 0.92303 0.0
C109 C 0.05234 0.269 0.90629 0.0
O110 O 0.05567 0.27301 0.9246 0.0
C111 C 0.01203 0.23176 0.94327 0.0
Zn112 Zn 0.42144 0.00905 0.27978 0.0
Zn113 Zn 0.41199 0.04121 0.28342 0.0
O114 O 0.42387 0.04203 0.30957 0.0
O115 O 0.42904 0.01335 0.30715 0.0
O116 O 0.405 0.06608 0.28681 0.0
O117 O 0.43907 0.01741 0.26232 0.0
O118 O 0.42848 0.04282 0.26216 0.0
C119 C 0.42936 0.02963 0.31698 0.0
C120 C 0.38393 0.00311 0.26908 0.0
O121 O 0.38741 0.02118 0.27562 0.0
O122 O 0.3964 0.99455 0.26873 0.0
C123 C 0.39239 0.06805 0.29681 0.0
O124 O 0.38476 0.05394 0.30505 0.0
C125 C 0.4386 0.03226 0.2558 0.0
Zn126 Zn 0.27664 0.2144 0.50037 0.0
Zn127 Zn 0.29835 0.19186 0.50395 0.0
O128 O 0.30451 0.20276 0.47973 0.0
O129 O 0.2866 0.22181 0.47725 0.0
O130 O 0.31707 0.17663 0.50735 0.0
O131 O 0.28493 0.23062 0.52618 0.0
O132 O 0.30212 0.21116 0.52974 0.0
C133 C 0.29869 0.21417 0.47103 0.0
C134 C 0.25741 0.17409 0.49757 0.0
O135 O 0.27321 0.17162 0.5001 0.0
O136 O 0.25558 0.19085 0.49718 0.0
C137 C 0.32379 0.16834 0.49373 0.0
O138 O 0.31815 0.16901 0.47661 0.0
C139 C 0.29588 0.22539 0.53645 0.0
Zn140 Zn 0.14554 0.02379 0.76464 0.0
Zn141 Zn 0.16791 0.00319 0.76374 0.0
O142 O 0.15347 0.00344 0.79066 0.0
O143 O 0.13295 0.01922 0.7874 0.0
O144 O 0.1818 0.97814 0.76295 0.0
O145 O 0.13204 0.01675 0.73885 0.0
O146 O 0.1528 0.00076 0.73442 0.0
C147 C 0.14044 0.01021 0.79736 0.0
C148 C 0.18329 0.04788 0.76839 0.0
O149 O 0.18762 0.03167 0.76741 0.0
O150 O 0.1667 0.04759 0.76794 0.0
C151 C 0.19857 0.97728 0.7626 0.0
O152 O 0.21066 0.9935 0.76225 0.0
C153 C 0.13969 0.00695 0.72753 0.0
Zn154 Zn 0.3448 0.92005 0.00058 0.0
Zn155 Zn 0.29611 0.93083 0.00621 0.0
O156 O 0.29129 0.91358 0.97963 0.0
O157 O 0.31912 0.91712 0.98908 0.0
O158 O 0.27248 0.93561 0.01281 0.0
O159 O 0.33573 0.91149 0.02416 0.0
O160 O 0.30818 0.91763 0.02575 0.0
C161 C 0.30602 0.90954 0.97645 0.0
C162 C 0.32806 0.95473 0.00584 0.0
O163 O 0.31289 0.95823 0.00722 0.0
O164 O 0.32783 0.9371 0.00126 0.0
C165 C 0.26653 0.94479 0.00169 0.0
O166 O 0.27567 0.94889 0.98767 0.0
C167 C 0.3212 0.91127 0.03207 0.0
Zn168 Zn 0.31468 0.35786 0.02571 0.0
Zn169 Zn 0.29562 0.38256 0.02905 0.0
O170 O 0.28956 0.36608 0.0015 0.0
O171 O 0.30246 0.34222 0.00096 0.0
O172 O 0.27713 0.39895 0.03031 0.0
O173 O 0.30861 0.3488 0.04913 0.0
O174 O 0.29094 0.36847 0.05209 0.0
C175 C 0.29274 0.3506 0.99273 0.0
C176 C 0.33641 0.39742 0.02965 0.0
O177 O 0.32145 0.40176 0.03208 0.0
O178 O 0.33671 0.37982 0.0263 0.0
C179 C 0.27235 0.40529 0.01616 0.0
O180 O 0.28015 0.40207 0.00086 0.0
C181 C 0.2975 0.35587 0.05818 0.0
Zn182 Zn 0.75182 0.1681 0.00369 0.0
Zn183 Zn 0.78907 0.14045 0.01542 0.0
O184 O 0.79823 0.15066 0.99197 0.0
O185 O 0.77361 0.15813 -0.00246 0.0
O186 O 0.80924 0.13138 0.02625 0.0
O187 O 0.76289 0.18047 0.03053 0.0
O188 O 0.78322 0.16314 0.03492 0.0
C189 C 0.78707 0.15996 0.98826 0.0
C190 C 0.75382 0.12547 0.00449 0.0
O191 O 0.7659 0.1175 0.00886 0.0
O192 O 0.7594 0.14317 0.00374 0.0
C193 C 0.80941 0.11409 0.01949 0.0
O194 O 0.796 0.10319 0.00719 0.0
C195 C 0.77519 0.17643 0.04057 0.0
Zn196 Zn 0.17246 0.5618 0.23291 0.0
Zn197 Zn 0.18614 0.53251 0.23227 0.0
O198 O 0.17862 0.53658 0.2585 0.0
O199 O 0.17274 0.56494 0.26095 0.0
O200 O 0.19798 0.51133 0.23204 0.0
O201 O 0.1507 0.54414 0.2164 0.0
O202 O 0.16528 0.52153 0.21149 0.0
C203 C 0.17474 0.551 0.26829 0.0
C204 C 0.20797 0.57011 0.22321 0.0
O205 O 0.20716 0.5542 0.22832 0.0
O206 O 0.19397 0.57617 0.22193 0.0
C207 C 0.21265 0.51591 0.24275 0.0
O208 O 0.21818 0.53339 0.25322 0.0
C209 C 0.15153 0.52762 0.20805 0.0
Zn210 Zn 0.81973 0.86297 0.52871 0.0
Zn211 Zn 0.79735 0.88476 0.52793 0.0
O212 O 0.79309 0.868 0.50074 0.0
O213 O 0.81212 0.85001 0.50197 0.0
O214 O 0.77887 0.9009 0.52792 0.0
O215 O 0.80879 0.85047 0.54883 0.0
O216 O 0.7911 0.87018 0.55027 0.0
C217 C 0.80028 0.85506 0.49273 0.0
C218 C 0.83853 0.90317 0.53479 0.0
O219 O 0.82253 0.90508 0.53206 0.0
O220 O 0.84088 0.88657 0.53491 0.0
C221 C 0.76314 0.89382 0.519 0.0
O222 O 0.75881 0.87583 0.50967 0.0
C223 C 0.79654 0.85689 0.55636 0.0
Zn224 Zn 0.95173 0.04576 0.26468 0.0
Zn225 Zn 0.93179 0.06917 0.26885 0.0
O226 O 0.94821 0.0714 0.29724 0.0
O227 O 0.96631 0.05284 0.28968 0.0
O228 O 0.91853 0.0946 0.27099 0.0
O229 O 0.96363 0.05012 0.24148 0.0
O230 O 0.94577 0.06956 0.24183 0.0
C231 C 0.96082 0.06357 0.30235 0.0
C232 C 0.91415 0.02423 0.26409 0.0
O233 O 0.91121 0.0412 0.26584 0.0
O234 O 0.93015 0.02278 0.26287 0.0
C235 C 0.90193 0.09502 0.26662 0.0
O236 O 0.89011 0.07823 0.2603 0.0
C237 C 0.95742 0.06157 0.23356 0.0
Zn238 Zn 0.25193 0.6439 0.51043 0.0
Zn239 Zn 0.28228 0.63832 0.51697 0.0
O240 O 0.28268 0.64608 0.49102 0.0
O241 O 0.25804 0.6562 0.48917 0.0
O242 O 0.30587 0.63154 0.5203 0.0
O243 O 0.25436 0.65937 0.53669 0.0
O244 O 0.2834 0.66074 0.53877 0.0
C245 C 0.27216 0.65356 0.48242 0.0
C246 C 0.24753 0.60589 0.51212 0.0
O247 O 0.26361 0.61322 0.51996 0.0
O248 O 0.23963 0.61599 0.50409 0.0
C249 C 0.30626 0.61506 0.51124 0.0
O250 O 0.29174 0.60414 0.50046 0.0
C251 C 0.27007 0.66603 0.54537 0.0
Zn252 Zn 0.45317 0.54598 0.76492 0.0
Zn253 Zn 0.43267 0.56957 0.7675 0.0
O254 O 0.44799 0.5724 0.79654 0.0
O255 O 0.46607 0.55326 0.79107 0.0
O256 O 0.41773 0.59342 0.76676 0.0
O257 O 0.46655 0.55178 0.74293 0.0
O258 O 0.44747 0.56955 0.74092 0.0
C259 C 0.46019 0.56461 0.80278 0.0
C260 C 0.41525 0.52435 0.76112 0.0
O261 O 0.41259 0.54146 0.76411 0.0
O262 O 0.43122 0.52273 0.76006 0.0
C263 C 0.41337 0.60602 0.77949 0.0
O264 O 0.41797 0.60571 0.797 0.0
C265 C 0.46002 0.56219 0.73383 0.0
Zn266 Zn 0.67278 0.06198 0.7374 0.0
Zn267 Zn 0.68666 0.03254 0.73599 0.0
O268 O 0.67722 0.0348 0.76146 0.0
O269 O 0.67083 0.06298 0.76493 0.0
O270 O 0.69582 0.00927 0.73443 0.0
O271 O 0.65197 0.04588 0.71858 0.0
O272 O 0.66754 0.02421 0.71357 0.0
C273 C 0.67242 0.04846 0.7715 0.0
C274 C 0.70986 0.0705 0.73026 0.0
O275 O 0.709 0.05421 0.73466 0.0
O276 O 0.6958 0.07647 0.7288 0.0
C277 C 0.70607 0.00488 0.72237 0.0
O278 O 0.71131 0.01626 0.71058 0.0
C279 C 0.65398 0.03026 0.70932 0.0
Zn280 Zn 0.7759 0.71391 0.00187 0.0
Zn281 Zn 0.79712 0.69091 0.00311 0.0
O282 O 0.8024 0.70221 0.97892 0.0
O283 O 0.78537 0.72247 0.97914 0.0
O284 O 0.81654 0.67641 0.00563 0.0
O285 O 0.78493 0.7301 0.02724 0.0
O286 O 0.8014 0.70967 0.02937 0.0
C287 C 0.79674 0.71457 0.9715 0.0
C288 C 0.7564 0.67347 -0.00121 0.0
O289 O 0.77214 0.67056 -0.00032 0.0
O290 O 0.75471 0.69045 -0.00057 0.0
C291 C 0.81779 0.66179 0.9938 0.0
O292 O 0.80567 0.65498 0.9791 0.0
C293 C 0.79587 0.72419 0.0368 0.0
Zn294 Zn 0.9341 0.51989 0.77914 0.0
Zn295 Zn 0.91631 0.54615 0.78185 0.0
O296 O 0.93146 0.55254 0.80769 0.0
O297 O 0.94599 0.5298 0.80504 0.0
O298 O 0.90332 0.56717 0.78416 0.0
O299 O 0.94537 0.52792 0.75719 0.0
O300 O 0.93061 0.55045 0.75901 0.0
C301 C 0.94233 0.54432 0.81468 0.0
C302 C 0.89642 0.50277 0.77439 0.0
O303 O 0.89574 0.5204 0.77688 0.0
O304 O 0.91154 0.49884 0.77473 0.0
C305 C 0.88894 0.56678 0.79199 0.0
O306 O 0.88148 0.55168 0.79902 0.0
C307 C 0.94137 0.54165 0.75099 0.0
Zn308 Zn 0.8307 0.4075 0.52484 0.0
Zn309 Zn 0.80486 0.42264 0.51812 0.0
O310 O 0.80818 0.40927 0.49184 0.0
O311 O 0.83364 0.40164 0.49773 0.0
O312 O 0.78422 0.4345 0.51404 0.0
O313 O 0.81539 0.38747 0.53659 0.0
O314 O 0.79586 0.405 0.53674 0.0
C315 C 0.82133 0.4029 0.48612 0.0
C316 C 0.84174 0.44757 0.53746 0.0
O317 O 0.82657 0.44594 0.5284 0.0
O318 O 0.84607 0.43254 0.54025 0.0
C319 C 0.78666 0.4509 0.50939 0.0
O320 O 0.80295 0.46013 0.50655 0.0
C321 C 0.80094 0.39103 0.54163 0.0
Zn322 Zn 0.64521 0.52089 0.26466 0.0
Zn323 Zn 0.66843 0.50052 0.26216 0.0
O324 O 0.65468 0.49951 0.28919 0.0
O325 O 0.63381 0.51535 0.28804 0.0
O326 O 0.68402 0.47691 0.25942 0.0
O327 O 0.63085 0.51245 0.23915 0.0
O328 O 0.65281 0.49847 0.2334 0.0
C329 C 0.64184 0.50585 0.29687 0.0
C330 C 0.68287 0.54542 0.2671 0.0
O331 O 0.68738 0.52931 0.266 0.0
O332 O 0.66626 0.54502 0.26705 0.0
C333 C 0.68771 0.46709 0.27176 0.0
O334 O 0.68198 0.47111 0.28818 0.0
C335 C 0.63892 0.50385 0.22722 0.0
Gd336 Gd 0.07252 0.05487 0.02797 0.0
Gd337 Gd 0.0305 0.02304 0.00586 0.0
C338 C 0.02239 0.95783 -0.00082 0.0
C339 C 0.01895 0.94717 0.96545 0.0
C340 C 0.02381 0.98132 0.97928 0.0
C341 C 0.02506 0.9772 -0.003 0.0
C342 C 0.02026 0.96625 0.96332 0.0
C343 C 0.01994 0.94296 0.98336 0.0
C344 C 0.02138 0.95387 0.01715 0.0
C345 C 0.02254 0.96896 0.03229 0.0
N346 N 0.02734 0.99186 0.01208 0.0
C347 C 0.02549 0.98791 0.02952 0.0
H348 H 0.02651 0.99927 0.04151 0.0
C349 C 0.01998 0.00375 0.96068 0.0
N350 N 0.0245 -0.00022 0.97768 0.0
C351 C 0.01674 0.98939 0.94446 0.0
C352 C 0.01721 0.97062 0.94574 0.0
H353 H 0.01917 0.01811 0.95953 0.0
H354 H 0.01814 0.92806 0.9848 0.0
H355 H 0.10943 0.05909 0.0043 0.0
H356 H 0.01914 0.93919 0.01942 0.0
H357 H 0.02105 0.96609 0.04611 0.0
H358 H 0.01641 0.93546 0.95335 0.0
H359 H 0.0444 0.0794 0.05005 0.0
H360 H 0.12117 0.11367 0.98735 0.0
H361 H 0.12761 0.08206 0.98746 0.0
H362 H 0.08035 0.14555 0.0179 0.0
H363 H 0.01371 0.99278 0.931 0.0
H364 H 0.01444 0.95945 0.93317 0.0
H365 H 0.1036 0.13725 -0.00112 0.0
H366 H 0.03951 0.11153 0.05481 0.0
N367 N 0.09146 0.07655 0.01219 0.0
C368 C 0.11287 0.10346 0.99448 0.0
C369 C 0.11652 0.08564 0.99446 0.0
C370 C 0.09907 0.10822 0.00435 0.0
C371 C 0.08856 0.09436 0.01335 0.0
C372 C 0.10597 0.07254 0.00381 0.0
N373 N 0.06543 0.0853 0.03236 0.0
C374 C 0.07546 0.09902 0.02406 0.0
C375 C 0.04969 0.10823 0.04613 0.0
C376 C 0.05956 0.12221 0.03733 0.0
C377 C 0.05271 0.08982 0.04343 0.0
C378 C 0.07255 0.1177 0.02606 0.0
H379 H 0.05698 0.13637 0.03922 0.0
O380 O 0.07996 0.05883 0.05792 0.0
O381 O 0.05469 0.02484 0.02518 0.0
O382 O 0.02696 0.03071 0.03727 0.0
O383 O 0.05408 0.05202 0.05168 0.0
O384 O 0.08152 0.0273 0.02152 0.0
O385 O 0.10058 0.0659 0.03986 0.0
O386 O 0.00928 0.03818 0.00773 0.0
O387 O 0.04622 0.05421 0.01335 0.0
O388 O 0.07746 0.04241 -0.00235 0.0
O389 O 0.05032 0.02069 0.98347 0.0
O390 O 0.03424 0.04372 0.98601 0.0
O391 O 0.00229 0.00707 0.00329 0.0
C392 C 0.06625 0.01512 0.0221 0.0
C393 C 0.0826 0.13128 0.01671 0.0
C394 C 0.09579 0.12653 0.00583 0.0
C395 C 0.09718 0.06381 0.0566 0.0
C396 C 0.10841 0.05413 0.06647 0.0
C397 C 0.10876 0.05619 0.08592 0.0
C398 C 0.11918 0.04342 0.0569 0.0
C399 C 0.13061 0.03521 0.06672 0.0
C400 C 0.11984 0.04786 0.09573 0.0
C401 C 0.13079 0.03756 0.08626 0.0
C402 C 0.03707 0.04224 0.05243 0.0
C403 C 0.04403 0.05882 -0.0025 0.0
C404 C 0.99631 0.02235 0.00433 0.0
C405 C 0.98104 0.02134 0.99076 0.0
C406 C 0.97745 0.00858 0.97332 0.0
C407 C 0.96932 0.03286 -0.00412 0.0
C408 C 0.95402 0.03175 0.98379 0.0
C409 C 0.96253 0.00774 0.96102 0.0
C410 C 0.95084 0.01923 0.96619 0.0
C411 C 0.06754 0.02989 0.98285 0.0
H412 H 0.10056 0.0644 0.09354 0.0
H413 H 0.11869 0.04149 0.04183 0.0
H414 H 0.12014 0.04963 0.11076 0.0
H415 H 0.13965 0.03177 0.09434 0.0
H416 H 0.98592 0.99904 0.96931 0.0
H417 H 0.97178 0.04217 0.00964 0.0
H418 H 0.95987 0.99794 0.94756 0.0
H419 H 0.93924 0.01821 0.9565 0.0
Gd420 Gd 0.2856 0.8011 0.29612 0.0
Gd421 Gd 0.30601 0.78558 0.25306 0.0
C422 C 0.2932 0.72488 0.21646 0.0
C423 C 0.32233 0.71756 0.21846 0.0
C424 C 0.31882 0.74808 0.23564 0.0
C425 C 0.30073 0.74282 0.22881 0.0
C426 C 0.32989 0.73563 0.23034 0.0
C427 C 0.30404 0.71223 0.21148 0.0
C428 C 0.27504 0.72025 0.20933 0.0
C429 C 0.26472 0.73312 0.21487 0.0
N430 N 0.2905 0.7552 0.23425 0.0
C431 C 0.2726 0.75045 0.22752 0.0
H432 H 0.26406 0.75975 0.23176 0.0
C433 C 0.34397 0.77241 0.25217 0.0
N434 N 0.32576 0.7657 0.24691 0.0
C435 C 0.35544 0.76049 0.24754 0.0
C436 C 0.34834 0.74192 0.23673 0.0
H437 H 0.34956 0.78692 0.26027 0.0
H438 H 0.29843 0.69835 0.20212 0.0
H439 H 0.32598 0.83015 0.31706 0.0
H440 H 0.26885 0.70677 0.19956 0.0
H441 H 0.25065 0.7297 0.20941 0.0
H442 H 0.3306 0.70777 0.2143 0.0
H443 H 0.24105 0.7957 0.29438 0.0
H444 H 0.32122 0.88807 0.33133 0.0
H445 H 0.33971 0.86458 0.33023 0.0
H446 H 0.25791 0.88095 0.31707 0.0
H447 H 0.36977 0.7657 0.25217 0.0
H448 H 0.35727 0.73276 0.233 0.0
H449 H 0.29068 0.89411 0.32602 0.0
H450 H 0.21961 0.81618 0.29795 0.0
N451 N 0.29979 0.83374 0.31032 0.0
C452 C 0.31504 0.87287 0.32559 0.0
C453 C 0.3255 0.85965 0.32503 0.0
C454 C 0.2966 0.86621 0.31927 0.0
C455 C 0.28926 0.84627 0.31181 0.0
C456 C 0.31758 0.84003 0.31754 0.0
N457 N 0.2644 0.81962 0.30036 0.0
C458 C 0.27096 0.83897 0.30656 0.0
C459 C 0.23403 0.82281 0.30026 0.0
C460 C 0.24064 0.84293 0.30526 0.0
C461 C 0.24617 0.81128 0.29827 0.0
C462 C 0.2593 0.85124 0.3089 0.0
H463 H 0.23122 0.85185 0.30688 0.0
O464 O 0.26796 0.78448 0.31266 0.0
O465 O 0.29007 0.77689 0.27568 0.0
O466 O 0.27877 0.79127 0.24539 0.0
O467 O 0.26789 0.80553 0.27217 0.0
O468 O 0.26482 0.7727 0.28507 0.0
O469 O 0.29512 0.80109 0.32464 0.0
O470 O 0.32691 0.80178 0.23923 0.0
O471 O 0.30121 0.80935 0.27341 0.0
O472 O 0.31398 0.79692 0.30292 0.0
O473 O 0.32015 0.77683 0.27683 0.0
O474 O 0.32708 0.81345 0.26608 0.0
O475 O 0.29896 0.79206 0.2263 0.0
C476 C 0.27498 0.76477 0.27465 0.0
C477 C 0.26661 0.87124 0.31543 0.0
C478 C 0.28525 0.87872 0.32057 0.0
C479 C 0.27968 0.79023 0.32746 0.0
C480 C 0.27277 0.79573 0.34519 0.0
C481 C 0.26249 0.80927 0.34801 0.0
C482 C 0.27577 0.78601 0.35929 0.0
C483 C 0.2682 0.78914 0.37608 0.0
C484 C 0.25494 0.81256 0.36486 0.0
C485 C 0.25757 0.80232 0.37883 0.0
C486 C 0.26694 0.79952 0.25381 0.0
C487 C 0.3162 0.82158 0.27517 0.0
C488 C 0.31569 0.80075 0.22474 0.0
C489 C 0.32189 0.79648 0.20641 0.0
C490 C 0.32981 0.7812 0.20118 0.0
C491 C 0.31988 0.80842 0.19396 0.0
C492 C 0.32571 0.80535 0.17619 0.0
C493 C 0.33566 0.77798 0.18347 0.0
C494 C 0.33366 0.78999 0.17099 0.0
C495 C 0.32348 0.78532 0.29475 0.0
H496 H 0.2601 0.81702 0.33722 0.0
H497 H 0.28353 0.77536 0.35692 0.0
H498 H 0.24685 0.82284 0.36698 0.0
H499 H 0.25141 0.80467 0.39168 0.0
H500 H 0.33155 0.7719 0.21072 0.0
H501 H 0.31396 0.82034 0.1983 0.0
H502 H 0.34175 0.76617 0.1794 0.0
H503 H 0.33813 0.78715 0.15726 0.0
Gd504 Gd 0.52322 0.03179 0.52248 0.0
Gd505 Gd 0.56883 0.03945 0.50688 0.0
C506 C 0.60536 0.10068 0.51367 0.0
C507 C 0.60777 0.10398 0.48137 0.0
C508 C 0.59022 0.07391 0.48852 0.0
C509 C 0.59422 0.0817 0.50742 0.0
C510 C 0.59724 0.0848 0.47526 0.0
C511 C 0.6118 0.11192 0.50054 0.0
C512 C 0.61009 0.10759 0.5329 0.0
C513 C 0.60427 0.09539 0.54529 0.0
N514 N 0.58794 0.07037 0.51968 0.0
C515 C 0.59336 0.07661 0.53838 0.0
H516 H 0.5889 0.06735 0.54811 0.0
C517 C 0.57737 0.04629 0.46474 0.0
N518 N 0.58011 0.05533 0.48313 0.0
C519 C 0.58397 0.0565 0.45104 0.0
C520 C 0.59379 0.07591 0.4563 0.0
H521 H 0.56968 0.03132 0.46063 0.0
H522 H 0.62025 0.1266 0.50507 0.0
H523 H 0.50307 0.00056 0.48319 0.0
H524 H 0.61856 0.12211 0.53828 0.0
H525 H 0.60814 0.10047 0.56016 0.0
H526 H 0.61316 0.11265 0.47139 0.0
H527 H 0.52462 0.04401 0.56918 0.0
H528 H 0.4682 0.95108 0.49791 0.0
H529 H 0.48135 0.96846 0.47384 0.0
H530 H 0.47395 0.96731 0.56485 0.0
H531 H 0.58147 0.04941 0.43645 0.0
H532 H 0.59895 0.08378 0.44567 0.0
H533 H 0.46519 0.95104 0.53199 0.0
H534 H 0.5117 0.02974 0.59497 0.0
N535 N 0.50335 0.00081 0.51234 0.0
C536 C 0.47811 0.96496 0.50214 0.0
C537 C 0.48544 0.97476 0.4885 0.0
C538 C 0.48322 0.97347 0.52106 0.0
C539 C 0.4961 0.99163 0.52577 0.0
C540 C 0.49785 0.99294 0.49388 0.0
N541 N 0.51218 0.01901 0.54815 0.0
C542 C 0.50069 0.00099 0.54427 0.0
C543 C 0.50853 0.02147 0.58078 0.0
C544 C 0.49702 0.00277 0.57707 0.0
C545 C 0.51586 0.0295 0.56606 0.0
C546 C 0.49274 0.9924 0.55862 0.0
H547 H 0.4912 0.99666 0.58848 0.0
O548 O 0.50996 0.05385 0.53367 0.0
O549 O 0.54866 0.05337 0.5198 0.0
O550 O 0.56785 0.03502 0.53688 0.0
O551 O 0.53867 0.01736 0.5398 0.0
O552 O 0.53763 0.05824 0.54437 0.0
O553 O 0.49931 0.0348 0.50701 0.0
O554 O 0.58356 0.01974 0.4933 0.0
O555 O 0.54338 0.01797 0.50918 0.0
O556 O 0.52356 0.03337 0.49187 0.0
O557 O 0.55226 0.05204 0.48865 0.0
O558 O 0.55494 0.01264 0.485 0.0
O559 O 0.59208 0.03494 0.52189 0.0
C560 C 0.55047 0.06528 0.53507 0.0
C561 C 0.48027 0.97411 0.55404 0.0
C562 C 0.47538 0.96477 0.5353 0.0
C563 C 0.49711 0.04872 0.51985 0.0
C564 C 0.47862 0.04717 0.52499 0.0
C565 C 0.47024 0.03235 0.53392 0.0
C566 C 0.46942 0.06092 0.52146 0.0
C567 C 0.45207 0.06006 0.52722 0.0
C568 C 0.45306 0.03134 0.53952 0.0
C569 C 0.44405 0.0451 0.53628 0.0
C570 C 0.55635 0.02251 0.54453 0.0
C571 C 0.54181 0.00579 0.49412 0.0
C572 C 0.59539 0.02299 0.50785 0.0
C573 C 0.61451 0.02586 0.50448 0.0
C574 C 0.62401 0.04296 0.49943 0.0
C575 C 0.6236 0.01177 0.50721 0.0
C576 C 0.64222 0.01501 0.50535 0.0
C577 C 0.6424 0.04612 0.49736 0.0
C578 C 0.65149 0.03234 0.50043 0.0
C579 C 0.53477 0.04511 0.48336 0.0
H580 H 0.477 0.02163 0.53667 0.0
H581 H 0.47587 0.07245 0.51461 0.0
H582 H 0.44671 0.01985 0.54643 0.0
H583 H 0.43067 0.04391 0.54066 0.0
H584 H 0.61728 0.05394 0.49731 0.0
H585 H 0.61633 0.99858 0.51124 0.0
H586 H 0.64968 0.05938 0.49351 0.0
H587 H 0.66578 0.03515 0.49882 0.0
Gd588 Gd 0.3218 0.28315 0.7704 0.0
Gd589 Gd 0.27656 0.29066 0.76302 0.0
C590 C 0.24722 0.28027 0.70421 0.0
C591 C 0.24389 0.31228 0.70246 0.0
C592 C 0.25862 0.30684 0.73063 0.0
C593 C 0.25604 0.28759 0.72252 0.0
C594 C 0.25206 0.31928 0.72094 0.0
C595 C 0.24152 0.29281 0.69409 0.0
C596 C 0.24414 0.26051 0.69673 0.0
C597 C 0.24939 0.24852 0.70762 0.0
N598 N 0.26179 0.27592 0.73269 0.0
C599 C 0.25803 0.25644 0.72572 0.0
H600 H 0.262 0.24685 0.73377 0.0
C601 C 0.26654 0.33104 0.75817 0.0
N602 N 0.26637 0.31305 0.74853 0.0
C603 C 0.2603 0.34396 0.74916 0.0
C604 C 0.2533 0.33817 0.73036 0.0
H605 H 0.27198 0.33558 0.77272 0.0
H606 H 0.23488 0.28749 0.67995 0.0
H607 H 0.33733 0.32583 0.80064 0.0
H608 H 0.23746 0.25434 0.68271 0.0
H609 H 0.24683 0.23315 0.70208 0.0
H610 H 0.23896 0.32167 0.69471 0.0
H611 H 0.32684 0.2386 0.75832 0.0
H612 H 0.36241 0.3162 0.85035 0.0
H613 H 0.35315 0.33838 0.83224 0.0
H614 H 0.36054 0.24888 0.8354 0.0
H615 H 0.2609 0.35836 0.75672 0.0
H616 H 0.24839 0.34816 0.72342 0.0
H617 H 0.36537 0.28274 0.85123 0.0
H618 H 0.33819 0.21499 0.77269 0.0
N619 N 0.33617 0.29632 0.80106 0.0
C620 C 0.35498 0.31042 0.83662 0.0
C621 C 0.3499 0.32302 0.82638 0.0
C622 C 0.35121 0.29071 0.82862 0.0
C623 C 0.34164 0.28401 0.8106 0.0
C624 C 0.34085 0.31576 0.80839 0.0
N625 N 0.33182 0.25982 0.7835 0.0
C626 C 0.33931 0.26508 0.80153 0.0
C627 C 0.33848 0.22897 0.78101 0.0
C628 C 0.3454 0.2338 0.79983 0.0
C629 C 0.33204 0.24237 0.77293 0.0
C630 C 0.34632 0.25222 0.81021 0.0
H631 H 0.35064 0.22352 0.80599 0.0
O632 O 0.33855 0.27463 0.74907 0.0
O633 O 0.30009 0.28419 0.74904 0.0
O634 O 0.27474 0.25902 0.76506 0.0
O635 O 0.30255 0.25659 0.77775 0.0
O636 O 0.31083 0.26054 0.74476 0.0
O637 O 0.34794 0.30227 0.76782 0.0
O638 O 0.25949 0.30047 0.78337 0.0
O639 O 0.29842 0.28981 0.78404 0.0
O640 O 0.32371 0.31503 0.76916 0.0
O641 O 0.2961 0.31709 0.75563 0.0
O642 O 0.28741 0.31318 0.78914 0.0
O643 O 0.25095 0.2715 0.76706 0.0
C644 C 0.30015 0.26899 0.73739 0.0
C645 C 0.35503 0.25852 0.8285 0.0
C646 C 0.35764 0.27779 0.83761 0.0
C647 C 0.35185 0.29011 0.75436 0.0
C648 C 0.37018 0.28705 0.75621 0.0
C649 C 0.3765 0.282 0.77248 0.0
C650 C 0.38136 0.28878 0.74158 0.0
C651 C 0.39861 0.28512 0.74318 0.0
C652 C 0.39346 0.27842 0.77416 0.0
C653 C 0.4044 0.2799 0.75968 0.0
C654 C 0.28493 0.24912 0.77229 0.0
C655 C 0.29867 0.30494 0.7958 0.0
C656 C 0.24665 0.28444 0.77942 0.0
C657 C 0.22792 0.2864 0.7769 0.0
C658 C 0.22198 0.29178 0.76067 0.0
C659 C 0.21587 0.28299 0.79062 0.0
C660 C 0.19799 0.28488 0.78792 0.0
C661 C 0.2046 0.29408 0.75812 0.0
C662 C 0.19275 0.29075 0.77157 0.0
C663 C 0.31362 0.32478 0.76155 0.0
H664 H 0.36835 0.28087 0.78394 0.0
H665 H 0.37656 0.29267 0.72895 0.0
H666 H 0.39818 0.27453 0.78681 0.0
H667 H 0.41761 0.27727 0.76154 0.0
H668 H 0.23077 0.29422 0.74993 0.0
H669 H 0.2203 0.27857 0.80309 0.0
H670 H 0.20028 0.29846 0.74559 0.0
H671 H 0.17942 0.29292 0.76917 0.0
Gd672 Gd 0.0513 0.01145 0.50621 0.0
Gd673 Gd 0.04637 0.05782 0.52437 0.0
C674 C 0.07593 0.07768 0.58373 0.0
C675 C 0.0529 0.0637 0.60223 0.0
C676 C 0.04586 0.06067 0.56873 0.0
C677 C 0.06347 0.07044 0.56746 0.0
C678 C 0.04021 0.05791 0.58629 0.0
C679 C 0.07076 0.07357 0.60095 0.0
C680 C 0.09301 0.08939 0.58232 0.0
C681 C 0.09686 0.09466 0.56531 0.0
N682 N 0.06808 0.07402 0.55057 0.0
C683 C 0.08399 0.08729 0.54966 0.0
H684 H 0.08698 0.09218 0.53683 0.0
C685 C 0.01576 0.05 0.5547 0.0
N686 N 0.03391 0.05542 0.55309 0.0
C687 C 0.0095 0.04682 0.5717 0.0
C688 C 0.02183 0.05025 0.58748 0.0
H689 H 0.00584 0.04844 0.5431 0.0
H690 H 0.08027 0.07861 0.61348 0.0
H691 H 0.01065 0.00196 0.48195 0.0
H692 H 0.10297 0.09518 0.59446 0.0
H693 H 0.10969 0.10455 0.56427 0.0
H694 H 0.04888 0.06132 0.61574 0.0
H695 H 0.09157 0.00163 0.50626 0.0
H696 H 0.01674 0.9876 0.42378 0.0
H697 H 0.99729 0.99287 0.44905 0.0
H698 H 0.0784 0.98538 0.42377 0.0
H699 H 0.99514 0.04201 0.57266 0.0
H700 H 0.01695 0.04796 0.60069 0.0
H701 H 0.04703 0.98522 0.41443 0.0
H702 H 0.112 0.99275 0.48334 0.0
N703 N 0.03731 0.00251 0.47535 0.0
C704 C 0.02255 0.99163 0.4382 0.0
C705 C 0.01158 0.99457 0.4524 0.0
C706 C 0.04089 0.99332 0.4428 0.0
C707 C 0.04795 0.99873 0.46179 0.0
C708 C 0.01919 -0.00022 0.47103 0.0
N709 N 0.07148 0.00282 0.48552 0.0
C710 C 0.0656 0.99891 0.46703 0.0
C711 C 0.09906 0.99462 0.47856 0.0
C712 C 0.09377 0.99193 0.45945 0.0
C713 C 0.08751 -0.00032 0.49148 0.0
C714 C 0.07667 0.99359 0.45345 0.0
H715 H 0.10268 0.98787 0.44947 0.0
O716 O 0.05704 0.9899 0.52097 0.0
O717 O 0.05282 0.03198 0.53382 0.0
O718 O 0.07517 0.06095 0.51796 0.0
O719 O 0.07579 0.03209 0.49868 0.0
O720 O 0.07468 0.0206 0.52908 0.0
O721 O 0.0345 0.98175 0.49951 0.0
O722 O 0.02687 0.07527 0.52774 0.0
O723 O 0.03848 0.03429 0.49832 0.0
O724 O 0.02488 0.00861 0.51869 0.0
O725 O 0.01835 0.03727 0.51607 0.0
O726 O 0.05103 0.06148 0.49475 0.0
O727 O 0.05249 0.08612 0.51742 0.0
C728 C 0.06804 0.03102 0.54155 0.0
C729 C 0.07003 0.98928 0.43443 0.0
C730 C 0.05217 0.98916 0.42911 0.0
C731 C 0.04395 0.97593 0.5115 0.0
C732 C 0.04814 0.95734 0.50557 0.0
C733 C 0.05622 0.95314 0.48923 0.0
C734 C 0.04445 0.94382 0.51714 0.0
C735 C 0.04923 0.92621 0.51291 0.0
C736 C 0.06098 0.93568 0.48482 0.0
C737 C 0.05766 0.92234 0.49661 0.0
C738 C 0.0832 0.05044 0.50648 0.0
C739 C 0.04297 0.04429 0.48568 0.0
C740 C 0.03718 0.08934 0.52147 0.0
C741 C 0.03736 0.10958 0.52866 0.0
C742 C 0.0299 0.11542 0.54502 0.0
C743 C 0.04421 0.12315 0.51772 0.0
C744 C 0.04355 0.14246 0.52277 0.0
C745 C 0.02927 0.1347 0.55024 0.0
C746 C 0.03594 0.14814 0.53916 0.0
C747 C 0.01333 0.01922 0.5185 0.0
H748 H 0.0589 0.96327 0.47997 0.0
H749 H 0.0377 0.94709 0.52942 0.0
H750 H 0.0674 0.93253 0.47229 0.0
H751 H 0.06186 0.90912 0.49303 0.0
H752 H 0.02442 0.10514 0.55358 0.0
H753 H 0.04955 0.11846 0.50481 0.0
H754 H 0.02344 0.13921 0.56283 0.0
H755 H 0.03524 0.16296 0.54343 0.0
Gd756 Gd 0.28498 0.77302 0.77115 0.0
Gd757 Gd 0.3239 0.80436 0.76043 0.0
C758 C 0.32621 0.86371 0.74687 0.0
C759 C 0.33366 0.85948 0.71485 0.0
C760 C 0.3299 0.83277 0.73134 0.0
C761 C 0.326 0.84426 0.74695 0.0
C762 C 0.33412 0.84038 0.71525 0.0
C763 C 0.32974 0.87113 0.73064 0.0
C764 C 0.32322 0.87524 0.76323 0.0
C765 C 0.32044 0.86744 0.77923 0.0
N766 N 0.32276 0.83671 0.76247 0.0
C767 C 0.32038 0.84811 0.77865 0.0
H768 H 0.31822 0.84241 0.79118 0.0
C769 C 0.33655 0.8035 0.7181 0.0
N770 N 0.33065 0.81453 0.73232 0.0
C771 C 0.34068 0.81034 0.70178 0.0
C772 C 0.33925 0.82877 0.70025 0.0
H773 H 0.33769 0.78922 0.71916 0.0
H774 H 0.32981 0.88597 0.73027 0.0
H775 H 0.29073 0.73396 0.74237 0.0
H776 H 0.32325 0.89022 0.76372 0.0
H777 H 0.31829 0.87627 0.79201 0.0
H778 H 0.33675 0.86553 0.70257 0.0
H779 H 0.27103 0.79027 0.81201 0.0
H780 H 0.28242 0.68699 0.77103 0.0
H781 H 0.28951 0.70003 0.74274 0.0
H782 H 0.26781 0.7141 0.83094 0.0
H783 H 0.34498 0.80145 0.69041 0.0
H784 H 0.34258 0.83408 0.68764 0.0
H785 H 0.27463 0.69244 0.80414 0.0
H786 H 0.26257 0.77936 0.84087 0.0
N787 N 0.28558 0.74076 0.77076 0.0
C788 C 0.28349 0.70213 0.77125 0.0
C789 C 0.28734 0.70939 0.75517 0.0
C790 C 0.28042 0.71429 0.78713 0.0
C791 C 0.28148 0.73379 0.78641 0.0
C792 C 0.28808 0.72875 0.75507 0.0
N793 N 0.27712 0.76408 0.7996 0.0
C794 C 0.27721 0.74584 0.80133 0.0
C795 C 0.26667 0.76978 0.82987 0.0
C796 C 0.2671 0.75123 0.83202 0.0
C797 C 0.27151 0.77592 0.8134 0.0
C798 C 0.27214 0.73889 0.81756 0.0
H799 H 0.26317 0.74644 0.84472 0.0
O800 O 0.25719 0.77422 0.77178 0.0
O801 O 0.29401 0.80224 0.76228 0.0
O802 O 0.32022 0.81017 0.79116 0.0
O803 O 0.30443 0.78097 0.79716 0.0
O804 O 0.27881 0.80119 0.78403 0.0
O805 O 0.26434 0.75378 0.74992 0.0
O806 O 0.35146 0.80252 0.75824 0.0
O807 O 0.31448 0.77545 0.76913 0.0
O808 O 0.28939 0.76625 0.74068 0.0
O809 O 0.30467 0.7954 0.73421 0.0
O810 O 0.33031 0.77584 0.74784 0.0
O811 O 0.3458 0.82372 0.78032 0.0
C812 C 0.28577 0.81245 0.77318 0.0
C813 C 0.27169 0.71971 0.81861 0.0
C814 C 0.27568 0.70739 0.80336 0.0
C815 C 0.25147 0.76034 0.75714 0.0
C816 C 0.2344 0.7463 0.75769 0.0
C817 C 0.23185 0.73475 0.77119 0.0
C818 C 0.21985 0.74606 0.74525 0.0
C819 C 0.20227 0.73565 0.74703 0.0
C820 C 0.21457 0.72334 0.7724 0.0
C821 C 0.19977 0.72399 0.76061 0.0
C822 C 0.31573 0.79825 0.80274 0.0
C823 C 0.32241 0.76481 0.75851 0.0
C824 C 0.35817 0.8169 0.77224 0.0
C825 C 0.37473 0.83092 0.76965 0.0
C826 C 0.3745 0.84511 0.75905 0.0
C827 C 0.39124 0.82951 0.77759 0.0
C828 C 0.40764 0.84189 0.77476 0.0
C829 C 0.39068 0.85759 0.75625 0.0
C830 C 0.4072 0.85599 0.76399 0.0
C831 C 0.29383 0.77786 0.72882 0.0
H832 H 0.24301 0.73484 0.78095 0.0
H833 H 0.22225 0.7548 0.73465 0.0
H834 H 0.21252 0.71455 0.78294 0.0
H835 H 0.1864 0.71595 0.76265 0.0
H836 H 0.36194 0.84655 0.75293 0.0
H837 H 0.39121 0.81875 0.78612 0.0
H838 H 0.39044 0.86846 0.74796 0.0
H839 H 0.41958 0.86562 0.76136 0.0
Gd840 Gd 0.52843 0.0466 0.9786 0.0
Gd841 Gd 0.54722 0.03697 0.02331 0.0
C842 C 0.60483 0.06062 0.05363 0.0
C843 C 0.61727 0.033 0.04618 0.0
C844 C 0.58605 0.03051 0.03502 0.0
C845 C 0.58822 0.0498 0.04315 0.0
C846 C 0.60043 0.02181 0.03698 0.0
C847 C 0.61944 0.05236 0.05455 0.0
C848 C 0.60608 0.07914 0.06372 0.0
C849 C 0.59103 0.08645 0.06353 0.0
N850 N 0.57385 0.05756 0.04201 0.0
C851 C 0.57491 0.07532 0.05296 0.0
H852 H 0.56338 0.08106 0.05455 0.0
C853 C 0.56618 8e-05 0.02134 0.0
N854 N 0.56961 0.01991 0.02629 0.0
C855 C 0.57999 0.99092 0.0229 0.0
C856 C 0.59731 0.00189 0.03037 0.0
H857 H 0.55285 0.99128 0.01539 0.0
H858 H 0.63232 0.06063 0.06227 0.0
H859 H 0.51784 0.99717 0.97143 0.0
H860 H 0.61831 0.08742 0.07254 0.0
H861 H 0.59165 0.10048 0.07199 0.0
H862 H 0.62849 0.02662 0.04756 0.0
H863 H 0.51182 0.0857 0.98135 0.0
H864 H 0.4623 0.97486 0.95047 0.0
H865 H 0.49206 0.96966 0.95891 0.0
H866 H 0.4403 0.03128 0.95554 0.0
H867 H 0.57725 0.97539 0.01829 0.0
H868 H 0.60801 0.99474 0.03163 0.0
H869 H 0.44313 0.99789 0.94935 0.0
H870 H 0.48255 0.09322 0.97724 0.0
N871 N 0.5037 0.01866 0.96922 0.0
C872 C 0.47379 0.98722 0.95563 0.0
C873 C 0.49055 0.98423 0.96037 0.0
C874 C 0.47193 0.00609 0.95814 0.0
C875 C 0.48732 0.02172 0.96498 0.0
C876 C 0.50535 0.00012 0.96729 0.0
N877 N 0.50069 0.05511 0.9754 0.0
C878 C 0.4857 0.04048 0.9685 0.0
C879 C 0.48316 0.07829 0.975 0.0
C880 C 0.46753 0.06333 0.96881 0.0
C881 C 0.49971 0.07393 0.97779 0.0
C882 C 0.4687 0.04418 0.96515 0.0
H883 H 0.45473 0.06673 0.96649 0.0
O884 O 0.52795 0.06466 0.95819 0.0
O885 O 0.55228 0.04928 -0.00176 0.0
O886 O 0.54465 0.06771 0.02813 0.0
O887 O 0.52611 0.07022 0.00237 0.0
O888 O 0.55356 0.07231 0.98527 0.0
O889 O 0.5362 0.03819 0.9509 0.0
O890 O 0.53251 0.00968 0.0302 0.0
O891 O 0.52331 0.03062 0.00167 0.0
O892 O 0.5426 0.02342 0.96979 0.0
O893 O 0.5544 0.01832 -0.00185 0.0
O894 O 0.52008 0.04031 0.02976 0.0
O895 O 0.54072 0.03666 0.0513 0.0
C896 C 0.56236 0.06515 -0.00352 0.0
C897 C 0.45344 0.02871 0.95815 0.0
C898 C 0.45507 0.00971 0.95456 0.0
C899 C 0.53591 0.05472 0.9465 0.0
C900 C 0.55269 0.06574 0.94046 0.0
C901 C 0.55793 0.08612 0.94493 0.0
C902 C 0.564 0.05587 0.93085 0.0
C903 C 0.5804 0.06613 0.92576 0.0
C904 C 0.57428 0.09637 0.9401 0.0
C905 C 0.58548 0.08649 0.93058 0.0
C906 C 0.53427 0.07651 0.01968 0.0
C907 C 0.5122 0.03406 0.01304 0.0
C908 C 0.53234 0.01823 0.0475 0.0
C909 C 0.53354 0.00807 0.06281 0.0
C910 C 0.54713 0.99881 0.06564 0.0
C911 C 0.52208 0.01069 0.07656 0.0
C912 C 0.52476 0.00548 0.09382 0.0
C913 C 0.54918 0.99234 0.08233 0.0
C914 C 0.53825 0.99587 0.09648 0.0
C915 C 0.55196 0.0149 0.97966 0.0
H916 H 0.54952 0.0942 0.95232 0.0
H917 H 0.56008 0.04017 0.9274 0.0
H918 H 0.57822 0.11204 0.9436 0.0
H919 H 0.59784 0.09483 0.9265 0.0
H920 H 0.55639 0.99705 0.05538 0.0
H921 H 0.51158 0.01784 0.0741 0.0
H922 H 0.55974 0.98529 0.08461 0.0
H923 H 0.54085 0.99176 0.10968 0.0
Gd924 Gd 0.26943 0.24664 0.24943 0.0
Gd925 Gd 0.29805 0.29411 0.27203 0.0
C926 C 0.35841 0.31239 0.26698 0.0
C927 C 0.37153 0.31787 0.29919 0.0
C928 C 0.33892 0.3068 0.29129 0.0
C929 C 0.34103 0.30651 0.27267 0.0
C930 C 0.35411 0.31286 0.30485 0.0
C931 C 0.37367 0.31768 0.28027 0.0
C932 C 0.35986 0.31326 0.24818 0.0
C933 C 0.3442 0.30849 0.23567 0.0
N934 N 0.32602 0.30129 0.26018 0.0
C935 C 0.32734 0.30261 0.24195 0.0
H936 H 0.31541 0.2991 0.23216 0.0
C937 C 0.31908 0.30496 0.31472 0.0
N938 N 0.32192 0.30226 0.29626 0.0
C939 C 0.3337 0.31066 0.3287 0.0
C940 C 0.35132 0.31439 0.32373 0.0
H941 H 0.30546 0.30229 0.31861 0.0
H942 H 0.38714 0.32205 0.27614 0.0
H943 H 0.262 0.24308 0.29603 0.0
H944 H 0.37296 0.31787 0.24333 0.0
H945 H 0.34492 0.30934 0.22119 0.0
H946 H 0.38338 0.32243 0.30937 0.0
H947 H 0.249 0.25646 0.21036 0.0
H948 H 0.20637 0.21723 0.29576 0.0
H949 H 0.23733 0.22791 0.3117 0.0
H950 H 0.17996 0.22694 0.23879 0.0
H951 H 0.33138 0.31229 0.34327 0.0
H952 H 0.36263 0.31898 0.33457 0.0
H953 H 0.18499 0.21762 0.26881 0.0
H954 H 0.21896 0.25438 0.19686 0.0
N955 N 0.24638 0.23892 0.26959 0.0
C956 C 0.21735 0.22372 0.28847 0.0
C957 C 0.23483 0.22941 0.29739 0.0
C958 C 0.21419 0.22735 0.27066 0.0
C959 C 0.22914 0.23508 0.26142 0.0
C960 C 0.24913 0.23738 0.28792 0.0
N961 N 0.24087 0.24773 0.23577 0.0
C962 C 0.22631 0.23999 0.24425 0.0
C963 C 0.22081 0.25054 0.21034 0.0
C964 C 0.20588 0.24311 0.21913 0.0
C965 C 0.23816 0.2523 0.21859 0.0
C966 C 0.20846 0.23745 0.2361 0.0
H967 H 0.19242 0.24146 0.21252 0.0
O968 O 0.26549 0.22965 0.22119 0.0
O969 O 0.29613 0.26769 0.25088 0.0
O970 O 0.285 0.29643 0.24415 0.0
O971 O 0.2765 0.26476 0.22733 0.0
O972 O 0.29628 0.23923 0.24991 0.0
O973 O 0.26137 0.21532 0.24474 0.0
O974 O 0.29243 0.31848 0.29016 0.0
O975 O 0.26969 0.27589 0.26466 0.0
O976 O 0.28338 0.24289 0.27637 0.0
O977 O 0.30465 0.27269 0.28859 0.0
O978 O 0.27768 0.28961 0.2925 0.0
O979 O 0.30177 0.32143 0.26305 0.0
C980 C 0.3063 0.25646 0.25055 0.0
C981 C 0.19368 0.22923 0.24501 0.0
C982 C 0.19655 0.22394 0.26211 0.0
C983 C 0.26285 0.2133 0.22686 0.0
C984 C 0.27376 0.2004 0.21905 0.0
C985 C 0.27228 0.19388 0.19965 0.0
C986 C 0.286 0.19496 0.23069 0.0
C987 C 0.29666 0.18301 0.22308 0.0
C988 C 0.28287 0.18207 0.19197 0.0
C989 C 0.29497 0.17662 0.20357 0.0
C990 C 0.27936 0.28364 0.22836 0.0
C991 C 0.26429 0.27929 0.28055 0.0
C992 C 0.29733 0.32995 0.27857 0.0
C993 C 0.30766 0.34989 0.28614 0.0
C994 C 0.31906 0.3556 0.303 0.0
C995 C 0.30391 0.36379 0.27691 0.0
C996 C 0.30925 0.38344 0.28538 0.0
C997 C 0.32599 0.37535 0.31076 0.0
C998 C 0.32081 0.38926 0.30224 0.0
C999 C 0.29659 0.2544 0.28906 0.0
H1000 H 0.26297 0.19799 0.19045 0.0
H1001 H 0.2874 0.20021 0.24567 0.0
H1002 H 0.28164 0.17705 0.17698 0.0
H1003 H 0.30274 0.16711 0.19726 0.0
H1004 H 0.32221 0.34495 0.3103 0.0
H1005 H 0.29555 0.35903 0.26356 0.0
H1006 H 0.33467 0.37984 0.32385 0.0
H1007 H 0.32519 0.40432 0.30925 0.0
Gd1008 Gd 0.55153 0.51109 0.00435 0.0
Gd1009 Gd 0.54509 0.55601 0.02675 0.0
C1010 C 0.5485 0.57431 0.09023 0.0
C1011 C 0.51802 0.57667 0.09479 0.0
C1012 C 0.52622 0.56782 0.06345 0.0
C1013 C 0.54348 0.56882 0.07077 0.0
C1014 C 0.51339 0.57219 0.07534 0.0
C1015 C 0.53556 0.57772 0.10223 0.0
C1016 C 0.56656 0.57699 0.09699 0.0
C1017 C 0.57923 0.57514 0.08437 0.0
N1018 N 0.55572 0.56583 0.05877 0.0
C1019 C 0.57359 0.56988 0.0652 0.0
H1020 H 0.58355 0.56864 0.0556 0.0
C1021 C 0.50616 0.56497 0.03669 0.0
N1022 N 0.52232 0.5637 0.04459 0.0
C1023 C 0.49298 0.56918 0.0479 0.0
C1024 C 0.49651 0.57253 0.06732 0.0
H1025 H 0.50319 0.56254 0.02174 0.0
H1026 H 0.53912 0.58178 0.11723 0.0
H1027 H 0.51138 0.49842 0.97788 0.0
H1028 H 0.57091 0.58114 0.11183 0.0
H1029 H 0.59334 0.57775 0.08931 0.0
H1030 H 0.5083 0.5799 0.10416 0.0
H1031 H 0.59428 0.5074 0.00661 0.0
H1032 H 0.51977 0.4812 0.92102 0.0
H1033 H 0.49934 0.48691 0.94484 0.0
H1034 H 0.58305 0.4848 0.92426 0.0
H1035 H 0.48011 0.56982 0.04155 0.0
H1036 H 0.4863 0.57585 0.07596 0.0
H1037 H 0.55121 0.48091 0.91335 0.0
H1038 H 0.6162 0.5 0.98513 0.0
N1039 N 0.53879 0.50045 0.97293 0.0
C1040 C 0.52532 0.48676 0.93547 0.0
C1041 C 0.51369 0.4898 0.94891 0.0
C1042 C 0.54378 0.49012 0.94096 0.0
C1043 C 0.55017 0.49693 0.96008 0.0
C1044 C 0.52064 0.49639 0.96769 0.0
N1045 N 0.57332 0.50406 0.98487 0.0
C1046 C 0.56801 0.49883 0.96623 0.0
C1047 C 0.60271 0.4997 0.97962 0.0
C1048 C 0.59768 0.49507 0.96036 0.0
C1049 C 0.59023 0.5039 0.99176 0.0
C1050 C 0.58006 0.49424 0.95345 0.0
H1051 H 0.60734 0.49166 0.95099 0.0
O1052 O 0.55876 0.48926 0.01755 0.0
O1053 O 0.5526 0.52952 0.03308 0.0
O1054 O 0.57437 0.55817 0.02164 0.0
O1055 O 0.57352 0.5339 -0.00386 0.0
O1056 O 0.57411 0.51802 0.02803 0.0
O1057 O 0.53334 0.48209 0.0 0.0
O1058 O 0.53992 0.57851 0.01312 0.0
O1059 O 0.54418 0.53758 -0.00192 0.0
O1060 O 0.52239 0.50842 0.01043 0.0
O1061 O 0.5225 0.53378 0.03467 0.0
O1062 O 0.52287 0.54927 0.0027 0.0
O1063 O 0.56421 0.58445 0.03219 0.0
C1064 C 0.56747 0.52785 0.0409 0.0
C1065 C 0.57398 0.48832 0.9343 0.0
C1066 C 0.55585 0.48617 0.92808 0.0
C1067 C 0.54414 0.4759 0.01033 0.0
C1068 C 0.54648 0.45655 0.00369 0.0
C1069 C 0.55564 0.45242 0.98812 0.0
C1070 C 0.54068 0.44242 0.01431 0.0
C1071 C 0.54441 0.42434 0.00982 0.0
C1072 C 0.55922 0.43433 0.98344 0.0
C1073 C 0.55381 0.42038 0.99433 0.0
C1074 C 0.5817 0.55069 0.00717 0.0
C1075 C 0.5295 0.53928 0.98998 0.0
C1076 C 0.55449 0.59134 0.02137 0.0
C1077 C 0.55258 0.61077 0.02821 0.0
C1078 C 0.54432 0.61529 0.04437 0.0
C1079 C 0.55836 0.62478 0.01752 0.0
C1080 C 0.55569 0.64329 0.02262 0.0
C1081 C 0.54169 0.63378 0.0496 0.0
C1082 C 0.54722 0.64771 0.03872 0.0
C1083 C 0.51469 0.5166 0.02421 0.0
H1084 H 0.56026 0.46321 0.97982 0.0
H1085 H 0.53384 0.44577 0.02653 0.0
H1086 H 0.56642 0.4312 0.97149 0.0
H1087 H 0.55687 0.40652 0.99065 0.0
H1088 H 0.53976 0.60457 0.05275 0.0
H1089 H 0.56447 0.62106 0.00486 0.0
H1090 H 0.53523 0.63726 0.06202 0.0
H1091 H 0.54498 0.66192 0.0429 0.0
Gd1092 Gd 0.78017 0.26733 0.2681 0.0
Gd1093 Gd 0.82039 0.30188 0.26284 0.0
C1094 C 0.8197 0.36078 0.24984 0.0
C1095 C 0.83016 0.35865 0.21904 0.0
C1096 C 0.82727 0.33166 0.23504 0.0
C1097 C 0.82095 0.34176 0.24988 0.0
C1098 C 0.83227 0.34012 0.21959 0.0
C1099 C 0.8239 0.36897 0.23415 0.0
C1100 C 0.81498 0.37126 0.26587 0.0
C1101 C 0.81231 0.36298 0.28161 0.0
N1102 N 0.81731 0.33354 0.26494 0.0
C1103 C 0.81379 0.34415 0.28099 0.0
H1104 H 0.81172 0.33807 0.29333 0.0
C1105 C 0.8374 0.30428 0.22278 0.0
N1106 N 0.8294 0.31392 0.23615 0.0
C1107 C 0.84251 0.31204 0.20715 0.0
C1108 C 0.83973 0.32994 0.20543 0.0
H1109 H 0.83949 0.29039 0.22395 0.0
H1110 H 0.82285 0.38349 0.2338 0.0
H1111 H 0.7899 0.23002 0.24 0.0
H1112 H 0.81393 0.38592 0.26644 0.0
H1113 H 0.80913 0.37102 0.29427 0.0
H1114 H 0.83379 0.36534 0.20723 0.0
H1115 H 0.75607 0.27778 0.30349 0.0
H1116 H 0.78927 0.18505 0.27056 0.0
H1117 H 0.794 0.19786 0.24162 0.0
H1118 H 0.76618 0.2074 0.32732 0.0
H1119 H 0.84852 0.30418 0.19641 0.0
H1120 H 0.84374 0.33594 0.19333 0.0
H1121 H 0.77918 0.18891 0.30274 0.0
H1122 H 0.74667 0.26565 0.33166 0.0
N1123 N 0.78354 0.23592 0.26803 0.0
C1124 C 0.78749 0.19925 0.26996 0.0
C1125 C 0.7901 0.2064 0.25358 0.0
C1126 C 0.78184 0.21018 0.28506 0.0
C1127 C 0.77977 0.2286 0.28355 0.0
C1128 C 0.78778 0.22471 0.25276 0.0
N1129 N 0.76929 0.2558 0.29452 0.0
C1130 C 0.77237 0.23888 0.29727 0.0
C1131 C 0.75403 0.25805 0.32218 0.0
C1132 C 0.75806 0.24127 0.32578 0.0
C1133 C 0.75947 0.26494 0.30622 0.0
C1134 C 0.76698 0.2312 0.31304 0.0
H1135 H 0.7537 0.23587 0.33808 0.0
O1136 O 0.75263 0.26915 0.2629 0.0
O1137 O 0.79023 0.29761 0.26198 0.0
O1138 O 0.814 0.30562 0.29276 0.0
O1139 O 0.79467 0.27685 0.29684 0.0
O1140 O 0.77139 0.2943 0.28049 0.0
O1141 O 0.76142 0.24602 0.24648 0.0
O1142 O 0.84907 0.30378 0.26314 0.0
O1143 O 0.81051 0.2719 0.26924 0.0
O1144 O 0.78856 0.26298 0.23899 0.0
O1145 O 0.80342 0.2934 0.23511 0.0
O1146 O 0.82942 0.275 0.25077 0.0
O1147 O 0.83911 0.31996 0.28624 0.0
C1148 C 0.78061 0.30682 0.27194 0.0
C1149 C 0.77005 0.21343 0.3152 0.0
C1150 C 0.77747 0.20292 0.30122 0.0
C1151 C 0.74797 0.2534 0.25013 0.0
C1152 C 0.73062 0.24003 0.25136 0.0
C1153 C 0.72891 0.22631 0.26284 0.0
C1154 C 0.71526 0.24207 0.24162 0.0
C1155 C 0.69807 0.2309 0.24358 0.0
C1156 C 0.71178 0.21495 0.26471 0.0
C1157 C 0.69634 0.21736 0.25528 0.0
C1158 C 0.80624 0.29376 0.30333 0.0
C1159 C 0.82033 0.26271 0.25962 0.0
C1160 C 0.85323 0.31652 0.27876 0.0
C1161 C 0.86874 0.3332 0.27951 0.0
C1162 C 0.86668 0.35121 0.27687 0.0
C1163 C 0.88603 0.33107 0.2837 0.0
C1164 C 0.90129 0.34684 0.28561 0.0
C1165 C 0.88185 0.36694 0.27855 0.0
C1166 C 0.89911 0.36484 0.28304 0.0
C1167 C 0.79355 0.27565 0.22825 0.0
H1168 H 0.7407 0.22456 0.27047 0.0
H1169 H 0.71664 0.25297 0.23304 0.0
H1170 H 0.71043 0.20448 0.27368 0.0
H1171 H 0.68313 0.20873 0.25711 0.0
H1172 H 0.85343 0.35323 0.27378 0.0
H1173 H 0.88753 0.31723 0.28613 0.0
H1174 H 0.88021 0.38083 0.2766 0.0
H1175 H 0.91071 0.37724 0.28455 0.0
Gd1176 Gd 0.03653 0.54058 0.48507 0.0
Gd1177 Gd 0.04269 0.52901 0.53198 0.0
C1178 C 0.06063 0.57049 0.58896 0.0
C1179 C 0.09187 0.56979 0.5946 0.0
C1180 C 0.07355 0.55131 0.56574 0.0
C1181 C 0.05893 0.55772 0.57154 0.0
C1182 C 0.08994 0.55672 0.57753 0.0
C1183 C 0.07727 0.57682 0.60022 0.0
C1184 C 0.04543 0.57603 0.59488 0.0
C1185 C 0.02888 0.56834 0.58391 0.0
N1186 N 0.04285 0.55076 0.56062 0.0
C1187 C 0.02772 0.55548 0.56693 0.0
H1188 H 0.0147 0.54986 0.55883 0.0
C1189 C 0.08486 0.53019 0.54412 0.0
N1190 N 0.07139 0.53865 0.54921 0.0
C1191 C 0.10117 0.53481 0.55549 0.0
C1192 C 0.10365 0.54809 0.57227 0.0
H1193 H 0.08286 0.51934 0.53156 0.0
H1194 H 0.07882 0.58665 0.61358 0.0
H1195 H 0.0059 0.49922 0.4663 0.0
H1196 H 0.0462 0.58579 0.60814 0.0
H1197 H 0.01697 0.57216 0.58869 0.0
H1198 H 0.10447 0.57423 0.60371 0.0
H1199 H 0.04986 0.58827 0.48587 0.0
H1200 H 0.95819 0.5123 0.44535 0.0
H1201 H 0.97472 0.48826 0.45048 0.0
H1202 H 0.97454 0.58167 0.45701 0.0
H1203 H 0.11166 0.52783 0.55147 0.0
H1204 H 0.11582 0.55094 0.58147 0.0
H1205 H 0.95776 0.54722 0.44886 0.0
H1206 H 0.03655 0.61438 0.47945 0.0
N1207 N 0.00674 0.52912 0.47046 0.0
C1208 C 0.97169 0.51718 0.45259 0.0
C1209 C 0.98108 0.50357 0.45527 0.0
C1210 C 0.98013 0.53694 0.45858 0.0
C1211 C 0.99799 0.54252 0.46738 0.0
C1212 C 0.99875 0.50983 0.46421 0.0
N1213 N 0.02497 0.56636 0.4791 0.0
C1214 C 0.00739 0.56181 0.47193 0.0
C1215 C 0.02816 0.59967 0.4774 0.0
C1216 C 0.00981 0.59537 0.47105 0.0
C1217 C 0.03565 0.58485 0.48103 0.0
C1218 C -0.00075 0.57618 0.46785 0.0
H1219 H 0.00407 0.60685 0.46812 0.0
O1220 O 0.0579 0.55007 0.46805 0.0
O1221 O 0.05577 0.53967 0.50861 0.0
O1222 O 0.04258 0.56067 0.53507 0.0
O1223 O 0.02785 0.56183 0.5063 0.0
O1224 O 0.06309 0.56319 0.49623 0.0
O1225 O 0.03581 0.52494 0.4567 0.0
O1226 O 0.05055 0.50677 0.54433 0.0
O1227 O 0.02417 0.52446 0.50592 0.0
O1228 O 0.03682 0.50917 0.48343 0.0
O1229 O 0.05618 0.51321 0.50986 0.0
O1230 O 0.0133 0.52738 0.53145 0.0
O1231 O 0.02253 0.50373 0.53635 0.0
C1232 C 0.06767 0.55529 0.50953 0.0
C1233 C 0.98111 0.57083 0.46005 0.0
C1234 C 0.97156 0.55122 0.4554 0.0
C1235 C 0.04996 0.53732 0.45323 0.0
C1236 C 0.04812 0.54488 0.43616 0.0
C1237 C 0.03371 0.55271 0.43212 0.0
C1238 C 0.06139 0.54481 0.42398 0.0
C1239 C 0.06049 0.55267 0.4079 0.0
C1240 C 0.03289 0.56081 0.41626 0.0
C1241 C 0.04631 0.56092 0.40419 0.0
C1242 C 0.03389 0.56908 0.52413 0.0
C1243 C 0.01002 0.52547 0.51368 0.0
C1244 C 0.03411 0.49702 0.54487 0.0
C1245 C 0.0298 0.49213 0.56291 0.0
C1246 C 0.0328 0.47512 0.5673 0.0
C1247 C 0.02278 0.50432 0.57584 0.0
C1248 C 0.01838 0.49933 0.59294 0.0
C1249 C 0.02861 0.47019 0.58439 0.0
C1250 C 0.02136 0.48216 0.59712 0.0
C1251 C 0.0493 0.50376 0.49274 0.0
H1252 H 0.02315 0.55257 0.44114 0.0
H1253 H 0.07254 0.53879 0.42709 0.0
H1254 H 0.0218 0.56692 0.41328 0.0
H1255 H 0.04542 0.56702 0.39181 0.0
H1256 H 0.03834 0.46567 0.5575 0.0
H1257 H 0.02034 0.5174 0.57243 0.0
H1258 H 0.03095 0.45705 0.58775 0.0
H1259 H 0.0182 0.47808 0.61031 0.0
Gd1260 Gd 0.82112 0.78142 0.26907 0.0
Gd1261 Gd 0.77525 0.78796 0.26235 0.0
C1262 C 0.75055 0.78016 0.20209 0.0
C1263 C 0.75008 0.81295 0.20007 0.0
C1264 C 0.76152 0.80615 0.22925 0.0
C1265 C 0.75817 0.78667 0.22096 0.0
C1266 C 0.75674 0.81927 0.21904 0.0
C1267 C 0.74705 0.79347 0.19161 0.0
C1268 C 0.74628 0.76038 0.19433 0.0
C1269 C 0.74897 0.74748 0.20545 0.0
N1270 N 0.76164 0.77398 0.23139 0.0
C1271 C 0.7564 0.75448 0.22405 0.0
H1272 H 0.75819 0.74396 0.23205 0.0
C1273 C 0.76734 0.8299 0.25716 0.0
N1274 N 0.76789 0.81197 0.24767 0.0
C1275 C 0.76279 0.84332 0.24761 0.0
C1276 C 0.75791 0.83814 0.22837 0.0
H1277 H 0.77112 0.83411 0.2721 0.0
H1278 H 0.74143 0.78871 0.17708 0.0
H1279 H 0.83618 0.82135 0.30213 0.0
H1280 H 0.7405 0.75488 0.17991 0.0
H1281 H 0.74535 0.73209 0.19968 0.0
H1282 H 0.74663 0.8229 0.19198 0.0
H1283 H 0.82601 0.73689 0.25418 0.0
H1284 H 0.85384 0.80559 0.35223 0.0
H1285 H 0.84898 0.83067 0.33505 0.0
H1286 H 0.84922 0.73797 0.33296 0.0
H1287 H 0.76306 0.85765 0.2551 0.0
H1288 H 0.7543 0.84856 0.221 0.0
H1289 H 0.85335 0.77083 0.35151 0.0
H1290 H 0.83424 0.71084 0.26735 0.0
N1291 N 0.83344 0.79129 0.30055 0.0
C1292 C 0.84815 0.80146 0.33776 0.0
C1293 C 0.84551 0.81563 0.32812 0.0
C1294 C 0.84415 0.78217 0.32833 0.0
C1295 C 0.83686 0.77753 0.30943 0.0
C1296 C 0.8383 0.81029 0.30936 0.0
N1297 N 0.8288 0.75584 0.28061 0.0
C1298 C 0.83445 0.75913 0.2991 0.0
C1299 C 0.83418 0.72428 0.27648 0.0
C1300 C 0.8388 0.72698 0.29571 0.0
C1301 C 0.82948 0.73906 0.26907 0.0
C1302 C 0.83938 0.74474 0.30724 0.0
H1303 H 0.84253 0.71557 0.30141 0.0
O1304 O 0.83815 0.77632 0.24677 0.0
O1305 O 0.79902 0.78269 0.24818 0.0
O1306 O 0.77333 0.75584 0.2612 0.0
O1307 O 0.80103 0.75434 0.27517 0.0
O1308 O 0.81077 0.75981 0.24258 0.0
O1309 O 0.84878 0.79917 0.27051 0.0
O1310 O 0.76014 0.80199 0.28221 0.0
O1311 O 0.80041 0.79427 0.28239 0.0
O1312 O 0.82423 0.81353 0.26911 0.0
O1313 O 0.79545 0.81738 0.26222 0.0
O1314 O 0.77628 0.78173 0.29129 0.0
O1315 O 0.74691 0.77441 0.26388 0.0
C1316 C 0.79932 0.76793 0.23611 0.0
C1317 C 0.84558 0.74889 0.32637 0.0
C1318 C 0.84794 0.7676 0.33693 0.0
C1319 C 0.85237 0.78961 0.25507 0.0
C1320 C 0.86965 0.78398 0.25581 0.0
C1321 C 0.87345 0.77375 0.26939 0.0
C1322 C 0.88256 0.78899 0.24325 0.0
C1323 C 0.89918 0.78387 0.24451 0.0
C1324 C 0.88952 0.76825 0.27037 0.0
C1325 C 0.90224 0.77319 0.25808 0.0
C1326 C 0.78363 0.74628 0.26877 0.0
C1327 C 0.79324 0.78863 0.29619 0.0
C1328 C 0.7451 0.78827 0.27714 0.0
C1329 C 0.72796 0.79414 0.27579 0.0
C1330 C 0.72411 0.80354 0.26155 0.0
C1331 C 0.71508 0.7899 0.28857 0.0
C1332 C 0.69858 0.79528 0.28713 0.0
C1333 C 0.70831 0.80958 0.2605 0.0
C1334 C 0.69576 0.80567 0.27321 0.0
C1335 C 0.81335 0.82431 0.26533 0.0
H1336 H 0.86404 0.7701 0.27936 0.0
H1337 H 0.87986 0.79717 0.2329 0.0
H1338 H 0.8922 0.76019 0.28082 0.0
H1339 H 0.91455 0.76857 0.25921 0.0
H1340 H 0.73318 0.80615 0.25111 0.0
H1341 H 0.7177 0.78201 0.2992 0.0
H1342 H 0.70568 0.81718 0.24964 0.0
H1343 H 0.68372 0.81074 0.27198 0.0
Gd1344 Gd 0.78749 0.30315 0.79487 0.0
Gd1345 Gd 0.80542 0.28428 0.75219 0.0
C1346 C 0.77806 0.22354 0.71641 0.0
C1347 C 0.80373 0.21021 0.7113 0.0
C1348 C 0.80785 0.24228 0.73059 0.0
C1349 C 0.78974 0.24087 0.72706 0.0
C1350 C 0.81503 0.22681 0.72304 0.0
C1351 C 0.78523 0.20854 0.70803 0.0
C1352 C 0.75943 0.22117 0.71562 0.0
C1353 C 0.75285 0.23521 0.72635 0.0
N1354 N 0.78327 0.25531 0.73616 0.0
C1355 C 0.76494 0.25188 0.73696 0.0
H1356 H 0.75932 0.26145 0.7463 0.0
C1357 C 0.83585 0.25919 0.74804 0.0
N1358 N 0.81808 0.25795 0.74295 0.0
C1359 C 0.84359 0.24434 0.74084 0.0
C1360 C 0.83318 0.22811 0.72819 0.0
H1361 H 0.84429 0.27171 0.75762 0.0
H1362 H 0.77648 0.19525 0.6997 0.0
H1363 H 0.83476 0.3199 0.80155 0.0
H1364 H 0.75003 0.20804 0.70776 0.0
H1365 H 0.73844 0.23297 0.72691 0.0
H1366 H 0.80901 0.19825 0.70532 0.0
H1367 H 0.7515 0.32047 0.78906 0.0
H1368 H 0.84847 0.37372 0.84006 0.0
H1369 H 0.85736 0.34605 0.82205 0.0
H1370 H 0.79291 0.39203 0.84021 0.0
H1371 H 0.85763 0.24546 0.74504 0.0
H1372 H 0.83916 0.21652 0.72277 0.0
H1373 H 0.82433 0.39088 0.84659 0.0
H1374 H 0.74146 0.34931 0.80071 0.0
N1375 N 0.81207 0.33013 0.80997 0.0
C1376 C 0.83822 0.3617 0.83157 0.0
C1377 C 0.84326 0.34607 0.82156 0.0
C1378 C 0.8202 0.36225 0.82942 0.0
C1379 C 0.80738 0.34622 0.81811 0.0
C1380 C 0.83008 0.33069 0.81039 0.0
N1381 N 0.77865 0.33236 0.80154 0.0
C1382 C 0.7901 0.3474 0.81365 0.0
C1383 C 0.75531 0.34915 0.80422 0.0
C1384 C 0.767 0.3647 0.81659 0.0
C1385 C 0.76128 0.33295 0.7971 0.0
C1386 C 0.78468 0.36406 0.82136 0.0
H1387 H 0.76214 0.37694 0.82261 0.0
O1388 O 0.75927 0.29299 0.79825 0.0
O1389 O 0.78679 0.27796 0.77292 0.0
O1390 O 0.77979 0.29025 0.74066 0.0
O1391 O 0.76909 0.3034 0.76836 0.0
O1392 O 0.7839 0.27244 0.79948 0.0
O1393 O 0.77928 0.30297 0.82272 0.0
O1394 O 0.83343 0.29955 0.75269 0.0
O1395 O 0.80573 0.31009 0.77384 0.0
O1396 O 0.81114 0.29319 0.80607 0.0
O1397 O 0.8213 0.27988 0.77819 0.0
O1398 O 0.80355 0.31311 0.74607 0.0
O1399 O 0.81644 0.28768 0.72605 0.0
C1400 C 0.78423 0.26478 0.7823 0.0
C1401 C 0.79697 0.3794 0.83374 0.0
C1402 C 0.81478 0.37861 0.83758 0.0
C1403 C 0.76247 0.29391 0.81617 0.0
C1404 C 0.7542 0.27591 0.82261 0.0
C1405 C 0.73799 0.26327 0.81303 0.0
C1406 C 0.76315 0.27034 0.83713 0.0
C1407 C 0.75652 0.25204 0.84138 0.0
C1408 C 0.7313 0.24509 0.81738 0.0
C1409 C 0.74063 0.23936 0.83136 0.0
C1410 C 0.76774 0.29775 0.74968 0.0
C1411 C 0.80507 0.32196 0.76328 0.0
C1412 C 0.83199 0.29884 0.73465 0.0
C1413 C 0.83925 0.31743 0.72883 0.0
C1414 C 0.85424 0.33127 0.73945 0.0
C1415 C 0.83113 0.32174 0.71299 0.0
C1416 C 0.83769 0.33971 0.70791 0.0
C1417 C 0.86077 0.34916 0.73448 0.0
C1418 C 0.85255 0.35341 0.71881 0.0
C1419 C 0.82214 0.28418 0.79682 0.0
H1420 H 0.73072 0.26722 0.80184 0.0
H1421 H 0.77559 0.2799 0.84477 0.0
H1422 H 0.71897 0.23535 0.80977 0.0
H1423 H 0.7353 0.2252 0.83458 0.0
H1424 H 0.86084 0.3283 0.75169 0.0
H1425 H 0.81949 0.31128 0.70475 0.0
H1426 H 0.87228 0.35975 0.74276 0.0
H1427 H 0.85798 0.36724 0.715 0.0
Gd1428 Gd 0.76876 0.74645 0.74653 0.0
Gd1429 Gd 0.79562 0.79493 0.76976 0.0
C1430 C 0.8567 0.8135 0.76813 0.0
C1431 C 0.86814 0.82006 0.80098 0.0
C1432 C 0.8358 0.80868 0.7913 0.0
C1433 C 0.83893 0.80772 0.77289 0.0
C1434 C 0.85033 0.81529 0.80565 0.0
C1435 C 0.87132 0.81924 0.78223 0.0
C1436 C 0.85916 0.81383 0.7494 0.0
C1437 C 0.84408 0.80854 0.73607 0.0
N1438 N 0.82449 0.80206 0.75966 0.0
C1439 C 0.82683 0.80264 0.74143 0.0
H1440 H 0.81547 0.79848 0.73084 0.0
C1441 C 0.81461 0.80862 0.81332 0.0
N1442 N 0.81844 0.80466 0.79524 0.0
C1443 C 0.8285 0.81466 0.82809 0.0
C1444 C 0.84646 0.81774 0.82424 0.0
H1445 H 0.80076 0.80679 0.8163 0.0
H1446 H 0.88509 0.82351 0.77882 0.0
H1447 H 0.76784 0.71018 0.76979 0.0
H1448 H 0.87257 0.81835 0.74517 0.0
H1449 H 0.84547 0.80896 0.72162 0.0
H1450 H 0.8795 0.82502 0.81179 0.0
H1451 H 0.74285 0.76992 0.72447 0.0
H1452 H 0.71597 0.69416 0.78937 0.0
H1453 H 0.74695 0.69039 0.78738 0.0
H1454 H 0.68247 0.73137 0.76167 0.0
H1455 H 0.82536 0.81719 0.84239 0.0
H1456 H 0.85723 0.82273 0.83568 0.0
H1457 H 0.69206 0.70947 0.77969 0.0
H1458 H 0.71201 0.7728 0.72267 0.0
N1459 N 0.7494 0.72621 0.76305 0.0
C1460 C 0.72518 0.70309 0.78183 0.0
C1461 C 0.74264 0.70094 0.78077 0.0
C1462 C 0.71958 0.71618 0.77253 0.0
C1463 C 0.73209 0.72751 0.7629 0.0
C1464 C 0.75448 0.71233 0.77095 0.0
N1465 N 0.73895 0.75017 0.74321 0.0
C1466 C 0.72665 0.73965 0.75253 0.0
C1467 C 0.71594 0.76343 0.73115 0.0
C1468 C 0.70339 0.75321 0.7411 0.0
C1469 C 0.73366 0.76168 0.73228 0.0
C1470 C 0.7086 0.74104 0.75184 0.0
H1471 H 0.6897 0.75472 0.7403 0.0
O1472 O 0.77048 0.73667 0.71691 0.0
O1473 O 0.79535 0.76791 0.75008 0.0
O1474 O 0.78593 0.7961 0.7403 0.0
O1475 O 0.77152 0.76463 0.72432 0.0
O1476 O 0.79557 0.73984 0.75154 0.0
O1477 O 0.76 0.7159 0.73368 0.0
O1478 O 0.78652 0.81832 0.78572 0.0
O1479 O 0.76781 0.77544 0.76106 0.0
O1480 O 0.77925 0.74573 0.77631 0.0
O1481 O 0.80084 0.77518 0.78864 0.0
O1482 O 0.77428 0.78906 0.78893 0.0
O1483 O 0.79935 0.82224 0.76069 0.0
C1484 C 0.80557 0.75706 0.75189 0.0
C1485 C 0.69631 0.73031 0.76192 0.0
C1486 C 0.70178 0.7179 0.77223 0.0
C1487 C 0.76584 0.71849 0.71784 0.0
C1488 C 0.77797 0.70683 0.7104 0.0
C1489 C 0.78103 0.70518 0.69155 0.0
C1490 C 0.78655 0.69734 0.72189 0.0
C1491 C 0.7977 0.6859 0.71446 0.0
C1492 C 0.79232 0.69405 0.68419 0.0
C1493 C 0.80053 0.68435 0.69551 0.0
C1494 C 0.77798 0.78341 0.72499 0.0
C1495 C 0.7616 0.77791 0.77664 0.0
C1496 C 0.7925 0.83018 0.77484 0.0
C1497 C 0.80213 0.85002 0.78376 0.0
C1498 C 0.81958 0.85489 0.79325 0.0
C1499 C 0.79374 0.86454 0.78172 0.0
C1500 C 0.80263 0.88404 0.7888 0.0
C1501 C 0.8285 0.87434 0.80053 0.0
C1502 C 0.82015 0.88894 0.79819 0.0
C1503 C 0.79167 0.75745 0.78955 0.0
H1504 H 0.77465 0.71248 0.68253 0.0
H1505 H 0.78427 0.69847 0.73648 0.0
H1506 H 0.79463 0.69283 0.66963 0.0
H1507 H 0.80917 0.6757 0.6895 0.0
H1508 H 0.82635 0.84383 0.79479 0.0
H1509 H 0.78042 0.86065 0.77394 0.0
H1510 H 0.842 0.87811 0.80776 0.0
H1511 H 0.8273 0.90395 0.80363 0.0
Gd1512 Gd 0.57369 0.55124 0.52661 0.0
Gd1513 Gd 0.52971 0.52385 0.50439 0.0
C1514 C 0.51595 0.45813 0.49685 0.0
C1515 C 0.51118 0.4478 0.46304 0.0
C1516 C 0.51919 0.48208 0.4773 0.0
C1517 C 0.52014 0.47761 0.49485 0.0
C1518 C 0.51412 0.4672 0.46121 0.0
C1519 C 0.51208 0.44327 0.48085 0.0
C1520 C 0.5149 0.45417 0.51484 0.0
C1521 C 0.51727 0.46945 0.53014 0.0
N1522 N 0.52357 0.49228 0.51 0.0
C1523 C 0.52138 0.48849 0.52743 0.0
H1524 H 0.52323 0.50017 0.53937 0.0
C1525 C 0.51757 0.50576 0.45942 0.0
N1526 N 0.52167 0.50093 0.47609 0.0
C1527 C 0.51265 0.49153 0.44303 0.0
C1528 C 0.51128 0.4722 0.44387 0.0
H1529 H 0.51839 0.52064 0.4587 0.0
H1530 H 0.50907 0.42822 0.4821 0.0
H1531 H 0.59333 0.56572 0.48787 0.0
H1532 H 0.51165 0.43941 0.51699 0.0
H1533 H 0.51596 0.4667 0.54405 0.0
H1534 H 0.50748 0.43617 0.45083 0.0
H1535 H 0.57596 0.57046 0.57329 0.0
H1536 H 0.59535 0.6248 0.49072 0.0
H1537 H 0.59938 0.59389 0.47384 0.0
H1538 H 0.5813 0.64571 0.55223 0.0
H1539 H 0.50989 0.49548 0.42979 0.0
H1540 H 0.50734 0.46119 0.43119 0.0
H1541 H 0.58847 0.64389 0.51984 0.0
H1542 H 0.57503 0.60085 0.5932 0.0
N1543 N 0.58341 0.57878 0.51232 0.0
C1544 C 0.59217 0.61212 0.49697 0.0
C1545 C 0.59436 0.5947 0.48739 0.0
C1546 C 0.5867 0.61317 0.51487 0.0
C1547 C 0.58251 0.59613 0.52236 0.0
C1548 C 0.59034 0.57832 0.49543 0.0
N1549 N 0.57524 0.58084 0.5477 0.0
C1550 C 0.57813 0.59712 0.54049 0.0
C1551 C 0.57546 0.59996 0.57831 0.0
C1552 C 0.57628 0.61628 0.57065 0.0
C1553 C 0.57558 0.58252 0.56673 0.0
C1554 C 0.57831 0.6152 0.55169 0.0
H1555 H 0.5764 0.62986 0.57969 0.0
O1556 O 0.58881 0.548 0.55143 0.0
O1557 O 0.55282 0.52295 0.52384 0.0
O1558 O 0.52587 0.53391 0.53518 0.0
O1559 O 0.55476 0.54806 0.55021 0.0
O1560 O 0.57856 0.52169 0.51826 0.0
O1561 O 0.60309 0.55816 0.52845 0.0
O1562 O 0.50925 0.5387 0.4985 0.0
O1563 O 0.54777 0.5541 0.51351 0.0
O1564 O 0.57694 0.53892 0.49577 0.0
O1565 O 0.54911 0.51808 0.48217 0.0
O1566 O 0.53599 0.54542 0.48588 0.0
O1567 O 0.50183 0.51244 0.50914 0.0
C1568 C 0.56272 0.51143 0.51999 0.0
C1569 C 0.58143 0.63184 0.54391 0.0
C1570 C 0.5856 0.63082 0.52552 0.0
C1571 C 0.60419 0.55367 0.54487 0.0
C1572 C 0.62151 0.55509 0.55533 0.0
C1573 C 0.6247 0.56321 0.57448 0.0
C1574 C 0.63458 0.54743 0.54642 0.0
C1575 C 0.65075 0.5476 0.55667 0.0
C1576 C 0.64086 0.56382 0.58465 0.0
C1577 C 0.65379 0.55602 0.57586 0.0
C1578 C 0.53693 0.54243 0.55068 0.0
C1579 C 0.5458 0.55981 0.49818 0.0
C1580 C 0.49622 0.52593 0.50318 0.0
C1581 C 0.47907 0.52001 0.4911 0.0
C1582 C 0.47468 0.50361 0.4766 0.0
C1583 C 0.46661 0.53094 0.49473 0.0
C1584 C 0.44973 0.52576 0.48397 0.0
C1585 C 0.45799 0.49844 0.46567 0.0
C1586 C 0.44555 0.50941 0.46931 0.0
C1587 C 0.56652 0.52647 0.48117 0.0
H1588 H 0.61468 0.56906 0.58156 0.0
H1589 H 0.632 0.54104 0.53162 0.0
H1590 H 0.64327 0.57009 0.59945 0.0
H1591 H 0.66597 0.55614 0.5842 0.0
H1592 H 0.48398 0.49473 0.47386 0.0
H1593 H 0.46995 0.54326 0.50634 0.0
H1594 H 0.45464 0.48581 0.45444 0.0
H1595 H 0.43271 0.50514 0.46064 0.0
Gd1596 Gd 0.02219 0.5314 0.02236 0.0
Gd1597 Gd 0.0673 0.53914 0.00612 0.0
C1598 C 0.10585 0.59891 0.01041 0.0
C1599 C 0.10752 0.60099 0.97773 0.0
C1600 C 0.08905 0.57205 0.98613 0.0
C1601 C 0.09393 0.58024 0.00487 0.0
C1602 C 0.09601 0.58218 0.97232 0.0
C1603 C 0.11242 0.60934 -0.00326 0.0
C1604 C 0.11102 0.6064 0.02951 0.0
C1605 C 0.10465 0.59514 0.04249 0.0
N1606 N 0.08734 0.56976 0.0177 0.0
C1607 C 0.09292 0.57665 0.0363 0.0
H1608 H 0.08809 0.56809 0.04647 0.0
C1609 C 0.074 0.5445 0.9631 0.0
N1610 N 0.07796 0.55385 0.9814 0.0
C1611 C 0.08051 0.55398 0.9489 0.0
C1612 C 0.09144 0.57298 0.95351 0.0
H1613 H 0.06549 0.52986 0.9594 0.0
H1614 H 0.12151 0.62375 0.00072 0.0
H1615 H 0.00215 0.50313 0.98142 0.0
H1616 H 0.12012 0.62071 0.03434 0.0
H1617 H 0.10875 0.60069 0.05728 0.0
H1618 H 0.11292 0.60907 0.96734 0.0
H1619 H 0.02441 0.53929 0.06903 0.0
H1620 H 0.96548 0.45276 0.99237 0.0
H1621 H 0.97952 0.47199 0.96998 0.0
H1622 H 0.97158 0.46293 0.05926 0.0
H1623 H 0.07709 0.54666 0.93441 0.0
H1624 H 0.09649 0.58028 0.94248 0.0
H1625 H 0.96227 0.4498 0.02576 0.0
H1626 H 0.01141 0.52253 0.09349 0.0
N1627 N 0.00199 0.50104 0.01007 0.0
C1628 C 0.97583 0.46616 -0.00249 0.0
C1629 C 0.98365 0.47703 0.98481 0.0
C1630 C 0.98108 0.47299 0.01667 0.0
C1631 C 0.99443 0.49068 0.0226 0.0
C1632 C 0.99655 0.49468 0.99139 0.0
N1633 N 0.01117 0.5161 0.04658 0.0
C1634 C -0.00073 0.49838 0.04145 0.0
C1635 C 0.00789 0.51556 0.07891 0.0
C1636 C 0.99584 0.49717 0.07387 0.0
C1637 C 0.01524 0.52501 0.06501 0.0
C1638 C 0.99115 0.48849 0.05495 0.0
H1639 H 0.98994 0.49001 0.08466 0.0
O1640 O 0.00798 0.55139 0.03637 0.0
O1641 O 0.04758 0.55336 0.02008 0.0
O1642 O 0.06701 0.53563 0.03631 0.0
O1643 O 0.03833 0.5168 0.03878 0.0
O1644 O 0.03669 0.55711 0.04488 0.0
O1645 O -0.00073 0.53696 0.0076 0.0
O1646 O 0.08122 0.51848 0.99286 0.0
O1647 O 0.04193 0.51743 0.00859 0.0
O1648 O 0.02246 0.53516 0.99226 0.0
O1649 O 0.05117 0.55371 0.98951 0.0
O1650 O 0.05273 0.51286 0.98392 0.0
O1651 O 0.09089 0.53474 0.02088 0.0
C1652 C 0.04934 0.56485 0.03568 0.0
C1653 C 0.97811 0.47067 0.04912 0.0
C1654 C 0.97293 0.46308 0.03003 0.0
C1655 C 0.99612 0.54865 0.02195 0.0
C1656 C 0.97704 0.54579 0.02553 0.0
C1657 C 0.96831 0.52984 0.03287 0.0
C1658 C 0.96724 0.55871 0.02103 0.0
C1659 C 0.94871 0.55539 0.02347 0.0
C1660 C 0.95006 0.52662 0.03549 0.0
C1661 C 0.94028 0.5392 0.03073 0.0
C1662 C 0.05595 0.5227 0.04383 0.0
C1663 C 0.03995 0.5056 0.99324 0.0
C1664 C 0.09363 0.5222 0.00698 0.0
C1665 C 0.11247 0.52479 0.00251 0.0
C1666 C 0.12102 0.54103 0.99551 0.0
C1667 C 0.12198 0.51095 0.00508 0.0
C1668 C 0.13989 0.51327 0.0004 0.0
C1669 C 0.13872 0.54352 0.99106 0.0
C1670 C 0.14808 0.52981 0.99345 0.0
C1671 C 0.03351 0.54798 0.98463 0.0
H1672 H 0.97556 0.51984 0.03649 0.0
H1673 H 0.97387 0.57102 0.01525 0.0
H1674 H 0.94343 0.51425 0.04113 0.0
H1675 H 0.9261 0.53636 0.03285 0.0
H1676 H 0.11402 0.55179 0.9935 0.0
H1677 H 0.11537 0.49831 0.0104 0.0
H1678 H 0.14523 0.55615 0.98573 0.0
H1679 H 0.16188 0.53229 0.99003 0.0
H1680 H -0.00096 0.21251 0.97064 0.0
H1681 H 0.00652 0.1847 0.98005 0.0
H1682 H 0.0441 0.184 0.93871 0.0
H1683 H 0.0364 0.21192 0.92892 0.0
H1684 H 0.02511 0.14782 0.93854 0.0
H1685 H 0.05802 0.2008 0.98701 0.0
H1686 H 0.06217 0.22984 0.01181 0.0
H1687 H 0.02415 0.19731 0.04247 0.0
H1688 H 0.01958 0.16813 0.01772 0.0
H1689 H 0.0626 0.07839 0.97317 0.0
H1690 H 0.05947 0.10862 0.96447 0.0
H1691 H 0.02026 0.1124 0.00377 0.0
H1692 H 0.02352 0.08225 0.01246 0.0
H1693 H 0.04213 0.14785 0.00504 0.0
H1694 H 0.00817 0.09555 0.95701 0.0
H1695 H 0.00309 0.06613 0.93251 0.0
H1696 H 0.04143 0.09701 0.90102 0.0
H1697 H 0.04718 0.12649 0.92563 0.0
C1698 C 0.00897 0.20658 0.9635 0.0
C1699 C 0.01713 0.21471 0.94898 0.0
C1700 C 0.01334 0.19061 0.96903 0.0
C1701 C 0.02616 0.18221 0.9604 0.0
C1702 C 0.03423 0.19013 0.94574 0.0
C1703 C 0.02984 0.20619 0.94016 0.0
C1704 C 0.03074 0.16501 0.96646 0.0
C1705 C 0.02917 0.14802 0.95305 0.0
C1706 C 0.03556 0.1648 0.98548 0.0
C1707 C 0.03834 0.18232 0.00042 0.0
C1708 C 0.05044 0.19987 -0.00103 0.0
C1709 C 0.05289 0.21636 0.01303 0.0
C1710 C 0.0434 0.21544 0.02869 0.0
C1711 C 0.03148 0.19801 0.03033 0.0
C1712 C 0.02897 0.18149 0.0163 0.0
C1713 C 0.05358 0.08591 0.98018 0.0
C1714 C 0.04384 0.07836 0.99404 0.0
C1715 C 0.05166 0.10314 0.9751 0.0
C1716 C 0.03955 0.11297 0.98337 0.0
C1717 C 0.02983 0.10536 -0.00276 0.0
C1718 C 0.03178 0.08815 0.00233 0.0
C1719 C 0.03645 0.13069 0.97713 0.0
C1720 C 0.03824 0.14774 0.99051 0.0
C1721 C 0.03169 0.1309 0.95811 0.0
C1722 C 0.02829 0.11318 0.9433 0.0
C1723 C 0.01569 0.09602 0.94497 0.0
C1724 C 0.01269 0.07932 0.93107 0.0
C1725 C 0.02201 0.07967 0.91527 0.0
C1726 C 0.03429 0.09674 0.91332 0.0
C1727 C 0.03747 0.11344 0.92726 0.0
H1728 H 0.01967 0.06673 0.90451 0.0
H1729 H 0.04531 0.22821 0.03956 0.0
H1730 H 0.11686 0.80709 0.16292 0.0
H1731 H 0.14123 0.80491 0.18512 0.0
H1732 H 0.18036 0.82413 0.14812 0.0
H1733 H 0.15623 0.82599 0.12591 0.0
H1734 H 0.18762 0.79479 0.15974 0.0
H1735 H 0.17488 0.85358 0.19069 0.0
H1736 H 0.15555 0.87347 0.20481 0.0
H1737 H 0.1424 0.83656 0.24443 0.0
H1738 H 0.16148 0.81631 0.23039 0.0
H1739 H 0.26813 0.81008 0.21973 0.0
H1740 H 0.24342 0.81451 0.19972 0.0
H1741 H 0.20659 0.79896 0.24006 0.0
H1742 H 0.23153 0.79545 0.26043 0.0
H1743 H 0.19749 0.82571 0.22699 0.0
H1744 H 0.21005 0.7669 0.19649 0.0
H1745 H 0.22953 0.74695 0.18284 0.0
H1746 H 0.24253 0.78301 0.14247 0.0
H1747 H 0.22332 0.80334 0.15605 0.0
C1748 C 0.13068 0.81111 0.15963 0.0
C1749 C 0.13445 0.81676 0.14254 0.0
C1750 C 0.14468 0.80986 0.17238 0.0
C1751 C 0.16285 0.81442 0.16847 0.0
C1752 C 0.16658 0.8204 0.15157 0.0
C1753 C 0.15266 0.82156 0.13886 0.0
C1754 C 0.17799 0.81253 0.18155 0.0
C1755 C 0.18985 0.80177 0.1744 0.0
C1756 C 0.18084 0.82111 0.20087 0.0
C1757 C 0.16946 0.83333 0.20938 0.0
C1758 C 0.16777 0.84964 0.20233 0.0
C1759 C 0.15687 0.86098 0.21033 0.0
C1760 C 0.14771 0.85625 0.22547 0.0
C1761 C 0.14948 0.84019 0.23269 0.0
C1762 C 0.16034 0.82879 0.22473 0.0
C1763 C 0.25476 0.80761 0.22433 0.0
C1764 C 0.25185 0.80239 0.24173 0.0
C1765 C 0.24053 0.81004 0.21279 0.0
C1766 C 0.2228 0.80664 0.21798 0.0
C1767 C 0.22 0.8017 0.23554 0.0
C1768 C 0.23433 0.79971 0.24727 0.0
C1769 C 0.20721 0.80805 0.20517 0.0
C1770 C 0.19525 0.81868 0.21234 0.0
C1771 C 0.20418 0.79923 0.18588 0.0
C1772 C 0.21535 0.78672 0.17738 0.0
C1773 C 0.2171 0.7706 0.18473 0.0
C1774 C 0.2281 0.75923 0.17702 0.0
C1775 C 0.23728 0.76373 0.16181 0.0
C1776 C 0.23542 0.77955 0.15425 0.0
C1777 C 0.22446 0.79099 0.16194 0.0
H1778 H 0.24581 0.75493 0.15588 0.0
H1779 H 0.13928 0.86504 0.23164 0.0
H1780 H 0.52074 0.82586 0.42639 0.0
H1781 H 0.52446 0.86059 0.43576 0.0
H1782 H 0.53189 0.85652 0.49375 0.0
H1783 H 0.52649 0.82132 0.48427 0.0
H1784 H 0.51295 0.87886 0.49299 0.0
H1785 H 0.56777 0.87896 0.46558 0.0
H1786 H 0.58697 0.87013 0.44146 0.0
H1787 H 0.56025 0.89515 0.40301 0.0
H1788 H 0.54074 0.90393 0.42681 0.0
H1789 H 0.54059 0.98336 0.52082 0.0
H1790 H 0.53673 0.94841 0.51522 0.0
H1791 H 0.52395 0.94484 0.45621 0.0
H1792 H 0.52882 0.98 0.46179 0.0
H1793 H 0.54806 0.92701 0.45993 0.0
H1794 H 0.48797 0.9167 0.4868 0.0
H1795 H 0.46834 0.92229 0.51154 0.0
H1796 H 0.50864 0.91822 0.55282 0.0
H1797 H 0.52805 0.91148 0.52811 0.0
C1798 C 0.5235 0.83243 0.44113 0.0
C1799 C 0.52355 0.82087 0.45458 0.0
C1800 C 0.52575 0.85243 0.44654 0.0
C1801 C 0.52894 0.86162 0.46555 0.0
C1802 C 0.52948 0.85004 0.47899 0.0
C1803 C 0.52656 0.82989 0.47358 0.0
C1804 C 0.53061 0.88297 0.47139 0.0
C1805 C 0.52093 0.88933 0.48587 0.0
C1806 C 0.5408 0.89699 0.46221 0.0
C1807 C 0.55271 0.89198 0.44796 0.0
C1808 C 0.56594 0.88251 0.45196 0.0
C1809 C 0.57687 0.87751 0.43834 0.0
C1810 C 0.5748 0.88204 0.4207 0.0
C1811 C 0.56183 0.89164 0.41667 0.0
C1812 C 0.55085 0.89666 0.43023 0.0
C1813 C 0.53635 0.97505 0.50676 0.0
C1814 C 0.53482 0.98445 0.49176 0.0
C1815 C 0.53409 0.95492 0.50352 0.0
C1816 C 0.52989 0.94365 0.48524 0.0
C1817 C 0.52729 0.95302 0.47044 0.0
C1818 C 0.52991 0.97314 0.47364 0.0
C1819 C 0.53 0.92267 0.48109 0.0
C1820 C 0.54015 0.91645 0.46701 0.0
C1821 C 0.5206 0.90885 0.49087 0.0
C1822 C 0.50949 0.91391 0.50574 0.0
C1823 C 0.49265 0.91714 0.50118 0.0
C1824 C 0.48154 0.92037 0.51517 0.0
C1825 C 0.48735 0.92092 0.53379 0.0
C1826 C 0.50418 0.91789 0.53842 0.0
C1827 C 0.51515 0.91415 0.52442 0.0
H1828 H 0.47875 0.92356 0.54461 0.0
H1829 H 0.58327 0.87814 0.41017 0.0
H1830 H 0.52347 0.33873 0.63738 0.0
H1831 H 0.49716 0.33264 0.65465 0.0
H1832 H 0.50848 0.28009 0.6651 0.0
H1833 H 0.53497 0.28606 0.64764 0.0
H1834 H 0.47209 0.27487 0.65473 0.0
H1835 H 0.51834 0.32038 0.69942 0.0
H1836 H 0.54226 0.3507 0.71084 0.0
H1837 H 0.50408 0.38384 0.70399 0.0
H1838 H 0.47997 0.35371 0.69228 0.0
H1839 H 0.41821 0.26014 0.72926 0.0
H1840 H 0.44155 0.26498 0.70809 0.0
H1841 H 0.43074 0.31904 0.70184 0.0
H1842 H 0.40743 0.31437 0.72339 0.0
H1843 H 0.46618 0.32381 0.70901 0.0
H1844 H 0.41964 0.27923 0.66564 0.0
H1845 H 0.39536 0.24948 0.65324 0.0
H1846 H 0.43312 0.21515 0.65642 0.0
H1847 H 0.4576 0.24469 0.66911 0.0
C1848 C 0.52047 0.32587 0.64336 0.0
C1849 C 0.5315 0.31295 0.64115 0.0
C1850 C 0.50537 0.32243 0.65331 0.0
C1851 C 0.50083 0.30598 0.66139 0.0
C1852 C 0.51167 0.2929 0.65905 0.0
C1853 C 0.52689 0.29639 0.64913 0.0
C1854 C 0.48487 0.30262 0.67234 0.0
C1855 C 0.47092 0.28545 0.66677 0.0
C1856 C 0.48294 0.31667 0.68768 0.0
C1857 C 0.49739 0.3348 0.69481 0.0
C1858 C 0.51507 0.33414 0.70022 0.0
C1859 C 0.52866 0.35129 0.70676 0.0
C1860 C 0.5247 0.36918 0.70809 0.0
C1861 C 0.50713 0.36997 0.70293 0.0
C1862 C 0.4935 0.35286 0.69635 0.0
C1863 C 0.42065 0.273 0.72325 0.0
C1864 C 0.41097 0.28692 0.72815 0.0
C1865 C 0.43397 0.27569 0.71101 0.0
C1866 C 0.43798 0.29236 0.70322 0.0
C1867 C 0.42796 0.30604 0.70763 0.0
C1868 C 0.41451 0.30329 0.71984 0.0
C1869 C 0.45337 0.29598 0.69151 0.0
C1870 C 0.46726 0.31322 0.69695 0.0
C1871 C 0.45515 0.28204 0.67597 0.0
C1872 C 0.44044 0.26419 0.66852 0.0
C1873 C 0.42275 0.26533 0.66388 0.0
C1874 C 0.40895 0.2485 0.65675 0.0
C1875 C 0.41269 0.23043 0.65409 0.0
C1876 C 0.43024 0.22916 0.65852 0.0
C1877 C 0.44409 0.24594 0.66566 0.0
H1878 H 0.40199 0.21742 0.64856 0.0
H1879 H 0.53524 0.38244 0.71316 0.0
H1880 H 0.01511 0.82368 0.64002 0.0
H1881 H 0.02222 0.84852 0.62092 0.0
H1882 H 0.01136 0.80393 0.57102 0.0
H1883 H 0.00379 0.77906 0.5899 0.0
H1884 H 0.04613 0.83454 0.57605 0.0
H1885 H 0.98175 0.82466 0.57594 0.0
H1886 H 0.95326 0.82258 0.59021 0.0
H1887 H 0.97324 0.88168 0.6194 0.0
H1888 H 0.00199 0.88401 0.6055 0.0
H1889 H 0.03929 0.88645 0.50327 0.0
H1890 H 0.03246 0.8634 0.52401 0.0
H1891 H 0.04223 0.91054 0.57158 0.0
H1892 H 0.0501 0.93376 0.55122 0.0
H1893 H 0.00845 0.87976 0.56891 0.0
H1894 H 0.07229 0.89032 0.56922 0.0
H1895 H 0.10099 0.89314 0.55527 0.0
H1896 H 0.08261 0.83371 0.52666 0.0
H1897 H 0.05363 0.83063 0.54021 0.0
C1898 C 0.01421 0.8192 0.62497 0.0
C1899 C 0.0089 0.79947 0.61641 0.0
C1900 C 0.01821 0.83337 0.61412 0.0
C1901 C 0.01726 0.82797 0.59463 0.0
C1902 C 0.01213 0.8083 0.58607 0.0
C1903 C 0.00777 0.79416 0.59685 0.0
C1904 C 0.02198 0.84283 0.58314 0.0
C1905 C 0.03781 0.84429 0.5743 0.0
C1906 C 0.01132 0.85583 0.58137 0.0
C1907 C 0.99413 0.85442 0.58989 0.0
C1908 C 0.98017 0.83714 0.58558 0.0
C1909 C 0.96395 0.83593 0.59356 0.0
C1910 C 0.96147 0.85196 0.60576 0.0
C1911 C 0.9752 0.86925 0.60998 0.0
C1912 C 0.99146 0.87053 0.60205 0.0
C1913 C 0.04035 0.892 0.51816 0.0
C1914 C 0.0453 0.91205 0.52549 0.0
C1915 C 0.03625 0.87878 0.52995 0.0
C1916 C 0.0368 0.88535 0.54925 0.0
C1917 C 0.04161 0.90526 0.55668 0.0
C1918 C 0.04602 0.91849 0.54495 0.0
C1919 C 0.0325 0.87133 0.56167 0.0
C1920 C 0.01679 0.87004 0.57071 0.0
C1921 C 0.04332 0.85857 0.56374 0.0
C1922 C 0.06071 0.86031 0.55556 0.0
C1923 C 0.07428 0.87791 0.5598 0.0
C1924 C 0.09062 0.87954 0.552 0.0
C1925 C 0.0936 0.86363 0.54004 0.0
C1926 C 0.08026 0.84603 0.5359 0.0
C1927 C 0.06388 0.84433 0.54364 0.0
H1928 H 0.10627 0.86492 0.53402 0.0
H1929 H 0.94889 0.85101 0.6119 0.0
H1930 H 0.5238 0.81773 0.89212 0.0
H1931 H 0.49911 0.82005 0.87082 0.0
H1932 H 0.53558 0.82998 0.82886 0.0
H1933 H 0.56021 0.82695 0.84988 0.0
H1934 H 0.49529 0.8495 0.8577 0.0
H1935 H 0.51487 0.8164 0.78744 0.0
H1936 H 0.52873 0.79051 0.77405 0.0
H1937 H 0.50875 0.7582 0.81556 0.0
H1938 H 0.49489 0.78396 0.82922 0.0
H1939 H 0.43782 0.87093 0.79052 0.0
H1940 H 0.4654 0.86767 0.80654 0.0
H1941 H 0.4438 0.80556 0.79529 0.0
H1942 H 0.41688 0.80859 0.77812 0.0
H1943 H 0.47773 0.81305 0.79236 0.0
H1944 H 0.44121 0.8358 0.83814 0.0
H1945 H 0.42454 0.85784 0.85394 0.0
H1946 H 0.47308 0.90448 0.86491 0.0
H1947 H 0.48999 0.88274 0.84898 0.0
C1948 C 0.52651 0.82019 0.87827 0.0
C1949 C 0.54391 0.82217 0.87265 0.0
C1950 C 0.51241 0.82156 0.86614 0.0
C1951 C 0.51547 0.82512 0.84823 0.0
C1952 C 0.53281 0.82687 0.84248 0.0
C1953 C 0.54689 0.82522 0.85453 0.0
C1954 C 0.5007 0.82801 0.83604 0.0
C1955 C 0.49146 0.84154 0.8434 0.0
C1956 C 0.49563 0.81757 0.81746 0.0
C1957 C 0.50397 0.80212 0.80938 0.0
C1958 C 0.51344 0.80375 0.79366 0.0
C1959 C 0.52132 0.78913 0.78607 0.0
C1960 C 0.51964 0.77274 0.79397 0.0
C1961 C 0.5101 0.77094 0.8095 0.0
C1962 C 0.5023 0.78557 0.81722 0.0
C1963 C 0.43912 0.85656 0.79107 0.0
C1964 C 0.425 0.84004 0.78326 0.0
C1965 C 0.4548 0.85473 0.80044 0.0
C1966 C 0.45649 0.8364 0.80247 0.0
C1967 C 0.44277 0.81987 0.794 0.0
C1968 C 0.42725 0.82165 0.7844 0.0
C1969 C 0.47207 0.83433 0.81412 0.0
C1970 C 0.48161 0.8211 0.80662 0.0
C1971 C 0.477 0.84457 0.83284 0.0
C1972 C 0.4668 0.85772 0.84217 0.0
C1973 C 0.44828 0.8508 0.84377 0.0
C1974 C 0.4388 0.86323 0.85278 0.0
C1975 C 0.44773 0.88257 0.86037 0.0
C1976 C 0.46617 0.88951 0.85899 0.0
C1977 C 0.47571 0.87715 0.84998 0.0
H1978 H 0.44038 0.89216 0.86736 0.0
H1979 H 0.52571 0.76141 0.78804 0.0
H1980 H 0.48718 0.22175 0.10904 0.0
H1981 H 0.48837 0.19447 0.08459 0.0
H1982 H 0.49412 0.16091 0.12643 0.0
H1983 H 0.4927 0.18787 0.15095 0.0
H1984 H 0.52486 0.17306 0.10376 0.0
H1985 H 0.46146 0.14188 0.09985 0.0
H1986 H 0.42873 0.13867 0.09514 0.0
H1987 H 0.43351 0.14903 0.03948 0.0
H1988 H 0.46636 0.1526 0.04396 0.0
H1989 H 0.53303 0.08322 0.05712 0.0
H1990 H 0.52319 0.10901 0.07611 0.0
H1991 H 0.51424 0.13234 0.02723 0.0
H1992 H 0.525 0.10698 0.00816 0.0
H1993 H 0.48451 0.12685 0.05082 0.0
H1994 H 0.54777 0.15676 0.05433 0.0
H1995 H 0.58028 0.15866 0.05875 0.0
H1996 H 0.57569 0.15069 0.11517 0.0
H1997 H 0.54306 0.14838 0.11098 0.0
C1998 C 0.48814 0.20836 0.113 0.0
C1999 C 0.4903 0.2071 0.13194 0.0
C2000 C 0.48868 0.19278 0.09901 0.0
C2001 C 0.49143 0.17586 0.10383 0.0
C2002 C 0.49194 0.17393 0.12255 0.0
C2003 C 0.49121 0.18938 0.13652 0.0
C2004 C 0.4976 0.16215 0.09017 0.0
C2005 C 0.51602 0.16281 0.09228 0.0
C2006 C 0.48609 0.14941 0.0749 0.0
C2007 C 0.46644 0.14784 0.07236 0.0
C2008 C 0.4556 0.14379 0.08671 0.0
C2009 C 0.437 0.14181 0.08405 0.0
C2010 C 0.42906 0.14373 0.06705 0.0
C2011 C 0.43969 0.14761 0.05266 0.0
C2012 C 0.4583 0.14961 0.05526 0.0
C2013 C 0.52948 0.09412 0.05045 0.0
C2014 C 0.52989 0.09316 0.03115 0.0
C2015 C 0.52363 0.10868 0.06128 0.0
C2016 C 0.51799 0.12244 0.05298 0.0
C2017 C 0.51844 0.12167 0.03376 0.0
C2018 C 0.52452 0.10718 0.02291 0.0
C2019 C 0.51167 0.13756 0.06468 0.0
C2020 C 0.49335 0.13727 0.06219 0.0
C2021 C 0.52325 0.15074 0.07964 0.0
C2022 C 0.54291 0.15222 0.08228 0.0
C2023 C 0.55365 0.15523 0.06763 0.0
C2024 C 0.57211 0.15641 0.0701 0.0
C2025 C 0.58004 0.15475 0.08721 0.0
C2026 C 0.56952 0.15195 0.10191 0.0
C2027 C 0.55104 0.15072 0.0995 0.0
H2028 H 0.59433 0.15567 0.0891 0.0
H2029 H 0.41465 0.14214 0.065 0.0
H2030 H 0.14239 0.34678 0.34681 0.0
H2031 H 0.16481 0.33942 0.32634 0.0
H2032 H 0.12965 0.28216 0.30506 0.0
H2033 H 0.10782 0.28912 0.32642 0.0
H2034 H 0.15911 0.27967 0.32054 0.0
H2035 H 0.14501 0.31696 0.27678 0.0
H2036 H 0.13988 0.34561 0.26603 0.0
H2037 H 0.19425 0.37786 0.2874 0.0
H2038 H 0.19965 0.34953 0.29857 0.0
H2039 H 0.23755 0.28183 0.2554 0.0
H2040 H 0.20774 0.28606 0.26191 0.0
H2041 H 0.22159 0.28763 0.32033 0.0
H2042 H 0.2503 0.28109 0.31344 0.0
H2043 H 0.20042 0.31558 0.28185 0.0
H2044 H 0.19741 0.27885 0.34088 0.0
H2045 H 0.19809 0.24905 0.35229 0.0
H2046 H 0.17176 0.21458 0.29935 0.0
H2047 H 0.17193 0.24429 0.28735 0.0
C2048 C 0.1393 0.33282 0.33736 0.0
C2049 C 0.12367 0.31831 0.33837 0.0
C2050 C 0.15203 0.32869 0.32553 0.0
C2051 C 0.14897 0.31019 0.31422 0.0
C2052 C 0.13236 0.29648 0.31379 0.0
C2053 C 0.11994 0.30039 0.32602 0.0
C2054 C 0.1642 0.30367 0.30628 0.0
C2055 C 0.1679 0.28742 0.31177 0.0
C2056 C 0.17596 0.31393 0.29519 0.0
C2057 C 0.17268 0.33111 0.28866 0.0
C2058 C 0.15583 0.33021 0.27937 0.0
C2059 C 0.15288 0.3464 0.27316 0.0
C2060 C 0.16672 0.36356 0.27606 0.0
C2061 C 0.18354 0.36457 0.28517 0.0
C2062 C 0.18655 0.34843 0.29143 0.0
C2063 C 0.23374 0.28198 0.26942 0.0
C2064 C 0.24579 0.28019 0.28377 0.0
C2065 C 0.21685 0.28473 0.2732 0.0
C2066 C 0.21206 0.28647 0.29154 0.0
C2067 C 0.22439 0.28518 0.30592 0.0
C2068 C 0.24096 0.2818 0.30204 0.0
C2069 C 0.19504 0.2915 0.29601 0.0
C2070 C 0.19124 0.30764 0.29016 0.0
C2071 C 0.18303 0.28124 0.30681 0.0
C2072 C 0.18533 0.26369 0.31302 0.0
C2073 C 0.1923 0.2649 0.33152 0.0
C2074 C 0.19252 0.24806 0.33809 0.0
C2075 C 0.18518 0.22993 0.32646 0.0
C2076 C 0.1777 0.22864 0.30823 0.0
C2077 C 0.17796 0.24547 0.30142 0.0
H2078 H 0.18514 0.21688 0.33163 0.0
H2079 H 0.16442 0.37606 0.27122 0.0
H2080 H 0.93895 0.04769 0.19781 0.0
H2081 H 0.95163 0.04524 0.16759 0.0
H2082 H 0.00412 0.07721 0.19566 0.0
H2083 H 0.99148 0.07932 0.2258 0.0
H2084 H 8e-05 0.08822 0.16223 0.0
H2085 H 0.99253 0.0272 0.18066 0.0
H2086 H 0.97605 0.9975 0.19036 0.0
H2087 H 0.94045 0.98126 0.13923 0.0
H2088 H 0.95657 0.01104 0.12934 0.0
H2089 H 0.05272 0.06446 0.08751 0.0
H2090 H 0.03937 0.06872 0.11705 0.0
H2091 H 0.98881 0.03014 0.09004 0.0
H2092 H 0.00229 0.02548 0.06057 0.0
H2093 H 0.99148 0.02297 0.12293 0.0
H2094 H -0.00095 0.08383 0.10417 0.0
H2095 H 0.01556 0.11347 0.09435 0.0
H2096 H 0.05071 0.13024 0.14581 0.0
H2097 H 0.03458 0.10054 0.15581 0.0
C2098 C 0.95307 0.05479 0.19755 0.0
C2099 C 0.96389 0.06436 0.21457 0.0
C2100 C 0.9605 0.05309 0.1801 0.0
C2101 C 0.97914 0.06088 0.17879 0.0
C2102 C 0.98978 0.07103 0.19574 0.0
C2103 C 0.98242 0.07242 0.21317 0.0
C2104 C 0.98763 0.05789 0.16016 0.0
C2105 C 0.99827 0.07386 0.15383 0.0
C2106 C 0.98537 0.03933 0.14846 0.0
C2107 C 0.97562 0.02146 0.15436 0.0
C2108 C 0.98108 0.01739 0.17156 0.0
C2109 C 0.97183 0.00052 0.17708 0.0
C2110 C 0.95717 0.98753 0.16545 0.0
C2111 C 0.95178 0.99136 0.14825 0.0
C2112 C 0.96097 0.00823 0.14267 0.0
C2113 C 0.03874 0.05679 0.08772 0.0
C2114 C 0.0288 0.0446 0.07114 0.0
C2115 C 0.03093 0.0594 0.10485 0.0
C2116 C 0.01265 0.05016 0.10635 0.0
C2117 C 0.00282 0.03769 0.08984 0.0
C2118 C 0.01065 0.03503 0.07271 0.0
C2119 C 0.00389 0.05333 0.12485 0.0
C2120 C 0.99323 0.03737 0.13122 0.0
C2121 C 0.00608 0.07192 0.13653 0.0
C2122 C 0.01572 0.08986 0.13065 0.0
C2123 C 0.01037 0.09378 0.11334 0.0
C2124 C 0.01966 0.11059 0.10774 0.0
C2125 C 0.0342 0.1237 0.11943 0.0
C2126 C 0.03946 0.12005 0.13676 0.0
C2127 C 0.03025 0.10323 0.1424 0.0
H2128 H 0.04137 0.13671 0.11507 0.0
H2129 H 0.95003 0.97448 0.16974 0.0
H2130 H 0.24814 0.65357 0.4542 0.0
H2131 H 0.25351 0.67304 0.43056 0.0
H2132 H 0.31096 0.68819 0.44747 0.0
H2133 H 0.30544 0.66885 0.47185 0.0
H2134 H 0.29911 0.71896 0.45167 0.0
H2135 H 0.29275 0.66696 0.40059 0.0
H2136 H 0.27982 0.63425 0.38143 0.0
H2137 H 0.22927 0.64778 0.37119 0.0
H2138 H 0.24179 0.6805 0.39044 0.0
H2139 H 0.29987 0.78812 0.39329 0.0
H2140 H 0.30504 0.76211 0.40826 0.0
H2141 H 0.24753 0.73649 0.40306 0.0
H2142 H 0.24234 0.76242 0.38782 0.0
H2143 H 0.26638 0.71042 0.38891 0.0
H2144 H 0.27057 0.75826 0.44555 0.0
H2145 H 0.28238 0.79063 0.46578 0.0
H2146 H 0.33634 0.78389 0.46576 0.0
H2147 H 0.32484 0.75154 0.44537 0.0
C2148 C 0.26198 0.66052 0.45247 0.0
C2149 C 0.27636 0.66015 0.46503 0.0
C2150 C 0.26508 0.67146 0.43874 0.0
C2151 C 0.28266 0.68211 0.4372 0.0
C2152 C 0.2973 0.68005 0.44844 0.0
C2153 C 0.29416 0.66901 0.4623 0.0
C2154 C 0.28482 0.69827 0.42714 0.0
C2155 C 0.29249 0.71703 0.43766 0.0
C2156 C 0.27576 0.69579 0.40908 0.0
C2157 C 0.26825 0.67626 0.397 0.0
C2158 C 0.27886 0.66297 0.39429 0.0
C2159 C 0.2716 0.64441 0.3834 0.0
C2160 C 0.25374 0.63895 0.37509 0.0
C2161 C 0.24312 0.65206 0.37759 0.0
C2162 C 0.25032 0.67065 0.38844 0.0
C2163 C 0.28836 0.77724 0.39594 0.0
C2164 C 0.27073 0.77722 0.38968 0.0
C2165 C 0.29132 0.76238 0.40429 0.0
C2166 C 0.27669 0.74739 0.40656 0.0
C2167 C 0.25898 0.74793 0.40127 0.0
C2168 C 0.256 0.76285 0.39291 0.0
C2169 C 0.27998 0.73077 0.41382 0.0
C2170 C 0.27341 0.71215 0.40267 0.0
C2171 C 0.28999 0.7333 0.43132 0.0
C2172 C 0.29687 0.75258 0.44383 0.0
C2173 C 0.28496 0.76374 0.44979 0.0
C2174 C 0.2916 0.78206 0.46129 0.0
C2175 C 0.31011 0.78933 0.46701 0.0
C2176 C 0.32201 0.77824 0.4613 0.0
C2177 C 0.31544 0.7599 0.4498 0.0
H2178 H 0.31522 0.80353 0.4759 0.0
H2179 H 0.24812 0.62455 0.36673 0.0
H2180 H 0.61856 0.02943 0.70324 0.0
H2181 H 0.59909 0.01713 0.67361 0.0
H2182 H 0.64181 0.99683 0.64815 0.0
H2183 H 0.66112 0.00834 0.67794 0.0
H2184 H 0.62025 0.03418 0.64096 0.0
H2185 H 0.62206 0.96531 0.63337 0.0
H2186 H 0.6182 0.93527 0.64566 0.0
H2187 H 0.56386 0.93599 0.65569 0.0
H2188 H 0.56755 0.96624 0.6437 0.0
H2189 H 0.59052 0.01868 0.54932 0.0
H2190 H 0.6043 0.00867 0.57519 0.0
H2191 H 0.55326 0.99662 0.59815 0.0
H2192 H 0.53901 0.00583 0.57157 0.0
H2193 H 0.57838 0.97248 0.60629 0.0
H2194 H 0.57545 0.03935 0.61118 0.0
H2195 H 0.57868 0.0688 0.59801 0.0
H2196 H 0.63494 0.07258 0.594 0.0
H2197 H 0.63194 0.04292 0.60683 0.0
C2198 C 0.62356 0.02176 0.69148 0.0
C2199 C 0.64133 0.01994 0.69273 0.0
C2200 C 0.6124 0.01461 0.67468 0.0
C2201 C 0.61897 0.0058 0.65892 0.0
C2202 C 0.63637 0.00304 0.66037 0.0
C2203 C 0.64741 0.0098 0.67731 0.0
C2204 C 0.60933 0.00378 0.64046 0.0
C2205 C 0.61127 0.02066 0.63326 0.0
C2206 C 0.59744 0.98621 0.63077 0.0
C2207 C 0.59518 0.96814 0.63796 0.0
C2208 C 0.60939 0.95919 0.63845 0.0
C2209 C 0.60721 0.9421 0.64528 0.0
C2210 C 0.59082 0.93377 0.65154 0.0
C2211 C 0.57656 0.94249 0.6509 0.0
C2212 C 0.57869 0.9596 0.64409 0.0
C2213 C 0.58208 0.01364 0.55963 0.0
C2214 C 0.56386 0.01397 0.5589 0.0
C2215 C 0.58994 0.0076 0.57425 0.0
C2216 C 0.57984 0.0023 0.58865 0.0
C2217 C 0.56124 0.00074 0.58711 0.0
C2218 C 0.55322 0.00638 0.57214 0.0
C2219 C 0.58952 0.00287 0.60676 0.0
C2220 C 0.58747 0.98594 0.61396 0.0
C2221 C 0.60137 0.02047 0.61661 0.0
C2222 C 0.60345 0.03888 0.60987 0.0
C2223 C 0.5885 0.04645 0.60746 0.0
C2224 C 0.59028 0.06315 0.60003 0.0
C2225 C 0.607 0.07254 0.59515 0.0
C2226 C 0.62199 0.06529 0.59778 0.0
C2227 C 0.62027 0.04855 0.60515 0.0
H2228 H 0.60835 0.08545 0.58938 0.0
H2229 H 0.58915 0.92053 0.65681 0.0
H2230 H 0.29075 0.37251 0.96643 0.0
H2231 H 0.29002 0.36222 0.93266 0.0
H2232 H 0.28278 0.30303 0.93907 0.0
H2233 H 0.28462 0.31354 0.97294 0.0
H2234 H 0.30744 0.30983 0.91874 0.0
H2235 H 0.24896 0.32099 0.91589 0.0
H2236 H 0.2258 0.33873 0.92235 0.0
H2237 H 0.2542 0.38359 0.8958 0.0
H2238 H 0.27765 0.36624 0.88939 0.0
H2239 H 0.29708 0.27737 0.81755 0.0
H2240 H 0.29516 0.28248 0.85142 0.0
H2241 H 0.30591 0.34407 0.85404 0.0
H2242 H 0.30709 0.33885 0.82032 0.0
H2243 H 0.27654 0.3324 0.86914 0.0
H2244 H 0.33923 0.32407 0.88329 0.0
H2245 H 0.36281 0.3063 0.88097 0.0
H2246 H 0.32373 0.25406 0.88526 0.0
H2247 H 0.30014 0.27178 0.88848 0.0
C2248 C 0.28847 0.35724 0.96056 0.0
C2249 C 0.2877 0.34383 0.97232 0.0
C2250 C 0.28803 0.35131 0.94118 0.0
C2251 C 0.28625 0.33175 0.9331 0.0
C2252 C 0.2843 0.3182 0.94483 0.0
C2253 C 0.28519 0.32419 0.96421 0.0
C2254 C 0.28821 0.32573 0.91283 0.0
C2255 C 0.30035 0.31452 0.90791 0.0
C2256 C 0.27926 0.33191 0.89851 0.0
C2257 C 0.26514 0.34237 0.90228 0.0
C2258 C 0.25033 0.3347 0.91154 0.0
C2259 C 0.23714 0.34468 0.91517 0.0
C2260 C 0.23855 0.3623 0.90952 0.0
C2261 C 0.25313 0.36995 0.90018 0.0
C2262 C 0.26636 0.36003 0.89652 0.0
C2263 C 0.29957 0.29201 0.82552 0.0
C2264 C 0.30221 0.30774 0.81636 0.0
C2265 C 0.2985 0.29496 0.84491 0.0
C2266 C 0.3003 0.31371 0.85542 0.0
C2267 C 0.30427 0.32946 0.84633 0.0
C2268 C 0.30505 0.32649 0.82705 0.0
C2269 C 0.29612 0.31702 0.87524 0.0
C2270 C 0.28346 0.32764 0.88003 0.0
C2271 C 0.30433 0.31006 0.88941 0.0
C2272 C 0.31796 0.29912 0.88581 0.0
C2273 C 0.33568 0.30875 0.88354 0.0
C2274 C 0.34905 0.29875 0.88227 0.0
C2275 C 0.34473 0.27903 0.88281 0.0
C2276 C 0.32705 0.26931 0.88478 0.0
C2277 C 0.31372 0.27935 0.88649 0.0
H2278 H 0.3551 0.27131 0.88176 0.0
H2279 H 0.22832 0.37 0.91236 0.0
H2280 H 0.95214 0.08054 0.33812 0.0
H2281 H 0.96428 0.07803 0.36952 0.0
H2282 H -0.00078 0.04533 0.34418 0.0
H2283 H 0.98775 0.04804 0.31352 0.0
H2284 H 0.98435 0.02738 0.36975 0.0
H2285 H 0.01476 0.0936 0.36992 0.0
H2286 H 0.01735 0.12776 0.36845 0.0
H2287 H 0.98748 0.13377 0.4159 0.0
H2288 H 0.98451 0.09955 0.41751 0.0
H2289 H 0.053 0.03824 0.44972 0.0
H2290 H 0.03737 0.04092 0.42024 0.0
H2291 H 0.99336 0.05291 0.44961 0.0
H2292 H 0.00859 0.04923 0.47892 0.0
H2293 H 0.01069 0.08143 0.42341 0.0
H2294 H 0.97789 0.01607 0.42229 0.0
H2295 H 0.97054 0.98095 0.42161 0.0
H2296 H 0.00245 0.97322 0.37608 0.0
H2297 H 0.00985 0.0083 0.37639 0.0
C2298 C 0.9626 0.07307 0.33918 0.0
C2299 C 0.96872 0.0646 0.32264 0.0
C2300 C 0.96962 0.07156 0.35736 0.0
C2301 C 0.98289 0.06131 0.35981 0.0
C2302 C 0.98903 0.05319 0.3433 0.0
C2303 C 0.98232 0.0549 0.32542 0.0
C2304 C 0.99022 0.05826 0.37897 0.0
C2305 C 0.99027 0.03939 0.38131 0.0
C2306 C 0.99767 0.07348 0.39478 0.0
C2307 C -0.00079 0.09394 0.39368 0.0
C2308 C 0.00857 0.10214 0.37992 0.0
C2309 C 0.01015 0.12153 0.37909 0.0
C2310 C 0.00253 0.13291 0.39203 0.0
C2311 C 0.99334 0.12492 0.40586 0.0
C2312 C 0.99171 0.10554 0.40674 0.0
C2313 C 0.03971 0.0408 0.44987 0.0
C2314 C 0.03193 0.04271 0.46693 0.0
C2315 C 0.03075 0.04255 0.43286 0.0
C2316 C 0.01391 0.04718 0.43217 0.0
C2317 C 0.00618 0.04926 0.44926 0.0
C2318 C 0.01491 0.04694 0.46617 0.0
C2319 C 0.00494 0.05057 0.41399 0.0
C2320 C 0.00473 0.06948 0.41182 0.0
C2321 C 0.99716 0.03538 0.39833 0.0
C2322 C 0.99464 0.01483 0.39955 0.0
C2323 C 0.9836 0.00693 0.41236 0.0
C2324 C 0.97922 0.987 0.41187 0.0
C2325 C 0.98596 0.97485 0.39877 0.0
C2326 C 0.9972 0.98263 0.3862 0.0
C2327 C 0.00147 0.00253 0.3865 0.0
H2328 H 0.98257 0.95943 0.39844 0.0
H2329 H 0.0038 0.14792 0.39139 0.0
H2330 H 0.25238 0.66002 0.57529 0.0
H2331 H 0.2554 0.68249 0.60512 0.0
H2332 H 0.29522 0.72527 0.585 0.0
H2333 H 0.2932 0.702 0.55564 0.0
H2334 H 0.30541 0.7267 0.61864 0.0
H2335 H 0.24809 0.72612 0.58828 0.0
H2336 H 0.21751 0.71121 0.57172 0.0
H2337 H 0.20098 0.68606 0.61874 0.0
H2338 H 0.23152 0.7006 0.6355 0.0
H2339 H 0.30112 0.79612 0.6993 0.0
H2340 H 0.2954 0.78099 0.66604 0.0
H2341 H 0.26689 0.72706 0.6797 0.0
H2342 H 0.27308 0.7417 0.71281 0.0
H2343 H 0.25069 0.73628 0.6475 0.0
H2344 H 0.30862 0.73277 0.67519 0.0
H2345 H 0.33909 0.74708 0.69214 0.0
H2346 H 0.35402 0.7801 0.64975 0.0
H2347 H 0.32346 0.76627 0.63275 0.0
C2348 C 0.26184 0.6742 0.57737 0.0
C2349 C 0.27254 0.67944 0.56336 0.0
C2350 C 0.26341 0.68713 0.59429 0.0
C2351 C 0.27508 0.70587 0.59712 0.0
C2352 C 0.286 0.71098 0.58311 0.0
C2353 C 0.28488 0.69774 0.5664 0.0
C2354 C 0.27627 0.71983 0.61493 0.0
C2355 C 0.29342 0.72913 0.62466 0.0
C2356 C 0.26064 0.72286 0.62304 0.0
C2357 C 0.24214 0.71441 0.61311 0.0
C2358 C 0.23795 0.71737 0.59507 0.0
C2359 C 0.22062 0.70897 0.58564 0.0
C2360 C 0.20732 0.69768 0.59416 0.0
C2361 C 0.2113 0.69482 0.61216 0.0
C2362 C 0.2286 0.70316 0.62164 0.0
C2363 C 0.29369 0.78104 0.69523 0.0
C2364 C 0.28815 0.76993 0.70873 0.0
C2365 C 0.29026 0.77251 0.67624 0.0
C2366 C 0.28092 0.7529 0.67055 0.0
C2367 C 0.27416 0.74222 0.68389 0.0
C2368 C 0.27782 0.75062 0.70283 0.0
C2369 C 0.2797 0.74278 0.65099 0.0
C2370 C 0.26259 0.73418 0.64107 0.0
C2371 C 0.29532 0.74043 0.64266 0.0
C2372 C 0.31371 0.74866 0.65281 0.0
C2373 C 0.31835 0.74321 0.66957 0.0
C2374 C 0.33564 0.75121 0.67917 0.0
C2375 C 0.3485 0.76446 0.672 0.0
C2376 C 0.34406 0.7698 0.65526 0.0
C2377 C 0.32674 0.76191 0.64566 0.0
H2378 H 0.36188 0.77064 0.67945 0.0
H2379 H 0.19392 0.69117 0.58683 0.0
H2380 H 0.66138 0.01551 0.78529 0.0
H2381 H 0.64827 0.01277 0.81467 0.0
H2382 H 0.65988 0.07504 0.82981 0.0
H2383 H 0.67235 0.07785 0.80022 0.0
H2384 H 0.65697 0.02541 0.85239 0.0
H2385 H 0.62358 0.08706 0.84508 0.0
H2386 H 0.61411 0.10293 0.82054 0.0
H2387 H 0.60725 0.0507 0.77955 0.0
H2388 H 0.61645 0.03445 0.8039 0.0
H2389 H 0.61735 0.07344 0.92851 0.0
H2390 H 0.63513 0.06137 0.90478 0.0
H2391 H 0.5863 0.02353 0.873 0.0
H2392 H 0.56841 0.03566 0.89632 0.0
H2393 H 0.60595 0.05589 0.85768 0.0
H2394 H 0.61389 0.99784 0.87581 0.0
H2395 H 0.62151 0.97694 0.89645 0.0
H2396 H 0.67407 0.01645 0.91286 0.0
H2397 H 0.6669 0.03735 0.89195 0.0
C2398 C 0.66142 0.02861 0.79506 0.0
C2399 C 0.66749 0.04688 0.79037 0.0
C2400 C 0.65402 0.02702 0.81185 0.0
C2401 C 0.6528 0.04368 0.82417 0.0
C2402 C 0.66039 0.062 0.82026 0.0
C2403 C 0.66746 0.06358 0.80337 0.0
C2404 C 0.64164 0.04195 0.8398 0.0
C2405 C 0.64585 0.0321 0.8536 0.0
C2406 C 0.62674 0.05011 0.841 0.0
C2407 C 0.62086 0.05961 0.82628 0.0
C2408 C 0.61997 0.07894 0.83084 0.0
C2409 C 0.61466 0.088 0.81697 0.0
C2410 C 0.61013 0.07784 0.79849 0.0
C2411 C 0.61082 0.05857 0.79386 0.0
C2412 C 0.61609 0.04943 0.80769 0.0
C2413 C 0.61045 0.06223 0.91667 0.0
C2414 C 0.59146 0.05582 0.91406 0.0
C2415 C 0.62064 0.05512 0.90331 0.0
C2416 C 0.61196 0.04156 0.88724 0.0
C2417 C 0.59319 0.03381 0.88548 0.0
C2418 C 0.583 0.04085 0.89881 0.0
C2419 C 0.62152 0.03977 0.87049 0.0
C2420 C 0.61705 0.04912 0.85646 0.0
C2421 C 0.6358 0.03081 0.86893 0.0
C2422 C 0.63982 0.01919 0.88247 0.0
C2423 C 0.62702 0.00213 0.88395 0.0
C2424 C 0.63132 0.99021 0.89554 0.0
C2425 C 0.64824 0.99541 0.90601 0.0
C2426 C 0.66095 0.01249 0.9048 0.0
C2427 C 0.65683 0.02431 0.89298 0.0
H2428 H 0.65151 0.98621 0.91507 0.0
H2429 H 0.60605 0.08489 0.78776 0.0
H2430 H 0.31155 0.3313 0.07467 0.0
H2431 H 0.30486 0.32045 0.1035 0.0
H2432 H 0.26645 0.35466 0.11151 0.0
H2433 H 0.27336 0.36606 0.08233 0.0
H2434 H 0.28803 0.35711 0.14461 0.0
H2435 H 0.25112 0.30641 0.09669 0.0
H2436 H 0.24467 0.28283 0.06677 0.0
H2437 H 0.28314 0.25465 0.08592 0.0
H2438 H 0.29 0.27823 0.11585 0.0
H2439 H 0.26285 0.31102 0.22108 0.0
H2440 H 0.2616 0.32353 0.19221 0.0
H2441 H 0.29382 0.28641 0.16816 0.0
H2442 H 0.29371 0.27284 0.19643 0.0
H2443 H 0.27035 0.28635 0.14273 0.0
H2444 H 0.3105 0.33944 0.1885 0.0
H2445 H 0.31712 0.36245 0.21883 0.0
H2446 H 0.27319 0.38565 0.2041 0.0
H2447 H 0.26629 0.36275 0.17375 0.0
C2448 C 0.3016 0.33659 0.08241 0.0
C2449 C 0.29287 0.34948 0.07596 0.0
C2450 C 0.29777 0.33028 0.09898 0.0
C2451 C 0.28493 0.33643 0.10958 0.0
C2452 C 0.27635 0.34961 0.1035 0.0
C2453 C 0.28025 0.35605 0.08679 0.0
C2454 C 0.28065 0.32875 0.12684 0.0
C2455 C 0.28385 0.34165 0.1442 0.0
C2456 C 0.27544 0.30856 0.12639 0.0
C2457 C 0.27113 0.29416 0.10849 0.0
C2458 C 0.25826 0.29525 0.09449 0.0
C2459 C 0.25453 0.28187 0.07753 0.0
C2460 C 0.2635 0.26726 0.07444 0.0
C2461 C 0.27619 0.26597 0.08833 0.0
C2462 C 0.27999 0.27931 0.10531 0.0
C2463 C 0.26952 0.3055 0.20951 0.0
C2464 C 0.27834 0.29098 0.21089 0.0
C2465 C 0.26898 0.31278 0.19306 0.0
C2466 C 0.27798 0.30633 0.17799 0.0
C2467 C 0.28672 0.29168 0.17945 0.0
C2468 C 0.2867 0.28393 0.19563 0.0
C2469 C 0.27841 0.31464 0.16066 0.0
C2470 C 0.2744 0.30183 0.14323 0.0
C2471 C 0.28302 0.33488 0.1611 0.0
C2472 C 0.28781 0.34931 0.17892 0.0
C2473 C 0.30229 0.34949 0.19173 0.0
C2474 C 0.30608 0.36251 0.20894 0.0
C2475 C 0.29557 0.3755 0.21342 0.0
C2476 C 0.28135 0.37562 0.20063 0.0
C2477 C 0.27752 0.36266 0.1834 0.0
H2478 H 0.29845 0.38547 0.22679 0.0
H2479 H 0.26061 0.25694 0.06129 0.0
H2480 H 0.24318 0.93753 0.02797 0.0
H2481 H 0.21791 0.95167 0.03465 0.0
H2482 H 0.22862 0.98299 0.99001 0.0
H2483 H 0.25381 0.96895 0.9832 0.0
H2484 H 0.22532 0.00625 0.02265 0.0
H2485 H 0.19208 0.94659 0.98394 0.0
H2486 H 0.18248 0.91117 0.97288 0.0
H2487 H 0.16277 0.90417 0.02553 0.0
H2488 H 0.17229 0.93956 0.03695 0.0
H2489 H 0.14918 0.04384 0.03706 0.0
H2490 H 0.16992 0.02726 0.02165 0.0
H2491 H 0.16114 0.98706 0.05907 0.0
H2492 H 0.13947 0.0027 0.07369 0.0
H2493 H 0.16259 0.96845 0.02566 0.0
H2494 H 0.19906 0.02853 0.06512 0.0
H2495 H 0.20956 0.064 0.07582 0.0
H2496 H 0.22392 0.07022 0.02103 0.0
H2497 H 0.2133 0.03481 0.00995 0.0
C2498 C 0.24004 0.94728 0.01947 0.0
C2499 C 0.25051 0.95214 0.00509 0.0
C2500 C 0.22557 0.95528 0.02324 0.0
C2501 C 0.22137 0.96829 0.01274 0.0
C2502 C 0.23164 0.97297 -0.00176 0.0
C2503 C 0.24601 0.96487 0.99436 0.0
C2504 C 0.20687 0.9778 0.01759 0.0
C2505 C 0.21151 0.99804 0.02301 0.0
C2506 C 0.18896 0.96702 0.0182 0.0
C2507 C 0.18304 0.94573 0.01135 0.0
C2508 C 0.18579 0.93749 0.9932 0.0
C2509 C 0.1803 0.91742 0.98685 0.0
C2510 C 0.17198 0.90542 -0.00151 0.0
C2511 C 0.16912 0.91348 0.0165 0.0
C2512 C 0.17453 0.93355 0.02291 0.0
C2513 C 0.15137 0.03124 0.0418 0.0
C2514 C 0.14272 0.02472 0.05676 0.0
C2515 C 0.16344 0.02193 0.03311 0.0
C2516 C 0.16739 0.00615 0.03945 0.0
C2517 C 0.15841 0.99928 0.054 0.0
C2518 C 0.14616 0.0084 0.06251 0.0
C2519 C 0.18113 0.99693 0.03131 0.0
C2520 C 0.17634 0.97672 0.02516 0.0
C2521 C 0.19893 0.00776 0.03 0.0
C2522 C 0.20517 0.02905 0.03665 0.0
C2523 C 0.20431 0.03748 0.05532 0.0
C2524 C 0.21031 0.05757 0.06146 0.0
C2525 C 0.21735 0.06936 0.0491 0.0
C2526 C 0.21843 0.06108 0.03058 0.0
C2527 C 0.21243 0.04101 0.02436 0.0
H2528 H 0.222 0.0849 0.05389 0.0
H2529 H 0.16775 0.88988 0.99356 0.0
H2530 H 0.72341 0.67691 0.00751 0.0
H2531 H 0.69579 0.65136 0.00626 0.0
H2532 H 0.7235 0.60826 0.9862 0.0
H2533 H 0.7517 0.63399 0.98782 0.0
H2534 H 0.68159 0.61249 0.96766 0.0
H2535 H 0.71832 0.59935 0.01898 0.0
H2536 H 0.73975 0.61084 0.04768 0.0
H2537 H 0.70302 0.63984 0.0746 0.0
H2538 H 0.6815 0.62876 0.04593 0.0
H2539 H 0.60219 0.54076 0.97926 0.0
H2540 H 0.63332 0.55725 0.97576 0.0
H2541 H 0.63413 0.60085 0.02453 0.0
H2542 H 0.60347 0.58408 0.02859 0.0
H2543 H 0.6643 0.59159 0.02644 0.0
H2544 H 0.62912 0.60858 0.97879 0.0
H2545 H 0.60708 0.60272 0.95106 0.0
H2546 H 0.63918 0.57196 0.91808 0.0
H2547 H 0.66132 0.57746 0.94571 0.0
C2548 C 0.72373 0.66202 0.00277 0.0
C2549 C 0.73981 0.6575 -0.00225 0.0
C2550 C 0.70789 0.64745 0.00206 0.0
C2551 C 0.70762 0.62799 -0.00388 0.0
C2552 C 0.72349 0.62326 0.99083 0.0
C2553 C 0.73957 0.63792 0.99183 0.0
C2554 C 0.69064 0.61296 -0.00382 0.0
C2555 C 0.67791 0.60734 0.98029 0.0
C2556 C 0.68568 0.60708 0.01292 0.0
C2557 C 0.6984 0.61338 0.03027 0.0
C2558 C 0.71489 0.60831 0.03097 0.0
C2559 C 0.72704 0.61472 0.04724 0.0
C2560 C 0.72277 0.6261 0.06294 0.0
C2561 C 0.70632 0.63104 0.06242 0.0
C2562 C 0.69414 0.62468 0.04618 0.0
C2563 C 0.60905 0.55374 0.98935 0.0
C2564 C 0.60033 0.56091 0.00434 0.0
C2565 C 0.62683 0.56328 0.98723 0.0
C2566 C 0.63614 0.58038 -0.00015 0.0
C2567 C 0.62735 0.58762 0.01468 0.0
C2568 C 0.60971 0.57803 0.01692 0.0
C2569 C 0.655 0.59088 -0.00218 0.0
C2570 C 0.66802 0.59599 0.0135 0.0
C2571 C 0.66007 0.59663 0.98096 0.0
C2572 C 0.64674 0.59321 0.96436 0.0
C2573 C 0.63139 0.60042 0.96566 0.0
C2574 C 0.61891 0.5972 0.94996 0.0
C2575 C 0.6217 0.58692 0.93283 0.0
C2576 C 0.63701 0.57988 0.93137 0.0
C2577 C 0.64954 0.58305 0.94704 0.0
H2578 H 0.61202 0.58445 0.92068 0.0
H2579 H 0.73219 0.63105 0.07552 0.0
H2580 H 0.70206 0.44934 0.23967 0.0
H2581 H 0.71843 0.42384 0.2374 0.0
H2582 H 0.71367 0.42231 0.29544 0.0
H2583 H 0.69787 0.4475 0.29776 0.0
H2584 H 0.7441 0.41777 0.29191 0.0
H2585 H 0.6892 0.38398 0.25296 0.0
H2586 H 0.6653 0.37715 0.22672 0.0
H2587 H 0.70448 0.37445 0.18761 0.0
H2588 H 0.72867 0.38149 0.21365 0.0
H2589 H 0.76615 0.32874 0.29803 0.0
H2590 H 0.75237 0.35522 0.29608 0.0
H2591 H 0.76486 0.3535 0.23938 0.0
H2592 H 0.77864 0.32639 0.24132 0.0
H2593 H 0.73225 0.36052 0.24028 0.0
H2594 H 0.78729 0.39703 0.28047 0.0
H2595 H 0.81062 0.40504 0.30752 0.0
H2596 H 0.76947 0.40149 0.34487 0.0
H2597 H 0.74598 0.39403 0.31807 0.0
C2598 C 0.70446 0.44365 0.252 0.0
C2599 C 0.69825 0.45112 0.26895 0.0
C2600 C 0.71387 0.42866 0.25068 0.0
C2601 C 0.71762 0.42028 0.26621 0.0
C2602 C 0.71146 0.42794 0.28301 0.0
C2603 C 0.70212 0.44268 0.28431 0.0
C2604 C 0.72804 0.40414 0.2656 0.0
C2605 C 0.74113 0.40524 0.28056 0.0
C2606 C 0.72517 0.38741 0.25091 0.0
C2607 C 0.71077 0.38351 0.23525 0.0
C2608 C 0.69274 0.38211 0.23877 0.0
C2609 C 0.67914 0.37815 0.22394 0.0
C2610 C 0.68337 0.37542 0.20551 0.0
C2611 C 0.70123 0.37661 0.20189 0.0
C2612 C 0.71489 0.38058 0.21668 0.0
C2613 C 0.76631 0.33404 0.2851 0.0
C2614 C 0.77407 0.32509 0.27001 0.0
C2615 C 0.75835 0.34961 0.28401 0.0
C2616 C 0.75744 0.35738 0.26766 0.0
C2617 C 0.76512 0.34839 0.25238 0.0
C2618 C 0.77329 0.33275 0.25353 0.0
C2619 C 0.74811 0.37417 0.26669 0.0
C2620 C 0.73522 0.37315 0.25152 0.0
C2621 C 0.75097 0.39095 0.28127 0.0
C2622 C 0.76492 0.39473 0.2973 0.0
C2623 C 0.78325 0.39782 0.29446 0.0
C2624 C 0.79649 0.40239 0.30974 0.0
C2625 C 0.79152 0.40357 0.32788 0.0
C2626 C 0.7733 0.40048 0.33081 0.0
C2627 C 0.76004 0.39623 0.3156 0.0
H2628 H 0.80178 0.40698 0.33967 0.0
H2629 H 0.67281 0.37232 0.19405 0.0
H2630 H 0.87473 0.4564 0.5576 0.0
H2631 H 0.9014 0.47992 0.55227 0.0
H2632 H 0.86825 0.50389 0.51849 0.0
H2633 H 0.84137 0.47987 0.52335 0.0
H2634 H 0.89214 0.48979 0.49892 0.0
H2635 H 0.89786 0.53505 0.55821 0.0
H2636 H 0.89695 0.54231 0.59237 0.0
H2637 H 0.93797 0.51282 0.60014 0.0
H2638 H 0.93944 0.50583 0.56611 0.0
H2639 H 0.99323 0.55381 0.51443 0.0
H2640 H 0.9607 0.54922 0.51398 0.0
H2641 H 0.9527 0.48748 0.49777 0.0
H2642 H 0.98533 0.49223 0.49799 0.0
H2643 H 0.94735 0.52799 0.54053 0.0
H2644 H 0.91617 0.46722 0.48158 0.0
H2645 H 0.91585 0.4561 0.44759 0.0
H2646 H 0.92404 0.51461 0.43968 0.0
H2647 H 0.92505 0.5261 0.47372 0.0
C2648 C 0.87298 0.46716 0.54966 0.0
C2649 C 0.85601 0.46595 0.54049 0.0
C2650 C 0.88829 0.48074 0.54671 0.0
C2651 C 0.88684 0.4936 0.53487 0.0
C2652 C 0.86964 0.49401 0.52761 0.0
C2653 C 0.85428 0.48033 0.53049 0.0
C2654 C 0.90321 0.50358 0.52733 0.0
C2655 C 0.90405 0.49876 0.50798 0.0
C2656 C 0.91887 0.51482 0.53912 0.0
C2657 C 0.91877 0.51997 0.55965 0.0
C2658 C 0.90678 0.53026 0.56724 0.0
C2659 C 0.9062 0.53436 0.58658 0.0
C2660 C 0.91743 0.52807 0.59843 0.0
C2661 C 0.92935 0.51777 0.59097 0.0
C2662 C 0.9302 0.51393 0.57168 0.0
C2663 C 0.98446 0.53945 0.5094 0.0
C2664 C 0.9917 0.52347 0.50542 0.0
C2665 C 0.96586 0.53679 0.50935 0.0
C2666 C 0.95426 0.51803 0.50566 0.0
C2667 C 0.96134 0.50211 0.50016 0.0
C2668 C 0.97998 0.50481 0.50024 0.0
C2669 C 0.93612 0.51479 0.51213 0.0
C2670 C 0.93512 0.5203 0.53136 0.0
C2671 C 0.92037 0.50408 0.5003 0.0
C2672 C 0.9207 0.49748 0.48007 0.0
C2673 C 0.91801 0.47769 0.47255 0.0
C2674 C 0.91779 0.47134 0.45332 0.0
C2675 C 0.91992 0.48464 0.44148 0.0
C2676 C 0.9224 0.50433 0.44888 0.0
C2677 C 0.92304 0.5108 0.46815 0.0
H2678 H 0.91965 0.47969 0.42658 0.0
H2679 H 0.9169 0.53117 0.61338 0.0
H2680 H 0.35886 0.07069 0.30508 0.0
H2681 H 0.34415 0.09549 0.29885 0.0
H2682 H 0.39362 0.12749 0.28199 0.0
H2683 H 0.40839 0.10266 0.28796 0.0
H2684 H 0.37227 0.15113 0.3021 0.0
H2685 H 0.3676 0.09769 0.2497 0.0
H2686 H 0.35982 0.06308 0.2347 0.0
H2687 H 0.30472 0.05704 0.24604 0.0
H2688 H 0.31227 0.09157 0.26141 0.0
H2689 H 0.33055 0.17904 0.2174 0.0
H2690 H 0.34932 0.165 0.23606 0.0
H2691 H 0.31003 0.15916 0.27562 0.0
H2692 H 0.29079 0.17253 0.25682 0.0
H2693 H 0.32674 0.12425 0.24651 0.0
H2694 H 0.35402 0.17273 0.31947 0.0
H2695 H 0.36214 0.20709 0.3351 0.0
H2696 H 0.37229 0.22402 0.28267 0.0
H2697 H 0.36503 0.1898 0.26686 0.0
C2698 C 0.36674 0.08326 0.30053 0.0
C2699 C 0.38467 0.08463 0.2967 0.0
C2700 C 0.35833 0.0974 0.29701 0.0
C2701 C 0.36781 0.11315 0.28984 0.0
C2702 C 0.38614 0.11541 0.28756 0.0
C2703 C 0.39449 0.10116 0.29083 0.0
C2704 C 0.35806 0.12555 0.28205 0.0
C2705 C 0.36221 0.14535 0.29003 0.0
C2706 C 0.34511 0.11784 0.26623 0.0
C2707 C 0.34055 0.09713 0.2569 0.0
C2708 C 0.35387 0.08893 0.24915 0.0
C2709 C 0.3495 0.06934 0.24056 0.0
C2710 C 0.3318 0.05785 0.23948 0.0
C2711 C 0.31843 0.06595 0.24694 0.0
C2712 C 0.32275 0.08552 0.25559 0.0
C2713 C 0.32594 0.17493 0.23015 0.0
C2714 C 0.30909 0.17676 0.23551 0.0
C2715 C 0.3368 0.1672 0.24091 0.0
C2716 C 0.33123 0.16162 0.25745 0.0
C2717 C 0.3148 0.16408 0.26326 0.0
C2718 C 0.30381 0.17163 0.25241 0.0
C2719 C 0.34085 0.14996 0.26654 0.0
C2720 C 0.33661 0.13013 0.25874 0.0
C2721 C 0.35368 0.15777 0.28252 0.0
C2722 C 0.35833 0.17856 0.29181 0.0
C2723 C 0.35803 0.18375 0.31124 0.0
C2724 C 0.36256 0.20324 0.32018 0.0
C2725 C 0.36749 0.21774 0.30985 0.0
C2726 C 0.36819 0.21277 0.29061 0.0
C2727 C 0.3638 0.19329 0.28163 0.0
H2728 H 0.37091 0.23282 0.31678 0.0
H2729 H 0.32844 0.0427 0.2328 0.0
H2730 H 0.33846 0.16346 0.52719 0.0
H2731 H 0.36213 0.1472 0.53231 0.0
H2732 H 0.36557 0.13484 0.47294 0.0
H2733 H 0.34172 0.15071 0.4677 0.0
H2734 H 0.366 0.10403 0.48641 0.0
H2735 H 0.39832 0.17066 0.50338 0.0
H2736 H 0.4049 0.20472 0.51981 0.0
H2737 H 0.40993 0.18748 0.57259 0.0
H2738 H 0.40313 0.15326 0.55649 0.0
H2739 H 0.44626 0.0723 0.49457 0.0
H2740 H 0.42667 0.09302 0.48832 0.0
H2741 H 0.41548 0.10068 0.54583 0.0
H2742 H 0.435 0.08007 0.55212 0.0
H2743 H 0.42038 0.13488 0.53207 0.0
H2744 H 0.38619 0.06775 0.51406 0.0
H2745 H 0.38046 0.03405 0.49686 0.0
H2746 H 0.38005 0.05329 0.44471 0.0
H2747 H 0.38603 0.08716 0.46164 0.0
C2748 C 0.34425 0.15729 0.51522 0.0
C2749 C 0.33815 0.15843 0.49703 0.0
C2750 C 0.35789 0.14809 0.51817 0.0
C2751 C 0.36587 0.13996 0.50303 0.0
C2752 C 0.3597 0.14098 0.48487 0.0
C2753 C 0.34604 0.15012 0.4819 0.0
C2754 C 0.38032 0.12999 0.50605 0.0
C2755 C 0.37801 0.11095 0.49618 0.0
C2756 C 0.39596 0.1388 0.51897 0.0
C2757 C 0.40003 0.15936 0.52873 0.0
C2758 C 0.40068 0.1741 0.5185 0.0
C2759 C 0.40448 0.19345 0.52775 0.0
C2760 C 0.40778 0.19825 0.54723 0.0
C2761 C 0.40734 0.18373 0.5575 0.0
C2762 C 0.40353 0.16436 0.54832 0.0
C2763 C 0.43986 0.07869 0.50593 0.0
C2764 C 0.44205 0.07443 0.5238 0.0
C2765 C 0.4286 0.09043 0.50233 0.0
C2766 C 0.41943 0.09825 0.51657 0.0
C2767 C 0.42235 0.0948 0.53462 0.0
C2768 C 0.43343 0.08292 0.53817 0.0
C2769 C 0.40594 0.109 0.5125 0.0
C2770 C 0.40841 0.12811 0.5222 0.0
C2771 C 0.39052 0.10034 0.4993 0.0
C2772 C 0.38675 0.07999 0.48912 0.0
C2773 C 0.38501 0.0648 0.49893 0.0
C2774 C 0.3817 0.04567 0.48923 0.0
C2775 C 0.37994 0.04153 0.4697 0.0
C2776 C 0.38144 0.05652 0.45984 0.0
C2777 C 0.38478 0.07568 0.46948 0.0
H2778 H 0.37738 0.02671 0.46221 0.0
H2779 H 0.41073 0.21324 0.55437 0.0
H2780 H 0.67472 0.57774 0.25929 0.0
H2781 H 0.69411 0.60979 0.26008 0.0
H2782 H 0.74059 0.59117 0.27667 0.0
H2783 H 0.7209 0.55831 0.27578 0.0
H2784 H 0.74054 0.62932 0.2974 0.0
H2785 H 0.73483 0.5978 0.23317 0.0
H2786 H 0.71859 0.57857 0.20299 0.0
H2787 H 0.68899 0.62097 0.19968 0.0
H2788 H 0.70486 0.64033 0.22998 0.0
H2789 H 0.79794 0.72037 0.28476 0.0
H2790 H 0.78405 0.68614 0.28454 0.0
H2791 H 0.73502 0.69019 0.25558 0.0
H2792 H 0.74908 0.72397 0.25507 0.0
H2793 H 0.73933 0.65775 0.24076 0.0
H2794 H 0.74195 0.68774 0.30516 0.0
H2795 H 0.7565 0.7073 0.33587 0.0
H2796 H 0.79003 0.66859 0.33962 0.0
H2797 H 0.77583 0.64893 0.3088 0.0
C2798 C 0.68906 0.58019 0.26314 0.0
C2799 C 0.69602 0.56501 0.26747 0.0
C2800 C 0.70025 0.59878 0.26352 0.0
C2801 C 0.71902 0.60327 0.26833 0.0
C2802 C 0.72619 0.58831 0.27289 0.0
C2803 C 0.71489 0.56938 0.27228 0.0
C2804 C 0.73067 0.62353 0.26826 0.0
C2805 C 0.74056 0.63537 0.28489 0.0
C2806 C 0.73045 0.632 0.2522 0.0
C2807 C 0.72095 0.62045 0.23392 0.0
C2808 C 0.72476 0.60296 0.22607 0.0
C2809 C 0.71563 0.59204 0.20893 0.0
C2810 C 0.70274 0.59852 0.19944 0.0
C2811 C 0.69897 0.61596 0.20705 0.0
C2812 C 0.70804 0.62692 0.2242 0.0
C2813 C 0.78431 0.71397 0.27809 0.0
C2814 C 0.77498 0.72525 0.26958 0.0
C2815 C 0.77616 0.69425 0.27821 0.0
C2816 C 0.7582 0.68508 0.27014 0.0
C2817 C 0.74886 0.69644 0.26184 0.0
C2818 C 0.75702 0.71604 0.2616 0.0
C2819 C 0.7491 0.66381 0.27 0.0
C2820 C 0.73955 0.65175 0.25329 0.0
C2821 C 0.74947 0.65526 0.28605 0.0
C2822 C 0.75798 0.667 0.30458 0.0
C2823 C 0.75252 0.68348 0.31247 0.0
C2824 C 0.76069 0.69458 0.32991 0.0
C2825 C 0.77422 0.68923 0.33966 0.0
C2826 C 0.77957 0.67274 0.33203 0.0
C2827 C 0.77146 0.66161 0.31458 0.0
H2828 H 0.78053 0.69783 0.35316 0.0
H2829 H 0.69569 0.59005 0.18618 0.0
H2830 H 0.89495 0.46485 0.77175 0.0
H2831 H 0.86865 0.43758 0.76704 0.0
H2832 H 0.83381 0.47558 0.76501 0.0
H2833 H 0.86059 0.50364 0.7702 0.0
H2834 H 0.82303 0.44866 0.78748 0.0
H2835 H 0.83631 0.44543 0.72413 0.0
H2836 H 0.85761 0.44827 0.70022 0.0
H2837 H 0.87629 0.40123 0.71457 0.0
H2838 H 0.8552 0.39814 0.7386 0.0
H2839 H 0.77916 0.33731 0.75017 0.0
H2840 H 0.78168 0.37169 0.75146 0.0
H2841 H 0.83151 0.38642 0.78767 0.0
H2842 H 0.82984 0.35223 0.78497 0.0
H2843 H 0.82133 0.38995 0.74021 0.0
H2844 H 0.82177 0.43318 0.81593 0.0
H2845 H 0.80202 0.4344 0.84119 0.0
H2846 H 0.75587 0.40235 0.80217 0.0
H2847 H 0.77531 0.40098 0.77667 0.0
C2848 C 0.88177 0.4676 0.77019 0.0
C2849 C 0.8799 0.48649 0.77125 0.0
C2850 C 0.8667 0.45188 0.76735 0.0
C2851 C 0.8493 0.45448 0.76515 0.0
C2852 C 0.84718 0.47329 0.7664 0.0
C2853 C 0.86244 0.48925 0.76937 0.0
C2854 C 0.83368 0.43727 0.76269 0.0
C2855 C 0.82235 0.43586 0.77696 0.0
C2856 C 0.83246 0.42076 0.74859 0.0
C2857 C 0.84414 0.42156 0.73315 0.0
C2858 C 0.84488 0.43561 0.7221 0.0
C2859 C 0.85694 0.43728 0.70856 0.0
C2860 C 0.86833 0.42498 0.70597 0.0
C2861 C 0.86742 0.41071 0.7166 0.0
C2862 C 0.85537 0.40894 0.73012 0.0
C2863 C 0.79015 0.34788 0.7592 0.0
C2864 C 0.80377 0.34203 0.7685 0.0
C2865 C 0.7915 0.36753 0.75996 0.0
C2866 C 0.80646 0.38158 0.77015 0.0
C2867 C 0.81947 0.3758 0.78037 0.0
C2868 C 0.8184 0.35619 0.7791 0.0
C2869 C 0.8117 0.40108 0.7658 0.0
C2870 C 0.82131 0.40288 0.75025 0.0
C2871 C 0.81141 0.41783 0.77879 0.0
C2872 C 0.80003 0.41691 0.7944 0.0
C2873 C 0.80742 0.42631 0.81275 0.0
C2874 C 0.79626 0.4271 0.8271 0.0
C2875 C 0.77768 0.41854 0.82327 0.0
C2876 C 0.77026 0.409 0.80511 0.0
C2877 C 0.78137 0.40806 0.79074 0.0
H2878 H 0.76906 0.4192 0.83439 0.0
H2879 H 0.87799 0.42663 0.69586 0.0
H2880 H 0.07885 0.84616 0.05107 0.0
H2881 H 0.07392 0.8748 0.0408 0.0
H2882 H 0.08278 0.9056 0.09819 0.0
H2883 H 0.08602 0.87618 0.10846 0.0
H2884 H 0.06026 0.91823 0.08361 0.0
H2885 H 0.11573 0.91008 0.06069 0.0
H2886 H 0.13554 0.89304 0.04329 0.0
H2887 H 0.10204 0.88628 0.99209 0.0
H2888 H 0.08186 0.90299 0.00924 0.0
H2889 H 0.0699 0.01106 0.05838 0.0
H2890 H 0.07346 0.98281 0.07034 0.0
H2891 H 0.06612 0.94989 0.01382 0.0
H2892 H 0.06457 0.97897 0.00201 0.0
H2893 H 0.08884 0.93901 0.02922 0.0
H2894 H 0.0291 0.93849 0.05677 0.0
H2895 H 0.00958 0.95459 0.07591 0.0
H2896 H 0.05346 0.97864 0.11968 0.0
H2897 H 0.07309 0.96251 0.10083 0.0
C2898 C 0.07954 0.859 0.06151 0.0
C2899 C 0.08279 0.85882 0.0806 0.0
C2900 C 0.07701 0.87562 0.0556 0.0
C2901 C 0.07859 0.89301 0.06853 0.0
C2902 C 0.08153 0.89265 0.08771 0.0
C2903 C 0.08339 0.87575 0.09366 0.0
C2904 C 0.07695 0.91136 0.06217 0.0
C2905 C 0.06673 0.92276 0.0718 0.0
C2906 C 0.08506 0.91766 0.04661 0.0
C2907 C 0.09721 0.90763 0.03629 0.0
C2908 C 0.11254 0.90485 0.04574 0.0
C2909 C 0.12384 0.89526 0.03591 0.0
C2910 C 0.12005 0.88856 0.01659 0.0
C2911 C 0.10496 0.89146 0.00705 0.0
C2912 C 0.09359 0.90099 0.01682 0.0
C2913 C 0.06878 0.99766 0.04855 0.0
C2914 C 0.06632 0.99709 0.02923 0.0
C2915 C 0.07054 0.98123 0.05544 0.0
C2916 C 0.06936 0.96344 0.04324 0.0
C2917 C 0.06704 0.9631 0.02383 0.0
C2918 C 0.06593 0.97974 0.01697 0.0
C2919 C 0.07172 0.94565 0.05035 0.0
C2920 C 0.08222 0.93439 0.04092 0.0
C2921 C 0.0641 0.9396 0.06625 0.0
C2922 C 0.05262 0.94985 0.0772 0.0
C2923 C 0.03459 0.94744 0.07038 0.0
C2924 C 0.02349 0.95644 0.08122 0.0
C2925 C 0.03033 0.96781 0.09891 0.0
C2926 C 0.04821 0.96998 0.10591 0.0
C2927 C 0.05929 0.96087 0.09519 0.0
H2928 H 0.02174 0.97482 0.10724 0.0
H2929 H 0.12883 0.88116 0.00901 0.0
H2930 H 0.97406 0.26316 0.8695 0.0
H2931 H 0.94798 0.2657 0.84985 0.0
H2932 H 0.91395 0.25339 0.89324 0.0
H2933 H 0.93964 0.25049 0.91261 0.0
H2934 H 0.89545 0.23582 0.8616 0.0
H2935 H 0.93173 0.30054 0.88577 0.0
H2936 H 0.95942 0.32755 0.89154 0.0
H2937 H 0.96058 0.32403 0.83243 0.0
H2938 H 0.93301 0.29683 0.82631 0.0
H2939 H 0.83898 0.30255 0.83182 0.0
H2940 H 0.86439 0.29612 0.84914 0.0
H2941 H 0.86369 0.24799 0.80492 0.0
H2942 H 0.83871 0.2548 0.78715 0.0
H2943 H 0.89928 0.29559 0.83677 0.0
H2944 H 0.87521 0.2119 0.83516 0.0
H2945 H 0.84742 0.18643 0.83561 0.0
H2946 H 0.81972 0.22965 0.85427 0.0
H2947 H 0.8474 0.25535 0.85456 0.0
C2948 C 0.96098 0.26072 0.87474 0.0
C2949 C 0.95911 0.25666 0.89275 0.0
C2950 C 0.94604 0.26234 0.86353 0.0
C2951 C 0.92886 0.26003 0.87005 0.0
C2952 C 0.92692 0.25528 0.88774 0.0
C2953 C 0.94176 0.25367 0.89889 0.0
C2954 C 0.91299 0.26304 0.85892 0.0
C2955 C 0.89636 0.24877 0.85592 0.0
C2956 C 0.91387 0.28019 0.85195 0.0
C2957 C 0.93044 0.29652 0.85559 0.0
C2958 C 0.93798 0.30543 0.87401 0.0
C2959 C 0.95363 0.32079 0.87734 0.0
C2960 C 0.96179 0.32746 0.86236 0.0
C2961 C 0.95427 0.31882 0.84402 0.0
C2962 C 0.93863 0.30344 0.84061 0.0
C2963 C 0.84418 0.29058 0.82573 0.0
C2964 C 0.8368 0.27933 0.80794 0.0
C2965 C 0.8588 0.28697 0.83565 0.0
C2966 C 0.86607 0.2716 0.82837 0.0
C2967 C 0.85839 0.25995 0.81087 0.0
C2968 C 0.84408 0.2639 0.80069 0.0
C2969 C 0.88187 0.2681 0.83897 0.0
C2970 C 0.89844 0.28239 0.842 0.0
C2971 C 0.88079 0.25103 0.84617 0.0
C2972 C 0.86351 0.23569 0.84467 0.0
C2973 C 0.86321 0.21603 0.83935 0.0
C2974 C 0.84748 0.20151 0.83962 0.0
C2975 C 0.83186 0.20641 0.84513 0.0
C2976 C 0.83184 0.22586 0.85001 0.0
C2977 C 0.84757 0.24043 0.84987 0.0
H2978 H 0.81972 0.19515 0.84541 0.0
H2979 H 0.9739 0.33936 0.86497 0.0
H2980 H 0.60616 0.25164 0.57666 0.0
H2981 H 0.60033 0.21677 0.56663 0.0
H2982 H 0.54288 0.21125 0.56219 0.0
H2983 H 0.54888 0.24637 0.57393 0.0
H2984 H 0.54611 0.18256 0.57321 0.0
H2985 H 0.57062 0.20686 0.52222 0.0
H2986 H 0.59159 0.22702 0.50496 0.0
H2987 H 0.6342 0.20304 0.52198 0.0
H2988 H 0.61356 0.18292 0.53956 0.0
H2989 H 0.55511 0.08792 0.50826 0.0
H2990 H 0.5601 0.12321 0.51352 0.0
H2991 H 0.56517 0.12622 0.57308 0.0
H2992 H 0.55991 0.09104 0.56784 0.0
H2993 H 0.58431 0.15523 0.52935 0.0
H2994 H 0.54398 0.15757 0.59493 0.0
H2995 H 0.51835 0.13623 0.60608 0.0
H2996 H 0.49944 0.10563 0.54974 0.0
H2997 H 0.52474 0.12699 0.53822 0.0
C2998 C 0.59225 0.24302 0.57348 0.0
C2999 C 0.57798 0.25184 0.5759 0.0
C3000 C 0.5889 0.22296 0.56751 0.0
C3001 C 0.57113 0.21107 0.5629 0.0
C3002 C 0.55677 0.21989 0.56547 0.0
C3003 C 0.56016 0.24002 0.57212 0.0
C3004 C 0.56775 0.18951 0.55609 0.0
C3005 C 0.5545 0.17673 0.56357 0.0
C3006 C 0.57804 0.18141 0.54287 0.0
C3007 C 0.59056 0.19349 0.53234 0.0
C3008 C 0.58449 0.20598 0.52239 0.0
C3009 C 0.59632 0.21739 0.51253 0.0
C3010 C 0.61423 0.21634 0.51241 0.0
C3011 C 0.62033 0.20385 0.52211 0.0
C3012 C 0.60856 0.19242 0.532 0.0
C3013 C 0.55772 0.09617 0.52245 0.0
C3014 C 0.55717 0.08669 0.53765 0.0
C3015 C 0.56049 0.11638 0.52547 0.0
C3016 C 0.56259 0.12747 0.54373 0.0
C3017 C 0.56315 0.11806 0.55886 0.0
C3018 C 0.56029 0.09794 0.55586 0.0
C3019 C 0.56334 0.14864 0.54715 0.0
C3020 C 0.57599 0.16122 0.53895 0.0
C3021 C 0.55183 0.15649 0.55888 0.0
C3022 C 0.53639 0.14379 0.56575 0.0
C3023 C 0.53431 0.14636 0.58492 0.0
C3024 C 0.51983 0.13425 0.5913 0.0
C3025 C 0.50731 0.11955 0.57864 0.0
C3026 C 0.50918 0.11698 0.55954 0.0
C3027 C 0.52359 0.12908 0.55309 0.0
H3028 H 0.49614 0.11017 0.58362 0.0
H3029 H 0.62336 0.22518 0.50477 0.0
H3030 H 0.57312 0.7671 0.40287 0.0
H3031 H 0.60174 0.76949 0.38907 0.0
H3032 H 0.57614 0.77577 0.33732 0.0
H3033 H 0.54762 0.77352 0.35098 0.0
H3034 H 0.5968 0.74884 0.33235 0.0
H3035 H 0.60363 0.81462 0.36769 0.0
H3036 H 0.6051 0.83823 0.3969 0.0
H3037 H 0.64912 0.82064 0.42109 0.0
H3038 H 0.64775 0.79676 0.3921 0.0
H3039 H 0.662 0.78427 0.27721 0.0
H3040 H 0.63784 0.77829 0.29687 0.0
H3041 H 0.67677 0.78636 0.34457 0.0
H3042 H 0.70146 0.79378 0.32493 0.0
H3043 H 0.6518 0.80264 0.35568 0.0
H3044 H 0.6487 0.74019 0.32262 0.0
H3045 H 0.6483 0.71404 0.29588 0.0
H3046 H 0.59896 0.72098 0.27079 0.0
H3047 H 0.59919 0.74737 0.29724 0.0
C3048 C 0.57356 0.76898 0.38854 0.0
C3049 C 0.55797 0.77012 0.37807 0.0
C3050 C 0.58999 0.77042 0.38069 0.0
C3051 C 0.5912 0.77293 0.36214 0.0
C3052 C 0.57561 0.77385 0.35164 0.0
C3053 C 0.55927 0.7726 0.35951 0.0
C3054 C 0.6085 0.77441 0.35342 0.0
C3055 C 0.60878 0.7607 0.33736 0.0
C3056 C 0.62453 0.78923 0.36052 0.0
C3057 C 0.62546 0.80377 0.3778 0.0
C3058 C 0.61353 0.8157 0.37929 0.0
C3059 C 0.61436 0.82914 0.39579 0.0
C3060 C 0.62716 0.8309 0.41086 0.0
C3061 C 0.6392 0.81926 0.40942 0.0
C3062 C 0.63841 0.80578 0.39295 0.0
C3063 C 0.66561 0.78503 0.29191 0.0
C3064 C 0.68388 0.78982 0.2994 0.0
C3065 C 0.65162 0.78124 0.30317 0.0
C3066 C 0.65526 0.78148 0.32228 0.0
C3067 C 0.67347 0.78598 0.32988 0.0
C3068 C 0.68762 0.79004 0.31857 0.0
C3069 C 0.63987 0.7775 0.33403 0.0
C3070 C 0.63994 0.79064 0.35071 0.0
C3071 C 0.62429 0.76175 0.32786 0.0
C3072 C 0.62403 0.74586 0.31188 0.0
C3073 C 0.63782 0.73623 0.31134 0.0
C3074 C 0.63762 0.72135 0.29624 0.0
C3075 C 0.62363 0.71587 0.28163 0.0
C3076 C 0.60979 0.72524 0.28211 0.0
C3077 C 0.60994 0.74015 0.29717 0.0
H3078 H 0.6235 0.70435 0.26995 0.0
H3079 H 0.62777 0.8413 0.42362 0.0
H3080 H 0.10971 0.26427 0.41548 0.0
H3081 H 0.1064 0.23668 0.43158 0.0
H3082 H 0.05114 0.23714 0.43841 0.0
H3083 H 0.05436 0.26435 0.42272 0.0
H3084 H 0.07448 0.24334 0.47213 0.0
H3085 H 0.05778 0.20112 0.41057 0.0
H3086 H 0.06361 0.18814 0.37869 0.0
H3087 H 0.10881 0.17118 0.40113 0.0
H3088 H 0.10338 0.18431 0.43316 0.0
H3089 H 0.0269 0.16794 0.51088 0.0
H3090 H 0.03739 0.18983 0.48976 0.0
H3091 H 0.08566 0.16988 0.48545 0.0
H3092 H 0.07507 0.1477 0.50643 0.0
H3093 H 0.07254 0.17403 0.45156 0.0
H3094 H 0.08761 0.21308 0.513 0.0
H3095 H 0.08227 0.22621 0.54503 0.0
H3096 H 0.04163 0.25013 0.52314 0.0
H3097 H 0.04652 0.2369 0.49098 0.0
C3098 C 0.09678 0.25807 0.42002 0.0
C3099 C 0.08238 0.26658 0.41819 0.0
C3100 C 0.0949 0.24238 0.42919 0.0
C3101 C 0.07857 0.23509 0.43634 0.0
C3102 C 0.06388 0.24269 0.43314 0.0
C3103 C 0.06576 0.25826 0.42421 0.0
C3104 C 0.07701 0.22139 0.44923 0.0
C3105 C 0.07402 0.22816 0.46763 0.0
C3106 C 0.0771 0.20181 0.44349 0.0
C3107 C 0.08033 0.19394 0.42425 0.0
C3108 C 0.06908 0.19482 0.4087 0.0
C3109 C 0.07228 0.18738 0.39061 0.0
C3110 C 0.08661 0.17891 0.38788 0.0
C3111 C 0.09774 0.17779 0.40326 0.0
C3112 C 0.0946 0.18522 0.42138 0.0
C3113 C 0.03982 0.16836 0.50559 0.0
C3114 C 0.05025 0.15627 0.51048 0.0
C3115 C 0.04578 0.1808 0.49345 0.0
C3116 C 0.06244 0.18169 0.48621 0.0
C3117 C 0.07278 0.16944 0.49085 0.0
C3118 C 0.06674 0.15685 0.50289 0.0
C3119 C 0.06915 0.19585 0.47425 0.0
C3120 C 0.07326 0.18925 0.45616 0.0
C3121 C 0.07022 0.21573 0.48024 0.0
C3122 C 0.06737 0.2239 0.49958 0.0
C3123 C 0.07746 0.22105 0.51502 0.0
C3124 C 0.07452 0.22852 0.5332 0.0
C3125 C 0.0616 0.23897 0.53612 0.0
C3126 C 0.05163 0.24203 0.52086 0.0
C3127 C 0.0545 0.23457 0.50266 0.0
H3128 H 0.05934 0.24474 0.5502 0.0
H3129 H 0.08906 0.17315 0.37387 0.0
H3130 H 0.55928 0.27751 0.21825 0.0
H3131 H 0.59103 0.27749 0.22315 0.0
H3132 H 0.5944 0.27099 0.16381 0.0
H3133 H 0.56271 0.27167 0.15888 0.0
H3134 H 0.60113 0.24025 0.18043 0.0
H3135 H 0.62256 0.30727 0.18686 0.0
H3136 H 0.6248 0.34203 0.19685 0.0
H3137 H 0.63661 0.33852 0.25402 0.0
H3138 H 0.63419 0.30364 0.24444 0.0
H3139 H 0.69086 0.23069 0.20667 0.0
H3140 H 0.66654 0.24154 0.19217 0.0
H3141 H 0.64591 0.25175 0.24554 0.0
H3142 H 0.67002 0.24065 0.26001 0.0
H3143 H 0.65202 0.28391 0.22508 0.0
H3144 H 0.62394 0.21456 0.21693 0.0
H3145 H 0.62253 0.18013 0.20564 0.0
H3146 H 0.62441 0.18931 0.14935 0.0
H3147 H 0.62609 0.22389 0.16038 0.0
C3148 C 0.56701 0.27684 0.20636 0.0
C3149 C 0.55863 0.27455 0.18822 0.0
C3150 C 0.58512 0.27688 0.20915 0.0
C3151 C 0.59497 0.27421 0.19382 0.0
C3152 C 0.58699 0.27319 0.17579 0.0
C3153 C 0.56896 0.27365 0.17303 0.0
C3154 C 0.61224 0.26917 0.19662 0.0
C3155 C 0.61252 0.24997 0.18975 0.0
C3156 C 0.62693 0.28182 0.2089 0.0
C3157 C 0.62804 0.30274 0.21492 0.0
C3158 C 0.62543 0.31383 0.2016 0.0
C3159 C 0.62679 0.33359 0.20718 0.0
C3160 C 0.63079 0.34247 0.22606 0.0
C3161 C 0.63349 0.33161 0.2394 0.0
C3162 C 0.63215 0.31184 0.23389 0.0
C3163 C 0.68092 0.23497 0.21518 0.0
C3164 C 0.68212 0.23474 0.23438 0.0
C3165 C 0.66716 0.24122 0.20694 0.0
C3166 C 0.65462 0.24756 0.21787 0.0
C3167 C 0.65559 0.247 0.23696 0.0
C3168 C 0.66917 0.24046 0.24514 0.0
C3169 C 0.64043 0.25487 0.20951 0.0
C3170 C 0.64082 0.27442 0.21537 0.0
C3171 C 0.62644 0.24262 0.19613 0.0
C3172 C 0.62539 0.22185 0.1895 0.0
C3173 C 0.62424 0.20928 0.20217 0.0
C3174 C 0.62335 0.18973 0.19582 0.0
C3175 C 0.62345 0.18255 0.17679 0.0
C3176 C 0.62438 0.1949 0.16408 0.0
C3177 C 0.62529 0.21447 0.17038 0.0
H3178 H 0.62275 0.16741 0.1719 0.0
H3179 H 0.63184 0.35777 0.23036 0.0
H3180 H 0.6172 0.88045 0.9581 0.0
H3181 H 0.61673 0.91436 0.96403 0.0
H3182 H 0.61862 0.91499 0.90541 0.0
H3183 H 0.6197 0.88124 0.89942 0.0
H3184 H 0.63003 0.95507 0.93449 0.0
H3185 H 0.57925 0.89759 0.90872 0.0
H3186 H 0.56299 0.86353 0.90732 0.0
H3187 H 0.55897 0.87598 0.96633 0.0
H3188 H 0.57517 0.91023 0.96798 0.0
H3189 H 0.54089 0.98962 0.94607 0.0
H3190 H 0.55655 0.96624 0.93099 0.0
H3191 H 0.59988 0.98741 0.97607 0.0
H3192 H 0.58471 0.01074 0.99074 0.0
H3193 H 0.56546 0.93715 0.94619 0.0
H3194 H 0.63916 0.9874 0.95941 0.0
H3195 H 0.65309 0.02207 0.96089 0.0
H3196 H 0.60886 0.0247 0.92361 0.0
H3197 H 0.59486 0.99015 0.92162 0.0
C3198 C 0.61871 0.88815 0.94667 0.0
C3199 C 0.61789 0.87811 0.92824 0.0
C3200 C 0.61852 0.90757 0.95008 0.0
C3201 C 0.61713 0.9169 0.93505 0.0
C3202 C 0.61963 0.90797 0.91715 0.0
C3203 C 0.62017 0.8886 0.91376 0.0
C3204 C 0.60714 0.9319 0.93697 0.0
C3205 C 0.61593 0.95124 0.93696 0.0
C3206 C 0.58855 0.92671 0.93943 0.0
C3207 C 0.57844 0.90634 0.93847 0.0
C3208 C 0.57489 0.89302 0.92137 0.0
C3209 C 0.56568 0.8737 0.92054 0.0
C3210 C 0.55998 0.86754 0.93675 0.0
C3211 C 0.56338 0.88076 0.95379 0.0
C3212 C 0.57251 0.90014 0.95467 0.0
C3213 C 0.55384 0.98933 0.95257 0.0
C3214 C 0.56144 0.00164 0.96974 0.0
C3215 C 0.56271 0.976 0.94402 0.0
C3216 C 0.57937 0.97523 0.95242 0.0
C3217 C 0.58712 0.98792 0.96928 0.0
C3218 C 0.5783 0.00107 0.97779 0.0
C3219 C 0.58843 0.9605 0.94442 0.0
C3220 C 0.57945 0.94107 0.9433 0.0
C3221 C 0.60663 0.96568 0.94051 0.0
C3222 C 0.61593 0.98614 0.94042 0.0
C3223 C 0.63256 0.99532 0.9513 0.0
C3224 C 0.64046 0.01503 0.95225 0.0
C3225 C 0.63194 0.02566 0.9423 0.0
C3226 C 0.61552 0.01657 0.93131 0.0
C3227 C 0.60758 0.99693 0.93028 0.0
H3228 H 0.63797 0.04092 0.9431 0.0
H3229 H 0.55292 0.85255 0.93609 0.0
H3230 H 0.96799 0.77465 0.72101 0.0
H3231 H 0.93848 0.77664 0.73068 0.0
H3232 H 0.9175 0.7687 0.67284 0.0
H3233 H 0.94737 0.7682 0.66336 0.0
H3234 H 0.9014 0.78982 0.69257 0.0
H3235 H 0.91452 0.72968 0.69661 0.0
H3236 H 0.93227 0.70859 0.70674 0.0
H3237 H 0.92663 0.73001 0.76409 0.0
H3238 H 0.90907 0.75142 0.75432 0.0
H3239 H 0.80937 0.75064 0.71531 0.0
H3240 H 0.83742 0.7531 0.7009 0.0
H3241 H 0.8679 0.7717 0.75547 0.0
H3242 H 0.83954 0.76689 0.76995 0.0
H3243 H 0.87774 0.74366 0.73311 0.0
H3244 H 0.88631 0.81709 0.71467 0.0
H3245 H 0.87149 0.83802 0.69987 0.0
H3246 H 0.83501 0.78778 0.66501 0.0
H3247 H 0.85041 0.76676 0.67876 0.0
C3248 C 0.95719 0.77409 0.71052 0.0
C3249 C 0.95969 0.77124 0.69152 0.0
C3250 C 0.94033 0.77493 0.71598 0.0
C3251 C 0.92567 0.772 0.7024 0.0
C3252 C 0.92861 0.77077 0.68352 0.0
C3253 C 0.94563 0.77059 0.67811 0.0
C3254 C 0.90711 0.76888 0.7077 0.0
C3255 C 0.89613 0.77965 0.70136 0.0
C3256 C 0.90022 0.75531 0.71883 0.0
C3257 C 0.91059 0.74225 0.72473 0.0
C3258 C 0.91714 0.72995 0.71138 0.0
C3259 C 0.92717 0.71794 0.71706 0.0
C3260 C 0.9306 0.71798 0.73604 0.0
C3261 C 0.92397 0.73 0.74939 0.0
C3262 C 0.91397 0.74206 0.74379 0.0
C3263 C 0.82215 0.75546 0.72413 0.0
C3264 C 0.82257 0.75926 0.74365 0.0
C3265 C 0.8382 0.75746 0.71586 0.0
C3266 C 0.85489 0.76407 0.72696 0.0
C3267 C 0.85518 0.76722 0.74657 0.0
C3268 C 0.83909 0.76448 0.75486 0.0
C3269 C 0.87208 0.7652 0.7186 0.0
C3270 C 0.88291 0.75385 0.7243 0.0
C3271 C 0.87862 0.77789 0.70642 0.0
C3272 C 0.86838 0.79023 0.69903 0.0
C3273 C 0.87485 0.81052 0.70416 0.0
C3274 C 0.86659 0.82243 0.69569 0.0
C3275 C 0.85197 0.81422 0.68187 0.0
C3276 C 0.84594 0.79411 0.67613 0.0
C3277 C 0.85438 0.78218 0.68436 0.0
H3278 H 0.84553 0.82344 0.67538 0.0
H3279 H 0.93837 0.70868 0.74041 0.0
H3280 H 0.15716 0.00357 0.83062 0.0
H3281 H 0.14662 0.00617 0.86197 0.0
H3282 H 0.09788 0.01741 0.83998 0.0
H3283 H 0.10844 0.01531 0.80923 0.0
H3284 H 0.10525 0.03963 0.87084 0.0
H3285 H 0.10264 0.97203 0.85615 0.0
H3286 H 0.11406 0.94319 0.84737 0.0
H3287 H 0.15328 0.96284 0.89583 0.0
H3288 H 0.14222 0.99193 0.90477 0.0
H3289 H 0.05117 0.02216 0.94637 0.0
H3290 H 0.06435 0.01788 0.91671 0.0
H3291 H 0.11648 0.026 0.94671 0.0
H3292 H 0.1033 0.03063 0.97657 0.0
H3293 H 0.10887 0.99451 0.91336 0.0
H3294 H 0.11004 0.06145 0.92837 0.0
H3295 H 0.09674 0.08876 0.9379 0.0
H3296 H 0.05851 0.06882 0.88866 0.0
H3297 H 0.07142 0.04116 0.87897 0.0
C3298 C 0.14407 0.00629 0.83233 0.0
C3299 C 0.13381 0.00907 0.81679 0.0
C3300 C 0.1379 0.00781 0.85053 0.0
C3301 C 0.1211 0.01197 0.85407 0.0
C3302 C 0.11087 0.01438 0.8384 0.0
C3303 C 0.11701 0.013 0.82043 0.0
C3304 C 0.11411 0.01426 0.87368 0.0
C3305 C 0.10596 0.02946 0.87983 0.0
C3306 C 0.11499 0.00161 0.88638 0.0
C3307 C 0.12175 0.98426 0.88099 0.0
C3308 C 0.1138 0.97027 0.86484 0.0
C3309 C 0.12018 0.95387 0.85986 0.0
C3310 C 0.13443 0.95122 0.871 0.0
C3311 C 0.14228 0.96494 0.88718 0.0
C3312 C 0.13595 0.98138 0.89222 0.0
C3313 C 0.06539 0.02278 0.94683 0.0
C3314 C 0.07591 0.02659 0.96432 0.0
C3315 C 0.07306 0.02044 0.92961 0.0
C3316 C 0.09163 0.02145 0.92891 0.0
C3317 C 0.10215 0.02495 0.94638 0.0
C3318 C 0.09454 0.02773 0.96366 0.0
C3319 C 0.09996 0.01962 0.91015 0.0
C3320 C 0.10827 0.0046 0.90423 0.0
C3321 C 0.09911 0.03229 0.89758 0.0
C3322 C 0.09161 0.04916 0.90301 0.0
C3323 C 0.09874 0.06283 0.91961 0.0
C3324 C 0.09128 0.07837 0.92504 0.0
C3325 C 0.07679 0.08051 0.9139 0.0
C3326 C 0.06975 0.06713 0.89727 0.0
C3327 C 0.07714 0.05153 0.89179 0.0
H3328 H 0.07108 0.09258 0.91814 0.0
H3329 H 0.13935 0.93851 0.86712 0.0
H3330 H 0.79962 0.35453 0.54627 0.0
H3331 H 0.79555 0.3431 0.5755 0.0
H3332 H 0.77994 0.39454 0.59913 0.0
H3333 H 0.7837 0.40593 0.56975 0.0
H3334 H 0.81413 0.39042 0.61396 0.0
H3335 H 0.75182 0.3534 0.60006 0.0
H3336 H 0.72623 0.329 0.58052 0.0
H3337 H 0.75373 0.28478 0.58347 0.0
H3338 H 0.77961 0.30895 0.60281 0.0
H3339 H 0.82828 0.37286 0.70454 0.0
H3340 H 0.81439 0.38 0.67656 0.0
H3341 H 0.81387 0.32343 0.64558 0.0
H3342 H 0.82763 0.31621 0.67351 0.0
H3343 H 0.7837 0.33117 0.63595 0.0
H3344 H 0.84564 0.36269 0.64078 0.0
H3345 H 0.87603 0.38368 0.65304 0.0
H3346 H 0.85505 0.43367 0.66039 0.0
H3347 H 0.82443 0.41292 0.64841 0.0
C3348 C 0.79449 0.36295 0.5574 0.0
C3349 C 0.79227 0.38125 0.55594 0.0
C3350 C 0.79208 0.35636 0.57406 0.0
C3351 C 0.78759 0.36807 0.58946 0.0
C3352 C 0.78334 0.3853 0.58731 0.0
C3353 C 0.78547 0.39177 0.57052 0.0
C3354 C 0.79184 0.36479 0.60834 0.0
C3355 C 0.8071 0.37782 0.61914 0.0
C3356 C 0.78338 0.34765 0.61426 0.0
C3357 C 0.7677 0.33303 0.60285 0.0
C3358 C 0.75247 0.3385 0.59646 0.0
C3359 C 0.73789 0.3247 0.58543 0.0
C3360 C 0.73836 0.30536 0.58074 0.0
C3361 C 0.75338 0.29977 0.58712 0.0
C3362 C 0.76799 0.3135 0.59816 0.0
C3363 C 0.82524 0.362 0.69173 0.0
C3364 C 0.82908 0.34403 0.69113 0.0
C3365 C 0.81726 0.36605 0.6758 0.0
C3366 C 0.81318 0.35226 0.65897 0.0
C3367 C 0.81676 0.3342 0.65845 0.0
C3368 C 0.82464 0.33011 0.67439 0.0
C3369 C 0.80592 0.35696 0.64169 0.0
C3370 C 0.79034 0.34413 0.63112 0.0
C3371 C 0.81463 0.37381 0.63536 0.0
C3372 C 0.8327 0.38622 0.64392 0.0
C3373 C 0.84744 0.37812 0.64532 0.0
C3374 C 0.86472 0.38998 0.6521 0.0
C3375 C 0.86747 0.41 0.65738 0.0
C3376 C 0.85289 0.41816 0.65621 0.0
C3377 C 0.83556 0.40636 0.64946 0.0
H3378 H 0.88092 0.41918 0.66236 0.0
H3379 H 0.72707 0.29471 0.57219 0.0
H3380 H 0.43298 0.06333 0.34256 0.0
H3381 H 0.44802 0.07172 0.37461 0.0
H3382 H 0.45806 0.01522 0.36783 0.0
H3383 H 0.44283 0.00662 0.33624 0.0
H3384 H 0.44882 0.02595 0.40202 0.0
H3385 H 0.48981 0.05599 0.3598 0.0
H3386 H 0.49817 0.0783 0.33812 0.0
H3387 H 0.49384 0.12591 0.38015 0.0
H3388 H 0.48529 0.10381 0.40201 0.0
H3389 H 0.52544 0.02123 0.4499 0.0
H3390 H 0.50592 0.02515 0.42396 0.0
H3391 H 0.50611 0.082 0.45396 0.0
H3392 H 0.52608 0.07818 0.47986 0.0
H3393 H 0.50613 0.07828 0.41385 0.0
H3394 H 0.47231 0.0491 0.45839 0.0
H3395 H 0.4659 0.0268 0.48031 0.0
H3396 H 0.45696 0.97805 0.43475 0.0
H3397 H 0.46354 7e-05 0.41256 0.0
C3398 C 0.43821 0.05264 0.34802 0.0
C3399 C 0.43692 0.0344 0.3368 0.0
C3400 C 0.44679 0.05746 0.36629 0.0
C3401 C 0.45432 0.04416 0.37348 0.0
C3402 C 0.45231 0.02569 0.36257 0.0
C3403 C 0.44369 0.02084 0.34444 0.0
C3404 C 0.46551 0.04956 0.39174 0.0
C3405 C 0.46126 0.03749 0.40469 0.0
C3406 C 0.48146 0.06503 0.39551 0.0
C3407 C 0.48672 0.07825 0.38242 0.0
C3408 C 0.49055 0.0712 0.36436 0.0
C3409 C 0.49533 0.0838 0.35206 0.0
C3410 C 0.49648 0.10349 0.35774 0.0
C3411 C 0.49291 0.11064 0.37576 0.0
C3412 C 0.4881 0.0981 0.3881 0.0
C3413 C 0.5218 0.03479 0.45057 0.0
C3414 C 0.52718 0.04949 0.46653 0.0
C3415 C 0.51062 0.03699 0.43591 0.0
C3416 C 0.50439 0.05371 0.4373 0.0
C3417 C 0.51081 0.06901 0.45273 0.0
C3418 C 0.52219 0.06687 0.46739 0.0
C3419 C 0.48982 0.05403 0.42345 0.0
C3420 C 0.49339 0.06718 0.41148 0.0
C3421 C 0.47318 0.03964 0.42062 0.0
C3422 C 0.46843 0.02626 0.4338 0.0
C3423 C 0.469 0.03362 0.45304 0.0
C3424 C 0.46536 0.02104 0.46552 0.0
C3425 C 0.46103 0.00103 0.45892 0.0
C3426 C 0.46028 0.99356 0.43983 0.0
C3427 C 0.46391 0.00609 0.42728 0.0
H3428 H 0.45821 0.9913 0.46861 0.0
H3429 H 0.50017 0.11323 0.34819 0.0
H3430 H 0.81359 0.71141 0.06376 0.0
H3431 H 0.81518 0.72197 0.0977 0.0
H3432 H 0.7887 0.76616 0.08978 0.0
H3433 H 0.78732 0.756 0.05598 0.0
H3434 H 0.81485 0.77852 0.12043 0.0
H3435 H 0.76387 0.72214 0.09516 0.0
H3436 H 0.75106 0.68866 0.07752 0.0
H3437 H 0.78375 0.66791 0.11453 0.0
H3438 H 0.79686 0.70128 0.13226 0.0
H3439 H 0.79421 0.79431 0.21459 0.0
H3440 H 0.79105 0.78907 0.18039 0.0
H3441 H 0.79889 0.73184 0.17792 0.0
H3442 H 0.79833 0.7358 0.21131 0.0
H3443 H 0.77995 0.72766 0.15078 0.0
H3444 H 0.83411 0.78142 0.17437 0.0
H3445 H 0.84973 0.81418 0.19223 0.0
H3446 H 0.81632 0.83878 0.15993 0.0
H3447 H 0.80044 0.80617 0.14199 0.0
C3448 C 0.80849 0.72367 0.06923 0.0
C3449 C 0.80011 0.73266 0.05711 0.0
C3450 C 0.80933 0.72963 0.08864 0.0
C3451 C 0.80171 0.7446 0.09626 0.0
C3452 C 0.79457 0.75452 0.08423 0.0
C3453 C 0.79375 0.74861 0.06487 0.0
C3454 C 0.79958 0.74874 0.11654 0.0
C3455 C 0.80727 0.76743 0.12717 0.0
C3456 C 0.78975 0.73429 0.12532 0.0
C3457 C 0.78139 0.71419 0.11497 0.0
C3458 C 0.76833 0.71043 0.09951 0.0
C3459 C 0.76103 0.69148 0.08949 0.0
C3460 C 0.76661 0.67618 0.09489 0.0
C3461 C 0.77944 0.67977 0.11036 0.0
C3462 C 0.78678 0.69869 0.12042 0.0
C3463 C 0.79431 0.78033 0.20655 0.0
C3464 C 0.79587 0.76525 0.21557 0.0
C3465 C 0.79318 0.77751 0.18696 0.0
C3466 C 0.79531 0.7602 0.17619 0.0
C3467 C 0.79697 0.74529 0.18547 0.0
C3468 C 0.79682 0.74762 0.20474 0.0
C3469 C 0.79629 0.75728 0.15546 0.0
C3470 C 0.78795 0.73882 0.14443 0.0
C3471 C 0.80613 0.7718 0.14654 0.0
C3472 C 0.81602 0.79139 0.15696 0.0
C3473 C 0.83012 0.79384 0.1711 0.0
C3474 C 0.839 0.81236 0.18124 0.0
C3475 C 0.83399 0.82854 0.17724 0.0
C3476 C 0.82017 0.82624 0.16302 0.0
C3477 C 0.81125 0.80775 0.15285 0.0
H3478 H 0.84084 0.84286 0.18515 0.0
H3479 H 0.76098 0.66153 0.08708 0.0
H3480 H 0.15197 0.03489 0.7072 0.0
H3481 H 0.13937 0.03863 0.67691 0.0
H3482 H 0.10127 0.98282 0.67037 0.0
H3483 H 0.11401 0.97915 0.70091 0.0
H3484 H 0.10905 0.98648 0.6362 0.0
H3485 H 0.08976 0.02777 0.68306 0.0
H3486 H 0.09135 0.053 0.71098 0.0
H3487 H 0.12373 0.09573 0.6847 0.0
H3488 H 0.12257 0.07067 0.65669 0.0
H3489 H 0.0479 0.01429 0.56812 0.0
H3490 H 0.05929 0.00926 0.59873 0.0
H3491 H 0.11269 0.04178 0.59222 0.0
H3492 H 0.10153 0.04613 0.5615 0.0
H3493 H 0.09489 0.04877 0.63293 0.0
H3494 H 0.11381 0.00323 0.58559 0.0
H3495 H 0.10758 0.97666 0.55794 0.0
H3496 H 0.07032 0.94037 0.58636 0.0
H3497 H 0.07605 0.96691 0.61406 0.0
C3498 C 0.1413 0.02303 0.69912 0.0
C3499 C 0.13473 0.00632 0.70665 0.0
C3500 C 0.13373 0.02536 0.68167 0.0
C3501 C 0.11889 0.01122 0.67075 0.0
C3502 C 0.11263 0.99418 0.67797 0.0
C3503 C 0.12015 0.99192 0.69559 0.0
C3504 C 0.10985 0.01457 0.65239 0.0
C3505 C 0.10593 0.00014 0.63577 0.0
C3506 C 0.10523 0.03218 0.65097 0.0
C3507 C 0.10629 0.04728 0.66787 0.0
C3508 C 0.0974 0.0425 0.6833 0.0
C3509 C 0.09818 0.05678 0.69913 0.0
C3510 C 0.10769 0.07595 0.69964 0.0
C3511 C 0.11641 0.08087 0.6843 0.0
C3512 C 0.11569 0.06663 0.66844 0.0
C3513 C 0.062 0.02077 0.57334 0.0
C3514 C 0.07357 0.03114 0.56215 0.0
C3515 C 0.06862 0.0177 0.59095 0.0
C3516 C 0.08709 0.02502 0.5983 0.0
C3517 C 0.09845 0.03587 0.58736 0.0
C3518 C 0.09195 0.03851 0.56963 0.0
C3519 C 0.09471 0.02098 0.61684 0.0
C3520 C 0.09821 0.03522 0.63347 0.0
C3521 C 0.09857 0.00309 0.61836 0.0
C3522 C 0.09518 0.98714 0.60179 0.0
C3523 C 0.10411 0.98967 0.58585 0.0
C3524 C 0.10071 0.9746 0.57019 0.0
C3525 C 0.08851 0.95685 0.57036 0.0
C3526 C 0.07972 0.95414 0.58622 0.0
C3527 C 0.08304 0.96919 0.6019 0.0
H3528 H 0.08593 0.94519 0.55824 0.0
H3529 H 0.10825 0.08699 0.7119 0.0
H3530 H 0.7944 0.3955 0.45746 0.0
H3531 H 0.7945 0.37898 0.42525 0.0
H3532 H 0.84998 0.37843 0.43738 0.0
H3533 H 0.85009 0.39498 0.46949 0.0
H3534 H 0.84069 0.38286 0.39976 0.0
H3535 H 0.8212 0.34178 0.44399 0.0
H3536 H 0.80289 0.33213 0.46893 0.0
H3537 H 0.75423 0.32255 0.43237 0.0
H3538 H 0.77229 0.33245 0.4073 0.0
H3539 H 0.83764 0.30462 0.32603 0.0
H3540 H 0.84265 0.32298 0.35837 0.0
H3541 H 0.78571 0.3201 0.35665 0.0
H3542 H 0.78075 0.30131 0.3248 0.0
H3543 H 0.79821 0.31728 0.38993 0.0
H3544 H 0.81735 0.35919 0.34582 0.0
H3545 H 0.83542 0.36805 0.32045 0.0
H3546 H 0.88434 0.37566 0.35593 0.0
H3547 H 0.86653 0.36665 0.38147 0.0
C3548 C 0.80673 0.39226 0.45315 0.0
C3549 C 0.82207 0.39604 0.46607 0.0
C3550 C 0.80679 0.38293 0.43477 0.0
C3551 C 0.82218 0.37732 0.42916 0.0
C3552 C 0.838 0.38265 0.44154 0.0
C3553 C 0.83794 0.39189 0.45991 0.0
C3554 C 0.82084 0.36325 0.41165 0.0
C3555 C 0.83152 0.36848 0.39759 0.0
C3556 C 0.80893 0.34452 0.409 0.0
C3557 C 0.79807 0.33799 0.42384 0.0
C3558 C 0.80659 0.3377 0.44131 0.0
C3559 C 0.79627 0.33219 0.45546 0.0
C3560 C 0.77741 0.32677 0.45225 0.0
C3561 C 0.76884 0.32677 0.43484 0.0
C3562 C 0.77911 0.33231 0.42065 0.0
C3563 C 0.82621 0.30746 0.33291 0.0
C3564 C 0.80878 0.30136 0.32333 0.0
C3565 C 0.82906 0.31803 0.35121 0.0
C3566 C 0.81458 0.32316 0.35972 0.0
C3567 C 0.79703 0.3162 0.35035 0.0
C3568 C 0.79415 0.30534 0.33225 0.0
C3569 C 0.81766 0.33698 0.37771 0.0
C3570 C 0.8074 0.33165 0.39201 0.0
C3571 C 0.8299 0.35561 0.38047 0.0
C3572 C 0.84062 0.36215 0.36552 0.0
C3573 C 0.83196 0.36279 0.34822 0.0
C3574 C 0.84215 0.36779 0.33379 0.0
C3575 C 0.86101 0.37236 0.33656 0.0
C3576 C 0.86972 0.37211 0.35381 0.0
C3577 C 0.8596 0.3671 0.36828 0.0
H3578 H 0.86887 0.37611 0.32533 0.0
H3579 H 0.76943 0.32253 0.46323 0.0
H3580 H 0.45851 0.01017 0.23811 0.0
H3581 H 0.47295 0.01368 0.21009 0.0
H3582 H 0.45609 0.06568 0.20819 0.0
H3583 H 0.44081 0.06195 0.23649 0.0
H3584 H 0.45075 0.03995 0.17313 0.0
H3585 H 0.49944 0.07155 0.21998 0.0
H3586 H 0.51798 0.07636 0.25002 0.0
H3587 H 0.53223 0.02316 0.23134 0.0
H3588 H 0.51359 0.01789 0.20129 0.0
H3589 H 0.51445 0.03932 0.10178 0.0
H3590 H 0.49871 0.05014 0.12783 0.0
H3591 H 0.49722 0.99759 0.14783 0.0
H3592 H 0.51212 0.98602 0.1212 0.0
H3593 H 0.51398 0.03478 0.17368 0.0
H3594 H 0.46068 0.00144 0.12918 0.0
H3595 H 0.44081 0.99619 0.09993 0.0
H3596 H 0.43533 0.05416 0.11439 0.0
H3597 H 0.45549 0.05991 0.14358 0.0
C3598 C 0.45792 0.02252 0.23197 0.0
C3599 C 0.44861 0.03589 0.23966 0.0
C3600 C 0.46624 0.0245 0.2159 0.0
C3601 C 0.46584 0.04011 0.20728 0.0
C3602 C 0.4566 0.05361 0.21478 0.0
C3603 C 0.44803 0.05152 0.23096 0.0
C3604 C 0.47511 0.04159 0.19031 0.0
C3605 C 0.46475 0.03944 0.17321 0.0
C3606 C 0.49336 0.04094 0.19052 0.0
C3607 C 0.50514 0.04436 0.20834 0.0
C3608 C 0.50653 0.06087 0.22228 0.0
C3609 C 0.51704 0.06367 0.23932 0.0
C3610 C 0.52629 0.05009 0.24258 0.0
C3611 C 0.5251 0.03371 0.22878 0.0
C3612 C 0.5146 0.03083 0.21171 0.0
C3613 C 0.51035 0.02972 0.11136 0.0
C3614 C 0.51453 0.01168 0.10931 0.0
C3615 C 0.50145 0.03606 0.12631 0.0
C3616 C 0.49686 0.02464 0.13962 0.0
C3617 C 0.50074 0.00657 0.13759 0.0
C3618 C 0.50938 6e-05 0.12248 0.0
C3619 C 0.48933 0.03203 0.15656 0.0
C3620 C 0.50018 0.03599 0.1736 0.0
C3621 C 0.47167 0.0346 0.1562 0.0
C3622 C 0.45981 0.03119 0.13847 0.0
C3623 C 0.45545 0.01316 0.12602 0.0
C3624 C 0.44406 0.01006 0.10949 0.0
C3625 C 0.43677 0.02481 0.10534 0.0
C3626 C 0.44094 0.04273 0.11766 0.0
C3627 C 0.45238 0.04593 0.13418 0.0
H3628 H 0.42795 0.02238 0.09253 0.0
H3629 H 0.53438 0.05225 0.25581 0.0
H3630 H 0.79442 0.74597 0.95729 0.0
H3631 H 0.79696 0.75033 0.92526 0.0
H3632 H 0.81261 0.69697 0.91159 0.0
H3633 H 0.8102 0.69252 0.944 0.0
H3634 H 0.83089 0.72748 0.89293 0.0
H3635 H 0.771 0.69373 0.90142 0.0
H3636 H 0.74328 0.6878 0.9172 0.0
H3637 H 0.73503 0.74206 0.90876 0.0
H3638 H 0.76288 0.74848 0.89321 0.0
H3639 H 0.80025 0.7242 0.7948 0.0
H3640 H 0.80456 0.71421 0.82492 0.0
H3641 H 0.79259 0.76601 0.85368 0.0
H3642 H 0.78865 0.77607 0.82394 0.0
H3643 H 0.77238 0.73044 0.86251 0.0
H3644 H 0.83346 0.76536 0.85665 0.0
H3645 H 0.86107 0.77161 0.84074 0.0
H3646 H 0.86674 0.71491 0.84361 0.0
H3647 H 0.83899 0.70823 0.85934 0.0
C3648 C 0.79874 0.7353 0.94762 0.0
C3649 C 0.80186 0.71874 0.95314 0.0
C3650 C 0.80019 0.73783 0.92928 0.0
C3651 C 0.80462 0.72379 0.91595 0.0
C3652 C 0.80909 0.70793 0.92166 0.0
C3653 C 0.80772 0.70542 0.94017 0.0
C3654 C 0.80273 0.72504 0.89591 0.0
C3655 C 0.81804 0.72772 0.88611 0.0
C3656 C 0.78598 0.7255 0.88706 0.0
C3657 C 0.76911 0.72164 0.89626 0.0
C3658 C 0.76335 0.70446 0.90305 0.0
C3659 C 0.7476 0.70101 0.91194 0.0
C3660 C 0.73741 0.71456 0.91401 0.0
C3661 C 0.74294 0.73158 0.90716 0.0
C3662 C 0.7587 0.73513 0.89829 0.0
C3663 C 0.79869 0.73342 0.80762 0.0
C3664 C 0.79446 0.75106 0.80721 0.0
C3665 C 0.80116 0.72774 0.82474 0.0
C3666 C 0.79894 0.73941 0.84149 0.0
C3667 C 0.79447 0.75686 0.84094 0.0
C3668 C 0.79239 0.76269 0.82398 0.0
C3669 C 0.80059 0.73339 0.8597 0.0
C3670 C 0.78517 0.7298 0.86916 0.0
C3671 C 0.8172 0.73207 0.86812 0.0
C3672 C 0.83399 0.73617 0.85889 0.0
C3673 C 0.84048 0.75414 0.85371 0.0
C3674 C 0.85619 0.75779 0.84478 0.0
C3675 C 0.86562 0.74364 0.8411 0.0
C3676 C 0.8594 0.72584 0.84643 0.0
C3677 C 0.84369 0.72212 0.85536 0.0
H3678 H 0.87778 0.74649 0.83418 0.0
H3679 H 0.72522 0.71186 0.92089 0.0
H3680 H 0.81259 0.07737 0.0096 0.0
H3681 H 0.84018 0.06675 0.01084 0.0
H3682 H 0.87046 0.12438 0.03842 0.0
H3683 H 0.84275 0.13527 0.03706 0.0
H3684 H 0.88542 0.11095 0.00812 0.0
H3685 H 0.86623 0.0879 0.06196 0.0
H3686 H 0.84496 0.0716 0.0816 0.0
H3687 H 0.83705 0.01738 0.04327 0.0
H3688 H 0.85806 0.03339 0.02324 0.0
H3689 H 0.96115 0.06929 0.00288 0.0
H3690 H 0.93935 0.08634 0.0154 0.0
H3691 H 0.89561 0.03612 0.99137 0.0
H3692 H 0.91728 0.0188 0.97941 0.0
H3693 H 0.89182 0.05068 0.02723 0.0
H3694 H 0.90617 0.07568 0.97089 0.0
H3695 H 0.92695 0.09206 0.95086 0.0
H3696 H 0.94385 0.14293 0.99446 0.0
H3697 H 0.9233 0.12674 0.01483 0.0
C3698 C 0.82504 0.08774 0.01626 0.0
C3699 C 0.82553 0.10718 0.02311 0.0
C3700 C 0.84079 0.08161 0.01706 0.0
C3701 C 0.85734 0.09476 0.02484 0.0
C3702 C 0.85779 0.11402 0.03242 0.0
C3703 C 0.84195 0.12017 0.03169 0.0
C3704 C 0.87422 0.08859 0.02311 0.0
C3705 C 0.88709 0.09807 0.01275 0.0
C3706 C 0.87625 0.07168 0.02897 0.0
C3707 C 0.8637 0.06189 0.04105 0.0
C3708 C 0.85988 0.07252 0.05765 0.0
C3709 C 0.84787 0.06333 0.06887 0.0
C3710 C 0.83965 0.04347 0.06368 0.0
C3711 C 0.84344 0.03276 0.04728 0.0
C3712 C 0.85543 0.04188 0.03601 0.0
C3713 C 0.94687 0.06189 0.00031 0.0
C3714 C 0.9409 0.04272 0.99012 0.0
C3715 C 0.93446 0.07168 0.0074 0.0
C3716 C 0.91589 0.06248 0.00428 0.0
C3717 C 0.9099 0.04343 0.99397 0.0
C3718 C 0.92228 0.03364 0.98694 0.0
C3719 C 0.9025 0.07257 0.01158 0.0
C3720 C 0.89035 0.06384 0.02304 0.0
C3721 C 0.90114 0.09017 0.00675 0.0
C3722 C 0.91337 0.09993 0.99445 0.0
C3723 C 0.91442 0.0903 0.97625 0.0
C3724 C 0.92613 0.09956 0.96482 0.0
C3725 C 0.93676 0.1185 0.9714 0.0
C3726 C 0.93564 0.12825 0.9894 0.0
C3727 C 0.92395 0.11904 0.00088 0.0
H3728 H 0.94582 0.12564 0.96254 0.0
H3729 H 0.83035 0.03638 0.07237 0.0
H3730 H 0.3453 0.43666 0.04533 0.0
H3731 H 0.37505 0.46005 0.04768 0.0
H3732 H 0.39599 0.41516 0.01735 0.0
H3733 H 0.36689 0.39197 0.01546 0.0
H3734 H 0.41901 0.43351 0.04545 0.0
H3735 H 0.3851 0.45231 -0.00229 0.0
H3736 H 0.36028 0.46349 0.98434 0.0
H3737 H 0.37543 0.51563 0.02651 0.0
H3738 H 0.40022 0.50463 0.04027 0.0
H3739 H 0.49452 0.48084 0.00579 0.0
H3740 H 0.46389 0.46397 0.01012 0.0
H3741 H 0.46158 0.512 0.0531 0.0
H3742 H 0.49259 0.52887 0.04932 0.0
H3743 H 0.42948 0.4958 0.02382 0.0
H3744 H 0.46663 0.47661 0.06845 0.0
H3745 H 0.49244 0.46472 0.07811 0.0
H3746 H 0.47149 0.41177 0.03769 0.0
H3747 H 0.44565 0.42346 0.02762 0.0
C3748 C 0.35627 0.43188 0.03911 0.0
C3749 C 0.35372 0.4124 0.03035 0.0
C3750 C 0.37326 0.44525 0.04042 0.0
C3751 C 0.38788 0.4394 0.03272 0.0
C3752 C 0.3851 0.42007 0.02363 0.0
C3753 C 0.36835 0.40678 0.02251 0.0
C3754 C 0.40625 0.45298 0.03417 0.0
C3755 C 0.42121 0.4471 0.04066 0.0
C3756 C 0.40929 0.47096 0.02832 0.0
C3757 C 0.39434 0.47752 0.02017 0.0
C3758 C 0.38303 0.46607 0.00424 0.0
C3759 C 0.36899 0.47239 -0.00343 0.0
C3760 C 0.36624 0.49022 0.00462 0.0
C3761 C 0.37755 0.5018 0.02032 0.0
C3762 C 0.39159 0.49553 0.02806 0.0
C3763 C 0.48759 0.48791 0.0162 0.0
C3764 C 0.49606 0.50637 0.0271 0.0
C3765 C 0.47003 0.47821 0.01862 0.0
C3766 C 0.46045 0.48676 0.03188 0.0
C3767 C 0.46871 0.50522 0.0427 0.0
C3768 C 0.48644 0.51485 0.04049 0.0
C3769 C 0.44199 0.47597 0.03459 0.0
C3770 C 0.42712 0.48238 0.02892 0.0
C3771 C 0.43899 0.45827 0.04083 0.0
C3772 C 0.45426 0.45097 0.04721 0.0
C3773 C 0.46757 0.46247 0.06156 0.0
C3774 C 0.4822 0.45576 0.06711 0.0
C3775 C 0.48362 0.43751 0.05849 0.0
C3776 C 0.47036 0.4259 0.04435 0.0
C3777 C 0.45571 0.43255 0.03874 0.0
H3778 H 0.49497 0.43236 0.06278 0.0
H3779 H 0.35537 0.4951 -0.00135 0.0
H3780 H 0.4012 0.61598 0.74554 0.0
H3781 H 0.38545 0.64104 0.74166 0.0
H3782 H 0.38685 0.65697 0.80139 0.0
H3783 H 0.40203 0.63209 0.80521 0.0
H3784 H 0.35724 0.66105 0.79033 0.0
H3785 H 0.41441 0.68551 0.76911 0.0
H3786 H 0.43961 0.68545 0.74978 0.0
H3787 H 0.40345 0.67781 0.70027 0.0
H3788 H 0.37798 0.6776 0.7193 0.0
H3789 H 0.3274 0.74941 0.79115 0.0
H3790 H 0.34173 0.72346 0.7949 0.0
H3791 H 0.34676 0.71258 0.73585 0.0
H3792 H 0.33361 0.73922 0.73254 0.0
H3793 H 0.37348 0.70573 0.74682 0.0
H3794 H 0.31541 0.67112 0.7697 0.0
H3795 H 0.2913 0.6677 0.79071 0.0
H3796 H 0.33051 0.69597 0.83808 0.0
H3797 H 0.35496 0.69841 0.81748 0.0
C3798 C 0.39819 0.62476 0.75791 0.0
C3799 C 0.40328 0.62143 0.77577 0.0
C3800 C 0.38915 0.63949 0.7557 0.0
C3801 C 0.38471 0.65181 0.7712 0.0
C3802 C 0.38968 0.64821 0.7889 0.0
C3803 C 0.39865 0.63367 0.79109 0.0
C3804 C 0.37489 0.66807 0.76944 0.0
C3805 C 0.36106 0.67079 0.78079 0.0
C3806 C 0.37906 0.68133 0.75708 0.0
C3807 C 0.39427 0.6813 0.7456 0.0
C3808 C 0.41181 0.68366 0.75408 0.0
C3809 C 0.42614 0.6837 0.74318 0.0
C3810 C 0.42312 0.68156 0.7238 0.0
C3811 C 0.40576 0.67942 0.71528 0.0
C3812 C 0.39137 0.67934 0.72611 0.0
C3813 C 0.33132 0.74135 0.77888 0.0
C3814 C 0.32897 0.74683 0.76144 0.0
C3815 C 0.33955 0.72599 0.78096 0.0
C3816 C 0.34561 0.71489 0.76568 0.0
C3817 C 0.34278 0.72031 0.74826 0.0
C3818 C 0.33492 0.73578 0.74627 0.0
C3819 C 0.35544 0.69853 0.76747 0.0
C3820 C 0.36942 0.69585 0.75618 0.0
C3821 C 0.35152 0.68535 0.77998 0.0
C3822 C 0.33687 0.68537 0.79206 0.0
C3823 C 0.31882 0.67679 0.78457 0.0
C3824 C 0.30515 0.67487 0.79641 0.0
C3825 C 0.30933 0.68196 0.81565 0.0
C3826 C 0.32726 0.69063 0.82316 0.0
C3827 C 0.34105 0.69209 0.81145 0.0
H3828 H 0.29869 0.68057 0.82475 0.0
H3829 H 0.43423 0.68161 0.71539 0.0
H3830 H 0.22748 0.57336 0.48855 0.0
H3831 H 0.1965 0.55892 0.49406 0.0
H3832 H 0.20871 0.58868 0.5518 0.0
H3833 H 0.23987 0.60167 0.54657 0.0
H3834 H 0.18125 0.56278 0.55057 0.0
H3835 H 0.19708 0.61188 0.51578 0.0
H3836 H 0.20979 0.62843 0.49106 0.0
H3837 H 0.17349 0.58434 0.44924 0.0
H3838 H 0.16056 0.56751 0.47373 0.0
H3839 H 0.08882 0.58465 0.53673 0.0
H3840 H 0.12161 0.59074 0.54541 0.0
H3841 H 0.12161 0.53889 0.50615 0.0
H3842 H 0.08946 0.53369 0.49669 0.0
H3843 H 0.14344 0.58027 0.50262 0.0
H3844 H 0.15338 0.53509 0.55932 0.0
H3845 H 0.15221 0.53528 0.59299 0.0
H3846 H 0.14516 0.59284 0.6019 0.0
H3847 H 0.14651 0.59301 0.56837 0.0
C3848 C 0.22386 0.57549 0.50271 0.0
C3849 C 0.2358 0.58887 0.51708 0.0
C3850 C 0.20604 0.56766 0.50578 0.0
C3851 C 0.20005 0.57372 0.52304 0.0
C3852 C 0.21288 0.58412 0.53823 0.0
C3853 C 0.23084 0.59136 0.5353 0.0
C3854 C 0.18061 0.57228 0.52444 0.0
C3855 C 0.17289 0.56635 0.53996 0.0
C3856 C 0.17009 0.57849 0.51139 0.0
C3857 C 0.17802 0.58831 0.49656 0.0
C3858 C 0.19191 0.60564 0.5013 0.0
C3859 C 0.19912 0.61509 0.48734 0.0
C3860 C 0.19253 0.60738 0.46859 0.0
C3861 C 0.17863 0.59025 0.46377 0.0
C3862 C 0.17133 0.58077 0.47768 0.0
C3863 C 0.09589 0.57445 0.53031 0.0
C3864 C 0.0867 0.55837 0.51647 0.0
C3865 C 0.11449 0.57773 0.5355 0.0
C3866 C 0.12391 0.5648 0.527 0.0
C3867 C 0.1145 0.54863 0.51338 0.0
C3868 C 0.09617 0.54566 0.50795 0.0
C3869 C 0.14386 0.56997 0.5284 0.0
C3870 C 0.15173 0.57648 0.51315 0.0
C3871 C 0.15485 0.56588 0.54253 0.0
C3872 C 0.14931 0.56376 0.56119 0.0
C3873 C 0.151 0.54753 0.56839 0.0
C3874 C 0.15066 0.54772 0.58751 0.0
C3875 C 0.1487 0.5641 0.59961 0.0
C3876 C 0.14667 0.58016 0.59253 0.0
C3877 C 0.14698 0.58001 0.57341 0.0
H3878 H 0.14858 0.56429 0.61443 0.0
H3879 H 0.19814 0.61471 0.4578 0.0
H3880 H 0.73825 -5e-05 0.71159 0.0
H3881 H 0.75358 0.97654 0.72025 0.0
H3882 H 0.70626 0.94937 0.74419 0.0
H3883 H 0.69114 0.97307 0.73609 0.0
H3884 H 0.73424 0.96053 0.76909 0.0
H3885 H 0.72162 0.92502 0.70662 0.0
H3886 H 0.72006 0.91923 0.67225 0.0
H3887 H 0.77792 0.93868 0.67585 0.0
H3888 H 0.77982 0.9449 0.71027 0.0
H3889 H 0.76834 0.88538 0.79432 0.0
H3890 H 0.75139 0.90527 0.78145 0.0
H3891 H 0.79964 0.93575 0.76116 0.0
H3892 H 0.81659 0.91537 0.7736 0.0
H3893 H 0.77084 0.92202 0.73395 0.0
H3894 H 0.78183 0.9579 0.79788 0.0
H3895 H 0.78155 0.96147 0.83202 0.0
H3896 H 0.7239 0.93823 0.82475 0.0
H3897 H 0.72385 0.9343 0.79056 0.0
C3898 C 0.73098 0.98864 0.71823 0.0
C3899 C 0.7137 0.98847 0.72352 0.0
C3900 C 0.7397 0.97523 0.72311 0.0
C3901 C 0.73108 0.96133 0.73299 0.0
C3902 C 0.71319 0.96012 0.73673 0.0
C3903 C 0.7046 0.97365 0.73212 0.0
C3904 C 0.74149 0.95011 0.74186 0.0
C3905 C 0.74199 0.95183 0.76132 0.0
C3906 C 0.75192 0.93917 0.73179 0.0
C3907 C 0.75085 0.93563 0.71107 0.0
C3908 C 0.73401 0.92827 0.7001 0.0
C3909 C 0.73306 0.92487 0.6806 0.0
C3910 C 0.74888 0.92864 0.67187 0.0
C3911 C 0.76567 0.9358 0.68263 0.0
C3912 C 0.76669 0.93925 0.70214 0.0
C3913 C 0.77539 0.8966 0.78744 0.0
C3914 C 0.79372 0.89889 0.78489 0.0
C3915 C 0.76572 0.90795 0.78013 0.0
C3916 C 0.77429 0.92195 0.77038 0.0
C3917 C 0.79283 0.92495 0.76863 0.0
C3918 C 0.80253 0.91353 0.77593 0.0
C3919 C 0.76359 0.93259 0.76109 0.0
C3920 C 0.76305 0.93075 0.74161 0.0
C3921 C 0.75284 0.94317 0.77107 0.0
C3922 C 0.75287 0.94568 0.79165 0.0
C3923 C 0.76911 0.95344 0.80356 0.0
C3924 C 0.76901 0.95554 0.82292 0.0
C3925 C 0.75272 0.95004 0.83055 0.0
C3926 C 0.7365 0.94247 0.81883 0.0
C3927 C 0.73653 0.94033 0.79946 0.0
H3928 H 0.75268 0.95168 0.84554 0.0
H3929 H 0.74812 0.92598 0.65677 0.0
H3930 H 0.73098 0.88475 0.49695 0.0
H3931 H 0.70922 0.90407 0.49598 0.0
H3932 H 0.74297 0.94882 0.53957 0.0
H3933 H 0.76499 0.92956 0.54057 0.0
H3934 H 0.70556 0.94051 0.54469 0.0
H3935 H 0.74369 0.95582 0.4969 0.0
H3936 H 0.75931 0.94826 0.46919 0.0
H3937 H 0.70826 0.91942 0.43667 0.0
H3938 H 0.69233 0.92658 0.46429 0.0
H3939 H 0.67189 0.02087 0.53015 0.0
H3940 H 0.69024 0.99831 0.53386 0.0
H3941 H 0.65414 0.95452 0.49117 0.0
H3942 H 0.63546 0.977 0.48776 0.0
H3943 H 0.69155 0.96109 0.48563 0.0
H3944 H 0.65316 0.947 0.53261 0.0
H3945 H 0.6372 0.95377 0.56022 0.0
H3946 H 0.68799 0.97955 0.59416 0.0
H3947 H 0.70428 0.97322 0.56666 0.0
C3948 C 0.73382 0.89868 0.50639 0.0
C3949 C 0.74983 0.90562 0.51878 0.0
C3950 C 0.72133 0.90973 0.50579 0.0
C3951 C 0.72447 0.92796 0.51762 0.0
C3952 C 0.74024 0.93479 0.53031 0.0
C3953 C 0.75287 0.92381 0.5308 0.0
C3954 C 0.71152 0.94005 0.51627 0.0
C3955 C 0.70267 0.94524 0.53186 0.0
C3956 C 0.70733 0.94576 0.49937 0.0
C3957 C 0.71683 0.94157 0.4827 0.0
C3958 C 0.7358 0.94773 0.48388 0.0
C3959 C 0.74471 0.94355 0.46818 0.0
C3960 C 0.73478 0.93332 0.45119 0.0
C3961 C 0.71592 0.92732 0.44985 0.0
C3962 C 0.70695 0.93145 0.46551 0.0
C3963 C 0.66775 0.00634 0.52175 0.0
C3964 C 0.65226 0.00065 0.50869 0.0
C3965 C 0.67821 0.99345 0.5239 0.0
C3966 C 0.67358 0.97471 0.5128 0.0
C3967 C 0.65796 0.9689 0.49989 0.0
C3968 C 0.64726 0.98169 0.49802 0.0
C3969 C 0.68564 0.96167 0.51408 0.0
C3970 C 0.69436 0.95633 0.49846 0.0
C3971 C 0.68966 0.9558 0.53094 0.0
C3972 C 0.67995 0.95985 0.5475 0.0
C3973 C 0.66094 0.95432 0.5459 0.0
C3974 C 0.65183 0.95803 0.56155 0.0
C3975 C 0.66157 0.96714 0.57892 0.0
C3976 C 0.68046 0.97253 0.58068 0.0
C3977 C 0.68964 0.96888 0.56507 0.0
H3978 H 0.65449 0.96998 0.59102 0.0
H3979 H 0.7417 0.93009 0.43905 0.0
H3980 H 0.38712 0.51485 0.78308 0.0
H3981 H 0.36785 0.48218 0.78322 0.0
H3982 H 0.39174 0.45857 0.73582 0.0
H3983 H 0.41098 0.49083 0.73584 0.0
H3984 H 0.35629 0.44095 0.73161 0.0
H3985 H 0.40526 0.45534 0.78042 0.0
H3986 H 0.42433 0.47408 0.80934 0.0
H3987 H 0.3781 0.46501 0.84005 0.0
H3988 H 0.3587 0.44643 0.81122 0.0
H3989 H 0.34872 0.34634 0.7739 0.0
H3990 H 0.3632 0.37999 0.77296 0.0
H3991 H 0.31352 0.38524 0.74644 0.0
H3992 H 0.29922 0.35124 0.7466 0.0
H3993 H 0.36063 0.41299 0.78815 0.0
H3994 H 0.31774 0.41944 0.72524 0.0
H3995 H 0.30324 0.40213 0.6937 0.0
H3996 H 0.3426 0.36918 0.6891 0.0
H3997 H 0.35715 0.38613 0.72074 0.0
C3998 C 0.3879 0.50278 0.77238 0.0
C3999 C 0.40052 0.50572 0.75926 0.0
C4000 C 0.37701 0.48395 0.77261 0.0
C4001 C 0.37826 0.46751 0.75961 0.0
C4002 C 0.39028 0.47071 0.74603 0.0
C4003 C 0.40131 0.48933 0.74601 0.0
C4004 C 0.36776 0.44695 0.76028 0.0
C4005 C 0.35714 0.43499 0.7441 0.0
C4006 C 0.36888 0.4386 0.7763 0.0
C4007 C 0.3805 0.44971 0.79363 0.0
C4008 C 0.39914 0.45749 0.79331 0.0
C4009 C 0.41001 0.46805 0.80969 0.0
C4010 C 0.40242 0.47079 0.82652 0.0
C4011 C 0.38395 0.46291 0.827 0.0
C4012 C 0.37301 0.45236 0.81065 0.0
C4013 C 0.34079 0.3545 0.7677 0.0
C4014 C 0.32255 0.34567 0.76042 0.0
C4015 C 0.34917 0.37402 0.76725 0.0
C4016 C 0.33977 0.38568 0.75948 0.0
C4017 C 0.32152 0.37688 0.75218 0.0
C4018 C 0.31314 0.35726 0.75251 0.0
C4019 C 0.349 0.40689 0.75943 0.0
C4020 C 0.35948 0.41898 0.77573 0.0
C4021 C 0.34796 0.41535 0.74345 0.0
C4022 C 0.33841 0.40391 0.7253 0.0
C4023 C 0.32317 0.40837 0.71752 0.0
C4024 C 0.31497 0.39865 0.69966 0.0
C4025 C 0.32208 0.38467 0.68937 0.0
C4026 C 0.33713 0.38003 0.6971 0.0
C4027 C 0.34528 0.38957 0.71504 0.0
H4028 H 0.31592 0.37746 0.67539 0.0
H4029 H 0.41086 0.47896 0.83919 0.0
H4030 H 0.22009 0.58986 0.19633 0.0
H4031 H 0.24221 0.62143 0.20277 0.0
H4032 H 0.25526 0.61415 0.25883 0.0
H4033 H 0.23443 0.58198 0.25175 0.0
H4034 H 0.22923 0.6432 0.22626 0.0
H4035 H 0.28753 0.65272 0.2839 0.0
H4036 H 0.31154 0.63726 0.29118 0.0
H4037 H 0.31155 0.61501 0.23272 0.0
H4038 H 0.28771 0.63055 0.22505 0.0
H4039 H 0.24356 0.73797 0.27498 0.0
H4040 H 0.23813 0.70302 0.26885 0.0
H4041 H 0.29315 0.70888 0.25585 0.0
H4042 H 0.29948 0.7436 0.26678 0.0
H4043 H 0.28615 0.67972 0.2658 0.0
H4044 H 0.24427 0.69653 0.21893 0.0
H4045 H 0.21927 0.7107 0.21118 0.0
H4046 H 0.18595 0.67734 0.24506 0.0
H4047 H 0.21087 0.6633 0.25304 0.0
C4048 C 0.22863 0.59452 0.20953 0.0
C4049 C 0.22551 0.58385 0.22366 0.0
C4050 C 0.24124 0.61254 0.21326 0.0
C4051 C 0.25 0.6204 0.23146 0.0
C4052 C 0.24878 0.60847 0.24467 0.0
C4053 C 0.23674 0.59007 0.24065 0.0
C4054 C 0.25517 0.64168 0.23797 0.0
C4055 C 0.24196 0.65126 0.23446 0.0
C4056 C 0.27129 0.65206 0.24948 0.0
C4057 C 0.28571 0.64271 0.25391 0.0
C4058 C 0.2927 0.64461 0.27258 0.0
C4059 C 0.30628 0.63581 0.27678 0.0
C4060 C 0.31303 0.62512 0.26242 0.0
C4061 C 0.30625 0.62324 0.24383 0.0
C4062 C 0.29268 0.63201 0.23955 0.0
C4063 C 0.25448 0.73172 0.27083 0.0
C4064 C 0.27168 0.74357 0.26979 0.0
C4065 C 0.25125 0.71162 0.26687 0.0
C4066 C 0.2647 0.70293 0.26023 0.0
C4067 C 0.2822 0.71489 0.26036 0.0
C4068 C 0.28577 0.73492 0.26599 0.0
C4069 C 0.26072 0.68163 0.25295 0.0
C4070 C 0.2738 0.67186 0.25688 0.0
C4071 C 0.24445 0.6709 0.24165 0.0
C4072 C 0.22954 0.67934 0.23685 0.0
C4073 C 0.2317 0.69255 0.22486 0.0
C4074 C 0.21754 0.70046 0.2204 0.0
C4075 C 0.20109 0.69505 0.22775 0.0
C4076 C 0.19872 0.68161 0.23945 0.0
C4077 C 0.21285 0.67366 0.24391 0.0
H4078 H 0.19015 0.70119 0.22429 0.0
H4079 H 0.32354 0.61833 0.2657 0.0
H4080 H 0.54505 0.72691 0.45101 0.0
H4081 H 0.55321 0.70058 0.46319 0.0
H4082 H 0.49662 0.6721 0.46224 0.0
H4083 H 0.48866 0.6993 0.45175 0.0
H4084 H 0.51046 0.6649 0.48964 0.0
H4085 H 0.5291 0.6588 0.4279 0.0
H4086 H 0.54534 0.66941 0.40197 0.0
H4087 H 0.5961 0.6813 0.4357 0.0
H4088 H 0.58014 0.67095 0.4619 0.0
H4089 H 0.54846 0.57285 0.46606 0.0
H4090 H 0.54388 0.60284 0.45917 0.0
H4091 H 0.53956 0.6228 0.51757 0.0
H4092 H 0.5418 0.5914 0.52389 0.0
H4093 H 0.55801 0.63624 0.46367 0.0
H4094 H 0.51929 0.65949 0.52471 0.0
H4095 H 0.49951 0.6451 0.54665 0.0
H4096 H 0.48179 0.59155 0.50655 0.0
H4097 H 0.50112 0.60574 0.48422 0.0
C4098 C 0.53438 0.71497 0.45334 0.0
C4099 C 0.51619 0.71519 0.45022 0.0
C4100 C 0.53904 0.69972 0.46022 0.0
C4101 C 0.52562 0.68372 0.46337 0.0
C4102 C 0.50742 0.68403 0.46013 0.0
C4103 C 0.50281 0.6996 0.45393 0.0
C4104 C 0.53033 0.66674 0.47 0.0
C4105 C 0.52081 0.65863 0.48379 0.0
C4106 C 0.54378 0.65813 0.46262 0.0
C4107 C 0.55342 0.66431 0.44691 0.0
C4108 C 0.54372 0.66378 0.42981 0.0
C4109 C 0.55287 0.66974 0.41507 0.0
C4110 C 0.57174 0.67608 0.4172 0.0
C4111 C 0.58149 0.67642 0.43407 0.0
C4112 C 0.5724 0.6705 0.44887 0.0
C4113 C 0.54655 0.58366 0.47747 0.0
C4114 C 0.54596 0.57982 0.49562 0.0
C4115 C 0.54402 0.60103 0.47354 0.0
C4116 C 0.54107 0.6155 0.48767 0.0
C4117 C 0.54113 0.61194 0.50607 0.0
C4118 C 0.54292 0.59408 0.50987 0.0
C4119 C 0.53755 0.63375 0.48267 0.0
C4120 C 0.54751 0.64234 0.46939 0.0
C4121 C 0.52387 0.64216 0.48983 0.0
C4122 C 0.5118 0.63362 0.5029 0.0
C4123 C 0.51107 0.64468 0.52054 0.0
C4124 C 0.49992 0.63656 0.53303 0.0
C4125 C 0.48939 0.61741 0.52799 0.0
C4126 C 0.4899 0.60638 0.51041 0.0
C4127 C 0.50093 0.61446 0.49782 0.0
H4128 H 0.48083 0.61111 0.53771 0.0
H4129 H 0.5788 0.68069 0.40578 0.0
H4130 H 0.65425 0.31472 0.6216 0.0
H4131 H 0.678 0.31234 0.64398 0.0
H4132 H 0.64406 0.31806 0.68823 0.0
H4133 H 0.61969 0.31991 0.66563 0.0
H4134 H 0.68744 0.34275 0.69231 0.0
H4135 H 0.64411 0.27898 0.68081 0.0
H4136 H 0.62425 0.24991 0.66 0.0
H4137 H 0.66967 0.23954 0.63243 0.0
H4138 H 0.68976 0.26876 0.65289 0.0
H4139 H 0.74261 0.31805 0.75999 0.0
H4140 H 0.71721 0.32166 0.74091 0.0
H4141 H 0.73211 0.28783 0.69272 0.0
H4142 H 0.75717 0.28335 0.71212 0.0
H4143 H 0.69728 0.27772 0.69133 0.0
H4144 H 0.74074 0.33871 0.70055 0.0
H4145 H 0.76264 0.36799 0.71878 0.0
H4146 H 0.72005 0.38467 0.74732 0.0
H4147 H 0.6979 0.35532 0.72941 0.0
C4148 C 0.65175 0.31569 0.63611 0.0
C4149 C 0.63491 0.31756 0.64173 0.0
C4150 C 0.66543 0.31429 0.64891 0.0
C4151 C 0.66288 0.31502 0.66779 0.0
C4152 C 0.64637 0.31751 0.67371 0.0
C4153 C 0.63243 0.31854 0.66077 0.0
C4154 C 0.67731 0.31226 0.6809 0.0
C4155 C 0.68938 0.32851 0.69244 0.0
C4156 C 0.68041 0.2938 0.68043 0.0
C4157 C 0.66838 0.27617 0.66823 0.0
C4158 C 0.64983 0.27062 0.67017 0.0
C4159 C 0.63853 0.25409 0.65848 0.0
C4160 C 0.64568 0.24291 0.64486 0.0
C4161 C 0.66415 0.24822 0.64296 0.0
C4162 C 0.67549 0.26476 0.65461 0.0
C4163 C 0.74046 0.31107 0.7455 0.0
C4164 C 0.75208 0.30024 0.73789 0.0
C4165 C 0.72593 0.3134 0.7344 0.0
C4166 C 0.7227 0.30527 0.71517 0.0
C4167 C 0.73418 0.29431 0.70748 0.0
C4168 C 0.74866 0.29186 0.71865 0.0
C4169 C 0.7074 0.3082 0.70316 0.0
C4170 C 0.69528 0.29199 0.69156 0.0
C4171 C 0.70452 0.32678 0.7033 0.0
C4172 C 0.71769 0.34471 0.71376 0.0
C4173 C 0.73605 0.34857 0.71078 0.0
C4174 C 0.74851 0.36518 0.72106 0.0
C4175 C 0.74275 0.37814 0.73426 0.0
C4176 C 0.72449 0.37458 0.73712 0.0
C4177 C 0.71197 0.35798 0.72688 0.0
H4178 H 0.75243 0.39096 0.74225 0.0
H4179 H 0.63692 0.23012 0.63582 0.0
H4180 H 0.02849 0.32733 0.92748 0.0
H4181 H 0.03285 0.36221 0.93734 0.0
H4182 H 0.02492 0.355 0.9938 0.0
H4183 H 0.01941 0.31997 0.98363 0.0
H4184 H 0.00755 0.37755 0.98793 0.0
H4185 H 0.06799 0.37946 0.97861 0.0
H4186 H 0.09396 0.37265 0.96311 0.0
H4187 H 0.08092 0.39981 0.91855 0.0
H4188 H 0.05475 0.40663 0.9337 0.0
H4189 H 0.03385 0.48248 0.01979 0.0
H4190 H 0.03 0.44746 0.01457 0.0
H4191 H 0.02796 0.44488 0.95511 0.0
H4192 H 0.03209 0.4799 0.96035 0.0
H4193 H 0.05251 0.428 0.96586 0.0
H4194 H 0.98599 0.41656 0.97676 0.0
H4195 H 0.96076 0.41928 0.99559 0.0
H4196 H 0.99103 0.41143 0.04355 0.0
H4197 H 0.01609 0.4079 0.02479 0.0
C4198 C 0.02803 0.33322 0.94207 0.0
C4199 C 0.02364 0.3208 0.95475 0.0
C4200 C 0.03061 0.3533 0.94778 0.0
C4201 C 0.02942 0.36162 0.96646 0.0
C4202 C 0.02581 0.3492 0.97929 0.0
C4203 C 0.02279 0.32909 0.97348 0.0
C4204 C 0.03058 0.38288 0.9723 0.0
C4205 C 0.01765 0.38851 0.98328 0.0
C4206 C 0.04367 0.39757 0.96649 0.0
C4207 C 0.05929 0.39338 0.95721 0.0
C4208 C 0.07057 0.38384 0.96543 0.0
C4209 C 0.08535 0.38001 0.95672 0.0
C4210 C 0.08905 0.38574 0.93982 0.0
C4211 C 0.07802 0.39536 0.93163 0.0
C4212 C 0.06322 0.39924 0.94028 0.0
C4213 C 0.032 0.47441 0.00558 0.0
C4214 C 0.03322 0.48408 0.99047 0.0
C4215 C 0.02979 0.45425 0.00257 0.0
C4216 C 0.02869 0.44328 0.98438 0.0
C4217 C 0.02888 0.45286 0.96929 0.0
C4218 C 0.03113 0.47292 0.97229 0.0
C4219 C 0.02917 0.42242 0.98094 0.0
C4220 C 0.04251 0.41692 0.97048 0.0
C4221 C 0.01699 0.40796 0.98788 0.0
C4222 C 0.00291 0.41224 -0.0005 0.0
C4223 C 0.98731 0.41568 0.99138 0.0
C4224 C 0.97299 0.41716 0.00198 0.0
C4225 C 0.97433 0.41559 0.02075 0.0
C4226 C 0.99001 0.41263 0.02901 0.0
C4227 C 0.0042 0.41076 0.01839 0.0
H4228 H 0.96319 0.41662 0.0289 0.0
H4229 H 0.1005 0.38275 0.9331 0.0
H4230 H 0.0516 0.81644 0.18132 0.0
H4231 H 0.02306 0.81199 0.19506 0.0
H4232 H 0.99369 0.79725 0.14008 0.0
H4233 H 0.02237 0.8017 0.12611 0.0
H4234 H 0.97895 0.82138 0.16536 0.0
H4235 H 0.99457 0.76187 0.16199 0.0
H4236 H 0.01418 0.74034 0.16572 0.0
H4237 H 0.02082 0.7605 0.22523 0.0
H4238 H 0.00144 0.78238 0.22183 0.0
H4239 H 0.89611 0.78235 0.20625 0.0
H4240 H 0.92084 0.7876 0.18627 0.0
H4241 H 0.95983 0.80306 0.23509 0.0
H4242 H 0.93544 0.79814 0.25492 0.0
H4243 H 0.9672 0.77565 0.20874 0.0
H4244 H 0.95183 0.83663 0.21076 0.0
H4245 H 0.93122 0.85685 0.20582 0.0
H4246 H 0.92257 0.83191 0.14712 0.0
H4247 H 0.94292 0.81131 0.15177 0.0
C4248 C 0.03912 0.81229 0.17207 0.0
C4249 C 0.0394 0.80932 0.15255 0.0
C4250 C 0.02274 0.80971 0.17998 0.0
C4251 C 0.00611 0.80412 0.16865 0.0
C4252 C 0.00629 0.80157 0.14916 0.0
C4253 C 0.02273 0.80402 0.14119 0.0
C4254 C 0.98872 0.80038 0.17736 0.0
C4255 C 0.97624 0.81116 0.17462 0.0
C4256 C 0.98504 0.78706 0.18947 0.0
C4257 C 0.99668 0.77389 0.19163 0.0
C4258 C 0.00033 0.76183 0.17586 0.0
C4259 C 0.01138 0.74954 0.17792 0.0
C4260 C 0.01878 0.74908 0.1957 0.0
C4261 C 0.01509 0.76088 0.21146 0.0
C4262 C 0.00406 0.77322 0.20948 0.0
C4263 C 0.90995 0.78723 0.21272 0.0
C4264 C 0.91373 0.78954 0.23222 0.0
C4265 C 0.92411 0.79017 0.20128 0.0
C4266 C 0.94231 0.79556 0.20911 0.0
C4267 C 0.94599 0.79867 0.22861 0.0
C4268 C 0.93196 0.79581 0.23997 0.0
C4269 C 0.9577 0.79713 0.1973 0.0
C4270 C 0.96981 0.7858 0.1994 0.0
C4271 C 0.96084 0.80976 0.18447 0.0
C4272 C 0.94874 0.82226 0.18166 0.0
C4273 C 0.94542 0.83534 0.19683 0.0
C4274 C 0.9338 0.84689 0.19407 0.0
C4275 C 0.92555 0.84562 0.17617 0.0
C4276 C 0.92895 0.83285 0.16098 0.0
C4277 C 0.94052 0.82124 0.16367 0.0
H4278 H 0.91656 0.85458 0.17407 0.0
H4279 H 0.02733 0.73955 0.19727 0.0
H4280 H 0.52856 0.31098 0.12588 0.0
H4281 H 0.53554 0.3343 0.10556 0.0
H4282 H 0.47921 0.31997 0.08426 0.0
H4283 H 0.47207 0.29623 0.10446 0.0
H4284 H 0.50088 0.32268 0.05635 0.0
H4285 H 0.49703 0.36337 0.11441 0.0
H4286 H 0.50308 0.37471 0.14861 0.0
H4287 H 0.56013 0.39029 0.14436 0.0
H4288 H 0.5544 0.37945 0.11007 0.0
H4289 H 0.51081 0.41036 0.01967 0.0
H4290 H 0.50192 0.38723 0.04026 0.0
H4291 H 0.55701 0.38381 0.04824 0.0
H4292 H 0.56588 0.40654 0.02722 0.0
H4293 H 0.53462 0.39087 0.083 0.0
H4294 H 0.53718 0.34878 0.02398 0.0
H4295 H 0.52979 0.33734 0.98991 0.0
H4296 H 0.47313 0.32395 -0.00356 0.0
H4297 H 0.48023 0.33562 0.03056 0.0
C4298 C 0.51761 0.31275 0.11691 0.0
C4299 C 0.49973 0.3018 0.11687 0.0
C4300 C 0.52163 0.32617 0.10535 0.0
C4301 C 0.50786 0.32909 0.09361 0.0
C4302 C 0.49002 0.31799 0.09329 0.0
C4303 C 0.48597 0.30448 0.10486 0.0
C4304 C 0.51228 0.34366 0.08164 0.0
C4305 C 0.50801 0.33764 0.06222 0.0
C4306 C 0.52175 0.36314 0.08925 0.0
C4307 C 0.52529 0.37057 0.10972 0.0
C4308 C 0.51086 0.36933 0.12078 0.0
C4309 C 0.51423 0.37574 0.14016 0.0
C4310 C 0.53199 0.38336 0.14864 0.0
C4311 C 0.54639 0.38466 0.13774 0.0
C4312 C 0.54309 0.37848 0.11832 0.0
C4313 C 0.52097 0.40456 0.02576 0.0
C4314 C 0.53897 0.41 0.02177 0.0
C4315 C 0.51591 0.39146 0.03751 0.0
C4316 C 0.52885 0.38392 0.04571 0.0
C4317 C 0.54689 0.38955 0.04201 0.0
C4318 C 0.55189 0.40234 0.02993 0.0
C4319 C 0.52339 0.36976 0.0578 0.0
C4320 C 0.52742 0.37591 0.07721 0.0
C4321 C 0.51352 0.35046 0.0502 0.0
C4322 C 0.50922 0.34328 0.02976 0.0
C4323 C 0.52315 0.34358 0.01812 0.0
C4324 C 0.51902 0.33702 -0.00119 0.0
C4325 C 0.501 0.32998 0.991 0.0
C4326 C 0.48708 0.32944 0.0025 0.0
C4327 C 0.49115 0.33601 0.02183 0.0
H4328 H 0.49782 0.3249 0.97605 0.0
H4329 H 0.53459 0.38818 0.16366 0.0
H4330 H 0.04362 0.29876 0.34541 0.0
H4331 H 0.01744 0.30144 0.32624 0.0
H4332 H 0.01133 0.34784 0.36915 0.0
H4333 H 0.03697 0.34482 0.38853 0.0
H4334 H 0.9801 0.32283 0.35765 0.0
H4335 H 0.03015 0.35516 0.32731 0.0
H4336 H 0.05746 0.35714 0.31088 0.0
H4337 H 0.028 0.31006 0.26715 0.0
H4338 H 0.00057 0.30764 0.28343 0.0
H4339 H 0.92567 0.36979 0.31417 0.0
H4340 H 0.95311 0.36327 0.32722 0.0
H4341 H 0.94437 0.31195 0.28415 0.0
H4342 H 0.91684 0.31839 0.27102 0.0
H4343 H 0.98172 0.33499 0.29309 0.0
H4344 H 0.93151 0.30387 0.32207 0.0
H4345 H 0.90397 0.30149 0.33811 0.0
H4346 H 0.9337 0.34559 0.38422 0.0
H4347 H 0.96137 0.34845 0.36831 0.0
C4348 C 0.03666 0.30952 0.35072 0.0
C4349 C 0.04225 0.3215 0.36851 0.0
C4350 C 0.0218 0.31111 0.33972 0.0
C4351 C 0.01254 0.32495 0.34622 0.0
C4352 C 0.01823 0.337 0.3639 0.0
C4353 C 0.03289 0.33525 0.37496 0.0
C4354 C 0.99652 0.32668 0.33506 0.0
C4355 C 0.98055 0.32569 0.34361 0.0
C4356 C 0.99688 0.32962 0.31645 0.0
C4357 C 0.01337 0.33108 0.30669 0.0
C4358 C 0.02954 0.34513 0.31427 0.0
C4359 C 0.04503 0.34635 0.30497 0.0
C4360 C 0.04448 0.3337 0.28801 0.0
C4361 C 0.02842 0.31983 0.2803 0.0
C4362 C 0.0129 0.31853 0.28955 0.0
C4363 C 0.92985 0.35739 0.30724 0.0
C4364 C 0.91919 0.34456 0.29165 0.0
C4365 C 0.94541 0.35362 0.31475 0.0
C4366 C 0.95057 0.33705 0.3067 0.0
C4367 C 0.94053 0.32479 0.29051 0.0
C4368 C 0.92484 0.32844 0.2831 0.0
C4369 C 0.96572 0.33193 0.31606 0.0
C4370 C 0.98136 0.33207 0.30711 0.0
C4371 C 0.96511 0.32815 0.33431 0.0
C4372 C 0.94847 0.32652 0.3439 0.0
C4373 C 0.93214 0.3132 0.33554 0.0
C4374 C 0.91651 0.31173 0.34463 0.0
C4375 C 0.91707 0.32342 0.36215 0.0
C4376 C 0.93328 0.33657 0.37064 0.0
C4377 C 0.94894 0.33811 0.36159 0.0
H4378 H 0.90496 0.32225 0.36917 0.0
H4379 H 0.05648 0.33467 0.28083 0.0
H4380 H 0.02419 0.71951 0.62786 0.0
H4381 H 0.02827 0.6947 0.60282 0.0
H4382 H 0.97028 0.67351 0.5893 0.0
H4383 H 0.9663 0.69759 0.61589 0.0
H4384 H 0.98159 0.64474 0.58655 0.0
H4385 H -4e-05 0.69828 0.55952 0.0
H4386 H 0.01439 0.73164 0.55634 0.0
H4387 H 0.06684 0.72223 0.56632 0.0
H4388 H 0.05275 0.68889 0.56985 0.0
H4389 H 0.00855 0.58474 0.51018 0.0
H4390 H 7e-05 0.61357 0.52442 0.0
H4391 H 0.04144 0.62407 0.57042 0.0
H4392 H 0.05005 0.59484 0.55631 0.0
H4393 H 0.03343 0.65832 0.54918 0.0
H4394 H 0.00684 0.60161 0.57871 0.0
H4395 H 0.98794 0.56784 0.57314 0.0
H4396 H 0.944 0.5846 0.54793 0.0
H4397 H 0.96279 0.61828 0.55263 0.0
C4398 C 0.01235 0.70966 0.61937 0.0
C4399 C 0.99497 0.71039 0.62349 0.0
C4400 C 0.01465 0.69561 0.60491 0.0
C4401 C -0.0004 0.68256 0.59367 0.0
C4402 C 0.98211 0.6835 0.59766 0.0
C4403 C 0.97981 0.69722 0.61271 0.0
C4404 C 0.00251 0.66713 0.57893 0.0
C4405 C 0.99271 0.64789 0.57817 0.0
C4406 C 0.01658 0.67103 0.56734 0.0
C4407 C 0.02526 0.69104 0.565 0.0
C4408 C 0.01458 0.70333 0.56112 0.0
C4409 C 0.0227 0.72225 0.55926 0.0
C4410 C 0.04152 0.72905 0.56114 0.0
C4411 C 0.05226 0.71692 0.56484 0.0
C4412 C 0.04421 0.69799 0.56674 0.0
C4413 C 0.01606 0.5932 0.52321 0.0
C4414 C 0.02983 0.58734 0.53228 0.0
C4415 C 0.0112 0.60973 0.53124 0.0
C4416 C 0.02017 0.62076 0.54834 0.0
C4417 C 0.03449 0.61561 0.55709 0.0
C4418 C 0.03924 0.59886 0.54915 0.0
C4419 C 0.01332 0.63646 0.55807 0.0
C4420 C 0.02223 0.65556 0.55755 0.0
C4421 C 0.99776 0.63248 0.56751 0.0
C4422 C 0.98629 0.61244 0.56586 0.0
C4423 C 0.99323 0.59807 0.57179 0.0
C4424 C 0.98259 0.57894 0.5687 0.0
C4425 C 0.96487 0.57412 0.56013 0.0
C4426 C 0.95775 0.58837 0.55454 0.0
C4427 C 0.9684 0.60746 0.55737 0.0
H4428 H 0.95658 0.55941 0.55808 0.0
H4429 H 0.04778 0.74371 0.55971 0.0
H4430 H 0.63842 0.85388 0.84371 0.0
H4431 H 0.6616 0.84761 0.82347 0.0
H4432 H 0.6482 0.78811 0.82986 0.0
H4433 H 0.6252 0.79407 0.84981 0.0
H4434 H 0.68627 0.81324 0.84196 0.0
H4435 H 0.63587 0.79585 0.79074 0.0
H4436 H 0.6134 0.80518 0.77133 0.0
H4437 H 0.6557 0.84835 0.75558 0.0
H4438 H 0.67838 0.83945 0.77511 0.0
H4439 H 0.73687 0.75968 0.79663 0.0
H4440 H 0.70942 0.76881 0.80516 0.0
H4441 H 0.72036 0.81316 0.77209 0.0
H4442 H 0.74673 0.80257 0.76206 0.0
H4443 H 0.68625 0.80305 0.77304 0.0
H4444 H 0.7364 0.82274 0.81902 0.0
H4445 H 0.76204 0.81894 0.8386 0.0
H4446 H 0.72531 0.78098 0.86606 0.0
H4447 H 0.69945 0.78426 0.84639 0.0
C4448 C 0.64021 0.83939 0.84048 0.0
C4449 C 0.63021 0.82452 0.84856 0.0
C4450 C 0.65339 0.83586 0.82893 0.0
C4451 C 0.65653 0.81744 0.82535 0.0
C4452 C 0.64591 0.80242 0.83258 0.0
C4453 C 0.63283 0.80589 0.84402 0.0
C4454 C 0.67207 0.81391 0.81591 0.0
C4455 C 0.6863 0.81094 0.82689 0.0
C4456 C 0.67249 0.8121 0.79643 0.0
C4457 C 0.65878 0.81712 0.78454 0.0
C4458 C 0.64036 0.80744 0.78327 0.0
C4459 C 0.62759 0.81263 0.77221 0.0
C4460 C 0.63311 0.82739 0.76227 0.0
C4461 C 0.65143 0.83694 0.76331 0.0
C4462 C 0.66424 0.83182 0.77435 0.0
C4463 C 0.73288 0.77078 0.79061 0.0
C4464 C 0.74349 0.78023 0.77851 0.0
C4465 C 0.71739 0.77616 0.7956 0.0
C4466 C 0.71324 0.79214 0.78977 0.0
C4467 C 0.72333 0.80087 0.77681 0.0
C4468 C 0.73837 0.79487 0.77114 0.0
C4469 C 0.69991 0.80108 0.79901 0.0
C4470 C 0.68635 0.80544 0.78812 0.0
C4471 C 0.70052 0.80512 0.81875 0.0
C4472 C 0.71598 0.80368 0.83116 0.0
C4473 C 0.73379 0.81356 0.82922 0.0
C4474 C 0.74836 0.81147 0.84031 0.0
C4475 C 0.74531 0.79971 0.85355 0.0
C4476 C 0.72765 0.79008 0.85579 0.0
C4477 C 0.71303 0.79207 0.84469 0.0
H4478 H 0.75661 0.79806 0.86209 0.0
H4479 H 0.62321 0.83139 0.75374 0.0
H4480 H 0.49436 0.56406 0.72465 0.0
H4481 H 0.50606 0.56225 0.69431 0.0
H4482 H 0.45413 0.56175 0.66836 0.0
H4483 H 0.44227 0.56374 0.69917 0.0
H4484 H 0.46761 0.53481 0.64626 0.0
H4485 H 0.49238 0.60174 0.67309 0.0
H4486 H 0.5088 0.63021 0.69699 0.0
H4487 H 0.557 0.61049 0.69442 0.0
H4488 H 0.54079 0.58174 0.67067 0.0
H4489 H 0.50127 0.54069 0.55699 0.0
H4490 H 0.48797 0.54579 0.58639 0.0
H4491 H 0.54012 0.55553 0.61713 0.0
H4492 H 0.55355 0.55092 0.58762 0.0
H4493 H 0.52534 0.57869 0.63646 0.0
H4494 H 0.50043 0.51101 0.61084 0.0
H4495 H 0.48424 0.48257 0.58674 0.0
H4496 H 0.43658 0.50333 0.58719 0.0
H4497 H 0.45257 0.53207 0.61107 0.0
C4498 C 0.48536 0.56399 0.71264 0.0
C4499 C 0.46727 0.56445 0.71493 0.0
C4500 C 0.49219 0.5629 0.695 0.0
C4501 C 0.48129 0.56193 0.67842 0.0
C4502 C 0.46315 0.56249 0.68058 0.0
C4503 C 0.45633 0.56391 0.69844 0.0
C4504 C 0.48889 0.55994 0.65921 0.0
C4505 C 0.48009 0.54469 0.64416 0.0
C4506 C 0.50552 0.57225 0.65592 0.0
C4507 C 0.51531 0.58948 0.67023 0.0
C4508 C 0.50644 0.60338 0.67773 0.0
C4509 C 0.51572 0.61959 0.69123 0.0
C4510 C 0.53392 0.62213 0.69726 0.0
C4511 C 0.54289 0.60849 0.68976 0.0
C4512 C 0.53367 0.59224 0.67627 0.0
C4513 C 0.51004 0.54385 0.56994 0.0
C4514 C 0.52873 0.54536 0.5694 0.0
C4515 C 0.50226 0.54668 0.58707 0.0
C4516 C 0.51265 0.55077 0.60471 0.0
C4517 C 0.5314 0.55244 0.60416 0.0
C4518 C 0.53921 0.54978 0.587 0.0
C4519 C 0.50418 0.55342 0.62346 0.0
C4520 C 0.51284 0.5688 0.63849 0.0
C4521 C 0.48747 0.54116 0.62675 0.0
C4522 C 0.47775 0.52377 0.61262 0.0
C4523 C 0.48652 0.50955 0.60573 0.0
C4524 C 0.47738 0.49338 0.59212 0.0
C4525 C 0.4594 0.49115 0.58543 0.0
C4526 C 0.45051 0.50508 0.59237 0.0
C4527 C 0.4596 0.52131 0.60595 0.0
H4528 H 0.45235 0.47863 0.57488 0.0
H4529 H 0.54108 0.63469 0.70771 0.0
H4530 H 0.77444 0.19144 0.98892 0.0
H4531 H 0.77462 0.21037 0.96461 0.0
H4532 H 0.80434 0.17556 0.93217 0.0
H4533 H 0.80472 0.15687 0.95698 0.0
H4534 H 0.81541 0.21344 0.92967 0.0
H4535 H 0.75843 0.16522 0.92397 0.0
H4536 H 0.73067 0.14799 0.93539 0.0
H4537 H 0.71444 0.20085 0.94779 0.0
H4538 H 0.74225 0.21846 0.93673 0.0
H4539 H 0.77119 0.22141 0.83912 0.0
H4540 H 0.78372 0.20997 0.86535 0.0
H4541 H 0.77462 0.25801 0.90396 0.0
H4542 H 0.76267 0.26981 0.87778 0.0
H4543 H 0.75467 0.2142 0.90319 0.0
H4544 H 0.81062 0.2622 0.90754 0.0
H4545 H 0.83958 0.2806 0.8995 0.0
H4546 H 0.85857 0.22931 0.89128 0.0
H4547 H 0.82938 0.21035 0.89846 0.0
C4548 C 0.78117 0.18795 0.97669 0.0
C4549 C 0.78931 0.17255 0.97457 0.0
C4550 C 0.78126 0.19875 0.96283 0.0
C4551 C 0.78906 0.19399 0.94642 0.0
C4552 C 0.79813 0.17932 0.94472 0.0
C4553 C 0.79833 0.16867 0.95882 0.0
C4554 C 0.78675 0.20361 0.93068 0.0
C4555 C 0.80216 0.21338 0.92359 0.0
C4556 C 0.76939 0.20385 0.92324 0.0
C4557 C 0.75251 0.19319 0.92966 0.0
C4558 C 0.749 0.17319 0.92924 0.0
C4559 C 0.73325 0.16336 0.93564 0.0
C4560 C 0.72082 0.17333 0.94235 0.0
C4561 C 0.72409 0.19315 0.94261 0.0
C4562 C 0.73984 0.20306 0.93626 0.0
C4563 C 0.77232 0.22971 0.8532 0.0
C4564 C 0.76593 0.24634 0.85663 0.0
C4565 C 0.77961 0.22333 0.86807 0.0
C4566 C 0.7803 0.23337 0.88645 0.0
C4567 C 0.77451 0.25037 0.88979 0.0
C4568 C 0.7676 0.25698 0.87492 0.0
C4569 C 0.78336 0.22404 0.90211 0.0
C4570 C 0.76796 0.21418 0.90913 0.0
C4571 C 0.80073 0.22376 0.90939 0.0
C4572 C 0.8176 0.23473 0.90323 0.0
C4573 C 0.82072 0.25467 0.90349 0.0
C4574 C 0.83727 0.26526 0.89924 0.0
C4575 C 0.85095 0.25616 0.89501 0.0
C4576 C 0.848 0.23638 0.89472 0.0
C4577 C 0.8314 0.22567 0.89871 0.0
H4578 H 0.86379 0.26441 0.89182 0.0
H4579 H 0.70864 0.16569 0.94731 0.0
H4580 H 0.11638 0.52822 0.20577 0.0
H4581 H 0.0945 0.51634 0.17796 0.0
H4582 H 0.13261 0.49075 0.14881 0.0
H4583 H 0.15439 0.50214 0.17686 0.0
H4584 H 0.10534 0.53275 0.14933 0.0
H4585 H 0.11132 0.45913 0.11036 0.0
H4586 H 0.11396 0.42787 0.11719 0.0
H4587 H 0.08474 0.43594 0.1649 0.0
H4588 H 0.08193 0.46724 0.15832 0.0
H4589 H 0.09158 0.52929 0.05603 0.0
H4590 H 0.10433 0.51936 0.08263 0.0
H4591 H 0.05101 0.48878 0.09213 0.0
H4592 H 0.03802 0.49794 0.06486 0.0
H4593 H 0.08205 0.47191 0.10187 0.0
H4594 H 0.06218 0.53192 0.11256 0.0
H4595 H 0.06145 0.56297 0.10383 0.0
H4596 H 0.11939 0.58221 0.11329 0.0
H4597 H 0.12046 0.55113 0.12174 0.0
C4598 C 0.11984 0.51949 0.19362 0.0
C4599 C 0.13715 0.51643 0.19322 0.0
C4600 C 0.10731 0.51262 0.17781 0.0
C4601 C 0.11202 0.50284 0.16133 0.0
C4602 C 0.12865 0.49809 0.16147 0.0
C4603 C 0.14113 0.50472 0.17744 0.0
C4604 C 0.10161 0.50177 0.1434 0.0
C4605 C 0.09997 0.51935 0.13914 0.0
C4606 C 0.09503 0.4844 0.12994 0.0
C4607 C 0.09647 0.46553 0.13387 0.0
C4608 C 0.10539 0.45418 0.12225 0.0
C4609 C 0.10696 0.43649 0.12611 0.0
C4610 C 0.09954 0.42993 0.14148 0.0
C4611 C 0.09054 0.44107 0.15303 0.0
C4612 C 0.089 0.45881 0.14928 0.0
C4613 C 0.08251 0.52012 0.06346 0.0
C4614 C 0.0637 0.51498 0.05873 0.0
C4615 C 0.08988 0.51428 0.07853 0.0
C4616 C 0.07855 0.50356 0.08935 0.0
C4617 C 0.05992 0.49704 0.08385 0.0
C4618 C 0.05251 0.50263 0.06851 0.0
C4619 C 0.08576 0.5028 0.10816 0.0
C4620 C 0.08703 0.48511 0.11239 0.0
C4621 C 0.09212 0.52009 0.12173 0.0
C4622 C 0.09139 0.5392 0.11773 0.0
C4623 C 0.07475 0.54278 0.11277 0.0
C4624 C 0.07428 0.56037 0.10784 0.0
C4625 C 0.09037 0.57455 0.108 0.0
C4626 C 0.10695 0.57122 0.11318 0.0
C4627 C 0.10749 0.55364 0.11807 0.0
H4628 H 0.08998 0.58813 0.10411 0.0
H4629 H 0.10075 0.41622 0.14443 0.0
H4630 H 0.78098 0.86675 0.46593 0.0
H4631 H 0.77934 0.85641 0.43182 0.0
H4632 H 0.80972 0.81536 0.43943 0.0
H4633 H 0.81131 0.82534 0.47316 0.0
H4634 H 0.82495 0.84057 0.41694 0.0
H4635 H 0.7668 0.79939 0.42353 0.0
H4636 H 0.73576 0.79224 0.43245 0.0
H4637 H 0.7213 0.82747 0.39598 0.0
H4638 H 0.75235 0.83508 0.38704 0.0
H4639 H 0.7972 0.77043 0.32471 0.0
H4640 H 0.80024 0.78439 0.35829 0.0
H4641 H 0.80291 0.84062 0.34574 0.0
H4642 H 0.80045 0.82678 0.31216 0.0
H4643 H 0.77137 0.81101 0.37008 0.0
H4644 H 0.8306 0.8564 0.36773 0.0
H4645 H 0.86256 0.86646 0.36199 0.0
H4646 H 0.87486 0.82461 0.3917 0.0
H4647 H 0.84291 0.81424 0.39748 0.0
C4648 C 0.78697 0.85525 0.46032 0.0
C4649 C 0.79644 0.84704 0.47231 0.0
C4650 C 0.78604 0.84937 0.44083 0.0
C4651 C 0.79457 0.83524 0.43311 0.0
C4652 C 0.80319 0.8264 0.44508 0.0
C4653 C 0.80405 0.83214 0.46441 0.0
C4654 C 0.7959 0.83054 0.41272 0.0
C4655 C 0.8132 0.83405 0.4067 0.0
C4656 C 0.78058 0.82246 0.39933 0.0
C4657 C 0.76197 0.81802 0.40481 0.0
C4658 C 0.75706 0.8058 0.41758 0.0
C4659 C 0.73945 0.80162 0.4226 0.0
C4660 C 0.72658 0.80946 0.41484 0.0
C4661 C 0.73129 0.82145 0.40201 0.0
C4662 C 0.74889 0.8257 0.39696 0.0
C4663 C 0.79914 0.7859 0.32922 0.0
C4664 C 0.79914 0.79767 0.31599 0.0
C4665 C 0.80082 0.79384 0.34834 0.0
C4666 C 0.80209 0.81359 0.3545 0.0
C4667 C 0.80242 0.82546 0.34131 0.0
C4668 C 0.80103 0.81757 0.32217 0.0
C4669 C 0.80043 0.82096 0.37439 0.0
C4670 C 0.78306 0.81778 0.38032 0.0
C4671 C 0.81565 0.82952 0.38775 0.0
C4672 C 0.83431 0.83419 0.38257 0.0
C4673 C 0.84004 0.84903 0.37263 0.0
C4674 C 0.85819 0.85496 0.36959 0.0
C4675 C 0.87072 0.8461 0.37637 0.0
C4676 C 0.86514 0.83139 0.38636 0.0
C4677 C 0.847 0.82546 0.38949 0.0
H4678 H 0.88475 0.85068 0.37396 0.0
H4679 H 0.71295 0.80618 0.41873 0.0
H4680 H 0.44183 0.56157 0.83484 0.0
H4681 H 0.45359 0.55741 0.86544 0.0
H4682 H 0.50722 0.56727 0.84824 0.0
H4683 H 0.49526 0.57038 0.81759 0.0
H4684 H 0.50723 0.54253 0.8661 0.0
H4685 H 0.48847 0.59992 0.88605 0.0
H4686 H 0.46788 0.62118 0.88947 0.0
H4687 H 0.4322 0.5812 0.91595 0.0
H4688 H 0.45249 0.55958 0.9125 0.0
H4689 H 0.55023 0.54491 0.95937 0.0
H4690 H 0.54005 0.55042 0.9287 0.0
H4691 H 0.48533 0.53964 0.94293 0.0
H4692 H 0.49566 0.53512 0.97356 0.0
H4693 H 0.48701 0.56619 0.92668 0.0
H4694 H 0.50493 0.50577 0.89742 0.0
H4695 H 0.52663 0.48599 0.89096 0.0
H4696 H 0.56679 0.53607 0.8836 0.0
H4697 H 0.545 0.55586 0.88893 0.0
C4698 C 0.45623 0.5635 0.83773 0.0
C4699 C 0.46749 0.56695 0.82342 0.0
C4700 C 0.46312 0.561 0.85551 0.0
C4701 C 0.48171 0.56212 0.86008 0.0
C4702 C 0.4929 0.56608 0.84582 0.0
C4703 C 0.48599 0.56823 0.82807 0.0
C4704 C 0.48949 0.5585 0.87896 0.0
C4705 C 0.50277 0.54803 0.87925 0.0
C4706 C 0.48417 0.56517 0.8968 0.0
C4707 C 0.4719 0.57804 0.89882 0.0
C4708 C 0.47617 0.5956 0.89248 0.0
C4709 C 0.46456 0.60772 0.89445 0.0
C4710 C 0.44871 0.60251 0.90287 0.0
C4711 C 0.44446 0.58519 0.9094 0.0
C4712 C 0.45602 0.57301 0.90745 0.0
C4713 C 0.53597 0.5433 0.95584 0.0
C4714 C 0.52388 0.53928 0.96934 0.0
C4715 C 0.52996 0.54641 0.93795 0.0
C4716 C 0.51152 0.54542 0.93254 0.0
C4717 C 0.49957 0.54085 0.94602 0.0
C4718 C 0.50556 0.53801 0.9638 0.0
C4719 C 0.50449 0.5499 0.91375 0.0
C4720 C 0.49136 0.56061 0.91348 0.0
C4721 C 0.51021 0.54383 0.89598 0.0
C4722 C 0.52352 0.5323 0.8939 0.0
C4723 C 0.51845 0.51255 0.89458 0.0
C4724 C 0.5307 0.50134 0.891 0.0
C4725 C 0.54816 0.50984 0.88723 0.0
C4726 C 0.55331 0.52952 0.88666 0.0
C4727 C 0.54097 0.54069 0.88974 0.0
H4728 H 0.55765 0.50114 0.8846 0.0
H4729 H 0.43975 0.61192 0.90438 0.0
H4730 H 0.79678 0.21265 0.05263 0.0
H4731 H 0.80041 0.23244 0.08429 0.0
H4732 H 0.76589 0.18429 0.10271 0.0
H4733 H 0.76249 0.16448 0.07112 0.0
H4734 H 0.75551 0.21864 0.11163 0.0
H4735 H 0.80838 0.1957 0.11696 0.0
H4736 H 0.83718 0.18938 0.10838 0.0
H4737 H 0.86107 0.25043 0.1145 0.0
H4738 H 0.83229 0.2571 0.12287 0.0
H4739 H 0.77414 0.23992 0.20968 0.0
H4740 H 0.77039 0.22717 0.17622 0.0
H4741 H 0.80043 0.28261 0.16698 0.0
H4742 H 0.80361 0.2959 0.20061 0.0
H4743 H 0.81349 0.24874 0.15207 0.0
H4744 H 0.75991 0.27078 0.15107 0.0
H4745 H 0.73119 0.27511 0.16198 0.0
H4746 H 0.70848 0.21349 0.14966 0.0
H4747 H 0.73716 0.20876 0.13894 0.0
C4748 C 0.79037 0.20628 0.06363 0.0
C4749 C 0.7796 0.18714 0.0598 0.0
C4750 C 0.79236 0.21752 0.08158 0.0
C4751 C 0.78338 0.20977 0.09572 0.0
C4752 C 0.77289 0.19047 0.09191 0.0
C4753 C 0.77108 0.17917 0.07403 0.0
C4754 C 0.78428 0.22202 0.11429 0.0
C4755 C 0.76815 0.22515 0.12054 0.0
C4756 C 0.80087 0.23084 0.12559 0.0
C4757 C 0.8181 0.22688 0.12025 0.0
C4758 C 0.8197 0.20777 0.11624 0.0
C4759 C 0.83604 0.20412 0.11147 0.0
C4760 C 0.85093 0.21949 0.11081 0.0
C4761 C 0.84951 0.23854 0.11496 0.0
C4762 C 0.83319 0.24226 0.11972 0.0
C4763 C 0.77979 0.24955 0.20059 0.0
C4764 C 0.7897 0.26879 0.20786 0.0
C4765 C 0.77755 0.24223 0.18146 0.0
C4766 C 0.78523 0.25396 0.16928 0.0
C4767 C 0.79452 0.27338 0.1763 0.0
C4768 C 0.79646 0.28086 0.19549 0.0
C4769 C 0.78471 0.24518 0.14947 0.0
C4770 C 0.8009 0.2426 0.14298 0.0
C4771 C 0.76815 0.23665 0.13807 0.0
C4772 C 0.75076 0.23941 0.1443 0.0
C4773 C 0.74885 0.25814 0.15081 0.0
C4774 C 0.73256 0.26066 0.15694 0.0
C4775 C 0.71803 0.24458 0.15655 0.0
C4776 C 0.71974 0.22593 0.14996 0.0
C4777 C 0.73601 0.22332 0.14382 0.0
H4778 H 0.70543 0.24656 0.16132 0.0
H4779 H 0.86358 0.21664 0.10716 0.0
H4780 H 0.17168 0.58119 0.29478 0.0
H4781 H 0.15843 0.57909 0.32401 0.0
H4782 H 0.15496 0.51797 0.31468 0.0
H4783 H 0.16834 0.51994 0.28539 0.0
H4784 H 0.12215 0.52635 0.31588 0.0
H4785 H 0.17828 0.54537 0.35336 0.0
H4786 H 0.20943 0.56449 0.36515 0.0
H4787 H 0.19047 0.61487 0.38299 0.0
H4788 H 0.15922 0.59614 0.37106 0.0
H4789 H 0.0694 0.52066 0.39157 0.0
H4790 H 0.09373 0.51846 0.37192 0.0
H4791 H 0.10628 0.58021 0.37478 0.0
H4792 H 0.08223 0.58237 0.39513 0.0
H4793 H 0.13689 0.56734 0.3796 0.0
H4794 H 0.08228 0.54979 0.33677 0.0
H4795 H 0.05117 0.53117 0.32407 0.0
H4796 H 0.06789 0.47845 0.31554 0.0
H4797 H 0.09907 0.49675 0.32842 0.0
C4798 C 0.16858 0.56741 0.2992 0.0
C4799 C 0.17065 0.55064 0.28764 0.0
C4800 C 0.16118 0.56628 0.316 0.0
C4801 C 0.15571 0.54837 0.32141 0.0
C4802 C 0.15918 0.53192 0.31069 0.0
C4803 C 0.16676 0.53308 0.29396 0.0
C4804 C 0.14322 0.54631 0.33586 0.0
C4805 C 0.12551 0.53488 0.33001 0.0
C4806 C 0.14757 0.55791 0.35403 0.0
C4807 C 0.16637 0.56934 0.36117 0.0
C4808 C 0.18075 0.56057 0.35964 0.0
C4809 C 0.19843 0.57134 0.36639 0.0
C4810 C 0.20193 0.5909 0.37478 0.0
C4811 C 0.18774 0.59972 0.37648 0.0
C4812 C 0.17003 0.58902 0.36975 0.0
C4813 C 0.07754 0.53369 0.38813 0.0
C4814 C 0.07422 0.55162 0.39491 0.0
C4815 C 0.0913 0.53246 0.37686 0.0
C4816 C 0.10176 0.54919 0.37194 0.0
C4817 C 0.09837 0.56718 0.37856 0.0
C4818 C 0.08459 0.56838 0.38995 0.0
C4819 C 0.11585 0.54777 0.35939 0.0
C4820 C 0.13373 0.55852 0.3656 0.0
C4821 C 0.1117 0.53564 0.34145 0.0
C4822 C 0.09295 0.52461 0.33377 0.0
C4823 C 0.07928 0.53421 0.33235 0.0
C4824 C 0.06165 0.52372 0.32508 0.0
C4825 C 0.05754 0.50363 0.31905 0.0
C4826 C 0.07108 0.494 0.32024 0.0
C4827 C 0.08873 0.50443 0.32752 0.0
H4828 H 0.04389 0.49554 0.31342 0.0
H4829 H 0.21563 0.59921 0.37999 0.0
H4830 H 0.78164 0.87463 0.58567 0.0
H4831 H 0.7742 0.86281 0.61449 0.0
H4832 H 0.78837 0.81 0.59259 0.0
H4833 H 0.79583 0.82165 0.56409 0.0
H4834 H 0.75776 0.80325 0.61106 0.0
H4835 H 0.81872 0.84619 0.62141 0.0
H4836 H 0.84111 0.8774 0.62275 0.0
H4837 H 0.81314 0.90563 0.66335 0.0
H4838 H 0.79046 0.8746 0.66207 0.0
H4839 H 0.77809 0.76449 0.6892 0.0
H4840 H 0.77776 0.77754 0.66066 0.0
H4841 H 0.77386 0.83199 0.69278 0.0
H4842 H 0.77522 0.81928 0.72143 0.0
H4843 H 0.79608 0.83977 0.66964 0.0
H4844 H 0.73686 0.79692 0.66244 0.0
H4845 H 0.71405 0.7661 0.66148 0.0
H4846 H 0.73677 0.73845 0.61551 0.0
H4847 H 0.75988 0.76903 0.61637 0.0
C4848 C 0.78283 0.86037 0.58691 0.0
C4849 C 0.78944 0.84914 0.57266 0.0
C4850 C 0.77868 0.85367 0.6034 0.0
C4851 C 0.7809 0.83557 0.60577 0.0
C4852 C 0.78655 0.82398 0.59112 0.0
C4853 C 0.79089 0.83073 0.57483 0.0
C4854 C 0.77852 0.82898 0.62381 0.0
C4855 C 0.76614 0.8112 0.62389 0.0
C4856 C 0.78914 0.83954 0.64066 0.0
C4857 C 0.8028 0.85814 0.64147 0.0
C4858 C 0.81728 0.85908 0.63051 0.0
C4859 C 0.83003 0.87673 0.63128 0.0
C4860 C 0.82852 0.8935 0.64309 0.0
C4861 C 0.81428 0.89264 0.65419 0.0
C4862 C 0.80148 0.87503 0.65345 0.0
C4863 C 0.77699 0.77917 0.69012 0.0
C4864 C 0.77657 0.79082 0.70753 0.0
C4865 C 0.77671 0.78663 0.67377 0.0
C4866 C 0.77541 0.8057 0.67438 0.0
C4867 C 0.77485 0.81725 0.69181 0.0
C4868 C 0.77556 0.80995 0.70821 0.0
C4869 C 0.77535 0.81384 0.657 0.0
C4870 C 0.78738 0.8319 0.65699 0.0
C4871 C 0.76421 0.80362 0.64027 0.0
C4872 C 0.75019 0.78525 0.63956 0.0
C4873 C 0.73706 0.78424 0.65219 0.0
C4874 C 0.72407 0.76681 0.65166 0.0
C4875 C 0.72398 0.75032 0.63846 0.0
C4876 C 0.73685 0.75124 0.62573 0.0
C4877 C 0.74989 0.76862 0.62622 0.0
H4878 H 0.71392 0.73684 0.63808 0.0
H4879 H 0.8384 0.90715 0.64367 0.0
H4880 H 0.75037 0.43389 0.50678 0.0
H4881 H 0.72602 0.45021 0.50993 0.0
H4882 H 0.76492 0.5055 0.51565 0.0
H4883 H 0.78928 0.48936 0.512 0.0
H4884 H 0.73699 0.49211 0.54703 0.0
H4885 H 0.74536 0.5034 0.48356 0.0
H4886 H 0.74672 0.49221 0.44994 0.0
H4887 H 0.69285 0.4552 0.44485 0.0
H4888 H 0.69131 0.46595 0.47855 0.0
H4889 H 0.68759 0.56096 0.56131 0.0
H4890 H 0.70951 0.54399 0.54922 0.0
H4891 H 0.66607 0.49614 0.51962 0.0
H4892 H 0.644 0.51297 0.5318 0.0
H4893 H 0.69491 0.50375 0.49884 0.0
H4894 H 0.68442 0.49213 0.55958 0.0
H4895 H 0.68122 0.50032 0.59316 0.0
H4896 H 0.73669 0.53364 0.60383 0.0
H4897 H 0.74014 0.52589 0.57022 0.0
C4898 C 0.75369 0.4495 0.50836 0.0
C4899 C 0.77173 0.46037 0.50921 0.0
C4900 C 0.73978 0.45875 0.51007 0.0
C4901 C 0.74375 0.47898 0.51286 0.0
C4902 C 0.76164 0.48984 0.51326 0.0
C4903 C 0.77551 0.48059 0.5112 0.0
C4904 C 0.72958 0.48893 0.51758 0.0
C4905 C 0.72794 0.49493 0.53653 0.0
C4906 C 0.71738 0.49178 0.50381 0.0
C4907 C 0.71834 0.48525 0.48361 0.0
C4908 C 0.73391 0.49267 0.47533 0.0
C4909 C 0.73469 0.48647 0.45624 0.0
C4910 C 0.71991 0.47294 0.44528 0.0
C4911 C 0.70431 0.46563 0.45337 0.0
C4912 C 0.70348 0.47179 0.47246 0.0
C4913 C 0.68269 0.54686 0.55218 0.0
C4914 C 0.66405 0.53823 0.5477 0.0
C4915 C 0.69523 0.53721 0.54522 0.0
C4916 C 0.68939 0.5187 0.53374 0.0
C4917 C 0.67084 0.51042 0.52845 0.0
C4918 C 0.65826 0.52008 0.53541 0.0
C4919 C 0.70268 0.50756 0.52838 0.0
C4920 C 0.70402 0.50109 0.50938 0.0
C4921 C 0.71446 0.50392 0.54212 0.0
C4922 C 0.71248 0.50861 0.56235 0.0
C4923 C 0.69589 0.50135 0.56906 0.0
C4924 C 0.69404 0.50589 0.5881 0.0
C4925 C 0.70873 0.51754 0.60062 0.0
C4926 C 0.72531 0.52464 0.59411 0.0
C4927 C 0.72723 0.52017 0.57507 0.0
H4928 H 0.70727 0.52102 0.61536 0.0
H4929 H 0.72053 0.46817 0.4305 0.0
H4930 H 0.22271 0.1753 0.48982 0.0
H4931 H 0.19506 0.1503 0.48965 0.0
H4932 H 0.22611 0.1109 0.50078 0.0
H4933 H 0.25431 0.13617 0.5011 0.0
H4934 H 0.19219 0.09483 0.4723 0.0
H4935 H 0.21221 0.12904 0.53588 0.0
H4936 H 0.22401 0.15845 0.56041 0.0
H4937 H 0.17745 0.17829 0.54734 0.0
H4938 H 0.16552 0.14914 0.52253 0.0
H4939 H 0.11214 0.03504 0.50047 0.0
H4940 H 0.14305 0.05243 0.49706 0.0
H4941 H 0.12652 0.10537 0.50062 0.0
H4942 H 0.09577 0.08806 0.5041 0.0
H4943 H 0.15572 0.11148 0.52339 0.0
H4944 H 0.13642 0.08014 0.45913 0.0
H4945 H 0.12405 0.05226 0.43312 0.0
H4946 H 0.16803 0.02827 0.44569 0.0
H4947 H 0.18052 0.05589 0.47198 0.0
C4948 C 0.22382 0.16131 0.49209 0.0
C4949 C 0.24082 0.15787 0.49572 0.0
C4950 C 0.20793 0.147 0.49191 0.0
C4951 C 0.20854 0.12883 0.49534 0.0
C4952 C 0.22539 0.12487 0.49809 0.0
C4953 C 0.24146 0.13933 0.49834 0.0
C4954 C 0.19145 0.11491 0.49753 0.0
C4955 C 0.18433 0.09816 0.48367 0.0
C4956 C 0.18106 0.11958 0.51211 0.0
C4957 C 0.18804 0.13696 0.52727 0.0
C4958 C 0.20455 0.13974 0.53816 0.0
C4959 C 0.21125 0.15635 0.55212 0.0
C4960 C 0.2015 0.17024 0.55541 0.0
C4961 C 0.18499 0.16752 0.54478 0.0
C4962 C 0.17824 0.15094 0.53078 0.0
C4963 C 0.11501 0.05025 0.50009 0.0
C4964 C 0.10151 0.06015 0.50254 0.0
C4965 C 0.13273 0.06023 0.49822 0.0
C4966 C 0.13717 0.08025 0.49857 0.0
C4967 C 0.12351 0.08998 0.50046 0.0
C4968 C 0.10592 0.08006 0.50245 0.0
C4969 C 0.15611 0.09146 0.49794 0.0
C4970 C 0.16361 0.10782 0.51214 0.0
C4971 C 0.16668 0.08648 0.48356 0.0
C4972 C 0.15928 0.06996 0.46767 0.0
C4973 C 0.14337 0.06884 0.45645 0.0
C4974 C 0.13635 0.0531 0.44164 0.0
C4975 C 0.14522 0.03846 0.4378 0.0
C4976 C 0.16116 0.03959 0.44872 0.0
C4977 C 0.16822 0.05529 0.46357 0.0
H4978 H 0.13976 0.02628 0.42633 0.0
H4979 H 0.20671 0.1831 0.56622 0.0
H4980 H 0.23265 0.97274 0.75707 0.0
H4981 H 0.24563 0.94559 0.75792 0.0
H4982 H 0.1947 0.91154 0.76937 0.0
H4983 H 0.18142 0.93919 0.7686 0.0
H4984 H 0.22179 0.90375 0.7904 0.0
H4985 H 0.21436 0.90453 0.72434 0.0
H4986 H 0.21869 0.92007 0.69702 0.0
H4987 H 0.27628 0.93371 0.70999 0.0
H4988 H 0.27229 0.91844 0.73749 0.0
H4989 H 0.25614 0.82072 0.78857 0.0
H4990 H 0.23991 0.84423 0.78485 0.0
H4991 H 0.27724 0.8668 0.74762 0.0
H4992 H 0.29078 0.83975 0.74809 0.0
H4993 H 0.25613 0.88149 0.73974 0.0
H4994 H 0.26615 0.88771 0.80735 0.0
H4995 H 0.26438 0.87698 0.83754 0.0
H4996 H 0.20678 0.85517 0.82543 0.0
H4997 H 0.20815 0.86601 0.79533 0.0
C4998 C 0.22388 0.95954 0.75967 0.0
C4999 C 0.2056 0.95882 0.76262 0.0
C5000 C 0.23152 0.94362 0.76005 0.0
C5001 C 0.22148 0.92564 0.76341 0.0
C5002 C 0.20319 0.92481 0.76661 0.0
C5003 C 0.19541 0.94086 0.76607 0.0
C5004 C 0.23021 0.90831 0.76382 0.0
C5005 C 0.22911 0.89881 0.77912 0.0
C5006 C 0.24066 0.90166 0.74977 0.0
C5007 C 0.24302 0.91044 0.73302 0.0
C5008 C 0.22794 0.9109 0.72139 0.0
C5009 C 0.23034 0.91966 0.70588 0.0
C5010 C 0.24775 0.9279 0.70179 0.0
C5011 C 0.26281 0.92733 0.71317 0.0
C5012 C 0.26049 0.9186 0.7287 0.0
C5013 C 0.26119 0.83062 0.77951 0.0
C5014 C 0.27617 0.82842 0.76967 0.0
C5015 C 0.25192 0.84506 0.77784 0.0
C5016 C 0.25761 0.85963 0.76725 0.0
C5017 C 0.27216 0.85691 0.75664 0.0
C5018 C 0.28063 0.84139 0.75729 0.0
C5019 C 0.24817 0.87669 0.76667 0.0
C5020 C 0.24903 0.88623 0.75123 0.0
C5021 C 0.23808 0.88396 0.78102 0.0
C5022 C 0.23728 0.87746 0.79904 0.0
C5023 C 0.25313 0.8806 0.81114 0.0
C5024 C 0.25219 0.8745 0.82821 0.0
C5025 C 0.23552 0.86526 0.83331 0.0
C5026 C 0.2197 0.86227 0.82144 0.0
C5027 C 0.22053 0.86846 0.80442 0.0
H5028 H 0.23485 0.86049 0.8465 0.0
H5029 H 0.24957 0.9347 0.6898 0.0
H5030 H 0.33724 0.99044 -0.00308 0.0
H5031 H 0.36799 0.01209 0.00054 0.0
H5032 H 0.38768 0.97393 0.03037 0.0
H5033 H 0.3573 0.95214 0.0263 0.0
H5034 H 0.40577 0.01511 0.04333 0.0
H5035 H 0.38844 0.96286 0.98841 0.0
H5036 H 0.36858 0.94406 0.95999 0.0
H5037 H 0.37667 0.99517 0.93648 0.0
H5038 H 0.39636 0.01434 0.96497 0.0
H5039 H 0.48837 -0.00063 0.00138 0.0
H5040 H 0.45542 0.99232 0.00023 0.0
H5041 H 0.45969 0.05324 0.01827 0.0
H5042 H 0.49271 0.06031 0.01898 0.0
H5043 H 0.42886 0.0062 0.9813 0.0
H5044 H 0.43217 0.05393 0.05305 0.0
H5045 H 0.4539 0.06803 0.0814 0.0
H5046 H 0.47619 0.01901 0.07147 0.0
H5047 H 0.45455 0.00463 0.04314 0.0
C5048 C 0.3481 0.98707 0.00469 0.0
C5049 C 0.34518 0.96964 0.01109 0.0
C5050 C 0.36554 -0.00059 0.00682 0.0
C5051 C 0.37998 0.99452 0.01573 0.0
C5052 C 0.37666 0.97799 0.02362 0.0
C5053 C 0.35939 0.96548 0.0211 0.0
C5054 C 0.39878 0.00412 0.01369 0.0
C5055 C 0.41078 0.01366 0.02974 0.0
C5056 C 0.40534 0.00154 -0.00397 0.0
C5057 C 0.39356 0.99008 0.97891 0.0
C5058 C 0.3858 0.97013 0.97727 0.0
C5059 C 0.37462 0.95939 0.96114 0.0
C5060 C 0.3713 0.96843 0.94647 0.0
C5061 C 0.3792 0.98821 0.94789 0.0
C5062 C 0.39035 0.99902 0.96402 0.0
C5063 C 0.48215 0.01125 0.00424 0.0
C5064 C 0.49275 0.03041 0.00921 0.0
C5065 C 0.46344 0.00725 0.00377 0.0
C5066 C 0.45526 0.02232 0.00897 0.0
C5067 C 0.46585 0.04151 0.01401 0.0
C5068 C 0.48458 0.04552 0.01432 0.0
C5069 C 0.43581 0.01755 0.0108 0.0
C5070 C 0.42375 0.0086 0.99476 0.0
C5071 C 0.42935 0.02018 0.02851 0.0
C5072 C 0.44187 0.02834 0.04592 0.0
C5073 C 0.44167 0.04616 0.05698 0.0
C5074 C 0.45402 0.05423 0.07298 0.0
C5075 C 0.46652 0.0445 0.07813 0.0
C5076 C 0.4666 0.0266 0.06738 0.0
C5077 C 0.45432 0.01851 0.05135 0.0
H5078 H 0.47603 0.05074 0.09055 0.0
H5079 H 0.36265 0.9601 0.93398 0.0
H5080 H 0.85363 0.56596 0.79658 0.0
H5081 H 0.83779 0.58979 0.78986 0.0
H5082 H 0.8881 0.6269 0.78007 0.0
H5083 H 0.90391 0.60306 0.78632 0.0
H5084 H 0.8401 0.63095 0.8001 0.0
H5085 H 0.88167 0.63612 0.7382 0.0
H5086 H 0.89961 0.61732 0.71972 0.0
H5087 H 0.86522 0.56443 0.72937 0.0
H5088 H 0.84698 0.58291 0.74768 0.0
H5089 H 0.81733 0.69964 0.74889 0.0
H5090 H 0.83221 0.68166 0.76736 0.0
H5091 H 0.81067 0.62966 0.72524 0.0
H5092 H 0.7964 0.64769 0.7066 0.0
H5093 H 0.84439 0.63383 0.73319 0.0
H5094 H 0.79492 0.638 0.76981 0.0
H5095 H 0.7757 0.65464 0.78864 0.0
H5096 H 0.82154 0.68519 0.82859 0.0
H5097 H 0.84111 0.66894 0.80987 0.0
C5098 C 0.86138 0.57941 0.79343 0.0
C5099 C 0.87992 0.58245 0.79151 0.0
C5100 C 0.85233 0.59307 0.78976 0.0
C5101 C 0.86175 0.60997 0.78425 0.0
C5102 C 0.88057 0.61386 0.78414 0.0
C5103 C 0.88955 0.60015 0.78757 0.0
C5104 C 0.85175 0.62154 0.77524 0.0
C5105 C 0.84102 0.63171 0.7855 0.0
C5106 C 0.85273 0.62218 0.75613 0.0
C5107 C 0.86307 0.6109 0.74438 0.0
C5108 C 0.87788 0.62047 0.73623 0.0
C5109 C 0.88811 0.60988 0.72583 0.0
C5110 C 0.88358 0.5897 0.72341 0.0
C5111 C 0.86874 0.58005 0.73128 0.0
C5112 C 0.85845 0.59058 0.74167 0.0
C5113 C 0.81572 0.68433 0.74372 0.0
C5114 C 0.80591 0.67505 0.72625 0.0
C5115 C 0.82412 0.67405 0.7543 0.0
C5116 C 0.82252 0.65426 0.74774 0.0
C5117 C 0.81223 0.64494 0.73055 0.0
C5118 C 0.80411 0.65523 0.71988 0.0
C5119 C 0.83247 0.64336 0.75791 0.0
C5120 C 0.84337 0.63328 0.74782 0.0
C5121 C 0.83125 0.64258 0.77704 0.0
C5122 C 0.81951 0.65237 0.78833 0.0
C5123 C 0.80094 0.64838 0.78253 0.0
C5124 C 0.78998 0.65772 0.7932 0.0
C5125 C 0.7974 0.67098 0.80979 0.0
C5126 C 0.81582 0.67493 0.81574 0.0
C5127 C 0.82685 0.66564 0.80511 0.0
H5128 H 0.78887 0.67814 0.81805 0.0
H5129 H 0.89156 0.58153 0.71541 0.0
H5130 H 0.82151 0.6275 0.97417 0.0
H5131 H 0.84565 0.61183 0.97894 0.0
H5132 H 0.87232 0.65932 0.02397 0.0
H5133 H 0.84808 0.6751 0.01941 0.0
H5134 H 0.89637 0.64596 -0.00138 0.0
H5135 H 0.85002 0.62086 0.03588 0.0
H5136 H 0.81873 0.6061 0.04134 0.0
H5137 H 0.8169 0.5558 -0.00043 0.0
H5138 H 0.84811 0.57039 0.99366 0.0
H5139 H 0.95519 0.5947 0.03538 0.0
H5140 H 0.93487 0.61493 0.03 0.0
H5141 H 0.8975 0.5654 0.99428 0.0
H5142 H 0.91738 0.54516 0.00032 0.0
H5143 H 0.87951 0.5818 0.01657 0.0
H5144 H 0.92492 0.60615 0.97813 0.0
H5145 H 0.9557 0.62066 0.97103 0.0
H5146 H 0.95926 0.6715 0.01279 0.0
H5147 H 0.92855 0.65721 0.02027 0.0
C5148 C 0.83251 0.63469 0.98507 0.0
C5149 C 0.83274 0.65252 -0.00351 0.0
C5150 C 0.84633 0.6257 0.98776 0.0
C5151 C 0.86078 0.63435 0.00185 0.0
C5152 C 0.86134 0.65239 0.01298 0.0
C5153 C 0.84739 0.66132 0.01043 0.0
C5154 C 0.87474 0.62402 0.00545 0.0
C5155 C 0.89279 0.63204 0.00277 0.0
C5156 C 0.87001 0.6057 0.01052 0.0
C5157 C 0.85134 0.59679 0.01423 0.0
C5158 C 0.8429 0.60671 0.02777 0.0
C5159 C 0.82519 0.59837 0.03096 0.0
C5160 C 0.81582 0.58004 0.02078 0.0
C5161 C 0.82417 0.57 0.00743 0.0
C5162 C 0.84187 0.57829 0.00417 0.0
C5163 C 0.94276 0.58828 0.02616 0.0
C5164 C 0.93782 0.56836 0.01831 0.0
C5165 C 0.93114 0.59985 0.02303 0.0
C5166 C 0.91456 0.5918 0.01164 0.0
C5167 C 0.91007 0.57202 0.00324 0.0
C5168 C 0.92148 0.56044 0.00663 0.0
C5169 C 0.90128 0.60342 0.00932 0.0
C5170 C 0.88326 0.59569 0.01237 0.0
C5171 C 0.90607 0.62188 0.00439 0.0
C5172 C 0.92451 0.63052 -0.0001 0.0
C5173 C 0.93232 0.62036 0.9859 0.0
C5174 C 0.94974 0.62856 0.98178 0.0
C5175 C 0.95945 0.64696 0.9915 0.0
C5176 C 0.95173 0.65723 0.0053 0.0
C5177 C 0.93431 0.6491 0.00947 0.0
H5178 H 0.97294 0.65327 0.98831 0.0
H5179 H 0.80211 0.57361 0.02326 0.0
H5180 H 0.22166 0.06 0.77425 0.0
H5181 H 0.24132 0.09288 0.77528 0.0
H5182 H 0.19424 0.1132 0.76508 0.0
H5183 H 0.17497 0.0812 0.76402 0.0
H5184 H 0.21817 0.12749 0.74405 0.0
H5185 H 0.21989 0.12334 0.80935 0.0
H5186 H 0.22623 0.10954 0.83666 0.0
H5187 H 0.28219 0.12006 0.82741 0.0
H5188 H 0.27613 0.13371 0.79989 0.0
H5189 H 0.24877 0.22948 0.76486 0.0
H5190 H 0.23414 0.19577 0.76512 0.0
H5191 H 0.28565 0.18667 0.78164 0.0
H5192 H 0.3002 0.22091 0.7826 0.0
H5193 H 0.26254 0.16531 0.79793 0.0
H5194 H 0.2615 0.17132 0.73386 0.0
H5195 H 0.25546 0.18557 0.70677 0.0
H5196 H 0.19873 0.17093 0.71289 0.0
H5197 H 0.20446 0.15686 0.7402 0.0
C5198 C 0.21552 0.07147 0.77224 0.0
C5199 C 0.19651 0.06754 0.76913 0.0
C5200 C 0.22681 0.09042 0.7729 0.0
C5201 C 0.21944 0.10595 0.77032 0.0
C5202 C 0.20055 0.10183 0.76707 0.0
C5203 C 0.18941 0.08322 0.76656 0.0
C5204 C 0.23084 0.12649 0.77077 0.0
C5205 C 0.22778 0.13571 0.75594 0.0
C5206 C 0.24387 0.13749 0.78592 0.0
C5207 C 0.24752 0.12932 0.80244 0.0
C5208 C 0.23352 0.12256 0.81305 0.0
C5209 C 0.23707 0.1148 0.82859 0.0
C5210 C 0.25459 0.11386 0.83373 0.0
C5211 C 0.26862 0.12075 0.82339 0.0
C5212 C 0.26514 0.12851 0.80783 0.0
C5213 C 0.25712 0.22045 0.76863 0.0
C5214 C 0.27595 0.22826 0.77335 0.0
C5215 C 0.24865 0.20086 0.76859 0.0
C5216 C 0.25866 0.18797 0.77275 0.0
C5217 C 0.27739 0.19588 0.77809 0.0
C5218 C 0.28584 0.21564 0.77848 0.0
C5219 C 0.24959 0.16645 0.77134 0.0
C5220 C 0.25307 0.15706 0.78595 0.0
C5221 C 0.23699 0.15518 0.75589 0.0
C5222 C 0.23343 0.16315 0.73916 0.0
C5223 C 0.24774 0.17119 0.72946 0.0
C5224 C 0.24438 0.17925 0.71408 0.0
C5225 C 0.22673 0.17919 0.70814 0.0
C5226 C 0.2124 0.17098 0.71752 0.0
C5227 C 0.21569 0.16294 0.73294 0.0
H5228 H 0.22415 0.18547 0.69625 0.0
H5229 H 0.25731 0.10785 0.84577 0.0
H5230 H 0.35443 0.00482 0.28756 0.0
H5231 H 0.32923 0.97639 0.28704 0.0
H5232 H 0.34729 0.94573 0.23888 0.0
H5233 H 0.37205 0.97398 0.23924 0.0
H5234 H 0.31353 0.92808 0.24128 0.0
H5235 H 0.37077 0.95202 0.2821 0.0
H5236 H 0.39273 0.97665 0.3058 0.0
H5237 H 0.35231 0.97554 0.34394 0.0
H5238 H 0.33005 0.95107 0.32029 0.0
H5239 H 0.3467 0.85139 0.28212 0.0
H5240 H 0.34892 0.88543 0.28115 0.0
H5241 H 0.2909 0.8719 0.26923 0.0
H5242 H 0.28879 0.83808 0.26928 0.0
H5243 H 0.33647 0.91291 0.30022 0.0
H5244 H 0.28017 0.89639 0.23968 0.0
H5245 H 0.26606 0.87023 0.21247 0.0
H5246 H 0.31612 0.85432 0.20859 0.0
H5247 H 0.33038 0.88016 0.23584 0.0
C5248 C 0.35227 0.99242 0.27619 0.0
C5249 C 0.36535 0.99116 0.26379 0.0
C5250 C 0.33791 0.97617 0.27592 0.0
C5251 C 0.33688 0.95875 0.2634 0.0
C5252 C 0.34796 0.9589 0.24885 0.0
C5253 C 0.36222 0.97504 0.24912 0.0
C5254 C 0.32889 0.93983 0.26831 0.0
C5255 C 0.31802 0.92484 0.2544 0.0
C5256 C 0.33543 0.93544 0.28513 0.0
C5257 C 0.34873 0.94999 0.2994 0.0
C5258 C 0.36658 0.95712 0.29552 0.0
C5259 C 0.37906 0.97104 0.30892 0.0
C5260 C 0.3739 0.9777 0.32634 0.0
C5261 C 0.35626 0.97041 0.33041 0.0
C5262 C 0.3437 0.95655 0.31701 0.0
C5263 C 0.33448 0.8558 0.2794 0.0
C5264 C 0.31758 0.84223 0.27611 0.0
C5265 C 0.33571 0.87517 0.27896 0.0
C5266 C 0.32004 0.88111 0.27506 0.0
C5267 C 0.30315 0.86758 0.27208 0.0
C5268 C 0.30197 0.84826 0.27227 0.0
C5269 C 0.32154 0.90121 0.27301 0.0
C5270 C 0.33115 0.91628 0.2875 0.0
C5271 C 0.31476 0.9055 0.25631 0.0
C5272 C 0.30625 0.89007 0.23984 0.0
C5273 C 0.28812 0.88728 0.23299 0.0
C5274 C 0.28009 0.87246 0.21761 0.0
C5275 C 0.29015 0.86053 0.20887 0.0
C5276 C 0.30827 0.86341 0.21546 0.0
C5277 C 0.31631 0.8781 0.23089 0.0
H5278 H 0.28393 0.84909 0.19696 0.0
H5279 H 0.38358 0.98848 0.33671 0.0
H5280 H 0.58077 0.34576 0.55021 0.0
H5281 H 0.57464 0.37369 0.53956 0.0
H5282 H 0.57339 0.4011 0.59671 0.0
H5283 H 0.57801 0.37225 0.60718 0.0
H5284 H 0.55094 0.41141 0.57838 0.0
H5285 H 0.61195 0.41226 0.56676 0.0
H5286 H 0.63644 0.39931 0.55393 0.0
H5287 H 0.61077 0.39112 0.49821 0.0
H5288 H 0.58602 0.40382 0.51071 0.0
H5289 H 0.56194 0.50618 0.55606 0.0
H5290 H 0.56393 0.47735 0.56806 0.0
H5291 H 0.56257 0.4463 0.51168 0.0
H5292 H 0.56175 0.47564 0.49991 0.0
H5293 H 0.58678 0.43861 0.53081 0.0
H5294 H 0.5214 0.42786 0.54633 0.0
H5295 H 0.49663 0.43882 0.56107 0.0
H5296 H 0.53273 0.46728 0.6108 0.0
H5297 H 0.55751 0.45602 0.59648 0.0
C5298 C 0.57903 0.35768 0.56051 0.0
C5299 C 0.57995 0.35673 0.57958 0.0
C5300 C 0.57576 0.3739 0.55442 0.0
C5301 C 0.57419 0.39019 0.56726 0.0
C5302 C 0.57466 0.38901 0.58634 0.0
C5303 C 0.57731 0.37244 0.59239 0.0
C5304 C 0.57195 0.40825 0.56081 0.0
C5305 C 0.55901 0.4174 0.56813 0.0
C5306 C 0.58214 0.41636 0.54722 0.0
C5307 C 0.59707 0.40884 0.53969 0.0
C5308 C 0.61149 0.40761 0.55178 0.0
C5309 C 0.62542 0.40032 0.54456 0.0
C5310 C 0.62514 0.39436 0.52527 0.0
C5311 C 0.61096 0.39573 0.51315 0.0
C5312 C 0.59699 0.40299 0.52029 0.0
C5313 C 0.56171 0.49305 0.54624 0.0
C5314 C 0.56126 0.49307 0.52698 0.0
C5315 C 0.56264 0.47637 0.5531 0.0
C5316 C 0.56293 0.45908 0.5409 0.0
C5317 C 0.5623 0.45919 0.52158 0.0
C5318 C 0.56173 0.47598 0.51477 0.0
C5319 C 0.56555 0.44155 0.54812 0.0
C5320 C 0.57867 0.43255 0.541 0.0
C5321 C 0.55575 0.43376 0.56208 0.0
C5322 C 0.54132 0.44156 0.57019 0.0
C5323 C 0.52404 0.43662 0.56033 0.0
C5324 C 0.50997 0.4427 0.56869 0.0
C5325 C 0.51315 0.45388 0.5868 0.0
C5326 C 0.53032 0.45876 0.59672 0.0
C5327 C 0.54433 0.45243 0.58854 0.0
H5328 H 0.50227 0.45865 0.5932 0.0
H5329 H 0.63593 0.38871 0.51972 0.0
H5330 H 0.46408 0.73888 0.36904 0.0
H5331 H 0.43776 0.7412 0.34949 0.0
H5332 H 0.43125 0.78774 0.392 0.0
H5333 H 0.45641 0.78441 0.41177 0.0
H5334 H 0.40061 0.76807 0.38121 0.0
H5335 H 0.44934 0.79156 0.34558 0.0
H5336 H 0.47554 0.78975 0.32812 0.0
H5337 H 0.44308 0.73954 0.28959 0.0
H5338 H 0.41673 0.74094 0.30695 0.0
H5339 H 0.34163 0.80629 0.32876 0.0
H5340 H 0.36753 0.80104 0.34628 0.0
H5341 H 0.36592 0.75069 0.30422 0.0
H5342 H 0.34037 0.75616 0.28645 0.0
H5343 H 0.39958 0.76981 0.3138 0.0
H5344 H 0.34992 0.74947 0.34997 0.0
H5345 H 0.32454 0.7541 0.36782 0.0
H5346 H 0.36041 0.80208 0.40618 0.0
H5347 H 0.38592 0.79793 0.38846 0.0
C5348 C 0.45703 0.74963 0.37408 0.0
C5349 C 0.46234 0.7614 0.39201 0.0
C5350 C 0.44198 0.75109 0.36284 0.0
C5351 C 0.43231 0.76484 0.36899 0.0
C5352 C 0.43807 0.77683 0.38676 0.0
C5353 C 0.45264 0.77499 0.3981 0.0
C5354 C 0.41596 0.7667 0.35752 0.0
C5355 C 0.40062 0.7687 0.36652 0.0
C5356 C 0.41535 0.76705 0.33814 0.0
C5357 C 0.43114 0.76624 0.32767 0.0
C5358 C 0.44783 0.78007 0.33345 0.0
C5359 C 0.4627 0.77913 0.32356 0.0
C5360 C 0.46099 0.7645 0.30779 0.0
C5361 C 0.44439 0.75083 0.30183 0.0
C5362 C 0.42949 0.75171 0.31168 0.0
C5363 C 0.34671 0.79404 0.32325 0.0
C5364 C 0.33883 0.78174 0.30606 0.0
C5365 C 0.36156 0.79097 0.33338 0.0
C5366 C 0.36875 0.77525 0.32685 0.0
C5367 C 0.36082 0.76294 0.3097 0.0
C5368 C 0.34612 0.76612 0.29949 0.0
C5369 C 0.38457 0.77171 0.33767 0.0
C5370 C 0.39968 0.76922 0.32851 0.0
C5371 C 0.38514 0.77128 0.35701 0.0
C5372 C 0.3698 0.77348 0.36779 0.0
C5373 C 0.35237 0.76105 0.36216 0.0
C5374 C 0.33797 0.7636 0.37226 0.0
C5375 C 0.34089 0.77842 0.38807 0.0
C5376 C 0.35819 0.79064 0.39391 0.0
C5377 C 0.37261 0.78819 0.38386 0.0
H5378 H 0.32979 0.78048 0.39584 0.0
H5379 H 0.47252 0.76379 0.30016 0.0
H5380 H 0.05816 0.7455 0.09525 0.0
H5381 H 0.05235 0.71028 0.08541 0.0
H5382 H 0.08606 0.71817 0.04097 0.0
H5383 H 0.09185 0.75329 0.05061 0.0
H5384 H 0.05549 0.6864 0.02988 0.0
H5385 H 0.10349 0.71102 0.08177 0.0
H5386 H 0.11561 0.72905 0.11374 0.0
H5387 H 0.07341 0.69171 0.13612 0.0
H5388 H 0.06093 0.6736 0.10425 0.0
H5389 H 0.06153 0.589 0.01092 0.0
H5390 H 0.06942 0.62433 0.01712 0.0
H5391 H 0.0544 0.62459 0.07313 0.0
H5392 H 0.04993 0.58984 0.06792 0.0
H5393 H 0.07689 0.65364 0.07716 0.0
H5394 H 0.02655 0.62997 0.02783 0.0
H5395 H 0.01195 0.61143 -0.00328 0.0
H5396 H 0.05332 0.64555 0.97061 0.0
H5397 H 0.06825 0.66416 0.00157 0.0
C5398 C 0.06409 0.73978 0.08318 0.0
C5399 C 0.0756 0.75239 0.07386 0.0
C5400 C 0.06082 0.71957 0.0776 0.0
C5401 C 0.06895 0.71144 0.06255 0.0
C5402 C 0.07963 0.72397 0.05261 0.0
C5403 C 0.08297 0.74414 0.05822 0.0
C5404 C 0.06751 0.69011 0.05808 0.0
C5405 C 0.06019 0.67919 0.04018 0.0
C5406 C 0.07337 0.68051 0.0715 0.0
C5407 C 0.08124 0.69104 0.09065 0.0
C5408 C 0.09679 0.70669 0.09351 0.0
C5409 C 0.10371 0.71693 0.11161 0.0
C5410 C 0.09527 0.71154 0.12695 0.0
C5411 C 0.07994 0.69586 0.12423 0.0
C5412 C 0.07295 0.6856 0.10616 0.0
C5413 C 0.06082 0.59667 0.02481 0.0
C5414 C 0.05566 0.58646 0.03906 0.0
C5415 C 0.06469 0.61703 0.02823 0.0
C5416 C 0.06194 0.62764 0.04549 0.0
C5417 C 0.05683 0.61726 0.05967 0.0
C5418 C 0.05411 0.59716 0.05663 0.0
C5419 C 0.06403 0.64928 0.04905 0.0
C5420 C 0.0718 0.6605 0.06678 0.0
C5421 C 0.05797 0.65895 0.03562 0.0
C5422 C 0.04857 0.64835 0.01701 0.0
C5423 C 0.0325 0.63352 0.01544 0.0
C5424 C 0.0242 0.62298 -0.00216 0.0
C5425 C 0.03173 0.62727 0.9817 0.0
C5426 C 0.04751 0.64222 0.98312 0.0
C5427 C 0.05588 0.65279 0.00069 0.0
H5428 H 0.02533 0.61903 0.9681 0.0
H5429 H 0.10063 0.71951 0.14094 0.0
H5430 H 0.08852 0.28042 0.91826 0.0
H5431 H 0.11395 0.28207 0.89967 0.0
H5432 H 0.07698 0.26176 0.84918 0.0
H5433 H 0.05129 0.2599 0.86782 0.0
H5434 H 0.10417 0.2434 0.84843 0.0
H5435 H 0.10062 0.30985 0.86332 0.0
H5436 H 0.09977 0.3398 0.88483 0.0
H5437 H 0.15175 0.34314 0.91238 0.0
H5438 H 0.1528 0.31305 0.89119 0.0
H5439 H 0.16196 0.26623 0.78033 0.0
H5440 H 0.13894 0.26295 0.80173 0.0
H5441 H 0.17976 0.29018 0.84837 0.0
H5442 H 0.20301 0.29441 0.82667 0.0
H5443 H 0.15207 0.30453 0.85324 0.0
H5444 H 0.15731 0.24017 0.83921 0.0
H5445 H 0.15903 0.20939 0.8198 0.0
H5446 H 0.10543 0.20086 0.79329 0.0
H5447 H 0.10348 0.23173 0.81236 0.0
C5448 C 0.0857 0.27632 0.90319 0.0
C5449 C 0.06774 0.27009 0.89459 0.0
C5450 C 0.10035 0.27736 0.89254 0.0
C5451 C 0.09751 0.27227 0.87294 0.0
C5452 C 0.07959 0.26583 0.86427 0.0
C5453 C 0.06488 0.26483 0.87495 0.0
C5454 C 0.1132 0.27355 0.86155 0.0
C5455 C 0.11449 0.25684 0.84928 0.0
C5456 C 0.12722 0.29084 0.86323 0.0
C5457 C 0.12671 0.3091 0.87577 0.0
C5458 C 0.11182 0.31691 0.87403 0.0
C5459 C 0.11131 0.33391 0.88616 0.0
C5460 C 0.12568 0.34334 0.89999 0.0
C5461 C 0.14062 0.33581 0.90168 0.0
C5462 C 0.14119 0.3188 0.8896 0.0
C5463 C 0.16615 0.27159 0.79514 0.0
C5464 C 0.18444 0.2808 0.80166 0.0
C5465 C 0.1529 0.26947 0.80746 0.0
C5466 C 0.15745 0.27609 0.82683 0.0
C5467 C 0.17578 0.28489 0.83352 0.0
C5468 C 0.18913 0.28714 0.8211 0.0
C5469 C 0.14289 0.27443 0.83976 0.0
C5470 C 0.1418 0.29105 0.85237 0.0
C5471 C 0.12922 0.25694 0.83866 0.0
C5472 C 0.13032 0.23836 0.82712 0.0
C5473 C 0.14594 0.23181 0.82914 0.0
C5474 C 0.14695 0.21433 0.81822 0.0
C5475 C 0.13236 0.2032 0.80529 0.0
C5476 C 0.11672 0.20951 0.8033 0.0
C5477 C 0.11565 0.22699 0.81418 0.0
H5478 H 0.13316 0.18967 0.79685 0.0
H5479 H 0.12524 0.35649 0.90938 0.0
H5480 H 0.55938 0.76194 0.91891 0.0
H5481 H 0.55744 0.73311 0.93213 0.0
H5482 H 0.61562 0.74724 0.94151 0.0
H5483 H 0.61762 0.77612 0.92767 0.0
H5484 H 0.59283 0.70308 0.93214 0.0
H5485 H 0.60159 0.76523 0.97527 0.0
H5486 H 0.59482 0.79685 0.98418 0.0
H5487 H 0.53878 0.76819 0.9843 0.0
H5488 H 0.5452 0.73641 0.97509 0.0
H5489 H 0.58816 0.65365 0.00897 0.0
H5490 H 0.59682 0.67626 0.98798 0.0
H5491 H 0.5439 0.68672 0.98748 0.0
H5492 H 0.53542 0.66455 0.00886 0.0
H5493 H 0.56816 0.71917 0.99239 0.0
H5494 H 0.55752 0.65791 0.94976 0.0
H5495 H 0.56147 0.62546 0.93776 0.0
H5496 H 0.61774 0.6504 0.93443 0.0
H5497 H 0.61416 0.68301 0.94659 0.0
C5498 C 0.57176 0.75851 0.9232 0.0
C5499 C 0.58863 0.7712 0.92259 0.0
C5500 C 0.57064 0.74202 0.93061 0.0
C5501 C 0.58637 0.73825 0.93793 0.0
C5502 C 0.60337 0.74993 0.9358 0.0
C5503 C 0.6045 0.7664 0.92803 0.0
C5504 C 0.5846 0.72482 0.95098 0.0
C5505 C 0.58781 0.70661 0.94551 0.0
C5506 C 0.57761 0.72942 0.96814 0.0
C5507 C 0.57387 0.74848 0.97443 0.0
C5508 C 0.58783 0.76569 0.97714 0.0
C5509 C 0.58405 0.78363 0.98223 0.0
C5510 C 0.56638 0.78453 0.98479 0.0
C5511 C 0.55247 0.76748 0.98233 0.0
C5512 C 0.55617 0.7495 0.9772 0.0
C5513 C 0.57843 0.66084 0.00436 0.0
C5514 C 0.56118 0.65752 0.01058 0.0
C5515 C 0.58333 0.67361 0.99227 0.0
C5516 C 0.57094 0.68299 0.98596 0.0
C5517 C 0.55369 0.67966 0.9922 0.0
C5518 C 0.54888 0.6671 0.00447 0.0
C5519 C 0.57608 0.69702 0.97358 0.0
C5520 C 0.57348 0.71552 0.97921 0.0
C5521 C 0.58342 0.69248 0.95653 0.0
C5522 C 0.58561 0.67288 0.9493 0.0
C5523 C 0.57077 0.65646 0.94663 0.0
C5524 C 0.57293 0.63805 0.93976 0.0
C5525 C 0.58986 0.63587 0.93539 0.0
C5526 C 0.60464 0.65211 0.93785 0.0
C5527 C 0.60255 0.67057 0.94471 0.0
H5528 H 0.5915 0.6216 0.93005 0.0
H5529 H 0.56348 0.79844 0.9887 0.0
H5530 H 0.0636 0.78523 0.6797 0.0
H5531 H 0.09498 0.78535 0.68835 0.0
H5532 H 0.07619 0.74006 0.71898 0.0
H5533 H 0.04522 0.74035 0.7111 0.0
H5534 H 0.10475 0.76419 0.73727 0.0
H5535 H 0.08636 0.73112 0.6726 0.0
H5536 H 0.07579 0.72866 0.63951 0.0
H5537 H 0.12233 0.77399 0.63505 0.0
H5538 H 0.13305 0.77688 0.6682 0.0
H5539 H 0.16931 0.70966 0.73361 0.0
H5540 H 0.14248 0.71691 0.72005 0.0
H5541 H 0.17322 0.7754 0.72125 0.0
H5542 H 0.19954 0.76907 0.73609 0.0
H5543 H 0.1415 0.7487 0.68599 0.0
H5544 H 0.15753 0.78202 0.75319 0.0
H5545 H 0.16778 0.78066 0.78543 0.0
H5546 H 0.12398 0.73018 0.78343 0.0
H5547 H 0.11368 0.73112 0.75105 0.0
C5548 C 0.06624 0.77566 0.68865 0.0
C5549 C 0.05196 0.76264 0.69457 0.0
C5550 C 0.08413 0.7756 0.69341 0.0
C5551 C 0.08784 0.76243 0.70398 0.0
C5552 C 0.07363 0.7503 0.71076 0.0
C5553 C 0.05589 0.75046 0.70618 0.0
C5554 C 0.1063 0.76036 0.70752 0.0
C5555 C 0.11275 0.7609 0.72601 0.0
C5556 C 0.11683 0.75613 0.69285 0.0
C5557 C 0.11038 0.75439 0.67293 0.0
C5558 C 0.09426 0.74067 0.6646 0.0
C5559 C 0.08826 0.73918 0.64583 0.0
C5560 C 0.09835 0.75121 0.6352 0.0
C5561 C 0.1145 0.76471 0.64331 0.0
C5562 C 0.12055 0.76629 0.66209 0.0
C5563 C 0.17043 0.72404 0.73093 0.0
C5564 C 0.18666 0.73875 0.73612 0.0
C5565 C 0.15519 0.72803 0.72287 0.0
C5566 C 0.1561 0.74661 0.71957 0.0
C5567 C 0.17247 0.7609 0.72344 0.0
C5568 C 0.18754 0.75713 0.73191 0.0
C5569 C 0.13941 0.75217 0.71553 0.0
C5570 C 0.13348 0.75234 0.69712 0.0
C5571 C 0.12913 0.75676 0.73014 0.0
C5572 C 0.13494 0.75656 0.74974 0.0
C5573 C 0.15017 0.77059 0.75962 0.0
C5574 C 0.15598 0.7699 0.7779 0.0
C5575 C 0.14656 0.75532 0.78647 0.0
C5576 C 0.13127 0.74145 0.77678 0.0
C5577 C 0.12544 0.74206 0.75848 0.0
H5578 H 0.15109 0.75479 0.80061 0.0
H5579 H 0.09369 0.75003 0.62067 0.0
H5580 H 0.13709 0.37926 0.43605 0.0
H5581 H 0.13713 0.41345 0.44506 0.0
H5582 H 0.09038 0.40289 0.40476 0.0
H5583 H 0.09235 0.37025 0.39399 0.0
H5584 H 0.1016 0.43688 0.41087 0.0
H5585 H 0.09271 0.39355 0.45804 0.0
H5586 H 0.10441 0.37521 0.47902 0.0
H5587 H 0.14706 0.42588 0.50347 0.0
H5588 H 0.13562 0.44443 0.48257 0.0
H5589 H 0.03766 0.47684 0.46 0.0
H5590 H 0.05476 0.45609 0.4433 0.0
H5591 H 0.10068 0.48239 0.48497 0.0
H5592 H 0.08329 0.50144 0.50234 0.0
H5593 H 0.09697 0.44715 0.47898 0.0
H5594 H 0.09582 0.49135 0.43657 0.0
H5595 H 0.08027 0.50727 0.4163 0.0
H5596 H 0.05228 0.45192 0.38245 0.0
H5597 H 0.06746 0.43564 0.40274 0.0
C5598 C 0.12758 0.38475 0.42851 0.0
C5599 C 0.11463 0.37226 0.41448 0.0
C5600 C 0.12728 0.40414 0.43391 0.0
C5601 C 0.11297 0.41056 0.42656 0.0
C5602 C 0.10146 0.39854 0.41102 0.0
C5603 C 0.10255 0.37971 0.40482 0.0
C5604 C 0.10772 0.42784 0.43649 0.0
C5605 C 0.1006 0.43908 0.42578 0.0
C5606 C 0.10678 0.43138 0.45608 0.0
C5607 C 0.11347 0.42025 0.46866 0.0
C5608 C 0.10458 0.40072 0.4679 0.0
C5609 C 0.11118 0.39031 0.47975 0.0
C5610 C 0.1265 0.39936 0.49253 0.0
C5611 C 0.13523 0.41887 0.49354 0.0
C5612 C 0.1287 0.42933 0.48171 0.0
C5613 C 0.05136 0.47803 0.46559 0.0
C5614 C 0.05908 0.49079 0.48252 0.0
C5615 C 0.06125 0.4664 0.4559 0.0
C5616 C 0.07923 0.46795 0.46262 0.0
C5617 C 0.08689 0.48087 0.47942 0.0
C5618 C 0.07685 0.49184 0.48939 0.0
C5619 C 0.08983 0.45523 0.45316 0.0
C5620 C 0.09815 0.44515 0.46409 0.0
C5621 C 0.09133 0.45237 0.43374 0.0
C5622 C 0.08273 0.4623 0.42123 0.0
C5623 C 0.08633 0.48259 0.42482 0.0
C5624 C 0.07755 0.49167 0.41331 0.0
C5625 C 0.06525 0.4806 0.39808 0.0
C5626 C 0.0618 0.46046 0.39425 0.0
C5627 C 0.0705 0.45131 0.40574 0.0
H5628 H 0.05832 0.48755 0.38921 0.0
H5629 H 0.1316 0.39127 0.50167 0.0
H5630 H 0.46668 0.27315 0.2224 0.0
H5631 H 0.43577 0.27202 0.22927 0.0
H5632 H 0.42052 0.27228 0.17156 0.0
H5633 H 0.45163 0.2744 0.16485 0.0
H5634 H 0.40248 0.29097 0.19194 0.0
H5635 H 0.4136 0.22948 0.18848 0.0
H5636 H 0.42909 0.20515 0.19519 0.0
H5637 H 0.41915 0.21673 0.25269 0.0
H5638 H 0.40387 0.24138 0.24642 0.0
H5639 H 0.30874 0.25179 0.21364 0.0
H5640 H 0.33608 0.25394 0.19791 0.0
H5641 H 0.3684 0.26944 0.25141 0.0
H5642 H 0.34073 0.26514 0.26708 0.0
H5643 H 0.37496 0.23949 0.22563 0.0
H5644 H 0.38824 0.3171 0.21449 0.0
H5645 H 0.37397 0.34016 0.20264 0.0
H5646 H 0.335 0.29291 0.16655 0.0
H5647 H 0.34978 0.26979 0.17736 0.0
C5648 C 0.45683 0.27353 0.21133 0.0
C5649 C 0.46144 0.27373 0.1931 0.0
C5650 C 0.43915 0.27263 0.21519 0.0
C5651 C 0.42573 0.27132 0.20076 0.0
C5652 C 0.43063 0.27304 0.18285 0.0
C5653 C 0.44842 0.27438 0.17907 0.0
C5654 C 0.40653 0.26742 0.20425 0.0
C5655 C 0.39637 0.27962 0.19919 0.0
C5656 C 0.39843 0.25217 0.21311 0.0
C5657 C 0.40771 0.23741 0.21699 0.0
C5658 C 0.41485 0.22696 0.20259 0.0
C5659 C 0.42358 0.21309 0.20632 0.0
C5660 C 0.42514 0.20943 0.22436 0.0
C5661 C 0.41795 0.2196 0.23872 0.0
C5662 C 0.40925 0.23352 0.23509 0.0
C5663 C 0.32178 0.25601 0.22195 0.0
C5664 C 0.3229 0.25908 0.24151 0.0
C5665 C 0.33743 0.25774 0.21295 0.0
C5666 C 0.35445 0.26327 0.22343 0.0
C5667 C 0.35543 0.26582 0.24304 0.0
C5668 C 0.33973 0.26338 0.252 0.0
C5669 C 0.37121 0.26379 0.21435 0.0
C5670 C 0.38098 0.25077 0.21826 0.0
C5671 C 0.3787 0.27788 0.20385 0.0
C5672 C 0.36914 0.29157 0.19794 0.0
C5673 C 0.3764 0.31163 0.20431 0.0
C5674 C 0.36843 0.32476 0.19751 0.0
C5675 C 0.3533 0.31799 0.18418 0.0
C5676 C 0.34641 0.29812 0.17726 0.0
C5677 C 0.35452 0.28498 0.18382 0.0
H5678 H 0.34708 0.32815 0.179 0.0
H5679 H 0.43188 0.19867 0.22721 0.0
H5680 H 0.66087 0.52234 0.33207 0.0
H5681 H 0.64916 0.52521 0.36261 0.0
H5682 H 0.59735 0.48838 0.33677 0.0
H5683 H 0.60886 0.48673 0.30618 0.0
H5684 H 0.58864 0.51133 0.36023 0.0
H5685 H 0.63388 0.47789 0.37139 0.0
H5686 H 0.66441 0.47265 0.37296 0.0
H5687 H 0.6849 0.52699 0.41153 0.0
H5688 H 0.65453 0.53264 0.41003 0.0
H5689 H 0.5508 0.50195 0.44694 0.0
H5690 H 0.56348 0.49659 0.41723 0.0
H5691 H 0.61429 0.53593 0.44254 0.0
H5692 H 0.60194 0.54023 0.47251 0.0
H5693 H 0.62345 0.51161 0.41952 0.0
H5694 H 0.57781 0.54469 0.40812 0.0
H5695 H 0.54694 0.54902 0.4072 0.0
H5696 H 0.52693 0.49424 0.36922 0.0
H5697 H 0.55765 0.4895 0.37008 0.0
C5698 C 0.64715 0.51429 0.33292 0.0
C5699 C 0.6362 0.50361 0.31632 0.0
C5700 C 0.64027 0.51595 0.35069 0.0
C5701 C 0.62213 0.5067 0.35292 0.0
C5702 C 0.61133 0.49581 0.33622 0.0
C5703 C 0.61809 0.49454 0.31847 0.0
C5704 C 0.61415 0.50888 0.37206 0.0
C5705 C 0.59636 0.51104 0.37303 0.0
C5706 C 0.62375 0.50915 0.38953 0.0
C5707 C 0.64198 0.50576 0.39045 0.0
C5708 C 0.64492 0.48876 0.38013 0.0
C5709 C 0.66219 0.48572 0.38101 0.0
C5710 C 0.67659 0.4995 0.3923 0.0
C5711 C 0.67374 0.51634 0.40277 0.0
C5712 C 0.6565 0.51946 0.40192 0.0
C5713 C 0.56462 0.50966 0.44632 0.0
C5714 C 0.57482 0.52222 0.46259 0.0
C5715 C 0.57201 0.50668 0.42894 0.0
C5716 C 0.58998 0.51635 0.42668 0.0
C5717 C 0.60038 0.52832 0.44313 0.0
C5718 C 0.59307 0.53105 0.46056 0.0
C5719 C 0.59799 0.51395 0.4076 0.0
C5720 C 0.61576 0.51183 0.40667 0.0
C5721 C 0.58835 0.51362 0.39016 0.0
C5722 C 0.56999 0.51668 0.38928 0.0
C5723 C 0.56681 0.53356 0.39961 0.0
C5724 C 0.54934 0.53608 0.39911 0.0
C5725 C 0.53498 0.52189 0.38819 0.0
C5726 C 0.53806 0.5052 0.37768 0.0
C5727 C 0.5555 0.5026 0.37815 0.0
H5728 H 0.52146 0.52385 0.38785 0.0
H5729 H 0.68995 0.49712 0.39297 0.0
H5730 H 0.29316 0.90725 0.0542 0.0
H5731 H 0.29058 0.89154 0.08138 0.0
H5732 H 0.34293 0.88099 0.07539 0.0
H5733 H 0.34575 0.89648 0.04867 0.0
H5734 H 0.31515 0.84791 0.07633 0.0
H5735 H 0.33989 0.91449 0.1089 0.0
H5736 H 0.33998 0.94879 0.11832 0.0
H5737 H 0.29014 0.93212 0.14214 0.0
H5738 H 0.28962 0.89766 0.13259 0.0
H5739 H 0.34996 0.82072 0.15366 0.0
H5740 H 0.34591 0.84146 0.13179 0.0
H5741 H 0.29288 0.84077 0.14839 0.0
H5742 H 0.29661 0.81967 0.17002 0.0
H5743 H 0.31497 0.87858 0.14262 0.0
H5744 H 0.29198 0.81167 0.11189 0.0
H5745 H 0.29394 0.77788 0.10417 0.0
H5746 H 0.34175 0.79585 0.07743 0.0
H5747 H 0.34023 0.82981 0.08526 0.0
C5748 C 0.30416 0.9017 0.05878 0.0
C5749 C 0.31957 0.90296 0.04911 0.0
C5750 C 0.30267 0.89282 0.0743 0.0
C5751 C 0.31654 0.88508 0.08021 0.0
C5752 C 0.33206 0.8868 0.07091 0.0
C5753 C 0.3336 0.89568 0.0556 0.0
C5754 C 0.31483 0.8741 0.09536 0.0
C5755 C 0.31505 0.85461 0.09081 0.0
C5756 C 0.31431 0.8828 0.11415 0.0
C5757 C 0.31456 0.90349 0.11976 0.0
C5758 C 0.32882 0.91812 0.11593 0.0
C5759 C 0.32899 0.93759 0.12135 0.0
C5760 C 0.31503 0.94263 0.13075 0.0
C5761 C 0.30091 0.92819 0.1348 0.0
C5762 C 0.30067 0.90869 0.12939 0.0
C5763 C 0.33741 0.8249 0.1526 0.0
C5764 C 0.32352 0.81835 0.16334 0.0
C5765 C 0.33522 0.83693 0.14032 0.0
C5766 C 0.31908 0.84252 0.13854 0.0
C5767 C 0.30545 0.83667 0.14973 0.0
C5768 C 0.30761 0.82457 0.16199 0.0
C5769 C 0.31586 0.85267 0.12352 0.0
C5770 C 0.31463 0.87184 0.12807 0.0
C5771 C 0.3155 0.84376 0.10465 0.0
C5772 C 0.31602 0.82327 0.09921 0.0
C5773 C 0.30293 0.80841 0.1044 0.0
C5774 C 0.30397 0.78924 0.10002 0.0
C5775 C 0.31797 0.78472 0.09033 0.0
C5776 C 0.33091 0.79937 0.08492 0.0
C5777 C 0.32995 0.81857 0.0893 0.0
H5778 H 0.31878 0.76987 0.08699 0.0
H5779 H 0.31518 0.95771 0.13495 0.0
H5780 H 0.94792 0.52131 0.83799 0.0
H5781 H 0.96422 0.5308 0.86914 0.0
H5782 H 0.97142 0.59109 0.86685 0.0
H5783 H 0.95436 0.58145 0.83544 0.0
H5784 H 0.99861 0.54957 0.87574 0.0
H5785 H 0.97868 0.61567 0.91601 0.0
H5786 H 0.95281 0.63011 0.91789 0.0
H5787 H 0.91618 0.57412 0.89668 0.0
H5788 H 0.94179 0.55932 0.89495 0.0
H5789 H 0.05112 0.57225 0.96291 0.0
H5790 H 0.03754 0.58224 0.93646 0.0
H5791 H 0.98447 0.55267 0.94759 0.0
H5792 H 0.99775 0.54209 0.97337 0.0
H5793 H 0.98516 0.58723 0.93419 0.0
H5794 H 0.00285 0.52699 0.92052 0.0
H5795 H 0.02489 0.50755 0.92141 0.0
H5796 H 0.05937 0.54388 0.89067 0.0
H5797 H 0.03762 0.56377 0.88993 0.0
C5798 C 0.95279 0.53659 0.84419 0.0
C5799 C 0.9502 0.55068 0.83429 0.0
C5800 C 0.96211 0.54201 0.86197 0.0
C5801 C 0.96931 0.56163 0.87015 0.0
C5802 C 0.96598 0.57585 0.86073 0.0
C5803 C 0.95628 0.57037 0.84287 0.0
C5804 C 0.98131 0.56662 0.88788 0.0
C5805 C 0.99584 0.55815 0.88842 0.0
C5806 C 0.97769 0.57774 0.90444 0.0
C5807 C 0.96219 0.58647 0.905 0.0
C5808 C 0.9651 0.60646 0.91169 0.0
C5809 C 0.95048 0.6147 0.91277 0.0
C5810 C 0.93287 0.60306 0.9073 0.0
C5811 C 0.92984 0.58314 0.90078 0.0
C5812 C 0.94441 0.57483 0.89971 0.0
C5813 C 0.03657 0.56797 0.95979 0.0
C5814 C 0.02558 0.55586 0.9699 0.0
C5815 C 0.02884 0.57397 0.94489 0.0
C5816 C 0.01003 0.56817 0.94017 0.0
C5817 C -0.001 0.55743 0.95117 0.0
C5818 C 0.00669 0.55117 0.96578 0.0
C5819 C 0.00195 0.56974 0.92193 0.0
C5820 C 0.9883 0.57941 0.92128 0.0
C5821 C 0.00581 0.55907 0.90529 0.0
C5822 C 0.01877 0.54701 0.9054 0.0
C5823 C 0.0152 0.53091 0.91409 0.0
C5824 C 0.02762 0.51981 0.91455 0.0
C5825 C 0.04355 0.52451 0.90615 0.0
C5826 C 0.04705 0.54029 0.89722 0.0
C5827 C 0.03469 0.5515 0.89679 0.0
H5828 H 0.05316 0.51591 0.90652 0.0
H5829 H 0.92157 0.60946 0.90817 0.0
H5830 H 0.32079 0.22095 0.5629 0.0
H5831 H 0.32315 0.23202 0.59685 0.0
H5832 H 0.28057 0.26005 0.58992 0.0
H5833 H 0.27869 0.24983 0.55613 0.0
H5834 H 0.30423 0.28091 0.61847 0.0
H5835 H 0.27251 0.2119 0.59862 0.0
H5836 H 0.2711 0.17841 0.58314 0.0
H5837 H 0.31765 0.17934 0.61925 0.0
H5838 H 0.3194 0.21286 0.63482 0.0
H5839 H 0.28939 0.29206 0.71472 0.0
H5840 H 0.28463 0.28512 0.68075 0.0
H5841 H 0.31068 0.23861 0.68002 0.0
H5842 H 0.3092 0.24142 0.71297 0.0
H5843 H 0.29288 0.22735 0.65312 0.0
H5844 H 0.32827 0.2976 0.67135 0.0
H5845 H 0.32914 0.33042 0.68845 0.0
H5846 H 0.27936 0.3281 0.65694 0.0
H5847 H 0.2782 0.29531 0.63972 0.0
C5848 C 0.31217 0.22978 0.56859 0.0
C5849 C 0.29941 0.23428 0.55675 0.0
C5850 C 0.31346 0.23603 0.58803 0.0
C5851 C 0.3017 0.24647 0.59605 0.0
C5852 C 0.28974 0.25195 0.58417 0.0
C5853 C 0.28865 0.24601 0.56477 0.0
C5854 C 0.30069 0.25033 0.61665 0.0
C5855 C 0.30203 0.26927 0.6262 0.0
C5856 C 0.29764 0.23524 0.6268 0.0
C5857 C 0.29612 0.21487 0.6178 0.0
C5858 C 0.28243 0.20494 0.60324 0.0
C5859 C 0.28159 0.18597 0.59445 0.0
C5860 C 0.29429 0.17676 0.60019 0.0
C5861 C 0.30782 0.18647 0.61481 0.0
C5862 C 0.30872 0.20544 0.62365 0.0
C5863 C 0.29267 0.27946 0.70709 0.0
C5864 C 0.29834 0.26653 0.71664 0.0
C5865 C 0.29109 0.27612 0.68745 0.0
C5866 C 0.29788 0.26162 0.677 0.0
C5867 C 0.30472 0.24959 0.68697 0.0
C5868 C 0.3042 0.25146 0.70619 0.0
C5869 C 0.29816 0.25846 0.65598 0.0
C5870 C 0.29604 0.2394 0.64599 0.0
C5871 C 0.30114 0.2736 0.64563 0.0
C5872 C 0.3031 0.29404 0.6544 0.0
C5873 C 0.31768 0.30424 0.66792 0.0
C5874 C 0.31816 0.32277 0.67768 0.0
C5875 C 0.30424 0.33123 0.67387 0.0
C5876 C 0.29009 0.32148 0.65991 0.0
C5877 C 0.28954 0.30297 0.65011 0.0
H5878 H 0.30429 0.34525 0.68183 0.0
H5879 H 0.29365 0.1621 0.59333 0.0
H5880 H 0.60397 0.49289 0.21013 0.0
H5881 H 0.59219 0.49665 0.17954 0.0
H5882 H 0.64654 0.5178 0.16664 0.0
H5883 H 0.6584 0.51363 0.19737 0.0
H5884 H 0.62668 0.54058 0.15558 0.0
H5885 H 0.61808 0.47303 0.14332 0.0
H5886 H 0.6084 0.43934 0.14768 0.0
H5887 H 0.55295 0.4413 0.14318 0.0
H5888 H 0.56232 0.4752 0.13912 0.0
H5889 H 0.60197 0.53602 0.05752 0.0
H5890 H 0.61343 0.53246 0.08826 0.0
H5891 H 0.55892 0.51502 0.10208 0.0
H5892 H 0.54735 0.51911 0.0711 0.0
H5893 H 0.57886 0.49036 0.11254 0.0
H5894 H 0.58993 0.56089 0.13048 0.0
H5895 H 0.6016 0.59499 0.12755 0.0
H5896 H 0.65376 0.58565 0.1191 0.0
H5897 H 0.64259 0.55172 0.12265 0.0
C5898 C 0.61356 0.49777 0.20064 0.0
C5899 C 0.63234 0.50229 0.2065 0.0
C5900 C 0.6067 0.50008 0.18291 0.0
C5901 C 0.61819 0.50752 0.17007 0.0
C5902 C 0.63703 0.51198 0.17581 0.0
C5903 C 0.64393 0.50927 0.1935 0.0
C5904 C 0.61049 0.51113 0.15125 0.0
C5905 C 0.61639 0.52936 0.14619 0.0
C5906 C 0.5967 0.49701 0.1385 0.0
C5907 C 0.59093 0.47676 0.1412 0.0
C5908 C 0.60383 0.46637 0.14349 0.0
C5909 C 0.59841 0.44723 0.14585 0.0
C5910 C 0.58009 0.43824 0.1458 0.0
C5911 C 0.56714 0.44834 0.14329 0.0
C5912 C 0.57251 0.46753 0.14096 0.0
C5913 C 0.59229 0.53185 0.06718 0.0
C5914 C 0.57359 0.52826 0.06148 0.0
C5915 C 0.59897 0.52978 0.08504 0.0
C5916 C 0.58734 0.5235 0.09821 0.0
C5917 C 0.56854 0.51994 0.09262 0.0
C5918 C 0.56181 0.52246 0.07476 0.0
C5919 C 0.59491 0.51986 0.11705 0.0
C5920 C 0.58904 0.50158 0.12205 0.0
C5921 C 0.60889 0.53382 0.12965 0.0
C5922 C 0.61539 0.55379 0.12659 0.0
C5923 C 0.60385 0.56611 0.12787 0.0
C5924 C 0.61041 0.58542 0.12626 0.0
C5925 C 0.62834 0.59241 0.12297 0.0
C5926 C 0.63985 0.58019 0.12156 0.0
C5927 C 0.63347 0.56098 0.12353 0.0
H5928 H 0.63334 0.60732 0.1216 0.0
H5929 H 0.57595 0.42345 0.14767 0.0
H5930 H 0.29341 0.87043 0.96753 0.0
H5931 H 0.29888 0.8488 0.93975 0.0
H5932 H 0.32897 0.89848 0.91998 0.0
H5933 H 0.32394 0.91996 0.94794 0.0
H5934 H 0.30197 0.87178 0.89323 0.0
H5935 H 0.35185 0.87421 0.93653 0.0
H5936 H 0.36756 0.87135 0.96584 0.0
H5937 H 0.3405 0.8107 0.95591 0.0
H5938 H 0.32432 0.81327 0.92668 0.0
H5939 H 0.33867 0.83312 0.81901 0.0
H5940 H 0.34183 0.84892 0.85168 0.0
H5941 H 0.30883 0.79675 0.86484 0.0
H5942 H 0.30634 0.78035 0.83213 0.0
H5943 H 0.33704 0.82315 0.89544 0.0
H5944 H 0.28579 0.82282 0.85185 0.0
H5945 H 0.27433 0.82649 0.82084 0.0
H5946 H 0.30762 0.88494 0.83089 0.0
H5947 H 0.3194 0.88159 0.86194 0.0
C5948 C 0.30107 0.87659 0.95712 0.0
C5949 C 0.30808 0.89668 0.95947 0.0
C5950 C 0.3043 0.86432 0.94144 0.0
C5951 C 0.31436 0.87213 0.92795 0.0
C5952 C 0.32119 0.89226 0.93029 0.0
C5953 C 0.31827 0.90446 0.94612 0.0
C5954 C 0.31729 0.8594 0.91101 0.0
C5955 C 0.30969 0.86122 0.89375 0.0
C5956 C 0.32725 0.84553 0.91178 0.0
C5957 C 0.33663 0.844 0.92956 0.0
C5958 C 0.34902 0.86032 0.94073 0.0
C5959 C 0.35807 0.85874 0.9573 0.0
C5960 C 0.35497 0.84087 0.96278 0.0
C5961 C 0.34283 0.82455 0.95168 0.0
C5962 C 0.33371 0.82606 0.93511 0.0
C5963 C 0.3325 0.82475 0.82888 0.0
C5964 C 0.32138 0.80581 0.82285 0.0
C5965 C 0.33447 0.83378 0.84758 0.0
C5966 C 0.32513 0.82412 0.86043 0.0
C5967 C 0.31596 0.80446 0.85499 0.0
C5968 C 0.31426 0.79525 0.83625 0.0
C5969 C 0.32172 0.83562 0.87787 0.0
C5970 C 0.32914 0.83356 0.8951 0.0
C5971 C 0.3117 0.84942 0.87717 0.0
C5972 C 0.30353 0.85193 0.85917 0.0
C5973 C 0.29063 0.83647 0.84746 0.0
C5974 C 0.28413 0.83847 0.82985 0.0
C5975 C 0.29036 0.85589 0.82384 0.0
C5976 C 0.30288 0.87144 0.83555 0.0
C5977 C 0.30942 0.86953 0.85318 0.0
H5978 H 0.28542 0.85741 0.81019 0.0
H5979 H 0.36203 0.83967 0.97559 0.0
H5980 H 0.94007 0.51523 0.72014 0.0
H5981 H 0.95541 0.51972 0.69252 0.0
H5982 H 0.97379 0.58125 0.71441 0.0
H5983 H 0.95781 0.57677 0.7423 0.0
H5984 H 0.96361 0.56804 0.67224 0.0
H5985 H 0.00362 0.56176 0.72141 0.0
H5986 H 0.01235 0.54878 0.74846 0.0
H5987 H 0.00111 0.49196 0.71394 0.0
H5988 H 0.99203 0.50452 0.68675 0.0
H5989 H 0.03085 0.53837 0.60654 0.0
H5990 H 0.0195 0.55784 0.63191 0.0
H5991 H 0.97693 0.50744 0.63479 0.0
H5992 H 0.98808 0.48815 0.60961 0.0
H5993 H 0.00804 0.52869 0.6679 0.0
H5994 H 0.96513 0.53759 0.61888 0.0
H5995 H 0.95637 0.55301 0.59368 0.0
H5996 H 0.97562 0.60896 0.62966 0.0
H5997 H 0.98518 0.59403 0.65487 0.0
C5998 C 0.94704 0.52978 0.7189 0.0
C5999 C 0.948 0.54564 0.73333 0.0
C6000 C 0.95576 0.53234 0.70313 0.0
C6001 C 0.96596 0.55075 0.70164 0.0
C6002 C 0.96598 0.56693 0.71541 0.0
C6003 C 0.95691 0.56438 0.73125 0.0
C6004 C 0.97797 0.552 0.68665 0.0
C6005 C 0.97372 0.55992 0.67138 0.0
C6006 C 0.9914 0.54175 0.6858 0.0
C6007 C 0.99715 0.53411 0.70203 0.0
C6008 C 0.00294 0.54648 0.7196 0.0
C6009 C 0.00795 0.5392 0.73496 0.0
C6010 C 0.00729 0.51956 0.73291 0.0
C6011 C 0.00164 0.50718 0.71549 0.0
C6012 C 0.9966 0.51438 0.70009 0.0
C6013 C 0.01876 0.5317 0.61228 0.0
C6014 C 0.01042 0.51177 0.60636 0.0
C6015 C 0.01229 0.54281 0.62667 0.0
C6016 C 0.99732 0.53406 0.63504 0.0
C6017 C 0.98841 0.51445 0.62833 0.0
C6018 C 0.99488 0.50341 0.61412 0.0
C6019 C 0.99283 0.54359 0.65299 0.0
C6020 C 0.99856 0.53758 0.66893 0.0
C6021 C 0.98111 0.55592 0.65443 0.0
C6022 C 0.97613 0.56467 0.63873 0.0
C6023 C 0.96788 0.55319 0.62133 0.0
C6024 C 0.96264 0.56184 0.60707 0.0
C6025 C 0.9653 0.5819 0.61013 0.0
C6026 C 0.97352 0.59342 0.62732 0.0
C6027 C 0.97891 0.58487 0.64157 0.0
H6028 H 0.96094 0.58856 0.59923 0.0
H6029 H 0.01116 0.51395 0.74483 0.0
H6030 H 0.33081 0.23317 0.46016 0.0
H6031 H 0.33624 0.23849 0.42834 0.0
H6032 H 0.28191 0.20432 0.40775 0.0
H6033 H 0.27647 0.19936 0.43931 0.0
H6034 H 0.30692 0.19601 0.38402 0.0
H6035 H 0.29044 0.25174 0.41772 0.0
H6036 H 0.29404 0.28008 0.4432 0.0
H6037 H 0.3467 0.30534 0.42856 0.0
H6038 H 0.3435 0.27698 0.40313 0.0
H6039 H 0.27843 0.22216 0.30146 0.0
H6040 H 0.28352 0.21452 0.33192 0.0
H6041 H 0.33336 0.25999 0.34381 0.0
H6042 H 0.32741 0.26883 0.31382 0.0
H6043 H 0.31665 0.26274 0.37251 0.0
H6044 H 0.32819 0.20857 0.33285 0.0
H6045 H 0.32129 0.18088 0.30627 0.0
H6046 H 0.27648 0.15163 0.33167 0.0
H6047 H 0.2824 0.17958 0.3579 0.0
C6048 C 0.32022 0.22661 0.44871 0.0
C6049 C 0.30327 0.21581 0.45202 0.0
C6050 C 0.32327 0.22969 0.43061 0.0
C6051 C 0.30946 0.22182 0.41566 0.0
C6052 C 0.29279 0.21045 0.419 0.0
C6053 C 0.28968 0.20766 0.43701 0.0
C6054 C 0.31167 0.2261 0.39667 0.0
C6055 C 0.30907 0.21058 0.38141 0.0
C6056 C 0.31487 0.24516 0.39336 0.0
C6057 C 0.31686 0.26212 0.40873 0.0
C6058 C 0.30287 0.26324 0.42007 0.0
C6059 C 0.30481 0.27932 0.43447 0.0
C6060 C 0.32062 0.29446 0.43755 0.0
C6061 C 0.33449 0.29357 0.4262 0.0
C6062 C 0.33262 0.2775 0.4118 0.0
C6063 C 0.29041 0.2307 0.31054 0.0
C6064 C 0.302 0.24681 0.3055 0.0
C6065 C 0.2935 0.22606 0.32796 0.0
C6066 C 0.30889 0.2366 0.34036 0.0
C6067 C 0.32124 0.25176 0.33472 0.0
C6068 C 0.31781 0.25682 0.31752 0.0
C6069 C 0.31148 0.23255 0.35953 0.0
C6070 C 0.31497 0.24815 0.37492 0.0
C6071 C 0.30894 0.21348 0.36289 0.0
C6072 C 0.30578 0.19628 0.34741 0.0
C6073 C 0.31684 0.19627 0.33278 0.0
C6074 C 0.31307 0.18053 0.31773 0.0
C6075 C 0.29859 0.16443 0.31736 0.0
C6076 C 0.28774 0.16409 0.33199 0.0
C6077 C 0.29125 0.17994 0.34693 0.0
H6078 H 0.29574 0.15223 0.30572 0.0
H6079 H 0.32209 0.30692 0.44869 0.0
H6080 H 0.34069 0.63618 0.5255 0.0
H6081 H 0.36805 0.6245 0.52597 0.0
H6082 H 0.33612 0.56683 0.50071 0.0
H6083 H 0.30889 0.5783 0.50004 0.0
H6084 H 0.36235 0.56863 0.53097 0.0
H6085 H 0.35706 0.59485 0.47383 0.0
H6086 H 0.35568 0.62155 0.45768 0.0
H6087 H 0.40674 0.6555 0.48738 0.0
H6088 H 0.40829 0.62907 0.50387 0.0
H6089 H 0.41325 0.51211 0.48453 0.0
H6090 H 0.39175 0.5308 0.49374 0.0
H6091 H 0.43482 0.58364 0.50428 0.0
H6092 H 0.45615 0.56508 0.49394 0.0
H6093 H 0.40708 0.58966 0.48771 0.0
H6094 H 0.41638 0.56362 0.54066 0.0
H6095 H 0.41941 0.53929 0.55929 0.0
H6096 H 0.36384 0.50837 0.54213 0.0
H6097 H 0.36053 0.53234 0.52316 0.0
C6098 C 0.33952 0.62099 0.52019 0.0
C6099 C 0.32269 0.60816 0.51259 0.0
C6100 C 0.35512 0.61437 0.52048 0.0
C6101 C 0.35403 0.59484 0.51333 0.0
C6102 C 0.33718 0.58194 0.50634 0.0
C6103 C 0.32167 0.58855 0.50585 0.0
C6104 C 0.37041 0.58776 0.51196 0.0
C6105 C 0.37216 0.57314 0.52151 0.0
C6106 C 0.38359 0.59437 0.50029 0.0
C6107 C 0.38269 0.6101 0.49022 0.0
C6108 C 0.36792 0.60807 0.477 0.0
C6109 C 0.36712 0.62314 0.46778 0.0
C6110 C 0.38109 0.64023 0.47154 0.0
C6111 C 0.39592 0.64227 0.4845 0.0
C6112 C 0.39677 0.62725 0.49378 0.0
C6113 C 0.4181 0.52773 0.48854 0.0
C6114 C 0.43644 0.53712 0.48863 0.0
C6115 C 0.40586 0.53838 0.49411 0.0
C6116 C 0.41175 0.55859 0.50016 0.0
C6117 C 0.42998 0.56805 0.49987 0.0
C6118 C 0.44219 0.55742 0.4941 0.0
C6119 C 0.39868 0.5698 0.50611 0.0
C6120 C 0.39756 0.58529 0.49748 0.0
C6121 C 0.38636 0.56431 0.51904 0.0
C6122 C 0.38825 0.54974 0.53036 0.0
C6123 C 0.40484 0.55155 0.54073 0.0
C6124 C 0.4066 0.53783 0.55137 0.0
C6125 C 0.39183 0.52228 0.55187 0.0
C6126 C 0.37527 0.52042 0.54173 0.0
C6127 C 0.37344 0.53409 0.53104 0.0
H6128 H 0.39322 0.51168 0.56013 0.0
H6129 H 0.38045 0.65188 0.46439 0.0
H6130 H 0.87238 0.90622 0.55036 0.0
H6131 H 0.90008 0.93084 0.54919 0.0
H6132 H 0.86955 0.96203 0.52111 0.0
H6133 H 0.8415 0.9372 0.52224 0.0
H6134 H 0.89928 0.95624 0.50318 0.0
H6135 H 0.88819 0.98135 0.56482 0.0
H6136 H 0.88064 0.98022 0.59694 0.0
H6137 H 0.92793 0.96119 0.60896 0.0
H6138 H 0.93563 0.96192 0.57682 0.0
H6139 H 0.98296 0.02984 0.50783 0.0
H6140 H 0.95153 0.01459 0.51208 0.0
H6141 H 0.96959 0.97387 0.5396 0.0
H6142 H 0.00082 0.98882 0.53526 0.0
H6143 H 0.94416 0.9895 0.55819 0.0
H6144 H 0.95281 0.9599 0.49621 0.0
H6145 H 0.96102 0.96038 0.46421 0.0
H6146 H 0.91862 0.98704 0.45295 0.0
H6147 H 0.91038 0.98707 0.48504 0.0
C6148 C 0.87146 0.91846 0.54418 0.0
C6149 C 0.85471 0.91975 0.5364 0.0
C6150 C 0.88734 0.93258 0.54358 0.0
C6151 C 0.88691 0.94835 0.53514 0.0
C6152 C 0.87018 0.94999 0.52773 0.0
C6153 C 0.85416 0.93589 0.52851 0.0
C6154 C 0.90419 0.96229 0.53325 0.0
C6155 C 0.90891 0.96392 0.51524 0.0
C6156 C 0.91694 0.97197 0.54894 0.0
C6157 C 0.91242 0.97159 0.56835 0.0
C6158 C 0.89691 0.97679 0.57426 0.0
C6159 C 0.89262 0.97624 0.59248 0.0
C6160 C 0.90379 0.97061 0.60497 0.0
C6161 C 0.91929 0.96555 0.59927 0.0
C6162 C 0.92364 0.96606 0.58106 0.0
C6163 C 0.98019 0.01766 0.51481 0.0
C6164 C 0.99432 0.01043 0.52109 0.0
C6165 C 0.96226 0.00898 0.51722 0.0
C6166 C 0.95824 0.99308 0.52614 0.0
C6167 C 0.97239 0.98614 0.53273 0.0
C6168 C 0.99022 0.99461 0.5301 0.0
C6169 C 0.93929 0.98315 0.52817 0.0
C6170 C 0.93433 0.9822 0.54618 0.0
C6171 C 0.92638 0.97401 0.51249 0.0
C6172 C 0.93113 0.97373 0.4931 0.0
C6173 C 0.94534 0.96603 0.48697 0.0
C6174 C 0.94999 0.96619 0.46881 0.0
C6175 C 0.94039 0.97379 0.45657 0.0
C6176 C 0.92608 0.9812 0.46246 0.0
C6177 C 0.92141 0.98114 0.48064 0.0
H6178 H 0.944 0.9739 0.44252 0.0
H6179 H 0.90044 0.97019 0.61907 0.0
H6180 H 0.86663 0.09727 0.26267 0.0
H6181 H 0.85384 0.12467 0.2632 0.0
H6182 H 0.90722 0.16356 0.2738 0.0
H6183 H 0.92032 0.13566 0.27375 0.0
H6184 H 0.88619 0.18297 0.2918 0.0
H6185 H 0.87781 0.14917 0.22818 0.0
H6186 H 0.86808 0.12119 0.20182 0.0
H6187 H 0.81316 0.1126 0.21451 0.0
H6188 H 0.82259 0.14039 0.24109 0.0
H6189 H 0.83334 0.23925 0.23354 0.0
H6190 H 0.84692 0.21267 0.23615 0.0
H6191 H 0.83768 0.21845 0.29407 0.0
H6192 H 0.82378 0.24528 0.29134 0.0
H6193 H 0.83796 0.17778 0.24155 0.0
H6194 H 0.86965 0.20088 0.3185 0.0
H6195 H 0.88172 0.23075 0.34246 0.0
H6196 H 0.89355 0.26374 0.2995 0.0
H6197 H 0.88176 0.23404 0.2753 0.0
C6198 C 0.87595 0.11155 0.26515 0.0
C6199 C 0.89485 0.11355 0.26803 0.0
C6200 C 0.8684 0.12758 0.26529 0.0
C6201 C 0.87917 0.14691 0.26804 0.0
C6202 C 0.89813 0.14916 0.27147 0.0
C6203 C 0.90578 0.13295 0.27142 0.0
C6204 C 0.87049 0.16415 0.26705 0.0
C6205 C 0.87558 0.18156 0.28079 0.0
C6206 C 0.85665 0.16342 0.25269 0.0
C6207 C 0.85094 0.14674 0.23672 0.0
C6208 C 0.86367 0.14124 0.22541 0.0
C6209 C 0.85821 0.12542 0.21042 0.0
C6210 C 0.84002 0.11509 0.20652 0.0
C6211 C 0.82725 0.12059 0.21757 0.0
C6212 C 0.83264 0.13639 0.23258 0.0
C6213 C 0.83395 0.23486 0.24689 0.0
C6214 C 0.82701 0.24474 0.26208 0.0
C6215 C 0.84187 0.21938 0.2484 0.0
C6216 C 0.84387 0.21297 0.26537 0.0
C6217 C 0.83684 0.22276 0.2807 0.0
C6218 C 0.82859 0.23821 0.2791 0.0
C6219 C 0.85322 0.19633 0.26659 0.0
C6220 C 0.84836 0.17907 0.25275 0.0
C6221 C 0.86739 0.19737 0.28068 0.0
C6222 C 0.87463 0.21526 0.29511 0.0
C6223 C 0.87487 0.2145 0.31418 0.0
C6224 C 0.88166 0.2314 0.32779 0.0
C6225 C 0.88834 0.24914 0.3225 0.0
C6226 C 0.8883 0.25 0.30358 0.0
C6227 C 0.88155 0.23314 0.28991 0.0
H6228 H 0.89358 0.2622 0.33306 0.0
H6229 H 0.83582 0.10285 0.19491 0.0
H6230 H 0.73708 0.09427 0.01888 0.0
H6231 H 0.70436 0.08176 0.0195 0.0
H6232 H 0.69442 0.12296 0.98724 0.0
H6233 H 0.72693 0.13585 0.98698 0.0
H6234 H 0.67932 0.11963 0.02709 0.0
H6235 H 0.66411 0.07812 0.955 0.0
H6236 H 0.67728 0.0584 0.9314 0.0
H6237 H 0.69804 0.03357 0.97416 0.0
H6238 H 0.68462 0.05281 -0.00213 0.0
H6239 H 0.58435 0.10151 -0.00033 0.0
H6240 H 0.61743 0.11075 0.00268 0.0
H6241 H 0.61755 0.05234 0.00685 0.0
H6242 H 0.58476 0.04295 0.00182 0.0
H6243 H 0.63872 0.06318 0.98317 0.0
H6244 H 0.643 0.09759 0.05271 0.0
H6245 H 0.634 0.12055 0.07729 0.0
H6246 H 0.63736 0.16102 0.04079 0.0
H6247 H 0.64696 0.13863 0.01635 0.0
C6248 C 0.72786 0.1004 0.01168 0.0
C6249 C 0.73442 0.11605 0.00297 0.0
C6250 C 0.70926 0.09326 0.01203 0.0
C6251 C 0.69716 0.10144 0.00331 0.0
C6252 C 0.70367 0.11653 0.994 0.0
C6253 C 0.72218 0.12384 0.99389 0.0
C6254 C 0.67769 0.09533 0.00482 0.0
C6255 C 0.67038 0.10715 0.01769 0.0
C6256 C 0.66623 0.07925 0.99241 0.0
C6257 C 0.67355 0.06699 0.97816 0.0
C6258 C 0.67144 0.06839 0.95931 0.0
C6259 C 0.67893 0.05731 0.94592 0.0
C6260 C 0.68861 0.04486 0.9513 0.0
C6261 C 0.69064 0.04331 0.97003 0.0
C6262 C 0.68306 0.05425 0.98343 0.0
C6263 C 0.59154 0.09083 0.00168 0.0
C6264 C 0.58204 0.07164 0.0014 0.0
C6265 C 0.61045 0.09616 0.00365 0.0
C6266 C 0.62011 0.08243 0.00571 0.0
C6267 C 0.6105 0.06332 0.0056 0.0
C6268 C 0.5917 0.05797 0.00309 0.0
C6269 C 0.64004 0.08722 0.00593 0.0
C6270 C 0.64752 0.07536 0.99303 0.0
C6271 C 0.65171 0.10329 0.01842 0.0
C6272 C 0.64507 0.11625 0.0326 0.0
C6273 C 0.64151 0.11127 0.04991 0.0
C6274 C 0.63647 0.12422 0.06383 0.0
C6275 C 0.63479 0.14204 0.06047 0.0
C6276 C 0.63848 0.14713 0.04331 0.0
C6277 C 0.64384 0.1344 0.02949 0.0
H6278 H 0.63081 0.15197 0.07123 0.0
H6279 H 0.6945 0.03638 0.94097 0.0
H6280 H 0.20303 0.47749 0.22656 0.0
H6281 H 0.22046 0.45396 0.22919 0.0
H6282 H 0.26379 0.49916 0.26277 0.0
H6283 H 0.24653 0.52279 0.26029 0.0
H6284 H 0.2748 0.47185 0.23452 0.0
H6285 H 0.23403 0.47368 0.284 0.0
H6286 H 0.2038 0.47008 0.2948 0.0
H6287 H 0.18673 0.41153 0.26365 0.0
H6288 H 0.21677 0.41492 0.25239 0.0
H6289 H 0.32369 0.42215 0.28498 0.0
H6290 H 0.30794 0.44408 0.27367 0.0
H6291 H 0.26011 0.39658 0.25588 0.0
H6292 H 0.27472 0.37545 0.26885 0.0
H6293 H 0.25047 0.42393 0.2732 0.0
H6294 H 0.28738 0.41776 0.22447 0.0
H6295 H 0.31516 0.41764 0.20931 0.0
H6296 H 0.33654 0.47836 0.23228 0.0
H6297 H 0.30895 0.47875 0.24777 0.0
C6298 C 0.21634 0.48244 0.23436 0.0
C6299 C 0.22337 0.5019 0.24342 0.0
C6300 C 0.22625 0.46903 0.23578 0.0
C6301 C 0.24329 0.47495 0.2462 0.0
C6302 C 0.25065 0.49446 0.25462 0.0
C6303 C 0.24071 0.50785 0.25332 0.0
C6304 C 0.25285 0.46064 0.24982 0.0
C6305 C 0.26963 0.46138 0.24305 0.0
C6306 C 0.24559 0.4466 0.26028 0.0
C6307 C 0.22758 0.44464 0.26718 0.0
C6308 C 0.22378 0.46011 0.27931 0.0
C6309 C 0.20668 0.45809 0.28554 0.0
C6310 C 0.19333 0.44061 0.27987 0.0
C6311 C 0.19706 0.42509 0.26799 0.0
C6312 C 0.21412 0.42705 0.26169 0.0
C6313 C 0.30979 0.41646 0.27877 0.0
C6314 C 0.30065 0.39693 0.27762 0.0
C6315 C 0.3009 0.42891 0.27203 0.0
C6316 C 0.28291 0.42188 0.26373 0.0
C6317 C 0.27399 0.40234 0.2622 0.0
C6318 C 0.28257 0.39015 0.26939 0.0
C6319 C 0.27269 0.43498 0.25797 0.0
C6320 C 0.25573 0.43414 0.26445 0.0
C6321 C 0.27948 0.44832 0.24659 0.0
C6322 C 0.29618 0.44821 0.23745 0.0
C6323 C 0.29808 0.43103 0.22642 0.0
C6324 C 0.31377 0.43092 0.21775 0.0
C6325 C 0.32763 0.44797 0.21989 0.0
C6326 C 0.3258 0.46516 0.23067 0.0
C6327 C 0.31013 0.46533 0.23939 0.0
H6328 H 0.33978 0.44787 0.21315 0.0
H6329 H 0.18011 0.43908 0.28471 0.0
H6330 H 0.26017 0.421 0.98836 0.0
H6331 H 0.23627 0.4376 0.9882 0.0
H6332 H 0.22715 0.42961 0.04414 0.0
H6333 H 0.25117 0.4127 0.04438 0.0
H6334 H 0.19477 0.42278 0.02141 0.0
H6335 H 0.24953 0.47313 0.03806 0.0
H6336 H 0.28083 0.4907 0.03538 0.0
H6337 H 0.26434 0.49928 0.9811 0.0
H6338 H 0.23297 0.48151 0.98334 0.0
H6339 H 0.14287 0.49499 0.03001 0.0
H6340 H 0.1634 0.47476 0.03482 0.0
H6341 H 0.18125 0.47894 0.9806 0.0
H6342 H 0.16086 0.49892 0.97575 0.0
H6343 H 0.20944 0.48852 0.00676 0.0
H6344 H 0.15478 0.43643 0.98964 0.0
H6345 H 0.12359 0.41857 0.99245 0.0
H6346 H 0.13978 0.41368 0.04821 0.0
H6347 H 0.17104 0.4317 0.0458 0.0
C6348 C 0.25316 0.42275 0.0007 0.0
C6349 C 0.25777 0.4156 0.01645 0.0
C6350 C 0.23944 0.43229 0.00058 0.0
C6351 C 0.22996 0.43509 0.01623 0.0
C6352 C 0.23426 0.42768 0.0319 0.0
C6353 C 0.24808 0.41811 0.03205 0.0
C6354 C 0.21597 0.44619 0.01613 0.0
C6355 C 0.19802 0.43729 0.01852 0.0
C6356 C 0.22009 0.46506 0.01218 0.0
C6357 C 0.23892 0.47586 0.01082 0.0
C6358 C 0.2526 0.47865 0.0255 0.0
C6359 C 0.27035 0.48866 0.02406 0.0
C6360 C 0.27458 0.49607 0.00807 0.0
C6361 C 0.26105 0.49352 0.99348 0.0
C6362 C 0.24327 0.4835 0.99483 0.0
C6363 C 0.15091 0.49126 0.01898 0.0
C6364 C 0.15037 0.49883 0.00259 0.0
C6365 C 0.16269 0.47971 0.02175 0.0
C6366 C 0.17404 0.47538 0.00812 0.0
C6367 C 0.17284 0.48221 0.99144 0.0
C6368 C 0.16116 0.4937 0.98869 0.0
C6369 C 0.18808 0.46495 0.01147 0.0
C6370 C 0.20614 0.47406 0.00978 0.0
C6371 C 0.18401 0.44636 0.01613 0.0
C6372 C 0.1652 0.43563 0.01762 0.0
C6373 C 0.15165 0.43172 0.00257 0.0
C6374 C 0.13397 0.42152 0.00407 0.0
C6375 C 0.12969 0.41506 0.02052 0.0
C6376 C 0.1431 0.41873 0.03549 0.0
C6377 C 0.16081 0.42892 0.03406 0.0
H6378 H 0.116 0.40716 0.02166 0.0
H6379 H 0.28834 0.50381 0.00698 0.0
H6380 H 0.87849 0.00813 0.2464 0.0
H6381 H 0.85931 0.9751 0.24536 0.0
H6382 H 0.89959 0.96531 0.28339 0.0
H6383 H 0.91861 0.9976 0.28401 0.0
H6384 H 0.89027 0.9353 0.25766 0.0
H6385 H 0.85466 0.97185 0.2941 0.0
H6386 H 0.83679 0.99581 0.29957 0.0
H6387 H 0.80004 0.96506 0.25091 0.0
H6388 H 0.81781 0.94103 0.24505 0.0
H6389 H 0.8459 0.84781 0.2835 0.0
H6390 H 0.86028 0.88159 0.28285 0.0
H6391 H 0.81543 0.88292 0.24524 0.0
H6392 H 0.80082 0.84907 0.24618 0.0
H6393 H 0.8255 0.9167 0.26737 0.0
H6394 H 0.85912 0.87981 0.23108 0.0
H6395 H 0.8765 0.85562 0.22384 0.0
H6396 H 0.91673 0.88685 0.26956 0.0
H6397 H 0.89947 0.9111 0.27723 0.0
C6398 C 0.88304 0.99908 0.25485 0.0
C6399 C 0.90019 0.00581 0.26538 0.0
C6400 C 0.87204 0.98001 0.25423 0.0
C6401 C 0.87778 0.9672 0.2643 0.0
C6402 C 0.89463 0.97438 0.27526 0.0
C6403 C 0.90555 0.99313 0.27572 0.0
C6404 C 0.86708 0.94619 0.26315 0.0
C6405 C 0.87616 0.93143 0.26007 0.0
C6406 C 0.84837 0.94042 0.26544 0.0
C6407 C 0.83766 0.95478 0.26903 0.0
C6408 C 0.84283 0.97028 0.28451 0.0
C6409 C 0.83271 0.98385 0.28769 0.0
C6410 C 0.81732 0.98199 0.27557 0.0
C6411 C 0.81198 0.9665 0.26027 0.0
C6412 C 0.82206 0.9529 0.25702 0.0
C6413 C 0.83898 0.85522 0.27509 0.0
C6414 C 0.82194 0.84544 0.26506 0.0
C6415 C 0.84736 0.87471 0.27462 0.0
C6416 C 0.83931 0.88522 0.26372 0.0
C6417 C 0.82215 0.87554 0.25386 0.0
C6418 C 0.81366 0.85603 0.25449 0.0
C6419 C 0.8489 0.906 0.26251 0.0
C6420 C 0.83962 0.92062 0.26502 0.0
C6421 C 0.86742 0.91168 0.25946 0.0
C6422 C 0.87791 0.89719 0.25483 0.0
C6423 C 0.87162 0.88146 0.23966 0.0
C6424 C 0.88146 0.86774 0.23547 0.0
C6425 C 0.89769 0.86968 0.24626 0.0
C6426 C 0.90415 0.88536 0.26123 0.0
C6427 C 0.89435 0.89911 0.26549 0.0
H6428 H 0.90529 0.85904 0.24299 0.0
H6429 H 0.80951 0.99252 0.27805 0.0
H6430 H 0.7361 0.08473 0.75907 0.0
H6431 H 0.75738 0.11671 0.76394 0.0
H6432 H 0.74423 0.11945 0.70647 0.0
H6433 H 0.72194 0.08804 0.70204 0.0
H6434 H 0.78417 0.14194 0.75379 0.0
H6435 H 0.73047 0.15841 0.70489 0.0
H6436 H 0.69861 0.14411 0.69161 0.0
H6437 H 0.68817 0.11633 0.73837 0.0
H6438 H 0.71988 0.13062 0.75198 0.0
H6439 H 0.80842 0.24441 0.77098 0.0
H6440 H 0.80162 0.21053 0.75594 0.0
H6441 H 0.74665 0.20302 0.76971 0.0
H6442 H 0.75289 0.23795 0.78082 0.0
H6443 H 0.74373 0.18254 0.74004 0.0
H6444 H 0.78718 0.19152 0.79384 0.0
H6445 H 0.8167 0.20895 0.81137 0.0
H6446 H 0.84367 0.18547 0.7668 0.0
H6447 H 0.81419 0.16898 0.74834 0.0
C6448 C 0.73843 0.09178 0.74726 0.0
C6449 C 0.72731 0.08427 0.7303 0.0
C6450 C 0.75062 0.11006 0.75004 0.0
C6451 C 0.75188 0.12072 0.73574 0.0
C6452 C 0.74308 0.11162 0.7178 0.0
C6453 C 0.73043 0.09367 0.71523 0.0
C6454 C 0.75835 0.14211 0.74074 0.0
C6455 C 0.77542 0.1509 0.75076 0.0
C6456 C 0.7467 0.15374 0.73728 0.0
C6457 C 0.72757 0.14534 0.72927 0.0
C6458 C 0.72135 0.14927 0.71232 0.0
C6459 C 0.70332 0.14117 0.70475 0.0
C6460 C 0.6914 0.12925 0.71409 0.0
C6461 C 0.69743 0.12549 0.7311 0.0
C6462 C 0.71542 0.13358 0.73874 0.0
C6463 C 0.79473 0.23572 0.76969 0.0
C6464 C 0.78089 0.24393 0.77548 0.0
C6465 C 0.79092 0.21607 0.76181 0.0
C6466 C 0.77359 0.20385 0.76168 0.0
C6467 C 0.76006 0.21201 0.76907 0.0
C6468 C 0.76363 0.23192 0.77566 0.0
C6469 C 0.76933 0.18264 0.75401 0.0
C6470 C 0.75266 0.1738 0.74317 0.0
C6471 C 0.78092 0.17096 0.75786 0.0
C6472 C 0.79848 0.1791 0.76968 0.0
C6473 C 0.7994 0.18996 0.78782 0.0
C6474 C 0.81615 0.19978 0.79789 0.0
C6475 C 0.8321 0.19816 0.79035 0.0
C6476 C 0.83131 0.1867 0.77266 0.0
C6477 C 0.81457 0.17723 0.76231 0.0
H6478 H 0.84506 0.20586 0.79816 0.0
H6479 H 0.67747 0.12296 0.70819 0.0
loop_
_geom_bond_atom_site_label_1
_geom_bond_atom_site_label_2
_geom_bond_distance
_geom_bond_site_symmetry_2
_ccdc_geom_bond_type
Zn0 O3 2.031 . S
Zn0 O5 2.049 . S
Zn0 O10 2.067 . S
Zn1 O2 1.962 . S
Zn1 O4 1.986 . S
Zn1 O6 1.996 . S
Zn1 O9 1.943 . S
O2 Zn1 1.962 . S
O2 C7 1.254 . S
O3 Zn0 2.031 . S
O3 C7 1.269 . S
O4 Zn1 1.986 . S
O4 C11 1.262 . S
O5 Zn0 2.049 . S
O5 C13 1.260 . S
O6 Zn1 1.996 . S
O6 C13 1.257 . S
C7 O2 1.254 . S
C7 O3 1.269 . S
C8 O9 1.249 . S
C8 O10 1.270 . S
O9 Zn1 1.943 . S
O9 C8 1.249 . S
O10 Zn0 2.067 . S
O10 C8 1.270 . S
C11 O4 1.262 . S
C11 O12 1.232 . S
O12 C11 1.232 . S
C13 O5 1.260 . S
C13 O6 1.257 . S
Zn14 O17 1.975 1_455 S
Zn14 O19 2.105 . S
Zn14 O24 2.082 . S
Zn15 O16 1.951 1_455 S
Zn15 O18 1.990 . S
Zn15 O20 2.005 . S
Zn15 O23 1.945 1_455 S
O16 Zn15 1.951 1_655 S
O16 C21 1.254 . S
O17 Zn14 1.975 1_655 S
O17 C21 1.269 . S
O18 Zn15 1.990 . S
O18 C25 1.262 . S
O19 Zn14 2.105 . S
O19 C27 1.260 . S
O20 Zn15 2.005 . S
O20 C27 1.257 . S
C21 O16 1.254 . S
C21 O17 1.269 . S
C22 O23 1.249 . S
C22 O24 1.270 1_655 S
O23 Zn15 1.945 1_655 S
O23 C22 1.249 . S
O24 Zn14 2.082 . S
O24 C22 1.270 1_455 S
C25 O18 1.262 . S
C25 O26 1.232 1_455 S
O26 C25 1.232 1_655 S
C27 O19 1.260 . S
C27 O20 1.257 . S
Zn28 O31 2.031 . S
Zn28 O33 2.049 . S
Zn28 O38 2.067 . S
Zn29 O30 1.962 . S
Zn29 O32 1.986 . S
Zn29 O34 1.996 . S
Zn29 O37 1.943 . S
O30 Zn29 1.962 . S
O30 C35 1.254 . S
O31 Zn28 2.031 . S
O31 C35 1.269 . S
O32 Zn29 1.986 . S
O32 C39 1.262 . S
O33 Zn28 2.049 . S
O33 C41 1.260 . S
O34 Zn29 1.996 . S
O34 C41 1.257 . S
C35 O30 1.254 . S
C35 O31 1.269 . S
C36 O37 1.249 . S
C36 O38 1.270 . S
O37 Zn29 1.943 . S
O37 C36 1.249 . S
O38 Zn28 2.067 . S
O38 C36 1.270 . S
C39 O32 1.262 . S
C39 O40 1.232 . S
O40 C39 1.232 . S
C41 O33 1.260 . S
C41 O34 1.257 . S
Zn42 O45 2.031 . S
Zn42 O47 2.049 . S
Zn42 O52 2.067 . S
Zn43 O44 1.962 . S
Zn43 O46 1.986 . S
Zn43 O48 1.996 . S
Zn43 O51 1.943 . S
O44 Zn43 1.962 . S
O44 C49 1.254 . S
O45 Zn42 2.031 . S
O45 C49 1.269 . S
O46 Zn43 1.986 . S
O46 C53 1.262 . S
O47 Zn42 2.049 . S
O47 C55 1.260 . S
O48 Zn43 1.996 . S
O48 C55 1.257 . S
C49 O44 1.254 . S
C49 O45 1.269 . S
C50 O51 1.249 . S
C50 O52 1.270 . S
O51 Zn43 1.943 . S
O51 C50 1.249 . S
O52 Zn42 2.067 . S
O52 C50 1.270 . S
C53 O46 1.262 . S
C53 O54 1.232 . S
O54 C53 1.232 . S
C55 O47 1.260 . S
C55 O48 1.257 . S
Zn56 O59 2.031 . S
Zn56 O61 2.049 . S
Zn56 O66 2.067 . S
Zn57 O58 1.962 . S
Zn57 O60 1.986 . S
Zn57 O62 1.996 . S
Zn57 O65 1.943 . S
O58 Zn57 1.962 . S
O58 C63 1.254 . S
O59 Zn56 2.031 . S
O59 C63 1.269 . S
O60 Zn57 1.986 . S
O60 C67 1.262 . S
O61 Zn56 2.049 . S
O61 C69 1.260 . S
O62 Zn57 1.996 . S
O62 C69 1.257 . S
C63 O58 1.254 . S
C63 O59 1.269 . S
C64 O65 1.249 . S
C64 O66 1.270 . S
O65 Zn57 1.943 . S
O65 C64 1.249 . S
O66 Zn56 2.067 . S
O66 C64 1.270 . S
C67 O60 1.262 . S
C67 O68 1.232 . S
O68 C67 1.232 . S
C69 O61 1.260 . S
C69 O62 1.257 . S
Zn70 O73 2.031 . S
Zn70 O75 2.049 . S
Zn70 O80 2.067 . S
Zn71 O72 1.962 . S
Zn71 O74 1.986 . S
Zn71 O76 1.996 . S
Zn71 O79 1.943 . S
O72 Zn71 1.962 . S
O72 C77 1.254 . S
O73 Zn70 2.031 . S
O73 C77 1.269 . S
O74 Zn71 1.986 . S
O74 C81 1.262 . S
O75 Zn70 2.049 . S
O75 C83 1.260 . S
O76 Zn71 1.996 . S
O76 C83 1.257 . S
C77 O72 1.254 . S
C77 O73 1.269 . S
C78 O79 1.249 . S
C78 O80 1.270 . S
O79 Zn71 1.943 . S
O79 C78 1.249 . S
O80 Zn70 2.067 . S
O80 C78 1.270 . S
C81 O74 1.262 . S
C81 O82 1.232 . S
O82 C81 1.232 . S
C83 O75 1.260 . S
C83 O76 1.257 . S
Zn84 O87 2.031 . S
Zn84 O89 2.049 . S
Zn84 O94 2.067 . S
Zn85 O86 1.962 . S
Zn85 O88 1.986 . S
Zn85 O90 1.996 . S
Zn85 O93 1.943 . S
O86 Zn85 1.962 . S
O86 C91 1.254 . S
O87 Zn84 2.031 . S
O87 C91 1.269 . S
O88 Zn85 1.986 . S
O88 C95 1.262 . S
O89 Zn84 2.049 . S
O89 C97 1.260 . S
O90 Zn85 1.996 . S
O90 C97 1.257 . S
C91 O86 1.254 . S
C91 O87 1.269 . S
C92 O93 1.249 . S
C92 O94 1.270 . S
O93 Zn85 1.943 . S
O93 C92 1.249 . S
O94 Zn84 2.067 . S
O94 C92 1.270 . S
C95 O88 1.262 . S
C95 O96 1.232 . S
O96 C95 1.232 . S
C97 O89 1.260 . S
C97 O90 1.257 . S
Zn98 O101 2.031 1_655 S
Zn98 O103 2.049 . S
Zn98 O108 2.067 . S
Zn99 O100 1.962 . S
Zn99 O102 1.986 . S
Zn99 O104 1.996 . S
Zn99 O107 1.943 . S
O100 Zn99 1.962 . S
O100 C105 1.254 . S
O101 Zn98 2.031 1_455 S
O101 C105 1.269 . S
O102 Zn99 1.986 . S
O102 C109 1.262 . S
O103 Zn98 2.049 . S
O103 C111 1.260 1_655 S
O104 Zn99 1.996 . S
O104 C111 1.257 . S
C105 O100 1.254 . S
C105 O101 1.269 . S
C106 O107 1.249 1_655 S
C106 O108 1.270 . S
O107 Zn99 1.943 . S
O107 C106 1.249 1_455 S
O108 Zn98 2.067 . S
O108 C106 1.270 . S
C109 O102 1.262 . S
C109 O110 1.232 . S
O110 C109 1.232 . S
C111 O103 1.260 1_455 S
C111 O104 1.257 . S
Zn112 O115 2.031 . S
Zn112 O117 2.049 . S
Zn112 O122 2.067 1_545 S
Zn113 O114 1.962 . S
Zn113 O116 1.986 . S
Zn113 O118 1.996 . S
Zn113 O121 1.943 . S
O114 Zn113 1.962 . S
O114 C119 1.254 . S
O115 Zn112 2.031 . S
O115 C119 1.269 . S
O116 Zn113 1.986 . S
O116 C123 1.262 . S
O117 Zn112 2.049 . S
O117 C125 1.260 . S
O118 Zn113 1.996 . S
O118 C125 1.257 . S
C119 O114 1.254 . S
C119 O115 1.269 . S
C120 O121 1.249 1_565 S
C120 O122 1.270 . S
O121 Zn113 1.943 . S
O121 C120 1.249 1_545 S
O122 Zn112 2.067 1_565 S
O122 C120 1.270 . S
C123 O116 1.262 . S
C123 O124 1.232 . S
O124 C123 1.232 . S
C125 O117 1.260 . S
C125 O118 1.257 . S
Zn126 O129 2.031 . S
Zn126 O131 2.049 . S
Zn126 O136 2.067 . S
Zn127 O128 1.962 . S
Zn127 O130 1.986 . S
Zn127 O132 1.996 . S
Zn127 O135 1.943 . S
O128 Zn127 1.962 . S
O128 C133 1.254 . S
O129 Zn126 2.031 . S
O129 C133 1.269 . S
O130 Zn127 1.986 . S
O130 C137 1.262 . S
O131 Zn126 2.049 . S
O131 C139 1.260 . S
O132 Zn127 1.996 . S
O132 C139 1.257 . S
C133 O128 1.254 . S
C133 O129 1.269 . S
C134 O135 1.249 . S
C134 O136 1.270 . S
O135 Zn127 1.943 . S
O135 C134 1.249 . S
O136 Zn126 2.067 . S
O136 C134 1.270 . S
C137 O130 1.262 . S
C137 O138 1.232 . S
O138 C137 1.232 . S
C139 O131 1.260 . S
C139 O132 1.257 . S
Zn140 O143 2.031 . S
Zn140 O145 2.049 . S
Zn140 O150 2.067 . S
Zn141 O142 1.962 . S
Zn141 O144 1.986 . S
Zn141 O146 1.996 . S
Zn141 O149 1.943 1_565 S
O142 Zn141 1.962 . S
O142 C147 1.254 1_565 S
O143 Zn140 2.031 . S
O143 C147 1.269 . S
O144 Zn141 1.986 . S
O144 C151 1.262 . S
O145 Zn140 2.049 . S
O145 C153 1.260 1_545 S
O146 Zn141 1.996 . S
O146 C153 1.257 . S
C147 O142 1.254 1_545 S
C147 O143 1.269 . S
C148 O149 1.249 . S
C148 O150 1.270 . S
O149 Zn141 1.943 1_545 S
O149 C148 1.249 . S
O150 Zn140 2.067 . S
O150 C148 1.270 . S
C151 O144 1.262 . S
C151 O152 1.232 . S
O152 C151 1.232 . S
C153 O145 1.260 1_565 S
C153 O146 1.257 . S
Zn154 O157 2.031 1_554 S
Zn154 O159 2.049 . S
Zn154 O164 2.067 . S
Zn155 O156 1.962 1_554 S
Zn155 O158 1.986 . S
Zn155 O160 1.996 . S
Zn155 O163 1.943 . S
O156 Zn155 1.962 1_556 S
O156 C161 1.254 . S
O157 Zn154 2.031 1_556 S
O157 C161 1.269 . S
O158 Zn155 1.986 . S
O158 C165 1.262 . S
O159 Zn154 2.049 . S
O159 C167 1.260 . S
O160 Zn155 1.996 . S
O160 C167 1.257 . S
C161 O156 1.254 . S
C161 O157 1.269 . S
C162 O163 1.249 . S
C162 O164 1.270 . S
O163 Zn155 1.943 . S
O163 C162 1.249 . S
O164 Zn154 2.067 . S
O164 C162 1.270 . S
C165 O158 1.262 . S
C165 O166 1.232 . S
O166 C165 1.232 . S
C167 O159 1.260 . S
C167 O160 1.257 . S
Zn168 O171 2.031 . S
Zn168 O173 2.049 . S
Zn168 O178 2.067 . S
Zn169 O170 1.962 . S
Zn169 O172 1.986 . S
Zn169 O174 1.996 . S
Zn169 O177 1.943 . S
O170 Zn169 1.962 . S
O170 C175 1.254 . S
O171 Zn168 2.031 . S
O171 C175 1.269 . S
O172 Zn169 1.986 . S
O172 C179 1.262 . S
O173 Zn168 2.049 . S
O173 C181 1.260 . S
O174 Zn169 1.996 . S
O174 C181 1.257 . S
C175 O170 1.254 . S
C175 O171 1.269 . S
C176 O177 1.249 . S
C176 O178 1.270 . S
O177 Zn169 1.943 . S
O177 C176 1.249 . S
O178 Zn168 2.067 . S
O178 C176 1.270 . S
C179 O172 1.262 . S
C179 O180 1.232 . S
O180 C179 1.232 . S
C181 O173 1.260 . S
C181 O174 1.257 . S
Zn182 O185 2.031 . S
Zn182 O187 2.049 . S
Zn182 O192 2.067 . S
Zn183 O184 1.962 . S
Zn183 O186 1.986 . S
Zn183 O188 1.996 . S
Zn183 O191 1.943 . S
O184 Zn183 1.962 . S
O184 C189 1.254 1_554 S
O185 Zn182 2.031 . S
O185 C189 1.269 1_554 S
O186 Zn183 1.986 . S
O186 C193 1.262 . S
O187 Zn182 2.049 . S
O187 C195 1.260 . S
O188 Zn183 1.996 . S
O188 C195 1.257 . S
C189 O184 1.254 1_556 S
C189 O185 1.269 1_556 S
C190 O191 1.249 . S
C190 O192 1.270 . S
O191 Zn183 1.943 . S
O191 C190 1.249 . S
O192 Zn182 2.067 . S
O192 C190 1.270 . S
C193 O186 1.262 . S
C193 O194 1.232 . S
O194 C193 1.232 . S
C195 O187 1.260 . S
C195 O188 1.257 . S
Zn196 O199 2.031 . S
Zn196 O201 2.049 . S
Zn196 O206 2.067 . S
Zn197 O198 1.962 . S
Zn197 O200 1.986 . S
Zn197 O202 1.996 . S
Zn197 O205 1.943 . S
O198 Zn197 1.962 . S
O198 C203 1.254 . S
O199 Zn196 2.031 . S
O199 C203 1.269 . S
O200 Zn197 1.986 . S
O200 C207 1.262 . S
O201 Zn196 2.049 . S
O201 C209 1.260 . S
O202 Zn197 1.996 . S
O202 C209 1.257 . S
C203 O198 1.254 . S
C203 O199 1.269 . S
C204 O205 1.249 . S
C204 O206 1.270 . S
O205 Zn197 1.943 . S
O205 C204 1.249 . S
O206 Zn196 2.067 . S
O206 C204 1.270 . S
C207 O200 1.262 . S
C207 O208 1.232 . S
O208 C207 1.232 . S
C209 O201 1.260 . S
C209 O202 1.257 . S
Zn210 O213 2.031 . S
Zn210 O215 2.049 . S
Zn210 O220 2.067 . S
Zn211 O212 1.962 . S
Zn211 O214 1.986 . S
Zn211 O216 1.996 . S
Zn211 O219 1.943 . S
O212 Zn211 1.962 . S
O212 C217 1.254 . S
O213 Zn210 2.031 . S
O213 C217 1.269 . S
O214 Zn211 1.986 . S
O214 C221 1.262 . S
O215 Zn210 2.049 . S
O215 C223 1.260 . S
O216 Zn211 1.996 . S
O216 C223 1.257 . S
C217 O212 1.254 . S
C217 O213 1.269 . S
C218 O219 1.249 . S
C218 O220 1.270 . S
O219 Zn211 1.943 . S
O219 C218 1.249 . S
O220 Zn210 2.067 . S
O220 C218 1.270 . S
C221 O214 1.262 . S
C221 O222 1.232 . S
O222 C221 1.232 . S
C223 O215 1.260 . S
C223 O216 1.257 . S
Zn224 O227 2.031 . S
Zn224 O229 2.049 . S
Zn224 O234 2.067 . S
Zn225 O226 1.962 . S
Zn225 O228 1.986 . S
Zn225 O230 1.996 . S
Zn225 O233 1.943 . S
O226 Zn225 1.962 . S
O226 C231 1.254 . S
O227 Zn224 2.031 . S
O227 C231 1.269 . S
O228 Zn225 1.986 . S
O228 C235 1.262 . S
O229 Zn224 2.049 . S
O229 C237 1.260 . S
O230 Zn225 1.996 . S
O230 C237 1.257 . S
C231 O226 1.254 . S
C231 O227 1.269 . S
C232 O233 1.249 . S
C232 O234 1.270 . S
O233 Zn225 1.943 . S
O233 C232 1.249 . S
O234 Zn224 2.067 . S
O234 C232 1.270 . S
C235 O228 1.262 . S
C235 O236 1.232 . S
O236 C235 1.232 . S
C237 O229 1.260 . S
C237 O230 1.257 . S
Zn238 O241 2.031 . S
Zn238 O243 2.049 . S
Zn238 O248 2.067 . S
Zn239 O240 1.962 . S
Zn239 O242 1.986 . S
Zn239 O244 1.996 . S
Zn239 O247 1.943 . S
O240 Zn239 1.962 . S
O240 C245 1.254 . S
O241 Zn238 2.031 . S
O241 C245 1.269 . S
O242 Zn239 1.986 . S
O242 C249 1.262 . S
O243 Zn238 2.049 . S
O243 C251 1.260 . S
O244 Zn239 1.996 . S
O244 C251 1.257 . S
C245 O240 1.254 . S
C245 O241 1.269 . S
C246 O247 1.249 . S
C246 O248 1.270 . S
O247 Zn239 1.943 . S
O247 C246 1.249 . S
O248 Zn238 2.067 . S
O248 C246 1.270 . S
C249 O242 1.262 . S
C249 O250 1.232 . S
O250 C249 1.232 . S
C251 O243 1.260 . S
C251 O244 1.257 . S
Zn252 O255 2.031 . S
Zn252 O257 2.049 . S
Zn252 O262 2.067 . S
Zn253 O254 1.962 . S
Zn253 O256 1.986 . S
Zn253 O258 1.996 . S
Zn253 O261 1.943 . S
O254 Zn253 1.962 . S
O254 C259 1.254 . S
O255 Zn252 2.031 . S
O255 C259 1.269 . S
O256 Zn253 1.986 . S
O256 C263 1.262 . S
O257 Zn252 2.049 . S
O257 C265 1.260 . S
O258 Zn253 1.996 . S
O258 C265 1.257 . S
C259 O254 1.254 . S
C259 O255 1.269 . S
C260 O261 1.249 . S
C260 O262 1.270 . S
O261 Zn253 1.943 . S
O261 C260 1.249 . S
O262 Zn252 2.067 . S
O262 C260 1.270 . S
C263 O256 1.262 . S
C263 O264 1.232 . S
O264 C263 1.232 . S
C265 O257 1.260 . S
C265 O258 1.257 . S
Zn266 O269 2.031 . S
Zn266 O271 2.049 . S
Zn266 O276 2.067 . S
Zn267 O268 1.962 . S
Zn267 O270 1.986 . S
Zn267 O272 1.996 . S
Zn267 O275 1.943 . S
O268 Zn267 1.962 . S
O268 C273 1.254 . S
O269 Zn266 2.031 . S
O269 C273 1.269 . S
O270 Zn267 1.986 . S
O270 C277 1.262 . S
O271 Zn266 2.049 . S
O271 C279 1.260 . S
O272 Zn267 1.996 . S
O272 C279 1.257 . S
C273 O268 1.254 . S
C273 O269 1.269 . S
C274 O275 1.249 . S
C274 O276 1.270 . S
O275 Zn267 1.943 . S
O275 C274 1.249 . S
O276 Zn266 2.067 . S
O276 C274 1.270 . S
C277 O270 1.262 . S
C277 O278 1.232 . S
O278 C277 1.232 . S
C279 O271 1.260 . S
C279 O272 1.257 . S
Zn280 O283 2.031 1_554 S
Zn280 O285 2.049 . S
Zn280 O290 2.067 . S
Zn281 O282 1.989 . S
Zn281 O284 1.972 1_556 S
Zn281 O286 1.976 1_556 S
Zn281 O289 1.940 . S
O282 Zn281 1.989 . S
O282 C287 1.254 . S
O283 Zn280 2.031 1_556 S
O283 C287 1.269 . S
O284 Zn281 1.972 1_554 S
O284 C291 1.262 1_554 S
O285 Zn280 2.049 . S
O285 C293 1.260 . S
O286 Zn281 1.976 1_554 S
O286 C293 1.257 . S
C287 O282 1.254 . S
C287 O283 1.269 . S
C288 O289 1.249 . S
C288 O290 1.270 1_556 S
O289 Zn281 1.940 . S
O289 C288 1.249 . S
O290 Zn280 2.067 . S
O290 C288 1.270 1_554 S
C291 O284 1.262 1_556 S
C291 O292 1.232 . S
O292 C291 1.232 . S
C293 O285 1.260 . S
C293 O286 1.257 . S
Zn294 O297 2.031 . S
Zn294 O299 2.049 . S
Zn294 O304 2.067 . S
Zn295 O296 1.962 . S
Zn295 O298 1.986 . S
Zn295 O300 1.996 . S
Zn295 O303 1.943 . S
O296 Zn295 1.962 . S
O296 C301 1.254 . S
O297 Zn294 2.031 . S
O297 C301 1.269 . S
O298 Zn295 1.986 . S
O298 C305 1.262 . S
O299 Zn294 2.049 . S
O299 C307 1.260 . S
O300 Zn295 1.996 . S
O300 C307 1.257 . S
C301 O296 1.254 . S
C301 O297 1.269 . S
C302 O303 1.249 . S
C302 O304 1.270 . S
O303 Zn295 1.943 . S
O303 C302 1.249 . S
O304 Zn294 2.067 . S
O304 C302 1.270 . S
C305 O298 1.262 . S
C305 O306 1.232 . S
O306 C305 1.232 . S
C307 O299 1.260 . S
C307 O300 1.257 . S
Zn308 O311 2.031 . S
Zn308 O313 2.049 . S
Zn308 O318 2.067 . S
Zn309 O310 1.962 . S
Zn309 O312 1.986 . S
Zn309 O314 1.996 . S
Zn309 O317 1.943 . S
O310 Zn309 1.962 . S
O310 C315 1.254 . S
O311 Zn308 2.031 . S
O311 C315 1.269 . S
O312 Zn309 1.986 . S
O312 C319 1.262 . S
O313 Zn308 2.049 . S
O313 C321 1.260 . S
O314 Zn309 1.996 . S
O314 C321 1.257 . S
C315 O310 1.254 . S
C315 O311 1.269 . S
C316 O317 1.249 . S
C316 O318 1.270 . S
O317 Zn309 1.943 . S
O317 C316 1.249 . S
O318 Zn308 2.067 . S
O318 C316 1.270 . S
C319 O312 1.262 . S
C319 O320 1.232 . S
O320 C319 1.232 . S
C321 O313 1.260 . S
C321 O314 1.257 . S
Zn322 O325 2.031 . S
Zn322 O327 2.049 . S
Zn322 O332 2.067 . S
Zn323 O324 1.962 . S
Zn323 O326 1.986 . S
Zn323 O328 1.996 . S
Zn323 O331 1.943 . S
O324 Zn323 1.962 . S
O324 C329 1.254 . S
O325 Zn322 2.031 . S
O325 C329 1.269 . S
O326 Zn323 1.986 . S
O326 C333 1.262 . S
O327 Zn322 2.049 . S
O327 C335 1.260 . S
O328 Zn323 1.996 . S
O328 C335 1.257 . S
C329 O324 1.254 . S
C329 O325 1.269 . S
C330 O331 1.249 . S
C330 O332 1.270 . S
O331 Zn323 1.943 . S
O331 C330 1.249 . S
O332 Zn322 2.067 . S
O332 C330 1.270 . S
C333 O326 1.262 . S
C333 O334 1.232 . S
O334 C333 1.232 . S
C335 O327 1.260 . S
C335 O328 1.257 . S
Gd336 N367 2.661 . S
Gd336 N373 2.601 . S
Gd336 O380 2.545 . S
Gd336 O381 2.606 . S
Gd336 O383 2.429 . S
Gd336 O384 2.545 . S
Gd336 O385 2.412 . S
Gd336 O387 2.362 . S
Gd336 O388 2.324 . S
Gd336 C395 2.828 . S
Gd337 N346 2.627 1_545 S
Gd337 N350 2.601 1_544 S
Gd337 O381 2.362 . S
Gd337 O382 2.324 . S
Gd337 O386 2.563 1_554 S
Gd337 O387 2.606 . S
Gd337 O389 2.429 1_554 S
Gd337 O390 2.545 . S
Gd337 O391 2.412 1_455 S
Gd337 C404 2.821 1_454 S
C338 C341 1.417 1_655 S
C338 C343 1.431 . S
C338 C344 1.412 . S
C339 C342 1.437 . S
C339 C343 1.317 1_556 S
C339 H358 0.929 . S
C340 C341 1.426 1_556 S
C340 C342 1.413 1_455 S
C340 N350 1.359 . S
C341 C338 1.417 1_455 S
C341 C340 1.426 1_554 S
C341 N346 1.380 . S
C342 C339 1.437 . S
C342 C340 1.413 1_655 S
C342 C352 1.391 . S
C343 C338 1.431 . S
C343 C339 1.317 1_554 S
C343 H354 0.930 . S
C344 C338 1.412 . S
C344 C345 1.355 1_655 S
C344 H356 0.930 . S
C345 C344 1.355 1_455 S
C345 C347 1.408 . S
C345 H357 0.930 . S
N346 Gd337 2.627 1_565 S
N346 C341 1.380 . S
N346 C347 1.314 . S
C347 C345 1.408 . S
C347 N346 1.314 . S
C347 H348 0.925 1_565 S
H348 C347 0.925 1_545 S
C349 N350 1.334 . S
C349 C351 1.394 . S
C349 H353 0.930 1_565 S
N350 Gd337 2.601 1_566 S
N350 C340 1.359 . S
N350 C349 1.334 . S
C351 C349 1.394 . S
C351 C352 1.359 1_455 S
C351 H363 0.930 . S
C352 C342 1.391 . S
C352 C351 1.359 1_655 S
C352 H364 0.929 . S
H353 C349 0.930 1_545 S
H354 C343 0.930 . S
H355 C372 0.907 1_556 S
H356 C344 0.930 . S
H357 C345 0.930 . S
H358 C339 0.929 . S
H359 C377 0.930 . S
H360 C368 0.908 1_556 S
H361 C369 0.930 . S
H362 C393 0.929 . S
H363 C351 0.930 . S
H364 C352 0.929 . S
H365 C394 0.930 . S
H366 C375 0.930 . S
N367 Gd336 2.661 . S
N367 C371 1.350 . S
N367 C372 1.362 . S
C368 H360 0.908 1_554 S
C368 C369 1.355 1_554 S
C368 C370 1.412 . S
C369 H361 0.930 . S
C369 C368 1.355 1_556 S
C369 C372 1.370 1_556 S
C370 C368 1.412 . S
C370 C371 1.417 . S
C370 C394 1.431 . S
C371 N367 1.350 . S
C371 C370 1.417 . S
C371 C374 1.426 . S
C372 H355 0.907 1_554 S
C372 N367 1.362 . S
C372 C369 1.370 1_554 S
N373 Gd336 2.601 . S
N373 C374 1.359 . S
N373 C377 1.334 . S
C374 C371 1.426 . S
C374 N373 1.359 . S
C374 C378 1.413 . S
C375 H366 0.930 . S
C375 C376 1.359 . S
C375 C377 1.394 . S
C376 C375 1.359 . S
C376 C378 1.391 . S
C376 H379 0.929 . S
C377 H359 0.930 . S
C377 N373 1.334 . S
C377 C375 1.394 . S
C378 C374 1.413 . S
C378 C376 1.391 . S
C378 C393 1.437 . S
H379 C376 0.929 . S
O380 Gd336 2.545 . S
O380 C395 1.258 . S
O381 Gd336 2.606 . S
O381 Gd337 2.362 . S
O381 C392 1.284 . S
O382 Gd337 2.324 . S
O382 C402 1.254 . S
O383 Gd336 2.429 . S
O383 C402 1.268 . S
O384 Gd336 2.545 . S
O384 C392 1.250 . S
O385 Gd336 2.412 . S
O385 C395 1.252 . S
O386 Gd337 2.563 1_556 S
O386 C404 1.266 1_455 S
O387 Gd336 2.362 . S
O387 Gd337 2.606 . S
O387 C403 1.284 . S
O388 Gd336 2.324 . S
O388 C411 1.254 1_554 S
O389 Gd337 2.429 1_556 S
O389 C411 1.268 . S
O390 Gd337 2.545 . S
O390 C403 1.250 . S
O391 Gd337 2.412 1_655 S
O391 C404 1.222 1_554 S
C392 O381 1.284 . S
C392 O384 1.250 . S
C393 H362 0.929 . S
C393 C378 1.437 . S
C393 C394 1.317 . S
C394 H365 0.930 . S
C394 C370 1.431 . S
C394 C393 1.317 . S
C395 Gd336 2.828 . S
C395 O380 1.258 . S
C395 O385 1.252 . S
C395 C396 1.497 . S
C396 C395 1.497 . S
C396 C397 1.395 . S
C396 C398 1.380 . S
C397 C396 1.395 . S
C397 C400 1.398 . S
C397 H412 0.930 . S
C398 C396 1.380 . S
C398 C399 1.391 . S
C398 H413 0.930 . S
C399 C398 1.391 . S
C399 C401 1.387 . S
C400 C397 1.398 . S
C400 C401 1.380 . S
C400 H414 0.930 . S
C401 C399 1.387 . S
C401 C400 1.380 . S
C401 H415 0.930 . S
C402 O382 1.254 . S
C402 O383 1.268 . S
C403 O387 1.284 . S
C403 O390 1.250 . S
C404 Gd337 2.821 1_656 S
C404 O386 1.266 1_655 S
C404 O391 1.222 1_556 S
C404 C405 1.503 . S
C405 C404 1.503 . S
C405 C406 1.395 . S
C405 C407 1.380 1_556 S
C406 C405 1.395 . S
C406 C409 1.398 . S
C406 H416 0.930 . S
C407 C405 1.380 1_554 S
C407 C408 1.391 . S
C407 H417 0.930 . S
C408 C407 1.391 . S
C408 C410 1.387 1_554 S
C409 C406 1.398 . S
C409 C410 1.380 . S
C409 H418 0.930 . S
C410 C408 1.387 1_556 S
C410 C409 1.380 . S
C410 H419 0.930 . S
C411 O388 1.254 1_556 S
C411 O389 1.268 . S
H412 C397 0.930 . S
H413 C398 0.930 . S
H414 C400 0.930 . S
H415 C401 0.930 . S
H416 C406 0.930 . S
H417 C407 0.930 . S
H418 C409 0.930 . S
H419 C410 0.930 . S
Gd420 N451 2.661 . S
Gd420 N457 2.601 . S
Gd420 O464 2.545 . S
Gd420 O465 2.606 . S
Gd420 O467 2.429 . S
Gd420 O468 2.545 . S
Gd420 O469 2.412 . S
Gd420 O471 2.362 . S
Gd420 O472 2.324 . S
Gd420 C479 2.828 . S
Gd421 N430 2.661 . S
Gd421 N434 2.601 . S
Gd421 O465 2.362 . S
Gd421 O466 2.324 . S
Gd421 O470 2.545 . S
Gd421 O471 2.606 . S
Gd421 O473 2.429 . S
Gd421 O474 2.545 . S
Gd421 O475 2.412 . S
Gd421 C488 2.828 . S
C422 C425 1.417 . S
C422 C427 1.431 . S
C422 C428 1.412 . S
C423 C426 1.437 . S
C423 C427 1.317 . S
C423 H442 0.929 . S
C424 C425 1.426 . S
C424 C426 1.413 . S
C424 N434 1.359 . S
C425 C422 1.417 . S
C425 C424 1.426 . S
C425 N430 1.350 . S
C426 C423 1.437 . S
C426 C424 1.413 . S
C426 C436 1.391 . S
C427 C422 1.431 . S
C427 C423 1.317 . S
C427 H438 0.930 . S
C428 C422 1.412 . S
C428 C429 1.355 . S
C428 H440 0.930 . S
C429 C428 1.355 . S
C429 C431 1.402 . S
C429 H441 0.930 . S
N430 Gd421 2.661 . S
N430 C425 1.350 . S
N430 C431 1.307 . S
C431 C429 1.402 . S
C431 N430 1.307 . S
C431 H432 0.930 . S
H432 C431 0.930 . S
C433 N434 1.334 . S
C433 C435 1.394 . S
C433 H437 0.930 . S
N434 Gd421 2.601 . S
N434 C424 1.359 . S
N434 C433 1.334 . S
C435 C433 1.394 . S
C435 C436 1.359 . S
C435 H447 0.930 . S
C436 C426 1.391 . S
C436 C435 1.359 . S
C436 H448 0.929 . S
H437 C433 0.930 . S
H438 C427 0.930 . S
H439 C456 0.930 . S
H440 C428 0.930 . S
H441 C429 0.930 . S
H442 C423 0.929 . S
H443 C461 0.930 . S
H444 C452 0.930 . S
H445 C453 0.930 . S
H446 C477 0.929 . S
H447 C435 0.930 . S
H448 C436 0.929 . S
H449 C478 0.930 . S
H450 C459 0.930 . S
N451 Gd420 2.661 . S
N451 C455 1.350 . S
N451 C456 1.307 . S
C452 H444 0.930 . S
C452 C453 1.355 . S
C452 C454 1.412 . S
C453 H445 0.930 . S
C453 C452 1.355 . S
C453 C456 1.402 . S
C454 C452 1.412 . S
C454 C455 1.417 . S
C454 C478 1.431 . S
C455 N451 1.350 . S
C455 C454 1.417 . S
C455 C458 1.426 . S
C456 H439 0.930 . S
C456 N451 1.307 . S
C456 C453 1.402 . S
N457 Gd420 2.601 . S
N457 C458 1.359 . S
N457 C461 1.334 . S
C458 C455 1.426 . S
C458 N457 1.359 . S
C458 C462 1.413 . S
C459 H450 0.930 . S
C459 C460 1.359 . S
C459 C461 1.394 . S
C460 C459 1.359 . S
C460 C462 1.391 . S
C460 H463 0.929 . S
C461 H443 0.930 . S
C461 N457 1.334 . S
C461 C459 1.394 . S
C462 C458 1.413 . S
C462 C460 1.391 . S
C462 C477 1.437 . S
H463 C460 0.929 . S
O464 Gd420 2.545 . S
O464 C479 1.258 . S
O465 Gd420 2.606 . S
O465 Gd421 2.362 . S
O465 C476 1.284 . S
O466 Gd421 2.324 . S
O466 C486 1.254 . S
O467 Gd420 2.429 . S
O467 C486 1.268 . S
O468 Gd420 2.545 . S
O468 C476 1.250 . S
O469 Gd420 2.412 . S
O469 C479 1.252 . S
O470 Gd421 2.545 . S
O470 C488 1.258 . S
O471 Gd420 2.362 . S
O471 Gd421 2.606 . S
O471 C487 1.284 . S
O472 Gd420 2.324 . S
O472 C495 1.254 . S
O473 Gd421 2.429 . S
O473 C495 1.268 . S
O474 Gd421 2.545 . S
O474 C487 1.250 . S
O475 Gd421 2.412 . S
O475 C488 1.252 . S
C476 O465 1.284 . S
C476 O468 1.250 . S
C477 H446 0.929 . S
C477 C462 1.437 . S
C477 C478 1.317 . S
C478 H449 0.930 . S
C478 C454 1.431 . S
C478 C477 1.317 . S
C479 Gd420 2.828 . S
C479 O464 1.258 . S
C479 O469 1.252 . S
C479 C480 1.497 . S
C480 C479 1.497 . S
C480 C481 1.395 . S
C480 C482 1.380 . S
C481 C480 1.395 . S
C481 C484 1.398 . S
C481 H496 0.930 . S
C482 C480 1.380 . S
C482 C483 1.391 . S
C482 H497 0.930 . S
C483 C482 1.391 . S
C483 C485 1.387 . S
C484 C481 1.398 . S
C484 C485 1.380 . S
C484 H498 0.930 . S
C485 C483 1.387 . S
C485 C484 1.380 . S
C485 H499 0.930 . S
C486 O466 1.254 . S
C486 O467 1.268 . S
C487 O471 1.284 . S
C487 O474 1.250 . S
C488 Gd421 2.828 . S
C488 O470 1.258 . S
C488 O475 1.252 . S
C488 C489 1.497 . S
C489 C488 1.497 . S
C489 C490 1.395 . S
C489 C491 1.380 . S
C490 C489 1.395 . S
C490 C493 1.398 . S
C490 H500 0.930 . S
C491 C489 1.380 . S
C491 C492 1.391 . S
C491 H501 0.930 . S
C492 C491 1.391 . S
C492 C494 1.387 . S
C493 C490 1.398 . S
C493 C494 1.380 . S
C493 H502 0.930 . S
C494 C492 1.387 . S
C494 C493 1.380 . S
C494 H503 0.930 . S
C495 O472 1.254 . S
C495 O473 1.268 . S
H496 C481 0.930 . S
H497 C482 0.930 . S
H498 C484 0.930 . S
H499 C485 0.930 . S
H500 C490 0.930 . S
H501 C491 0.930 . S
H502 C493 0.930 . S
H503 C494 0.930 . S
Gd504 N535 2.661 1_545 S
Gd504 N541 2.601 . S
Gd504 O548 2.545 . S
Gd504 O549 2.606 . S
Gd504 O551 2.429 . S
Gd504 O552 2.545 . S
Gd504 O553 2.412 . S
Gd504 O555 2.362 . S
Gd504 O556 2.324 . S
Gd504 C563 2.828 . S
Gd505 N514 2.661 . S
Gd505 N518 2.601 . S
Gd505 O549 2.362 . S
Gd505 O550 2.324 . S
Gd505 O554 2.545 . S
Gd505 O555 2.606 . S
Gd505 O557 2.429 . S
Gd505 O558 2.545 1_545 S
Gd505 O559 2.412 . S
Gd505 C572 2.828 . S
C506 C509 1.417 . S
C506 C511 1.431 . S
C506 C512 1.412 . S
C507 C510 1.437 . S
C507 C511 1.317 . S
C507 H526 0.929 . S
C508 C509 1.426 . S
C508 C510 1.413 . S
C508 N518 1.359 . S
C509 C506 1.417 . S
C509 C508 1.426 . S
C509 N514 1.350 . S
C510 C507 1.437 . S
C510 C508 1.413 . S
C510 C520 1.391 . S
C511 C506 1.431 . S
C511 C507 1.317 . S
C511 H522 0.930 . S
C512 C506 1.412 . S
C512 C513 1.355 . S
C512 H524 0.930 . S
C513 C512 1.355 . S
C513 C515 1.402 . S
C513 H525 0.930 . S
N514 Gd505 2.661 . S
N514 C509 1.350 . S
N514 C515 1.307 . S
C515 C513 1.402 . S
C515 N514 1.307 . S
C515 H516 0.930 . S
H516 C515 0.930 . S
C517 N518 1.334 . S
C517 C519 1.394 . S
C517 H521 0.930 . S
N518 Gd505 2.601 . S
N518 C508 1.359 . S
N518 C517 1.334 . S
C519 C517 1.394 . S
C519 C520 1.359 . S
C519 H531 0.930 . S
C520 C510 1.391 . S
C520 C519 1.359 . S
C520 H532 0.929 . S
H521 C517 0.930 . S
H522 C511 0.930 . S
H523 C540 0.904 1_545 S
H524 C512 0.930 . S
H525 C513 0.930 . S
H526 C507 0.929 . S
H527 C545 0.930 . S
H528 C536 0.930 . S
H529 C537 0.930 . S
H530 C561 0.929 . S
H531 C519 0.930 . S
H532 C520 0.929 . S
H533 C562 0.930 . S
H534 C543 0.930 . S
N535 Gd504 2.661 1_565 S
N535 C539 1.350 . S
N535 C540 1.307 . S
C536 H528 0.930 . S
C536 C537 1.355 . S
C536 C538 1.412 . S
C537 H529 0.930 . S
C537 C536 1.355 . S
C537 C540 1.402 . S
C538 C536 1.412 . S
C538 C539 1.417 . S
C538 C562 1.431 . S
C539 N535 1.350 . S
C539 C538 1.417 . S
C539 C542 1.426 . S
C540 H523 0.904 1_565 S
C540 N535 1.307 . S
C540 C537 1.402 . S
N541 Gd504 2.601 . S
N541 C542 1.359 1_545 S
N541 C545 1.334 . S
C542 C539 1.426 . S
C542 N541 1.359 1_565 S
C542 C546 1.413 . S
C543 H534 0.930 . S
C543 C544 1.359 1_545 S
C543 C545 1.394 . S
C544 C543 1.359 1_565 S
C544 C546 1.391 . S
C544 H547 0.929 . S
C545 H527 0.930 . S
C545 N541 1.334 . S
C545 C543 1.394 . S
C546 C542 1.413 . S
C546 C544 1.391 . S
C546 C561 1.437 . S
H547 C544 0.929 . S
O548 Gd504 2.545 . S
O548 C563 1.258 . S
O549 Gd504 2.606 . S
O549 Gd505 2.362 . S
O549 C560 1.284 . S
O550 Gd505 2.324 . S
O550 C570 1.254 . S
O551 Gd504 2.429 . S
O551 C570 1.268 . S
O552 Gd504 2.545 . S
O552 C560 1.250 . S
O553 Gd504 2.412 . S
O553 C563 1.252 . S
O554 Gd505 2.545 . S
O554 C572 1.258 . S
O555 Gd504 2.362 . S
O555 Gd505 2.606 . S
O555 C571 1.284 1_545 S
O556 Gd504 2.324 . S
O556 C579 1.254 . S
O557 Gd505 2.429 . S
O557 C579 1.268 . S
O558 Gd505 2.545 1_565 S
O558 C571 1.250 . S
O559 Gd505 2.412 . S
O559 C572 1.252 . S
C560 O549 1.284 . S
C560 O552 1.250 . S
C561 H530 0.929 . S
C561 C546 1.437 . S
C561 C562 1.317 . S
C562 H533 0.930 . S
C562 C538 1.431 . S
C562 C561 1.317 . S
C563 Gd504 2.828 . S
C563 O548 1.258 . S
C563 O553 1.252 . S
C563 C564 1.497 . S
C564 C563 1.497 . S
C564 C565 1.395 . S
C564 C566 1.380 . S
C565 C564 1.395 . S
C565 C568 1.398 . S
C565 H580 0.930 . S
C566 C564 1.380 . S
C566 C567 1.391 . S
C566 H581 0.930 . S
C567 C566 1.391 . S
C567 C569 1.387 . S
C568 C565 1.398 . S
C568 C569 1.380 . S
C568 H582 0.930 . S
C569 C567 1.387 . S
C569 C568 1.380 . S
C569 H583 0.930 . S
C570 O550 1.254 . S
C570 O551 1.268 . S
C571 O555 1.284 1_565 S
C571 O558 1.250 . S
C572 Gd505 2.828 . S
C572 O554 1.258 . S
C572 O559 1.252 . S
C572 C573 1.497 . S
C573 C572 1.497 . S
C573 C574 1.395 . S
C573 C575 1.380 . S
C574 C573 1.395 . S
C574 C577 1.398 . S
C574 H584 0.930 . S
C575 C573 1.380 . S
C575 C576 1.391 1_545 S
C575 H585 0.930 . S
C576 C575 1.391 1_565 S
C576 C578 1.387 . S
C577 C574 1.398 . S
C577 C578 1.380 1_545 S
C577 H586 0.930 . S
C578 C576 1.387 . S
C578 C577 1.380 1_565 S
C578 H587 0.930 . S
C579 O556 1.254 . S
C579 O557 1.268 . S
H580 C565 0.930 . S
H581 C566 0.930 . S
H582 C568 0.930 . S
H583 C569 0.930 . S
H584 C574 0.930 . S
H585 C575 0.930 . S
H586 C577 0.930 . S
H587 C578 0.930 . S
Gd588 N619 2.661 . S
Gd588 N625 2.601 . S
Gd588 O632 2.545 . S
Gd588 O633 2.606 . S
Gd588 O635 2.429 . S
Gd588 O636 2.545 . S
Gd588 O637 2.412 . S
Gd588 O639 2.362 . S
Gd588 O640 2.324 . S
Gd588 C647 2.828 . S
Gd589 N598 2.661 . S
Gd589 N602 2.601 . S
Gd589 O633 2.362 . S
Gd589 O634 2.324 . S
Gd589 O638 2.545 . S
Gd589 O639 2.606 . S
Gd589 O641 2.429 . S
Gd589 O642 2.545 . S
Gd589 O643 2.412 . S
Gd589 C656 2.828 . S
C590 C593 1.417 . S
C590 C595 1.431 . S
C590 C596 1.412 . S
C591 C594 1.437 . S
C591 C595 1.317 . S
C591 H610 0.929 . S
C592 C593 1.426 . S
C592 C594 1.413 . S
C592 N602 1.359 . S
C593 C590 1.417 . S
C593 C592 1.426 . S
C593 N598 1.350 . S
C594 C591 1.437 . S
C594 C592 1.413 . S
C594 C604 1.391 . S
C595 C590 1.431 . S
C595 C591 1.317 . S
C595 H606 0.930 . S
C596 C590 1.412 . S
C596 C597 1.355 . S
C596 H608 0.930 . S
C597 C596 1.355 . S
C597 C599 1.402 . S
C597 H609 0.930 . S
N598 Gd589 2.661 . S
N598 C593 1.350 . S
N598 C599 1.307 . S
C599 C597 1.402 . S
C599 N598 1.307 . S
C599 H600 0.930 . S
H600 C599 0.930 . S
C601 N602 1.334 . S
C601 C603 1.394 . S
C601 H605 0.930 . S
N602 Gd589 2.601 . S
N602 C592 1.359 . S
N602 C601 1.334 . S
C603 C601 1.394 . S
C603 C604 1.359 . S
C603 H615 0.930 . S
C604 C594 1.391 . S
C604 C603 1.359 . S
C604 H616 0.929 . S
H605 C601 0.930 . S
H606 C595 0.930 . S
H607 C624 0.930 . S
H608 C596 0.930 . S
H609 C597 0.930 . S
H610 C591 0.929 . S
H611 C629 0.930 . S
H612 C620 0.930 . S
H613 C621 0.930 . S
H614 C645 0.929 . S
H615 C603 0.930 . S
H616 C604 0.929 . S
H617 C646 0.930 . S
H618 C627 0.930 . S
N619 Gd588 2.661 . S
N619 C623 1.350 . S
N619 C624 1.307 . S
C620 H612 0.930 . S
C620 C621 1.355 . S
C620 C622 1.412 . S
C621 H613 0.930 . S
C621 C620 1.355 . S
C621 C624 1.402 . S
C622 C620 1.412 . S
C622 C623 1.417 . S
C622 C646 1.431 . S
C623 N619 1.350 . S
C623 C622 1.417 . S
C623 C626 1.426 . S
C624 H607 0.930 . S
C624 N619 1.307 . S
C624 C621 1.402 . S
N625 Gd588 2.601 . S
N625 C626 1.359 . S
N625 C629 1.334 . S
C626 C623 1.426 . S
C626 N625 1.359 . S
C626 C630 1.413 . S
C627 H618 0.930 . S
C627 C628 1.359 . S
C627 C629 1.394 . S
C628 C627 1.359 . S
C628 C630 1.391 . S
C628 H631 0.929 . S
C629 H611 0.930 . S
C629 N625 1.334 . S
C629 C627 1.394 . S
C630 C626 1.413 . S
C630 C628 1.391 . S
C630 C645 1.437 . S
H631 C628 0.929 . S
O632 Gd588 2.545 . S
O632 C647 1.258 . S
O633 Gd588 2.606 . S
O633 Gd589 2.362 . S
O633 C644 1.284 . S
O634 Gd589 2.324 . S
O634 C654 1.254 . S
O635 Gd588 2.429 . S
O635 C654 1.268 . S
O636 Gd588 2.545 . S
O636 C644 1.250 . S
O637 Gd588 2.412 . S
O637 C647 1.252 . S
O638 Gd589 2.545 . S
O638 C656 1.258 . S
O639 Gd588 2.362 . S
O639 Gd589 2.606 . S
O639 C655 1.284 . S
O640 Gd588 2.324 . S
O640 C663 1.254 . S
O641 Gd589 2.429 . S
O641 C663 1.268 . S
O642 Gd589 2.545 . S
O642 C655 1.250 . S
O643 Gd589 2.412 . S
O643 C656 1.252 . S
C644 O633 1.284 . S
C644 O636 1.250 . S
C645 H614 0.929 . S
C645 C630 1.437 . S
C645 C646 1.317 . S
C646 H617 0.930 . S
C646 C622 1.431 . S
C646 C645 1.317 . S
C647 Gd588 2.828 . S
C647 O632 1.258 . S
C647 O637 1.252 . S
C647 C648 1.497 . S
C648 C647 1.497 . S
C648 C649 1.395 . S
C648 C650 1.380 . S
C649 C648 1.395 . S
C649 C652 1.398 . S
C649 H664 0.930 . S
C650 C648 1.380 . S
C650 C651 1.391 . S
C650 H665 0.930 . S
C651 C650 1.391 . S
C651 C653 1.387 . S
C652 C649 1.398 . S
C652 C653 1.380 . S
C652 H666 0.930 . S
C653 C651 1.387 . S
C653 C652 1.380 . S
C653 H667 0.930 . S
C654 O634 1.254 . S
C654 O635 1.268 . S
C655 O639 1.284 . S
C655 O642 1.250 . S
C656 Gd589 2.828 . S
C656 O638 1.258 . S
C656 O643 1.252 . S
C656 C657 1.497 . S
C657 C656 1.497 . S
C657 C658 1.395 . S
C657 C659 1.380 . S
C658 C657 1.395 . S
C658 C661 1.398 . S
C658 H668 0.930 . S
C659 C657 1.380 . S
C659 C660 1.391 . S
C659 H669 0.930 . S
C660 C659 1.391 . S
C660 C662 1.387 . S
C661 C658 1.398 . S
C661 C662 1.380 . S
C661 H670 0.930 . S
C662 C660 1.387 . S
C662 C661 1.380 . S
C662 H671 0.930 . S
C663 O640 1.254 . S
C663 O641 1.268 . S
H664 C649 0.930 . S
H665 C650 0.930 . S
H666 C652 0.930 . S
H667 C653 0.930 . S
H668 C658 0.930 . S
H669 C659 0.930 . S
H670 C661 0.930 . S
H671 C662 0.930 . S
Gd672 N703 2.661 1_545 S
Gd672 N709 2.588 1_545 S
Gd672 O716 2.545 1_545 S
Gd672 O717 2.606 . S
Gd672 O719 2.429 . S
Gd672 O720 2.545 . S
Gd672 O721 2.412 1_545 S
Gd672 O723 2.362 . S
Gd672 O724 2.324 . S
Gd672 C731 2.828 1_545 S
Gd673 N682 2.661 . S
Gd673 N686 2.601 . S
Gd673 O717 2.362 . S
Gd673 O718 2.324 . S
Gd673 O722 2.545 . S
Gd673 O723 2.606 . S
Gd673 O725 2.429 . S
Gd673 O726 2.545 . S
Gd673 O727 2.412 . S
Gd673 C740 2.828 . S
C674 C677 1.417 . S
C674 C679 1.431 . S
C674 C680 1.412 . S
C675 C678 1.437 . S
C675 C679 1.317 . S
C675 H694 0.929 . S
C676 C677 1.426 . S
C676 C678 1.413 . S
C676 N686 1.359 . S
C677 C674 1.417 . S
C677 C676 1.426 . S
C677 N682 1.350 . S
C678 C675 1.437 . S
C678 C676 1.413 . S
C678 C688 1.391 . S
C679 C674 1.431 . S
C679 C675 1.317 . S
C679 H690 0.930 . S
C680 C674 1.412 . S
C680 C681 1.355 . S
C680 H692 0.930 . S
C681 C680 1.355 . S
C681 C683 1.402 . S
C681 H693 0.930 . S
N682 Gd673 2.661 . S
N682 C677 1.350 . S
N682 C683 1.307 . S
C683 C681 1.402 . S
C683 N682 1.307 . S
C683 H684 0.930 . S
H684 C683 0.930 . S
C685 N686 1.334 . S
C685 C687 1.394 . S
C685 H689 0.930 . S
N686 Gd673 2.601 . S
N686 C676 1.359 . S
N686 C685 1.334 . S
C687 C685 1.394 . S
C687 C688 1.359 . S
C687 H699 0.930 1_455 S
C688 C678 1.391 . S
C688 C687 1.359 . S
C688 H700 0.929 . S
H689 C685 0.930 . S
H690 C679 0.930 . S
H691 C708 0.930 . S
H692 C680 0.930 . S
H693 C681 0.930 . S
H694 C675 0.929 . S
H695 C713 0.930 . S
H696 C704 0.930 . S
H697 C705 0.930 1_655 S
H698 C729 0.929 . S
H699 C687 0.930 1_655 S
H700 C688 0.929 . S
H701 C730 0.930 . S
H702 C711 0.930 . S
N703 Gd672 2.661 1_565 S
N703 C707 1.350 . S
N703 C708 1.307 . S
C704 H696 0.930 . S
C704 C705 1.355 . S
C704 C706 1.412 . S
C705 H697 0.930 1_455 S
C705 C704 1.355 . S
C705 C708 1.402 . S
C706 C704 1.412 . S
C706 C707 1.417 . S
C706 C730 1.431 . S
C707 N703 1.350 . S
C707 C706 1.417 . S
C707 C710 1.426 . S
C708 H691 0.930 . S
C708 N703 1.307 . S
C708 C705 1.402 . S
N709 Gd672 2.588 1_565 S
N709 C710 1.372 . S
N709 C713 1.343 1_565 S
C710 C707 1.426 . S
C710 N709 1.372 . S
C710 C714 1.413 . S
C711 H702 0.930 . S
C711 C712 1.359 . S
C711 C713 1.394 1_565 S
C712 C711 1.359 . S
C712 C714 1.391 . S
C712 H715 0.929 . S
C713 H695 0.930 . S
C713 N709 1.343 1_545 S
C713 C711 1.394 1_545 S
C714 C710 1.413 . S
C714 C712 1.391 . S
C714 C729 1.437 . S
H715 C712 0.929 . S
O716 Gd672 2.545 1_565 S
O716 C731 1.258 . S
O717 Gd672 2.606 . S
O717 Gd673 2.362 . S
O717 C728 1.284 . S
O718 Gd673 2.324 . S
O718 C738 1.254 . S
O719 Gd672 2.429 . S
O719 C738 1.268 . S
O720 Gd672 2.545 . S
O720 C728 1.250 . S
O721 Gd672 2.412 1_565 S
O721 C731 1.252 . S
O722 Gd673 2.545 . S
O722 C740 1.258 . S
O723 Gd672 2.362 . S
O723 Gd673 2.606 . S
O723 C739 1.284 . S
O724 Gd672 2.324 . S
O724 C747 1.254 . S
O725 Gd673 2.429 . S
O725 C747 1.268 . S
O726 Gd673 2.545 . S
O726 C739 1.250 . S
O727 Gd673 2.412 . S
O727 C740 1.252 . S
C728 O717 1.284 . S
C728 O720 1.250 . S
C729 H698 0.929 . S
C729 C714 1.437 . S
C729 C730 1.317 . S
C730 H701 0.930 . S
C730 C706 1.431 . S
C730 C729 1.317 . S
C731 Gd672 2.828 1_565 S
C731 O716 1.258 . S
C731 O721 1.252 . S
C731 C732 1.497 . S
C732 C731 1.497 . S
C732 C733 1.395 . S
C732 C734 1.380 . S
C733 C732 1.395 . S
C733 C736 1.398 . S
C733 H748 0.930 . S
C734 C732 1.380 . S
C734 C735 1.391 . S
C734 H749 0.930 . S
C735 C734 1.391 . S
C735 C737 1.387 . S
C736 C733 1.398 . S
C736 C737 1.380 . S
C736 H750 0.930 . S
C737 C735 1.387 . S
C737 C736 1.380 . S
C737 H751 0.930 . S
C738 O718 1.254 . S
C738 O719 1.268 . S
C739 O723 1.284 . S
C739 O726 1.250 . S
C740 Gd673 2.828 . S
C740 O722 1.258 . S
C740 O727 1.252 . S
C740 C741 1.497 . S
C741 C740 1.497 . S
C741 C742 1.395 . S
C741 C743 1.380 . S
C742 C741 1.395 . S
C742 C745 1.398 . S
C742 H752 0.930 . S
C743 C741 1.380 . S
C743 C744 1.391 . S
C743 H753 0.930 . S
C744 C743 1.391 . S
C744 C746 1.387 . S
C745 C742 1.398 . S
C745 C746 1.380 . S
C745 H754 0.930 . S
C746 C744 1.387 . S
C746 C745 1.380 . S
C746 H755 0.930 . S
C747 O724 1.254 . S
C747 O725 1.268 . S
H748 C733 0.930 . S
H749 C734 0.930 . S
H750 C736 0.930 . S
H751 C737 0.930 . S
H752 C742 0.930 . S
H753 C743 0.930 . S
H754 C745 0.930 . S
H755 C746 0.930 . S
Gd756 N787 2.661 . S
Gd756 N793 2.601 . S
Gd756 O800 2.545 . S
Gd756 O801 2.606 . S
Gd756 O803 2.429 . S
Gd756 O804 2.545 . S
Gd756 O805 2.412 . S
Gd756 O807 2.362 . S
Gd756 O808 2.324 . S
Gd756 C815 2.828 . S
Gd757 N766 2.661 . S
Gd757 N770 2.601 . S
Gd757 O801 2.362 . S
Gd757 O802 2.324 . S
Gd757 O806 2.545 . S
Gd757 O807 2.606 . S
Gd757 O809 2.429 . S
Gd757 O810 2.545 . S
Gd757 O811 2.412 . S
Gd757 C824 2.828 . S
C758 C761 1.417 . S
C758 C763 1.431 . S
C758 C764 1.412 . S
C759 C762 1.437 . S
C759 C763 1.317 . S
C759 H778 0.929 . S
C760 C761 1.426 . S
C760 C762 1.413 . S
C760 N770 1.359 . S
C761 C758 1.417 . S
C761 C760 1.426 . S
C761 N766 1.350 . S
C762 C759 1.437 . S
C762 C760 1.413 . S
C762 C772 1.391 . S
C763 C758 1.431 . S
C763 C759 1.317 . S
C763 H774 0.930 . S
C764 C758 1.412 . S
C764 C765 1.355 . S
C764 H776 0.930 . S
C765 C764 1.355 . S
C765 C767 1.402 . S
C765 H777 0.930 . S
N766 Gd757 2.661 . S
N766 C761 1.350 . S
N766 C767 1.307 . S
C767 C765 1.402 . S
C767 N766 1.307 . S
C767 H768 0.930 . S
H768 C767 0.930 . S
C769 N770 1.334 . S
C769 C771 1.394 . S
C769 H773 0.930 . S
N770 Gd757 2.601 . S
N770 C760 1.359 . S
N770 C769 1.334 . S
C771 C769 1.394 . S
C771 C772 1.359 . S
C771 H783 0.930 . S
C772 C762 1.391 . S
C772 C771 1.359 . S
C772 H784 0.929 . S
H773 C769 0.930 . S
H774 C763 0.930 . S
H775 C792 0.930 . S
H776 C764 0.930 . S
H777 C765 0.930 . S
H778 C759 0.929 . S
H779 C797 0.930 . S
H780 C788 0.930 . S
H781 C789 0.930 . S
H782 C813 0.929 . S
H783 C771 0.930 . S
H784 C772 0.929 . S
H785 C814 0.930 . S
H786 C795 0.930 . S
N787 Gd756 2.661 . S
N787 C791 1.350 . S
N787 C792 1.307 . S
C788 H780 0.930 . S
C788 C789 1.355 . S
C788 C790 1.412 . S
C789 H781 0.930 . S
C789 C788 1.355 . S
C789 C792 1.402 . S
C790 C788 1.412 . S
C790 C791 1.417 . S
C790 C814 1.431 . S
C791 N787 1.350 . S
C791 C790 1.417 . S
C791 C794 1.426 . S
C792 H775 0.930 . S
C792 N787 1.307 . S
C792 C789 1.402 . S
N793 Gd756 2.601 . S
N793 C794 1.359 . S
N793 C797 1.334 . S
C794 C791 1.426 . S
C794 N793 1.359 . S
C794 C798 1.413 . S
C795 H786 0.930 . S
C795 C796 1.359 . S
C795 C797 1.394 . S
C796 C795 1.359 . S
C796 C798 1.391 . S
C796 H799 0.929 . S
C797 H779 0.930 . S
C797 N793 1.334 . S
C797 C795 1.394 . S
C798 C794 1.413 . S
C798 C796 1.391 . S
C798 C813 1.437 . S
H799 C796 0.929 . S
O800 Gd756 2.545 . S
O800 C815 1.258 . S
O801 Gd756 2.606 . S
O801 Gd757 2.362 . S
O801 C812 1.284 . S
O802 Gd757 2.324 . S
O802 C822 1.254 . S
O803 Gd756 2.429 . S
O803 C822 1.268 . S
O804 Gd756 2.545 . S
O804 C812 1.250 . S
O805 Gd756 2.412 . S
O805 C815 1.252 . S
O806 Gd757 2.545 . S
O806 C824 1.258 . S
O807 Gd756 2.362 . S
O807 Gd757 2.606 . S
O807 C823 1.284 . S
O808 Gd756 2.324 . S
O808 C831 1.254 . S
O809 Gd757 2.429 . S
O809 C831 1.268 . S
O810 Gd757 2.545 . S
O810 C823 1.250 . S
O811 Gd757 2.412 . S
O811 C824 1.252 . S
C812 O801 1.284 . S
C812 O804 1.250 . S
C813 H782 0.929 . S
C813 C798 1.437 . S
C813 C814 1.317 . S
C814 H785 0.930 . S
C814 C790 1.431 . S
C814 C813 1.317 . S
C815 Gd756 2.828 . S
C815 O800 1.258 . S
C815 O805 1.252 . S
C815 C816 1.497 . S
C816 C815 1.497 . S
C816 C817 1.395 . S
C816 C818 1.380 . S
C817 C816 1.395 . S
C817 C820 1.398 . S
C817 H832 0.930 . S
C818 C816 1.380 . S
C818 C819 1.391 . S
C818 H833 0.930 . S
C819 C818 1.391 . S
C819 C821 1.387 . S
C820 C817 1.398 . S
C820 C821 1.380 . S
C820 H834 0.930 . S
C821 C819 1.387 . S
C821 C820 1.380 . S
C821 H835 0.930 . S
C822 O802 1.254 . S
C822 O803 1.268 . S
C823 O807 1.284 . S
C823 O810 1.250 . S
C824 Gd757 2.828 . S
C824 O806 1.258 . S
C824 O811 1.252 . S
C824 C825 1.497 . S
C825 C824 1.497 . S
C825 C826 1.395 . S
C825 C827 1.380 . S
C826 C825 1.395 . S
C826 C829 1.398 . S
C826 H836 0.930 . S
C827 C825 1.380 . S
C827 C828 1.391 . S
C827 H837 0.930 . S
C828 C827 1.391 . S
C828 C830 1.387 . S
C829 C826 1.398 . S
C829 C830 1.380 . S
C829 H838 0.930 . S
C830 C828 1.387 . S
C830 C829 1.380 . S
C830 H839 0.930 . S
C831 O808 1.254 . S
C831 O809 1.268 . S
H832 C817 0.930 . S
H833 C818 0.930 . S
H834 C820 0.930 . S
H835 C821 0.930 . S
H836 C826 0.930 . S
H837 C827 0.930 . S
H838 C829 0.930 . S
H839 C830 0.930 . S
Gd840 N871 2.661 . S
Gd840 N877 2.601 . S
Gd840 O884 2.545 . S
Gd840 O885 2.606 1_556 S
Gd840 O887 2.429 1_556 S
Gd840 O888 2.545 . S
Gd840 O889 2.412 . S
Gd840 O891 2.362 1_556 S
Gd840 O892 2.324 . S
Gd840 C899 2.828 . S
Gd841 N850 2.661 . S
Gd841 N854 2.601 . S
Gd841 O885 2.362 . S
Gd841 O886 2.324 . S
Gd841 O890 2.545 . S
Gd841 O891 2.606 . S
Gd841 O893 2.429 . S
Gd841 O894 2.545 . S
Gd841 O895 2.412 . S
Gd841 C908 2.828 . S
C842 C845 1.417 . S
C842 C847 1.431 . S
C842 C848 1.412 . S
C843 C846 1.437 . S
C843 C847 1.317 . S
C843 H862 0.929 . S
C844 C845 1.426 . S
C844 C846 1.413 . S
C844 N854 1.359 . S
C845 C842 1.417 . S
C845 C844 1.426 . S
C845 N850 1.350 . S
C846 C843 1.437 . S
C846 C844 1.413 . S
C846 C856 1.391 . S
C847 C842 1.431 . S
C847 C843 1.317 . S
C847 H858 0.930 . S
C848 C842 1.412 . S
C848 C849 1.355 . S
C848 H860 0.930 . S
C849 C848 1.355 . S
C849 C851 1.402 . S
C849 H861 0.930 . S
N850 Gd841 2.661 . S
N850 C845 1.350 . S
N850 C851 1.307 . S
C851 C849 1.402 . S
C851 N850 1.307 . S
C851 H852 0.930 . S
H852 C851 0.930 . S
C853 N854 1.334 . S
C853 C855 1.394 1_545 S
C853 H857 0.930 1_545 S
N854 Gd841 2.601 . S
N854 C844 1.359 . S
N854 C853 1.334 . S
C855 C853 1.394 1_565 S
C855 C856 1.359 1_565 S
C855 H867 0.930 . S
C856 C846 1.391 . S
C856 C855 1.359 1_545 S
C856 H868 0.929 . S
H857 C853 0.930 1_565 S
H858 C847 0.930 . S
H859 C876 0.930 . S
H860 C848 0.930 . S
H861 C849 0.930 . S
H862 C843 0.929 . S
H863 C881 0.930 . S
H864 C872 0.930 . S
H865 C873 0.930 . S
H866 C897 0.929 . S
H867 C855 0.930 . S
H868 C856 0.929 . S
H869 C898 0.930 . S
H870 C879 0.930 . S
N871 Gd840 2.661 . S
N871 C875 1.350 . S
N871 C876 1.307 . S
C872 H864 0.930 . S
C872 C873 1.355 . S
C872 C874 1.412 1_565 S
C873 H865 0.930 . S
C873 C872 1.355 . S
C873 C876 1.402 1_565 S
C874 C872 1.412 1_545 S
C874 C875 1.417 . S
C874 C898 1.431 . S
C875 N871 1.350 . S
C875 C874 1.417 . S
C875 C878 1.426 . S
C876 H859 0.930 . S
C876 N871 1.307 . S
C876 C873 1.402 1_545 S
N877 Gd840 2.601 . S
N877 C878 1.359 . S
N877 C881 1.334 . S
C878 C875 1.426 . S
C878 N877 1.359 . S
C878 C882 1.413 . S
C879 H870 0.930 . S
C879 C880 1.359 . S
C879 C881 1.394 . S
C880 C879 1.359 . S
C880 C882 1.391 . S
C880 H883 0.929 . S
C881 H863 0.930 . S
C881 N877 1.334 . S
C881 C879 1.394 . S
C882 C878 1.413 . S
C882 C880 1.391 . S
C882 C897 1.437 . S
H883 C880 0.929 . S
O884 Gd840 2.545 . S
O884 C899 1.258 . S
O885 Gd840 2.606 1_554 S
O885 Gd841 2.362 . S
O885 C896 1.284 . S
O886 Gd841 2.324 . S
O886 C906 1.254 . S
O887 Gd840 2.429 1_554 S
O887 C906 1.268 . S
O888 Gd840 2.545 . S
O888 C896 1.250 1_556 S
O889 Gd840 2.412 . S
O889 C899 1.252 . S
O890 Gd841 2.545 . S
O890 C908 1.258 . S
O891 Gd840 2.362 1_554 S
O891 Gd841 2.606 . S
O891 C907 1.284 . S
O892 Gd840 2.324 . S
O892 C915 1.254 . S
O893 Gd841 2.429 . S
O893 C915 1.268 1_554 S
O894 Gd841 2.545 . S
O894 C907 1.250 . S
O895 Gd841 2.412 . S
O895 C908 1.252 . S
C896 O885 1.284 . S
C896 O888 1.250 1_554 S
C897 H866 0.929 . S
C897 C882 1.437 . S
C897 C898 1.317 . S
C898 H869 0.930 . S
C898 C874 1.431 . S
C898 C897 1.317 . S
C899 Gd840 2.828 . S
C899 O884 1.258 . S
C899 O889 1.252 . S
C899 C900 1.497 . S
C900 C899 1.497 . S
C900 C901 1.395 . S
C900 C902 1.380 . S
C901 C900 1.395 . S
C901 C904 1.398 . S
C901 H916 0.930 . S
C902 C900 1.380 . S
C902 C903 1.391 . S
C902 H917 0.930 . S
C903 C902 1.391 . S
C903 C905 1.387 . S
C904 C901 1.398 . S
C904 C905 1.380 . S
C904 H918 0.930 . S
C905 C903 1.387 . S
C905 C904 1.380 . S
C905 H919 0.930 . S
C906 O886 1.254 . S
C906 O887 1.268 . S
C907 O891 1.284 . S
C907 O894 1.250 . S
C908 Gd841 2.828 . S
C908 O890 1.258 . S
C908 O895 1.252 . S
C908 C909 1.497 . S
C909 C908 1.497 . S
C909 C910 1.395 . S
C909 C911 1.380 . S
C910 C909 1.395 . S
C910 C913 1.398 . S
C910 H920 0.930 1_545 S
C911 C909 1.380 . S
C911 C912 1.391 . S
C911 H921 0.930 . S
C912 C911 1.391 . S
C912 C914 1.387 . S
C913 C910 1.398 . S
C913 C914 1.380 . S
C913 H922 0.930 1_545 S
C914 C912 1.387 . S
C914 C913 1.380 . S
C914 H923 0.930 . S
C915 O892 1.254 . S
C915 O893 1.268 1_556 S
H916 C901 0.930 . S
H917 C902 0.930 . S
H918 C904 0.930 . S
H919 C905 0.930 . S
H920 C910 0.930 1_565 S
H921 C911 0.930 . S
H922 C913 0.930 1_565 S
H923 C914 0.930 . S
Gd924 N955 2.661 . S
Gd924 N961 2.601 . S
Gd924 O968 2.545 . S
Gd924 O969 2.606 . S
Gd924 O971 2.429 . S
Gd924 O972 2.545 . S
Gd924 O973 2.412 . S
Gd924 O975 2.362 . S
Gd924 O976 2.324 . S
Gd924 C983 2.828 . S
Gd925 N934 2.661 . S
Gd925 N938 2.601 . S
Gd925 O969 2.362 . S
Gd925 O970 2.324 . S
Gd925 O974 2.545 . S
Gd925 O975 2.606 . S
Gd925 O977 2.429 . S
Gd925 O978 2.545 . S
Gd925 O979 2.412 . S
Gd925 C992 2.828 . S
C926 C929 1.417 . S
C926 C931 1.431 . S
C926 C932 1.412 . S
C927 C930 1.437 . S
C927 C931 1.317 . S
C927 H946 0.929 . S
C928 C929 1.426 . S
C928 C930 1.413 . S
C928 N938 1.359 . S
C929 C926 1.417 . S
C929 C928 1.426 . S
C929 N934 1.350 . S
C930 C927 1.437 . S
C930 C928 1.413 . S
C930 C940 1.391 . S
C931 C926 1.431 . S
C931 C927 1.317 . S
C931 H942 0.930 . S
C932 C926 1.412 . S
C932 C933 1.355 . S
C932 H944 0.930 . S
C933 C932 1.355 . S
C933 C935 1.402 . S
C933 H945 0.930 . S
N934 Gd925 2.661 . S
N934 C929 1.350 . S
N934 C935 1.307 . S
C935 C933 1.402 . S
C935 N934 1.307 . S
C935 H936 0.930 . S
H936 C935 0.930 . S
C937 N938 1.334 . S
C937 C939 1.394 . S
C937 H941 0.930 . S
N938 Gd925 2.601 . S
N938 C928 1.359 . S
N938 C937 1.334 . S
C939 C937 1.394 . S
C939 C940 1.359 . S
C939 H951 0.930 . S
C940 C930 1.391 . S
C940 C939 1.359 . S
C940 H952 0.929 . S
H941 C937 0.930 . S
H942 C931 0.930 . S
H943 C960 0.930 . S
H944 C932 0.930 . S
H945 C933 0.930 . S
H946 C927 0.929 . S
H947 C965 0.930 . S
H948 C956 0.930 . S
H949 C957 0.930 . S
H950 C981 0.929 . S
H951 C939 0.930 . S
H952 C940 0.929 . S
H953 C982 0.930 . S
H954 C963 0.930 . S
N955 Gd924 2.661 . S
N955 C959 1.350 . S
N955 C960 1.307 . S
C956 H948 0.930 . S
C956 C957 1.355 . S
C956 C958 1.412 . S
C957 H949 0.930 . S
C957 C956 1.355 . S
C957 C960 1.402 . S
C958 C956 1.412 . S
C958 C959 1.417 . S
C958 C982 1.431 . S
C959 N955 1.350 . S
C959 C958 1.417 . S
C959 C962 1.426 . S
C960 H943 0.930 . S
C960 N955 1.307 . S
C960 C957 1.402 . S
N961 Gd924 2.601 . S
N961 C962 1.359 . S
N961 C965 1.334 . S
C962 C959 1.426 . S
C962 N961 1.359 . S
C962 C966 1.413 . S
C963 H954 0.930 . S
C963 C964 1.359 . S
C963 C965 1.394 . S
C964 C963 1.359 . S
C964 C966 1.391 . S
C964 H967 0.929 . S
C965 H947 0.930 . S
C965 N961 1.334 . S
C965 C963 1.394 . S
C966 C962 1.413 . S
C966 C964 1.391 . S
C966 C981 1.437 . S
H967 C964 0.929 . S
O968 Gd924 2.545 . S
O968 C983 1.258 . S
O969 Gd924 2.606 . S
O969 Gd925 2.362 . S
O969 C980 1.284 . S
O970 Gd925 2.324 . S
O970 C990 1.254 . S
O971 Gd924 2.429 . S
O971 C990 1.268 . S
O972 Gd924 2.545 . S
O972 C980 1.250 . S
O973 Gd924 2.412 . S
O973 C983 1.252 . S
O974 Gd925 2.545 . S
O974 C992 1.258 . S
O975 Gd924 2.362 . S
O975 Gd925 2.606 . S
O975 C991 1.284 . S
O976 Gd924 2.324 . S
O976 C999 1.254 . S
O977 Gd925 2.429 . S
O977 C999 1.268 . S
O978 Gd925 2.545 . S
O978 C991 1.250 . S
O979 Gd925 2.412 . S
O979 C992 1.252 . S
C980 O969 1.284 . S
C980 O972 1.250 . S
C981 H950 0.929 . S
C981 C966 1.437 . S
C981 C982 1.317 . S
C982 H953 0.930 . S
C982 C958 1.431 . S
C982 C981 1.317 . S
C983 Gd924 2.828 . S
C983 O968 1.258 . S
C983 O973 1.252 . S
C983 C984 1.497 . S
C984 C983 1.497 . S
C984 C985 1.395 . S
C984 C986 1.380 . S
C985 C984 1.395 . S
C985 C988 1.398 . S
C985 H1000 0.930 . S
C986 C984 1.380 . S
C986 C987 1.391 . S
C986 H1001 0.930 . S
C987 C986 1.391 . S
C987 C989 1.387 . S
C988 C985 1.398 . S
C988 C989 1.380 . S
C988 H1002 0.930 . S
C989 C987 1.387 . S
C989 C988 1.380 . S
C989 H1003 0.930 . S
C990 O970 1.254 . S
C990 O971 1.268 . S
C991 O975 1.284 . S
C991 O978 1.250 . S
C992 Gd925 2.828 . S
C992 O974 1.258 . S
C992 O979 1.252 . S
C992 C993 1.497 . S
C993 C992 1.497 . S
C993 C994 1.395 . S
C993 C995 1.380 . S
C994 C993 1.395 . S
C994 C997 1.398 . S
C994 H1004 0.930 . S
C995 C993 1.380 . S
C995 C996 1.391 . S
C995 H1005 0.930 . S
C996 C995 1.391 . S
C996 C998 1.387 . S
C997 C994 1.398 . S
C997 C998 1.380 . S
C997 H1006 0.930 . S
C998 C996 1.387 . S
C998 C997 1.380 . S
C998 H1007 0.930 . S
C999 O976 1.254 . S
C999 O977 1.268 . S
H1000 C985 0.930 . S
H1001 C986 0.930 . S
H1002 C988 0.930 . S
H1003 C989 0.930 . S
H1004 C994 0.930 . S
H1005 C995 0.930 . S
H1006 C997 0.930 . S
H1007 C998 0.930 . S
Gd1008 N1039 2.661 1_554 S
Gd1008 N1045 2.601 1_554 S
Gd1008 O1052 2.545 . S
Gd1008 O1053 2.606 . S
Gd1008 O1055 2.429 . S
Gd1008 O1056 2.545 . S
Gd1008 O1057 2.412 . S
Gd1008 O1059 2.362 1_554 S
Gd1008 O1060 2.324 . S
Gd1008 C1067 2.828 . S
Gd1009 N1018 2.661 . S
Gd1009 N1022 2.601 . S
Gd1009 O1053 2.362 . S
Gd1009 O1054 2.324 . S
Gd1009 O1058 2.545 . S
Gd1009 O1059 2.606 1_554 S
Gd1009 O1061 2.429 . S
Gd1009 O1062 2.545 1_554 S
Gd1009 O1063 2.412 . S
Gd1009 C1076 2.828 . S
C1010 C1013 1.417 . S
C1010 C1015 1.431 . S
C1010 C1016 1.412 . S
C1011 C1014 1.437 . S
C1011 C1015 1.317 . S
C1011 H1030 0.929 . S
C1012 C1013 1.426 . S
C1012 C1014 1.413 . S
C1012 N1022 1.359 . S
C1013 C1010 1.417 . S
C1013 C1012 1.426 . S
C1013 N1018 1.350 . S
C1014 C1011 1.437 . S
C1014 C1012 1.413 . S
C1014 C1024 1.391 . S
C1015 C1010 1.431 . S
C1015 C1011 1.317 . S
C1015 H1026 0.930 . S
C1016 C1010 1.412 . S
C1016 C1017 1.355 . S
C1016 H1028 0.930 . S
C1017 C1016 1.355 . S
C1017 C1019 1.402 . S
C1017 H1029 0.930 . S
N1018 Gd1009 2.661 . S
N1018 C1013 1.350 . S
N1018 C1019 1.307 . S
C1019 C1017 1.402 . S
C1019 N1018 1.307 . S
C1019 H1020 0.930 . S
H1020 C1019 0.930 . S
C1021 N1022 1.334 . S
C1021 C1023 1.394 . S
C1021 H1025 0.930 . S
N1022 Gd1009 2.601 . S
N1022 C1012 1.359 . S
N1022 C1021 1.334 . S
C1023 C1021 1.394 . S
C1023 C1024 1.359 . S
C1023 H1035 0.930 . S
C1024 C1014 1.391 . S
C1024 C1023 1.359 . S
C1024 H1036 0.929 . S
H1025 C1021 0.930 . S
H1026 C1015 0.930 . S
H1027 C1044 0.930 . S
H1028 C1016 0.930 . S
H1029 C1017 0.930 . S
H1030 C1011 0.929 . S
H1031 C1049 0.930 . S
H1032 C1040 0.930 . S
H1033 C1041 0.930 . S
H1034 C1065 0.929 . S
H1035 C1023 0.930 . S
H1036 C1024 0.929 . S
H1037 C1066 0.930 . S
H1038 C1047 0.930 . S
N1039 Gd1008 2.661 1_556 S
N1039 C1043 1.350 . S
N1039 C1044 1.307 . S
C1040 H1032 0.930 . S
C1040 C1041 1.355 . S
C1040 C1042 1.412 . S
C1041 H1033 0.930 . S
C1041 C1040 1.355 . S
C1041 C1044 1.402 . S
C1042 C1040 1.412 . S
C1042 C1043 1.417 . S
C1042 C1066 1.431 . S
C1043 N1039 1.350 . S
C1043 C1042 1.417 . S
C1043 C1046 1.426 . S
C1044 H1027 0.930 . S
C1044 N1039 1.307 . S
C1044 C1041 1.402 . S
N1045 Gd1008 2.601 1_556 S
N1045 C1046 1.359 . S
N1045 C1049 1.334 . S
C1046 C1043 1.426 . S
C1046 N1045 1.359 . S
C1046 C1050 1.413 . S
C1047 H1038 0.930 . S
C1047 C1048 1.359 . S
C1047 C1049 1.394 . S
C1048 C1047 1.359 . S
C1048 C1050 1.391 . S
C1048 H1051 0.929 . S
C1049 H1031 0.930 . S
C1049 N1045 1.334 . S
C1049 C1047 1.394 . S
C1050 C1046 1.413 . S
C1050 C1048 1.391 . S
C1050 C1065 1.437 . S
H1051 C1048 0.929 . S
O1052 Gd1008 2.545 . S
O1052 C1067 1.258 . S
O1053 Gd1008 2.606 . S
O1053 Gd1009 2.362 . S
O1053 C1064 1.284 . S
O1054 Gd1009 2.324 . S
O1054 C1074 1.254 . S
O1055 Gd1008 2.429 . S
O1055 C1074 1.268 . S
O1056 Gd1008 2.545 . S
O1056 C1064 1.250 . S
O1057 Gd1008 2.412 . S
O1057 C1067 1.252 . S
O1058 Gd1009 2.545 . S
O1058 C1076 1.258 . S
O1059 Gd1008 2.362 1_556 S
O1059 Gd1009 2.606 1_556 S
O1059 C1075 1.284 . S
O1060 Gd1008 2.324 . S
O1060 C1083 1.254 . S
O1061 Gd1009 2.429 . S
O1061 C1083 1.268 . S
O1062 Gd1009 2.545 1_556 S
O1062 C1075 1.250 . S
O1063 Gd1009 2.412 . S
O1063 C1076 1.252 . S
C1064 O1053 1.284 . S
C1064 O1056 1.250 . S
C1065 H1034 0.929 . S
C1065 C1050 1.437 . S
C1065 C1066 1.317 . S
C1066 H1037 0.930 . S
C1066 C1042 1.431 . S
C1066 C1065 1.317 . S
C1067 Gd1008 2.828 . S
C1067 O1052 1.258 . S
C1067 O1057 1.252 . S
C1067 C1068 1.497 . S
C1068 C1067 1.497 . S
C1068 C1069 1.395 . S
C1068 C1070 1.380 . S
C1069 C1068 1.395 . S
C1069 C1072 1.398 . S
C1069 H1084 0.930 . S
C1070 C1068 1.380 . S
C1070 C1071 1.391 . S
C1070 H1085 0.930 . S
C1071 C1070 1.391 . S
C1071 C1073 1.387 . S
C1072 C1069 1.398 . S
C1072 C1073 1.380 . S
C1072 H1086 0.930 . S
C1073 C1071 1.387 . S
C1073 C1072 1.380 . S
C1073 H1087 0.930 . S
C1074 O1054 1.254 . S
C1074 O1055 1.268 . S
C1075 O1059 1.284 . S
C1075 O1062 1.250 . S
C1076 Gd1009 2.828 . S
C1076 O1058 1.258 . S
C1076 O1063 1.252 . S
C1076 C1077 1.497 . S
C1077 C1076 1.497 . S
C1077 C1078 1.395 . S
C1077 C1079 1.380 . S
C1078 C1077 1.395 . S
C1078 C1081 1.398 . S
C1078 H1088 0.930 . S
C1079 C1077 1.380 . S
C1079 C1080 1.391 1_554 S
C1079 H1089 0.918 1_554 S
C1080 C1079 1.391 1_556 S
C1080 C1082 1.387 1_556 S
C1081 C1078 1.398 . S
C1081 C1082 1.380 . S
C1081 H1090 0.930 . S
C1082 C1080 1.387 1_554 S
C1082 C1081 1.380 . S
C1082 H1091 0.941 . S
C1083 O1060 1.254 . S
C1083 O1061 1.268 . S
H1084 C1069 0.930 . S
H1085 C1070 0.930 . S
H1086 C1072 0.930 . S
H1087 C1073 0.930 . S
H1088 C1078 0.930 . S
H1089 C1079 0.918 1_556 S
H1090 C1081 0.930 . S
H1091 C1082 0.941 . S
Gd1092 N1123 2.661 . S
Gd1092 N1129 2.601 . S
Gd1092 O1136 2.545 . S
Gd1092 O1137 2.606 . S
Gd1092 O1139 2.429 . S
Gd1092 O1140 2.545 . S
Gd1092 O1141 2.412 . S
Gd1092 O1143 2.362 . S
Gd1092 O1144 2.324 . S
Gd1092 C1151 2.828 . S
Gd1093 N1102 2.661 . S
Gd1093 N1106 2.601 . S
Gd1093 O1137 2.362 . S
Gd1093 O1138 2.324 . S
Gd1093 O1142 2.545 . S
Gd1093 O1143 2.606 . S
Gd1093 O1145 2.429 . S
Gd1093 O1146 2.545 . S
Gd1093 O1147 2.412 . S
Gd1093 C1160 2.828 . S
C1094 C1097 1.417 . S
C1094 C1099 1.431 . S
C1094 C1100 1.412 . S
C1095 C1098 1.437 . S
C1095 C1099 1.317 . S
C1095 H1114 0.929 . S
C1096 C1097 1.426 . S
C1096 C1098 1.413 . S
C1096 N1106 1.359 . S
C1097 C1094 1.417 . S
C1097 C1096 1.426 . S
C1097 N1102 1.350 . S
C1098 C1095 1.437 . S
C1098 C1096 1.413 . S
C1098 C1108 1.391 . S
C1099 C1094 1.431 . S
C1099 C1095 1.317 . S
C1099 H1110 0.930 . S
C1100 C1094 1.412 . S
C1100 C1101 1.355 . S
C1100 H1112 0.930 . S
C1101 C1100 1.355 . S
C1101 C1103 1.402 . S
C1101 H1113 0.930 . S
N1102 Gd1093 2.661 . S
N1102 C1097 1.350 . S
N1102 C1103 1.307 . S
C1103 C1101 1.402 . S
C1103 N1102 1.307 . S
C1103 H1104 0.930 . S
H1104 C1103 0.930 . S
C1105 N1106 1.334 . S
C1105 C1107 1.394 . S
C1105 H1109 0.930 . S
N1106 Gd1093 2.601 . S
N1106 C1096 1.359 . S
N1106 C1105 1.334 . S
C1107 C1105 1.394 . S
C1107 C1108 1.359 . S
C1107 H1119 0.930 . S
C1108 C1098 1.391 . S
C1108 C1107 1.359 . S
C1108 H1120 0.929 . S
H1109 C1105 0.930 . S
H1110 C1099 0.930 . S
H1111 C1128 0.930 . S
H1112 C1100 0.930 . S
H1113 C1101 0.930 . S
H1114 C1095 0.929 . S
H1115 C1133 0.930 . S
H1116 C1124 0.930 . S
H1117 C1125 0.930 . S
H1118 C1149 0.929 . S
H1119 C1107 0.930 . S
H1120 C1108 0.929 . S
H1121 C1150 0.930 . S
H1122 C1131 0.930 . S
N1123 Gd1092 2.661 . S
N1123 C1127 1.350 . S
N1123 C1128 1.307 . S
C1124 H1116 0.930 . S
C1124 C1125 1.355 . S
C1124 C1126 1.412 . S
C1125 H1117 0.930 . S
C1125 C1124 1.355 . S
C1125 C1128 1.402 . S
C1126 C1124 1.412 . S
C1126 C1127 1.417 . S
C1126 C1150 1.431 . S
C1127 N1123 1.350 . S
C1127 C1126 1.417 . S
C1127 C1130 1.426 . S
C1128 H1111 0.930 . S
C1128 N1123 1.307 . S
C1128 C1125 1.402 . S
N1129 Gd1092 2.601 . S
N1129 C1130 1.359 . S
N1129 C1133 1.334 . S
C1130 C1127 1.426 . S
C1130 N1129 1.359 . S
C1130 C1134 1.413 . S
C1131 H1122 0.930 . S
C1131 C1132 1.359 . S
C1131 C1133 1.394 . S
C1132 C1131 1.359 . S
C1132 C1134 1.391 . S
C1132 H1135 0.929 . S
C1133 H1115 0.930 . S
C1133 N1129 1.334 . S
C1133 C1131 1.394 . S
C1134 C1130 1.413 . S
C1134 C1132 1.391 . S
C1134 C1149 1.437 . S
H1135 C1132 0.929 . S
O1136 Gd1092 2.545 . S
O1136 C1151 1.258 . S
O1137 Gd1092 2.606 . S
O1137 Gd1093 2.362 . S
O1137 C1148 1.284 . S
O1138 Gd1093 2.324 . S
O1138 C1158 1.254 . S
O1139 Gd1092 2.429 . S
O1139 C1158 1.268 . S
O1140 Gd1092 2.545 . S
O1140 C1148 1.250 . S
O1141 Gd1092 2.412 . S
O1141 C1151 1.252 . S
O1142 Gd1093 2.545 . S
O1142 C1160 1.258 . S
O1143 Gd1092 2.362 . S
O1143 Gd1093 2.606 . S
O1143 C1159 1.284 . S
O1144 Gd1092 2.324 . S
O1144 C1167 1.254 . S
O1145 Gd1093 2.429 . S
O1145 C1167 1.268 . S
O1146 Gd1093 2.545 . S
O1146 C1159 1.250 . S
O1147 Gd1093 2.412 . S
O1147 C1160 1.252 . S
C1148 O1137 1.284 . S
C1148 O1140 1.250 . S
C1149 H1118 0.929 . S
C1149 C1134 1.437 . S
C1149 C1150 1.317 . S
C1150 H1121 0.930 . S
C1150 C1126 1.431 . S
C1150 C1149 1.317 . S
C1151 Gd1092 2.828 . S
C1151 O1136 1.258 . S
C1151 O1141 1.252 . S
C1151 C1152 1.497 . S
C1152 C1151 1.497 . S
C1152 C1153 1.395 . S
C1152 C1154 1.380 . S
C1153 C1152 1.395 . S
C1153 C1156 1.398 . S
C1153 H1168 0.930 . S
C1154 C1152 1.380 . S
C1154 C1155 1.391 . S
C1154 H1169 0.930 . S
C1155 C1154 1.391 . S
C1155 C1157 1.387 . S
C1156 C1153 1.398 . S
C1156 C1157 1.380 . S
C1156 H1170 0.930 . S
C1157 C1155 1.387 . S
C1157 C1156 1.380 . S
C1157 H1171 0.930 . S
C1158 O1138 1.254 . S
C1158 O1139 1.268 . S
C1159 O1143 1.284 . S
C1159 O1146 1.250 . S
C1160 Gd1093 2.828 . S
C1160 O1142 1.258 . S
C1160 O1147 1.252 . S
C1160 C1161 1.497 . S
C1161 C1160 1.497 . S
C1161 C1162 1.395 . S
C1161 C1163 1.380 . S
C1162 C1161 1.395 . S
C1162 C1165 1.398 . S
C1162 H1172 0.930 . S
C1163 C1161 1.380 . S
C1163 C1164 1.391 . S
C1163 H1173 0.930 . S
C1164 C1163 1.391 . S
C1164 C1166 1.387 . S
C1165 C1162 1.398 . S
C1165 C1166 1.380 . S
C1165 H1174 0.930 . S
C1166 C1164 1.387 . S
C1166 C1165 1.380 . S
C1166 H1175 0.930 . S
C1167 O1144 1.254 . S
C1167 O1145 1.268 . S
H1168 C1153 0.930 . S
H1169 C1154 0.930 . S
H1170 C1156 0.930 . S
H1171 C1157 0.930 . S
H1172 C1162 0.930 . S
H1173 C1163 0.930 . S
H1174 C1165 0.930 . S
H1175 C1166 0.930 . S
Gd1176 N1207 2.661 . S
Gd1176 N1213 2.601 . S
Gd1176 O1220 2.545 . S
Gd1176 O1221 2.606 . S
Gd1176 O1223 2.429 . S
Gd1176 O1224 2.545 . S
Gd1176 O1225 2.412 . S
Gd1176 O1227 2.362 . S
Gd1176 O1228 2.324 . S
Gd1176 C1235 2.828 . S
Gd1177 N1186 2.661 . S
Gd1177 N1190 2.601 . S
Gd1177 O1221 2.362 . S
Gd1177 O1222 2.324 . S
Gd1177 O1226 2.545 . S
Gd1177 O1227 2.606 . S
Gd1177 O1229 2.429 . S
Gd1177 O1230 2.545 . S
Gd1177 O1231 2.412 . S
Gd1177 C1244 2.828 . S
C1178 C1181 1.417 . S
C1178 C1183 1.431 . S
C1178 C1184 1.412 . S
C1179 C1182 1.437 . S
C1179 C1183 1.317 . S
C1179 H1198 0.929 . S
C1180 C1181 1.426 . S
C1180 C1182 1.413 . S
C1180 N1190 1.359 . S
C1181 C1178 1.417 . S
C1181 C1180 1.426 . S
C1181 N1186 1.350 . S
C1182 C1179 1.437 . S
C1182 C1180 1.413 . S
C1182 C1192 1.391 . S
C1183 C1178 1.431 . S
C1183 C1179 1.317 . S
C1183 H1194 0.930 . S
C1184 C1178 1.412 . S
C1184 C1185 1.355 . S
C1184 H1196 0.930 . S
C1185 C1184 1.355 . S
C1185 C1187 1.402 . S
C1185 H1197 0.930 . S
N1186 Gd1177 2.661 . S
N1186 C1181 1.350 . S
N1186 C1187 1.307 . S
C1187 C1185 1.402 . S
C1187 N1186 1.307 . S
C1187 H1188 0.930 . S
H1188 C1187 0.930 . S
C1189 N1190 1.334 . S
C1189 C1191 1.394 . S
C1189 H1193 0.930 . S
N1190 Gd1177 2.601 . S
N1190 C1180 1.359 . S
N1190 C1189 1.334 . S
C1191 C1189 1.394 . S
C1191 C1192 1.359 . S
C1191 H1203 0.930 . S
C1192 C1182 1.391 . S
C1192 C1191 1.359 . S
C1192 H1204 0.929 . S
H1193 C1189 0.930 . S
H1194 C1183 0.930 . S
H1195 C1212 0.930 . S
H1196 C1184 0.930 . S
H1197 C1185 0.930 . S
H1198 C1179 0.929 . S
H1199 C1217 0.930 . S
H1200 C1208 0.930 . S
H1201 C1209 0.930 . S
H1202 C1233 0.929 . S
H1203 C1191 0.930 . S
H1204 C1192 0.929 . S
H1205 C1234 0.930 . S
H1206 C1215 0.930 . S
N1207 Gd1176 2.661 . S
N1207 C1211 1.350 1_455 S
N1207 C1212 1.307 . S
C1208 H1200 0.930 . S
C1208 C1209 1.355 . S
C1208 C1210 1.412 . S
C1209 H1201 0.930 . S
C1209 C1208 1.355 . S
C1209 C1212 1.402 1_655 S
C1210 C1208 1.412 . S
C1210 C1211 1.417 . S
C1210 C1234 1.431 . S
C1211 N1207 1.350 1_655 S
C1211 C1210 1.417 . S
C1211 C1214 1.430 1_655 S
C1212 H1195 0.930 . S
C1212 N1207 1.307 . S
C1212 C1209 1.402 1_455 S
N1213 Gd1176 2.601 . S
N1213 C1214 1.373 . S
N1213 C1217 1.334 . S
C1214 C1211 1.430 1_455 S
C1214 N1213 1.373 . S
C1214 C1218 1.397 1_455 S
C1215 H1206 0.930 . S
C1215 C1216 1.359 1_455 S
C1215 C1217 1.394 . S
C1216 C1215 1.359 1_655 S
C1216 C1218 1.391 . S
C1216 H1219 0.929 . S
C1217 H1199 0.930 . S
C1217 N1213 1.334 . S
C1217 C1215 1.394 . S
C1218 C1214 1.397 1_655 S
C1218 C1216 1.391 . S
C1218 C1233 1.437 . S
H1219 C1216 0.929 . S
O1220 Gd1176 2.545 . S
O1220 C1235 1.258 . S
O1221 Gd1176 2.606 . S
O1221 Gd1177 2.362 . S
O1221 C1232 1.284 . S
O1222 Gd1177 2.324 . S
O1222 C1242 1.254 . S
O1223 Gd1176 2.429 . S
O1223 C1242 1.268 . S
O1224 Gd1176 2.545 . S
O1224 C1232 1.250 . S
O1225 Gd1176 2.412 . S
O1225 C1235 1.252 . S
O1226 Gd1177 2.545 . S
O1226 C1244 1.258 . S
O1227 Gd1176 2.362 . S
O1227 Gd1177 2.606 . S
O1227 C1243 1.284 . S
O1228 Gd1176 2.324 . S
O1228 C1251 1.254 . S
O1229 Gd1177 2.429 . S
O1229 C1251 1.268 . S
O1230 Gd1177 2.545 . S
O1230 C1243 1.250 . S
O1231 Gd1177 2.412 . S
O1231 C1244 1.252 . S
C1232 O1221 1.284 . S
C1232 O1224 1.250 . S
C1233 H1202 0.929 . S
C1233 C1218 1.437 . S
C1233 C1234 1.317 . S
C1234 H1205 0.930 . S
C1234 C1210 1.431 . S
C1234 C1233 1.317 . S
C1235 Gd1176 2.828 . S
C1235 O1220 1.258 . S
C1235 O1225 1.252 . S
C1235 C1236 1.497 . S
C1236 C1235 1.497 . S
C1236 C1237 1.395 . S
C1236 C1238 1.380 . S
C1237 C1236 1.395 . S
C1237 C1240 1.398 . S
C1237 H1252 0.930 . S
C1238 C1236 1.380 . S
C1238 C1239 1.391 . S
C1238 H1253 0.930 . S
C1239 C1238 1.391 . S
C1239 C1241 1.387 . S
C1240 C1237 1.398 . S
C1240 C1241 1.380 . S
C1240 H1254 0.930 . S
C1241 C1239 1.387 . S
C1241 C1240 1.380 . S
C1241 H1255 0.930 . S
C1242 O1222 1.254 . S
C1242 O1223 1.268 . S
C1243 O1227 1.284 . S
C1243 O1230 1.250 . S
C1244 Gd1177 2.828 . S
C1244 O1226 1.258 . S
C1244 O1231 1.252 . S
C1244 C1245 1.497 . S
C1245 C1244 1.497 . S
C1245 C1246 1.395 . S
C1245 C1247 1.380 . S
C1246 C1245 1.395 . S
C1246 C1249 1.398 . S
C1246 H1256 0.930 . S
C1247 C1245 1.380 . S
C1247 C1248 1.391 . S
C1247 H1257 0.930 . S
C1248 C1247 1.391 . S
C1248 C1250 1.387 . S
C1249 C1246 1.398 . S
C1249 C1250 1.380 . S
C1249 H1258 0.930 . S
C1250 C1248 1.387 . S
C1250 C1249 1.380 . S
C1250 H1259 0.930 . S
C1251 O1228 1.254 . S
C1251 O1229 1.268 . S
H1252 C1237 0.930 . S
H1253 C1238 0.930 . S
H1254 C1240 0.930 . S
H1255 C1241 0.930 . S
H1256 C1246 0.930 . S
H1257 C1247 0.930 . S
H1258 C1249 0.930 . S
H1259 C1250 0.930 . S
Gd1260 N1291 2.661 . S
Gd1260 N1297 2.601 . S
Gd1260 O1304 2.545 . S
Gd1260 O1305 2.606 . S
Gd1260 O1307 2.429 . S
Gd1260 O1308 2.545 . S
Gd1260 O1309 2.412 . S
Gd1260 O1311 2.362 . S
Gd1260 O1312 2.324 . S
Gd1260 C1319 2.828 . S
Gd1261 N1270 2.661 . S
Gd1261 N1274 2.601 . S
Gd1261 O1305 2.362 . S
Gd1261 O1306 2.324 . S
Gd1261 O1310 2.545 . S
Gd1261 O1311 2.606 . S
Gd1261 O1313 2.429 . S
Gd1261 O1314 2.545 . S
Gd1261 O1315 2.412 . S
Gd1261 C1328 2.828 . S
C1262 C1265 1.417 . S
C1262 C1267 1.431 . S
C1262 C1268 1.412 . S
C1263 C1266 1.437 . S
C1263 C1267 1.317 . S
C1263 H1282 0.929 . S
C1264 C1265 1.426 . S
C1264 C1266 1.413 . S
C1264 N1274 1.359 . S
C1265 C1262 1.417 . S
C1265 C1264 1.426 . S
C1265 N1270 1.350 . S
C1266 C1263 1.437 . S
C1266 C1264 1.413 . S
C1266 C1276 1.391 . S
C1267 C1262 1.431 . S
C1267 C1263 1.317 . S
C1267 H1278 0.930 . S
C1268 C1262 1.412 . S
C1268 C1269 1.355 . S
C1268 H1280 0.930 . S
C1269 C1268 1.355 . S
C1269 C1271 1.402 . S
C1269 H1281 0.930 . S
N1270 Gd1261 2.661 . S
N1270 C1265 1.350 . S
N1270 C1271 1.307 . S
C1271 C1269 1.402 . S
C1271 N1270 1.307 . S
C1271 H1272 0.930 . S
H1272 C1271 0.930 . S
C1273 N1274 1.334 . S
C1273 C1275 1.394 . S
C1273 H1277 0.930 . S
N1274 Gd1261 2.601 . S
N1274 C1264 1.359 . S
N1274 C1273 1.334 . S
C1275 C1273 1.394 . S
C1275 C1276 1.359 . S
C1275 H1287 0.930 . S
C1276 C1266 1.391 . S
C1276 C1275 1.359 . S
C1276 H1288 0.929 . S
H1277 C1273 0.930 . S
H1278 C1267 0.930 . S
H1279 C1296 0.930 . S
H1280 C1268 0.930 . S
H1281 C1269 0.930 . S
H1282 C1263 0.929 . S
H1283 C1301 0.930 . S
H1284 C1292 0.930 . S
H1285 C1293 0.930 . S
H1286 C1317 0.929 . S
H1287 C1275 0.930 . S
H1288 C1276 0.929 . S
H1289 C1318 0.930 . S
H1290 C1299 0.930 . S
N1291 Gd1260 2.661 . S
N1291 C1295 1.350 . S
N1291 C1296 1.307 . S
C1292 H1284 0.930 . S
C1292 C1293 1.355 . S
C1292 C1294 1.412 . S
C1293 H1285 0.930 . S
C1293 C1292 1.355 . S
C1293 C1296 1.402 . S
C1294 C1292 1.412 . S
C1294 C1295 1.417 . S
C1294 C1318 1.431 . S
C1295 N1291 1.350 . S
C1295 C1294 1.417 . S
C1295 C1298 1.426 . S
C1296 H1279 0.930 . S
C1296 N1291 1.307 . S
C1296 C1293 1.402 . S
N1297 Gd1260 2.601 . S
N1297 C1298 1.359 . S
N1297 C1301 1.334 . S
C1298 C1295 1.426 . S
C1298 N1297 1.359 . S
C1298 C1302 1.413 . S
C1299 H1290 0.930 . S
C1299 C1300 1.359 . S
C1299 C1301 1.394 . S
C1300 C1299 1.359 . S
C1300 C1302 1.391 . S
C1300 H1303 0.929 . S
C1301 H1283 0.930 . S
C1301 N1297 1.334 . S
C1301 C1299 1.394 . S
C1302 C1298 1.413 . S
C1302 C1300 1.391 . S
C1302 C1317 1.437 . S
H1303 C1300 0.929 . S
O1304 Gd1260 2.545 . S
O1304 C1319 1.258 . S
O1305 Gd1260 2.606 . S
O1305 Gd1261 2.362 . S
O1305 C1316 1.284 . S
O1306 Gd1261 2.324 . S
O1306 C1326 1.254 . S
O1307 Gd1260 2.429 . S
O1307 C1326 1.268 . S
O1308 Gd1260 2.545 . S
O1308 C1316 1.250 . S
O1309 Gd1260 2.412 . S
O1309 C1319 1.252 . S
O1310 Gd1261 2.545 . S
O1310 C1328 1.258 . S
O1311 Gd1260 2.362 . S
O1311 Gd1261 2.606 . S
O1311 C1327 1.284 . S
O1312 Gd1260 2.324 . S
O1312 C1335 1.254 . S
O1313 Gd1261 2.429 . S
O1313 C1335 1.268 . S
O1314 Gd1261 2.545 . S
O1314 C1327 1.250 . S
O1315 Gd1261 2.412 . S
O1315 C1328 1.252 . S
C1316 O1305 1.284 . S
C1316 O1308 1.250 . S
C1317 H1286 0.929 . S
C1317 C1302 1.437 . S
C1317 C1318 1.317 . S
C1318 H1289 0.930 . S
C1318 C1294 1.431 . S
C1318 C1317 1.317 . S
C1319 Gd1260 2.828 . S
C1319 O1304 1.258 . S
C1319 O1309 1.252 . S
C1319 C1320 1.497 . S
C1320 C1319 1.497 . S
C1320 C1321 1.395 . S
C1320 C1322 1.380 . S
C1321 C1320 1.395 . S
C1321 C1324 1.398 . S
C1321 H1336 0.930 . S
C1322 C1320 1.380 . S
C1322 C1323 1.391 . S
C1322 H1337 0.930 . S
C1323 C1322 1.391 . S
C1323 C1325 1.387 . S
C1324 C1321 1.398 . S
C1324 C1325 1.380 . S
C1324 H1338 0.930 . S
C1325 C1323 1.387 . S
C1325 C1324 1.380 . S
C1325 H1339 0.930 . S
C1326 O1306 1.254 . S
C1326 O1307 1.268 . S
C1327 O1311 1.284 . S
C1327 O1314 1.250 . S
C1328 Gd1261 2.828 . S
C1328 O1310 1.258 . S
C1328 O1315 1.252 . S
C1328 C1329 1.497 . S
C1329 C1328 1.497 . S
C1329 C1330 1.395 . S
C1329 C1331 1.380 . S
C1330 C1329 1.395 . S
C1330 C1333 1.398 . S
C1330 H1340 0.930 . S
C1331 C1329 1.380 . S
C1331 C1332 1.391 . S
C1331 H1341 0.930 . S
C1332 C1331 1.391 . S
C1332 C1334 1.387 . S
C1333 C1330 1.398 . S
C1333 C1334 1.380 . S
C1333 H1342 0.930 . S
C1334 C1332 1.387 . S
C1334 C1333 1.380 . S
C1334 H1343 0.930 . S
C1335 O1312 1.254 . S
C1335 O1313 1.268 . S
H1336 C1321 0.930 . S
H1337 C1322 0.930 . S
H1338 C1324 0.930 . S
H1339 C1325 0.930 . S
H1340 C1330 0.930 . S
H1341 C1331 0.930 . S
H1342 C1333 0.930 . S
H1343 C1334 0.930 . S
Gd1344 N1375 2.661 . S
Gd1344 N1381 2.601 . S
Gd1344 O1388 2.545 . S
Gd1344 O1389 2.606 . S
Gd1344 O1391 2.429 . S
Gd1344 O1392 2.545 . S
Gd1344 O1393 2.412 . S
Gd1344 O1395 2.362 . S
Gd1344 O1396 2.324 . S
Gd1344 C1403 2.828 . S
Gd1345 N1354 2.661 . S
Gd1345 N1358 2.601 . S
Gd1345 O1389 2.362 . S
Gd1345 O1390 2.324 . S
Gd1345 O1394 2.545 . S
Gd1345 O1395 2.606 . S
Gd1345 O1397 2.429 . S
Gd1345 O1398 2.545 . S
Gd1345 O1399 2.412 . S
Gd1345 C1412 2.828 . S
C1346 C1349 1.417 . S
C1346 C1351 1.431 . S
C1346 C1352 1.412 . S
C1347 C1350 1.437 . S
C1347 C1351 1.317 . S
C1347 H1366 0.929 . S
C1348 C1349 1.426 . S
C1348 C1350 1.413 . S
C1348 N1358 1.359 . S
C1349 C1346 1.417 . S
C1349 C1348 1.426 . S
C1349 N1354 1.350 . S
C1350 C1347 1.437 . S
C1350 C1348 1.413 . S
C1350 C1360 1.391 . S
C1351 C1346 1.431 . S
C1351 C1347 1.317 . S
C1351 H1362 0.930 . S
C1352 C1346 1.412 . S
C1352 C1353 1.355 . S
C1352 H1364 0.930 . S
C1353 C1352 1.355 . S
C1353 C1355 1.402 . S
C1353 H1365 0.930 . S
N1354 Gd1345 2.661 . S
N1354 C1349 1.350 . S
N1354 C1355 1.307 . S
C1355 C1353 1.402 . S
C1355 N1354 1.307 . S
C1355 H1356 0.930 . S
H1356 C1355 0.930 . S
C1357 N1358 1.334 . S
C1357 C1359 1.394 . S
C1357 H1361 0.930 . S
N1358 Gd1345 2.601 . S
N1358 C1348 1.359 . S
N1358 C1357 1.334 . S
C1359 C1357 1.394 . S
C1359 C1360 1.359 . S
C1359 H1371 0.930 . S
C1360 C1350 1.391 . S
C1360 C1359 1.359 . S
C1360 H1372 0.929 . S
H1361 C1357 0.930 . S
H1362 C1351 0.930 . S
H1363 C1380 0.930 . S
H1364 C1352 0.930 . S
H1365 C1353 0.930 . S
H1366 C1347 0.929 . S
H1367 C1385 0.930 . S
H1368 C1376 0.930 . S
H1369 C1377 0.930 . S
H1370 C1401 0.929 . S
H1371 C1359 0.930 . S
H1372 C1360 0.929 . S
H1373 C1402 0.930 . S
H1374 C1383 0.930 . S
N1375 Gd1344 2.661 . S
N1375 C1379 1.350 . S
N1375 C1380 1.307 . S
C1376 H1368 0.930 . S
C1376 C1377 1.355 . S
C1376 C1378 1.412 . S
C1377 H1369 0.930 . S
C1377 C1376 1.355 . S
C1377 C1380 1.402 . S
C1378 C1376 1.412 . S
C1378 C1379 1.417 . S
C1378 C1402 1.431 . S
C1379 N1375 1.350 . S
C1379 C1378 1.417 . S
C1379 C1382 1.426 . S
C1380 H1363 0.930 . S
C1380 N1375 1.307 . S
C1380 C1377 1.402 . S
N1381 Gd1344 2.601 . S
N1381 C1382 1.359 . S
N1381 C1385 1.334 . S
C1382 C1379 1.426 . S
C1382 N1381 1.359 . S
C1382 C1386 1.413 . S
C1383 H1374 0.930 . S
C1383 C1384 1.359 . S
C1383 C1385 1.394 . S
C1384 C1383 1.359 . S
C1384 C1386 1.391 . S
C1384 H1387 0.929 . S
C1385 H1367 0.930 . S
C1385 N1381 1.334 . S
C1385 C1383 1.394 . S
C1386 C1382 1.413 . S
C1386 C1384 1.391 . S
C1386 C1401 1.437 . S
H1387 C1384 0.929 . S
O1388 Gd1344 2.545 . S
O1388 C1403 1.258 . S
O1389 Gd1344 2.606 . S
O1389 Gd1345 2.362 . S
O1389 C1400 1.284 . S
O1390 Gd1345 2.324 . S
O1390 C1410 1.254 . S
O1391 Gd1344 2.429 . S
O1391 C1410 1.268 . S
O1392 Gd1344 2.545 . S
O1392 C1400 1.250 . S
O1393 Gd1344 2.412 . S
O1393 C1403 1.252 . S
O1394 Gd1345 2.545 . S
O1394 C1412 1.258 . S
O1395 Gd1344 2.362 . S
O1395 Gd1345 2.606 . S
O1395 C1411 1.284 . S
O1396 Gd1344 2.324 . S
O1396 C1419 1.254 . S
O1397 Gd1345 2.429 . S
O1397 C1419 1.268 . S
O1398 Gd1345 2.545 . S
O1398 C1411 1.250 . S
O1399 Gd1345 2.412 . S
O1399 C1412 1.252 . S
C1400 O1389 1.284 . S
C1400 O1392 1.250 . S
C1401 H1370 0.929 . S
C1401 C1386 1.437 . S
C1401 C1402 1.317 . S
C1402 H1373 0.930 . S
C1402 C1378 1.431 . S
C1402 C1401 1.317 . S
C1403 Gd1344 2.828 . S
C1403 O1388 1.258 . S
C1403 O1393 1.252 . S
C1403 C1404 1.497 . S
C1404 C1403 1.497 . S
C1404 C1405 1.395 . S
C1404 C1406 1.380 . S
C1405 C1404 1.395 . S
C1405 C1408 1.398 . S
C1405 H1420 0.930 . S
C1406 C1404 1.380 . S
C1406 C1407 1.391 . S
C1406 H1421 0.930 . S
C1407 C1406 1.391 . S
C1407 C1409 1.387 . S
C1408 C1405 1.398 . S
C1408 C1409 1.380 . S
C1408 H1422 0.930 . S
C1409 C1407 1.387 . S
C1409 C1408 1.380 . S
C1409 H1423 0.930 . S
C1410 O1390 1.254 . S
C1410 O1391 1.268 . S
C1411 O1395 1.284 . S
C1411 O1398 1.250 . S
C1412 Gd1345 2.828 . S
C1412 O1394 1.258 . S
C1412 O1399 1.252 . S
C1412 C1413 1.497 . S
C1413 C1412 1.497 . S
C1413 C1414 1.395 . S
C1413 C1415 1.380 . S
C1414 C1413 1.395 . S
C1414 C1417 1.398 . S
C1414 H1424 0.930 . S
C1415 C1413 1.380 . S
C1415 C1416 1.391 . S
C1415 H1425 0.930 . S
C1416 C1415 1.391 . S
C1416 C1418 1.387 . S
C1417 C1414 1.398 . S
C1417 C1418 1.380 . S
C1417 H1426 0.930 . S
C1418 C1416 1.387 . S
C1418 C1417 1.380 . S
C1418 H1427 0.930 . S
C1419 O1396 1.254 . S
C1419 O1397 1.268 . S
H1420 C1405 0.930 . S
H1421 C1406 0.930 . S
H1422 C1408 0.930 . S
H1423 C1409 0.930 . S
H1424 C1414 0.930 . S
H1425 C1415 0.930 . S
H1426 C1417 0.930 . S
H1427 C1418 0.930 . S
Gd1428 N1459 2.661 . S
Gd1428 N1465 2.601 . S
Gd1428 O1472 2.545 . S
Gd1428 O1473 2.606 . S
Gd1428 O1475 2.429 . S
Gd1428 O1476 2.545 . S
Gd1428 O1477 2.412 . S
Gd1428 O1479 2.362 . S
Gd1428 O1480 2.324 . S
Gd1428 C1487 2.828 . S
Gd1429 N1438 2.661 . S
Gd1429 N1442 2.601 . S
Gd1429 O1473 2.362 . S
Gd1429 O1474 2.324 . S
Gd1429 O1478 2.545 . S
Gd1429 O1479 2.606 . S
Gd1429 O1481 2.429 . S
Gd1429 O1482 2.545 . S
Gd1429 O1483 2.412 . S
Gd1429 C1496 2.828 . S
C1430 C1433 1.417 . S
C1430 C1435 1.431 . S
C1430 C1436 1.412 . S
C1431 C1434 1.437 . S
C1431 C1435 1.317 . S
C1431 H1450 0.929 . S
C1432 C1433 1.426 . S
C1432 C1434 1.413 . S
C1432 N1442 1.359 . S
C1433 C1430 1.417 . S
C1433 C1432 1.426 . S
C1433 N1438 1.350 . S
C1434 C1431 1.437 . S
C1434 C1432 1.413 . S
C1434 C1444 1.391 . S
C1435 C1430 1.431 . S
C1435 C1431 1.317 . S
C1435 H1446 0.930 . S
C1436 C1430 1.412 . S
C1436 C1437 1.355 . S
C1436 H1448 0.930 . S
C1437 C1436 1.355 . S
C1437 C1439 1.402 . S
C1437 H1449 0.930 . S
N1438 Gd1429 2.661 . S
N1438 C1433 1.350 . S
N1438 C1439 1.307 . S
C1439 C1437 1.402 . S
C1439 N1438 1.307 . S
C1439 H1440 0.930 . S
H1440 C1439 0.930 . S
C1441 N1442 1.334 . S
C1441 C1443 1.394 . S
C1441 H1445 0.930 . S
N1442 Gd1429 2.601 . S
N1442 C1432 1.359 . S
N1442 C1441 1.334 . S
C1443 C1441 1.394 . S
C1443 C1444 1.359 . S
C1443 H1455 0.930 . S
C1444 C1434 1.391 . S
C1444 C1443 1.359 . S
C1444 H1456 0.929 . S
H1445 C1441 0.930 . S
H1446 C1435 0.930 . S
H1447 C1464 0.930 . S
H1448 C1436 0.930 . S
H1449 C1437 0.930 . S
H1450 C1431 0.929 . S
H1451 C1469 0.930 . S
H1452 C1460 0.930 . S
H1453 C1461 0.930 . S
H1454 C1485 0.929 . S
H1455 C1443 0.930 . S
H1456 C1444 0.929 . S
H1457 C1486 0.930 . S
H1458 C1467 0.930 . S
N1459 Gd1428 2.661 . S
N1459 C1463 1.350 . S
N1459 C1464 1.307 . S
C1460 H1452 0.930 . S
C1460 C1461 1.355 . S
C1460 C1462 1.412 . S
C1461 H1453 0.930 . S
C1461 C1460 1.355 . S
C1461 C1464 1.402 . S
C1462 C1460 1.412 . S
C1462 C1463 1.417 . S
C1462 C1486 1.431 . S
C1463 N1459 1.350 . S
C1463 C1462 1.417 . S
C1463 C1466 1.426 . S
C1464 H1447 0.930 . S
C1464 N1459 1.307 . S
C1464 C1461 1.402 . S
N1465 Gd1428 2.601 . S
N1465 C1466 1.359 . S
N1465 C1469 1.334 . S
C1466 C1463 1.426 . S
C1466 N1465 1.359 . S
C1466 C1470 1.413 . S
C1467 H1458 0.930 . S
C1467 C1468 1.359 . S
C1467 C1469 1.394 . S
C1468 C1467 1.359 . S
C1468 C1470 1.391 . S
C1468 H1471 0.929 . S
C1469 H1451 0.930 . S
C1469 N1465 1.334 . S
C1469 C1467 1.394 . S
C1470 C1466 1.413 . S
C1470 C1468 1.391 . S
C1470 C1485 1.437 . S
H1471 C1468 0.929 . S
O1472 Gd1428 2.545 . S
O1472 C1487 1.258 . S
O1473 Gd1428 2.606 . S
O1473 Gd1429 2.362 . S
O1473 C1484 1.284 . S
O1474 Gd1429 2.324 . S
O1474 C1494 1.254 . S
O1475 Gd1428 2.429 . S
O1475 C1494 1.268 . S
O1476 Gd1428 2.545 . S
O1476 C1484 1.250 . S
O1477 Gd1428 2.412 . S
O1477 C1487 1.252 . S
O1478 Gd1429 2.545 . S
O1478 C1496 1.258 . S
O1479 Gd1428 2.362 . S
O1479 Gd1429 2.606 . S
O1479 C1495 1.284 . S
O1480 Gd1428 2.324 . S
O1480 C1503 1.254 . S
O1481 Gd1429 2.429 . S
O1481 C1503 1.268 . S
O1482 Gd1429 2.545 . S
O1482 C1495 1.250 . S
O1483 Gd1429 2.412 . S
O1483 C1496 1.252 . S
C1484 O1473 1.284 . S
C1484 O1476 1.250 . S
C1485 H1454 0.929 . S
C1485 C1470 1.437 . S
C1485 C1486 1.317 . S
C1486 H1457 0.930 . S
C1486 C1462 1.431 . S
C1486 C1485 1.317 . S
C1487 Gd1428 2.828 . S
C1487 O1472 1.258 . S
C1487 O1477 1.252 . S
C1487 C1488 1.497 . S
C1488 C1487 1.497 . S
C1488 C1489 1.395 . S
C1488 C1490 1.380 . S
C1489 C1488 1.395 . S
C1489 C1492 1.398 . S
C1489 H1504 0.930 . S
C1490 C1488 1.380 . S
C1490 C1491 1.391 . S
C1490 H1505 0.930 . S
C1491 C1490 1.391 . S
C1491 C1493 1.387 . S
C1492 C1489 1.398 . S
C1492 C1493 1.380 . S
C1492 H1506 0.930 . S
C1493 C1491 1.387 . S
C1493 C1492 1.380 . S
C1493 H1507 0.930 . S
C1494 O1474 1.254 . S
C1494 O1475 1.268 . S
C1495 O1479 1.284 . S
C1495 O1482 1.250 . S
C1496 Gd1429 2.828 . S
C1496 O1478 1.258 . S
C1496 O1483 1.252 . S
C1496 C1497 1.497 . S
C1497 C1496 1.497 . S
C1497 C1498 1.395 . S
C1497 C1499 1.380 . S
C1498 C1497 1.395 . S
C1498 C1501 1.398 . S
C1498 H1508 0.930 . S
C1499 C1497 1.380 . S
C1499 C1500 1.391 . S
C1499 H1509 0.930 . S
C1500 C1499 1.391 . S
C1500 C1502 1.387 . S
C1501 C1498 1.398 . S
C1501 C1502 1.380 . S
C1501 H1510 0.930 . S
C1502 C1500 1.387 . S
C1502 C1501 1.380 . S
C1502 H1511 0.930 . S
C1503 O1480 1.254 . S
C1503 O1481 1.268 . S
H1504 C1489 0.930 . S
H1505 C1490 0.930 . S
H1506 C1492 0.930 . S
H1507 C1493 0.930 . S
H1508 C1498 0.930 . S
H1509 C1499 0.930 . S
H1510 C1501 0.930 . S
H1511 C1502 0.930 . S
Gd1512 N1543 2.661 . S
Gd1512 N1549 2.601 . S
Gd1512 O1556 2.545 . S
Gd1512 O1557 2.606 . S
Gd1512 O1559 2.429 . S
Gd1512 O1560 2.545 . S
Gd1512 O1561 2.412 . S
Gd1512 O1563 2.362 . S
Gd1512 O1564 2.324 . S
Gd1512 C1571 2.828 . S
Gd1513 N1522 2.661 . S
Gd1513 N1526 2.601 . S
Gd1513 O1557 2.362 . S
Gd1513 O1558 2.324 . S
Gd1513 O1562 2.545 . S
Gd1513 O1563 2.606 . S
Gd1513 O1565 2.429 . S
Gd1513 O1566 2.545 . S
Gd1513 O1567 2.412 . S
Gd1513 C1580 2.828 . S
C1514 C1517 1.417 . S
C1514 C1519 1.431 . S
C1514 C1520 1.412 . S
C1515 C1518 1.437 . S
C1515 C1519 1.317 . S
C1515 H1534 0.929 . S
C1516 C1517 1.426 . S
C1516 C1518 1.413 . S
C1516 N1526 1.359 . S
C1517 C1514 1.417 . S
C1517 C1516 1.426 . S
C1517 N1522 1.350 . S
C1518 C1515 1.437 . S
C1518 C1516 1.413 . S
C1518 C1528 1.391 . S
C1519 C1514 1.431 . S
C1519 C1515 1.317 . S
C1519 H1530 0.930 . S
C1520 C1514 1.412 . S
C1520 C1521 1.355 . S
C1520 H1532 0.930 . S
C1521 C1520 1.355 . S
C1521 C1523 1.402 . S
C1521 H1533 0.930 . S
N1522 Gd1513 2.661 . S
N1522 C1517 1.350 . S
N1522 C1523 1.307 . S
C1523 C1521 1.402 . S
C1523 N1522 1.307 . S
C1523 H1524 0.930 . S
H1524 C1523 0.930 . S
C1525 N1526 1.334 . S
C1525 C1527 1.394 . S
C1525 H1529 0.930 . S
N1526 Gd1513 2.601 . S
N1526 C1516 1.359 . S
N1526 C1525 1.334 . S
C1527 C1525 1.394 . S
C1527 C1528 1.359 . S
C1527 H1539 0.930 . S
C1528 C1518 1.391 . S
C1528 C1527 1.359 . S
C1528 H1540 0.929 . S
H1529 C1525 0.930 . S
H1530 C1519 0.930 . S
H1531 C1548 0.930 . S
H1532 C1520 0.930 . S
H1533 C1521 0.930 . S
H1534 C1515 0.929 . S
H1535 C1553 0.930 . S
H1536 C1544 0.930 . S
H1537 C1545 0.930 . S
H1538 C1569 0.929 . S
H1539 C1527 0.930 . S
H1540 C1528 0.929 . S
H1541 C1570 0.930 . S
H1542 C1551 0.930 . S
N1543 Gd1512 2.661 . S
N1543 C1547 1.350 . S
N1543 C1548 1.307 . S
C1544 H1536 0.930 . S
C1544 C1545 1.355 . S
C1544 C1546 1.412 . S
C1545 H1537 0.930 . S
C1545 C1544 1.355 . S
C1545 C1548 1.402 . S
C1546 C1544 1.412 . S
C1546 C1547 1.417 . S
C1546 C1570 1.431 . S
C1547 N1543 1.350 . S
C1547 C1546 1.417 . S
C1547 C1550 1.426 . S
C1548 H1531 0.930 . S
C1548 N1543 1.307 . S
C1548 C1545 1.402 . S
N1549 Gd1512 2.601 . S
N1549 C1550 1.359 . S
N1549 C1553 1.334 . S
C1550 C1547 1.426 . S
C1550 N1549 1.359 . S
C1550 C1554 1.413 . S
C1551 H1542 0.930 . S
C1551 C1552 1.359 . S
C1551 C1553 1.394 . S
C1552 C1551 1.359 . S
C1552 C1554 1.391 . S
C1552 H1555 0.929 . S
C1553 H1535 0.930 . S
C1553 N1549 1.334 . S
C1553 C1551 1.394 . S
C1554 C1550 1.413 . S
C1554 C1552 1.391 . S
C1554 C1569 1.437 . S
H1555 C1552 0.929 . S
O1556 Gd1512 2.545 . S
O1556 C1571 1.258 . S
O1557 Gd1512 2.606 . S
O1557 Gd1513 2.362 . S
O1557 C1568 1.284 . S
O1558 Gd1513 2.324 . S
O1558 C1578 1.254 . S
O1559 Gd1512 2.429 . S
O1559 C1578 1.268 . S
O1560 Gd1512 2.545 . S
O1560 C1568 1.250 . S
O1561 Gd1512 2.412 . S
O1561 C1571 1.252 . S
O1562 Gd1513 2.545 . S
O1562 C1580 1.258 . S
O1563 Gd1512 2.362 . S
O1563 Gd1513 2.606 . S
O1563 C1579 1.284 . S
O1564 Gd1512 2.324 . S
O1564 C1587 1.254 . S
O1565 Gd1513 2.429 . S
O1565 C1587 1.268 . S
O1566 Gd1513 2.545 . S
O1566 C1579 1.250 . S
O1567 Gd1513 2.412 . S
O1567 C1580 1.252 . S
C1568 O1557 1.284 . S
C1568 O1560 1.250 . S
C1569 H1538 0.929 . S
C1569 C1554 1.437 . S
C1569 C1570 1.317 . S
C1570 H1541 0.930 . S
C1570 C1546 1.431 . S
C1570 C1569 1.317 . S
C1571 Gd1512 2.828 . S
C1571 O1556 1.258 . S
C1571 O1561 1.252 . S
C1571 C1572 1.497 . S
C1572 C1571 1.497 . S
C1572 C1573 1.395 . S
C1572 C1574 1.380 . S
C1573 C1572 1.395 . S
C1573 C1576 1.398 . S
C1573 H1588 0.930 . S
C1574 C1572 1.380 . S
C1574 C1575 1.391 . S
C1574 H1589 0.930 . S
C1575 C1574 1.391 . S
C1575 C1577 1.387 . S
C1576 C1573 1.398 . S
C1576 C1577 1.380 . S
C1576 H1590 0.930 . S
C1577 C1575 1.387 . S
C1577 C1576 1.380 . S
C1577 H1591 0.930 . S
C1578 O1558 1.254 . S
C1578 O1559 1.268 . S
C1579 O1563 1.284 . S
C1579 O1566 1.250 . S
C1580 Gd1513 2.828 . S
C1580 O1562 1.258 . S
C1580 O1567 1.252 . S
C1580 C1581 1.497 . S
C1581 C1580 1.497 . S
C1581 C1582 1.395 . S
C1581 C1583 1.380 . S
C1582 C1581 1.395 . S
C1582 C1585 1.398 . S
C1582 H1592 0.930 . S
C1583 C1581 1.380 . S
C1583 C1584 1.391 . S
C1583 H1593 0.930 . S
C1584 C1583 1.391 . S
C1584 C1586 1.387 . S
C1585 C1582 1.398 . S
C1585 C1586 1.380 . S
C1585 H1594 0.930 . S
C1586 C1584 1.387 . S
C1586 C1585 1.380 . S
C1586 H1595 0.930 . S
C1587 O1564 1.254 . S
C1587 O1565 1.268 . S
H1588 C1573 0.930 . S
H1589 C1574 0.930 . S
H1590 C1576 0.930 . S
H1591 C1577 0.930 . S
H1592 C1582 0.930 . S
H1593 C1583 0.930 . S
H1594 C1585 0.930 . S
H1595 C1586 0.930 . S
Gd1596 N1627 2.643 1_455 S
Gd1596 N1633 2.601 . S
Gd1596 O1640 2.545 . S
Gd1596 O1641 2.606 . S
Gd1596 O1643 2.429 . S
Gd1596 O1644 2.545 . S
Gd1596 O1645 2.412 1_455 S
Gd1596 O1647 2.362 . S
Gd1596 O1648 2.324 1_554 S
Gd1596 C1655 2.828 1_455 S
Gd1597 N1606 2.661 . S
Gd1597 N1610 2.601 1_554 S
Gd1597 O1641 2.362 . S
Gd1597 O1642 2.324 . S
Gd1597 O1646 2.545 1_554 S
Gd1597 O1647 2.606 . S
Gd1597 O1649 2.429 1_554 S
Gd1597 O1650 2.545 . S
Gd1597 O1651 2.412 . S
Gd1597 C1664 2.828 1_554 S
C1598 C1601 1.417 . S
C1598 C1603 1.431 . S
C1598 C1604 1.412 . S
C1599 C1602 1.437 . S
C1599 C1603 1.317 1_556 S
C1599 H1618 0.929 . S
C1600 C1601 1.426 1_556 S
C1600 C1602 1.413 . S
C1600 N1610 1.359 . S
C1601 C1598 1.417 . S
C1601 C1600 1.426 1_554 S
C1601 N1606 1.350 . S
C1602 C1599 1.437 . S
C1602 C1600 1.413 . S
C1602 C1612 1.391 . S
C1603 C1598 1.431 . S
C1603 C1599 1.317 1_554 S
C1603 H1614 0.930 . S
C1604 C1598 1.412 . S
C1604 C1605 1.355 . S
C1604 H1616 0.930 . S
C1605 C1604 1.355 . S
C1605 C1607 1.402 . S
C1605 H1617 0.930 . S
N1606 Gd1597 2.661 . S
N1606 C1601 1.350 . S
N1606 C1607 1.307 . S
C1607 C1605 1.402 . S
C1607 N1606 1.307 . S
C1607 H1608 0.930 . S
H1608 C1607 0.930 . S
C1609 N1610 1.334 . S
C1609 C1611 1.394 . S
C1609 H1613 0.930 . S
N1610 Gd1597 2.601 1_556 S
N1610 C1600 1.359 . S
N1610 C1609 1.334 . S
C1611 C1609 1.394 . S
C1611 C1612 1.359 . S
C1611 H1623 0.930 . S
C1612 C1602 1.391 . S
C1612 C1611 1.359 . S
C1612 H1624 0.929 . S
H1613 C1609 0.930 . S
H1614 C1603 0.930 . S
H1615 C1632 0.930 1_455 S
H1616 C1604 0.930 . S
H1617 C1605 0.930 . S
H1618 C1599 0.929 . S
H1619 C1637 0.930 . S
H1620 C1628 0.930 . S
H1621 C1629 0.930 . S
H1622 C1653 0.929 . S
H1623 C1611 0.930 . S
H1624 C1612 0.929 . S
H1625 C1654 0.930 . S
H1626 C1635 0.930 . S
N1627 Gd1596 2.643 1_655 S
N1627 C1631 1.367 . S
N1627 C1632 1.309 1_554 S
C1628 H1620 0.930 . S
C1628 C1629 1.355 . S
C1628 C1630 1.412 1_556 S
C1629 H1621 0.930 . S
C1629 C1628 1.355 . S
C1629 C1632 1.402 . S
C1630 C1628 1.412 1_554 S
C1630 C1631 1.417 . S
C1630 C1654 1.431 . S
C1631 N1627 1.367 . S
C1631 C1630 1.417 . S
C1631 C1634 1.426 . S
C1632 H1615 0.930 1_655 S
C1632 N1627 1.309 1_556 S
C1632 C1629 1.402 . S
N1633 Gd1596 2.601 . S
N1633 C1634 1.359 1_455 S
N1633 C1637 1.334 . S
C1634 C1631 1.426 . S
C1634 N1633 1.359 1_655 S
C1634 C1638 1.413 . S
C1635 H1626 0.930 . S
C1635 C1636 1.351 1_455 S
C1635 C1637 1.402 . S
C1636 C1635 1.351 1_655 S
C1636 C1638 1.391 . S
C1636 H1639 0.929 . S
C1637 H1619 0.930 . S
C1637 N1633 1.334 . S
C1637 C1635 1.402 . S
C1638 C1634 1.413 . S
C1638 C1636 1.391 . S
C1638 C1653 1.437 . S
H1639 C1636 0.929 . S
O1640 Gd1596 2.545 . S
O1640 C1655 1.258 1_455 S
O1641 Gd1596 2.606 . S
O1641 Gd1597 2.362 . S
O1641 C1652 1.284 . S
O1642 Gd1597 2.324 . S
O1642 C1662 1.254 . S
O1643 Gd1596 2.429 . S
O1643 C1662 1.268 . S
O1644 Gd1596 2.545 . S
O1644 C1652 1.250 . S
O1645 Gd1596 2.412 1_655 S
O1645 C1655 1.252 . S
O1646 Gd1597 2.545 1_556 S
O1646 C1664 1.258 . S
O1647 Gd1596 2.362 . S
O1647 Gd1597 2.606 . S
O1647 C1663 1.284 . S
O1648 Gd1596 2.324 1_556 S
O1648 C1671 1.254 . S
O1649 Gd1597 2.429 1_556 S
O1649 C1671 1.268 . S
O1650 Gd1597 2.545 . S
O1650 C1663 1.250 . S
O1651 Gd1597 2.412 . S
O1651 C1664 1.252 1_554 S
C1652 O1641 1.284 . S
C1652 O1644 1.250 . S
C1653 H1622 0.929 . S
C1653 C1638 1.437 . S
C1653 C1654 1.317 . S
C1654 H1625 0.930 . S
C1654 C1630 1.431 . S
C1654 C1653 1.317 . S
C1655 Gd1596 2.828 1_655 S
C1655 O1640 1.258 1_655 S
C1655 O1645 1.252 . S
C1655 C1656 1.497 . S
C1656 C1655 1.497 . S
C1656 C1657 1.395 . S
C1656 C1658 1.380 . S
C1657 C1656 1.395 . S
C1657 C1660 1.398 . S
C1657 H1672 0.930 . S
C1658 C1656 1.380 . S
C1658 C1659 1.391 . S
C1658 H1673 0.930 . S
C1659 C1658 1.391 . S
C1659 C1661 1.387 . S
C1660 C1657 1.398 . S
C1660 C1661 1.380 . S
C1660 H1674 0.930 . S
C1661 C1659 1.387 . S
C1661 C1660 1.380 . S
C1661 H1675 0.930 . S
C1662 O1642 1.254 . S
C1662 O1643 1.268 . S
C1663 O1647 1.284 . S
C1663 O1650 1.250 . S
C1664 Gd1597 2.828 1_556 S
C1664 O1646 1.258 . S
C1664 O1651 1.252 1_556 S
C1664 C1665 1.497 . S
C1665 C1664 1.497 . S
C1665 C1666 1.395 . S
C1665 C1667 1.380 1_556 S
C1666 C1665 1.395 . S
C1666 C1669 1.398 . S
C1666 H1676 0.930 . S
C1667 C1665 1.380 1_554 S
C1667 C1668 1.391 . S
C1667 H1677 0.930 . S
C1668 C1667 1.391 . S
C1668 C1670 1.387 1_554 S
C1669 C1666 1.398 . S
C1669 C1670 1.380 . S
C1669 H1678 0.930 . S
C1670 C1668 1.387 1_556 S
C1670 C1669 1.380 . S
C1670 H1679 0.930 . S
C1671 O1648 1.254 . S
C1671 O1649 1.268 . S
H1672 C1657 0.930 . S
H1673 C1658 0.930 . S
H1674 C1660 0.930 . S
H1675 C1661 0.930 . S
H1676 C1666 0.930 . S
H1677 C1667 0.930 . S
H1678 C1669 0.930 . S
H1679 C1670 0.930 . S
H1680 C1698 0.951 1_655 S
H1681 C1700 0.978 . S
H1682 C1702 0.950 . S
H1683 C1703 0.950 . S
H1684 C1705 0.950 . S
H1685 C1708 0.950 . S
H1686 C1709 0.950 . S
H1687 C1711 0.950 . S
H1688 C1712 0.950 . S
H1689 C1713 0.947 1_556 S
H1690 C1715 0.951 . S
H1691 C1717 0.950 . S
H1692 C1718 0.950 . S
H1693 C1720 0.950 . S
H1694 C1723 0.950 . S
H1695 C1724 0.950 . S
H1696 C1726 0.950 . S
H1697 C1727 0.950 . S
C1698 H1680 0.951 1_455 S
C1698 C1699 1.366 . S
C1698 C1700 1.388 . S
C1699 C1698 1.366 . S
C1699 C1703 1.385 . S
C1700 H1681 0.978 . S
C1700 C1698 1.388 . S
C1700 C1701 1.366 . S
C1701 C1700 1.366 . S
C1701 C1702 1.414 . S
C1701 C1704 1.499 . S
C1702 H1682 0.950 . S
C1702 C1701 1.414 . S
C1702 C1703 1.374 . S
C1703 H1683 0.950 . S
C1703 C1699 1.385 . S
C1703 C1702 1.374 . S
C1704 C1701 1.499 . S
C1704 C1705 1.373 . S
C1704 C1706 1.389 1_556 S
C1705 H1684 0.950 . S
C1705 C1704 1.373 . S
C1705 C1721 1.377 . S
C1706 C1704 1.389 1_554 S
C1706 C1707 1.524 . S
C1706 C1720 1.377 . S
C1707 C1706 1.524 . S
C1707 C1708 1.397 . S
C1707 C1712 1.363 . S
C1708 H1685 0.950 . S
C1708 C1707 1.397 . S
C1708 C1709 1.334 . S
C1709 H1686 0.950 . S
C1709 C1708 1.334 . S
C1709 C1710 1.287 . S
C1710 C1709 1.287 . S
C1710 C1711 1.524 . S
C1710 H1729 0.913 . S
C1711 H1687 0.950 . S
C1711 C1710 1.524 . S
C1711 C1712 1.415 . S
C1712 H1688 0.950 . S
C1712 C1707 1.363 . S
C1712 C1711 1.415 . S
C1713 H1689 0.947 1_554 S
C1713 C1714 1.366 . S
C1713 C1715 1.388 1_554 S
C1714 C1713 1.366 . S
C1714 C1718 1.385 . S
C1715 H1690 0.951 . S
C1715 C1713 1.388 1_556 S
C1715 C1716 1.366 1_556 S
C1716 C1715 1.366 1_554 S
C1716 C1717 1.414 . S
C1716 C1719 1.499 1_554 S
C1717 H1691 0.950 . S
C1717 C1716 1.414 . S
C1717 C1718 1.374 . S
C1718 H1692 0.950 . S
C1718 C1714 1.385 . S
C1718 C1717 1.374 . S
C1719 C1716 1.499 1_556 S
C1719 C1720 1.373 1_556 S
C1719 C1721 1.389 . S
C1720 H1693 0.950 . S
C1720 C1706 1.377 . S
C1720 C1719 1.373 1_554 S
C1721 C1705 1.377 . S
C1721 C1719 1.389 . S
C1721 C1722 1.524 . S
C1722 C1721 1.524 . S
C1722 C1723 1.397 . S
C1722 C1727 1.363 . S
C1723 H1694 0.950 . S
C1723 C1722 1.397 . S
C1723 C1724 1.334 . S
C1724 H1695 0.950 . S
C1724 C1723 1.334 . S
C1724 C1725 1.287 . S
C1725 C1724 1.287 . S
C1725 C1726 1.524 . S
C1725 H1728 0.999 . S
C1726 H1696 0.950 . S
C1726 C1725 1.524 . S
C1726 C1727 1.415 . S
C1727 H1697 0.950 . S
C1727 C1722 1.363 . S
C1727 C1726 1.415 . S
H1728 C1725 0.999 . S
H1729 C1710 0.913 . S
H1730 C1748 0.951 . S
H1731 C1750 0.951 . S
H1732 C1752 0.950 . S
H1733 C1753 0.950 . S
H1734 C1755 0.950 . S
H1735 C1758 0.950 . S
H1736 C1759 0.950 . S
H1737 C1761 0.950 . S
H1738 C1762 0.950 . S
H1739 C1763 0.951 . S
H1740 C1765 0.951 . S
H1741 C1767 0.950 . S
H1742 C1768 0.950 . S
H1743 C1770 0.950 . S
H1744 C1773 0.950 . S
H1745 C1774 0.950 . S
H1746 C1776 0.950 . S
H1747 C1777 0.950 . S
C1748 H1730 0.951 . S
C1748 C1749 1.366 . S
C1748 C1750 1.388 . S
C1749 C1748 1.366 . S
C1749 C1753 1.385 . S
C1750 H1731 0.951 . S
C1750 C1748 1.388 . S
C1750 C1751 1.366 . S
C1751 C1750 1.366 . S
C1751 C1752 1.414 . S
C1751 C1754 1.499 . S
C1752 H1732 0.950 . S
C1752 C1751 1.414 . S
C1752 C1753 1.374 . S
C1753 H1733 0.950 . S
C1753 C1749 1.385 . S
C1753 C1752 1.374 . S
C1754 C1751 1.499 . S
C1754 C1755 1.373 . S
C1754 C1756 1.389 . S
C1755 H1734 0.950 . S
C1755 C1754 1.373 . S
C1755 C1771 1.377 . S
C1756 C1754 1.389 . S
C1756 C1757 1.524 . S
C1756 C1770 1.377 . S
C1757 C1756 1.524 . S
C1757 C1758 1.397 . S
C1757 C1762 1.363 . S
C1758 H1735 0.950 . S
C1758 C1757 1.397 . S
C1758 C1759 1.334 . S
C1759 H1736 0.950 . S
C1759 C1758 1.334 . S
C1759 C1760 1.287 . S
C1760 C1759 1.287 . S
C1760 C1761 1.524 . S
C1760 H1779 0.913 . S
C1761 H1737 0.950 . S
C1761 C1760 1.524 . S
C1761 C1762 1.415 . S
C1762 H1738 0.950 . S
C1762 C1757 1.363 . S
C1762 C1761 1.415 . S
C1763 H1739 0.951 . S
C1763 C1764 1.366 . S
C1763 C1765 1.388 . S
C1764 C1763 1.366 . S
C1764 C1768 1.385 . S
C1765 H1740 0.951 . S
C1765 C1763 1.388 . S
C1765 C1766 1.366 . S
C1766 C1765 1.366 . S
C1766 C1767 1.414 . S
C1766 C1769 1.499 . S
C1767 H1741 0.950 . S
C1767 C1766 1.414 . S
C1767 C1768 1.374 . S
C1768 H1742 0.950 . S
C1768 C1764 1.385 . S
C1768 C1767 1.374 . S
C1769 C1766 1.499 . S
C1769 C1770 1.373 . S
C1769 C1771 1.389 . S
C1770 H1743 0.950 . S
C1770 C1756 1.377 . S
C1770 C1769 1.373 . S
C1771 C1755 1.377 . S
C1771 C1769 1.389 . S
C1771 C1772 1.524 . S
C1772 C1771 1.524 . S
C1772 C1773 1.397 . S
C1772 C1777 1.363 . S
C1773 H1744 0.950 . S
C1773 C1772 1.397 . S
C1773 C1774 1.334 . S
C1774 H1745 0.950 . S
C1774 C1773 1.334 . S
C1774 C1775 1.287 . S
C1775 C1774 1.287 . S
C1775 C1776 1.524 . S
C1775 H1778 0.999 . S
C1776 H1746 0.950 . S
C1776 C1775 1.524 . S
C1776 C1777 1.415 . S
C1777 H1747 0.950 . S
C1777 C1772 1.363 . S
C1777 C1776 1.415 . S
H1778 C1775 0.999 . S
H1779 C1760 0.913 . S
H1780 C1798 0.951 . S
H1781 C1800 0.951 . S
H1782 C1802 0.950 . S
H1783 C1803 0.950 . S
H1784 C1805 0.950 . S
H1785 C1808 0.950 . S
H1786 C1809 0.950 . S
H1787 C1811 0.950 . S
H1788 C1812 0.950 . S
H1789 C1813 0.951 . S
H1790 C1815 0.951 . S
H1791 C1817 0.950 . S
H1792 C1818 0.950 . S
H1793 C1820 0.950 . S
H1794 C1823 0.950 . S
H1795 C1824 0.950 . S
H1796 C1826 0.950 . S
H1797 C1827 0.950 . S
C1798 H1780 0.951 . S
C1798 C1799 1.366 . S
C1798 C1800 1.388 . S
C1799 C1798 1.366 . S
C1799 C1803 1.385 . S
C1800 H1781 0.951 . S
C1800 C1798 1.388 . S
C1800 C1801 1.366 . S
C1801 C1800 1.366 . S
C1801 C1802 1.414 . S
C1801 C1804 1.499 . S
C1802 H1782 0.950 . S
C1802 C1801 1.414 . S
C1802 C1803 1.374 . S
C1803 H1783 0.950 . S
C1803 C1799 1.385 . S
C1803 C1802 1.374 . S
C1804 C1801 1.499 . S
C1804 C1805 1.373 . S
C1804 C1806 1.389 . S
C1805 H1784 0.950 . S
C1805 C1804 1.373 . S
C1805 C1821 1.377 . S
C1806 C1804 1.389 . S
C1806 C1807 1.524 . S
C1806 C1820 1.377 . S
C1807 C1806 1.524 . S
C1807 C1808 1.397 . S
C1807 C1812 1.363 . S
C1808 H1785 0.950 . S
C1808 C1807 1.397 . S
C1808 C1809 1.334 . S
C1809 H1786 0.950 . S
C1809 C1808 1.334 . S
C1809 C1810 1.287 . S
C1810 C1809 1.287 . S
C1810 C1811 1.524 . S
C1810 H1829 0.913 . S
C1811 H1787 0.950 . S
C1811 C1810 1.524 . S
C1811 C1812 1.415 . S
C1812 H1788 0.950 . S
C1812 C1807 1.363 . S
C1812 C1811 1.415 . S
C1813 H1789 0.951 . S
C1813 C1814 1.366 . S
C1813 C1815 1.388 . S
C1814 C1813 1.366 . S
C1814 C1818 1.385 . S
C1815 H1790 0.951 . S
C1815 C1813 1.388 . S
C1815 C1816 1.366 . S
C1816 C1815 1.366 . S
C1816 C1817 1.414 . S
C1816 C1819 1.499 . S
C1817 H1791 0.950 . S
C1817 C1816 1.414 . S
C1817 C1818 1.374 . S
C1818 H1792 0.950 . S
C1818 C1814 1.385 . S
C1818 C1817 1.374 . S
C1819 C1816 1.499 . S
C1819 C1820 1.373 . S
C1819 C1821 1.389 . S
C1820 H1793 0.950 . S
C1820 C1806 1.377 . S
C1820 C1819 1.373 . S
C1821 C1805 1.377 . S
C1821 C1819 1.389 . S
C1821 C1822 1.524 . S
C1822 C1821 1.524 . S
C1822 C1823 1.397 . S
C1822 C1827 1.363 . S
C1823 H1794 0.950 . S
C1823 C1822 1.397 . S
C1823 C1824 1.334 . S
C1824 H1795 0.950 . S
C1824 C1823 1.334 . S
C1824 C1825 1.287 . S
C1825 C1824 1.287 . S
C1825 C1826 1.524 . S
C1825 H1828 0.999 . S
C1826 H1796 0.950 . S
C1826 C1825 1.524 . S
C1826 C1827 1.415 . S
C1827 H1797 0.950 . S
C1827 C1822 1.363 . S
C1827 C1826 1.415 . S
H1828 C1825 0.999 . S
H1829 C1810 0.913 . S
H1830 C1848 0.951 . S
H1831 C1850 0.951 . S
H1832 C1852 0.950 . S
H1833 C1853 0.950 . S
H1834 C1855 0.950 . S
H1835 C1858 0.950 . S
H1836 C1859 0.950 . S
H1837 C1861 0.950 . S
H1838 C1862 0.950 . S
H1839 C1863 0.951 . S
H1840 C1865 0.951 . S
H1841 C1867 0.950 . S
H1842 C1868 0.950 . S
H1843 C1870 0.950 . S
H1844 C1873 0.950 . S
H1845 C1874 0.950 . S
H1846 C1876 0.950 . S
H1847 C1877 0.950 . S
C1848 H1830 0.951 . S
C1848 C1849 1.366 . S
C1848 C1850 1.388 . S
C1849 C1848 1.366 . S
C1849 C1853 1.385 . S
C1850 H1831 0.951 . S
C1850 C1848 1.388 . S
C1850 C1851 1.366 . S
C1851 C1850 1.366 . S
C1851 C1852 1.414 . S
C1851 C1854 1.499 . S
C1852 H1832 0.950 . S
C1852 C1851 1.414 . S
C1852 C1853 1.374 . S
C1853 H1833 0.950 . S
C1853 C1849 1.385 . S
C1853 C1852 1.374 . S
C1854 C1851 1.499 . S
C1854 C1855 1.373 . S
C1854 C1856 1.389 . S
C1855 H1834 0.950 . S
C1855 C1854 1.373 . S
C1855 C1871 1.377 . S
C1856 C1854 1.389 . S
C1856 C1857 1.524 . S
C1856 C1870 1.377 . S
C1857 C1856 1.524 . S
C1857 C1858 1.397 . S
C1857 C1862 1.363 . S
C1858 H1835 0.950 . S
C1858 C1857 1.397 . S
C1858 C1859 1.334 . S
C1859 H1836 0.950 . S
C1859 C1858 1.334 . S
C1859 C1860 1.287 . S
C1860 C1859 1.287 . S
C1860 C1861 1.524 . S
C1860 H1879 0.913 . S
C1861 H1837 0.950 . S
C1861 C1860 1.524 . S
C1861 C1862 1.415 . S
C1862 H1838 0.950 . S
C1862 C1857 1.363 . S
C1862 C1861 1.415 . S
C1863 H1839 0.951 . S
C1863 C1864 1.366 . S
C1863 C1865 1.388 . S
C1864 C1863 1.366 . S
C1864 C1868 1.385 . S
C1865 H1840 0.951 . S
C1865 C1863 1.388 . S
C1865 C1866 1.366 . S
C1866 C1865 1.366 . S
C1866 C1867 1.414 . S
C1866 C1869 1.499 . S
C1867 H1841 0.950 . S
C1867 C1866 1.414 . S
C1867 C1868 1.374 . S
C1868 H1842 0.950 . S
C1868 C1864 1.385 . S
C1868 C1867 1.374 . S
C1869 C1866 1.499 . S
C1869 C1870 1.373 . S
C1869 C1871 1.389 . S
C1870 H1843 0.950 . S
C1870 C1856 1.377 . S
C1870 C1869 1.373 . S
C1871 C1855 1.377 . S
C1871 C1869 1.389 . S
C1871 C1872 1.524 . S
C1872 C1871 1.524 . S
C1872 C1873 1.397 . S
C1872 C1877 1.363 . S
C1873 H1844 0.950 . S
C1873 C1872 1.397 . S
C1873 C1874 1.334 . S
C1874 H1845 0.950 . S
C1874 C1873 1.334 . S
C1874 C1875 1.287 . S
C1875 C1874 1.287 . S
C1875 C1876 1.524 . S
C1875 H1878 0.999 . S
C1876 H1846 0.950 . S
C1876 C1875 1.524 . S
C1876 C1877 1.415 . S
C1877 H1847 0.950 . S
C1877 C1872 1.363 . S
C1877 C1876 1.415 . S
H1878 C1875 0.999 . S
H1879 C1860 0.913 . S
H1880 C1898 0.951 . S
H1881 C1900 0.951 . S
H1882 C1902 0.950 . S
H1883 C1903 0.950 . S
H1884 C1905 0.950 . S
H1885 C1908 0.950 . S
H1886 C1909 0.950 . S
H1887 C1911 0.950 . S
H1888 C1912 0.950 . S
H1889 C1913 0.951 . S
H1890 C1915 0.951 . S
H1891 C1917 0.950 . S
H1892 C1918 0.950 . S
H1893 C1920 0.950 . S
H1894 C1923 0.950 . S
H1895 C1924 0.950 . S
H1896 C1926 0.950 . S
H1897 C1927 0.950 . S
C1898 H1880 0.951 . S
C1898 C1899 1.366 . S
C1898 C1900 1.388 . S
C1899 C1898 1.366 . S
C1899 C1903 1.385 . S
C1900 H1881 0.951 . S
C1900 C1898 1.388 . S
C1900 C1901 1.366 . S
C1901 C1900 1.366 . S
C1901 C1902 1.414 . S
C1901 C1904 1.499 . S
C1902 H1882 0.950 . S
C1902 C1901 1.414 . S
C1902 C1903 1.374 . S
C1903 H1883 0.950 . S
C1903 C1899 1.385 . S
C1903 C1902 1.374 . S
C1904 C1901 1.499 . S
C1904 C1905 1.373 . S
C1904 C1906 1.389 . S
C1905 H1884 0.950 . S
C1905 C1904 1.373 . S
C1905 C1921 1.377 . S
C1906 C1904 1.389 . S
C1906 C1907 1.524 1_455 S
C1906 C1920 1.377 . S
C1907 C1906 1.524 1_655 S
C1907 C1908 1.397 . S
C1907 C1912 1.363 . S
C1908 H1885 0.950 . S
C1908 C1907 1.397 . S
C1908 C1909 1.334 . S
C1909 H1886 0.950 . S
C1909 C1908 1.334 . S
C1909 C1910 1.287 . S
C1910 C1909 1.287 . S
C1910 C1911 1.524 . S
C1910 H1929 0.913 . S
C1911 H1887 0.950 . S
C1911 C1910 1.524 . S
C1911 C1912 1.415 . S
C1912 H1888 0.950 . S
C1912 C1907 1.363 . S
C1912 C1911 1.415 . S
C1913 H1889 0.951 . S
C1913 C1914 1.366 . S
C1913 C1915 1.388 . S
C1914 C1913 1.366 . S
C1914 C1918 1.385 . S
C1915 H1890 0.951 . S
C1915 C1913 1.388 . S
C1915 C1916 1.366 . S
C1916 C1915 1.366 . S
C1916 C1917 1.414 . S
C1916 C1919 1.499 . S
C1917 H1891 0.950 . S
C1917 C1916 1.414 . S
C1917 C1918 1.374 . S
C1918 H1892 0.950 . S
C1918 C1914 1.385 . S
C1918 C1917 1.374 . S
C1919 C1916 1.499 . S
C1919 C1920 1.373 . S
C1919 C1921 1.389 . S
C1920 H1893 0.950 . S
C1920 C1906 1.377 . S
C1920 C1919 1.373 . S
C1921 C1905 1.377 . S
C1921 C1919 1.389 . S
C1921 C1922 1.524 . S
C1922 C1921 1.524 . S
C1922 C1923 1.397 . S
C1922 C1927 1.363 . S
C1923 H1894 0.950 . S
C1923 C1922 1.397 . S
C1923 C1924 1.334 . S
C1924 H1895 0.950 . S
C1924 C1923 1.334 . S
C1924 C1925 1.287 . S
C1925 C1924 1.287 . S
C1925 C1926 1.524 . S
C1925 H1928 0.999 . S
C1926 H1896 0.950 . S
C1926 C1925 1.524 . S
C1926 C1927 1.415 . S
C1927 H1897 0.950 . S
C1927 C1922 1.363 . S
C1927 C1926 1.415 . S
H1928 C1925 0.999 . S
H1929 C1910 0.913 . S
H1930 C1948 0.951 . S
H1931 C1950 0.951 . S
H1932 C1952 0.950 . S
H1933 C1953 0.950 . S
H1934 C1955 0.950 . S
H1935 C1958 0.950 . S
H1936 C1959 0.950 . S
H1937 C1961 0.950 . S
H1938 C1962 0.950 . S
H1939 C1963 0.951 . S
H1940 C1965 0.951 . S
H1941 C1967 0.950 . S
H1942 C1968 0.950 . S
H1943 C1970 0.950 . S
H1944 C1973 0.950 . S
H1945 C1974 0.950 . S
H1946 C1976 0.950 . S
H1947 C1977 0.950 . S
C1948 H1930 0.951 . S
C1948 C1949 1.366 . S
C1948 C1950 1.388 . S
C1949 C1948 1.366 . S
C1949 C1953 1.385 . S
C1950 H1931 0.951 . S
C1950 C1948 1.388 . S
C1950 C1951 1.366 . S
C1951 C1950 1.366 . S
C1951 C1952 1.414 . S
C1951 C1954 1.499 . S
C1952 H1932 0.950 . S
C1952 C1951 1.414 . S
C1952 C1953 1.374 . S
C1953 H1933 0.950 . S
C1953 C1949 1.385 . S
C1953 C1952 1.374 . S
C1954 C1951 1.499 . S
C1954 C1955 1.373 . S
C1954 C1956 1.389 . S
C1955 H1934 0.950 . S
C1955 C1954 1.373 . S
C1955 C1971 1.377 . S
C1956 C1954 1.389 . S
C1956 C1957 1.524 . S
C1956 C1970 1.377 . S
C1957 C1956 1.524 . S
C1957 C1958 1.397 . S
C1957 C1962 1.363 . S
C1958 H1935 0.950 . S
C1958 C1957 1.397 . S
C1958 C1959 1.334 . S
C1959 H1936 0.950 . S
C1959 C1958 1.334 . S
C1959 C1960 1.287 . S
C1960 C1959 1.287 . S
C1960 C1961 1.524 . S
C1960 H1979 0.913 . S
C1961 H1937 0.950 . S
C1961 C1960 1.524 . S
C1961 C1962 1.415 . S
C1962 H1938 0.950 . S
C1962 C1957 1.363 . S
C1962 C1961 1.415 . S
C1963 H1939 0.951 . S
C1963 C1964 1.366 . S
C1963 C1965 1.388 . S
C1964 C1963 1.366 . S
C1964 C1968 1.385 . S
C1965 H1940 0.951 . S
C1965 C1963 1.388 . S
C1965 C1966 1.366 . S
C1966 C1965 1.366 . S
C1966 C1967 1.414 . S
C1966 C1969 1.499 . S
C1967 H1941 0.950 . S
C1967 C1966 1.414 . S
C1967 C1968 1.374 . S
C1968 H1942 0.950 . S
C1968 C1964 1.385 . S
C1968 C1967 1.374 . S
C1969 C1966 1.499 . S
C1969 C1970 1.373 . S
C1969 C1971 1.389 . S
C1970 H1943 0.950 . S
C1970 C1956 1.377 . S
C1970 C1969 1.373 . S
C1971 C1955 1.377 . S
C1971 C1969 1.389 . S
C1971 C1972 1.524 . S
C1972 C1971 1.524 . S
C1972 C1973 1.397 . S
C1972 C1977 1.363 . S
C1973 H1944 0.950 . S
C1973 C1972 1.397 . S
C1973 C1974 1.334 . S
C1974 H1945 0.950 . S
C1974 C1973 1.334 . S
C1974 C1975 1.287 . S
C1975 C1974 1.287 . S
C1975 C1976 1.524 . S
C1975 H1978 0.999 . S
C1976 H1946 0.950 . S
C1976 C1975 1.524 . S
C1976 C1977 1.415 . S
C1977 H1947 0.950 . S
C1977 C1972 1.363 . S
C1977 C1976 1.415 . S
H1978 C1975 0.999 . S
H1979 C1960 0.913 . S
H1980 C1998 0.951 . S
H1981 C2000 0.951 . S
H1982 C2002 0.950 . S
H1983 C2003 0.950 . S
H1984 C2005 0.950 . S
H1985 C2008 0.950 . S
H1986 C2009 0.950 . S
H1987 C2011 0.950 . S
H1988 C2012 0.950 . S
H1989 C2013 0.951 . S
H1990 C2015 0.951 . S
H1991 C2017 0.950 . S
H1992 C2018 0.950 . S
H1993 C2020 0.950 . S
H1994 C2023 0.950 . S
H1995 C2024 0.950 . S
H1996 C2026 0.950 . S
H1997 C2027 0.950 . S
C1998 H1980 0.951 . S
C1998 C1999 1.366 . S
C1998 C2000 1.388 . S
C1999 C1998 1.366 . S
C1999 C2003 1.385 . S
C2000 H1981 0.951 . S
C2000 C1998 1.388 . S
C2000 C2001 1.366 . S
C2001 C2000 1.366 . S
C2001 C2002 1.414 . S
C2001 C2004 1.499 . S
C2002 H1982 0.950 . S
C2002 C2001 1.414 . S
C2002 C2003 1.374 . S
C2003 H1983 0.950 . S
C2003 C1999 1.385 . S
C2003 C2002 1.374 . S
C2004 C2001 1.499 . S
C2004 C2005 1.373 . S
C2004 C2006 1.389 . S
C2005 H1984 0.950 . S
C2005 C2004 1.373 . S
C2005 C2021 1.377 . S
C2006 C2004 1.389 . S
C2006 C2007 1.524 . S
C2006 C2020 1.377 . S
C2007 C2006 1.524 . S
C2007 C2008 1.397 . S
C2007 C2012 1.363 . S
C2008 H1985 0.950 . S
C2008 C2007 1.397 . S
C2008 C2009 1.334 . S
C2009 H1986 0.950 . S
C2009 C2008 1.334 . S
C2009 C2010 1.287 . S
C2010 C2009 1.287 . S
C2010 C2011 1.524 . S
C2010 H2029 0.913 . S
C2011 H1987 0.950 . S
C2011 C2010 1.524 . S
C2011 C2012 1.415 . S
C2012 H1988 0.950 . S
C2012 C2007 1.363 . S
C2012 C2011 1.415 . S
C2013 H1989 0.951 . S
C2013 C2014 1.366 . S
C2013 C2015 1.388 . S
C2014 C2013 1.366 . S
C2014 C2018 1.385 . S
C2015 H1990 0.951 . S
C2015 C2013 1.388 . S
C2015 C2016 1.366 . S
C2016 C2015 1.366 . S
C2016 C2017 1.414 . S
C2016 C2019 1.499 . S
C2017 H1991 0.950 . S
C2017 C2016 1.414 . S
C2017 C2018 1.374 . S
C2018 H1992 0.950 . S
C2018 C2014 1.385 . S
C2018 C2017 1.374 . S
C2019 C2016 1.499 . S
C2019 C2020 1.373 . S
C2019 C2021 1.389 . S
C2020 H1993 0.950 . S
C2020 C2006 1.377 . S
C2020 C2019 1.373 . S
C2021 C2005 1.377 . S
C2021 C2019 1.389 . S
C2021 C2022 1.524 . S
C2022 C2021 1.524 . S
C2022 C2023 1.397 . S
C2022 C2027 1.363 . S
C2023 H1994 0.950 . S
C2023 C2022 1.397 . S
C2023 C2024 1.334 . S
C2024 H1995 0.950 . S
C2024 C2023 1.334 . S
C2024 C2025 1.287 . S
C2025 C2024 1.287 . S
C2025 C2026 1.524 . S
C2025 H2028 0.999 . S
C2026 H1996 0.950 . S
C2026 C2025 1.524 . S
C2026 C2027 1.415 . S
C2027 H1997 0.950 . S
C2027 C2022 1.363 . S
C2027 C2026 1.415 . S
H2028 C2025 0.999 . S
H2029 C2010 0.913 . S
H2030 C2048 0.951 . S
H2031 C2050 0.951 . S
H2032 C2052 0.950 . S
H2033 C2053 0.950 . S
H2034 C2055 0.950 . S
H2035 C2058 0.950 . S
H2036 C2059 0.950 . S
H2037 C2061 0.950 . S
H2038 C2062 0.950 . S
H2039 C2063 0.951 . S
H2040 C2065 0.951 . S
H2041 C2067 0.950 . S
H2042 C2068 0.950 . S
H2043 C2070 0.950 . S
H2044 C2073 0.950 . S
H2045 C2074 0.950 . S
H2046 C2076 0.950 . S
H2047 C2077 0.950 . S
C2048 H2030 0.951 . S
C2048 C2049 1.366 . S
C2048 C2050 1.388 . S
C2049 C2048 1.366 . S
C2049 C2053 1.385 . S
C2050 H2031 0.951 . S
C2050 C2048 1.388 . S
C2050 C2051 1.366 . S
C2051 C2050 1.366 . S
C2051 C2052 1.414 . S
C2051 C2054 1.499 . S
C2052 H2032 0.950 . S
C2052 C2051 1.414 . S
C2052 C2053 1.374 . S
C2053 H2033 0.950 . S
C2053 C2049 1.385 . S
C2053 C2052 1.374 . S
C2054 C2051 1.499 . S
C2054 C2055 1.373 . S
C2054 C2056 1.389 . S
C2055 H2034 0.950 . S
C2055 C2054 1.373 . S
C2055 C2071 1.377 . S
C2056 C2054 1.389 . S
C2056 C2057 1.524 . S
C2056 C2070 1.377 . S
C2057 C2056 1.524 . S
C2057 C2058 1.397 . S
C2057 C2062 1.363 . S
C2058 H2035 0.950 . S
C2058 C2057 1.397 . S
C2058 C2059 1.334 . S
C2059 H2036 0.950 . S
C2059 C2058 1.334 . S
C2059 C2060 1.287 . S
C2060 C2059 1.287 . S
C2060 C2061 1.524 . S
C2060 H2079 0.913 . S
C2061 H2037 0.950 . S
C2061 C2060 1.524 . S
C2061 C2062 1.415 . S
C2062 H2038 0.950 . S
C2062 C2057 1.363 . S
C2062 C2061 1.415 . S
C2063 H2039 0.951 . S
C2063 C2064 1.366 . S
C2063 C2065 1.388 . S
C2064 C2063 1.366 . S
C2064 C2068 1.385 . S
C2065 H2040 0.951 . S
C2065 C2063 1.388 . S
C2065 C2066 1.366 . S
C2066 C2065 1.366 . S
C2066 C2067 1.414 . S
C2066 C2069 1.499 . S
C2067 H2041 0.950 . S
C2067 C2066 1.414 . S
C2067 C2068 1.374 . S
C2068 H2042 0.950 . S
C2068 C2064 1.385 . S
C2068 C2067 1.374 . S
C2069 C2066 1.499 . S
C2069 C2070 1.373 . S
C2069 C2071 1.389 . S
C2070 H2043 0.950 . S
C2070 C2056 1.377 . S
C2070 C2069 1.373 . S
C2071 C2055 1.377 . S
C2071 C2069 1.389 . S
C2071 C2072 1.524 . S
C2072 C2071 1.524 . S
C2072 C2073 1.397 . S
C2072 C2077 1.363 . S
C2073 H2044 0.950 . S
C2073 C2072 1.397 . S
C2073 C2074 1.334 . S
C2074 H2045 0.950 . S
C2074 C2073 1.334 . S
C2074 C2075 1.287 . S
C2075 C2074 1.287 . S
C2075 C2076 1.524 . S
C2075 H2078 0.999 . S
C2076 H2046 0.950 . S
C2076 C2075 1.524 . S
C2076 C2077 1.415 . S
C2077 H2047 0.950 . S
C2077 C2072 1.363 . S
C2077 C2076 1.415 . S
H2078 C2075 0.999 . S
H2079 C2060 0.913 . S
H2080 C2098 0.951 . S
H2081 C2100 0.951 . S
H2082 C2102 0.950 1_455 S
H2083 C2103 0.950 . S
H2084 C2105 0.950 . S
H2085 C2108 0.950 1_455 S
H2086 C2109 0.950 . S
H2087 C2111 0.950 . S
H2088 C2112 0.950 . S
H2089 C2113 0.951 . S
H2090 C2115 0.951 . S
H2091 C2117 0.950 1_655 S
H2092 C2118 0.950 . S
H2093 C2120 0.950 . S
H2094 C2123 0.927 1_655 S
H2095 C2124 0.950 . S
H2096 C2126 0.950 . S
H2097 C2127 0.950 . S
C2098 H2080 0.951 . S
C2098 C2099 1.366 . S
C2098 C2100 1.388 . S
C2099 C2098 1.366 . S
C2099 C2103 1.385 . S
C2100 H2081 0.951 . S
C2100 C2098 1.388 . S
C2100 C2101 1.366 . S
C2101 C2100 1.366 . S
C2101 C2102 1.414 . S
C2101 C2104 1.499 . S
C2102 H2082 0.950 1_655 S
C2102 C2101 1.414 . S
C2102 C2103 1.374 . S
C2103 H2083 0.950 . S
C2103 C2099 1.385 . S
C2103 C2102 1.374 . S
C2104 C2101 1.499 . S
C2104 C2105 1.373 1_655 S
C2104 C2106 1.389 . S
C2105 H2084 0.950 . S
C2105 C2104 1.373 1_455 S
C2105 C2121 1.377 . S
C2106 C2104 1.389 . S
C2106 C2107 1.524 . S
C2106 C2120 1.377 . S
C2107 C2106 1.524 . S
C2107 C2108 1.397 . S
C2107 C2112 1.363 . S
C2108 H2085 0.950 1_655 S
C2108 C2107 1.397 . S
C2108 C2109 1.334 . S
C2109 H2086 0.950 . S
C2109 C2108 1.334 . S
C2109 C2110 1.287 1_545 S
C2110 C2109 1.287 1_565 S
C2110 C2111 1.524 . S
C2110 H2129 0.913 . S
C2111 H2087 0.950 . S
C2111 C2110 1.524 . S
C2111 C2112 1.415 1_565 S
C2112 H2088 0.950 . S
C2112 C2107 1.363 . S
C2112 C2111 1.415 1_545 S
C2113 H2089 0.951 . S
C2113 C2114 1.366 . S
C2113 C2115 1.388 . S
C2114 C2113 1.366 . S
C2114 C2118 1.385 . S
C2115 H2090 0.951 . S
C2115 C2113 1.388 . S
C2115 C2116 1.366 . S
C2116 C2115 1.366 . S
C2116 C2117 1.414 . S
C2116 C2119 1.499 . S
C2117 H2091 0.950 1_455 S
C2117 C2116 1.414 . S
C2117 C2118 1.374 . S
C2118 H2092 0.950 . S
C2118 C2114 1.385 . S
C2118 C2117 1.374 . S
C2119 C2116 1.499 . S
C2119 C2120 1.373 1_455 S
C2119 C2121 1.389 . S
C2120 H2093 0.950 . S
C2120 C2106 1.377 . S
C2120 C2119 1.373 1_655 S
C2121 C2105 1.377 . S
C2121 C2119 1.389 . S
C2121 C2122 1.524 . S
C2122 C2121 1.524 . S
C2122 C2123 1.397 . S
C2122 C2127 1.363 . S
C2123 H2094 0.927 1_455 S
C2123 C2122 1.397 . S
C2123 C2124 1.334 . S
C2124 H2095 0.950 . S
C2124 C2123 1.334 . S
C2124 C2125 1.287 . S
C2125 C2124 1.287 . S
C2125 C2126 1.524 . S
C2125 H2128 0.999 . S
C2126 H2096 0.950 . S
C2126 C2125 1.524 . S
C2126 C2127 1.415 . S
C2127 H2097 0.950 . S
C2127 C2122 1.363 . S
C2127 C2126 1.415 . S
H2128 C2125 0.999 . S
H2129 C2110 0.913 . S
H2130 C2148 0.951 . S
H2131 C2150 0.951 . S
H2132 C2152 0.950 . S
H2133 C2153 0.950 . S
H2134 C2155 0.950 . S
H2135 C2158 0.950 . S
H2136 C2159 0.950 . S
H2137 C2161 0.950 . S
H2138 C2162 0.950 . S
H2139 C2163 0.951 . S
H2140 C2165 0.951 . S
H2141 C2167 0.950 . S
H2142 C2168 0.950 . S
H2143 C2170 0.950 . S
H2144 C2173 0.950 . S
H2145 C2174 0.950 . S
H2146 C2176 0.950 . S
H2147 C2177 0.950 . S
C2148 H2130 0.951 . S
C2148 C2149 1.366 . S
C2148 C2150 1.388 . S
C2149 C2148 1.366 . S
C2149 C2153 1.385 . S
C2150 H2131 0.951 . S
C2150 C2148 1.388 . S
C2150 C2151 1.366 . S
C2151 C2150 1.366 . S
C2151 C2152 1.414 . S
C2151 C2154 1.499 . S
C2152 H2132 0.950 . S
C2152 C2151 1.414 . S
C2152 C2153 1.374 . S
C2153 H2133 0.950 . S
C2153 C2149 1.385 . S
C2153 C2152 1.374 . S
C2154 C2151 1.499 . S
C2154 C2155 1.373 . S
C2154 C2156 1.389 . S
C2155 H2134 0.950 . S
C2155 C2154 1.373 . S
C2155 C2171 1.377 . S
C2156 C2154 1.389 . S
C2156 C2157 1.524 . S
C2156 C2170 1.377 . S
C2157 C2156 1.524 . S
C2157 C2158 1.397 . S
C2157 C2162 1.363 . S
C2158 H2135 0.950 . S
C2158 C2157 1.397 . S
C2158 C2159 1.334 . S
C2159 H2136 0.950 . S
C2159 C2158 1.334 . S
C2159 C2160 1.287 . S
C2160 C2159 1.287 . S
C2160 C2161 1.524 . S
C2160 H2179 0.913 . S
C2161 H2137 0.950 . S
C2161 C2160 1.524 . S
C2161 C2162 1.415 . S
C2162 H2138 0.950 . S
C2162 C2157 1.363 . S
C2162 C2161 1.415 . S
C2163 H2139 0.951 . S
C2163 C2164 1.366 . S
C2163 C2165 1.388 . S
C2164 C2163 1.366 . S
C2164 C2168 1.385 . S
C2165 H2140 0.951 . S
C2165 C2163 1.388 . S
C2165 C2166 1.366 . S
C2166 C2165 1.366 . S
C2166 C2167 1.414 . S
C2166 C2169 1.499 . S
C2167 H2141 0.950 . S
C2167 C2166 1.414 . S
C2167 C2168 1.374 . S
C2168 H2142 0.950 . S
C2168 C2164 1.385 . S
C2168 C2167 1.374 . S
C2169 C2166 1.499 . S
C2169 C2170 1.373 . S
C2169 C2171 1.389 . S
C2170 H2143 0.950 . S
C2170 C2156 1.377 . S
C2170 C2169 1.373 . S
C2171 C2155 1.377 . S
C2171 C2169 1.389 . S
C2171 C2172 1.524 . S
C2172 C2171 1.524 . S
C2172 C2173 1.397 . S
C2172 C2177 1.363 . S
C2173 H2144 0.950 . S
C2173 C2172 1.397 . S
C2173 C2174 1.334 . S
C2174 H2145 0.950 . S
C2174 C2173 1.334 . S
C2174 C2175 1.287 . S
C2175 C2174 1.287 . S
C2175 C2176 1.524 . S
C2175 H2178 0.999 . S
C2176 H2146 0.950 . S
C2176 C2175 1.524 . S
C2176 C2177 1.415 . S
C2177 H2147 0.950 . S
C2177 C2172 1.363 . S
C2177 C2176 1.415 . S
H2178 C2175 0.999 . S
H2179 C2160 0.913 . S
H2180 C2198 0.951 . S
H2181 C2200 0.951 . S
H2182 C2202 0.950 . S
H2183 C2203 0.950 . S
H2184 C2205 0.950 . S
H2185 C2208 0.950 . S
H2186 C2209 0.950 . S
H2187 C2211 0.950 . S
H2188 C2212 0.950 . S
H2189 C2213 0.951 . S
H2190 C2215 0.951 . S
H2191 C2217 0.950 . S
H2192 C2218 0.950 . S
H2193 C2220 0.950 . S
H2194 C2223 0.950 . S
H2195 C2224 0.950 . S
H2196 C2226 0.950 . S
H2197 C2227 0.950 . S
C2198 H2180 0.951 . S
C2198 C2199 1.366 . S
C2198 C2200 1.388 . S
C2199 C2198 1.366 . S
C2199 C2203 1.385 . S
C2200 H2181 0.951 . S
C2200 C2198 1.388 . S
C2200 C2201 1.366 . S
C2201 C2200 1.366 . S
C2201 C2202 1.414 . S
C2201 C2204 1.499 . S
C2202 H2182 0.950 . S
C2202 C2201 1.414 . S
C2202 C2203 1.374 . S
C2203 H2183 0.950 . S
C2203 C2199 1.385 . S
C2203 C2202 1.374 . S
C2204 C2201 1.499 . S
C2204 C2205 1.373 . S
C2204 C2206 1.389 . S
C2205 H2184 0.950 . S
C2205 C2204 1.373 . S
C2205 C2221 1.377 . S
C2206 C2204 1.389 . S
C2206 C2207 1.524 1_545 S
C2206 C2220 1.377 . S
C2207 C2206 1.524 1_565 S
C2207 C2208 1.397 . S
C2207 C2212 1.363 . S
C2208 H2185 0.950 . S
C2208 C2207 1.397 . S
C2208 C2209 1.334 . S
C2209 H2186 0.950 . S
C2209 C2208 1.334 . S
C2209 C2210 1.287 . S
C2210 C2209 1.287 . S
C2210 C2211 1.524 . S
C2210 H2229 0.913 . S
C2211 H2187 0.950 . S
C2211 C2210 1.524 . S
C2211 C2212 1.415 . S
C2212 H2188 0.950 . S
C2212 C2207 1.363 . S
C2212 C2211 1.415 . S
C2213 H2189 0.951 . S
C2213 C2214 1.366 . S
C2213 C2215 1.388 . S
C2214 C2213 1.366 . S
C2214 C2218 1.385 . S
C2215 H2190 0.951 . S
C2215 C2213 1.388 . S
C2215 C2216 1.366 . S
C2216 C2215 1.366 . S
C2216 C2217 1.414 . S
C2216 C2219 1.499 . S
C2217 H2191 0.950 . S
C2217 C2216 1.414 . S
C2217 C2218 1.374 . S
C2218 H2192 0.950 . S
C2218 C2214 1.385 . S
C2218 C2217 1.374 . S
C2219 C2216 1.499 . S
C2219 C2220 1.373 . S
C2219 C2221 1.389 . S
C2220 H2193 0.950 . S
C2220 C2206 1.377 . S
C2220 C2219 1.373 . S
C2221 C2205 1.377 . S
C2221 C2219 1.389 . S
C2221 C2222 1.524 . S
C2222 C2221 1.524 . S
C2222 C2223 1.397 . S
C2222 C2227 1.363 . S
C2223 H2194 0.950 . S
C2223 C2222 1.397 . S
C2223 C2224 1.334 . S
C2224 H2195 0.950 . S
C2224 C2223 1.334 . S
C2224 C2225 1.287 . S
C2225 C2224 1.287 . S
C2225 C2226 1.524 . S
C2225 H2228 0.999 . S
C2226 H2196 0.950 . S
C2226 C2225 1.524 . S
C2226 C2227 1.415 . S
C2227 H2197 0.950 . S
C2227 C2222 1.363 . S
C2227 C2226 1.415 . S
H2228 C2225 0.999 . S
H2229 C2210 0.913 . S
H2230 C2248 0.951 . S
H2231 C2250 0.951 . S
H2232 C2252 0.950 . S
H2233 C2253 0.950 . S
H2234 C2255 0.950 . S
H2235 C2258 0.950 . S
H2236 C2259 0.950 . S
H2237 C2261 0.950 . S
H2238 C2262 0.950 . S
H2239 C2263 0.951 . S
H2240 C2265 0.951 . S
H2241 C2267 0.950 . S
H2242 C2268 0.950 . S
H2243 C2270 0.950 . S
H2244 C2273 0.950 . S
H2245 C2274 0.950 . S
H2246 C2276 0.950 . S
H2247 C2277 0.950 . S
C2248 H2230 0.951 . S
C2248 C2249 1.366 . S
C2248 C2250 1.388 . S
C2249 C2248 1.366 . S
C2249 C2253 1.385 . S
C2250 H2231 0.951 . S
C2250 C2248 1.388 . S
C2250 C2251 1.366 . S
C2251 C2250 1.366 . S
C2251 C2252 1.414 . S
C2251 C2254 1.499 . S
C2252 H2232 0.950 . S
C2252 C2251 1.414 . S
C2252 C2253 1.374 . S
C2253 H2233 0.950 . S
C2253 C2249 1.385 . S
C2253 C2252 1.374 . S
C2254 C2251 1.499 . S
C2254 C2255 1.373 . S
C2254 C2256 1.389 . S
C2255 H2234 0.950 . S
C2255 C2254 1.373 . S
C2255 C2271 1.377 . S
C2256 C2254 1.389 . S
C2256 C2257 1.524 . S
C2256 C2270 1.377 . S
C2257 C2256 1.524 . S
C2257 C2258 1.397 . S
C2257 C2262 1.363 . S
C2258 H2235 0.950 . S
C2258 C2257 1.397 . S
C2258 C2259 1.334 . S
C2259 H2236 0.950 . S
C2259 C2258 1.334 . S
C2259 C2260 1.287 . S
C2260 C2259 1.287 . S
C2260 C2261 1.524 . S
C2260 H2279 0.913 . S
C2261 H2237 0.950 . S
C2261 C2260 1.524 . S
C2261 C2262 1.415 . S
C2262 H2238 0.950 . S
C2262 C2257 1.363 . S
C2262 C2261 1.415 . S
C2263 H2239 0.951 . S
C2263 C2264 1.366 . S
C2263 C2265 1.388 . S
C2264 C2263 1.366 . S
C2264 C2268 1.385 . S
C2265 H2240 0.951 . S
C2265 C2263 1.388 . S
C2265 C2266 1.366 . S
C2266 C2265 1.366 . S
C2266 C2267 1.414 . S
C2266 C2269 1.499 . S
C2267 H2241 0.950 . S
C2267 C2266 1.414 . S
C2267 C2268 1.374 . S
C2268 H2242 0.950 . S
C2268 C2264 1.385 . S
C2268 C2267 1.374 . S
C2269 C2266 1.499 . S
C2269 C2270 1.373 . S
C2269 C2271 1.389 . S
C2270 H2243 0.950 . S
C2270 C2256 1.377 . S
C2270 C2269 1.373 . S
C2271 C2255 1.377 . S
C2271 C2269 1.389 . S
C2271 C2272 1.524 . S
C2272 C2271 1.524 . S
C2272 C2273 1.397 . S
C2272 C2277 1.363 . S
C2273 H2244 0.950 . S
C2273 C2272 1.397 . S
C2273 C2274 1.334 . S
C2274 H2245 0.950 . S
C2274 C2273 1.334 . S
C2274 C2275 1.287 . S
C2275 C2274 1.287 . S
C2275 C2276 1.524 . S
C2275 H2278 0.999 . S
C2276 H2246 0.950 . S
C2276 C2275 1.524 . S
C2276 C2277 1.415 . S
C2277 H2247 0.950 . S
C2277 C2272 1.363 . S
C2277 C2276 1.415 . S
H2278 C2275 0.999 . S
H2279 C2260 0.913 . S
H2280 C2298 0.951 . S
H2281 C2300 0.951 . S
H2282 C2302 0.939 1_455 S
H2283 C2303 0.950 . S
H2284 C2305 0.950 . S
H2285 C2308 0.950 . S
H2286 C2309 0.950 . S
H2287 C2311 0.950 . S
H2288 C2312 0.950 1_655 S
H2289 C2313 0.951 . S
H2290 C2315 0.951 . S
H2291 C2317 0.950 . S
H2292 C2318 0.950 . S
H2293 C2320 0.950 . S
H2294 C2323 0.950 . S
H2295 C2324 0.950 . S
H2296 C2326 0.961 . S
H2297 C2327 0.950 . S
C2298 H2280 0.951 . S
C2298 C2299 1.366 . S
C2298 C2300 1.388 . S
C2299 C2298 1.366 . S
C2299 C2303 1.385 . S
C2300 H2281 0.951 . S
C2300 C2298 1.388 . S
C2300 C2301 1.366 . S
C2301 C2300 1.366 . S
C2301 C2302 1.414 . S
C2301 C2304 1.499 . S
C2302 H2282 0.939 1_655 S
C2302 C2301 1.414 . S
C2302 C2303 1.374 . S
C2303 H2283 0.950 . S
C2303 C2299 1.385 . S
C2303 C2302 1.374 . S
C2304 C2301 1.499 . S
C2304 C2305 1.373 . S
C2304 C2306 1.389 1_655 S
C2305 H2284 0.950 . S
C2305 C2304 1.373 . S
C2305 C2321 1.377 1_655 S
C2306 C2304 1.389 1_455 S
C2306 C2307 1.524 . S
C2306 C2320 1.377 . S
C2307 C2306 1.524 . S
C2307 C2308 1.397 . S
C2307 C2312 1.363 . S
C2308 H2285 0.950 . S
C2308 C2307 1.397 . S
C2308 C2309 1.334 . S
C2309 H2286 0.950 . S
C2309 C2308 1.334 . S
C2309 C2310 1.287 . S
C2310 C2309 1.287 . S
C2310 C2311 1.524 . S
C2310 H2329 0.913 . S
C2311 H2287 0.950 . S
C2311 C2310 1.524 . S
C2311 C2312 1.415 . S
C2312 H2288 0.950 1_455 S
C2312 C2307 1.363 . S
C2312 C2311 1.415 . S
C2313 H2289 0.951 . S
C2313 C2314 1.366 . S
C2313 C2315 1.388 . S
C2314 C2313 1.366 . S
C2314 C2318 1.385 . S
C2315 H2290 0.951 . S
C2315 C2313 1.388 . S
C2315 C2316 1.366 . S
C2316 C2315 1.366 . S
C2316 C2317 1.414 . S
C2316 C2319 1.499 . S
C2317 H2291 0.950 . S
C2317 C2316 1.414 . S
C2317 C2318 1.374 . S
C2318 H2292 0.950 . S
C2318 C2314 1.385 . S
C2318 C2317 1.374 . S
C2319 C2316 1.499 . S
C2319 C2320 1.373 . S
C2319 C2321 1.389 . S
C2320 H2293 0.950 . S
C2320 C2306 1.377 . S
C2320 C2319 1.373 . S
C2321 C2305 1.377 1_455 S
C2321 C2319 1.389 . S
C2321 C2322 1.530 1_455 S
C2322 C2321 1.530 1_655 S
C2322 C2323 1.420 . S
C2322 C2327 1.340 1_655 S
C2323 H2294 0.950 . S
C2323 C2322 1.420 . S
C2323 C2324 1.334 1_545 S
C2324 H2295 0.950 . S
C2324 C2323 1.334 1_565 S
C2324 C2325 1.287 . S
C2325 C2324 1.287 . S
C2325 C2326 1.513 1_655 S
C2325 H2328 0.999 . S
C2326 H2296 0.961 . S
C2326 C2325 1.513 1_455 S
C2326 C2327 1.414 1_565 S
C2327 H2297 0.950 . S
C2327 C2322 1.340 1_455 S
C2327 C2326 1.414 1_545 S
H2328 C2325 0.999 . S
H2329 C2310 0.913 . S
H2330 C2348 0.951 . S
H2331 C2350 0.951 . S
H2332 C2352 0.950 . S
H2333 C2353 0.950 . S
H2334 C2355 0.950 . S
H2335 C2358 0.950 . S
H2336 C2359 0.950 . S
H2337 C2361 0.950 . S
H2338 C2362 0.950 . S
H2339 C2363 0.951 . S
H2340 C2365 0.951 . S
H2341 C2367 0.950 . S
H2342 C2368 0.950 . S
H2343 C2370 0.950 . S
H2344 C2373 0.950 . S
H2345 C2374 0.950 . S
H2346 C2376 0.950 . S
H2347 C2377 0.950 . S
C2348 H2330 0.951 . S
C2348 C2349 1.366 . S
C2348 C2350 1.388 . S
C2349 C2348 1.366 . S
C2349 C2353 1.385 . S
C2350 H2331 0.951 . S
C2350 C2348 1.388 . S
C2350 C2351 1.366 . S
C2351 C2350 1.366 . S
C2351 C2352 1.414 . S
C2351 C2354 1.499 . S
C2352 H2332 0.950 . S
C2352 C2351 1.414 . S
C2352 C2353 1.374 . S
C2353 H2333 0.950 . S
C2353 C2349 1.385 . S
C2353 C2352 1.374 . S
C2354 C2351 1.499 . S
C2354 C2355 1.373 . S
C2354 C2356 1.389 . S
C2355 H2334 0.950 . S
C2355 C2354 1.373 . S
C2355 C2371 1.377 . S
C2356 C2354 1.389 . S
C2356 C2357 1.524 . S
C2356 C2370 1.377 . S
C2357 C2356 1.524 . S
C2357 C2358 1.397 . S
C2357 C2362 1.363 . S
C2358 H2335 0.950 . S
C2358 C2357 1.397 . S
C2358 C2359 1.334 . S
C2359 H2336 0.950 . S
C2359 C2358 1.334 . S
C2359 C2360 1.287 . S
C2360 C2359 1.287 . S
C2360 C2361 1.524 . S
C2360 H2379 0.913 . S
C2361 H2337 0.950 . S
C2361 C2360 1.524 . S
C2361 C2362 1.415 . S
C2362 H2338 0.950 . S
C2362 C2357 1.363 . S
C2362 C2361 1.415 . S
C2363 H2339 0.951 . S
C2363 C2364 1.366 . S
C2363 C2365 1.388 . S
C2364 C2363 1.366 . S
C2364 C2368 1.385 . S
C2365 H2340 0.951 . S
C2365 C2363 1.388 . S
C2365 C2366 1.366 . S
C2366 C2365 1.366 . S
C2366 C2367 1.414 . S
C2366 C2369 1.499 . S
C2367 H2341 0.950 . S
C2367 C2366 1.414 . S
C2367 C2368 1.374 . S
C2368 H2342 0.950 . S
C2368 C2364 1.385 . S
C2368 C2367 1.374 . S
C2369 C2366 1.499 . S
C2369 C2370 1.373 . S
C2369 C2371 1.389 . S
C2370 H2343 0.950 . S
C2370 C2356 1.377 . S
C2370 C2369 1.373 . S
C2371 C2355 1.377 . S
C2371 C2369 1.389 . S
C2371 C2372 1.524 . S
C2372 C2371 1.524 . S
C2372 C2373 1.397 . S
C2372 C2377 1.363 . S
C2373 H2344 0.950 . S
C2373 C2372 1.397 . S
C2373 C2374 1.334 . S
C2374 H2345 0.950 . S
C2374 C2373 1.334 . S
C2374 C2375 1.287 . S
C2375 C2374 1.287 . S
C2375 C2376 1.524 . S
C2375 H2378 0.999 . S
C2376 H2346 0.950 . S
C2376 C2375 1.524 . S
C2376 C2377 1.415 . S
C2377 H2347 0.950 . S
C2377 C2372 1.363 . S
C2377 C2376 1.415 . S
H2378 C2375 0.999 . S
H2379 C2360 0.913 . S
H2380 C2398 0.951 . S
H2381 C2400 0.951 . S
H2382 C2402 0.950 . S
H2383 C2403 0.950 . S
H2384 C2405 0.950 . S
H2385 C2408 0.950 . S
H2386 C2409 0.950 . S
H2387 C2411 0.950 . S
H2388 C2412 0.950 . S
H2389 C2413 0.951 . S
H2390 C2415 0.951 . S
H2391 C2417 0.950 . S
H2392 C2418 0.950 . S
H2393 C2420 0.950 . S
H2394 C2423 0.950 . S
H2395 C2424 0.950 1_565 S
H2396 C2426 0.950 . S
H2397 C2427 0.950 . S
C2398 H2380 0.951 . S
C2398 C2399 1.366 . S
C2398 C2400 1.388 . S
C2399 C2398 1.366 . S
C2399 C2403 1.385 . S
C2400 H2381 0.951 . S
C2400 C2398 1.388 . S
C2400 C2401 1.366 . S
C2401 C2400 1.366 . S
C2401 C2402 1.414 . S
C2401 C2404 1.499 . S
C2402 H2382 0.950 . S
C2402 C2401 1.414 . S
C2402 C2403 1.374 . S
C2403 H2383 0.950 . S
C2403 C2399 1.385 . S
C2403 C2402 1.374 . S
C2404 C2401 1.499 . S
C2404 C2405 1.373 . S
C2404 C2406 1.389 . S
C2405 H2384 0.950 . S
C2405 C2404 1.373 . S
C2405 C2421 1.377 . S
C2406 C2404 1.389 . S
C2406 C2407 1.524 . S
C2406 C2420 1.377 . S
C2407 C2406 1.524 . S
C2407 C2408 1.397 . S
C2407 C2412 1.363 . S
C2408 H2385 0.950 . S
C2408 C2407 1.397 . S
C2408 C2409 1.334 . S
C2409 H2386 0.950 . S
C2409 C2408 1.334 . S
C2409 C2410 1.287 . S
C2410 C2409 1.287 . S
C2410 C2411 1.524 . S
C2410 H2429 0.913 . S
C2411 H2387 0.950 . S
C2411 C2410 1.524 . S
C2411 C2412 1.415 . S
C2412 H2388 0.950 . S
C2412 C2407 1.363 . S
C2412 C2411 1.415 . S
C2413 H2389 0.951 . S
C2413 C2414 1.366 . S
C2413 C2415 1.388 . S
C2414 C2413 1.366 . S
C2414 C2418 1.385 . S
C2415 H2390 0.951 . S
C2415 C2413 1.388 . S
C2415 C2416 1.366 . S
C2416 C2415 1.366 . S
C2416 C2417 1.414 . S
C2416 C2419 1.499 . S
C2417 H2391 0.950 . S
C2417 C2416 1.414 . S
C2417 C2418 1.374 . S
C2418 H2392 0.950 . S
C2418 C2414 1.385 . S
C2418 C2417 1.374 . S
C2419 C2416 1.499 . S
C2419 C2420 1.373 . S
C2419 C2421 1.389 . S
C2420 H2393 0.950 . S
C2420 C2406 1.377 . S
C2420 C2419 1.373 . S
C2421 C2405 1.377 . S
C2421 C2419 1.389 . S
C2421 C2422 1.524 . S
C2422 C2421 1.524 . S
C2422 C2423 1.397 . S
C2422 C2427 1.363 . S
C2423 H2394 0.950 . S
C2423 C2422 1.397 . S
C2423 C2424 1.334 . S
C2424 H2395 0.950 1_545 S
C2424 C2423 1.334 . S
C2424 C2425 1.287 . S
C2425 C2424 1.287 . S
C2425 C2426 1.524 . S
C2425 H2428 0.999 1_545 S
C2426 H2396 0.950 . S
C2426 C2425 1.524 . S
C2426 C2427 1.415 . S
C2427 H2397 0.950 . S
C2427 C2422 1.363 . S
C2427 C2426 1.415 . S
H2428 C2425 0.999 1_565 S
H2429 C2410 0.913 . S
H2430 C2448 0.951 . S
H2431 C2450 0.951 . S
H2432 C2452 0.950 . S
H2433 C2453 0.950 . S
H2434 C2455 0.950 . S
H2435 C2458 0.950 . S
H2436 C2459 0.950 . S
H2437 C2461 0.950 . S
H2438 C2462 0.950 . S
H2439 C2463 0.951 . S
H2440 C2465 0.951 . S
H2441 C2467 0.950 . S
H2442 C2468 0.950 . S
H2443 C2470 0.950 . S
H2444 C2473 0.950 . S
H2445 C2474 0.950 . S
H2446 C2476 0.950 . S
H2447 C2477 0.950 . S
C2448 H2430 0.951 . S
C2448 C2449 1.366 . S
C2448 C2450 1.388 . S
C2449 C2448 1.366 . S
C2449 C2453 1.385 . S
C2450 H2431 0.951 . S
C2450 C2448 1.388 . S
C2450 C2451 1.366 . S
C2451 C2450 1.366 . S
C2451 C2452 1.414 . S
C2451 C2454 1.499 . S
C2452 H2432 0.950 . S
C2452 C2451 1.414 . S
C2452 C2453 1.374 . S
C2453 H2433 0.950 . S
C2453 C2449 1.385 . S
C2453 C2452 1.374 . S
C2454 C2451 1.499 . S
C2454 C2455 1.373 . S
C2454 C2456 1.389 . S
C2455 H2434 0.950 . S
C2455 C2454 1.373 . S
C2455 C2471 1.377 . S
C2456 C2454 1.389 . S
C2456 C2457 1.524 . S
C2456 C2470 1.377 . S
C2457 C2456 1.524 . S
C2457 C2458 1.397 . S
C2457 C2462 1.363 . S
C2458 H2435 0.950 . S
C2458 C2457 1.397 . S
C2458 C2459 1.334 . S
C2459 H2436 0.950 . S
C2459 C2458 1.334 . S
C2459 C2460 1.287 . S
C2460 C2459 1.287 . S
C2460 C2461 1.524 . S
C2460 H2479 0.913 . S
C2461 H2437 0.950 . S
C2461 C2460 1.524 . S
C2461 C2462 1.415 . S
C2462 H2438 0.950 . S
C2462 C2457 1.363 . S
C2462 C2461 1.415 . S
C2463 H2439 0.951 . S
C2463 C2464 1.366 . S
C2463 C2465 1.388 . S
C2464 C2463 1.366 . S
C2464 C2468 1.385 . S
C2465 H2440 0.951 . S
C2465 C2463 1.388 . S
C2465 C2466 1.366 . S
C2466 C2465 1.366 . S
C2466 C2467 1.414 . S
C2466 C2469 1.499 . S
C2467 H2441 0.950 . S
C2467 C2466 1.414 . S
C2467 C2468 1.374 . S
C2468 H2442 0.950 . S
C2468 C2464 1.385 . S
C2468 C2467 1.374 . S
C2469 C2466 1.499 . S
C2469 C2470 1.373 . S
C2469 C2471 1.389 . S
C2470 H2443 0.950 . S
C2470 C2456 1.377 . S
C2470 C2469 1.373 . S
C2471 C2455 1.377 . S
C2471 C2469 1.389 . S
C2471 C2472 1.524 . S
C2472 C2471 1.524 . S
C2472 C2473 1.397 . S
C2472 C2477 1.363 . S
C2473 H2444 0.950 . S
C2473 C2472 1.397 . S
C2473 C2474 1.334 . S
C2474 H2445 0.950 . S
C2474 C2473 1.334 . S
C2474 C2475 1.287 . S
C2475 C2474 1.287 . S
C2475 C2476 1.524 . S
C2475 H2478 0.999 . S
C2476 H2446 0.950 . S
C2476 C2475 1.524 . S
C2476 C2477 1.415 . S
C2477 H2447 0.950 . S
C2477 C2472 1.363 . S
C2477 C2476 1.415 . S
H2478 C2475 0.999 . S
H2479 C2460 0.913 . S
H2480 C2498 0.951 . S
H2481 C2500 0.951 . S
H2482 C2502 0.950 . S
H2483 C2503 0.950 . S
H2484 C2505 0.947 1_545 S
H2485 C2508 0.950 1_556 S
H2486 C2509 0.950 . S
H2487 C2511 0.950 . S
H2488 C2512 0.950 . S
H2489 C2513 0.951 . S
H2490 C2515 0.951 . S
H2491 C2517 0.950 . S
H2492 C2518 0.949 . S
H2493 C2520 0.950 . S
H2494 C2523 0.950 . S
H2495 C2524 0.950 . S
H2496 C2526 0.950 . S
H2497 C2527 0.950 . S
C2498 H2480 0.951 . S
C2498 C2499 1.366 . S
C2498 C2500 1.388 . S
C2499 C2498 1.366 . S
C2499 C2503 1.385 . S
C2500 H2481 0.951 . S
C2500 C2498 1.388 . S
C2500 C2501 1.366 . S
C2501 C2500 1.366 . S
C2501 C2502 1.414 . S
C2501 C2504 1.499 . S
C2502 H2482 0.950 . S
C2502 C2501 1.414 . S
C2502 C2503 1.374 . S
C2503 H2483 0.950 . S
C2503 C2499 1.385 . S
C2503 C2502 1.374 . S
C2504 C2501 1.499 . S
C2504 C2505 1.382 . S
C2504 C2506 1.389 . S
C2505 H2484 0.947 1_565 S
C2505 C2504 1.382 . S
C2505 C2521 1.371 1_565 S
C2506 C2504 1.389 . S
C2506 C2507 1.524 . S
C2506 C2520 1.377 . S
C2507 C2506 1.524 . S
C2507 C2508 1.397 . S
C2507 C2512 1.363 . S
C2508 H2485 0.950 1_554 S
C2508 C2507 1.397 . S
C2508 C2509 1.334 1_554 S
C2509 H2486 0.950 . S
C2509 C2508 1.334 1_556 S
C2509 C2510 1.287 1_556 S
C2510 C2509 1.287 1_554 S
C2510 C2511 1.524 . S
C2510 H2529 0.913 . S
C2511 H2487 0.950 . S
C2511 C2510 1.524 . S
C2511 C2512 1.415 . S
C2512 H2488 0.950 . S
C2512 C2507 1.363 . S
C2512 C2511 1.415 . S
C2513 H2489 0.951 . S
C2513 C2514 1.366 . S
C2513 C2515 1.388 . S
C2514 C2513 1.366 . S
C2514 C2518 1.385 . S
C2515 H2490 0.951 . S
C2515 C2513 1.388 . S
C2515 C2516 1.366 . S
C2516 C2515 1.366 . S
C2516 C2517 1.414 1_545 S
C2516 C2519 1.499 1_545 S
C2517 H2491 0.950 . S
C2517 C2516 1.414 1_565 S
C2517 C2518 1.374 1_565 S
C2518 H2492 0.949 . S
C2518 C2514 1.385 . S
C2518 C2517 1.374 1_545 S
C2519 C2516 1.499 1_565 S
C2519 C2520 1.373 . S
C2519 C2521 1.389 1_565 S
C2520 H2493 0.950 . S
C2520 C2506 1.377 . S
C2520 C2519 1.373 . S
C2521 C2505 1.371 1_545 S
C2521 C2519 1.389 1_545 S
C2521 C2522 1.524 . S
C2522 C2521 1.524 . S
C2522 C2523 1.397 . S
C2522 C2527 1.363 . S
C2523 H2494 0.950 . S
C2523 C2522 1.397 . S
C2523 C2524 1.334 . S
C2524 H2495 0.950 . S
C2524 C2523 1.334 . S
C2524 C2525 1.287 . S
C2525 C2524 1.287 . S
C2525 C2526 1.524 . S
C2525 H2528 0.999 . S
C2526 H2496 0.950 . S
C2526 C2525 1.524 . S
C2526 C2527 1.415 . S
C2527 H2497 0.950 . S
C2527 C2522 1.363 . S
C2527 C2526 1.415 . S
H2528 C2525 0.999 . S
H2529 C2510 0.913 . S
H2530 C2548 0.951 . S
H2531 C2550 0.951 . S
H2532 C2552 0.950 . S
H2533 C2553 0.950 . S
H2534 C2555 0.950 . S
H2535 C2558 0.950 . S
H2536 C2559 0.950 . S
H2537 C2561 0.950 . S
H2538 C2562 0.950 . S
H2539 C2563 0.951 . S
H2540 C2565 0.951 . S
H2541 C2567 0.950 . S
H2542 C2568 0.950 . S
H2543 C2570 0.950 . S
H2544 C2573 0.950 . S
H2545 C2574 0.950 . S
H2546 C2576 0.950 . S
H2547 C2577 0.950 . S
C2548 H2530 0.951 . S
C2548 C2549 1.366 1_554 S
C2548 C2550 1.388 . S
C2549 C2548 1.366 1_556 S
C2549 C2553 1.385 . S
C2550 H2531 0.951 . S
C2550 C2548 1.388 . S
C2550 C2551 1.366 1_554 S
C2551 C2550 1.366 1_556 S
C2551 C2552 1.414 . S
C2551 C2554 1.499 . S
C2552 H2532 0.950 . S
C2552 C2551 1.414 . S
C2552 C2553 1.374 . S
C2553 H2533 0.950 . S
C2553 C2549 1.385 . S
C2553 C2552 1.374 . S
C2554 C2551 1.499 . S
C2554 C2555 1.373 . S
C2554 C2556 1.389 1_556 S
C2555 H2534 0.950 . S
C2555 C2554 1.373 . S
C2555 C2571 1.377 . S
C2556 C2554 1.389 1_554 S
C2556 C2557 1.524 . S
C2556 C2570 1.377 . S
C2557 C2556 1.524 . S
C2557 C2558 1.397 . S
C2557 C2562 1.363 . S
C2558 H2535 0.950 . S
C2558 C2557 1.397 . S
C2558 C2559 1.334 . S
C2559 H2536 0.950 . S
C2559 C2558 1.334 . S
C2559 C2560 1.287 . S
C2560 C2559 1.287 . S
C2560 C2561 1.524 . S
C2560 H2579 0.913 . S
C2561 H2537 0.950 . S
C2561 C2560 1.524 . S
C2561 C2562 1.415 . S
C2562 H2538 0.950 . S
C2562 C2557 1.363 . S
C2562 C2561 1.415 . S
C2563 H2539 0.951 . S
C2563 C2564 1.366 1_556 S
C2563 C2565 1.388 . S
C2564 C2563 1.366 1_554 S
C2564 C2568 1.385 . S
C2565 H2540 0.951 . S
C2565 C2563 1.388 . S
C2565 C2566 1.366 . S
C2566 C2565 1.366 . S
C2566 C2567 1.414 1_556 S
C2566 C2569 1.499 . S
C2567 H2541 0.950 . S
C2567 C2566 1.414 1_554 S
C2567 C2568 1.374 . S
C2568 H2542 0.950 . S
C2568 C2564 1.385 . S
C2568 C2567 1.374 . S
C2569 C2566 1.499 . S
C2569 C2570 1.373 1_556 S
C2569 C2571 1.389 . S
C2570 H2543 0.950 . S
C2570 C2556 1.377 . S
C2570 C2569 1.373 1_554 S
C2571 C2555 1.377 . S
C2571 C2569 1.389 . S
C2571 C2572 1.524 . S
C2572 C2571 1.524 . S
C2572 C2573 1.397 . S
C2572 C2577 1.363 . S
C2573 H2544 0.950 . S
C2573 C2572 1.397 . S
C2573 C2574 1.334 . S
C2574 H2545 0.950 . S
C2574 C2573 1.334 . S
C2574 C2575 1.287 . S
C2575 C2574 1.287 . S
C2575 C2576 1.524 . S
C2575 H2578 0.999 . S
C2576 H2546 0.950 . S
C2576 C2575 1.524 . S
C2576 C2577 1.415 . S
C2577 H2547 0.950 . S
C2577 C2572 1.363 . S
C2577 C2576 1.415 . S
H2578 C2575 0.999 . S
H2579 C2560 0.913 . S
H2580 C2598 0.951 . S
H2581 C2600 0.951 . S
H2582 C2602 0.950 . S
H2583 C2603 0.950 . S
H2584 C2605 0.950 . S
H2585 C2608 0.950 . S
H2586 C2609 0.950 . S
H2587 C2611 0.950 . S
H2588 C2612 0.950 . S
H2589 C2613 0.951 . S
H2590 C2615 0.951 . S
H2591 C2617 0.950 . S
H2592 C2618 0.950 . S
H2593 C2620 0.950 . S
H2594 C2623 0.950 . S
H2595 C2624 0.950 . S
H2596 C2626 0.950 . S
H2597 C2627 0.950 . S
C2598 H2580 0.951 . S
C2598 C2599 1.366 . S
C2598 C2600 1.388 . S
C2599 C2598 1.366 . S
C2599 C2603 1.385 . S
C2600 H2581 0.951 . S
C2600 C2598 1.388 . S
C2600 C2601 1.366 . S
C2601 C2600 1.366 . S
C2601 C2602 1.414 . S
C2601 C2604 1.499 . S
C2602 H2582 0.950 . S
C2602 C2601 1.414 . S
C2602 C2603 1.374 . S
C2603 H2583 0.950 . S
C2603 C2599 1.385 . S
C2603 C2602 1.374 . S
C2604 C2601 1.499 . S
C2604 C2605 1.373 . S
C2604 C2606 1.389 . S
C2605 H2584 0.950 . S
C2605 C2604 1.373 . S
C2605 C2621 1.377 . S
C2606 C2604 1.389 . S
C2606 C2607 1.524 . S
C2606 C2620 1.377 . S
C2607 C2606 1.524 . S
C2607 C2608 1.397 . S
C2607 C2612 1.363 . S
C2608 H2585 0.950 . S
C2608 C2607 1.397 . S
C2608 C2609 1.334 . S
C2609 H2586 0.950 . S
C2609 C2608 1.334 . S
C2609 C2610 1.287 . S
C2610 C2609 1.287 . S
C2610 C2611 1.524 . S
C2610 H2629 0.913 . S
C2611 H2587 0.950 . S
C2611 C2610 1.524 . S
C2611 C2612 1.415 . S
C2612 H2588 0.950 . S
C2612 C2607 1.363 . S
C2612 C2611 1.415 . S
C2613 H2589 0.951 . S
C2613 C2614 1.366 . S
C2613 C2615 1.388 . S
C2614 C2613 1.366 . S
C2614 C2618 1.385 . S
C2615 H2590 0.951 . S
C2615 C2613 1.388 . S
C2615 C2616 1.366 . S
C2616 C2615 1.366 . S
C2616 C2617 1.414 . S
C2616 C2619 1.499 . S
C2617 H2591 0.950 . S
C2617 C2616 1.414 . S
C2617 C2618 1.374 . S
C2618 H2592 0.950 . S
C2618 C2614 1.385 . S
C2618 C2617 1.374 . S
C2619 C2616 1.499 . S
C2619 C2620 1.373 . S
C2619 C2621 1.389 . S
C2620 H2593 0.950 . S
C2620 C2606 1.377 . S
C2620 C2619 1.373 . S
C2621 C2605 1.377 . S
C2621 C2619 1.389 . S
C2621 C2622 1.524 . S
C2622 C2621 1.524 . S
C2622 C2623 1.397 . S
C2622 C2627 1.363 . S
C2623 H2594 0.950 . S
C2623 C2622 1.397 . S
C2623 C2624 1.334 . S
C2624 H2595 0.950 . S
C2624 C2623 1.334 . S
C2624 C2625 1.287 . S
C2625 C2624 1.287 . S
C2625 C2626 1.524 . S
C2625 H2628 0.999 . S
C2626 H2596 0.950 . S
C2626 C2625 1.524 . S
C2626 C2627 1.415 . S
C2627 H2597 0.950 . S
C2627 C2622 1.363 . S
C2627 C2626 1.415 . S
H2628 C2625 0.999 . S
H2629 C2610 0.913 . S
H2630 C2648 0.951 . S
H2631 C2650 0.951 . S
H2632 C2652 0.950 . S
H2633 C2653 0.950 . S
H2634 C2655 0.950 . S
H2635 C2658 0.950 . S
H2636 C2659 0.950 . S
H2637 C2661 0.950 . S
H2638 C2662 0.950 . S
H2639 C2663 0.951 . S
H2640 C2665 0.951 . S
H2641 C2667 0.950 . S
H2642 C2668 0.950 . S
H2643 C2670 0.950 . S
H2644 C2673 0.950 . S
H2645 C2674 0.950 . S
H2646 C2676 0.950 . S
H2647 C2677 0.950 . S
C2648 H2630 0.951 . S
C2648 C2649 1.366 . S
C2648 C2650 1.388 . S
C2649 C2648 1.366 . S
C2649 C2653 1.385 . S
C2650 H2631 0.951 . S
C2650 C2648 1.388 . S
C2650 C2651 1.366 . S
C2651 C2650 1.366 . S
C2651 C2652 1.414 . S
C2651 C2654 1.499 . S
C2652 H2632 0.950 . S
C2652 C2651 1.414 . S
C2652 C2653 1.374 . S
C2653 H2633 0.950 . S
C2653 C2649 1.385 . S
C2653 C2652 1.374 . S
C2654 C2651 1.499 . S
C2654 C2655 1.373 . S
C2654 C2656 1.389 . S
C2655 H2634 0.950 . S
C2655 C2654 1.373 . S
C2655 C2671 1.377 . S
C2656 C2654 1.389 . S
C2656 C2657 1.524 . S
C2656 C2670 1.377 . S
C2657 C2656 1.524 . S
C2657 C2658 1.397 . S
C2657 C2662 1.363 . S
C2658 H2635 0.950 . S
C2658 C2657 1.397 . S
C2658 C2659 1.334 . S
C2659 H2636 0.950 . S
C2659 C2658 1.334 . S
C2659 C2660 1.287 . S
C2660 C2659 1.287 . S
C2660 C2661 1.524 . S
C2660 H2679 0.913 . S
C2661 H2637 0.950 . S
C2661 C2660 1.524 . S
C2661 C2662 1.415 . S
C2662 H2638 0.950 . S
C2662 C2657 1.363 . S
C2662 C2661 1.415 . S
C2663 H2639 0.951 . S
C2663 C2664 1.366 1_655 S
C2663 C2665 1.388 . S
C2664 C2663 1.366 1_455 S
C2664 C2668 1.385 . S
C2665 H2640 0.951 . S
C2665 C2663 1.388 . S
C2665 C2666 1.366 . S
C2666 C2665 1.366 . S
C2666 C2667 1.414 . S
C2666 C2669 1.499 . S
C2667 H2641 0.950 . S
C2667 C2666 1.414 . S
C2667 C2668 1.374 1_655 S
C2668 H2642 0.950 . S
C2668 C2664 1.385 . S
C2668 C2667 1.374 1_455 S
C2669 C2666 1.499 . S
C2669 C2670 1.373 . S
C2669 C2671 1.389 . S
C2670 H2643 0.950 . S
C2670 C2656 1.377 . S
C2670 C2669 1.373 . S
C2671 C2655 1.377 . S
C2671 C2669 1.389 . S
C2671 C2672 1.524 . S
C2672 C2671 1.524 . S
C2672 C2673 1.397 . S
C2672 C2677 1.363 . S
C2673 H2644 0.950 . S
C2673 C2672 1.397 . S
C2673 C2674 1.334 . S
C2674 H2645 0.950 . S
C2674 C2673 1.334 . S
C2674 C2675 1.287 . S
C2675 C2674 1.287 . S
C2675 C2676 1.524 . S
C2675 H2678 0.999 . S
C2676 H2646 0.950 . S
C2676 C2675 1.524 . S
C2676 C2677 1.415 . S
C2677 H2647 0.950 . S
C2677 C2672 1.363 . S
C2677 C2676 1.415 . S
H2678 C2675 0.999 . S
H2679 C2660 0.913 . S
H2680 C2698 0.951 . S
H2681 C2700 0.951 . S
H2682 C2702 0.950 . S
H2683 C2703 0.950 . S
H2684 C2705 0.950 . S
H2685 C2708 0.950 . S
H2686 C2709 0.950 . S
H2687 C2711 0.950 . S
H2688 C2712 0.950 . S
H2689 C2713 0.951 . S
H2690 C2715 0.951 . S
H2691 C2717 0.950 . S
H2692 C2718 0.950 . S
H2693 C2720 0.950 . S
H2694 C2723 0.950 . S
H2695 C2724 0.950 . S
H2696 C2726 0.950 . S
H2697 C2727 0.950 . S
C2698 H2680 0.951 . S
C2698 C2699 1.366 . S
C2698 C2700 1.388 . S
C2699 C2698 1.366 . S
C2699 C2703 1.385 . S
C2700 H2681 0.951 . S
C2700 C2698 1.388 . S
C2700 C2701 1.366 . S
C2701 C2700 1.366 . S
C2701 C2702 1.414 . S
C2701 C2704 1.499 . S
C2702 H2682 0.950 . S
C2702 C2701 1.414 . S
C2702 C2703 1.374 . S
C2703 H2683 0.950 . S
C2703 C2699 1.385 . S
C2703 C2702 1.374 . S
C2704 C2701 1.499 . S
C2704 C2705 1.373 . S
C2704 C2706 1.389 . S
C2705 H2684 0.950 . S
C2705 C2704 1.373 . S
C2705 C2721 1.377 . S
C2706 C2704 1.389 . S
C2706 C2707 1.524 . S
C2706 C2720 1.377 . S
C2707 C2706 1.524 . S
C2707 C2708 1.397 . S
C2707 C2712 1.363 . S
C2708 H2685 0.950 . S
C2708 C2707 1.397 . S
C2708 C2709 1.334 . S
C2709 H2686 0.950 . S
C2709 C2708 1.334 . S
C2709 C2710 1.287 . S
C2710 C2709 1.287 . S
C2710 C2711 1.524 . S
C2710 H2729 0.913 . S
C2711 H2687 0.950 . S
C2711 C2710 1.524 . S
C2711 C2712 1.415 . S
C2712 H2688 0.950 . S
C2712 C2707 1.363 . S
C2712 C2711 1.415 . S
C2713 H2689 0.951 . S
C2713 C2714 1.366 . S
C2713 C2715 1.388 . S
C2714 C2713 1.366 . S
C2714 C2718 1.385 . S
C2715 H2690 0.951 . S
C2715 C2713 1.388 . S
C2715 C2716 1.366 . S
C2716 C2715 1.366 . S
C2716 C2717 1.414 . S
C2716 C2719 1.499 . S
C2717 H2691 0.950 . S
C2717 C2716 1.414 . S
C2717 C2718 1.374 . S
C2718 H2692 0.950 . S
C2718 C2714 1.385 . S
C2718 C2717 1.374 . S
C2719 C2716 1.499 . S
C2719 C2720 1.373 . S
C2719 C2721 1.389 . S
C2720 H2693 0.950 . S
C2720 C2706 1.377 . S
C2720 C2719 1.373 . S
C2721 C2705 1.377 . S
C2721 C2719 1.389 . S
C2721 C2722 1.524 . S
C2722 C2721 1.524 . S
C2722 C2723 1.397 . S
C2722 C2727 1.363 . S
C2723 H2694 0.950 . S
C2723 C2722 1.397 . S
C2723 C2724 1.334 . S
C2724 H2695 0.950 . S
C2724 C2723 1.334 . S
C2724 C2725 1.287 . S
C2725 C2724 1.287 . S
C2725 C2726 1.524 . S
C2725 H2728 0.999 . S
C2726 H2696 0.950 . S
C2726 C2725 1.524 . S
C2726 C2727 1.415 . S
C2727 H2697 0.950 . S
C2727 C2722 1.363 . S
C2727 C2726 1.415 . S
H2728 C2725 0.999 . S
H2729 C2710 0.913 . S
H2730 C2748 0.951 . S
H2731 C2750 0.951 . S
H2732 C2752 0.950 . S
H2733 C2753 0.950 . S
H2734 C2755 0.950 . S
H2735 C2758 0.950 . S
H2736 C2759 0.950 . S
H2737 C2761 0.950 . S
H2738 C2762 0.950 . S
H2739 C2763 0.951 . S
H2740 C2765 0.951 . S
H2741 C2767 0.950 . S
H2742 C2768 0.950 . S
H2743 C2770 0.950 . S
H2744 C2773 0.950 . S
H2745 C2774 0.950 . S
H2746 C2776 0.950 . S
H2747 C2777 0.950 . S
C2748 H2730 0.951 . S
C2748 C2749 1.366 . S
C2748 C2750 1.388 . S
C2749 C2748 1.366 . S
C2749 C2753 1.385 . S
C2750 H2731 0.951 . S
C2750 C2748 1.388 . S
C2750 C2751 1.366 . S
C2751 C2750 1.366 . S
C2751 C2752 1.414 . S
C2751 C2754 1.499 . S
C2752 H2732 0.950 . S
C2752 C2751 1.414 . S
C2752 C2753 1.374 . S
C2753 H2733 0.950 . S
C2753 C2749 1.385 . S
C2753 C2752 1.374 . S
C2754 C2751 1.499 . S
C2754 C2755 1.373 . S
C2754 C2756 1.389 . S
C2755 H2734 0.950 . S
C2755 C2754 1.373 . S
C2755 C2771 1.377 . S
C2756 C2754 1.389 . S
C2756 C2757 1.524 . S
C2756 C2770 1.377 . S
C2757 C2756 1.524 . S
C2757 C2758 1.397 . S
C2757 C2762 1.363 . S
C2758 H2735 0.950 . S
C2758 C2757 1.397 . S
C2758 C2759 1.334 . S
C2759 H2736 0.950 . S
C2759 C2758 1.334 . S
C2759 C2760 1.287 . S
C2760 C2759 1.287 . S
C2760 C2761 1.524 . S
C2760 H2779 0.913 . S
C2761 H2737 0.950 . S
C2761 C2760 1.524 . S
C2761 C2762 1.415 . S
C2762 H2738 0.950 . S
C2762 C2757 1.363 . S
C2762 C2761 1.415 . S
C2763 H2739 0.951 . S
C2763 C2764 1.366 . S
C2763 C2765 1.388 . S
C2764 C2763 1.366 . S
C2764 C2768 1.385 . S
C2765 H2740 0.951 . S
C2765 C2763 1.388 . S
C2765 C2766 1.366 . S
C2766 C2765 1.366 . S
C2766 C2767 1.414 . S
C2766 C2769 1.499 . S
C2767 H2741 0.950 . S
C2767 C2766 1.414 . S
C2767 C2768 1.374 . S
C2768 H2742 0.950 . S
C2768 C2764 1.385 . S
C2768 C2767 1.374 . S
C2769 C2766 1.499 . S
C2769 C2770 1.373 . S
C2769 C2771 1.389 . S
C2770 H2743 0.950 . S
C2770 C2756 1.377 . S
C2770 C2769 1.373 . S
C2771 C2755 1.377 . S
C2771 C2769 1.389 . S
C2771 C2772 1.524 . S
C2772 C2771 1.524 . S
C2772 C2773 1.397 . S
C2772 C2777 1.363 . S
C2773 H2744 0.950 . S
C2773 C2772 1.397 . S
C2773 C2774 1.334 . S
C2774 H2745 0.950 . S
C2774 C2773 1.334 . S
C2774 C2775 1.287 . S
C2775 C2774 1.287 . S
C2775 C2776 1.524 . S
C2775 H2778 0.999 . S
C2776 H2746 0.950 . S
C2776 C2775 1.524 . S
C2776 C2777 1.415 . S
C2777 H2747 0.950 . S
C2777 C2772 1.363 . S
C2777 C2776 1.415 . S
H2778 C2775 0.999 . S
H2779 C2760 0.913 . S
H2780 C2798 0.951 . S
H2781 C2800 0.951 . S
H2782 C2802 0.950 . S
H2783 C2803 0.950 . S
H2784 C2805 0.950 . S
H2785 C2808 0.950 . S
H2786 C2809 0.950 . S
H2787 C2811 0.950 . S
H2788 C2812 0.950 . S
H2789 C2813 0.951 . S
H2790 C2815 0.951 . S
H2791 C2817 0.950 . S
H2792 C2818 0.950 . S
H2793 C2820 0.950 . S
H2794 C2823 0.950 . S
H2795 C2824 0.950 . S
H2796 C2826 0.950 . S
H2797 C2827 0.950 . S
C2798 H2780 0.951 . S
C2798 C2799 1.366 . S
C2798 C2800 1.388 . S
C2799 C2798 1.366 . S
C2799 C2803 1.385 . S
C2800 H2781 0.951 . S
C2800 C2798 1.388 . S
C2800 C2801 1.366 . S
C2801 C2800 1.366 . S
C2801 C2802 1.414 . S
C2801 C2804 1.499 . S
C2802 H2782 0.950 . S
C2802 C2801 1.414 . S
C2802 C2803 1.374 . S
C2803 H2783 0.950 . S
C2803 C2799 1.385 . S
C2803 C2802 1.374 . S
C2804 C2801 1.499 . S
C2804 C2805 1.373 . S
C2804 C2806 1.389 . S
C2805 H2784 0.950 . S
C2805 C2804 1.373 . S
C2805 C2821 1.377 . S
C2806 C2804 1.389 . S
C2806 C2807 1.524 . S
C2806 C2820 1.377 . S
C2807 C2806 1.524 . S
C2807 C2808 1.397 . S
C2807 C2812 1.363 . S
C2808 H2785 0.950 . S
C2808 C2807 1.397 . S
C2808 C2809 1.334 . S
C2809 H2786 0.950 . S
C2809 C2808 1.334 . S
C2809 C2810 1.287 . S
C2810 C2809 1.287 . S
C2810 C2811 1.524 . S
C2810 H2829 0.913 . S
C2811 H2787 0.950 . S
C2811 C2810 1.524 . S
C2811 C2812 1.415 . S
C2812 H2788 0.950 . S
C2812 C2807 1.363 . S
C2812 C2811 1.415 . S
C2813 H2789 0.951 . S
C2813 C2814 1.366 . S
C2813 C2815 1.388 . S
C2814 C2813 1.366 . S
C2814 C2818 1.385 . S
C2815 H2790 0.951 . S
C2815 C2813 1.388 . S
C2815 C2816 1.366 . S
C2816 C2815 1.366 . S
C2816 C2817 1.414 . S
C2816 C2819 1.499 . S
C2817 H2791 0.950 . S
C2817 C2816 1.414 . S
C2817 C2818 1.374 . S
C2818 H2792 0.950 . S
C2818 C2814 1.385 . S
C2818 C2817 1.374 . S
C2819 C2816 1.499 . S
C2819 C2820 1.373 . S
C2819 C2821 1.389 . S
C2820 H2793 0.950 . S
C2820 C2806 1.377 . S
C2820 C2819 1.373 . S
C2821 C2805 1.377 . S
C2821 C2819 1.389 . S
C2821 C2822 1.524 . S
C2822 C2821 1.524 . S
C2822 C2823 1.397 . S
C2822 C2827 1.363 . S
C2823 H2794 0.950 . S
C2823 C2822 1.397 . S
C2823 C2824 1.334 . S
C2824 H2795 0.950 . S
C2824 C2823 1.334 . S
C2824 C2825 1.287 . S
C2825 C2824 1.287 . S
C2825 C2826 1.524 . S
C2825 H2828 0.999 . S
C2826 H2796 0.950 . S
C2826 C2825 1.524 . S
C2826 C2827 1.415 . S
C2827 H2797 0.950 . S
C2827 C2822 1.363 . S
C2827 C2826 1.415 . S
H2828 C2825 0.999 . S
H2829 C2810 0.913 . S
H2830 C2848 0.951 . S
H2831 C2850 0.951 . S
H2832 C2852 0.950 . S
H2833 C2853 0.950 . S
H2834 C2855 0.950 . S
H2835 C2858 0.950 . S
H2836 C2859 0.950 . S
H2837 C2861 0.950 . S
H2838 C2862 0.950 . S
H2839 C2863 0.951 . S
H2840 C2865 0.951 . S
H2841 C2867 0.950 . S
H2842 C2868 0.950 . S
H2843 C2870 0.950 . S
H2844 C2873 0.950 . S
H2845 C2874 0.950 . S
H2846 C2876 0.950 . S
H2847 C2877 0.950 . S
C2848 H2830 0.951 . S
C2848 C2849 1.366 . S
C2848 C2850 1.388 . S
C2849 C2848 1.366 . S
C2849 C2853 1.385 . S
C2850 H2831 0.951 . S
C2850 C2848 1.388 . S
C2850 C2851 1.366 . S
C2851 C2850 1.366 . S
C2851 C2852 1.414 . S
C2851 C2854 1.499 . S
C2852 H2832 0.950 . S
C2852 C2851 1.414 . S
C2852 C2853 1.374 . S
C2853 H2833 0.950 . S
C2853 C2849 1.385 . S
C2853 C2852 1.374 . S
C2854 C2851 1.499 . S
C2854 C2855 1.373 . S
C2854 C2856 1.389 . S
C2855 H2834 0.950 . S
C2855 C2854 1.373 . S
C2855 C2871 1.377 . S
C2856 C2854 1.389 . S
C2856 C2857 1.524 . S
C2856 C2870 1.377 . S
C2857 C2856 1.524 . S
C2857 C2858 1.397 . S
C2857 C2862 1.363 . S
C2858 H2835 0.950 . S
C2858 C2857 1.397 . S
C2858 C2859 1.334 . S
C2859 H2836 0.950 . S
C2859 C2858 1.334 . S
C2859 C2860 1.287 . S
C2860 C2859 1.287 . S
C2860 C2861 1.524 . S
C2860 H2879 0.913 . S
C2861 H2837 0.950 . S
C2861 C2860 1.524 . S
C2861 C2862 1.415 . S
C2862 H2838 0.950 . S
C2862 C2857 1.363 . S
C2862 C2861 1.415 . S
C2863 H2839 0.951 . S
C2863 C2864 1.366 . S
C2863 C2865 1.388 . S
C2864 C2863 1.366 . S
C2864 C2868 1.385 . S
C2865 H2840 0.951 . S
C2865 C2863 1.388 . S
C2865 C2866 1.366 . S
C2866 C2865 1.366 . S
C2866 C2867 1.414 . S
C2866 C2869 1.499 . S
C2867 H2841 0.950 . S
C2867 C2866 1.414 . S
C2867 C2868 1.374 . S
C2868 H2842 0.950 . S
C2868 C2864 1.385 . S
C2868 C2867 1.374 . S
C2869 C2866 1.499 . S
C2869 C2870 1.373 . S
C2869 C2871 1.389 . S
C2870 H2843 0.950 . S
C2870 C2856 1.377 . S
C2870 C2869 1.373 . S
C2871 C2855 1.377 . S
C2871 C2869 1.389 . S
C2871 C2872 1.524 . S
C2872 C2871 1.524 . S
C2872 C2873 1.397 . S
C2872 C2877 1.363 . S
C2873 H2844 0.950 . S
C2873 C2872 1.397 . S
C2873 C2874 1.334 . S
C2874 H2845 0.950 . S
C2874 C2873 1.334 . S
C2874 C2875 1.287 . S
C2875 C2874 1.287 . S
C2875 C2876 1.524 . S
C2875 H2878 0.999 . S
C2876 H2846 0.950 . S
C2876 C2875 1.524 . S
C2876 C2877 1.415 . S
C2877 H2847 0.950 . S
C2877 C2872 1.363 . S
C2877 C2876 1.415 . S
H2878 C2875 0.999 . S
H2879 C2860 0.913 . S
H2880 C2898 0.951 . S
H2881 C2900 0.951 . S
H2882 C2902 0.950 . S
H2883 C2903 0.950 . S
H2884 C2905 0.950 . S
H2885 C2908 0.950 . S
H2886 C2909 0.950 . S
H2887 C2911 0.950 . S
H2888 C2912 0.950 . S
H2889 C2913 0.951 1_545 S
H2890 C2915 0.951 . S
H2891 C2917 0.950 . S
H2892 C2918 0.950 . S
H2893 C2920 0.950 . S
H2894 C2923 0.950 . S
H2895 C2924 0.950 . S
H2896 C2926 0.950 . S
H2897 C2927 0.950 . S
C2898 H2880 0.951 . S
C2898 C2899 1.366 . S
C2898 C2900 1.388 . S
C2899 C2898 1.366 . S
C2899 C2903 1.385 . S
C2900 H2881 0.951 . S
C2900 C2898 1.388 . S
C2900 C2901 1.366 . S
C2901 C2900 1.366 . S
C2901 C2902 1.414 . S
C2901 C2904 1.499 . S
C2902 H2882 0.950 . S
C2902 C2901 1.414 . S
C2902 C2903 1.374 . S
C2903 H2883 0.950 . S
C2903 C2899 1.385 . S
C2903 C2902 1.374 . S
C2904 C2901 1.499 . S
C2904 C2905 1.373 . S
C2904 C2906 1.389 . S
C2905 H2884 0.950 . S
C2905 C2904 1.373 . S
C2905 C2921 1.377 . S
C2906 C2904 1.389 . S
C2906 C2907 1.524 . S
C2906 C2920 1.377 . S
C2907 C2906 1.524 . S
C2907 C2908 1.397 . S
C2907 C2912 1.363 . S
C2908 H2885 0.950 . S
C2908 C2907 1.397 . S
C2908 C2909 1.334 . S
C2909 H2886 0.950 . S
C2909 C2908 1.334 . S
C2909 C2910 1.287 . S
C2910 C2909 1.287 . S
C2910 C2911 1.524 1_554 S
C2910 H2929 0.913 1_554 S
C2911 H2887 0.950 . S
C2911 C2910 1.524 1_556 S
C2911 C2912 1.415 1_556 S
C2912 H2888 0.950 . S
C2912 C2907 1.363 . S
C2912 C2911 1.415 1_554 S
C2913 H2889 0.951 1_565 S
C2913 C2914 1.366 . S
C2913 C2915 1.388 . S
C2914 C2913 1.366 . S
C2914 C2918 1.385 . S
C2915 H2890 0.951 . S
C2915 C2913 1.388 . S
C2915 C2916 1.366 . S
C2916 C2915 1.366 . S
C2916 C2917 1.414 . S
C2916 C2919 1.499 . S
C2917 H2891 0.950 . S
C2917 C2916 1.414 . S
C2917 C2918 1.374 . S
C2918 H2892 0.950 . S
C2918 C2914 1.385 . S
C2918 C2917 1.374 . S
C2919 C2916 1.499 . S
C2919 C2920 1.373 . S
C2919 C2921 1.389 . S
C2920 H2893 0.950 . S
C2920 C2906 1.377 . S
C2920 C2919 1.373 . S
C2921 C2905 1.377 . S
C2921 C2919 1.389 . S
C2921 C2922 1.524 . S
C2922 C2921 1.524 . S
C2922 C2923 1.397 . S
C2922 C2927 1.363 . S
C2923 H2894 0.950 . S
C2923 C2922 1.397 . S
C2923 C2924 1.334 . S
C2924 H2895 0.950 . S
C2924 C2923 1.334 . S
C2924 C2925 1.287 . S
C2925 C2924 1.287 . S
C2925 C2926 1.524 . S
C2925 H2928 0.999 . S
C2926 H2896 0.950 . S
C2926 C2925 1.524 . S
C2926 C2927 1.415 . S
C2927 H2897 0.950 . S
C2927 C2922 1.363 . S
C2927 C2926 1.415 . S
H2928 C2925 0.999 . S
H2929 C2910 0.913 1_556 S
H2930 C2948 0.951 . S
H2931 C2950 0.951 . S
H2932 C2952 0.950 . S
H2933 C2953 0.950 . S
H2934 C2955 0.950 . S
H2935 C2958 0.950 . S
H2936 C2959 0.950 . S
H2937 C2961 0.950 . S
H2938 C2962 0.950 . S
H2939 C2963 0.951 . S
H2940 C2965 0.951 . S
H2941 C2967 0.950 . S
H2942 C2968 0.950 . S
H2943 C2970 0.950 . S
H2944 C2973 0.950 . S
H2945 C2974 0.950 . S
H2946 C2976 0.950 . S
H2947 C2977 0.950 . S
C2948 H2930 0.951 . S
C2948 C2949 1.366 . S
C2948 C2950 1.388 . S
C2949 C2948 1.366 . S
C2949 C2953 1.385 . S
C2950 H2931 0.951 . S
C2950 C2948 1.388 . S
C2950 C2951 1.366 . S
C2951 C2950 1.366 . S
C2951 C2952 1.414 . S
C2951 C2954 1.499 . S
C2952 H2932 0.950 . S
C2952 C2951 1.414 . S
C2952 C2953 1.374 . S
C2953 H2933 0.950 . S
C2953 C2949 1.385 . S
C2953 C2952 1.374 . S
C2954 C2951 1.499 . S
C2954 C2955 1.373 . S
C2954 C2956 1.389 . S
C2955 H2934 0.950 . S
C2955 C2954 1.373 . S
C2955 C2971 1.377 . S
C2956 C2954 1.389 . S
C2956 C2957 1.524 . S
C2956 C2970 1.377 . S
C2957 C2956 1.524 . S
C2957 C2958 1.397 . S
C2957 C2962 1.363 . S
C2958 H2935 0.950 . S
C2958 C2957 1.397 . S
C2958 C2959 1.334 . S
C2959 H2936 0.950 . S
C2959 C2958 1.334 . S
C2959 C2960 1.287 . S
C2960 C2959 1.287 . S
C2960 C2961 1.524 . S
C2960 H2979 0.913 . S
C2961 H2937 0.950 . S
C2961 C2960 1.524 . S
C2961 C2962 1.415 . S
C2962 H2938 0.950 . S
C2962 C2957 1.363 . S
C2962 C2961 1.415 . S
C2963 H2939 0.951 . S
C2963 C2964 1.366 . S
C2963 C2965 1.388 . S
C2964 C2963 1.366 . S
C2964 C2968 1.385 . S
C2965 H2940 0.951 . S
C2965 C2963 1.388 . S
C2965 C2966 1.366 . S
C2966 C2965 1.366 . S
C2966 C2967 1.414 . S
C2966 C2969 1.499 . S
C2967 H2941 0.950 . S
C2967 C2966 1.414 . S
C2967 C2968 1.374 . S
C2968 H2942 0.950 . S
C2968 C2964 1.385 . S
C2968 C2967 1.374 . S
C2969 C2966 1.499 . S
C2969 C2970 1.373 . S
C2969 C2971 1.389 . S
C2970 H2943 0.950 . S
C2970 C2956 1.377 . S
C2970 C2969 1.373 . S
C2971 C2955 1.377 . S
C2971 C2969 1.389 . S
C2971 C2972 1.524 . S
C2972 C2971 1.524 . S
C2972 C2973 1.397 . S
C2972 C2977 1.363 . S
C2973 H2944 0.950 . S
C2973 C2972 1.397 . S
C2973 C2974 1.334 . S
C2974 H2945 0.950 . S
C2974 C2973 1.334 . S
C2974 C2975 1.287 . S
C2975 C2974 1.287 . S
C2975 C2976 1.524 . S
C2975 H2978 0.999 . S
C2976 H2946 0.950 . S
C2976 C2975 1.524 . S
C2976 C2977 1.415 . S
C2977 H2947 0.950 . S
C2977 C2972 1.363 . S
C2977 C2976 1.415 . S
H2978 C2975 0.999 . S
H2979 C2960 0.913 . S
H2980 C2998 0.951 . S
H2981 C3000 0.951 . S
H2982 C3002 0.950 . S
H2983 C3003 0.950 . S
H2984 C3005 0.950 . S
H2985 C3008 0.950 . S
H2986 C3009 0.950 . S
H2987 C3011 0.950 . S
H2988 C3012 0.950 . S
H2989 C3013 0.951 . S
H2990 C3015 0.951 . S
H2991 C3017 0.950 . S
H2992 C3018 0.950 . S
H2993 C3020 0.950 . S
H2994 C3023 0.950 . S
H2995 C3024 0.950 . S
H2996 C3026 0.950 . S
H2997 C3027 0.950 . S
C2998 H2980 0.951 . S
C2998 C2999 1.366 . S
C2998 C3000 1.388 . S
C2999 C2998 1.366 . S
C2999 C3003 1.385 . S
C3000 H2981 0.951 . S
C3000 C2998 1.388 . S
C3000 C3001 1.366 . S
C3001 C3000 1.366 . S
C3001 C3002 1.414 . S
C3001 C3004 1.499 . S
C3002 H2982 0.950 . S
C3002 C3001 1.414 . S
C3002 C3003 1.374 . S
C3003 H2983 0.950 . S
C3003 C2999 1.385 . S
C3003 C3002 1.374 . S
C3004 C3001 1.499 . S
C3004 C3005 1.373 . S
C3004 C3006 1.389 . S
C3005 H2984 0.950 . S
C3005 C3004 1.373 . S
C3005 C3021 1.377 . S
C3006 C3004 1.389 . S
C3006 C3007 1.524 . S
C3006 C3020 1.377 . S
C3007 C3006 1.524 . S
C3007 C3008 1.397 . S
C3007 C3012 1.363 . S
C3008 H2985 0.950 . S
C3008 C3007 1.397 . S
C3008 C3009 1.334 . S
C3009 H2986 0.950 . S
C3009 C3008 1.334 . S
C3009 C3010 1.287 . S
C3010 C3009 1.287 . S
C3010 C3011 1.524 . S
C3010 H3029 0.913 . S
C3011 H2987 0.950 . S
C3011 C3010 1.524 . S
C3011 C3012 1.415 . S
C3012 H2988 0.950 . S
C3012 C3007 1.363 . S
C3012 C3011 1.415 . S
C3013 H2989 0.951 . S
C3013 C3014 1.366 . S
C3013 C3015 1.388 . S
C3014 C3013 1.366 . S
C3014 C3018 1.385 . S
C3015 H2990 0.951 . S
C3015 C3013 1.388 . S
C3015 C3016 1.366 . S
C3016 C3015 1.366 . S
C3016 C3017 1.414 . S
C3016 C3019 1.499 . S
C3017 H2991 0.950 . S
C3017 C3016 1.414 . S
C3017 C3018 1.374 . S
C3018 H2992 0.950 . S
C3018 C3014 1.385 . S
C3018 C3017 1.374 . S
C3019 C3016 1.499 . S
C3019 C3020 1.373 . S
C3019 C3021 1.389 . S
C3020 H2993 0.950 . S
C3020 C3006 1.377 . S
C3020 C3019 1.373 . S
C3021 C3005 1.377 . S
C3021 C3019 1.389 . S
C3021 C3022 1.524 . S
C3022 C3021 1.524 . S
C3022 C3023 1.397 . S
C3022 C3027 1.363 . S
C3023 H2994 0.950 . S
C3023 C3022 1.397 . S
C3023 C3024 1.334 . S
C3024 H2995 0.950 . S
C3024 C3023 1.334 . S
C3024 C3025 1.287 . S
C3025 C3024 1.287 . S
C3025 C3026 1.524 . S
C3025 H3028 0.999 . S
C3026 H2996 0.950 . S
C3026 C3025 1.524 . S
C3026 C3027 1.415 . S
C3027 H2997 0.950 . S
C3027 C3022 1.363 . S
C3027 C3026 1.415 . S
H3028 C3025 0.999 . S
H3029 C3010 0.913 . S
H3030 C3048 0.951 . S
H3031 C3050 0.951 . S
H3032 C3052 0.950 . S
H3033 C3053 0.950 . S
H3034 C3055 0.950 . S
H3035 C3058 0.950 . S
H3036 C3059 0.950 . S
H3037 C3061 0.950 . S
H3038 C3062 0.950 . S
H3039 C3063 0.951 . S
H3040 C3065 0.951 . S
H3041 C3067 0.950 . S
H3042 C3068 0.950 . S
H3043 C3070 0.950 . S
H3044 C3073 0.950 . S
H3045 C3074 0.950 . S
H3046 C3076 0.950 . S
H3047 C3077 0.950 . S
C3048 H3030 0.951 . S
C3048 C3049 1.366 . S
C3048 C3050 1.388 . S
C3049 C3048 1.366 . S
C3049 C3053 1.385 . S
C3050 H3031 0.951 . S
C3050 C3048 1.388 . S
C3050 C3051 1.366 . S
C3051 C3050 1.366 . S
C3051 C3052 1.414 . S
C3051 C3054 1.499 . S
C3052 H3032 0.950 . S
C3052 C3051 1.414 . S
C3052 C3053 1.374 . S
C3053 H3033 0.950 . S
C3053 C3049 1.385 . S
C3053 C3052 1.374 . S
C3054 C3051 1.499 . S
C3054 C3055 1.373 . S
C3054 C3056 1.389 . S
C3055 H3034 0.950 . S
C3055 C3054 1.373 . S
C3055 C3071 1.377 . S
C3056 C3054 1.389 . S
C3056 C3057 1.524 . S
C3056 C3070 1.377 . S
C3057 C3056 1.524 . S
C3057 C3058 1.397 . S
C3057 C3062 1.363 . S
C3058 H3035 0.950 . S
C3058 C3057 1.397 . S
C3058 C3059 1.334 . S
C3059 H3036 0.950 . S
C3059 C3058 1.334 . S
C3059 C3060 1.287 . S
C3060 C3059 1.287 . S
C3060 C3061 1.524 . S
C3060 H3079 0.913 . S
C3061 H3037 0.950 . S
C3061 C3060 1.524 . S
C3061 C3062 1.415 . S
C3062 H3038 0.950 . S
C3062 C3057 1.363 . S
C3062 C3061 1.415 . S
C3063 H3039 0.951 . S
C3063 C3064 1.366 . S
C3063 C3065 1.388 . S
C3064 C3063 1.366 . S
C3064 C3068 1.385 . S
C3065 H3040 0.951 . S
C3065 C3063 1.388 . S
C3065 C3066 1.366 . S
C3066 C3065 1.366 . S
C3066 C3067 1.414 . S
C3066 C3069 1.499 . S
C3067 H3041 0.950 . S
C3067 C3066 1.414 . S
C3067 C3068 1.374 . S
C3068 H3042 0.950 . S
C3068 C3064 1.385 . S
C3068 C3067 1.374 . S
C3069 C3066 1.499 . S
C3069 C3070 1.373 . S
C3069 C3071 1.389 . S
C3070 H3043 0.950 . S
C3070 C3056 1.377 . S
C3070 C3069 1.373 . S
C3071 C3055 1.377 . S
C3071 C3069 1.389 . S
C3071 C3072 1.524 . S
C3072 C3071 1.524 . S
C3072 C3073 1.397 . S
C3072 C3077 1.363 . S
C3073 H3044 0.950 . S
C3073 C3072 1.397 . S
C3073 C3074 1.334 . S
C3074 H3045 0.950 . S
C3074 C3073 1.334 . S
C3074 C3075 1.287 . S
C3075 C3074 1.287 . S
C3075 C3076 1.524 . S
C3075 H3078 0.999 . S
C3076 H3046 0.950 . S
C3076 C3075 1.524 . S
C3076 C3077 1.415 . S
C3077 H3047 0.950 . S
C3077 C3072 1.363 . S
C3077 C3076 1.415 . S
H3078 C3075 0.999 . S
H3079 C3060 0.913 . S
H3080 C3098 0.951 . S
H3081 C3100 0.951 . S
H3082 C3102 0.950 . S
H3083 C3103 0.950 . S
H3084 C3105 0.950 . S
H3085 C3108 0.950 . S
H3086 C3109 0.950 . S
H3087 C3111 0.950 . S
H3088 C3112 0.950 . S
H3089 C3113 0.951 . S
H3090 C3115 0.951 . S
H3091 C3117 0.950 . S
H3092 C3118 0.950 . S
H3093 C3120 0.950 . S
H3094 C3123 0.950 . S
H3095 C3124 0.950 . S
H3096 C3126 0.950 . S
H3097 C3127 0.950 . S
C3098 H3080 0.951 . S
C3098 C3099 1.366 . S
C3098 C3100 1.388 . S
C3099 C3098 1.366 . S
C3099 C3103 1.385 . S
C3100 H3081 0.951 . S
C3100 C3098 1.388 . S
C3100 C3101 1.366 . S
C3101 C3100 1.366 . S
C3101 C3102 1.414 . S
C3101 C3104 1.499 . S
C3102 H3082 0.950 . S
C3102 C3101 1.414 . S
C3102 C3103 1.374 . S
C3103 H3083 0.950 . S
C3103 C3099 1.385 . S
C3103 C3102 1.374 . S
C3104 C3101 1.499 . S
C3104 C3105 1.373 . S
C3104 C3106 1.389 . S
C3105 H3084 0.950 . S
C3105 C3104 1.373 . S
C3105 C3121 1.377 . S
C3106 C3104 1.389 . S
C3106 C3107 1.524 . S
C3106 C3120 1.377 . S
C3107 C3106 1.524 . S
C3107 C3108 1.397 . S
C3107 C3112 1.363 . S
C3108 H3085 0.950 . S
C3108 C3107 1.397 . S
C3108 C3109 1.334 . S
C3109 H3086 0.950 . S
C3109 C3108 1.334 . S
C3109 C3110 1.287 . S
C3110 C3109 1.287 . S
C3110 C3111 1.524 . S
C3110 H3129 0.913 . S
C3111 H3087 0.950 . S
C3111 C3110 1.524 . S
C3111 C3112 1.415 . S
C3112 H3088 0.950 . S
C3112 C3107 1.363 . S
C3112 C3111 1.415 . S
C3113 H3089 0.951 . S
C3113 C3114 1.366 . S
C3113 C3115 1.388 . S
C3114 C3113 1.366 . S
C3114 C3118 1.385 . S
C3115 H3090 0.951 . S
C3115 C3113 1.388 . S
C3115 C3116 1.366 . S
C3116 C3115 1.366 . S
C3116 C3117 1.414 . S
C3116 C3119 1.499 . S
C3117 H3091 0.950 . S
C3117 C3116 1.414 . S
C3117 C3118 1.374 . S
C3118 H3092 0.950 . S
C3118 C3114 1.385 . S
C3118 C3117 1.374 . S
C3119 C3116 1.499 . S
C3119 C3120 1.373 . S
C3119 C3121 1.389 . S
C3120 H3093 0.950 . S
C3120 C3106 1.377 . S
C3120 C3119 1.373 . S
C3121 C3105 1.377 . S
C3121 C3119 1.389 . S
C3121 C3122 1.524 . S
C3122 C3121 1.524 . S
C3122 C3123 1.397 . S
C3122 C3127 1.363 . S
C3123 H3094 0.950 . S
C3123 C3122 1.397 . S
C3123 C3124 1.334 . S
C3124 H3095 0.950 . S
C3124 C3123 1.334 . S
C3124 C3125 1.287 . S
C3125 C3124 1.287 . S
C3125 C3126 1.524 . S
C3125 H3128 0.999 . S
C3126 H3096 0.950 . S
C3126 C3125 1.524 . S
C3126 C3127 1.415 . S
C3127 H3097 0.950 . S
C3127 C3122 1.363 . S
C3127 C3126 1.415 . S
H3128 C3125 0.999 . S
H3129 C3110 0.913 . S
H3130 C3148 0.951 . S
H3131 C3150 0.951 . S
H3132 C3152 0.950 . S
H3133 C3153 0.950 . S
H3134 C3155 0.950 . S
H3135 C3158 0.950 . S
H3136 C3159 0.950 . S
H3137 C3161 0.950 . S
H3138 C3162 0.950 . S
H3139 C3163 0.951 . S
H3140 C3165 0.951 . S
H3141 C3167 0.950 . S
H3142 C3168 0.950 . S
H3143 C3170 0.950 . S
H3144 C3173 0.950 . S
H3145 C3174 0.950 . S
H3146 C3176 0.950 . S
H3147 C3177 0.950 . S
C3148 H3130 0.951 . S
C3148 C3149 1.366 . S
C3148 C3150 1.388 . S
C3149 C3148 1.366 . S
C3149 C3153 1.385 . S
C3150 H3131 0.951 . S
C3150 C3148 1.388 . S
C3150 C3151 1.366 . S
C3151 C3150 1.366 . S
C3151 C3152 1.414 . S
C3151 C3154 1.499 . S
C3152 H3132 0.950 . S
C3152 C3151 1.414 . S
C3152 C3153 1.374 . S
C3153 H3133 0.950 . S
C3153 C3149 1.385 . S
C3153 C3152 1.374 . S
C3154 C3151 1.499 . S
C3154 C3155 1.373 . S
C3154 C3156 1.389 . S
C3155 H3134 0.950 . S
C3155 C3154 1.373 . S
C3155 C3171 1.377 . S
C3156 C3154 1.389 . S
C3156 C3157 1.524 . S
C3156 C3170 1.377 . S
C3157 C3156 1.524 . S
C3157 C3158 1.397 . S
C3157 C3162 1.363 . S
C3158 H3135 0.950 . S
C3158 C3157 1.397 . S
C3158 C3159 1.334 . S
C3159 H3136 0.950 . S
C3159 C3158 1.334 . S
C3159 C3160 1.287 . S
C3160 C3159 1.287 . S
C3160 C3161 1.524 . S
C3160 H3179 0.913 . S
C3161 H3137 0.950 . S
C3161 C3160 1.524 . S
C3161 C3162 1.415 . S
C3162 H3138 0.950 . S
C3162 C3157 1.363 . S
C3162 C3161 1.415 . S
C3163 H3139 0.951 . S
C3163 C3164 1.366 . S
C3163 C3165 1.388 . S
C3164 C3163 1.366 . S
C3164 C3168 1.385 . S
C3165 H3140 0.951 . S
C3165 C3163 1.388 . S
C3165 C3166 1.366 . S
C3166 C3165 1.366 . S
C3166 C3167 1.414 . S
C3166 C3169 1.499 . S
C3167 H3141 0.950 . S
C3167 C3166 1.414 . S
C3167 C3168 1.374 . S
C3168 H3142 0.950 . S
C3168 C3164 1.385 . S
C3168 C3167 1.374 . S
C3169 C3166 1.499 . S
C3169 C3170 1.373 . S
C3169 C3171 1.389 . S
C3170 H3143 0.950 . S
C3170 C3156 1.377 . S
C3170 C3169 1.373 . S
C3171 C3155 1.377 . S
C3171 C3169 1.389 . S
C3171 C3172 1.524 . S
C3172 C3171 1.524 . S
C3172 C3173 1.397 . S
C3172 C3177 1.363 . S
C3173 H3144 0.950 . S
C3173 C3172 1.397 . S
C3173 C3174 1.334 . S
C3174 H3145 0.950 . S
C3174 C3173 1.334 . S
C3174 C3175 1.287 . S
C3175 C3174 1.287 . S
C3175 C3176 1.524 . S
C3175 H3178 0.999 . S
C3176 H3146 0.950 . S
C3176 C3175 1.524 . S
C3176 C3177 1.415 . S
C3177 H3147 0.950 . S
C3177 C3172 1.363 . S
C3177 C3176 1.415 . S
H3178 C3175 0.999 . S
H3179 C3160 0.913 . S
H3180 C3198 0.951 . S
H3181 C3200 0.951 . S
H3182 C3202 0.950 . S
H3183 C3203 0.950 . S
H3184 C3205 0.950 . S
H3185 C3208 0.950 . S
H3186 C3209 0.950 . S
H3187 C3211 0.972 . S
H3188 C3212 0.950 . S
H3189 C3213 0.991 . S
H3190 C3215 0.951 . S
H3191 C3217 0.933 1_554 S
H3192 C3218 0.950 . S
H3193 C3220 0.950 . S
H3194 C3223 0.950 . S
H3195 C3224 0.950 . S
H3196 C3226 0.946 1_545 S
H3197 C3227 0.950 . S
C3198 H3180 0.951 . S
C3198 C3199 1.366 . S
C3198 C3200 1.388 . S
C3199 C3198 1.366 . S
C3199 C3203 1.385 . S
C3200 H3181 0.951 . S
C3200 C3198 1.388 . S
C3200 C3201 1.366 . S
C3201 C3200 1.366 . S
C3201 C3202 1.414 . S
C3201 C3204 1.499 . S
C3202 H3182 0.950 . S
C3202 C3201 1.414 . S
C3202 C3203 1.374 . S
C3203 H3183 0.950 . S
C3203 C3199 1.385 . S
C3203 C3202 1.374 . S
C3204 C3201 1.499 . S
C3204 C3205 1.373 . S
C3204 C3206 1.389 . S
C3205 H3184 0.950 . S
C3205 C3204 1.373 . S
C3205 C3221 1.377 . S
C3206 C3204 1.389 . S
C3206 C3207 1.524 . S
C3206 C3220 1.377 . S
C3207 C3206 1.524 . S
C3207 C3208 1.397 . S
C3207 C3212 1.363 . S
C3208 H3185 0.950 . S
C3208 C3207 1.397 . S
C3208 C3209 1.334 . S
C3209 H3186 0.950 . S
C3209 C3208 1.334 . S
C3209 C3210 1.287 . S
C3210 C3209 1.287 . S
C3210 C3211 1.524 . S
C3210 H3229 0.913 . S
C3211 H3187 0.972 . S
C3211 C3210 1.524 . S
C3211 C3212 1.415 . S
C3212 H3188 0.950 . S
C3212 C3207 1.363 . S
C3212 C3211 1.415 . S
C3213 H3189 0.991 . S
C3213 C3214 1.368 . S
C3213 C3215 1.348 1_545 S
C3214 C3213 1.368 . S
C3214 C3218 1.385 1_546 S
C3215 H3190 0.951 . S
C3215 C3213 1.348 1_565 S
C3215 C3216 1.366 . S
C3216 C3215 1.366 . S
C3216 C3217 1.414 . S
C3216 C3219 1.499 . S
C3217 H3191 0.933 1_556 S
C3217 C3216 1.414 . S
C3217 C3218 1.374 1_556 S
C3218 H3192 0.950 . S
C3218 C3214 1.385 1_564 S
C3218 C3217 1.374 1_554 S
C3219 C3216 1.499 . S
C3219 C3220 1.373 . S
C3219 C3221 1.389 . S
C3220 H3193 0.950 . S
C3220 C3206 1.377 . S
C3220 C3219 1.373 . S
C3221 C3205 1.377 . S
C3221 C3219 1.389 . S
C3221 C3222 1.524 . S
C3222 C3221 1.524 . S
C3222 C3223 1.397 . S
C3222 C3227 1.363 . S
C3223 H3194 0.950 . S
C3223 C3222 1.397 . S
C3223 C3224 1.334 1_565 S
C3224 H3195 0.950 . S
C3224 C3223 1.334 1_545 S
C3224 C3225 1.287 . S
C3225 C3224 1.287 . S
C3225 C3226 1.524 1_545 S
C3225 H3228 0.999 . S
C3226 H3196 0.946 1_565 S
C3226 C3225 1.524 1_565 S
C3226 C3227 1.415 . S
C3227 H3197 0.950 . S
C3227 C3222 1.363 . S
C3227 C3226 1.415 . S
H3228 C3225 0.999 . S
H3229 C3210 0.913 . S
H3230 C3248 0.951 . S
H3231 C3250 0.951 . S
H3232 C3252 0.950 . S
H3233 C3253 0.950 . S
H3234 C3255 0.950 . S
H3235 C3258 0.950 . S
H3236 C3259 0.950 . S
H3237 C3261 0.950 . S
H3238 C3262 0.950 . S
H3239 C3263 0.951 . S
H3240 C3265 0.951 . S
H3241 C3267 0.950 . S
H3242 C3268 0.950 . S
H3243 C3270 0.950 . S
H3244 C3273 0.950 . S
H3245 C3274 0.950 . S
H3246 C3276 0.950 . S
H3247 C3277 0.950 . S
C3248 H3230 0.951 . S
C3248 C3249 1.366 . S
C3248 C3250 1.388 . S
C3249 C3248 1.366 . S
C3249 C3253 1.385 . S
C3250 H3231 0.951 . S
C3250 C3248 1.388 . S
C3250 C3251 1.366 . S
C3251 C3250 1.366 . S
C3251 C3252 1.414 . S
C3251 C3254 1.499 . S
C3252 H3232 0.950 . S
C3252 C3251 1.414 . S
C3252 C3253 1.374 . S
C3253 H3233 0.950 . S
C3253 C3249 1.385 . S
C3253 C3252 1.374 . S
C3254 C3251 1.499 . S
C3254 C3255 1.373 . S
C3254 C3256 1.389 . S
C3255 H3234 0.950 . S
C3255 C3254 1.373 . S
C3255 C3271 1.377 . S
C3256 C3254 1.389 . S
C3256 C3257 1.524 . S
C3256 C3270 1.377 . S
C3257 C3256 1.524 . S
C3257 C3258 1.397 . S
C3257 C3262 1.363 . S
C3258 H3235 0.950 . S
C3258 C3257 1.397 . S
C3258 C3259 1.334 . S
C3259 H3236 0.950 . S
C3259 C3258 1.334 . S
C3259 C3260 1.287 . S
C3260 C3259 1.287 . S
C3260 C3261 1.524 . S
C3260 H3279 0.913 . S
C3261 H3237 0.950 . S
C3261 C3260 1.524 . S
C3261 C3262 1.415 . S
C3262 H3238 0.950 . S
C3262 C3257 1.363 . S
C3262 C3261 1.415 . S
C3263 H3239 0.951 . S
C3263 C3264 1.366 . S
C3263 C3265 1.388 . S
C3264 C3263 1.366 . S
C3264 C3268 1.385 . S
C3265 H3240 0.951 . S
C3265 C3263 1.388 . S
C3265 C3266 1.366 . S
C3266 C3265 1.366 . S
C3266 C3267 1.414 . S
C3266 C3269 1.499 . S
C3267 H3241 0.950 . S
C3267 C3266 1.414 . S
C3267 C3268 1.374 . S
C3268 H3242 0.950 . S
C3268 C3264 1.385 . S
C3268 C3267 1.374 . S
C3269 C3266 1.499 . S
C3269 C3270 1.373 . S
C3269 C3271 1.389 . S
C3270 H3243 0.950 . S
C3270 C3256 1.377 . S
C3270 C3269 1.373 . S
C3271 C3255 1.377 . S
C3271 C3269 1.389 . S
C3271 C3272 1.524 . S
C3272 C3271 1.524 . S
C3272 C3273 1.397 . S
C3272 C3277 1.363 . S
C3273 H3244 0.950 . S
C3273 C3272 1.397 . S
C3273 C3274 1.334 . S
C3274 H3245 0.950 . S
C3274 C3273 1.334 . S
C3274 C3275 1.287 . S
C3275 C3274 1.287 . S
C3275 C3276 1.524 . S
C3275 H3278 0.999 . S
C3276 H3246 0.950 . S
C3276 C3275 1.524 . S
C3276 C3277 1.415 . S
C3277 H3247 0.950 . S
C3277 C3272 1.363 . S
C3277 C3276 1.415 . S
H3278 C3275 0.999 . S
H3279 C3260 0.913 . S
H3280 C3298 0.951 . S
H3281 C3300 0.951 . S
H3282 C3302 0.950 . S
H3283 C3303 0.950 . S
H3284 C3305 0.950 . S
H3285 C3308 0.950 . S
H3286 C3309 0.950 . S
H3287 C3311 0.950 . S
H3288 C3312 0.950 . S
H3289 C3313 0.951 . S
H3290 C3315 0.951 . S
H3291 C3317 0.950 . S
H3292 C3318 0.950 . S
H3293 C3320 0.950 1_565 S
H3294 C3323 0.950 . S
H3295 C3324 0.950 . S
H3296 C3326 0.950 . S
H3297 C3327 0.950 . S
C3298 H3280 0.951 . S
C3298 C3299 1.366 . S
C3298 C3300 1.388 . S
C3299 C3298 1.366 . S
C3299 C3303 1.385 . S
C3300 H3281 0.951 . S
C3300 C3298 1.388 . S
C3300 C3301 1.366 . S
C3301 C3300 1.366 . S
C3301 C3302 1.414 . S
C3301 C3304 1.499 . S
C3302 H3282 0.950 . S
C3302 C3301 1.414 . S
C3302 C3303 1.374 . S
C3303 H3283 0.950 . S
C3303 C3299 1.385 . S
C3303 C3302 1.374 . S
C3304 C3301 1.499 . S
C3304 C3305 1.373 . S
C3304 C3306 1.342 1_545 S
C3305 H3284 0.950 . S
C3305 C3304 1.373 . S
C3305 C3321 1.377 . S
C3306 C3304 1.342 1_565 S
C3306 C3307 1.580 . S
C3306 C3320 1.374 1_565 S
C3307 C3306 1.580 . S
C3307 C3308 1.397 . S
C3307 C3312 1.363 . S
C3308 H3285 0.950 . S
C3308 C3307 1.397 . S
C3308 C3309 1.334 . S
C3309 H3286 0.950 . S
C3309 C3308 1.334 . S
C3309 C3310 1.287 . S
C3310 C3309 1.287 . S
C3310 C3311 1.524 . S
C3310 H3329 0.913 . S
C3311 H3287 0.950 . S
C3311 C3310 1.524 . S
C3311 C3312 1.415 . S
C3312 H3288 0.950 . S
C3312 C3307 1.363 . S
C3312 C3311 1.415 . S
C3313 H3289 0.951 . S
C3313 C3314 1.366 . S
C3313 C3315 1.388 . S
C3314 C3313 1.366 . S
C3314 C3318 1.385 . S
C3315 H3290 0.951 . S
C3315 C3313 1.388 . S
C3315 C3316 1.366 . S
C3316 C3315 1.366 . S
C3316 C3317 1.414 . S
C3316 C3319 1.499 . S
C3317 H3291 0.950 . S
C3317 C3316 1.414 . S
C3317 C3318 1.374 . S
C3318 H3292 0.950 . S
C3318 C3314 1.385 . S
C3318 C3317 1.374 . S
C3319 C3316 1.499 . S
C3319 C3320 1.373 . S
C3319 C3321 1.389 . S
C3320 H3293 0.950 1_545 S
C3320 C3306 1.374 1_545 S
C3320 C3319 1.373 . S
C3321 C3305 1.377 . S
C3321 C3319 1.389 . S
C3321 C3322 1.524 . S
C3322 C3321 1.524 . S
C3322 C3323 1.397 . S
C3322 C3327 1.363 . S
C3323 H3294 0.950 . S
C3323 C3322 1.397 . S
C3323 C3324 1.334 . S
C3324 H3295 0.950 . S
C3324 C3323 1.334 . S
C3324 C3325 1.287 . S
C3325 C3324 1.287 . S
C3325 C3326 1.524 . S
C3325 H3328 0.999 . S
C3326 H3296 0.950 . S
C3326 C3325 1.524 . S
C3326 C3327 1.415 . S
C3327 H3297 0.950 . S
C3327 C3322 1.363 . S
C3327 C3326 1.415 . S
H3328 C3325 0.999 . S
H3329 C3310 0.913 . S
H3330 C3348 0.951 . S
H3331 C3350 0.951 . S
H3332 C3352 0.950 . S
H3333 C3353 0.950 . S
H3334 C3355 0.950 . S
H3335 C3358 0.950 . S
H3336 C3359 0.950 . S
H3337 C3361 0.950 . S
H3338 C3362 0.950 . S
H3339 C3363 0.951 . S
H3340 C3365 0.951 . S
H3341 C3367 0.950 . S
H3342 C3368 0.950 . S
H3343 C3370 0.950 . S
H3344 C3373 0.950 . S
H3345 C3374 0.950 . S
H3346 C3376 0.950 . S
H3347 C3377 0.950 . S
C3348 H3330 0.951 . S
C3348 C3349 1.366 . S
C3348 C3350 1.388 . S
C3349 C3348 1.366 . S
C3349 C3353 1.385 . S
C3350 H3331 0.951 . S
C3350 C3348 1.388 . S
C3350 C3351 1.366 . S
C3351 C3350 1.366 . S
C3351 C3352 1.414 . S
C3351 C3354 1.499 . S
C3352 H3332 0.950 . S
C3352 C3351 1.414 . S
C3352 C3353 1.374 . S
C3353 H3333 0.950 . S
C3353 C3349 1.385 . S
C3353 C3352 1.374 . S
C3354 C3351 1.499 . S
C3354 C3355 1.373 . S
C3354 C3356 1.389 . S
C3355 H3334 0.950 . S
C3355 C3354 1.373 . S
C3355 C3371 1.377 . S
C3356 C3354 1.389 . S
C3356 C3357 1.524 . S
C3356 C3370 1.377 . S
C3357 C3356 1.524 . S
C3357 C3358 1.397 . S
C3357 C3362 1.363 . S
C3358 H3335 0.950 . S
C3358 C3357 1.397 . S
C3358 C3359 1.334 . S
C3359 H3336 0.950 . S
C3359 C3358 1.334 . S
C3359 C3360 1.287 . S
C3360 C3359 1.287 . S
C3360 C3361 1.524 . S
C3360 H3379 0.913 . S
C3361 H3337 0.950 . S
C3361 C3360 1.524 . S
C3361 C3362 1.415 . S
C3362 H3338 0.950 . S
C3362 C3357 1.363 . S
C3362 C3361 1.415 . S
C3363 H3339 0.951 . S
C3363 C3364 1.366 . S
C3363 C3365 1.388 . S
C3364 C3363 1.366 . S
C3364 C3368 1.385 . S
C3365 H3340 0.951 . S
C3365 C3363 1.388 . S
C3365 C3366 1.366 . S
C3366 C3365 1.366 . S
C3366 C3367 1.414 . S
C3366 C3369 1.499 . S
C3367 H3341 0.950 . S
C3367 C3366 1.414 . S
C3367 C3368 1.374 . S
C3368 H3342 0.950 . S
C3368 C3364 1.385 . S
C3368 C3367 1.374 . S
C3369 C3366 1.499 . S
C3369 C3370 1.373 . S
C3369 C3371 1.389 . S
C3370 H3343 0.950 . S
C3370 C3356 1.377 . S
C3370 C3369 1.373 . S
C3371 C3355 1.377 . S
C3371 C3369 1.389 . S
C3371 C3372 1.524 . S
C3372 C3371 1.524 . S
C3372 C3373 1.397 . S
C3372 C3377 1.363 . S
C3373 H3344 0.950 . S
C3373 C3372 1.397 . S
C3373 C3374 1.334 . S
C3374 H3345 0.950 . S
C3374 C3373 1.334 . S
C3374 C3375 1.287 . S
C3375 C3374 1.287 . S
C3375 C3376 1.524 . S
C3375 H3378 0.999 . S
C3376 H3346 0.950 . S
C3376 C3375 1.524 . S
C3376 C3377 1.415 . S
C3377 H3347 0.950 . S
C3377 C3372 1.363 . S
C3377 C3376 1.415 . S
H3378 C3375 0.999 . S
H3379 C3360 0.913 . S
H3380 C3398 0.951 . S
H3381 C3400 0.951 . S
H3382 C3402 0.950 . S
H3383 C3403 0.950 . S
H3384 C3405 0.950 . S
H3385 C3408 0.950 . S
H3386 C3409 0.950 . S
H3387 C3411 0.950 . S
H3388 C3412 0.950 . S
H3389 C3413 0.951 . S
H3390 C3415 0.951 . S
H3391 C3417 0.950 . S
H3392 C3418 0.950 . S
H3393 C3420 0.950 . S
H3394 C3423 0.950 . S
H3395 C3424 0.950 . S
H3396 C3426 0.950 . S
H3397 C3427 0.950 . S
C3398 H3380 0.951 . S
C3398 C3399 1.366 . S
C3398 C3400 1.388 . S
C3399 C3398 1.366 . S
C3399 C3403 1.385 . S
C3400 H3381 0.951 . S
C3400 C3398 1.388 . S
C3400 C3401 1.366 . S
C3401 C3400 1.366 . S
C3401 C3402 1.414 . S
C3401 C3404 1.499 . S
C3402 H3382 0.950 . S
C3402 C3401 1.414 . S
C3402 C3403 1.374 . S
C3403 H3383 0.950 . S
C3403 C3399 1.385 . S
C3403 C3402 1.374 . S
C3404 C3401 1.499 . S
C3404 C3405 1.373 . S
C3404 C3406 1.389 . S
C3405 H3384 0.950 . S
C3405 C3404 1.373 . S
C3405 C3421 1.377 . S
C3406 C3404 1.389 . S
C3406 C3407 1.524 . S
C3406 C3420 1.377 . S
C3407 C3406 1.524 . S
C3407 C3408 1.397 . S
C3407 C3412 1.363 . S
C3408 H3385 0.950 . S
C3408 C3407 1.397 . S
C3408 C3409 1.334 . S
C3409 H3386 0.950 . S
C3409 C3408 1.334 . S
C3409 C3410 1.287 . S
C3410 C3409 1.287 . S
C3410 C3411 1.524 . S
C3410 H3429 0.913 . S
C3411 H3387 0.950 . S
C3411 C3410 1.524 . S
C3411 C3412 1.415 . S
C3412 H3388 0.950 . S
C3412 C3407 1.363 . S
C3412 C3411 1.415 . S
C3413 H3389 0.951 . S
C3413 C3414 1.366 . S
C3413 C3415 1.388 . S
C3414 C3413 1.366 . S
C3414 C3418 1.385 . S
C3415 H3390 0.951 . S
C3415 C3413 1.388 . S
C3415 C3416 1.366 . S
C3416 C3415 1.366 . S
C3416 C3417 1.414 . S
C3416 C3419 1.499 . S
C3417 H3391 0.950 . S
C3417 C3416 1.414 . S
C3417 C3418 1.374 . S
C3418 H3392 0.950 . S
C3418 C3414 1.385 . S
C3418 C3417 1.374 . S
C3419 C3416 1.499 . S
C3419 C3420 1.373 . S
C3419 C3421 1.389 . S
C3420 H3393 0.950 . S
C3420 C3406 1.377 . S
C3420 C3419 1.373 . S
C3421 C3405 1.377 . S
C3421 C3419 1.389 . S
C3421 C3422 1.524 . S
C3422 C3421 1.524 . S
C3422 C3423 1.397 . S
C3422 C3427 1.363 1_545 S
C3423 H3394 0.950 . S
C3423 C3422 1.397 . S
C3423 C3424 1.334 1_545 S
C3424 H3395 0.950 . S
C3424 C3423 1.334 1_565 S
C3424 C3425 1.287 . S
C3425 C3424 1.287 . S
C3425 C3426 1.524 . S
C3425 H3428 0.999 . S
C3426 H3396 0.950 . S
C3426 C3425 1.524 . S
C3426 C3427 1.415 . S
C3427 H3397 0.950 . S
C3427 C3422 1.363 1_565 S
C3427 C3426 1.415 . S
H3428 C3425 0.999 . S
H3429 C3410 0.913 . S
H3430 C3448 0.951 . S
H3431 C3450 0.951 . S
H3432 C3452 0.950 . S
H3433 C3453 0.950 . S
H3434 C3455 0.950 . S
H3435 C3458 0.950 . S
H3436 C3459 0.950 . S
H3437 C3461 0.950 . S
H3438 C3462 0.950 . S
H3439 C3463 0.951 . S
H3440 C3465 0.951 . S
H3441 C3467 0.950 . S
H3442 C3468 0.950 . S
H3443 C3470 0.950 . S
H3444 C3473 0.950 . S
H3445 C3474 0.950 . S
H3446 C3476 0.950 . S
H3447 C3477 0.950 . S
C3448 H3430 0.951 . S
C3448 C3449 1.366 . S
C3448 C3450 1.388 . S
C3449 C3448 1.366 . S
C3449 C3453 1.385 . S
C3450 H3431 0.951 . S
C3450 C3448 1.388 . S
C3450 C3451 1.366 . S
C3451 C3450 1.366 . S
C3451 C3452 1.414 . S
C3451 C3454 1.499 . S
C3452 H3432 0.950 . S
C3452 C3451 1.414 . S
C3452 C3453 1.374 . S
C3453 H3433 0.950 . S
C3453 C3449 1.385 . S
C3453 C3452 1.374 . S
C3454 C3451 1.499 . S
C3454 C3455 1.373 . S
C3454 C3456 1.389 . S
C3455 H3434 0.950 . S
C3455 C3454 1.373 . S
C3455 C3471 1.377 . S
C3456 C3454 1.389 . S
C3456 C3457 1.524 . S
C3456 C3470 1.377 . S
C3457 C3456 1.524 . S
C3457 C3458 1.397 . S
C3457 C3462 1.363 . S
C3458 H3435 0.950 . S
C3458 C3457 1.397 . S
C3458 C3459 1.334 . S
C3459 H3436 0.950 . S
C3459 C3458 1.334 . S
C3459 C3460 1.287 . S
C3460 C3459 1.287 . S
C3460 C3461 1.524 . S
C3460 H3479 0.913 . S
C3461 H3437 0.950 . S
C3461 C3460 1.524 . S
C3461 C3462 1.415 . S
C3462 H3438 0.950 . S
C3462 C3457 1.363 . S
C3462 C3461 1.415 . S
C3463 H3439 0.951 . S
C3463 C3464 1.366 . S
C3463 C3465 1.388 . S
C3464 C3463 1.366 . S
C3464 C3468 1.385 . S
C3465 H3440 0.951 . S
C3465 C3463 1.388 . S
C3465 C3466 1.366 . S
C3466 C3465 1.366 . S
C3466 C3467 1.414 . S
C3466 C3469 1.499 . S
C3467 H3441 0.950 . S
C3467 C3466 1.414 . S
C3467 C3468 1.374 . S
C3468 H3442 0.950 . S
C3468 C3464 1.385 . S
C3468 C3467 1.374 . S
C3469 C3466 1.499 . S
C3469 C3470 1.373 . S
C3469 C3471 1.389 . S
C3470 H3443 0.950 . S
C3470 C3456 1.377 . S
C3470 C3469 1.373 . S
C3471 C3455 1.377 . S
C3471 C3469 1.389 . S
C3471 C3472 1.524 . S
C3472 C3471 1.524 . S
C3472 C3473 1.397 . S
C3472 C3477 1.363 . S
C3473 H3444 0.950 . S
C3473 C3472 1.397 . S
C3473 C3474 1.334 . S
C3474 H3445 0.950 . S
C3474 C3473 1.334 . S
C3474 C3475 1.287 . S
C3475 C3474 1.287 . S
C3475 C3476 1.524 . S
C3475 H3478 0.999 . S
C3476 H3446 0.950 . S
C3476 C3475 1.524 . S
C3476 C3477 1.415 . S
C3477 H3447 0.950 . S
C3477 C3472 1.363 . S
C3477 C3476 1.415 . S
H3478 C3475 0.999 . S
H3479 C3460 0.913 . S
H3480 C3498 0.951 . S
H3481 C3500 0.951 . S
H3482 C3502 0.950 . S
H3483 C3503 0.950 . S
H3484 C3505 0.950 . S
H3485 C3508 0.950 . S
H3486 C3509 0.950 . S
H3487 C3511 0.950 . S
H3488 C3512 0.950 . S
H3489 C3513 0.951 . S
H3490 C3515 0.951 1_565 S
H3491 C3517 0.950 . S
H3492 C3518 0.950 . S
H3493 C3520 0.950 . S
H3494 C3523 0.950 1_545 S
H3495 C3524 0.950 . S
H3496 C3526 0.950 . S
H3497 C3527 0.950 . S
C3498 H3480 0.951 . S
C3498 C3499 1.366 1_545 S
C3498 C3500 1.388 . S
C3499 C3498 1.366 1_565 S
C3499 C3503 1.385 . S
C3500 H3481 0.951 . S
C3500 C3498 1.388 . S
C3500 C3501 1.366 . S
C3501 C3500 1.366 . S
C3501 C3502 1.414 1_545 S
C3501 C3504 1.499 . S
C3502 H3482 0.950 . S
C3502 C3501 1.414 1_565 S
C3502 C3503 1.374 . S
C3503 H3483 0.950 . S
C3503 C3499 1.385 . S
C3503 C3502 1.374 . S
C3504 C3501 1.499 . S
C3504 C3505 1.373 1_545 S
C3504 C3506 1.389 . S
C3505 H3484 0.950 . S
C3505 C3504 1.373 1_565 S
C3505 C3521 1.353 1_565 S
C3506 C3504 1.389 . S
C3506 C3507 1.524 . S
C3506 C3520 1.377 . S
C3507 C3506 1.524 . S
C3507 C3508 1.397 . S
C3507 C3512 1.363 . S
C3508 H3485 0.950 . S
C3508 C3507 1.397 . S
C3508 C3509 1.334 . S
C3509 H3486 0.950 . S
C3509 C3508 1.334 . S
C3509 C3510 1.287 . S
C3510 C3509 1.287 . S
C3510 C3511 1.524 . S
C3510 H3529 0.913 . S
C3511 H3487 0.950 . S
C3511 C3510 1.524 . S
C3511 C3512 1.415 . S
C3512 H3488 0.950 . S
C3512 C3507 1.363 . S
C3512 C3511 1.415 . S
C3513 H3489 0.951 . S
C3513 C3514 1.366 . S
C3513 C3515 1.388 . S
C3514 C3513 1.366 . S
C3514 C3518 1.385 . S
C3515 H3490 0.951 1_545 S
C3515 C3513 1.388 . S
C3515 C3516 1.366 . S
C3516 C3515 1.366 . S
C3516 C3517 1.414 . S
C3516 C3519 1.499 . S
C3517 H3491 0.950 . S
C3517 C3516 1.414 . S
C3517 C3518 1.374 . S
C3518 H3492 0.950 . S
C3518 C3514 1.385 . S
C3518 C3517 1.374 . S
C3519 C3516 1.499 . S
C3519 C3520 1.373 . S
C3519 C3521 1.439 . S
C3520 H3493 0.950 . S
C3520 C3506 1.377 . S
C3520 C3519 1.373 . S
C3521 C3505 1.353 1_545 S
C3521 C3519 1.439 . S
C3521 C3522 1.499 1_545 S
C3522 C3521 1.499 1_565 S
C3522 C3523 1.397 . S
C3522 C3527 1.363 . S
C3523 H3494 0.950 1_565 S
C3523 C3522 1.397 . S
C3523 C3524 1.334 . S
C3524 H3495 0.950 . S
C3524 C3523 1.334 . S
C3524 C3525 1.287 . S
C3525 C3524 1.287 . S
C3525 C3526 1.524 . S
C3525 H3528 0.999 . S
C3526 H3496 0.950 . S
C3526 C3525 1.524 . S
C3526 C3527 1.415 . S
C3527 H3497 0.950 . S
C3527 C3522 1.363 . S
C3527 C3526 1.415 . S
H3528 C3525 0.999 . S
H3529 C3510 0.913 . S
H3530 C3548 0.951 . S
H3531 C3550 0.951 . S
H3532 C3552 0.950 . S
H3533 C3553 0.950 . S
H3534 C3555 0.950 . S
H3535 C3558 0.950 . S
H3536 C3559 0.950 . S
H3537 C3561 0.950 . S
H3538 C3562 0.950 . S
H3539 C3563 0.951 . S
H3540 C3565 0.951 . S
H3541 C3567 0.950 . S
H3542 C3568 0.950 . S
H3543 C3570 0.950 . S
H3544 C3573 0.950 . S
H3545 C3574 0.950 . S
H3546 C3576 0.950 . S
H3547 C3577 0.950 . S
C3548 H3530 0.951 . S
C3548 C3549 1.366 . S
C3548 C3550 1.388 . S
C3549 C3548 1.366 . S
C3549 C3553 1.385 . S
C3550 H3531 0.951 . S
C3550 C3548 1.388 . S
C3550 C3551 1.366 . S
C3551 C3550 1.366 . S
C3551 C3552 1.414 . S
C3551 C3554 1.499 . S
C3552 H3532 0.950 . S
C3552 C3551 1.414 . S
C3552 C3553 1.374 . S
C3553 H3533 0.950 . S
C3553 C3549 1.385 . S
C3553 C3552 1.374 . S
C3554 C3551 1.499 . S
C3554 C3555 1.373 . S
C3554 C3556 1.389 . S
C3555 H3534 0.950 . S
C3555 C3554 1.373 . S
C3555 C3571 1.377 . S
C3556 C3554 1.389 . S
C3556 C3557 1.524 . S
C3556 C3570 1.377 . S
C3557 C3556 1.524 . S
C3557 C3558 1.397 . S
C3557 C3562 1.363 . S
C3558 H3535 0.950 . S
C3558 C3557 1.397 . S
C3558 C3559 1.334 . S
C3559 H3536 0.950 . S
C3559 C3558 1.334 . S
C3559 C3560 1.287 . S
C3560 C3559 1.287 . S
C3560 C3561 1.524 . S
C3560 H3579 0.913 . S
C3561 H3537 0.950 . S
C3561 C3560 1.524 . S
C3561 C3562 1.415 . S
C3562 H3538 0.950 . S
C3562 C3557 1.363 . S
C3562 C3561 1.415 . S
C3563 H3539 0.951 . S
C3563 C3564 1.366 . S
C3563 C3565 1.388 . S
C3564 C3563 1.366 . S
C3564 C3568 1.385 . S
C3565 H3540 0.951 . S
C3565 C3563 1.388 . S
C3565 C3566 1.366 . S
C3566 C3565 1.366 . S
C3566 C3567 1.414 . S
C3566 C3569 1.499 . S
C3567 H3541 0.950 . S
C3567 C3566 1.414 . S
C3567 C3568 1.374 . S
C3568 H3542 0.950 . S
C3568 C3564 1.385 . S
C3568 C3567 1.374 . S
C3569 C3566 1.499 . S
C3569 C3570 1.373 . S
C3569 C3571 1.389 . S
C3570 H3543 0.950 . S
C3570 C3556 1.377 . S
C3570 C3569 1.373 . S
C3571 C3555 1.377 . S
C3571 C3569 1.389 . S
C3571 C3572 1.524 . S
C3572 C3571 1.524 . S
C3572 C3573 1.397 . S
C3572 C3577 1.363 . S
C3573 H3544 0.950 . S
C3573 C3572 1.397 . S
C3573 C3574 1.334 . S
C3574 H3545 0.950 . S
C3574 C3573 1.334 . S
C3574 C3575 1.287 . S
C3575 C3574 1.287 . S
C3575 C3576 1.524 . S
C3575 H3578 0.999 . S
C3576 H3546 0.950 . S
C3576 C3575 1.524 . S
C3576 C3577 1.415 . S
C3577 H3547 0.950 . S
C3577 C3572 1.363 . S
C3577 C3576 1.415 . S
H3578 C3575 0.999 . S
H3579 C3560 0.913 . S
H3580 C3598 0.951 . S
H3581 C3600 0.951 . S
H3582 C3602 0.950 . S
H3583 C3603 0.950 . S
H3584 C3605 0.950 . S
H3585 C3608 0.950 . S
H3586 C3609 0.950 . S
H3587 C3611 0.950 . S
H3588 C3612 0.950 . S
H3589 C3613 0.951 . S
H3590 C3615 0.951 . S
H3591 C3617 0.950 . S
H3592 C3618 0.950 . S
H3593 C3620 0.950 . S
H3594 C3623 0.950 . S
H3595 C3624 0.950 . S
H3596 C3626 0.950 . S
H3597 C3627 0.950 . S
C3598 H3580 0.951 . S
C3598 C3599 1.366 . S
C3598 C3600 1.388 . S
C3599 C3598 1.366 . S
C3599 C3603 1.385 . S
C3600 H3581 0.951 . S
C3600 C3598 1.388 . S
C3600 C3601 1.366 . S
C3601 C3600 1.366 . S
C3601 C3602 1.414 . S
C3601 C3604 1.499 . S
C3602 H3582 0.950 . S
C3602 C3601 1.414 . S
C3602 C3603 1.374 . S
C3603 H3583 0.950 . S
C3603 C3599 1.385 . S
C3603 C3602 1.374 . S
C3604 C3601 1.499 . S
C3604 C3605 1.373 . S
C3604 C3606 1.389 . S
C3605 H3584 0.950 . S
C3605 C3604 1.373 . S
C3605 C3621 1.377 . S
C3606 C3604 1.389 . S
C3606 C3607 1.524 . S
C3606 C3620 1.377 . S
C3607 C3606 1.524 . S
C3607 C3608 1.397 . S
C3607 C3612 1.363 . S
C3608 H3585 0.950 . S
C3608 C3607 1.397 . S
C3608 C3609 1.334 . S
C3609 H3586 0.950 . S
C3609 C3608 1.334 . S
C3609 C3610 1.287 . S
C3610 C3609 1.287 . S
C3610 C3611 1.524 . S
C3610 H3629 0.913 . S
C3611 H3587 0.950 . S
C3611 C3610 1.524 . S
C3611 C3612 1.415 . S
C3612 H3588 0.950 . S
C3612 C3607 1.363 . S
C3612 C3611 1.415 . S
C3613 H3589 0.951 . S
C3613 C3614 1.366 . S
C3613 C3615 1.388 . S
C3614 C3613 1.366 . S
C3614 C3618 1.385 . S
C3615 H3590 0.951 . S
C3615 C3613 1.388 . S
C3615 C3616 1.366 . S
C3616 C3615 1.366 . S
C3616 C3617 1.414 . S
C3616 C3619 1.499 . S
C3617 H3591 0.950 . S
C3617 C3616 1.414 . S
C3617 C3618 1.374 . S
C3618 H3592 0.950 . S
C3618 C3614 1.385 . S
C3618 C3617 1.374 . S
C3619 C3616 1.499 . S
C3619 C3620 1.373 . S
C3619 C3621 1.389 . S
C3620 H3593 0.950 . S
C3620 C3606 1.377 . S
C3620 C3619 1.373 . S
C3621 C3605 1.377 . S
C3621 C3619 1.389 . S
C3621 C3622 1.524 . S
C3622 C3621 1.524 . S
C3622 C3623 1.397 . S
C3622 C3627 1.363 . S
C3623 H3594 0.950 . S
C3623 C3622 1.397 . S
C3623 C3624 1.334 . S
C3624 H3595 0.950 . S
C3624 C3623 1.334 . S
C3624 C3625 1.287 . S
C3625 C3624 1.287 . S
C3625 C3626 1.524 . S
C3625 H3628 0.999 . S
C3626 H3596 0.950 . S
C3626 C3625 1.524 . S
C3626 C3627 1.415 . S
C3627 H3597 0.950 . S
C3627 C3622 1.363 . S
C3627 C3626 1.415 . S
H3628 C3625 0.999 . S
H3629 C3610 0.913 . S
H3630 C3648 0.951 . S
H3631 C3650 0.951 . S
H3632 C3652 0.950 . S
H3633 C3653 0.950 . S
H3634 C3655 0.950 . S
H3635 C3658 0.950 . S
H3636 C3659 0.950 . S
H3637 C3661 0.950 . S
H3638 C3662 0.950 . S
H3639 C3663 0.951 . S
H3640 C3665 0.951 . S
H3641 C3667 0.950 . S
H3642 C3668 0.950 . S
H3643 C3670 0.950 . S
H3644 C3673 0.950 . S
H3645 C3674 0.950 . S
H3646 C3676 0.950 . S
H3647 C3677 0.950 . S
C3648 H3630 0.951 . S
C3648 C3649 1.366 . S
C3648 C3650 1.388 . S
C3649 C3648 1.366 . S
C3649 C3653 1.385 . S
C3650 H3631 0.951 . S
C3650 C3648 1.388 . S
C3650 C3651 1.366 . S
C3651 C3650 1.366 . S
C3651 C3652 1.414 . S
C3651 C3654 1.499 . S
C3652 H3632 0.950 . S
C3652 C3651 1.414 . S
C3652 C3653 1.374 . S
C3653 H3633 0.950 . S
C3653 C3649 1.385 . S
C3653 C3652 1.374 . S
C3654 C3651 1.499 . S
C3654 C3655 1.373 . S
C3654 C3656 1.389 . S
C3655 H3634 0.950 . S
C3655 C3654 1.373 . S
C3655 C3671 1.377 . S
C3656 C3654 1.389 . S
C3656 C3657 1.524 . S
C3656 C3670 1.377 . S
C3657 C3656 1.524 . S
C3657 C3658 1.397 . S
C3657 C3662 1.363 . S
C3658 H3635 0.950 . S
C3658 C3657 1.397 . S
C3658 C3659 1.334 . S
C3659 H3636 0.950 . S
C3659 C3658 1.334 . S
C3659 C3660 1.287 . S
C3660 C3659 1.287 . S
C3660 C3661 1.524 . S
C3660 H3679 0.913 . S
C3661 H3637 0.950 . S
C3661 C3660 1.524 . S
C3661 C3662 1.415 . S
C3662 H3638 0.950 . S
C3662 C3657 1.363 . S
C3662 C3661 1.415 . S
C3663 H3639 0.951 . S
C3663 C3664 1.366 . S
C3663 C3665 1.388 . S
C3664 C3663 1.366 . S
C3664 C3668 1.385 . S
C3665 H3640 0.951 . S
C3665 C3663 1.388 . S
C3665 C3666 1.366 . S
C3666 C3665 1.366 . S
C3666 C3667 1.414 . S
C3666 C3669 1.499 . S
C3667 H3641 0.950 . S
C3667 C3666 1.414 . S
C3667 C3668 1.374 . S
C3668 H3642 0.950 . S
C3668 C3664 1.385 . S
C3668 C3667 1.374 . S
C3669 C3666 1.499 . S
C3669 C3670 1.373 . S
C3669 C3671 1.389 . S
C3670 H3643 0.950 . S
C3670 C3656 1.377 . S
C3670 C3669 1.373 . S
C3671 C3655 1.377 . S
C3671 C3669 1.389 . S
C3671 C3672 1.524 . S
C3672 C3671 1.524 . S
C3672 C3673 1.397 . S
C3672 C3677 1.363 . S
C3673 H3644 0.950 . S
C3673 C3672 1.397 . S
C3673 C3674 1.334 . S
C3674 H3645 0.950 . S
C3674 C3673 1.334 . S
C3674 C3675 1.287 . S
C3675 C3674 1.287 . S
C3675 C3676 1.524 . S
C3675 H3678 0.999 . S
C3676 H3646 0.950 . S
C3676 C3675 1.524 . S
C3676 C3677 1.415 . S
C3677 H3647 0.950 . S
C3677 C3672 1.363 . S
C3677 C3676 1.415 . S
H3678 C3675 0.999 . S
H3679 C3660 0.913 . S
H3680 C3698 0.951 . S
H3681 C3700 0.951 . S
H3682 C3702 0.950 . S
H3683 C3703 0.950 . S
H3684 C3705 0.950 . S
H3685 C3708 0.950 . S
H3686 C3709 0.950 . S
H3687 C3711 0.950 . S
H3688 C3712 0.950 . S
H3689 C3713 0.951 . S
H3690 C3715 0.951 . S
H3691 C3717 0.950 . S
H3692 C3718 0.950 . S
H3693 C3720 0.950 . S
H3694 C3723 0.950 . S
H3695 C3724 0.950 . S
H3696 C3726 0.950 . S
H3697 C3727 0.950 . S
C3698 H3680 0.951 . S
C3698 C3699 1.366 . S
C3698 C3700 1.388 . S
C3699 C3698 1.366 . S
C3699 C3703 1.385 . S
C3700 H3681 0.951 . S
C3700 C3698 1.388 . S
C3700 C3701 1.366 . S
C3701 C3700 1.366 . S
C3701 C3702 1.414 . S
C3701 C3704 1.499 . S
C3702 H3682 0.950 . S
C3702 C3701 1.414 . S
C3702 C3703 1.374 . S
C3703 H3683 0.950 . S
C3703 C3699 1.385 . S
C3703 C3702 1.374 . S
C3704 C3701 1.499 . S
C3704 C3705 1.373 . S
C3704 C3706 1.389 . S
C3705 H3684 0.950 . S
C3705 C3704 1.373 . S
C3705 C3721 1.377 . S
C3706 C3704 1.389 . S
C3706 C3707 1.524 . S
C3706 C3720 1.377 . S
C3707 C3706 1.524 . S
C3707 C3708 1.397 . S
C3707 C3712 1.363 . S
C3708 H3685 0.950 . S
C3708 C3707 1.397 . S
C3708 C3709 1.334 . S
C3709 H3686 0.950 . S
C3709 C3708 1.334 . S
C3709 C3710 1.287 . S
C3710 C3709 1.287 . S
C3710 C3711 1.524 . S
C3710 H3729 0.913 . S
C3711 H3687 0.950 . S
C3711 C3710 1.524 . S
C3711 C3712 1.415 . S
C3712 H3688 0.950 . S
C3712 C3707 1.363 . S
C3712 C3711 1.415 . S
C3713 H3689 0.951 . S
C3713 C3714 1.366 . S
C3713 C3715 1.388 . S
C3714 C3713 1.366 . S
C3714 C3718 1.385 . S
C3715 H3690 0.951 . S
C3715 C3713 1.388 . S
C3715 C3716 1.366 . S
C3716 C3715 1.366 . S
C3716 C3717 1.414 . S
C3716 C3719 1.499 . S
C3717 H3691 0.950 . S
C3717 C3716 1.414 . S
C3717 C3718 1.374 . S
C3718 H3692 0.950 . S
C3718 C3714 1.385 . S
C3718 C3717 1.374 . S
C3719 C3716 1.499 . S
C3719 C3720 1.373 . S
C3719 C3721 1.389 . S
C3720 H3693 0.950 . S
C3720 C3706 1.377 . S
C3720 C3719 1.373 . S
C3721 C3705 1.377 . S
C3721 C3719 1.389 . S
C3721 C3722 1.524 1_554 S
C3722 C3721 1.524 1_556 S
C3722 C3723 1.397 . S
C3722 C3727 1.363 1_556 S
C3723 H3694 0.950 . S
C3723 C3722 1.397 . S
C3723 C3724 1.334 . S
C3724 H3695 0.950 . S
C3724 C3723 1.334 . S
C3724 C3725 1.287 . S
C3725 C3724 1.287 . S
C3725 C3726 1.524 . S
C3725 H3728 0.999 . S
C3726 H3696 0.950 . S
C3726 C3725 1.524 . S
C3726 C3727 1.415 1_556 S
C3727 H3697 0.950 . S
C3727 C3722 1.363 1_554 S
C3727 C3726 1.415 1_554 S
H3728 C3725 0.999 . S
H3729 C3710 0.913 . S
H3730 C3748 0.951 . S
H3731 C3750 0.951 . S
H3732 C3752 0.950 . S
H3733 C3753 0.950 . S
H3734 C3755 0.950 . S
H3735 C3758 0.949 . S
H3736 C3759 0.950 . S
H3737 C3761 0.950 . S
H3738 C3762 0.950 . S
H3739 C3763 0.951 . S
H3740 C3765 0.951 . S
H3741 C3767 0.950 . S
H3742 C3768 0.950 . S
H3743 C3770 0.950 . S
H3744 C3773 0.950 . S
H3745 C3774 0.950 . S
H3746 C3776 0.950 . S
H3747 C3777 0.950 . S
C3748 H3730 0.951 . S
C3748 C3749 1.366 . S
C3748 C3750 1.388 . S
C3749 C3748 1.366 . S
C3749 C3753 1.385 . S
C3750 H3731 0.951 . S
C3750 C3748 1.388 . S
C3750 C3751 1.366 . S
C3751 C3750 1.366 . S
C3751 C3752 1.414 . S
C3751 C3754 1.499 . S
C3752 H3732 0.950 . S
C3752 C3751 1.414 . S
C3752 C3753 1.374 . S
C3753 H3733 0.950 . S
C3753 C3749 1.385 . S
C3753 C3752 1.374 . S
C3754 C3751 1.499 . S
C3754 C3755 1.373 . S
C3754 C3756 1.389 . S
C3755 H3734 0.950 . S
C3755 C3754 1.373 . S
C3755 C3771 1.377 . S
C3756 C3754 1.389 . S
C3756 C3757 1.524 . S
C3756 C3770 1.377 . S
C3757 C3756 1.524 . S
C3757 C3758 1.397 . S
C3757 C3762 1.363 . S
C3758 H3735 0.949 . S
C3758 C3757 1.397 . S
C3758 C3759 1.334 1_554 S
C3759 H3736 0.950 . S
C3759 C3758 1.334 1_556 S
C3759 C3760 1.288 . S
C3760 C3759 1.288 . S
C3760 C3761 1.514 1_556 S
C3760 H3779 0.921 . S
C3761 H3737 0.950 . S
C3761 C3760 1.514 1_554 S
C3761 C3762 1.415 . S
C3762 H3738 0.950 . S
C3762 C3757 1.363 . S
C3762 C3761 1.415 . S
C3763 H3739 0.951 . S
C3763 C3764 1.366 . S
C3763 C3765 1.388 . S
C3764 C3763 1.366 . S
C3764 C3768 1.385 . S
C3765 H3740 0.951 . S
C3765 C3763 1.388 . S
C3765 C3766 1.366 . S
C3766 C3765 1.366 . S
C3766 C3767 1.414 . S
C3766 C3769 1.499 . S
C3767 H3741 0.950 . S
C3767 C3766 1.414 . S
C3767 C3768 1.374 . S
C3768 H3742 0.950 . S
C3768 C3764 1.385 . S
C3768 C3767 1.374 . S
C3769 C3766 1.499 . S
C3769 C3770 1.373 . S
C3769 C3771 1.389 . S
C3770 H3743 0.950 . S
C3770 C3756 1.377 . S
C3770 C3769 1.373 . S
C3771 C3755 1.377 . S
C3771 C3769 1.389 . S
C3771 C3772 1.524 . S
C3772 C3771 1.524 . S
C3772 C3773 1.397 . S
C3772 C3777 1.363 . S
C3773 H3744 0.950 . S
C3773 C3772 1.397 . S
C3773 C3774 1.334 . S
C3774 H3745 0.950 . S
C3774 C3773 1.334 . S
C3774 C3775 1.287 . S
C3775 C3774 1.287 . S
C3775 C3776 1.524 . S
C3775 H3778 0.999 . S
C3776 H3746 0.950 . S
C3776 C3775 1.524 . S
C3776 C3777 1.415 . S
C3777 H3747 0.950 . S
C3777 C3772 1.363 . S
C3777 C3776 1.415 . S
H3778 C3775 0.999 . S
H3779 C3760 0.921 . S
H3780 C3798 0.951 . S
H3781 C3800 0.951 . S
H3782 C3802 0.950 . S
H3783 C3803 0.950 . S
H3784 C3805 0.950 . S
H3785 C3808 0.950 . S
H3786 C3809 0.950 . S
H3787 C3811 0.950 . S
H3788 C3812 0.950 . S
H3789 C3813 0.951 . S
H3790 C3815 0.951 . S
H3791 C3817 0.950 . S
H3792 C3818 0.950 . S
H3793 C3820 0.950 . S
H3794 C3823 0.950 . S
H3795 C3824 0.950 . S
H3796 C3826 0.950 . S
H3797 C3827 0.950 . S
C3798 H3780 0.951 . S
C3798 C3799 1.366 . S
C3798 C3800 1.388 . S
C3799 C3798 1.366 . S
C3799 C3803 1.385 . S
C3800 H3781 0.951 . S
C3800 C3798 1.388 . S
C3800 C3801 1.366 . S
C3801 C3800 1.366 . S
C3801 C3802 1.414 . S
C3801 C3804 1.499 . S
C3802 H3782 0.950 . S
C3802 C3801 1.414 . S
C3802 C3803 1.374 . S
C3803 H3783 0.950 . S
C3803 C3799 1.385 . S
C3803 C3802 1.374 . S
C3804 C3801 1.499 . S
C3804 C3805 1.373 . S
C3804 C3806 1.389 . S
C3805 H3784 0.950 . S
C3805 C3804 1.373 . S
C3805 C3821 1.377 . S
C3806 C3804 1.389 . S
C3806 C3807 1.524 . S
C3806 C3820 1.377 . S
C3807 C3806 1.524 . S
C3807 C3808 1.397 . S
C3807 C3812 1.363 . S
C3808 H3785 0.950 . S
C3808 C3807 1.397 . S
C3808 C3809 1.334 . S
C3809 H3786 0.950 . S
C3809 C3808 1.334 . S
C3809 C3810 1.287 . S
C3810 C3809 1.287 . S
C3810 C3811 1.524 . S
C3810 H3829 0.913 . S
C3811 H3787 0.950 . S
C3811 C3810 1.524 . S
C3811 C3812 1.415 . S
C3812 H3788 0.950 . S
C3812 C3807 1.363 . S
C3812 C3811 1.415 . S
C3813 H3789 0.951 . S
C3813 C3814 1.366 . S
C3813 C3815 1.388 . S
C3814 C3813 1.366 . S
C3814 C3818 1.385 . S
C3815 H3790 0.951 . S
C3815 C3813 1.388 . S
C3815 C3816 1.366 . S
C3816 C3815 1.366 . S
C3816 C3817 1.414 . S
C3816 C3819 1.499 . S
C3817 H3791 0.950 . S
C3817 C3816 1.414 . S
C3817 C3818 1.374 . S
C3818 H3792 0.950 . S
C3818 C3814 1.385 . S
C3818 C3817 1.374 . S
C3819 C3816 1.499 . S
C3819 C3820 1.373 . S
C3819 C3821 1.389 . S
C3820 H3793 0.950 . S
C3820 C3806 1.377 . S
C3820 C3819 1.373 . S
C3821 C3805 1.377 . S
C3821 C3819 1.389 . S
C3821 C3822 1.524 . S
C3822 C3821 1.524 . S
C3822 C3823 1.397 . S
C3822 C3827 1.363 . S
C3823 H3794 0.950 . S
C3823 C3822 1.397 . S
C3823 C3824 1.334 . S
C3824 H3795 0.950 . S
C3824 C3823 1.334 . S
C3824 C3825 1.287 . S
C3825 C3824 1.287 . S
C3825 C3826 1.524 . S
C3825 H3828 0.999 . S
C3826 H3796 0.950 . S
C3826 C3825 1.524 . S
C3826 C3827 1.415 . S
C3827 H3797 0.950 . S
C3827 C3822 1.363 . S
C3827 C3826 1.415 . S
H3828 C3825 0.999 . S
H3829 C3810 0.913 . S
H3830 C3848 0.951 . S
H3831 C3850 0.951 . S
H3832 C3852 0.950 . S
H3833 C3853 0.950 . S
H3834 C3855 0.950 . S
H3835 C3858 0.950 . S
H3836 C3859 0.950 . S
H3837 C3861 0.950 . S
H3838 C3862 0.950 . S
H3839 C3863 0.951 . S
H3840 C3865 0.951 . S
H3841 C3867 0.950 . S
H3842 C3868 0.950 . S
H3843 C3870 0.950 . S
H3844 C3873 0.950 . S
H3845 C3874 0.950 . S
H3846 C3876 0.950 . S
H3847 C3877 0.950 . S
C3848 H3830 0.951 . S
C3848 C3849 1.366 . S
C3848 C3850 1.388 . S
C3849 C3848 1.366 . S
C3849 C3853 1.385 . S
C3850 H3831 0.951 . S
C3850 C3848 1.388 . S
C3850 C3851 1.366 . S
C3851 C3850 1.366 . S
C3851 C3852 1.414 . S
C3851 C3854 1.499 . S
C3852 H3832 0.950 . S
C3852 C3851 1.414 . S
C3852 C3853 1.374 . S
C3853 H3833 0.950 . S
C3853 C3849 1.385 . S
C3853 C3852 1.374 . S
C3854 C3851 1.499 . S
C3854 C3855 1.373 . S
C3854 C3856 1.389 . S
C3855 H3834 0.950 . S
C3855 C3854 1.373 . S
C3855 C3871 1.377 . S
C3856 C3854 1.389 . S
C3856 C3857 1.524 . S
C3856 C3870 1.377 . S
C3857 C3856 1.524 . S
C3857 C3858 1.397 . S
C3857 C3862 1.363 . S
C3858 H3835 0.950 . S
C3858 C3857 1.397 . S
C3858 C3859 1.334 . S
C3859 H3836 0.950 . S
C3859 C3858 1.334 . S
C3859 C3860 1.287 . S
C3860 C3859 1.287 . S
C3860 C3861 1.524 . S
C3860 H3879 0.913 . S
C3861 H3837 0.950 . S
C3861 C3860 1.524 . S
C3861 C3862 1.415 . S
C3862 H3838 0.950 . S
C3862 C3857 1.363 . S
C3862 C3861 1.415 . S
C3863 H3839 0.951 . S
C3863 C3864 1.366 . S
C3863 C3865 1.388 . S
C3864 C3863 1.366 . S
C3864 C3868 1.385 . S
C3865 H3840 0.951 . S
C3865 C3863 1.388 . S
C3865 C3866 1.366 . S
C3866 C3865 1.366 . S
C3866 C3867 1.414 . S
C3866 C3869 1.499 . S
C3867 H3841 0.950 . S
C3867 C3866 1.414 . S
C3867 C3868 1.374 . S
C3868 H3842 0.950 . S
C3868 C3864 1.385 . S
C3868 C3867 1.374 . S
C3869 C3866 1.499 . S
C3869 C3870 1.373 . S
C3869 C3871 1.389 . S
C3870 H3843 0.950 . S
C3870 C3856 1.377 . S
C3870 C3869 1.373 . S
C3871 C3855 1.377 . S
C3871 C3869 1.389 . S
C3871 C3872 1.524 . S
C3872 C3871 1.524 . S
C3872 C3873 1.397 . S
C3872 C3877 1.363 . S
C3873 H3844 0.950 . S
C3873 C3872 1.397 . S
C3873 C3874 1.334 . S
C3874 H3845 0.950 . S
C3874 C3873 1.334 . S
C3874 C3875 1.287 . S
C3875 C3874 1.287 . S
C3875 C3876 1.524 . S
C3875 H3878 0.999 . S
C3876 H3846 0.950 . S
C3876 C3875 1.524 . S
C3876 C3877 1.415 . S
C3877 H3847 0.950 . S
C3877 C3872 1.363 . S
C3877 C3876 1.415 . S
H3878 C3875 0.999 . S
H3879 C3860 0.913 . S
H3880 C3898 0.951 . S
H3881 C3900 0.951 . S
H3882 C3902 0.950 . S
H3883 C3903 0.950 . S
H3884 C3905 0.950 . S
H3885 C3908 0.950 . S
H3886 C3909 0.950 . S
H3887 C3911 0.950 . S
H3888 C3912 0.950 . S
H3889 C3913 0.951 . S
H3890 C3915 0.951 . S
H3891 C3917 0.950 . S
H3892 C3918 0.950 . S
H3893 C3920 0.950 . S
H3894 C3923 0.950 . S
H3895 C3924 0.950 . S
H3896 C3926 0.950 . S
H3897 C3927 0.950 . S
C3898 H3880 0.951 . S
C3898 C3899 1.366 . S
C3898 C3900 1.388 1_545 S
C3899 C3898 1.366 . S
C3899 C3903 1.385 1_545 S
C3900 H3881 0.951 . S
C3900 C3898 1.388 1_565 S
C3900 C3901 1.366 . S
C3901 C3900 1.366 . S
C3901 C3902 1.414 . S
C3901 C3904 1.499 . S
C3902 H3882 0.950 . S
C3902 C3901 1.414 . S
C3902 C3903 1.374 . S
C3903 H3883 0.950 . S
C3903 C3899 1.385 1_565 S
C3903 C3902 1.374 . S
C3904 C3901 1.499 . S
C3904 C3905 1.373 . S
C3904 C3906 1.389 . S
C3905 H3884 0.950 . S
C3905 C3904 1.373 . S
C3905 C3921 1.377 . S
C3906 C3904 1.389 . S
C3906 C3907 1.524 . S
C3906 C3920 1.377 . S
C3907 C3906 1.524 . S
C3907 C3908 1.397 . S
C3907 C3912 1.363 . S
C3908 H3885 0.950 . S
C3908 C3907 1.397 . S
C3908 C3909 1.334 . S
C3909 H3886 0.950 . S
C3909 C3908 1.334 . S
C3909 C3910 1.287 . S
C3910 C3909 1.287 . S
C3910 C3911 1.524 . S
C3910 H3929 0.913 . S
C3911 H3887 0.950 . S
C3911 C3910 1.524 . S
C3911 C3912 1.415 . S
C3912 H3888 0.950 . S
C3912 C3907 1.363 . S
C3912 C3911 1.415 . S
C3913 H3889 0.951 . S
C3913 C3914 1.366 . S
C3913 C3915 1.388 . S
C3914 C3913 1.366 . S
C3914 C3918 1.385 . S
C3915 H3890 0.951 . S
C3915 C3913 1.388 . S
C3915 C3916 1.366 . S
C3916 C3915 1.366 . S
C3916 C3917 1.414 . S
C3916 C3919 1.499 . S
C3917 H3891 0.950 . S
C3917 C3916 1.414 . S
C3917 C3918 1.374 . S
C3918 H3892 0.950 . S
C3918 C3914 1.385 . S
C3918 C3917 1.374 . S
C3919 C3916 1.499 . S
C3919 C3920 1.373 . S
C3919 C3921 1.389 . S
C3920 H3893 0.950 . S
C3920 C3906 1.377 . S
C3920 C3919 1.373 . S
C3921 C3905 1.377 . S
C3921 C3919 1.389 . S
C3921 C3922 1.524 . S
C3922 C3921 1.524 . S
C3922 C3923 1.397 . S
C3922 C3927 1.363 . S
C3923 H3894 0.950 . S
C3923 C3922 1.397 . S
C3923 C3924 1.334 . S
C3924 H3895 0.950 . S
C3924 C3923 1.334 . S
C3924 C3925 1.287 . S
C3925 C3924 1.287 . S
C3925 C3926 1.524 . S
C3925 H3928 0.999 . S
C3926 H3896 0.950 . S
C3926 C3925 1.524 . S
C3926 C3927 1.415 . S
C3927 H3897 0.950 . S
C3927 C3922 1.363 . S
C3927 C3926 1.415 . S
H3928 C3925 0.999 . S
H3929 C3910 0.913 . S
H3930 C3948 0.951 . S
H3931 C3950 0.951 . S
H3932 C3952 0.950 . S
H3933 C3953 0.950 . S
H3934 C3955 0.950 . S
H3935 C3958 0.950 . S
H3936 C3959 0.950 . S
H3937 C3961 0.950 . S
H3938 C3962 0.950 . S
H3939 C3963 0.951 1_545 S
H3940 C3965 0.951 . S
H3941 C3967 0.950 . S
H3942 C3968 0.950 . S
H3943 C3970 0.950 . S
H3944 C3973 0.950 . S
H3945 C3974 0.950 . S
H3946 C3976 0.950 . S
H3947 C3977 0.950 . S
C3948 H3930 0.951 . S
C3948 C3949 1.366 . S
C3948 C3950 1.388 . S
C3949 C3948 1.366 . S
C3949 C3953 1.385 . S
C3950 H3931 0.951 . S
C3950 C3948 1.388 . S
C3950 C3951 1.366 . S
C3951 C3950 1.366 . S
C3951 C3952 1.414 . S
C3951 C3954 1.499 . S
C3952 H3932 0.950 . S
C3952 C3951 1.414 . S
C3952 C3953 1.374 . S
C3953 H3933 0.950 . S
C3953 C3949 1.385 . S
C3953 C3952 1.374 . S
C3954 C3951 1.499 . S
C3954 C3955 1.373 . S
C3954 C3956 1.389 . S
C3955 H3934 0.950 . S
C3955 C3954 1.373 . S
C3955 C3971 1.377 . S
C3956 C3954 1.389 . S
C3956 C3957 1.524 . S
C3956 C3970 1.377 . S
C3957 C3956 1.524 . S
C3957 C3958 1.397 . S
C3957 C3962 1.363 . S
C3958 H3935 0.950 . S
C3958 C3957 1.397 . S
C3958 C3959 1.334 . S
C3959 H3936 0.950 . S
C3959 C3958 1.334 . S
C3959 C3960 1.287 . S
C3960 C3959 1.287 . S
C3960 C3961 1.524 . S
C3960 H3979 0.913 . S
C3961 H3937 0.950 . S
C3961 C3960 1.524 . S
C3961 C3962 1.415 . S
C3962 H3938 0.950 . S
C3962 C3957 1.363 . S
C3962 C3961 1.415 . S
C3963 H3939 0.951 1_565 S
C3963 C3964 1.366 . S
C3963 C3965 1.388 . S
C3964 C3963 1.366 . S
C3964 C3968 1.385 . S
C3965 H3940 0.951 . S
C3965 C3963 1.388 . S
C3965 C3966 1.366 . S
C3966 C3965 1.366 . S
C3966 C3967 1.414 . S
C3966 C3969 1.499 . S
C3967 H3941 0.950 . S
C3967 C3966 1.414 . S
C3967 C3968 1.374 . S
C3968 H3942 0.950 . S
C3968 C3964 1.385 . S
C3968 C3967 1.374 . S
C3969 C3966 1.499 . S
C3969 C3970 1.373 . S
C3969 C3971 1.389 . S
C3970 H3943 0.950 . S
C3970 C3956 1.377 . S
C3970 C3969 1.373 . S
C3971 C3955 1.377 . S
C3971 C3969 1.389 . S
C3971 C3972 1.524 . S
C3972 C3971 1.524 . S
C3972 C3973 1.397 . S
C3972 C3977 1.363 . S
C3973 H3944 0.950 . S
C3973 C3972 1.397 . S
C3973 C3974 1.334 . S
C3974 H3945 0.950 . S
C3974 C3973 1.334 . S
C3974 C3975 1.287 . S
C3975 C3974 1.287 . S
C3975 C3976 1.524 . S
C3975 H3978 0.999 . S
C3976 H3946 0.950 . S
C3976 C3975 1.524 . S
C3976 C3977 1.415 . S
C3977 H3947 0.950 . S
C3977 C3972 1.363 . S
C3977 C3976 1.415 . S
H3978 C3975 0.999 . S
H3979 C3960 0.913 . S
H3980 C3998 0.951 . S
H3981 C4000 0.951 . S
H3982 C4002 0.950 . S
H3983 C4003 0.950 . S
H3984 C4005 0.950 . S
H3985 C4008 0.950 . S
H3986 C4009 0.950 . S
H3987 C4011 0.950 . S
H3988 C4012 0.950 . S
H3989 C4013 0.951 . S
H3990 C4015 0.951 . S
H3991 C4017 0.950 . S
H3992 C4018 0.950 . S
H3993 C4020 0.950 . S
H3994 C4023 0.950 . S
H3995 C4024 0.950 . S
H3996 C4026 0.950 . S
H3997 C4027 0.950 . S
C3998 H3980 0.951 . S
C3998 C3999 1.366 . S
C3998 C4000 1.388 . S
C3999 C3998 1.366 . S
C3999 C4003 1.385 . S
C4000 H3981 0.951 . S
C4000 C3998 1.388 . S
C4000 C4001 1.366 . S
C4001 C4000 1.366 . S
C4001 C4002 1.414 . S
C4001 C4004 1.499 . S
C4002 H3982 0.950 . S
C4002 C4001 1.414 . S
C4002 C4003 1.374 . S
C4003 H3983 0.950 . S
C4003 C3999 1.385 . S
C4003 C4002 1.374 . S
C4004 C4001 1.499 . S
C4004 C4005 1.373 . S
C4004 C4006 1.389 . S
C4005 H3984 0.950 . S
C4005 C4004 1.373 . S
C4005 C4021 1.377 . S
C4006 C4004 1.389 . S
C4006 C4007 1.524 . S
C4006 C4020 1.377 . S
C4007 C4006 1.524 . S
C4007 C4008 1.397 . S
C4007 C4012 1.363 . S
C4008 H3985 0.950 . S
C4008 C4007 1.397 . S
C4008 C4009 1.334 . S
C4009 H3986 0.950 . S
C4009 C4008 1.334 . S
C4009 C4010 1.287 . S
C4010 C4009 1.287 . S
C4010 C4011 1.524 . S
C4010 H4029 0.913 . S
C4011 H3987 0.950 . S
C4011 C4010 1.524 . S
C4011 C4012 1.415 . S
C4012 H3988 0.950 . S
C4012 C4007 1.363 . S
C4012 C4011 1.415 . S
C4013 H3989 0.951 . S
C4013 C4014 1.366 . S
C4013 C4015 1.388 . S
C4014 C4013 1.366 . S
C4014 C4018 1.385 . S
C4015 H3990 0.951 . S
C4015 C4013 1.388 . S
C4015 C4016 1.366 . S
C4016 C4015 1.366 . S
C4016 C4017 1.414 . S
C4016 C4019 1.499 . S
C4017 H3991 0.950 . S
C4017 C4016 1.414 . S
C4017 C4018 1.374 . S
C4018 H3992 0.950 . S
C4018 C4014 1.385 . S
C4018 C4017 1.374 . S
C4019 C4016 1.499 . S
C4019 C4020 1.373 . S
C4019 C4021 1.389 . S
C4020 H3993 0.950 . S
C4020 C4006 1.377 . S
C4020 C4019 1.373 . S
C4021 C4005 1.377 . S
C4021 C4019 1.389 . S
C4021 C4022 1.524 . S
C4022 C4021 1.524 . S
C4022 C4023 1.397 . S
C4022 C4027 1.363 . S
C4023 H3994 0.950 . S
C4023 C4022 1.397 . S
C4023 C4024 1.334 . S
C4024 H3995 0.950 . S
C4024 C4023 1.334 . S
C4024 C4025 1.287 . S
C4025 C4024 1.287 . S
C4025 C4026 1.524 . S
C4025 H4028 0.999 . S
C4026 H3996 0.950 . S
C4026 C4025 1.524 . S
C4026 C4027 1.415 . S
C4027 H3997 0.950 . S
C4027 C4022 1.363 . S
C4027 C4026 1.415 . S
H4028 C4025 0.999 . S
H4029 C4010 0.913 . S
H4030 C4048 0.951 . S
H4031 C4050 0.951 . S
H4032 C4052 0.950 . S
H4033 C4053 0.950 . S
H4034 C4055 0.950 . S
H4035 C4058 0.950 . S
H4036 C4059 0.950 . S
H4037 C4061 0.950 . S
H4038 C4062 0.950 . S
H4039 C4063 0.951 . S
H4040 C4065 0.951 . S
H4041 C4067 0.950 . S
H4042 C4068 0.950 . S
H4043 C4070 0.950 . S
H4044 C4073 0.950 . S
H4045 C4074 0.950 . S
H4046 C4076 0.950 . S
H4047 C4077 0.950 . S
C4048 H4030 0.951 . S
C4048 C4049 1.366 . S
C4048 C4050 1.388 . S
C4049 C4048 1.366 . S
C4049 C4053 1.385 . S
C4050 H4031 0.951 . S
C4050 C4048 1.388 . S
C4050 C4051 1.366 . S
C4051 C4050 1.366 . S
C4051 C4052 1.414 . S
C4051 C4054 1.499 . S
C4052 H4032 0.950 . S
C4052 C4051 1.414 . S
C4052 C4053 1.374 . S
C4053 H4033 0.950 . S
C4053 C4049 1.385 . S
C4053 C4052 1.374 . S
C4054 C4051 1.499 . S
C4054 C4055 1.373 . S
C4054 C4056 1.389 . S
C4055 H4034 0.950 . S
C4055 C4054 1.373 . S
C4055 C4071 1.377 . S
C4056 C4054 1.389 . S
C4056 C4057 1.524 . S
C4056 C4070 1.377 . S
C4057 C4056 1.524 . S
C4057 C4058 1.397 . S
C4057 C4062 1.363 . S
C4058 H4035 0.950 . S
C4058 C4057 1.397 . S
C4058 C4059 1.334 . S
C4059 H4036 0.950 . S
C4059 C4058 1.334 . S
C4059 C4060 1.287 . S
C4060 C4059 1.287 . S
C4060 C4061 1.524 . S
C4060 H4079 0.913 . S
C4061 H4037 0.950 . S
C4061 C4060 1.524 . S
C4061 C4062 1.415 . S
C4062 H4038 0.950 . S
C4062 C4057 1.363 . S
C4062 C4061 1.415 . S
C4063 H4039 0.951 . S
C4063 C4064 1.366 . S
C4063 C4065 1.388 . S
C4064 C4063 1.366 . S
C4064 C4068 1.385 . S
C4065 H4040 0.951 . S
C4065 C4063 1.388 . S
C4065 C4066 1.366 . S
C4066 C4065 1.366 . S
C4066 C4067 1.414 . S
C4066 C4069 1.499 . S
C4067 H4041 0.950 . S
C4067 C4066 1.414 . S
C4067 C4068 1.374 . S
C4068 H4042 0.950 . S
C4068 C4064 1.385 . S
C4068 C4067 1.374 . S
C4069 C4066 1.499 . S
C4069 C4070 1.373 . S
C4069 C4071 1.389 . S
C4070 H4043 0.950 . S
C4070 C4056 1.377 . S
C4070 C4069 1.373 . S
C4071 C4055 1.377 . S
C4071 C4069 1.389 . S
C4071 C4072 1.524 . S
C4072 C4071 1.524 . S
C4072 C4073 1.397 . S
C4072 C4077 1.363 . S
C4073 H4044 0.950 . S
C4073 C4072 1.397 . S
C4073 C4074 1.334 . S
C4074 H4045 0.950 . S
C4074 C4073 1.334 . S
C4074 C4075 1.287 . S
C4075 C4074 1.287 . S
C4075 C4076 1.524 . S
C4075 H4078 0.999 . S
C4076 H4046 0.950 . S
C4076 C4075 1.524 . S
C4076 C4077 1.415 . S
C4077 H4047 0.950 . S
C4077 C4072 1.363 . S
C4077 C4076 1.415 . S
H4078 C4075 0.999 . S
H4079 C4060 0.913 . S
H4080 C4098 0.951 . S
H4081 C4100 0.951 . S
H4082 C4102 0.950 . S
H4083 C4103 0.950 . S
H4084 C4105 0.950 . S
H4085 C4108 0.950 . S
H4086 C4109 0.950 . S
H4087 C4111 0.950 . S
H4088 C4112 0.950 . S
H4089 C4113 0.951 . S
H4090 C4115 0.951 . S
H4091 C4117 0.950 . S
H4092 C4118 0.950 . S
H4093 C4120 0.950 . S
H4094 C4123 0.950 . S
H4095 C4124 0.950 . S
H4096 C4126 0.950 . S
H4097 C4127 0.950 . S
C4098 H4080 0.951 . S
C4098 C4099 1.366 . S
C4098 C4100 1.388 . S
C4099 C4098 1.366 . S
C4099 C4103 1.385 . S
C4100 H4081 0.951 . S
C4100 C4098 1.388 . S
C4100 C4101 1.366 . S
C4101 C4100 1.366 . S
C4101 C4102 1.414 . S
C4101 C4104 1.499 . S
C4102 H4082 0.950 . S
C4102 C4101 1.414 . S
C4102 C4103 1.374 . S
C4103 H4083 0.950 . S
C4103 C4099 1.385 . S
C4103 C4102 1.374 . S
C4104 C4101 1.499 . S
C4104 C4105 1.373 . S
C4104 C4106 1.389 . S
C4105 H4084 0.950 . S
C4105 C4104 1.373 . S
C4105 C4121 1.377 . S
C4106 C4104 1.389 . S
C4106 C4107 1.524 . S
C4106 C4120 1.377 . S
C4107 C4106 1.524 . S
C4107 C4108 1.397 . S
C4107 C4112 1.363 . S
C4108 H4085 0.950 . S
C4108 C4107 1.397 . S
C4108 C4109 1.334 . S
C4109 H4086 0.950 . S
C4109 C4108 1.334 . S
C4109 C4110 1.287 . S
C4110 C4109 1.287 . S
C4110 C4111 1.524 . S
C4110 H4129 0.913 . S
C4111 H4087 0.950 . S
C4111 C4110 1.524 . S
C4111 C4112 1.415 . S
C4112 H4088 0.950 . S
C4112 C4107 1.363 . S
C4112 C4111 1.415 . S
C4113 H4089 0.951 . S
C4113 C4114 1.366 . S
C4113 C4115 1.388 . S
C4114 C4113 1.366 . S
C4114 C4118 1.385 . S
C4115 H4090 0.951 . S
C4115 C4113 1.388 . S
C4115 C4116 1.366 . S
C4116 C4115 1.366 . S
C4116 C4117 1.414 . S
C4116 C4119 1.499 . S
C4117 H4091 0.950 . S
C4117 C4116 1.414 . S
C4117 C4118 1.374 . S
C4118 H4092 0.950 . S
C4118 C4114 1.385 . S
C4118 C4117 1.374 . S
C4119 C4116 1.499 . S
C4119 C4120 1.373 . S
C4119 C4121 1.389 . S
C4120 H4093 0.950 . S
C4120 C4106 1.377 . S
C4120 C4119 1.373 . S
C4121 C4105 1.377 . S
C4121 C4119 1.389 . S
C4121 C4122 1.524 . S
C4122 C4121 1.524 . S
C4122 C4123 1.397 . S
C4122 C4127 1.363 . S
C4123 H4094 0.950 . S
C4123 C4122 1.397 . S
C4123 C4124 1.334 . S
C4124 H4095 0.950 . S
C4124 C4123 1.334 . S
C4124 C4125 1.287 . S
C4125 C4124 1.287 . S
C4125 C4126 1.524 . S
C4125 H4128 0.999 . S
C4126 H4096 0.950 . S
C4126 C4125 1.524 . S
C4126 C4127 1.415 . S
C4127 H4097 0.950 . S
C4127 C4122 1.363 . S
C4127 C4126 1.415 . S
H4128 C4125 0.999 . S
H4129 C4110 0.913 . S
H4130 C4148 0.951 . S
H4131 C4150 0.951 . S
H4132 C4152 0.950 . S
H4133 C4153 0.950 . S
H4134 C4155 0.950 . S
H4135 C4158 0.950 . S
H4136 C4159 0.950 . S
H4137 C4161 0.950 . S
H4138 C4162 0.950 . S
H4139 C4163 0.951 . S
H4140 C4165 0.951 . S
H4141 C4167 0.950 . S
H4142 C4168 0.950 . S
H4143 C4170 0.950 . S
H4144 C4173 0.950 . S
H4145 C4174 0.950 . S
H4146 C4176 0.950 . S
H4147 C4177 0.950 . S
C4148 H4130 0.951 . S
C4148 C4149 1.366 . S
C4148 C4150 1.388 . S
C4149 C4148 1.366 . S
C4149 C4153 1.385 . S
C4150 H4131 0.951 . S
C4150 C4148 1.388 . S
C4150 C4151 1.366 . S
C4151 C4150 1.366 . S
C4151 C4152 1.414 . S
C4151 C4154 1.499 . S
C4152 H4132 0.950 . S
C4152 C4151 1.414 . S
C4152 C4153 1.374 . S
C4153 H4133 0.950 . S
C4153 C4149 1.385 . S
C4153 C4152 1.374 . S
C4154 C4151 1.499 . S
C4154 C4155 1.373 . S
C4154 C4156 1.389 . S
C4155 H4134 0.950 . S
C4155 C4154 1.373 . S
C4155 C4171 1.377 . S
C4156 C4154 1.389 . S
C4156 C4157 1.524 . S
C4156 C4170 1.377 . S
C4157 C4156 1.524 . S
C4157 C4158 1.397 . S
C4157 C4162 1.363 . S
C4158 H4135 0.950 . S
C4158 C4157 1.397 . S
C4158 C4159 1.334 . S
C4159 H4136 0.950 . S
C4159 C4158 1.334 . S
C4159 C4160 1.287 . S
C4160 C4159 1.287 . S
C4160 C4161 1.524 . S
C4160 H4179 0.913 . S
C4161 H4137 0.950 . S
C4161 C4160 1.524 . S
C4161 C4162 1.415 . S
C4162 H4138 0.950 . S
C4162 C4157 1.363 . S
C4162 C4161 1.415 . S
C4163 H4139 0.951 . S
C4163 C4164 1.366 . S
C4163 C4165 1.388 . S
C4164 C4163 1.366 . S
C4164 C4168 1.385 . S
C4165 H4140 0.951 . S
C4165 C4163 1.388 . S
C4165 C4166 1.366 . S
C4166 C4165 1.366 . S
C4166 C4167 1.414 . S
C4166 C4169 1.499 . S
C4167 H4141 0.950 . S
C4167 C4166 1.414 . S
C4167 C4168 1.374 . S
C4168 H4142 0.950 . S
C4168 C4164 1.385 . S
C4168 C4167 1.374 . S
C4169 C4166 1.499 . S
C4169 C4170 1.373 . S
C4169 C4171 1.389 . S
C4170 H4143 0.950 . S
C4170 C4156 1.377 . S
C4170 C4169 1.373 . S
C4171 C4155 1.377 . S
C4171 C4169 1.389 . S
C4171 C4172 1.524 . S
C4172 C4171 1.524 . S
C4172 C4173 1.397 . S
C4172 C4177 1.363 . S
C4173 H4144 0.950 . S
C4173 C4172 1.397 . S
C4173 C4174 1.334 . S
C4174 H4145 0.950 . S
C4174 C4173 1.334 . S
C4174 C4175 1.287 . S
C4175 C4174 1.287 . S
C4175 C4176 1.524 . S
C4175 H4178 0.999 . S
C4176 H4146 0.950 . S
C4176 C4175 1.524 . S
C4176 C4177 1.415 . S
C4177 H4147 0.950 . S
C4177 C4172 1.363 . S
C4177 C4176 1.415 . S
H4178 C4175 0.999 . S
H4179 C4160 0.913 . S
H4180 C4198 0.951 . S
H4181 C4200 0.951 . S
H4182 C4202 0.950 1_554 S
H4183 C4203 0.950 . S
H4184 C4205 0.916 1_554 S
H4185 C4208 0.950 . S
H4186 C4209 0.950 . S
H4187 C4211 0.950 . S
H4188 C4212 0.950 . S
H4189 C4213 0.951 . S
H4190 C4215 0.951 . S
H4191 C4217 0.950 . S
H4192 C4218 0.950 . S
H4193 C4220 0.950 . S
H4194 C4223 0.950 1_556 S
H4195 C4224 0.950 . S
H4196 C4226 0.950 . S
H4197 C4227 0.950 . S
C4198 H4180 0.951 . S
C4198 C4199 1.366 . S
C4198 C4200 1.388 . S
C4199 C4198 1.366 . S
C4199 C4203 1.385 . S
C4200 H4181 0.951 . S
C4200 C4198 1.388 . S
C4200 C4201 1.366 . S
C4201 C4200 1.366 . S
C4201 C4202 1.414 . S
C4201 C4204 1.499 . S
C4202 H4182 0.950 1_556 S
C4202 C4201 1.414 . S
C4202 C4203 1.374 . S
C4203 H4183 0.950 . S
C4203 C4199 1.385 . S
C4203 C4202 1.374 . S
C4204 C4201 1.499 . S
C4204 C4205 1.373 . S
C4204 C4206 1.389 . S
C4205 H4184 0.916 1_556 S
C4205 C4204 1.373 . S
C4205 C4221 1.375 1_556 S
C4206 C4204 1.389 . S
C4206 C4207 1.524 . S
C4206 C4220 1.377 . S
C4207 C4206 1.524 . S
C4207 C4208 1.397 . S
C4207 C4212 1.363 . S
C4208 H4185 0.950 . S
C4208 C4207 1.397 . S
C4208 C4209 1.334 . S
C4209 H4186 0.950 . S
C4209 C4208 1.334 . S
C4209 C4210 1.287 . S
C4210 C4209 1.287 . S
C4210 C4211 1.524 . S
C4210 H4229 0.913 . S
C4211 H4187 0.950 . S
C4211 C4210 1.524 . S
C4211 C4212 1.415 . S
C4212 H4188 0.950 . S
C4212 C4207 1.363 . S
C4212 C4211 1.415 . S
C4213 H4189 0.951 . S
C4213 C4214 1.366 . S
C4213 C4215 1.388 . S
C4214 C4213 1.366 . S
C4214 C4218 1.385 1_554 S
C4215 H4190 0.951 . S
C4215 C4213 1.388 . S
C4215 C4216 1.358 1_554 S
C4216 C4215 1.358 1_556 S
C4216 C4217 1.421 . S
C4216 C4219 1.500 . S
C4217 H4191 0.950 . S
C4217 C4216 1.421 . S
C4217 C4218 1.374 . S
C4218 H4192 0.950 . S
C4218 C4214 1.385 1_556 S
C4218 C4217 1.374 . S
C4219 C4216 1.500 . S
C4219 C4220 1.373 . S
C4219 C4221 1.374 1_556 S
C4220 H4193 0.950 . S
C4220 C4206 1.377 . S
C4220 C4219 1.373 . S
C4221 C4205 1.375 1_554 S
C4221 C4219 1.374 1_554 S
C4221 C4222 1.542 . S
C4222 C4221 1.542 . S
C4222 C4223 1.397 1_455 S
C4222 C4227 1.363 . S
C4223 H4194 0.950 1_554 S
C4223 C4222 1.397 1_655 S
C4223 C4224 1.334 . S
C4224 H4195 0.950 . S
C4224 C4223 1.334 . S
C4224 C4225 1.287 . S
C4225 C4224 1.287 . S
C4225 C4226 1.524 . S
C4225 H4228 0.999 . S
C4226 H4196 0.950 . S
C4226 C4225 1.524 . S
C4226 C4227 1.415 1_655 S
C4227 H4197 0.950 . S
C4227 C4222 1.363 . S
C4227 C4226 1.415 1_455 S
H4228 C4225 0.999 . S
H4229 C4210 0.913 . S
H4230 C4248 0.951 . S
H4231 C4250 0.951 . S
H4232 C4252 0.950 . S
H4233 C4253 0.950 . S
H4234 C4255 0.950 . S
H4235 C4258 0.950 . S
H4236 C4259 0.950 . S
H4237 C4261 0.950 . S
H4238 C4262 0.950 . S
H4239 C4263 0.951 . S
H4240 C4265 0.951 . S
H4241 C4267 0.950 . S
H4242 C4268 0.950 . S
H4243 C4270 0.950 . S
H4244 C4273 0.950 . S
H4245 C4274 0.950 . S
H4246 C4276 0.950 . S
H4247 C4277 0.950 . S
C4248 H4230 0.951 . S
C4248 C4249 1.366 . S
C4248 C4250 1.388 . S
C4249 C4248 1.366 . S
C4249 C4253 1.385 . S
C4250 H4231 0.951 . S
C4250 C4248 1.388 . S
C4250 C4251 1.424 . S
C4251 C4250 1.424 . S
C4251 C4252 1.413 1_455 S
C4251 C4254 1.443 1_455 S
C4252 H4232 0.950 . S
C4252 C4251 1.413 1_655 S
C4252 C4253 1.374 1_655 S
C4253 H4233 0.950 . S
C4253 C4249 1.385 . S
C4253 C4252 1.374 1_455 S
C4254 C4251 1.443 1_655 S
C4254 C4255 1.373 . S
C4254 C4256 1.389 . S
C4255 H4234 0.950 . S
C4255 C4254 1.373 . S
C4255 C4271 1.377 . S
C4256 C4254 1.389 . S
C4256 C4257 1.524 . S
C4256 C4270 1.377 . S
C4257 C4256 1.524 . S
C4257 C4258 1.397 . S
C4257 C4262 1.363 . S
C4258 H4235 0.950 . S
C4258 C4257 1.397 . S
C4258 C4259 1.334 1_655 S
C4259 H4236 0.950 . S
C4259 C4258 1.334 1_455 S
C4259 C4260 1.287 . S
C4260 C4259 1.287 . S
C4260 C4261 1.524 . S
C4260 H4279 0.913 . S
C4261 H4237 0.950 . S
C4261 C4260 1.524 . S
C4261 C4262 1.415 1_455 S
C4262 H4238 0.950 . S
C4262 C4257 1.363 . S
C4262 C4261 1.415 1_655 S
C4263 H4239 0.951 . S
C4263 C4264 1.366 . S
C4263 C4265 1.388 . S
C4264 C4263 1.366 . S
C4264 C4268 1.385 . S
C4265 H4240 0.951 . S
C4265 C4263 1.388 . S
C4265 C4266 1.366 . S
C4266 C4265 1.366 . S
C4266 C4267 1.414 . S
C4266 C4269 1.499 . S
C4267 H4241 0.950 . S
C4267 C4266 1.414 . S
C4267 C4268 1.374 . S
C4268 H4242 0.950 . S
C4268 C4264 1.385 . S
C4268 C4267 1.374 . S
C4269 C4266 1.499 . S
C4269 C4270 1.373 . S
C4269 C4271 1.389 . S
C4270 H4243 0.950 . S
C4270 C4256 1.377 . S
C4270 C4269 1.373 . S
C4271 C4255 1.377 . S
C4271 C4269 1.389 . S
C4271 C4272 1.524 . S
C4272 C4271 1.524 . S
C4272 C4273 1.397 . S
C4272 C4277 1.363 . S
C4273 H4244 0.950 . S
C4273 C4272 1.397 . S
C4273 C4274 1.334 . S
C4274 H4245 0.950 . S
C4274 C4273 1.334 . S
C4274 C4275 1.287 . S
C4275 C4274 1.287 . S
C4275 C4276 1.524 . S
C4275 H4278 0.999 . S
C4276 H4246 0.950 . S
C4276 C4275 1.524 . S
C4276 C4277 1.415 . S
C4277 H4247 0.950 . S
C4277 C4272 1.363 . S
C4277 C4276 1.415 . S
H4278 C4275 0.999 . S
H4279 C4260 0.913 . S
H4280 C4298 0.951 . S
H4281 C4300 0.951 . S
H4282 C4302 0.950 . S
H4283 C4303 0.950 . S
H4284 C4305 0.950 . S
H4285 C4308 0.950 . S
H4286 C4309 0.950 . S
H4287 C4311 0.950 . S
H4288 C4312 0.950 . S
H4289 C4313 0.951 . S
H4290 C4315 0.951 . S
H4291 C4317 0.950 . S
H4292 C4318 0.950 . S
H4293 C4320 0.950 . S
H4294 C4323 0.950 . S
H4295 C4324 0.950 . S
H4296 C4326 0.950 . S
H4297 C4327 0.950 . S
C4298 H4280 0.951 . S
C4298 C4299 1.366 . S
C4298 C4300 1.388 . S
C4299 C4298 1.366 . S
C4299 C4303 1.385 . S
C4300 H4281 0.951 . S
C4300 C4298 1.388 . S
C4300 C4301 1.366 . S
C4301 C4300 1.366 . S
C4301 C4302 1.414 . S
C4301 C4304 1.499 . S
C4302 H4282 0.950 . S
C4302 C4301 1.414 . S
C4302 C4303 1.374 . S
C4303 H4283 0.950 . S
C4303 C4299 1.385 . S
C4303 C4302 1.374 . S
C4304 C4301 1.499 . S
C4304 C4305 1.373 . S
C4304 C4306 1.389 . S
C4305 H4284 0.950 . S
C4305 C4304 1.373 . S
C4305 C4321 1.377 . S
C4306 C4304 1.389 . S
C4306 C4307 1.524 . S
C4306 C4320 1.377 . S
C4307 C4306 1.524 . S
C4307 C4308 1.397 . S
C4307 C4312 1.363 . S
C4308 H4285 0.950 . S
C4308 C4307 1.397 . S
C4308 C4309 1.334 . S
C4309 H4286 0.950 . S
C4309 C4308 1.334 . S
C4309 C4310 1.287 . S
C4310 C4309 1.287 . S
C4310 C4311 1.524 . S
C4310 H4329 0.913 . S
C4311 H4287 0.950 . S
C4311 C4310 1.524 . S
C4311 C4312 1.415 . S
C4312 H4288 0.950 . S
C4312 C4307 1.363 . S
C4312 C4311 1.415 . S
C4313 H4289 0.951 . S
C4313 C4314 1.366 . S
C4313 C4315 1.388 . S
C4314 C4313 1.366 . S
C4314 C4318 1.385 . S
C4315 H4290 0.951 . S
C4315 C4313 1.388 . S
C4315 C4316 1.366 . S
C4316 C4315 1.366 . S
C4316 C4317 1.414 . S
C4316 C4319 1.499 . S
C4317 H4291 0.950 . S
C4317 C4316 1.414 . S
C4317 C4318 1.374 . S
C4318 H4292 0.950 . S
C4318 C4314 1.385 . S
C4318 C4317 1.374 . S
C4319 C4316 1.499 . S
C4319 C4320 1.373 . S
C4319 C4321 1.389 . S
C4320 H4293 0.950 . S
C4320 C4306 1.377 . S
C4320 C4319 1.373 . S
C4321 C4305 1.377 . S
C4321 C4319 1.389 . S
C4321 C4322 1.524 . S
C4322 C4321 1.524 . S
C4322 C4323 1.397 . S
C4322 C4327 1.363 . S
C4323 H4294 0.950 . S
C4323 C4322 1.397 . S
C4323 C4324 1.334 . S
C4324 H4295 0.950 . S
C4324 C4323 1.334 . S
C4324 C4325 1.287 . S
C4325 C4324 1.287 . S
C4325 C4326 1.524 . S
C4325 H4328 0.999 1_554 S
C4326 H4296 0.950 . S
C4326 C4325 1.524 . S
C4326 C4327 1.415 . S
C4327 H4297 0.950 . S
C4327 C4322 1.363 . S
C4327 C4326 1.415 . S
H4328 C4325 0.999 1_556 S
H4329 C4310 0.913 . S
H4330 C4348 0.951 . S
H4331 C4350 0.951 . S
H4332 C4352 0.950 . S
H4333 C4353 0.950 . S
H4334 C4355 0.950 . S
H4335 C4358 0.950 . S
H4336 C4359 0.950 . S
H4337 C4361 0.950 . S
H4338 C4362 0.950 . S
H4339 C4363 0.951 . S
H4340 C4365 0.951 . S
H4341 C4367 0.950 . S
H4342 C4368 0.950 . S
H4343 C4370 0.950 . S
H4344 C4373 0.950 . S
H4345 C4374 0.950 . S
H4346 C4376 0.950 . S
H4347 C4377 0.950 . S
C4348 H4330 0.951 . S
C4348 C4349 1.366 . S
C4348 C4350 1.388 . S
C4349 C4348 1.366 . S
C4349 C4353 1.385 . S
C4350 H4331 0.951 . S
C4350 C4348 1.388 . S
C4350 C4351 1.366 . S
C4351 C4350 1.366 . S
C4351 C4352 1.414 . S
C4351 C4354 1.499 . S
C4352 H4332 0.950 . S
C4352 C4351 1.414 . S
C4352 C4353 1.374 . S
C4353 H4333 0.950 . S
C4353 C4349 1.385 . S
C4353 C4352 1.374 . S
C4354 C4351 1.499 . S
C4354 C4355 1.373 1_455 S
C4354 C4356 1.389 . S
C4355 H4334 0.950 . S
C4355 C4354 1.373 1_655 S
C4355 C4371 1.377 . S
C4356 C4354 1.389 . S
C4356 C4357 1.524 . S
C4356 C4370 1.377 1_455 S
C4357 C4356 1.524 . S
C4357 C4358 1.397 . S
C4357 C4362 1.363 . S
C4358 H4335 0.950 . S
C4358 C4357 1.397 . S
C4358 C4359 1.334 . S
C4359 H4336 0.950 . S
C4359 C4358 1.334 . S
C4359 C4360 1.287 . S
C4360 C4359 1.287 . S
C4360 C4361 1.524 . S
C4360 H4379 0.913 . S
C4361 H4337 0.950 . S
C4361 C4360 1.524 . S
C4361 C4362 1.415 . S
C4362 H4338 0.950 . S
C4362 C4357 1.363 . S
C4362 C4361 1.415 . S
C4363 H4339 0.951 . S
C4363 C4364 1.366 . S
C4363 C4365 1.388 . S
C4364 C4363 1.366 . S
C4364 C4368 1.385 . S
C4365 H4340 0.951 . S
C4365 C4363 1.388 . S
C4365 C4366 1.366 . S
C4366 C4365 1.366 . S
C4366 C4367 1.414 . S
C4366 C4369 1.499 . S
C4367 H4341 0.950 . S
C4367 C4366 1.414 . S
C4367 C4368 1.374 . S
C4368 H4342 0.950 . S
C4368 C4364 1.385 . S
C4368 C4367 1.374 . S
C4369 C4366 1.499 . S
C4369 C4370 1.373 . S
C4369 C4371 1.389 . S
C4370 H4343 0.950 . S
C4370 C4356 1.377 1_655 S
C4370 C4369 1.373 . S
C4371 C4355 1.377 . S
C4371 C4369 1.389 . S
C4371 C4372 1.524 . S
C4372 C4371 1.524 . S
C4372 C4373 1.397 . S
C4372 C4377 1.363 . S
C4373 H4344 0.950 . S
C4373 C4372 1.397 . S
C4373 C4374 1.334 . S
C4374 H4345 0.950 . S
C4374 C4373 1.334 . S
C4374 C4375 1.287 . S
C4375 C4374 1.287 . S
C4375 C4376 1.524 . S
C4375 H4378 0.999 . S
C4376 H4346 0.950 . S
C4376 C4375 1.524 . S
C4376 C4377 1.415 . S
C4377 H4347 0.950 . S
C4377 C4372 1.363 . S
C4377 C4376 1.415 . S
H4378 C4375 0.999 . S
H4379 C4360 0.913 . S
H4380 C4398 0.951 . S
H4381 C4400 0.951 . S
H4382 C4402 0.950 . S
H4383 C4403 0.950 . S
H4384 C4405 0.950 . S
H4385 C4408 0.950 . S
H4386 C4409 0.950 . S
H4387 C4411 0.950 . S
H4388 C4412 0.950 . S
H4389 C4413 0.951 . S
H4390 C4415 0.951 1_655 S
H4391 C4417 0.950 . S
H4392 C4418 0.950 . S
H4393 C4420 0.950 . S
H4394 C4423 0.950 1_455 S
H4395 C4424 0.950 . S
H4396 C4426 0.950 . S
H4397 C4427 0.950 . S
C4398 H4380 0.951 . S
C4398 C4399 1.366 1_455 S
C4398 C4400 1.388 . S
C4399 C4398 1.366 1_655 S
C4399 C4403 1.385 . S
C4400 H4381 0.951 . S
C4400 C4398 1.388 . S
C4400 C4401 1.366 . S
C4401 C4400 1.366 . S
C4401 C4402 1.414 1_455 S
C4401 C4404 1.499 . S
C4402 H4382 0.950 . S
C4402 C4401 1.414 1_655 S
C4402 C4403 1.374 . S
C4403 H4383 0.950 . S
C4403 C4399 1.385 . S
C4403 C4402 1.374 . S
C4404 C4401 1.499 . S
C4404 C4405 1.373 1_455 S
C4404 C4406 1.389 . S
C4405 H4384 0.950 . S
C4405 C4404 1.373 1_655 S
C4405 C4421 1.376 . S
C4406 C4404 1.389 . S
C4406 C4407 1.524 . S
C4406 C4420 1.377 . S
C4407 C4406 1.524 . S
C4407 C4408 1.397 . S
C4407 C4412 1.363 . S
C4408 H4385 0.950 . S
C4408 C4407 1.397 . S
C4408 C4409 1.334 . S
C4409 H4386 0.950 . S
C4409 C4408 1.334 . S
C4409 C4410 1.287 . S
C4410 C4409 1.287 . S
C4410 C4411 1.524 . S
C4410 H4429 0.913 . S
C4411 H4387 0.950 . S
C4411 C4410 1.524 . S
C4411 C4412 1.415 . S
C4412 H4388 0.950 . S
C4412 C4407 1.363 . S
C4412 C4411 1.415 . S
C4413 H4389 0.951 . S
C4413 C4414 1.366 . S
C4413 C4415 1.388 . S
C4414 C4413 1.366 . S
C4414 C4418 1.385 . S
C4415 H4390 0.951 1_455 S
C4415 C4413 1.388 . S
C4415 C4416 1.366 . S
C4416 C4415 1.366 . S
C4416 C4417 1.414 . S
C4416 C4419 1.499 . S
C4417 H4391 0.950 . S
C4417 C4416 1.414 . S
C4417 C4418 1.374 . S
C4418 H4392 0.950 . S
C4418 C4414 1.385 . S
C4418 C4417 1.374 . S
C4419 C4416 1.499 . S
C4419 C4420 1.373 . S
C4419 C4421 1.390 1_455 S
C4420 H4393 0.950 . S
C4420 C4406 1.377 . S
C4420 C4419 1.373 . S
C4421 C4405 1.376 . S
C4421 C4419 1.390 1_655 S
C4421 C4422 1.524 . S
C4422 C4421 1.524 . S
C4422 C4423 1.397 . S
C4422 C4427 1.363 . S
C4423 H4394 0.950 1_655 S
C4423 C4422 1.397 . S
C4423 C4424 1.334 . S
C4424 H4395 0.950 . S
C4424 C4423 1.334 . S
C4424 C4425 1.287 . S
C4425 C4424 1.287 . S
C4425 C4426 1.524 . S
C4425 H4428 0.999 . S
C4426 H4396 0.950 . S
C4426 C4425 1.524 . S
C4426 C4427 1.415 . S
C4427 H4397 0.950 . S
C4427 C4422 1.363 . S
C4427 C4426 1.415 . S
H4428 C4425 0.999 . S
H4429 C4410 0.913 . S
H4430 C4448 0.951 . S
H4431 C4450 0.951 . S
H4432 C4452 0.950 . S
H4433 C4453 0.950 . S
H4434 C4455 0.950 . S
H4435 C4458 0.950 . S
H4436 C4459 0.950 . S
H4437 C4461 0.950 . S
H4438 C4462 0.950 . S
H4439 C4463 0.951 . S
H4440 C4465 0.951 . S
H4441 C4467 0.950 . S
H4442 C4468 0.950 . S
H4443 C4470 0.950 . S
H4444 C4473 0.950 . S
H4445 C4474 0.950 . S
H4446 C4476 0.950 . S
H4447 C4477 0.950 . S
C4448 H4430 0.951 . S
C4448 C4449 1.366 . S
C4448 C4450 1.388 . S
C4449 C4448 1.366 . S
C4449 C4453 1.385 . S
C4450 H4431 0.951 . S
C4450 C4448 1.388 . S
C4450 C4451 1.366 . S
C4451 C4450 1.366 . S
C4451 C4452 1.414 . S
C4451 C4454 1.499 . S
C4452 H4432 0.950 . S
C4452 C4451 1.414 . S
C4452 C4453 1.374 . S
C4453 H4433 0.950 . S
C4453 C4449 1.385 . S
C4453 C4452 1.374 . S
C4454 C4451 1.499 . S
C4454 C4455 1.373 . S
C4454 C4456 1.389 . S
C4455 H4434 0.950 . S
C4455 C4454 1.373 . S
C4455 C4471 1.377 . S
C4456 C4454 1.389 . S
C4456 C4457 1.524 . S
C4456 C4470 1.377 . S
C4457 C4456 1.524 . S
C4457 C4458 1.397 . S
C4457 C4462 1.363 . S
C4458 H4435 0.950 . S
C4458 C4457 1.397 . S
C4458 C4459 1.334 . S
C4459 H4436 0.950 . S
C4459 C4458 1.334 . S
C4459 C4460 1.287 . S
C4460 C4459 1.287 . S
C4460 C4461 1.524 . S
C4460 H4479 0.913 . S
C4461 H4437 0.950 . S
C4461 C4460 1.524 . S
C4461 C4462 1.415 . S
C4462 H4438 0.950 . S
C4462 C4457 1.363 . S
C4462 C4461 1.415 . S
C4463 H4439 0.951 . S
C4463 C4464 1.366 . S
C4463 C4465 1.388 . S
C4464 C4463 1.366 . S
C4464 C4468 1.385 . S
C4465 H4440 0.951 . S
C4465 C4463 1.388 . S
C4465 C4466 1.366 . S
C4466 C4465 1.366 . S
C4466 C4467 1.414 . S
C4466 C4469 1.499 . S
C4467 H4441 0.950 . S
C4467 C4466 1.414 . S
C4467 C4468 1.374 . S
C4468 H4442 0.950 . S
C4468 C4464 1.385 . S
C4468 C4467 1.374 . S
C4469 C4466 1.499 . S
C4469 C4470 1.373 . S
C4469 C4471 1.389 . S
C4470 H4443 0.950 . S
C4470 C4456 1.377 . S
C4470 C4469 1.373 . S
C4471 C4455 1.377 . S
C4471 C4469 1.389 . S
C4471 C4472 1.524 . S
C4472 C4471 1.524 . S
C4472 C4473 1.397 . S
C4472 C4477 1.363 . S
C4473 H4444 0.950 . S
C4473 C4472 1.397 . S
C4473 C4474 1.334 . S
C4474 H4445 0.950 . S
C4474 C4473 1.334 . S
C4474 C4475 1.287 . S
C4475 C4474 1.287 . S
C4475 C4476 1.524 . S
C4475 H4478 0.999 . S
C4476 H4446 0.950 . S
C4476 C4475 1.524 . S
C4476 C4477 1.415 . S
C4477 H4447 0.950 . S
C4477 C4472 1.363 . S
C4477 C4476 1.415 . S
H4478 C4475 0.999 . S
H4479 C4460 0.913 . S
H4480 C4498 0.951 . S
H4481 C4500 0.951 . S
H4482 C4502 0.950 . S
H4483 C4503 0.950 . S
H4484 C4505 0.950 . S
H4485 C4508 0.950 . S
H4486 C4509 0.950 . S
H4487 C4511 0.950 . S
H4488 C4512 0.950 . S
H4489 C4513 0.951 . S
H4490 C4515 0.951 . S
H4491 C4517 0.950 . S
H4492 C4518 0.950 . S
H4493 C4520 0.950 . S
H4494 C4523 0.950 . S
H4495 C4524 0.950 . S
H4496 C4526 0.950 . S
H4497 C4527 0.950 . S
C4498 H4480 0.951 . S
C4498 C4499 1.366 . S
C4498 C4500 1.388 . S
C4499 C4498 1.366 . S
C4499 C4503 1.385 . S
C4500 H4481 0.951 . S
C4500 C4498 1.388 . S
C4500 C4501 1.366 . S
C4501 C4500 1.366 . S
C4501 C4502 1.414 . S
C4501 C4504 1.499 . S
C4502 H4482 0.950 . S
C4502 C4501 1.414 . S
C4502 C4503 1.374 . S
C4503 H4483 0.950 . S
C4503 C4499 1.385 . S
C4503 C4502 1.374 . S
C4504 C4501 1.499 . S
C4504 C4505 1.373 . S
C4504 C4506 1.389 . S
C4505 H4484 0.950 . S
C4505 C4504 1.373 . S
C4505 C4521 1.377 . S
C4506 C4504 1.389 . S
C4506 C4507 1.524 . S
C4506 C4520 1.377 . S
C4507 C4506 1.524 . S
C4507 C4508 1.397 . S
C4507 C4512 1.363 . S
C4508 H4485 0.950 . S
C4508 C4507 1.397 . S
C4508 C4509 1.334 . S
C4509 H4486 0.950 . S
C4509 C4508 1.334 . S
C4509 C4510 1.287 . S
C4510 C4509 1.287 . S
C4510 C4511 1.524 . S
C4510 H4529 0.913 . S
C4511 H4487 0.950 . S
C4511 C4510 1.524 . S
C4511 C4512 1.415 . S
C4512 H4488 0.950 . S
C4512 C4507 1.363 . S
C4512 C4511 1.415 . S
C4513 H4489 0.951 . S
C4513 C4514 1.366 . S
C4513 C4515 1.388 . S
C4514 C4513 1.366 . S
C4514 C4518 1.385 . S
C4515 H4490 0.951 . S
C4515 C4513 1.388 . S
C4515 C4516 1.366 . S
C4516 C4515 1.366 . S
C4516 C4517 1.414 . S
C4516 C4519 1.499 . S
C4517 H4491 0.950 . S
C4517 C4516 1.414 . S
C4517 C4518 1.374 . S
C4518 H4492 0.950 . S
C4518 C4514 1.385 . S
C4518 C4517 1.374 . S
C4519 C4516 1.499 . S
C4519 C4520 1.373 . S
C4519 C4521 1.389 . S
C4520 H4493 0.950 . S
C4520 C4506 1.377 . S
C4520 C4519 1.373 . S
C4521 C4505 1.377 . S
C4521 C4519 1.389 . S
C4521 C4522 1.524 . S
C4522 C4521 1.524 . S
C4522 C4523 1.397 . S
C4522 C4527 1.363 . S
C4523 H4494 0.950 . S
C4523 C4522 1.397 . S
C4523 C4524 1.334 . S
C4524 H4495 0.950 . S
C4524 C4523 1.334 . S
C4524 C4525 1.287 . S
C4525 C4524 1.287 . S
C4525 C4526 1.524 . S
C4525 H4528 0.999 . S
C4526 H4496 0.950 . S
C4526 C4525 1.524 . S
C4526 C4527 1.415 . S
C4527 H4497 0.950 . S
C4527 C4522 1.363 . S
C4527 C4526 1.415 . S
H4528 C4525 0.999 . S
H4529 C4510 0.913 . S
H4530 C4548 0.951 1_554 S
H4531 C4550 0.951 . S
H4532 C4552 0.950 . S
H4533 C4553 0.950 . S
H4534 C4555 0.950 . S
H4535 C4558 0.950 . S
H4536 C4559 0.950 . S
H4537 C4561 0.950 . S
H4538 C4562 0.950 . S
H4539 C4563 0.951 . S
H4540 C4565 0.951 . S
H4541 C4567 0.950 . S
H4542 C4568 0.950 . S
H4543 C4570 0.950 . S
H4544 C4573 0.950 . S
H4545 C4574 0.950 . S
H4546 C4576 0.950 . S
H4547 C4577 0.950 . S
C4548 H4530 0.951 1_556 S
C4548 C4549 1.366 . S
C4548 C4550 1.388 . S
C4549 C4548 1.366 . S
C4549 C4553 1.385 . S
C4550 H4531 0.951 . S
C4550 C4548 1.388 . S
C4550 C4551 1.366 . S
C4551 C4550 1.366 . S
C4551 C4552 1.414 . S
C4551 C4554 1.499 . S
C4552 H4532 0.950 . S
C4552 C4551 1.414 . S
C4552 C4553 1.374 . S
C4553 H4533 0.950 . S
C4553 C4549 1.385 . S
C4553 C4552 1.374 . S
C4554 C4551 1.499 . S
C4554 C4555 1.373 . S
C4554 C4556 1.389 . S
C4555 H4534 0.950 . S
C4555 C4554 1.373 . S
C4555 C4571 1.377 . S
C4556 C4554 1.389 . S
C4556 C4557 1.524 . S
C4556 C4570 1.377 . S
C4557 C4556 1.524 . S
C4557 C4558 1.397 . S
C4557 C4562 1.363 . S
C4558 H4535 0.950 . S
C4558 C4557 1.397 . S
C4558 C4559 1.334 . S
C4559 H4536 0.950 . S
C4559 C4558 1.334 . S
C4559 C4560 1.287 . S
C4560 C4559 1.287 . S
C4560 C4561 1.524 . S
C4560 H4579 0.913 . S
C4561 H4537 0.950 . S
C4561 C4560 1.524 . S
C4561 C4562 1.415 . S
C4562 H4538 0.950 . S
C4562 C4557 1.363 . S
C4562 C4561 1.415 . S
C4563 H4539 0.951 . S
C4563 C4564 1.366 . S
C4563 C4565 1.388 . S
C4564 C4563 1.366 . S
C4564 C4568 1.385 . S
C4565 H4540 0.951 . S
C4565 C4563 1.388 . S
C4565 C4566 1.366 . S
C4566 C4565 1.366 . S
C4566 C4567 1.414 . S
C4566 C4569 1.499 . S
C4567 H4541 0.950 . S
C4567 C4566 1.414 . S
C4567 C4568 1.374 . S
C4568 H4542 0.950 . S
C4568 C4564 1.385 . S
C4568 C4567 1.374 . S
C4569 C4566 1.499 . S
C4569 C4570 1.373 . S
C4569 C4571 1.389 . S
C4570 H4543 0.950 . S
C4570 C4556 1.377 . S
C4570 C4569 1.373 . S
C4571 C4555 1.377 . S
C4571 C4569 1.389 . S
C4571 C4572 1.524 . S
C4572 C4571 1.524 . S
C4572 C4573 1.397 . S
C4572 C4577 1.363 . S
C4573 H4544 0.950 . S
C4573 C4572 1.397 . S
C4573 C4574 1.334 . S
C4574 H4545 0.950 . S
C4574 C4573 1.334 . S
C4574 C4575 1.287 . S
C4575 C4574 1.287 . S
C4575 C4576 1.524 . S
C4575 H4578 0.999 . S
C4576 H4546 0.950 . S
C4576 C4575 1.524 . S
C4576 C4577 1.415 . S
C4577 H4547 0.950 . S
C4577 C4572 1.363 . S
C4577 C4576 1.415 . S
H4578 C4575 0.999 . S
H4579 C4560 0.913 . S
H4580 C4598 0.951 . S
H4581 C4600 0.951 . S
H4582 C4602 0.950 . S
H4583 C4603 0.950 . S
H4584 C4605 0.950 . S
H4585 C4608 0.950 . S
H4586 C4609 0.950 . S
H4587 C4611 0.950 . S
H4588 C4612 0.950 . S
H4589 C4613 0.951 . S
H4590 C4615 0.951 . S
H4591 C4617 0.950 . S
H4592 C4618 0.950 . S
H4593 C4620 0.950 . S
H4594 C4623 0.950 . S
H4595 C4624 0.950 . S
H4596 C4626 0.950 . S
H4597 C4627 0.950 . S
C4598 H4580 0.951 . S
C4598 C4599 1.366 . S
C4598 C4600 1.388 . S
C4599 C4598 1.366 . S
C4599 C4603 1.385 . S
C4600 H4581 0.951 . S
C4600 C4598 1.388 . S
C4600 C4601 1.366 . S
C4601 C4600 1.366 . S
C4601 C4602 1.414 . S
C4601 C4604 1.499 . S
C4602 H4582 0.950 . S
C4602 C4601 1.414 . S
C4602 C4603 1.374 . S
C4603 H4583 0.950 . S
C4603 C4599 1.385 . S
C4603 C4602 1.374 . S
C4604 C4601 1.499 . S
C4604 C4605 1.373 . S
C4604 C4606 1.389 . S
C4605 H4584 0.950 . S
C4605 C4604 1.373 . S
C4605 C4621 1.377 . S
C4606 C4604 1.389 . S
C4606 C4607 1.524 . S
C4606 C4620 1.377 . S
C4607 C4606 1.524 . S
C4607 C4608 1.397 . S
C4607 C4612 1.363 . S
C4608 H4585 0.950 . S
C4608 C4607 1.397 . S
C4608 C4609 1.334 . S
C4609 H4586 0.950 . S
C4609 C4608 1.334 . S
C4609 C4610 1.287 . S
C4610 C4609 1.287 . S
C4610 C4611 1.524 . S
C4610 H4629 0.913 . S
C4611 H4587 0.950 . S
C4611 C4610 1.524 . S
C4611 C4612 1.415 . S
C4612 H4588 0.950 . S
C4612 C4607 1.363 . S
C4612 C4611 1.415 . S
C4613 H4589 0.951 . S
C4613 C4614 1.366 . S
C4613 C4615 1.388 . S
C4614 C4613 1.366 . S
C4614 C4618 1.385 . S
C4615 H4590 0.951 . S
C4615 C4613 1.388 . S
C4615 C4616 1.366 . S
C4616 C4615 1.366 . S
C4616 C4617 1.414 . S
C4616 C4619 1.499 . S
C4617 H4591 0.950 . S
C4617 C4616 1.414 . S
C4617 C4618 1.374 . S
C4618 H4592 0.950 . S
C4618 C4614 1.385 . S
C4618 C4617 1.374 . S
C4619 C4616 1.499 . S
C4619 C4620 1.373 . S
C4619 C4621 1.389 . S
C4620 H4593 0.950 . S
C4620 C4606 1.377 . S
C4620 C4619 1.373 . S
C4621 C4605 1.377 . S
C4621 C4619 1.389 . S
C4621 C4622 1.524 . S
C4622 C4621 1.524 . S
C4622 C4623 1.397 . S
C4622 C4627 1.363 . S
C4623 H4594 0.950 . S
C4623 C4622 1.397 . S
C4623 C4624 1.334 . S
C4624 H4595 0.950 . S
C4624 C4623 1.334 . S
C4624 C4625 1.287 . S
C4625 C4624 1.287 . S
C4625 C4626 1.524 . S
C4625 H4628 0.999 . S
C4626 H4596 0.950 . S
C4626 C4625 1.524 . S
C4626 C4627 1.415 . S
C4627 H4597 0.950 . S
C4627 C4622 1.363 . S
C4627 C4626 1.415 . S
H4628 C4625 0.999 . S
H4629 C4610 0.913 . S
H4630 C4648 0.951 . S
H4631 C4650 0.951 . S
H4632 C4652 0.950 . S
H4633 C4653 0.950 . S
H4634 C4655 0.950 . S
H4635 C4658 0.950 . S
H4636 C4659 0.950 . S
H4637 C4661 0.950 . S
H4638 C4662 0.950 . S
H4639 C4663 0.951 . S
H4640 C4665 0.951 . S
H4641 C4667 0.950 . S
H4642 C4668 0.950 . S
H4643 C4670 0.950 . S
H4644 C4673 0.950 . S
H4645 C4674 0.950 . S
H4646 C4676 0.950 . S
H4647 C4677 0.950 . S
C4648 H4630 0.951 . S
C4648 C4649 1.366 . S
C4648 C4650 1.388 . S
C4649 C4648 1.366 . S
C4649 C4653 1.385 . S
C4650 H4631 0.951 . S
C4650 C4648 1.388 . S
C4650 C4651 1.366 . S
C4651 C4650 1.366 . S
C4651 C4652 1.414 . S
C4651 C4654 1.499 . S
C4652 H4632 0.950 . S
C4652 C4651 1.414 . S
C4652 C4653 1.374 . S
C4653 H4633 0.950 . S
C4653 C4649 1.385 . S
C4653 C4652 1.374 . S
C4654 C4651 1.499 . S
C4654 C4655 1.373 . S
C4654 C4656 1.389 . S
C4655 H4634 0.950 . S
C4655 C4654 1.373 . S
C4655 C4671 1.377 . S
C4656 C4654 1.389 . S
C4656 C4657 1.524 . S
C4656 C4670 1.377 . S
C4657 C4656 1.524 . S
C4657 C4658 1.397 . S
C4657 C4662 1.363 . S
C4658 H4635 0.950 . S
C4658 C4657 1.397 . S
C4658 C4659 1.334 . S
C4659 H4636 0.950 . S
C4659 C4658 1.334 . S
C4659 C4660 1.287 . S
C4660 C4659 1.287 . S
C4660 C4661 1.524 . S
C4660 H4679 0.913 . S
C4661 H4637 0.950 . S
C4661 C4660 1.524 . S
C4661 C4662 1.415 . S
C4662 H4638 0.950 . S
C4662 C4657 1.363 . S
C4662 C4661 1.415 . S
C4663 H4639 0.951 . S
C4663 C4664 1.366 . S
C4663 C4665 1.388 . S
C4664 C4663 1.366 . S
C4664 C4668 1.385 . S
C4665 H4640 0.951 . S
C4665 C4663 1.388 . S
C4665 C4666 1.366 . S
C4666 C4665 1.366 . S
C4666 C4667 1.414 . S
C4666 C4669 1.499 . S
C4667 H4641 0.950 . S
C4667 C4666 1.414 . S
C4667 C4668 1.374 . S
C4668 H4642 0.950 . S
C4668 C4664 1.385 . S
C4668 C4667 1.374 . S
C4669 C4666 1.499 . S
C4669 C4670 1.373 . S
C4669 C4671 1.389 . S
C4670 H4643 0.950 . S
C4670 C4656 1.377 . S
C4670 C4669 1.373 . S
C4671 C4655 1.377 . S
C4671 C4669 1.389 . S
C4671 C4672 1.524 . S
C4672 C4671 1.524 . S
C4672 C4673 1.397 . S
C4672 C4677 1.363 . S
C4673 H4644 0.950 . S
C4673 C4672 1.397 . S
C4673 C4674 1.334 . S
C4674 H4645 0.950 . S
C4674 C4673 1.334 . S
C4674 C4675 1.287 . S
C4675 C4674 1.287 . S
C4675 C4676 1.524 . S
C4675 H4678 0.999 . S
C4676 H4646 0.950 . S
C4676 C4675 1.524 . S
C4676 C4677 1.415 . S
C4677 H4647 0.950 . S
C4677 C4672 1.363 . S
C4677 C4676 1.415 . S
H4678 C4675 0.999 . S
H4679 C4660 0.913 . S
H4680 C4698 0.951 . S
H4681 C4700 0.951 . S
H4682 C4702 0.950 . S
H4683 C4703 0.950 . S
H4684 C4705 0.950 . S
H4685 C4708 0.950 . S
H4686 C4709 0.950 . S
H4687 C4711 0.950 . S
H4688 C4712 0.950 . S
H4689 C4713 0.951 . S
H4690 C4715 0.951 . S
H4691 C4717 0.950 . S
H4692 C4718 0.950 . S
H4693 C4720 0.950 . S
H4694 C4723 0.950 . S
H4695 C4724 0.950 . S
H4696 C4726 0.950 . S
H4697 C4727 0.950 . S
C4698 H4680 0.951 . S
C4698 C4699 1.366 . S
C4698 C4700 1.388 . S
C4699 C4698 1.366 . S
C4699 C4703 1.385 . S
C4700 H4681 0.951 . S
C4700 C4698 1.388 . S
C4700 C4701 1.366 . S
C4701 C4700 1.366 . S
C4701 C4702 1.414 . S
C4701 C4704 1.499 . S
C4702 H4682 0.950 . S
C4702 C4701 1.414 . S
C4702 C4703 1.374 . S
C4703 H4683 0.950 . S
C4703 C4699 1.385 . S
C4703 C4702 1.374 . S
C4704 C4701 1.499 . S
C4704 C4705 1.373 . S
C4704 C4706 1.389 . S
C4705 H4684 0.950 . S
C4705 C4704 1.373 . S
C4705 C4721 1.377 . S
C4706 C4704 1.389 . S
C4706 C4707 1.524 . S
C4706 C4720 1.377 . S
C4707 C4706 1.524 . S
C4707 C4708 1.397 . S
C4707 C4712 1.363 . S
C4708 H4685 0.950 . S
C4708 C4707 1.397 . S
C4708 C4709 1.334 . S
C4709 H4686 0.950 . S
C4709 C4708 1.334 . S
C4709 C4710 1.287 . S
C4710 C4709 1.287 . S
C4710 C4711 1.524 . S
C4710 H4729 0.913 . S
C4711 H4687 0.950 . S
C4711 C4710 1.524 . S
C4711 C4712 1.415 . S
C4712 H4688 0.950 . S
C4712 C4707 1.363 . S
C4712 C4711 1.415 . S
C4713 H4689 0.951 . S
C4713 C4714 1.366 . S
C4713 C4715 1.388 . S
C4714 C4713 1.366 . S
C4714 C4718 1.385 . S
C4715 H4690 0.951 . S
C4715 C4713 1.388 . S
C4715 C4716 1.366 . S
C4716 C4715 1.366 . S
C4716 C4717 1.414 . S
C4716 C4719 1.499 . S
C4717 H4691 0.950 . S
C4717 C4716 1.414 . S
C4717 C4718 1.374 . S
C4718 H4692 0.950 . S
C4718 C4714 1.385 . S
C4718 C4717 1.374 . S
C4719 C4716 1.499 . S
C4719 C4720 1.373 . S
C4719 C4721 1.389 . S
C4720 H4693 0.950 . S
C4720 C4706 1.377 . S
C4720 C4719 1.373 . S
C4721 C4705 1.377 . S
C4721 C4719 1.389 . S
C4721 C4722 1.524 . S
C4722 C4721 1.524 . S
C4722 C4723 1.397 . S
C4722 C4727 1.363 . S
C4723 H4694 0.950 . S
C4723 C4722 1.397 . S
C4723 C4724 1.334 . S
C4724 H4695 0.950 . S
C4724 C4723 1.334 . S
C4724 C4725 1.287 . S
C4725 C4724 1.287 . S
C4725 C4726 1.524 . S
C4725 H4728 0.999 . S
C4726 H4696 0.950 . S
C4726 C4725 1.524 . S
C4726 C4727 1.415 . S
C4727 H4697 0.950 . S
C4727 C4722 1.363 . S
C4727 C4726 1.415 . S
H4728 C4725 0.999 . S
H4729 C4710 0.913 . S
H4730 C4748 0.951 . S
H4731 C4750 0.951 . S
H4732 C4752 0.950 . S
H4733 C4753 0.950 . S
H4734 C4755 0.950 . S
H4735 C4758 0.950 . S
H4736 C4759 0.950 . S
H4737 C4761 0.950 . S
H4738 C4762 0.950 . S
H4739 C4763 0.951 . S
H4740 C4765 0.951 . S
H4741 C4767 0.950 . S
H4742 C4768 0.950 . S
H4743 C4770 0.950 . S
H4744 C4773 0.950 . S
H4745 C4774 0.950 . S
H4746 C4776 0.950 . S
H4747 C4777 0.950 . S
C4748 H4730 0.951 . S
C4748 C4749 1.366 . S
C4748 C4750 1.388 . S
C4749 C4748 1.366 . S
C4749 C4753 1.385 . S
C4750 H4731 0.951 . S
C4750 C4748 1.388 . S
C4750 C4751 1.366 . S
C4751 C4750 1.366 . S
C4751 C4752 1.414 . S
C4751 C4754 1.499 . S
C4752 H4732 0.950 . S
C4752 C4751 1.414 . S
C4752 C4753 1.374 . S
C4753 H4733 0.950 . S
C4753 C4749 1.385 . S
C4753 C4752 1.374 . S
C4754 C4751 1.499 . S
C4754 C4755 1.373 . S
C4754 C4756 1.389 . S
C4755 H4734 0.950 . S
C4755 C4754 1.373 . S
C4755 C4771 1.377 . S
C4756 C4754 1.389 . S
C4756 C4757 1.524 . S
C4756 C4770 1.377 . S
C4757 C4756 1.524 . S
C4757 C4758 1.397 . S
C4757 C4762 1.363 . S
C4758 H4735 0.950 . S
C4758 C4757 1.397 . S
C4758 C4759 1.334 . S
C4759 H4736 0.950 . S
C4759 C4758 1.334 . S
C4759 C4760 1.287 . S
C4760 C4759 1.287 . S
C4760 C4761 1.524 . S
C4760 H4779 0.913 . S
C4761 H4737 0.950 . S
C4761 C4760 1.524 . S
C4761 C4762 1.415 . S
C4762 H4738 0.950 . S
C4762 C4757 1.363 . S
C4762 C4761 1.415 . S
C4763 H4739 0.951 . S
C4763 C4764 1.366 . S
C4763 C4765 1.388 . S
C4764 C4763 1.366 . S
C4764 C4768 1.385 . S
C4765 H4740 0.951 . S
C4765 C4763 1.388 . S
C4765 C4766 1.366 . S
C4766 C4765 1.366 . S
C4766 C4767 1.414 . S
C4766 C4769 1.499 . S
C4767 H4741 0.950 . S
C4767 C4766 1.414 . S
C4767 C4768 1.374 . S
C4768 H4742 0.950 . S
C4768 C4764 1.385 . S
C4768 C4767 1.374 . S
C4769 C4766 1.499 . S
C4769 C4770 1.373 . S
C4769 C4771 1.389 . S
C4770 H4743 0.950 . S
C4770 C4756 1.377 . S
C4770 C4769 1.373 . S
C4771 C4755 1.377 . S
C4771 C4769 1.389 . S
C4771 C4772 1.524 . S
C4772 C4771 1.524 . S
C4772 C4773 1.397 . S
C4772 C4777 1.363 . S
C4773 H4744 0.950 . S
C4773 C4772 1.397 . S
C4773 C4774 1.334 . S
C4774 H4745 0.950 . S
C4774 C4773 1.334 . S
C4774 C4775 1.287 . S
C4775 C4774 1.287 . S
C4775 C4776 1.524 . S
C4775 H4778 0.999 . S
C4776 H4746 0.950 . S
C4776 C4775 1.524 . S
C4776 C4777 1.415 . S
C4777 H4747 0.950 . S
C4777 C4772 1.363 . S
C4777 C4776 1.415 . S
H4778 C4775 0.999 . S
H4779 C4760 0.913 . S
H4780 C4798 0.951 . S
H4781 C4800 0.951 . S
H4782 C4802 0.950 . S
H4783 C4803 0.950 . S
H4784 C4805 0.950 . S
H4785 C4808 0.950 . S
H4786 C4809 0.950 . S
H4787 C4811 0.950 . S
H4788 C4812 0.950 . S
H4789 C4813 0.951 . S
H4790 C4815 0.951 . S
H4791 C4817 0.950 . S
H4792 C4818 0.950 . S
H4793 C4820 0.950 . S
H4794 C4823 0.950 . S
H4795 C4824 0.950 . S
H4796 C4826 0.950 . S
H4797 C4827 0.950 . S
C4798 H4780 0.951 . S
C4798 C4799 1.366 . S
C4798 C4800 1.388 . S
C4799 C4798 1.366 . S
C4799 C4803 1.385 . S
C4800 H4781 0.951 . S
C4800 C4798 1.388 . S
C4800 C4801 1.366 . S
C4801 C4800 1.366 . S
C4801 C4802 1.414 . S
C4801 C4804 1.499 . S
C4802 H4782 0.950 . S
C4802 C4801 1.414 . S
C4802 C4803 1.374 . S
C4803 H4783 0.950 . S
C4803 C4799 1.385 . S
C4803 C4802 1.374 . S
C4804 C4801 1.499 . S
C4804 C4805 1.373 . S
C4804 C4806 1.389 . S
C4805 H4784 0.950 . S
C4805 C4804 1.373 . S
C4805 C4821 1.377 . S
C4806 C4804 1.389 . S
C4806 C4807 1.524 . S
C4806 C4820 1.377 . S
C4807 C4806 1.524 . S
C4807 C4808 1.397 . S
C4807 C4812 1.363 . S
C4808 H4785 0.950 . S
C4808 C4807 1.397 . S
C4808 C4809 1.334 . S
C4809 H4786 0.950 . S
C4809 C4808 1.334 . S
C4809 C4810 1.287 . S
C4810 C4809 1.287 . S
C4810 C4811 1.524 . S
C4810 H4829 0.913 . S
C4811 H4787 0.950 . S
C4811 C4810 1.524 . S
C4811 C4812 1.415 . S
C4812 H4788 0.950 . S
C4812 C4807 1.363 . S
C4812 C4811 1.415 . S
C4813 H4789 0.951 . S
C4813 C4814 1.366 . S
C4813 C4815 1.388 . S
C4814 C4813 1.366 . S
C4814 C4818 1.385 . S
C4815 H4790 0.951 . S
C4815 C4813 1.388 . S
C4815 C4816 1.366 . S
C4816 C4815 1.366 . S
C4816 C4817 1.414 . S
C4816 C4819 1.499 . S
C4817 H4791 0.950 . S
C4817 C4816 1.414 . S
C4817 C4818 1.374 . S
C4818 H4792 0.950 . S
C4818 C4814 1.385 . S
C4818 C4817 1.374 . S
C4819 C4816 1.499 . S
C4819 C4820 1.373 . S
C4819 C4821 1.389 . S
C4820 H4793 0.950 . S
C4820 C4806 1.377 . S
C4820 C4819 1.373 . S
C4821 C4805 1.377 . S
C4821 C4819 1.389 . S
C4821 C4822 1.524 . S
C4822 C4821 1.524 . S
C4822 C4823 1.397 . S
C4822 C4827 1.363 . S
C4823 H4794 0.950 . S
C4823 C4822 1.397 . S
C4823 C4824 1.334 . S
C4824 H4795 0.950 . S
C4824 C4823 1.334 . S
C4824 C4825 1.287 . S
C4825 C4824 1.287 . S
C4825 C4826 1.524 . S
C4825 H4828 0.999 . S
C4826 H4796 0.950 . S
C4826 C4825 1.524 . S
C4826 C4827 1.415 . S
C4827 H4797 0.950 . S
C4827 C4822 1.363 . S
C4827 C4826 1.415 . S
H4828 C4825 0.999 . S
H4829 C4810 0.913 . S
H4830 C4848 0.951 . S
H4831 C4850 0.951 . S
H4832 C4852 0.950 . S
H4833 C4853 0.950 . S
H4834 C4855 0.950 . S
H4835 C4858 0.950 . S
H4836 C4859 0.950 . S
H4837 C4861 0.950 . S
H4838 C4862 0.950 . S
H4839 C4863 0.951 . S
H4840 C4865 0.951 . S
H4841 C4867 0.950 . S
H4842 C4868 0.950 . S
H4843 C4870 0.950 . S
H4844 C4873 0.950 . S
H4845 C4874 0.950 . S
H4846 C4876 0.950 . S
H4847 C4877 0.950 . S
C4848 H4830 0.951 . S
C4848 C4849 1.366 . S
C4848 C4850 1.388 . S
C4849 C4848 1.366 . S
C4849 C4853 1.385 . S
C4850 H4831 0.951 . S
C4850 C4848 1.388 . S
C4850 C4851 1.366 . S
C4851 C4850 1.366 . S
C4851 C4852 1.414 . S
C4851 C4854 1.499 . S
C4852 H4832 0.950 . S
C4852 C4851 1.414 . S
C4852 C4853 1.374 . S
C4853 H4833 0.950 . S
C4853 C4849 1.385 . S
C4853 C4852 1.374 . S
C4854 C4851 1.499 . S
C4854 C4855 1.373 . S
C4854 C4856 1.389 . S
C4855 H4834 0.950 . S
C4855 C4854 1.373 . S
C4855 C4871 1.377 . S
C4856 C4854 1.389 . S
C4856 C4857 1.524 . S
C4856 C4870 1.377 . S
C4857 C4856 1.524 . S
C4857 C4858 1.397 . S
C4857 C4862 1.363 . S
C4858 H4835 0.950 . S
C4858 C4857 1.397 . S
C4858 C4859 1.334 . S
C4859 H4836 0.950 . S
C4859 C4858 1.334 . S
C4859 C4860 1.287 . S
C4860 C4859 1.287 . S
C4860 C4861 1.524 . S
C4860 H4879 0.913 . S
C4861 H4837 0.950 . S
C4861 C4860 1.524 . S
C4861 C4862 1.415 . S
C4862 H4838 0.950 . S
C4862 C4857 1.363 . S
C4862 C4861 1.415 . S
C4863 H4839 0.951 . S
C4863 C4864 1.366 . S
C4863 C4865 1.388 . S
C4864 C4863 1.366 . S
C4864 C4868 1.385 . S
C4865 H4840 0.951 . S
C4865 C4863 1.388 . S
C4865 C4866 1.366 . S
C4866 C4865 1.366 . S
C4866 C4867 1.414 . S
C4866 C4869 1.499 . S
C4867 H4841 0.950 . S
C4867 C4866 1.414 . S
C4867 C4868 1.374 . S
C4868 H4842 0.950 . S
C4868 C4864 1.385 . S
C4868 C4867 1.374 . S
C4869 C4866 1.499 . S
C4869 C4870 1.373 . S
C4869 C4871 1.389 . S
C4870 H4843 0.950 . S
C4870 C4856 1.377 . S
C4870 C4869 1.373 . S
C4871 C4855 1.377 . S
C4871 C4869 1.389 . S
C4871 C4872 1.524 . S
C4872 C4871 1.524 . S
C4872 C4873 1.397 . S
C4872 C4877 1.363 . S
C4873 H4844 0.950 . S
C4873 C4872 1.397 . S
C4873 C4874 1.334 . S
C4874 H4845 0.950 . S
C4874 C4873 1.334 . S
C4874 C4875 1.287 . S
C4875 C4874 1.287 . S
C4875 C4876 1.524 . S
C4875 H4878 0.999 . S
C4876 H4846 0.950 . S
C4876 C4875 1.524 . S
C4876 C4877 1.415 . S
C4877 H4847 0.950 . S
C4877 C4872 1.363 . S
C4877 C4876 1.415 . S
H4878 C4875 0.999 . S
H4879 C4860 0.913 . S
H4880 C4898 0.951 . S
H4881 C4900 0.951 . S
H4882 C4902 0.950 . S
H4883 C4903 0.950 . S
H4884 C4905 0.950 . S
H4885 C4908 0.950 . S
H4886 C4909 0.950 . S
H4887 C4911 0.950 . S
H4888 C4912 0.950 . S
H4889 C4913 0.951 . S
H4890 C4915 0.951 . S
H4891 C4917 0.950 . S
H4892 C4918 0.950 . S
H4893 C4920 0.950 . S
H4894 C4923 0.950 . S
H4895 C4924 0.950 . S
H4896 C4926 0.950 . S
H4897 C4927 0.950 . S
C4898 H4880 0.951 . S
C4898 C4899 1.366 . S
C4898 C4900 1.388 . S
C4899 C4898 1.366 . S
C4899 C4903 1.385 . S
C4900 H4881 0.951 . S
C4900 C4898 1.388 . S
C4900 C4901 1.366 . S
C4901 C4900 1.366 . S
C4901 C4902 1.414 . S
C4901 C4904 1.499 . S
C4902 H4882 0.950 . S
C4902 C4901 1.414 . S
C4902 C4903 1.374 . S
C4903 H4883 0.950 . S
C4903 C4899 1.385 . S
C4903 C4902 1.374 . S
C4904 C4901 1.499 . S
C4904 C4905 1.373 . S
C4904 C4906 1.389 . S
C4905 H4884 0.950 . S
C4905 C4904 1.373 . S
C4905 C4921 1.377 . S
C4906 C4904 1.389 . S
C4906 C4907 1.524 . S
C4906 C4920 1.377 . S
C4907 C4906 1.524 . S
C4907 C4908 1.397 . S
C4907 C4912 1.363 . S
C4908 H4885 0.950 . S
C4908 C4907 1.397 . S
C4908 C4909 1.334 . S
C4909 H4886 0.950 . S
C4909 C4908 1.334 . S
C4909 C4910 1.287 . S
C4910 C4909 1.287 . S
C4910 C4911 1.524 . S
C4910 H4929 0.913 . S
C4911 H4887 0.950 . S
C4911 C4910 1.524 . S
C4911 C4912 1.415 . S
C4912 H4888 0.950 . S
C4912 C4907 1.363 . S
C4912 C4911 1.415 . S
C4913 H4889 0.951 . S
C4913 C4914 1.366 . S
C4913 C4915 1.388 . S
C4914 C4913 1.366 . S
C4914 C4918 1.385 . S
C4915 H4890 0.951 . S
C4915 C4913 1.388 . S
C4915 C4916 1.366 . S
C4916 C4915 1.366 . S
C4916 C4917 1.414 . S
C4916 C4919 1.499 . S
C4917 H4891 0.950 . S
C4917 C4916 1.414 . S
C4917 C4918 1.374 . S
C4918 H4892 0.950 . S
C4918 C4914 1.385 . S
C4918 C4917 1.374 . S
C4919 C4916 1.499 . S
C4919 C4920 1.373 . S
C4919 C4921 1.389 . S
C4920 H4893 0.950 . S
C4920 C4906 1.377 . S
C4920 C4919 1.373 . S
C4921 C4905 1.377 . S
C4921 C4919 1.389 . S
C4921 C4922 1.524 . S
C4922 C4921 1.524 . S
C4922 C4923 1.397 . S
C4922 C4927 1.363 . S
C4923 H4894 0.950 . S
C4923 C4922 1.397 . S
C4923 C4924 1.334 . S
C4924 H4895 0.950 . S
C4924 C4923 1.334 . S
C4924 C4925 1.287 . S
C4925 C4924 1.287 . S
C4925 C4926 1.524 . S
C4925 H4928 0.999 . S
C4926 H4896 0.950 . S
C4926 C4925 1.524 . S
C4926 C4927 1.415 . S
C4927 H4897 0.950 . S
C4927 C4922 1.363 . S
C4927 C4926 1.415 . S
H4928 C4925 0.999 . S
H4929 C4910 0.913 . S
H4930 C4948 0.951 . S
H4931 C4950 0.951 . S
H4932 C4952 0.950 . S
H4933 C4953 0.950 . S
H4934 C4955 0.950 . S
H4935 C4958 0.950 . S
H4936 C4959 0.950 . S
H4937 C4961 0.950 . S
H4938 C4962 0.950 . S
H4939 C4963 0.951 . S
H4940 C4965 0.951 . S
H4941 C4967 0.950 . S
H4942 C4968 0.950 . S
H4943 C4970 0.950 . S
H4944 C4973 0.950 . S
H4945 C4974 0.950 . S
H4946 C4976 0.950 . S
H4947 C4977 0.950 . S
C4948 H4930 0.951 . S
C4948 C4949 1.366 . S
C4948 C4950 1.388 . S
C4949 C4948 1.366 . S
C4949 C4953 1.385 . S
C4950 H4931 0.951 . S
C4950 C4948 1.388 . S
C4950 C4951 1.366 . S
C4951 C4950 1.366 . S
C4951 C4952 1.414 . S
C4951 C4954 1.499 . S
C4952 H4932 0.950 . S
C4952 C4951 1.414 . S
C4952 C4953 1.374 . S
C4953 H4933 0.950 . S
C4953 C4949 1.385 . S
C4953 C4952 1.374 . S
C4954 C4951 1.499 . S
C4954 C4955 1.373 . S
C4954 C4956 1.389 . S
C4955 H4934 0.950 . S
C4955 C4954 1.373 . S
C4955 C4971 1.377 . S
C4956 C4954 1.389 . S
C4956 C4957 1.524 . S
C4956 C4970 1.377 . S
C4957 C4956 1.524 . S
C4957 C4958 1.397 . S
C4957 C4962 1.363 . S
C4958 H4935 0.950 . S
C4958 C4957 1.397 . S
C4958 C4959 1.334 . S
C4959 H4936 0.950 . S
C4959 C4958 1.334 . S
C4959 C4960 1.287 . S
C4960 C4959 1.287 . S
C4960 C4961 1.524 . S
C4960 H4979 0.913 . S
C4961 H4937 0.950 . S
C4961 C4960 1.524 . S
C4961 C4962 1.415 . S
C4962 H4938 0.950 . S
C4962 C4957 1.363 . S
C4962 C4961 1.415 . S
C4963 H4939 0.951 . S
C4963 C4964 1.366 . S
C4963 C4965 1.388 . S
C4964 C4963 1.366 . S
C4964 C4968 1.385 . S
C4965 H4940 0.951 . S
C4965 C4963 1.388 . S
C4965 C4966 1.366 . S
C4966 C4965 1.366 . S
C4966 C4967 1.414 . S
C4966 C4969 1.499 . S
C4967 H4941 0.950 . S
C4967 C4966 1.414 . S
C4967 C4968 1.374 . S
C4968 H4942 0.950 . S
C4968 C4964 1.385 . S
C4968 C4967 1.374 . S
C4969 C4966 1.499 . S
C4969 C4970 1.373 . S
C4969 C4971 1.389 . S
C4970 H4943 0.950 . S
C4970 C4956 1.377 . S
C4970 C4969 1.373 . S
C4971 C4955 1.377 . S
C4971 C4969 1.389 . S
C4971 C4972 1.524 . S
C4972 C4971 1.524 . S
C4972 C4973 1.397 . S
C4972 C4977 1.363 . S
C4973 H4944 0.950 . S
C4973 C4972 1.397 . S
C4973 C4974 1.334 . S
C4974 H4945 0.950 . S
C4974 C4973 1.334 . S
C4974 C4975 1.287 . S
C4975 C4974 1.287 . S
C4975 C4976 1.524 . S
C4975 H4978 0.999 . S
C4976 H4946 0.950 . S
C4976 C4975 1.524 . S
C4976 C4977 1.415 . S
C4977 H4947 0.950 . S
C4977 C4972 1.363 . S
C4977 C4976 1.415 . S
H4978 C4975 0.999 . S
H4979 C4960 0.913 . S
H4980 C4998 0.951 . S
H4981 C5000 0.951 . S
H4982 C5002 0.950 . S
H4983 C5003 0.950 . S
H4984 C5005 0.950 . S
H4985 C5008 0.950 . S
H4986 C5009 0.950 . S
H4987 C5011 0.950 . S
H4988 C5012 0.950 . S
H4989 C5013 0.951 . S
H4990 C5015 0.951 . S
H4991 C5017 0.950 . S
H4992 C5018 0.950 . S
H4993 C5020 0.950 . S
H4994 C5023 0.950 . S
H4995 C5024 0.950 . S
H4996 C5026 0.950 . S
H4997 C5027 0.950 . S
C4998 H4980 0.951 . S
C4998 C4999 1.366 . S
C4998 C5000 1.388 . S
C4999 C4998 1.366 . S
C4999 C5003 1.385 . S
C5000 H4981 0.951 . S
C5000 C4998 1.388 . S
C5000 C5001 1.366 . S
C5001 C5000 1.366 . S
C5001 C5002 1.414 . S
C5001 C5004 1.499 . S
C5002 H4982 0.950 . S
C5002 C5001 1.414 . S
C5002 C5003 1.374 . S
C5003 H4983 0.950 . S
C5003 C4999 1.385 . S
C5003 C5002 1.374 . S
C5004 C5001 1.499 . S
C5004 C5005 1.373 . S
C5004 C5006 1.389 . S
C5005 H4984 0.950 . S
C5005 C5004 1.373 . S
C5005 C5021 1.377 . S
C5006 C5004 1.389 . S
C5006 C5007 1.524 . S
C5006 C5020 1.377 . S
C5007 C5006 1.524 . S
C5007 C5008 1.397 . S
C5007 C5012 1.363 . S
C5008 H4985 0.950 . S
C5008 C5007 1.397 . S
C5008 C5009 1.334 . S
C5009 H4986 0.950 . S
C5009 C5008 1.334 . S
C5009 C5010 1.287 . S
C5010 C5009 1.287 . S
C5010 C5011 1.524 . S
C5010 H5029 0.913 . S
C5011 H4987 0.950 . S
C5011 C5010 1.524 . S
C5011 C5012 1.415 . S
C5012 H4988 0.950 . S
C5012 C5007 1.363 . S
C5012 C5011 1.415 . S
C5013 H4989 0.951 . S
C5013 C5014 1.366 . S
C5013 C5015 1.388 . S
C5014 C5013 1.366 . S
C5014 C5018 1.385 . S
C5015 H4990 0.951 . S
C5015 C5013 1.388 . S
C5015 C5016 1.366 . S
C5016 C5015 1.366 . S
C5016 C5017 1.414 . S
C5016 C5019 1.499 . S
C5017 H4991 0.950 . S
C5017 C5016 1.414 . S
C5017 C5018 1.374 . S
C5018 H4992 0.950 . S
C5018 C5014 1.385 . S
C5018 C5017 1.374 . S
C5019 C5016 1.499 . S
C5019 C5020 1.373 . S
C5019 C5021 1.389 . S
C5020 H4993 0.950 . S
C5020 C5006 1.377 . S
C5020 C5019 1.373 . S
C5021 C5005 1.377 . S
C5021 C5019 1.389 . S
C5021 C5022 1.524 . S
C5022 C5021 1.524 . S
C5022 C5023 1.397 . S
C5022 C5027 1.363 . S
C5023 H4994 0.950 . S
C5023 C5022 1.397 . S
C5023 C5024 1.334 . S
C5024 H4995 0.950 . S
C5024 C5023 1.334 . S
C5024 C5025 1.287 . S
C5025 C5024 1.287 . S
C5025 C5026 1.524 . S
C5025 H5028 0.999 . S
C5026 H4996 0.950 . S
C5026 C5025 1.524 . S
C5026 C5027 1.415 . S
C5027 H4997 0.950 . S
C5027 C5022 1.363 . S
C5027 C5026 1.415 . S
H5028 C5025 0.999 . S
H5029 C5010 0.913 . S
H5030 C5048 0.951 . S
H5031 C5050 0.951 . S
H5032 C5052 0.950 . S
H5033 C5053 0.950 . S
H5034 C5055 0.950 . S
H5035 C5058 0.950 . S
H5036 C5059 0.950 . S
H5037 C5061 0.950 . S
H5038 C5062 0.950 1_545 S
H5039 C5063 0.951 . S
H5040 C5065 0.951 1_565 S
H5041 C5067 0.960 . S
H5042 C5068 0.950 1_556 S
H5043 C5070 0.969 1_556 S
H5044 C5073 0.950 . S
H5045 C5074 0.950 . S
H5046 C5076 0.921 1_565 S
H5047 C5077 0.950 . S
C5048 H5030 0.951 . S
C5048 C5049 1.366 . S
C5048 C5050 1.388 . S
C5049 C5048 1.366 . S
C5049 C5053 1.385 . S
C5050 H5031 0.951 . S
C5050 C5048 1.388 . S
C5050 C5051 1.366 . S
C5051 C5050 1.366 . S
C5051 C5052 1.414 . S
C5051 C5054 1.499 . S
C5052 H5032 0.950 . S
C5052 C5051 1.414 . S
C5052 C5053 1.374 . S
C5053 H5033 0.950 . S
C5053 C5049 1.385 . S
C5053 C5052 1.374 . S
C5054 C5051 1.499 . S
C5054 C5055 1.373 . S
C5054 C5056 1.405 . S
C5055 H5034 0.950 . S
C5055 C5054 1.373 . S
C5055 C5071 1.377 . S
C5056 C5054 1.405 . S
C5056 C5057 1.511 1_554 S
C5056 C5070 1.374 . S
C5057 C5056 1.511 1_556 S
C5057 C5058 1.397 . S
C5057 C5062 1.363 . S
C5058 H5035 0.950 . S
C5058 C5057 1.397 . S
C5058 C5059 1.334 . S
C5059 H5036 0.950 . S
C5059 C5058 1.334 . S
C5059 C5060 1.287 . S
C5060 C5059 1.287 . S
C5060 C5061 1.524 . S
C5060 H5079 0.913 . S
C5061 H5037 0.950 . S
C5061 C5060 1.524 . S
C5061 C5062 1.415 . S
C5062 H5038 0.950 1_565 S
C5062 C5057 1.363 . S
C5062 C5061 1.415 . S
C5063 H5039 0.951 . S
C5063 C5064 1.366 . S
C5063 C5065 1.388 . S
C5064 C5063 1.366 . S
C5064 C5068 1.385 . S
C5065 H5040 0.951 1_545 S
C5065 C5063 1.388 . S
C5065 C5066 1.366 . S
C5066 C5065 1.366 . S
C5066 C5067 1.414 . S
C5066 C5069 1.499 . S
C5067 H5041 0.960 . S
C5067 C5066 1.414 . S
C5067 C5068 1.374 . S
C5068 H5042 0.950 1_554 S
C5068 C5064 1.385 . S
C5068 C5067 1.374 . S
C5069 C5066 1.499 . S
C5069 C5070 1.372 1_545 S
C5069 C5071 1.389 1_545 S
C5070 H5043 0.969 1_554 S
C5070 C5056 1.374 . S
C5070 C5069 1.372 1_565 S
C5071 C5055 1.377 . S
C5071 C5069 1.389 1_565 S
C5071 C5072 1.524 1_565 S
C5072 C5071 1.524 1_545 S
C5072 C5073 1.397 . S
C5072 C5077 1.363 1_545 S
C5073 H5044 0.950 . S
C5073 C5072 1.397 . S
C5073 C5074 1.334 . S
C5074 H5045 0.950 . S
C5074 C5073 1.334 . S
C5074 C5075 1.287 . S
C5075 C5074 1.287 . S
C5075 C5076 1.560 . S
C5075 H5078 0.999 . S
C5076 H5046 0.921 1_545 S
C5076 C5075 1.560 . S
C5076 C5077 1.413 1_545 S
C5077 H5047 0.950 . S
C5077 C5072 1.363 1_565 S
C5077 C5076 1.413 1_565 S
H5078 C5075 0.999 . S
H5079 C5060 0.913 . S
H5080 C5098 0.951 . S
H5081 C5100 0.951 . S
H5082 C5102 0.950 . S
H5083 C5103 0.950 . S
H5084 C5105 0.950 . S
H5085 C5108 0.950 . S
H5086 C5109 0.950 . S
H5087 C5111 0.950 . S
H5088 C5112 0.950 . S
H5089 C5113 0.951 . S
H5090 C5115 0.951 . S
H5091 C5117 0.950 . S
H5092 C5118 0.950 . S
H5093 C5120 0.950 . S
H5094 C5123 0.950 . S
H5095 C5124 0.950 . S
H5096 C5126 0.950 . S
H5097 C5127 0.950 . S
C5098 H5080 0.951 . S
C5098 C5099 1.366 . S
C5098 C5100 1.388 . S
C5099 C5098 1.366 . S
C5099 C5103 1.385 . S
C5100 H5081 0.951 . S
C5100 C5098 1.388 . S
C5100 C5101 1.366 . S
C5101 C5100 1.366 . S
C5101 C5102 1.414 . S
C5101 C5104 1.499 . S
C5102 H5082 0.950 . S
C5102 C5101 1.414 . S
C5102 C5103 1.374 . S
C5103 H5083 0.950 . S
C5103 C5099 1.385 . S
C5103 C5102 1.374 . S
C5104 C5101 1.499 . S
C5104 C5105 1.373 . S
C5104 C5106 1.389 . S
C5105 H5084 0.950 . S
C5105 C5104 1.373 . S
C5105 C5121 1.377 . S
C5106 C5104 1.389 . S
C5106 C5107 1.524 . S
C5106 C5120 1.377 . S
C5107 C5106 1.524 . S
C5107 C5108 1.397 . S
C5107 C5112 1.363 . S
C5108 H5085 0.950 . S
C5108 C5107 1.397 . S
C5108 C5109 1.334 . S
C5109 H5086 0.950 . S
C5109 C5108 1.334 . S
C5109 C5110 1.287 . S
C5110 C5109 1.287 . S
C5110 C5111 1.524 . S
C5110 H5129 0.913 . S
C5111 H5087 0.950 . S
C5111 C5110 1.524 . S
C5111 C5112 1.415 . S
C5112 H5088 0.950 . S
C5112 C5107 1.363 . S
C5112 C5111 1.415 . S
C5113 H5089 0.951 . S
C5113 C5114 1.366 . S
C5113 C5115 1.388 . S
C5114 C5113 1.366 . S
C5114 C5118 1.385 . S
C5115 H5090 0.951 . S
C5115 C5113 1.388 . S
C5115 C5116 1.366 . S
C5116 C5115 1.366 . S
C5116 C5117 1.414 . S
C5116 C5119 1.499 . S
C5117 H5091 0.950 . S
C5117 C5116 1.414 . S
C5117 C5118 1.374 . S
C5118 H5092 0.950 . S
C5118 C5114 1.385 . S
C5118 C5117 1.374 . S
C5119 C5116 1.499 . S
C5119 C5120 1.373 . S
C5119 C5121 1.389 . S
C5120 H5093 0.950 . S
C5120 C5106 1.377 . S
C5120 C5119 1.373 . S
C5121 C5105 1.377 . S
C5121 C5119 1.389 . S
C5121 C5122 1.524 . S
C5122 C5121 1.524 . S
C5122 C5123 1.397 . S
C5122 C5127 1.363 . S
C5123 H5094 0.950 . S
C5123 C5122 1.397 . S
C5123 C5124 1.334 . S
C5124 H5095 0.950 . S
C5124 C5123 1.334 . S
C5124 C5125 1.287 . S
C5125 C5124 1.287 . S
C5125 C5126 1.524 . S
C5125 H5128 0.999 . S
C5126 H5096 0.950 . S
C5126 C5125 1.524 . S
C5126 C5127 1.415 . S
C5127 H5097 0.950 . S
C5127 C5122 1.363 . S
C5127 C5126 1.415 . S
H5128 C5125 0.999 . S
H5129 C5110 0.913 . S
H5130 C5148 0.951 . S
H5131 C5150 0.951 . S
H5132 C5152 0.950 . S
H5133 C5153 0.950 . S
H5134 C5155 0.950 . S
H5135 C5158 0.950 . S
H5136 C5159 0.950 . S
H5137 C5161 0.950 . S
H5138 C5162 0.981 . S
H5139 C5163 0.951 . S
H5140 C5165 0.951 . S
H5141 C5167 0.950 . S
H5142 C5168 0.950 . S
H5143 C5170 0.950 . S
H5144 C5173 0.950 . S
H5145 C5174 0.950 . S
H5146 C5176 0.950 . S
H5147 C5177 0.950 . S
C5148 H5130 0.951 . S
C5148 C5149 1.364 1_556 S
C5148 C5150 1.388 . S
C5149 C5148 1.364 1_554 S
C5149 C5153 1.387 . S
C5150 H5131 0.951 . S
C5150 C5148 1.388 . S
C5150 C5151 1.366 1_556 S
C5151 C5150 1.366 1_554 S
C5151 C5152 1.414 . S
C5151 C5154 1.499 . S
C5152 H5132 0.950 . S
C5152 C5151 1.414 . S
C5152 C5153 1.374 . S
C5153 H5133 0.950 . S
C5153 C5149 1.387 . S
C5153 C5152 1.374 . S
C5154 C5151 1.499 . S
C5154 C5155 1.373 . S
C5154 C5156 1.389 . S
C5155 H5134 0.950 . S
C5155 C5154 1.373 . S
C5155 C5171 1.377 . S
C5156 C5154 1.389 . S
C5156 C5157 1.524 . S
C5156 C5170 1.377 . S
C5157 C5156 1.524 . S
C5157 C5158 1.397 . S
C5157 C5162 1.363 . S
C5158 H5135 0.950 . S
C5158 C5157 1.397 . S
C5158 C5159 1.334 . S
C5159 H5136 0.950 . S
C5159 C5158 1.334 . S
C5159 C5160 1.287 . S
C5160 C5159 1.287 . S
C5160 C5161 1.524 . S
C5160 H5179 0.913 . S
C5161 H5137 0.950 . S
C5161 C5160 1.524 . S
C5161 C5162 1.415 . S
C5162 H5138 0.981 . S
C5162 C5157 1.363 . S
C5162 C5161 1.415 . S
C5163 H5139 0.951 . S
C5163 C5164 1.366 . S
C5163 C5165 1.388 . S
C5164 C5163 1.366 . S
C5164 C5168 1.385 . S
C5165 H5140 0.951 . S
C5165 C5163 1.388 . S
C5165 C5166 1.366 . S
C5166 C5165 1.366 . S
C5166 C5167 1.414 . S
C5166 C5169 1.499 . S
C5167 H5141 0.950 . S
C5167 C5166 1.414 . S
C5167 C5168 1.374 . S
C5168 H5142 0.950 . S
C5168 C5164 1.385 . S
C5168 C5167 1.374 . S
C5169 C5166 1.499 . S
C5169 C5170 1.373 . S
C5169 C5171 1.389 . S
C5170 H5143 0.950 . S
C5170 C5156 1.377 . S
C5170 C5169 1.373 . S
C5171 C5155 1.377 . S
C5171 C5169 1.389 . S
C5171 C5172 1.524 . S
C5172 C5171 1.524 . S
C5172 C5173 1.397 1_554 S
C5172 C5177 1.363 . S
C5173 H5144 0.950 . S
C5173 C5172 1.397 1_556 S
C5173 C5174 1.334 . S
C5174 H5145 0.950 . S
C5174 C5173 1.334 . S
C5174 C5175 1.287 . S
C5175 C5174 1.287 . S
C5175 C5176 1.524 1_556 S
C5175 H5178 0.999 . S
C5176 H5146 0.950 . S
C5176 C5175 1.524 1_554 S
C5176 C5177 1.415 . S
C5177 H5147 0.950 . S
C5177 C5172 1.363 . S
C5177 C5176 1.415 . S
H5178 C5175 0.999 . S
H5179 C5160 0.913 . S
H5180 C5198 0.951 . S
H5181 C5200 0.951 . S
H5182 C5202 0.950 . S
H5183 C5203 0.950 . S
H5184 C5205 0.950 . S
H5185 C5208 0.950 . S
H5186 C5209 0.950 . S
H5187 C5211 0.950 . S
H5188 C5212 0.950 . S
H5189 C5213 0.951 . S
H5190 C5215 0.951 . S
H5191 C5217 0.950 . S
H5192 C5218 0.950 . S
H5193 C5220 0.950 . S
H5194 C5223 0.950 . S
H5195 C5224 0.950 . S
H5196 C5226 0.950 . S
H5197 C5227 0.950 . S
C5198 H5180 0.951 . S
C5198 C5199 1.366 . S
C5198 C5200 1.388 . S
C5199 C5198 1.366 . S
C5199 C5203 1.385 . S
C5200 H5181 0.951 . S
C5200 C5198 1.388 . S
C5200 C5201 1.366 . S
C5201 C5200 1.366 . S
C5201 C5202 1.414 . S
C5201 C5204 1.499 . S
C5202 H5182 0.950 . S
C5202 C5201 1.414 . S
C5202 C5203 1.374 . S
C5203 H5183 0.950 . S
C5203 C5199 1.385 . S
C5203 C5202 1.374 . S
C5204 C5201 1.499 . S
C5204 C5205 1.373 . S
C5204 C5206 1.389 . S
C5205 H5184 0.950 . S
C5205 C5204 1.373 . S
C5205 C5221 1.377 . S
C5206 C5204 1.389 . S
C5206 C5207 1.524 . S
C5206 C5220 1.377 . S
C5207 C5206 1.524 . S
C5207 C5208 1.397 . S
C5207 C5212 1.363 . S
C5208 H5185 0.950 . S
C5208 C5207 1.397 . S
C5208 C5209 1.334 . S
C5209 H5186 0.950 . S
C5209 C5208 1.334 . S
C5209 C5210 1.287 . S
C5210 C5209 1.287 . S
C5210 C5211 1.524 . S
C5210 H5229 0.913 . S
C5211 H5187 0.950 . S
C5211 C5210 1.524 . S
C5211 C5212 1.415 . S
C5212 H5188 0.950 . S
C5212 C5207 1.363 . S
C5212 C5211 1.415 . S
C5213 H5189 0.951 . S
C5213 C5214 1.366 . S
C5213 C5215 1.388 . S
C5214 C5213 1.366 . S
C5214 C5218 1.385 . S
C5215 H5190 0.951 . S
C5215 C5213 1.388 . S
C5215 C5216 1.366 . S
C5216 C5215 1.366 . S
C5216 C5217 1.414 . S
C5216 C5219 1.499 . S
C5217 H5191 0.950 . S
C5217 C5216 1.414 . S
C5217 C5218 1.374 . S
C5218 H5192 0.950 . S
C5218 C5214 1.385 . S
C5218 C5217 1.374 . S
C5219 C5216 1.499 . S
C5219 C5220 1.373 . S
C5219 C5221 1.389 . S
C5220 H5193 0.950 . S
C5220 C5206 1.377 . S
C5220 C5219 1.373 . S
C5221 C5205 1.377 . S
C5221 C5219 1.389 . S
C5221 C5222 1.524 . S
C5222 C5221 1.524 . S
C5222 C5223 1.397 . S
C5222 C5227 1.363 . S
C5223 H5194 0.950 . S
C5223 C5222 1.397 . S
C5223 C5224 1.334 . S
C5224 H5195 0.950 . S
C5224 C5223 1.334 . S
C5224 C5225 1.287 . S
C5225 C5224 1.287 . S
C5225 C5226 1.524 . S
C5225 H5228 0.999 . S
C5226 H5196 0.950 . S
C5226 C5225 1.524 . S
C5226 C5227 1.415 . S
C5227 H5197 0.950 . S
C5227 C5222 1.363 . S
C5227 C5226 1.415 . S
H5228 C5225 0.999 . S
H5229 C5210 0.913 . S
H5230 C5248 0.951 . S
H5231 C5250 0.951 . S
H5232 C5252 0.950 . S
H5233 C5253 0.950 . S
H5234 C5255 0.950 . S
H5235 C5258 0.950 . S
H5236 C5259 0.950 . S
H5237 C5261 0.950 . S
H5238 C5262 0.950 . S
H5239 C5263 0.951 . S
H5240 C5265 0.951 . S
H5241 C5267 0.950 . S
H5242 C5268 0.950 . S
H5243 C5270 0.950 . S
H5244 C5273 0.950 . S
H5245 C5274 0.950 . S
H5246 C5276 0.950 . S
H5247 C5277 0.950 . S
C5248 H5230 0.951 . S
C5248 C5249 1.366 . S
C5248 C5250 1.388 . S
C5249 C5248 1.366 . S
C5249 C5253 1.385 . S
C5250 H5231 0.951 . S
C5250 C5248 1.388 . S
C5250 C5251 1.366 . S
C5251 C5250 1.366 . S
C5251 C5252 1.414 . S
C5251 C5254 1.499 . S
C5252 H5232 0.950 . S
C5252 C5251 1.414 . S
C5252 C5253 1.374 . S
C5253 H5233 0.950 . S
C5253 C5249 1.385 . S
C5253 C5252 1.374 . S
C5254 C5251 1.499 . S
C5254 C5255 1.373 . S
C5254 C5256 1.389 . S
C5255 H5234 0.950 . S
C5255 C5254 1.373 . S
C5255 C5271 1.377 . S
C5256 C5254 1.389 . S
C5256 C5257 1.524 . S
C5256 C5270 1.377 . S
C5257 C5256 1.524 . S
C5257 C5258 1.397 . S
C5257 C5262 1.363 . S
C5258 H5235 0.950 . S
C5258 C5257 1.397 . S
C5258 C5259 1.334 . S
C5259 H5236 0.950 . S
C5259 C5258 1.334 . S
C5259 C5260 1.287 . S
C5260 C5259 1.287 . S
C5260 C5261 1.524 . S
C5260 H5279 0.913 . S
C5261 H5237 0.950 . S
C5261 C5260 1.524 . S
C5261 C5262 1.415 . S
C5262 H5238 0.950 . S
C5262 C5257 1.363 . S
C5262 C5261 1.415 . S
C5263 H5239 0.951 . S
C5263 C5264 1.366 . S
C5263 C5265 1.388 . S
C5264 C5263 1.366 . S
C5264 C5268 1.385 . S
C5265 H5240 0.951 . S
C5265 C5263 1.388 . S
C5265 C5266 1.366 . S
C5266 C5265 1.366 . S
C5266 C5267 1.414 . S
C5266 C5269 1.499 . S
C5267 H5241 0.950 . S
C5267 C5266 1.414 . S
C5267 C5268 1.374 . S
C5268 H5242 0.950 . S
C5268 C5264 1.385 . S
C5268 C5267 1.374 . S
C5269 C5266 1.499 . S
C5269 C5270 1.373 . S
C5269 C5271 1.389 . S
C5270 H5243 0.950 . S
C5270 C5256 1.377 . S
C5270 C5269 1.373 . S
C5271 C5255 1.377 . S
C5271 C5269 1.389 . S
C5271 C5272 1.524 . S
C5272 C5271 1.524 . S
C5272 C5273 1.397 . S
C5272 C5277 1.363 . S
C5273 H5244 0.950 . S
C5273 C5272 1.397 . S
C5273 C5274 1.334 . S
C5274 H5245 0.950 . S
C5274 C5273 1.334 . S
C5274 C5275 1.287 . S
C5275 C5274 1.287 . S
C5275 C5276 1.524 . S
C5275 H5278 0.999 . S
C5276 H5246 0.950 . S
C5276 C5275 1.524 . S
C5276 C5277 1.415 . S
C5277 H5247 0.950 . S
C5277 C5272 1.363 . S
C5277 C5276 1.415 . S
H5278 C5275 0.999 . S
H5279 C5260 0.913 . S
H5280 C5298 0.951 . S
H5281 C5300 0.951 . S
H5282 C5302 0.950 . S
H5283 C5303 0.950 . S
H5284 C5305 0.950 . S
H5285 C5308 0.950 . S
H5286 C5309 0.950 . S
H5287 C5311 0.950 . S
H5288 C5312 0.950 . S
H5289 C5313 0.951 . S
H5290 C5315 0.951 . S
H5291 C5317 0.950 . S
H5292 C5318 0.950 . S
H5293 C5320 0.950 . S
H5294 C5323 0.950 . S
H5295 C5324 0.950 . S
H5296 C5326 0.950 . S
H5297 C5327 0.950 . S
C5298 H5280 0.951 . S
C5298 C5299 1.366 . S
C5298 C5300 1.388 . S
C5299 C5298 1.366 . S
C5299 C5303 1.385 . S
C5300 H5281 0.951 . S
C5300 C5298 1.388 . S
C5300 C5301 1.366 . S
C5301 C5300 1.366 . S
C5301 C5302 1.414 . S
C5301 C5304 1.499 . S
C5302 H5282 0.950 . S
C5302 C5301 1.414 . S
C5302 C5303 1.374 . S
C5303 H5283 0.950 . S
C5303 C5299 1.385 . S
C5303 C5302 1.374 . S
C5304 C5301 1.499 . S
C5304 C5305 1.373 . S
C5304 C5306 1.389 . S
C5305 H5284 0.950 . S
C5305 C5304 1.373 . S
C5305 C5321 1.377 . S
C5306 C5304 1.389 . S
C5306 C5307 1.524 . S
C5306 C5320 1.377 . S
C5307 C5306 1.524 . S
C5307 C5308 1.397 . S
C5307 C5312 1.363 . S
C5308 H5285 0.950 . S
C5308 C5307 1.397 . S
C5308 C5309 1.334 . S
C5309 H5286 0.950 . S
C5309 C5308 1.334 . S
C5309 C5310 1.287 . S
C5310 C5309 1.287 . S
C5310 C5311 1.524 . S
C5310 H5329 0.913 . S
C5311 H5287 0.950 . S
C5311 C5310 1.524 . S
C5311 C5312 1.415 . S
C5312 H5288 0.950 . S
C5312 C5307 1.363 . S
C5312 C5311 1.415 . S
C5313 H5289 0.951 . S
C5313 C5314 1.366 . S
C5313 C5315 1.388 . S
C5314 C5313 1.366 . S
C5314 C5318 1.385 . S
C5315 H5290 0.951 . S
C5315 C5313 1.388 . S
C5315 C5316 1.366 . S
C5316 C5315 1.366 . S
C5316 C5317 1.414 . S
C5316 C5319 1.499 . S
C5317 H5291 0.950 . S
C5317 C5316 1.414 . S
C5317 C5318 1.374 . S
C5318 H5292 0.950 . S
C5318 C5314 1.385 . S
C5318 C5317 1.374 . S
C5319 C5316 1.499 . S
C5319 C5320 1.373 . S
C5319 C5321 1.389 . S
C5320 H5293 0.950 . S
C5320 C5306 1.377 . S
C5320 C5319 1.373 . S
C5321 C5305 1.377 . S
C5321 C5319 1.389 . S
C5321 C5322 1.524 . S
C5322 C5321 1.524 . S
C5322 C5323 1.397 . S
C5322 C5327 1.363 . S
C5323 H5294 0.950 . S
C5323 C5322 1.397 . S
C5323 C5324 1.334 . S
C5324 H5295 0.950 . S
C5324 C5323 1.334 . S
C5324 C5325 1.287 . S
C5325 C5324 1.287 . S
C5325 C5326 1.524 . S
C5325 H5328 0.999 . S
C5326 H5296 0.950 . S
C5326 C5325 1.524 . S
C5326 C5327 1.415 . S
C5327 H5297 0.950 . S
C5327 C5322 1.363 . S
C5327 C5326 1.415 . S
H5328 C5325 0.999 . S
H5329 C5310 0.913 . S
H5330 C5348 0.951 . S
H5331 C5350 0.951 . S
H5332 C5352 0.950 . S
H5333 C5353 0.950 . S
H5334 C5355 0.950 . S
H5335 C5358 0.950 . S
H5336 C5359 0.950 . S
H5337 C5361 0.950 . S
H5338 C5362 0.950 . S
H5339 C5363 0.951 . S
H5340 C5365 0.951 . S
H5341 C5367 0.950 . S
H5342 C5368 0.950 . S
H5343 C5370 0.950 . S
H5344 C5373 0.950 . S
H5345 C5374 0.950 . S
H5346 C5376 0.950 . S
H5347 C5377 0.950 . S
C5348 H5330 0.951 . S
C5348 C5349 1.366 . S
C5348 C5350 1.388 . S
C5349 C5348 1.366 . S
C5349 C5353 1.385 . S
C5350 H5331 0.951 . S
C5350 C5348 1.388 . S
C5350 C5351 1.366 . S
C5351 C5350 1.366 . S
C5351 C5352 1.414 . S
C5351 C5354 1.499 . S
C5352 H5332 0.950 . S
C5352 C5351 1.414 . S
C5352 C5353 1.374 . S
C5353 H5333 0.950 . S
C5353 C5349 1.385 . S
C5353 C5352 1.374 . S
C5354 C5351 1.499 . S
C5354 C5355 1.373 . S
C5354 C5356 1.389 . S
C5355 H5334 0.950 . S
C5355 C5354 1.373 . S
C5355 C5371 1.377 . S
C5356 C5354 1.389 . S
C5356 C5357 1.524 . S
C5356 C5370 1.377 . S
C5357 C5356 1.524 . S
C5357 C5358 1.397 . S
C5357 C5362 1.363 . S
C5358 H5335 0.950 . S
C5358 C5357 1.397 . S
C5358 C5359 1.334 . S
C5359 H5336 0.950 . S
C5359 C5358 1.334 . S
C5359 C5360 1.287 . S
C5360 C5359 1.287 . S
C5360 C5361 1.524 . S
C5360 H5379 0.913 . S
C5361 H5337 0.950 . S
C5361 C5360 1.524 . S
C5361 C5362 1.415 . S
C5362 H5338 0.950 . S
C5362 C5357 1.363 . S
C5362 C5361 1.415 . S
C5363 H5339 0.951 . S
C5363 C5364 1.366 . S
C5363 C5365 1.388 . S
C5364 C5363 1.366 . S
C5364 C5368 1.385 . S
C5365 H5340 0.951 . S
C5365 C5363 1.388 . S
C5365 C5366 1.366 . S
C5366 C5365 1.366 . S
C5366 C5367 1.414 . S
C5366 C5369 1.499 . S
C5367 H5341 0.950 . S
C5367 C5366 1.414 . S
C5367 C5368 1.374 . S
C5368 H5342 0.950 . S
C5368 C5364 1.385 . S
C5368 C5367 1.374 . S
C5369 C5366 1.499 . S
C5369 C5370 1.373 . S
C5369 C5371 1.389 . S
C5370 H5343 0.950 . S
C5370 C5356 1.377 . S
C5370 C5369 1.373 . S
C5371 C5355 1.377 . S
C5371 C5369 1.389 . S
C5371 C5372 1.524 . S
C5372 C5371 1.524 . S
C5372 C5373 1.397 . S
C5372 C5377 1.363 . S
C5373 H5344 0.950 . S
C5373 C5372 1.397 . S
C5373 C5374 1.334 . S
C5374 H5345 0.950 . S
C5374 C5373 1.334 . S
C5374 C5375 1.287 . S
C5375 C5374 1.287 . S
C5375 C5376 1.524 . S
C5375 H5378 0.999 . S
C5376 H5346 0.950 . S
C5376 C5375 1.524 . S
C5376 C5377 1.415 . S
C5377 H5347 0.950 . S
C5377 C5372 1.363 . S
C5377 C5376 1.415 . S
H5378 C5375 0.999 . S
H5379 C5360 0.913 . S
H5380 C5398 0.951 . S
H5381 C5400 0.951 . S
H5382 C5402 0.950 . S
H5383 C5403 0.950 . S
H5384 C5405 0.950 . S
H5385 C5408 0.950 . S
H5386 C5409 0.950 . S
H5387 C5411 0.950 . S
H5388 C5412 0.950 . S
H5389 C5413 0.951 . S
H5390 C5415 0.951 . S
H5391 C5417 0.950 . S
H5392 C5418 0.950 . S
H5393 C5420 0.950 . S
H5394 C5423 0.950 . S
H5395 C5424 0.950 . S
H5396 C5426 0.950 . S
H5397 C5427 0.956 . S
C5398 H5380 0.951 . S
C5398 C5399 1.366 . S
C5398 C5400 1.388 . S
C5399 C5398 1.366 . S
C5399 C5403 1.385 . S
C5400 H5381 0.951 . S
C5400 C5398 1.388 . S
C5400 C5401 1.366 . S
C5401 C5400 1.366 . S
C5401 C5402 1.414 . S
C5401 C5404 1.499 . S
C5402 H5382 0.950 . S
C5402 C5401 1.414 . S
C5402 C5403 1.374 . S
C5403 H5383 0.950 . S
C5403 C5399 1.385 . S
C5403 C5402 1.374 . S
C5404 C5401 1.499 . S
C5404 C5405 1.373 . S
C5404 C5406 1.389 . S
C5405 H5384 0.950 . S
C5405 C5404 1.373 . S
C5405 C5421 1.377 . S
C5406 C5404 1.389 . S
C5406 C5407 1.524 . S
C5406 C5420 1.377 . S
C5407 C5406 1.524 . S
C5407 C5408 1.397 . S
C5407 C5412 1.363 . S
C5408 H5385 0.950 . S
C5408 C5407 1.397 . S
C5408 C5409 1.334 . S
C5409 H5386 0.950 . S
C5409 C5408 1.334 . S
C5409 C5410 1.287 . S
C5410 C5409 1.287 . S
C5410 C5411 1.524 . S
C5410 H5429 0.913 . S
C5411 H5387 0.950 . S
C5411 C5410 1.524 . S
C5411 C5412 1.415 . S
C5412 H5388 0.950 . S
C5412 C5407 1.363 . S
C5412 C5411 1.415 . S
C5413 H5389 0.951 . S
C5413 C5414 1.366 . S
C5413 C5415 1.388 . S
C5414 C5413 1.366 . S
C5414 C5418 1.385 . S
C5415 H5390 0.951 . S
C5415 C5413 1.388 . S
C5415 C5416 1.366 . S
C5416 C5415 1.366 . S
C5416 C5417 1.414 . S
C5416 C5419 1.499 . S
C5417 H5391 0.950 . S
C5417 C5416 1.414 . S
C5417 C5418 1.374 . S
C5418 H5392 0.950 . S
C5418 C5414 1.385 . S
C5418 C5417 1.374 . S
C5419 C5416 1.499 . S
C5419 C5420 1.373 . S
C5419 C5421 1.389 . S
C5420 H5393 0.950 . S
C5420 C5406 1.377 . S
C5420 C5419 1.373 . S
C5421 C5405 1.377 . S
C5421 C5419 1.389 . S
C5421 C5422 1.524 . S
C5422 C5421 1.524 . S
C5422 C5423 1.397 . S
C5422 C5427 1.374 . S
C5423 H5394 0.950 . S
C5423 C5422 1.397 . S
C5423 C5424 1.334 1_554 S
C5424 H5395 0.950 . S
C5424 C5423 1.334 1_556 S
C5424 C5425 1.287 . S
C5425 C5424 1.287 . S
C5425 C5426 1.524 . S
C5425 H5428 0.999 . S
C5426 H5396 0.950 . S
C5426 C5425 1.524 . S
C5426 C5427 1.399 1_556 S
C5427 H5397 0.956 . S
C5427 C5422 1.374 . S
C5427 C5426 1.399 1_554 S
H5428 C5425 0.999 . S
H5429 C5410 0.913 . S
H5430 C5448 0.951 . S
H5431 C5450 0.951 . S
H5432 C5452 0.950 . S
H5433 C5453 0.950 . S
H5434 C5455 0.950 . S
H5435 C5458 0.950 . S
H5436 C5459 0.950 . S
H5437 C5461 0.950 . S
H5438 C5462 0.950 . S
H5439 C5463 0.951 . S
H5440 C5465 0.951 . S
H5441 C5467 0.950 . S
H5442 C5468 0.950 . S
H5443 C5470 0.950 . S
H5444 C5473 0.950 . S
H5445 C5474 0.950 . S
H5446 C5476 0.950 . S
H5447 C5477 0.950 . S
C5448 H5430 0.951 . S
C5448 C5449 1.366 . S
C5448 C5450 1.388 . S
C5449 C5448 1.366 . S
C5449 C5453 1.385 . S
C5450 H5431 0.951 . S
C5450 C5448 1.388 . S
C5450 C5451 1.366 . S
C5451 C5450 1.366 . S
C5451 C5452 1.414 . S
C5451 C5454 1.499 . S
C5452 H5432 0.950 . S
C5452 C5451 1.414 . S
C5452 C5453 1.374 . S
C5453 H5433 0.950 . S
C5453 C5449 1.385 . S
C5453 C5452 1.374 . S
C5454 C5451 1.499 . S
C5454 C5455 1.373 . S
C5454 C5456 1.389 . S
C5455 H5434 0.950 . S
C5455 C5454 1.373 . S
C5455 C5471 1.377 . S
C5456 C5454 1.389 . S
C5456 C5457 1.524 . S
C5456 C5470 1.377 . S
C5457 C5456 1.524 . S
C5457 C5458 1.397 . S
C5457 C5462 1.363 . S
C5458 H5435 0.950 . S
C5458 C5457 1.397 . S
C5458 C5459 1.334 . S
C5459 H5436 0.950 . S
C5459 C5458 1.334 . S
C5459 C5460 1.287 . S
C5460 C5459 1.287 . S
C5460 C5461 1.524 . S
C5460 H5479 0.913 . S
C5461 H5437 0.950 . S
C5461 C5460 1.524 . S
C5461 C5462 1.415 . S
C5462 H5438 0.950 . S
C5462 C5457 1.363 . S
C5462 C5461 1.415 . S
C5463 H5439 0.951 . S
C5463 C5464 1.366 . S
C5463 C5465 1.388 . S
C5464 C5463 1.366 . S
C5464 C5468 1.385 . S
C5465 H5440 0.951 . S
C5465 C5463 1.388 . S
C5465 C5466 1.366 . S
C5466 C5465 1.366 . S
C5466 C5467 1.414 . S
C5466 C5469 1.499 . S
C5467 H5441 0.950 . S
C5467 C5466 1.414 . S
C5467 C5468 1.374 . S
C5468 H5442 0.950 . S
C5468 C5464 1.385 . S
C5468 C5467 1.374 . S
C5469 C5466 1.499 . S
C5469 C5470 1.373 . S
C5469 C5471 1.389 . S
C5470 H5443 0.950 . S
C5470 C5456 1.377 . S
C5470 C5469 1.373 . S
C5471 C5455 1.377 . S
C5471 C5469 1.389 . S
C5471 C5472 1.524 . S
C5472 C5471 1.524 . S
C5472 C5473 1.397 . S
C5472 C5477 1.363 . S
C5473 H5444 0.950 . S
C5473 C5472 1.397 . S
C5473 C5474 1.334 . S
C5474 H5445 0.950 . S
C5474 C5473 1.334 . S
C5474 C5475 1.287 . S
C5475 C5474 1.287 . S
C5475 C5476 1.524 . S
C5475 H5478 0.999 . S
C5476 H5446 0.950 . S
C5476 C5475 1.524 . S
C5476 C5477 1.415 . S
C5477 H5447 0.950 . S
C5477 C5472 1.363 . S
C5477 C5476 1.415 . S
H5478 C5475 0.999 . S
H5479 C5460 0.913 . S
H5480 C5498 0.951 . S
H5481 C5500 0.951 . S
H5482 C5502 0.950 . S
H5483 C5503 0.950 . S
H5484 C5505 0.950 . S
H5485 C5508 0.950 . S
H5486 C5509 0.950 . S
H5487 C5511 0.950 . S
H5488 C5512 0.950 . S
H5489 C5513 0.951 . S
H5490 C5515 0.951 . S
H5491 C5517 0.950 . S
H5492 C5518 0.950 . S
H5493 C5520 0.950 . S
H5494 C5523 0.950 . S
H5495 C5524 0.950 . S
H5496 C5526 0.950 . S
H5497 C5527 0.950 . S
C5498 H5480 0.951 . S
C5498 C5499 1.366 . S
C5498 C5500 1.388 . S
C5499 C5498 1.366 . S
C5499 C5503 1.385 . S
C5500 H5481 0.951 . S
C5500 C5498 1.388 . S
C5500 C5501 1.366 . S
C5501 C5500 1.366 . S
C5501 C5502 1.414 . S
C5501 C5504 1.499 . S
C5502 H5482 0.950 . S
C5502 C5501 1.414 . S
C5502 C5503 1.374 . S
C5503 H5483 0.950 . S
C5503 C5499 1.385 . S
C5503 C5502 1.374 . S
C5504 C5501 1.499 . S
C5504 C5505 1.373 . S
C5504 C5506 1.389 . S
C5505 H5484 0.950 . S
C5505 C5504 1.373 . S
C5505 C5521 1.377 . S
C5506 C5504 1.389 . S
C5506 C5507 1.524 . S
C5506 C5520 1.377 . S
C5507 C5506 1.524 . S
C5507 C5508 1.397 . S
C5507 C5512 1.363 . S
C5508 H5485 0.950 . S
C5508 C5507 1.397 . S
C5508 C5509 1.334 . S
C5509 H5486 0.950 . S
C5509 C5508 1.334 . S
C5509 C5510 1.287 . S
C5510 C5509 1.287 . S
C5510 C5511 1.524 . S
C5510 H5529 0.913 . S
C5511 H5487 0.950 . S
C5511 C5510 1.524 . S
C5511 C5512 1.415 . S
C5512 H5488 0.950 . S
C5512 C5507 1.363 . S
C5512 C5511 1.415 . S
C5513 H5489 0.951 . S
C5513 C5514 1.366 . S
C5513 C5515 1.388 . S
C5514 C5513 1.366 . S
C5514 C5518 1.385 . S
C5515 H5490 0.951 . S
C5515 C5513 1.388 . S
C5515 C5516 1.366 . S
C5516 C5515 1.366 . S
C5516 C5517 1.414 . S
C5516 C5519 1.499 . S
C5517 H5491 0.950 . S
C5517 C5516 1.414 . S
C5517 C5518 1.374 . S
C5518 H5492 0.950 . S
C5518 C5514 1.385 . S
C5518 C5517 1.374 . S
C5519 C5516 1.499 . S
C5519 C5520 1.373 . S
C5519 C5521 1.389 . S
C5520 H5493 0.950 . S
C5520 C5506 1.377 . S
C5520 C5519 1.373 . S
C5521 C5505 1.377 . S
C5521 C5519 1.389 . S
C5521 C5522 1.524 . S
C5522 C5521 1.524 . S
C5522 C5523 1.397 . S
C5522 C5527 1.363 . S
C5523 H5494 0.950 . S
C5523 C5522 1.397 . S
C5523 C5524 1.334 . S
C5524 H5495 0.950 . S
C5524 C5523 1.334 . S
C5524 C5525 1.287 . S
C5525 C5524 1.287 . S
C5525 C5526 1.524 . S
C5525 H5528 0.999 . S
C5526 H5496 0.950 . S
C5526 C5525 1.524 . S
C5526 C5527 1.415 . S
C5527 H5497 0.950 . S
C5527 C5522 1.363 . S
C5527 C5526 1.415 . S
H5528 C5525 0.999 . S
H5529 C5510 0.913 . S
H5530 C5548 0.951 . S
H5531 C5550 0.951 . S
H5532 C5552 0.950 . S
H5533 C5553 0.950 . S
H5534 C5555 0.950 . S
H5535 C5558 0.950 . S
H5536 C5559 0.950 . S
H5537 C5561 0.950 . S
H5538 C5562 0.950 . S
H5539 C5563 0.951 . S
H5540 C5565 0.951 . S
H5541 C5567 0.950 . S
H5542 C5568 0.950 . S
H5543 C5570 0.950 . S
H5544 C5573 0.950 . S
H5545 C5574 0.950 . S
H5546 C5576 0.950 . S
H5547 C5577 0.950 . S
C5548 H5530 0.951 . S
C5548 C5549 1.366 . S
C5548 C5550 1.388 . S
C5549 C5548 1.366 . S
C5549 C5553 1.385 . S
C5550 H5531 0.951 . S
C5550 C5548 1.388 . S
C5550 C5551 1.366 . S
C5551 C5550 1.366 . S
C5551 C5552 1.414 . S
C5551 C5554 1.499 . S
C5552 H5532 0.950 . S
C5552 C5551 1.414 . S
C5552 C5553 1.374 . S
C5553 H5533 0.950 . S
C5553 C5549 1.385 . S
C5553 C5552 1.374 . S
C5554 C5551 1.499 . S
C5554 C5555 1.373 . S
C5554 C5556 1.389 . S
C5555 H5534 0.950 . S
C5555 C5554 1.373 . S
C5555 C5571 1.377 . S
C5556 C5554 1.389 . S
C5556 C5557 1.524 . S
C5556 C5570 1.377 . S
C5557 C5556 1.524 . S
C5557 C5558 1.397 . S
C5557 C5562 1.363 . S
C5558 H5535 0.950 . S
C5558 C5557 1.397 . S
C5558 C5559 1.334 . S
C5559 H5536 0.950 . S
C5559 C5558 1.334 . S
C5559 C5560 1.287 . S
C5560 C5559 1.287 . S
C5560 C5561 1.524 . S
C5560 H5579 0.913 . S
C5561 H5537 0.950 . S
C5561 C5560 1.524 . S
C5561 C5562 1.415 . S
C5562 H5538 0.950 . S
C5562 C5557 1.363 . S
C5562 C5561 1.415 . S
C5563 H5539 0.951 . S
C5563 C5564 1.366 . S
C5563 C5565 1.388 . S
C5564 C5563 1.366 . S
C5564 C5568 1.385 . S
C5565 H5540 0.951 . S
C5565 C5563 1.388 . S
C5565 C5566 1.366 . S
C5566 C5565 1.366 . S
C5566 C5567 1.414 . S
C5566 C5569 1.499 . S
C5567 H5541 0.950 . S
C5567 C5566 1.414 . S
C5567 C5568 1.374 . S
C5568 H5542 0.950 . S
C5568 C5564 1.385 . S
C5568 C5567 1.374 . S
C5569 C5566 1.499 . S
C5569 C5570 1.373 . S
C5569 C5571 1.389 . S
C5570 H5543 0.950 . S
C5570 C5556 1.377 . S
C5570 C5569 1.373 . S
C5571 C5555 1.377 . S
C5571 C5569 1.389 . S
C5571 C5572 1.524 . S
C5572 C5571 1.524 . S
C5572 C5573 1.397 . S
C5572 C5577 1.363 . S
C5573 H5544 0.950 . S
C5573 C5572 1.397 . S
C5573 C5574 1.334 . S
C5574 H5545 0.950 . S
C5574 C5573 1.334 . S
C5574 C5575 1.287 . S
C5575 C5574 1.287 . S
C5575 C5576 1.524 . S
C5575 H5578 0.999 . S
C5576 H5546 0.950 . S
C5576 C5575 1.524 . S
C5576 C5577 1.415 . S
C5577 H5547 0.950 . S
C5577 C5572 1.363 . S
C5577 C5576 1.415 . S
H5578 C5575 0.999 . S
H5579 C5560 0.913 . S
H5580 C5598 0.951 . S
H5581 C5600 0.951 . S
H5582 C5602 0.950 . S
H5583 C5603 0.950 . S
H5584 C5605 0.950 . S
H5585 C5608 0.950 . S
H5586 C5609 0.950 . S
H5587 C5611 0.950 . S
H5588 C5612 0.950 . S
H5589 C5613 0.951 . S
H5590 C5615 0.951 . S
H5591 C5617 0.950 . S
H5592 C5618 0.950 . S
H5593 C5620 0.950 . S
H5594 C5623 0.950 . S
H5595 C5624 0.950 . S
H5596 C5626 0.950 . S
H5597 C5627 0.950 . S
C5598 H5580 0.951 . S
C5598 C5599 1.366 . S
C5598 C5600 1.388 . S
C5599 C5598 1.366 . S
C5599 C5603 1.385 . S
C5600 H5581 0.951 . S
C5600 C5598 1.388 . S
C5600 C5601 1.366 . S
C5601 C5600 1.366 . S
C5601 C5602 1.414 . S
C5601 C5604 1.499 . S
C5602 H5582 0.950 . S
C5602 C5601 1.414 . S
C5602 C5603 1.374 . S
C5603 H5583 0.950 . S
C5603 C5599 1.385 . S
C5603 C5602 1.374 . S
C5604 C5601 1.499 . S
C5604 C5605 1.373 . S
C5604 C5606 1.389 . S
C5605 H5584 0.950 . S
C5605 C5604 1.373 . S
C5605 C5621 1.377 . S
C5606 C5604 1.389 . S
C5606 C5607 1.524 . S
C5606 C5620 1.377 . S
C5607 C5606 1.524 . S
C5607 C5608 1.397 . S
C5607 C5612 1.363 . S
C5608 H5585 0.950 . S
C5608 C5607 1.397 . S
C5608 C5609 1.334 . S
C5609 H5586 0.950 . S
C5609 C5608 1.334 . S
C5609 C5610 1.287 . S
C5610 C5609 1.287 . S
C5610 C5611 1.524 . S
C5610 H5629 0.913 . S
C5611 H5587 0.950 . S
C5611 C5610 1.524 . S
C5611 C5612 1.415 . S
C5612 H5588 0.950 . S
C5612 C5607 1.363 . S
C5612 C5611 1.415 . S
C5613 H5589 0.951 . S
C5613 C5614 1.366 . S
C5613 C5615 1.388 . S
C5614 C5613 1.366 . S
C5614 C5618 1.385 . S
C5615 H5590 0.951 . S
C5615 C5613 1.388 . S
C5615 C5616 1.366 . S
C5616 C5615 1.366 . S
C5616 C5617 1.414 . S
C5616 C5619 1.499 . S
C5617 H5591 0.950 . S
C5617 C5616 1.414 . S
C5617 C5618 1.374 . S
C5618 H5592 0.950 . S
C5618 C5614 1.385 . S
C5618 C5617 1.374 . S
C5619 C5616 1.499 . S
C5619 C5620 1.373 . S
C5619 C5621 1.389 . S
C5620 H5593 0.950 . S
C5620 C5606 1.377 . S
C5620 C5619 1.373 . S
C5621 C5605 1.377 . S
C5621 C5619 1.389 . S
C5621 C5622 1.524 . S
C5622 C5621 1.524 . S
C5622 C5623 1.397 . S
C5622 C5627 1.363 . S
C5623 H5594 0.950 . S
C5623 C5622 1.397 . S
C5623 C5624 1.334 . S
C5624 H5595 0.950 . S
C5624 C5623 1.334 . S
C5624 C5625 1.287 . S
C5625 C5624 1.287 . S
C5625 C5626 1.524 . S
C5625 H5628 0.999 . S
C5626 H5596 0.950 . S
C5626 C5625 1.524 . S
C5626 C5627 1.415 . S
C5627 H5597 0.950 . S
C5627 C5622 1.363 . S
C5627 C5626 1.415 . S
H5628 C5625 0.999 . S
H5629 C5610 0.913 . S
H5630 C5648 0.951 . S
H5631 C5650 0.951 . S
H5632 C5652 0.950 . S
H5633 C5653 0.950 . S
H5634 C5655 0.950 . S
H5635 C5658 0.950 . S
H5636 C5659 0.950 . S
H5637 C5661 0.950 . S
H5638 C5662 0.950 . S
H5639 C5663 0.951 . S
H5640 C5665 0.951 . S
H5641 C5667 0.950 . S
H5642 C5668 0.950 . S
H5643 C5670 0.950 . S
H5644 C5673 0.950 . S
H5645 C5674 0.950 . S
H5646 C5676 0.950 . S
H5647 C5677 0.950 . S
C5648 H5630 0.951 . S
C5648 C5649 1.366 . S
C5648 C5650 1.388 . S
C5649 C5648 1.366 . S
C5649 C5653 1.385 . S
C5650 H5631 0.951 . S
C5650 C5648 1.388 . S
C5650 C5651 1.366 . S
C5651 C5650 1.366 . S
C5651 C5652 1.414 . S
C5651 C5654 1.499 . S
C5652 H5632 0.950 . S
C5652 C5651 1.414 . S
C5652 C5653 1.374 . S
C5653 H5633 0.950 . S
C5653 C5649 1.385 . S
C5653 C5652 1.374 . S
C5654 C5651 1.499 . S
C5654 C5655 1.373 . S
C5654 C5656 1.389 . S
C5655 H5634 0.950 . S
C5655 C5654 1.373 . S
C5655 C5671 1.377 . S
C5656 C5654 1.389 . S
C5656 C5657 1.524 . S
C5656 C5670 1.377 . S
C5657 C5656 1.524 . S
C5657 C5658 1.397 . S
C5657 C5662 1.363 . S
C5658 H5635 0.950 . S
C5658 C5657 1.397 . S
C5658 C5659 1.334 . S
C5659 H5636 0.950 . S
C5659 C5658 1.334 . S
C5659 C5660 1.287 . S
C5660 C5659 1.287 . S
C5660 C5661 1.524 . S
C5660 H5679 0.913 . S
C5661 H5637 0.950 . S
C5661 C5660 1.524 . S
C5661 C5662 1.415 . S
C5662 H5638 0.950 . S
C5662 C5657 1.363 . S
C5662 C5661 1.415 . S
C5663 H5639 0.951 . S
C5663 C5664 1.366 . S
C5663 C5665 1.388 . S
C5664 C5663 1.366 . S
C5664 C5668 1.385 . S
C5665 H5640 0.951 . S
C5665 C5663 1.388 . S
C5665 C5666 1.366 . S
C5666 C5665 1.366 . S
C5666 C5667 1.414 . S
C5666 C5669 1.499 . S
C5667 H5641 0.950 . S
C5667 C5666 1.414 . S
C5667 C5668 1.374 . S
C5668 H5642 0.950 . S
C5668 C5664 1.385 . S
C5668 C5667 1.374 . S
C5669 C5666 1.499 . S
C5669 C5670 1.373 . S
C5669 C5671 1.389 . S
C5670 H5643 0.950 . S
C5670 C5656 1.377 . S
C5670 C5669 1.373 . S
C5671 C5655 1.377 . S
C5671 C5669 1.389 . S
C5671 C5672 1.524 . S
C5672 C5671 1.524 . S
C5672 C5673 1.397 . S
C5672 C5677 1.363 . S
C5673 H5644 0.950 . S
C5673 C5672 1.397 . S
C5673 C5674 1.334 . S
C5674 H5645 0.950 . S
C5674 C5673 1.334 . S
C5674 C5675 1.287 . S
C5675 C5674 1.287 . S
C5675 C5676 1.524 . S
C5675 H5678 0.999 . S
C5676 H5646 0.950 . S
C5676 C5675 1.524 . S
C5676 C5677 1.415 . S
C5677 H5647 0.950 . S
C5677 C5672 1.363 . S
C5677 C5676 1.415 . S
H5678 C5675 0.999 . S
H5679 C5660 0.913 . S
H5680 C5698 0.951 . S
H5681 C5700 0.951 . S
H5682 C5702 0.950 . S
H5683 C5703 0.950 . S
H5684 C5705 0.950 . S
H5685 C5708 0.950 . S
H5686 C5709 0.950 . S
H5687 C5711 0.950 . S
H5688 C5712 0.950 . S
H5689 C5713 0.951 . S
H5690 C5715 0.951 . S
H5691 C5717 0.950 . S
H5692 C5718 0.950 . S
H5693 C5720 0.950 . S
H5694 C5723 0.950 . S
H5695 C5724 0.950 . S
H5696 C5726 0.950 . S
H5697 C5727 0.950 . S
C5698 H5680 0.951 . S
C5698 C5699 1.366 . S
C5698 C5700 1.388 . S
C5699 C5698 1.366 . S
C5699 C5703 1.385 . S
C5700 H5681 0.951 . S
C5700 C5698 1.388 . S
C5700 C5701 1.366 . S
C5701 C5700 1.366 . S
C5701 C5702 1.414 . S
C5701 C5704 1.499 . S
C5702 H5682 0.950 . S
C5702 C5701 1.414 . S
C5702 C5703 1.374 . S
C5703 H5683 0.950 . S
C5703 C5699 1.385 . S
C5703 C5702 1.374 . S
C5704 C5701 1.499 . S
C5704 C5705 1.373 . S
C5704 C5706 1.389 . S
C5705 H5684 0.950 . S
C5705 C5704 1.373 . S
C5705 C5721 1.377 . S
C5706 C5704 1.389 . S
C5706 C5707 1.524 . S
C5706 C5720 1.377 . S
C5707 C5706 1.524 . S
C5707 C5708 1.397 . S
C5707 C5712 1.363 . S
C5708 H5685 0.950 . S
C5708 C5707 1.397 . S
C5708 C5709 1.334 . S
C5709 H5686 0.950 . S
C5709 C5708 1.334 . S
C5709 C5710 1.287 . S
C5710 C5709 1.287 . S
C5710 C5711 1.524 . S
C5710 H5729 0.913 . S
C5711 H5687 0.950 . S
C5711 C5710 1.524 . S
C5711 C5712 1.415 . S
C5712 H5688 0.950 . S
C5712 C5707 1.363 . S
C5712 C5711 1.415 . S
C5713 H5689 0.951 . S
C5713 C5714 1.366 . S
C5713 C5715 1.388 . S
C5714 C5713 1.366 . S
C5714 C5718 1.385 . S
C5715 H5690 0.951 . S
C5715 C5713 1.388 . S
C5715 C5716 1.366 . S
C5716 C5715 1.366 . S
C5716 C5717 1.414 . S
C5716 C5719 1.499 . S
C5717 H5691 0.950 . S
C5717 C5716 1.414 . S
C5717 C5718 1.374 . S
C5718 H5692 0.950 . S
C5718 C5714 1.385 . S
C5718 C5717 1.374 . S
C5719 C5716 1.499 . S
C5719 C5720 1.373 . S
C5719 C5721 1.389 . S
C5720 H5693 0.950 . S
C5720 C5706 1.377 . S
C5720 C5719 1.373 . S
C5721 C5705 1.377 . S
C5721 C5719 1.389 . S
C5721 C5722 1.524 . S
C5722 C5721 1.524 . S
C5722 C5723 1.397 . S
C5722 C5727 1.363 . S
C5723 H5694 0.950 . S
C5723 C5722 1.397 . S
C5723 C5724 1.334 . S
C5724 H5695 0.950 . S
C5724 C5723 1.334 . S
C5724 C5725 1.287 . S
C5725 C5724 1.287 . S
C5725 C5726 1.524 . S
C5725 H5728 0.999 . S
C5726 H5696 0.950 . S
C5726 C5725 1.524 . S
C5726 C5727 1.415 . S
C5727 H5697 0.950 . S
C5727 C5722 1.363 . S
C5727 C5726 1.415 . S
H5728 C5725 0.999 . S
H5729 C5710 0.913 . S
H5730 C5748 0.951 . S
H5731 C5750 0.951 . S
H5732 C5752 0.950 . S
H5733 C5753 0.950 . S
H5734 C5755 0.950 . S
H5735 C5758 0.950 . S
H5736 C5759 0.950 . S
H5737 C5761 0.950 . S
H5738 C5762 0.950 . S
H5739 C5763 0.951 . S
H5740 C5765 0.951 . S
H5741 C5767 0.950 . S
H5742 C5768 0.950 . S
H5743 C5770 0.950 . S
H5744 C5773 0.950 . S
H5745 C5774 0.950 . S
H5746 C5776 0.950 . S
H5747 C5777 0.950 . S
C5748 H5730 0.951 . S
C5748 C5749 1.366 . S
C5748 C5750 1.388 . S
C5749 C5748 1.366 . S
C5749 C5753 1.385 . S
C5750 H5731 0.951 . S
C5750 C5748 1.388 . S
C5750 C5751 1.366 . S
C5751 C5750 1.366 . S
C5751 C5752 1.414 . S
C5751 C5754 1.499 . S
C5752 H5732 0.950 . S
C5752 C5751 1.414 . S
C5752 C5753 1.374 . S
C5753 H5733 0.950 . S
C5753 C5749 1.385 . S
C5753 C5752 1.374 . S
C5754 C5751 1.499 . S
C5754 C5755 1.373 . S
C5754 C5756 1.389 . S
C5755 H5734 0.950 . S
C5755 C5754 1.373 . S
C5755 C5771 1.377 . S
C5756 C5754 1.389 . S
C5756 C5757 1.524 . S
C5756 C5770 1.377 . S
C5757 C5756 1.524 . S
C5757 C5758 1.397 . S
C5757 C5762 1.363 . S
C5758 H5735 0.950 . S
C5758 C5757 1.397 . S
C5758 C5759 1.334 . S
C5759 H5736 0.950 . S
C5759 C5758 1.334 . S
C5759 C5760 1.287 . S
C5760 C5759 1.287 . S
C5760 C5761 1.524 . S
C5760 H5779 0.913 . S
C5761 H5737 0.950 . S
C5761 C5760 1.524 . S
C5761 C5762 1.415 . S
C5762 H5738 0.950 . S
C5762 C5757 1.363 . S
C5762 C5761 1.415 . S
C5763 H5739 0.951 . S
C5763 C5764 1.366 . S
C5763 C5765 1.388 . S
C5764 C5763 1.366 . S
C5764 C5768 1.385 . S
C5765 H5740 0.951 . S
C5765 C5763 1.388 . S
C5765 C5766 1.366 . S
C5766 C5765 1.366 . S
C5766 C5767 1.414 . S
C5766 C5769 1.499 . S
C5767 H5741 0.950 . S
C5767 C5766 1.414 . S
C5767 C5768 1.374 . S
C5768 H5742 0.950 . S
C5768 C5764 1.385 . S
C5768 C5767 1.374 . S
C5769 C5766 1.499 . S
C5769 C5770 1.373 . S
C5769 C5771 1.389 . S
C5770 H5743 0.950 . S
C5770 C5756 1.377 . S
C5770 C5769 1.373 . S
C5771 C5755 1.377 . S
C5771 C5769 1.389 . S
C5771 C5772 1.524 . S
C5772 C5771 1.524 . S
C5772 C5773 1.397 . S
C5772 C5777 1.363 . S
C5773 H5744 0.950 . S
C5773 C5772 1.397 . S
C5773 C5774 1.334 . S
C5774 H5745 0.950 . S
C5774 C5773 1.334 . S
C5774 C5775 1.287 . S
C5775 C5774 1.287 . S
C5775 C5776 1.524 . S
C5775 H5778 0.999 . S
C5776 H5746 0.950 . S
C5776 C5775 1.524 . S
C5776 C5777 1.415 . S
C5777 H5747 0.950 . S
C5777 C5772 1.363 . S
C5777 C5776 1.415 . S
H5778 C5775 0.999 . S
H5779 C5760 0.913 . S
H5780 C5798 0.951 . S
H5781 C5800 0.951 . S
H5782 C5802 0.950 . S
H5783 C5803 0.950 . S
H5784 C5805 0.950 . S
H5785 C5808 0.950 . S
H5786 C5809 0.950 . S
H5787 C5811 0.950 . S
H5788 C5812 0.950 . S
H5789 C5813 0.951 . S
H5790 C5815 0.951 . S
H5791 C5817 0.950 . S
H5792 C5818 0.942 1_655 S
H5793 C5820 0.950 . S
H5794 C5823 0.950 1_655 S
H5795 C5824 0.950 . S
H5796 C5826 0.950 . S
H5797 C5827 0.950 . S
C5798 H5780 0.951 . S
C5798 C5799 1.366 . S
C5798 C5800 1.388 . S
C5799 C5798 1.366 . S
C5799 C5803 1.385 . S
C5800 H5781 0.951 . S
C5800 C5798 1.388 . S
C5800 C5801 1.366 . S
C5801 C5800 1.366 . S
C5801 C5802 1.414 . S
C5801 C5804 1.499 . S
C5802 H5782 0.950 . S
C5802 C5801 1.414 . S
C5802 C5803 1.374 . S
C5803 H5783 0.950 . S
C5803 C5799 1.385 . S
C5803 C5802 1.374 . S
C5804 C5801 1.499 . S
C5804 C5805 1.373 . S
C5804 C5806 1.389 . S
C5805 H5784 0.950 . S
C5805 C5804 1.373 . S
C5805 C5821 1.377 . S
C5806 C5804 1.389 . S
C5806 C5807 1.524 . S
C5806 C5820 1.377 . S
C5807 C5806 1.524 . S
C5807 C5808 1.397 . S
C5807 C5812 1.363 . S
C5808 H5785 0.950 . S
C5808 C5807 1.397 . S
C5808 C5809 1.334 . S
C5809 H5786 0.950 . S
C5809 C5808 1.334 . S
C5809 C5810 1.287 . S
C5810 C5809 1.287 . S
C5810 C5811 1.524 . S
C5810 H5829 0.913 . S
C5811 H5787 0.950 . S
C5811 C5810 1.524 . S
C5811 C5812 1.415 . S
C5812 H5788 0.950 . S
C5812 C5807 1.363 . S
C5812 C5811 1.415 . S
C5813 H5789 0.951 . S
C5813 C5814 1.366 . S
C5813 C5815 1.388 . S
C5814 C5813 1.366 . S
C5814 C5818 1.385 . S
C5815 H5790 0.951 . S
C5815 C5813 1.388 . S
C5815 C5816 1.366 . S
C5816 C5815 1.366 . S
C5816 C5817 1.414 1_455 S
C5816 C5819 1.499 1_455 S
C5817 H5791 0.950 . S
C5817 C5816 1.414 1_655 S
C5817 C5818 1.374 1_655 S
C5818 H5792 0.942 1_455 S
C5818 C5814 1.385 . S
C5818 C5817 1.374 1_455 S
C5819 C5816 1.499 1_655 S
C5819 C5820 1.373 . S
C5819 C5821 1.389 . S
C5820 H5793 0.950 . S
C5820 C5806 1.377 . S
C5820 C5819 1.373 . S
C5821 C5805 1.377 . S
C5821 C5819 1.389 . S
C5821 C5822 1.524 1_655 S
C5822 C5821 1.524 1_455 S
C5822 C5823 1.397 . S
C5822 C5827 1.363 . S
C5823 H5794 0.950 1_455 S
C5823 C5822 1.397 . S
C5823 C5824 1.334 . S
C5824 H5795 0.950 . S
C5824 C5823 1.334 . S
C5824 C5825 1.287 . S
C5825 C5824 1.287 . S
C5825 C5826 1.524 . S
C5825 H5828 0.999 . S
C5826 H5796 0.950 . S
C5826 C5825 1.524 . S
C5826 C5827 1.415 . S
C5827 H5797 0.950 . S
C5827 C5822 1.363 . S
C5827 C5826 1.415 . S
H5828 C5825 0.999 . S
H5829 C5810 0.913 . S
H5830 C5848 0.951 . S
H5831 C5850 0.951 . S
H5832 C5852 0.950 . S
H5833 C5853 0.950 . S
H5834 C5855 0.950 . S
H5835 C5858 0.950 . S
H5836 C5859 0.950 . S
H5837 C5861 0.950 . S
H5838 C5862 0.950 . S
H5839 C5863 0.951 . S
H5840 C5865 0.951 . S
H5841 C5867 0.950 . S
H5842 C5868 0.950 . S
H5843 C5870 0.950 . S
H5844 C5873 0.950 . S
H5845 C5874 0.950 . S
H5846 C5876 0.950 . S
H5847 C5877 0.950 . S
C5848 H5830 0.951 . S
C5848 C5849 1.366 . S
C5848 C5850 1.388 . S
C5849 C5848 1.366 . S
C5849 C5853 1.385 . S
C5850 H5831 0.951 . S
C5850 C5848 1.388 . S
C5850 C5851 1.366 . S
C5851 C5850 1.366 . S
C5851 C5852 1.414 . S
C5851 C5854 1.499 . S
C5852 H5832 0.950 . S
C5852 C5851 1.414 . S
C5852 C5853 1.374 . S
C5853 H5833 0.950 . S
C5853 C5849 1.385 . S
C5853 C5852 1.374 . S
C5854 C5851 1.499 . S
C5854 C5855 1.373 . S
C5854 C5856 1.389 . S
C5855 H5834 0.950 . S
C5855 C5854 1.373 . S
C5855 C5871 1.377 . S
C5856 C5854 1.389 . S
C5856 C5857 1.524 . S
C5856 C5870 1.377 . S
C5857 C5856 1.524 . S
C5857 C5858 1.397 . S
C5857 C5862 1.363 . S
C5858 H5835 0.950 . S
C5858 C5857 1.397 . S
C5858 C5859 1.334 . S
C5859 H5836 0.950 . S
C5859 C5858 1.334 . S
C5859 C5860 1.287 . S
C5860 C5859 1.287 . S
C5860 C5861 1.524 . S
C5860 H5879 0.913 . S
C5861 H5837 0.950 . S
C5861 C5860 1.524 . S
C5861 C5862 1.415 . S
C5862 H5838 0.950 . S
C5862 C5857 1.363 . S
C5862 C5861 1.415 . S
C5863 H5839 0.951 . S
C5863 C5864 1.366 . S
C5863 C5865 1.388 . S
C5864 C5863 1.366 . S
C5864 C5868 1.385 . S
C5865 H5840 0.951 . S
C5865 C5863 1.388 . S
C5865 C5866 1.366 . S
C5866 C5865 1.366 . S
C5866 C5867 1.414 . S
C5866 C5869 1.499 . S
C5867 H5841 0.950 . S
C5867 C5866 1.414 . S
C5867 C5868 1.374 . S
C5868 H5842 0.950 . S
C5868 C5864 1.385 . S
C5868 C5867 1.374 . S
C5869 C5866 1.499 . S
C5869 C5870 1.373 . S
C5869 C5871 1.389 . S
C5870 H5843 0.950 . S
C5870 C5856 1.377 . S
C5870 C5869 1.373 . S
C5871 C5855 1.377 . S
C5871 C5869 1.389 . S
C5871 C5872 1.524 . S
C5872 C5871 1.524 . S
C5872 C5873 1.397 . S
C5872 C5877 1.363 . S
C5873 H5844 0.950 . S
C5873 C5872 1.397 . S
C5873 C5874 1.334 . S
C5874 H5845 0.950 . S
C5874 C5873 1.334 . S
C5874 C5875 1.287 . S
C5875 C5874 1.287 . S
C5875 C5876 1.524 . S
C5875 H5878 0.999 . S
C5876 H5846 0.950 . S
C5876 C5875 1.524 . S
C5876 C5877 1.415 . S
C5877 H5847 0.950 . S
C5877 C5872 1.363 . S
C5877 C5876 1.415 . S
H5878 C5875 0.999 . S
H5879 C5860 0.913 . S
H5880 C5898 0.951 . S
H5881 C5900 0.951 . S
H5882 C5902 0.950 . S
H5883 C5903 0.950 . S
H5884 C5905 0.950 . S
H5885 C5908 0.950 . S
H5886 C5909 0.950 . S
H5887 C5911 0.950 . S
H5888 C5912 0.950 . S
H5889 C5913 0.951 . S
H5890 C5915 0.951 . S
H5891 C5917 0.950 . S
H5892 C5918 0.950 . S
H5893 C5920 0.950 . S
H5894 C5923 0.950 . S
H5895 C5924 0.950 . S
H5896 C5926 0.950 . S
H5897 C5927 0.950 . S
C5898 H5880 0.951 . S
C5898 C5899 1.366 . S
C5898 C5900 1.388 . S
C5899 C5898 1.366 . S
C5899 C5903 1.385 . S
C5900 H5881 0.951 . S
C5900 C5898 1.388 . S
C5900 C5901 1.366 . S
C5901 C5900 1.366 . S
C5901 C5902 1.414 . S
C5901 C5904 1.499 . S
C5902 H5882 0.950 . S
C5902 C5901 1.414 . S
C5902 C5903 1.374 . S
C5903 H5883 0.950 . S
C5903 C5899 1.385 . S
C5903 C5902 1.374 . S
C5904 C5901 1.499 . S
C5904 C5905 1.373 . S
C5904 C5906 1.389 . S
C5905 H5884 0.950 . S
C5905 C5904 1.373 . S
C5905 C5921 1.377 . S
C5906 C5904 1.389 . S
C5906 C5907 1.524 . S
C5906 C5920 1.377 . S
C5907 C5906 1.524 . S
C5907 C5908 1.397 . S
C5907 C5912 1.363 . S
C5908 H5885 0.950 . S
C5908 C5907 1.397 . S
C5908 C5909 1.334 . S
C5909 H5886 0.950 . S
C5909 C5908 1.334 . S
C5909 C5910 1.287 . S
C5910 C5909 1.287 . S
C5910 C5911 1.524 . S
C5910 H5929 0.913 . S
C5911 H5887 0.950 . S
C5911 C5910 1.524 . S
C5911 C5912 1.415 . S
C5912 H5888 0.950 . S
C5912 C5907 1.363 . S
C5912 C5911 1.415 . S
C5913 H5889 0.951 . S
C5913 C5914 1.366 . S
C5913 C5915 1.388 . S
C5914 C5913 1.366 . S
C5914 C5918 1.385 . S
C5915 H5890 0.951 . S
C5915 C5913 1.388 . S
C5915 C5916 1.366 . S
C5916 C5915 1.366 . S
C5916 C5917 1.414 . S
C5916 C5919 1.499 . S
C5917 H5891 0.950 . S
C5917 C5916 1.414 . S
C5917 C5918 1.374 . S
C5918 H5892 0.950 . S
C5918 C5914 1.385 . S
C5918 C5917 1.374 . S
C5919 C5916 1.499 . S
C5919 C5920 1.373 . S
C5919 C5921 1.389 . S
C5920 H5893 0.950 . S
C5920 C5906 1.377 . S
C5920 C5919 1.373 . S
C5921 C5905 1.377 . S
C5921 C5919 1.389 . S
C5921 C5922 1.524 . S
C5922 C5921 1.524 . S
C5922 C5923 1.397 . S
C5922 C5927 1.363 . S
C5923 H5894 0.950 . S
C5923 C5922 1.397 . S
C5923 C5924 1.334 . S
C5924 H5895 0.950 . S
C5924 C5923 1.334 . S
C5924 C5925 1.287 . S
C5925 C5924 1.287 . S
C5925 C5926 1.524 . S
C5925 H5928 0.999 . S
C5926 H5896 0.950 . S
C5926 C5925 1.524 . S
C5926 C5927 1.415 . S
C5927 H5897 0.950 . S
C5927 C5922 1.363 . S
C5927 C5926 1.415 . S
H5928 C5925 0.999 . S
H5929 C5910 0.913 . S
H5930 C5948 0.951 . S
H5931 C5950 0.951 . S
H5932 C5952 0.950 . S
H5933 C5953 0.950 . S
H5934 C5955 0.950 . S
H5935 C5958 0.950 . S
H5936 C5959 0.950 . S
H5937 C5961 0.950 . S
H5938 C5962 0.950 . S
H5939 C5963 0.951 . S
H5940 C5965 0.951 . S
H5941 C5967 0.950 . S
H5942 C5968 0.950 . S
H5943 C5970 0.950 . S
H5944 C5973 0.950 . S
H5945 C5974 0.950 . S
H5946 C5976 0.950 . S
H5947 C5977 0.950 . S
C5948 H5930 0.951 . S
C5948 C5949 1.366 . S
C5948 C5950 1.388 . S
C5949 C5948 1.366 . S
C5949 C5953 1.385 . S
C5950 H5931 0.951 . S
C5950 C5948 1.388 . S
C5950 C5951 1.366 . S
C5951 C5950 1.366 . S
C5951 C5952 1.414 . S
C5951 C5954 1.499 . S
C5952 H5932 0.950 . S
C5952 C5951 1.414 . S
C5952 C5953 1.374 . S
C5953 H5933 0.950 . S
C5953 C5949 1.385 . S
C5953 C5952 1.374 . S
C5954 C5951 1.499 . S
C5954 C5955 1.373 . S
C5954 C5956 1.389 . S
C5955 H5934 0.950 . S
C5955 C5954 1.373 . S
C5955 C5971 1.377 . S
C5956 C5954 1.389 . S
C5956 C5957 1.524 . S
C5956 C5970 1.377 . S
C5957 C5956 1.524 . S
C5957 C5958 1.397 . S
C5957 C5962 1.363 . S
C5958 H5935 0.950 . S
C5958 C5957 1.397 . S
C5958 C5959 1.334 . S
C5959 H5936 0.950 . S
C5959 C5958 1.334 . S
C5959 C5960 1.287 . S
C5960 C5959 1.287 . S
C5960 C5961 1.524 . S
C5960 H5979 0.913 . S
C5961 H5937 0.950 . S
C5961 C5960 1.524 . S
C5961 C5962 1.415 . S
C5962 H5938 0.950 . S
C5962 C5957 1.363 . S
C5962 C5961 1.415 . S
C5963 H5939 0.951 . S
C5963 C5964 1.366 . S
C5963 C5965 1.388 . S
C5964 C5963 1.366 . S
C5964 C5968 1.385 . S
C5965 H5940 0.951 . S
C5965 C5963 1.388 . S
C5965 C5966 1.366 . S
C5966 C5965 1.366 . S
C5966 C5967 1.414 . S
C5966 C5969 1.499 . S
C5967 H5941 0.950 . S
C5967 C5966 1.414 . S
C5967 C5968 1.374 . S
C5968 H5942 0.950 . S
C5968 C5964 1.385 . S
C5968 C5967 1.374 . S
C5969 C5966 1.499 . S
C5969 C5970 1.373 . S
C5969 C5971 1.389 . S
C5970 H5943 0.950 . S
C5970 C5956 1.377 . S
C5970 C5969 1.373 . S
C5971 C5955 1.377 . S
C5971 C5969 1.389 . S
C5971 C5972 1.524 . S
C5972 C5971 1.524 . S
C5972 C5973 1.397 . S
C5972 C5977 1.363 . S
C5973 H5944 0.950 . S
C5973 C5972 1.397 . S
C5973 C5974 1.334 . S
C5974 H5945 0.950 . S
C5974 C5973 1.334 . S
C5974 C5975 1.287 . S
C5975 C5974 1.287 . S
C5975 C5976 1.524 . S
C5975 H5978 0.999 . S
C5976 H5946 0.950 . S
C5976 C5975 1.524 . S
C5976 C5977 1.415 . S
C5977 H5947 0.950 . S
C5977 C5972 1.363 . S
C5977 C5976 1.415 . S
H5978 C5975 0.999 . S
H5979 C5960 0.913 . S
H5980 C5998 0.951 . S
H5981 C6000 0.951 . S
H5982 C6002 0.950 . S
H5983 C6003 0.950 . S
H5984 C6005 0.950 . S
H5985 C6008 0.950 . S
H5986 C6009 0.950 . S
H5987 C6011 0.950 . S
H5988 C6012 0.950 . S
H5989 C6013 0.951 . S
H5990 C6015 0.951 . S
H5991 C6017 0.950 . S
H5992 C6018 0.950 . S
H5993 C6020 0.950 . S
H5994 C6023 0.950 . S
H5995 C6024 0.950 . S
H5996 C6026 0.950 . S
H5997 C6027 0.950 . S
C5998 H5980 0.951 . S
C5998 C5999 1.366 . S
C5998 C6000 1.388 . S
C5999 C5998 1.366 . S
C5999 C6003 1.385 . S
C6000 H5981 0.951 . S
C6000 C5998 1.388 . S
C6000 C6001 1.366 . S
C6001 C6000 1.366 . S
C6001 C6002 1.414 . S
C6001 C6004 1.499 . S
C6002 H5982 0.950 . S
C6002 C6001 1.414 . S
C6002 C6003 1.374 . S
C6003 H5983 0.950 . S
C6003 C5999 1.385 . S
C6003 C6002 1.374 . S
C6004 C6001 1.499 . S
C6004 C6005 1.373 . S
C6004 C6006 1.389 . S
C6005 H5984 0.950 . S
C6005 C6004 1.373 . S
C6005 C6021 1.377 . S
C6006 C6004 1.389 . S
C6006 C6007 1.524 . S
C6006 C6020 1.377 . S
C6007 C6006 1.524 . S
C6007 C6008 1.397 . S
C6007 C6012 1.363 . S
C6008 H5985 0.950 . S
C6008 C6007 1.397 . S
C6008 C6009 1.334 1_655 S
C6009 H5986 0.950 . S
C6009 C6008 1.334 1_455 S
C6009 C6010 1.287 . S
C6010 C6009 1.287 . S
C6010 C6011 1.524 . S
C6010 H6029 0.913 . S
C6011 H5987 0.950 . S
C6011 C6010 1.524 . S
C6011 C6012 1.415 1_455 S
C6012 H5988 0.950 . S
C6012 C6007 1.363 . S
C6012 C6011 1.415 1_655 S
C6013 H5989 0.951 . S
C6013 C6014 1.371 . S
C6013 C6015 1.388 . S
C6014 C6013 1.371 . S
C6014 C6018 1.385 . S
C6015 H5990 0.951 . S
C6015 C6013 1.388 . S
C6015 C6016 1.366 . S
C6016 C6015 1.366 . S
C6016 C6017 1.414 . S
C6016 C6019 1.499 . S
C6017 H5991 0.950 . S
C6017 C6016 1.414 . S
C6017 C6018 1.374 . S
C6018 H5992 0.950 . S
C6018 C6014 1.385 . S
C6018 C6017 1.374 . S
C6019 C6016 1.499 . S
C6019 C6020 1.373 . S
C6019 C6021 1.389 . S
C6020 H5993 0.950 . S
C6020 C6006 1.377 . S
C6020 C6019 1.373 . S
C6021 C6005 1.377 . S
C6021 C6019 1.389 . S
C6021 C6022 1.524 . S
C6022 C6021 1.524 . S
C6022 C6023 1.397 . S
C6022 C6027 1.363 . S
C6023 H5994 0.950 . S
C6023 C6022 1.397 . S
C6023 C6024 1.334 . S
C6024 H5995 0.950 . S
C6024 C6023 1.334 . S
C6024 C6025 1.287 . S
C6025 C6024 1.287 . S
C6025 C6026 1.524 . S
C6025 H6028 0.999 . S
C6026 H5996 0.950 . S
C6026 C6025 1.524 . S
C6026 C6027 1.415 . S
C6027 H5997 0.950 . S
C6027 C6022 1.363 . S
C6027 C6026 1.415 . S
H6028 C6025 0.999 . S
H6029 C6010 0.913 . S
H6030 C6048 0.951 . S
H6031 C6050 0.951 . S
H6032 C6052 0.950 . S
H6033 C6053 0.950 . S
H6034 C6055 0.950 . S
H6035 C6058 0.950 . S
H6036 C6059 0.950 . S
H6037 C6061 0.950 . S
H6038 C6062 0.950 . S
H6039 C6063 0.951 . S
H6040 C6065 0.951 . S
H6041 C6067 0.950 . S
H6042 C6068 0.950 . S
H6043 C6070 0.950 . S
H6044 C6073 0.950 . S
H6045 C6074 0.950 . S
H6046 C6076 0.950 . S
H6047 C6077 0.950 . S
C6048 H6030 0.951 . S
C6048 C6049 1.366 . S
C6048 C6050 1.388 . S
C6049 C6048 1.366 . S
C6049 C6053 1.385 . S
C6050 H6031 0.951 . S
C6050 C6048 1.388 . S
C6050 C6051 1.366 . S
C6051 C6050 1.366 . S
C6051 C6052 1.414 . S
C6051 C6054 1.499 . S
C6052 H6032 0.950 . S
C6052 C6051 1.414 . S
C6052 C6053 1.374 . S
C6053 H6033 0.950 . S
C6053 C6049 1.385 . S
C6053 C6052 1.374 . S
C6054 C6051 1.499 . S
C6054 C6055 1.373 . S
C6054 C6056 1.389 . S
C6055 H6034 0.950 . S
C6055 C6054 1.373 . S
C6055 C6071 1.377 . S
C6056 C6054 1.389 . S
C6056 C6057 1.524 . S
C6056 C6070 1.377 . S
C6057 C6056 1.524 . S
C6057 C6058 1.397 . S
C6057 C6062 1.363 . S
C6058 H6035 0.950 . S
C6058 C6057 1.397 . S
C6058 C6059 1.334 . S
C6059 H6036 0.950 . S
C6059 C6058 1.334 . S
C6059 C6060 1.287 . S
C6060 C6059 1.287 . S
C6060 C6061 1.524 . S
C6060 H6079 0.913 . S
C6061 H6037 0.950 . S
C6061 C6060 1.524 . S
C6061 C6062 1.415 . S
C6062 H6038 0.950 . S
C6062 C6057 1.363 . S
C6062 C6061 1.415 . S
C6063 H6039 0.951 . S
C6063 C6064 1.366 . S
C6063 C6065 1.388 . S
C6064 C6063 1.366 . S
C6064 C6068 1.385 . S
C6065 H6040 0.951 . S
C6065 C6063 1.388 . S
C6065 C6066 1.366 . S
C6066 C6065 1.366 . S
C6066 C6067 1.414 . S
C6066 C6069 1.499 . S
C6067 H6041 0.950 . S
C6067 C6066 1.414 . S
C6067 C6068 1.374 . S
C6068 H6042 0.950 . S
C6068 C6064 1.385 . S
C6068 C6067 1.374 . S
C6069 C6066 1.499 . S
C6069 C6070 1.373 . S
C6069 C6071 1.389 . S
C6070 H6043 0.950 . S
C6070 C6056 1.377 . S
C6070 C6069 1.373 . S
C6071 C6055 1.377 . S
C6071 C6069 1.389 . S
C6071 C6072 1.524 . S
C6072 C6071 1.524 . S
C6072 C6073 1.397 . S
C6072 C6077 1.363 . S
C6073 H6044 0.950 . S
C6073 C6072 1.397 . S
C6073 C6074 1.334 . S
C6074 H6045 0.950 . S
C6074 C6073 1.334 . S
C6074 C6075 1.287 . S
C6075 C6074 1.287 . S
C6075 C6076 1.524 . S
C6075 H6078 0.999 . S
C6076 H6046 0.950 . S
C6076 C6075 1.524 . S
C6076 C6077 1.415 . S
C6077 H6047 0.950 . S
C6077 C6072 1.363 . S
C6077 C6076 1.415 . S
H6078 C6075 0.999 . S
H6079 C6060 0.913 . S
H6080 C6098 0.951 . S
H6081 C6100 0.951 . S
H6082 C6102 0.950 . S
H6083 C6103 0.950 . S
H6084 C6105 0.950 . S
H6085 C6108 0.950 . S
H6086 C6109 0.950 . S
H6087 C6111 0.950 . S
H6088 C6112 0.950 . S
H6089 C6113 0.951 . S
H6090 C6115 0.951 . S
H6091 C6117 0.950 . S
H6092 C6118 0.950 . S
H6093 C6120 0.950 . S
H6094 C6123 0.950 . S
H6095 C6124 0.950 . S
H6096 C6126 0.950 . S
H6097 C6127 0.950 . S
C6098 H6080 0.951 . S
C6098 C6099 1.366 . S
C6098 C6100 1.388 . S
C6099 C6098 1.366 . S
C6099 C6103 1.385 . S
C6100 H6081 0.951 . S
C6100 C6098 1.388 . S
C6100 C6101 1.366 . S
C6101 C6100 1.366 . S
C6101 C6102 1.414 . S
C6101 C6104 1.499 . S
C6102 H6082 0.950 . S
C6102 C6101 1.414 . S
C6102 C6103 1.374 . S
C6103 H6083 0.950 . S
C6103 C6099 1.385 . S
C6103 C6102 1.374 . S
C6104 C6101 1.499 . S
C6104 C6105 1.373 . S
C6104 C6106 1.389 . S
C6105 H6084 0.950 . S
C6105 C6104 1.373 . S
C6105 C6121 1.377 . S
C6106 C6104 1.389 . S
C6106 C6107 1.524 . S
C6106 C6120 1.377 . S
C6107 C6106 1.524 . S
C6107 C6108 1.397 . S
C6107 C6112 1.363 . S
C6108 H6085 0.950 . S
C6108 C6107 1.397 . S
C6108 C6109 1.334 . S
C6109 H6086 0.950 . S
C6109 C6108 1.334 . S
C6109 C6110 1.287 . S
C6110 C6109 1.287 . S
C6110 C6111 1.524 . S
C6110 H6129 0.913 . S
C6111 H6087 0.950 . S
C6111 C6110 1.524 . S
C6111 C6112 1.415 . S
C6112 H6088 0.950 . S
C6112 C6107 1.363 . S
C6112 C6111 1.415 . S
C6113 H6089 0.951 . S
C6113 C6114 1.366 . S
C6113 C6115 1.388 . S
C6114 C6113 1.366 . S
C6114 C6118 1.385 . S
C6115 H6090 0.951 . S
C6115 C6113 1.388 . S
C6115 C6116 1.366 . S
C6116 C6115 1.366 . S
C6116 C6117 1.414 . S
C6116 C6119 1.499 . S
C6117 H6091 0.950 . S
C6117 C6116 1.414 . S
C6117 C6118 1.374 . S
C6118 H6092 0.950 . S
C6118 C6114 1.385 . S
C6118 C6117 1.374 . S
C6119 C6116 1.499 . S
C6119 C6120 1.373 . S
C6119 C6121 1.389 . S
C6120 H6093 0.950 . S
C6120 C6106 1.377 . S
C6120 C6119 1.373 . S
C6121 C6105 1.377 . S
C6121 C6119 1.389 . S
C6121 C6122 1.524 . S
C6122 C6121 1.524 . S
C6122 C6123 1.397 . S
C6122 C6127 1.363 . S
C6123 H6094 0.950 . S
C6123 C6122 1.397 . S
C6123 C6124 1.334 . S
C6124 H6095 0.950 . S
C6124 C6123 1.334 . S
C6124 C6125 1.287 . S
C6125 C6124 1.287 . S
C6125 C6126 1.524 . S
C6125 H6128 0.999 . S
C6126 H6096 0.950 . S
C6126 C6125 1.524 . S
C6126 C6127 1.415 . S
C6127 H6097 0.950 . S
C6127 C6122 1.363 . S
C6127 C6126 1.415 . S
H6128 C6125 0.999 . S
H6129 C6110 0.913 . S
H6130 C6148 0.951 . S
H6131 C6150 0.951 . S
H6132 C6152 0.950 . S
H6133 C6153 0.950 . S
H6134 C6155 0.950 . S
H6135 C6158 0.950 . S
H6136 C6159 0.950 . S
H6137 C6161 0.950 . S
H6138 C6162 0.950 . S
H6139 C6163 0.951 . S
H6140 C6165 0.951 . S
H6141 C6167 0.950 . S
H6142 C6168 0.971 . S
H6143 C6170 0.950 . S
H6144 C6173 0.950 . S
H6145 C6174 0.950 . S
H6146 C6176 0.950 . S
H6147 C6177 0.950 . S
C6148 H6130 0.951 . S
C6148 C6149 1.366 . S
C6148 C6150 1.388 . S
C6149 C6148 1.366 . S
C6149 C6153 1.385 . S
C6150 H6131 0.951 . S
C6150 C6148 1.388 . S
C6150 C6151 1.366 . S
C6151 C6150 1.366 . S
C6151 C6152 1.414 . S
C6151 C6154 1.499 . S
C6152 H6132 0.950 . S
C6152 C6151 1.414 . S
C6152 C6153 1.374 . S
C6153 H6133 0.950 . S
C6153 C6149 1.385 . S
C6153 C6152 1.374 . S
C6154 C6151 1.499 . S
C6154 C6155 1.373 . S
C6154 C6156 1.389 . S
C6155 H6134 0.950 . S
C6155 C6154 1.373 . S
C6155 C6171 1.377 . S
C6156 C6154 1.389 . S
C6156 C6157 1.524 . S
C6156 C6170 1.377 . S
C6157 C6156 1.524 . S
C6157 C6158 1.397 . S
C6157 C6162 1.363 . S
C6158 H6135 0.950 . S
C6158 C6157 1.397 . S
C6158 C6159 1.334 . S
C6159 H6136 0.950 . S
C6159 C6158 1.334 . S
C6159 C6160 1.287 . S
C6160 C6159 1.287 . S
C6160 C6161 1.524 . S
C6160 H6179 0.913 . S
C6161 H6137 0.950 . S
C6161 C6160 1.524 . S
C6161 C6162 1.415 . S
C6162 H6138 0.950 . S
C6162 C6157 1.363 . S
C6162 C6161 1.415 . S
C6163 H6139 0.951 . S
C6163 C6164 1.366 . S
C6163 C6165 1.388 1_545 S
C6164 C6163 1.366 . S
C6164 C6168 1.385 1_545 S
C6165 H6140 0.951 . S
C6165 C6163 1.388 1_565 S
C6165 C6166 1.366 . S
C6166 C6165 1.366 . S
C6166 C6167 1.414 . S
C6166 C6169 1.499 . S
C6167 H6141 0.950 . S
C6167 C6166 1.414 . S
C6167 C6168 1.374 . S
C6168 H6142 0.971 . S
C6168 C6164 1.385 1_565 S
C6168 C6167 1.374 . S
C6169 C6166 1.499 . S
C6169 C6170 1.373 . S
C6169 C6171 1.389 . S
C6170 H6143 0.950 . S
C6170 C6156 1.377 . S
C6170 C6169 1.373 . S
C6171 C6155 1.377 . S
C6171 C6169 1.389 . S
C6171 C6172 1.524 . S
C6172 C6171 1.524 . S
C6172 C6173 1.397 . S
C6172 C6177 1.363 . S
C6173 H6144 0.950 . S
C6173 C6172 1.397 . S
C6173 C6174 1.334 . S
C6174 H6145 0.950 . S
C6174 C6173 1.334 . S
C6174 C6175 1.287 . S
C6175 C6174 1.287 . S
C6175 C6176 1.524 . S
C6175 H6178 0.999 . S
C6176 H6146 0.950 . S
C6176 C6175 1.524 . S
C6176 C6177 1.415 . S
C6177 H6147 0.950 . S
C6177 C6172 1.363 . S
C6177 C6176 1.415 . S
H6178 C6175 0.999 . S
H6179 C6160 0.913 . S
H6180 C6198 0.951 . S
H6181 C6200 0.951 . S
H6182 C6202 0.950 . S
H6183 C6203 0.950 . S
H6184 C6205 0.950 . S
H6185 C6208 0.950 . S
H6186 C6209 0.950 . S
H6187 C6211 0.950 . S
H6188 C6212 0.950 . S
H6189 C6213 0.951 . S
H6190 C6215 0.951 . S
H6191 C6217 0.950 . S
H6192 C6218 0.950 . S
H6193 C6220 0.950 . S
H6194 C6223 0.950 . S
H6195 C6224 0.950 . S
H6196 C6226 0.950 . S
H6197 C6227 0.950 . S
C6198 H6180 0.951 . S
C6198 C6199 1.366 . S
C6198 C6200 1.388 . S
C6199 C6198 1.366 . S
C6199 C6203 1.385 . S
C6200 H6181 0.951 . S
C6200 C6198 1.388 . S
C6200 C6201 1.366 . S
C6201 C6200 1.366 . S
C6201 C6202 1.414 . S
C6201 C6204 1.499 . S
C6202 H6182 0.950 . S
C6202 C6201 1.414 . S
C6202 C6203 1.374 . S
C6203 H6183 0.950 . S
C6203 C6199 1.385 . S
C6203 C6202 1.374 . S
C6204 C6201 1.499 . S
C6204 C6205 1.373 . S
C6204 C6206 1.389 . S
C6205 H6184 0.950 . S
C6205 C6204 1.373 . S
C6205 C6221 1.377 . S
C6206 C6204 1.389 . S
C6206 C6207 1.524 . S
C6206 C6220 1.377 . S
C6207 C6206 1.524 . S
C6207 C6208 1.397 . S
C6207 C6212 1.363 . S
C6208 H6185 0.950 . S
C6208 C6207 1.397 . S
C6208 C6209 1.334 . S
C6209 H6186 0.950 . S
C6209 C6208 1.334 . S
C6209 C6210 1.287 . S
C6210 C6209 1.287 . S
C6210 C6211 1.524 . S
C6210 H6229 0.913 . S
C6211 H6187 0.950 . S
C6211 C6210 1.524 . S
C6211 C6212 1.415 . S
C6212 H6188 0.950 . S
C6212 C6207 1.363 . S
C6212 C6211 1.415 . S
C6213 H6189 0.951 . S
C6213 C6214 1.366 . S
C6213 C6215 1.388 . S
C6214 C6213 1.366 . S
C6214 C6218 1.385 . S
C6215 H6190 0.951 . S
C6215 C6213 1.388 . S
C6215 C6216 1.366 . S
C6216 C6215 1.366 . S
C6216 C6217 1.414 . S
C6216 C6219 1.499 . S
C6217 H6191 0.950 . S
C6217 C6216 1.414 . S
C6217 C6218 1.374 . S
C6218 H6192 0.950 . S
C6218 C6214 1.385 . S
C6218 C6217 1.374 . S
C6219 C6216 1.499 . S
C6219 C6220 1.373 . S
C6219 C6221 1.389 . S
C6220 H6193 0.950 . S
C6220 C6206 1.377 . S
C6220 C6219 1.373 . S
C6221 C6205 1.377 . S
C6221 C6219 1.389 . S
C6221 C6222 1.524 . S
C6222 C6221 1.524 . S
C6222 C6223 1.397 . S
C6222 C6227 1.363 . S
C6223 H6194 0.950 . S
C6223 C6222 1.397 . S
C6223 C6224 1.334 . S
C6224 H6195 0.950 . S
C6224 C6223 1.334 . S
C6224 C6225 1.287 . S
C6225 C6224 1.287 . S
C6225 C6226 1.524 . S
C6225 H6228 0.999 . S
C6226 H6196 0.950 . S
C6226 C6225 1.524 . S
C6226 C6227 1.415 . S
C6227 H6197 0.950 . S
C6227 C6222 1.363 . S
C6227 C6226 1.415 . S
H6228 C6225 0.999 . S
H6229 C6210 0.913 . S
H6230 C6248 0.951 . S
H6231 C6250 0.951 . S
H6232 C6252 0.950 . S
H6233 C6253 0.950 . S
H6234 C6255 0.950 . S
H6235 C6258 0.950 . S
H6236 C6259 0.950 . S
H6237 C6261 0.950 . S
H6238 C6262 0.950 . S
H6239 C6263 0.951 . S
H6240 C6265 0.951 . S
H6241 C6267 0.950 . S
H6242 C6268 0.950 . S
H6243 C6270 0.950 1_556 S
H6244 C6273 0.950 . S
H6245 C6274 0.950 . S
H6246 C6276 0.950 . S
H6247 C6277 0.950 . S
C6248 H6230 0.951 . S
C6248 C6249 1.366 . S
C6248 C6250 1.388 . S
C6249 C6248 1.366 . S
C6249 C6253 1.385 . S
C6250 H6231 0.951 . S
C6250 C6248 1.388 . S
C6250 C6251 1.366 . S
C6251 C6250 1.366 . S
C6251 C6252 1.414 . S
C6251 C6254 1.499 . S
C6252 H6232 0.950 . S
C6252 C6251 1.414 . S
C6252 C6253 1.374 . S
C6253 H6233 0.950 . S
C6253 C6249 1.385 . S
C6253 C6252 1.374 . S
C6254 C6251 1.499 . S
C6254 C6255 1.373 . S
C6254 C6256 1.389 . S
C6255 H6234 0.950 . S
C6255 C6254 1.373 . S
C6255 C6271 1.377 . S
C6256 C6254 1.389 . S
C6256 C6257 1.524 1_554 S
C6256 C6270 1.377 . S
C6257 C6256 1.524 1_556 S
C6257 C6258 1.397 . S
C6257 C6262 1.363 . S
C6258 H6235 0.950 . S
C6258 C6257 1.397 . S
C6258 C6259 1.334 . S
C6259 H6236 0.950 . S
C6259 C6258 1.334 . S
C6259 C6260 1.287 . S
C6260 C6259 1.287 . S
C6260 C6261 1.524 . S
C6260 H6279 0.913 . S
C6261 H6237 0.950 . S
C6261 C6260 1.524 . S
C6261 C6262 1.415 . S
C6262 H6238 0.950 . S
C6262 C6257 1.363 . S
C6262 C6261 1.415 . S
C6263 H6239 0.951 . S
C6263 C6264 1.366 . S
C6263 C6265 1.388 . S
C6264 C6263 1.366 . S
C6264 C6268 1.385 . S
C6265 H6240 0.951 . S
C6265 C6263 1.388 . S
C6265 C6266 1.366 . S
C6266 C6265 1.366 . S
C6266 C6267 1.414 . S
C6266 C6269 1.499 . S
C6267 H6241 0.950 . S
C6267 C6266 1.414 . S
C6267 C6268 1.374 . S
C6268 H6242 0.950 . S
C6268 C6264 1.385 . S
C6268 C6267 1.374 . S
C6269 C6266 1.499 . S
C6269 C6270 1.373 . S
C6269 C6271 1.389 . S
C6270 H6243 0.950 1_554 S
C6270 C6256 1.377 . S
C6270 C6269 1.373 . S
C6271 C6255 1.377 . S
C6271 C6269 1.389 . S
C6271 C6272 1.524 . S
C6272 C6271 1.524 . S
C6272 C6273 1.397 . S
C6272 C6277 1.363 . S
C6273 H6244 0.950 . S
C6273 C6272 1.397 . S
C6273 C6274 1.334 . S
C6274 H6245 0.950 . S
C6274 C6273 1.334 . S
C6274 C6275 1.287 . S
C6275 C6274 1.287 . S
C6275 C6276 1.524 . S
C6275 H6278 0.999 . S
C6276 H6246 0.950 . S
C6276 C6275 1.524 . S
C6276 C6277 1.415 . S
C6277 H6247 0.950 . S
C6277 C6272 1.363 . S
C6277 C6276 1.415 . S
H6278 C6275 0.999 . S
H6279 C6260 0.913 . S
H6280 C6298 0.951 . S
H6281 C6300 0.951 . S
H6282 C6302 0.950 . S
H6283 C6303 0.950 . S
H6284 C6305 0.950 . S
H6285 C6308 0.950 . S
H6286 C6309 0.950 . S
H6287 C6311 0.950 . S
H6288 C6312 0.950 . S
H6289 C6313 0.951 . S
H6290 C6315 0.951 . S
H6291 C6317 0.950 . S
H6292 C6318 0.950 . S
H6293 C6320 0.950 . S
H6294 C6323 0.950 . S
H6295 C6324 0.950 . S
H6296 C6326 0.950 . S
H6297 C6327 0.950 . S
C6298 H6280 0.951 . S
C6298 C6299 1.366 . S
C6298 C6300 1.388 . S
C6299 C6298 1.366 . S
C6299 C6303 1.385 . S
C6300 H6281 0.951 . S
C6300 C6298 1.388 . S
C6300 C6301 1.366 . S
C6301 C6300 1.366 . S
C6301 C6302 1.414 . S
C6301 C6304 1.499 . S
C6302 H6282 0.950 . S
C6302 C6301 1.414 . S
C6302 C6303 1.374 . S
C6303 H6283 0.950 . S
C6303 C6299 1.385 . S
C6303 C6302 1.374 . S
C6304 C6301 1.499 . S
C6304 C6305 1.373 . S
C6304 C6306 1.389 . S
C6305 H6284 0.950 . S
C6305 C6304 1.373 . S
C6305 C6321 1.377 . S
C6306 C6304 1.389 . S
C6306 C6307 1.524 . S
C6306 C6320 1.377 . S
C6307 C6306 1.524 . S
C6307 C6308 1.397 . S
C6307 C6312 1.363 . S
C6308 H6285 0.950 . S
C6308 C6307 1.397 . S
C6308 C6309 1.334 . S
C6309 H6286 0.950 . S
C6309 C6308 1.334 . S
C6309 C6310 1.287 . S
C6310 C6309 1.287 . S
C6310 C6311 1.524 . S
C6310 H6329 0.913 . S
C6311 H6287 0.950 . S
C6311 C6310 1.524 . S
C6311 C6312 1.415 . S
C6312 H6288 0.950 . S
C6312 C6307 1.363 . S
C6312 C6311 1.415 . S
C6313 H6289 0.951 . S
C6313 C6314 1.366 . S
C6313 C6315 1.388 . S
C6314 C6313 1.366 . S
C6314 C6318 1.385 . S
C6315 H6290 0.951 . S
C6315 C6313 1.388 . S
C6315 C6316 1.366 . S
C6316 C6315 1.366 . S
C6316 C6317 1.414 . S
C6316 C6319 1.499 . S
C6317 H6291 0.950 . S
C6317 C6316 1.414 . S
C6317 C6318 1.374 . S
C6318 H6292 0.950 . S
C6318 C6314 1.385 . S
C6318 C6317 1.374 . S
C6319 C6316 1.499 . S
C6319 C6320 1.373 . S
C6319 C6321 1.389 . S
C6320 H6293 0.950 . S
C6320 C6306 1.377 . S
C6320 C6319 1.373 . S
C6321 C6305 1.377 . S
C6321 C6319 1.389 . S
C6321 C6322 1.524 . S
C6322 C6321 1.524 . S
C6322 C6323 1.397 . S
C6322 C6327 1.363 . S
C6323 H6294 0.950 . S
C6323 C6322 1.397 . S
C6323 C6324 1.334 . S
C6324 H6295 0.950 . S
C6324 C6323 1.334 . S
C6324 C6325 1.287 . S
C6325 C6324 1.287 . S
C6325 C6326 1.524 . S
C6325 H6328 0.999 . S
C6326 H6296 0.950 . S
C6326 C6325 1.524 . S
C6326 C6327 1.415 . S
C6327 H6297 0.950 . S
C6327 C6322 1.363 . S
C6327 C6326 1.415 . S
H6328 C6325 0.999 . S
H6329 C6310 0.913 . S
H6330 C6348 0.951 . S
H6331 C6350 0.951 . S
H6332 C6352 0.950 . S
H6333 C6353 0.950 . S
H6334 C6355 0.950 . S
H6335 C6358 0.950 . S
H6336 C6359 0.950 . S
H6337 C6361 0.950 1_556 S
H6338 C6362 0.950 1_556 S
H6339 C6363 0.951 . S
H6340 C6365 0.951 . S
H6341 C6367 0.911 1_556 S
H6342 C6368 0.950 . S
H6343 C6370 0.950 . S
H6344 C6373 0.950 . S
H6345 C6374 0.950 . S
H6346 C6376 0.950 . S
H6347 C6377 0.950 . S
C6348 H6330 0.951 . S
C6348 C6349 1.366 . S
C6348 C6350 1.388 . S
C6349 C6348 1.366 . S
C6349 C6353 1.385 . S
C6350 H6331 0.951 . S
C6350 C6348 1.388 . S
C6350 C6351 1.366 . S
C6351 C6350 1.366 . S
C6351 C6352 1.414 . S
C6351 C6354 1.499 . S
C6352 H6332 0.950 . S
C6352 C6351 1.414 . S
C6352 C6353 1.374 . S
C6353 H6333 0.950 . S
C6353 C6349 1.385 . S
C6353 C6352 1.374 . S
C6354 C6351 1.499 . S
C6354 C6355 1.373 . S
C6354 C6356 1.389 . S
C6355 H6334 0.950 . S
C6355 C6354 1.373 . S
C6355 C6371 1.377 . S
C6356 C6354 1.389 . S
C6356 C6357 1.524 . S
C6356 C6370 1.377 . S
C6357 C6356 1.524 . S
C6357 C6358 1.397 . S
C6357 C6362 1.363 . S
C6358 H6335 0.950 . S
C6358 C6357 1.397 . S
C6358 C6359 1.334 . S
C6359 H6336 0.950 . S
C6359 C6358 1.334 . S
C6359 C6360 1.287 . S
C6360 C6359 1.287 . S
C6360 C6361 1.524 . S
C6360 H6379 0.913 . S
C6361 H6337 0.950 1_554 S
C6361 C6360 1.524 . S
C6361 C6362 1.415 . S
C6362 H6338 0.950 1_554 S
C6362 C6357 1.363 . S
C6362 C6361 1.415 . S
C6363 H6339 0.951 . S
C6363 C6364 1.366 . S
C6363 C6365 1.388 . S
C6364 C6363 1.366 . S
C6364 C6368 1.385 1_554 S
C6365 H6340 0.951 . S
C6365 C6363 1.388 . S
C6365 C6366 1.366 . S
C6366 C6365 1.366 . S
C6366 C6367 1.465 . S
C6366 C6369 1.499 . S
C6367 H6341 0.911 1_554 S
C6367 C6366 1.465 . S
C6367 C6368 1.364 1_554 S
C6368 H6342 0.950 . S
C6368 C6364 1.385 1_556 S
C6368 C6367 1.364 1_556 S
C6369 C6366 1.499 . S
C6369 C6370 1.373 . S
C6369 C6371 1.389 . S
C6370 H6343 0.950 . S
C6370 C6356 1.377 . S
C6370 C6369 1.373 . S
C6371 C6355 1.377 . S
C6371 C6369 1.389 . S
C6371 C6372 1.524 . S
C6372 C6371 1.524 . S
C6372 C6373 1.397 . S
C6372 C6377 1.363 . S
C6373 H6344 0.950 . S
C6373 C6372 1.397 . S
C6373 C6374 1.334 . S
C6374 H6345 0.950 . S
C6374 C6373 1.334 . S
C6374 C6375 1.287 . S
C6375 C6374 1.287 . S
C6375 C6376 1.524 . S
C6375 H6378 0.999 . S
C6376 H6346 0.950 . S
C6376 C6375 1.524 . S
C6376 C6377 1.415 . S
C6377 H6347 0.950 . S
C6377 C6372 1.363 . S
C6377 C6376 1.415 . S
H6378 C6375 0.999 . S
H6379 C6360 0.913 . S
H6380 C6398 0.951 . S
H6381 C6400 0.951 . S
H6382 C6402 0.950 . S
H6383 C6403 0.950 . S
H6384 C6405 0.950 . S
H6385 C6408 0.950 . S
H6386 C6409 0.950 . S
H6387 C6411 0.950 . S
H6388 C6412 0.950 . S
H6389 C6413 0.951 . S
H6390 C6415 0.951 . S
H6391 C6417 0.950 . S
H6392 C6418 0.950 . S
H6393 C6420 0.950 . S
H6394 C6423 0.950 . S
H6395 C6424 0.950 . S
H6396 C6426 0.950 . S
H6397 C6427 0.950 . S
C6398 H6380 0.951 . S
C6398 C6399 1.366 . S
C6398 C6400 1.388 1_545 S
C6399 C6398 1.366 . S
C6399 C6403 1.385 . S
C6400 H6381 0.951 . S
C6400 C6398 1.388 1_565 S
C6400 C6401 1.366 . S
C6401 C6400 1.366 . S
C6401 C6402 1.414 . S
C6401 C6404 1.499 . S
C6402 H6382 0.950 . S
C6402 C6401 1.414 . S
C6402 C6403 1.374 1_565 S
C6403 H6383 0.950 . S
C6403 C6399 1.385 . S
C6403 C6402 1.374 1_545 S
C6404 C6401 1.499 . S
C6404 C6405 1.373 . S
C6404 C6406 1.389 . S
C6405 H6384 0.950 . S
C6405 C6404 1.373 . S
C6405 C6421 1.377 . S
C6406 C6404 1.389 . S
C6406 C6407 1.524 . S
C6406 C6420 1.377 . S
C6407 C6406 1.524 . S
C6407 C6408 1.397 . S
C6407 C6412 1.363 . S
C6408 H6385 0.950 . S
C6408 C6407 1.397 . S
C6408 C6409 1.334 . S
C6409 H6386 0.950 . S
C6409 C6408 1.334 . S
C6409 C6410 1.287 . S
C6410 C6409 1.287 . S
C6410 C6411 1.524 . S
C6410 H6429 0.913 . S
C6411 H6387 0.950 . S
C6411 C6410 1.524 . S
C6411 C6412 1.415 . S
C6412 H6388 0.950 . S
C6412 C6407 1.363 . S
C6412 C6411 1.415 . S
C6413 H6389 0.951 . S
C6413 C6414 1.366 . S
C6413 C6415 1.388 . S
C6414 C6413 1.366 . S
C6414 C6418 1.385 . S
C6415 H6390 0.951 . S
C6415 C6413 1.388 . S
C6415 C6416 1.366 . S
C6416 C6415 1.366 . S
C6416 C6417 1.414 . S
C6416 C6419 1.499 . S
C6417 H6391 0.950 . S
C6417 C6416 1.414 . S
C6417 C6418 1.374 . S
C6418 H6392 0.950 . S
C6418 C6414 1.385 . S
C6418 C6417 1.374 . S
C6419 C6416 1.499 . S
C6419 C6420 1.373 . S
C6419 C6421 1.389 . S
C6420 H6393 0.950 . S
C6420 C6406 1.377 . S
C6420 C6419 1.373 . S
C6421 C6405 1.377 . S
C6421 C6419 1.389 . S
C6421 C6422 1.524 . S
C6422 C6421 1.524 . S
C6422 C6423 1.397 . S
C6422 C6427 1.363 . S
C6423 H6394 0.950 . S
C6423 C6422 1.397 . S
C6423 C6424 1.334 . S
C6424 H6395 0.950 . S
C6424 C6423 1.334 . S
C6424 C6425 1.287 . S
C6425 C6424 1.287 . S
C6425 C6426 1.524 . S
C6425 H6428 0.999 . S
C6426 H6396 0.950 . S
C6426 C6425 1.524 . S
C6426 C6427 1.415 . S
C6427 H6397 0.950 . S
C6427 C6422 1.363 . S
C6427 C6426 1.415 . S
H6428 C6425 0.999 . S
H6429 C6410 0.913 . S
H6430 C6448 0.951 . S
H6431 C6450 0.951 . S
H6432 C6452 0.950 . S
H6433 C6453 0.950 . S
H6434 C6455 0.950 . S
H6435 C6458 0.950 . S
H6436 C6459 0.950 . S
H6437 C6461 0.950 . S
H6438 C6462 0.950 . S
H6439 C6463 0.951 . S
H6440 C6465 0.951 . S
H6441 C6467 0.950 . S
H6442 C6468 0.950 . S
H6443 C6470 0.950 . S
H6444 C6473 0.950 . S
H6445 C6474 0.950 . S
H6446 C6476 0.950 . S
H6447 C6477 0.950 . S
C6448 H6430 0.951 . S
C6448 C6449 1.366 . S
C6448 C6450 1.388 . S
C6449 C6448 1.366 . S
C6449 C6453 1.385 . S
C6450 H6431 0.951 . S
C6450 C6448 1.388 . S
C6450 C6451 1.366 . S
C6451 C6450 1.366 . S
C6451 C6452 1.414 . S
C6451 C6454 1.499 . S
C6452 H6432 0.950 . S
C6452 C6451 1.414 . S
C6452 C6453 1.374 . S
C6453 H6433 0.950 . S
C6453 C6449 1.385 . S
C6453 C6452 1.374 . S
C6454 C6451 1.499 . S
C6454 C6455 1.373 . S
C6454 C6456 1.389 . S
C6455 H6434 0.950 . S
C6455 C6454 1.373 . S
C6455 C6471 1.377 . S
C6456 C6454 1.389 . S
C6456 C6457 1.524 . S
C6456 C6470 1.377 . S
C6457 C6456 1.524 . S
C6457 C6458 1.397 . S
C6457 C6462 1.363 . S
C6458 H6435 0.950 . S
C6458 C6457 1.397 . S
C6458 C6459 1.334 . S
C6459 H6436 0.950 . S
C6459 C6458 1.334 . S
C6459 C6460 1.287 . S
C6460 C6459 1.287 . S
C6460 C6461 1.524 . S
C6460 H6479 0.913 . S
C6461 H6437 0.950 . S
C6461 C6460 1.524 . S
C6461 C6462 1.415 . S
C6462 H6438 0.950 . S
C6462 C6457 1.363 . S
C6462 C6461 1.415 . S
C6463 H6439 0.951 . S
C6463 C6464 1.366 . S
C6463 C6465 1.388 . S
C6464 C6463 1.366 . S
C6464 C6468 1.385 . S
C6465 H6440 0.951 . S
C6465 C6463 1.388 . S
C6465 C6466 1.366 . S
C6466 C6465 1.366 . S
C6466 C6467 1.414 . S
C6466 C6469 1.499 . S
C6467 H6441 0.950 . S
C6467 C6466 1.414 . S
C6467 C6468 1.374 . S
C6468 H6442 0.950 . S
C6468 C6464 1.385 . S
C6468 C6467 1.374 . S
C6469 C6466 1.499 . S
C6469 C6470 1.373 . S
C6469 C6471 1.389 . S
C6470 H6443 0.950 . S
C6470 C6456 1.377 . S
C6470 C6469 1.373 . S
C6471 C6455 1.377 . S
C6471 C6469 1.389 . S
C6471 C6472 1.524 . S
C6472 C6471 1.524 . S
C6472 C6473 1.397 . S
C6472 C6477 1.363 . S
C6473 H6444 0.950 . S
C6473 C6472 1.397 . S
C6473 C6474 1.334 . S
C6474 H6445 0.950 . S
C6474 C6473 1.334 . S
C6474 C6475 1.287 . S
C6475 C6474 1.287 . S
C6475 C6476 1.524 . S
C6475 H6478 0.999 . S
C6476 H6446 0.950 . S
C6476 C6475 1.524 . S
C6476 C6477 1.415 . S
C6477 H6447 0.950 . S
C6477 C6472 1.363 . S
C6477 C6476 1.415 . S
H6478 C6475 0.999 . S
H6479 C6460 0.913 . S
C1699 C111 1.517 . S
C1714 C403 1.411 . S
C1749 C64 2.159 . S
C1764 C486 2.176 . S
C1799 C77 1.351 . S
C1814 C571 1.272 . S
C1864 C651 1.367 . S
C1849 C95 1.500 . S
C1899 C25 1.385 . S
C1914 C735 1.309 . S
C1964 C828 0.907 . S
C1949 C36 0.946 . S
C2014 C906 0.636 . S
C1999 C50 0.660 . S
C2049 C11 1.169 . S
C2064 C991 1.043 . S
C2114 C402 1.863 . S
C2099 C237 1.860 . S
C2149 C245 0.497 . S
C2164 C483 0.585 . S
C2214 C570 1.039 . S
C2199 C279 0.997 . S
C2264 C655 1.403 . S
C2249 C175 1.499 1_556 S
C2299 C231 1.864 . S
C2314 C739 1.736 . S
C2364 C831 0.977 . S
C2349 C251 0.983 . S
C2414 C903 0.701 . S
C2399 C273 0.684 . S
C2464 C990 1.252 . S
C2449 C181 1.301 . S
C2514 C399 1.313 . S
C2499 C165 1.407 . S
C2549 C288 1.947 . S
C2564 C1074 1.937 . S
C2614 C1148 2.073 . S
C2599 C333 2.245 . S
C2664 C1243 0.509 . S
C2649 C316 0.356 . S
C2699 C123 0.532 . S
C2714 C987 0.565 . S
C2749 C137 1.318 . S
C2764 C567 1.248 . S
C2799 C330 2.266 . S
C2814 C1326 2.261 . S
C2864 C1411 0.684 . S
C2849 C302 0.671 . S
C2914 C392 1.568 1_565 S
C2899 C63 1.692 . S
C2964 C1419 2.211 . S
C2949 C106 2.264 . S
C2999 C97 1.420 . S
C3014 C560 1.384 . S
C3049 C81 1.578 . S
C3064 C1332 1.437 . S
C3114 C744 1.425 . S
C3099 C13 1.402 . S
C3149 C55 0.920 . S
C3164 C1155 0.894 . S
C3214 C915 0.702 . S
C3199 C35 0.706 . S
C3264 C1484 1.265 . S
C3249 C21 1.385 . S
C3314 C411 2.008 . S
C3299 C147 2.111 . S
C3364 C1416 0.613 . S
C3349 C321 0.584 . S
C3399 C119 1.120 . S
C3414 C579 1.091 . S
C3449 C293 1.575 . S
C3464 C1316 1.548 . S
C3499 C153 1.898 . S
C3514 C728 1.931 . S
C3564 C1158 1.026 . S
C3549 C315 1.087 . S
C3599 C125 0.721 . S
C3614 C912 0.726 . S
C3649 C287 1.515 . S
C3664 C1503 1.410 . S
C3699 C193 1.465 . S
C3714 C408 1.371 . S
C3749 C176 2.023 . S
C3764 C1083 1.978 . S
C3799 C263 2.208 . S
C3814 C823 2.038 . S
C3849 C246 0.535 . S
C3864 C1232 0.522 . S
C3914 C1500 0.640 . S
C3899 C277 0.625 . S
C3949 C221 1.330 . S
C3964 C576 1.276 . S
C4014 C663 2.333 . S
C3999 C260 2.359 . S
C4064 C476 0.816 . S
C4049 C204 0.819 . S
C4099 C83 1.516 . S
C4114 C1579 1.410 . S
C4164 C1410 2.176 . S
C4149 C92 2.160 . S
C4199 C105 1.351 . S
C4214 C1663 1.272 . S
C4249 C67 1.500 . S
C4264 C1323 1.366 . S
C4299 C53 1.385 . S
C4314 C1071 1.308 . S
C4364 C1164 0.907 . S
C4349 C8 0.946 . S
C4414 C1242 0.635 . S
C4399 C22 0.662 . S
C4464 C1495 1.043 . S
C4449 C39 1.169 . S
C4514 C1578 1.864 . S
C4499 C265 1.859 . S
C4549 C189 0.498 . S
C4564 C1407 0.583 . S
C4614 C1662 1.040 . S
C4599 C209 0.997 . S
C4664 C1327 1.403 . S
C4649 C217 1.499 . S
C4714 C1075 1.736 . S
C4699 C259 1.864 . S
C4749 C195 0.982 . S
C4764 C1167 0.976 . S
C4814 C1239 0.704 . S
C4799 C203 0.683 . S
C4849 C223 1.301 . S
C4864 C1494 1.251 . S
C4914 C1575 1.313 . S
C4899 C319 1.406 . S
C4949 C134 1.947 . S
C4964 C738 1.940 . S
C5014 C812 2.074 . S
C4999 C151 2.251 . S
C5064 C907 0.510 . S
C5049 C162 0.357 . S
C5114 C1491 0.566 . S
C5099 C305 0.532 . S
C5149 C291 1.317 1_554 S
C5164 C1659 1.243 . S
C5214 C654 2.261 . S
C5199 C148 2.258 . S
C5264 C487 0.686 . S
C5249 C120 0.670 . S
C5299 C91 1.692 . S
C5314 C1568 1.567 . S
C5364 C495 2.211 . S
C5349 C78 2.263 . S
C5399 C69 1.419 . S
C5414 C1652 1.382 . S
C5449 C109 1.578 . S
C5464 C660 1.437 . S
C5499 C41 1.403 . S
C5514 C1080 1.424 . S
C5564 C819 0.895 . S
C5549 C27 0.920 . S
C5599 C7 0.706 . S
C5614 C1251 0.703 . S
C5649 C49 1.385 . S
C5664 C980 1.265 . S
C5714 C1587 2.008 . S
C5699 C329 2.111 . S
C5749 C167 0.583 . S
C5764 C492 0.613 . S
C5814 C1671 1.091 . S
C5799 C301 1.119 . S
C5849 C139 1.576 . S
C5864 C644 1.556 . S
C5899 C335 1.897 . S
C5914 C1064 1.932 . S
C5964 C822 1.025 . S
C5949 C161 1.086 . S
C5999 C307 0.721 . S
C6014 C1248 0.717 1_655 S
C6064 C999 1.404 . S
C6049 C133 1.515 . S
C6114 C1584 1.371 . S
C6099 C249 1.466 . S
C6164 C747 1.979 1_655 S
C6149 C218 2.023 . S
C6199 C235 2.208 . S
C6214 C1159 2.038 . S
C6264 C896 0.522 . S
C6249 C190 0.533 . S
C6299 C207 0.627 . S
C6314 C996 0.639 . S
C6349 C179 1.329 . S
C6364 C1668 1.276 . S
C6414 C1335 2.333 . S
C6399 C232 2.359 . S
C6464 C1400 0.815 . S
C6449 C274 0.822 . S
