# Generated by pormake.
# Topology anh, (6,3)-cn, num edge types: 1
# Building blocks:
#     Node 0, Type 0, BuildingBlock: INOVEN_clean_sbu_0, # of connection points: 6
#     Node 1, Type 0, BuildingBlock: INOVEN_clean_sbu_0, # of connection points: 6
#     Node 2, Type 0, BuildingBlock: INOVEN_clean_sbu_0, # of connection points: 6
#     Node 3, Type 1, BuildingBlock: OLANEW_clean_sbu_2, # of connection points: 3
#     Node 4, Type 1, BuildingBlock: OLANEW_clean_sbu_2, # of connection points: 3
#     Node 5, Type 1, BuildingBlock: OLANEW_clean_sbu_2, # of connection points: 3
#     Node 6, Type 1, BuildingBlock: OLANEW_clean_sbu_2, # of connection points: 3
#     Node 7, Type 1, BuildingBlock: OLANEW_clean_sbu_2, # of connection points: 3
#     Node 8, Type 1, BuildingBlock: OLANEW_clean_sbu_2, # of connection points: 3
#     Edge 9, Type (0, 1), BuildingBlock: XUDNAN_clean_linker_2, # of connection points: 2
#     Edge 10, Type (0, 1), BuildingBlock: XUDNAN_clean_linker_2, # of connection points: 2
#     Edge 11, Type (0, 1), BuildingBlock: XUDNAN_clean_linker_2, # of connection points: 2
#     Edge 12, Type (0, 1), BuildingBlock: XUDNAN_clean_linker_2, # of connection points: 2
#     Edge 13, Type (0, 1), BuildingBlock: XUDNAN_clean_linker_2, # of connection points: 2
#     Edge 14, Type (0, 1), BuildingBlock: XUDNAN_clean_linker_2, # of connection points: 2
#     Edge 15, Type (0, 1), BuildingBlock: XUDNAN_clean_linker_2, # of connection points: 2
#     Edge 16, Type (0, 1), BuildingBlock: XUDNAN_clean_linker_2, # of connection points: 2
#     Edge 17, Type (0, 1), BuildingBlock: XUDNAN_clean_linker_2, # of connection points: 2
#     Edge 18, Type (0, 1), BuildingBlock: XUDNAN_clean_linker_2, # of connection points: 2
#     Edge 19, Type (0, 1), BuildingBlock: XUDNAN_clean_linker_2, # of connection points: 2
#     Edge 20, Type (0, 1), BuildingBlock: XUDNAN_clean_linker_2, # of connection points: 2
#     Edge 21, Type (0, 1), BuildingBlock: XUDNAN_clean_linker_2, # of connection points: 2
#     Edge 22, Type (0, 1), BuildingBlock: XUDNAN_clean_linker_2, # of connection points: 2
#     Edge 23, Type (0, 1), BuildingBlock: XUDNAN_clean_linker_2, # of connection points: 2
#     Edge 24, Type (0, 1), BuildingBlock: XUDNAN_clean_linker_2, # of connection points: 2
#     Edge 25, Type (0, 1), BuildingBlock: XUDNAN_clean_linker_2, # of connection points: 2
#     Edge 26, Type (0, 1), BuildingBlock: XUDNAN_clean_linker_2, # of connection points: 2
# Relax obj value: 0.139
# Max RMSD: 0.173
# Mean RMSD: 0.115
data_MOF--net-anh--node1-INOVEN_clean_sbu_0--node2-OLANEW_clean_sbu_2--edge1-XUDNAN_clean_linker_2
_symmetry_space_group_name_H-M    P1
_symmetry_Int_Tables_number       1
_symmetry_cell_setting            triclinic
loop_
_symmetry_equiv_pos_as_xyz
'x, y, z'
_cell_length_a     37.189052
_cell_length_b     41.323375
_cell_length_c     50.264268
_cell_angle_alpha  92.504883
_cell_angle_beta   89.74966
_cell_angle_gamma 130.09729
loop_
_atom_site_label
_atom_site_type_symbol
_atom_site_fract_x
_atom_site_fract_y
_atom_site_fract_z
_atom_type_partial_charge
Gd0 Gd 0.04711 0.50396 0.12964 0.0
Gd1 Gd 0.97798 0.51865 0.13227 0.0
C2 C 0.08532 0.60083 0.1278 0.0
C3 C 0.11104 0.49981 0.11589 0.0
C4 C 0.16014 0.52253 0.12388 0.0
C5 C 0.18038 0.50422 0.11742 0.0
C6 C 0.18585 0.56062 0.13955 0.0
C7 C 0.25115 0.5608 0.14326 0.0
C8 C 0.23125 0.5798 0.14907 0.0
C9 C 0.22552 0.52319 0.12699 0.0
C10 C 0.02834 0.51249 0.18009 0.0
C11 C 0.94113 0.42454 0.13701 0.0
C12 C 0.91201 0.52158 0.14262 0.0
C13 C 0.86852 0.50014 0.15765 0.0
C14 C 0.82681 0.48371 0.14381 0.0
C15 C 0.86861 0.49925 0.18559 0.0
C16 C 0.7871 0.46991 0.18562 0.0
C17 C 0.82821 0.48429 0.19946 0.0
C18 C 0.78651 0.46868 0.1576 0.0
C19 C 1.00059 0.51079 0.08255 0.0
O20 O 0.09501 0.57512 0.1254 0.0
O21 O 0.04246 0.58668 0.13222 0.0
O22 O 0.08062 0.47701 0.1342 0.0
O23 O 0.10234 0.52111 0.10303 0.0
O24 O 0.03983 0.48986 0.17279 0.0
O25 O 0.03215 0.53321 0.16095 0.0
O26 O 0.9368 0.45225 0.14629 0.0
O27 O 0.9791 0.43727 0.12433 0.0
O28 O 0.91055 0.50066 0.12176 0.0
O29 O 0.95193 0.54394 0.15624 0.0
O30 O 0.99408 0.53725 0.08934 0.0
O31 O 0.99276 0.48887 0.10181 0.0
H32 H 0.16088 0.47477 0.1054 0.0
H33 H 0.17041 0.57494 0.1449 0.0
H34 H 0.25017 0.6087 0.16159 0.0
H35 H 0.24032 0.50827 0.12176 0.0
H36 H 0.82596 0.48428 0.12229 0.0
H37 H 0.90024 0.51155 0.19682 0.0
H38 H 0.82961 0.48535 0.22103 0.0
H39 H 0.75579 0.45858 0.14629 0.0
Gd40 Gd 0.54887 0.02609 0.48011 0.0
Gd41 Gd 0.49217 0.05534 0.48077 0.0
C42 C 0.43403 0.95668 0.47567 0.0
C43 C 0.58336 0.98988 0.49059 0.0
C44 C 0.56586 0.94715 0.49587 0.0
C45 C 0.59284 0.94285 0.51221 0.0
C46 C 0.52266 0.91065 0.48495 0.0
C47 C 0.53386 0.86589 0.50661 0.0
C48 C 0.50678 0.87038 0.49027 0.0
C49 C 0.57706 0.90267 0.51753 0.0
C50 C 0.53504 0.04349 0.43205 0.0
C51 C 0.60752 0.12586 0.48278 0.0
C52 C 0.45618 0.09086 0.4726 0.0
C53 C 0.4643 0.13034 0.47953 0.0
C54 C 0.42904 0.12756 0.49255 0.0
C55 C 0.50528 0.1703 0.47249 0.0
C56 C 0.47434 0.20366 0.49045 0.0
C57 C 0.51023 0.20661 0.4779 0.0
C58 C 0.43405 0.16372 0.49807 0.0
C59 C 0.50737 0.03848 0.52867 0.0
O60 O 0.47317 0.96474 0.48362 0.0
O61 O 0.43448 0.98733 0.46869 0.0
O62 O 0.57643 0.9957 0.46638 0.0
O63 O 0.57582 0.00821 0.50894 0.0
O64 O 0.57352 0.05129 0.43938 0.0
O65 O 0.50488 0.02476 0.44986 0.0
O66 O 0.56678 0.11738 0.47988 0.0
O67 O 0.61021 0.09577 0.4854 0.0
O68 O 0.4438 0.06566 0.49197 0.0
O69 O 0.48499 0.09284 0.45622 0.0
O70 O 0.46849 0.03006 0.52179 0.0
O71 O 0.53682 0.05741 0.51068 0.0
H72 H 0.62616 0.97064 0.52093 0.0
H73 H 0.50134 0.9133 0.47222 0.0
H74 H 0.4736 0.84281 0.4813 0.0
H75 H 0.59843 0.90044 0.53056 0.0
H76 H 0.39716 0.09717 0.49823 0.0
H77 H 0.53317 0.17349 0.46245 0.0
H78 H 0.5416 0.23676 0.4716 0.0
H79 H 0.40614 0.16027 0.50829 0.0
Gd80 Gd 0.61033 0.56548 0.86107 0.0
Gd81 Gd 0.55171 0.47063 0.86103 0.0
C82 C 0.49509 0.50412 0.862 0.0
C83 C 0.64526 0.64059 0.84859 0.0
C84 C 0.62622 0.66216 0.84454 0.0
C85 C 0.59062 0.65436 0.86058 0.0
C86 C 0.64193 0.68908 0.82342 0.0
C87 C 0.58509 0.69861 0.83357 0.0
C88 C 0.62156 0.70716 0.81795 0.0
C89 C 0.57058 0.67273 0.85528 0.0
C90 C 0.59383 0.53467 0.90979 0.0
C91 C 0.66757 0.53232 0.86349 0.0
C92 C 0.51485 0.39362 0.86949 0.0
C93 C 0.52729 0.36698 0.86257 0.0
C94 C 0.49238 0.32526 0.85245 0.0
C95 C 0.57417 0.38367 0.86402 0.0
C96 C 0.55159 0.3182 0.8435 0.0
C97 C 0.58628 0.35964 0.85449 0.0
C98 C 0.50433 0.30101 0.84312 0.0
C99 C 0.56897 0.50233 0.81248 0.0
O100 O 0.53505 0.54083 0.85518 0.0
O101 O 0.49439 0.47341 0.86942 0.0
O102 O 0.6458 0.63095 0.87298 0.0
O103 O 0.63147 0.61018 0.83086 0.0
O104 O 0.63279 0.57123 0.90383 0.0
O105 O 0.56467 0.51789 0.89045 0.0
O106 O 0.6263 0.49419 0.86641 0.0
O107 O 0.67052 0.56516 0.85863 0.0
O108 O 0.5024 0.40373 0.84929 0.0
O109 O 0.54249 0.42538 0.88694 0.0
O110 O 0.52922 0.46672 0.81853 0.0
O111 O 0.59802 0.5181 0.83177 0.0
H112 H 0.57771 0.63354 0.87694 0.0
H113 H 0.66918 0.69526 0.81072 0.0
H114 H 0.63322 0.72661 0.80094 0.0
H115 H 0.54341 0.6664 0.86805 0.0
H116 H 0.45594 0.31173 0.85125 0.0
H117 H 0.60156 0.41562 0.87199 0.0
H118 H 0.623 0.37406 0.85497 0.0
H119 H 0.47653 0.26889 0.83538 0.0
O120 O 0.54521 0.05371 0.22656 0.0
Cd121 Cd 0.56216 0.0587 0.17901 0.0
O122 O 0.47062 0.99458 0.22543 0.0
Cd123 Cd 0.45534 0.96662 0.18472 0.0
O124 O 0.39917 0.90633 0.16287 0.0
C125 C 0.36354 0.90124 0.15445 0.0
O126 O 0.36387 0.93319 0.15731 0.0
C127 C 0.5068 0.02686 0.2382 0.0
C128 C 0.65202 0.13491 0.16888 0.0
O129 O 0.6164 0.13318 0.17026 0.0
O130 O 0.64524 0.10079 0.17228 0.0
O131 O 0.60177 0.56277 0.60673 0.0
Cd132 Cd 0.58864 0.55751 0.55855 0.0
O133 O 0.54674 0.56555 0.61927 0.0
Cd134 Cd 0.53671 0.58318 0.58118 0.0
O135 O 0.52973 0.62416 0.5596 0.0
C136 C 0.49114 0.6173 0.56047 0.0
O137 O 0.45587 0.58435 0.57284 0.0
C138 C 0.57771 0.56247 0.62493 0.0
C139 C 0.55211 0.47677 0.53847 0.0
O140 O 0.59658 0.50696 0.54143 0.0
O141 O 0.52505 0.48488 0.5446 0.0
O142 O 0.11992 0.51351 0.89149 0.0
Cd143 Cd 0.16642 0.52269 0.85209 0.0
O144 O 0.07201 0.52555 0.87977 0.0
Cd145 Cd 0.01424 0.52898 0.88422 0.0
O146 O 0.96373 0.54152 0.88287 0.0
C147 C 0.91922 0.51324 0.87905 0.0
O148 O 0.90043 0.47333 0.87602 0.0
C149 C 0.08795 0.51573 0.89727 0.0
C150 C 0.23143 0.50845 0.85835 0.0
O151 O 0.24537 0.54608 0.85996 0.0
O152 O 0.18723 0.4778 0.85447 0.0
O153 O 0.07347 0.55575 0.38627 0.0
Cd154 Cd 0.09382 0.56544 0.434 0.0
O155 O 0.99584 0.51569 0.3874 0.0
Cd156 Cd 0.98004 0.49288 0.42783 0.0
O157 O 0.92207 0.44092 0.45105 0.0
C158 C 0.90811 0.40363 0.44747 0.0
O159 O 0.93115 0.39738 0.43124 0.0
C160 C 0.03382 0.53761 0.37467 0.0
C161 C 0.16155 0.65239 0.44867 0.0
O162 O 0.17418 0.63084 0.44182 0.0
O163 O 0.11736 0.63281 0.44893 0.0
O164 O 0.47405 0.91896 0.71227 0.0
Cd165 Cd 0.45896 0.8998 0.75876 0.0
O166 O 0.52762 0.98263 0.73027 0.0
Cd167 Cd 0.5768 0.05175 0.73193 0.0
O168 O 0.6004 0.11174 0.75014 0.0
C169 C 0.57523 0.12193 0.74597 0.0
O170 O 0.53848 0.09762 0.72955 0.0
C171 C 0.50622 0.95838 0.70952 0.0
C172 C 0.47437 0.84522 0.77317 0.0
O173 O 0.43336 0.83098 0.76567 0.0
O174 O 0.50836 0.88531 0.77336 0.0
O175 O 0.49962 0.47875 0.11166 0.0
Cd176 Cd 0.48051 0.47721 0.15871 0.0
O177 O 0.5732 0.53823 0.11332 0.0
Cd178 Cd 0.56355 0.55544 0.15254 0.0
O179 O 0.52296 0.56954 0.17273 0.0
C180 C 0.53576 0.60636 0.172 0.0
O181 O 0.57646 0.63656 0.16182 0.0
C182 C 0.5386 0.50505 0.10035 0.0
C183 C 0.5324 0.46456 0.18933 0.0
O184 O 0.54438 0.5013 0.18851 0.0
O185 O 0.49492 0.43345 0.17647 0.0
H186 H 0.27635 0.51892 0.16572 0.0
H187 H 0.33192 0.64413 0.14507 0.0
H188 H 0.41193 0.67286 0.15868 0.0
H189 H 0.36127 0.55358 0.22267 0.0
H190 H 0.364 0.51251 0.21367 0.0
H191 H 0.3106 0.50385 0.20739 0.0
H192 H 0.31156 0.48561 0.1575 0.0
H193 H 0.36465 0.49407 0.16364 0.0
H194 H 0.36299 0.52312 0.13865 0.0
H195 H 0.48652 0.68501 0.16715 0.0
H196 H 0.54864 0.67937 0.16888 0.0
H197 H 0.44362 0.54607 0.18432 0.0
C198 C 0.30526 0.55256 0.16455 0.0
C199 C 0.29812 0.57934 0.15431 0.0
C200 C 0.33667 0.62318 0.15313 0.0
C201 C 0.38216 0.63973 0.16084 0.0
C202 C 0.38821 0.61211 0.17008 0.0
C203 C 0.35063 0.56947 0.17219 0.0
C204 C 0.36669 0.54548 0.17981 0.0
C205 C 0.34963 0.52782 0.20754 0.0
C206 C 0.35054 0.51002 0.15863 0.0
C207 C 0.41939 0.58077 0.18021 0.0
C208 C 0.43121 0.61917 0.17511 0.0
C209 C 0.47773 0.65534 0.17174 0.0
C210 C 0.51279 0.65181 0.17273 0.0
C211 C 0.50102 0.61229 0.1768 0.0
C212 C 0.45391 0.57687 0.18157 0.0
H213 H 0.69542 0.15798 0.46695 0.0
H214 H 0.61734 0.19519 0.49859 0.0
H215 H 0.68816 0.27048 0.49674 0.0
H216 H 0.81026 0.24518 0.49922 0.0
H217 H 0.84255 0.25088 0.47038 0.0
H218 H 0.78733 0.19988 0.47697 0.0
H219 H 0.75535 0.19502 0.42996 0.0
H220 H 0.81038 0.24593 0.42323 0.0
H221 H 0.75627 0.23698 0.4201 0.0
H222 H 0.76617 0.34169 0.48957 0.0
H223 H 0.84399 0.40358 0.47466 0.0
H224 H 0.87065 0.32045 0.44561 0.0
C225 C 0.6936 0.18202 0.47401 0.0
C226 C 0.65108 0.17076 0.48323 0.0
C227 C 0.64963 0.2031 0.49157 0.0
C228 C 0.68973 0.24597 0.4907 0.0
C229 C 0.73097 0.25608 0.4812 0.0
C230 C 0.73317 0.22507 0.47283 0.0
C231 C 0.78066 0.24452 0.46135 0.0
C232 C 0.80674 0.23452 0.47798 0.0
C233 C 0.77532 0.22974 0.43192 0.0
C234 C 0.80454 0.2912 0.46428 0.0
C235 C 0.77551 0.29719 0.47614 0.0
C236 C 0.78932 0.33742 0.48037 0.0
C237 C 0.83368 0.37243 0.47186 0.0
C238 C 0.86356 0.367 0.45895 0.0
C239 C 0.8488 0.32577 0.45548 0.0
H240 H 0.62334 0.77776 0.81736 0.0
H241 H 0.49068 0.65499 0.83321 0.0
H242 H 0.44796 0.67874 0.81919 0.0
H243 H 0.58995 0.83903 0.84087 0.0
H244 H 0.62157 0.87728 0.8157 0.0
H245 H 0.64172 0.85049 0.82712 0.0
H246 H 0.63832 0.82478 0.77852 0.0
H247 H 0.61797 0.85133 0.76696 0.0
H248 H 0.58414 0.79548 0.7591 0.0
H249 H 0.41952 0.71469 0.80165 0.0
H250 H 0.40728 0.76234 0.78496 0.0
H251 H 0.55846 0.86288 0.78177 0.0
C252 C 0.58531 0.75589 0.81782 0.0
C253 C 0.56023 0.71432 0.8263 0.0
C254 C 0.51054 0.68691 0.82696 0.0
C255 C 0.48598 0.70009 0.8189 0.0
C256 C 0.51168 0.74105 0.81041 0.0
C257 C 0.56024 0.76874 0.81008 0.0
C258 C 0.57931 0.81132 0.80046 0.0
C259 C 0.60994 0.84661 0.82235 0.0
C260 C 0.60653 0.82129 0.77473 0.0
C261 C 0.53384 0.80304 0.79526 0.0
C262 C 0.49526 0.76221 0.80097 0.0
C263 C 0.44944 0.74684 0.79725 0.0
C264 C 0.44285 0.77409 0.78768 0.0
C265 C 0.48189 0.81634 0.78215 0.0
C266 C 0.52793 0.83083 0.78596 0.0
H267 H 0.6929 0.4071 0.17435 0.0
H268 H 0.79167 0.51644 0.22787 0.0
H269 H 0.72793 0.51503 0.24342 0.0
H270 H 0.64151 0.44111 0.15059 0.0
H271 H 0.58201 0.39158 0.14752 0.0
H272 H 0.63021 0.39161 0.14709 0.0
H273 H 0.59606 0.34234 0.18663 0.0
H274 H 0.54713 0.34175 0.18705 0.0
H275 H 0.58271 0.35734 0.21688 0.0
H276 H 0.66216 0.51558 0.24323 0.0
H277 H 0.59828 0.51503 0.22918 0.0
H278 H 0.54009 0.40472 0.17646 0.0
C279 C 0.70059 0.42962 0.19014 0.0
C280 C 0.74717 0.46177 0.19993 0.0
C281 C 0.75614 0.491 0.2204 0.0
C282 C 0.72006 0.49051 0.22934 0.0
C283 C 0.67507 0.46019 0.21793 0.0
C284 C 0.66494 0.42962 0.19914 0.0
C285 C 0.61611 0.40509 0.18679 0.0
C286 C 0.61761 0.40756 0.15622 0.0
C287 C 0.58357 0.35888 0.19483 0.0
C288 C 0.60206 0.4291 0.19977 0.0
C289 C 0.63602 0.46004 0.21821 0.0
C290 C 0.63449 0.49052 0.22962 0.0
C291 C 0.59824 0.49014 0.22142 0.0
C292 C 0.56401 0.45946 0.20206 0.0
C293 C 0.565 0.42766 0.19194 0.0
H294 H 0.41797 0.88111 0.47185 0.0
H295 H 0.3468 0.93282 0.4758 0.0
H296 H 0.27023 0.86072 0.47171 0.0
H297 H 0.34071 0.79949 0.42239 0.0
H298 H 0.34171 0.76052 0.43617 0.0
H299 H 0.39144 0.81604 0.44157 0.0
H300 H 0.38579 0.80825 0.49256 0.0
H301 H 0.33627 0.75257 0.48731 0.0
H302 H 0.33102 0.78578 0.50828 0.0
H303 H 0.20158 0.78411 0.46608 0.0
H304 H 0.14426 0.70681 0.45716 0.0
H305 H 0.25826 0.70298 0.45495 0.0
C306 C 0.38626 0.87718 0.47217 0.0
C307 C 0.38848 0.91272 0.4742 0.0
C308 C 0.34612 0.9062 0.47416 0.0
C309 C 0.30235 0.86531 0.47196 0.0
C310 C 0.30131 0.83103 0.46967 0.0
C311 C 0.34201 0.83635 0.46964 0.0
C312 C 0.33063 0.79392 0.46549 0.0
C313 C 0.35241 0.79242 0.43988 0.0
C314 C 0.34689 0.78458 0.48986 0.0
C315 C 0.27727 0.76417 0.46283 0.0
C316 C 0.26126 0.78637 0.46567 0.0
C317 C 0.2136 0.76628 0.46386 0.0
C318 C 0.18127 0.72229 0.4588 0.0
C319 C 0.19661 0.6987 0.45531 0.0
C320 C 0.24537 0.72006 0.45751 0.0
H321 H 0.51356 0.26498 0.7985 0.0
H322 H 0.61947 0.31559 0.86161 0.0
H323 H 0.64136 0.27504 0.8415 0.0
H324 H 0.47461 0.16053 0.796 0.0
H325 H 0.46445 0.1527 0.76039 0.0
H326 H 0.45964 0.18803 0.77883 0.0
H327 H 0.52076 0.24864 0.74858 0.0
H328 H 0.52602 0.21354 0.73015 0.0
H329 H 0.57761 0.26283 0.74526 0.0
H330 H 0.64962 0.2267 0.81525 0.0
H331 H 0.64105 0.17208 0.78629 0.0
H332 H 0.52794 0.15182 0.74146 0.0
C333 C 0.54114 0.26739 0.80829 0.0
C334 C 0.56474 0.29357 0.83169 0.0
C335 C 0.60123 0.29625 0.84349 0.0
C336 C 0.61384 0.27323 0.83225 0.0
C337 C 0.58967 0.24766 0.80923 0.0
C338 C 0.55396 0.24451 0.79746 0.0
C339 C 0.53212 0.21352 0.77346 0.0
C340 C 0.47961 0.17651 0.77742 0.0
C341 C 0.5396 0.23599 0.74785 0.0
C342 C 0.56061 0.19915 0.77378 0.0
C343 C 0.59399 0.21952 0.79437 0.0
C344 C 0.62374 0.21068 0.79899 0.0
C345 C 0.61865 0.17965 0.7824 0.0
C346 C 0.58382 0.15764 0.7616 0.0
C347 C 0.555 0.16812 0.75711 0.0
H348 H 0.58575 0.83995 0.50978 0.0
H349 H 0.44395 0.79515 0.51735 0.0
H350 H 0.41666 0.72518 0.52901 0.0
H351 H 0.553 0.74077 0.48214 0.0
H352 H 0.59939 0.74763 0.50029 0.0
H353 H 0.60714 0.7933 0.49081 0.0
H354 H 0.62563 0.82186 0.54009 0.0
H355 H 0.61803 0.77638 0.5497 0.0
H356 H 0.58409 0.78881 0.56512 0.0
H357 H 0.4058 0.66147 0.54255 0.0
H358 H 0.412 0.60882 0.55685 0.0
H359 H 0.56107 0.69526 0.54073 0.0
C360 C 0.54893 0.81546 0.51388 0.0
C361 C 0.517 0.82315 0.51259 0.0
C362 C 0.469 0.78996 0.51782 0.0
C363 C 0.45319 0.75013 0.52458 0.0
C364 C 0.48572 0.74382 0.52591 0.0
C365 C 0.53256 0.77553 0.52063 0.0
C366 C 0.56063 0.76104 0.52427 0.0
C367 C 0.58125 0.76066 0.4978 0.0
C368 C 0.59937 0.78866 0.5461 0.0
C369 C 0.52244 0.71647 0.53298 0.0
C370 C 0.47943 0.70708 0.53362 0.0
C371 C 0.43922 0.66836 0.54192 0.0
C372 C 0.44313 0.63865 0.55002 0.0
C373 C 0.48697 0.64775 0.54984 0.0
C374 C 0.52695 0.6871 0.54088 0.0
H375 H 0.67714 0.47116 0.86195 0.0
H376 H 0.75854 0.60715 0.86967 0.0
H377 H 0.83138 0.61727 0.8745 0.0
H378 H 0.74433 0.4658 0.91003 0.0
H379 H 0.73917 0.42474 0.89124 0.0
H380 H 0.69385 0.42863 0.88815 0.0
H381 H 0.70392 0.43317 0.83695 0.0
H382 H 0.74904 0.42905 0.84014 0.0
H383 H 0.7613 0.47321 0.82402 0.0
H384 H 0.89593 0.61236 0.87942 0.0
H385 H 0.94627 0.593 0.88267 0.0
H386 H 0.82264 0.46006 0.87175 0.0
C387 C 0.71009 0.50305 0.86487 0.0
C388 C 0.71167 0.53828 0.86565 0.0
C389 C 0.75608 0.57955 0.86895 0.0
C390 C 0.79776 0.58563 0.8718 0.0
C391 C 0.7948 0.55017 0.87118 0.0
C392 C 0.75205 0.50966 0.86767 0.0
C393 C 0.75843 0.47684 0.86755 0.0
C394 C 0.7324 0.44726 0.89062 0.0
C395 C 0.74221 0.45158 0.84056 0.0
C396 C 0.81143 0.50517 0.87174 0.0
C397 C 0.83178 0.54737 0.87379 0.0
C398 C 0.88028 0.57939 0.87778 0.0
C399 C 0.90867 0.56806 0.87964 0.0
C400 C 0.88872 0.525 0.87748 0.0
C401 C 0.83927 0.49329 0.8735 0.0
H402 H 0.18016 0.64778 0.13873 0.0
H403 H 0.07661 0.65857 0.11428 0.0
H404 H 0.13852 0.73619 0.1144 0.0
H405 H 0.24228 0.73644 0.18423 0.0
H406 H 0.29972 0.75361 0.17734 0.0
H407 H 0.24857 0.69852 0.17241 0.0
H408 H 0.27061 0.69873 0.12349 0.0
H409 H 0.32195 0.75392 0.12821 0.0
H410 H 0.2796 0.73684 0.10177 0.0
H411 H 0.20953 0.81222 0.1199 0.0
H412 H 0.2849 0.8826 0.13231 0.0
H413 H 0.34347 0.8241 0.15442 0.0
C414 C 0.17077 0.66648 0.1329 0.0
C415 C 0.12358 0.64711 0.12632 0.0
C416 C 0.11248 0.6727 0.1194 0.0
C417 C 0.14746 0.71682 0.11928 0.0
C418 C 0.19345 0.73503 0.12624 0.0
C419 C 0.20529 0.7108 0.13301 0.0
C420 C 0.2568 0.73877 0.14169 0.0
C421 C 0.26213 0.73139 0.17064 0.0
C422 C 0.28384 0.73164 0.12265 0.0
C423 C 0.2717 0.78242 0.13922 0.0
C424 C 0.23466 0.77938 0.12993 0.0
C425 C 0.23894 0.81507 0.12698 0.0
C426 C 0.28197 0.85497 0.13414 0.0
C427 C 0.32026 0.85904 0.1443 0.0
C428 C 0.31511 0.82216 0.14644 0.0
H429 H 0.55271 0.28566 0.50609 0.0
H430 H 0.4041 0.20779 0.48498 0.0
H431 H 0.40838 0.26923 0.4942 0.0
H432 H 0.55571 0.34708 0.55929 0.0
H433 H 0.61251 0.39594 0.55172 0.0
H434 H 0.59826 0.34603 0.543 0.0
H435 H 0.61747 0.3662 0.49383 0.0
H436 H 0.63191 0.41626 0.50241 0.0
H437 H 0.58826 0.38126 0.47652 0.0
H438 H 0.42761 0.33807 0.50733 0.0
H439 H 0.46134 0.41062 0.52227 0.0
H440 H 0.59821 0.44509 0.53311 0.0
C441 C 0.52118 0.2816 0.50307 0.0
C442 C 0.47793 0.24158 0.49504 0.0
C443 C 0.43744 0.23775 0.49164 0.0
C444 C 0.43956 0.27259 0.49663 0.0
C445 C 0.48252 0.31133 0.50478 0.0
C446 C 0.5227 0.31619 0.50782 0.0
C447 C 0.56432 0.36132 0.51707 0.0
C448 C 0.58383 0.36265 0.54439 0.0
C449 C 0.60276 0.3825 0.49621 0.0
C450 C 0.54108 0.38088 0.51899 0.0
C451 C 0.49387 0.35143 0.51182 0.0
C452 C 0.46462 0.36153 0.51279 0.0
C453 C 0.4841 0.40281 0.52135 0.0
C454 C 0.53244 0.43364 0.52873 0.0
C455 C 0.56123 0.4224 0.52735 0.0
H456 H 0.48116 0.56129 0.85248 0.0
H457 H 0.40715 0.43128 0.87258 0.0
H458 H 0.33287 0.41871 0.87387 0.0
H459 H 0.41486 0.57936 0.8942 0.0
H460 H 0.41617 0.61126 0.87019 0.0
H461 H 0.46246 0.60841 0.87158 0.0
H462 H 0.44482 0.58258 0.82033 0.0
H463 H 0.39984 0.58733 0.82077 0.0
H464 H 0.38541 0.53788 0.81006 0.0
H465 H 0.26565 0.4194 0.87241 0.0
H466 H 0.21118 0.43416 0.86943 0.0
H467 H 0.32779 0.56413 0.85168 0.0
C468 C 0.44935 0.53016 0.85713 0.0
C469 C 0.4504 0.49732 0.86244 0.0
C470 C 0.40771 0.4571 0.86846 0.0
C471 C 0.3651 0.44955 0.86923 0.0
C472 C 0.3653 0.48249 0.864 0.0
C473 C 0.40624 0.52201 0.85809 0.0
C474 C 0.39646 0.55182 0.85325 0.0
C475 C 0.42412 0.59 0.8735 0.0
C476 C 0.4073 0.56579 0.82441 0.0
C477 C 0.34393 0.52318 0.85783 0.0
C478 C 0.3266 0.48313 0.86369 0.0
C479 C 0.27894 0.45074 0.86797 0.0
C480 C 0.2482 0.45943 0.86622 0.0
C481 C 0.26505 0.50036 0.86055 0.0
C482 C 0.31376 0.53264 0.85639 0.0
H483 H 0.85053 0.38449 0.15217 0.0
H484 H 0.94509 0.36086 0.13003 0.0
H485 H 0.88181 0.28459 0.13626 0.0
H486 H 0.78948 0.30788 0.20254 0.0
H487 H 0.73296 0.29211 0.19395 0.0
H488 H 0.78591 0.34501 0.18821 0.0
H489 H 0.76094 0.3345 0.13849 0.0
H490 H 0.70788 0.28158 0.14403 0.0
H491 H 0.74738 0.29016 0.11876 0.0
H492 H 0.80872 0.21102 0.14566 0.0
H493 H 0.72986 0.14483 0.15546 0.0
H494 H 0.68166 0.21561 0.16984 0.0
C495 C 0.858 0.36331 0.14871 0.0
C496 C 0.9029 0.37873 0.14069 0.0
C497 C 0.91102 0.34985 0.13614 0.0
C498 C 0.87531 0.30645 0.13969 0.0
C499 C 0.83149 0.2923 0.14759 0.0
C500 C 0.82258 0.31979 0.15188 0.0
C501 C 0.77206 0.29622 0.15968 0.0
C502 C 0.77001 0.3112 0.18776 0.0
C503 C 0.74551 0.30089 0.139 0.0
C504 C 0.754 0.25118 0.15916 0.0
C505 C 0.78896 0.2497 0.15232 0.0
C506 C 0.781 0.21177 0.15093 0.0
C507 C 0.73609 0.17432 0.15658 0.0
C508 C 0.69948 0.17492 0.16332 0.0
C509 C 0.70877 0.214 0.16459 0.0
H510 H 1.01063 0.55067 0.03726 0.0
H511 H 0.01506 0.45625 0.06706 0.0
H512 H 0.03343 0.44476 0.0222 0.0
H513 H 0.95717 0.49714 0.97206 0.0
H514 H 0.99127 0.54554 0.95468 0.0
H515 H 0.97697 0.54575 0.98896 0.0
H516 H 0.0654 0.60445 1.00165 0.0
H517 H 0.07993 0.60464 0.96741 0.0
H518 H 0.10615 0.5961 0.9932 0.0
H519 H 0.0546 0.44555 0.97521 0.0
H520 H 0.07801 0.45874 0.92841 0.0
H521 H 0.05885 0.55179 0.92802 0.0
C522 C 0.01525 0.52745 0.03424 0.0
C523 C 1.01136 0.50424 0.05556 0.0
C524 C 0.01779 0.47426 0.05096 0.0
C525 C 0.02813 0.46745 0.02555 0.0
C526 C 0.03163 0.49071 0.00493 0.0
C527 C 0.02537 0.52008 0.00889 0.0
C528 C 0.03229 0.54151 0.98332 0.0
C529 C 0.98671 0.5319 0.97422 0.0
C530 C 0.07339 0.58952 0.98659 0.0
C531 C 0.04406 0.51998 0.9645 0.0
C532 C 0.04328 0.49071 0.97745 0.0
C533 C 0.0549 0.46806 0.96477 0.0
C534 C 0.06822 0.47584 0.9382 0.0
C535 C 0.06958 0.50581 0.92448 0.0
C536 C 0.05685 0.52785 0.93777 0.0
H537 H 0.59408 0.07579 0.39013 0.0
H538 H 0.45017 0.01323 0.41125 0.0
H539 H 0.42891 0.00801 0.36382 0.0
H540 H 0.59866 0.1354 0.33494 0.0
H541 H 0.63418 0.12873 0.31509 0.0
H542 H 0.63911 0.13169 0.35093 0.0
H543 H 0.62121 0.05978 0.34928 0.0
H544 H 0.61595 0.05645 0.31352 0.0
H545 H 0.56813 0.01411 0.33243 0.0
H546 H 0.4212 1.0014 0.31413 0.0
H547 H 0.42831 0.99753 0.26548 0.0
H548 H 0.57797 0.06694 0.27637 0.0
C549 C 0.55833 0.06177 0.3848 0.0
C550 C 0.52369 0.04483 0.40426 0.0
C551 C 0.47721 0.02644 0.39659 0.0
C552 C 0.46485 0.02338 0.36973 0.0
C553 C 0.49955 0.0394 0.3509 0.0
C554 C 0.5455 0.05874 0.35809 0.0
C555 C 0.57544 0.07127 0.33381 0.0
C556 C 0.61413 0.11965 0.33369 0.0
C557 C 0.59639 0.04906 0.33217 0.0
C558 C 0.53881 0.05469 0.31179 0.0
C559 C 0.49532 0.03659 0.32211 0.0
C560 C 0.45522 0.01618 0.30579 0.0
C561 C 0.45957 0.01396 0.2782 0.0
C562 C 0.50375 0.03228 0.26717 0.0
C563 C 0.54395 0.05344 0.28422 0.0
H564 H 0.5081 0.48654 0.77346 0.0
H565 H 0.6558 0.55439 0.79102 0.0
H566 H 0.6745 0.57773 0.74477 0.0
H567 H 0.5028 0.45063 0.70711 0.0
H568 H 0.464 0.45882 0.69456 0.0
H569 H 0.46241 0.4478 0.729 0.0
H570 H 0.47749 0.51664 0.74367 0.0
H571 H 0.47885 0.52778 0.70925 0.0
H572 H 0.5279 0.56648 0.7316 0.0
H573 H 0.67565 0.58829 0.69559 0.0
H574 H 0.6609 0.59296 0.64852 0.0
H575 H 0.51354 0.52372 0.6643 0.0
C576 C 0.54437 0.50645 0.76752 0.0
C577 C 0.58054 0.51841 0.78554 0.0
C578 C 0.62767 0.5449 0.77736 0.0
C579 C 0.63855 0.55818 0.75117 0.0
C580 C 0.60196 0.54538 0.73371 0.0
C581 C 0.55595 0.5208 0.74169 0.0
C582 C 0.52335 0.51233 0.71926 0.0
C583 C 0.48594 0.46456 0.71206 0.0
C584 C 0.50056 0.53199 0.72637 0.0
C585 C 0.55804 0.53522 0.69723 0.0
C586 C 0.60312 0.5537 0.70589 0.0
C587 C 0.64065 0.57452 0.68869 0.0
C588 C 0.63192 0.57683 0.662 0.0
C589 C 0.58623 0.55907 0.65293 0.0
C590 C 0.54895 0.53815 0.67085 0.0
H591 H 0.44384 0.98104 0.56368 0.0
H592 H 0.59338 0.07942 0.55279 0.0
H593 H 0.60985 0.06952 0.59806 0.0
H594 H 0.44157 0.00424 0.63224 0.0
H595 H 0.39898 0.9496 0.64052 0.0
H596 H 0.3992 0.96447 0.60735 0.0
H597 H 0.40711 0.91029 0.5878 0.0
H598 H 0.40672 0.8951 0.62093 0.0
H599 H 0.45467 0.91281 0.59947 0.0
H600 H 0.60914 0.05214 0.64578 0.0
H601 H 0.59201 0.02329 0.69056 0.0
H602 H 0.44346 0.9325 0.66869 0.0
C603 C 0.48002 1.0004 0.57087 0.0
C604 C 0.51739 0.03127 0.55503 0.0
C605 C 0.56434 0.05568 0.56479 0.0
C606 C 0.57397 0.05033 0.59043 0.0
C607 C 0.53626 0.01987 0.60574 0.0
C608 C 0.49027 0.99481 0.59615 0.0
C609 C 0.4562 0.9636 0.61629 0.0
C610 C 0.42198 0.97094 0.62459 0.0
C611 C 0.42962 0.91773 0.60547 0.0
C612 C 0.49009 0.97552 0.63893 0.0
C613 C 0.53608 0.00833 0.63258 0.0
C614 C 0.57333 0.02614 0.65087 0.0
C615 C 0.56329 0.0098 0.67626 0.0
C616 C 0.51652 0.9757 0.68291 0.0
C617 C 0.47961 0.95826 0.66394 0.0
H618 H 0.64441 0.57698 0.95624 0.0
H619 H 0.51402 0.45857 0.92455 0.0
H620 H 0.48943 0.43488 0.97026 0.0
H621 H 0.65983 0.53375 0.01407 0.0
H622 H 0.68194 0.57959 0.03552 0.0
H623 H 0.69197 0.58496 1.00028 0.0
H624 H 0.65347 0.61931 0.99762 0.0
H625 H 0.64327 0.61398 0.03277 0.0
H626 H 0.5948 0.59137 0.00945 0.0
H627 H 0.47584 0.42683 0.01909 0.0
H628 H 0.4732 0.43541 0.06772 0.0
H629 H 0.612 0.55967 0.06788 0.0
C630 C 0.61116 0.54572 0.95895 0.0
C631 C 0.58122 0.5194 0.93695 0.0
C632 C 0.53756 0.47905 0.9412 0.0
C633 C 0.52337 0.4653 0.96706 0.0
C634 C 0.55328 0.49231 0.98841 0.0
C635 C 0.59631 0.53165 0.98466 0.0
C636 C 0.62005 0.55592 0.01103 0.0
C637 C 0.66618 0.56402 0.01548 0.0
C638 C 0.62836 0.59759 0.01281 0.0
C639 C 0.58308 0.52456 0.03013 0.0
C640 C 0.54516 0.48786 0.01669 0.0
C641 C 0.50557 0.4552 0.02989 0.0
C642 C 0.50438 0.46044 0.05752 0.0
C643 C 0.54243 0.49817 0.07167 0.0
C644 C 0.58256 0.53026 0.05774 0.0
H645 H 0.07192 0.51023 0.22234 0.0
H646 H 0.9816 0.53775 0.20129 0.0
H647 H 0.97513 0.55012 0.24916 0.0
H648 H 0.01623 0.45643 0.28051 0.0
H649 H 0.0699 0.47894 0.29886 0.0
H650 H 0.0678 0.47323 0.26307 0.0
H651 H 0.13856 0.55344 0.26086 0.0
H652 H 0.14097 0.55942 0.2967 0.0
H653 H 0.13552 0.59147 0.2769 0.0
H654 H 0.97246 0.55183 0.29965 0.0
H655 H 0.98045 0.55059 0.34844 0.0
H656 H 0.07956 0.52963 0.3359 0.0
C657 C 0.05099 0.5191 0.22783 0.0
C658 C 0.02672 0.52265 0.20829 0.0
C659 C 1.00021 0.53482 0.21608 0.0
C660 C 0.99641 0.54185 0.24317 0.0
C661 C 0.02046 0.53766 0.26202 0.0
C662 C 0.04798 0.52738 0.25463 0.0
C663 C 0.07079 0.52536 0.27863 0.0
C664 C 0.05523 0.48084 0.28036 0.0
C665 C 0.12466 0.55946 0.27824 0.0
C666 C 0.05085 0.535 0.30083 0.0
C667 C 0.02155 0.54164 0.29088 0.0
C668 C 0.9961 0.54761 0.30765 0.0
C669 C 1.00072 0.54674 0.33525 0.0
C670 C 0.03124 0.5408 0.34576 0.0
C671 C 0.05695 0.53533 0.32832 0.0
loop_
_geom_bond_atom_site_label_1
_geom_bond_atom_site_label_2
_geom_bond_distance
_geom_bond_site_symmetry_2
_ccdc_geom_bond_type
Gd0 C3 2.818 . S
Gd0 O20 2.377 . S
Gd0 O22 2.448 . S
Gd0 O23 2.506 . S
Gd0 O24 2.435 . S
Gd0 O25 2.717 . S
Gd0 O27 2.395 1_455 S
Gd0 O31 2.327 . S
Gd1 C12 2.815 . S
Gd1 O21 2.398 1_655 S
Gd1 O25 2.329 1_655 S
Gd1 O26 2.377 . S
Gd1 O28 2.445 . S
Gd1 O29 2.503 . S
Gd1 O30 2.436 1_655 S
Gd1 O31 2.720 1_655 S
C2 O20 1.240 . S
C2 O21 1.240 . S
C3 Gd0 2.818 . S
C3 C4 1.510 . S
C3 O22 1.249 . S
C3 O23 1.252 . S
C4 C3 1.510 . S
C4 C5 1.404 . S
C4 C6 1.352 . S
C5 C4 1.404 . S
C5 C9 1.389 . S
C5 H32 0.930 . S
C6 C4 1.352 . S
C6 C8 1.374 . S
C6 H33 0.931 . S
C7 C8 1.359 . S
C7 C9 1.364 . S
C8 C6 1.374 . S
C8 C7 1.359 . S
C8 H34 0.931 . S
C9 C5 1.389 . S
C9 C7 1.364 . S
C9 H35 0.931 . S
C10 O24 1.256 . S
C10 O25 1.257 . S
C11 O26 1.240 . S
C11 O27 1.240 . S
C12 Gd1 2.815 . S
C12 C13 1.510 . S
C12 O28 1.249 . S
C12 O29 1.252 . S
C13 C12 1.510 . S
C13 C14 1.404 . S
C13 C15 1.352 . S
C14 C13 1.404 . S
C14 C18 1.389 . S
C14 H36 0.930 . S
C15 C13 1.352 . S
C15 C17 1.374 . S
C15 H37 0.931 . S
C16 C17 1.359 . S
C16 C18 1.364 . S
C17 C15 1.374 . S
C17 C16 1.359 . S
C17 H38 0.931 . S
C18 C14 1.389 . S
C18 C16 1.364 . S
C18 H39 0.931 . S
C19 O30 1.256 . S
C19 O31 1.257 . S
O20 Gd0 2.377 . S
O20 C2 1.240 . S
O21 Gd1 2.398 1_455 S
O21 C2 1.240 . S
O22 Gd0 2.448 . S
O22 C3 1.249 . S
O23 Gd0 2.506 . S
O23 C3 1.252 . S
O24 Gd0 2.435 . S
O24 C10 1.256 . S
O25 Gd0 2.717 . S
O25 Gd1 2.329 1_455 S
O25 C10 1.257 . S
O26 Gd1 2.377 . S
O26 C11 1.240 . S
O27 Gd0 2.395 1_655 S
O27 C11 1.240 . S
O28 Gd1 2.445 . S
O28 C12 1.249 . S
O29 Gd1 2.503 . S
O29 C12 1.252 . S
O30 Gd1 2.436 1_455 S
O30 C19 1.256 . S
O31 Gd0 2.327 . S
O31 Gd1 2.720 1_455 S
O31 C19 1.257 . S
H32 C5 0.930 . S
H33 C6 0.931 . S
H34 C8 0.931 . S
H35 C9 0.931 . S
H36 C14 0.930 . S
H37 C15 0.931 . S
H38 C17 0.931 . S
H39 C18 0.931 . S
Gd40 C43 2.818 . S
Gd40 O60 2.377 . S
Gd40 O62 2.448 . S
Gd40 O63 2.506 . S
Gd40 O64 2.435 . S
Gd40 O65 2.717 1_565 S
Gd40 O67 2.395 1_565 S
Gd40 O71 2.327 1_565 S
Gd41 C52 2.818 . S
Gd41 O61 2.395 1_545 S
Gd41 O65 2.327 . S
Gd41 O66 2.377 . S
Gd41 O68 2.448 . S
Gd41 O69 2.506 . S
Gd41 O70 2.435 . S
Gd41 O71 2.717 . S
C42 O60 1.240 . S
C42 O61 1.240 . S
C43 Gd40 2.818 . S
C43 C44 1.510 . S
C43 O62 1.249 . S
C43 O63 1.252 . S
C44 C43 1.510 . S
C44 C45 1.404 . S
C44 C46 1.352 . S
C45 C44 1.404 . S
C45 C49 1.389 . S
C45 H72 0.930 . S
C46 C44 1.352 . S
C46 C48 1.374 . S
C46 H73 0.931 . S
C47 C48 1.359 . S
C47 C49 1.364 . S
C48 C46 1.374 . S
C48 C47 1.359 . S
C48 H74 0.931 . S
C49 C45 1.389 . S
C49 C47 1.364 . S
C49 H75 0.931 . S
C50 O64 1.256 1_545 S
C50 O65 1.257 . S
C51 O66 1.240 . S
C51 O67 1.240 . S
C52 Gd41 2.818 . S
C52 C53 1.510 . S
C52 O68 1.249 . S
C52 O69 1.252 . S
C53 C52 1.510 . S
C53 C54 1.404 . S
C53 C55 1.352 . S
C54 C53 1.404 . S
C54 C58 1.389 . S
C54 H76 0.930 . S
C55 C53 1.352 . S
C55 C57 1.374 . S
C55 H77 0.931 . S
C56 C57 1.359 . S
C56 C58 1.364 . S
C57 C55 1.374 . S
C57 C56 1.359 . S
C57 H78 0.931 . S
C58 C54 1.389 . S
C58 C56 1.364 . S
C58 H79 0.931 . S
C59 O70 1.256 . S
C59 O71 1.257 . S
O60 Gd40 2.377 . S
O60 C42 1.240 . S
O61 Gd41 2.395 1_565 S
O61 C42 1.240 . S
O62 Gd40 2.448 . S
O62 C43 1.249 . S
O63 Gd40 2.506 . S
O63 C43 1.252 . S
O64 Gd40 2.435 . S
O64 C50 1.256 1_565 S
O65 Gd40 2.717 1_545 S
O65 Gd41 2.327 . S
O65 C50 1.257 . S
O66 Gd41 2.377 . S
O66 C51 1.240 . S
O67 Gd40 2.395 1_545 S
O67 C51 1.240 . S
O68 Gd41 2.448 . S
O68 C52 1.249 . S
O69 Gd41 2.506 . S
O69 C52 1.252 . S
O70 Gd41 2.435 . S
O70 C59 1.256 . S
O71 Gd40 2.327 1_545 S
O71 Gd41 2.717 . S
O71 C59 1.257 . S
H72 C45 0.930 . S
H73 C46 0.931 . S
H74 C48 0.931 . S
H75 C49 0.931 . S
H76 C54 0.930 . S
H77 C55 0.931 . S
H78 C57 0.931 . S
H79 C58 0.931 . S
Gd80 C83 2.818 . S
Gd80 O100 2.377 . S
Gd80 O102 2.448 . S
Gd80 O103 2.506 . S
Gd80 O104 2.435 . S
Gd80 O105 2.717 . S
Gd80 O107 2.395 . S
Gd80 O111 2.327 . S
Gd81 C92 2.818 . S
Gd81 O101 2.395 . S
Gd81 O105 2.327 . S
Gd81 O106 2.377 . S
Gd81 O108 2.448 . S
Gd81 O109 2.506 . S
Gd81 O110 2.435 . S
Gd81 O111 2.717 . S
C82 O100 1.240 . S
C82 O101 1.240 . S
C83 Gd80 2.818 . S
C83 C84 1.510 . S
C83 O102 1.249 . S
C83 O103 1.252 . S
C84 C83 1.510 . S
C84 C85 1.404 . S
C84 C86 1.352 . S
C85 C84 1.404 . S
C85 C89 1.389 . S
C85 H112 0.930 . S
C86 C84 1.352 . S
C86 C88 1.374 . S
C86 H113 0.931 . S
C87 C88 1.359 . S
C87 C89 1.364 . S
C88 C86 1.374 . S
C88 C87 1.359 . S
C88 H114 0.931 . S
C89 C85 1.389 . S
C89 C87 1.364 . S
C89 H115 0.931 . S
C90 O104 1.256 . S
C90 O105 1.257 . S
C91 O106 1.240 . S
C91 O107 1.240 . S
C92 Gd81 2.818 . S
C92 C93 1.510 . S
C92 O108 1.249 . S
C92 O109 1.252 . S
C93 C92 1.510 . S
C93 C94 1.404 . S
C93 C95 1.352 . S
C94 C93 1.404 . S
C94 C98 1.389 . S
C94 H116 0.930 . S
C95 C93 1.352 . S
C95 C97 1.374 . S
C95 H117 0.931 . S
C96 C97 1.359 . S
C96 C98 1.364 . S
C97 C95 1.374 . S
C97 C96 1.359 . S
C97 H118 0.931 . S
C98 C94 1.389 . S
C98 C96 1.364 . S
C98 H119 0.931 . S
C99 O110 1.256 . S
C99 O111 1.257 . S
O100 Gd80 2.377 . S
O100 C82 1.240 . S
O101 Gd81 2.395 . S
O101 C82 1.240 . S
O102 Gd80 2.448 . S
O102 C83 1.249 . S
O103 Gd80 2.506 . S
O103 C83 1.252 . S
O104 Gd80 2.435 . S
O104 C90 1.256 . S
O105 Gd80 2.717 . S
O105 Gd81 2.327 . S
O105 C90 1.257 . S
O106 Gd81 2.377 . S
O106 C91 1.240 . S
O107 Gd80 2.395 . S
O107 C91 1.240 . S
O108 Gd81 2.448 . S
O108 C92 1.249 . S
O109 Gd81 2.506 . S
O109 C92 1.252 . S
O110 Gd81 2.435 . S
O110 C99 1.256 . S
O111 Gd80 2.327 . S
O111 Gd81 2.717 . S
O111 C99 1.257 . S
H112 C85 0.930 . S
H113 C86 0.931 . S
H114 C88 0.931 . S
H115 C89 0.931 . S
H116 C94 0.930 . S
H117 C95 0.931 . S
H118 C97 0.931 . S
H119 C98 0.931 . S
O120 Cd121 2.300 . S
O120 C127 1.275 . S
Cd121 O120 2.300 . S
Cd121 O129 2.381 . S
Cd121 O130 2.378 . S
O122 Cd123 2.385 . S
O122 C127 1.255 1_565 S
Cd123 O122 2.385 . S
Cd123 O124 2.317 . S
O124 Cd123 2.317 . S
O124 C125 1.232 . S
C125 O124 1.232 . S
C125 O126 1.218 . S
O126 C125 1.218 . S
C127 O120 1.275 . S
C127 O122 1.255 1_545 S
C128 O129 1.258 . S
C128 O130 1.256 . S
O129 Cd121 2.381 . S
O129 C128 1.258 . S
O130 Cd121 2.378 . S
O130 C128 1.256 . S
O131 Cd132 2.300 . S
O131 C138 1.275 . S
Cd132 O131 2.300 . S
Cd132 O140 2.381 . S
Cd132 O141 2.378 . S
O133 Cd134 2.385 . S
O133 C138 1.255 . S
Cd134 O133 2.385 . S
Cd134 O135 2.317 . S
O135 Cd134 2.317 . S
O135 C136 1.232 . S
C136 O135 1.232 . S
C136 O137 1.218 . S
O137 C136 1.218 . S
C138 O131 1.275 . S
C138 O133 1.255 . S
C139 O140 1.258 . S
C139 O141 1.256 . S
O140 Cd132 2.381 . S
O140 C139 1.258 . S
O141 Cd132 2.378 . S
O141 C139 1.256 . S
O142 Cd143 2.300 . S
O142 C149 1.275 . S
Cd143 O142 2.300 . S
Cd143 O151 2.381 . S
Cd143 O152 2.378 . S
O144 Cd145 2.385 1_455 S
O144 C149 1.255 . S
Cd145 O144 2.385 1_655 S
Cd145 O146 2.317 . S
O146 Cd145 2.317 . S
O146 C147 1.232 . S
C147 O146 1.232 . S
C147 O148 1.218 . S
O148 C147 1.218 . S
C149 O142 1.275 . S
C149 O144 1.255 . S
C150 O151 1.258 . S
C150 O152 1.256 . S
O151 Cd143 2.381 . S
O151 C150 1.258 . S
O152 Cd143 2.378 . S
O152 C150 1.256 . S
O153 Cd154 2.300 . S
O153 C160 1.275 1_455 S
Cd154 O153 2.300 . S
Cd154 O162 2.381 . S
Cd154 O163 2.378 . S
O155 Cd156 2.385 . S
O155 C160 1.255 . S
Cd156 O155 2.385 . S
Cd156 O157 2.317 . S
O157 Cd156 2.317 . S
O157 C158 1.232 . S
C158 O157 1.232 . S
C158 O159 1.218 . S
O159 C158 1.218 . S
C160 O153 1.275 1_655 S
C160 O155 1.255 . S
C161 O162 1.258 . S
C161 O163 1.256 . S
O162 Cd154 2.381 . S
O162 C161 1.258 . S
O163 Cd154 2.378 . S
O163 C161 1.256 . S
O164 Cd165 2.300 . S
O164 C171 1.275 1_565 S
Cd165 O164 2.300 . S
Cd165 O173 2.381 . S
Cd165 O174 2.378 . S
O166 Cd167 2.385 . S
O166 C171 1.255 . S
Cd167 O166 2.385 . S
Cd167 O168 2.317 . S
O168 Cd167 2.317 . S
O168 C169 1.232 . S
C169 O168 1.232 . S
C169 O170 1.218 . S
O170 C169 1.218 . S
C171 O164 1.275 1_545 S
C171 O166 1.255 . S
C172 O173 1.258 . S
C172 O174 1.256 . S
O173 Cd165 2.381 . S
O173 C172 1.258 . S
O174 Cd165 2.378 . S
O174 C172 1.256 . S
O175 Cd176 2.300 . S
O175 C182 1.275 . S
Cd176 O175 2.300 . S
Cd176 O184 2.381 . S
Cd176 O185 2.378 . S
O177 Cd178 2.385 . S
O177 C182 1.255 . S
Cd178 O177 2.385 . S
Cd178 O179 2.317 . S
O179 Cd178 2.317 . S
O179 C180 1.232 . S
C180 O179 1.232 . S
C180 O181 1.218 . S
O181 C180 1.218 . S
C182 O175 1.275 . S
C182 O177 1.255 . S
C183 O184 1.258 . S
C183 O185 1.256 . S
O184 Cd176 2.381 . S
O184 C183 1.258 . S
O185 Cd176 2.378 . S
O185 C183 1.256 . S
H186 C198 0.930 . S
H187 C200 0.930 . S
H188 C201 0.930 . S
H189 C205 0.959 . S
H190 C205 0.959 . S
H191 C205 0.961 . S
H192 C206 0.960 . S
H193 C206 0.961 . S
H194 C206 0.959 . S
H195 C209 0.929 . S
H196 C210 0.931 . S
H197 C212 0.930 . S
C198 H186 0.930 . S
C198 C199 1.399 . S
C198 C203 1.399 . S
C199 C198 1.399 . S
C199 C200 1.376 . S
C200 H187 0.930 . S
C200 C199 1.376 . S
C200 C201 1.388 . S
C201 H188 0.930 . S
C201 C200 1.388 . S
C201 C202 1.390 . S
C202 C201 1.390 . S
C202 C203 1.394 . S
C202 C208 1.465 . S
C203 C198 1.399 . S
C203 C202 1.394 . S
C203 C204 1.516 . S
C204 C203 1.516 . S
C204 C205 1.502 . S
C204 C206 1.561 . S
C204 C207 1.526 . S
C205 H189 0.959 . S
C205 H190 0.959 . S
C205 H191 0.961 . S
C205 C204 1.502 . S
C206 H192 0.960 . S
C206 H193 0.961 . S
C206 H194 0.959 . S
C206 C204 1.561 . S
C207 C204 1.526 . S
C207 C208 1.396 . S
C207 C212 1.390 . S
C208 C202 1.465 . S
C208 C207 1.396 . S
C208 C209 1.399 . S
C209 H195 0.929 . S
C209 C208 1.399 . S
C209 C210 1.385 . S
C210 H196 0.931 . S
C210 C209 1.385 . S
C210 C211 1.389 . S
C211 C210 1.389 . S
C211 C212 1.387 . S
C212 H197 0.930 . S
C212 C207 1.390 . S
C212 C211 1.387 . S
H213 C225 0.930 . S
H214 C227 0.930 . S
H215 C228 0.930 . S
H216 C232 0.959 . S
H217 C232 0.959 . S
H218 C232 0.961 . S
H219 C233 0.960 . S
H220 C233 0.961 . S
H221 C233 0.959 . S
H222 C236 0.929 . S
H223 C237 0.931 . S
H224 C239 0.930 . S
C225 H213 0.930 . S
C225 C226 1.399 . S
C225 C230 1.399 . S
C226 C225 1.399 . S
C226 C227 1.376 . S
C227 H214 0.930 . S
C227 C226 1.376 . S
C227 C228 1.388 . S
C228 H215 0.930 . S
C228 C227 1.388 . S
C228 C229 1.390 . S
C229 C228 1.390 . S
C229 C230 1.394 . S
C229 C235 1.465 . S
C230 C225 1.399 . S
C230 C229 1.394 . S
C230 C231 1.516 . S
C231 C230 1.516 . S
C231 C232 1.502 . S
C231 C233 1.561 . S
C231 C234 1.526 . S
C232 H216 0.959 . S
C232 H217 0.959 . S
C232 H218 0.961 . S
C232 C231 1.502 . S
C233 H219 0.960 . S
C233 H220 0.961 . S
C233 H221 0.959 . S
C233 C231 1.561 . S
C234 C231 1.526 . S
C234 C235 1.396 . S
C234 C239 1.390 . S
C235 C229 1.465 . S
C235 C234 1.396 . S
C235 C236 1.399 . S
C236 H222 0.929 . S
C236 C235 1.399 . S
C236 C237 1.385 . S
C237 H223 0.931 . S
C237 C236 1.385 . S
C237 C238 1.389 . S
C238 C237 1.389 . S
C238 C239 1.387 . S
C239 H224 0.930 . S
C239 C234 1.390 . S
C239 C238 1.387 . S
H240 C252 0.930 . S
H241 C254 0.930 . S
H242 C255 0.930 . S
H243 C259 0.959 . S
H244 C259 0.959 . S
H245 C259 0.961 . S
H246 C260 0.960 . S
H247 C260 0.961 . S
H248 C260 0.959 . S
H249 C263 0.929 . S
H250 C264 0.931 . S
H251 C266 0.930 . S
C252 H240 0.930 . S
C252 C253 1.399 . S
C252 C257 1.399 . S
C253 C252 1.399 . S
C253 C254 1.376 . S
C254 H241 0.930 . S
C254 C253 1.376 . S
C254 C255 1.388 . S
C255 H242 0.930 . S
C255 C254 1.388 . S
C255 C256 1.390 . S
C256 C255 1.390 . S
C256 C257 1.394 . S
C256 C262 1.465 . S
C257 C252 1.399 . S
C257 C256 1.394 . S
C257 C258 1.516 . S
C258 C257 1.516 . S
C258 C259 1.502 . S
C258 C260 1.561 . S
C258 C261 1.526 . S
C259 H243 0.959 . S
C259 H244 0.959 . S
C259 H245 0.961 . S
C259 C258 1.502 . S
C260 H246 0.960 . S
C260 H247 0.961 . S
C260 H248 0.959 . S
C260 C258 1.561 . S
C261 C258 1.526 . S
C261 C262 1.396 . S
C261 C266 1.390 . S
C262 C256 1.465 . S
C262 C261 1.396 . S
C262 C263 1.399 . S
C263 H249 0.929 . S
C263 C262 1.399 . S
C263 C264 1.385 . S
C264 H250 0.931 . S
C264 C263 1.385 . S
C264 C265 1.389 . S
C265 C264 1.389 . S
C265 C266 1.387 . S
C266 H251 0.930 . S
C266 C261 1.390 . S
C266 C265 1.387 . S
H267 C279 0.930 . S
H268 C281 0.930 . S
H269 C282 0.930 . S
H270 C286 0.959 . S
H271 C286 0.959 . S
H272 C286 0.961 . S
H273 C287 0.960 . S
H274 C287 0.961 . S
H275 C287 0.959 . S
H276 C290 0.929 . S
H277 C291 0.931 . S
H278 C293 0.930 . S
C279 H267 0.930 . S
C279 C280 1.399 . S
C279 C284 1.399 . S
C280 C279 1.399 . S
C280 C281 1.376 . S
C281 H268 0.930 . S
C281 C280 1.376 . S
C281 C282 1.388 . S
C282 H269 0.930 . S
C282 C281 1.388 . S
C282 C283 1.390 . S
C283 C282 1.390 . S
C283 C284 1.394 . S
C283 C289 1.465 . S
C284 C279 1.399 . S
C284 C283 1.394 . S
C284 C285 1.516 . S
C285 C284 1.516 . S
C285 C286 1.502 . S
C285 C287 1.561 . S
C285 C288 1.526 . S
C286 H270 0.959 . S
C286 H271 0.959 . S
C286 H272 0.961 . S
C286 C285 1.502 . S
C287 H273 0.960 . S
C287 H274 0.961 . S
C287 H275 0.959 . S
C287 C285 1.561 . S
C288 C285 1.526 . S
C288 C289 1.396 . S
C288 C293 1.390 . S
C289 C283 1.465 . S
C289 C288 1.396 . S
C289 C290 1.399 . S
C290 H276 0.929 . S
C290 C289 1.399 . S
C290 C291 1.385 . S
C291 H277 0.931 . S
C291 C290 1.385 . S
C291 C292 1.389 . S
C292 C291 1.389 . S
C292 C293 1.387 . S
C293 H278 0.930 . S
C293 C288 1.390 . S
C293 C292 1.387 . S
H294 C306 0.930 . S
H295 C308 0.930 . S
H296 C309 0.930 . S
H297 C313 0.959 . S
H298 C313 0.959 . S
H299 C313 0.961 . S
H300 C314 0.960 . S
H301 C314 0.961 . S
H302 C314 0.959 . S
H303 C317 0.929 . S
H304 C318 0.931 . S
H305 C320 0.930 . S
C306 H294 0.930 . S
C306 C307 1.399 . S
C306 C311 1.399 . S
C307 C306 1.399 . S
C307 C308 1.376 . S
C308 H295 0.930 . S
C308 C307 1.376 . S
C308 C309 1.388 . S
C309 H296 0.930 . S
C309 C308 1.388 . S
C309 C310 1.390 . S
C310 C309 1.390 . S
C310 C311 1.394 . S
C310 C316 1.465 . S
C311 C306 1.399 . S
C311 C310 1.394 . S
C311 C312 1.516 . S
C312 C311 1.516 . S
C312 C313 1.502 . S
C312 C314 1.561 . S
C312 C315 1.526 . S
C313 H297 0.959 . S
C313 H298 0.959 . S
C313 H299 0.961 . S
C313 C312 1.502 . S
C314 H300 0.960 . S
C314 H301 0.961 . S
C314 H302 0.959 . S
C314 C312 1.561 . S
C315 C312 1.526 . S
C315 C316 1.396 . S
C315 C320 1.390 . S
C316 C310 1.465 . S
C316 C315 1.396 . S
C316 C317 1.399 . S
C317 H303 0.929 . S
C317 C316 1.399 . S
C317 C318 1.385 . S
C318 H304 0.931 . S
C318 C317 1.385 . S
C318 C319 1.389 . S
C319 C318 1.389 . S
C319 C320 1.387 . S
C320 H305 0.930 . S
C320 C315 1.390 . S
C320 C319 1.387 . S
H321 C333 0.930 . S
H322 C335 0.930 . S
H323 C336 0.930 . S
H324 C340 0.959 . S
H325 C340 0.959 . S
H326 C340 0.961 . S
H327 C341 0.960 . S
H328 C341 0.961 . S
H329 C341 0.959 . S
H330 C344 0.929 . S
H331 C345 0.931 . S
H332 C347 0.930 . S
C333 H321 0.930 . S
C333 C334 1.399 . S
C333 C338 1.399 . S
C334 C333 1.399 . S
C334 C335 1.376 . S
C335 H322 0.930 . S
C335 C334 1.376 . S
C335 C336 1.388 . S
C336 H323 0.930 . S
C336 C335 1.388 . S
C336 C337 1.390 . S
C337 C336 1.390 . S
C337 C338 1.394 . S
C337 C343 1.465 . S
C338 C333 1.399 . S
C338 C337 1.394 . S
C338 C339 1.516 . S
C339 C338 1.516 . S
C339 C340 1.502 . S
C339 C341 1.561 . S
C339 C342 1.526 . S
C340 H324 0.959 . S
C340 H325 0.959 . S
C340 H326 0.961 . S
C340 C339 1.502 . S
C341 H327 0.960 . S
C341 H328 0.961 . S
C341 H329 0.959 . S
C341 C339 1.561 . S
C342 C339 1.526 . S
C342 C343 1.396 . S
C342 C347 1.390 . S
C343 C337 1.465 . S
C343 C342 1.396 . S
C343 C344 1.399 . S
C344 H330 0.929 . S
C344 C343 1.399 . S
C344 C345 1.385 . S
C345 H331 0.931 . S
C345 C344 1.385 . S
C345 C346 1.389 . S
C346 C345 1.389 . S
C346 C347 1.387 . S
C347 H332 0.930 . S
C347 C342 1.390 . S
C347 C346 1.387 . S
H348 C360 0.930 . S
H349 C362 0.930 . S
H350 C363 0.930 . S
H351 C367 0.959 . S
H352 C367 0.959 . S
H353 C367 0.961 . S
H354 C368 0.960 . S
H355 C368 0.961 . S
H356 C368 0.959 . S
H357 C371 0.929 . S
H358 C372 0.931 . S
H359 C374 0.930 . S
C360 H348 0.930 . S
C360 C361 1.399 . S
C360 C365 1.399 . S
C361 C360 1.399 . S
C361 C362 1.376 . S
C362 H349 0.930 . S
C362 C361 1.376 . S
C362 C363 1.388 . S
C363 H350 0.930 . S
C363 C362 1.388 . S
C363 C364 1.390 . S
C364 C363 1.390 . S
C364 C365 1.394 . S
C364 C370 1.465 . S
C365 C360 1.399 . S
C365 C364 1.394 . S
C365 C366 1.516 . S
C366 C365 1.516 . S
C366 C367 1.502 . S
C366 C368 1.561 . S
C366 C369 1.526 . S
C367 H351 0.959 . S
C367 H352 0.959 . S
C367 H353 0.961 . S
C367 C366 1.502 . S
C368 H354 0.960 . S
C368 H355 0.961 . S
C368 H356 0.959 . S
C368 C366 1.561 . S
C369 C366 1.526 . S
C369 C370 1.396 . S
C369 C374 1.390 . S
C370 C364 1.465 . S
C370 C369 1.396 . S
C370 C371 1.399 . S
C371 H357 0.929 . S
C371 C370 1.399 . S
C371 C372 1.385 . S
C372 H358 0.931 . S
C372 C371 1.385 . S
C372 C373 1.389 . S
C373 C372 1.389 . S
C373 C374 1.387 . S
C374 H359 0.930 . S
C374 C369 1.390 . S
C374 C373 1.387 . S
H375 C387 0.930 . S
H376 C389 0.930 . S
H377 C390 0.930 . S
H378 C394 0.959 . S
H379 C394 0.959 . S
H380 C394 0.961 . S
H381 C395 0.960 . S
H382 C395 0.961 . S
H383 C395 0.959 . S
H384 C398 0.929 . S
H385 C399 0.931 . S
H386 C401 0.930 . S
C387 H375 0.930 . S
C387 C388 1.399 . S
C387 C392 1.399 . S
C388 C387 1.399 . S
C388 C389 1.376 . S
C389 H376 0.930 . S
C389 C388 1.376 . S
C389 C390 1.388 . S
C390 H377 0.930 . S
C390 C389 1.388 . S
C390 C391 1.390 . S
C391 C390 1.390 . S
C391 C392 1.394 . S
C391 C397 1.465 . S
C392 C387 1.399 . S
C392 C391 1.394 . S
C392 C393 1.516 . S
C393 C392 1.516 . S
C393 C394 1.502 . S
C393 C395 1.561 . S
C393 C396 1.526 . S
C394 H378 0.959 . S
C394 H379 0.959 . S
C394 H380 0.961 . S
C394 C393 1.502 . S
C395 H381 0.960 . S
C395 H382 0.961 . S
C395 H383 0.959 . S
C395 C393 1.561 . S
C396 C393 1.526 . S
C396 C397 1.396 . S
C396 C401 1.390 . S
C397 C391 1.465 . S
C397 C396 1.396 . S
C397 C398 1.399 . S
C398 H384 0.929 . S
C398 C397 1.399 . S
C398 C399 1.385 . S
C399 H385 0.931 . S
C399 C398 1.385 . S
C399 C400 1.389 . S
C400 C399 1.389 . S
C400 C401 1.387 . S
C401 H386 0.930 . S
C401 C396 1.390 . S
C401 C400 1.387 . S
H402 C414 0.930 . S
H403 C416 0.930 . S
H404 C417 0.930 . S
H405 C421 0.959 . S
H406 C421 0.959 . S
H407 C421 0.961 . S
H408 C422 0.960 . S
H409 C422 0.961 . S
H410 C422 0.959 . S
H411 C425 0.929 . S
H412 C426 0.931 . S
H413 C428 0.930 . S
C414 H402 0.930 . S
C414 C415 1.399 . S
C414 C419 1.399 . S
C415 C414 1.399 . S
C415 C416 1.376 . S
C416 H403 0.930 . S
C416 C415 1.376 . S
C416 C417 1.388 . S
C417 H404 0.930 . S
C417 C416 1.388 . S
C417 C418 1.390 . S
C418 C417 1.390 . S
C418 C419 1.394 . S
C418 C424 1.465 . S
C419 C414 1.399 . S
C419 C418 1.394 . S
C419 C420 1.516 . S
C420 C419 1.516 . S
C420 C421 1.502 . S
C420 C422 1.561 . S
C420 C423 1.526 . S
C421 H405 0.959 . S
C421 H406 0.959 . S
C421 H407 0.961 . S
C421 C420 1.502 . S
C422 H408 0.960 . S
C422 H409 0.961 . S
C422 H410 0.959 . S
C422 C420 1.561 . S
C423 C420 1.526 . S
C423 C424 1.396 . S
C423 C428 1.390 . S
C424 C418 1.465 . S
C424 C423 1.396 . S
C424 C425 1.399 . S
C425 H411 0.929 . S
C425 C424 1.399 . S
C425 C426 1.385 . S
C426 H412 0.931 . S
C426 C425 1.385 . S
C426 C427 1.389 . S
C427 C426 1.389 . S
C427 C428 1.387 . S
C428 H413 0.930 . S
C428 C423 1.390 . S
C428 C427 1.387 . S
H429 C441 0.930 . S
H430 C443 0.930 . S
H431 C444 0.930 . S
H432 C448 0.959 . S
H433 C448 0.959 . S
H434 C448 0.961 . S
H435 C449 0.960 . S
H436 C449 0.961 . S
H437 C449 0.959 . S
H438 C452 0.929 . S
H439 C453 0.931 . S
H440 C455 0.930 . S
C441 H429 0.930 . S
C441 C442 1.399 . S
C441 C446 1.399 . S
C442 C441 1.399 . S
C442 C443 1.376 . S
C443 H430 0.930 . S
C443 C442 1.376 . S
C443 C444 1.388 . S
C444 H431 0.930 . S
C444 C443 1.388 . S
C444 C445 1.390 . S
C445 C444 1.390 . S
C445 C446 1.394 . S
C445 C451 1.465 . S
C446 C441 1.399 . S
C446 C445 1.394 . S
C446 C447 1.516 . S
C447 C446 1.516 . S
C447 C448 1.502 . S
C447 C449 1.561 . S
C447 C450 1.526 . S
C448 H432 0.959 . S
C448 H433 0.959 . S
C448 H434 0.961 . S
C448 C447 1.502 . S
C449 H435 0.960 . S
C449 H436 0.961 . S
C449 H437 0.959 . S
C449 C447 1.561 . S
C450 C447 1.526 . S
C450 C451 1.396 . S
C450 C455 1.390 . S
C451 C445 1.465 . S
C451 C450 1.396 . S
C451 C452 1.399 . S
C452 H438 0.929 . S
C452 C451 1.399 . S
C452 C453 1.385 . S
C453 H439 0.931 . S
C453 C452 1.385 . S
C453 C454 1.389 . S
C454 C453 1.389 . S
C454 C455 1.387 . S
C455 H440 0.930 . S
C455 C450 1.390 . S
C455 C454 1.387 . S
H456 C468 0.930 . S
H457 C470 0.930 . S
H458 C471 0.930 . S
H459 C475 0.959 . S
H460 C475 0.959 . S
H461 C475 0.961 . S
H462 C476 0.960 . S
H463 C476 0.961 . S
H464 C476 0.959 . S
H465 C479 0.929 . S
H466 C480 0.931 . S
H467 C482 0.930 . S
C468 H456 0.930 . S
C468 C469 1.399 . S
C468 C473 1.399 . S
C469 C468 1.399 . S
C469 C470 1.376 . S
C470 H457 0.930 . S
C470 C469 1.376 . S
C470 C471 1.388 . S
C471 H458 0.930 . S
C471 C470 1.388 . S
C471 C472 1.390 . S
C472 C471 1.390 . S
C472 C473 1.394 . S
C472 C478 1.465 . S
C473 C468 1.399 . S
C473 C472 1.394 . S
C473 C474 1.516 . S
C474 C473 1.516 . S
C474 C475 1.502 . S
C474 C476 1.561 . S
C474 C477 1.526 . S
C475 H459 0.959 . S
C475 H460 0.959 . S
C475 H461 0.961 . S
C475 C474 1.502 . S
C476 H462 0.960 . S
C476 H463 0.961 . S
C476 H464 0.959 . S
C476 C474 1.561 . S
C477 C474 1.526 . S
C477 C478 1.396 . S
C477 C482 1.390 . S
C478 C472 1.465 . S
C478 C477 1.396 . S
C478 C479 1.399 . S
C479 H465 0.929 . S
C479 C478 1.399 . S
C479 C480 1.385 . S
C480 H466 0.931 . S
C480 C479 1.385 . S
C480 C481 1.389 . S
C481 C480 1.389 . S
C481 C482 1.387 . S
C482 H467 0.930 . S
C482 C477 1.390 . S
C482 C481 1.387 . S
H483 C495 0.930 . S
H484 C497 0.930 . S
H485 C498 0.930 . S
H486 C502 0.959 . S
H487 C502 0.959 . S
H488 C502 0.961 . S
H489 C503 0.960 . S
H490 C503 0.961 . S
H491 C503 0.959 . S
H492 C506 0.929 . S
H493 C507 0.931 . S
H494 C509 0.930 . S
C495 H483 0.930 . S
C495 C496 1.399 . S
C495 C500 1.399 . S
C496 C495 1.399 . S
C496 C497 1.376 . S
C497 H484 0.930 . S
C497 C496 1.376 . S
C497 C498 1.388 . S
C498 H485 0.930 . S
C498 C497 1.388 . S
C498 C499 1.390 . S
C499 C498 1.390 . S
C499 C500 1.394 . S
C499 C505 1.465 . S
C500 C495 1.399 . S
C500 C499 1.394 . S
C500 C501 1.516 . S
C501 C500 1.516 . S
C501 C502 1.502 . S
C501 C503 1.561 . S
C501 C504 1.526 . S
C502 H486 0.959 . S
C502 H487 0.959 . S
C502 H488 0.961 . S
C502 C501 1.502 . S
C503 H489 0.960 . S
C503 H490 0.961 . S
C503 H491 0.959 . S
C503 C501 1.561 . S
C504 C501 1.526 . S
C504 C505 1.396 . S
C504 C509 1.390 . S
C505 C499 1.465 . S
C505 C504 1.396 . S
C505 C506 1.399 . S
C506 H492 0.929 . S
C506 C505 1.399 . S
C506 C507 1.385 . S
C507 H493 0.931 . S
C507 C506 1.385 . S
C507 C508 1.389 . S
C508 C507 1.389 . S
C508 C509 1.387 . S
C509 H494 0.930 . S
C509 C504 1.390 . S
C509 C508 1.387 . S
H510 C522 0.930 . S
H511 C524 0.930 . S
H512 C525 0.930 1_655 S
H513 C529 0.959 . S
H514 C529 0.959 . S
H515 C529 0.961 . S
H516 C530 0.960 . S
H517 C530 0.961 . S
H518 C530 0.959 . S
H519 C533 0.929 1_655 S
H520 C534 0.930 . S
H521 C536 0.930 . S
C522 H510 0.930 . S
C522 C523 1.399 . S
C522 C527 1.399 . S
C523 C522 1.399 . S
C523 C524 1.376 . S
C524 H511 0.930 . S
C524 C523 1.376 . S
C524 C525 1.388 . S
C525 H512 0.930 1_455 S
C525 C524 1.388 . S
C525 C526 1.390 . S
C526 C525 1.390 . S
C526 C527 1.394 . S
C526 C532 1.487 . S
C527 C522 1.399 . S
C527 C526 1.394 . S
C527 C528 1.516 . S
C528 C527 1.516 . S
C528 C529 1.502 . S
C528 C530 1.561 . S
C528 C531 1.526 1_554 S
C529 H513 0.959 . S
C529 H514 0.959 . S
C529 H515 0.961 . S
C529 C528 1.502 . S
C530 H516 0.960 . S
C530 H517 0.961 . S
C530 H518 0.959 . S
C530 C528 1.561 . S
C531 C528 1.526 1_556 S
C531 C532 1.391 1_556 S
C531 C536 1.390 . S
C532 C526 1.487 . S
C532 C531 1.391 1_554 S
C532 C533 1.383 1_554 S
C533 H519 0.929 1_455 S
C533 C532 1.383 1_556 S
C533 C534 1.385 . S
C534 H520 0.930 . S
C534 C533 1.385 . S
C534 C535 1.389 . S
C535 C534 1.389 . S
C535 C536 1.387 . S
C536 H521 0.930 . S
C536 C531 1.390 . S
C536 C535 1.387 . S
H537 C549 0.930 . S
H538 C551 0.930 . S
H539 C552 0.930 . S
H540 C556 0.959 . S
H541 C556 0.959 . S
H542 C556 0.961 . S
H543 C557 0.960 . S
H544 C557 0.961 . S
H545 C557 0.959 . S
H546 C560 0.929 . S
H547 C561 0.931 . S
H548 C563 0.930 . S
C549 H537 0.930 . S
C549 C550 1.399 . S
C549 C554 1.399 . S
C550 C549 1.399 . S
C550 C551 1.376 1_545 S
C551 H538 0.930 . S
C551 C550 1.376 1_565 S
C551 C552 1.388 . S
C552 H539 0.930 . S
C552 C551 1.388 . S
C552 C553 1.390 1_565 S
C553 C552 1.390 1_545 S
C553 C554 1.394 . S
C553 C559 1.465 . S
C554 C549 1.399 . S
C554 C553 1.394 . S
C554 C555 1.516 . S
C555 C554 1.516 . S
C555 C556 1.502 . S
C555 C557 1.561 . S
C555 C558 1.526 . S
C556 H540 0.959 . S
C556 H541 0.959 . S
C556 H542 0.961 . S
C556 C555 1.502 . S
C557 H543 0.960 . S
C557 H544 0.961 . S
C557 H545 0.959 . S
C557 C555 1.561 . S
C558 C555 1.526 . S
C558 C559 1.396 . S
C558 C563 1.390 . S
C559 C553 1.465 . S
C559 C558 1.396 . S
C559 C560 1.399 1_545 S
C560 H546 0.929 . S
C560 C559 1.399 1_565 S
C560 C561 1.385 . S
C561 H547 0.931 . S
C561 C560 1.385 . S
C561 C562 1.389 1_565 S
C562 C561 1.389 1_545 S
C562 C563 1.387 . S
C563 H548 0.930 . S
C563 C558 1.390 . S
C563 C562 1.387 . S
H564 C576 0.930 . S
H565 C578 0.930 . S
H566 C579 0.930 . S
H567 C583 0.959 . S
H568 C583 0.959 . S
H569 C583 0.961 . S
H570 C584 0.960 . S
H571 C584 0.961 . S
H572 C584 0.959 . S
H573 C587 0.929 . S
H574 C588 0.931 . S
H575 C590 0.930 . S
C576 H564 0.930 . S
C576 C577 1.399 . S
C576 C581 1.399 . S
C577 C576 1.399 . S
C577 C578 1.376 . S
C578 H565 0.930 . S
C578 C577 1.376 . S
C578 C579 1.388 . S
C579 H566 0.930 . S
C579 C578 1.388 . S
C579 C580 1.390 . S
C580 C579 1.390 . S
C580 C581 1.394 . S
C580 C586 1.465 . S
C581 C576 1.399 . S
C581 C580 1.394 . S
C581 C582 1.516 . S
C582 C581 1.516 . S
C582 C583 1.502 . S
C582 C584 1.561 . S
C582 C585 1.526 . S
C583 H567 0.959 . S
C583 H568 0.959 . S
C583 H569 0.961 . S
C583 C582 1.502 . S
C584 H570 0.960 . S
C584 H571 0.961 . S
C584 H572 0.959 . S
C584 C582 1.561 . S
C585 C582 1.526 . S
C585 C586 1.396 . S
C585 C590 1.390 . S
C586 C580 1.465 . S
C586 C585 1.396 . S
C586 C587 1.399 . S
C587 H573 0.929 . S
C587 C586 1.399 . S
C587 C588 1.385 . S
C588 H574 0.931 . S
C588 C587 1.385 . S
C588 C589 1.389 . S
C589 C588 1.389 . S
C589 C590 1.387 . S
C590 H575 0.930 . S
C590 C585 1.390 . S
C590 C589 1.387 . S
H591 C603 0.930 . S
H592 C605 0.930 . S
H593 C606 0.930 . S
H594 C610 0.959 . S
H595 C610 0.959 . S
H596 C610 0.961 . S
H597 C611 0.960 . S
H598 C611 0.961 . S
H599 C611 0.959 . S
H600 C614 0.929 . S
H601 C615 0.931 . S
H602 C617 0.930 . S
C603 H591 0.930 . S
C603 C604 1.399 1_565 S
C603 C608 1.399 . S
C604 C603 1.399 1_545 S
C604 C605 1.376 . S
C605 H592 0.930 . S
C605 C604 1.376 . S
C605 C606 1.388 . S
C606 H593 0.930 . S
C606 C605 1.388 . S
C606 C607 1.390 . S
C607 C606 1.390 . S
C607 C608 1.394 1_545 S
C607 C613 1.465 . S
C608 C603 1.399 . S
C608 C607 1.394 1_565 S
C608 C609 1.516 . S
C609 C608 1.516 . S
C609 C610 1.502 . S
C609 C611 1.561 . S
C609 C612 1.526 . S
C610 H594 0.959 . S
C610 H595 0.959 . S
C610 H596 0.961 . S
C610 C609 1.502 . S
C611 H597 0.960 . S
C611 H598 0.961 . S
C611 H599 0.959 . S
C611 C609 1.561 . S
C612 C609 1.526 . S
C612 C613 1.396 1_565 S
C612 C617 1.390 . S
C613 C607 1.465 . S
C613 C612 1.396 1_545 S
C613 C614 1.399 . S
C614 H600 0.929 . S
C614 C613 1.399 . S
C614 C615 1.385 . S
C615 H601 0.931 . S
C615 C614 1.385 . S
C615 C616 1.389 . S
C616 C615 1.389 . S
C616 C617 1.387 1_545 S
C617 H602 0.930 . S
C617 C612 1.390 . S
C617 C616 1.387 1_565 S
H618 C630 0.930 . S
H619 C632 0.930 . S
H620 C633 0.930 . S
H621 C637 0.959 . S
H622 C637 0.959 1_554 S
H623 C637 0.961 . S
H624 C638 0.960 . S
H625 C638 0.961 1_554 S
H626 C638 0.959 . S
H627 C641 0.929 . S
H628 C642 0.931 . S
H629 C644 0.930 . S
C630 H618 0.930 . S
C630 C631 1.399 . S
C630 C635 1.399 . S
C631 C630 1.399 . S
C631 C632 1.376 . S
C632 H619 0.930 . S
C632 C631 1.376 . S
C632 C633 1.388 . S
C633 H620 0.930 . S
C633 C632 1.388 . S
C633 C634 1.390 . S
C634 C633 1.390 . S
C634 C635 1.394 . S
C634 C640 1.465 . S
C635 C630 1.399 . S
C635 C634 1.394 . S
C635 C636 1.516 . S
C636 C635 1.516 . S
C636 C637 1.502 . S
C636 C638 1.561 . S
C636 C639 1.539 . S
C637 H621 0.959 . S
C637 H622 0.959 1_556 S
C637 H623 0.961 . S
C637 C636 1.502 . S
C638 H624 0.960 . S
C638 H625 0.961 1_556 S
C638 H626 0.959 . S
C638 C636 1.561 . S
C639 C636 1.539 . S
C639 C640 1.406 . S
C639 C644 1.369 1_556 S
C640 C634 1.465 . S
C640 C639 1.406 . S
C640 C641 1.399 . S
C641 H627 0.929 . S
C641 C640 1.399 . S
C641 C642 1.385 1_556 S
C642 H628 0.931 . S
C642 C641 1.385 1_554 S
C642 C643 1.389 . S
C643 C642 1.389 . S
C643 C644 1.387 . S
C644 H629 0.930 . S
C644 C639 1.369 1_554 S
C644 C643 1.387 . S
H645 C657 0.930 . S
H646 C659 0.930 . S
H647 C660 0.930 . S
H648 C664 0.959 . S
H649 C664 0.959 . S
H650 C664 0.961 . S
H651 C665 0.960 . S
H652 C665 0.961 . S
H653 C665 0.959 . S
H654 C668 0.929 . S
H655 C669 0.931 . S
H656 C671 0.930 . S
C657 H645 0.930 . S
C657 C658 1.399 . S
C657 C662 1.399 . S
C658 C657 1.399 . S
C658 C659 1.376 1_455 S
C659 H646 0.930 . S
C659 C658 1.376 1_655 S
C659 C660 1.388 . S
C660 H647 0.930 . S
C660 C659 1.388 . S
C660 C661 1.390 . S
C661 C660 1.390 . S
C661 C662 1.394 1_655 S
C661 C667 1.465 . S
C662 C657 1.399 . S
C662 C661 1.394 1_455 S
C662 C663 1.516 . S
C663 C662 1.516 . S
C663 C664 1.502 . S
C663 C665 1.561 . S
C663 C666 1.526 . S
C664 H648 0.959 . S
C664 H649 0.959 . S
C664 H650 0.961 . S
C664 C663 1.502 . S
C665 H651 0.960 . S
C665 H652 0.961 . S
C665 H653 0.959 . S
C665 C663 1.561 . S
C666 C663 1.526 . S
C666 C667 1.396 1_455 S
C666 C671 1.390 . S
C667 C661 1.465 . S
C667 C666 1.396 1_655 S
C667 C668 1.399 . S
C668 H654 0.929 . S
C668 C667 1.399 . S
C668 C669 1.385 . S
C669 H655 0.931 . S
C669 C668 1.385 . S
C669 C670 1.389 . S
C670 C669 1.389 . S
C670 C671 1.387 1_655 S
C671 H656 0.930 . S
C671 C666 1.390 . S
C671 C670 1.387 1_455 S
C199 C7 0.644 . S
C211 C180 0.730 . S
C226 C51 2.035 . S
C238 C158 1.704 . S
C253 C87 1.070 . S
C265 C172 1.085 . S
C280 C16 0.232 . S
C292 C183 0.135 . S
C319 C161 1.783 . S
C307 C42 1.859 . S
C346 C169 1.224 . S
C334 C96 1.427 . S
C361 C47 1.312 . S
C373 C136 1.158 . S
C388 C91 3.264 . S
C400 C147 2.918 . S
C415 C2 2.115 . S
C427 C125 1.802 . S
C454 C139 1.059 . S
C442 C56 1.084 . S
C481 C150 2.780 . S
C469 C82 2.865 . S
C496 C11 1.771 . S
C508 C128 1.700 . S
C535 C149 1.613 . S
C523 C19 1.683 . S
C550 C50 1.366 . S
C562 C127 1.373 . S
C577 C99 1.530 . S
C589 C138 1.511 . S
C616 C171 1.430 . S
C604 C59 1.461 . S
C643 C182 1.252 . S
C631 C90 1.247 . S
C658 C10 1.448 . S
C670 C160 1.409 . S
