# Generated by pormake.
# Topology ocu, (6,8)-cn, num edge types: 1
# Building blocks:
#     Node 0, Type 0, BuildingBlock: VOLQOD_clean_sbu_1, # of connection points: 6
#     Node 1, Type 0, BuildingBlock: VOLQOD_clean_sbu_1, # of connection points: 6
#     Node 2, Type 0, BuildingBlock: VOLQOD_clean_sbu_1, # of connection points: 6
#     Node 3, Type 0, BuildingBlock: VOLQOD_clean_sbu_1, # of connection points: 6
#     Node 4, Type 0, BuildingBlock: VOLQOD_clean_sbu_1, # of connection points: 6
#     Node 5, Type 0, BuildingBlock: VOLQOD_clean_sbu_1, # of connection points: 6
#     Node 6, Type 0, BuildingBlock: VOLQOD_clean_sbu_1, # of connection points: 6
#     Node 7, Type 0, BuildingBlock: VOLQOD_clean_sbu_1, # of connection points: 6
#     Node 8, Type 1, BuildingBlock: TAGTUT_clean_sbu_1, # of connection points: 8
#     Node 9, Type 1, BuildingBlock: TAGTUT_clean_sbu_1, # of connection points: 8
#     Node 10, Type 1, BuildingBlock: TAGTUT_clean_sbu_1, # of connection points: 8
#     Node 11, Type 1, BuildingBlock: TAGTUT_clean_sbu_1, # of connection points: 8
#     Node 12, Type 1, BuildingBlock: TAGTUT_clean_sbu_1, # of connection points: 8
#     Node 13, Type 1, BuildingBlock: TAGTUT_clean_sbu_1, # of connection points: 8
#     Edge 14, Type (0, 1), BuildingBlock: ZUJKAS_clean_linker_0, # of connection points: 2
#     Edge 15, Type (0, 1), BuildingBlock: ZUJKAS_clean_linker_0, # of connection points: 2
#     Edge 16, Type (0, 1), BuildingBlock: ZUJKAS_clean_linker_0, # of connection points: 2
#     Edge 17, Type (0, 1), BuildingBlock: ZUJKAS_clean_linker_0, # of connection points: 2
#     Edge 18, Type (0, 1), BuildingBlock: ZUJKAS_clean_linker_0, # of connection points: 2
#     Edge 19, Type (0, 1), BuildingBlock: ZUJKAS_clean_linker_0, # of connection points: 2
#     Edge 20, Type (0, 1), BuildingBlock: ZUJKAS_clean_linker_0, # of connection points: 2
#     Edge 21, Type (0, 1), BuildingBlock: ZUJKAS_clean_linker_0, # of connection points: 2
#     Edge 22, Type (0, 1), BuildingBlock: ZUJKAS_clean_linker_0, # of connection points: 2
#     Edge 23, Type (0, 1), BuildingBlock: ZUJKAS_clean_linker_0, # of connection points: 2
#     Edge 24, Type (0, 1), BuildingBlock: ZUJKAS_clean_linker_0, # of connection points: 2
#     Edge 25, Type (0, 1), BuildingBlock: ZUJKAS_clean_linker_0, # of connection points: 2
#     Edge 26, Type (0, 1), BuildingBlock: ZUJKAS_clean_linker_0, # of connection points: 2
#     Edge 27, Type (0, 1), BuildingBlock: ZUJKAS_clean_linker_0, # of connection points: 2
#     Edge 28, Type (0, 1), BuildingBlock: ZUJKAS_clean_linker_0, # of connection points: 2
#     Edge 29, Type (0, 1), BuildingBlock: ZUJKAS_clean_linker_0, # of connection points: 2
#     Edge 30, Type (0, 1), BuildingBlock: ZUJKAS_clean_linker_0, # of connection points: 2
#     Edge 31, Type (0, 1), BuildingBlock: ZUJKAS_clean_linker_0, # of connection points: 2
#     Edge 32, Type (0, 1), BuildingBlock: ZUJKAS_clean_linker_0, # of connection points: 2
#     Edge 33, Type (0, 1), BuildingBlock: ZUJKAS_clean_linker_0, # of connection points: 2
#     Edge 34, Type (0, 1), BuildingBlock: ZUJKAS_clean_linker_0, # of connection points: 2
#     Edge 35, Type (0, 1), BuildingBlock: ZUJKAS_clean_linker_0, # of connection points: 2
#     Edge 36, Type (0, 1), BuildingBlock: ZUJKAS_clean_linker_0, # of connection points: 2
#     Edge 37, Type (0, 1), BuildingBlock: ZUJKAS_clean_linker_0, # of connection points: 2
#     Edge 38, Type (0, 1), BuildingBlock: ZUJKAS_clean_linker_0, # of connection points: 2
#     Edge 39, Type (0, 1), BuildingBlock: ZUJKAS_clean_linker_0, # of connection points: 2
#     Edge 40, Type (0, 1), BuildingBlock: ZUJKAS_clean_linker_0, # of connection points: 2
#     Edge 41, Type (0, 1), BuildingBlock: ZUJKAS_clean_linker_0, # of connection points: 2
#     Edge 42, Type (0, 1), BuildingBlock: ZUJKAS_clean_linker_0, # of connection points: 2
#     Edge 43, Type (0, 1), BuildingBlock: ZUJKAS_clean_linker_0, # of connection points: 2
#     Edge 44, Type (0, 1), BuildingBlock: ZUJKAS_clean_linker_0, # of connection points: 2
#     Edge 45, Type (0, 1), BuildingBlock: ZUJKAS_clean_linker_0, # of connection points: 2
#     Edge 46, Type (0, 1), BuildingBlock: ZUJKAS_clean_linker_0, # of connection points: 2
#     Edge 47, Type (0, 1), BuildingBlock: ZUJKAS_clean_linker_0, # of connection points: 2
#     Edge 48, Type (0, 1), BuildingBlock: ZUJKAS_clean_linker_0, # of connection points: 2
#     Edge 49, Type (0, 1), BuildingBlock: ZUJKAS_clean_linker_0, # of connection points: 2
#     Edge 50, Type (0, 1), BuildingBlock: ZUJKAS_clean_linker_0, # of connection points: 2
#     Edge 51, Type (0, 1), BuildingBlock: ZUJKAS_clean_linker_0, # of connection points: 2
#     Edge 52, Type (0, 1), BuildingBlock: ZUJKAS_clean_linker_0, # of connection points: 2
#     Edge 53, Type (0, 1), BuildingBlock: ZUJKAS_clean_linker_0, # of connection points: 2
#     Edge 54, Type (0, 1), BuildingBlock: ZUJKAS_clean_linker_0, # of connection points: 2
#     Edge 55, Type (0, 1), BuildingBlock: ZUJKAS_clean_linker_0, # of connection points: 2
#     Edge 56, Type (0, 1), BuildingBlock: ZUJKAS_clean_linker_0, # of connection points: 2
#     Edge 57, Type (0, 1), BuildingBlock: ZUJKAS_clean_linker_0, # of connection points: 2
#     Edge 58, Type (0, 1), BuildingBlock: ZUJKAS_clean_linker_0, # of connection points: 2
#     Edge 59, Type (0, 1), BuildingBlock: ZUJKAS_clean_linker_0, # of connection points: 2
#     Edge 60, Type (0, 1), BuildingBlock: ZUJKAS_clean_linker_0, # of connection points: 2
#     Edge 61, Type (0, 1), BuildingBlock: ZUJKAS_clean_linker_0, # of connection points: 2
# Relax obj value: 0.190
# Max RMSD: 0.327
# Mean RMSD: 0.223
data_MOF--net-ocu--node1-VOLQOD_clean_sbu_1--node2-TAGTUT_clean_sbu_1--edge1-ZUJKAS_clean_linker_0
_symmetry_space_group_name_H-M    P1
_symmetry_Int_Tables_number       1
_symmetry_cell_setting            triclinic
loop_
_symmetry_equiv_pos_as_xyz
'x, y, z'
_cell_length_a     48.657854
_cell_length_b     46.178582
_cell_length_c     50.170879
_cell_angle_alpha  91.184666
_cell_angle_beta   92.096575
_cell_angle_gamma 99.416233
loop_
_atom_site_label
_atom_site_type_symbol
_atom_site_fract_x
_atom_site_fract_y
_atom_site_fract_z
_atom_type_partial_charge
O0 O 0.31462 0.29681 0.26029 0.0
Zn1 Zn 0.28378 0.27241 0.28026 0.0
O2 O 0.25113 0.25877 0.25584 0.0
Zn3 Zn 0.21803 0.27008 0.27039 0.0
Zn4 Zn 0.25682 0.27622 0.221 0.0
Zn5 Zn 0.24462 0.21608 0.25124 0.0
O6 O 0.18974 0.23551 0.27881 0.0
O7 O 0.20773 0.1969 0.2653 0.0
O8 O 0.27349 0.29763 0.31128 0.0
O9 O 0.22755 0.29298 0.30434 0.0
O10 O 0.1999 0.29516 0.24555 0.0
O11 O 0.22646 0.29924 0.21038 0.0
O12 O 0.25985 0.24532 0.19265 0.0
O13 O 0.29977 0.23741 0.29447 0.0
O14 O 0.24862 0.2033 0.2133 0.0
O15 O 0.27437 0.2 0.27151 0.0
C16 C 0.3147 0.3081 0.23731 0.0
C17 C 0.18824 0.20789 0.27589 0.0
C18 C 0.20537 0.305 0.22252 0.0
C19 C 0.24969 0.30276 0.3181 0.0
C20 C 0.25596 0.21735 0.19248 0.0
C21 C 0.29431 0.21017 0.28792 0.0
O22 O 0.29343 0.30315 0.22134 0.0
O23 O 0.78071 0.19987 0.22493 0.0
Zn24 Zn 0.7933 0.22877 0.25601 0.0
O25 O 0.76146 0.24304 0.27217 0.0
Zn26 Zn 0.76431 0.28518 0.26776 0.0
Zn27 Zn 0.72701 0.22425 0.25431 0.0
Zn28 Zn 0.76013 0.23423 0.31019 0.0
O29 O 0.76708 0.30635 0.30303 0.0
O30 O 0.76441 0.27136 0.33291 0.0
O31 O 0.82025 0.26253 0.24215 0.0
O32 O 0.79915 0.30093 0.24939 0.0
O33 O 0.73183 0.29604 0.24652 0.0
O34 O 0.70598 0.25288 0.23636 0.0
O35 O 0.7014 0.2021 0.27935 0.0
O36 O 0.81474 0.20922 0.28373 0.0
O37 O 0.72374 0.2089 0.31889 0.0
O38 O 0.79207 0.21341 0.32092 0.0
C39 C 0.75618 0.18844 0.21665 0.0
C40 C 0.76697 0.29837 0.32713 0.0
C41 C 0.71028 0.28073 0.23521 0.0
C42 C 0.81957 0.28992 0.24081 0.0
C43 C 0.70248 0.19789 0.30427 0.0
C44 C 0.81202 0.2051 0.30861 0.0
O45 O 0.73466 0.19575 0.22673 0.0
O46 O 0.73286 0.70586 0.25638 0.0
Zn47 Zn 0.75412 0.74224 0.27626 0.0
O48 O 0.76635 0.77394 0.25109 0.0
Zn49 Zn 0.80686 0.782 0.2489 0.0
Zn50 Zn 0.75059 0.76375 0.21554 0.0
Zn51 Zn 0.75343 0.80925 0.26254 0.0
O52 O 0.82258 0.82439 0.2587 0.0
O53 O 0.7845 0.84247 0.26823 0.0
O54 O 0.78834 0.72991 0.2939 0.0
O55 O 0.82389 0.75702 0.27474 0.0
O56 O 0.81906 0.77086 0.21265 0.0
O57 O 0.77957 0.76348 0.18817 0.0
O58 O 0.72266 0.78879 0.20368 0.0
O59 O 0.73059 0.75604 0.30578 0.0
O60 O 0.7251 0.82121 0.23719 0.0
O61 O 0.73558 0.80357 0.29722 0.0
C62 C 0.72625 0.70199 0.23157 0.0
C63 C 0.81077 0.84565 0.2663 0.0
C64 C 0.80585 0.76469 0.19033 0.0
C65 C 0.81447 0.73749 0.2911 0.0
C66 C 0.71472 0.8109 0.21469 0.0
C67 C 0.7269 0.78209 0.31179 0.0
O68 O 0.73169 0.72263 0.21526 0.0
O69 O 0.26737 0.75565 0.28615 0.0
Zn70 Zn 0.24745 0.73546 0.25283 0.0
O71 O 0.24042 0.76449 0.22614 0.0
Zn72 Zn 0.20067 0.76483 0.2201 0.0
Zn73 Zn 0.25847 0.80375 0.23727 0.0
Zn74 Zn 0.25581 0.75461 0.19309 0.0
O75 O 0.18842 0.7559 0.18147 0.0
O76 O 0.22814 0.75171 0.16255 0.0
O77 O 0.21066 0.71408 0.26446 0.0
O78 O 0.17873 0.73403 0.24178 0.0
O79 O 0.19041 0.80287 0.23361 0.0
O80 O 0.23114 0.8315 0.24205 0.0
O81 O 0.28994 0.82002 0.21397 0.0
O82 O 0.26852 0.70434 0.23779 0.0
O83 O 0.28999 0.78286 0.1852 0.0
O84 O 0.26691 0.7153 0.1949 0.0
C85 C 0.2765 0.78275 0.29125 0.0
C86 C 0.20196 0.75137 0.16092 0.0
C87 C 0.2046 0.82733 0.24171 0.0
C88 C 0.18529 0.71578 0.25855 0.0
C89 C 0.30071 0.80808 0.1947 0.0
C90 C 0.27232 0.69849 0.2134 0.0
O91 O 0.27462 0.80211 0.27395 0.0
O92 O 0.27846 0.71234 0.72568 0.0
Zn93 Zn 0.28927 0.73821 0.75884 0.0
O94 O 0.25661 0.74966 0.7755 0.0
Zn95 Zn 0.25752 0.7918 0.77208 0.0
Zn96 Zn 0.22308 0.72917 0.75723 0.0
Zn97 Zn 0.25588 0.73942 0.81323 0.0
O98 O 0.26153 0.81177 0.8081 0.0
O99 O 0.26022 0.77589 0.83706 0.0
O100 O 0.31539 0.77367 0.74748 0.0
O101 O 0.291 0.80995 0.7524 0.0
O102 O 0.22297 0.80118 0.75303 0.0
O103 O 0.1993 0.75701 0.74234 0.0
O104 O 0.1994 0.70349 0.78146 0.0
O105 O 0.31058 0.71669 0.78475 0.0
O106 O 0.22015 0.71232 0.82157 0.0
O107 O 0.28816 0.71847 0.82242 0.0
C108 C 0.2546 0.69984 0.71659 0.0
C109 C 0.26241 0.80309 0.83198 0.0
C110 C 0.20165 0.78485 0.7423 0.0
C111 C 0.31278 0.80048 0.74512 0.0
C112 C 0.20009 0.69936 0.8064 0.0
C113 C 0.30795 0.71091 0.80933 0.0
O114 O 0.23223 0.70401 0.72725 0.0
O115 O 0.22513 0.19465 0.76696 0.0
Zn116 Zn 0.24599 0.23336 0.78213 0.0
O117 O 0.25366 0.26185 0.75354 0.0
Zn118 Zn 0.2934 0.26907 0.74685 0.0
Zn119 Zn 0.23254 0.24731 0.721 0.0
Zn120 Zn 0.24245 0.29853 0.76394 0.0
O121 O 0.3111 0.31093 0.7565 0.0
O122 O 0.27487 0.33065 0.76899 0.0
O123 O 0.28198 0.2242 0.79834 0.0
O124 O 0.31342 0.24382 0.76999 0.0
O125 O 0.3005 0.25788 0.70918 0.0
O126 O 0.25816 0.24284 0.69095 0.0
O127 O 0.20486 0.27297 0.70955 0.0
O128 O 0.22363 0.24862 0.81139 0.0
O129 O 0.21463 0.31087 0.73811 0.0
O130 O 0.22437 0.29455 0.79877 0.0
C131 C 0.2119 0.18838 0.74468 0.0
C132 C 0.30084 0.33268 0.76552 0.0
C133 C 0.28458 0.24738 0.68939 0.0
C134 C 0.30678 0.22843 0.7902 0.0
C135 C 0.20073 0.29798 0.71808 0.0
C136 C 0.21774 0.27426 0.81522 0.0
O137 O 0.21199 0.20702 0.72637 0.0
O138 O 0.7669 0.24709 0.79495 0.0
Zn139 Zn 0.75015 0.23121 0.75892 0.0
O140 O 0.74838 0.26318 0.73383 0.0
Zn141 Zn 0.70984 0.2686 0.72676 0.0
Zn142 Zn 0.76996 0.29929 0.74878 0.0
Zn143 Zn 0.76419 0.25422 0.70044 0.0
O144 O 0.69788 0.26081 0.68787 0.0
O145 O 0.73604 0.24971 0.67009 0.0
O146 O 0.71142 0.21046 0.76545 0.0
O147 O 0.68411 0.23888 0.74636 0.0
O148 O 0.70342 0.30822 0.74063 0.0
O149 O 0.74576 0.32997 0.7545 0.0
O150 O 0.80274 0.31462 0.72716 0.0
O151 O 0.77279 0.2014 0.7445 0.0
O152 O 0.79755 0.28388 0.6921 0.0
O153 O 0.77763 0.21599 0.70272 0.0
C154 C 0.78105 0.27206 0.80154 0.0
C155 C 0.71053 0.25265 0.66795 0.0
C156 C 0.7197 0.33014 0.75137 0.0
C157 C 0.6873 0.2167 0.76004 0.0
C158 C 0.81096 0.30611 0.70499 0.0
C159 C 0.78079 0.19793 0.7209 0.0
O160 O 0.78482 0.29283 0.78518 0.0
O161 O 0.80714 0.79013 0.75191 0.0
Zn162 Zn 0.77761 0.76645 0.77386 0.0
O163 O 0.74364 0.75126 0.75161 0.0
Zn164 Zn 0.71179 0.76466 0.76663 0.0
Zn165 Zn 0.74768 0.76538 0.71537 0.0
Zn166 Zn 0.73601 0.70842 0.75034 0.0
O167 O 0.68114 0.73185 0.77454 0.0
O168 O 0.69817 0.69172 0.76382 0.0
O169 O 0.76894 0.79212 0.80532 0.0
O170 O 0.72273 0.78604 0.80091 0.0
O171 O 0.69642 0.79259 0.7428 0.0
O172 O 0.71847 0.79006 0.70502 0.0
O173 O 0.7479 0.73207 0.68883 0.0
O174 O 0.79432 0.73221 0.78826 0.0
O175 O 0.74065 0.69243 0.71347 0.0
O176 O 0.76425 0.69313 0.77344 0.0
C177 C 0.80672 0.79781 0.72766 0.0
C178 C 0.67874 0.70404 0.77289 0.0
C179 C 0.70042 0.80001 0.71883 0.0
C180 C 0.74538 0.79626 0.81364 0.0
C181 C 0.74564 0.70437 0.69113 0.0
C182 C 0.78635 0.70448 0.78662 0.0
O183 O 0.78513 0.79033 0.7124 0.0
C184 C 0.95941 0.06558 0.56597 0.0
C185 C 0.98654 0.07268 0.48366 0.0
C186 C 0.97464 0.95731 0.48256 0.0
Mg187 Mg 0.01598 0.0674 0.53847 0.0
O188 O 0.00241 0.02676 0.53729 0.0
Mg189 Mg 0.96477 0.01266 0.51976 0.0
Mg190 Mg 0.02327 -0.00058 0.51853 0.0
O191 O 0.04386 0.9722 0.49942 0.0
Mg192 Mg 0.02966 0.93176 0.4988 0.0
Mg193 Mg 0.08177 0.98612 0.51618 0.0
C194 C 0.07223 0.04225 0.55362 0.0
C195 C 0.06481 0.0368 0.4779 0.0
O196 O 0.94867 0.04387 0.55037 0.0
O197 O 0.9851 0.07758 0.56539 0.0
O198 O 0.97054 0.04888 0.48895 0.0
O199 O 0.00687 0.08402 0.49943 0.0
O200 O 0.05876 0.06409 0.55306 0.0
O201 O 0.06164 0.01681 0.54388 0.0
C202 C 0.98069 0.9615 0.55809 0.0
O203 O 0.00562 0.96596 0.54974 0.0
O204 O 0.96215 0.97624 0.54964 0.0
O205 O 0.09699 0.95463 0.48492 0.0
O206 O 0.06032 0.91998 0.47252 0.0
O207 O 0.07582 0.94989 0.54735 0.0
C208 C 0.08577 0.93218 0.47038 0.0
O209 O 0.03723 0.91716 0.53847 0.0
O210 O 0.98744 0.93503 0.48322 0.0
C211 C 0.05841 0.92742 0.5536 0.0
O212 O 0.98545 0.98237 0.49278 0.0
O213 O 0.04042 0.03246 0.48741 0.0
O214 O 0.08386 0.02237 0.48575 0.0
C215 C 0.44238 0.08637 0.03707 0.0
C216 C 0.47555 0.08616 0.95857 0.0
C217 C 0.47552 0.97143 0.96903 0.0
Mg218 Mg 0.50184 0.09089 0.01572 0.0
O219 O 0.49368 0.04976 0.01688 0.0
Mg220 Mg 0.45781 0.02957 -0.00056 0.0
Mg221 Mg 0.51868 0.02493 8e-05 0.0
O222 O 0.54398 0.00062 0.98297 0.0
Mg223 Mg 0.53672 0.95973 0.9846 0.0
Mg224 Mg 0.57995 0.02152 -0.00024 0.0
C225 C 0.56263 0.07823 0.0318 0.0
C226 C 0.55533 0.06273 0.95637 0.0
O227 O 0.43597 0.06174 0.02411 0.0
O228 O 0.46718 0.10109 0.03789 0.0
O229 O 0.46107 0.0616 0.96454 0.0
O230 O 0.49368 0.10076 0.97486 0.0
O231 O 0.54532 0.09654 0.03126 0.0
O232 O 0.55553 0.05151 0.02322 0.0
C233 C 0.4809 0.98828 0.04375 0.0
O234 O 0.50531 0.99368 0.03414 0.0
O235 O 0.46012 -0.00073 0.03426 0.0
O236 O 0.60227 0.99002 0.97464 0.0
O237 O 0.5715 0.94963 0.96272 0.0
O238 O 0.57797 0.98957 0.03459 0.0
C239 C 0.59605 0.96484 0.96258 0.0
O240 O 0.54469 0.95083 0.02553 0.0
O241 O 0.49332 0.95365 0.96966 0.0
C242 C 0.56329 0.96544 0.04133 0.0
O243 O 0.48202 -0.00158 0.97701 0.0
O244 O 0.53119 0.05556 0.96604 0.0
O245 O 0.57694 0.05292 0.96556 0.0
C246 C 0.91528 0.56847 0.01716 0.0
C247 C 0.93247 0.5305 0.94167 0.0
C248 C 0.93195 0.43107 0.99235 0.0
Mg249 Mg 0.96836 0.55474 0.99049 0.0
O250 O 0.95885 0.52024 0.00922 0.0
Mg251 Mg 0.92024 0.49794 0.00102 0.0
Mg252 Mg 0.98079 0.48853 0.0012 0.0
O253 O 0.00256 0.45662 0.99314 0.0
Mg254 Mg 0.99328 0.42058 0.00985 0.0
Mg255 Mg 0.04104 0.47876 0.00116 0.0
C256 C 0.02946 0.54552 0.0089 0.0
C257 C 0.01529 0.5046 0.94791 0.0
O258 O 0.90501 0.54088 0.01625 0.0
O259 O 0.93933 0.57857 0.0085 0.0
O260 O 0.91739 0.51384 0.95742 0.0
O261 O 0.95517 0.54637 0.94989 0.0
O262 O 0.01287 0.56225 -0.00023 0.0
O263 O 0.02102 0.51862 0.01477 0.0
C264 C 0.94651 0.47257 0.05468 0.0
O265 O 0.96973 0.47306 0.04318 0.0
O266 O 0.92548 0.48128 0.04307 0.0
O267 O 0.05655 0.43653 0.98578 0.0
O268 O 0.02224 0.39792 0.98971 0.0
O269 O 0.04352 0.46211 0.04404 0.0
C270 C 0.04674 0.40899 0.98266 0.0
O271 O 0.00769 0.42661 0.05069 0.0
O272 O 0.94848 0.41379 0.00065 0.0
C273 C 0.02971 0.44364 0.05921 0.0
O274 O 0.94062 0.45826 0.98766 0.0
O275 O 0.99213 0.50476 0.95933 0.0
O276 O 0.03601 0.49526 0.95935 0.0
C277 C 0.44156 0.55143 0.05688 0.0
C278 C 0.4732 0.56125 0.97684 0.0
C279 C 0.4729 0.44735 0.97504 0.0
Mg280 Mg 0.50025 0.55867 0.03269 0.0
O281 O 0.4906 0.51755 0.03145 0.0
Mg282 Mg 0.45479 0.49974 0.01232 0.0
Mg283 Mg 0.51569 0.49415 0.01337 0.0
O284 O 0.54072 0.47099 -0.00493 0.0
Mg285 Mg 0.53153 0.42985 0.99307 0.0
Mg286 Mg 0.57689 0.48934 0.01321 0.0
C287 C 0.55863 0.54102 0.05139 0.0
C288 C 0.55497 0.53718 0.97462 0.0
O289 O 0.43366 0.52831 0.04195 0.0
O290 O 0.46634 0.56608 0.05677 0.0
O291 O 0.45838 0.53654 0.98166 0.0
O292 O 0.49243 0.57378 0.99319 0.0
O293 O 0.54257 0.56058 0.05018 0.0
O294 O 0.55156 0.51541 0.04046 0.0
C295 C 0.47551 0.45164 0.0516 0.0
O296 O 0.50048 0.45903 0.04382 0.0
O297 O 0.45523 0.46366 0.04248 0.0
O298 O 0.5976 0.46188 0.98233 0.0
O299 O 0.56507 0.42383 0.96785 0.0
O300 O 0.57432 0.45232 0.04348 0.0
C301 C 0.58954 0.43908 0.96704 0.0
O302 O 0.54013 0.41499 0.03255 0.0
O303 O 0.48891 0.42773 0.97585 0.0
C304 C 0.55966 0.42759 0.04859 0.0
O305 O 0.48015 0.47278 0.98627 0.0
O306 O 0.53035 0.52923 0.98295 0.0
O307 O 0.57574 0.52572 0.98332 0.0
C308 C 0.93689 0.57903 0.53867 0.0
C309 C 0.97334 0.58404 0.46164 0.0
C310 C 0.97827 0.47128 0.46787 0.0
Mg311 Mg -0.0024 0.58698 0.51928 0.0
O312 O 0.99035 0.54577 0.52044 0.0
Mg313 Mg 0.95608 0.52516 0.50015 0.0
Mg314 Mg 0.01768 0.52291 0.50498 0.0
O315 O 0.04527 0.50078 0.48898 0.0
Mg316 Mg 0.03841 0.45986 0.48694 0.0
Mg317 Mg 0.07939 0.52084 0.50963 0.0
C318 C 0.05817 0.57556 0.53817 0.0
C319 C 0.05781 0.56475 0.4666 0.0
O320 O 0.93174 0.55464 0.52516 0.0
O321 O 0.96125 0.59485 0.54024 0.0
O322 O 0.95921 0.5591 0.46693 0.0
O323 O 0.99116 0.59815 0.47846 0.0
O324 O 0.04102 0.59382 0.53509 0.0
O325 O 0.05156 0.54813 0.53205 0.0
C326 C 0.97735 0.48125 0.54333 0.0
O327 O 0.00255 0.48922 0.53641 0.0
O328 O 0.95685 0.49193 0.53284 0.0
O329 O 0.10484 0.492 0.48441 0.0
O330 O 0.07524 0.45323 0.46671 0.0
O331 O 0.07454 0.48544 0.54202 0.0
C332 C 0.09973 0.46844 0.46967 0.0
O333 O 0.04278 0.44724 0.52741 0.0
O334 O 0.99639 0.45389 0.46847 0.0
C335 C 0.05955 0.46039 0.54561 0.0
O336 O 0.98358 0.49747 0.47795 0.0
O337 O 0.0328 0.55621 0.47378 0.0
O338 O 0.07885 0.55491 0.47712 0.0
C339 C 0.41147 0.06544 0.51739 0.0
C340 C 0.43185 0.02983 0.44263 0.0
C341 C 0.43734 0.93107 0.49165 0.0
Mg342 Mg 0.46654 0.05594 0.49154 0.0
O343 O 0.45889 0.02114 0.51034 0.0
Mg344 Mg 0.42138 0.9965 0.50177 0.0
Mg345 Mg 0.48295 0.99117 0.50244 0.0
O346 O 0.50686 0.9613 0.49397 0.0
Mg347 Mg 0.49977 0.92394 0.50837 0.0
Mg348 Mg 0.54442 0.98541 0.50191 0.0
C349 C 0.52867 0.05074 0.51116 0.0
C350 C 0.51648 0.0098 0.44913 0.0
O351 O 0.40312 0.03747 0.51657 0.0
O352 O 0.43515 0.07734 0.509 0.0
O353 O 0.41763 0.01241 0.4584 0.0
O354 O 0.45403 0.04679 0.45066 0.0
O355 O 0.51101 0.06626 0.50188 0.0
O356 O 0.52178 0.02337 0.5163 0.0
C357 C 0.44909 0.97376 0.55601 0.0
O358 O 0.47248 0.97486 0.54461 0.0
O359 O 0.42762 0.98103 0.54397 0.0
O360 O 0.56275 0.94503 0.48523 0.0
O361 O 0.52999 0.90467 0.48687 0.0
O362 O 0.54771 0.96811 0.54456 0.0
C363 C 0.55424 0.9174 0.4806 0.0
O364 O 0.51464 0.92904 0.54895 0.0
O365 O 0.45498 0.91458 0.499 0.0
C366 C 0.53498 0.94771 0.55861 0.0
O367 O 0.44452 0.95883 0.48854 0.0
O368 O 0.49322 0.00822 0.46068 0.0
O369 O 0.53809 0.00209 0.46041 0.0
H370 H 0.18419 0.14936 0.28618 0.0
H371 H 0.15143 0.1211 0.31536 0.0
H372 H 0.10741 0.19448 0.32314 0.0
H373 H 0.1403 0.22307 0.29432 0.0
H374 H 0.1258 0.17744 0.37066 0.0
H375 H 0.07098 0.08002 0.31348 0.0
H376 H 0.10798 0.08475 0.30991 0.0
H377 H 0.08872 0.11212 0.29749 0.0
C378 C 0.16705 0.15919 0.29341 0.0
C379 C 0.16509 0.1886 0.28821 0.0
C380 C 0.1482 0.14293 0.31 0.0
C381 C 0.12689 0.15565 0.32133 0.0
C382 C 0.12368 0.18424 0.31457 0.0
H383 H 0.02752 0.05758 0.44415 0.0
H384 H 0.03804 0.08937 0.40599 0.0
C385 C 0.14255 0.20056 0.29812 0.0
C386 C 0.11111 0.14102 0.34338 0.0
H387 H 0.07429 0.07553 0.36157 0.0
C388 C 0.114 0.1554 0.36851 0.0
C389 C 0.09553 0.11239 0.34057 0.0
C390 C 0.09036 0.09655 0.31382 0.0
C391 C 0.10329 0.14119 0.39121 0.0
C392 C 0.08961 0.11182 0.38871 0.0
C393 C 0.08506 0.09803 0.36338 0.0
C394 C 0.08278 0.09415 0.41245 0.0
C395 C 0.10758 0.15729 0.41789 0.0
C396 C 0.10447 0.08656 0.42861 0.0
C397 C 0.09857 0.0685 0.45029 0.0
C398 C 0.07083 0.05779 0.45624 0.0
C399 C 0.04908 0.06588 0.44028 0.0
C400 C 0.05502 0.08381 0.41839 0.0
H401 H 0.11188 0.18147 0.41561 0.0
H402 H 0.08899 0.15164 0.43014 0.0
H403 H 0.12569 0.15069 0.42886 0.0
H404 H 0.12602 0.09416 0.42411 0.0
H405 H 0.11577 0.06266 0.46218 0.0
H406 H 0.85725 0.1838 0.28959 0.0
H407 H 0.892 0.16169 0.31509 0.0
H408 H 0.84971 0.17404 0.38745 0.0
H409 H 0.81473 0.19571 0.36225 0.0
H410 H 0.9284 0.18455 0.35828 0.0
H411 H 0.85467 0.08648 0.38659 0.0
H412 H 0.84629 0.11058 0.36074 0.0
H413 H 0.84333 0.12041 0.39529 0.0
C414 C 0.85523 0.18169 0.31092 0.0
C415 C 0.83298 0.1913 0.3238 0.0
C416 C 0.8752 0.16916 0.32545 0.0
C417 C 0.87322 0.1659 0.35309 0.0
C418 C 0.85133 0.17586 0.36606 0.0
H419 H 0.98969 0.13182 0.47748 0.0
H420 H 0.96605 0.15545 0.44209 0.0
C421 C 0.83136 0.18831 0.35158 0.0
C422 C 0.89381 0.15183 0.36849 0.0
H423 H 0.89872 0.09531 0.41006 0.0
C424 C 0.92204 0.16487 0.36943 0.0
C425 C 0.88553 0.12591 0.38264 0.0
C426 C 0.85586 0.10983 0.3811 0.0
C427 C 0.94206 0.15316 0.38493 0.0
C428 C 0.93347 0.12807 0.40015 0.0
C429 C 0.90536 0.11463 0.39852 0.0
C430 C 0.95274 0.11542 0.41853 0.0
C431 C 0.97217 0.16763 0.38468 0.0
C432 C 0.95372 0.08524 0.41683 0.0
C433 C 0.96668 0.07171 0.43723 0.0
C434 C 0.97924 0.08813 0.45961 0.0
C435 C 0.98039 0.11872 0.4603 0.0
C436 C 0.96694 0.13225 0.44002 0.0
H437 H 0.97659 0.18002 0.36615 0.0
H438 H 0.97677 0.18345 0.40184 0.0
H439 H 0.98643 0.15122 0.38644 0.0
H440 H 0.94304 0.0718 0.40042 0.0
H441 H 0.96567 0.04813 0.43612 0.0
H442 H 0.86716 0.86468 0.26332 0.0
H443 H 0.8958 0.89835 0.29555 0.0
H444 H 0.82134 0.91826 0.33094 0.0
H445 H 0.79286 0.88684 0.29785 0.0
H446 H 0.86162 0.96168 0.34131 0.0
H447 H 0.89914 0.85713 0.36411 0.0
H448 H 0.90892 0.87099 0.33213 0.0
H449 H 0.87265 0.8592 0.33863 0.0
C450 C 0.85696 0.87719 0.27729 0.0
C451 C 0.82779 0.87225 0.27871 0.0
C452 C 0.87332 0.89623 0.29582 0.0
C453 C 0.86064 0.90948 0.31651 0.0
C454 C 0.83162 0.90781 0.3155 0.0
H455 H 0.93018 0.91307 0.47589 0.0
H456 H 0.89731 0.90573 0.43727 0.0
C457 C 0.81531 0.88961 0.29653 0.0
C458 C 0.87646 0.9202 0.34153 0.0
H459 H 0.91548 0.89747 0.39227 0.0
C460 C 0.87348 0.94772 0.35249 0.0
C461 C 0.89116 0.90153 0.3565 0.0
C462 C 0.89296 0.87048 0.34742 0.0
C463 C 0.88452 0.95694 0.37812 0.0
C464 C 0.89994 0.93858 0.39263 0.0
C465 C 0.90339 0.91143 0.38134 0.0
C466 C 0.91371 0.94692 0.41916 0.0
C467 C 0.87861 0.98565 0.38959 0.0
C468 C 0.93255 0.97329 0.42272 0.0
C469 C 0.95039 0.97793 0.4453 0.0
C470 C 0.95039 0.95586 0.46413 0.0
C471 C 0.9304 0.93037 0.4616 0.0
C472 C 0.9118 0.92619 0.43949 0.0
H473 H 0.85875 0.99104 0.381 0.0
H474 H 0.87736 0.98516 0.41163 0.0
H475 H 0.89554 0.00358 0.38447 0.0
H476 H 0.93512 0.98927 0.40715 0.0
H477 H 0.96611 -0.00251 0.44664 0.0
H478 H 0.22859 0.87846 0.26794 0.0
H479 H 0.20872 0.90215 0.30493 0.0
H480 H 0.12959 0.84638 0.28877 0.0
H481 H 0.14908 0.82247 0.25173 0.0
H482 H 0.15267 0.92708 0.31296 0.0
H483 H 0.16653 0.82439 0.36433 0.0
H484 H 0.18527 0.83647 0.33508 0.0
H485 H 0.14915 0.82031 0.33185 0.0
C486 C 0.20667 0.8719 0.27154 0.0
C487 C 0.19061 0.84807 0.25716 0.0
C488 C 0.19539 0.88548 0.29277 0.0
C489 C 0.16792 0.87555 0.2998 0.0
C490 C 0.15095 0.8541 0.28371 0.0
H491 H 0.07024 0.88407 0.43727 0.0
H492 H 0.09219 0.87177 0.39659 0.0
C493 C 0.16216 0.84054 0.26246 0.0
C494 C 0.15829 0.88428 0.32592 0.0
H495 H 0.14464 0.85822 0.38804 0.0
C496 C 0.15099 0.91219 0.32947 0.0
C497 C 0.15641 0.86475 0.34736 0.0
C498 C 0.1649 0.83484 0.34471 0.0
C499 C 0.14088 0.92073 0.35383 0.0
C500 C 0.13862 0.90099 0.37519 0.0
C501 C 0.14644 0.8733 0.37167 0.0
C502 C 0.12664 0.90787 0.40086 0.0
C503 C 0.13183 0.95037 0.35621 0.0
C504 C 0.1393 0.93165 0.4173 0.0
C505 C 0.12681 0.93877 0.44073 0.0
C506 C 0.10146 0.92214 0.44812 0.0
C507 C 0.08965 0.89747 0.4322 0.0
C508 C 0.10214 0.89041 0.40886 0.0
H509 H 0.1292 0.96012 0.3364 0.0
H510 H 0.11186 0.94871 0.36656 0.0
H511 H 0.14789 0.96557 0.36815 0.0
H512 H 0.15858 0.94499 0.4118 0.0
H513 H 0.13652 0.95788 0.45251 0.0
H514 H 0.2022 0.84288 0.73183 0.0
H515 H 0.16715 0.86424 0.70639 0.0
H516 H 0.1157 0.77895 0.69717 0.0
H517 H 0.15091 0.75723 0.72211 0.0
H518 H 0.12382 0.80507 0.65047 0.0
H519 H 0.09159 0.88404 0.72234 0.0
H520 H 0.12878 0.88921 0.72031 0.0
H521 H 0.1105 0.85531 0.7326 0.0
C522 C 0.18326 0.8287 0.72475 0.0
C523 C 0.17945 0.79831 0.72888 0.0
C524 C 0.16309 0.84101 0.71042 0.0
C525 C 0.13857 0.82327 0.70029 0.0
C526 C 0.13437 0.79307 0.705 0.0
H527 H 0.02876 0.87694 0.57307 0.0
H528 H 0.04164 0.84982 0.61184 0.0
C529 C 0.15458 0.78069 0.71918 0.0
C530 C 0.11904 0.83572 0.68222 0.0
H531 H 0.08416 0.89372 0.67548 0.0
C532 C 0.11455 0.82402 0.65609 0.0
C533 C 0.1069 0.86036 0.68966 0.0
C534 C 0.10945 0.87275 0.71786 0.0
C535 C 0.09996 0.83754 0.63667 0.0
C536 C 0.0893 0.86323 0.64371 0.0
C537 C 0.09241 0.87401 0.67019 0.0
C538 C 0.07848 0.88128 0.62308 0.0
C539 C 0.09769 0.82537 0.60835 0.0
C540 C 0.09425 0.90847 0.61741 0.0
C541 C 0.08703 0.92395 0.59541 0.0
C542 C 0.06384 0.91251 0.57862 0.0
C543 C 0.04701 0.88611 0.58534 0.0
C544 C 0.0543 0.8706 0.60746 0.0
H545 H 0.11041 0.80771 0.60557 0.0
H546 H 0.07562 0.81611 0.60308 0.0
H547 H 0.10451 0.84308 0.59423 0.0
H548 H 0.11295 0.91709 0.62931 0.0
H549 H 0.10026 0.9444 0.59109 0.0
H550 H 0.1598 0.16923 0.72457 0.0
H551 H 0.14467 0.1235 0.69908 0.0
H552 H 0.22228 0.09457 0.72047 0.0
H553 H 0.23716 0.14027 0.74681 0.0
H554 H 0.21228 0.10306 0.66493 0.0
H555 H 0.12157 0.03384 0.7068 0.0
H556 H 0.11908 0.07212 0.70978 0.0
H557 H 0.14708 0.05839 0.72725 0.0
C558 C 0.17295 0.15242 0.72498 0.0
C559 C 0.19946 0.15798 0.73769 0.0
C560 C 0.16432 0.12628 0.71047 0.0
C561 C 0.18231 0.10558 0.70805 0.0
C562 C 0.20799 0.1101 0.72244 0.0
H563 H 0.09581 -0.00106 0.5771 0.0
H564 H 0.13184 0.00545 0.61293 0.0
C565 C 0.21638 0.13609 0.73754 0.0
C566 C 0.17644 0.08337 0.68611 0.0
H567 H 0.12109 0.03679 0.65799 0.0
C568 C 0.19288 0.08761 0.66364 0.0
C569 C 0.15143 0.06295 0.68454 0.0
C570 C 0.13393 0.05632 0.70852 0.0
C571 C 0.18304 0.07494 0.63875 0.0
C572 C 0.1562 0.05777 0.63649 0.0
C573 C 0.14155 0.05034 0.65965 0.0
C574 C 0.14049 0.05276 0.61058 0.0
C575 C 0.20047 0.08189 0.61476 0.0
C576 C 0.13409 0.07713 0.5968 0.0
C577 C 0.11334 0.07354 0.57653 0.0
C578 C 0.09868 0.04547 0.56963 0.0
C579 C 0.10685 0.02085 0.58181 0.0
C580 C 0.12741 0.0245 0.60235 0.0
H581 H 0.22307 0.08532 0.62051 0.0
H582 H 0.19592 0.06407 0.59924 0.0
H583 H 0.19582 0.10253 0.60605 0.0
H584 H 0.14353 0.0992 0.60316 0.0
H585 H 0.10756 0.09289 0.56747 0.0
H586 H 0.82126 0.17712 0.75063 0.0
H587 H 0.85388 0.1463 0.73356 0.0
H588 H 0.8068 0.13449 0.65853 0.0
H589 H 0.77469 0.16548 0.67516 0.0
H590 H 0.83472 0.0814 0.68538 0.0
H591 H 0.90017 0.18939 0.66623 0.0
H592 H 0.88394 0.18283 0.69778 0.0
H593 H 0.86288 0.18641 0.66837 0.0
C594 C 0.81739 0.16702 0.73088 0.0
C595 C 0.7957 0.17373 0.71407 0.0
C596 C 0.836 0.14954 0.72116 0.0
C597 C 0.83266 0.13833 0.69481 0.0
C598 C 0.80957 0.1429 0.67895 0.0
H599 H 0.9025 0.05599 0.56736 0.0
H600 H 0.87396 0.07161 0.60223 0.0
C601 C 0.79133 0.16063 0.68844 0.0
C602 C 0.85511 0.12607 0.68194 0.0
H603 H 0.91185 0.14774 0.64499 0.0
C604 C 0.85199 0.09572 0.67698 0.0
C605 C 0.87753 0.14493 0.67113 0.0
C606 C 0.88156 0.17775 0.67602 0.0
C607 C 0.87032 0.08378 0.66058 0.0
C608 C 0.89159 0.10289 0.64817 0.0
C609 C 0.89546 0.13311 0.65433 0.0
C610 C 0.90898 0.09248 0.62749 0.0
C611 C 0.86651 0.05088 0.65658 0.0
C612 C 0.93813 0.10011 0.62948 0.0
C613 C 0.95446 0.0919 0.60922 0.0
C614 C 0.94196 0.07572 0.58662 0.0
C615 C 0.91277 0.06825 0.5846 0.0
C616 C 0.89643 0.07683 0.6047 0.0
H617 H 0.85698 0.03951 0.67412 0.0
H618 H 0.8522 0.04422 0.639 0.0
H619 H 0.88664 0.04333 0.65314 0.0
H620 H 0.94826 0.11243 0.64674 0.0
H621 H 0.97691 0.09784 0.61149 0.0
H622 H 0.85926 0.81335 0.75141 0.0
H623 H 0.90168 0.83704 0.73031 0.0
H624 H 0.85413 0.84218 0.65686 0.0
H625 H 0.81202 0.81874 0.67743 0.0
H626 H 0.90605 0.81639 0.65341 0.0
H627 H 0.91934 0.92555 0.70639 0.0
H628 H 0.9136 0.89236 0.72515 0.0
H629 H 0.88591 0.90178 0.70425 0.0
C630 C 0.85782 0.81978 0.73084 0.0
C631 C 0.83219 0.8141 0.71613 0.0
C632 C 0.88207 0.83325 0.71884 0.0
C633 C 0.88097 0.84122 0.69203 0.0
C634 C 0.8554 0.836 0.67754 0.0
H635 H 0.92907 0.93134 0.56471 0.0
H636 H 0.91358 0.89856 0.60052 0.0
C637 C 0.83131 0.82267 0.68942 0.0
C638 C 0.90608 0.85492 0.67837 0.0
H639 H 0.94399 0.92222 0.66735 0.0
C640 C 0.91507 0.83928 0.65697 0.0
C641 C 0.91786 0.8847 0.68317 0.0
C642 C 0.9088 0.9023 0.70593 0.0
C643 C 0.93376 0.85339 0.63887 0.0
C644 C 0.94345 0.88379 0.64224 0.0
C645 C 0.93656 0.89881 0.66499 0.0
C646 C 0.95454 0.9013 0.61958 0.0
C647 C 0.9413 0.83636 0.61503 0.0
C648 C 0.98288 0.91325 0.61828 0.0
C649 C 0.99194 0.93193 0.59749 0.0
C650 C 0.97259 0.93917 0.57823 0.0
C651 C 0.94443 0.92639 0.57937 0.0
C652 C 0.93554 0.90758 0.59975 0.0
H653 H 0.93773 0.81235 0.61836 0.0
H654 H 0.92819 0.84062 0.59743 0.0
H655 H 0.96348 0.84355 0.61034 0.0
H656 H -0.00221 0.9086 0.63351 0.0
H657 H 0.01375 0.94161 0.59712 0.0
H658 H 0.2819 0.24004 0.14811 0.0
H659 H 0.30733 0.2142 0.11691 0.0
H660 H 0.27706 0.13222 0.15378 0.0
H661 H 0.25177 0.15784 0.1853 0.0
H662 H 0.33448 0.14578 0.15434 0.0
H663 H 0.28982 0.15723 0.05257 0.0
H664 H 0.29751 0.19118 0.07155 0.0
H665 H 0.27114 0.16236 0.08232 0.0
C666 C 0.27988 0.21638 0.14909 0.0
C667 C 0.26504 0.2011 0.16947 0.0
C668 C 0.2944 0.20161 0.13113 0.0
C669 C 0.29409 0.17129 0.13303 0.0
C670 C 0.27758 0.15565 0.152 0.0
H671 H 0.38648 0.06454 0.03584 0.0
H672 H 0.34985 0.08434 0.05878 0.0
C673 C 0.26309 0.17037 0.16998 0.0
C674 C 0.31398 0.15678 0.11803 0.0
H675 H 0.33502 0.14306 0.05547 0.0
C676 C 0.33441 0.14492 0.13271 0.0
C677 C 0.31382 0.15563 0.08984 0.0
C678 C 0.29174 0.16703 0.0731 0.0
C679 C 0.3551 0.13259 0.12 0.0
C680 C 0.35558 0.13244 0.09186 0.0
C681 C 0.33473 0.14352 0.07708 0.0
C682 C 0.37774 0.12093 0.07754 0.0
C683 C 0.37632 0.11981 0.13677 0.0
C684 C 0.40551 0.13515 0.08035 0.0
C685 C 0.42654 0.12394 0.06728 0.0
C686 C 0.42017 0.09826 0.05113 0.0
C687 C 0.39221 0.08424 0.04822 0.0
C688 C 0.3712 0.09557 0.06122 0.0
H689 H 0.36938 0.1156 0.15739 0.0
H690 H 0.38047 0.09893 0.12761 0.0
H691 H 0.39621 0.13553 0.13802 0.0
H692 H 0.4109 0.15496 0.09267 0.0
H693 H 0.44778 0.13538 0.06989 0.0
H694 H 0.86901 0.27628 0.22367 0.0
H695 H 0.90563 0.30858 0.20133 0.0
H696 H 0.85834 0.37956 0.20765 0.0
H697 H 0.8223 0.34798 0.23044 0.0
H698 H 0.89939 0.33191 0.1548 0.0
H699 H 0.93449 0.42318 0.22665 0.0
H700 H 0.91477 0.38876 0.2366 0.0
H701 H 0.8972 0.4173 0.22358 0.0
C702 C 0.86667 0.29892 0.22068 0.0
C703 C 0.84266 0.30951 0.22874 0.0
C704 C 0.88767 0.31737 0.20805 0.0
C705 C 0.88506 0.34669 0.20336 0.0
C706 C 0.86136 0.35736 0.21186 0.0
H707 H 0.89756 0.45404 0.07835 0.0
H708 H 0.8905 0.42442 0.11787 0.0
C709 C 0.84052 0.33908 0.22459 0.0
C710 C 0.90469 0.3651 0.1863 0.0
H711 H 0.93531 0.43633 0.17904 0.0
C712 C 0.90811 0.35444 0.16044 0.0
C713 C 0.91645 0.39442 0.19367 0.0
C714 C 0.91577 0.40639 0.22178 0.0
C715 C 0.92036 0.37314 0.14103 0.0
C716 C 0.92904 0.40317 0.14765 0.0
C717 C 0.92818 0.4133 0.17405 0.0
C718 C 0.9344 0.42464 0.12644 0.0
C719 C 0.92204 0.36128 0.113 0.0
C720 C 0.96154 0.43533 0.11894 0.0
C721 C 0.96571 0.45239 0.09626 0.0
C722 C 0.94277 0.45877 0.08088 0.0
C723 C 0.91571 0.44946 0.08962 0.0
C724 C 0.9116 0.43249 0.11217 0.0
H725 H 0.91962 0.33692 0.11227 0.0
H726 H 0.90517 0.36792 0.10019 0.0
H727 H 0.94228 0.37052 0.10452 0.0
H728 H 0.97932 0.42959 0.13 0.0
H729 H 0.98677 0.45994 0.09039 0.0
H730 H 0.6936 0.85906 0.23181 0.0
H731 H 0.66055 0.88454 0.2078 0.0
H732 H 0.65406 0.82053 0.14308 0.0
H733 H 0.68735 0.79501 0.16673 0.0
H734 H 0.66869 0.87866 0.12823 0.0
H735 H 0.57573 0.86482 0.19076 0.0
H736 H 0.60842 0.87754 0.20845 0.0
H737 H 0.60203 0.84141 0.19321 0.0
C738 C 0.68492 0.85016 0.2126 0.0
C739 C 0.6933 0.82514 0.20105 0.0
C740 C 0.66582 0.86461 0.19906 0.0
C741 C 0.65467 0.85414 0.1739 0.0
C742 C 0.66235 0.82875 0.16263 0.0
H743 H 0.54162 0.91149 0.05989 0.0
H744 H 0.5608 0.88631 0.09672 0.0
C745 C 0.68146 0.81429 0.17612 0.0
C746 C 0.63764 0.87154 0.15793 0.0
H747 H 0.5766 0.89904 0.15573 0.0
C748 C 0.64852 0.88304 0.13419 0.0
C749 C 0.61137 0.87711 0.16588 0.0
C750 C 0.59851 0.8644 0.19086 0.0
C751 C 0.63389 0.90014 0.11812 0.0
C752 C 0.6079 0.90627 0.12629 0.0
C753 C 0.59676 0.89457 0.14989 0.0
C754 C 0.59174 0.9236 0.10941 0.0
C755 C 0.64617 0.91121 0.09228 0.0
C756 C 0.60192 0.95331 0.10546 0.0
C757 C 0.59119 0.96775 0.08434 0.0
C758 C 0.57012 0.9526 0.06694 0.0
C759 C 0.55808 0.9237 0.07271 0.0
C760 C 0.56888 0.90928 0.09383 0.0
H761 H 0.66377 0.90005 0.08662 0.0
H762 H 0.63005 0.90789 0.07577 0.0
H763 H 0.65411 0.9351 0.09451 0.0
H764 H 0.61948 0.96467 0.11753 0.0
H765 H 0.60062 0.99016 0.08071 0.0
H766 H 0.14605 0.73169 0.1534 0.0
H767 H 0.12391 0.6991 0.11718 0.0
H768 H 0.20092 0.71097 0.0758 0.0
H769 H 0.22352 0.74322 0.11223 0.0
H770 H 0.11602 0.70056 0.06243 0.0
H771 H 0.18784 0.62315 0.09118 0.0
H772 H 0.18495 0.65532 0.11118 0.0
H773 H 0.20408 0.65882 0.08114 0.0
C774 C 0.15813 0.72811 0.13628 0.0
C775 C 0.18671 0.73953 0.13599 0.0
C776 C 0.14545 0.70936 0.11561 0.0
C777 C 0.16108 0.70193 0.09429 0.0
C778 C 0.18877 0.7158 0.0925 0.0
H779 H 0.06261 0.58187 0.97746 0.0
H780 H 0.1021 0.6187 0.99347 0.0
C781 C 0.20155 0.73441 0.11325 0.0
C782 C 0.1489 0.67767 0.07558 0.0
H783 H 0.15258 0.60636 0.05873 0.0
C784 C 0.12421 0.68011 0.06121 0.0
C785 C 0.15957 0.65092 0.07444 0.0
C786 C 0.18544 0.64664 0.09043 0.0
C787 C 0.10919 0.65615 0.04654 0.0
C788 C 0.11964 0.62924 0.04565 0.0
C789 C 0.1449 0.62712 0.05922 0.0
C790 C 0.10275 0.60233 0.03354 0.0
C791 C 0.08138 0.6594 0.03356 0.0
C792 C 0.09213 0.57923 0.05002 0.0
C793 C 0.07009 0.55769 0.04069 0.0
C794 C 0.05837 0.55942 0.01495 0.0
C795 C 0.07129 0.58036 -0.0025 0.0
C796 C 0.09363 0.60151 0.00667 0.0
H797 H 0.07393 0.67958 0.0407 0.0
H798 H 0.08341 0.66075 0.01165 0.0
H799 H 0.06529 0.64017 0.03757 0.0
H800 H 0.09912 0.57934 0.07078 0.0
H801 H 0.06034 0.54179 0.05448 0.0
H802 H 0.25861 0.79559 0.88597 0.0
H803 H 0.28047 0.82989 0.92138 0.0
H804 H 0.30765 0.89376 0.86217 0.0
H805 H 0.2846 0.86064 0.82731 0.0
H806 H 0.33167 0.84361 0.92752 0.0
H807 H 0.29598 0.94931 0.91853 0.0
H808 H 0.27672 0.91645 0.90244 0.0
H809 H 0.30441 0.93904 0.88566 0.0
C810 C 0.2684 0.81738 0.88069 0.0
C811 C 0.27013 0.82527 0.85382 0.0
C812 C 0.28087 0.837 0.90094 0.0
C813 C 0.29564 0.86465 0.89463 0.0
C814 C 0.29572 0.87311 0.8679 0.0
H815 H 0.45941 0.92916 0.93116 0.0
H816 H 0.41226 0.90486 0.91887 0.0
C817 C 0.28276 0.85384 0.84779 0.0
C818 C 0.31546 0.88205 0.91449 0.0
H819 H 0.34741 0.95248 0.9285 0.0
C820 C 0.33443 0.8674 0.92839 0.0
C821 C 0.319 0.91311 0.91655 0.0
C822 C 0.29763 0.93021 0.90519 0.0
C823 C 0.35835 0.88293 0.94157 0.0
C824 C 0.36401 0.91384 0.93995 0.0
C825 C 0.34356 0.92868 0.92886 0.0
C826 C 0.3922 0.93038 0.94664 0.0
C827 C 0.378 0.86589 0.95603 0.0
C828 C 0.39648 0.95399 0.96521 0.0
C829 C 0.42357 0.96838 0.97193 0.0
C830 C 0.44663 0.95927 0.96014 0.0
C831 C 0.44207 0.93641 0.94081 0.0
C832 C 0.41515 0.92236 0.93393 0.0
H833 H 0.36643 0.84545 0.9642 0.0
H834 H 0.39295 0.85937 0.94179 0.0
H835 H 0.38992 0.87913 0.97266 0.0
H836 H 0.37899 0.96072 0.97501 0.0
H837 H 0.4264 0.98564 0.9871 0.0
H838 H 0.21795 0.32793 0.8379 0.0
H839 H 0.18728 0.34153 0.87155 0.0
H840 H 0.15078 0.25061 0.87882 0.0
H841 H 0.18186 0.23655 0.84487 0.0
H842 H 0.12545 0.32379 0.86093 0.0
H843 H 0.16674 0.28926 0.95835 0.0
H844 H 0.18934 0.29809 0.93085 0.0
H845 H 0.16419 0.26507 0.92931 0.0
C846 C 0.20372 0.31068 0.84689 0.0
C847 C 0.20205 0.28118 0.83852 0.0
C848 C 0.18629 0.31852 0.86617 0.0
C849 C 0.1668 0.29709 0.87753 0.0
C850 C 0.1659 0.26739 0.87034 0.0
H851 H 0.03476 0.34922 0.97448 0.0
H852 H 0.06225 0.31784 0.95058 0.0
C853 C 0.18361 0.25942 0.851 0.0
C854 C 0.1458 0.30681 0.8946 0.0
H855 H 0.13085 0.31803 0.95959 0.0
C856 C 0.12623 0.32206 0.88247 0.0
C857 C 0.14704 0.30448 0.92261 0.0
C858 C 0.16793 0.2884 0.93628 0.0
C859 C 0.10864 0.33621 0.89775 0.0
C860 C 0.11083 0.33517 0.92582 0.0
C861 C 0.1294 0.31873 0.938 0.0
C862 C 0.09555 0.35323 0.94254 0.0
C863 C 0.08858 0.35324 0.88393 0.0
C864 C 0.10549 0.38335 0.94606 0.0
C865 C 0.08992 0.40136 0.9596 0.0
C866 C 0.06403 0.38953 0.96978 0.0
C867 C 0.05453 0.35909 0.96679 0.0
C868 C 0.07021 0.34107 0.95328 0.0
H869 H 0.08656 0.34842 0.86209 0.0
H870 H 0.06766 0.3481 0.89247 0.0
H871 H 0.0961 0.37712 0.88721 0.0
H872 H 0.12502 0.39303 0.93775 0.0
H873 H 0.09794 0.42463 0.96155 0.0
H874 H 0.68459 0.16437 0.78494 0.0
H875 H 0.64577 0.13892 0.80918 0.0
H876 H 0.59545 0.2035 0.78567 0.0
H877 H 0.63432 0.22932 0.76131 0.0
H878 H 0.60041 0.19754 0.84015 0.0
H879 H 0.57006 0.08839 0.79107 0.0
H880 H 0.60724 0.09751 0.79544 0.0
H881 H 0.58869 0.11941 0.77419 0.0
C882 C 0.66511 0.17287 0.78442 0.0
C883 C 0.66264 0.19902 0.77142 0.0
C884 C 0.64281 0.1581 0.79804 0.0
C885 C 0.61763 0.16912 0.79888 0.0
C886 C 0.61463 0.1945 0.78497 0.0
H887 H 0.51555 0.06916 0.91818 0.0
H888 H 0.52166 0.09877 0.87807 0.0
C889 C 0.6369 0.20923 0.77115 0.0
C890 C 0.59657 0.15661 0.81772 0.0
H891 H 0.56522 0.09045 0.83959 0.0
C892 C 0.59185 0.1743 0.83962 0.0
C893 C 0.58503 0.12646 0.81681 0.0
C894 C 0.58778 0.10694 0.79292 0.0
C895 C 0.57869 0.16189 0.86201 0.0
C896 C 0.5703 0.13118 0.86237 0.0
C897 C 0.57207 0.11401 0.83931 0.0
C898 C 0.56502 0.11607 0.88766 0.0
C899 C 0.57568 0.18132 0.88589 0.0
C900 C 0.58739 0.11618 0.90612 0.0
C901 C 0.58405 0.09926 0.92877 0.0
C902 C 0.55821 0.0821 0.93339 0.0
C903 C 0.53557 0.0826 0.91523 0.0
C904 C 0.53902 0.09934 0.89233 0.0
H905 H 0.57519 0.2043 0.88 0.0
H906 H 0.5564 0.17302 0.89644 0.0
H907 H 0.5938 0.18147 0.90002 0.0
H908 H 0.60773 0.12864 0.90253 0.0
H909 H 0.60179 0.0993 0.94247 0.0
H910 H 0.76951 0.64781 0.80029 0.0
H911 H 0.79787 0.6142 0.82001 0.0
H912 H 0.87048 0.68178 0.81962 0.0
H913 H 0.84194 0.71596 0.80081 0.0
H914 H 0.84208 0.5924 0.80259 0.0
H915 H 0.87167 0.65839 0.89607 0.0
H916 H 0.84524 0.66656 0.87261 0.0
H917 H 0.88159 0.67812 0.86659 0.0
C918 C 0.79149 0.6556 0.8046 0.0
C919 C 0.80347 0.68463 0.79933 0.0
C920 C 0.80768 0.63631 0.81572 0.0
C921 C 0.83619 0.64558 0.82159 0.0
C922 C 0.84836 0.67439 0.81585 0.0
H923 H 0.95974 0.56165 0.90209 0.0
H924 H 0.93767 0.58527 0.86602 0.0
C925 C 0.83206 0.69388 0.80511 0.0
C926 C 0.85292 0.62515 0.83418 0.0
H927 H 0.89307 0.61659 0.88967 0.0
C928 C 0.8533 0.5977 0.8216 0.0
C929 C 0.86733 0.63203 0.85909 0.0
C930 C 0.86626 0.66023 0.87452 0.0
C931 C 0.86771 0.57694 0.83338 0.0
C932 C 0.88218 0.58403 0.85809 0.0
C933 C 0.88216 0.61153 0.87046 0.0
C934 C 0.89605 0.56286 0.87286 0.0
C935 C 0.86737 0.54757 0.81961 0.0
C936 C 0.88003 0.54124 0.88755 0.0
C937 C 0.89252 0.5278 0.9084 0.0
C938 C 0.92113 0.53614 0.91488 0.0
C939 C 0.93756 0.55511 0.89792 0.0
C940 C 0.92504 0.56857 0.87719 0.0
H941 H 0.85833 0.54687 0.79891 0.0
H942 H 0.88885 0.54241 0.81911 0.0
H943 H 0.85476 0.53021 0.83106 0.0
H944 H 0.85755 0.53677 0.88454 0.0
H945 H 0.8793 0.51311 0.92093 0.0
H946 H 0.20997 0.33045 0.17371 0.0
H947 H 0.17823 0.35974 0.15243 0.0
H948 H 0.12678 0.35026 0.22091 0.0
H949 H 0.15847 0.32128 0.24253 0.0
H950 H 0.12204 0.33961 0.14032 0.0
H951 H 0.13621 0.43886 0.20712 0.0
H952 H 0.16075 0.41344 0.20689 0.0
H953 H 0.12859 0.40448 0.22366 0.0
C954 C 0.19205 0.33478 0.18437 0.0
C955 C 0.18674 0.32345 0.20979 0.0
C956 C 0.17399 0.35158 0.17221 0.0
C957 C 0.15042 0.35746 0.18529 0.0
C958 C 0.14518 0.34647 0.21075 0.0
H959 H 0.009 0.40326 0.09569 0.0
H960 H 0.03576 0.38497 0.13188 0.0
C961 C 0.16322 0.32969 0.22294 0.0
C962 C 0.1302 0.3731 0.17136 0.0
H963 H 0.0998 0.43471 0.17367 0.0
C964 C 0.11713 0.36037 0.14762 0.0
C965 C 0.124 0.40022 0.18098 0.0
C966 C 0.13826 0.41526 0.20594 0.0
C967 C 0.09808 0.37408 0.13305 0.0
C968 C 0.09151 0.40099 0.14283 0.0
C969 C 0.10457 0.41382 0.16658 0.0
C970 C 0.07289 0.41696 0.1271 0.0
C971 C 0.08577 0.36007 0.10688 0.0
C972 C 0.08428 0.44238 0.114 0.0
C973 C 0.06899 0.45308 0.09343 0.0
C974 C 0.04219 0.43831 0.08561 0.0
C975 C 0.02973 0.41491 0.10093 0.0
C976 C 0.04499 0.40436 0.12161 0.0
H977 H 0.0971 0.34254 0.09979 0.0
H978 H 0.06372 0.35006 0.10944 0.0
H979 H 0.08615 0.37675 0.0912 0.0
H980 H 0.10576 0.45249 0.11816 0.0
H981 H 0.07909 0.47142 0.08231 0.0
H982 H 0.1907 0.68756 0.859 0.0
H983 H 0.15282 0.65262 0.87667 0.0
H984 H 0.11986 0.62957 0.79669 0.0
H985 H 0.15712 0.66471 0.77887 0.0
H986 H 0.07869 0.63623 0.83145 0.0
H987 H 0.14934 0.56391 0.87248 0.0
H988 H 0.15816 0.6012 0.8847 0.0
H989 H 0.16078 0.59282 0.84979 0.0
C990 C 0.17539 0.67509 0.84518 0.0
C991 C 0.17709 0.67878 0.81753 0.0
C992 C 0.15382 0.65508 0.85529 0.0
C993 C 0.13384 0.63823 0.83792 0.0
C994 C 0.13513 0.64232 0.8104 0.0
H995 H 0.0373 0.48469 0.90365 0.0
H996 H 0.06061 0.51555 0.86939 0.0
C997 C 0.15653 0.66238 0.80028 0.0
C998 C 0.1119 0.61586 0.84837 0.0
H999 H 0.1025 0.55494 0.88613 0.0
C1000 C 0.08379 0.61825 0.84322 0.0
C1001 C 0.11865 0.59206 0.86308 0.0
C1002 C 0.14835 0.5871 0.86762 0.0
C1003 C 0.06222 0.59805 0.85341 0.0
C1004 C 0.06907 0.57528 0.86951 0.0
C1005 C 0.09718 0.57237 0.87377 0.0
C1006 C 0.04805 0.5556 0.88417 0.0
C1007 C 0.0324 0.60132 0.84684 0.0
C1008 C 0.03185 0.56753 0.9028 0.0
C1009 C 0.01802 0.54976 0.92195 0.0
C1010 C 0.02059 0.51999 0.92292 0.0
C1011 C 0.0348 0.50755 0.90299 0.0
C1012 C 0.0482 0.52519 0.88355 0.0
H1013 H 0.03049 0.61195 0.82734 0.0
H1014 H 0.01836 0.57977 0.84618 0.0
H1015 H 0.02529 0.61556 0.86235 0.0
H1016 H 0.03199 0.59098 0.90419 0.0
H1017 H 0.00799 0.55999 0.93767 0.0
H1018 H 0.30872 0.21261 0.84215 0.0
H1019 H 0.34376 0.18829 0.86455 0.0
H1020 H 0.38708 0.18645 0.79111 0.0
H1021 H 0.3529 0.21219 0.76902 0.0
H1022 H 0.35525 0.13627 0.85529 0.0
H1023 H 0.45123 0.2166 0.84103 0.0
H1024 H 0.41686 0.22492 0.83376 0.0
H1025 H 0.43294 0.20356 0.81032 0.0
C1026 C 0.3259 0.20729 0.8309 0.0
C1027 C 0.32821 0.2144 0.80394 0.0
C1028 C 0.3459 0.1934 0.84367 0.0
C1029 C 0.36831 0.1859 0.82961 0.0
C1030 C 0.3705 0.19278 0.80259 0.0
H1031 H 0.45357 0.05857 0.91204 0.0
H1032 H 0.43234 0.08128 0.87454 0.0
C1033 C 0.35084 0.20729 0.78995 0.0
C1034 C 0.38837 0.16956 0.84313 0.0
H1035 H 0.45726 0.17144 0.86005 0.0
C1036 C 0.37757 0.14395 0.85632 0.0
C1037 C 0.41749 0.17964 0.8444 0.0
C1038 C 0.43033 0.20783 0.83184 0.0
C1039 C 0.39482 0.12878 0.8717 0.0
C1040 C 0.424 0.13866 0.87283 0.0
C1041 C 0.43496 0.16369 0.85884 0.0
C1042 C 0.44283 0.12554 0.89115 0.0
C1043 C 0.38126 0.10343 0.88781 0.0
C1044 C 0.45816 0.1432 0.91145 0.0
C1045 C 0.47108 0.1304 0.93236 0.0
C1046 C 0.46839 0.09972 0.93349 0.0
C1047 C 0.45537 0.08226 0.91188 0.0
C1048 C 0.44312 0.09518 0.89058 0.0
H1049 H 0.35856 0.1034 0.88962 0.0
H1050 H 0.38376 0.08243 0.8778 0.0
H1051 H 0.391 0.10418 0.90822 0.0
H1052 H 0.45851 0.16673 0.91216 0.0
H1053 H 0.48117 0.14441 0.94866 0.0
H1054 H 0.82965 0.30577 0.81769 0.0
H1055 H 0.84334 0.32505 0.86276 0.0
H1056 H 0.76886 0.27472 0.8928 0.0
H1057 H 0.75522 0.25466 0.84743 0.0
H1058 H 0.78371 0.34484 0.90145 0.0
H1059 H 0.86395 0.27902 0.93417 0.0
H1060 H 0.86475 0.28895 0.89967 0.0
H1061 H 0.8351 0.26476 0.91124 0.0
C1062 C 0.81655 0.29822 0.834 0.0
C1063 C 0.79149 0.27869 0.82922 0.0
C1064 C 0.82433 0.30927 0.85965 0.0
C1065 C 0.80703 0.3013 0.88091 0.0
C1066 C 0.78245 0.28095 0.87652 0.0
H1067 H 0.90082 0.38625 0.01729 0.0
H1068 H 0.85977 0.35408 -0.00203 0.0
C1069 C 0.77485 0.26939 0.85076 0.0
C1070 C 0.8143 0.3164 0.90697 0.0
H1071 H 0.86801 0.3276 0.95319 0.0
C1072 C 0.80159 0.34066 0.91344 0.0
C1073 C 0.83734 0.31063 0.92258 0.0
C1074 C 0.85101 0.28427 0.91678 0.0
C1075 C 0.81308 0.36092 0.93373 0.0
C1076 C 0.83801 0.35685 0.94744 0.0
C1077 C 0.84898 0.33095 0.94263 0.0
C1078 C 0.85569 0.38065 0.96347 0.0
C1079 C 0.79915 0.38712 0.93938 0.0
C1080 C 0.86592 0.40728 0.9514 0.0
C1081 C 0.8892 0.42593 0.96263 0.0
C1082 C 0.90284 0.41778 0.98571 0.0
C1083 C 0.89081 0.3928 -0.00074 0.0
C1084 C 0.86733 0.37444 0.98827 0.0
H1085 H 0.77618 0.38139 0.93603 0.0
H1086 H 0.80381 0.39573 0.96017 0.0
H1087 H 0.80669 0.40479 0.92547 0.0
H1088 H 0.85771 0.41234 0.93201 0.0
H1089 H 0.89815 0.44499 0.95175 0.0
H1090 H 0.77816 0.84821 0.82992 0.0
H1091 H 0.76619 0.88331 0.8635 0.0
H1092 H 0.69476 0.82039 0.88367 0.0
H1093 H 0.7066 0.78573 0.85062 0.0
H1094 H 0.71693 0.90468 0.85842 0.0
H1095 H 0.7219 0.85394 0.95649 0.0
H1096 H 0.73996 0.84244 0.92831 0.0
H1097 H 0.70372 0.8278 0.93244 0.0
C1098 C 0.7606 0.8416 0.84235 0.0
C1099 C 0.74327 0.81436 0.83777 0.0
C1100 C 0.75369 0.86165 0.86137 0.0
C1101 C 0.72974 0.85436 0.87632 0.0
C1102 C 0.71367 0.82633 0.87291 0.0
H1103 H 0.59258 0.90998 0.93978 0.0
H1104 H 0.63 0.88791 0.92078 0.0
C1105 C 0.72036 0.80657 0.85386 0.0
C1106 C 0.71853 0.87689 0.89223 0.0
H1107 H 0.68583 0.88496 0.9503 0.0
C1108 C 0.71094 0.90099 0.87884 0.0
C1109 C 0.7107 0.87207 0.91885 0.0
C1110 C 0.7198 0.84779 0.9349 0.0
C1111 C 0.6936 0.91876 0.89054 0.0
C1112 C 0.68381 0.91226 0.91624 0.0
C1113 C 0.69313 0.88963 0.93042 0.0
C1114 C 0.66151 0.92645 0.92747 0.0
C1115 C 0.68415 0.94301 0.8747 0.0
C1116 C 0.66689 0.95552 0.93733 0.0
C1117 C 0.6455 0.96829 0.94826 0.0
C1118 C 0.61837 0.95216 0.94944 0.0
C1119 C 0.61312 0.92312 0.93915 0.0
C1120 C 0.63451 0.91039 0.92838 0.0
H1121 H 0.69252 0.94424 0.85437 0.0
H1122 H 0.66103 0.93957 0.87289 0.0
H1123 H 0.69118 0.9644 0.88533 0.0
H1124 H 0.68767 0.96818 0.93684 0.0
H1125 H 0.65033 0.99067 0.95605 0.0
H1126 H 0.78843 0.7589 0.13768 0.0
H1127 H 0.80682 0.7303 0.10295 0.0
H1128 H 0.87263 0.71429 0.1579 0.0
H1129 H 0.85518 0.74385 0.19222 0.0
H1130 H 0.89135 0.72054 0.10962 0.0
H1131 H 0.7915 0.64251 0.10433 0.0
H1132 H 0.78771 0.67915 0.09559 0.0
H1133 H 0.79892 0.6719 0.12904 0.0
C1134 C 0.80721 0.74985 0.14215 0.0
C1135 C 0.82016 0.75336 0.1678 0.0
C1136 C 0.81749 0.73321 0.12238 0.0
C1137 C 0.84048 0.71924 0.12813 0.0
C1138 C 0.85466 0.72457 0.15307 0.0
H1139 H 0.88077 0.55954 0.05903 0.0
H1140 H 0.8615 0.59706 0.08426 0.0
C1141 C 0.8447 0.74162 0.17268 0.0
C1142 C 0.84902 0.69781 0.10892 0.0
H1143 H 0.82581 0.63316 0.0747 0.0
C1144 C 0.877 0.70149 0.1019 0.0
C1145 C 0.83039 0.67259 0.0993 0.0
C1146 C 0.80054 0.66607 0.10764 0.0
C1147 C 0.88697 0.68059 0.0858 0.0
C1148 C 0.86816 0.65584 0.07551 0.0
C1149 C 0.84012 0.65229 0.08232 0.0
C1150 C 0.87748 0.6327 0.05873 0.0
C1151 C 0.91782 0.68471 0.08101 0.0
C1152 C 0.89184 0.63999 0.03542 0.0
C1153 C 0.90328 0.61876 0.02136 0.0
C1154 C 0.89982 0.58962 0.02987 0.0
C1155 C 0.88369 0.58183 0.05204 0.0
C1156 C 0.87276 0.60326 0.06647 0.0
H1157 H 0.93012 0.69955 0.09642 0.0
H1158 H 0.92559 0.66341 0.08099 0.0
H1159 H 0.92172 0.69482 0.06135 0.0
H1160 H 0.89487 0.66229 0.02848 0.0
H1161 H 0.91528 0.62525 0.00407 0.0
H1162 H 0.32143 0.86683 0.19696 0.0
H1163 H 0.36349 0.89169 0.17651 0.0
H1164 H 0.38154 0.80808 0.14856 0.0
H1165 H 0.33898 0.78324 0.16794 0.0
H1166 H 0.41901 0.88847 0.18233 0.0
H1167 H 0.37866 0.85097 0.07996 0.0
H1168 H 0.35707 0.84633 0.10848 0.0
H1169 H 0.38177 0.82208 0.10266 0.0
C1170 C 0.33437 0.85379 0.18645 0.0
C1171 C 0.32666 0.8232 0.18356 0.0
C1172 C 0.35845 0.86796 0.17491 0.0
C1173 C 0.37533 0.85174 0.16061 0.0
C1174 C 0.3684 0.82106 0.15889 0.0
H1175 H 0.49767 0.93525 0.05039 0.0
H1176 H 0.48084 0.89875 0.08353 0.0
C1177 C 0.34409 0.80693 0.16997 0.0
C1178 C 0.3992 0.86725 0.14629 0.0
H1179 H 0.42165 0.88209 0.08367 0.0
C1180 C 0.41983 0.88679 0.16078 0.0
C1181 C 0.40033 0.86483 0.11818 0.0
C1182 C 0.3782 0.84513 0.10133 0.0
C1183 C 0.44075 0.90508 0.14775 0.0
C1184 C 0.44092 0.90372 0.11963 0.0
C1185 C 0.42152 0.88281 0.10529 0.0
C1186 C 0.45699 0.92716 0.10433 0.0
C1187 C 0.46182 0.92655 0.164 0.0
C1188 C 0.4496 0.95524 0.1055 0.0
C1189 C 0.45887 0.97577 0.08654 0.0
C1190 C 0.47592 0.96865 0.06629 0.0
C1191 C 0.48497 0.94132 0.06616 0.0
C1192 C 0.47532 0.92051 0.08498 0.0
H1193 H 0.46467 0.91879 0.18458 0.0
H1194 H 0.48231 0.93016 0.15448 0.0
H1195 H 0.45432 0.94794 0.16547 0.0
H1196 H 0.43498 0.96056 0.11988 0.0
H1197 H 0.45163 -0.00325 0.08695 0.0
H1198 H 0.71651 0.14061 0.21105 0.0
H1199 H 0.69908 0.11519 0.16953 0.0
H1200 H 0.76675 0.16477 0.12808 0.0
H1201 H 0.78422 0.19078 0.17016 0.0
H1202 H 0.71797 0.17254 0.10708 0.0
H1203 H 0.7129 0.05385 0.1171 0.0
H1204 H 0.69972 0.06777 0.14675 0.0
H1205 H 0.73555 0.08 0.13867 0.0
C1206 C 0.72832 0.14526 0.1933 0.0
C1207 C 0.75157 0.16769 0.19368 0.0
C1208 C 0.71849 0.1305 0.16954 0.0
C1209 C 0.73172 0.13781 0.14563 0.0
C1210 C 0.75637 0.1586 0.14634 0.0
H1211 H 0.61057 0.05518 0.02298 0.0
H1212 H 0.65666 0.07047 0.04362 0.0
C1213 C 0.7664 0.17332 0.17035 0.0
C1214 C 0.71635 0.12808 0.12012 0.0
H1215 H 0.67179 0.06907 0.09359 0.0
C1216 C 0.70858 0.14976 0.10354 0.0
C1217 C 0.7045 0.09836 0.11493 0.0
C1218 C 0.71393 0.07372 0.13021 0.0
C1219 C 0.68699 0.1429 0.08402 0.0
C1220 C 0.67239 0.11379 0.08157 0.0
C1221 C 0.68237 0.0916 0.09596 0.0
C1222 C 0.64516 0.10642 0.06666 0.0
C1223 C 0.67935 0.16717 0.06701 0.0
C1224 C 0.6232 0.12149 0.07265 0.0
C1225 C 0.59668 0.1128 0.06067 0.0
C1226 C 0.59136 0.08843 0.04289 0.0
C1227 C 0.61351 0.07365 0.03674 0.0
C1228 C 0.64011 0.08255 0.04846 0.0
H1229 H 0.69805 0.18374 0.06345 0.0
H1230 H 0.66963 0.15858 0.04745 0.0
H1231 H 0.66442 0.17858 0.07764 0.0
H1232 H 0.62628 0.13938 0.0873 0.0
H1233 H 0.58012 0.12458 0.06611 0.0
H1234 H 0.67203 0.64572 0.78445 0.0
H1235 H 0.63785 0.61953 0.81342 0.0
H1236 H 0.59679 0.69535 0.81854 0.0
H1237 H 0.63134 0.72202 0.79 0.0
H1238 H 0.61117 0.67901 0.86647 0.0
H1239 H 0.55774 0.58049 0.81056 0.0
H1240 H 0.59477 0.58344 0.80836 0.0
H1241 H 0.57719 0.61135 0.7942 0.0
C1242 C 0.65527 0.65658 0.79105 0.0
C1243 C 0.65464 0.68609 0.78515 0.0
C1244 C 0.63556 0.64146 0.80752 0.0
C1245 C 0.61459 0.65538 0.81804 0.0
C1246 C 0.61275 0.68415 0.81062 0.0
H1247 H 0.51635 0.55227 0.93867 0.0
H1248 H 0.52506 0.58483 0.90078 0.0
C1249 C 0.63255 0.69936 0.7943 0.0
C1250 C 0.59772 0.64164 0.83988 0.0
H1251 H 0.56132 0.57635 0.85902 0.0
C1252 C 0.59967 0.65681 0.86462 0.0
C1253 C 0.58232 0.61288 0.83751 0.0
C1254 C 0.57763 0.59627 0.81111 0.0
C1255 C 0.58859 0.64316 0.88745 0.0
C1256 C 0.57565 0.61346 0.88556 0.0
C1257 C 0.57165 0.59903 0.86048 0.0
C1258 C 0.56943 0.59607 0.90967 0.0
C1259 C 0.59176 0.66031 0.91361 0.0
C1260 C 0.59144 0.59179 0.92721 0.0
C1261 C 0.58653 0.57339 0.9488 0.0
C1262 C 0.55948 0.55885 0.95329 0.0
C1263 C 0.53731 0.56363 0.93601 0.0
C1264 C 0.54227 0.582 0.91426 0.0
H1265 H 0.59356 0.68427 0.9104 0.0
H1266 H 0.57383 0.65328 0.92638 0.0
H1267 H 0.61107 0.65648 0.92446 0.0
H1268 H 0.61263 0.60202 0.92373 0.0
H1269 H 0.60405 0.57011 0.96169 0.0
H1270 H 0.35048 0.68737 0.78743 0.0
H1271 H 0.38367 0.66082 0.81026 0.0
H1272 H 0.34564 0.67338 0.88502 0.0
H1273 H 0.31213 0.69941 0.86244 0.0
H1274 H 0.42262 0.67771 0.85227 0.0
H1275 H 0.34271 0.58469 0.87984 0.0
H1276 H 0.33567 0.61119 0.85565 0.0
H1277 H 0.33478 0.61952 0.89079 0.0
C1278 C 0.34912 0.68444 0.80873 0.0
C1279 C 0.32842 0.69526 0.82306 0.0
C1280 C 0.36817 0.66934 0.82173 0.0
C1281 C 0.3668 0.66475 0.84922 0.0
C1282 C 0.34666 0.67615 0.86367 0.0
H1283 H 0.48009 0.62035 0.96926 0.0
H1284 H 0.45834 0.64508 0.93359 0.0
C1285 C 0.32755 0.6911 0.85072 0.0
C1286 C 0.38616 0.64778 0.86294 0.0
H1287 H 0.38706 0.58916 0.90286 0.0
C1288 C 0.41496 0.65812 0.8631 0.0
C1289 C 0.37615 0.62189 0.87651 0.0
C1290 C 0.34566 0.60847 0.87549 0.0
C1291 C 0.43394 0.64396 0.87757 0.0
C1292 C 0.4237 0.61922 0.89264 0.0
C1293 C 0.39498 0.60824 0.89147 0.0
C1294 C 0.44174 0.60511 0.91105 0.0
C1295 C 0.4647 0.65564 0.87655 0.0
C1296 C 0.44011 0.57447 0.91011 0.0
C1297 C 0.45194 0.56029 0.93079 0.0
C1298 C 0.46589 0.57651 0.95269 0.0
C1299 C 0.46954 0.60732 0.95257 0.0
C1300 C 0.45726 0.6215 0.93206 0.0
H1301 H 0.46963 0.66704 0.8576 0.0
H1302 H 0.4709 0.67187 0.89319 0.0
H1303 H 0.47737 0.6378 0.87852 0.0
H1304 H 0.42834 0.56138 0.89406 0.0
H1305 H 0.44912 0.53653 0.93019 0.0
H1306 H 0.28635 0.38384 0.78421 0.0
H1307 H 0.31344 0.41799 0.81675 0.0
H1308 H 0.38422 0.37394 0.80735 0.0
H1309 H 0.35739 0.3397 0.77477 0.0
H1310 H 0.32987 0.39153 0.86259 0.0
H1311 H 0.42062 0.46017 0.81938 0.0
H1312 H 0.39011 0.44375 0.79944 0.0
H1313 H 0.41655 0.42233 0.80862 0.0
C1314 C 0.30802 0.38206 0.78827 0.0
C1315 C 0.31953 0.3586 0.77737 0.0
C1316 C 0.32346 0.40166 0.80687 0.0
C1317 C 0.35072 0.39836 0.81455 0.0
C1318 C 0.36329 0.37708 0.80146 0.0
H1319 H 0.44491 0.39466 0.95537 0.0
H1320 H 0.41034 0.38715 0.91821 0.0
C1321 C 0.34785 0.35741 0.78286 0.0
C1322 C 0.36379 0.41251 0.8396 0.0
H1323 H 0.42483 0.45045 0.86647 0.0
C1324 C 0.35036 0.40504 0.86342 0.0
C1325 C 0.39041 0.43015 0.84061 0.0
C1326 C 0.40517 0.43982 0.81561 0.0
C1327 C 0.36369 0.41309 0.8883 0.0
C1328 C 0.39109 0.42888 0.88928 0.0
C1329 C 0.40381 0.43811 0.86555 0.0
C1330 C 0.40802 0.43329 0.91444 0.0
C1331 C 0.34889 0.40371 0.91336 0.0
C1332 C 0.41743 0.46163 0.92497 0.0
C1333 C 0.4369 0.46594 0.9464 0.0
C1334 C 0.44768 0.44203 0.9572 0.0
C1335 C 0.43701 0.4135 0.94749 0.0
C1336 C 0.41726 0.40918 0.9263 0.0
H1337 H 0.32596 0.3982 0.9096 0.0
H1338 H 0.35644 0.38389 0.92095 0.0
H1339 H 0.35338 0.42125 0.92914 0.0
H1340 H 0.41057 0.48047 0.91593 0.0
H1341 H 0.44489 0.48816 0.95323 0.0
H1342 H 0.66471 0.33167 0.75974 0.0
H1343 H 0.64659 0.36123 0.79348 0.0
H1344 H 0.729 0.41041 0.80968 0.0
H1345 H 0.74753 0.3804 0.77629 0.0
H1346 H 0.70761 0.3863 0.8537 0.0
H1347 H 0.62846 0.4421 0.80423 0.0
H1348 H 0.62244 0.40373 0.79537 0.0
H1349 H 0.65399 0.42661 0.78575 0.0
C1350 C 0.67889 0.34942 0.76975 0.0
C1351 C 0.70766 0.35336 0.76549 0.0
C1352 C 0.66843 0.36646 0.78905 0.0
C1353 C 0.68641 0.38812 0.80413 0.0
C1354 C 0.71474 0.39379 0.79832 0.0
H1355 H 0.64099 0.46878 0.95434 0.0
H1356 H 0.6678 0.45978 0.91541 0.0
C1357 C 0.72528 0.37664 0.77912 0.0
C1358 C 0.67638 0.4014 0.82837 0.0
H1359 H 0.62245 0.43244 0.85134 0.0
C1360 C 0.68939 0.39707 0.85313 0.0
C1361 C 0.65262 0.41543 0.82768 0.0
C1362 C 0.63878 0.4225 0.80177 0.0
C1363 C 0.67827 0.40473 0.87721 0.0
C1364 C 0.65357 0.41703 0.87645 0.0
C1365 C 0.64131 0.42274 0.85177 0.0
C1366 C 0.63873 0.42172 0.90095 0.0
C1367 C 0.69203 0.39819 0.90333 0.0
C1368 C 0.61387 0.40297 0.90582 0.0
C1369 C 0.59865 0.40785 0.92802 0.0
C1370 C 0.60786 0.4318 0.94574 0.0
C1371 C 0.63331 0.45008 0.9412 0.0
C1372 C 0.64863 0.44506 0.91895 0.0
H1373 H 0.71013 0.38673 0.90046 0.0
H1374 H 0.69937 0.41903 0.91476 0.0
H1375 H 0.67671 0.38436 0.91555 0.0
H1376 H 0.60602 0.38476 0.89217 0.0
H1377 H 0.5792 0.39327 0.9308 0.0
H1378 H 0.7125 0.33966 0.22826 0.0
H1379 H 0.68087 0.36373 0.20084 0.0
H1380 H 0.6314 0.27961 0.17969 0.0
H1381 H 0.6627 0.25526 0.20729 0.0
H1382 H 0.6717 0.35259 0.14598 0.0
H1383 H 0.57239 0.33041 0.19897 0.0
H1384 H 0.60569 0.32714 0.21474 0.0
H1385 H 0.58841 0.29879 0.19204 0.0
C1386 C 0.69472 0.32625 0.21805 0.0
C1387 C 0.69021 0.2955 0.21991 0.0
C1388 C 0.67664 0.34006 0.20245 0.0
C1389 C 0.65364 0.32347 0.18854 0.0
C1390 C 0.64871 0.29285 0.19071 0.0
H1391 H 0.54434 0.36965 0.06086 0.0
H1392 H 0.5644 0.34371 0.09701 0.0
C1393 C 0.66678 0.27898 0.20634 0.0
C1394 C 0.63644 0.33804 0.16984 0.0
H1395 H 0.57055 0.35198 0.15644 0.0
C1396 C 0.64962 0.35257 0.14834 0.0
C1397 C 0.60759 0.33765 0.17287 0.0
C1398 C 0.59264 0.32287 0.196 0.0
C1399 C 0.63474 0.36673 0.1297 0.0
C1400 C 0.606 0.36679 0.13292 0.0
C1401 C 0.59263 0.35193 0.15418 0.0
C1402 C 0.58998 0.38274 0.11437 0.0
C1403 C 0.64985 0.38127 0.10649 0.0
C1404 C 0.59682 0.41333 0.11307 0.0
C1405 C 0.58566 0.4281 0.09244 0.0
C1406 C 0.56726 0.41256 0.07285 0.0
C1407 C 0.55862 0.3822 0.07552 0.0
C1408 C 0.57 0.36736 0.09615 0.0
H1409 H 0.66991 0.37335 0.10344 0.0
H1410 H 0.63676 0.37719 0.08776 0.0
H1411 H 0.6545 0.40534 0.11044 0.0
H1412 H 0.61189 0.42559 0.12725 0.0
H1413 H 0.59242 0.45155 0.09126 0.0
H1414 H 0.72269 0.68493 0.17959 0.0
H1415 H 0.69907 0.63937 0.15936 0.0
H1416 H 0.67772 0.60617 0.237 0.0
H1417 H 0.70137 0.65291 0.25788 0.0
H1418 H 0.70396 0.58017 0.16415 0.0
H1419 H 0.60186 0.60456 0.19798 0.0
H1420 H 0.63273 0.63209 0.20139 0.0
H1421 H 0.62908 0.60068 0.22225 0.0
C1422 C 0.71309 0.66808 0.1926 0.0
C1423 C 0.71335 0.67286 0.22037 0.0
C1424 C 0.69987 0.64177 0.18093 0.0
C1425 C 0.68651 0.61942 0.19661 0.0
C1426 C 0.68774 0.62332 0.22453 0.0
H1427 H 0.58442 0.50075 0.07723 0.0
H1428 H 0.61723 0.51043 0.11587 0.0
C1429 C 0.70118 0.64996 0.2364 0.0
C1430 C 0.66886 0.59424 0.18251 0.0
H1431 H 0.6016 0.57679 0.15861 0.0
C1432 C 0.68143 0.57836 0.16353 0.0
C1433 C 0.6395 0.5919 0.18186 0.0
C1434 C 0.6248 0.60815 0.20187 0.0
C1435 C 0.66577 0.56348 0.14188 0.0
C1436 C 0.63695 0.56427 0.13961 0.0
C1437 C 0.62389 0.57673 0.1604 0.0
C1438 C 0.62096 0.55765 0.11407 0.0
C1439 C 0.6804 0.54972 0.12018 0.0
C1440 C 0.61311 0.58103 0.09985 0.0
C1441 C 0.59444 0.57562 0.07792 0.0
C1442 C 0.58336 0.54668 0.06979 0.0
C1443 C 0.59287 0.52327 0.08287 0.0
C1444 C 0.61145 0.52872 0.10503 0.0
H1445 H 0.70292 0.55043 0.12525 0.0
H1446 H 0.67049 0.52649 0.11662 0.0
H1447 H 0.67827 0.56142 0.10128 0.0
H1448 H 0.62046 0.60353 0.10652 0.0
H1449 H 0.58757 0.59408 0.06821 0.0
H1450 H 0.252 0.6598 0.17395 0.0
H1451 H 0.27665 0.62452 0.15211 0.0
H1452 H 0.34412 0.64442 0.21127 0.0
H1453 H 0.31888 0.67928 0.23375 0.0
H1454 H 0.32597 0.64741 0.13118 0.0
H1455 H 0.34055 0.55581 0.19741 0.0
H1456 H 0.31395 0.57831 0.20232 0.0
H1457 H 0.34952 0.59176 0.21283 0.0
C1458 C 0.27159 0.65574 0.18288 0.0
C1459 C 0.28367 0.67216 0.20543 0.0
C1460 C 0.28565 0.63563 0.1704 0.0
C1461 C 0.31222 0.63186 0.18002 0.0
C1462 C 0.32342 0.6466 0.20377 0.0
H1463 H 0.44976 0.60111 0.08858 0.0
H1464 H 0.41744 0.61784 0.1191 0.0
C1465 C 0.30906 0.66653 0.21658 0.0
C1466 C 0.32982 0.61697 0.16258 0.0
H1467 H 0.3688 0.56192 0.15916 0.0
C1468 C 0.33505 0.6285 0.13724 0.0
C1469 C 0.34168 0.59236 0.17051 0.0
C1470 C 0.336 0.57861 0.19716 0.0
C1471 C 0.35219 0.61646 0.11979 0.0
C1472 C 0.3647 0.59246 0.12798 0.0
C1473 C 0.35913 0.58042 0.15306 0.0
C1474 C 0.38466 0.58077 0.11096 0.0
C1475 C 0.3571 0.62968 0.09276 0.0
C1476 C 0.37685 0.55426 0.09644 0.0
C1477 C 0.39524 0.54462 0.07873 0.0
C1478 C 0.42175 0.56135 0.07543 0.0
C1479 C 0.42952 0.58768 0.09048 0.0
C1480 C 0.41114 0.59727 0.10803 0.0
H1481 H 0.342 0.64451 0.08758 0.0
H1482 H 0.37845 0.64261 0.09278 0.0
H1483 H 0.35556 0.61216 0.07702 0.0
H1484 H 0.35637 0.54136 0.09843 0.0
H1485 H 0.38865 0.52416 0.0676 0.0
H1486 H 0.31892 0.34956 0.19951 0.0
H1487 H 0.36084 0.37137 0.17735 0.0
H1488 H 0.41095 0.32617 0.22954 0.0
H1489 H 0.36882 0.3043 0.25224 0.0
H1490 H 0.41859 0.40412 0.2018 0.0
H1491 H 0.41645 0.29785 0.14621 0.0
H1492 H 0.38499 0.30663 0.16003 0.0
H1493 H 0.41271 0.2989 0.18186 0.0
C1494 C 0.3389 0.3447 0.20668 0.0
C1495 C 0.34058 0.32511 0.22749 0.0
C1496 C 0.36282 0.35722 0.19404 0.0
C1497 C 0.38884 0.35019 0.20175 0.0
C1498 C 0.39096 0.33181 0.22339 0.0
H1499 H 0.51186 0.43766 0.09067 0.0
H1500 H 0.49942 0.40909 0.13062 0.0
C1501 C 0.36694 0.31948 0.23635 0.0
C1502 C 0.41279 0.36019 0.1851 0.0
H1503 H 0.44063 0.34043 0.12737 0.0
C1504 C 0.42438 0.39007 0.1861 0.0
C1505 C 0.42003 0.34169 0.16463 0.0
C1506 C 0.40802 0.30943 0.16291 0.0
C1507 C 0.44129 0.40242 0.1658 0.0
C1508 C 0.44643 0.38439 0.14404 0.0
C1509 C 0.43676 0.35408 0.14423 0.0
C1510 C 0.45577 0.39752 0.11864 0.0
C1511 C 0.45134 0.43512 0.16637 0.0
C1512 C 0.43552 0.39951 0.09849 0.0
C1513 C 0.44242 0.41584 0.07599 0.0
C1514 C 0.4698 0.43034 0.07307 0.0
C1515 C 0.49058 0.42669 0.09241 0.0
C1516 C 0.48353 0.4105 0.11523 0.0
H1517 H 0.44605 0.44598 0.18503 0.0
H1518 H 0.4743 0.43959 0.16454 0.0
H1519 H 0.44182 0.4451 0.14911 0.0
H1520 H 0.41398 0.3896 0.10082 0.0
H1521 H 0.42602 0.41801 0.06132 0.0
H1522 H 0.76729 0.72358 0.64379 0.0
H1523 H 0.79273 0.69669 0.61358 0.0
H1524 H 0.76975 0.61804 0.658 0.0
H1525 H 0.7446 0.64488 0.6887 0.0
H1526 H 0.82572 0.63367 0.65539 0.0
H1527 H 0.77681 0.63468 0.55412 0.0
H1528 H 0.78379 0.67047 0.56995 0.0
H1529 H 0.75905 0.64208 0.58389 0.0
C1530 C 0.76683 0.70033 0.64669 0.0
C1531 C 0.75418 0.68652 0.66894 0.0
C1532 C 0.78133 0.68492 0.62926 0.0
C1533 C 0.78314 0.65534 0.6335 0.0
C1534 C 0.76864 0.64088 0.65438 0.0
H1535 H 0.8819 0.55345 0.53766 0.0
H1536 H 0.84375 0.57046 0.56053 0.0
C1537 C 0.75421 0.65628 0.67189 0.0
C1538 C 0.80342 0.64097 0.61888 0.0
H1539 H 0.82414 0.62552 0.5566 0.0
C1540 C 0.82513 0.63152 0.6338 0.0
C1541 C 0.80262 0.63811 0.59073 0.0
C1542 C 0.77915 0.64661 0.57374 0.0
C1543 C 0.84654 0.62017 0.62132 0.0
C1544 C 0.84648 0.61865 0.59316 0.0
C1545 C 0.82428 0.62709 0.57821 0.0
C1546 C 0.86955 0.6087 0.57898 0.0
C1547 C 0.86911 0.60998 0.6384 0.0
C1548 C 0.89664 0.62479 0.58158 0.0
C1549 C 0.91854 0.61517 0.56857 0.0
C1550 C 0.91374 0.58928 0.55262 0.0
C1551 C 0.88644 0.5734 0.54987 0.0
C1552 C 0.86455 0.58311 0.56285 0.0
H1553 H 0.86243 0.6056 0.65908 0.0
H1554 H 0.87513 0.58972 0.62971 0.0
H1555 H 0.88783 0.62735 0.63947 0.0
H1556 H 0.90082 0.64486 0.59366 0.0
H1557 H 0.93922 0.62804 0.57104 0.0
H1558 H 0.30971 0.85451 0.7254 0.0
H1559 H 0.34541 0.88639 0.70199 0.0
H1560 H 0.40256 0.82533 0.71491 0.0
H1561 H 0.36655 0.7927 0.73761 0.0
H1562 H 0.39841 0.91445 0.71512 0.0
H1563 H 0.39942 0.82963 0.63464 0.0
H1564 H 0.37354 0.82575 0.65968 0.0
H1565 H 0.40827 0.81922 0.66773 0.0
C1566 C 0.32991 0.8479 0.72342 0.0
C1567 C 0.33517 0.82086 0.73296 0.0
C1568 C 0.35034 0.86621 0.71013 0.0
C1569 C 0.37646 0.85797 0.70633 0.0
C1570 C 0.38231 0.83175 0.71709 0.0
H1571 H 0.48399 0.94391 0.58478 0.0
H1572 H 0.47433 0.91852 0.62655 0.0
C1573 C 0.36174 0.81318 0.73008 0.0
C1574 C 0.39651 0.87608 0.68948 0.0
H1575 H 0.42514 0.87606 0.62843 0.0
C1576 C 0.40468 0.90597 0.69637 0.0
C1577 C 0.40481 0.8649 0.66509 0.0
C1578 C 0.39596 0.8332 0.65615 0.0
C1579 C 0.41955 0.92531 0.67879 0.0
C1580 C 0.42626 0.91441 0.65378 0.0
C1581 C 0.41998 0.88423 0.64774 0.0
C1582 C 0.43526 0.93411 0.63183 0.0
C1583 C 0.42696 0.95741 0.68661 0.0
C1584 C 0.41673 0.95155 0.62126 0.0
C1585 C 0.42199 0.9656 0.59723 0.0
C1586 C 0.44592 0.96246 0.58329 0.0
C1587 C 0.46533 0.9465 0.59483 0.0
C1588 C 0.4599 0.93212 0.61878 0.0
H1589 H 0.42874 0.96068 0.70865 0.0
H1590 H 0.44688 0.96744 0.67799 0.0
H1591 H 0.41025 0.96914 0.67895 0.0
H1592 H 0.39733 0.95292 0.63078 0.0
H1593 H 0.4067 0.97798 0.5891 0.0
H1594 H 0.19426 0.3554 0.72274 0.0
H1595 H 0.16006 0.37964 0.6992 0.0
H1596 H 0.12375 0.29727 0.66038 0.0
H1597 H 0.1586 0.27299 0.68322 0.0
H1598 H 0.1343 0.33867 0.62565 0.0
H1599 H 0.07914 0.38249 0.70773 0.0
H1600 H 0.11608 0.39379 0.7121 0.0
H1601 H 0.10149 0.35535 0.71296 0.0
C1602 C 0.17882 0.34236 0.70941 0.0
C1603 C 0.17922 0.31232 0.7047 0.0
C1604 C 0.15904 0.35619 0.69622 0.0
C1605 C 0.13893 0.34014 0.6785 0.0
C1606 C 0.13893 0.31001 0.67417 0.0
H1607 H 0.03089 0.40771 0.56079 0.0
H1608 H 0.04431 0.37742 0.59681 0.0
C1609 C 0.15895 0.29621 0.6871 0.0
C1610 C 0.1202 0.35553 0.66218 0.0
H1611 H 0.07679 0.40658 0.66528 0.0
C1612 C 0.12124 0.35299 0.63434 0.0
C1613 C 0.10316 0.37423 0.67355 0.0
C1614 C 0.09967 0.37638 0.70323 0.0
C1615 C 0.10691 0.36978 0.61758 0.0
C1616 C 0.0911 0.38955 0.62899 0.0
C1617 C 0.08909 0.3914 0.65674 0.0
C1618 C 0.0786 0.40999 0.61207 0.0
C1619 C 0.10977 0.36728 0.58778 0.0
C1620 C 0.09271 0.43875 0.60973 0.0
C1621 C 0.08526 0.45611 0.5891 0.0
C1622 C 0.06367 0.44479 0.5705 0.0
C1623 C 0.04798 0.41688 0.57447 0.0
C1624 C 0.05545 0.39959 0.59512 0.0
H1625 H 0.12502 0.35291 0.58233 0.0
H1626 H 0.08923 0.35802 0.57814 0.0
H1627 H 0.11647 0.38934 0.57953 0.0
H1628 H 0.11069 0.44702 0.62273 0.0
H1629 H 0.09755 0.47762 0.58681 0.0
H1630 H 0.65404 0.23687 0.66153 0.0
H1631 H 0.62912 0.20485 0.62623 0.0
H1632 H 0.70502 0.20886 0.58368 0.0
H1633 H 0.7304 0.24025 0.61939 0.0
H1634 H 0.61932 0.20573 0.57317 0.0
H1635 H 0.68591 0.12197 0.59715 0.0
H1636 H 0.68676 0.15485 0.61737 0.0
H1637 H 0.70441 0.15634 0.58643 0.0
C1638 C 0.66535 0.2316 0.64437 0.0
C1639 C 0.69432 0.24068 0.64352 0.0
C1640 C 0.65108 0.21315 0.62423 0.0
C1641 C 0.66543 0.20368 0.60278 0.0
C1642 C 0.69375 0.21512 0.6005 0.0
H1643 H 0.55985 0.09283 0.4832 0.0
H1644 H 0.59878 0.12908 0.50132 0.0
C1645 C 0.70815 0.23331 0.6208 0.0
C1646 C 0.651 0.18026 0.58416 0.0
H1647 H 0.65025 0.10891 0.56412 0.0
C1648 C 0.62622 0.18466 0.57092 0.0
C1649 C 0.65989 0.15262 0.58164 0.0
C1650 C 0.68554 0.14594 0.59655 0.0
C1651 C 0.60958 0.16198 0.55589 0.0
C1652 C 0.6185 0.13436 0.55327 0.0
C1653 C 0.64369 0.13019 0.56589 0.0
C1654 C 0.60051 0.10887 0.53976 0.0
C1655 C 0.58185 0.16743 0.54427 0.0
C1656 C 0.59053 0.08396 0.55441 0.0
C1657 C 0.56887 0.06273 0.54377 0.0
C1658 C 0.55676 0.06647 0.51853 0.0
C1659 C 0.56872 0.08973 0.50286 0.0
C1660 C 0.59073 0.11057 0.51328 0.0
H1661 H 0.57534 0.18722 0.55344 0.0
H1662 H 0.58353 0.17097 0.52255 0.0
H1663 H 0.56525 0.14832 0.54714 0.0
H1664 H 0.59802 0.08205 0.57479 0.0
H1665 H 0.55992 0.04501 0.55623 0.0
H1666 H 0.78916 0.35577 0.32141 0.0
H1667 H 0.81308 0.38911 0.35588 0.0
H1668 H 0.78458 0.32702 0.41606 0.0
H1669 H 0.76178 0.29243 0.38119 0.0
H1670 H 0.80652 0.41738 0.40105 0.0
H1671 H 0.8664 0.32656 0.42195 0.0
H1672 H 0.84064 0.32391 0.395 0.0
H1673 H 0.83006 0.31943 0.42888 0.0
C1674 C 0.78739 0.34932 0.342 0.0
C1675 C 0.77436 0.32105 0.34852 0.0
C1676 C 0.80101 0.36857 0.36178 0.0
C1677 C 0.80147 0.36013 0.38846 0.0
C1678 C 0.78534 0.3335 0.39545 0.0
H1679 H 0.92802 0.47959 0.48727 0.0
H1680 H 0.88179 0.45437 0.47229 0.0
C1681 C 0.77222 0.31383 0.37554 0.0
C1682 C 0.82242 0.3771 0.40741 0.0
H1683 H 0.88473 0.37284 0.43925 0.0
C1684 C 0.82342 0.40764 0.40987 0.0
C1685 C 0.84453 0.36427 0.41877 0.0
C1686 C 0.8456 0.33182 0.41594 0.0
C1687 C 0.8469 0.42593 0.42147 0.0
C1688 C 0.86947 0.41311 0.43155 0.0
C1689 C 0.86741 0.38248 0.43118 0.0
C1690 C 0.89679 0.43071 0.43964 0.0
C1691 C 0.84817 0.45879 0.42114 0.0
C1692 C 0.92053 0.42577 0.4263 0.0
C1693 C 0.94692 0.43981 0.43505 0.0
C1694 C 0.95006 0.45942 0.45707 0.0
C1695 C 0.92623 0.4652 0.46987 0.0
C1696 C 0.89975 0.45073 0.46135 0.0
H1697 H 0.83123 0.46518 0.40824 0.0
H1698 H 0.84605 0.46719 0.44171 0.0
H1699 H 0.86853 0.46966 0.41397 0.0
H1700 H 0.91867 0.41042 0.40944 0.0
H1701 H 0.96496 0.43497 0.42486 0.0
H1702 H 0.73645 0.83181 0.34216 0.0
H1703 H 0.70647 0.84789 0.37532 0.0
H1704 H 0.65214 0.76418 0.36783 0.0
H1705 H 0.68256 0.74764 0.33442 0.0
H1706 H 0.64855 0.84859 0.35863 0.0
H1707 H 0.6604 0.78576 0.45086 0.0
H1708 H 0.68742 0.79178 0.42683 0.0
H1709 H 0.65613 0.76624 0.41909 0.0
C1710 C 0.71847 0.81651 0.34798 0.0
C1711 C 0.71166 0.78856 0.33555 0.0
C1712 C 0.70139 0.82574 0.36696 0.0
C1713 C 0.67709 0.80729 0.37394 0.0
C1714 C 0.671 0.77863 0.36286 0.0
H1715 H 0.54419 0.85834 0.46846 0.0
H1716 H 0.57318 0.82993 0.44326 0.0
C1717 C 0.68835 0.76921 0.34384 0.0
C1718 C 0.65683 0.81983 0.39011 0.0
H1719 H 0.63021 0.82089 0.45211 0.0
C1720 C 0.64439 0.84241 0.37902 0.0
C1721 C 0.65135 0.81153 0.41657 0.0
C1722 C 0.66453 0.78759 0.42927 0.0
C1723 C 0.62706 0.85741 0.39387 0.0
C1724 C 0.62245 0.85 0.42072 0.0
C1725 C 0.63406 0.82669 0.43158 0.0
C1726 C 0.60597 0.86672 0.43776 0.0
C1727 C 0.61386 0.88113 0.38069 0.0
C1728 C 0.61513 0.8967 0.44351 0.0
C1729 C 0.59862 0.91308 0.45785 0.0
C1730 C 0.57263 0.89975 0.4668 0.0
C1731 C 0.56399 0.86943 0.46174 0.0
C1732 C 0.58055 0.85307 0.44742 0.0
H1733 H 0.61355 0.87892 0.35858 0.0
H1734 H 0.59217 0.8806 0.38705 0.0
H1735 H 0.62609 0.9029 0.38659 0.0
H1736 H 0.63491 0.90753 0.43653 0.0
H1737 H 0.60605 0.93629 0.46151 0.0
H1738 H 0.1893 0.66767 0.28819 0.0
H1739 H 0.15452 0.64267 0.3174 0.0
H1740 H 0.09662 0.69901 0.29206 0.0
H1741 H 0.13125 0.72415 0.26255 0.0
H1742 H 0.10899 0.69842 0.3487 0.0
H1743 H 0.07888 0.58632 0.30437 0.0
H1744 H 0.11585 0.59896 0.30549 0.0
H1745 H 0.09334 0.61747 0.28513 0.0
C1746 C 0.16899 0.67438 0.2884 0.0
C1747 C 0.16307 0.69797 0.27319 0.0
C1748 C 0.14908 0.65994 0.30494 0.0
C1749 C 0.123 0.66889 0.30661 0.0
C1750 C 0.11659 0.69169 0.29077 0.0
H1751 H 0.02003 0.57409 0.42751 0.0
H1752 H 0.02906 0.60349 0.38774 0.0
C1753 C 0.1364 0.70597 0.27396 0.0
C1754 C 0.10416 0.65675 0.32741 0.0
H1755 H 0.07359 0.59156 0.35186 0.0
C1756 C 0.10055 0.67519 0.34914 0.0
C1757 C 0.09299 0.62656 0.32772 0.0
C1758 C 0.0952 0.6062 0.3043 0.0
C1759 C 0.08812 0.66367 0.37222 0.0
C1760 C 0.07926 0.63309 0.37342 0.0
C1761 C 0.08065 0.61503 0.35085 0.0
C1762 C 0.07242 0.6189 0.39886 0.0
C1763 C 0.08583 0.68395 0.39568 0.0
C1764 C 0.09381 0.61825 0.41824 0.0
C1765 C 0.08882 0.60139 0.44081 0.0
C1766 C 0.0623 0.58507 0.44436 0.0
C1767 C 0.0406 0.58673 0.42542 0.0
C1768 C 0.04569 0.60338 0.40268 0.0
H1769 H 0.0866 0.70701 0.38944 0.0
H1770 H 0.06617 0.67689 0.40606 0.0
H1771 H 0.10354 0.68331 0.41013 0.0
H1772 H 0.11467 0.62983 0.41535 0.0
H1773 H 0.10587 0.60059 0.45513 0.0
H1774 H 0.32158 0.21221 0.33677 0.0
H1775 H 0.3485 0.17602 0.35459 0.0
H1776 H 0.33476 0.12657 0.27996 0.0
H1777 H 0.30655 0.16165 0.26278 0.0
H1778 H 0.32691 0.09065 0.31734 0.0
H1779 H 0.4257 0.1642 0.3431 0.0
H1780 H 0.39793 0.17699 0.35986 0.0
H1781 H 0.3979 0.17635 0.32387 0.0
C1782 C 0.32454 0.19371 0.32419 0.0
C1783 C 0.31198 0.18965 0.29848 0.0
C1784 C 0.34012 0.17317 0.33425 0.0
C1785 C 0.34422 0.14883 0.31842 0.0
C1786 C 0.33199 0.14513 0.29256 0.0
H1787 H 0.45906 0.04991 0.39827 0.0
H1788 H 0.43871 0.07259 0.36036 0.0
C1789 C 0.31587 0.1652 0.28277 0.0
C1790 C 0.35978 0.12632 0.32935 0.0
H1791 H 0.418 0.11835 0.36637 0.0
C1792 C 0.34709 0.09667 0.32764 0.0
C1793 C 0.38654 0.13381 0.34201 0.0
C1794 C 0.4029 0.16454 0.34201 0.0
C1795 C 0.35961 0.07467 0.33967 0.0
C1796 C 0.3849 0.08268 0.35485 0.0
C1797 C 0.3984 0.11205 0.3551 0.0
C1798 C 0.39622 0.06211 0.37304 0.0
C1799 C 0.34542 0.04318 0.33601 0.0
C1800 C 0.37902 0.04709 0.39193 0.0
C1801 C 0.39053 0.03335 0.4131 0.0
C1802 C 0.41956 0.03526 0.41629 0.0
C1803 C 0.43661 0.04822 0.39631 0.0
C1804 C 0.42499 0.06132 0.37473 0.0
H1805 H 0.33488 0.0394 0.31592 0.0
H1806 H 0.36036 0.02756 0.33841 0.0
H1807 H 0.32909 0.03841 0.35091 0.0
H1808 H 0.35692 0.04798 0.39168 0.0
H1809 H 0.3769 0.02382 0.42834 0.0
H1810 H 0.67857 0.84243 0.74517 0.0
H1811 H 0.65137 0.8776 0.72619 0.0
H1812 H 0.65741 0.8398 0.64763 0.0
H1813 H 0.68594 0.80564 0.66638 0.0
H1814 H 0.66529 0.89713 0.64606 0.0
H1815 H 0.57102 0.86102 0.70374 0.0
H1816 H 0.60183 0.87426 0.72399 0.0
H1817 H 0.60005 0.84129 0.70378 0.0
C1818 C 0.67403 0.84163 0.72384 0.0
C1819 C 0.6841 0.82117 0.70721 0.0
C1820 C 0.65835 0.86162 0.71307 0.0
C1821 C 0.65177 0.86089 0.68559 0.0
C1822 C 0.66216 0.84069 0.66893 0.0
H1823 H 0.5224 0.89927 0.5887 0.0
H1824 H 0.55078 0.88502 0.62535 0.0
C1825 C 0.67839 0.82116 0.67962 0.0
C1826 C 0.63415 0.88107 0.6739 0.0
H1827 H 0.56906 0.89957 0.67424 0.0
C1828 C 0.64429 0.89785 0.6523 0.0
C1829 C 0.60681 0.88202 0.68224 0.0
C1830 C 0.59414 0.86351 0.70454 0.0
C1831 C 0.62732 0.91404 0.63765 0.0
C1832 C 0.59977 0.91459 0.64565 0.0
C1833 C 0.59024 0.89931 0.66832 0.0
C1834 C 0.57923 0.92639 0.62822 0.0
C1835 C 0.63853 0.92852 0.61264 0.0
C1836 C 0.58454 0.95513 0.61886 0.0
C1837 C 0.56868 0.96315 0.59727 0.0
C1838 C 0.54686 0.94273 0.58532 0.0
C1839 C 0.53937 0.91537 0.59711 0.0
C1840 C 0.55556 0.9072 0.61821 0.0
H1841 H 0.658 0.92096 0.60663 0.0
H1842 H 0.62294 0.92389 0.59574 0.0
H1843 H 0.64336 0.95264 0.61621 0.0
H1844 H 0.60204 0.9707 0.62704 0.0
H1845 H 0.57454 0.98467 0.58901 0.0
H1846 H 0.6597 0.1617 0.27807 0.0
H1847 H 0.62073 0.13024 0.2974 0.0
H1848 H 0.65137 0.16169 0.37629 0.0
H1849 H 0.69104 0.19267 0.35712 0.0
H1850 H 0.64012 0.10359 0.37311 0.0
H1851 H 0.55024 0.14818 0.3289 0.0
H1852 H 0.57296 0.1378 0.30434 0.0
H1853 H 0.58564 0.16727 0.32792 0.0
C1854 C 0.65805 0.16215 0.29954 0.0
C1855 C 0.67848 0.17964 0.31611 0.0
C1856 C 0.63558 0.14435 0.31052 0.0
C1857 C 0.63285 0.14409 0.33821 0.0
C1858 C 0.65302 0.16177 0.35481 0.0
H1859 H 0.5073 0.06473 0.43953 0.0
H1860 H 0.53109 0.09673 0.40641 0.0
C1861 C 0.67571 0.17936 0.34387 0.0
C1862 C 0.61038 0.12348 0.35004 0.0
H1863 H 0.53975 0.10218 0.35042 0.0
C1864 C 0.61818 0.10336 0.3682 0.0
C1865 C 0.58177 0.12337 0.34366 0.0
C1866 C 0.5721 0.14551 0.32534 0.0
C1867 C 0.59823 0.08312 0.38026 0.0
C1868 C 0.56965 0.08228 0.37323 0.0
C1869 C 0.56171 0.10249 0.3552 0.0
C1870 C 0.54802 0.06201 0.38641 0.0
C1871 C 0.60797 0.06345 0.40108 0.0
C1872 C 0.54793 0.03163 0.38468 0.0
C1873 C 0.53462 0.01342 0.40376 0.0
C1874 C 0.52058 0.02534 0.42413 0.0
C1875 C 0.51751 0.055 0.42362 0.0
C1876 C 0.53125 0.07333 0.40482 0.0
H1877 H 0.62975 0.07153 0.40843 0.0
H1878 H 0.59431 0.06175 0.41843 0.0
H1879 H 0.60721 0.04109 0.39224 0.0
H1880 H 0.56047 0.02252 0.37029 0.0
H1881 H 0.53733 0.99059 0.40398 0.0
H1882 H 0.87103 0.74442 0.28679 0.0
H1883 H 0.90399 0.71936 0.31148 0.0
H1884 H 0.83658 0.67217 0.35469 0.0
H1885 H 0.80331 0.69713 0.33017 0.0
H1886 H 0.88514 0.70053 0.38645 0.0
H1887 H 0.91151 0.63054 0.30254 0.0
H1888 H 0.91352 0.66912 0.2966 0.0
H1889 H 0.88033 0.64709 0.30186 0.0
C1890 C 0.86313 0.72872 0.30154 0.0
C1891 C 0.83447 0.72275 0.30648 0.0
C1892 C 0.88202 0.71431 0.31548 0.0
C1893 C 0.8726 0.69372 0.33458 0.0
C1894 C 0.84414 0.68792 0.33984 0.0
H1895 H 0.93383 0.56269 0.42291 0.0
H1896 H 0.91432 0.59088 0.38857 0.0
C1897 C 0.82519 0.70221 0.32584 0.0
C1898 C 0.89248 0.67875 0.34972 0.0
H1899 H 0.93492 0.62709 0.34413 0.0
C1900 C 0.89623 0.68465 0.37722 0.0
C1901 C 0.90675 0.65804 0.33746 0.0
C1902 C 0.9028 0.65055 0.30802 0.0
C1903 C 0.91356 0.66994 0.39302 0.0
C1904 C 0.92773 0.64905 0.38084 0.0
C1905 C 0.9243 0.64343 0.35324 0.0
C1906 C 0.94366 0.63076 0.39712 0.0
C1907 C 0.9157 0.67599 0.42278 0.0
C1908 C 0.96759 0.64347 0.4122 0.0
C1909 C 0.97878 0.62746 0.43199 0.0
C1910 C 0.96612 0.59854 0.43693 0.0
C1911 C 0.94385 0.58505 0.41992 0.0
C1912 C 0.9327 0.60108 0.4002 0.0
H1913 H 0.89989 0.68912 0.42945 0.0
H1914 H 0.91303 0.6551 0.43371 0.0
H1915 H 0.93668 0.68843 0.4284 0.0
H1916 H 0.97658 0.66627 0.40972 0.0
H1917 H 0.99626 0.63835 0.44441 0.0
H1918 H 0.28324 0.74968 0.33549 0.0
H1919 H 0.29906 0.76816 0.38074 0.0
H1920 H 0.3094 0.85699 0.35325 0.0
H1921 H 0.29392 0.83913 0.30858 0.0
H1922 H 0.35089 0.80294 0.39469 0.0
H1923 H 0.26517 0.86182 0.42078 0.0
H1924 H 0.26147 0.83368 0.3947 0.0
H1925 H 0.27723 0.87078 0.38813 0.0
C1926 C 0.28889 0.77313 0.33916 0.0
C1927 C 0.28733 0.79289 0.31838 0.0
C1928 C 0.29767 0.78362 0.365 0.0
C1929 C 0.30455 0.81395 0.37042 0.0
C1930 C 0.30331 0.83355 0.34967 0.0
H1931 H 0.40193 0.94824 0.454 0.0
H1932 H 0.3627 0.9163 0.43123 0.0
C1933 C 0.29479 0.8232 0.324 0.0
C1934 C 0.31585 0.8257 0.39689 0.0
H1935 H 0.31068 0.88072 0.44197 0.0
C1936 C 0.34178 0.81927 0.40564 0.0
C1937 C 0.30378 0.84696 0.41101 0.0
C1938 C 0.27522 0.85349 0.40331 0.0
C1939 C 0.35728 0.8356 0.42656 0.0
C1940 C 0.34611 0.85846 0.43942 0.0
C1941 C 0.3192 0.86328 0.43203 0.0
C1942 C 0.36377 0.87995 0.45762 0.0
C1943 C 0.38642 0.82985 0.43316 0.0
C1944 C 0.37594 0.8708 0.48106 0.0
C1945 C 0.39856 0.88886 0.49387 0.0
C1946 C 0.40894 0.91646 0.48364 0.0
C1947 C 0.39441 0.92704 0.46225 0.0
C1948 C 0.37201 0.90878 0.44921 0.0
H1949 H 0.39341 0.8146 0.4184 0.0
H1950 H 0.40153 0.85069 0.4339 0.0
H1951 H 0.38699 0.81985 0.45305 0.0
H1952 H 0.36939 0.84887 0.48819 0.0
H1953 H 0.40915 0.88039 0.51064 0.0
H1954 H 0.28218 0.35488 0.334 0.0
H1955 H 0.26995 0.39064 0.36681 0.0
H1956 H 0.19797 0.32856 0.387 0.0
H1957 H 0.20978 0.29333 0.35423 0.0
H1958 H 0.21701 0.41024 0.36034 0.0
H1959 H 0.2294 0.36447 0.46028 0.0
H1960 H 0.24803 0.35439 0.43189 0.0
H1961 H 0.2125 0.33746 0.43617 0.0
C1962 C 0.26435 0.34862 0.34617 0.0
C1963 C 0.2469 0.32143 0.3417 0.0
C1964 C 0.25732 0.36904 0.36477 0.0
C1965 C 0.23321 0.36211 0.37952 0.0
C1966 C 0.21693 0.33418 0.37624 0.0
H1967 H 0.09593 0.42939 0.42766 0.0
H1968 H 0.13368 0.40943 0.40694 0.0
C1969 C 0.22362 0.31411 0.35743 0.0
C1970 C 0.22223 0.38492 0.39522 0.0
H1971 H 0.19439 0.3961 0.45531 0.0
C1972 C 0.2128 0.40773 0.38133 0.0
C1973 C 0.21676 0.38164 0.42257 0.0
C1974 C 0.22745 0.35832 0.43868 0.0
C1975 C 0.19606 0.42577 0.39353 0.0
C1976 C 0.18865 0.42084 0.4202 0.0
C1977 C 0.19996 0.39966 0.43476 0.0
C1978 C 0.16644 0.43467 0.43208 0.0
C1979 C 0.18516 0.44899 0.37743 0.0
C1980 C 0.17244 0.4555 0.4531 0.0
C1981 C 0.15086 0.46723 0.4649 0.0
C1982 C 0.12293 0.45783 0.45615 0.0
C1983 C 0.11716 0.43707 0.43494 0.0
C1984 C 0.13871 0.42571 0.42299 0.0
H1985 H 0.19782 0.45482 0.35974 0.0
H1986 H 0.1634 0.44057 0.37029 0.0
H1987 H 0.18501 0.46914 0.38986 0.0
H1988 H 0.19375 0.46251 0.46046 0.0
H1989 H 0.15598 0.48305 0.4813 0.0
H1990 H 0.26021 0.23331 0.63955 0.0
H1991 H 0.27888 0.20698 0.60329 0.0
H1992 H 0.35481 0.20718 0.65059 0.0
H1993 H 0.33704 0.23474 0.68601 0.0
H1994 H 0.36688 0.21453 0.60155 0.0
H1995 H 0.27933 0.12112 0.60481 0.0
H1996 H 0.26861 0.15509 0.59586 0.0
H1997 H 0.28378 0.15138 0.62864 0.0
C1998 C 0.28109 0.2282 0.64195 0.0
C1999 C 0.29706 0.23592 0.66574 0.0
C2000 C 0.29161 0.21283 0.62135 0.0
C2001 C 0.3179 0.20422 0.62453 0.0
C2002 C 0.33439 0.21336 0.64768 0.0
H2003 H 0.37925 0.05497 0.56051 0.0
H2004 H 0.35489 0.08979 0.58374 0.0
C2005 C 0.32419 0.22922 0.66796 0.0
C2006 C 0.32821 0.18479 0.60453 0.0
H2007 H 0.31361 0.11709 0.57365 0.0
C2008 C 0.35518 0.19326 0.59536 0.0
C2009 C 0.31306 0.15684 0.59672 0.0
C2010 C 0.28472 0.14539 0.60719 0.0
C2011 C 0.36787 0.17427 0.5795 0.0
C2012 C 0.35259 0.1465 0.57134 0.0
C2013 C 0.32524 0.13842 0.57974 0.0
C2014 C 0.36528 0.12469 0.55578 0.0
C2015 C 0.39806 0.18367 0.57306 0.0
C2016 C 0.37845 0.13229 0.53187 0.0
C2017 C 0.39305 0.11273 0.51908 0.0
C2018 C 0.39377 0.0848 0.52937 0.0
C2019 C 0.37896 0.07639 0.55219 0.0
C2020 C 0.36505 0.09628 0.56544 0.0
H2021 H 0.40873 0.2012 0.58713 0.0
H2022 H 0.40969 0.16492 0.5738 0.0
H2023 H 0.39918 0.19262 0.5527 0.0
H2024 H 0.37802 0.15359 0.52342 0.0
H2025 H 0.40396 0.11952 0.50123 0.0
H2026 H 0.82967 0.30207 0.65468 0.0
H2027 H 0.87246 0.32826 0.63717 0.0
H2028 H 0.89515 0.37027 0.71429 0.0
H2029 H 0.85173 0.34482 0.73178 0.0
H2030 H 0.8999 0.40902 0.67775 0.0
H2031 H 0.9526 0.32004 0.64191 0.0
H2032 H 0.91741 0.31352 0.62866 0.0
H2033 H 0.92411 0.31345 0.6643 0.0
C2034 C 0.84386 0.31667 0.66801 0.0
C2035 C 0.83722 0.32153 0.69455 0.0
C2036 C 0.86858 0.3313 0.65808 0.0
C2037 C 0.88746 0.35062 0.67461 0.0
C2038 C 0.88107 0.35518 0.70127 0.0
H2039 H 0.01207 0.46856 0.58432 0.0
H2040 H -0.00086 0.43556 0.62144 0.0
C2041 C 0.85615 0.3408 0.71115 0.0
C2042 C 0.9117 0.36882 0.66286 0.0
H2043 H 0.95952 0.36535 0.6153 0.0
C2044 C 0.91371 0.39946 0.66493 0.0
C2045 C 0.93015 0.35653 0.64647 0.0
C2046 C 0.93112 0.32406 0.64551 0.0
C2047 C 0.93126 0.41781 0.64865 0.0
C2048 C 0.9468 0.40513 0.62974 0.0
C2049 C 0.94723 0.37489 0.62969 0.0
C2050 C 0.95669 0.4218 0.60635 0.0
C2051 C 0.93103 0.45044 0.64984 0.0
C2052 C 0.93723 0.42419 0.58561 0.0
C2053 C 0.94441 0.44285 0.56472 0.0
C2054 C 0.97128 0.45937 0.56413 0.0
C2055 C 0.99127 0.4559 0.58429 0.0
C2056 C 0.98396 0.4372 0.60544 0.0
H2057 H 0.92263 0.45745 0.66879 0.0
H2058 H 0.95239 0.46281 0.64781 0.0
H2059 H 0.91772 0.45629 0.633 0.0
H2060 H 0.9161 0.41237 0.58612 0.0
H2061 H 0.92868 0.44482 0.54931 0.0
H2062 H 0.22835 0.64396 0.70974 0.0
H2063 H 0.2101 0.62037 0.66725 0.0
H2064 H 0.25341 0.69352 0.62517 0.0
H2065 H 0.27252 0.71678 0.66786 0.0
H2066 H 0.19148 0.68383 0.62544 0.0
H2067 H 0.23305 0.584 0.59438 0.0
H2068 H 0.2289 0.58837 0.62965 0.0
H2069 H 0.25379 0.6143 0.61316 0.0
C2070 C 0.23515 0.65418 0.69133 0.0
C2071 C 0.25183 0.682 0.69185 0.0
C2072 C 0.22483 0.64068 0.66708 0.0
C2073 C 0.23058 0.65514 0.64311 0.0
C2074 C 0.24917 0.68184 0.64347 0.0
H2075 H 0.0913 0.62577 0.52417 0.0
H2076 H 0.13807 0.64578 0.54255 0.0
C2077 C 0.26005 0.69507 0.66779 0.0
C2078 C 0.21161 0.6462 0.61971 0.0
H2079 H 0.18653 0.58737 0.57866 0.0
C2080 C 0.19069 0.66312 0.61457 0.0
C2081 C 0.21061 0.61902 0.60609 0.0
C2082 C 0.2329 0.60039 0.61088 0.0
C2083 C 0.1674 0.65249 0.59785 0.0
C2084 C 0.16572 0.62465 0.58483 0.0
C2085 C 0.18776 0.60866 0.58859 0.0
C2086 C 0.13993 0.61043 0.56996 0.0
C2087 C 0.14387 0.67017 0.5963 0.0
C2088 C 0.12637 0.58282 0.5777 0.0
C2089 C 0.10017 0.5709 0.5665 0.0
C2090 C 0.08687 0.58674 0.54787 0.0
C2091 C 0.10095 0.6136 0.53909 0.0
C2092 C 0.12757 0.62505 0.54963 0.0
H2093 H 0.14563 0.68703 0.61267 0.0
H2094 H 0.14443 0.6818 0.57715 0.0
H2095 H 0.12331 0.65578 0.59734 0.0
H2096 H 0.13551 0.571 0.59322 0.0
H2097 H 0.08976 0.54997 0.57333 0.0
loop_
_geom_bond_atom_site_label_1
_geom_bond_atom_site_label_2
_geom_bond_distance
_geom_bond_site_symmetry_2
_ccdc_geom_bond_type
O0 Zn1 1.953 . S
O0 C16 1.225 . S
Zn1 O0 1.953 . S
Zn1 O2 1.949 . S
Zn1 O8 1.919 . S
Zn1 O13 1.924 . S
O2 Zn1 1.949 . S
O2 Zn3 1.923 . S
O2 Zn4 1.950 . S
O2 Zn5 1.945 . S
Zn3 O2 1.923 . S
Zn3 O6 1.933 . S
Zn3 O9 1.941 . S
Zn3 O10 1.965 . S
Zn4 O2 1.950 . S
Zn4 O11 1.938 . S
Zn4 O12 1.906 . S
Zn4 O22 1.953 . S
Zn5 O2 1.945 . S
Zn5 O7 1.932 . S
Zn5 O14 1.977 . S
Zn5 O15 1.910 . S
O6 Zn3 1.933 . S
O6 C17 1.226 . S
O7 Zn5 1.932 . S
O7 C17 1.307 . S
O8 Zn1 1.919 . S
O8 C19 1.253 . S
O9 Zn3 1.941 . S
O9 C19 1.283 . S
O10 Zn3 1.965 . S
O10 C18 1.303 . S
O11 Zn4 1.938 . S
O11 C18 1.247 . S
O12 Zn4 1.906 . S
O12 C20 1.304 . S
O13 Zn1 1.924 . S
O13 C21 1.311 . S
O14 Zn5 1.977 . S
O14 C20 1.272 . S
O15 Zn5 1.910 . S
O15 C21 1.231 . S
C16 O0 1.225 . S
C16 O22 1.298 . S
C17 O6 1.226 . S
C17 O7 1.307 . S
C18 O10 1.303 . S
C18 O11 1.247 . S
C19 O8 1.253 . S
C19 O9 1.283 . S
C20 O12 1.304 . S
C20 O14 1.272 . S
C21 O13 1.311 . S
C21 O15 1.231 . S
O22 Zn4 1.953 . S
O22 C16 1.298 . S
O23 Zn24 1.953 . S
O23 C39 1.225 . S
Zn24 O23 1.953 . S
Zn24 O25 1.949 . S
Zn24 O31 1.919 . S
Zn24 O36 1.924 . S
O25 Zn24 1.949 . S
O25 Zn26 1.923 . S
O25 Zn27 1.950 . S
O25 Zn28 1.945 . S
Zn26 O25 1.923 . S
Zn26 O29 1.933 . S
Zn26 O32 1.941 . S
Zn26 O33 1.965 . S
Zn27 O25 1.950 . S
Zn27 O34 1.938 . S
Zn27 O35 1.906 . S
Zn27 O45 1.953 . S
Zn28 O25 1.945 . S
Zn28 O30 1.932 . S
Zn28 O37 1.977 . S
Zn28 O38 1.910 . S
O29 Zn26 1.933 . S
O29 C40 1.226 . S
O30 Zn28 1.932 . S
O30 C40 1.307 . S
O31 Zn24 1.919 . S
O31 C42 1.253 . S
O32 Zn26 1.941 . S
O32 C42 1.283 . S
O33 Zn26 1.965 . S
O33 C41 1.303 . S
O34 Zn27 1.938 . S
O34 C41 1.247 . S
O35 Zn27 1.906 . S
O35 C43 1.304 . S
O36 Zn24 1.924 . S
O36 C44 1.311 . S
O37 Zn28 1.977 . S
O37 C43 1.272 . S
O38 Zn28 1.910 . S
O38 C44 1.231 . S
C39 O23 1.225 . S
C39 O45 1.298 . S
C40 O29 1.226 . S
C40 O30 1.307 . S
C41 O33 1.303 . S
C41 O34 1.247 . S
C42 O31 1.253 . S
C42 O32 1.283 . S
C43 O35 1.304 . S
C43 O37 1.272 . S
C44 O36 1.311 . S
C44 O38 1.231 . S
O45 Zn27 1.953 . S
O45 C39 1.298 . S
O46 Zn47 1.953 . S
O46 C62 1.225 . S
Zn47 O46 1.953 . S
Zn47 O48 1.949 . S
Zn47 O54 1.919 . S
Zn47 O59 1.924 . S
O48 Zn47 1.949 . S
O48 Zn49 1.923 . S
O48 Zn50 1.950 . S
O48 Zn51 1.945 . S
Zn49 O48 1.923 . S
Zn49 O52 1.933 . S
Zn49 O55 1.941 . S
Zn49 O56 1.965 . S
Zn50 O48 1.950 . S
Zn50 O57 1.938 . S
Zn50 O58 1.906 . S
Zn50 O68 1.953 . S
Zn51 O48 1.945 . S
Zn51 O53 1.932 . S
Zn51 O60 1.977 . S
Zn51 O61 1.910 . S
O52 Zn49 1.933 . S
O52 C63 1.226 . S
O53 Zn51 1.932 . S
O53 C63 1.307 . S
O54 Zn47 1.919 . S
O54 C65 1.253 . S
O55 Zn49 1.941 . S
O55 C65 1.283 . S
O56 Zn49 1.965 . S
O56 C64 1.303 . S
O57 Zn50 1.938 . S
O57 C64 1.247 . S
O58 Zn50 1.906 . S
O58 C66 1.304 . S
O59 Zn47 1.924 . S
O59 C67 1.311 . S
O60 Zn51 1.977 . S
O60 C66 1.272 . S
O61 Zn51 1.910 . S
O61 C67 1.231 . S
C62 O46 1.225 . S
C62 O68 1.298 . S
C63 O52 1.226 . S
C63 O53 1.307 . S
C64 O56 1.303 . S
C64 O57 1.247 . S
C65 O54 1.253 . S
C65 O55 1.283 . S
C66 O58 1.304 . S
C66 O60 1.272 . S
C67 O59 1.311 . S
C67 O61 1.231 . S
O68 Zn50 1.953 . S
O68 C62 1.298 . S
O69 Zn70 1.953 . S
O69 C85 1.225 . S
Zn70 O69 1.953 . S
Zn70 O71 1.949 . S
Zn70 O77 1.919 . S
Zn70 O82 1.924 . S
O71 Zn70 1.949 . S
O71 Zn72 1.923 . S
O71 Zn73 1.950 . S
O71 Zn74 1.945 . S
Zn72 O71 1.923 . S
Zn72 O75 1.933 . S
Zn72 O78 1.941 . S
Zn72 O79 1.965 . S
Zn73 O71 1.950 . S
Zn73 O80 1.938 . S
Zn73 O81 1.906 . S
Zn73 O91 1.953 . S
Zn74 O71 1.945 . S
Zn74 O76 1.932 . S
Zn74 O83 1.977 . S
Zn74 O84 1.910 . S
O75 Zn72 1.933 . S
O75 C86 1.226 . S
O76 Zn74 1.932 . S
O76 C86 1.307 . S
O77 Zn70 1.919 . S
O77 C88 1.253 . S
O78 Zn72 1.941 . S
O78 C88 1.283 . S
O79 Zn72 1.965 . S
O79 C87 1.303 . S
O80 Zn73 1.938 . S
O80 C87 1.247 . S
O81 Zn73 1.906 . S
O81 C89 1.304 . S
O82 Zn70 1.924 . S
O82 C90 1.311 . S
O83 Zn74 1.977 . S
O83 C89 1.272 . S
O84 Zn74 1.910 . S
O84 C90 1.231 . S
C85 O69 1.225 . S
C85 O91 1.298 . S
C86 O75 1.226 . S
C86 O76 1.307 . S
C87 O79 1.303 . S
C87 O80 1.247 . S
C88 O77 1.253 . S
C88 O78 1.283 . S
C89 O81 1.304 . S
C89 O83 1.272 . S
C90 O82 1.311 . S
C90 O84 1.231 . S
O91 Zn73 1.953 . S
O91 C85 1.298 . S
O92 Zn93 1.953 . S
O92 C108 1.225 . S
Zn93 O92 1.953 . S
Zn93 O94 1.949 . S
Zn93 O100 1.919 . S
Zn93 O105 1.924 . S
O94 Zn93 1.949 . S
O94 Zn95 1.923 . S
O94 Zn96 1.950 . S
O94 Zn97 1.945 . S
Zn95 O94 1.923 . S
Zn95 O98 1.933 . S
Zn95 O101 1.941 . S
Zn95 O102 1.965 . S
Zn96 O94 1.950 . S
Zn96 O103 1.938 . S
Zn96 O104 1.906 . S
Zn96 O114 1.953 . S
Zn97 O94 1.945 . S
Zn97 O99 1.932 . S
Zn97 O106 1.977 . S
Zn97 O107 1.910 . S
O98 Zn95 1.933 . S
O98 C109 1.226 . S
O99 Zn97 1.932 . S
O99 C109 1.307 . S
O100 Zn93 1.919 . S
O100 C111 1.253 . S
O101 Zn95 1.941 . S
O101 C111 1.283 . S
O102 Zn95 1.965 . S
O102 C110 1.303 . S
O103 Zn96 1.938 . S
O103 C110 1.247 . S
O104 Zn96 1.906 . S
O104 C112 1.304 . S
O105 Zn93 1.924 . S
O105 C113 1.311 . S
O106 Zn97 1.977 . S
O106 C112 1.272 . S
O107 Zn97 1.910 . S
O107 C113 1.231 . S
C108 O92 1.225 . S
C108 O114 1.298 . S
C109 O98 1.226 . S
C109 O99 1.307 . S
C110 O102 1.303 . S
C110 O103 1.247 . S
C111 O100 1.253 . S
C111 O101 1.283 . S
C112 O104 1.304 . S
C112 O106 1.272 . S
C113 O105 1.311 . S
C113 O107 1.231 . S
O114 Zn96 1.953 . S
O114 C108 1.298 . S
O115 Zn116 1.953 . S
O115 C131 1.225 . S
Zn116 O115 1.953 . S
Zn116 O117 1.949 . S
Zn116 O123 1.919 . S
Zn116 O128 1.924 . S
O117 Zn116 1.949 . S
O117 Zn118 1.923 . S
O117 Zn119 1.950 . S
O117 Zn120 1.945 . S
Zn118 O117 1.923 . S
Zn118 O121 1.933 . S
Zn118 O124 1.941 . S
Zn118 O125 1.965 . S
Zn119 O117 1.950 . S
Zn119 O126 1.938 . S
Zn119 O127 1.906 . S
Zn119 O137 1.953 . S
Zn120 O117 1.945 . S
Zn120 O122 1.932 . S
Zn120 O129 1.977 . S
Zn120 O130 1.910 . S
O121 Zn118 1.933 . S
O121 C132 1.226 . S
O122 Zn120 1.932 . S
O122 C132 1.307 . S
O123 Zn116 1.919 . S
O123 C134 1.253 . S
O124 Zn118 1.941 . S
O124 C134 1.283 . S
O125 Zn118 1.965 . S
O125 C133 1.303 . S
O126 Zn119 1.938 . S
O126 C133 1.247 . S
O127 Zn119 1.906 . S
O127 C135 1.304 . S
O128 Zn116 1.924 . S
O128 C136 1.311 . S
O129 Zn120 1.977 . S
O129 C135 1.272 . S
O130 Zn120 1.910 . S
O130 C136 1.231 . S
C131 O115 1.225 . S
C131 O137 1.298 . S
C132 O121 1.226 . S
C132 O122 1.307 . S
C133 O125 1.303 . S
C133 O126 1.247 . S
C134 O123 1.253 . S
C134 O124 1.283 . S
C135 O127 1.304 . S
C135 O129 1.272 . S
C136 O128 1.311 . S
C136 O130 1.231 . S
O137 Zn119 1.953 . S
O137 C131 1.298 . S
O138 Zn139 1.953 . S
O138 C154 1.225 . S
Zn139 O138 1.953 . S
Zn139 O140 1.949 . S
Zn139 O146 1.919 . S
Zn139 O151 1.924 . S
O140 Zn139 1.949 . S
O140 Zn141 1.923 . S
O140 Zn142 1.950 . S
O140 Zn143 1.945 . S
Zn141 O140 1.923 . S
Zn141 O144 1.933 . S
Zn141 O147 1.941 . S
Zn141 O148 1.965 . S
Zn142 O140 1.950 . S
Zn142 O149 1.938 . S
Zn142 O150 1.906 . S
Zn142 O160 1.953 . S
Zn143 O140 1.945 . S
Zn143 O145 1.932 . S
Zn143 O152 1.977 . S
Zn143 O153 1.910 . S
O144 Zn141 1.933 . S
O144 C155 1.226 . S
O145 Zn143 1.932 . S
O145 C155 1.307 . S
O146 Zn139 1.919 . S
O146 C157 1.253 . S
O147 Zn141 1.941 . S
O147 C157 1.283 . S
O148 Zn141 1.965 . S
O148 C156 1.303 . S
O149 Zn142 1.938 . S
O149 C156 1.247 . S
O150 Zn142 1.906 . S
O150 C158 1.304 . S
O151 Zn139 1.924 . S
O151 C159 1.311 . S
O152 Zn143 1.977 . S
O152 C158 1.272 . S
O153 Zn143 1.910 . S
O153 C159 1.231 . S
C154 O138 1.225 . S
C154 O160 1.298 . S
C155 O144 1.226 . S
C155 O145 1.307 . S
C156 O148 1.303 . S
C156 O149 1.247 . S
C157 O146 1.253 . S
C157 O147 1.283 . S
C158 O150 1.304 . S
C158 O152 1.272 . S
C159 O151 1.311 . S
C159 O153 1.231 . S
O160 Zn142 1.953 . S
O160 C154 1.298 . S
O161 Zn162 1.953 . S
O161 C177 1.225 . S
Zn162 O161 1.953 . S
Zn162 O163 1.949 . S
Zn162 O169 1.919 . S
Zn162 O174 1.924 . S
O163 Zn162 1.949 . S
O163 Zn164 1.923 . S
O163 Zn165 1.950 . S
O163 Zn166 1.945 . S
Zn164 O163 1.923 . S
Zn164 O167 1.933 . S
Zn164 O170 1.941 . S
Zn164 O171 1.965 . S
Zn165 O163 1.950 . S
Zn165 O172 1.938 . S
Zn165 O173 1.906 . S
Zn165 O183 1.953 . S
Zn166 O163 1.945 . S
Zn166 O168 1.932 . S
Zn166 O175 1.977 . S
Zn166 O176 1.910 . S
O167 Zn164 1.933 . S
O167 C178 1.226 . S
O168 Zn166 1.932 . S
O168 C178 1.307 . S
O169 Zn162 1.919 . S
O169 C180 1.253 . S
O170 Zn164 1.941 . S
O170 C180 1.283 . S
O171 Zn164 1.965 . S
O171 C179 1.303 . S
O172 Zn165 1.938 . S
O172 C179 1.247 . S
O173 Zn165 1.906 . S
O173 C181 1.304 . S
O174 Zn162 1.924 . S
O174 C182 1.311 . S
O175 Zn166 1.977 . S
O175 C181 1.272 . S
O176 Zn166 1.910 . S
O176 C182 1.231 . S
C177 O161 1.225 . S
C177 O183 1.298 . S
C178 O167 1.226 . S
C178 O168 1.307 . S
C179 O171 1.303 . S
C179 O172 1.247 . S
C180 O169 1.253 . S
C180 O170 1.283 . S
C181 O173 1.304 . S
C181 O175 1.272 . S
C182 O174 1.311 . S
C182 O176 1.231 . S
O183 Zn165 1.953 . S
O183 C177 1.298 . S
C184 O196 1.241 . S
C184 O197 1.280 . S
C185 O198 1.277 . S
C185 O199 1.245 . S
C186 O210 1.247 . S
C186 O212 1.289 . S
Mg187 O188 1.926 . S
Mg187 O197 1.984 . S
Mg187 O199 1.988 . S
Mg187 O200 2.061 1_655 S
O188 Mg187 1.926 . S
O188 Mg189 1.986 . S
O188 Mg190 1.917 1_655 S
Mg189 O188 1.986 . S
Mg189 O196 2.042 . S
Mg189 O198 2.041 . S
Mg189 O204 2.038 1_545 S
Mg189 O212 2.238 1_545 S
Mg190 O188 1.917 1_455 S
Mg190 O191 1.917 1_545 S
Mg190 O201 2.106 . S
Mg190 O203 2.079 1_445 S
Mg190 O212 2.106 1_445 S
Mg190 O213 2.079 . S
O191 Mg190 1.917 1_565 S
O191 Mg192 1.926 . S
O191 Mg193 1.986 1_565 S
Mg192 O191 1.926 . S
Mg192 O206 1.984 . S
Mg192 O209 1.988 . S
Mg192 O210 2.061 1_455 S
Mg193 O191 1.986 1_545 S
Mg193 O201 2.238 . S
Mg193 O205 2.042 1_545 S
Mg193 O207 2.041 1_545 S
Mg193 O214 2.038 . S
C194 O200 1.247 . S
C194 O201 1.289 . S
C195 O213 1.245 . S
C195 O214 1.274 . S
O196 C184 1.241 . S
O196 Mg189 2.042 . S
O197 C184 1.280 . S
O197 Mg187 1.984 . S
O198 C185 1.277 . S
O198 Mg189 2.041 . S
O199 C185 1.245 . S
O199 Mg187 1.988 . S
O200 Mg187 2.061 1_455 S
O200 C194 1.247 . S
O201 Mg190 2.106 . S
O201 Mg193 2.238 . S
O201 C194 1.289 . S
C202 O203 1.245 . S
C202 O204 1.274 . S
O203 Mg190 2.079 1_665 S
O203 C202 1.245 . S
O204 Mg189 2.038 1_565 S
O204 C202 1.274 . S
O205 Mg193 2.042 1_565 S
O205 C208 1.241 . S
O206 Mg192 1.984 . S
O206 C208 1.280 . S
O207 Mg193 2.041 1_565 S
O207 C211 1.277 . S
C208 O205 1.241 . S
C208 O206 1.280 . S
O209 Mg192 1.988 . S
O209 C211 1.245 . S
O210 C186 1.247 . S
O210 Mg192 2.061 1_655 S
C211 O207 1.277 . S
C211 O209 1.245 . S
O212 C186 1.289 . S
O212 Mg189 2.238 1_565 S
O212 Mg190 2.106 1_665 S
O213 Mg190 2.079 . S
O213 C195 1.245 . S
O214 Mg193 2.038 . S
O214 C195 1.274 . S
C215 O227 1.241 . S
C215 O228 1.280 . S
C216 O229 1.277 . S
C216 O230 1.245 . S
C217 O241 1.247 . S
C217 O243 1.289 . S
Mg218 O219 1.926 . S
Mg218 O228 1.984 . S
Mg218 O230 1.988 1_554 S
Mg218 O231 2.061 . S
O219 Mg218 1.926 . S
O219 Mg220 1.986 . S
O219 Mg221 1.917 . S
Mg220 O219 1.986 . S
Mg220 O227 2.042 . S
Mg220 O229 2.041 1_554 S
Mg220 O235 2.038 1_545 S
Mg220 O243 2.238 1_544 S
Mg221 O219 1.917 . S
Mg221 O222 1.917 1_545 S
Mg221 O232 2.106 . S
Mg221 O234 2.079 1_545 S
Mg221 O243 2.106 1_544 S
Mg221 O244 2.079 1_554 S
O222 Mg221 1.917 1_565 S
O222 Mg223 1.926 . S
O222 Mg224 1.986 . S
Mg223 O222 1.926 . S
Mg223 O237 1.984 1_554 S
Mg223 O240 1.988 . S
Mg223 O241 2.061 1_554 S
Mg224 O222 1.986 . S
Mg224 O232 2.238 1_565 S
Mg224 O236 2.042 1_554 S
Mg224 O238 2.041 . S
Mg224 O245 2.038 1_564 S
C225 O231 1.247 . S
C225 O232 1.289 . S
C226 O244 1.245 . S
C226 O245 1.274 . S
O227 C215 1.241 . S
O227 Mg220 2.042 . S
O228 C215 1.280 . S
O228 Mg218 1.984 . S
O229 C216 1.277 . S
O229 Mg220 2.041 1_556 S
O230 C216 1.245 . S
O230 Mg218 1.988 1_556 S
O231 Mg218 2.061 . S
O231 C225 1.247 . S
O232 Mg221 2.106 . S
O232 Mg224 2.238 1_545 S
O232 C225 1.289 . S
C233 O234 1.245 . S
C233 O235 1.274 . S
O234 Mg221 2.079 1_565 S
O234 C233 1.245 . S
O235 Mg220 2.038 1_565 S
O235 C233 1.274 . S
O236 Mg224 2.042 1_556 S
O236 C239 1.241 . S
O237 Mg223 1.984 1_556 S
O237 C239 1.280 . S
O238 Mg224 2.041 . S
O238 C242 1.277 . S
C239 O236 1.241 . S
C239 O237 1.280 . S
O240 Mg223 1.988 . S
O240 C242 1.245 . S
O241 C217 1.247 . S
O241 Mg223 2.061 1_556 S
C242 O238 1.277 . S
C242 O240 1.245 . S
O243 C217 1.289 . S
O243 Mg220 2.238 1_566 S
O243 Mg221 2.106 1_566 S
O244 Mg221 2.079 1_556 S
O244 C226 1.245 . S
O245 Mg224 2.038 1_546 S
O245 C226 1.274 . S
C246 O258 1.241 . S
C246 O259 1.280 . S
C247 O260 1.277 . S
C247 O261 1.245 . S
C248 O272 1.247 . S
C248 O274 1.289 . S
Mg249 O250 1.926 . S
Mg249 O259 1.984 . S
Mg249 O261 1.988 1_554 S
Mg249 O262 2.061 1_655 S
O250 Mg249 1.926 . S
O250 Mg251 1.986 . S
O250 Mg252 1.917 1_655 S
Mg251 O250 1.986 . S
Mg251 O258 2.042 . S
Mg251 O260 2.041 1_554 S
Mg251 O266 2.038 . S
Mg251 O274 2.238 1_554 S
Mg252 O250 1.917 1_455 S
Mg252 O253 1.917 1_554 S
Mg252 O263 2.106 . S
Mg252 O265 2.079 1_455 S
Mg252 O274 2.106 1_454 S
Mg252 O275 2.079 1_554 S
O253 Mg252 1.917 1_556 S
O253 Mg254 1.926 . S
O253 Mg255 1.986 1_556 S
Mg254 O253 1.926 . S
Mg254 O268 1.984 . S
Mg254 O271 1.988 1_556 S
Mg254 O272 2.061 1_455 S
Mg255 O253 1.986 1_554 S
Mg255 O263 2.238 . S
Mg255 O267 2.042 1_554 S
Mg255 O269 2.041 . S
Mg255 O276 2.038 1_554 S
C256 O262 1.247 . S
C256 O263 1.289 . S
C257 O275 1.245 . S
C257 O276 1.274 . S
O258 C246 1.241 . S
O258 Mg251 2.042 . S
O259 C246 1.280 . S
O259 Mg249 1.984 . S
O260 C247 1.277 . S
O260 Mg251 2.041 1_556 S
O261 C247 1.245 . S
O261 Mg249 1.988 1_556 S
O262 Mg249 2.061 1_455 S
O262 C256 1.247 . S
O263 Mg252 2.106 . S
O263 Mg255 2.238 . S
O263 C256 1.289 . S
C264 O265 1.245 . S
C264 O266 1.274 . S
O265 Mg252 2.079 1_655 S
O265 C264 1.245 . S
O266 Mg251 2.038 . S
O266 C264 1.274 . S
O267 Mg255 2.042 1_556 S
O267 C270 1.241 . S
O268 Mg254 1.984 . S
O268 C270 1.280 . S
O269 Mg255 2.041 . S
O269 C273 1.277 . S
C270 O267 1.241 . S
C270 O268 1.280 . S
O271 Mg254 1.988 1_554 S
O271 C273 1.245 . S
O272 C248 1.247 . S
O272 Mg254 2.061 1_655 S
C273 O269 1.277 . S
C273 O271 1.245 . S
O274 C248 1.289 . S
O274 Mg251 2.238 1_556 S
O274 Mg252 2.106 1_656 S
O275 Mg252 2.079 1_556 S
O275 C257 1.245 . S
O276 Mg255 2.038 1_556 S
O276 C257 1.274 . S
C277 O289 1.241 . S
C277 O290 1.280 . S
C278 O291 1.277 . S
C278 O292 1.245 . S
C279 O303 1.247 . S
C279 O305 1.289 . S
Mg280 O281 1.926 . S
Mg280 O290 1.984 . S
Mg280 O292 1.988 1_554 S
Mg280 O293 2.061 . S
O281 Mg280 1.926 . S
O281 Mg282 1.986 . S
O281 Mg283 1.917 . S
Mg282 O281 1.986 . S
Mg282 O289 2.042 . S
Mg282 O291 2.041 1_554 S
Mg282 O297 2.038 . S
Mg282 O305 2.238 1_554 S
Mg283 O281 1.917 . S
Mg283 O284 1.917 . S
Mg283 O294 2.106 . S
Mg283 O296 2.079 . S
Mg283 O305 2.106 1_554 S
Mg283 O306 2.079 1_554 S
O284 Mg283 1.917 . S
O284 Mg285 1.926 1_554 S
O284 Mg286 1.986 . S
Mg285 O284 1.926 1_556 S
Mg285 O299 1.989 . S
Mg285 O302 1.981 1_556 S
Mg285 O303 2.065 . S
Mg286 O284 1.986 . S
Mg286 O294 2.238 . S
Mg286 O298 2.042 1_554 S
Mg286 O300 2.041 . S
Mg286 O307 2.038 1_554 S
C287 O293 1.247 . S
C287 O294 1.289 . S
C288 O306 1.245 . S
C288 O307 1.274 . S
O289 C277 1.241 . S
O289 Mg282 2.042 . S
O290 C277 1.280 . S
O290 Mg280 1.984 . S
O291 C278 1.277 . S
O291 Mg282 2.041 1_556 S
O292 C278 1.245 . S
O292 Mg280 1.988 1_556 S
O293 Mg280 2.061 . S
O293 C287 1.247 . S
O294 Mg283 2.106 . S
O294 Mg286 2.238 . S
O294 C287 1.289 . S
C295 O296 1.245 . S
C295 O297 1.274 . S
O296 Mg283 2.079 . S
O296 C295 1.245 . S
O297 Mg282 2.038 . S
O297 C295 1.274 . S
O298 Mg286 2.042 1_556 S
O298 C301 1.241 . S
O299 Mg285 1.989 . S
O299 C301 1.280 . S
O300 Mg286 2.041 . S
O300 C304 1.277 . S
C301 O298 1.241 . S
C301 O299 1.280 . S
O302 Mg285 1.981 1_554 S
O302 C304 1.245 . S
O303 C279 1.247 . S
O303 Mg285 2.065 . S
C304 O300 1.277 . S
C304 O302 1.245 . S
O305 C279 1.289 . S
O305 Mg282 2.238 1_556 S
O305 Mg283 2.106 1_556 S
O306 Mg283 2.079 1_556 S
O306 C288 1.245 . S
O307 Mg286 2.038 1_556 S
O307 C288 1.274 . S
C308 O320 1.241 . S
C308 O321 1.280 . S
C309 O322 1.277 . S
C309 O323 1.245 . S
C310 O334 1.247 . S
C310 O336 1.289 . S
Mg311 O312 1.926 . S
Mg311 O321 1.984 . S
Mg311 O323 1.988 . S
Mg311 O324 2.061 1_655 S
O312 Mg311 1.926 . S
O312 Mg313 1.986 . S
O312 Mg314 1.917 1_655 S
Mg313 O312 1.986 . S
Mg313 O320 2.042 . S
Mg313 O322 2.041 . S
Mg313 O328 2.038 . S
Mg313 O336 2.238 . S
Mg314 O312 1.917 1_455 S
Mg314 O315 1.917 . S
Mg314 O325 2.106 . S
Mg314 O327 2.079 1_455 S
Mg314 O336 2.106 1_455 S
Mg314 O337 2.079 . S
O315 Mg314 1.917 . S
O315 Mg316 1.926 . S
O315 Mg317 1.986 . S
Mg316 O315 1.926 . S
Mg316 O330 1.984 . S
Mg316 O333 1.988 . S
Mg316 O334 2.061 1_455 S
Mg317 O315 1.986 . S
Mg317 O325 2.238 . S
Mg317 O329 2.042 . S
Mg317 O331 2.041 . S
Mg317 O338 2.038 . S
C318 O324 1.247 . S
C318 O325 1.289 . S
C319 O337 1.245 . S
C319 O338 1.274 . S
O320 C308 1.241 . S
O320 Mg313 2.042 . S
O321 C308 1.280 . S
O321 Mg311 1.984 . S
O322 C309 1.277 . S
O322 Mg313 2.041 . S
O323 C309 1.245 . S
O323 Mg311 1.988 . S
O324 Mg311 2.061 1_455 S
O324 C318 1.247 . S
O325 Mg314 2.106 . S
O325 Mg317 2.238 . S
O325 C318 1.289 . S
C326 O327 1.245 . S
C326 O328 1.274 . S
O327 Mg314 2.079 1_655 S
O327 C326 1.245 . S
O328 Mg313 2.038 . S
O328 C326 1.274 . S
O329 Mg317 2.042 . S
O329 C332 1.241 . S
O330 Mg316 1.984 . S
O330 C332 1.280 . S
O331 Mg317 2.041 . S
O331 C335 1.277 . S
C332 O329 1.241 . S
C332 O330 1.280 . S
O333 Mg316 1.988 . S
O333 C335 1.245 . S
O334 C310 1.247 . S
O334 Mg316 2.061 1_655 S
C335 O331 1.277 . S
C335 O333 1.245 . S
O336 C310 1.289 . S
O336 Mg313 2.238 . S
O336 Mg314 2.106 1_655 S
O337 Mg314 2.079 . S
O337 C319 1.245 . S
O338 Mg317 2.038 . S
O338 C319 1.274 . S
C339 O351 1.241 . S
C339 O352 1.280 . S
C340 O353 1.277 . S
C340 O354 1.245 . S
C341 O365 1.247 . S
C341 O367 1.289 . S
Mg342 O343 1.926 . S
Mg342 O352 1.984 . S
Mg342 O354 1.988 . S
Mg342 O355 2.061 . S
O343 Mg342 1.926 . S
O343 Mg344 1.986 . S
O343 Mg345 1.917 . S
Mg344 O343 1.986 . S
Mg344 O351 2.042 . S
Mg344 O353 2.041 . S
Mg344 O359 2.038 1_545 S
Mg344 O367 2.238 1_545 S
Mg345 O343 1.917 . S
Mg345 O346 1.917 1_545 S
Mg345 O356 2.106 . S
Mg345 O358 2.079 1_545 S
Mg345 O367 2.106 1_545 S
Mg345 O368 2.079 . S
O346 Mg345 1.917 1_565 S
O346 Mg347 1.926 . S
O346 Mg348 1.986 1_565 S
Mg347 O346 1.926 . S
Mg347 O361 1.984 . S
Mg347 O364 1.988 . S
Mg347 O365 2.061 . S
Mg348 O346 1.986 1_545 S
Mg348 O356 2.238 . S
Mg348 O360 2.042 1_545 S
Mg348 O362 2.041 1_545 S
Mg348 O369 2.038 . S
C349 O355 1.247 . S
C349 O356 1.289 . S
C350 O368 1.245 . S
C350 O369 1.274 . S
O351 C339 1.241 . S
O351 Mg344 2.042 . S
O352 C339 1.280 . S
O352 Mg342 1.984 . S
O353 C340 1.277 . S
O353 Mg344 2.041 . S
O354 C340 1.245 . S
O354 Mg342 1.988 . S
O355 Mg342 2.061 . S
O355 C349 1.247 . S
O356 Mg345 2.106 . S
O356 Mg348 2.238 . S
O356 C349 1.289 . S
C357 O358 1.245 . S
C357 O359 1.274 . S
O358 Mg345 2.079 1_565 S
O358 C357 1.245 . S
O359 Mg344 2.038 1_565 S
O359 C357 1.274 . S
O360 Mg348 2.042 1_565 S
O360 C363 1.241 . S
O361 Mg347 1.984 . S
O361 C363 1.280 . S
O362 Mg348 2.041 1_565 S
O362 C366 1.277 . S
C363 O360 1.241 . S
C363 O361 1.280 . S
O364 Mg347 1.988 . S
O364 C366 1.245 . S
O365 C341 1.247 . S
O365 Mg347 2.061 . S
C366 O362 1.277 . S
C366 O364 1.245 . S
O367 C341 1.289 . S
O367 Mg344 2.238 1_565 S
O367 Mg345 2.106 1_565 S
O368 Mg345 2.079 . S
O368 C350 1.245 . S
O369 Mg348 2.038 . S
O369 C350 1.274 . S
H370 C378 0.929 . S
H371 C380 0.930 . S
H372 C382 0.930 . S
H373 C385 0.929 . S
H374 C388 0.930 . S
H375 C390 0.960 . S
H376 C390 0.960 . S
H377 C390 0.960 . S
C378 H370 0.929 . S
C378 C379 1.377 . S
C378 C380 1.384 . S
C379 C378 1.377 . S
C379 C385 1.390 . S
C380 H371 0.930 . S
C380 C378 1.384 . S
C380 C381 1.372 . S
C381 C380 1.372 . S
C381 C382 1.400 . S
C381 C386 1.490 . S
C382 H372 0.930 . S
C382 C381 1.400 . S
C382 C385 1.386 . S
H383 C399 0.930 . S
H384 C400 0.931 . S
C385 H373 0.929 . S
C385 C379 1.390 . S
C385 C382 1.386 . S
C386 C381 1.490 . S
C386 C388 1.395 . S
C386 C389 1.403 . S
H387 C393 0.930 . S
C388 H374 0.930 . S
C388 C386 1.395 . S
C388 C391 1.403 . S
C389 C386 1.403 . S
C389 C390 1.524 . S
C389 C393 1.400 . S
C390 H375 0.960 . S
C390 H376 0.960 . S
C390 H377 0.960 . S
C390 C389 1.524 . S
C391 C388 1.403 . S
C391 C392 1.392 . S
C391 C395 1.495 . S
C392 C391 1.392 . S
C392 C393 1.385 . S
C392 C394 1.478 . S
C393 H387 0.930 . S
C393 C389 1.400 . S
C393 C392 1.385 . S
C394 C392 1.478 . S
C394 C396 1.381 . S
C394 C400 1.383 . S
C395 C391 1.495 . S
C395 H401 0.959 . S
C395 H402 0.961 . S
C395 H403 0.960 . S
C396 C394 1.381 . S
C396 C397 1.394 . S
C396 H404 0.930 . S
C397 C396 1.394 . S
C397 C398 1.383 . S
C397 H405 0.929 . S
C398 C397 1.383 . S
C398 C399 1.377 . S
C399 H383 0.930 . S
C399 C398 1.377 . S
C399 C400 1.379 . S
C400 H384 0.931 . S
C400 C394 1.383 . S
C400 C399 1.379 . S
H401 C395 0.959 . S
H402 C395 0.961 . S
H403 C395 0.960 . S
H404 C396 0.930 . S
H405 C397 0.929 . S
H406 C414 0.929 . S
H407 C416 0.930 . S
H408 C418 0.930 . S
H409 C421 0.929 . S
H410 C424 0.930 . S
H411 C426 0.960 . S
H412 C426 0.960 . S
H413 C426 0.960 . S
C414 H406 0.929 . S
C414 C415 1.377 . S
C414 C416 1.384 . S
C415 C414 1.377 . S
C415 C421 1.390 . S
C416 H407 0.930 . S
C416 C414 1.384 . S
C416 C417 1.372 . S
C417 C416 1.372 . S
C417 C418 1.400 . S
C417 C422 1.490 . S
C418 H408 0.930 . S
C418 C417 1.400 . S
C418 C421 1.386 . S
H419 C435 0.930 . S
H420 C436 0.931 . S
C421 H409 0.929 . S
C421 C415 1.390 . S
C421 C418 1.386 . S
C422 C417 1.490 . S
C422 C424 1.395 . S
C422 C425 1.403 . S
H423 C429 0.930 . S
C424 H410 0.930 . S
C424 C422 1.395 . S
C424 C427 1.403 . S
C425 C422 1.403 . S
C425 C426 1.524 . S
C425 C429 1.400 . S
C426 H411 0.960 . S
C426 H412 0.960 . S
C426 H413 0.960 . S
C426 C425 1.524 . S
C427 C424 1.403 . S
C427 C428 1.392 . S
C427 C431 1.495 . S
C428 C427 1.392 . S
C428 C429 1.385 . S
C428 C430 1.478 . S
C429 H423 0.930 . S
C429 C425 1.400 . S
C429 C428 1.385 . S
C430 C428 1.478 . S
C430 C432 1.381 . S
C430 C436 1.383 . S
C431 C427 1.495 . S
C431 H437 0.959 . S
C431 H438 0.961 . S
C431 H439 0.960 . S
C432 C430 1.381 . S
C432 C433 1.394 . S
C432 H440 0.930 . S
C433 C432 1.394 . S
C433 C434 1.383 . S
C433 H441 0.929 . S
C434 C433 1.383 . S
C434 C435 1.377 . S
C435 H419 0.930 . S
C435 C434 1.377 . S
C435 C436 1.379 . S
C436 H420 0.931 . S
C436 C430 1.383 . S
C436 C435 1.379 . S
H437 C431 0.959 . S
H438 C431 0.961 . S
H439 C431 0.960 . S
H440 C432 0.930 . S
H441 C433 0.929 . S
H442 C450 0.929 . S
H443 C452 0.930 . S
H444 C454 0.930 . S
H445 C457 0.929 . S
H446 C460 0.930 . S
H447 C462 0.960 . S
H448 C462 0.960 . S
H449 C462 0.960 . S
C450 H442 0.929 . S
C450 C451 1.377 . S
C450 C452 1.384 . S
C451 C450 1.377 . S
C451 C457 1.390 . S
C452 H443 0.930 . S
C452 C450 1.384 . S
C452 C453 1.372 . S
C453 C452 1.372 . S
C453 C454 1.400 . S
C453 C458 1.490 . S
C454 H444 0.930 . S
C454 C453 1.400 . S
C454 C457 1.386 . S
H455 C471 0.930 . S
H456 C472 0.931 . S
C457 H445 0.929 . S
C457 C451 1.390 . S
C457 C454 1.386 . S
C458 C453 1.490 . S
C458 C460 1.395 . S
C458 C461 1.403 . S
H459 C465 0.930 . S
C460 H446 0.930 . S
C460 C458 1.395 . S
C460 C463 1.403 . S
C461 C458 1.403 . S
C461 C462 1.524 . S
C461 C465 1.400 . S
C462 H447 0.960 . S
C462 H448 0.960 . S
C462 H449 0.960 . S
C462 C461 1.524 . S
C463 C460 1.403 . S
C463 C464 1.392 . S
C463 C467 1.495 . S
C464 C463 1.392 . S
C464 C465 1.385 . S
C464 C466 1.478 . S
C465 H459 0.930 . S
C465 C461 1.400 . S
C465 C464 1.385 . S
C466 C464 1.478 . S
C466 C468 1.381 . S
C466 C472 1.383 . S
C467 C463 1.495 . S
C467 H473 0.959 . S
C467 H474 0.961 . S
C467 H475 0.960 . S
C468 C466 1.381 . S
C468 C469 1.394 . S
C468 H476 0.930 . S
C469 C468 1.394 . S
C469 C470 1.383 . S
C469 H477 0.929 . S
C470 C469 1.383 . S
C470 C471 1.377 . S
C471 H455 0.930 . S
C471 C470 1.377 . S
C471 C472 1.379 . S
C472 H456 0.931 . S
C472 C466 1.383 . S
C472 C471 1.379 . S
H473 C467 0.959 . S
H474 C467 0.961 . S
H475 C467 0.960 . S
H476 C468 0.930 . S
H477 C469 0.929 . S
H478 C486 0.929 . S
H479 C488 0.930 . S
H480 C490 0.930 . S
H481 C493 0.929 . S
H482 C496 0.930 . S
H483 C498 0.960 . S
H484 C498 0.960 . S
H485 C498 0.960 . S
C486 H478 0.929 . S
C486 C487 1.377 . S
C486 C488 1.384 . S
C487 C486 1.377 . S
C487 C493 1.390 . S
C488 H479 0.930 . S
C488 C486 1.384 . S
C488 C489 1.372 . S
C489 C488 1.372 . S
C489 C490 1.400 . S
C489 C494 1.490 . S
C490 H480 0.930 . S
C490 C489 1.400 . S
C490 C493 1.386 . S
H491 C507 0.930 . S
H492 C508 0.931 . S
C493 H481 0.929 . S
C493 C487 1.390 . S
C493 C490 1.386 . S
C494 C489 1.490 . S
C494 C496 1.395 . S
C494 C497 1.403 . S
H495 C501 0.930 . S
C496 H482 0.930 . S
C496 C494 1.395 . S
C496 C499 1.403 . S
C497 C494 1.403 . S
C497 C498 1.524 . S
C497 C501 1.400 . S
C498 H483 0.960 . S
C498 H484 0.960 . S
C498 H485 0.960 . S
C498 C497 1.524 . S
C499 C496 1.403 . S
C499 C500 1.392 . S
C499 C503 1.495 . S
C500 C499 1.392 . S
C500 C501 1.385 . S
C500 C502 1.478 . S
C501 H495 0.930 . S
C501 C497 1.400 . S
C501 C500 1.385 . S
C502 C500 1.478 . S
C502 C504 1.381 . S
C502 C508 1.383 . S
C503 C499 1.495 . S
C503 H509 0.959 . S
C503 H510 0.961 . S
C503 H511 0.960 . S
C504 C502 1.381 . S
C504 C505 1.394 . S
C504 H512 0.930 . S
C505 C504 1.394 . S
C505 C506 1.383 . S
C505 H513 0.929 . S
C506 C505 1.383 . S
C506 C507 1.377 . S
C507 H491 0.930 . S
C507 C506 1.377 . S
C507 C508 1.379 . S
C508 H492 0.931 . S
C508 C502 1.383 . S
C508 C507 1.379 . S
H509 C503 0.959 . S
H510 C503 0.961 . S
H511 C503 0.960 . S
H512 C504 0.930 . S
H513 C505 0.929 . S
H514 C522 0.929 . S
H515 C524 0.930 . S
H516 C526 0.930 . S
H517 C529 0.929 . S
H518 C532 0.930 . S
H519 C534 0.960 . S
H520 C534 0.960 . S
H521 C534 0.960 . S
C522 H514 0.929 . S
C522 C523 1.377 . S
C522 C524 1.384 . S
C523 C522 1.377 . S
C523 C529 1.390 . S
C524 H515 0.930 . S
C524 C522 1.384 . S
C524 C525 1.372 . S
C525 C524 1.372 . S
C525 C526 1.400 . S
C525 C530 1.490 . S
C526 H516 0.930 . S
C526 C525 1.400 . S
C526 C529 1.386 . S
H527 C543 0.930 . S
H528 C544 0.931 . S
C529 H517 0.929 . S
C529 C523 1.390 . S
C529 C526 1.386 . S
C530 C525 1.490 . S
C530 C532 1.395 . S
C530 C533 1.403 . S
H531 C537 0.930 . S
C532 H518 0.930 . S
C532 C530 1.395 . S
C532 C535 1.403 . S
C533 C530 1.403 . S
C533 C534 1.524 . S
C533 C537 1.400 . S
C534 H519 0.960 . S
C534 H520 0.960 . S
C534 H521 0.960 . S
C534 C533 1.524 . S
C535 C532 1.403 . S
C535 C536 1.392 . S
C535 C539 1.495 . S
C536 C535 1.392 . S
C536 C537 1.385 . S
C536 C538 1.478 . S
C537 H531 0.930 . S
C537 C533 1.400 . S
C537 C536 1.385 . S
C538 C536 1.478 . S
C538 C540 1.381 . S
C538 C544 1.383 . S
C539 C535 1.495 . S
C539 H545 0.959 . S
C539 H546 0.961 . S
C539 H547 0.960 . S
C540 C538 1.381 . S
C540 C541 1.394 . S
C540 H548 0.930 . S
C541 C540 1.394 . S
C541 C542 1.383 . S
C541 H549 0.929 . S
C542 C541 1.383 . S
C542 C543 1.377 . S
C543 H527 0.930 . S
C543 C542 1.377 . S
C543 C544 1.379 . S
C544 H528 0.931 . S
C544 C538 1.383 . S
C544 C543 1.379 . S
H545 C539 0.959 . S
H546 C539 0.961 . S
H547 C539 0.960 . S
H548 C540 0.930 . S
H549 C541 0.929 . S
H550 C558 0.929 . S
H551 C560 0.930 . S
H552 C562 0.930 . S
H553 C565 0.929 . S
H554 C568 0.930 . S
H555 C570 0.960 . S
H556 C570 0.960 . S
H557 C570 0.960 . S
C558 H550 0.929 . S
C558 C559 1.377 . S
C558 C560 1.384 . S
C559 C558 1.377 . S
C559 C565 1.390 . S
C560 H551 0.930 . S
C560 C558 1.384 . S
C560 C561 1.372 . S
C561 C560 1.372 . S
C561 C562 1.400 . S
C561 C566 1.490 . S
C562 H552 0.930 . S
C562 C561 1.400 . S
C562 C565 1.386 . S
H563 C579 0.930 . S
H564 C580 0.931 . S
C565 H553 0.929 . S
C565 C559 1.390 . S
C565 C562 1.386 . S
C566 C561 1.490 . S
C566 C568 1.395 . S
C566 C569 1.403 . S
H567 C573 0.930 . S
C568 H554 0.930 . S
C568 C566 1.395 . S
C568 C571 1.403 . S
C569 C566 1.403 . S
C569 C570 1.524 . S
C569 C573 1.400 . S
C570 H555 0.960 . S
C570 H556 0.960 . S
C570 H557 0.960 . S
C570 C569 1.524 . S
C571 C568 1.403 . S
C571 C572 1.392 . S
C571 C575 1.495 . S
C572 C571 1.392 . S
C572 C573 1.385 . S
C572 C574 1.478 . S
C573 H567 0.930 . S
C573 C569 1.400 . S
C573 C572 1.385 . S
C574 C572 1.478 . S
C574 C576 1.381 . S
C574 C580 1.383 . S
C575 C571 1.495 . S
C575 H581 0.959 . S
C575 H582 0.961 . S
C575 H583 0.960 . S
C576 C574 1.381 . S
C576 C577 1.394 . S
C576 H584 0.930 . S
C577 C576 1.394 . S
C577 C578 1.383 . S
C577 H585 0.929 . S
C578 C577 1.383 . S
C578 C579 1.377 . S
C579 H563 0.930 . S
C579 C578 1.377 . S
C579 C580 1.379 . S
C580 H564 0.931 . S
C580 C574 1.383 . S
C580 C579 1.379 . S
H581 C575 0.959 . S
H582 C575 0.961 . S
H583 C575 0.960 . S
H584 C576 0.930 . S
H585 C577 0.929 . S
H586 C594 0.929 . S
H587 C596 0.930 . S
H588 C598 0.930 . S
H589 C601 0.929 . S
H590 C604 0.930 . S
H591 C606 0.960 . S
H592 C606 0.960 . S
H593 C606 0.960 . S
C594 H586 0.929 . S
C594 C595 1.377 . S
C594 C596 1.384 . S
C595 C594 1.377 . S
C595 C601 1.390 . S
C596 H587 0.930 . S
C596 C594 1.384 . S
C596 C597 1.372 . S
C597 C596 1.372 . S
C597 C598 1.400 . S
C597 C602 1.490 . S
C598 H588 0.930 . S
C598 C597 1.400 . S
C598 C601 1.386 . S
H599 C615 0.930 . S
H600 C616 0.931 . S
C601 H589 0.929 . S
C601 C595 1.390 . S
C601 C598 1.386 . S
C602 C597 1.490 . S
C602 C604 1.395 . S
C602 C605 1.403 . S
H603 C609 0.930 . S
C604 H590 0.930 . S
C604 C602 1.395 . S
C604 C607 1.403 . S
C605 C602 1.403 . S
C605 C606 1.524 . S
C605 C609 1.400 . S
C606 H591 0.960 . S
C606 H592 0.960 . S
C606 H593 0.960 . S
C606 C605 1.524 . S
C607 C604 1.403 . S
C607 C608 1.392 . S
C607 C611 1.495 . S
C608 C607 1.392 . S
C608 C609 1.385 . S
C608 C610 1.478 . S
C609 H603 0.930 . S
C609 C605 1.400 . S
C609 C608 1.385 . S
C610 C608 1.478 . S
C610 C612 1.381 . S
C610 C616 1.383 . S
C611 C607 1.495 . S
C611 H617 0.959 . S
C611 H618 0.961 . S
C611 H619 0.960 . S
C612 C610 1.381 . S
C612 C613 1.394 . S
C612 H620 0.930 . S
C613 C612 1.394 . S
C613 C614 1.383 . S
C613 H621 0.929 . S
C614 C613 1.383 . S
C614 C615 1.377 . S
C615 H599 0.930 . S
C615 C614 1.377 . S
C615 C616 1.379 . S
C616 H600 0.931 . S
C616 C610 1.383 . S
C616 C615 1.379 . S
H617 C611 0.959 . S
H618 C611 0.961 . S
H619 C611 0.960 . S
H620 C612 0.930 . S
H621 C613 0.929 . S
H622 C630 0.929 . S
H623 C632 0.930 . S
H624 C634 0.930 . S
H625 C637 0.929 . S
H626 C640 0.930 . S
H627 C642 0.960 . S
H628 C642 0.960 . S
H629 C642 0.960 . S
C630 H622 0.929 . S
C630 C631 1.377 . S
C630 C632 1.384 . S
C631 C630 1.377 . S
C631 C637 1.390 . S
C632 H623 0.930 . S
C632 C630 1.384 . S
C632 C633 1.372 . S
C633 C632 1.372 . S
C633 C634 1.400 . S
C633 C638 1.490 . S
C634 H624 0.930 . S
C634 C633 1.400 . S
C634 C637 1.386 . S
H635 C651 0.930 . S
H636 C652 0.931 . S
C637 H625 0.929 . S
C637 C631 1.390 . S
C637 C634 1.386 . S
C638 C633 1.490 . S
C638 C640 1.395 . S
C638 C641 1.403 . S
H639 C645 0.930 . S
C640 H626 0.930 . S
C640 C638 1.395 . S
C640 C643 1.403 . S
C641 C638 1.403 . S
C641 C642 1.524 . S
C641 C645 1.400 . S
C642 H627 0.960 . S
C642 H628 0.960 . S
C642 H629 0.960 . S
C642 C641 1.524 . S
C643 C640 1.403 . S
C643 C644 1.392 . S
C643 C647 1.495 . S
C644 C643 1.392 . S
C644 C645 1.385 . S
C644 C646 1.478 . S
C645 H639 0.930 . S
C645 C641 1.400 . S
C645 C644 1.385 . S
C646 C644 1.478 . S
C646 C648 1.381 . S
C646 C652 1.383 . S
C647 C643 1.495 . S
C647 H653 0.959 . S
C647 H654 0.961 . S
C647 H655 0.960 . S
C648 C646 1.381 . S
C648 C649 1.394 . S
C648 H656 0.930 . S
C649 C648 1.394 . S
C649 C650 1.383 . S
C649 H657 0.927 1_565 S
C650 C649 1.383 . S
C650 C651 1.377 . S
C651 H635 0.930 . S
C651 C650 1.377 . S
C651 C652 1.379 . S
C652 H636 0.931 . S
C652 C646 1.383 . S
C652 C651 1.379 . S
H653 C647 0.959 . S
H654 C647 0.961 . S
H655 C647 0.960 . S
H656 C648 0.930 . S
H657 C649 0.927 1_545 S
H658 C666 0.929 . S
H659 C668 0.930 . S
H660 C670 0.930 . S
H661 C673 0.929 . S
H662 C676 0.930 . S
H663 C678 0.960 . S
H664 C678 0.960 . S
H665 C678 0.960 . S
C666 H658 0.929 . S
C666 C667 1.377 . S
C666 C668 1.384 . S
C667 C666 1.377 . S
C667 C673 1.390 . S
C668 H659 0.930 . S
C668 C666 1.384 . S
C668 C669 1.372 . S
C669 C668 1.372 . S
C669 C670 1.400 . S
C669 C674 1.490 . S
C670 H660 0.930 . S
C670 C669 1.400 . S
C670 C673 1.386 . S
H671 C687 0.930 . S
H672 C688 0.931 . S
C673 H661 0.929 . S
C673 C667 1.390 . S
C673 C670 1.386 . S
C674 C669 1.490 . S
C674 C676 1.395 . S
C674 C677 1.403 . S
H675 C681 0.930 . S
C676 H662 0.930 . S
C676 C674 1.395 . S
C676 C679 1.403 . S
C677 C674 1.403 . S
C677 C678 1.524 . S
C677 C681 1.400 . S
C678 H663 0.960 . S
C678 H664 0.960 . S
C678 H665 0.960 . S
C678 C677 1.524 . S
C679 C676 1.403 . S
C679 C680 1.392 . S
C679 C683 1.495 . S
C680 C679 1.392 . S
C680 C681 1.385 . S
C680 C682 1.478 . S
C681 H675 0.930 . S
C681 C677 1.400 . S
C681 C680 1.385 . S
C682 C680 1.478 . S
C682 C684 1.381 . S
C682 C688 1.383 . S
C683 C679 1.495 . S
C683 H689 0.959 . S
C683 H690 0.961 . S
C683 H691 0.960 . S
C684 C682 1.381 . S
C684 C685 1.394 . S
C684 H692 0.930 . S
C685 C684 1.394 . S
C685 C686 1.383 . S
C685 H693 0.929 . S
C686 C685 1.383 . S
C686 C687 1.377 . S
C687 H671 0.930 . S
C687 C686 1.377 . S
C687 C688 1.379 . S
C688 H672 0.931 . S
C688 C682 1.383 . S
C688 C687 1.379 . S
H689 C683 0.959 . S
H690 C683 0.961 . S
H691 C683 0.960 . S
H692 C684 0.930 . S
H693 C685 0.929 . S
H694 C702 0.929 . S
H695 C704 0.930 . S
H696 C706 0.930 . S
H697 C709 0.929 . S
H698 C712 0.930 . S
H699 C714 0.960 . S
H700 C714 0.960 . S
H701 C714 0.960 . S
C702 H694 0.929 . S
C702 C703 1.377 . S
C702 C704 1.384 . S
C703 C702 1.377 . S
C703 C709 1.390 . S
C704 H695 0.930 . S
C704 C702 1.384 . S
C704 C705 1.372 . S
C705 C704 1.372 . S
C705 C706 1.400 . S
C705 C710 1.490 . S
C706 H696 0.930 . S
C706 C705 1.400 . S
C706 C709 1.386 . S
H707 C723 0.930 . S
H708 C724 0.931 . S
C709 H697 0.929 . S
C709 C703 1.390 . S
C709 C706 1.386 . S
C710 C705 1.490 . S
C710 C712 1.395 . S
C710 C713 1.403 . S
H711 C717 0.930 . S
C712 H698 0.930 . S
C712 C710 1.395 . S
C712 C715 1.403 . S
C713 C710 1.403 . S
C713 C714 1.524 . S
C713 C717 1.400 . S
C714 H699 0.960 . S
C714 H700 0.960 . S
C714 H701 0.960 . S
C714 C713 1.524 . S
C715 C712 1.403 . S
C715 C716 1.392 . S
C715 C719 1.495 . S
C716 C715 1.392 . S
C716 C717 1.385 . S
C716 C718 1.478 . S
C717 H711 0.930 . S
C717 C713 1.400 . S
C717 C716 1.385 . S
C718 C716 1.478 . S
C718 C720 1.381 . S
C718 C724 1.383 . S
C719 C715 1.495 . S
C719 H725 0.959 . S
C719 H726 0.961 . S
C719 H727 0.960 . S
C720 C718 1.381 . S
C720 C721 1.394 . S
C720 H728 0.930 . S
C721 C720 1.394 . S
C721 C722 1.383 . S
C721 H729 0.929 . S
C722 C721 1.383 . S
C722 C723 1.377 . S
C723 H707 0.930 . S
C723 C722 1.377 . S
C723 C724 1.379 . S
C724 H708 0.931 . S
C724 C718 1.383 . S
C724 C723 1.379 . S
H725 C719 0.959 . S
H726 C719 0.961 . S
H727 C719 0.960 . S
H728 C720 0.930 . S
H729 C721 0.929 . S
H730 C738 0.929 . S
H731 C740 0.930 . S
H732 C742 0.930 . S
H733 C745 0.929 . S
H734 C748 0.930 . S
H735 C750 0.960 . S
H736 C750 0.960 . S
H737 C750 0.960 . S
C738 H730 0.929 . S
C738 C739 1.377 . S
C738 C740 1.384 . S
C739 C738 1.377 . S
C739 C745 1.390 . S
C740 H731 0.930 . S
C740 C738 1.384 . S
C740 C741 1.372 . S
C741 C740 1.372 . S
C741 C742 1.400 . S
C741 C746 1.490 . S
C742 H732 0.930 . S
C742 C741 1.400 . S
C742 C745 1.386 . S
H743 C759 0.930 . S
H744 C760 0.931 . S
C745 H733 0.929 . S
C745 C739 1.390 . S
C745 C742 1.386 . S
C746 C741 1.490 . S
C746 C748 1.395 . S
C746 C749 1.403 . S
H747 C753 0.930 . S
C748 H734 0.930 . S
C748 C746 1.395 . S
C748 C751 1.403 . S
C749 C746 1.403 . S
C749 C750 1.524 . S
C749 C753 1.400 . S
C750 H735 0.960 . S
C750 H736 0.960 . S
C750 H737 0.960 . S
C750 C749 1.524 . S
C751 C748 1.403 . S
C751 C752 1.392 . S
C751 C755 1.495 . S
C752 C751 1.392 . S
C752 C753 1.385 . S
C752 C754 1.478 . S
C753 H747 0.930 . S
C753 C749 1.400 . S
C753 C752 1.385 . S
C754 C752 1.478 . S
C754 C756 1.381 . S
C754 C760 1.383 . S
C755 C751 1.495 . S
C755 H761 0.959 . S
C755 H762 0.961 . S
C755 H763 0.960 . S
C756 C754 1.381 . S
C756 C757 1.394 . S
C756 H764 0.930 . S
C757 C756 1.394 . S
C757 C758 1.383 . S
C757 H765 0.929 . S
C758 C757 1.383 . S
C758 C759 1.377 . S
C759 H743 0.930 . S
C759 C758 1.377 . S
C759 C760 1.379 . S
C760 H744 0.931 . S
C760 C754 1.383 . S
C760 C759 1.379 . S
H761 C755 0.959 . S
H762 C755 0.961 . S
H763 C755 0.960 . S
H764 C756 0.930 . S
H765 C757 0.929 . S
H766 C774 0.929 . S
H767 C776 0.930 . S
H768 C778 0.930 . S
H769 C781 0.929 . S
H770 C784 0.930 . S
H771 C786 0.960 . S
H772 C786 0.960 . S
H773 C786 0.960 . S
C774 H766 0.929 . S
C774 C775 1.377 . S
C774 C776 1.384 . S
C775 C774 1.377 . S
C775 C781 1.390 . S
C776 H767 0.930 . S
C776 C774 1.384 . S
C776 C777 1.372 . S
C777 C776 1.372 . S
C777 C778 1.400 . S
C777 C782 1.490 . S
C778 H768 0.930 . S
C778 C777 1.400 . S
C778 C781 1.386 . S
H779 C795 0.930 . S
H780 C796 0.931 . S
C781 H769 0.929 . S
C781 C775 1.390 . S
C781 C778 1.386 . S
C782 C777 1.490 . S
C782 C784 1.395 . S
C782 C785 1.403 . S
H783 C789 0.930 . S
C784 H770 0.930 . S
C784 C782 1.395 . S
C784 C787 1.403 . S
C785 C782 1.403 . S
C785 C786 1.524 . S
C785 C789 1.400 . S
C786 H771 0.960 . S
C786 H772 0.960 . S
C786 H773 0.960 . S
C786 C785 1.524 . S
C787 C784 1.403 . S
C787 C788 1.392 . S
C787 C791 1.495 . S
C788 C787 1.392 . S
C788 C789 1.385 . S
C788 C790 1.478 . S
C789 H783 0.930 . S
C789 C785 1.400 . S
C789 C788 1.385 . S
C790 C788 1.478 . S
C790 C792 1.381 . S
C790 C796 1.383 . S
C791 C787 1.495 . S
C791 H797 0.959 . S
C791 H798 0.961 . S
C791 H799 0.960 . S
C792 C790 1.381 . S
C792 C793 1.394 . S
C792 H800 0.930 . S
C793 C792 1.394 . S
C793 C794 1.383 . S
C793 H801 0.929 . S
C794 C793 1.383 . S
C794 C795 1.377 . S
C795 H779 0.930 . S
C795 C794 1.377 . S
C795 C796 1.379 . S
C796 H780 0.931 . S
C796 C790 1.383 . S
C796 C795 1.379 . S
H797 C791 0.959 . S
H798 C791 0.961 . S
H799 C791 0.960 . S
H800 C792 0.930 . S
H801 C793 0.929 . S
H802 C810 0.929 . S
H803 C812 0.930 . S
H804 C814 0.930 . S
H805 C817 0.929 . S
H806 C820 0.930 . S
H807 C822 0.960 . S
H808 C822 0.960 . S
H809 C822 0.960 . S
C810 H802 0.929 . S
C810 C811 1.377 . S
C810 C812 1.384 . S
C811 C810 1.377 . S
C811 C817 1.390 . S
C812 H803 0.930 . S
C812 C810 1.384 . S
C812 C813 1.372 . S
C813 C812 1.372 . S
C813 C814 1.400 . S
C813 C818 1.490 . S
C814 H804 0.930 . S
C814 C813 1.400 . S
C814 C817 1.386 . S
H815 C831 0.930 . S
H816 C832 0.931 . S
C817 H805 0.929 . S
C817 C811 1.390 . S
C817 C814 1.386 . S
C818 C813 1.490 . S
C818 C820 1.395 . S
C818 C821 1.403 . S
H819 C825 0.930 . S
C820 H806 0.930 . S
C820 C818 1.395 . S
C820 C823 1.403 . S
C821 C818 1.403 . S
C821 C822 1.524 . S
C821 C825 1.400 . S
C822 H807 0.960 . S
C822 H808 0.960 . S
C822 H809 0.960 . S
C822 C821 1.524 . S
C823 C820 1.403 . S
C823 C824 1.392 . S
C823 C827 1.495 . S
C824 C823 1.392 . S
C824 C825 1.385 . S
C824 C826 1.478 . S
C825 H819 0.930 . S
C825 C821 1.400 . S
C825 C824 1.385 . S
C826 C824 1.478 . S
C826 C828 1.381 . S
C826 C832 1.383 . S
C827 C823 1.495 . S
C827 H833 0.959 . S
C827 H834 0.961 . S
C827 H835 0.960 . S
C828 C826 1.381 . S
C828 C829 1.394 . S
C828 H836 0.930 . S
C829 C828 1.394 . S
C829 C830 1.383 . S
C829 H837 0.929 . S
C830 C829 1.383 . S
C830 C831 1.377 . S
C831 H815 0.930 . S
C831 C830 1.377 . S
C831 C832 1.379 . S
C832 H816 0.931 . S
C832 C826 1.383 . S
C832 C831 1.379 . S
H833 C827 0.959 . S
H834 C827 0.961 . S
H835 C827 0.960 . S
H836 C828 0.930 . S
H837 C829 0.929 . S
H838 C846 0.929 . S
H839 C848 0.930 . S
H840 C850 0.930 . S
H841 C853 0.929 . S
H842 C856 0.930 . S
H843 C858 0.960 . S
H844 C858 0.960 . S
H845 C858 0.960 . S
C846 H838 0.929 . S
C846 C847 1.377 . S
C846 C848 1.384 . S
C847 C846 1.377 . S
C847 C853 1.390 . S
C848 H839 0.930 . S
C848 C846 1.384 . S
C848 C849 1.372 . S
C849 C848 1.372 . S
C849 C850 1.400 . S
C849 C854 1.490 . S
C850 H840 0.930 . S
C850 C849 1.400 . S
C850 C853 1.386 . S
H851 C867 0.930 . S
H852 C868 0.931 . S
C853 H841 0.929 . S
C853 C847 1.390 . S
C853 C850 1.386 . S
C854 C849 1.490 . S
C854 C856 1.395 . S
C854 C857 1.403 . S
H855 C861 0.930 . S
C856 H842 0.930 . S
C856 C854 1.395 . S
C856 C859 1.403 . S
C857 C854 1.403 . S
C857 C858 1.524 . S
C857 C861 1.400 . S
C858 H843 0.960 . S
C858 H844 0.960 . S
C858 H845 0.960 . S
C858 C857 1.524 . S
C859 C856 1.403 . S
C859 C860 1.392 . S
C859 C863 1.495 . S
C860 C859 1.392 . S
C860 C861 1.385 . S
C860 C862 1.478 . S
C861 H855 0.930 . S
C861 C857 1.400 . S
C861 C860 1.385 . S
C862 C860 1.478 . S
C862 C864 1.381 . S
C862 C868 1.383 . S
C863 C859 1.495 . S
C863 H869 0.959 . S
C863 H870 0.961 . S
C863 H871 0.960 . S
C864 C862 1.381 . S
C864 C865 1.394 . S
C864 H872 0.930 . S
C865 C864 1.394 . S
C865 C866 1.383 . S
C865 H873 0.929 . S
C866 C865 1.383 . S
C866 C867 1.377 . S
C867 H851 0.930 . S
C867 C866 1.377 . S
C867 C868 1.379 . S
C868 H852 0.931 . S
C868 C862 1.383 . S
C868 C867 1.379 . S
H869 C863 0.959 . S
H870 C863 0.961 . S
H871 C863 0.960 . S
H872 C864 0.930 . S
H873 C865 0.929 . S
H874 C882 0.929 . S
H875 C884 0.930 . S
H876 C886 0.930 . S
H877 C889 0.929 . S
H878 C892 0.930 . S
H879 C894 0.960 . S
H880 C894 0.960 . S
H881 C894 0.960 . S
C882 H874 0.929 . S
C882 C883 1.377 . S
C882 C884 1.384 . S
C883 C882 1.377 . S
C883 C889 1.390 . S
C884 H875 0.930 . S
C884 C882 1.384 . S
C884 C885 1.372 . S
C885 C884 1.372 . S
C885 C886 1.400 . S
C885 C890 1.490 . S
C886 H876 0.930 . S
C886 C885 1.400 . S
C886 C889 1.386 . S
H887 C903 0.930 . S
H888 C904 0.931 . S
C889 H877 0.929 . S
C889 C883 1.390 . S
C889 C886 1.386 . S
C890 C885 1.490 . S
C890 C892 1.395 . S
C890 C893 1.403 . S
H891 C897 0.930 . S
C892 H878 0.930 . S
C892 C890 1.395 . S
C892 C895 1.403 . S
C893 C890 1.403 . S
C893 C894 1.524 . S
C893 C897 1.400 . S
C894 H879 0.960 . S
C894 H880 0.960 . S
C894 H881 0.960 . S
C894 C893 1.524 . S
C895 C892 1.403 . S
C895 C896 1.392 . S
C895 C899 1.495 . S
C896 C895 1.392 . S
C896 C897 1.385 . S
C896 C898 1.478 . S
C897 H891 0.930 . S
C897 C893 1.400 . S
C897 C896 1.385 . S
C898 C896 1.478 . S
C898 C900 1.381 . S
C898 C904 1.383 . S
C899 C895 1.495 . S
C899 H905 0.959 . S
C899 H906 0.961 . S
C899 H907 0.960 . S
C900 C898 1.381 . S
C900 C901 1.394 . S
C900 H908 0.930 . S
C901 C900 1.394 . S
C901 C902 1.383 . S
C901 H909 0.929 . S
C902 C901 1.383 . S
C902 C903 1.377 . S
C903 H887 0.930 . S
C903 C902 1.377 . S
C903 C904 1.379 . S
C904 H888 0.931 . S
C904 C898 1.383 . S
C904 C903 1.379 . S
H905 C899 0.959 . S
H906 C899 0.961 . S
H907 C899 0.960 . S
H908 C900 0.930 . S
H909 C901 0.929 . S
H910 C918 0.929 . S
H911 C920 0.930 . S
H912 C922 0.930 . S
H913 C925 0.929 . S
H914 C928 0.930 . S
H915 C930 0.960 . S
H916 C930 0.960 . S
H917 C930 0.960 . S
C918 H910 0.929 . S
C918 C919 1.377 . S
C918 C920 1.384 . S
C919 C918 1.377 . S
C919 C925 1.390 . S
C920 H911 0.930 . S
C920 C918 1.384 . S
C920 C921 1.372 . S
C921 C920 1.372 . S
C921 C922 1.400 . S
C921 C926 1.490 . S
C922 H912 0.930 . S
C922 C921 1.400 . S
C922 C925 1.386 . S
H923 C939 0.930 . S
H924 C940 0.931 . S
C925 H913 0.929 . S
C925 C919 1.390 . S
C925 C922 1.386 . S
C926 C921 1.490 . S
C926 C928 1.395 . S
C926 C929 1.403 . S
H927 C933 0.930 . S
C928 H914 0.930 . S
C928 C926 1.395 . S
C928 C931 1.403 . S
C929 C926 1.403 . S
C929 C930 1.524 . S
C929 C933 1.400 . S
C930 H915 0.960 . S
C930 H916 0.960 . S
C930 H917 0.960 . S
C930 C929 1.524 . S
C931 C928 1.403 . S
C931 C932 1.392 . S
C931 C935 1.495 . S
C932 C931 1.392 . S
C932 C933 1.385 . S
C932 C934 1.478 . S
C933 H927 0.930 . S
C933 C929 1.400 . S
C933 C932 1.385 . S
C934 C932 1.478 . S
C934 C936 1.381 . S
C934 C940 1.383 . S
C935 C931 1.495 . S
C935 H941 0.959 . S
C935 H942 0.961 . S
C935 H943 0.960 . S
C936 C934 1.381 . S
C936 C937 1.394 . S
C936 H944 0.930 . S
C937 C936 1.394 . S
C937 C938 1.383 . S
C937 H945 0.929 . S
C938 C937 1.383 . S
C938 C939 1.377 . S
C939 H923 0.930 . S
C939 C938 1.377 . S
C939 C940 1.379 . S
C940 H924 0.931 . S
C940 C934 1.383 . S
C940 C939 1.379 . S
H941 C935 0.959 . S
H942 C935 0.961 . S
H943 C935 0.960 . S
H944 C936 0.930 . S
H945 C937 0.929 . S
H946 C954 0.929 . S
H947 C956 0.930 . S
H948 C958 0.930 . S
H949 C961 0.929 . S
H950 C964 0.930 . S
H951 C966 0.960 . S
H952 C966 0.960 . S
H953 C966 0.960 . S
C954 H946 0.929 . S
C954 C955 1.377 . S
C954 C956 1.384 . S
C955 C954 1.377 . S
C955 C961 1.390 . S
C956 H947 0.930 . S
C956 C954 1.384 . S
C956 C957 1.372 . S
C957 C956 1.372 . S
C957 C958 1.400 . S
C957 C962 1.490 . S
C958 H948 0.930 . S
C958 C957 1.400 . S
C958 C961 1.386 . S
H959 C975 0.930 . S
H960 C976 0.931 . S
C961 H949 0.929 . S
C961 C955 1.390 . S
C961 C958 1.386 . S
C962 C957 1.490 . S
C962 C964 1.395 . S
C962 C965 1.403 . S
H963 C969 0.930 . S
C964 H950 0.930 . S
C964 C962 1.395 . S
C964 C967 1.403 . S
C965 C962 1.403 . S
C965 C966 1.524 . S
C965 C969 1.400 . S
C966 H951 0.960 . S
C966 H952 0.960 . S
C966 H953 0.960 . S
C966 C965 1.524 . S
C967 C964 1.403 . S
C967 C968 1.392 . S
C967 C971 1.495 . S
C968 C967 1.392 . S
C968 C969 1.385 . S
C968 C970 1.478 . S
C969 H963 0.930 . S
C969 C965 1.400 . S
C969 C968 1.385 . S
C970 C968 1.478 . S
C970 C972 1.381 . S
C970 C976 1.383 . S
C971 C967 1.495 . S
C971 H977 0.959 . S
C971 H978 0.961 . S
C971 H979 0.960 . S
C972 C970 1.381 . S
C972 C973 1.394 . S
C972 H980 0.930 . S
C973 C972 1.394 . S
C973 C974 1.383 . S
C973 H981 0.929 . S
C974 C973 1.383 . S
C974 C975 1.377 . S
C975 H959 0.930 . S
C975 C974 1.377 . S
C975 C976 1.379 . S
C976 H960 0.931 . S
C976 C970 1.383 . S
C976 C975 1.379 . S
H977 C971 0.959 . S
H978 C971 0.961 . S
H979 C971 0.960 . S
H980 C972 0.930 . S
H981 C973 0.929 . S
H982 C990 0.929 . S
H983 C992 0.930 . S
H984 C994 0.930 . S
H985 C997 0.929 . S
H986 C1000 0.930 . S
H987 C1002 0.960 . S
H988 C1002 0.960 . S
H989 C1002 0.960 . S
C990 H982 0.929 . S
C990 C991 1.377 . S
C990 C992 1.384 . S
C991 C990 1.377 . S
C991 C997 1.390 . S
C992 H983 0.930 . S
C992 C990 1.384 . S
C992 C993 1.372 . S
C993 C992 1.372 . S
C993 C994 1.400 . S
C993 C998 1.490 . S
C994 H984 0.930 . S
C994 C993 1.400 . S
C994 C997 1.386 . S
H995 C1011 0.930 . S
H996 C1012 0.931 . S
C997 H985 0.929 . S
C997 C991 1.390 . S
C997 C994 1.386 . S
C998 C993 1.490 . S
C998 C1000 1.395 . S
C998 C1001 1.403 . S
H999 C1005 0.930 . S
C1000 H986 0.930 . S
C1000 C998 1.395 . S
C1000 C1003 1.403 . S
C1001 C998 1.403 . S
C1001 C1002 1.524 . S
C1001 C1005 1.400 . S
C1002 H987 0.960 . S
C1002 H988 0.960 . S
C1002 H989 0.960 . S
C1002 C1001 1.524 . S
C1003 C1000 1.403 . S
C1003 C1004 1.392 . S
C1003 C1007 1.495 . S
C1004 C1003 1.392 . S
C1004 C1005 1.385 . S
C1004 C1006 1.478 . S
C1005 H999 0.930 . S
C1005 C1001 1.400 . S
C1005 C1004 1.385 . S
C1006 C1004 1.478 . S
C1006 C1008 1.381 . S
C1006 C1012 1.383 . S
C1007 C1003 1.495 . S
C1007 H1013 0.959 . S
C1007 H1014 0.961 . S
C1007 H1015 0.960 . S
C1008 C1006 1.381 . S
C1008 C1009 1.394 . S
C1008 H1016 0.930 . S
C1009 C1008 1.394 . S
C1009 C1010 1.383 . S
C1009 H1017 0.929 . S
C1010 C1009 1.383 . S
C1010 C1011 1.377 . S
C1011 H995 0.930 . S
C1011 C1010 1.377 . S
C1011 C1012 1.379 . S
C1012 H996 0.931 . S
C1012 C1006 1.383 . S
C1012 C1011 1.379 . S
H1013 C1007 0.959 . S
H1014 C1007 0.961 . S
H1015 C1007 0.960 . S
H1016 C1008 0.930 . S
H1017 C1009 0.929 . S
H1018 C1026 0.929 . S
H1019 C1028 0.930 . S
H1020 C1030 0.930 . S
H1021 C1033 0.929 . S
H1022 C1036 0.930 . S
H1023 C1038 0.960 . S
H1024 C1038 0.960 . S
H1025 C1038 0.960 . S
C1026 H1018 0.929 . S
C1026 C1027 1.377 . S
C1026 C1028 1.384 . S
C1027 C1026 1.377 . S
C1027 C1033 1.390 . S
C1028 H1019 0.930 . S
C1028 C1026 1.384 . S
C1028 C1029 1.372 . S
C1029 C1028 1.372 . S
C1029 C1030 1.400 . S
C1029 C1034 1.490 . S
C1030 H1020 0.930 . S
C1030 C1029 1.400 . S
C1030 C1033 1.386 . S
H1031 C1047 0.930 . S
H1032 C1048 0.931 . S
C1033 H1021 0.929 . S
C1033 C1027 1.390 . S
C1033 C1030 1.386 . S
C1034 C1029 1.490 . S
C1034 C1036 1.395 . S
C1034 C1037 1.403 . S
H1035 C1041 0.930 . S
C1036 H1022 0.930 . S
C1036 C1034 1.395 . S
C1036 C1039 1.403 . S
C1037 C1034 1.403 . S
C1037 C1038 1.524 . S
C1037 C1041 1.400 . S
C1038 H1023 0.960 . S
C1038 H1024 0.960 . S
C1038 H1025 0.960 . S
C1038 C1037 1.524 . S
C1039 C1036 1.403 . S
C1039 C1040 1.392 . S
C1039 C1043 1.495 . S
C1040 C1039 1.392 . S
C1040 C1041 1.385 . S
C1040 C1042 1.478 . S
C1041 H1035 0.930 . S
C1041 C1037 1.400 . S
C1041 C1040 1.385 . S
C1042 C1040 1.478 . S
C1042 C1044 1.381 . S
C1042 C1048 1.383 . S
C1043 C1039 1.495 . S
C1043 H1049 0.959 . S
C1043 H1050 0.961 . S
C1043 H1051 0.960 . S
C1044 C1042 1.381 . S
C1044 C1045 1.394 . S
C1044 H1052 0.930 . S
C1045 C1044 1.394 . S
C1045 C1046 1.383 . S
C1045 H1053 0.929 . S
C1046 C1045 1.383 . S
C1046 C1047 1.377 . S
C1047 H1031 0.930 . S
C1047 C1046 1.377 . S
C1047 C1048 1.379 . S
C1048 H1032 0.931 . S
C1048 C1042 1.383 . S
C1048 C1047 1.379 . S
H1049 C1043 0.959 . S
H1050 C1043 0.961 . S
H1051 C1043 0.960 . S
H1052 C1044 0.930 . S
H1053 C1045 0.929 . S
H1054 C1062 0.929 . S
H1055 C1064 0.930 . S
H1056 C1066 0.930 . S
H1057 C1069 0.929 . S
H1058 C1072 0.930 . S
H1059 C1074 0.960 . S
H1060 C1074 0.960 . S
H1061 C1074 0.960 . S
C1062 H1054 0.929 . S
C1062 C1063 1.377 . S
C1062 C1064 1.384 . S
C1063 C1062 1.377 . S
C1063 C1069 1.390 . S
C1064 H1055 0.930 . S
C1064 C1062 1.384 . S
C1064 C1065 1.372 . S
C1065 C1064 1.372 . S
C1065 C1066 1.400 . S
C1065 C1070 1.490 . S
C1066 H1056 0.930 . S
C1066 C1065 1.400 . S
C1066 C1069 1.386 . S
H1067 C1083 0.930 . S
H1068 C1084 0.931 . S
C1069 H1057 0.929 . S
C1069 C1063 1.390 . S
C1069 C1066 1.386 . S
C1070 C1065 1.490 . S
C1070 C1072 1.395 . S
C1070 C1073 1.403 . S
H1071 C1077 0.930 . S
C1072 H1058 0.930 . S
C1072 C1070 1.395 . S
C1072 C1075 1.403 . S
C1073 C1070 1.403 . S
C1073 C1074 1.524 . S
C1073 C1077 1.400 . S
C1074 H1059 0.960 . S
C1074 H1060 0.960 . S
C1074 H1061 0.960 . S
C1074 C1073 1.524 . S
C1075 C1072 1.403 . S
C1075 C1076 1.392 . S
C1075 C1079 1.495 . S
C1076 C1075 1.392 . S
C1076 C1077 1.385 . S
C1076 C1078 1.478 . S
C1077 H1071 0.930 . S
C1077 C1073 1.400 . S
C1077 C1076 1.385 . S
C1078 C1076 1.478 . S
C1078 C1080 1.381 . S
C1078 C1084 1.383 . S
C1079 C1075 1.495 . S
C1079 H1085 0.959 . S
C1079 H1086 0.961 . S
C1079 H1087 0.960 . S
C1080 C1078 1.381 . S
C1080 C1081 1.394 . S
C1080 H1088 0.930 . S
C1081 C1080 1.394 . S
C1081 C1082 1.383 . S
C1081 H1089 0.929 . S
C1082 C1081 1.383 . S
C1082 C1083 1.377 . S
C1083 H1067 0.930 . S
C1083 C1082 1.377 . S
C1083 C1084 1.379 . S
C1084 H1068 0.931 . S
C1084 C1078 1.383 . S
C1084 C1083 1.379 . S
H1085 C1079 0.959 . S
H1086 C1079 0.961 . S
H1087 C1079 0.960 . S
H1088 C1080 0.930 . S
H1089 C1081 0.929 . S
H1090 C1098 0.929 . S
H1091 C1100 0.930 . S
H1092 C1102 0.930 . S
H1093 C1105 0.929 . S
H1094 C1108 0.930 . S
H1095 C1110 0.960 . S
H1096 C1110 0.960 . S
H1097 C1110 0.960 . S
C1098 H1090 0.929 . S
C1098 C1099 1.377 . S
C1098 C1100 1.384 . S
C1099 C1098 1.377 . S
C1099 C1105 1.390 . S
C1100 H1091 0.930 . S
C1100 C1098 1.384 . S
C1100 C1101 1.372 . S
C1101 C1100 1.372 . S
C1101 C1102 1.400 . S
C1101 C1106 1.490 . S
C1102 H1092 0.930 . S
C1102 C1101 1.400 . S
C1102 C1105 1.386 . S
H1103 C1119 0.930 . S
H1104 C1120 0.931 . S
C1105 H1093 0.929 . S
C1105 C1099 1.390 . S
C1105 C1102 1.386 . S
C1106 C1101 1.490 . S
C1106 C1108 1.395 . S
C1106 C1109 1.403 . S
H1107 C1113 0.930 . S
C1108 H1094 0.930 . S
C1108 C1106 1.395 . S
C1108 C1111 1.403 . S
C1109 C1106 1.403 . S
C1109 C1110 1.524 . S
C1109 C1113 1.400 . S
C1110 H1095 0.960 . S
C1110 H1096 0.960 . S
C1110 H1097 0.960 . S
C1110 C1109 1.524 . S
C1111 C1108 1.403 . S
C1111 C1112 1.392 . S
C1111 C1115 1.495 . S
C1112 C1111 1.392 . S
C1112 C1113 1.385 . S
C1112 C1114 1.478 . S
C1113 H1107 0.930 . S
C1113 C1109 1.400 . S
C1113 C1112 1.385 . S
C1114 C1112 1.478 . S
C1114 C1116 1.381 . S
C1114 C1120 1.383 . S
C1115 C1111 1.495 . S
C1115 H1121 0.959 . S
C1115 H1122 0.961 . S
C1115 H1123 0.960 . S
C1116 C1114 1.381 . S
C1116 C1117 1.394 . S
C1116 H1124 0.930 . S
C1117 C1116 1.394 . S
C1117 C1118 1.383 . S
C1117 H1125 0.929 . S
C1118 C1117 1.383 . S
C1118 C1119 1.377 . S
C1119 H1103 0.930 . S
C1119 C1118 1.377 . S
C1119 C1120 1.379 . S
C1120 H1104 0.931 . S
C1120 C1114 1.383 . S
C1120 C1119 1.379 . S
H1121 C1115 0.959 . S
H1122 C1115 0.961 . S
H1123 C1115 0.960 . S
H1124 C1116 0.930 . S
H1125 C1117 0.929 . S
H1126 C1134 0.929 . S
H1127 C1136 0.930 . S
H1128 C1138 0.930 . S
H1129 C1141 0.929 . S
H1130 C1144 0.930 . S
H1131 C1146 0.960 . S
H1132 C1146 0.960 . S
H1133 C1146 0.960 . S
C1134 H1126 0.929 . S
C1134 C1135 1.377 . S
C1134 C1136 1.384 . S
C1135 C1134 1.377 . S
C1135 C1141 1.390 . S
C1136 H1127 0.930 . S
C1136 C1134 1.384 . S
C1136 C1137 1.372 . S
C1137 C1136 1.372 . S
C1137 C1138 1.400 . S
C1137 C1142 1.490 . S
C1138 H1128 0.930 . S
C1138 C1137 1.400 . S
C1138 C1141 1.386 . S
H1139 C1155 0.930 . S
H1140 C1156 0.931 . S
C1141 H1129 0.929 . S
C1141 C1135 1.390 . S
C1141 C1138 1.386 . S
C1142 C1137 1.490 . S
C1142 C1144 1.395 . S
C1142 C1145 1.403 . S
H1143 C1149 0.930 . S
C1144 H1130 0.930 . S
C1144 C1142 1.395 . S
C1144 C1147 1.403 . S
C1145 C1142 1.403 . S
C1145 C1146 1.524 . S
C1145 C1149 1.400 . S
C1146 H1131 0.960 . S
C1146 H1132 0.960 . S
C1146 H1133 0.960 . S
C1146 C1145 1.524 . S
C1147 C1144 1.403 . S
C1147 C1148 1.392 . S
C1147 C1151 1.495 . S
C1148 C1147 1.392 . S
C1148 C1149 1.385 . S
C1148 C1150 1.478 . S
C1149 H1143 0.930 . S
C1149 C1145 1.400 . S
C1149 C1148 1.385 . S
C1150 C1148 1.478 . S
C1150 C1152 1.381 . S
C1150 C1156 1.383 . S
C1151 C1147 1.495 . S
C1151 H1157 0.959 . S
C1151 H1158 0.961 . S
C1151 H1159 0.960 . S
C1152 C1150 1.381 . S
C1152 C1153 1.394 . S
C1152 H1160 0.930 . S
C1153 C1152 1.394 . S
C1153 C1154 1.383 . S
C1153 H1161 0.929 . S
C1154 C1153 1.383 . S
C1154 C1155 1.377 . S
C1155 H1139 0.930 . S
C1155 C1154 1.377 . S
C1155 C1156 1.379 . S
C1156 H1140 0.931 . S
C1156 C1150 1.383 . S
C1156 C1155 1.379 . S
H1157 C1151 0.959 . S
H1158 C1151 0.961 . S
H1159 C1151 0.960 . S
H1160 C1152 0.930 . S
H1161 C1153 0.929 . S
H1162 C1170 0.929 . S
H1163 C1172 0.930 . S
H1164 C1174 0.930 . S
H1165 C1177 0.929 . S
H1166 C1180 0.930 . S
H1167 C1182 0.960 . S
H1168 C1182 0.960 . S
H1169 C1182 0.960 . S
C1170 H1162 0.929 . S
C1170 C1171 1.377 . S
C1170 C1172 1.384 . S
C1171 C1170 1.377 . S
C1171 C1177 1.390 . S
C1172 H1163 0.930 . S
C1172 C1170 1.384 . S
C1172 C1173 1.372 . S
C1173 C1172 1.372 . S
C1173 C1174 1.400 . S
C1173 C1178 1.490 . S
C1174 H1164 0.930 . S
C1174 C1173 1.400 . S
C1174 C1177 1.386 . S
H1175 C1191 0.930 . S
H1176 C1192 0.931 . S
C1177 H1165 0.929 . S
C1177 C1171 1.390 . S
C1177 C1174 1.386 . S
C1178 C1173 1.490 . S
C1178 C1180 1.395 . S
C1178 C1181 1.403 . S
H1179 C1185 0.930 . S
C1180 H1166 0.930 . S
C1180 C1178 1.395 . S
C1180 C1183 1.403 . S
C1181 C1178 1.403 . S
C1181 C1182 1.524 . S
C1181 C1185 1.400 . S
C1182 H1167 0.960 . S
C1182 H1168 0.960 . S
C1182 H1169 0.960 . S
C1182 C1181 1.524 . S
C1183 C1180 1.403 . S
C1183 C1184 1.392 . S
C1183 C1187 1.495 . S
C1184 C1183 1.392 . S
C1184 C1185 1.385 . S
C1184 C1186 1.478 . S
C1185 H1179 0.930 . S
C1185 C1181 1.400 . S
C1185 C1184 1.385 . S
C1186 C1184 1.478 . S
C1186 C1188 1.381 . S
C1186 C1192 1.383 . S
C1187 C1183 1.495 . S
C1187 H1193 0.959 . S
C1187 H1194 0.961 . S
C1187 H1195 0.960 . S
C1188 C1186 1.381 . S
C1188 C1189 1.394 . S
C1188 H1196 0.930 . S
C1189 C1188 1.394 . S
C1189 C1190 1.383 . S
C1189 H1197 0.929 . S
C1190 C1189 1.383 . S
C1190 C1191 1.377 . S
C1191 H1175 0.930 . S
C1191 C1190 1.377 . S
C1191 C1192 1.379 . S
C1192 H1176 0.931 . S
C1192 C1186 1.383 . S
C1192 C1191 1.379 . S
H1193 C1187 0.959 . S
H1194 C1187 0.961 . S
H1195 C1187 0.960 . S
H1196 C1188 0.930 . S
H1197 C1189 0.929 . S
H1198 C1206 0.929 . S
H1199 C1208 0.930 . S
H1200 C1210 0.930 . S
H1201 C1213 0.929 . S
H1202 C1216 0.930 . S
H1203 C1218 0.960 . S
H1204 C1218 0.960 . S
H1205 C1218 0.960 . S
C1206 H1198 0.929 . S
C1206 C1207 1.377 . S
C1206 C1208 1.384 . S
C1207 C1206 1.377 . S
C1207 C1213 1.390 . S
C1208 H1199 0.930 . S
C1208 C1206 1.384 . S
C1208 C1209 1.372 . S
C1209 C1208 1.372 . S
C1209 C1210 1.400 . S
C1209 C1214 1.490 . S
C1210 H1200 0.930 . S
C1210 C1209 1.400 . S
C1210 C1213 1.386 . S
H1211 C1227 0.930 . S
H1212 C1228 0.931 . S
C1213 H1201 0.929 . S
C1213 C1207 1.390 . S
C1213 C1210 1.386 . S
C1214 C1209 1.490 . S
C1214 C1216 1.395 . S
C1214 C1217 1.403 . S
H1215 C1221 0.930 . S
C1216 H1202 0.930 . S
C1216 C1214 1.395 . S
C1216 C1219 1.403 . S
C1217 C1214 1.403 . S
C1217 C1218 1.524 . S
C1217 C1221 1.400 . S
C1218 H1203 0.960 . S
C1218 H1204 0.960 . S
C1218 H1205 0.960 . S
C1218 C1217 1.524 . S
C1219 C1216 1.403 . S
C1219 C1220 1.392 . S
C1219 C1223 1.495 . S
C1220 C1219 1.392 . S
C1220 C1221 1.385 . S
C1220 C1222 1.478 . S
C1221 H1215 0.930 . S
C1221 C1217 1.400 . S
C1221 C1220 1.385 . S
C1222 C1220 1.478 . S
C1222 C1224 1.381 . S
C1222 C1228 1.383 . S
C1223 C1219 1.495 . S
C1223 H1229 0.959 . S
C1223 H1230 0.961 . S
C1223 H1231 0.960 . S
C1224 C1222 1.381 . S
C1224 C1225 1.394 . S
C1224 H1232 0.930 . S
C1225 C1224 1.394 . S
C1225 C1226 1.383 . S
C1225 H1233 0.929 . S
C1226 C1225 1.383 . S
C1226 C1227 1.377 . S
C1227 H1211 0.930 . S
C1227 C1226 1.377 . S
C1227 C1228 1.379 . S
C1228 H1212 0.931 . S
C1228 C1222 1.383 . S
C1228 C1227 1.379 . S
H1229 C1223 0.959 . S
H1230 C1223 0.961 . S
H1231 C1223 0.960 . S
H1232 C1224 0.930 . S
H1233 C1225 0.929 . S
H1234 C1242 0.929 . S
H1235 C1244 0.930 . S
H1236 C1246 0.930 . S
H1237 C1249 0.929 . S
H1238 C1252 0.930 . S
H1239 C1254 0.960 . S
H1240 C1254 0.960 . S
H1241 C1254 0.960 . S
C1242 H1234 0.929 . S
C1242 C1243 1.377 . S
C1242 C1244 1.384 . S
C1243 C1242 1.377 . S
C1243 C1249 1.390 . S
C1244 H1235 0.930 . S
C1244 C1242 1.384 . S
C1244 C1245 1.372 . S
C1245 C1244 1.372 . S
C1245 C1246 1.400 . S
C1245 C1250 1.490 . S
C1246 H1236 0.930 . S
C1246 C1245 1.400 . S
C1246 C1249 1.386 . S
H1247 C1263 0.930 . S
H1248 C1264 0.931 . S
C1249 H1237 0.929 . S
C1249 C1243 1.390 . S
C1249 C1246 1.386 . S
C1250 C1245 1.490 . S
C1250 C1252 1.395 . S
C1250 C1253 1.403 . S
H1251 C1257 0.930 . S
C1252 H1238 0.930 . S
C1252 C1250 1.395 . S
C1252 C1255 1.403 . S
C1253 C1250 1.403 . S
C1253 C1254 1.524 . S
C1253 C1257 1.400 . S
C1254 H1239 0.960 . S
C1254 H1240 0.960 . S
C1254 H1241 0.960 . S
C1254 C1253 1.524 . S
C1255 C1252 1.403 . S
C1255 C1256 1.392 . S
C1255 C1259 1.495 . S
C1256 C1255 1.392 . S
C1256 C1257 1.385 . S
C1256 C1258 1.478 . S
C1257 H1251 0.930 . S
C1257 C1253 1.400 . S
C1257 C1256 1.385 . S
C1258 C1256 1.478 . S
C1258 C1260 1.381 . S
C1258 C1264 1.383 . S
C1259 C1255 1.495 . S
C1259 H1265 0.959 . S
C1259 H1266 0.961 . S
C1259 H1267 0.960 . S
C1260 C1258 1.381 . S
C1260 C1261 1.394 . S
C1260 H1268 0.930 . S
C1261 C1260 1.394 . S
C1261 C1262 1.383 . S
C1261 H1269 0.929 . S
C1262 C1261 1.383 . S
C1262 C1263 1.377 . S
C1263 H1247 0.930 . S
C1263 C1262 1.377 . S
C1263 C1264 1.379 . S
C1264 H1248 0.931 . S
C1264 C1258 1.383 . S
C1264 C1263 1.379 . S
H1265 C1259 0.959 . S
H1266 C1259 0.961 . S
H1267 C1259 0.960 . S
H1268 C1260 0.930 . S
H1269 C1261 0.929 . S
H1270 C1278 0.929 . S
H1271 C1280 0.930 . S
H1272 C1282 0.930 . S
H1273 C1285 0.929 . S
H1274 C1288 0.930 . S
H1275 C1290 0.960 . S
H1276 C1290 0.960 . S
H1277 C1290 0.960 . S
C1278 H1270 0.929 . S
C1278 C1279 1.377 . S
C1278 C1280 1.384 . S
C1279 C1278 1.377 . S
C1279 C1285 1.390 . S
C1280 H1271 0.930 . S
C1280 C1278 1.384 . S
C1280 C1281 1.372 . S
C1281 C1280 1.372 . S
C1281 C1282 1.400 . S
C1281 C1286 1.490 . S
C1282 H1272 0.930 . S
C1282 C1281 1.400 . S
C1282 C1285 1.386 . S
H1283 C1299 0.930 . S
H1284 C1300 0.931 . S
C1285 H1273 0.929 . S
C1285 C1279 1.390 . S
C1285 C1282 1.386 . S
C1286 C1281 1.490 . S
C1286 C1288 1.395 . S
C1286 C1289 1.403 . S
H1287 C1293 0.930 . S
C1288 H1274 0.930 . S
C1288 C1286 1.395 . S
C1288 C1291 1.403 . S
C1289 C1286 1.403 . S
C1289 C1290 1.524 . S
C1289 C1293 1.400 . S
C1290 H1275 0.960 . S
C1290 H1276 0.960 . S
C1290 H1277 0.960 . S
C1290 C1289 1.524 . S
C1291 C1288 1.403 . S
C1291 C1292 1.392 . S
C1291 C1295 1.495 . S
C1292 C1291 1.392 . S
C1292 C1293 1.385 . S
C1292 C1294 1.478 . S
C1293 H1287 0.930 . S
C1293 C1289 1.400 . S
C1293 C1292 1.385 . S
C1294 C1292 1.478 . S
C1294 C1296 1.381 . S
C1294 C1300 1.383 . S
C1295 C1291 1.495 . S
C1295 H1301 0.959 . S
C1295 H1302 0.961 . S
C1295 H1303 0.960 . S
C1296 C1294 1.381 . S
C1296 C1297 1.394 . S
C1296 H1304 0.930 . S
C1297 C1296 1.394 . S
C1297 C1298 1.383 . S
C1297 H1305 0.929 . S
C1298 C1297 1.383 . S
C1298 C1299 1.377 . S
C1299 H1283 0.930 . S
C1299 C1298 1.377 . S
C1299 C1300 1.379 . S
C1300 H1284 0.931 . S
C1300 C1294 1.383 . S
C1300 C1299 1.379 . S
H1301 C1295 0.959 . S
H1302 C1295 0.961 . S
H1303 C1295 0.960 . S
H1304 C1296 0.930 . S
H1305 C1297 0.929 . S
H1306 C1314 0.929 . S
H1307 C1316 0.930 . S
H1308 C1318 0.930 . S
H1309 C1321 0.929 . S
H1310 C1324 0.930 . S
H1311 C1326 0.960 . S
H1312 C1326 0.960 . S
H1313 C1326 0.960 . S
C1314 H1306 0.929 . S
C1314 C1315 1.377 . S
C1314 C1316 1.384 . S
C1315 C1314 1.377 . S
C1315 C1321 1.390 . S
C1316 H1307 0.930 . S
C1316 C1314 1.384 . S
C1316 C1317 1.372 . S
C1317 C1316 1.372 . S
C1317 C1318 1.400 . S
C1317 C1322 1.490 . S
C1318 H1308 0.930 . S
C1318 C1317 1.400 . S
C1318 C1321 1.386 . S
H1319 C1335 0.930 . S
H1320 C1336 0.931 . S
C1321 H1309 0.929 . S
C1321 C1315 1.390 . S
C1321 C1318 1.386 . S
C1322 C1317 1.490 . S
C1322 C1324 1.395 . S
C1322 C1325 1.403 . S
H1323 C1329 0.930 . S
C1324 H1310 0.930 . S
C1324 C1322 1.395 . S
C1324 C1327 1.403 . S
C1325 C1322 1.403 . S
C1325 C1326 1.524 . S
C1325 C1329 1.400 . S
C1326 H1311 0.960 . S
C1326 H1312 0.960 . S
C1326 H1313 0.960 . S
C1326 C1325 1.524 . S
C1327 C1324 1.403 . S
C1327 C1328 1.392 . S
C1327 C1331 1.495 . S
C1328 C1327 1.392 . S
C1328 C1329 1.385 . S
C1328 C1330 1.478 . S
C1329 H1323 0.930 . S
C1329 C1325 1.400 . S
C1329 C1328 1.385 . S
C1330 C1328 1.478 . S
C1330 C1332 1.381 . S
C1330 C1336 1.383 . S
C1331 C1327 1.495 . S
C1331 H1337 0.959 . S
C1331 H1338 0.961 . S
C1331 H1339 0.960 . S
C1332 C1330 1.381 . S
C1332 C1333 1.394 . S
C1332 H1340 0.930 . S
C1333 C1332 1.394 . S
C1333 C1334 1.383 . S
C1333 H1341 0.929 . S
C1334 C1333 1.383 . S
C1334 C1335 1.377 . S
C1335 H1319 0.930 . S
C1335 C1334 1.377 . S
C1335 C1336 1.379 . S
C1336 H1320 0.931 . S
C1336 C1330 1.383 . S
C1336 C1335 1.379 . S
H1337 C1331 0.959 . S
H1338 C1331 0.961 . S
H1339 C1331 0.960 . S
H1340 C1332 0.930 . S
H1341 C1333 0.929 . S
H1342 C1350 0.929 . S
H1343 C1352 0.930 . S
H1344 C1354 0.930 . S
H1345 C1357 0.929 . S
H1346 C1360 0.930 . S
H1347 C1362 0.960 . S
H1348 C1362 0.960 . S
H1349 C1362 0.960 . S
C1350 H1342 0.929 . S
C1350 C1351 1.377 . S
C1350 C1352 1.384 . S
C1351 C1350 1.377 . S
C1351 C1357 1.390 . S
C1352 H1343 0.930 . S
C1352 C1350 1.384 . S
C1352 C1353 1.372 . S
C1353 C1352 1.372 . S
C1353 C1354 1.400 . S
C1353 C1358 1.490 . S
C1354 H1344 0.930 . S
C1354 C1353 1.400 . S
C1354 C1357 1.386 . S
H1355 C1371 0.930 . S
H1356 C1372 0.931 . S
C1357 H1345 0.929 . S
C1357 C1351 1.390 . S
C1357 C1354 1.386 . S
C1358 C1353 1.490 . S
C1358 C1360 1.395 . S
C1358 C1361 1.403 . S
H1359 C1365 0.930 . S
C1360 H1346 0.930 . S
C1360 C1358 1.395 . S
C1360 C1363 1.403 . S
C1361 C1358 1.403 . S
C1361 C1362 1.524 . S
C1361 C1365 1.400 . S
C1362 H1347 0.960 . S
C1362 H1348 0.960 . S
C1362 H1349 0.960 . S
C1362 C1361 1.524 . S
C1363 C1360 1.403 . S
C1363 C1364 1.392 . S
C1363 C1367 1.495 . S
C1364 C1363 1.392 . S
C1364 C1365 1.385 . S
C1364 C1366 1.478 . S
C1365 H1359 0.930 . S
C1365 C1361 1.400 . S
C1365 C1364 1.385 . S
C1366 C1364 1.478 . S
C1366 C1368 1.381 . S
C1366 C1372 1.383 . S
C1367 C1363 1.495 . S
C1367 H1373 0.959 . S
C1367 H1374 0.961 . S
C1367 H1375 0.960 . S
C1368 C1366 1.381 . S
C1368 C1369 1.394 . S
C1368 H1376 0.930 . S
C1369 C1368 1.394 . S
C1369 C1370 1.383 . S
C1369 H1377 0.929 . S
C1370 C1369 1.383 . S
C1370 C1371 1.377 . S
C1371 H1355 0.930 . S
C1371 C1370 1.377 . S
C1371 C1372 1.379 . S
C1372 H1356 0.931 . S
C1372 C1366 1.383 . S
C1372 C1371 1.379 . S
H1373 C1367 0.959 . S
H1374 C1367 0.961 . S
H1375 C1367 0.960 . S
H1376 C1368 0.930 . S
H1377 C1369 0.929 . S
H1378 C1386 0.929 . S
H1379 C1388 0.930 . S
H1380 C1390 0.930 . S
H1381 C1393 0.929 . S
H1382 C1396 0.930 . S
H1383 C1398 0.960 . S
H1384 C1398 0.960 . S
H1385 C1398 0.960 . S
C1386 H1378 0.929 . S
C1386 C1387 1.377 . S
C1386 C1388 1.384 . S
C1387 C1386 1.377 . S
C1387 C1393 1.390 . S
C1388 H1379 0.930 . S
C1388 C1386 1.384 . S
C1388 C1389 1.372 . S
C1389 C1388 1.372 . S
C1389 C1390 1.400 . S
C1389 C1394 1.490 . S
C1390 H1380 0.930 . S
C1390 C1389 1.400 . S
C1390 C1393 1.386 . S
H1391 C1407 0.930 . S
H1392 C1408 0.931 . S
C1393 H1381 0.929 . S
C1393 C1387 1.390 . S
C1393 C1390 1.386 . S
C1394 C1389 1.490 . S
C1394 C1396 1.395 . S
C1394 C1397 1.403 . S
H1395 C1401 0.930 . S
C1396 H1382 0.930 . S
C1396 C1394 1.395 . S
C1396 C1399 1.403 . S
C1397 C1394 1.403 . S
C1397 C1398 1.524 . S
C1397 C1401 1.400 . S
C1398 H1383 0.960 . S
C1398 H1384 0.960 . S
C1398 H1385 0.960 . S
C1398 C1397 1.524 . S
C1399 C1396 1.403 . S
C1399 C1400 1.392 . S
C1399 C1403 1.495 . S
C1400 C1399 1.392 . S
C1400 C1401 1.385 . S
C1400 C1402 1.478 . S
C1401 H1395 0.930 . S
C1401 C1397 1.400 . S
C1401 C1400 1.385 . S
C1402 C1400 1.478 . S
C1402 C1404 1.381 . S
C1402 C1408 1.383 . S
C1403 C1399 1.495 . S
C1403 H1409 0.959 . S
C1403 H1410 0.961 . S
C1403 H1411 0.960 . S
C1404 C1402 1.381 . S
C1404 C1405 1.394 . S
C1404 H1412 0.930 . S
C1405 C1404 1.394 . S
C1405 C1406 1.383 . S
C1405 H1413 0.929 . S
C1406 C1405 1.383 . S
C1406 C1407 1.377 . S
C1407 H1391 0.930 . S
C1407 C1406 1.377 . S
C1407 C1408 1.379 . S
C1408 H1392 0.931 . S
C1408 C1402 1.383 . S
C1408 C1407 1.379 . S
H1409 C1403 0.959 . S
H1410 C1403 0.961 . S
H1411 C1403 0.960 . S
H1412 C1404 0.930 . S
H1413 C1405 0.929 . S
H1414 C1422 0.929 . S
H1415 C1424 0.930 . S
H1416 C1426 0.930 . S
H1417 C1429 0.929 . S
H1418 C1432 0.930 . S
H1419 C1434 0.960 . S
H1420 C1434 0.960 . S
H1421 C1434 0.960 . S
C1422 H1414 0.929 . S
C1422 C1423 1.377 . S
C1422 C1424 1.384 . S
C1423 C1422 1.377 . S
C1423 C1429 1.390 . S
C1424 H1415 0.930 . S
C1424 C1422 1.384 . S
C1424 C1425 1.372 . S
C1425 C1424 1.372 . S
C1425 C1426 1.400 . S
C1425 C1430 1.490 . S
C1426 H1416 0.930 . S
C1426 C1425 1.400 . S
C1426 C1429 1.386 . S
H1427 C1443 0.930 . S
H1428 C1444 0.931 . S
C1429 H1417 0.929 . S
C1429 C1423 1.390 . S
C1429 C1426 1.386 . S
C1430 C1425 1.490 . S
C1430 C1432 1.395 . S
C1430 C1433 1.403 . S
H1431 C1437 0.930 . S
C1432 H1418 0.930 . S
C1432 C1430 1.395 . S
C1432 C1435 1.403 . S
C1433 C1430 1.403 . S
C1433 C1434 1.524 . S
C1433 C1437 1.400 . S
C1434 H1419 0.960 . S
C1434 H1420 0.960 . S
C1434 H1421 0.960 . S
C1434 C1433 1.524 . S
C1435 C1432 1.403 . S
C1435 C1436 1.392 . S
C1435 C1439 1.495 . S
C1436 C1435 1.392 . S
C1436 C1437 1.385 . S
C1436 C1438 1.478 . S
C1437 H1431 0.930 . S
C1437 C1433 1.400 . S
C1437 C1436 1.385 . S
C1438 C1436 1.478 . S
C1438 C1440 1.381 . S
C1438 C1444 1.383 . S
C1439 C1435 1.495 . S
C1439 H1445 0.959 . S
C1439 H1446 0.961 . S
C1439 H1447 0.960 . S
C1440 C1438 1.381 . S
C1440 C1441 1.394 . S
C1440 H1448 0.930 . S
C1441 C1440 1.394 . S
C1441 C1442 1.383 . S
C1441 H1449 0.929 . S
C1442 C1441 1.383 . S
C1442 C1443 1.377 . S
C1443 H1427 0.930 . S
C1443 C1442 1.377 . S
C1443 C1444 1.379 . S
C1444 H1428 0.931 . S
C1444 C1438 1.383 . S
C1444 C1443 1.379 . S
H1445 C1439 0.959 . S
H1446 C1439 0.961 . S
H1447 C1439 0.960 . S
H1448 C1440 0.930 . S
H1449 C1441 0.929 . S
H1450 C1458 0.929 . S
H1451 C1460 0.930 . S
H1452 C1462 0.930 . S
H1453 C1465 0.929 . S
H1454 C1468 0.930 . S
H1455 C1470 0.960 . S
H1456 C1470 0.960 . S
H1457 C1470 0.960 . S
C1458 H1450 0.929 . S
C1458 C1459 1.377 . S
C1458 C1460 1.384 . S
C1459 C1458 1.377 . S
C1459 C1465 1.390 . S
C1460 H1451 0.930 . S
C1460 C1458 1.384 . S
C1460 C1461 1.372 . S
C1461 C1460 1.372 . S
C1461 C1462 1.400 . S
C1461 C1466 1.490 . S
C1462 H1452 0.930 . S
C1462 C1461 1.400 . S
C1462 C1465 1.386 . S
H1463 C1479 0.930 . S
H1464 C1480 0.931 . S
C1465 H1453 0.929 . S
C1465 C1459 1.390 . S
C1465 C1462 1.386 . S
C1466 C1461 1.490 . S
C1466 C1468 1.395 . S
C1466 C1469 1.403 . S
H1467 C1473 0.930 . S
C1468 H1454 0.930 . S
C1468 C1466 1.395 . S
C1468 C1471 1.403 . S
C1469 C1466 1.403 . S
C1469 C1470 1.524 . S
C1469 C1473 1.400 . S
C1470 H1455 0.960 . S
C1470 H1456 0.960 . S
C1470 H1457 0.960 . S
C1470 C1469 1.524 . S
C1471 C1468 1.403 . S
C1471 C1472 1.392 . S
C1471 C1475 1.495 . S
C1472 C1471 1.392 . S
C1472 C1473 1.385 . S
C1472 C1474 1.478 . S
C1473 H1467 0.930 . S
C1473 C1469 1.400 . S
C1473 C1472 1.385 . S
C1474 C1472 1.478 . S
C1474 C1476 1.381 . S
C1474 C1480 1.383 . S
C1475 C1471 1.495 . S
C1475 H1481 0.959 . S
C1475 H1482 0.961 . S
C1475 H1483 0.960 . S
C1476 C1474 1.381 . S
C1476 C1477 1.394 . S
C1476 H1484 0.930 . S
C1477 C1476 1.394 . S
C1477 C1478 1.383 . S
C1477 H1485 0.929 . S
C1478 C1477 1.383 . S
C1478 C1479 1.377 . S
C1479 H1463 0.930 . S
C1479 C1478 1.377 . S
C1479 C1480 1.379 . S
C1480 H1464 0.931 . S
C1480 C1474 1.383 . S
C1480 C1479 1.379 . S
H1481 C1475 0.959 . S
H1482 C1475 0.961 . S
H1483 C1475 0.960 . S
H1484 C1476 0.930 . S
H1485 C1477 0.929 . S
H1486 C1494 0.929 . S
H1487 C1496 0.930 . S
H1488 C1498 0.930 . S
H1489 C1501 0.929 . S
H1490 C1504 0.930 . S
H1491 C1506 0.960 . S
H1492 C1506 0.960 . S
H1493 C1506 0.960 . S
C1494 H1486 0.929 . S
C1494 C1495 1.377 . S
C1494 C1496 1.384 . S
C1495 C1494 1.377 . S
C1495 C1501 1.390 . S
C1496 H1487 0.930 . S
C1496 C1494 1.384 . S
C1496 C1497 1.372 . S
C1497 C1496 1.372 . S
C1497 C1498 1.400 . S
C1497 C1502 1.490 . S
C1498 H1488 0.930 . S
C1498 C1497 1.400 . S
C1498 C1501 1.386 . S
H1499 C1515 0.930 . S
H1500 C1516 0.931 . S
C1501 H1489 0.929 . S
C1501 C1495 1.390 . S
C1501 C1498 1.386 . S
C1502 C1497 1.490 . S
C1502 C1504 1.395 . S
C1502 C1505 1.403 . S
H1503 C1509 0.930 . S
C1504 H1490 0.930 . S
C1504 C1502 1.395 . S
C1504 C1507 1.403 . S
C1505 C1502 1.403 . S
C1505 C1506 1.524 . S
C1505 C1509 1.400 . S
C1506 H1491 0.960 . S
C1506 H1492 0.960 . S
C1506 H1493 0.960 . S
C1506 C1505 1.524 . S
C1507 C1504 1.403 . S
C1507 C1508 1.392 . S
C1507 C1511 1.495 . S
C1508 C1507 1.392 . S
C1508 C1509 1.385 . S
C1508 C1510 1.478 . S
C1509 H1503 0.930 . S
C1509 C1505 1.400 . S
C1509 C1508 1.385 . S
C1510 C1508 1.478 . S
C1510 C1512 1.381 . S
C1510 C1516 1.383 . S
C1511 C1507 1.495 . S
C1511 H1517 0.959 . S
C1511 H1518 0.961 . S
C1511 H1519 0.960 . S
C1512 C1510 1.381 . S
C1512 C1513 1.394 . S
C1512 H1520 0.930 . S
C1513 C1512 1.394 . S
C1513 C1514 1.383 . S
C1513 H1521 0.929 . S
C1514 C1513 1.383 . S
C1514 C1515 1.377 . S
C1515 H1499 0.930 . S
C1515 C1514 1.377 . S
C1515 C1516 1.379 . S
C1516 H1500 0.931 . S
C1516 C1510 1.383 . S
C1516 C1515 1.379 . S
H1517 C1511 0.959 . S
H1518 C1511 0.961 . S
H1519 C1511 0.960 . S
H1520 C1512 0.930 . S
H1521 C1513 0.929 . S
H1522 C1530 0.929 . S
H1523 C1532 0.930 . S
H1524 C1534 0.930 . S
H1525 C1537 0.929 . S
H1526 C1540 0.930 . S
H1527 C1542 0.960 . S
H1528 C1542 0.960 . S
H1529 C1542 0.960 . S
C1530 H1522 0.929 . S
C1530 C1531 1.377 . S
C1530 C1532 1.384 . S
C1531 C1530 1.377 . S
C1531 C1537 1.390 . S
C1532 H1523 0.930 . S
C1532 C1530 1.384 . S
C1532 C1533 1.372 . S
C1533 C1532 1.372 . S
C1533 C1534 1.400 . S
C1533 C1538 1.490 . S
C1534 H1524 0.930 . S
C1534 C1533 1.400 . S
C1534 C1537 1.386 . S
H1535 C1551 0.930 . S
H1536 C1552 0.931 . S
C1537 H1525 0.929 . S
C1537 C1531 1.390 . S
C1537 C1534 1.386 . S
C1538 C1533 1.490 . S
C1538 C1540 1.395 . S
C1538 C1541 1.403 . S
H1539 C1545 0.930 . S
C1540 H1526 0.930 . S
C1540 C1538 1.395 . S
C1540 C1543 1.403 . S
C1541 C1538 1.403 . S
C1541 C1542 1.524 . S
C1541 C1545 1.400 . S
C1542 H1527 0.960 . S
C1542 H1528 0.960 . S
C1542 H1529 0.960 . S
C1542 C1541 1.524 . S
C1543 C1540 1.403 . S
C1543 C1544 1.392 . S
C1543 C1547 1.495 . S
C1544 C1543 1.392 . S
C1544 C1545 1.385 . S
C1544 C1546 1.478 . S
C1545 H1539 0.930 . S
C1545 C1541 1.400 . S
C1545 C1544 1.385 . S
C1546 C1544 1.478 . S
C1546 C1548 1.381 . S
C1546 C1552 1.383 . S
C1547 C1543 1.495 . S
C1547 H1553 0.959 . S
C1547 H1554 0.961 . S
C1547 H1555 0.960 . S
C1548 C1546 1.381 . S
C1548 C1549 1.394 . S
C1548 H1556 0.930 . S
C1549 C1548 1.394 . S
C1549 C1550 1.383 . S
C1549 H1557 0.929 . S
C1550 C1549 1.383 . S
C1550 C1551 1.377 . S
C1551 H1535 0.930 . S
C1551 C1550 1.377 . S
C1551 C1552 1.379 . S
C1552 H1536 0.931 . S
C1552 C1546 1.383 . S
C1552 C1551 1.379 . S
H1553 C1547 0.959 . S
H1554 C1547 0.961 . S
H1555 C1547 0.960 . S
H1556 C1548 0.930 . S
H1557 C1549 0.929 . S
H1558 C1566 0.929 . S
H1559 C1568 0.930 . S
H1560 C1570 0.930 . S
H1561 C1573 0.929 . S
H1562 C1576 0.930 . S
H1563 C1578 0.960 . S
H1564 C1578 0.960 . S
H1565 C1578 0.960 . S
C1566 H1558 0.929 . S
C1566 C1567 1.377 . S
C1566 C1568 1.384 . S
C1567 C1566 1.377 . S
C1567 C1573 1.390 . S
C1568 H1559 0.930 . S
C1568 C1566 1.384 . S
C1568 C1569 1.372 . S
C1569 C1568 1.372 . S
C1569 C1570 1.400 . S
C1569 C1574 1.490 . S
C1570 H1560 0.930 . S
C1570 C1569 1.400 . S
C1570 C1573 1.386 . S
H1571 C1587 0.930 . S
H1572 C1588 0.931 . S
C1573 H1561 0.929 . S
C1573 C1567 1.390 . S
C1573 C1570 1.386 . S
C1574 C1569 1.490 . S
C1574 C1576 1.395 . S
C1574 C1577 1.403 . S
H1575 C1581 0.930 . S
C1576 H1562 0.930 . S
C1576 C1574 1.395 . S
C1576 C1579 1.403 . S
C1577 C1574 1.403 . S
C1577 C1578 1.524 . S
C1577 C1581 1.400 . S
C1578 H1563 0.960 . S
C1578 H1564 0.960 . S
C1578 H1565 0.960 . S
C1578 C1577 1.524 . S
C1579 C1576 1.403 . S
C1579 C1580 1.392 . S
C1579 C1583 1.495 . S
C1580 C1579 1.392 . S
C1580 C1581 1.385 . S
C1580 C1582 1.478 . S
C1581 H1575 0.930 . S
C1581 C1577 1.400 . S
C1581 C1580 1.385 . S
C1582 C1580 1.478 . S
C1582 C1584 1.381 . S
C1582 C1588 1.383 . S
C1583 C1579 1.495 . S
C1583 H1589 0.959 . S
C1583 H1590 0.961 . S
C1583 H1591 0.960 . S
C1584 C1582 1.381 . S
C1584 C1585 1.394 . S
C1584 H1592 0.930 . S
C1585 C1584 1.394 . S
C1585 C1586 1.383 . S
C1585 H1593 0.929 . S
C1586 C1585 1.383 . S
C1586 C1587 1.377 . S
C1587 H1571 0.930 . S
C1587 C1586 1.377 . S
C1587 C1588 1.379 . S
C1588 H1572 0.931 . S
C1588 C1582 1.383 . S
C1588 C1587 1.379 . S
H1589 C1583 0.959 . S
H1590 C1583 0.961 . S
H1591 C1583 0.960 . S
H1592 C1584 0.930 . S
H1593 C1585 0.929 . S
H1594 C1602 0.929 . S
H1595 C1604 0.930 . S
H1596 C1606 0.930 . S
H1597 C1609 0.929 . S
H1598 C1612 0.930 . S
H1599 C1614 0.960 . S
H1600 C1614 0.960 . S
H1601 C1614 0.960 . S
C1602 H1594 0.929 . S
C1602 C1603 1.377 . S
C1602 C1604 1.384 . S
C1603 C1602 1.377 . S
C1603 C1609 1.390 . S
C1604 H1595 0.930 . S
C1604 C1602 1.384 . S
C1604 C1605 1.372 . S
C1605 C1604 1.372 . S
C1605 C1606 1.400 . S
C1605 C1610 1.490 . S
C1606 H1596 0.930 . S
C1606 C1605 1.400 . S
C1606 C1609 1.386 . S
H1607 C1623 0.930 . S
H1608 C1624 0.931 . S
C1609 H1597 0.929 . S
C1609 C1603 1.390 . S
C1609 C1606 1.386 . S
C1610 C1605 1.490 . S
C1610 C1612 1.395 . S
C1610 C1613 1.403 . S
H1611 C1617 0.930 . S
C1612 H1598 0.930 . S
C1612 C1610 1.395 . S
C1612 C1615 1.403 . S
C1613 C1610 1.403 . S
C1613 C1614 1.524 . S
C1613 C1617 1.400 . S
C1614 H1599 0.960 . S
C1614 H1600 0.960 . S
C1614 H1601 0.960 . S
C1614 C1613 1.524 . S
C1615 C1612 1.403 . S
C1615 C1616 1.392 . S
C1615 C1619 1.495 . S
C1616 C1615 1.392 . S
C1616 C1617 1.385 . S
C1616 C1618 1.478 . S
C1617 H1611 0.930 . S
C1617 C1613 1.400 . S
C1617 C1616 1.385 . S
C1618 C1616 1.478 . S
C1618 C1620 1.381 . S
C1618 C1624 1.383 . S
C1619 C1615 1.495 . S
C1619 H1625 0.959 . S
C1619 H1626 0.961 . S
C1619 H1627 0.960 . S
C1620 C1618 1.381 . S
C1620 C1621 1.394 . S
C1620 H1628 0.930 . S
C1621 C1620 1.394 . S
C1621 C1622 1.383 . S
C1621 H1629 0.929 . S
C1622 C1621 1.383 . S
C1622 C1623 1.377 . S
C1623 H1607 0.930 . S
C1623 C1622 1.377 . S
C1623 C1624 1.379 . S
C1624 H1608 0.931 . S
C1624 C1618 1.383 . S
C1624 C1623 1.379 . S
H1625 C1619 0.959 . S
H1626 C1619 0.961 . S
H1627 C1619 0.960 . S
H1628 C1620 0.930 . S
H1629 C1621 0.929 . S
H1630 C1638 0.929 . S
H1631 C1640 0.930 . S
H1632 C1642 0.930 . S
H1633 C1645 0.929 . S
H1634 C1648 0.930 . S
H1635 C1650 0.960 . S
H1636 C1650 0.960 . S
H1637 C1650 0.960 . S
C1638 H1630 0.929 . S
C1638 C1639 1.377 . S
C1638 C1640 1.384 . S
C1639 C1638 1.377 . S
C1639 C1645 1.390 . S
C1640 H1631 0.930 . S
C1640 C1638 1.384 . S
C1640 C1641 1.372 . S
C1641 C1640 1.372 . S
C1641 C1642 1.400 . S
C1641 C1646 1.490 . S
C1642 H1632 0.930 . S
C1642 C1641 1.400 . S
C1642 C1645 1.386 . S
H1643 C1659 0.930 . S
H1644 C1660 0.931 . S
C1645 H1633 0.929 . S
C1645 C1639 1.390 . S
C1645 C1642 1.386 . S
C1646 C1641 1.490 . S
C1646 C1648 1.395 . S
C1646 C1649 1.403 . S
H1647 C1653 0.930 . S
C1648 H1634 0.930 . S
C1648 C1646 1.395 . S
C1648 C1651 1.403 . S
C1649 C1646 1.403 . S
C1649 C1650 1.524 . S
C1649 C1653 1.400 . S
C1650 H1635 0.960 . S
C1650 H1636 0.960 . S
C1650 H1637 0.960 . S
C1650 C1649 1.524 . S
C1651 C1648 1.403 . S
C1651 C1652 1.392 . S
C1651 C1655 1.495 . S
C1652 C1651 1.392 . S
C1652 C1653 1.385 . S
C1652 C1654 1.478 . S
C1653 H1647 0.930 . S
C1653 C1649 1.400 . S
C1653 C1652 1.385 . S
C1654 C1652 1.478 . S
C1654 C1656 1.381 . S
C1654 C1660 1.383 . S
C1655 C1651 1.495 . S
C1655 H1661 0.959 . S
C1655 H1662 0.961 . S
C1655 H1663 0.960 . S
C1656 C1654 1.381 . S
C1656 C1657 1.394 . S
C1656 H1664 0.930 . S
C1657 C1656 1.394 . S
C1657 C1658 1.383 . S
C1657 H1665 0.929 . S
C1658 C1657 1.383 . S
C1658 C1659 1.377 . S
C1659 H1643 0.930 . S
C1659 C1658 1.377 . S
C1659 C1660 1.379 . S
C1660 H1644 0.931 . S
C1660 C1654 1.383 . S
C1660 C1659 1.379 . S
H1661 C1655 0.959 . S
H1662 C1655 0.961 . S
H1663 C1655 0.960 . S
H1664 C1656 0.930 . S
H1665 C1657 0.929 . S
H1666 C1674 0.929 . S
H1667 C1676 0.930 . S
H1668 C1678 0.930 . S
H1669 C1681 0.929 . S
H1670 C1684 0.930 . S
H1671 C1686 0.960 . S
H1672 C1686 0.960 . S
H1673 C1686 0.960 . S
C1674 H1666 0.929 . S
C1674 C1675 1.377 . S
C1674 C1676 1.384 . S
C1675 C1674 1.377 . S
C1675 C1681 1.390 . S
C1676 H1667 0.930 . S
C1676 C1674 1.384 . S
C1676 C1677 1.372 . S
C1677 C1676 1.372 . S
C1677 C1678 1.400 . S
C1677 C1682 1.490 . S
C1678 H1668 0.930 . S
C1678 C1677 1.400 . S
C1678 C1681 1.386 . S
H1679 C1695 0.930 . S
H1680 C1696 0.931 . S
C1681 H1669 0.929 . S
C1681 C1675 1.390 . S
C1681 C1678 1.386 . S
C1682 C1677 1.490 . S
C1682 C1684 1.395 . S
C1682 C1685 1.403 . S
H1683 C1689 0.930 . S
C1684 H1670 0.930 . S
C1684 C1682 1.395 . S
C1684 C1687 1.403 . S
C1685 C1682 1.403 . S
C1685 C1686 1.524 . S
C1685 C1689 1.400 . S
C1686 H1671 0.960 . S
C1686 H1672 0.960 . S
C1686 H1673 0.960 . S
C1686 C1685 1.524 . S
C1687 C1684 1.403 . S
C1687 C1688 1.392 . S
C1687 C1691 1.495 . S
C1688 C1687 1.392 . S
C1688 C1689 1.385 . S
C1688 C1690 1.478 . S
C1689 H1683 0.930 . S
C1689 C1685 1.400 . S
C1689 C1688 1.385 . S
C1690 C1688 1.478 . S
C1690 C1692 1.381 . S
C1690 C1696 1.383 . S
C1691 C1687 1.495 . S
C1691 H1697 0.959 . S
C1691 H1698 0.961 . S
C1691 H1699 0.960 . S
C1692 C1690 1.381 . S
C1692 C1693 1.394 . S
C1692 H1700 0.930 . S
C1693 C1692 1.394 . S
C1693 C1694 1.383 . S
C1693 H1701 0.929 . S
C1694 C1693 1.383 . S
C1694 C1695 1.377 . S
C1695 H1679 0.930 . S
C1695 C1694 1.377 . S
C1695 C1696 1.379 . S
C1696 H1680 0.931 . S
C1696 C1690 1.383 . S
C1696 C1695 1.379 . S
H1697 C1691 0.959 . S
H1698 C1691 0.961 . S
H1699 C1691 0.960 . S
H1700 C1692 0.930 . S
H1701 C1693 0.929 . S
H1702 C1710 0.929 . S
H1703 C1712 0.930 . S
H1704 C1714 0.930 . S
H1705 C1717 0.929 . S
H1706 C1720 0.930 . S
H1707 C1722 0.960 . S
H1708 C1722 0.960 . S
H1709 C1722 0.960 . S
C1710 H1702 0.929 . S
C1710 C1711 1.377 . S
C1710 C1712 1.384 . S
C1711 C1710 1.377 . S
C1711 C1717 1.390 . S
C1712 H1703 0.930 . S
C1712 C1710 1.384 . S
C1712 C1713 1.372 . S
C1713 C1712 1.372 . S
C1713 C1714 1.400 . S
C1713 C1718 1.490 . S
C1714 H1704 0.930 . S
C1714 C1713 1.400 . S
C1714 C1717 1.386 . S
H1715 C1731 0.930 . S
H1716 C1732 0.931 . S
C1717 H1705 0.929 . S
C1717 C1711 1.390 . S
C1717 C1714 1.386 . S
C1718 C1713 1.490 . S
C1718 C1720 1.395 . S
C1718 C1721 1.403 . S
H1719 C1725 0.930 . S
C1720 H1706 0.930 . S
C1720 C1718 1.395 . S
C1720 C1723 1.403 . S
C1721 C1718 1.403 . S
C1721 C1722 1.524 . S
C1721 C1725 1.400 . S
C1722 H1707 0.960 . S
C1722 H1708 0.960 . S
C1722 H1709 0.960 . S
C1722 C1721 1.524 . S
C1723 C1720 1.403 . S
C1723 C1724 1.392 . S
C1723 C1727 1.495 . S
C1724 C1723 1.392 . S
C1724 C1725 1.385 . S
C1724 C1726 1.478 . S
C1725 H1719 0.930 . S
C1725 C1721 1.400 . S
C1725 C1724 1.385 . S
C1726 C1724 1.478 . S
C1726 C1728 1.381 . S
C1726 C1732 1.383 . S
C1727 C1723 1.495 . S
C1727 H1733 0.959 . S
C1727 H1734 0.961 . S
C1727 H1735 0.960 . S
C1728 C1726 1.381 . S
C1728 C1729 1.394 . S
C1728 H1736 0.930 . S
C1729 C1728 1.394 . S
C1729 C1730 1.383 . S
C1729 H1737 0.929 . S
C1730 C1729 1.383 . S
C1730 C1731 1.377 . S
C1731 H1715 0.930 . S
C1731 C1730 1.377 . S
C1731 C1732 1.379 . S
C1732 H1716 0.931 . S
C1732 C1726 1.383 . S
C1732 C1731 1.379 . S
H1733 C1727 0.959 . S
H1734 C1727 0.961 . S
H1735 C1727 0.960 . S
H1736 C1728 0.930 . S
H1737 C1729 0.929 . S
H1738 C1746 0.929 . S
H1739 C1748 0.930 . S
H1740 C1750 0.930 . S
H1741 C1753 0.929 . S
H1742 C1756 0.930 . S
H1743 C1758 0.960 . S
H1744 C1758 0.960 . S
H1745 C1758 0.960 . S
C1746 H1738 0.929 . S
C1746 C1747 1.377 . S
C1746 C1748 1.384 . S
C1747 C1746 1.377 . S
C1747 C1753 1.390 . S
C1748 H1739 0.930 . S
C1748 C1746 1.384 . S
C1748 C1749 1.372 . S
C1749 C1748 1.372 . S
C1749 C1750 1.400 . S
C1749 C1754 1.490 . S
C1750 H1740 0.930 . S
C1750 C1749 1.400 . S
C1750 C1753 1.386 . S
H1751 C1767 0.930 . S
H1752 C1768 0.931 . S
C1753 H1741 0.929 . S
C1753 C1747 1.390 . S
C1753 C1750 1.386 . S
C1754 C1749 1.490 . S
C1754 C1756 1.395 . S
C1754 C1757 1.403 . S
H1755 C1761 0.930 . S
C1756 H1742 0.930 . S
C1756 C1754 1.395 . S
C1756 C1759 1.403 . S
C1757 C1754 1.403 . S
C1757 C1758 1.524 . S
C1757 C1761 1.400 . S
C1758 H1743 0.960 . S
C1758 H1744 0.960 . S
C1758 H1745 0.960 . S
C1758 C1757 1.524 . S
C1759 C1756 1.403 . S
C1759 C1760 1.392 . S
C1759 C1763 1.495 . S
C1760 C1759 1.392 . S
C1760 C1761 1.385 . S
C1760 C1762 1.478 . S
C1761 H1755 0.930 . S
C1761 C1757 1.400 . S
C1761 C1760 1.385 . S
C1762 C1760 1.478 . S
C1762 C1764 1.381 . S
C1762 C1768 1.383 . S
C1763 C1759 1.495 . S
C1763 H1769 0.959 . S
C1763 H1770 0.961 . S
C1763 H1771 0.960 . S
C1764 C1762 1.381 . S
C1764 C1765 1.394 . S
C1764 H1772 0.930 . S
C1765 C1764 1.394 . S
C1765 C1766 1.383 . S
C1765 H1773 0.929 . S
C1766 C1765 1.383 . S
C1766 C1767 1.377 . S
C1767 H1751 0.930 . S
C1767 C1766 1.377 . S
C1767 C1768 1.379 . S
C1768 H1752 0.931 . S
C1768 C1762 1.383 . S
C1768 C1767 1.379 . S
H1769 C1763 0.959 . S
H1770 C1763 0.961 . S
H1771 C1763 0.960 . S
H1772 C1764 0.930 . S
H1773 C1765 0.929 . S
H1774 C1782 0.929 . S
H1775 C1784 0.930 . S
H1776 C1786 0.930 . S
H1777 C1789 0.929 . S
H1778 C1792 0.930 . S
H1779 C1794 0.960 . S
H1780 C1794 0.960 . S
H1781 C1794 0.960 . S
C1782 H1774 0.929 . S
C1782 C1783 1.377 . S
C1782 C1784 1.384 . S
C1783 C1782 1.377 . S
C1783 C1789 1.390 . S
C1784 H1775 0.930 . S
C1784 C1782 1.384 . S
C1784 C1785 1.372 . S
C1785 C1784 1.372 . S
C1785 C1786 1.400 . S
C1785 C1790 1.490 . S
C1786 H1776 0.930 . S
C1786 C1785 1.400 . S
C1786 C1789 1.386 . S
H1787 C1803 0.930 . S
H1788 C1804 0.931 . S
C1789 H1777 0.929 . S
C1789 C1783 1.390 . S
C1789 C1786 1.386 . S
C1790 C1785 1.490 . S
C1790 C1792 1.395 . S
C1790 C1793 1.403 . S
H1791 C1797 0.930 . S
C1792 H1778 0.930 . S
C1792 C1790 1.395 . S
C1792 C1795 1.403 . S
C1793 C1790 1.403 . S
C1793 C1794 1.524 . S
C1793 C1797 1.400 . S
C1794 H1779 0.960 . S
C1794 H1780 0.960 . S
C1794 H1781 0.960 . S
C1794 C1793 1.524 . S
C1795 C1792 1.403 . S
C1795 C1796 1.392 . S
C1795 C1799 1.495 . S
C1796 C1795 1.392 . S
C1796 C1797 1.385 . S
C1796 C1798 1.478 . S
C1797 H1791 0.930 . S
C1797 C1793 1.400 . S
C1797 C1796 1.385 . S
C1798 C1796 1.478 . S
C1798 C1800 1.381 . S
C1798 C1804 1.383 . S
C1799 C1795 1.495 . S
C1799 H1805 0.959 . S
C1799 H1806 0.961 . S
C1799 H1807 0.960 . S
C1800 C1798 1.381 . S
C1800 C1801 1.394 . S
C1800 H1808 0.930 . S
C1801 C1800 1.394 . S
C1801 C1802 1.383 . S
C1801 H1809 0.929 . S
C1802 C1801 1.383 . S
C1802 C1803 1.377 . S
C1803 H1787 0.930 . S
C1803 C1802 1.377 . S
C1803 C1804 1.379 . S
C1804 H1788 0.931 . S
C1804 C1798 1.383 . S
C1804 C1803 1.379 . S
H1805 C1799 0.959 . S
H1806 C1799 0.961 . S
H1807 C1799 0.960 . S
H1808 C1800 0.930 . S
H1809 C1801 0.929 . S
H1810 C1818 0.929 . S
H1811 C1820 0.930 . S
H1812 C1822 0.930 . S
H1813 C1825 0.929 . S
H1814 C1828 0.930 . S
H1815 C1830 0.960 . S
H1816 C1830 0.960 . S
H1817 C1830 0.960 . S
C1818 H1810 0.929 . S
C1818 C1819 1.377 . S
C1818 C1820 1.384 . S
C1819 C1818 1.377 . S
C1819 C1825 1.390 . S
C1820 H1811 0.930 . S
C1820 C1818 1.384 . S
C1820 C1821 1.372 . S
C1821 C1820 1.372 . S
C1821 C1822 1.400 . S
C1821 C1826 1.490 . S
C1822 H1812 0.930 . S
C1822 C1821 1.400 . S
C1822 C1825 1.386 . S
H1823 C1839 0.930 . S
H1824 C1840 0.931 . S
C1825 H1813 0.929 . S
C1825 C1819 1.390 . S
C1825 C1822 1.386 . S
C1826 C1821 1.490 . S
C1826 C1828 1.395 . S
C1826 C1829 1.403 . S
H1827 C1833 0.930 . S
C1828 H1814 0.930 . S
C1828 C1826 1.395 . S
C1828 C1831 1.403 . S
C1829 C1826 1.403 . S
C1829 C1830 1.524 . S
C1829 C1833 1.400 . S
C1830 H1815 0.960 . S
C1830 H1816 0.960 . S
C1830 H1817 0.960 . S
C1830 C1829 1.524 . S
C1831 C1828 1.403 . S
C1831 C1832 1.392 . S
C1831 C1835 1.495 . S
C1832 C1831 1.392 . S
C1832 C1833 1.385 . S
C1832 C1834 1.478 . S
C1833 H1827 0.930 . S
C1833 C1829 1.400 . S
C1833 C1832 1.385 . S
C1834 C1832 1.478 . S
C1834 C1836 1.381 . S
C1834 C1840 1.383 . S
C1835 C1831 1.495 . S
C1835 H1841 0.959 . S
C1835 H1842 0.961 . S
C1835 H1843 0.960 . S
C1836 C1834 1.381 . S
C1836 C1837 1.394 . S
C1836 H1844 0.930 . S
C1837 C1836 1.394 . S
C1837 C1838 1.383 . S
C1837 H1845 0.929 . S
C1838 C1837 1.383 . S
C1838 C1839 1.377 . S
C1839 H1823 0.930 . S
C1839 C1838 1.377 . S
C1839 C1840 1.379 . S
C1840 H1824 0.931 . S
C1840 C1834 1.383 . S
C1840 C1839 1.379 . S
H1841 C1835 0.959 . S
H1842 C1835 0.961 . S
H1843 C1835 0.960 . S
H1844 C1836 0.930 . S
H1845 C1837 0.929 . S
H1846 C1854 0.929 . S
H1847 C1856 0.930 . S
H1848 C1858 0.930 . S
H1849 C1861 0.929 . S
H1850 C1864 0.930 . S
H1851 C1866 0.960 . S
H1852 C1866 0.960 . S
H1853 C1866 0.960 . S
C1854 H1846 0.929 . S
C1854 C1855 1.377 . S
C1854 C1856 1.384 . S
C1855 C1854 1.377 . S
C1855 C1861 1.390 . S
C1856 H1847 0.930 . S
C1856 C1854 1.384 . S
C1856 C1857 1.372 . S
C1857 C1856 1.372 . S
C1857 C1858 1.400 . S
C1857 C1862 1.490 . S
C1858 H1848 0.930 . S
C1858 C1857 1.400 . S
C1858 C1861 1.386 . S
H1859 C1875 0.930 . S
H1860 C1876 0.931 . S
C1861 H1849 0.929 . S
C1861 C1855 1.390 . S
C1861 C1858 1.386 . S
C1862 C1857 1.490 . S
C1862 C1864 1.395 . S
C1862 C1865 1.403 . S
H1863 C1869 0.930 . S
C1864 H1850 0.930 . S
C1864 C1862 1.395 . S
C1864 C1867 1.403 . S
C1865 C1862 1.403 . S
C1865 C1866 1.524 . S
C1865 C1869 1.400 . S
C1866 H1851 0.960 . S
C1866 H1852 0.960 . S
C1866 H1853 0.960 . S
C1866 C1865 1.524 . S
C1867 C1864 1.403 . S
C1867 C1868 1.392 . S
C1867 C1871 1.495 . S
C1868 C1867 1.392 . S
C1868 C1869 1.385 . S
C1868 C1870 1.478 . S
C1869 H1863 0.930 . S
C1869 C1865 1.400 . S
C1869 C1868 1.385 . S
C1870 C1868 1.478 . S
C1870 C1872 1.381 . S
C1870 C1876 1.383 . S
C1871 C1867 1.495 . S
C1871 H1877 0.959 . S
C1871 H1878 0.961 . S
C1871 H1879 0.960 . S
C1872 C1870 1.381 . S
C1872 C1873 1.394 . S
C1872 H1880 0.930 . S
C1873 C1872 1.394 . S
C1873 C1874 1.383 . S
C1873 H1881 0.929 . S
C1874 C1873 1.383 . S
C1874 C1875 1.377 . S
C1875 H1859 0.930 . S
C1875 C1874 1.377 . S
C1875 C1876 1.379 . S
C1876 H1860 0.931 . S
C1876 C1870 1.383 . S
C1876 C1875 1.379 . S
H1877 C1871 0.959 . S
H1878 C1871 0.961 . S
H1879 C1871 0.960 . S
H1880 C1872 0.930 . S
H1881 C1873 0.929 . S
H1882 C1890 0.929 . S
H1883 C1892 0.930 . S
H1884 C1894 0.930 . S
H1885 C1897 0.929 . S
H1886 C1900 0.930 . S
H1887 C1902 0.960 . S
H1888 C1902 0.960 . S
H1889 C1902 0.960 . S
C1890 H1882 0.929 . S
C1890 C1891 1.377 . S
C1890 C1892 1.384 . S
C1891 C1890 1.377 . S
C1891 C1897 1.390 . S
C1892 H1883 0.930 . S
C1892 C1890 1.384 . S
C1892 C1893 1.372 . S
C1893 C1892 1.372 . S
C1893 C1894 1.400 . S
C1893 C1898 1.490 . S
C1894 H1884 0.930 . S
C1894 C1893 1.400 . S
C1894 C1897 1.386 . S
H1895 C1911 0.930 . S
H1896 C1912 0.931 . S
C1897 H1885 0.929 . S
C1897 C1891 1.390 . S
C1897 C1894 1.386 . S
C1898 C1893 1.490 . S
C1898 C1900 1.395 . S
C1898 C1901 1.403 . S
H1899 C1905 0.930 . S
C1900 H1886 0.930 . S
C1900 C1898 1.395 . S
C1900 C1903 1.403 . S
C1901 C1898 1.403 . S
C1901 C1902 1.524 . S
C1901 C1905 1.400 . S
C1902 H1887 0.960 . S
C1902 H1888 0.960 . S
C1902 H1889 0.960 . S
C1902 C1901 1.524 . S
C1903 C1900 1.403 . S
C1903 C1904 1.392 . S
C1903 C1907 1.495 . S
C1904 C1903 1.392 . S
C1904 C1905 1.385 . S
C1904 C1906 1.478 . S
C1905 H1899 0.930 . S
C1905 C1901 1.400 . S
C1905 C1904 1.385 . S
C1906 C1904 1.478 . S
C1906 C1908 1.381 . S
C1906 C1912 1.383 . S
C1907 C1903 1.495 . S
C1907 H1913 0.959 . S
C1907 H1914 0.961 . S
C1907 H1915 0.960 . S
C1908 C1906 1.381 . S
C1908 C1909 1.394 . S
C1908 H1916 0.930 . S
C1909 C1908 1.394 . S
C1909 C1910 1.383 . S
C1909 H1917 0.929 . S
C1910 C1909 1.383 . S
C1910 C1911 1.377 . S
C1911 H1895 0.930 . S
C1911 C1910 1.377 . S
C1911 C1912 1.379 . S
C1912 H1896 0.931 . S
C1912 C1906 1.383 . S
C1912 C1911 1.379 . S
H1913 C1907 0.959 . S
H1914 C1907 0.961 . S
H1915 C1907 0.960 . S
H1916 C1908 0.930 . S
H1917 C1909 0.929 . S
H1918 C1926 0.929 . S
H1919 C1928 0.930 . S
H1920 C1930 0.930 . S
H1921 C1933 0.929 . S
H1922 C1936 0.930 . S
H1923 C1938 0.960 . S
H1924 C1938 0.960 . S
H1925 C1938 0.960 . S
C1926 H1918 0.929 . S
C1926 C1927 1.377 . S
C1926 C1928 1.384 . S
C1927 C1926 1.377 . S
C1927 C1933 1.390 . S
C1928 H1919 0.930 . S
C1928 C1926 1.384 . S
C1928 C1929 1.372 . S
C1929 C1928 1.372 . S
C1929 C1930 1.400 . S
C1929 C1934 1.490 . S
C1930 H1920 0.930 . S
C1930 C1929 1.400 . S
C1930 C1933 1.386 . S
H1931 C1947 0.930 . S
H1932 C1948 0.931 . S
C1933 H1921 0.929 . S
C1933 C1927 1.390 . S
C1933 C1930 1.386 . S
C1934 C1929 1.490 . S
C1934 C1936 1.395 . S
C1934 C1937 1.403 . S
H1935 C1941 0.930 . S
C1936 H1922 0.930 . S
C1936 C1934 1.395 . S
C1936 C1939 1.403 . S
C1937 C1934 1.403 . S
C1937 C1938 1.524 . S
C1937 C1941 1.400 . S
C1938 H1923 0.960 . S
C1938 H1924 0.960 . S
C1938 H1925 0.960 . S
C1938 C1937 1.524 . S
C1939 C1936 1.403 . S
C1939 C1940 1.392 . S
C1939 C1943 1.495 . S
C1940 C1939 1.392 . S
C1940 C1941 1.385 . S
C1940 C1942 1.478 . S
C1941 H1935 0.930 . S
C1941 C1937 1.400 . S
C1941 C1940 1.385 . S
C1942 C1940 1.478 . S
C1942 C1944 1.381 . S
C1942 C1948 1.383 . S
C1943 C1939 1.495 . S
C1943 H1949 0.959 . S
C1943 H1950 0.961 . S
C1943 H1951 0.960 . S
C1944 C1942 1.381 . S
C1944 C1945 1.394 . S
C1944 H1952 0.930 . S
C1945 C1944 1.394 . S
C1945 C1946 1.383 . S
C1945 H1953 0.929 . S
C1946 C1945 1.383 . S
C1946 C1947 1.377 . S
C1947 H1931 0.930 . S
C1947 C1946 1.377 . S
C1947 C1948 1.379 . S
C1948 H1932 0.931 . S
C1948 C1942 1.383 . S
C1948 C1947 1.379 . S
H1949 C1943 0.959 . S
H1950 C1943 0.961 . S
H1951 C1943 0.960 . S
H1952 C1944 0.930 . S
H1953 C1945 0.929 . S
H1954 C1962 0.929 . S
H1955 C1964 0.930 . S
H1956 C1966 0.930 . S
H1957 C1969 0.929 . S
H1958 C1972 0.930 . S
H1959 C1974 0.960 . S
H1960 C1974 0.960 . S
H1961 C1974 0.960 . S
C1962 H1954 0.929 . S
C1962 C1963 1.377 . S
C1962 C1964 1.384 . S
C1963 C1962 1.377 . S
C1963 C1969 1.390 . S
C1964 H1955 0.930 . S
C1964 C1962 1.384 . S
C1964 C1965 1.372 . S
C1965 C1964 1.372 . S
C1965 C1966 1.400 . S
C1965 C1970 1.490 . S
C1966 H1956 0.930 . S
C1966 C1965 1.400 . S
C1966 C1969 1.386 . S
H1967 C1983 0.930 . S
H1968 C1984 0.931 . S
C1969 H1957 0.929 . S
C1969 C1963 1.390 . S
C1969 C1966 1.386 . S
C1970 C1965 1.490 . S
C1970 C1972 1.395 . S
C1970 C1973 1.403 . S
H1971 C1977 0.930 . S
C1972 H1958 0.930 . S
C1972 C1970 1.395 . S
C1972 C1975 1.403 . S
C1973 C1970 1.403 . S
C1973 C1974 1.524 . S
C1973 C1977 1.400 . S
C1974 H1959 0.960 . S
C1974 H1960 0.960 . S
C1974 H1961 0.960 . S
C1974 C1973 1.524 . S
C1975 C1972 1.403 . S
C1975 C1976 1.392 . S
C1975 C1979 1.495 . S
C1976 C1975 1.392 . S
C1976 C1977 1.385 . S
C1976 C1978 1.478 . S
C1977 H1971 0.930 . S
C1977 C1973 1.400 . S
C1977 C1976 1.385 . S
C1978 C1976 1.478 . S
C1978 C1980 1.381 . S
C1978 C1984 1.383 . S
C1979 C1975 1.495 . S
C1979 H1985 0.959 . S
C1979 H1986 0.961 . S
C1979 H1987 0.960 . S
C1980 C1978 1.381 . S
C1980 C1981 1.394 . S
C1980 H1988 0.930 . S
C1981 C1980 1.394 . S
C1981 C1982 1.383 . S
C1981 H1989 0.929 . S
C1982 C1981 1.383 . S
C1982 C1983 1.377 . S
C1983 H1967 0.930 . S
C1983 C1982 1.377 . S
C1983 C1984 1.379 . S
C1984 H1968 0.931 . S
C1984 C1978 1.383 . S
C1984 C1983 1.379 . S
H1985 C1979 0.959 . S
H1986 C1979 0.961 . S
H1987 C1979 0.960 . S
H1988 C1980 0.930 . S
H1989 C1981 0.929 . S
H1990 C1998 0.929 . S
H1991 C2000 0.930 . S
H1992 C2002 0.930 . S
H1993 C2005 0.929 . S
H1994 C2008 0.930 . S
H1995 C2010 0.960 . S
H1996 C2010 0.960 . S
H1997 C2010 0.960 . S
C1998 H1990 0.929 . S
C1998 C1999 1.377 . S
C1998 C2000 1.384 . S
C1999 C1998 1.377 . S
C1999 C2005 1.390 . S
C2000 H1991 0.930 . S
C2000 C1998 1.384 . S
C2000 C2001 1.372 . S
C2001 C2000 1.372 . S
C2001 C2002 1.400 . S
C2001 C2006 1.490 . S
C2002 H1992 0.930 . S
C2002 C2001 1.400 . S
C2002 C2005 1.386 . S
H2003 C2019 0.930 . S
H2004 C2020 0.931 . S
C2005 H1993 0.929 . S
C2005 C1999 1.390 . S
C2005 C2002 1.386 . S
C2006 C2001 1.490 . S
C2006 C2008 1.395 . S
C2006 C2009 1.403 . S
H2007 C2013 0.930 . S
C2008 H1994 0.930 . S
C2008 C2006 1.395 . S
C2008 C2011 1.403 . S
C2009 C2006 1.403 . S
C2009 C2010 1.524 . S
C2009 C2013 1.400 . S
C2010 H1995 0.960 . S
C2010 H1996 0.960 . S
C2010 H1997 0.960 . S
C2010 C2009 1.524 . S
C2011 C2008 1.403 . S
C2011 C2012 1.392 . S
C2011 C2015 1.495 . S
C2012 C2011 1.392 . S
C2012 C2013 1.385 . S
C2012 C2014 1.478 . S
C2013 H2007 0.930 . S
C2013 C2009 1.400 . S
C2013 C2012 1.385 . S
C2014 C2012 1.478 . S
C2014 C2016 1.381 . S
C2014 C2020 1.383 . S
C2015 C2011 1.495 . S
C2015 H2021 0.959 . S
C2015 H2022 0.961 . S
C2015 H2023 0.960 . S
C2016 C2014 1.381 . S
C2016 C2017 1.394 . S
C2016 H2024 0.930 . S
C2017 C2016 1.394 . S
C2017 C2018 1.383 . S
C2017 H2025 0.929 . S
C2018 C2017 1.383 . S
C2018 C2019 1.377 . S
C2019 H2003 0.930 . S
C2019 C2018 1.377 . S
C2019 C2020 1.379 . S
C2020 H2004 0.931 . S
C2020 C2014 1.383 . S
C2020 C2019 1.379 . S
H2021 C2015 0.959 . S
H2022 C2015 0.961 . S
H2023 C2015 0.960 . S
H2024 C2016 0.930 . S
H2025 C2017 0.929 . S
H2026 C2034 0.929 . S
H2027 C2036 0.930 . S
H2028 C2038 0.930 . S
H2029 C2041 0.929 . S
H2030 C2044 0.930 . S
H2031 C2046 0.960 . S
H2032 C2046 0.960 . S
H2033 C2046 0.960 . S
C2034 H2026 0.929 . S
C2034 C2035 1.377 . S
C2034 C2036 1.384 . S
C2035 C2034 1.377 . S
C2035 C2041 1.390 . S
C2036 H2027 0.930 . S
C2036 C2034 1.384 . S
C2036 C2037 1.372 . S
C2037 C2036 1.372 . S
C2037 C2038 1.400 . S
C2037 C2042 1.490 . S
C2038 H2028 0.930 . S
C2038 C2037 1.400 . S
C2038 C2041 1.386 . S
H2039 C2055 0.930 . S
H2040 C2056 0.931 . S
C2041 H2029 0.929 . S
C2041 C2035 1.390 . S
C2041 C2038 1.386 . S
C2042 C2037 1.490 . S
C2042 C2044 1.395 . S
C2042 C2045 1.403 . S
H2043 C2049 0.930 . S
C2044 H2030 0.930 . S
C2044 C2042 1.395 . S
C2044 C2047 1.403 . S
C2045 C2042 1.403 . S
C2045 C2046 1.524 . S
C2045 C2049 1.400 . S
C2046 H2031 0.960 . S
C2046 H2032 0.960 . S
C2046 H2033 0.960 . S
C2046 C2045 1.524 . S
C2047 C2044 1.403 . S
C2047 C2048 1.392 . S
C2047 C2051 1.495 . S
C2048 C2047 1.392 . S
C2048 C2049 1.385 . S
C2048 C2050 1.478 . S
C2049 H2043 0.930 . S
C2049 C2045 1.400 . S
C2049 C2048 1.385 . S
C2050 C2048 1.478 . S
C2050 C2052 1.381 . S
C2050 C2056 1.383 . S
C2051 C2047 1.495 . S
C2051 H2057 0.959 . S
C2051 H2058 0.961 . S
C2051 H2059 0.960 . S
C2052 C2050 1.381 . S
C2052 C2053 1.394 . S
C2052 H2060 0.930 . S
C2053 C2052 1.394 . S
C2053 C2054 1.383 . S
C2053 H2061 0.929 . S
C2054 C2053 1.383 . S
C2054 C2055 1.377 . S
C2055 H2039 0.930 . S
C2055 C2054 1.377 . S
C2055 C2056 1.379 . S
C2056 H2040 0.931 . S
C2056 C2050 1.383 . S
C2056 C2055 1.379 . S
H2057 C2051 0.959 . S
H2058 C2051 0.961 . S
H2059 C2051 0.960 . S
H2060 C2052 0.930 . S
H2061 C2053 0.929 . S
H2062 C2070 0.929 . S
H2063 C2072 0.930 . S
H2064 C2074 0.930 . S
H2065 C2077 0.929 . S
H2066 C2080 0.930 . S
H2067 C2082 0.960 . S
H2068 C2082 0.960 . S
H2069 C2082 0.960 . S
C2070 H2062 0.929 . S
C2070 C2071 1.377 . S
C2070 C2072 1.384 . S
C2071 C2070 1.377 . S
C2071 C2077 1.390 . S
C2072 H2063 0.930 . S
C2072 C2070 1.384 . S
C2072 C2073 1.372 . S
C2073 C2072 1.372 . S
C2073 C2074 1.400 . S
C2073 C2078 1.490 . S
C2074 H2064 0.930 . S
C2074 C2073 1.400 . S
C2074 C2077 1.386 . S
H2075 C2091 0.930 . S
H2076 C2092 0.931 . S
C2077 H2065 0.929 . S
C2077 C2071 1.390 . S
C2077 C2074 1.386 . S
C2078 C2073 1.490 . S
C2078 C2080 1.395 . S
C2078 C2081 1.403 . S
H2079 C2085 0.930 . S
C2080 H2066 0.930 . S
C2080 C2078 1.395 . S
C2080 C2083 1.403 . S
C2081 C2078 1.403 . S
C2081 C2082 1.524 . S
C2081 C2085 1.400 . S
C2082 H2067 0.960 . S
C2082 H2068 0.960 . S
C2082 H2069 0.960 . S
C2082 C2081 1.524 . S
C2083 C2080 1.403 . S
C2083 C2084 1.392 . S
C2083 C2087 1.495 . S
C2084 C2083 1.392 . S
C2084 C2085 1.385 . S
C2084 C2086 1.478 . S
C2085 H2079 0.930 . S
C2085 C2081 1.400 . S
C2085 C2084 1.385 . S
C2086 C2084 1.478 . S
C2086 C2088 1.381 . S
C2086 C2092 1.383 . S
C2087 C2083 1.495 . S
C2087 H2093 0.959 . S
C2087 H2094 0.961 . S
C2087 H2095 0.960 . S
C2088 C2086 1.381 . S
C2088 C2089 1.394 . S
C2088 H2096 0.930 . S
C2089 C2088 1.394 . S
C2089 C2090 1.383 . S
C2089 H2097 0.929 . S
C2090 C2089 1.383 . S
C2090 C2091 1.377 . S
C2091 H2075 0.930 . S
C2091 C2090 1.377 . S
C2091 C2092 1.379 . S
C2092 H2076 0.931 . S
C2092 C2086 1.383 . S
C2092 C2091 1.379 . S
H2093 C2087 0.959 . S
H2094 C2087 0.961 . S
H2095 C2087 0.960 . S
H2096 C2088 0.930 . S
H2097 C2089 0.929 . S
C398 C195 1.152 . S
C379 C17 1.213 . S
C434 C185 1.637 . S
C415 C44 1.525 . S
C470 C186 0.831 . S
C451 C63 0.797 . S
C487 C87 1.364 . S
C506 C208 1.347 . S
C523 C110 1.389 . S
C542 C211 1.342 . S
C578 C194 0.770 . S
C559 C131 0.816 . S
C595 C159 1.430 . S
C614 C184 1.525 . S
C631 C177 1.224 . S
C650 C202 1.226 . S
C686 C215 1.423 . S
C667 C20 1.338 . S
C703 C42 1.323 . S
C722 C264 1.276 . S
C758 C242 1.541 . S
C739 C66 1.450 . S
C794 C256 0.718 . S
C775 C86 0.695 . S
C811 C109 0.700 . S
C830 C217 0.650 . S
C866 C270 1.479 . S
C847 C136 1.398 . S
C883 C157 1.310 . S
C902 C226 1.324 . S
C919 C182 1.420 . S
C938 C247 1.475 . S
C955 C18 1.462 . S
C974 C273 1.406 . S
C991 C112 1.141 . S
C1010 C257 1.186 . S
C1046 C216 1.389 . S
C1027 C134 1.423 . S
C1082 C248 0.866 . S
C1063 C154 0.855 . S
C1099 C180 1.355 . S
C1118 C239 1.346 . S
C1135 C64 1.383 . S
C1154 C246 1.319 . S
C1190 C233 1.215 . S
C1171 C89 1.164 . S
C1207 C39 0.869 . S
C1226 C225 0.824 . S
C1243 C178 1.213 . S
C1262 C288 1.149 . S
C1279 C113 1.528 . S
C1298 C278 1.636 . S
C1334 C279 0.801 . S
C1315 C132 0.799 . S
C1370 C301 1.310 . S
C1351 C156 1.361 . S
C1387 C41 1.388 . S
C1406 C304 1.354 . S
C1442 C287 0.850 . S
C1423 C62 0.806 . S
C1459 C90 1.424 . S
C1478 C277 1.489 . S
C1495 C16 1.219 . S
C1514 C295 1.189 . S
C1531 C181 1.335 . S
C1550 C308 1.430 . S
C1586 C357 1.322 . S
C1567 C111 1.312 . S
C1603 C135 1.461 . S
C1622 C335 1.529 . S
C1639 C155 0.695 . S
C1658 C349 0.727 . S
C1694 C310 0.747 . S
C1675 C40 0.690 . S
C1711 C67 1.399 . S
C1730 C363 1.478 . S
C1766 C319 1.282 . S
C1747 C88 1.318 . S
C1802 C340 1.473 . S
C1783 C21 1.421 . S
C1838 C366 1.413 . S
C1819 C179 1.461 . S
C1855 C43 1.132 . S
C1874 C350 1.139 . S
C1891 C65 1.416 . S
C1910 C309 1.388 . S
C1946 C341 0.787 . S
C1927 C85 0.849 . S
C1963 C19 1.348 . S
C1982 C332 1.341 . S
C1999 C133 1.383 . S
C2018 C339 1.320 . S
C2054 C326 1.139 . S
C2035 C158 1.158 . S
C2090 C318 0.827 . S
C2071 C108 0.870 . S
