# Generated by pormake.
# Topology ocu, (6,8)-cn, num edge types: 1
# Building blocks:
#     Node 0, Type 0, BuildingBlock: KUMBUR_clean_sbu_1, # of connection points: 6
#     Node 1, Type 0, BuildingBlock: KUMBUR_clean_sbu_1, # of connection points: 6
#     Node 2, Type 0, BuildingBlock: KUMBUR_clean_sbu_1, # of connection points: 6
#     Node 3, Type 0, BuildingBlock: KUMBUR_clean_sbu_1, # of connection points: 6
#     Node 4, Type 0, BuildingBlock: KUMBUR_clean_sbu_1, # of connection points: 6
#     Node 5, Type 0, BuildingBlock: KUMBUR_clean_sbu_1, # of connection points: 6
#     Node 6, Type 0, BuildingBlock: KUMBUR_clean_sbu_1, # of connection points: 6
#     Node 7, Type 0, BuildingBlock: KUMBUR_clean_sbu_1, # of connection points: 6
#     Node 8, Type 1, BuildingBlock: TAGTUT_clean_sbu_1, # of connection points: 8
#     Node 9, Type 1, BuildingBlock: TAGTUT_clean_sbu_1, # of connection points: 8
#     Node 10, Type 1, BuildingBlock: TAGTUT_clean_sbu_1, # of connection points: 8
#     Node 11, Type 1, BuildingBlock: TAGTUT_clean_sbu_1, # of connection points: 8
#     Node 12, Type 1, BuildingBlock: TAGTUT_clean_sbu_1, # of connection points: 8
#     Node 13, Type 1, BuildingBlock: TAGTUT_clean_sbu_1, # of connection points: 8
#     Edge 14, Type (0, 1), BuildingBlock: KIFKEQ_clean_linker_1, # of connection points: 2
#     Edge 15, Type (0, 1), BuildingBlock: KIFKEQ_clean_linker_1, # of connection points: 2
#     Edge 16, Type (0, 1), BuildingBlock: KIFKEQ_clean_linker_1, # of connection points: 2
#     Edge 17, Type (0, 1), BuildingBlock: KIFKEQ_clean_linker_1, # of connection points: 2
#     Edge 18, Type (0, 1), BuildingBlock: KIFKEQ_clean_linker_1, # of connection points: 2
#     Edge 19, Type (0, 1), BuildingBlock: KIFKEQ_clean_linker_1, # of connection points: 2
#     Edge 20, Type (0, 1), BuildingBlock: KIFKEQ_clean_linker_1, # of connection points: 2
#     Edge 21, Type (0, 1), BuildingBlock: KIFKEQ_clean_linker_1, # of connection points: 2
#     Edge 22, Type (0, 1), BuildingBlock: KIFKEQ_clean_linker_1, # of connection points: 2
#     Edge 23, Type (0, 1), BuildingBlock: KIFKEQ_clean_linker_1, # of connection points: 2
#     Edge 24, Type (0, 1), BuildingBlock: KIFKEQ_clean_linker_1, # of connection points: 2
#     Edge 25, Type (0, 1), BuildingBlock: KIFKEQ_clean_linker_1, # of connection points: 2
#     Edge 26, Type (0, 1), BuildingBlock: KIFKEQ_clean_linker_1, # of connection points: 2
#     Edge 27, Type (0, 1), BuildingBlock: KIFKEQ_clean_linker_1, # of connection points: 2
#     Edge 28, Type (0, 1), BuildingBlock: KIFKEQ_clean_linker_1, # of connection points: 2
#     Edge 29, Type (0, 1), BuildingBlock: KIFKEQ_clean_linker_1, # of connection points: 2
#     Edge 30, Type (0, 1), BuildingBlock: KIFKEQ_clean_linker_1, # of connection points: 2
#     Edge 31, Type (0, 1), BuildingBlock: KIFKEQ_clean_linker_1, # of connection points: 2
#     Edge 32, Type (0, 1), BuildingBlock: KIFKEQ_clean_linker_1, # of connection points: 2
#     Edge 33, Type (0, 1), BuildingBlock: KIFKEQ_clean_linker_1, # of connection points: 2
#     Edge 34, Type (0, 1), BuildingBlock: KIFKEQ_clean_linker_1, # of connection points: 2
#     Edge 35, Type (0, 1), BuildingBlock: KIFKEQ_clean_linker_1, # of connection points: 2
#     Edge 36, Type (0, 1), BuildingBlock: KIFKEQ_clean_linker_1, # of connection points: 2
#     Edge 37, Type (0, 1), BuildingBlock: KIFKEQ_clean_linker_1, # of connection points: 2
#     Edge 38, Type (0, 1), BuildingBlock: KIFKEQ_clean_linker_1, # of connection points: 2
#     Edge 39, Type (0, 1), BuildingBlock: KIFKEQ_clean_linker_1, # of connection points: 2
#     Edge 40, Type (0, 1), BuildingBlock: KIFKEQ_clean_linker_1, # of connection points: 2
#     Edge 41, Type (0, 1), BuildingBlock: KIFKEQ_clean_linker_1, # of connection points: 2
#     Edge 42, Type (0, 1), BuildingBlock: KIFKEQ_clean_linker_1, # of connection points: 2
#     Edge 43, Type (0, 1), BuildingBlock: KIFKEQ_clean_linker_1, # of connection points: 2
#     Edge 44, Type (0, 1), BuildingBlock: KIFKEQ_clean_linker_1, # of connection points: 2
#     Edge 45, Type (0, 1), BuildingBlock: KIFKEQ_clean_linker_1, # of connection points: 2
#     Edge 46, Type (0, 1), BuildingBlock: KIFKEQ_clean_linker_1, # of connection points: 2
#     Edge 47, Type (0, 1), BuildingBlock: KIFKEQ_clean_linker_1, # of connection points: 2
#     Edge 48, Type (0, 1), BuildingBlock: KIFKEQ_clean_linker_1, # of connection points: 2
#     Edge 49, Type (0, 1), BuildingBlock: KIFKEQ_clean_linker_1, # of connection points: 2
#     Edge 50, Type (0, 1), BuildingBlock: KIFKEQ_clean_linker_1, # of connection points: 2
#     Edge 51, Type (0, 1), BuildingBlock: KIFKEQ_clean_linker_1, # of connection points: 2
#     Edge 52, Type (0, 1), BuildingBlock: KIFKEQ_clean_linker_1, # of connection points: 2
#     Edge 53, Type (0, 1), BuildingBlock: KIFKEQ_clean_linker_1, # of connection points: 2
#     Edge 54, Type (0, 1), BuildingBlock: KIFKEQ_clean_linker_1, # of connection points: 2
#     Edge 55, Type (0, 1), BuildingBlock: KIFKEQ_clean_linker_1, # of connection points: 2
#     Edge 56, Type (0, 1), BuildingBlock: KIFKEQ_clean_linker_1, # of connection points: 2
#     Edge 57, Type (0, 1), BuildingBlock: KIFKEQ_clean_linker_1, # of connection points: 2
#     Edge 58, Type (0, 1), BuildingBlock: KIFKEQ_clean_linker_1, # of connection points: 2
#     Edge 59, Type (0, 1), BuildingBlock: KIFKEQ_clean_linker_1, # of connection points: 2
#     Edge 60, Type (0, 1), BuildingBlock: KIFKEQ_clean_linker_1, # of connection points: 2
#     Edge 61, Type (0, 1), BuildingBlock: KIFKEQ_clean_linker_1, # of connection points: 2
# Relax obj value: 0.068
# Max RMSD: 0.174
# Mean RMSD: 0.095
data_MOF--net-ocu--node1-KUMBUR_clean_sbu_1--node2-TAGTUT_clean_sbu_1--edge1-KIFKEQ_clean_linker_1
_symmetry_space_group_name_H-M    P1
_symmetry_Int_Tables_number       1
_symmetry_cell_setting            triclinic
loop_
_symmetry_equiv_pos_as_xyz
'x, y, z'
_cell_length_a     40.835665
_cell_length_b     39.113814
_cell_length_c     43.565988
_cell_angle_alpha  100.50817
_cell_angle_beta   81.152087
_cell_angle_gamma 112.88168
loop_
_atom_site_label
_atom_site_type_symbol
_atom_site_fract_x
_atom_site_fract_y
_atom_site_fract_z
_atom_type_partial_charge
Tb0 Tb 0.23827 0.25632 0.22835 0.0
C1 C 0.33886 0.33799 0.33151 0.0
N2 N 0.3431 0.32808 0.29988 0.0
C3 C 0.38461 0.39079 0.29467 0.0
C4 C 0.35578 0.37519 0.34555 0.0
C5 C 0.36762 0.35351 0.28187 0.0
C6 C 0.37818 0.40186 0.32653 0.0
C7 C 0.31331 0.31948 0.38291 0.0
C8 C 0.31839 0.31045 0.35014 0.0
C9 C 0.32942 0.35665 0.39679 0.0
C10 C 0.35064 0.38441 0.37817 0.0
Tb11 Tb 0.31429 0.26538 0.28291 0.0
N12 N 0.3024 0.27493 0.3359 0.0
C13 C 0.29175 0.29094 0.40065 0.0
C14 C 0.2819 0.24686 0.35312 0.0
C15 C 0.27605 0.25445 0.38568 0.0
H16 H 0.37593 0.34543 0.25798 0.0
H17 H 0.25965 0.2321 0.39922 0.0
H18 H 0.17312 0.17973 0.25533 0.0
H19 H 0.29613 0.28019 0.11066 0.0
H20 H 0.27075 0.21851 0.34179 0.0
H21 H 0.28712 0.29676 0.42588 0.0
H22 H 0.28267 0.29832 0.16716 0.0
H23 H 0.40347 0.41076 0.28005 0.0
H24 H 0.32574 0.36418 0.42192 0.0
H25 H 0.36329 0.41288 0.38928 0.0
H26 H 0.14616 0.113 0.23672 0.0
H27 H 0.39174 0.43069 0.33641 0.0
H28 H 0.27096 0.21367 0.08744 0.0
N29 N 0.20903 0.19298 0.21413 0.0
C30 C 0.21499 0.18045 0.18323 0.0
C31 C 0.16624 0.13146 0.22165 0.0
C32 C 0.19864 0.14241 0.17102 0.0
C33 C 0.18281 0.16949 0.23258 0.0
C34 C 0.17478 0.11767 0.19094 0.0
N35 N 0.2513 0.2427 0.17583 0.0
C36 C 0.27202 0.26928 0.15725 0.0
C37 C 0.24307 0.19454 0.13126 0.0
C38 C 0.23626 0.2062 0.16334 0.0
C39 C 0.26506 0.22151 0.11222 0.0
C40 C 0.2794 0.25908 0.12525 0.0
H41 H 0.16158 0.08826 0.18246 0.0
H42 H 0.19356 0.10132 0.12944 0.0
H43 H 0.23291 0.1469 0.09475 0.0
O44 O 0.22065 0.28667 0.20362 0.0
O45 O 0.28121 0.23583 0.20713 0.0
O46 O 0.29423 0.21545 0.24806 0.0
O47 O 0.18497 0.2527 0.23717 0.0
O48 O 0.2861 0.30773 0.23083 0.0
O49 O 0.33174 0.28997 0.23857 0.0
O50 O 0.33355 0.23441 0.30537 0.0
O51 O 0.27311 0.28836 0.30516 0.0
O52 O 0.2576 0.30579 0.26368 0.0
O53 O 0.36782 0.27012 0.27227 0.0
O54 O 0.26581 0.21459 0.28078 0.0
O55 O 0.2207 0.23313 0.27317 0.0
C56 C 0.29493 0.21547 0.21782 0.0
C57 C 0.16012 0.25846 0.19359 0.0
C58 C 0.12135 0.26984 0.16235 0.0
C59 C 0.10596 0.23108 0.15273 0.0
C60 C 0.14444 0.2199 0.18354 0.0
C61 C 0.11759 0.20638 0.16317 0.0
C62 C 0.1487 0.28336 0.18271 0.0
C63 C 0.31941 0.30979 0.22526 0.0
C64 C 0.18795 0.27314 0.2157 0.0
C65 C 0.20567 0.13049 0.13912 0.0
C66 C 0.22791 0.15648 0.11932 0.0
C67 C 0.25707 0.30635 0.29403 0.0
C68 C 0.39434 0.26318 0.3144 0.0
C69 C 0.43224 0.25069 0.34587 0.0
C70 C 0.4491 0.28947 0.3546 0.0
C71 C 0.41156 0.30175 0.32354 0.0
C72 C 0.40459 0.23773 0.32584 0.0
C73 C 0.43869 0.31473 0.34358 0.0
C74 C 0.23275 0.21329 0.28665 0.0
C75 C 0.36594 0.24896 0.29284 0.0
H76 H 0.08524 0.2199 0.13676 0.0
H77 H 0.15268 0.20017 0.19156 0.0
H78 H 0.10568 0.17661 0.1555 0.0
H79 H 0.16067 0.31315 0.1905 0.0
H80 H 0.47006 0.30028 0.37031 0.0
H81 H 0.40428 0.32192 0.31509 0.0
H82 H 0.39145 0.20793 0.31875 0.0
H83 H 0.45176 0.34451 0.35057 0.0
Tb84 Tb 0.74441 0.28374 0.26163 0.0
C85 C 0.87502 0.2527 0.1982 0.0
N86 N 0.84089 0.22767 0.20012 0.0
C87 C 0.84657 0.2068 0.145 0.0
C88 C 0.89587 0.25707 0.16922 0.0
C89 C 0.82689 0.20371 0.17434 0.0
C90 C 0.88105 0.23395 0.14234 0.0
C91 C 0.92442 0.29947 0.22488 0.0
C92 C 0.88884 0.27366 0.22558 0.0
C93 C 0.94505 0.30516 0.19595 0.0
C94 C 0.9308 0.28397 0.16815 0.0
Tb95 Tb 0.81025 0.22538 0.2486 0.0
N96 N 0.86805 0.26703 0.25305 0.0
C97 C 0.93854 0.31771 0.25333 0.0
C98 C 0.88297 0.28201 0.28083 0.0
C99 C 0.91795 0.30832 0.28145 0.0
H100 H 0.80043 0.18254 0.17638 0.0
H101 H 0.92921 0.32076 0.3036 0.0
H102 H 0.77471 0.35532 0.31794 0.0
H103 H 0.61066 0.18215 0.2515 0.0
H104 H 0.86846 0.27313 0.30261 0.0
H105 H 0.96576 0.33775 0.25387 0.0
H106 H 0.67219 0.22025 0.23212 0.0
H107 H 0.83515 0.18826 0.12448 0.0
H108 H 0.97233 0.32514 0.1949 0.0
H109 H 0.94721 0.28809 0.14608 0.0
H110 H 0.76032 0.37021 0.37467 0.0
H111 H 0.89619 0.23639 0.11959 0.0
H112 H 0.59113 0.18913 0.30825 0.0
N113 N 0.7316 0.30271 0.31359 0.0
C114 C 0.69972 0.28136 0.32721 0.0
C115 C 0.74336 0.34463 0.36178 0.0
C116 C 0.6892 0.2896 0.35917 0.0
C117 C 0.75206 0.33559 0.3298 0.0
C118 C 0.71215 0.32103 0.37674 0.0
N119 N 0.6873 0.24731 0.27751 0.0
C120 C 0.66377 0.2233 0.25688 0.0
C121 C 0.64169 0.23216 0.32052 0.0
C122 C 0.67634 0.25317 0.30832 0.0
C123 C 0.61804 0.20584 0.29984 0.0
C124 C 0.62898 0.2018 0.26779 0.0
H125 H 0.70513 0.32839 0.40138 0.0
H126 H 0.64706 0.27292 0.39665 0.0
H127 H 0.60537 0.22249 0.36272 0.0
O128 O 0.72396 0.29301 0.22399 0.0
O129 O 0.72657 0.22616 0.27265 0.0
O130 O 0.77354 0.22106 0.29135 0.0
O131 O 0.72996 0.33094 0.26672 0.0
O132 O 0.74483 0.24747 0.21717 0.0
O133 O 0.76061 0.19831 0.22441 0.0
O134 O 0.84286 0.20001 0.26103 0.0
O135 O 0.8113 0.26122 0.2149 0.0
O136 O 0.80029 0.3117 0.24328 0.0
O137 O 0.79213 0.16637 0.24174 0.0
O138 O 0.80851 0.26143 0.29349 0.0
O139 O 0.79572 0.31054 0.28256 0.0
C140 C 0.7395 0.21569 0.29338 0.0
C141 C 0.73359 0.35494 0.21973 0.0
C142 C 0.71923 0.39182 0.18826 0.0
C143 C 0.75564 0.40836 0.17825 0.0
C144 C 0.76992 0.37199 0.20995 0.0
C145 C 0.78087 0.39874 0.18935 0.0
C146 C 0.70844 0.36533 0.20923 0.0
C147 C 0.74364 0.21272 0.20991 0.0
C148 C 0.72079 0.3238 0.23833 0.0
C149 C 0.65548 0.26734 0.37206 0.0
C150 C 0.6317 0.23871 0.35272 0.0
C151 C 0.81793 0.29727 0.22018 0.0
C152 C 0.8259 0.13204 0.25455 0.0
C153 C 0.85423 0.09826 0.2768 0.0
C154 C 0.83478 0.06525 0.25804 0.0
C155 C 0.80664 0.09855 0.23647 0.0
C156 C 0.84998 0.13188 0.27458 0.0
C157 C 0.81125 0.06548 0.23811 0.0
C158 C 0.80957 0.29616 0.29988 0.0
C159 C 0.82027 0.16667 0.25249 0.0
H160 H 0.76448 0.42866 0.16189 0.0
H161 H 0.78961 0.36414 0.21773 0.0
H162 H 0.80889 0.41156 0.18157 0.0
H163 H 0.68028 0.35166 0.21635 0.0
H164 H 0.83788 0.03911 0.25862 0.0
H165 H 0.78811 0.09793 0.22086 0.0
H166 H 0.86452 0.15751 0.28899 0.0
H167 H 0.79644 0.03984 0.2239 0.0
Tb168 Tb 0.7635 0.71918 0.28616 0.0
C169 C 0.85771 0.83559 0.18924 0.0
N170 N 0.83994 0.84268 0.21718 0.0
C171 C 0.88819 0.90139 0.22839 0.0
C172 C 0.89189 0.86089 0.18003 0.0
C173 C 0.85418 0.8756 0.23637 0.0
C174 C 0.90727 0.89387 0.20023 0.0
C175 C 0.85784 0.79564 0.13958 0.0
C176 C 0.84102 0.80341 0.16929 0.0
C177 C 0.89226 0.82029 0.13059 0.0
C178 C 0.90927 0.85281 0.15078 0.0
Tb179 Tb 0.78504 0.79794 0.22751 0.0
N180 N 0.80807 0.77974 0.17906 0.0
C181 C 0.83936 0.76355 0.11972 0.0
C182 C 0.78904 0.74971 0.15907 0.0
C183 C 0.80464 0.74074 0.12938 0.0
H184 H 0.8392 0.88232 0.25771 0.0
H185 H 0.78984 0.71632 0.11395 0.0
H186 H 0.70846 0.6348 0.25689 0.0
H187 H 0.7605 0.80303 0.39885 0.0
H188 H 0.76219 0.7323 0.16632 0.0
H189 H 0.85139 0.75653 0.09672 0.0
H190 H 0.78737 0.78607 0.34638 0.0
H191 H 0.8995 0.92724 0.24381 0.0
H192 H 0.90578 0.81469 0.10794 0.0
H193 H 0.93562 0.87182 0.14336 0.0
H194 H 0.64823 0.59038 0.27173 0.0
H195 H 0.9335 0.91404 0.19402 0.0
H196 H 0.69923 0.76315 0.41707 0.0
N197 N 0.70863 0.67489 0.29727 0.0
C198 C 0.69137 0.68247 0.32536 0.0
C199 C 0.65994 0.61634 0.28689 0.0
C200 C 0.65725 0.65748 0.33509 0.0
C201 C 0.6939 0.64185 0.27838 0.0
C202 C 0.64139 0.62432 0.31524 0.0
N203 N 0.74129 0.73836 0.3346 0.0
C204 C 0.76062 0.7688 0.35407 0.0
C205 C 0.6921 0.72325 0.37468 0.0
C206 C 0.70847 0.71491 0.34489 0.0
C207 C 0.7109 0.75569 0.39404 0.0
C208 C 0.74548 0.77832 0.38381 0.0
H209 H 0.61519 0.60438 0.32185 0.0
H210 H 0.61407 0.64731 0.37226 0.0
H211 H 0.64461 0.70489 0.40692 0.0
O212 O 0.80344 0.72386 0.31353 0.0
O213 O 0.7338 0.75782 0.29682 0.0
O214 O 0.76571 0.81369 0.27565 0.0
O215 O 0.76665 0.6698 0.29618 0.0
O216 O 0.81483 0.76445 0.27719 0.0
O217 O 0.81058 0.81907 0.27156 0.0
O218 O 0.74513 0.79344 0.20021 0.0
O219 O 0.81433 0.75894 0.21631 0.0
O220 O 0.78288 0.7033 0.23806 0.0
O221 O 0.78194 0.84739 0.21755 0.0
O222 O 0.73372 0.75206 0.23573 0.0
O223 O 0.73798 0.69762 0.24219 0.0
C224 C 0.74108 0.79371 0.29561 0.0
C225 C 0.82564 0.67556 0.30101 0.0
C226 C 0.87338 0.6594 0.31455 0.0
C227 C 0.88568 0.65592 0.28257 0.0
C228 C 0.83838 0.67168 0.26932 0.0
C229 C 0.86821 0.66196 0.26018 0.0
C230 C 0.84315 0.6693 0.3236 0.0
C231 C 0.82236 0.8002 0.28626 0.0
C232 C 0.79532 0.68792 0.31075 0.0
C233 C 0.64037 0.66608 0.36444 0.0
C234 C 0.65777 0.69887 0.3842 0.0
C235 C 0.80712 0.72311 0.21775 0.0
C236 C 0.72316 0.84194 0.21226 0.0
C237 C 0.67612 0.85876 0.19811 0.0
C238 C 0.6634 0.86219 0.22998 0.0
C239 C 0.70997 0.84567 0.24383 0.0
C240 C 0.70622 0.84859 0.18943 0.0
C241 C 0.6803 0.85574 0.25262 0.0
C242 C 0.72653 0.71626 0.2269 0.0
C243 C 0.75338 0.82937 0.20285 0.0
H244 H 0.90844 0.6478 0.27479 0.0
H245 H 0.82532 0.67629 0.25169 0.0
H246 H 0.87776 0.65901 0.23561 0.0
H247 H 0.83357 0.67263 0.34816 0.0
H248 H 0.64073 0.87052 0.23751 0.0
H249 H 0.72256 0.84068 0.26163 0.0
H250 H 0.71614 0.84529 0.16495 0.0
H251 H 0.67039 0.8586 0.2771 0.0
Tb252 Tb 0.23698 0.77943 0.25291 0.0
C253 C 0.3021 0.71452 0.32874 0.0
N254 N 0.32118 0.7405 0.3095 0.0
C255 C 0.35793 0.77712 0.35092 0.0
C256 C 0.30877 0.71968 0.36038 0.0
C257 C 0.35053 0.7702 0.31955 0.0
C258 C 0.33641 0.75217 0.37165 0.0
C259 C 0.25959 0.65177 0.33379 0.0
C260 C 0.2781 0.6812 0.31577 0.0
C261 C 0.26419 0.65751 0.36589 0.0
C262 C 0.28878 0.69148 0.37919 0.0
Tb263 Tb 0.30379 0.72895 0.25963 0.0
N264 N 0.27431 0.67709 0.28483 0.0
C265 C 0.23798 0.61725 0.31874 0.0
C266 C 0.25515 0.64273 0.26954 0.0
C267 C 0.2363 0.61252 0.28634 0.0
H268 H 0.36816 0.78896 0.30349 0.0
H269 H 0.22024 0.58574 0.27437 0.0
H270 H 0.20863 0.74445 0.1831 0.0
H271 H 0.28832 0.92342 0.30913 0.0
H272 H 0.25315 0.63929 0.2446 0.0
H273 H 0.22327 0.59388 0.33173 0.0
H274 H 0.2584 0.85537 0.30812 0.0
H275 H 0.38042 0.80149 0.35898 0.0
H276 H 0.24979 0.6355 0.38034 0.0
H277 H 0.29311 0.6951 0.40369 0.0
H278 H 0.21362 0.76733 0.13251 0.0
H279 H 0.34241 0.75734 0.39583 0.0
H280 H 0.30481 0.95125 0.25968 0.0
N281 N 0.23975 0.79785 0.20568 0.0
C282 C 0.25617 0.83505 0.20395 0.0
C283 C 0.22599 0.78662 0.15235 0.0
C284 C 0.25976 0.84943 0.17572 0.0
C285 C 0.2233 0.77371 0.1809 0.0
C286 C 0.24478 0.82457 0.14959 0.0
N287 N 0.26131 0.84368 0.25815 0.0
C288 C 0.26681 0.86665 0.28615 0.0
C289 C 0.28394 0.89775 0.2306 0.0
C290 C 0.26797 0.85873 0.23102 0.0
C291 C 0.29248 0.92111 0.25897 0.0
C292 C 0.28326 0.9055 0.28692 0.0
H293 H 0.24688 0.8345 0.12745 0.0
H294 H 0.28082 0.8997 0.15319 0.0
H295 H 0.30206 0.94208 0.2013 0.0
O296 O 0.19711 0.80226 0.2628 0.0
O297 O 0.27814 0.77877 0.21376 0.0
O298 O 0.32576 0.77977 0.23655 0.0
O299 O 0.18318 0.74269 0.25554 0.0
O300 O 0.26874 0.79906 0.2938 0.0
O301 O 0.32106 0.78974 0.27566 0.0
O302 O 0.31626 0.68836 0.22746 0.0
O303 O 0.24669 0.7076 0.27648 0.0
O304 O 0.23627 0.7602 0.29708 0.0
O305 O 0.35669 0.73019 0.25418 0.0
O306 O 0.2763 0.71113 0.2165 0.0
O307 O 0.22321 0.72126 0.23027 0.0
C308 C 0.31268 0.78877 0.21479 0.0
C309 C 0.15191 0.76714 0.29703 0.0
C310 C 0.15243 0.78538 0.35369 0.0
C311 C 0.11522 0.76508 0.3568 0.0
C312 C 0.11512 0.74705 0.30048 0.0
C313 C 0.09693 0.74564 0.33041 0.0
C314 C 0.17042 0.78469 0.32362 0.0
C315 C 0.30323 0.80802 0.29472 0.0
C316 C 0.17194 0.76984 0.26608 0.0
C317 C 0.27733 0.88808 0.17476 0.0
C318 C 0.28948 0.91221 0.20215 0.0
C319 C 0.23079 0.72525 0.29812 0.0
C320 C 0.37224 0.71415 0.20017 0.0
C321 C 0.37746 0.70522 0.14276 0.0
C322 C 0.41401 0.72821 0.14315 0.0
C323 C 0.40859 0.73674 0.19995 0.0
C324 C 0.35672 0.69995 0.17156 0.0
C325 C 0.42916 0.74426 0.17151 0.0
C326 C 0.2427 0.70371 0.21267 0.0
C327 C 0.3502 0.70468 0.22987 0.0
H328 H 0.09974 0.76522 0.37928 0.0
H329 H 0.10056 0.7327 0.28016 0.0
H330 H 0.06838 0.73036 0.33313 0.0
H331 H 0.19903 0.79877 0.3205 0.0
H332 H 0.43153 0.73264 0.12173 0.0
H333 H 0.42109 0.74835 0.22166 0.0
H334 H 0.3284 0.68376 0.17173 0.0
H335 H 0.45729 0.76154 0.17142 0.0
Tb336 Tb 0.23949 0.78905 0.76261 0.0
C337 C 0.35728 0.73284 0.69076 0.0
N338 N 0.3238 0.71146 0.70167 0.0
C339 C 0.31743 0.66925 0.6536 0.0
C340 C 0.37193 0.72352 0.66045 0.0
C341 C 0.30397 0.67968 0.6838 0.0
C342 C 0.3515 0.69131 0.64182 0.0
C343 C 0.41084 0.78833 0.69902 0.0
C344 C 0.37641 0.76495 0.70978 0.0
C345 C 0.42563 0.77908 0.66887 0.0
C346 C 0.40623 0.74678 0.64964 0.0
Tb347 Tb 0.30474 0.7317 0.75103 0.0
N348 N 0.36065 0.77383 0.73841 0.0
C349 C 0.42933 0.82033 0.71888 0.0
C350 C 0.37943 0.80387 0.75848 0.0
C351 C 0.41371 0.82786 0.74886 0.0
H352 H 0.27804 0.66188 0.69305 0.0
H353 H 0.42824 0.85193 0.76474 0.0
H354 H 0.26448 0.8565 0.82256 0.0
H355 H 0.11737 0.66776 0.74517 0.0
H356 H 0.36881 0.80919 0.78217 0.0
H357 H 0.45586 0.83902 0.71151 0.0
H358 H 0.17633 0.71237 0.72901 0.0
H359 H 0.30158 0.64409 0.63949 0.0
H360 H 0.45203 0.79677 0.66017 0.0
H361 H 0.41794 0.74012 0.62639 0.0
H362 H 0.23987 0.87157 0.87639 0.0
H363 H 0.3618 0.68319 0.61839 0.0
H364 H 0.08903 0.67761 0.79869 0.0
N365 N 0.2194 0.8067 0.81239 0.0
C366 C 0.18595 0.7844 0.82255 0.0
C367 C 0.22452 0.84685 0.86154 0.0
C368 C 0.17074 0.79212 0.85302 0.0
C369 C 0.23858 0.83796 0.83117 0.0
C370 C 0.19051 0.82378 0.87257 0.0
N371 N 0.18383 0.74549 0.77381 0.0
C372 C 0.16555 0.71622 0.75287 0.0
C373 C 0.13326 0.72841 0.81266 0.0
C374 C 0.16755 0.75281 0.80263 0.0
C375 C 0.11543 0.69705 0.7919 0.0
C376 C 0.13147 0.69123 0.76176 0.0
H377 H 0.17976 0.83068 0.89616 0.0
H378 H 0.12448 0.77322 0.88647 0.0
H379 H 0.09163 0.71755 0.85112 0.0
O380 O 0.2105 0.79586 0.72967 0.0
O381 O 0.23537 0.75314 0.79773 0.0
O382 O 0.25011 0.70355 0.77161 0.0
O383 O 0.23017 0.83912 0.76787 0.0
O384 O 0.24058 0.75075 0.71901 0.0
O385 O 0.25279 0.70264 0.73253 0.0
O386 O 0.33157 0.7252 0.78588 0.0
O387 O 0.31041 0.7684 0.71619 0.0
O388 O 0.29363 0.8174 0.74101 0.0
O389 O 0.31504 0.68235 0.74669 0.0
O390 O 0.30465 0.77105 0.79404 0.0
O391 O 0.29141 0.819 0.78125 0.0
C392 C 0.23251 0.71808 0.79462 0.0
C393 C 0.22259 0.85788 0.7218 0.0
C394 C 0.20317 0.89262 0.69208 0.0
C395 C 0.23901 0.91421 0.6839 0.0
C396 C 0.25831 0.87938 0.71316 0.0
C397 C 0.26641 0.9074 0.69424 0.0
C398 C 0.19508 0.86431 0.71092 0.0
C399 C 0.24091 0.71657 0.71333 0.0
C400 C 0.2133 0.82939 0.74283 0.0
C401 C 0.1366 0.7678 0.8631 0.0
C402 C 0.11792 0.73605 0.84298 0.0
C403 C 0.3121 0.80303 0.71867 0.0
C404 C 0.31874 0.663 0.7937 0.0
C405 C 0.33546 0.62726 0.82492 0.0
C406 C 0.29892 0.60571 0.83109 0.0
C407 C 0.2826 0.64149 0.80044 0.0
C408 C 0.34498 0.65612 0.80619 0.0
C409 C 0.2728 0.61303 0.81912 0.0
C410 C 0.30444 0.80528 0.79974 0.0
C411 C 0.32981 0.69191 0.77286 0.0
H412 H 0.24574 0.93615 0.66937 0.0
H413 H 0.27982 0.87475 0.72129 0.0
H414 H 0.294 0.92402 0.68772 0.0
H415 H 0.16743 0.84775 0.7175 0.0
H416 H 0.29038 0.58272 0.84474 0.0
H417 H 0.26206 0.64639 0.79095 0.0
H418 H 0.37279 0.67343 0.80128 0.0
H419 H 0.24487 0.59625 0.82404 0.0
Tb420 Tb 0.25585 0.21462 0.78055 0.0
C421 C 0.36199 0.32465 0.68767 0.0
N422 N 0.34788 0.33366 0.71692 0.0
C423 C 0.40415 0.38261 0.72807 0.0
C424 C 0.39806 0.34396 0.67765 0.0
C425 C 0.36822 0.36269 0.73694 0.0
C426 C 0.41921 0.37309 0.69836 0.0
C427 C 0.35375 0.2855 0.63722 0.0
C428 C 0.34013 0.29582 0.6677 0.0
C429 C 0.3897 0.30452 0.62718 0.0
C430 C 0.4118 0.33368 0.64734 0.0
Tb431 Tb 0.28884 0.29915 0.72826 0.0
N432 N 0.30576 0.27718 0.67858 0.0
C433 C 0.33082 0.25625 0.61782 0.0
C434 C 0.28293 0.24995 0.65921 0.0
C435 C 0.29516 0.23864 0.62879 0.0
H436 H 0.35658 0.3714 0.75938 0.0
H437 H 0.27698 0.21659 0.61373 0.0
H438 H 0.19082 0.14115 0.74718 0.0
H439 H 0.26258 0.29189 0.89708 0.0
H440 H 0.25529 0.23721 0.66685 0.0
H441 H 0.34023 0.24741 0.59425 0.0
H442 H 0.28619 0.2745 0.84367 0.0
H443 H 0.42011 0.40556 0.74405 0.0
H444 H 0.40068 0.29692 0.60387 0.0
H445 H 0.43947 0.34815 0.63924 0.0
H446 H 0.12738 0.1045 0.76067 0.0
H447 H 0.44704 0.38865 0.69154 0.0
H448 H 0.19926 0.25845 0.91495 0.0
N449 N 0.19711 0.17769 0.79036 0.0
C450 C 0.18177 0.18509 0.81947 0.0
C451 C 0.14227 0.12736 0.77732 0.0
C452 C 0.14577 0.16424 0.8285 0.0
C453 C 0.17812 0.1487 0.76951 0.0
C454 C 0.12594 0.13529 0.80687 0.0
N455 N 0.23676 0.23354 0.83047 0.0
C456 C 0.25857 0.26049 0.85077 0.0
C457 C 0.18769 0.22207 0.87091 0.0
C458 C 0.20241 0.21355 0.8404 0.0
C459 C 0.20954 0.25097 0.89132 0.0
C460 C 0.24523 0.27003 0.88127 0.0
H461 H 0.09821 0.11859 0.8129 0.0
H462 H 0.10321 0.15711 0.86613 0.0
H463 H 0.13992 0.20782 0.90326 0.0
O464 O 0.2937 0.20421 0.80271 0.0
O465 O 0.22824 0.2549 0.79171 0.0
O466 O 0.26642 0.31196 0.77591 0.0
O467 O 0.24546 0.15942 0.78656 0.0
O468 O 0.30993 0.25816 0.78263 0.0
O469 O 0.30899 0.31439 0.77448 0.0
O470 O 0.25368 0.31016 0.70354 0.0
O471 O 0.31743 0.25978 0.71986 0.0
O472 O 0.2765 0.20264 0.73218 0.0
O473 O 0.30043 0.3549 0.72266 0.0
O474 O 0.23387 0.25769 0.72839 0.0
O475 O 0.23507 0.20105 0.7345 0.0
C476 C 0.23812 0.29149 0.79259 0.0
C477 C 0.28344 0.13969 0.81105 0.0
C478 C 0.32354 0.11949 0.8333 0.0
C479 C 0.29901 0.0824 0.82866 0.0
C480 C 0.25948 0.10223 0.80693 0.0
C481 C 0.26722 0.07394 0.81574 0.0
C482 C 0.31552 0.14839 0.82475 0.0
C483 C 0.32025 0.29483 0.78899 0.0
C484 C 0.27439 0.16849 0.80012 0.0
C485 C 0.13085 0.17277 0.85879 0.0
C486 C 0.15176 0.20161 0.87995 0.0
C487 C 0.3064 0.22295 0.71737 0.0
C488 C 0.26465 0.37449 0.69521 0.0
C489 C 0.22433 0.39439 0.67325 0.0
C490 C 0.24963 0.43118 0.67601 0.0
C491 C 0.28956 0.41155 0.69746 0.0
C492 C 0.23205 0.36583 0.68255 0.0
C493 C 0.28208 0.43959 0.68783 0.0
C494 C 0.22235 0.22105 0.72199 0.0
C495 C 0.2728 0.34592 0.70724 0.0
H496 H 0.30439 0.05984 0.83531 0.0
H497 H 0.23462 0.09459 0.79668 0.0
H498 H 0.24853 0.04524 0.8124 0.0
H499 H 0.33432 0.17707 0.82813 0.0
H500 H 0.2443 0.45347 0.6688 0.0
H501 H 0.31486 0.41902 0.7069 0.0
H502 H 0.2125 0.33744 0.68069 0.0
H503 H 0.30143 0.46804 0.68974 0.0
Tb504 Tb 0.73973 0.28592 0.75335 0.0
C505 C 0.78801 0.19445 0.81975 0.0
N506 N 0.80441 0.22995 0.81232 0.0
C507 C 0.82004 0.2523 0.86523 0.0
C508 C 0.78457 0.18707 0.85083 0.0
C509 C 0.82294 0.25805 0.83401 0.0
C510 C 0.79999 0.21683 0.87386 0.0
C511 C 0.75882 0.12795 0.80248 0.0
C512 C 0.77588 0.1651 0.79585 0.0
C513 C 0.75401 0.1207 0.8336 0.0
C514 C 0.76691 0.15017 0.85771 0.0
Tb515 Tb 0.80492 0.23521 0.76064 0.0
N516 N 0.78029 0.17321 0.76608 0.0
C517 C 0.74695 0.09928 0.77763 0.0
C518 C 0.76931 0.14535 0.74164 0.0
C519 C 0.75244 0.10802 0.74707 0.0
H520 H 0.84099 0.2847 0.82744 0.0
H521 H 0.74361 0.086 0.72769 0.0
H522 H 0.69927 0.23406 0.6892 0.0
H523 H 0.81145 0.43491 0.77791 0.0
H524 H 0.77369 0.1518 0.71794 0.0
H525 H 0.73369 0.07035 0.78175 0.0
H526 H 0.77796 0.37093 0.79143 0.0
H527 H 0.83393 0.27504 0.88247 0.0
H528 H 0.74071 0.09236 0.83923 0.0
H529 H 0.76367 0.14405 0.88151 0.0
H530 H 0.70526 0.23955 0.63322 0.0
H531 H 0.79803 0.21236 0.898 0.0
H532 H 0.82045 0.44643 0.72266 0.0
N533 N 0.73943 0.28772 0.70103 0.0
C534 C 0.75766 0.32202 0.69153 0.0
C535 C 0.72094 0.26272 0.6492 0.0
C536 C 0.76063 0.32715 0.65987 0.0
C537 C 0.71859 0.25924 0.68094 0.0
C538 C 0.74282 0.29656 0.63844 0.0
N539 N 0.76847 0.34658 0.74425 0.0
C540 C 0.78183 0.37568 0.76726 0.0
C541 C 0.79123 0.38849 0.7051 0.0
C542 C 0.77219 0.35253 0.71389 0.0
C543 C 0.80561 0.41835 0.72846 0.0
C544 C 0.80066 0.41195 0.75969 0.0
H545 H 0.74436 0.2993 0.61391 0.0
H546 H 0.78317 0.36715 0.62654 0.0
H547 H 0.81036 0.42075 0.66609 0.0
O548 O 0.71024 0.32055 0.76764 0.0
O549 O 0.79704 0.30996 0.7378 0.0
O550 O 0.81083 0.25894 0.71749 0.0
O551 O 0.6836 0.26145 0.7549 0.0
O552 O 0.76392 0.30326 0.798 0.0
O553 O 0.81692 0.29303 0.78443 0.0
O554 O 0.83881 0.20505 0.74739 0.0
O555 O 0.74827 0.21017 0.77755 0.0
O556 O 0.73131 0.26003 0.79594 0.0
O557 O 0.86054 0.26496 0.75827 0.0
O558 O 0.77886 0.21693 0.71673 0.0
O559 O 0.72595 0.22709 0.73135 0.0
C560 C 0.81499 0.29371 0.71702 0.0
C561 C 0.6605 0.28957 0.80044 0.0
C562 C 0.66133 0.30438 0.85733 0.0
C563 C 0.62411 0.28432 0.86033 0.0
C564 C 0.62363 0.26974 0.80384 0.0
C565 C 0.60559 0.26681 0.83377 0.0
C566 C 0.67923 0.30565 0.8272 0.0
C567 C 0.79729 0.31028 0.80228 0.0
C568 C 0.6802 0.29222 0.76927 0.0
C569 C 0.78024 0.3628 0.65083 0.0
C570 C 0.79555 0.39338 0.67338 0.0
C571 C 0.7286 0.22573 0.79698 0.0
C572 C 0.88321 0.23885 0.71147 0.0
C573 C 0.87617 0.22138 0.65552 0.0
C574 C 0.90876 0.25065 0.64918 0.0
C575 C 0.91577 0.26788 0.70491 0.0
C576 C 0.86354 0.21615 0.68662 0.0
C577 C 0.92838 0.27378 0.67383 0.0
C578 C 0.74502 0.20921 0.71341 0.0
C579 C 0.86651 0.2355 0.74375 0.0
H580 H 0.60888 0.28319 0.88301 0.0
H581 H 0.6089 0.2565 0.78344 0.0
H582 H 0.57702 0.25166 0.83641 0.0
H583 H 0.70793 0.31969 0.82448 0.0
H584 H 0.91941 0.25513 0.62527 0.0
H585 H 0.93086 0.28647 0.72378 0.0
H586 H 0.83769 0.19454 0.69137 0.0
H587 H 0.95343 0.29633 0.66882 0.0
Tb588 Tb 0.73543 0.74324 0.72555 0.0
C589 C 0.83997 0.85397 0.82492 0.0
N590 N 0.8485 0.83749 0.79623 0.0
C591 C 0.8976 0.89458 0.78709 0.0
C592 C 0.85974 0.89168 0.83572 0.0
C593 C 0.87734 0.85699 0.77753 0.0
C594 C 0.88865 0.91209 0.81623 0.0
C595 C 0.80245 0.84816 0.87408 0.0
C596 C 0.81175 0.83253 0.84384 0.0
C597 C 0.82174 0.88587 0.88482 0.0
C598 C 0.8503 0.90759 0.86568 0.0
Tb599 Tb 0.81347 0.77599 0.78331 0.0
N600 N 0.79324 0.79635 0.83235 0.0
C601 C 0.77412 0.82535 0.89258 0.0
C602 C 0.76692 0.77354 0.85095 0.0
C603 C 0.75652 0.78777 0.88106 0.0
H604 H 0.88549 0.84337 0.75564 0.0
H605 H 0.73527 0.76958 0.89552 0.0
H606 H 0.66259 0.679 0.75626 0.0
H607 H 0.81214 0.74135 0.61311 0.0
H608 H 0.75445 0.74427 0.84309 0.0
H609 H 0.76607 0.83628 0.91594 0.0
H610 H 0.79522 0.7698 0.66518 0.0
H611 H 0.92039 0.90988 0.77212 0.0
H612 H 0.81491 0.89845 0.90794 0.0
H613 H 0.86511 0.93656 0.87436 0.0
H614 H 0.62562 0.61262 0.742 0.0
H615 H 0.90455 0.94114 0.82366 0.0
H616 H 0.77841 0.67468 0.59465 0.0
N617 N 0.69858 0.68193 0.71499 0.0
C618 C 0.70597 0.66374 0.68672 0.0
C619 C 0.64834 0.62658 0.72634 0.0
C620 C 0.68496 0.62602 0.67723 0.0
C621 C 0.66977 0.66412 0.73458 0.0
C622 C 0.65606 0.60736 0.69761 0.0
N623 N 0.75409 0.71964 0.67716 0.0
C624 C 0.78107 0.74066 0.65789 0.0
C625 C 0.7425 0.666 0.63707 0.0
C626 C 0.73431 0.68341 0.6669 0.0
C627 C 0.77117 0.68703 0.61773 0.0
C628 C 0.79037 0.72462 0.62812 0.0
H629 H 0.63924 0.57836 0.6912 0.0
H630 H 0.67742 0.57933 0.63997 0.0
H631 H 0.72784 0.61434 0.60482 0.0
O632 O 0.72828 0.77977 0.69924 0.0
O633 O 0.76969 0.7095 0.71937 0.0
O634 O 0.8243 0.74976 0.7361 0.0
O635 O 0.68328 0.73649 0.71899 0.0
O636 O 0.77921 0.79847 0.72433 0.0
O637 O 0.83046 0.79472 0.73693 0.0
O638 O 0.82152 0.73874 0.8082 0.0
O639 O 0.77959 0.81016 0.78936 0.0
O640 O 0.72491 0.77002 0.77268 0.0
O641 O 0.86591 0.78391 0.79008 0.0
O642 O 0.76979 0.7205 0.78408 0.0
O643 O 0.71914 0.72598 0.77221 0.0
C644 C 0.80435 0.71867 0.71997 0.0
C645 C 0.67525 0.75525 0.67314 0.0
C646 C 0.63999 0.77154 0.6419 0.0
C647 C 0.6347 0.73767 0.62196 0.0
C648 C 0.6697 0.72163 0.65285 0.0
C649 C 0.64975 0.71305 0.6273 0.0
C650 C 0.66073 0.78046 0.66731 0.0
C651 C 0.81409 0.8078 0.72085 0.0
C652 C 0.69366 0.76323 0.7017 0.0
C653 C 0.69322 0.60834 0.64766 0.0
C654 C 0.7219 0.62828 0.62761 0.0
C655 C 0.74492 0.80104 0.78891 0.0
C656 C 0.87381 0.76357 0.83529 0.0
C657 C 0.90672 0.74532 0.86747 0.0
C658 C 0.91279 0.77937 0.8873 0.0
C659 C 0.88014 0.79737 0.8555 0.0
C660 C 0.88676 0.73729 0.84164 0.0
C661 C 0.89929 0.80506 0.88145 0.0
C662 C 0.73489 0.71101 0.78696 0.0
C663 C 0.85601 0.75635 0.80646 0.0
H664 H 0.61903 0.73037 0.60214 0.0
H665 H 0.68007 0.70164 0.65701 0.0
H666 H 0.64553 0.68697 0.61184 0.0
H667 H 0.66455 0.80633 0.68305 0.0
H668 H 0.92792 0.78602 0.90739 0.0
H669 H 0.87097 0.81817 0.85098 0.0
H670 H 0.88233 0.71124 0.82601 0.0
H671 H 0.90412 0.83127 0.89683 0.0
C672 C 0.91783 0.06587 0.51101 0.0
C673 C 0.98747 0.06146 0.4339 0.0
C674 C 0.98388 0.93264 0.46059 0.0
Mg675 Mg 1.00037 0.08613 0.50355 0.0
O676 O 0.98485 0.0363 0.51105 0.0
Mg677 Mg 0.94827 0.99693 0.48449 0.0
Mg678 Mg 1.0218 0.01334 0.50407 0.0
O679 O 0.05898 0.99083 0.49684 0.0
Mg680 Mg 0.04552 0.94062 0.5022 0.0
Mg681 Mg 0.09577 0.03024 0.52313 0.0
C682 C 0.06062 0.09417 0.54697 0.0
C683 C 0.0911 0.06521 0.4621 0.0
O684 O 0.9117 0.03103 0.50151 0.0
O685 O 0.94923 0.0905 0.51486 0.0
O686 O 0.9668 0.02959 0.44194 0.0
O687 O 1.00696 0.08733 0.4533 0.0
O688 O 0.0432 0.11011 0.53622 0.0
O689 O 0.05488 0.05916 0.53916 0.0
C690 C 0.95222 0.96288 0.54651 0.0
O691 O 0.98652 0.97645 0.5421 0.0
O692 O 0.93257 0.96731 0.52841 0.0
O693 O 0.13337 0.99802 0.5037 0.0
O694 O 0.0974 0.93838 0.48841 0.0
O695 O 0.07879 0.99577 0.5645 0.0
C696 C 0.12834 0.96392 0.49221 0.0
O697 O 0.03953 0.93786 0.55208 0.0
O698 O 1.00233 0.91697 0.47013 0.0
C699 C 0.05897 0.96325 0.57178 0.0
O700 O 0.98865 0.96725 0.46959 0.0
O701 O 0.05683 0.04996 0.46568 0.0
O702 O 0.11058 0.06168 0.48082 0.0
C703 C 0.43716 0.08291 0.06577 0.0
C704 C 0.47422 0.07843 0.96782 0.0
C705 C 0.46022 0.93644 0.96995 0.0
Mg706 Mg 0.51109 0.09066 0.02777 0.0
O707 O 0.49291 0.03862 0.02943 0.0
Mg708 Mg 0.44482 1.00853 0.01366 0.0
Mg709 Mg 0.52092 1.00819 0.00556 0.0
O710 O 0.54925 0.97802 0.98167 0.0
Mg711 Mg 0.53156 0.92633 0.98412 0.0
Mg712 Mg 0.5973 1.00829 0.99767 0.0
C713 C 0.58193 0.07935 0.0415 0.0
C714 C 0.58043 0.05907 0.95542 0.0
O715 O 0.42318 0.04936 0.05127 0.0
O716 O 0.47047 0.10295 0.06099 0.0
O717 O 0.45325 0.04711 0.9766 0.0
O718 O 0.50109 0.09995 0.98274 0.0
O719 O 0.56502 0.10108 0.04088 0.0
O720 O 0.56892 0.044 0.03212 0.0
C721 C 0.46167 0.9581 0.05642 0.0
O722 O 0.49404 0.968 0.04372 0.0
O723 O 0.43913 0.97004 0.04923 0.0
O724 O 0.61955 0.96805 0.96 0.0
O725 O 0.57247 0.91405 0.95123 0.0
O726 O 0.58939 0.96993 0.0344 0.0
C727 C 0.60565 0.93425 0.94596 0.0
O728 O 0.54071 0.91797 0.0297 0.0
O729 O 0.47792 0.91556 0.97081 0.0
C730 C 0.56818 0.93919 0.04394 0.0
O731 O 0.47267 0.97195 0.97918 0.0
O732 O 0.54779 0.04845 0.96745 0.0
O733 O 0.60295 0.04724 0.9628 0.0
C734 C 0.94773 0.59054 0.06448 0.0
C735 C 0.99164 0.58994 0.96826 0.0
C736 C 0.9586 0.44196 0.96591 0.0
Mg737 Mg 1.02127 0.59239 0.02999 0.0
O738 O 0.99766 0.54047 0.02865 0.0
Mg739 Mg 0.95055 0.51669 0.00996 0.0
Mg740 Mg 1.02216 0.50672 0.00567 0.0
O741 O 0.04662 0.47298 0.98258 0.0
Mg742 Mg 1.02289 0.421 0.98105 0.0
Mg743 Mg 0.09363 0.49667 1.00143 0.0
C744 C 0.08564 0.5716 0.04525 0.0
C745 C 0.08816 0.5539 0.95819 0.0
O746 O 0.93208 0.55923 0.04739 0.0
O747 O 0.98181 0.60728 0.06242 0.0
O748 O 0.96676 0.55912 0.97439 0.0
O749 O 1.01767 0.6067 0.98531 0.0
O750 O 0.07213 0.59624 0.04461 0.0
O751 O 0.06965 0.53667 0.03521 0.0
C752 C 0.95633 0.45982 0.05348 0.0
O753 O 0.98914 0.467 0.04267 0.0
O754 O 0.93729 0.47505 0.04463 0.0
O755 O 0.1122 0.45416 0.96389 0.0
O756 O 0.06252 0.40612 0.94877 0.0
O757 O 0.07683 0.45414 0.03699 0.0
C758 C 0.09661 0.42288 0.94674 0.0
O759 O 0.02583 0.40675 0.02598 0.0
O760 O 0.97209 0.41722 0.96629 0.0
C761 C 0.0517 0.42351 0.04321 0.0
O762 O 0.97463 0.47677 0.97624 0.0
O763 O 0.05526 0.54648 0.96875 0.0
O764 O 0.10727 0.53873 0.96701 0.0
C765 C 0.45832 0.57733 0.02325 0.0
C766 C 0.48921 0.55761 0.93635 0.0
C767 C 0.47944 0.42888 0.96525 0.0
Mg768 Mg 0.52239 0.58662 1.00106 0.0
O769 O 0.49455 0.53507 0.01193 0.0
Mg770 Mg 0.45001 0.49347 0.9886 0.0
Mg771 Mg 0.52873 0.5071 1.00464 0.0
O772 O 0.56308 0.47936 0.99727 0.0
Mg773 Mg 0.53572 0.42732 0.00684 0.0
Mg774 Mg 0.60713 0.52084 0.02144 0.0
C775 C 0.57787 0.5852 0.04367 0.0
C776 C 0.59971 0.55664 0.96139 0.0
O777 O 0.46777 0.54905 0.02041 0.0
O778 O 0.48329 0.6093 0.02295 0.0
O779 O 0.46659 0.52831 0.94757 0.0
O780 O 0.51548 0.58149 0.95124 0.0
O781 O 0.56669 0.60446 0.02999 0.0
O782 O 0.5664 0.54932 0.03827 0.0
C783 C 0.45806 0.45809 0.04862 0.0
O784 O 0.49233 0.47225 0.04393 0.0
O785 O 0.43804 0.46233 0.03084 0.0
O786 O 0.59036 0.46603 0.9886 0.0
O787 O 0.57569 0.40578 0.98501 0.0
O788 O 0.58957 0.48532 0.06238 0.0
C789 C 0.6003 0.438 0.98499 0.0
O790 O 0.54109 0.43183 0.05654 0.0
O791 O 0.49118 0.40967 0.9784 0.0
C792 C 0.56641 0.45552 0.07253 0.0
O793 O 0.4907 0.46478 0.97104 0.0
O794 O 0.56541 0.54201 0.96558 0.0
O795 O 0.61962 0.55264 0.97946 0.0
C796 C 0.94205 0.58291 0.5642 0.0
C797 C 0.98197 0.57776 0.46677 0.0
C798 C 0.96678 0.43773 0.46949 0.0
Mg799 Mg 1.0165 0.58998 0.5275 0.0
O800 O 0.99812 0.53839 0.53045 0.0
Mg801 Mg 0.95075 0.50866 0.51305 0.0
Mg802 Mg 0.02674 0.50815 0.50744 0.0
O803 O 0.05504 0.47791 0.48412 0.0
Mg804 Mg 0.03687 0.42545 0.48311 0.0
Mg805 Mg 0.10242 0.50717 0.50131 0.0
C806 C 0.08679 0.57939 0.54359 0.0
C807 C 0.08844 0.55972 0.45884 0.0
O808 O 0.92809 0.54915 0.55009 0.0
O809 O 0.97538 0.60283 0.55943 0.0
O810 O 0.96026 0.54714 0.47615 0.0
O811 O 1.00909 0.59876 0.48152 0.0
O812 O 0.06946 0.60026 0.54165 0.0
O813 O 0.07414 0.54367 0.53531 0.0
C814 C 0.96497 0.45707 0.55626 0.0
O815 O 0.99796 0.4673 0.5451 0.0
O816 O 0.94334 0.46951 0.54807 0.0
O817 O 0.12517 0.46723 0.46355 0.0
O818 O 0.07805 0.41541 0.44913 0.0
O819 O 0.09165 0.46705 0.53732 0.0
C820 C 0.11161 0.43521 0.44653 0.0
O821 O 0.04522 0.4136 0.52769 0.0
O822 O 0.98347 0.41571 0.4696 0.0
C823 C 0.07059 0.43492 0.54439 0.0
O824 O 0.97979 0.47292 0.47949 0.0
O825 O 0.05543 0.54907 0.46992 0.0
O826 O 0.11016 0.54721 0.46682 0.0
C827 C 0.4485 0.09259 0.56273 0.0
C828 C 0.49542 0.09331 0.46682 0.0
C829 C 0.46172 0.94478 0.46337 0.0
Mg830 Mg 0.52275 0.09488 0.5295 0.0
O831 O 0.49893 0.04291 0.52743 0.0
Mg832 Mg 0.45243 0.01939 0.50765 0.0
Mg833 Mg 0.52392 0.00938 0.50522 0.0
O834 O 0.54869 0.97554 0.48308 0.0
Mg835 Mg 0.52467 0.92358 0.4812 0.0
Mg836 Mg 0.59478 0.99853 0.50328 0.0
C837 C 0.5861 0.07368 0.54675 0.0
C838 C 0.592 0.05664 0.45948 0.0
O839 O 0.43314 0.06158 0.54513 0.0
O840 O 0.48257 0.10927 0.56124 0.0
O841 O 0.47018 0.0625 0.47248 0.0
O842 O 0.52085 0.10982 0.48455 0.0
O843 O 0.57282 0.09837 0.54553 0.0
O844 O 0.57031 0.03878 0.53639 0.0
C845 C 0.45646 0.96192 0.55144 0.0
O846 O 0.48951 0.96938 0.5415 0.0
O847 O 0.43766 0.97698 0.542 0.0
O848 O 0.6141 0.95605 0.46624 0.0
O849 O 0.56474 0.90852 0.44988 0.0
O850 O 0.57661 0.95573 0.53853 0.0
C851 C 0.59882 0.92499 0.44869 0.0
O852 O 0.52604 0.90846 0.52616 0.0
O853 O 0.47499 0.92014 0.4647 0.0
C854 C 0.55131 0.92495 0.54404 0.0
O855 O 0.47728 0.97966 0.47404 0.0
O856 O 0.55898 0.05003 0.46926 0.0
O857 O 0.6097 0.04035 0.46893 0.0
H858 H 0.23915 0.15342 0.30535 0.0
H859 H 0.17078 0.21691 0.31902 0.0
H860 H 0.20255 0.11672 0.34645 0.0
H861 H 0.13378 0.17965 0.36003 0.0
H862 H 0.16267 0.10144 0.44908 0.0
H863 H 0.19366 0.13482 0.40496 0.0
H864 H 0.09289 0.1118 0.36995 0.0
H865 H 0.06144 0.07741 0.41416 0.0
C866 C 0.21614 0.15936 0.31696 0.0
C867 C 0.20823 0.18849 0.30927 0.0
C868 C 0.19521 0.13837 0.34053 0.0
C869 C 0.16555 0.14562 0.35671 0.0
C870 C 0.15644 0.1734 0.34792 0.0
C871 C 0.17766 0.19473 0.32448 0.0
C872 C 0.14687 0.10333 0.4321 0.0
C873 C 0.10935 0.08671 0.43541 0.0
C874 C 0.16477 0.12239 0.40667 0.0
C875 C 0.14575 0.12569 0.38385 0.0
C876 C 0.10823 0.10981 0.38727 0.0
C877 C 0.09022 0.09021 0.41266 0.0
H878 H 0.92194 0.14812 0.28955 0.0
H879 H 0.84025 0.04478 0.31446 0.0
H880 H 0.96183 0.14185 0.32316 0.0
H881 H 0.87969 0.03849 0.34754 0.0
H882 H 0.96153 0.01298 0.38204 0.0
H883 H 0.93364 0.02467 0.34162 0.0
H884 H 0.96915 0.14202 0.37893 0.0
H885 H 0.99781 0.13043 0.41913 0.0
C886 C 0.9124 0.12426 0.30232 0.0
C887 C 0.87806 0.09664 0.29887 0.0
C888 C 0.9353 0.12058 0.32147 0.0
C889 C 0.92434 0.08918 0.33747 0.0
C890 C 0.88956 0.06238 0.33476 0.0
C891 C 0.86682 0.06607 0.31582 0.0
C892 C 0.96445 0.04151 0.38103 0.0
C893 C 0.98158 0.07066 0.40409 0.0
C894 C 0.94805 0.04817 0.35807 0.0
C895 C 0.94816 0.08409 0.35762 0.0
C896 C 0.96837 0.11398 0.37868 0.0
C897 C 0.98502 0.10734 0.40165 0.0
H898 H 0.83759 0.87168 0.31645 0.0
H899 H 0.86495 0.77445 0.31073 0.0
H900 H 0.87669 0.90332 0.35825 0.0
H901 H 0.90111 0.80432 0.35423 0.0
H902 H 0.99074 0.87926 0.41348 0.0
H903 H 0.95363 0.84883 0.37033 0.0
H904 H 0.88219 0.90618 0.41094 0.0
H905 H 0.92059 0.93794 0.4531 0.0
C906 C 0.85179 0.85696 0.32422 0.0
C907 C 0.84764 0.82028 0.31052 0.0
C908 C 0.87384 0.87488 0.34859 0.0
C909 C 0.89194 0.85638 0.36017 0.0
C910 C 0.88809 0.81985 0.34598 0.0
C911 C 0.86668 0.8023 0.32124 0.0
C912 C 0.96689 0.88504 0.4133 0.0
C913 C 0.95869 0.91113 0.43665 0.0
C914 C 0.94545 0.86751 0.38853 0.0
C915 C 0.91472 0.87496 0.38681 0.0
C916 C 0.90603 0.90032 0.41083 0.0
C917 C 0.92793 0.91843 0.43525 0.0
H918 H 0.13673 0.7797 0.41711 0.0
H919 H 0.21335 0.8502 0.35232 0.0
H920 H 0.15387 0.83118 0.45881 0.0
H921 H 0.23379 0.89915 0.39467 0.0
H922 H 0.15081 0.92284 0.52137 0.0
H923 H 0.18201 0.88228 0.49433 0.0
H924 H 0.20145 0.93679 0.41161 0.0
H925 H 0.17222 0.97797 0.43941 0.0
C926 C 0.15788 0.80559 0.41171 0.0
C927 C 0.1716 0.81105 0.38062 0.0
C928 C 0.16858 0.8351 0.43602 0.0
C929 C 0.194 0.87034 0.42978 0.0
C930 C 0.21285 0.87307 0.40002 0.0
C931 C 0.20115 0.84425 0.37551 0.0
C932 C 0.16373 0.9273 0.49798 0.0
C933 C 0.15886 0.95276 0.48203 0.0
C934 C 0.18127 0.90389 0.48236 0.0
C935 C 0.1927 0.90479 0.45026 0.0
C936 C 0.1928 0.93463 0.43617 0.0
C937 C 0.17588 0.95844 0.45202 0.0
H938 H 0.18006 0.94968 0.71427 0.0
H939 H 0.16208 0.85219 0.64477 0.0
H940 H 0.13543 0.96451 0.69369 0.0
H941 H 0.1189 0.86769 0.62274 0.0
H942 H 0.03534 0.89306 0.58995 0.0
H943 H 0.06354 0.87356 0.62534 0.0
H944 H 0.13091 0.98917 0.65098 0.0
H945 H 0.10169 1.00857 0.61713 0.0
C946 C 0.16631 0.9314 0.69459 0.0
C947 C 0.17437 0.89993 0.68097 0.0
C948 C 0.14089 0.93993 0.68261 0.0
C949 C 0.12348 0.91754 0.65627 0.0
C950 C 0.13106 0.88533 0.64332 0.0
C951 C 0.15607 0.87653 0.65568 0.0
C952 C 0.05523 0.91442 0.60404 0.0
C953 C 0.06665 0.95238 0.60011 0.0
C954 C 0.07189 0.90317 0.62401 0.0
C955 C 0.10042 0.92958 0.64044 0.0
C956 C 0.10915 0.9678 0.63889 0.0
C957 C 0.09231 0.97903 0.61924 0.0
H958 H 0.20063 0.14807 0.6938 0.0
H959 H 0.18544 0.25171 0.69537 0.0
H960 H 0.16105 0.11869 0.65236 0.0
H961 H 0.14809 0.22326 0.65222 0.0
H962 H 0.05652 0.15128 0.59187 0.0
H963 H 0.09342 0.18132 0.63545 0.0
H964 H 0.15954 0.11677 0.59903 0.0
H965 H 0.12181 0.08598 0.55652 0.0
C966 C 0.18849 0.16451 0.68565 0.0
C967 C 0.19589 0.20214 0.69839 0.0
C968 C 0.16631 0.14785 0.66127 0.0
C969 C 0.15148 0.16857 0.64845 0.0
C970 C 0.1585 0.2061 0.66158 0.0
C971 C 0.18019 0.22257 0.68633 0.0
C972 C 0.0792 0.14386 0.59305 0.0
C973 C 0.08597 0.11591 0.57085 0.0
C974 C 0.10044 0.1611 0.61808 0.0
C975 C 0.12937 0.15124 0.62124 0.0
C976 C 0.13691 0.12436 0.59815 0.0
C977 C 0.11534 0.10676 0.57349 0.0
H978 H 0.84553 0.14598 0.65396 0.0
H979 H 0.86128 0.23441 0.60013 0.0
H980 H 0.82769 0.10029 0.6091 0.0
H981 H 0.84189 0.1878 0.55434 0.0
H982 H 0.91889 0.13124 0.4988 0.0
H983 H 0.88124 0.16359 0.52558 0.0
H984 H 0.81 0.06248 0.56332 0.0
H985 H 0.84956 0.03039 0.53695 0.0
C986 C 0.84384 0.1556 0.63268 0.0
C987 C 0.85661 0.19395 0.63009 0.0
C988 C 0.83305 0.12905 0.60664 0.0
C989 C 0.83538 0.14031 0.57723 0.0
C990 C 0.84174 0.17824 0.57619 0.0
C991 C 0.85314 0.20503 0.60229 0.0
C992 C 0.89466 0.11565 0.51222 0.0
C993 C 0.88821 0.07929 0.51768 0.0
C994 C 0.87244 0.13405 0.52733 0.0
C995 C 0.84379 0.11651 0.54872 0.0
C996 C 0.83314 0.07752 0.54853 0.0
C997 C 0.85569 0.05904 0.53345 0.0
H998 H 0.79115 0.8432 0.68479 0.0
H999 H 0.88588 0.82848 0.702 0.0
H1000 H 0.82486 0.87993 0.64343 0.0
H1001 H 0.92066 0.86867 0.66303 0.0
H1002 H 0.96878 0.91123 0.56925 0.0
H1003 H 0.93624 0.87468 0.61158 0.0
H1004 H 0.86401 0.93441 0.62868 0.0
H1005 H 0.89505 0.96834 0.58483 0.0
C1006 C 0.81944 0.84861 0.68036 0.0
C1007 C 0.83573 0.83323 0.69733 0.0
C1008 C 0.83909 0.87019 0.65664 0.0
C1009 C 0.876 0.87804 0.64961 0.0
C1010 C 0.89236 0.86311 0.66707 0.0
C1011 C 0.87244 0.84059 0.69017 0.0
C1012 C 0.946 0.91648 0.58225 0.0
C1013 C 0.93435 0.94246 0.57367 0.0
C1014 C 0.92728 0.89565 0.60676 0.0
C1015 C 0.89693 0.90102 0.62391 0.0
C1016 C 0.88631 0.9282 0.61575 0.0
C1017 C 0.90438 0.94812 0.5907 0.0
H1018 H 0.32206 0.22633 0.15743 0.0
H1019 H 0.30946 0.15508 0.22675 0.0
H1020 H 0.35406 0.19243 0.12067 0.0
H1021 H 0.3414 0.12082 0.18965 0.0
H1022 H 0.37175 0.04821 0.09806 0.0
H1023 H 0.33557 0.07824 0.13479 0.0
H1024 H 0.41467 0.18689 0.11992 0.0
H1025 H 0.45085 0.15731 0.08399 0.0
C1026 C 0.32571 0.20314 0.16474 0.0
C1027 C 0.31309 0.19348 0.19511 0.0
C1028 C 0.34429 0.18382 0.14369 0.0
C1029 C 0.35039 0.15391 0.15219 0.0
C1030 C 0.33698 0.14355 0.18227 0.0
C1031 C 0.31887 0.16334 0.20359 0.0
C1032 C 0.38138 0.07849 0.10265 0.0
C1033 C 0.41433 0.10024 0.08801 0.0
C1034 C 0.36073 0.09568 0.1238 0.0
C1035 C 0.37215 0.13501 0.1302 0.0
C1036 C 0.40489 0.1566 0.11534 0.0
C1037 C 0.42576 0.13952 0.09483 0.0
H1038 H 0.82419 0.27602 0.15743 0.0
H1039 H 0.86298 0.3709 0.22854 0.0
H1040 H 0.86127 0.31368 0.11698 0.0
H1041 H 0.90058 0.40879 0.18771 0.0
H1042 H 0.98695 0.44546 0.0994 0.0
H1043 H 0.95577 0.40572 0.14089 0.0
H1044 H 0.8561 0.37481 0.10111 0.0
H1045 H 0.88665 0.41478 0.06052 0.0
C1046 C 0.84095 0.30487 0.16442 0.0
C1047 C 0.84069 0.32061 0.1961 0.0
C1048 C 0.86212 0.32638 0.14127 0.0
C1049 C 0.88387 0.36402 0.14928 0.0
C1050 C 0.88428 0.37969 0.18102 0.0
C1051 C 0.86257 0.35821 0.20425 0.0
C1052 C 0.95844 0.42992 0.09948 0.0
C1053 C 0.93918 0.43339 0.07685 0.0
C1054 C 0.94064 0.40747 0.12327 0.0
C1055 C 0.90355 0.38742 0.12418 0.0
C1056 C 0.88469 0.38995 0.10091 0.0
C1057 C 0.9022 0.4129 0.07773 0.0
H1058 H 0.70771 0.89916 0.14926 0.0
H1059 H 0.60439 0.83697 0.19342 0.0
H1060 H 0.67884 0.91683 0.11308 0.0
H1061 H 0.57549 0.85535 0.15758 0.0
H1062 H 0.54023 0.86971 0.06423 0.0
H1063 H 0.56504 0.84782 0.10106 0.0
H1064 H 0.64537 0.95866 0.11849 0.0
H1065 H 0.62095 0.98046 0.08204 0.0
C1066 C 0.67883 0.88893 0.15104 0.0
C1067 C 0.6584 0.86688 0.17438 0.0
C1068 C 0.66227 0.8994 0.13054 0.0
C1069 C 0.62485 0.88791 0.13273 0.0
C1070 C 0.60433 0.86466 0.15527 0.0
C1071 C 0.62092 0.8544 0.17595 0.0
C1072 C 0.56279 0.88952 0.07634 0.0
C1073 C 0.57875 0.92676 0.06987 0.0
C1074 C 0.57707 0.87695 0.09737 0.0
C1075 C 0.60765 0.90133 0.1122 0.0
C1076 C 0.62239 0.93892 0.10686 0.0
C1077 C 0.60812 0.95147 0.08609 0.0
H1078 H 0.17511 0.65276 0.21232 0.0
H1079 H 0.27268 0.69464 0.15258 0.0
H1080 H 0.14435 0.61415 0.16691 0.0
H1081 H 0.24141 0.65668 0.1067 0.0
H1082 H 0.14081 0.6392 0.04748 0.0
H1083 H 0.18576 0.66507 0.08525 0.0
H1084 H 0.14719 0.55872 0.12035 0.0
H1085 H 0.10275 0.53239 0.0819 0.0
C1086 C 0.19008 0.65313 0.18949 0.0
C1087 C 0.22618 0.67656 0.18588 0.0
C1088 C 0.17256 0.63091 0.16356 0.0
C1089 C 0.19055 0.63235 0.13335 0.0
C1090 C 0.22703 0.65494 0.12979 0.0
C1091 C 0.24488 0.67649 0.15597 0.0
C1092 C 0.14278 0.62097 0.0625 0.0
C1093 C 0.11816 0.58386 0.06188 0.0
C1094 C 0.16857 0.63575 0.08403 0.0
C1095 C 0.16975 0.61394 0.10581 0.0
C1096 C 0.14679 0.57608 0.10378 0.0
C1097 C 0.12151 0.561 0.08169 0.0
H1098 H 0.29184 0.78252 0.85672 0.0
H1099 H 0.348 0.87915 0.80872 0.0
H1100 H 0.31986 0.81691 0.90428 0.0
H1101 H 0.37801 0.91331 0.85578 0.0
H1102 H 0.4211 0.86225 0.95623 0.0
H1103 H 0.37695 0.83346 0.91887 0.0
H1104 H 0.37931 0.94243 0.90892 0.0
H1105 H 0.42511 0.97159 0.9458 0.0
C1106 C 0.31024 0.81129 0.8565 0.0
C1107 C 0.31836 0.82811 0.82908 0.0
C1108 C 0.32642 0.831 0.88368 0.0
C1109 C 0.35191 0.86769 0.88382 0.0
C1110 C 0.35839 0.88524 0.85675 0.0
C1111 C 0.34146 0.86567 0.82967 0.0
C1112 C 0.41178 0.88015 0.94661 0.0
C1113 C 0.42711 0.91928 0.95368 0.0
C1114 C 0.38608 0.86354 0.92522 0.0
C1115 C 0.37465 0.88555 0.91045 0.0
C1116 C 0.38796 0.92463 0.91936 0.0
C1117 C 0.41391 0.94134 0.94081 0.0
H1118 H 0.17222 0.26092 0.82429 0.0
H1119 H 0.25762 0.36699 0.81192 0.0
H1120 H 0.13995 0.29286 0.8624 0.0
H1121 H 0.22431 0.39928 0.84866 0.0
H1122 H 0.16979 0.44295 0.93901 0.0
H1123 H 0.20431 0.4115 0.90252 0.0
H1124 H 0.10697 0.33139 0.86546 0.0
H1125 H 0.07264 0.36191 0.9023 0.0
C1126 C 0.18426 0.29105 0.82978 0.0
C1127 C 0.21783 0.31118 0.81526 0.0
C1128 C 0.16543 0.30954 0.85136 0.0
C1129 C 0.17933 0.34885 0.85871 0.0
C1130 C 0.21288 0.36901 0.84404 0.0
C1131 C 0.23187 0.35044 0.82265 0.0
C1132 C 0.15578 0.41864 0.92307 0.0
C1133 C 0.11832 0.40496 0.92386 0.0
C1134 C 0.17561 0.40064 0.90198 0.0
C1135 C 0.15853 0.36859 0.88105 0.0
C1136 C 0.12114 0.35539 0.8816 0.0
C1137 C 0.10138 0.37318 0.9027 0.0
H1138 H 0.69606 0.14976 0.79192 0.0
H1139 H 0.70061 0.25101 0.8536 0.0
H1140 H 0.65435 0.11231 0.8306 0.0
H1141 H 0.65856 0.21341 0.89234 0.0
H1142 H 0.63461 0.12563 0.96388 0.0
H1143 H 0.66577 0.16851 0.92528 0.0
H1144 H 0.59033 0.09854 0.85891 0.0
H1145 H 0.55853 0.05586 0.89816 0.0
C1146 C 0.68796 0.16402 0.81368 0.0
C1147 C 0.70175 0.20333 0.81981 0.0
C1148 C 0.66374 0.14256 0.83566 0.0
C1149 C 0.65301 0.1599 0.86442 0.0
C1150 C 0.66633 0.19928 0.87035 0.0
C1151 C 0.69026 0.22078 0.84816 0.0
C1152 C 0.62416 0.12002 0.9413 0.0
C1153 C 0.59418 0.08766 0.93392 0.0
C1154 C 0.64193 0.14456 0.91925 0.0
C1155 C 0.63058 0.13681 0.88904 0.0
C1156 C 0.5997 0.1051 0.88202 0.0
C1157 C 0.58137 0.08089 0.90444 0.0
H1158 H 0.97666 0.7577 0.86904 0.0
H1159 H 0.87097 0.67394 0.88094 0.0
H1160 H 1.00187 0.71729 0.88524 0.0
H1161 H 0.89552 0.63411 0.89906 0.0
H1162 H 0.94587 0.56083 0.92197 0.0
H1163 H 0.92852 0.59561 0.89064 0.0
H1164 H 1.0065 0.69886 0.93126 0.0
H1165 H 0.02484 0.66397 0.96114 0.0
C1166 C 0.9589 0.73042 0.87503 0.0
C1167 C 0.92194 0.71887 0.87388 0.0
C1168 C 0.97323 0.70733 0.88459 0.0
C1169 C 0.95084 0.67244 0.894 0.0
C1170 C 0.91383 0.66042 0.89164 0.0
C1171 C 0.8996 0.68328 0.88144 0.0
C1172 C 0.95991 0.59088 0.92355 0.0
C1173 C 0.98656 0.60961 0.94431 0.0
C1174 C 0.94967 0.61094 0.90584 0.0
C1175 C 0.96549 0.6503 0.90872 0.0
C1176 C 0.99377 0.66864 0.92798 0.0
C1177 C 1.00434 0.64855 0.94532 0.0
H1178 H 0.05267 0.26351 0.16011 0.0
H1179 H 0.16209 0.33464 0.13805 0.0
H1180 H 0.03218 0.30357 0.13756 0.0
H1181 H 0.14188 0.37411 0.11453 0.0
H1182 H 0.09941 0.4524 0.08786 0.0
H1183 H 0.11375 0.41806 0.12176 0.0
H1184 H 0.02897 0.31665 0.08761 0.0
H1185 H 1.01391 0.35122 0.05461 0.0
C1186 C 0.07234 0.28776 0.1504 0.0
C1187 C 0.10899 0.29583 0.15069 0.0
C1188 C 0.06063 0.31069 0.13737 0.0
C1189 C 0.08529 0.34207 0.12395 0.0
C1190 C 0.122 0.35063 0.12506 0.0
C1191 C 0.13368 0.32791 0.13842 0.0
C1192 C 0.08334 0.42292 0.08806 0.0
C1193 C 0.05574 0.40451 0.06818 0.0
C1194 C 0.0918 0.40311 0.10731 0.0
C1195 C 0.07305 0.36433 0.10707 0.0
C1196 C 0.04396 0.34648 0.08867 0.0
C1197 C 0.03532 0.36636 0.0696 0.0
H1198 H 0.21574 0.74131 0.85556 0.0
H1199 H 0.19505 0.64223 0.78707 0.0
H1200 H 0.17693 0.70327 0.89523 0.0
H1201 H 0.15573 0.60414 0.82696 0.0
H1202 H 0.06068 0.56194 0.90734 0.0
H1203 H 0.09326 0.60231 0.86655 0.0
H1204 H 0.18685 0.64716 0.91759 0.0
H1205 H 0.15503 0.60625 0.95747 0.0
C1206 C 0.20267 0.71143 0.84892 0.0
C1207 C 0.20866 0.69466 0.81828 0.0
C1208 C 0.18047 0.68973 0.87162 0.0
C1209 C 0.16329 0.65088 0.86407 0.0
C1210 C 0.16846 0.63413 0.83325 0.0
C1211 C 0.19122 0.65581 0.81059 0.0
C1212 C 0.08808 0.58075 0.90988 0.0
C1213 C 0.10545 0.58093 0.93542 0.0
C1214 C 0.10671 0.60357 0.88654 0.0
C1215 C 0.14254 0.62766 0.88898 0.0
C1216 C 0.15926 0.62888 0.9152 0.0
C1217 C 0.14107 0.60546 0.93795 0.0
H1218 H 0.34701 0.16198 0.88874 0.0
H1219 H 0.37411 0.09054 0.80985 0.0
H1220 H 0.39244 0.15822 0.91751 0.0
H1221 H 0.41971 0.08717 0.8381 0.0
H1222 H 0.43813 0.03482 0.91857 0.0
H1223 H 0.40996 0.05295 0.88245 0.0
H1224 H 0.45643 0.16864 0.92315 0.0
H1225 H 0.48496 0.15023 0.95961 0.0
C1226 C 0.36366 0.14672 0.87714 0.0
C1227 C 0.35698 0.1264 0.84716 0.0
C1228 C 0.38964 0.14446 0.89359 0.0
C1229 C 0.40932 0.12181 0.88032 0.0
C1230 C 0.4046 0.10426 0.84926 0.0
C1231 C 0.37869 0.10642 0.83296 0.0
C1232 C 0.44313 0.06426 0.91935 0.0
C1233 C 0.46385 0.09106 0.94194 0.0
C1234 C 0.42703 0.07474 0.89853 0.0
C1235 C 0.43081 0.1123 0.89988 0.0
C1236 C 0.45282 0.13946 0.9216 0.0
C1237 C 0.46947 0.12897 0.94224 0.0
H1238 H 0.86368 0.36381 0.80094 0.0
H1239 H 0.76866 0.31888 0.86278 0.0
H1240 H 0.89556 0.40268 0.84573 0.0
H1241 H 0.80106 0.35705 0.90802 0.0
H1242 H 0.90381 0.37408 0.96329 0.0
H1243 H 0.85765 0.34899 0.9267 0.0
H1244 H 0.8944 0.4564 0.89368 0.0
H1245 H 0.94015 0.48193 0.93095 0.0
C1246 C 0.84947 0.36296 0.82412 0.0
C1247 C 0.81386 0.33842 0.82853 0.0
C1248 C 0.86762 0.38527 0.84971 0.0
C1249 C 0.85077 0.38286 0.88031 0.0
C1250 C 0.81459 0.3595 0.88463 0.0
C1251 C 0.79607 0.33785 0.85883 0.0
C1252 C 0.90126 0.39269 0.94898 0.0
C1253 C 0.92572 0.42988 0.94982 0.0
C1254 C 0.87474 0.37836 0.92814 0.0
C1255 C 0.87261 0.40072 0.90729 0.0
C1256 C 0.89551 0.43862 0.90955 0.0
C1257 C 0.92156 0.45323 0.93095 0.0
H1258 H 0.67305 0.78397 0.80132 0.0
H1259 H 0.77386 0.86994 0.82536 0.0
H1260 H 0.64169 0.81782 0.8377 0.0
H1261 H 0.74233 0.90261 0.86416 0.0
H1262 H 0.6716 0.96876 0.91413 0.0
H1263 H 0.70622 0.9389 0.87565 0.0
H1264 H 0.62608 0.83029 0.8901 0.0
H1265 H 0.59124 0.85998 0.92685 0.0
C1266 C 0.68874 0.80994 0.81467 0.0
C1267 C 0.72628 0.82348 0.8108 0.0
C1268 C 0.67057 0.82932 0.83605 0.0
C1269 C 0.68915 0.86278 0.85484 0.0
C1270 C 0.7268 0.877 0.85034 0.0
C1271 C 0.74504 0.85783 0.82839 0.0
C1272 C 0.66144 0.93851 0.90895 0.0
C1273 C 0.62829 0.91693 0.9234 0.0
C1274 C 0.68141 0.92126 0.88695 0.0
C1275 C 0.66897 0.88192 0.87907 0.0
C1276 C 0.63632 0.86057 0.89443 0.0
C1277 C 0.61627 0.87773 0.91589 0.0
H1278 H 0.78735 0.6477 0.19884 0.0
H1279 H 0.87172 0.7537 0.18432 0.0
H1280 H 0.82053 0.61506 0.16229 0.0
H1281 H 0.90397 0.72135 0.14643 0.0
H1282 H 0.97175 0.65209 0.10838 0.0
H1283 H 0.93738 0.68307 0.1447 0.0
H1284 H 0.84005 0.60214 0.10823 0.0
H1285 H 0.87458 0.57028 0.07224 0.0
C1286 C 0.81286 0.6641 0.18763 0.0
C1287 C 0.82682 0.70341 0.19451 0.0
C1288 C 0.83176 0.64536 0.16639 0.0
C1289 C 0.86506 0.66542 0.1513 0.0
C1290 C 0.87871 0.7048 0.15789 0.0
C1291 C 0.85995 0.7235 0.17933 0.0
C1292 C 0.94301 0.64073 0.10801 0.0
C1293 C 0.92604 0.60863 0.08716 0.0
C1294 C 0.92324 0.65878 0.1288 0.0
C1295 C 0.88586 0.64547 0.12932 0.0
C1296 C 0.86876 0.61308 0.10874 0.0
C1297 C 0.88859 0.59485 0.08796 0.0
H1298 H 0.299 0.79464 0.15692 0.0
H1299 H 0.3839 0.83158 0.21748 0.0
H1300 H 0.33868 0.834 0.11892 0.0
H1301 H 0.42461 0.86947 0.17852 0.0
H1302 H 0.47022 0.96907 0.11883 0.0
H1303 H 0.4366 0.92582 0.15687 0.0
H1304 H 0.38814 0.84113 0.08115 0.0
H1305 H 0.42085 0.88501 0.04366 0.0
C1306 C 0.32614 0.8113 0.16217 0.0
C1307 C 0.33787 0.81069 0.19062 0.0
C1308 C 0.34926 0.83341 0.14005 0.0
C1309 C 0.38509 0.85512 0.14549 0.0
C1310 C 0.39714 0.85363 0.17364 0.0
C1311 C 0.37384 0.83165 0.1959 0.0
C1312 C 0.45305 0.94085 0.11045 0.0
C1313 C 0.44829 0.9301 0.07843 0.0
C1314 C 0.43369 0.91601 0.13218 0.0
C1315 C 0.40914 0.87997 0.12224 0.0
C1316 C 0.40608 0.86882 0.08985 0.0
C1317 C 0.42518 0.89372 0.06827 0.0
H1318 H 0.70592 0.23389 0.17596 0.0
H1319 H 0.73669 0.14117 0.1811 0.0
H1320 H 0.67387 0.19972 0.13142 0.0
H1321 H 0.70553 0.10707 0.13449 0.0
H1322 H 0.60339 0.0449 0.07898 0.0
H1323 H 0.64754 0.07538 0.11698 0.0
H1324 H 0.67952 0.17912 0.07827 0.0
H1325 H 0.63361 0.14907 0.04187 0.0
C1326 C 0.70637 0.20629 0.16737 0.0
C1327 C 0.72426 0.19051 0.18226 0.0
C1328 C 0.6882 0.18673 0.14126 0.0
C1329 C 0.68763 0.15082 0.12865 0.0
C1330 C 0.70541 0.13472 0.14348 0.0
C1331 C 0.72342 0.15432 0.17013 0.0
C1332 C 0.62049 0.07401 0.07817 0.0
C1333 C 0.6147 0.0949 0.05794 0.0
C1334 C 0.64591 0.09153 0.09996 0.0
C1335 C 0.66645 0.13009 0.10146 0.0
C1336 C 0.66322 0.14975 0.07871 0.0
C1337 C 0.6372 0.13252 0.05756 0.0
H1338 H 0.66709 0.70125 0.81353 0.0
H1339 H 0.75286 0.66233 0.81236 0.0
H1340 H 0.63294 0.66283 0.85432 0.0
H1341 H 0.71853 0.6235 0.85283 0.0
H1342 H 0.67046 0.59866 0.95101 0.0
H1343 H 0.70094 0.63352 0.9077 0.0
H1344 H 0.60078 0.59955 0.86767 0.0
H1345 H 0.56983 0.56471 0.91168 0.0
C1346 C 0.67837 0.68387 0.82147 0.0
C1347 C 0.71272 0.68478 0.80954 0.0
C1348 C 0.65874 0.66182 0.84493 0.0
C1349 C 0.67299 0.6402 0.85711 0.0
C1350 C 0.70693 0.6403 0.84446 0.0
C1351 C 0.72657 0.66239 0.82107 0.0
C1352 C 0.65474 0.59843 0.93303 0.0
C1353 C 0.61756 0.57866 0.93492 0.0
C1354 C 0.67238 0.61832 0.90797 0.0
C1355 C 0.6535 0.61903 0.88387 0.0
C1356 C 0.61619 0.59976 0.88588 0.0
C1357 C 0.59841 0.57976 0.91112 0.0
H1358 H 0.33187 0.60367 0.88146 0.0
H1359 H 0.40277 0.63278 0.79758 0.0
H1360 H 0.37582 0.58714 0.90101 0.0
H1361 H 0.44742 0.61802 0.81843 0.0
H1362 H 0.51038 0.62733 0.91806 0.0
H1363 H 0.47707 0.64619 0.88648 0.0
H1364 H 0.40889 0.53073 0.86382 0.0
H1365 H 0.44226 0.51149 0.89455 0.0
C1366 C 0.35666 0.60654 0.86709 0.0
C1367 C 0.36337 0.61927 0.83768 0.0
C1368 C 0.38193 0.59738 0.8785 0.0
C1369 C 0.41478 0.60132 0.86111 0.0
C1370 C 0.42223 0.61494 0.83222 0.0
C1371 C 0.39667 0.62359 0.82048 0.0
C1372 C 0.48939 0.60578 0.90519 0.0
C1373 C 0.47874 0.56791 0.90921 0.0
C1374 C 0.47021 0.61667 0.88732 0.0
C1375 C 0.44028 0.58985 0.87322 0.0
C1376 C 0.43182 0.55184 0.87467 0.0
C1377 C 0.45107 0.54092 0.8922 0.0
H1378 H 0.34308 0.36936 0.81295 0.0
H1379 H 0.35314 0.2657 0.82171 0.0
H1380 H 0.38215 0.40169 0.85419 0.0
H1381 H 0.38891 0.29694 0.86531 0.0
H1382 H 0.47815 0.36675 0.92551 0.0
H1383 H 0.44219 0.3358 0.882 0.0
H1384 H 0.38719 0.41328 0.90656 0.0
H1385 H 0.42538 0.44585 0.94849 0.0
C1386 C 0.35387 0.35344 0.82345 0.0
C1387 C 0.34545 0.31498 0.8134 0.0
C1388 C 0.37572 0.37189 0.84782 0.0
C1389 C 0.38888 0.35219 0.8636 0.0
C1390 C 0.38024 0.31359 0.85353 0.0
C1391 C 0.35932 0.29542 0.82852 0.0
C1392 C 0.45818 0.37702 0.92173 0.0
C1393 C 0.45461 0.40875 0.94069 0.0
C1394 C 0.43727 0.35907 0.89672 0.0
C1395 C 0.41134 0.37164 0.89041 0.0
C1396 C 0.40729 0.40303 0.90993 0.0
C1397 C 0.42903 0.42167 0.93442 0.0
H1398 H 0.71991 0.37126 0.85911 0.0
H1399 H 0.64831 0.29071 0.91874 0.0
H1400 H 0.7367 0.41759 0.90438 0.0
H1401 H 0.66214 0.33815 0.96351 0.0
H1402 H 0.62971 0.41026 0.02155 0.0
H1403 H 0.67809 0.38825 1.00141 0.0
H1404 H 0.70062 0.44998 0.92275 0.0
H1405 H 0.65443 0.4737 0.94434 0.0
C1406 C 0.70819 0.36281 0.88184 0.0
C1407 C 0.6805 0.32775 0.88493 0.0
C1408 C 0.71778 0.38985 0.90802 0.0
C1409 C 0.69847 0.38306 0.93734 0.0
C1410 C 0.67657 0.34565 0.94123 0.0
C1411 C 0.66779 0.31825 0.91522 0.0
C1412 C 0.64664 0.42075 1.00094 0.0
C1413 C 0.63761 0.44201 0.98344 0.0
C1414 C 0.67419 0.40792 0.98918 0.0
C1415 C 0.69086 0.41411 0.95882 0.0
C1416 C 0.68734 0.44271 0.94543 0.0
C1417 C 0.6606 0.45655 0.95777 0.0
H1418 H 0.67051 0.42011 0.2206 0.0
H1419 H 0.70696 0.38216 0.12725 0.0
H1420 H 0.62525 0.43366 0.19895 0.0
H1421 H 0.66119 0.39452 0.10579 0.0
H1422 H 0.55363 0.38459 0.08245 0.0
H1423 H 0.58689 0.36724 0.11489 0.0
H1424 H 0.63447 0.48269 0.15528 0.0
H1425 H 0.60197 0.50047 0.12219 0.0
C1426 C 0.66863 0.41454 0.19552 0.0
C1427 C 0.6922 0.40038 0.17548 0.0
C1428 C 0.64282 0.42217 0.18322 0.0
C1429 C 0.63961 0.41467 0.15084 0.0
C1430 C 0.66292 0.40006 0.1309 0.0
C1431 C 0.68921 0.39333 0.14308 0.0
C1432 C 0.56996 0.40612 0.09918 0.0
C1433 C 0.57533 0.44397 0.09964 0.0
C1434 C 0.58926 0.39617 0.11749 0.0
C1435 C 0.61347 0.42374 0.13717 0.0
C1436 C 0.6159 0.46097 0.14025 0.0
C1437 C 0.5972 0.47108 0.12142 0.0
H1438 H 0.68592 0.74129 0.19894 0.0
H1439 H 0.71273 0.64456 0.19764 0.0
H1440 H 0.65368 0.71138 0.1533 0.0
H1441 H 0.67663 0.61239 0.15401 0.0
H1442 H 0.63693 0.57474 0.05716 0.0
H1443 H 0.67242 0.60605 0.1014 0.0
H1444 H 0.60375 0.66879 0.13396 0.0
H1445 H 0.57054 0.63955 0.08855 0.0
C1446 C 0.68488 0.71351 0.18896 0.0
C1447 C 0.70283 0.69584 0.20152 0.0
C1448 C 0.66554 0.6958 0.16298 0.0
C1449 C 0.66227 0.65915 0.14947 0.0
C1450 C 0.67909 0.64087 0.16298 0.0
C1451 C 0.69937 0.65912 0.18846 0.0
C1452 C 0.62976 0.59547 0.07366 0.0
C1453 C 0.60121 0.60497 0.06922 0.0
C1454 C 0.64992 0.61331 0.09933 0.0
C1455 C 0.64128 0.64027 0.12167 0.0
C1456 C 0.61227 0.64921 0.1171 0.0
C1457 C 0.59294 0.63225 0.09102 0.0
H1458 H 0.32098 0.63635 0.13505 0.0
H1459 H 0.39768 0.72154 0.08187 0.0
H1460 H 0.31208 0.59162 0.08853 0.0
H1461 H 0.39204 0.67538 0.03629 0.0
H1462 H 0.43413 0.60606 0.98321 0.0
H1463 H 0.38376 0.62623 0.99757 0.0
H1464 H 0.35153 0.56255 0.07591 0.0
H1465 H 0.4001 0.54089 0.06 0.0
C1466 C 0.33559 0.64626 0.11351 0.0
C1467 C 0.36248 0.68235 0.11308 0.0
C1468 C 0.33057 0.62 0.08656 0.0
C1469 C 0.35379 0.62855 0.05932 0.0
C1470 C 0.37481 0.66661 0.05717 0.0
C1471 C 0.37887 0.69329 0.0838 0.0
C1472 C 0.41491 0.59492 1.00248 0.0
C1473 C 0.42157 0.5736 0.02164 0.0
C1474 C 0.38616 0.60664 0.0109 0.0
C1475 C 0.36552 0.59908 0.03963 0.0
C1476 C 0.36762 0.57073 0.0544 0.0
C1477 C 0.39573 0.55811 0.0454 0.0
H1478 H 0.38239 0.30789 0.1935 0.0
H1479 H 0.31084 0.36754 0.20498 0.0
H1480 H 0.41853 0.34482 0.15199 0.0
H1481 H 0.34675 0.40414 0.16371 0.0
H1482 H 0.38672 0.42149 0.06234 0.0
H1483 H 0.35649 0.3877 0.1063 0.0
H1484 H 0.45795 0.4111 0.14021 0.0
H1485 H 0.48873 0.44567 0.09588 0.0
C1486 C 0.37465 0.3292 0.18749 0.0
C1487 C 0.34347 0.33447 0.20231 0.0
C1488 C 0.39539 0.35037 0.16375 0.0
C1489 C 0.38526 0.37708 0.15428 0.0
C1490 C 0.35492 0.38331 0.17004 0.0
C1491 C 0.33439 0.3624 0.19379 0.0
C1492 C 0.40285 0.41964 0.07904 0.0
C1493 C 0.44035 0.43647 0.07538 0.0
C1494 C 0.38537 0.40031 0.10442 0.0
C1495 C 0.40474 0.39702 0.12697 0.0
C1496 C 0.44228 0.41307 0.12315 0.0
C1497 C 0.45991 0.43283 0.09772 0.0
H1498 H 0.8762 0.73581 0.70695 0.0
H1499 H 0.77509 0.64908 0.68483 0.0
H1500 H 0.9072 0.70129 0.67083 0.0
H1501 H 0.80616 0.61574 0.64626 0.0
H1502 H 0.87643 0.54898 0.59673 0.0
H1503 H 0.84225 0.57952 0.63505 0.0
H1504 H 0.92188 0.68764 0.61838 0.0
H1505 H 0.9563 0.65731 0.5818 0.0
C1506 C 0.86038 0.70953 0.69407 0.0
C1507 C 0.82287 0.69596 0.69835 0.0
C1508 C 0.87832 0.68976 0.67285 0.0
C1509 C 0.85947 0.65589 0.65466 0.0
C1510 C 0.82187 0.64165 0.65961 0.0
C1511 C 0.80389 0.66121 0.68141 0.0
C1512 C 0.88653 0.57927 0.60135 0.0
C1513 C 0.91943 0.60055 0.58638 0.0
C1514 C 0.86683 0.5969 0.62328 0.0
C1515 C 0.87932 0.63632 0.63051 0.0
C1516 C 0.91166 0.65734 0.61456 0.0
C1517 C 0.93145 0.63982 0.59319 0.0
H1518 H 0.33008 0.77837 0.65847 0.0
H1519 H 0.34722 0.87936 0.72431 0.0
H1520 H 0.36846 0.81537 0.61809 0.0
H1521 H 0.38619 0.91645 0.68363 0.0
H1522 H 0.48303 0.95662 0.60379 0.0
H1523 H 0.44999 0.91802 0.64559 0.0
H1524 H 0.35758 0.8695 0.59295 0.0
H1525 H 0.38988 0.90878 0.55201 0.0
C1526 C 0.34227 0.80847 0.6644 0.0
C1527 C 0.33546 0.82602 0.69453 0.0
C1528 C 0.36421 0.82958 0.64126 0.0
C1529 C 0.38034 0.86866 0.64784 0.0
C1530 C 0.37425 0.88628 0.67812 0.0
C1531 C 0.35172 0.86515 0.70121 0.0
C1532 C 0.4558 0.93737 0.60111 0.0
C1533 C 0.43891 0.93565 0.57477 0.0
C1534 C 0.43689 0.91558 0.62504 0.0
C1535 C 0.40125 0.89101 0.62244 0.0
C1536 C 0.38501 0.88824 0.59548 0.0
C1537 C 0.40347 0.91067 0.5721 0.0
H1538 H 0.19968 0.35263 0.61822 0.0
H1539 H 0.17337 0.42171 0.69941 0.0
H1540 H 0.15212 0.35525 0.59169 0.0
H1541 H 0.12517 0.4235 0.67359 0.0
H1542 H 0.10241 0.47671 0.59609 0.0
H1543 H 0.13068 0.4581 0.63164 0.0
H1544 H 0.08912 0.34372 0.58651 0.0
H1545 H 0.06081 0.36277 0.55039 0.0
C1546 C 0.18274 0.3671 0.63079 0.0
C1547 C 0.19018 0.38715 0.66071 0.0
C1548 C 0.15546 0.36862 0.61567 0.0
C1549 C 0.13515 0.39015 0.6303 0.0
C1550 C 0.14072 0.40732 0.66138 0.0
C1551 C 0.16811 0.40608 0.67629 0.0
C1552 C 0.09843 0.44737 0.59427 0.0
C1553 C 0.0795 0.42126 0.57036 0.0
C1554 C 0.11456 0.43659 0.6148 0.0
C1555 C 0.11242 0.39937 0.6119 0.0
C1556 C 0.09157 0.37267 0.5892 0.0
C1557 C 0.07501 0.38348 0.56875 0.0
H1558 H 0.67744 0.15757 0.71472 0.0
H1559 H 0.77365 0.1982 0.65315 0.0
H1560 H 0.64555 0.11806 0.6701 0.0
H1561 H 0.74132 0.15938 0.60812 0.0
H1562 H 0.60174 0.03537 0.58539 0.0
H1563 H 0.64592 0.06221 0.62414 0.0
H1564 H 0.68641 0.16722 0.58664 0.0
H1565 H 0.64178 0.14085 0.54859 0.0
C1566 C 0.69189 0.15742 0.69168 0.0
C1567 C 0.72791 0.18091 0.68732 0.0
C1568 C 0.67371 0.13472 0.66617 0.0
C1569 C 0.69094 0.13564 0.63565 0.0
C1570 C 0.72743 0.15807 0.63142 0.0
C1571 C 0.74592 0.1801 0.65714 0.0
C1572 C 0.62083 0.06378 0.58478 0.0
C1573 C 0.6182 0.08608 0.56406 0.0
C1574 C 0.64594 0.07919 0.60707 0.0
C1575 C 0.66949 0.11683 0.60845 0.0
C1576 C 0.66882 0.13807 0.58597 0.0
C1577 C 0.6432 0.12299 0.56424 0.0
H1578 H 0.82191 0.27205 0.35011 0.0
H1579 H 0.83681 0.37283 0.31328 0.0
H1580 H 0.85414 0.309 0.39421 0.0
H1581 H 0.86464 0.41034 0.35978 0.0
H1582 H 0.9572 0.46632 0.42147 0.0
H1583 H 0.91487 0.43423 0.3828 0.0
H1584 H 0.86115 0.34487 0.44019 0.0
H1585 H 0.90669 0.37566 0.47686 0.0
C1586 C 0.83142 0.30228 0.35185 0.0
C1587 C 0.82681 0.31944 0.32809 0.0
C1588 C 0.84943 0.32375 0.37769 0.0
C1589 C 0.86231 0.3632 0.38123 0.0
C1590 C 0.85615 0.38025 0.35796 0.0
C1591 C 0.83944 0.35868 0.33139 0.0
C1592 C 0.93583 0.44012 0.42596 0.0
C1593 C 0.93523 0.42315 0.45181 0.0
C1594 C 0.91122 0.42153 0.40376 0.0
C1595 C 0.8846 0.38602 0.40749 0.0
C1596 C 0.88203 0.37115 0.43538 0.0
C1597 C 0.90767 0.38905 0.45686 0.0
H1598 H 0.67636 0.76276 0.32878 0.0
H1599 H 0.76041 0.86912 0.31475 0.0
H1600 H 0.64384 0.79473 0.36675 0.0
H1601 H 0.72697 0.90138 0.35145 0.0
H1602 H 0.6721 0.9455 0.4415 0.0
H1603 H 0.70706 0.914 0.40558 0.0
H1604 H 0.61019 0.83275 0.36859 0.0
H1605 H 0.57543 0.86334 0.40476 0.0
C1606 C 0.688 0.79297 0.33388 0.0
C1607 C 0.72114 0.81325 0.31881 0.0
C1608 C 0.66909 0.81145 0.35539 0.0
C1609 C 0.68256 0.85082 0.36219 0.0
C1610 C 0.71586 0.87108 0.3472 0.0
C1611 C 0.73491 0.85255 0.32587 0.0
C1612 C 0.65828 0.92091 0.4257 0.0
C1613 C 0.62083 0.90697 0.42629 0.0
C1614 C 0.67836 0.90289 0.40496 0.0
C1615 C 0.66153 0.87052 0.38422 0.0
C1616 C 0.62415 0.85702 0.3846 0.0
C1617 C 0.60415 0.87486 0.40532 0.0
H1618 H 0.21598 0.75123 0.35903 0.0
H1619 H 0.18481 0.65267 0.29022 0.0
H1620 H 0.17588 0.71474 0.39942 0.0
H1621 H 0.14467 0.61629 0.33043 0.0
H1622 H 0.05769 0.56914 0.41042 0.0
H1623 H 0.08742 0.61268 0.37135 0.0
H1624 H 0.18238 0.65896 0.4207 0.0
H1625 H 0.15335 0.61535 0.45887 0.0
C1626 C 0.20012 0.72193 0.35249 0.0
C1627 C 0.20386 0.70454 0.3217 0.0
C1628 C 0.17725 0.70108 0.37554 0.0
C1629 C 0.15717 0.66267 0.36802 0.0
C1630 C 0.15954 0.64588 0.33682 0.0
C1631 C 0.18281 0.66657 0.31393 0.0
C1632 C 0.0847 0.58903 0.41304 0.0
C1633 C 0.10337 0.58863 0.43742 0.0
C1634 C 0.10171 0.61379 0.39072 0.0
C1635 C 0.13719 0.6392 0.39308 0.0
C1636 C 0.15497 0.63999 0.41844 0.0
C1637 C 0.1384 0.61481 0.44015 0.0
H1638 H 0.38967 0.18693 0.37107 0.0
H1639 H 0.50011 0.25462 0.34845 0.0
H1640 H 0.40809 0.14656 0.39525 0.0
H1641 H 0.51876 0.21373 0.37179 0.0
H1642 H 0.53488 0.16528 0.45521 0.0
H1643 H 0.52116 0.20074 0.42207 0.0
H1644 H 0.43447 0.10099 0.38834 0.0
H1645 H 0.44749 0.06578 0.42233 0.0
C1646 C 0.4179 0.19273 0.37073 0.0
C1647 C 0.44341 0.22412 0.35808 0.0
C1648 C 0.42855 0.16949 0.3845 0.0
C1649 C 0.46502 0.17684 0.38566 0.0
C1650 C 0.49048 0.20754 0.37193 0.0
C1651 C 0.47981 0.23096 0.35846 0.0
C1652 C 0.5133 0.15069 0.44032 0.0
C1653 C 0.492 0.11276 0.44186 0.0
C1654 C 0.50543 0.17107 0.42116 0.0
C1655 C 0.47625 0.15398 0.40281 0.0
C1656 C 0.45653 0.11539 0.40274 0.0
C1657 C 0.46425 0.09507 0.42205 0.0
H1658 H 0.56953 0.75579 0.63893 0.0
H1659 H 0.6731 0.84422 0.63123 0.0
H1660 H 0.54234 0.79516 0.62394 0.0
H1661 H 0.64664 0.88311 0.61438 0.0
H1662 H 0.59358 0.9539 0.5928 0.0
H1663 H 0.61103 0.91896 0.62387 0.0
H1664 H 0.53802 0.81531 0.57858 0.0
H1665 H 0.51949 0.85028 0.54892 0.0
C1666 C 0.5864 0.78383 0.6341 0.0
C1667 C 0.62336 0.79701 0.63603 0.0
C1668 C 0.57092 0.80636 0.62528 0.0
C1669 C 0.59219 0.84233 0.61746 0.0
C1670 C 0.62914 0.85591 0.62062 0.0
C1671 C 0.64448 0.83358 0.63007 0.0
C1672 C 0.58055 0.92368 0.59018 0.0
C1673 C 0.55539 0.90488 0.56812 0.0
C1674 C 0.59088 0.90356 0.60774 0.0
C1675 C 0.57666 0.86412 0.60336 0.0
C1676 C 0.54952 0.84558 0.58296 0.0
C1677 C 0.53883 0.86571 0.56578 0.0
H1678 H 0.67124 0.16447 0.29083 0.0
H1679 H 0.75364 0.22332 0.35353 0.0
H1680 H 0.63261 0.13037 0.333 0.0
H1681 H 0.71523 0.1897 0.39572 0.0
H1682 H 0.66323 0.08384 0.44254 0.0
H1683 H 0.69591 0.12508 0.40409 0.0
H1684 H 0.59839 0.13342 0.38599 0.0
H1685 H 0.56483 0.09081 0.4248 0.0
C1686 C 0.6808 0.17045 0.3138 0.0
C1687 C 0.71543 0.19625 0.31897 0.0
C1688 C 0.65867 0.1511 0.33796 0.0
C1689 C 0.67093 0.15705 0.36767 0.0
C1690 C 0.70518 0.18396 0.37297 0.0
C1691 C 0.72724 0.20314 0.34884 0.0
C1692 C 0.64845 0.09438 0.43059 0.0
C1693 C 0.61122 0.08371 0.43678 0.0
C1694 C 0.66742 0.11846 0.40864 0.0
C1695 C 0.6499 0.13284 0.39208 0.0
C1696 C 0.61265 0.12265 0.39831 0.0
C1697 C 0.59347 0.09843 0.42061 0.0
H1698 H 0.94529 0.68191 0.31872 0.0
H1699 H 0.84257 0.61853 0.36314 0.0
H1700 H 0.9749 0.66337 0.35387 0.0
H1701 H 0.87214 0.60062 0.39855 0.0
H1702 H 0.93075 0.53656 0.42727 0.0
H1703 H 0.90641 0.55889 0.39114 0.0
H1704 H 0.98537 0.67011 0.41077 0.0
H1705 H 1.01006 0.64771 0.44737 0.0
C1706 C 0.92905 0.66421 0.33612 0.0
C1707 C 0.89154 0.65142 0.33796 0.0
C1708 C 0.94604 0.65384 0.35637 0.0
C1709 C 0.92587 0.63014 0.3787 0.0
C1710 C 0.88842 0.61841 0.38122 0.0
C1711 C 0.87147 0.629 0.36117 0.0
C1712 C 0.94333 0.56575 0.42375 0.0
C1713 C 0.97216 0.59045 0.44061 0.0
C1714 C 0.92911 0.57859 0.40317 0.0
C1715 C 0.94341 0.61643 0.39865 0.0
C1716 C 0.97367 0.64079 0.41391 0.0
C1717 C 0.98788 0.62793 0.43477 0.0
H1718 H 0.37153 0.85892 0.29287 0.0
H1719 H 0.27623 0.81843 0.35548 0.0
H1720 H 0.40419 0.8983 0.33728 0.0
H1721 H 0.30913 0.8572 0.40007 0.0
H1722 H 0.44813 0.982 0.42241 0.0
H1723 H 0.40532 0.95413 0.38247 0.0
H1724 H 0.36245 0.85072 0.42261 0.0
H1725 H 0.40558 0.87815 0.46189 0.0
C1726 C 0.35747 0.85899 0.31609 0.0
C1727 C 0.32146 0.83557 0.32079 0.0
C1728 C 0.37608 0.88163 0.34147 0.0
C1729 C 0.35921 0.88084 0.37216 0.0
C1730 C 0.32279 0.85838 0.37669 0.0
C1731 C 0.30397 0.83634 0.35119 0.0
C1732 C 0.42877 0.95376 0.42331 0.0
C1733 C 0.43019 0.93224 0.44527 0.0
C1734 C 0.40452 0.9377 0.40028 0.0
C1735 C 0.38069 0.90018 0.39933 0.0
C1736 C 0.38028 0.87974 0.42286 0.0
C1737 C 0.40498 0.89546 0.44536 0.0
H1738 H 0.25277 0.31866 0.35867 0.0
H1739 H 0.21653 0.34238 0.27989 0.0
H1740 H 0.22065 0.35311 0.39457 0.0
H1741 H 0.18332 0.37566 0.31593 0.0
H1742 H 0.09276 0.38496 0.39372 0.0
H1743 H 0.1294 0.35654 0.35686 0.0
H1744 H 0.22013 0.42071 0.40966 0.0
H1745 H 0.18348 0.44991 0.44649 0.0
C1746 C 0.23849 0.33162 0.34889 0.0
C1747 C 0.238 0.3281 0.31619 0.0
C1748 C 0.2199 0.35135 0.36957 0.0
C1749 C 0.19946 0.36733 0.35819 0.0
C1750 C 0.19873 0.36367 0.32553 0.0
C1751 C 0.21793 0.34462 0.30484 0.0
C1752 C 0.1206 0.39332 0.39745 0.0
C1753 C 0.13509 0.41982 0.42319 0.0
C1754 C 0.14166 0.37708 0.37616 0.0
C1755 C 0.17773 0.38625 0.38027 0.0
C1756 C 0.19239 0.41287 0.4059 0.0
C1757 C 0.17144 0.42978 0.4269 0.0
H1758 H 0.37372 0.25328 0.68804 0.0
H1759 H 0.28576 0.14782 0.6959 0.0
H1760 H 0.4061 0.22165 0.64977 0.0
H1761 H 0.31912 0.11568 0.65904 0.0
H1762 H 0.37545 0.0739 0.56885 0.0
H1763 H 0.34081 0.10509 0.60555 0.0
H1764 H 0.43747 0.18168 0.64595 0.0
H1765 H 0.47192 0.15154 0.60891 0.0
C1766 C 0.36119 0.22334 0.68158 0.0
C1767 C 0.32684 0.20332 0.69483 0.0
C1768 C 0.38005 0.20499 0.65988 0.0
C1769 C 0.36543 0.16589 0.6512 0.0
C1770 C 0.33114 0.14582 0.66467 0.0
C1771 C 0.31211 0.16428 0.68614 0.0
C1772 C 0.38927 0.0974 0.58558 0.0
C1773 C 0.42659 0.11025 0.58565 0.0
C1774 C 0.36937 0.11523 0.60678 0.0
C1775 C 0.38624 0.14625 0.62872 0.0
C1776 C 0.42348 0.15855 0.62903 0.0
C1777 C 0.4433 0.14096 0.6078 0.0
H1778 H 0.83418 0.26795 0.65737 0.0
H1779 H 0.85499 0.36853 0.72393 0.0
H1780 H 0.87609 0.30437 0.61791 0.0
H1781 H 0.89664 0.40503 0.68446 0.0
H1782 H 0.98979 0.45481 0.61088 0.0
H1783 H 0.95697 0.41294 0.65057 0.0
H1784 H 0.87252 0.35404 0.58969 0.0
H1785 H 0.90475 0.39591 0.55076 0.0
C1786 C 0.84817 0.29773 0.66367 0.0
C1787 C 0.84146 0.31542 0.69367 0.0
C1788 C 0.87197 0.31859 0.64108 0.0
C1789 C 0.88985 0.35752 0.64815 0.0
C1790 C 0.88374 0.37502 0.67846 0.0
C1791 C 0.85962 0.35421 0.70092 0.0
C1792 C 0.96461 0.43235 0.60587 0.0
C1793 C 0.94971 0.42853 0.57788 0.0
C1794 C 0.94572 0.40864 0.62858 0.0
C1795 C 0.91211 0.38028 0.62324 0.0
C1796 C 0.89841 0.37535 0.59443 0.0
C1797 C 0.91682 0.39939 0.57218 0.0
H1798 H 0.1979 0.64271 0.70514 0.0
H1799 H 0.25347 0.73838 0.65588 0.0
H1800 H 0.16887 0.60709 0.65809 0.0
H1801 H 0.22655 0.70244 0.6082 0.0
H1802 H 0.12618 0.65374 0.55492 0.0
H1803 H 0.17028 0.68426 0.59206 0.0
H1804 H 0.16804 0.5766 0.60591 0.0
H1805 H 0.12204 0.54568 0.56937 0.0
C1806 C 0.20449 0.65569 0.68391 0.0
C1807 C 0.22714 0.69336 0.68411 0.0
C1808 C 0.18817 0.63526 0.65682 0.0
C1809 C 0.19484 0.65199 0.6293 0.0
C1810 C 0.21984 0.68892 0.62912 0.0
C1811 C 0.23537 0.70954 0.65637 0.0
C1812 C 0.13549 0.63646 0.56539 0.0
C1813 C 0.12001 0.59722 0.55963 0.0
C1814 C 0.16121 0.65409 0.58663 0.0
C1815 C 0.17258 0.633 0.6025 0.0
C1816 C 0.15935 0.59374 0.59469 0.0
C1817 C 0.13328 0.57599 0.57343 0.0
loop_
_geom_bond_atom_site_label_1
_geom_bond_atom_site_label_2
_geom_bond_distance
_geom_bond_site_symmetry_2
_ccdc_geom_bond_type
Tb0 N29 2.617 . S
Tb0 N35 2.572 . S
Tb0 O44 2.465 . S
Tb0 O45 2.387 . S
Tb0 O47 2.428 . S
Tb0 O48 2.308 . S
Tb0 O52 2.349 . S
Tb0 O55 2.393 . S
Tb0 C64 2.802 . S
C1 N2 1.379 . S
C1 C4 1.416 . S
C1 C8 1.424 . S
N2 C1 1.379 . S
N2 C5 1.334 . S
N2 Tb11 2.617 . S
C3 C5 1.390 . S
C3 C6 1.339 . S
C3 H23 0.930 . S
C4 C1 1.416 . S
C4 C6 1.416 . S
C4 C10 1.448 . S
C5 N2 1.334 . S
C5 C3 1.390 . S
C5 H16 0.930 . S
C6 C3 1.339 . S
C6 C4 1.416 . S
C6 H27 0.930 . S
C7 C8 1.413 . S
C7 C9 1.427 . S
C7 C13 1.416 . S
C8 C1 1.424 . S
C8 C7 1.413 . S
C8 N12 1.361 . S
C9 C7 1.427 . S
C9 C10 1.328 . S
C9 H24 0.929 . S
C10 C4 1.448 . S
C10 C9 1.328 . S
C10 H25 0.930 . S
Tb11 N2 2.617 . S
Tb11 N12 2.572 . S
Tb11 O46 2.349 . S
Tb11 O49 2.393 . S
Tb11 O50 2.465 . S
Tb11 O51 2.387 . S
Tb11 O53 2.428 . S
Tb11 O54 2.308 . S
Tb11 C75 2.802 . S
N12 C8 1.361 . S
N12 Tb11 2.572 . S
N12 C14 1.340 . S
C13 C7 1.416 . S
C13 C15 1.332 . S
C13 H21 0.931 . S
C14 N12 1.340 . S
C14 C15 1.407 . S
C14 H20 0.930 . S
C15 C13 1.332 . S
C15 C14 1.407 . S
C15 H17 0.929 . S
H16 C5 0.930 . S
H17 C15 0.929 . S
H18 C33 0.930 . S
H19 C40 0.929 . S
H20 C14 0.930 . S
H21 C13 0.931 . S
H22 C36 0.930 . S
H23 C3 0.930 . S
H24 C9 0.929 . S
H25 C10 0.930 . S
H26 C31 0.930 . S
H27 C6 0.930 . S
H28 C39 0.931 . S
N29 Tb0 2.617 . S
N29 C30 1.379 . S
N29 C33 1.334 . S
C30 N29 1.379 . S
C30 C32 1.416 . S
C30 C38 1.424 . S
C31 H26 0.930 . S
C31 C33 1.390 . S
C31 C34 1.339 . S
C32 C30 1.416 . S
C32 C34 1.416 . S
C32 C65 1.448 . S
C33 H18 0.930 . S
C33 N29 1.334 . S
C33 C31 1.390 . S
C34 C31 1.339 . S
C34 C32 1.416 . S
C34 H41 0.930 . S
N35 Tb0 2.572 . S
N35 C36 1.340 . S
N35 C38 1.361 . S
C36 H22 0.930 . S
C36 N35 1.340 . S
C36 C40 1.407 . S
C37 C38 1.413 . S
C37 C39 1.416 . S
C37 C66 1.427 . S
C38 C30 1.424 . S
C38 N35 1.361 . S
C38 C37 1.413 . S
C39 H28 0.931 . S
C39 C37 1.416 . S
C39 C40 1.332 . S
C40 H19 0.929 . S
C40 C36 1.407 . S
C40 C39 1.332 . S
H41 C34 0.930 . S
H42 C65 0.930 . S
H43 C66 0.929 . S
O44 Tb0 2.465 . S
O44 C64 1.264 . S
O45 Tb0 2.387 . S
O45 C56 1.264 . S
O46 Tb11 2.349 . S
O46 C56 1.243 . S
O47 Tb0 2.428 . S
O47 C64 1.256 . S
O48 Tb0 2.308 . S
O48 C63 1.266 . S
O49 Tb11 2.393 . S
O49 C63 1.248 . S
O50 Tb11 2.465 . S
O50 C75 1.264 . S
O51 Tb11 2.387 . S
O51 C67 1.264 . S
O52 Tb0 2.349 . S
O52 C67 1.243 . S
O53 Tb11 2.428 . S
O53 C75 1.256 . S
O54 Tb11 2.308 . S
O54 C74 1.266 . S
O55 Tb0 2.393 . S
O55 C74 1.248 . S
C56 O45 1.264 . S
C56 O46 1.243 . S
C57 C60 1.399 . S
C57 C62 1.383 . S
C57 C64 1.496 . S
C58 C59 1.399 . S
C58 C62 1.389 . S
C59 C58 1.399 . S
C59 C61 1.380 . S
C59 H76 0.929 . S
C60 C57 1.399 . S
C60 C61 1.392 . S
C60 H77 0.929 . S
C61 C59 1.380 . S
C61 C60 1.392 . S
C61 H78 0.929 . S
C62 C57 1.383 . S
C62 C58 1.389 . S
C62 H79 0.931 . S
C63 O48 1.266 . S
C63 O49 1.248 . S
C64 Tb0 2.802 . S
C64 O44 1.264 . S
C64 O47 1.256 . S
C64 C57 1.496 . S
C65 C32 1.448 . S
C65 H42 0.930 . S
C65 C66 1.328 . S
C66 C37 1.427 . S
C66 H43 0.929 . S
C66 C65 1.328 . S
C67 O51 1.264 . S
C67 O52 1.243 . S
C68 C71 1.399 . S
C68 C72 1.383 . S
C68 C75 1.496 . S
C69 C70 1.399 . S
C69 C72 1.389 . S
C70 C69 1.399 . S
C70 C73 1.380 . S
C70 H80 0.929 . S
C71 C68 1.399 . S
C71 C73 1.392 . S
C71 H81 0.929 . S
C72 C68 1.383 . S
C72 C69 1.389 . S
C72 H82 0.931 . S
C73 C70 1.380 . S
C73 C71 1.392 . S
C73 H83 0.929 . S
C74 O54 1.266 . S
C74 O55 1.248 . S
C75 Tb11 2.802 . S
C75 O50 1.264 . S
C75 O53 1.256 . S
C75 C68 1.496 . S
H76 C59 0.929 . S
H77 C60 0.929 . S
H78 C61 0.929 . S
H79 C62 0.931 . S
H80 C70 0.929 . S
H81 C71 0.929 . S
H82 C72 0.931 . S
H83 C73 0.929 . S
Tb84 N113 2.617 . S
Tb84 N119 2.572 . S
Tb84 O128 2.465 . S
Tb84 O129 2.387 . S
Tb84 O131 2.428 . S
Tb84 O132 2.308 . S
Tb84 O136 2.349 . S
Tb84 O139 2.393 . S
Tb84 C148 2.802 . S
C85 N86 1.379 . S
C85 C88 1.416 . S
C85 C92 1.424 . S
N86 C85 1.379 . S
N86 C89 1.334 . S
N86 Tb95 2.617 . S
C87 C89 1.390 . S
C87 C90 1.339 . S
C87 H107 0.930 . S
C88 C85 1.416 . S
C88 C90 1.416 . S
C88 C94 1.448 . S
C89 N86 1.334 . S
C89 C87 1.390 . S
C89 H100 0.930 . S
C90 C87 1.339 . S
C90 C88 1.416 . S
C90 H111 0.930 . S
C91 C92 1.413 . S
C91 C93 1.427 . S
C91 C97 1.416 . S
C92 C85 1.424 . S
C92 C91 1.413 . S
C92 N96 1.361 . S
C93 C91 1.427 . S
C93 C94 1.328 . S
C93 H108 0.929 . S
C94 C88 1.448 . S
C94 C93 1.328 . S
C94 H109 0.930 . S
Tb95 N86 2.617 . S
Tb95 N96 2.572 . S
Tb95 O130 2.349 . S
Tb95 O133 2.393 . S
Tb95 O134 2.465 . S
Tb95 O135 2.387 . S
Tb95 O137 2.428 . S
Tb95 O138 2.308 . S
Tb95 C159 2.802 . S
N96 C92 1.361 . S
N96 Tb95 2.572 . S
N96 C98 1.340 . S
C97 C91 1.416 . S
C97 C99 1.332 . S
C97 H105 0.931 . S
C98 N96 1.340 . S
C98 C99 1.407 . S
C98 H104 0.930 . S
C99 C97 1.332 . S
C99 C98 1.407 . S
C99 H101 0.929 . S
H100 C89 0.930 . S
H101 C99 0.929 . S
H102 C117 0.930 . S
H103 C124 0.929 . S
H104 C98 0.930 . S
H105 C97 0.931 . S
H106 C120 0.930 . S
H107 C87 0.930 . S
H108 C93 0.929 . S
H109 C94 0.930 . S
H110 C115 0.930 . S
H111 C90 0.930 . S
H112 C123 0.931 . S
N113 Tb84 2.617 . S
N113 C114 1.379 . S
N113 C117 1.334 . S
C114 N113 1.379 . S
C114 C116 1.416 . S
C114 C122 1.424 . S
C115 H110 0.930 . S
C115 C117 1.390 . S
C115 C118 1.339 . S
C116 C114 1.416 . S
C116 C118 1.416 . S
C116 C149 1.448 . S
C117 H102 0.930 . S
C117 N113 1.334 . S
C117 C115 1.390 . S
C118 C115 1.339 . S
C118 C116 1.416 . S
C118 H125 0.930 . S
N119 Tb84 2.572 . S
N119 C120 1.340 . S
N119 C122 1.361 . S
C120 H106 0.930 . S
C120 N119 1.340 . S
C120 C124 1.407 . S
C121 C122 1.413 . S
C121 C123 1.416 . S
C121 C150 1.427 . S
C122 C114 1.424 . S
C122 N119 1.361 . S
C122 C121 1.413 . S
C123 H112 0.931 . S
C123 C121 1.416 . S
C123 C124 1.332 . S
C124 H103 0.929 . S
C124 C120 1.407 . S
C124 C123 1.332 . S
H125 C118 0.930 . S
H126 C149 0.930 . S
H127 C150 0.929 . S
O128 Tb84 2.465 . S
O128 C148 1.264 . S
O129 Tb84 2.387 . S
O129 C140 1.264 . S
O130 Tb95 2.349 . S
O130 C140 1.243 . S
O131 Tb84 2.428 . S
O131 C148 1.256 . S
O132 Tb84 2.308 . S
O132 C147 1.266 . S
O133 Tb95 2.393 . S
O133 C147 1.248 . S
O134 Tb95 2.465 . S
O134 C159 1.264 . S
O135 Tb95 2.387 . S
O135 C151 1.264 . S
O136 Tb84 2.349 . S
O136 C151 1.243 . S
O137 Tb95 2.428 . S
O137 C159 1.256 . S
O138 Tb95 2.308 . S
O138 C158 1.266 . S
O139 Tb84 2.393 . S
O139 C158 1.248 . S
C140 O129 1.264 . S
C140 O130 1.243 . S
C141 C144 1.399 . S
C141 C146 1.383 . S
C141 C148 1.496 . S
C142 C143 1.399 . S
C142 C146 1.389 . S
C143 C142 1.399 . S
C143 C145 1.380 . S
C143 H160 0.929 . S
C144 C141 1.399 . S
C144 C145 1.392 . S
C144 H161 0.929 . S
C145 C143 1.380 . S
C145 C144 1.392 . S
C145 H162 0.929 . S
C146 C141 1.383 . S
C146 C142 1.389 . S
C146 H163 0.931 . S
C147 O132 1.266 . S
C147 O133 1.248 . S
C148 Tb84 2.802 . S
C148 O128 1.264 . S
C148 O131 1.256 . S
C148 C141 1.496 . S
C149 C116 1.448 . S
C149 H126 0.930 . S
C149 C150 1.328 . S
C150 C121 1.427 . S
C150 H127 0.929 . S
C150 C149 1.328 . S
C151 O135 1.264 . S
C151 O136 1.243 . S
C152 C155 1.399 . S
C152 C156 1.383 . S
C152 C159 1.496 . S
C153 C154 1.399 . S
C153 C156 1.389 . S
C154 C153 1.399 . S
C154 C157 1.380 . S
C154 H164 0.929 . S
C155 C152 1.399 . S
C155 C157 1.392 . S
C155 H165 0.929 . S
C156 C152 1.383 . S
C156 C153 1.389 . S
C156 H166 0.931 . S
C157 C154 1.380 . S
C157 C155 1.392 . S
C157 H167 0.929 . S
C158 O138 1.266 . S
C158 O139 1.248 . S
C159 Tb95 2.802 . S
C159 O134 1.264 . S
C159 O137 1.256 . S
C159 C152 1.496 . S
H160 C143 0.929 . S
H161 C144 0.929 . S
H162 C145 0.929 . S
H163 C146 0.931 . S
H164 C154 0.929 . S
H165 C155 0.929 . S
H166 C156 0.931 . S
H167 C157 0.929 . S
Tb168 N197 2.617 . S
Tb168 N203 2.572 . S
Tb168 O212 2.465 . S
Tb168 O213 2.387 . S
Tb168 O215 2.428 . S
Tb168 O216 2.308 . S
Tb168 O220 2.349 . S
Tb168 O223 2.393 . S
Tb168 C232 2.802 . S
C169 N170 1.379 . S
C169 C172 1.416 . S
C169 C176 1.424 . S
N170 C169 1.379 . S
N170 C173 1.334 . S
N170 Tb179 2.617 . S
C171 C173 1.390 . S
C171 C174 1.339 . S
C171 H191 0.930 . S
C172 C169 1.416 . S
C172 C174 1.416 . S
C172 C178 1.448 . S
C173 N170 1.334 . S
C173 C171 1.390 . S
C173 H184 0.930 . S
C174 C171 1.339 . S
C174 C172 1.416 . S
C174 H195 0.930 . S
C175 C176 1.413 . S
C175 C177 1.427 . S
C175 C181 1.416 . S
C176 C169 1.424 . S
C176 C175 1.413 . S
C176 N180 1.361 . S
C177 C175 1.427 . S
C177 C178 1.328 . S
C177 H192 0.929 . S
C178 C172 1.448 . S
C178 C177 1.328 . S
C178 H193 0.930 . S
Tb179 N170 2.617 . S
Tb179 N180 2.572 . S
Tb179 O214 2.349 . S
Tb179 O217 2.393 . S
Tb179 O218 2.465 . S
Tb179 O219 2.387 . S
Tb179 O221 2.428 . S
Tb179 O222 2.308 . S
Tb179 C243 2.802 . S
N180 C176 1.361 . S
N180 Tb179 2.572 . S
N180 C182 1.340 . S
C181 C175 1.416 . S
C181 C183 1.332 . S
C181 H189 0.931 . S
C182 N180 1.340 . S
C182 C183 1.407 . S
C182 H188 0.930 . S
C183 C181 1.332 . S
C183 C182 1.407 . S
C183 H185 0.929 . S
H184 C173 0.930 . S
H185 C183 0.929 . S
H186 C201 0.930 . S
H187 C208 0.929 . S
H188 C182 0.930 . S
H189 C181 0.931 . S
H190 C204 0.930 . S
H191 C171 0.930 . S
H192 C177 0.929 . S
H193 C178 0.930 . S
H194 C199 0.930 . S
H195 C174 0.930 . S
H196 C207 0.931 . S
N197 Tb168 2.617 . S
N197 C198 1.379 . S
N197 C201 1.334 . S
C198 N197 1.379 . S
C198 C200 1.416 . S
C198 C206 1.424 . S
C199 H194 0.930 . S
C199 C201 1.390 . S
C199 C202 1.339 . S
C200 C198 1.416 . S
C200 C202 1.416 . S
C200 C233 1.448 . S
C201 H186 0.930 . S
C201 N197 1.334 . S
C201 C199 1.390 . S
C202 C199 1.339 . S
C202 C200 1.416 . S
C202 H209 0.930 . S
N203 Tb168 2.572 . S
N203 C204 1.340 . S
N203 C206 1.361 . S
C204 H190 0.930 . S
C204 N203 1.340 . S
C204 C208 1.407 . S
C205 C206 1.413 . S
C205 C207 1.416 . S
C205 C234 1.427 . S
C206 C198 1.424 . S
C206 N203 1.361 . S
C206 C205 1.413 . S
C207 H196 0.931 . S
C207 C205 1.416 . S
C207 C208 1.332 . S
C208 H187 0.929 . S
C208 C204 1.407 . S
C208 C207 1.332 . S
H209 C202 0.930 . S
H210 C233 0.930 . S
H211 C234 0.929 . S
O212 Tb168 2.465 . S
O212 C232 1.264 . S
O213 Tb168 2.387 . S
O213 C224 1.264 . S
O214 Tb179 2.349 . S
O214 C224 1.243 . S
O215 Tb168 2.428 . S
O215 C232 1.256 . S
O216 Tb168 2.308 . S
O216 C231 1.266 . S
O217 Tb179 2.393 . S
O217 C231 1.248 . S
O218 Tb179 2.465 . S
O218 C243 1.264 . S
O219 Tb179 2.387 . S
O219 C235 1.264 . S
O220 Tb168 2.349 . S
O220 C235 1.243 . S
O221 Tb179 2.428 . S
O221 C243 1.256 . S
O222 Tb179 2.308 . S
O222 C242 1.266 . S
O223 Tb168 2.393 . S
O223 C242 1.248 . S
C224 O213 1.264 . S
C224 O214 1.243 . S
C225 C228 1.399 . S
C225 C230 1.383 . S
C225 C232 1.496 . S
C226 C227 1.399 . S
C226 C230 1.389 . S
C227 C226 1.399 . S
C227 C229 1.380 . S
C227 H244 0.929 . S
C228 C225 1.399 . S
C228 C229 1.392 . S
C228 H245 0.929 . S
C229 C227 1.380 . S
C229 C228 1.392 . S
C229 H246 0.929 . S
C230 C225 1.383 . S
C230 C226 1.389 . S
C230 H247 0.931 . S
C231 O216 1.266 . S
C231 O217 1.248 . S
C232 Tb168 2.802 . S
C232 O212 1.264 . S
C232 O215 1.256 . S
C232 C225 1.496 . S
C233 C200 1.448 . S
C233 H210 0.930 . S
C233 C234 1.328 . S
C234 C205 1.427 . S
C234 H211 0.929 . S
C234 C233 1.328 . S
C235 O219 1.264 . S
C235 O220 1.243 . S
C236 C239 1.399 . S
C236 C240 1.383 . S
C236 C243 1.496 . S
C237 C238 1.399 . S
C237 C240 1.389 . S
C238 C237 1.399 . S
C238 C241 1.380 . S
C238 H248 0.929 . S
C239 C236 1.399 . S
C239 C241 1.392 . S
C239 H249 0.929 . S
C240 C236 1.383 . S
C240 C237 1.389 . S
C240 H250 0.931 . S
C241 C238 1.380 . S
C241 C239 1.392 . S
C241 H251 0.929 . S
C242 O222 1.266 . S
C242 O223 1.248 . S
C243 Tb179 2.802 . S
C243 O218 1.264 . S
C243 O221 1.256 . S
C243 C236 1.496 . S
H244 C227 0.929 . S
H245 C228 0.929 . S
H246 C229 0.929 . S
H247 C230 0.931 . S
H248 C238 0.929 . S
H249 C239 0.929 . S
H250 C240 0.931 . S
H251 C241 0.929 . S
Tb252 N281 2.617 . S
Tb252 N287 2.572 . S
Tb252 O296 2.465 . S
Tb252 O297 2.387 . S
Tb252 O299 2.428 . S
Tb252 O300 2.308 . S
Tb252 O304 2.349 . S
Tb252 O307 2.393 . S
Tb252 C316 2.802 . S
C253 N254 1.379 . S
C253 C256 1.416 . S
C253 C260 1.424 . S
N254 C253 1.379 . S
N254 C257 1.334 . S
N254 Tb263 2.617 . S
C255 C257 1.390 . S
C255 C258 1.339 . S
C255 H275 0.930 . S
C256 C253 1.416 . S
C256 C258 1.416 . S
C256 C262 1.448 . S
C257 N254 1.334 . S
C257 C255 1.390 . S
C257 H268 0.930 . S
C258 C255 1.339 . S
C258 C256 1.416 . S
C258 H279 0.930 . S
C259 C260 1.413 . S
C259 C261 1.427 . S
C259 C265 1.416 . S
C260 C253 1.424 . S
C260 C259 1.413 . S
C260 N264 1.361 . S
C261 C259 1.427 . S
C261 C262 1.328 . S
C261 H276 0.929 . S
C262 C256 1.448 . S
C262 C261 1.328 . S
C262 H277 0.930 . S
Tb263 N254 2.617 . S
Tb263 N264 2.572 . S
Tb263 O298 2.349 . S
Tb263 O301 2.393 . S
Tb263 O302 2.465 . S
Tb263 O303 2.387 . S
Tb263 O305 2.428 . S
Tb263 O306 2.308 . S
Tb263 C327 2.802 . S
N264 C260 1.361 . S
N264 Tb263 2.572 . S
N264 C266 1.340 . S
C265 C259 1.416 . S
C265 C267 1.332 . S
C265 H273 0.931 . S
C266 N264 1.340 . S
C266 C267 1.407 . S
C266 H272 0.930 . S
C267 C265 1.332 . S
C267 C266 1.407 . S
C267 H269 0.929 . S
H268 C257 0.930 . S
H269 C267 0.929 . S
H270 C285 0.930 . S
H271 C292 0.929 . S
H272 C266 0.930 . S
H273 C265 0.931 . S
H274 C288 0.930 . S
H275 C255 0.930 . S
H276 C261 0.929 . S
H277 C262 0.930 . S
H278 C283 0.930 . S
H279 C258 0.930 . S
H280 C291 0.931 . S
N281 Tb252 2.617 . S
N281 C282 1.379 . S
N281 C285 1.334 . S
C282 N281 1.379 . S
C282 C284 1.416 . S
C282 C290 1.424 . S
C283 H278 0.930 . S
C283 C285 1.390 . S
C283 C286 1.339 . S
C284 C282 1.416 . S
C284 C286 1.416 . S
C284 C317 1.448 . S
C285 H270 0.930 . S
C285 N281 1.334 . S
C285 C283 1.390 . S
C286 C283 1.339 . S
C286 C284 1.416 . S
C286 H293 0.930 . S
N287 Tb252 2.572 . S
N287 C288 1.340 . S
N287 C290 1.361 . S
C288 H274 0.930 . S
C288 N287 1.340 . S
C288 C292 1.407 . S
C289 C290 1.413 . S
C289 C291 1.416 . S
C289 C318 1.427 . S
C290 C282 1.424 . S
C290 N287 1.361 . S
C290 C289 1.413 . S
C291 H280 0.931 . S
C291 C289 1.416 . S
C291 C292 1.332 . S
C292 H271 0.929 . S
C292 C288 1.407 . S
C292 C291 1.332 . S
H293 C286 0.930 . S
H294 C317 0.930 . S
H295 C318 0.929 . S
O296 Tb252 2.465 . S
O296 C316 1.264 . S
O297 Tb252 2.387 . S
O297 C308 1.264 . S
O298 Tb263 2.349 . S
O298 C308 1.243 . S
O299 Tb252 2.428 . S
O299 C316 1.256 . S
O300 Tb252 2.308 . S
O300 C315 1.266 . S
O301 Tb263 2.393 . S
O301 C315 1.248 . S
O302 Tb263 2.465 . S
O302 C327 1.264 . S
O303 Tb263 2.387 . S
O303 C319 1.264 . S
O304 Tb252 2.349 . S
O304 C319 1.243 . S
O305 Tb263 2.428 . S
O305 C327 1.256 . S
O306 Tb263 2.308 . S
O306 C326 1.266 . S
O307 Tb252 2.393 . S
O307 C326 1.248 . S
C308 O297 1.264 . S
C308 O298 1.243 . S
C309 C312 1.399 . S
C309 C314 1.383 . S
C309 C316 1.496 . S
C310 C311 1.399 . S
C310 C314 1.389 . S
C311 C310 1.399 . S
C311 C313 1.380 . S
C311 H328 0.929 . S
C312 C309 1.399 . S
C312 C313 1.392 . S
C312 H329 0.929 . S
C313 C311 1.380 . S
C313 C312 1.392 . S
C313 H330 0.929 . S
C314 C309 1.383 . S
C314 C310 1.389 . S
C314 H331 0.931 . S
C315 O300 1.266 . S
C315 O301 1.248 . S
C316 Tb252 2.802 . S
C316 O296 1.264 . S
C316 O299 1.256 . S
C316 C309 1.496 . S
C317 C284 1.448 . S
C317 H294 0.930 . S
C317 C318 1.328 . S
C318 C289 1.427 . S
C318 H295 0.929 . S
C318 C317 1.328 . S
C319 O303 1.264 . S
C319 O304 1.243 . S
C320 C323 1.399 . S
C320 C324 1.383 . S
C320 C327 1.496 . S
C321 C322 1.399 . S
C321 C324 1.389 . S
C322 C321 1.399 . S
C322 C325 1.380 . S
C322 H332 0.929 . S
C323 C320 1.399 . S
C323 C325 1.392 . S
C323 H333 0.929 . S
C324 C320 1.383 . S
C324 C321 1.389 . S
C324 H334 0.931 . S
C325 C322 1.380 . S
C325 C323 1.392 . S
C325 H335 0.929 . S
C326 O306 1.266 . S
C326 O307 1.248 . S
C327 Tb263 2.802 . S
C327 O302 1.264 . S
C327 O305 1.256 . S
C327 C320 1.496 . S
H328 C311 0.929 . S
H329 C312 0.929 . S
H330 C313 0.929 . S
H331 C314 0.931 . S
H332 C322 0.929 . S
H333 C323 0.929 . S
H334 C324 0.931 . S
H335 C325 0.929 . S
Tb336 N365 2.617 . S
Tb336 N371 2.572 . S
Tb336 O380 2.465 . S
Tb336 O381 2.387 . S
Tb336 O383 2.428 . S
Tb336 O384 2.308 . S
Tb336 O388 2.349 . S
Tb336 O391 2.393 . S
Tb336 C400 2.802 . S
C337 N338 1.379 . S
C337 C340 1.416 . S
C337 C344 1.424 . S
N338 C337 1.379 . S
N338 C341 1.334 . S
N338 Tb347 2.617 . S
C339 C341 1.390 . S
C339 C342 1.339 . S
C339 H359 0.930 . S
C340 C337 1.416 . S
C340 C342 1.416 . S
C340 C346 1.448 . S
C341 N338 1.334 . S
C341 C339 1.390 . S
C341 H352 0.930 . S
C342 C339 1.339 . S
C342 C340 1.416 . S
C342 H363 0.930 . S
C343 C344 1.413 . S
C343 C345 1.427 . S
C343 C349 1.416 . S
C344 C337 1.424 . S
C344 C343 1.413 . S
C344 N348 1.361 . S
C345 C343 1.427 . S
C345 C346 1.328 . S
C345 H360 0.929 . S
C346 C340 1.448 . S
C346 C345 1.328 . S
C346 H361 0.930 . S
Tb347 N338 2.617 . S
Tb347 N348 2.572 . S
Tb347 O382 2.349 . S
Tb347 O385 2.393 . S
Tb347 O386 2.465 . S
Tb347 O387 2.387 . S
Tb347 O389 2.428 . S
Tb347 O390 2.308 . S
Tb347 C411 2.802 . S
N348 C344 1.361 . S
N348 Tb347 2.572 . S
N348 C350 1.340 . S
C349 C343 1.416 . S
C349 C351 1.332 . S
C349 H357 0.931 . S
C350 N348 1.340 . S
C350 C351 1.407 . S
C350 H356 0.930 . S
C351 C349 1.332 . S
C351 C350 1.407 . S
C351 H353 0.929 . S
H352 C341 0.930 . S
H353 C351 0.929 . S
H354 C369 0.930 . S
H355 C376 0.929 . S
H356 C350 0.930 . S
H357 C349 0.931 . S
H358 C372 0.930 . S
H359 C339 0.930 . S
H360 C345 0.929 . S
H361 C346 0.930 . S
H362 C367 0.930 . S
H363 C342 0.930 . S
H364 C375 0.931 . S
N365 Tb336 2.617 . S
N365 C366 1.379 . S
N365 C369 1.334 . S
C366 N365 1.379 . S
C366 C368 1.416 . S
C366 C374 1.424 . S
C367 H362 0.930 . S
C367 C369 1.390 . S
C367 C370 1.339 . S
C368 C366 1.416 . S
C368 C370 1.416 . S
C368 C401 1.448 . S
C369 H354 0.930 . S
C369 N365 1.334 . S
C369 C367 1.390 . S
C370 C367 1.339 . S
C370 C368 1.416 . S
C370 H377 0.930 . S
N371 Tb336 2.572 . S
N371 C372 1.340 . S
N371 C374 1.361 . S
C372 H358 0.930 . S
C372 N371 1.340 . S
C372 C376 1.407 . S
C373 C374 1.413 . S
C373 C375 1.416 . S
C373 C402 1.427 . S
C374 C366 1.424 . S
C374 N371 1.361 . S
C374 C373 1.413 . S
C375 H364 0.931 . S
C375 C373 1.416 . S
C375 C376 1.332 . S
C376 H355 0.929 . S
C376 C372 1.407 . S
C376 C375 1.332 . S
H377 C370 0.930 . S
H378 C401 0.930 . S
H379 C402 0.929 . S
O380 Tb336 2.465 . S
O380 C400 1.264 . S
O381 Tb336 2.387 . S
O381 C392 1.264 . S
O382 Tb347 2.349 . S
O382 C392 1.243 . S
O383 Tb336 2.428 . S
O383 C400 1.256 . S
O384 Tb336 2.308 . S
O384 C399 1.266 . S
O385 Tb347 2.393 . S
O385 C399 1.248 . S
O386 Tb347 2.465 . S
O386 C411 1.264 . S
O387 Tb347 2.387 . S
O387 C403 1.264 . S
O388 Tb336 2.349 . S
O388 C403 1.243 . S
O389 Tb347 2.428 . S
O389 C411 1.256 . S
O390 Tb347 2.308 . S
O390 C410 1.266 . S
O391 Tb336 2.393 . S
O391 C410 1.248 . S
C392 O381 1.264 . S
C392 O382 1.243 . S
C393 C396 1.399 . S
C393 C398 1.383 . S
C393 C400 1.496 . S
C394 C395 1.399 . S
C394 C398 1.389 . S
C395 C394 1.399 . S
C395 C397 1.380 . S
C395 H412 0.929 . S
C396 C393 1.399 . S
C396 C397 1.392 . S
C396 H413 0.929 . S
C397 C395 1.380 . S
C397 C396 1.392 . S
C397 H414 0.929 . S
C398 C393 1.383 . S
C398 C394 1.389 . S
C398 H415 0.931 . S
C399 O384 1.266 . S
C399 O385 1.248 . S
C400 Tb336 2.802 . S
C400 O380 1.264 . S
C400 O383 1.256 . S
C400 C393 1.496 . S
C401 C368 1.448 . S
C401 H378 0.930 . S
C401 C402 1.328 . S
C402 C373 1.427 . S
C402 H379 0.929 . S
C402 C401 1.328 . S
C403 O387 1.264 . S
C403 O388 1.243 . S
C404 C407 1.399 . S
C404 C408 1.383 . S
C404 C411 1.496 . S
C405 C406 1.399 . S
C405 C408 1.389 . S
C406 C405 1.399 . S
C406 C409 1.380 . S
C406 H416 0.929 . S
C407 C404 1.399 . S
C407 C409 1.392 . S
C407 H417 0.929 . S
C408 C404 1.383 . S
C408 C405 1.389 . S
C408 H418 0.931 . S
C409 C406 1.380 . S
C409 C407 1.392 . S
C409 H419 0.929 . S
C410 O390 1.266 . S
C410 O391 1.248 . S
C411 Tb347 2.802 . S
C411 O386 1.264 . S
C411 O389 1.256 . S
C411 C404 1.496 . S
H412 C395 0.929 . S
H413 C396 0.929 . S
H414 C397 0.929 . S
H415 C398 0.931 . S
H416 C406 0.929 . S
H417 C407 0.929 . S
H418 C408 0.931 . S
H419 C409 0.929 . S
Tb420 N449 2.617 . S
Tb420 N455 2.572 . S
Tb420 O464 2.465 . S
Tb420 O465 2.387 . S
Tb420 O467 2.428 . S
Tb420 O468 2.308 . S
Tb420 O472 2.349 . S
Tb420 O475 2.393 . S
Tb420 C484 2.802 . S
C421 N422 1.379 . S
C421 C424 1.416 . S
C421 C428 1.424 . S
N422 C421 1.379 . S
N422 C425 1.334 . S
N422 Tb431 2.617 . S
C423 C425 1.390 . S
C423 C426 1.339 . S
C423 H443 0.930 . S
C424 C421 1.416 . S
C424 C426 1.416 . S
C424 C430 1.448 . S
C425 N422 1.334 . S
C425 C423 1.390 . S
C425 H436 0.930 . S
C426 C423 1.339 . S
C426 C424 1.416 . S
C426 H447 0.930 . S
C427 C428 1.413 . S
C427 C429 1.427 . S
C427 C433 1.416 . S
C428 C421 1.424 . S
C428 C427 1.413 . S
C428 N432 1.361 . S
C429 C427 1.427 . S
C429 C430 1.328 . S
C429 H444 0.929 . S
C430 C424 1.448 . S
C430 C429 1.328 . S
C430 H445 0.930 . S
Tb431 N422 2.617 . S
Tb431 N432 2.572 . S
Tb431 O466 2.349 . S
Tb431 O469 2.393 . S
Tb431 O470 2.465 . S
Tb431 O471 2.387 . S
Tb431 O473 2.428 . S
Tb431 O474 2.308 . S
Tb431 C495 2.802 . S
N432 C428 1.361 . S
N432 Tb431 2.572 . S
N432 C434 1.340 . S
C433 C427 1.416 . S
C433 C435 1.332 . S
C433 H441 0.931 . S
C434 N432 1.340 . S
C434 C435 1.407 . S
C434 H440 0.930 . S
C435 C433 1.332 . S
C435 C434 1.407 . S
C435 H437 0.929 . S
H436 C425 0.930 . S
H437 C435 0.929 . S
H438 C453 0.930 . S
H439 C460 0.929 . S
H440 C434 0.930 . S
H441 C433 0.931 . S
H442 C456 0.930 . S
H443 C423 0.930 . S
H444 C429 0.929 . S
H445 C430 0.930 . S
H446 C451 0.930 . S
H447 C426 0.930 . S
H448 C459 0.931 . S
N449 Tb420 2.617 . S
N449 C450 1.379 . S
N449 C453 1.334 . S
C450 N449 1.379 . S
C450 C452 1.416 . S
C450 C458 1.424 . S
C451 H446 0.930 . S
C451 C453 1.390 . S
C451 C454 1.339 . S
C452 C450 1.416 . S
C452 C454 1.416 . S
C452 C485 1.448 . S
C453 H438 0.930 . S
C453 N449 1.334 . S
C453 C451 1.390 . S
C454 C451 1.339 . S
C454 C452 1.416 . S
C454 H461 0.930 . S
N455 Tb420 2.572 . S
N455 C456 1.340 . S
N455 C458 1.361 . S
C456 H442 0.930 . S
C456 N455 1.340 . S
C456 C460 1.407 . S
C457 C458 1.413 . S
C457 C459 1.416 . S
C457 C486 1.427 . S
C458 C450 1.424 . S
C458 N455 1.361 . S
C458 C457 1.413 . S
C459 H448 0.931 . S
C459 C457 1.416 . S
C459 C460 1.332 . S
C460 H439 0.929 . S
C460 C456 1.407 . S
C460 C459 1.332 . S
H461 C454 0.930 . S
H462 C485 0.930 . S
H463 C486 0.929 . S
O464 Tb420 2.465 . S
O464 C484 1.264 . S
O465 Tb420 2.387 . S
O465 C476 1.264 . S
O466 Tb431 2.349 . S
O466 C476 1.243 . S
O467 Tb420 2.428 . S
O467 C484 1.256 . S
O468 Tb420 2.308 . S
O468 C483 1.266 . S
O469 Tb431 2.393 . S
O469 C483 1.248 . S
O470 Tb431 2.465 . S
O470 C495 1.264 . S
O471 Tb431 2.387 . S
O471 C487 1.264 . S
O472 Tb420 2.349 . S
O472 C487 1.243 . S
O473 Tb431 2.428 . S
O473 C495 1.256 . S
O474 Tb431 2.308 . S
O474 C494 1.266 . S
O475 Tb420 2.393 . S
O475 C494 1.248 . S
C476 O465 1.264 . S
C476 O466 1.243 . S
C477 C480 1.399 . S
C477 C482 1.383 . S
C477 C484 1.496 . S
C478 C479 1.399 . S
C478 C482 1.389 . S
C479 C478 1.399 . S
C479 C481 1.380 . S
C479 H496 0.929 . S
C480 C477 1.399 . S
C480 C481 1.392 . S
C480 H497 0.929 . S
C481 C479 1.380 . S
C481 C480 1.392 . S
C481 H498 0.929 . S
C482 C477 1.383 . S
C482 C478 1.389 . S
C482 H499 0.931 . S
C483 O468 1.266 . S
C483 O469 1.248 . S
C484 Tb420 2.802 . S
C484 O464 1.264 . S
C484 O467 1.256 . S
C484 C477 1.496 . S
C485 C452 1.448 . S
C485 H462 0.930 . S
C485 C486 1.328 . S
C486 C457 1.427 . S
C486 H463 0.929 . S
C486 C485 1.328 . S
C487 O471 1.264 . S
C487 O472 1.243 . S
C488 C491 1.399 . S
C488 C492 1.383 . S
C488 C495 1.496 . S
C489 C490 1.399 . S
C489 C492 1.389 . S
C490 C489 1.399 . S
C490 C493 1.380 . S
C490 H500 0.929 . S
C491 C488 1.399 . S
C491 C493 1.392 . S
C491 H501 0.929 . S
C492 C488 1.383 . S
C492 C489 1.389 . S
C492 H502 0.931 . S
C493 C490 1.380 . S
C493 C491 1.392 . S
C493 H503 0.929 . S
C494 O474 1.266 . S
C494 O475 1.248 . S
C495 Tb431 2.802 . S
C495 O470 1.264 . S
C495 O473 1.256 . S
C495 C488 1.496 . S
H496 C479 0.929 . S
H497 C480 0.929 . S
H498 C481 0.929 . S
H499 C482 0.931 . S
H500 C490 0.929 . S
H501 C491 0.929 . S
H502 C492 0.931 . S
H503 C493 0.929 . S
Tb504 N533 2.617 . S
Tb504 N539 2.572 . S
Tb504 O548 2.465 . S
Tb504 O549 2.387 . S
Tb504 O551 2.428 . S
Tb504 O552 2.308 . S
Tb504 O556 2.349 . S
Tb504 O559 2.393 . S
Tb504 C568 2.802 . S
C505 N506 1.379 . S
C505 C508 1.416 . S
C505 C512 1.424 . S
N506 C505 1.379 . S
N506 C509 1.334 . S
N506 Tb515 2.617 . S
C507 C509 1.390 . S
C507 C510 1.339 . S
C507 H527 0.930 . S
C508 C505 1.416 . S
C508 C510 1.416 . S
C508 C514 1.448 . S
C509 N506 1.334 . S
C509 C507 1.390 . S
C509 H520 0.930 . S
C510 C507 1.339 . S
C510 C508 1.416 . S
C510 H531 0.930 . S
C511 C512 1.413 . S
C511 C513 1.427 . S
C511 C517 1.416 . S
C512 C505 1.424 . S
C512 C511 1.413 . S
C512 N516 1.361 . S
C513 C511 1.427 . S
C513 C514 1.328 . S
C513 H528 0.929 . S
C514 C508 1.448 . S
C514 C513 1.328 . S
C514 H529 0.930 . S
Tb515 N506 2.617 . S
Tb515 N516 2.572 . S
Tb515 O550 2.349 . S
Tb515 O553 2.393 . S
Tb515 O554 2.465 . S
Tb515 O555 2.387 . S
Tb515 O557 2.428 . S
Tb515 O558 2.308 . S
Tb515 C579 2.802 . S
N516 C512 1.361 . S
N516 Tb515 2.572 . S
N516 C518 1.340 . S
C517 C511 1.416 . S
C517 C519 1.332 . S
C517 H525 0.931 . S
C518 N516 1.340 . S
C518 C519 1.407 . S
C518 H524 0.930 . S
C519 C517 1.332 . S
C519 C518 1.407 . S
C519 H521 0.929 . S
H520 C509 0.930 . S
H521 C519 0.929 . S
H522 C537 0.930 . S
H523 C544 0.929 . S
H524 C518 0.930 . S
H525 C517 0.931 . S
H526 C540 0.930 . S
H527 C507 0.930 . S
H528 C513 0.929 . S
H529 C514 0.930 . S
H530 C535 0.930 . S
H531 C510 0.930 . S
H532 C543 0.931 . S
N533 Tb504 2.617 . S
N533 C534 1.379 . S
N533 C537 1.334 . S
C534 N533 1.379 . S
C534 C536 1.416 . S
C534 C542 1.424 . S
C535 H530 0.930 . S
C535 C537 1.390 . S
C535 C538 1.339 . S
C536 C534 1.416 . S
C536 C538 1.416 . S
C536 C569 1.448 . S
C537 H522 0.930 . S
C537 N533 1.334 . S
C537 C535 1.390 . S
C538 C535 1.339 . S
C538 C536 1.416 . S
C538 H545 0.930 . S
N539 Tb504 2.572 . S
N539 C540 1.340 . S
N539 C542 1.361 . S
C540 H526 0.930 . S
C540 N539 1.340 . S
C540 C544 1.407 . S
C541 C542 1.413 . S
C541 C543 1.416 . S
C541 C570 1.427 . S
C542 C534 1.424 . S
C542 N539 1.361 . S
C542 C541 1.413 . S
C543 H532 0.931 . S
C543 C541 1.416 . S
C543 C544 1.332 . S
C544 H523 0.929 . S
C544 C540 1.407 . S
C544 C543 1.332 . S
H545 C538 0.930 . S
H546 C569 0.930 . S
H547 C570 0.929 . S
O548 Tb504 2.465 . S
O548 C568 1.264 . S
O549 Tb504 2.387 . S
O549 C560 1.264 . S
O550 Tb515 2.349 . S
O550 C560 1.243 . S
O551 Tb504 2.428 . S
O551 C568 1.256 . S
O552 Tb504 2.308 . S
O552 C567 1.266 . S
O553 Tb515 2.393 . S
O553 C567 1.248 . S
O554 Tb515 2.465 . S
O554 C579 1.264 . S
O555 Tb515 2.387 . S
O555 C571 1.264 . S
O556 Tb504 2.349 . S
O556 C571 1.243 . S
O557 Tb515 2.428 . S
O557 C579 1.256 . S
O558 Tb515 2.308 . S
O558 C578 1.266 . S
O559 Tb504 2.393 . S
O559 C578 1.248 . S
C560 O549 1.264 . S
C560 O550 1.243 . S
C561 C564 1.399 . S
C561 C566 1.383 . S
C561 C568 1.496 . S
C562 C563 1.399 . S
C562 C566 1.389 . S
C563 C562 1.399 . S
C563 C565 1.380 . S
C563 H580 0.929 . S
C564 C561 1.399 . S
C564 C565 1.392 . S
C564 H581 0.929 . S
C565 C563 1.380 . S
C565 C564 1.392 . S
C565 H582 0.929 . S
C566 C561 1.383 . S
C566 C562 1.389 . S
C566 H583 0.931 . S
C567 O552 1.266 . S
C567 O553 1.248 . S
C568 Tb504 2.802 . S
C568 O548 1.264 . S
C568 O551 1.256 . S
C568 C561 1.496 . S
C569 C536 1.448 . S
C569 H546 0.930 . S
C569 C570 1.328 . S
C570 C541 1.427 . S
C570 H547 0.929 . S
C570 C569 1.328 . S
C571 O555 1.264 . S
C571 O556 1.243 . S
C572 C575 1.399 . S
C572 C576 1.383 . S
C572 C579 1.496 . S
C573 C574 1.399 . S
C573 C576 1.389 . S
C574 C573 1.399 . S
C574 C577 1.380 . S
C574 H584 0.929 . S
C575 C572 1.399 . S
C575 C577 1.392 . S
C575 H585 0.929 . S
C576 C572 1.383 . S
C576 C573 1.389 . S
C576 H586 0.931 . S
C577 C574 1.380 . S
C577 C575 1.392 . S
C577 H587 0.929 . S
C578 O558 1.266 . S
C578 O559 1.248 . S
C579 Tb515 2.802 . S
C579 O554 1.264 . S
C579 O557 1.256 . S
C579 C572 1.496 . S
H580 C563 0.929 . S
H581 C564 0.929 . S
H582 C565 0.929 . S
H583 C566 0.931 . S
H584 C574 0.929 . S
H585 C575 0.929 . S
H586 C576 0.931 . S
H587 C577 0.929 . S
Tb588 N617 2.617 . S
Tb588 N623 2.572 . S
Tb588 O632 2.465 . S
Tb588 O633 2.387 . S
Tb588 O635 2.428 . S
Tb588 O636 2.308 . S
Tb588 O640 2.349 . S
Tb588 O643 2.393 . S
Tb588 C652 2.802 . S
C589 N590 1.379 . S
C589 C592 1.416 . S
C589 C596 1.424 . S
N590 C589 1.379 . S
N590 C593 1.334 . S
N590 Tb599 2.617 . S
C591 C593 1.390 . S
C591 C594 1.339 . S
C591 H611 0.930 . S
C592 C589 1.416 . S
C592 C594 1.416 . S
C592 C598 1.448 . S
C593 N590 1.334 . S
C593 C591 1.390 . S
C593 H604 0.930 . S
C594 C591 1.339 . S
C594 C592 1.416 . S
C594 H615 0.930 . S
C595 C596 1.413 . S
C595 C597 1.427 . S
C595 C601 1.416 . S
C596 C589 1.424 . S
C596 C595 1.413 . S
C596 N600 1.361 . S
C597 C595 1.427 . S
C597 C598 1.328 . S
C597 H612 0.929 . S
C598 C592 1.448 . S
C598 C597 1.328 . S
C598 H613 0.930 . S
Tb599 N590 2.617 . S
Tb599 N600 2.572 . S
Tb599 O634 2.349 . S
Tb599 O637 2.393 . S
Tb599 O638 2.465 . S
Tb599 O639 2.387 . S
Tb599 O641 2.428 . S
Tb599 O642 2.308 . S
Tb599 C663 2.802 . S
N600 C596 1.361 . S
N600 Tb599 2.572 . S
N600 C602 1.340 . S
C601 C595 1.416 . S
C601 C603 1.332 . S
C601 H609 0.931 . S
C602 N600 1.340 . S
C602 C603 1.407 . S
C602 H608 0.930 . S
C603 C601 1.332 . S
C603 C602 1.407 . S
C603 H605 0.929 . S
H604 C593 0.930 . S
H605 C603 0.929 . S
H606 C621 0.930 . S
H607 C628 0.929 . S
H608 C602 0.930 . S
H609 C601 0.931 . S
H610 C624 0.930 . S
H611 C591 0.930 . S
H612 C597 0.929 . S
H613 C598 0.930 . S
H614 C619 0.930 . S
H615 C594 0.930 . S
H616 C627 0.931 . S
N617 Tb588 2.617 . S
N617 C618 1.379 . S
N617 C621 1.334 . S
C618 N617 1.379 . S
C618 C620 1.416 . S
C618 C626 1.424 . S
C619 H614 0.930 . S
C619 C621 1.390 . S
C619 C622 1.339 . S
C620 C618 1.416 . S
C620 C622 1.416 . S
C620 C653 1.448 . S
C621 H606 0.930 . S
C621 N617 1.334 . S
C621 C619 1.390 . S
C622 C619 1.339 . S
C622 C620 1.416 . S
C622 H629 0.930 . S
N623 Tb588 2.572 . S
N623 C624 1.340 . S
N623 C626 1.361 . S
C624 H610 0.930 . S
C624 N623 1.340 . S
C624 C628 1.407 . S
C625 C626 1.413 . S
C625 C627 1.416 . S
C625 C654 1.427 . S
C626 C618 1.424 . S
C626 N623 1.361 . S
C626 C625 1.413 . S
C627 H616 0.931 . S
C627 C625 1.416 . S
C627 C628 1.332 . S
C628 H607 0.929 . S
C628 C624 1.407 . S
C628 C627 1.332 . S
H629 C622 0.930 . S
H630 C653 0.930 . S
H631 C654 0.929 . S
O632 Tb588 2.465 . S
O632 C652 1.264 . S
O633 Tb588 2.387 . S
O633 C644 1.264 . S
O634 Tb599 2.349 . S
O634 C644 1.243 . S
O635 Tb588 2.428 . S
O635 C652 1.256 . S
O636 Tb588 2.308 . S
O636 C651 1.266 . S
O637 Tb599 2.393 . S
O637 C651 1.248 . S
O638 Tb599 2.465 . S
O638 C663 1.264 . S
O639 Tb599 2.387 . S
O639 C655 1.264 . S
O640 Tb588 2.349 . S
O640 C655 1.243 . S
O641 Tb599 2.428 . S
O641 C663 1.256 . S
O642 Tb599 2.308 . S
O642 C662 1.266 . S
O643 Tb588 2.393 . S
O643 C662 1.248 . S
C644 O633 1.264 . S
C644 O634 1.243 . S
C645 C648 1.399 . S
C645 C650 1.383 . S
C645 C652 1.496 . S
C646 C647 1.399 . S
C646 C650 1.389 . S
C647 C646 1.399 . S
C647 C649 1.380 . S
C647 H664 0.929 . S
C648 C645 1.399 . S
C648 C649 1.392 . S
C648 H665 0.929 . S
C649 C647 1.380 . S
C649 C648 1.392 . S
C649 H666 0.929 . S
C650 C645 1.383 . S
C650 C646 1.389 . S
C650 H667 0.931 . S
C651 O636 1.266 . S
C651 O637 1.248 . S
C652 Tb588 2.802 . S
C652 O632 1.264 . S
C652 O635 1.256 . S
C652 C645 1.496 . S
C653 C620 1.448 . S
C653 H630 0.930 . S
C653 C654 1.328 . S
C654 C625 1.427 . S
C654 H631 0.929 . S
C654 C653 1.328 . S
C655 O639 1.264 . S
C655 O640 1.243 . S
C656 C659 1.399 . S
C656 C660 1.383 . S
C656 C663 1.496 . S
C657 C658 1.399 . S
C657 C660 1.389 . S
C658 C657 1.399 . S
C658 C661 1.380 . S
C658 H668 0.929 . S
C659 C656 1.399 . S
C659 C661 1.392 . S
C659 H669 0.929 . S
C660 C656 1.383 . S
C660 C657 1.389 . S
C660 H670 0.931 . S
C661 C658 1.380 . S
C661 C659 1.392 . S
C661 H671 0.929 . S
C662 O642 1.266 . S
C662 O643 1.248 . S
C663 Tb599 2.802 . S
C663 O638 1.264 . S
C663 O641 1.256 . S
C663 C656 1.496 . S
H664 C647 0.929 . S
H665 C648 0.929 . S
H666 C649 0.929 . S
H667 C650 0.931 . S
H668 C658 0.929 . S
H669 C659 0.929 . S
H670 C660 0.931 . S
H671 C661 0.929 . S
C672 O684 1.241 . S
C672 O685 1.280 . S
C673 O686 1.277 . S
C673 O687 1.245 . S
C674 O698 1.247 . S
C674 O700 1.289 . S
Mg675 O676 1.926 . S
Mg675 O685 1.984 . S
Mg675 O687 1.988 . S
Mg675 O688 2.061 1_655 S
O676 Mg675 1.926 . S
O676 Mg677 1.986 1_545 S
O676 Mg678 1.914 1_655 S
Mg677 O676 1.986 1_565 S
Mg677 O684 2.042 1_565 S
Mg677 O686 2.041 1_565 S
Mg677 O692 2.038 . S
Mg677 O700 2.238 . S
Mg678 O676 1.914 1_455 S
Mg678 O679 1.920 1_545 S
Mg678 O689 2.109 . S
Mg678 O691 2.078 1_445 S
Mg678 O700 2.104 1_445 S
Mg678 O701 2.079 . S
O679 Mg678 1.920 1_565 S
O679 Mg680 1.926 . S
O679 Mg681 1.986 1_565 S
Mg680 O679 1.926 . S
Mg680 O694 1.984 . S
Mg680 O697 1.988 . S
Mg680 O698 2.061 1_455 S
Mg681 O679 1.986 1_545 S
Mg681 O689 2.238 . S
Mg681 O693 2.042 1_545 S
Mg681 O695 2.041 1_545 S
Mg681 O702 2.038 . S
C682 O688 1.247 . S
C682 O689 1.289 . S
C683 O701 1.245 . S
C683 O702 1.274 . S
O684 C672 1.241 . S
O684 Mg677 2.042 1_545 S
O685 C672 1.280 . S
O685 Mg675 1.984 . S
O686 C673 1.277 . S
O686 Mg677 2.041 1_545 S
O687 C673 1.245 . S
O687 Mg675 1.988 . S
O688 Mg675 2.061 1_455 S
O688 C682 1.247 . S
O689 Mg678 2.109 . S
O689 Mg681 2.238 . S
O689 C682 1.289 . S
C690 O691 1.245 . S
C690 O692 1.274 . S
O691 Mg678 2.078 1_665 S
O691 C690 1.245 . S
O692 Mg677 2.038 . S
O692 C690 1.274 . S
O693 Mg681 2.042 1_565 S
O693 C696 1.241 . S
O694 Mg680 1.984 . S
O694 C696 1.280 . S
O695 Mg681 2.041 1_565 S
O695 C699 1.277 . S
C696 O693 1.241 . S
C696 O694 1.280 . S
O697 Mg680 1.988 . S
O697 C699 1.245 . S
O698 C674 1.247 . S
O698 Mg680 2.061 1_655 S
C699 O695 1.277 . S
C699 O697 1.245 . S
O700 C674 1.289 . S
O700 Mg677 2.238 . S
O700 Mg678 2.104 1_665 S
O701 Mg678 2.079 . S
O701 C683 1.245 . S
O702 Mg681 2.038 . S
O702 C683 1.274 . S
C703 O715 1.241 . S
C703 O716 1.280 . S
C704 O717 1.277 . S
C704 O718 1.245 . S
C705 O729 1.247 . S
C705 O731 1.289 . S
Mg706 O707 1.926 . S
Mg706 O716 1.984 . S
Mg706 O718 1.988 1_554 S
Mg706 O719 2.061 . S
O707 Mg706 1.926 . S
O707 Mg708 1.986 1_545 S
O707 Mg709 1.918 . S
Mg708 O707 1.986 1_565 S
Mg708 O715 2.042 1_565 S
Mg708 O717 2.041 1_564 S
Mg708 O723 2.038 . S
Mg708 O731 2.238 1_554 S
Mg709 O707 1.918 . S
Mg709 O710 1.916 1_544 S
Mg709 O720 2.108 . S
Mg709 O722 2.081 1_545 S
Mg709 O731 2.105 1_544 S
Mg709 O732 2.076 1_554 S
O710 Mg709 1.916 1_566 S
O710 Mg711 1.926 . S
O710 Mg712 1.986 1_565 S
Mg711 O710 1.926 . S
Mg711 O725 1.984 . S
Mg711 O728 1.988 1_556 S
Mg711 O729 2.061 . S
Mg712 O710 1.986 1_545 S
Mg712 O720 2.238 1_556 S
Mg712 O724 2.042 1_545 S
Mg712 O726 2.041 1_546 S
Mg712 O733 2.038 . S
C713 O719 1.247 . S
C713 O720 1.289 . S
C714 O732 1.245 . S
C714 O733 1.274 . S
O715 C703 1.241 . S
O715 Mg708 2.042 1_545 S
O716 C703 1.280 . S
O716 Mg706 1.984 . S
O717 C704 1.277 . S
O717 Mg708 2.041 1_546 S
O718 C704 1.245 . S
O718 Mg706 1.988 1_556 S
O719 Mg706 2.061 . S
O719 C713 1.247 . S
O720 Mg709 2.108 . S
O720 Mg712 2.238 1_554 S
O720 C713 1.289 . S
C721 O722 1.245 . S
C721 O723 1.274 . S
O722 Mg709 2.081 1_565 S
O722 C721 1.245 . S
O723 Mg708 2.038 . S
O723 C721 1.274 . S
O724 Mg712 2.042 1_565 S
O724 C727 1.241 . S
O725 Mg711 1.984 . S
O725 C727 1.280 . S
O726 Mg712 2.041 1_564 S
O726 C730 1.277 . S
C727 O724 1.241 . S
C727 O725 1.280 . S
O728 Mg711 1.988 1_554 S
O728 C730 1.245 . S
O729 C705 1.247 . S
O729 Mg711 2.061 . S
C730 O726 1.277 . S
C730 O728 1.245 . S
O731 C705 1.289 . S
O731 Mg708 2.238 1_556 S
O731 Mg709 2.105 1_566 S
O732 Mg709 2.076 1_556 S
O732 C714 1.245 . S
O733 Mg712 2.038 . S
O733 C714 1.274 . S
C734 O746 1.241 . S
C734 O747 1.280 . S
C735 O748 1.277 . S
C735 O749 1.245 . S
C736 O760 1.247 . S
C736 O762 1.289 . S
Mg737 O738 1.926 . S
Mg737 O747 1.984 . S
Mg737 O749 1.988 1_554 S
Mg737 O750 2.061 1_655 S
O738 Mg737 1.926 . S
O738 Mg739 1.986 . S
O738 Mg740 1.915 1_655 S
Mg739 O738 1.986 . S
Mg739 O746 2.042 . S
Mg739 O748 2.041 1_554 S
Mg739 O754 2.038 . S
Mg739 O762 2.238 1_554 S
Mg740 O738 1.915 1_455 S
Mg740 O741 1.919 1_554 S
Mg740 O751 2.111 . S
Mg740 O753 2.081 1_455 S
Mg740 O762 2.102 1_454 S
Mg740 O763 2.076 1_554 S
O741 Mg740 1.919 1_556 S
O741 Mg742 1.926 . S
O741 Mg743 1.986 . S
Mg742 O741 1.926 . S
Mg742 O756 1.984 . S
Mg742 O759 1.988 1_556 S
Mg742 O760 2.061 1_455 S
Mg743 O741 1.986 . S
Mg743 O751 2.238 1_556 S
Mg743 O755 2.042 . S
Mg743 O757 2.041 1_556 S
Mg743 O764 2.038 . S
C744 O750 1.247 . S
C744 O751 1.289 . S
C745 O763 1.245 . S
C745 O764 1.274 . S
O746 C734 1.241 . S
O746 Mg739 2.042 . S
O747 C734 1.280 . S
O747 Mg737 1.984 . S
O748 C735 1.277 . S
O748 Mg739 2.041 1_556 S
O749 C735 1.245 . S
O749 Mg737 1.988 1_556 S
O750 Mg737 2.061 1_455 S
O750 C744 1.247 . S
O751 Mg740 2.111 . S
O751 Mg743 2.238 1_554 S
O751 C744 1.289 . S
C752 O753 1.245 . S
C752 O754 1.274 . S
O753 Mg740 2.081 1_655 S
O753 C752 1.245 . S
O754 Mg739 2.038 . S
O754 C752 1.274 . S
O755 Mg743 2.042 . S
O755 C758 1.241 . S
O756 Mg742 1.984 . S
O756 C758 1.280 . S
O757 Mg743 2.041 1_554 S
O757 C761 1.277 . S
C758 O755 1.241 . S
C758 O756 1.280 . S
O759 Mg742 1.988 1_554 S
O759 C761 1.245 . S
O760 C736 1.247 . S
O760 Mg742 2.061 1_655 S
C761 O757 1.277 . S
C761 O759 1.245 . S
O762 C736 1.289 . S
O762 Mg739 2.238 1_556 S
O762 Mg740 2.102 1_656 S
O763 Mg740 2.076 1_556 S
O763 C745 1.245 . S
O764 Mg743 2.038 . S
O764 C745 1.274 . S
C765 O777 1.241 . S
C765 O778 1.280 . S
C766 O779 1.277 . S
C766 O780 1.245 . S
C767 O791 1.247 . S
C767 O793 1.289 . S
Mg768 O769 1.926 . S
Mg768 O778 1.984 . S
Mg768 O780 1.988 1_554 S
Mg768 O781 2.061 . S
O769 Mg768 1.926 . S
O769 Mg770 1.986 . S
O769 Mg771 1.918 . S
Mg770 O769 1.986 . S
Mg770 O777 2.042 . S
Mg770 O779 2.041 1_554 S
Mg770 O785 2.038 . S
Mg770 O793 2.238 1_554 S
Mg771 O769 1.918 . S
Mg771 O772 1.916 1_554 S
Mg771 O782 2.108 . S
Mg771 O784 2.081 . S
Mg771 O793 2.105 1_554 S
Mg771 O794 2.076 1_554 S
O772 Mg771 1.916 1_556 S
O772 Mg773 1.926 . S
O772 Mg774 1.986 . S
Mg773 O772 1.926 . S
Mg773 O787 1.984 . S
Mg773 O790 1.988 1_556 S
Mg773 O791 2.061 . S
Mg774 O772 1.986 . S
Mg774 O782 2.238 1_556 S
Mg774 O786 2.042 . S
Mg774 O788 2.041 1_556 S
Mg774 O795 2.038 . S
C775 O781 1.247 . S
C775 O782 1.289 . S
C776 O794 1.245 . S
C776 O795 1.274 . S
O777 C765 1.241 . S
O777 Mg770 2.042 . S
O778 C765 1.280 . S
O778 Mg768 1.984 . S
O779 C766 1.277 . S
O779 Mg770 2.041 1_556 S
O780 C766 1.245 . S
O780 Mg768 1.988 1_556 S
O781 Mg768 2.061 . S
O781 C775 1.247 . S
O782 Mg771 2.108 . S
O782 Mg774 2.238 1_554 S
O782 C775 1.289 . S
C783 O784 1.245 . S
C783 O785 1.274 . S
O784 Mg771 2.081 . S
O784 C783 1.245 . S
O785 Mg770 2.038 . S
O785 C783 1.274 . S
O786 Mg774 2.042 . S
O786 C789 1.241 . S
O787 Mg773 1.984 . S
O787 C789 1.280 . S
O788 Mg774 2.041 1_554 S
O788 C792 1.277 . S
C789 O786 1.241 . S
C789 O787 1.280 . S
O790 Mg773 1.988 1_554 S
O790 C792 1.245 . S
O791 C767 1.247 . S
O791 Mg773 2.061 . S
C792 O788 1.277 . S
C792 O790 1.245 . S
O793 C767 1.289 . S
O793 Mg770 2.238 1_556 S
O793 Mg771 2.105 1_556 S
O794 Mg771 2.076 1_556 S
O794 C776 1.245 . S
O795 Mg774 2.038 . S
O795 C776 1.274 . S
C796 O808 1.241 . S
C796 O809 1.280 . S
C797 O810 1.277 . S
C797 O811 1.245 . S
C798 O822 1.247 . S
C798 O824 1.289 . S
Mg799 O800 1.926 . S
Mg799 O809 1.984 . S
Mg799 O811 1.988 . S
Mg799 O812 2.061 1_655 S
O800 Mg799 1.926 . S
O800 Mg801 1.986 . S
O800 Mg802 1.914 1_655 S
Mg801 O800 1.986 . S
Mg801 O808 2.042 . S
Mg801 O810 2.041 . S
Mg801 O816 2.038 . S
Mg801 O824 2.238 . S
Mg802 O800 1.914 1_455 S
Mg802 O803 1.920 . S
Mg802 O813 2.109 . S
Mg802 O815 2.078 1_455 S
Mg802 O824 2.104 1_455 S
Mg802 O825 2.079 . S
O803 Mg802 1.920 . S
O803 Mg804 1.926 . S
O803 Mg805 1.986 . S
Mg804 O803 1.926 . S
Mg804 O818 1.984 . S
Mg804 O821 1.988 . S
Mg804 O822 2.061 1_455 S
Mg805 O803 1.986 . S
Mg805 O813 2.238 . S
Mg805 O817 2.042 . S
Mg805 O819 2.041 . S
Mg805 O826 2.038 . S
C806 O812 1.247 . S
C806 O813 1.289 . S
C807 O825 1.245 . S
C807 O826 1.274 . S
O808 C796 1.241 . S
O808 Mg801 2.042 . S
O809 C796 1.280 . S
O809 Mg799 1.984 . S
O810 C797 1.277 . S
O810 Mg801 2.041 . S
O811 C797 1.245 . S
O811 Mg799 1.988 . S
O812 Mg799 2.061 1_455 S
O812 C806 1.247 . S
O813 Mg802 2.109 . S
O813 Mg805 2.238 . S
O813 C806 1.289 . S
C814 O815 1.245 . S
C814 O816 1.274 . S
O815 Mg802 2.078 1_655 S
O815 C814 1.245 . S
O816 Mg801 2.038 . S
O816 C814 1.274 . S
O817 Mg805 2.042 . S
O817 C820 1.241 . S
O818 Mg804 1.984 . S
O818 C820 1.280 . S
O819 Mg805 2.041 . S
O819 C823 1.277 . S
C820 O817 1.241 . S
C820 O818 1.280 . S
O821 Mg804 1.988 . S
O821 C823 1.245 . S
O822 C798 1.247 . S
O822 Mg804 2.061 1_655 S
C823 O819 1.277 . S
C823 O821 1.245 . S
O824 C798 1.289 . S
O824 Mg801 2.238 . S
O824 Mg802 2.104 1_655 S
O825 Mg802 2.079 . S
O825 C807 1.245 . S
O826 Mg805 2.038 . S
O826 C807 1.274 . S
C827 O839 1.241 . S
C827 O840 1.280 . S
C828 O841 1.277 . S
C828 O842 1.245 . S
C829 O853 1.247 . S
C829 O855 1.289 . S
Mg830 O831 1.926 . S
Mg830 O840 1.984 . S
Mg830 O842 1.988 . S
Mg830 O843 2.061 . S
O831 Mg830 1.926 . S
O831 Mg832 1.986 1_545 S
O831 Mg833 1.917 . S
Mg832 O831 1.986 1_565 S
Mg832 O839 2.042 1_565 S
Mg832 O841 2.041 1_565 S
Mg832 O847 2.038 . S
Mg832 O855 2.238 . S
Mg833 O831 1.917 . S
Mg833 O834 1.917 1_545 S
Mg833 O844 2.106 . S
Mg833 O846 2.079 1_545 S
Mg833 O855 2.106 1_545 S
Mg833 O856 2.079 . S
O834 Mg833 1.917 1_565 S
O834 Mg835 1.926 . S
O834 Mg836 1.986 1_565 S
Mg835 O834 1.926 . S
Mg835 O849 1.984 . S
Mg835 O852 1.988 . S
Mg835 O853 2.061 . S
Mg836 O834 1.986 1_545 S
Mg836 O844 2.238 . S
Mg836 O848 2.042 1_545 S
Mg836 O850 2.041 1_545 S
Mg836 O857 2.038 . S
C837 O843 1.247 . S
C837 O844 1.289 . S
C838 O856 1.245 . S
C838 O857 1.274 . S
O839 C827 1.241 . S
O839 Mg832 2.042 1_545 S
O840 C827 1.280 . S
O840 Mg830 1.984 . S
O841 C828 1.277 . S
O841 Mg832 2.041 1_545 S
O842 C828 1.245 . S
O842 Mg830 1.988 . S
O843 Mg830 2.061 . S
O843 C837 1.247 . S
O844 Mg833 2.106 . S
O844 Mg836 2.238 . S
O844 C837 1.289 . S
C845 O846 1.245 . S
C845 O847 1.274 . S
O846 Mg833 2.079 1_565 S
O846 C845 1.245 . S
O847 Mg832 2.038 . S
O847 C845 1.274 . S
O848 Mg836 2.042 1_565 S
O848 C851 1.241 . S
O849 Mg835 1.984 . S
O849 C851 1.280 . S
O850 Mg836 2.041 1_565 S
O850 C854 1.277 . S
C851 O848 1.241 . S
C851 O849 1.280 . S
O852 Mg835 1.988 . S
O852 C854 1.245 . S
O853 C829 1.247 . S
O853 Mg835 2.061 . S
C854 O850 1.277 . S
C854 O852 1.245 . S
O855 C829 1.289 . S
O855 Mg832 2.238 . S
O855 Mg833 2.106 1_565 S
O856 Mg833 2.079 . S
O856 C838 1.245 . S
O857 Mg836 2.038 . S
O857 C838 1.274 . S
H858 C866 0.950 . S
H859 C871 0.950 . S
H860 C868 0.950 . S
H861 C870 0.950 . S
H862 C872 0.950 . S
H863 C874 0.950 . S
H864 C876 0.950 . S
H865 C877 0.950 . S
C866 H858 0.950 . S
C866 C867 1.386 . S
C866 C868 1.391 . S
C867 C866 1.386 . S
C867 C871 1.393 . S
C868 H860 0.950 . S
C868 C866 1.391 . S
C868 C869 1.400 . S
C869 C868 1.400 . S
C869 C870 1.398 . S
C869 C875 1.491 . S
C870 H861 0.950 . S
C870 C869 1.398 . S
C870 C871 1.391 . S
C871 H859 0.950 . S
C871 C867 1.393 . S
C871 C870 1.391 . S
C872 H862 0.950 . S
C872 C873 1.386 . S
C872 C874 1.391 . S
C873 C872 1.386 . S
C873 C877 1.393 . S
C874 H863 0.950 . S
C874 C872 1.391 . S
C874 C875 1.400 . S
C875 C869 1.491 . S
C875 C874 1.400 . S
C875 C876 1.398 . S
C876 H864 0.950 . S
C876 C875 1.398 . S
C876 C877 1.391 . S
C877 H865 0.950 . S
C877 C873 1.393 . S
C877 C876 1.391 . S
H878 C886 0.950 . S
H879 C891 0.950 . S
H880 C888 0.950 . S
H881 C890 0.950 . S
H882 C892 0.950 . S
H883 C894 0.950 . S
H884 C896 0.950 . S
H885 C897 0.950 . S
C886 H878 0.950 . S
C886 C887 1.386 . S
C886 C888 1.391 . S
C887 C886 1.386 . S
C887 C891 1.393 . S
C888 H880 0.950 . S
C888 C886 1.391 . S
C888 C889 1.400 . S
C889 C888 1.400 . S
C889 C890 1.398 . S
C889 C895 1.491 . S
C890 H881 0.950 . S
C890 C889 1.398 . S
C890 C891 1.391 . S
C891 H879 0.950 . S
C891 C887 1.393 . S
C891 C890 1.391 . S
C892 H882 0.950 . S
C892 C893 1.386 . S
C892 C894 1.391 . S
C893 C892 1.386 . S
C893 C897 1.393 . S
C894 H883 0.950 . S
C894 C892 1.391 . S
C894 C895 1.400 . S
C895 C889 1.491 . S
C895 C894 1.400 . S
C895 C896 1.398 . S
C896 H884 0.950 . S
C896 C895 1.398 . S
C896 C897 1.391 . S
C897 H885 0.950 . S
C897 C893 1.393 . S
C897 C896 1.391 . S
H898 C906 0.950 . S
H899 C911 0.950 . S
H900 C908 0.950 . S
H901 C910 0.950 . S
H902 C912 0.950 . S
H903 C914 0.950 . S
H904 C916 0.950 . S
H905 C917 0.950 . S
C906 H898 0.950 . S
C906 C907 1.386 . S
C906 C908 1.391 . S
C907 C906 1.386 . S
C907 C911 1.393 . S
C908 H900 0.950 . S
C908 C906 1.391 . S
C908 C909 1.400 . S
C909 C908 1.400 . S
C909 C910 1.398 . S
C909 C915 1.491 . S
C910 H901 0.950 . S
C910 C909 1.398 . S
C910 C911 1.391 . S
C911 H899 0.950 . S
C911 C907 1.393 . S
C911 C910 1.391 . S
C912 H902 0.950 . S
C912 C913 1.386 . S
C912 C914 1.391 . S
C913 C912 1.386 . S
C913 C917 1.393 . S
C914 H903 0.950 . S
C914 C912 1.391 . S
C914 C915 1.400 . S
C915 C909 1.491 . S
C915 C914 1.400 . S
C915 C916 1.398 . S
C916 H904 0.950 . S
C916 C915 1.398 . S
C916 C917 1.391 . S
C917 H905 0.950 . S
C917 C913 1.393 . S
C917 C916 1.391 . S
H918 C926 0.950 . S
H919 C931 0.950 . S
H920 C928 0.950 . S
H921 C930 0.950 . S
H922 C932 0.950 . S
H923 C934 0.950 . S
H924 C936 0.950 . S
H925 C937 0.950 . S
C926 H918 0.950 . S
C926 C927 1.386 . S
C926 C928 1.391 . S
C927 C926 1.386 . S
C927 C931 1.393 . S
C928 H920 0.950 . S
C928 C926 1.391 . S
C928 C929 1.400 . S
C929 C928 1.400 . S
C929 C930 1.398 . S
C929 C935 1.491 . S
C930 H921 0.950 . S
C930 C929 1.398 . S
C930 C931 1.391 . S
C931 H919 0.950 . S
C931 C927 1.393 . S
C931 C930 1.391 . S
C932 H922 0.950 . S
C932 C933 1.386 . S
C932 C934 1.391 . S
C933 C932 1.386 . S
C933 C937 1.393 . S
C934 H923 0.950 . S
C934 C932 1.391 . S
C934 C935 1.400 . S
C935 C929 1.491 . S
C935 C934 1.400 . S
C935 C936 1.398 . S
C936 H924 0.950 . S
C936 C935 1.398 . S
C936 C937 1.391 . S
C937 H925 0.950 . S
C937 C933 1.393 . S
C937 C936 1.391 . S
H938 C946 0.950 . S
H939 C951 0.950 . S
H940 C948 0.950 . S
H941 C950 0.950 . S
H942 C952 0.950 . S
H943 C954 0.950 . S
H944 C956 0.950 . S
H945 C957 0.950 . S
C946 H938 0.950 . S
C946 C947 1.386 . S
C946 C948 1.391 . S
C947 C946 1.386 . S
C947 C951 1.393 . S
C948 H940 0.950 . S
C948 C946 1.391 . S
C948 C949 1.400 . S
C949 C948 1.400 . S
C949 C950 1.398 . S
C949 C955 1.491 . S
C950 H941 0.950 . S
C950 C949 1.398 . S
C950 C951 1.391 . S
C951 H939 0.950 . S
C951 C947 1.393 . S
C951 C950 1.391 . S
C952 H942 0.950 . S
C952 C953 1.386 . S
C952 C954 1.391 . S
C953 C952 1.386 . S
C953 C957 1.393 . S
C954 H943 0.950 . S
C954 C952 1.391 . S
C954 C955 1.400 . S
C955 C949 1.491 . S
C955 C954 1.400 . S
C955 C956 1.398 . S
C956 H944 0.950 . S
C956 C955 1.398 . S
C956 C957 1.391 . S
C957 H945 0.950 . S
C957 C953 1.393 . S
C957 C956 1.391 . S
H958 C966 0.950 . S
H959 C971 0.950 . S
H960 C968 0.950 . S
H961 C970 0.950 . S
H962 C972 0.950 . S
H963 C974 0.950 . S
H964 C976 0.950 . S
H965 C977 0.950 . S
C966 H958 0.950 . S
C966 C967 1.386 . S
C966 C968 1.391 . S
C967 C966 1.386 . S
C967 C971 1.393 . S
C968 H960 0.950 . S
C968 C966 1.391 . S
C968 C969 1.400 . S
C969 C968 1.400 . S
C969 C970 1.398 . S
C969 C975 1.491 . S
C970 H961 0.950 . S
C970 C969 1.398 . S
C970 C971 1.391 . S
C971 H959 0.950 . S
C971 C967 1.393 . S
C971 C970 1.391 . S
C972 H962 0.950 . S
C972 C973 1.386 . S
C972 C974 1.391 . S
C973 C972 1.386 . S
C973 C977 1.393 . S
C974 H963 0.950 . S
C974 C972 1.391 . S
C974 C975 1.400 . S
C975 C969 1.491 . S
C975 C974 1.400 . S
C975 C976 1.398 . S
C976 H964 0.950 . S
C976 C975 1.398 . S
C976 C977 1.391 . S
C977 H965 0.950 . S
C977 C973 1.393 . S
C977 C976 1.391 . S
H978 C986 0.950 . S
H979 C991 0.950 . S
H980 C988 0.950 . S
H981 C990 0.950 . S
H982 C992 0.950 . S
H983 C994 0.950 . S
H984 C996 0.950 . S
H985 C997 0.950 . S
C986 H978 0.950 . S
C986 C987 1.386 . S
C986 C988 1.391 . S
C987 C986 1.386 . S
C987 C991 1.393 . S
C988 H980 0.950 . S
C988 C986 1.391 . S
C988 C989 1.400 . S
C989 C988 1.400 . S
C989 C990 1.398 . S
C989 C995 1.491 . S
C990 H981 0.950 . S
C990 C989 1.398 . S
C990 C991 1.391 . S
C991 H979 0.950 . S
C991 C987 1.393 . S
C991 C990 1.391 . S
C992 H982 0.950 . S
C992 C993 1.386 . S
C992 C994 1.391 . S
C993 C992 1.386 . S
C993 C997 1.393 . S
C994 H983 0.950 . S
C994 C992 1.391 . S
C994 C995 1.400 . S
C995 C989 1.491 . S
C995 C994 1.400 . S
C995 C996 1.398 . S
C996 H984 0.950 . S
C996 C995 1.398 . S
C996 C997 1.391 . S
C997 H985 0.950 . S
C997 C993 1.393 . S
C997 C996 1.391 . S
H998 C1006 0.950 . S
H999 C1011 0.950 . S
H1000 C1008 0.950 . S
H1001 C1010 0.950 . S
H1002 C1012 0.950 . S
H1003 C1014 0.950 . S
H1004 C1016 0.950 . S
H1005 C1017 0.950 . S
C1006 H998 0.950 . S
C1006 C1007 1.386 . S
C1006 C1008 1.391 . S
C1007 C1006 1.386 . S
C1007 C1011 1.393 . S
C1008 H1000 0.950 . S
C1008 C1006 1.391 . S
C1008 C1009 1.400 . S
C1009 C1008 1.400 . S
C1009 C1010 1.398 . S
C1009 C1015 1.491 . S
C1010 H1001 0.950 . S
C1010 C1009 1.398 . S
C1010 C1011 1.391 . S
C1011 H999 0.950 . S
C1011 C1007 1.393 . S
C1011 C1010 1.391 . S
C1012 H1002 0.950 . S
C1012 C1013 1.386 . S
C1012 C1014 1.391 . S
C1013 C1012 1.386 . S
C1013 C1017 1.393 . S
C1014 H1003 0.950 . S
C1014 C1012 1.391 . S
C1014 C1015 1.400 . S
C1015 C1009 1.491 . S
C1015 C1014 1.400 . S
C1015 C1016 1.398 . S
C1016 H1004 0.950 . S
C1016 C1015 1.398 . S
C1016 C1017 1.391 . S
C1017 H1005 0.950 . S
C1017 C1013 1.393 . S
C1017 C1016 1.391 . S
H1018 C1026 0.950 . S
H1019 C1031 0.950 . S
H1020 C1028 0.950 . S
H1021 C1030 0.950 . S
H1022 C1032 0.950 . S
H1023 C1034 0.950 . S
H1024 C1036 0.950 . S
H1025 C1037 0.950 . S
C1026 H1018 0.950 . S
C1026 C1027 1.386 . S
C1026 C1028 1.391 . S
C1027 C1026 1.386 . S
C1027 C1031 1.393 . S
C1028 H1020 0.950 . S
C1028 C1026 1.391 . S
C1028 C1029 1.400 . S
C1029 C1028 1.400 . S
C1029 C1030 1.398 . S
C1029 C1035 1.491 . S
C1030 H1021 0.950 . S
C1030 C1029 1.398 . S
C1030 C1031 1.391 . S
C1031 H1019 0.950 . S
C1031 C1027 1.393 . S
C1031 C1030 1.391 . S
C1032 H1022 0.950 . S
C1032 C1033 1.386 . S
C1032 C1034 1.391 . S
C1033 C1032 1.386 . S
C1033 C1037 1.393 . S
C1034 H1023 0.950 . S
C1034 C1032 1.391 . S
C1034 C1035 1.400 . S
C1035 C1029 1.491 . S
C1035 C1034 1.400 . S
C1035 C1036 1.398 . S
C1036 H1024 0.950 . S
C1036 C1035 1.398 . S
C1036 C1037 1.391 . S
C1037 H1025 0.950 . S
C1037 C1033 1.393 . S
C1037 C1036 1.391 . S
H1038 C1046 0.950 . S
H1039 C1051 0.950 . S
H1040 C1048 0.950 . S
H1041 C1050 0.950 . S
H1042 C1052 0.950 . S
H1043 C1054 0.950 . S
H1044 C1056 0.950 . S
H1045 C1057 0.950 . S
C1046 H1038 0.950 . S
C1046 C1047 1.386 . S
C1046 C1048 1.391 . S
C1047 C1046 1.386 . S
C1047 C1051 1.393 . S
C1048 H1040 0.950 . S
C1048 C1046 1.391 . S
C1048 C1049 1.400 . S
C1049 C1048 1.400 . S
C1049 C1050 1.398 . S
C1049 C1055 1.491 . S
C1050 H1041 0.950 . S
C1050 C1049 1.398 . S
C1050 C1051 1.391 . S
C1051 H1039 0.950 . S
C1051 C1047 1.393 . S
C1051 C1050 1.391 . S
C1052 H1042 0.950 . S
C1052 C1053 1.386 . S
C1052 C1054 1.391 . S
C1053 C1052 1.386 . S
C1053 C1057 1.393 . S
C1054 H1043 0.950 . S
C1054 C1052 1.391 . S
C1054 C1055 1.400 . S
C1055 C1049 1.491 . S
C1055 C1054 1.400 . S
C1055 C1056 1.398 . S
C1056 H1044 0.950 . S
C1056 C1055 1.398 . S
C1056 C1057 1.391 . S
C1057 H1045 0.950 . S
C1057 C1053 1.393 . S
C1057 C1056 1.391 . S
H1058 C1066 0.950 . S
H1059 C1071 0.950 . S
H1060 C1068 0.950 . S
H1061 C1070 0.950 . S
H1062 C1072 0.950 . S
H1063 C1074 0.950 . S
H1064 C1076 0.950 . S
H1065 C1077 0.950 . S
C1066 H1058 0.950 . S
C1066 C1067 1.386 . S
C1066 C1068 1.391 . S
C1067 C1066 1.386 . S
C1067 C1071 1.393 . S
C1068 H1060 0.950 . S
C1068 C1066 1.391 . S
C1068 C1069 1.400 . S
C1069 C1068 1.400 . S
C1069 C1070 1.398 . S
C1069 C1075 1.491 . S
C1070 H1061 0.950 . S
C1070 C1069 1.398 . S
C1070 C1071 1.391 . S
C1071 H1059 0.950 . S
C1071 C1067 1.393 . S
C1071 C1070 1.391 . S
C1072 H1062 0.950 . S
C1072 C1073 1.386 . S
C1072 C1074 1.391 . S
C1073 C1072 1.386 . S
C1073 C1077 1.393 . S
C1074 H1063 0.950 . S
C1074 C1072 1.391 . S
C1074 C1075 1.400 . S
C1075 C1069 1.491 . S
C1075 C1074 1.400 . S
C1075 C1076 1.398 . S
C1076 H1064 0.950 . S
C1076 C1075 1.398 . S
C1076 C1077 1.391 . S
C1077 H1065 0.950 . S
C1077 C1073 1.393 . S
C1077 C1076 1.391 . S
H1078 C1086 0.950 . S
H1079 C1091 0.950 . S
H1080 C1088 0.950 . S
H1081 C1090 0.950 . S
H1082 C1092 0.950 . S
H1083 C1094 0.950 . S
H1084 C1096 0.950 . S
H1085 C1097 0.950 . S
C1086 H1078 0.950 . S
C1086 C1087 1.386 . S
C1086 C1088 1.391 . S
C1087 C1086 1.386 . S
C1087 C1091 1.393 . S
C1088 H1080 0.950 . S
C1088 C1086 1.391 . S
C1088 C1089 1.400 . S
C1089 C1088 1.400 . S
C1089 C1090 1.398 . S
C1089 C1095 1.491 . S
C1090 H1081 0.950 . S
C1090 C1089 1.398 . S
C1090 C1091 1.391 . S
C1091 H1079 0.950 . S
C1091 C1087 1.393 . S
C1091 C1090 1.391 . S
C1092 H1082 0.950 . S
C1092 C1093 1.386 . S
C1092 C1094 1.391 . S
C1093 C1092 1.386 . S
C1093 C1097 1.393 . S
C1094 H1083 0.950 . S
C1094 C1092 1.391 . S
C1094 C1095 1.400 . S
C1095 C1089 1.491 . S
C1095 C1094 1.400 . S
C1095 C1096 1.398 . S
C1096 H1084 0.950 . S
C1096 C1095 1.398 . S
C1096 C1097 1.391 . S
C1097 H1085 0.950 . S
C1097 C1093 1.393 . S
C1097 C1096 1.391 . S
H1098 C1106 0.950 . S
H1099 C1111 0.950 . S
H1100 C1108 0.950 . S
H1101 C1110 0.950 . S
H1102 C1112 0.950 . S
H1103 C1114 0.950 . S
H1104 C1116 0.950 . S
H1105 C1117 0.950 . S
C1106 H1098 0.950 . S
C1106 C1107 1.386 . S
C1106 C1108 1.391 . S
C1107 C1106 1.386 . S
C1107 C1111 1.393 . S
C1108 H1100 0.950 . S
C1108 C1106 1.391 . S
C1108 C1109 1.400 . S
C1109 C1108 1.400 . S
C1109 C1110 1.398 . S
C1109 C1115 1.491 . S
C1110 H1101 0.950 . S
C1110 C1109 1.398 . S
C1110 C1111 1.391 . S
C1111 H1099 0.950 . S
C1111 C1107 1.393 . S
C1111 C1110 1.391 . S
C1112 H1102 0.950 . S
C1112 C1113 1.386 . S
C1112 C1114 1.391 . S
C1113 C1112 1.386 . S
C1113 C1117 1.393 . S
C1114 H1103 0.950 . S
C1114 C1112 1.391 . S
C1114 C1115 1.400 . S
C1115 C1109 1.491 . S
C1115 C1114 1.400 . S
C1115 C1116 1.398 . S
C1116 H1104 0.950 . S
C1116 C1115 1.398 . S
C1116 C1117 1.391 . S
C1117 H1105 0.950 . S
C1117 C1113 1.393 . S
C1117 C1116 1.391 . S
H1118 C1126 0.950 . S
H1119 C1131 0.950 . S
H1120 C1128 0.950 . S
H1121 C1130 0.950 . S
H1122 C1132 0.950 . S
H1123 C1134 0.950 . S
H1124 C1136 0.950 . S
H1125 C1137 0.950 . S
C1126 H1118 0.950 . S
C1126 C1127 1.386 . S
C1126 C1128 1.391 . S
C1127 C1126 1.386 . S
C1127 C1131 1.393 . S
C1128 H1120 0.950 . S
C1128 C1126 1.391 . S
C1128 C1129 1.400 . S
C1129 C1128 1.400 . S
C1129 C1130 1.398 . S
C1129 C1135 1.491 . S
C1130 H1121 0.950 . S
C1130 C1129 1.398 . S
C1130 C1131 1.391 . S
C1131 H1119 0.950 . S
C1131 C1127 1.393 . S
C1131 C1130 1.391 . S
C1132 H1122 0.950 . S
C1132 C1133 1.386 . S
C1132 C1134 1.391 . S
C1133 C1132 1.386 . S
C1133 C1137 1.393 . S
C1134 H1123 0.950 . S
C1134 C1132 1.391 . S
C1134 C1135 1.400 . S
C1135 C1129 1.491 . S
C1135 C1134 1.400 . S
C1135 C1136 1.398 . S
C1136 H1124 0.950 . S
C1136 C1135 1.398 . S
C1136 C1137 1.391 . S
C1137 H1125 0.950 . S
C1137 C1133 1.393 . S
C1137 C1136 1.391 . S
H1138 C1146 0.950 . S
H1139 C1151 0.950 . S
H1140 C1148 0.950 . S
H1141 C1150 0.950 . S
H1142 C1152 0.950 . S
H1143 C1154 0.950 . S
H1144 C1156 0.950 . S
H1145 C1157 0.950 . S
C1146 H1138 0.950 . S
C1146 C1147 1.386 . S
C1146 C1148 1.391 . S
C1147 C1146 1.386 . S
C1147 C1151 1.393 . S
C1148 H1140 0.950 . S
C1148 C1146 1.391 . S
C1148 C1149 1.400 . S
C1149 C1148 1.400 . S
C1149 C1150 1.398 . S
C1149 C1155 1.491 . S
C1150 H1141 0.950 . S
C1150 C1149 1.398 . S
C1150 C1151 1.391 . S
C1151 H1139 0.950 . S
C1151 C1147 1.393 . S
C1151 C1150 1.391 . S
C1152 H1142 0.950 . S
C1152 C1153 1.386 . S
C1152 C1154 1.391 . S
C1153 C1152 1.386 . S
C1153 C1157 1.393 . S
C1154 H1143 0.950 . S
C1154 C1152 1.391 . S
C1154 C1155 1.400 . S
C1155 C1149 1.491 . S
C1155 C1154 1.400 . S
C1155 C1156 1.398 . S
C1156 H1144 0.950 . S
C1156 C1155 1.398 . S
C1156 C1157 1.391 . S
C1157 H1145 0.950 . S
C1157 C1153 1.393 . S
C1157 C1156 1.391 . S
H1158 C1166 0.950 . S
H1159 C1171 0.950 . S
H1160 C1168 0.950 . S
H1161 C1170 0.950 . S
H1162 C1172 0.950 . S
H1163 C1174 0.950 . S
H1164 C1176 0.950 . S
H1165 C1177 0.950 . S
C1166 H1158 0.950 . S
C1166 C1167 1.386 . S
C1166 C1168 1.391 . S
C1167 C1166 1.386 . S
C1167 C1171 1.393 . S
C1168 H1160 0.950 . S
C1168 C1166 1.391 . S
C1168 C1169 1.400 . S
C1169 C1168 1.400 . S
C1169 C1170 1.398 . S
C1169 C1175 1.491 . S
C1170 H1161 0.950 . S
C1170 C1169 1.398 . S
C1170 C1171 1.391 . S
C1171 H1159 0.950 . S
C1171 C1167 1.393 . S
C1171 C1170 1.391 . S
C1172 H1162 0.950 . S
C1172 C1173 1.386 . S
C1172 C1174 1.391 . S
C1173 C1172 1.386 . S
C1173 C1177 1.393 . S
C1174 H1163 0.950 . S
C1174 C1172 1.391 . S
C1174 C1175 1.400 . S
C1175 C1169 1.491 . S
C1175 C1174 1.400 . S
C1175 C1176 1.398 . S
C1176 H1164 0.950 . S
C1176 C1175 1.398 . S
C1176 C1177 1.391 . S
C1177 H1165 0.950 . S
C1177 C1173 1.393 . S
C1177 C1176 1.391 . S
H1178 C1186 0.950 . S
H1179 C1191 0.950 . S
H1180 C1188 0.950 . S
H1181 C1190 0.950 . S
H1182 C1192 0.950 . S
H1183 C1194 0.950 . S
H1184 C1196 0.950 . S
H1185 C1197 0.950 . S
C1186 H1178 0.950 . S
C1186 C1187 1.386 . S
C1186 C1188 1.391 . S
C1187 C1186 1.386 . S
C1187 C1191 1.393 . S
C1188 H1180 0.950 . S
C1188 C1186 1.391 . S
C1188 C1189 1.400 . S
C1189 C1188 1.400 . S
C1189 C1190 1.398 . S
C1189 C1195 1.491 . S
C1190 H1181 0.950 . S
C1190 C1189 1.398 . S
C1190 C1191 1.391 . S
C1191 H1179 0.950 . S
C1191 C1187 1.393 . S
C1191 C1190 1.391 . S
C1192 H1182 0.950 . S
C1192 C1193 1.386 . S
C1192 C1194 1.391 . S
C1193 C1192 1.386 . S
C1193 C1197 1.393 . S
C1194 H1183 0.950 . S
C1194 C1192 1.391 . S
C1194 C1195 1.400 . S
C1195 C1189 1.491 . S
C1195 C1194 1.400 . S
C1195 C1196 1.398 . S
C1196 H1184 0.950 . S
C1196 C1195 1.398 . S
C1196 C1197 1.391 . S
C1197 H1185 0.950 . S
C1197 C1193 1.393 . S
C1197 C1196 1.391 . S
H1198 C1206 0.950 . S
H1199 C1211 0.950 . S
H1200 C1208 0.950 . S
H1201 C1210 0.950 . S
H1202 C1212 0.950 . S
H1203 C1214 0.950 . S
H1204 C1216 0.950 . S
H1205 C1217 0.950 . S
C1206 H1198 0.950 . S
C1206 C1207 1.386 . S
C1206 C1208 1.391 . S
C1207 C1206 1.386 . S
C1207 C1211 1.393 . S
C1208 H1200 0.950 . S
C1208 C1206 1.391 . S
C1208 C1209 1.400 . S
C1209 C1208 1.400 . S
C1209 C1210 1.398 . S
C1209 C1215 1.491 . S
C1210 H1201 0.950 . S
C1210 C1209 1.398 . S
C1210 C1211 1.391 . S
C1211 H1199 0.950 . S
C1211 C1207 1.393 . S
C1211 C1210 1.391 . S
C1212 H1202 0.950 . S
C1212 C1213 1.386 . S
C1212 C1214 1.391 . S
C1213 C1212 1.386 . S
C1213 C1217 1.393 . S
C1214 H1203 0.950 . S
C1214 C1212 1.391 . S
C1214 C1215 1.400 . S
C1215 C1209 1.491 . S
C1215 C1214 1.400 . S
C1215 C1216 1.398 . S
C1216 H1204 0.950 . S
C1216 C1215 1.398 . S
C1216 C1217 1.391 . S
C1217 H1205 0.950 . S
C1217 C1213 1.393 . S
C1217 C1216 1.391 . S
H1218 C1226 0.950 . S
H1219 C1231 0.950 . S
H1220 C1228 0.950 . S
H1221 C1230 0.950 . S
H1222 C1232 0.950 . S
H1223 C1234 0.950 . S
H1224 C1236 0.950 . S
H1225 C1237 0.950 . S
C1226 H1218 0.950 . S
C1226 C1227 1.386 . S
C1226 C1228 1.391 . S
C1227 C1226 1.386 . S
C1227 C1231 1.393 . S
C1228 H1220 0.950 . S
C1228 C1226 1.391 . S
C1228 C1229 1.400 . S
C1229 C1228 1.400 . S
C1229 C1230 1.398 . S
C1229 C1235 1.491 . S
C1230 H1221 0.950 . S
C1230 C1229 1.398 . S
C1230 C1231 1.391 . S
C1231 H1219 0.950 . S
C1231 C1227 1.393 . S
C1231 C1230 1.391 . S
C1232 H1222 0.950 . S
C1232 C1233 1.386 . S
C1232 C1234 1.391 . S
C1233 C1232 1.386 . S
C1233 C1237 1.393 . S
C1234 H1223 0.950 . S
C1234 C1232 1.391 . S
C1234 C1235 1.400 . S
C1235 C1229 1.491 . S
C1235 C1234 1.400 . S
C1235 C1236 1.398 . S
C1236 H1224 0.950 . S
C1236 C1235 1.398 . S
C1236 C1237 1.391 . S
C1237 H1225 0.950 . S
C1237 C1233 1.393 . S
C1237 C1236 1.391 . S
H1238 C1246 0.950 . S
H1239 C1251 0.950 . S
H1240 C1248 0.950 . S
H1241 C1250 0.950 . S
H1242 C1252 0.950 . S
H1243 C1254 0.950 . S
H1244 C1256 0.950 . S
H1245 C1257 0.950 . S
C1246 H1238 0.950 . S
C1246 C1247 1.386 . S
C1246 C1248 1.391 . S
C1247 C1246 1.386 . S
C1247 C1251 1.393 . S
C1248 H1240 0.950 . S
C1248 C1246 1.391 . S
C1248 C1249 1.400 . S
C1249 C1248 1.400 . S
C1249 C1250 1.398 . S
C1249 C1255 1.491 . S
C1250 H1241 0.950 . S
C1250 C1249 1.398 . S
C1250 C1251 1.391 . S
C1251 H1239 0.950 . S
C1251 C1247 1.393 . S
C1251 C1250 1.391 . S
C1252 H1242 0.950 . S
C1252 C1253 1.386 . S
C1252 C1254 1.391 . S
C1253 C1252 1.386 . S
C1253 C1257 1.393 . S
C1254 H1243 0.950 . S
C1254 C1252 1.391 . S
C1254 C1255 1.400 . S
C1255 C1249 1.491 . S
C1255 C1254 1.400 . S
C1255 C1256 1.398 . S
C1256 H1244 0.950 . S
C1256 C1255 1.398 . S
C1256 C1257 1.391 . S
C1257 H1245 0.950 . S
C1257 C1253 1.393 . S
C1257 C1256 1.391 . S
H1258 C1266 0.950 . S
H1259 C1271 0.950 . S
H1260 C1268 0.950 . S
H1261 C1270 0.950 . S
H1262 C1272 0.950 . S
H1263 C1274 0.950 . S
H1264 C1276 0.950 . S
H1265 C1277 0.950 . S
C1266 H1258 0.950 . S
C1266 C1267 1.386 . S
C1266 C1268 1.391 . S
C1267 C1266 1.386 . S
C1267 C1271 1.393 . S
C1268 H1260 0.950 . S
C1268 C1266 1.391 . S
C1268 C1269 1.400 . S
C1269 C1268 1.400 . S
C1269 C1270 1.398 . S
C1269 C1275 1.491 . S
C1270 H1261 0.950 . S
C1270 C1269 1.398 . S
C1270 C1271 1.391 . S
C1271 H1259 0.950 . S
C1271 C1267 1.393 . S
C1271 C1270 1.391 . S
C1272 H1262 0.950 . S
C1272 C1273 1.386 . S
C1272 C1274 1.391 . S
C1273 C1272 1.386 . S
C1273 C1277 1.393 . S
C1274 H1263 0.950 . S
C1274 C1272 1.391 . S
C1274 C1275 1.400 . S
C1275 C1269 1.491 . S
C1275 C1274 1.400 . S
C1275 C1276 1.398 . S
C1276 H1264 0.950 . S
C1276 C1275 1.398 . S
C1276 C1277 1.391 . S
C1277 H1265 0.950 . S
C1277 C1273 1.393 . S
C1277 C1276 1.391 . S
H1278 C1286 0.950 . S
H1279 C1291 0.950 . S
H1280 C1288 0.950 . S
H1281 C1290 0.950 . S
H1282 C1292 0.950 . S
H1283 C1294 0.950 . S
H1284 C1296 0.950 . S
H1285 C1297 0.950 . S
C1286 H1278 0.950 . S
C1286 C1287 1.386 . S
C1286 C1288 1.391 . S
C1287 C1286 1.386 . S
C1287 C1291 1.393 . S
C1288 H1280 0.950 . S
C1288 C1286 1.391 . S
C1288 C1289 1.400 . S
C1289 C1288 1.400 . S
C1289 C1290 1.398 . S
C1289 C1295 1.491 . S
C1290 H1281 0.950 . S
C1290 C1289 1.398 . S
C1290 C1291 1.391 . S
C1291 H1279 0.950 . S
C1291 C1287 1.393 . S
C1291 C1290 1.391 . S
C1292 H1282 0.950 . S
C1292 C1293 1.386 . S
C1292 C1294 1.391 . S
C1293 C1292 1.386 . S
C1293 C1297 1.393 . S
C1294 H1283 0.950 . S
C1294 C1292 1.391 . S
C1294 C1295 1.400 . S
C1295 C1289 1.491 . S
C1295 C1294 1.400 . S
C1295 C1296 1.398 . S
C1296 H1284 0.950 . S
C1296 C1295 1.398 . S
C1296 C1297 1.391 . S
C1297 H1285 0.950 . S
C1297 C1293 1.393 . S
C1297 C1296 1.391 . S
H1298 C1306 0.950 . S
H1299 C1311 0.950 . S
H1300 C1308 0.950 . S
H1301 C1310 0.950 . S
H1302 C1312 0.950 . S
H1303 C1314 0.950 . S
H1304 C1316 0.950 . S
H1305 C1317 0.950 . S
C1306 H1298 0.950 . S
C1306 C1307 1.386 . S
C1306 C1308 1.391 . S
C1307 C1306 1.386 . S
C1307 C1311 1.393 . S
C1308 H1300 0.950 . S
C1308 C1306 1.391 . S
C1308 C1309 1.400 . S
C1309 C1308 1.400 . S
C1309 C1310 1.398 . S
C1309 C1315 1.491 . S
C1310 H1301 0.950 . S
C1310 C1309 1.398 . S
C1310 C1311 1.391 . S
C1311 H1299 0.950 . S
C1311 C1307 1.393 . S
C1311 C1310 1.391 . S
C1312 H1302 0.950 . S
C1312 C1313 1.386 . S
C1312 C1314 1.391 . S
C1313 C1312 1.386 . S
C1313 C1317 1.393 . S
C1314 H1303 0.950 . S
C1314 C1312 1.391 . S
C1314 C1315 1.400 . S
C1315 C1309 1.491 . S
C1315 C1314 1.400 . S
C1315 C1316 1.398 . S
C1316 H1304 0.950 . S
C1316 C1315 1.398 . S
C1316 C1317 1.391 . S
C1317 H1305 0.950 . S
C1317 C1313 1.393 . S
C1317 C1316 1.391 . S
H1318 C1326 0.950 . S
H1319 C1331 0.950 . S
H1320 C1328 0.950 . S
H1321 C1330 0.950 . S
H1322 C1332 0.950 . S
H1323 C1334 0.950 . S
H1324 C1336 0.950 . S
H1325 C1337 0.950 . S
C1326 H1318 0.950 . S
C1326 C1327 1.386 . S
C1326 C1328 1.391 . S
C1327 C1326 1.386 . S
C1327 C1331 1.393 . S
C1328 H1320 0.950 . S
C1328 C1326 1.391 . S
C1328 C1329 1.400 . S
C1329 C1328 1.400 . S
C1329 C1330 1.398 . S
C1329 C1335 1.491 . S
C1330 H1321 0.950 . S
C1330 C1329 1.398 . S
C1330 C1331 1.391 . S
C1331 H1319 0.950 . S
C1331 C1327 1.393 . S
C1331 C1330 1.391 . S
C1332 H1322 0.950 . S
C1332 C1333 1.386 . S
C1332 C1334 1.391 . S
C1333 C1332 1.386 . S
C1333 C1337 1.393 . S
C1334 H1323 0.950 . S
C1334 C1332 1.391 . S
C1334 C1335 1.400 . S
C1335 C1329 1.491 . S
C1335 C1334 1.400 . S
C1335 C1336 1.398 . S
C1336 H1324 0.950 . S
C1336 C1335 1.398 . S
C1336 C1337 1.391 . S
C1337 H1325 0.950 . S
C1337 C1333 1.393 . S
C1337 C1336 1.391 . S
H1338 C1346 0.950 . S
H1339 C1351 0.950 . S
H1340 C1348 0.950 . S
H1341 C1350 0.950 . S
H1342 C1352 0.950 . S
H1343 C1354 0.950 . S
H1344 C1356 0.950 . S
H1345 C1357 0.950 . S
C1346 H1338 0.950 . S
C1346 C1347 1.386 . S
C1346 C1348 1.391 . S
C1347 C1346 1.386 . S
C1347 C1351 1.393 . S
C1348 H1340 0.950 . S
C1348 C1346 1.391 . S
C1348 C1349 1.400 . S
C1349 C1348 1.400 . S
C1349 C1350 1.398 . S
C1349 C1355 1.491 . S
C1350 H1341 0.950 . S
C1350 C1349 1.398 . S
C1350 C1351 1.391 . S
C1351 H1339 0.950 . S
C1351 C1347 1.393 . S
C1351 C1350 1.391 . S
C1352 H1342 0.950 . S
C1352 C1353 1.386 . S
C1352 C1354 1.391 . S
C1353 C1352 1.386 . S
C1353 C1357 1.393 . S
C1354 H1343 0.950 . S
C1354 C1352 1.391 . S
C1354 C1355 1.400 . S
C1355 C1349 1.491 . S
C1355 C1354 1.400 . S
C1355 C1356 1.398 . S
C1356 H1344 0.950 . S
C1356 C1355 1.398 . S
C1356 C1357 1.391 . S
C1357 H1345 0.950 . S
C1357 C1353 1.393 . S
C1357 C1356 1.391 . S
H1358 C1366 0.950 . S
H1359 C1371 0.950 . S
H1360 C1368 0.950 . S
H1361 C1370 0.950 . S
H1362 C1372 0.950 . S
H1363 C1374 0.950 . S
H1364 C1376 0.950 . S
H1365 C1377 0.950 . S
C1366 H1358 0.950 . S
C1366 C1367 1.386 . S
C1366 C1368 1.391 . S
C1367 C1366 1.386 . S
C1367 C1371 1.393 . S
C1368 H1360 0.950 . S
C1368 C1366 1.391 . S
C1368 C1369 1.400 . S
C1369 C1368 1.400 . S
C1369 C1370 1.398 . S
C1369 C1375 1.491 . S
C1370 H1361 0.950 . S
C1370 C1369 1.398 . S
C1370 C1371 1.391 . S
C1371 H1359 0.950 . S
C1371 C1367 1.393 . S
C1371 C1370 1.391 . S
C1372 H1362 0.950 . S
C1372 C1373 1.386 . S
C1372 C1374 1.391 . S
C1373 C1372 1.386 . S
C1373 C1377 1.393 . S
C1374 H1363 0.950 . S
C1374 C1372 1.391 . S
C1374 C1375 1.400 . S
C1375 C1369 1.491 . S
C1375 C1374 1.400 . S
C1375 C1376 1.398 . S
C1376 H1364 0.950 . S
C1376 C1375 1.398 . S
C1376 C1377 1.391 . S
C1377 H1365 0.950 . S
C1377 C1373 1.393 . S
C1377 C1376 1.391 . S
H1378 C1386 0.950 . S
H1379 C1391 0.950 . S
H1380 C1388 0.950 . S
H1381 C1390 0.950 . S
H1382 C1392 0.950 . S
H1383 C1394 0.950 . S
H1384 C1396 0.950 . S
H1385 C1397 0.950 . S
C1386 H1378 0.950 . S
C1386 C1387 1.386 . S
C1386 C1388 1.391 . S
C1387 C1386 1.386 . S
C1387 C1391 1.393 . S
C1388 H1380 0.950 . S
C1388 C1386 1.391 . S
C1388 C1389 1.400 . S
C1389 C1388 1.400 . S
C1389 C1390 1.398 . S
C1389 C1395 1.491 . S
C1390 H1381 0.950 . S
C1390 C1389 1.398 . S
C1390 C1391 1.391 . S
C1391 H1379 0.950 . S
C1391 C1387 1.393 . S
C1391 C1390 1.391 . S
C1392 H1382 0.950 . S
C1392 C1393 1.386 . S
C1392 C1394 1.391 . S
C1393 C1392 1.386 . S
C1393 C1397 1.393 . S
C1394 H1383 0.950 . S
C1394 C1392 1.391 . S
C1394 C1395 1.400 . S
C1395 C1389 1.491 . S
C1395 C1394 1.400 . S
C1395 C1396 1.398 . S
C1396 H1384 0.950 . S
C1396 C1395 1.398 . S
C1396 C1397 1.391 . S
C1397 H1385 0.950 . S
C1397 C1393 1.393 . S
C1397 C1396 1.391 . S
H1398 C1406 0.950 . S
H1399 C1411 0.950 . S
H1400 C1408 0.950 . S
H1401 C1410 0.950 . S
H1402 C1412 0.950 . S
H1403 C1414 0.950 . S
H1404 C1416 0.950 . S
H1405 C1417 0.950 . S
C1406 H1398 0.950 . S
C1406 C1407 1.386 . S
C1406 C1408 1.391 . S
C1407 C1406 1.386 . S
C1407 C1411 1.393 . S
C1408 H1400 0.950 . S
C1408 C1406 1.391 . S
C1408 C1409 1.400 . S
C1409 C1408 1.400 . S
C1409 C1410 1.398 . S
C1409 C1415 1.491 . S
C1410 H1401 0.950 . S
C1410 C1409 1.398 . S
C1410 C1411 1.391 . S
C1411 H1399 0.950 . S
C1411 C1407 1.393 . S
C1411 C1410 1.391 . S
C1412 H1402 0.950 . S
C1412 C1413 1.386 . S
C1412 C1414 1.391 . S
C1413 C1412 1.386 . S
C1413 C1417 1.393 . S
C1414 H1403 0.950 . S
C1414 C1412 1.391 . S
C1414 C1415 1.400 . S
C1415 C1409 1.491 . S
C1415 C1414 1.400 . S
C1415 C1416 1.398 . S
C1416 H1404 0.950 . S
C1416 C1415 1.398 . S
C1416 C1417 1.391 . S
C1417 H1405 0.950 . S
C1417 C1413 1.393 . S
C1417 C1416 1.391 . S
H1418 C1426 0.950 . S
H1419 C1431 0.950 . S
H1420 C1428 0.950 . S
H1421 C1430 0.950 . S
H1422 C1432 0.950 . S
H1423 C1434 0.950 . S
H1424 C1436 0.950 . S
H1425 C1437 0.950 . S
C1426 H1418 0.950 . S
C1426 C1427 1.386 . S
C1426 C1428 1.391 . S
C1427 C1426 1.386 . S
C1427 C1431 1.393 . S
C1428 H1420 0.950 . S
C1428 C1426 1.391 . S
C1428 C1429 1.400 . S
C1429 C1428 1.400 . S
C1429 C1430 1.398 . S
C1429 C1435 1.491 . S
C1430 H1421 0.950 . S
C1430 C1429 1.398 . S
C1430 C1431 1.391 . S
C1431 H1419 0.950 . S
C1431 C1427 1.393 . S
C1431 C1430 1.391 . S
C1432 H1422 0.950 . S
C1432 C1433 1.386 . S
C1432 C1434 1.391 . S
C1433 C1432 1.386 . S
C1433 C1437 1.393 . S
C1434 H1423 0.950 . S
C1434 C1432 1.391 . S
C1434 C1435 1.400 . S
C1435 C1429 1.491 . S
C1435 C1434 1.400 . S
C1435 C1436 1.398 . S
C1436 H1424 0.950 . S
C1436 C1435 1.398 . S
C1436 C1437 1.391 . S
C1437 H1425 0.950 . S
C1437 C1433 1.393 . S
C1437 C1436 1.391 . S
H1438 C1446 0.950 . S
H1439 C1451 0.950 . S
H1440 C1448 0.950 . S
H1441 C1450 0.950 . S
H1442 C1452 0.950 . S
H1443 C1454 0.950 . S
H1444 C1456 0.950 . S
H1445 C1457 0.950 . S
C1446 H1438 0.950 . S
C1446 C1447 1.386 . S
C1446 C1448 1.391 . S
C1447 C1446 1.386 . S
C1447 C1451 1.393 . S
C1448 H1440 0.950 . S
C1448 C1446 1.391 . S
C1448 C1449 1.400 . S
C1449 C1448 1.400 . S
C1449 C1450 1.398 . S
C1449 C1455 1.491 . S
C1450 H1441 0.950 . S
C1450 C1449 1.398 . S
C1450 C1451 1.391 . S
C1451 H1439 0.950 . S
C1451 C1447 1.393 . S
C1451 C1450 1.391 . S
C1452 H1442 0.950 . S
C1452 C1453 1.386 . S
C1452 C1454 1.391 . S
C1453 C1452 1.386 . S
C1453 C1457 1.393 . S
C1454 H1443 0.950 . S
C1454 C1452 1.391 . S
C1454 C1455 1.400 . S
C1455 C1449 1.491 . S
C1455 C1454 1.400 . S
C1455 C1456 1.398 . S
C1456 H1444 0.950 . S
C1456 C1455 1.398 . S
C1456 C1457 1.391 . S
C1457 H1445 0.950 . S
C1457 C1453 1.393 . S
C1457 C1456 1.391 . S
H1458 C1466 0.950 . S
H1459 C1471 0.950 . S
H1460 C1468 0.950 . S
H1461 C1470 0.950 . S
H1462 C1472 0.950 . S
H1463 C1474 0.950 . S
H1464 C1476 0.950 . S
H1465 C1477 0.950 . S
C1466 H1458 0.950 . S
C1466 C1467 1.386 . S
C1466 C1468 1.391 . S
C1467 C1466 1.386 . S
C1467 C1471 1.393 . S
C1468 H1460 0.950 . S
C1468 C1466 1.391 . S
C1468 C1469 1.400 . S
C1469 C1468 1.400 . S
C1469 C1470 1.398 . S
C1469 C1475 1.491 . S
C1470 H1461 0.950 . S
C1470 C1469 1.398 . S
C1470 C1471 1.391 . S
C1471 H1459 0.950 . S
C1471 C1467 1.393 . S
C1471 C1470 1.391 . S
C1472 H1462 0.950 . S
C1472 C1473 1.386 . S
C1472 C1474 1.391 . S
C1473 C1472 1.386 . S
C1473 C1477 1.393 . S
C1474 H1463 0.950 . S
C1474 C1472 1.391 . S
C1474 C1475 1.400 . S
C1475 C1469 1.491 . S
C1475 C1474 1.400 . S
C1475 C1476 1.398 . S
C1476 H1464 0.950 . S
C1476 C1475 1.398 . S
C1476 C1477 1.391 . S
C1477 H1465 0.950 . S
C1477 C1473 1.393 . S
C1477 C1476 1.391 . S
H1478 C1486 0.950 . S
H1479 C1491 0.950 . S
H1480 C1488 0.950 . S
H1481 C1490 0.950 . S
H1482 C1492 0.950 . S
H1483 C1494 0.950 . S
H1484 C1496 0.950 . S
H1485 C1497 0.950 . S
C1486 H1478 0.950 . S
C1486 C1487 1.386 . S
C1486 C1488 1.391 . S
C1487 C1486 1.386 . S
C1487 C1491 1.393 . S
C1488 H1480 0.950 . S
C1488 C1486 1.391 . S
C1488 C1489 1.400 . S
C1489 C1488 1.400 . S
C1489 C1490 1.398 . S
C1489 C1495 1.491 . S
C1490 H1481 0.950 . S
C1490 C1489 1.398 . S
C1490 C1491 1.391 . S
C1491 H1479 0.950 . S
C1491 C1487 1.393 . S
C1491 C1490 1.391 . S
C1492 H1482 0.950 . S
C1492 C1493 1.386 . S
C1492 C1494 1.391 . S
C1493 C1492 1.386 . S
C1493 C1497 1.393 . S
C1494 H1483 0.950 . S
C1494 C1492 1.391 . S
C1494 C1495 1.400 . S
C1495 C1489 1.491 . S
C1495 C1494 1.400 . S
C1495 C1496 1.398 . S
C1496 H1484 0.950 . S
C1496 C1495 1.398 . S
C1496 C1497 1.391 . S
C1497 H1485 0.950 . S
C1497 C1493 1.393 . S
C1497 C1496 1.391 . S
H1498 C1506 0.950 . S
H1499 C1511 0.950 . S
H1500 C1508 0.950 . S
H1501 C1510 0.950 . S
H1502 C1512 0.950 . S
H1503 C1514 0.950 . S
H1504 C1516 0.950 . S
H1505 C1517 0.950 . S
C1506 H1498 0.950 . S
C1506 C1507 1.386 . S
C1506 C1508 1.391 . S
C1507 C1506 1.386 . S
C1507 C1511 1.393 . S
C1508 H1500 0.950 . S
C1508 C1506 1.391 . S
C1508 C1509 1.400 . S
C1509 C1508 1.400 . S
C1509 C1510 1.398 . S
C1509 C1515 1.491 . S
C1510 H1501 0.950 . S
C1510 C1509 1.398 . S
C1510 C1511 1.391 . S
C1511 H1499 0.950 . S
C1511 C1507 1.393 . S
C1511 C1510 1.391 . S
C1512 H1502 0.950 . S
C1512 C1513 1.386 . S
C1512 C1514 1.391 . S
C1513 C1512 1.386 . S
C1513 C1517 1.393 . S
C1514 H1503 0.950 . S
C1514 C1512 1.391 . S
C1514 C1515 1.400 . S
C1515 C1509 1.491 . S
C1515 C1514 1.400 . S
C1515 C1516 1.398 . S
C1516 H1504 0.950 . S
C1516 C1515 1.398 . S
C1516 C1517 1.391 . S
C1517 H1505 0.950 . S
C1517 C1513 1.393 . S
C1517 C1516 1.391 . S
H1518 C1526 0.950 . S
H1519 C1531 0.950 . S
H1520 C1528 0.950 . S
H1521 C1530 0.950 . S
H1522 C1532 0.950 . S
H1523 C1534 0.950 . S
H1524 C1536 0.950 . S
H1525 C1537 0.950 . S
C1526 H1518 0.950 . S
C1526 C1527 1.386 . S
C1526 C1528 1.391 . S
C1527 C1526 1.386 . S
C1527 C1531 1.393 . S
C1528 H1520 0.950 . S
C1528 C1526 1.391 . S
C1528 C1529 1.400 . S
C1529 C1528 1.400 . S
C1529 C1530 1.398 . S
C1529 C1535 1.491 . S
C1530 H1521 0.950 . S
C1530 C1529 1.398 . S
C1530 C1531 1.391 . S
C1531 H1519 0.950 . S
C1531 C1527 1.393 . S
C1531 C1530 1.391 . S
C1532 H1522 0.950 . S
C1532 C1533 1.386 . S
C1532 C1534 1.391 . S
C1533 C1532 1.386 . S
C1533 C1537 1.393 . S
C1534 H1523 0.950 . S
C1534 C1532 1.391 . S
C1534 C1535 1.400 . S
C1535 C1529 1.491 . S
C1535 C1534 1.400 . S
C1535 C1536 1.398 . S
C1536 H1524 0.950 . S
C1536 C1535 1.398 . S
C1536 C1537 1.391 . S
C1537 H1525 0.950 . S
C1537 C1533 1.393 . S
C1537 C1536 1.391 . S
H1538 C1546 0.950 . S
H1539 C1551 0.950 . S
H1540 C1548 0.950 . S
H1541 C1550 0.950 . S
H1542 C1552 0.950 . S
H1543 C1554 0.950 . S
H1544 C1556 0.950 . S
H1545 C1557 0.950 . S
C1546 H1538 0.950 . S
C1546 C1547 1.386 . S
C1546 C1548 1.391 . S
C1547 C1546 1.386 . S
C1547 C1551 1.393 . S
C1548 H1540 0.950 . S
C1548 C1546 1.391 . S
C1548 C1549 1.400 . S
C1549 C1548 1.400 . S
C1549 C1550 1.398 . S
C1549 C1555 1.491 . S
C1550 H1541 0.950 . S
C1550 C1549 1.398 . S
C1550 C1551 1.391 . S
C1551 H1539 0.950 . S
C1551 C1547 1.393 . S
C1551 C1550 1.391 . S
C1552 H1542 0.950 . S
C1552 C1553 1.386 . S
C1552 C1554 1.391 . S
C1553 C1552 1.386 . S
C1553 C1557 1.393 . S
C1554 H1543 0.950 . S
C1554 C1552 1.391 . S
C1554 C1555 1.400 . S
C1555 C1549 1.491 . S
C1555 C1554 1.400 . S
C1555 C1556 1.398 . S
C1556 H1544 0.950 . S
C1556 C1555 1.398 . S
C1556 C1557 1.391 . S
C1557 H1545 0.950 . S
C1557 C1553 1.393 . S
C1557 C1556 1.391 . S
H1558 C1566 0.950 . S
H1559 C1571 0.950 . S
H1560 C1568 0.950 . S
H1561 C1570 0.950 . S
H1562 C1572 0.950 . S
H1563 C1574 0.950 . S
H1564 C1576 0.950 . S
H1565 C1577 0.950 . S
C1566 H1558 0.950 . S
C1566 C1567 1.386 . S
C1566 C1568 1.391 . S
C1567 C1566 1.386 . S
C1567 C1571 1.393 . S
C1568 H1560 0.950 . S
C1568 C1566 1.391 . S
C1568 C1569 1.400 . S
C1569 C1568 1.400 . S
C1569 C1570 1.398 . S
C1569 C1575 1.491 . S
C1570 H1561 0.950 . S
C1570 C1569 1.398 . S
C1570 C1571 1.391 . S
C1571 H1559 0.950 . S
C1571 C1567 1.393 . S
C1571 C1570 1.391 . S
C1572 H1562 0.950 . S
C1572 C1573 1.386 . S
C1572 C1574 1.391 . S
C1573 C1572 1.386 . S
C1573 C1577 1.393 . S
C1574 H1563 0.950 . S
C1574 C1572 1.391 . S
C1574 C1575 1.400 . S
C1575 C1569 1.491 . S
C1575 C1574 1.400 . S
C1575 C1576 1.398 . S
C1576 H1564 0.950 . S
C1576 C1575 1.398 . S
C1576 C1577 1.391 . S
C1577 H1565 0.950 . S
C1577 C1573 1.393 . S
C1577 C1576 1.391 . S
H1578 C1586 0.950 . S
H1579 C1591 0.950 . S
H1580 C1588 0.950 . S
H1581 C1590 0.950 . S
H1582 C1592 0.950 . S
H1583 C1594 0.950 . S
H1584 C1596 0.950 . S
H1585 C1597 0.950 . S
C1586 H1578 0.950 . S
C1586 C1587 1.386 . S
C1586 C1588 1.391 . S
C1587 C1586 1.386 . S
C1587 C1591 1.393 . S
C1588 H1580 0.950 . S
C1588 C1586 1.391 . S
C1588 C1589 1.400 . S
C1589 C1588 1.400 . S
C1589 C1590 1.398 . S
C1589 C1595 1.491 . S
C1590 H1581 0.950 . S
C1590 C1589 1.398 . S
C1590 C1591 1.391 . S
C1591 H1579 0.950 . S
C1591 C1587 1.393 . S
C1591 C1590 1.391 . S
C1592 H1582 0.950 . S
C1592 C1593 1.386 . S
C1592 C1594 1.391 . S
C1593 C1592 1.386 . S
C1593 C1597 1.393 . S
C1594 H1583 0.950 . S
C1594 C1592 1.391 . S
C1594 C1595 1.400 . S
C1595 C1589 1.491 . S
C1595 C1594 1.400 . S
C1595 C1596 1.398 . S
C1596 H1584 0.950 . S
C1596 C1595 1.398 . S
C1596 C1597 1.391 . S
C1597 H1585 0.950 . S
C1597 C1593 1.393 . S
C1597 C1596 1.391 . S
H1598 C1606 0.950 . S
H1599 C1611 0.950 . S
H1600 C1608 0.950 . S
H1601 C1610 0.950 . S
H1602 C1612 0.950 . S
H1603 C1614 0.950 . S
H1604 C1616 0.950 . S
H1605 C1617 0.950 . S
C1606 H1598 0.950 . S
C1606 C1607 1.386 . S
C1606 C1608 1.391 . S
C1607 C1606 1.386 . S
C1607 C1611 1.393 . S
C1608 H1600 0.950 . S
C1608 C1606 1.391 . S
C1608 C1609 1.400 . S
C1609 C1608 1.400 . S
C1609 C1610 1.398 . S
C1609 C1615 1.491 . S
C1610 H1601 0.950 . S
C1610 C1609 1.398 . S
C1610 C1611 1.391 . S
C1611 H1599 0.950 . S
C1611 C1607 1.393 . S
C1611 C1610 1.391 . S
C1612 H1602 0.950 . S
C1612 C1613 1.386 . S
C1612 C1614 1.391 . S
C1613 C1612 1.386 . S
C1613 C1617 1.393 . S
C1614 H1603 0.950 . S
C1614 C1612 1.391 . S
C1614 C1615 1.400 . S
C1615 C1609 1.491 . S
C1615 C1614 1.400 . S
C1615 C1616 1.398 . S
C1616 H1604 0.950 . S
C1616 C1615 1.398 . S
C1616 C1617 1.391 . S
C1617 H1605 0.950 . S
C1617 C1613 1.393 . S
C1617 C1616 1.391 . S
H1618 C1626 0.950 . S
H1619 C1631 0.950 . S
H1620 C1628 0.950 . S
H1621 C1630 0.950 . S
H1622 C1632 0.950 . S
H1623 C1634 0.950 . S
H1624 C1636 0.950 . S
H1625 C1637 0.950 . S
C1626 H1618 0.950 . S
C1626 C1627 1.386 . S
C1626 C1628 1.391 . S
C1627 C1626 1.386 . S
C1627 C1631 1.393 . S
C1628 H1620 0.950 . S
C1628 C1626 1.391 . S
C1628 C1629 1.400 . S
C1629 C1628 1.400 . S
C1629 C1630 1.398 . S
C1629 C1635 1.491 . S
C1630 H1621 0.950 . S
C1630 C1629 1.398 . S
C1630 C1631 1.391 . S
C1631 H1619 0.950 . S
C1631 C1627 1.393 . S
C1631 C1630 1.391 . S
C1632 H1622 0.950 . S
C1632 C1633 1.386 . S
C1632 C1634 1.391 . S
C1633 C1632 1.386 . S
C1633 C1637 1.393 . S
C1634 H1623 0.950 . S
C1634 C1632 1.391 . S
C1634 C1635 1.400 . S
C1635 C1629 1.491 . S
C1635 C1634 1.400 . S
C1635 C1636 1.398 . S
C1636 H1624 0.950 . S
C1636 C1635 1.398 . S
C1636 C1637 1.391 . S
C1637 H1625 0.950 . S
C1637 C1633 1.393 . S
C1637 C1636 1.391 . S
H1638 C1646 0.950 . S
H1639 C1651 0.950 . S
H1640 C1648 0.950 . S
H1641 C1650 0.950 . S
H1642 C1652 0.950 . S
H1643 C1654 0.950 . S
H1644 C1656 0.950 . S
H1645 C1657 0.950 . S
C1646 H1638 0.950 . S
C1646 C1647 1.386 . S
C1646 C1648 1.391 . S
C1647 C1646 1.386 . S
C1647 C1651 1.393 . S
C1648 H1640 0.950 . S
C1648 C1646 1.391 . S
C1648 C1649 1.400 . S
C1649 C1648 1.400 . S
C1649 C1650 1.398 . S
C1649 C1655 1.491 . S
C1650 H1641 0.950 . S
C1650 C1649 1.398 . S
C1650 C1651 1.391 . S
C1651 H1639 0.950 . S
C1651 C1647 1.393 . S
C1651 C1650 1.391 . S
C1652 H1642 0.950 . S
C1652 C1653 1.386 . S
C1652 C1654 1.391 . S
C1653 C1652 1.386 . S
C1653 C1657 1.393 . S
C1654 H1643 0.950 . S
C1654 C1652 1.391 . S
C1654 C1655 1.400 . S
C1655 C1649 1.491 . S
C1655 C1654 1.400 . S
C1655 C1656 1.398 . S
C1656 H1644 0.950 . S
C1656 C1655 1.398 . S
C1656 C1657 1.391 . S
C1657 H1645 0.950 . S
C1657 C1653 1.393 . S
C1657 C1656 1.391 . S
H1658 C1666 0.950 . S
H1659 C1671 0.950 . S
H1660 C1668 0.950 . S
H1661 C1670 0.950 . S
H1662 C1672 0.950 . S
H1663 C1674 0.950 . S
H1664 C1676 0.950 . S
H1665 C1677 0.950 . S
C1666 H1658 0.950 . S
C1666 C1667 1.386 . S
C1666 C1668 1.391 . S
C1667 C1666 1.386 . S
C1667 C1671 1.393 . S
C1668 H1660 0.950 . S
C1668 C1666 1.391 . S
C1668 C1669 1.400 . S
C1669 C1668 1.400 . S
C1669 C1670 1.398 . S
C1669 C1675 1.491 . S
C1670 H1661 0.950 . S
C1670 C1669 1.398 . S
C1670 C1671 1.391 . S
C1671 H1659 0.950 . S
C1671 C1667 1.393 . S
C1671 C1670 1.391 . S
C1672 H1662 0.950 . S
C1672 C1673 1.386 . S
C1672 C1674 1.391 . S
C1673 C1672 1.386 . S
C1673 C1677 1.393 . S
C1674 H1663 0.950 . S
C1674 C1672 1.391 . S
C1674 C1675 1.400 . S
C1675 C1669 1.491 . S
C1675 C1674 1.400 . S
C1675 C1676 1.398 . S
C1676 H1664 0.950 . S
C1676 C1675 1.398 . S
C1676 C1677 1.391 . S
C1677 H1665 0.950 . S
C1677 C1673 1.393 . S
C1677 C1676 1.391 . S
H1678 C1686 0.950 . S
H1679 C1691 0.950 . S
H1680 C1688 0.950 . S
H1681 C1690 0.950 . S
H1682 C1692 0.950 . S
H1683 C1694 0.950 . S
H1684 C1696 0.950 . S
H1685 C1697 0.950 . S
C1686 H1678 0.950 . S
C1686 C1687 1.386 . S
C1686 C1688 1.391 . S
C1687 C1686 1.386 . S
C1687 C1691 1.393 . S
C1688 H1680 0.950 . S
C1688 C1686 1.391 . S
C1688 C1689 1.400 . S
C1689 C1688 1.400 . S
C1689 C1690 1.398 . S
C1689 C1695 1.491 . S
C1690 H1681 0.950 . S
C1690 C1689 1.398 . S
C1690 C1691 1.391 . S
C1691 H1679 0.950 . S
C1691 C1687 1.393 . S
C1691 C1690 1.391 . S
C1692 H1682 0.950 . S
C1692 C1693 1.386 . S
C1692 C1694 1.391 . S
C1693 C1692 1.386 . S
C1693 C1697 1.393 . S
C1694 H1683 0.950 . S
C1694 C1692 1.391 . S
C1694 C1695 1.400 . S
C1695 C1689 1.491 . S
C1695 C1694 1.400 . S
C1695 C1696 1.398 . S
C1696 H1684 0.950 . S
C1696 C1695 1.398 . S
C1696 C1697 1.391 . S
C1697 H1685 0.950 . S
C1697 C1693 1.393 . S
C1697 C1696 1.391 . S
H1698 C1706 0.950 . S
H1699 C1711 0.950 . S
H1700 C1708 0.950 . S
H1701 C1710 0.950 . S
H1702 C1712 0.950 . S
H1703 C1714 0.950 . S
H1704 C1716 0.950 . S
H1705 C1717 0.950 . S
C1706 H1698 0.950 . S
C1706 C1707 1.386 . S
C1706 C1708 1.391 . S
C1707 C1706 1.386 . S
C1707 C1711 1.393 . S
C1708 H1700 0.950 . S
C1708 C1706 1.391 . S
C1708 C1709 1.400 . S
C1709 C1708 1.400 . S
C1709 C1710 1.398 . S
C1709 C1715 1.491 . S
C1710 H1701 0.950 . S
C1710 C1709 1.398 . S
C1710 C1711 1.391 . S
C1711 H1699 0.950 . S
C1711 C1707 1.393 . S
C1711 C1710 1.391 . S
C1712 H1702 0.950 . S
C1712 C1713 1.386 . S
C1712 C1714 1.391 . S
C1713 C1712 1.386 . S
C1713 C1717 1.393 . S
C1714 H1703 0.950 . S
C1714 C1712 1.391 . S
C1714 C1715 1.400 . S
C1715 C1709 1.491 . S
C1715 C1714 1.400 . S
C1715 C1716 1.398 . S
C1716 H1704 0.950 . S
C1716 C1715 1.398 . S
C1716 C1717 1.391 . S
C1717 H1705 0.950 . S
C1717 C1713 1.393 . S
C1717 C1716 1.391 . S
H1718 C1726 0.950 . S
H1719 C1731 0.950 . S
H1720 C1728 0.950 . S
H1721 C1730 0.950 . S
H1722 C1732 0.950 . S
H1723 C1734 0.950 . S
H1724 C1736 0.950 . S
H1725 C1737 0.950 . S
C1726 H1718 0.950 . S
C1726 C1727 1.386 . S
C1726 C1728 1.391 . S
C1727 C1726 1.386 . S
C1727 C1731 1.393 . S
C1728 H1720 0.950 . S
C1728 C1726 1.391 . S
C1728 C1729 1.400 . S
C1729 C1728 1.400 . S
C1729 C1730 1.398 . S
C1729 C1735 1.491 . S
C1730 H1721 0.950 . S
C1730 C1729 1.398 . S
C1730 C1731 1.391 . S
C1731 H1719 0.950 . S
C1731 C1727 1.393 . S
C1731 C1730 1.391 . S
C1732 H1722 0.950 . S
C1732 C1733 1.386 . S
C1732 C1734 1.391 . S
C1733 C1732 1.386 . S
C1733 C1737 1.393 . S
C1734 H1723 0.950 . S
C1734 C1732 1.391 . S
C1734 C1735 1.400 . S
C1735 C1729 1.491 . S
C1735 C1734 1.400 . S
C1735 C1736 1.398 . S
C1736 H1724 0.950 . S
C1736 C1735 1.398 . S
C1736 C1737 1.391 . S
C1737 H1725 0.950 . S
C1737 C1733 1.393 . S
C1737 C1736 1.391 . S
H1738 C1746 0.950 . S
H1739 C1751 0.950 . S
H1740 C1748 0.950 . S
H1741 C1750 0.950 . S
H1742 C1752 0.950 . S
H1743 C1754 0.950 . S
H1744 C1756 0.950 . S
H1745 C1757 0.950 . S
C1746 H1738 0.950 . S
C1746 C1747 1.386 . S
C1746 C1748 1.391 . S
C1747 C1746 1.386 . S
C1747 C1751 1.393 . S
C1748 H1740 0.950 . S
C1748 C1746 1.391 . S
C1748 C1749 1.400 . S
C1749 C1748 1.400 . S
C1749 C1750 1.398 . S
C1749 C1755 1.491 . S
C1750 H1741 0.950 . S
C1750 C1749 1.398 . S
C1750 C1751 1.391 . S
C1751 H1739 0.950 . S
C1751 C1747 1.393 . S
C1751 C1750 1.391 . S
C1752 H1742 0.950 . S
C1752 C1753 1.386 . S
C1752 C1754 1.391 . S
C1753 C1752 1.386 . S
C1753 C1757 1.393 . S
C1754 H1743 0.950 . S
C1754 C1752 1.391 . S
C1754 C1755 1.400 . S
C1755 C1749 1.491 . S
C1755 C1754 1.400 . S
C1755 C1756 1.398 . S
C1756 H1744 0.950 . S
C1756 C1755 1.398 . S
C1756 C1757 1.391 . S
C1757 H1745 0.950 . S
C1757 C1753 1.393 . S
C1757 C1756 1.391 . S
H1758 C1766 0.950 . S
H1759 C1771 0.950 . S
H1760 C1768 0.950 . S
H1761 C1770 0.950 . S
H1762 C1772 0.950 . S
H1763 C1774 0.950 . S
H1764 C1776 0.950 . S
H1765 C1777 0.950 . S
C1766 H1758 0.950 . S
C1766 C1767 1.386 . S
C1766 C1768 1.391 . S
C1767 C1766 1.386 . S
C1767 C1771 1.393 . S
C1768 H1760 0.950 . S
C1768 C1766 1.391 . S
C1768 C1769 1.400 . S
C1769 C1768 1.400 . S
C1769 C1770 1.398 . S
C1769 C1775 1.491 . S
C1770 H1761 0.950 . S
C1770 C1769 1.398 . S
C1770 C1771 1.391 . S
C1771 H1759 0.950 . S
C1771 C1767 1.393 . S
C1771 C1770 1.391 . S
C1772 H1762 0.950 . S
C1772 C1773 1.386 . S
C1772 C1774 1.391 . S
C1773 C1772 1.386 . S
C1773 C1777 1.393 . S
C1774 H1763 0.950 . S
C1774 C1772 1.391 . S
C1774 C1775 1.400 . S
C1775 C1769 1.491 . S
C1775 C1774 1.400 . S
C1775 C1776 1.398 . S
C1776 H1764 0.950 . S
C1776 C1775 1.398 . S
C1776 C1777 1.391 . S
C1777 H1765 0.950 . S
C1777 C1773 1.393 . S
C1777 C1776 1.391 . S
H1778 C1786 0.950 . S
H1779 C1791 0.950 . S
H1780 C1788 0.950 . S
H1781 C1790 0.950 . S
H1782 C1792 0.950 . S
H1783 C1794 0.950 . S
H1784 C1796 0.950 . S
H1785 C1797 0.950 . S
C1786 H1778 0.950 . S
C1786 C1787 1.386 . S
C1786 C1788 1.391 . S
C1787 C1786 1.386 . S
C1787 C1791 1.393 . S
C1788 H1780 0.950 . S
C1788 C1786 1.391 . S
C1788 C1789 1.400 . S
C1789 C1788 1.400 . S
C1789 C1790 1.398 . S
C1789 C1795 1.491 . S
C1790 H1781 0.950 . S
C1790 C1789 1.398 . S
C1790 C1791 1.391 . S
C1791 H1779 0.950 . S
C1791 C1787 1.393 . S
C1791 C1790 1.391 . S
C1792 H1782 0.950 . S
C1792 C1793 1.386 . S
C1792 C1794 1.391 . S
C1793 C1792 1.386 . S
C1793 C1797 1.393 . S
C1794 H1783 0.950 . S
C1794 C1792 1.391 . S
C1794 C1795 1.400 . S
C1795 C1789 1.491 . S
C1795 C1794 1.400 . S
C1795 C1796 1.398 . S
C1796 H1784 0.950 . S
C1796 C1795 1.398 . S
C1796 C1797 1.391 . S
C1797 H1785 0.950 . S
C1797 C1793 1.393 . S
C1797 C1796 1.391 . S
H1798 C1806 0.950 . S
H1799 C1811 0.950 . S
H1800 C1808 0.950 . S
H1801 C1810 0.950 . S
H1802 C1812 0.950 . S
H1803 C1814 0.950 . S
H1804 C1816 0.950 . S
H1805 C1817 0.950 . S
C1806 H1798 0.950 . S
C1806 C1807 1.386 . S
C1806 C1808 1.391 . S
C1807 C1806 1.386 . S
C1807 C1811 1.393 . S
C1808 H1800 0.950 . S
C1808 C1806 1.391 . S
C1808 C1809 1.400 . S
C1809 C1808 1.400 . S
C1809 C1810 1.398 . S
C1809 C1815 1.491 . S
C1810 H1801 0.950 . S
C1810 C1809 1.398 . S
C1810 C1811 1.391 . S
C1811 H1799 0.950 . S
C1811 C1807 1.393 . S
C1811 C1810 1.391 . S
C1812 H1802 0.950 . S
C1812 C1813 1.386 . S
C1812 C1814 1.391 . S
C1813 C1812 1.386 . S
C1813 C1817 1.393 . S
C1814 H1803 0.950 . S
C1814 C1812 1.391 . S
C1814 C1815 1.400 . S
C1815 C1809 1.491 . S
C1815 C1814 1.400 . S
C1815 C1816 1.398 . S
C1816 H1804 0.950 . S
C1816 C1815 1.398 . S
C1816 C1817 1.391 . S
C1817 H1805 0.950 . S
C1817 C1813 1.393 . S
C1817 C1816 1.391 . S
C873 C683 1.656 . S
C867 C74 1.652 . S
C893 C673 1.405 . S
C887 C153 1.329 . S
C913 C674 1.252 . S
C907 C231 1.244 . S
C927 C310 0.811 . S
C933 C696 0.599 . S
C947 C394 1.311 . S
C953 C699 1.398 . S
C973 C682 1.233 . S
C967 C494 1.240 . S
C987 C573 0.806 . S
C993 C672 0.575 . S
C1007 C651 1.639 . S
C1013 C690 1.641 . S
C1033 C703 2.453 . S
C1027 C56 2.540 . S
C1047 C151 1.608 . S
C1053 C752 1.578 . S
C1073 C730 1.423 . S
C1067 C237 1.396 . S
C1093 C744 1.221 . S
C1087 C326 1.208 . S
C1107 C410 1.235 . S
C1113 C705 1.225 . S
C1133 C758 2.461 . S
C1127 C476 2.551 . S
C1147 C571 1.610 . S
C1153 C714 1.587 . S
C1167 C657 1.328 . S
C1173 C735 1.407 . S
C1187 C58 1.340 . S
C1193 C761 1.389 . S
C1207 C392 1.612 . S
C1213 C745 1.560 . S
C1233 C704 1.427 . S
C1227 C478 1.367 . S
C1253 C736 1.213 . S
C1247 C567 1.227 . S
C1267 C655 2.542 . S
C1273 C727 2.466 . S
C1287 C235 2.552 . S
C1293 C734 2.462 . S
C1313 C721 1.578 . S
C1307 C308 1.613 . S
C1327 C147 1.217 . S
C1333 C713 1.200 . S
C1347 C662 1.653 . S
C1353 C776 1.655 . S
C1367 C405 1.302 . S
C1373 C766 1.384 . S
C1393 C767 1.252 . S
C1387 C483 1.245 . S
C1413 C789 0.592 . S
C1407 C562 0.753 . S
C1427 C142 1.328 . S
C1433 C792 1.405 . S
C1453 C775 1.250 . S
C1447 C242 1.239 . S
C1467 C321 0.778 . S
C1473 C765 0.539 . S
C1487 C63 1.635 . S
C1493 C783 1.651 . S
C1507 C644 2.542 . S
C1513 C796 2.450 . S
C1533 C845 1.577 . S
C1527 C403 1.608 . S
C1547 C489 1.387 . S
C1553 C823 1.407 . S
C1567 C578 1.228 . S
C1573 C837 1.233 . S
C1593 C798 1.225 . S
C1587 C158 1.234 . S
C1607 C224 2.550 . S
C1613 C851 2.461 . S
C1633 C807 1.568 . S
C1627 C319 1.616 . S
C1653 C828 1.387 . S
C1647 C69 1.335 . S
C1673 C854 1.389 . S
C1667 C646 1.341 . S
C1687 C140 1.612 . S
C1693 C838 1.560 . S
C1707 C226 1.392 . S
C1713 C797 1.429 . S
C1733 C829 1.214 . S
C1727 C315 1.213 . S
C1747 C67 2.543 . S
C1753 C820 2.452 . S
C1767 C487 2.549 . S
C1773 C827 2.444 . S
C1793 C814 1.587 . S
C1787 C560 1.609 . S
C1813 C806 1.205 . S
C1807 C399 1.220 . S
