# Generated by pormake.
# Topology zzz, (3,6)-cn, num edge types: 1
# Building blocks:
#     Node 0, Type 0, BuildingBlock: WUSLED_clean_sbu_0, # of connection points: 3
#     Node 1, Type 0, BuildingBlock: WUSLED_clean_sbu_0, # of connection points: 3
#     Node 2, Type 0, BuildingBlock: WUSLED_clean_sbu_0, # of connection points: 3
#     Node 3, Type 0, BuildingBlock: WUSLED_clean_sbu_0, # of connection points: 3
#     Node 4, Type 0, BuildingBlock: WUSLED_clean_sbu_0, # of connection points: 3
#     Node 5, Type 0, BuildingBlock: WUSLED_clean_sbu_0, # of connection points: 3
#     Node 6, Type 0, BuildingBlock: WUSLED_clean_sbu_0, # of connection points: 3
#     Node 7, Type 0, BuildingBlock: WUSLED_clean_sbu_0, # of connection points: 3
#     Node 8, Type 1, BuildingBlock: KUMBOL_clean_sbu_1, # of connection points: 6
#     Node 9, Type 1, BuildingBlock: KUMBOL_clean_sbu_1, # of connection points: 6
#     Node 10, Type 1, BuildingBlock: KUMBOL_clean_sbu_1, # of connection points: 6
#     Node 11, Type 1, BuildingBlock: KUMBOL_clean_sbu_1, # of connection points: 6
#     Edge 12, Type (0, 1), BuildingBlock: TEMPAE_clean_linker_10, # of connection points: 2
#     Edge 13, Type (0, 1), BuildingBlock: TEMPAE_clean_linker_10, # of connection points: 2
#     Edge 14, Type (0, 1), BuildingBlock: TEMPAE_clean_linker_10, # of connection points: 2
#     Edge 15, Type (0, 1), BuildingBlock: TEMPAE_clean_linker_10, # of connection points: 2
#     Edge 16, Type (0, 1), BuildingBlock: TEMPAE_clean_linker_10, # of connection points: 2
#     Edge 17, Type (0, 1), BuildingBlock: TEMPAE_clean_linker_10, # of connection points: 2
#     Edge 18, Type (0, 1), BuildingBlock: TEMPAE_clean_linker_10, # of connection points: 2
#     Edge 19, Type (0, 1), BuildingBlock: TEMPAE_clean_linker_10, # of connection points: 2
#     Edge 20, Type (0, 1), BuildingBlock: TEMPAE_clean_linker_10, # of connection points: 2
#     Edge 21, Type (0, 1), BuildingBlock: TEMPAE_clean_linker_10, # of connection points: 2
#     Edge 22, Type (0, 1), BuildingBlock: TEMPAE_clean_linker_10, # of connection points: 2
#     Edge 23, Type (0, 1), BuildingBlock: TEMPAE_clean_linker_10, # of connection points: 2
#     Edge 24, Type (0, 1), BuildingBlock: TEMPAE_clean_linker_10, # of connection points: 2
#     Edge 25, Type (0, 1), BuildingBlock: TEMPAE_clean_linker_10, # of connection points: 2
#     Edge 26, Type (0, 1), BuildingBlock: TEMPAE_clean_linker_10, # of connection points: 2
#     Edge 27, Type (0, 1), BuildingBlock: TEMPAE_clean_linker_10, # of connection points: 2
#     Edge 28, Type (0, 1), BuildingBlock: TEMPAE_clean_linker_10, # of connection points: 2
#     Edge 29, Type (0, 1), BuildingBlock: TEMPAE_clean_linker_10, # of connection points: 2
#     Edge 30, Type (0, 1), BuildingBlock: TEMPAE_clean_linker_10, # of connection points: 2
#     Edge 31, Type (0, 1), BuildingBlock: TEMPAE_clean_linker_10, # of connection points: 2
#     Edge 32, Type (0, 1), BuildingBlock: TEMPAE_clean_linker_10, # of connection points: 2
#     Edge 33, Type (0, 1), BuildingBlock: TEMPAE_clean_linker_10, # of connection points: 2
#     Edge 34, Type (0, 1), BuildingBlock: TEMPAE_clean_linker_10, # of connection points: 2
#     Edge 35, Type (0, 1), BuildingBlock: TEMPAE_clean_linker_10, # of connection points: 2
# Relax obj value: 0.287
# Max RMSD: 0.200
# Mean RMSD: 0.175
data_MOF--net-zzz--node1-WUSLED_clean_sbu_0--node2-KUMBOL_clean_sbu_1--edge1-TEMPAE_clean_linker_10
_symmetry_space_group_name_H-M    P1
_symmetry_Int_Tables_number       1
_symmetry_cell_setting            triclinic
loop_
_symmetry_equiv_pos_as_xyz
'x, y, z'
_cell_length_a     61.16346
_cell_length_b     60.984905
_cell_length_c     22.517506
_cell_angle_alpha  89.70114
_cell_angle_beta   89.832781
_cell_angle_gamma 90.430246
loop_
_atom_site_label
_atom_site_type_symbol
_atom_site_fract_x
_atom_site_fract_y
_atom_site_fract_z
_atom_type_partial_charge
C0 C 0.77668 0.55306 0.40133 0.0
C1 C 0.79567 0.54674 0.37053 0.0
C2 C 0.81834 0.55013 0.46078 0.0
C3 C 0.81608 0.54518 0.39982 0.0
C4 C 0.79938 0.55688 0.4913 0.0
C5 C 0.77892 0.55814 0.46219 0.0
U6 U 0.73422 0.55429 0.26762 0.0
O7 O 0.70346 0.53536 0.25677 0.0
O8 O 0.70228 0.57103 0.25878 0.0
C9 C 0.69137 0.55281 0.24807 0.0
C10 C 0.75432 0.55323 0.37265 0.0
C11 C 0.67649 0.55251 0.19446 0.0
C12 C 0.6394 0.54885 0.15292 0.0
C13 C 0.65369 0.55033 0.20207 0.0
C14 C 0.67022 0.55199 0.08643 0.0
C15 C 0.64735 0.5493 0.09396 0.0
C16 C 0.68451 0.55364 0.13573 0.0
C17 C 0.77533 0.55877 0.12956 0.0
C18 C 0.78784 0.56516 0.02891 0.0
C19 C 0.81403 0.55799 0.1073 0.0
C20 C 0.79693 0.55619 0.14859 0.0
C21 C 0.80957 0.56241 0.04699 0.0
C22 C 0.77091 0.56329 0.06987 0.0
C23 C 0.75659 0.55697 0.16927 0.0
O24 O 0.74782 0.57141 0.34657 0.0
O25 O 0.74835 0.53569 0.34283 0.0
O26 O 0.75219 0.53811 0.19543 0.0
O27 O 0.75047 0.57436 0.19896 0.0
H28 H 0.7947 0.54272 0.32382 0.0
H29 H 0.83023 0.54011 0.37454 0.0
H30 H 0.80025 0.56065 0.5382 0.0
H31 H 0.76467 0.56283 0.4877 0.0
H32 H 0.62208 0.54668 0.16132 0.0
H33 H 0.64687 0.54941 0.24646 0.0
H34 H 0.67714 0.55283 0.04215 0.0
H35 H 0.70191 0.55553 0.12786 0.0
H36 H 0.78389 0.56863 0.98297 0.0
H37 H 0.83063 0.55534 0.12216 0.0
H38 H 0.80051 0.5526 0.19471 0.0
H39 H 0.75422 0.56527 0.05477 0.0
C40 C 0.99103 0.78017 0.4094 0.0
C41 C 0.99458 0.7992 0.37478 0.0
C42 C 0.99374 0.82309 0.46332 0.0
C43 C 0.99598 0.8202 0.40124 0.0
C44 C 0.98946 0.80404 0.49757 0.0
C45 C 0.98826 0.78301 0.47112 0.0
U46 U 0.98865 0.73987 0.275 0.0
O47 O 0.97297 0.70739 0.25993 0.0
O48 O 1.00839 0.71081 0.2519 0.0
C49 C 0.99135 0.69782 0.24467 0.0
C50 C 0.99124 0.75737 0.38283 0.0
C51 C 0.99119 0.68331 0.19034 0.0
C52 C 0.99207 0.64612 0.14833 0.0
C53 C 0.99129 0.66037 0.19754 0.0
C54 C 0.99261 0.6773 0.08228 0.0
C55 C 0.99303 0.65414 0.08925 0.0
C56 C 0.99165 0.69158 0.1318 0.0
C57 C 0.98061 0.7822 0.13941 0.0
C58 C 0.97888 0.7877 0.03325 0.0
C59 C 0.97645 0.81872 0.10024 0.0
C60 C 0.97835 0.80468 0.14852 0.0
C61 C 0.97683 0.81037 0.04231 0.0
C62 C 0.9807 0.77358 0.08193 0.0
C63 C 0.98344 0.76829 0.19093 0.0
O64 O 0.97293 0.7499 0.35966 0.0
O65 O 1.00831 0.75231 0.35017 0.0
O66 O 1.00296 0.76196 0.2077 0.0
O67 O 0.96667 0.75875 0.21721 0.0
H68 H 0.99659 0.79781 0.32714 0.0
H69 H 0.99888 0.83429 0.37276 0.0
H70 H 0.9877 0.80525 0.54529 0.0
H71 H 0.98553 0.76881 0.49936 0.0
H72 H 0.99175 0.62868 0.15721 0.0
H73 H 0.99088 0.65334 0.24182 0.0
H74 H 0.99352 0.68463 0.0385 0.0
H75 H 0.99158 0.70914 0.12425 0.0
H76 H 0.97954 0.78107 0.98874 0.0
H77 H 0.97563 0.83621 0.10814 0.0
H78 H 0.97853 0.81143 0.19298 0.0
H79 H 0.98255 0.75613 0.07483 0.0
C80 C 0.76281 0.99419 0.40551 0.0
C81 C 0.74446 1.00046 0.37214 0.0
C82 C 0.7199 0.99613 0.45893 0.0
C83 C 0.72345 1.00145 0.39831 0.0
C84 C 0.73844 0.98986 0.49215 0.0
C85 C 0.75946 0.98892 0.46591 0.0
U86 U 0.8042 0.99087 0.27269 0.0
O87 O 0.83455 1.00967 0.25412 0.0
O88 O 0.83599 0.97404 0.26141 0.0
C89 C 0.84663 0.99213 0.24696 0.0
C90 C 0.7855 0.99383 0.37911 0.0
C91 C 0.86112 0.99165 0.19251 0.0
C92 C 0.89819 0.99294 0.14966 0.0
C93 C 0.88401 0.99183 0.19925 0.0
C94 C 0.86702 0.99344 0.08438 0.0
C95 C 0.89 0.9942 0.09129 0.0
C96 C 0.8528 0.99205 0.13414 0.0
C97 C 0.76182 0.98448 0.1378 0.0
C98 C 0.75161 0.97826 0.03569 0.0
C99 C 0.72407 0.98791 0.10878 0.0
C100 C 0.74006 0.98867 0.15284 0.0
C101 C 0.72983 0.983 0.04963 0.0
C102 C 0.76748 0.97904 0.07957 0.0
C103 C 0.77946 0.98654 0.18028 0.0
O104 O 0.79219 0.97524 0.35609 0.0
O105 O 0.79141 1.01085 0.34656 0.0
O106 O 0.78468 1.00586 0.20184 0.0
O107 O 0.78617 0.96949 0.21088 0.0
H108 H 0.74637 1.00479 0.32569 0.0
H109 H 0.71001 1.00679 0.37082 0.0
H110 H 0.73676 0.98536 0.53851 0.0
H111 H 0.7732 0.9841 0.49314 0.0
H112 H 0.91566 0.99359 0.15722 0.0
H113 H 0.89103 0.99157 0.24336 0.0
H114 H 0.86001 0.99405 0.04029 0.0
H115 H 0.83529 0.99171 0.12698 0.0
H116 H 0.75646 0.97439 0.99067 0.0
H117 H 0.70741 0.99204 0.12048 0.0
H118 H 0.73558 0.99299 0.19786 0.0
H119 H 0.78436 0.97589 0.06772 0.0
C120 C 0.551 0.76625 0.40458 0.0
C121 C 0.54539 0.74733 0.37227 0.0
C122 C 0.54749 0.72383 0.46195 0.0
C123 C 0.54358 0.72657 0.40046 0.0
C124 C 0.55365 0.74274 0.49398 0.0
C125 C 0.5552 0.76356 0.46587 0.0
U126 U 0.55393 0.80949 0.27203 0.0
O127 O 0.53418 0.83937 0.2577 0.0
O128 O 0.56965 0.84229 0.26375 0.0
C129 C 0.55129 0.85229 0.25052 0.0
C130 C 0.55118 0.78895 0.37681 0.0
C131 C 0.55119 0.86748 0.19696 0.0
C132 C 0.54289 0.90386 0.15514 0.0
C133 C 0.5442 0.88926 0.20389 0.0
C134 C 0.55633 0.87568 0.09022 0.0
C135 C 0.54881 0.8974 0.0973 0.0
C136 C 0.55734 0.86088 0.13919 0.0
C137 C 0.56144 0.76831 0.13704 0.0
C138 C 0.56311 0.75518 0.03631 0.0
C139 C 0.56268 0.72935 0.11884 0.0
C140 C 0.56194 0.74678 0.15888 0.0
C141 C 0.56274 0.73355 0.05736 0.0
C142 C 0.56245 0.77243 0.07599 0.0
C143 C 0.55891 0.78726 0.17489 0.0
O144 O 0.56963 0.79641 0.35386 0.0
O145 O 0.53421 0.79442 0.34431 0.0
O146 O 0.53956 0.7912 0.19786 0.0
O147 O 0.57557 0.79376 0.20717 0.0
H148 H 0.54208 0.74862 0.32517 0.0
H149 H 0.53907 0.71252 0.37385 0.0
H150 H 0.55666 0.74157 0.54126 0.0
H151 H 0.55936 0.77772 0.49251 0.0
H152 H 0.53715 0.92036 0.16276 0.0
H153 H 0.53944 0.89503 0.24742 0.0
H154 H 0.56086 0.86994 0.04647 0.0
H155 H 0.56272 0.84423 0.13175 0.0
H156 H 0.56295 0.75869 0.98907 0.0
H157 H 0.56198 0.71266 0.13559 0.0
H158 H 0.56108 0.7435 0.20616 0.0
H159 H 0.56201 0.78907 0.05887 0.0
C160 C 0.25989 0.48741 0.8904 0.0
C161 C 0.24042 0.48115 0.91982 0.0
C162 C 0.21775 0.49012 0.83153 0.0
C163 C 0.2198 0.48245 0.89094 0.0
C164 C 0.23747 0.49591 0.80221 0.0
C165 C 0.25798 0.49457 0.83098 0.0
U166 U 0.30487 0.48301 0.02015 0.0
O167 O 0.33387 0.50445 0.03019 0.0
O168 O 0.33847 0.46925 0.02078 0.0
C169 C 0.34762 0.4881 0.03511 0.0
C170 C 0.2823 0.48722 0.91932 0.0
C171 C 0.36222 0.48849 0.08926 0.0
C172 C 0.39891 0.48734 0.13402 0.0
C173 C 0.38495 0.48536 0.08421 0.0
C174 C 0.36779 0.49536 0.19578 0.0
C175 C 0.39073 0.49269 0.19104 0.0
C176 C 0.35387 0.4932 0.1461 0.0
C177 C 0.2637 0.47251 0.15047 0.0
C178 C 0.24522 0.46667 0.24431 0.0
C179 C 0.22563 0.48215 0.16062 0.0
C180 C 0.24434 0.48035 0.12542 0.0
C181 C 0.22617 0.47611 0.22107 0.0
C182 C 0.26388 0.465 0.20926 0.0
C183 C 0.28465 0.47525 0.1206 0.0
O184 O 0.28754 0.50366 0.9542 0.0
O185 O 0.29032 0.46851 0.93862 0.0
O186 O 0.28895 0.49507 0.10039 0.0
O187 O 0.29112 0.45949 0.08524 0.0
H188 H 0.24109 0.47548 0.96541 0.0
H189 H 0.20534 0.47789 0.91605 0.0
H190 H 0.23721 0.50143 0.75647 0.0
H191 H 0.27254 0.49935 0.80647 0.0
H192 H 0.4162 0.48458 0.12744 0.0
H193 H 0.39203 0.48163 0.04132 0.0
H194 H 0.36041 0.49976 0.23771 0.0
H195 H 0.33649 0.49571 0.152 0.0
H196 H 0.24603 0.46155 0.29038 0.0
H197 H 0.21126 0.48965 0.14153 0.0
H198 H 0.2441 0.48632 0.08003 0.0
H199 H 0.27884 0.45903 0.22914 0.0
C200 C 0.05662 0.26565 0.88056 0.0
C201 C 0.05886 0.24609 0.91323 0.0
C202 C 0.05491 0.22342 0.82278 0.0
C203 C 0.05799 0.22541 0.88498 0.0
C204 C 0.05319 0.24326 0.79025 0.0
C205 C 0.05396 0.26389 0.81862 0.0
U206 U 0.05966 0.30648 1.01612 0.0
O207 O 0.0381 0.33443 0.03658 0.0
O208 O 0.07308 0.34024 0.02531 0.0
C209 C 0.05424 0.34863 0.0416 0.0
C210 C 0.05601 0.28788 0.90972 0.0
C211 C 0.05394 0.36335 0.09548 0.0
C212 C 0.05003 0.40046 0.13654 0.0
C213 C 0.05175 0.38615 0.08765 0.0
C214 C 0.05332 0.36972 0.20353 0.0
C215 C 0.05055 0.3926 0.19562 0.0
C216 C 0.05485 0.35533 0.15433 0.0
C217 C 0.07101 0.26461 0.15083 0.0
C218 C 0.06926 0.25331 0.25392 0.0
C219 C 0.06979 0.22605 0.17573 0.0
C220 C 0.07129 0.24267 0.1329 0.0
C221 C 0.06796 0.2314 0.23616 0.0
C222 C 0.07081 0.26984 0.21131 0.0
C223 C 0.06733 0.28249 0.10921 0.0
O224 O 0.0394 0.29173 0.94523 0.0
O225 O 0.07444 0.29598 0.93065 0.0
O226 O 0.08328 0.2904 0.07599 0.0
O227 O 0.04748 0.2859 0.0893 0.0
H228 H 0.06092 0.24675 0.96095 0.0
H229 H 0.05915 0.21093 0.91268 0.0
H230 H 0.0513 0.24301 0.7425 0.0
H231 H 0.05225 0.27859 0.79186 0.0
H232 H 0.04834 0.41784 0.12785 0.0
H233 H 0.05108 0.39298 0.04319 0.0
H234 H 0.05372 0.36281 0.2479 0.0
H235 H 0.05647 0.33788 0.16235 0.0
H236 H 0.06737 0.2577 0.30022 0.0
H237 H 0.0686 0.20912 0.16165 0.0
H238 H 0.07132 0.23847 0.08621 0.0
H239 H 0.07029 0.28681 0.22541 0.0
C240 C 0.27836 0.06171 0.88862 0.0
C241 C 0.29777 0.06754 0.91815 0.0
C242 C 0.32014 0.05885 0.82972 0.0
C243 C 0.3183 0.06616 0.88918 0.0
C244 C 0.30048 0.05348 0.80021 0.0
C245 C 0.28004 0.05489 0.82914 0.0
U246 U 0.23591 0.06613 0.02206 0.0
O247 O 0.20263 0.08029 0.02487 0.0
O248 O 0.20688 0.04508 0.03742 0.0
C249 C 0.19327 0.06159 0.04017 0.0
C250 C 0.25626 0.0619 0.91818 0.0
C251 C 0.17793 0.06176 0.09252 0.0
C252 C 0.14059 0.05757 0.1313 0.0
C253 C 0.15536 0.05896 0.08326 0.0
C254 C 0.17046 0.06249 0.19984 0.0
C255 C 0.14784 0.05909 0.19054 0.0
C256 C 0.18532 0.06368 0.15156 0.0
C257 C 0.27657 0.07755 0.15647 0.0
C258 C 0.28941 0.08341 0.25664 0.0
C259 C 0.31463 0.07172 0.17984 0.0
C260 C 0.29772 0.07207 0.13817 0.0
C261 C 0.31033 0.07659 0.23989 0.0
C262 C 0.27267 0.08387 0.21515 0.0
C263 C 0.25743 0.07395 0.11944 0.0
O264 O 0.25148 0.04539 0.95381 0.0
O265 O 0.24884 0.08066 0.93832 0.0
O266 O 0.25065 0.08977 0.08439 0.0
O267 O 0.2539 0.05404 0.09935 0.0
H268 H 0.29712 0.07288 0.96391 0.0
H269 H 0.33281 0.0703 0.9142 0.0
H270 H 0.30076 0.04823 0.75437 0.0
H271 H 0.26542 0.05042 0.80485 0.0
H272 H 0.12337 0.05528 0.12193 0.0
H273 H 0.1491 0.05752 0.03849 0.0
H274 H 0.17679 0.06362 0.24461 0.0
H275 H 0.2026 0.06577 0.16043 0.0
H276 H 0.28574 0.08737 0.30243 0.0
H277 H 0.33065 0.06624 0.16595 0.0
H278 H 0.30088 0.06704 0.09289 0.0
H279 H 0.25631 0.08799 0.22978 0.0
C280 C 0.47905 0.28269 0.88972 0.0
C281 C 0.4697 0.30174 0.91393 0.0
C282 C 0.48242 0.3245 0.82889 0.0
C283 C 0.47126 0.32225 0.88387 0.0
C284 C 0.49135 0.30524 0.80451 0.0
C285 C 0.48959 0.28481 0.83416 0.0
U286 U 0.47314 0.2392 0.02318 0.0
O287 O 0.45952 0.20525 0.02642 0.0
O288 O 0.49447 0.21068 0.03851 0.0
C289 C 0.47824 0.19652 0.04245 0.0
C290 C 0.47844 0.26048 0.92019 0.0
C291 C 0.47833 0.18146 0.09616 0.0
C292 C 0.47761 0.144 0.13787 0.0
C293 C 0.47555 0.15864 0.08923 0.0
C294 C 0.48513 0.17452 0.20242 0.0
C295 C 0.48287 0.15161 0.19517 0.0
C296 C 0.48273 0.1892 0.1539 0.0
C297 C 0.46144 0.2803 0.15468 0.0
C298 C 0.46418 0.29721 0.25108 0.0
C299 C 0.45806 0.31965 0.16343 0.0
C300 C 0.45792 0.3008 0.12817 0.0
C301 C 0.46185 0.31799 0.22501 0.0
C302 C 0.46394 0.27857 0.21616 0.0
C303 C 0.46466 0.26032 0.12094 0.0
O304 O 0.49449 0.25574 0.95666 0.0
O305 O 0.45955 0.25254 0.93899 0.0
O306 O 0.4492 0.2537 0.08464 0.0
O307 O 0.48462 0.25656 0.1021 0.0
H308 H 0.46138 0.30086 0.95639 0.0
H309 H 0.46419 0.33653 0.9046 0.0
H310 H 0.49971 0.30592 0.76208 0.0
H311 H 0.49673 0.27052 0.81358 0.0
H312 H 0.47583 0.12656 0.13016 0.0
H313 H 0.47226 0.152 0.04561 0.0
H314 H 0.48892 0.18112 0.24579 0.0
H315 H 0.48484 0.20662 0.16134 0.0
H316 H 0.4677 0.29537 0.29797 0.0
H317 H 0.45619 0.33554 0.1424 0.0
H318 H 0.45596 0.30228 0.08052 0.0
H319 H 0.46683 0.26278 0.23698 0.0
C320 C 0.08417 0.03659 0.75656 0.0
C321 C 0.0734 0.0436 0.85853 0.0
C322 C 0.06829 0.03639 0.80063 0.0
C323 C 0.0942 0.05238 0.87027 0.0
C324 C 0.10559 0.04382 0.7696 0.0
C325 C 0.11032 0.05234 0.82601 0.0
N326 N 0.07937 0.02741 0.70319 0.0
C327 C 0.09546 0.02392 0.66233 0.0
C328 C 0.12195 0.04109 0.72676 0.0
C329 C 0.11691 0.0308 0.67325 0.0
Gd330 Gd 0.99598 0.03389 0.59042 0.0
Gd331 Gd 0.04315 1.01531 0.69027 0.0
N332 N 0.04882 0.02653 0.78901 0.0
C333 C 0.05807 0.0402 0.90401 0.0
C334 C 0.03541 0.02039 0.83496 0.0
C335 C 0.03923 0.02797 0.89245 0.0
H336 H 0.02179 1.0094 0.82758 0.0
H337 H 0.02798 0.02382 0.92805 0.0
H338 H 0.02954 1.00698 0.49014 0.0
H339 H 0.09203 1.01492 0.62251 0.0
H340 H 0.02543 0.99289 0.38947 0.0
H341 H 0.06134 0.04557 0.94894 0.0
H342 H 0.09835 0.05811 0.91433 0.0
H343 H 0.94586 0.03333 0.65313 0.0
H344 H 0.13868 0.04604 0.73553 0.0
H345 H 0.12963 0.02778 0.64086 0.0
H346 H 0.94802 0.99185 0.35764 0.0
H347 H 0.12664 0.05809 0.83663 0.0
H348 H 0.90129 1.01195 0.51902 0.0
H349 H 0.90811 0.02586 0.62031 0.0
N350 N 0.96032 0.02189 0.57302 0.0
C351 C 0.95704 1.01359 0.51782 0.0
C352 C 0.94314 0.02605 0.61008 0.0
C353 C 0.91795 1.01442 0.53395 0.0
C354 C 0.92172 0.02222 0.59124 0.0
C355 C 0.93567 1.00999 0.49648 0.0
H356 H 0.91629 1.00005 0.42072 0.0
N357 N 0.99563 1.01267 0.50342 0.0
C358 C 0.9751 1.00899 0.48198 0.0
C359 C 0.99034 0.99532 0.39028 0.0
C360 C 0.97197 1.00061 0.42431 0.0
C361 C 1.01349 1.00613 0.47184 0.0
C362 C 1.01115 0.99761 0.41472 0.0
O363 O 0.04483 0.05213 0.67329 0.0
O364 O 1.00828 0.05927 0.65862 0.0
O365 O 0.98928 0.05309 0.51209 0.0
O366 O 0.97307 0.06096 0.59576 0.0
O367 O 1.01171 0.02716 0.73575 0.0
O368 O 0.98293 0.0189 0.67602 0.0
O369 O 0.99617 0.99669 0.60258 0.0
O370 O 0.03272 0.99149 0.61662 0.0
O371 O 0.03095 0.98505 0.7286 0.0
O372 O 0.0667 0.99124 0.71776 0.0
O373 O 0.02979 0.04361 0.55706 0.0
O374 O 0.05402 0.01826 0.59353 0.0
C375 C 0.02843 0.06604 0.67077 0.0
C376 C 0.99137 0.0204 0.72926 0.0
C377 C 0.97406 0.0884 0.52022 0.0
C378 C 0.98996 0.12167 0.47822 0.0
C379 C 0.95078 0.11904 0.49539 0.0
C380 C 0.95332 0.09793 0.51784 0.0
C381 C 0.96896 0.13086 0.47563 0.0
C382 C 0.99251 0.1002 0.49986 0.0
C383 C 0.9752 0.06551 0.53926 0.0
C384 C 0.95069 0.99781 0.40231 0.0
C385 C 0.93261 1.00244 0.43828 0.0
H386 H 0.98862 0.98899 0.34565 0.0
C387 C 1.01301 0.98341 0.60594 0.0
C388 C 0.04862 0.03337 0.55413 0.0
C389 C 0.05582 0.95663 0.76098 0.0
C390 C 0.04347 0.9247 0.81498 0.0
C391 C 0.08095 0.9269 0.78049 0.0
C392 C 0.07675 0.94748 0.75587 0.0
C393 C 0.06435 0.91552 0.81034 0.0
C394 C 0.03919 0.94512 0.79026 0.0
C395 C 0.05106 0.97799 0.73537 0.0
H396 H 0.93468 0.12621 0.49296 0.0
H397 H 0.93897 0.08882 0.53236 0.0
H398 H 0.96661 0.14722 0.45785 0.0
H399 H 1.0086 0.09284 0.50099 0.0
H400 H 0.09702 0.91977 0.77633 0.0
H401 H 0.08976 0.95612 0.73265 0.0
H402 H 0.06767 0.8995 0.82917 0.0
H403 H 0.02295 0.95201 0.79431 0.0
C404 C 0.51075 0.9494 0.57116 0.0
C405 C 0.48162 0.9336 0.63132 0.0
C406 C 0.49429 0.95189 0.61312 0.0
C407 C 0.48544 0.913 0.60593 0.0
C408 C 0.51505 0.92859 0.54684 0.0
C409 C 0.50215 0.91049 0.56394 0.0
N410 N 0.52248 0.96732 0.55386 0.0
C411 C 0.5395 0.96538 0.51459 0.0
C412 C 0.53212 0.9266 0.50572 0.0
C413 C 0.54452 0.94504 0.48997 0.0
Gd414 Gd 0.52731 0.04778 0.69474 0.0
Gd415 Gd 0.51011 1.00111 0.59058 0.0
N416 N 0.49078 0.97208 0.63646 0.0
C417 C 0.46542 0.93655 0.67446 0.0
C418 C 0.47542 0.97485 0.67989 0.0
C419 C 0.4625 0.95722 0.69935 0.0
H420 H 0.47306 0.99051 0.70025 0.0
H421 H 0.45022 0.95962 0.73337 0.0
H422 H 0.55967 0.06047 0.57494 0.0
H423 H 0.54849 0.97971 0.49964 0.0
H424 H 0.5826 0.09158 0.54322 0.0
H425 H 0.45526 0.92295 0.68931 0.0
H426 H 0.47567 0.89885 0.61883 0.0
H427 H 0.48846 0.06807 0.786 0.0
H428 H 0.53586 0.91091 0.4859 0.0
H429 H 0.55767 0.94368 0.45796 0.0
H430 H 0.55996 0.15052 0.66892 0.0
H431 H 0.50502 0.89445 0.54509 0.0
H432 H 0.5006 0.13683 0.80386 0.0
H433 H 0.47915 0.10363 0.83026 0.0
N434 N 0.51389 0.08121 0.73115 0.0
C435 C 0.52528 0.09944 0.71437 0.0
C436 C 0.49715 0.0826 0.7714 0.0
C437 C 0.50429 0.12138 0.78265 0.0
C438 C 0.4921 0.10269 0.79754 0.0
C439 C 0.52111 0.11993 0.7406 0.0
H440 H 0.53125 0.15402 0.74499 0.0
N441 N 0.54443 0.07762 0.6457 0.0
C442 C 0.54131 0.09749 0.67116 0.0
C443 C 0.56919 0.11362 0.60801 0.0
C444 C 0.55374 0.11599 0.65341 0.0
C445 C 0.5584 0.07565 0.59862 0.0
C446 C 0.57119 0.09346 0.57965 0.0
O447 O 0.52294 0.98898 0.68023 0.0
O448 O 0.51243 0.01742 0.73831 0.0
O449 O 0.55515 0.03372 0.74075 0.0
O450 O 0.53598 0.06075 0.78009 0.0
O451 O 0.48106 0.02026 0.62969 0.0
O452 O 0.49184 0.03919 0.71321 0.0
O453 O 0.5115 0.05854 0.60758 0.0
O454 O 0.52552 0.03173 0.55045 0.0
O455 O 0.48184 1.01399 0.54505 0.0
O456 O 0.50362 0.99031 0.5008 0.0
O457 O 0.55703 0.03228 0.64859 0.0
O458 O 0.54703 1.00458 0.58375 0.0
C459 C 0.52029 0.99749 0.73341 0.0
C460 C 0.47653 0.03225 0.67683 0.0
C461 C 0.56504 0.04656 0.83893 0.0
C462 C 0.5992 0.03832 0.88692 0.0
C463 C 0.56825 0.05087 0.94524 0.0
C464 C 0.55585 0.05236 0.8937 0.0
C465 C 0.58981 0.04377 0.94208 0.0
C466 C 0.58664 0.03957 0.83551 0.0
C467 C 0.55186 0.04684 0.78571 0.0
C468 C 0.55029 0.13623 0.68121 0.0
C469 C 0.53393 0.13823 0.72448 0.0
H470 H 0.57924 0.12736 0.59355 0.0
C471 C 0.51578 0.05082 0.55438 0.0
C472 C 0.562 1.01653 0.61074 0.0
C473 C 0.47315 1.00378 0.44434 0.0
C474 C 0.43854 1.01207 0.39816 0.0
C475 C 0.46983 1.00197 0.3375 0.0
C476 C 0.48243 0.99972 0.38852 0.0
C477 C 0.44801 1.00818 0.34212 0.0
C478 C 0.45126 1.00991 0.44915 0.0
C479 C 0.48654 1.00281 0.49736 0.0
H480 H 0.56109 0.05497 0.98771 0.0
H481 H 0.53897 0.05753 0.89677 0.0
H482 H 0.59908 0.04233 0.98281 0.0
H483 H 0.59371 0.03536 0.79285 0.0
H484 H 0.47704 0.99915 0.29429 0.0
H485 H 0.49947 0.99527 0.3843 0.0
H486 H 0.43867 1.01035 0.30175 0.0
H487 H 0.44413 1.01295 0.49248 0.0
C488 C 0.45668 0.51272 0.75996 0.0
C489 C 0.46932 0.50381 0.85934 0.0
C490 C 0.47346 0.51195 0.80147 0.0
C491 C 0.44841 0.49588 0.87418 0.0
C492 C 0.43551 0.50525 0.77536 0.0
C493 C 0.43153 0.49668 0.83242 0.0
N494 N 0.46075 0.52175 0.70562 0.0
C495 C 0.44446 0.52371 0.66464 0.0
C496 C 0.41875 0.50721 0.73352 0.0
C497 C 0.42326 0.51646 0.67795 0.0
Gd498 Gd 0.54031 0.51072 0.59374 0.0
Gd499 Gd 0.49595 0.53632 0.69141 0.0
N500 N 0.49331 0.52067 0.78685 0.0
C501 C 0.48598 0.50499 0.90168 0.0
C502 C 0.50857 0.52402 0.83 0.0
C503 C 0.50557 0.51553 0.88718 0.0
H504 H 0.52243 0.53446 0.82218 0.0
H505 H 0.51801 0.51796 0.92069 0.0
H506 H 0.51118 0.52121 0.46852 0.0
H507 H 0.44749 0.53161 0.62243 0.0
H508 H 0.51624 0.53848 0.37212 0.0
H509 H 0.48342 0.49898 0.94654 0.0
H510 H 0.44494 0.48971 0.91847 0.0
H511 H 0.58888 0.51385 0.66285 0.0
H512 H 0.40223 0.50193 0.74399 0.0
H513 H 0.41032 0.51835 0.64569 0.0
H514 H 0.59218 0.55721 0.36818 0.0
H515 H 0.41533 0.49102 0.84509 0.0
H516 H 0.63527 0.54039 0.53906 0.0
H517 H 0.62671 0.52467 0.63789 0.0
N518 N 0.57587 0.52438 0.58003 0.0
C519 C 0.58015 0.53339 0.52574 0.0
C520 C 0.5922 0.52153 0.62048 0.0
C521 C 0.61851 0.53622 0.5503 0.0
C522 C 0.61373 0.52738 0.60619 0.0
C523 C 0.60166 0.53943 0.50937 0.0
H524 H 0.62228 0.55251 0.43894 0.0
N525 N 0.54265 0.52911 0.50141 0.0
C526 C 0.56309 0.53596 0.48557 0.0
C527 C 0.55005 0.54632 0.38795 0.0
C528 C 0.5673 0.54469 0.42829 0.0
C529 C 0.52629 0.52928 0.46033 0.0
C530 C 0.52948 0.53839 0.40397 0.0
O531 O 0.49418 0.49846 0.68769 0.0
O532 O 0.52994 0.48914 0.67172 0.0
O533 O 0.53371 0.48444 0.53314 0.0
O534 O 0.56578 0.48649 0.57727 0.0
O535 O 0.53187 0.54106 0.71959 0.0
O536 O 0.55019 0.51032 0.69127 0.0
O537 O 0.54223 0.54863 0.59898 0.0
O538 O 0.5063 0.55707 0.6124 0.0
O539 O 0.50298 0.5641 0.74487 0.0
O540 O 0.47005 0.56047 0.7065 0.0
O541 O 0.50448 0.50463 0.56821 0.0
O542 O 0.4859 0.53541 0.59445 0.0
C543 C 0.50979 0.48358 0.68613 0.0
C544 C 0.5475 0.52664 0.72841 0.0
C545 C 0.55923 0.4559 0.51056 0.0
C546 C 0.54818 0.42268 0.4593 0.0
C547 C 0.58679 0.43169 0.47135 0.0
C548 C 0.58126 0.45073 0.50173 0.0
C549 C 0.57041 0.41783 0.44969 0.0
C550 C 0.54282 0.44174 0.49023 0.0
C551 C 0.55301 0.47597 0.5409 0.0
C552 C 0.58867 0.55076 0.41216 0.0
C553 C 0.60581 0.54805 0.45244 0.0
H554 H 0.55264 0.55285 0.34362 0.0
C555 C 0.52645 0.56334 0.60068 0.0
C556 C 0.48807 0.51821 0.56015 0.0
C557 C 0.47778 0.59266 0.76721 0.0
C558 C 0.48966 0.62343 0.82597 0.0
C559 C 0.45343 0.62327 0.78289 0.0
C560 C 0.45754 0.60276 0.75785 0.0
C561 C 0.46949 0.63365 0.81697 0.0
C562 C 0.4937 0.60306 0.80157 0.0
C563 C 0.48342 0.5721 0.73862 0.0
H564 H 0.60381 0.42778 0.46399 0.0
H565 H 0.59412 0.46148 0.51767 0.0
H566 H 0.57521 0.40352 0.42475 0.0
H567 H 0.52583 0.44549 0.49927 0.0
H568 H 0.43793 0.63122 0.77528 0.0
H569 H 0.44514 0.59504 0.73063 0.0
H570 H 0.46636 0.64969 0.83544 0.0
H571 H 0.50953 0.59558 0.80879 0.0
C572 C 0.03136 0.4611 0.76242 0.0
C573 C 0.04249 0.47507 0.85872 0.0
C574 C 0.03458 0.47875 0.80064 0.0
C575 C 0.04672 0.45361 0.87806 0.0
C576 C 0.03626 0.4396 0.78136 0.0
C577 C 0.0437 0.43595 0.83947 0.0
N578 N 0.02303 0.46484 0.70737 0.0
C579 C 0.01999 0.448 0.66847 0.0
C580 C 0.03309 0.42227 0.74174 0.0
C581 C 0.02514 0.42654 0.68486 0.0
Gd582 Gd 0.02967 0.54573 0.59179 0.0
Gd583 Gd 1.0084 0.49979 0.69431 0.0
N584 N 0.02967 0.49937 0.78152 0.0
C585 C 0.04561 0.49302 0.89618 0.0
C586 C 0.0335 0.51693 0.81749 0.0
C587 C 0.0414 0.51406 0.87511 0.0
H588 H 0.03035 0.53318 0.80327 0.0
H589 H 0.0439 0.52811 0.90357 0.0
H590 H 1.00362 0.51275 0.48835 0.0
H591 H 1.01237 0.4508 0.62618 0.0
H592 H 0.99044 0.51774 0.38721 0.0
H593 H 0.05138 0.49083 0.94127 0.0
H594 H 0.05241 0.4505 0.92284 0.0
H595 H 0.02566 0.59491 0.66106 0.0
H596 H 0.03653 0.40553 0.75481 0.0
H597 H 0.02231 0.4132 0.65425 0.0
H598 H 0.98779 0.59571 0.36176 0.0
H599 H 0.04711 0.4195 0.85508 0.0
H600 H 1.00428 0.64073 0.52962 0.0
H601 H 0.01692 0.63278 0.63166 0.0
N602 N 0.01613 0.58119 0.57819 0.0
C603 C 1.00831 0.58509 0.52265 0.0
C604 C 0.01885 0.59791 0.61767 0.0
C605 C 1.00728 0.62393 0.54298 0.0
C606 C 0.01434 0.61949 0.60072 0.0
C607 C 1.00411 0.60665 0.50317 0.0
H608 H 0.99428 0.62684 0.42851 0.0
N609 N 1.00789 0.54672 0.5057 0.0
C610 C 1.00443 0.56742 0.48503 0.0
C611 C 0.99195 0.55297 0.3911 0.0
C612 C 0.99653 0.57107 0.42699 0.0
C613 C 1.00233 0.52905 0.47176 0.0
C614 C 0.99444 0.53188 0.41407 0.0
O615 O 0.04577 0.49942 0.68014 0.0
O616 O 0.05296 0.53601 0.66723 0.0
O617 O 0.05273 0.54315 0.51924 0.0
O618 O 0.05285 0.57204 0.57467 0.0
O619 O 0.99974 0.53492 0.72141 0.0
O620 O 0.02826 0.5562 0.6882 0.0
O621 O 0.99195 0.54547 0.59546 0.0
O622 O 0.98115 0.5118 0.63407 0.0
O623 O 0.98849 0.49724 0.77344 0.0
O624 O 0.98399 0.47392 0.70203 0.0
O625 O 0.03831 0.51095 0.56395 0.0
O626 O 1.01015 0.48915 0.59709 0.0
C627 C 0.05978 0.51601 0.67964 0.0
C628 C 1.01157 0.55305 0.72431 0.0
C629 C 0.08636 0.56208 0.52995 0.0
C630 C 0.12014 0.54971 0.48489 0.0
C631 C 0.12092 0.57932 0.55623 0.0
C632 C 0.09825 0.57781 0.56227 0.0
C633 C 0.13185 0.56543 0.51738 0.0
C634 C 0.09749 0.54792 0.49159 0.0
C635 C 0.06235 0.56172 0.53148 0.0
C636 C 0.99339 0.5926 0.40661 0.0
C637 C 0.99708 0.61033 0.44466 0.0
H638 H 0.98605 0.5551 0.34612 0.0
C639 C 0.97664 0.53066 0.60812 0.0
C640 C 0.02638 0.49299 0.55953 0.0
C641 C 0.95307 0.48205 0.76098 0.0
C642 C 0.92102 0.4986 0.80553 0.0
C643 C 0.91752 0.46442 0.75171 0.0
C644 C 0.93992 0.46475 0.74019 0.0
C645 C 0.90811 0.48114 0.78476 0.0
C646 C 0.94342 0.49921 0.79312 0.0
C647 C 0.9769 0.48092 0.75306 0.0
H648 H 0.12998 0.59153 0.58092 0.0
H649 H 0.09004 0.58921 0.59139 0.0
H650 H 0.14941 0.56702 0.51226 0.0
H651 H 0.08852 0.53608 0.46512 0.0
H652 H 0.9075 0.45098 0.73591 0.0
H653 H 0.94705 0.45126 0.71592 0.0
H654 H 0.89074 0.48048 0.79432 0.0
H655 H 0.95328 0.5126 0.81023 0.0
C656 C 0.13268 0.07038 0.29152 0.0
C657 C 0.13192 0.05645 0.2419 0.0
C658 C 0.11799 0.06777 0.33992 0.0
C659 C 0.10248 0.05031 0.34041 0.0
C660 C 0.10121 0.0366 0.28973 0.0
C661 C 0.11576 0.03988 0.24139 0.0
C662 C 0.11947 0.08357 0.39113 0.0
C663 C 0.08436 0.01844 0.2864 0.0
C664 C 0.08282 0.02715 0.49112 0.0
C665 C 0.06272 0.0377 0.49994 0.0
C666 C 0.09581 0.03125 0.44001 0.0
C667 C 0.08841 0.04573 0.39483 0.0
C668 C 0.06774 0.05579 0.40238 0.0
C669 C 0.05545 0.05197 0.45476 0.0
C670 C 0.11758 0.01997 0.43422 0.0
C671 C 0.0586 0.07107 0.35593 0.0
H672 H 0.14468 0.08354 0.29235 0.0
H673 H 0.11478 0.02904 0.20351 0.0
H674 H 0.10304 0.08759 0.40878 0.0
H675 H 0.12891 0.07586 0.42761 0.0
H676 H 0.12783 0.09909 0.37798 0.0
H677 H 0.08597 1.00861 0.24524 0.0
H678 H 0.08583 1.00733 0.32533 0.0
H679 H 0.06772 0.02557 0.28774 0.0
H680 H 0.08847 1.01553 0.52386 0.0
H681 H 0.03987 0.06011 0.4598 0.0
H682 H 0.13079 0.0324 0.42876 0.0
H683 H 0.11764 1.00956 0.39393 0.0
H684 H 0.12135 1.00954 0.4734 0.0
H685 H 0.06617 0.08751 0.36141 0.0
H686 H 0.0406 0.07281 0.36042 0.0
H687 H 0.06236 0.06534 0.31039 0.0
C688 C 0.50698 0.13622 0.27708 0.0
C689 C 0.48704 0.13573 0.24616 0.0
C690 C 0.51156 0.12126 0.32387 0.0
C691 C 0.49565 0.10552 0.34252 0.0
C692 C 0.47543 0.10487 0.3112 0.0
C693 C 0.47152 0.11972 0.26345 0.0
C694 C 0.53371 0.12216 0.35306 0.0
C695 C 0.45743 0.08907 0.32901 0.0
C696 C 0.51437 0.05672 0.44148 0.0
C697 C 0.51046 0.0644 0.4995 0.0
C698 C 0.50927 0.06953 0.39034 0.0
C699 C 0.49995 0.09074 0.3964 0.0
C700 C 0.49549 0.09825 0.45479 0.0
C701 C 0.50087 0.08522 0.50499 0.0
C702 C 0.51383 0.0603 0.32959 0.0
C703 C 0.485 0.12025 0.46441 0.0
H704 H 0.51929 0.14816 0.26382 0.0
H705 H 0.456 0.11909 0.24035 0.0
H706 H 0.53187 0.1251 0.40139 0.0
H707 H 0.54197 0.10613 0.3478 0.0
H708 H 0.54438 0.13521 0.33386 0.0
H709 H 0.44643 0.08543 0.29107 0.0
H710 H 0.46396 0.0734 0.34649 0.0
H711 H 0.44746 0.09661 0.36461 0.0
H712 H 0.52144 0.04062 0.43587 0.0
H713 H 0.49748 0.09148 0.54899 0.0
H714 H 0.52528 0.0713 0.30508 0.0
H715 H 0.49845 0.05948 0.30364 0.0
H716 H 0.52096 0.04361 0.33179 0.0
H717 H 0.49627 0.13348 0.44918 0.0
H718 H 0.48086 0.12309 0.5118 0.0
H719 H 0.46984 0.12149 0.43767 0.0
C720 C 0.42773 0.50311 0.23832 0.0
C721 C 0.40582 0.49588 0.24472 0.0
C722 C 0.44155 0.50679 0.28805 0.0
C723 C 0.43356 0.50344 0.34678 0.0
C724 C 0.41167 0.49591 0.35364 0.0
C725 C 0.3983 0.49214 0.30329 0.0
C726 C 0.46486 0.51415 0.27745 0.0
C727 C 0.40216 0.49214 0.41479 0.0
C728 C 0.47246 0.49398 0.47932 0.0
C729 C 0.47289 0.51443 0.50797 0.0
C730 C 0.46025 0.4904 0.42686 0.0
C731 C 0.44783 0.50758 0.40124 0.0
C732 C 0.44835 0.52838 0.42965 0.0
C733 C 0.4607 0.53151 0.4824 0.0
C734 C 0.461 0.46814 0.39841 0.0
C735 C 0.43647 0.54766 0.40317 0.0
H736 H 0.43415 0.50634 0.19428 0.0
H737 H 0.38183 0.48604 0.31032 0.0
H738 H 0.46895 0.52847 0.3056 0.0
H739 H 0.47613 0.50074 0.28998 0.0
H740 H 0.46795 0.51858 0.23023 0.0
H741 H 0.38559 0.48461 0.41328 0.0
H742 H 0.41297 0.48135 0.44132 0.0
H743 H 0.40111 0.50805 0.43832 0.0
H744 H 0.482 0.48066 0.49764 0.0
H745 H 0.4613 0.54759 0.50262 0.0
H746 H 0.46809 0.46958 0.35315 0.0
H747 H 0.44423 0.46129 0.39389 0.0
H748 H 0.47104 0.4565 0.42458 0.0
H749 H 0.44534 0.55335 0.3628 0.0
H750 H 0.43546 0.5616 0.43459 0.0
H751 H 0.41968 0.54291 0.38952 0.0
C752 C 0.03262 0.42548 0.24592 0.0
C753 C 0.04775 0.40815 0.24803 0.0
C754 C 0.02937 0.43983 0.29464 0.0
C755 C 0.04164 0.43725 0.34773 0.0
C756 C 0.05751 0.4203 0.34938 0.0
C757 C 0.06013 0.40593 0.30039 0.0
C758 C 1.01277 0.45789 0.28899 0.0
C759 C 0.07156 0.41687 0.40356 0.0
C760 C 0.04623 0.484 0.46304 0.0
C761 C 0.03028 0.47831 0.50601 0.0
C762 C 0.04978 0.47125 0.41141 0.0
C763 C 0.03748 0.45172 0.40187 0.0
C764 C 0.02134 0.44588 0.44492 0.0
C765 C 0.01771 0.45931 0.4954 0.0
C766 C 0.06668 0.47887 0.36674 0.0
C767 C 1.00757 0.42548 0.43734 0.0
H768 H 0.02285 0.42762 0.20629 0.0
H769 H 0.07216 0.39301 0.303 0.0
H770 H 1.00068 0.45679 0.32573 0.0
H771 H 0.02109 0.47406 0.29258 0.0
H772 H 1.00388 0.4573 0.24607 0.0
H773 H 0.08668 0.40775 0.39265 0.0
H774 H 0.07629 0.43267 0.42427 0.0
H775 H 0.06213 0.40723 0.43694 0.0
H776 H 0.05593 0.49875 0.46921 0.0
H777 H 1.00483 0.45488 0.52634 0.0
H778 H 0.05867 0.48216 0.32349 0.0
H779 H 0.07892 0.46583 0.35934 0.0
H780 H 0.07534 0.49401 0.38108 0.0
H781 H 0.99589 0.428 0.40037 0.0
H782 H 0.99811 0.42134 0.47813 0.0
H783 H 0.01798 0.4113 0.42565 0.0
C784 C 0.90165 1.01434 0.99705 0.0
C785 C 0.90531 0.99747 0.03857 0.0
C786 C 0.91621 0.0185 0.9491 0.0
C787 C 0.93478 1.00501 0.94004 0.0
C788 C 0.93861 0.98789 0.98185 0.0
C789 C 0.92409 0.98452 0.03061 0.0
C790 C 0.91159 0.03749 0.90798 0.0
C791 C 0.95831 0.97332 0.97576 0.0
C792 C 0.95887 1.00225 0.78106 0.0
C793 C 0.97677 1.01686 0.78311 0.0
C794 C 0.94547 0.99808 0.83153 0.0
C795 C 0.94976 1.00872 0.88639 0.0
C796 C 0.96779 0.02358 0.88861 0.0
C797 C 0.98078 0.02759 0.83726 0.0
C798 C 0.92671 0.98202 0.82625 0.0
C799 C 0.97382 0.03504 0.94553 0.0
H800 H 0.88754 0.02476 1.00291 0.0
H801 H 0.92733 0.97151 0.06228 0.0
H802 H 0.92679 0.04684 0.8977 0.0
H803 H 0.90501 0.03112 0.86553 0.0
H804 H 0.89949 0.04896 0.92729 0.0
H805 H 0.95783 0.95931 1.0075 0.0
H806 H 0.95951 0.9668 0.92995 0.0
H807 H 0.97335 0.98309 0.98408 0.0
H808 H 0.95547 0.99376 0.7399 0.0
H809 H 0.9941 0.03935 0.8396 0.0
H810 H 0.91119 0.99004 0.83912 0.0
H811 H 0.92922 0.96807 0.85727 0.0
H812 H 0.92501 0.97549 0.78053 0.0
H813 H 0.9843 0.0497 0.93715 0.0
H814 H 0.9831 0.02353 0.97406 0.0
H815 H 0.95909 0.04017 0.97059 0.0
C816 C 0.52527 0.92227 0.03353 0.0
C817 C 0.54586 0.91306 0.04507 0.0
C818 C 0.52176 0.93696 0.98546 0.0
C819 C 0.5393 0.94322 0.94717 0.0
C820 C 0.56043 0.93477 0.96029 0.0
C821 C 0.56336 0.91959 1.00796 0.0
C822 C 0.49885 0.94505 0.97487 0.0
C823 C 0.58013 0.94229 0.92494 0.0
C824 C 0.52636 0.96075 0.78534 0.0
C825 C 0.52499 0.98375 0.78846 0.0
C826 C 0.53105 0.94764 0.83601 0.0
C827 C 0.53521 0.95747 0.89205 0.0
C828 C 0.53442 0.98078 0.89519 0.0
C829 C 0.52893 0.99347 0.84417 0.0
C830 C 0.5313 0.92304 0.82963 0.0
C831 C 0.53919 0.99241 0.95272 0.0
H832 H 0.51161 0.91757 0.06174 0.0
H833 H 0.57949 0.91317 0.01702 0.0
H834 H 0.49873 0.96222 0.9586 0.0
H835 H 0.49103 0.93467 0.94049 0.0
H836 H 0.48875 0.94401 1.0159 0.0
H837 H 0.59533 0.9339 0.93903 0.0
H838 H 0.57755 0.93935 0.8769 0.0
H839 H 0.58245 0.96023 0.93065 0.0
H840 H 0.52339 0.95284 0.74311 0.0
H841 H 0.52807 1.01114 0.84786 0.0
H842 H 0.51935 0.9155 0.86098 0.0
H843 H 0.54769 0.91668 0.84129 0.0
H844 H 0.52725 0.91772 0.78384 0.0
H845 H 0.52533 0.98993 0.98396 0.0
H846 H 0.5416 1.0103 0.94603 0.0
H847 H 0.55402 0.98559 0.97401 0.0
C848 C 0.63806 0.53291 0.99278 0.0
C849 C 0.63205 0.54618 0.04105 0.0
C850 C 0.62396 0.52924 0.9438 0.0
C851 C 0.60315 0.53946 0.94094 0.0
C852 C 0.59688 0.55288 0.98962 0.0
C853 C 0.61118 0.55589 0.03878 0.0
C854 C 0.63167 0.51458 0.89435 0.0
C855 C 0.57478 0.56373 0.99078 0.0
C856 C 0.57604 0.54801 0.78697 0.0
C857 C 0.56261 0.52934 0.7811 0.0
C858 C 0.58928 0.55137 0.83796 0.0
C859 C 0.58844 0.53635 0.88658 0.0
C860 C 0.57418 0.5179 0.88163 0.0
C861 C 0.56219 0.51422 0.82855 0.0
C862 C 0.60417 0.57116 0.83994 0.0
C863 C 0.57118 0.50222 0.93306 0.0
H864 H 0.65383 0.52493 0.99369 0.0
H865 H 0.60605 0.56616 0.07532 0.0
H866 H 0.61848 0.50322 0.88002 0.0
H867 H 0.63631 0.52487 0.85545 0.0
H868 H 0.64604 0.50469 0.90768 0.0
H869 H 0.57379 0.57656 0.02552 0.0
H870 H 0.57092 0.57127 0.94718 0.0
H871 H 0.56202 0.55114 1.00013 0.0
H872 H 0.57639 0.55993 0.7511 0.0
H873 H 0.55158 0.49996 0.82531 0.0
H874 H 0.62117 0.566 0.84959 0.0
H875 H 0.59898 0.58219 0.8763 0.0
H876 H 0.60411 0.58057 0.79756 0.0
H877 H 0.58672 0.49358 0.94205 0.0
H878 H 0.55815 0.48984 0.92455 0.0
H879 H 0.56684 0.51144 0.97375 0.0
C880 C 0.98733 0.64455 0.97888 0.0
C881 C 0.99474 0.63853 0.03602 0.0
C882 C 0.98955 0.63055 0.92899 0.0
C883 C 0.99893 0.60942 0.9352 0.0
C884 C 1.00572 0.60282 0.99287 0.0
C885 C 1.00393 0.6174 0.04163 0.0
C886 C 0.98176 0.63845 0.86912 0.0
C887 C 0.01543 0.58047 1.00372 0.0
C888 C 0.98853 0.56721 0.81014 0.0
C889 C 1.00796 0.56828 0.77647 0.0
C890 C 0.98544 0.58016 0.86164 0.0
C891 C 1.00218 0.59474 0.88111 0.0
C892 C 0.02199 0.59554 0.84793 0.0
C893 C 0.02454 0.58262 0.79614 0.0
C894 C 0.96439 0.57773 0.89622 0.0
C895 C 0.04074 0.60991 0.86772 0.0
H896 H 0.9796 0.66029 0.97266 0.0
H897 H 1.01023 0.61212 0.08417 0.0
H898 H 0.99481 0.63643 0.83528 0.0
H899 H 0.96754 0.6284 0.85488 0.0
H900 H 0.97682 0.65594 0.86982 0.0
H901 H 1.01223 0.57479 0.04992 0.0
H902 H 1.00892 0.56798 0.97266 0.0
H903 H 0.03341 0.58149 0.99753 0.0
H904 H 0.97565 0.55605 0.79643 0.0
H905 H 0.03986 0.58333 0.77187 0.0
H906 H 0.95613 0.59381 0.89953 0.0
H907 H 0.96803 0.57218 0.94214 0.0
H908 H 0.95294 0.56578 0.87561 0.0
H909 H 0.03554 0.62731 0.86806 0.0
H910 H 0.05532 0.60836 0.83855 0.0
H911 H 0.04549 0.6055 0.91375 0.0
C912 C 0.07349 0.20699 0.32407 0.0
C913 C 0.06012 0.21486 0.27859 0.0
C914 C 0.06559 0.19098 0.36389 0.0
C915 C 0.04384 0.18319 0.35801 0.0
C916 C 0.03009 0.19193 0.31339 0.0
C917 C 0.0385 0.20759 0.27395 0.0
C918 C 0.08066 0.18197 0.41081 0.0
C919 C 1.00643 0.18494 0.30754 0.0
C920 C 0.02116 0.12854 0.40851 0.0
C921 C 1.00865 0.13505 0.45747 0.0
C922 C 0.03453 0.14382 0.37846 0.0
C923 C 0.03504 0.16588 0.39789 0.0
C924 C 0.02393 0.1719 0.45041 0.0
C925 C 1.01115 0.15623 0.48014 0.0
C926 C 0.0464 0.13697 0.32271 0.0
C927 C 0.02396 0.19525 0.47249 0.0
H928 H 0.09013 0.21309 0.32774 0.0
H929 H 0.02812 0.21435 0.23951 0.0
H930 H 0.07234 0.18104 0.45457 0.0
H931 H 0.08537 0.16503 0.39865 0.0
H932 H 0.09577 0.19203 0.41533 0.0
H933 H 0.99821 0.19303 0.26942 0.0
H934 H 1.00522 0.16693 0.30163 0.0
H935 H 0.99741 0.18907 0.34879 0.0
H936 H 0.01921 0.11209 0.39111 0.0
H937 H 1.00168 0.16099 0.51872 0.0
H938 H 0.0636 0.14291 0.32366 0.0
H939 H 0.0385 0.14453 0.28338 0.0
H940 H 0.04626 0.11891 0.31684 0.0
H941 H 0.0407 0.2 0.48645 0.0
H942 H 1.01272 0.1975 0.51081 0.0
H943 H 0.01902 0.20666 0.43648 0.0
C944 C 0.34863 0.07738 0.2769 0.0
C945 C 0.3267 0.07169 0.28589 0.0
C946 C 0.36485 0.06889 0.31383 0.0
C947 C 0.35878 0.05439 0.36056 0.0
C948 C 0.33652 0.05052 0.37379 0.0
C949 C 0.32065 0.05913 0.33586 0.0
C950 C 0.38853 0.07355 0.29861 0.0
C951 C 0.32963 0.03604 0.42529 0.0
C952 C 0.4001 1.00986 0.36521 0.0
C953 C 0.4157 0.01935 0.40241 0.0
C954 C 0.38019 0.02015 0.35533 0.0
C955 C 0.37559 0.03989 0.38554 0.0
C956 C 0.38977 0.04756 0.43036 0.0
C957 C 0.41002 0.03735 0.4378 0.0
C958 C 0.36547 1.01133 0.30707 0.0
C959 C 0.38466 0.06783 0.46573 0.0
H960 H 0.35319 0.08748 0.23902 0.0
H961 H 0.30363 0.05477 0.34306 0.0
H962 H 0.39803 0.07761 0.33896 0.0
H963 H 0.39589 0.0587 0.2787 0.0
H964 H 0.39033 0.08734 0.26649 0.0
H965 H 0.31156 0.03479 0.42969 0.0
H966 H 0.33627 0.01929 0.41991 0.0
H967 H 0.33645 0.04268 0.46717 0.0
H968 H 0.40422 0.99534 0.34005 0.0
H969 H 0.42191 0.04448 0.46781 0.0
H970 H 0.36578 0.02276 0.26854 0.0
H971 H 0.34834 1.01007 0.32292 0.0
H972 H 0.37066 0.9949 0.29149 0.0
H973 H 0.39081 0.08255 0.44163 0.0
H974 H 0.39284 0.06733 0.50951 0.0
H975 H 0.3668 0.0697 0.47263 0.0
C976 C 0.4825 0.35268 0.23907 0.0
C977 C 0.46722 0.33745 0.26096 0.0
C978 C 0.49246 0.36777 0.27698 0.0
C979 C 0.48696 0.36752 0.33806 0.0
C980 C 0.47021 0.35351 0.35952 0.0
C981 C 0.46042 0.33861 0.32046 0.0
C982 C 0.50991 0.383 0.25244 0.0
C983 C 0.46304 0.35389 0.42374 0.0
C984 C 0.53383 0.38547 0.43426 0.0
C985 C 0.53065 0.40817 0.43606 0.0
C986 C 0.51897 0.37178 0.40517 0.0
C987 C 0.50003 0.38093 0.37933 0.0
C988 C 0.49556 0.40346 0.38605 0.0
C989 C 0.51111 0.41693 0.41357 0.0
C990 C 0.52432 0.34777 0.39868 0.0
C991 C 0.47494 0.41377 0.36239 0.0
H992 H 0.48791 0.35175 0.19327 0.0
H993 H 0.44824 0.3271 0.33708 0.0
H994 H 0.5058 0.40026 0.26282 0.0
H995 H 0.52584 0.37936 0.27374 0.0
H996 H 0.51184 0.38149 0.20357 0.0
H997 H 0.45193 0.33998 0.43501 0.0
H998 H 0.47733 0.35336 0.45393 0.0
H999 H 0.45437 0.36948 0.43243 0.0
H1000 H 0.54835 0.37844 0.45387 0.0
H1001 H 0.50826 0.43443 0.41494 0.0
H1002 H 0.52699 0.34397 0.35106 0.0
H1003 H 0.51046 0.33745 0.41452 0.0
H1004 H 0.53922 0.34311 0.42376 0.0
H1005 H 0.47914 0.42833 0.33472 0.0
H1006 H 0.46495 0.41942 0.40046 0.0
H1007 H 0.4646 0.40253 0.33581 0.0
C1008 C 0.21274 0.4915 0.31659 0.0
C1009 C 0.20804 0.48217 0.26119 0.0
C1010 C 0.19611 0.4999 0.3523 0.0
C1011 C 0.17431 0.4992 0.33171 0.0
C1012 C 0.16929 0.48911 0.27698 0.0
C1013 C 0.18626 0.48057 0.24242 0.0
C1014 C 0.20201 0.5104 0.41086 0.0
C1015 C 0.14626 0.48861 0.25318 0.0
C1016 C 0.13244 0.51335 0.44874 0.0
C1017 C 0.13149 0.53611 0.44132 0.0
C1018 C 0.14548 0.5007 0.41101 0.0
C1019 C 0.15736 0.51122 0.36479 0.0
C1020 C 0.15504 0.53402 0.35472 0.0
C1021 C 0.14224 0.54624 0.39364 0.0
C1022 C 0.14766 0.47644 0.42296 0.0
C1023 C 0.16735 0.54592 0.30586 0.0
H1024 H 0.22956 0.49319 0.33099 0.0
H1025 H 0.18256 0.47319 0.19989 0.0
H1026 H 0.19721 0.52791 0.41067 0.0
H1027 H 0.1929 0.5022 0.44751 0.0
H1028 H 0.21978 0.50947 0.42048 0.0
H1029 H 0.14464 0.47769 0.21408 0.0
H1030 H 0.13457 0.48309 0.28801 0.0
H1031 H 0.14151 0.50544 0.23963 0.0
H1032 H 0.12385 0.50565 0.48566 0.0
H1033 H 0.14108 0.56386 0.38783 0.0
H1034 H 0.16407 0.47315 0.44178 0.0
H1035 H 0.14628 0.46701 0.38112 0.0
H1036 H 0.13511 0.47031 0.45486 0.0
H1037 H 0.18427 0.54938 0.32103 0.0
H1038 H 0.15957 0.5618 0.29452 0.0
H1039 H 0.16838 0.53588 0.26503 0.0
C1040 C 0.99631 0.8251 0.95478 0.0
C1041 C 0.97817 0.82589 0.99256 0.0
C1042 C 1.00179 0.84311 0.91926 0.0
C1043 C 0.98865 0.86212 0.92185 0.0
C1044 C 0.96911 0.86213 0.95528 0.0
C1045 C 0.96404 0.84384 0.99048 0.0
C1046 C 0.023 0.84269 0.88457 0.0
C1047 C 0.9547 0.88209 0.95788 0.0
C1048 C 0.02702 0.90938 0.90582 0.0
C1049 C 0.02596 0.91272 0.84468 0.0
C1050 C 1.01275 0.89458 0.9334 0.0
C1051 C 0.99765 0.88274 0.89805 0.0
C1052 C 0.99502 0.88794 0.83728 0.0
C1053 C 1.00928 0.90317 0.81113 0.0
C1054 C 0.01563 0.88986 0.99884 0.0
C1055 C 0.97913 0.87566 0.79833 0.0
H1056 H 1.00733 0.81127 0.9571 0.0
H1057 H 0.94991 0.84418 0.01967 0.0
H1058 H 0.0209 0.84996 0.83972 0.0
H1059 H 0.03553 0.85259 0.90816 0.0
H1060 H 0.02933 0.82576 0.87963 0.0
H1061 H 0.93976 0.87918 0.98508 0.0
H1062 H 0.9639 0.8961 0.97708 0.0
H1063 H 0.94975 0.88698 0.91237 0.0
H1064 H 0.03975 0.91743 0.93131 0.0
H1065 H 1.00842 0.90639 0.7638 0.0
H1066 H 0.02453 0.8742 1.00445 0.0
H1067 H 0.99957 0.88807 0.02138 0.0
H1068 H 0.02513 0.90301 0.0213 0.0
H1069 H 0.98709 0.86057 0.78176 0.0
H1070 H 0.97433 0.88568 0.75921 0.0
H1071 H 0.9642 0.87067 0.82315 0.0
C1072 C 0.69209 0.97787 1.01161 0.0
C1073 C 0.71355 0.9851 1.00195 0.0
C1074 C 0.67527 0.98484 0.97446 0.0
C1075 C 0.68039 0.99872 0.92563 0.0
C1076 C 0.70237 1.00343 0.91086 0.0
C1077 C 0.71879 0.99682 0.94994 0.0
C1078 C 0.65192 0.97913 0.99111 0.0
C1079 C 0.70832 0.0176 0.85798 0.0
C1080 C 0.62778 1.01246 0.85085 0.0
C1081 C 0.62199 0.03105 0.88372 0.0
C1082 C 0.64842 1.00307 0.85796 0.0
C1083 C 0.66285 1.01213 0.90028 0.0
C1084 C 0.65788 0.03226 0.92828 0.0
C1085 C 0.6376 0.04171 0.91838 0.0
C1086 C 0.65394 0.98246 0.82445 0.0
C1087 C 0.67236 0.04231 0.97531 0.0
H1088 H 0.68825 0.96809 0.05067 0.0
H1089 H 0.73543 1.00236 0.94204 0.0
H1090 H 0.64208 0.99423 0.99613 0.0
H1091 H 0.64434 0.96922 0.95545 0.0
H1092 H 0.65083 0.96963 0.03327 0.0
H1093 H 0.72552 1.01499 0.84389 0.0
H1094 H 0.69731 1.01424 0.81993 0.0
H1095 H 0.70654 0.03514 0.86984 0.0
H1096 H 0.61582 1.00443 0.82279 0.0
H1097 H 0.6333 0.0566 0.94165 0.0
H1098 H 0.64967 0.96791 0.85198 0.0
H1099 H 0.67168 0.98176 0.81418 0.0
H1100 H 0.64457 0.98135 0.78235 0.0
H1101 H 0.66987 0.03323 0.01768 0.0
H1102 H 0.66834 0.05981 0.9831 0.0
H1103 H 0.68989 0.0413 0.96343 0.0
C1104 C 0.57173 0.69703 1.01487 0.0
C1105 C 0.55868 0.71577 1.01538 0.0
C1106 C 0.56592 0.67902 0.97977 0.0
C1107 C 0.54653 0.67999 0.94591 0.0
C1108 C 0.53399 0.6994 0.94406 0.0
C1109 C 0.54033 0.71711 0.97877 0.0
C1110 C 0.57986 0.65872 0.98086 0.0
C1111 C 0.51278 0.70089 0.90977 0.0
C1112 C 0.52473 0.64363 0.82757 0.0
C1113 C 0.50712 0.63431 0.85855 0.0
C1114 C 0.53986 0.65687 0.85706 0.0
C1115 C 0.53724 0.6602 0.91872 0.0
C1116 C 0.52112 0.64833 0.9511 0.0
C1117 C 0.50595 0.63561 0.92018 0.0
C1118 C 0.55672 0.66941 0.82116 0.0
C1119 C 0.51843 0.65096 0.01738 0.0
H1120 H 0.58609 0.69633 0.04293 0.0
H1121 H 0.53017 0.73161 0.97995 0.0
H1122 H 0.5702 0.64453 0.99777 0.0
H1123 H 0.58518 0.65464 0.93513 0.0
H1124 H 0.59459 0.66079 1.00909 0.0
H1125 H 0.50682 0.71801 0.90634 0.0
H1126 H 0.51469 0.69432 0.86425 0.0
H1127 H 0.50002 0.69092 0.93271 0.0
H1128 H 0.52582 0.64171 0.7799 0.0
H1129 H 0.49264 0.6275 0.94368 0.0
H1130 H 0.57249 0.67044 0.84521 0.0
H1131 H 0.55092 0.68642 0.81387 0.0
H1132 H 0.55951 0.66182 0.77705 0.0
H1133 H 0.53423 0.6481 0.04004 0.0
H1134 H 0.506 0.63946 0.03611 0.0
H1135 H 0.51333 0.66796 0.02755 0.0
C1136 C 0.82439 0.55082 0.94903 0.0
C1137 C 0.82728 0.56233 1.00221 0.0
C1138 C 0.84204 0.54706 0.91102 0.0
C1139 C 0.86309 0.55466 0.92736 0.0
C1140 C 0.86559 0.56849 0.97708 0.0
C1141 C 0.84757 0.57214 1.01425 0.0
C1142 C 0.83855 0.53261 0.85753 0.0
C1143 C 0.88767 0.57761 0.99408 0.0
C1144 C 0.90206 0.50895 0.89753 0.0
C1145 C 0.91088 0.51534 0.84289 0.0
C1146 C 0.88796 0.52274 0.92829 0.0
C1147 C 0.88231 0.54323 0.90285 0.0
C1148 C 0.89275 0.55058 0.85011 0.0
C1149 C 0.90728 0.53652 0.82092 0.0
C1150 C 0.87754 0.5144 0.98512 0.0
C1151 C 0.88708 0.57217 0.82126 0.0
H1152 H 0.80872 0.54327 0.93918 0.0
H1153 H 0.8496 0.58173 0.05429 0.0
H1154 H 0.84908 0.53786 0.8198 0.0
H1155 H 0.8429 0.51548 0.86925 0.0
H1156 H 0.82123 0.53271 0.84285 0.0
H1157 H 0.88656 0.58948 0.03119 0.0
H1158 H 0.89854 0.56401 1.00779 0.0
H1159 H 0.89543 0.58587 0.95531 0.0
H1160 H 0.90524 0.4926 0.91449 0.0
H1161 H 0.91458 0.54146 0.77899 0.0
H1162 H 0.86013 0.51019 0.9768 0.0
H1163 H 0.87799 0.52721 0.01989 0.0
H1164 H 0.88578 0.49954 1.00254 0.0
H1165 H 0.87268 0.56974 0.79207 0.0
H1166 H 0.90078 0.57841 0.79325 0.0
H1167 H 0.88282 0.58476 0.85462 0.0
C1168 C 0.04061 0.19779 0.74048 0.0
C1169 C 0.05298 0.20096 0.79277 0.0
C1170 C 0.03792 0.17681 0.71412 0.0
C1171 C 0.04697 0.15785 0.74141 0.0
C1172 C 0.06022 0.16102 0.79252 0.0
C1173 C 0.06324 0.18226 0.81674 0.0
C1174 C 0.02511 0.17521 0.65706 0.0
C1175 C 0.07148 0.1419 0.82192 0.0
C1176 C 0.01742 0.10211 0.71873 0.0
C1177 C 0.0327 0.08983 0.68638 0.0
C1178 C 0.02183 0.12405 0.73623 0.0
C1179 C 0.04171 0.1347 0.71935 0.0
C1180 C 0.05675 0.12264 0.68408 0.0
C1181 C 0.05227 0.10044 0.66924 0.0
C1182 C 1.00519 0.13577 0.77382 0.0
C1183 C 0.07716 0.13328 0.6591 0.0
H1184 H 0.03252 0.21165 0.7202 0.0
H1185 H 0.07375 0.1841 0.855 0.0
H1186 H 0.03 0.16087 0.6301 0.0
H1187 H 1.00744 0.17368 0.66759 0.0
H1188 H 0.02735 0.19029 0.62969 0.0
H1189 H 0.07776 0.14615 0.86667 0.0
H1190 H 0.06022 0.12761 0.82623 0.0
H1191 H 0.08554 0.13681 0.7941 0.0
H1192 H 1.0022 0.0943 0.73211 0.0
H1193 H 0.06402 0.09145 0.64287 0.0
H1194 H 0.99778 0.14922 0.74759 0.0
H1195 H 1.01318 0.14324 0.81312 0.0
H1196 H 0.99187 0.12464 0.78935 0.0
H1197 H 0.073 0.14137 0.61635 0.0
H1198 H 0.09001 0.12095 0.65004 0.0
H1199 H 0.08398 0.14602 0.68882 0.0
C1200 C 0.35999 0.07045 0.81217 0.0
C1201 C 0.34234 0.05627 0.79944 0.0
C1202 C 0.38111 0.06734 0.78744 0.0
C1203 C 0.38516 0.04961 0.74826 0.0
C1204 C 0.36714 0.03599 0.73246 0.0
C1205 C 0.34624 0.03933 0.75836 0.0
C1206 C 0.39921 0.08315 0.80356 0.0
C1207 C 0.36981 0.01717 0.68989 0.0
C1208 C 0.43919 0.04883 0.6574 0.0
C1209 C 0.45293 0.03603 0.69336 0.0
C1210 C 0.4173 0.05349 0.67444 0.0
C1211 C 0.40841 0.04452 0.72782 0.0
C1212 C 0.42209 0.03094 0.76299 0.0
C1213 C 0.44413 0.02729 0.74619 0.0
C1214 C 0.40368 0.06804 0.63521 0.0
C1215 C 0.41337 0.02026 0.81886 0.0
H1216 H 0.35736 0.08412 0.84178 0.0
H1217 H 0.33309 0.02807 0.74746 0.0
H1218 H 0.41357 0.07411 0.82064 0.0
H1219 H 0.40457 0.09228 0.76326 0.0
H1220 H 0.394 0.09518 0.83755 0.0
H1221 H 0.35444 1.01408 0.66499 0.0
H1222 H 0.38321 0.02011 0.65747 0.0
H1223 H 0.37363 1.0021 0.71554 0.0
H1224 H 0.44575 0.05571 0.61652 0.0
H1225 H 0.45448 0.01729 0.77422 0.0
H1226 H 0.3967 0.08168 0.66136 0.0
H1227 H 0.38975 0.05843 0.61712 0.0
H1228 H 0.41334 0.07509 0.59779 0.0
H1229 H 0.40852 0.03306 0.85107 0.0
H1230 H 0.42555 1.00935 0.84015 0.0
H1231 H 0.39852 1.01045 0.80846 0.0
C1232 C 0.46835 0.3621 0.79485 0.0
C1233 C 0.48544 0.34678 0.79832 0.0
C1234 C 0.47144 0.38333 0.7694 0.0
C1235 C 0.49235 0.39015 0.74793 0.0
C1236 C 0.50934 0.37428 0.7483 0.0
C1237 C 0.50567 0.35305 0.77301 0.0
C1238 C 0.45218 0.39853 0.76521 0.0
C1239 C 0.53192 0.3796 0.72506 0.0
C1240 C 0.49968 0.44443 0.65743 0.0
C1241 C 0.50475 0.45987 0.70177 0.0
C1242 C 0.49561 0.42191 0.67114 0.0
C1243 C 0.49678 0.41422 0.73093 0.0
C1244 C 0.50226 0.4298 0.77548 0.0
C1245 C 0.50598 0.45222 0.76062 0.0
C1246 C 0.49022 0.40633 0.62136 0.0
C1247 C 0.50445 0.42265 0.83937 0.0
H1248 H 0.45239 0.35746 0.81196 0.0
H1249 H 0.51911 0.34158 0.77437 0.0
H1250 H 0.45569 0.41399 0.78925 0.0
H1251 H 0.44931 0.40291 0.71797 0.0
H1252 H 0.43699 0.39105 0.78368 0.0
H1253 H 0.53887 0.3652 0.70179 0.0
H1254 H 0.53221 0.39381 0.69418 0.0
H1255 H 0.54276 0.38337 0.76316 0.0
H1256 H 0.49896 0.44998 0.61165 0.0
H1257 H 0.51012 0.46381 0.79522 0.0
H1258 H 0.47401 0.39859 0.62948 0.0
H1259 H 0.50243 0.39297 0.6199 0.0
H1260 H 0.49 0.41466 0.57734 0.0
H1261 H 0.48846 0.41644 0.85602 0.0
H1262 H 0.51003 0.4362 0.86851 0.0
H1263 H 0.51627 0.40896 0.84269 0.0
C1264 C 0.17765 0.47837 0.81427 0.0
C1265 C 0.19537 0.49255 0.80102 0.0
C1266 C 0.15649 0.48128 0.78918 0.0
C1267 C 0.15227 0.49886 0.74897 0.0
C1268 C 0.17041 0.51241 0.73249 0.0
C1269 C 0.19135 0.50926 0.75873 0.0
C1270 C 0.1385 0.46537 0.80606 0.0
C1271 C 0.1679 0.53084 0.68814 0.0
C1272 C 0.09676 0.49748 0.66347 0.0
C1273 C 0.08362 0.51209 0.69599 0.0
C1274 C 0.11913 0.4937 0.67815 0.0
C1275 C 0.12878 0.50394 0.72858 0.0
C1276 C 0.11556 0.51886 0.76099 0.0
C1277 C 0.09351 0.52294 0.74405 0.0
C1278 C 0.13261 0.47919 0.63851 0.0
C1279 C 0.12476 0.53046 0.81442 0.0
H1280 H 0.18025 0.46481 0.84458 0.0
H1281 H 0.20447 0.5205 0.74691 0.0
H1282 H 0.1237 0.47433 0.82057 0.0
H1283 H 0.13393 0.45548 0.76673 0.0
H1284 H 0.1435 0.45399 0.84213 0.0
H1285 H 0.18313 0.53311 0.6617 0.0
H1286 H 0.15411 0.52801 0.65716 0.0
H1287 H 0.1649 0.54632 0.71241 0.0
H1288 H 0.08964 0.48929 0.62546 0.0
H1289 H 0.08378 0.53433 0.76956 0.0
H1290 H 0.13884 0.46499 0.66415 0.0
H1291 H 0.14703 0.48849 0.62165 0.0
H1292 H 0.12314 0.47301 0.59993 0.0
H1293 H 0.13019 0.51821 0.84778 0.0
H1294 H 0.11267 0.54149 0.83551 0.0
H1295 H 0.13932 0.54031 0.80117 0.0
C1296 C 0.983 0.8531 0.53818 0.0
C1297 C 0.99659 0.84568 0.49175 0.0
C1298 C 0.98537 0.87446 0.56307 0.0
C1299 C 1.00174 0.88927 0.54133 0.0
C1300 C 0.01605 0.88141 0.49639 0.0
C1301 C 1.01328 0.86008 0.4724 0.0
C1302 C 0.96991 0.88101 0.61208 0.0
C1303 C 0.03464 0.89551 0.4735 0.0
C1304 C 0.99386 0.95235 0.54974 0.0
C1305 C 1.00984 0.95919 0.59082 0.0
C1306 C 0.99082 0.92991 0.53447 0.0
C1307 C 1.00341 0.91321 0.56215 0.0
C1308 C 0.01863 0.91989 0.60639 0.0
C1309 C 0.02206 0.94257 0.61878 0.0
C1310 C 0.97413 0.92406 0.48793 0.0
C1311 C 0.03093 0.90298 0.64191 0.0
H1312 H 0.97009 0.84236 0.55447 0.0
H1313 H 0.02446 0.85457 0.4383 0.0
H1314 H 0.97709 0.89374 0.64134 0.0
H1315 H 0.95476 0.88764 0.5921 0.0
H1316 H 0.96519 0.86659 0.63975 0.0
H1317 H 0.04211 0.88869 0.43262 0.0
H1318 H 0.02902 0.91242 0.46395 0.0
H1319 H 0.04752 0.89657 0.50798 0.0
H1320 H 0.98396 0.96467 0.52815 0.0
H1321 H 0.03408 0.94722 0.65153 0.0
H1322 H 0.96121 0.9135 0.508 0.0
H1323 H 0.98197 0.91454 0.45187 0.0
H1324 H 0.96631 0.93877 0.46824 0.0
H1325 H 0.0192 0.89119 0.66248 0.0
H1326 H 0.04098 0.9105 0.67756 0.0
H1327 H 0.04178 0.89346 0.61235 0.0
C1328 C 0.69372 1.00302 0.5466 0.0
C1329 C 0.69708 0.99712 0.48669 0.0
C1330 C 0.67241 1.00478 0.57161 0.0
C1331 C 0.65355 1.00075 0.53628 0.0
C1332 C 0.65688 0.99401 0.47659 0.0
C1333 C 0.6783 0.99231 0.45292 0.0
C1334 C 0.67011 1.01077 0.63627 0.0
C1335 C 0.63783 0.98941 0.43598 0.0
C1336 C 0.59481 0.99149 0.59742 0.0
C1337 C 0.58579 1.01266 0.59509 0.0
C1338 C 0.61699 0.98756 0.58186 0.0
C1339 C 0.6305 1.00492 0.55985 0.0
C1340 C 0.6214 0.02629 0.55748 0.0
C1341 C 0.59962 0.02994 0.57665 0.0
C1342 C 0.62605 0.96477 0.58924 0.0
C1343 C 0.63459 0.0455 0.53407 0.0
H1344 H 0.70776 1.00677 0.57402 0.0
H1345 H 0.68024 0.98714 0.4073 0.0
H1346 H 0.65941 0.02524 0.64135 0.0
H1347 H 0.66222 0.99699 0.66078 0.0
H1348 H 0.68613 1.01444 0.65729 0.0
H1349 H 0.6426 0.97859 0.39864 0.0
H1350 H 0.62393 0.9816 0.45991 0.0
H1351 H 0.63203 1.00516 0.41706 0.0
H1352 H 0.58456 0.97798 0.6125 0.0
H1353 H 0.59332 0.0464 0.57515 0.0
H1354 H 0.64017 0.96525 0.62008 0.0
H1355 H 0.63215 0.9586 0.54606 0.0
H1356 H 0.61367 0.95302 0.60702 0.0
H1357 H 0.64681 0.0505 0.56778 0.0
H1358 H 0.62414 0.05987 0.52402 0.0
H1359 H 0.64361 0.04099 0.49312 0.0
C1360 C 0.56013 0.69269 0.53128 0.0
C1361 C 0.54451 0.70149 0.49197 0.0
C1362 C 0.55785 0.6712 0.55592 0.0
C1363 C 0.5395 0.65772 0.54121 0.0
C1364 C 0.52308 0.66718 0.50465 0.0
C1365 C 0.52584 0.68858 0.48055 0.0
C1366 C 0.5755 0.66298 0.59686 0.0
C1367 C 0.50226 0.65481 0.49102 0.0
C1368 C 0.5446 0.59423 0.54019 0.0
C1369 C 0.53109 0.58746 0.58762 0.0
C1370 C 0.54773 0.6168 0.52564 0.0
C1371 C 0.53783 0.63353 0.56029 0.0
C1372 C 0.52518 0.62676 0.61035 0.0
C1373 C 0.52164 0.60406 0.62251 0.0
C1374 C 0.56131 0.62278 0.47191 0.0
C1375 C 0.51577 0.6435 0.65216 0.0
H1376 H 0.57453 0.70239 0.54167 0.0
H1377 H 0.51318 0.69532 0.45241 0.0
H1378 H 0.56907 0.65085 0.62955 0.0
H1379 H 0.5884 0.65497 0.5701 0.0
H1380 H 0.58327 0.67674 0.62134 0.0
H1381 H 0.49322 0.6623 0.4534 0.0
H1382 H 0.50563 0.63742 0.48039 0.0
H1383 H 0.49142 0.65506 0.53061 0.0
H1384 H 0.55216 0.58182 0.51291 0.0
H1385 H 0.51164 0.59929 0.66025 0.0
H1386 H 0.57569 0.63267 0.48574 0.0
H1387 H 0.55157 0.63302 0.44099 0.0
H1388 H 0.56717 0.6081 0.44775 0.0
H1389 H 0.52936 0.65259 0.67379 0.0
H1390 H 0.50531 0.63586 0.68709 0.0
H1391 H 0.50597 0.65573 0.62757 0.0
C1392 C 0.84989 0.56498 0.5243 0.0
C1393 C 0.84026 0.5477 0.49196 0.0
C1394 C 0.87114 0.56316 0.54952 0.0
C1395 C 0.88342 0.54354 0.54272 0.0
C1396 C 0.87297 0.52558 0.51404 0.0
C1397 C 0.85191 0.52795 0.4886 0.0
C1398 C 0.88047 0.58254 0.58244 0.0
C1399 C 0.88401 0.50359 0.51062 0.0
C1400 C 0.94687 0.54546 0.53912 0.0
C1401 C 0.95285 0.53525 0.5928 0.0
C1402 C 0.92459 0.54849 0.52312 0.0
C1403 C 0.90738 0.5419 0.56218 0.0
C1404 C 0.91337 0.53259 0.61782 0.0
C1405 C 0.93577 0.5291 0.63189 0.0
C1406 C 0.9194 0.55838 0.46336 0.0
C1407 C 0.89617 0.52688 0.66361 0.0
H1408 H 0.84106 0.58024 0.52848 0.0
H1409 H 0.84444 0.51418 0.46594 0.0
H1410 H 0.89146 0.57732 0.61893 0.0
H1411 H 0.89009 0.59287 0.55105 0.0
H1412 H 0.86728 0.59283 0.6014 0.0
H1413 H 0.87474 0.49175 0.48288 0.0
H1414 H 0.90079 0.50545 0.49232 0.0
H1415 H 0.88547 0.49657 0.55601 0.0
H1416 H 0.95962 0.55049 0.50844 0.0
H1417 H 0.93994 0.52178 0.67429 0.0
H1418 H 0.90996 0.57367 0.4694 0.0
H1419 H 0.90901 0.54686 0.43762 0.0
H1420 H 0.93436 0.56224 0.4371 0.0
H1421 H 0.89117 0.5421 0.68664 0.0
H1422 H 0.90245 0.5152 0.69722 0.0
H1423 H 0.88132 0.51968 0.64317 0.0
loop_
_geom_bond_atom_site_label_1
_geom_bond_atom_site_label_2
_geom_bond_distance
_geom_bond_site_symmetry_2
_ccdc_geom_bond_type
C0 C1 1.264 . S
C0 C5 1.479 . S
C0 C10 1.465 . S
C1 C0 1.264 . S
C1 C3 1.339 . S
C1 H28 0.931 . S
C2 C3 1.395 . S
C2 C4 1.320 . S
C3 C1 1.339 . S
C3 C2 1.395 . S
C3 H29 0.929 . S
C4 C2 1.320 . S
C4 C5 1.405 . S
C4 H30 0.930 . S
C5 C0 1.479 . S
C5 C4 1.405 . S
C5 H31 0.931 . S
U6 O7 2.454 . S
U6 O8 2.458 . S
U6 C9 2.984 . S
U6 C10 2.847 . S
U6 C23 2.882 . S
U6 O24 2.441 . S
U6 O25 2.420 . S
U6 O26 2.455 . S
U6 O27 2.449 . S
O7 U6 2.454 . S
O7 C9 1.353 . S
O8 U6 2.458 . S
O8 C9 1.286 . S
C9 U6 2.984 . S
C9 O7 1.353 . S
C9 O8 1.286 . S
C9 C11 1.363 . S
C10 C0 1.465 . S
C10 U6 2.847 . S
C10 O24 1.249 . S
C10 O25 1.202 . S
C11 C9 1.363 . S
C11 C13 1.408 . S
C11 C16 1.342 . S
C12 C13 1.310 . S
C12 C15 1.461 . S
C12 H32 0.932 . S
C13 C11 1.408 . S
C13 C12 1.310 . S
C13 H33 0.930 . S
C14 C15 1.474 . S
C14 C16 1.285 . S
C14 H34 0.929 . S
C15 C12 1.461 . S
C15 C14 1.474 . S
C16 C11 1.342 . S
C16 C14 1.285 . S
C16 H35 0.930 . S
C17 C20 1.424 . S
C17 C22 1.245 . S
C17 C23 1.428 . S
C18 C21 1.260 . S
C18 C22 1.477 1_556 S
C18 H36 0.932 . S
C19 C20 1.384 . S
C19 C21 1.479 1_554 S
C19 H37 0.929 . S
C20 C17 1.424 . S
C20 C19 1.384 . S
C20 H38 0.928 . S
C21 C18 1.260 . S
C21 C19 1.479 1_556 S
C22 C17 1.245 . S
C22 C18 1.477 1_554 S
C22 H39 0.932 . S
C23 U6 2.882 . S
C23 C17 1.428 . S
C23 O26 1.301 . S
C23 O27 1.282 . S
O24 U6 2.441 . S
O24 C10 1.249 . S
O25 U6 2.420 . S
O25 C10 1.202 . S
O26 U6 2.455 . S
O26 C23 1.301 . S
O27 U6 2.449 . S
O27 C23 1.282 . S
H28 C1 0.931 . S
H29 C3 0.929 . S
H30 C4 0.930 . S
H31 C5 0.931 . S
H32 C12 0.932 . S
H33 C13 0.930 . S
H34 C14 0.929 . S
H35 C16 0.930 . S
H36 C18 0.932 . S
H37 C19 0.929 . S
H38 C20 0.928 . S
H39 C22 0.932 . S
C40 C41 1.264 . S
C40 C45 1.479 . S
C40 C50 1.465 . S
C41 C40 1.264 . S
C41 C43 1.339 . S
C41 H68 0.931 . S
C42 C43 1.395 . S
C42 C44 1.320 . S
C43 C41 1.339 . S
C43 C42 1.395 . S
C43 H69 0.929 . S
C44 C42 1.320 . S
C44 C45 1.405 . S
C44 H70 0.930 . S
C45 C40 1.479 . S
C45 C44 1.405 . S
C45 H71 0.931 . S
U46 O47 2.454 . S
U46 O48 2.458 . S
U46 C49 2.984 . S
U46 C50 2.847 . S
U46 C63 2.882 . S
U46 O64 2.441 . S
U46 O65 2.420 . S
U46 O66 2.455 . S
U46 O67 2.449 . S
O47 U46 2.454 . S
O47 C49 1.353 . S
O48 U46 2.458 . S
O48 C49 1.286 . S
C49 U46 2.984 . S
C49 O47 1.353 . S
C49 O48 1.286 . S
C49 C51 1.363 . S
C50 C40 1.465 . S
C50 U46 2.847 . S
C50 O64 1.249 . S
C50 O65 1.202 . S
C51 C49 1.363 . S
C51 C53 1.408 . S
C51 C56 1.342 . S
C52 C53 1.310 . S
C52 C55 1.461 . S
C52 H72 0.932 . S
C53 C51 1.408 . S
C53 C52 1.310 . S
C53 H73 0.930 . S
C54 C55 1.474 . S
C54 C56 1.285 . S
C54 H74 0.929 . S
C55 C52 1.461 . S
C55 C54 1.474 . S
C56 C51 1.342 . S
C56 C54 1.285 . S
C56 H75 0.930 . S
C57 C60 1.424 . S
C57 C62 1.245 . S
C57 C63 1.428 . S
C58 C61 1.260 . S
C58 C62 1.477 1_556 S
C58 H76 0.932 . S
C59 C60 1.384 . S
C59 C61 1.479 1_554 S
C59 H77 0.929 . S
C60 C57 1.424 . S
C60 C59 1.384 . S
C60 H78 0.928 . S
C61 C58 1.260 . S
C61 C59 1.479 1_556 S
C62 C57 1.245 . S
C62 C58 1.477 1_554 S
C62 H79 0.932 . S
C63 U46 2.882 . S
C63 C57 1.428 . S
C63 O66 1.301 . S
C63 O67 1.282 . S
O64 U46 2.441 . S
O64 C50 1.249 . S
O65 U46 2.420 . S
O65 C50 1.202 . S
O66 U46 2.455 . S
O66 C63 1.301 . S
O67 U46 2.449 . S
O67 C63 1.282 . S
H68 C41 0.931 . S
H69 C43 0.929 . S
H70 C44 0.930 . S
H71 C45 0.931 . S
H72 C52 0.932 . S
H73 C53 0.930 . S
H74 C54 0.929 . S
H75 C56 0.930 . S
H76 C58 0.932 . S
H77 C59 0.929 . S
H78 C60 0.928 . S
H79 C62 0.932 . S
C80 C81 1.264 . S
C80 C85 1.479 . S
C80 C90 1.465 . S
C81 C80 1.264 . S
C81 C83 1.339 . S
C81 H108 0.931 . S
C82 C83 1.395 . S
C82 C84 1.320 . S
C83 C81 1.339 . S
C83 C82 1.395 . S
C83 H109 0.929 . S
C84 C82 1.320 . S
C84 C85 1.405 . S
C84 H110 0.930 . S
C85 C80 1.479 . S
C85 C84 1.405 . S
C85 H111 0.931 . S
U86 O87 2.454 . S
U86 O88 2.458 . S
U86 C89 2.984 . S
U86 C90 2.847 . S
U86 C103 2.882 . S
U86 O104 2.441 . S
U86 O105 2.420 . S
U86 O106 2.455 . S
U86 O107 2.449 . S
O87 U86 2.454 . S
O87 C89 1.353 . S
O88 U86 2.458 . S
O88 C89 1.286 . S
C89 U86 2.984 . S
C89 O87 1.353 . S
C89 O88 1.286 . S
C89 C91 1.363 . S
C90 C80 1.465 . S
C90 U86 2.847 . S
C90 O104 1.249 . S
C90 O105 1.202 . S
C91 C89 1.363 . S
C91 C93 1.408 . S
C91 C96 1.342 . S
C92 C93 1.310 . S
C92 C95 1.461 . S
C92 H112 0.932 . S
C93 C91 1.408 . S
C93 C92 1.310 . S
C93 H113 0.930 . S
C94 C95 1.474 . S
C94 C96 1.285 . S
C94 H114 0.929 . S
C95 C92 1.461 . S
C95 C94 1.474 . S
C96 C91 1.342 . S
C96 C94 1.285 . S
C96 H115 0.930 . S
C97 C100 1.424 . S
C97 C102 1.245 . S
C97 C103 1.428 . S
C98 C101 1.260 . S
C98 C102 1.477 1_556 S
C98 H116 0.932 . S
C99 C100 1.384 . S
C99 C101 1.479 1_554 S
C99 H117 0.929 . S
C100 C97 1.424 . S
C100 C99 1.384 . S
C100 H118 0.928 . S
C101 C98 1.260 . S
C101 C99 1.479 1_556 S
C102 C97 1.245 . S
C102 C98 1.477 1_554 S
C102 H119 0.932 . S
C103 U86 2.882 . S
C103 C97 1.428 . S
C103 O106 1.301 . S
C103 O107 1.282 . S
O104 U86 2.441 . S
O104 C90 1.249 . S
O105 U86 2.420 . S
O105 C90 1.202 . S
O106 U86 2.455 . S
O106 C103 1.301 . S
O107 U86 2.449 . S
O107 C103 1.282 . S
H108 C81 0.931 . S
H109 C83 0.929 . S
H110 C84 0.930 . S
H111 C85 0.931 . S
H112 C92 0.932 . S
H113 C93 0.930 . S
H114 C94 0.929 . S
H115 C96 0.930 . S
H116 C98 0.932 . S
H117 C99 0.929 . S
H118 C100 0.928 . S
H119 C102 0.932 . S
C120 C121 1.264 . S
C120 C125 1.479 . S
C120 C130 1.465 . S
C121 C120 1.264 . S
C121 C123 1.339 . S
C121 H148 0.931 . S
C122 C123 1.395 . S
C122 C124 1.320 . S
C123 C121 1.339 . S
C123 C122 1.395 . S
C123 H149 0.929 . S
C124 C122 1.320 . S
C124 C125 1.405 . S
C124 H150 0.930 . S
C125 C120 1.479 . S
C125 C124 1.405 . S
C125 H151 0.931 . S
U126 O127 2.454 . S
U126 O128 2.458 . S
U126 C129 2.984 . S
U126 C130 2.847 . S
U126 C143 2.882 . S
U126 O144 2.441 . S
U126 O145 2.420 . S
U126 O146 2.455 . S
U126 O147 2.449 . S
O127 U126 2.454 . S
O127 C129 1.353 . S
O128 U126 2.458 . S
O128 C129 1.286 . S
C129 U126 2.984 . S
C129 O127 1.353 . S
C129 O128 1.286 . S
C129 C131 1.363 . S
C130 C120 1.465 . S
C130 U126 2.847 . S
C130 O144 1.249 . S
C130 O145 1.202 . S
C131 C129 1.363 . S
C131 C133 1.408 . S
C131 C136 1.342 . S
C132 C133 1.310 . S
C132 C135 1.461 . S
C132 H152 0.932 . S
C133 C131 1.408 . S
C133 C132 1.310 . S
C133 H153 0.930 . S
C134 C135 1.474 . S
C134 C136 1.285 . S
C134 H154 0.929 . S
C135 C132 1.461 . S
C135 C134 1.474 . S
C136 C131 1.342 . S
C136 C134 1.285 . S
C136 H155 0.930 . S
C137 C140 1.424 . S
C137 C142 1.245 . S
C137 C143 1.428 . S
C138 C141 1.262 . S
C138 C142 1.477 1_556 S
C138 H156 0.932 . S
C139 C140 1.384 . S
C139 C141 1.468 1_554 S
C139 H157 0.929 . S
C140 C137 1.424 . S
C140 C139 1.384 . S
C140 H158 0.928 . S
C141 C138 1.262 . S
C141 C139 1.468 1_556 S
C142 C137 1.245 . S
C142 C138 1.477 1_554 S
C142 H159 0.932 . S
C143 U126 2.882 . S
C143 C137 1.428 . S
C143 O146 1.301 . S
C143 O147 1.282 . S
O144 U126 2.441 . S
O144 C130 1.249 . S
O145 U126 2.420 . S
O145 C130 1.202 . S
O146 U126 2.455 . S
O146 C143 1.301 . S
O147 U126 2.449 . S
O147 C143 1.282 . S
H148 C121 0.931 . S
H149 C123 0.929 . S
H150 C124 0.930 . S
H151 C125 0.931 . S
H152 C132 0.932 . S
H153 C133 0.930 . S
H154 C134 0.929 . S
H155 C136 0.930 . S
H156 C138 0.932 . S
H157 C139 0.929 . S
H158 C140 0.928 . S
H159 C142 0.932 . S
C160 C161 1.264 . S
C160 C165 1.479 . S
C160 C170 1.465 . S
C161 C160 1.264 . S
C161 C163 1.339 . S
C161 H188 0.931 . S
C162 C163 1.395 . S
C162 C164 1.320 . S
C163 C161 1.339 . S
C163 C162 1.395 . S
C163 H189 0.929 . S
C164 C162 1.320 . S
C164 C165 1.405 . S
C164 H190 0.930 . S
C165 C160 1.479 . S
C165 C164 1.405 . S
C165 H191 0.931 . S
U166 O167 2.454 . S
U166 O168 2.458 . S
U166 C169 2.984 . S
U166 C170 2.847 1_554 S
U166 C183 2.882 . S
U166 O184 2.441 1_554 S
U166 O185 2.420 1_554 S
U166 O186 2.455 . S
U166 O187 2.449 . S
O167 U166 2.454 . S
O167 C169 1.353 . S
O168 U166 2.458 . S
O168 C169 1.286 . S
C169 U166 2.984 . S
C169 O167 1.353 . S
C169 O168 1.286 . S
C169 C171 1.363 . S
C170 C160 1.465 . S
C170 U166 2.847 1_556 S
C170 O184 1.249 . S
C170 O185 1.202 . S
C171 C169 1.363 . S
C171 C173 1.408 . S
C171 C176 1.342 . S
C172 C173 1.310 . S
C172 C175 1.461 . S
C172 H192 0.932 . S
C173 C171 1.408 . S
C173 C172 1.310 . S
C173 H193 0.915 1_554 S
C174 C175 1.474 . S
C174 C176 1.285 . S
C174 H194 0.929 . S
C175 C172 1.461 . S
C175 C174 1.474 . S
C176 C171 1.342 . S
C176 C174 1.285 . S
C176 H195 0.930 . S
C177 C180 1.424 . S
C177 C182 1.245 . S
C177 C183 1.428 . S
C178 C181 1.260 . S
C178 C182 1.477 . S
C178 H196 0.932 . S
C179 C180 1.384 . S
C179 C181 1.479 . S
C179 H197 0.929 . S
C180 C177 1.424 . S
C180 C179 1.384 . S
C180 H198 0.928 . S
C181 C178 1.260 . S
C181 C179 1.479 . S
C182 C177 1.245 . S
C182 C178 1.477 . S
C182 H199 0.932 . S
C183 U166 2.882 . S
C183 C177 1.428 . S
C183 O186 1.301 . S
C183 O187 1.282 . S
O184 U166 2.441 1_556 S
O184 C170 1.249 . S
O185 U166 2.420 1_556 S
O185 C170 1.202 . S
O186 U166 2.455 . S
O186 C183 1.301 . S
O187 U166 2.449 . S
O187 C183 1.282 . S
H188 C161 0.931 . S
H189 C163 0.929 . S
H190 C164 0.930 . S
H191 C165 0.931 . S
H192 C172 0.932 . S
H193 C173 0.915 1_556 S
H194 C174 0.929 . S
H195 C176 0.930 . S
H196 C178 0.932 . S
H197 C179 0.929 . S
H198 C180 0.928 . S
H199 C182 0.932 . S
C200 C201 1.264 . S
C200 C205 1.479 . S
C200 C210 1.465 . S
C201 C200 1.264 . S
C201 C203 1.339 . S
C201 H228 0.931 . S
C202 C203 1.395 . S
C202 C204 1.320 . S
C203 C201 1.339 . S
C203 C202 1.395 . S
C203 H229 0.929 . S
C204 C202 1.320 . S
C204 C205 1.405 . S
C204 H230 0.930 . S
C205 C200 1.479 . S
C205 C204 1.405 . S
C205 H231 0.931 . S
U206 O207 2.454 . S
U206 O208 2.458 . S
U206 C209 2.984 . S
U206 C210 2.847 1_554 S
U206 C223 2.882 . S
U206 O224 2.441 1_554 S
U206 O225 2.420 1_554 S
U206 O226 2.455 . S
U206 O227 2.449 . S
O207 U206 2.454 . S
O207 C209 1.353 . S
O208 U206 2.458 . S
O208 C209 1.286 . S
C209 U206 2.984 . S
C209 O207 1.353 . S
C209 O208 1.286 . S
C209 C211 1.363 . S
C210 C200 1.465 . S
C210 U206 2.847 1_556 S
C210 O224 1.249 . S
C210 O225 1.202 . S
C211 C209 1.363 . S
C211 C213 1.408 . S
C211 C216 1.342 . S
C212 C213 1.310 . S
C212 C215 1.461 . S
C212 H232 0.932 . S
C213 C211 1.408 . S
C213 C212 1.310 . S
C213 H233 0.930 . S
C214 C215 1.474 . S
C214 C216 1.285 . S
C214 H234 0.929 . S
C215 C212 1.461 . S
C215 C214 1.474 . S
C216 C211 1.342 . S
C216 C214 1.285 . S
C216 H235 0.930 . S
C217 C220 1.424 . S
C217 C222 1.245 . S
C217 C223 1.428 . S
C218 C221 1.260 . S
C218 C222 1.477 . S
C218 H236 0.932 . S
C219 C220 1.384 . S
C219 C221 1.479 . S
C219 H237 0.929 . S
C220 C217 1.424 . S
C220 C219 1.384 . S
C220 H238 0.928 . S
C221 C218 1.260 . S
C221 C219 1.479 . S
C222 C217 1.245 . S
C222 C218 1.477 . S
C222 H239 0.932 . S
C223 U206 2.882 . S
C223 C217 1.428 . S
C223 O226 1.301 . S
C223 O227 1.282 . S
O224 U206 2.441 1_556 S
O224 C210 1.249 . S
O225 U206 2.420 1_556 S
O225 C210 1.202 . S
O226 U206 2.455 . S
O226 C223 1.301 . S
O227 U206 2.449 . S
O227 C223 1.282 . S
H228 C201 0.931 . S
H229 C203 0.929 . S
H230 C204 0.930 . S
H231 C205 0.931 . S
H232 C212 0.932 . S
H233 C213 0.930 . S
H234 C214 0.929 . S
H235 C216 0.930 . S
H236 C218 0.932 . S
H237 C219 0.929 . S
H238 C220 0.928 . S
H239 C222 0.932 . S
C240 C241 1.264 . S
C240 C245 1.479 . S
C240 C250 1.465 . S
C241 C240 1.264 . S
C241 C243 1.339 . S
C241 H268 0.931 . S
C242 C243 1.395 . S
C242 C244 1.320 . S
C243 C241 1.339 . S
C243 C242 1.395 . S
C243 H269 0.929 . S
C244 C242 1.320 . S
C244 C245 1.405 . S
C244 H270 0.930 . S
C245 C240 1.479 . S
C245 C244 1.405 . S
C245 H271 0.931 . S
U246 O247 2.454 . S
U246 O248 2.458 . S
U246 C249 2.984 . S
U246 C250 2.847 1_554 S
U246 C263 2.882 . S
U246 O264 2.441 1_554 S
U246 O265 2.420 1_554 S
U246 O266 2.455 . S
U246 O267 2.449 . S
O247 U246 2.454 . S
O247 C249 1.353 . S
O248 U246 2.458 . S
O248 C249 1.286 . S
C249 U246 2.984 . S
C249 O247 1.353 . S
C249 O248 1.286 . S
C249 C251 1.363 . S
C250 C240 1.465 . S
C250 U246 2.847 1_556 S
C250 O264 1.249 . S
C250 O265 1.202 . S
C251 C249 1.363 . S
C251 C253 1.408 . S
C251 C256 1.342 . S
C252 C253 1.310 . S
C252 C255 1.461 . S
C252 H272 0.932 . S
C253 C251 1.408 . S
C253 C252 1.310 . S
C253 H273 0.930 . S
C254 C255 1.474 . S
C254 C256 1.285 . S
C254 H274 0.929 . S
C255 C252 1.461 . S
C255 C254 1.474 . S
C256 C251 1.342 . S
C256 C254 1.285 . S
C256 H275 0.930 . S
C257 C260 1.424 . S
C257 C262 1.245 . S
C257 C263 1.428 . S
C258 C261 1.260 . S
C258 C262 1.477 . S
C258 H276 0.932 . S
C259 C260 1.384 . S
C259 C261 1.479 . S
C259 H277 0.929 . S
C260 C257 1.424 . S
C260 C259 1.384 . S
C260 H278 0.928 . S
C261 C258 1.260 . S
C261 C259 1.479 . S
C262 C257 1.245 . S
C262 C258 1.477 . S
C262 H279 0.932 . S
C263 U246 2.882 . S
C263 C257 1.428 . S
C263 O266 1.301 . S
C263 O267 1.282 . S
O264 U246 2.441 1_556 S
O264 C250 1.249 . S
O265 U246 2.420 1_556 S
O265 C250 1.202 . S
O266 U246 2.455 . S
O266 C263 1.301 . S
O267 U246 2.449 . S
O267 C263 1.282 . S
H268 C241 0.931 . S
H269 C243 0.929 . S
H270 C244 0.930 . S
H271 C245 0.931 . S
H272 C252 0.932 . S
H273 C253 0.930 . S
H274 C254 0.929 . S
H275 C256 0.930 . S
H276 C258 0.932 . S
H277 C259 0.929 . S
H278 C260 0.928 . S
H279 C262 0.932 . S
C280 C281 1.264 . S
C280 C285 1.479 . S
C280 C290 1.465 . S
C281 C280 1.264 . S
C281 C283 1.339 . S
C281 H308 0.931 . S
C282 C283 1.395 . S
C282 C284 1.320 . S
C283 C281 1.339 . S
C283 C282 1.395 . S
C283 H309 0.929 . S
C284 C282 1.320 . S
C284 C285 1.405 . S
C284 H310 0.930 . S
C285 C280 1.479 . S
C285 C284 1.405 . S
C285 H311 0.931 . S
U286 O287 2.454 . S
U286 O288 2.458 . S
U286 C289 2.984 . S
U286 C290 2.847 1_554 S
U286 C303 2.882 . S
U286 O304 2.441 1_554 S
U286 O305 2.420 1_554 S
U286 O306 2.455 . S
U286 O307 2.449 . S
O287 U286 2.454 . S
O287 C289 1.353 . S
O288 U286 2.458 . S
O288 C289 1.286 . S
C289 U286 2.984 . S
C289 O287 1.353 . S
C289 O288 1.286 . S
C289 C291 1.363 . S
C290 C280 1.465 . S
C290 U286 2.847 1_556 S
C290 O304 1.249 . S
C290 O305 1.202 . S
C291 C289 1.363 . S
C291 C293 1.408 . S
C291 C296 1.342 . S
C292 C293 1.310 . S
C292 C295 1.461 . S
C292 H312 0.932 . S
C293 C291 1.408 . S
C293 C292 1.310 . S
C293 H313 0.930 1_554 S
C294 C295 1.474 . S
C294 C296 1.285 . S
C294 H314 0.929 . S
C295 C292 1.461 . S
C295 C294 1.474 . S
C296 C291 1.342 . S
C296 C294 1.285 . S
C296 H315 0.930 . S
C297 C300 1.424 . S
C297 C302 1.245 . S
C297 C303 1.428 . S
C298 C301 1.260 . S
C298 C302 1.477 . S
C298 H316 0.932 . S
C299 C300 1.384 . S
C299 C301 1.479 . S
C299 H317 0.929 . S
C300 C297 1.424 . S
C300 C299 1.384 . S
C300 H318 0.928 . S
C301 C298 1.260 . S
C301 C299 1.479 . S
C302 C297 1.245 . S
C302 C298 1.477 . S
C302 H319 0.932 . S
C303 U286 2.882 . S
C303 C297 1.428 . S
C303 O306 1.301 . S
C303 O307 1.282 . S
O304 U286 2.441 1_556 S
O304 C290 1.249 . S
O305 U286 2.420 1_556 S
O305 C290 1.202 . S
O306 U286 2.455 . S
O306 C303 1.301 . S
O307 U286 2.449 . S
O307 C303 1.282 . S
H308 C281 0.931 . S
H309 C283 0.929 . S
H310 C284 0.930 . S
H311 C285 0.931 . S
H312 C292 0.932 . S
H313 C293 0.930 1_556 S
H314 C294 0.929 . S
H315 C296 0.930 . S
H316 C298 0.932 . S
H317 C299 0.929 . S
H318 C300 0.928 . S
H319 C302 0.932 . S
C320 C322 1.422 . S
C320 C324 1.415 . S
C320 N326 1.353 1_545 S
C321 C322 1.421 . S
C321 C323 1.417 . S
C321 C333 1.422 . S
C322 C320 1.422 . S
C322 C321 1.421 . S
C322 N332 1.359 . S
C323 C321 1.417 . S
C323 C325 1.329 . S
C323 H342 0.930 . S
C324 C320 1.415 . S
C324 C325 1.437 . S
C324 C328 1.413 . S
C325 C323 1.329 . S
C325 C324 1.437 . S
C325 H347 0.929 . S
N326 C320 1.353 1_565 S
N326 C327 1.342 . S
N326 Gd331 2.630 . S
C327 N326 1.342 . S
C327 C329 1.378 1_565 S
C327 H339 0.929 . S
C328 C324 1.413 . S
C328 C329 1.348 . S
C328 H344 0.931 . S
C329 C327 1.378 1_545 S
C329 C328 1.348 . S
C329 H345 0.930 . S
Gd330 N350 2.622 . S
Gd330 N357 2.570 . S
Gd330 O364 2.353 1_655 S
Gd330 O365 2.468 . S
Gd330 O366 2.427 . S
Gd330 O368 2.388 . S
Gd330 O369 2.386 1_545 S
Gd330 O373 2.307 1_655 S
Gd330 C383 2.805 . S
Gd331 N326 2.630 . S
Gd331 N332 2.570 1_565 S
Gd331 O363 2.386 1_565 S
Gd331 O367 2.298 1_465 S
Gd331 O370 2.353 . S
Gd331 O371 2.468 . S
Gd331 O372 2.427 . S
Gd331 O374 2.388 . S
Gd331 C395 2.805 . S
N332 C322 1.359 . S
N332 Gd331 2.570 1_545 S
N332 C334 1.343 . S
C333 C321 1.422 . S
C333 C335 1.321 . S
C333 H341 0.931 . S
C334 N332 1.343 . S
C334 C335 1.390 . S
C334 H336 0.930 1_445 S
C335 C333 1.321 . S
C335 C334 1.390 . S
C335 H337 0.973 . S
H336 C334 0.930 1_665 S
H337 C335 0.973 . S
H338 C361 0.931 1_455 S
H339 C327 0.929 . S
H340 C362 0.930 1_455 S
H341 C333 0.931 . S
H342 C323 0.930 . S
H343 C352 0.929 . S
H344 C328 0.931 . S
H345 C329 0.930 . S
H346 C384 0.930 . S
H347 C325 0.929 . S
H348 C353 0.931 . S
H349 C354 0.930 . S
N350 Gd330 2.622 . S
N350 C351 1.369 . S
N350 C352 1.338 . S
C351 N350 1.369 . S
C351 C355 1.415 1_545 S
C351 C358 1.422 . S
C352 H343 0.929 . S
C352 N350 1.338 . S
C352 C354 1.378 . S
C353 H348 0.931 . S
C353 C354 1.348 1_565 S
C353 C355 1.413 . S
C354 H349 0.930 . S
C354 C352 1.378 . S
C354 C353 1.348 1_545 S
C355 C351 1.415 1_565 S
C355 C353 1.413 . S
C355 C385 1.437 . S
H356 C385 0.929 . S
N357 Gd330 2.570 . S
N357 C358 1.359 . S
N357 C361 1.343 . S
C358 C351 1.422 . S
C358 N357 1.359 . S
C358 C360 1.421 1_545 S
C359 C360 1.422 . S
C359 C362 1.321 . S
C359 H386 0.931 . S
C360 C358 1.421 1_565 S
C360 C359 1.422 . S
C360 C384 1.417 . S
C361 H338 0.931 1_655 S
C361 N357 1.343 . S
C361 C362 1.390 1_545 S
C362 H340 0.930 1_655 S
C362 C359 1.321 . S
C362 C361 1.390 1_565 S
O363 Gd331 2.386 1_545 S
O363 C375 1.265 . S
O364 Gd330 2.353 1_455 S
O364 C375 1.242 . S
O365 Gd330 2.468 . S
O365 C383 1.263 . S
O366 Gd330 2.427 . S
O366 C383 1.252 . S
O367 Gd331 2.298 1_645 S
O367 C376 1.269 . S
O368 Gd330 2.388 . S
O368 C376 1.252 . S
O369 Gd330 2.386 1_565 S
O369 C387 1.265 . S
O370 Gd331 2.353 . S
O370 C387 1.242 1_455 S
O371 Gd331 2.468 . S
O371 C395 1.263 . S
O372 Gd331 2.427 . S
O372 C395 1.252 . S
O373 Gd330 2.307 1_455 S
O373 C388 1.261 . S
O374 Gd331 2.388 . S
O374 C388 1.252 1_565 S
C375 O363 1.265 . S
C375 O364 1.242 . S
C376 O367 1.269 . S
C376 O368 1.252 . S
C377 C380 1.394 . S
C377 C382 1.370 . S
C377 C383 1.500 . S
C378 C381 1.383 . S
C378 C382 1.395 . S
C379 C380 1.396 . S
C379 C381 1.365 . S
C379 H396 0.929 . S
C380 C377 1.394 . S
C380 C379 1.396 . S
C380 H397 0.930 . S
C381 C378 1.383 . S
C381 C379 1.365 . S
C381 H398 0.931 . S
C382 C377 1.370 . S
C382 C378 1.395 . S
C382 H399 0.930 1_655 S
C383 Gd330 2.805 . S
C383 O365 1.263 . S
C383 O366 1.252 . S
C383 C377 1.500 . S
C384 H346 0.930 . S
C384 C360 1.417 . S
C384 C385 1.329 . S
C385 C355 1.437 . S
C385 H356 0.929 . S
C385 C384 1.329 . S
H386 C359 0.931 . S
C387 O369 1.265 . S
C387 O370 1.242 1_655 S
C388 O373 1.261 . S
C388 O374 1.252 1_545 S
C389 C392 1.394 . S
C389 C394 1.370 . S
C389 C395 1.500 . S
C390 C393 1.383 . S
C390 C394 1.395 . S
C391 C392 1.396 . S
C391 C393 1.365 . S
C391 H400 0.929 . S
C392 C389 1.394 . S
C392 C391 1.396 . S
C392 H401 0.930 . S
C393 C390 1.383 . S
C393 C391 1.365 . S
C393 H402 0.931 . S
C394 C389 1.370 . S
C394 C390 1.395 . S
C394 H403 0.967 . S
C395 Gd331 2.805 . S
C395 O371 1.263 . S
C395 O372 1.252 . S
C395 C389 1.500 . S
H396 C379 0.929 . S
H397 C380 0.930 . S
H398 C381 0.931 . S
H399 C382 0.930 1_455 S
H400 C391 0.929 . S
H401 C392 0.930 . S
H402 C393 0.931 . S
H403 C394 0.967 . S
C404 C406 1.422 . S
C404 C408 1.415 . S
C404 N410 1.369 . S
C405 C406 1.421 . S
C405 C407 1.417 . S
C405 C417 1.422 . S
C406 C404 1.422 . S
C406 C405 1.421 . S
C406 N416 1.359 . S
C407 C405 1.417 . S
C407 C409 1.329 . S
C407 H426 0.930 . S
C408 C404 1.415 . S
C408 C409 1.437 . S
C408 C412 1.413 . S
C409 C407 1.329 . S
C409 C408 1.437 . S
C409 H431 0.929 . S
N410 C404 1.369 . S
N410 C411 1.338 . S
N410 Gd415 2.622 . S
C411 N410 1.338 . S
C411 C413 1.378 . S
C411 H423 0.929 . S
C412 C408 1.413 . S
C412 C413 1.348 . S
C412 H428 0.931 . S
C413 C411 1.378 . S
C413 C412 1.348 . S
C413 H429 0.930 . S
Gd414 N434 2.622 . S
Gd414 N441 2.570 . S
Gd414 O448 2.353 1_545 S
Gd414 O449 2.468 . S
Gd414 O450 2.427 . S
Gd414 O452 2.388 . S
Gd414 O453 2.386 . S
Gd414 O457 2.307 . S
Gd414 C467 2.805 . S
Gd415 N410 2.622 . S
Gd415 N416 2.570 . S
Gd415 O447 2.386 . S
Gd415 O451 2.307 1_565 S
Gd415 O454 2.353 1_565 S
Gd415 O455 2.468 . S
Gd415 O456 2.427 . S
Gd415 O458 2.388 . S
Gd415 C479 2.805 . S
N416 C406 1.359 . S
N416 Gd415 2.570 . S
N416 C418 1.343 . S
C417 C405 1.422 . S
C417 C419 1.321 . S
C417 H425 0.931 . S
C418 N416 1.343 . S
C418 C419 1.390 . S
C418 H420 0.931 . S
C419 C417 1.321 . S
C419 C418 1.390 . S
C419 H421 0.930 . S
H420 C418 0.931 . S
H421 C419 0.930 . S
H422 C445 0.931 . S
H423 C411 0.929 . S
H424 C446 0.930 . S
H425 C417 0.931 . S
H426 C407 0.930 . S
H427 C436 0.929 . S
H428 C412 0.931 . S
H429 C413 0.930 . S
H430 C468 0.930 . S
H431 C409 0.929 . S
H432 C437 0.931 . S
H433 C438 0.930 . S
N434 Gd414 2.622 . S
N434 C435 1.369 . S
N434 C436 1.338 . S
C435 N434 1.369 . S
C435 C439 1.415 . S
C435 C442 1.422 . S
C436 H427 0.929 . S
C436 N434 1.338 . S
C436 C438 1.378 . S
C437 H432 0.931 . S
C437 C438 1.348 . S
C437 C439 1.413 . S
C438 H433 0.930 . S
C438 C436 1.378 . S
C438 C437 1.348 . S
C439 C435 1.415 . S
C439 C437 1.413 . S
C439 C469 1.437 . S
H440 C469 0.929 . S
N441 Gd414 2.570 . S
N441 C442 1.359 . S
N441 C445 1.343 . S
C442 C435 1.422 . S
C442 N441 1.359 . S
C442 C444 1.421 . S
C443 C444 1.422 . S
C443 C446 1.321 . S
C443 H470 0.931 . S
C444 C442 1.421 . S
C444 C443 1.422 . S
C444 C468 1.417 . S
C445 H422 0.931 . S
C445 N441 1.343 . S
C445 C446 1.390 . S
C446 H424 0.930 . S
C446 C443 1.321 . S
C446 C445 1.390 . S
O447 Gd415 2.386 . S
O447 C459 1.265 . S
O448 Gd414 2.353 1_565 S
O448 C459 1.242 . S
O449 Gd414 2.468 . S
O449 C467 1.263 . S
O450 Gd414 2.427 . S
O450 C467 1.252 . S
O451 Gd415 2.307 1_545 S
O451 C460 1.261 . S
O452 Gd414 2.388 . S
O452 C460 1.252 . S
O453 Gd414 2.386 . S
O453 C471 1.265 . S
O454 Gd415 2.353 1_545 S
O454 C471 1.242 . S
O455 Gd415 2.468 . S
O455 C479 1.263 . S
O456 Gd415 2.427 . S
O456 C479 1.252 . S
O457 Gd414 2.307 . S
O457 C472 1.261 1_545 S
O458 Gd415 2.388 . S
O458 C472 1.252 . S
C459 O447 1.265 . S
C459 O448 1.242 . S
C460 O451 1.261 . S
C460 O452 1.252 . S
C461 C464 1.394 . S
C461 C466 1.370 . S
C461 C467 1.500 . S
C462 C465 1.383 . S
C462 C466 1.395 . S
C463 C464 1.396 . S
C463 C465 1.365 . S
C463 H480 0.929 . S
C464 C461 1.394 . S
C464 C463 1.396 . S
C464 H481 0.930 . S
C465 C462 1.383 . S
C465 C463 1.365 . S
C465 H482 0.931 . S
C466 C461 1.370 . S
C466 C462 1.395 . S
C466 H483 0.930 . S
C467 Gd414 2.805 . S
C467 O449 1.263 . S
C467 O450 1.252 . S
C467 C461 1.500 . S
C468 H430 0.930 . S
C468 C444 1.417 . S
C468 C469 1.329 . S
C469 C439 1.437 . S
C469 H440 0.929 . S
C469 C468 1.329 . S
H470 C443 0.931 . S
C471 O453 1.265 . S
C471 O454 1.242 . S
C472 O457 1.261 1_565 S
C472 O458 1.252 . S
C473 C476 1.394 . S
C473 C478 1.361 1_565 S
C473 C479 1.500 . S
C474 C477 1.383 1_545 S
C474 C478 1.397 . S
C475 C476 1.396 . S
C475 C477 1.365 . S
C475 H484 0.929 . S
C476 C473 1.394 . S
C476 C475 1.396 . S
C476 H485 0.930 . S
C477 C474 1.383 1_565 S
C477 C475 1.365 . S
C477 H486 0.931 . S
C478 C473 1.361 1_545 S
C478 C474 1.397 . S
C478 H487 0.939 . S
C479 Gd415 2.805 . S
C479 O455 1.263 . S
C479 O456 1.252 . S
C479 C473 1.500 . S
H480 C463 0.929 . S
H481 C464 0.930 . S
H482 C465 0.931 . S
H483 C466 0.930 . S
H484 C475 0.929 . S
H485 C476 0.930 . S
H486 C477 0.931 . S
H487 C478 0.939 . S
C488 C490 1.422 . S
C488 C492 1.415 . S
C488 N494 1.369 . S
C489 C490 1.421 . S
C489 C491 1.417 . S
C489 C501 1.422 . S
C490 C488 1.422 . S
C490 C489 1.421 . S
C490 N500 1.359 . S
C491 C489 1.417 . S
C491 C493 1.329 . S
C491 H510 0.930 . S
C492 C488 1.415 . S
C492 C493 1.437 . S
C492 C496 1.413 . S
C493 C491 1.329 . S
C493 C492 1.437 . S
C493 H515 0.929 . S
N494 C488 1.369 . S
N494 C495 1.338 . S
N494 Gd499 2.622 . S
C495 N494 1.338 . S
C495 C497 1.378 . S
C495 H507 0.929 . S
C496 C492 1.413 . S
C496 C497 1.348 . S
C496 H512 0.931 . S
C497 C495 1.378 . S
C497 C496 1.348 . S
C497 H513 0.930 . S
Gd498 N518 2.622 . S
Gd498 N525 2.570 . S
Gd498 O532 2.353 . S
Gd498 O533 2.468 . S
Gd498 O534 2.427 . S
Gd498 O536 2.388 . S
Gd498 O537 2.386 . S
Gd498 O541 2.307 . S
Gd498 C551 2.805 . S
Gd499 N494 2.622 . S
Gd499 N500 2.570 . S
Gd499 O531 2.386 . S
Gd499 O535 2.307 . S
Gd499 O538 2.353 . S
Gd499 O539 2.468 . S
Gd499 O540 2.427 . S
Gd499 O542 2.388 . S
Gd499 C563 2.805 . S
N500 C490 1.359 . S
N500 Gd499 2.570 . S
N500 C502 1.343 . S
C501 C489 1.422 . S
C501 C503 1.321 . S
C501 H509 0.931 . S
C502 N500 1.343 . S
C502 C503 1.390 . S
C502 H504 0.931 . S
C503 C501 1.321 . S
C503 C502 1.390 . S
C503 H505 0.930 . S
H504 C502 0.931 . S
H505 C503 0.930 . S
H506 C529 0.931 . S
H507 C495 0.929 . S
H508 C530 0.930 . S
H509 C501 0.931 . S
H510 C491 0.930 . S
H511 C520 0.929 . S
H512 C496 0.931 . S
H513 C497 0.930 . S
H514 C552 0.930 . S
H515 C493 0.929 . S
H516 C521 0.931 . S
H517 C522 0.930 . S
N518 Gd498 2.622 . S
N518 C519 1.369 . S
N518 C520 1.338 . S
C519 N518 1.369 . S
C519 C523 1.415 . S
C519 C526 1.422 . S
C520 H511 0.929 . S
C520 N518 1.338 . S
C520 C522 1.378 . S
C521 H516 0.931 . S
C521 C522 1.348 . S
C521 C523 1.413 . S
C522 H517 0.930 . S
C522 C520 1.378 . S
C522 C521 1.348 . S
C523 C519 1.415 . S
C523 C521 1.413 . S
C523 C553 1.437 . S
H524 C553 0.929 . S
N525 Gd498 2.570 . S
N525 C526 1.359 . S
N525 C529 1.343 . S
C526 C519 1.422 . S
C526 N525 1.359 . S
C526 C528 1.421 . S
C527 C528 1.422 . S
C527 C530 1.321 . S
C527 H554 0.931 . S
C528 C526 1.421 . S
C528 C527 1.422 . S
C528 C552 1.417 . S
C529 H506 0.931 . S
C529 N525 1.343 . S
C529 C530 1.390 . S
C530 H508 0.930 . S
C530 C527 1.321 . S
C530 C529 1.390 . S
O531 Gd499 2.386 . S
O531 C543 1.265 . S
O532 Gd498 2.353 . S
O532 C543 1.242 . S
O533 Gd498 2.468 . S
O533 C551 1.263 . S
O534 Gd498 2.427 . S
O534 C551 1.252 . S
O535 Gd499 2.307 . S
O535 C544 1.261 . S
O536 Gd498 2.388 . S
O536 C544 1.252 . S
O537 Gd498 2.386 . S
O537 C555 1.265 . S
O538 Gd499 2.353 . S
O538 C555 1.242 . S
O539 Gd499 2.468 . S
O539 C563 1.263 . S
O540 Gd499 2.427 . S
O540 C563 1.252 . S
O541 Gd498 2.307 . S
O541 C556 1.261 . S
O542 Gd499 2.388 . S
O542 C556 1.252 . S
C543 O531 1.265 . S
C543 O532 1.242 . S
C544 O535 1.261 . S
C544 O536 1.252 . S
C545 C548 1.394 . S
C545 C550 1.370 . S
C545 C551 1.500 . S
C546 C549 1.383 . S
C546 C550 1.395 . S
C547 C548 1.396 . S
C547 C549 1.365 . S
C547 H564 0.929 . S
C548 C545 1.394 . S
C548 C547 1.396 . S
C548 H565 0.930 . S
C549 C546 1.383 . S
C549 C547 1.365 . S
C549 H566 0.931 . S
C550 C545 1.370 . S
C550 C546 1.395 . S
C550 H567 0.930 . S
C551 Gd498 2.805 . S
C551 O533 1.263 . S
C551 O534 1.252 . S
C551 C545 1.500 . S
C552 H514 0.930 . S
C552 C528 1.417 . S
C552 C553 1.329 . S
C553 C523 1.437 . S
C553 H524 0.929 . S
C553 C552 1.329 . S
H554 C527 0.931 . S
C555 O537 1.265 . S
C555 O538 1.242 . S
C556 O541 1.261 . S
C556 O542 1.252 . S
C557 C560 1.394 . S
C557 C562 1.370 . S
C557 C563 1.500 . S
C558 C561 1.383 . S
C558 C562 1.395 . S
C559 C560 1.396 . S
C559 C561 1.365 . S
C559 H568 0.929 . S
C560 C557 1.394 . S
C560 C559 1.396 . S
C560 H569 0.930 . S
C561 C558 1.383 . S
C561 C559 1.365 . S
C561 H570 0.931 . S
C562 C557 1.370 . S
C562 C558 1.395 . S
C562 H571 0.930 . S
C563 Gd499 2.805 . S
C563 O539 1.263 . S
C563 O540 1.252 . S
C563 C557 1.500 . S
H564 C547 0.929 . S
H565 C548 0.930 . S
H566 C549 0.931 . S
H567 C550 0.930 . S
H568 C559 0.929 . S
H569 C560 0.930 . S
H570 C561 0.931 . S
H571 C562 0.930 . S
C572 C574 1.422 . S
C572 C576 1.415 . S
C572 N578 1.369 1_455 S
C573 C574 1.421 . S
C573 C575 1.417 . S
C573 C585 1.422 . S
C574 C572 1.422 . S
C574 C573 1.421 . S
C574 N584 1.376 . S
C575 C573 1.417 . S
C575 C577 1.329 . S
C575 H594 0.930 . S
C576 C572 1.415 . S
C576 C577 1.437 . S
C576 C580 1.413 . S
C577 C575 1.329 . S
C577 C576 1.437 . S
C577 H599 0.929 . S
N578 C572 1.369 1_655 S
N578 C579 1.338 . S
N578 Gd583 2.622 . S
C579 N578 1.338 . S
C579 C581 1.378 1_655 S
C579 H591 0.929 . S
C580 C576 1.413 . S
C580 C581 1.348 . S
C580 H596 0.931 . S
C581 C579 1.378 1_455 S
C581 C580 1.348 . S
C581 H597 0.926 1_455 S
Gd582 N602 2.622 . S
Gd582 N609 2.570 . S
Gd582 O616 2.353 . S
Gd582 O617 2.468 . S
Gd582 O618 2.427 . S
Gd582 O620 2.388 . S
Gd582 O621 2.386 1_455 S
Gd582 O625 2.307 . S
Gd582 C635 2.805 . S
Gd583 N578 2.622 . S
Gd583 N584 2.556 1_655 S
Gd583 O615 2.386 1_655 S
Gd583 O619 2.315 . S
Gd583 O622 2.353 . S
Gd583 O623 2.468 . S
Gd583 O624 2.427 . S
Gd583 O626 2.388 . S
Gd583 C647 2.805 . S
N584 C574 1.376 . S
N584 Gd583 2.556 1_455 S
N584 C586 1.349 . S
C585 C573 1.422 . S
C585 C587 1.321 . S
C585 H593 0.931 . S
C586 N584 1.349 . S
C586 C587 1.390 . S
C586 H588 0.931 1_455 S
C587 C585 1.321 . S
C587 C586 1.390 . S
C587 H589 0.930 . S
H588 C586 0.931 1_655 S
H589 C587 0.930 . S
H590 C613 0.931 . S
H591 C579 0.929 . S
H592 C614 0.930 . S
H593 C585 0.931 . S
H594 C575 0.930 . S
H595 C604 0.929 . S
H596 C580 0.931 . S
H597 C581 0.926 1_655 S
H598 C636 0.930 . S
H599 C577 0.929 . S
H600 C605 0.931 . S
H601 C606 0.930 . S
N602 Gd582 2.622 . S
N602 C603 1.369 . S
N602 C604 1.338 . S
C603 N602 1.369 . S
C603 C607 1.415 1_455 S
C603 C610 1.422 . S
C604 H595 0.929 . S
C604 N602 1.338 . S
C604 C606 1.378 . S
C605 H600 0.931 . S
C605 C606 1.348 1_655 S
C605 C607 1.413 . S
C606 H601 0.930 . S
C606 C604 1.378 . S
C606 C605 1.348 1_455 S
C607 C603 1.415 1_655 S
C607 C605 1.413 . S
C607 C637 1.437 . S
H608 C637 0.929 . S
N609 Gd582 2.570 . S
N609 C610 1.359 . S
N609 C613 1.343 . S
C610 C603 1.422 . S
C610 N609 1.359 . S
C610 C612 1.421 1_455 S
C611 C612 1.422 . S
C611 C614 1.321 . S
C611 H638 0.931 . S
C612 C610 1.421 1_655 S
C612 C611 1.422 . S
C612 C636 1.417 . S
C613 H590 0.931 . S
C613 N609 1.343 . S
C613 C614 1.390 1_455 S
C614 H592 0.930 . S
C614 C611 1.321 . S
C614 C613 1.390 1_655 S
O615 Gd583 2.386 1_455 S
O615 C627 1.265 . S
O616 Gd582 2.353 . S
O616 C627 1.242 . S
O617 Gd582 2.468 . S
O617 C635 1.263 . S
O618 Gd582 2.427 . S
O618 C635 1.252 . S
O619 Gd583 2.315 . S
O619 C628 1.256 1_655 S
O620 Gd582 2.388 . S
O620 C628 1.252 . S
O621 Gd582 2.386 1_655 S
O621 C639 1.265 . S
O622 Gd583 2.353 . S
O622 C639 1.242 . S
O623 Gd583 2.468 . S
O623 C647 1.263 . S
O624 Gd583 2.427 . S
O624 C647 1.252 . S
O625 Gd582 2.307 . S
O625 C640 1.261 . S
O626 Gd583 2.388 . S
O626 C640 1.252 1_655 S
C627 O615 1.265 . S
C627 O616 1.242 . S
C628 O619 1.256 1_455 S
C628 O620 1.252 . S
C629 C632 1.394 . S
C629 C634 1.370 . S
C629 C635 1.500 . S
C630 C633 1.383 . S
C630 C634 1.395 . S
C631 C632 1.396 . S
C631 C633 1.365 . S
C631 H648 0.929 . S
C632 C629 1.394 . S
C632 C631 1.396 . S
C632 H649 0.930 . S
C633 C630 1.383 . S
C633 C631 1.365 . S
C633 H650 0.931 . S
C634 C629 1.370 . S
C634 C630 1.395 . S
C634 H651 0.930 . S
C635 Gd582 2.805 . S
C635 O617 1.263 . S
C635 O618 1.252 . S
C635 C629 1.500 . S
C636 H598 0.930 . S
C636 C612 1.417 . S
C636 C637 1.329 . S
C637 C607 1.437 . S
C637 H608 0.929 . S
C637 C636 1.329 . S
H638 C611 0.931 . S
C639 O621 1.265 . S
C639 O622 1.242 . S
C640 O625 1.261 . S
C640 O626 1.252 1_455 S
C641 C644 1.394 . S
C641 C646 1.370 . S
C641 C647 1.500 . S
C642 C645 1.383 . S
C642 C646 1.395 . S
C643 C644 1.396 . S
C643 C645 1.365 . S
C643 H652 0.929 . S
C644 C641 1.394 . S
C644 C643 1.396 . S
C644 H653 0.930 . S
C645 C642 1.383 . S
C645 C643 1.365 . S
C645 H654 0.931 . S
C646 C641 1.370 . S
C646 C642 1.395 . S
C646 H655 0.930 . S
C647 Gd583 2.805 . S
C647 O623 1.263 . S
C647 O624 1.252 . S
C647 C641 1.500 . S
H648 C631 0.929 . S
H649 C632 0.930 . S
H650 C633 0.931 . S
H651 C634 0.930 . S
H652 C643 0.929 . S
H653 C644 0.930 . S
H654 C645 0.931 . S
H655 C646 0.930 . S
C656 C657 1.391 . S
C656 C658 1.394 . S
C656 H672 0.931 . S
C657 C656 1.391 . S
C657 C661 1.376 . S
C658 C656 1.394 . S
C658 C659 1.369 . S
C658 C662 1.531 . S
C659 C658 1.369 . S
C659 C660 1.410 . S
C659 C667 1.503 . S
C660 C659 1.410 . S
C660 C661 1.392 . S
C660 C663 1.511 . S
C661 C657 1.376 . S
C661 C660 1.392 . S
C661 H673 0.929 . S
C662 C658 1.531 . S
C662 H674 0.960 . S
C662 H675 0.962 . S
C662 H676 0.960 . S
C663 C660 1.511 . S
C663 H677 0.961 1_545 S
C663 H678 0.961 1_545 S
C663 H679 0.961 . S
C664 C665 1.370 . S
C664 C666 1.363 . S
C664 H680 0.931 . S
C665 C664 1.370 . S
C665 C669 1.408 . S
C666 C664 1.363 . S
C666 C667 1.370 . S
C666 C670 1.524 . S
C667 C659 1.503 . S
C667 C666 1.370 . S
C667 C668 1.403 . S
C668 C667 1.403 . S
C668 C669 1.404 . S
C668 C671 1.539 . S
C669 C665 1.408 . S
C669 C668 1.404 . S
C669 H681 0.930 . S
C670 C666 1.524 . S
C670 H682 0.956 . S
C670 H683 0.961 . S
C670 H684 0.961 1_545 S
C671 C668 1.539 . S
C671 H685 0.958 . S
C671 H686 0.961 . S
C671 H687 0.960 . S
H672 C656 0.931 . S
H673 C661 0.929 . S
H674 C662 0.960 . S
H675 C662 0.962 . S
H676 C662 0.960 . S
H677 C663 0.961 1_565 S
H678 C663 0.961 1_565 S
H679 C663 0.961 . S
H680 C664 0.931 . S
H681 C669 0.930 . S
H682 C670 0.956 . S
H683 C670 0.961 . S
H684 C670 0.961 1_565 S
H685 C671 0.958 . S
H686 C671 0.961 . S
H687 C671 0.960 . S
C688 C689 1.391 . S
C688 C690 1.394 . S
C688 H704 0.931 . S
C689 C688 1.391 . S
C689 C693 1.376 . S
C690 C688 1.394 . S
C690 C691 1.369 . S
C690 C694 1.531 . S
C691 C690 1.369 . S
C691 C692 1.410 . S
C691 C699 1.503 . S
C692 C691 1.410 . S
C692 C693 1.392 . S
C692 C695 1.511 . S
C693 C689 1.376 . S
C693 C692 1.392 . S
C693 H705 0.929 . S
C694 C690 1.531 . S
C694 H706 0.960 . S
C694 H707 0.962 . S
C694 H708 0.960 . S
C695 C692 1.511 . S
C695 H709 0.961 . S
C695 H710 0.961 . S
C695 H711 0.961 . S
C696 C697 1.370 . S
C696 C698 1.363 . S
C696 H712 0.931 . S
C697 C696 1.370 . S
C697 C701 1.408 . S
C698 C696 1.363 . S
C698 C699 1.370 . S
C698 C702 1.524 . S
C699 C691 1.503 . S
C699 C698 1.370 . S
C699 C700 1.403 . S
C700 C699 1.403 . S
C700 C701 1.404 . S
C700 C703 1.539 . S
C701 C697 1.408 . S
C701 C700 1.404 . S
C701 H713 0.930 . S
C702 C698 1.524 . S
C702 H714 0.956 . S
C702 H715 0.961 . S
C702 H716 0.961 . S
C703 C700 1.539 . S
C703 H717 0.958 . S
C703 H718 0.961 . S
C703 H719 0.960 . S
H704 C688 0.931 . S
H705 C693 0.929 . S
H706 C694 0.960 . S
H707 C694 0.962 . S
H708 C694 0.960 . S
H709 C695 0.961 . S
H710 C695 0.961 . S
H711 C695 0.961 . S
H712 C696 0.931 . S
H713 C701 0.930 . S
H714 C702 0.956 . S
H715 C702 0.961 . S
H716 C702 0.961 . S
H717 C703 0.958 . S
H718 C703 0.961 . S
H719 C703 0.960 . S
C720 C721 1.391 . S
C720 C722 1.394 . S
C720 H736 0.931 . S
C721 C720 1.391 . S
C721 C725 1.376 . S
C722 C720 1.394 . S
C722 C723 1.369 . S
C722 C726 1.531 . S
C723 C722 1.369 . S
C723 C724 1.410 . S
C723 C731 1.503 . S
C724 C723 1.410 . S
C724 C725 1.392 . S
C724 C727 1.511 . S
C725 C721 1.376 . S
C725 C724 1.392 . S
C725 H737 0.929 . S
C726 C722 1.531 . S
C726 H738 0.960 . S
C726 H739 0.962 . S
C726 H740 0.960 . S
C727 C724 1.511 . S
C727 H741 0.961 . S
C727 H742 0.961 . S
C727 H743 0.961 . S
C728 C729 1.370 . S
C728 C730 1.363 . S
C728 H744 0.931 . S
C729 C728 1.370 . S
C729 C733 1.408 . S
C730 C728 1.363 . S
C730 C731 1.370 . S
C730 C734 1.524 . S
C731 C723 1.503 . S
C731 C730 1.370 . S
C731 C732 1.403 . S
C732 C731 1.403 . S
C732 C733 1.404 . S
C732 C735 1.539 . S
C733 C729 1.408 . S
C733 C732 1.404 . S
C733 H745 0.930 . S
C734 C730 1.524 . S
C734 H746 0.956 . S
C734 H747 0.961 . S
C734 H748 0.961 . S
C735 C732 1.539 . S
C735 H749 0.958 . S
C735 H750 0.961 . S
C735 H751 0.960 . S
H736 C720 0.931 . S
H737 C725 0.929 . S
H738 C726 0.960 . S
H739 C726 0.962 . S
H740 C726 0.960 . S
H741 C727 0.961 . S
H742 C727 0.961 . S
H743 C727 0.961 . S
H744 C728 0.931 . S
H745 C733 0.930 . S
H746 C734 0.956 . S
H747 C734 0.961 . S
H748 C734 0.961 . S
H749 C735 0.958 . S
H750 C735 0.961 . S
H751 C735 0.960 . S
C752 C753 1.391 . S
C752 C754 1.394 . S
C752 H768 0.931 . S
C753 C752 1.391 . S
C753 C757 1.376 . S
C754 C752 1.394 . S
C754 C755 1.369 . S
C754 C758 1.531 1_455 S
C755 C754 1.369 . S
C755 C756 1.410 . S
C755 C763 1.503 . S
C756 C755 1.410 . S
C756 C757 1.392 . S
C756 C759 1.511 . S
C757 C753 1.376 . S
C757 C756 1.392 . S
C757 H769 0.929 . S
C758 C754 1.531 1_655 S
C758 H770 0.960 . S
C758 H771 0.962 1_655 S
C758 H772 0.960 . S
C759 C756 1.511 . S
C759 H773 0.961 . S
C759 H774 0.961 . S
C759 H775 0.961 . S
C760 C761 1.370 . S
C760 C762 1.363 . S
C760 H776 0.931 . S
C761 C760 1.370 . S
C761 C765 1.408 . S
C762 C760 1.363 . S
C762 C763 1.370 . S
C762 C766 1.524 . S
C763 C755 1.503 . S
C763 C762 1.370 . S
C763 C764 1.403 . S
C764 C763 1.403 . S
C764 C765 1.404 . S
C764 C767 1.539 1_455 S
C765 C761 1.408 . S
C765 C764 1.404 . S
C765 H777 0.930 1_455 S
C766 C762 1.524 . S
C766 H778 0.956 . S
C766 H779 0.961 . S
C766 H780 0.961 . S
C767 C764 1.539 1_655 S
C767 H781 0.958 . S
C767 H782 0.961 . S
C767 H783 0.960 1_655 S
H768 C752 0.931 . S
H769 C757 0.929 . S
H770 C758 0.960 . S
H771 C758 0.962 1_455 S
H772 C758 0.960 . S
H773 C759 0.961 . S
H774 C759 0.961 . S
H775 C759 0.961 . S
H776 C760 0.931 . S
H777 C765 0.930 1_655 S
H778 C766 0.956 . S
H779 C766 0.961 . S
H780 C766 0.961 . S
H781 C767 0.958 . S
H782 C767 0.961 . S
H783 C767 0.960 1_455 S
C784 C785 1.391 . S
C784 C786 1.394 1_554 S
C784 H800 0.931 . S
C785 C784 1.391 . S
C785 C789 1.376 . S
C786 C784 1.394 1_556 S
C786 C787 1.369 . S
C786 C790 1.531 1_565 S
C787 C786 1.369 . S
C787 C788 1.410 . S
C787 C795 1.503 . S
C788 C787 1.410 . S
C788 C789 1.392 1_556 S
C788 C791 1.511 . S
C789 C785 1.376 . S
C789 C788 1.392 1_554 S
C789 H801 0.929 . S
C790 C786 1.531 1_545 S
C790 H802 0.960 . S
C790 H803 0.962 . S
C790 H804 0.960 . S
C791 C788 1.511 . S
C791 H805 0.961 . S
C791 H806 0.961 . S
C791 H807 0.961 . S
C792 C793 1.370 . S
C792 C794 1.363 . S
C792 H808 0.931 . S
C793 C792 1.370 . S
C793 C797 1.408 1_565 S
C794 C792 1.363 . S
C794 C795 1.370 . S
C794 C798 1.524 . S
C795 C787 1.503 . S
C795 C794 1.370 . S
C795 C796 1.403 1_565 S
C796 C795 1.403 1_545 S
C796 C797 1.404 . S
C796 C799 1.539 . S
C797 C793 1.408 1_545 S
C797 C796 1.404 . S
C797 H809 0.930 . S
C798 C794 1.524 . S
C798 H810 0.956 . S
C798 H811 0.961 . S
C798 H812 0.961 . S
C799 C796 1.539 . S
C799 H813 0.958 . S
C799 H814 0.961 . S
C799 H815 0.960 . S
H800 C784 0.931 . S
H801 C789 0.929 . S
H802 C790 0.960 . S
H803 C790 0.962 . S
H804 C790 0.960 . S
H805 C791 0.961 . S
H806 C791 0.961 . S
H807 C791 0.961 . S
H808 C792 0.931 . S
H809 C797 0.930 . S
H810 C798 0.956 . S
H811 C798 0.961 . S
H812 C798 0.961 . S
H813 C799 0.958 . S
H814 C799 0.961 . S
H815 C799 0.960 . S
C816 C817 1.391 . S
C816 C818 1.394 1_554 S
C816 H832 0.931 . S
C817 C816 1.391 . S
C817 C821 1.376 . S
C818 C816 1.394 1_556 S
C818 C819 1.369 . S
C818 C822 1.531 . S
C819 C818 1.369 . S
C819 C820 1.410 . S
C819 C827 1.503 . S
C820 C819 1.410 . S
C820 C821 1.392 1_556 S
C820 C823 1.511 . S
C821 C817 1.376 . S
C821 C820 1.392 1_554 S
C821 H833 0.929 . S
C822 C818 1.531 . S
C822 H834 0.960 . S
C822 H835 0.962 . S
C822 H836 0.960 1_556 S
C823 C820 1.511 . S
C823 H837 0.961 . S
C823 H838 0.961 . S
C823 H839 0.961 . S
C824 C825 1.370 . S
C824 C826 1.363 . S
C824 H840 0.931 . S
C825 C824 1.370 . S
C825 C829 1.408 . S
C826 C824 1.363 . S
C826 C827 1.370 . S
C826 C830 1.524 . S
C827 C819 1.503 . S
C827 C826 1.370 . S
C827 C828 1.403 . S
C828 C827 1.403 . S
C828 C829 1.404 . S
C828 C831 1.539 . S
C829 C825 1.408 . S
C829 C828 1.404 . S
C829 H841 0.930 . S
C830 C826 1.524 . S
C830 H842 0.956 . S
C830 H843 0.961 . S
C830 H844 0.961 . S
C831 C828 1.539 . S
C831 H845 0.958 . S
C831 H846 0.961 . S
C831 H847 0.960 . S
H832 C816 0.931 . S
H833 C821 0.929 . S
H834 C822 0.960 . S
H835 C822 0.962 . S
H836 C822 0.960 1_554 S
H837 C823 0.961 . S
H838 C823 0.961 . S
H839 C823 0.961 . S
H840 C824 0.931 . S
H841 C829 0.930 . S
H842 C830 0.956 . S
H843 C830 0.961 . S
H844 C830 0.961 . S
H845 C831 0.958 . S
H846 C831 0.961 . S
H847 C831 0.960 . S
C848 C849 1.391 . S
C848 C850 1.394 1_554 S
C848 H864 0.931 . S
C849 C848 1.391 . S
C849 C853 1.376 . S
C850 C848 1.394 1_556 S
C850 C851 1.369 . S
C850 C854 1.531 . S
C851 C850 1.369 . S
C851 C852 1.410 . S
C851 C859 1.503 . S
C852 C851 1.410 . S
C852 C853 1.392 1_556 S
C852 C855 1.511 . S
C853 C849 1.376 . S
C853 C852 1.392 1_554 S
C853 H865 0.929 . S
C854 C850 1.531 . S
C854 H866 0.960 . S
C854 H867 0.962 . S
C854 H868 0.960 . S
C855 C852 1.511 . S
C855 H869 0.961 . S
C855 H870 0.961 . S
C855 H871 0.961 . S
C856 C857 1.370 . S
C856 C858 1.363 . S
C856 H872 0.931 . S
C857 C856 1.370 . S
C857 C861 1.408 . S
C858 C856 1.363 . S
C858 C859 1.370 . S
C858 C862 1.524 . S
C859 C851 1.503 . S
C859 C858 1.370 . S
C859 C860 1.403 . S
C860 C859 1.403 . S
C860 C861 1.404 . S
C860 C863 1.539 . S
C861 C857 1.408 . S
C861 C860 1.404 . S
C861 H873 0.930 . S
C862 C858 1.524 . S
C862 H874 0.956 . S
C862 H875 0.961 . S
C862 H876 0.961 . S
C863 C860 1.539 . S
C863 H877 0.958 . S
C863 H878 0.961 . S
C863 H879 0.960 . S
H864 C848 0.931 . S
H865 C853 0.929 . S
H866 C854 0.960 . S
H867 C854 0.962 . S
H868 C854 0.960 . S
H869 C855 0.961 . S
H870 C855 0.961 . S
H871 C855 0.961 . S
H872 C856 0.931 . S
H873 C861 0.930 . S
H874 C862 0.956 . S
H875 C862 0.961 . S
H876 C862 0.961 . S
H877 C863 0.958 . S
H878 C863 0.961 . S
H879 C863 0.960 . S
C880 C881 1.391 . S
C880 C882 1.394 1_554 S
C880 H896 0.931 . S
C881 C880 1.391 . S
C881 C885 1.376 . S
C882 C880 1.394 1_556 S
C882 C883 1.369 . S
C882 C886 1.531 . S
C883 C882 1.369 . S
C883 C884 1.410 . S
C883 C891 1.503 . S
C884 C883 1.410 . S
C884 C885 1.392 1_556 S
C884 C887 1.500 1_655 S
C885 C881 1.376 . S
C885 C884 1.392 1_554 S
C885 H897 0.929 . S
C886 C882 1.531 . S
C886 H898 0.960 . S
C886 H899 0.962 . S
C886 H900 0.960 . S
C887 C884 1.500 1_455 S
C887 H901 0.954 1_456 S
C887 H902 0.955 1_455 S
C887 H903 0.985 . S
C888 C889 1.370 . S
C888 C890 1.363 . S
C888 H904 0.931 . S
C889 C888 1.370 . S
C889 C893 1.408 1_655 S
C890 C888 1.363 . S
C890 C891 1.370 . S
C890 C894 1.524 . S
C891 C883 1.503 . S
C891 C890 1.370 . S
C891 C892 1.403 1_655 S
C892 C891 1.403 1_455 S
C892 C893 1.404 . S
C892 C895 1.539 . S
C893 C889 1.408 1_455 S
C893 C892 1.404 . S
C893 H905 0.930 . S
C894 C890 1.524 . S
C894 H906 0.956 . S
C894 H907 0.961 . S
C894 H908 0.961 . S
C895 C892 1.539 . S
C895 H909 0.958 . S
C895 H910 0.961 . S
C895 H911 0.960 . S
H896 C880 0.931 . S
H897 C885 0.929 . S
H898 C886 0.960 . S
H899 C886 0.962 . S
H900 C886 0.960 . S
H901 C887 0.954 1_654 S
H902 C887 0.955 1_655 S
H903 C887 0.985 . S
H904 C888 0.931 . S
H905 C893 0.930 . S
H906 C894 0.956 . S
H907 C894 0.961 . S
H908 C894 0.961 . S
H909 C895 0.958 . S
H910 C895 0.961 . S
H911 C895 0.960 . S
C912 C913 1.391 . S
C912 C914 1.394 . S
C912 H928 0.931 . S
C913 C912 1.391 . S
C913 C917 1.376 . S
C914 C912 1.394 . S
C914 C915 1.369 . S
C914 C918 1.531 . S
C915 C914 1.369 . S
C915 C916 1.410 . S
C915 C923 1.503 . S
C916 C915 1.410 . S
C916 C917 1.392 . S
C916 C919 1.511 1_455 S
C917 C913 1.376 . S
C917 C916 1.392 . S
C917 H929 0.929 . S
C918 C914 1.531 . S
C918 H930 0.960 . S
C918 H931 0.962 . S
C918 H932 0.960 . S
C919 C916 1.511 1_655 S
C919 H933 0.961 . S
C919 H934 0.961 . S
C919 H935 0.961 . S
C920 C921 1.379 . S
C920 C922 1.363 . S
C920 H936 0.931 . S
C921 C920 1.379 . S
C921 C925 1.406 1_455 S
C922 C920 1.363 . S
C922 C923 1.370 . S
C922 C926 1.524 . S
C923 C915 1.503 . S
C923 C922 1.370 . S
C923 C924 1.403 . S
C924 C923 1.403 . S
C924 C925 1.404 1_455 S
C924 C927 1.539 1_455 S
C925 C921 1.406 1_655 S
C925 C924 1.404 1_655 S
C925 H937 0.930 . S
C926 C922 1.524 . S
C926 H938 0.956 . S
C926 H939 0.961 . S
C926 H940 0.961 . S
C927 C924 1.539 1_655 S
C927 H941 0.958 1_655 S
C927 H942 0.961 . S
C927 H943 0.960 1_655 S
H928 C912 0.931 . S
H929 C917 0.929 . S
H930 C918 0.960 . S
H931 C918 0.962 . S
H932 C918 0.960 . S
H933 C919 0.961 . S
H934 C919 0.961 . S
H935 C919 0.961 . S
H936 C920 0.931 . S
H937 C925 0.930 . S
H938 C926 0.956 . S
H939 C926 0.961 . S
H940 C926 0.961 . S
H941 C927 0.958 1_455 S
H942 C927 0.961 . S
H943 C927 0.960 1_455 S
C944 C945 1.391 . S
C944 C946 1.394 . S
C944 H960 0.931 . S
C945 C944 1.391 . S
C945 C949 1.376 . S
C946 C944 1.394 . S
C946 C947 1.369 . S
C946 C950 1.531 . S
C947 C946 1.369 . S
C947 C948 1.410 . S
C947 C955 1.503 . S
C948 C947 1.410 . S
C948 C949 1.392 . S
C948 C951 1.511 . S
C949 C945 1.376 . S
C949 C948 1.392 . S
C949 H961 0.929 . S
C950 C946 1.531 . S
C950 H962 0.960 . S
C950 H963 0.962 . S
C950 H964 0.960 . S
C951 C948 1.511 . S
C951 H965 0.961 . S
C951 H966 0.961 . S
C951 H967 0.961 . S
C952 C953 1.370 1_565 S
C952 C954 1.363 1_565 S
C952 H968 0.931 . S
C953 C952 1.370 1_545 S
C953 C957 1.408 . S
C954 C952 1.363 1_545 S
C954 C955 1.370 . S
C954 C958 1.524 1_545 S
C955 C947 1.503 . S
C955 C954 1.370 . S
C955 C956 1.403 . S
C956 C955 1.403 . S
C956 C957 1.404 . S
C956 C959 1.539 . S
C957 C953 1.408 . S
C957 C956 1.404 . S
C957 H969 0.930 . S
C958 C954 1.524 1_565 S
C958 H970 0.956 1_565 S
C958 H971 0.961 . S
C958 H972 0.961 . S
C959 C956 1.539 . S
C959 H973 0.958 . S
C959 H974 0.961 . S
C959 H975 0.960 . S
H960 C944 0.931 . S
H961 C949 0.929 . S
H962 C950 0.960 . S
H963 C950 0.962 . S
H964 C950 0.960 . S
H965 C951 0.961 . S
H966 C951 0.961 . S
H967 C951 0.961 . S
H968 C952 0.931 . S
H969 C957 0.930 . S
H970 C958 0.956 1_545 S
H971 C958 0.961 . S
H972 C958 0.961 . S
H973 C959 0.958 . S
H974 C959 0.961 . S
H975 C959 0.960 . S
C976 C977 1.391 . S
C976 C978 1.394 . S
C976 H992 0.931 . S
C977 C976 1.391 . S
C977 C981 1.376 . S
C978 C976 1.394 . S
C978 C979 1.369 . S
C978 C982 1.531 . S
C979 C978 1.369 . S
C979 C980 1.410 . S
C979 C987 1.503 . S
C980 C979 1.410 . S
C980 C981 1.392 . S
C980 C983 1.511 . S
C981 C977 1.376 . S
C981 C980 1.392 . S
C981 H993 0.929 . S
C982 C978 1.531 . S
C982 H994 0.960 . S
C982 H995 0.962 . S
C982 H996 0.960 . S
C983 C980 1.511 . S
C983 H997 0.961 . S
C983 H998 0.961 . S
C983 H999 0.961 . S
C984 C985 1.370 . S
C984 C986 1.363 . S
C984 H1000 0.931 . S
C985 C984 1.370 . S
C985 C989 1.408 . S
C986 C984 1.363 . S
C986 C987 1.370 . S
C986 C990 1.524 . S
C987 C979 1.503 . S
C987 C986 1.370 . S
C987 C988 1.403 . S
C988 C987 1.403 . S
C988 C989 1.404 . S
C988 C991 1.539 . S
C989 C985 1.408 . S
C989 C988 1.404 . S
C989 H1001 0.930 . S
C990 C986 1.524 . S
C990 H1002 0.956 . S
C990 H1003 0.961 . S
C990 H1004 0.961 . S
C991 C988 1.539 . S
C991 H1005 0.958 . S
C991 H1006 0.961 . S
C991 H1007 0.960 . S
H992 C976 0.931 . S
H993 C981 0.929 . S
H994 C982 0.960 . S
H995 C982 0.962 . S
H996 C982 0.960 . S
H997 C983 0.961 . S
H998 C983 0.961 . S
H999 C983 0.961 . S
H1000 C984 0.931 . S
H1001 C989 0.930 . S
H1002 C990 0.956 . S
H1003 C990 0.961 . S
H1004 C990 0.961 . S
H1005 C991 0.958 . S
H1006 C991 0.961 . S
H1007 C991 0.960 . S
C1008 C1009 1.391 . S
C1008 C1010 1.394 . S
C1008 H1024 0.931 . S
C1009 C1008 1.391 . S
C1009 C1013 1.376 . S
C1010 C1008 1.394 . S
C1010 C1011 1.369 . S
C1010 C1014 1.531 . S
C1011 C1010 1.369 . S
C1011 C1012 1.410 . S
C1011 C1019 1.503 . S
C1012 C1011 1.410 . S
C1012 C1013 1.392 . S
C1012 C1015 1.511 . S
C1013 C1009 1.376 . S
C1013 C1012 1.392 . S
C1013 H1025 0.929 . S
C1014 C1010 1.531 . S
C1014 H1026 0.960 . S
C1014 H1027 0.962 . S
C1014 H1028 0.960 . S
C1015 C1012 1.511 . S
C1015 H1029 0.961 . S
C1015 H1030 0.961 . S
C1015 H1031 0.961 . S
C1016 C1017 1.370 . S
C1016 C1018 1.363 . S
C1016 H1032 0.931 . S
C1017 C1016 1.370 . S
C1017 C1021 1.408 . S
C1018 C1016 1.363 . S
C1018 C1019 1.370 . S
C1018 C1022 1.524 . S
C1019 C1011 1.503 . S
C1019 C1018 1.370 . S
C1019 C1020 1.403 . S
C1020 C1019 1.403 . S
C1020 C1021 1.404 . S
C1020 C1023 1.539 . S
C1021 C1017 1.408 . S
C1021 C1020 1.404 . S
C1021 H1033 0.930 . S
C1022 C1018 1.524 . S
C1022 H1034 0.956 . S
C1022 H1035 0.961 . S
C1022 H1036 0.961 . S
C1023 C1020 1.539 . S
C1023 H1037 0.958 . S
C1023 H1038 0.961 . S
C1023 H1039 0.960 . S
H1024 C1008 0.931 . S
H1025 C1013 0.929 . S
H1026 C1014 0.960 . S
H1027 C1014 0.962 . S
H1028 C1014 0.960 . S
H1029 C1015 0.961 . S
H1030 C1015 0.961 . S
H1031 C1015 0.961 . S
H1032 C1016 0.931 . S
H1033 C1021 0.930 . S
H1034 C1022 0.956 . S
H1035 C1022 0.961 . S
H1036 C1022 0.961 . S
H1037 C1023 0.958 . S
H1038 C1023 0.961 . S
H1039 C1023 0.960 . S
C1040 C1041 1.391 . S
C1040 C1042 1.394 . S
C1040 H1056 0.931 . S
C1041 C1040 1.391 . S
C1041 C1045 1.376 . S
C1042 C1040 1.394 . S
C1042 C1043 1.369 . S
C1042 C1046 1.531 1_655 S
C1043 C1042 1.369 . S
C1043 C1044 1.410 . S
C1043 C1051 1.503 . S
C1044 C1043 1.410 . S
C1044 C1045 1.392 . S
C1044 C1047 1.511 . S
C1045 C1041 1.376 . S
C1045 C1044 1.392 . S
C1045 H1057 0.929 . S
C1046 C1042 1.531 1_455 S
C1046 H1058 0.960 . S
C1046 H1059 0.962 . S
C1046 H1060 0.960 . S
C1047 C1044 1.511 . S
C1047 H1061 0.961 . S
C1047 H1062 0.961 . S
C1047 H1063 0.961 . S
C1048 C1049 1.370 . S
C1048 C1050 1.363 . S
C1048 H1064 0.931 . S
C1049 C1048 1.370 . S
C1049 C1053 1.408 1_455 S
C1050 C1048 1.363 . S
C1050 C1051 1.370 1_455 S
C1050 C1054 1.524 . S
C1051 C1043 1.503 . S
C1051 C1050 1.370 1_655 S
C1051 C1052 1.403 . S
C1052 C1051 1.403 . S
C1052 C1053 1.404 . S
C1052 C1055 1.539 . S
C1053 C1049 1.408 1_655 S
C1053 C1052 1.404 . S
C1053 H1065 0.930 . S
C1054 C1050 1.524 . S
C1054 H1066 0.956 . S
C1054 H1067 0.961 1_455 S
C1054 H1068 0.961 . S
C1055 C1052 1.539 . S
C1055 H1069 0.958 . S
C1055 H1070 0.961 . S
C1055 H1071 0.960 . S
H1056 C1040 0.931 . S
H1057 C1045 0.929 . S
H1058 C1046 0.960 . S
H1059 C1046 0.962 . S
H1060 C1046 0.960 . S
H1061 C1047 0.961 . S
H1062 C1047 0.961 . S
H1063 C1047 0.961 . S
H1064 C1048 0.931 . S
H1065 C1053 0.930 . S
H1066 C1054 0.956 . S
H1067 C1054 0.961 1_655 S
H1068 C1054 0.961 . S
H1069 C1055 0.958 . S
H1070 C1055 0.961 . S
H1071 C1055 0.960 . S
C1072 C1073 1.391 1_554 S
C1072 C1074 1.394 1_554 S
C1072 H1088 0.931 . S
C1073 C1072 1.391 1_556 S
C1073 C1077 1.376 . S
C1074 C1072 1.394 1_556 S
C1074 C1075 1.369 . S
C1074 C1078 1.531 . S
C1075 C1074 1.369 . S
C1075 C1076 1.410 . S
C1075 C1083 1.503 . S
C1076 C1075 1.410 . S
C1076 C1077 1.392 . S
C1076 C1079 1.511 1_565 S
C1077 C1073 1.376 . S
C1077 C1076 1.392 . S
C1077 H1089 0.929 . S
C1078 C1074 1.531 . S
C1078 H1090 0.960 . S
C1078 H1091 0.962 . S
C1078 H1092 0.960 1_556 S
C1079 C1076 1.511 1_545 S
C1079 H1093 0.961 . S
C1079 H1094 0.961 . S
C1079 H1095 0.961 . S
C1080 C1081 1.370 1_565 S
C1080 C1082 1.363 . S
C1080 H1096 0.931 . S
C1081 C1080 1.370 1_545 S
C1081 C1085 1.408 . S
C1082 C1080 1.363 . S
C1082 C1083 1.370 . S
C1082 C1086 1.524 . S
C1083 C1075 1.503 . S
C1083 C1082 1.370 . S
C1083 C1084 1.403 1_565 S
C1084 C1083 1.403 1_545 S
C1084 C1085 1.404 . S
C1084 C1087 1.539 . S
C1085 C1081 1.408 . S
C1085 C1084 1.404 . S
C1085 H1097 0.930 . S
C1086 C1082 1.524 . S
C1086 H1098 0.956 . S
C1086 H1099 0.961 . S
C1086 H1100 0.961 . S
C1087 C1084 1.539 . S
C1087 H1101 0.958 1_556 S
C1087 H1102 0.961 . S
C1087 H1103 0.960 . S
H1088 C1072 0.931 . S
H1089 C1077 0.929 . S
H1090 C1078 0.960 . S
H1091 C1078 0.962 . S
H1092 C1078 0.960 1_554 S
H1093 C1079 0.961 . S
H1094 C1079 0.961 . S
H1095 C1079 0.961 . S
H1096 C1080 0.931 . S
H1097 C1085 0.930 . S
H1098 C1086 0.956 . S
H1099 C1086 0.961 . S
H1100 C1086 0.961 . S
H1101 C1087 0.958 1_554 S
H1102 C1087 0.961 . S
H1103 C1087 0.960 . S
C1104 C1105 1.391 . S
C1104 C1106 1.394 . S
C1104 H1120 0.931 1_556 S
C1105 C1104 1.391 . S
C1105 C1109 1.376 . S
C1106 C1104 1.394 . S
C1106 C1107 1.369 . S
C1106 C1110 1.531 . S
C1107 C1106 1.369 . S
C1107 C1108 1.410 . S
C1107 C1115 1.503 . S
C1108 C1107 1.410 . S
C1108 C1109 1.392 . S
C1108 C1111 1.511 . S
C1109 C1105 1.376 . S
C1109 C1108 1.392 . S
C1109 H1121 0.929 . S
C1110 C1106 1.531 . S
C1110 H1122 0.960 . S
C1110 H1123 0.962 . S
C1110 H1124 0.960 . S
C1111 C1108 1.511 . S
C1111 H1125 0.961 . S
C1111 H1126 0.961 . S
C1111 H1127 0.961 . S
C1112 C1113 1.370 . S
C1112 C1114 1.363 . S
C1112 H1128 0.931 . S
C1113 C1112 1.370 . S
C1113 C1117 1.408 . S
C1114 C1112 1.363 . S
C1114 C1115 1.370 . S
C1114 C1118 1.524 . S
C1115 C1107 1.503 . S
C1115 C1114 1.370 . S
C1115 C1116 1.403 . S
C1116 C1115 1.403 . S
C1116 C1117 1.404 . S
C1116 C1119 1.539 . S
C1117 C1113 1.408 . S
C1117 C1116 1.404 . S
C1117 H1129 0.930 . S
C1118 C1114 1.524 . S
C1118 H1130 0.956 . S
C1118 H1131 0.961 . S
C1118 H1132 0.961 . S
C1119 C1116 1.539 . S
C1119 H1133 0.958 1_556 S
C1119 H1134 0.961 . S
C1119 H1135 0.960 1_556 S
H1120 C1104 0.931 1_554 S
H1121 C1109 0.929 . S
H1122 C1110 0.960 . S
H1123 C1110 0.962 . S
H1124 C1110 0.960 . S
H1125 C1111 0.961 . S
H1126 C1111 0.961 . S
H1127 C1111 0.961 . S
H1128 C1112 0.931 . S
H1129 C1117 0.930 . S
H1130 C1118 0.956 . S
H1131 C1118 0.961 . S
H1132 C1118 0.961 . S
H1133 C1119 0.958 1_554 S
H1134 C1119 0.961 . S
H1135 C1119 0.960 1_554 S
C1136 C1137 1.391 . S
C1136 C1138 1.394 . S
C1136 H1152 0.931 . S
C1137 C1136 1.391 . S
C1137 C1141 1.376 . S
C1138 C1136 1.394 . S
C1138 C1139 1.369 . S
C1138 C1142 1.531 . S
C1139 C1138 1.369 . S
C1139 C1140 1.410 . S
C1139 C1147 1.503 . S
C1140 C1139 1.410 . S
C1140 C1141 1.392 . S
C1140 C1143 1.511 . S
C1141 C1137 1.376 . S
C1141 C1140 1.392 . S
C1141 H1153 0.929 1_556 S
C1142 C1138 1.531 . S
C1142 H1154 0.960 . S
C1142 H1155 0.962 . S
C1142 H1156 0.960 . S
C1143 C1140 1.511 . S
C1143 H1157 0.961 1_556 S
C1143 H1158 0.961 . S
C1143 H1159 0.961 . S
C1144 C1145 1.370 . S
C1144 C1146 1.363 . S
C1144 H1160 0.931 . S
C1145 C1144 1.370 . S
C1145 C1149 1.408 . S
C1146 C1144 1.363 . S
C1146 C1147 1.370 . S
C1146 C1150 1.524 . S
C1147 C1139 1.503 . S
C1147 C1146 1.370 . S
C1147 C1148 1.403 . S
C1148 C1147 1.403 . S
C1148 C1149 1.404 . S
C1148 C1151 1.539 . S
C1149 C1145 1.408 . S
C1149 C1148 1.404 . S
C1149 H1161 0.930 . S
C1150 C1146 1.524 . S
C1150 H1162 0.956 . S
C1150 H1163 0.961 . S
C1150 H1164 0.961 . S
C1151 C1148 1.539 . S
C1151 H1165 0.958 . S
C1151 H1166 0.961 . S
C1151 H1167 0.960 . S
H1152 C1136 0.931 . S
H1153 C1141 0.929 1_554 S
H1154 C1142 0.960 . S
H1155 C1142 0.962 . S
H1156 C1142 0.960 . S
H1157 C1143 0.961 1_554 S
H1158 C1143 0.961 . S
H1159 C1143 0.961 . S
H1160 C1144 0.931 . S
H1161 C1149 0.930 . S
H1162 C1150 0.956 . S
H1163 C1150 0.961 . S
H1164 C1150 0.961 . S
H1165 C1151 0.958 . S
H1166 C1151 0.961 . S
H1167 C1151 0.960 . S
C1168 C1169 1.391 . S
C1168 C1170 1.394 . S
C1168 H1184 0.931 . S
C1169 C1168 1.391 . S
C1169 C1173 1.376 . S
C1170 C1168 1.394 . S
C1170 C1171 1.369 . S
C1170 C1174 1.531 . S
C1171 C1170 1.369 . S
C1171 C1172 1.410 . S
C1171 C1179 1.503 . S
C1172 C1171 1.410 . S
C1172 C1173 1.392 . S
C1172 C1175 1.511 . S
C1173 C1169 1.376 . S
C1173 C1172 1.392 . S
C1173 H1185 0.929 . S
C1174 C1170 1.531 . S
C1174 H1186 0.960 . S
C1174 H1187 0.956 . S
C1174 H1188 0.960 . S
C1175 C1172 1.511 . S
C1175 H1189 0.961 . S
C1175 H1190 0.961 . S
C1175 H1191 0.961 . S
C1176 C1177 1.370 . S
C1176 C1178 1.363 . S
C1176 H1192 0.931 1_455 S
C1177 C1176 1.370 . S
C1177 C1181 1.408 . S
C1178 C1176 1.363 . S
C1178 C1179 1.370 . S
C1178 C1182 1.507 1_455 S
C1179 C1171 1.503 . S
C1179 C1178 1.370 . S
C1179 C1180 1.403 . S
C1180 C1179 1.403 . S
C1180 C1181 1.404 . S
C1180 C1183 1.539 . S
C1181 C1177 1.408 . S
C1181 C1180 1.404 . S
C1181 H1193 0.930 . S
C1182 C1178 1.507 1_655 S
C1182 H1194 0.969 . S
C1182 H1195 0.946 1_655 S
C1182 H1196 0.979 . S
C1183 C1180 1.539 . S
C1183 H1197 0.958 . S
C1183 H1198 0.961 . S
C1183 H1199 0.960 . S
H1184 C1168 0.931 . S
H1185 C1173 0.929 . S
H1186 C1174 0.960 . S
H1187 C1174 0.956 . S
H1188 C1174 0.960 . S
H1189 C1175 0.961 . S
H1190 C1175 0.961 . S
H1191 C1175 0.961 . S
H1192 C1176 0.931 1_655 S
H1193 C1181 0.930 . S
H1194 C1182 0.969 . S
H1195 C1182 0.946 1_455 S
H1196 C1182 0.979 . S
H1197 C1183 0.958 . S
H1198 C1183 0.961 . S
H1199 C1183 0.960 . S
C1200 C1201 1.391 . S
C1200 C1202 1.394 . S
C1200 H1216 0.931 . S
C1201 C1200 1.391 . S
C1201 C1205 1.376 . S
C1202 C1200 1.394 . S
C1202 C1203 1.369 . S
C1202 C1206 1.531 . S
C1203 C1202 1.369 . S
C1203 C1204 1.410 . S
C1203 C1211 1.503 . S
C1204 C1203 1.410 . S
C1204 C1205 1.392 . S
C1204 C1207 1.511 1_545 S
C1205 C1201 1.376 . S
C1205 C1204 1.392 . S
C1205 H1217 0.929 . S
C1206 C1202 1.531 . S
C1206 H1218 0.960 . S
C1206 H1219 0.962 . S
C1206 H1220 0.960 . S
C1207 C1204 1.511 1_565 S
C1207 H1221 0.961 . S
C1207 H1222 0.961 1_565 S
C1207 H1223 0.961 . S
C1208 C1209 1.370 . S
C1208 C1210 1.363 . S
C1208 H1224 0.931 . S
C1209 C1208 1.370 . S
C1209 C1213 1.408 . S
C1210 C1208 1.363 . S
C1210 C1211 1.370 . S
C1210 C1214 1.524 . S
C1211 C1203 1.503 . S
C1211 C1210 1.370 . S
C1211 C1212 1.403 . S
C1212 C1211 1.403 . S
C1212 C1213 1.404 . S
C1212 C1215 1.539 . S
C1213 C1209 1.408 . S
C1213 C1212 1.404 . S
C1213 H1225 0.930 . S
C1214 C1210 1.524 . S
C1214 H1226 0.956 . S
C1214 H1227 0.961 . S
C1214 H1228 0.961 . S
C1215 C1212 1.539 . S
C1215 H1229 0.958 . S
C1215 H1230 0.961 1_545 S
C1215 H1231 0.960 . S
H1216 C1200 0.931 . S
H1217 C1205 0.929 . S
H1218 C1206 0.960 . S
H1219 C1206 0.962 . S
H1220 C1206 0.960 . S
H1221 C1207 0.961 . S
H1222 C1207 0.961 1_545 S
H1223 C1207 0.961 . S
H1224 C1208 0.931 . S
H1225 C1213 0.930 . S
H1226 C1214 0.956 . S
H1227 C1214 0.961 . S
H1228 C1214 0.961 . S
H1229 C1215 0.958 . S
H1230 C1215 0.961 1_565 S
H1231 C1215 0.960 . S
C1232 C1233 1.391 . S
C1232 C1234 1.394 . S
C1232 H1248 0.931 . S
C1233 C1232 1.391 . S
C1233 C1237 1.376 . S
C1234 C1232 1.394 . S
C1234 C1235 1.369 . S
C1234 C1238 1.531 . S
C1235 C1234 1.369 . S
C1235 C1236 1.410 . S
C1235 C1243 1.503 . S
C1236 C1235 1.410 . S
C1236 C1237 1.392 . S
C1236 C1239 1.511 . S
C1237 C1233 1.376 . S
C1237 C1236 1.392 . S
C1237 H1249 0.929 . S
C1238 C1234 1.531 . S
C1238 H1250 0.960 . S
C1238 H1251 0.962 . S
C1238 H1252 0.960 . S
C1239 C1236 1.511 . S
C1239 H1253 0.961 . S
C1239 H1254 0.961 . S
C1239 H1255 0.961 . S
C1240 C1241 1.370 . S
C1240 C1242 1.363 . S
C1240 H1256 0.931 . S
C1241 C1240 1.370 . S
C1241 C1245 1.408 . S
C1242 C1240 1.363 . S
C1242 C1243 1.370 . S
C1242 C1246 1.524 . S
C1243 C1235 1.503 . S
C1243 C1242 1.370 . S
C1243 C1244 1.403 . S
C1244 C1243 1.403 . S
C1244 C1245 1.404 . S
C1244 C1247 1.539 . S
C1245 C1241 1.408 . S
C1245 C1244 1.404 . S
C1245 H1257 0.930 . S
C1246 C1242 1.524 . S
C1246 H1258 0.956 . S
C1246 H1259 0.961 . S
C1246 H1260 0.961 . S
C1247 C1244 1.539 . S
C1247 H1261 0.958 . S
C1247 H1262 0.961 . S
C1247 H1263 0.960 . S
H1248 C1232 0.931 . S
H1249 C1237 0.929 . S
H1250 C1238 0.960 . S
H1251 C1238 0.962 . S
H1252 C1238 0.960 . S
H1253 C1239 0.961 . S
H1254 C1239 0.961 . S
H1255 C1239 0.961 . S
H1256 C1240 0.931 . S
H1257 C1245 0.930 . S
H1258 C1246 0.956 . S
H1259 C1246 0.961 . S
H1260 C1246 0.961 . S
H1261 C1247 0.958 . S
H1262 C1247 0.961 . S
H1263 C1247 0.960 . S
C1264 C1265 1.391 . S
C1264 C1266 1.394 . S
C1264 H1280 0.931 . S
C1265 C1264 1.391 . S
C1265 C1269 1.376 . S
C1266 C1264 1.394 . S
C1266 C1267 1.369 . S
C1266 C1270 1.531 . S
C1267 C1266 1.369 . S
C1267 C1268 1.410 . S
C1267 C1275 1.503 . S
C1268 C1267 1.410 . S
C1268 C1269 1.392 . S
C1268 C1271 1.511 . S
C1269 C1265 1.376 . S
C1269 C1268 1.392 . S
C1269 H1281 0.929 . S
C1270 C1266 1.531 . S
C1270 H1282 0.960 . S
C1270 H1283 0.962 . S
C1270 H1284 0.960 . S
C1271 C1268 1.511 . S
C1271 H1285 0.961 . S
C1271 H1286 0.961 . S
C1271 H1287 0.961 . S
C1272 C1273 1.370 . S
C1272 C1274 1.363 . S
C1272 H1288 0.931 . S
C1273 C1272 1.370 . S
C1273 C1277 1.408 . S
C1274 C1272 1.363 . S
C1274 C1275 1.370 . S
C1274 C1278 1.524 . S
C1275 C1267 1.503 . S
C1275 C1274 1.370 . S
C1275 C1276 1.403 . S
C1276 C1275 1.403 . S
C1276 C1277 1.404 . S
C1276 C1279 1.539 . S
C1277 C1273 1.408 . S
C1277 C1276 1.404 . S
C1277 H1289 0.930 . S
C1278 C1274 1.524 . S
C1278 H1290 0.956 . S
C1278 H1291 0.961 . S
C1278 H1292 0.961 . S
C1279 C1276 1.539 . S
C1279 H1293 0.958 . S
C1279 H1294 0.961 . S
C1279 H1295 0.960 . S
H1280 C1264 0.931 . S
H1281 C1269 0.929 . S
H1282 C1270 0.960 . S
H1283 C1270 0.962 . S
H1284 C1270 0.960 . S
H1285 C1271 0.961 . S
H1286 C1271 0.961 . S
H1287 C1271 0.961 . S
H1288 C1272 0.931 . S
H1289 C1277 0.930 . S
H1290 C1278 0.956 . S
H1291 C1278 0.961 . S
H1292 C1278 0.961 . S
H1293 C1279 0.958 . S
H1294 C1279 0.961 . S
H1295 C1279 0.960 . S
C1296 C1297 1.391 . S
C1296 C1298 1.394 . S
C1296 H1312 0.931 . S
C1297 C1296 1.391 . S
C1297 C1301 1.376 . S
C1298 C1296 1.394 . S
C1298 C1299 1.369 . S
C1298 C1302 1.531 . S
C1299 C1298 1.369 . S
C1299 C1300 1.410 . S
C1299 C1307 1.503 . S
C1300 C1299 1.410 . S
C1300 C1301 1.392 . S
C1300 C1303 1.511 1_655 S
C1301 C1297 1.376 . S
C1301 C1300 1.392 . S
C1301 H1313 0.929 . S
C1302 C1298 1.531 . S
C1302 H1314 0.960 . S
C1302 H1315 0.962 . S
C1302 H1316 0.960 . S
C1303 C1300 1.511 1_455 S
C1303 H1317 0.961 . S
C1303 H1318 0.961 . S
C1303 H1319 0.961 . S
C1304 C1305 1.370 . S
C1304 C1306 1.363 . S
C1304 H1320 0.931 . S
C1305 C1304 1.370 . S
C1305 C1309 1.416 . S
C1306 C1304 1.363 . S
C1306 C1307 1.370 . S
C1306 C1310 1.524 . S
C1307 C1299 1.503 . S
C1307 C1306 1.370 . S
C1307 C1308 1.403 . S
C1308 C1307 1.403 . S
C1308 C1309 1.405 . S
C1308 C1311 1.539 1_655 S
C1309 C1305 1.416 . S
C1309 C1308 1.405 . S
C1309 H1321 0.921 1_655 S
C1310 C1306 1.524 . S
C1310 H1322 0.956 . S
C1310 H1323 0.961 . S
C1310 H1324 0.961 . S
C1311 C1308 1.539 1_455 S
C1311 H1325 0.958 . S
C1311 H1326 0.961 . S
C1311 H1327 0.960 . S
H1312 C1296 0.931 . S
H1313 C1301 0.929 . S
H1314 C1302 0.960 . S
H1315 C1302 0.962 . S
H1316 C1302 0.960 . S
H1317 C1303 0.961 . S
H1318 C1303 0.961 . S
H1319 C1303 0.961 . S
H1320 C1304 0.931 . S
H1321 C1309 0.921 1_455 S
H1322 C1310 0.956 . S
H1323 C1310 0.961 . S
H1324 C1310 0.961 . S
H1325 C1311 0.958 . S
H1326 C1311 0.961 . S
H1327 C1311 0.960 . S
C1328 C1329 1.391 . S
C1328 C1330 1.394 . S
C1328 H1344 0.931 . S
C1329 C1328 1.391 . S
C1329 C1333 1.376 . S
C1330 C1328 1.394 . S
C1330 C1331 1.369 . S
C1330 C1334 1.531 . S
C1331 C1330 1.369 . S
C1331 C1332 1.410 . S
C1331 C1339 1.503 . S
C1332 C1331 1.410 . S
C1332 C1333 1.392 . S
C1332 C1335 1.511 . S
C1333 C1329 1.376 . S
C1333 C1332 1.392 . S
C1333 H1345 0.929 . S
C1334 C1330 1.531 . S
C1334 H1346 0.960 1_565 S
C1334 H1347 0.962 . S
C1334 H1348 0.934 1_565 S
C1335 C1332 1.511 . S
C1335 H1349 0.961 . S
C1335 H1350 0.961 . S
C1335 H1351 0.961 . S
C1336 C1337 1.370 . S
C1336 C1338 1.363 . S
C1336 H1352 0.931 . S
C1337 C1336 1.370 . S
C1337 C1341 1.408 1_565 S
C1338 C1336 1.363 . S
C1338 C1339 1.370 . S
C1338 C1342 1.524 . S
C1339 C1331 1.503 . S
C1339 C1338 1.370 . S
C1339 C1340 1.403 1_565 S
C1340 C1339 1.403 1_545 S
C1340 C1341 1.404 . S
C1340 C1343 1.539 . S
C1341 C1337 1.408 1_545 S
C1341 C1340 1.404 . S
C1341 H1353 0.930 . S
C1342 C1338 1.524 . S
C1342 H1354 0.956 . S
C1342 H1355 0.961 . S
C1342 H1356 0.961 . S
C1343 C1340 1.539 . S
C1343 H1357 0.958 . S
C1343 H1358 0.961 . S
C1343 H1359 0.960 . S
H1344 C1328 0.931 . S
H1345 C1333 0.929 . S
H1346 C1334 0.960 1_545 S
H1347 C1334 0.962 . S
H1348 C1334 0.934 1_545 S
H1349 C1335 0.961 . S
H1350 C1335 0.961 . S
H1351 C1335 0.961 . S
H1352 C1336 0.931 . S
H1353 C1341 0.930 . S
H1354 C1342 0.956 . S
H1355 C1342 0.961 . S
H1356 C1342 0.961 . S
H1357 C1343 0.958 . S
H1358 C1343 0.961 . S
H1359 C1343 0.960 . S
C1360 C1361 1.391 . S
C1360 C1362 1.394 . S
C1360 H1376 0.931 . S
C1361 C1360 1.391 . S
C1361 C1365 1.376 . S
C1362 C1360 1.394 . S
C1362 C1363 1.369 . S
C1362 C1366 1.531 . S
C1363 C1362 1.369 . S
C1363 C1364 1.410 . S
C1363 C1371 1.503 . S
C1364 C1363 1.410 . S
C1364 C1365 1.392 . S
C1364 C1367 1.511 . S
C1365 C1361 1.376 . S
C1365 C1364 1.392 . S
C1365 H1377 0.929 . S
C1366 C1362 1.531 . S
C1366 H1378 0.960 . S
C1366 H1379 0.962 . S
C1366 H1380 0.960 . S
C1367 C1364 1.511 . S
C1367 H1381 0.961 . S
C1367 H1382 0.961 . S
C1367 H1383 0.961 . S
C1368 C1369 1.370 . S
C1368 C1370 1.363 . S
C1368 H1384 0.931 . S
C1369 C1368 1.370 . S
C1369 C1373 1.408 . S
C1370 C1368 1.363 . S
C1370 C1371 1.370 . S
C1370 C1374 1.524 . S
C1371 C1363 1.503 . S
C1371 C1370 1.370 . S
C1371 C1372 1.403 . S
C1372 C1371 1.403 . S
C1372 C1373 1.404 . S
C1372 C1375 1.539 . S
C1373 C1369 1.408 . S
C1373 C1372 1.404 . S
C1373 H1385 0.930 . S
C1374 C1370 1.524 . S
C1374 H1386 0.956 . S
C1374 H1387 0.961 . S
C1374 H1388 0.961 . S
C1375 C1372 1.539 . S
C1375 H1389 0.958 . S
C1375 H1390 0.961 . S
C1375 H1391 0.960 . S
H1376 C1360 0.931 . S
H1377 C1365 0.929 . S
H1378 C1366 0.960 . S
H1379 C1366 0.962 . S
H1380 C1366 0.960 . S
H1381 C1367 0.961 . S
H1382 C1367 0.961 . S
H1383 C1367 0.961 . S
H1384 C1368 0.931 . S
H1385 C1373 0.930 . S
H1386 C1374 0.956 . S
H1387 C1374 0.961 . S
H1388 C1374 0.961 . S
H1389 C1375 0.958 . S
H1390 C1375 0.961 . S
H1391 C1375 0.960 . S
C1392 C1393 1.391 . S
C1392 C1394 1.394 . S
C1392 H1408 0.931 . S
C1393 C1392 1.391 . S
C1393 C1397 1.376 . S
C1394 C1392 1.394 . S
C1394 C1395 1.369 . S
C1394 C1398 1.531 . S
C1395 C1394 1.369 . S
C1395 C1396 1.410 . S
C1395 C1403 1.503 . S
C1396 C1395 1.410 . S
C1396 C1397 1.392 . S
C1396 C1399 1.511 . S
C1397 C1393 1.376 . S
C1397 C1396 1.392 . S
C1397 H1409 0.929 . S
C1398 C1394 1.531 . S
C1398 H1410 0.960 . S
C1398 H1411 0.962 . S
C1398 H1412 0.960 . S
C1399 C1396 1.511 . S
C1399 H1413 0.961 . S
C1399 H1414 0.961 . S
C1399 H1415 0.961 . S
C1400 C1401 1.370 . S
C1400 C1402 1.363 . S
C1400 H1416 0.931 . S
C1401 C1400 1.370 . S
C1401 C1405 1.408 . S
C1402 C1400 1.363 . S
C1402 C1403 1.370 . S
C1402 C1406 1.524 . S
C1403 C1395 1.503 . S
C1403 C1402 1.370 . S
C1403 C1404 1.403 . S
C1404 C1403 1.403 . S
C1404 C1405 1.404 . S
C1404 C1407 1.539 . S
C1405 C1401 1.408 . S
C1405 C1404 1.404 . S
C1405 H1417 0.930 . S
C1406 C1402 1.524 . S
C1406 H1418 0.956 . S
C1406 H1419 0.961 . S
C1406 H1420 0.961 . S
C1407 C1404 1.539 . S
C1407 H1421 0.958 . S
C1407 H1422 0.961 . S
C1407 H1423 0.960 . S
H1408 C1392 0.931 . S
H1409 C1397 0.929 . S
H1410 C1398 0.960 . S
H1411 C1398 0.962 . S
H1412 C1398 0.960 . S
H1413 C1399 0.961 . S
H1414 C1399 0.961 . S
H1415 C1399 0.961 . S
H1416 C1400 0.931 . S
H1417 C1405 0.930 . S
H1418 C1406 0.956 . S
H1419 C1406 0.961 . S
H1420 C1406 0.961 . S
H1421 C1407 0.958 . S
H1422 C1407 0.961 . S
H1423 C1407 0.960 . S
C657 C255 2.406 . S
C665 C388 2.545 . S
C697 C471 2.566 . S
C689 C295 2.372 . S
C729 C556 2.546 . S
C721 C175 2.366 . S
C761 C640 2.527 . S
C753 C215 2.330 . S
C793 C376 2.543 1_565 S
C785 C95 2.395 . S
C817 C135 2.423 . S
C825 C459 2.555 . S
C849 C15 2.385 . S
C857 C544 2.541 . S
C881 C55 2.335 . S
C889 C628 2.522 1_655 S
C921 C378 0.461 1_455 S
C913 C221 0.510 . S
C953 C474 0.566 . S
C945 C261 0.509 . S
C985 C546 0.549 . S
C977 C301 0.498 . S
C1009 C181 0.419 . S
C1017 C630 0.473 . S
C1041 C61 0.645 . S
C1049 C390 0.513 . S
C1081 C462 0.518 . S
C1073 C101 0.440 . S
C1113 C558 0.516 . S
C1105 C141 0.497 . S
C1137 C21 0.656 . S
C1145 C642 0.516 . S
C1169 C202 2.913 . S
C1177 C375 3.134 . S
C1201 C242 2.878 . S
C1209 C460 3.192 . S
C1241 C543 3.171 . S
C1233 C282 2.906 . S
C1273 C627 3.169 . S
C1265 C162 2.912 . S
C1297 C42 2.876 . S
C1305 C387 3.134 . S
C1337 C472 3.191 . S
C1329 C82 2.835 . S
C1369 C555 3.164 . S
C1361 C122 2.906 . S
C1393 C2 2.912 . S
C1401 C639 3.162 . S
