# Generated by pormake.
# Topology gar, (4,6)-cn, num edge types: 1
# Building blocks:
#     Node 0, Type 0, BuildingBlock: CEKHIL_clean_sbu_0, # of connection points: 4
#     Node 1, Type 0, BuildingBlock: CEKHIL_clean_sbu_0, # of connection points: 4
#     Node 2, Type 0, BuildingBlock: CEKHIL_clean_sbu_0, # of connection points: 4
#     Node 3, Type 0, BuildingBlock: CEKHIL_clean_sbu_0, # of connection points: 4
#     Node 4, Type 0, BuildingBlock: CEKHIL_clean_sbu_0, # of connection points: 4
#     Node 5, Type 0, BuildingBlock: CEKHIL_clean_sbu_0, # of connection points: 4
#     Node 6, Type 0, BuildingBlock: CEKHIL_clean_sbu_0, # of connection points: 4
#     Node 7, Type 0, BuildingBlock: CEKHIL_clean_sbu_0, # of connection points: 4
#     Node 8, Type 0, BuildingBlock: CEKHIL_clean_sbu_0, # of connection points: 4
#     Node 9, Type 0, BuildingBlock: CEKHIL_clean_sbu_0, # of connection points: 4
#     Node 10, Type 0, BuildingBlock: CEKHIL_clean_sbu_0, # of connection points: 4
#     Node 11, Type 0, BuildingBlock: CEKHIL_clean_sbu_0, # of connection points: 4
#     Node 12, Type 0, BuildingBlock: CEKHIL_clean_sbu_0, # of connection points: 4
#     Node 13, Type 0, BuildingBlock: CEKHIL_clean_sbu_0, # of connection points: 4
#     Node 14, Type 0, BuildingBlock: CEKHIL_clean_sbu_0, # of connection points: 4
#     Node 15, Type 0, BuildingBlock: CEKHIL_clean_sbu_0, # of connection points: 4
#     Node 16, Type 0, BuildingBlock: CEKHIL_clean_sbu_0, # of connection points: 4
#     Node 17, Type 0, BuildingBlock: CEKHIL_clean_sbu_0, # of connection points: 4
#     Node 18, Type 0, BuildingBlock: CEKHIL_clean_sbu_0, # of connection points: 4
#     Node 19, Type 0, BuildingBlock: CEKHIL_clean_sbu_0, # of connection points: 4
#     Node 20, Type 0, BuildingBlock: CEKHIL_clean_sbu_0, # of connection points: 4
#     Node 21, Type 0, BuildingBlock: CEKHIL_clean_sbu_0, # of connection points: 4
#     Node 22, Type 0, BuildingBlock: CEKHIL_clean_sbu_0, # of connection points: 4
#     Node 23, Type 0, BuildingBlock: CEKHIL_clean_sbu_0, # of connection points: 4
#     Node 24, Type 1, BuildingBlock: NUHQIS_clean_sbu_0, # of connection points: 6
#     Node 25, Type 1, BuildingBlock: NUHQIS_clean_sbu_0, # of connection points: 6
#     Node 26, Type 1, BuildingBlock: NUHQIS_clean_sbu_0, # of connection points: 6
#     Node 27, Type 1, BuildingBlock: NUHQIS_clean_sbu_0, # of connection points: 6
#     Node 28, Type 1, BuildingBlock: NUHQIS_clean_sbu_0, # of connection points: 6
#     Node 29, Type 1, BuildingBlock: NUHQIS_clean_sbu_0, # of connection points: 6
#     Node 30, Type 1, BuildingBlock: NUHQIS_clean_sbu_0, # of connection points: 6
#     Node 31, Type 1, BuildingBlock: NUHQIS_clean_sbu_0, # of connection points: 6
#     Node 32, Type 1, BuildingBlock: NUHQIS_clean_sbu_0, # of connection points: 6
#     Node 33, Type 1, BuildingBlock: NUHQIS_clean_sbu_0, # of connection points: 6
#     Node 34, Type 1, BuildingBlock: NUHQIS_clean_sbu_0, # of connection points: 6
#     Node 35, Type 1, BuildingBlock: NUHQIS_clean_sbu_0, # of connection points: 6
#     Node 36, Type 1, BuildingBlock: NUHQIS_clean_sbu_0, # of connection points: 6
#     Node 37, Type 1, BuildingBlock: NUHQIS_clean_sbu_0, # of connection points: 6
#     Node 38, Type 1, BuildingBlock: NUHQIS_clean_sbu_0, # of connection points: 6
#     Node 39, Type 1, BuildingBlock: NUHQIS_clean_sbu_0, # of connection points: 6
#     Edge 40, Type (0, 1), BuildingBlock: XUDNAN_clean_linker_2, # of connection points: 2
#     Edge 41, Type (0, 1), BuildingBlock: XUDNAN_clean_linker_2, # of connection points: 2
#     Edge 42, Type (0, 1), BuildingBlock: XUDNAN_clean_linker_2, # of connection points: 2
#     Edge 43, Type (0, 1), BuildingBlock: XUDNAN_clean_linker_2, # of connection points: 2
#     Edge 44, Type (0, 1), BuildingBlock: XUDNAN_clean_linker_2, # of connection points: 2
#     Edge 45, Type (0, 1), BuildingBlock: XUDNAN_clean_linker_2, # of connection points: 2
#     Edge 46, Type (0, 1), BuildingBlock: XUDNAN_clean_linker_2, # of connection points: 2
#     Edge 47, Type (0, 1), BuildingBlock: XUDNAN_clean_linker_2, # of connection points: 2
#     Edge 48, Type (0, 1), BuildingBlock: XUDNAN_clean_linker_2, # of connection points: 2
#     Edge 49, Type (0, 1), BuildingBlock: XUDNAN_clean_linker_2, # of connection points: 2
#     Edge 50, Type (0, 1), BuildingBlock: XUDNAN_clean_linker_2, # of connection points: 2
#     Edge 51, Type (0, 1), BuildingBlock: XUDNAN_clean_linker_2, # of connection points: 2
#     Edge 52, Type (0, 1), BuildingBlock: XUDNAN_clean_linker_2, # of connection points: 2
#     Edge 53, Type (0, 1), BuildingBlock: XUDNAN_clean_linker_2, # of connection points: 2
#     Edge 54, Type (0, 1), BuildingBlock: XUDNAN_clean_linker_2, # of connection points: 2
#     Edge 55, Type (0, 1), BuildingBlock: XUDNAN_clean_linker_2, # of connection points: 2
#     Edge 56, Type (0, 1), BuildingBlock: XUDNAN_clean_linker_2, # of connection points: 2
#     Edge 57, Type (0, 1), BuildingBlock: XUDNAN_clean_linker_2, # of connection points: 2
#     Edge 58, Type (0, 1), BuildingBlock: XUDNAN_clean_linker_2, # of connection points: 2
#     Edge 59, Type (0, 1), BuildingBlock: XUDNAN_clean_linker_2, # of connection points: 2
#     Edge 60, Type (0, 1), BuildingBlock: XUDNAN_clean_linker_2, # of connection points: 2
#     Edge 61, Type (0, 1), BuildingBlock: XUDNAN_clean_linker_2, # of connection points: 2
#     Edge 62, Type (0, 1), BuildingBlock: XUDNAN_clean_linker_2, # of connection points: 2
#     Edge 63, Type (0, 1), BuildingBlock: XUDNAN_clean_linker_2, # of connection points: 2
#     Edge 64, Type (0, 1), BuildingBlock: XUDNAN_clean_linker_2, # of connection points: 2
#     Edge 65, Type (0, 1), BuildingBlock: XUDNAN_clean_linker_2, # of connection points: 2
#     Edge 66, Type (0, 1), BuildingBlock: XUDNAN_clean_linker_2, # of connection points: 2
#     Edge 67, Type (0, 1), BuildingBlock: XUDNAN_clean_linker_2, # of connection points: 2
#     Edge 68, Type (0, 1), BuildingBlock: XUDNAN_clean_linker_2, # of connection points: 2
#     Edge 69, Type (0, 1), BuildingBlock: XUDNAN_clean_linker_2, # of connection points: 2
#     Edge 70, Type (0, 1), BuildingBlock: XUDNAN_clean_linker_2, # of connection points: 2
#     Edge 71, Type (0, 1), BuildingBlock: XUDNAN_clean_linker_2, # of connection points: 2
#     Edge 72, Type (0, 1), BuildingBlock: XUDNAN_clean_linker_2, # of connection points: 2
#     Edge 73, Type (0, 1), BuildingBlock: XUDNAN_clean_linker_2, # of connection points: 2
#     Edge 74, Type (0, 1), BuildingBlock: XUDNAN_clean_linker_2, # of connection points: 2
#     Edge 75, Type (0, 1), BuildingBlock: XUDNAN_clean_linker_2, # of connection points: 2
#     Edge 76, Type (0, 1), BuildingBlock: XUDNAN_clean_linker_2, # of connection points: 2
#     Edge 77, Type (0, 1), BuildingBlock: XUDNAN_clean_linker_2, # of connection points: 2
#     Edge 78, Type (0, 1), BuildingBlock: XUDNAN_clean_linker_2, # of connection points: 2
#     Edge 79, Type (0, 1), BuildingBlock: XUDNAN_clean_linker_2, # of connection points: 2
#     Edge 80, Type (0, 1), BuildingBlock: XUDNAN_clean_linker_2, # of connection points: 2
#     Edge 81, Type (0, 1), BuildingBlock: XUDNAN_clean_linker_2, # of connection points: 2
#     Edge 82, Type (0, 1), BuildingBlock: XUDNAN_clean_linker_2, # of connection points: 2
#     Edge 83, Type (0, 1), BuildingBlock: XUDNAN_clean_linker_2, # of connection points: 2
#     Edge 84, Type (0, 1), BuildingBlock: XUDNAN_clean_linker_2, # of connection points: 2
#     Edge 85, Type (0, 1), BuildingBlock: XUDNAN_clean_linker_2, # of connection points: 2
#     Edge 86, Type (0, 1), BuildingBlock: XUDNAN_clean_linker_2, # of connection points: 2
#     Edge 87, Type (0, 1), BuildingBlock: XUDNAN_clean_linker_2, # of connection points: 2
#     Edge 88, Type (0, 1), BuildingBlock: XUDNAN_clean_linker_2, # of connection points: 2
#     Edge 89, Type (0, 1), BuildingBlock: XUDNAN_clean_linker_2, # of connection points: 2
#     Edge 90, Type (0, 1), BuildingBlock: XUDNAN_clean_linker_2, # of connection points: 2
#     Edge 91, Type (0, 1), BuildingBlock: XUDNAN_clean_linker_2, # of connection points: 2
#     Edge 92, Type (0, 1), BuildingBlock: XUDNAN_clean_linker_2, # of connection points: 2
#     Edge 93, Type (0, 1), BuildingBlock: XUDNAN_clean_linker_2, # of connection points: 2
#     Edge 94, Type (0, 1), BuildingBlock: XUDNAN_clean_linker_2, # of connection points: 2
#     Edge 95, Type (0, 1), BuildingBlock: XUDNAN_clean_linker_2, # of connection points: 2
#     Edge 96, Type (0, 1), BuildingBlock: XUDNAN_clean_linker_2, # of connection points: 2
#     Edge 97, Type (0, 1), BuildingBlock: XUDNAN_clean_linker_2, # of connection points: 2
#     Edge 98, Type (0, 1), BuildingBlock: XUDNAN_clean_linker_2, # of connection points: 2
#     Edge 99, Type (0, 1), BuildingBlock: XUDNAN_clean_linker_2, # of connection points: 2
#     Edge 100, Type (0, 1), BuildingBlock: XUDNAN_clean_linker_2, # of connection points: 2
#     Edge 101, Type (0, 1), BuildingBlock: XUDNAN_clean_linker_2, # of connection points: 2
#     Edge 102, Type (0, 1), BuildingBlock: XUDNAN_clean_linker_2, # of connection points: 2
#     Edge 103, Type (0, 1), BuildingBlock: XUDNAN_clean_linker_2, # of connection points: 2
#     Edge 104, Type (0, 1), BuildingBlock: XUDNAN_clean_linker_2, # of connection points: 2
#     Edge 105, Type (0, 1), BuildingBlock: XUDNAN_clean_linker_2, # of connection points: 2
#     Edge 106, Type (0, 1), BuildingBlock: XUDNAN_clean_linker_2, # of connection points: 2
#     Edge 107, Type (0, 1), BuildingBlock: XUDNAN_clean_linker_2, # of connection points: 2
#     Edge 108, Type (0, 1), BuildingBlock: XUDNAN_clean_linker_2, # of connection points: 2
#     Edge 109, Type (0, 1), BuildingBlock: XUDNAN_clean_linker_2, # of connection points: 2
#     Edge 110, Type (0, 1), BuildingBlock: XUDNAN_clean_linker_2, # of connection points: 2
#     Edge 111, Type (0, 1), BuildingBlock: XUDNAN_clean_linker_2, # of connection points: 2
#     Edge 112, Type (0, 1), BuildingBlock: XUDNAN_clean_linker_2, # of connection points: 2
#     Edge 113, Type (0, 1), BuildingBlock: XUDNAN_clean_linker_2, # of connection points: 2
#     Edge 114, Type (0, 1), BuildingBlock: XUDNAN_clean_linker_2, # of connection points: 2
#     Edge 115, Type (0, 1), BuildingBlock: XUDNAN_clean_linker_2, # of connection points: 2
#     Edge 116, Type (0, 1), BuildingBlock: XUDNAN_clean_linker_2, # of connection points: 2
#     Edge 117, Type (0, 1), BuildingBlock: XUDNAN_clean_linker_2, # of connection points: 2
#     Edge 118, Type (0, 1), BuildingBlock: XUDNAN_clean_linker_2, # of connection points: 2
#     Edge 119, Type (0, 1), BuildingBlock: XUDNAN_clean_linker_2, # of connection points: 2
#     Edge 120, Type (0, 1), BuildingBlock: XUDNAN_clean_linker_2, # of connection points: 2
#     Edge 121, Type (0, 1), BuildingBlock: XUDNAN_clean_linker_2, # of connection points: 2
#     Edge 122, Type (0, 1), BuildingBlock: XUDNAN_clean_linker_2, # of connection points: 2
#     Edge 123, Type (0, 1), BuildingBlock: XUDNAN_clean_linker_2, # of connection points: 2
#     Edge 124, Type (0, 1), BuildingBlock: XUDNAN_clean_linker_2, # of connection points: 2
#     Edge 125, Type (0, 1), BuildingBlock: XUDNAN_clean_linker_2, # of connection points: 2
#     Edge 126, Type (0, 1), BuildingBlock: XUDNAN_clean_linker_2, # of connection points: 2
#     Edge 127, Type (0, 1), BuildingBlock: XUDNAN_clean_linker_2, # of connection points: 2
#     Edge 128, Type (0, 1), BuildingBlock: XUDNAN_clean_linker_2, # of connection points: 2
#     Edge 129, Type (0, 1), BuildingBlock: XUDNAN_clean_linker_2, # of connection points: 2
#     Edge 130, Type (0, 1), BuildingBlock: XUDNAN_clean_linker_2, # of connection points: 2
#     Edge 131, Type (0, 1), BuildingBlock: XUDNAN_clean_linker_2, # of connection points: 2
#     Edge 132, Type (0, 1), BuildingBlock: XUDNAN_clean_linker_2, # of connection points: 2
#     Edge 133, Type (0, 1), BuildingBlock: XUDNAN_clean_linker_2, # of connection points: 2
#     Edge 134, Type (0, 1), BuildingBlock: XUDNAN_clean_linker_2, # of connection points: 2
#     Edge 135, Type (0, 1), BuildingBlock: XUDNAN_clean_linker_2, # of connection points: 2
# Relax obj value: 0.219
# Max RMSD: 0.314
# Mean RMSD: 0.137
data_MOF--net-gar--node1-CEKHIL_clean_sbu_0--node2-NUHQIS_clean_sbu_0--edge1-XUDNAN_clean_linker_2
_symmetry_space_group_name_H-M    P1
_symmetry_Int_Tables_number       1
_symmetry_cell_setting            triclinic
loop_
_symmetry_equiv_pos_as_xyz
'x, y, z'
_cell_length_a     57.342642
_cell_length_b     59.478202
_cell_length_c     55.625803
_cell_angle_alpha  92.772217
_cell_angle_beta   96.298628
_cell_angle_gamma 100.11795
loop_
_atom_site_label
_atom_site_type_symbol
_atom_site_fract_x
_atom_site_fract_y
_atom_site_fract_z
_atom_type_partial_charge
Co0 Co 0.09753 0.30264 0.41822 0.0
O1 O 0.134 0.30855 0.42295 0.0
O2 O 0.11461 0.29439 0.38921 0.0
C3 C 0.0929 0.34114 0.43493 0.0
O4 O 0.06111 0.29633 0.40085 0.0
Co5 Co 0.06447 0.29858 0.45277 0.0
O6 O 0.03775 0.30374 0.42837 0.0
C7 C 0.08493 0.2567 0.44866 0.0
C8 C 0.13573 0.30159 0.40076 0.0
C9 C 0.04022 0.29983 0.40624 0.0
O10 O 0.09543 0.26796 0.43143 0.0
O11 O 0.07163 0.26695 0.46074 0.0
O12 O 0.09809 0.33634 0.41333 0.0
O13 O 0.09192 0.32285 0.44732 0.0
Co14 Co 0.0631 0.80696 0.65667 0.0
O15 O 1.02631 0.80466 0.65491 0.0
O16 O 0.04762 0.80029 0.6874 0.0
C17 C 0.07112 0.8438 0.63625 0.0
O18 O 0.0996 0.80963 0.67322 0.0
Co19 Co 0.09623 0.8059 0.62158 0.0
O20 O 0.12494 0.80814 0.64595 0.0
C21 C 0.07136 0.75958 0.62822 0.0
C22 C 1.02626 0.80149 0.67796 0.0
C23 C 0.12138 0.80937 0.66804 0.0
O24 O 0.06069 0.77045 0.6443 0.0
O25 O 0.08649 0.77147 0.6165 0.0
O26 O 0.06676 0.84223 0.65864 0.0
O27 O 0.07007 0.82322 0.62623 0.0
Co28 Co 0.59588 0.80022 0.91678 0.0
O29 O 0.63275 0.80496 0.91879 0.0
O30 O 0.60997 0.79226 0.88636 0.0
C31 C 0.59226 0.83736 0.93716 0.0
O32 O 0.55935 0.7957 0.90035 0.0
Co33 Co 0.56224 0.79509 0.95238 0.0
O34 O 0.53439 0.79723 0.92804 0.0
C35 C 0.5833 0.7537 0.94631 0.0
C36 C 0.63195 0.79822 0.89598 0.0
C37 C 0.53774 0.79623 0.90585 0.0
O38 O 0.59352 0.76495 0.92886 0.0
O39 O 0.57052 0.76391 0.95907 0.0
O40 O 0.59729 0.83494 0.91501 0.0
O41 O 0.59095 0.81774 0.94707 0.0
Co42 Co 0.56298 0.30431 0.1556 0.0
O43 O 0.52653 0.30187 0.15126 0.0
O44 O 0.54497 0.29667 0.18515 0.0
C45 C 0.57119 0.3429 0.13814 0.0
O46 O 0.59899 0.30594 0.17295 0.0
Co47 Co 0.59583 0.30513 0.12149 0.0
O48 O 0.62491 0.30987 0.14597 0.0
C49 C 0.57098 0.25816 0.12533 0.0
C50 C 0.52435 0.29815 0.17385 0.0
C51 C 0.62112 0.30819 0.16792 0.0
O52 O 0.56115 0.26826 0.1426 0.0
O53 O 0.585 0.27089 0.11314 0.0
O54 O 0.56681 0.3391 0.16013 0.0
O55 O 0.57023 0.32325 0.12606 0.0
Co56 Co 0.11956 0.8611 0.16282 0.0
O57 O 0.08762 0.84395 0.1551 0.0
O58 O 0.10707 0.85184 0.19215 0.0
C59 C 0.11444 0.88912 0.13811 0.0
O60 O 0.15187 0.87788 0.17862 0.0
Co61 Co 0.15521 0.87045 0.12501 0.0
O62 O 0.17818 0.88685 0.15205 0.0
C63 C 0.14375 0.82428 0.14306 0.0
C64 C 0.0879 0.84202 0.17831 0.0
C65 C 0.17276 0.88657 0.17364 0.0
O66 O 0.13252 0.83209 0.1594 0.0
O67 O 0.15229 0.83639 0.12654 0.0
O68 O 0.10779 0.88983 0.15972 0.0
O69 O 0.12293 0.87129 0.1319 0.0
Co70 Co 0.54652 0.74249 0.40677 0.0
O71 O 0.5786 0.738 0.40485 0.0
O72 O 0.54948 0.73168 0.37425 0.0
C73 C 0.55679 0.77667 0.42732 0.0
O74 O 0.51186 0.74676 0.4012 0.0
Co75 Co 0.52484 0.74831 0.455 0.0
O76 O 0.5051 0.76591 0.43465 0.0
C77 C 0.53483 0.70341 0.43788 0.0
C78 C 0.57181 0.73217 0.382 0.0
C79 C 0.50111 0.76088 0.41191 0.0
O80 O 0.538 0.71042 0.41678 0.0
O81 O 0.53051 0.71615 0.45545 0.0
O82 O 0.55655 0.77509 0.40388 0.0
O83 O 0.5522 0.75762 0.43754 0.0
Co84 Co 0.61946 0.36884 0.70191 0.0
O85 O 0.58707 0.35306 0.69524 0.0
O86 O 0.61082 0.35236 0.7295 0.0
C87 C 0.61307 0.40193 0.68801 0.0
O88 O 0.6535 0.38281 0.71527 0.0
Co89 Co 0.64827 0.38577 0.66007 0.0
O90 O 0.67444 0.39793 0.68617 0.0
C91 C 0.63342 0.33673 0.66558 0.0
C92 C 0.59027 0.34536 0.71658 0.0
C93 C 0.67275 0.3935 0.70816 0.0
O94 O 0.62986 0.3415 0.68744 0.0
O95 O 0.63907 0.35196 0.6507 0.0
O96 O 0.60885 0.39732 0.70991 0.0
O97 O 0.61911 0.38593 0.67488 0.0
Co98 Co 0.0385 0.26375 0.92397 0.0
O99 O 0.06998 0.2821 0.92894 0.0
O100 O 0.0553 0.2583 0.89676 0.0
C101 C 1.01861 0.29113 0.93449 0.0
O102 O 1.00674 0.24316 0.91186 0.0
Co103 Co 1.00827 0.25405 0.96673 0.0
O104 O 0.98203 0.24791 0.9396 0.0
C105 C 0.05028 0.23264 0.96322 0.0
C106 C 0.07299 0.27312 0.908 0.0
C107 C 0.9857 0.24232 0.91812 0.0
O108 O 0.05101 0.23864 0.94136 0.0
O109 O 0.03567 0.2386 0.97702 0.0
O110 O 1.02513 0.2899 0.91288 0.0
O111 O 1.02644 0.27749 0.94955 0.0
Co112 Co 0.50189 0.11427 0.33935 0.0
O113 O 0.49265 0.1348 0.31573 0.0
O114 O 0.47037 0.10224 0.32388 0.0
C115 C 0.51747 0.14018 0.37021 0.0
O116 O 0.50372 0.08907 0.3622 0.0
Co117 Co 0.55397 0.11421 0.3612 0.0
O118 O 0.54039 0.08932 0.38109 0.0
C119 C 0.53679 0.0936 0.31184 0.0
C120 C 0.47269 0.12015 0.31132 0.0
C121 C 0.51817 0.081 0.37726 0.0
O122 O 0.51558 0.09677 0.31438 0.0
O123 O 0.55488 0.10102 0.32755 0.0
O124 O 0.49445 0.13362 0.36566 0.0
O125 O 0.52984 0.13307 0.35435 0.0
Co126 Co 0.35618 0.1727 0.5319 0.0
O127 O 0.39257 0.1787 0.53404 0.0
O128 O 0.37315 0.1457 0.53944 0.0
C129 C 0.35018 0.19172 0.49378 0.0
O130 O 0.3195 0.15559 0.53089 0.0
Co131 Co 0.32131 0.20479 0.53029 0.0
O132 O 0.29352 0.17912 0.52373 0.0
C133 C 0.34549 0.20012 0.57949 0.0
C134 C 0.39417 0.15756 0.53795 0.0
C135 C 0.29738 0.15908 0.52723 0.0
O136 O 0.3564 0.18478 0.5694 0.0
O137 O 0.33156 0.21042 0.56628 0.0
O138 O 0.35432 0.17091 0.49459 0.0
O139 O 0.34984 0.2004 0.51555 0.0
Co140 Co 0.23915 0.08009 0.84994 0.0
O141 O 0.24418 0.05145 0.83632 0.0
O142 O 0.27277 0.0815 0.84797 0.0
C143 C 0.21433 0.06408 0.87543 0.0
O144 O 0.24115 0.1121 0.86521 0.0
Co145 Co 0.18944 0.09415 0.84816 0.0
O146 O 0.20543 0.12035 0.87085 0.0
C147 C 0.21719 0.09978 0.8058 0.0
C148 C 0.26674 0.06034 0.83922 0.0
C149 C 0.22809 0.12561 0.87315 0.0
O150 O 0.23466 0.09196 0.81684 0.0
O151 O 0.19778 0.10096 0.81483 0.0
O152 O 0.23728 0.06727 0.88145 0.0
O153 O 0.20719 0.06983 0.85421 0.0
Co154 Co 0.35036 0.9028 0.03989 0.0
O155 O 0.31779 0.9074 0.04183 0.0
O156 O 0.35046 0.93387 0.05008 0.0
C157 C 0.34401 0.88254 1.00321 0.0
O158 O 0.38602 0.90727 0.03952 0.0
Co159 Co 0.36798 0.85788 0.04064 0.0
O160 O 0.40086 0.87504 0.03901 0.0
C161 C 0.35608 0.87707 0.08627 0.0
C162 C 0.32748 0.92849 0.04906 0.0
C163 C 0.40359 0.89672 0.03916 0.0
O164 O 0.35319 0.89508 0.07519 0.0
O165 O 0.36051 0.85921 0.07521 0.0
O166 O 0.34657 0.90474 1.00482 0.0
O167 O 0.34357 0.87291 0.0237 0.0
Co168 Co 0.30146 0.42642 0.0373 0.0
O169 O 0.26514 0.41987 0.03383 0.0
O170 O 0.28481 0.45301 0.04634 0.0
C171 C 0.30558 0.40945 0.9977 0.0
O172 O 0.33839 0.44354 0.04132 0.0
Co173 Co 0.33492 0.39303 0.03804 0.0
O174 O 0.36169 0.41828 0.03334 0.0
C175 C 0.31221 0.39684 0.08298 0.0
C176 C 0.26362 0.44083 0.04042 0.0
C177 C 0.35941 0.43898 0.03746 0.0
O178 O 0.30383 0.41426 0.07345 0.0
O179 O 0.3239 0.38505 0.07052 0.0
O180 O 0.30026 0.42963 1.00131 0.0
O181 O 0.30679 0.39917 0.01777 0.0
Co182 Co 0.81953 0.2074 0.02377 0.0
O183 O 0.85324 0.21753 0.02211 0.0
O184 O 0.83682 0.18354 0.03282 0.0
C185 C 0.80708 0.21927 0.98736 0.0
O186 O 0.78649 0.18926 0.02626 0.0
Co187 Co 0.78299 0.23837 0.02531 0.0
O188 O 0.75803 0.21016 0.01908 0.0
C189 C 0.81553 0.23642 0.0696 0.0
C190 C 0.85587 0.19726 0.02839 0.0
C191 C 0.7644 0.19099 0.02241 0.0
O192 O 0.8232 0.22005 0.05871 0.0
O193 O 0.80048 0.24729 0.05887 0.0
O194 O 0.81426 0.19985 0.9891 0.0
O195 O 0.80888 0.23188 1.00743 0.0
Co196 Co 0.18013 0.53784 0.30145 0.0
O197 O 0.19263 0.51105 0.31015 0.0
O198 O 0.21207 0.54025 0.29272 0.0
C199 C 0.16524 0.54567 0.33582 0.0
O200 O 0.17329 0.5682 0.29052 0.0
Co201 Co 0.12545 0.53825 0.29815 0.0
O202 O 0.13548 0.57169 0.29513 0.0
C203 C 0.14555 0.51978 0.25636 0.0
C204 C 0.21202 0.52049 0.30177 0.0
C205 C 0.15628 0.57973 0.28992 0.0
O206 O 0.1666 0.52369 0.26818 0.0
O207 O 0.12678 0.52255 0.26579 0.0
O208 O 0.18799 0.55133 0.33461 0.0
O209 O 0.15326 0.53233 0.31797 0.0
Co210 Co 0.80546 0.92753 0.5368 0.0
O211 O 0.76873 0.92489 0.53339 0.0
O212 O 0.79271 0.95606 0.54525 0.0
C213 C 0.80914 0.90741 0.4987 0.0
O214 O 0.84273 0.94275 0.54064 0.0
Co215 Co 0.8381 0.89222 0.53901 0.0
O216 O 0.8656 0.91675 0.53412 0.0
C217 C 0.81459 0.89848 0.58327 0.0
C218 C 0.77049 0.94658 0.53986 0.0
C219 C 0.86363 0.93762 0.53751 0.0
O220 O 0.80704 0.91625 0.57343 0.0
O221 O 0.82587 0.88594 0.57121 0.0
O222 O 0.8046 0.92813 0.49989 0.0
O223 O 0.8099 0.89926 0.51986 0.0
Co224 Co 0.92661 0.03972 0.23208 0.0
O225 O 0.92272 0.06995 0.22414 0.0
O226 O 0.89509 0.03867 0.215 0.0
C227 C 0.94229 0.05063 0.27042 0.0
O228 O 0.92393 1.00566 0.2378 0.0
Co229 Co 0.97671 0.02861 0.24978 0.0
O230 O 0.95884 0.99821 0.25527 0.0
C231 C 0.96309 0.03593 0.19799 0.0
C232 C 0.90132 0.06075 0.21461 0.0
C233 C 0.93687 0.99194 0.24725 0.0
O234 O 0.94113 0.03584 0.20107 0.0
O235 O 0.97954 0.03507 0.21527 0.0
O236 O 0.91925 0.04592 0.26516 0.0
O237 O 0.95472 0.04933 0.25274 0.0
Co238 Co 0.31249 0.70715 0.52115 0.0
O239 O 0.3469 0.714 0.52368 0.0
O240 O 0.32574 0.68055 0.53028 0.0
C241 C 0.30613 0.7227 0.48491 0.0
O242 O 0.27713 0.69246 0.5191 0.0
Co243 Co 0.28202 0.74409 0.52156 0.0
O244 O 0.25528 0.71893 0.50858 0.0
C245 C 0.30806 0.7353 0.56773 0.0
C246 C 0.34659 0.69299 0.52922 0.0
C247 C 0.25708 0.69819 0.51162 0.0
O248 O 0.31385 0.71792 0.55664 0.0
O249 O 0.29648 0.74903 0.5566 0.0
O250 O 0.3104 0.70203 0.48604 0.0
O251 O 0.30748 0.73414 0.50563 0.0
Co252 Co 0.4338 0.52548 0.74008 0.0
O253 O 0.43046 0.55571 0.75078 0.0
O254 O 0.40459 0.53246 0.72402 0.0
C255 C 0.44375 0.51328 0.77668 0.0
O256 O 0.43085 0.49278 0.72597 0.0
Co257 Co 0.48307 0.50992 0.74847 0.0
O258 O 0.4624 0.47927 0.74341 0.0
C259 C 0.4743 0.54105 0.71037 0.0
C260 C 0.41045 0.55208 0.73658 0.0
C261 C 0.44145 0.47614 0.73197 0.0
O262 O 0.4521 0.5384 0.71335 0.0
O263 O 0.48975 0.53237 0.72342 0.0
O264 O 0.4215 0.51322 0.76905 0.0
O265 O 0.45909 0.52312 0.76334 0.0
Co266 Co 0.63749 0.99514 0.77634 0.0
O267 O 0.63948 0.96732 0.79235 0.0
O268 O 0.66874 0.9877 0.77542 0.0
C269 C 0.62057 1.01347 0.80404 0.0
O270 O 0.64297 0.02508 0.75998 0.0
Co271 Co 0.58837 1.00811 0.75909 0.0
O272 O 0.60817 0.0374 0.75192 0.0
C273 C 0.60517 0.97285 0.73095 0.0
C274 C 0.66154 0.97035 0.78777 0.0
C275 C 0.6308 0.0402 0.75265 0.0
O276 O 0.62574 0.97771 0.74384 0.0
O277 O 0.58693 0.98051 0.73677 0.0
O278 O 0.64322 1.01283 0.80757 0.0
O279 O 0.60858 1.00011 0.78624 0.0
Co280 Co 0.8535 0.67093 0.03105 0.0
O281 O 0.89022 0.6737 0.03309 0.0
O282 O 0.86732 0.64279 0.03928 0.0
C283 C 0.8482 0.6904 0.99315 0.0
O284 O 0.81637 0.65515 0.02942 0.0
Co285 Co 0.82055 0.70486 0.03033 0.0
O286 O 0.79167 0.6803 0.02845 0.0
C287 C 0.84535 0.70002 0.07879 0.0
C288 C 0.8892 0.65226 0.03771 0.0
C289 C 0.79468 0.65966 0.02896 0.0
O290 O 0.85432 0.68324 0.06865 0.0
O291 O 0.83264 0.71147 0.06567 0.0
O292 O 0.85161 0.66931 0.99368 0.0
O293 O 0.84841 0.69905 1.01502 0.0
Co294 Co 1.01466 0.59956 0.8032 0.0
O295 O 1.0008 0.62649 0.79922 0.0
O296 O 0.99212 0.5951 0.77434 0.0
C297 C 1.01117 0.59597 0.84251 0.0
O298 O 1.02357 0.56789 0.80206 0.0
Co299 Co 0.06148 0.59967 0.83704 0.0
O300 O 0.04996 0.56603 0.83453 0.0
C301 C 0.06395 0.61961 0.78997 0.0
C302 C 0.98816 0.61542 0.78005 0.0
C303 C 1.03457 0.5564 0.81714 0.0
O304 O 0.04138 0.61253 0.78437 0.0
O305 O 0.07525 0.61722 0.81055 0.0
O306 O 0.9928 0.58908 0.82637 0.0
O307 O 1.02978 0.60746 0.83463 0.0
Co308 Co 0.84788 0.39393 0.54506 0.0
O309 O 0.81374 0.38826 0.54703 0.0
O310 O 0.83859 0.42061 0.55916 0.0
C311 C 0.84457 0.37816 0.50621 0.0
O312 O 0.88287 0.40819 0.54607 0.0
Co313 Co 0.87965 0.35889 0.5352 0.0
O314 O 0.90649 0.38479 0.5341 0.0
C315 C 0.86477 0.36505 0.58454 0.0
C316 C 0.81689 0.40929 0.55619 0.0
C317 C 0.90338 0.40446 0.54158 0.0
O318 O 0.85457 0.38193 0.57828 0.0
O319 O 0.87396 0.35319 0.56953 0.0
O320 O 0.84174 0.39918 0.51031 0.0
O321 O 0.84903 0.36745 0.52533 0.0
Co322 Co 0.74233 0.57488 0.37268 0.0
O323 O 0.74896 0.54423 0.37293 0.0
O324 O 0.77517 0.57534 0.36808 0.0
C325 C 0.72221 0.5731 0.40509 0.0
O326 O 0.74315 0.6091 0.37232 0.0
Co327 Co 0.69125 0.58583 0.36531 0.0
O328 O 0.70676 0.61865 0.36849 0.0
C329 C 0.71153 0.56549 0.32492 0.0
C330 C 0.77059 0.5533 0.36953 0.0
C331 C 0.72943 0.62401 0.37092 0.0
O332 O 0.73253 0.57052 0.33669 0.0
O333 O 0.69259 0.56766 0.33434 0.0
O334 O 0.74542 0.57758 0.40797 0.0
O335 O 0.71208 0.56835 0.38315 0.0
Tb336 Tb 0.06973 0.0607 0.02606 0.0
Eu337 Eu 0.12079 0.0676 0.06192 0.0
C338 C 0.11497 0.05003 1.00485 0.0
C339 C 0.08861 1.01906 0.0487 0.0
C340 C 1.01379 0.07782 1.00481 0.0
C341 C 0.97519 0.08929 0.99719 0.0
C342 C 0.98986 0.07302 0.99461 0.0
C343 C 1.02293 0.09906 0.01752 0.0
C344 C 1.00829 0.11522 0.02021 0.0
C345 C 0.98426 0.11056 1.01009 0.0
C346 C 1.02896 0.06037 1.00371 0.0
O347 O 0.06842 0.08218 0.0581 0.0
O348 O 0.09021 0.06411 0.08433 0.0
O349 O 0.11413 0.10281 0.05452 0.0
O350 O 0.09255 0.09167 1.01734 0.0
C351 C 0.07196 0.07426 0.07935 0.0
O352 O 0.1408 0.0587 0.09463 0.0
O353 O 0.15821 0.08315 0.07161 0.0
O354 O 0.12854 0.06193 0.02348 0.0
O355 O 0.09166 0.04412 1.00421 0.0
O356 O 0.06995 0.02894 0.04431 0.0
O357 O 0.11046 0.03047 0.05046 0.0
C358 C 0.10594 0.10737 0.03273 0.0
O359 O 0.04877 0.06639 0.99427 0.0
O360 O 1.03255 0.05048 0.02384 0.0
C361 C 0.18001 0.05651 0.0882 0.0
C362 C 0.21601 0.03009 0.08567 0.0
C363 C 0.21561 0.0443 0.10658 0.0
C364 C 0.19773 0.05741 0.10782 0.0
C365 C 0.18007 0.04211 0.06747 0.0
C366 C 0.19794 0.02904 0.06619 0.0
C367 C 0.16105 0.07002 0.08945 0.0
H368 H 0.95678 0.08526 0.98903 0.0
H369 H 0.98248 0.05666 0.98489 0.0
H370 H 0.04133 0.10302 0.02573 0.0
H371 H 1.01562 0.13116 0.03073 0.0
H372 H 0.22909 0.04524 0.12202 0.0
H373 H 0.19774 0.06825 0.12405 0.0
H374 H 0.16636 0.04109 0.0522 0.0
H375 H 0.19789 1.01853 0.04972 0.0
Tb376 Tb 0.34003 0.85032 0.31464 0.0
Eu377 Eu 0.32747 0.80223 0.28069 0.0
C378 C 0.29173 0.83808 0.28301 0.0
C379 C 0.31575 0.80403 0.3347 0.0
C380 C 0.37238 0.90433 0.35029 0.0
C381 C 0.39318 0.94374 0.35198 0.0
C382 C 0.37378 0.92671 0.343 0.0
C383 C 0.39093 0.89924 0.3667 0.0
C384 C 0.41032 0.91635 0.37583 0.0
C385 C 0.41155 0.93887 0.36876 0.0
C386 C 0.35091 0.88701 0.34165 0.0
O387 O 0.37427 0.84083 0.31092 0.0
O388 O 0.36185 0.80203 0.30431 0.0
O389 O 0.3527 0.82606 0.26145 0.0
O390 O 0.34261 0.85894 0.27674 0.0
C391 C 0.37846 0.81988 0.3118 0.0
O392 O 0.32445 0.76516 0.27636 0.0
O393 O 0.31555 0.78402 0.24533 0.0
O394 O 0.30064 0.82413 0.26914 0.0
O395 O 0.30164 0.84452 0.30519 0.0
O396 O 0.33253 0.8224 0.33877 0.0
O397 O 0.30647 0.79688 0.31245 0.0
C398 C 0.3504 0.84744 0.2593 0.0
O399 O 0.34287 0.88613 0.31874 0.0
O400 O 0.35006 0.86664 0.34942 0.0
C401 C 0.29154 0.74822 0.24888 0.0
C402 C 0.24787 0.71757 0.24657 0.0
C403 C 0.26947 0.7094 0.24629 0.0
C404 C 0.2911 0.72462 0.24737 0.0
C405 C 0.27001 0.7565 0.24826 0.0
C406 C 0.24833 0.74128 0.24695 0.0
C407 C 0.31451 0.76393 0.25399 0.0
H408 H 0.3938 0.96074 0.34566 0.0
H409 H 0.35972 0.93111 0.33044 0.0
H410 H 0.39035 0.88215 0.37279 0.0
H411 H 0.42408 0.91204 0.3888 0.0
H412 H 0.26991 0.69129 0.24655 0.0
H413 H 0.30757 0.71797 0.24815 0.0
H414 H 0.26999 0.77473 0.24966 0.0
H415 H 0.23201 0.7481 0.24697 0.0
Tb416 Tb 0.56725 0.03403 0.52916 0.0
Eu417 Eu 0.60222 0.07535 0.56053 0.0
C418 C 0.58546 0.02618 0.5818 0.0
C419 C 0.54275 0.07692 0.54729 0.0
C420 C 0.54386 0.97729 0.49645 0.0
C421 C 0.53157 0.93749 0.50458 0.0
C422 C 0.53027 0.96051 0.50868 0.0
C423 C 0.55823 0.97057 0.47955 0.0
C424 C 0.5595 0.94758 0.47545 0.0
C425 C 0.5463 0.93087 0.48802 0.0
C426 C 0.54312 1.00168 0.50136 0.0
O427 O 0.56835 0.06383 0.508 0.0
O428 O 0.60352 0.08676 0.52315 0.0
O429 O 0.62929 0.05323 0.55057 0.0
O430 O 0.60377 0.02226 0.5308 0.0
C431 C 0.58486 0.08187 0.507 0.0
O432 O 0.63271 0.10333 0.56716 0.0
O433 O 0.6101 0.09468 0.59553 0.0
O434 O 0.60199 0.04437 0.58195 0.0
O435 O 0.56687 1.02207 0.56535 0.0
O436 O 0.5396 0.05575 0.53684 0.0
O437 O 0.56471 0.08663 0.55719 0.0
C438 C 0.62606 0.03229 0.53996 0.0
O439 O 0.5375 1.00756 0.5226 0.0
O440 O 0.5608 1.01632 0.49502 0.0
C441 C 0.62573 0.13333 0.5924 0.0
C442 C 0.62122 0.17886 0.60213 0.0
C443 C 0.64263 0.17153 0.60989 0.0
C444 C 0.64483 0.14879 0.60511 0.0
C445 C 0.60477 0.14088 0.58366 0.0
C446 C 0.60246 0.16349 0.58864 0.0
C447 C 0.62744 0.10929 0.5885 0.0
H448 H 0.52093 0.92485 0.51421 0.0
H449 H 0.51874 0.96517 0.52153 0.0
H450 H 0.56872 0.98306 0.46964 0.0
H451 H 0.57114 0.94292 0.46271 0.0
H452 H 0.65723 0.18311 0.62052 0.0
H453 H 0.66117 0.14316 0.61178 0.0
H454 H 0.59002 0.12915 0.5735 0.0
H455 H 0.58586 0.16887 0.58238 0.0
Tb456 Tb 0.30266 0.30148 0.78056 0.0
Eu457 Eu 0.35247 0.292 0.80683 0.0
C458 C 0.35011 0.33251 0.77031 0.0
C459 C 0.33453 0.27251 0.74923 0.0
C460 C 0.24024 0.3075 0.77712 0.0
C461 C 0.22126 0.32616 0.80748 0.0
C462 C 0.23911 0.32684 0.79222 0.0
C463 C 0.22227 0.28802 0.77651 0.0
C464 C 0.20454 0.28728 0.79192 0.0
C465 C 0.20423 0.30612 0.80808 0.0
C466 C 0.26136 0.30642 0.76433 0.0
O467 O 0.29372 0.28022 0.81002 0.0
O468 O 0.32512 0.26169 0.81275 0.0
O469 O 0.3369 0.30944 0.83814 0.0
O470 O 0.31001 0.32558 0.81434 0.0
C471 C 0.30374 0.26337 0.81757 0.0
O472 O 0.37512 0.2677 0.81817 0.0
O473 O 0.38769 0.30388 0.82705 0.0
O474 O 0.36168 0.32513 0.78911 0.0
O475 O 0.32794 0.32361 0.76236 0.0
O476 O 0.31331 0.2778 0.75221 0.0
O477 O 0.35224 0.27814 0.76713 0.0
C478 C 0.32167 0.32381 0.83615 0.0
O479 O 0.27935 0.32347 0.76913 0.0
O480 O 0.2684 0.28669 0.76408 0.0
C481 C 0.41494 0.28204 0.81475 0.0
C482 C 0.45549 0.27857 0.79182 0.0
C483 C 0.45553 0.27521 0.81668 0.0
C484 C 0.43524 0.27681 0.82808 0.0
C485 C 0.41493 0.28547 0.79002 0.0
C486 C 0.43498 0.28371 0.77864 0.0
C487 C 0.3934 0.28361 0.82603 0.0
H488 H 0.22118 0.34117 0.81928 0.0
H489 H 0.25252 0.34223 0.793 0.0
H490 H 0.2226 0.2729 0.76497 0.0
H491 H 0.1918 0.27152 0.79196 0.0
H492 H 0.4712 0.27135 0.82722 0.0
H493 H 0.43542 0.27408 0.84721 0.0
H494 H 0.39943 0.2897 0.77953 0.0
H495 H 0.43462 0.28699 0.75963 0.0
Tb496 Tb 0.08112 0.03736 0.51384 0.0
Eu497 Eu 0.08222 0.0605 0.56456 0.0
C498 C 0.13147 0.06699 0.53877 0.0
C499 C 0.08301 1.00396 0.55951 0.0
C500 C 0.07957 0.02678 0.44772 0.0
C501 C 0.06409 1.01845 0.40542 0.0
C502 C 0.07278 1.01112 0.42754 0.0
C503 C 0.08052 0.0502 0.44488 0.0
C504 C 0.07133 0.0575 0.42296 0.0
C505 C 0.06148 0.04143 0.40351 0.0
C506 C 0.07878 1.01833 0.4719 0.0
O507 O 0.04404 0.02395 0.5228 0.0
O508 O 0.04186 0.04855 0.55467 0.0
O509 O 0.08317 0.0925 0.54052 0.0
O510 O 0.07698 0.07326 0.50336 0.0
C511 C 1.03131 0.03167 0.53878 0.0
O512 O 0.09116 0.0603 0.60351 0.0
O513 O 0.0767 0.08865 0.58885 0.0
O514 O 0.12214 0.06482 0.55937 0.0
O515 O 0.11762 0.05931 0.51841 0.0
O516 O 0.0889 1.00864 0.53742 0.0
O517 O 0.07761 1.02121 0.57272 0.0
C518 C 0.08024 0.09329 0.51647 0.0
O519 O 0.09833 0.02269 0.487 0.0
O520 O 0.06046 0.02262 0.48201 0.0
C521 C 0.10668 0.09636 0.62227 0.0
C522 C 0.14801 0.1171 0.65267 0.0
C523 C 0.12596 0.11169 0.66195 0.0
C524 C 0.10547 0.10132 0.64685 0.0
C525 C 0.12816 0.10332 0.61251 0.0
C526 C 0.14874 0.11357 0.62763 0.0
C527 C 0.0869 0.08078 0.60795 0.0
H528 H 0.05753 1.00577 0.39047 0.0
H529 H 0.07207 0.99297 0.42943 0.0
H530 H 0.08592 0.06254 0.46027 0.0
H531 H 0.06982 0.07534 0.42224 0.0
H532 H 0.12482 0.11381 0.68122 0.0
H533 H 0.08908 0.09587 0.65467 0.0
H534 H 0.12934 0.09961 0.59348 0.0
H535 H 0.16544 0.11764 0.61999 0.0
Tb536 Tb 0.32087 0.77998 0.79276 0.0
Eu537 Eu 0.34004 0.83062 0.77981 0.0
C538 C 0.32253 0.82023 0.83207 0.0
C539 C 0.28325 0.80959 0.76719 0.0
C540 C 0.31425 0.71768 0.79164 0.0
C541 C 0.30672 0.67658 0.78252 0.0
C542 C 0.29966 0.69621 0.79197 0.0
C543 C 0.3359 0.71942 0.78175 0.0
C544 C 0.34295 0.6999 0.77232 0.0
C545 C 0.32846 0.67826 0.77261 0.0
C546 C 0.30617 0.73847 0.79979 0.0
O547 O 0.33946 0.77614 0.76095 0.0
O548 O 0.33354 0.80909 0.7444 0.0
O549 O 0.37388 0.81502 0.78895 0.0
O550 O 0.35826 0.7873 0.81238 0.0
C551 C 0.33699 0.78798 0.74183 0.0
O552 O 0.3366 0.86118 0.76047 0.0
O553 O 0.36958 0.85959 0.78243 0.0
O554 O 0.33684 0.83384 0.81995 0.0
O555 O 0.31046 0.80054 0.82198 0.0
O556 O 0.28961 0.78934 0.76962 0.0
O557 O 0.29904 0.8282 0.77518 0.0
C558 C 0.37728 0.80068 0.80592 0.0
O559 O 0.32119 0.75254 0.8152 0.0
O560 O 0.29696 0.74921 0.78244 0.0
C561 C 0.3575 0.89511 0.78124 0.0
C562 C 0.3528 0.93822 0.80073 0.0
C563 C 0.36248 0.93621 0.77876 0.0
C564 C 0.36476 0.9147 0.76903 0.0
C565 C 0.34904 0.8972 0.80379 0.0
C566 C 0.34676 0.91863 0.8135 0.0
C567 C 0.35741 0.87242 0.76988 0.0
H568 H 0.29532 0.6601 0.78318 0.0
H569 H 0.28276 0.69466 0.79932 0.0
H570 H 0.34722 0.73595 0.78104 0.0
H571 H 0.35961 0.70178 0.76449 0.0
H572 H 0.36703 0.95103 0.76846 0.0
H573 H 0.37135 0.91327 0.7516 0.0
H574 H 0.34345 0.88219 0.81347 0.0
H575 H 0.33941 0.91978 0.83056 0.0
Tb576 Tb 0.59529 0.04113 0.05899 0.0
Eu577 Eu 0.56834 0.05281 1.00948 0.0
C578 C 0.58593 1.00133 1.01328 0.0
C579 C 0.62416 0.06893 0.02259 0.0
C580 C 0.60818 0.0348 0.12276 0.0
C581 C 0.60997 0.02611 0.16496 0.0
C582 C 0.61984 0.02652 0.14301 0.0
C583 C 0.58683 0.04279 0.12456 0.0
C584 C 0.5769 0.04214 0.14621 0.0
C585 C 0.58821 0.03359 0.16651 0.0
C586 C 0.61657 0.03341 0.099 0.0
O587 O 0.58637 0.07594 0.06978 0.0
O588 O 0.56813 0.08608 0.03433 0.0
O589 O 0.54135 0.02743 0.02508 0.0
O590 O 0.55836 0.02959 0.06442 0.0
C591 C 0.57652 0.0915 0.05758 0.0
O592 O 0.53877 0.0659 0.99006 0.0
O593 O 0.56447 0.05208 0.97035 0.0
O594 O 0.57891 1.01691 0.99891 0.0
O595 O 0.59161 1.00751 0.03688 0.0
O596 O 0.62303 0.0513 0.03588 0.0
O597 O 0.60467 0.07495 1.01278 0.0
C598 C 0.54074 1.02178 0.04744 0.0
O599 O 0.60343 1.01757 0.084 0.0
O600 O 0.62108 0.05278 0.08891 0.0
C601 C 0.54772 0.08128 0.9529 0.0
C602 C 0.5607 0.10473 0.91263 0.0
C603 C 0.53827 0.09021 0.91153 0.0
C604 C 0.53194 0.07844 0.93156 0.0
C605 C 0.5679 0.09876 0.95551 0.0
C606 C 0.57419 0.11073 0.93548 0.0
C607 C 0.5462 0.06254 0.96904 0.0
H608 H 0.61904 1.01963 0.18054 0.0
H609 H 0.63625 1.02012 0.14175 0.0
H610 H 0.57759 0.0492 0.10905 0.0
H611 H 0.56041 0.04852 0.14713 0.0
H612 H 0.52709 0.08525 0.89448 0.0
H613 H 0.51614 0.06515 0.9294 0.0
H614 H 0.58013 0.10135 0.97212 0.0
H615 H 0.59116 0.1224 0.93715 0.0
Tb616 Tb 0.34391 0.32022 0.30231 0.0
Eu617 Eu 0.31659 0.27441 0.27549 0.0
C618 C 0.34219 0.2744 0.33303 0.0
C619 C 0.3744 0.29305 0.26732 0.0
C620 C 0.35071 0.37997 0.32204 0.0
C621 C 0.35284 0.42098 0.32864 0.0
C622 C 0.36388 0.40174 0.32983 0.0
C623 C 0.32655 0.37761 0.31298 0.0
C624 C 0.31557 0.39666 0.31187 0.0
C625 C 0.32851 0.41855 0.31976 0.0
C626 C 0.36185 0.35957 0.32212 0.0
O627 O 0.32715 0.33283 0.26824 0.0
O628 O 0.31262 0.29965 0.24518 0.0
O629 O 0.28491 0.28683 0.29226 0.0
O630 O 0.30772 0.31651 0.31627 0.0
C631 C 0.31836 0.32226 0.24673 0.0
O632 O 0.3086 0.25093 0.24296 0.0
O633 O 0.29275 0.24132 0.27504 0.0
O634 O 0.32912 0.2626 0.31381 0.0
O635 O 0.35165 0.2962 0.33085 0.0
O636 O 0.37441 0.31038 0.28346 0.0
O637 O 0.35475 0.27706 0.26318 0.0
C638 C 0.2866 0.30272 0.31029 0.0
O639 O 0.35153 0.34284 0.33359 0.0
O640 O 0.36611 0.35222 0.30098 0.0
C641 C 0.30808 0.21335 0.2533 0.0
C642 C 0.33743 0.18053 0.25004 0.0
C643 C 0.32282 0.18468 0.22944 0.0
C644 C 0.30821 0.20113 0.23106 0.0
C645 C 0.32159 0.20795 0.27413 0.0
C646 C 0.33613 0.19168 0.27249 0.0
C647 C 0.29766 0.23422 0.25401 0.0
H648 H 0.36322 0.43768 0.33485 0.0
H649 H 0.38262 0.40385 0.33667 0.0
H650 H 0.31617 0.361 0.3065 0.0
H651 H 0.29696 0.39426 0.30444 0.0
H652 H 0.32374 0.17622 0.21197 0.0
H653 H 0.29814 0.20527 0.21475 0.0
H654 H 0.32208 0.21724 0.29147 0.0
H655 H 0.34729 0.1886 0.28857 0.0
Tb656 Tb 0.57778 0.53492 1.01345 0.0
Eu657 Eu 0.57952 0.55998 0.06344 0.0
C658 C 0.62911 0.56418 0.03701 0.0
C659 C 0.58141 0.5031 0.06058 0.0
C660 C 0.55742 0.49675 0.95725 0.0
C661 C 0.55008 0.4707 0.92129 0.0
C662 C 0.56602 0.48424 0.9393 0.0
C663 C 0.53278 0.49336 0.95876 0.0
C664 C 0.51684 0.48021 0.94052 0.0
C665 C 0.52534 0.47007 0.92064 0.0
C666 C 0.57368 0.51579 0.97146 0.0
O667 O 0.54025 0.52309 0.02165 0.0
O668 O 0.53889 0.54913 0.05251 0.0
O669 O 0.57396 0.59005 0.03978 0.0
O670 O 0.57925 0.57278 1.0039 0.0
C671 C 0.52784 0.5318 0.03728 0.0
O672 O 0.56708 0.56093 0.09917 0.0
O673 O 0.59499 0.58762 0.09081 0.0
O674 O 0.61807 0.57176 0.05446 0.0
O675 O 0.61718 0.54754 0.0213 0.0
O676 O 0.57749 0.50384 0.03652 0.0
O677 O 0.58539 0.52317 0.07354 0.0
C678 C 0.57693 0.59194 1.01662 0.0
O679 O 0.5642 0.53346 0.977 0.0
O680 O 0.58795 0.51077 0.9895 0.0
C681 C 0.59985 0.57382 0.1293 0.0
C682 C 0.63487 0.56573 0.16574 0.0
C683 C 0.63433 0.58806 0.15883 0.0
C684 C 0.61691 0.59207 0.1408 0.0
C685 C 0.60009 0.55154 0.13656 0.0
C686 C 0.6174 0.54756 0.15469 0.0
C687 C 0.58406 0.57781 0.10785 0.0
H688 H 0.5572 0.4625 0.90664 0.0
H689 H 0.58501 0.48633 0.93812 0.0
H690 H 0.52573 0.50252 0.97279 0.0
H691 H 0.49797 0.48011 0.94082 0.0
H692 H 0.64733 0.60244 0.16743 0.0
H693 H 0.61715 0.60936 0.13536 0.0
H694 H 0.58731 0.53708 0.12785 0.0
H695 H 0.61743 0.53018 0.1597 0.0
Tb696 Tb 0.82128 0.2763 0.29331 0.0
Eu697 Eu 0.83816 0.32901 0.28313 0.0
C698 C 0.82306 0.31486 0.33551 0.0
C699 C 0.78254 0.30362 0.26681 0.0
C700 C 0.80879 0.21413 0.28138 0.0
C701 C 0.81894 0.17645 0.27583 0.0
C702 C 0.81465 0.19428 0.29109 0.0
C703 C 0.80638 0.21558 0.25611 0.0
C704 C 0.81062 0.19778 0.24086 0.0
C705 C 0.81747 0.17822 0.25057 0.0
C706 C 0.80757 0.23406 0.29765 0.0
O707 O 0.82744 0.27394 0.25563 0.0
O708 O 0.84663 0.31024 0.24979 0.0
O709 O 0.87042 0.32007 0.30773 0.0
O710 O 0.86128 0.28128 0.30024 0.0
C711 C 0.83879 0.28869 0.24228 0.0
O712 O 0.82869 0.36172 0.27456 0.0
O713 O 0.86593 0.35864 0.27952 0.0
O714 O 0.82461 0.33074 0.31984 0.0
O715 O 0.82335 0.29339 0.32905 0.0
O716 O 0.78717 0.28926 0.28352 0.0
O717 O 0.80061 0.31855 0.26095 0.0
C718 C 0.8768 0.29979 0.30947 0.0
O719 O 0.82801 0.24558 0.30759 0.0
O720 O 0.79357 0.24763 0.28941 0.0
C721 C 0.85551 0.39358 0.29259 0.0
C722 C 0.85481 0.43414 0.32036 0.0
C723 C 0.86067 0.43497 0.29647 0.0
C724 C 0.86088 0.41478 0.28264 0.0
C725 C 0.85143 0.39278 0.31697 0.0
C726 C 0.85098 0.41292 0.33075 0.0
C727 C 0.85072 0.37251 0.2767 0.0
H728 H 0.82455 0.16179 0.28396 0.0
H729 H 0.8168 0.19293 0.31054 0.0
H730 H 0.8019 0.23075 0.24812 0.0
H731 H 0.80911 0.1996 0.22149 0.0
H732 H 0.86344 0.45105 0.28793 0.0
H733 H 0.86392 0.41564 0.26379 0.0
H734 H 0.84728 0.3765 0.32489 0.0
H735 H 0.84658 0.41183 0.34916 0.0
Tb736 Tb 0.09683 0.54762 0.55111 0.0
Eu737 Eu 0.06103 0.55561 0.50657 0.0
C738 C 0.08401 0.50651 0.50669 0.0
C739 C 0.11655 0.57629 0.51013 0.0
C740 C 0.12439 0.56016 0.61169 0.0
C741 C 0.1463 0.58633 0.64469 0.0
C742 C 0.1459 0.56948 0.62606 0.0
C743 C 0.10334 0.56766 0.61628 0.0
C744 C 0.10376 0.58447 0.63458 0.0
C745 C 0.12526 0.59428 0.64872 0.0
C746 C 0.12411 0.54602 0.5893 0.0
O747 O 0.0912 0.58417 0.56061 0.0
O748 O 0.05686 0.58391 0.53592 0.0
O749 O 0.04198 0.52597 0.52339 0.0
O750 O 0.06073 0.53684 0.56127 0.0
C751 C 0.07288 0.59453 0.55384 0.0
O752 O 1.02835 0.56745 0.49279 0.0
O753 O 0.05006 0.5543 0.46787 0.0
O754 O 0.07319 0.52136 0.4943 0.0
O755 O 0.09359 0.51309 0.52959 0.0
O756 O 0.11988 0.5595 0.52376 0.0
O757 O 0.09501 0.58 0.50392 0.0
C758 C 0.04344 0.52405 0.54662 0.0
O759 O 0.1047 0.53098 0.58275 0.0
O760 O 0.13055 0.55779 0.5713 0.0
C761 C 1.03459 0.58622 0.457 0.0
C762 C 0.05467 0.61196 0.42139 0.0
C763 C 1.03128 0.59916 0.41649 0.0
C764 C 1.02166 0.58557 0.43408 0.0
C765 C 0.05454 0.60358 0.46359 0.0
C766 C 0.06465 0.61642 0.44581 0.0
C767 C 1.03268 0.56547 0.47031 0.0
H768 H 0.16305 0.5935 0.65556 0.0
H769 H 0.16241 0.56425 0.62239 0.0
H770 H 0.08657 0.56108 0.60516 0.0
H771 H 0.08713 0.58975 0.63769 0.0
H772 H 1.02231 0.59656 0.39813 0.0
H773 H 1.00584 0.57264 0.42885 0.0
H774 H 0.0644 0.60475 0.48151 0.0
H775 H 0.08216 0.6268 0.45079 0.0
Tb776 Tb 0.81135 0.80401 0.28239 0.0
Eu777 Eu 0.86201 0.79422 0.30441 0.0
C778 C 0.85747 0.83685 0.27226 0.0
C779 C 0.83975 0.77422 0.24899 0.0
C780 C 0.74721 0.79695 0.27523 0.0
C781 C 0.70424 0.78489 0.27012 0.0
C782 C 0.72496 0.79651 0.2619 0.0
C783 C 0.74861 0.78578 0.2968 0.0
C784 C 0.72811 0.77391 0.30479 0.0
C785 C 0.7056 0.77328 0.29161 0.0
C786 C 0.76934 0.80724 0.26609 0.0
O787 O 0.80405 0.771 0.2985 0.0
O788 O 0.83658 0.77478 0.32674 0.0
O789 O 0.85309 0.81861 0.33425 0.0
O790 O 0.81358 0.8182 0.32138 0.0
C791 C 0.81468 0.76521 0.31875 0.0
O792 O 0.88552 0.77007 0.31374 0.0
O793 O 0.89918 0.8066 0.31887 0.0
O794 O 0.86924 0.82038 0.27726 0.0
O795 O 0.83523 0.83541 0.2764 0.0
O796 O 0.82611 0.79016 0.2496 0.0
O797 O 0.85132 0.77002 0.26972 0.0
C798 C 0.83235 0.82416 0.33831 0.0
O799 O 0.78347 0.82286 0.28065 0.0
O800 O 0.78093 0.79241 0.25739 0.0
C801 C 0.92308 0.78367 0.30206 0.0
C802 C 0.95885 0.78291 0.27143 0.0
C803 C 0.9642 0.78234 0.29671 0.0
C804 C 0.94638 0.78274 0.31195 0.0
C805 C 0.91759 0.78368 0.27687 0.0
C806 C 0.93526 0.7833 0.26171 0.0
C807 C 0.9045 0.78614 0.31754 0.0
H808 H 0.6872 0.78518 0.25973 0.0
H809 H 0.72364 0.80498 0.24512 0.0
H810 H 0.76567 0.78592 0.30733 0.0
H811 H 0.73007 0.76503 0.32121 0.0
H812 H 0.9822 0.78191 0.3047 0.0
H813 H 0.95087 0.7828 0.33139 0.0
H814 H 0.8997 0.78466 0.26896 0.0
H815 H 0.93059 0.78426 0.24243 0.0
Tb816 Tb 0.84618 0.324 0.80623 0.0
Eu817 Eu 0.81361 0.28081 0.7711 0.0
C818 C 0.79708 0.32761 0.78266 0.0
C819 C 0.81264 0.28409 0.82943 0.0
C820 C 0.89339 0.37493 0.82865 0.0
C821 C 0.91105 0.41473 0.82545 0.0
C822 C 0.89122 0.398 0.82771 0.0
C823 C 0.91593 0.36889 0.82758 0.0
C824 C 0.93586 0.38571 0.82546 0.0
C825 C 0.93358 0.4088 0.82424 0.0
C826 C 0.87198 0.35774 0.8312 0.0
O827 O 0.86895 0.3002 0.79678 0.0
O828 O 0.84189 0.26667 0.7934 0.0
O829 O 0.84204 0.29742 0.74971 0.0
O830 O 0.849 0.33347 0.76883 0.0
C831 C 0.86371 0.27804 0.79886 0.0
O832 O 0.80936 0.25035 0.74629 0.0
O833 O 0.77867 0.26583 0.75232 0.0
O834 O 0.80047 0.31377 0.7649 0.0
O835 O 0.80928 0.32803 0.80396 0.0
O836 O 0.8315 0.30067 0.83215 0.0
O837 O 0.80116 0.27621 0.80799 0.0
C838 C 0.84977 0.31951 0.74996 0.0
O839 O 0.85279 0.35909 0.81685 0.0
O840 O 0.87468 0.33657 0.83329 0.0
C841 C 0.77117 0.22654 0.74031 0.0
C842 C 0.73801 0.18532 0.73736 0.0
C843 C 0.743 0.19646 0.71631 0.0
C844 C 0.75945 0.21689 0.7178 0.0
C845 C 0.76686 0.21522 0.76136 0.0
C846 C 0.75043 0.19464 0.75988 0.0
C847 C 0.78636 0.24916 0.74136 0.0
H848 H 0.90879 0.43242 0.82506 0.0
H849 H 0.87412 0.40314 0.82881 0.0
H850 H 0.9182 0.35123 0.82838 0.0
H851 H 0.953 0.38064 0.82453 0.0
H852 H 0.73396 0.18951 0.6987 0.0
H853 H 0.76261 0.22547 0.70139 0.0
H854 H 0.77572 0.22259 0.77891 0.0
H855 H 0.7468 0.18648 0.7764 0.0
Tb856 Tb 0.83961 0.82171 0.80351 0.0
Eu857 Eu 0.81945 0.7749 0.77448 0.0
C858 C 0.83909 0.77522 0.83363 0.0
C859 C 0.87608 0.7988 0.77051 0.0
C860 C 0.8366 0.87485 0.83622 0.0
C861 C 0.79719 0.87562 0.84813 0.0
C862 C 0.81624 0.86421 0.846 0.0
C863 C 0.83869 0.89793 0.83116 0.0
C864 C 0.8198 0.90954 0.83374 0.0
C865 C 0.79826 0.89811 0.84095 0.0
C866 C 0.85228 0.86078 0.82583 0.0
O867 O 0.82431 0.83327 0.76823 0.0
O868 O 0.8156 0.80017 0.74415 0.0
O869 O 0.78535 0.78465 0.78878 0.0
O870 O 0.80247 0.81502 0.81512 0.0
C871 C 0.8185 0.82277 0.74623 0.0
O872 O 0.81329 0.75243 0.74124 0.0
O873 O 0.79884 0.74017 0.7732 0.0
O874 O 0.8325 0.76288 0.81263 0.0
O875 O 0.8429 0.79789 0.83326 0.0
O876 O 0.87267 0.81484 0.78692 0.0
O877 O 0.8584 0.78121 0.7642 0.0
C878 C 0.78331 0.7995 0.80679 0.0
O879 O 0.85448 0.84179 0.83574 0.0
O880 O 0.84825 0.85744 0.80243 0.0
C881 C 0.81588 0.71468 0.74955 0.0
C882 C 0.84771 0.68412 0.74539 0.0
C883 C 0.83574 0.69117 0.72449 0.0
C884 C 0.81993 0.7064 0.72658 0.0
C885 C 0.82646 0.70616 0.77035 0.0
C886 C 0.84215 0.69098 0.76826 0.0
C887 C 0.80395 0.73457 0.75175 0.0
H888 H 0.78103 0.86611 0.85367 0.0
H889 H 0.8142 0.84647 0.85027 0.0
H890 H 0.85421 0.90648 0.82357 0.0
H891 H 0.82162 0.92709 0.8288 0.0
H892 H 0.83975 0.68611 0.70665 0.0
H893 H 0.812 0.71278 0.7103 0.0
H894 H 0.82371 0.71217 0.78835 0.0
H895 H 0.85082 0.68543 0.78465 0.0
Tb896 Tb 0.566 0.55598 0.55046 0.0
Eu897 Eu 0.62847 0.57357 0.58124 0.0
C898 C 0.6101 0.55391 0.52614 0.0
C899 C 0.59176 0.52202 0.58115 0.0
C900 C 0.50548 0.56982 0.54337 0.0
C901 C 0.46823 0.58175 0.52918 0.0
C902 C 0.4834 0.56573 0.52886 0.0
C903 C 0.51215 0.59007 0.55847 0.0
C904 C 0.497 0.60612 0.5588 0.0
C905 C 0.47493 0.60223 0.544 0.0
C906 C 0.52164 0.5532 0.54211 0.0
O907 O 0.58795 0.57091 0.58171 0.0
O908 O 0.61045 0.58884 0.61143 0.0
O909 O 0.61799 0.60074 0.55642 0.0
O910 O 0.57665 0.5928 0.5556 0.0
C911 C 0.58851 0.58126 0.60273 0.0
O912 O 0.65773 0.57287 0.60968 0.0
O913 O 0.66567 0.58089 0.57366 0.0
O914 O 0.61786 0.54866 0.548 0.0
O915 O 0.58741 0.555 0.52074 0.0
O916 O 0.5743 0.52461 0.56438 0.0
O917 O 0.61081 0.53776 0.58949 0.0
C918 C 0.59635 0.6049 0.54937 0.0
O919 O 0.53596 0.55591 0.52519 0.0
O920 O 0.5325 0.5488 0.56285 0.0
C921 C 0.6873 0.55555 0.59345 0.0
C922 C 0.71077 0.51807 0.58627 0.0
C923 C 0.72146 0.54039 0.5816 0.0
C924 C 0.70979 0.55893 0.58509 0.0
C925 C 0.67685 0.53338 0.59858 0.0
C926 C 0.68844 0.51491 0.59507 0.0
C927 C 0.67373 0.57447 0.59453 0.0
H928 H 0.45151 0.57835 0.51737 0.0
H929 H 0.47801 0.55024 0.51703 0.0
H930 H 0.52916 0.59359 0.56982 0.0
H931 H 0.50261 0.62162 0.57057 0.0
H932 H 0.7385 0.54345 0.57451 0.0
H933 H 0.71804 0.5758 0.58069 0.0
H934 H 0.65946 0.53023 0.60489 0.0
H935 H 0.67981 0.49807 0.59913 0.0
Tb936 Tb 0.05778 0.52157 0.0469 0.0
Eu937 Eu 0.09348 0.56817 0.04088 0.0
C938 C 0.08811 0.54931 0.09327 0.0
C939 C 0.03602 0.56906 0.04701 0.0
C940 C 1.0158 0.4661 0.03281 0.0
C941 C 0.98055 0.43735 0.01976 0.0
C942 C 0.99216 0.45624 0.03504 0.0
C943 C 1.02741 0.45758 1.01442 0.0
C944 C 1.01594 0.43857 0.99931 0.0
C945 C 0.99252 0.42793 1.00212 0.0
C946 C 1.02803 0.48523 0.04977 0.0
O947 O 0.05095 0.52741 1.00894 0.0
O948 O 0.08575 0.55085 1.00363 0.0
O949 O 0.11923 0.54165 0.04368 0.0
O950 O 0.09118 0.50876 0.03801 0.0
C951 C 0.06541 0.53803 0.99485 0.0
O952 O 0.09977 0.60271 0.02817 0.0
O953 O 0.12921 0.58874 0.04524 0.0
O954 O 0.09351 0.56742 0.08111 0.0
O955 O 0.07567 0.52998 0.08317 0.0
O956 O 0.03616 0.5485 0.05554 0.0
O957 O 0.05566 0.57916 0.03834 0.0
C958 C 0.11418 0.51897 0.04053 0.0
O959 O 0.05099 0.48706 0.05494 0.0
O960 O 1.02215 0.50489 0.04571 0.0
C961 C 0.12931 0.62781 0.05386 0.0
C962 C 0.13967 0.66791 0.08499 0.0
C963 C 0.13614 0.66917 0.05966 0.0
C964 C 0.13106 0.64927 0.04425 0.0
C965 C 0.13319 0.62646 0.0791 0.0
C966 C 0.13847 0.64634 0.09451 0.0
C967 C 0.12202 0.60699 0.03762 0.0
H968 H 0.96244 0.42973 0.02219 0.0
H969 H 0.98283 0.4629 0.04892 0.0
H970 H 0.04558 0.4652 1.01217 0.0
H971 H 1.02591 0.4316 0.98625 0.0
H972 H 0.13647 0.68548 0.05174 0.0
H973 H 0.1279 0.6506 0.02484 0.0
H974 H 0.13176 0.61004 0.08696 0.0
H975 H 0.14134 0.6448 0.11388 0.0
H976 H 0.05353 0.21583 1.00808 0.0
H977 H 0.08433 0.21597 0.94013 0.0
H978 H 0.10982 0.18924 0.95561 0.0
H979 H 0.10857 0.20858 0.04862 0.0
H980 H 0.09088 0.18994 0.06703 0.0
H981 H 0.07883 0.21271 0.05275 0.0
H982 H 0.04236 0.18334 0.03222 0.0
H983 H 0.05419 0.16062 0.04641 0.0
H984 H 0.04731 0.15919 1.01388 0.0
H985 H 0.12547 0.15742 0.97456 0.0
H986 H 0.12894 0.12204 0.99508 0.0
H987 H 0.08961 0.14337 0.05145 0.0
C988 C 0.06604 0.21073 0.99664 0.0
C989 C 0.06688 0.21798 0.97288 0.0
C990 C 0.08332 0.21063 0.95841 0.0
C991 C 0.09806 0.19563 0.96712 0.0
C992 C 0.09639 0.18844 0.99045 0.0
C993 C 0.08088 0.19585 1.00506 0.0
C994 C 0.08003 0.18328 0.02803 0.0
C995 C 0.09019 0.19961 0.05043 0.0
C996 C 0.05447 0.17087 0.03024 0.0
C997 C 0.09637 0.16659 0.02338 0.0
C998 C 0.10609 0.17022 1.00185 0.0
C999 C 0.11875 0.15488 0.99184 0.0
C1000 C 0.12068 0.1349 1.00358 0.0
C1001 C 0.11019 0.13067 0.02511 0.0
C1002 C 0.09871 0.147 0.03562 0.0
H1003 H 0.21873 0.88177 0.17207 0.0
H1004 H 0.16974 0.89854 0.22128 0.0
H1005 H 0.19811 0.89261 0.25611 0.0
H1006 H 0.23037 0.83615 0.19903 0.0
H1007 H 0.26142 0.8389 0.19473 0.0
H1008 H 0.24167 0.85124 0.17415 0.0
H1009 H 0.26862 0.89123 0.18285 0.0
H1010 H 0.289 0.87885 0.20291 0.0
H1011 H 0.27696 0.90294 0.21373 0.0
H1012 H 0.22828 0.87787 0.28492 0.0
H1013 H 0.25818 0.857 0.30482 0.0
H1014 H 0.28476 0.84698 0.23578 0.0
C1015 C 0.21455 0.88551 0.19019 0.0
C1016 C 0.1922 0.89096 0.19398 0.0
C1017 C 0.18694 0.89469 0.21799 0.0
C1018 C 0.20293 0.89129 0.23789 0.0
C1019 C 0.22406 0.88416 0.23342 0.0
C1020 C 0.23005 0.88165 0.21012 0.0
C1021 C 0.25166 0.87032 0.20969 0.0
C1022 C 0.24591 0.84783 0.19345 0.0
C1023 C 0.27281 0.88683 0.20184 0.0
C1024 C 0.25615 0.86582 0.23612 0.0
C1025 C 0.24053 0.87442 0.24971 0.0
C1026 C 0.24081 0.87134 0.27448 0.0
C1027 C 0.25765 0.85934 0.28559 0.0
C1028 C 0.27341 0.85008 0.27173 0.0
C1029 C 0.27263 0.85352 0.24676 0.0
H1030 H 0.55362 0.81796 0.40902 0.0
H1031 H 0.56113 0.78442 0.47632 0.0
H1032 H 0.55928 0.82042 0.4994 0.0
H1033 H 0.58869 0.87314 0.43131 0.0
H1034 H 0.56942 0.8889 0.41397 0.0
H1035 H 0.57228 0.86069 0.40287 0.0
H1036 H 0.5263 0.84752 0.40003 0.0
H1037 H 0.52347 0.87579 0.41099 0.0
H1038 H 0.51148 0.85126 0.42652 0.0
H1039 H 0.55546 0.85952 0.51497 0.0
H1040 H 0.55125 0.89989 0.5221 0.0
H1041 H 0.54536 0.90731 0.44453 0.0
C1042 C 0.55524 0.81831 0.42862 0.0
C1043 C 0.55766 0.79857 0.44096 0.0
C1044 C 0.55933 0.79948 0.46658 0.0
C1045 C 0.55826 0.81978 0.47983 0.0
C1046 C 0.55546 0.83888 0.4671 0.0
C1047 C 0.55404 0.83836 0.4421 0.0
C1048 C 0.55048 0.8611 0.43281 0.0
C1049 C 0.57147 0.87157 0.41946 0.0
C1050 C 0.52651 0.85876 0.41663 0.0
C1051 C 0.55026 0.87451 0.45652 0.0
C1052 C 0.55308 0.86138 0.47608 0.0
C1053 C 0.55325 0.87002 0.49983 0.0
C1054 C 0.5507 0.89285 0.50368 0.0
C1055 C 0.54805 0.90661 0.48386 0.0
C1056 C 0.54768 0.89722 0.46002 0.0
H1057 H 0.58068 0.34044 0.76316 0.0
H1058 H 0.55746 0.31331 0.689 0.0
H1059 H 0.5246 0.28636 0.70277 0.0
H1060 H 0.5612 0.28629 0.7941 0.0
H1061 H 0.5509 0.3019 0.81817 0.0
H1062 H 0.5759 0.31519 0.80362 0.0
H1063 H 0.55431 0.349 0.79347 0.0
H1064 H 0.52948 0.33594 0.80813 0.0
H1065 H 0.52473 0.34312 0.77708 0.0
H1066 H 0.49181 0.26637 0.72306 0.0
H1067 H 0.45832 0.25827 0.74745 0.0
H1068 H 0.50089 0.30008 0.8082 0.0
C1069 C 0.56905 0.32831 0.75002 0.0
C1070 C 0.57165 0.32859 0.72515 0.0
C1071 C 0.55574 0.31315 0.7082 0.0
C1072 C 0.53721 0.29765 0.71587 0.0
C1073 C 0.53477 0.29801 0.74051 0.0
C1074 C 0.55008 0.3131 0.75734 0.0
C1075 C 0.54117 0.31272 0.78197 0.0
C1076 C 0.55832 0.30347 0.80056 0.0
C1077 C 0.53717 0.3366 0.79065 0.0
C1078 C 0.51786 0.29598 0.77602 0.0
C1079 C 0.51497 0.28709 0.75223 0.0
C1080 C 0.49398 0.27292 0.74182 0.0
C1081 C 0.47504 0.2685 0.75575 0.0
C1082 C 0.47711 0.2786 0.77964 0.0
C1083 C 0.49908 0.29174 0.79018 0.0
H1084 H 0.06681 0.89163 0.6497 0.0
H1085 H 0.08195 0.85022 0.58915 0.0
H1086 H 0.08656 0.88428 0.56515 0.0
H1087 H 1.03274 0.92821 0.61267 0.0
H1088 H 0.04403 0.9542 0.63149 0.0
H1089 H 0.04215 0.92684 0.64449 0.0
H1090 H 0.0869 0.93671 0.66039 0.0
H1091 H 0.0889 0.9641 0.64741 0.0
H1092 H 0.10832 0.94486 0.63952 0.0
H1093 H 0.09011 0.92511 0.54596 0.0
H1094 H 0.09116 0.96484 0.53477 0.0
H1095 H 0.07313 0.98317 0.60587 0.0
C1096 C 0.07117 0.88952 0.63139 0.0
C1097 C 0.07399 0.86687 0.62204 0.0
C1098 C 0.07957 0.86631 0.59762 0.0
C1099 C 0.08228 0.88605 0.58354 0.0
C1100 C 0.07941 0.90766 0.59317 0.0
C1101 C 0.07385 0.90951 0.61669 0.0
C1102 C 0.07147 0.93496 0.6224 0.0
C1103 C 0.04609 0.93612 0.62812 0.0
C1104 C 0.08999 0.9458 0.64371 0.0
C1105 C 0.07654 0.94713 0.59873 0.0
C1106 C 0.08115 0.93082 0.58216 0.0
C1107 C 0.08644 0.93762 0.55913 0.0
C1108 C 0.08704 0.96084 0.55278 0.0
C1109 C 0.08238 0.97865 0.5688 0.0
C1110 C 0.07697 0.97096 0.59248 0.0
H1111 H 0.48815 0.78794 0.91035 0.0
H1112 H 0.53665 0.80514 0.85678 0.0
H1113 H 0.50217 0.8078 0.82661 0.0
H1114 H 0.44007 0.75249 0.86821 0.0
H1115 H 0.41637 0.76156 0.88276 0.0
H1116 H 0.44472 0.76115 0.90014 0.0
H1117 H 0.44819 0.80379 0.91398 0.0
H1118 H 0.41988 0.80435 0.89659 0.0
H1119 H 0.44601 0.82445 0.89154 0.0
H1120 H 0.46085 0.81089 0.80187 0.0
H1121 H 0.41909 0.81091 0.7852 0.0
H1122 H 0.39549 0.78892 0.85306 0.0
C1123 C 0.49169 0.79214 0.89223 0.0
C1124 C 0.51594 0.79631 0.88647 0.0
C1125 C 0.51888 0.8017 0.86221 0.0
C1126 C 0.49911 0.80335 0.84479 0.0
C1127 C 0.47571 0.79931 0.85116 0.0
C1128 C 0.47193 0.79349 0.87435 0.0
C1129 C 0.44491 0.78952 0.87645 0.0
C1130 C 0.43599 0.76471 0.88224 0.0
C1131 C 0.43943 0.80654 0.8958 0.0
C1132 C 0.43396 0.79414 0.851 0.0
C1133 C 0.45217 0.80002 0.83679 0.0
C1134 C 0.4467 0.80601 0.813 0.0
C1135 C 0.42258 0.80599 0.80355 0.0
C1136 C 0.40313 0.79963 0.81722 0.0
C1137 C 0.40936 0.79352 0.84153 0.0
H1138 H 0.57891 0.23305 0.08235 0.0
H1139 H 0.55723 0.21999 0.15324 0.0
H1140 H 0.55671 0.17849 0.14437 0.0
H1141 H 0.54163 0.18057 0.05018 0.0
H1142 H 0.56328 0.17629 0.03005 0.0
H1143 H 0.56222 0.20475 0.04207 0.0
H1144 H 0.60668 0.21019 0.05897 0.0
H1145 H 0.60784 0.18171 0.04711 0.0
H1146 H 0.61667 0.18986 0.07887 0.0
H1147 H 0.56179 0.13554 0.12745 0.0
H1148 H 0.56656 0.10006 0.10482 0.0
H1149 H 0.58108 0.13863 0.04246 0.0
C1150 C 0.57375 0.2216 0.09615 0.0
C1151 C 0.56796 0.23117 0.11894 0.0
C1152 C 0.56155 0.21439 0.13573 0.0
C1153 C 0.56138 0.19029 0.13072 0.0
C1154 C 0.56732 0.18176 0.10836 0.0
C1155 C 0.57299 0.19716 0.09115 0.0
C1156 C 0.57806 0.18364 0.06817 0.0
C1157 C 0.56025 0.18649 0.04631 0.0
C1158 C 0.60384 0.19185 0.06296 0.0
C1159 C 0.57449 0.15828 0.07484 0.0
C1160 C 0.56871 0.15766 0.09839 0.0
C1161 C 0.56592 0.13638 0.10896 0.0
C1162 C 0.56877 0.11583 0.0957 0.0
C1163 C 0.57389 0.11516 0.07111 0.0
C1164 C 0.57671 0.1374 0.06084 0.0
H1165 H 0.14861 0.28184 0.35557 0.0
H1166 H 0.18031 0.32555 0.41959 0.0
H1167 H 0.21931 0.33068 0.40373 0.0
H1168 H 0.20124 0.25386 0.35035 0.0
H1169 H 0.19814 0.25213 0.31769 0.0
H1170 H 0.17223 0.25201 0.3334 0.0
H1171 H 0.16248 0.28657 0.31062 0.0
H1172 H 0.1884 0.28682 0.29489 0.0
H1173 H 0.18475 0.31224 0.31198 0.0
H1174 H 0.25684 0.33258 0.37977 0.0
H1175 H 0.28767 0.32872 0.35311 0.0
H1176 H 0.23542 0.2818 0.30385 0.0
C1177 C 0.16369 0.29252 0.3664 0.0
C1178 C 0.16024 0.30333 0.38947 0.0
C1179 C 0.18135 0.3169 0.40227 0.0
C1180 C 0.20403 0.32001 0.39318 0.0
C1181 C 0.20672 0.30933 0.37077 0.0
C1182 C 0.18707 0.29556 0.35759 0.0
C1183 C 0.1954 0.28556 0.33424 0.0
C1184 C 0.1915 0.25933 0.33389 0.0
C1185 C 0.18194 0.29324 0.31158 0.0
C1186 C 0.22251 0.29587 0.3362 0.0
C1187 C 0.22843 0.30973 0.35748 0.0
C1188 C 0.25203 0.32157 0.36326 0.0
C1189 C 0.2698 0.31926 0.34762 0.0
C1190 C 0.26515 0.30493 0.32563 0.0
C1191 C 0.24054 0.29302 0.32018 0.0
H1192 H 0.99915 1.01905 0.18091 0.0
H1193 H 0.946 0.06083 0.16187 0.0
H1194 H 0.96719 0.07405 0.12714 0.0
H1195 H 0.04702 0.05862 0.17329 0.0
H1196 H 0.06445 0.03933 0.16112 0.0
H1197 H 0.04262 0.02914 0.18079 0.0
H1198 H 1.02152 0.99736 0.14815 0.0
H1199 H 0.04373 1.00706 0.12858 0.0
H1200 H 1.01253 1.00495 0.11797 0.0
H1201 H 0.9978 0.08682 0.09843 0.0
H1202 H 1.03288 0.09521 0.0759 0.0
H1203 H 0.06634 0.04634 0.11639 0.0
C1204 C 0.99148 0.03035 0.16891 0.0
C1205 C 0.97098 0.03891 0.1739 0.0
C1206 C 0.96152 0.05384 0.15804 0.0
C1207 C 0.97355 0.06155 0.13844 0.0
C1208 C 0.99471 0.0539 0.13503 0.0
C1209 C 1.00328 0.03824 0.14958 0.0
C1210 C 1.02746 0.03429 0.14391 0.0
C1211 C 0.04649 0.04074 0.1661 0.0
C1212 C 1.02621 1.00944 0.13406 0.0
C1213 C 1.03164 0.05076 0.12444 0.0
C1214 C 1.01251 0.06173 0.11926 0.0
C1215 C 1.01274 0.07813 0.10218 0.0
C1216 C 1.03281 0.08293 0.08966 0.0
C1217 C 0.05239 0.07156 0.09459 0.0
C1218 C 0.0518 0.05551 0.11241 0.0
H1219 H 0.32233 0.76666 0.47235 0.0
H1220 H 0.28137 0.70077 0.44352 0.0
H1221 H 0.27687 0.71544 0.40275 0.0
H1222 H 0.29098 0.80291 0.43294 0.0
H1223 H 0.318 0.82238 0.42918 0.0
H1224 H 0.31577 0.80766 0.45664 0.0
H1225 H 0.35391 0.79156 0.45012 0.0
H1226 H 0.35621 0.80617 0.42264 0.0
H1227 H 0.35514 0.77568 0.42199 0.0
H1228 H 0.27811 0.7366 0.36475 0.0
H1229 H 0.287 0.76176 0.33175 0.0
H1230 H 0.32942 0.81364 0.38411 0.0
C1231 C 0.31195 0.75556 0.45752 0.0
C1232 C 0.30181 0.73266 0.46116 0.0
C1233 C 0.28907 0.71839 0.44117 0.0
C1234 C 0.2864 0.7266 0.41795 0.0
C1235 C 0.2969 0.7491 0.41481 0.0
C1236 C 0.30958 0.76337 0.43399 0.0
C1237 C 0.32074 0.78617 0.42519 0.0
C1238 C 0.31078 0.80595 0.43667 0.0
C1239 C 0.34812 0.79012 0.43029 0.0
C1240 C 0.31247 0.78242 0.39812 0.0
C1241 C 0.29848 0.76101 0.39263 0.0
C1242 C 0.289 0.75343 0.36887 0.0
C1243 C 0.29414 0.76793 0.35019 0.0
C1244 C 0.3089 0.7898 0.35516 0.0
C1245 C 0.318 0.79711 0.37959 0.0
H1246 H 0.56551 0.96253 0.69771 0.0
H1247 H 0.64194 0.96462 0.706 0.0
H1248 H 0.64219 0.96854 0.66235 0.0
H1249 H 0.55309 0.93884 0.62863 0.0
H1250 H 0.53147 0.95729 0.62375 0.0
H1251 H 0.53495 0.94401 0.65208 0.0
H1252 H 0.54164 0.98396 0.67484 0.0
H1253 H 0.53917 0.99751 0.6469 0.0
H1254 H 0.56567 1.00587 0.66827 0.0
H1255 H 0.63772 0.98711 0.62454 0.0
H1256 H 0.62771 1.01306 0.59347 0.0
H1257 H 0.55407 1.0005 0.60809 0.0
C1258 C 0.58207 0.96242 0.6901 0.0
C1259 C 0.60377 0.96378 0.7054 0.0
C1260 C 0.62507 0.96365 0.69478 0.0
C1261 C 0.62538 0.96596 0.66986 0.0
C1262 C 0.60419 0.96786 0.6558 0.0
C1263 C 0.58266 0.96529 0.66535 0.0
C1264 C 0.56349 0.97274 0.64805 0.0
C1265 C 0.54464 0.95198 0.6375 0.0
C1266 C 0.55186 0.99111 0.66026 0.0
C1267 C 0.57825 0.98248 0.62878 0.0
C1268 C 0.60148 0.97875 0.63317 0.0
C1269 C 0.61942 0.98934 0.62036 0.0
C1270 C 0.61364 1.00433 0.603 0.0
C1271 C 0.59012 1.00863 0.59852 0.0
C1272 C 0.57204 0.99701 0.61095 0.0
H1273 H 0.32357 0.36925 0.98116 0.0
H1274 H 0.29039 0.42457 0.95389 0.0
H1275 H 0.29057 0.40909 0.91203 0.0
H1276 H 0.36257 0.36796 0.93254 0.0
H1277 H 0.3602 0.33729 0.93049 0.0
H1278 H 0.35708 0.35202 0.95873 0.0
H1279 H 0.31601 0.32631 0.95976 0.0
H1280 H 0.31901 0.31152 0.93151 0.0
H1281 H 0.29328 0.32461 0.9343 0.0
H1282 H 0.29297 0.38667 0.87129 0.0
H1283 H 0.29981 0.3617 0.83702 0.0
H1284 H 0.334 0.32083 0.88761 0.0
C1285 C 0.31627 0.37816 0.96643 0.0
C1286 C 0.30675 0.39854 0.97177 0.0
C1287 C 0.29777 0.40921 0.95122 0.0
C1288 C 0.29776 0.40039 0.92698 0.0
C1289 C 0.30712 0.38056 0.9224 0.0
C1290 C 0.31648 0.36963 0.9416 0.0
C1291 C 0.32609 0.34888 0.9312 0.0
C1292 C 0.35309 0.3517 0.93869 0.0
C1293 C 0.31282 0.3265 0.93971 0.0
C1294 C 0.32056 0.34978 0.9034 0.0
C1295 C 0.30938 0.36819 0.8989 0.0
C1296 C 0.30191 0.37239 0.8749 0.0
C1297 C 0.30591 0.35787 0.85522 0.0
C1298 C 0.31773 0.33891 0.85867 0.0
C1299 C 0.32512 0.33507 0.88361 0.0
H1300 H 0.94608 1.02191 0.30633 0.0
H1301 H 0.96855 0.09132 0.28706 0.0
H1302 H 1.00074 0.09767 0.32133 0.0
H1303 H 0.96319 0.03336 0.37474 0.0
H1304 H 0.97312 1.00631 0.37658 0.0
H1305 H 0.94875 1.00927 0.3543 0.0
H1306 H 0.9715 0.99469 0.32075 0.0
H1307 H 0.99635 0.99254 0.34269 0.0
H1308 H 1.00096 1.00974 0.31723 0.0
H1309 H 1.03482 0.09385 0.35176 0.0
H1310 H 0.06522 0.08208 0.38101 0.0
H1311 H 1.01993 1.01531 0.38112 0.0
C1312 C 0.95689 0.03882 0.31039 0.0
C1313 C 0.95456 0.05643 0.29484 0.0
C1314 C 0.96979 0.07797 0.29947 0.0
C1315 C 0.9882 0.08163 0.3187 0.0
C1316 C 0.99102 0.0635 0.33299 0.0
C1317 C 0.97545 0.04267 0.32948 0.0
C1318 C 0.98394 0.02528 0.34566 0.0
C1319 C 0.9662 1.01815 0.36391 0.0
C1320 C 0.98845 1.00434 0.33068 0.0
C1321 C 1.00705 0.03934 0.35808 0.0
C1322 C 1.01083 0.06131 0.35058 0.0
C1323 C 1.03178 0.07687 0.35832 0.0
C1324 C 0.04899 0.07 0.37485 0.0
C1325 C 0.04507 0.04778 0.3835 0.0
C1326 C 1.02383 0.0323 0.37471 0.0
H1327 H 0.30237 0.77201 0.59766 0.0
H1328 H 0.32938 0.70824 0.59889 0.0
H1329 H 0.34048 0.715 0.64316 0.0
H1330 H 0.34788 0.80412 0.64233 0.0
H1331 H 0.3277 0.81962 0.65579 0.0
H1332 H 0.32173 0.80972 0.62423 0.0
H1333 H 0.27998 0.7881 0.63133 0.0
H1334 H 0.2858 0.798 0.66289 0.0
H1335 H 0.27759 0.76779 0.65437 0.0
H1336 H 0.34762 0.72831 0.68807 0.0
H1337 H 0.35096 0.7475 0.72913 0.0
H1338 H 0.32064 0.80313 0.69829 0.0
C1339 C 0.31062 0.75941 0.60716 0.0
C1340 C 0.31491 0.73951 0.59456 0.0
C1341 C 0.32585 0.72361 0.60793 0.0
C1342 C 0.33223 0.7273 0.63316 0.0
C1343 C 0.32774 0.74706 0.64495 0.0
C1344 C 0.31723 0.76288 0.63235 0.0
C1345 C 0.31437 0.78276 0.64929 0.0
C1346 C 0.32878 0.80539 0.6425 0.0
C1347 C 0.28786 0.78424 0.64948 0.0
C1348 C 0.32491 0.77568 0.67338 0.0
C1349 C 0.3324 0.75497 0.67055 0.0
C1350 C 0.34199 0.74464 0.69041 0.0
C1351 C 0.34385 0.75568 0.7137 0.0
C1352 C 0.33639 0.777 0.71703 0.0
C1353 C 0.32692 0.78707 0.69644 0.0
H1354 H 0.6398 0.04117 0.84453 0.0
H1355 H 0.57893 0.0281 0.78892 0.0
H1356 H 0.56434 0.06129 0.80543 0.0
H1357 H 0.60666 0.04996 0.89023 0.0
H1358 H 0.62924 0.07131 0.90761 0.0
H1359 H 0.6378 0.05066 0.88744 0.0
H1360 H 0.66095 0.08408 0.86617 0.0
H1361 H 0.6514 0.10477 0.88588 0.0
H1362 H 0.64539 0.10539 0.85345 0.0
H1363 H 0.55366 0.09273 0.82995 0.0
H1364 H 0.54126 0.11055 0.86612 0.0
H1365 H 0.60672 0.10092 0.90806 0.0
C1366 C 0.62368 0.04565 0.83555 0.0
C1367 C 0.61094 0.03245 0.81499 0.0
C1368 C 0.58942 0.03825 0.80428 0.0
C1369 C 0.58109 0.05731 0.81338 0.0
C1370 C 0.59422 0.07022 0.8335 0.0
C1371 C 0.61472 0.06423 0.84488 0.0
C1372 C 0.62262 0.07764 0.86906 0.0
C1373 C 0.62413 0.06143 0.88979 0.0
C1374 C 0.64651 0.09394 0.8686 0.0
C1375 C 0.6024 0.09086 0.87025 0.0
C1376 C 0.58698 0.08736 0.84895 0.0
C1377 C 0.56565 0.0957 0.84668 0.0
C1378 C 0.55874 0.10584 0.86736 0.0
C1379 C 0.57262 0.10649 0.89016 0.0
C1380 C 0.59568 0.10089 0.891 0.0
H1381 H 0.31676 0.3548 0.10313 0.0
H1382 H 0.30268 0.42162 0.12458 0.0
H1383 H 0.3024 0.41032 0.16707 0.0
H1384 H 0.2785 0.32249 0.14359 0.0
H1385 H 0.29814 0.30234 0.14967 0.0
H1386 H 0.29724 0.31575 0.12129 0.0
H1387 H 0.34272 0.33031 0.12924 0.0
H1388 H 0.34375 0.317 0.15767 0.0
H1389 H 0.35522 0.34715 0.15695 0.0
H1390 H 0.30658 0.39118 0.21015 0.0
H1391 H 0.31074 0.36709 0.24491 0.0
H1392 H 0.31909 0.31106 0.19587 0.0
C1393 C 0.31341 0.3672 0.1166 0.0
C1394 C 0.3097 0.38952 0.10949 0.0
C1395 C 0.30541 0.40457 0.12855 0.0
C1396 C 0.30537 0.39817 0.15312 0.0
C1397 C 0.30929 0.37626 0.1593 0.0
C1398 C 0.31288 0.36089 0.14126 0.0
C1399 C 0.3162 0.33815 0.15235 0.0
C1400 C 0.29635 0.31851 0.14105 0.0
C1401 C 0.34094 0.33283 0.14883 0.0
C1402 C 0.31417 0.34292 0.17948 0.0
C1403 C 0.31045 0.36516 0.18318 0.0
C1404 C 0.30914 0.37374 0.20692 0.0
C1405 C 0.31155 0.35971 0.22691 0.0
C1406 C 0.31485 0.33655 0.22401 0.0
C1407 C 0.31608 0.32831 0.19943 0.0
H1408 H 0.27842 0.92629 0.04409 0.0
H1409 H 0.34583 0.96993 0.07224 0.0
H1410 H 0.32444 0.9995 0.08594 0.0
H1411 H 0.24992 0.97153 0.02172 0.0
H1412 H 0.22093 0.9596 0.02981 0.0
H1413 H 0.2413 0.941 0.02296 0.0
H1414 H 0.23812 0.92382 0.06466 0.0
H1415 H 0.21775 0.94239 0.07163 0.0
H1416 H 0.24456 0.94259 0.09192 0.0
H1417 H 0.29668 0.02482 0.09585 0.0
H1418 H 0.26342 0.04523 0.10036 0.0
H1419 H 0.21335 0.986 0.06615 0.0
C1420 C 0.28859 0.94203 0.05324 0.0
C1421 C 0.3138 0.94577 0.05706 0.0
C1422 C 0.32652 0.96665 0.06898 0.0
C1423 C 0.31455 0.98359 0.07695 0.0
C1424 C 0.2898 0.97949 0.07285 0.0
C1425 C 0.27687 0.95933 0.06124 0.0
C1426 C 0.25035 0.95986 0.05855 0.0
C1427 C 0.24002 0.95788 0.03166 0.0
C1428 C 0.23691 0.94105 0.07253 0.0
C1429 C 0.25059 0.98351 0.07026 0.0
C1430 C 0.27356 0.99439 0.07852 0.0
C1431 C 0.27854 1.01646 0.08963 0.0
C1432 C 0.25951 0.02786 0.09225 0.0
C1433 C 0.23576 1.01721 0.08376 0.0
C1434 C 0.23132 0.99466 0.07271 0.0
H1435 H 0.74999 0.66377 0.0436 0.0
H1436 H 0.78683 0.61255 1.01526 0.0
H1437 H 0.7498 0.58343 1.01409 0.0
H1438 H 0.71578 0.62601 0.08268 0.0
H1439 H 0.68964 0.63896 0.07787 0.0
H1440 H 0.71874 0.65566 0.07595 0.0
H1441 H 0.70444 0.66587 0.03287 0.0
H1442 H 0.67532 0.64915 0.03463 0.0
H1443 H 0.69177 0.64324 1.00997 0.0
H1444 H 0.70578 0.55941 1.01381 0.0
H1445 H 0.66362 0.54352 0.01814 0.0
H1446 H 0.65553 0.60909 0.0502 0.0
C1447 C 0.75046 0.64642 0.03714 0.0
C1448 C 0.77207 0.64096 0.02934 0.0
C1449 C 0.77115 0.6177 0.02137 0.0
C1450 C 0.74988 0.60089 0.02058 0.0
C1451 C 0.72905 0.60697 0.02822 0.0
C1452 C 0.7294 0.62925 0.03673 0.0
C1453 C 0.70491 0.63133 0.04469 0.0
C1454 C 0.70742 0.63841 0.07192 0.0
C1455 C 0.69344 0.64842 0.02965 0.0
C1456 C 0.69051 0.60689 0.0392 0.0
C1457 C 0.7047 0.59314 0.02938 0.0
C1458 C 0.69493 0.57021 0.02181 0.0
C1459 C 0.67064 0.5612 0.02434 0.0
C1460 C 0.65558 0.57454 0.03491 0.0
C1461 C 0.66616 0.59791 0.04246 0.0
H1462 H 0.76541 0.50673 0.37005 0.0
H1463 H 0.81688 0.56776 0.36139 0.0
H1464 H 0.8464 0.54371 0.35284 0.0
H1465 H 0.8087 0.47284 0.39759 0.0
H1466 H 0.79277 0.44662 0.38155 0.0
H1467 H 0.77678 0.46872 0.39003 0.0
H1468 H 0.7589 0.46932 0.34523 0.0
H1469 H 0.77472 0.44722 0.33667 0.0
H1470 H 0.77867 0.47385 0.32215 0.0
H1471 H 0.86843 0.51293 0.34032 0.0
H1472 H 0.88109 0.47775 0.32495 0.0
H1473 H 0.81547 0.43715 0.34258 0.0
C1474 C 0.78305 0.51507 0.36686 0.0
C1475 C 0.78889 0.5391 0.36645 0.0
C1476 C 0.81205 0.54936 0.36187 0.0
C1477 C 0.82897 0.53585 0.35708 0.0
C1478 C 0.8225 0.51216 0.35719 0.0
C1479 C 0.80014 0.50187 0.36212 0.0
C1480 C 0.79695 0.47605 0.35922 0.0
C1481 C 0.79361 0.46544 0.38355 0.0
C1482 C 0.77609 0.46604 0.33965 0.0
C1483 C 0.82072 0.47343 0.35113 0.0
C1484 C 0.83534 0.49442 0.3503 0.0
C1485 C 0.85735 0.49637 0.34135 0.0
C1486 C 0.86437 0.47636 0.33261 0.0
C1487 C 0.84941 0.45477 0.33294 0.0
C1488 C 0.82758 0.45335 0.3428 0.0
H1489 H 0.94643 0.411 0.52268 0.0
H1490 H 0.90719 0.44066 0.57457 0.0
H1491 H 0.94149 0.47204 0.58588 0.0
H1492 H 1.00625 0.42718 0.55707 0.0
H1493 H 1.02049 0.43403 0.53036 0.0
H1494 H 0.99394 0.41237 0.5282 0.0
H1495 H 0.97315 0.43396 0.49519 0.0
H1496 H 0.99974 0.45542 0.49709 0.0
H1497 H 0.97162 0.46366 0.50143 0.0
H1498 H 0.97955 0.50142 0.59043 0.0
H1499 H 1.01597 0.52863 0.58349 0.0
H1500 H 1.02933 0.48075 0.5277 0.0
C1501 C 0.9452 0.42395 0.53661 0.0
C1502 C 0.92416 0.42331 0.54777 0.0
C1503 C 0.92309 0.44083 0.56565 0.0
C1504 C 0.94257 0.45863 0.57241 0.0
C1505 C 0.96305 0.45883 0.56107 0.0
C1506 C 0.9644 0.4421 0.54333 0.0
C1507 C 0.98753 0.44751 0.53225 0.0
C1508 C 1.00296 0.42918 0.53728 0.0
C1509 C 0.98271 0.45032 0.50488 0.0
C1510 C 0.99865 0.47008 0.54614 0.0
C1511 C 0.98459 0.47611 0.56311 0.0
C1512 C 0.99084 0.4968 0.57735 0.0
C1513 C 1.01158 0.51207 0.57348 0.0
C1514 C 1.02536 0.5066 0.55525 0.0
C1515 C 1.01911 0.48515 0.54194 0.0
H1516 H 0.46536 0.16059 0.29351 0.0
H1517 H 0.43491 0.0883 0.29047 0.0
H1518 H 0.39882 0.09537 0.26578 0.0
H1519 H 0.41549 0.1793 0.30478 0.0
H1520 H 0.41935 0.20416 0.28732 0.0
H1521 H 0.44491 0.19279 0.29914 0.0
H1522 H 0.45717 0.18888 0.25583 0.0
H1523 H 0.43149 0.20029 0.24387 0.0
H1524 H 0.43616 0.17295 0.23187 0.0
H1525 H 0.36357 0.11092 0.24835 0.0
H1526 H 0.33177 0.13413 0.24156 0.0
H1527 H 0.38472 0.19612 0.25656 0.0
C1528 C 0.45146 0.14617 0.28683 0.0
C1529 C 0.45292 0.12392 0.29367 0.0
C1530 C 0.43412 0.10551 0.28531 0.0
C1531 C 0.41364 0.10932 0.27111 0.0
C1532 C 0.41229 0.13163 0.26538 0.0
C1533 C 0.43078 0.14976 0.2729 0.0
C1534 C 0.42353 0.17245 0.2677 0.0
C1535 C 0.42595 0.18806 0.29113 0.0
C1536 C 0.43794 0.18433 0.24868 0.0
C1537 C 0.3977 0.16433 0.25751 0.0
C1538 C 0.39169 0.14071 0.25559 0.0
C1539 C 0.36816 0.1294 0.24913 0.0
C1540 C 0.35024 0.14261 0.24529 0.0
C1541 C 0.3561 0.16671 0.2483 0.0
C1542 C 0.38009 0.17764 0.25369 0.0
H1543 H 0.40491 0.11112 0.53371 0.0
H1544 H 0.44043 0.18187 0.54723 0.0
H1545 H 0.47946 0.16936 0.55113 0.0
H1546 H 0.44699 0.08562 0.57423 0.0
H1547 H 0.44654 0.06078 0.55417 0.0
H1548 H 0.421 0.07477 0.55285 0.0
H1549 H 0.42301 0.07962 0.50723 0.0
H1550 H 0.4485 0.06557 0.50846 0.0
H1551 H 0.45042 0.09369 0.49728 0.0
H1552 H 0.51682 0.14876 0.55483 0.0
H1553 H 0.54672 0.12369 0.55562 0.0
H1554 H 0.49019 0.06468 0.5374 0.0
C1555 C 0.42083 0.12412 0.53762 0.0
C1556 C 0.4185 0.14805 0.54036 0.0
C1557 C 0.44063 0.16371 0.54508 0.0
C1558 C 0.46332 0.15661 0.54737 0.0
C1559 C 0.46492 0.13328 0.54462 0.0
C1560 C 0.44416 0.11719 0.53957 0.0
C1561 C 0.4513 0.09319 0.53669 0.0
C1562 C 0.44082 0.07766 0.5556 0.0
C1563 C 0.44279 0.08236 0.51088 0.0
C1564 C 0.47906 0.09816 0.54127 0.0
C1565 C 0.48636 0.12155 0.54592 0.0
C1566 C 0.51088 0.1305 0.5511 0.0
C1567 C 0.52811 0.11577 0.55161 0.0
C1568 C 0.52195 0.09151 0.54677 0.0
C1569 C 0.49646 0.08287 0.54132 0.0
H1570 H 0.71846 0.65562 0.33942 0.0
H1571 H 0.76735 0.64591 0.40156 0.0
H1572 H 0.79135 0.68403 0.39789 0.0
H1573 H 0.76156 0.67843 0.30537 0.0
H1574 H 0.74602 0.69903 0.29107 0.0
H1575 H 0.72939 0.67358 0.30145 0.0
H1576 H 0.70746 0.69798 0.32849 0.0
H1577 H 0.7233 0.7231 0.31669 0.0
H1578 H 0.7248 0.72072 0.349 0.0
H1579 H 0.8129 0.7197 0.38454 0.0
H1580 H 0.83153 0.75117 0.36212 0.0
H1581 H 0.77003 0.73803 0.30694 0.0
C1582 C 0.73366 0.66205 0.3528 0.0
C1583 C 0.7409 0.64818 0.3711 0.0
C1584 C 0.76144 0.65651 0.38767 0.0
C1585 C 0.77511 0.67813 0.38575 0.0
C1586 C 0.76806 0.69113 0.36703 0.0
C1587 C 0.74779 0.68353 0.35085 0.0
C1588 C 0.74608 0.69955 0.33051 0.0
C1589 C 0.74576 0.68688 0.30564 0.0
C1590 C 0.72412 0.71103 0.33125 0.0
C1591 C 0.76909 0.71672 0.33728 0.0
C1592 C 0.78115 0.71172 0.35869 0.0
C1593 C 0.8035 0.72403 0.36795 0.0
C1594 C 0.81401 0.74182 0.35493 0.0
C1595 C 0.80234 0.74707 0.33266 0.0
C1596 C 0.77937 0.73453 0.32395 0.0
H1597 H 0.99551 0.53061 0.78998 0.0
H1598 H 0.05534 0.52545 0.84317 0.0
H1599 H 0.03821 0.48489 0.84689 0.0
H1600 H 0.95282 0.50075 0.81988 0.0
H1601 H 0.93404 0.48657 0.79342 0.0
H1602 H 0.95308 0.51363 0.7912 0.0
H1603 H 0.97282 0.49592 0.75696 0.0
H1604 H 0.95358 0.46878 0.75881 0.0
H1605 H 0.98549 0.47062 0.76194 0.0
H1606 H 1.01184 0.44657 0.84897 0.0
H1607 H 0.97839 0.4141 0.84932 0.0
H1608 H 0.93585 0.44471 0.79516 0.0
C1609 C 1.00552 0.52078 0.80176 0.0
C1610 C 1.02695 0.5312 0.81605 0.0
C1611 C 0.03904 0.51782 0.83181 0.0
C1612 C 1.02945 0.49473 0.83405 0.0
C1613 C 1.00783 0.48524 0.82033 0.0
C1614 C 0.99612 0.49783 0.80435 0.0
C1615 C 0.9719 0.48455 0.79375 0.0
C1616 C 0.95179 0.49712 0.79995 0.0
C1617 C 0.9709 0.47968 0.76623 0.0
C1618 C 0.97144 0.46284 0.80689 0.0
C1619 C 0.99245 0.46336 0.82185 0.0
C1620 C 0.99548 0.4458 0.83698 0.0
C1621 C 0.97642 0.4274 0.83702 0.0
C1622 C 0.95455 0.42688 0.82224 0.0
C1623 C 0.95233 0.44467 0.8067 0.0
H1624 H 0.09143 0.92568 0.14335 0.0
H1625 H 0.12753 0.89042 0.09267 0.0
H1626 H 0.11865 0.91684 0.06171 0.0
H1627 H 0.04448 0.93836 0.09838 0.0
H1628 H 0.04458 0.96632 0.1124 0.0
H1629 H 0.05212 0.94384 0.1307 0.0
H1630 H 0.09269 0.969 0.14768 0.0
H1631 H 0.08506 0.99185 0.13016 0.0
H1632 H 0.11241 0.98163 0.12691 0.0
H1633 H 0.10933 0.94839 0.03761 0.0
H1634 H 0.10275 0.98557 0.02292 0.0
H1635 H 0.07121 1.00009 0.08785 0.0
C1636 C 0.09738 0.92352 0.12571 0.0
C1637 C 0.11011 0.90598 0.12038 0.0
C1638 C 0.11771 0.90371 0.09714 0.0
C1639 C 0.11258 0.91851 0.07935 0.0
C1640 C 0.09971 0.9354 0.08501 0.0
C1641 C 0.09234 0.93815 0.10763 0.0
C1642 C 0.08016 0.95872 0.10938 0.0
C1643 C 0.05377 0.95136 0.11293 0.0
C1644 C 0.09338 0.97634 0.12972 0.0
C1645 C 0.08271 0.96755 0.08452 0.0
C1646 C 0.09368 0.95355 0.07063 0.0
C1647 C 0.10019 0.95921 0.04799 0.0
C1648 C 0.09628 0.98022 0.03971 0.0
C1649 C 0.08579 0.99504 0.05396 0.0
C1650 C 0.07827 0.98841 0.07626 0.0
H1651 H 0.95194 0.26825 0.91505 0.0
H1652 H 0.97572 0.21269 0.87713 0.0
H1653 H 0.94459 0.21364 0.84251 0.0
H1654 H 0.8882 0.25485 0.89269 0.0
H1655 H 0.88664 0.28461 0.8898 0.0
H1656 H 0.90769 0.27659 0.91281 0.0
H1657 H 0.94208 0.30335 0.89613 0.0
H1658 H 0.92122 0.31127 0.87293 0.0
H1659 H 0.94641 0.29957 0.86467 0.0
H1660 H 0.9109 0.22207 0.8116 0.0
H1661 H 0.88111 0.23945 0.78622 0.0
H1662 H 0.88467 0.29222 0.8436 0.0
C1663 C 0.95002 0.25569 0.89984 0.0
C1664 C 0.96555 0.23988 0.89892 0.0
C1665 C 0.96349 0.22455 0.87823 0.0
C1666 C 0.94593 0.22502 0.85858 0.0
C1667 C 0.93117 0.24128 0.85987 0.0
C1668 C 0.93331 0.25647 0.87996 0.0
C1669 C 0.91771 0.27422 0.876 0.0
C1670 C 0.89895 0.27244 0.8939 0.0
C1671 C 0.93276 0.29852 0.87752 0.0
C1672 C 0.90637 0.26674 0.85049 0.0
C1673 C 0.91385 0.24745 0.84154 0.0
C1674 C 0.90508 0.23727 0.81839 0.0
C1675 C 0.8883 0.24718 0.80412 0.0
C1676 C 0.88125 0.26731 0.81296 0.0
C1677 C 0.89033 0.27709 0.83635 0.0
H1678 H 0.65727 0.31346 0.63527 0.0
H1679 H 0.59646 0.30584 0.67617 0.0
H1680 H 0.58487 0.2654 0.66103 0.0
H1681 H 0.62987 0.27428 0.58313 0.0
H1682 H 0.65637 0.26241 0.58037 0.0
H1683 H 0.6589 0.29152 0.59245 0.0
H1684 H 0.68401 0.28265 0.63132 0.0
H1685 H 0.68167 0.25359 0.6193 0.0
H1686 H 0.67217 0.25923 0.64848 0.0
H1687 H 0.57987 0.22638 0.64229 0.0
H1688 H 0.5845 0.18875 0.62481 0.0
H1689 H 0.65009 0.22015 0.59825 0.0
C1690 C 0.64146 0.30321 0.6408 0.0
C1691 C 0.62763 0.31259 0.65672 0.0
C1692 C 0.60727 0.29879 0.66402 0.0
C1693 C 0.60044 0.27592 0.65537 0.0
C1694 C 0.61439 0.26708 0.63974 0.0
C1695 C 0.63469 0.28008 0.63279 0.0
C1696 C 0.64758 0.26563 0.61754 0.0
C1697 C 0.64821 0.27396 0.59185 0.0
C1698 C 0.67285 0.26525 0.62991 0.0
C1699 C 0.63144 0.24252 0.61731 0.0
C1700 C 0.61215 0.24395 0.62979 0.0
C1701 C 0.59484 0.22497 0.63239 0.0
C1702 C 0.59755 0.20375 0.62234 0.0
C1703 C 0.61758 0.20174 0.61022 0.0
C1704 C 0.63462 0.22137 0.60747 0.0
H1705 H 0.62003 0.74234 0.39191 0.0
H1706 H 0.56312 0.71733 0.33385 0.0
H1707 H 0.59264 0.72023 0.30439 0.0
H1708 H 0.64839 0.78452 0.36182 0.0
H1709 H 0.6784 0.7826 0.37391 0.0
H1710 H 0.65411 0.77341 0.39105 0.0
H1711 H 0.66576 0.73327 0.39336 0.0
H1712 H 0.69038 0.74248 0.37642 0.0
H1713 H 0.66865 0.71726 0.36582 0.0
H1714 H 0.62752 0.73119 0.28077 0.0
H1715 H 0.66448 0.74922 0.2651 0.0
H1716 H 0.69699 0.76988 0.33891 0.0
C1717 C 0.61385 0.73662 0.37315 0.0
C1718 C 0.58936 0.72942 0.36515 0.0
C1719 C 0.58188 0.72271 0.34035 0.0
C1720 C 0.59852 0.72426 0.32351 0.0
C1721 C 0.62248 0.73248 0.33186 0.0
C1722 C 0.63013 0.73837 0.35617 0.0
C1723 C 0.65614 0.74964 0.3602 0.0
C1724 C 0.65942 0.77397 0.37245 0.0
C1725 C 0.67111 0.73477 0.37482 0.0
C1726 C 0.66165 0.75013 0.3343 0.0
C1727 C 0.64227 0.73967 0.31822 0.0
C1728 C 0.6429 0.7392 0.29323 0.0
C1729 C 0.66388 0.74977 0.28449 0.0
C1730 C 0.68376 0.76105 0.30072 0.0
C1731 C 0.68248 0.76098 0.32593 0.0
H1732 H 0.06605 0.22903 0.48613 0.0
H1733 H 0.10899 0.22393 0.42745 0.0
H1734 H 0.11191 0.18419 0.43757 0.0
H1735 H 0.09742 0.19607 0.52894 0.0
H1736 H 0.0709 0.18211 0.54063 0.0
H1737 H 0.07175 0.2098 0.52855 0.0
H1738 H 1.03409 0.19369 0.49892 0.0
H1739 H 1.03315 0.16595 0.5109 0.0
H1740 H 1.03383 0.16889 0.47888 0.0
H1741 H 0.10859 0.14108 0.45439 0.0
H1742 H 0.10245 0.10533 0.47568 0.0
H1743 H 0.06388 0.13715 0.52631 0.0
C1744 C 0.07622 0.21978 0.47521 0.0
C1745 C 0.08728 0.23108 0.45542 0.0
C1746 C 0.10017 0.21702 0.44243 0.0
C1747 C 0.1019 0.19388 0.44822 0.0
C1748 C 0.09081 0.18356 0.46756 0.0
C1749 C 0.07828 0.19638 0.48098 0.0
C1750 C 0.06806 0.1814 0.50103 0.0
C1751 C 0.07759 0.19304 0.5263 0.0
C1752 C 0.04066 0.17725 0.49722 0.0
C1753 C 0.07708 0.15836 0.49744 0.0
C1754 C 0.08979 0.15987 0.47758 0.0
C1755 C 0.0988 0.1404 0.46998 0.0
C1756 C 0.09507 0.11961 0.48243 0.0
C1757 C 0.08272 0.11705 0.50343 0.0
C1758 C 0.07372 0.1375 0.51078 0.0
H1759 H 0.67089 0.32059 0.16499 0.0
H1760 H 0.6221 0.2935 0.21513 0.0
H1761 H 0.65666 0.28946 0.24457 0.0
H1762 H 0.71544 0.28518 0.17876 0.0
H1763 H 0.74072 0.30745 0.17662 0.0
H1764 H 0.71235 0.30826 0.15949 0.0
H1765 H 0.71305 0.34874 0.17884 0.0
H1766 H 0.74147 0.34809 0.19595 0.0
H1767 H 0.71678 0.35352 0.2114 0.0
H1768 H 0.69844 0.28614 0.26876 0.0
H1769 H 0.74045 0.2872 0.2854 0.0
H1770 H 0.7638 0.31904 0.22163 0.0
C1771 C 0.66729 0.31394 0.18223 0.0
C1772 C 0.6429 0.30743 0.1872 0.0
C1773 C 0.63993 0.29884 0.21033 0.0
C1774 C 0.65977 0.29636 0.22733 0.0
C1775 C 0.6833 0.30274 0.22171 0.0
C1776 C 0.68709 0.31169 0.19972 0.0
C1777 C 0.71422 0.31774 0.1983 0.0
C1778 C 0.72109 0.30384 0.17702 0.0
C1779 C 0.72183 0.34356 0.19598 0.0
C1780 C 0.72522 0.3107 0.22274 0.0
C1781 C 0.70696 0.30183 0.23585 0.0
C1782 C 0.71258 0.29335 0.25849 0.0
C1783 C 0.73687 0.29399 0.26793 0.0
C1784 C 0.75634 0.30341 0.25544 0.0
C1785 C 0.74993 0.31195 0.23227 0.0
H1786 H 0.59053 0.88386 0.92138 0.0
H1787 H 0.591 0.84654 0.98635 0.0
H1788 H 0.58977 0.88209 1.01062 0.0
H1789 H 0.62686 0.9385 0.94934 0.0
H1790 H 0.61002 0.95677 0.93261 0.0
H1791 H 0.61125 0.92863 0.91977 0.0
H1792 H 0.56533 0.91866 0.91424 0.0
H1793 H 0.56398 0.94678 0.92704 0.0
H1794 H 0.54931 0.9217 0.93999 0.0
H1795 H 0.58951 0.9237 0.02972 0.0
H1796 H 0.58822 0.96401 0.04048 0.0
H1797 H 0.58573 0.9779 0.96453 0.0
C1798 C 0.59038 0.88298 0.94074 0.0
C1799 C 0.59102 0.86109 0.95135 0.0
C1800 C 0.5906 0.86203 0.97699 0.0
C1801 C 0.58991 0.88261 0.99122 0.0
C1802 C 0.58936 0.90348 0.98037 0.0
C1803 C 0.58937 0.90382 0.95553 0.0
C1804 C 0.58816 0.92878 0.94861 0.0
C1805 C 0.61039 0.93876 0.93687 0.0
C1806 C 0.56534 0.92899 0.93143 0.0
C1807 C 0.5876 0.94238 0.97321 0.0
C1808 C 0.58848 0.92719 0.99123 0.0
C1809 C 0.58871 0.93536 1.01543 0.0
C1810 C 0.588 0.95888 0.0215 0.0
C1811 C 0.58678 0.97559 1.00397 0.0
C1812 C 0.58651 0.96651 0.97906 0.0
H1813 H 0.97344 0.78701 0.66857 0.0
H1814 H 1.02935 0.81753 0.72549 0.0
H1815 H 0.9991 0.82047 0.75315 0.0
H1816 H 0.92708 0.81921 0.68519 0.0
H1817 H 0.90261 0.7953 0.67958 0.0
H1818 H 0.92823 0.7962 0.66328 0.0
H1819 H 0.93394 0.75686 0.67798 0.0
H1820 H 0.90831 0.75586 0.69428 0.0
H1821 H 0.93666 0.75279 0.71 0.0
H1822 H 0.9611 0.8222 0.77604 0.0
H1823 H 0.92189 0.81871 0.79152 0.0
H1824 H 0.888 0.78334 0.72334 0.0
C1825 C 0.97949 0.79444 0.6868 0.0
C1826 C 1.00495 0.80229 0.69401 0.0
C1827 C 1.0108 0.81137 0.71861 0.0
C1828 C 0.99336 0.81319 0.7348 0.0
C1829 C 0.96891 0.80544 0.72728 0.0
C1830 C 0.96192 0.79584 0.70385 0.0
C1831 C 0.9343 0.78782 0.70109 0.0
C1832 C 0.92234 0.80037 0.68108 0.0
C1833 C 0.92792 0.76178 0.69549 0.0
C1834 C 0.92693 0.79457 0.72625 0.0
C1835 C 0.94736 0.80505 0.74092 0.0
C1836 C 0.94528 0.81369 0.7645 0.0
C1837 C 0.92247 0.81163 0.77334 0.0
C1838 C 0.90077 0.80043 0.75948 0.0
C1839 C 0.90363 0.79174 0.73524 0.0
H1840 H 0.22151 0.06461 0.92495 0.0
H1841 H 0.168 0.0445 0.8627 0.0
H1842 H 0.13758 0.03268 0.88986 0.0
H1843 H 0.19631 1.01994 0.96547 0.0
H1844 H 0.20333 0.03987 0.99181 0.0
H1845 H 0.22197 0.04265 0.96764 0.0
H1846 H 0.2159 0.08458 0.96381 0.0
H1847 H 0.19733 0.08192 0.9879 0.0
H1848 H 0.18601 0.09048 0.95889 0.0
H1849 H 0.11218 0.02768 0.92303 0.0
H1850 H 0.09304 0.03186 0.96016 0.0
H1851 H 0.16273 0.05602 1.00104 0.0
C1852 C 0.20354 0.05709 0.91712 0.0
C1853 C 0.19704 0.05527 0.89184 0.0
C1854 C 0.17326 0.04598 0.8821 0.0
C1855 C 0.15592 0.03905 0.89734 0.0
C1856 C 0.16269 0.04153 0.92225 0.0
C1857 C 0.18591 0.05034 0.93213 0.0
C1858 C 0.18779 0.05393 0.95943 0.0
C1859 C 0.20327 0.03815 0.97182 0.0
C1860 C 0.19731 0.07922 0.96799 0.0
C1861 C 0.16186 0.04677 0.96316 0.0
C1862 C 0.14778 0.03914 0.94157 0.0
C1863 C 0.12303 0.03324 0.94016 0.0
C1864 C 0.11232 0.03571 0.96133 0.0
C1865 C 0.12638 0.04432 0.98346 0.0
C1866 C 0.15149 0.04931 0.98441 0.0
H1867 H 0.84011 0.37669 0.62273 0.0
H1868 H 0.89549 0.33951 0.60487 0.0
H1869 H 0.89992 0.32744 0.64624 0.0
H1870 H 0.86679 0.39517 0.686 0.0
H1871 H 0.83838 0.39117 0.69775 0.0
H1872 H 0.84035 0.3988 0.66696 0.0
H1873 H 0.80824 0.36329 0.6515 0.0
H1874 H 0.80619 0.35563 0.68222 0.0
H1875 H 0.81273 0.33533 0.65995 0.0
H1876 H 0.89655 0.31615 0.68758 0.0
H1877 H 0.8851 0.30633 0.72781 0.0
H1878 H 0.83312 0.3512 0.72148 0.0
C1879 C 0.85335 0.36627 0.62766 0.0
C1880 C 0.86736 0.35904 0.6103 0.0
C1881 C 0.88433 0.34519 0.61754 0.0
C1882 C 0.88716 0.3383 0.64116 0.0
C1883 C 0.873 0.34539 0.65766 0.0
C1884 C 0.85643 0.35907 0.65143 0.0
C1885 C 0.84274 0.36308 0.67274 0.0
C1886 C 0.84735 0.38858 0.68137 0.0
C1887 C 0.81589 0.35377 0.66621 0.0
C1888 C 0.85393 0.34909 0.69151 0.0
C1889 C 0.87145 0.33919 0.68232 0.0
C1890 C 0.88322 0.32413 0.69523 0.0
C1891 C 0.87666 0.31868 0.71804 0.0
C1892 C 0.85877 0.32847 0.72786 0.0
C1893 C 0.84747 0.34414 0.71462 0.0
H1894 H 0.49929 0.1283 0.41166 0.0
H1895 H 0.5625 0.1632 0.38394 0.0
H1896 H 0.58666 0.15918 0.42237 0.0
H1897 H 0.52066 0.14582 0.48086 0.0
H1898 H 0.50709 0.11769 0.48815 0.0
H1899 H 0.49336 0.13125 0.46344 0.0
H1900 H 0.49414 0.09576 0.43416 0.0
H1901 H 0.50744 0.08259 0.4591 0.0
H1902 H 0.52224 0.08642 0.43231 0.0
H1903 H 0.60534 0.1414 0.45702 0.0
H1904 H 0.6161 0.11386 0.48655 0.0
H1905 H 0.54097 0.08904 0.49054 0.0
C1906 C 0.51788 0.13648 0.41441 0.0
C1907 C 0.52907 0.14626 0.39511 0.0
C1908 C 0.55364 0.15593 0.39876 0.0
C1909 C 0.5675 0.15368 0.42053 0.0
C1910 C 0.55642 0.14189 0.43847 0.0
C1911 C 0.53197 0.13392 0.43591 0.0
C1912 C 0.52509 0.11795 0.45538 0.0
C1913 C 0.51071 0.12884 0.473 0.0
C1914 C 0.51143 0.09432 0.44454 0.0
C1915 C 0.54956 0.1164 0.46756 0.0
C1916 C 0.56739 0.13092 0.45826 0.0
C1917 C 0.59151 0.13042 0.46493 0.0
C1918 C 0.59749 0.11461 0.48144 0.0
C1919 C 0.57935 0.09916 0.49036 0.0
C1920 C 0.55521 0.1005 0.48371 0.0
H1921 H 0.82459 0.73279 0.10278 0.0
H1922 H 0.87238 0.68521 0.11941 0.0
H1923 H 0.87597 0.69861 0.16305 0.0
H1924 H 0.85412 0.77914 0.14639 0.0
H1925 H 0.82677 0.78738 0.15359 0.0
H1926 H 0.82812 0.77404 0.12411 0.0
H1927 H 0.7923 0.7427 0.13003 0.0
H1928 H 0.79082 0.75594 0.15952 0.0
H1929 H 0.79368 0.72627 0.15638 0.0
H1930 H 0.87422 0.71883 0.20712 0.0
H1931 H 0.86747 0.74109 0.24344 0.0
H1932 H 0.82013 0.77584 0.19885 0.0
C1933 C 0.83596 0.72496 0.11537 0.0
C1934 C 0.84827 0.70753 0.10656 0.0
C1935 C 0.86266 0.69833 0.12468 0.0
C1936 C 0.86479 0.70601 0.14986 0.0
C1937 C 0.85243 0.72314 0.15757 0.0
C1938 C 0.8382 0.73241 0.14059 0.0
C1939 C 0.82652 0.75051 0.15325 0.0
C1940 C 0.83435 0.77417 0.14376 0.0
C1941 C 0.79921 0.74344 0.14957 0.0
C1942 C 0.83627 0.75027 0.18014 0.0
C1943 C 0.85125 0.73433 0.18221 0.0
C1944 C 0.86243 0.73115 0.20521 0.0
C1945 C 0.85837 0.74412 0.22612 0.0
C1946 C 0.84306 0.76068 0.22504 0.0
C1947 C 0.83192 0.76355 0.20115 0.0
H1948 H 0.19688 0.13337 0.78617 0.0
H1949 H 0.24099 0.08374 0.7703 0.0
H1950 H 0.23682 0.09236 0.72714 0.0
H1951 H 0.15532 0.11834 0.74138 0.0
H1952 H 0.14945 0.14623 0.7343 0.0
H1953 H 0.16227 0.14196 0.76413 0.0
H1954 H 0.19797 0.17461 0.76073 0.0
H1955 H 0.18511 0.17901 0.73063 0.0
H1956 H 0.21518 0.17362 0.73559 0.0
H1957 H 0.21878 0.0979 0.68588 0.0
H1958 H 0.18836 0.0988 0.65134 0.0
H1959 H 0.15687 0.14626 0.69329 0.0
C1960 C 0.20636 0.12494 0.7737 0.0
C1961 C 0.21907 0.10781 0.78134 0.0
C1962 C 0.23126 0.09703 0.76471 0.0
C1963 C 0.22908 0.10194 0.74022 0.0
C1964 C 0.21523 0.1181 0.73292 0.0
C1965 C 0.20446 0.12979 0.74936 0.0
C1966 C 0.18735 0.14336 0.73676 0.0
C1967 C 0.16213 0.13705 0.7446 0.0
C1968 C 0.19699 0.16918 0.74119 0.0
C1969 C 0.188 0.13538 0.71067 0.0
C1970 C 0.20493 0.1216 0.7087 0.0
C1971 C 0.20608 0.10927 0.68703 0.0
C1972 C 0.18872 0.10995 0.66741 0.0
C1973 C 0.17028 0.12264 0.66973 0.0
C1974 C 0.17092 0.13659 0.69108 0.0
H1975 H 0.84326 0.3957 0.46026 0.0
H1976 H 0.83621 0.33231 0.4967 0.0
H1977 H 0.82779 0.31025 0.45737 0.0
H1978 H 0.79735 0.37595 0.40926 0.0
H1979 H 0.81392 0.39042 0.387 0.0
H1980 H 0.8186 0.40196 0.41806 0.0
H1981 H 0.86376 0.40143 0.4195 0.0
H1982 H 0.85916 0.38993 0.38843 0.0
H1983 H 0.87344 0.37507 0.41163 0.0
H1984 H 0.81974 0.29451 0.4151 0.0
H1985 H 0.8161 0.28555 0.37124 0.0
H1986 H 0.82974 0.35825 0.35981 0.0
C1987 C 0.83988 0.37719 0.45986 0.0
C1988 C 0.84032 0.36579 0.48172 0.0
C1989 C 0.83606 0.34153 0.48038 0.0
C1990 C 0.83111 0.32876 0.45805 0.0
C1991 C 0.83069 0.34036 0.43694 0.0
C1992 C 0.83524 0.364 0.43746 0.0
C1993 C 0.83475 0.37179 0.41169 0.0
C1994 C 0.81497 0.38587 0.40619 0.0
C1995 C 0.85924 0.38536 0.40758 0.0
C1996 C 0.82911 0.34883 0.39686 0.0
C1997 C 0.82667 0.33105 0.41199 0.0
C1998 C 0.82167 0.30826 0.40302 0.0
C1999 C 0.8196 0.30336 0.37794 0.0
C2000 C 0.82266 0.32111 0.3618 0.0
C2001 C 0.82717 0.34423 0.37151 0.0
H2002 H 0.57907 0.08956 0.29502 0.0
H2003 H 0.5024 0.06644 0.27988 0.0
H2004 H 0.50836 0.04297 0.24411 0.0
H2005 H 0.58924 0.09668 0.23536 0.0
H2006 H 0.61758 0.08729 0.23819 0.0
H2007 H 0.60742 0.09969 0.26432 0.0
H2008 H 0.61206 0.0634 0.28712 0.0
H2009 H 0.62195 0.05076 0.26084 0.0
H2010 H 0.59683 0.03571 0.27395 0.0
H2011 H 0.522 0.025 0.20843 0.0
H2012 H 0.54216 1.01688 0.17285 0.0
H2013 H 0.60981 0.0519 0.21085 0.0
C2014 C 0.56354 0.0793 0.2844 0.0
C2015 C 0.54029 0.07976 0.29028 0.0
C2016 C 0.5204 0.0664 0.27569 0.0
C2017 C 0.5236 0.05281 0.2555 0.0
C2018 C 0.54678 0.05274 0.25024 0.0
C2019 C 0.5664 0.06575 0.26415 0.0
C2020 C 0.58916 0.06453 0.25317 0.0
C2021 C 0.60156 0.08846 0.24741 0.0
C2022 C 0.60599 0.0529 0.26976 0.0
C2023 C 0.57914 0.04956 0.23036 0.0
C2024 C 0.55472 0.04248 0.22934 0.0
C2025 C 0.54115 0.03011 0.20914 0.0
C2026 C 0.5527 0.02563 0.18906 0.0
C2027 C 0.57747 0.03372 0.18933 0.0
C2028 C 0.59096 0.04509 0.21051 0.0
H2029 H 0.84372 0.67884 0.94035 0.0
H2030 H 0.84946 0.73664 0.99261 0.0
H2031 H 0.84843 0.76234 0.95934 0.0
H2032 H 0.87967 0.70953 0.89655 0.0
H2033 H 0.86122 0.69575 0.86973 0.0
H2034 H 0.86266 0.6811 0.89735 0.0
H2035 H 0.8169 0.67542 0.8958 0.0
H2036 H 0.81533 0.69001 0.86815 0.0
H2037 H 0.8024 0.69994 0.89386 0.0
H2038 H 0.84782 0.78357 0.91982 0.0
H2039 H 0.84538 0.79746 0.87897 0.0
H2040 H 0.83787 0.7278 0.84804 0.0
C2041 C 0.84475 0.6969 0.94493 0.0
C2042 C 0.84681 0.70511 0.97025 0.0
C2043 C 0.84792 0.72917 0.97424 0.0
C2044 C 0.84738 0.74421 0.95509 0.0
C2045 C 0.84544 0.73574 0.93082 0.0
C2046 C 0.84392 0.71253 0.92552 0.0
C2047 C 0.8414 0.70829 0.89741 0.0
C2048 C 0.86249 0.69804 0.88981 0.0
C2049 C 0.81759 0.69246 0.88826 0.0
C2050 C 0.84187 0.73255 0.8879 0.0
C2051 C 0.84441 0.748 0.90781 0.0
C2052 C 0.84574 0.77137 0.90431 0.0
C2053 C 0.84438 0.77925 0.88051 0.0
C2054 C 0.84142 0.76435 0.85905 0.0
C2055 C 0.84013 0.74027 0.86333 0.0
H2056 H 0.86423 0.15383 0.03379 0.0
H2057 H 0.89932 0.22248 0.02182 0.0
H2058 H 0.93668 0.20808 0.01746 0.0
H2059 H 0.91579 0.13592 0.06739 0.0
H2060 H 0.90813 0.10717 0.05349 0.0
H2061 H 0.88499 0.12339 0.05784 0.0
H2062 H 0.86985 0.11683 1.01196 0.0
H2063 H 0.89306 0.10082 1.00741 0.0
H2064 H 0.89021 0.12527 0.99015 0.0
H2065 H 0.96954 0.18558 1.01207 0.0
H2066 H 0.99527 0.15695 1.00636 0.0
H2067 H 0.9382 0.10307 0.02128 0.0
C2068 C 0.87988 0.16595 0.03071 0.0
C2069 C 0.87892 0.18933 0.02831 0.0
C2070 C 0.89969 0.20453 0.02387 0.0
C2071 C 0.92098 0.1965 0.02135 0.0
C2072 C 0.92116 0.17324 0.02331 0.0
C2073 C 0.90116 0.15821 0.028 0.0
C2074 C 0.90559 0.13386 0.02806 0.0
C2075 C 0.90351 0.12454 0.05319 0.0
C2076 C 0.88867 0.11829 1.00821 0.0
C2077 C 0.93111 0.13744 0.02229 0.0
C2078 C 0.93986 0.16028 0.01982 0.0
C2079 C 0.96292 0.16768 1.01414 0.0
C2080 C 0.9774 0.15129 1.01098 0.0
C2081 C 0.96873 0.12776 1.01334 0.0
C2082 C 0.94526 0.12087 0.01909 0.0
H2083 H 0.40345 0.43549 0.02083 0.0
H2084 H 0.36916 0.48488 0.05658 0.0
H2085 H 0.40705 0.51317 0.06002 0.0
H2086 H 0.46181 0.45102 0.05529 0.0
H2087 H 0.47803 0.44712 0.02988 0.0
H2088 H 0.44837 0.43098 0.03015 0.0
H2089 H 0.43502 0.44612 0.9891 0.0
H2090 H 0.46465 0.46231 0.98869 0.0
H2091 H 0.43932 0.47656 0.98603 0.0
H2092 H 0.45148 0.53641 0.06134 0.0
H2093 H 0.49394 0.55172 0.0581 0.0
H2094 H 0.49976 0.4884 0.0193 0.0
C2095 C 0.40367 0.45229 0.02935 0.0
C2096 C 0.38248 0.45745 0.03848 0.0
C2097 C 0.38442 0.47997 0.04929 0.0
C2098 C 0.40621 0.4963 0.0514 0.0
C2099 C 0.42658 0.49049 0.04239 0.0
C2100 C 0.4253 0.46896 0.03128 0.0
C2101 C 0.44957 0.46698 0.0227 0.0
C2102 C 0.46006 0.44789 0.03525 0.0
C2103 C 0.44698 0.46273 0.99498 0.0
C2104 C 0.46494 0.49058 0.03082 0.0
C2105 C 0.45134 0.50385 0.04233 0.0
C2106 C 0.46189 0.52598 0.0521 0.0
C2107 C 0.48638 0.53466 0.05016 0.0
C2108 C 0.50099 0.52178 0.03819 0.0
C2109 C 0.48959 0.49923 0.02832 0.0
H2110 H 0.42098 0.5954 0.75761 0.0
H2111 H 0.36431 0.54722 0.71472 0.0
H2112 H 0.3371 0.57507 0.71759 0.0
H2113 H 0.386 0.61512 0.7985 0.0
H2114 H 0.40157 0.64438 0.80087 0.0
H2115 H 0.41694 0.62155 0.79352 0.0
H2116 H 0.42831 0.64056 0.75442 0.0
H2117 H 0.41311 0.66359 0.76175 0.0
H2118 H 0.4052 0.64744 0.73286 0.0
H2119 H 0.3154 0.60731 0.72821 0.0
H2120 H 0.30171 0.64182 0.74389 0.0
H2121 H 0.37306 0.66793 0.77986 0.0
C2122 C 0.40295 0.59078 0.74851 0.0
C2123 C 0.3947 0.56919 0.73595 0.0
C2124 C 0.37098 0.56376 0.72435 0.0
C2125 C 0.35542 0.57944 0.72592 0.0
C2126 C 0.36402 0.60043 0.73895 0.0
C2127 C 0.38732 0.60616 0.74982 0.0
C2128 C 0.39207 0.62935 0.76356 0.0
C2129 C 0.39957 0.62747 0.79072 0.0
C2130 C 0.41078 0.64623 0.75247 0.0
C2131 C 0.36765 0.63563 0.75921 0.0
C2132 C 0.35168 0.61884 0.74491 0.0
C2133 C 0.32782 0.62064 0.73925 0.0
C2134 C 0.32016 0.64018 0.74837 0.0
C2135 C 0.33636 0.65757 0.76297 0.0
C2136 C 0.36036 0.65514 0.76838 0.0
H2137 H 0.2458 0.65704 0.53278 0.0
H2138 H 0.21869 0.69899 0.47848 0.0
H2139 H 0.18172 0.67022 0.46956 0.0
H2140 H 0.21911 0.60085 0.50189 0.0
H2141 H 0.2117 0.58812 0.52946 0.0
H2142 H 0.23712 0.61091 0.53027 0.0
H2143 H 0.22004 0.63435 0.56234 0.0
H2144 H 0.19468 0.6116 0.56173 0.0
H2145 H 0.19027 0.6402 0.55594 0.0
H2146 H 0.14709 0.63809 0.46746 0.0
H2147 H 0.11554 0.6062 0.47465 0.0
H2148 H 0.1636 0.58492 0.53136 0.0
C2149 C 0.23219 0.65997 0.51878 0.0
C2150 C 0.23523 0.68025 0.5062 0.0
C2151 C 0.21679 0.68366 0.48838 0.0
C2152 C 0.19576 0.66733 0.48307 0.0
C2153 C 0.19322 0.64765 0.49587 0.0
C2154 C 0.21079 0.64394 0.51352 0.0
C2155 C 0.20261 0.62213 0.52584 0.0
C2156 C 0.21859 0.60445 0.52161 0.0
C2157 C 0.20185 0.62739 0.55307 0.0
C2158 C 0.17765 0.61434 0.51251 0.0
C2159 C 0.17281 0.62921 0.49508 0.0
C2160 C 0.15073 0.62627 0.48098 0.0
C2161 C 0.13288 0.60805 0.48521 0.0
C2162 C 0.13704 0.59292 0.50349 0.0
C2163 C 0.15996 0.5959 0.51697 0.0
H2164 H 0.70531 0.96699 0.77424 0.0
H2165 H 0.65597 0.94207 0.8249 0.0
H2166 H 0.68598 0.92172 0.84504 0.0
H2167 H 0.72994 0.91472 0.76843 0.0
H2168 H 0.75949 0.93011 0.76592 0.0
H2169 H 0.7338 0.94214 0.75548 0.0
H2170 H 0.751 0.97889 0.78329 0.0
H2171 H 0.77652 0.96679 0.79415 0.0
H2172 H 0.75826 0.97662 0.81535 0.0
H2173 H 0.72269 0.90621 0.86126 0.0
H2174 H 0.76112 0.8931 0.86927 0.0
H2175 H 0.78497 0.92613 0.80602 0.0
C2176 C 0.70073 0.95706 0.78942 0.0
C2177 C 0.67835 0.95613 0.79806 0.0
C2178 C 0.67298 0.94291 0.81791 0.0
C2179 C 0.68996 0.93142 0.82956 0.0
C2180 C 0.71207 0.93311 0.82091 0.0
C2181 C 0.71731 0.94526 0.80101 0.0
C2182 C 0.74218 0.94406 0.795 0.0
C2183 C 0.74129 0.93204 0.76971 0.0
C2184 C 0.75791 0.96802 0.79708 0.0
C2185 C 0.75027 0.9296 0.81482 0.0
C2186 C 0.73277 0.92358 0.82971 0.0
C2187 C 0.73641 0.9106 0.84951 0.0
C2188 C 0.75832 0.90314 0.85385 0.0
C2189 C 0.77625 0.90841 0.83827 0.0
C2190 C 0.77203 0.92206 0.81866 0.0
H2191 H 0.71757 0.93516 0.52823 0.0
H2192 H 0.77485 0.99205 0.55341 0.0
H2193 H 0.74566 1.0175 0.55517 0.0
H2194 H 0.68033 0.9689 0.49096 0.0
H2195 H 0.65204 0.95444 0.4986 0.0
H2196 H 0.67695 0.93962 0.49908 0.0
H2197 H 0.67276 0.93063 0.54343 0.0
H2198 H 0.64781 0.94538 0.54303 0.0
H2199 H 0.67318 0.95371 0.5658 0.0
H2200 H 0.71027 0.03863 0.55442 0.0
H2201 H 0.67274 0.05301 0.552 0.0
H2202 H 0.63383 0.98492 0.52755 0.0
C2203 C 0.7241 0.95296 0.53421 0.0
C2204 C 0.74965 0.96092 0.54073 0.0
C2205 C 0.75621 0.98469 0.54827 0.0
C2206 C 0.73942 0.99963 0.54934 0.0
C2207 C 0.71495 0.99144 0.54287 0.0
C2208 C 0.70709 0.96858 0.53548 0.0
C2209 C 0.67933 0.96478 0.52972 0.0
C2210 C 0.6717 0.95642 0.503 0.0
C2211 C 0.66756 0.94759 0.54648 0.0
C2212 C 0.67301 0.9889 0.53492 0.0
C2213 C 0.69419 1.00381 0.5425 0.0
C2214 C 0.69375 0.02687 0.5485 0.0
C2215 C 0.67178 0.03502 0.54701 0.0
C2216 C 0.64908 1.02081 0.53949 0.0
C2217 C 0.65019 0.99696 0.53326 0.0
H2218 H 0.44992 0.43991 0.75729 0.0
H2219 H 0.40105 0.4598 0.70043 0.0
H2220 H 0.37437 0.42235 0.7007 0.0
H2221 H 0.43902 0.37707 0.73933 0.0
H2222 H 0.44069 0.37014 0.77059 0.0
H2223 H 0.45808 0.3963 0.76232 0.0
H2224 H 0.43923 0.41943 0.79321 0.0
H2225 H 0.42153 0.39351 0.80133 0.0
H2226 H 0.40723 0.41653 0.7909 0.0
H2227 H 0.35076 0.38545 0.71105 0.0
H2228 H 0.33173 0.35186 0.73051 0.0
H2229 H 0.39559 0.35696 0.78182 0.0
C2230 C 0.4341 0.43607 0.74417 0.0
C2231 C 0.4277 0.4526 0.72855 0.0
C2232 C 0.40637 0.44725 0.71235 0.0
C2233 C 0.39117 0.42603 0.71235 0.0
C2234 C 0.39758 0.41048 0.72869 0.0
C2235 C 0.41863 0.4152 0.74421 0.0
C2236 C 0.42001 0.39699 0.76213 0.0
C2237 C 0.44067 0.38437 0.75835 0.0
C2238 C 0.42211 0.40723 0.78843 0.0
C2239 C 0.39611 0.3816 0.75476 0.0
C2240 C 0.38362 0.38947 0.7352 0.0
C2241 C 0.36051 0.37892 0.72612 0.0
C2242 C 0.34982 0.35989 0.73741 0.0
C2243 C 0.36217 0.35175 0.75773 0.0
C2244 C 0.38573 0.36264 0.76624 0.0
H2245 H 0.18096 0.59274 0.25297 0.0
H2246 H 0.14284 0.61845 0.30824 0.0
H2247 H 0.15627 0.65809 0.29694 0.0
H2248 H 0.23061 0.63223 0.26289 0.0
H2249 H 0.23605 0.6348 0.23174 0.0
H2250 H 0.21932 0.60874 0.24054 0.0
H2251 H 0.18402 0.61192 0.20831 0.0
H2252 H 0.20076 0.63807 0.19923 0.0
H2253 H 0.17145 0.63765 0.20825 0.0
H2254 H 0.18075 0.69432 0.28565 0.0
H2255 H 0.2131 0.72382 0.2751 0.0
H2256 H 0.23291 0.6744 0.22482 0.0
C2257 C 0.17495 0.60673 0.26222 0.0
C2258 C 0.16105 0.60284 0.28146 0.0
C2259 C 0.15341 0.6213 0.2933 0.0
C2260 C 0.16087 0.64377 0.28694 0.0
C2261 C 0.17531 0.64716 0.26829 0.0
C2262 C 0.18187 0.62904 0.2558 0.0
C2263 C 0.19946 0.63714 0.23835 0.0
C2264 C 0.22272 0.62768 0.24373 0.0
C2265 C 0.18824 0.63082 0.21197 0.0
C2266 C 0.20329 0.66266 0.2443 0.0
C2267 C 0.18885 0.66819 0.26121 0.0
C2268 C 0.19157 0.69033 0.27184 0.0
C2269 C 0.21 0.70702 0.26564 0.0
C2270 C 0.22552 0.70143 0.24904 0.0
C2271 C 0.22135 0.6792 0.23755 0.0
H2272 H 0.51654 0.67535 0.47067 0.0
H2273 H 0.5705 0.68442 0.42145 0.0
H2274 H 0.59277 0.65902 0.44473 0.0
H2275 H 0.55284 0.68097 0.52164 0.0
H2276 H 0.53614 0.65951 0.53802 0.0
H2277 H 0.5209 0.67303 0.51445 0.0
H2278 H 0.50278 0.63388 0.49193 0.0
H2279 H 0.51731 0.6198 0.51559 0.0
H2280 H 0.52202 0.61424 0.48458 0.0
H2281 H 0.61311 0.63943 0.47844 0.0
H2282 H 0.62528 0.61997 0.51494 0.0
H2283 H 0.55841 0.62605 0.54217 0.0
C2284 C 0.53235 0.67096 0.46405 0.0
C2285 C 0.54181 0.6817 0.44434 0.0
C2286 C 0.56277 0.676 0.43632 0.0
C2287 C 0.57572 0.66184 0.44963 0.0
C2288 C 0.56708 0.6533 0.47047 0.0
C2289 C 0.5454 0.65697 0.47711 0.0
C2290 C 0.54092 0.64763 0.50126 0.0
C2291 C 0.53752 0.66642 0.51992 0.0
C2292 C 0.51949 0.62771 0.49813 0.0
C2293 C 0.56402 0.63934 0.50782 0.0
C2294 C 0.57885 0.64247 0.48985 0.0
C2295 C 0.60146 0.63654 0.49245 0.0
C2296 C 0.60843 0.62593 0.51342 0.0
C2297 C 0.5928 0.62157 0.53133 0.0
C2298 C 0.57076 0.62915 0.52876 0.0
H2299 H 0.71663 0.39031 0.6966 0.0
H2300 H 0.67769 0.39988 0.75765 0.0
H2301 H 0.71111 0.39129 0.78542 0.0
H2302 H 0.73119 0.34245 0.71247 0.0
H2303 H 0.76051 0.34583 0.70274 0.0
H2304 H 0.73882 0.36089 0.68862 0.0
H2305 H 0.76758 0.39961 0.69937 0.0
H2306 H 0.78977 0.3846 0.71311 0.0
H2307 H 0.78061 0.4073 0.73031 0.0
H2308 H 0.74354 0.37312 0.80499 0.0
H2309 H 0.77201 0.34703 0.81448 0.0
H2310 H 0.78745 0.34606 0.73992 0.0
C2311 C 0.71579 0.39199 0.71595 0.0
C2312 C 0.69483 0.39611 0.72508 0.0
C2313 C 0.69381 0.39708 0.75039 0.0
C2314 C 0.71272 0.39224 0.76628 0.0
C2315 C 0.73242 0.38642 0.7565 0.0
C2316 C 0.73421 0.38654 0.73187 0.0
C2317 C 0.75451 0.3752 0.7252 0.0
C2318 C 0.7457 0.3549 0.70616 0.0
C2319 C 0.77429 0.39273 0.71649 0.0
C2320 C 0.76267 0.36722 0.74954 0.0
C2321 C 0.75039 0.37457 0.76756 0.0
C2322 C 0.75362 0.36769 0.79114 0.0
C2323 C 0.76966 0.35278 0.79634 0.0
C2324 C 0.7816 0.34447 0.77783 0.0
C2325 C 0.77836 0.35211 0.75434 0.0
H2326 H 1.01305 0.33111 0.91493 0.0
H2327 H 0.98993 0.28668 0.97051 0.0
H2328 H 0.9687 0.31554 0.98637 0.0
H2329 H 1.03078 0.377 0.95097 0.0
H2330 H 1.02199 0.398 0.93123 0.0
H2331 H 1.02743 0.37146 0.91849 0.0
H2332 H 0.98503 0.3634 0.89473 0.0
H2333 H 0.97942 0.39014 0.90745 0.0
H2334 H 0.9594 0.36378 0.91072 0.0
H2335 H 0.95991 0.35107 1.00276 0.0
H2336 H 0.96709 0.39062 0.02016 0.0
H2337 H 0.99597 0.41412 0.95502 0.0
C2338 C 1.00256 0.32717 0.92974 0.0
C2339 C 1.00285 0.3067 0.94138 0.0
C2340 C 0.98976 0.30224 0.96124 0.0
C2341 C 0.97742 0.31847 0.97021 0.0
C2342 C 0.97847 0.33912 0.95921 0.0
C2343 C 0.99064 0.34353 0.93928 0.0
C2344 C 0.99353 0.36859 0.93415 0.0
C2345 C 1.01999 0.37937 0.93373 0.0
C2346 C 0.97844 0.37165 0.91035 0.0
C2347 C 0.98343 0.37792 0.95581 0.0
C2348 C 0.97375 0.36048 0.96932 0.0
C2349 C 0.96668 0.36488 0.99198 0.0
C2350 C 0.9708 0.38752 1.00174 0.0
C2351 C 0.98215 0.4055 0.98895 0.0
C2352 C 0.98725 0.40069 0.96516 0.0
H2353 H 0.07839 0.84445 0.22521 0.0
H2354 H 0.05158 0.81012 0.15442 0.0
H2355 H 1.01757 0.78793 0.17184 0.0
H2356 H 0.06052 0.79628 0.26157 0.0
H2357 H 0.05201 0.81404 0.28506 0.0
H2358 H 0.07536 0.82568 0.26754 0.0
H2359 H 0.05263 0.85826 0.25548 0.0
H2360 H 1.02938 0.84686 0.27314 0.0
H2361 H 1.02214 0.85109 0.24151 0.0
H2362 H 0.98596 0.77059 0.19663 0.0
H2363 H 0.95685 0.76201 0.22598 0.0
H2364 H 1.00352 0.80928 0.27993 0.0
C2365 C 0.06551 0.83206 0.21344 0.0
C2366 C 0.0676 0.82883 0.18854 0.0
C2367 C 0.05022 0.81281 0.17358 0.0
C2368 C 1.03098 0.80003 0.18333 0.0
C2369 C 1.02942 0.80363 0.208 0.0
C2370 C 0.04608 0.81941 0.2228 0.0
C2371 C 0.03929 0.8214 0.24823 0.0
C2372 C 0.05791 0.8139 0.26669 0.0
C2373 C 0.03563 0.84584 0.25497 0.0
C2374 C 1.01599 0.8045 0.24534 0.0
C2375 C 1.01082 0.79415 0.22212 0.0
C2376 C 0.98983 0.77854 0.21488 0.0
C2377 C 0.97338 0.77387 0.23164 0.0
C2378 C 0.97788 0.78503 0.25523 0.0
C2379 C 0.99974 0.80013 0.26223 0.0
H2380 H 0.56891 0.36122 0.08852 0.0
H2381 H 0.57934 0.3844 0.16465 0.0
H2382 H 0.58322 0.4243 0.1535 0.0
H2383 H 0.61022 0.4104 0.06779 0.0
H2384 H 0.59178 0.41282 0.03998 0.0
H2385 H 0.59013 0.38556 0.05319 0.0
H2386 H 0.54484 0.38272 0.05353 0.0
H2387 H 0.54638 0.40997 0.04032 0.0
H2388 H 0.53373 0.40561 0.06836 0.0
H2389 H 0.58662 0.46441 0.1342 0.0
H2390 H 0.5877 0.49796 0.10997 0.0
H2391 H 0.57404 0.45322 0.04417 0.0
C2392 C 0.57214 0.37457 0.10303 0.0
C2393 C 0.57386 0.36816 0.12818 0.0
C2394 C 0.57786 0.3874 0.14554 0.0
C2395 C 0.58016 0.41072 0.13923 0.0
C2396 C 0.57836 0.41629 0.11485 0.0
C2397 C 0.57429 0.39866 0.09686 0.0
C2398 C 0.57267 0.40996 0.07197 0.0
C2399 C 0.59236 0.40434 0.05734 0.0
C2400 C 0.54794 0.40155 0.05768 0.0
C2401 C 0.57651 0.43637 0.0787 0.0
C2402 C 0.57984 0.43935 0.10374 0.0
C2403 C 0.58391 0.46179 0.11464 0.0
C2404 C 0.58453 0.48128 0.10032 0.0
C2405 C 0.58105 0.47978 0.07438 0.0
C2406 C 0.57693 0.4562 0.06369 0.0
H2407 H 1.00024 0.32183 0.40698 0.0
H2408 H 1.02764 0.27353 0.36194 0.0
H2409 H 0.99016 0.26821 0.33359 0.0
H2410 H 0.93804 0.29474 0.39851 0.0
H2411 H 0.92653 0.32101 0.39691 0.0
H2412 H 0.95519 0.32084 0.41376 0.0
H2413 H 0.97479 0.3526 0.38851 0.0
H2414 H 0.94616 0.35295 0.37166 0.0
H2415 H 0.97096 0.34841 0.3559 0.0
H2416 H 0.94624 0.26587 0.31081 0.0
H2417 H 0.90554 0.27044 0.29436 0.0
H2418 H 0.90711 0.32354 0.35088 0.0
C2419 C 0.99856 0.31019 0.39106 0.0
C2420 C 1.0177 0.29806 0.38723 0.0
C2421 C 1.01401 0.28322 0.36578 0.0
C2422 C 0.99241 0.27999 0.34946 0.0
C2423 C 0.97403 0.292 0.35395 0.0
C2424 C 0.97721 0.30723 0.3741 0.0
C2425 C 0.95511 0.31878 0.37432 0.0
C2426 C 0.94301 0.31353 0.39724 0.0
C2427 C 0.96218 0.34473 0.3725 0.0
C2428 C 0.93876 0.30756 0.35144 0.0
C2429 C 0.94993 0.29186 0.34016 0.0
C2430 C 0.93783 0.27846 0.31953 0.0
C2431 C 0.91436 0.28116 0.3102 0.0
C2432 C 0.90242 0.2976 0.32064 0.0
C2433 C 0.91532 0.31103 0.34177 0.0
H2434 H 0.10362 0.73086 0.61443 0.0
H2435 H 1.02893 0.7255 0.62364 0.0
H2436 H 1.02166 0.68505 0.60664 0.0
H2437 H 0.0974 0.69504 0.55889 0.0
H2438 H 0.12258 0.6815 0.56729 0.0
H2439 H 0.12192 0.70973 0.58022 0.0
H2440 H 0.12822 0.69569 0.62301 0.0
H2441 H 0.12858 0.66722 0.61049 0.0
H2442 H 0.10778 0.67163 0.63154 0.0
H2443 H 1.02217 0.64326 0.58349 0.0
H2444 H 1.03065 0.60767 0.56424 0.0
H2445 H 0.10597 0.63683 0.57334 0.0
C2446 C 0.08563 0.72123 0.61334 0.0
C2447 C 0.06695 0.73264 0.62119 0.0
C2448 C 0.04395 0.7183 0.61867 0.0
C2449 C 0.03961 0.69488 0.60859 0.0
C2450 C 0.05831 0.68455 0.60096 0.0
C2451 C 0.08111 0.69738 0.60385 0.0
C2452 C 0.09842 0.6821 0.59508 0.0
C2453 C 0.11082 0.69274 0.57413 0.0
C2454 C 0.11686 0.67897 0.61628 0.0
C2455 C 0.08205 0.6588 0.58624 0.0
C2456 C 0.05884 0.66075 0.58954 0.0
C2457 C 0.04046 0.642 0.58148 0.0
C2458 C 0.04554 0.62137 0.57028 0.0
C2459 C 0.0691 0.61798 0.56698 0.0
C2460 C 0.08761 0.63764 0.57553 0.0
H2461 H 0.68363 0.81817 0.90406 0.0
H2462 H 0.6308 0.77495 0.85199 0.0
H2463 H 0.6618 0.77125 0.82557 0.0
H2464 H 0.71799 0.84802 0.85789 0.0
H2465 H 0.74672 0.84945 0.87525 0.0
H2466 H 0.7205 0.84875 0.89053 0.0
H2467 H 0.73046 0.81354 0.91225 0.0
H2468 H 0.75641 0.81415 0.8965 0.0
H2469 H 0.73405 0.7885 0.89445 0.0
H2470 H 0.69961 0.7711 0.80327 0.0
H2471 H 0.73873 0.77549 0.78785 0.0
H2472 H 0.77026 0.82007 0.85137 0.0
C2473 C 0.67846 0.80777 0.88718 0.0
C2474 C 0.65366 0.79669 0.8809 0.0
C2475 C 0.64883 0.78369 0.85808 0.0
C2476 C 0.66669 0.78144 0.84261 0.0
C2477 C 0.69046 0.79241 0.84917 0.0
C2478 C 0.69647 0.80551 0.87094 0.0
C2479 C 0.72361 0.8158 0.87301 0.0
C2480 C 0.72743 0.84207 0.87425 0.0
C2481 C 0.73692 0.80752 0.8954 0.0
C2482 C 0.73182 0.80638 0.84932 0.0
C2483 C 0.71216 0.79282 0.83598 0.0
C2484 C 0.71489 0.78183 0.81377 0.0
C2485 C 0.73764 0.78449 0.80496 0.0
C2486 C 0.75867 0.79831 0.81763 0.0
C2487 C 0.75516 0.80948 0.84047 0.0
H2488 H 0.48263 0.52277 0.66792 0.0
H2489 H 0.48738 0.58712 0.70936 0.0
H2490 H 0.51275 0.60688 0.68062 0.0
H2491 H 0.53929 0.52913 0.66085 0.0
H2492 H 0.53665 0.51602 0.6306 0.0
H2493 H 0.51337 0.50805 0.64922 0.0
H2494 H 0.48185 0.51911 0.61694 0.0
H2495 H 0.505 0.526 0.59761 0.0
H2496 H 0.48725 0.54697 0.60501 0.0
H2497 H 0.54512 0.61715 0.65409 0.0
H2498 H 0.57895 0.61763 0.62966 0.0
H2499 H 0.55275 0.5465 0.60595 0.0
C2500 C 0.48795 0.54123 0.66999 0.0
C2501 C 0.48276 0.55369 0.69021 0.0
C2502 C 0.49078 0.57758 0.69342 0.0
C2503 C 0.5052 0.58886 0.67724 0.0
C2504 C 0.5111 0.57589 0.65798 0.0
C2505 C 0.50226 0.55262 0.654 0.0
C2506 C 0.51403 0.54182 0.63457 0.0
C2507 C 0.52657 0.52265 0.64442 0.0
C2508 C 0.49595 0.53296 0.61221 0.0
C2509 C 0.53179 0.56228 0.62917 0.0
C2510 C 0.52969 0.5819 0.64252 0.0
C2511 C 0.54636 0.60214 0.64285 0.0
C2512 C 0.56556 0.60225 0.62916 0.0
C2513 C 0.56764 0.58232 0.61535 0.0
C2514 C 0.55057 0.56226 0.61529 0.0
H2515 H 0.82271 0.26111 0.97048 0.0
H2516 H 0.77813 0.1949 0.94968 0.0
H2517 H 0.77119 0.20606 0.90757 0.0
H2518 H 0.79097 0.29563 0.92827 0.0
H2519 H 0.81842 0.31282 0.92177 0.0
H2520 H 0.81664 0.30117 0.95097 0.0
H2521 H 0.85299 0.28186 0.94522 0.0
H2522 H 0.85479 0.29344 0.91607 0.0
H2523 H 0.85206 0.263 0.91863 0.0
H2524 H 0.77152 0.22324 0.8672 0.0
H2525 H 0.781 0.24398 0.83115 0.0
H2526 H 0.82784 0.29814 0.87746 0.0
C2527 C 0.81084 0.24934 0.95718 0.0
C2528 C 0.80041 0.22737 0.96333 0.0
C2529 C 0.7859 0.21194 0.9453 0.0
C2530 C 0.78187 0.21815 0.92138 0.0
C2531 C 0.79282 0.23974 0.91568 0.0
C2532 C 0.80713 0.25508 0.93302 0.0
C2533 C 0.81897 0.27611 0.92157 0.0
C2534 C 0.81075 0.29771 0.93122 0.0
C2535 C 0.84632 0.27874 0.92561 0.0
C2536 C 0.80939 0.27004 0.89509 0.0
C2537 C 0.794 0.24918 0.89215 0.0
C2538 C 0.78341 0.23968 0.86931 0.0
C2539 C 0.7889 0.25163 0.84889 0.0
C2540 C 0.80514 0.27277 0.85134 0.0
C2541 C 0.81528 0.2821 0.87487 0.0
H2542 H 0.10579 0.503 0.22426 0.0
H2543 H 0.18028 0.53531 0.22835 0.0
H2544 H 0.17328 0.54681 0.18669 0.0
H2545 H 0.09905 0.48359 0.15736 0.0
H2546 H 0.06888 0.48879 0.1534 0.0
H2547 H 0.08095 0.47983 0.1819 0.0
H2548 H 0.06997 0.51535 0.20366 0.0
H2549 H 0.05888 0.52502 0.17521 0.0
H2550 H 0.08199 0.54354 0.19517 0.0
H2551 H 0.15645 0.56185 0.14855 0.0
H2552 H 0.13319 0.57013 0.11096 0.0
H2553 H 0.07031 0.52624 0.13045 0.0
C2554 C 0.12087 0.51153 0.21598 0.0
C2555 C 0.14354 0.51828 0.22961 0.0
C2556 C 0.16279 0.5297 0.21824 0.0
C2557 C 0.15894 0.5366 0.19465 0.0
C2558 C 0.13593 0.53135 0.18247 0.0
C2559 C 0.11742 0.51823 0.1923 0.0
C2560 C 0.0942 0.51564 0.17571 0.0
C2561 C 0.08525 0.49047 0.16654 0.0
C2562 C 0.07516 0.52548 0.1882 0.0
C2563 C 0.10239 0.53008 0.15551 0.0
C2564 C 0.12645 0.53923 0.15991 0.0
C2565 C 0.13772 0.55436 0.1446 0.0
C2566 C 0.12429 0.5593 0.12355 0.0
C2567 C 0.10001 0.54885 0.11796 0.0
C2568 C 0.08887 0.53444 0.13438 0.0
H2569 H 0.79225 0.90677 0.44731 0.0
H2570 H 0.83952 0.8768 0.4973 0.0
H2571 H 0.84997 0.85408 0.46318 0.0
H2572 H 0.77038 0.8535 0.40837 0.0
H2573 H 0.7684 0.86732 0.38028 0.0
H2574 H 0.76513 0.8825 0.40821 0.0
H2575 H 0.79915 0.91501 0.40063 0.0
H2576 H 0.8025 0.89992 0.37267 0.0
H2577 H 0.82777 0.90834 0.39554 0.0
H2578 H 0.85694 0.83453 0.42286 0.0
H2579 H 0.85741 0.81812 0.38149 0.0
H2580 H 0.80336 0.85639 0.35466 0.0
C2581 C 0.80499 0.8956 0.45113 0.0
C2582 C 0.81521 0.89427 0.47585 0.0
C2583 C 0.83135 0.87873 0.47921 0.0
C2584 C 0.83749 0.86556 0.45964 0.0
C2585 C 0.82719 0.86716 0.43586 0.0
C2586 C 0.811 0.88161 0.43145 0.0
C2587 C 0.80187 0.879 0.40397 0.0
C2588 C 0.77483 0.87006 0.39997 0.0
C2589 C 0.80819 0.90194 0.39252 0.0
C2590 C 0.81553 0.8611 0.39372 0.0
C2591 C 0.83024 0.85484 0.41265 0.0
C2592 C 0.84527 0.83932 0.40812 0.0
C2593 C 0.84545 0.82998 0.38415 0.0
C2594 C 0.83044 0.83535 0.3639 0.0
C2595 C 0.81505 0.85131 0.36921 0.0
H2596 H 0.4888 0.50863 0.79326 0.0
H2597 H 0.41499 0.48762 0.80553 0.0
H2598 H 0.42794 0.46617 0.8401 0.0
H2599 H 0.50968 0.45509 0.81186 0.0
H2600 H 0.53797 0.4712 0.8257 0.0
H2601 H 0.52247 0.48132 0.79958 0.0
H2602 H 0.5236 0.52024 0.82336 0.0
H2603 H 0.53941 0.51038 0.84919 0.0
H2604 H 0.51192 0.52044 0.85216 0.0
H2605 H 0.44963 0.45215 0.87682 0.0
H2606 H 0.47761 0.44951 0.91323 0.0
H2607 H 0.53667 0.47967 0.87568 0.0
C2608 C 0.47529 0.49916 0.8029 0.0
C2609 C 0.45094 0.4998 0.79682 0.0
C2610 C 0.4338 0.48738 0.81 0.0
C2611 C 0.44097 0.47496 0.82947 0.0
C2612 C 0.46528 0.47493 0.83521 0.0
C2613 C 0.48212 0.48668 0.82217 0.0
C2614 C 0.5072 0.48629 0.8334 0.0
C2615 C 0.52008 0.47266 0.81663 0.0
C2616 C 0.52133 0.51077 0.83993 0.0
C2617 C 0.50194 0.47373 0.85571 0.0
C2618 C 0.47771 0.46673 0.85619 0.0
C2619 C 0.46865 0.45716 0.87642 0.0
C2620 C 0.48468 0.4558 0.89706 0.0
C2621 C 0.50942 0.46433 0.8974 0.0
C2622 C 0.51806 0.4723 0.87596 0.0
H2623 H 0.81038 0.27438 0.09801 0.0
H2624 H 0.83909 0.21155 0.10107 0.0
H2625 H 0.85081 0.21976 0.14502 0.0
H2626 H 0.8565 0.30841 0.14288 0.0
H2627 H 0.83579 0.3237 0.15573 0.0
H2628 H 0.83044 0.31349 0.12421 0.0
H2629 H 0.78871 0.29149 0.13081 0.0
H2630 H 0.79391 0.30167 0.16228 0.0
H2631 H 0.78624 0.27138 0.15404 0.0
H2632 H 0.85567 0.23253 0.18917 0.0
H2633 H 0.85563 0.25043 0.23021 0.0
H2634 H 0.82672 0.3065 0.19891 0.0
C2635 C 0.81932 0.26243 0.10786 0.0
C2636 C 0.82376 0.24226 0.09592 0.0
C2637 C 0.83554 0.22714 0.10962 0.0
C2638 C 0.84227 0.23165 0.13466 0.0
C2639 C 0.83746 0.25153 0.14585 0.0
C2640 C 0.82649 0.26683 0.13289 0.0
C2641 C 0.82304 0.28675 0.14948 0.0
C2642 C 0.8373 0.30943 0.14266 0.0
C2643 C 0.7964 0.28788 0.14913 0.0
C2644 C 0.83339 0.28003 0.17385 0.0
C2645 C 0.8415 0.25957 0.17129 0.0
C2646 C 0.84994 0.24883 0.19133 0.0
C2647 C 0.8499 0.25912 0.21455 0.0
C2648 C 0.84189 0.28015 0.21763 0.0
C2649 C 0.8338 0.29087 0.19698 0.0
H2650 H 0.11837 0.53736 0.34174 0.0
H2651 H 0.18383 0.58651 0.36213 0.0
H2652 H 0.16087 0.61303 0.38053 0.0
H2653 H 0.08086 0.57835 0.32591 0.0
H2654 H 0.05542 0.56239 0.33776 0.0
H2655 H 0.07704 0.54762 0.32593 0.0
H2656 H 0.08404 0.52875 0.36668 0.0
H2657 H 0.06169 0.54263 0.37805 0.0
H2658 H 0.09116 0.54666 0.39454 0.0
H2659 H 0.13006 0.63365 0.3975 0.0
H2660 H 0.09615 0.64315 0.41724 0.0
H2661 H 0.05189 0.58024 0.38358 0.0
C2662 C 0.12795 0.55364 0.35022 0.0
C2663 C 0.15282 0.55988 0.35056 0.0
C2664 C 0.16474 0.5813 0.36189 0.0
C2665 C 0.15181 0.59661 0.37202 0.0
C2666 C 0.12706 0.59023 0.37045 0.0
C2667 C 0.11539 0.56909 0.36009 0.0
C2668 C 0.08896 0.5656 0.36167 0.0
C2669 C 0.07474 0.56336 0.33631 0.0
C2670 C 0.08101 0.5447 0.37611 0.0
C2671 C 0.08755 0.58781 0.37527 0.0
C2672 C 0.10955 0.60205 0.37983 0.0
C2673 C 0.11273 0.62264 0.39393 0.0
C2674 C 0.09331 0.62792 0.40505 0.0
C2675 C 0.07122 0.61235 0.40244 0.0
C2676 C 0.06812 0.59291 0.38592 0.0
H2677 H 0.81958 0.8568 0.60352 0.0
H2678 H 0.80345 0.92292 0.62463 0.0
H2679 H 0.80227 0.91116 0.66693 0.0
H2680 H 0.78119 0.82317 0.64254 0.0
H2681 H 0.80147 0.80367 0.64901 0.0
H2682 H 0.80084 0.81734 0.62078 0.0
H2683 H 0.84602 0.83315 0.62997 0.0
H2684 H 0.84678 0.81959 0.65825 0.0
H2685 H 0.8574 0.84994 0.65799 0.0
H2686 H 0.8053 0.89139 0.70984 0.0
H2687 H 0.80916 0.86703 0.74437 0.0
H2688 H 0.82123 0.81243 0.69555 0.0
C2689 C 0.8156 0.869 0.61685 0.0
C2690 C 0.81157 0.89121 0.6097 0.0
C2691 C 0.80647 0.90595 0.62861 0.0
C2692 C 0.80589 0.89929 0.65307 0.0
C2693 C 0.81018 0.87746 0.65925 0.0
C2694 C 0.81468 0.86246 0.64135 0.0
C2695 C 0.81848 0.83982 0.65233 0.0
C2696 C 0.79936 0.81981 0.64045 0.0
C2697 C 0.84366 0.83536 0.64946 0.0
C2698 C 0.8156 0.84416 0.6793 0.0
C2699 C 0.81102 0.86611 0.68299 0.0
C2700 C 0.80863 0.87421 0.70661 0.0
C2701 C 0.81088 0.86 0.72647 0.0
C2702 C 0.8152 0.83717 0.72357 0.0
C2703 C 0.81749 0.82941 0.69911 0.0
H2704 H 0.81984 0.45216 0.57758 0.0
H2705 H 0.76873 0.39245 0.54648 0.0
H2706 H 0.73572 0.41328 0.5522 0.0
H2707 H 0.78361 0.4701 0.62276 0.0
H2708 H 0.7938 0.50008 0.61934 0.0
H2709 H 0.81299 0.4798 0.61433 0.0
H2710 H 0.81745 0.49392 0.57144 0.0
H2711 H 0.79811 0.51408 0.57619 0.0
H2712 H 0.79111 0.49351 0.55039 0.0
H2713 H 0.70858 0.44184 0.55882 0.0
H2714 H 0.68943 0.47501 0.56691 0.0
H2715 H 0.75858 0.51571 0.59437 0.0
C2716 C 0.80169 0.4433 0.57225 0.0
C2717 C 0.79684 0.42064 0.5616 0.0
C2718 C 0.77285 0.40975 0.55479 0.0
C2719 C 0.75401 0.42147 0.55793 0.0
C2720 C 0.75948 0.44398 0.56805 0.0
C2721 C 0.78275 0.45469 0.5753 0.0
C2722 C 0.78401 0.47917 0.58502 0.0
C2723 C 0.7942 0.48247 0.61196 0.0
C2724 C 0.79852 0.49616 0.56985 0.0
C2725 C 0.75783 0.4808 0.58164 0.0
C2726 C 0.74394 0.4603 0.57196 0.0
C2727 C 0.71928 0.45787 0.56667 0.0
C2728 C 0.70855 0.47683 0.57145 0.0
C2729 C 0.72243 0.49804 0.58145 0.0
C2730 C 0.74742 0.49987 0.58658 0.0
H2731 H 0.24992 0.15466 0.50501 0.0
H2732 H 0.29327 0.12147 0.55571 0.0
H2733 H 0.25678 0.09517 0.56396 0.0
H2734 H 0.19826 0.15103 0.53668 0.0
H2735 H 0.17671 0.14465 0.51002 0.0
H2736 H 0.20607 0.16069 0.50789 0.0
H2737 H 0.21221 0.13124 0.47459 0.0
H2738 H 0.18279 0.11521 0.47651 0.0
H2739 H 0.20836 0.10134 0.4804 0.0
H2740 H 0.21317 0.07422 0.56987 0.0
H2741 H 0.17012 0.05796 0.56827 0.0
H2742 H 0.15432 0.10103 0.51034 0.0
C2743 C 0.25193 0.14163 0.51761 0.0
C2744 C 0.27524 0.14047 0.52953 0.0
C2745 C 0.27628 0.12296 0.54593 0.0
C2746 C 0.25533 0.10792 0.55091 0.0
C2747 C 0.23281 0.10979 0.53913 0.0
C2748 C 0.23112 0.12596 0.52231 0.0
C2749 C 0.20485 0.12399 0.51152 0.0
C2750 C 0.19595 0.14643 0.51684 0.0
C2751 C 0.20188 0.11757 0.48412 0.0
C2752 C 0.19185 0.10449 0.52502 0.0
C2753 C 0.20834 0.0968 0.5412 0.0
C2754 C 0.20046 0.07998 0.55683 0.0
C2755 C 0.17568 0.07074 0.55582 0.0
C2756 C 0.1582 0.07749 0.53888 0.0
C2757 C 0.16683 0.09478 0.52321 0.0
H2758 H 0.25959 1.01415 0.83402 0.0
H2759 H 0.31398 0.07478 0.83339 0.0
H2760 H 0.34331 0.05014 0.82499 0.0
H2761 H 0.29795 0.97964 0.86407 0.0
H2762 H 0.28294 0.95368 0.8469 0.0
H2763 H 0.26671 0.97624 0.85293 0.0
H2764 H 0.25398 0.97736 0.80683 0.0
H2765 H 0.27001 0.95472 0.80069 0.0
H2766 H 0.27655 0.98134 0.78649 0.0
H2767 H 0.36582 1.01806 0.81438 0.0
H2768 H 0.37955 0.98181 0.80408 0.0
H2769 H 0.31001 0.94348 0.81388 0.0
C2770 C 0.27765 0.02232 0.83205 0.0
C2771 C 0.28455 0.04631 0.8341 0.0
C2772 C 0.30841 0.05635 0.83177 0.0
C2773 C 0.32513 0.04252 0.82705 0.0
C2774 C 0.31765 1.0188 0.82512 0.0
C2775 C 0.29448 1.00887 0.82774 0.0
C2776 C 0.29068 0.9831 0.82498 0.0
C2777 C 0.2842 0.97256 0.84863 0.0
C2778 C 0.27169 0.97358 0.80347 0.0
C2779 C 0.31522 0.97996 0.81993 0.0
C2780 C 0.33064 1.00064 0.82003 0.0
C2781 C 0.35397 1.00177 0.81456 0.0
C2782 C 0.36159 0.98119 0.8087 0.0
C2783 C 0.34592 0.95994 0.80862 0.0
C2784 C 0.32258 0.95945 0.81447 0.0
H2785 H 0.41612 0.93654 0.01793 0.0
H2786 H 0.44472 0.88979 0.06553 0.0
H2787 H 0.48251 0.91793 0.07475 0.0
H2788 H 0.47218 0.95796 0.99367 0.0
H2789 H 0.46565 0.98644 0.99185 0.0
H2790 H 0.44166 0.96209 0.98868 0.0
H2791 H 0.42313 0.98028 0.02358 0.0
H2792 H 0.4474 1.00438 0.0273 0.0
H2793 H 0.44067 0.98773 0.05271 0.0
H2794 H 0.51557 0.95315 0.08168 0.0
H2795 H 0.54437 0.98899 0.07956 0.0
H2796 H 0.49471 1.01137 0.02534 0.0
C2797 C 0.43054 0.93204 0.02993 0.0
C2798 C 0.42762 0.91101 0.041 0.0
C2799 C 0.44678 0.9057 0.05663 0.0
C2800 C 0.46815 0.92168 0.06217 0.0
C2801 C 0.47011 0.94266 0.0516 0.0
C2802 C 0.45203 0.94756 0.03527 0.0
C2803 C 0.45865 0.97106 0.02595 0.0
C2804 C 0.4596 0.96927 0.99841 0.0
C2805 C 0.44144 0.98678 0.0328 0.0
C2806 C 0.48325 0.97879 0.03973 0.0
C2807 C 0.48939 0.96237 0.05477 0.0
C2808 C 0.51101 0.966 0.06979 0.0
C2809 C 0.52713 0.98654 0.06868 0.0
C2810 C 0.52169 1.00299 0.05237 0.0
C2811 C 0.49929 0.99914 0.03804 0.0
H2812 H 0.97417 0.65586 0.79048 0.0
H2813 H 0.95701 0.59508 0.74091 0.0
H2814 H 0.92038 0.60786 0.72347 0.0
H2815 H 0.91754 0.65534 0.80466 0.0
H2816 H 0.91933 0.68594 0.8066 0.0
H2817 H 0.946 0.6741 0.81234 0.0
H2818 H 0.96506 0.69762 0.7791 0.0
H2819 H 0.93852 0.70983 0.77347 0.0
H2820 H 0.94938 0.69542 0.74892 0.0
H2821 H 0.8832 0.62526 0.71488 0.0
H2822 H 0.84936 0.64612 0.71572 0.0
H2823 H 0.89147 0.69474 0.77133 0.0
C2824 C 0.96308 0.64553 0.7755 0.0
C2825 C 0.96846 0.62455 0.76696 0.0
C2826 C 0.95328 0.61132 0.74761 0.0
C2827 C 0.93245 0.61844 0.73759 0.0
C2828 C 0.92723 0.63887 0.74703 0.0
C2829 C 0.94229 0.65232 0.7654 0.0
C2830 C 0.93179 0.67246 0.77388 0.0
C2831 C 0.92847 0.6719 0.80096 0.0
C2832 C 0.9471 0.69518 0.76851 0.0
C2833 C 0.90812 0.66782 0.75805 0.0
C2834 C 0.90585 0.6486 0.7424 0.0
C2835 C 0.88491 0.64051 0.72685 0.0
C2836 C 0.86582 0.65238 0.72745 0.0
C2837 C 0.86781 0.67183 0.74376 0.0
C2838 C 0.88936 0.67972 0.75891 0.0
H2839 H 0.93962 0.66164 0.02731 0.0
H2840 H 0.88849 0.60994 0.05541 0.0
H2841 H 0.91881 0.58547 0.06074 0.0
H2842 H 0.9687 0.62063 0.99425 0.0
H2843 H 0.99856 0.63689 1.00086 0.0
H2844 H 0.97334 0.65133 0.99949 0.0
H2845 H 0.98779 0.66981 0.04263 0.0
H2846 H 1.01306 0.65542 0.0441 0.0
H2847 H 0.99311 0.65183 0.06708 0.0
H2848 H 0.95549 0.56489 0.06358 0.0
H2849 H 0.99315 0.55069 0.06268 0.0
H2850 H 1.024 0.61318 0.03206 0.0
C2851 C 0.9347 0.64525 0.03476 0.0
C2852 C 0.91057 0.63844 0.04101 0.0
C2853 C 0.90602 0.61637 0.05037 0.0
C2854 C 0.92349 0.60203 0.05353 0.0
C2855 C 0.94659 0.60907 0.04724 0.0
C2856 C 0.95234 0.63022 0.03793 0.0
C2857 C 0.97872 0.63304 0.03231 0.0
C2858 C 0.97991 0.63564 1.00511 0.0
C2859 C 0.99409 0.65377 0.04742 0.0
C2860 C 0.9868 0.61043 0.03991 0.0
C2861 C 0.96772 0.597 0.04855 0.0
C2862 C 0.97032 0.5755 0.05677 0.0
C2863 C 0.9923 0.56743 0.0562 0.0
C2864 C 1.01276 0.58019 0.04742 0.0
C2865 C 1.00943 0.60239 0.03909 0.0
H2866 H 0.27496 0.14463 0.87336 0.0
H2867 H 0.20627 0.16165 0.88479 0.0
H2868 H 0.22175 0.20201 0.87894 0.0
H2869 H 0.31364 0.20334 0.89709 0.0
H2870 H 0.33249 0.20098 0.87355 0.0
H2871 H 0.31913 0.17566 0.88708 0.0
H2872 H 0.30101 0.15773 0.84432 0.0
H2873 H 0.31345 0.18309 0.83066 0.0
H2874 H 0.28175 0.17248 0.82556 0.0
H2875 H 0.23995 0.23684 0.86033 0.0
H2876 H 0.26133 0.26478 0.8354 0.0
H2877 H 0.3179 0.22497 0.8348 0.0
C2878 C 0.26352 0.15699 0.87593 0.0
C2879 C 0.23932 0.14988 0.87928 0.0
C2880 C 0.22488 0.16662 0.88223 0.0
C2881 C 0.23353 0.18965 0.87889 0.0
C2882 C 0.25675 0.19568 0.87306 0.0
C2883 C 0.27181 0.17993 0.87228 0.0
C2884 C 0.29439 0.18964 0.86169 0.0
C2885 C 0.31621 0.19259 0.88101 0.0
C2886 C 0.29781 0.17486 0.83924 0.0
C2887 C 0.28883 0.21257 0.85485 0.0
C2888 C 0.26732 0.21599 0.86208 0.0
C2889 C 0.25716 0.2347 0.85528 0.0
C2890 C 0.26933 0.25034 0.84086 0.0
C2891 C 0.29133 0.24706 0.83319 0.0
C2892 C 0.30127 0.22808 0.84062 0.0
H2893 H 0.47313 0.06779 0.38805 0.0
H2894 H 0.54108 0.04542 0.38846 0.0
H2895 H 0.52144 1.0059 0.3942 0.0
H2896 H 0.44633 0.02437 0.43119 0.0
H2897 H 0.41739 1.02169 0.41385 0.0
H2898 H 0.43784 0.04869 0.41674 0.0
H2899 H 0.43408 0.04908 0.36994 0.0
H2900 H 0.4142 1.02196 0.3668 0.0
H2901 H 0.44113 0.02543 0.35236 0.0
H2902 H 0.49303 0.96812 0.3892 0.0
H2903 H 0.4592 0.93623 0.37741 0.0
H2904 H 0.40989 0.98347 0.38172 0.0
C2905 C 0.48403 0.05473 0.39043 0.0
C2906 C 0.50855 0.05955 0.38782 0.0
C2907 C 0.5223 0.04209 0.39072 0.0
C2908 C 0.51125 1.01958 0.39391 0.0
C2909 C 0.48662 1.01506 0.39472 0.0
C2910 C 0.47329 0.03233 0.39371 0.0
C2911 C 0.44685 0.02285 0.39176 0.0
C2912 C 0.4365 0.02981 0.41476 0.0
C2913 C 0.4333 0.03027 0.36886 0.0
C2914 C 0.44721 0.99749 0.38994 0.0
C2915 C 0.47027 0.99325 0.39218 0.0
C2916 C 0.47492 0.9712 0.3882 0.0
C2917 C 0.45556 0.95317 0.38149 0.0
C2918 C 0.43185 0.95732 0.37861 0.0
C2919 C 0.42778 0.97971 0.38362 0.0
H2920 H 0.64031 0.43099 0.66228 0.0
H2921 H 0.57055 0.41599 0.687 0.0
H2922 H 0.55623 0.44359 0.65948 0.0
H2923 H 0.6399 0.49246 0.6585 0.0
H2924 H 0.65618 0.49449 0.63261 0.0
H2925 H 0.66109 0.47392 0.65443 0.0
H2926 H 0.65123 0.44121 0.62063 0.0
H2927 H 0.64609 0.46125 0.59829 0.0
H2928 H 0.62313 0.43703 0.60148 0.0
H2929 H 0.54876 0.46946 0.62584 0.0
H2930 H 0.55107 0.49888 0.59569 0.0
H2931 H 0.62656 0.49847 0.59566 0.0
C2932 C 0.62222 0.43403 0.66226 0.0
C2933 C 0.60646 0.42175 0.67662 0.0
C2934 C 0.58286 0.42575 0.67627 0.0
C2935 C 0.57455 0.44107 0.66052 0.0
C2936 C 0.59032 0.45237 0.6458 0.0
C2937 C 0.61388 0.44961 0.64717 0.0
C2938 C 0.62751 0.4645 0.63029 0.0
C2939 C 0.64734 0.4824 0.64481 0.0
C2940 C 0.63757 0.45013 0.61157 0.0
C2941 C 0.60774 0.47545 0.61854 0.0
C2942 C 0.58634 0.46806 0.62746 0.0
C2943 C 0.56548 0.4756 0.61893 0.0
C2944 C 0.56687 0.49204 0.60168 0.0
C2945 C 0.58903 0.5009 0.59373 0.0
C2946 C 0.60948 0.492 0.60169 0.0
H2947 H 0.46777 0.74477 0.37272 0.0
H2948 H 0.49997 0.80583 0.41857 0.0
H2949 H 0.47537 0.82853 0.39415 0.0
H2950 H 0.45967 0.77213 0.31534 0.0
H2951 H 0.43081 0.75465 0.3058 0.0
H2952 H 0.45285 0.74346 0.32502 0.0
H2953 H 0.42299 0.73458 0.35659 0.0
H2954 H 0.40085 0.7455 0.33735 0.0
H2955 H 0.40919 0.75716 0.36823 0.0
H2956 H 0.44689 0.84436 0.3661 0.0
H2957 H 0.41214 0.85158 0.33955 0.0
H2958 H 0.39616 0.77991 0.31324 0.0
C2959 C 0.46971 0.76296 0.37736 0.0
C2960 C 0.48571 0.77367 0.39735 0.0
C2961 C 0.48764 0.79738 0.40331 0.0
C2962 C 0.47397 0.81043 0.38944 0.0
C2963 C 0.45826 0.79943 0.36986 0.0
C2964 C 0.45572 0.77619 0.36401 0.0
C2965 C 0.43574 0.76827 0.34363 0.0
C2966 C 0.44535 0.75909 0.32111 0.0
C2967 C 0.41603 0.75033 0.35196 0.0
C2968 C 0.42725 0.79063 0.33928 0.0
C2969 C 0.44089 0.80845 0.35423 0.0
C2970 C 0.43612 0.8306 0.35418 0.0
C2971 C 0.41637 0.83453 0.33895 0.0
C2972 C 0.40143 0.81631 0.32431 0.0
C2973 C 0.40732 0.7942 0.32412 0.0
H2974 H 0.16774 0.80168 0.11272 0.0
H2975 H 0.12394 0.79149 0.17163 0.0
H2976 H 0.12334 0.74997 0.16699 0.0
H2977 H 0.13781 0.7564 0.07574 0.0
H2978 H 0.16344 0.74839 0.0639 0.0
H2979 H 0.16436 0.77751 0.07472 0.0
H2980 H 0.20214 0.77626 0.10448 0.0
H2981 H 0.20147 0.74708 0.09359 0.0
H2982 H 0.20161 0.75408 0.1255 0.0
H2983 H 0.12193 0.70961 0.1517 0.0
H2984 H 0.12023 0.67358 0.12726 0.0
H2985 H 0.16598 0.71003 0.07913 0.0
C2986 C 0.15851 0.79083 0.12509 0.0
C2987 C 0.14589 0.79987 0.14252 0.0
C2988 C 0.13384 0.78501 0.15818 0.0
C2989 C 0.13346 0.76138 0.15575 0.0
C2990 C 0.14546 0.75298 0.13784 0.0
C2991 C 0.15799 0.76728 0.12295 0.0
C2992 C 0.16735 0.75385 0.10354 0.0
C2993 C 0.15765 0.75937 0.07798 0.0
C2994 C 0.19477 0.75807 0.107 0.0
C2995 C 0.15702 0.72975 0.10901 0.0
C2996 C 0.14484 0.72957 0.12913 0.0
C2997 C 0.13193 0.70945 0.13631 0.0
C2998 C 0.13114 0.68904 0.12233 0.0
C2999 C 0.14309 0.68895 0.10133 0.0
C3000 C 0.15664 0.70954 0.09505 0.0
H3001 H 0.0814 0.26372 0.86138 0.0
H3002 H 0.11499 0.29799 0.9304 0.0
H3003 H 0.15217 0.31033 0.91226 0.0
H3004 H 0.13321 0.24379 0.84328 0.0
H3005 H 0.12642 0.24875 0.81178 0.0
H3006 H 0.10266 0.24213 0.83039 0.0
H3007 H 0.08761 0.27932 0.81906 0.0
H3008 H 0.11137 0.2861 0.80049 0.0
H3009 H 0.10784 0.3064 0.82433 0.0
H3010 H 0.18558 0.31879 0.88675 0.0
H3011 H 0.21312 0.32295 0.85556 0.0
H3012 H 0.1571 0.28469 0.80262 0.0
C3013 C 0.09663 0.27369 0.87271 0.0
C3014 C 0.09538 0.27987 0.8973 0.0
C3015 C 0.11559 0.2931 0.9115 0.0
C3016 C 0.13677 0.30017 0.90138 0.0
C3017 C 0.13736 0.29396 0.87702 0.0
C3018 C 0.11784 0.28106 0.86285 0.0
C3019 C 0.12303 0.27709 0.83703 0.0
C3020 C 0.12123 0.25142 0.83023 0.0
C3021 C 0.10648 0.28788 0.81918 0.0
C3022 C 0.14855 0.28974 0.83893 0.0
C3023 C 0.15647 0.29929 0.86216 0.0
C3024 C 0.17953 0.31154 0.86844 0.0
C3025 C 0.19497 0.31398 0.85051 0.0
C3026 C 0.18725 0.30434 0.82653 0.0
C3027 C 0.16364 0.29215 0.82077 0.0
H3028 H 0.56726 0.70453 0.92824 0.0
H3029 H 0.60793 0.74699 0.98938 0.0
H3030 H 0.61036 0.71255 1.01172 0.0
H3031 H 0.53388 0.66228 0.96307 0.0
H3032 H 0.53499 0.63736 0.94376 0.0
H3033 H 0.53684 0.665 0.93135 0.0
H3034 H 0.57647 0.6607 0.91551 0.0
H3035 H 0.57466 0.63298 0.92774 0.0
H3036 H 0.60074 0.6548 0.93625 0.0
H3037 H 0.606 0.6724 0.03046 0.0
H3038 H 0.59888 0.63241 0.04144 0.0
H3039 H 0.5633 0.6111 0.96903 0.0
C3040 C 0.57747 0.70671 0.946 0.0
C3041 C 0.58827 0.72986 0.95608 0.0
C3042 C 0.60011 0.7305 0.98015 0.0
C3043 C 0.60139 0.71057 0.99338 0.0
C3044 C 0.59073 0.68856 0.98316 0.0
C3045 C 0.57927 0.68636 0.95972 0.0
C3046 C 0.56943 0.66021 0.9534 0.0
C3047 C 0.54216 0.65596 0.94752 0.0
C3048 C 0.581 0.65166 0.93193 0.0
C3049 C 0.57682 0.64822 0.97678 0.0
C3050 C 0.58893 0.66529 0.9937 0.0
C3051 C 0.59675 0.6592 1.01696 0.0
C3052 C 0.59247 0.63586 0.02319 0.0
C3053 C 0.5806 0.61712 1.0067 0.0
C3054 C 0.57277 0.62404 0.98268 0.0
H3055 H 0.16312 0.79047 0.66599 0.0
H3056 H 0.13099 0.83157 0.71469 0.0
H3057 H 0.16769 0.83634 0.74412 0.0
H3058 H 0.19249 0.76071 0.71415 0.0
H3059 H 0.21839 0.75948 0.69881 0.0
H3060 H 0.18998 0.7598 0.68151 0.0
H3061 H 0.2089 0.79512 0.66052 0.0
H3062 H 0.23732 0.79494 0.67785 0.0
H3063 H 0.22425 0.82036 0.67875 0.0
H3064 H 0.21135 0.83921 0.76782 0.0
H3065 H 0.25229 0.83548 0.78453 0.0
H3066 H 0.2554 0.78872 0.72337 0.0
C3067 C 0.16361 0.80041 0.68292 0.0
C3068 C 0.14341 0.81071 0.68749 0.0
C3069 C 0.14551 0.82333 0.71025 0.0
C3070 C 0.16665 0.82625 0.72719 0.0
C3071 C 0.18611 0.81608 0.72195 0.0
C3072 C 0.18447 0.80295 0.70044 0.0
C3073 C 0.20748 0.79295 0.69957 0.0
C3074 C 0.20174 0.76667 0.69843 0.0
C3075 C 0.22024 0.80134 0.67788 0.0
C3076 C 0.22255 0.80264 0.72368 0.0
C3077 C 0.21001 0.8163 0.73615 0.0
C3078 C 0.22083 0.82817 0.75815 0.0
C3079 C 0.24442 0.82598 0.76763 0.0
C3080 C 0.25766 0.8115 0.75592 0.0
C3081 C 0.24609 0.79964 0.73342 0.0
H3082 H 0.09481 0.36589 0.4837 0.0
H3083 H 0.08612 0.37677 0.407 0.0
H3084 H 0.08306 0.41685 0.4167 0.0
H3085 H 0.05421 0.40494 0.50206 0.0
H3086 H 0.07239 0.41634 0.52993 0.0
H3087 H 0.07331 0.3879 0.5177 0.0
H3088 H 0.11889 0.39887 0.51817 0.0
H3089 H 0.11806 0.42734 0.53038 0.0
H3090 H 0.13115 0.42343 0.50281 0.0
H3091 H 0.0799 0.45799 0.43445 0.0
H3092 H 0.07897 0.49413 0.45756 0.0
H3093 H 0.09161 0.46159 0.52463 0.0
C3094 C 0.09212 0.37653 0.46879 0.0
C3095 C 0.09064 0.36665 0.44395 0.0
C3096 C 0.08738 0.38253 0.42593 0.0
C3097 C 0.08556 0.4059 0.43139 0.0
C3098 C 0.08716 0.4149 0.4555 0.0
C3099 C 0.09052 0.40069 0.47407 0.0
C3100 C 0.09214 0.41546 0.49848 0.0
C3101 C 0.07182 0.40556 0.51292 0.0
C3102 C 0.11651 0.41631 0.51336 0.0
C3103 C 0.08927 0.43989 0.49079 0.0
C3104 C 0.08617 0.43883 0.46573 0.0
C3105 C 0.08251 0.45863 0.45405 0.0
C3106 C 0.08199 0.47959 0.46767 0.0
C3107 C 0.08541 0.48223 0.49356 0.0
C3108 C 0.08918 0.46135 0.50505 0.0
H3109 H 0.51286 0.31072 0.22235 0.0
H3110 H 0.47846 0.28008 0.15232 0.0
H3111 H 0.43941 0.27499 0.16829 0.0
H3112 H 0.47323 0.27642 0.26062 0.0
H3113 H 0.47211 0.29985 0.282 0.0
H3114 H 0.4978 0.30027 0.26589 0.0
H3115 H 0.49254 0.33933 0.25015 0.0
H3116 H 0.46686 0.33903 0.26625 0.0
H3117 H 0.46433 0.34238 0.23409 0.0
H3118 H 0.40204 0.27116 0.1932 0.0
H3119 H 0.37183 0.27317 0.22111 0.0
H3120 H 0.42675 0.31027 0.27556 0.0
C3121 C 0.49719 0.30277 0.21026 0.0
C3122 C 0.4999 0.29551 0.18548 0.0
C3123 C 0.47801 0.28577 0.17103 0.0
C3124 C 0.45531 0.28273 0.18016 0.0
C3125 C 0.45335 0.28993 0.20427 0.0
C3126 C 0.47379 0.3002 0.21908 0.0
C3127 C 0.46622 0.30752 0.24397 0.0
C3128 C 0.47806 0.2953 0.26434 0.0
C3129 C 0.4729 0.33362 0.24892 0.0
C3130 C 0.43858 0.29967 0.24104 0.0
C3131 C 0.43178 0.28919 0.21795 0.0
C3132 C 0.40758 0.27962 0.21109 0.0
C3133 C 0.39017 0.28081 0.22748 0.0
C3134 C 0.39569 0.29195 0.25129 0.0
C3135 C 0.42089 0.30164 0.2578 0.0
H3136 H 0.67706 0.55018 0.40751 0.0
H3137 H 0.73542 0.59817 0.44823 0.0
H3138 H 0.71114 0.60035 0.48206 0.0
H3139 H 0.62802 0.57437 0.42835 0.0
H3140 H 0.60955 0.54686 0.43042 0.0
H3141 H 0.63065 0.55028 0.40852 0.0
H3142 H 0.64994 0.51742 0.42614 0.0
H3143 H 0.62888 0.51384 0.44802 0.0
H3144 H 0.66045 0.51901 0.45805 0.0
H3145 H 0.68107 0.5979 0.51058 0.0
H3146 H 0.64854 0.58754 0.53515 0.0
H3147 H 0.61032 0.53825 0.47843 0.0
C3148 C 0.68458 0.56129 0.4235 0.0
C3149 C 0.70797 0.5742 0.42535 0.0
C3150 C 0.71752 0.58821 0.44659 0.0
C3151 C 0.70383 0.58965 0.46575 0.0
C3152 C 0.68082 0.57673 0.46337 0.0
C3153 C 0.67132 0.56257 0.44299 0.0
C3154 C 0.64675 0.54929 0.44594 0.0
C3155 C 0.62761 0.55558 0.42719 0.0
C3156 C 0.64651 0.52335 0.44445 0.0
C3157 C 0.64405 0.55806 0.47133 0.0
C3158 C 0.66383 0.57417 0.4807 0.0
C3159 C 0.66575 0.58497 0.50364 0.0
C3160 C 0.64736 0.57865 0.51773 0.0
C3161 C 0.62754 0.56141 0.50928 0.0
C3162 C 0.62546 0.55136 0.48545 0.0
H3163 H 0.36322 0.84316 0.11719 0.0
H3164 H 0.34581 0.91131 0.11624 0.0
H3165 H 0.34397 0.91185 0.1604 0.0
H3166 H 0.32474 0.82252 0.16141 0.0
H3167 H 0.34521 0.80601 0.17567 0.0
H3168 H 0.34531 0.81113 0.14404 0.0
H3169 H 0.39038 0.82858 0.15195 0.0
H3170 H 0.39037 0.82364 0.18365 0.0
H3171 H 0.4006 0.85202 0.17456 0.0
H3172 H 0.34342 0.90465 0.20514 0.0
H3173 H 0.34352 0.89001 0.24599 0.0
H3174 H 0.36182 0.82686 0.21777 0.0
C3175 C 0.35902 0.85824 0.12619 0.0
C3176 C 0.35469 0.87721 0.113 0.0
C3177 C 0.34924 0.89653 0.12574 0.0
C3178 C 0.34818 0.89703 0.15091 0.0
C3179 C 0.35265 0.8781 0.16331 0.0
C3180 C 0.35792 0.85905 0.15134 0.0
C3181 C 0.36175 0.84084 0.16882 0.0
C3182 C 0.34314 0.81883 0.16208 0.0
C3183 C 0.3873 0.83599 0.1698 0.0
C3184 C 0.35781 0.8526 0.19249 0.0
C3185 C 0.35258 0.87408 0.18895 0.0
C3186 C 0.34768 0.8879 0.20809 0.0
C3187 C 0.34788 0.87946 0.23132 0.0
C3188 C 0.35294 0.85735 0.23535 0.0
C3189 C 0.35818 0.84394 0.21555 0.0
H3190 H 0.04764 0.60682 0.87888 0.0
H3191 H 0.98097 0.55959 0.85732 0.0
H3192 H 0.98941 0.53709 0.89245 0.0
H3193 H 0.08175 0.56488 0.89689 0.0
H3194 H 0.09921 0.58255 0.92209 0.0
H3195 H 0.0874 0.5956 0.89599 0.0
H3196 H 0.06594 0.62002 0.92319 0.0
H3197 H 0.07828 0.6076 0.94941 0.0
H3198 H 0.04648 0.60601 0.94345 0.0
H3199 H 1.00567 0.51968 0.92977 0.0
H3200 H 1.02623 0.51116 0.96874 0.0
H3201 H 0.08299 0.56902 0.96387 0.0
C3202 C 1.03461 0.59196 0.88175 0.0
C3203 C 1.01364 0.58498 0.86552 0.0
C3204 C 0.99705 0.56537 0.86976 0.0
C3205 C 1.00182 0.55234 0.88946 0.0
C3206 C 1.02321 0.55922 0.90456 0.0
C3207 C 0.03917 0.57873 0.90108 0.0
C3208 C 0.06084 0.58254 0.91982 0.0
C3209 C 0.08365 0.58132 0.90798 0.0
C3210 C 0.063 0.60539 0.93486 0.0
C3211 C 0.05448 0.5623 0.9347 0.0
C3212 C 1.03281 0.54892 0.92554 0.0
C3213 C 1.02271 0.52995 0.93704 0.0
C3214 C 1.03457 0.52519 0.95909 0.0
C3215 C 0.05625 0.53939 0.96928 0.0
C3216 C 0.06668 0.55761 0.9564 0.0
H3217 H 0.31578 0.223 0.60499 0.0
H3218 H 0.38041 0.19492 0.61851 0.0
H3219 H 0.38436 0.2097 0.66173 0.0
H3220 H 0.33416 0.27456 0.64441 0.0
H3221 H 0.30528 0.27424 0.65444 0.0
H3222 H 0.30753 0.26129 0.62503 0.0
H3223 H 0.28338 0.22313 0.63604 0.0
H3224 H 0.28098 0.23598 0.66547 0.0
H3225 H 0.29334 0.21023 0.66305 0.0
H3226 H 0.38182 0.2305 0.70537 0.0
H3227 H 0.37241 0.25085 0.7418 0.0
H3228 H 0.30802 0.26437 0.7012 0.0
C3229 C 0.33087 0.2197 0.61688 0.0
C3230 C 0.34783 0.20737 0.60729 0.0
C3231 C 0.36696 0.20388 0.62445 0.0
C3232 C 0.36937 0.21247 0.64937 0.0
C3233 C 0.35245 0.22464 0.65786 0.0
C3234 C 0.33336 0.22796 0.64193 0.0
C3235 C 0.3173 0.2413 0.65539 0.0
C3236 C 0.31599 0.2642 0.64414 0.0
C3237 C 0.29226 0.2268 0.65496 0.0
C3238 C 0.3302 0.24529 0.68146 0.0
C3239 C 0.35059 0.23565 0.68244 0.0
C3240 C 0.36573 0.23775 0.70438 0.0
C3241 C 0.36013 0.24958 0.72535 0.0
C3242 C 0.3392 0.25954 0.72545 0.0
C3243 C 0.32406 0.25705 0.70264 0.0
H3244 H 0.67333 0.53887 0.29849 0.0
H3245 H 0.7428 0.5793 0.29243 0.0
H3246 H 0.73307 0.57718 0.24789 0.0
H3247 H 0.66674 0.50363 0.23733 0.0
H3248 H 0.63529 0.50446 0.23308 0.0
H3249 H 0.65029 0.50355 0.26316 0.0
H3250 H 0.63516 0.54017 0.2767 0.0
H3251 H 0.62054 0.54148 0.24677 0.0
H3252 H 0.64208 0.56566 0.26064 0.0
H3253 H 0.71212 0.57931 0.20655 0.0
H3254 H 0.68295 0.5826 0.17129 0.0
H3255 H 0.62737 0.54039 0.20439 0.0
C3256 C 0.68686 0.54643 0.28765 0.0
C3257 C 0.70875 0.55925 0.29872 0.0
C3258 C 0.72601 0.56917 0.28418 0.0
C3259 C 0.72061 0.56806 0.25888 0.0
C3260 C 0.69816 0.55649 0.24857 0.0
C3261 C 0.68177 0.54533 0.2625 0.0
C3262 C 0.6578 0.53685 0.24776 0.0
C3263 C 0.65221 0.51056 0.24517 0.0
C3264 C 0.63775 0.54665 0.25861 0.0
C3265 C 0.66263 0.54661 0.22387 0.0
C3266 C 0.68613 0.55744 0.22446 0.0
C3267 C 0.6939 0.57027 0.20559 0.0
C3268 C 0.6772 0.57226 0.18579 0.0
C3269 C 0.65303 0.56157 0.18515 0.0
C3270 C 0.64588 0.54818 0.20416 0.0
H3271 H 0.35242 0.89777 0.95829 0.0
H3272 H 0.32491 0.83699 0.99374 0.0
H3273 H 0.31489 0.81514 0.95386 0.0
H3274 H 0.30967 0.88818 0.90471 0.0
H3275 H 0.33105 0.89824 0.88439 0.0
H3276 H 0.33574 0.90932 0.91561 0.0
H3277 H 0.37721 0.89735 0.92085 0.0
H3278 H 0.37269 0.88644 0.88959 0.0
H3279 H 0.37953 0.86808 0.91322 0.0
H3280 H 0.30644 0.80017 0.90977 0.0
H3281 H 0.30432 0.79198 0.86561 0.0
H3282 H 0.33932 0.86183 0.85848 0.0
C3283 C 0.34432 0.87984 0.95766 0.0
C3284 C 0.33933 0.86913 0.97924 0.0
C3285 C 0.32893 0.84559 0.97757 0.0
C3286 C 0.32307 0.83306 0.95494 0.0
C3287 C 0.32796 0.84417 0.93403 0.0
C3288 C 0.33869 0.86696 0.9352 0.0
C3289 C 0.34286 0.87455 0.91004 0.0
C3290 C 0.329 0.89371 0.9033 0.0
C3291 C 0.36966 0.88204 0.90833 0.0
C3292 C 0.33266 0.85254 0.89452 0.0
C3293 C 0.32392 0.83531 0.90872 0.0
C3294 C 0.31335 0.81353 0.89853 0.0
C3295 C 0.31209 0.80908 0.87331 0.0
C3296 C 0.32159 0.8262 0.85835 0.0
C3297 C 0.33185 0.84831 0.86926 0.0
H3298 H 0.10703 0.6109 0.78159 0.0
H3299 H 0.05122 0.64676 0.75442 0.0
H3300 H 0.07132 0.65507 0.71796 0.0
H3301 H 0.15825 0.6436 0.74888 0.0
H3302 H 0.16835 0.61708 0.74284 0.0
H3303 H 0.15569 0.62194 0.7705 0.0
H3304 H 0.12485 0.58434 0.76032 0.0
H3305 H 0.13738 0.57942 0.73291 0.0
H3306 H 0.10602 0.58043 0.7317 0.0
H3307 H 0.09063 0.65127 0.68141 0.0
H3308 H 0.10313 0.63128 0.64664 0.0
H3309 H 0.14471 0.5949 0.69559 0.0
C3310 C 0.09983 0.62154 0.76849 0.0
C3311 C 0.07795 0.6286 0.77083 0.0
C3312 C 0.0682 0.6415 0.75295 0.0
C3313 C 0.07964 0.64648 0.73234 0.0
C3314 C 0.10065 0.63821 0.72984 0.0
C3315 C 0.11065 0.62593 0.74748 0.0
C3316 C 0.12954 0.6141 0.73815 0.0
C3317 C 0.15443 0.62483 0.75085 0.0
C3318 C 0.12408 0.58806 0.74091 0.0
C3319 C 0.12689 0.61969 0.71186 0.0
C3320 C 0.11117 0.63471 0.70778 0.0
C3321 C 0.10334 0.63994 0.68446 0.0
C3322 C 0.11044 0.62843 0.6648 0.0
C3323 C 0.12473 0.61149 0.66861 0.0
C3324 C 0.13421 0.60814 0.69233 0.0
H3325 H 0.34009 0.17939 0.44123 0.0
H3326 H 0.35918 0.2385 0.49287 0.0
H3327 H 0.36012 0.2639 0.45918 0.0
H3328 H 0.3751 0.20314 0.39328 0.0
H3329 H 0.35288 0.1915 0.36825 0.0
H3330 H 0.35426 0.1772 0.3961 0.0
H3331 H 0.31013 0.17918 0.39921 0.0
H3332 H 0.30861 0.19343 0.37133 0.0
H3333 H 0.30059 0.20648 0.39842 0.0
H3334 H 0.36071 0.28443 0.41888 0.0
H3335 H 0.35711 0.29759 0.37762 0.0
H3336 H 0.33417 0.22724 0.34847 0.0
C3337 C 0.34453 0.19768 0.44558 0.0
C3338 C 0.34978 0.20637 0.47082 0.0
C3339 C 0.3551 0.23071 0.47455 0.0
C3340 C 0.35575 0.24555 0.45515 0.0
C3341 C 0.35062 0.2366 0.43094 0.0
C3342 C 0.34473 0.21315 0.42599 0.0
C3343 C 0.33901 0.20842 0.39799 0.0
C3344 C 0.35634 0.19421 0.38833 0.0
C3345 C 0.31304 0.19613 0.39134 0.0
C3346 C 0.34278 0.23266 0.3881 0.0
C3347 C 0.34978 0.24855 0.40769 0.0
C3348 C 0.35505 0.27192 0.40365 0.0
C3349 C 0.353 0.27936 0.37965 0.0
C3350 C 0.34533 0.26404 0.35861 0.0
C3351 C 0.3401 0.23999 0.36345 0.0
H3352 H 0.35132 0.64828 0.53524 0.0
H3353 H 0.39237 0.71648 0.53196 0.0
H3354 H 0.42965 0.70091 0.53681 0.0
H3355 H 0.39333 0.62847 0.57986 0.0
H3356 H 0.38816 0.59989 0.56559 0.0
H3357 H 0.36474 0.61657 0.5631 0.0
H3358 H 0.36104 0.61088 0.51627 0.0
H3359 H 0.38449 0.59426 0.51861 0.0
H3360 H 0.38708 0.61903 0.50099 0.0
H3361 H 0.46248 0.67776 0.5406 0.0
H3362 H 0.48836 0.64864 0.54274 0.0
H3363 H 0.4261 0.59544 0.54347 0.0
C3364 C 0.36816 0.65997 0.5358 0.0
C3365 C 0.36892 0.68363 0.5333 0.0
C3366 C 0.39132 0.69831 0.53387 0.0
C3367 C 0.41262 0.68962 0.53664 0.0
C3368 C 0.41125 0.6662 0.53881 0.0
C3369 C 0.38961 0.65157 0.53845 0.0
C3370 C 0.39308 0.62699 0.54035 0.0
C3371 C 0.38431 0.61742 0.56361 0.0
C3372 C 0.38069 0.61191 0.51771 0.0
C3373 C 0.42001 0.63007 0.54159 0.0
C3374 C 0.43016 0.65285 0.54083 0.0
C3375 C 0.45473 0.6599 0.5414 0.0
C3376 C 0.46931 0.64324 0.54274 0.0
C3377 C 0.4593 0.61976 0.54341 0.0
C3378 C 0.43429 0.61322 0.54286 0.0
H3379 H 0.90828 0.93367 0.5224 0.0
H3380 H 0.87266 0.98363 0.55531 0.0
H3381 H 0.91031 1.01215 0.55887 0.0
H3382 H 0.96614 0.9507 0.55791 0.0
H3383 H 0.98299 0.94633 0.53312 0.0
H3384 H 0.95343 0.92991 0.5332 0.0
H3385 H 0.94055 0.9437 0.4913 0.0
H3386 H 0.9701 0.96013 0.49107 0.0
H3387 H 0.94451 0.97397 0.48722 0.0
H3388 H 0.95424 0.03557 0.56073 0.0
H3389 H 0.99667 0.05133 0.5581 0.0
H3390 H 1.0044 0.98753 0.52156 0.0
C3391 C 0.9082 0.95063 0.53033 0.0
C3392 C 0.88673 0.95593 0.53863 0.0
C3393 C 0.8882 0.97865 0.54869 0.0
C3394 C 0.90982 0.9951 0.55086 0.0
C3395 C 0.93047 0.9892 0.54267 0.0
C3396 C 0.92968 0.96747 0.53231 0.0
C3397 C 0.95425 0.96554 0.52446 0.0
C3398 C 0.96482 0.94701 0.53797 0.0
C3399 C 0.95223 0.96053 0.49687 0.0
C3400 C 0.96916 0.98944 0.53211 0.0
C3401 C 0.95508 1.00276 0.54281 0.0
C3402 C 0.96506 0.02513 0.55213 0.0
C3403 C 0.98952 0.03406 0.55055 0.0
C3404 C 1.00462 1.02117 0.53936 0.0
C3405 C 0.9938 0.99834 0.52994 0.0
H3406 H 0.85775 0.06021 0.22904 0.0
H3407 H 0.90852 0.09598 0.18562 0.0
H3408 H 0.88554 0.12736 0.18251 0.0
H3409 H 0.80232 0.08397 0.20247 0.0
H3410 H 0.79299 0.08634 0.23225 0.0
H3411 H 0.8082 0.06349 0.22416 0.0
H3412 H 0.83967 0.07613 0.2616 0.0
H3413 H 0.82493 0.09915 0.26958 0.0
H3414 H 0.85601 0.10514 0.26507 0.0
H3415 H 0.8635 0.15799 0.19188 0.0
H3416 H 0.84494 0.18587 0.21356 0.0
H3417 H 0.80892 0.13144 0.25279 0.0
C3418 C 0.86306 0.07403 0.21767 0.0
C3419 C 0.88434 0.07553 0.20691 0.0
C3420 C 0.89185 0.09442 0.19341 0.0
C3421 C 0.87888 0.11226 0.19156 0.0
C3422 C 0.85862 0.11101 0.20355 0.0
C3423 C 0.8506 0.09228 0.21625 0.0
C3424 C 0.83138 0.09706 0.23142 0.0
C3425 C 0.80729 0.08181 0.222 0.0
C3426 C 0.83845 0.09422 0.2585 0.0
C3427 C 0.83109 0.12186 0.22664 0.0
C3428 C 0.84631 0.12933 0.20988 0.0
C3429 C 0.851 0.1522 0.20448 0.0
C3430 C 0.84031 0.16794 0.2169 0.0
C3431 C 0.82533 0.16082 0.2348 0.0
C3432 C 0.8202 0.13736 0.23915 0.0
H3433 H 0.71515 0.18562 1.01241 0.0
H3434 H 0.77226 0.1481 0.03177 0.0
H3435 H 0.74278 0.11269 0.0315 0.0
H3436 H 0.67351 0.15597 0.04876 0.0
H3437 H 0.64771 0.15577 0.02705 0.0
H3438 H 0.67333 0.1783 0.02798 0.0
H3439 H 0.67569 0.16882 0.98244 0.0
H3440 H 0.65014 0.14616 0.98143 0.0
H3441 H 0.67765 0.14009 0.97213 0.0
H3442 H 0.70741 0.08156 0.0311 0.0
H3443 H 0.66802 0.05675 0.03066 0.0
H3444 H 0.63347 0.11357 1.01044 0.0
C3445 C 0.72147 0.16996 1.01653 0.0
C3446 C 0.74614 0.1698 0.02213 0.0
C3447 C 0.75355 0.14884 0.02741 0.0
C3448 C 0.73692 0.12853 0.02727 0.0
C3449 C 0.71283 0.12928 0.02168 0.0
C3450 C 0.70505 0.1494 1.01638 0.0
C3451 C 0.67801 0.14541 1.01147 0.0
C3452 C 0.66753 0.15971 0.02992 0.0
C3453 C 0.6699 0.15042 0.98531 0.0
C3454 C 0.67192 0.12002 1.01515 0.0
C3455 C 0.69231 0.11108 0.02099 0.0
C3456 C 0.6913 0.08829 0.02631 0.0
C3457 C 0.66884 0.07432 0.02601 0.0
C3458 C 0.64767 0.08312 0.02028 0.0
C3459 C 0.64933 0.10621 1.01444 0.0
H3460 H 0.21619 0.4795 0.32009 0.0
H3461 H 0.25565 0.53642 0.28683 0.0
H3462 H 0.29111 0.51774 0.29013 0.0
H3463 H 0.26503 0.46967 0.36261 0.0
H3464 H 0.25573 0.439 0.3596 0.0
H3465 H 0.23388 0.45726 0.35524 0.0
H3466 H 0.21882 0.43712 0.31256 0.0
H3467 H 0.2405 0.41872 0.31687 0.0
H3468 H 0.23975 0.43563 0.29085 0.0
H3469 H 0.32199 0.49194 0.29632 0.0
H3470 H 0.34466 0.46048 0.30293 0.0
H3471 H 0.28457 0.42141 0.33266 0.0
C3472 C 0.23228 0.48812 0.31353 0.0
C3473 C 0.2332 0.50941 0.30322 0.0
C3474 C 0.25459 0.52007 0.2948 0.0
C3475 C 0.27482 0.50964 0.29668 0.0
C3476 C 0.27332 0.48864 0.30708 0.0
C3477 C 0.25254 0.47801 0.31529 0.0
C3478 C 0.25517 0.45522 0.32508 0.0
C3479 C 0.25229 0.45531 0.35225 0.0
C3480 C 0.23752 0.43552 0.31046 0.0
C3481 C 0.2806 0.45449 0.32082 0.0
C3482 C 0.29091 0.47396 0.31061 0.0
C3483 C 0.31414 0.47669 0.30446 0.0
C3484 C 0.32692 0.45883 0.30841 0.0
C3485 C 0.31633 0.43853 0.31825 0.0
C3486 C 0.29307 0.43666 0.32493 0.0
H3487 H 0.25219 0.48659 0.04883 0.0
H3488 H 0.21766 0.41599 0.03115 0.0
H3489 H 0.17834 0.4277 0.02942 0.0
H3490 H 0.20721 0.50239 0.08649 0.0
H3491 H 0.20835 0.5307 0.07597 0.0
H3492 H 0.23414 0.51716 0.07622 0.0
H3493 H 0.23515 0.52291 0.03068 0.0
H3494 H 0.20935 0.53645 0.03031 0.0
H3495 H 0.20892 0.51207 1.00962 0.0
H3496 H 0.14038 0.44742 0.02947 0.0
H3497 H 0.11002 0.47201 0.031 0.0
H3498 H 0.16628 0.53139 0.04804 0.0
C3499 C 0.23643 0.47345 0.04468 0.0
C3500 C 0.23913 0.44981 0.04025 0.0
C3501 C 0.21719 0.43395 0.03476 0.0
C3502 C 0.19431 0.44058 0.0337 0.0
C3503 C 0.19235 0.46364 0.03803 0.0
C3504 C 0.21294 0.47993 0.04342 0.0
C3505 C 0.20548 0.50367 0.04709 0.0
C3506 C 0.21434 0.51411 0.07298 0.0
C3507 C 0.21532 0.51974 0.02831 0.0
C3508 C 0.17774 0.49828 0.04299 0.0
C3509 C 0.17066 0.47493 0.03782 0.0
C3510 C 0.14612 0.46566 0.03349 0.0
C3511 C 0.12864 0.48005 0.0344 0.0
C3512 C 0.13467 0.50426 0.03955 0.0
C3513 C 0.16016 0.51321 0.0439 0.0
H3514 H 0.89187 0.97125 0.25621 0.0
H3515 H 0.95967 0.95715 0.23762 0.0
H3516 H 0.94464 0.91577 0.23772 0.0
H3517 H 0.88413 0.92837 0.29815 0.0
H3518 H 0.85223 0.9205 0.29081 0.0
H3519 H 0.86705 0.94904 0.28651 0.0
H3520 H 0.84874 0.94444 0.24146 0.0
H3521 H 0.83391 0.91581 0.24563 0.0
H3522 H 0.85332 0.92067 0.22229 0.0
H3523 H 0.92398 0.87667 0.24199 0.0
H3524 H 0.89957 0.84138 0.25312 0.0
H3525 H 0.84498 0.87963 0.27067 0.0
C3526 C 0.90331 0.95935 0.25179 0.0
C3527 C 0.92687 0.9673 0.24679 0.0
C3528 C 0.94159 0.95136 0.24158 0.0
C3529 C 0.93317 0.92783 0.24141 0.0
C3530 C 0.91002 0.92048 0.24669 0.0
C3531 C 0.89528 0.93565 0.25199 0.0
C3532 C 0.87195 0.92301 0.25917 0.0
C3533 C 0.86866 0.93069 0.2852 0.0
C3534 C 0.85072 0.92617 0.24105 0.0
C3535 C 0.87615 0.8985 0.25743 0.0
C3536 C 0.89811 0.89753 0.24982 0.0
C3537 C 0.90666 0.87712 0.2478 0.0
C3538 C 0.89264 0.85716 0.25424 0.0
C3539 C 0.87034 0.8577 0.26277 0.0
C3540 C 0.8618 0.87862 0.26392 0.0
H3541 H 0.67731 0.06002 0.76718 0.0
H3542 H 0.61322 0.07032 0.72312 0.0
H3543 H 0.63425 0.10808 0.71336 0.0
H3544 H 0.69378 0.11717 0.79274 0.0
H3545 H 0.72542 0.11822 0.79303 0.0
H3546 H 0.70597 0.09131 0.79516 0.0
H3547 H 0.72164 0.07405 0.75777 0.0
H3548 H 0.74127 0.10088 0.75558 0.0
H3549 H 0.7204 0.08822 0.72986 0.0
H3550 H 0.66177 0.1449 0.70921 0.0
H3551 H 0.69368 0.17899 0.71182 0.0
H3552 H 0.73953 0.1452 0.75954 0.0
C3553 C 0.66781 0.07006 0.75516 0.0
C3554 C 0.6437 0.06218 0.74571 0.0
C3555 C 0.63172 0.07604 0.73051 0.0
C3556 C 0.64351 0.09746 0.72483 0.0
C3557 C 0.6672 0.10482 0.73467 0.0
C3558 C 0.67921 0.09159 0.74958 0.0
C3559 C 0.70422 0.10399 0.75877 0.0
C3560 C 0.70753 0.1079 0.78657 0.0
C3561 C 0.72299 0.09101 0.74996 0.0
C3562 C 0.70439 0.12629 0.74673 0.0
C3563 C 0.68291 0.12632 0.73277 0.0
C3564 C 0.67871 0.14504 0.71999 0.0
C3565 C 0.69696 0.16427 0.7215 0.0
C3566 C 0.71909 0.16467 0.7358 0.0
C3567 C 0.72276 0.14541 0.74859 0.0
loop_
_geom_bond_atom_site_label_1
_geom_bond_atom_site_label_2
_geom_bond_distance
_geom_bond_site_symmetry_2
_ccdc_geom_bond_type
Co0 O1 2.216 . S
Co0 O2 2.091 . S
Co0 O4 2.004 . S
Co0 O10 2.021 . S
Co0 O12 2.137 . S
Co0 O13 2.244 . S
O1 Co0 2.216 . S
O1 C8 1.247 . S
O2 Co0 2.091 . S
O2 C8 1.261 . S
C3 O12 1.247 . S
C3 O13 1.272 . S
O4 Co0 2.004 . S
O4 C9 1.259 . S
Co5 O6 2.078 . S
Co5 O11 2.052 . S
Co5 O13 2.135 . S
O6 Co5 2.078 . S
O6 C9 1.246 . S
C7 O10 1.238 . S
C7 O11 1.241 . S
C8 O1 1.247 . S
C8 O2 1.261 . S
C9 O4 1.259 . S
C9 O6 1.246 . S
O10 Co0 2.021 . S
O10 C7 1.238 . S
O11 Co5 2.052 . S
O11 C7 1.241 . S
O12 Co0 2.137 . S
O12 C3 1.247 . S
O13 Co0 2.244 . S
O13 C3 1.272 . S
O13 Co5 2.135 . S
Co14 O15 2.216 . S
Co14 O16 2.091 . S
Co14 O18 2.004 . S
Co14 O24 2.021 . S
Co14 O26 2.137 . S
Co14 O27 2.244 . S
O15 Co14 2.216 . S
O15 C22 1.247 . S
O16 Co14 2.091 . S
O16 C22 1.261 . S
C17 O26 1.247 . S
C17 O27 1.272 . S
O18 Co14 2.004 . S
O18 C23 1.259 . S
Co19 O20 2.061 . S
Co19 O25 2.052 . S
Co19 O27 2.135 . S
O20 Co19 2.061 . S
O20 C23 1.235 . S
C21 O24 1.238 . S
C21 O25 1.241 . S
C22 O15 1.247 . S
C22 O16 1.261 . S
C23 O18 1.259 . S
C23 O20 1.235 . S
O24 Co14 2.021 . S
O24 C21 1.238 . S
O25 Co19 2.052 . S
O25 C21 1.241 . S
O26 Co14 2.137 . S
O26 C17 1.247 . S
O27 Co14 2.244 . S
O27 C17 1.272 . S
O27 Co19 2.135 . S
Co28 O29 2.216 . S
Co28 O30 2.091 . S
Co28 O32 2.004 . S
Co28 O38 2.021 . S
Co28 O40 2.137 . S
Co28 O41 2.244 . S
O29 Co28 2.216 . S
O29 C36 1.247 . S
O30 Co28 2.091 . S
O30 C36 1.261 . S
C31 O40 1.247 . S
C31 O41 1.272 . S
O32 Co28 2.004 . S
O32 C37 1.259 . S
Co33 O34 2.061 . S
Co33 O39 2.052 . S
Co33 O41 2.135 . S
O34 Co33 2.061 . S
O34 C37 1.235 . S
C35 O38 1.238 . S
C35 O39 1.241 . S
C36 O29 1.247 . S
C36 O30 1.261 . S
C37 O32 1.259 . S
C37 O34 1.235 . S
O38 Co28 2.021 . S
O38 C35 1.238 . S
O39 Co33 2.052 . S
O39 C35 1.241 . S
O40 Co28 2.137 . S
O40 C31 1.247 . S
O41 Co28 2.244 . S
O41 C31 1.272 . S
O41 Co33 2.135 . S
Co42 O43 2.216 . S
Co42 O44 2.091 . S
Co42 O46 2.004 . S
Co42 O52 2.021 . S
Co42 O54 2.137 . S
Co42 O55 2.244 . S
O43 Co42 2.216 . S
O43 C50 1.247 . S
O44 Co42 2.091 . S
O44 C50 1.261 . S
C45 O54 1.247 . S
C45 O55 1.272 . S
O46 Co42 2.004 . S
O46 C51 1.259 . S
Co47 O48 2.061 . S
Co47 O53 2.052 . S
Co47 O55 2.135 . S
O48 Co47 2.061 . S
O48 C51 1.235 . S
C49 O52 1.238 . S
C49 O53 1.241 . S
C50 O43 1.247 . S
C50 O44 1.261 . S
C51 O46 1.259 . S
C51 O48 1.235 . S
O52 Co42 2.021 . S
O52 C49 1.238 . S
O53 Co47 2.052 . S
O53 C49 1.241 . S
O54 Co42 2.137 . S
O54 C45 1.247 . S
O55 Co42 2.244 . S
O55 C45 1.272 . S
O55 Co47 2.135 . S
Co56 O57 2.216 . S
Co56 O58 2.091 . S
Co56 O60 2.004 . S
Co56 O66 2.021 . S
Co56 O68 2.137 . S
Co56 O69 2.244 . S
O57 Co56 2.216 . S
O57 C64 1.247 . S
O58 Co56 2.091 . S
O58 C64 1.261 . S
C59 O68 1.247 . S
C59 O69 1.272 . S
O60 Co56 2.004 . S
O60 C65 1.259 . S
Co61 O62 2.061 . S
Co61 O67 2.052 . S
Co61 O69 2.135 . S
O62 Co61 2.061 . S
O62 C65 1.235 . S
C63 O66 1.238 . S
C63 O67 1.241 . S
C64 O57 1.247 . S
C64 O58 1.261 . S
C65 O60 1.259 . S
C65 O62 1.235 . S
O66 Co56 2.021 . S
O66 C63 1.238 . S
O67 Co61 2.052 . S
O67 C63 1.241 . S
O68 Co56 2.137 . S
O68 C59 1.247 . S
O69 Co56 2.244 . S
O69 C59 1.272 . S
O69 Co61 2.135 . S
Co70 O71 2.216 . S
Co70 O72 2.091 . S
Co70 O74 2.004 . S
Co70 O80 2.021 . S
Co70 O82 2.137 . S
Co70 O83 2.244 . S
O71 Co70 2.216 . S
O71 C78 1.247 . S
O72 Co70 2.091 . S
O72 C78 1.261 . S
C73 O82 1.247 . S
C73 O83 1.272 . S
O74 Co70 2.004 . S
O74 C79 1.259 . S
Co75 O76 2.061 . S
Co75 O81 2.052 . S
Co75 O83 2.135 . S
O76 Co75 2.061 . S
O76 C79 1.235 . S
C77 O80 1.238 . S
C77 O81 1.241 . S
C78 O71 1.247 . S
C78 O72 1.261 . S
C79 O74 1.259 . S
C79 O76 1.235 . S
O80 Co70 2.021 . S
O80 C77 1.238 . S
O81 Co75 2.052 . S
O81 C77 1.241 . S
O82 Co70 2.137 . S
O82 C73 1.247 . S
O83 Co70 2.244 . S
O83 C73 1.272 . S
O83 Co75 2.135 . S
Co84 O85 2.216 . S
Co84 O86 2.091 . S
Co84 O88 2.004 . S
Co84 O94 2.021 . S
Co84 O96 2.137 . S
Co84 O97 2.244 . S
O85 Co84 2.216 . S
O85 C92 1.247 . S
O86 Co84 2.091 . S
O86 C92 1.261 . S
C87 O96 1.247 . S
C87 O97 1.272 . S
O88 Co84 2.004 . S
O88 C93 1.259 . S
Co89 O90 2.061 . S
Co89 O95 2.052 . S
Co89 O97 2.135 . S
O90 Co89 2.061 . S
O90 C93 1.235 . S
C91 O94 1.238 . S
C91 O95 1.241 . S
C92 O85 1.247 . S
C92 O86 1.261 . S
C93 O88 1.259 . S
C93 O90 1.235 . S
O94 Co84 2.021 . S
O94 C91 1.238 . S
O95 Co89 2.052 . S
O95 C91 1.241 . S
O96 Co84 2.137 . S
O96 C87 1.247 . S
O97 Co84 2.244 . S
O97 C87 1.272 . S
O97 Co89 2.135 . S
Co98 O99 2.216 . S
Co98 O100 2.091 . S
Co98 O102 2.004 1_455 S
Co98 O108 2.021 1_455 S
Co98 O110 2.137 . S
Co98 O111 2.244 1_455 S
O99 Co98 2.216 . S
O99 C106 1.247 . S
O100 Co98 2.091 . S
O100 C106 1.261 . S
C101 O110 1.247 . S
C101 O111 1.272 1_455 S
O102 Co98 2.004 1_655 S
O102 C107 1.259 . S
Co103 O104 2.061 . S
Co103 O109 2.052 . S
Co103 O111 2.135 . S
O104 Co103 2.061 . S
O104 C107 1.235 . S
C105 O108 1.245 . S
C105 O109 1.241 . S
C106 O99 1.247 . S
C106 O100 1.261 . S
C107 O102 1.259 . S
C107 O104 1.235 . S
O108 Co98 2.021 1_655 S
O108 C105 1.245 . S
O109 Co103 2.052 . S
O109 C105 1.241 . S
O110 Co98 2.137 . S
O110 C101 1.247 . S
O111 Co98 2.244 1_655 S
O111 C101 1.272 1_655 S
O111 Co103 2.135 . S
Co112 O113 2.216 . S
Co112 O114 2.091 . S
Co112 O116 2.004 . S
Co112 O122 2.021 . S
Co112 O124 2.137 . S
Co112 O125 2.244 . S
O113 Co112 2.216 . S
O113 C120 1.247 . S
O114 Co112 2.091 . S
O114 C120 1.261 . S
C115 O124 1.247 . S
C115 O125 1.272 . S
O116 Co112 2.004 . S
O116 C121 1.259 . S
Co117 O118 2.061 . S
Co117 O123 2.052 . S
Co117 O125 2.135 . S
O118 Co117 2.061 . S
O118 C121 1.235 . S
C119 O122 1.238 . S
C119 O123 1.241 . S
C120 O113 1.247 . S
C120 O114 1.261 . S
C121 O116 1.259 . S
C121 O118 1.235 . S
O122 Co112 2.021 . S
O122 C119 1.238 . S
O123 Co117 2.052 . S
O123 C119 1.241 . S
O124 Co112 2.137 . S
O124 C115 1.247 . S
O125 Co112 2.244 . S
O125 C115 1.272 . S
O125 Co117 2.135 . S
Co126 O127 2.216 . S
Co126 O128 2.091 . S
Co126 O130 2.004 . S
Co126 O136 2.021 . S
Co126 O138 2.137 . S
Co126 O139 2.244 . S
O127 Co126 2.216 . S
O127 C134 1.247 . S
O128 Co126 2.091 . S
O128 C134 1.261 . S
C129 O138 1.247 . S
C129 O139 1.272 . S
O130 Co126 2.004 . S
O130 C135 1.259 . S
Co131 O132 2.061 . S
Co131 O137 2.052 . S
Co131 O139 2.135 . S
O132 Co131 2.061 . S
O132 C135 1.235 . S
C133 O136 1.238 . S
C133 O137 1.241 . S
C134 O127 1.247 . S
C134 O128 1.261 . S
C135 O130 1.259 . S
C135 O132 1.235 . S
O136 Co126 2.021 . S
O136 C133 1.238 . S
O137 Co131 2.052 . S
O137 C133 1.241 . S
O138 Co126 2.137 . S
O138 C129 1.247 . S
O139 Co126 2.244 . S
O139 C129 1.272 . S
O139 Co131 2.135 . S
Co140 O141 2.216 . S
Co140 O142 2.091 . S
Co140 O144 2.004 . S
Co140 O150 2.021 . S
Co140 O152 2.137 . S
Co140 O153 2.244 . S
O141 Co140 2.216 . S
O141 C148 1.247 . S
O142 Co140 2.091 . S
O142 C148 1.261 . S
C143 O152 1.247 . S
C143 O153 1.272 . S
O144 Co140 2.004 . S
O144 C149 1.259 . S
Co145 O146 2.061 . S
Co145 O151 2.052 . S
Co145 O153 2.135 . S
O146 Co145 2.061 . S
O146 C149 1.235 . S
C147 O150 1.238 . S
C147 O151 1.241 . S
C148 O141 1.247 . S
C148 O142 1.261 . S
C149 O144 1.259 . S
C149 O146 1.235 . S
O150 Co140 2.021 . S
O150 C147 1.238 . S
O151 Co145 2.052 . S
O151 C147 1.241 . S
O152 Co140 2.137 . S
O152 C143 1.247 . S
O153 Co140 2.244 . S
O153 C143 1.272 . S
O153 Co145 2.135 . S
Co154 O155 2.216 . S
Co154 O156 2.091 . S
Co154 O158 2.004 . S
Co154 O164 2.021 . S
Co154 O166 2.137 . S
Co154 O167 2.244 . S
O155 Co154 2.216 . S
O155 C162 1.247 . S
O156 Co154 2.091 . S
O156 C162 1.261 . S
C157 O166 1.247 . S
C157 O167 1.272 . S
O158 Co154 2.004 . S
O158 C163 1.259 . S
Co159 O160 2.061 . S
Co159 O165 2.052 . S
Co159 O167 2.135 . S
O160 Co159 2.061 . S
O160 C163 1.235 . S
C161 O164 1.238 . S
C161 O165 1.241 . S
C162 O155 1.247 . S
C162 O156 1.261 . S
C163 O158 1.259 . S
C163 O160 1.235 . S
O164 Co154 2.021 . S
O164 C161 1.238 . S
O165 Co159 2.052 . S
O165 C161 1.241 . S
O166 Co154 2.137 . S
O166 C157 1.247 . S
O167 Co154 2.244 . S
O167 C157 1.272 . S
O167 Co159 2.135 . S
Co168 O169 2.216 . S
Co168 O170 2.091 . S
Co168 O172 2.004 . S
Co168 O178 2.021 . S
Co168 O180 2.137 1_554 S
Co168 O181 2.244 . S
O169 Co168 2.216 . S
O169 C176 1.247 . S
O170 Co168 2.091 . S
O170 C176 1.261 . S
C171 O180 1.247 . S
C171 O181 1.272 1_556 S
O172 Co168 2.004 . S
O172 C177 1.259 . S
Co173 O174 2.061 . S
Co173 O179 2.052 . S
Co173 O181 2.135 . S
O174 Co173 2.061 . S
O174 C177 1.235 . S
C175 O178 1.238 . S
C175 O179 1.241 . S
C176 O169 1.247 . S
C176 O170 1.261 . S
C177 O172 1.259 . S
C177 O174 1.235 . S
O178 Co168 2.021 . S
O178 C175 1.238 . S
O179 Co173 2.052 . S
O179 C175 1.241 . S
O180 Co168 2.137 1_556 S
O180 C171 1.247 . S
O181 Co168 2.244 . S
O181 C171 1.272 1_554 S
O181 Co173 2.135 . S
Co182 O183 2.216 1_556 S
Co182 O184 2.089 1_556 S
Co182 O186 2.004 . S
Co182 O192 2.021 1_556 S
Co182 O194 2.137 . S
Co182 O195 2.244 . S
O183 Co182 2.216 1_554 S
O183 C190 1.247 . S
O184 Co182 2.089 1_554 S
O184 C190 1.260 . S
C185 O194 1.247 . S
C185 O195 1.272 . S
O186 Co182 2.004 . S
O186 C191 1.259 . S
Co187 O188 2.057 . S
Co187 O193 2.016 1_556 S
Co187 O195 2.163 . S
O188 Co187 2.057 . S
O188 C191 1.235 . S
C189 O192 1.238 . S
C189 O193 1.241 . S
C190 O183 1.247 . S
C190 O184 1.260 . S
C191 O186 1.259 . S
C191 O188 1.235 . S
O192 Co182 2.021 1_554 S
O192 C189 1.238 . S
O193 Co187 2.016 1_554 S
O193 C189 1.241 . S
O194 Co182 2.137 . S
O194 C185 1.247 . S
O195 Co182 2.244 . S
O195 C185 1.272 . S
O195 Co187 2.163 . S
Co196 O197 2.216 . S
Co196 O198 2.091 . S
Co196 O200 2.004 . S
Co196 O206 2.021 . S
Co196 O208 2.137 . S
Co196 O209 2.244 . S
O197 Co196 2.216 . S
O197 C204 1.247 . S
O198 Co196 2.091 . S
O198 C204 1.261 . S
C199 O208 1.247 . S
C199 O209 1.272 . S
O200 Co196 2.004 . S
O200 C205 1.259 . S
Co201 O202 2.061 . S
Co201 O207 2.052 . S
Co201 O209 2.135 . S
O202 Co201 2.061 . S
O202 C205 1.235 . S
C203 O206 1.238 . S
C203 O207 1.241 . S
C204 O197 1.247 . S
C204 O198 1.261 . S
C205 O200 1.259 . S
C205 O202 1.235 . S
O206 Co196 2.021 . S
O206 C203 1.238 . S
O207 Co201 2.052 . S
O207 C203 1.241 . S
O208 Co196 2.137 . S
O208 C199 1.247 . S
O209 Co196 2.244 . S
O209 C199 1.272 . S
O209 Co201 2.135 . S
Co210 O211 2.216 . S
Co210 O212 2.091 . S
Co210 O214 2.004 . S
Co210 O220 2.021 . S
Co210 O222 2.137 . S
Co210 O223 2.244 . S
O211 Co210 2.216 . S
O211 C218 1.247 . S
O212 Co210 2.091 . S
O212 C218 1.261 . S
C213 O222 1.247 . S
C213 O223 1.272 . S
O214 Co210 2.004 . S
O214 C219 1.259 . S
Co215 O216 2.061 . S
Co215 O221 2.052 . S
Co215 O223 2.135 . S
O216 Co215 2.061 . S
O216 C219 1.235 . S
C217 O220 1.238 . S
C217 O221 1.241 . S
C218 O211 1.247 . S
C218 O212 1.261 . S
C219 O214 1.259 . S
C219 O216 1.235 . S
O220 Co210 2.021 . S
O220 C217 1.238 . S
O221 Co215 2.052 . S
O221 C217 1.241 . S
O222 Co210 2.137 . S
O222 C213 1.247 . S
O223 Co210 2.244 . S
O223 C213 1.272 . S
O223 Co215 2.135 . S
Co224 O225 2.216 . S
Co224 O226 2.091 . S
Co224 O228 2.004 1_545 S
Co224 O234 2.021 . S
Co224 O236 2.137 . S
Co224 O237 2.244 1_545 S
O225 Co224 2.216 . S
O225 C232 1.247 . S
O226 Co224 2.091 . S
O226 C232 1.261 . S
C227 O236 1.247 . S
C227 O237 1.272 1_545 S
O228 Co224 2.004 1_565 S
O228 C233 1.259 . S
Co229 O230 2.061 . S
Co229 O235 2.052 . S
Co229 O237 2.135 . S
O230 Co229 2.061 . S
O230 C233 1.235 . S
C231 O234 1.238 1_565 S
C231 O235 1.241 . S
C232 O225 1.247 . S
C232 O226 1.261 . S
C233 O228 1.259 . S
C233 O230 1.235 . S
O234 Co224 2.021 . S
O234 C231 1.238 1_545 S
O235 Co229 2.052 . S
O235 C231 1.241 . S
O236 Co224 2.137 . S
O236 C227 1.247 . S
O237 Co224 2.244 1_565 S
O237 C227 1.272 1_565 S
O237 Co229 2.135 . S
Co238 O239 2.216 . S
Co238 O240 2.091 . S
Co238 O242 2.004 . S
Co238 O248 2.021 . S
Co238 O250 2.137 . S
Co238 O251 2.244 . S
O239 Co238 2.216 . S
O239 C246 1.247 . S
O240 Co238 2.091 . S
O240 C246 1.261 . S
C241 O250 1.247 . S
C241 O251 1.272 . S
O242 Co238 2.004 . S
O242 C247 1.259 . S
Co243 O244 2.061 . S
Co243 O249 2.052 . S
Co243 O251 2.135 . S
O244 Co243 2.061 . S
O244 C247 1.235 . S
C245 O248 1.238 . S
C245 O249 1.241 . S
C246 O239 1.247 . S
C246 O240 1.261 . S
C247 O242 1.259 . S
C247 O244 1.235 . S
O248 Co238 2.021 . S
O248 C245 1.238 . S
O249 Co243 2.052 . S
O249 C245 1.241 . S
O250 Co238 2.137 . S
O250 C241 1.247 . S
O251 Co238 2.244 . S
O251 C241 1.272 . S
O251 Co243 2.135 . S
Co252 O253 2.216 . S
Co252 O254 2.091 . S
Co252 O256 2.004 . S
Co252 O262 2.021 . S
Co252 O264 2.137 . S
Co252 O265 2.244 . S
O253 Co252 2.216 . S
O253 C260 1.247 . S
O254 Co252 2.091 . S
O254 C260 1.261 . S
C255 O264 1.247 . S
C255 O265 1.272 . S
O256 Co252 2.004 . S
O256 C261 1.259 . S
Co257 O258 2.061 . S
Co257 O263 2.052 . S
Co257 O265 2.135 . S
O258 Co257 2.061 . S
O258 C261 1.235 . S
C259 O262 1.238 . S
C259 O263 1.241 . S
C260 O253 1.247 . S
C260 O254 1.261 . S
C261 O256 1.259 . S
C261 O258 1.235 . S
O262 Co252 2.021 . S
O262 C259 1.238 . S
O263 Co257 2.052 . S
O263 C259 1.241 . S
O264 Co252 2.137 . S
O264 C255 1.247 . S
O265 Co252 2.244 . S
O265 C255 1.272 . S
O265 Co257 2.135 . S
Co266 O267 2.216 1_545 S
Co266 O268 2.091 1_545 S
Co266 O270 2.004 . S
Co266 O276 2.021 . S
Co266 O278 2.140 . S
Co266 O279 2.244 . S
O267 Co266 2.216 1_565 S
O267 C274 1.247 . S
O268 Co266 2.091 1_565 S
O268 C274 1.261 . S
C269 O278 1.258 . S
C269 O279 1.272 . S
O270 Co266 2.004 . S
O270 C275 1.259 . S
Co271 O272 2.061 . S
Co271 O277 2.052 . S
Co271 O279 2.135 . S
O272 Co271 2.061 . S
O272 C275 1.235 . S
C273 O276 1.238 . S
C273 O277 1.241 . S
C274 O267 1.247 . S
C274 O268 1.261 . S
C275 O270 1.259 . S
C275 O272 1.235 . S
O276 Co266 2.021 . S
O276 C273 1.238 . S
O277 Co271 2.052 . S
O277 C273 1.241 . S
O278 Co266 2.140 . S
O278 C269 1.258 . S
O279 Co266 2.244 . S
O279 C269 1.272 . S
O279 Co271 2.135 . S
Co280 O281 2.216 . S
Co280 O282 2.091 . S
Co280 O284 2.004 . S
Co280 O290 2.021 . S
Co280 O292 2.137 1_554 S
Co280 O293 2.243 1_554 S
O281 Co280 2.216 . S
O281 C288 1.247 . S
O282 Co280 2.091 . S
O282 C288 1.261 . S
C283 O292 1.247 . S
C283 O293 1.273 . S
O284 Co280 2.004 . S
O284 C289 1.259 . S
Co285 O286 2.061 . S
Co285 O291 2.052 . S
Co285 O293 2.134 1_554 S
O286 Co285 2.061 . S
O286 C289 1.235 . S
C287 O290 1.238 . S
C287 O291 1.241 . S
C288 O281 1.247 . S
C288 O282 1.261 . S
C289 O284 1.259 . S
C289 O286 1.235 . S
O290 Co280 2.021 . S
O290 C287 1.238 . S
O291 Co285 2.052 . S
O291 C287 1.241 . S
O292 Co280 2.137 1_556 S
O292 C283 1.247 . S
O293 Co280 2.243 1_556 S
O293 C283 1.273 . S
O293 Co285 2.134 1_556 S
Co294 O295 2.216 . S
Co294 O296 2.091 . S
Co294 O298 2.004 . S
Co294 O304 2.021 . S
Co294 O306 2.137 . S
Co294 O307 2.244 1_655 S
O295 Co294 2.216 . S
O295 C302 1.247 . S
O296 Co294 2.091 . S
O296 C302 1.261 . S
C297 O306 1.247 1_455 S
C297 O307 1.272 . S
O298 Co294 2.004 . S
O298 C303 1.259 . S
Co299 O300 2.061 1_455 S
Co299 O305 2.052 . S
Co299 O307 2.135 . S
O300 Co299 2.061 1_655 S
O300 C303 1.235 . S
C301 O304 1.238 1_455 S
C301 O305 1.241 . S
C302 O295 1.247 . S
C302 O296 1.261 . S
C303 O298 1.259 . S
C303 O300 1.235 . S
O304 Co294 2.021 . S
O304 C301 1.238 1_655 S
O305 Co299 2.052 . S
O305 C301 1.241 . S
O306 Co294 2.137 . S
O306 C297 1.247 1_655 S
O307 Co294 2.244 1_455 S
O307 C297 1.272 . S
O307 Co299 2.135 . S
Co308 O309 2.216 . S
Co308 O310 2.091 . S
Co308 O312 2.004 . S
Co308 O318 2.021 . S
Co308 O320 2.137 . S
Co308 O321 2.244 . S
O309 Co308 2.216 . S
O309 C316 1.247 . S
O310 Co308 2.091 . S
O310 C316 1.261 . S
C311 O320 1.247 . S
C311 O321 1.272 . S
O312 Co308 2.004 . S
O312 C317 1.259 . S
Co313 O314 2.061 . S
Co313 O319 2.052 . S
Co313 O321 2.135 . S
O314 Co313 2.061 . S
O314 C317 1.235 . S
C315 O318 1.238 . S
C315 O319 1.241 . S
C316 O309 1.247 . S
C316 O310 1.261 . S
C317 O312 1.259 . S
C317 O314 1.235 . S
O318 Co308 2.021 . S
O318 C315 1.238 . S
O319 Co313 2.052 . S
O319 C315 1.241 . S
O320 Co308 2.137 . S
O320 C311 1.247 . S
O321 Co308 2.244 . S
O321 C311 1.272 . S
O321 Co313 2.135 . S
Co322 O323 2.216 . S
Co322 O324 2.091 . S
Co322 O326 2.004 . S
Co322 O332 2.021 . S
Co322 O334 2.137 . S
Co322 O335 2.244 . S
O323 Co322 2.216 . S
O323 C330 1.247 . S
O324 Co322 2.091 . S
O324 C330 1.261 . S
C325 O334 1.247 . S
C325 O335 1.272 . S
O326 Co322 2.004 . S
O326 C331 1.259 . S
Co327 O328 2.061 . S
Co327 O333 2.052 . S
Co327 O335 2.135 . S
O328 Co327 2.061 . S
O328 C331 1.235 . S
C329 O332 1.238 . S
C329 O333 1.241 . S
C330 O323 1.247 . S
C330 O324 1.261 . S
C331 O326 1.259 . S
C331 O328 1.235 . S
O332 Co322 2.021 . S
O332 C329 1.238 . S
O333 Co327 2.052 . S
O333 C329 1.241 . S
O334 Co322 2.137 . S
O334 C325 1.247 . S
O335 Co322 2.244 . S
O335 C325 1.272 . S
O335 Co327 2.135 . S
Tb336 C346 2.825 1_454 S
Tb336 O347 2.347 . S
Tb336 O350 2.366 . S
Tb336 O355 2.418 1_554 S
Tb336 O356 2.384 1_545 S
Tb336 O359 2.479 1_454 S
Tb336 O360 2.471 1_455 S
Eu337 O348 2.418 . S
Eu337 O349 2.384 . S
Eu337 O352 2.479 . S
Eu337 O353 2.471 . S
Eu337 O354 2.347 . S
Eu337 O357 2.366 . S
Eu337 C367 2.825 . S
C338 O354 1.259 1_556 S
C338 O355 1.265 . S
C339 O356 1.255 . S
C339 O357 1.265 1_565 S
C340 C342 1.380 . S
C340 C343 1.374 1_556 S
C340 C346 1.507 . S
C341 C342 1.384 . S
C341 C345 1.387 . S
C341 H368 0.930 . S
C342 C340 1.380 . S
C342 C341 1.384 . S
C342 H369 0.931 . S
C343 C340 1.374 1_554 S
C343 C344 1.390 1_554 S
C343 H370 0.930 . S
C344 C343 1.390 1_556 S
C344 C345 1.391 . S
C344 H371 0.930 1_556 S
C345 C341 1.387 . S
C345 C344 1.391 . S
C346 Tb336 2.825 1_656 S
C346 C340 1.507 . S
C346 O359 1.238 . S
C346 O360 1.247 1_556 S
O347 Tb336 2.347 . S
O347 C351 1.259 . S
O348 Eu337 2.418 . S
O348 C351 1.265 . S
O349 Eu337 2.384 . S
O349 C358 1.255 . S
O350 Tb336 2.366 . S
O350 C358 1.265 . S
C351 O347 1.259 . S
C351 O348 1.265 . S
O352 Eu337 2.479 . S
O352 C367 1.238 . S
O353 Eu337 2.471 . S
O353 C367 1.247 . S
O354 Eu337 2.347 . S
O354 C338 1.259 1_554 S
O355 Tb336 2.418 1_556 S
O355 C338 1.265 . S
O356 Tb336 2.384 1_565 S
O356 C339 1.255 . S
O357 Eu337 2.366 . S
O357 C339 1.265 1_545 S
C358 O349 1.255 . S
C358 O350 1.265 . S
O359 Tb336 2.479 1_656 S
O359 C346 1.238 . S
O360 Tb336 2.471 1_655 S
O360 C346 1.247 1_554 S
C361 C364 1.380 . S
C361 C365 1.374 . S
C361 C367 1.507 . S
C362 C363 1.387 . S
C362 C366 1.391 1_545 S
C363 C362 1.387 . S
C363 C364 1.384 . S
C363 H372 0.930 . S
C364 C361 1.380 . S
C364 C363 1.384 . S
C364 H373 0.931 . S
C365 C361 1.374 . S
C365 C366 1.390 1_545 S
C365 H374 0.930 . S
C366 C362 1.391 1_565 S
C366 C365 1.390 1_565 S
C366 H375 0.930 . S
C367 Eu337 2.825 . S
C367 O352 1.238 . S
C367 O353 1.247 . S
C367 C361 1.507 . S
H368 C341 0.930 . S
H369 C342 0.931 . S
H370 C343 0.930 . S
H371 C344 0.930 1_554 S
H372 C363 0.930 . S
H373 C364 0.931 . S
H374 C365 0.930 . S
H375 C366 0.930 . S
Tb376 C386 2.825 . S
Tb376 O387 2.347 . S
Tb376 O390 2.366 . S
Tb376 O395 2.418 . S
Tb376 O396 2.384 . S
Tb376 O399 2.479 . S
Tb376 O400 2.471 . S
Eu377 O388 2.418 . S
Eu377 O389 2.384 . S
Eu377 O392 2.479 . S
Eu377 O393 2.471 . S
Eu377 O394 2.347 . S
Eu377 O397 2.366 . S
Eu377 C407 2.825 . S
C378 O394 1.259 . S
C378 O395 1.265 . S
C379 O396 1.255 . S
C379 O397 1.265 . S
C380 C382 1.380 . S
C380 C383 1.374 . S
C380 C386 1.507 . S
C381 C382 1.384 . S
C381 C385 1.387 . S
C381 H408 0.930 . S
C382 C380 1.380 . S
C382 C381 1.384 . S
C382 H409 0.931 . S
C383 C380 1.374 . S
C383 C384 1.390 . S
C383 H410 0.930 . S
C384 C383 1.390 . S
C384 C385 1.391 . S
C384 H411 0.930 . S
C385 C381 1.387 . S
C385 C384 1.391 . S
C386 Tb376 2.825 . S
C386 C380 1.507 . S
C386 O399 1.238 . S
C386 O400 1.247 . S
O387 Tb376 2.347 . S
O387 C391 1.259 . S
O388 Eu377 2.418 . S
O388 C391 1.265 . S
O389 Eu377 2.384 . S
O389 C398 1.255 . S
O390 Tb376 2.366 . S
O390 C398 1.265 . S
C391 O387 1.259 . S
C391 O388 1.265 . S
O392 Eu377 2.479 . S
O392 C407 1.238 . S
O393 Eu377 2.471 . S
O393 C407 1.247 . S
O394 Eu377 2.347 . S
O394 C378 1.259 . S
O395 Tb376 2.418 . S
O395 C378 1.265 . S
O396 Tb376 2.384 . S
O396 C379 1.255 . S
O397 Eu377 2.366 . S
O397 C379 1.265 . S
C398 O389 1.255 . S
C398 O390 1.265 . S
O399 Tb376 2.479 . S
O399 C386 1.238 . S
O400 Tb376 2.471 . S
O400 C386 1.247 . S
C401 C404 1.380 . S
C401 C405 1.374 . S
C401 C407 1.507 . S
C402 C403 1.387 . S
C402 C406 1.391 . S
C403 C402 1.387 . S
C403 C404 1.384 . S
C403 H412 0.930 . S
C404 C401 1.380 . S
C404 C403 1.384 . S
C404 H413 0.931 . S
C405 C401 1.374 . S
C405 C406 1.390 . S
C405 H414 0.930 . S
C406 C402 1.391 . S
C406 C405 1.390 . S
C406 H415 0.930 . S
C407 Eu377 2.825 . S
C407 O392 1.238 . S
C407 O393 1.247 . S
C407 C401 1.507 . S
H408 C381 0.930 . S
H409 C382 0.931 . S
H410 C383 0.930 . S
H411 C384 0.930 . S
H412 C403 0.930 . S
H413 C404 0.931 . S
H414 C405 0.930 . S
H415 C406 0.930 . S
Tb416 C426 2.825 1_545 S
Tb416 O427 2.347 . S
Tb416 O430 2.366 1_545 S
Tb416 O435 2.418 . S
Tb416 O436 2.384 . S
Tb416 O439 2.479 1_545 S
Tb416 O440 2.471 1_545 S
Eu417 O428 2.418 . S
Eu417 O429 2.384 . S
Eu417 O432 2.479 . S
Eu417 O433 2.471 . S
Eu417 O434 2.347 . S
Eu417 O437 2.366 . S
Eu417 C447 2.825 . S
C418 O434 1.259 . S
C418 O435 1.265 . S
C419 O436 1.255 . S
C419 O437 1.265 . S
C420 C422 1.380 . S
C420 C423 1.374 . S
C420 C426 1.507 . S
C421 C422 1.384 . S
C421 C425 1.387 . S
C421 H448 0.930 . S
C422 C420 1.380 . S
C422 C421 1.384 . S
C422 H449 0.931 . S
C423 C420 1.374 . S
C423 C424 1.390 . S
C423 H450 0.930 . S
C424 C423 1.390 . S
C424 C425 1.391 . S
C424 H451 0.930 . S
C425 C421 1.387 . S
C425 C424 1.391 . S
C426 Tb416 2.825 1_565 S
C426 C420 1.507 . S
C426 O439 1.238 . S
C426 O440 1.247 . S
O427 Tb416 2.347 . S
O427 C431 1.259 . S
O428 Eu417 2.418 . S
O428 C431 1.265 . S
O429 Eu417 2.384 . S
O429 C438 1.255 . S
O430 Tb416 2.366 1_565 S
O430 C438 1.265 1_565 S
C431 O427 1.259 . S
C431 O428 1.265 . S
O432 Eu417 2.479 . S
O432 C447 1.238 . S
O433 Eu417 2.471 . S
O433 C447 1.247 . S
O434 Eu417 2.347 . S
O434 C418 1.259 . S
O435 Tb416 2.418 . S
O435 C418 1.265 . S
O436 Tb416 2.384 . S
O436 C419 1.255 . S
O437 Eu417 2.366 . S
O437 C419 1.265 . S
C438 O429 1.255 . S
C438 O430 1.265 1_545 S
O439 Tb416 2.479 1_565 S
O439 C426 1.238 . S
O440 Tb416 2.471 1_565 S
O440 C426 1.247 . S
C441 C444 1.380 . S
C441 C445 1.374 . S
C441 C447 1.507 . S
C442 C443 1.387 . S
C442 C446 1.391 . S
C443 C442 1.387 . S
C443 C444 1.384 . S
C443 H452 0.930 . S
C444 C441 1.380 . S
C444 C443 1.384 . S
C444 H453 0.931 . S
C445 C441 1.374 . S
C445 C446 1.390 . S
C445 H454 0.930 . S
C446 C442 1.391 . S
C446 C445 1.390 . S
C446 H455 0.930 . S
C447 Eu417 2.825 . S
C447 O432 1.238 . S
C447 O433 1.247 . S
C447 C441 1.507 . S
H448 C421 0.930 . S
H449 C422 0.931 . S
H450 C423 0.930 . S
H451 C424 0.930 . S
H452 C443 0.930 . S
H453 C444 0.931 . S
H454 C445 0.930 . S
H455 C446 0.930 . S
Tb456 C466 2.825 . S
Tb456 O467 2.347 . S
Tb456 O470 2.366 . S
Tb456 O475 2.418 . S
Tb456 O476 2.384 . S
Tb456 O479 2.479 . S
Tb456 O480 2.471 . S
Eu457 O468 2.418 . S
Eu457 O469 2.384 . S
Eu457 O472 2.479 . S
Eu457 O473 2.471 . S
Eu457 O474 2.347 . S
Eu457 O477 2.366 . S
Eu457 C487 2.825 . S
C458 O474 1.259 . S
C458 O475 1.265 . S
C459 O476 1.255 . S
C459 O477 1.265 . S
C460 C462 1.380 . S
C460 C463 1.374 . S
C460 C466 1.507 . S
C461 C462 1.384 . S
C461 C465 1.387 . S
C461 H488 0.930 . S
C462 C460 1.380 . S
C462 C461 1.384 . S
C462 H489 0.931 . S
C463 C460 1.374 . S
C463 C464 1.390 . S
C463 H490 0.930 . S
C464 C463 1.390 . S
C464 C465 1.391 . S
C464 H491 0.930 . S
C465 C461 1.387 . S
C465 C464 1.391 . S
C466 Tb456 2.825 . S
C466 C460 1.507 . S
C466 O479 1.238 . S
C466 O480 1.247 . S
O467 Tb456 2.347 . S
O467 C471 1.259 . S
O468 Eu457 2.418 . S
O468 C471 1.265 . S
O469 Eu457 2.384 . S
O469 C478 1.255 . S
O470 Tb456 2.366 . S
O470 C478 1.265 . S
C471 O467 1.259 . S
C471 O468 1.265 . S
O472 Eu457 2.479 . S
O472 C487 1.238 . S
O473 Eu457 2.471 . S
O473 C487 1.247 . S
O474 Eu457 2.347 . S
O474 C458 1.259 . S
O475 Tb456 2.418 . S
O475 C458 1.265 . S
O476 Tb456 2.384 . S
O476 C459 1.255 . S
O477 Eu457 2.366 . S
O477 C459 1.265 . S
C478 O469 1.255 . S
C478 O470 1.265 . S
O479 Tb456 2.479 . S
O479 C466 1.238 . S
O480 Tb456 2.471 . S
O480 C466 1.247 . S
C481 C484 1.380 . S
C481 C485 1.374 . S
C481 C487 1.507 . S
C482 C483 1.387 . S
C482 C486 1.391 . S
C483 C482 1.387 . S
C483 C484 1.384 . S
C483 H492 0.930 . S
C484 C481 1.380 . S
C484 C483 1.384 . S
C484 H493 0.931 . S
C485 C481 1.374 . S
C485 C486 1.390 . S
C485 H494 0.930 . S
C486 C482 1.391 . S
C486 C485 1.390 . S
C486 H495 0.930 . S
C487 Eu457 2.825 . S
C487 O472 1.238 . S
C487 O473 1.247 . S
C487 C481 1.507 . S
H488 C461 0.930 . S
H489 C462 0.931 . S
H490 C463 0.930 . S
H491 C464 0.930 . S
H492 C483 0.930 . S
H493 C484 0.931 . S
H494 C485 0.930 . S
H495 C486 0.930 . S
Tb496 C506 2.825 . S
Tb496 O507 2.347 . S
Tb496 O510 2.366 . S
Tb496 O515 2.418 . S
Tb496 O516 2.384 1_545 S
Tb496 O519 2.479 . S
Tb496 O520 2.471 . S
Eu497 O508 2.418 . S
Eu497 O509 2.384 . S
Eu497 O512 2.479 . S
Eu497 O513 2.471 . S
Eu497 O514 2.347 . S
Eu497 O517 2.366 . S
Eu497 C527 2.825 . S
C498 O514 1.259 . S
C498 O515 1.265 . S
C499 O516 1.255 . S
C499 O517 1.265 1_565 S
C500 C502 1.380 . S
C500 C503 1.374 1_455 S
C500 C506 1.507 . S
C501 C502 1.384 . S
C501 C505 1.342 1_455 S
C501 H528 0.930 . S
C502 C500 1.380 . S
C502 C501 1.384 . S
C502 H529 0.931 . S
C503 C500 1.374 1_655 S
C503 C504 1.390 . S
C503 H530 0.930 . S
C504 C503 1.390 . S
C504 C505 1.421 . S
C504 H531 0.930 . S
C505 C501 1.342 1_655 S
C505 C504 1.421 . S
C506 Tb496 2.825 . S
C506 C500 1.507 . S
C506 O519 1.238 . S
C506 O520 1.247 . S
O507 Tb496 2.347 . S
O507 C511 1.259 . S
O508 Eu497 2.418 . S
O508 C511 1.265 . S
O509 Eu497 2.384 . S
O509 C518 1.255 . S
O510 Tb496 2.366 . S
O510 C518 1.265 . S
C511 O507 1.259 . S
C511 O508 1.265 . S
O512 Eu497 2.479 . S
O512 C527 1.238 . S
O513 Eu497 2.471 . S
O513 C527 1.247 . S
O514 Eu497 2.347 . S
O514 C498 1.259 . S
O515 Tb496 2.418 . S
O515 C498 1.265 . S
O516 Tb496 2.384 1_565 S
O516 C499 1.255 . S
O517 Eu497 2.366 . S
O517 C499 1.265 1_545 S
C518 O509 1.255 . S
C518 O510 1.265 . S
O519 Tb496 2.479 . S
O519 C506 1.238 . S
O520 Tb496 2.471 . S
O520 C506 1.247 . S
C521 C524 1.380 . S
C521 C525 1.374 . S
C521 C527 1.507 . S
C522 C523 1.387 . S
C522 C526 1.391 . S
C523 C522 1.387 . S
C523 C524 1.384 . S
C523 H532 0.930 . S
C524 C521 1.380 . S
C524 C523 1.384 . S
C524 H533 0.931 . S
C525 C521 1.374 . S
C525 C526 1.390 . S
C525 H534 0.930 . S
C526 C522 1.391 . S
C526 C525 1.390 . S
C526 H535 0.930 . S
C527 Eu497 2.825 . S
C527 O512 1.238 . S
C527 O513 1.247 . S
C527 C521 1.507 . S
H528 C501 0.930 . S
H529 C502 0.931 . S
H530 C503 0.930 . S
H531 C504 0.930 . S
H532 C523 0.930 . S
H533 C524 0.931 . S
H534 C525 0.930 . S
H535 C526 0.930 . S
Tb536 C546 2.825 . S
Tb536 O547 2.347 . S
Tb536 O550 2.366 . S
Tb536 O555 2.418 . S
Tb536 O556 2.384 . S
Tb536 O559 2.479 . S
Tb536 O560 2.471 . S
Eu537 O548 2.418 . S
Eu537 O549 2.384 . S
Eu537 O552 2.479 . S
Eu537 O553 2.471 . S
Eu537 O554 2.347 . S
Eu537 O557 2.366 . S
Eu537 C567 2.825 . S
C538 O554 1.259 . S
C538 O555 1.265 . S
C539 O556 1.255 . S
C539 O557 1.265 . S
C540 C542 1.380 . S
C540 C543 1.374 . S
C540 C546 1.507 . S
C541 C542 1.384 . S
C541 C545 1.387 . S
C541 H568 0.930 . S
C542 C540 1.380 . S
C542 C541 1.384 . S
C542 H569 0.931 . S
C543 C540 1.374 . S
C543 C544 1.390 . S
C543 H570 0.930 . S
C544 C543 1.390 . S
C544 C545 1.391 . S
C544 H571 0.930 . S
C545 C541 1.387 . S
C545 C544 1.391 . S
C546 Tb536 2.825 . S
C546 C540 1.507 . S
C546 O559 1.238 . S
C546 O560 1.247 . S
O547 Tb536 2.347 . S
O547 C551 1.259 . S
O548 Eu537 2.418 . S
O548 C551 1.265 . S
O549 Eu537 2.384 . S
O549 C558 1.255 . S
O550 Tb536 2.366 . S
O550 C558 1.265 . S
C551 O547 1.259 . S
C551 O548 1.265 . S
O552 Eu537 2.479 . S
O552 C567 1.238 . S
O553 Eu537 2.471 . S
O553 C567 1.247 . S
O554 Eu537 2.347 . S
O554 C538 1.259 . S
O555 Tb536 2.418 . S
O555 C538 1.265 . S
O556 Tb536 2.384 . S
O556 C539 1.255 . S
O557 Eu537 2.366 . S
O557 C539 1.265 . S
C558 O549 1.255 . S
C558 O550 1.265 . S
O559 Tb536 2.479 . S
O559 C546 1.238 . S
O560 Tb536 2.471 . S
O560 C546 1.247 . S
C561 C564 1.380 . S
C561 C565 1.374 . S
C561 C567 1.507 . S
C562 C563 1.387 . S
C562 C566 1.391 . S
C563 C562 1.387 . S
C563 C564 1.384 . S
C563 H572 0.930 . S
C564 C561 1.380 . S
C564 C563 1.384 . S
C564 H573 0.931 . S
C565 C561 1.374 . S
C565 C566 1.390 . S
C565 H574 0.930 . S
C566 C562 1.391 . S
C566 C565 1.390 . S
C566 H575 0.930 . S
C567 Eu537 2.825 . S
C567 O552 1.238 . S
C567 O553 1.247 . S
C567 C561 1.507 . S
H568 C541 0.930 . S
H569 C542 0.931 . S
H570 C543 0.930 . S
H571 C544 0.930 . S
H572 C563 0.930 . S
H573 C564 0.931 . S
H574 C565 0.930 . S
H575 C566 0.930 . S
Tb576 C586 2.825 . S
Tb576 O587 2.347 . S
Tb576 O590 2.366 . S
Tb576 O595 2.418 1_545 S
Tb576 O596 2.384 . S
Tb576 O599 2.479 . S
Tb576 O600 2.471 . S
Eu577 O588 2.418 1_556 S
Eu577 O589 2.384 1_556 S
Eu577 O592 2.479 . S
Eu577 O593 2.471 . S
Eu577 O594 2.347 1_556 S
Eu577 O597 2.367 . S
Eu577 C607 2.825 . S
C578 O594 1.259 1_565 S
C578 O595 1.265 . S
C579 O596 1.255 . S
C579 O597 1.260 1_554 S
C580 C582 1.364 1_545 S
C580 C583 1.374 . S
C580 C586 1.507 . S
C581 C582 1.387 . S
C581 C585 1.387 1_565 S
C581 H608 0.930 . S
C582 C580 1.364 1_565 S
C582 C581 1.387 . S
C582 H609 0.944 . S
C583 C580 1.374 . S
C583 C584 1.390 . S
C583 H610 0.930 . S
C584 C583 1.390 . S
C584 C585 1.391 . S
C584 H611 0.930 . S
C585 C581 1.387 1_545 S
C585 C584 1.391 . S
C586 Tb576 2.825 . S
C586 C580 1.507 . S
C586 O599 1.238 . S
C586 O600 1.247 . S
O587 Tb576 2.347 . S
O587 C591 1.259 . S
O588 Eu577 2.418 1_554 S
O588 C591 1.265 . S
O589 Eu577 2.384 1_554 S
O589 C598 1.255 . S
O590 Tb576 2.366 . S
O590 C598 1.265 . S
C591 O587 1.259 . S
C591 O588 1.265 . S
O592 Eu577 2.479 . S
O592 C607 1.238 . S
O593 Eu577 2.471 . S
O593 C607 1.247 . S
O594 Eu577 2.347 1_554 S
O594 C578 1.259 1_545 S
O595 Tb576 2.418 1_565 S
O595 C578 1.265 . S
O596 Tb576 2.384 . S
O596 C579 1.255 . S
O597 Eu577 2.367 . S
O597 C579 1.260 1_556 S
C598 O589 1.255 . S
C598 O590 1.265 . S
O599 Tb576 2.479 . S
O599 C586 1.238 . S
O600 Tb576 2.471 . S
O600 C586 1.247 . S
C601 C604 1.380 . S
C601 C605 1.374 . S
C601 C607 1.507 . S
C602 C603 1.387 . S
C602 C606 1.391 . S
C603 C602 1.387 . S
C603 C604 1.384 . S
C603 H612 0.930 . S
C604 C601 1.380 . S
C604 C603 1.384 . S
C604 H613 0.931 . S
C605 C601 1.374 . S
C605 C606 1.390 . S
C605 H614 0.930 . S
C606 C602 1.391 . S
C606 C605 1.390 . S
C606 H615 0.930 . S
C607 Eu577 2.825 . S
C607 O592 1.238 . S
C607 O593 1.247 . S
C607 C601 1.507 . S
H608 C581 0.930 . S
H609 C582 0.944 . S
H610 C583 0.930 . S
H611 C584 0.930 . S
H612 C603 0.930 . S
H613 C604 0.931 . S
H614 C605 0.930 . S
H615 C606 0.930 . S
Tb616 C626 2.825 . S
Tb616 O627 2.347 . S
Tb616 O630 2.366 . S
Tb616 O635 2.418 . S
Tb616 O636 2.384 . S
Tb616 O639 2.479 . S
Tb616 O640 2.471 . S
Eu617 O628 2.418 . S
Eu617 O629 2.384 . S
Eu617 O632 2.479 . S
Eu617 O633 2.471 . S
Eu617 O634 2.347 . S
Eu617 O637 2.366 . S
Eu617 C647 2.825 . S
C618 O634 1.259 . S
C618 O635 1.265 . S
C619 O636 1.255 . S
C619 O637 1.265 . S
C620 C622 1.380 . S
C620 C623 1.374 . S
C620 C626 1.507 . S
C621 C622 1.384 . S
C621 C625 1.387 . S
C621 H648 0.930 . S
C622 C620 1.380 . S
C622 C621 1.384 . S
C622 H649 0.931 . S
C623 C620 1.374 . S
C623 C624 1.390 . S
C623 H650 0.930 . S
C624 C623 1.390 . S
C624 C625 1.391 . S
C624 H651 0.930 . S
C625 C621 1.387 . S
C625 C624 1.391 . S
C626 Tb616 2.825 . S
C626 C620 1.507 . S
C626 O639 1.238 . S
C626 O640 1.247 . S
O627 Tb616 2.347 . S
O627 C631 1.259 . S
O628 Eu617 2.418 . S
O628 C631 1.265 . S
O629 Eu617 2.384 . S
O629 C638 1.255 . S
O630 Tb616 2.366 . S
O630 C638 1.265 . S
C631 O627 1.259 . S
C631 O628 1.265 . S
O632 Eu617 2.479 . S
O632 C647 1.238 . S
O633 Eu617 2.471 . S
O633 C647 1.247 . S
O634 Eu617 2.347 . S
O634 C618 1.259 . S
O635 Tb616 2.418 . S
O635 C618 1.265 . S
O636 Tb616 2.384 . S
O636 C619 1.255 . S
O637 Eu617 2.366 . S
O637 C619 1.265 . S
C638 O629 1.255 . S
C638 O630 1.265 . S
O639 Tb616 2.479 . S
O639 C626 1.238 . S
O640 Tb616 2.471 . S
O640 C626 1.247 . S
C641 C644 1.380 . S
C641 C645 1.374 . S
C641 C647 1.507 . S
C642 C643 1.387 . S
C642 C646 1.391 . S
C643 C642 1.387 . S
C643 C644 1.384 . S
C643 H652 0.930 . S
C644 C641 1.380 . S
C644 C643 1.384 . S
C644 H653 0.931 . S
C645 C641 1.374 . S
C645 C646 1.390 . S
C645 H654 0.930 . S
C646 C642 1.391 . S
C646 C645 1.390 . S
C646 H655 0.930 . S
C647 Eu617 2.825 . S
C647 O632 1.238 . S
C647 O633 1.247 . S
C647 C641 1.507 . S
H648 C621 0.930 . S
H649 C622 0.931 . S
H650 C623 0.930 . S
H651 C624 0.930 . S
H652 C643 0.930 . S
H653 C644 0.931 . S
H654 C645 0.930 . S
H655 C646 0.930 . S
Tb656 C666 2.825 . S
Tb656 O667 2.347 1_556 S
Tb656 O670 2.366 . S
Tb656 O675 2.418 . S
Tb656 O676 2.384 1_556 S
Tb656 O679 2.479 . S
Tb656 O680 2.471 . S
Eu657 O668 2.418 . S
Eu657 O669 2.384 . S
Eu657 O672 2.479 . S
Eu657 O673 2.471 . S
Eu657 O674 2.347 . S
Eu657 O677 2.366 . S
Eu657 C687 2.825 . S
C658 O674 1.259 . S
C658 O675 1.265 1_554 S
C659 O676 1.255 . S
C659 O677 1.265 . S
C660 C662 1.380 . S
C660 C663 1.374 . S
C660 C666 1.507 . S
C661 C662 1.384 . S
C661 C665 1.387 . S
C661 H688 0.930 . S
C662 C660 1.380 . S
C662 C661 1.384 . S
C662 H689 0.931 . S
C663 C660 1.374 . S
C663 C664 1.390 . S
C663 H690 0.930 . S
C664 C663 1.390 . S
C664 C665 1.391 . S
C664 H691 0.930 . S
C665 C661 1.387 . S
C665 C664 1.391 . S
C666 Tb656 2.825 . S
C666 C660 1.507 . S
C666 O679 1.238 . S
C666 O680 1.247 . S
O667 Tb656 2.347 1_554 S
O667 C671 1.259 . S
O668 Eu657 2.418 . S
O668 C671 1.265 . S
O669 Eu657 2.384 . S
O669 C678 1.255 . S
O670 Tb656 2.366 . S
O670 C678 1.265 1_556 S
C671 O667 1.259 . S
C671 O668 1.265 . S
O672 Eu657 2.479 . S
O672 C687 1.238 . S
O673 Eu657 2.471 . S
O673 C687 1.247 . S
O674 Eu657 2.347 . S
O674 C658 1.259 . S
O675 Tb656 2.418 . S
O675 C658 1.265 1_556 S
O676 Tb656 2.384 1_554 S
O676 C659 1.255 . S
O677 Eu657 2.366 . S
O677 C659 1.265 . S
C678 O669 1.255 . S
C678 O670 1.265 1_554 S
O679 Tb656 2.479 . S
O679 C666 1.238 . S
O680 Tb656 2.471 . S
O680 C666 1.247 . S
C681 C684 1.380 . S
C681 C685 1.374 . S
C681 C687 1.507 . S
C682 C683 1.387 . S
C682 C686 1.391 . S
C683 C682 1.387 . S
C683 C684 1.384 . S
C683 H692 0.930 . S
C684 C681 1.380 . S
C684 C683 1.384 . S
C684 H693 0.931 . S
C685 C681 1.374 . S
C685 C686 1.390 . S
C685 H694 0.930 . S
C686 C682 1.391 . S
C686 C685 1.390 . S
C686 H695 0.930 . S
C687 Eu657 2.825 . S
C687 O672 1.238 . S
C687 O673 1.247 . S
C687 C681 1.507 . S
H688 C661 0.930 . S
H689 C662 0.931 . S
H690 C663 0.930 . S
H691 C664 0.930 . S
H692 C683 0.930 . S
H693 C684 0.931 . S
H694 C685 0.930 . S
H695 C686 0.930 . S
Tb696 C706 2.825 . S
Tb696 O707 2.347 . S
Tb696 O710 2.366 . S
Tb696 O715 2.418 . S
Tb696 O716 2.384 . S
Tb696 O719 2.479 . S
Tb696 O720 2.471 . S
Eu697 O708 2.418 . S
Eu697 O709 2.384 . S
Eu697 O712 2.479 . S
Eu697 O713 2.471 . S
Eu697 O714 2.347 . S
Eu697 O717 2.366 . S
Eu697 C727 2.825 . S
C698 O714 1.259 . S
C698 O715 1.265 . S
C699 O716 1.255 . S
C699 O717 1.265 . S
C700 C702 1.380 . S
C700 C703 1.374 . S
C700 C706 1.507 . S
C701 C702 1.384 . S
C701 C705 1.387 . S
C701 H728 0.930 . S
C702 C700 1.380 . S
C702 C701 1.384 . S
C702 H729 0.931 . S
C703 C700 1.374 . S
C703 C704 1.390 . S
C703 H730 0.930 . S
C704 C703 1.390 . S
C704 C705 1.391 . S
C704 H731 0.930 . S
C705 C701 1.387 . S
C705 C704 1.391 . S
C706 Tb696 2.825 . S
C706 C700 1.507 . S
C706 O719 1.238 . S
C706 O720 1.247 . S
O707 Tb696 2.347 . S
O707 C711 1.259 . S
O708 Eu697 2.418 . S
O708 C711 1.265 . S
O709 Eu697 2.384 . S
O709 C718 1.255 . S
O710 Tb696 2.366 . S
O710 C718 1.265 . S
C711 O707 1.259 . S
C711 O708 1.265 . S
O712 Eu697 2.479 . S
O712 C727 1.238 . S
O713 Eu697 2.471 . S
O713 C727 1.247 . S
O714 Eu697 2.347 . S
O714 C698 1.259 . S
O715 Tb696 2.418 . S
O715 C698 1.265 . S
O716 Tb696 2.384 . S
O716 C699 1.255 . S
O717 Eu697 2.366 . S
O717 C699 1.265 . S
C718 O709 1.255 . S
C718 O710 1.265 . S
O719 Tb696 2.479 . S
O719 C706 1.238 . S
O720 Tb696 2.471 . S
O720 C706 1.247 . S
C721 C724 1.380 . S
C721 C725 1.374 . S
C721 C727 1.507 . S
C722 C723 1.387 . S
C722 C726 1.391 . S
C723 C722 1.387 . S
C723 C724 1.384 . S
C723 H732 0.930 . S
C724 C721 1.380 . S
C724 C723 1.384 . S
C724 H733 0.931 . S
C725 C721 1.374 . S
C725 C726 1.390 . S
C725 H734 0.930 . S
C726 C722 1.391 . S
C726 C725 1.390 . S
C726 H735 0.930 . S
C727 Eu697 2.825 . S
C727 O712 1.238 . S
C727 O713 1.247 . S
C727 C721 1.507 . S
H728 C701 0.930 . S
H729 C702 0.931 . S
H730 C703 0.930 . S
H731 C704 0.930 . S
H732 C723 0.930 . S
H733 C724 0.931 . S
H734 C725 0.930 . S
H735 C726 0.930 . S
Tb736 C746 2.825 . S
Tb736 O747 2.347 . S
Tb736 O750 2.366 . S
Tb736 O755 2.418 . S
Tb736 O756 2.384 . S
Tb736 O759 2.479 . S
Tb736 O760 2.471 . S
Eu737 O748 2.418 . S
Eu737 O749 2.384 . S
Eu737 O752 2.479 . S
Eu737 O753 2.471 . S
Eu737 O754 2.347 . S
Eu737 O757 2.366 . S
Eu737 C767 2.825 . S
C738 O754 1.259 . S
C738 O755 1.265 . S
C739 O756 1.255 . S
C739 O757 1.265 . S
C740 C742 1.380 . S
C740 C743 1.374 . S
C740 C746 1.507 . S
C741 C742 1.384 . S
C741 C745 1.387 . S
C741 H768 0.930 . S
C742 C740 1.380 . S
C742 C741 1.384 . S
C742 H769 0.931 . S
C743 C740 1.374 . S
C743 C744 1.390 . S
C743 H770 0.930 . S
C744 C743 1.390 . S
C744 C745 1.391 . S
C744 H771 0.935 . S
C745 C741 1.387 . S
C745 C744 1.391 . S
C746 Tb736 2.825 . S
C746 C740 1.507 . S
C746 O759 1.238 . S
C746 O760 1.247 . S
O747 Tb736 2.347 . S
O747 C751 1.259 . S
O748 Eu737 2.418 . S
O748 C751 1.265 . S
O749 Eu737 2.384 . S
O749 C758 1.255 . S
O750 Tb736 2.366 . S
O750 C758 1.265 . S
C751 O747 1.259 . S
C751 O748 1.265 . S
O752 Eu737 2.479 . S
O752 C767 1.238 . S
O753 Eu737 2.471 . S
O753 C767 1.247 . S
O754 Eu737 2.347 . S
O754 C738 1.259 . S
O755 Tb736 2.418 . S
O755 C738 1.265 . S
O756 Tb736 2.384 . S
O756 C739 1.255 . S
O757 Eu737 2.366 . S
O757 C739 1.265 . S
C758 O749 1.255 . S
C758 O750 1.265 . S
O759 Tb736 2.479 . S
O759 C746 1.238 . S
O760 Tb736 2.471 . S
O760 C746 1.247 . S
C761 C764 1.380 . S
C761 C765 1.374 . S
C761 C767 1.507 . S
C762 C763 1.387 . S
C762 C766 1.391 . S
C763 C762 1.387 . S
C763 C764 1.384 . S
C763 H772 0.930 . S
C764 C761 1.380 . S
C764 C763 1.384 . S
C764 H773 0.931 . S
C765 C761 1.374 . S
C765 C766 1.390 . S
C765 H774 0.930 . S
C766 C762 1.391 . S
C766 C765 1.390 . S
C766 H775 0.930 . S
C767 Eu737 2.825 . S
C767 O752 1.238 . S
C767 O753 1.247 . S
C767 C761 1.507 . S
H768 C741 0.930 . S
H769 C742 0.931 . S
H770 C743 0.930 . S
H771 C744 0.935 . S
H772 C763 0.930 . S
H773 C764 0.931 . S
H774 C765 0.930 . S
H775 C766 0.930 . S
Tb776 C786 2.825 . S
Tb776 O787 2.347 . S
Tb776 O790 2.366 . S
Tb776 O795 2.418 . S
Tb776 O796 2.384 . S
Tb776 O799 2.479 . S
Tb776 O800 2.471 . S
Eu777 O788 2.418 . S
Eu777 O789 2.384 . S
Eu777 O792 2.479 . S
Eu777 O793 2.471 . S
Eu777 O794 2.347 . S
Eu777 O797 2.366 . S
Eu777 C807 2.825 . S
C778 O794 1.259 . S
C778 O795 1.265 . S
C779 O796 1.255 . S
C779 O797 1.265 . S
C780 C782 1.380 . S
C780 C783 1.374 . S
C780 C786 1.507 . S
C781 C782 1.384 . S
C781 C785 1.387 . S
C781 H808 0.930 . S
C782 C780 1.380 . S
C782 C781 1.384 . S
C782 H809 0.931 . S
C783 C780 1.374 . S
C783 C784 1.390 . S
C783 H810 0.930 . S
C784 C783 1.390 . S
C784 C785 1.391 . S
C784 H811 0.930 . S
C785 C781 1.387 . S
C785 C784 1.391 . S
C786 Tb776 2.825 . S
C786 C780 1.507 . S
C786 O799 1.238 . S
C786 O800 1.247 . S
O787 Tb776 2.347 . S
O787 C791 1.259 . S
O788 Eu777 2.418 . S
O788 C791 1.265 . S
O789 Eu777 2.384 . S
O789 C798 1.255 . S
O790 Tb776 2.366 . S
O790 C798 1.265 . S
C791 O787 1.259 . S
C791 O788 1.265 . S
O792 Eu777 2.479 . S
O792 C807 1.238 . S
O793 Eu777 2.471 . S
O793 C807 1.247 . S
O794 Eu777 2.347 . S
O794 C778 1.259 . S
O795 Tb776 2.418 . S
O795 C778 1.265 . S
O796 Tb776 2.384 . S
O796 C779 1.255 . S
O797 Eu777 2.366 . S
O797 C779 1.265 . S
C798 O789 1.255 . S
C798 O790 1.265 . S
O799 Tb776 2.479 . S
O799 C786 1.238 . S
O800 Tb776 2.471 . S
O800 C786 1.247 . S
C801 C804 1.380 . S
C801 C805 1.374 . S
C801 C807 1.507 . S
C802 C803 1.387 . S
C802 C806 1.391 . S
C803 C802 1.387 . S
C803 C804 1.384 . S
C803 H812 0.930 . S
C804 C801 1.380 . S
C804 C803 1.384 . S
C804 H813 0.931 . S
C805 C801 1.374 . S
C805 C806 1.390 . S
C805 H814 0.930 . S
C806 C802 1.391 . S
C806 C805 1.390 . S
C806 H815 0.930 . S
C807 Eu777 2.825 . S
C807 O792 1.238 . S
C807 O793 1.247 . S
C807 C801 1.507 . S
H808 C781 0.930 . S
H809 C782 0.931 . S
H810 C783 0.930 . S
H811 C784 0.930 . S
H812 C803 0.930 . S
H813 C804 0.931 . S
H814 C805 0.930 . S
H815 C806 0.930 . S
Tb816 C826 2.825 . S
Tb816 O827 2.347 . S
Tb816 O830 2.366 . S
Tb816 O835 2.418 . S
Tb816 O836 2.384 . S
Tb816 O839 2.479 . S
Tb816 O840 2.471 . S
Eu817 O828 2.418 . S
Eu817 O829 2.384 . S
Eu817 O832 2.479 . S
Eu817 O833 2.471 . S
Eu817 O834 2.347 . S
Eu817 O837 2.366 . S
Eu817 C847 2.825 . S
C818 O834 1.259 . S
C818 O835 1.265 . S
C819 O836 1.255 . S
C819 O837 1.265 . S
C820 C822 1.380 . S
C820 C823 1.374 . S
C820 C826 1.507 . S
C821 C822 1.384 . S
C821 C825 1.387 . S
C821 H848 0.930 . S
C822 C820 1.380 . S
C822 C821 1.384 . S
C822 H849 0.931 . S
C823 C820 1.374 . S
C823 C824 1.390 . S
C823 H850 0.930 . S
C824 C823 1.390 . S
C824 C825 1.391 . S
C824 H851 0.930 . S
C825 C821 1.387 . S
C825 C824 1.391 . S
C826 Tb816 2.825 . S
C826 C820 1.507 . S
C826 O839 1.238 . S
C826 O840 1.247 . S
O827 Tb816 2.347 . S
O827 C831 1.259 . S
O828 Eu817 2.418 . S
O828 C831 1.265 . S
O829 Eu817 2.384 . S
O829 C838 1.255 . S
O830 Tb816 2.366 . S
O830 C838 1.265 . S
C831 O827 1.259 . S
C831 O828 1.265 . S
O832 Eu817 2.479 . S
O832 C847 1.238 . S
O833 Eu817 2.471 . S
O833 C847 1.247 . S
O834 Eu817 2.347 . S
O834 C818 1.259 . S
O835 Tb816 2.418 . S
O835 C818 1.265 . S
O836 Tb816 2.384 . S
O836 C819 1.255 . S
O837 Eu817 2.366 . S
O837 C819 1.265 . S
C838 O829 1.255 . S
C838 O830 1.265 . S
O839 Tb816 2.479 . S
O839 C826 1.238 . S
O840 Tb816 2.471 . S
O840 C826 1.247 . S
C841 C844 1.380 . S
C841 C845 1.374 . S
C841 C847 1.507 . S
C842 C843 1.387 . S
C842 C846 1.391 . S
C843 C842 1.387 . S
C843 C844 1.384 . S
C843 H852 0.930 . S
C844 C841 1.380 . S
C844 C843 1.384 . S
C844 H853 0.931 . S
C845 C841 1.374 . S
C845 C846 1.390 . S
C845 H854 0.930 . S
C846 C842 1.391 . S
C846 C845 1.390 . S
C846 H855 0.930 . S
C847 Eu817 2.825 . S
C847 O832 1.238 . S
C847 O833 1.247 . S
C847 C841 1.507 . S
H848 C821 0.930 . S
H849 C822 0.931 . S
H850 C823 0.930 . S
H851 C824 0.930 . S
H852 C843 0.930 . S
H853 C844 0.931 . S
H854 C845 0.930 . S
H855 C846 0.930 . S
Tb856 C866 2.825 . S
Tb856 O867 2.347 . S
Tb856 O870 2.366 . S
Tb856 O875 2.418 . S
Tb856 O876 2.384 . S
Tb856 O879 2.479 . S
Tb856 O880 2.471 . S
Eu857 O868 2.418 . S
Eu857 O869 2.384 . S
Eu857 O872 2.479 . S
Eu857 O873 2.471 . S
Eu857 O874 2.347 . S
Eu857 O877 2.366 . S
Eu857 C887 2.825 . S
C858 O874 1.259 . S
C858 O875 1.265 . S
C859 O876 1.255 . S
C859 O877 1.265 . S
C860 C862 1.380 . S
C860 C863 1.374 . S
C860 C866 1.507 . S
C861 C862 1.384 . S
C861 C865 1.387 . S
C861 H888 0.930 . S
C862 C860 1.380 . S
C862 C861 1.384 . S
C862 H889 0.931 . S
C863 C860 1.374 . S
C863 C864 1.390 . S
C863 H890 0.930 . S
C864 C863 1.390 . S
C864 C865 1.391 . S
C864 H891 0.930 . S
C865 C861 1.387 . S
C865 C864 1.391 . S
C866 Tb856 2.825 . S
C866 C860 1.507 . S
C866 O879 1.238 . S
C866 O880 1.247 . S
O867 Tb856 2.347 . S
O867 C871 1.259 . S
O868 Eu857 2.418 . S
O868 C871 1.265 . S
O869 Eu857 2.384 . S
O869 C878 1.255 . S
O870 Tb856 2.366 . S
O870 C878 1.265 . S
C871 O867 1.259 . S
C871 O868 1.265 . S
O872 Eu857 2.479 . S
O872 C887 1.238 . S
O873 Eu857 2.471 . S
O873 C887 1.247 . S
O874 Eu857 2.347 . S
O874 C858 1.259 . S
O875 Tb856 2.418 . S
O875 C858 1.265 . S
O876 Tb856 2.384 . S
O876 C859 1.255 . S
O877 Eu857 2.366 . S
O877 C859 1.265 . S
C878 O869 1.255 . S
C878 O870 1.265 . S
O879 Tb856 2.479 . S
O879 C866 1.238 . S
O880 Tb856 2.471 . S
O880 C866 1.247 . S
C881 C884 1.380 . S
C881 C885 1.374 . S
C881 C887 1.507 . S
C882 C883 1.387 . S
C882 C886 1.391 . S
C883 C882 1.387 . S
C883 C884 1.384 . S
C883 H892 0.930 . S
C884 C881 1.380 . S
C884 C883 1.384 . S
C884 H893 0.931 . S
C885 C881 1.374 . S
C885 C886 1.390 . S
C885 H894 0.930 . S
C886 C882 1.391 . S
C886 C885 1.390 . S
C886 H895 0.930 . S
C887 Eu857 2.825 . S
C887 O872 1.238 . S
C887 O873 1.247 . S
C887 C881 1.507 . S
H888 C861 0.930 . S
H889 C862 0.931 . S
H890 C863 0.930 . S
H891 C864 0.930 . S
H892 C883 0.930 . S
H893 C884 0.931 . S
H894 C885 0.930 . S
H895 C886 0.930 . S
Tb896 C906 2.825 . S
Tb896 O907 2.347 . S
Tb896 O910 2.366 . S
Tb896 O915 2.418 . S
Tb896 O916 2.384 . S
Tb896 O919 2.479 . S
Tb896 O920 2.471 . S
Eu897 O908 2.418 . S
Eu897 O909 2.384 . S
Eu897 O912 2.479 . S
Eu897 O913 2.471 . S
Eu897 O914 2.347 . S
Eu897 O917 2.366 . S
Eu897 C927 2.825 . S
C898 O914 1.259 . S
C898 O915 1.265 . S
C899 O916 1.255 . S
C899 O917 1.265 . S
C900 C902 1.380 . S
C900 C903 1.374 . S
C900 C906 1.507 . S
C901 C902 1.384 . S
C901 C905 1.387 . S
C901 H928 0.930 . S
C902 C900 1.380 . S
C902 C901 1.384 . S
C902 H929 0.931 . S
C903 C900 1.374 . S
C903 C904 1.390 . S
C903 H930 0.930 . S
C904 C903 1.390 . S
C904 C905 1.391 . S
C904 H931 0.930 . S
C905 C901 1.387 . S
C905 C904 1.391 . S
C906 Tb896 2.825 . S
C906 C900 1.507 . S
C906 O919 1.238 . S
C906 O920 1.247 . S
O907 Tb896 2.347 . S
O907 C911 1.259 . S
O908 Eu897 2.418 . S
O908 C911 1.265 . S
O909 Eu897 2.384 . S
O909 C918 1.255 . S
O910 Tb896 2.366 . S
O910 C918 1.265 . S
C911 O907 1.259 . S
C911 O908 1.265 . S
O912 Eu897 2.479 . S
O912 C927 1.238 . S
O913 Eu897 2.471 . S
O913 C927 1.247 . S
O914 Eu897 2.347 . S
O914 C898 1.259 . S
O915 Tb896 2.418 . S
O915 C898 1.265 . S
O916 Tb896 2.384 . S
O916 C899 1.255 . S
O917 Eu897 2.366 . S
O917 C899 1.265 . S
C918 O909 1.255 . S
C918 O910 1.265 . S
O919 Tb896 2.479 . S
O919 C906 1.238 . S
O920 Tb896 2.471 . S
O920 C906 1.247 . S
C921 C924 1.380 . S
C921 C925 1.374 . S
C921 C927 1.507 . S
C922 C923 1.387 . S
C922 C926 1.391 . S
C923 C922 1.387 . S
C923 C924 1.384 . S
C923 H932 0.930 . S
C924 C921 1.380 . S
C924 C923 1.384 . S
C924 H933 0.931 . S
C925 C921 1.374 . S
C925 C926 1.390 . S
C925 H934 0.930 . S
C926 C922 1.391 . S
C926 C925 1.390 . S
C926 H935 0.930 . S
C927 Eu897 2.825 . S
C927 O912 1.238 . S
C927 O913 1.247 . S
C927 C921 1.507 . S
H928 C901 0.930 . S
H929 C902 0.931 . S
H930 C903 0.930 . S
H931 C904 0.930 . S
H932 C923 0.930 . S
H933 C924 0.931 . S
H934 C925 0.930 . S
H935 C926 0.930 . S
Tb936 C946 2.825 . S
Tb936 O947 2.347 1_554 S
Tb936 O950 2.366 . S
Tb936 O955 2.418 . S
Tb936 O956 2.384 . S
Tb936 O959 2.479 . S
Tb936 O960 2.471 1_554 S
Eu937 O948 2.418 1_554 S
Eu937 O949 2.384 . S
Eu937 O952 2.479 . S
Eu937 O953 2.471 . S
Eu937 O954 2.347 . S
Eu937 O957 2.366 . S
Eu937 C967 2.825 . S
C938 O954 1.259 . S
C938 O955 1.265 . S
C939 O956 1.255 . S
C939 O957 1.265 . S
C940 C942 1.380 1_556 S
C940 C943 1.374 . S
C940 C946 1.507 1_556 S
C941 C942 1.384 1_556 S
C941 C945 1.387 . S
C941 H968 0.930 1_556 S
C942 C940 1.380 1_554 S
C942 C941 1.384 1_554 S
C942 H969 0.931 . S
C943 C940 1.374 . S
C943 C944 1.390 . S
C943 H970 0.930 . S
C944 C943 1.390 . S
C944 C945 1.391 . S
C944 H971 0.930 . S
C945 C941 1.387 . S
C945 C944 1.391 . S
C946 Tb936 2.825 . S
C946 C940 1.507 1_554 S
C946 O959 1.238 . S
C946 O960 1.247 1_554 S
O947 Tb936 2.347 1_556 S
O947 C951 1.259 . S
O948 Eu937 2.418 1_556 S
O948 C951 1.265 . S
O949 Eu937 2.384 . S
O949 C958 1.255 . S
O950 Tb936 2.366 . S
O950 C958 1.265 . S
C951 O947 1.259 . S
C951 O948 1.265 . S
O952 Eu937 2.479 . S
O952 C967 1.238 . S
O953 Eu937 2.471 . S
O953 C967 1.247 . S
O954 Eu937 2.347 . S
O954 C938 1.259 . S
O955 Tb936 2.418 . S
O955 C938 1.265 . S
O956 Tb936 2.384 . S
O956 C939 1.255 . S
O957 Eu937 2.366 . S
O957 C939 1.265 . S
C958 O949 1.255 . S
C958 O950 1.265 . S
O959 Tb936 2.479 . S
O959 C946 1.238 . S
O960 Tb936 2.471 1_556 S
O960 C946 1.247 1_556 S
C961 C964 1.380 . S
C961 C965 1.374 . S
C961 C967 1.507 . S
C962 C963 1.387 . S
C962 C966 1.391 . S
C963 C962 1.387 . S
C963 C964 1.384 . S
C963 H972 0.930 . S
C964 C961 1.380 . S
C964 C963 1.384 . S
C964 H973 0.931 . S
C965 C961 1.374 . S
C965 C966 1.390 . S
C965 H974 0.930 . S
C966 C962 1.391 . S
C966 C965 1.390 . S
C966 H975 0.930 . S
C967 Eu937 2.825 . S
C967 O952 1.238 . S
C967 O953 1.247 . S
C967 C961 1.507 . S
H968 C941 0.930 1_554 S
H969 C942 0.931 . S
H970 C943 0.930 . S
H971 C944 0.930 . S
H972 C963 0.930 . S
H973 C964 0.931 . S
H974 C965 0.930 . S
H975 C966 0.930 . S
H976 C988 0.930 . S
H977 C990 0.930 . S
H978 C991 0.930 . S
H979 C995 0.959 . S
H980 C995 0.957 . S
H981 C995 0.961 . S
H982 C996 0.967 . S
H983 C996 0.961 . S
H984 C996 0.959 . S
H985 C999 0.929 1_655 S
H986 C1000 0.931 . S
H987 C1002 0.930 . S
C988 H976 0.930 . S
C988 C989 1.427 . S
C988 C993 1.399 . S
C989 C988 1.427 . S
C989 C990 1.362 1_455 S
C990 H977 0.930 . S
C990 C989 1.362 1_655 S
C990 C991 1.388 . S
C991 H978 0.930 . S
C991 C990 1.388 . S
C991 C992 1.390 1_655 S
C992 C991 1.390 1_455 S
C992 C993 1.394 . S
C992 C998 1.465 . S
C993 C988 1.399 . S
C993 C992 1.394 . S
C993 C994 1.516 . S
C994 C993 1.516 . S
C994 C995 1.502 . S
C994 C996 1.561 1_556 S
C994 C997 1.526 . S
C995 H979 0.959 . S
C995 H980 0.957 . S
C995 H981 0.961 . S
C995 C994 1.502 . S
C996 H982 0.967 . S
C996 H983 0.961 . S
C996 H984 0.959 . S
C996 C994 1.561 1_554 S
C997 C994 1.526 . S
C997 C998 1.396 . S
C997 C1002 1.390 1_556 S
C998 C992 1.465 . S
C998 C997 1.396 . S
C998 C999 1.399 . S
C999 H985 0.929 1_455 S
C999 C998 1.399 . S
C999 C1000 1.385 . S
C1000 H986 0.931 . S
C1000 C999 1.385 . S
C1000 C1001 1.389 1_556 S
C1001 C1000 1.389 1_554 S
C1001 C1002 1.387 . S
C1002 H987 0.930 . S
C1002 C997 1.390 1_554 S
C1002 C1001 1.387 . S
H1003 C1015 0.930 . S
H1004 C1017 0.930 . S
H1005 C1018 0.930 . S
H1006 C1022 0.959 . S
H1007 C1022 0.959 . S
H1008 C1022 0.961 . S
H1009 C1023 0.960 . S
H1010 C1023 0.961 . S
H1011 C1023 0.959 . S
H1012 C1026 0.929 . S
H1013 C1027 0.931 . S
H1014 C1029 0.930 . S
C1015 H1003 0.930 . S
C1015 C1016 1.399 . S
C1015 C1020 1.399 . S
C1016 C1015 1.399 . S
C1016 C1017 1.376 . S
C1017 H1004 0.930 . S
C1017 C1016 1.376 . S
C1017 C1018 1.388 . S
C1018 H1005 0.930 . S
C1018 C1017 1.388 . S
C1018 C1019 1.390 . S
C1019 C1018 1.390 . S
C1019 C1020 1.394 . S
C1019 C1025 1.465 . S
C1020 C1015 1.399 . S
C1020 C1019 1.394 . S
C1020 C1021 1.516 . S
C1021 C1020 1.516 . S
C1021 C1022 1.502 . S
C1021 C1023 1.561 . S
C1021 C1024 1.526 . S
C1022 H1006 0.959 . S
C1022 H1007 0.959 . S
C1022 H1008 0.961 . S
C1022 C1021 1.502 . S
C1023 H1009 0.960 . S
C1023 H1010 0.961 . S
C1023 H1011 0.959 . S
C1023 C1021 1.561 . S
C1024 C1021 1.526 . S
C1024 C1025 1.396 . S
C1024 C1029 1.390 . S
C1025 C1019 1.465 . S
C1025 C1024 1.396 . S
C1025 C1026 1.399 . S
C1026 H1012 0.929 . S
C1026 C1025 1.399 . S
C1026 C1027 1.385 . S
C1027 H1013 0.931 . S
C1027 C1026 1.385 . S
C1027 C1028 1.389 . S
C1028 C1027 1.389 . S
C1028 C1029 1.387 . S
C1029 H1014 0.930 . S
C1029 C1024 1.390 . S
C1029 C1028 1.387 . S
H1030 C1042 0.930 . S
H1031 C1044 0.930 . S
H1032 C1045 0.930 . S
H1033 C1049 0.959 . S
H1034 C1049 0.959 . S
H1035 C1049 0.961 . S
H1036 C1050 0.960 . S
H1037 C1050 0.961 . S
H1038 C1050 0.959 . S
H1039 C1053 0.929 . S
H1040 C1054 0.931 . S
H1041 C1056 0.930 . S
C1042 H1030 0.930 . S
C1042 C1043 1.399 . S
C1042 C1047 1.399 . S
C1043 C1042 1.399 . S
C1043 C1044 1.376 . S
C1044 H1031 0.930 . S
C1044 C1043 1.376 . S
C1044 C1045 1.388 . S
C1045 H1032 0.930 . S
C1045 C1044 1.388 . S
C1045 C1046 1.390 . S
C1046 C1045 1.390 . S
C1046 C1047 1.394 . S
C1046 C1052 1.465 . S
C1047 C1042 1.399 . S
C1047 C1046 1.394 . S
C1047 C1048 1.516 . S
C1048 C1047 1.516 . S
C1048 C1049 1.502 . S
C1048 C1050 1.561 . S
C1048 C1051 1.526 . S
C1049 H1033 0.959 . S
C1049 H1034 0.959 . S
C1049 H1035 0.961 . S
C1049 C1048 1.502 . S
C1050 H1036 0.960 . S
C1050 H1037 0.961 . S
C1050 H1038 0.959 . S
C1050 C1048 1.561 . S
C1051 C1048 1.526 . S
C1051 C1052 1.396 . S
C1051 C1056 1.390 . S
C1052 C1046 1.465 . S
C1052 C1051 1.396 . S
C1052 C1053 1.399 . S
C1053 H1039 0.929 . S
C1053 C1052 1.399 . S
C1053 C1054 1.385 . S
C1054 H1040 0.931 . S
C1054 C1053 1.385 . S
C1054 C1055 1.389 . S
C1055 C1054 1.389 . S
C1055 C1056 1.387 . S
C1056 H1041 0.930 . S
C1056 C1051 1.390 . S
C1056 C1055 1.387 . S
H1057 C1069 0.930 . S
H1058 C1071 0.930 . S
H1059 C1072 0.930 . S
H1060 C1076 0.959 . S
H1061 C1076 0.959 . S
H1062 C1076 0.961 . S
H1063 C1077 0.960 . S
H1064 C1077 0.961 . S
H1065 C1077 0.959 . S
H1066 C1080 0.929 . S
H1067 C1081 0.931 . S
H1068 C1083 0.930 . S
C1069 H1057 0.930 . S
C1069 C1070 1.399 . S
C1069 C1074 1.399 . S
C1070 C1069 1.399 . S
C1070 C1071 1.376 . S
C1071 H1058 0.930 . S
C1071 C1070 1.376 . S
C1071 C1072 1.388 . S
C1072 H1059 0.930 . S
C1072 C1071 1.388 . S
C1072 C1073 1.390 . S
C1073 C1072 1.390 . S
C1073 C1074 1.394 . S
C1073 C1079 1.465 . S
C1074 C1069 1.399 . S
C1074 C1073 1.394 . S
C1074 C1075 1.516 . S
C1075 C1074 1.516 . S
C1075 C1076 1.502 . S
C1075 C1077 1.561 . S
C1075 C1078 1.526 . S
C1076 H1060 0.959 . S
C1076 H1061 0.959 . S
C1076 H1062 0.961 . S
C1076 C1075 1.502 . S
C1077 H1063 0.960 . S
C1077 H1064 0.961 . S
C1077 H1065 0.959 . S
C1077 C1075 1.561 . S
C1078 C1075 1.526 . S
C1078 C1079 1.396 . S
C1078 C1083 1.390 . S
C1079 C1073 1.465 . S
C1079 C1078 1.396 . S
C1079 C1080 1.399 . S
C1080 H1066 0.929 . S
C1080 C1079 1.399 . S
C1080 C1081 1.385 . S
C1081 H1067 0.931 . S
C1081 C1080 1.385 . S
C1081 C1082 1.389 . S
C1082 C1081 1.389 . S
C1082 C1083 1.387 . S
C1083 H1068 0.930 . S
C1083 C1078 1.390 . S
C1083 C1082 1.387 . S
H1084 C1096 0.930 . S
H1085 C1098 0.930 . S
H1086 C1099 0.930 . S
H1087 C1103 0.959 . S
H1088 C1103 0.959 . S
H1089 C1103 0.961 . S
H1090 C1104 0.960 . S
H1091 C1104 0.961 . S
H1092 C1104 0.959 . S
H1093 C1107 0.929 . S
H1094 C1108 0.931 . S
H1095 C1110 0.930 . S
C1096 H1084 0.930 . S
C1096 C1097 1.399 . S
C1096 C1101 1.399 . S
C1097 C1096 1.399 . S
C1097 C1098 1.376 . S
C1098 H1085 0.930 . S
C1098 C1097 1.376 . S
C1098 C1099 1.388 . S
C1099 H1086 0.930 . S
C1099 C1098 1.388 . S
C1099 C1100 1.390 . S
C1100 C1099 1.390 . S
C1100 C1101 1.394 . S
C1100 C1106 1.465 . S
C1101 C1096 1.399 . S
C1101 C1100 1.394 . S
C1101 C1102 1.516 . S
C1102 C1101 1.516 . S
C1102 C1103 1.502 . S
C1102 C1104 1.561 . S
C1102 C1105 1.526 . S
C1103 H1087 0.959 . S
C1103 H1088 0.959 . S
C1103 H1089 0.961 . S
C1103 C1102 1.502 . S
C1104 H1090 0.960 . S
C1104 H1091 0.961 . S
C1104 H1092 0.959 . S
C1104 C1102 1.561 . S
C1105 C1102 1.526 . S
C1105 C1106 1.396 . S
C1105 C1110 1.390 . S
C1106 C1100 1.465 . S
C1106 C1105 1.396 . S
C1106 C1107 1.399 . S
C1107 H1093 0.929 . S
C1107 C1106 1.399 . S
C1107 C1108 1.385 . S
C1108 H1094 0.931 . S
C1108 C1107 1.385 . S
C1108 C1109 1.389 . S
C1109 C1108 1.389 . S
C1109 C1110 1.387 . S
C1110 H1095 0.930 . S
C1110 C1105 1.390 . S
C1110 C1109 1.387 . S
H1111 C1123 0.930 . S
H1112 C1125 0.930 . S
H1113 C1126 0.930 . S
H1114 C1130 0.959 . S
H1115 C1130 0.959 . S
H1116 C1130 0.961 . S
H1117 C1131 0.960 . S
H1118 C1131 0.961 . S
H1119 C1131 0.959 . S
H1120 C1134 0.929 . S
H1121 C1135 0.931 . S
H1122 C1137 0.930 . S
C1123 H1111 0.930 . S
C1123 C1124 1.399 . S
C1123 C1128 1.399 . S
C1124 C1123 1.399 . S
C1124 C1125 1.376 . S
C1125 H1112 0.930 . S
C1125 C1124 1.376 . S
C1125 C1126 1.388 . S
C1126 H1113 0.930 . S
C1126 C1125 1.388 . S
C1126 C1127 1.390 . S
C1127 C1126 1.390 . S
C1127 C1128 1.394 . S
C1127 C1133 1.465 . S
C1128 C1123 1.399 . S
C1128 C1127 1.394 . S
C1128 C1129 1.516 . S
C1129 C1128 1.516 . S
C1129 C1130 1.502 . S
C1129 C1131 1.561 . S
C1129 C1132 1.526 . S
C1130 H1114 0.959 . S
C1130 H1115 0.959 . S
C1130 H1116 0.961 . S
C1130 C1129 1.502 . S
C1131 H1117 0.960 . S
C1131 H1118 0.961 . S
C1131 H1119 0.959 . S
C1131 C1129 1.561 . S
C1132 C1129 1.526 . S
C1132 C1133 1.396 . S
C1132 C1137 1.390 . S
C1133 C1127 1.465 . S
C1133 C1132 1.396 . S
C1133 C1134 1.399 . S
C1134 H1120 0.929 . S
C1134 C1133 1.399 . S
C1134 C1135 1.385 . S
C1135 H1121 0.931 . S
C1135 C1134 1.385 . S
C1135 C1136 1.389 . S
C1136 C1135 1.389 . S
C1136 C1137 1.387 . S
C1137 H1122 0.930 . S
C1137 C1132 1.390 . S
C1137 C1136 1.387 . S
H1138 C1150 0.930 . S
H1139 C1152 0.930 . S
H1140 C1153 0.930 . S
H1141 C1157 0.959 . S
H1142 C1157 0.959 . S
H1143 C1157 0.961 . S
H1144 C1158 0.960 . S
H1145 C1158 0.961 . S
H1146 C1158 0.959 . S
H1147 C1161 0.929 . S
H1148 C1162 0.931 . S
H1149 C1164 0.930 . S
C1150 H1138 0.930 . S
C1150 C1151 1.399 . S
C1150 C1155 1.399 . S
C1151 C1150 1.399 . S
C1151 C1152 1.376 . S
C1152 H1139 0.930 . S
C1152 C1151 1.376 . S
C1152 C1153 1.388 . S
C1153 H1140 0.930 . S
C1153 C1152 1.388 . S
C1153 C1154 1.390 . S
C1154 C1153 1.390 . S
C1154 C1155 1.394 . S
C1154 C1160 1.465 . S
C1155 C1150 1.399 . S
C1155 C1154 1.394 . S
C1155 C1156 1.516 . S
C1156 C1155 1.516 . S
C1156 C1157 1.502 . S
C1156 C1158 1.561 . S
C1156 C1159 1.526 . S
C1157 H1141 0.959 . S
C1157 H1142 0.959 . S
C1157 H1143 0.961 . S
C1157 C1156 1.502 . S
C1158 H1144 0.960 . S
C1158 H1145 0.961 . S
C1158 H1146 0.959 . S
C1158 C1156 1.561 . S
C1159 C1156 1.526 . S
C1159 C1160 1.396 . S
C1159 C1164 1.390 . S
C1160 C1154 1.465 . S
C1160 C1159 1.396 . S
C1160 C1161 1.399 . S
C1161 H1147 0.929 . S
C1161 C1160 1.399 . S
C1161 C1162 1.385 . S
C1162 H1148 0.931 . S
C1162 C1161 1.385 . S
C1162 C1163 1.389 . S
C1163 C1162 1.389 . S
C1163 C1164 1.387 . S
C1164 H1149 0.930 . S
C1164 C1159 1.390 . S
C1164 C1163 1.387 . S
H1165 C1177 0.930 . S
H1166 C1179 0.930 . S
H1167 C1180 0.930 . S
H1168 C1184 0.959 . S
H1169 C1184 0.959 . S
H1170 C1184 0.961 . S
H1171 C1185 0.960 . S
H1172 C1185 0.961 . S
H1173 C1185 0.959 . S
H1174 C1188 0.929 . S
H1175 C1189 0.931 . S
H1176 C1191 0.930 . S
C1177 H1165 0.930 . S
C1177 C1178 1.399 . S
C1177 C1182 1.399 . S
C1178 C1177 1.399 . S
C1178 C1179 1.376 . S
C1179 H1166 0.930 . S
C1179 C1178 1.376 . S
C1179 C1180 1.388 . S
C1180 H1167 0.930 . S
C1180 C1179 1.388 . S
C1180 C1181 1.390 . S
C1181 C1180 1.390 . S
C1181 C1182 1.394 . S
C1181 C1187 1.465 . S
C1182 C1177 1.399 . S
C1182 C1181 1.394 . S
C1182 C1183 1.516 . S
C1183 C1182 1.516 . S
C1183 C1184 1.502 . S
C1183 C1185 1.561 . S
C1183 C1186 1.526 . S
C1184 H1168 0.959 . S
C1184 H1169 0.959 . S
C1184 H1170 0.961 . S
C1184 C1183 1.502 . S
C1185 H1171 0.960 . S
C1185 H1172 0.961 . S
C1185 H1173 0.959 . S
C1185 C1183 1.561 . S
C1186 C1183 1.526 . S
C1186 C1187 1.396 . S
C1186 C1191 1.390 . S
C1187 C1181 1.465 . S
C1187 C1186 1.396 . S
C1187 C1188 1.399 . S
C1188 H1174 0.929 . S
C1188 C1187 1.399 . S
C1188 C1189 1.385 . S
C1189 H1175 0.931 . S
C1189 C1188 1.385 . S
C1189 C1190 1.389 . S
C1190 C1189 1.389 . S
C1190 C1191 1.387 . S
C1191 H1176 0.930 . S
C1191 C1186 1.390 . S
C1191 C1190 1.387 . S
H1192 C1204 0.930 . S
H1193 C1206 0.930 1_565 S
H1194 C1207 0.930 . S
H1195 C1211 0.959 . S
H1196 C1211 0.959 . S
H1197 C1211 0.961 . S
H1198 C1212 0.973 . S
H1199 C1212 0.961 1_545 S
H1200 C1212 0.984 . S
H1201 C1215 0.929 . S
H1202 C1216 0.931 . S
H1203 C1218 0.930 . S
C1204 H1192 0.930 . S
C1204 C1205 1.399 . S
C1204 C1209 1.399 . S
C1205 C1204 1.399 . S
C1205 C1206 1.376 . S
C1206 H1193 0.930 1_545 S
C1206 C1205 1.376 . S
C1206 C1207 1.388 . S
C1207 H1194 0.930 . S
C1207 C1206 1.388 . S
C1207 C1208 1.390 . S
C1208 C1207 1.390 . S
C1208 C1209 1.394 . S
C1208 C1214 1.465 . S
C1209 C1204 1.399 . S
C1209 C1208 1.394 . S
C1209 C1210 1.516 . S
C1210 C1209 1.516 . S
C1210 C1211 1.502 1_655 S
C1210 C1212 1.525 1_645 S
C1210 C1213 1.522 1_655 S
C1211 H1195 0.959 . S
C1211 H1196 0.959 . S
C1211 H1197 0.961 . S
C1211 C1210 1.502 1_455 S
C1212 H1198 0.973 . S
C1212 H1199 0.961 1_565 S
C1212 H1200 0.984 . S
C1212 C1210 1.525 1_465 S
C1213 C1210 1.522 1_455 S
C1213 C1214 1.379 1_455 S
C1213 C1218 1.407 . S
C1214 C1208 1.465 . S
C1214 C1213 1.379 1_655 S
C1214 C1215 1.399 . S
C1215 H1201 0.929 . S
C1215 C1214 1.399 . S
C1215 C1216 1.385 . S
C1216 H1202 0.931 . S
C1216 C1215 1.385 . S
C1216 C1217 1.389 1_655 S
C1217 C1216 1.389 1_455 S
C1217 C1218 1.387 . S
C1218 H1203 0.930 . S
C1218 C1213 1.407 . S
C1218 C1217 1.387 . S
H1219 C1231 0.930 . S
H1220 C1233 0.930 . S
H1221 C1234 0.930 . S
H1222 C1238 0.959 . S
H1223 C1238 0.959 . S
H1224 C1238 0.961 . S
H1225 C1239 0.960 . S
H1226 C1239 0.961 . S
H1227 C1239 0.959 . S
H1228 C1242 0.929 . S
H1229 C1243 0.931 . S
H1230 C1245 0.930 . S
C1231 H1219 0.930 . S
C1231 C1232 1.399 . S
C1231 C1236 1.399 . S
C1232 C1231 1.399 . S
C1232 C1233 1.376 . S
C1233 H1220 0.930 . S
C1233 C1232 1.376 . S
C1233 C1234 1.388 . S
C1234 H1221 0.930 . S
C1234 C1233 1.388 . S
C1234 C1235 1.390 . S
C1235 C1234 1.390 . S
C1235 C1236 1.394 . S
C1235 C1241 1.465 . S
C1236 C1231 1.399 . S
C1236 C1235 1.394 . S
C1236 C1237 1.516 . S
C1237 C1236 1.516 . S
C1237 C1238 1.502 . S
C1237 C1239 1.561 . S
C1237 C1240 1.526 . S
C1238 H1222 0.959 . S
C1238 H1223 0.959 . S
C1238 H1224 0.961 . S
C1238 C1237 1.502 . S
C1239 H1225 0.960 . S
C1239 H1226 0.961 . S
C1239 H1227 0.959 . S
C1239 C1237 1.561 . S
C1240 C1237 1.526 . S
C1240 C1241 1.396 . S
C1240 C1245 1.390 . S
C1241 C1235 1.465 . S
C1241 C1240 1.396 . S
C1241 C1242 1.399 . S
C1242 H1228 0.929 . S
C1242 C1241 1.399 . S
C1242 C1243 1.385 . S
C1243 H1229 0.931 . S
C1243 C1242 1.385 . S
C1243 C1244 1.389 . S
C1244 C1243 1.389 . S
C1244 C1245 1.387 . S
C1245 H1230 0.930 . S
C1245 C1240 1.390 . S
C1245 C1244 1.387 . S
H1246 C1258 0.930 . S
H1247 C1260 0.930 . S
H1248 C1261 0.930 . S
H1249 C1265 0.959 . S
H1250 C1265 0.959 . S
H1251 C1265 0.961 . S
H1252 C1266 0.960 . S
H1253 C1266 0.961 . S
H1254 C1266 0.959 . S
H1255 C1269 0.929 . S
H1256 C1270 0.931 . S
H1257 C1272 0.930 . S
C1258 H1246 0.930 . S
C1258 C1259 1.399 1_565 S
C1258 C1263 1.399 1_565 S
C1259 C1258 1.399 1_545 S
C1259 C1260 1.376 . S
C1260 H1247 0.930 . S
C1260 C1259 1.376 . S
C1260 C1261 1.388 . S
C1261 H1248 0.930 . S
C1261 C1260 1.388 . S
C1261 C1262 1.390 . S
C1262 C1261 1.390 . S
C1262 C1263 1.394 . S
C1262 C1268 1.465 . S
C1263 C1258 1.399 1_545 S
C1263 C1262 1.394 . S
C1263 C1264 1.517 1_545 S
C1264 C1263 1.517 1_565 S
C1264 C1265 1.512 . S
C1264 C1266 1.555 1_565 S
C1264 C1267 1.520 1_565 S
C1265 H1249 0.959 . S
C1265 H1250 0.959 . S
C1265 H1251 0.961 . S
C1265 C1264 1.512 . S
C1266 H1252 0.960 . S
C1266 H1253 0.961 . S
C1266 H1254 0.959 . S
C1266 C1264 1.555 1_545 S
C1267 C1264 1.520 1_545 S
C1267 C1268 1.396 . S
C1267 C1272 1.390 . S
C1268 C1262 1.465 . S
C1268 C1267 1.396 . S
C1268 C1269 1.399 . S
C1269 H1255 0.929 . S
C1269 C1268 1.399 . S
C1269 C1270 1.385 . S
C1270 H1256 0.931 . S
C1270 C1269 1.385 . S
C1270 C1271 1.389 . S
C1271 C1270 1.389 . S
C1271 C1272 1.387 . S
C1272 H1257 0.930 . S
C1272 C1267 1.390 . S
C1272 C1271 1.387 . S
H1273 C1285 0.930 . S
H1274 C1287 0.930 . S
H1275 C1288 0.930 . S
H1276 C1292 0.959 . S
H1277 C1292 0.959 . S
H1278 C1292 0.961 . S
H1279 C1293 0.960 . S
H1280 C1293 0.961 . S
H1281 C1293 0.959 . S
H1282 C1296 0.929 . S
H1283 C1297 0.931 . S
H1284 C1299 0.930 . S
C1285 H1273 0.930 . S
C1285 C1286 1.399 . S
C1285 C1290 1.399 . S
C1286 C1285 1.399 . S
C1286 C1287 1.376 . S
C1287 H1274 0.930 . S
C1287 C1286 1.376 . S
C1287 C1288 1.388 . S
C1288 H1275 0.930 . S
C1288 C1287 1.388 . S
C1288 C1289 1.390 . S
C1289 C1288 1.390 . S
C1289 C1290 1.394 . S
C1289 C1295 1.465 . S
C1290 C1285 1.399 . S
C1290 C1289 1.394 . S
C1290 C1291 1.516 . S
C1291 C1290 1.516 . S
C1291 C1292 1.502 . S
C1291 C1293 1.561 . S
C1291 C1294 1.526 . S
C1292 H1276 0.959 . S
C1292 H1277 0.959 . S
C1292 H1278 0.961 . S
C1292 C1291 1.502 . S
C1293 H1279 0.960 . S
C1293 H1280 0.961 . S
C1293 H1281 0.959 . S
C1293 C1291 1.561 . S
C1294 C1291 1.526 . S
C1294 C1295 1.396 . S
C1294 C1299 1.390 . S
C1295 C1289 1.465 . S
C1295 C1294 1.396 . S
C1295 C1296 1.399 . S
C1296 H1282 0.929 . S
C1296 C1295 1.399 . S
C1296 C1297 1.385 . S
C1297 H1283 0.931 . S
C1297 C1296 1.385 . S
C1297 C1298 1.389 . S
C1298 C1297 1.389 . S
C1298 C1299 1.387 . S
C1299 H1284 0.930 . S
C1299 C1294 1.390 . S
C1299 C1298 1.387 . S
H1300 C1312 0.930 . S
H1301 C1314 0.930 . S
H1302 C1315 0.930 . S
H1303 C1319 0.915 1_545 S
H1304 C1319 0.977 . S
H1305 C1319 0.976 . S
H1306 C1320 0.960 . S
H1307 C1320 0.961 . S
H1308 C1320 0.959 . S
H1309 C1323 0.940 . S
H1310 C1324 0.931 . S
H1311 C1326 0.930 . S
C1312 H1300 0.930 . S
C1312 C1313 1.399 1_565 S
C1312 C1317 1.399 1_565 S
C1313 C1312 1.399 1_545 S
C1313 C1314 1.376 . S
C1314 H1301 0.930 . S
C1314 C1313 1.376 . S
C1314 C1315 1.388 . S
C1315 H1302 0.930 . S
C1315 C1314 1.388 . S
C1315 C1316 1.390 . S
C1316 C1315 1.390 . S
C1316 C1317 1.394 . S
C1316 C1322 1.465 . S
C1317 C1312 1.399 1_545 S
C1317 C1316 1.394 . S
C1317 C1318 1.516 1_545 S
C1318 C1317 1.516 1_565 S
C1318 C1319 1.513 . S
C1318 C1320 1.561 . S
C1318 C1321 1.526 1_565 S
C1319 H1303 0.915 1_565 S
C1319 H1304 0.977 . S
C1319 H1305 0.976 . S
C1319 C1318 1.513 . S
C1320 H1306 0.960 . S
C1320 H1307 0.961 . S
C1320 H1308 0.959 . S
C1320 C1318 1.561 . S
C1321 C1318 1.526 1_545 S
C1321 C1322 1.396 . S
C1321 C1326 1.390 . S
C1322 C1316 1.465 . S
C1322 C1321 1.396 . S
C1322 C1323 1.383 1_655 S
C1323 H1309 0.940 . S
C1323 C1322 1.383 1_455 S
C1323 C1324 1.391 . S
C1324 H1310 0.931 . S
C1324 C1323 1.391 . S
C1324 C1325 1.372 1_455 S
C1325 C1324 1.372 1_655 S
C1325 C1326 1.416 . S
C1326 H1311 0.930 . S
C1326 C1321 1.390 . S
C1326 C1325 1.416 . S
H1327 C1339 0.930 . S
H1328 C1341 0.930 . S
H1329 C1342 0.930 . S
H1330 C1346 0.959 . S
H1331 C1346 0.959 . S
H1332 C1346 0.961 . S
H1333 C1347 0.960 . S
H1334 C1347 0.961 . S
H1335 C1347 0.959 . S
H1336 C1350 0.929 . S
H1337 C1351 0.931 . S
H1338 C1353 0.930 . S
C1339 H1327 0.930 . S
C1339 C1340 1.399 . S
C1339 C1344 1.399 . S
C1340 C1339 1.399 . S
C1340 C1341 1.376 . S
C1341 H1328 0.930 . S
C1341 C1340 1.376 . S
C1341 C1342 1.388 . S
C1342 H1329 0.930 . S
C1342 C1341 1.388 . S
C1342 C1343 1.390 . S
C1343 C1342 1.390 . S
C1343 C1344 1.394 . S
C1343 C1349 1.465 . S
C1344 C1339 1.399 . S
C1344 C1343 1.394 . S
C1344 C1345 1.516 . S
C1345 C1344 1.516 . S
C1345 C1346 1.502 . S
C1345 C1347 1.561 . S
C1345 C1348 1.526 . S
C1346 H1330 0.959 . S
C1346 H1331 0.959 . S
C1346 H1332 0.961 . S
C1346 C1345 1.502 . S
C1347 H1333 0.960 . S
C1347 H1334 0.961 . S
C1347 H1335 0.959 . S
C1347 C1345 1.561 . S
C1348 C1345 1.526 . S
C1348 C1349 1.396 . S
C1348 C1353 1.390 . S
C1349 C1343 1.465 . S
C1349 C1348 1.396 . S
C1349 C1350 1.399 . S
C1350 H1336 0.929 . S
C1350 C1349 1.399 . S
C1350 C1351 1.385 . S
C1351 H1337 0.931 . S
C1351 C1350 1.385 . S
C1351 C1352 1.389 . S
C1352 C1351 1.389 . S
C1352 C1353 1.387 . S
C1353 H1338 0.930 . S
C1353 C1348 1.390 . S
C1353 C1352 1.387 . S
H1354 C1366 0.930 . S
H1355 C1368 0.922 1_565 S
H1356 C1369 0.930 . S
H1357 C1373 0.959 . S
H1358 C1373 0.959 . S
H1359 C1373 0.961 . S
H1360 C1374 0.960 . S
H1361 C1374 0.961 . S
H1362 C1374 0.959 . S
H1363 C1377 0.929 . S
H1364 C1378 0.931 . S
H1365 C1380 0.930 . S
C1366 H1354 0.930 . S
C1366 C1367 1.399 . S
C1366 C1371 1.399 . S
C1367 C1366 1.399 . S
C1367 C1368 1.376 . S
C1368 H1355 0.922 1_545 S
C1368 C1367 1.376 . S
C1368 C1369 1.388 . S
C1369 H1356 0.930 . S
C1369 C1368 1.388 . S
C1369 C1370 1.390 . S
C1370 C1369 1.390 . S
C1370 C1371 1.394 . S
C1370 C1376 1.465 . S
C1371 C1366 1.399 . S
C1371 C1370 1.394 . S
C1371 C1372 1.516 . S
C1372 C1371 1.516 . S
C1372 C1373 1.502 . S
C1372 C1374 1.561 . S
C1372 C1375 1.526 . S
C1373 H1357 0.959 . S
C1373 H1358 0.959 . S
C1373 H1359 0.961 . S
C1373 C1372 1.502 . S
C1374 H1360 0.960 . S
C1374 H1361 0.961 . S
C1374 H1362 0.959 . S
C1374 C1372 1.561 . S
C1375 C1372 1.526 . S
C1375 C1376 1.396 . S
C1375 C1380 1.390 . S
C1376 C1370 1.465 . S
C1376 C1375 1.396 . S
C1376 C1377 1.399 . S
C1377 H1363 0.929 . S
C1377 C1376 1.399 . S
C1377 C1378 1.385 . S
C1378 H1364 0.931 . S
C1378 C1377 1.385 . S
C1378 C1379 1.389 . S
C1379 C1378 1.389 . S
C1379 C1380 1.387 . S
C1380 H1365 0.930 . S
C1380 C1375 1.390 . S
C1380 C1379 1.387 . S
H1381 C1393 0.930 . S
H1382 C1395 0.930 . S
H1383 C1396 0.930 . S
H1384 C1400 0.959 . S
H1385 C1400 0.959 . S
H1386 C1400 0.961 . S
H1387 C1401 0.960 . S
H1388 C1401 0.961 . S
H1389 C1401 0.959 . S
H1390 C1404 0.929 . S
H1391 C1405 0.931 . S
H1392 C1407 0.930 . S
C1393 H1381 0.930 . S
C1393 C1394 1.399 . S
C1393 C1398 1.399 . S
C1394 C1393 1.399 . S
C1394 C1395 1.376 . S
C1395 H1382 0.930 . S
C1395 C1394 1.376 . S
C1395 C1396 1.388 . S
C1396 H1383 0.930 . S
C1396 C1395 1.388 . S
C1396 C1397 1.390 . S
C1397 C1396 1.390 . S
C1397 C1398 1.394 . S
C1397 C1403 1.465 . S
C1398 C1393 1.399 . S
C1398 C1397 1.394 . S
C1398 C1399 1.516 . S
C1399 C1398 1.516 . S
C1399 C1400 1.502 . S
C1399 C1401 1.561 . S
C1399 C1402 1.526 . S
C1400 H1384 0.959 . S
C1400 H1385 0.959 . S
C1400 H1386 0.961 . S
C1400 C1399 1.502 . S
C1401 H1387 0.960 . S
C1401 H1388 0.961 . S
C1401 H1389 0.959 . S
C1401 C1399 1.561 . S
C1402 C1399 1.526 . S
C1402 C1403 1.396 . S
C1402 C1407 1.390 . S
C1403 C1397 1.465 . S
C1403 C1402 1.396 . S
C1403 C1404 1.399 . S
C1404 H1390 0.929 . S
C1404 C1403 1.399 . S
C1404 C1405 1.385 . S
C1405 H1391 0.931 . S
C1405 C1404 1.385 . S
C1405 C1406 1.389 . S
C1406 C1405 1.389 . S
C1406 C1407 1.387 . S
C1407 H1392 0.930 . S
C1407 C1402 1.390 . S
C1407 C1406 1.387 . S
H1408 C1420 0.930 . S
H1409 C1422 0.930 . S
H1410 C1423 0.930 . S
H1411 C1427 0.959 . S
H1412 C1427 0.959 . S
H1413 C1427 0.961 . S
H1414 C1428 0.960 . S
H1415 C1428 0.961 . S
H1416 C1428 0.959 . S
H1417 C1431 0.929 . S
H1418 C1432 0.931 . S
H1419 C1434 0.930 . S
C1420 H1408 0.930 . S
C1420 C1421 1.399 . S
C1420 C1425 1.399 . S
C1421 C1420 1.399 . S
C1421 C1422 1.376 . S
C1422 H1409 0.930 . S
C1422 C1421 1.376 . S
C1422 C1423 1.388 . S
C1423 H1410 0.930 . S
C1423 C1422 1.388 . S
C1423 C1424 1.390 . S
C1424 C1423 1.390 . S
C1424 C1425 1.394 . S
C1424 C1430 1.465 . S
C1425 C1420 1.399 . S
C1425 C1424 1.394 . S
C1425 C1426 1.516 . S
C1426 C1425 1.516 . S
C1426 C1427 1.502 . S
C1426 C1428 1.561 . S
C1426 C1429 1.526 . S
C1427 H1411 0.959 . S
C1427 H1412 0.959 . S
C1427 H1413 0.961 . S
C1427 C1426 1.502 . S
C1428 H1414 0.960 . S
C1428 H1415 0.961 . S
C1428 H1416 0.959 . S
C1428 C1426 1.561 . S
C1429 C1426 1.526 . S
C1429 C1430 1.396 . S
C1429 C1434 1.390 . S
C1430 C1424 1.465 . S
C1430 C1429 1.396 . S
C1430 C1431 1.399 . S
C1431 H1417 0.929 . S
C1431 C1430 1.399 . S
C1431 C1432 1.385 . S
C1432 H1418 0.931 . S
C1432 C1431 1.385 . S
C1432 C1433 1.389 . S
C1433 C1432 1.389 . S
C1433 C1434 1.387 . S
C1434 H1419 0.930 . S
C1434 C1429 1.390 . S
C1434 C1433 1.387 . S
H1435 C1447 0.916 1_556 S
H1436 C1449 0.930 . S
H1437 C1450 0.930 . S
H1438 C1454 0.959 . S
H1439 C1454 0.959 . S
H1440 C1454 0.961 . S
H1441 C1455 0.960 . S
H1442 C1455 0.961 . S
H1443 C1455 0.959 . S
H1444 C1458 0.929 . S
H1445 C1459 0.931 . S
H1446 C1461 0.930 1_556 S
C1447 H1435 0.916 1_554 S
C1447 C1448 1.408 . S
C1447 C1452 1.405 . S
C1448 C1447 1.408 . S
C1448 C1449 1.376 . S
C1449 H1436 0.930 . S
C1449 C1448 1.376 . S
C1449 C1450 1.388 . S
C1450 H1437 0.930 . S
C1450 C1449 1.388 . S
C1450 C1451 1.390 . S
C1451 C1450 1.390 . S
C1451 C1452 1.394 . S
C1451 C1457 1.465 . S
C1452 C1447 1.405 . S
C1452 C1451 1.394 . S
C1452 C1453 1.516 1_554 S
C1453 C1452 1.516 1_556 S
C1453 C1454 1.502 . S
C1453 C1455 1.561 . S
C1453 C1456 1.526 1_556 S
C1454 H1438 0.959 . S
C1454 H1439 0.959 . S
C1454 H1440 0.961 . S
C1454 C1453 1.502 . S
C1455 H1441 0.960 . S
C1455 H1442 0.961 . S
C1455 H1443 0.959 . S
C1455 C1453 1.561 . S
C1456 C1453 1.526 1_554 S
C1456 C1457 1.396 . S
C1456 C1461 1.390 . S
C1457 C1451 1.465 . S
C1457 C1456 1.396 . S
C1457 C1458 1.399 . S
C1458 H1444 0.929 . S
C1458 C1457 1.399 . S
C1458 C1459 1.385 . S
C1459 H1445 0.931 . S
C1459 C1458 1.385 . S
C1459 C1460 1.389 . S
C1460 C1459 1.389 . S
C1460 C1461 1.387 . S
C1461 H1446 0.930 1_554 S
C1461 C1456 1.390 . S
C1461 C1460 1.387 . S
H1462 C1474 0.930 . S
H1463 C1476 0.930 . S
H1464 C1477 0.930 . S
H1465 C1481 0.959 . S
H1466 C1481 0.959 . S
H1467 C1481 0.961 . S
H1468 C1482 0.960 . S
H1469 C1482 0.961 . S
H1470 C1482 0.959 . S
H1471 C1485 0.929 . S
H1472 C1486 0.931 . S
H1473 C1488 0.930 . S
C1474 H1462 0.930 . S
C1474 C1475 1.399 . S
C1474 C1479 1.399 . S
C1475 C1474 1.399 . S
C1475 C1476 1.376 . S
C1476 H1463 0.930 . S
C1476 C1475 1.376 . S
C1476 C1477 1.388 . S
C1477 H1464 0.930 . S
C1477 C1476 1.388 . S
C1477 C1478 1.390 . S
C1478 C1477 1.390 . S
C1478 C1479 1.394 . S
C1478 C1484 1.465 . S
C1479 C1474 1.399 . S
C1479 C1478 1.394 . S
C1479 C1480 1.516 . S
C1480 C1479 1.516 . S
C1480 C1481 1.502 . S
C1480 C1482 1.561 . S
C1480 C1483 1.526 . S
C1481 H1465 0.959 . S
C1481 H1466 0.959 . S
C1481 H1467 0.961 . S
C1481 C1480 1.502 . S
C1482 H1468 0.960 . S
C1482 H1469 0.961 . S
C1482 H1470 0.959 . S
C1482 C1480 1.561 . S
C1483 C1480 1.526 . S
C1483 C1484 1.396 . S
C1483 C1488 1.390 . S
C1484 C1478 1.465 . S
C1484 C1483 1.396 . S
C1484 C1485 1.399 . S
C1485 H1471 0.929 . S
C1485 C1484 1.399 . S
C1485 C1486 1.385 . S
C1486 H1472 0.931 . S
C1486 C1485 1.385 . S
C1486 C1487 1.389 . S
C1487 C1486 1.389 . S
C1487 C1488 1.387 . S
C1488 H1473 0.930 . S
C1488 C1483 1.390 . S
C1488 C1487 1.387 . S
H1489 C1501 0.930 . S
H1490 C1503 0.930 . S
H1491 C1504 0.930 . S
H1492 C1508 0.959 . S
H1493 C1508 0.959 . S
H1494 C1508 0.961 . S
H1495 C1509 0.960 . S
H1496 C1509 0.961 . S
H1497 C1509 0.959 . S
H1498 C1512 0.929 . S
H1499 C1513 0.931 . S
H1500 C1515 0.930 . S
C1501 H1489 0.930 . S
C1501 C1502 1.399 . S
C1501 C1506 1.399 . S
C1502 C1501 1.399 . S
C1502 C1503 1.376 . S
C1503 H1490 0.930 . S
C1503 C1502 1.376 . S
C1503 C1504 1.388 . S
C1504 H1491 0.930 . S
C1504 C1503 1.388 . S
C1504 C1505 1.390 . S
C1505 C1504 1.390 . S
C1505 C1506 1.394 . S
C1505 C1511 1.465 . S
C1506 C1501 1.399 . S
C1506 C1505 1.394 . S
C1506 C1507 1.516 . S
C1507 C1506 1.516 . S
C1507 C1508 1.502 . S
C1507 C1509 1.561 . S
C1507 C1510 1.526 . S
C1508 H1492 0.959 . S
C1508 H1493 0.959 . S
C1508 H1494 0.961 . S
C1508 C1507 1.502 . S
C1509 H1495 0.960 . S
C1509 H1496 0.961 . S
C1509 H1497 0.959 . S
C1509 C1507 1.561 . S
C1510 C1507 1.526 . S
C1510 C1511 1.396 . S
C1510 C1515 1.390 . S
C1511 C1505 1.465 . S
C1511 C1510 1.396 . S
C1511 C1512 1.399 . S
C1512 H1498 0.929 . S
C1512 C1511 1.399 . S
C1512 C1513 1.385 . S
C1513 H1499 0.931 . S
C1513 C1512 1.385 . S
C1513 C1514 1.389 . S
C1514 C1513 1.389 . S
C1514 C1515 1.387 . S
C1515 H1500 0.930 . S
C1515 C1510 1.390 . S
C1515 C1514 1.387 . S
H1516 C1528 0.930 . S
H1517 C1530 0.930 . S
H1518 C1531 0.930 . S
H1519 C1535 0.959 . S
H1520 C1535 0.959 . S
H1521 C1535 0.961 . S
H1522 C1536 0.960 . S
H1523 C1536 0.961 . S
H1524 C1536 0.959 . S
H1525 C1539 0.929 . S
H1526 C1540 0.931 . S
H1527 C1542 0.930 . S
C1528 H1516 0.930 . S
C1528 C1529 1.399 . S
C1528 C1533 1.399 . S
C1529 C1528 1.399 . S
C1529 C1530 1.376 . S
C1530 H1517 0.930 . S
C1530 C1529 1.376 . S
C1530 C1531 1.388 . S
C1531 H1518 0.930 . S
C1531 C1530 1.388 . S
C1531 C1532 1.390 . S
C1532 C1531 1.390 . S
C1532 C1533 1.394 . S
C1532 C1538 1.465 . S
C1533 C1528 1.399 . S
C1533 C1532 1.394 . S
C1533 C1534 1.516 . S
C1534 C1533 1.516 . S
C1534 C1535 1.502 . S
C1534 C1536 1.561 . S
C1534 C1537 1.526 . S
C1535 H1519 0.959 . S
C1535 H1520 0.959 . S
C1535 H1521 0.961 . S
C1535 C1534 1.502 . S
C1536 H1522 0.960 . S
C1536 H1523 0.961 . S
C1536 H1524 0.959 . S
C1536 C1534 1.561 . S
C1537 C1534 1.526 . S
C1537 C1538 1.396 . S
C1537 C1542 1.390 . S
C1538 C1532 1.465 . S
C1538 C1537 1.396 . S
C1538 C1539 1.399 . S
C1539 H1525 0.929 . S
C1539 C1538 1.399 . S
C1539 C1540 1.385 . S
C1540 H1526 0.931 . S
C1540 C1539 1.385 . S
C1540 C1541 1.389 . S
C1541 C1540 1.389 . S
C1541 C1542 1.387 . S
C1542 H1527 0.930 . S
C1542 C1537 1.390 . S
C1542 C1541 1.387 . S
H1543 C1555 0.930 . S
H1544 C1557 0.930 . S
H1545 C1558 0.930 . S
H1546 C1562 0.959 . S
H1547 C1562 0.959 . S
H1548 C1562 0.961 . S
H1549 C1563 0.960 . S
H1550 C1563 0.961 . S
H1551 C1563 0.959 . S
H1552 C1566 0.929 . S
H1553 C1567 0.931 . S
H1554 C1569 0.930 . S
C1555 H1543 0.930 . S
C1555 C1556 1.399 . S
C1555 C1560 1.399 . S
C1556 C1555 1.399 . S
C1556 C1557 1.376 . S
C1557 H1544 0.930 . S
C1557 C1556 1.376 . S
C1557 C1558 1.388 . S
C1558 H1545 0.930 . S
C1558 C1557 1.388 . S
C1558 C1559 1.390 . S
C1559 C1558 1.390 . S
C1559 C1560 1.394 . S
C1559 C1565 1.465 . S
C1560 C1555 1.399 . S
C1560 C1559 1.394 . S
C1560 C1561 1.516 . S
C1561 C1560 1.516 . S
C1561 C1562 1.502 . S
C1561 C1563 1.561 . S
C1561 C1564 1.526 . S
C1562 H1546 0.959 . S
C1562 H1547 0.959 . S
C1562 H1548 0.961 . S
C1562 C1561 1.502 . S
C1563 H1549 0.960 . S
C1563 H1550 0.961 . S
C1563 H1551 0.959 . S
C1563 C1561 1.561 . S
C1564 C1561 1.526 . S
C1564 C1565 1.396 . S
C1564 C1569 1.390 . S
C1565 C1559 1.465 . S
C1565 C1564 1.396 . S
C1565 C1566 1.399 . S
C1566 H1552 0.929 . S
C1566 C1565 1.399 . S
C1566 C1567 1.385 . S
C1567 H1553 0.931 . S
C1567 C1566 1.385 . S
C1567 C1568 1.389 . S
C1568 C1567 1.389 . S
C1568 C1569 1.387 . S
C1569 H1554 0.930 . S
C1569 C1564 1.390 . S
C1569 C1568 1.387 . S
H1570 C1582 0.930 . S
H1571 C1584 0.930 . S
H1572 C1585 0.930 . S
H1573 C1589 0.959 . S
H1574 C1589 0.959 . S
H1575 C1589 0.961 . S
H1576 C1590 0.960 . S
H1577 C1590 0.961 . S
H1578 C1590 0.959 . S
H1579 C1593 0.929 . S
H1580 C1594 0.931 . S
H1581 C1596 0.930 . S
C1582 H1570 0.930 . S
C1582 C1583 1.399 . S
C1582 C1587 1.399 . S
C1583 C1582 1.399 . S
C1583 C1584 1.376 . S
C1584 H1571 0.930 . S
C1584 C1583 1.376 . S
C1584 C1585 1.388 . S
C1585 H1572 0.930 . S
C1585 C1584 1.388 . S
C1585 C1586 1.390 . S
C1586 C1585 1.390 . S
C1586 C1587 1.394 . S
C1586 C1592 1.465 . S
C1587 C1582 1.399 . S
C1587 C1586 1.394 . S
C1587 C1588 1.516 . S
C1588 C1587 1.516 . S
C1588 C1589 1.502 . S
C1588 C1590 1.561 . S
C1588 C1591 1.526 . S
C1589 H1573 0.959 . S
C1589 H1574 0.959 . S
C1589 H1575 0.961 . S
C1589 C1588 1.502 . S
C1590 H1576 0.960 . S
C1590 H1577 0.961 . S
C1590 H1578 0.959 . S
C1590 C1588 1.561 . S
C1591 C1588 1.526 . S
C1591 C1592 1.396 . S
C1591 C1596 1.390 . S
C1592 C1586 1.465 . S
C1592 C1591 1.396 . S
C1592 C1593 1.399 . S
C1593 H1579 0.929 . S
C1593 C1592 1.399 . S
C1593 C1594 1.385 . S
C1594 H1580 0.931 . S
C1594 C1593 1.385 . S
C1594 C1595 1.389 . S
C1595 C1594 1.389 . S
C1595 C1596 1.387 . S
C1596 H1581 0.930 . S
C1596 C1591 1.390 . S
C1596 C1595 1.387 . S
H1597 C1609 0.930 . S
H1598 C1611 0.930 . S
H1599 C1612 0.930 . S
H1600 C1616 0.959 . S
H1601 C1616 0.959 . S
H1602 C1616 0.961 . S
H1603 C1617 0.960 . S
H1604 C1617 0.961 . S
H1605 C1617 0.959 . S
H1606 C1620 0.929 . S
H1607 C1621 0.931 . S
H1608 C1623 0.930 . S
C1609 H1597 0.930 . S
C1609 C1610 1.399 . S
C1609 C1614 1.399 . S
C1610 C1609 1.399 . S
C1610 C1611 1.376 . S
C1611 H1598 0.930 . S
C1611 C1610 1.376 . S
C1611 C1612 1.388 . S
C1612 H1599 0.930 . S
C1612 C1611 1.388 . S
C1612 C1613 1.390 . S
C1613 C1612 1.390 . S
C1613 C1614 1.394 . S
C1613 C1619 1.465 . S
C1614 C1609 1.399 . S
C1614 C1613 1.394 . S
C1614 C1615 1.516 . S
C1615 C1614 1.516 . S
C1615 C1616 1.502 . S
C1615 C1617 1.561 . S
C1615 C1618 1.526 . S
C1616 H1600 0.959 . S
C1616 H1601 0.959 . S
C1616 H1602 0.961 . S
C1616 C1615 1.502 . S
C1617 H1603 0.960 . S
C1617 H1604 0.961 . S
C1617 H1605 0.959 . S
C1617 C1615 1.561 . S
C1618 C1615 1.526 . S
C1618 C1619 1.396 . S
C1618 C1623 1.390 . S
C1619 C1613 1.465 . S
C1619 C1618 1.396 . S
C1619 C1620 1.399 . S
C1620 H1606 0.929 . S
C1620 C1619 1.399 . S
C1620 C1621 1.385 . S
C1621 H1607 0.931 . S
C1621 C1620 1.385 . S
C1621 C1622 1.389 . S
C1622 C1621 1.389 . S
C1622 C1623 1.387 . S
C1623 H1608 0.930 . S
C1623 C1618 1.390 . S
C1623 C1622 1.387 . S
H1624 C1636 0.930 . S
H1625 C1638 0.930 . S
H1626 C1639 0.930 . S
H1627 C1643 0.959 . S
H1628 C1643 0.959 . S
H1629 C1643 0.961 . S
H1630 C1644 0.960 . S
H1631 C1644 0.961 . S
H1632 C1644 0.959 . S
H1633 C1647 0.929 . S
H1634 C1648 0.931 . S
H1635 C1650 0.930 . S
C1636 H1624 0.930 . S
C1636 C1637 1.399 . S
C1636 C1641 1.399 . S
C1637 C1636 1.399 . S
C1637 C1638 1.376 . S
C1638 H1625 0.930 . S
C1638 C1637 1.376 . S
C1638 C1639 1.388 . S
C1639 H1626 0.930 . S
C1639 C1638 1.388 . S
C1639 C1640 1.390 . S
C1640 C1639 1.390 . S
C1640 C1641 1.394 . S
C1640 C1646 1.465 . S
C1641 C1636 1.399 . S
C1641 C1640 1.394 . S
C1641 C1642 1.516 . S
C1642 C1641 1.516 . S
C1642 C1643 1.502 . S
C1642 C1644 1.561 . S
C1642 C1645 1.526 . S
C1643 H1627 0.959 . S
C1643 H1628 0.959 . S
C1643 H1629 0.961 . S
C1643 C1642 1.502 . S
C1644 H1630 0.960 . S
C1644 H1631 0.961 . S
C1644 H1632 0.959 . S
C1644 C1642 1.561 . S
C1645 C1642 1.526 . S
C1645 C1646 1.396 . S
C1645 C1650 1.390 . S
C1646 C1640 1.465 . S
C1646 C1645 1.396 . S
C1646 C1647 1.399 . S
C1647 H1633 0.929 . S
C1647 C1646 1.399 . S
C1647 C1648 1.385 . S
C1648 H1634 0.931 . S
C1648 C1647 1.385 . S
C1648 C1649 1.389 . S
C1649 C1648 1.389 . S
C1649 C1650 1.387 . S
C1650 H1635 0.930 . S
C1650 C1645 1.390 . S
C1650 C1649 1.387 . S
H1651 C1663 0.930 . S
H1652 C1665 0.930 . S
H1653 C1666 0.930 . S
H1654 C1670 0.959 . S
H1655 C1670 0.959 . S
H1656 C1670 0.961 . S
H1657 C1671 0.960 . S
H1658 C1671 0.961 . S
H1659 C1671 0.959 . S
H1660 C1674 0.929 . S
H1661 C1675 0.931 . S
H1662 C1677 0.930 . S
C1663 H1651 0.930 . S
C1663 C1664 1.399 . S
C1663 C1668 1.399 . S
C1664 C1663 1.399 . S
C1664 C1665 1.376 . S
C1665 H1652 0.930 . S
C1665 C1664 1.376 . S
C1665 C1666 1.388 . S
C1666 H1653 0.930 . S
C1666 C1665 1.388 . S
C1666 C1667 1.390 . S
C1667 C1666 1.390 . S
C1667 C1668 1.394 . S
C1667 C1673 1.465 . S
C1668 C1663 1.399 . S
C1668 C1667 1.394 . S
C1668 C1669 1.516 . S
C1669 C1668 1.516 . S
C1669 C1670 1.502 . S
C1669 C1671 1.561 . S
C1669 C1672 1.526 . S
C1670 H1654 0.959 . S
C1670 H1655 0.959 . S
C1670 H1656 0.961 . S
C1670 C1669 1.502 . S
C1671 H1657 0.960 . S
C1671 H1658 0.961 . S
C1671 H1659 0.959 . S
C1671 C1669 1.561 . S
C1672 C1669 1.526 . S
C1672 C1673 1.396 . S
C1672 C1677 1.390 . S
C1673 C1667 1.465 . S
C1673 C1672 1.396 . S
C1673 C1674 1.399 . S
C1674 H1660 0.929 . S
C1674 C1673 1.399 . S
C1674 C1675 1.385 . S
C1675 H1661 0.931 . S
C1675 C1674 1.385 . S
C1675 C1676 1.389 . S
C1676 C1675 1.389 . S
C1676 C1677 1.387 . S
C1677 H1662 0.930 . S
C1677 C1672 1.390 . S
C1677 C1676 1.387 . S
H1678 C1690 0.930 . S
H1679 C1692 0.930 . S
H1680 C1693 0.930 . S
H1681 C1697 0.959 . S
H1682 C1697 0.959 . S
H1683 C1697 0.961 . S
H1684 C1698 0.960 . S
H1685 C1698 0.961 . S
H1686 C1698 0.959 . S
H1687 C1701 0.929 . S
H1688 C1702 0.931 . S
H1689 C1704 0.930 . S
C1690 H1678 0.930 . S
C1690 C1691 1.399 . S
C1690 C1695 1.399 . S
C1691 C1690 1.399 . S
C1691 C1692 1.376 . S
C1692 H1679 0.930 . S
C1692 C1691 1.376 . S
C1692 C1693 1.388 . S
C1693 H1680 0.930 . S
C1693 C1692 1.388 . S
C1693 C1694 1.390 . S
C1694 C1693 1.390 . S
C1694 C1695 1.394 . S
C1694 C1700 1.465 . S
C1695 C1690 1.399 . S
C1695 C1694 1.394 . S
C1695 C1696 1.516 . S
C1696 C1695 1.516 . S
C1696 C1697 1.502 . S
C1696 C1698 1.561 . S
C1696 C1699 1.526 . S
C1697 H1681 0.959 . S
C1697 H1682 0.959 . S
C1697 H1683 0.961 . S
C1697 C1696 1.502 . S
C1698 H1684 0.960 . S
C1698 H1685 0.961 . S
C1698 H1686 0.959 . S
C1698 C1696 1.561 . S
C1699 C1696 1.526 . S
C1699 C1700 1.396 . S
C1699 C1704 1.390 . S
C1700 C1694 1.465 . S
C1700 C1699 1.396 . S
C1700 C1701 1.399 . S
C1701 H1687 0.929 . S
C1701 C1700 1.399 . S
C1701 C1702 1.385 . S
C1702 H1688 0.931 . S
C1702 C1701 1.385 . S
C1702 C1703 1.389 . S
C1703 C1702 1.389 . S
C1703 C1704 1.387 . S
C1704 H1689 0.930 . S
C1704 C1699 1.390 . S
C1704 C1703 1.387 . S
H1705 C1717 0.930 . S
H1706 C1719 0.930 . S
H1707 C1720 0.930 . S
H1708 C1724 0.959 . S
H1709 C1724 0.959 . S
H1710 C1724 0.961 . S
H1711 C1725 0.960 . S
H1712 C1725 0.961 . S
H1713 C1725 0.959 . S
H1714 C1728 0.929 . S
H1715 C1729 0.931 . S
H1716 C1731 0.930 . S
C1717 H1705 0.930 . S
C1717 C1718 1.399 . S
C1717 C1722 1.399 . S
C1718 C1717 1.399 . S
C1718 C1719 1.376 . S
C1719 H1706 0.930 . S
C1719 C1718 1.376 . S
C1719 C1720 1.388 . S
C1720 H1707 0.930 . S
C1720 C1719 1.388 . S
C1720 C1721 1.390 . S
C1721 C1720 1.390 . S
C1721 C1722 1.394 . S
C1721 C1727 1.465 . S
C1722 C1717 1.399 . S
C1722 C1721 1.394 . S
C1722 C1723 1.516 . S
C1723 C1722 1.516 . S
C1723 C1724 1.502 . S
C1723 C1725 1.561 . S
C1723 C1726 1.526 . S
C1724 H1708 0.959 . S
C1724 H1709 0.959 . S
C1724 H1710 0.961 . S
C1724 C1723 1.502 . S
C1725 H1711 0.960 . S
C1725 H1712 0.961 . S
C1725 H1713 0.959 . S
C1725 C1723 1.561 . S
C1726 C1723 1.526 . S
C1726 C1727 1.396 . S
C1726 C1731 1.390 . S
C1727 C1721 1.465 . S
C1727 C1726 1.396 . S
C1727 C1728 1.399 . S
C1728 H1714 0.929 . S
C1728 C1727 1.399 . S
C1728 C1729 1.385 . S
C1729 H1715 0.931 . S
C1729 C1728 1.385 . S
C1729 C1730 1.389 . S
C1730 C1729 1.389 . S
C1730 C1731 1.387 . S
C1731 H1716 0.930 . S
C1731 C1726 1.390 . S
C1731 C1730 1.387 . S
H1732 C1744 0.930 . S
H1733 C1746 0.930 . S
H1734 C1747 0.930 . S
H1735 C1751 0.959 . S
H1736 C1751 0.959 . S
H1737 C1751 0.961 . S
H1738 C1752 0.960 . S
H1739 C1752 0.961 . S
H1740 C1752 0.959 . S
H1741 C1755 0.929 . S
H1742 C1756 0.931 . S
H1743 C1758 0.930 . S
C1744 H1732 0.930 . S
C1744 C1745 1.399 . S
C1744 C1749 1.399 . S
C1745 C1744 1.399 . S
C1745 C1746 1.376 . S
C1746 H1733 0.930 . S
C1746 C1745 1.376 . S
C1746 C1747 1.388 . S
C1747 H1734 0.930 . S
C1747 C1746 1.388 . S
C1747 C1748 1.390 . S
C1748 C1747 1.390 . S
C1748 C1749 1.394 . S
C1748 C1754 1.465 . S
C1749 C1744 1.399 . S
C1749 C1748 1.394 . S
C1749 C1750 1.516 . S
C1750 C1749 1.516 . S
C1750 C1751 1.502 1_455 S
C1750 C1752 1.561 . S
C1750 C1753 1.526 . S
C1751 H1735 0.959 . S
C1751 H1736 0.959 . S
C1751 H1737 0.961 . S
C1751 C1750 1.502 1_655 S
C1752 H1738 0.960 . S
C1752 H1739 0.961 . S
C1752 H1740 0.959 . S
C1752 C1750 1.561 . S
C1753 C1750 1.526 . S
C1753 C1754 1.396 . S
C1753 C1758 1.390 . S
C1754 C1748 1.465 . S
C1754 C1753 1.396 . S
C1754 C1755 1.399 . S
C1755 H1741 0.929 . S
C1755 C1754 1.399 . S
C1755 C1756 1.385 . S
C1756 H1742 0.931 . S
C1756 C1755 1.385 . S
C1756 C1757 1.389 . S
C1757 C1756 1.389 . S
C1757 C1758 1.387 . S
C1758 H1743 0.930 . S
C1758 C1753 1.390 . S
C1758 C1757 1.387 . S
H1759 C1771 0.930 . S
H1760 C1773 0.930 . S
H1761 C1774 0.930 . S
H1762 C1778 0.959 . S
H1763 C1778 0.959 . S
H1764 C1778 0.961 . S
H1765 C1779 0.960 . S
H1766 C1779 0.961 . S
H1767 C1779 0.959 . S
H1768 C1782 0.929 . S
H1769 C1783 0.931 . S
H1770 C1785 0.930 . S
C1771 H1759 0.930 . S
C1771 C1772 1.399 . S
C1771 C1776 1.399 . S
C1772 C1771 1.399 . S
C1772 C1773 1.376 . S
C1773 H1760 0.930 . S
C1773 C1772 1.376 . S
C1773 C1774 1.388 . S
C1774 H1761 0.930 . S
C1774 C1773 1.388 . S
C1774 C1775 1.390 . S
C1775 C1774 1.390 . S
C1775 C1776 1.394 . S
C1775 C1781 1.465 . S
C1776 C1771 1.399 . S
C1776 C1775 1.394 . S
C1776 C1777 1.516 . S
C1777 C1776 1.516 . S
C1777 C1778 1.502 . S
C1777 C1779 1.561 . S
C1777 C1780 1.526 . S
C1778 H1762 0.959 . S
C1778 H1763 0.959 . S
C1778 H1764 0.961 . S
C1778 C1777 1.502 . S
C1779 H1765 0.960 . S
C1779 H1766 0.961 . S
C1779 H1767 0.959 . S
C1779 C1777 1.561 . S
C1780 C1777 1.526 . S
C1780 C1781 1.396 . S
C1780 C1785 1.390 . S
C1781 C1775 1.465 . S
C1781 C1780 1.396 . S
C1781 C1782 1.399 . S
C1782 H1768 0.929 . S
C1782 C1781 1.399 . S
C1782 C1783 1.385 . S
C1783 H1769 0.931 . S
C1783 C1782 1.385 . S
C1783 C1784 1.389 . S
C1784 C1783 1.389 . S
C1784 C1785 1.387 . S
C1785 H1770 0.930 . S
C1785 C1780 1.390 . S
C1785 C1784 1.387 . S
H1786 C1798 0.930 . S
H1787 C1800 0.930 . S
H1788 C1801 0.930 . S
H1789 C1805 0.959 . S
H1790 C1805 0.959 . S
H1791 C1805 0.961 . S
H1792 C1806 0.960 . S
H1793 C1806 0.961 . S
H1794 C1806 0.959 . S
H1795 C1809 0.917 1_554 S
H1796 C1810 0.931 . S
H1797 C1812 0.930 . S
C1798 H1786 0.930 . S
C1798 C1799 1.399 . S
C1798 C1803 1.399 . S
C1799 C1798 1.399 . S
C1799 C1800 1.376 . S
C1800 H1787 0.930 . S
C1800 C1799 1.376 . S
C1800 C1801 1.388 . S
C1801 H1788 0.930 . S
C1801 C1800 1.388 . S
C1801 C1802 1.390 . S
C1802 C1801 1.390 . S
C1802 C1803 1.394 . S
C1802 C1808 1.465 . S
C1803 C1798 1.399 . S
C1803 C1802 1.394 . S
C1803 C1804 1.516 . S
C1804 C1803 1.516 . S
C1804 C1805 1.502 . S
C1804 C1806 1.561 . S
C1804 C1807 1.526 . S
C1805 H1789 0.959 . S
C1805 H1790 0.959 . S
C1805 H1791 0.961 . S
C1805 C1804 1.502 . S
C1806 H1792 0.960 . S
C1806 H1793 0.961 . S
C1806 H1794 0.959 . S
C1806 C1804 1.561 . S
C1807 C1804 1.526 . S
C1807 C1808 1.396 . S
C1807 C1812 1.390 . S
C1808 C1802 1.465 . S
C1808 C1807 1.396 . S
C1808 C1809 1.416 . S
C1809 H1795 0.917 1_556 S
C1809 C1808 1.416 . S
C1809 C1810 1.381 1_556 S
C1810 H1796 0.931 . S
C1810 C1809 1.381 1_554 S
C1810 C1811 1.389 1_554 S
C1811 C1810 1.389 1_556 S
C1811 C1812 1.387 . S
C1812 H1797 0.930 . S
C1812 C1807 1.390 . S
C1812 C1811 1.387 . S
H1813 C1825 0.930 . S
H1814 C1827 0.930 . S
H1815 C1828 0.930 . S
H1816 C1832 0.959 . S
H1817 C1832 0.959 . S
H1818 C1832 0.961 . S
H1819 C1833 0.960 . S
H1820 C1833 0.961 . S
H1821 C1833 0.959 . S
H1822 C1836 0.929 . S
H1823 C1837 0.931 . S
H1824 C1839 0.930 . S
C1825 H1813 0.930 . S
C1825 C1826 1.399 . S
C1825 C1830 1.399 . S
C1826 C1825 1.399 . S
C1826 C1827 1.376 . S
C1827 H1814 0.930 . S
C1827 C1826 1.376 . S
C1827 C1828 1.388 . S
C1828 H1815 0.930 . S
C1828 C1827 1.388 . S
C1828 C1829 1.390 . S
C1829 C1828 1.390 . S
C1829 C1830 1.394 . S
C1829 C1835 1.465 . S
C1830 C1825 1.399 . S
C1830 C1829 1.394 . S
C1830 C1831 1.516 . S
C1831 C1830 1.516 . S
C1831 C1832 1.502 . S
C1831 C1833 1.561 . S
C1831 C1834 1.526 . S
C1832 H1816 0.959 . S
C1832 H1817 0.959 . S
C1832 H1818 0.961 . S
C1832 C1831 1.502 . S
C1833 H1819 0.960 . S
C1833 H1820 0.961 . S
C1833 H1821 0.959 . S
C1833 C1831 1.561 . S
C1834 C1831 1.526 . S
C1834 C1835 1.396 . S
C1834 C1839 1.390 . S
C1835 C1829 1.465 . S
C1835 C1834 1.396 . S
C1835 C1836 1.399 . S
C1836 H1822 0.929 . S
C1836 C1835 1.399 . S
C1836 C1837 1.385 . S
C1837 H1823 0.931 . S
C1837 C1836 1.385 . S
C1837 C1838 1.389 . S
C1838 C1837 1.389 . S
C1838 C1839 1.387 . S
C1839 H1824 0.930 . S
C1839 C1834 1.390 . S
C1839 C1838 1.387 . S
H1840 C1852 0.930 . S
H1841 C1854 0.930 . S
H1842 C1855 0.930 . S
H1843 C1859 0.959 . S
H1844 C1859 0.959 . S
H1845 C1859 0.961 . S
H1846 C1860 0.960 . S
H1847 C1860 0.961 . S
H1848 C1860 0.959 . S
H1849 C1863 0.929 . S
H1850 C1864 0.931 . S
H1851 C1866 0.930 . S
C1852 H1840 0.930 . S
C1852 C1853 1.399 . S
C1852 C1857 1.399 . S
C1853 C1852 1.399 . S
C1853 C1854 1.376 . S
C1854 H1841 0.930 . S
C1854 C1853 1.376 . S
C1854 C1855 1.388 . S
C1855 H1842 0.930 . S
C1855 C1854 1.388 . S
C1855 C1856 1.390 . S
C1856 C1855 1.390 . S
C1856 C1857 1.394 . S
C1856 C1862 1.465 . S
C1857 C1852 1.399 . S
C1857 C1856 1.394 . S
C1857 C1858 1.516 . S
C1858 C1857 1.516 . S
C1858 C1859 1.502 . S
C1858 C1860 1.561 . S
C1858 C1861 1.526 . S
C1859 H1843 0.959 . S
C1859 H1844 0.959 . S
C1859 H1845 0.961 . S
C1859 C1858 1.502 . S
C1860 H1846 0.960 . S
C1860 H1847 0.961 . S
C1860 H1848 0.959 . S
C1860 C1858 1.561 . S
C1861 C1858 1.526 . S
C1861 C1862 1.396 . S
C1861 C1866 1.390 . S
C1862 C1856 1.465 . S
C1862 C1861 1.396 . S
C1862 C1863 1.399 . S
C1863 H1849 0.929 . S
C1863 C1862 1.399 . S
C1863 C1864 1.385 . S
C1864 H1850 0.931 . S
C1864 C1863 1.385 . S
C1864 C1865 1.389 . S
C1865 C1864 1.389 . S
C1865 C1866 1.387 . S
C1866 H1851 0.930 . S
C1866 C1861 1.390 . S
C1866 C1865 1.387 . S
H1867 C1879 0.930 . S
H1868 C1881 0.930 . S
H1869 C1882 0.930 . S
H1870 C1886 0.959 . S
H1871 C1886 0.959 . S
H1872 C1886 0.961 . S
H1873 C1887 0.960 . S
H1874 C1887 0.961 . S
H1875 C1887 0.959 . S
H1876 C1890 0.929 . S
H1877 C1891 0.931 . S
H1878 C1893 0.930 . S
C1879 H1867 0.930 . S
C1879 C1880 1.399 . S
C1879 C1884 1.399 . S
C1880 C1879 1.399 . S
C1880 C1881 1.376 . S
C1881 H1868 0.930 . S
C1881 C1880 1.376 . S
C1881 C1882 1.388 . S
C1882 H1869 0.930 . S
C1882 C1881 1.388 . S
C1882 C1883 1.390 . S
C1883 C1882 1.390 . S
C1883 C1884 1.394 . S
C1883 C1889 1.465 . S
C1884 C1879 1.399 . S
C1884 C1883 1.394 . S
C1884 C1885 1.516 . S
C1885 C1884 1.516 . S
C1885 C1886 1.502 . S
C1885 C1887 1.561 . S
C1885 C1888 1.526 . S
C1886 H1870 0.959 . S
C1886 H1871 0.959 . S
C1886 H1872 0.961 . S
C1886 C1885 1.502 . S
C1887 H1873 0.960 . S
C1887 H1874 0.961 . S
C1887 H1875 0.959 . S
C1887 C1885 1.561 . S
C1888 C1885 1.526 . S
C1888 C1889 1.396 . S
C1888 C1893 1.390 . S
C1889 C1883 1.465 . S
C1889 C1888 1.396 . S
C1889 C1890 1.399 . S
C1890 H1876 0.929 . S
C1890 C1889 1.399 . S
C1890 C1891 1.385 . S
C1891 H1877 0.931 . S
C1891 C1890 1.385 . S
C1891 C1892 1.389 . S
C1892 C1891 1.389 . S
C1892 C1893 1.387 . S
C1893 H1878 0.930 . S
C1893 C1888 1.390 . S
C1893 C1892 1.387 . S
H1894 C1906 0.930 . S
H1895 C1908 0.930 . S
H1896 C1909 0.930 . S
H1897 C1913 0.959 . S
H1898 C1913 0.959 . S
H1899 C1913 0.961 . S
H1900 C1914 0.960 . S
H1901 C1914 0.961 . S
H1902 C1914 0.959 . S
H1903 C1917 0.929 . S
H1904 C1918 0.931 . S
H1905 C1920 0.930 . S
C1906 H1894 0.930 . S
C1906 C1907 1.399 . S
C1906 C1911 1.399 . S
C1907 C1906 1.399 . S
C1907 C1908 1.376 . S
C1908 H1895 0.930 . S
C1908 C1907 1.376 . S
C1908 C1909 1.388 . S
C1909 H1896 0.930 . S
C1909 C1908 1.388 . S
C1909 C1910 1.390 . S
C1910 C1909 1.390 . S
C1910 C1911 1.394 . S
C1910 C1916 1.465 . S
C1911 C1906 1.399 . S
C1911 C1910 1.394 . S
C1911 C1912 1.516 . S
C1912 C1911 1.516 . S
C1912 C1913 1.502 . S
C1912 C1914 1.561 . S
C1912 C1915 1.526 . S
C1913 H1897 0.959 . S
C1913 H1898 0.959 . S
C1913 H1899 0.961 . S
C1913 C1912 1.502 . S
C1914 H1900 0.960 . S
C1914 H1901 0.961 . S
C1914 H1902 0.959 . S
C1914 C1912 1.561 . S
C1915 C1912 1.526 . S
C1915 C1916 1.396 . S
C1915 C1920 1.390 . S
C1916 C1910 1.465 . S
C1916 C1915 1.396 . S
C1916 C1917 1.399 . S
C1917 H1903 0.929 . S
C1917 C1916 1.399 . S
C1917 C1918 1.385 . S
C1918 H1904 0.931 . S
C1918 C1917 1.385 . S
C1918 C1919 1.389 . S
C1919 C1918 1.389 . S
C1919 C1920 1.387 . S
C1920 H1905 0.930 . S
C1920 C1915 1.390 . S
C1920 C1919 1.387 . S
H1921 C1933 0.930 . S
H1922 C1935 0.930 . S
H1923 C1936 0.930 . S
H1924 C1940 0.959 . S
H1925 C1940 0.959 . S
H1926 C1940 0.961 . S
H1927 C1941 0.960 . S
H1928 C1941 0.961 . S
H1929 C1941 0.959 . S
H1930 C1944 0.929 . S
H1931 C1945 0.931 . S
H1932 C1947 0.930 . S
C1933 H1921 0.930 . S
C1933 C1934 1.399 . S
C1933 C1938 1.399 . S
C1934 C1933 1.399 . S
C1934 C1935 1.376 . S
C1935 H1922 0.930 . S
C1935 C1934 1.376 . S
C1935 C1936 1.388 . S
C1936 H1923 0.930 . S
C1936 C1935 1.388 . S
C1936 C1937 1.390 . S
C1937 C1936 1.390 . S
C1937 C1938 1.394 . S
C1937 C1943 1.465 . S
C1938 C1933 1.399 . S
C1938 C1937 1.394 . S
C1938 C1939 1.516 . S
C1939 C1938 1.516 . S
C1939 C1940 1.502 . S
C1939 C1941 1.561 . S
C1939 C1942 1.526 . S
C1940 H1924 0.959 . S
C1940 H1925 0.959 . S
C1940 H1926 0.961 . S
C1940 C1939 1.502 . S
C1941 H1927 0.960 . S
C1941 H1928 0.961 . S
C1941 H1929 0.959 . S
C1941 C1939 1.561 . S
C1942 C1939 1.526 . S
C1942 C1943 1.396 . S
C1942 C1947 1.390 . S
C1943 C1937 1.465 . S
C1943 C1942 1.396 . S
C1943 C1944 1.399 . S
C1944 H1930 0.929 . S
C1944 C1943 1.399 . S
C1944 C1945 1.385 . S
C1945 H1931 0.931 . S
C1945 C1944 1.385 . S
C1945 C1946 1.389 . S
C1946 C1945 1.389 . S
C1946 C1947 1.387 . S
C1947 H1932 0.930 . S
C1947 C1942 1.390 . S
C1947 C1946 1.387 . S
H1948 C1960 0.930 . S
H1949 C1962 0.930 . S
H1950 C1963 0.930 . S
H1951 C1967 0.959 . S
H1952 C1967 0.959 . S
H1953 C1967 0.961 . S
H1954 C1968 0.960 . S
H1955 C1968 0.961 . S
H1956 C1968 0.959 . S
H1957 C1971 0.929 . S
H1958 C1972 0.931 . S
H1959 C1974 0.930 . S
C1960 H1948 0.930 . S
C1960 C1961 1.399 . S
C1960 C1965 1.399 . S
C1961 C1960 1.399 . S
C1961 C1962 1.376 . S
C1962 H1949 0.930 . S
C1962 C1961 1.376 . S
C1962 C1963 1.388 . S
C1963 H1950 0.930 . S
C1963 C1962 1.388 . S
C1963 C1964 1.390 . S
C1964 C1963 1.390 . S
C1964 C1965 1.394 . S
C1964 C1970 1.465 . S
C1965 C1960 1.399 . S
C1965 C1964 1.394 . S
C1965 C1966 1.516 . S
C1966 C1965 1.516 . S
C1966 C1967 1.502 . S
C1966 C1968 1.561 . S
C1966 C1969 1.526 . S
C1967 H1951 0.959 . S
C1967 H1952 0.959 . S
C1967 H1953 0.961 . S
C1967 C1966 1.502 . S
C1968 H1954 0.960 . S
C1968 H1955 0.961 . S
C1968 H1956 0.959 . S
C1968 C1966 1.561 . S
C1969 C1966 1.526 . S
C1969 C1970 1.396 . S
C1969 C1974 1.390 . S
C1970 C1964 1.465 . S
C1970 C1969 1.396 . S
C1970 C1971 1.399 . S
C1971 H1957 0.929 . S
C1971 C1970 1.399 . S
C1971 C1972 1.385 . S
C1972 H1958 0.931 . S
C1972 C1971 1.385 . S
C1972 C1973 1.389 . S
C1973 C1972 1.389 . S
C1973 C1974 1.387 . S
C1974 H1959 0.930 . S
C1974 C1969 1.390 . S
C1974 C1973 1.387 . S
H1975 C1987 0.930 . S
H1976 C1989 0.930 . S
H1977 C1990 0.930 . S
H1978 C1994 0.959 . S
H1979 C1994 0.959 . S
H1980 C1994 0.961 . S
H1981 C1995 0.960 . S
H1982 C1995 0.961 . S
H1983 C1995 0.959 . S
H1984 C1998 0.929 . S
H1985 C1999 0.931 . S
H1986 C2001 0.930 . S
C1987 H1975 0.930 . S
C1987 C1988 1.399 . S
C1987 C1992 1.399 . S
C1988 C1987 1.399 . S
C1988 C1989 1.376 . S
C1989 H1976 0.930 . S
C1989 C1988 1.376 . S
C1989 C1990 1.388 . S
C1990 H1977 0.930 . S
C1990 C1989 1.388 . S
C1990 C1991 1.390 . S
C1991 C1990 1.390 . S
C1991 C1992 1.394 . S
C1991 C1997 1.465 . S
C1992 C1987 1.399 . S
C1992 C1991 1.394 . S
C1992 C1993 1.516 . S
C1993 C1992 1.516 . S
C1993 C1994 1.502 . S
C1993 C1995 1.561 . S
C1993 C1996 1.526 . S
C1994 H1978 0.959 . S
C1994 H1979 0.959 . S
C1994 H1980 0.961 . S
C1994 C1993 1.502 . S
C1995 H1981 0.960 . S
C1995 H1982 0.961 . S
C1995 H1983 0.959 . S
C1995 C1993 1.561 . S
C1996 C1993 1.526 . S
C1996 C1997 1.396 . S
C1996 C2001 1.390 . S
C1997 C1991 1.465 . S
C1997 C1996 1.396 . S
C1997 C1998 1.399 . S
C1998 H1984 0.929 . S
C1998 C1997 1.399 . S
C1998 C1999 1.385 . S
C1999 H1985 0.931 . S
C1999 C1998 1.385 . S
C1999 C2000 1.389 . S
C2000 C1999 1.389 . S
C2000 C2001 1.387 . S
C2001 H1986 0.930 . S
C2001 C1996 1.390 . S
C2001 C2000 1.387 . S
H2002 C2014 0.930 . S
H2003 C2016 0.930 . S
H2004 C2017 0.930 . S
H2005 C2021 0.959 . S
H2006 C2021 0.959 . S
H2007 C2021 0.961 . S
H2008 C2022 0.960 . S
H2009 C2022 0.961 . S
H2010 C2022 0.959 . S
H2011 C2025 0.929 . S
H2012 C2026 0.931 1_565 S
H2013 C2028 0.930 . S
C2014 H2002 0.930 . S
C2014 C2015 1.399 . S
C2014 C2019 1.399 . S
C2015 C2014 1.399 . S
C2015 C2016 1.376 . S
C2016 H2003 0.930 . S
C2016 C2015 1.376 . S
C2016 C2017 1.388 . S
C2017 H2004 0.930 . S
C2017 C2016 1.388 . S
C2017 C2018 1.390 . S
C2018 C2017 1.390 . S
C2018 C2019 1.394 . S
C2018 C2024 1.465 . S
C2019 C2014 1.399 . S
C2019 C2018 1.394 . S
C2019 C2020 1.516 . S
C2020 C2019 1.516 . S
C2020 C2021 1.502 . S
C2020 C2022 1.561 . S
C2020 C2023 1.526 . S
C2021 H2005 0.959 . S
C2021 H2006 0.959 . S
C2021 H2007 0.961 . S
C2021 C2020 1.502 . S
C2022 H2008 0.960 . S
C2022 H2009 0.961 . S
C2022 H2010 0.959 . S
C2022 C2020 1.561 . S
C2023 C2020 1.526 . S
C2023 C2024 1.396 . S
C2023 C2028 1.390 . S
C2024 C2018 1.465 . S
C2024 C2023 1.396 . S
C2024 C2025 1.399 . S
C2025 H2011 0.929 . S
C2025 C2024 1.399 . S
C2025 C2026 1.385 . S
C2026 H2012 0.931 1_545 S
C2026 C2025 1.385 . S
C2026 C2027 1.389 . S
C2027 C2026 1.389 . S
C2027 C2028 1.387 . S
C2028 H2013 0.930 . S
C2028 C2023 1.390 . S
C2028 C2027 1.387 . S
H2029 C2041 0.930 . S
H2030 C2043 0.930 . S
H2031 C2044 0.930 . S
H2032 C2048 0.959 . S
H2033 C2048 0.959 . S
H2034 C2048 0.961 . S
H2035 C2049 0.960 . S
H2036 C2049 0.961 . S
H2037 C2049 0.959 . S
H2038 C2052 0.929 . S
H2039 C2053 0.931 . S
H2040 C2055 0.930 . S
C2041 H2029 0.930 . S
C2041 C2042 1.399 . S
C2041 C2046 1.399 . S
C2042 C2041 1.399 . S
C2042 C2043 1.376 . S
C2043 H2030 0.930 . S
C2043 C2042 1.376 . S
C2043 C2044 1.388 . S
C2044 H2031 0.930 . S
C2044 C2043 1.388 . S
C2044 C2045 1.390 . S
C2045 C2044 1.390 . S
C2045 C2046 1.394 . S
C2045 C2051 1.465 . S
C2046 C2041 1.399 . S
C2046 C2045 1.394 . S
C2046 C2047 1.516 . S
C2047 C2046 1.516 . S
C2047 C2048 1.502 . S
C2047 C2049 1.561 . S
C2047 C2050 1.526 . S
C2048 H2032 0.959 . S
C2048 H2033 0.959 . S
C2048 H2034 0.961 . S
C2048 C2047 1.502 . S
C2049 H2035 0.960 . S
C2049 H2036 0.961 . S
C2049 H2037 0.959 . S
C2049 C2047 1.561 . S
C2050 C2047 1.526 . S
C2050 C2051 1.396 . S
C2050 C2055 1.390 . S
C2051 C2045 1.465 . S
C2051 C2050 1.396 . S
C2051 C2052 1.399 . S
C2052 H2038 0.929 . S
C2052 C2051 1.399 . S
C2052 C2053 1.385 . S
C2053 H2039 0.931 . S
C2053 C2052 1.385 . S
C2053 C2054 1.389 . S
C2054 C2053 1.389 . S
C2054 C2055 1.387 . S
C2055 H2040 0.930 . S
C2055 C2050 1.390 . S
C2055 C2054 1.387 . S
H2056 C2068 0.930 . S
H2057 C2070 0.930 . S
H2058 C2071 0.930 . S
H2059 C2075 0.959 . S
H2060 C2075 0.959 . S
H2061 C2075 0.961 . S
H2062 C2076 0.960 . S
H2063 C2076 0.961 . S
H2064 C2076 0.959 . S
H2065 C2079 0.929 . S
H2066 C2080 0.931 1_554 S
H2067 C2082 0.930 . S
C2068 H2056 0.930 . S
C2068 C2069 1.399 1_556 S
C2068 C2073 1.399 . S
C2069 C2068 1.399 1_554 S
C2069 C2070 1.376 . S
C2070 H2057 0.930 . S
C2070 C2069 1.376 . S
C2070 C2071 1.388 . S
C2071 H2058 0.930 . S
C2071 C2070 1.388 . S
C2071 C2072 1.356 1_554 S
C2072 C2071 1.356 1_556 S
C2072 C2073 1.424 . S
C2072 C2078 1.477 . S
C2073 C2068 1.399 . S
C2073 C2072 1.424 . S
C2073 C2074 1.516 . S
C2074 C2073 1.516 . S
C2074 C2075 1.502 . S
C2074 C2076 1.561 . S
C2074 C2077 1.526 . S
C2075 H2059 0.959 . S
C2075 H2060 0.959 . S
C2075 H2061 0.961 . S
C2075 C2074 1.502 . S
C2076 H2062 0.960 . S
C2076 H2063 0.961 . S
C2076 H2064 0.959 . S
C2076 C2074 1.561 . S
C2077 C2074 1.526 . S
C2077 C2078 1.396 . S
C2077 C2082 1.390 . S
C2078 C2072 1.477 . S
C2078 C2077 1.396 . S
C2078 C2079 1.399 1_556 S
C2079 H2065 0.929 . S
C2079 C2078 1.399 1_554 S
C2079 C2080 1.385 1_554 S
C2080 H2066 0.931 1_556 S
C2080 C2079 1.385 1_556 S
C2080 C2081 1.389 . S
C2081 C2080 1.389 . S
C2081 C2082 1.387 . S
C2082 H2067 0.930 . S
C2082 C2077 1.390 . S
C2082 C2081 1.387 . S
H2083 C2095 0.930 . S
H2084 C2097 0.930 . S
H2085 C2098 0.930 1_556 S
H2086 C2102 0.959 . S
H2087 C2102 0.959 . S
H2088 C2102 0.961 . S
H2089 C2103 0.960 . S
H2090 C2103 0.961 . S
H2091 C2103 0.959 . S
H2092 C2106 0.929 1_556 S
H2093 C2107 0.931 1_556 S
H2094 C2109 0.930 . S
C2095 H2083 0.930 . S
C2095 C2096 1.399 . S
C2095 C2100 1.399 . S
C2096 C2095 1.399 . S
C2096 C2097 1.376 . S
C2097 H2084 0.930 . S
C2097 C2096 1.376 . S
C2097 C2098 1.388 . S
C2098 H2085 0.930 1_554 S
C2098 C2097 1.388 . S
C2098 C2099 1.390 . S
C2099 C2098 1.390 . S
C2099 C2100 1.394 . S
C2099 C2105 1.465 . S
C2100 C2095 1.399 . S
C2100 C2099 1.394 . S
C2100 C2101 1.516 . S
C2101 C2100 1.516 . S
C2101 C2102 1.502 . S
C2101 C2103 1.561 . S
C2101 C2104 1.526 . S
C2102 H2086 0.959 . S
C2102 H2087 0.959 . S
C2102 H2088 0.961 . S
C2102 C2101 1.502 . S
C2103 H2089 0.960 . S
C2103 H2090 0.961 . S
C2103 H2091 0.959 . S
C2103 C2101 1.561 . S
C2104 C2101 1.526 . S
C2104 C2105 1.396 . S
C2104 C2109 1.390 . S
C2105 C2099 1.465 . S
C2105 C2104 1.396 . S
C2105 C2106 1.399 . S
C2106 H2092 0.929 1_554 S
C2106 C2105 1.399 . S
C2106 C2107 1.385 . S
C2107 H2093 0.931 1_554 S
C2107 C2106 1.385 . S
C2107 C2108 1.389 . S
C2108 C2107 1.389 . S
C2108 C2109 1.387 . S
C2109 H2094 0.930 . S
C2109 C2104 1.390 . S
C2109 C2108 1.387 . S
H2110 C2122 0.930 . S
H2111 C2124 0.930 . S
H2112 C2125 0.930 . S
H2113 C2129 0.959 . S
H2114 C2129 0.959 . S
H2115 C2129 0.961 . S
H2116 C2130 0.960 . S
H2117 C2130 0.961 . S
H2118 C2130 0.959 . S
H2119 C2133 0.929 . S
H2120 C2134 0.931 . S
H2121 C2136 0.930 . S
C2122 H2110 0.930 . S
C2122 C2123 1.399 . S
C2122 C2127 1.399 . S
C2123 C2122 1.399 . S
C2123 C2124 1.376 . S
C2124 H2111 0.930 . S
C2124 C2123 1.376 . S
C2124 C2125 1.388 . S
C2125 H2112 0.930 . S
C2125 C2124 1.388 . S
C2125 C2126 1.390 . S
C2126 C2125 1.390 . S
C2126 C2127 1.394 . S
C2126 C2132 1.465 . S
C2127 C2122 1.399 . S
C2127 C2126 1.394 . S
C2127 C2128 1.516 . S
C2128 C2127 1.516 . S
C2128 C2129 1.502 . S
C2128 C2130 1.561 . S
C2128 C2131 1.526 . S
C2129 H2113 0.959 . S
C2129 H2114 0.959 . S
C2129 H2115 0.961 . S
C2129 C2128 1.502 . S
C2130 H2116 0.960 . S
C2130 H2117 0.961 . S
C2130 H2118 0.959 . S
C2130 C2128 1.561 . S
C2131 C2128 1.526 . S
C2131 C2132 1.396 . S
C2131 C2136 1.390 . S
C2132 C2126 1.465 . S
C2132 C2131 1.396 . S
C2132 C2133 1.399 . S
C2133 H2119 0.929 . S
C2133 C2132 1.399 . S
C2133 C2134 1.385 . S
C2134 H2120 0.931 . S
C2134 C2133 1.385 . S
C2134 C2135 1.389 . S
C2135 C2134 1.389 . S
C2135 C2136 1.387 . S
C2136 H2121 0.930 . S
C2136 C2131 1.390 . S
C2136 C2135 1.387 . S
H2137 C2149 0.930 . S
H2138 C2151 0.930 . S
H2139 C2152 0.930 . S
H2140 C2156 0.959 . S
H2141 C2156 0.959 . S
H2142 C2156 0.961 . S
H2143 C2157 0.960 . S
H2144 C2157 0.961 . S
H2145 C2157 0.959 . S
H2146 C2160 0.929 . S
H2147 C2161 0.931 . S
H2148 C2163 0.930 . S
C2149 H2137 0.930 . S
C2149 C2150 1.399 . S
C2149 C2154 1.399 . S
C2150 C2149 1.399 . S
C2150 C2151 1.376 . S
C2151 H2138 0.930 . S
C2151 C2150 1.376 . S
C2151 C2152 1.388 . S
C2152 H2139 0.930 . S
C2152 C2151 1.388 . S
C2152 C2153 1.390 . S
C2153 C2152 1.390 . S
C2153 C2154 1.394 . S
C2153 C2159 1.465 . S
C2154 C2149 1.399 . S
C2154 C2153 1.394 . S
C2154 C2155 1.516 . S
C2155 C2154 1.516 . S
C2155 C2156 1.502 . S
C2155 C2157 1.561 . S
C2155 C2158 1.526 . S
C2156 H2140 0.959 . S
C2156 H2141 0.959 . S
C2156 H2142 0.961 . S
C2156 C2155 1.502 . S
C2157 H2143 0.960 . S
C2157 H2144 0.961 . S
C2157 H2145 0.959 . S
C2157 C2155 1.561 . S
C2158 C2155 1.526 . S
C2158 C2159 1.396 . S
C2158 C2163 1.390 . S
C2159 C2153 1.465 . S
C2159 C2158 1.396 . S
C2159 C2160 1.399 . S
C2160 H2146 0.929 . S
C2160 C2159 1.399 . S
C2160 C2161 1.385 . S
C2161 H2147 0.931 . S
C2161 C2160 1.385 . S
C2161 C2162 1.389 . S
C2162 C2161 1.389 . S
C2162 C2163 1.387 . S
C2163 H2148 0.930 . S
C2163 C2158 1.390 . S
C2163 C2162 1.387 . S
H2164 C2176 0.930 . S
H2165 C2178 0.930 . S
H2166 C2179 0.930 . S
H2167 C2183 0.959 . S
H2168 C2183 0.959 . S
H2169 C2183 0.961 . S
H2170 C2184 0.960 . S
H2171 C2184 0.961 . S
H2172 C2184 0.959 . S
H2173 C2187 0.929 . S
H2174 C2188 0.931 . S
H2175 C2190 0.930 . S
C2176 H2164 0.930 . S
C2176 C2177 1.399 . S
C2176 C2181 1.399 . S
C2177 C2176 1.399 . S
C2177 C2178 1.376 . S
C2178 H2165 0.930 . S
C2178 C2177 1.376 . S
C2178 C2179 1.388 . S
C2179 H2166 0.930 . S
C2179 C2178 1.388 . S
C2179 C2180 1.390 . S
C2180 C2179 1.390 . S
C2180 C2181 1.394 . S
C2180 C2186 1.465 . S
C2181 C2176 1.399 . S
C2181 C2180 1.394 . S
C2181 C2182 1.516 . S
C2182 C2181 1.516 . S
C2182 C2183 1.502 . S
C2182 C2184 1.561 . S
C2182 C2185 1.526 . S
C2183 H2167 0.959 . S
C2183 H2168 0.959 . S
C2183 H2169 0.961 . S
C2183 C2182 1.502 . S
C2184 H2170 0.960 . S
C2184 H2171 0.961 . S
C2184 H2172 0.959 . S
C2184 C2182 1.561 . S
C2185 C2182 1.526 . S
C2185 C2186 1.396 . S
C2185 C2190 1.390 . S
C2186 C2180 1.465 . S
C2186 C2185 1.396 . S
C2186 C2187 1.399 . S
C2187 H2173 0.929 . S
C2187 C2186 1.399 . S
C2187 C2188 1.385 . S
C2188 H2174 0.931 . S
C2188 C2187 1.385 . S
C2188 C2189 1.389 . S
C2189 C2188 1.389 . S
C2189 C2190 1.387 . S
C2190 H2175 0.930 . S
C2190 C2185 1.390 . S
C2190 C2189 1.387 . S
H2191 C2203 0.930 . S
H2192 C2205 0.930 . S
H2193 C2206 0.930 . S
H2194 C2210 0.959 . S
H2195 C2210 0.959 . S
H2196 C2210 0.961 . S
H2197 C2211 0.960 . S
H2198 C2211 0.961 . S
H2199 C2211 0.959 . S
H2200 C2214 0.929 . S
H2201 C2215 0.931 1_545 S
H2202 C2217 0.930 . S
C2203 H2191 0.930 . S
C2203 C2204 1.399 . S
C2203 C2208 1.399 . S
C2204 C2203 1.399 . S
C2204 C2205 1.376 . S
C2205 H2192 0.930 . S
C2205 C2204 1.376 . S
C2205 C2206 1.388 . S
C2206 H2193 0.930 . S
C2206 C2205 1.388 . S
C2206 C2207 1.390 . S
C2207 C2206 1.390 . S
C2207 C2208 1.394 . S
C2207 C2213 1.465 . S
C2208 C2203 1.399 . S
C2208 C2207 1.394 . S
C2208 C2209 1.516 . S
C2209 C2208 1.516 . S
C2209 C2210 1.502 . S
C2209 C2211 1.561 . S
C2209 C2212 1.526 . S
C2210 H2194 0.959 . S
C2210 H2195 0.959 . S
C2210 H2196 0.961 . S
C2210 C2209 1.502 . S
C2211 H2197 0.960 . S
C2211 H2198 0.961 . S
C2211 H2199 0.959 . S
C2211 C2209 1.561 . S
C2212 C2209 1.526 . S
C2212 C2213 1.396 . S
C2212 C2217 1.390 . S
C2213 C2207 1.465 . S
C2213 C2212 1.396 . S
C2213 C2214 1.399 . S
C2214 H2200 0.929 . S
C2214 C2213 1.399 . S
C2214 C2215 1.385 . S
C2215 H2201 0.931 1_565 S
C2215 C2214 1.385 . S
C2215 C2216 1.389 . S
C2216 C2215 1.389 . S
C2216 C2217 1.387 . S
C2217 H2202 0.930 . S
C2217 C2212 1.390 . S
C2217 C2216 1.387 . S
H2218 C2230 0.930 . S
H2219 C2232 0.930 . S
H2220 C2233 0.930 . S
H2221 C2237 0.959 . S
H2222 C2237 0.959 . S
H2223 C2237 0.961 . S
H2224 C2238 0.960 . S
H2225 C2238 0.961 . S
H2226 C2238 0.959 . S
H2227 C2241 0.929 . S
H2228 C2242 0.931 . S
H2229 C2244 0.930 . S
C2230 H2218 0.930 . S
C2230 C2231 1.399 . S
C2230 C2235 1.399 . S
C2231 C2230 1.399 . S
C2231 C2232 1.376 . S
C2232 H2219 0.930 . S
C2232 C2231 1.376 . S
C2232 C2233 1.388 . S
C2233 H2220 0.930 . S
C2233 C2232 1.388 . S
C2233 C2234 1.390 . S
C2234 C2233 1.390 . S
C2234 C2235 1.394 . S
C2234 C2240 1.465 . S
C2235 C2230 1.399 . S
C2235 C2234 1.394 . S
C2235 C2236 1.516 . S
C2236 C2235 1.516 . S
C2236 C2237 1.502 . S
C2236 C2238 1.561 . S
C2236 C2239 1.526 . S
C2237 H2221 0.959 . S
C2237 H2222 0.959 . S
C2237 H2223 0.961 . S
C2237 C2236 1.502 . S
C2238 H2224 0.960 . S
C2238 H2225 0.961 . S
C2238 H2226 0.959 . S
C2238 C2236 1.561 . S
C2239 C2236 1.526 . S
C2239 C2240 1.396 . S
C2239 C2244 1.390 . S
C2240 C2234 1.465 . S
C2240 C2239 1.396 . S
C2240 C2241 1.399 . S
C2241 H2227 0.929 . S
C2241 C2240 1.399 . S
C2241 C2242 1.385 . S
C2242 H2228 0.931 . S
C2242 C2241 1.385 . S
C2242 C2243 1.389 . S
C2243 C2242 1.389 . S
C2243 C2244 1.387 . S
C2244 H2229 0.930 . S
C2244 C2239 1.390 . S
C2244 C2243 1.387 . S
H2245 C2257 0.930 . S
H2246 C2259 0.930 . S
H2247 C2260 0.930 . S
H2248 C2264 0.959 . S
H2249 C2264 0.959 . S
H2250 C2264 0.961 . S
H2251 C2265 0.960 . S
H2252 C2265 0.961 . S
H2253 C2265 0.959 . S
H2254 C2268 0.929 . S
H2255 C2269 0.931 . S
H2256 C2271 0.930 . S
C2257 H2245 0.930 . S
C2257 C2258 1.399 . S
C2257 C2262 1.399 . S
C2258 C2257 1.399 . S
C2258 C2259 1.376 . S
C2259 H2246 0.930 . S
C2259 C2258 1.376 . S
C2259 C2260 1.388 . S
C2260 H2247 0.930 . S
C2260 C2259 1.388 . S
C2260 C2261 1.390 . S
C2261 C2260 1.390 . S
C2261 C2262 1.394 . S
C2261 C2267 1.465 . S
C2262 C2257 1.399 . S
C2262 C2261 1.394 . S
C2262 C2263 1.516 . S
C2263 C2262 1.516 . S
C2263 C2264 1.502 . S
C2263 C2265 1.561 . S
C2263 C2266 1.526 . S
C2264 H2248 0.959 . S
C2264 H2249 0.959 . S
C2264 H2250 0.961 . S
C2264 C2263 1.502 . S
C2265 H2251 0.960 . S
C2265 H2252 0.961 . S
C2265 H2253 0.959 . S
C2265 C2263 1.561 . S
C2266 C2263 1.526 . S
C2266 C2267 1.396 . S
C2266 C2271 1.390 . S
C2267 C2261 1.465 . S
C2267 C2266 1.396 . S
C2267 C2268 1.399 . S
C2268 H2254 0.929 . S
C2268 C2267 1.399 . S
C2268 C2269 1.385 . S
C2269 H2255 0.931 . S
C2269 C2268 1.385 . S
C2269 C2270 1.389 . S
C2270 C2269 1.389 . S
C2270 C2271 1.387 . S
C2271 H2256 0.930 . S
C2271 C2266 1.390 . S
C2271 C2270 1.387 . S
H2272 C2284 0.930 . S
H2273 C2286 0.930 . S
H2274 C2287 0.930 . S
H2275 C2291 0.959 . S
H2276 C2291 0.959 . S
H2277 C2291 0.961 . S
H2278 C2292 0.960 . S
H2279 C2292 0.961 . S
H2280 C2292 0.959 . S
H2281 C2295 0.929 . S
H2282 C2296 0.931 . S
H2283 C2298 0.930 . S
C2284 H2272 0.930 . S
C2284 C2285 1.399 . S
C2284 C2289 1.399 . S
C2285 C2284 1.399 . S
C2285 C2286 1.376 . S
C2286 H2273 0.930 . S
C2286 C2285 1.376 . S
C2286 C2287 1.388 . S
C2287 H2274 0.930 . S
C2287 C2286 1.388 . S
C2287 C2288 1.390 . S
C2288 C2287 1.390 . S
C2288 C2289 1.394 . S
C2288 C2294 1.465 . S
C2289 C2284 1.399 . S
C2289 C2288 1.394 . S
C2289 C2290 1.516 . S
C2290 C2289 1.516 . S
C2290 C2291 1.502 . S
C2290 C2292 1.561 . S
C2290 C2293 1.526 . S
C2291 H2275 0.959 . S
C2291 H2276 0.959 . S
C2291 H2277 0.961 . S
C2291 C2290 1.502 . S
C2292 H2278 0.960 . S
C2292 H2279 0.961 . S
C2292 H2280 0.959 . S
C2292 C2290 1.561 . S
C2293 C2290 1.526 . S
C2293 C2294 1.396 . S
C2293 C2298 1.390 . S
C2294 C2288 1.465 . S
C2294 C2293 1.396 . S
C2294 C2295 1.399 . S
C2295 H2281 0.929 . S
C2295 C2294 1.399 . S
C2295 C2296 1.385 . S
C2296 H2282 0.931 . S
C2296 C2295 1.385 . S
C2296 C2297 1.389 . S
C2297 C2296 1.389 . S
C2297 C2298 1.387 . S
C2298 H2283 0.930 . S
C2298 C2293 1.390 . S
C2298 C2297 1.387 . S
H2299 C2311 0.930 . S
H2300 C2313 0.930 . S
H2301 C2314 0.930 . S
H2302 C2318 0.959 . S
H2303 C2318 0.959 . S
H2304 C2318 0.961 . S
H2305 C2319 0.960 . S
H2306 C2319 0.961 . S
H2307 C2319 0.959 . S
H2308 C2322 0.929 . S
H2309 C2323 0.931 . S
H2310 C2325 0.930 . S
C2311 H2299 0.930 . S
C2311 C2312 1.399 . S
C2311 C2316 1.399 . S
C2312 C2311 1.399 . S
C2312 C2313 1.376 . S
C2313 H2300 0.930 . S
C2313 C2312 1.376 . S
C2313 C2314 1.388 . S
C2314 H2301 0.930 . S
C2314 C2313 1.388 . S
C2314 C2315 1.390 . S
C2315 C2314 1.390 . S
C2315 C2316 1.394 . S
C2315 C2321 1.465 . S
C2316 C2311 1.399 . S
C2316 C2315 1.394 . S
C2316 C2317 1.516 . S
C2317 C2316 1.516 . S
C2317 C2318 1.502 . S
C2317 C2319 1.561 . S
C2317 C2320 1.526 . S
C2318 H2302 0.959 . S
C2318 H2303 0.959 . S
C2318 H2304 0.961 . S
C2318 C2317 1.502 . S
C2319 H2305 0.960 . S
C2319 H2306 0.961 . S
C2319 H2307 0.959 . S
C2319 C2317 1.561 . S
C2320 C2317 1.526 . S
C2320 C2321 1.396 . S
C2320 C2325 1.390 . S
C2321 C2315 1.465 . S
C2321 C2320 1.396 . S
C2321 C2322 1.399 . S
C2322 H2308 0.929 . S
C2322 C2321 1.399 . S
C2322 C2323 1.385 . S
C2323 H2309 0.931 . S
C2323 C2322 1.385 . S
C2323 C2324 1.389 . S
C2324 C2323 1.389 . S
C2324 C2325 1.387 . S
C2325 H2310 0.930 . S
C2325 C2320 1.390 . S
C2325 C2324 1.387 . S
H2326 C2338 0.930 . S
H2327 C2340 0.930 . S
H2328 C2341 0.930 1_655 S
H2329 C2345 0.959 . S
H2330 C2345 0.959 . S
H2331 C2345 0.961 . S
H2332 C2346 0.957 . S
H2333 C2346 0.961 . S
H2334 C2346 0.959 1_655 S
H2335 C2349 0.929 . S
H2336 C2350 0.931 1_554 S
H2337 C2352 0.930 . S
C2338 H2326 0.930 . S
C2338 C2339 1.399 . S
C2338 C2343 1.399 . S
C2339 C2338 1.399 . S
C2339 C2340 1.376 1_455 S
C2340 H2327 0.930 . S
C2340 C2339 1.376 1_655 S
C2340 C2341 1.388 1_655 S
C2341 H2328 0.930 1_455 S
C2341 C2340 1.388 1_455 S
C2341 C2342 1.390 . S
C2342 C2341 1.390 . S
C2342 C2343 1.394 . S
C2342 C2348 1.465 . S
C2343 C2338 1.399 . S
C2343 C2342 1.394 . S
C2343 C2344 1.516 . S
C2344 C2343 1.516 . S
C2344 C2345 1.502 . S
C2344 C2346 1.561 . S
C2344 C2347 1.526 . S
C2345 H2329 0.959 . S
C2345 H2330 0.959 . S
C2345 H2331 0.961 . S
C2345 C2344 1.502 . S
C2346 H2332 0.957 . S
C2346 H2333 0.961 . S
C2346 H2334 0.959 1_455 S
C2346 C2344 1.561 . S
C2347 C2344 1.526 . S
C2347 C2348 1.396 . S
C2347 C2352 1.390 . S
C2348 C2342 1.465 . S
C2348 C2347 1.396 . S
C2348 C2349 1.399 . S
C2349 H2335 0.929 . S
C2349 C2348 1.399 . S
C2349 C2350 1.385 . S
C2350 H2336 0.931 1_556 S
C2350 C2349 1.385 . S
C2350 C2351 1.389 . S
C2351 C2350 1.389 . S
C2351 C2352 1.387 . S
C2352 H2337 0.930 . S
C2352 C2347 1.390 . S
C2352 C2351 1.387 . S
H2353 C2365 0.930 . S
H2354 C2367 0.930 . S
H2355 C2368 0.930 . S
H2356 C2372 0.959 . S
H2357 C2372 0.959 . S
H2358 C2372 0.961 . S
H2359 C2373 0.960 . S
H2360 C2373 0.961 . S
H2361 C2373 0.959 . S
H2362 C2376 0.929 . S
H2363 C2377 0.931 . S
H2364 C2379 0.930 . S
C2365 H2353 0.930 . S
C2365 C2366 1.399 . S
C2365 C2370 1.399 . S
C2366 C2365 1.399 . S
C2366 C2367 1.376 . S
C2367 H2354 0.930 . S
C2367 C2366 1.376 . S
C2367 C2368 1.388 1_455 S
C2368 H2355 0.930 . S
C2368 C2367 1.388 1_655 S
C2368 C2369 1.390 . S
C2369 C2368 1.390 . S
C2369 C2370 1.394 1_655 S
C2369 C2375 1.465 . S
C2370 C2365 1.399 . S
C2370 C2369 1.394 1_455 S
C2370 C2371 1.516 . S
C2371 C2370 1.516 . S
C2371 C2372 1.502 . S
C2371 C2373 1.561 . S
C2371 C2374 1.526 1_455 S
C2372 H2356 0.959 . S
C2372 H2357 0.959 . S
C2372 H2358 0.961 . S
C2372 C2371 1.502 . S
C2373 H2359 0.960 . S
C2373 H2360 0.961 . S
C2373 H2361 0.959 . S
C2373 C2371 1.561 . S
C2374 C2371 1.526 1_655 S
C2374 C2375 1.396 . S
C2374 C2379 1.390 . S
C2375 C2369 1.465 . S
C2375 C2374 1.396 . S
C2375 C2376 1.399 . S
C2376 H2362 0.929 . S
C2376 C2375 1.399 . S
C2376 C2377 1.385 . S
C2377 H2363 0.931 . S
C2377 C2376 1.385 . S
C2377 C2378 1.389 . S
C2378 C2377 1.389 . S
C2378 C2379 1.387 . S
C2379 H2364 0.930 . S
C2379 C2374 1.390 . S
C2379 C2378 1.387 . S
H2380 C2392 0.930 . S
H2381 C2394 0.930 . S
H2382 C2395 0.930 . S
H2383 C2399 0.959 . S
H2384 C2399 0.959 . S
H2385 C2399 0.961 . S
H2386 C2400 0.960 . S
H2387 C2400 0.961 . S
H2388 C2400 0.959 . S
H2389 C2403 0.929 . S
H2390 C2404 0.931 . S
H2391 C2406 0.930 . S
C2392 H2380 0.930 . S
C2392 C2393 1.399 . S
C2392 C2397 1.399 . S
C2393 C2392 1.399 . S
C2393 C2394 1.376 . S
C2394 H2381 0.930 . S
C2394 C2393 1.376 . S
C2394 C2395 1.388 . S
C2395 H2382 0.930 . S
C2395 C2394 1.388 . S
C2395 C2396 1.390 . S
C2396 C2395 1.390 . S
C2396 C2397 1.394 . S
C2396 C2402 1.465 . S
C2397 C2392 1.399 . S
C2397 C2396 1.394 . S
C2397 C2398 1.516 . S
C2398 C2397 1.516 . S
C2398 C2399 1.502 . S
C2398 C2400 1.561 . S
C2398 C2401 1.526 . S
C2399 H2383 0.959 . S
C2399 H2384 0.959 . S
C2399 H2385 0.961 . S
C2399 C2398 1.502 . S
C2400 H2386 0.960 . S
C2400 H2387 0.961 . S
C2400 H2388 0.959 . S
C2400 C2398 1.561 . S
C2401 C2398 1.526 . S
C2401 C2402 1.396 . S
C2401 C2406 1.390 . S
C2402 C2396 1.465 . S
C2402 C2401 1.396 . S
C2402 C2403 1.399 . S
C2403 H2389 0.929 . S
C2403 C2402 1.399 . S
C2403 C2404 1.385 . S
C2404 H2390 0.931 . S
C2404 C2403 1.385 . S
C2404 C2405 1.389 . S
C2405 C2404 1.389 . S
C2405 C2406 1.387 . S
C2406 H2391 0.930 . S
C2406 C2401 1.390 . S
C2406 C2405 1.387 . S
H2407 C2419 0.930 . S
H2408 C2421 0.930 . S
H2409 C2422 0.930 . S
H2410 C2426 0.959 . S
H2411 C2426 0.959 . S
H2412 C2426 0.961 . S
H2413 C2427 0.960 . S
H2414 C2427 0.961 . S
H2415 C2427 0.959 . S
H2416 C2430 0.929 . S
H2417 C2431 0.931 . S
H2418 C2433 0.930 . S
C2419 H2407 0.930 . S
C2419 C2420 1.399 . S
C2419 C2424 1.399 . S
C2420 C2419 1.399 . S
C2420 C2421 1.376 . S
C2421 H2408 0.930 . S
C2421 C2420 1.376 . S
C2421 C2422 1.388 . S
C2422 H2409 0.930 . S
C2422 C2421 1.388 . S
C2422 C2423 1.390 . S
C2423 C2422 1.390 . S
C2423 C2424 1.394 . S
C2423 C2429 1.465 . S
C2424 C2419 1.399 . S
C2424 C2423 1.394 . S
C2424 C2425 1.516 . S
C2425 C2424 1.516 . S
C2425 C2426 1.502 . S
C2425 C2427 1.561 . S
C2425 C2428 1.526 . S
C2426 H2410 0.959 . S
C2426 H2411 0.959 . S
C2426 H2412 0.961 . S
C2426 C2425 1.502 . S
C2427 H2413 0.960 . S
C2427 H2414 0.961 . S
C2427 H2415 0.959 . S
C2427 C2425 1.561 . S
C2428 C2425 1.526 . S
C2428 C2429 1.396 . S
C2428 C2433 1.390 . S
C2429 C2423 1.465 . S
C2429 C2428 1.396 . S
C2429 C2430 1.399 . S
C2430 H2416 0.929 . S
C2430 C2429 1.399 . S
C2430 C2431 1.385 . S
C2431 H2417 0.931 . S
C2431 C2430 1.385 . S
C2431 C2432 1.389 . S
C2432 C2431 1.389 . S
C2432 C2433 1.387 . S
C2433 H2418 0.930 . S
C2433 C2428 1.390 . S
C2433 C2432 1.387 . S
H2434 C2446 0.930 . S
H2435 C2448 0.930 . S
H2436 C2449 0.930 . S
H2437 C2453 0.959 . S
H2438 C2453 0.959 . S
H2439 C2453 0.961 . S
H2440 C2454 0.960 . S
H2441 C2454 0.961 . S
H2442 C2454 0.959 . S
H2443 C2457 0.929 . S
H2444 C2458 0.931 . S
H2445 C2460 0.930 . S
C2446 H2434 0.930 . S
C2446 C2447 1.399 . S
C2446 C2451 1.399 . S
C2447 C2446 1.399 . S
C2447 C2448 1.376 . S
C2448 H2435 0.930 . S
C2448 C2447 1.376 . S
C2448 C2449 1.388 . S
C2449 H2436 0.930 . S
C2449 C2448 1.388 . S
C2449 C2450 1.390 . S
C2450 C2449 1.390 . S
C2450 C2451 1.394 . S
C2450 C2456 1.465 . S
C2451 C2446 1.399 . S
C2451 C2450 1.394 . S
C2451 C2452 1.516 . S
C2452 C2451 1.516 . S
C2452 C2453 1.502 . S
C2452 C2454 1.561 . S
C2452 C2455 1.526 . S
C2453 H2437 0.959 . S
C2453 H2438 0.959 . S
C2453 H2439 0.961 . S
C2453 C2452 1.502 . S
C2454 H2440 0.960 . S
C2454 H2441 0.961 . S
C2454 H2442 0.959 . S
C2454 C2452 1.561 . S
C2455 C2452 1.526 . S
C2455 C2456 1.396 . S
C2455 C2460 1.390 . S
C2456 C2450 1.465 . S
C2456 C2455 1.396 . S
C2456 C2457 1.399 . S
C2457 H2443 0.929 . S
C2457 C2456 1.399 . S
C2457 C2458 1.385 . S
C2458 H2444 0.931 . S
C2458 C2457 1.385 . S
C2458 C2459 1.389 . S
C2459 C2458 1.389 . S
C2459 C2460 1.387 . S
C2460 H2445 0.930 . S
C2460 C2455 1.390 . S
C2460 C2459 1.387 . S
H2461 C2473 0.930 . S
H2462 C2475 0.930 . S
H2463 C2476 0.930 . S
H2464 C2480 0.959 . S
H2465 C2480 0.959 . S
H2466 C2480 0.961 . S
H2467 C2481 0.960 . S
H2468 C2481 0.961 . S
H2469 C2481 0.959 . S
H2470 C2484 0.929 . S
H2471 C2485 0.931 . S
H2472 C2487 0.930 . S
C2473 H2461 0.930 . S
C2473 C2474 1.399 . S
C2473 C2478 1.399 . S
C2474 C2473 1.399 . S
C2474 C2475 1.376 . S
C2475 H2462 0.930 . S
C2475 C2474 1.376 . S
C2475 C2476 1.388 . S
C2476 H2463 0.930 . S
C2476 C2475 1.388 . S
C2476 C2477 1.390 . S
C2477 C2476 1.390 . S
C2477 C2478 1.394 . S
C2477 C2483 1.465 . S
C2478 C2473 1.399 . S
C2478 C2477 1.394 . S
C2478 C2479 1.516 . S
C2479 C2478 1.516 . S
C2479 C2480 1.502 . S
C2479 C2481 1.561 . S
C2479 C2482 1.526 . S
C2480 H2464 0.959 . S
C2480 H2465 0.959 . S
C2480 H2466 0.961 . S
C2480 C2479 1.502 . S
C2481 H2467 0.960 . S
C2481 H2468 0.961 . S
C2481 H2469 0.959 . S
C2481 C2479 1.561 . S
C2482 C2479 1.526 . S
C2482 C2483 1.396 . S
C2482 C2487 1.390 . S
C2483 C2477 1.465 . S
C2483 C2482 1.396 . S
C2483 C2484 1.399 . S
C2484 H2470 0.929 . S
C2484 C2483 1.399 . S
C2484 C2485 1.385 . S
C2485 H2471 0.931 . S
C2485 C2484 1.385 . S
C2485 C2486 1.389 . S
C2486 C2485 1.389 . S
C2486 C2487 1.387 . S
C2487 H2472 0.930 . S
C2487 C2482 1.390 . S
C2487 C2486 1.387 . S
H2488 C2500 0.930 . S
H2489 C2502 0.930 . S
H2490 C2503 0.930 . S
H2491 C2507 0.959 . S
H2492 C2507 0.959 . S
H2493 C2507 0.961 . S
H2494 C2508 0.960 . S
H2495 C2508 0.961 . S
H2496 C2508 0.959 . S
H2497 C2511 0.929 . S
H2498 C2512 0.931 . S
H2499 C2514 0.930 . S
C2500 H2488 0.930 . S
C2500 C2501 1.399 . S
C2500 C2505 1.399 . S
C2501 C2500 1.399 . S
C2501 C2502 1.376 . S
C2502 H2489 0.930 . S
C2502 C2501 1.376 . S
C2502 C2503 1.388 . S
C2503 H2490 0.930 . S
C2503 C2502 1.388 . S
C2503 C2504 1.390 . S
C2504 C2503 1.390 . S
C2504 C2505 1.394 . S
C2504 C2510 1.465 . S
C2505 C2500 1.399 . S
C2505 C2504 1.394 . S
C2505 C2506 1.516 . S
C2506 C2505 1.516 . S
C2506 C2507 1.502 . S
C2506 C2508 1.561 . S
C2506 C2509 1.526 . S
C2507 H2491 0.959 . S
C2507 H2492 0.959 . S
C2507 H2493 0.961 . S
C2507 C2506 1.502 . S
C2508 H2494 0.960 . S
C2508 H2495 0.961 . S
C2508 H2496 0.959 . S
C2508 C2506 1.561 . S
C2509 C2506 1.526 . S
C2509 C2510 1.396 . S
C2509 C2514 1.390 . S
C2510 C2504 1.465 . S
C2510 C2509 1.396 . S
C2510 C2511 1.399 . S
C2511 H2497 0.929 . S
C2511 C2510 1.399 . S
C2511 C2512 1.385 . S
C2512 H2498 0.931 . S
C2512 C2511 1.385 . S
C2512 C2513 1.389 . S
C2513 C2512 1.389 . S
C2513 C2514 1.387 . S
C2514 H2499 0.930 . S
C2514 C2509 1.390 . S
C2514 C2513 1.387 . S
H2515 C2527 0.930 . S
H2516 C2529 0.930 . S
H2517 C2530 0.930 . S
H2518 C2534 0.959 . S
H2519 C2534 0.959 . S
H2520 C2534 0.961 . S
H2521 C2535 0.960 . S
H2522 C2535 0.961 . S
H2523 C2535 0.959 . S
H2524 C2538 0.929 . S
H2525 C2539 0.931 . S
H2526 C2541 0.930 . S
C2527 H2515 0.930 . S
C2527 C2528 1.399 . S
C2527 C2532 1.399 . S
C2528 C2527 1.399 . S
C2528 C2529 1.376 . S
C2529 H2516 0.930 . S
C2529 C2528 1.376 . S
C2529 C2530 1.388 . S
C2530 H2517 0.930 . S
C2530 C2529 1.388 . S
C2530 C2531 1.390 . S
C2531 C2530 1.390 . S
C2531 C2532 1.394 . S
C2531 C2537 1.465 . S
C2532 C2527 1.399 . S
C2532 C2531 1.394 . S
C2532 C2533 1.516 . S
C2533 C2532 1.516 . S
C2533 C2534 1.502 . S
C2533 C2535 1.561 . S
C2533 C2536 1.526 . S
C2534 H2518 0.959 . S
C2534 H2519 0.959 . S
C2534 H2520 0.961 . S
C2534 C2533 1.502 . S
C2535 H2521 0.960 . S
C2535 H2522 0.961 . S
C2535 H2523 0.959 . S
C2535 C2533 1.561 . S
C2536 C2533 1.526 . S
C2536 C2537 1.396 . S
C2536 C2541 1.390 . S
C2537 C2531 1.465 . S
C2537 C2536 1.396 . S
C2537 C2538 1.399 . S
C2538 H2524 0.929 . S
C2538 C2537 1.399 . S
C2538 C2539 1.385 . S
C2539 H2525 0.931 . S
C2539 C2538 1.385 . S
C2539 C2540 1.389 . S
C2540 C2539 1.389 . S
C2540 C2541 1.387 . S
C2541 H2526 0.930 . S
C2541 C2536 1.390 . S
C2541 C2540 1.387 . S
H2542 C2554 0.930 . S
H2543 C2556 0.930 . S
H2544 C2557 0.930 . S
H2545 C2561 0.959 . S
H2546 C2561 0.959 . S
H2547 C2561 0.961 . S
H2548 C2562 0.960 . S
H2549 C2562 0.961 . S
H2550 C2562 0.959 . S
H2551 C2565 0.929 . S
H2552 C2566 0.931 . S
H2553 C2568 0.930 . S
C2554 H2542 0.930 . S
C2554 C2555 1.399 . S
C2554 C2559 1.399 . S
C2555 C2554 1.399 . S
C2555 C2556 1.376 . S
C2556 H2543 0.930 . S
C2556 C2555 1.376 . S
C2556 C2557 1.388 . S
C2557 H2544 0.930 . S
C2557 C2556 1.388 . S
C2557 C2558 1.390 . S
C2558 C2557 1.390 . S
C2558 C2559 1.394 . S
C2558 C2564 1.465 . S
C2559 C2554 1.399 . S
C2559 C2558 1.394 . S
C2559 C2560 1.516 . S
C2560 C2559 1.516 . S
C2560 C2561 1.502 . S
C2560 C2562 1.561 . S
C2560 C2563 1.526 . S
C2561 H2545 0.959 . S
C2561 H2546 0.959 . S
C2561 H2547 0.961 . S
C2561 C2560 1.502 . S
C2562 H2548 0.960 . S
C2562 H2549 0.961 . S
C2562 H2550 0.959 . S
C2562 C2560 1.561 . S
C2563 C2560 1.526 . S
C2563 C2564 1.396 . S
C2563 C2568 1.390 . S
C2564 C2558 1.465 . S
C2564 C2563 1.396 . S
C2564 C2565 1.399 . S
C2565 H2551 0.929 . S
C2565 C2564 1.399 . S
C2565 C2566 1.385 . S
C2566 H2552 0.931 . S
C2566 C2565 1.385 . S
C2566 C2567 1.389 . S
C2567 C2566 1.389 . S
C2567 C2568 1.387 . S
C2568 H2553 0.930 . S
C2568 C2563 1.390 . S
C2568 C2567 1.387 . S
H2569 C2581 0.930 . S
H2570 C2583 0.930 . S
H2571 C2584 0.930 . S
H2572 C2588 0.959 . S
H2573 C2588 0.959 . S
H2574 C2588 0.961 . S
H2575 C2589 0.960 . S
H2576 C2589 0.961 . S
H2577 C2589 0.959 . S
H2578 C2592 0.929 . S
H2579 C2593 0.931 . S
H2580 C2595 0.930 . S
C2581 H2569 0.930 . S
C2581 C2582 1.399 . S
C2581 C2586 1.399 . S
C2582 C2581 1.399 . S
C2582 C2583 1.376 . S
C2583 H2570 0.930 . S
C2583 C2582 1.376 . S
C2583 C2584 1.388 . S
C2584 H2571 0.930 . S
C2584 C2583 1.388 . S
C2584 C2585 1.390 . S
C2585 C2584 1.390 . S
C2585 C2586 1.394 . S
C2585 C2591 1.465 . S
C2586 C2581 1.399 . S
C2586 C2585 1.394 . S
C2586 C2587 1.516 . S
C2587 C2586 1.516 . S
C2587 C2588 1.502 . S
C2587 C2589 1.561 . S
C2587 C2590 1.526 . S
C2588 H2572 0.959 . S
C2588 H2573 0.959 . S
C2588 H2574 0.961 . S
C2588 C2587 1.502 . S
C2589 H2575 0.960 . S
C2589 H2576 0.961 . S
C2589 H2577 0.959 . S
C2589 C2587 1.561 . S
C2590 C2587 1.526 . S
C2590 C2591 1.396 . S
C2590 C2595 1.390 . S
C2591 C2585 1.465 . S
C2591 C2590 1.396 . S
C2591 C2592 1.399 . S
C2592 H2578 0.929 . S
C2592 C2591 1.399 . S
C2592 C2593 1.385 . S
C2593 H2579 0.931 . S
C2593 C2592 1.385 . S
C2593 C2594 1.389 . S
C2594 C2593 1.389 . S
C2594 C2595 1.387 . S
C2595 H2580 0.930 . S
C2595 C2590 1.390 . S
C2595 C2594 1.387 . S
H2596 C2608 0.930 . S
H2597 C2610 0.930 . S
H2598 C2611 0.930 . S
H2599 C2615 0.959 . S
H2600 C2615 0.959 . S
H2601 C2615 0.961 . S
H2602 C2616 0.960 . S
H2603 C2616 0.961 . S
H2604 C2616 0.959 . S
H2605 C2619 0.929 . S
H2606 C2620 0.931 . S
H2607 C2622 0.930 . S
C2608 H2596 0.930 . S
C2608 C2609 1.399 . S
C2608 C2613 1.399 . S
C2609 C2608 1.399 . S
C2609 C2610 1.376 . S
C2610 H2597 0.930 . S
C2610 C2609 1.376 . S
C2610 C2611 1.388 . S
C2611 H2598 0.930 . S
C2611 C2610 1.388 . S
C2611 C2612 1.390 . S
C2612 C2611 1.390 . S
C2612 C2613 1.394 . S
C2612 C2618 1.465 . S
C2613 C2608 1.399 . S
C2613 C2612 1.394 . S
C2613 C2614 1.516 . S
C2614 C2613 1.516 . S
C2614 C2615 1.502 . S
C2614 C2616 1.561 . S
C2614 C2617 1.526 . S
C2615 H2599 0.959 . S
C2615 H2600 0.959 . S
C2615 H2601 0.961 . S
C2615 C2614 1.502 . S
C2616 H2602 0.960 . S
C2616 H2603 0.961 . S
C2616 H2604 0.959 . S
C2616 C2614 1.561 . S
C2617 C2614 1.526 . S
C2617 C2618 1.396 . S
C2617 C2622 1.390 . S
C2618 C2612 1.465 . S
C2618 C2617 1.396 . S
C2618 C2619 1.399 . S
C2619 H2605 0.929 . S
C2619 C2618 1.399 . S
C2619 C2620 1.385 . S
C2620 H2606 0.931 . S
C2620 C2619 1.385 . S
C2620 C2621 1.389 . S
C2621 C2620 1.389 . S
C2621 C2622 1.387 . S
C2622 H2607 0.930 . S
C2622 C2617 1.390 . S
C2622 C2621 1.387 . S
H2623 C2635 0.930 . S
H2624 C2637 0.930 . S
H2625 C2638 0.930 . S
H2626 C2642 0.959 . S
H2627 C2642 0.959 . S
H2628 C2642 0.961 . S
H2629 C2643 0.960 . S
H2630 C2643 0.961 . S
H2631 C2643 0.959 . S
H2632 C2646 0.929 . S
H2633 C2647 0.931 . S
H2634 C2649 0.930 . S
C2635 H2623 0.930 . S
C2635 C2636 1.399 . S
C2635 C2640 1.399 . S
C2636 C2635 1.399 . S
C2636 C2637 1.376 . S
C2637 H2624 0.930 . S
C2637 C2636 1.376 . S
C2637 C2638 1.388 . S
C2638 H2625 0.930 . S
C2638 C2637 1.388 . S
C2638 C2639 1.390 . S
C2639 C2638 1.390 . S
C2639 C2640 1.394 . S
C2639 C2645 1.465 . S
C2640 C2635 1.399 . S
C2640 C2639 1.394 . S
C2640 C2641 1.516 . S
C2641 C2640 1.516 . S
C2641 C2642 1.502 . S
C2641 C2643 1.561 . S
C2641 C2644 1.526 . S
C2642 H2626 0.959 . S
C2642 H2627 0.959 . S
C2642 H2628 0.961 . S
C2642 C2641 1.502 . S
C2643 H2629 0.960 . S
C2643 H2630 0.961 . S
C2643 H2631 0.959 . S
C2643 C2641 1.561 . S
C2644 C2641 1.526 . S
C2644 C2645 1.396 . S
C2644 C2649 1.390 . S
C2645 C2639 1.465 . S
C2645 C2644 1.396 . S
C2645 C2646 1.399 . S
C2646 H2632 0.929 . S
C2646 C2645 1.399 . S
C2646 C2647 1.385 . S
C2647 H2633 0.931 . S
C2647 C2646 1.385 . S
C2647 C2648 1.389 . S
C2648 C2647 1.389 . S
C2648 C2649 1.387 . S
C2649 H2634 0.930 . S
C2649 C2644 1.390 . S
C2649 C2648 1.387 . S
H2650 C2662 0.930 . S
H2651 C2664 0.930 . S
H2652 C2665 0.930 . S
H2653 C2669 0.959 . S
H2654 C2669 0.959 . S
H2655 C2669 0.961 . S
H2656 C2670 0.960 . S
H2657 C2670 0.961 . S
H2658 C2670 0.959 . S
H2659 C2673 0.929 . S
H2660 C2674 0.931 . S
H2661 C2676 0.930 . S
C2662 H2650 0.930 . S
C2662 C2663 1.399 . S
C2662 C2667 1.399 . S
C2663 C2662 1.399 . S
C2663 C2664 1.376 . S
C2664 H2651 0.930 . S
C2664 C2663 1.376 . S
C2664 C2665 1.388 . S
C2665 H2652 0.930 . S
C2665 C2664 1.388 . S
C2665 C2666 1.390 . S
C2666 C2665 1.390 . S
C2666 C2667 1.394 . S
C2666 C2672 1.465 . S
C2667 C2662 1.399 . S
C2667 C2666 1.394 . S
C2667 C2668 1.516 . S
C2668 C2667 1.516 . S
C2668 C2669 1.502 . S
C2668 C2670 1.561 . S
C2668 C2671 1.526 . S
C2669 H2653 0.959 . S
C2669 H2654 0.959 . S
C2669 H2655 0.961 . S
C2669 C2668 1.502 . S
C2670 H2656 0.960 . S
C2670 H2657 0.961 . S
C2670 H2658 0.959 . S
C2670 C2668 1.561 . S
C2671 C2668 1.526 . S
C2671 C2672 1.396 . S
C2671 C2676 1.390 . S
C2672 C2666 1.465 . S
C2672 C2671 1.396 . S
C2672 C2673 1.399 . S
C2673 H2659 0.929 . S
C2673 C2672 1.399 . S
C2673 C2674 1.385 . S
C2674 H2660 0.931 . S
C2674 C2673 1.385 . S
C2674 C2675 1.389 . S
C2675 C2674 1.389 . S
C2675 C2676 1.387 . S
C2676 H2661 0.930 . S
C2676 C2671 1.390 . S
C2676 C2675 1.387 . S
H2677 C2689 0.930 . S
H2678 C2691 0.930 . S
H2679 C2692 0.930 . S
H2680 C2696 0.959 . S
H2681 C2696 0.959 . S
H2682 C2696 0.961 . S
H2683 C2697 0.960 . S
H2684 C2697 0.961 . S
H2685 C2697 0.959 . S
H2686 C2700 0.929 . S
H2687 C2701 0.931 . S
H2688 C2703 0.930 . S
C2689 H2677 0.930 . S
C2689 C2690 1.399 . S
C2689 C2694 1.399 . S
C2690 C2689 1.399 . S
C2690 C2691 1.376 . S
C2691 H2678 0.930 . S
C2691 C2690 1.376 . S
C2691 C2692 1.388 . S
C2692 H2679 0.930 . S
C2692 C2691 1.388 . S
C2692 C2693 1.390 . S
C2693 C2692 1.390 . S
C2693 C2694 1.394 . S
C2693 C2699 1.465 . S
C2694 C2689 1.399 . S
C2694 C2693 1.394 . S
C2694 C2695 1.516 . S
C2695 C2694 1.516 . S
C2695 C2696 1.502 . S
C2695 C2697 1.561 . S
C2695 C2698 1.526 . S
C2696 H2680 0.959 . S
C2696 H2681 0.959 . S
C2696 H2682 0.961 . S
C2696 C2695 1.502 . S
C2697 H2683 0.960 . S
C2697 H2684 0.961 . S
C2697 H2685 0.959 . S
C2697 C2695 1.561 . S
C2698 C2695 1.526 . S
C2698 C2699 1.396 . S
C2698 C2703 1.390 . S
C2699 C2693 1.465 . S
C2699 C2698 1.396 . S
C2699 C2700 1.399 . S
C2700 H2686 0.929 . S
C2700 C2699 1.399 . S
C2700 C2701 1.385 . S
C2701 H2687 0.931 . S
C2701 C2700 1.385 . S
C2701 C2702 1.389 . S
C2702 C2701 1.389 . S
C2702 C2703 1.387 . S
C2703 H2688 0.930 . S
C2703 C2698 1.390 . S
C2703 C2702 1.387 . S
H2704 C2716 0.930 . S
H2705 C2718 0.930 . S
H2706 C2719 0.930 . S
H2707 C2723 0.959 . S
H2708 C2723 0.959 . S
H2709 C2723 0.961 . S
H2710 C2724 0.960 . S
H2711 C2724 0.961 . S
H2712 C2724 0.959 . S
H2713 C2727 0.929 . S
H2714 C2728 0.931 . S
H2715 C2730 0.930 . S
C2716 H2704 0.930 . S
C2716 C2717 1.399 . S
C2716 C2721 1.399 . S
C2717 C2716 1.399 . S
C2717 C2718 1.376 . S
C2718 H2705 0.930 . S
C2718 C2717 1.376 . S
C2718 C2719 1.388 . S
C2719 H2706 0.930 . S
C2719 C2718 1.388 . S
C2719 C2720 1.390 . S
C2720 C2719 1.390 . S
C2720 C2721 1.394 . S
C2720 C2726 1.465 . S
C2721 C2716 1.399 . S
C2721 C2720 1.394 . S
C2721 C2722 1.516 . S
C2722 C2721 1.516 . S
C2722 C2723 1.502 . S
C2722 C2724 1.561 . S
C2722 C2725 1.526 . S
C2723 H2707 0.959 . S
C2723 H2708 0.959 . S
C2723 H2709 0.961 . S
C2723 C2722 1.502 . S
C2724 H2710 0.960 . S
C2724 H2711 0.961 . S
C2724 H2712 0.959 . S
C2724 C2722 1.561 . S
C2725 C2722 1.526 . S
C2725 C2726 1.396 . S
C2725 C2730 1.390 . S
C2726 C2720 1.465 . S
C2726 C2725 1.396 . S
C2726 C2727 1.399 . S
C2727 H2713 0.929 . S
C2727 C2726 1.399 . S
C2727 C2728 1.385 . S
C2728 H2714 0.931 . S
C2728 C2727 1.385 . S
C2728 C2729 1.389 . S
C2729 C2728 1.389 . S
C2729 C2730 1.387 . S
C2730 H2715 0.930 . S
C2730 C2725 1.390 . S
C2730 C2729 1.387 . S
H2731 C2743 0.930 . S
H2732 C2745 0.930 . S
H2733 C2746 0.930 . S
H2734 C2750 0.959 . S
H2735 C2750 0.959 . S
H2736 C2750 0.961 . S
H2737 C2751 0.960 . S
H2738 C2751 0.961 . S
H2739 C2751 0.959 . S
H2740 C2754 0.929 . S
H2741 C2755 0.931 . S
H2742 C2757 0.930 . S
C2743 H2731 0.930 . S
C2743 C2744 1.399 . S
C2743 C2748 1.399 . S
C2744 C2743 1.399 . S
C2744 C2745 1.376 . S
C2745 H2732 0.930 . S
C2745 C2744 1.376 . S
C2745 C2746 1.388 . S
C2746 H2733 0.930 . S
C2746 C2745 1.388 . S
C2746 C2747 1.390 . S
C2747 C2746 1.390 . S
C2747 C2748 1.394 . S
C2747 C2753 1.465 . S
C2748 C2743 1.399 . S
C2748 C2747 1.394 . S
C2748 C2749 1.516 . S
C2749 C2748 1.516 . S
C2749 C2750 1.502 . S
C2749 C2751 1.561 . S
C2749 C2752 1.526 . S
C2750 H2734 0.959 . S
C2750 H2735 0.959 . S
C2750 H2736 0.961 . S
C2750 C2749 1.502 . S
C2751 H2737 0.960 . S
C2751 H2738 0.961 . S
C2751 H2739 0.959 . S
C2751 C2749 1.561 . S
C2752 C2749 1.526 . S
C2752 C2753 1.396 . S
C2752 C2757 1.390 . S
C2753 C2747 1.465 . S
C2753 C2752 1.396 . S
C2753 C2754 1.399 . S
C2754 H2740 0.929 . S
C2754 C2753 1.399 . S
C2754 C2755 1.385 . S
C2755 H2741 0.931 . S
C2755 C2754 1.385 . S
C2755 C2756 1.389 . S
C2756 C2755 1.389 . S
C2756 C2757 1.387 . S
C2757 H2742 0.930 . S
C2757 C2752 1.390 . S
C2757 C2756 1.387 . S
H2758 C2770 0.930 . S
H2759 C2772 0.930 . S
H2760 C2773 0.930 . S
H2761 C2777 0.959 . S
H2762 C2777 0.959 . S
H2763 C2777 0.961 . S
H2764 C2778 0.960 . S
H2765 C2778 0.961 . S
H2766 C2778 0.959 . S
H2767 C2781 0.929 . S
H2768 C2782 0.931 . S
H2769 C2784 0.930 . S
C2770 H2758 0.930 . S
C2770 C2771 1.399 1_565 S
C2770 C2775 1.399 . S
C2771 C2770 1.399 1_545 S
C2771 C2772 1.376 . S
C2772 H2759 0.930 . S
C2772 C2771 1.376 . S
C2772 C2773 1.388 . S
C2773 H2760 0.930 . S
C2773 C2772 1.388 . S
C2773 C2774 1.390 1_545 S
C2774 C2773 1.390 1_565 S
C2774 C2775 1.394 . S
C2774 C2780 1.465 . S
C2775 C2770 1.399 . S
C2775 C2774 1.394 . S
C2775 C2776 1.516 . S
C2776 C2775 1.516 . S
C2776 C2777 1.502 . S
C2776 C2778 1.561 . S
C2776 C2779 1.526 . S
C2777 H2761 0.959 . S
C2777 H2762 0.959 . S
C2777 H2763 0.961 . S
C2777 C2776 1.502 . S
C2778 H2764 0.960 . S
C2778 H2765 0.961 . S
C2778 H2766 0.959 . S
C2778 C2776 1.561 . S
C2779 C2776 1.526 . S
C2779 C2780 1.396 . S
C2779 C2784 1.390 . S
C2780 C2774 1.465 . S
C2780 C2779 1.396 . S
C2780 C2781 1.399 . S
C2781 H2767 0.929 . S
C2781 C2780 1.399 . S
C2781 C2782 1.385 . S
C2782 H2768 0.931 . S
C2782 C2781 1.385 . S
C2782 C2783 1.389 . S
C2783 C2782 1.389 . S
C2783 C2784 1.387 . S
C2784 H2769 0.930 . S
C2784 C2779 1.390 . S
C2784 C2783 1.387 . S
H2785 C2797 0.930 . S
H2786 C2799 0.930 . S
H2787 C2800 0.930 . S
H2788 C2804 0.959 . S
H2789 C2804 0.960 1_545 S
H2790 C2804 0.961 . S
H2791 C2805 0.960 . S
H2792 C2805 0.961 . S
H2793 C2805 0.959 . S
H2794 C2808 0.929 . S
H2795 C2809 0.931 . S
H2796 C2811 0.930 1_545 S
C2797 H2785 0.930 . S
C2797 C2798 1.399 . S
C2797 C2802 1.399 . S
C2798 C2797 1.399 . S
C2798 C2799 1.376 . S
C2799 H2786 0.930 . S
C2799 C2798 1.376 . S
C2799 C2800 1.388 . S
C2800 H2787 0.930 . S
C2800 C2799 1.388 . S
C2800 C2801 1.390 . S
C2801 C2800 1.390 . S
C2801 C2802 1.394 . S
C2801 C2807 1.465 . S
C2802 C2797 1.399 . S
C2802 C2801 1.394 . S
C2802 C2803 1.516 . S
C2803 C2802 1.516 . S
C2803 C2804 1.502 . S
C2803 C2805 1.561 . S
C2803 C2806 1.526 . S
C2804 H2788 0.959 . S
C2804 H2789 0.960 1_565 S
C2804 H2790 0.961 . S
C2804 C2803 1.502 . S
C2805 H2791 0.960 . S
C2805 H2792 0.961 . S
C2805 H2793 0.959 . S
C2805 C2803 1.561 . S
C2806 C2803 1.526 . S
C2806 C2807 1.396 . S
C2806 C2811 1.390 . S
C2807 C2801 1.465 . S
C2807 C2806 1.396 . S
C2807 C2808 1.399 . S
C2808 H2794 0.929 . S
C2808 C2807 1.399 . S
C2808 C2809 1.385 . S
C2809 H2795 0.931 . S
C2809 C2808 1.385 . S
C2809 C2810 1.423 . S
C2810 C2809 1.423 . S
C2810 C2811 1.391 . S
C2811 H2796 0.930 1_565 S
C2811 C2806 1.390 . S
C2811 C2810 1.391 . S
H2812 C2824 0.930 . S
H2813 C2826 0.930 . S
H2814 C2827 0.930 . S
H2815 C2831 0.959 . S
H2816 C2831 0.959 . S
H2817 C2831 0.961 . S
H2818 C2832 0.960 . S
H2819 C2832 0.961 . S
H2820 C2832 0.959 . S
H2821 C2835 0.929 . S
H2822 C2836 0.931 . S
H2823 C2838 0.930 . S
C2824 H2812 0.930 . S
C2824 C2825 1.399 . S
C2824 C2829 1.399 . S
C2825 C2824 1.399 . S
C2825 C2826 1.376 . S
C2826 H2813 0.930 . S
C2826 C2825 1.376 . S
C2826 C2827 1.388 . S
C2827 H2814 0.930 . S
C2827 C2826 1.388 . S
C2827 C2828 1.390 . S
C2828 C2827 1.390 . S
C2828 C2829 1.394 . S
C2828 C2834 1.465 . S
C2829 C2824 1.399 . S
C2829 C2828 1.394 . S
C2829 C2830 1.516 . S
C2830 C2829 1.516 . S
C2830 C2831 1.502 . S
C2830 C2832 1.561 . S
C2830 C2833 1.526 . S
C2831 H2815 0.959 . S
C2831 H2816 0.959 . S
C2831 H2817 0.961 . S
C2831 C2830 1.502 . S
C2832 H2818 0.960 . S
C2832 H2819 0.961 . S
C2832 H2820 0.959 . S
C2832 C2830 1.561 . S
C2833 C2830 1.526 . S
C2833 C2834 1.396 . S
C2833 C2838 1.390 . S
C2834 C2828 1.465 . S
C2834 C2833 1.396 . S
C2834 C2835 1.399 . S
C2835 H2821 0.929 . S
C2835 C2834 1.399 . S
C2835 C2836 1.385 . S
C2836 H2822 0.931 . S
C2836 C2835 1.385 . S
C2836 C2837 1.389 . S
C2837 C2836 1.389 . S
C2837 C2838 1.387 . S
C2838 H2823 0.930 . S
C2838 C2833 1.390 . S
C2838 C2837 1.387 . S
H2839 C2851 0.930 1_556 S
H2840 C2853 0.930 . S
H2841 C2854 0.930 . S
H2842 C2858 0.959 . S
H2843 C2858 0.959 . S
H2844 C2858 0.961 . S
H2845 C2859 0.960 . S
H2846 C2859 0.961 . S
H2847 C2859 0.959 1_554 S
H2848 C2862 0.929 . S
H2849 C2863 0.931 . S
H2850 C2865 0.930 . S
C2851 H2839 0.930 1_554 S
C2851 C2852 1.399 . S
C2851 C2856 1.399 . S
C2852 C2851 1.399 . S
C2852 C2853 1.376 . S
C2853 H2840 0.930 . S
C2853 C2852 1.376 . S
C2853 C2854 1.388 . S
C2854 H2841 0.930 . S
C2854 C2853 1.388 . S
C2854 C2855 1.390 . S
C2855 C2854 1.390 . S
C2855 C2856 1.394 . S
C2855 C2861 1.465 . S
C2856 C2851 1.399 . S
C2856 C2855 1.394 . S
C2856 C2857 1.516 . S
C2857 C2856 1.516 . S
C2857 C2858 1.502 1_554 S
C2857 C2859 1.561 1_554 S
C2857 C2860 1.526 . S
C2858 H2842 0.959 . S
C2858 H2843 0.959 . S
C2858 H2844 0.961 . S
C2858 C2857 1.502 1_556 S
C2859 H2845 0.960 . S
C2859 H2846 0.961 . S
C2859 H2847 0.959 1_556 S
C2859 C2857 1.561 1_556 S
C2860 C2857 1.526 . S
C2860 C2861 1.396 . S
C2860 C2865 1.390 . S
C2861 C2855 1.465 . S
C2861 C2860 1.396 . S
C2861 C2862 1.399 . S
C2862 H2848 0.929 . S
C2862 C2861 1.399 . S
C2862 C2863 1.385 . S
C2863 H2849 0.931 . S
C2863 C2862 1.385 . S
C2863 C2864 1.389 . S
C2864 C2863 1.389 . S
C2864 C2865 1.387 . S
C2865 H2850 0.930 . S
C2865 C2860 1.390 . S
C2865 C2864 1.387 . S
H2866 C2878 0.930 . S
H2867 C2880 0.930 . S
H2868 C2881 0.930 . S
H2869 C2885 0.959 . S
H2870 C2885 0.959 . S
H2871 C2885 0.961 . S
H2872 C2886 0.960 . S
H2873 C2886 0.961 . S
H2874 C2886 0.959 . S
H2875 C2889 0.929 . S
H2876 C2890 0.931 . S
H2877 C2892 0.930 . S
C2878 H2866 0.930 . S
C2878 C2879 1.399 . S
C2878 C2883 1.399 . S
C2879 C2878 1.399 . S
C2879 C2880 1.376 . S
C2880 H2867 0.930 . S
C2880 C2879 1.376 . S
C2880 C2881 1.388 . S
C2881 H2868 0.930 . S
C2881 C2880 1.388 . S
C2881 C2882 1.390 . S
C2882 C2881 1.390 . S
C2882 C2883 1.394 . S
C2882 C2888 1.465 . S
C2883 C2878 1.399 . S
C2883 C2882 1.394 . S
C2883 C2884 1.516 . S
C2884 C2883 1.516 . S
C2884 C2885 1.502 . S
C2884 C2886 1.561 . S
C2884 C2887 1.526 . S
C2885 H2869 0.959 . S
C2885 H2870 0.959 . S
C2885 H2871 0.961 . S
C2885 C2884 1.502 . S
C2886 H2872 0.960 . S
C2886 H2873 0.961 . S
C2886 H2874 0.959 . S
C2886 C2884 1.561 . S
C2887 C2884 1.526 . S
C2887 C2888 1.396 . S
C2887 C2892 1.390 . S
C2888 C2882 1.465 . S
C2888 C2887 1.396 . S
C2888 C2889 1.399 . S
C2889 H2875 0.929 . S
C2889 C2888 1.399 . S
C2889 C2890 1.385 . S
C2890 H2876 0.931 . S
C2890 C2889 1.385 . S
C2890 C2891 1.389 . S
C2891 C2890 1.389 . S
C2891 C2892 1.387 . S
C2892 H2877 0.930 . S
C2892 C2887 1.390 . S
C2892 C2891 1.387 . S
H2893 C2905 0.937 . S
H2894 C2907 0.930 . S
H2895 C2908 0.930 . S
H2896 C2912 0.959 . S
H2897 C2912 0.959 . S
H2898 C2912 0.961 . S
H2899 C2913 0.960 . S
H2900 C2913 0.961 . S
H2901 C2913 0.959 . S
H2902 C2916 0.929 . S
H2903 C2917 0.931 . S
H2904 C2919 0.930 . S
C2905 H2893 0.937 . S
C2905 C2906 1.408 . S
C2905 C2910 1.383 1_545 S
C2906 C2905 1.408 . S
C2906 C2907 1.376 . S
C2907 H2894 0.930 . S
C2907 C2906 1.376 . S
C2907 C2908 1.388 1_545 S
C2908 H2895 0.930 . S
C2908 C2907 1.388 1_565 S
C2908 C2909 1.390 . S
C2909 C2908 1.390 . S
C2909 C2910 1.394 . S
C2909 C2915 1.465 . S
C2910 C2905 1.383 1_565 S
C2910 C2909 1.394 . S
C2910 C2911 1.516 . S
C2911 C2910 1.516 . S
C2911 C2912 1.502 . S
C2911 C2913 1.561 . S
C2911 C2914 1.526 . S
C2912 H2896 0.959 . S
C2912 H2897 0.959 . S
C2912 H2898 0.961 . S
C2912 C2911 1.502 . S
C2913 H2899 0.960 . S
C2913 H2900 0.961 . S
C2913 H2901 0.959 . S
C2913 C2911 1.561 . S
C2914 C2911 1.526 . S
C2914 C2915 1.396 . S
C2914 C2919 1.390 . S
C2915 C2909 1.465 . S
C2915 C2914 1.396 . S
C2915 C2916 1.399 . S
C2916 H2902 0.929 . S
C2916 C2915 1.399 . S
C2916 C2917 1.385 . S
C2917 H2903 0.931 . S
C2917 C2916 1.385 . S
C2917 C2918 1.389 . S
C2918 C2917 1.389 . S
C2918 C2919 1.387 . S
C2919 H2904 0.930 . S
C2919 C2914 1.390 . S
C2919 C2918 1.387 . S
H2920 C2932 0.930 . S
H2921 C2934 0.930 . S
H2922 C2935 0.930 . S
H2923 C2939 0.959 . S
H2924 C2939 0.959 . S
H2925 C2939 0.961 . S
H2926 C2940 0.960 . S
H2927 C2940 0.961 . S
H2928 C2940 0.959 . S
H2929 C2943 0.929 . S
H2930 C2944 0.931 . S
H2931 C2946 0.930 . S
C2932 H2920 0.930 . S
C2932 C2933 1.399 . S
C2932 C2937 1.399 . S
C2933 C2932 1.399 . S
C2933 C2934 1.376 . S
C2934 H2921 0.930 . S
C2934 C2933 1.376 . S
C2934 C2935 1.388 . S
C2935 H2922 0.930 . S
C2935 C2934 1.388 . S
C2935 C2936 1.390 . S
C2936 C2935 1.390 . S
C2936 C2937 1.394 . S
C2936 C2942 1.465 . S
C2937 C2932 1.399 . S
C2937 C2936 1.394 . S
C2937 C2938 1.516 . S
C2938 C2937 1.516 . S
C2938 C2939 1.502 . S
C2938 C2940 1.561 . S
C2938 C2941 1.526 . S
C2939 H2923 0.959 . S
C2939 H2924 0.959 . S
C2939 H2925 0.961 . S
C2939 C2938 1.502 . S
C2940 H2926 0.960 . S
C2940 H2927 0.961 . S
C2940 H2928 0.959 . S
C2940 C2938 1.561 . S
C2941 C2938 1.526 . S
C2941 C2942 1.396 . S
C2941 C2946 1.390 . S
C2942 C2936 1.465 . S
C2942 C2941 1.396 . S
C2942 C2943 1.399 . S
C2943 H2929 0.929 . S
C2943 C2942 1.399 . S
C2943 C2944 1.385 . S
C2944 H2930 0.931 . S
C2944 C2943 1.385 . S
C2944 C2945 1.389 . S
C2945 C2944 1.389 . S
C2945 C2946 1.387 . S
C2946 H2931 0.930 . S
C2946 C2941 1.390 . S
C2946 C2945 1.387 . S
H2947 C2959 0.930 . S
H2948 C2961 0.930 . S
H2949 C2962 0.930 . S
H2950 C2966 0.959 . S
H2951 C2966 0.959 . S
H2952 C2966 0.961 . S
H2953 C2967 0.960 . S
H2954 C2967 0.961 . S
H2955 C2967 0.959 . S
H2956 C2970 0.929 . S
H2957 C2971 0.931 . S
H2958 C2973 0.930 . S
C2959 H2947 0.930 . S
C2959 C2960 1.399 . S
C2959 C2964 1.399 . S
C2960 C2959 1.399 . S
C2960 C2961 1.376 . S
C2961 H2948 0.930 . S
C2961 C2960 1.376 . S
C2961 C2962 1.388 . S
C2962 H2949 0.930 . S
C2962 C2961 1.388 . S
C2962 C2963 1.390 . S
C2963 C2962 1.390 . S
C2963 C2964 1.394 . S
C2963 C2969 1.465 . S
C2964 C2959 1.399 . S
C2964 C2963 1.394 . S
C2964 C2965 1.516 . S
C2965 C2964 1.516 . S
C2965 C2966 1.502 . S
C2965 C2967 1.561 . S
C2965 C2968 1.526 . S
C2966 H2950 0.959 . S
C2966 H2951 0.959 . S
C2966 H2952 0.961 . S
C2966 C2965 1.502 . S
C2967 H2953 0.960 . S
C2967 H2954 0.961 . S
C2967 H2955 0.959 . S
C2967 C2965 1.561 . S
C2968 C2965 1.526 . S
C2968 C2969 1.396 . S
C2968 C2973 1.390 . S
C2969 C2963 1.465 . S
C2969 C2968 1.396 . S
C2969 C2970 1.399 . S
C2970 H2956 0.929 . S
C2970 C2969 1.399 . S
C2970 C2971 1.385 . S
C2971 H2957 0.931 . S
C2971 C2970 1.385 . S
C2971 C2972 1.389 . S
C2972 C2971 1.389 . S
C2972 C2973 1.387 . S
C2973 H2958 0.930 . S
C2973 C2968 1.390 . S
C2973 C2972 1.387 . S
H2974 C2986 0.930 . S
H2975 C2988 0.930 . S
H2976 C2989 0.930 . S
H2977 C2993 0.959 . S
H2978 C2993 0.959 . S
H2979 C2993 0.961 . S
H2980 C2994 0.960 . S
H2981 C2994 0.961 . S
H2982 C2994 0.959 . S
H2983 C2997 0.929 . S
H2984 C2998 0.931 . S
H2985 C3000 0.930 . S
C2986 H2974 0.930 . S
C2986 C2987 1.399 . S
C2986 C2991 1.399 . S
C2987 C2986 1.399 . S
C2987 C2988 1.376 . S
C2988 H2975 0.930 . S
C2988 C2987 1.376 . S
C2988 C2989 1.388 . S
C2989 H2976 0.930 . S
C2989 C2988 1.388 . S
C2989 C2990 1.390 . S
C2990 C2989 1.390 . S
C2990 C2991 1.394 . S
C2990 C2996 1.465 . S
C2991 C2986 1.399 . S
C2991 C2990 1.394 . S
C2991 C2992 1.516 . S
C2992 C2991 1.516 . S
C2992 C2993 1.502 . S
C2992 C2994 1.561 . S
C2992 C2995 1.526 . S
C2993 H2977 0.959 . S
C2993 H2978 0.959 . S
C2993 H2979 0.961 . S
C2993 C2992 1.502 . S
C2994 H2980 0.960 . S
C2994 H2981 0.961 . S
C2994 H2982 0.959 . S
C2994 C2992 1.561 . S
C2995 C2992 1.526 . S
C2995 C2996 1.396 . S
C2995 C3000 1.390 . S
C2996 C2990 1.465 . S
C2996 C2995 1.396 . S
C2996 C2997 1.399 . S
C2997 H2983 0.929 . S
C2997 C2996 1.399 . S
C2997 C2998 1.385 . S
C2998 H2984 0.931 . S
C2998 C2997 1.385 . S
C2998 C2999 1.389 . S
C2999 C2998 1.389 . S
C2999 C3000 1.387 . S
C3000 H2985 0.930 . S
C3000 C2995 1.390 . S
C3000 C2999 1.387 . S
H3001 C3013 0.930 . S
H3002 C3015 0.930 . S
H3003 C3016 0.930 . S
H3004 C3020 0.959 . S
H3005 C3020 0.959 . S
H3006 C3020 0.961 . S
H3007 C3021 0.960 . S
H3008 C3021 0.961 . S
H3009 C3021 0.959 . S
H3010 C3024 0.929 . S
H3011 C3025 0.931 . S
H3012 C3027 0.930 . S
C3013 H3001 0.930 . S
C3013 C3014 1.399 . S
C3013 C3018 1.399 . S
C3014 C3013 1.399 . S
C3014 C3015 1.376 . S
C3015 H3002 0.930 . S
C3015 C3014 1.376 . S
C3015 C3016 1.388 . S
C3016 H3003 0.930 . S
C3016 C3015 1.388 . S
C3016 C3017 1.390 . S
C3017 C3016 1.390 . S
C3017 C3018 1.394 . S
C3017 C3023 1.465 . S
C3018 C3013 1.399 . S
C3018 C3017 1.394 . S
C3018 C3019 1.516 . S
C3019 C3018 1.516 . S
C3019 C3020 1.502 . S
C3019 C3021 1.561 . S
C3019 C3022 1.526 . S
C3020 H3004 0.959 . S
C3020 H3005 0.959 . S
C3020 H3006 0.961 . S
C3020 C3019 1.502 . S
C3021 H3007 0.960 . S
C3021 H3008 0.961 . S
C3021 H3009 0.959 . S
C3021 C3019 1.561 . S
C3022 C3019 1.526 . S
C3022 C3023 1.396 . S
C3022 C3027 1.390 . S
C3023 C3017 1.465 . S
C3023 C3022 1.396 . S
C3023 C3024 1.399 . S
C3024 H3010 0.929 . S
C3024 C3023 1.399 . S
C3024 C3025 1.385 . S
C3025 H3011 0.931 . S
C3025 C3024 1.385 . S
C3025 C3026 1.389 . S
C3026 C3025 1.389 . S
C3026 C3027 1.387 . S
C3027 H3012 0.930 . S
C3027 C3022 1.390 . S
C3027 C3026 1.387 . S
H3028 C3040 0.930 . S
H3029 C3042 0.930 . S
H3030 C3043 0.930 . S
H3031 C3047 0.959 . S
H3032 C3047 0.959 . S
H3033 C3047 0.961 . S
H3034 C3048 0.960 . S
H3035 C3048 0.961 . S
H3036 C3048 0.959 . S
H3037 C3051 0.929 1_554 S
H3038 C3052 0.931 1_554 S
H3039 C3054 0.930 . S
C3040 H3028 0.930 . S
C3040 C3041 1.399 . S
C3040 C3045 1.399 . S
C3041 C3040 1.399 . S
C3041 C3042 1.376 . S
C3042 H3029 0.930 . S
C3042 C3041 1.376 . S
C3042 C3043 1.388 . S
C3043 H3030 0.930 . S
C3043 C3042 1.388 . S
C3043 C3044 1.390 . S
C3044 C3043 1.390 . S
C3044 C3045 1.394 . S
C3044 C3050 1.465 . S
C3045 C3040 1.399 . S
C3045 C3044 1.394 . S
C3045 C3046 1.516 . S
C3046 C3045 1.516 . S
C3046 C3047 1.502 . S
C3046 C3048 1.561 . S
C3046 C3049 1.526 . S
C3047 H3031 0.959 . S
C3047 H3032 0.959 . S
C3047 H3033 0.961 . S
C3047 C3046 1.502 . S
C3048 H3034 0.960 . S
C3048 H3035 0.961 . S
C3048 H3036 0.959 . S
C3048 C3046 1.561 . S
C3049 C3046 1.526 . S
C3049 C3050 1.396 . S
C3049 C3054 1.390 . S
C3050 C3044 1.465 . S
C3050 C3049 1.396 . S
C3050 C3051 1.399 . S
C3051 H3037 0.929 1_556 S
C3051 C3050 1.399 . S
C3051 C3052 1.385 . S
C3052 H3038 0.931 1_556 S
C3052 C3051 1.385 . S
C3052 C3053 1.389 . S
C3053 C3052 1.389 . S
C3053 C3054 1.387 . S
C3054 H3039 0.930 . S
C3054 C3049 1.390 . S
C3054 C3053 1.387 . S
H3055 C3067 0.930 . S
H3056 C3069 0.930 . S
H3057 C3070 0.930 . S
H3058 C3074 0.959 . S
H3059 C3074 0.959 . S
H3060 C3074 0.961 . S
H3061 C3075 0.960 . S
H3062 C3075 0.961 . S
H3063 C3075 0.959 . S
H3064 C3078 0.929 . S
H3065 C3079 0.931 . S
H3066 C3081 0.930 . S
C3067 H3055 0.930 . S
C3067 C3068 1.399 . S
C3067 C3072 1.399 . S
C3068 C3067 1.399 . S
C3068 C3069 1.376 . S
C3069 H3056 0.930 . S
C3069 C3068 1.376 . S
C3069 C3070 1.388 . S
C3070 H3057 0.930 . S
C3070 C3069 1.388 . S
C3070 C3071 1.390 . S
C3071 C3070 1.390 . S
C3071 C3072 1.394 . S
C3071 C3077 1.465 . S
C3072 C3067 1.399 . S
C3072 C3071 1.394 . S
C3072 C3073 1.516 . S
C3073 C3072 1.516 . S
C3073 C3074 1.502 . S
C3073 C3075 1.561 . S
C3073 C3076 1.526 . S
C3074 H3058 0.959 . S
C3074 H3059 0.959 . S
C3074 H3060 0.961 . S
C3074 C3073 1.502 . S
C3075 H3061 0.960 . S
C3075 H3062 0.961 . S
C3075 H3063 0.959 . S
C3075 C3073 1.561 . S
C3076 C3073 1.526 . S
C3076 C3077 1.396 . S
C3076 C3081 1.390 . S
C3077 C3071 1.465 . S
C3077 C3076 1.396 . S
C3077 C3078 1.399 . S
C3078 H3064 0.929 . S
C3078 C3077 1.399 . S
C3078 C3079 1.385 . S
C3079 H3065 0.931 . S
C3079 C3078 1.385 . S
C3079 C3080 1.389 . S
C3080 C3079 1.389 . S
C3080 C3081 1.387 . S
C3081 H3066 0.930 . S
C3081 C3076 1.390 . S
C3081 C3080 1.387 . S
H3082 C3094 0.930 . S
H3083 C3096 0.930 . S
H3084 C3097 0.930 . S
H3085 C3101 0.959 . S
H3086 C3101 0.959 . S
H3087 C3101 0.961 . S
H3088 C3102 0.960 . S
H3089 C3102 0.961 . S
H3090 C3102 0.959 . S
H3091 C3105 0.929 . S
H3092 C3106 0.931 . S
H3093 C3108 0.930 . S
C3094 H3082 0.930 . S
C3094 C3095 1.399 . S
C3094 C3099 1.399 . S
C3095 C3094 1.399 . S
C3095 C3096 1.376 . S
C3096 H3083 0.930 . S
C3096 C3095 1.376 . S
C3096 C3097 1.388 . S
C3097 H3084 0.930 . S
C3097 C3096 1.388 . S
C3097 C3098 1.390 . S
C3098 C3097 1.390 . S
C3098 C3099 1.394 . S
C3098 C3104 1.465 . S
C3099 C3094 1.399 . S
C3099 C3098 1.394 . S
C3099 C3100 1.516 . S
C3100 C3099 1.516 . S
C3100 C3101 1.502 . S
C3100 C3102 1.561 . S
C3100 C3103 1.526 . S
C3101 H3085 0.959 . S
C3101 H3086 0.959 . S
C3101 H3087 0.961 . S
C3101 C3100 1.502 . S
C3102 H3088 0.960 . S
C3102 H3089 0.961 . S
C3102 H3090 0.959 . S
C3102 C3100 1.561 . S
C3103 C3100 1.526 . S
C3103 C3104 1.396 . S
C3103 C3108 1.390 . S
C3104 C3098 1.465 . S
C3104 C3103 1.396 . S
C3104 C3105 1.399 . S
C3105 H3091 0.929 . S
C3105 C3104 1.399 . S
C3105 C3106 1.385 . S
C3106 H3092 0.931 . S
C3106 C3105 1.385 . S
C3106 C3107 1.389 . S
C3107 C3106 1.389 . S
C3107 C3108 1.387 . S
C3108 H3093 0.930 . S
C3108 C3103 1.390 . S
C3108 C3107 1.387 . S
H3109 C3121 0.930 . S
H3110 C3123 0.930 . S
H3111 C3124 0.930 . S
H3112 C3128 0.959 . S
H3113 C3128 0.959 . S
H3114 C3128 0.961 . S
H3115 C3129 0.960 . S
H3116 C3129 0.961 . S
H3117 C3129 0.959 . S
H3118 C3132 0.929 . S
H3119 C3133 0.931 . S
H3120 C3135 0.930 . S
C3121 H3109 0.930 . S
C3121 C3122 1.399 . S
C3121 C3126 1.399 . S
C3122 C3121 1.399 . S
C3122 C3123 1.376 . S
C3123 H3110 0.930 . S
C3123 C3122 1.376 . S
C3123 C3124 1.388 . S
C3124 H3111 0.930 . S
C3124 C3123 1.388 . S
C3124 C3125 1.390 . S
C3125 C3124 1.390 . S
C3125 C3126 1.394 . S
C3125 C3131 1.465 . S
C3126 C3121 1.399 . S
C3126 C3125 1.394 . S
C3126 C3127 1.516 . S
C3127 C3126 1.516 . S
C3127 C3128 1.502 . S
C3127 C3129 1.561 . S
C3127 C3130 1.526 . S
C3128 H3112 0.959 . S
C3128 H3113 0.959 . S
C3128 H3114 0.961 . S
C3128 C3127 1.502 . S
C3129 H3115 0.960 . S
C3129 H3116 0.961 . S
C3129 H3117 0.959 . S
C3129 C3127 1.561 . S
C3130 C3127 1.526 . S
C3130 C3131 1.396 . S
C3130 C3135 1.390 . S
C3131 C3125 1.465 . S
C3131 C3130 1.396 . S
C3131 C3132 1.399 . S
C3132 H3118 0.929 . S
C3132 C3131 1.399 . S
C3132 C3133 1.385 . S
C3133 H3119 0.931 . S
C3133 C3132 1.385 . S
C3133 C3134 1.389 . S
C3134 C3133 1.389 . S
C3134 C3135 1.387 . S
C3135 H3120 0.930 . S
C3135 C3130 1.390 . S
C3135 C3134 1.387 . S
H3136 C3148 0.930 . S
H3137 C3150 0.930 . S
H3138 C3151 0.930 . S
H3139 C3155 0.959 . S
H3140 C3155 0.959 . S
H3141 C3155 0.961 . S
H3142 C3156 0.960 . S
H3143 C3156 0.961 . S
H3144 C3156 0.959 . S
H3145 C3159 0.929 . S
H3146 C3160 0.931 . S
H3147 C3162 0.930 . S
C3148 H3136 0.930 . S
C3148 C3149 1.399 . S
C3148 C3153 1.399 . S
C3149 C3148 1.399 . S
C3149 C3150 1.376 . S
C3150 H3137 0.930 . S
C3150 C3149 1.376 . S
C3150 C3151 1.388 . S
C3151 H3138 0.930 . S
C3151 C3150 1.388 . S
C3151 C3152 1.390 . S
C3152 C3151 1.390 . S
C3152 C3153 1.394 . S
C3152 C3158 1.465 . S
C3153 C3148 1.399 . S
C3153 C3152 1.394 . S
C3153 C3154 1.516 . S
C3154 C3153 1.516 . S
C3154 C3155 1.502 . S
C3154 C3156 1.561 . S
C3154 C3157 1.526 . S
C3155 H3139 0.959 . S
C3155 H3140 0.959 . S
C3155 H3141 0.961 . S
C3155 C3154 1.502 . S
C3156 H3142 0.960 . S
C3156 H3143 0.961 . S
C3156 H3144 0.959 . S
C3156 C3154 1.561 . S
C3157 C3154 1.526 . S
C3157 C3158 1.396 . S
C3157 C3162 1.390 . S
C3158 C3152 1.465 . S
C3158 C3157 1.396 . S
C3158 C3159 1.399 . S
C3159 H3145 0.929 . S
C3159 C3158 1.399 . S
C3159 C3160 1.385 . S
C3160 H3146 0.931 . S
C3160 C3159 1.385 . S
C3160 C3161 1.389 . S
C3161 C3160 1.389 . S
C3161 C3162 1.387 . S
C3162 H3147 0.930 . S
C3162 C3157 1.390 . S
C3162 C3161 1.387 . S
H3163 C3175 0.930 . S
H3164 C3177 0.930 . S
H3165 C3178 0.930 . S
H3166 C3182 0.959 . S
H3167 C3182 0.959 . S
H3168 C3182 0.961 . S
H3169 C3183 0.960 . S
H3170 C3183 0.961 . S
H3171 C3183 0.959 . S
H3172 C3186 0.929 . S
H3173 C3187 0.931 . S
H3174 C3189 0.930 . S
C3175 H3163 0.930 . S
C3175 C3176 1.399 . S
C3175 C3180 1.399 . S
C3176 C3175 1.399 . S
C3176 C3177 1.376 . S
C3177 H3164 0.930 . S
C3177 C3176 1.376 . S
C3177 C3178 1.388 . S
C3178 H3165 0.930 . S
C3178 C3177 1.388 . S
C3178 C3179 1.390 . S
C3179 C3178 1.390 . S
C3179 C3180 1.394 . S
C3179 C3185 1.465 . S
C3180 C3175 1.399 . S
C3180 C3179 1.394 . S
C3180 C3181 1.516 . S
C3181 C3180 1.516 . S
C3181 C3182 1.502 . S
C3181 C3183 1.561 . S
C3181 C3184 1.526 . S
C3182 H3166 0.959 . S
C3182 H3167 0.959 . S
C3182 H3168 0.961 . S
C3182 C3181 1.502 . S
C3183 H3169 0.960 . S
C3183 H3170 0.961 . S
C3183 H3171 0.959 . S
C3183 C3181 1.561 . S
C3184 C3181 1.526 . S
C3184 C3185 1.396 . S
C3184 C3189 1.390 . S
C3185 C3179 1.465 . S
C3185 C3184 1.396 . S
C3185 C3186 1.399 . S
C3186 H3172 0.929 . S
C3186 C3185 1.399 . S
C3186 C3187 1.385 . S
C3187 H3173 0.931 . S
C3187 C3186 1.385 . S
C3187 C3188 1.389 . S
C3188 C3187 1.389 . S
C3188 C3189 1.387 . S
C3189 H3174 0.930 . S
C3189 C3184 1.390 . S
C3189 C3188 1.387 . S
H3190 C3202 0.930 . S
H3191 C3204 0.930 1_655 S
H3192 C3205 0.930 1_655 S
H3193 C3209 0.959 . S
H3194 C3209 0.959 . S
H3195 C3209 0.961 . S
H3196 C3210 0.960 . S
H3197 C3210 0.961 . S
H3198 C3210 0.959 . S
H3199 C3213 0.929 . S
H3200 C3214 0.931 . S
H3201 C3216 0.930 . S
C3202 H3190 0.930 . S
C3202 C3203 1.399 . S
C3202 C3207 1.399 . S
C3203 C3202 1.399 . S
C3203 C3204 1.376 . S
C3204 H3191 0.930 1_455 S
C3204 C3203 1.376 . S
C3204 C3205 1.388 . S
C3205 H3192 0.930 1_455 S
C3205 C3204 1.388 . S
C3205 C3206 1.390 . S
C3206 C3205 1.390 . S
C3206 C3207 1.394 . S
C3206 C3212 1.465 . S
C3207 C3202 1.399 . S
C3207 C3206 1.394 . S
C3207 C3208 1.516 . S
C3208 C3207 1.516 . S
C3208 C3209 1.502 . S
C3208 C3210 1.561 . S
C3208 C3211 1.526 . S
C3209 H3193 0.959 . S
C3209 H3194 0.959 . S
C3209 H3195 0.961 . S
C3209 C3208 1.502 . S
C3210 H3196 0.960 . S
C3210 H3197 0.961 . S
C3210 H3198 0.959 . S
C3210 C3208 1.561 . S
C3211 C3208 1.526 . S
C3211 C3212 1.396 . S
C3211 C3216 1.390 . S
C3212 C3206 1.465 . S
C3212 C3211 1.396 . S
C3212 C3213 1.399 . S
C3213 H3199 0.929 . S
C3213 C3212 1.399 . S
C3213 C3214 1.385 . S
C3214 H3200 0.931 . S
C3214 C3213 1.385 . S
C3214 C3215 1.389 . S
C3215 C3214 1.389 . S
C3215 C3216 1.387 . S
C3216 H3201 0.930 . S
C3216 C3211 1.390 . S
C3216 C3215 1.387 . S
H3217 C3229 0.930 . S
H3218 C3231 0.930 . S
H3219 C3232 0.930 . S
H3220 C3236 0.959 . S
H3221 C3236 0.959 . S
H3222 C3236 0.961 . S
H3223 C3237 0.960 . S
H3224 C3237 0.961 . S
H3225 C3237 0.959 . S
H3226 C3240 0.929 . S
H3227 C3241 0.931 . S
H3228 C3243 0.930 . S
C3229 H3217 0.930 . S
C3229 C3230 1.399 . S
C3229 C3234 1.399 . S
C3230 C3229 1.399 . S
C3230 C3231 1.376 . S
C3231 H3218 0.930 . S
C3231 C3230 1.376 . S
C3231 C3232 1.388 . S
C3232 H3219 0.930 . S
C3232 C3231 1.388 . S
C3232 C3233 1.390 . S
C3233 C3232 1.390 . S
C3233 C3234 1.394 . S
C3233 C3239 1.465 . S
C3234 C3229 1.399 . S
C3234 C3233 1.394 . S
C3234 C3235 1.516 . S
C3235 C3234 1.516 . S
C3235 C3236 1.502 . S
C3235 C3237 1.561 . S
C3235 C3238 1.526 . S
C3236 H3220 0.959 . S
C3236 H3221 0.959 . S
C3236 H3222 0.961 . S
C3236 C3235 1.502 . S
C3237 H3223 0.960 . S
C3237 H3224 0.961 . S
C3237 H3225 0.959 . S
C3237 C3235 1.561 . S
C3238 C3235 1.526 . S
C3238 C3239 1.396 . S
C3238 C3243 1.390 . S
C3239 C3233 1.465 . S
C3239 C3238 1.396 . S
C3239 C3240 1.399 . S
C3240 H3226 0.929 . S
C3240 C3239 1.399 . S
C3240 C3241 1.385 . S
C3241 H3227 0.931 . S
C3241 C3240 1.385 . S
C3241 C3242 1.389 . S
C3242 C3241 1.389 . S
C3242 C3243 1.387 . S
C3243 H3228 0.930 . S
C3243 C3238 1.390 . S
C3243 C3242 1.387 . S
H3244 C3256 0.930 . S
H3245 C3258 0.930 . S
H3246 C3259 0.930 . S
H3247 C3263 0.959 . S
H3248 C3263 0.959 . S
H3249 C3263 0.961 . S
H3250 C3264 0.960 . S
H3251 C3264 0.961 . S
H3252 C3264 0.959 . S
H3253 C3267 0.929 . S
H3254 C3268 0.931 . S
H3255 C3270 0.930 . S
C3256 H3244 0.930 . S
C3256 C3257 1.399 . S
C3256 C3261 1.399 . S
C3257 C3256 1.399 . S
C3257 C3258 1.376 . S
C3258 H3245 0.930 . S
C3258 C3257 1.376 . S
C3258 C3259 1.388 . S
C3259 H3246 0.930 . S
C3259 C3258 1.388 . S
C3259 C3260 1.390 . S
C3260 C3259 1.390 . S
C3260 C3261 1.394 . S
C3260 C3266 1.465 . S
C3261 C3256 1.399 . S
C3261 C3260 1.394 . S
C3261 C3262 1.516 . S
C3262 C3261 1.516 . S
C3262 C3263 1.502 . S
C3262 C3264 1.561 . S
C3262 C3265 1.526 . S
C3263 H3247 0.959 . S
C3263 H3248 0.959 . S
C3263 H3249 0.961 . S
C3263 C3262 1.502 . S
C3264 H3250 0.960 . S
C3264 H3251 0.961 . S
C3264 H3252 0.959 . S
C3264 C3262 1.561 . S
C3265 C3262 1.526 . S
C3265 C3266 1.396 . S
C3265 C3270 1.390 . S
C3266 C3260 1.465 . S
C3266 C3265 1.396 . S
C3266 C3267 1.399 . S
C3267 H3253 0.929 . S
C3267 C3266 1.399 . S
C3267 C3268 1.385 . S
C3268 H3254 0.931 . S
C3268 C3267 1.385 . S
C3268 C3269 1.389 . S
C3269 C3268 1.389 . S
C3269 C3270 1.387 . S
C3270 H3255 0.930 . S
C3270 C3265 1.390 . S
C3270 C3269 1.387 . S
H3271 C3283 0.930 . S
H3272 C3285 0.930 . S
H3273 C3286 0.930 . S
H3274 C3290 0.959 . S
H3275 C3290 0.959 . S
H3276 C3290 0.961 . S
H3277 C3291 0.960 . S
H3278 C3291 0.961 . S
H3279 C3291 0.959 . S
H3280 C3294 0.929 . S
H3281 C3295 0.931 . S
H3282 C3297 0.930 . S
C3283 H3271 0.930 . S
C3283 C3284 1.399 . S
C3283 C3288 1.399 . S
C3284 C3283 1.399 . S
C3284 C3285 1.376 . S
C3285 H3272 0.930 . S
C3285 C3284 1.376 . S
C3285 C3286 1.388 . S
C3286 H3273 0.930 . S
C3286 C3285 1.388 . S
C3286 C3287 1.390 . S
C3287 C3286 1.390 . S
C3287 C3288 1.394 . S
C3287 C3293 1.465 . S
C3288 C3283 1.399 . S
C3288 C3287 1.394 . S
C3288 C3289 1.516 . S
C3289 C3288 1.516 . S
C3289 C3290 1.502 . S
C3289 C3291 1.561 . S
C3289 C3292 1.526 . S
C3290 H3274 0.959 . S
C3290 H3275 0.959 . S
C3290 H3276 0.961 . S
C3290 C3289 1.502 . S
C3291 H3277 0.960 . S
C3291 H3278 0.961 . S
C3291 H3279 0.959 . S
C3291 C3289 1.561 . S
C3292 C3289 1.526 . S
C3292 C3293 1.396 . S
C3292 C3297 1.390 . S
C3293 C3287 1.465 . S
C3293 C3292 1.396 . S
C3293 C3294 1.399 . S
C3294 H3280 0.929 . S
C3294 C3293 1.399 . S
C3294 C3295 1.385 . S
C3295 H3281 0.931 . S
C3295 C3294 1.385 . S
C3295 C3296 1.389 . S
C3296 C3295 1.389 . S
C3296 C3297 1.387 . S
C3297 H3282 0.930 . S
C3297 C3292 1.390 . S
C3297 C3296 1.387 . S
H3298 C3310 0.930 . S
H3299 C3312 0.930 . S
H3300 C3313 0.930 . S
H3301 C3317 0.959 . S
H3302 C3317 0.959 . S
H3303 C3317 0.961 . S
H3304 C3318 0.960 . S
H3305 C3318 0.961 . S
H3306 C3318 0.959 . S
H3307 C3321 0.929 . S
H3308 C3322 0.931 . S
H3309 C3324 0.930 . S
C3310 H3298 0.930 . S
C3310 C3311 1.399 . S
C3310 C3315 1.399 . S
C3311 C3310 1.399 . S
C3311 C3312 1.376 . S
C3312 H3299 0.930 . S
C3312 C3311 1.376 . S
C3312 C3313 1.388 . S
C3313 H3300 0.930 . S
C3313 C3312 1.388 . S
C3313 C3314 1.390 . S
C3314 C3313 1.390 . S
C3314 C3315 1.394 . S
C3314 C3320 1.465 . S
C3315 C3310 1.399 . S
C3315 C3314 1.394 . S
C3315 C3316 1.516 . S
C3316 C3315 1.516 . S
C3316 C3317 1.502 . S
C3316 C3318 1.561 1_455 S
C3316 C3319 1.526 . S
C3317 H3301 0.959 . S
C3317 H3302 0.959 . S
C3317 H3303 0.961 . S
C3317 C3316 1.502 . S
C3318 H3304 0.960 . S
C3318 H3305 0.961 . S
C3318 H3306 0.959 . S
C3318 C3316 1.561 1_655 S
C3319 C3316 1.526 . S
C3319 C3320 1.396 . S
C3319 C3324 1.390 . S
C3320 C3314 1.465 . S
C3320 C3319 1.396 . S
C3320 C3321 1.399 . S
C3321 H3307 0.929 . S
C3321 C3320 1.399 . S
C3321 C3322 1.385 . S
C3322 H3308 0.931 . S
C3322 C3321 1.385 . S
C3322 C3323 1.389 . S
C3323 C3322 1.389 . S
C3323 C3324 1.387 . S
C3324 H3309 0.930 . S
C3324 C3319 1.390 . S
C3324 C3323 1.387 . S
H3325 C3337 0.930 . S
H3326 C3339 0.930 . S
H3327 C3340 0.930 . S
H3328 C3344 0.959 . S
H3329 C3344 0.959 . S
H3330 C3344 0.961 . S
H3331 C3345 0.960 . S
H3332 C3345 0.961 . S
H3333 C3345 0.959 . S
H3334 C3348 0.929 . S
H3335 C3349 0.931 . S
H3336 C3351 0.930 . S
C3337 H3325 0.930 . S
C3337 C3338 1.399 . S
C3337 C3342 1.399 . S
C3338 C3337 1.399 . S
C3338 C3339 1.376 . S
C3339 H3326 0.930 . S
C3339 C3338 1.376 . S
C3339 C3340 1.388 . S
C3340 H3327 0.930 . S
C3340 C3339 1.388 . S
C3340 C3341 1.390 . S
C3341 C3340 1.390 . S
C3341 C3342 1.394 . S
C3341 C3347 1.465 . S
C3342 C3337 1.399 . S
C3342 C3341 1.394 . S
C3342 C3343 1.516 . S
C3343 C3342 1.516 . S
C3343 C3344 1.502 . S
C3343 C3345 1.561 . S
C3343 C3346 1.526 . S
C3344 H3328 0.959 . S
C3344 H3329 0.959 . S
C3344 H3330 0.961 . S
C3344 C3343 1.502 . S
C3345 H3331 0.960 . S
C3345 H3332 0.961 . S
C3345 H3333 0.959 . S
C3345 C3343 1.561 . S
C3346 C3343 1.526 . S
C3346 C3347 1.396 . S
C3346 C3351 1.390 . S
C3347 C3341 1.465 . S
C3347 C3346 1.396 . S
C3347 C3348 1.399 . S
C3348 H3334 0.929 . S
C3348 C3347 1.399 . S
C3348 C3349 1.385 . S
C3349 H3335 0.931 . S
C3349 C3348 1.385 . S
C3349 C3350 1.389 . S
C3350 C3349 1.389 . S
C3350 C3351 1.387 . S
C3351 H3336 0.930 . S
C3351 C3346 1.390 . S
C3351 C3350 1.387 . S
H3352 C3364 0.930 . S
H3353 C3366 0.930 . S
H3354 C3367 0.930 . S
H3355 C3371 0.959 . S
H3356 C3371 0.959 . S
H3357 C3371 0.961 . S
H3358 C3372 0.960 . S
H3359 C3372 0.961 . S
H3360 C3372 0.959 . S
H3361 C3375 0.929 . S
H3362 C3376 0.931 . S
H3363 C3378 0.930 . S
C3364 H3352 0.930 . S
C3364 C3365 1.399 . S
C3364 C3369 1.399 . S
C3365 C3364 1.399 . S
C3365 C3366 1.376 . S
C3366 H3353 0.930 . S
C3366 C3365 1.376 . S
C3366 C3367 1.388 . S
C3367 H3354 0.930 . S
C3367 C3366 1.388 . S
C3367 C3368 1.390 . S
C3368 C3367 1.390 . S
C3368 C3369 1.394 . S
C3368 C3374 1.465 . S
C3369 C3364 1.399 . S
C3369 C3368 1.394 . S
C3369 C3370 1.516 . S
C3370 C3369 1.516 . S
C3370 C3371 1.502 . S
C3370 C3372 1.561 . S
C3370 C3373 1.526 . S
C3371 H3355 0.959 . S
C3371 H3356 0.959 . S
C3371 H3357 0.961 . S
C3371 C3370 1.502 . S
C3372 H3358 0.960 . S
C3372 H3359 0.961 . S
C3372 H3360 0.959 . S
C3372 C3370 1.561 . S
C3373 C3370 1.526 . S
C3373 C3374 1.396 . S
C3373 C3378 1.390 . S
C3374 C3368 1.465 . S
C3374 C3373 1.396 . S
C3374 C3375 1.399 . S
C3375 H3361 0.929 . S
C3375 C3374 1.399 . S
C3375 C3376 1.385 . S
C3376 H3362 0.931 . S
C3376 C3375 1.385 . S
C3376 C3377 1.389 . S
C3377 C3376 1.389 . S
C3377 C3378 1.387 . S
C3378 H3363 0.930 . S
C3378 C3373 1.390 . S
C3378 C3377 1.387 . S
H3379 C3391 0.930 . S
H3380 C3393 0.930 . S
H3381 C3394 0.930 . S
H3382 C3398 0.959 . S
H3383 C3398 0.959 . S
H3384 C3398 0.961 . S
H3385 C3399 0.960 . S
H3386 C3399 0.961 . S
H3387 C3399 0.959 . S
H3388 C3402 0.941 . S
H3389 C3403 0.931 . S
H3390 C3405 0.930 . S
C3391 H3379 0.930 . S
C3391 C3392 1.399 . S
C3391 C3396 1.399 . S
C3392 C3391 1.399 . S
C3392 C3393 1.376 . S
C3393 H3380 0.930 . S
C3393 C3392 1.376 . S
C3393 C3394 1.388 . S
C3394 H3381 0.930 . S
C3394 C3393 1.388 . S
C3394 C3395 1.390 . S
C3395 C3394 1.390 . S
C3395 C3396 1.394 . S
C3395 C3401 1.465 . S
C3396 C3391 1.399 . S
C3396 C3395 1.394 . S
C3396 C3397 1.516 . S
C3397 C3396 1.516 . S
C3397 C3398 1.502 . S
C3397 C3399 1.561 . S
C3397 C3400 1.526 . S
C3398 H3382 0.959 . S
C3398 H3383 0.959 . S
C3398 H3384 0.961 . S
C3398 C3397 1.502 . S
C3399 H3385 0.960 . S
C3399 H3386 0.961 . S
C3399 H3387 0.959 . S
C3399 C3397 1.561 . S
C3400 C3397 1.526 . S
C3400 C3401 1.396 . S
C3400 C3405 1.390 . S
C3401 C3395 1.465 . S
C3401 C3400 1.396 . S
C3401 C3402 1.383 1_565 S
C3402 H3388 0.941 . S
C3402 C3401 1.383 1_545 S
C3402 C3403 1.391 . S
C3403 H3389 0.931 . S
C3403 C3402 1.391 . S
C3403 C3404 1.389 . S
C3404 C3403 1.389 . S
C3404 C3405 1.387 1_545 S
C3405 H3390 0.930 . S
C3405 C3400 1.390 . S
C3405 C3404 1.387 1_565 S
H3406 C3418 0.930 . S
H3407 C3420 0.930 . S
H3408 C3421 0.930 . S
H3409 C3425 0.959 . S
H3410 C3425 0.959 . S
H3411 C3425 0.961 . S
H3412 C3426 0.960 . S
H3413 C3426 0.961 . S
H3414 C3426 0.959 . S
H3415 C3429 0.929 . S
H3416 C3430 0.931 . S
H3417 C3432 0.930 . S
C3418 H3406 0.930 . S
C3418 C3419 1.399 . S
C3418 C3423 1.399 . S
C3419 C3418 1.399 . S
C3419 C3420 1.376 . S
C3420 H3407 0.930 . S
C3420 C3419 1.376 . S
C3420 C3421 1.388 . S
C3421 H3408 0.930 . S
C3421 C3420 1.388 . S
C3421 C3422 1.390 . S
C3422 C3421 1.390 . S
C3422 C3423 1.394 . S
C3422 C3428 1.465 . S
C3423 C3418 1.399 . S
C3423 C3422 1.394 . S
C3423 C3424 1.516 . S
C3424 C3423 1.516 . S
C3424 C3425 1.502 . S
C3424 C3426 1.561 . S
C3424 C3427 1.526 . S
C3425 H3409 0.959 . S
C3425 H3410 0.959 . S
C3425 H3411 0.961 . S
C3425 C3424 1.502 . S
C3426 H3412 0.960 . S
C3426 H3413 0.961 . S
C3426 H3414 0.959 . S
C3426 C3424 1.561 . S
C3427 C3424 1.526 . S
C3427 C3428 1.396 . S
C3427 C3432 1.390 . S
C3428 C3422 1.465 . S
C3428 C3427 1.396 . S
C3428 C3429 1.399 . S
C3429 H3415 0.929 . S
C3429 C3428 1.399 . S
C3429 C3430 1.385 . S
C3430 H3416 0.931 . S
C3430 C3429 1.385 . S
C3430 C3431 1.389 . S
C3431 C3430 1.389 . S
C3431 C3432 1.387 . S
C3432 H3417 0.930 . S
C3432 C3427 1.390 . S
C3432 C3431 1.387 . S
H3433 C3445 0.930 . S
H3434 C3447 0.930 . S
H3435 C3448 0.930 . S
H3436 C3452 0.959 . S
H3437 C3452 0.959 . S
H3438 C3452 0.961 . S
H3439 C3453 0.960 . S
H3440 C3453 0.961 . S
H3441 C3453 0.959 . S
H3442 C3456 0.929 . S
H3443 C3457 0.931 . S
H3444 C3459 0.930 . S
C3445 H3433 0.930 . S
C3445 C3446 1.399 . S
C3445 C3450 1.399 . S
C3446 C3445 1.399 . S
C3446 C3447 1.376 1_556 S
C3447 H3434 0.930 . S
C3447 C3446 1.376 1_554 S
C3447 C3448 1.388 . S
C3448 H3435 0.930 . S
C3448 C3447 1.388 . S
C3448 C3449 1.390 . S
C3449 C3448 1.390 . S
C3449 C3450 1.394 1_554 S
C3449 C3455 1.465 . S
C3450 C3445 1.399 . S
C3450 C3449 1.394 1_556 S
C3450 C3451 1.516 . S
C3451 C3450 1.516 . S
C3451 C3452 1.502 . S
C3451 C3453 1.561 . S
C3451 C3454 1.526 . S
C3452 H3436 0.959 . S
C3452 H3437 0.959 . S
C3452 H3438 0.961 . S
C3452 C3451 1.502 . S
C3453 H3439 0.960 . S
C3453 H3440 0.961 . S
C3453 H3441 0.959 . S
C3453 C3451 1.561 . S
C3454 C3451 1.526 . S
C3454 C3455 1.396 1_556 S
C3454 C3459 1.390 . S
C3455 C3449 1.465 . S
C3455 C3454 1.396 1_554 S
C3455 C3456 1.399 . S
C3456 H3442 0.929 . S
C3456 C3455 1.399 . S
C3456 C3457 1.385 . S
C3457 H3443 0.931 . S
C3457 C3456 1.385 . S
C3457 C3458 1.389 . S
C3458 C3457 1.389 . S
C3458 C3459 1.387 1_554 S
C3459 H3444 0.930 . S
C3459 C3454 1.390 . S
C3459 C3458 1.387 1_556 S
H3460 C3472 0.930 . S
H3461 C3474 0.930 . S
H3462 C3475 0.930 . S
H3463 C3479 0.959 . S
H3464 C3479 0.959 . S
H3465 C3479 0.961 . S
H3466 C3480 0.960 . S
H3467 C3480 0.961 . S
H3468 C3480 0.959 . S
H3469 C3483 0.929 . S
H3470 C3484 0.931 . S
H3471 C3486 0.930 . S
C3472 H3460 0.930 . S
C3472 C3473 1.399 . S
C3472 C3477 1.399 . S
C3473 C3472 1.399 . S
C3473 C3474 1.376 . S
C3474 H3461 0.930 . S
C3474 C3473 1.376 . S
C3474 C3475 1.388 . S
C3475 H3462 0.930 . S
C3475 C3474 1.388 . S
C3475 C3476 1.390 . S
C3476 C3475 1.390 . S
C3476 C3477 1.394 . S
C3476 C3482 1.465 . S
C3477 C3472 1.399 . S
C3477 C3476 1.394 . S
C3477 C3478 1.516 . S
C3478 C3477 1.516 . S
C3478 C3479 1.502 . S
C3478 C3480 1.561 . S
C3478 C3481 1.526 . S
C3479 H3463 0.959 . S
C3479 H3464 0.959 . S
C3479 H3465 0.961 . S
C3479 C3478 1.502 . S
C3480 H3466 0.960 . S
C3480 H3467 0.961 . S
C3480 H3468 0.959 . S
C3480 C3478 1.561 . S
C3481 C3478 1.526 . S
C3481 C3482 1.396 . S
C3481 C3486 1.390 . S
C3482 C3476 1.465 . S
C3482 C3481 1.396 . S
C3482 C3483 1.399 . S
C3483 H3469 0.929 . S
C3483 C3482 1.399 . S
C3483 C3484 1.385 . S
C3484 H3470 0.931 . S
C3484 C3483 1.385 . S
C3484 C3485 1.389 . S
C3485 C3484 1.389 . S
C3485 C3486 1.387 . S
C3486 H3471 0.930 . S
C3486 C3481 1.390 . S
C3486 C3485 1.387 . S
H3487 C3499 0.930 1_556 S
H3488 C3501 0.930 . S
H3489 C3502 0.930 . S
H3490 C3506 0.959 1_554 S
H3491 C3506 0.959 . S
H3492 C3506 0.961 . S
H3493 C3507 0.960 . S
H3494 C3507 0.961 . S
H3495 C3507 0.959 . S
H3496 C3510 0.929 . S
H3497 C3511 0.931 . S
H3498 C3513 0.930 1_556 S
C3499 H3487 0.930 1_554 S
C3499 C3500 1.399 . S
C3499 C3504 1.399 . S
C3500 C3499 1.399 . S
C3500 C3501 1.376 . S
C3501 H3488 0.930 . S
C3501 C3500 1.376 . S
C3501 C3502 1.388 . S
C3502 H3489 0.930 . S
C3502 C3501 1.388 . S
C3502 C3503 1.390 . S
C3503 C3502 1.390 . S
C3503 C3504 1.394 . S
C3503 C3509 1.465 . S
C3504 C3499 1.399 . S
C3504 C3503 1.394 . S
C3504 C3505 1.516 1_554 S
C3505 C3504 1.516 1_556 S
C3505 C3506 1.502 . S
C3505 C3507 1.561 . S
C3505 C3508 1.526 1_556 S
C3506 H3490 0.959 1_556 S
C3506 H3491 0.959 . S
C3506 H3492 0.961 . S
C3506 C3505 1.502 . S
C3507 H3493 0.960 . S
C3507 H3494 0.961 . S
C3507 H3495 0.959 . S
C3507 C3505 1.561 . S
C3508 C3505 1.526 1_554 S
C3508 C3509 1.396 . S
C3508 C3513 1.390 . S
C3509 C3503 1.465 . S
C3509 C3508 1.396 . S
C3509 C3510 1.399 . S
C3510 H3496 0.929 . S
C3510 C3509 1.399 . S
C3510 C3511 1.385 . S
C3511 H3497 0.931 . S
C3511 C3510 1.385 . S
C3511 C3512 1.389 . S
C3512 C3511 1.389 . S
C3512 C3513 1.387 . S
C3513 H3498 0.930 1_554 S
C3513 C3508 1.390 . S
C3513 C3512 1.387 . S
H3514 C3526 0.930 . S
H3515 C3528 0.930 . S
H3516 C3529 0.930 . S
H3517 C3533 0.959 . S
H3518 C3533 0.959 . S
H3519 C3533 0.961 . S
H3520 C3534 0.960 . S
H3521 C3534 0.961 . S
H3522 C3534 0.959 . S
H3523 C3537 0.929 . S
H3524 C3538 0.931 . S
H3525 C3540 0.930 . S
C3526 H3514 0.930 . S
C3526 C3527 1.399 . S
C3526 C3531 1.399 . S
C3527 C3526 1.399 . S
C3527 C3528 1.376 . S
C3528 H3515 0.930 . S
C3528 C3527 1.376 . S
C3528 C3529 1.388 . S
C3529 H3516 0.930 . S
C3529 C3528 1.388 . S
C3529 C3530 1.390 . S
C3530 C3529 1.390 . S
C3530 C3531 1.394 . S
C3530 C3536 1.465 . S
C3531 C3526 1.399 . S
C3531 C3530 1.394 . S
C3531 C3532 1.516 . S
C3532 C3531 1.516 . S
C3532 C3533 1.502 . S
C3532 C3534 1.561 . S
C3532 C3535 1.526 . S
C3533 H3517 0.959 . S
C3533 H3518 0.959 . S
C3533 H3519 0.961 . S
C3533 C3532 1.502 . S
C3534 H3520 0.960 . S
C3534 H3521 0.961 . S
C3534 H3522 0.959 . S
C3534 C3532 1.561 . S
C3535 C3532 1.526 . S
C3535 C3536 1.396 . S
C3535 C3540 1.390 . S
C3536 C3530 1.465 . S
C3536 C3535 1.396 . S
C3536 C3537 1.399 . S
C3537 H3523 0.929 . S
C3537 C3536 1.399 . S
C3537 C3538 1.385 . S
C3538 H3524 0.931 . S
C3538 C3537 1.385 . S
C3538 C3539 1.389 . S
C3539 C3538 1.389 . S
C3539 C3540 1.387 . S
C3540 H3525 0.930 . S
C3540 C3535 1.390 . S
C3540 C3539 1.387 . S
H3541 C3553 0.930 . S
H3542 C3555 0.930 . S
H3543 C3556 0.930 . S
H3544 C3560 0.959 . S
H3545 C3560 0.959 . S
H3546 C3560 0.961 . S
H3547 C3561 0.960 . S
H3548 C3561 0.961 . S
H3549 C3561 0.959 . S
H3550 C3564 0.929 . S
H3551 C3565 0.931 . S
H3552 C3567 0.930 . S
C3553 H3541 0.930 . S
C3553 C3554 1.399 . S
C3553 C3558 1.399 . S
C3554 C3553 1.399 . S
C3554 C3555 1.376 . S
C3555 H3542 0.930 . S
C3555 C3554 1.376 . S
C3555 C3556 1.388 . S
C3556 H3543 0.930 . S
C3556 C3555 1.388 . S
C3556 C3557 1.390 . S
C3557 C3556 1.390 . S
C3557 C3558 1.394 . S
C3557 C3563 1.465 . S
C3558 C3553 1.399 . S
C3558 C3557 1.394 . S
C3558 C3559 1.516 . S
C3559 C3558 1.516 . S
C3559 C3560 1.502 . S
C3559 C3561 1.561 . S
C3559 C3562 1.526 . S
C3560 H3544 0.959 . S
C3560 H3545 0.959 . S
C3560 H3546 0.961 . S
C3560 C3559 1.502 . S
C3561 H3547 0.960 . S
C3561 H3548 0.961 . S
C3561 H3549 0.959 . S
C3561 C3559 1.561 . S
C3562 C3559 1.526 . S
C3562 C3563 1.396 . S
C3562 C3567 1.390 . S
C3563 C3557 1.465 . S
C3563 C3562 1.396 . S
C3563 C3564 1.399 . S
C3564 H3550 0.929 . S
C3564 C3563 1.399 . S
C3564 C3565 1.385 . S
C3565 H3551 0.931 . S
C3565 C3564 1.385 . S
C3565 C3566 1.389 . S
C3566 C3565 1.389 . S
C3566 C3567 1.387 . S
C3567 H3552 0.930 . S
C3567 C3562 1.390 . S
C3567 C3566 1.387 . S
C989 C105 1.839 1_455 S
C1001 C358 1.813 . S
C1016 C65 1.195 . S
C1028 C378 1.243 . S
C1043 C73 0.735 . S
C1055 C425 0.704 . S
C1082 C482 1.077 . S
C1070 C92 1.098 . S
C1097 C17 2.676 . S
C1109 C499 2.652 . S
C1136 C558 1.829 . S
C1124 C37 1.830 . S
C1163 C591 2.729 . S
C1151 C49 2.673 . S
C1178 C8 2.490 . S
C1190 C638 2.479 . S
C1217 C351 1.576 . S
C1205 C231 1.546 1_545 S
C1232 C241 1.429 . S
C1244 C379 1.415 . S
C1271 C418 0.573 . S
C1259 C273 0.429 . S
C1298 C478 2.154 . S
C1286 C171 2.160 . S
C1313 C227 0.420 . S
C1325 C505 0.530 . S
C1352 C551 2.302 . S
C1340 C245 2.276 . S
C1379 C602 0.515 . S
C1367 C269 0.524 . S
C1406 C631 2.331 . S
C1394 C175 2.272 . S
C1433 C362 1.805 1_565 S
C1421 C162 1.792 . S
C1448 C289 2.237 . S
C1460 C658 2.226 . S
C1487 C722 1.269 . S
C1475 C330 1.330 . S
C1514 C758 1.432 1_655 S
C1502 C317 1.435 . S
C1529 C120 1.309 . S
C1541 C642 1.404 . S
C1556 C134 2.597 . S
C1568 C419 2.598 . S
C1583 C331 1.359 . S
C1595 C791 1.430 . S
C1622 C825 0.249 . S
C1610 C303 0.367 . S
C1649 C339 1.860 . S
C1637 C59 1.874 . S
C1676 C831 1.221 . S
C1664 C107 1.264 . S
C1691 C91 0.739 . S
C1703 C442 0.732 . S
C1718 C78 1.125 . S
C1730 C785 1.023 . S
C1757 C518 2.709 . S
C1745 C7 2.703 . S
C1772 C51 1.838 . S
C1784 C699 1.838 . S
C1811 C578 2.772 1_556 S
C1799 C31 2.783 . S
C1838 C859 2.487 . S
C1826 C22 2.484 1_655 S
C1865 C338 1.559 . S
C1853 C143 1.564 . S
C1892 C838 1.503 . S
C1880 C315 1.521 . S
C1907 C115 0.527 . S
C1919 C431 0.575 . S
C1934 C287 2.107 . S
C1946 C779 2.202 . S
C1961 C147 0.567 . S
C1973 C522 0.538 . S
C2000 C698 2.331 . S
C1988 C311 2.353 . S
C2015 C119 0.504 . S
C2027 C585 0.632 . S
C2042 C283 2.367 . S
C2054 C858 2.355 . S
C2069 C190 1.776 . S
C2081 C345 1.704 . S
C2096 C177 2.237 . S
C2108 C671 2.246 . S
C2123 C260 1.286 . S
C2135 C545 1.336 . S
C2150 C247 1.462 . S
C2162 C739 1.421 . S
C2189 C865 1.371 . S
C2177 C274 1.238 . S
C2204 C218 2.617 . S
C2216 C438 2.635 1_565 S
C2243 C458 1.447 . S
C2231 C261 1.463 . S
C2270 C402 0.451 . S
C2258 C205 0.348 . S
C2285 C77 1.818 . S
C2297 C918 1.866 . S
C2324 C818 1.155 . S
C2312 C93 1.253 . S
C2339 C101 0.735 . S
C2351 C945 0.697 . S
C2366 C64 1.113 . S
C2378 C802 1.046 . S
C2393 C45 2.669 . S
C2405 C659 2.664 . S
C2432 C718 1.826 . S
C2420 C9 1.831 1_655 S
C2459 C751 2.729 . S
C2447 C21 2.673 . S
C2486 C878 2.474 . S
C2474 C36 2.498 . S
C2513 C911 1.592 . S
C2501 C259 1.532 . S
C2528 C185 1.429 . S
C2540 C819 1.426 . S
C2567 C938 0.587 . S
C2555 C203 0.406 . S
C2594 C798 2.164 . S
C2582 C213 2.152 . S
C2621 C665 0.372 . S
C2609 C255 0.455 . S
C2636 C189 2.277 . S
C2648 C711 2.297 . S
C2675 C762 0.624 . S
C2663 C199 0.412 . S
C2690 C217 2.265 . S
C2702 C871 2.329 . S
C2729 C922 1.743 . S
C2717 C316 1.803 . S
C2744 C135 2.239 . S
C2756 C498 2.224 . S
C2783 C562 1.333 . S
C2771 C148 1.284 . S
C2810 C598 1.364 1_565 S
C2798 C163 1.420 . S
C2837 C882 1.365 . S
C2825 C302 1.301 . S
C2852 C288 2.593 . S
C2864 C939 2.599 1_655 S
C2891 C471 1.406 . S
C2879 C149 1.396 . S
C2918 C385 0.461 . S
C2906 C121 0.260 . S
C2933 C87 1.839 . S
C2945 C899 1.862 . S
C2972 C391 1.248 . S
C2960 C79 1.222 . S
C2987 C63 0.795 . S
C2999 C962 0.782 . S
C3014 C106 1.033 . S
C3026 C465 1.118 . S
C3041 C35 2.689 . S
C3053 C678 2.716 1_556 S
C3080 C539 1.829 . S
C3068 C23 1.832 . S
C3095 C3 2.779 . S
C3107 C738 2.783 . S
C3122 C50 2.502 . S
C3134 C619 2.467 . S
C3161 C898 1.562 . S
C3149 C325 1.581 . S
C3176 C161 1.537 . S
C3188 C398 1.514 . S
C3215 C951 0.630 . S
C3203 C297 0.431 . S
C3230 C133 2.094 . S
C3242 C459 2.192 . S
C3257 C329 0.407 . S
C3269 C682 0.442 . S
C3296 C538 2.333 . S
C3284 C157 2.351 1_556 S
C3311 C301 0.696 . S
C3323 C745 0.435 . S
C3350 C618 2.357 . S
C3338 C129 2.366 . S
C3377 C905 1.705 . S
C3365 C246 1.775 . S
C3404 C511 2.220 1_655 S
C3392 C219 2.262 . S
C3419 C232 1.338 . S
C3431 C705 1.293 . S
C3458 C579 1.431 . S
C3446 C191 1.442 . S
C3473 C204 1.309 . S
C3485 C625 1.308 . S
C3500 C176 2.635 . S
C3512 C958 2.623 . S
C3539 C778 1.462 . S
C3527 C233 1.448 . S
C3566 C842 0.327 . S
C3554 C275 0.392 . S
