# Generated by pormake.
# Topology eea, (3,6)-cn, num edge types: 1
# Building blocks:
#     Node 0, Type 0, BuildingBlock: OLANEW_clean_sbu_2, # of connection points: 3
#     Node 1, Type 0, BuildingBlock: OLANEW_clean_sbu_2, # of connection points: 3
#     Node 2, Type 0, BuildingBlock: OLANEW_clean_sbu_2, # of connection points: 3
#     Node 3, Type 0, BuildingBlock: OLANEW_clean_sbu_2, # of connection points: 3
#     Node 4, Type 0, BuildingBlock: OLANEW_clean_sbu_2, # of connection points: 3
#     Node 5, Type 0, BuildingBlock: OLANEW_clean_sbu_2, # of connection points: 3
#     Node 6, Type 0, BuildingBlock: OLANEW_clean_sbu_2, # of connection points: 3
#     Node 7, Type 0, BuildingBlock: OLANEW_clean_sbu_2, # of connection points: 3
#     Node 8, Type 0, BuildingBlock: OLANEW_clean_sbu_2, # of connection points: 3
#     Node 9, Type 0, BuildingBlock: OLANEW_clean_sbu_2, # of connection points: 3
#     Node 10, Type 0, BuildingBlock: OLANEW_clean_sbu_2, # of connection points: 3
#     Node 11, Type 0, BuildingBlock: OLANEW_clean_sbu_2, # of connection points: 3
#     Node 12, Type 0, BuildingBlock: OLANEW_clean_sbu_2, # of connection points: 3
#     Node 13, Type 0, BuildingBlock: OLANEW_clean_sbu_2, # of connection points: 3
#     Node 14, Type 0, BuildingBlock: OLANEW_clean_sbu_2, # of connection points: 3
#     Node 15, Type 0, BuildingBlock: OLANEW_clean_sbu_2, # of connection points: 3
#     Node 16, Type 0, BuildingBlock: OLANEW_clean_sbu_2, # of connection points: 3
#     Node 17, Type 0, BuildingBlock: OLANEW_clean_sbu_2, # of connection points: 3
#     Node 18, Type 1, BuildingBlock: KUMBUR_clean_sbu_0, # of connection points: 6
#     Node 19, Type 1, BuildingBlock: KUMBUR_clean_sbu_0, # of connection points: 6
#     Node 20, Type 1, BuildingBlock: KUMBUR_clean_sbu_0, # of connection points: 6
#     Node 21, Type 1, BuildingBlock: KUMBUR_clean_sbu_0, # of connection points: 6
#     Node 22, Type 1, BuildingBlock: KUMBUR_clean_sbu_0, # of connection points: 6
#     Node 23, Type 1, BuildingBlock: KUMBUR_clean_sbu_0, # of connection points: 6
#     Node 24, Type 1, BuildingBlock: KUMBUR_clean_sbu_0, # of connection points: 6
#     Node 25, Type 1, BuildingBlock: KUMBUR_clean_sbu_0, # of connection points: 6
#     Node 26, Type 1, BuildingBlock: KUMBUR_clean_sbu_0, # of connection points: 6
#     Edge 27, Type (0, 1), BuildingBlock: KIFKEQ_clean_linker_1, # of connection points: 2
#     Edge 28, Type (0, 1), BuildingBlock: KIFKEQ_clean_linker_1, # of connection points: 2
#     Edge 29, Type (0, 1), BuildingBlock: KIFKEQ_clean_linker_1, # of connection points: 2
#     Edge 30, Type (0, 1), BuildingBlock: KIFKEQ_clean_linker_1, # of connection points: 2
#     Edge 31, Type (0, 1), BuildingBlock: KIFKEQ_clean_linker_1, # of connection points: 2
#     Edge 32, Type (0, 1), BuildingBlock: KIFKEQ_clean_linker_1, # of connection points: 2
#     Edge 33, Type (0, 1), BuildingBlock: KIFKEQ_clean_linker_1, # of connection points: 2
#     Edge 34, Type (0, 1), BuildingBlock: KIFKEQ_clean_linker_1, # of connection points: 2
#     Edge 35, Type (0, 1), BuildingBlock: KIFKEQ_clean_linker_1, # of connection points: 2
#     Edge 36, Type (0, 1), BuildingBlock: KIFKEQ_clean_linker_1, # of connection points: 2
#     Edge 37, Type (0, 1), BuildingBlock: KIFKEQ_clean_linker_1, # of connection points: 2
#     Edge 38, Type (0, 1), BuildingBlock: KIFKEQ_clean_linker_1, # of connection points: 2
#     Edge 39, Type (0, 1), BuildingBlock: KIFKEQ_clean_linker_1, # of connection points: 2
#     Edge 40, Type (0, 1), BuildingBlock: KIFKEQ_clean_linker_1, # of connection points: 2
#     Edge 41, Type (0, 1), BuildingBlock: KIFKEQ_clean_linker_1, # of connection points: 2
#     Edge 42, Type (0, 1), BuildingBlock: KIFKEQ_clean_linker_1, # of connection points: 2
#     Edge 43, Type (0, 1), BuildingBlock: KIFKEQ_clean_linker_1, # of connection points: 2
#     Edge 44, Type (0, 1), BuildingBlock: KIFKEQ_clean_linker_1, # of connection points: 2
#     Edge 45, Type (0, 1), BuildingBlock: KIFKEQ_clean_linker_1, # of connection points: 2
#     Edge 46, Type (0, 1), BuildingBlock: KIFKEQ_clean_linker_1, # of connection points: 2
#     Edge 47, Type (0, 1), BuildingBlock: KIFKEQ_clean_linker_1, # of connection points: 2
#     Edge 48, Type (0, 1), BuildingBlock: KIFKEQ_clean_linker_1, # of connection points: 2
#     Edge 49, Type (0, 1), BuildingBlock: KIFKEQ_clean_linker_1, # of connection points: 2
#     Edge 50, Type (0, 1), BuildingBlock: KIFKEQ_clean_linker_1, # of connection points: 2
#     Edge 51, Type (0, 1), BuildingBlock: KIFKEQ_clean_linker_1, # of connection points: 2
#     Edge 52, Type (0, 1), BuildingBlock: KIFKEQ_clean_linker_1, # of connection points: 2
#     Edge 53, Type (0, 1), BuildingBlock: KIFKEQ_clean_linker_1, # of connection points: 2
#     Edge 54, Type (0, 1), BuildingBlock: KIFKEQ_clean_linker_1, # of connection points: 2
#     Edge 55, Type (0, 1), BuildingBlock: KIFKEQ_clean_linker_1, # of connection points: 2
#     Edge 56, Type (0, 1), BuildingBlock: KIFKEQ_clean_linker_1, # of connection points: 2
#     Edge 57, Type (0, 1), BuildingBlock: KIFKEQ_clean_linker_1, # of connection points: 2
#     Edge 58, Type (0, 1), BuildingBlock: KIFKEQ_clean_linker_1, # of connection points: 2
#     Edge 59, Type (0, 1), BuildingBlock: KIFKEQ_clean_linker_1, # of connection points: 2
#     Edge 60, Type (0, 1), BuildingBlock: KIFKEQ_clean_linker_1, # of connection points: 2
#     Edge 61, Type (0, 1), BuildingBlock: KIFKEQ_clean_linker_1, # of connection points: 2
#     Edge 62, Type (0, 1), BuildingBlock: KIFKEQ_clean_linker_1, # of connection points: 2
#     Edge 63, Type (0, 1), BuildingBlock: KIFKEQ_clean_linker_1, # of connection points: 2
#     Edge 64, Type (0, 1), BuildingBlock: KIFKEQ_clean_linker_1, # of connection points: 2
#     Edge 65, Type (0, 1), BuildingBlock: KIFKEQ_clean_linker_1, # of connection points: 2
#     Edge 66, Type (0, 1), BuildingBlock: KIFKEQ_clean_linker_1, # of connection points: 2
#     Edge 67, Type (0, 1), BuildingBlock: KIFKEQ_clean_linker_1, # of connection points: 2
#     Edge 68, Type (0, 1), BuildingBlock: KIFKEQ_clean_linker_1, # of connection points: 2
#     Edge 69, Type (0, 1), BuildingBlock: KIFKEQ_clean_linker_1, # of connection points: 2
#     Edge 70, Type (0, 1), BuildingBlock: KIFKEQ_clean_linker_1, # of connection points: 2
#     Edge 71, Type (0, 1), BuildingBlock: KIFKEQ_clean_linker_1, # of connection points: 2
#     Edge 72, Type (0, 1), BuildingBlock: KIFKEQ_clean_linker_1, # of connection points: 2
#     Edge 73, Type (0, 1), BuildingBlock: KIFKEQ_clean_linker_1, # of connection points: 2
#     Edge 74, Type (0, 1), BuildingBlock: KIFKEQ_clean_linker_1, # of connection points: 2
#     Edge 75, Type (0, 1), BuildingBlock: KIFKEQ_clean_linker_1, # of connection points: 2
#     Edge 76, Type (0, 1), BuildingBlock: KIFKEQ_clean_linker_1, # of connection points: 2
#     Edge 77, Type (0, 1), BuildingBlock: KIFKEQ_clean_linker_1, # of connection points: 2
#     Edge 78, Type (0, 1), BuildingBlock: KIFKEQ_clean_linker_1, # of connection points: 2
#     Edge 79, Type (0, 1), BuildingBlock: KIFKEQ_clean_linker_1, # of connection points: 2
#     Edge 80, Type (0, 1), BuildingBlock: KIFKEQ_clean_linker_1, # of connection points: 2
# Relax obj value: 0.012
# Max RMSD: 0.158
# Mean RMSD: 0.110
data_MOF--net-eea--node1-OLANEW_clean_sbu_2--node2-KUMBUR_clean_sbu_0--edge1-KIFKEQ_clean_linker_1
_symmetry_space_group_name_H-M    P1
_symmetry_Int_Tables_number       1
_symmetry_cell_setting            triclinic
loop_
_symmetry_equiv_pos_as_xyz
'x, y, z'
_cell_length_a     61.754444
_cell_length_b     61.251263
_cell_length_c     69.60135
_cell_angle_alpha  94.567575
_cell_angle_beta   90.204407
_cell_angle_gamma 120.86416
loop_
_atom_site_label
_atom_site_type_symbol
_atom_site_fract_x
_atom_site_fract_y
_atom_site_fract_z
_atom_type_partial_charge
O0 O 0.18213 0.13061 0.47034 0.0
Cd1 Cd 0.14679 0.12488 0.45024 0.0
O2 O 0.18934 0.10845 0.44784 0.0
Cd3 Cd 0.20468 0.08566 0.43538 0.0
O4 O 0.20734 0.05497 0.41963 0.0
C5 C 0.20883 0.03854 0.42868 0.0
O6 O 0.20989 0.041 0.44764 0.0
C7 C 0.19483 0.12058 0.46452 0.0
C8 C 0.15955 0.16556 0.42836 0.0
O9 O 0.15321 0.166 0.44584 0.0
O10 O 0.16011 0.14591 0.42124 0.0
O11 O 0.90764 0.16204 0.42921 0.0
Cd12 Cd 0.91606 0.15133 0.39641 0.0
O13 O 0.90596 0.12974 0.44241 0.0
Cd14 Cd 0.90416 0.10897 0.41492 0.0
O15 O 0.879 0.07288 0.39769 0.0
C16 C 0.85685 0.06814 0.39345 0.0
O17 O 0.85117 0.08571 0.39834 0.0
C18 C 0.90551 0.15032 0.44403 0.0
C19 C 0.96288 0.18901 0.38452 0.0
O20 O 0.94383 0.19202 0.38471 0.0
O21 O 0.95998 0.1682 0.38995 0.0
O22 O 0.90843 0.76421 0.43296 0.0
Cd23 Cd 0.9258 0.7854 0.40333 0.0
O24 O 0.86937 0.75717 0.43078 0.0
Cd25 Cd 0.86542 0.77458 0.4055 0.0
O26 O 0.83986 0.78302 0.38954 0.0
C27 C 0.83833 0.80251 0.39501 0.0
O28 O 0.85336 0.81831 0.40947 0.0
C29 C 0.88643 0.75516 0.43944 0.0
C30 C 0.9718 0.78915 0.39312 0.0
O31 O 0.97146 0.80654 0.40443 0.0
O32 O 0.95047 0.76978 0.38683 0.0
O33 O 0.14493 0.24554 0.58162 0.0
Cd34 Cd 0.13659 0.2241 0.6116 0.0
O35 O 0.11149 0.24987 0.57979 0.0
Cd36 Cd 0.09022 0.23365 0.60539 0.0
O37 O 0.0577 0.22617 0.62289 0.0
C38 C 0.03566 0.20829 0.61687 0.0
O39 O 0.03323 0.19389 0.60101 0.0
C40 C 0.13193 0.25296 0.57298 0.0
C41 C 0.17442 0.21447 0.62356 0.0
O42 O 0.15584 0.19822 0.61204 0.0
O43 O 0.17535 0.23538 0.62923 0.0
O44 O 0.73525 0.83954 0.58775 0.0
Cd45 Cd 0.7582 0.854 0.61927 0.0
O46 O 0.766 0.87723 0.58198 0.0
Cd47 Cd 0.78344 0.91225 0.5676 0.0
O48 O 0.79572 0.95206 0.57593 0.0
C49 C 0.80166 0.95832 0.59385 0.0
O50 O 0.80096 0.94126 0.60457 0.0
C51 C 0.74563 0.85676 0.57623 0.0
C52 C 0.78082 0.82705 0.62935 0.0
O53 O 0.75944 0.82192 0.63577 0.0
O54 O 0.79136 0.8447 0.61794 0.0
O55 O 0.10737 0.8628 0.57876 0.0
Cd56 Cd 0.09704 0.87999 0.60795 0.0
O57 O 0.12995 0.85093 0.59454 0.0
Cd58 Cd 0.13007 0.87274 0.62084 0.0
O59 O 0.14883 0.91249 0.63287 0.0
C60 C 0.15954 0.92823 0.6203 0.0
O61 O 0.15738 0.91924 0.60216 0.0
C62 C 0.12018 0.85186 0.57873 0.0
C63 C 0.0537 0.84216 0.62363 0.0
O64 O 0.05237 0.85606 0.61139 0.0
O65 O 0.07559 0.84626 0.62855 0.0
O66 O 0.85264 0.47085 0.80815 0.0
Cd67 Cd 0.8153 0.46196 0.7892 0.0
O68 O 0.85776 0.4458 0.78692 0.0
Cd69 Cd 0.87287 0.42223 0.77578 0.0
O70 O 0.87602 0.39041 0.763 0.0
C71 C 0.8554 0.3691 0.76053 0.0
O72 O 0.83447 0.36789 0.76594 0.0
C73 C 0.86514 0.46055 0.80249 0.0
C74 C 0.8278 0.49994 0.76469 0.0
O75 O 0.82202 0.50231 0.78208 0.0
O76 O 0.82743 0.47938 0.75877 0.0
O77 O 0.5932 0.50231 0.77257 0.0
Cd78 Cd 0.60346 0.49185 0.74044 0.0
O79 O 0.56655 0.46151 0.76719 0.0
Cd80 Cd 0.53405 0.42353 0.76972 0.0
O81 O 0.50443 0.3844 0.76097 0.0
C82 C 0.50529 0.3757 0.74399 0.0
O83 O 0.52372 0.39046 0.73327 0.0
C84 C 0.57504 0.48203 0.77829 0.0
C85 C 0.64859 0.52858 0.7264 0.0
O86 O 0.62797 0.52817 0.72295 0.0
O87 O 0.6479 0.51197 0.7369 0.0
O88 O 0.56592 0.09247 0.76685 0.0
Cd89 Cd 0.58241 0.11286 0.73672 0.0
O90 O 0.5306 0.09365 0.76703 0.0
Cd91 Cd 0.52793 0.11036 0.74093 0.0
O92 O 0.50181 0.11822 0.72522 0.0
C93 C 0.47972 0.10801 0.7316 0.0
O94 O 0.47478 0.09407 0.7462 0.0
C95 C 0.5456 0.08797 0.77478 0.0
C96 C 0.62905 0.11872 0.72585 0.0
O97 O 0.62816 0.13581 0.73713 0.0
O98 O 0.60801 0.09861 0.72003 0.0
O99 O 0.81335 0.57681 0.91246 0.0
Cd100 Cd 0.80592 0.55599 0.94264 0.0
O101 O 0.77962 0.58049 0.90914 0.0
Cd102 Cd 0.75695 0.56416 0.93426 0.0
O103 O 0.72436 0.5566 0.95185 0.0
C104 C 0.70279 0.53653 0.94797 0.0
O105 O 0.70053 0.51961 0.93402 0.0
C106 C 0.80052 0.58385 0.90311 0.0
C107 C 0.84548 0.54871 0.95427 0.0
O108 O 0.82672 0.53155 0.94333 0.0
O109 O 0.8457 0.56935 0.95961 0.0
O110 O 0.41767 0.19126 0.92149 0.0
Cd111 Cd 0.44275 0.20616 0.95218 0.0
O112 O 0.44998 0.21384 0.90398 0.0
Cd113 Cd 0.4733 0.23741 0.92949 0.0
O114 O 0.4837 0.27272 0.9473 0.0
C115 C 0.46552 0.2758 0.95208 0.0
O116 O 0.44229 0.25724 0.94721 0.0
C117 C 0.42672 0.19727 0.90504 0.0
C118 C 0.45507 0.17092 0.9636 0.0
O119 O 0.43413 0.16924 0.96788 0.0
O120 O 0.47026 0.1893 0.95392 0.0
O121 O 0.76008 0.1923 0.91216 0.0
Cd122 Cd 0.74754 0.20645 0.94176 0.0
O123 O 0.79607 0.20118 0.92611 0.0
Cd124 Cd 0.79456 0.22438 0.95094 0.0
O125 O 0.81582 0.26325 0.96515 0.0
C126 C 0.8385 0.27111 0.97066 0.0
O127 O 0.84666 0.25505 0.96882 0.0
C128 C 0.78041 0.19181 0.91159 0.0
C129 C 0.70362 0.1668 0.95566 0.0
O130 O 0.7026 0.18146 0.94399 0.0
O131 O 0.72544 0.17087 0.96077 0.0
O132 O 0.56632 0.80129 0.10391 0.0
Cd133 Cd 0.53897 0.78633 0.07437 0.0
O134 O 0.59648 0.79947 0.08852 0.0
Cd135 Cd 0.57233 0.77662 0.06311 0.0
O136 O 0.55525 0.73729 0.05014 0.0
C137 C 0.55385 0.72193 0.06202 0.0
O138 O 0.56154 0.73083 0.0801 0.0
C139 C 0.58869 0.80533 0.10384 0.0
C140 C 0.53303 0.8245 0.06024 0.0
O141 O 0.51697 0.80887 0.07132 0.0
O142 O 0.55195 0.82216 0.05592 0.0
O143 O 0.23918 0.82001 0.09507 0.0
Cd144 Cd 0.24914 0.80676 0.06373 0.0
O145 O 0.23922 0.78931 0.10946 0.0
Cd146 Cd 0.2373 0.7675 0.08247 0.0
O147 O 0.2122 0.73257 0.06398 0.0
C148 C 0.19083 0.72919 0.05883 0.0
O149 O 0.18602 0.7474 0.06369 0.0
C150 C 0.23778 0.80934 0.11036 0.0
C151 C 0.29573 0.844 0.05113 0.0
O152 O 0.2753 0.84347 0.04667 0.0
O153 O 0.29416 0.82698 0.06159 0.0
O154 O 0.23658 0.42793 0.10167 0.0
Cd155 Cd 0.25205 0.44667 0.07088 0.0
O156 O 0.20136 0.42926 0.10214 0.0
Cd157 Cd 0.19862 0.44499 0.07553 0.0
O158 O 0.17322 0.45207 0.05812 0.0
C159 C 0.17211 0.47211 0.06212 0.0
O160 O 0.18757 0.48921 0.07583 0.0
C161 C 0.21656 0.42384 0.10989 0.0
C162 C 0.29864 0.45219 0.06038 0.0
O163 O 0.29773 0.46999 0.07068 0.0
O164 O 0.27764 0.43161 0.05531 0.0
O165 O 0.48302 0.91226 0.24791 0.0
Cd166 Cd 0.47555 0.89204 0.27827 0.0
O167 O 0.44462 0.90424 0.24008 0.0
Cd168 Cd 0.42362 0.88762 0.26573 0.0
O169 O 0.39069 0.87838 0.28324 0.0
C170 C 0.37868 0.88931 0.27908 0.0
O171 O 0.38695 0.90487 0.26538 0.0
C172 C 0.4677 0.91334 0.23625 0.0
C173 C 0.5153 0.88494 0.28937 0.0
O174 O 0.4964 0.86773 0.27856 0.0
O175 O 0.51547 0.90549 0.29492 0.0
O176 O 0.08899 0.53447 0.25349 0.0
Cd177 Cd 0.11513 0.54908 0.28361 0.0
O178 O 0.12237 0.54849 0.23599 0.0
Cd179 Cd 0.14692 0.57297 0.26064 0.0
O180 O 0.15494 0.60865 0.27662 0.0
C181 C 0.14693 0.62084 0.26791 0.0
O182 O 0.13552 0.61135 0.25073 0.0
C183 C 0.09849 0.5363 0.23707 0.0
C184 C 0.12663 0.51304 0.29427 0.0
O185 O 0.10871 0.51484 0.30196 0.0
O186 O 0.13911 0.52825 0.28158 0.0
O187 O 0.4295 0.52984 0.24552 0.0
Cd188 Cd 0.41721 0.54472 0.27495 0.0
O189 O 0.46452 0.53692 0.26003 0.0
Cd190 Cd 0.46321 0.5599 0.28509 0.0
O191 O 0.48629 0.5994 0.29778 0.0
C192 C 0.50165 0.61428 0.28618 0.0
O193 O 0.50136 0.60487 0.26847 0.0
C194 C 0.44937 0.52847 0.24523 0.0
C195 C 0.3737 0.50613 0.29016 0.0
O196 O 0.37236 0.52005 0.27796 0.0
O197 O 0.39563 0.51033 0.2951 0.0
Tb198 Tb 0.491 0.98494 0.98204 0.0
C199 C 0.55207 0.07673 0.04238 0.0
C200 C 0.59522 0.0871 0.03954 0.0
C201 C 0.58645 0.12058 0.04966 0.0
C202 C 0.56905 0.06923 0.03779 0.0
C203 C 0.56047 0.10238 0.04876 0.0
C204 C 0.60383 0.11294 0.04505 0.0
C205 C 0.51713 0.08959 0.05437 0.0
N206 N 0.52725 0.05849 0.04147 0.0
C207 C 0.5098 0.06437 0.04805 0.0
C208 C 0.54256 0.10876 0.05452 0.0
Tb209 Tb 0.51667 0.01789 0.02995 0.0
N210 N 0.55988 0.04407 0.03272 0.0
C211 C 0.57617 0.03522 0.03071 0.0
C212 C 0.61191 0.07832 0.03628 0.0
C213 C 0.60232 0.05219 0.03216 0.0
H214 H 0.49006 0.04974 0.04783 0.0
H215 H 0.61506 0.0451 0.03001 0.0
H216 H 0.62385 0.12703 0.04627 0.0
H217 H 0.50317 0.09423 0.0591 0.0
H218 H 0.56927 0.01518 0.02739 0.0
H219 H 0.39212 0.95605 0.97966 0.0
H220 H 0.63217 0.09141 0.0374 0.0
H221 H 0.51918 0.95376 0.96591 0.0
H222 H 0.43778 0.98656 0.98335 0.0
H223 H 0.50704 0.90947 0.95502 0.0
H224 H 0.59332 0.14045 0.05436 0.0
H225 H 0.37593 0.90993 0.97212 0.0
H226 H 0.38525 0.87489 0.96395 0.0
H227 H 0.54822 0.12826 0.05949 0.0
H228 H 0.41658 0.86216 0.95718 0.0
N229 N 0.44793 0.95822 0.97839 0.0
C230 C 0.43125 0.96662 0.97995 0.0
C231 C 0.39612 0.92329 0.9737 0.0
C232 C 0.41324 0.91495 0.97104 0.0
C233 C 0.40519 0.9493 0.9779 0.0
C234 C 0.43931 0.93315 0.97338 0.0
H235 H 0.46209 0.875 0.95356 0.0
N236 N 0.48154 0.9445 0.97111 0.0
C237 C 0.4927 0.91384 0.95916 0.0
C238 C 0.45677 0.92601 0.96957 0.0
C239 C 0.4995 0.93896 0.96528 0.0
C240 C 0.46732 0.89442 0.9584 0.0
C241 C 0.44893 0.90045 0.96334 0.0
O242 O 0.5093 0.99265 0.95583 0.0
O243 O 0.52234 0.01548 0.9996 0.0
O244 O 0.51266 0.04417 0.01281 0.0
O245 O 0.48227 0.01537 0.9891 0.0
O246 O 0.53088 0.99759 0.97779 0.0
O247 O 0.47742 0.9974 0.96016 0.0
O248 O 0.50125 0.01262 0.05739 0.0
O249 O 0.48505 0.98814 0.01231 0.0
O250 O 0.49308 0.95816 0.99977 0.0
O251 O 0.52476 0.98706 0.0225 0.0
O252 O 0.47696 0.0052 0.03504 0.0
O253 O 0.52869 0.00202 0.05007 0.0
C254 C 0.54062 0.01595 0.99133 0.0
C255 C 0.48408 0.9866 0.9282 0.0
C256 C 0.48529 0.99055 0.89342 0.0
C257 C 0.49417 0.00141 0.91253 0.0
C258 C 0.46638 0.96453 0.89033 0.0
C259 C 0.46516 0.9608 0.92472 0.0
C260 C 0.45643 0.94985 0.90588 0.0
C261 C 0.49521 0.03827 0.99895 0.0
C262 C 0.49379 0.99823 0.94801 0.0
C263 C 0.42302 0.88196 0.96178 0.0
C264 C 0.40519 0.88921 0.96564 0.0
C265 C 0.46697 0.98761 0.02097 0.0
C266 C 0.52771 0.01427 0.08285 0.0
C267 C 0.51784 0.99961 0.09859 0.0
C268 C 0.53077 0.00833 0.11684 0.0
C269 C 0.55347 0.03206 0.1192 0.0
C270 C 0.55024 0.03804 0.08555 0.0
C271 C 0.563 0.04687 0.10366 0.0
C272 C 0.51062 0.9638 0.01344 0.0
C273 C 0.515 0.00386 0.06357 0.0
H274 H 0.50862 0.02143 0.91526 0.0
H275 H 0.45939 0.95543 0.87586 0.0
H276 H 0.45717 0.94913 0.93653 0.0
H277 H 0.44191 0.92988 0.9033 0.0
H278 H 0.50052 0.98114 0.09653 0.0
H279 H 0.56371 0.03923 0.13311 0.0
H280 H 0.55814 0.04959 0.07365 0.0
H281 H 0.58044 0.06518 0.10563 0.0
Tb282 Tb 0.02024 0.505 0.98177 0.0
C283 C 0.93789 0.48462 0.03874 0.0
C284 C 0.92743 0.51706 0.03479 0.0
C285 C 0.89563 0.476 0.04496 0.0
C286 C 0.94478 0.50858 0.03377 0.0
C287 C 0.91344 0.46822 0.04485 0.0
C288 C 0.90262 0.5004 0.03992 0.0
C289 C 0.92686 0.43885 0.052 0.0
N290 N 0.95571 0.47797 0.03859 0.0
C291 C 0.95089 0.45587 0.04589 0.0
C292 C 0.90793 0.44488 0.05122 0.0
Tb293 Tb 0.9944 0.50691 0.02815 0.0
N294 N 0.96902 0.52417 0.0292 0.0
C295 C 0.97764 0.54929 0.02696 0.0
C296 C 0.93579 0.54229 0.03128 0.0
C297 C 0.96112 0.55858 0.02767 0.0
H298 H 0.96534 0.45097 0.04647 0.0
H299 H 0.96793 0.57829 0.02534 0.0
H300 H 0.88893 0.50645 0.04057 0.0
H301 H 0.92295 0.4211 0.05728 0.0
H302 H 0.99711 0.56218 0.02407 0.0
H303 H 0.04819 0.43471 0.98468 0.0
H304 H 0.92305 0.54954 0.03184 0.0
H305 H 0.04861 0.56117 0.96351 0.0
H306 H 0.01875 0.4504 0.98653 0.0
H307 H 0.09044 0.59108 0.95205 0.0
H308 H 0.87666 0.46358 0.04942 0.0
H309 H 0.09251 0.46342 0.97674 0.0
H310 H 0.12577 0.50621 0.96692 0.0
H311 H 0.88936 0.43172 0.05603 0.0
H312 H 0.13726 0.5488 0.9579 0.0
N313 N 0.04603 0.48815 0.98017 0.0
C314 C 0.03791 0.46327 0.98295 0.0
C315 C 0.07961 0.47047 0.9775 0.0
C316 C 0.08745 0.49542 0.97354 0.0
C317 C 0.05461 0.45421 0.98194 0.0
C318 C 0.06991 0.50366 0.97485 0.0
H319 H 0.12409 0.5805 0.95205 0.0
N320 N 0.05843 0.53394 0.97048 0.0
C321 C 0.08677 0.57327 0.95708 0.0
C322 C 0.07634 0.52742 0.96977 0.0
C323 C 0.06301 0.55618 0.96356 0.0
C324 C 0.10573 0.56726 0.95713 0.0
C325 C 0.10054 0.54392 0.96327 0.0
O326 O 0.00754 0.50879 0.95489 0.0
O327 O 0.99248 0.50929 0.99762 0.0
O328 O 0.9653 0.47305 0.01074 0.0
O329 O 0.99076 0.46666 0.98912 0.0
O330 O 0.00797 0.53176 0.9757 0.0
O331 O 0.00531 0.4736 0.96071 0.0
O332 O 0.00594 0.50203 0.05511 0.0
O333 O 0.02219 0.50286 0.0123 0.0
O334 O 0.04958 0.53876 0.99907 0.0
O335 O 0.02488 0.54528 0.02151 0.0
O336 O 0.00739 0.48065 0.0344 0.0
O337 O 0.008 0.53732 0.05003 0.0
C338 C 0.99165 0.52595 0.98866 0.0
C339 C 0.01009 0.48422 0.92835 0.0
C340 C 0.00245 0.48271 0.89376 0.0
C341 C 0.99585 0.48455 0.91284 0.0
C342 C 0.02358 0.48031 0.89034 0.0
C343 C 0.03137 0.48218 0.92484 0.0
C344 C 0.03802 0.48019 0.90585 0.0
C345 C 0.9692 0.45843 0.99791 0.0
C346 C 0.00195 0.48608 0.94788 0.0
C347 C 0.11849 0.53632 0.96269 0.0
C348 C 0.11195 0.51209 0.96783 0.0
C349 C 0.02367 0.48666 0.02136 0.0
C350 C 0.9994 0.52373 0.08154 0.0
C351 C 0.01143 0.5222 0.09804 0.0
C352 C 1.00103 0.52059 0.11617 0.0
C353 C 0.9782 0.52033 0.11756 0.0
C354 C 0.97677 0.52376 0.08319 0.0
C355 C 0.96622 0.52199 0.10113 0.0
C356 C 0.04627 0.55327 0.01247 0.0
C357 C 0.01035 0.52409 0.06277 0.0
H358 H 0.97926 0.48584 0.91567 0.0
H359 H 0.02904 0.47881 0.87575 0.0
H360 H 0.04271 0.48201 0.93666 0.0
H361 H 0.05439 0.47853 0.90315 0.0
H362 H 0.02876 0.52188 0.09668 0.0
H363 H 0.96985 0.5193 0.13137 0.0
H364 H 0.96723 0.52509 0.0707 0.0
H365 H 0.94874 0.52197 0.10233 0.0
Tb366 Tb 0.51708 0.4956 0.03313 0.0
C367 C 0.45518 0.5172 0.97651 0.0
C368 C 0.41201 0.4832 0.97901 0.0
C369 C 0.42077 0.52451 0.97027 0.0
C370 C 0.43818 0.49263 0.98051 0.0
C371 C 0.44675 0.53333 0.97093 0.0
C372 C 0.40341 0.49947 0.97433 0.0
C373 C 0.49004 0.56472 0.96553 0.0
N374 N 0.48003 0.52485 0.97721 0.0
C375 C 0.49743 0.54795 0.9711 0.0
C376 C 0.46461 0.55752 0.96568 0.0
Tb377 Tb 0.49049 0.49634 0.98684 0.0
N378 N 0.4473 0.47752 0.98476 0.0
C379 C 0.43097 0.45204 0.98619 0.0
C380 C 0.39529 0.45754 0.98169 0.0
C381 C 0.40483 0.4418 0.98499 0.0
H382 H 0.51716 0.55379 0.97103 0.0
H383 H 0.39207 0.42177 0.98668 0.0
H384 H 0.38339 0.49267 0.9733 0.0
H385 H 0.50396 0.58321 0.96116 0.0
H386 H 0.43787 0.43951 0.98884 0.0
H387 H 0.61556 0.56985 0.03273 0.0
H388 H 0.37504 0.44955 0.98074 0.0
H389 H 0.49052 0.43821 0.04904 0.0
H390 H 0.56978 0.55239 0.03121 0.0
H391 H 0.50368 0.4085 0.0583 0.0
H392 H 0.41389 0.53668 0.96619 0.0
H393 H 0.63245 0.54174 0.03782 0.0
H394 H 0.62402 0.4984 0.04473 0.0
H395 H 0.45892 0.57051 0.96131 0.0
H396 H 0.59351 0.45441 0.05187 0.0
N397 N 0.56025 0.51424 0.03485 0.0
C398 C 0.57663 0.53974 0.03351 0.0
C399 C 0.61222 0.53388 0.03715 0.0
C400 C 0.59547 0.50819 0.03973 0.0
C401 C 0.60276 0.54981 0.03434 0.0
C402 C 0.56932 0.49893 0.03862 0.0
H403 H 0.54858 0.42082 0.05731 0.0
N404 N 0.52751 0.46689 0.04236 0.0
C405 C 0.51755 0.42693 0.05383 0.0
C406 C 0.55231 0.47436 0.04263 0.0
C407 C 0.51018 0.44387 0.04861 0.0
C408 C 0.5429 0.43393 0.05321 0.0
C409 C 0.56073 0.45807 0.04785 0.0
O410 O 0.50002 0.48784 0.05983 0.0
O411 O 0.48515 0.49164 0.01707 0.0
O412 O 0.49406 0.52853 0.00546 0.0
O413 O 0.52495 0.53419 0.02811 0.0
O414 O 0.47744 0.46735 0.03771 0.0
O415 O 0.53223 0.52484 0.05595 0.0
O416 O 0.50727 0.50415 0.96003 0.0
O417 O 0.52242 0.50049 0.00294 0.0
O418 O 0.51366 0.46361 0.01443 0.0
O419 O 0.48259 0.4577 0.99187 0.0
O420 O 0.53014 0.52455 0.9822 0.0
O421 O 0.47605 0.46667 0.9644 0.0
C422 C 0.46719 0.474 0.02514 0.0
C423 C 0.52767 0.51004 0.08692 0.0
C424 C 0.52493 0.5091 0.12189 0.0
C425 C 0.51505 0.5096 0.10377 0.0
C426 C 0.54751 0.50872 0.12281 0.0
C427 C 0.55027 0.5099 0.08821 0.0
C428 C 0.56005 0.50914 0.10607 0.0
C429 C 0.51167 0.54243 0.01936 0.0
C430 C 0.51667 0.51015 0.06818 0.0
C431 C 0.58666 0.4667 0.04808 0.0
C432 C 0.60402 0.49174 0.04401 0.0
C433 C 0.54043 0.51804 0.99483 0.0
C434 C 0.47989 0.48028 0.93304 0.0
C435 C 0.49359 0.48234 0.91656 0.0
C436 C 0.48314 0.48064 0.89813 0.0
C437 C 0.45885 0.47717 0.89642 0.0
C438 C 0.45571 0.47695 0.93109 0.0
C439 C 0.44532 0.47548 0.91284 0.0
C440 C 0.49614 0.44966 1.0005 0.0
C441 C 0.49119 0.48142 0.95199 0.0
H442 H 0.49777 0.51006 0.10275 0.0
H443 H 0.55542 0.50795 0.13648 0.0
H444 H 0.56039 0.51043 0.07549 0.0
H445 H 0.57743 0.5089 0.10695 0.0
H446 H 0.51217 0.48468 0.91805 0.0
H447 H 0.45042 0.47593 0.8824 0.0
H448 H 0.4448 0.47528 0.94358 0.0
H449 H 0.42666 0.47287 0.91141 0.0
Tb450 Tb 0.16276 0.32789 0.31945 0.0
C451 C 0.2185 0.42091 0.38034 0.0
C452 C 0.26211 0.43227 0.37916 0.0
C453 C 0.25198 0.46496 0.38857 0.0
C454 C 0.23609 0.41399 0.37659 0.0
C455 C 0.22612 0.44631 0.38691 0.0
C456 C 0.26997 0.45795 0.38466 0.0
C457 C 0.18228 0.43229 0.39151 0.0
N458 N 0.19383 0.40223 0.37877 0.0
C459 C 0.17572 0.40736 0.3849 0.0
C460 C 0.20757 0.45195 0.39224 0.0
Tb461 Tb 0.18462 0.36202 0.36745 0.0
N462 N 0.22762 0.38895 0.37167 0.0
C463 C 0.24435 0.38059 0.37071 0.0
C464 C 0.27935 0.42402 0.37682 0.0
C465 C 0.27039 0.39799 0.37291 0.0
H466 H 0.1561 0.39241 0.38429 0.0
H467 H 0.28353 0.39129 0.37153 0.0
H468 H 0.28988 0.47234 0.38653 0.0
H469 H 0.16782 0.43634 0.39597 0.0
H470 H 0.23787 0.36058 0.36763 0.0
H471 H 0.06503 0.30167 0.31007 0.0
H472 H 0.29951 0.43744 0.37859 0.0
H473 H 0.19038 0.2948 0.30757 0.0
H474 H 0.11073 0.33136 0.31539 0.0
H475 H 0.17755 0.24975 0.29893 0.0
H476 H 0.25825 0.48466 0.3934 0.0
H477 H 0.04781 0.25508 0.30536 0.0
H478 H 0.05611 0.21885 0.30117 0.0
H479 H 0.21262 0.47122 0.39741 0.0
H480 H 0.08684 0.20465 0.29794 0.0
N481 N 0.1198 0.30205 0.3141 0.0
C482 C 0.10374 0.31116 0.31325 0.0
C483 C 0.06801 0.26806 0.30766 0.0
C484 C 0.08462 0.25892 0.30737 0.0
C485 C 0.07767 0.29434 0.31024 0.0
C486 C 0.11072 0.27666 0.31049 0.0
H487 H 0.13225 0.21613 0.2967 0.0
N488 N 0.15274 0.28674 0.31068 0.0
C489 C 0.16336 0.2548 0.30172 0.0
C490 C 0.12783 0.26869 0.30866 0.0
C491 C 0.17056 0.28033 0.30655 0.0
C492 C 0.13778 0.23587 0.30053 0.0
C493 C 0.11961 0.24275 0.30371 0.0
O494 O 0.18254 0.33299 0.29403 0.0
O495 O 0.1929 0.35893 0.33762 0.0
O496 O 0.18168 0.38808 0.34937 0.0
O497 O 0.15495 0.35936 0.3237 0.0
O498 O 0.20278 0.33982 0.3178 0.0
O499 O 0.15197 0.34024 0.29581 0.0
O500 O 0.16575 0.35425 0.39347 0.0
O501 O 0.15431 0.33226 0.34885 0.0
O502 O 0.16228 0.30163 0.33917 0.0
O503 O 0.19313 0.33125 0.36193 0.0
O504 O 0.1445 0.34959 0.37013 0.0
O505 O 0.19691 0.34839 0.38925 0.0
C506 C 0.2117 0.3589 0.33074 0.0
C507 C 0.1594 0.32679 0.26506 0.0
C508 C 0.16031 0.32965 0.23016 0.0
C509 C 0.16884 0.34125 0.24915 0.0
C510 C 0.14242 0.3033 0.22743 0.0
C511 C 0.14149 0.30063 0.26195 0.0
C512 C 0.13312 0.28896 0.24322 0.0
C513 C 0.16643 0.38216 0.33385 0.0
C514 C 0.1685 0.33927 0.28476 0.0
C515 C 0.09359 0.22474 0.30155 0.0
C516 C 0.07611 0.23282 0.30339 0.0
C517 C 0.13554 0.33205 0.356 0.0
C518 C 0.19033 0.35858 0.4212 0.0
C519 C 0.18229 0.34245 0.43621 0.0
C520 C 0.19171 0.35231 0.4554 0.0
C521 C 0.20927 0.37864 0.45921 0.0
C522 C 0.2079 0.3847 0.42537 0.0
C523 C 0.21726 0.39464 0.44429 0.0
C524 C 0.17858 0.30753 0.35389 0.0
C525 C 0.18056 0.34776 0.40127 0.0
H526 H 0.18247 0.36155 0.25159 0.0
H527 H 0.13573 0.29368 0.21305 0.0
H528 H 0.134 0.28922 0.27394 0.0
H529 H 0.11937 0.26871 0.24093 0.0
H530 H 0.16897 0.3222 0.43287 0.0
H531 H 0.21658 0.387 0.47379 0.0
H532 H 0.2144 0.39737 0.41403 0.0
H533 H 0.23075 0.41485 0.44743 0.0
Tb534 Tb 0.69177 0.84322 0.31602 0.0
C535 C 0.60504 0.81835 0.36937 0.0
C536 C 0.59496 0.85117 0.36596 0.0
C537 C 0.5622 0.80908 0.37371 0.0
C538 C 0.61239 0.84277 0.36532 0.0
C539 C 0.58003 0.80135 0.37408 0.0
C540 C 0.56966 0.83398 0.36964 0.0
C541 C 0.59282 0.77143 0.38097 0.0
N542 N 0.62291 0.81179 0.36978 0.0
C543 C 0.61743 0.78906 0.37628 0.0
C544 C 0.57394 0.77746 0.37961 0.0
Tb545 Tb 0.66257 0.84168 0.36151 0.0
N546 N 0.63708 0.85885 0.36217 0.0
C547 C 0.64596 0.88425 0.36101 0.0
C548 C 0.6037 0.87679 0.36355 0.0
C549 C 0.62939 0.89349 0.3614 0.0
H550 H 0.63185 0.78416 0.37729 0.0
H551 H 0.63646 0.91347 0.35993 0.0
H552 H 0.55592 0.83997 0.36996 0.0
H553 H 0.58844 0.75321 0.38561 0.0
H554 H 0.66571 0.89746 0.35922 0.0
H555 H 0.71745 0.77104 0.31734 0.0
H556 H 0.59092 0.884 0.36386 0.0
H557 H 0.72262 0.90079 0.30031 0.0
H558 H 0.68845 0.78728 0.31838 0.0
H559 H 0.7659 0.93146 0.29163 0.0
H560 H 0.5428 0.79623 0.37709 0.0
H561 H 0.76288 0.80021 0.31282 0.0
H562 H 0.79788 0.84403 0.3063 0.0
H563 H 0.55493 0.76382 0.38334 0.0
H564 H 0.8111 0.8878 0.29915 0.0
N565 N 0.71705 0.82577 0.31497 0.0
C566 C 0.70812 0.80039 0.3163 0.0
C567 C 0.75019 0.80752 0.31325 0.0
C568 C 0.75898 0.83311 0.31069 0.0
C569 C 0.72456 0.79101 0.31574 0.0
C570 C 0.74167 0.84165 0.31149 0.0
H571 H 0.79919 0.92046 0.2933 0.0
N572 N 0.73134 0.87282 0.30736 0.0
C573 C 0.76146 0.91317 0.29615 0.0
C574 C 0.74908 0.86608 0.30746 0.0
C575 C 0.73691 0.89568 0.30104 0.0
C576 C 0.78021 0.90692 0.29716 0.0
C577 C 0.77404 0.88295 0.30257 0.0
O578 O 0.68261 0.85032 0.28898 0.0
O579 O 0.66301 0.84639 0.3312 0.0
O580 O 0.6346 0.80909 0.34241 0.0
O581 O 0.66115 0.80422 0.32096 0.0
O582 O 0.67994 0.87051 0.31046 0.0
O583 O 0.67796 0.81375 0.2934 0.0
O584 O 0.67153 0.83471 0.38867 0.0
O585 O 0.69134 0.83861 0.34632 0.0
O586 O 0.71983 0.87569 0.3351 0.0
O587 O 0.69358 0.88071 0.35684 0.0
O588 O 0.67497 0.81483 0.36732 0.0
O589 O 0.6752 0.87087 0.38431 0.0
C590 C 0.66268 0.86364 0.32273 0.0
C591 C 0.68839 0.82821 0.26233 0.0
C592 C 0.68659 0.82868 0.22731 0.0
C593 C 0.67601 0.82799 0.24531 0.0
C594 C 0.70993 0.82981 0.2267 0.0
C595 C 0.71153 0.82914 0.26138 0.0
C596 C 0.72224 0.83 0.24364 0.0
C597 C 0.63903 0.79547 0.329 0.0
C598 C 0.67707 0.82806 0.28089 0.0
C599 C 0.79175 0.87505 0.30268 0.0
C600 C 0.78422 0.85014 0.30676 0.0
C601 C 0.69207 0.82164 0.3549 0.0
C602 C 0.66352 0.85544 0.41502 0.0
C603 C 0.6749 0.85505 0.43237 0.0
C604 C 0.66262 0.85222 0.44986 0.0
C605 C 0.63865 0.84978 0.44953 0.0
C606 C 0.63994 0.8536 0.41518 0.0
C607 C 0.62756 0.85068 0.43234 0.0
C608 C 0.71562 0.88935 0.34863 0.0
C609 C 0.67604 0.85659 0.39686 0.0
H610 H 0.65796 0.82691 0.24609 0.0
H611 H 0.71878 0.83075 0.21314 0.0
H612 H 0.7213 0.82917 0.27427 0.0
H613 H 0.74016 0.83085 0.24301 0.0
H614 H 0.6934 0.85711 0.43216 0.0
H615 H 0.62826 0.84689 0.4625 0.0
H616 H 0.63101 0.85429 0.40211 0.0
H617 H 0.60921 0.84893 0.43229 0.0
Tb618 Tb 0.18789 0.82602 0.36544 0.0
C619 C 0.13007 0.8599 0.31595 0.0
C620 C 0.08661 0.82543 0.31568 0.0
C621 C 0.09616 0.86874 0.31275 0.0
C622 C 0.1127 0.83445 0.31709 0.0
C623 C 0.12209 0.8773 0.31325 0.0
C624 C 0.07844 0.84282 0.31399 0.0
C625 C 0.1657 0.90958 0.30985 0.0
N626 N 0.15485 0.86726 0.3163 0.0
C627 C 0.17263 0.89152 0.31248 0.0
C628 C 0.14034 0.90254 0.31051 0.0
Tb629 Tb 0.16454 0.83661 0.32133 0.0
N630 N 0.12144 0.81833 0.31852 0.0
C631 C 0.10486 0.7925 0.31715 0.0
C632 C 0.06958 0.79915 0.31545 0.0
C633 C 0.07877 0.78259 0.31587 0.0
H634 H 0.19229 0.89722 0.31201 0.0
H635 H 0.06577 0.76218 0.31532 0.0
H636 H 0.05847 0.83631 0.3131 0.0
H637 H 0.17992 0.92891 0.30732 0.0
H638 H 0.1115 0.77935 0.31759 0.0
H639 H 0.28704 0.89914 0.37301 0.0
H640 H 0.04938 0.79144 0.31446 0.0
H641 H 0.15872 0.7646 0.37272 0.0
H642 H 0.24148 0.88279 0.37034 0.0
H643 H 0.17019 0.73206 0.37669 0.0
H644 H 0.08962 0.88185 0.31089 0.0
H645 H 0.3026 0.86914 0.37339 0.0
H646 H 0.2926 0.82386 0.37399 0.0
H647 H 0.135 0.91653 0.30838 0.0
H648 H 0.26074 0.77831 0.3752 0.0
N649 N 0.23084 0.84357 0.36866 0.0
C650 C 0.24777 0.86933 0.37056 0.0
C651 C 0.28247 0.86178 0.37221 0.0
C652 C 0.26506 0.83555 0.37147 0.0
C653 C 0.27376 0.87877 0.37206 0.0
C654 C 0.23908 0.82701 0.36984 0.0
H655 H 0.215 0.74391 0.37651 0.0
N656 N 0.19663 0.79456 0.36986 0.0
C657 C 0.18477 0.75154 0.37491 0.0
C658 C 0.22132 0.80156 0.37058 0.0
C659 C 0.17835 0.77007 0.37272 0.0
C660 C 0.21007 0.75828 0.37476 0.0
C661 C 0.22877 0.78365 0.37286 0.0
O662 O 0.16906 0.81272 0.39086 0.0
O663 O 0.15725 0.82565 0.35023 0.0
O664 O 0.16799 0.86564 0.34356 0.0
O665 O 0.19679 0.86589 0.36565 0.0
O666 O 0.14763 0.79721 0.36744 0.0
O667 O 0.20173 0.85069 0.39103 0.0
O668 O 0.18436 0.84914 0.29616 0.0
O669 O 0.19539 0.8375 0.33667 0.0
O670 O 0.18654 0.79885 0.34272 0.0
O671 O 0.15619 0.79674 0.32138 0.0
O672 O 0.20443 0.86614 0.31962 0.0
O673 O 0.15029 0.81232 0.2955 0.0
C674 C 0.13846 0.80666 0.35641 0.0
C675 C 0.19423 0.83003 0.41966 0.0
C676 C 0.18973 0.82636 0.45426 0.0
C677 C 0.18191 0.83021 0.43649 0.0
C678 C 0.21003 0.82209 0.45489 0.0
C679 C 0.21454 0.82594 0.42055 0.0
C680 C 0.22234 0.82193 0.43811 0.0
C681 C 0.18449 0.87629 0.35859 0.0
C682 C 0.18503 0.83356 0.40139 0.0
C683 C 0.25459 0.79179 0.37362 0.0
C684 C 0.27272 0.81772 0.37292 0.0
C685 C 0.21388 0.85708 0.33078 0.0
C686 C 0.15995 0.83364 0.26703 0.0
C687 C 0.17198 0.83252 0.25023 0.0
C688 C 0.16602 0.83853 0.23258 0.0
C689 C 0.14764 0.84561 0.23214 0.0
C690 C 0.14147 0.84038 0.26618 0.0
C691 C 0.1354 0.84636 0.2488 0.0
C692 C 0.16966 0.78737 0.32807 0.0
C693 C 0.16791 0.82889 0.28538 0.0
H694 H 0.16601 0.83308 0.43566 0.0
H695 H 0.21667 0.81933 0.46838 0.0
H696 H 0.22434 0.82583 0.40777 0.0
H697 H 0.23805 0.81879 0.43873 0.0
H698 H 0.18589 0.8268 0.25099 0.0
H699 H 0.14286 0.85088 0.21898 0.0
H700 H 0.13187 0.84117 0.27891 0.0
H701 H 0.12128 0.85179 0.24827 0.0
Tb702 Tb 0.84269 0.66163 0.65058 0.0
C703 C 0.90045 0.7541 0.712 0.0
C704 C 0.94385 0.76499 0.70994 0.0
C705 C 0.93441 0.79791 0.72038 0.0
C706 C 0.91774 0.74697 0.70763 0.0
C707 C 0.90848 0.77947 0.71901 0.0
C708 C 0.95209 0.79068 0.7158 0.0
C709 C 0.86498 0.76574 0.7248 0.0
N710 N 0.87572 0.73562 0.71071 0.0
C711 C 0.85801 0.74085 0.71771 0.0
C712 C 0.89029 0.78526 0.72515 0.0
Tb713 Tb 0.86578 0.69542 0.69865 0.0
N714 N 0.9089 0.72192 0.7024 0.0
C715 C 0.92538 0.71327 0.70089 0.0
C716 C 0.9608 0.75647 0.70702 0.0
C717 C 0.95149 0.73041 0.70282 0.0
H718 H 0.83837 0.72601 0.71744 0.0
H719 H 0.96441 0.72349 0.70101 0.0
H720 H 0.97207 0.80489 0.71747 0.0
H721 H 0.85081 0.76987 0.72992 0.0
H722 H 0.91864 0.69324 0.69758 0.0
H723 H 0.74498 0.63642 0.64407 0.0
H724 H 0.98101 0.76969 0.70858 0.0
H725 H 0.86958 0.62819 0.63769 0.0
H726 H 0.79079 0.66572 0.64864 0.0
H727 H 0.85621 0.58314 0.62822 0.0
H728 H 0.94099 0.81759 0.72553 0.0
H729 H 0.72737 0.58985 0.6381 0.0
H730 H 0.73522 0.55345 0.6322 0.0
H731 H 0.89566 0.8045 0.73069 0.0
H732 H 0.76554 0.5389 0.62773 0.0
N733 N 0.79959 0.6362 0.64587 0.0
C734 C 0.78365 0.64554 0.646 0.0
C735 C 0.74762 0.60265 0.64011 0.0
C736 C 0.76407 0.59332 0.63883 0.0
C737 C 0.7575 0.62893 0.64343 0.0
C738 C 0.79025 0.61083 0.64168 0.0
H739 H 0.81077 0.54991 0.62592 0.0
N740 N 0.83211 0.62049 0.64113 0.0
C741 C 0.8422 0.58836 0.63134 0.0
C742 C 0.80715 0.60267 0.63915 0.0
C743 C 0.8497 0.61388 0.63663 0.0
C744 C 0.81654 0.56965 0.6301 0.0
C745 C 0.79861 0.57675 0.63375 0.0
O746 O 0.86057 0.66554 0.62424 0.0
O747 O 0.87319 0.69228 0.66863 0.0
O748 O 0.86196 0.72169 0.6813 0.0
O749 O 0.83517 0.69308 0.65557 0.0
O750 O 0.88267 0.6737 0.64802 0.0
O751 O 0.83225 0.67585 0.6281 0.0
O752 O 0.84631 0.6862 0.72439 0.0
O753 O 0.83498 0.66576 0.68028 0.0
O754 O 0.84254 0.63514 0.66982 0.0
O755 O 0.87389 0.66445 0.69238 0.0
O756 O 0.82605 0.68385 0.70171 0.0
O757 O 0.87857 0.68217 0.72043 0.0
C758 C 0.89182 0.69248 0.66123 0.0
C759 C 0.83625 0.66187 0.59651 0.0
C760 C 0.83473 0.66593 0.56198 0.0
C761 C 0.84616 0.67621 0.58059 0.0
C762 C 0.81357 0.64107 0.55941 0.0
C763 C 0.81528 0.63696 0.5936 0.0
C764 C 0.80407 0.62662 0.57512 0.0
C765 C 0.8465 0.71573 0.66588 0.0
C766 C 0.84724 0.67355 0.61607 0.0
C767 C 0.77253 0.55897 0.63171 0.0
C768 C 0.75527 0.56725 0.63426 0.0
C769 C 0.8166 0.66606 0.68775 0.0
C770 C 0.87052 0.69086 0.75236 0.0
C771 C 0.86083 0.67468 0.76731 0.0
C772 C 0.86925 0.68426 0.7867 0.0
C773 C 0.88743 0.71038 0.79079 0.0
C774 C 0.88869 0.71674 0.75682 0.0
C775 C 0.89704 0.72642 0.77595 0.0
C776 C 0.85891 0.64077 0.6844 0.0
C777 C 0.86158 0.68037 0.73225 0.0
H778 H 0.86226 0.69555 0.58274 0.0
H779 H 0.80446 0.63282 0.5452 0.0
H780 H 0.80739 0.62564 0.60559 0.0
H781 H 0.7878 0.60744 0.57301 0.0
H782 H 0.84702 0.65459 0.76376 0.0
H783 H 0.89402 0.71856 0.80551 0.0
H784 H 0.89644 0.72943 0.74554 0.0
H785 H 0.911 0.74646 0.7793 0.0
Tb786 Tb 0.34162 0.16104 0.65188 0.0
C787 C 0.25301 0.13154 0.70469 0.0
C788 C 0.24386 0.16539 0.70388 0.0
C789 C 0.21032 0.12257 0.70938 0.0
C790 C 0.26094 0.1566 0.70231 0.0
C791 C 0.22777 0.11432 0.70875 0.0
C792 C 0.21836 0.14809 0.70692 0.0
C793 C 0.23959 0.08298 0.71309 0.0
N794 N 0.27053 0.12449 0.70416 0.0
C795 C 0.26443 0.10084 0.70905 0.0
C796 C 0.22109 0.08963 0.71267 0.0
Tb797 Tb 0.31061 0.15482 0.69708 0.0
N798 N 0.28579 0.17271 0.6997 0.0
C799 C 0.29514 0.19841 0.70005 0.0
C800 C 0.25311 0.19143 0.70299 0.0
C801 C 0.27894 0.20807 0.70138 0.0
H802 H 0.27851 0.09542 0.70933 0.0
H803 H 0.28639 0.22833 0.70108 0.0
H804 H 0.20488 0.1544 0.70796 0.0
H805 H 0.23474 0.0641 0.71648 0.0
H806 H 0.315 0.2116 0.69872 0.0
H807 H 0.36511 0.08698 0.64699 0.0
H808 H 0.24061 0.19897 0.70405 0.0
H809 H 0.37452 0.22117 0.6411 0.0
H810 H 0.33685 0.10404 0.64985 0.0
H811 H 0.41849 0.25249 0.63451 0.0
H812 H 0.19077 0.10957 0.71228 0.0
H813 H 0.41089 0.11608 0.64375 0.0
H814 H 0.44684 0.1606 0.64006 0.0
H815 H 0.20189 0.0758 0.71587 0.0
H816 H 0.46139 0.20573 0.63652 0.0
N817 N 0.36617 0.14286 0.64868 0.0
C818 C 0.35667 0.11713 0.64832 0.0
C819 C 0.39851 0.12375 0.64495 0.0
C820 C 0.40792 0.14983 0.64418 0.0
C821 C 0.37269 0.10728 0.64673 0.0
C822 C 0.39099 0.1588 0.64592 0.0
H823 H 0.45086 0.24012 0.63415 0.0
N824 N 0.38183 0.19128 0.64486 0.0
C825 C 0.41332 0.23329 0.6372 0.0
C826 C 0.39913 0.18397 0.64391 0.0
C827 C 0.38836 0.2154 0.64088 0.0
C828 C 0.43156 0.22626 0.63705 0.0
C829 C 0.42449 0.20122 0.64016 0.0
O830 O 0.33453 0.17152 0.62558 0.0
O831 O 0.31272 0.16345 0.66752 0.0
O832 O 0.28292 0.1246 0.67629 0.0
O833 O 0.31024 0.12161 0.65457 0.0
O834 O 0.33129 0.18997 0.6486 0.0
O835 O 0.32637 0.13315 0.6282 0.0
O836 O 0.31945 0.14494 0.72298 0.0
O837 O 0.33953 0.15262 0.68138 0.0
O838 O 0.36928 0.19065 0.67309 0.0
O839 O 0.34206 0.19419 0.69458 0.0
O840 O 0.32145 0.12619 0.70039 0.0
O841 O 0.32311 0.18166 0.72151 0.0
C842 C 0.31347 0.1821 0.66042 0.0
C843 C 0.33517 0.14809 0.59728 0.0
C844 C 0.32555 0.14113 0.56251 0.0
C845 C 0.31833 0.14221 0.58153 0.0
C846 C 0.3502 0.14632 0.5595 0.0
C847 C 0.35963 0.15308 0.59412 0.0
C848 C 0.36708 0.1522 0.57526 0.0
C849 C 0.28774 0.11223 0.66208 0.0
C850 C 0.32643 0.14896 0.61671 0.0
C851 C 0.44176 0.19274 0.63922 0.0
C852 C 0.43348 0.16706 0.64124 0.0
C853 C 0.33916 0.13416 0.68844 0.0
C854 C 0.31309 0.16364 0.7514 0.0
C855 C 0.32711 0.16545 0.76797 0.0
C856 C 0.31646 0.16176 0.78616 0.0
C857 C 0.29142 0.15628 0.78739 0.0
C858 C 0.2883 0.15843 0.75298 0.0
C859 C 0.27754 0.15475 0.77091 0.0
C860 C 0.36466 0.20312 0.68735 0.0
C861 C 0.32447 0.16621 0.73261 0.0
H862 H 0.2996 0.13885 0.58415 0.0
H863 H 0.35633 0.14555 0.54504 0.0
H864 H 0.37287 0.15766 0.60615 0.0
H865 H 0.38599 0.15607 0.57283 0.0
H866 H 0.34642 0.16994 0.76664 0.0
H867 H 0.28241 0.15289 0.80105 0.0
H868 H 0.27725 0.15711 0.74041 0.0
H869 H 0.25832 0.15054 0.77203 0.0
Tb870 Tb 0.84672 0.16156 0.6985 0.0
C871 C 0.79288 0.19855 0.6477 0.0
C872 C 0.74895 0.16494 0.64615 0.0
C873 C 0.76012 0.20883 0.64359 0.0
C874 C 0.77482 0.17317 0.6483 0.0
C875 C 0.78585 0.21666 0.6449 0.0
C876 C 0.74168 0.18299 0.64424 0.0
C877 C 0.83009 0.2483 0.6433 0.0
N878 N 0.81748 0.20524 0.64891 0.0
C879 C 0.83609 0.22957 0.64599 0.0
C880 C 0.80487 0.2419 0.64299 0.0
Tb881 Tb 0.8255 0.17344 0.65393 0.0
N882 N 0.78269 0.15638 0.64997 0.0
C883 C 0.7655 0.13069 0.64819 0.0
C884 C 0.73125 0.13877 0.64547 0.0
C885 C 0.7396 0.12156 0.64621 0.0
H886 H 0.85564 0.23478 0.64629 0.0
H887 H 0.7261 0.10123 0.64533 0.0
H888 H 0.72189 0.17708 0.64276 0.0
H889 H 0.84492 0.26765 0.64147 0.0
H890 H 0.7715 0.11704 0.64882 0.0
H891 H 0.94566 0.23532 0.7068 0.0
H892 H 0.71119 0.13165 0.64392 0.0
H893 H 0.81803 0.1004 0.70624 0.0
H894 H 0.90005 0.21859 0.70382 0.0
H895 H 0.82978 0.0681 0.71047 0.0
H896 H 0.75429 0.22248 0.64162 0.0
H897 H 0.96159 0.20564 0.70729 0.0
H898 H 0.95195 0.16047 0.70783 0.0
H899 H 0.80027 0.25641 0.64083 0.0
H900 H 0.92034 0.11482 0.70895 0.0
N901 N 0.88972 0.17945 0.7021 0.0
C902 C 0.90648 0.20525 0.70408 0.0
C903 C 0.94143 0.19811 0.70597 0.0
C904 C 0.92419 0.17183 0.70513 0.0
C905 C 0.9325 0.21491 0.70577 0.0
C906 C 0.89817 0.16306 0.70332 0.0
H907 H 0.87467 0.08021 0.71029 0.0
N908 N 0.85584 0.13043 0.7032 0.0
C909 C 0.84426 0.08757 0.70856 0.0
C910 C 0.88056 0.13758 0.70395 0.0
C911 C 0.83768 0.10595 0.70623 0.0
C912 C 0.86961 0.09446 0.7084 0.0
C913 C 0.88819 0.11984 0.70639 0.0
O914 O 0.82764 0.14765 0.72377 0.0
O915 O 0.81673 0.16153 0.68258 0.0
O916 O 0.82734 0.20125 0.67633 0.0
O917 O 0.85562 0.20156 0.69889 0.0
O918 O 0.8064 0.13282 0.69973 0.0
O919 O 0.85926 0.18618 0.72412 0.0
O920 O 0.84631 0.18625 0.62924 0.0
O921 O 0.85527 0.1732 0.66989 0.0
O922 O 0.84436 0.13352 0.67595 0.0
O923 O 0.81592 0.13334 0.65365 0.0
O924 O 0.86598 0.20212 0.653 0.0
O925 O 0.81175 0.14969 0.62783 0.0
C926 C 0.79768 0.14235 0.68837 0.0
C927 C 0.85264 0.16572 0.7527 0.0
C928 C 0.85006 0.16392 0.78758 0.0
C929 C 0.84092 0.16634 0.7698 0.0
C930 C 0.87093 0.16055 0.78792 0.0
C931 C 0.87348 0.16243 0.75336 0.0
C932 C 0.88249 0.15976 0.77089 0.0
C933 C 0.8432 0.21176 0.69167 0.0
C934 C 0.84291 0.16868 0.7344 0.0
C935 C 0.91405 0.12817 0.70728 0.0
C936 C 0.93205 0.15416 0.70663 0.0
C937 C 0.8745 0.1923 0.66426 0.0
C938 C 0.82304 0.17158 0.5996 0.0
C939 C 0.83549 0.17026 0.58312 0.0
C940 C 0.83066 0.17694 0.56536 0.0
C941 C 0.81295 0.18488 0.56449 0.0
C942 C 0.80523 0.17915 0.59832 0.0
C943 C 0.80025 0.18578 0.58083 0.0
C944 C 0.82842 0.12312 0.66062 0.0
C945 C 0.82999 0.16628 0.61812 0.0
H946 H 0.82503 0.16924 0.76929 0.0
H947 H 0.87824 0.15838 0.80136 0.0
H948 H 0.88286 0.16206 0.74041 0.0
H949 H 0.89856 0.15718 0.7713 0.0
H950 H 0.84886 0.1639 0.58422 0.0
H951 H 0.80907 0.19071 0.55126 0.0
H952 H 0.79534 0.18013 0.6108 0.0
H953 H 0.78666 0.19187 0.57996 0.0
H954 H 0.34231 0.85056 0.05875 0.0
H955 H 0.30507 0.88228 0.0286 0.0
H956 H 0.38308 0.88421 0.04913 0.0
H957 H 0.34584 0.91566 0.01866 0.0
H958 H 0.42501 0.98901 0.02873 0.0
H959 H 0.38308 0.95331 0.03424 0.0
H960 H 0.40935 0.90075 0.02171 0.0
H961 H 0.45142 0.93665 0.01681 0.0
C962 C 0.34279 0.86458 0.04993 0.0
C963 C 0.32042 0.86382 0.04457 0.0
C964 C 0.36617 0.88377 0.04428 0.0
C965 C 0.36776 0.90267 0.03314 0.0
C966 C 0.34533 0.90159 0.02745 0.0
C967 C 0.32194 0.8824 0.0331 0.0
C968 C 0.42162 0.96975 0.02689 0.0
C969 C 0.44121 0.9655 0.02184 0.0
C970 C 0.39761 0.94929 0.02995 0.0
C971 C 0.39279 0.92413 0.02835 0.0
C972 C 0.41245 0.9199 0.02317 0.0
C973 C 0.43648 0.94041 0.02008 0.0
H974 H 0.16641 0.51362 0.06615 0.0
H975 H 0.1322 0.43723 0.03754 0.0
H976 H 0.13142 0.51715 0.05393 0.0
H977 H 0.09724 0.44092 0.02512 0.0
H978 H 0.02463 0.44575 0.03209 0.0
H979 H 0.06151 0.44241 0.03945 0.0
H980 H 0.11049 0.51964 0.02486 0.0
H981 H 0.07359 0.52303 0.01796 0.0
C982 C 0.15159 0.49767 0.05705 0.0
C983 C 0.15208 0.47507 0.05295 0.0
C984 C 0.13157 0.49977 0.04993 0.0
C985 C 0.11143 0.47927 0.03861 0.0
C986 C 0.1123 0.45695 0.034 0.0
C987 C 0.13242 0.4549 0.04103 0.0
C988 C 0.04331 0.46187 0.03026 0.0
C989 C 0.04621 0.48442 0.02404 0.0
C990 C 0.06443 0.45993 0.03434 0.0
C991 C 0.089 0.48072 0.03266 0.0
C992 C 0.09186 0.5033 0.02639 0.0
C993 C 0.0707 0.50518 0.02222 0.0
H994 H 0.55126 0.68588 0.08398 0.0
H995 H 0.53761 0.69702 0.02562 0.0
H996 H 0.54004 0.64236 0.0735 0.0
H997 H 0.52655 0.65327 0.01509 0.0
H998 H 0.48497 0.56461 0.00903 0.0
H999 H 0.49405 0.60773 0.01893 0.0
H1000 H 0.55908 0.62224 0.05355 0.0
H1001 H 0.55021 0.57934 0.04362 0.0
C1002 C 0.54579 0.67904 0.06891 0.0
C1003 C 0.54548 0.695 0.05561 0.0
C1004 C 0.53949 0.6541 0.06289 0.0
C1005 C 0.53265 0.64446 0.04344 0.0
C1006 C 0.53164 0.66014 0.0302 0.0
C1007 C 0.53806 0.68521 0.03621 0.0
C1008 C 0.50138 0.57707 0.01857 0.0
C1009 C 0.517 0.56854 0.02537 0.0
C1010 C 0.50654 0.60178 0.02425 0.0
C1011 C 0.52725 0.61836 0.03704 0.0
C1012 C 0.54279 0.60979 0.04387 0.0
C1013 C 0.53775 0.5852 0.0381 0.0
H1014 H 0.83012 0.31101 0.97103 0.0
H1015 H 0.88742 0.29312 0.98421 0.0
H1016 H 0.86113 0.35648 0.97799 0.0
H1017 H 0.91816 0.33838 0.99151 0.0
H1018 H 0.9728 0.41994 0.97847 0.0
H1019 H 0.94047 0.37497 0.9731 0.0
H1020 H 0.88778 0.38995 0.00336 0.0
H1021 H 0.91995 0.43525 0.00817 0.0
C1022 C 0.84922 0.31674 0.97568 0.0
C1023 C 0.85634 0.29844 0.97691 0.0
C1024 C 0.86697 0.3428 0.97972 0.0
C1025 C 0.8922 0.35109 0.98508 0.0
C1026 C 0.89902 0.33269 0.98701 0.0
C1027 C 0.88133 0.3067 0.98296 0.0
C1028 C 0.95433 0.41374 0.98395 0.0
C1029 C 0.94914 0.43121 0.99403 0.0
C1030 C 0.93583 0.38786 0.98101 0.0
C1031 C 0.91162 0.37877 0.98803 0.0
C1032 C 0.90622 0.39632 0.99774 0.0
C1033 C 0.92476 0.42226 1.00066 0.0
H1034 H 0.69908 0.57029 0.97427 0.0
H1035 H 0.65479 0.49504 0.94392 0.0
H1036 H 0.66088 0.56565 0.98835 0.0
H1037 H 0.61672 0.49059 0.95774 0.0
H1038 H 0.55399 0.48174 0.99561 0.0
H1039 H 0.59429 0.48609 0.98724 0.0
H1040 H 0.62294 0.56465 0.97665 0.0
H1041 H 0.58277 0.56033 0.98555 0.0
C1042 C 0.68127 0.55268 0.97071 0.0
C1043 C 0.68005 0.5331 0.95786 0.0
C1044 C 0.65933 0.55008 0.97871 0.0
C1045 C 0.63566 0.52778 0.97414 0.0
C1046 C 0.63462 0.50791 0.96178 0.0
C1047 C 0.65649 0.51055 0.95373 0.0
C1048 C 0.56908 0.50008 0.99197 0.0
C1049 C 0.56543 0.52089 0.99167 0.0
C1050 C 0.59212 0.50252 0.98693 0.0
C1051 C 0.61194 0.52574 0.98125 0.0
C1052 C 0.6083 0.54661 0.98123 0.0
C1053 C 0.58525 0.54413 0.98621 0.0
H1054 H 0.5004 0.1731 0.96164 0.0
H1055 H 0.42399 0.12602 0.97898 0.0
H1056 H 0.51041 0.14144 0.97087 0.0
H1057 H 0.43404 0.09445 0.98815 0.0
H1058 H 0.45413 0.03157 0.97837 0.0
H1059 H 0.44485 0.06406 0.97053 0.0
H1060 H 0.51422 0.12248 1.00095 0.0
H1061 H 0.52367 0.08994 0.0088 0.0
C1062 C 0.48576 0.15604 0.96745 0.0
C1063 C 0.46137 0.15204 0.96953 0.0
C1064 C 0.49155 0.13801 0.97284 0.0
C1065 C 0.47299 0.11546 0.98019 0.0
C1066 C 0.44866 0.11153 0.98235 0.0
C1067 C 0.44295 0.12968 0.97718 0.0
C1068 C 0.46742 0.0513 0.98345 0.0
C1069 C 0.48958 0.0581 0.99432 0.0
C1070 C 0.46201 0.0699 0.97903 0.0
C1071 C 0.47876 0.09579 0.98518 0.0
C1072 C 0.50102 0.10268 0.99594 0.0
C1073 C 0.50632 0.08401 1.00054 0.0
H1074 H 0.6993 0.13073 0.97877 0.0
H1075 H 0.65504 0.155 0.94874 0.0
H1076 H 0.66059 0.09522 0.98976 0.0
H1077 H 0.61646 0.11941 0.95951 0.0
H1078 H 0.55297 0.06598 0.99498 0.0
H1079 H 0.59318 0.10334 0.98865 0.0
H1080 H 0.62397 0.05495 0.97486 0.0
H1081 H 0.58375 0.01759 0.98174 0.0
C1082 C 0.68134 0.12854 0.97455 0.0
C1083 C 0.68026 0.14566 0.96282 0.0
C1084 C 0.65918 0.10814 0.98079 0.0
C1085 C 0.63547 0.10449 0.97551 0.0
C1086 C 0.63444 0.12187 0.96405 0.0
C1087 C 0.65656 0.14217 0.95775 0.0
C1088 C 0.56848 0.06338 0.99107 0.0
C1089 C 0.56547 0.03897 0.9893 0.0
C1090 C 0.59144 0.08477 0.9872 0.0
C1091 C 0.61178 0.08213 0.98122 0.0
C1092 C 0.60881 0.05769 0.97969 0.0
C1093 C 0.58579 0.03631 0.98352 0.0
H1094 H 0.88835 0.58212 0.97654 0.0
H1095 H 0.84968 0.50648 0.9463 0.0
H1096 H 0.92274 0.57607 0.98642 0.0
H1097 H 0.88426 0.50059 0.95597 0.0
H1098 H 0.94117 0.49036 0.99097 0.0
H1099 H 0.90523 0.49555 0.98401 0.0
H1100 H 0.95676 0.57305 0.97112 0.0
H1101 H 0.99249 0.56788 0.97847 0.0
C1102 C 0.88716 0.56419 0.97198 0.0
C1103 C 0.86626 0.54484 0.96053 0.0
C1104 C 0.90695 0.56076 0.97759 0.0
C1105 C 0.90635 0.53787 0.97195 0.0
C1106 C 0.88525 0.51835 0.96076 0.0
C1107 C 0.86548 0.52182 0.95509 0.0
C1108 C 0.94475 0.5086 0.987 0.0
C1109 C 0.9696 0.52898 0.98577 0.0
C1110 C 0.92418 0.51151 0.98277 0.0
C1111 C 0.92807 0.53478 0.97709 0.0
C1112 C 0.95302 0.55504 0.97579 0.0
C1113 C 0.9735 0.55207 0.9799 0.0
H1114 H 0.51105 0.3203 0.95965 0.0
H1115 H 0.43077 0.28767 0.96494 0.0
H1116 H 0.51835 0.36208 0.9719 0.0
H1117 H 0.43812 0.32926 0.97762 0.0
H1118 H 0.45775 0.412 0.9764 0.0
H1119 H 0.45068 0.36988 0.96581 0.0
H1120 H 0.5168 0.38662 1.00014 0.0
H1121 H 0.52447 0.42907 0.01008 0.0
C1122 C 0.49499 0.32196 0.96367 0.0
C1123 C 0.47032 0.30067 0.96121 0.0
C1124 C 0.49918 0.34591 0.97077 0.0
C1125 C 0.4788 0.34908 0.97562 0.0
C1126 C 0.4542 0.3276 0.97368 0.0
C1127 C 0.45001 0.3037 0.96654 0.0
C1128 C 0.47079 0.40672 0.9817 0.0
C1129 C 0.49153 0.42387 0.99426 0.0
C1130 C 0.46662 0.38247 0.97575 0.0
C1131 C 0.48308 0.37477 0.98222 0.0
C1132 C 0.50385 0.39196 0.99476 0.0
C1133 C 0.50807 0.41624 1.00065 0.0
H1134 H 0.19214 0.68532 0.05098 0.0
H1135 H 0.14372 0.71647 0.04566 0.0
H1136 H 0.15737 0.64324 0.03865 0.0
H1137 H 0.10918 0.67456 0.03294 0.0
H1138 H 0.04603 0.59127 0.03582 0.0
H1139 H 0.08143 0.63403 0.04539 0.0
H1140 H 0.13025 0.61792 0.01054 0.0
H1141 H 0.09508 0.57484 1.00149 0.0
C1142 C 0.1742 0.68328 0.04691 0.0
C1143 C 0.17067 0.70423 0.04944 0.0
C1144 C 0.15428 0.65916 0.03977 0.0
C1145 C 0.1304 0.65546 0.03495 0.0
C1146 C 0.12717 0.67663 0.03686 0.0
C1147 C 0.14705 0.70071 0.04403 0.0
C1148 C 0.06428 0.59682 0.03015 0.0
C1149 C 0.06761 0.5796 0.01778 0.0
C1150 C 0.08457 0.62145 0.03552 0.0
C1151 C 0.10869 0.62949 0.02867 0.0
C1152 C 0.11199 0.61231 0.01621 0.0
C1153 C 0.09171 0.58765 0.01086 0.0
H1154 H 0.30667 0.41801 0.03846 0.0
H1155 H 0.34618 0.49381 0.06842 0.0
H1156 H 0.34682 0.42347 0.02833 0.0
H1157 H 0.38635 0.49909 0.05858 0.0
H1158 H 0.45273 0.50953 0.02357 0.0
H1159 H 0.41166 0.50416 0.0307 0.0
H1160 H 0.3843 0.42617 0.04228 0.0
H1161 H 0.42521 0.43149 0.03458 0.0
C1162 C 0.32391 0.43582 0.04295 0.0
C1163 C 0.32314 0.45543 0.05432 0.0
C1164 C 0.34698 0.43892 0.03719 0.0
C1165 C 0.3699 0.46172 0.04263 0.0
C1166 C 0.36909 0.4814 0.05389 0.0
C1167 C 0.34603 0.47829 0.05967 0.0
C1168 C 0.43779 0.49112 0.02724 0.0
C1169 C 0.44196 0.47071 0.02804 0.0
C1170 C 0.41431 0.48811 0.03159 0.0
C1171 C 0.39457 0.46471 0.03707 0.0
C1172 C 0.39886 0.44433 0.03783 0.0
C1173 C 0.42233 0.44738 0.03352 0.0
H1174 H 0.56763 0.86565 0.04229 0.0
H1175 H 0.49116 0.82887 0.06101 0.0
H1176 H 0.56241 0.89907 0.03004 0.0
H1177 H 0.48596 0.86224 0.04865 0.0
H1178 H 0.47901 0.91219 0.00562 0.0
H1179 H 0.48457 0.87821 0.01619 0.0
H1180 H 0.55619 0.93469 0.04481 0.0
H1181 H 0.55074 0.9687 0.03429 0.0
C1182 C 0.5497 0.86465 0.04374 0.0
C1183 C 0.52982 0.84464 0.05266 0.0
C1184 C 0.54676 0.88384 0.0368 0.0
C1185 C 0.52378 0.88322 0.03838 0.0
C1186 C 0.50381 0.86306 0.04708 0.0
C1187 C 0.50685 0.84406 0.05426 0.0
C1188 C 0.49605 0.91739 0.01403 0.0
C1189 C 0.51445 0.94318 0.01909 0.0
C1190 C 0.49912 0.89792 0.02019 0.0
C1191 C 0.52079 0.90382 0.03134 0.0
C1192 C 0.53939 0.92958 0.0361 0.0
C1193 C 0.53619 0.94905 0.03015 0.0
H1194 H 0.99816 0.18326 0.36496 0.0
H1195 H 0.98315 0.24026 0.39063 0.0
H1196 H 0.0386 0.21677 0.35471 0.0
H1197 H 0.02428 0.27384 0.38215 0.0
H1198 H 0.09231 0.33277 0.3559 0.0
H1199 H 0.04979 0.29757 0.35989 0.0
H1200 H 0.07909 0.24707 0.3636 0.0
H1201 H 0.12102 0.28201 0.35795 0.0
C1202 C 0.00374 0.20305 0.3686 0.0
C1203 C 0.98757 0.20922 0.37853 0.0
C1204 C 0.02706 0.22236 0.36287 0.0
C1205 C 0.03512 0.24836 0.36751 0.0
C1206 C 0.01878 0.25428 0.37768 0.0
C1207 C 0.99518 0.23499 0.38281 0.0
C1208 C 0.08936 0.31392 0.35714 0.0
C1209 C 0.10972 0.30991 0.35611 0.0
C1210 C 0.06503 0.29371 0.35974 0.0
C1211 C 0.06065 0.2692 0.36243 0.0
C1212 C 0.08126 0.26531 0.36124 0.0
C1213 C 0.10547 0.28541 0.35801 0.0
H1214 H 0.79919 0.76995 0.36893 0.0
H1215 H 0.83227 0.84357 0.40198 0.0
H1216 H 0.76477 0.77498 0.35718 0.0
H1217 H 0.79783 0.84842 0.39042 0.0
H1218 H 0.74235 0.85851 0.3546 0.0
H1219 H 0.77867 0.85425 0.36184 0.0
H1220 H 0.72825 0.77513 0.37134 0.0
H1221 H 0.69198 0.77941 0.36367 0.0
C1222 C 0.79927 0.78729 0.37357 0.0
C1223 C 0.81849 0.8063 0.38648 0.0
C1224 C 0.77944 0.7901 0.36692 0.0
C1225 C 0.77843 0.81205 0.37293 0.0
C1226 C 0.7981 0.83138 0.38534 0.0
C1227 C 0.81781 0.82852 0.39207 0.0
C1228 C 0.73905 0.84011 0.35784 0.0
C1229 C 0.71435 0.81908 0.35804 0.0
C1230 C 0.75987 0.83772 0.36221 0.0
C1231 C 0.75643 0.8143 0.36709 0.0
C1232 C 0.73164 0.79331 0.36731 0.0
C1233 C 0.71086 0.79577 0.36304 0.0
H1234 H 0.20239 0.02565 0.38966 0.0
H1235 H 0.21205 0.00022 0.44349 0.0
H1236 H 0.19781 0.98723 0.37224 0.0
H1237 H 0.20716 0.96169 0.42606 0.0
H1238 H 0.22109 0.90748 0.38653 0.0
H1239 H 0.22853 0.94754 0.40291 0.0
H1240 H 0.16633 0.94098 0.36909 0.0
H1241 H 0.15877 0.90087 0.3527 0.0
C1242 C 0.20365 0.01193 0.39778 0.0
C1243 C 0.20753 0.01597 0.41798 0.0
C1244 C 0.20086 0.98985 0.38779 0.0
C1245 C 0.20201 0.97139 0.39778 0.0
C1246 C 0.20642 0.97568 0.41793 0.0
C1247 C 0.20911 0.99771 0.42793 0.0
C1248 C 0.20901 0.91457 0.38251 0.0
C1249 C 0.18944 0.901 0.36815 0.0
C1250 C 0.21325 0.93751 0.39197 0.0
C1251 C 0.19805 0.94744 0.38728 0.0
C1252 C 0.17862 0.93401 0.37282 0.0
C1253 C 0.17429 0.911 0.36341 0.0
H1254 H 0.5375 0.64954 0.26477 0.0
H1255 H 0.50869 0.64018 0.32192 0.0
H1256 H 0.56996 0.69337 0.27521 0.0
H1257 H 0.54156 0.68419 0.33244 0.0
H1258 H 0.58908 0.77265 0.33723 0.0
H1259 H 0.55527 0.72907 0.32727 0.0
H1260 H 0.60826 0.71508 0.29653 0.0
H1261 H 0.64208 0.75853 0.30652 0.0
C1262 C 0.53805 0.65683 0.27957 0.0
C1263 C 0.52054 0.64129 0.29254 0.0
C1264 C 0.55678 0.68194 0.28558 0.0
C1265 C 0.55847 0.69219 0.30469 0.0
C1266 C 0.54064 0.67688 0.31758 0.0
C1267 C 0.52189 0.65165 0.31158 0.0
C1268 C 0.59362 0.76021 0.32855 0.0
C1269 C 0.6184 0.76906 0.32286 0.0
C1270 C 0.5742 0.73523 0.32283 0.0
C1271 C 0.57908 0.71862 0.31111 0.0
C1272 C 0.60382 0.7275 0.30537 0.0
C1273 C 0.62325 0.75242 0.31116 0.0
H1274 H 0.35029 0.91067 0.27302 0.0
H1275 H 0.35445 0.85712 0.30742 0.0
H1276 H 0.31194 0.90274 0.28811 0.0
H1277 H 0.31585 0.84947 0.32297 0.0
H1278 H 0.2289 0.8218 0.32549 0.0
H1279 H 0.27006 0.8298 0.31536 0.0
H1280 H 0.29738 0.91064 0.31829 0.0
H1281 H 0.25618 0.90244 0.32808 0.0
C1282 C 0.34315 0.89731 0.28395 0.0
C1283 C 0.35555 0.88456 0.28899 0.0
C1284 C 0.32116 0.8929 0.29275 0.0
C1285 C 0.31087 0.87564 0.30693 0.0
C1286 C 0.32321 0.86281 0.31205 0.0
C1287 C 0.34538 0.86727 0.3032 0.0
C1288 C 0.24391 0.84129 0.32443 0.0
C1289 C 0.23948 0.86157 0.32778 0.0
C1290 C 0.26751 0.8459 0.31859 0.0
C1291 C 0.28699 0.87085 0.31576 0.0
C1292 C 0.28271 0.89114 0.31994 0.0
C1293 C 0.25918 0.88651 0.32568 0.0
H1294 H 0.11723 0.49088 0.32812 0.0
H1295 H 0.1499 0.49229 0.27312 0.0
H1296 H 0.12788 0.45964 0.33755 0.0
H1297 H 0.15978 0.46044 0.2824 0.0
H1298 H 0.13681 0.37817 0.30274 0.0
H1299 H 0.12791 0.4103 0.2929 0.0
H1300 H 0.17517 0.46261 0.34092 0.0
H1301 H 0.18532 0.4312 0.35027 0.0
C1302 C 0.12655 0.48441 0.31803 0.0
C1303 C 0.13278 0.494 0.2999 0.0
C1304 C 0.1327 0.46667 0.32345 0.0
C1305 C 0.1446 0.45776 0.31066 0.0
C1306 C 0.15055 0.46706 0.29245 0.0
C1307 C 0.14497 0.48528 0.2872 0.0
C1308 C 0.14544 0.39652 0.31121 0.0
C1309 C 0.16139 0.40182 0.32762 0.0
C1310 C 0.14033 0.41487 0.30552 0.0
C1311 C 0.15068 0.4387 0.3163 0.0
C1312 C 0.16674 0.44419 0.33255 0.0
C1313 C 0.17236 0.42608 0.33797 0.0
H1314 H 0.32497 0.49407 0.28357 0.0
H1315 H 0.37012 0.47207 0.31505 0.0
H1316 H 0.28681 0.45976 0.29596 0.0
H1317 H 0.33187 0.43789 0.32767 0.0
H1318 H 0.22409 0.40896 0.33296 0.0
H1319 H 0.26421 0.44582 0.32565 0.0
H1320 H 0.29506 0.39696 0.3146 0.0
H1321 H 0.25501 0.36023 0.32243 0.0
C1322 C 0.32678 0.48203 0.29324 0.0
C1323 C 0.3506 0.48574 0.29823 0.0
C1324 C 0.30491 0.46248 0.30048 0.0
C1325 C 0.3063 0.44611 0.31284 0.0
C1326 C 0.33014 0.45003 0.31804 0.0
C1327 C 0.35206 0.46966 0.31085 0.0
C1328 C 0.2396 0.40621 0.32944 0.0
C1329 C 0.23661 0.38182 0.32858 0.0
C1330 C 0.26252 0.42728 0.32502 0.0
C1331 C 0.28282 0.42432 0.31945 0.0
C1332 C 0.27994 0.39997 0.31906 0.0
C1333 C 0.257 0.37893 0.32344 0.0
H1334 H 0.52055 0.8437 0.27965 0.0
H1335 H 0.55771 0.91781 0.31227 0.0
H1336 H 0.55563 0.8382 0.28846 0.0
H1337 H 0.59254 0.91208 0.32138 0.0
H1338 H 0.6633 0.90601 0.31379 0.0
H1339 H 0.62738 0.91085 0.30627 0.0
H1340 H 0.57623 0.83175 0.31552 0.0
H1341 H 0.61229 0.82691 0.32249 0.0
C1342 C 0.53612 0.85877 0.28879 0.0
C1343 C 0.53634 0.88126 0.29516 0.0
C1344 C 0.55618 0.85553 0.29396 0.0
C1345 C 0.57699 0.87472 0.30559 0.0
C1346 C 0.57702 0.89707 0.31216 0.0
C1347 C 0.55697 0.9003 0.30701 0.0
C1348 C 0.64433 0.88975 0.31433 0.0
C1349 C 0.64055 0.86633 0.31929 0.0
C1350 C 0.62375 0.89252 0.31013 0.0
C1351 C 0.59885 0.87176 0.31045 0.0
C1352 C 0.59512 0.84812 0.31505 0.0
C1353 C 0.61576 0.8454 0.31931 0.0
H1354 H 0.13559 0.65296 0.25147 0.0
H1355 H 0.16505 0.64349 0.30455 0.0
H1356 H 0.14073 0.69297 0.26586 0.0
H1357 H 0.16952 0.68322 0.31917 0.0
H1358 H 0.20088 0.76859 0.33148 0.0
H1359 H 0.19496 0.72836 0.31718 0.0
H1360 H 0.12409 0.71033 0.28968 0.0
H1361 H 0.13027 0.75106 0.30384 0.0
C1362 C 0.14303 0.65934 0.26626 0.0
C1363 C 0.15001 0.64508 0.27685 0.0
C1364 C 0.1458 0.68222 0.27457 0.0
C1365 C 0.15551 0.69134 0.29368 0.0
C1366 C 0.16233 0.67696 0.30431 0.0
C1367 C 0.15967 0.65412 0.29597 0.0
C1368 C 0.18392 0.75601 0.3225 0.0
C1369 C 0.16591 0.76295 0.31894 0.0
C1370 C 0.18049 0.73285 0.31434 0.0
C1371 C 0.15897 0.71598 0.30238 0.0
C1372 C 0.14102 0.723 0.29867 0.0
C1373 C 0.1445 0.74629 0.30682 0.0
H1374 H 0.80886 0.05302 0.3808 0.0
H1375 H 0.85973 0.02498 0.38729 0.0
H1376 H 0.77509 0.01013 0.36924 0.0
H1377 H 0.82574 0.98191 0.37625 0.0
H1378 H 0.76521 0.91156 0.33975 0.0
H1379 H 0.79935 0.95503 0.3489 0.0
H1380 H 0.74812 0.9698 0.38164 0.0
H1381 H 0.71363 0.92662 0.37171 0.0
C1382 C 0.81287 0.03771 0.37972 0.0
C1383 C 0.83699 0.04243 0.38501 0.0
C1384 C 0.79343 0.01306 0.37323 0.0
C1385 C 0.79759 0.99248 0.37197 0.0
C1386 C 0.8219 0.99733 0.37684 0.0
C1387 C 0.84139 0.02203 0.38324 0.0
C1388 C 0.76109 0.92415 0.34866 0.0
C1389 C 0.73653 0.91565 0.35473 0.0
C1390 C 0.7808 0.94904 0.35412 0.0
C1391 C 0.77653 0.96602 0.36596 0.0
C1392 C 0.75202 0.95742 0.37221 0.0
C1393 C 0.73225 0.93254 0.36666 0.0
H1394 H 0.01991 0.82748 0.4046 0.0
H1395 H 0.97875 0.75638 0.36832 0.0
H1396 H 0.05967 0.83161 0.39501 0.0
H1397 H 0.01857 0.7608 0.35836 0.0
H1398 H 0.12678 0.84443 0.36042 0.0
H1399 H 0.08638 0.84005 0.36816 0.0
H1400 H 0.05418 0.75894 0.37066 0.0
H1401 H 0.09457 0.76339 0.36217 0.0
C1402 C 0.01932 0.81276 0.39452 0.0
C1403 C 0.99607 0.79156 0.38729 0.0
C1404 C 0.04217 0.81523 0.38888 0.0
C1405 C 0.04244 0.79658 0.37584 0.0
C1406 C 0.01916 0.77538 0.3686 0.0
C1407 C 0.99628 0.7729 0.37426 0.0
C1408 C 0.11098 0.82561 0.36221 0.0
C1409 C 0.11366 0.80413 0.36013 0.0
C1410 C 0.08784 0.82312 0.36695 0.0
C1411 C 0.06688 0.79911 0.37006 0.0
C1412 C 0.0697 0.77765 0.36807 0.0
C1413 C 0.09287 0.78019 0.36332 0.0
H1414 H 0.16794 0.2127 0.44094 0.0
H1415 H 0.16416 0.16649 0.38931 0.0
H1416 H 0.17538 0.24713 0.42154 0.0
H1417 H 0.17156 0.20105 0.36988 0.0
H1418 H 0.14814 0.25592 0.34474 0.0
H1419 H 0.14637 0.22184 0.36179 0.0
H1420 H 0.20841 0.27781 0.4004 0.0
H1421 H 0.21059 0.31195 0.38324 0.0
C1422 C 0.16885 0.20995 0.42547 0.0
C1423 C 0.16539 0.18686 0.41665 0.0
C1424 C 0.17328 0.22973 0.41438 0.0
C1425 C 0.17408 0.22675 0.39422 0.0
C1426 C 0.1709 0.20378 0.38539 0.0
C1427 C 0.16678 0.18408 0.39652 0.0
C1428 C 0.16179 0.261 0.35658 0.0
C1429 C 0.17942 0.28673 0.36265 0.0
C1430 C 0.16074 0.24143 0.36635 0.0
C1431 C 0.17712 0.24722 0.3825 0.0
C1432 C 0.19535 0.27285 0.38813 0.0
C1433 C 0.19659 0.29239 0.37826 0.0
H1434 H 0.69562 0.53601 0.73294 0.0
H1435 H 0.65548 0.56365 0.70143 0.0
H1436 H 0.73509 0.56769 0.72026 0.0
H1437 H 0.69496 0.59496 0.68832 0.0
H1438 H 0.80057 0.61503 0.68527 0.0
H1439 H 0.75865 0.58014 0.69146 0.0
H1440 H 0.73311 0.63381 0.70053 0.0
H1441 H 0.77486 0.66845 0.69351 0.0
C1442 C 0.69519 0.54872 0.72318 0.0
C1443 C 0.67245 0.54746 0.71833 0.0
C1444 C 0.7178 0.56672 0.71574 0.0
C1445 C 0.71818 0.58382 0.70322 0.0
C1446 C 0.69534 0.58225 0.69809 0.0
C1447 C 0.67273 0.56429 0.70559 0.0
C1448 C 0.78579 0.6192 0.6879 0.0
C1449 C 0.79071 0.6443 0.68843 0.0
C1450 C 0.76184 0.59928 0.69176 0.0
C1451 C 0.74255 0.6042 0.6966 0.0
C1452 C 0.74739 0.62927 0.69658 0.0
C1453 C 0.77129 0.64913 0.69266 0.0
H1454 H 0.4827 0.13664 0.70187 0.0
H1455 H 0.43137 0.08787 0.74251 0.0
H1456 H 0.44924 0.14255 0.68887 0.0
H1457 H 0.39852 0.09411 0.72992 0.0
H1458 H 0.33641 0.0898 0.69387 0.0
H1459 H 0.3708 0.08289 0.70192 0.0
H1460 H 0.42472 0.16299 0.69822 0.0
H1461 H 0.39017 0.16968 0.68995 0.0
C1462 C 0.46434 0.12718 0.70802 0.0
C1463 C 0.45976 0.11173 0.72322 0.0
C1464 C 0.44521 0.13066 0.70063 0.0
C1465 C 0.42108 0.11866 0.70823 0.0
C1466 C 0.41664 0.10324 0.7234 0.0
C1467 C 0.43564 0.09981 0.73075 0.0
C1468 C 0.35567 0.10582 0.69451 0.0
C1469 C 0.36063 0.13015 0.69096 0.0
C1470 C 0.37538 0.10194 0.69923 0.0
C1471 C 0.40057 0.12242 0.70091 0.0
C1472 C 0.4056 0.14672 0.69687 0.0
C1473 C 0.3858 0.15058 0.69209 0.0
H1474 H 0.81392 0.32181 0.75175 0.0
H1475 H 0.89508 0.36447 0.74807 0.0
H1476 H 0.81211 0.28427 0.73538 0.0
H1477 H 0.89314 0.32676 0.73142 0.0
H1478 H 0.87883 0.24421 0.72 0.0
H1479 H 0.88262 0.28258 0.73709 0.0
H1480 H 0.81884 0.2715 0.70264 0.0
H1481 H 0.81462 0.2331 0.68597 0.0
C1482 C 0.8314 0.32319 0.74746 0.0
C1483 C 0.85463 0.34617 0.75114 0.0
C1484 C 0.83032 0.3017 0.73798 0.0
C1485 C 0.85246 0.30264 0.73198 0.0
C1486 C 0.87579 0.32545 0.73598 0.0
C1487 C 0.87687 0.34705 0.74543 0.0
C1488 C 0.86567 0.25002 0.71605 0.0
C1489 C 0.84648 0.23562 0.70156 0.0
C1490 C 0.86794 0.27205 0.72577 0.0
C1491 C 0.85094 0.27995 0.72126 0.0
C1492 C 0.83201 0.26571 0.70661 0.0
C1493 C 0.82978 0.24381 0.6969 0.0
H1494 H 0.18876 0.96536 0.59714 0.0
H1495 H 0.16744 0.95382 0.65622 0.0
H1496 H 0.21825 0.01049 0.6066 0.0
H1497 H 0.19714 0.99916 0.66566 0.0
H1498 H 0.23781 0.08737 0.67069 0.0
H1499 H 0.20525 0.04327 0.6605 0.0
H1500 H 0.25891 0.03413 0.62649 0.0
H1501 H 0.29155 0.0779 0.6369 0.0
C1502 C 0.19021 0.97247 0.61213 0.0
C1503 C 0.17588 0.95595 0.62596 0.0
C1504 C 0.2072 0.99831 0.61754 0.0
C1505 C 0.21012 0.00827 0.63687 0.0
C1506 C 0.19516 0.992 0.65062 0.0
C1507 C 0.17826 0.96604 0.64523 0.0
C1508 C 0.24277 0.0759 0.66122 0.0
C1509 C 0.26748 0.08606 0.65496 0.0
C1510 C 0.22407 0.05067 0.65533 0.0
C1511 C 0.22958 0.03526 0.64277 0.0
C1512 C 0.25406 0.04564 0.63607 0.0
C1513 C 0.27281 0.07073 0.64212 0.0
H1514 H 0.98666 0.17034 0.60858 0.0
H1515 H 0.03278 0.23863 0.64688 0.0
H1516 H 0.94877 0.16634 0.62231 0.0
H1517 H 0.99465 0.23438 0.66088 0.0
H1518 H 0.91924 0.23533 0.65985 0.0
H1519 H 0.95906 0.23885 0.65065 0.0
H1520 H 0.92473 0.15718 0.65106 0.0
H1521 H 0.88501 0.15375 0.65955 0.0
C1522 C 0.98876 0.18437 0.6201 0.0
C1523 C 0.01282 0.20487 0.62655 0.0
C1524 C 0.96698 0.18197 0.62808 0.0
C1525 C 0.96861 0.20005 0.64271 0.0
C1526 C 0.9927 0.22027 0.64949 0.0
C1527 C 0.01456 0.22261 0.64155 0.0
C1528 C 0.9204 0.21823 0.6582 0.0
C1529 C 0.89914 0.19436 0.66087 0.0
C1530 C 0.94322 0.22023 0.65305 0.0
C1531 C 0.94515 0.19829 0.65011 0.0
C1532 C 0.9239 0.17445 0.65304 0.0
C1533 C 0.90114 0.17249 0.65819 0.0
H1534 H 0.77385 0.80244 0.66173 0.0
H1535 H 0.81528 0.82008 0.60972 0.0
H1536 H 0.79338 0.77831 0.67076 0.0
H1537 H 0.83413 0.79521 0.61856 0.0
H1538 H 0.81808 0.71157 0.63407 0.0
H1539 H 0.80525 0.74113 0.62541 0.0
H1540 H 0.84699 0.79219 0.67566 0.0
H1541 H 0.86122 0.7633 0.68394 0.0
C1542 C 0.78712 0.80117 0.65226 0.0
C1543 C 0.79301 0.81302 0.635 0.0
C1544 C 0.79838 0.78757 0.6575 0.0
C1545 C 0.81524 0.78516 0.64536 0.0
C1546 C 0.82124 0.79703 0.62814 0.0
C1547 C 0.81046 0.81117 0.62312 0.0
C1548 C 0.82484 0.72915 0.64327 0.0
C1549 C 0.84025 0.7347 0.66007 0.0
C1550 C 0.81749 0.74607 0.63822 0.0
C1551 C 0.82502 0.76866 0.64998 0.0
C1552 C 0.84083 0.77467 0.6665 0.0
C1553 C 0.84876 0.75802 0.67131 0.0
H1554 H 0.05005 0.8076 0.648 0.0
H1555 H 0.00505 0.83023 0.61701 0.0
H1556 H 0.01164 0.77258 0.65975 0.0
H1557 H 0.96678 0.7951 0.62854 0.0
H1558 H 0.93525 0.69441 0.65223 0.0
H1559 H 0.97532 0.73184 0.64522 0.0
H1560 H 0.94375 0.77976 0.65791 0.0
H1561 H 0.90368 0.7423 0.66437 0.0
C1562 C 0.03199 0.80518 0.64376 0.0
C1563 C 0.03059 0.82164 0.6315 0.0
C1564 C 0.01001 0.78506 0.65043 0.0
C1565 C 0.98619 0.78106 0.64506 0.0
C1566 C 0.98486 0.79787 0.63315 0.0
C1567 C 0.0068 0.8179 0.62642 0.0
C1568 C 0.93709 0.71304 0.65373 0.0
C1569 C 0.91657 0.71555 0.65916 0.0
C1570 C 0.96001 0.73446 0.64984 0.0
C1571 C 0.96269 0.75876 0.65101 0.0
C1572 C 0.9422 0.76127 0.65673 0.0
C1573 C 0.91932 0.73985 0.66064 0.0
H1574 H 0.21533 0.24465 0.64862 0.0
H1575 H 0.17804 0.17226 0.61365 0.0
H1576 H 0.24772 0.23616 0.65937 0.0
H1577 H 0.21074 0.16401 0.62408 0.0
H1578 H 0.2624 0.14703 0.65881 0.0
H1579 H 0.22807 0.15449 0.65144 0.0
H1580 H 0.28278 0.23403 0.6463 0.0
H1581 H 0.31683 0.22656 0.65421 0.0
C1582 C 0.21405 0.22694 0.64318 0.0
C1583 C 0.1941 0.2092 0.63019 0.0
C1584 C 0.23271 0.2221 0.6493 0.0
C1585 C 0.23195 0.19941 0.64257 0.0
C1586 C 0.2118 0.18153 0.62977 0.0
C1587 C 0.19313 0.18636 0.62365 0.0
C1588 C 0.26697 0.16617 0.65651 0.0
C1589 C 0.29222 0.18638 0.65758 0.0
C1590 C 0.24734 0.17042 0.65203 0.0
C1591 C 0.25258 0.19491 0.6483 0.0
C1592 C 0.27793 0.21504 0.64941 0.0
C1593 C 0.29747 0.21077 0.65385 0.0
H1594 H 0.81503 0.97664 0.63161 0.0
H1595 H 0.8011 0.99685 0.57673 0.0
H1596 H 0.82186 0.01674 0.64725 0.0
H1597 H 0.80844 0.03739 0.59243 0.0
H1598 H 0.79288 0.09151 0.6321 0.0
H1599 H 0.78767 0.05245 0.61536 0.0
H1600 H 0.85159 0.06245 0.64901 0.0
H1601 H 0.85673 0.10126 0.6658 0.0
C1602 C 0.81366 0.98975 0.62283 0.0
C1603 C 0.80746 0.98352 0.60292 0.0
C1604 C 0.8177 0.01282 0.63181 0.0
C1605 C 0.81565 0.03022 0.62109 0.0
C1606 C 0.80984 0.0242 0.60111 0.0
C1607 C 0.80582 0.00108 0.5921 0.0
C1608 C 0.80581 0.08536 0.63594 0.0
C1609 C 0.82499 0.09933 0.6505 0.0
C1610 C 0.80292 0.06308 0.62625 0.0
C1611 C 0.81918 0.05433 0.63089 0.0
C1612 C 0.8385 0.06845 0.64531 0.0
C1613 C 0.8414 0.0907 0.65498 0.0
H1614 H 0.46547 0.33978 0.76254 0.0
H1615 H 0.50027 0.35299 0.70756 0.0
H1616 H 0.4321 0.29755 0.74912 0.0
H1617 H 0.4666 0.31107 0.69404 0.0
H1618 H 0.4151 0.22468 0.68148 0.0
H1619 H 0.44962 0.26578 0.69559 0.0
H1620 H 0.39621 0.27928 0.72622 0.0
H1621 H 0.36175 0.23811 0.71237 0.0
C1622 C 0.46598 0.33369 0.74759 0.0
C1623 C 0.48546 0.34977 0.7361 0.0
C1624 C 0.44679 0.30955 0.73987 0.0
C1625 C 0.44662 0.30101 0.72048 0.0
C1626 C 0.46632 0.31696 0.70908 0.0
C1627 C 0.48554 0.34106 0.71681 0.0
C1628 C 0.41069 0.23648 0.69112 0.0
C1629 C 0.38563 0.22818 0.69568 0.0
C1630 C 0.43049 0.26005 0.6992 0.0
C1631 C 0.42567 0.2758 0.71204 0.0
C1632 C 0.40061 0.26744 0.71662 0.0
C1633 C 0.38083 0.24388 0.70856 0.0
H1634 H 0.63692 0.08721 0.70043 0.0
H1635 H 0.67681 0.15847 0.73665 0.0
H1636 H 0.67705 0.0934 0.68957 0.0
H1637 H 0.71697 0.16436 0.72619 0.0
H1638 H 0.78472 0.1793 0.6918 0.0
H1639 H 0.74371 0.17369 0.69932 0.0
H1640 H 0.71328 0.09274 0.70116 0.0
H1641 H 0.75414 0.09841 0.69287 0.0
C1642 C 0.65425 0.10414 0.70617 0.0
C1643 C 0.65358 0.12229 0.71947 0.0
C1644 C 0.67732 0.10766 0.69998 0.0
C1645 C 0.70037 0.1294 0.70697 0.0
C1646 C 0.69965 0.14759 0.72023 0.0
C1647 C 0.67658 0.14409 0.72638 0.0
C1648 C 0.76913 0.16025 0.69332 0.0
C1649 C 0.77247 0.13918 0.69123 0.0
C1650 C 0.74565 0.15705 0.69795 0.0
C1651 C 0.72505 0.13273 0.70091 0.0
C1652 C 0.72849 0.11167 0.69869 0.0
C1653 C 0.75194 0.11491 0.69404 0.0
H1654 H 0.83314 0.49784 0.72567 0.0
H1655 H 0.83823 0.54838 0.7748 0.0
H1656 H 0.84388 0.53176 0.70457 0.0
H1657 H 0.84897 0.5821 0.75376 0.0
H1658 H 0.88963 0.64424 0.7144 0.0
H1659 H 0.88436 0.60983 0.73286 0.0
H1660 H 0.82227 0.55501 0.69377 0.0
H1661 H 0.8272 0.58935 0.67537 0.0
C1662 C 0.83666 0.51619 0.73197 0.0
C1663 C 0.83477 0.52044 0.75188 0.0
C1664 C 0.84275 0.53554 0.71989 0.0
C1665 C 0.84739 0.55955 0.72756 0.0
C1666 C 0.84583 0.56388 0.7475 0.0
C1667 C 0.83948 0.54449 0.75952 0.0
C1668 C 0.87502 0.62485 0.70956 0.0
C1669 C 0.85863 0.61963 0.69352 0.0
C1670 C 0.872 0.60517 0.72018 0.0
C1671 C 0.85273 0.57984 0.71486 0.0
C1672 C 0.83736 0.57437 0.69814 0.0
C1673 C 0.84021 0.59409 0.6876 0.0
H1674 H 0.43992 0.90663 0.20327 0.0
H1675 H 0.51615 0.94848 0.22836 0.0
H1676 H 0.4547 0.92761 0.1738 0.0
H1677 H 0.53086 0.97069 0.19943 0.0
H1678 H 0.55543 0.99307 0.13973 0.0
H1679 H 0.53997 0.96848 0.16756 0.0
H1680 H 0.46878 0.96527 0.15987 0.0
H1681 H 0.484 0.98855 0.13133 0.0
C1682 C 0.45985 0.92048 0.20253 0.0
C1683 C 0.47686 0.92584 0.21816 0.0
C1684 C 0.46836 0.93273 0.18564 0.0
C1685 C 0.49406 0.95108 0.18405 0.0
C1686 C 0.51103 0.95637 0.19978 0.0
C1687 C 0.50258 0.94373 0.21651 0.0
C1688 C 0.53643 0.98691 0.14399 0.0
C1689 C 0.52091 0.9927 0.13343 0.0
C1690 C 0.52756 0.97298 0.16007 0.0
C1691 C 0.50309 0.96491 0.16627 0.0
C1692 C 0.48754 0.97064 0.15549 0.0
C1693 C 0.49627 0.98414 0.13916 0.0
H1694 H 0.04841 0.52084 0.2334 0.0
H1695 H 0.11169 0.5319 0.20019 0.0
H1696 H 0.02389 0.51395 0.2037 0.0
H1697 H 0.0869 0.52417 0.17046 0.0
H1698 H 0.05126 0.54971 0.12635 0.0
H1699 H 0.07334 0.54892 0.15501 0.0
H1700 H 0.00301 0.48825 0.17403 0.0
H1701 H 0.98081 0.48939 0.14531 0.0
C1702 C 0.05688 0.52115 0.21975 0.0
C1703 C 0.08213 0.52728 0.21916 0.0
C1704 C 0.04277 0.51713 0.20269 0.0
C1705 C 0.05357 0.51894 0.18469 0.0
C1706 C 0.07823 0.52329 0.1841 0.0
C1707 C 0.09239 0.52753 0.20114 0.0
C1708 C 0.04056 0.53601 0.13654 0.0
C1709 C 0.01432 0.51961 0.13358 0.0
C1710 C 0.05322 0.53545 0.15295 0.0
C1711 C 0.04 0.51837 0.16679 0.0
C1712 C 0.01373 0.5018 0.16376 0.0
C1713 C 1.00102 0.50246 0.14734 0.0
H1714 H 0.42829 0.51969 0.20855 0.0
H1715 H 0.48716 0.51809 0.24102 0.0
H1716 H 0.44507 0.51262 0.17848 0.0
H1717 H 0.5035 0.51051 0.2111 0.0
H1718 H 0.54674 0.5366 0.15644 0.0
H1719 H 0.5262 0.53748 0.18596 0.0
H1720 H 0.45339 0.48364 0.15764 0.0
H1721 H 0.47408 0.48274 0.12792 0.0
C1722 C 0.44445 0.51728 0.2093 0.0
C1723 C 0.45658 0.51979 0.22718 0.0
C1724 C 0.45405 0.51318 0.19206 0.0
C1725 C 0.4759 0.51146 0.19239 0.0
C1726 C 0.48702 0.51239 0.21032 0.0
C1727 C 0.47752 0.51656 0.22749 0.0
C1728 C 0.52637 0.52468 0.15654 0.0
C1729 C 0.51209 0.50948 0.13985 0.0
C1730 C 0.51457 0.52516 0.1735 0.0
C1731 C 0.48814 0.51042 0.17424 0.0
C1732 C 0.47377 0.49533 0.15751 0.0
C1733 C 0.48562 0.49485 0.14049 0.0
H1734 H 0.87273 0.47186 0.84126 0.0
H1735 H 0.90753 0.46034 0.79083 0.0
H1736 H 0.9085 0.47928 0.86152 0.0
H1737 H 0.94325 0.4673 0.81123 0.0
H1738 H 0.98386 0.45012 0.86068 0.0
H1739 H 0.95228 0.4462 0.83706 0.0
H1740 H 0.95367 0.5113 0.86734 0.0
H1741 H 0.98504 0.51514 0.89086 0.0
C1742 C 0.88801 0.47084 0.8345 0.0
C1743 C 0.88701 0.46488 0.8145 0.0
C1744 C 0.90857 0.47522 0.8461 0.0
C1745 C 0.92869 0.47387 0.83796 0.0
C1746 C 0.92782 0.46808 0.81792 0.0
C1747 C 0.90724 0.46381 0.80628 0.0
C1748 C 0.97779 0.4639 0.862 0.0
C1749 C 0.98659 0.4827 0.87773 0.0
C1750 C 0.95971 0.46165 0.84851 0.0
C1751 C 0.9502 0.47817 0.85057 0.0
C1752 C 0.96021 0.49792 0.86565 0.0
C1753 C 0.9782 0.50016 0.87907 0.0
H1754 H 0.54861 0.44283 0.80091 0.0
H1755 H 0.5762 0.52303 0.79803 0.0
H1756 H 0.52649 0.44309 0.82973 0.0
H1757 H 0.5548 0.52349 0.82747 0.0
H1758 H 0.46584 0.44835 0.86512 0.0
H1759 H 0.48931 0.44944 0.83665 0.0
H1760 H 0.55592 0.51649 0.86337 0.0
H1761 H 0.53238 0.5154 0.89192 0.0
C1762 C 0.54959 0.4604 0.80618 0.0
C1763 C 0.56336 0.48265 0.79672 0.0
C1764 C 0.53716 0.46061 0.82285 0.0
C1765 C 0.53863 0.48322 0.83066 0.0
C1766 C 0.55333 0.50578 0.82173 0.0
C1767 C 0.56554 0.50549 0.80489 0.0
C1768 C 0.48544 0.46341 0.86485 0.0
C1769 C 0.4973 0.4818 0.8807 0.0
C1770 C 0.49891 0.46391 0.84865 0.0
C1771 C 0.52444 0.483 0.84785 0.0
C1772 C 0.53623 0.50164 0.86358 0.0
C1773 C 0.52283 0.50092 0.87993 0.0
H1774 H 0.50532 0.07869 0.79621 0.0
H1775 H 0.56989 0.06901 0.7951 0.0
H1776 H 0.49226 0.05686 0.82531 0.0
H1777 H 0.55639 0.04654 0.82431 0.0
H1778 H 0.53453 0.02663 0.8871 0.0
H1779 H 0.55043 0.05149 0.8592 0.0
H1780 H 0.47445 0.01378 0.83377 0.0
H1781 H 0.45858 0.98977 0.86173 0.0
C1782 C 0.51679 0.07189 0.80214 0.0
C1783 C 0.53861 0.07549 0.79312 0.0
C1784 C 0.50917 0.05921 0.81885 0.0
C1785 C 0.52307 0.04964 0.82708 0.0
C1786 C 0.54529 0.05378 0.81842 0.0
C1787 C 0.55297 0.06655 0.80161 0.0
C1788 C 0.52122 0.02388 0.87562 0.0
C1789 C 0.49526 0.00615 0.87667 0.0
C1790 C 0.53038 0.03792 0.85954 0.0
C1791 C 0.51374 0.0347 0.84422 0.0
C1792 C 0.48781 0.01704 0.84537 0.0
C1793 C 0.47871 0.00301 0.86135 0.0
H1794 H 0.10857 0.27075 0.55095 0.0
H1795 H 0.1749 0.26418 0.55386 0.0
H1796 H 0.12301 0.29287 0.522 0.0
H1797 H 0.18913 0.28597 0.5245 0.0
H1798 H 0.2201 0.35329 0.48624 0.0
H1799 H 0.2056 0.32809 0.51381 0.0
H1800 H 0.1295 0.28711 0.48832 0.0
H1801 H 0.14384 0.31308 0.46111 0.0
C1802 C 0.12618 0.27383 0.54535 0.0
C1803 C 0.14059 0.26571 0.55486 0.0
C1804 C 0.13437 0.28639 0.5286 0.0
C1805 C 0.15723 0.2912 0.52082 0.0
C1806 C 0.17157 0.28285 0.53019 0.0
C1807 C 0.16334 0.27024 0.54699 0.0
C1808 C 0.20024 0.33899 0.48654 0.0
C1809 C 0.18311 0.33544 0.4715 0.0
C1810 C 0.19197 0.32428 0.50227 0.0
C1811 C 0.16633 0.3056 0.5034 0.0
C1812 C 0.14932 0.30157 0.48809 0.0
C1813 C 0.1576 0.31627 0.47235 0.0
H1814 H 0.69522 0.83354 0.56726 0.0
H1815 H 0.76815 0.87379 0.54263 0.0
H1816 H 0.67477 0.83152 0.53635 0.0
H1817 H 0.74765 0.87131 0.51165 0.0
H1818 H 0.69303 0.83227 0.45559 0.0
H1819 H 0.71335 0.83259 0.48584 0.0
H1820 H 0.67888 0.86999 0.51649 0.0
H1821 H 0.65975 0.87127 0.48626 0.0
C1822 C 0.70681 0.84172 0.55518 0.0
C1823 C 0.73324 0.85408 0.55733 0.0
C1824 C 0.69516 0.84065 0.53759 0.0
C1825 C 0.70971 0.85134 0.52174 0.0
C1826 C 0.73607 0.86292 0.52369 0.0
C1827 C 0.74776 0.86449 0.5414 0.0
C1828 C 0.69006 0.84099 0.46866 0.0
C1829 C 0.67468 0.85179 0.46834 0.0
C1830 C 0.70156 0.84095 0.48599 0.0
C1831 C 0.69749 0.85118 0.5034 0.0
C1832 C 0.682 0.8617 0.50322 0.0
C1833 C 0.67093 0.86225 0.48588 0.0
H1834 H 0.15156 0.83296 0.57313 0.0
H1835 H 0.10222 0.85046 0.54238 0.0
H1836 H 0.16601 0.8242 0.5426 0.0
H1837 H 0.11624 0.84107 0.51181 0.0
H1838 H 0.17508 0.86032 0.46566 0.0
H1839 H 0.15504 0.86262 0.49515 0.0
H1840 H 0.15537 0.79672 0.51278 0.0
H1841 H 0.17564 0.79452 0.4832 0.0
C1842 C 0.1434 0.83444 0.55985 0.0
C1843 C 0.12594 0.8427 0.56022 0.0
C1844 C 0.15163 0.82931 0.54232 0.0
C1845 C 0.14251 0.83223 0.52476 0.0
C1846 C 0.12403 0.83915 0.5251 0.0
C1847 C 0.11586 0.84435 0.54263 0.0
C1848 C 0.17059 0.84611 0.4757 0.0
C1849 C 0.17697 0.82725 0.4721 0.0
C1850 C 0.15901 0.84737 0.4926 0.0
C1851 C 0.15349 0.82978 0.50631 0.0
C1852 C 0.15963 0.81073 0.50262 0.0
C1853 C 0.17127 0.8095 0.4857 0.0
H1854 H 0.57601 0.81223 0.14065 0.0
H1855 H 0.6379 0.81813 0.10798 0.0
H1856 H 0.6007 0.82029 0.17064 0.0
H1857 H 0.6626 0.82657 0.13786 0.0
H1858 H 0.68163 0.80175 0.19271 0.0
H1859 H 0.65948 0.7998 0.16308 0.0
H1860 H 0.63855 0.85128 0.19119 0.0
H1861 H 0.66095 0.85339 0.22096 0.0
C1862 C 0.59504 0.81574 0.13984 0.0
C1863 C 0.60485 0.81422 0.12191 0.0
C1864 C 0.60921 0.82041 0.15703 0.0
C1865 C 0.63346 0.82367 0.15662 0.0
C1866 C 0.64376 0.82357 0.13867 0.0
C1867 C 0.62963 0.81889 0.12153 0.0
C1868 C 0.67263 0.81296 0.19254 0.0
C1869 C 0.67317 0.8278 0.20921 0.0
C1870 C 0.65993 0.81185 0.17553 0.0
C1871 C 0.6474 0.82554 0.17473 0.0
C1872 C 0.64785 0.84036 0.19139 0.0
C1873 C 0.66064 0.84152 0.20844 0.0
H1874 H 0.24343 0.79833 0.14666 0.0
H1875 H 0.21821 0.84043 0.11578 0.0
H1876 H 0.22831 0.80844 0.17648 0.0
H1877 H 0.20284 0.85025 0.14563 0.0
H1878 H 0.14573 0.82325 0.19535 0.0
H1879 H 0.16631 0.82044 0.16628 0.0
H1880 H 0.23548 0.84684 0.20001 0.0
H1881 H 0.21538 0.85085 0.22912 0.0
C1882 C 0.23499 0.81004 0.14629 0.0
C1883 C 0.2319 0.81847 0.12883 0.0
C1884 C 0.22641 0.81589 0.16338 0.0
C1885 C 0.21424 0.82995 0.16331 0.0
C1886 C 0.21197 0.83918 0.14603 0.0
C1887 C 0.22092 0.83369 0.12899 0.0
C1888 C 0.16547 0.82901 0.19662 0.0
C1889 C 0.1788 0.83726 0.21471 0.0
C1890 C 0.17723 0.82732 0.17992 0.0
C1891 C 0.20248 0.83347 0.18091 0.0
C1892 C 0.21592 0.84182 0.19888 0.0
C1893 C 0.20429 0.84391 0.21557 0.0
H1894 H 0.24212 0.40666 0.13065 0.0
H1895 H 0.17621 0.41412 0.13141 0.0
H1896 H 0.22953 0.38505 0.16028 0.0
H1897 H 0.16402 0.39305 0.16091 0.0
H1898 H 0.13272 0.32669 0.19827 0.0
H1899 H 0.14759 0.35014 0.16991 0.0
H1900 H 0.22378 0.39111 0.19521 0.0
H1901 H 0.2089 0.36694 0.22352 0.0
C1902 C 0.22509 0.4039 0.13717 0.0
C1903 C 0.2101 0.41197 0.12848 0.0
C1904 C 0.21795 0.39162 0.15421 0.0
C1905 C 0.19562 0.38708 0.16289 0.0
C1906 C 0.18105 0.39576 0.15444 0.0
C1907 C 0.18817 0.408 0.13751 0.0
C1908 C 0.15268 0.34056 0.19777 0.0
C1909 C 0.16961 0.34483 0.21317 0.0
C1910 C 0.16119 0.35423 0.18157 0.0
C1911 C 0.18689 0.37261 0.18028 0.0
C1912 C 0.20389 0.37696 0.19567 0.0
C1913 C 0.19532 0.36331 0.21198 0.0
H1914 H 0.84409 0.59441 0.88529 0.0
H1915 H 0.77879 0.60238 0.88003 0.0
H1916 H 0.8602 0.61644 0.8563 0.0
H1917 H 0.79515 0.62484 0.85138 0.0
H1918 H 0.82031 0.64613 0.79108 0.0
H1919 H 0.80355 0.61994 0.81804 0.0
H1920 H 0.87825 0.65866 0.84597 0.0
H1921 H 0.89513 0.68401 0.8187 0.0
C1922 C 0.83315 0.60083 0.87798 0.0
C1923 C 0.81014 0.59663 0.88511 0.0
C1924 C 0.84247 0.61361 0.86138 0.0
C1925 C 0.82904 0.62252 0.85146 0.0
C1926 C 0.80587 0.61797 0.85844 0.0
C1927 C 0.79655 0.60521 0.87501 0.0
C1928 C 0.83323 0.64878 0.80282 0.0
C1929 C 0.85907 0.66734 0.80271 0.0
C1930 C 0.82356 0.63395 0.81841 0.0
C1931 C 0.83948 0.63724 0.8343 0.0
C1932 C 0.86542 0.65538 0.83396 0.0
C1933 C 0.87506 0.67019 0.81839 0.0
H1934 H 0.37509 0.17071 0.90264 0.0
H1935 H 0.44003 0.20129 0.86745 0.0
H1936 H 0.34743 0.15926 0.87382 0.0
H1937 H 0.41226 0.18972 0.83865 0.0
H1938 H 0.3507 0.14608 0.78962 0.0
H1939 H 0.37672 0.15149 0.81814 0.0
H1940 H 0.34186 0.18681 0.85119 0.0
H1941 H 0.31648 0.1823 0.82264 0.0
C1942 C 0.38345 0.17461 0.88874 0.0
C1943 C 0.4098 0.18709 0.88737 0.0
C1944 C 0.3676 0.1682 0.87227 0.0
C1945 C 0.37773 0.17381 0.85404 0.0
C1946 C 0.40393 0.18507 0.85251 0.0
C1947 C 0.41983 0.19177 0.86902 0.0
C1948 C 0.34871 0.15522 0.8029 0.0
C1949 C 0.3315 0.16386 0.80374 0.0
C1950 C 0.36353 0.15816 0.81925 0.0
C1951 C 0.36123 0.16947 0.83687 0.0
C1952 C 0.34374 0.17765 0.83785 0.0
C1953 C 0.32915 0.175 0.82148 0.0
H1954 H 0.81748 0.18038 0.90742 0.0
H1955 H 0.75905 0.18283 0.87506 0.0
H1956 H 0.8325 0.17074 0.87754 0.0
H1957 H 0.77463 0.17401 0.84503 0.0
H1958 H 0.79966 0.14103 0.79445 0.0
H1959 H 0.78065 0.14417 0.82451 0.0
H1960 H 0.85517 0.19439 0.8516 0.0
H1961 H 0.87399 0.19086 0.82178 0.0
C1962 C 0.80773 0.1787 0.89392 0.0
C1963 C 0.78721 0.18261 0.89362 0.0
C1964 C 0.81647 0.17337 0.87675 0.0
C1965 C 0.80509 0.17206 0.85882 0.0
C1966 C 0.78378 0.17474 0.85857 0.0
C1967 C 0.77487 0.17987 0.87579 0.0
C1968 C 0.81191 0.15275 0.80686 0.0
C1969 C 0.83832 0.1656 0.80579 0.0
C1970 C 0.80104 0.15457 0.82407 0.0
C1971 C 0.81635 0.16938 0.84055 0.0
C1972 C 0.84276 0.1823 0.83938 0.0
C1973 C 0.85359 0.18035 0.82225 0.0
H1974 H 0.23867 0.12183 0.45522 0.0
H1975 H 0.19557 0.12316 0.50354 0.0
H1976 H 0.27085 0.12433 0.47754 0.0
H1977 H 0.22772 0.12605 0.52572 0.0
H1978 H 0.27538 0.1047 0.55925 0.0
H1979 H 0.24421 0.09815 0.5344 0.0
H1980 H 0.30302 0.15688 0.5035 0.0
H1981 H 0.33435 0.16376 0.5286 0.0
C1982 C 0.23588 0.12224 0.47055 0.0
C1983 C 0.2144 0.12184 0.47763 0.0
C1984 C 0.25443 0.124 0.48332 0.0
C1985 C 0.25165 0.12513 0.50335 0.0
C1986 C 0.23018 0.12477 0.51035 0.0
C1987 C 0.21186 0.1233 0.49766 0.0
C1988 C 0.28171 0.11622 0.54716 0.0
C1989 C 0.3073 0.13505 0.54607 0.0
C1990 C 0.26386 0.11242 0.53291 0.0
C1991 C 0.27115 0.12723 0.51715 0.0
C1992 C 0.29689 0.14511 0.51546 0.0
C1993 C 0.31481 0.14903 0.52981 0.0
H1994 H 0.88826 0.18323 0.45046 0.0
H1995 H 0.9086 0.1362 0.4798 0.0
H1996 H 0.87222 0.19205 0.48029 0.0
H1997 H 0.89283 0.1454 0.50969 0.0
H1998 H 0.87963 0.18746 0.56312 0.0
H1999 H 0.90063 0.18371 0.53447 0.0
H2000 H 0.83354 0.16084 0.49912 0.0
H2001 H 0.81198 0.16325 0.52769 0.0
C2002 C 0.88979 0.1752 0.46335 0.0
C2003 C 0.89956 0.15888 0.46273 0.0
C2004 C 0.88046 0.18013 0.48037 0.0
C2005 C 0.88112 0.16923 0.49721 0.0
C2006 C 0.89218 0.15409 0.49691 0.0
C2007 C 0.90113 0.1488 0.4798 0.0
C2008 C 0.86916 0.1813 0.54931 0.0
C2009 C 0.84397 0.17559 0.54784 0.0
C2010 C 0.88132 0.17936 0.5329 0.0
C2011 C 0.86875 0.17217 0.51461 0.0
C2012 C 0.8438 0.16684 0.51303 0.0
C2013 C 0.83149 0.16833 0.52944 0.0
H2014 H 0.91861 0.76139 0.4696 0.0
H2015 H 0.84001 0.71935 0.44998 0.0
H2016 H 0.90735 0.74168 0.5 0.0
H2017 H 0.82883 0.69859 0.47961 0.0
H2018 H 0.80999 0.6822 0.54059 0.0
H2019 H 0.8237 0.70501 0.5118 0.0
H2020 H 0.89367 0.70505 0.51602 0.0
H2021 H 0.88024 0.68358 0.54564 0.0
C2022 C 0.89897 0.74767 0.47168 0.0
C2023 C 0.88019 0.74211 0.45744 0.0
C2024 C 0.89247 0.73625 0.4891 0.0
C2025 C 0.86706 0.71865 0.49255 0.0
C2026 C 0.84849 0.71259 0.47792 0.0
C2027 C 0.85492 0.72435 0.46076 0.0
C2028 C 0.8284 0.68738 0.5354 0.0
C2029 C 0.84407 0.68117 0.54522 0.0
C2030 C 0.83622 0.70021 0.51875 0.0
C2031 C 0.8597 0.7066 0.51119 0.0
C2032 C 0.8756 0.70076 0.52138 0.0
C2033 C 0.86792 0.68835 0.53831 0.0
loop_
_geom_bond_atom_site_label_1
_geom_bond_atom_site_label_2
_geom_bond_distance
_geom_bond_site_symmetry_2
_ccdc_geom_bond_type
O0 Cd1 2.300 . S
O0 C7 1.275 . S
Cd1 O0 2.300 . S
Cd1 O9 2.381 . S
Cd1 O10 2.378 . S
O2 Cd3 2.385 . S
O2 C7 1.255 . S
Cd3 O2 2.385 . S
Cd3 O4 2.317 . S
O4 Cd3 2.317 . S
O4 C5 1.232 . S
C5 O4 1.232 . S
C5 O6 1.218 . S
O6 C5 1.218 . S
C7 O0 1.275 . S
C7 O2 1.255 . S
C8 O9 1.258 . S
C8 O10 1.256 . S
O9 Cd1 2.381 . S
O9 C8 1.258 . S
O10 Cd1 2.378 . S
O10 C8 1.256 . S
O11 Cd12 2.300 . S
O11 C18 1.275 . S
Cd12 O11 2.300 . S
Cd12 O20 2.381 . S
Cd12 O21 2.378 . S
O13 Cd14 2.385 . S
O13 C18 1.255 . S
Cd14 O13 2.385 . S
Cd14 O15 2.317 . S
O15 Cd14 2.317 . S
O15 C16 1.232 . S
C16 O15 1.232 . S
C16 O17 1.218 . S
O17 C16 1.218 . S
C18 O11 1.275 . S
C18 O13 1.255 . S
C19 O20 1.258 . S
C19 O21 1.256 . S
O20 Cd12 2.381 . S
O20 C19 1.258 . S
O21 Cd12 2.378 . S
O21 C19 1.256 . S
O22 Cd23 2.300 . S
O22 C29 1.275 . S
Cd23 O22 2.300 . S
Cd23 O31 2.381 . S
Cd23 O32 2.378 . S
O24 Cd25 2.385 . S
O24 C29 1.255 . S
Cd25 O24 2.385 . S
Cd25 O26 2.317 . S
O26 Cd25 2.317 . S
O26 C27 1.232 . S
C27 O26 1.232 . S
C27 O28 1.218 . S
O28 C27 1.218 . S
C29 O22 1.275 . S
C29 O24 1.255 . S
C30 O31 1.258 . S
C30 O32 1.256 . S
O31 Cd23 2.381 . S
O31 C30 1.258 . S
O32 Cd23 2.378 . S
O32 C30 1.256 . S
O33 Cd34 2.300 . S
O33 C40 1.275 . S
Cd34 O33 2.300 . S
Cd34 O42 2.381 . S
Cd34 O43 2.378 . S
O35 Cd36 2.385 . S
O35 C40 1.255 . S
Cd36 O35 2.385 . S
Cd36 O37 2.317 . S
O37 Cd36 2.317 . S
O37 C38 1.232 . S
C38 O37 1.232 . S
C38 O39 1.218 . S
O39 C38 1.218 . S
C40 O33 1.275 . S
C40 O35 1.255 . S
C41 O42 1.258 . S
C41 O43 1.256 . S
O42 Cd34 2.381 . S
O42 C41 1.258 . S
O43 Cd34 2.378 . S
O43 C41 1.256 . S
O44 Cd45 2.300 . S
O44 C51 1.275 . S
Cd45 O44 2.300 . S
Cd45 O53 2.381 . S
Cd45 O54 2.378 . S
O46 Cd47 2.385 . S
O46 C51 1.255 . S
Cd47 O46 2.385 . S
Cd47 O48 2.317 . S
O48 Cd47 2.317 . S
O48 C49 1.232 . S
C49 O48 1.232 . S
C49 O50 1.218 . S
O50 C49 1.218 . S
C51 O44 1.275 . S
C51 O46 1.255 . S
C52 O53 1.258 . S
C52 O54 1.256 . S
O53 Cd45 2.381 . S
O53 C52 1.258 . S
O54 Cd45 2.378 . S
O54 C52 1.256 . S
O55 Cd56 2.300 . S
O55 C62 1.275 . S
Cd56 O55 2.300 . S
Cd56 O64 2.381 . S
Cd56 O65 2.378 . S
O57 Cd58 2.385 . S
O57 C62 1.255 . S
Cd58 O57 2.385 . S
Cd58 O59 2.317 . S
O59 Cd58 2.317 . S
O59 C60 1.232 . S
C60 O59 1.232 . S
C60 O61 1.218 . S
O61 C60 1.218 . S
C62 O55 1.275 . S
C62 O57 1.255 . S
C63 O64 1.258 . S
C63 O65 1.256 . S
O64 Cd56 2.381 . S
O64 C63 1.258 . S
O65 Cd56 2.378 . S
O65 C63 1.256 . S
O66 Cd67 2.300 . S
O66 C73 1.275 . S
Cd67 O66 2.300 . S
Cd67 O75 2.381 . S
Cd67 O76 2.378 . S
O68 Cd69 2.385 . S
O68 C73 1.255 . S
Cd69 O68 2.385 . S
Cd69 O70 2.317 . S
O70 Cd69 2.317 . S
O70 C71 1.232 . S
C71 O70 1.232 . S
C71 O72 1.218 . S
O72 C71 1.218 . S
C73 O66 1.275 . S
C73 O68 1.255 . S
C74 O75 1.258 . S
C74 O76 1.256 . S
O75 Cd67 2.381 . S
O75 C74 1.258 . S
O76 Cd67 2.378 . S
O76 C74 1.256 . S
O77 Cd78 2.300 . S
O77 C84 1.275 . S
Cd78 O77 2.300 . S
Cd78 O86 2.381 . S
Cd78 O87 2.378 . S
O79 Cd80 2.385 . S
O79 C84 1.255 . S
Cd80 O79 2.385 . S
Cd80 O81 2.317 . S
O81 Cd80 2.317 . S
O81 C82 1.232 . S
C82 O81 1.232 . S
C82 O83 1.218 . S
O83 C82 1.218 . S
C84 O77 1.275 . S
C84 O79 1.255 . S
C85 O86 1.258 . S
C85 O87 1.256 . S
O86 Cd78 2.381 . S
O86 C85 1.258 . S
O87 Cd78 2.378 . S
O87 C85 1.256 . S
O88 Cd89 2.300 . S
O88 C95 1.275 . S
Cd89 O88 2.300 . S
Cd89 O97 2.381 . S
Cd89 O98 2.378 . S
O90 Cd91 2.385 . S
O90 C95 1.255 . S
Cd91 O90 2.385 . S
Cd91 O92 2.317 . S
O92 Cd91 2.317 . S
O92 C93 1.232 . S
C93 O92 1.232 . S
C93 O94 1.218 . S
O94 C93 1.218 . S
C95 O88 1.275 . S
C95 O90 1.255 . S
C96 O97 1.258 . S
C96 O98 1.256 . S
O97 Cd89 2.381 . S
O97 C96 1.258 . S
O98 Cd89 2.378 . S
O98 C96 1.256 . S
O99 Cd100 2.300 . S
O99 C106 1.275 . S
Cd100 O99 2.300 . S
Cd100 O108 2.381 . S
Cd100 O109 2.378 . S
O101 Cd102 2.385 . S
O101 C106 1.255 . S
Cd102 O101 2.385 . S
Cd102 O103 2.317 . S
O103 Cd102 2.317 . S
O103 C104 1.232 . S
C104 O103 1.232 . S
C104 O105 1.218 . S
O105 C104 1.218 . S
C106 O99 1.275 . S
C106 O101 1.255 . S
C107 O108 1.258 . S
C107 O109 1.256 . S
O108 Cd100 2.381 . S
O108 C107 1.258 . S
O109 Cd100 2.378 . S
O109 C107 1.256 . S
O110 Cd111 2.300 . S
O110 C117 1.275 . S
Cd111 O110 2.300 . S
Cd111 O119 2.381 . S
Cd111 O120 2.378 . S
O112 Cd113 2.385 . S
O112 C117 1.255 . S
Cd113 O112 2.385 . S
Cd113 O114 2.317 . S
O114 Cd113 2.317 . S
O114 C115 1.232 . S
C115 O114 1.232 . S
C115 O116 1.218 . S
O116 C115 1.218 . S
C117 O110 1.275 . S
C117 O112 1.255 . S
C118 O119 1.258 . S
C118 O120 1.256 . S
O119 Cd111 2.381 . S
O119 C118 1.258 . S
O120 Cd111 2.378 . S
O120 C118 1.256 . S
O121 Cd122 2.300 . S
O121 C128 1.275 . S
Cd122 O121 2.300 . S
Cd122 O130 2.381 . S
Cd122 O131 2.378 . S
O123 Cd124 2.385 . S
O123 C128 1.255 . S
Cd124 O123 2.385 . S
Cd124 O125 2.317 . S
O125 Cd124 2.317 . S
O125 C126 1.232 . S
C126 O125 1.232 . S
C126 O127 1.218 . S
O127 C126 1.218 . S
C128 O121 1.275 . S
C128 O123 1.255 . S
C129 O130 1.258 . S
C129 O131 1.256 . S
O130 Cd122 2.381 . S
O130 C129 1.258 . S
O131 Cd122 2.378 . S
O131 C129 1.256 . S
O132 Cd133 2.300 . S
O132 C139 1.275 . S
Cd133 O132 2.300 . S
Cd133 O141 2.381 . S
Cd133 O142 2.378 . S
O134 Cd135 2.385 . S
O134 C139 1.255 . S
Cd135 O134 2.385 . S
Cd135 O136 2.317 . S
O136 Cd135 2.317 . S
O136 C137 1.232 . S
C137 O136 1.232 . S
C137 O138 1.218 . S
O138 C137 1.218 . S
C139 O132 1.275 . S
C139 O134 1.255 . S
C140 O141 1.258 . S
C140 O142 1.256 . S
O141 Cd133 2.381 . S
O141 C140 1.258 . S
O142 Cd133 2.378 . S
O142 C140 1.256 . S
O143 Cd144 2.300 . S
O143 C150 1.275 . S
Cd144 O143 2.300 . S
Cd144 O152 2.381 . S
Cd144 O153 2.378 . S
O145 Cd146 2.385 . S
O145 C150 1.255 . S
Cd146 O145 2.385 . S
Cd146 O147 2.317 . S
O147 Cd146 2.317 . S
O147 C148 1.232 . S
C148 O147 1.232 . S
C148 O149 1.218 . S
O149 C148 1.218 . S
C150 O143 1.275 . S
C150 O145 1.255 . S
C151 O152 1.258 . S
C151 O153 1.256 . S
O152 Cd144 2.381 . S
O152 C151 1.258 . S
O153 Cd144 2.378 . S
O153 C151 1.256 . S
O154 Cd155 2.300 . S
O154 C161 1.275 . S
Cd155 O154 2.300 . S
Cd155 O163 2.381 . S
Cd155 O164 2.378 . S
O156 Cd157 2.385 . S
O156 C161 1.255 . S
Cd157 O156 2.385 . S
Cd157 O158 2.317 . S
O158 Cd157 2.317 . S
O158 C159 1.232 . S
C159 O158 1.232 . S
C159 O160 1.218 . S
O160 C159 1.218 . S
C161 O154 1.275 . S
C161 O156 1.255 . S
C162 O163 1.258 . S
C162 O164 1.256 . S
O163 Cd155 2.381 . S
O163 C162 1.258 . S
O164 Cd155 2.378 . S
O164 C162 1.256 . S
O165 Cd166 2.300 . S
O165 C172 1.275 . S
Cd166 O165 2.300 . S
Cd166 O174 2.381 . S
Cd166 O175 2.378 . S
O167 Cd168 2.385 . S
O167 C172 1.255 . S
Cd168 O167 2.385 . S
Cd168 O169 2.317 . S
O169 Cd168 2.317 . S
O169 C170 1.232 . S
C170 O169 1.232 . S
C170 O171 1.218 . S
O171 C170 1.218 . S
C172 O165 1.275 . S
C172 O167 1.255 . S
C173 O174 1.258 . S
C173 O175 1.256 . S
O174 Cd166 2.381 . S
O174 C173 1.258 . S
O175 Cd166 2.378 . S
O175 C173 1.256 . S
O176 Cd177 2.300 . S
O176 C183 1.275 . S
Cd177 O176 2.300 . S
Cd177 O185 2.381 . S
Cd177 O186 2.378 . S
O178 Cd179 2.385 . S
O178 C183 1.255 . S
Cd179 O178 2.385 . S
Cd179 O180 2.317 . S
O180 Cd179 2.317 . S
O180 C181 1.232 . S
C181 O180 1.232 . S
C181 O182 1.218 . S
O182 C181 1.218 . S
C183 O176 1.275 . S
C183 O178 1.255 . S
C184 O185 1.258 . S
C184 O186 1.256 . S
O185 Cd177 2.381 . S
O185 C184 1.258 . S
O186 Cd177 2.378 . S
O186 C184 1.256 . S
O187 Cd188 2.300 . S
O187 C194 1.275 . S
Cd188 O187 2.300 . S
Cd188 O196 2.381 . S
Cd188 O197 2.378 . S
O189 Cd190 2.385 . S
O189 C194 1.255 . S
Cd190 O189 2.385 . S
Cd190 O191 2.317 . S
O191 Cd190 2.317 . S
O191 C192 1.232 . S
C192 O191 1.232 . S
C192 O193 1.218 . S
O193 C192 1.218 . S
C194 O187 1.275 . S
C194 O189 1.255 . S
C195 O196 1.258 . S
C195 O197 1.256 . S
O196 Cd188 2.381 . S
O196 C195 1.258 . S
O197 Cd188 2.378 . S
O197 C195 1.256 . S
Tb198 N229 2.660 . S
Tb198 N236 2.600 . S
Tb198 O242 2.546 . S
Tb198 O243 2.610 1_566 S
Tb198 O245 2.320 1_565 S
Tb198 O246 2.552 1_565 S
Tb198 O247 2.413 1_565 S
Tb198 O249 2.362 1_556 S
Tb198 O250 2.421 . S
Tb198 C262 2.833 . S
C199 C202 1.432 . S
C199 C203 1.414 . S
C199 N206 1.359 . S
C200 C202 1.417 . S
C200 C204 1.432 . S
C200 C212 1.410 . S
C201 C203 1.444 . S
C201 C204 1.317 . S
C201 H224 0.929 . S
C202 C199 1.432 . S
C202 C200 1.417 . S
C202 N210 1.360 . S
C203 C199 1.414 . S
C203 C201 1.444 . S
C203 C208 1.385 . S
C204 C200 1.432 . S
C204 C201 1.317 . S
C204 H216 0.930 . S
C205 C207 1.392 . S
C205 C208 1.370 . S
C205 H217 0.931 . S
N206 C199 1.359 . S
N206 C207 1.327 . S
N206 Tb209 2.600 . S
C207 C205 1.392 . S
C207 N206 1.327 . S
C207 H214 0.930 . S
C208 C203 1.385 . S
C208 C205 1.370 . S
C208 H227 0.930 . S
Tb209 N206 2.600 . S
Tb209 N210 2.660 . S
Tb209 O243 2.362 . S
Tb209 O244 2.421 . S
Tb209 O248 2.546 . S
Tb209 O249 2.610 1_545 S
Tb209 O251 2.320 1_545 S
Tb209 O252 2.552 1_545 S
Tb209 O253 2.413 . S
Tb209 C273 2.833 . S
N210 C202 1.360 . S
N210 Tb209 2.660 . S
N210 C211 1.305 . S
C211 N210 1.305 . S
C211 C213 1.407 . S
C211 H218 0.930 . S
C212 C200 1.410 . S
C212 C213 1.345 . S
C212 H220 0.930 . S
C213 C211 1.407 . S
C213 C212 1.345 . S
C213 H215 0.930 . S
H214 C207 0.930 . S
H215 C213 0.930 . S
H216 C204 0.930 . S
H217 C205 0.931 . S
H218 C211 0.930 . S
H219 C233 0.930 . S
H220 C212 0.930 . S
H221 C239 0.930 . S
H222 C230 0.930 . S
H223 C237 0.931 . S
H224 C201 0.929 . S
H225 C231 0.930 . S
H226 C264 0.930 . S
H227 C208 0.930 . S
H228 C263 0.929 . S
N229 Tb198 2.660 . S
N229 C230 1.305 . S
N229 C234 1.360 . S
C230 H222 0.930 . S
C230 N229 1.305 . S
C230 C233 1.407 . S
C231 H225 0.930 . S
C231 C232 1.410 . S
C231 C233 1.345 . S
C232 C231 1.410 . S
C232 C234 1.417 . S
C232 C264 1.432 . S
C233 H219 0.930 . S
C233 C230 1.407 . S
C233 C231 1.345 . S
C234 N229 1.360 . S
C234 C232 1.417 . S
C234 C238 1.432 . S
H235 C240 0.930 . S
N236 Tb198 2.600 . S
N236 C238 1.359 . S
N236 C239 1.327 . S
C237 H223 0.931 . S
C237 C239 1.392 . S
C237 C240 1.370 . S
C238 C234 1.432 . S
C238 N236 1.359 . S
C238 C241 1.414 . S
C239 H221 0.930 . S
C239 N236 1.327 . S
C239 C237 1.392 . S
C240 H235 0.930 . S
C240 C237 1.370 . S
C240 C241 1.385 . S
C241 C238 1.414 . S
C241 C240 1.385 . S
C241 C263 1.444 . S
O242 Tb198 2.546 . S
O242 C262 1.251 . S
O243 Tb198 2.610 1_544 S
O243 Tb209 2.362 . S
O243 C254 1.283 1_554 S
O244 Tb209 2.421 . S
O244 C261 1.276 . S
O245 Tb198 2.320 1_545 S
O245 C261 1.251 1_556 S
O246 Tb198 2.552 1_545 S
O246 C254 1.243 . S
O247 Tb198 2.413 1_545 S
O247 C262 1.256 1_545 S
O248 Tb209 2.546 . S
O248 C273 1.251 . S
O249 Tb198 2.362 1_554 S
O249 Tb209 2.610 1_565 S
O249 C265 1.283 . S
O250 Tb198 2.421 . S
O250 C272 1.262 1_556 S
O251 Tb209 2.320 1_565 S
O251 C272 1.260 . S
O252 Tb209 2.552 1_565 S
O252 C265 1.243 . S
O253 Tb209 2.413 . S
O253 C273 1.256 . S
C254 O243 1.283 1_556 S
C254 O246 1.243 . S
C255 C257 1.382 1_565 S
C255 C259 1.393 . S
C255 C262 1.500 . S
C256 C257 1.400 . S
C256 C258 1.384 . S
C257 C255 1.382 1_545 S
C257 C256 1.400 . S
C257 H274 0.930 . S
C258 C256 1.384 . S
C258 C260 1.392 1_545 S
C258 H275 0.931 . S
C259 C255 1.393 . S
C259 C260 1.401 . S
C259 H276 0.930 . S
C260 C258 1.392 1_565 S
C260 C259 1.401 . S
C260 H277 0.930 . S
C261 O244 1.276 . S
C261 O245 1.251 1_554 S
C262 Tb198 2.833 . S
C262 O242 1.251 . S
C262 O247 1.256 1_565 S
C262 C255 1.500 . S
C263 H228 0.929 . S
C263 C241 1.444 . S
C263 C264 1.317 . S
C264 H226 0.930 . S
C264 C232 1.432 . S
C264 C263 1.317 . S
C265 O249 1.283 . S
C265 O252 1.243 . S
C266 C267 1.382 1_545 S
C266 C270 1.393 . S
C266 C273 1.500 . S
C267 C266 1.382 1_565 S
C267 C268 1.400 . S
C267 H278 0.930 . S
C268 C267 1.400 . S
C268 C269 1.384 . S
C269 C268 1.384 . S
C269 C271 1.392 1_565 S
C269 H279 0.931 . S
C270 C266 1.393 . S
C270 C271 1.401 . S
C270 H280 0.930 . S
C271 C269 1.392 1_545 S
C271 C270 1.401 . S
C271 H281 0.930 . S
C272 O250 1.262 1_554 S
C272 O251 1.260 . S
C273 Tb209 2.833 . S
C273 O248 1.251 . S
C273 O253 1.256 . S
C273 C266 1.500 . S
H274 C257 0.930 . S
H275 C258 0.931 . S
H276 C259 0.930 . S
H277 C260 0.930 . S
H278 C267 0.930 . S
H279 C269 0.931 . S
H280 C270 0.930 . S
H281 C271 0.930 . S
Tb282 N313 2.660 . S
Tb282 N320 2.600 . S
Tb282 O326 2.546 . S
Tb282 O327 2.610 1_456 S
Tb282 O329 2.320 1_455 S
Tb282 O330 2.552 1_455 S
Tb282 O331 2.413 1_455 S
Tb282 O333 2.362 1_556 S
Tb282 O334 2.421 1_556 S
Tb282 C346 2.833 . S
C283 C286 1.432 . S
C283 C287 1.414 . S
C283 N290 1.359 . S
C284 C286 1.417 . S
C284 C288 1.432 . S
C284 C296 1.410 . S
C285 C287 1.444 . S
C285 C288 1.317 . S
C285 H308 0.929 . S
C286 C283 1.432 . S
C286 C284 1.417 . S
C286 N294 1.360 . S
C287 C283 1.414 . S
C287 C285 1.444 . S
C287 C292 1.385 . S
C288 C284 1.432 . S
C288 C285 1.317 . S
C288 H300 0.930 . S
C289 C291 1.392 . S
C289 C292 1.370 . S
C289 H301 0.931 . S
N290 C283 1.359 . S
N290 C291 1.327 . S
N290 Tb293 2.600 . S
C291 C289 1.392 . S
C291 N290 1.327 . S
C291 H298 0.930 . S
C292 C287 1.385 . S
C292 C289 1.370 . S
C292 H311 0.930 . S
Tb293 N290 2.600 . S
Tb293 N294 2.660 . S
Tb293 O327 2.362 . S
Tb293 O328 2.421 . S
Tb293 O332 2.546 . S
Tb293 O333 2.610 1_655 S
Tb293 O335 2.320 1_655 S
Tb293 O336 2.552 1_655 S
Tb293 O337 2.413 1_655 S
Tb293 C357 2.833 1_655 S
N294 C286 1.360 . S
N294 Tb293 2.660 . S
N294 C295 1.305 . S
C295 N294 1.305 . S
C295 C297 1.407 . S
C295 H302 0.930 1_655 S
C296 C284 1.410 . S
C296 C297 1.345 . S
C296 H304 0.930 . S
C297 C295 1.407 . S
C297 C296 1.345 . S
C297 H299 0.930 . S
H298 C291 0.930 . S
H299 C297 0.930 . S
H300 C288 0.930 . S
H301 C289 0.931 . S
H302 C295 0.930 1_455 S
H303 C317 0.930 . S
H304 C296 0.930 . S
H305 C323 0.930 . S
H306 C314 0.975 . S
H307 C321 0.931 . S
H308 C285 0.929 . S
H309 C315 0.930 . S
H310 C348 0.930 . S
H311 C292 0.930 . S
H312 C347 0.929 . S
N313 Tb282 2.660 . S
N313 C314 1.305 . S
N313 C318 1.360 . S
C314 H306 0.975 . S
C314 N313 1.305 . S
C314 C317 1.407 . S
C315 H309 0.930 . S
C315 C316 1.410 . S
C315 C317 1.345 . S
C316 C315 1.410 . S
C316 C318 1.417 . S
C316 C348 1.432 . S
C317 H303 0.930 . S
C317 C314 1.407 . S
C317 C315 1.345 . S
C318 N313 1.360 . S
C318 C316 1.417 . S
C318 C322 1.432 . S
H319 C324 0.930 . S
N320 Tb282 2.600 . S
N320 C322 1.359 . S
N320 C323 1.327 . S
C321 H307 0.931 . S
C321 C323 1.392 . S
C321 C324 1.370 . S
C322 C318 1.432 . S
C322 N320 1.359 . S
C322 C325 1.414 . S
C323 H305 0.930 . S
C323 N320 1.327 . S
C323 C321 1.392 . S
C324 H319 0.930 . S
C324 C321 1.370 . S
C324 C325 1.385 . S
C325 C322 1.414 . S
C325 C324 1.385 . S
C325 C347 1.444 . S
O326 Tb282 2.546 . S
O326 C346 1.251 . S
O327 Tb282 2.610 1_654 S
O327 Tb293 2.362 . S
O327 C338 1.283 1_554 S
O328 Tb293 2.421 . S
O328 C345 1.262 . S
O329 Tb282 2.320 1_655 S
O329 C345 1.260 1_556 S
O330 Tb282 2.552 1_655 S
O330 C338 1.243 . S
O331 Tb282 2.413 1_655 S
O331 C346 1.256 1_655 S
O332 Tb293 2.546 . S
O332 C357 1.251 1_655 S
O333 Tb282 2.362 1_554 S
O333 Tb293 2.610 1_455 S
O333 C349 1.283 . S
O334 Tb282 2.421 1_554 S
O334 C356 1.262 . S
O335 Tb293 2.320 1_455 S
O335 C356 1.260 . S
O336 Tb293 2.552 1_455 S
O336 C349 1.243 . S
O337 Tb293 2.413 1_455 S
O337 C357 1.256 . S
C338 O327 1.283 1_556 S
C338 O330 1.243 . S
C339 C341 1.382 . S
C339 C343 1.393 1_655 S
C339 C346 1.500 1_655 S
C340 C341 1.400 . S
C340 C342 1.384 . S
C341 C339 1.382 . S
C341 C340 1.400 . S
C341 H358 0.930 . S
C342 C340 1.384 . S
C342 C344 1.392 1_655 S
C342 H359 0.931 . S
C343 C339 1.393 1_455 S
C343 C344 1.401 . S
C343 H360 0.930 . S
C344 C342 1.392 1_455 S
C344 C343 1.401 . S
C344 H361 0.930 . S
C345 O328 1.262 . S
C345 O329 1.260 1_554 S
C346 Tb282 2.833 . S
C346 O326 1.251 . S
C346 O331 1.256 1_455 S
C346 C339 1.500 1_455 S
C347 H312 0.929 . S
C347 C325 1.444 . S
C347 C348 1.317 . S
C348 H310 0.930 . S
C348 C316 1.432 . S
C348 C347 1.317 . S
C349 O333 1.283 . S
C349 O336 1.243 . S
C350 C351 1.382 . S
C350 C354 1.393 1_455 S
C350 C357 1.500 . S
C351 C350 1.382 . S
C351 C352 1.400 . S
C351 H362 0.930 . S
C352 C351 1.400 . S
C352 C353 1.384 . S
C353 C352 1.384 . S
C353 C355 1.408 . S
C353 H363 0.931 . S
C354 C350 1.393 1_655 S
C354 C355 1.394 1_655 S
C354 H364 0.930 . S
C355 C353 1.408 . S
C355 C354 1.394 1_455 S
C355 H365 0.922 1_455 S
C356 O334 1.262 . S
C356 O335 1.260 . S
C357 Tb293 2.833 1_455 S
C357 O332 1.251 1_455 S
C357 O337 1.256 . S
C357 C350 1.500 . S
H358 C341 0.930 . S
H359 C342 0.931 . S
H360 C343 0.930 . S
H361 C344 0.930 . S
H362 C351 0.930 . S
H363 C353 0.931 . S
H364 C354 0.930 . S
H365 C355 0.922 1_655 S
Tb366 N397 2.660 . S
Tb366 N404 2.600 . S
Tb366 O410 2.546 . S
Tb366 O411 2.610 . S
Tb366 O413 2.320 . S
Tb366 O414 2.552 . S
Tb366 O415 2.413 . S
Tb366 O417 2.362 . S
Tb366 O418 2.421 . S
Tb366 C430 2.833 . S
C367 C370 1.432 . S
C367 C371 1.414 . S
C367 N374 1.359 . S
C368 C370 1.417 . S
C368 C372 1.432 . S
C368 C380 1.410 . S
C369 C371 1.444 . S
C369 C372 1.317 . S
C369 H392 0.929 . S
C370 C367 1.432 . S
C370 C368 1.417 . S
C370 N378 1.360 . S
C371 C367 1.414 . S
C371 C369 1.444 . S
C371 C376 1.385 . S
C372 C368 1.432 . S
C372 C369 1.317 . S
C372 H384 0.930 . S
C373 C375 1.392 . S
C373 C376 1.370 . S
C373 H385 0.931 . S
N374 C367 1.359 . S
N374 C375 1.327 . S
N374 Tb377 2.600 . S
C375 C373 1.392 . S
C375 N374 1.327 . S
C375 H382 0.930 . S
C376 C371 1.385 . S
C376 C373 1.370 . S
C376 H395 0.930 . S
Tb377 N374 2.600 . S
Tb377 N378 2.660 . S
Tb377 O411 2.362 1_556 S
Tb377 O412 2.421 . S
Tb377 O416 2.546 . S
Tb377 O417 2.610 1_556 S
Tb377 O419 2.320 . S
Tb377 O420 2.552 . S
Tb377 O421 2.413 . S
Tb377 C441 2.833 . S
N378 C370 1.360 . S
N378 Tb377 2.660 . S
N378 C379 1.305 . S
C379 N378 1.305 . S
C379 C381 1.407 . S
C379 H386 0.930 . S
C380 C368 1.410 . S
C380 C381 1.345 . S
C380 H388 0.930 . S
C381 C379 1.407 . S
C381 C380 1.345 . S
C381 H383 0.930 . S
H382 C375 0.930 . S
H383 C381 0.930 . S
H384 C372 0.930 . S
H385 C373 0.931 . S
H386 C379 0.930 . S
H387 C401 0.930 . S
H388 C380 0.930 . S
H389 C407 0.930 . S
H390 C398 0.930 . S
H391 C405 0.931 . S
H392 C369 0.929 . S
H393 C399 0.930 . S
H394 C432 0.930 . S
H395 C376 0.930 . S
H396 C431 0.929 . S
N397 Tb366 2.660 . S
N397 C398 1.305 . S
N397 C402 1.360 . S
C398 H390 0.930 . S
C398 N397 1.305 . S
C398 C401 1.407 . S
C399 H393 0.930 . S
C399 C400 1.410 . S
C399 C401 1.345 . S
C400 C399 1.410 . S
C400 C402 1.417 . S
C400 C432 1.432 . S
C401 H387 0.930 . S
C401 C398 1.407 . S
C401 C399 1.345 . S
C402 N397 1.360 . S
C402 C400 1.417 . S
C402 C406 1.432 . S
H403 C408 0.930 . S
N404 Tb366 2.600 . S
N404 C406 1.359 . S
N404 C407 1.327 . S
C405 H391 0.931 . S
C405 C407 1.392 . S
C405 C408 1.370 . S
C406 C402 1.432 . S
C406 N404 1.359 . S
C406 C409 1.414 . S
C407 H389 0.930 . S
C407 N404 1.327 . S
C407 C405 1.392 . S
C408 H403 0.930 . S
C408 C405 1.370 . S
C408 C409 1.385 . S
C409 C406 1.414 . S
C409 C408 1.385 . S
C409 C431 1.444 . S
O410 Tb366 2.546 . S
O410 C430 1.251 . S
O411 Tb366 2.610 . S
O411 Tb377 2.362 1_554 S
O411 C422 1.283 . S
O412 Tb377 2.421 . S
O412 C429 1.262 1_556 S
O413 Tb366 2.320 . S
O413 C429 1.260 . S
O414 Tb366 2.552 . S
O414 C422 1.243 . S
O415 Tb366 2.413 . S
O415 C430 1.256 . S
O416 Tb377 2.546 . S
O416 C441 1.251 . S
O417 Tb366 2.362 . S
O417 Tb377 2.610 1_554 S
O417 C433 1.283 1_554 S
O418 Tb366 2.421 . S
O418 C440 1.262 1_554 S
O419 Tb377 2.320 . S
O419 C440 1.260 . S
O420 Tb377 2.552 . S
O420 C433 1.243 . S
O421 Tb377 2.413 . S
O421 C441 1.256 . S
C422 O411 1.283 . S
C422 O414 1.243 . S
C423 C425 1.382 . S
C423 C427 1.393 . S
C423 C430 1.500 . S
C424 C425 1.400 . S
C424 C426 1.384 . S
C425 C423 1.382 . S
C425 C424 1.400 . S
C425 H442 0.930 . S
C426 C424 1.384 . S
C426 C428 1.392 . S
C426 H443 0.931 . S
C427 C423 1.393 . S
C427 C428 1.401 . S
C427 H444 0.930 . S
C428 C426 1.392 . S
C428 C427 1.401 . S
C428 H445 0.930 . S
C429 O412 1.262 1_554 S
C429 O413 1.260 . S
C430 Tb366 2.833 . S
C430 O410 1.251 . S
C430 O415 1.256 . S
C430 C423 1.500 . S
C431 H396 0.929 . S
C431 C409 1.444 . S
C431 C432 1.317 . S
C432 H394 0.930 . S
C432 C400 1.432 . S
C432 C431 1.317 . S
C433 O417 1.283 1_556 S
C433 O420 1.243 . S
C434 C435 1.382 . S
C434 C438 1.393 . S
C434 C441 1.500 . S
C435 C434 1.382 . S
C435 C436 1.400 . S
C435 H446 0.930 . S
C436 C435 1.400 . S
C436 C437 1.384 . S
C437 C436 1.384 . S
C437 C439 1.392 . S
C437 H447 0.931 . S
C438 C434 1.393 . S
C438 C439 1.401 . S
C438 H448 0.930 . S
C439 C437 1.392 . S
C439 C438 1.401 . S
C439 H449 0.930 . S
C440 O418 1.262 1_556 S
C440 O419 1.260 . S
C441 Tb377 2.833 . S
C441 O416 1.251 . S
C441 O421 1.256 . S
C441 C434 1.500 . S
H442 C425 0.930 . S
H443 C426 0.931 . S
H444 C427 0.930 . S
H445 C428 0.930 . S
H446 C435 0.930 . S
H447 C437 0.931 . S
H448 C438 0.930 . S
H449 C439 0.930 . S
Tb450 N481 2.660 . S
Tb450 N488 2.600 . S
Tb450 O494 2.546 . S
Tb450 O495 2.610 . S
Tb450 O497 2.320 . S
Tb450 O498 2.552 . S
Tb450 O499 2.413 . S
Tb450 O501 2.362 . S
Tb450 O502 2.421 . S
Tb450 C514 2.833 . S
C451 C454 1.432 . S
C451 C455 1.414 . S
C451 N458 1.359 . S
C452 C454 1.417 . S
C452 C456 1.432 . S
C452 C464 1.410 . S
C453 C455 1.444 . S
C453 C456 1.317 . S
C453 H476 0.929 . S
C454 C451 1.432 . S
C454 C452 1.417 . S
C454 N462 1.360 . S
C455 C451 1.414 . S
C455 C453 1.444 . S
C455 C460 1.385 . S
C456 C452 1.432 . S
C456 C453 1.317 . S
C456 H468 0.930 . S
C457 C459 1.392 . S
C457 C460 1.370 . S
C457 H469 0.931 . S
N458 C451 1.359 . S
N458 C459 1.327 . S
N458 Tb461 2.600 . S
C459 C457 1.392 . S
C459 N458 1.327 . S
C459 H466 0.930 . S
C460 C455 1.385 . S
C460 C457 1.370 . S
C460 H479 0.930 . S
Tb461 N458 2.600 . S
Tb461 N462 2.660 . S
Tb461 O495 2.362 . S
Tb461 O496 2.421 . S
Tb461 O500 2.546 . S
Tb461 O501 2.610 . S
Tb461 O503 2.320 . S
Tb461 O504 2.552 . S
Tb461 O505 2.413 . S
Tb461 C525 2.833 . S
N462 C454 1.360 . S
N462 Tb461 2.660 . S
N462 C463 1.305 . S
C463 N462 1.305 . S
C463 C465 1.407 . S
C463 H470 0.930 . S
C464 C452 1.410 . S
C464 C465 1.345 . S
C464 H472 0.930 . S
C465 C463 1.407 . S
C465 C464 1.345 . S
C465 H467 0.930 . S
H466 C459 0.930 . S
H467 C465 0.930 . S
H468 C456 0.930 . S
H469 C457 0.931 . S
H470 C463 0.930 . S
H471 C485 0.930 . S
H472 C464 0.930 . S
H473 C491 0.930 . S
H474 C482 0.930 . S
H475 C489 0.931 . S
H476 C453 0.929 . S
H477 C483 0.930 . S
H478 C516 0.930 . S
H479 C460 0.930 . S
H480 C515 0.929 . S
N481 Tb450 2.660 . S
N481 C482 1.305 . S
N481 C486 1.360 . S
C482 H474 0.930 . S
C482 N481 1.305 . S
C482 C485 1.407 . S
C483 H477 0.930 . S
C483 C484 1.410 . S
C483 C485 1.345 . S
C484 C483 1.410 . S
C484 C486 1.417 . S
C484 C516 1.432 . S
C485 H471 0.930 . S
C485 C482 1.407 . S
C485 C483 1.345 . S
C486 N481 1.360 . S
C486 C484 1.417 . S
C486 C490 1.432 . S
H487 C492 0.930 . S
N488 Tb450 2.600 . S
N488 C490 1.359 . S
N488 C491 1.327 . S
C489 H475 0.931 . S
C489 C491 1.392 . S
C489 C492 1.370 . S
C490 C486 1.432 . S
C490 N488 1.359 . S
C490 C493 1.414 . S
C491 H473 0.930 . S
C491 N488 1.327 . S
C491 C489 1.392 . S
C492 H487 0.930 . S
C492 C489 1.370 . S
C492 C493 1.385 . S
C493 C490 1.414 . S
C493 C492 1.385 . S
C493 C515 1.444 . S
O494 Tb450 2.546 . S
O494 C514 1.251 . S
O495 Tb450 2.610 . S
O495 Tb461 2.362 . S
O495 C506 1.283 . S
O496 Tb461 2.421 . S
O496 C513 1.262 . S
O497 Tb450 2.320 . S
O497 C513 1.260 . S
O498 Tb450 2.552 . S
O498 C506 1.243 . S
O499 Tb450 2.413 . S
O499 C514 1.256 . S
O500 Tb461 2.546 . S
O500 C525 1.251 . S
O501 Tb450 2.362 . S
O501 Tb461 2.610 . S
O501 C517 1.283 . S
O502 Tb450 2.421 . S
O502 C524 1.262 . S
O503 Tb461 2.320 . S
O503 C524 1.260 . S
O504 Tb461 2.552 . S
O504 C517 1.243 . S
O505 Tb461 2.413 . S
O505 C525 1.256 . S
C506 O495 1.283 . S
C506 O498 1.243 . S
C507 C509 1.382 . S
C507 C511 1.393 . S
C507 C514 1.500 . S
C508 C509 1.400 . S
C508 C510 1.384 . S
C509 C507 1.382 . S
C509 C508 1.400 . S
C509 H526 0.930 . S
C510 C508 1.384 . S
C510 C512 1.392 . S
C510 H527 0.931 . S
C511 C507 1.393 . S
C511 C512 1.401 . S
C511 H528 0.930 . S
C512 C510 1.392 . S
C512 C511 1.401 . S
C512 H529 0.930 . S
C513 O496 1.262 . S
C513 O497 1.260 . S
C514 Tb450 2.833 . S
C514 O494 1.251 . S
C514 O499 1.256 . S
C514 C507 1.500 . S
C515 H480 0.929 . S
C515 C493 1.444 . S
C515 C516 1.317 . S
C516 H478 0.930 . S
C516 C484 1.432 . S
C516 C515 1.317 . S
C517 O501 1.283 . S
C517 O504 1.243 . S
C518 C519 1.382 . S
C518 C522 1.393 . S
C518 C525 1.500 . S
C519 C518 1.382 . S
C519 C520 1.400 . S
C519 H530 0.930 . S
C520 C519 1.400 . S
C520 C521 1.384 . S
C521 C520 1.384 . S
C521 C523 1.392 . S
C521 H531 0.931 . S
C522 C518 1.393 . S
C522 C523 1.401 . S
C522 H532 0.930 . S
C523 C521 1.392 . S
C523 C522 1.401 . S
C523 H533 0.930 . S
C524 O502 1.262 . S
C524 O503 1.260 . S
C525 Tb461 2.833 . S
C525 O500 1.251 . S
C525 O505 1.256 . S
C525 C518 1.500 . S
H526 C509 0.930 . S
H527 C510 0.931 . S
H528 C511 0.930 . S
H529 C512 0.930 . S
H530 C519 0.930 . S
H531 C521 0.931 . S
H532 C522 0.930 . S
H533 C523 0.930 . S
Tb534 N565 2.660 . S
Tb534 N572 2.600 . S
Tb534 O578 2.546 . S
Tb534 O579 2.610 . S
Tb534 O581 2.320 . S
Tb534 O582 2.552 . S
Tb534 O583 2.413 . S
Tb534 O585 2.362 . S
Tb534 O586 2.421 . S
Tb534 C598 2.833 . S
C535 C538 1.432 . S
C535 C539 1.414 . S
C535 N542 1.359 . S
C536 C538 1.417 . S
C536 C540 1.432 . S
C536 C548 1.410 . S
C537 C539 1.444 . S
C537 C540 1.317 . S
C537 H560 0.929 . S
C538 C535 1.432 . S
C538 C536 1.417 . S
C538 N546 1.360 . S
C539 C535 1.414 . S
C539 C537 1.444 . S
C539 C544 1.385 . S
C540 C536 1.432 . S
C540 C537 1.317 . S
C540 H552 0.930 . S
C541 C543 1.392 . S
C541 C544 1.370 . S
C541 H553 0.931 . S
N542 C535 1.359 . S
N542 C543 1.327 . S
N542 Tb545 2.600 . S
C543 C541 1.392 . S
C543 N542 1.327 . S
C543 H550 0.930 . S
C544 C539 1.385 . S
C544 C541 1.370 . S
C544 H563 0.930 . S
Tb545 N542 2.600 . S
Tb545 N546 2.660 . S
Tb545 O579 2.362 . S
Tb545 O580 2.421 . S
Tb545 O584 2.546 . S
Tb545 O585 2.610 . S
Tb545 O587 2.320 . S
Tb545 O588 2.552 . S
Tb545 O589 2.413 . S
Tb545 C609 2.833 . S
N546 C538 1.360 . S
N546 Tb545 2.660 . S
N546 C547 1.305 . S
C547 N546 1.305 . S
C547 C549 1.407 . S
C547 H554 0.930 . S
C548 C536 1.410 . S
C548 C549 1.345 . S
C548 H556 0.930 . S
C549 C547 1.407 . S
C549 C548 1.345 . S
C549 H551 0.930 . S
H550 C543 0.930 . S
H551 C549 0.930 . S
H552 C540 0.930 . S
H553 C541 0.931 . S
H554 C547 0.930 . S
H555 C569 0.930 . S
H556 C548 0.930 . S
H557 C575 0.930 . S
H558 C566 0.930 . S
H559 C573 0.931 . S
H560 C537 0.929 . S
H561 C567 0.930 . S
H562 C600 0.930 . S
H563 C544 0.930 . S
H564 C599 0.929 . S
N565 Tb534 2.660 . S
N565 C566 1.305 . S
N565 C570 1.360 . S
C566 H558 0.930 . S
C566 N565 1.305 . S
C566 C569 1.407 . S
C567 H561 0.930 . S
C567 C568 1.410 . S
C567 C569 1.345 . S
C568 C567 1.410 . S
C568 C570 1.417 . S
C568 C600 1.432 . S
C569 H555 0.930 . S
C569 C566 1.407 . S
C569 C567 1.345 . S
C570 N565 1.360 . S
C570 C568 1.417 . S
C570 C574 1.432 . S
H571 C576 0.930 . S
N572 Tb534 2.600 . S
N572 C574 1.359 . S
N572 C575 1.327 . S
C573 H559 0.931 . S
C573 C575 1.392 . S
C573 C576 1.370 . S
C574 C570 1.432 . S
C574 N572 1.359 . S
C574 C577 1.414 . S
C575 H557 0.930 . S
C575 N572 1.327 . S
C575 C573 1.392 . S
C576 H571 0.930 . S
C576 C573 1.370 . S
C576 C577 1.385 . S
C577 C574 1.414 . S
C577 C576 1.385 . S
C577 C599 1.444 . S
O578 Tb534 2.546 . S
O578 C598 1.251 . S
O579 Tb534 2.610 . S
O579 Tb545 2.362 . S
O579 C590 1.283 . S
O580 Tb545 2.421 . S
O580 C597 1.262 . S
O581 Tb534 2.320 . S
O581 C597 1.260 . S
O582 Tb534 2.552 . S
O582 C590 1.243 . S
O583 Tb534 2.413 . S
O583 C598 1.256 . S
O584 Tb545 2.546 . S
O584 C609 1.251 . S
O585 Tb534 2.362 . S
O585 Tb545 2.610 . S
O585 C601 1.283 . S
O586 Tb534 2.421 . S
O586 C608 1.262 . S
O587 Tb545 2.320 . S
O587 C608 1.260 . S
O588 Tb545 2.552 . S
O588 C601 1.243 . S
O589 Tb545 2.413 . S
O589 C609 1.256 . S
C590 O579 1.283 . S
C590 O582 1.243 . S
C591 C593 1.382 . S
C591 C595 1.393 . S
C591 C598 1.500 . S
C592 C593 1.400 . S
C592 C594 1.384 . S
C593 C591 1.382 . S
C593 C592 1.400 . S
C593 H610 0.930 . S
C594 C592 1.384 . S
C594 C596 1.392 . S
C594 H611 0.931 . S
C595 C591 1.393 . S
C595 C596 1.401 . S
C595 H612 0.930 . S
C596 C594 1.392 . S
C596 C595 1.401 . S
C596 H613 0.930 . S
C597 O580 1.262 . S
C597 O581 1.260 . S
C598 Tb534 2.833 . S
C598 O578 1.251 . S
C598 O583 1.256 . S
C598 C591 1.500 . S
C599 H564 0.929 . S
C599 C577 1.444 . S
C599 C600 1.317 . S
C600 H562 0.930 . S
C600 C568 1.432 . S
C600 C599 1.317 . S
C601 O585 1.283 . S
C601 O588 1.243 . S
C602 C603 1.382 . S
C602 C606 1.393 . S
C602 C609 1.500 . S
C603 C602 1.382 . S
C603 C604 1.400 . S
C603 H614 0.930 . S
C604 C603 1.400 . S
C604 C605 1.384 . S
C605 C604 1.384 . S
C605 C607 1.392 . S
C605 H615 0.931 . S
C606 C602 1.393 . S
C606 C607 1.401 . S
C606 H616 0.930 . S
C607 C605 1.392 . S
C607 C606 1.401 . S
C607 H617 0.930 . S
C608 O586 1.262 . S
C608 O587 1.260 . S
C609 Tb545 2.833 . S
C609 O584 1.251 . S
C609 O589 1.256 . S
C609 C602 1.500 . S
H610 C593 0.930 . S
H611 C594 0.931 . S
H612 C595 0.930 . S
H613 C596 0.930 . S
H614 C603 0.930 . S
H615 C605 0.931 . S
H616 C606 0.930 . S
H617 C607 0.930 . S
Tb618 N649 2.660 . S
Tb618 N656 2.600 . S
Tb618 O662 2.546 . S
Tb618 O663 2.610 . S
Tb618 O665 2.320 . S
Tb618 O666 2.552 . S
Tb618 O667 2.413 . S
Tb618 O669 2.362 . S
Tb618 O670 2.421 . S
Tb618 C682 2.833 . S
C619 C622 1.432 . S
C619 C623 1.414 . S
C619 N626 1.359 . S
C620 C622 1.417 . S
C620 C624 1.432 . S
C620 C632 1.410 . S
C621 C623 1.444 . S
C621 C624 1.317 . S
C621 H644 0.929 . S
C622 C619 1.432 . S
C622 C620 1.417 . S
C622 N630 1.360 . S
C623 C619 1.414 . S
C623 C621 1.444 . S
C623 C628 1.385 . S
C624 C620 1.432 . S
C624 C621 1.317 . S
C624 H636 0.930 . S
C625 C627 1.392 . S
C625 C628 1.370 . S
C625 H637 0.931 . S
N626 C619 1.359 . S
N626 C627 1.327 . S
N626 Tb629 2.600 . S
C627 C625 1.392 . S
C627 N626 1.327 . S
C627 H634 0.930 . S
C628 C623 1.385 . S
C628 C625 1.370 . S
C628 H647 0.930 . S
Tb629 N626 2.600 . S
Tb629 N630 2.660 . S
Tb629 O663 2.362 . S
Tb629 O664 2.421 . S
Tb629 O668 2.546 . S
Tb629 O669 2.610 . S
Tb629 O671 2.320 . S
Tb629 O672 2.552 . S
Tb629 O673 2.413 . S
Tb629 C693 2.833 . S
N630 C622 1.360 . S
N630 Tb629 2.660 . S
N630 C631 1.305 . S
C631 N630 1.305 . S
C631 C633 1.407 . S
C631 H638 0.930 . S
C632 C620 1.410 . S
C632 C633 1.345 . S
C632 H640 0.930 . S
C633 C631 1.407 . S
C633 C632 1.345 . S
C633 H635 0.930 . S
H634 C627 0.930 . S
H635 C633 0.930 . S
H636 C624 0.930 . S
H637 C625 0.931 . S
H638 C631 0.930 . S
H639 C653 0.930 . S
H640 C632 0.930 . S
H641 C659 0.930 . S
H642 C650 0.930 . S
H643 C657 0.931 . S
H644 C621 0.929 . S
H645 C651 0.930 . S
H646 C684 0.930 . S
H647 C628 0.930 . S
H648 C683 0.929 . S
N649 Tb618 2.660 . S
N649 C650 1.305 . S
N649 C654 1.360 . S
C650 H642 0.930 . S
C650 N649 1.305 . S
C650 C653 1.407 . S
C651 H645 0.930 . S
C651 C652 1.410 . S
C651 C653 1.345 . S
C652 C651 1.410 . S
C652 C654 1.417 . S
C652 C684 1.432 . S
C653 H639 0.930 . S
C653 C650 1.407 . S
C653 C651 1.345 . S
C654 N649 1.360 . S
C654 C652 1.417 . S
C654 C658 1.432 . S
H655 C660 0.930 . S
N656 Tb618 2.600 . S
N656 C658 1.359 . S
N656 C659 1.327 . S
C657 H643 0.931 . S
C657 C659 1.392 . S
C657 C660 1.370 . S
C658 C654 1.432 . S
C658 N656 1.359 . S
C658 C661 1.414 . S
C659 H641 0.930 . S
C659 N656 1.327 . S
C659 C657 1.392 . S
C660 H655 0.930 . S
C660 C657 1.370 . S
C660 C661 1.385 . S
C661 C658 1.414 . S
C661 C660 1.385 . S
C661 C683 1.444 . S
O662 Tb618 2.546 . S
O662 C682 1.251 . S
O663 Tb618 2.610 . S
O663 Tb629 2.362 . S
O663 C674 1.283 . S
O664 Tb629 2.421 . S
O664 C681 1.262 . S
O665 Tb618 2.320 . S
O665 C681 1.260 . S
O666 Tb618 2.552 . S
O666 C674 1.243 . S
O667 Tb618 2.413 . S
O667 C682 1.256 . S
O668 Tb629 2.546 . S
O668 C693 1.251 . S
O669 Tb618 2.362 . S
O669 Tb629 2.610 . S
O669 C685 1.283 . S
O670 Tb618 2.421 . S
O670 C692 1.262 . S
O671 Tb629 2.320 . S
O671 C692 1.260 . S
O672 Tb629 2.552 . S
O672 C685 1.243 . S
O673 Tb629 2.413 . S
O673 C693 1.256 . S
C674 O663 1.283 . S
C674 O666 1.243 . S
C675 C677 1.382 . S
C675 C679 1.393 . S
C675 C682 1.500 . S
C676 C677 1.400 . S
C676 C678 1.384 . S
C677 C675 1.382 . S
C677 C676 1.400 . S
C677 H694 0.930 . S
C678 C676 1.384 . S
C678 C680 1.392 . S
C678 H695 0.931 . S
C679 C675 1.393 . S
C679 C680 1.401 . S
C679 H696 0.930 . S
C680 C678 1.392 . S
C680 C679 1.401 . S
C680 H697 0.930 . S
C681 O664 1.262 . S
C681 O665 1.260 . S
C682 Tb618 2.833 . S
C682 O662 1.251 . S
C682 O667 1.256 . S
C682 C675 1.500 . S
C683 H648 0.929 . S
C683 C661 1.444 . S
C683 C684 1.317 . S
C684 H646 0.930 . S
C684 C652 1.432 . S
C684 C683 1.317 . S
C685 O669 1.283 . S
C685 O672 1.243 . S
C686 C687 1.382 . S
C686 C690 1.393 . S
C686 C693 1.500 . S
C687 C686 1.382 . S
C687 C688 1.400 . S
C687 H698 0.930 . S
C688 C687 1.400 . S
C688 C689 1.384 . S
C689 C688 1.384 . S
C689 C691 1.392 . S
C689 H699 0.931 . S
C690 C686 1.393 . S
C690 C691 1.401 . S
C690 H700 0.930 . S
C691 C689 1.392 . S
C691 C690 1.401 . S
C691 H701 0.930 . S
C692 O670 1.262 . S
C692 O671 1.260 . S
C693 Tb629 2.833 . S
C693 O668 1.251 . S
C693 O673 1.256 . S
C693 C686 1.500 . S
H694 C677 0.930 . S
H695 C678 0.931 . S
H696 C679 0.930 . S
H697 C680 0.930 . S
H698 C687 0.930 . S
H699 C689 0.931 . S
H700 C690 0.930 . S
H701 C691 0.930 . S
Tb702 N733 2.660 . S
Tb702 N740 2.600 . S
Tb702 O746 2.546 . S
Tb702 O747 2.610 . S
Tb702 O749 2.320 . S
Tb702 O750 2.552 . S
Tb702 O751 2.413 . S
Tb702 O753 2.362 . S
Tb702 O754 2.421 . S
Tb702 C766 2.833 . S
C703 C706 1.432 . S
C703 C707 1.414 . S
C703 N710 1.359 . S
C704 C706 1.417 . S
C704 C708 1.432 . S
C704 C716 1.410 . S
C705 C707 1.444 . S
C705 C708 1.317 . S
C705 H728 0.929 . S
C706 C703 1.432 . S
C706 C704 1.417 . S
C706 N714 1.360 . S
C707 C703 1.414 . S
C707 C705 1.444 . S
C707 C712 1.385 . S
C708 C704 1.432 . S
C708 C705 1.317 . S
C708 H720 0.930 . S
C709 C711 1.392 . S
C709 C712 1.370 . S
C709 H721 0.931 . S
N710 C703 1.359 . S
N710 C711 1.327 . S
N710 Tb713 2.600 . S
C711 C709 1.392 . S
C711 N710 1.327 . S
C711 H718 0.930 . S
C712 C707 1.385 . S
C712 C709 1.370 . S
C712 H731 0.930 . S
Tb713 N710 2.600 . S
Tb713 N714 2.660 . S
Tb713 O747 2.362 . S
Tb713 O748 2.421 . S
Tb713 O752 2.546 . S
Tb713 O753 2.610 . S
Tb713 O755 2.320 . S
Tb713 O756 2.552 . S
Tb713 O757 2.413 . S
Tb713 C777 2.833 . S
N714 C706 1.360 . S
N714 Tb713 2.660 . S
N714 C715 1.305 . S
C715 N714 1.305 . S
C715 C717 1.407 . S
C715 H722 0.930 . S
C716 C704 1.410 . S
C716 C717 1.345 . S
C716 H724 0.930 . S
C717 C715 1.407 . S
C717 C716 1.345 . S
C717 H719 0.930 . S
H718 C711 0.930 . S
H719 C717 0.930 . S
H720 C708 0.930 . S
H721 C709 0.931 . S
H722 C715 0.930 . S
H723 C737 0.930 . S
H724 C716 0.930 . S
H725 C743 0.930 . S
H726 C734 0.930 . S
H727 C741 0.931 . S
H728 C705 0.929 . S
H729 C735 0.930 . S
H730 C768 0.930 . S
H731 C712 0.930 . S
H732 C767 0.929 . S
N733 Tb702 2.660 . S
N733 C734 1.305 . S
N733 C738 1.360 . S
C734 H726 0.930 . S
C734 N733 1.305 . S
C734 C737 1.407 . S
C735 H729 0.930 . S
C735 C736 1.410 . S
C735 C737 1.345 . S
C736 C735 1.410 . S
C736 C738 1.417 . S
C736 C768 1.432 . S
C737 H723 0.930 . S
C737 C734 1.407 . S
C737 C735 1.345 . S
C738 N733 1.360 . S
C738 C736 1.417 . S
C738 C742 1.432 . S
H739 C744 0.930 . S
N740 Tb702 2.600 . S
N740 C742 1.359 . S
N740 C743 1.327 . S
C741 H727 0.931 . S
C741 C743 1.392 . S
C741 C744 1.370 . S
C742 C738 1.432 . S
C742 N740 1.359 . S
C742 C745 1.414 . S
C743 H725 0.930 . S
C743 N740 1.327 . S
C743 C741 1.392 . S
C744 H739 0.930 . S
C744 C741 1.370 . S
C744 C745 1.385 . S
C745 C742 1.414 . S
C745 C744 1.385 . S
C745 C767 1.444 . S
O746 Tb702 2.546 . S
O746 C766 1.251 . S
O747 Tb702 2.610 . S
O747 Tb713 2.362 . S
O747 C758 1.283 . S
O748 Tb713 2.421 . S
O748 C765 1.262 . S
O749 Tb702 2.320 . S
O749 C765 1.260 . S
O750 Tb702 2.552 . S
O750 C758 1.243 . S
O751 Tb702 2.413 . S
O751 C766 1.256 . S
O752 Tb713 2.546 . S
O752 C777 1.251 . S
O753 Tb702 2.362 . S
O753 Tb713 2.610 . S
O753 C769 1.283 . S
O754 Tb702 2.421 . S
O754 C776 1.262 . S
O755 Tb713 2.320 . S
O755 C776 1.260 . S
O756 Tb713 2.552 . S
O756 C769 1.243 . S
O757 Tb713 2.413 . S
O757 C777 1.256 . S
C758 O747 1.283 . S
C758 O750 1.243 . S
C759 C761 1.382 . S
C759 C763 1.393 . S
C759 C766 1.500 . S
C760 C761 1.400 . S
C760 C762 1.384 . S
C761 C759 1.382 . S
C761 C760 1.400 . S
C761 H778 0.930 . S
C762 C760 1.384 . S
C762 C764 1.392 . S
C762 H779 0.931 . S
C763 C759 1.393 . S
C763 C764 1.401 . S
C763 H780 0.930 . S
C764 C762 1.392 . S
C764 C763 1.401 . S
C764 H781 0.930 . S
C765 O748 1.262 . S
C765 O749 1.260 . S
C766 Tb702 2.833 . S
C766 O746 1.251 . S
C766 O751 1.256 . S
C766 C759 1.500 . S
C767 H732 0.929 . S
C767 C745 1.444 . S
C767 C768 1.317 . S
C768 H730 0.930 . S
C768 C736 1.432 . S
C768 C767 1.317 . S
C769 O753 1.283 . S
C769 O756 1.243 . S
C770 C771 1.382 . S
C770 C774 1.393 . S
C770 C777 1.500 . S
C771 C770 1.382 . S
C771 C772 1.400 . S
C771 H782 0.930 . S
C772 C771 1.400 . S
C772 C773 1.384 . S
C773 C772 1.384 . S
C773 C775 1.392 . S
C773 H783 0.931 . S
C774 C770 1.393 . S
C774 C775 1.401 . S
C774 H784 0.930 . S
C775 C773 1.392 . S
C775 C774 1.401 . S
C775 H785 0.930 . S
C776 O754 1.262 . S
C776 O755 1.260 . S
C777 Tb713 2.833 . S
C777 O752 1.251 . S
C777 O757 1.256 . S
C777 C770 1.500 . S
H778 C761 0.930 . S
H779 C762 0.931 . S
H780 C763 0.930 . S
H781 C764 0.930 . S
H782 C771 0.930 . S
H783 C773 0.931 . S
H784 C774 0.930 . S
H785 C775 0.930 . S
Tb786 N817 2.660 . S
Tb786 N824 2.600 . S
Tb786 O830 2.546 . S
Tb786 O831 2.610 . S
Tb786 O833 2.320 . S
Tb786 O834 2.552 . S
Tb786 O835 2.413 . S
Tb786 O837 2.362 . S
Tb786 O838 2.421 . S
Tb786 C850 2.833 . S
C787 C790 1.432 . S
C787 C791 1.414 . S
C787 N794 1.359 . S
C788 C790 1.417 . S
C788 C792 1.432 . S
C788 C800 1.410 . S
C789 C791 1.444 . S
C789 C792 1.317 . S
C789 H812 0.929 . S
C790 C787 1.432 . S
C790 C788 1.417 . S
C790 N798 1.360 . S
C791 C787 1.414 . S
C791 C789 1.444 . S
C791 C796 1.385 . S
C792 C788 1.432 . S
C792 C789 1.317 . S
C792 H804 0.930 . S
C793 C795 1.392 . S
C793 C796 1.370 . S
C793 H805 0.931 . S
N794 C787 1.359 . S
N794 C795 1.327 . S
N794 Tb797 2.600 . S
C795 C793 1.392 . S
C795 N794 1.327 . S
C795 H802 0.930 . S
C796 C791 1.385 . S
C796 C793 1.370 . S
C796 H815 0.930 . S
Tb797 N794 2.600 . S
Tb797 N798 2.660 . S
Tb797 O831 2.362 . S
Tb797 O832 2.421 . S
Tb797 O836 2.546 . S
Tb797 O837 2.610 . S
Tb797 O839 2.320 . S
Tb797 O840 2.552 . S
Tb797 O841 2.413 . S
Tb797 C861 2.833 . S
N798 C790 1.360 . S
N798 Tb797 2.660 . S
N798 C799 1.305 . S
C799 N798 1.305 . S
C799 C801 1.407 . S
C799 H806 0.930 . S
C800 C788 1.410 . S
C800 C801 1.345 . S
C800 H808 0.930 . S
C801 C799 1.407 . S
C801 C800 1.345 . S
C801 H803 0.930 . S
H802 C795 0.930 . S
H803 C801 0.930 . S
H804 C792 0.930 . S
H805 C793 0.931 . S
H806 C799 0.930 . S
H807 C821 0.930 . S
H808 C800 0.930 . S
H809 C827 0.930 . S
H810 C818 0.930 . S
H811 C825 0.931 . S
H812 C789 0.929 . S
H813 C819 0.930 . S
H814 C852 0.930 . S
H815 C796 0.930 . S
H816 C851 0.929 . S
N817 Tb786 2.660 . S
N817 C818 1.305 . S
N817 C822 1.360 . S
C818 H810 0.930 . S
C818 N817 1.305 . S
C818 C821 1.407 . S
C819 H813 0.930 . S
C819 C820 1.410 . S
C819 C821 1.345 . S
C820 C819 1.410 . S
C820 C822 1.417 . S
C820 C852 1.432 . S
C821 H807 0.930 . S
C821 C818 1.407 . S
C821 C819 1.345 . S
C822 N817 1.360 . S
C822 C820 1.417 . S
C822 C826 1.432 . S
H823 C828 0.930 . S
N824 Tb786 2.600 . S
N824 C826 1.359 . S
N824 C827 1.327 . S
C825 H811 0.931 . S
C825 C827 1.392 . S
C825 C828 1.370 . S
C826 C822 1.432 . S
C826 N824 1.359 . S
C826 C829 1.414 . S
C827 H809 0.930 . S
C827 N824 1.327 . S
C827 C825 1.392 . S
C828 H823 0.930 . S
C828 C825 1.370 . S
C828 C829 1.385 . S
C829 C826 1.414 . S
C829 C828 1.385 . S
C829 C851 1.444 . S
O830 Tb786 2.546 . S
O830 C850 1.251 . S
O831 Tb786 2.610 . S
O831 Tb797 2.362 . S
O831 C842 1.283 . S
O832 Tb797 2.421 . S
O832 C849 1.262 . S
O833 Tb786 2.320 . S
O833 C849 1.260 . S
O834 Tb786 2.552 . S
O834 C842 1.243 . S
O835 Tb786 2.413 . S
O835 C850 1.256 . S
O836 Tb797 2.546 . S
O836 C861 1.251 . S
O837 Tb786 2.362 . S
O837 Tb797 2.610 . S
O837 C853 1.283 . S
O838 Tb786 2.421 . S
O838 C860 1.262 . S
O839 Tb797 2.320 . S
O839 C860 1.260 . S
O840 Tb797 2.552 . S
O840 C853 1.243 . S
O841 Tb797 2.413 . S
O841 C861 1.256 . S
C842 O831 1.283 . S
C842 O834 1.243 . S
C843 C845 1.382 . S
C843 C847 1.393 . S
C843 C850 1.500 . S
C844 C845 1.400 . S
C844 C846 1.384 . S
C845 C843 1.382 . S
C845 C844 1.400 . S
C845 H862 0.930 . S
C846 C844 1.384 . S
C846 C848 1.392 . S
C846 H863 0.931 . S
C847 C843 1.393 . S
C847 C848 1.401 . S
C847 H864 0.930 . S
C848 C846 1.392 . S
C848 C847 1.401 . S
C848 H865 0.930 . S
C849 O832 1.262 . S
C849 O833 1.260 . S
C850 Tb786 2.833 . S
C850 O830 1.251 . S
C850 O835 1.256 . S
C850 C843 1.500 . S
C851 H816 0.929 . S
C851 C829 1.444 . S
C851 C852 1.317 . S
C852 H814 0.930 . S
C852 C820 1.432 . S
C852 C851 1.317 . S
C853 O837 1.283 . S
C853 O840 1.243 . S
C854 C855 1.382 . S
C854 C858 1.393 . S
C854 C861 1.500 . S
C855 C854 1.382 . S
C855 C856 1.400 . S
C855 H866 0.930 . S
C856 C855 1.400 . S
C856 C857 1.384 . S
C857 C856 1.384 . S
C857 C859 1.392 . S
C857 H867 0.931 . S
C858 C854 1.393 . S
C858 C859 1.401 . S
C858 H868 0.930 . S
C859 C857 1.392 . S
C859 C858 1.401 . S
C859 H869 0.930 . S
C860 O838 1.262 . S
C860 O839 1.260 . S
C861 Tb797 2.833 . S
C861 O836 1.251 . S
C861 O841 1.256 . S
C861 C854 1.500 . S
H862 C845 0.930 . S
H863 C846 0.931 . S
H864 C847 0.930 . S
H865 C848 0.930 . S
H866 C855 0.930 . S
H867 C857 0.931 . S
H868 C858 0.930 . S
H869 C859 0.930 . S
Tb870 N901 2.660 . S
Tb870 N908 2.600 . S
Tb870 O914 2.546 . S
Tb870 O915 2.610 . S
Tb870 O917 2.320 . S
Tb870 O918 2.552 . S
Tb870 O919 2.413 . S
Tb870 O921 2.362 . S
Tb870 O922 2.421 . S
Tb870 C934 2.833 . S
C871 C874 1.432 . S
C871 C875 1.414 . S
C871 N878 1.359 . S
C872 C874 1.417 . S
C872 C876 1.432 . S
C872 C884 1.410 . S
C873 C875 1.444 . S
C873 C876 1.317 . S
C873 H896 0.929 . S
C874 C871 1.432 . S
C874 C872 1.417 . S
C874 N882 1.360 . S
C875 C871 1.414 . S
C875 C873 1.444 . S
C875 C880 1.385 . S
C876 C872 1.432 . S
C876 C873 1.317 . S
C876 H888 0.930 . S
C877 C879 1.392 . S
C877 C880 1.370 . S
C877 H889 0.931 . S
N878 C871 1.359 . S
N878 C879 1.327 . S
N878 Tb881 2.600 . S
C879 C877 1.392 . S
C879 N878 1.327 . S
C879 H886 0.930 . S
C880 C875 1.385 . S
C880 C877 1.370 . S
C880 H899 0.930 . S
Tb881 N878 2.600 . S
Tb881 N882 2.660 . S
Tb881 O915 2.362 . S
Tb881 O916 2.421 . S
Tb881 O920 2.546 . S
Tb881 O921 2.610 . S
Tb881 O923 2.320 . S
Tb881 O924 2.552 . S
Tb881 O925 2.413 . S
Tb881 C945 2.833 . S
N882 C874 1.360 . S
N882 Tb881 2.660 . S
N882 C883 1.305 . S
C883 N882 1.305 . S
C883 C885 1.407 . S
C883 H890 0.930 . S
C884 C872 1.410 . S
C884 C885 1.345 . S
C884 H892 0.930 . S
C885 C883 1.407 . S
C885 C884 1.345 . S
C885 H887 0.930 . S
H886 C879 0.930 . S
H887 C885 0.930 . S
H888 C876 0.930 . S
H889 C877 0.931 . S
H890 C883 0.930 . S
H891 C905 0.930 . S
H892 C884 0.930 . S
H893 C911 0.930 . S
H894 C902 0.930 . S
H895 C909 0.931 . S
H896 C873 0.929 . S
H897 C903 0.930 . S
H898 C936 0.930 . S
H899 C880 0.930 . S
H900 C935 0.929 . S
N901 Tb870 2.660 . S
N901 C902 1.305 . S
N901 C906 1.360 . S
C902 H894 0.930 . S
C902 N901 1.305 . S
C902 C905 1.407 . S
C903 H897 0.930 . S
C903 C904 1.410 . S
C903 C905 1.345 . S
C904 C903 1.410 . S
C904 C906 1.417 . S
C904 C936 1.432 . S
C905 H891 0.930 . S
C905 C902 1.407 . S
C905 C903 1.345 . S
C906 N901 1.360 . S
C906 C904 1.417 . S
C906 C910 1.432 . S
H907 C912 0.930 . S
N908 Tb870 2.600 . S
N908 C910 1.359 . S
N908 C911 1.327 . S
C909 H895 0.931 . S
C909 C911 1.392 . S
C909 C912 1.370 . S
C910 C906 1.432 . S
C910 N908 1.359 . S
C910 C913 1.414 . S
C911 H893 0.930 . S
C911 N908 1.327 . S
C911 C909 1.392 . S
C912 H907 0.930 . S
C912 C909 1.370 . S
C912 C913 1.385 . S
C913 C910 1.414 . S
C913 C912 1.385 . S
C913 C935 1.444 . S
O914 Tb870 2.546 . S
O914 C934 1.251 . S
O915 Tb870 2.610 . S
O915 Tb881 2.362 . S
O915 C926 1.283 . S
O916 Tb881 2.421 . S
O916 C933 1.262 . S
O917 Tb870 2.320 . S
O917 C933 1.260 . S
O918 Tb870 2.552 . S
O918 C926 1.243 . S
O919 Tb870 2.413 . S
O919 C934 1.256 . S
O920 Tb881 2.546 . S
O920 C945 1.251 . S
O921 Tb870 2.362 . S
O921 Tb881 2.610 . S
O921 C937 1.283 . S
O922 Tb870 2.421 . S
O922 C944 1.262 . S
O923 Tb881 2.320 . S
O923 C944 1.260 . S
O924 Tb881 2.552 . S
O924 C937 1.243 . S
O925 Tb881 2.413 . S
O925 C945 1.256 . S
C926 O915 1.283 . S
C926 O918 1.243 . S
C927 C929 1.382 . S
C927 C931 1.393 . S
C927 C934 1.500 . S
C928 C929 1.400 . S
C928 C930 1.384 . S
C929 C927 1.382 . S
C929 C928 1.400 . S
C929 H946 0.930 . S
C930 C928 1.384 . S
C930 C932 1.392 . S
C930 H947 0.931 . S
C931 C927 1.393 . S
C931 C932 1.401 . S
C931 H948 0.930 . S
C932 C930 1.392 . S
C932 C931 1.401 . S
C932 H949 0.930 . S
C933 O916 1.262 . S
C933 O917 1.260 . S
C934 Tb870 2.833 . S
C934 O914 1.251 . S
C934 O919 1.256 . S
C934 C927 1.500 . S
C935 H900 0.929 . S
C935 C913 1.444 . S
C935 C936 1.317 . S
C936 H898 0.930 . S
C936 C904 1.432 . S
C936 C935 1.317 . S
C937 O921 1.283 . S
C937 O924 1.243 . S
C938 C939 1.382 . S
C938 C942 1.393 . S
C938 C945 1.500 . S
C939 C938 1.382 . S
C939 C940 1.400 . S
C939 H950 0.930 . S
C940 C939 1.400 . S
C940 C941 1.384 . S
C941 C940 1.384 . S
C941 C943 1.392 . S
C941 H951 0.931 . S
C942 C938 1.393 . S
C942 C943 1.401 . S
C942 H952 0.930 . S
C943 C941 1.392 . S
C943 C942 1.401 . S
C943 H953 0.930 . S
C944 O922 1.262 . S
C944 O923 1.260 . S
C945 Tb881 2.833 . S
C945 O920 1.251 . S
C945 O925 1.256 . S
C945 C938 1.500 . S
H946 C929 0.930 . S
H947 C930 0.931 . S
H948 C931 0.930 . S
H949 C932 0.930 . S
H950 C939 0.930 . S
H951 C941 0.931 . S
H952 C942 0.930 . S
H953 C943 0.930 . S
H954 C962 0.950 . S
H955 C967 0.950 . S
H956 C964 0.950 . S
H957 C966 0.950 . S
H958 C968 0.950 1_556 S
H959 C970 0.950 . S
H960 C972 0.950 . S
H961 C973 0.950 . S
C962 H954 0.950 . S
C962 C963 1.386 . S
C962 C964 1.391 . S
C963 C962 1.386 . S
C963 C967 1.393 . S
C964 H956 0.950 . S
C964 C962 1.391 . S
C964 C965 1.400 . S
C965 C964 1.400 . S
C965 C966 1.398 . S
C965 C971 1.491 . S
C966 H957 0.950 . S
C966 C965 1.398 . S
C966 C967 1.391 . S
C967 H955 0.950 . S
C967 C963 1.393 . S
C967 C966 1.391 . S
C968 H958 0.950 1_554 S
C968 C969 1.386 . S
C968 C970 1.391 . S
C969 C968 1.386 . S
C969 C973 1.393 . S
C970 H959 0.950 . S
C970 C968 1.391 . S
C970 C971 1.400 . S
C971 C965 1.491 . S
C971 C970 1.400 . S
C971 C972 1.398 . S
C972 H960 0.950 . S
C972 C971 1.398 . S
C972 C973 1.391 . S
C973 H961 0.950 . S
C973 C969 1.393 . S
C973 C972 1.391 . S
H974 C982 0.950 . S
H975 C987 0.950 . S
H976 C984 0.950 . S
H977 C986 0.950 . S
H978 C988 0.950 . S
H979 C990 0.950 . S
H980 C992 0.950 . S
H981 C993 0.950 . S
C982 H974 0.950 . S
C982 C983 1.386 . S
C982 C984 1.391 . S
C983 C982 1.386 . S
C983 C987 1.393 . S
C984 H976 0.950 . S
C984 C982 1.391 . S
C984 C985 1.400 . S
C985 C984 1.400 . S
C985 C986 1.398 . S
C985 C991 1.491 . S
C986 H977 0.950 . S
C986 C985 1.398 . S
C986 C987 1.391 . S
C987 H975 0.950 . S
C987 C983 1.393 . S
C987 C986 1.391 . S
C988 H978 0.950 . S
C988 C989 1.386 . S
C988 C990 1.391 . S
C989 C988 1.386 . S
C989 C993 1.393 . S
C990 H979 0.950 . S
C990 C988 1.391 . S
C990 C991 1.400 . S
C991 C985 1.491 . S
C991 C990 1.400 . S
C991 C992 1.398 . S
C992 H980 0.950 . S
C992 C991 1.398 . S
C992 C993 1.391 . S
C993 H981 0.950 . S
C993 C989 1.393 . S
C993 C992 1.391 . S
H994 C1002 0.950 . S
H995 C1007 0.950 . S
H996 C1004 0.950 . S
H997 C1006 0.950 . S
H998 C1008 0.950 1_556 S
H999 C1010 0.950 . S
H1000 C1012 0.950 . S
H1001 C1013 0.950 . S
C1002 H994 0.950 . S
C1002 C1003 1.386 . S
C1002 C1004 1.391 . S
C1003 C1002 1.386 . S
C1003 C1007 1.393 . S
C1004 H996 0.950 . S
C1004 C1002 1.391 . S
C1004 C1005 1.400 . S
C1005 C1004 1.400 . S
C1005 C1006 1.398 . S
C1005 C1011 1.491 . S
C1006 H997 0.950 . S
C1006 C1005 1.398 . S
C1006 C1007 1.391 . S
C1007 H995 0.950 . S
C1007 C1003 1.393 . S
C1007 C1006 1.391 . S
C1008 H998 0.950 1_554 S
C1008 C1009 1.386 . S
C1008 C1010 1.391 . S
C1009 C1008 1.386 . S
C1009 C1013 1.393 . S
C1010 H999 0.950 . S
C1010 C1008 1.391 . S
C1010 C1011 1.400 . S
C1011 C1005 1.491 . S
C1011 C1010 1.400 . S
C1011 C1012 1.398 . S
C1012 H1000 0.950 . S
C1012 C1011 1.398 . S
C1012 C1013 1.391 . S
C1013 H1001 0.950 . S
C1013 C1009 1.393 . S
C1013 C1012 1.391 . S
H1014 C1022 0.950 . S
H1015 C1027 0.950 . S
H1016 C1024 0.950 . S
H1017 C1026 0.950 . S
H1018 C1028 0.950 . S
H1019 C1030 0.950 . S
H1020 C1032 0.950 . S
H1021 C1033 0.960 . S
C1022 H1014 0.950 . S
C1022 C1023 1.386 . S
C1022 C1024 1.391 . S
C1023 C1022 1.386 . S
C1023 C1027 1.393 . S
C1024 H1016 0.950 . S
C1024 C1022 1.391 . S
C1024 C1025 1.400 . S
C1025 C1024 1.400 . S
C1025 C1026 1.398 . S
C1025 C1031 1.491 . S
C1026 H1017 0.950 . S
C1026 C1025 1.398 . S
C1026 C1027 1.391 . S
C1027 H1015 0.950 . S
C1027 C1023 1.393 . S
C1027 C1026 1.391 . S
C1028 H1018 0.950 . S
C1028 C1029 1.386 . S
C1028 C1030 1.391 . S
C1029 C1028 1.386 . S
C1029 C1033 1.387 1_556 S
C1030 H1019 0.950 . S
C1030 C1028 1.391 . S
C1030 C1031 1.400 . S
C1031 C1025 1.491 . S
C1031 C1030 1.400 . S
C1031 C1032 1.398 . S
C1032 H1020 0.950 . S
C1032 C1031 1.398 . S
C1032 C1033 1.387 1_556 S
C1033 H1021 0.960 . S
C1033 C1029 1.387 1_554 S
C1033 C1032 1.387 1_554 S
H1034 C1042 0.950 . S
H1035 C1047 0.950 . S
H1036 C1044 0.964 . S
H1037 C1046 0.950 . S
H1038 C1048 0.950 . S
H1039 C1050 0.950 . S
H1040 C1052 0.950 1_554 S
H1041 C1053 0.950 . S
C1042 H1034 0.950 . S
C1042 C1043 1.386 . S
C1042 C1044 1.391 . S
C1043 C1042 1.386 . S
C1043 C1047 1.393 . S
C1044 H1036 0.964 . S
C1044 C1042 1.391 . S
C1044 C1045 1.400 . S
C1045 C1044 1.400 . S
C1045 C1046 1.398 . S
C1045 C1051 1.491 . S
C1046 H1037 0.950 . S
C1046 C1045 1.398 . S
C1046 C1047 1.391 . S
C1047 H1035 0.950 . S
C1047 C1043 1.393 . S
C1047 C1046 1.391 . S
C1048 H1038 0.950 . S
C1048 C1049 1.386 . S
C1048 C1050 1.391 . S
C1049 C1048 1.386 . S
C1049 C1053 1.393 1_556 S
C1050 H1039 0.950 . S
C1050 C1048 1.391 . S
C1050 C1051 1.400 . S
C1051 C1045 1.491 . S
C1051 C1050 1.400 . S
C1051 C1052 1.398 . S
C1052 H1040 0.950 1_556 S
C1052 C1051 1.398 . S
C1052 C1053 1.391 1_556 S
C1053 H1041 0.950 . S
C1053 C1049 1.393 1_554 S
C1053 C1052 1.391 1_554 S
H1054 C1062 0.950 . S
H1055 C1067 0.950 . S
H1056 C1064 0.915 1_554 S
H1057 C1066 0.950 . S
H1058 C1068 0.950 . S
H1059 C1070 0.950 . S
H1060 C1072 0.945 1_554 S
H1061 C1073 0.950 . S
C1062 H1054 0.950 . S
C1062 C1063 1.386 . S
C1062 C1064 1.391 . S
C1063 C1062 1.386 . S
C1063 C1067 1.393 . S
C1064 H1056 0.915 1_556 S
C1064 C1062 1.391 . S
C1064 C1065 1.400 . S
C1065 C1064 1.400 . S
C1065 C1066 1.398 . S
C1065 C1071 1.491 . S
C1066 H1057 0.950 . S
C1066 C1065 1.398 . S
C1066 C1067 1.391 . S
C1067 H1055 0.950 . S
C1067 C1063 1.393 . S
C1067 C1066 1.391 . S
C1068 H1058 0.950 . S
C1068 C1069 1.386 . S
C1068 C1070 1.391 . S
C1069 C1068 1.386 . S
C1069 C1073 1.393 1_556 S
C1070 H1059 0.950 . S
C1070 C1068 1.391 . S
C1070 C1071 1.400 . S
C1071 C1065 1.491 . S
C1071 C1070 1.400 . S
C1071 C1072 1.408 . S
C1072 H1060 0.945 1_556 S
C1072 C1071 1.408 . S
C1072 C1073 1.386 1_556 S
C1073 H1061 0.950 . S
C1073 C1069 1.393 1_554 S
C1073 C1072 1.386 1_554 S
H1074 C1082 0.950 . S
H1075 C1087 0.950 . S
H1076 C1084 0.950 . S
H1077 C1086 0.950 . S
H1078 C1088 0.950 . S
H1079 C1090 0.950 . S
H1080 C1092 0.950 . S
H1081 C1093 0.923 1_554 S
C1082 H1074 0.950 . S
C1082 C1083 1.386 . S
C1082 C1084 1.391 . S
C1083 C1082 1.386 . S
C1083 C1087 1.393 . S
C1084 H1076 0.950 . S
C1084 C1082 1.391 . S
C1084 C1085 1.400 . S
C1085 C1084 1.400 . S
C1085 C1086 1.398 . S
C1085 C1091 1.491 . S
C1086 H1077 0.950 . S
C1086 C1085 1.398 . S
C1086 C1087 1.391 . S
C1087 H1075 0.950 . S
C1087 C1083 1.393 . S
C1087 C1086 1.391 . S
C1088 H1078 0.950 . S
C1088 C1089 1.386 . S
C1088 C1090 1.391 . S
C1089 C1088 1.386 . S
C1089 C1093 1.406 . S
C1090 H1079 0.950 . S
C1090 C1088 1.391 . S
C1090 C1091 1.400 . S
C1091 C1085 1.491 . S
C1091 C1090 1.400 . S
C1091 C1092 1.398 . S
C1092 H1080 0.950 . S
C1092 C1091 1.398 . S
C1092 C1093 1.405 . S
C1093 H1081 0.923 1_556 S
C1093 C1089 1.406 . S
C1093 C1092 1.405 . S
H1094 C1102 0.950 . S
H1095 C1107 0.950 . S
H1096 C1104 0.950 . S
H1097 C1106 0.950 . S
H1098 C1108 0.950 . S
H1099 C1110 0.950 . S
H1100 C1112 0.950 . S
H1101 C1113 0.950 . S
C1102 H1094 0.950 . S
C1102 C1103 1.386 . S
C1102 C1104 1.391 . S
C1103 C1102 1.386 . S
C1103 C1107 1.393 . S
C1104 H1096 0.950 . S
C1104 C1102 1.391 . S
C1104 C1105 1.400 . S
C1105 C1104 1.400 . S
C1105 C1106 1.398 . S
C1105 C1111 1.491 . S
C1106 H1097 0.950 . S
C1106 C1105 1.398 . S
C1106 C1107 1.391 . S
C1107 H1095 0.950 . S
C1107 C1103 1.393 . S
C1107 C1106 1.391 . S
C1108 H1098 0.950 . S
C1108 C1109 1.386 . S
C1108 C1110 1.391 . S
C1109 C1108 1.386 . S
C1109 C1113 1.393 . S
C1110 H1099 0.950 . S
C1110 C1108 1.391 . S
C1110 C1111 1.400 . S
C1111 C1105 1.491 . S
C1111 C1110 1.400 . S
C1111 C1112 1.398 . S
C1112 H1100 0.950 . S
C1112 C1111 1.398 . S
C1112 C1113 1.391 . S
C1113 H1101 0.950 . S
C1113 C1109 1.393 . S
C1113 C1112 1.391 . S
H1114 C1122 0.950 . S
H1115 C1127 0.950 . S
H1116 C1124 0.950 1_554 S
H1117 C1126 0.950 . S
H1118 C1128 0.950 . S
H1119 C1130 0.950 . S
H1120 C1132 0.950 1_554 S
H1121 C1133 0.950 . S
C1122 H1114 0.950 . S
C1122 C1123 1.386 . S
C1122 C1124 1.391 . S
C1123 C1122 1.386 . S
C1123 C1127 1.393 . S
C1124 H1116 0.950 1_556 S
C1124 C1122 1.391 . S
C1124 C1125 1.400 . S
C1125 C1124 1.400 . S
C1125 C1126 1.398 . S
C1125 C1131 1.491 . S
C1126 H1117 0.950 . S
C1126 C1125 1.398 . S
C1126 C1127 1.391 . S
C1127 H1115 0.950 . S
C1127 C1123 1.393 . S
C1127 C1126 1.391 . S
C1128 H1118 0.950 . S
C1128 C1129 1.386 . S
C1128 C1130 1.391 . S
C1129 C1128 1.386 . S
C1129 C1133 1.393 1_556 S
C1130 H1119 0.950 . S
C1130 C1128 1.391 . S
C1130 C1131 1.400 . S
C1131 C1125 1.491 . S
C1131 C1130 1.400 . S
C1131 C1132 1.398 . S
C1132 H1120 0.950 1_556 S
C1132 C1131 1.398 . S
C1132 C1133 1.391 1_556 S
C1133 H1121 0.950 . S
C1133 C1129 1.393 1_554 S
C1133 C1132 1.391 1_554 S
H1134 C1142 0.950 . S
H1135 C1147 0.950 . S
H1136 C1144 0.950 . S
H1137 C1146 0.950 . S
H1138 C1148 0.950 . S
H1139 C1150 0.950 . S
H1140 C1152 0.950 . S
H1141 C1153 0.950 . S
C1142 H1134 0.950 . S
C1142 C1143 1.386 . S
C1142 C1144 1.391 . S
C1143 C1142 1.386 . S
C1143 C1147 1.393 . S
C1144 H1136 0.950 . S
C1144 C1142 1.391 . S
C1144 C1145 1.400 . S
C1145 C1144 1.400 . S
C1145 C1146 1.398 . S
C1145 C1151 1.491 . S
C1146 H1137 0.950 . S
C1146 C1145 1.398 . S
C1146 C1147 1.391 . S
C1147 H1135 0.950 . S
C1147 C1143 1.393 . S
C1147 C1146 1.391 . S
C1148 H1138 0.950 . S
C1148 C1149 1.386 . S
C1148 C1150 1.391 . S
C1149 C1148 1.386 . S
C1149 C1153 1.393 . S
C1150 H1139 0.950 . S
C1150 C1148 1.391 . S
C1150 C1151 1.400 . S
C1151 C1145 1.491 . S
C1151 C1150 1.400 . S
C1151 C1152 1.398 . S
C1152 H1140 0.950 . S
C1152 C1151 1.398 . S
C1152 C1153 1.391 . S
C1153 H1141 0.950 . S
C1153 C1149 1.393 . S
C1153 C1152 1.391 . S
H1154 C1162 0.950 . S
H1155 C1167 0.950 . S
H1156 C1164 0.950 . S
H1157 C1166 0.950 . S
H1158 C1168 0.950 . S
H1159 C1170 0.950 . S
H1160 C1172 0.924 1_556 S
H1161 C1173 0.950 1_556 S
C1162 H1154 0.950 . S
C1162 C1163 1.386 . S
C1162 C1164 1.391 . S
C1163 C1162 1.386 . S
C1163 C1167 1.393 . S
C1164 H1156 0.950 . S
C1164 C1162 1.391 . S
C1164 C1165 1.400 . S
C1165 C1164 1.400 . S
C1165 C1166 1.398 . S
C1165 C1171 1.491 . S
C1166 H1157 0.950 . S
C1166 C1165 1.398 . S
C1166 C1167 1.391 . S
C1167 H1155 0.950 . S
C1167 C1163 1.393 . S
C1167 C1166 1.391 . S
C1168 H1158 0.950 . S
C1168 C1169 1.386 . S
C1168 C1170 1.391 . S
C1169 C1168 1.386 . S
C1169 C1173 1.393 . S
C1170 H1159 0.950 . S
C1170 C1168 1.391 . S
C1170 C1171 1.400 . S
C1171 C1165 1.491 . S
C1171 C1170 1.400 . S
C1171 C1172 1.398 . S
C1172 H1160 0.924 1_554 S
C1172 C1171 1.398 . S
C1172 C1173 1.391 . S
C1173 H1161 0.950 1_554 S
C1173 C1169 1.393 . S
C1173 C1172 1.391 . S
H1174 C1182 0.950 . S
H1175 C1187 0.950 . S
H1176 C1184 0.950 . S
H1177 C1186 0.950 . S
H1178 C1188 0.950 . S
H1179 C1190 0.950 . S
H1180 C1192 0.950 . S
H1181 C1193 0.950 . S
C1182 H1174 0.950 . S
C1182 C1183 1.386 . S
C1182 C1184 1.391 . S
C1183 C1182 1.386 . S
C1183 C1187 1.393 . S
C1184 H1176 0.950 . S
C1184 C1182 1.391 . S
C1184 C1185 1.400 . S
C1185 C1184 1.400 . S
C1185 C1186 1.398 . S
C1185 C1191 1.491 . S
C1186 H1177 0.950 . S
C1186 C1185 1.398 . S
C1186 C1187 1.391 . S
C1187 H1175 0.950 . S
C1187 C1183 1.393 . S
C1187 C1186 1.391 . S
C1188 H1178 0.950 . S
C1188 C1189 1.386 . S
C1188 C1190 1.391 . S
C1189 C1188 1.386 . S
C1189 C1193 1.393 . S
C1190 H1179 0.950 . S
C1190 C1188 1.391 . S
C1190 C1191 1.400 . S
C1191 C1185 1.491 . S
C1191 C1190 1.400 . S
C1191 C1192 1.398 . S
C1192 H1180 0.950 . S
C1192 C1191 1.398 . S
C1192 C1193 1.391 . S
C1193 H1181 0.950 . S
C1193 C1189 1.393 . S
C1193 C1192 1.391 . S
H1194 C1202 0.950 1_655 S
H1195 C1207 0.950 . S
H1196 C1204 0.950 . S
H1197 C1206 0.950 . S
H1198 C1208 0.950 . S
H1199 C1210 0.950 . S
H1200 C1212 0.950 . S
H1201 C1213 0.950 . S
C1202 H1194 0.950 1_455 S
C1202 C1203 1.386 1_455 S
C1202 C1204 1.391 . S
C1203 C1202 1.386 1_655 S
C1203 C1207 1.393 . S
C1204 H1196 0.950 . S
C1204 C1202 1.391 . S
C1204 C1205 1.400 . S
C1205 C1204 1.400 . S
C1205 C1206 1.398 . S
C1205 C1211 1.491 . S
C1206 H1197 0.950 . S
C1206 C1205 1.398 . S
C1206 C1207 1.391 1_455 S
C1207 H1195 0.950 . S
C1207 C1203 1.393 . S
C1207 C1206 1.391 1_655 S
C1208 H1198 0.950 . S
C1208 C1209 1.386 . S
C1208 C1210 1.391 . S
C1209 C1208 1.386 . S
C1209 C1213 1.393 . S
C1210 H1199 0.950 . S
C1210 C1208 1.391 . S
C1210 C1211 1.400 . S
C1211 C1205 1.491 . S
C1211 C1210 1.400 . S
C1211 C1212 1.398 . S
C1212 H1200 0.950 . S
C1212 C1211 1.398 . S
C1212 C1213 1.391 . S
C1213 H1201 0.950 . S
C1213 C1209 1.393 . S
C1213 C1212 1.391 . S
H1214 C1222 0.950 . S
H1215 C1227 0.950 . S
H1216 C1224 0.950 . S
H1217 C1226 0.950 . S
H1218 C1228 0.950 . S
H1219 C1230 0.950 . S
H1220 C1232 0.950 . S
H1221 C1233 0.950 . S
C1222 H1214 0.950 . S
C1222 C1223 1.386 . S
C1222 C1224 1.391 . S
C1223 C1222 1.386 . S
C1223 C1227 1.393 . S
C1224 H1216 0.950 . S
C1224 C1222 1.391 . S
C1224 C1225 1.400 . S
C1225 C1224 1.400 . S
C1225 C1226 1.398 . S
C1225 C1231 1.491 . S
C1226 H1217 0.950 . S
C1226 C1225 1.398 . S
C1226 C1227 1.391 . S
C1227 H1215 0.950 . S
C1227 C1223 1.393 . S
C1227 C1226 1.391 . S
C1228 H1218 0.950 . S
C1228 C1229 1.386 . S
C1228 C1230 1.391 . S
C1229 C1228 1.386 . S
C1229 C1233 1.393 . S
C1230 H1219 0.950 . S
C1230 C1228 1.391 . S
C1230 C1231 1.400 . S
C1231 C1225 1.491 . S
C1231 C1230 1.400 . S
C1231 C1232 1.398 . S
C1232 H1220 0.950 . S
C1232 C1231 1.398 . S
C1232 C1233 1.391 . S
C1233 H1221 0.950 . S
C1233 C1229 1.393 . S
C1233 C1232 1.391 . S
H1234 C1242 0.950 . S
H1235 C1247 0.950 . S
H1236 C1244 0.950 . S
H1237 C1246 0.950 . S
H1238 C1248 0.950 . S
H1239 C1250 0.950 . S
H1240 C1252 0.950 . S
H1241 C1253 0.950 . S
C1242 H1234 0.950 . S
C1242 C1243 1.386 . S
C1242 C1244 1.391 . S
C1243 C1242 1.386 . S
C1243 C1247 1.393 . S
C1244 H1236 0.950 . S
C1244 C1242 1.391 . S
C1244 C1245 1.400 1_545 S
C1245 C1244 1.400 1_565 S
C1245 C1246 1.398 . S
C1245 C1251 1.491 . S
C1246 H1237 0.950 . S
C1246 C1245 1.398 . S
C1246 C1247 1.391 1_565 S
C1247 H1235 0.950 . S
C1247 C1243 1.393 . S
C1247 C1246 1.391 1_545 S
C1248 H1238 0.950 . S
C1248 C1249 1.386 . S
C1248 C1250 1.391 . S
C1249 C1248 1.386 . S
C1249 C1253 1.393 . S
C1250 H1239 0.950 . S
C1250 C1248 1.391 . S
C1250 C1251 1.400 . S
C1251 C1245 1.491 . S
C1251 C1250 1.400 . S
C1251 C1252 1.398 . S
C1252 H1240 0.950 . S
C1252 C1251 1.398 . S
C1252 C1253 1.391 . S
C1253 H1241 0.950 . S
C1253 C1249 1.393 . S
C1253 C1252 1.391 . S
H1254 C1262 0.950 . S
H1255 C1267 0.950 . S
H1256 C1264 0.950 . S
H1257 C1266 0.950 . S
H1258 C1268 0.950 . S
H1259 C1270 0.950 . S
H1260 C1272 0.950 . S
H1261 C1273 0.950 . S
C1262 H1254 0.950 . S
C1262 C1263 1.386 . S
C1262 C1264 1.391 . S
C1263 C1262 1.386 . S
C1263 C1267 1.393 . S
C1264 H1256 0.950 . S
C1264 C1262 1.391 . S
C1264 C1265 1.400 . S
C1265 C1264 1.400 . S
C1265 C1266 1.398 . S
C1265 C1271 1.491 . S
C1266 H1257 0.950 . S
C1266 C1265 1.398 . S
C1266 C1267 1.391 . S
C1267 H1255 0.950 . S
C1267 C1263 1.393 . S
C1267 C1266 1.391 . S
C1268 H1258 0.950 . S
C1268 C1269 1.386 . S
C1268 C1270 1.391 . S
C1269 C1268 1.386 . S
C1269 C1273 1.393 . S
C1270 H1259 0.950 . S
C1270 C1268 1.391 . S
C1270 C1271 1.400 . S
C1271 C1265 1.491 . S
C1271 C1270 1.400 . S
C1271 C1272 1.398 . S
C1272 H1260 0.950 . S
C1272 C1271 1.398 . S
C1272 C1273 1.391 . S
C1273 H1261 0.950 . S
C1273 C1269 1.393 . S
C1273 C1272 1.391 . S
H1274 C1282 0.950 . S
H1275 C1287 0.950 . S
H1276 C1284 0.950 . S
H1277 C1286 0.950 . S
H1278 C1288 0.950 . S
H1279 C1290 0.950 . S
H1280 C1292 0.950 . S
H1281 C1293 0.950 . S
C1282 H1274 0.950 . S
C1282 C1283 1.386 . S
C1282 C1284 1.391 . S
C1283 C1282 1.386 . S
C1283 C1287 1.393 . S
C1284 H1276 0.950 . S
C1284 C1282 1.391 . S
C1284 C1285 1.400 . S
C1285 C1284 1.400 . S
C1285 C1286 1.398 . S
C1285 C1291 1.491 . S
C1286 H1277 0.950 . S
C1286 C1285 1.398 . S
C1286 C1287 1.391 . S
C1287 H1275 0.950 . S
C1287 C1283 1.393 . S
C1287 C1286 1.391 . S
C1288 H1278 0.950 . S
C1288 C1289 1.386 . S
C1288 C1290 1.391 . S
C1289 C1288 1.386 . S
C1289 C1293 1.393 . S
C1290 H1279 0.950 . S
C1290 C1288 1.391 . S
C1290 C1291 1.400 . S
C1291 C1285 1.491 . S
C1291 C1290 1.400 . S
C1291 C1292 1.398 . S
C1292 H1280 0.950 . S
C1292 C1291 1.398 . S
C1292 C1293 1.391 . S
C1293 H1281 0.950 . S
C1293 C1289 1.393 . S
C1293 C1292 1.391 . S
H1294 C1302 0.950 . S
H1295 C1307 0.950 . S
H1296 C1304 0.950 . S
H1297 C1306 0.950 . S
H1298 C1308 0.950 . S
H1299 C1310 0.950 . S
H1300 C1312 0.950 . S
H1301 C1313 0.950 . S
C1302 H1294 0.950 . S
C1302 C1303 1.386 . S
C1302 C1304 1.391 . S
C1303 C1302 1.386 . S
C1303 C1307 1.393 . S
C1304 H1296 0.950 . S
C1304 C1302 1.391 . S
C1304 C1305 1.400 . S
C1305 C1304 1.400 . S
C1305 C1306 1.398 . S
C1305 C1311 1.491 . S
C1306 H1297 0.950 . S
C1306 C1305 1.398 . S
C1306 C1307 1.391 . S
C1307 H1295 0.950 . S
C1307 C1303 1.393 . S
C1307 C1306 1.391 . S
C1308 H1298 0.950 . S
C1308 C1309 1.386 . S
C1308 C1310 1.391 . S
C1309 C1308 1.386 . S
C1309 C1313 1.393 . S
C1310 H1299 0.950 . S
C1310 C1308 1.391 . S
C1310 C1311 1.400 . S
C1311 C1305 1.491 . S
C1311 C1310 1.400 . S
C1311 C1312 1.398 . S
C1312 H1300 0.950 . S
C1312 C1311 1.398 . S
C1312 C1313 1.391 . S
C1313 H1301 0.950 . S
C1313 C1309 1.393 . S
C1313 C1312 1.391 . S
H1314 C1322 0.950 . S
H1315 C1327 0.950 . S
H1316 C1324 0.950 . S
H1317 C1326 0.950 . S
H1318 C1328 0.950 . S
H1319 C1330 0.950 . S
H1320 C1332 0.950 . S
H1321 C1333 0.950 . S
C1322 H1314 0.950 . S
C1322 C1323 1.386 . S
C1322 C1324 1.391 . S
C1323 C1322 1.386 . S
C1323 C1327 1.393 . S
C1324 H1316 0.950 . S
C1324 C1322 1.391 . S
C1324 C1325 1.400 . S
C1325 C1324 1.400 . S
C1325 C1326 1.398 . S
C1325 C1331 1.491 . S
C1326 H1317 0.950 . S
C1326 C1325 1.398 . S
C1326 C1327 1.391 . S
C1327 H1315 0.950 . S
C1327 C1323 1.393 . S
C1327 C1326 1.391 . S
C1328 H1318 0.950 . S
C1328 C1329 1.386 . S
C1328 C1330 1.391 . S
C1329 C1328 1.386 . S
C1329 C1333 1.393 . S
C1330 H1319 0.950 . S
C1330 C1328 1.391 . S
C1330 C1331 1.400 . S
C1331 C1325 1.491 . S
C1331 C1330 1.400 . S
C1331 C1332 1.398 . S
C1332 H1320 0.950 . S
C1332 C1331 1.398 . S
C1332 C1333 1.391 . S
C1333 H1321 0.950 . S
C1333 C1329 1.393 . S
C1333 C1332 1.391 . S
H1334 C1342 0.950 . S
H1335 C1347 0.950 . S
H1336 C1344 0.950 . S
H1337 C1346 0.950 . S
H1338 C1348 0.950 . S
H1339 C1350 0.950 . S
H1340 C1352 0.950 . S
H1341 C1353 0.950 . S
C1342 H1334 0.950 . S
C1342 C1343 1.386 . S
C1342 C1344 1.391 . S
C1343 C1342 1.386 . S
C1343 C1347 1.393 . S
C1344 H1336 0.950 . S
C1344 C1342 1.391 . S
C1344 C1345 1.400 . S
C1345 C1344 1.400 . S
C1345 C1346 1.398 . S
C1345 C1351 1.491 . S
C1346 H1337 0.950 . S
C1346 C1345 1.398 . S
C1346 C1347 1.391 . S
C1347 H1335 0.950 . S
C1347 C1343 1.393 . S
C1347 C1346 1.391 . S
C1348 H1338 0.950 . S
C1348 C1349 1.386 . S
C1348 C1350 1.391 . S
C1349 C1348 1.386 . S
C1349 C1353 1.393 . S
C1350 H1339 0.950 . S
C1350 C1348 1.391 . S
C1350 C1351 1.400 . S
C1351 C1345 1.491 . S
C1351 C1350 1.400 . S
C1351 C1352 1.398 . S
C1352 H1340 0.950 . S
C1352 C1351 1.398 . S
C1352 C1353 1.391 . S
C1353 H1341 0.950 . S
C1353 C1349 1.393 . S
C1353 C1352 1.391 . S
H1354 C1362 0.950 . S
H1355 C1367 0.950 . S
H1356 C1364 0.950 . S
H1357 C1366 0.950 . S
H1358 C1368 0.950 . S
H1359 C1370 0.950 . S
H1360 C1372 0.950 . S
H1361 C1373 0.950 . S
C1362 H1354 0.950 . S
C1362 C1363 1.386 . S
C1362 C1364 1.391 . S
C1363 C1362 1.386 . S
C1363 C1367 1.393 . S
C1364 H1356 0.950 . S
C1364 C1362 1.391 . S
C1364 C1365 1.400 . S
C1365 C1364 1.400 . S
C1365 C1366 1.398 . S
C1365 C1371 1.491 . S
C1366 H1357 0.950 . S
C1366 C1365 1.398 . S
C1366 C1367 1.391 . S
C1367 H1355 0.950 . S
C1367 C1363 1.393 . S
C1367 C1366 1.391 . S
C1368 H1358 0.950 . S
C1368 C1369 1.386 . S
C1368 C1370 1.391 . S
C1369 C1368 1.386 . S
C1369 C1373 1.393 . S
C1370 H1359 0.950 . S
C1370 C1368 1.391 . S
C1370 C1371 1.400 . S
C1371 C1365 1.491 . S
C1371 C1370 1.400 . S
C1371 C1372 1.398 . S
C1372 H1360 0.950 . S
C1372 C1371 1.398 . S
C1372 C1373 1.391 . S
C1373 H1361 0.950 . S
C1373 C1369 1.393 . S
C1373 C1372 1.391 . S
H1374 C1382 0.950 . S
H1375 C1387 0.950 . S
H1376 C1384 0.950 . S
H1377 C1386 0.950 . S
H1378 C1388 0.950 . S
H1379 C1390 0.950 . S
H1380 C1392 0.950 . S
H1381 C1393 0.950 . S
C1382 H1374 0.950 . S
C1382 C1383 1.386 . S
C1382 C1384 1.391 1_545 S
C1383 C1382 1.386 . S
C1383 C1387 1.393 . S
C1384 H1376 0.950 . S
C1384 C1382 1.391 1_565 S
C1384 C1385 1.400 . S
C1385 C1384 1.400 . S
C1385 C1386 1.398 . S
C1385 C1391 1.491 . S
C1386 H1377 0.950 . S
C1386 C1385 1.398 . S
C1386 C1387 1.391 1_565 S
C1387 H1375 0.950 . S
C1387 C1383 1.393 . S
C1387 C1386 1.391 1_545 S
C1388 H1378 0.950 . S
C1388 C1389 1.386 . S
C1388 C1390 1.391 . S
C1389 C1388 1.386 . S
C1389 C1393 1.393 . S
C1390 H1379 0.950 . S
C1390 C1388 1.391 . S
C1390 C1391 1.400 . S
C1391 C1385 1.491 . S
C1391 C1390 1.400 . S
C1391 C1392 1.398 . S
C1392 H1380 0.950 . S
C1392 C1391 1.398 . S
C1392 C1393 1.391 . S
C1393 H1381 0.950 . S
C1393 C1389 1.393 . S
C1393 C1392 1.391 . S
H1394 C1402 0.950 . S
H1395 C1407 0.950 . S
H1396 C1404 0.950 . S
H1397 C1406 0.950 . S
H1398 C1408 0.950 . S
H1399 C1410 0.950 . S
H1400 C1412 0.950 . S
H1401 C1413 0.950 . S
C1402 H1394 0.950 . S
C1402 C1403 1.386 . S
C1402 C1404 1.391 1_655 S
C1403 C1402 1.386 . S
C1403 C1407 1.393 . S
C1404 H1396 0.950 . S
C1404 C1402 1.391 1_455 S
C1404 C1405 1.400 . S
C1405 C1404 1.400 . S
C1405 C1406 1.398 . S
C1405 C1411 1.491 . S
C1406 H1397 0.950 . S
C1406 C1405 1.398 . S
C1406 C1407 1.391 1_455 S
C1407 H1395 0.950 . S
C1407 C1403 1.393 . S
C1407 C1406 1.391 1_655 S
C1408 H1398 0.950 . S
C1408 C1409 1.386 . S
C1408 C1410 1.391 . S
C1409 C1408 1.386 . S
C1409 C1413 1.393 . S
C1410 H1399 0.950 . S
C1410 C1408 1.391 . S
C1410 C1411 1.400 . S
C1411 C1405 1.491 . S
C1411 C1410 1.400 . S
C1411 C1412 1.398 . S
C1412 H1400 0.950 . S
C1412 C1411 1.398 . S
C1412 C1413 1.391 . S
C1413 H1401 0.950 . S
C1413 C1409 1.393 . S
C1413 C1412 1.391 . S
H1414 C1422 0.950 . S
H1415 C1427 0.950 . S
H1416 C1424 0.950 . S
H1417 C1426 0.950 . S
H1418 C1428 0.950 . S
H1419 C1430 0.950 . S
H1420 C1432 0.950 . S
H1421 C1433 0.950 . S
C1422 H1414 0.950 . S
C1422 C1423 1.386 . S
C1422 C1424 1.391 . S
C1423 C1422 1.386 . S
C1423 C1427 1.393 . S
C1424 H1416 0.950 . S
C1424 C1422 1.391 . S
C1424 C1425 1.400 . S
C1425 C1424 1.400 . S
C1425 C1426 1.398 . S
C1425 C1431 1.491 . S
C1426 H1417 0.950 . S
C1426 C1425 1.398 . S
C1426 C1427 1.391 . S
C1427 H1415 0.950 . S
C1427 C1423 1.393 . S
C1427 C1426 1.391 . S
C1428 H1418 0.950 . S
C1428 C1429 1.386 . S
C1428 C1430 1.391 . S
C1429 C1428 1.386 . S
C1429 C1433 1.393 . S
C1430 H1419 0.950 . S
C1430 C1428 1.391 . S
C1430 C1431 1.400 . S
C1431 C1425 1.491 . S
C1431 C1430 1.400 . S
C1431 C1432 1.398 . S
C1432 H1420 0.950 . S
C1432 C1431 1.398 . S
C1432 C1433 1.391 . S
C1433 H1421 0.950 . S
C1433 C1429 1.393 . S
C1433 C1432 1.391 . S
H1434 C1442 0.950 . S
H1435 C1447 0.950 . S
H1436 C1444 0.950 . S
H1437 C1446 0.950 . S
H1438 C1448 0.950 . S
H1439 C1450 0.950 . S
H1440 C1452 0.950 . S
H1441 C1453 0.950 . S
C1442 H1434 0.950 . S
C1442 C1443 1.386 . S
C1442 C1444 1.391 . S
C1443 C1442 1.386 . S
C1443 C1447 1.393 . S
C1444 H1436 0.950 . S
C1444 C1442 1.391 . S
C1444 C1445 1.400 . S
C1445 C1444 1.400 . S
C1445 C1446 1.398 . S
C1445 C1451 1.491 . S
C1446 H1437 0.950 . S
C1446 C1445 1.398 . S
C1446 C1447 1.391 . S
C1447 H1435 0.950 . S
C1447 C1443 1.393 . S
C1447 C1446 1.391 . S
C1448 H1438 0.950 . S
C1448 C1449 1.386 . S
C1448 C1450 1.391 . S
C1449 C1448 1.386 . S
C1449 C1453 1.393 . S
C1450 H1439 0.950 . S
C1450 C1448 1.391 . S
C1450 C1451 1.400 . S
C1451 C1445 1.491 . S
C1451 C1450 1.400 . S
C1451 C1452 1.398 . S
C1452 H1440 0.950 . S
C1452 C1451 1.398 . S
C1452 C1453 1.391 . S
C1453 H1441 0.950 . S
C1453 C1449 1.393 . S
C1453 C1452 1.391 . S
H1454 C1462 0.950 . S
H1455 C1467 0.950 . S
H1456 C1464 0.950 . S
H1457 C1466 0.950 . S
H1458 C1468 0.950 . S
H1459 C1470 0.950 . S
H1460 C1472 0.950 . S
H1461 C1473 0.950 . S
C1462 H1454 0.950 . S
C1462 C1463 1.386 . S
C1462 C1464 1.391 . S
C1463 C1462 1.386 . S
C1463 C1467 1.393 . S
C1464 H1456 0.950 . S
C1464 C1462 1.391 . S
C1464 C1465 1.400 . S
C1465 C1464 1.400 . S
C1465 C1466 1.398 . S
C1465 C1471 1.491 . S
C1466 H1457 0.950 . S
C1466 C1465 1.398 . S
C1466 C1467 1.391 . S
C1467 H1455 0.950 . S
C1467 C1463 1.393 . S
C1467 C1466 1.391 . S
C1468 H1458 0.950 . S
C1468 C1469 1.386 . S
C1468 C1470 1.391 . S
C1469 C1468 1.386 . S
C1469 C1473 1.393 . S
C1470 H1459 0.950 . S
C1470 C1468 1.391 . S
C1470 C1471 1.400 . S
C1471 C1465 1.491 . S
C1471 C1470 1.400 . S
C1471 C1472 1.398 . S
C1472 H1460 0.950 . S
C1472 C1471 1.398 . S
C1472 C1473 1.391 . S
C1473 H1461 0.950 . S
C1473 C1469 1.393 . S
C1473 C1472 1.391 . S
H1474 C1482 0.950 . S
H1475 C1487 0.950 . S
H1476 C1484 0.950 . S
H1477 C1486 0.950 . S
H1478 C1488 0.950 . S
H1479 C1490 0.950 . S
H1480 C1492 0.950 . S
H1481 C1493 0.950 . S
C1482 H1474 0.950 . S
C1482 C1483 1.386 . S
C1482 C1484 1.391 . S
C1483 C1482 1.386 . S
C1483 C1487 1.393 . S
C1484 H1476 0.950 . S
C1484 C1482 1.391 . S
C1484 C1485 1.400 . S
C1485 C1484 1.400 . S
C1485 C1486 1.398 . S
C1485 C1491 1.491 . S
C1486 H1477 0.950 . S
C1486 C1485 1.398 . S
C1486 C1487 1.391 . S
C1487 H1475 0.950 . S
C1487 C1483 1.393 . S
C1487 C1486 1.391 . S
C1488 H1478 0.950 . S
C1488 C1489 1.386 . S
C1488 C1490 1.391 . S
C1489 C1488 1.386 . S
C1489 C1493 1.393 . S
C1490 H1479 0.950 . S
C1490 C1488 1.391 . S
C1490 C1491 1.400 . S
C1491 C1485 1.491 . S
C1491 C1490 1.400 . S
C1491 C1492 1.398 . S
C1492 H1480 0.950 . S
C1492 C1491 1.398 . S
C1492 C1493 1.391 . S
C1493 H1481 0.950 . S
C1493 C1489 1.393 . S
C1493 C1492 1.391 . S
H1494 C1502 0.950 . S
H1495 C1507 0.950 . S
H1496 C1504 0.950 . S
H1497 C1506 0.950 . S
H1498 C1508 0.950 . S
H1499 C1510 0.950 . S
H1500 C1512 0.950 . S
H1501 C1513 0.950 . S
C1502 H1494 0.950 . S
C1502 C1503 1.386 . S
C1502 C1504 1.391 1_565 S
C1503 C1502 1.386 . S
C1503 C1507 1.393 . S
C1504 H1496 0.950 . S
C1504 C1502 1.391 1_545 S
C1504 C1505 1.400 . S
C1505 C1504 1.400 . S
C1505 C1506 1.398 . S
C1505 C1511 1.491 . S
C1506 H1497 0.950 . S
C1506 C1505 1.398 . S
C1506 C1507 1.391 1_545 S
C1507 H1495 0.950 . S
C1507 C1503 1.393 . S
C1507 C1506 1.391 1_565 S
C1508 H1498 0.950 . S
C1508 C1509 1.386 . S
C1508 C1510 1.391 . S
C1509 C1508 1.386 . S
C1509 C1513 1.393 . S
C1510 H1499 0.950 . S
C1510 C1508 1.391 . S
C1510 C1511 1.400 . S
C1511 C1505 1.491 . S
C1511 C1510 1.400 . S
C1511 C1512 1.398 . S
C1512 H1500 0.950 . S
C1512 C1511 1.398 . S
C1512 C1513 1.391 . S
C1513 H1501 0.950 . S
C1513 C1509 1.393 . S
C1513 C1512 1.391 . S
H1514 C1522 0.950 . S
H1515 C1527 0.950 . S
H1516 C1524 0.950 . S
H1517 C1526 0.950 . S
H1518 C1528 0.950 . S
H1519 C1530 0.950 . S
H1520 C1532 0.950 . S
H1521 C1533 0.950 . S
C1522 H1514 0.950 . S
C1522 C1523 1.386 . S
C1522 C1524 1.391 1_455 S
C1523 C1522 1.386 . S
C1523 C1527 1.393 . S
C1524 H1516 0.950 . S
C1524 C1522 1.391 1_655 S
C1524 C1525 1.400 . S
C1525 C1524 1.400 . S
C1525 C1526 1.398 1_655 S
C1525 C1531 1.491 . S
C1526 H1517 0.950 . S
C1526 C1525 1.398 1_455 S
C1526 C1527 1.391 . S
C1527 H1515 0.950 . S
C1527 C1523 1.393 . S
C1527 C1526 1.391 . S
C1528 H1518 0.950 . S
C1528 C1529 1.386 . S
C1528 C1530 1.391 . S
C1529 C1528 1.386 . S
C1529 C1533 1.393 . S
C1530 H1519 0.950 . S
C1530 C1528 1.391 . S
C1530 C1531 1.400 . S
C1531 C1525 1.491 . S
C1531 C1530 1.400 . S
C1531 C1532 1.398 . S
C1532 H1520 0.950 . S
C1532 C1531 1.398 . S
C1532 C1533 1.391 . S
C1533 H1521 0.950 . S
C1533 C1529 1.393 . S
C1533 C1532 1.391 . S
H1534 C1542 0.950 . S
H1535 C1547 0.950 . S
H1536 C1544 0.950 . S
H1537 C1546 0.950 . S
H1538 C1548 0.950 . S
H1539 C1550 0.950 . S
H1540 C1552 0.950 . S
H1541 C1553 0.950 . S
C1542 H1534 0.950 . S
C1542 C1543 1.386 . S
C1542 C1544 1.391 . S
C1543 C1542 1.386 . S
C1543 C1547 1.393 . S
C1544 H1536 0.950 . S
C1544 C1542 1.391 . S
C1544 C1545 1.400 . S
C1545 C1544 1.400 . S
C1545 C1546 1.398 . S
C1545 C1551 1.491 . S
C1546 H1537 0.950 . S
C1546 C1545 1.398 . S
C1546 C1547 1.391 . S
C1547 H1535 0.950 . S
C1547 C1543 1.393 . S
C1547 C1546 1.391 . S
C1548 H1538 0.950 . S
C1548 C1549 1.386 . S
C1548 C1550 1.391 . S
C1549 C1548 1.386 . S
C1549 C1553 1.393 . S
C1550 H1539 0.950 . S
C1550 C1548 1.391 . S
C1550 C1551 1.400 . S
C1551 C1545 1.491 . S
C1551 C1550 1.400 . S
C1551 C1552 1.398 . S
C1552 H1540 0.950 . S
C1552 C1551 1.398 . S
C1552 C1553 1.391 . S
C1553 H1541 0.950 . S
C1553 C1549 1.393 . S
C1553 C1552 1.391 . S
H1554 C1562 0.950 . S
H1555 C1567 0.950 . S
H1556 C1564 0.950 . S
H1557 C1566 0.950 . S
H1558 C1568 0.950 . S
H1559 C1570 0.950 . S
H1560 C1572 0.950 . S
H1561 C1573 0.950 . S
C1562 H1554 0.950 . S
C1562 C1563 1.386 . S
C1562 C1564 1.391 1_455 S
C1563 C1562 1.386 . S
C1563 C1567 1.393 1_455 S
C1564 H1556 0.950 . S
C1564 C1562 1.391 1_655 S
C1564 C1565 1.400 . S
C1565 C1564 1.400 . S
C1565 C1566 1.398 . S
C1565 C1571 1.491 . S
C1566 H1557 0.950 . S
C1566 C1565 1.398 . S
C1566 C1567 1.391 . S
C1567 H1555 0.950 . S
C1567 C1563 1.393 1_655 S
C1567 C1566 1.391 . S
C1568 H1558 0.950 . S
C1568 C1569 1.386 . S
C1568 C1570 1.391 . S
C1569 C1568 1.386 . S
C1569 C1573 1.393 . S
C1570 H1559 0.950 . S
C1570 C1568 1.391 . S
C1570 C1571 1.400 . S
C1571 C1565 1.491 . S
C1571 C1570 1.400 . S
C1571 C1572 1.398 . S
C1572 H1560 0.950 . S
C1572 C1571 1.398 . S
C1572 C1573 1.391 . S
C1573 H1561 0.950 . S
C1573 C1569 1.393 . S
C1573 C1572 1.391 . S
H1574 C1582 0.950 . S
H1575 C1587 0.950 . S
H1576 C1584 0.950 . S
H1577 C1586 0.950 . S
H1578 C1588 0.950 . S
H1579 C1590 0.950 . S
H1580 C1592 0.950 . S
H1581 C1593 0.950 . S
C1582 H1574 0.950 . S
C1582 C1583 1.386 . S
C1582 C1584 1.391 . S
C1583 C1582 1.386 . S
C1583 C1587 1.393 . S
C1584 H1576 0.950 . S
C1584 C1582 1.391 . S
C1584 C1585 1.400 . S
C1585 C1584 1.400 . S
C1585 C1586 1.398 . S
C1585 C1591 1.491 . S
C1586 H1577 0.950 . S
C1586 C1585 1.398 . S
C1586 C1587 1.391 . S
C1587 H1575 0.950 . S
C1587 C1583 1.393 . S
C1587 C1586 1.391 . S
C1588 H1578 0.950 . S
C1588 C1589 1.386 . S
C1588 C1590 1.391 . S
C1589 C1588 1.386 . S
C1589 C1593 1.393 . S
C1590 H1579 0.950 . S
C1590 C1588 1.391 . S
C1590 C1591 1.400 . S
C1591 C1585 1.491 . S
C1591 C1590 1.400 . S
C1591 C1592 1.398 . S
C1592 H1580 0.950 . S
C1592 C1591 1.398 . S
C1592 C1593 1.391 . S
C1593 H1581 0.950 . S
C1593 C1589 1.393 . S
C1593 C1592 1.391 . S
H1594 C1602 0.950 . S
H1595 C1607 0.950 . S
H1596 C1604 0.950 . S
H1597 C1606 0.950 . S
H1598 C1608 0.950 . S
H1599 C1610 0.950 . S
H1600 C1612 0.950 . S
H1601 C1613 0.950 . S
C1602 H1594 0.950 . S
C1602 C1603 1.386 . S
C1602 C1604 1.391 1_565 S
C1603 C1602 1.386 . S
C1603 C1607 1.393 . S
C1604 H1596 0.950 . S
C1604 C1602 1.391 1_545 S
C1604 C1605 1.400 . S
C1605 C1604 1.400 . S
C1605 C1606 1.398 . S
C1605 C1611 1.491 . S
C1606 H1597 0.950 . S
C1606 C1605 1.398 . S
C1606 C1607 1.391 1_545 S
C1607 H1595 0.950 . S
C1607 C1603 1.393 . S
C1607 C1606 1.391 1_565 S
C1608 H1598 0.950 . S
C1608 C1609 1.386 . S
C1608 C1610 1.391 . S
C1609 C1608 1.386 . S
C1609 C1613 1.393 . S
C1610 H1599 0.950 . S
C1610 C1608 1.391 . S
C1610 C1611 1.400 . S
C1611 C1605 1.491 . S
C1611 C1610 1.400 . S
C1611 C1612 1.398 . S
C1612 H1600 0.950 . S
C1612 C1611 1.398 . S
C1612 C1613 1.391 . S
C1613 H1601 0.950 . S
C1613 C1609 1.393 . S
C1613 C1612 1.391 . S
H1614 C1622 0.950 . S
H1615 C1627 0.950 . S
H1616 C1624 0.950 . S
H1617 C1626 0.950 . S
H1618 C1628 0.950 . S
H1619 C1630 0.950 . S
H1620 C1632 0.950 . S
H1621 C1633 0.950 . S
C1622 H1614 0.950 . S
C1622 C1623 1.386 . S
C1622 C1624 1.391 . S
C1623 C1622 1.386 . S
C1623 C1627 1.393 . S
C1624 H1616 0.950 . S
C1624 C1622 1.391 . S
C1624 C1625 1.400 . S
C1625 C1624 1.400 . S
C1625 C1626 1.398 . S
C1625 C1631 1.491 . S
C1626 H1617 0.950 . S
C1626 C1625 1.398 . S
C1626 C1627 1.391 . S
C1627 H1615 0.950 . S
C1627 C1623 1.393 . S
C1627 C1626 1.391 . S
C1628 H1618 0.950 . S
C1628 C1629 1.386 . S
C1628 C1630 1.391 . S
C1629 C1628 1.386 . S
C1629 C1633 1.393 . S
C1630 H1619 0.950 . S
C1630 C1628 1.391 . S
C1630 C1631 1.400 . S
C1631 C1625 1.491 . S
C1631 C1630 1.400 . S
C1631 C1632 1.398 . S
C1632 H1620 0.950 . S
C1632 C1631 1.398 . S
C1632 C1633 1.391 . S
C1633 H1621 0.950 . S
C1633 C1629 1.393 . S
C1633 C1632 1.391 . S
H1634 C1642 0.950 . S
H1635 C1647 0.950 . S
H1636 C1644 0.950 . S
H1637 C1646 0.950 . S
H1638 C1648 0.950 . S
H1639 C1650 0.950 . S
H1640 C1652 0.950 . S
H1641 C1653 0.950 . S
C1642 H1634 0.950 . S
C1642 C1643 1.386 . S
C1642 C1644 1.391 . S
C1643 C1642 1.386 . S
C1643 C1647 1.393 . S
C1644 H1636 0.950 . S
C1644 C1642 1.391 . S
C1644 C1645 1.400 . S
C1645 C1644 1.400 . S
C1645 C1646 1.398 . S
C1645 C1651 1.491 . S
C1646 H1637 0.950 . S
C1646 C1645 1.398 . S
C1646 C1647 1.391 . S
C1647 H1635 0.950 . S
C1647 C1643 1.393 . S
C1647 C1646 1.391 . S
C1648 H1638 0.950 . S
C1648 C1649 1.386 . S
C1648 C1650 1.391 . S
C1649 C1648 1.386 . S
C1649 C1653 1.393 . S
C1650 H1639 0.950 . S
C1650 C1648 1.391 . S
C1650 C1651 1.400 . S
C1651 C1645 1.491 . S
C1651 C1650 1.400 . S
C1651 C1652 1.398 . S
C1652 H1640 0.950 . S
C1652 C1651 1.398 . S
C1652 C1653 1.391 . S
C1653 H1641 0.950 . S
C1653 C1649 1.393 . S
C1653 C1652 1.391 . S
H1654 C1662 0.950 . S
H1655 C1667 0.950 . S
H1656 C1664 0.950 . S
H1657 C1666 0.950 . S
H1658 C1668 0.950 . S
H1659 C1670 0.950 . S
H1660 C1672 0.950 . S
H1661 C1673 0.950 . S
C1662 H1654 0.950 . S
C1662 C1663 1.386 . S
C1662 C1664 1.391 . S
C1663 C1662 1.386 . S
C1663 C1667 1.393 . S
C1664 H1656 0.950 . S
C1664 C1662 1.391 . S
C1664 C1665 1.400 . S
C1665 C1664 1.400 . S
C1665 C1666 1.398 . S
C1665 C1671 1.491 . S
C1666 H1657 0.950 . S
C1666 C1665 1.398 . S
C1666 C1667 1.391 . S
C1667 H1655 0.950 . S
C1667 C1663 1.393 . S
C1667 C1666 1.391 . S
C1668 H1658 0.950 . S
C1668 C1669 1.386 . S
C1668 C1670 1.391 . S
C1669 C1668 1.386 . S
C1669 C1673 1.393 . S
C1670 H1659 0.950 . S
C1670 C1668 1.391 . S
C1670 C1671 1.400 . S
C1671 C1665 1.491 . S
C1671 C1670 1.400 . S
C1671 C1672 1.398 . S
C1672 H1660 0.950 . S
C1672 C1671 1.398 . S
C1672 C1673 1.391 . S
C1673 H1661 0.950 . S
C1673 C1669 1.393 . S
C1673 C1672 1.391 . S
H1674 C1682 0.950 . S
H1675 C1687 0.950 . S
H1676 C1684 0.950 . S
H1677 C1686 0.950 . S
H1678 C1688 0.950 . S
H1679 C1690 0.950 . S
H1680 C1692 0.950 . S
H1681 C1693 0.950 . S
C1682 H1674 0.950 . S
C1682 C1683 1.386 . S
C1682 C1684 1.391 . S
C1683 C1682 1.386 . S
C1683 C1687 1.393 . S
C1684 H1676 0.950 . S
C1684 C1682 1.391 . S
C1684 C1685 1.400 . S
C1685 C1684 1.400 . S
C1685 C1686 1.398 . S
C1685 C1691 1.491 . S
C1686 H1677 0.950 . S
C1686 C1685 1.398 . S
C1686 C1687 1.391 . S
C1687 H1675 0.950 . S
C1687 C1683 1.393 . S
C1687 C1686 1.391 . S
C1688 H1678 0.950 . S
C1688 C1689 1.386 . S
C1688 C1690 1.391 . S
C1689 C1688 1.386 . S
C1689 C1693 1.393 . S
C1690 H1679 0.950 . S
C1690 C1688 1.391 . S
C1690 C1691 1.400 . S
C1691 C1685 1.491 . S
C1691 C1690 1.400 . S
C1691 C1692 1.398 . S
C1692 H1680 0.950 . S
C1692 C1691 1.398 . S
C1692 C1693 1.391 . S
C1693 H1681 0.950 . S
C1693 C1689 1.393 . S
C1693 C1692 1.391 . S
H1694 C1702 0.950 . S
H1695 C1707 0.950 . S
H1696 C1704 0.950 . S
H1697 C1706 0.950 . S
H1698 C1708 0.950 . S
H1699 C1710 0.950 . S
H1700 C1712 0.950 . S
H1701 C1713 0.950 . S
C1702 H1694 0.950 . S
C1702 C1703 1.386 . S
C1702 C1704 1.391 . S
C1703 C1702 1.386 . S
C1703 C1707 1.393 . S
C1704 H1696 0.950 . S
C1704 C1702 1.391 . S
C1704 C1705 1.400 . S
C1705 C1704 1.400 . S
C1705 C1706 1.398 . S
C1705 C1711 1.491 . S
C1706 H1697 0.950 . S
C1706 C1705 1.398 . S
C1706 C1707 1.391 . S
C1707 H1695 0.950 . S
C1707 C1703 1.393 . S
C1707 C1706 1.391 . S
C1708 H1698 0.950 . S
C1708 C1709 1.386 . S
C1708 C1710 1.391 . S
C1709 C1708 1.386 . S
C1709 C1713 1.393 . S
C1710 H1699 0.950 . S
C1710 C1708 1.391 . S
C1710 C1711 1.400 . S
C1711 C1705 1.491 . S
C1711 C1710 1.400 . S
C1711 C1712 1.398 . S
C1712 H1700 0.950 . S
C1712 C1711 1.398 . S
C1712 C1713 1.391 . S
C1713 H1701 0.950 . S
C1713 C1709 1.393 . S
C1713 C1712 1.391 . S
H1714 C1722 0.950 . S
H1715 C1727 0.950 . S
H1716 C1724 0.950 . S
H1717 C1726 0.950 . S
H1718 C1728 0.950 . S
H1719 C1730 0.950 . S
H1720 C1732 0.950 . S
H1721 C1733 0.950 . S
C1722 H1714 0.950 . S
C1722 C1723 1.386 . S
C1722 C1724 1.391 . S
C1723 C1722 1.386 . S
C1723 C1727 1.393 . S
C1724 H1716 0.950 . S
C1724 C1722 1.391 . S
C1724 C1725 1.400 . S
C1725 C1724 1.400 . S
C1725 C1726 1.398 . S
C1725 C1731 1.491 . S
C1726 H1717 0.950 . S
C1726 C1725 1.398 . S
C1726 C1727 1.391 . S
C1727 H1715 0.950 . S
C1727 C1723 1.393 . S
C1727 C1726 1.391 . S
C1728 H1718 0.950 . S
C1728 C1729 1.386 . S
C1728 C1730 1.391 . S
C1729 C1728 1.386 . S
C1729 C1733 1.393 . S
C1730 H1719 0.950 . S
C1730 C1728 1.391 . S
C1730 C1731 1.400 . S
C1731 C1725 1.491 . S
C1731 C1730 1.400 . S
C1731 C1732 1.398 . S
C1732 H1720 0.950 . S
C1732 C1731 1.398 . S
C1732 C1733 1.391 . S
C1733 H1721 0.950 . S
C1733 C1729 1.393 . S
C1733 C1732 1.391 . S
H1734 C1742 0.950 . S
H1735 C1747 0.950 . S
H1736 C1744 0.950 . S
H1737 C1746 0.950 . S
H1738 C1748 0.950 . S
H1739 C1750 0.950 . S
H1740 C1752 0.950 . S
H1741 C1753 0.950 . S
C1742 H1734 0.950 . S
C1742 C1743 1.386 . S
C1742 C1744 1.391 . S
C1743 C1742 1.386 . S
C1743 C1747 1.393 . S
C1744 H1736 0.950 . S
C1744 C1742 1.391 . S
C1744 C1745 1.400 . S
C1745 C1744 1.400 . S
C1745 C1746 1.398 . S
C1745 C1751 1.491 . S
C1746 H1737 0.950 . S
C1746 C1745 1.398 . S
C1746 C1747 1.391 . S
C1747 H1735 0.950 . S
C1747 C1743 1.393 . S
C1747 C1746 1.391 . S
C1748 H1738 0.950 . S
C1748 C1749 1.386 . S
C1748 C1750 1.391 . S
C1749 C1748 1.386 . S
C1749 C1753 1.393 . S
C1750 H1739 0.950 . S
C1750 C1748 1.391 . S
C1750 C1751 1.400 . S
C1751 C1745 1.491 . S
C1751 C1750 1.400 . S
C1751 C1752 1.398 . S
C1752 H1740 0.950 . S
C1752 C1751 1.398 . S
C1752 C1753 1.391 . S
C1753 H1741 0.950 . S
C1753 C1749 1.393 . S
C1753 C1752 1.391 . S
H1754 C1762 0.950 . S
H1755 C1767 0.950 . S
H1756 C1764 0.950 . S
H1757 C1766 0.950 . S
H1758 C1768 0.950 . S
H1759 C1770 0.950 . S
H1760 C1772 0.950 . S
H1761 C1773 0.950 . S
C1762 H1754 0.950 . S
C1762 C1763 1.386 . S
C1762 C1764 1.391 . S
C1763 C1762 1.386 . S
C1763 C1767 1.393 . S
C1764 H1756 0.950 . S
C1764 C1762 1.391 . S
C1764 C1765 1.400 . S
C1765 C1764 1.400 . S
C1765 C1766 1.398 . S
C1765 C1771 1.491 . S
C1766 H1757 0.950 . S
C1766 C1765 1.398 . S
C1766 C1767 1.391 . S
C1767 H1755 0.950 . S
C1767 C1763 1.393 . S
C1767 C1766 1.391 . S
C1768 H1758 0.950 . S
C1768 C1769 1.386 . S
C1768 C1770 1.391 . S
C1769 C1768 1.386 . S
C1769 C1773 1.393 . S
C1770 H1759 0.950 . S
C1770 C1768 1.391 . S
C1770 C1771 1.400 . S
C1771 C1765 1.491 . S
C1771 C1770 1.400 . S
C1771 C1772 1.398 . S
C1772 H1760 0.950 . S
C1772 C1771 1.398 . S
C1772 C1773 1.391 . S
C1773 H1761 0.950 . S
C1773 C1769 1.393 . S
C1773 C1772 1.391 . S
H1774 C1782 0.950 . S
H1775 C1787 0.950 . S
H1776 C1784 0.950 . S
H1777 C1786 0.950 . S
H1778 C1788 0.950 . S
H1779 C1790 0.950 . S
H1780 C1792 0.950 . S
H1781 C1793 0.950 . S
C1782 H1774 0.950 . S
C1782 C1783 1.386 . S
C1782 C1784 1.391 . S
C1783 C1782 1.386 . S
C1783 C1787 1.393 . S
C1784 H1776 0.950 . S
C1784 C1782 1.391 . S
C1784 C1785 1.400 . S
C1785 C1784 1.400 . S
C1785 C1786 1.398 . S
C1785 C1791 1.491 . S
C1786 H1777 0.950 . S
C1786 C1785 1.398 . S
C1786 C1787 1.391 . S
C1787 H1775 0.950 . S
C1787 C1783 1.393 . S
C1787 C1786 1.391 . S
C1788 H1778 0.950 . S
C1788 C1789 1.386 . S
C1788 C1790 1.391 . S
C1789 C1788 1.386 . S
C1789 C1793 1.393 . S
C1790 H1779 0.950 . S
C1790 C1788 1.391 . S
C1790 C1791 1.400 . S
C1791 C1785 1.491 . S
C1791 C1790 1.400 . S
C1791 C1792 1.398 . S
C1792 H1780 0.950 . S
C1792 C1791 1.398 . S
C1792 C1793 1.391 . S
C1793 H1781 0.950 . S
C1793 C1789 1.393 . S
C1793 C1792 1.391 . S
H1794 C1802 0.950 . S
H1795 C1807 0.950 . S
H1796 C1804 0.950 . S
H1797 C1806 0.950 . S
H1798 C1808 0.950 . S
H1799 C1810 0.950 . S
H1800 C1812 0.950 . S
H1801 C1813 0.950 . S
C1802 H1794 0.950 . S
C1802 C1803 1.386 . S
C1802 C1804 1.391 . S
C1803 C1802 1.386 . S
C1803 C1807 1.393 . S
C1804 H1796 0.950 . S
C1804 C1802 1.391 . S
C1804 C1805 1.400 . S
C1805 C1804 1.400 . S
C1805 C1806 1.398 . S
C1805 C1811 1.491 . S
C1806 H1797 0.950 . S
C1806 C1805 1.398 . S
C1806 C1807 1.391 . S
C1807 H1795 0.950 . S
C1807 C1803 1.393 . S
C1807 C1806 1.391 . S
C1808 H1798 0.950 . S
C1808 C1809 1.386 . S
C1808 C1810 1.391 . S
C1809 C1808 1.386 . S
C1809 C1813 1.393 . S
C1810 H1799 0.950 . S
C1810 C1808 1.391 . S
C1810 C1811 1.400 . S
C1811 C1805 1.491 . S
C1811 C1810 1.400 . S
C1811 C1812 1.398 . S
C1812 H1800 0.950 . S
C1812 C1811 1.398 . S
C1812 C1813 1.391 . S
C1813 H1801 0.950 . S
C1813 C1809 1.393 . S
C1813 C1812 1.391 . S
H1814 C1822 0.950 . S
H1815 C1827 0.950 . S
H1816 C1824 0.950 . S
H1817 C1826 0.950 . S
H1818 C1828 0.950 . S
H1819 C1830 0.950 . S
H1820 C1832 0.950 . S
H1821 C1833 0.950 . S
C1822 H1814 0.950 . S
C1822 C1823 1.386 . S
C1822 C1824 1.391 . S
C1823 C1822 1.386 . S
C1823 C1827 1.393 . S
C1824 H1816 0.950 . S
C1824 C1822 1.391 . S
C1824 C1825 1.400 . S
C1825 C1824 1.400 . S
C1825 C1826 1.398 . S
C1825 C1831 1.491 . S
C1826 H1817 0.950 . S
C1826 C1825 1.398 . S
C1826 C1827 1.391 . S
C1827 H1815 0.950 . S
C1827 C1823 1.393 . S
C1827 C1826 1.391 . S
C1828 H1818 0.950 . S
C1828 C1829 1.386 . S
C1828 C1830 1.391 . S
C1829 C1828 1.386 . S
C1829 C1833 1.393 . S
C1830 H1819 0.950 . S
C1830 C1828 1.391 . S
C1830 C1831 1.400 . S
C1831 C1825 1.491 . S
C1831 C1830 1.400 . S
C1831 C1832 1.398 . S
C1832 H1820 0.950 . S
C1832 C1831 1.398 . S
C1832 C1833 1.391 . S
C1833 H1821 0.950 . S
C1833 C1829 1.393 . S
C1833 C1832 1.391 . S
H1834 C1842 0.950 . S
H1835 C1847 0.950 . S
H1836 C1844 0.950 . S
H1837 C1846 0.950 . S
H1838 C1848 0.950 . S
H1839 C1850 0.950 . S
H1840 C1852 0.950 . S
H1841 C1853 0.950 . S
C1842 H1834 0.950 . S
C1842 C1843 1.386 . S
C1842 C1844 1.391 . S
C1843 C1842 1.386 . S
C1843 C1847 1.393 . S
C1844 H1836 0.950 . S
C1844 C1842 1.391 . S
C1844 C1845 1.400 . S
C1845 C1844 1.400 . S
C1845 C1846 1.398 . S
C1845 C1851 1.491 . S
C1846 H1837 0.950 . S
C1846 C1845 1.398 . S
C1846 C1847 1.391 . S
C1847 H1835 0.950 . S
C1847 C1843 1.393 . S
C1847 C1846 1.391 . S
C1848 H1838 0.950 . S
C1848 C1849 1.386 . S
C1848 C1850 1.391 . S
C1849 C1848 1.386 . S
C1849 C1853 1.393 . S
C1850 H1839 0.950 . S
C1850 C1848 1.391 . S
C1850 C1851 1.400 . S
C1851 C1845 1.491 . S
C1851 C1850 1.400 . S
C1851 C1852 1.398 . S
C1852 H1840 0.950 . S
C1852 C1851 1.398 . S
C1852 C1853 1.391 . S
C1853 H1841 0.950 . S
C1853 C1849 1.393 . S
C1853 C1852 1.391 . S
H1854 C1862 0.950 . S
H1855 C1867 0.950 . S
H1856 C1864 0.950 . S
H1857 C1866 0.950 . S
H1858 C1868 0.950 . S
H1859 C1870 0.950 . S
H1860 C1872 0.950 . S
H1861 C1873 0.950 . S
C1862 H1854 0.950 . S
C1862 C1863 1.386 . S
C1862 C1864 1.391 . S
C1863 C1862 1.386 . S
C1863 C1867 1.393 . S
C1864 H1856 0.950 . S
C1864 C1862 1.391 . S
C1864 C1865 1.400 . S
C1865 C1864 1.400 . S
C1865 C1866 1.398 . S
C1865 C1871 1.491 . S
C1866 H1857 0.950 . S
C1866 C1865 1.398 . S
C1866 C1867 1.391 . S
C1867 H1855 0.950 . S
C1867 C1863 1.393 . S
C1867 C1866 1.391 . S
C1868 H1858 0.950 . S
C1868 C1869 1.386 . S
C1868 C1870 1.391 . S
C1869 C1868 1.386 . S
C1869 C1873 1.393 . S
C1870 H1859 0.950 . S
C1870 C1868 1.391 . S
C1870 C1871 1.400 . S
C1871 C1865 1.491 . S
C1871 C1870 1.400 . S
C1871 C1872 1.398 . S
C1872 H1860 0.950 . S
C1872 C1871 1.398 . S
C1872 C1873 1.391 . S
C1873 H1861 0.950 . S
C1873 C1869 1.393 . S
C1873 C1872 1.391 . S
H1874 C1882 0.950 . S
H1875 C1887 0.950 . S
H1876 C1884 0.950 . S
H1877 C1886 0.950 . S
H1878 C1888 0.950 . S
H1879 C1890 0.950 . S
H1880 C1892 0.950 . S
H1881 C1893 0.950 . S
C1882 H1874 0.950 . S
C1882 C1883 1.386 . S
C1882 C1884 1.391 . S
C1883 C1882 1.386 . S
C1883 C1887 1.393 . S
C1884 H1876 0.950 . S
C1884 C1882 1.391 . S
C1884 C1885 1.400 . S
C1885 C1884 1.400 . S
C1885 C1886 1.398 . S
C1885 C1891 1.491 . S
C1886 H1877 0.950 . S
C1886 C1885 1.398 . S
C1886 C1887 1.391 . S
C1887 H1875 0.950 . S
C1887 C1883 1.393 . S
C1887 C1886 1.391 . S
C1888 H1878 0.950 . S
C1888 C1889 1.386 . S
C1888 C1890 1.391 . S
C1889 C1888 1.386 . S
C1889 C1893 1.393 . S
C1890 H1879 0.950 . S
C1890 C1888 1.391 . S
C1890 C1891 1.400 . S
C1891 C1885 1.491 . S
C1891 C1890 1.400 . S
C1891 C1892 1.398 . S
C1892 H1880 0.950 . S
C1892 C1891 1.398 . S
C1892 C1893 1.391 . S
C1893 H1881 0.950 . S
C1893 C1889 1.393 . S
C1893 C1892 1.391 . S
H1894 C1902 0.950 . S
H1895 C1907 0.950 . S
H1896 C1904 0.950 . S
H1897 C1906 0.950 . S
H1898 C1908 0.950 . S
H1899 C1910 0.950 . S
H1900 C1912 0.950 . S
H1901 C1913 0.950 . S
C1902 H1894 0.950 . S
C1902 C1903 1.386 . S
C1902 C1904 1.391 . S
C1903 C1902 1.386 . S
C1903 C1907 1.393 . S
C1904 H1896 0.950 . S
C1904 C1902 1.391 . S
C1904 C1905 1.400 . S
C1905 C1904 1.400 . S
C1905 C1906 1.398 . S
C1905 C1911 1.491 . S
C1906 H1897 0.950 . S
C1906 C1905 1.398 . S
C1906 C1907 1.391 . S
C1907 H1895 0.950 . S
C1907 C1903 1.393 . S
C1907 C1906 1.391 . S
C1908 H1898 0.950 . S
C1908 C1909 1.386 . S
C1908 C1910 1.391 . S
C1909 C1908 1.386 . S
C1909 C1913 1.393 . S
C1910 H1899 0.950 . S
C1910 C1908 1.391 . S
C1910 C1911 1.400 . S
C1911 C1905 1.491 . S
C1911 C1910 1.400 . S
C1911 C1912 1.398 . S
C1912 H1900 0.950 . S
C1912 C1911 1.398 . S
C1912 C1913 1.391 . S
C1913 H1901 0.950 . S
C1913 C1909 1.393 . S
C1913 C1912 1.391 . S
H1914 C1922 0.950 . S
H1915 C1927 0.950 . S
H1916 C1924 0.950 . S
H1917 C1926 0.950 . S
H1918 C1928 0.950 . S
H1919 C1930 0.950 . S
H1920 C1932 0.950 . S
H1921 C1933 0.950 . S
C1922 H1914 0.950 . S
C1922 C1923 1.386 . S
C1922 C1924 1.391 . S
C1923 C1922 1.386 . S
C1923 C1927 1.393 . S
C1924 H1916 0.950 . S
C1924 C1922 1.391 . S
C1924 C1925 1.400 . S
C1925 C1924 1.400 . S
C1925 C1926 1.398 . S
C1925 C1931 1.491 . S
C1926 H1917 0.950 . S
C1926 C1925 1.398 . S
C1926 C1927 1.391 . S
C1927 H1915 0.950 . S
C1927 C1923 1.393 . S
C1927 C1926 1.391 . S
C1928 H1918 0.950 . S
C1928 C1929 1.386 . S
C1928 C1930 1.391 . S
C1929 C1928 1.386 . S
C1929 C1933 1.393 . S
C1930 H1919 0.950 . S
C1930 C1928 1.391 . S
C1930 C1931 1.400 . S
C1931 C1925 1.491 . S
C1931 C1930 1.400 . S
C1931 C1932 1.398 . S
C1932 H1920 0.950 . S
C1932 C1931 1.398 . S
C1932 C1933 1.391 . S
C1933 H1921 0.950 . S
C1933 C1929 1.393 . S
C1933 C1932 1.391 . S
H1934 C1942 0.950 . S
H1935 C1947 0.950 . S
H1936 C1944 0.950 . S
H1937 C1946 0.950 . S
H1938 C1948 0.950 . S
H1939 C1950 0.950 . S
H1940 C1952 0.950 . S
H1941 C1953 0.950 . S
C1942 H1934 0.950 . S
C1942 C1943 1.386 . S
C1942 C1944 1.391 . S
C1943 C1942 1.386 . S
C1943 C1947 1.393 . S
C1944 H1936 0.950 . S
C1944 C1942 1.391 . S
C1944 C1945 1.400 . S
C1945 C1944 1.400 . S
C1945 C1946 1.398 . S
C1945 C1951 1.491 . S
C1946 H1937 0.950 . S
C1946 C1945 1.398 . S
C1946 C1947 1.391 . S
C1947 H1935 0.950 . S
C1947 C1943 1.393 . S
C1947 C1946 1.391 . S
C1948 H1938 0.950 . S
C1948 C1949 1.386 . S
C1948 C1950 1.391 . S
C1949 C1948 1.386 . S
C1949 C1953 1.393 . S
C1950 H1939 0.950 . S
C1950 C1948 1.391 . S
C1950 C1951 1.400 . S
C1951 C1945 1.491 . S
C1951 C1950 1.400 . S
C1951 C1952 1.398 . S
C1952 H1940 0.950 . S
C1952 C1951 1.398 . S
C1952 C1953 1.391 . S
C1953 H1941 0.950 . S
C1953 C1949 1.393 . S
C1953 C1952 1.391 . S
H1954 C1962 0.950 . S
H1955 C1967 0.950 . S
H1956 C1964 0.950 . S
H1957 C1966 0.950 . S
H1958 C1968 0.950 . S
H1959 C1970 0.950 . S
H1960 C1972 0.950 . S
H1961 C1973 0.950 . S
C1962 H1954 0.950 . S
C1962 C1963 1.386 . S
C1962 C1964 1.391 . S
C1963 C1962 1.386 . S
C1963 C1967 1.393 . S
C1964 H1956 0.950 . S
C1964 C1962 1.391 . S
C1964 C1965 1.400 . S
C1965 C1964 1.400 . S
C1965 C1966 1.398 . S
C1965 C1971 1.491 . S
C1966 H1957 0.950 . S
C1966 C1965 1.398 . S
C1966 C1967 1.391 . S
C1967 H1955 0.950 . S
C1967 C1963 1.393 . S
C1967 C1966 1.391 . S
C1968 H1958 0.950 . S
C1968 C1969 1.386 . S
C1968 C1970 1.391 . S
C1969 C1968 1.386 . S
C1969 C1973 1.393 . S
C1970 H1959 0.950 . S
C1970 C1968 1.391 . S
C1970 C1971 1.400 . S
C1971 C1965 1.491 . S
C1971 C1970 1.400 . S
C1971 C1972 1.398 . S
C1972 H1960 0.950 . S
C1972 C1971 1.398 . S
C1972 C1973 1.391 . S
C1973 H1961 0.950 . S
C1973 C1969 1.393 . S
C1973 C1972 1.391 . S
H1974 C1982 0.950 . S
H1975 C1987 0.950 . S
H1976 C1984 0.950 . S
H1977 C1986 0.950 . S
H1978 C1988 0.950 . S
H1979 C1990 0.950 . S
H1980 C1992 0.950 . S
H1981 C1993 0.950 . S
C1982 H1974 0.950 . S
C1982 C1983 1.386 . S
C1982 C1984 1.391 . S
C1983 C1982 1.386 . S
C1983 C1987 1.393 . S
C1984 H1976 0.950 . S
C1984 C1982 1.391 . S
C1984 C1985 1.400 . S
C1985 C1984 1.400 . S
C1985 C1986 1.398 . S
C1985 C1991 1.491 . S
C1986 H1977 0.950 . S
C1986 C1985 1.398 . S
C1986 C1987 1.391 . S
C1987 H1975 0.950 . S
C1987 C1983 1.393 . S
C1987 C1986 1.391 . S
C1988 H1978 0.950 . S
C1988 C1989 1.386 . S
C1988 C1990 1.391 . S
C1989 C1988 1.386 . S
C1989 C1993 1.393 . S
C1990 H1979 0.950 . S
C1990 C1988 1.391 . S
C1990 C1991 1.400 . S
C1991 C1985 1.491 . S
C1991 C1990 1.400 . S
C1991 C1992 1.398 . S
C1992 H1980 0.950 . S
C1992 C1991 1.398 . S
C1992 C1993 1.391 . S
C1993 H1981 0.950 . S
C1993 C1989 1.393 . S
C1993 C1992 1.391 . S
H1994 C2002 0.950 . S
H1995 C2007 0.950 . S
H1996 C2004 0.950 . S
H1997 C2006 0.950 . S
H1998 C2008 0.950 . S
H1999 C2010 0.950 . S
H2000 C2012 0.950 . S
H2001 C2013 0.950 . S
C2002 H1994 0.950 . S
C2002 C2003 1.386 . S
C2002 C2004 1.391 . S
C2003 C2002 1.386 . S
C2003 C2007 1.393 . S
C2004 H1996 0.950 . S
C2004 C2002 1.391 . S
C2004 C2005 1.400 . S
C2005 C2004 1.400 . S
C2005 C2006 1.398 . S
C2005 C2011 1.491 . S
C2006 H1997 0.950 . S
C2006 C2005 1.398 . S
C2006 C2007 1.391 . S
C2007 H1995 0.950 . S
C2007 C2003 1.393 . S
C2007 C2006 1.391 . S
C2008 H1998 0.950 . S
C2008 C2009 1.386 . S
C2008 C2010 1.391 . S
C2009 C2008 1.386 . S
C2009 C2013 1.393 . S
C2010 H1999 0.950 . S
C2010 C2008 1.391 . S
C2010 C2011 1.400 . S
C2011 C2005 1.491 . S
C2011 C2010 1.400 . S
C2011 C2012 1.398 . S
C2012 H2000 0.950 . S
C2012 C2011 1.398 . S
C2012 C2013 1.391 . S
C2013 H2001 0.950 . S
C2013 C2009 1.393 . S
C2013 C2012 1.391 . S
H2014 C2022 0.950 . S
H2015 C2027 0.950 . S
H2016 C2024 0.950 . S
H2017 C2026 0.950 . S
H2018 C2028 0.950 . S
H2019 C2030 0.950 . S
H2020 C2032 0.950 . S
H2021 C2033 0.950 . S
C2022 H2014 0.950 . S
C2022 C2023 1.386 . S
C2022 C2024 1.391 . S
C2023 C2022 1.386 . S
C2023 C2027 1.393 . S
C2024 H2016 0.950 . S
C2024 C2022 1.391 . S
C2024 C2025 1.400 . S
C2025 C2024 1.400 . S
C2025 C2026 1.398 . S
C2025 C2031 1.491 . S
C2026 H2017 0.950 . S
C2026 C2025 1.398 . S
C2026 C2027 1.391 . S
C2027 H2015 0.950 . S
C2027 C2023 1.393 . S
C2027 C2026 1.391 . S
C2028 H2018 0.950 . S
C2028 C2029 1.386 . S
C2028 C2030 1.391 . S
C2029 C2028 1.386 . S
C2029 C2033 1.393 . S
C2030 H2019 0.950 . S
C2030 C2028 1.391 . S
C2030 C2031 1.400 . S
C2031 C2025 1.491 . S
C2031 C2030 1.400 . S
C2031 C2032 1.398 . S
C2032 H2020 0.950 . S
C2032 C2031 1.398 . S
C2032 C2033 1.391 . S
C2033 H2021 0.950 . S
C2033 C2029 1.393 . S
C2033 C2032 1.391 . S
C963 C151 1.123 . S
C969 C265 1.082 . S
C983 C159 1.690 . S
C989 C349 1.774 . S
C1003 C137 1.329 . S
C1009 C429 1.433 . S
C1023 C126 1.249 . S
C1029 C345 1.427 1_556 S
C1049 C433 1.747 . S
C1043 C104 1.634 . S
C1063 C118 1.091 . S
C1069 C261 1.087 1_556 S
C1089 C254 1.337 . S
C1083 C129 1.414 . S
C1109 C338 1.536 . S
C1103 C107 1.623 . S
C1123 C115 1.231 . S
C1129 C440 1.430 . S
C1143 C148 1.219 . S
C1149 C356 1.402 . S
C1163 C162 1.575 . S
C1169 C422 1.486 . S
C1189 C272 1.354 . S
C1183 C140 1.376 . S
C1209 C517 1.082 . S
C1203 C19 1.131 . S
C1223 C27 1.679 . S
C1229 C601 1.797 . S
C1243 C5 1.286 . S
C1249 C681 1.451 . S
C1263 C192 1.284 . S
C1269 C597 1.408 . S
C1283 C170 1.666 . S
C1289 C685 1.734 . S
C1303 C184 1.075 . S
C1309 C513 1.083 . S
C1323 C195 1.404 . S
C1329 C506 1.357 . S
C1343 C173 1.617 . S
C1349 C590 1.559 . S
C1369 C692 1.442 . S
C1363 C181 1.264 . S
C1383 C16 1.258 . S
C1389 C608 1.421 . S
C1409 C674 1.494 . S
C1403 C30 1.571 . S
C1423 C8 1.369 . S
C1429 C524 1.356 . S
C1449 C769 1.091 . S
C1443 C85 1.118 . S
C1463 C93 1.670 . S
C1469 C853 1.789 . S
C1489 C933 1.444 . S
C1483 C71 1.315 . S
C1509 C849 1.408 . S
C1503 C60 1.286 . S
C1529 C937 1.729 . S
C1523 C38 1.664 . S
C1543 C52 1.088 . S
C1549 C765 1.092 . S
C1563 C63 1.414 . S
C1569 C758 1.348 . S
C1583 C41 1.624 . S
C1589 C842 1.535 . S
C1609 C944 1.439 . S
C1603 C49 1.257 . S
C1623 C82 1.249 . S
C1629 C860 1.418 . S
C1643 C96 1.575 . S
C1649 C926 1.481 . S
C1663 C74 1.379 . S
C1669 C776 1.339 . S
C1683 C172 1.603 . S
C1689 C268 1.504 . S
C1709 C352 1.228 . S
C1703 C183 1.317 . S
C1723 C194 1.479 . S
C1729 C424 1.314 . S
C1743 C73 1.516 . S
C1749 C340 1.352 . S
C1763 C84 1.264 . S
C1769 C436 1.200 . S
C1789 C256 1.482 . S
C1783 C95 1.588 . S
C1803 C40 1.588 . S
C1809 C520 1.496 . S
C1823 C51 1.316 . S
C1829 C604 1.208 . S
C1843 C62 1.467 . S
C1849 C676 1.329 . S
C1863 C139 1.517 . S
C1869 C592 1.346 . S
C1889 C688 1.211 . S
C1883 C150 1.274 . S
C1903 C161 1.584 . S
C1909 C508 1.465 . S
C1923 C106 1.609 . S
C1929 C772 1.476 . S
C1943 C117 1.317 . S
C1949 C856 1.210 . S
C1969 C928 1.352 . S
C1963 C128 1.458 . S
C1983 C7 1.504 . S
C1989 C844 1.349 . S
C2003 C18 1.281 . S
C2009 C940 1.170 . S
C2023 C29 1.595 . S
C2029 C760 1.468 . S
