# Generated by pormake.
# Topology iac, (4,6)-cn, num edge types: 1
# Building blocks:
#     Node 0, Type 0, BuildingBlock: AZAVOO_clean_sbu_0, # of connection points: 4
#     Node 1, Type 0, BuildingBlock: AZAVOO_clean_sbu_0, # of connection points: 4
#     Node 2, Type 0, BuildingBlock: AZAVOO_clean_sbu_0, # of connection points: 4
#     Node 3, Type 0, BuildingBlock: AZAVOO_clean_sbu_0, # of connection points: 4
#     Node 4, Type 0, BuildingBlock: AZAVOO_clean_sbu_0, # of connection points: 4
#     Node 5, Type 0, BuildingBlock: AZAVOO_clean_sbu_0, # of connection points: 4
#     Node 6, Type 0, BuildingBlock: AZAVOO_clean_sbu_0, # of connection points: 4
#     Node 7, Type 0, BuildingBlock: AZAVOO_clean_sbu_0, # of connection points: 4
#     Node 8, Type 0, BuildingBlock: AZAVOO_clean_sbu_0, # of connection points: 4
#     Node 9, Type 0, BuildingBlock: AZAVOO_clean_sbu_0, # of connection points: 4
#     Node 10, Type 0, BuildingBlock: AZAVOO_clean_sbu_0, # of connection points: 4
#     Node 11, Type 0, BuildingBlock: AZAVOO_clean_sbu_0, # of connection points: 4
#     Node 12, Type 0, BuildingBlock: AZAVOO_clean_sbu_0, # of connection points: 4
#     Node 13, Type 0, BuildingBlock: AZAVOO_clean_sbu_0, # of connection points: 4
#     Node 14, Type 0, BuildingBlock: AZAVOO_clean_sbu_0, # of connection points: 4
#     Node 15, Type 0, BuildingBlock: AZAVOO_clean_sbu_0, # of connection points: 4
#     Node 16, Type 0, BuildingBlock: AZAVOO_clean_sbu_0, # of connection points: 4
#     Node 17, Type 0, BuildingBlock: AZAVOO_clean_sbu_0, # of connection points: 4
#     Node 18, Type 0, BuildingBlock: AZAVOO_clean_sbu_0, # of connection points: 4
#     Node 19, Type 0, BuildingBlock: AZAVOO_clean_sbu_0, # of connection points: 4
#     Node 20, Type 0, BuildingBlock: AZAVOO_clean_sbu_0, # of connection points: 4
#     Node 21, Type 0, BuildingBlock: AZAVOO_clean_sbu_0, # of connection points: 4
#     Node 22, Type 0, BuildingBlock: AZAVOO_clean_sbu_0, # of connection points: 4
#     Node 23, Type 0, BuildingBlock: AZAVOO_clean_sbu_0, # of connection points: 4
#     Node 24, Type 1, BuildingBlock: FUNLAD_clean_sbu_0, # of connection points: 6
#     Node 25, Type 1, BuildingBlock: FUNLAD_clean_sbu_0, # of connection points: 6
#     Node 26, Type 1, BuildingBlock: FUNLAD_clean_sbu_0, # of connection points: 6
#     Node 27, Type 1, BuildingBlock: FUNLAD_clean_sbu_0, # of connection points: 6
#     Node 28, Type 1, BuildingBlock: FUNLAD_clean_sbu_0, # of connection points: 6
#     Node 29, Type 1, BuildingBlock: FUNLAD_clean_sbu_0, # of connection points: 6
#     Node 30, Type 1, BuildingBlock: FUNLAD_clean_sbu_0, # of connection points: 6
#     Node 31, Type 1, BuildingBlock: FUNLAD_clean_sbu_0, # of connection points: 6
#     Node 32, Type 1, BuildingBlock: FUNLAD_clean_sbu_0, # of connection points: 6
#     Node 33, Type 1, BuildingBlock: FUNLAD_clean_sbu_0, # of connection points: 6
#     Node 34, Type 1, BuildingBlock: FUNLAD_clean_sbu_0, # of connection points: 6
#     Node 35, Type 1, BuildingBlock: FUNLAD_clean_sbu_0, # of connection points: 6
#     Node 36, Type 1, BuildingBlock: FUNLAD_clean_sbu_0, # of connection points: 6
#     Node 37, Type 1, BuildingBlock: FUNLAD_clean_sbu_0, # of connection points: 6
#     Node 38, Type 1, BuildingBlock: FUNLAD_clean_sbu_0, # of connection points: 6
#     Node 39, Type 1, BuildingBlock: FUNLAD_clean_sbu_0, # of connection points: 6
#     Edge 40, Type (0, 1), BuildingBlock: AJUNOK_clean_linker_0, # of connection points: 2
#     Edge 41, Type (0, 1), BuildingBlock: AJUNOK_clean_linker_0, # of connection points: 2
#     Edge 42, Type (0, 1), BuildingBlock: AJUNOK_clean_linker_0, # of connection points: 2
#     Edge 43, Type (0, 1), BuildingBlock: AJUNOK_clean_linker_0, # of connection points: 2
#     Edge 44, Type (0, 1), BuildingBlock: AJUNOK_clean_linker_0, # of connection points: 2
#     Edge 45, Type (0, 1), BuildingBlock: AJUNOK_clean_linker_0, # of connection points: 2
#     Edge 46, Type (0, 1), BuildingBlock: AJUNOK_clean_linker_0, # of connection points: 2
#     Edge 47, Type (0, 1), BuildingBlock: AJUNOK_clean_linker_0, # of connection points: 2
#     Edge 48, Type (0, 1), BuildingBlock: AJUNOK_clean_linker_0, # of connection points: 2
#     Edge 49, Type (0, 1), BuildingBlock: AJUNOK_clean_linker_0, # of connection points: 2
#     Edge 50, Type (0, 1), BuildingBlock: AJUNOK_clean_linker_0, # of connection points: 2
#     Edge 51, Type (0, 1), BuildingBlock: AJUNOK_clean_linker_0, # of connection points: 2
#     Edge 52, Type (0, 1), BuildingBlock: AJUNOK_clean_linker_0, # of connection points: 2
#     Edge 53, Type (0, 1), BuildingBlock: AJUNOK_clean_linker_0, # of connection points: 2
#     Edge 54, Type (0, 1), BuildingBlock: AJUNOK_clean_linker_0, # of connection points: 2
#     Edge 55, Type (0, 1), BuildingBlock: AJUNOK_clean_linker_0, # of connection points: 2
#     Edge 56, Type (0, 1), BuildingBlock: AJUNOK_clean_linker_0, # of connection points: 2
#     Edge 57, Type (0, 1), BuildingBlock: AJUNOK_clean_linker_0, # of connection points: 2
#     Edge 58, Type (0, 1), BuildingBlock: AJUNOK_clean_linker_0, # of connection points: 2
#     Edge 59, Type (0, 1), BuildingBlock: AJUNOK_clean_linker_0, # of connection points: 2
#     Edge 60, Type (0, 1), BuildingBlock: AJUNOK_clean_linker_0, # of connection points: 2
#     Edge 61, Type (0, 1), BuildingBlock: AJUNOK_clean_linker_0, # of connection points: 2
#     Edge 62, Type (0, 1), BuildingBlock: AJUNOK_clean_linker_0, # of connection points: 2
#     Edge 63, Type (0, 1), BuildingBlock: AJUNOK_clean_linker_0, # of connection points: 2
#     Edge 64, Type (0, 1), BuildingBlock: AJUNOK_clean_linker_0, # of connection points: 2
#     Edge 65, Type (0, 1), BuildingBlock: AJUNOK_clean_linker_0, # of connection points: 2
#     Edge 66, Type (0, 1), BuildingBlock: AJUNOK_clean_linker_0, # of connection points: 2
#     Edge 67, Type (0, 1), BuildingBlock: AJUNOK_clean_linker_0, # of connection points: 2
#     Edge 68, Type (0, 1), BuildingBlock: AJUNOK_clean_linker_0, # of connection points: 2
#     Edge 69, Type (0, 1), BuildingBlock: AJUNOK_clean_linker_0, # of connection points: 2
#     Edge 70, Type (0, 1), BuildingBlock: AJUNOK_clean_linker_0, # of connection points: 2
#     Edge 71, Type (0, 1), BuildingBlock: AJUNOK_clean_linker_0, # of connection points: 2
#     Edge 72, Type (0, 1), BuildingBlock: AJUNOK_clean_linker_0, # of connection points: 2
#     Edge 73, Type (0, 1), BuildingBlock: AJUNOK_clean_linker_0, # of connection points: 2
#     Edge 74, Type (0, 1), BuildingBlock: AJUNOK_clean_linker_0, # of connection points: 2
#     Edge 75, Type (0, 1), BuildingBlock: AJUNOK_clean_linker_0, # of connection points: 2
#     Edge 76, Type (0, 1), BuildingBlock: AJUNOK_clean_linker_0, # of connection points: 2
#     Edge 77, Type (0, 1), BuildingBlock: AJUNOK_clean_linker_0, # of connection points: 2
#     Edge 78, Type (0, 1), BuildingBlock: AJUNOK_clean_linker_0, # of connection points: 2
#     Edge 79, Type (0, 1), BuildingBlock: AJUNOK_clean_linker_0, # of connection points: 2
#     Edge 80, Type (0, 1), BuildingBlock: AJUNOK_clean_linker_0, # of connection points: 2
#     Edge 81, Type (0, 1), BuildingBlock: AJUNOK_clean_linker_0, # of connection points: 2
#     Edge 82, Type (0, 1), BuildingBlock: AJUNOK_clean_linker_0, # of connection points: 2
#     Edge 83, Type (0, 1), BuildingBlock: AJUNOK_clean_linker_0, # of connection points: 2
#     Edge 84, Type (0, 1), BuildingBlock: AJUNOK_clean_linker_0, # of connection points: 2
#     Edge 85, Type (0, 1), BuildingBlock: AJUNOK_clean_linker_0, # of connection points: 2
#     Edge 86, Type (0, 1), BuildingBlock: AJUNOK_clean_linker_0, # of connection points: 2
#     Edge 87, Type (0, 1), BuildingBlock: AJUNOK_clean_linker_0, # of connection points: 2
#     Edge 88, Type (0, 1), BuildingBlock: AJUNOK_clean_linker_0, # of connection points: 2
#     Edge 89, Type (0, 1), BuildingBlock: AJUNOK_clean_linker_0, # of connection points: 2
#     Edge 90, Type (0, 1), BuildingBlock: AJUNOK_clean_linker_0, # of connection points: 2
#     Edge 91, Type (0, 1), BuildingBlock: AJUNOK_clean_linker_0, # of connection points: 2
#     Edge 92, Type (0, 1), BuildingBlock: AJUNOK_clean_linker_0, # of connection points: 2
#     Edge 93, Type (0, 1), BuildingBlock: AJUNOK_clean_linker_0, # of connection points: 2
#     Edge 94, Type (0, 1), BuildingBlock: AJUNOK_clean_linker_0, # of connection points: 2
#     Edge 95, Type (0, 1), BuildingBlock: AJUNOK_clean_linker_0, # of connection points: 2
#     Edge 96, Type (0, 1), BuildingBlock: AJUNOK_clean_linker_0, # of connection points: 2
#     Edge 97, Type (0, 1), BuildingBlock: AJUNOK_clean_linker_0, # of connection points: 2
#     Edge 98, Type (0, 1), BuildingBlock: AJUNOK_clean_linker_0, # of connection points: 2
#     Edge 99, Type (0, 1), BuildingBlock: AJUNOK_clean_linker_0, # of connection points: 2
#     Edge 100, Type (0, 1), BuildingBlock: AJUNOK_clean_linker_0, # of connection points: 2
#     Edge 101, Type (0, 1), BuildingBlock: AJUNOK_clean_linker_0, # of connection points: 2
#     Edge 102, Type (0, 1), BuildingBlock: AJUNOK_clean_linker_0, # of connection points: 2
#     Edge 103, Type (0, 1), BuildingBlock: AJUNOK_clean_linker_0, # of connection points: 2
#     Edge 104, Type (0, 1), BuildingBlock: AJUNOK_clean_linker_0, # of connection points: 2
#     Edge 105, Type (0, 1), BuildingBlock: AJUNOK_clean_linker_0, # of connection points: 2
#     Edge 106, Type (0, 1), BuildingBlock: AJUNOK_clean_linker_0, # of connection points: 2
#     Edge 107, Type (0, 1), BuildingBlock: AJUNOK_clean_linker_0, # of connection points: 2
#     Edge 108, Type (0, 1), BuildingBlock: AJUNOK_clean_linker_0, # of connection points: 2
#     Edge 109, Type (0, 1), BuildingBlock: AJUNOK_clean_linker_0, # of connection points: 2
#     Edge 110, Type (0, 1), BuildingBlock: AJUNOK_clean_linker_0, # of connection points: 2
#     Edge 111, Type (0, 1), BuildingBlock: AJUNOK_clean_linker_0, # of connection points: 2
#     Edge 112, Type (0, 1), BuildingBlock: AJUNOK_clean_linker_0, # of connection points: 2
#     Edge 113, Type (0, 1), BuildingBlock: AJUNOK_clean_linker_0, # of connection points: 2
#     Edge 114, Type (0, 1), BuildingBlock: AJUNOK_clean_linker_0, # of connection points: 2
#     Edge 115, Type (0, 1), BuildingBlock: AJUNOK_clean_linker_0, # of connection points: 2
#     Edge 116, Type (0, 1), BuildingBlock: AJUNOK_clean_linker_0, # of connection points: 2
#     Edge 117, Type (0, 1), BuildingBlock: AJUNOK_clean_linker_0, # of connection points: 2
#     Edge 118, Type (0, 1), BuildingBlock: AJUNOK_clean_linker_0, # of connection points: 2
#     Edge 119, Type (0, 1), BuildingBlock: AJUNOK_clean_linker_0, # of connection points: 2
#     Edge 120, Type (0, 1), BuildingBlock: AJUNOK_clean_linker_0, # of connection points: 2
#     Edge 121, Type (0, 1), BuildingBlock: AJUNOK_clean_linker_0, # of connection points: 2
#     Edge 122, Type (0, 1), BuildingBlock: AJUNOK_clean_linker_0, # of connection points: 2
#     Edge 123, Type (0, 1), BuildingBlock: AJUNOK_clean_linker_0, # of connection points: 2
#     Edge 124, Type (0, 1), BuildingBlock: AJUNOK_clean_linker_0, # of connection points: 2
#     Edge 125, Type (0, 1), BuildingBlock: AJUNOK_clean_linker_0, # of connection points: 2
#     Edge 126, Type (0, 1), BuildingBlock: AJUNOK_clean_linker_0, # of connection points: 2
#     Edge 127, Type (0, 1), BuildingBlock: AJUNOK_clean_linker_0, # of connection points: 2
#     Edge 128, Type (0, 1), BuildingBlock: AJUNOK_clean_linker_0, # of connection points: 2
#     Edge 129, Type (0, 1), BuildingBlock: AJUNOK_clean_linker_0, # of connection points: 2
#     Edge 130, Type (0, 1), BuildingBlock: AJUNOK_clean_linker_0, # of connection points: 2
#     Edge 131, Type (0, 1), BuildingBlock: AJUNOK_clean_linker_0, # of connection points: 2
#     Edge 132, Type (0, 1), BuildingBlock: AJUNOK_clean_linker_0, # of connection points: 2
#     Edge 133, Type (0, 1), BuildingBlock: AJUNOK_clean_linker_0, # of connection points: 2
#     Edge 134, Type (0, 1), BuildingBlock: AJUNOK_clean_linker_0, # of connection points: 2
#     Edge 135, Type (0, 1), BuildingBlock: AJUNOK_clean_linker_0, # of connection points: 2
# Relax obj value: 0.407
# Max RMSD: 0.305
# Mean RMSD: 0.190
data_MOF--net-iac--node1-AZAVOO_clean_sbu_0--node2-FUNLAD_clean_sbu_0--edge1-AJUNOK_clean_linker_0
_symmetry_space_group_name_H-M    P1
_symmetry_Int_Tables_number       1
_symmetry_cell_setting            triclinic
loop_
_symmetry_equiv_pos_as_xyz
'x, y, z'
_cell_length_a     42.261892
_cell_length_b     38.47186
_cell_length_c     44.949112
_cell_angle_alpha  92.300696
_cell_angle_beta   92.469386
_cell_angle_gamma 90.692461
loop_
_atom_site_label
_atom_site_type_symbol
_atom_site_fract_x
_atom_site_fract_y
_atom_site_fract_z
_atom_type_partial_charge
Mg0 Mg 0.04473 0.22195 0.2027 0.0
O1 O 0.02719 0.19403 0.15981 0.0
O2 O 0.97492 0.20111 0.15305 0.0
Mg3 Mg 0.95962 0.2346 0.1928 0.0
C4 C 0.00128 0.18935 0.14445 0.0
C5 C 0.10714 0.25086 0.19278 0.0
O6 O 0.09168 0.27391 0.20867 0.0
O7 O 0.03776 0.27027 0.17803 0.0
O8 O 0.98618 0.27926 0.17104 0.0
O9 O 0.03648 0.17438 0.22812 0.0
O10 O 0.0015 0.21595 0.21883 0.0
C11 C 0.01502 0.28773 0.16741 0.0
C12 C 0.0078 0.18583 0.22895 0.0
O13 O 0.09478 0.22091 0.18756 0.0
Mg14 Mg 0.04838 0.75728 0.37627 0.0
O15 O 0.04806 0.80437 0.4124 0.0
O16 O 0.00525 0.79438 0.43847 0.0
Mg17 Mg 0.97743 0.74622 0.41932 0.0
C18 C 0.0298 0.8127 0.43368 0.0
C19 C 0.10536 0.76125 0.33494 0.0
O20 O 0.08088 0.75063 0.31782 0.0
O21 O 0.06263 0.71585 0.41151 0.0
O22 O 0.01732 0.70887 0.43465 0.0
O23 O 0.01833 0.78682 0.34275 0.0
O24 O -0.00206 0.75351 0.37548 0.0
C25 C 0.04607 0.70054 0.43057 0.0
C26 C 0.99318 0.77373 0.35356 0.0
O27 O 0.10081 0.76735 0.36263 0.0
Mg28 Mg 0.58417 0.70734 0.69826 0.0
O29 O 0.54412 0.70729 0.66412 0.0
O30 O 0.50315 0.74133 0.6745 0.0
Mg31 Mg 0.52324 0.77159 0.71637 0.0
C32 C 0.51714 0.71976 0.65739 0.0
C33 C 0.63964 0.67973 0.66129 0.0
O34 O 0.65462 0.6622 0.64069 0.0
O35 O 0.6 0.7554 0.67459 0.0
O36 O 0.55915 0.78995 0.68393 0.0
O37 O 0.55746 0.6708 0.72549 0.0
O38 O 0.55394 0.72814 0.72908 0.0
C39 C 0.58461 0.78323 0.67071 0.0
C40 C 0.54349 0.69811 0.73602 0.0
O41 O 0.61125 0.67167 0.66644 0.0
Mg42 Mg 0.54131 0.26105 0.87602 0.0
O43 O 0.54107 0.30832 0.9118 0.0
O44 O 0.49829 0.29966 0.93829 0.0
Mg45 Mg 0.47017 0.25146 0.91977 0.0
C46 C 0.52294 0.31753 0.93294 0.0
C47 C 0.59936 0.26249 0.83504 0.0
O48 O 0.57552 0.24979 0.81811 0.0
O49 O 0.55519 0.22 0.91143 0.0
O50 O 0.50979 0.21417 0.93475 0.0
O51 O 0.5107 0.29015 0.84261 0.0
O52 O 0.49104 0.25728 0.87605 0.0
C53 C 0.53837 0.20527 0.93059 0.0
C54 C 0.48584 0.27717 0.85405 0.0
O55 O 0.59396 0.27086 0.86221 0.0
Mg56 Mg 0.16951 0.01856 0.26213 0.0
O57 O 0.20238 0.06645 0.26226 0.0
O58 O 0.22953 0.06874 0.30624 0.0
Mg59 Mg 0.21596 0.02263 0.33309 0.0
C60 C 0.22284 0.0808 0.28074 0.0
C61 C 0.13028 0.00713 0.20538 0.0
O62 O 0.11581 0.99011 0.22575 0.0
O63 O 0.21133 0.98363 0.25314 0.0
O64 O 0.23653 0.986 0.2979 0.0
O65 O 0.13232 0.04946 0.28465 0.0
O66 O 0.17011 0.0212 0.3084 0.0
C67 C 0.23392 0.97457 0.27084 0.0
C68 C 0.14616 0.04147 0.30965 0.0
O69 O 0.15627 0.02271 0.21286 0.0
Mg70 Mg 0.31097 0.91816 0.56941 0.0
O71 O 0.31226 0.88136 0.52739 0.0
O72 O 0.35565 0.84898 0.53282 0.0
Mg73 Mg 0.38224 0.86416 0.5767 0.0
C74 C 0.33087 0.85777 0.51786 0.0
C75 C 0.2399 0.94257 0.57896 0.0
O76 O 0.25088 0.94163 0.6067 0.0
O77 O 0.29596 0.87317 0.5993 0.0
O78 O 0.34128 0.84432 0.6038 0.0
O79 O 0.34109 0.95663 0.54596 0.0
O80 O 0.36128 0.91601 0.57362 0.0
C81 C 0.3124 0.84854 0.61023 0.0
C82 C 0.36601 0.94067 0.5557 0.0
O83 O 0.25831 0.9337 0.55823 0.0
Mg84 Mg 0.42729 0.02246 0.75362 0.0
O85 O 0.39127 0.97592 0.75564 0.0
O86 O 0.37165 0.98215 0.80113 0.0
Mg87 Mg 0.39322 0.02895 0.82717 0.0
C88 C 0.3732 0.96576 0.77599 0.0
C89 C 0.46804 0.02037 0.70314 0.0
O90 O 0.48465 0.02755 0.72803 0.0
O91 O 0.38748 0.06207 0.74726 0.0
O92 O 0.37054 0.06549 0.79367 0.0
O93 O 0.46463 0.98888 0.77259 0.0
O94 O 0.43412 0.02263 0.79954 0.0
C95 C 0.36947 0.07519 0.7668 0.0
C96 C 0.45615 -0.00015 0.79852 0.0
O97 O 0.43805 0.01643 0.70417 0.0
Mg98 Mg 0.30946 0.06109 0.01516 0.0
O99 O 0.33118 0.09929 0.05046 0.0
O100 O 0.3794 0.11726 0.03853 0.0
Mg101 Mg 0.3896 0.09191 0.99298 0.0
C102 C 0.35634 0.11754 0.05597 0.0
C103 C 0.28506 0.00249 0.05577 0.0
O104 O 0.28577 0.97893 0.07613 0.0
O105 O 0.30098 0.10726 0.98576 0.0
O106 O 0.34956 0.1241 0.97424 0.0
O107 O 0.34152 0.01764 0.03441 0.0
O108 O 0.35558 0.04989 -0.00095 0.0
C109 C 0.31961 0.12787 0.97315 0.0
C110 C 0.36262 0.0259 0.01632 0.0
O111 O 0.31106 0.01535 0.04735 0.0
Mg112 Mg 0.79871 0.42362 0.07529 0.0
O113 O 0.80048 0.38859 0.03207 0.0
O114 O 0.84489 0.35772 0.03682 0.0
Mg115 Mg 0.86992 0.3705 0.0821 0.0
C116 C 0.82027 0.36673 0.02169 0.0
C117 C 0.73768 0.46752 0.05911 0.0
O118 O 0.76 0.49111 0.05651 0.0
O119 O 0.78375 0.37779 0.10389 0.0
O120 O 0.82861 0.34827 0.10795 0.0
O121 O 0.8271 0.46424 0.05272 0.0
O122 O 0.8491 0.42263 0.07829 0.0
C123 C 0.79961 0.35242 0.11403 0.0
C124 C 0.85256 0.44824 0.06093 0.0
O125 O 0.74575 0.43694 0.066 0.0
Mg126 Mg 0.92596 0.51414 0.2571 0.0
O127 O 0.88844 0.46912 0.25891 0.0
O128 O 0.87223 0.4739 0.30586 0.0
Mg129 Mg 0.89883 0.51678 0.33332 0.0
C130 C 0.87117 0.45905 0.27989 0.0
C131 C 0.95158 0.53595 0.20059 0.0
O132 O 0.96222 0.55777 0.22207 0.0
O133 O 0.88742 0.55601 0.25724 0.0
O134 O 0.87542 0.55804 0.30506 0.0
O135 O 0.96389 0.4773 0.26948 0.0
O136 O 0.93621 0.50764 0.30184 0.0
C137 C 0.87233 0.56939 0.27884 0.0
C138 C 0.9568 0.48387 0.29679 0.0
O139 O 0.93066 0.51345 0.20667 0.0
Mg140 Mg 0.82678 0.59239 0.51457 0.0
O141 O 0.83609 0.62476 0.55792 0.0
O142 O 0.88328 0.65142 0.55598 0.0
Mg143 Mg 0.90451 0.63477 0.51207 0.0
C144 C 0.85769 0.64552 0.5691 0.0
C145 C 0.7574 0.5863 0.49928 0.0
O146 O 0.77058 0.58419 0.47334 0.0
O147 O 0.81759 0.64273 0.49323 0.0
O148 O 0.86531 0.66761 0.49037 0.0
O149 O 0.85011 0.54541 0.5324 0.0
O150 O 0.87392 0.58829 0.50993 0.0
C151 C 0.83519 0.66782 0.48614 0.0
C152 C 0.87582 0.55975 0.52366 0.0
O153 O 0.77499 0.58809 0.52292 0.0
Mg154 Mg 0.65144 0.52819 0.75645 0.0
O155 O 0.68317 0.5784 0.75957 0.0
O156 O 0.70932 0.57626 0.80384 0.0
Mg157 Mg 0.69769 0.527 0.82737 0.0
C158 C 0.70233 0.59176 0.77993 0.0
C159 C 0.60417 0.52839 0.70594 0.0
O160 O 0.59072 0.51542 0.72894 0.0
O161 O 0.69336 0.49247 0.74516 0.0
O162 O 0.71738 0.49228 0.79038 0.0
O163 O 0.61444 0.55727 0.78019 0.0
O164 O 0.65194 0.52751 0.80285 0.0
C165 C 0.71518 0.4817 0.76308 0.0
C166 C 0.62819 0.54802 0.80477 0.0
O167 O 0.63369 0.53596 0.70844 0.0
Mg168 Mg 0.97298 0.81634 0.87566 0.0
O169 O 0.9908 0.86014 0.9071 0.0
O170 O 0.95386 0.86429 0.9412 0.0
Mg171 Mg 0.90848 0.83578 0.92519 0.0
C172 C 0.98145 0.87097 0.93228 0.0
C173 C 0.0351 0.83589 0.84837 0.0
O174 O 0.01958 0.86524 0.84763 0.0
O175 O 0.98027 0.78134 0.91421 0.0
O176 O 0.93663 0.7893 0.94042 0.0
O177 O 0.95021 0.85087 0.84304 0.0
O178 O 0.92696 0.82867 0.88102 0.0
C179 C 0.96287 0.77428 0.93578 0.0
C180 C 0.92472 0.84653 0.85756 0.0
O181 O 0.0224 0.80976 0.85979 0.0
Mg182 Mg 0.03335 0.27797 0.67461 0.0
O183 O 0.03455 0.22416 0.64775 0.0
O184 O 0.9941 0.22414 0.61424 0.0
Mg185 Mg 0.96235 0.27151 0.6253 0.0
C186 C 0.01887 0.20996 0.62535 0.0
C187 C 0.09749 0.26565 0.71371 0.0
O188 O 0.07687 0.25933 0.73394 0.0
O189 O 0.04502 0.31033 0.63381 0.0
O190 O -0.00105 0.3099 0.60742 0.0
O191 O 0.00332 0.25803 0.71194 0.0
O192 O 0.98276 0.28004 0.67165 0.0
C193 C 0.02754 0.32079 0.61203 0.0
C194 C 0.97813 0.26793 0.69742 0.0
O195 O 0.08712 0.27313 0.68773 0.0
Mg196 Mg 0.48044 0.3162 0.4007 0.0
O197 O 0.47877 0.36412 0.43145 0.0
O198 O 0.43258 0.36171 0.45363 0.0
Mg199 Mg 0.40231 0.31719 0.43234 0.0
C200 C 0.45979 0.37562 0.45068 0.0
C201 C 0.54414 0.34778 0.38378 0.0
O202 O 0.52534 0.3737 0.37757 0.0
O203 O 0.48539 0.28458 0.44127 0.0
O204 O 0.43583 0.28068 0.45674 0.0
O205 O 0.46086 0.34202 0.36112 0.0
O206 O 0.43248 0.31542 0.39388 0.0
C207 C 0.46513 0.27287 0.45869 0.0
C208 C 0.43347 0.33167 0.36948 0.0
O209 O 0.53308 0.32178 0.39665 0.0
Mg210 Mg 0.53976 0.77999 0.17654 0.0
O211 O 0.53901 0.72848 0.14666 0.0
O212 O 0.49678 0.73146 0.11533 0.0
Mg213 Mg 0.46756 0.77964 0.12782 0.0
C214 C 0.52161 0.7159 0.12466 0.0
C215 C 0.60326 0.7685 0.2167 0.0
O216 O 0.58217 0.76743 0.23729 0.0
O217 O 0.55196 0.81465 0.13703 0.0
O218 O 0.50573 0.8163 0.11103 0.0
O219 O 0.50985 0.75699 0.21261 0.0
O220 O 0.48929 0.78223 0.1737 0.0
C221 C 0.53454 0.82623 0.11565 0.0
C222 C 0.48467 0.76705 0.19818 0.0
O223 O 0.5935 0.77266 0.18981 0.0
Mg224 Mg 0.9117 0.02985 0.81514 0.0
O225 O 0.87471 0.98649 0.80603 0.0
O226 O 0.84026 0.99126 0.84192 0.0
Mg227 Mg 0.86049 0.03068 0.87789 0.0
C228 C 0.84866 0.97788 0.81709 0.0
C229 C 0.93361 0.99198 0.75817 0.0
O230 O 0.93153 0.96589 0.77601 0.0
O231 O 0.87398 0.0691 0.80337 0.0
O232 O 0.84717 0.07321 0.84524 0.0
O233 O 0.94564 -0.00241 0.84086 0.0
O234 O 0.90896 0.0298 0.86124 0.0
C235 C 0.8527 0.08306 0.81908 0.0
C236 C 0.9331 0.01 0.86476 0.0
O237 O 0.92592 0.02217 0.76755 0.0
Mg238 Mg 0.80326 0.1032 0.4811 0.0
O239 O 0.80375 0.13888 0.52237 0.0
O240 O 0.84662 0.17301 0.52565 0.0
Mg241 Mg 0.87586 0.15697 0.48536 0.0
C242 C 0.82029 0.16309 0.53558 0.0
C243 C 0.74467 0.0784 0.51534 0.0
O244 O 0.76832 0.07011 0.53351 0.0
O245 O 0.79115 0.14945 0.45118 0.0
O246 O 0.83764 0.17802 0.45327 0.0
O247 O 0.83279 0.06289 0.50508 0.0
O248 O 0.85299 0.10496 0.48001 0.0
C249 C 0.80906 0.17418 0.44302 0.0
C250 C 0.85769 0.07822 0.49572 0.0
O251 O 0.75087 0.09169 0.49066 0.0
Mg252 Mg 0.65246 -0.00106 0.31333 0.0
O253 O 0.67321 0.05376 0.31164 0.0
O254 O 0.70976 0.06151 0.34841 0.0
Mg255 Mg 0.70534 0.01397 0.37794 0.0
C256 C 0.6948 0.07206 0.32532 0.0
C257 C 0.61848 0.03317 0.2622 0.0
O258 O 0.60976 0.05161 0.28559 0.0
O259 O 0.69898 0.9746 0.29922 0.0
O260 O 0.72819 0.97938 0.34176 0.0
O261 O 0.61273 0.01765 0.33997 0.0
O262 O 0.65723 -0.00246 0.35987 0.0
C263 C 0.7242 0.96817 0.31465 0.0
C264 C 0.62939 0.01003 0.36358 0.0
O265 O 0.63604 0.00697 0.26593 0.0
Mg266 Mg 0.75105 0.83586 0.05681 0.0
O267 O 0.74556 0.86483 0.01147 0.0
O268 O 0.78661 0.85206 0.98265 0.0
Mg269 Mg 0.82343 0.82217 0.00921 0.0
C270 C 0.75982 0.86616 0.98671 0.0
C271 C 0.71738 0.90499 0.05354 0.0
O272 O 0.71925 0.89854 0.08203 0.0
O273 O 0.74379 0.79095 0.02281 0.0
O274 O 0.788 0.77586 0.00441 0.0
O275 O 0.7804 0.87786 0.08376 0.0
O276 O 0.80046 0.84546 0.0494 0.0
C277 C 0.76918 0.77364 0.0255 0.0
C278 C 0.80459 0.87005 0.06894 0.0
O279 O 0.72755 0.88225 0.03486 0.0
Mg280 Mg 0.29196 0.6008 0.97851 0.0
O281 O 0.29512 0.63538 0.02047 0.0
O282 O 0.33968 0.6674 0.02244 0.0
Mg283 Mg 0.36818 0.64928 0.98248 0.0
C284 C 0.31336 0.65861 0.03299 0.0
C285 C 0.23324 0.57543 0.01231 0.0
O286 O 0.25731 0.56597 0.02945 0.0
O287 O 0.28235 0.64912 0.94913 0.0
O288 O 0.33098 0.67288 0.95177 0.0
O289 O 0.32026 0.55841 0.00195 0.0
O290 O 0.34153 0.5999 0.97706 0.0
C291 C 0.30233 0.67229 0.94153 0.0
C292 C 0.3455 0.57297 0.99256 0.0
O293 O 0.239 0.59093 0.98849 0.0
Mg294 Mg 0.15471 0.51045 0.82119 0.0
O295 O 0.18064 0.56248 0.81897 0.0
O296 O 0.21533 0.56821 0.8573 0.0
Mg297 Mg 0.20456 0.52311 0.88801 0.0
C298 C 0.20333 0.57893 0.83286 0.0
C299 C 0.12964 0.54448 0.76481 0.0
O300 O 0.12054 0.56695 0.7854 0.0
O301 O 0.1997 0.48119 0.81072 0.0
O302 O 0.22666 0.48431 0.85457 0.0
O303 O 0.11454 0.53345 0.84549 0.0
O304 O 0.15643 0.51049 0.86762 0.0
C305 C 0.22316 0.47256 0.82758 0.0
C306 C 0.12899 0.52441 0.86993 0.0
O307 O 0.1429 0.51662 0.77254 0.0
Mg308 Mg 0.25346 0.38438 0.54109 0.0
O309 O 0.24281 0.38844 0.49157 0.0
O310 O 0.28988 0.4006 0.47323 0.0
Mg311 Mg 0.32515 0.4199 0.51098 0.0
C312 C 0.26047 0.39256 0.46965 0.0
C313 C 0.18349 0.35691 0.54165 0.0
O314 O 0.16019 0.33451 0.54423 0.0
O315 O 0.2854 0.33913 0.53008 0.0
O316 O 0.33182 0.36681 0.53196 0.0
O317 O 0.23698 0.4389 0.55312 0.0
O318 O 0.28471 0.42499 0.5395 0.0
C319 C 0.31509 0.33982 0.53651 0.0
C320 C 0.26542 0.44852 0.5476 0.0
O321 O 0.2119 0.34713 0.545 0.0
Mg322 Mg 0.40351 0.53031 0.31744 0.0
O323 O 0.37922 0.47838 0.30735 0.0
O324 O 0.33575 0.47977 0.33344 0.0
Mg325 Mg 0.34267 0.52107 0.37119 0.0
C326 C 0.35188 0.46674 0.31256 0.0
C327 C 0.44978 0.53565 0.26472 0.0
O328 O 0.4639 0.55928 0.28275 0.0
O329 O 0.36077 0.55819 0.29788 0.0
O330 O 0.32871 0.55973 0.33627 0.0
O331 O 0.43834 0.51016 0.35099 0.0
O332 O 0.39248 0.53296 0.36197 0.0
C333 C 0.33603 0.56921 0.31051 0.0
C334 C 0.41903 0.52043 0.3711 0.0
O335 O 0.42474 0.52077 0.27257 0.0
C336 C 0.0018 0.02467 0.9796 0.0
N337 N 0.9724 0.9916 0.06165 0.0
C338 C 0.94369 0.00411 0.05281 0.0
C339 C 0.91606 0.98625 0.05914 0.0
C340 C 0.91827 0.95541 0.07464 0.0
C341 C 0.94798 0.94471 0.08559 0.0
C342 C 0.97497 0.96321 0.07864 0.0
Zn343 Zn 0.01216 0.01153 0.04517 0.0
C344 C 0.04815 0.95572 0.01649 0.0
N345 N 0.09668 0.04991 0.00921 0.0
C346 C 0.1125 0.0738 0.02763 0.0
C347 C 0.11234 0.02994 0.9891 0.0
C348 C 0.14541 0.02907 0.99079 0.0
C349 C 0.16217 0.04972 0.0128 0.0
C350 C 0.14548 0.07433 0.0296 0.0
Zn351 Zn 0.05453 0.0319 0.02399 0.0
O352 O 0.98864 0.01426 0.00259 0.0
C353 C 0.01543 0.0872 0.0517 0.0
O354 O 0.03029 0.03606 0.98187 0.0
H355 H 0.09941 0.01137 0.97436 0.0
H356 H 0.94229 0.0268 0.03939 0.0
H357 H 0.09989 0.0892 0.04375 0.0
O358 O -0.00164 0.06101 0.05679 0.0
O359 O 0.04094 0.08297 0.03803 0.0
H360 H -0.00195 0.95376 0.08541 0.0
O361 O 0.07865 0.02624 0.06631 0.0
O362 O 0.0359 0.00827 0.08704 0.0
O363 O 0.06612 0.98062 0.00991 0.0
O364 O 0.02552 0.96185 0.03336 0.0
C365 C 0.06512 0.0163 0.0892 0.0
H366 H 0.89345 0.99516 0.05034 0.0
H367 H 0.95041 0.92127 0.09803 0.0
H368 H 0.15727 0.00961 0.97741 0.0
H369 H 0.1576 0.09105 0.04652 0.0
C370 C 0.35793 0.77122 0.24834 0.0
N371 N 0.27223 0.75631 0.19971 0.0
C372 C 0.28969 0.77294 0.17977 0.0
C373 C 0.29157 0.75931 0.15078 0.0
C374 C 0.27462 0.72875 0.14192 0.0
C375 C 0.2534 0.71494 0.16182 0.0
C376 C 0.253 0.72884 0.19102 0.0
Zn377 Zn 0.28485 0.76652 0.24348 0.0
C378 C 0.29784 0.70255 0.27486 0.0
N379 N 0.31754 0.78821 0.33372 0.0
C380 C 0.33475 0.81724 0.34257 0.0
C381 C 0.30412 0.76793 0.35406 0.0
C382 C 0.30703 0.77699 0.38443 0.0
C383 C 0.32351 0.80748 0.39403 0.0
C384 C 0.33784 0.82755 0.37279 0.0
Zn385 Zn 0.3048 0.77786 0.2895 0.0
O386 O 0.33337 0.76708 0.23119 0.0
C387 C 0.29059 0.84222 0.25777 0.0
O388 O 0.3541 0.77705 0.27612 0.0
H389 H 0.2898 0.74549 0.34671 0.0
H390 H 0.30468 0.79489 0.18706 0.0
H391 H 0.34501 0.83322 0.32613 0.0
O392 O 0.28115 0.82034 0.23732 0.0
O393 O 0.30226 0.83138 0.28215 0.0
H394 H 0.23918 0.71612 0.20724 0.0
O395 O 0.25588 0.77783 0.30219 0.0
O396 O 0.2365 0.76523 0.25705 0.0
O397 O 0.30637 0.72437 0.29566 0.0
O398 O 0.28834 0.71286 0.24966 0.0
C399 C 0.23191 0.77129 0.28464 0.0
H400 H 0.30813 0.7711 0.13634 0.0
H401 H 0.23867 0.6924 0.15552 0.0
H402 H 0.29531 0.76113 0.40014 0.0
H403 H 0.3508 0.85125 0.37947 0.0
C404 C 0.53878 0.02122 0.59541 0.0
N405 N 0.58494 0.94074 0.55203 0.0
C406 C 0.60294 0.94156 0.57788 0.0
C407 C 0.61111 0.91087 0.59127 0.0
C408 C 0.60078 0.87901 0.57785 0.0
C409 C 0.58589 0.87875 0.54922 0.0
C410 C 0.57763 0.91028 0.5368 0.0
Zn411 Zn 0.5654 0.98659 0.54133 0.0
C412 C 0.4951 0.98186 0.52882 0.0
N413 N 0.52732 0.08415 0.52474 0.0
C414 C 0.53652 0.11137 0.54351 0.0
C415 C 0.50641 0.08796 0.50135 0.0
C416 C 0.49434 0.12059 0.49572 0.0
C417 C 0.50412 0.1492 0.51431 0.0
C418 C 0.52509 0.14444 0.53867 0.0
Zn419 Zn 0.54536 0.03758 0.53253 0.0
O420 O 0.55351 0.99435 0.58684 0.0
C421 C 0.61538 0.04253 0.5441 0.0
O422 O 0.53417 0.04528 0.5774 0.0
H423 H 0.49951 0.06579 0.48686 0.0
H424 H 0.60877 0.96609 0.5895 0.0
H425 H 0.55303 0.10748 0.56208 0.0
O426 O 0.61105 0.01047 0.5484 0.0
O427 O 0.5914 0.06122 0.53883 0.0
H428 H 0.5636 0.91039 0.5161 0.0
O429 O 0.55558 0.03015 0.4875 0.0
O430 O 0.57674 0.97941 0.49554 0.0
O431 O 0.49977 0.01414 0.52556 0.0
O432 O 0.51892 0.96267 0.53418 0.0
C433 C 0.57031 0.00372 0.47791 0.0
H434 H 0.62257 0.91236 0.61333 0.0
H435 H 0.57834 0.85456 0.53777 0.0
H436 H 0.47839 0.12367 0.47651 0.0
H437 H 0.53289 0.16612 0.55343 0.0
C438 C 0.30729 0.20738 0.76264 0.0
N439 N 0.27159 0.25708 0.83768 0.0
C440 C 0.25658 0.22594 0.84012 0.0
C441 C 0.2557 0.21096 0.86772 0.0
C442 C 0.26996 0.22866 0.8928 0.0
C443 C 0.28017 0.26323 0.89035 0.0
C444 C 0.28153 0.27678 0.86217 0.0
Zn445 Zn 0.28616 0.26963 0.79721 0.0
C446 C 0.35678 0.28435 0.80015 0.0
N447 N 0.31775 0.29434 0.71238 0.0
C448 C 0.34395 0.27863 0.70172 0.0
C449 C 0.29798 0.31263 0.69445 0.0
C450 C 0.30312 0.31389 0.66416 0.0
C451 C 0.32898 0.29645 0.65232 0.0
C452 C 0.35017 0.27952 0.67146 0.0
Zn453 Zn 0.30327 0.28393 0.75365 0.0
O454 O 0.29476 0.2166 0.7868 0.0
C455 C 0.2323 0.2688 0.7522 0.0
O456 O 0.31321 0.23043 0.74419 0.0
H457 H 0.27733 0.32488 0.70338 0.0
H458 H 0.24813 0.21113 0.82034 0.0
H459 H 0.35919 0.26399 0.7164 0.0
O460 O 0.23891 0.26425 0.77958 0.0
O461 O 0.2548 0.27641 0.73552 0.0
H462 H 0.29316 0.30161 0.85974 0.0
O463 O 0.29327 0.33777 0.76341 0.0
O464 O 0.27836 0.32235 0.80725 0.0
O465 O 0.35122 0.29111 0.77287 0.0
O466 O 0.33374 0.27485 0.81533 0.0
C467 C 0.28309 0.34596 0.78896 0.0
H468 H 0.24726 0.18435 0.86873 0.0
H469 H 0.2904 0.27806 0.90947 0.0
H470 H 0.28661 0.32768 0.64994 0.0
H471 H 0.37043 0.26601 0.66292 0.0
C472 C 0.11139 0.99386 0.55197 0.0
N473 N 0.07047 0.04444 0.47834 0.0
C474 C 0.09752 0.06394 0.47827 0.0
C475 C 0.10937 0.0739 0.45132 0.0
C476 C 0.093 0.06387 0.42444 0.0
C477 C 0.06412 0.04573 0.42538 0.0
C478 C 0.05329 0.03611 0.45271 0.0
Zn479 Zn 0.05668 0.023 0.51629 0.0
C480 C 0.04317 0.94505 0.50487 0.0
N481 N 0.0255 0.97728 0.59401 0.0
C482 C 0.04165 0.98796 0.61964 0.0
C483 C 0.99718 0.96011 0.59441 0.0
C484 C 0.98255 0.9562 0.62138 0.0
C485 C 0.99741 0.97022 0.6477 0.0
C486 C 0.02792 0.98466 0.64695 0.0
Zn487 Zn 0.04005 -0.00236 0.55594 0.0
O488 O 0.10539 0.01102 0.52878 0.0
C489 C 0.05134 0.07595 0.56694 0.0
O490 O 0.08845 0.98557 0.56784 0.0
H491 H 0.98476 0.95206 0.57369 0.0
H492 H 0.1107 0.07029 0.49897 0.0
H493 H 0.06395 0.00187 0.61877 0.0
O494 O 0.0594 0.07362 0.53992 0.0
O495 O 0.04387 0.0481 0.57945 0.0
H496 H 0.03202 0.0203 0.45327 0.0
O497 O 0.99181 0.00983 0.54382 0.0
O498 O 0.00861 0.03443 0.50442 0.0
O499 O 0.03549 0.94779 0.53199 0.0
O500 O 0.05275 0.97235 0.49264 0.0
C501 C 0.98581 0.02665 0.52053 0.0
H502 H 0.13188 0.08768 0.45134 0.0
H503 H 0.05123 0.03677 0.40511 0.0
H504 H 0.95888 0.94507 0.62138 0.0
H505 H 0.03988 0.99573 0.667 0.0
C506 C 0.2806 0.77404 0.71526 0.0
N507 N 0.35162 0.73138 0.77168 0.0
C508 C 0.35963 0.71113 0.74772 0.0
C509 C 0.39072 0.69961 0.74539 0.0
C510 C 0.4135 0.70824 0.76833 0.0
C511 C 0.40401 0.72764 0.79341 0.0
C512 C 0.37312 0.73955 0.79436 0.0
Zn513 Zn 0.30758 0.75244 0.7742 0.0
C514 C 0.31224 0.82974 0.77963 0.0
N515 N 0.21751 0.79735 0.78292 0.0
C516 C 0.19228 0.7845 0.76599 0.0
C517 C 0.21398 0.82158 0.80537 0.0
C518 C 0.18387 0.83238 0.81267 0.0
C519 C 0.15732 0.81794 0.79677 0.0
C520 C 0.16169 0.79444 0.77267 0.0
Zn521 Zn 0.26058 0.77598 0.77867 0.0
O522 O 0.30359 0.7574 0.7269 0.0
C523 C 0.25688 0.69852 0.77548 0.0
O524 O 0.25812 0.78335 0.73162 0.0
H525 H 0.23441 0.83108 0.81871 0.0
H526 H 0.34223 0.70492 0.72991 0.0
H527 H 0.19577 0.76521 0.74831 0.0
O528 O 0.28653 0.70227 0.7727 0.0
O529 O 0.23933 0.72514 0.7747 0.0
H530 H 0.36673 0.75627 0.81296 0.0
O531 O 0.26271 0.76819 0.82559 0.0
O532 O 0.31054 0.74812 0.82122 0.0
O533 O 0.2827 0.82659 0.78343 0.0
O534 O 0.32863 0.80254 0.77645 0.0
C535 C 0.28718 0.75456 0.83725 0.0
H536 H 0.39709 0.68561 0.72519 0.0
H537 H 0.42066 0.73481 0.81168 0.0
H538 H 0.18131 0.85008 0.83175 0.0
H539 H 0.14161 0.7828 0.76 0.0
C540 C 0.56018 0.94862 0.04773 0.0
N541 N 0.56797 0.05033 0.08196 0.0
C542 C 0.547 0.04062 0.10231 0.0
C543 C 0.55342 0.0479 0.13246 0.0
C544 C 0.58195 0.06467 0.14165 0.0
C545 C 0.60203 0.07687 0.12024 0.0
C546 C 0.59432 0.06966 0.09014 0.0
Zn547 Zn 0.56353 0.02679 0.04098 0.0
C548 C 0.62683 0.00444 0.0195 0.0
N549 N 0.55589 0.97267 0.95772 0.0
C550 C 0.53154 0.94928 0.95348 0.0
C551 C 0.57098 0.98574 0.93444 0.0
C552 C 0.55858 0.97936 0.90553 0.0
C553 C 0.53061 0.95958 0.90115 0.0
C554 C 0.51827 0.9424 0.92499 0.0
Zn555 Zn 0.56136 -0.00258 -0.00203 0.0
O556 O 0.56181 0.97776 0.06207 0.0
C557 C 0.49766 0.01514 0.02027 0.0
O558 O 0.55922 0.94832 0.0194 0.0
H559 H 0.59026 0.0043 0.93848 0.0
H560 H 0.52662 0.02455 0.09552 0.0
H561 H 0.51991 0.93935 0.97241 0.0
O562 O 0.51367 0.03002 0.04174 0.0
O563 O 0.51206 0.00071 -0.00091 0.0
H564 H 0.61063 0.07707 0.07355 0.0
O565 O 0.56311 0.04755 0.97688 0.0
O566 O 0.56509 0.07596 0.02011 0.0
O567 O 0.61019 0.99289 -0.00296 0.0
O568 O 0.61343 0.02148 0.04012 0.0
C569 C 0.5642 0.07648 0.99178 0.0
H570 H 0.53779 0.0375 0.14851 0.0
H571 H 0.62439 0.08963 0.12681 0.0
H572 H 0.56821 0.99336 0.88745 0.0
H573 H 0.49634 0.9275 0.92218 0.0
C574 C 0.26857 0.21815 0.25656 0.0
N575 N 0.32766 0.26357 0.19703 0.0
C576 C 0.34713 0.23648 0.20282 0.0
C577 C 0.35921 0.21653 0.17943 0.0
C578 C 0.35086 0.22454 0.15004 0.0
C579 C 0.33347 0.25468 0.14475 0.0
C580 C 0.32212 0.27412 0.1688 0.0
Zn581 Zn 0.29855 0.27977 0.22959 0.0
C582 C 0.23174 0.28604 0.20627 0.0
N583 N 0.23633 0.30883 0.29807 0.0
C584 C 0.23967 0.29065 0.32335 0.0
C585 C 0.22259 0.34068 0.29836 0.0
C586 C 0.21584 0.35744 0.32547 0.0
C587 C 0.22265 0.34063 0.35205 0.0
C588 C 0.2326 0.30606 0.35071 0.0
Zn589 Zn 0.26417 0.29373 0.26393 0.0
O590 O 0.28793 0.2262 0.23703 0.0
C591 C 0.33053 0.29085 0.28774 0.0
O592 O 0.25529 0.24194 0.27152 0.0
H593 H 0.2199 0.35464 0.27802 0.0
H594 H 0.35083 0.22824 0.2254 0.0
H595 H 0.25123 0.26577 0.32298 0.0
O596 O 0.33646 0.28098 0.2613 0.0
O597 O 0.30214 0.29554 0.29449 0.0
H598 H 0.30651 0.29564 0.16474 0.0
O599 O 0.27355 0.34473 0.25651 0.0
O600 O 0.30964 0.33368 0.22399 0.0
O601 O 0.22705 0.29331 0.23347 0.0
O602 O 0.25941 0.27932 0.1979 0.0
C603 C 0.29514 0.35546 0.24043 0.0
H604 H 0.3722 0.19316 0.18425 0.0
H605 H 0.32656 0.26144 0.12224 0.0
H606 H 0.20804 0.38415 0.32583 0.0
H607 H 0.23841 0.29249 0.37086 0.0
C608 C 0.6036 0.50376 0.04472 0.0
N609 N 0.55611 0.55013 0.97413 0.0
C610 C 0.58159 0.57197 0.97335 0.0
C611 C 0.5923 0.58212 0.94609 0.0
C612 C 0.57627 0.56997 0.9197 0.0
C613 C 0.54875 0.54956 0.92126 0.0
C614 C 0.5391 0.53971 0.94892 0.0
Zn615 Zn 0.54537 0.52915 0.01288 0.0
C616 C 0.53488 0.45026 0.00334 0.0
N617 N 0.52251 0.48508 0.09438 0.0
C618 C 0.54359 0.49419 0.11722 0.0
C619 C 0.4924 0.47487 0.09977 0.0
C620 C 0.48148 0.47774 0.1287 0.0
C621 C 0.50191 0.49096 0.15204 0.0
C622 C 0.53382 0.49689 0.14638 0.0
Zn623 Zn 0.53315 0.50299 0.05361 0.0
O624 O 0.59427 0.52188 0.02313 0.0
C625 C 0.54343 0.58195 0.06241 0.0
O626 O 0.58301 0.49165 0.06153 0.0
H627 H 0.47592 0.46774 0.08141 0.0
H628 H 0.59459 0.58002 0.99376 0.0
H629 H 0.56718 0.50304 0.11274 0.0
O630 O 0.5469 0.5798 0.03447 0.0
O631 O 0.53901 0.55408 0.07602 0.0
H632 H 0.51905 0.52218 0.95012 0.0
O633 O 0.48332 0.51453 0.04417 0.0
O634 O 0.49705 0.53646 0.00256 0.0
O635 O 0.52736 0.45232 0.0306 0.0
O636 O 0.54328 0.47803 0.99113 0.0
C637 C 0.47544 0.52892 0.01998 0.0
H638 H 0.61382 0.59763 0.94552 0.0
H639 H 0.53627 0.53909 0.90125 0.0
H640 H 0.45672 0.47253 0.13229 0.0
H641 H 0.55049 0.50623 0.16397 0.0
C642 C 0.76385 0.27537 0.2161 0.0
N643 N 0.83353 0.22146 0.26416 0.0
C644 C 0.85289 0.23025 0.24226 0.0
C645 C 0.87944 0.21044 0.23667 0.0
C646 C 0.88613 0.18157 0.25394 0.0
C647 C 0.8655 0.17257 0.27593 0.0
C648 C 0.83903 0.19295 0.2806 0.0
Zn649 Zn 0.79488 0.25007 0.2724 0.0
C650 C 0.80628 0.32487 0.27986 0.0
N651 N 0.71051 0.30195 0.29162 0.0
C652 C 0.6817 0.29264 0.27898 0.0
C653 C 0.71343 0.32548 0.31508 0.0
C654 C 0.68659 0.339 0.32796 0.0
C655 C 0.65666 0.32769 0.31681 0.0
C656 C 0.65421 0.30514 0.29147 0.0
Zn657 Zn 0.74969 0.27522 0.28069 0.0
O658 O 0.78588 0.25628 0.22616 0.0
C659 C 0.73914 0.1999 0.27499 0.0
O660 O 0.74328 0.28662 0.23397 0.0
H661 H 0.73652 0.33195 0.32519 0.0
H662 H 0.84803 0.25297 0.2295 0.0
H663 H 0.68001 0.2738 0.26044 0.0
O664 O 0.76866 0.20305 0.2718 0.0
O665 O 0.72268 0.22733 0.27637 0.0
H666 H 0.82312 0.1862 0.29772 0.0
O667 O 0.75672 0.26356 0.32693 0.0
O668 O 0.80428 0.24473 0.31861 0.0
O669 O 0.77717 0.32233 0.28562 0.0
O670 O 0.82133 0.29738 0.27339 0.0
C671 C 0.78242 0.25043 0.33653 0.0
H672 H 0.89537 0.21848 0.2199 0.0
H673 H 0.87024 0.15063 0.28974 0.0
H674 H 0.6892 0.35591 0.3478 0.0
H675 H 0.6313 0.29583 0.28251 0.0
C676 C 0.05962 0.44411 0.54667 0.0
N677 N 0.08244 0.54391 0.58149 0.0
C678 C 0.0618 0.53715 0.60299 0.0
C679 C 0.06979 0.54575 0.63268 0.0
C680 C 0.09948 0.56083 0.64026 0.0
C681 C 0.11956 0.56966 0.61762 0.0
C682 C 0.11039 0.56102 0.58803 0.0
Zn683 Zn 0.07313 0.52132 0.54065 0.0
C684 C 0.13002 0.48773 0.51656 0.0
N685 N 0.05365 0.46983 0.45697 0.0
C686 C 0.03175 0.44355 0.45425 0.0
C687 C 0.06647 0.48323 0.43263 0.0
C688 C 0.05412 0.47367 0.40426 0.0
C689 C 0.02906 0.44928 0.40098 0.0
C690 C 0.01984 0.432 0.42618 0.0
Zn691 Zn 0.06352 0.49366 0.49736 0.0
O692 O 0.06581 0.47224 0.56174 0.0
C693 C 0.0054 0.52047 0.52401 0.0
O694 O 0.05751 0.44515 0.51846 0.0
H695 H 0.08461 0.50328 0.43522 0.0
H696 H 0.03998 0.52297 0.59742 0.0
H697 H 0.02188 0.43304 0.47379 0.0
O698 O 0.02524 0.53267 0.54375 0.0
O699 O 0.01508 0.50338 0.50155 0.0
H700 H 0.12639 0.56606 0.57051 0.0
O701 O 0.06894 0.54363 0.47663 0.0
O702 O 0.07947 0.57071 0.5197 0.0
O703 O 0.11136 0.48202 0.49395 0.0
O704 O 0.1211 0.50763 0.53774 0.0
C705 C 0.07497 0.57196 0.49154 0.0
H706 H 0.05397 0.53819 0.64971 0.0
H707 H 0.14268 0.58133 0.62291 0.0
H708 H 0.06231 0.48755 0.3855 0.0
H709 H 0.00175 0.41177 0.42455 0.0
C710 C 0.81243 0.70435 0.27471 0.0
N711 N 0.78095 0.77058 0.34191 0.0
C712 C 0.76408 0.74298 0.35097 0.0
C713 C 0.76392 0.73613 0.38111 0.0
C714 C 0.78111 0.75817 0.4018 0.0
C715 C 0.79435 0.78911 0.39213 0.0
C716 C 0.79437 0.79462 0.36176 0.0
Zn717 Zn 0.79287 0.77163 0.29909 0.0
C718 C 0.86477 0.78398 0.29788 0.0
N719 N 0.81999 0.7776 0.20986 0.0
C720 C 0.80809 0.74852 0.1948 0.0
C721 C 0.83236 0.80444 0.19502 0.0
C722 C 0.83123 0.80321 0.1637 0.0
C723 C 0.8176 0.77395 0.14816 0.0
C724 C 0.80724 0.74592 0.16401 0.0
Zn725 Zn 0.80987 0.77911 0.25412 0.0
O726 O 0.79889 0.71665 0.2974 0.0
C727 C 0.73775 0.76629 0.25675 0.0
O728 O 0.81941 0.72485 0.25458 0.0
H729 H 0.84103 0.82765 0.20728 0.0
H730 H 0.75338 0.72445 0.33471 0.0
H731 H 0.79663 0.72816 0.20631 0.0
O732 O 0.74438 0.76569 0.28456 0.0
O733 O 0.76041 0.7701 0.23936 0.0
H734 H 0.80769 0.8164 0.35401 0.0
O735 O 0.80064 0.83394 0.25475 0.0
O736 O 0.78734 0.82592 0.3007 0.0
O737 O 0.85915 0.7882 0.27005 0.0
O738 O 0.84157 0.77728 0.31391 0.0
C739 C 0.79129 0.84618 0.27954 0.0
H740 H 0.75375 0.71172 0.38752 0.0
H741 H 0.80766 0.80673 0.40751 0.0
H742 H 0.83876 0.82563 0.15187 0.0
H743 H 0.79592 0.72339 0.15262 0.0
C744 C 0.85289 0.28486 0.75022 0.0
N745 N 0.76961 0.25741 0.70228 0.0
C746 C 0.78116 0.27797 0.68118 0.0
C747 C 0.78464 0.26476 0.65221 0.0
C748 C 0.77642 0.22997 0.64483 0.0
C749 C 0.76215 0.21014 0.66632 0.0
C750 C 0.75881 0.22454 0.69508 0.0
Zn751 Zn 0.7806 0.27265 0.74576 0.0
C752 C 0.8009 0.21336 0.78182 0.0
N753 N 0.80988 0.3042 0.83529 0.0
C754 C 0.82814 0.33244 0.84421 0.0
C755 C 0.79463 0.28539 0.85554 0.0
C756 C 0.79631 0.29538 0.8857 0.0
C757 C 0.81414 0.32484 0.89544 0.0
C758 C 0.83086 0.34309 0.87449 0.0
Zn759 Zn 0.79879 0.28999 0.79121 0.0
O760 O 0.82879 0.27855 0.73284 0.0
C761 C 0.77776 0.3501 0.7559 0.0
O762 O 0.84839 0.29178 0.77781 0.0
H763 H 0.78016 0.26306 0.84824 0.0
H764 H 0.79032 0.30372 0.68735 0.0
H765 H 0.83984 0.34726 0.82782 0.0
O766 O 0.77034 0.32563 0.73691 0.0
O767 O 0.79172 0.34269 0.78047 0.0
H768 H 0.75002 0.20844 0.71218 0.0
O769 O 0.74957 0.28664 0.80319 0.0
O770 O 0.73241 0.26596 0.75932 0.0
O771 O 0.80528 0.23789 0.80127 0.0
O772 O 0.79084 0.22023 0.75573 0.0
C773 C 0.72665 0.27513 0.78613 0.0
H774 H 0.79549 0.28098 0.63621 0.0
H775 H 0.75585 0.18304 0.66169 0.0
H776 H 0.78351 0.28036 0.90128 0.0
H777 H 0.84501 0.36591 0.88134 0.0
C778 C 0.74517 0.73523 0.77091 0.0
N779 N 0.79811 0.78249 0.70869 0.0
C780 C 0.81993 0.75792 0.71546 0.0
C781 C 0.834 0.73856 0.69295 0.0
C782 C 0.82518 0.74418 0.66321 0.0
C783 C 0.80413 0.77105 0.65664 0.0
C784 C 0.79091 0.79024 0.67994 0.0
Zn785 Zn 0.77034 0.79868 0.74242 0.0
C786 C 0.70319 0.79556 0.72362 0.0
N787 N 0.71337 0.82567 0.81596 0.0
C788 C 0.71656 0.8055 0.84011 0.0
C789 C 0.70179 0.85854 0.81877 0.0
C790 C 0.69794 0.87404 0.84708 0.0
C791 C 0.70457 0.8547 0.87228 0.0
C792 C 0.7117 0.81943 0.86851 0.0
Zn793 Zn 0.7395 0.81133 0.77974 0.0
O794 O 0.7607 0.74492 0.74913 0.0
C795 C 0.8074 0.81332 0.79752 0.0
O796 O 0.735 0.75807 0.7891 0.0
H797 H 0.69863 0.8741 0.79942 0.0
H798 H 0.82468 0.75122 0.73831 0.0
H799 H 0.72638 0.77985 0.83817 0.0
O800 O 0.80941 0.8003 0.77141 0.0
O801 O 0.78042 0.8186 0.80793 0.0
H802 H 0.77332 0.8096 0.67502 0.0
O803 O 0.74544 0.86386 0.76987 0.0
O804 O 0.78067 0.85228 0.73673 0.0
O805 O 0.69922 0.80376 0.75094 0.0
O806 O 0.73068 0.79764 0.71349 0.0
C807 C 0.76754 0.87428 0.75402 0.0
H808 H 0.8497 0.71761 0.69879 0.0
H809 H 0.79683 0.77593 0.63381 0.0
H810 H 0.69243 0.90141 0.84933 0.0
H811 H 0.71737 0.80391 0.88758 0.0
C812 C 0.46579 0.56674 0.48947 0.0
N813 N 0.42618 0.55275 0.5715 0.0
C814 C 0.40521 0.57622 0.56061 0.0
C815 C 0.37286 0.5713 0.56329 0.0
C816 C 0.36198 0.54183 0.5771 0.0
C817 C 0.38409 0.51965 0.59056 0.0
C818 C 0.41643 0.52561 0.5874 0.0
Zn819 Zn 0.47085 0.5567 0.55675 0.0
C820 C 0.49367 0.49305 0.53039 0.0
N821 N 0.55898 0.57326 0.51917 0.0
C822 C 0.56826 0.602 0.50495 0.0
C823 C 0.57976 0.54779 0.5262 0.0
C824 C 0.61144 0.5511 0.51976 0.0
C825 C 0.62176 0.58094 0.50618 0.0
C826 C 0.59999 0.60649 0.49827 0.0
Zn827 Zn 0.51497 0.56836 0.53466 0.0
O828 O 0.45048 0.56027 0.51241 0.0
C829 C 0.48946 0.63225 0.56 0.0
O830 O 0.49477 0.57551 0.49272 0.0
H831 H 0.57207 0.52548 0.53798 0.0
H832 H 0.41327 0.59735 0.54761 0.0
H833 H 0.55131 0.62195 0.49976 0.0
O834 O 0.46867 0.60993 0.56568 0.0
O835 O 0.51355 0.62233 0.54613 0.0
H836 H 0.43349 0.50717 0.59562 0.0
O837 O 0.53622 0.5601 0.57651 0.0
O838 O 0.49307 0.55091 0.60039 0.0
O839 O 0.51465 0.51451 0.5229 0.0
O840 O 0.4725 0.50342 0.54771 0.0
C841 C 0.52319 0.55384 0.60058 0.0
H842 H 0.35645 0.58861 0.55235 0.0
H843 H 0.37646 0.49615 0.60083 0.0
H844 H 0.62798 0.53123 0.52637 0.0
H845 H 0.60763 0.62995 0.48795 0.0
C846 C 0.02344 0.5312 0.09282 0.0
N847 N 0.06112 0.44575 0.04957 0.0
C848 C 0.07712 0.44408 0.07635 0.0
C849 C 0.07338 0.41516 0.09344 0.0
C850 C 0.05305 0.38804 0.08269 0.0
C851 C 0.04044 0.38831 0.05333 0.0
C852 C 0.04498 0.41776 0.03687 0.0
Zn853 Zn 0.04814 0.49379 0.03817 0.0
C854 C 0.97788 0.49504 0.02728 0.0
N855 N 0.0175 0.59371 0.02134 0.0
C856 C 0.02977 0.62243 0.03651 0.0
C857 C 0.99565 0.59592 -0.00152 0.0
C858 C 0.98565 0.62816 0.9896 0.0
C859 C -0.00135 0.65816 0.00416 0.0
C860 C 0.0207 0.65539 0.02805 0.0
Zn861 Zn 0.03213 0.5464 0.03102 0.0
O862 O 0.03409 0.50265 0.08266 0.0
C863 C 0.10247 0.54438 0.04177 0.0
O864 O 0.02328 0.55734 0.07652 0.0
H865 H 0.98657 0.57264 0.98664 0.0
H866 H 0.08936 0.46683 0.0862 0.0
H867 H 0.04706 0.61973 0.05468 0.0
O868 O 0.09538 0.51316 0.04731 0.0
O869 O 0.08021 0.56513 0.03541 0.0
H870 H 0.03255 0.41975 0.01548 0.0
O871 O 0.04109 0.53624 0.98506 0.0
O872 O 0.06161 0.48538 0.99395 0.0
O873 O 0.98394 0.52739 0.02663 0.0
O874 O 0.00097 0.47433 0.02889 0.0
C875 C 0.05647 0.50986 0.97625 0.0
H876 H 0.08366 0.41565 0.11597 0.0
H877 H 0.02531 0.36726 0.04414 0.0
H878 H 0.96891 0.6297 0.97075 0.0
H879 H 0.0311 0.67834 0.03954 0.0
C880 C 0.03151 0.16508 0.10235 0.0
C881 C 0.00234 0.16897 0.11605 0.0
C882 C 0.03481 0.1412 0.07851 0.0
C883 C 0.00909 0.12018 0.06782 0.0
H884 H 0.05243 0.17925 0.11108 0.0
H885 H 0.05827 0.13705 0.07033 0.0
S886 S 0.92628 0.12543 0.09167 0.0
N887 N 0.94616 0.15386 0.11399 0.0
N888 N 0.95243 0.10876 0.06908 0.0
C889 C 0.97906 0.12652 0.07908 0.0
C890 C 0.97566 0.15096 0.10331 0.0
C891 C 0.16484 0.77237 0.33988 0.0
C892 C 0.13736 0.76498 0.32174 0.0
C893 C 0.19503 0.7747 0.32771 0.0
C894 C 0.19928 0.76983 0.29678 0.0
H895 H 0.16313 0.77603 0.36377 0.0
H896 H 0.21529 0.78008 0.34285 0.0
S897 S 0.13506 0.7511 0.23915 0.0
N898 N 0.11663 0.7537 0.27076 0.0
N899 N 0.17289 0.75803 0.24829 0.0
C900 C 0.17196 0.7629 0.27836 0.0
C901 C 0.14125 0.7605 0.2907 0.0
C902 C 0.62046 0.81869 0.64036 0.0
C903 C 0.59076 0.80356 0.6446 0.0
C904 C 0.62458 0.84095 0.61678 0.0
C905 C 0.59914 0.84842 0.59675 0.0
H906 H 0.63999 0.81493 0.6562 0.0
H907 H 0.64732 0.85387 0.61514 0.0
S908 S 0.51761 0.81116 0.5968 0.0
N909 N 0.53656 0.79421 0.62547 0.0
N910 N 0.54386 0.83637 0.58175 0.0
C911 C 0.56994 0.83129 0.59979 0.0
C912 C 0.56584 0.80885 0.62366 0.0
C913 C 0.42646 0.26981 0.85535 0.0
C914 C 0.45298 0.28268 0.84111 0.0
C915 C 0.39564 0.27139 0.84231 0.0
C916 C 0.38974 0.28555 0.81413 0.0
H917 H 0.42946 0.25771 0.8766 0.0
H918 H 0.37636 0.26052 0.85422 0.0
S919 S 0.4506 0.3243 0.76779 0.0
N920 N 0.4709 0.31147 0.7975 0.0
N921 N 0.41325 0.31399 0.77294 0.0
C922 C 0.41592 0.29926 0.7999 0.0
C923 C 0.44736 0.29798 0.81335 0.0
C924 C 0.05065 0.87488 0.44193 0.0
C925 C 0.03569 0.84535 0.45291 0.0
C926 C 0.05307 0.90676 0.45879 0.0
C927 C 0.04101 0.91057 0.4876 0.0
H928 H 0.05971 0.87373 0.41974 0.0
H929 H 0.06431 0.92872 0.44896 0.0
S930 S 0.00175 0.84042 0.52767 0.0
N931 N 0.01004 0.82176 0.49528 0.0
N932 N 0.01481 0.88094 0.5267 0.0
C933 C 0.02689 0.88087 0.49915 0.0
C934 C 0.02418 0.8486 0.48194 0.0
C935 C 0.50147 0.72563 0.76507 0.0
C936 C 0.51241 0.69597 0.74966 0.0
C937 C 0.46979 0.72854 0.77211 0.0
C938 C 0.4477 0.70163 0.7645 0.0
H939 H 0.51715 0.74773 0.7703 0.0
H940 H 0.46233 0.75301 0.7821 0.0
S941 S 0.46553 0.61589 0.72869 0.0
N942 N 0.49965 0.63742 0.72993 0.0
N943 N 0.43997 0.64233 0.7443 0.0
C944 C 0.45886 0.67057 0.75129 0.0
C945 C 0.49129 0.66776 0.7438 0.0
C946 C 0.54362 0.17096 0.97693 0.0
C947 C 0.55038 0.17452 0.94677 0.0
C948 C 0.54963 0.13985 0.99156 0.0
C949 C 0.56177 0.11038 0.97647 0.0
H950 H 0.5328 0.19219 0.98917 0.0
H951 H 0.54332 0.13844 0.01459 0.0
S952 S 0.58401 0.10613 0.89736 0.0
N953 N 0.57095 0.14613 0.90256 0.0
N954 N 0.58126 0.08742 0.92961 0.0
C955 C 0.56927 0.11383 0.94644 0.0
C956 C 0.56386 0.14588 0.93174 0.0
C957 C 0.14858 0.29486 0.18474 0.0
C958 C 0.13924 0.2596 0.18394 0.0
C959 C 0.18055 0.30433 0.18625 0.0
C960 C 0.20386 0.2788 0.18684 0.0
H961 H 0.13128 0.31523 0.18717 0.0
H962 H 0.18694 0.33144 0.19094 0.0
S963 S 0.19168 0.18362 0.17638 0.0
N964 N 0.15556 0.19948 0.17694 0.0
N965 N 0.21605 0.21759 0.17982 0.0
C966 C 0.1949 0.2439 0.1809 0.0
C967 C 0.16227 0.23413 0.17955 0.0
C968 C 0.08712 0.99027 0.16773 0.0
C969 C 0.11533 0.00917 0.175 0.0
C970 C 0.07126 0.99268 0.13994 0.0
C971 C 0.08303 0.01389 0.11808 0.0
H972 H 0.07688 0.97358 0.18372 0.0
H973 H 0.04957 0.97768 0.13557 0.0
S974 S 0.15561 0.06944 0.12586 0.0
N975 N 0.15421 0.05028 0.158 0.0
N976 N 0.12446 0.05459 0.10559 0.0
C977 C 0.11138 0.03275 0.12482 0.0
C978 C 0.1275 0.03045 0.15329 0.0
C979 C 0.31366 0.86376 0.46436 0.0
C980 C 0.32604 0.84294 0.48702 0.0
C981 C 0.31311 0.85217 0.43432 0.0
C982 C 0.32438 0.81911 0.42592 0.0
H983 H 0.30545 0.88974 0.46972 0.0
H984 H 0.30383 0.86921 0.41753 0.0
S985 S 0.35749 0.75379 0.47661 0.0
N986 N 0.34883 0.78715 0.49894 0.0
N987 N 0.34721 0.76525 0.44256 0.0
C988 C 0.33586 0.79761 0.44835 0.0
C989 C 0.33686 0.80956 0.47887 0.0
C990 C 0.47432 0.03685 0.65048 0.0
C991 C 0.4849 0.01822 0.67509 0.0
C992 C 0.49267 0.0388 0.62527 0.0
C993 C 0.5219 0.02159 0.62359 0.0
H994 H 0.45224 0.05083 0.65106 0.0
H995 H 0.48353 0.05335 0.60671 0.0
S996 S 0.55914 0.96805 0.68184 0.0
N997 N 0.52603 0.98185 0.69627 0.0
N998 N 0.55988 0.98444 0.64847 0.0
C999 C 0.5323 0.00227 0.64786 0.0
C1000 C 0.51397 0.00089 0.67372 0.0
C1001 C 0.27369 0.1582 0.94899 0.0
C1002 C 0.30639 0.15701 0.95631 0.0
C1003 C 0.26138 0.18333 0.93014 0.0
C1004 C 0.2813 0.20823 0.91818 0.0
H1005 H 0.25764 0.1387 0.95675 0.0
H1006 H 0.23636 0.1823 0.92378 0.0
S1007 S 0.36824 0.21844 0.93267 0.0
N1008 N 0.358 0.18511 0.95228 0.0
N1009 N 0.33506 0.23131 0.9162 0.0
C1010 C 0.31374 0.20857 0.92673 0.0
C1011 C 0.32623 0.18318 0.94593 0.0
C1012 C 0.15099 0.0447 0.36517 0.0
C1013 C 0.13442 0.0537 0.3388 0.0
C1014 C 0.1384 0.05086 0.39305 0.0
C1015 C 0.10854 0.06591 0.39573 0.0
H1016 H 0.17316 0.03113 0.36444 0.0
H1017 H 0.15124 0.04151 0.41247 0.0
S1018 S 0.05711 0.09854 0.33438 0.0
N1019 N 0.08784 0.08196 0.31758 0.0
N1020 N 0.06396 0.093 0.37033 0.0
C1021 C 0.09249 0.0771 0.3699 0.0
C1022 C 0.10549 0.07116 0.34137 0.0
C1023 C 0.31708 0.79699 0.64268 0.0
C1024 C 0.29942 0.82583 0.63331 0.0
C1025 C 0.30928 0.77869 0.66781 0.0
C1026 C 0.28339 0.78816 0.68489 0.0
H1027 H 0.33811 0.78929 0.63131 0.0
H1028 H 0.3248 0.75801 0.67473 0.0
S1029 S 0.22663 0.85855 0.66774 0.0
N1030 N 0.25268 0.86058 0.6415 0.0
N1031 N 0.2379 0.82618 0.68861 0.0
C1032 C 0.26398 0.81521 0.67449 0.0
C1033 C 0.27203 0.83397 0.6488 0.0
C1034 C 0.49213 0.95832 0.82383 0.0
C1035 C 0.47215 0.98738 0.82571 0.0
C1036 C 0.5106 0.94834 0.84858 0.0
C1037 C 0.50937 0.96711 0.8758 0.0
H1038 H 0.49414 0.94368 0.80292 0.0
H1039 H 0.52639 0.92651 0.8463 0.0
S1040 S 0.46143 0.04477 0.89282 0.0
N1041 N 0.45252 0.03453 0.85741 0.0
N1042 N 0.487 0.01535 0.90385 0.0
C1043 C 0.48906 0.99551 0.87829 0.0
C1044 C 0.4704 0.00575 0.85323 0.0
C1045 C 0.32734 0.15751 0.08951 0.0
C1046 C 0.35641 0.14361 0.08104 0.0
C1047 C 0.32615 0.18424 0.11132 0.0
C1048 C 0.35391 0.19789 0.12584 0.0
H1049 H 0.30522 0.14823 0.07876 0.0
H1050 H 0.30319 0.19402 0.11718 0.0
S1051 S 0.43592 0.1699 0.11303 0.0
N1052 N 0.41372 0.14517 0.08932 0.0
N1053 N 0.41123 0.19516 0.13117 0.0
C1054 C 0.38314 0.18395 0.11817 0.0
C1055 C 0.38445 0.15695 0.09549 0.0
C1056 C 0.2305 0.0229 0.06372 0.0
C1057 C 0.25452 0.01538 0.04402 0.0
C1058 C 0.20124 0.03521 0.05333 0.0
C1059 C 0.19481 0.04044 0.02281 0.0
H1060 H 0.23431 0.01921 0.08737 0.0
H1061 H 0.18313 0.03959 0.0693 0.0
S1062 S 0.24959 0.02283 0.96192 0.0
N1063 N 0.26972 0.01205 0.99242 0.0
N1064 N 0.21501 0.03674 0.97297 0.0
C1065 C 0.21871 0.03293 0.00283 0.0
C1066 C 0.24851 0.02007 0.01342 0.0
C1067 C 0.67974 0.4573 0.06789 0.0
C1068 C 0.70361 0.47701 0.05513 0.0
C1069 C 0.64762 0.46658 0.06514 0.0
C1070 C 0.63793 0.49561 0.04907 0.0
H1071 H 0.68592 0.4347 0.08041 0.0
H1072 H 0.6302 0.45047 0.07526 0.0
S1073 S 0.69094 0.55575 0.01109 0.0
N1074 N 0.71508 0.52707 0.0258 0.0
N1075 N 0.65507 0.54408 0.0203 0.0
C1076 C 0.66157 0.51546 0.03614 0.0
C1077 C 0.69424 0.50629 0.03926 0.0
C1078 C 0.86443 0.39684 0.26172 0.0
C1079 C 0.85204 0.4265 0.2761 0.0
C1080 C 0.84967 0.36403 0.26325 0.0
C1081 C 0.82175 0.35974 0.2789 0.0
H1082 H 0.88647 0.39868 0.25039 0.0
H1083 H 0.86033 0.34184 0.25219 0.0
S1084 S 0.77872 0.42992 0.31863 0.0
N1085 N 0.80955 0.44986 0.3053 0.0
N1086 N 0.78161 0.38861 0.30785 0.0
C1087 C 0.80856 0.38953 0.29242 0.0
C1088 C 0.82373 0.42275 0.29109 0.0
C1089 C 0.93025 0.5651 0.5449 0.0
C1090 C 0.90689 0.54485 0.52909 0.0
C1091 C 0.96208 0.55605 0.54419 0.0
C1092 C 0.9715 0.52698 0.52694 0.0
H1093 H 0.92399 0.58893 0.5568 0.0
H1094 H 0.97951 0.57296 0.55598 0.0
S1095 S 0.9186 0.46443 0.48317 0.0
N1096 N 0.89446 0.49356 0.49737 0.0
N1097 N 0.95462 0.47655 0.49544 0.0
C1098 C 0.94807 0.50564 0.5121 0.0
C1099 C 0.91558 0.51459 0.51334 0.0
C1100 C 0.24133 0.14011 0.29678 0.0
C1101 C 0.23723 0.11436 0.27386 0.0
C1102 C 0.2525 0.17329 0.29095 0.0
C1103 C 0.26069 0.18173 0.26213 0.0
H1104 H 0.23473 0.13502 0.31925 0.0
H1105 H 0.25425 0.19269 0.30913 0.0
S1106 S 0.25743 0.12242 0.19497 0.0
N1107 N 0.24389 0.09862 0.22159 0.0
N1108 N 0.26614 0.16108 0.21077 0.0
C1109 C 0.25828 0.15576 0.23923 0.0
C1110 C 0.24611 0.12204 0.24505 0.0
C1111 C 0.42508 0.93115 0.55668 0.0
C1112 C 0.39853 0.94951 0.54594 0.0
C1113 C 0.45609 0.94025 0.54938 0.0
C1114 C 0.46204 0.96847 0.53133 0.0
H1115 H 0.42216 0.91013 0.57162 0.0
H1116 H 0.47562 0.92608 0.55923 0.0
S1117 S 0.40106 0.0237 0.49555 0.0
N1118 N 0.38051 0.99611 0.51457 0.0
N1119 N 0.43858 0.0135 0.50141 0.0
C1120 C 0.43572 0.98634 0.51959 0.0
C1121 C 0.40411 0.97685 0.52676 0.0
C1122 C 0.83552 0.6144 0.29877 0.0
C1123 C 0.85284 0.60105 0.2748 0.0
C1124 C 0.82106 0.64694 0.29791 0.0
C1125 C 0.82321 0.66767 0.27302 0.0
H1126 H 0.83405 0.60024 0.31903 0.0
H1127 H 0.80928 0.65649 0.31749 0.0
S1128 S 0.86178 0.6429 0.20256 0.0
N1129 N 0.86838 0.60978 0.22411 0.0
N1130 N 0.84108 0.67081 0.22235 0.0
C1131 C 0.83855 0.65368 0.24804 0.0
C1132 C 0.85334 0.62044 0.24892 0.0
C1133 C 0.76285 0.4455 0.77265 0.0
C1134 C 0.73579 0.45215 0.75441 0.0
C1135 C 0.7778 0.41322 0.77134 0.0
C1136 C 0.76655 0.38618 0.75156 0.0
H1137 H 0.77139 0.46461 0.78956 0.0
H1138 H 0.79724 0.40886 0.7872 0.0
S1139 S 0.70016 0.39218 0.69512 0.0
N1140 N 0.70104 0.4305 0.71309 0.0
N1141 N 0.72939 0.36988 0.71029 0.0
C1142 C 0.74158 0.39361 0.73102 0.0
C1143 C 0.72618 0.4266 0.73248 0.0
C1144 C 0.02742 0.91111 0.94449 0.0
C1145 C 0.00487 0.88719 0.9537 0.0
C1146 C 0.04707 0.9297 0.96556 0.0
C1147 C 0.04433 0.92492 -0.00372 0.0
H1148 H 0.02827 0.91729 0.92123 0.0
H1149 H 0.06151 0.95074 0.95794 0.0
S1150 S 0.99668 0.85688 0.03032 0.0
N1151 N 0.98663 0.85333 0.9944 0.0
N1152 N 0.02354 0.88847 0.03395 0.0
C1153 C 0.02565 0.89707 0.00504 0.0
C1154 C 0.00549 0.87846 0.98377 0.0
C1155 C 0.91881 0.27761 0.69398 0.0
C1156 C 0.94627 0.27017 0.7114 0.0
C1157 C 0.88919 0.28276 0.70681 0.0
C1158 C 0.88545 0.28151 0.73786 0.0
H1159 H 0.92013 0.27959 0.67011 0.0
H1160 H 0.86898 0.28797 0.69209 0.0
S1161 S 0.94958 0.26281 0.79378 0.0
N1162 N 0.96738 0.2615 0.76176 0.0
N1163 N 0.91215 0.27173 0.78564 0.0
C1164 C 0.91268 0.27419 0.75561 0.0
C1165 C 0.94282 0.26835 0.74248 0.0
C1166 C 0.45264 0.2215 0.48793 0.0
C1167 C 0.47517 0.2458 0.47908 0.0
C1168 C 0.46215 0.19098 0.50122 0.0
C1169 C 0.49437 0.18417 0.50647 0.0
H1170 H 0.42761 0.22479 0.48271 0.0
H1171 H 0.44431 0.17179 0.50608 0.0
S1172 S 0.56236 0.24187 0.49201 0.0
N1173 N 0.53088 0.26309 0.48004 0.0
N1174 N 0.54868 0.20532 0.50496 0.0
C1175 C 0.517 0.2095 0.50018 0.0
C1176 C 0.50738 0.24051 0.48649 0.0
C1177 C 0.64727 0.76184 0.25556 0.0
C1178 C 0.63788 0.7662 0.22544 0.0
C1179 C 0.67936 0.76112 0.26515 0.0
C1180 C 0.70387 0.76469 0.24517 0.0
H1181 H 0.62965 0.75936 0.27217 0.0
H1182 H 0.6849 0.75822 0.28867 0.0
S1183 S 0.69256 0.77543 0.16356 0.0
N1184 N 0.65617 0.77314 0.17541 0.0
N1185 N 0.71633 0.77176 0.19336 0.0
C1186 C 0.69495 0.76834 0.21481 0.0
C1187 C 0.66211 0.7691 0.20501 0.0
C1188 C 0.02927 0.17161 0.57994 0.0
C1189 C 0.0297 0.1763 0.61124 0.0
C1190 C 0.03796 0.13982 0.56592 0.0
C1191 C 0.04661 0.11078 0.58251 0.0
H1192 H 0.02204 0.19274 0.56606 0.0
H1193 H 0.03664 0.13761 0.54179 0.0
S1194 S 0.05133 0.10909 0.6652 0.0
N1195 N 0.04022 0.14914 0.65841 0.0
N1196 N 0.05512 0.08921 0.6323 0.0
C1197 C 0.04727 0.11519 0.61388 0.0
C1198 C 0.03925 0.14791 0.62814 0.0
C1199 C 0.58664 0.31096 0.36343 0.0
C1200 C 0.57473 0.34444 0.36931 0.0
C1201 C 0.61296 0.30604 0.34614 0.0
C1202 C 0.6287 0.3344 0.33446 0.0
H1203 H 0.57494 0.2881 0.37133 0.0
H1204 H 0.62112 0.27978 0.34186 0.0
S1205 S 0.60896 0.42743 0.34514 0.0
N1206 N 0.58175 0.40661 0.36318 0.0
N1207 N 0.63206 0.39714 0.33111 0.0
C1208 C 0.61803 0.3681 0.34103 0.0
C1209 C 0.5908 0.37317 0.35833 0.0
C1210 C 0.53423 0.85754 0.06765 0.0
C1211 C 0.54621 0.8548 0.09724 0.0
C1212 C 0.54022 0.88715 0.05126 0.0
C1213 C 0.55775 0.91573 0.06402 0.0
H1214 H 0.51928 0.83698 0.05731 0.0
H1215 H 0.52971 0.88832 0.02891 0.0
S1216 S 0.59629 0.92104 0.13992 0.0
N1217 N 0.5783 0.8826 0.13785 0.0
N1218 N 0.58883 0.93848 0.10742 0.0
C1219 C 0.57089 0.91285 0.09316 0.0
C1220 C 0.56536 0.88236 0.10964 0.0
C1221 C 0.86627 0.84241 0.85919 0.0
C1222 C 0.89314 0.85088 0.84325 0.0
C1223 C 0.83803 0.83117 0.84432 0.0
C1224 C 0.83602 0.82787 0.81314 0.0
H1225 H 0.86776 0.84164 0.88325 0.0
H1226 H 0.81838 0.82314 0.85729 0.0
S1227 S 0.89613 0.85725 0.76132 0.0
N1228 N 0.91328 0.86331 0.79484 0.0
N1229 N 0.86054 0.84126 0.76678 0.0
C1230 C 0.8613 0.84046 0.79702 0.0
C1231 C 0.88974 0.85257 0.81217 0.0
C1232 C 0.93476 0.01885 0.92039 0.0
C1233 C 0.95026 0.00904 0.8943 0.0
C1234 C 0.95159 0.02383 0.9479 0.0
C1235 C 0.98469 0.02027 0.95021 0.0
H1236 H 0.90949 0.02333 0.91948 0.0
H1237 H 0.93865 0.0313 0.9674 0.0
S1238 S 0.03644 0.99262 0.88929 0.0
N1239 N 0.00063 0.9937 0.87318 0.0
N1240 N 0.03214 0.00434 0.9246 0.0
C1241 C 0.00041 0.00973 0.92454 0.0
C1242 C 0.98322 0.00371 0.8967 0.0
C1243 C 0.82817 0.20248 0.5812 0.0
C1244 C 0.80817 0.18032 0.56298 0.0
C1245 C 0.81748 0.21868 0.6073 0.0
C1246 C 0.78629 0.21355 0.61627 0.0
H1247 H 0.85248 0.20707 0.57553 0.0
H1248 H 0.83405 0.23486 0.62091 0.0
S1249 S 0.72361 0.15989 0.57574 0.0
N1250 N 0.75496 0.15526 0.55535 0.0
N1251 N 0.73508 0.186 0.60432 0.0
C1252 C 0.76584 0.19192 0.59815 0.0
C1253 C 0.77669 0.17531 0.57154 0.0
C1254 C 0.6266 0.98843 0.41521 0.0
C1255 C 0.61492 0.01038 0.39307 0.0
C1256 C 0.61121 0.98521 0.44205 0.0
C1257 C 0.58374 0.00416 0.44797 0.0
H1258 H 0.64748 0.97302 0.4116 0.0
H1259 H 0.62136 0.96831 0.45853 0.0
S1260 S 0.54389 0.06587 0.3976 0.0
N1261 N 0.57433 0.05163 0.37901 0.0
N1262 N 0.54567 0.04598 0.42948 0.0
C1263 C 0.57196 0.02643 0.4261 0.0
C1264 C 0.58747 0.02945 0.39869 0.0
C1265 C 0.76277 0.77421 0.08032 0.0
C1266 C 0.78314 0.77169 0.05636 0.0
C1267 C 0.77461 0.77657 0.10973 0.0
C1268 C 0.80721 0.77487 0.11658 0.0
H1269 H 0.73735 0.77552 0.07633 0.0
H1270 H 0.75803 0.7793 0.12739 0.0
S1271 S 0.87014 0.7584 0.06334 0.0
N1272 N 0.83746 0.76138 0.04209 0.0
N1273 N 0.85943 0.76479 0.09803 0.0
C1274 C 0.82785 0.76958 0.09335 0.0
C1275 C 0.81585 0.76773 0.06309 0.0
C1276 C 0.95436 0.95284 0.71786 0.0
C1277 C 0.94756 0.98674 0.72871 0.0
C1278 C 0.9699 0.94732 0.69116 0.0
C1279 C 0.9794 0.97554 0.67474 0.0
H1280 H 0.94808 0.93039 0.73026 0.0
H1281 H 0.97521 0.92098 0.68371 0.0
S1282 S 0.96547 0.06899 0.69172 0.0
N1283 N 0.95012 0.04877 0.71954 0.0
N1284 N 0.97954 0.03809 0.66967 0.0
C1285 C 0.97198 0.00935 0.68469 0.0
C1286 C 0.95597 0.01505 0.71161 0.0
C1287 C 0.81881 0.2243 0.41038 0.0
C1288 C 0.79832 0.19739 0.41875 0.0
C1289 C 0.81261 0.24285 0.38459 0.0
C1290 C 0.78523 0.23609 0.36652 0.0
H1291 H 0.84074 0.23014 0.42305 0.0
H1292 H 0.82994 0.26184 0.3782 0.0
S1293 S 0.72294 0.17002 0.37845 0.0
N1294 N 0.74868 0.16604 0.40678 0.0
N1295 N 0.73679 0.20176 0.3588 0.0
C1296 C 0.76359 0.21078 0.37524 0.0
C1297 C 0.77014 0.19131 0.40126 0.0
C1298 C 0.62831 0.03335 0.20812 0.0
C1299 C 0.60981 0.0441 0.23197 0.0
C1300 C 0.62027 0.04246 0.17904 0.0
C1301 C 0.59329 0.06229 0.17282 0.0
H1302 H 0.64896 0.01741 0.21183 0.0
H1303 H 0.63437 0.03244 0.16111 0.0
S1304 S 0.53781 0.09827 0.22724 0.0
N1305 N 0.5641 0.07707 0.24757 0.0
N1306 N 0.54876 0.09359 0.19249 0.0
C1307 C 0.5751 0.07409 0.19642 0.0
C1308 C 0.58345 0.06518 0.22615 0.0
C1309 C 0.71013 0.86456 0.95524 0.0
C1310 C 0.74158 0.87679 0.9599 0.0
C1311 C 0.69588 0.86165 0.92649 0.0
C1312 C 0.71242 0.87163 0.90172 0.0
H1313 H 0.69772 0.8535 0.9733 0.0
H1314 H 0.67318 0.84834 0.92328 0.0
S1315 S 0.79268 0.91159 0.90279 0.0
N1316 N 0.78691 0.90366 0.93802 0.0
N1317 N 0.7598 0.89893 0.88406 0.0
C1318 C 0.74218 0.88801 0.90659 0.0
C1319 C 0.75691 0.89038 0.93573 0.0
C1320 C 0.83412 0.92465 0.08457 0.0
C1321 C 0.8344 0.89029 0.07261 0.0
C1322 C 0.8616 0.94547 0.08599 0.0
C1323 C 0.89028 0.93237 0.07591 0.0
H1324 H 0.81232 0.93594 0.092 0.0
H1325 H 0.86032 0.97211 0.09458 0.0
S1326 S 0.90396 0.84362 0.04422 0.0
N1327 N 0.86619 0.84362 0.05212 0.0
N1328 N 0.9176 0.88294 0.05412 0.0
C1329 C 0.89109 0.89778 0.06476 0.0
C1330 C 0.86318 0.87667 0.06327 0.0
C1331 C 0.38578 0.54159 0.02479 0.0
C1332 C 0.37809 0.56016 -0.00085 0.0
C1333 C 0.41716 0.53113 0.03137 0.0
C1334 C 0.44191 0.53845 0.01233 0.0
H1335 H 0.36762 0.53579 0.0402 0.0
H1336 H 0.42207 0.51753 0.05166 0.0
S1337 S 0.43335 0.58381 0.94087 0.0
N1338 N 0.39743 0.58357 0.95378 0.0
N1339 N 0.45567 0.56398 0.96575 0.0
C1340 C 0.4341 0.55611 0.98615 0.0
C1341 C 0.40244 0.56692 0.97968 0.0
C1342 C 0.20001 0.62673 0.79617 0.0
C1343 C 0.21743 0.60955 0.8186 0.0
C1344 C 0.21309 0.65479 0.78149 0.0
C1345 C 0.24449 0.66608 0.78789 0.0
H1346 H 0.17583 0.61877 0.79015 0.0
H1347 H 0.19848 0.66788 0.76513 0.0
S1348 S 0.30001 0.63104 0.84532 0.0
N1349 N 0.26762 0.60692 0.84696 0.0
N1350 N 0.29235 0.65876 0.81896 0.0
C1351 C 0.26226 0.64903 0.81009 0.0
C1352 C 0.24872 0.62106 0.82553 0.0
C1353 C 0.17265 0.40365 0.5062 0.0
C1354 C 0.17646 0.39323 0.53565 0.0
C1355 C 0.16177 0.43697 0.50001 0.0
C1356 C 0.15384 0.46075 0.52313 0.0
H1357 H 0.17649 0.38533 0.48783 0.0
H1358 H 0.15692 0.44299 0.47693 0.0
S1359 S 0.16447 0.44673 0.60436 0.0
N1360 N 0.17501 0.40963 0.58815 0.0
N1361 N 0.15493 0.47251 0.57698 0.0
C1362 C 0.16042 0.45139 0.55282 0.0
C1363 C 0.17118 0.41733 0.55898 0.0
C1364 C 0.83729 0.93422 0.7746 0.0
C1365 C 0.82649 0.95397 0.79916 0.0
C1366 C 0.81699 0.91119 0.7576 0.0
C1367 C 0.78501 0.90676 0.76446 0.0
H1368 H 0.86192 0.93567 0.76896 0.0
H1369 H 0.82704 0.8952 0.74012 0.0
S1370 S 0.74337 0.95728 0.82281 0.0
N1371 N 0.78051 0.97098 0.82682 0.0
N1372 N 0.74249 0.92819 0.79479 0.0
C1373 C 0.77332 0.92858 0.78734 0.0
C1374 C 0.79402 0.95179 0.80481 0.0
C1375 C 0.7053 0.04675 0.5449 0.0
C1376 C 0.71149 0.07182 0.52381 0.0
C1377 C 0.67424 0.03865 0.55248 0.0
C1378 C 0.64804 0.05584 0.53984 0.0
H1379 H 0.72454 0.03237 0.55501 0.0
H1380 H 0.67069 0.01812 0.56786 0.0
S1381 S 0.65143 0.12555 0.48514 0.0
N1382 N 0.68882 0.11507 0.49151 0.0
N1383 N 0.63056 0.10039 0.5061 0.0
C1384 C 0.65397 0.08209 0.5197 0.0
C1385 C 0.68561 0.08988 0.51156 0.0
C1386 C 0.24203 0.43259 0.78658 0.0
C1387 C 0.24437 0.44457 0.81671 0.0
C1388 C 0.25689 0.4019 0.77697 0.0
C1389 C 0.27427 0.38195 0.79725 0.0
H1390 H 0.22735 0.44603 0.77051 0.0
H1391 H 0.25291 0.39255 0.75404 0.0
S1392 S 0.29219 0.40423 0.87723 0.0
N1393 N 0.26924 0.43589 0.8658 0.0
N1394 N 0.29641 0.37811 0.84769 0.0
C1395 C 0.27886 0.39487 0.82679 0.0
C1396 C 0.26416 0.42625 0.83653 0.0
C1397 C 0.3277 0.61133 0.27012 0.0
C1398 C 0.31868 0.59854 0.29751 0.0
C1399 C 0.31852 0.64437 0.26142 0.0
C1400 C 0.30039 0.66551 0.28001 0.0
H1401 H 0.34372 0.59685 0.25627 0.0
H1402 H 0.32771 0.65442 0.24128 0.0
S1403 S 0.26446 0.64181 0.35009 0.0
N1404 N 0.28534 0.60758 0.34021 0.0
N1405 N 0.26932 0.67013 0.324 0.0
C1406 C 0.28853 0.65193 0.30572 0.0
C1407 C 0.29725 0.61815 0.31438 0.0
C1408 C 0.52482 0.70727 0.60418 0.0
C1409 C 0.50384 0.70976 0.62763 0.0
C1410 C 0.51772 0.68589 0.57893 0.0
C1411 C 0.48954 0.66613 0.57668 0.0
H1412 H 0.54827 0.71907 0.60675 0.0
H1413 H 0.53607 0.68165 0.56312 0.0
S1414 S 0.42254 0.67342 0.62746 0.0
N1415 N 0.45095 0.69814 0.64386 0.0
N1416 N 0.43682 0.65828 0.59591 0.0
C1417 C 0.46604 0.67359 0.59741 0.0
C1418 C 0.47347 0.69529 0.62326 0.0
C1419 C 0.65821 0.27784 0.84004 0.0
C1420 C 0.63161 0.2662 0.8222 0.0
C1421 C 0.68855 0.28077 0.82822 0.0
C1422 C 0.6939 0.27223 0.79794 0.0
H1423 H 0.65567 0.28459 0.86343 0.0
H1424 H 0.70806 0.28969 0.84312 0.0
S1425 S 0.63235 0.24116 0.74127 0.0
N1426 N 0.61297 0.24658 0.77217 0.0
N1427 N 0.66948 0.25206 0.75037 0.0
C1428 C 0.66749 0.26081 0.77983 0.0
C1429 C 0.63663 0.25783 0.7918 0.0
C1430 C 0.05558 0.32271 0.1429 0.0
C1431 C 0.02328 0.31548 0.14712 0.0
C1432 C 0.06494 0.34546 0.1215 0.0
C1433 C 0.04245 0.36206 0.10345 0.0
H1434 H 0.07409 0.31026 0.15586 0.0
H1435 H 0.09002 0.35001 0.11899 0.0
S1436 S 0.95502 0.3547 0.10668 0.0
N1437 N 0.96874 0.32821 0.13206 0.0
N1438 N 0.98653 0.37185 0.0921 0.0
C1439 C 0.01009 0.35595 0.10772 0.0
C1440 C 0.00046 0.33258 0.12956 0.0
C1441 C 0.93347 0.76885 0.35424 0.0
C1442 C 0.96063 0.77967 0.33987 0.0
C1443 C 0.90289 0.77131 0.34076 0.0
C1444 C 0.89778 0.78424 0.31195 0.0
H1445 H 0.93578 0.75787 0.37601 0.0
H1446 H 0.88309 0.76208 0.35292 0.0
S1447 S 0.96067 0.81716 0.26482 0.0
N1448 N 0.98011 0.80504 0.29526 0.0
N1449 N 0.92288 0.80902 0.26992 0.0
C1450 C 0.92465 0.79573 0.29748 0.0
C1451 C 0.95588 0.79364 0.3114 0.0
C1452 C 0.51499 0.35541 0.97922 0.0
C1453 C 0.52897 0.35074 0.95133 0.0
C1454 C 0.51755 0.38714 -0.00395 0.0
C1455 C 0.53382 0.41612 0.98569 0.0
H1456 H 0.50157 0.33436 0.98814 0.0
H1457 H 0.50603 0.38913 0.01709 0.0
S1458 S 0.57569 0.41781 0.91456 0.0
N1459 N 0.56063 0.37801 0.91468 0.0
N1460 N 0.56516 0.4375 0.94586 0.0
C1461 C 0.54843 0.4117 0.95807 0.0
C1462 C 0.54614 0.37917 0.94109 0.0
C1463 C 0.95869 0.15383 0.21682 0.0
C1464 C 0.98165 0.16487 0.23876 0.0
C1465 C 0.9266 0.15398 0.22304 0.0
C1466 C 0.91702 0.16485 0.25142 0.0
H1467 H 0.96509 0.15 0.19384 0.0
H1468 H 0.90922 0.14993 0.20476 0.0
S1469 S 0.96907 0.18616 0.3182 0.0
N1470 N 0.99363 0.17921 0.29104 0.0
N1471 N 0.93312 0.17912 0.30311 0.0
C1472 C 0.94011 0.16982 0.27467 0.0
C1473 C 0.97274 0.16983 0.26821 0.0
C1474 C 0.05267 0.66621 0.47711 0.0
C1475 C 0.05886 0.66998 0.44681 0.0
C1476 C 0.05988 0.63533 0.49183 0.0
C1477 C 0.07262 0.60625 0.47668 0.0
H1478 H 0.04138 0.68707 0.48942 0.0
H1479 H 0.05379 0.63362 0.5149 0.0
S1480 S 0.09398 0.60263 0.39734 0.0
N1481 N 0.07987 0.64218 0.40255 0.0
N1482 N 0.09208 0.5839 0.42967 0.0
C1483 C 0.07957 0.60994 0.44654 0.0
C1484 C 0.07308 0.64178 0.4318 0.0
C1485 C 0.67 0.73562 0.66156 0.0
C1486 C 0.65471 0.70999 0.67727 0.0
C1487 C 0.68305 0.76546 0.67649 0.0
C1488 C 0.68096 0.77081 0.70754 0.0
H1489 H 0.67191 0.73257 0.63764 0.0
H1490 H 0.69596 0.78388 0.66381 0.0
S1491 S 0.6451 0.70945 0.75878 0.0
N1492 N 0.63985 0.6903 0.7254 0.0
N1493 N 0.66293 0.74694 0.75344 0.0
C1494 C 0.66514 0.74537 0.72332 0.0
C1495 C 0.65259 0.71469 0.7082 0.0
C1496 C 0.55164 0.52688 0.67769 0.0
C1497 C 0.58428 0.53549 0.67876 0.0
C1498 C 0.53182 0.53359 0.65276 0.0
C1499 C 0.54381 0.54909 0.62776 0.0
H1500 H 0.54113 0.51468 0.69626 0.0
H1501 H 0.50706 0.52601 0.65292 0.0
S1502 S 0.62722 0.57844 0.6197 0.0
N1503 N 0.62735 0.56156 0.65287 0.0
N1504 N 0.59042 0.57428 0.60612 0.0
C1505 C 0.57634 0.55843 0.62872 0.0
C1506 C 0.59648 0.55159 0.65413 0.0
C1507 C 0.84509 0.34671 0.97457 0.0
C1508 C 0.81742 0.35498 0.98975 0.0
C1509 C 0.84392 0.33778 0.94398 0.0
C1510 C 0.81501 0.33617 0.92742 0.0
H1511 H 0.86806 0.34781 0.98626 0.0
H1512 H 0.86577 0.33164 0.93327 0.0
S1513 S 0.73576 0.35522 0.95602 0.0
N1514 N 0.76024 0.36121 0.98549 0.0
N1515 N 0.75803 0.34361 0.92808 0.0
C1516 C 0.78713 0.34412 0.94218 0.0
C1517 C 0.78834 0.35377 0.97328 0.0
C1518 C 0.98674 0.56334 0.16439 0.0
C1519 C 0.9677 0.53482 0.1718 0.0
C1520 C 0.00501 0.56204 0.13901 0.0
C1521 C 0.00561 0.53184 0.12048 0.0
H1522 H 0.98771 0.58692 0.17841 0.0
H1523 H 0.01903 0.58468 0.13404 0.0
S1524 S 0.95838 0.45091 0.1284 0.0
N1525 N 0.94929 0.47617 0.15727 0.0
N1526 N 0.98401 0.47347 0.11 0.0
C1527 C 0.98629 0.50334 0.12725 0.0
C1528 C 0.96721 0.5049 0.15275 0.0
C1529 C 0.83944 0.71997 0.45558 0.0
C1530 C 0.82034 0.69687 0.47055 0.0
C1531 C 0.82602 0.74296 0.43562 0.0
C1532 C 0.79302 0.74378 0.43001 0.0
H1533 H 0.86503 0.71863 0.45753 0.0
H1534 H 0.84191 0.75779 0.42252 0.0
S1535 S 0.73231 0.69526 0.46925 0.0
N1536 N 0.76647 0.68102 0.48283 0.0
N1537 N 0.74136 0.72456 0.44501 0.0
C1538 C 0.77352 0.72386 0.44739 0.0
C1539 C 0.78716 0.7003 0.46775 0.0
C1540 C 0.63369 0.55113 0.86019 0.0
C1541 C 0.61668 0.55979 0.83401 0.0
C1542 C 0.62139 0.55736 0.88815 0.0
C1543 C 0.59141 0.57207 0.89097 0.0
H1544 H 0.65603 0.53793 0.85928 0.0
H1545 H 0.63453 0.54839 0.90755 0.0
S1546 S 0.53873 0.60343 0.83009 0.0
N1547 N 0.56949 0.58728 0.81306 0.0
N1548 N 0.54609 0.59818 0.866 0.0
C1549 C 0.57485 0.5828 0.86533 0.0
C1550 C 0.58758 0.5769 0.83673 0.0
C1551 C 0.76167 0.34102 0.15469 0.0
C1552 C 0.7855 0.32902 0.13595 0.0
C1553 C 0.75259 0.32202 0.17924 0.0
C1554 C 0.76684 0.29013 0.18598 0.0
H1555 H 0.75135 0.36631 0.15156 0.0
H1556 H 0.73583 0.33362 0.19412 0.0
S1557 S 0.82604 0.24413 0.14058 0.0
N1558 N 0.81993 0.28085 0.12359 0.0
N1559 N 0.80282 0.24527 0.16918 0.0
C1560 C 0.78865 0.2765 0.16584 0.0
C1561 C 0.798 0.29588 0.14105 0.0
C1562 C 0.00576 0.45989 0.31997 0.0
C1563 C 0.97317 0.46613 0.32126 0.0
C1564 C 0.0235 0.45065 0.34538 0.0
C1565 C 0.0092 0.44763 0.37291 0.0
H1566 H 0.01807 0.46461 0.29983 0.0
H1567 H 0.0489 0.44821 0.34394 0.0
S1568 S 0.92285 0.45242 0.38531 0.0
N1569 N 0.92614 0.46073 0.34986 0.0
N1570 N 0.95931 0.44615 0.39836 0.0
C1571 C 0.97595 0.45006 0.37345 0.0
C1572 C 0.95797 0.45879 0.3474 0.0
C1573 C 0.81862 0.67589 0.60044 0.0
C1574 C 0.85042 0.668 0.59529 0.0
C1575 C 0.81084 0.70108 0.62209 0.0
C1576 C 0.83451 0.71901 0.63965 0.0
H1577 H 0.79951 0.66342 0.58697 0.0
H1578 H 0.78606 0.70644 0.62523 0.0
S1579 S 0.92113 0.70684 0.63645 0.0
N1580 N 0.90571 0.67937 0.61042 0.0
N1581 N 0.89083 0.72648 0.65154 0.0
C1582 C 0.86631 0.71077 0.63548 0.0
C1583 C 0.87432 0.68534 0.61317 0.0
C1584 C 0.70353 0.57263 0.47688 0.0
C1585 C 0.72268 0.5872 0.50071 0.0
C1586 C 0.6705 0.57187 0.47817 0.0
C1587 C 0.65577 0.58626 0.50304 0.0
H1588 H 0.71413 0.5608 0.4575 0.0
H1589 H 0.65645 0.55924 0.46002 0.0
S1590 S 0.69461 0.62986 0.57009 0.0
N1591 N 0.72416 0.61802 0.54919 0.0
N1592 N 0.66192 0.61671 0.55127 0.0
C1593 C 0.67438 0.60193 0.5265 0.0
C1594 C 0.70795 0.6024 0.52541 0.0
C1595 C 0.1981 0.96762 0.54406 0.0
C1596 C 0.20696 0.95521 0.57228 0.0
C1597 C 0.16757 0.98083 0.5379 0.0
C1598 C 0.14431 0.98176 0.55954 0.0
H1599 H 0.21499 0.96753 0.52661 0.0
H1600 H 0.16204 0.98989 0.5158 0.0
S1601 S 0.1551 0.95197 0.63692 0.0
N1602 N 0.18957 0.94469 0.62207 0.0
N1603 N 0.13259 0.96893 0.61047 0.0
C1604 C 0.15286 0.96928 0.5878 0.0
C1605 C 0.18397 0.9562 0.59415 0.0
C1606 C 0.32792 0.92724 0.78825 0.0
C1607 C 0.35576 0.93199 0.77258 0.0
C1608 C 0.31368 0.89429 0.79003 0.0
C1609 C 0.32711 0.86458 0.77677 0.0
H1610 H 0.3174 0.94913 0.79987 0.0
H1611 H 0.29254 0.89196 0.80264 0.0
S1612 S 0.39855 0.86307 0.73132 0.0
N1613 N 0.39511 0.90436 0.74205 0.0
N1614 N 0.3687 0.84235 0.74561 0.0
C1615 C 0.35435 0.86908 0.76016 0.0
C1616 C 0.36853 0.90278 0.75794 0.0
C1617 C 0.41361 0.02513 0.04539 0.0
C1618 C 0.39557 0.01536 0.01943 0.0
C1619 C 0.44676 0.02446 0.04568 0.0
C1620 C 0.46272 0.01385 0.02003 0.0
H1621 H 0.40214 0.03542 0.06491 0.0
H1622 H 0.45992 0.0332 0.06587 0.0
S1623 S 0.4251 0.98289 0.94731 0.0
N1624 N 0.39516 0.99305 0.96824 0.0
N1625 N 0.45737 0.99087 0.96862 0.0
C1626 C 0.44457 0.00226 0.99442 0.0
C1627 C 0.41096 0.0033 0.99417 0.0
C1628 C 0.72025 0.64177 0.74991 0.0
C1629 C 0.71455 0.62789 0.77769 0.0
C1630 C 0.73138 0.67619 0.74794 0.0
C1631 C 0.73649 0.69813 0.77363 0.0
H1632 H 0.71614 0.62596 0.72959 0.0
H1633 H 0.73505 0.686 0.72608 0.0
S1634 S 0.72401 0.67492 0.85154 0.0
N1635 N 0.71441 0.63922 0.83143 0.0
N1636 N 0.73474 0.70366 0.82751 0.0
C1637 C 0.7307 0.68464 0.80144 0.0
C1638 C 0.7199 0.64961 0.80352 0.0
C1639 C 0.89112 0.49463 0.04764 0.0
C1640 C 0.884 0.45905 0.05013 0.0
C1641 C 0.92094 0.50601 0.03879 0.0
C1642 C 0.9449 0.48225 0.03167 0.0
H1643 H 0.8738 0.514 0.05349 0.0
H1644 H 0.92553 0.53375 0.03854 0.0
S1645 S 0.93639 0.38598 0.02949 0.0
N1646 N 0.90217 0.40009 0.04118 0.0
N1647 N 0.95799 0.42116 0.02469 0.0
C1648 C 0.93744 0.44651 0.03252 0.0
C1649 C 0.90713 0.435 0.04173 0.0
C1650 C 0.32459 0.11383 0.7792 0.0
C1651 C 0.34902 0.10527 0.75997 0.0
C1652 C 0.30962 0.14601 0.77837 0.0
C1653 C 0.31836 0.1711 0.75824 0.0
H1654 H 0.31805 0.09624 0.79622 0.0
H1655 H 0.29218 0.15188 0.79476 0.0
S1656 S 0.3774 0.1596 0.69987 0.0
N1657 N 0.37863 0.12293 0.71774 0.0
N1658 N 0.35031 0.1835 0.71601 0.0
C1659 C 0.34072 0.16175 0.73705 0.0
C1660 C 0.35608 0.1288 0.73793 0.0
C1661 C 0.24417 0.92176 0.23886 0.0
C1662 C 0.2547 0.94574 0.26171 0.0
C1663 C 0.25814 0.88908 0.23573 0.0
C1664 C 0.28301 0.87936 0.25538 0.0
H1665 H 0.22335 0.92695 0.22492 0.0
H1666 H 0.24755 0.87041 0.21945 0.0
S1667 S 0.32493 0.93636 0.31318 0.0
N1668 N 0.2958 0.96034 0.29999 0.0
N1669 N 0.32181 0.89874 0.29422 0.0
C1670 C 0.29628 0.90466 0.27575 0.0
C1671 C 0.28218 0.93796 0.27888 0.0
C1672 C 0.45201 0.41311 0.4963 0.0
C1673 C 0.47052 0.40423 0.47191 0.0
C1674 C 0.46118 0.44005 0.5167 0.0
C1675 C 0.48915 0.45947 0.51349 0.0
H1676 H 0.4299 0.39954 0.49955 0.0
H1677 H 0.44532 0.44669 0.5343 0.0
S1678 S 0.54792 0.4444 0.45535 0.0
N1679 N 0.5196 0.41526 0.44709 0.0
N1680 N 0.53682 0.46599 0.48552 0.0
C1681 C 0.50885 0.44967 0.49019 0.0
C1682 C 0.49949 0.42216 0.46932 0.0
C1683 C 0.44858 0.77057 0.24165 0.0
C1684 C 0.45241 0.76475 0.2108 0.0
C1685 C 0.41823 0.77261 0.25371 0.0
C1686 C 0.39028 0.76856 0.2355 0.0
H1687 H 0.46922 0.77474 0.25655 0.0
H1688 H 0.41674 0.77775 0.27746 0.0
S1689 S 0.38739 0.74871 0.15359 0.0
N1690 N 0.42555 0.75221 0.16278 0.0
N1691 N 0.36905 0.75579 0.18487 0.0
C1692 C 0.39397 0.76143 0.2047 0.0
C1693 C 0.42479 0.75962 0.19253 0.0
C1694 C 0.95041 0.72913 0.97143 0.0
C1695 C 0.97322 0.74765 0.95632 0.0
C1696 C 0.95916 0.70141 0.98887 0.0
C1697 C 0.99098 0.69183 0.99206 0.0
H1698 H 0.92546 0.73496 0.96867 0.0
H1699 H 0.94084 0.68636 -0.00117 0.0
S1700 S 0.06013 0.73476 0.96053 0.0
N1701 N 0.02929 0.75678 0.94818 0.0
N1702 N 0.04565 0.70426 0.98112 0.0
C1703 C 0.01425 0.71148 0.97882 0.0
C1704 C 0.00537 0.73953 0.96081 0.0
C1705 C 0.14254 0.25589 0.75066 0.0
C1706 C 0.13229 0.26522 0.72185 0.0
C1707 C 0.17474 0.25653 0.75982 0.0
C1708 C 0.19849 0.26653 0.74067 0.0
H1709 H 0.12551 0.24828 0.7666 0.0
H1710 H 0.18094 0.24942 0.78238 0.0
S1711 S 0.18477 0.29266 0.66252 0.0
N1712 N 0.14893 0.28417 0.67385 0.0
N1713 N 0.20937 0.28539 0.69107 0.0
C1714 C 0.18875 0.27538 0.71156 0.0
C1715 C 0.15578 0.27473 0.70218 0.0
C1716 C 0.5197 0.67573 0.07902 0.0
C1717 C 0.52995 0.68227 0.10904 0.0
C1718 C 0.5254 0.64384 0.06389 0.0
C1719 C 0.54092 0.6166 0.07827 0.0
H1720 H 0.50694 0.69542 0.06701 0.0
H1721 H 0.51653 0.64009 0.041 0.0
S1722 S 0.57441 0.62054 0.156 0.0
N1723 N 0.55824 0.65906 0.15198 0.0
N1724 N 0.5678 0.59875 0.12386 0.0
C1725 C 0.55181 0.62282 0.10807 0.0
C1726 C 0.5467 0.6557 0.12333 0.0
C1727 C 0.07773 0.79913 0.82788 0.0
C1728 C 0.06603 0.83249 0.83455 0.0
C1729 C 0.10681 0.79483 0.81466 0.0
C1730 C 0.12541 0.8237 0.80788 0.0
H1731 H 0.06436 0.77604 0.83287 0.0
H1732 H 0.11519 0.76865 0.81047 0.0
S1733 S 0.10556 0.91655 0.82023 0.0
N1734 N 0.07521 0.89502 0.83285 0.0
N1735 N 0.13016 0.88668 0.80809 0.0
C1736 C 0.11402 0.8572 0.81413 0.0
C1737 C 0.08422 0.86166 0.8274 0.0
C1738 C 0.05916 0.37602 0.60647 0.0
C1739 C 0.03904 0.34949 0.59358 0.0
C1740 C 0.06612 0.40621 0.59106 0.0
C1741 C 0.05378 0.41087 0.56186 0.0
H1742 H 0.06848 0.37423 0.62918 0.0
H1743 H 0.08096 0.42627 0.60229 0.0
S1744 S 0.00207 0.34787 0.51708 0.0
N1745 N 0.00829 0.3292 0.54921 0.0
N1746 N 0.02187 0.38519 0.52013 0.0
C1747 C 0.03487 0.38378 0.54823 0.0
C1748 C 0.02736 0.35337 0.56409 0.0
C1749 C 0.41215 0.31703 0.31869 0.0
C1750 C 0.40649 0.32838 0.34804 0.0
C1751 C 0.38749 0.30411 0.29958 0.0
C1752 C 0.35628 0.30242 0.30909 0.0
H1753 H 0.43606 0.31619 0.31092 0.0
H1754 H 0.39308 0.29517 0.27728 0.0
S1755 S 0.32877 0.33388 0.38283 0.0
N1756 N 0.36748 0.34058 0.38495 0.0
N1757 N 0.3207 0.31649 0.34915 0.0
C1758 C 0.35012 0.31553 0.33801 0.0
C1759 C 0.37534 0.32855 0.35744 0.0
C1760 C 0.46244 0.53748 0.40795 0.0
C1761 C 0.4305 0.52793 0.40226 0.0
C1762 C 0.47315 0.55157 0.4358 0.0
C1763 C 0.45246 0.5563 0.45935 0.0
H1764 H 0.4792 0.53533 0.39041 0.0
H1765 H 0.49806 0.55833 0.4389 0.0
S1766 S 0.36685 0.53292 0.4566 0.0
N1767 N 0.37847 0.52264 0.42279 0.0
N1768 N 0.39862 0.54864 0.47541 0.0
C1769 C 0.42055 0.54599 0.4542 0.0
C1770 C 0.4096 0.5319 0.42565 0.0
C1771 C 0.29934 0.71205 0.06224 0.0
C1772 C 0.30318 0.6759 0.06057 0.0
C1773 C 0.28855 0.72873 0.08811 0.0
C1774 C 0.28198 0.7099 0.11348 0.0
H1775 H 0.3043 0.72746 0.04328 0.0
H1776 H 0.28564 0.75666 0.08828 0.0
S1777 S 0.29011 0.61431 0.12013 0.0
N1778 N 0.29972 0.62151 0.08569 0.0
N1779 N 0.28157 0.65274 0.13515 0.0
C1780 C 0.28596 0.67351 0.11188 0.0
C1781 C 0.29611 0.65655 0.08523 0.0
C1782 C 0.0798 0.53331 0.89869 0.0
C1783 C 0.11176 0.52317 0.89814 0.0
C1784 C 0.06165 0.52817 0.92369 0.0
C1785 C 0.07453 0.51197 0.94885 0.0
H1786 H 0.06846 0.5449 0.8795 0.0
H1787 H 0.03732 0.53675 0.92327 0.0
S1788 S 0.15788 0.48442 0.96053 0.0
N1789 N 0.15609 0.49888 0.92642 0.0
N1790 N 0.12192 0.48884 0.97293 0.0
C1791 C 0.10661 0.50258 0.94899 0.0
C1792 C 0.12523 0.50831 0.9238 0.0
C1793 C 0.30487 0.29264 0.57121 0.0
C1794 C 0.32667 0.31622 0.55988 0.0
C1795 C 0.30758 0.28317 0.6009 0.0
C1796 C 0.33267 0.296 0.61985 0.0
H1797 H 0.28348 0.28487 0.55838 0.0
H1798 H 0.28844 0.26834 0.60979 0.0
S1799 S 0.40186 0.34758 0.59834 0.0
N1800 N 0.3787 0.3441 0.56778 0.0
N1801 N 0.38358 0.32596 0.62373 0.0
C1802 C 0.35743 0.31429 0.60752 0.0
C1803 C 0.35463 0.32421 0.57728 0.0
C1804 C 0.45651 0.49151 0.22318 0.0
C1805 C 0.46347 0.52487 0.23612 0.0
C1806 C 0.46926 0.48048 0.19617 0.0
C1807 C 0.48935 0.50243 0.18108 0.0
H1808 H 0.44131 0.47361 0.23414 0.0
H1809 H 0.46348 0.45455 0.1871 0.0
S1810 S 0.51214 0.5935 0.20394 0.0
N1811 N 0.49025 0.58036 0.23096 0.0
N1812 N 0.51363 0.56005 0.17987 0.0
C1813 C 0.49596 0.53611 0.19347 0.0
C1814 C 0.48318 0.5472 0.22107 0.0
C1815 C 0.31792 0.722 0.91073 0.0
C1816 C 0.29431 0.69784 0.91819 0.0
C1817 C 0.31448 0.74216 0.8856 0.0
C1818 C 0.28688 0.74005 0.86723 0.0
H1819 H 0.34025 0.72423 0.92347 0.0
H1820 H 0.33418 0.75847 0.87979 0.0
S1821 S 0.21635 0.68424 0.87788 0.0
N1822 N 0.24119 0.67508 0.90578 0.0
N1823 N 0.23436 0.71408 0.859 0.0
C1824 C 0.26201 0.71814 0.8754 0.0
C1825 C 0.26577 0.69685 0.90078 0.0
C1826 C 0.09986 0.57339 0.72387 0.0
C1827 C 0.12459 0.55158 0.73304 0.0
C1828 C 0.09287 0.57805 0.69359 0.0
C1829 C 0.11086 0.5617 0.67166 0.0
H1830 H 0.08494 0.58573 0.74009 0.0
H1831 H 0.07262 0.59354 0.68722 0.0
S1832 S 0.17991 0.50477 0.68408 0.0
N1833 N 0.1685 0.51551 0.71786 0.0
N1834 N 0.15537 0.52453 0.66094 0.0
C1835 C 0.13667 0.54138 0.68055 0.0
C1836 C 0.14353 0.53622 0.7113 0.0
C1837 C 0.2218 0.36059 0.43468 0.0
C1838 C 0.247 0.38481 0.43917 0.0
C1839 C 0.21198 0.3483 0.40598 0.0
C1840 C 0.22656 0.36036 0.38081 0.0
H1841 H 0.21093 0.3493 0.4535 0.0
H1842 H 0.19409 0.32785 0.40352 0.0
S1843 S 0.29088 0.42672 0.38012 0.0
N1844 N 0.2843 0.42271 0.41579 0.0
N1845 N 0.2656 0.39973 0.36183 0.0
C1846 C 0.25013 0.3864 0.38481 0.0
C1847 C 0.26046 0.39857 0.41402 0.0
C1848 C 0.29421 0.50006 0.5327 0.0
C1849 C 0.27788 0.48349 0.55473 0.0
C1850 C 0.31934 0.52297 0.5405 0.0
C1851 C 0.32923 0.52926 0.57057 0.0
H1852 H 0.28991 0.49228 0.50941 0.0
H1853 H 0.33333 0.53251 0.52282 0.0
S1854 S 0.28988 0.4974 0.6364 0.0
N1855 N 0.26946 0.47923 0.60755 0.0
N1856 N 0.31758 0.52176 0.62236 0.0
C1857 C 0.31066 0.51609 0.59275 0.0
C1858 C 0.28457 0.49335 0.58475 0.0
C1859 C 0.89662 0.04148 0.52438 0.0
C1860 C 0.89042 0.0654 0.50201 0.0
C1861 C 0.92735 0.02879 0.53004 0.0
C1862 C 0.9531 0.0391 0.51331 0.0
H1863 H 0.87765 0.03267 0.5378 0.0
H1864 H 0.93091 0.01077 0.54776 0.0
S1865 S 0.94927 0.10023 0.45129 0.0
N1866 N 0.91265 0.09815 0.46247 0.0
N1867 N 0.96989 0.0744 0.47294 0.0
C1868 C 0.94706 0.06268 0.4906 0.0
C1869 C 0.91592 0.07579 0.48504 0.0
C1870 C 0.68513 0.13234 0.30766 0.0
C1871 C 0.7055 0.10406 0.3114 0.0
C1872 C 0.69541 0.16277 0.29427 0.0
C1873 C 0.72615 0.16554 0.28342 0.0
H1874 H 0.66144 0.13132 0.31592 0.0
H1875 H 0.67953 0.18461 0.29336 0.0
S1876 S 0.78639 0.09571 0.28368 0.0
N1877 N 0.75631 0.07907 0.30083 0.0
N1878 N 0.77536 0.13502 0.27453 0.0
C1879 C 0.74583 0.1362 0.28537 0.0
C1880 C 0.73561 0.10581 0.29967 0.0
C1881 C 0.69074 0.93862 0.01345 0.0
C1882 C 0.70131 0.93662 0.04338 0.0
C1883 C 0.66961 0.96435 0.00466 0.0
C1884 C 0.65819 0.98886 0.02558 0.0
H1885 H 0.69682 0.91873 -0.0029 0.0
H1886 H 0.65992 0.96285 0.98192 0.0
S1887 S 0.68634 0.00108 0.10474 0.0
N1888 N 0.70461 0.96598 0.09246 0.0
N1889 N 0.66483 0.01436 0.07597 0.0
C1890 C 0.6722 0.99016 0.05458 0.0
C1891 C 0.69364 0.96385 0.06355 0.0
C1892 C 0.35601 0.41775 0.2745 0.0
C1893 C 0.33707 0.44056 0.29113 0.0
C1894 C 0.34231 0.39252 0.25432 0.0
C1895 C 0.30922 0.38958 0.24984 0.0
H1896 H 0.38153 0.41833 0.27808 0.0
H1897 H 0.3576 0.37344 0.24418 0.0
S1898 S 0.24955 0.44716 0.2836 0.0
N1899 N 0.28378 0.46146 0.29875 0.0
N1900 N 0.25822 0.41462 0.26045 0.0
C1901 C 0.29032 0.41438 0.26422 0.0
C1902 C 0.30414 0.43952 0.28513 0.0
C1903 C 0.17452 0.58709 0.00928 0.0
C1904 C 0.20012 0.56816 0.02107 0.0
C1905 C 0.14325 0.58056 0.01742 0.0
C1906 C 0.13613 0.55443 0.03736 0.0
H1907 H 0.17862 0.60712 0.99357 0.0
H1908 H 0.12437 0.59532 0.00712 0.0
S1909 S 0.19444 0.49746 0.07472 0.0
N1910 N 0.21606 0.52238 0.05423 0.0
N1911 N 0.15751 0.50984 0.06893 0.0
C1912 C 0.16152 0.53555 0.0495 0.0
C1913 C 0.19338 0.54247 0.04154 0.0
C1914 C 0.74104 0.92597 0.27416 0.0
C1915 C 0.74729 0.94286 0.30234 0.0
C1916 C 0.75797 0.89639 0.26511 0.0
C1917 C 0.78161 0.88266 0.28397 0.0
H1918 H 0.72154 0.93414 0.25977 0.0
H1919 H 0.75065 0.88255 0.24444 0.0
S1920 S 0.81163 0.92035 0.35704 0.0
N1921 N 0.78267 0.9463 0.34675 0.0
N1922 N 0.81355 0.8904 0.32987 0.0
C1923 C 0.79013 0.901 0.31076 0.0
C1924 C 0.77326 0.93123 0.31989 0.0
C1925 C 0.82244 0.13723 0.82851 0.0
C1926 C 0.83571 0.11368 0.80794 0.0
C1927 C 0.80994 0.16875 0.81951 0.0
C1928 C 0.80969 0.17776 0.78952 0.0
H1929 H 0.82298 0.13213 0.85205 0.0
H1930 H 0.80118 0.18666 0.83637 0.0
S1931 S 0.83816 0.12365 0.72623 0.0
N1932 N 0.8455 0.10032 0.75574 0.0
N1933 N 0.82149 0.15964 0.73878 0.0
C1934 C 0.82105 0.15365 0.76836 0.0
C1935 C 0.83425 0.12161 0.77759 0.0
loop_
_geom_bond_atom_site_label_1
_geom_bond_atom_site_label_2
_geom_bond_distance
_geom_bond_site_symmetry_2
_ccdc_geom_bond_type
Mg0 O1 2.028 . S
Mg0 O7 1.986 . S
Mg0 O9 2.114 . S
Mg0 O10 2.251 . S
Mg0 O13 2.010 . S
O1 Mg0 2.028 . S
O1 C4 1.250 . S
O2 Mg3 2.028 . S
O2 C4 1.248 . S
Mg3 O2 2.028 . S
Mg3 O8 2.032 . S
Mg3 O10 2.079 . S
C4 O1 1.250 . S
C4 O2 1.248 . S
C5 O6 1.264 . S
C5 O13 1.249 . S
O6 C5 1.264 . S
O7 Mg0 1.986 . S
O7 C11 1.246 . S
O8 Mg3 2.032 . S
O8 C11 1.259 . S
O9 Mg0 2.114 . S
O9 C12 1.252 . S
O10 Mg0 2.251 . S
O10 Mg3 2.079 . S
O10 C12 1.273 . S
C11 O7 1.246 . S
C11 O8 1.259 . S
C12 O9 1.252 . S
C12 O10 1.273 . S
O13 Mg0 2.010 . S
O13 C5 1.249 . S
Mg14 O15 2.028 . S
Mg14 O21 1.986 . S
Mg14 O23 2.114 . S
Mg14 O24 2.251 1_455 S
Mg14 O27 2.010 . S
O15 Mg14 2.028 . S
O15 C18 1.250 . S
O16 Mg17 2.028 1_455 S
O16 C18 1.248 . S
Mg17 O16 2.028 1_655 S
Mg17 O22 2.032 1_655 S
Mg17 O24 2.079 . S
C18 O15 1.250 . S
C18 O16 1.248 . S
C19 O20 1.264 . S
C19 O27 1.249 . S
O20 C19 1.264 . S
O21 Mg14 1.986 . S
O21 C25 1.246 . S
O22 Mg17 2.032 1_455 S
O22 C25 1.259 . S
O23 Mg14 2.114 . S
O23 C26 1.252 1_455 S
O24 Mg14 2.251 1_655 S
O24 Mg17 2.079 . S
O24 C26 1.273 . S
C25 O21 1.246 . S
C25 O22 1.259 . S
C26 O23 1.252 1_655 S
C26 O24 1.273 . S
O27 Mg14 2.010 . S
O27 C19 1.249 . S
Mg28 O29 2.028 . S
Mg28 O35 1.986 . S
Mg28 O37 2.114 . S
Mg28 O38 2.251 . S
Mg28 O41 2.010 . S
O29 Mg28 2.028 . S
O29 C32 1.250 . S
O30 Mg31 2.028 . S
O30 C32 1.248 . S
Mg31 O30 2.028 . S
Mg31 O36 2.032 . S
Mg31 O38 2.079 . S
C32 O29 1.250 . S
C32 O30 1.248 . S
C33 O34 1.264 . S
C33 O41 1.249 . S
O34 C33 1.264 . S
O35 Mg28 1.986 . S
O35 C39 1.246 . S
O36 Mg31 2.032 . S
O36 C39 1.259 . S
O37 Mg28 2.114 . S
O37 C40 1.252 . S
O38 Mg28 2.251 . S
O38 Mg31 2.079 . S
O38 C40 1.273 . S
C39 O35 1.246 . S
C39 O36 1.259 . S
C40 O37 1.252 . S
C40 O38 1.273 . S
O41 Mg28 2.010 . S
O41 C33 1.249 . S
Mg42 O43 2.028 . S
Mg42 O49 1.986 . S
Mg42 O51 2.114 . S
Mg42 O52 2.251 . S
Mg42 O55 2.010 . S
O43 Mg42 2.028 . S
O43 C46 1.250 . S
O44 Mg45 2.028 . S
O44 C46 1.248 . S
Mg45 O44 2.028 . S
Mg45 O50 2.032 . S
Mg45 O52 2.079 . S
C46 O43 1.250 . S
C46 O44 1.248 . S
C47 O48 1.264 . S
C47 O55 1.249 . S
O48 C47 1.264 . S
O49 Mg42 1.986 . S
O49 C53 1.246 . S
O50 Mg45 2.032 . S
O50 C53 1.259 . S
O51 Mg42 2.114 . S
O51 C54 1.252 . S
O52 Mg42 2.251 . S
O52 Mg45 2.079 . S
O52 C54 1.273 . S
C53 O49 1.246 . S
C53 O50 1.259 . S
C54 O51 1.252 . S
C54 O52 1.273 . S
O55 Mg42 2.010 . S
O55 C47 1.249 . S
Mg56 O57 2.028 . S
Mg56 O63 1.986 1_545 S
Mg56 O65 2.114 . S
Mg56 O66 2.251 . S
Mg56 O69 2.010 . S
O57 Mg56 2.028 . S
O57 C60 1.250 . S
O58 Mg59 2.028 . S
O58 C60 1.248 . S
Mg59 O58 2.028 . S
Mg59 O64 2.032 1_545 S
Mg59 O66 2.079 . S
C60 O57 1.250 . S
C60 O58 1.248 . S
C61 O62 1.268 . S
C61 O69 1.249 . S
O62 C61 1.268 . S
O63 Mg56 1.986 1_565 S
O63 C67 1.246 . S
O64 Mg59 2.032 1_565 S
O64 C67 1.259 . S
O65 Mg56 2.114 . S
O65 C68 1.252 . S
O66 Mg56 2.251 . S
O66 Mg59 2.079 . S
O66 C68 1.273 . S
C67 O63 1.246 . S
C67 O64 1.259 . S
C68 O65 1.252 . S
C68 O66 1.273 . S
O69 Mg56 2.010 . S
O69 C61 1.249 . S
Mg70 O71 2.028 . S
Mg70 O77 1.986 . S
Mg70 O79 2.114 . S
Mg70 O80 2.251 . S
Mg70 O83 2.010 . S
O71 Mg70 2.028 . S
O71 C74 1.250 . S
O72 Mg73 2.028 . S
O72 C74 1.248 . S
Mg73 O72 2.028 . S
Mg73 O78 2.032 . S
Mg73 O80 2.079 . S
C74 O71 1.250 . S
C74 O72 1.248 . S
C75 O76 1.264 1_565 S
C75 O83 1.249 . S
O76 C75 1.264 1_545 S
O77 Mg70 1.986 . S
O77 C81 1.246 . S
O78 Mg73 2.032 . S
O78 C81 1.259 . S
O79 Mg70 2.114 . S
O79 C82 1.252 . S
O80 Mg70 2.251 . S
O80 Mg73 2.079 . S
O80 C82 1.273 . S
C81 O77 1.246 . S
C81 O78 1.259 . S
C82 O79 1.252 . S
C82 O80 1.273 . S
O83 Mg70 2.010 . S
O83 C75 1.249 . S
Mg84 O85 2.028 1_545 S
Mg84 O91 1.986 . S
Mg84 O93 2.114 . S
Mg84 O94 2.251 . S
Mg84 O97 2.010 . S
O85 Mg84 2.028 1_565 S
O85 C88 1.250 . S
O86 Mg87 2.028 1_565 S
O86 C88 1.248 . S
Mg87 O86 2.028 1_545 S
Mg87 O92 2.032 . S
Mg87 O94 2.079 . S
C88 O85 1.250 . S
C88 O86 1.248 . S
C89 O90 1.264 . S
C89 O97 1.249 . S
O90 C89 1.264 . S
O91 Mg84 1.986 . S
O91 C95 1.246 . S
O92 Mg87 2.032 . S
O92 C95 1.259 . S
O93 Mg84 2.114 . S
O93 C96 1.252 . S
O94 Mg84 2.251 . S
O94 Mg87 2.079 . S
O94 C96 1.273 . S
C95 O91 1.246 . S
C95 O92 1.259 . S
C96 O93 1.252 . S
C96 O94 1.273 . S
O97 Mg84 2.010 . S
O97 C89 1.249 . S
Mg98 O99 2.028 . S
Mg98 O105 1.986 1_554 S
Mg98 O107 2.114 . S
Mg98 O108 2.251 . S
Mg98 O111 2.010 . S
O99 Mg98 2.028 . S
O99 C102 1.250 . S
O100 Mg101 2.028 . S
O100 C102 1.248 . S
Mg101 O100 2.028 . S
Mg101 O106 2.032 . S
Mg101 O108 2.079 . S
C102 O99 1.250 . S
C102 O100 1.248 . S
C103 O104 1.264 . S
C103 O111 1.249 . S
O104 C103 1.264 . S
O105 Mg98 1.986 1_556 S
O105 C109 1.246 . S
O106 Mg101 2.032 . S
O106 C109 1.259 1_554 S
O107 Mg98 2.114 . S
O107 C110 1.252 . S
O108 Mg98 2.251 . S
O108 Mg101 2.079 . S
O108 C110 1.273 . S
C109 O105 1.246 . S
C109 O106 1.259 1_556 S
C110 O107 1.252 . S
C110 O108 1.273 . S
O111 Mg98 2.010 . S
O111 C103 1.249 . S
Mg112 O113 2.028 . S
Mg112 O119 1.986 . S
Mg112 O121 2.114 . S
Mg112 O122 2.251 . S
Mg112 O125 2.010 . S
O113 Mg112 2.028 . S
O113 C116 1.250 . S
O114 Mg115 2.028 . S
O114 C116 1.248 . S
Mg115 O114 2.028 . S
Mg115 O120 2.032 . S
Mg115 O122 2.079 . S
C116 O113 1.250 . S
C116 O114 1.248 . S
C117 O118 1.264 . S
C117 O125 1.249 . S
O118 C117 1.264 . S
O119 Mg112 1.986 . S
O119 C123 1.246 . S
O120 Mg115 2.032 . S
O120 C123 1.259 . S
O121 Mg112 2.114 . S
O121 C124 1.252 . S
O122 Mg112 2.251 . S
O122 Mg115 2.079 . S
O122 C124 1.273 . S
C123 O119 1.246 . S
C123 O120 1.259 . S
C124 O121 1.252 . S
C124 O122 1.273 . S
O125 Mg112 2.010 . S
O125 C117 1.249 . S
Mg126 O127 2.028 . S
Mg126 O133 1.986 . S
Mg126 O135 2.114 . S
Mg126 O136 2.251 . S
Mg126 O139 2.010 . S
O127 Mg126 2.028 . S
O127 C130 1.250 . S
O128 Mg129 2.028 . S
O128 C130 1.248 . S
Mg129 O128 2.028 . S
Mg129 O134 2.032 . S
Mg129 O136 2.079 . S
C130 O127 1.250 . S
C130 O128 1.248 . S
C131 O132 1.264 . S
C131 O139 1.249 . S
O132 C131 1.264 . S
O133 Mg126 1.986 . S
O133 C137 1.246 . S
O134 Mg129 2.032 . S
O134 C137 1.259 . S
O135 Mg126 2.114 . S
O135 C138 1.252 . S
O136 Mg126 2.251 . S
O136 Mg129 2.079 . S
O136 C138 1.273 . S
C137 O133 1.246 . S
C137 O134 1.259 . S
C138 O135 1.252 . S
C138 O136 1.273 . S
O139 Mg126 2.010 . S
O139 C131 1.249 . S
Mg140 O141 2.028 . S
Mg140 O147 1.986 . S
Mg140 O149 2.114 . S
Mg140 O150 2.251 . S
Mg140 O153 2.010 . S
O141 Mg140 2.028 . S
O141 C144 1.250 . S
O142 Mg143 2.028 . S
O142 C144 1.248 . S
Mg143 O142 2.028 . S
Mg143 O148 2.032 . S
Mg143 O150 2.079 . S
C144 O141 1.250 . S
C144 O142 1.248 . S
C145 O146 1.264 . S
C145 O153 1.249 . S
O146 C145 1.264 . S
O147 Mg140 1.986 . S
O147 C151 1.246 . S
O148 Mg143 2.032 . S
O148 C151 1.259 . S
O149 Mg140 2.114 . S
O149 C152 1.252 . S
O150 Mg140 2.251 . S
O150 Mg143 2.079 . S
O150 C152 1.273 . S
C151 O147 1.246 . S
C151 O148 1.259 . S
C152 O149 1.252 . S
C152 O150 1.273 . S
O153 Mg140 2.010 . S
O153 C145 1.249 . S
Mg154 O155 2.028 . S
Mg154 O161 1.986 . S
Mg154 O163 2.114 . S
Mg154 O164 2.251 . S
Mg154 O167 2.010 . S
O155 Mg154 2.028 . S
O155 C158 1.250 . S
O156 Mg157 2.028 . S
O156 C158 1.248 . S
Mg157 O156 2.028 . S
Mg157 O162 2.032 . S
Mg157 O164 2.079 . S
C158 O155 1.250 . S
C158 O156 1.248 . S
C159 O160 1.264 . S
C159 O167 1.249 . S
O160 C159 1.264 . S
O161 Mg154 1.986 . S
O161 C165 1.246 . S
O162 Mg157 2.032 . S
O162 C165 1.259 . S
O163 Mg154 2.114 . S
O163 C166 1.252 . S
O164 Mg154 2.251 . S
O164 Mg157 2.079 . S
O164 C166 1.273 . S
C165 O161 1.246 . S
C165 O162 1.259 . S
C166 O163 1.252 . S
C166 O164 1.273 . S
O167 Mg154 2.010 . S
O167 C159 1.249 . S
Mg168 O169 2.028 1_655 S
Mg168 O175 1.986 1_655 S
Mg168 O177 2.114 . S
Mg168 O178 2.251 . S
Mg168 O181 2.010 1_655 S
O169 Mg168 2.028 1_455 S
O169 C172 1.250 1_455 S
O170 Mg171 2.028 . S
O170 C172 1.248 . S
Mg171 O170 2.028 . S
Mg171 O176 2.032 . S
Mg171 O178 2.079 . S
C172 O169 1.250 1_655 S
C172 O170 1.248 . S
C173 O174 1.264 . S
C173 O181 1.249 . S
O174 C173 1.264 . S
O175 Mg168 1.986 1_455 S
O175 C179 1.246 1_455 S
O176 Mg171 2.032 . S
O176 C179 1.259 . S
O177 Mg168 2.114 . S
O177 C180 1.252 . S
O178 Mg168 2.251 . S
O178 Mg171 2.079 . S
O178 C180 1.273 . S
C179 O175 1.246 1_655 S
C179 O176 1.259 . S
C180 O177 1.252 . S
C180 O178 1.273 . S
O181 Mg168 2.010 1_455 S
O181 C173 1.249 . S
Mg182 O183 2.028 . S
Mg182 O189 1.986 . S
Mg182 O191 2.114 . S
Mg182 O192 2.251 1_455 S
Mg182 O195 2.010 . S
O183 Mg182 2.028 . S
O183 C186 1.250 . S
O184 Mg185 2.028 1_455 S
O184 C186 1.248 . S
Mg185 O184 2.028 1_655 S
Mg185 O190 2.032 1_655 S
Mg185 O192 2.079 . S
C186 O183 1.250 . S
C186 O184 1.248 . S
C187 O188 1.264 . S
C187 O195 1.249 . S
O188 C187 1.264 . S
O189 Mg182 1.986 . S
O189 C193 1.246 . S
O190 Mg185 2.032 1_455 S
O190 C193 1.259 . S
O191 Mg182 2.114 . S
O191 C194 1.252 1_455 S
O192 Mg182 2.251 1_655 S
O192 Mg185 2.079 . S
O192 C194 1.273 . S
C193 O189 1.246 . S
C193 O190 1.259 . S
C194 O191 1.252 1_655 S
C194 O192 1.273 . S
O195 Mg182 2.010 . S
O195 C187 1.249 . S
Mg196 O197 2.028 . S
Mg196 O203 1.986 . S
Mg196 O205 2.114 . S
Mg196 O206 2.251 . S
Mg196 O209 2.010 . S
O197 Mg196 2.028 . S
O197 C200 1.250 . S
O198 Mg199 2.028 . S
O198 C200 1.248 . S
Mg199 O198 2.028 . S
Mg199 O204 2.032 . S
Mg199 O206 2.079 . S
C200 O197 1.250 . S
C200 O198 1.248 . S
C201 O202 1.264 . S
C201 O209 1.249 . S
O202 C201 1.264 . S
O203 Mg196 1.986 . S
O203 C207 1.246 . S
O204 Mg199 2.032 . S
O204 C207 1.259 . S
O205 Mg196 2.114 . S
O205 C208 1.252 . S
O206 Mg196 2.251 . S
O206 Mg199 2.079 . S
O206 C208 1.273 . S
C207 O203 1.246 . S
C207 O204 1.259 . S
C208 O205 1.252 . S
C208 O206 1.273 . S
O209 Mg196 2.010 . S
O209 C201 1.249 . S
Mg210 O211 2.028 . S
Mg210 O217 1.986 . S
Mg210 O219 2.114 . S
Mg210 O220 2.251 . S
Mg210 O223 2.010 . S
O211 Mg210 2.028 . S
O211 C214 1.250 . S
O212 Mg213 2.028 . S
O212 C214 1.248 . S
Mg213 O212 2.028 . S
Mg213 O218 2.032 . S
Mg213 O220 2.079 . S
C214 O211 1.250 . S
C214 O212 1.248 . S
C215 O216 1.264 . S
C215 O223 1.249 . S
O216 C215 1.264 . S
O217 Mg210 1.986 . S
O217 C221 1.246 . S
O218 Mg213 2.032 . S
O218 C221 1.259 . S
O219 Mg210 2.114 . S
O219 C222 1.252 . S
O220 Mg210 2.251 . S
O220 Mg213 2.079 . S
O220 C222 1.273 . S
C221 O217 1.246 . S
C221 O218 1.259 . S
C222 O219 1.252 . S
C222 O220 1.273 . S
O223 Mg210 2.010 . S
O223 C215 1.249 . S
Mg224 O225 2.028 1_545 S
Mg224 O231 1.986 . S
Mg224 O233 2.114 1_545 S
Mg224 O234 2.251 . S
Mg224 O237 2.010 . S
O225 Mg224 2.028 1_565 S
O225 C228 1.250 . S
O226 Mg227 2.028 1_565 S
O226 C228 1.248 . S
Mg227 O226 2.028 1_545 S
Mg227 O232 2.032 . S
Mg227 O234 2.079 . S
C228 O225 1.250 . S
C228 O226 1.248 . S
C229 O230 1.264 . S
C229 O237 1.249 . S
O230 C229 1.264 . S
O231 Mg224 1.986 . S
O231 C235 1.246 . S
O232 Mg227 2.032 . S
O232 C235 1.259 . S
O233 Mg224 2.114 1_565 S
O233 C236 1.252 1_565 S
O234 Mg224 2.251 . S
O234 Mg227 2.079 . S
O234 C236 1.273 . S
C235 O231 1.246 . S
C235 O232 1.259 . S
C236 O233 1.252 1_545 S
C236 O234 1.273 . S
O237 Mg224 2.010 . S
O237 C229 1.249 . S
Mg238 O239 2.028 . S
Mg238 O245 1.986 . S
Mg238 O247 2.114 . S
Mg238 O248 2.251 . S
Mg238 O251 2.010 . S
O239 Mg238 2.028 . S
O239 C242 1.250 . S
O240 Mg241 2.028 . S
O240 C242 1.248 . S
Mg241 O240 2.028 . S
Mg241 O246 2.032 . S
Mg241 O248 2.079 . S
C242 O239 1.250 . S
C242 O240 1.248 . S
C243 O244 1.264 . S
C243 O251 1.249 . S
O244 C243 1.264 . S
O245 Mg238 1.986 . S
O245 C249 1.246 . S
O246 Mg241 2.032 . S
O246 C249 1.259 . S
O247 Mg238 2.114 . S
O247 C250 1.252 . S
O248 Mg238 2.251 . S
O248 Mg241 2.079 . S
O248 C250 1.273 . S
C249 O245 1.246 . S
C249 O246 1.259 . S
C250 O247 1.252 . S
C250 O248 1.273 . S
O251 Mg238 2.010 . S
O251 C243 1.249 . S
Mg252 O253 2.028 . S
Mg252 O259 1.986 1_545 S
Mg252 O261 2.114 . S
Mg252 O262 2.251 . S
Mg252 O265 2.010 . S
O253 Mg252 2.028 . S
O253 C256 1.250 . S
O254 Mg255 2.028 . S
O254 C256 1.248 . S
Mg255 O254 2.028 . S
Mg255 O260 2.032 1_545 S
Mg255 O262 2.079 . S
C256 O253 1.250 . S
C256 O254 1.248 . S
C257 O258 1.264 1_545 S
C257 O265 1.249 . S
O258 C257 1.264 1_565 S
O259 Mg252 1.986 1_565 S
O259 C263 1.246 . S
O260 Mg255 2.032 1_565 S
O260 C263 1.259 . S
O261 Mg252 2.114 . S
O261 C264 1.252 . S
O262 Mg252 2.251 . S
O262 Mg255 2.079 . S
O262 C264 1.273 . S
C263 O259 1.246 . S
C263 O260 1.259 . S
C264 O261 1.252 . S
C264 O262 1.273 . S
O265 Mg252 2.010 . S
O265 C257 1.249 . S
Mg266 O267 2.028 . S
Mg266 O273 1.986 . S
Mg266 O275 2.114 . S
Mg266 O276 2.251 . S
Mg266 O279 2.010 . S
O267 Mg266 2.028 . S
O267 C270 1.250 1_554 S
O268 Mg269 2.028 . S
O268 C270 1.248 1_554 S
Mg269 O268 2.028 . S
Mg269 O274 2.032 . S
Mg269 O276 2.079 . S
C270 O267 1.250 1_556 S
C270 O268 1.248 1_556 S
C271 O272 1.264 1_565 S
C271 O279 1.249 . S
O272 C271 1.264 1_545 S
O273 Mg266 1.986 . S
O273 C277 1.246 . S
O274 Mg269 2.032 . S
O274 C277 1.259 . S
O275 Mg266 2.114 . S
O275 C278 1.252 . S
O276 Mg266 2.251 . S
O276 Mg269 2.079 . S
O276 C278 1.273 . S
C277 O273 1.246 . S
C277 O274 1.259 . S
C278 O275 1.252 . S
C278 O276 1.273 . S
O279 Mg266 2.010 . S
O279 C271 1.249 . S
Mg280 O281 2.028 1_556 S
Mg280 O287 1.986 . S
Mg280 O289 2.114 1_556 S
Mg280 O290 2.251 . S
Mg280 O293 2.010 . S
O281 Mg280 2.028 1_554 S
O281 C284 1.250 . S
O282 Mg283 2.046 . S
O282 C284 1.248 . S
Mg283 O282 2.046 . S
Mg283 O288 2.016 1_554 S
Mg283 O290 2.077 1_554 S
C284 O281 1.250 . S
C284 O282 1.248 . S
C285 O286 1.264 . S
C285 O293 1.249 . S
O286 C285 1.264 . S
O287 Mg280 1.986 . S
O287 C291 1.246 . S
O288 Mg283 2.016 1_556 S
O288 C291 1.259 . S
O289 Mg280 2.114 1_554 S
O289 C292 1.252 . S
O290 Mg280 2.251 . S
O290 Mg283 2.077 1_556 S
O290 C292 1.273 1_556 S
C291 O287 1.246 . S
C291 O288 1.259 . S
C292 O289 1.252 . S
C292 O290 1.273 1_554 S
O293 Mg280 2.010 . S
O293 C285 1.249 . S
Mg294 O295 2.028 . S
Mg294 O301 1.986 . S
Mg294 O303 2.114 . S
Mg294 O304 2.251 . S
Mg294 O307 2.010 . S
O295 Mg294 2.028 . S
O295 C298 1.250 . S
O296 Mg297 2.028 . S
O296 C298 1.248 . S
Mg297 O296 2.028 . S
Mg297 O302 2.032 . S
Mg297 O304 2.079 . S
C298 O295 1.250 . S
C298 O296 1.248 . S
C299 O300 1.264 . S
C299 O307 1.249 . S
O300 C299 1.264 . S
O301 Mg294 1.986 . S
O301 C305 1.246 . S
O302 Mg297 2.032 . S
O302 C305 1.259 . S
O303 Mg294 2.114 . S
O303 C306 1.252 . S
O304 Mg294 2.251 . S
O304 Mg297 2.079 . S
O304 C306 1.273 . S
C305 O301 1.246 . S
C305 O302 1.259 . S
C306 O303 1.252 . S
C306 O304 1.273 . S
O307 Mg294 2.010 . S
O307 C299 1.249 . S
Mg308 O309 2.028 . S
Mg308 O315 1.986 . S
Mg308 O317 2.114 . S
Mg308 O318 2.251 . S
Mg308 O321 2.010 . S
O309 Mg308 2.028 . S
O309 C312 1.250 . S
O310 Mg311 2.028 . S
O310 C312 1.248 . S
Mg311 O310 2.028 . S
Mg311 O316 2.032 . S
Mg311 O318 2.079 . S
C312 O309 1.250 . S
C312 O310 1.248 . S
C313 O314 1.264 . S
C313 O321 1.249 . S
O314 C313 1.264 . S
O315 Mg308 1.986 . S
O315 C319 1.246 . S
O316 Mg311 2.032 . S
O316 C319 1.259 . S
O317 Mg308 2.114 . S
O317 C320 1.252 . S
O318 Mg308 2.251 . S
O318 Mg311 2.079 . S
O318 C320 1.273 . S
C319 O315 1.246 . S
C319 O316 1.259 . S
C320 O317 1.252 . S
C320 O318 1.273 . S
O321 Mg308 2.010 . S
O321 C313 1.249 . S
Mg322 O323 2.028 . S
Mg322 O329 1.986 . S
Mg322 O331 2.114 . S
Mg322 O332 2.251 . S
Mg322 O335 2.010 . S
O323 Mg322 2.028 . S
O323 C326 1.250 . S
O324 Mg325 2.028 . S
O324 C326 1.248 . S
Mg325 O324 2.028 . S
Mg325 O330 2.032 . S
Mg325 O332 2.079 . S
C326 O323 1.250 . S
C326 O324 1.248 . S
C327 O328 1.264 . S
C327 O335 1.249 . S
O328 C327 1.264 . S
O329 Mg322 1.986 . S
O329 C333 1.246 . S
O330 Mg325 2.032 . S
O330 C333 1.259 . S
O331 Mg322 2.114 . S
O331 C334 1.252 . S
O332 Mg322 2.251 . S
O332 Mg325 2.079 . S
O332 C334 1.273 . S
C333 O329 1.246 . S
C333 O330 1.259 . S
C334 O331 1.252 . S
C334 O332 1.273 . S
O335 Mg322 2.010 . S
O335 C327 1.249 . S
C336 O352 1.251 1_456 S
C336 O354 1.254 . S
N337 C338 1.339 . S
N337 C342 1.299 1_545 S
N337 Zn343 2.022 1_655 S
C338 N337 1.339 . S
C338 C339 1.379 . S
C338 H356 0.952 . S
C339 C338 1.379 . S
C339 C340 1.390 1_545 S
C339 H366 0.949 . S
C340 C339 1.390 1_565 S
C340 C341 1.357 . S
C341 C340 1.357 . S
C341 C342 1.370 . S
C341 H367 0.950 . S
C342 N337 1.299 1_565 S
C342 C341 1.370 . S
C342 H360 0.948 . S
Zn343 N337 2.022 1_455 S
Zn343 O352 2.039 1_455 S
Zn343 O358 2.034 . S
Zn343 O362 2.025 1_545 S
Zn343 O364 2.024 1_545 S
C344 O363 1.246 . S
C344 O364 1.249 . S
N345 C346 1.307 1_554 S
N345 C347 1.333 . S
N345 Zn351 2.020 . S
C346 N345 1.307 1_556 S
C346 C350 1.370 . S
C346 H357 0.948 . S
C347 N345 1.333 . S
C347 C348 1.379 . S
C347 H355 0.952 . S
C348 C347 1.379 . S
C348 C349 1.415 . S
C348 H368 0.949 . S
C349 C348 1.415 . S
C349 C350 1.344 1_554 S
C350 C346 1.370 . S
C350 C349 1.344 1_556 S
C350 H369 0.950 . S
Zn351 N345 2.020 . S
Zn351 O354 2.025 1_554 S
Zn351 O359 2.024 . S
Zn351 O361 2.039 . S
Zn351 O363 2.034 1_545 S
O352 C336 1.251 1_654 S
O352 Zn343 2.039 1_655 S
C353 O358 1.246 . S
C353 O359 1.249 . S
O354 C336 1.254 . S
O354 Zn351 2.025 1_556 S
H355 C347 0.952 . S
H356 C338 0.952 . S
H357 C346 0.948 . S
O358 Zn343 2.034 . S
O358 C353 1.246 . S
O359 Zn351 2.024 . S
O359 C353 1.249 . S
H360 C342 0.948 . S
O361 Zn351 2.039 . S
O361 C365 1.255 . S
O362 Zn343 2.025 1_565 S
O362 C365 1.253 1_565 S
O363 C344 1.246 . S
O363 Zn351 2.034 1_565 S
O364 Zn343 2.024 1_565 S
O364 C344 1.249 . S
C365 O361 1.255 . S
C365 O362 1.253 1_545 S
H366 C339 0.949 . S
H367 C341 0.950 . S
H368 C348 0.949 . S
H369 C350 0.950 . S
C370 O386 1.251 . S
C370 O388 1.254 . S
N371 C372 1.333 . S
N371 C376 1.307 . S
N371 Zn377 2.020 . S
C372 N371 1.333 . S
C372 C373 1.379 . S
C372 H390 0.952 . S
C373 C372 1.379 . S
C373 C374 1.390 . S
C373 H400 0.949 . S
C374 C373 1.390 . S
C374 C375 1.357 . S
C375 C374 1.357 . S
C375 C376 1.370 . S
C375 H401 0.950 . S
C376 N371 1.307 . S
C376 C375 1.370 . S
C376 H394 0.948 . S
Zn377 N371 2.020 . S
Zn377 O386 2.039 . S
Zn377 O392 2.034 . S
Zn377 O396 2.025 . S
Zn377 O398 2.024 . S
C378 O397 1.246 . S
C378 O398 1.249 . S
N379 C380 1.307 . S
N379 C381 1.333 . S
N379 Zn385 2.020 . S
C380 N379 1.307 . S
C380 C384 1.370 . S
C380 H391 0.948 . S
C381 N379 1.333 . S
C381 C382 1.379 . S
C381 H389 0.952 . S
C382 C381 1.379 . S
C382 C383 1.390 . S
C382 H402 0.949 . S
C383 C382 1.390 . S
C383 C384 1.357 . S
C384 C380 1.370 . S
C384 C383 1.357 . S
C384 H403 0.950 . S
Zn385 N379 2.020 . S
Zn385 O388 2.025 . S
Zn385 O393 2.024 . S
Zn385 O395 2.039 . S
Zn385 O397 2.034 . S
O386 C370 1.251 . S
O386 Zn377 2.039 . S
C387 O392 1.246 . S
C387 O393 1.249 . S
O388 C370 1.254 . S
O388 Zn385 2.025 . S
H389 C381 0.952 . S
H390 C372 0.952 . S
H391 C380 0.948 . S
O392 Zn377 2.034 . S
O392 C387 1.246 . S
O393 Zn385 2.024 . S
O393 C387 1.249 . S
H394 C376 0.948 . S
O395 Zn385 2.039 . S
O395 C399 1.251 . S
O396 Zn377 2.025 . S
O396 C399 1.254 . S
O397 C378 1.246 . S
O397 Zn385 2.034 . S
O398 Zn377 2.024 . S
O398 C378 1.249 . S
C399 O395 1.251 . S
C399 O396 1.254 . S
H400 C373 0.949 . S
H401 C375 0.950 . S
H402 C382 0.949 . S
H403 C384 0.950 . S
C404 O420 1.251 . S
C404 O422 1.254 . S
N405 C406 1.333 . S
N405 C410 1.307 . S
N405 Zn411 2.020 . S
C406 N405 1.333 . S
C406 C407 1.379 . S
C406 H424 0.952 . S
C407 C406 1.379 . S
C407 C408 1.390 . S
C407 H434 0.949 . S
C408 C407 1.390 . S
C408 C409 1.357 . S
C409 C408 1.357 . S
C409 C410 1.370 . S
C409 H435 0.950 . S
C410 N405 1.307 . S
C410 C409 1.370 . S
C410 H428 0.948 . S
Zn411 N405 2.020 . S
Zn411 O420 2.039 1_565 S
Zn411 O426 2.034 1_565 S
Zn411 O430 2.025 . S
Zn411 O432 2.024 . S
C412 O431 1.246 1_565 S
C412 O432 1.249 . S
N413 C414 1.307 . S
N413 C415 1.333 . S
N413 Zn419 2.020 . S
C414 N413 1.307 . S
C414 C418 1.370 . S
C414 H425 0.948 . S
C415 N413 1.333 . S
C415 C416 1.379 . S
C415 H423 0.952 . S
C416 C415 1.379 . S
C416 C417 1.390 . S
C416 H436 0.949 . S
C417 C416 1.390 . S
C417 C418 1.357 . S
C418 C414 1.370 . S
C418 C417 1.357 . S
C418 H437 0.950 . S
Zn419 N413 2.020 . S
Zn419 O422 2.025 . S
Zn419 O427 2.024 . S
Zn419 O429 2.039 . S
Zn419 O431 2.034 . S
O420 C404 1.251 . S
O420 Zn411 2.039 1_545 S
C421 O426 1.246 . S
C421 O427 1.249 . S
O422 C404 1.254 . S
O422 Zn419 2.025 . S
H423 C415 0.952 . S
H424 C406 0.952 . S
H425 C414 0.948 . S
O426 Zn411 2.034 1_545 S
O426 C421 1.246 . S
O427 Zn419 2.024 . S
O427 C421 1.249 . S
H428 C410 0.948 . S
O429 Zn419 2.039 . S
O429 C433 1.251 . S
O430 Zn411 2.025 . S
O430 C433 1.254 1_565 S
O431 C412 1.246 1_545 S
O431 Zn419 2.034 . S
O432 Zn411 2.024 . S
O432 C412 1.249 . S
C433 O429 1.251 . S
C433 O430 1.254 1_545 S
H434 C407 0.949 . S
H435 C409 0.950 . S
H436 C416 0.949 . S
H437 C418 0.950 . S
C438 O454 1.251 . S
C438 O456 1.254 . S
N439 C440 1.333 . S
N439 C444 1.307 . S
N439 Zn445 2.020 . S
C440 N439 1.333 . S
C440 C441 1.379 . S
C440 H458 0.952 . S
C441 C440 1.379 . S
C441 C442 1.390 . S
C441 H468 0.949 . S
C442 C441 1.390 . S
C442 C443 1.357 . S
C443 C442 1.357 . S
C443 C444 1.370 . S
C443 H469 0.950 . S
C444 N439 1.307 . S
C444 C443 1.370 . S
C444 H462 0.948 . S
Zn445 N439 2.020 . S
Zn445 O454 2.039 . S
Zn445 O460 2.034 . S
Zn445 O464 2.025 . S
Zn445 O466 2.024 . S
C446 O465 1.246 . S
C446 O466 1.249 . S
N447 C448 1.307 . S
N447 C449 1.333 . S
N447 Zn453 2.020 . S
C448 N447 1.307 . S
C448 C452 1.370 . S
C448 H459 0.948 . S
C449 N447 1.333 . S
C449 C450 1.379 . S
C449 H457 0.952 . S
C450 C449 1.379 . S
C450 C451 1.390 . S
C450 H470 0.949 . S
C451 C450 1.390 . S
C451 C452 1.357 . S
C452 C448 1.370 . S
C452 C451 1.357 . S
C452 H471 0.950 . S
Zn453 N447 2.020 . S
Zn453 O456 2.025 . S
Zn453 O461 2.024 . S
Zn453 O463 2.039 . S
Zn453 O465 2.034 . S
O454 C438 1.251 . S
O454 Zn445 2.039 . S
C455 O460 1.246 . S
C455 O461 1.249 . S
O456 C438 1.254 . S
O456 Zn453 2.025 . S
H457 C449 0.952 . S
H458 C440 0.952 . S
H459 C448 0.948 . S
O460 Zn445 2.034 . S
O460 C455 1.246 . S
O461 Zn453 2.024 . S
O461 C455 1.249 . S
H462 C444 0.948 . S
O463 Zn453 2.039 . S
O463 C467 1.251 . S
O464 Zn445 2.025 . S
O464 C467 1.254 . S
O465 C446 1.246 . S
O465 Zn453 2.034 . S
O466 Zn445 2.024 . S
O466 C446 1.249 . S
C467 O463 1.251 . S
C467 O464 1.254 . S
H468 C441 0.949 . S
H469 C443 0.950 . S
H470 C450 0.949 . S
H471 C452 0.950 . S
C472 O488 1.251 . S
C472 O490 1.254 1_545 S
N473 C474 1.333 . S
N473 C478 1.307 . S
N473 Zn479 2.020 . S
C474 N473 1.333 . S
C474 C475 1.379 . S
C474 H492 0.952 . S
C475 C474 1.379 . S
C475 C476 1.390 . S
C475 H502 0.949 . S
C476 C475 1.390 . S
C476 C477 1.357 . S
C477 C476 1.357 . S
C477 C478 1.370 . S
C477 H503 0.950 . S
C478 N473 1.307 . S
C478 C477 1.370 . S
C478 H496 0.948 . S
Zn479 N473 2.020 . S
Zn479 O488 2.039 . S
Zn479 O494 2.034 . S
Zn479 O498 2.025 . S
Zn479 O500 2.024 1_545 S
C480 O499 1.246 . S
C480 O500 1.249 . S
N481 C482 1.307 . S
N481 C483 1.333 1_455 S
N481 Zn487 2.020 1_565 S
C482 N481 1.307 . S
C482 C486 1.370 . S
C482 H493 0.948 1_565 S
C483 N481 1.333 1_655 S
C483 C484 1.379 . S
C483 H491 0.952 . S
C484 C483 1.379 . S
C484 C485 1.390 . S
C484 H504 0.949 . S
C485 C484 1.390 . S
C485 C486 1.357 1_655 S
C486 C482 1.370 . S
C486 C485 1.357 1_455 S
C486 H505 0.950 . S
Zn487 N481 2.020 1_545 S
Zn487 O490 2.025 1_545 S
Zn487 O495 2.024 . S
Zn487 O497 2.039 1_455 S
Zn487 O499 2.034 1_545 S
O488 C472 1.251 . S
O488 Zn479 2.039 . S
C489 O494 1.246 . S
C489 O495 1.249 . S
O490 C472 1.254 1_565 S
O490 Zn487 2.025 1_565 S
H491 C483 0.952 . S
H492 C474 0.952 . S
H493 C482 0.948 1_545 S
O494 Zn479 2.034 . S
O494 C489 1.246 . S
O495 Zn487 2.024 . S
O495 C489 1.249 . S
H496 C478 0.948 . S
O497 Zn487 2.039 1_655 S
O497 C501 1.251 . S
O498 Zn479 2.025 . S
O498 C501 1.254 1_455 S
O499 C480 1.246 . S
O499 Zn487 2.034 1_565 S
O500 Zn479 2.024 1_565 S
O500 C480 1.249 . S
C501 O497 1.251 . S
C501 O498 1.254 1_655 S
H502 C475 0.949 . S
H503 C477 0.950 . S
H504 C484 0.949 . S
H505 C486 0.950 . S
C506 O522 1.251 . S
C506 O524 1.254 . S
N507 C508 1.333 . S
N507 C512 1.307 . S
N507 Zn513 2.020 . S
C508 N507 1.333 . S
C508 C509 1.379 . S
C508 H526 0.952 . S
C509 C508 1.379 . S
C509 C510 1.390 . S
C509 H536 0.949 . S
C510 C509 1.390 . S
C510 C511 1.357 . S
C511 C510 1.357 . S
C511 C512 1.370 . S
C511 H537 0.950 . S
C512 N507 1.307 . S
C512 C511 1.370 . S
C512 H530 0.948 . S
Zn513 N507 2.020 . S
Zn513 O522 2.039 . S
Zn513 O528 2.034 . S
Zn513 O532 2.025 . S
Zn513 O534 2.024 . S
C514 O533 1.246 . S
C514 O534 1.249 . S
N515 C516 1.307 . S
N515 C517 1.333 . S
N515 Zn521 2.020 . S
C516 N515 1.307 . S
C516 C520 1.370 . S
C516 H527 0.948 . S
C517 N515 1.333 . S
C517 C518 1.379 . S
C517 H525 0.952 . S
C518 C517 1.379 . S
C518 C519 1.390 . S
C518 H538 0.949 . S
C519 C518 1.390 . S
C519 C520 1.357 . S
C520 C516 1.370 . S
C520 C519 1.357 . S
C520 H539 0.950 . S
Zn521 N515 2.020 . S
Zn521 O524 2.025 . S
Zn521 O529 2.024 . S
Zn521 O531 2.039 . S
Zn521 O533 2.034 . S
O522 C506 1.251 . S
O522 Zn513 2.039 . S
C523 O528 1.246 . S
C523 O529 1.249 . S
O524 C506 1.254 . S
O524 Zn521 2.025 . S
H525 C517 0.952 . S
H526 C508 0.952 . S
H527 C516 0.948 . S
O528 Zn513 2.034 . S
O528 C523 1.246 . S
O529 Zn521 2.024 . S
O529 C523 1.249 . S
H530 C512 0.948 . S
O531 Zn521 2.039 . S
O531 C535 1.251 . S
O532 Zn513 2.025 . S
O532 C535 1.254 . S
O533 C514 1.246 . S
O533 Zn521 2.034 . S
O534 Zn513 2.024 . S
O534 C514 1.249 . S
C535 O531 1.251 . S
C535 O532 1.254 . S
H536 C509 0.949 . S
H537 C511 0.950 . S
H538 C518 0.949 . S
H539 C520 0.950 . S
C540 O556 1.251 . S
C540 O558 1.254 . S
N541 C542 1.333 . S
N541 C546 1.307 . S
N541 Zn547 2.020 . S
C542 N541 1.333 . S
C542 C543 1.379 . S
C542 H560 0.952 . S
C543 C542 1.379 . S
C543 C544 1.390 . S
C543 H570 0.949 . S
C544 C543 1.390 . S
C544 C545 1.357 . S
C545 C544 1.357 . S
C545 C546 1.370 . S
C545 H571 0.950 . S
C546 N541 1.307 . S
C546 C545 1.370 . S
C546 H564 0.948 . S
Zn547 N541 2.020 . S
Zn547 O556 2.039 1_545 S
Zn547 O562 2.034 . S
Zn547 O566 2.025 . S
Zn547 O568 2.024 . S
C548 O567 1.245 1_545 S
C548 O568 1.249 . S
N549 C550 1.307 . S
N549 C551 1.333 1_565 S
N549 Zn555 2.020 1_566 S
C550 N549 1.307 . S
C550 C554 1.370 . S
C550 H561 0.948 . S
C551 N549 1.333 1_545 S
C551 C552 1.379 . S
C551 H559 0.952 . S
C552 C551 1.379 . S
C552 C553 1.390 1_545 S
C552 H572 0.949 . S
C553 C552 1.390 1_565 S
C553 C554 1.357 . S
C554 C550 1.370 . S
C554 C553 1.357 . S
C554 H573 0.950 . S
Zn555 N549 2.020 1_544 S
Zn555 O558 2.025 1_545 S
Zn555 O563 2.024 . S
Zn555 O565 2.039 1_554 S
Zn555 O567 2.032 1_545 S
O556 C540 1.251 . S
O556 Zn547 2.039 1_565 S
C557 O562 1.246 . S
C557 O563 1.249 . S
O558 C540 1.254 . S
O558 Zn555 2.025 1_565 S
H559 C551 0.952 . S
H560 C542 0.952 . S
H561 C550 0.948 . S
O562 Zn547 2.034 . S
O562 C557 1.246 . S
O563 Zn555 2.024 . S
O563 C557 1.249 . S
H564 C546 0.948 . S
O565 Zn555 2.039 1_556 S
O565 C569 1.251 1_556 S
O566 Zn547 2.025 . S
O566 C569 1.254 . S
O567 C548 1.245 1_565 S
O567 Zn555 2.032 1_565 S
O568 Zn547 2.024 . S
O568 C548 1.249 . S
C569 O565 1.251 1_554 S
C569 O566 1.254 . S
H570 C543 0.949 . S
H571 C545 0.950 . S
H572 C552 0.949 . S
H573 C554 0.950 . S
C574 O590 1.251 . S
C574 O592 1.254 . S
N575 C576 1.333 . S
N575 C580 1.307 . S
N575 Zn581 2.020 . S
C576 N575 1.333 . S
C576 C577 1.379 . S
C576 H594 0.952 . S
C577 C576 1.379 . S
C577 C578 1.390 . S
C577 H604 0.949 . S
C578 C577 1.390 . S
C578 C579 1.357 . S
C579 C578 1.357 . S
C579 C580 1.370 . S
C579 H605 0.950 . S
C580 N575 1.307 . S
C580 C579 1.370 . S
C580 H598 0.948 . S
Zn581 N575 2.020 . S
Zn581 O590 2.039 . S
Zn581 O596 2.034 . S
Zn581 O600 2.025 . S
Zn581 O602 2.024 . S
C582 O601 1.246 . S
C582 O602 1.249 . S
N583 C584 1.307 . S
N583 C585 1.333 . S
N583 Zn589 2.020 . S
C584 N583 1.307 . S
C584 C588 1.370 . S
C584 H595 0.948 . S
C585 N583 1.333 . S
C585 C586 1.379 . S
C585 H593 0.952 . S
C586 C585 1.379 . S
C586 C587 1.390 . S
C586 H606 0.949 . S
C587 C586 1.390 . S
C587 C588 1.357 . S
C588 C584 1.370 . S
C588 C587 1.357 . S
C588 H607 0.950 . S
Zn589 N583 2.020 . S
Zn589 O592 2.025 . S
Zn589 O597 2.024 . S
Zn589 O599 2.039 . S
Zn589 O601 2.034 . S
O590 C574 1.251 . S
O590 Zn581 2.039 . S
C591 O596 1.246 . S
C591 O597 1.249 . S
O592 C574 1.254 . S
O592 Zn589 2.025 . S
H593 C585 0.952 . S
H594 C576 0.952 . S
H595 C584 0.948 . S
O596 Zn581 2.034 . S
O596 C591 1.246 . S
O597 Zn589 2.024 . S
O597 C591 1.249 . S
H598 C580 0.948 . S
O599 Zn589 2.039 . S
O599 C603 1.251 . S
O600 Zn581 2.025 . S
O600 C603 1.254 . S
O601 C582 1.246 . S
O601 Zn589 2.034 . S
O602 Zn581 2.024 . S
O602 C582 1.249 . S
C603 O599 1.251 . S
C603 O600 1.254 . S
H604 C577 0.949 . S
H605 C579 0.950 . S
H606 C586 0.949 . S
H607 C588 0.950 . S
C608 O624 1.251 . S
C608 O626 1.254 . S
N609 C610 1.333 . S
N609 C614 1.307 . S
N609 Zn615 2.020 1_556 S
C610 N609 1.333 . S
C610 C611 1.379 . S
C610 H628 0.952 . S
C611 C610 1.379 . S
C611 C612 1.390 . S
C611 H638 0.949 . S
C612 C611 1.390 . S
C612 C613 1.357 . S
C613 C612 1.357 . S
C613 C614 1.370 . S
C613 H639 0.950 . S
C614 N609 1.307 . S
C614 C613 1.370 . S
C614 H632 0.948 . S
Zn615 N609 2.020 1_554 S
Zn615 O624 2.039 . S
Zn615 O630 2.034 . S
Zn615 O634 2.025 1_554 S
Zn615 O636 2.024 1_554 S
C616 O635 1.246 . S
C616 O636 1.249 1_554 S
N617 C618 1.307 . S
N617 C619 1.333 . S
N617 Zn623 2.020 . S
C618 N617 1.307 . S
C618 C622 1.370 . S
C618 H629 0.948 . S
C619 N617 1.333 . S
C619 C620 1.379 . S
C619 H627 0.952 . S
C620 C619 1.379 . S
C620 C621 1.390 . S
C620 H640 0.949 . S
C621 C620 1.390 . S
C621 C622 1.357 . S
C622 C618 1.370 . S
C622 C621 1.357 . S
C622 H641 0.950 . S
Zn623 N617 2.020 . S
Zn623 O626 2.025 . S
Zn623 O631 2.024 . S
Zn623 O633 2.039 . S
Zn623 O635 2.034 . S
O624 C608 1.251 . S
O624 Zn615 2.039 . S
C625 O630 1.246 . S
C625 O631 1.249 . S
O626 C608 1.254 . S
O626 Zn623 2.025 . S
H627 C619 0.952 . S
H628 C610 0.952 . S
H629 C618 0.948 . S
O630 Zn615 2.034 . S
O630 C625 1.246 . S
O631 Zn623 2.024 . S
O631 C625 1.249 . S
H632 C614 0.948 . S
O633 Zn623 2.039 . S
O633 C637 1.251 . S
O634 Zn615 2.025 1_556 S
O634 C637 1.254 1_556 S
O635 C616 1.246 . S
O635 Zn623 2.034 . S
O636 Zn615 2.024 1_556 S
O636 C616 1.249 1_556 S
C637 O633 1.251 . S
C637 O634 1.254 1_554 S
H638 C611 0.949 . S
H639 C613 0.950 . S
H640 C620 0.949 . S
H641 C622 0.950 . S
C642 O658 1.251 . S
C642 O660 1.254 . S
N643 C644 1.333 . S
N643 C648 1.307 . S
N643 Zn649 2.020 . S
C644 N643 1.333 . S
C644 C645 1.379 . S
C644 H662 0.952 . S
C645 C644 1.379 . S
C645 C646 1.390 . S
C645 H672 0.949 . S
C646 C645 1.390 . S
C646 C647 1.357 . S
C647 C646 1.357 . S
C647 C648 1.370 . S
C647 H673 0.950 . S
C648 N643 1.307 . S
C648 C647 1.370 . S
C648 H666 0.948 . S
Zn649 N643 2.020 . S
Zn649 O658 2.039 . S
Zn649 O664 2.034 . S
Zn649 O668 2.025 . S
Zn649 O670 2.024 . S
C650 O669 1.246 . S
C650 O670 1.249 . S
N651 C652 1.307 . S
N651 C653 1.333 . S
N651 Zn657 2.020 . S
C652 N651 1.307 . S
C652 C656 1.370 . S
C652 H663 0.948 . S
C653 N651 1.333 . S
C653 C654 1.379 . S
C653 H661 0.952 . S
C654 C653 1.379 . S
C654 C655 1.390 . S
C654 H674 0.949 . S
C655 C654 1.390 . S
C655 C656 1.357 . S
C656 C652 1.370 . S
C656 C655 1.357 . S
C656 H675 0.950 . S
Zn657 N651 2.020 . S
Zn657 O660 2.025 . S
Zn657 O665 2.024 . S
Zn657 O667 2.039 . S
Zn657 O669 2.034 . S
O658 C642 1.251 . S
O658 Zn649 2.039 . S
C659 O664 1.246 . S
C659 O665 1.249 . S
O660 C642 1.254 . S
O660 Zn657 2.025 . S
H661 C653 0.952 . S
H662 C644 0.952 . S
H663 C652 0.948 . S
O664 Zn649 2.034 . S
O664 C659 1.246 . S
O665 Zn657 2.024 . S
O665 C659 1.249 . S
H666 C648 0.948 . S
O667 Zn657 2.039 . S
O667 C671 1.251 . S
O668 Zn649 2.025 . S
O668 C671 1.254 . S
O669 C650 1.246 . S
O669 Zn657 2.034 . S
O670 Zn649 2.024 . S
O670 C650 1.249 . S
C671 O667 1.251 . S
C671 O668 1.254 . S
H672 C645 0.949 . S
H673 C647 0.950 . S
H674 C654 0.949 . S
H675 C656 0.950 . S
C676 O692 1.251 . S
C676 O694 1.254 . S
N677 C678 1.333 . S
N677 C682 1.307 . S
N677 Zn683 2.020 . S
C678 N677 1.333 . S
C678 C679 1.379 . S
C678 H696 0.952 . S
C679 C678 1.379 . S
C679 C680 1.390 . S
C679 H706 0.949 . S
C680 C679 1.390 . S
C680 C681 1.357 . S
C681 C680 1.357 . S
C681 C682 1.370 . S
C681 H707 0.950 . S
C682 N677 1.307 . S
C682 C681 1.370 . S
C682 H700 0.948 . S
Zn683 N677 2.020 . S
Zn683 O692 2.039 . S
Zn683 O698 2.017 1_455 S
Zn683 O702 2.025 . S
Zn683 O704 2.024 . S
C684 O703 1.246 . S
C684 O704 1.249 . S
N685 C686 1.307 1_455 S
N685 C687 1.333 . S
N685 Zn691 2.020 . S
C686 N685 1.307 1_655 S
C686 C690 1.370 . S
C686 H697 0.948 . S
C687 N685 1.333 . S
C687 C688 1.379 . S
C687 H695 0.952 . S
C688 C687 1.379 . S
C688 C689 1.390 1_455 S
C688 H708 0.949 . S
C689 C688 1.390 1_655 S
C689 C690 1.357 . S
C690 C686 1.370 . S
C690 C689 1.357 . S
C690 H709 0.950 . S
Zn691 N685 2.020 . S
Zn691 O694 2.025 . S
Zn691 O699 2.024 1_455 S
Zn691 O701 2.039 . S
Zn691 O703 2.034 . S
O692 C676 1.251 . S
O692 Zn683 2.039 . S
C693 O698 1.258 . S
C693 O699 1.249 . S
O694 C676 1.254 . S
O694 Zn691 2.025 . S
H695 C687 0.952 . S
H696 C678 0.952 . S
H697 C686 0.948 . S
O698 Zn683 2.017 1_655 S
O698 C693 1.258 . S
O699 Zn691 2.024 1_655 S
O699 C693 1.249 . S
H700 C682 0.948 . S
O701 Zn691 2.039 . S
O701 C705 1.251 . S
O702 Zn683 2.025 . S
O702 C705 1.254 . S
O703 C684 1.246 . S
O703 Zn691 2.034 . S
O704 Zn683 2.024 . S
O704 C684 1.249 . S
C705 O701 1.251 . S
C705 O702 1.254 . S
H706 C679 0.949 . S
H707 C681 0.950 . S
H708 C688 0.949 . S
H709 C690 0.950 . S
C710 O726 1.251 . S
C710 O728 1.254 . S
N711 C712 1.333 . S
N711 C716 1.307 . S
N711 Zn717 2.020 . S
C712 N711 1.333 . S
C712 C713 1.379 . S
C712 H730 0.952 . S
C713 C712 1.379 . S
C713 C714 1.390 . S
C713 H740 0.949 . S
C714 C713 1.390 . S
C714 C715 1.357 . S
C715 C714 1.357 . S
C715 C716 1.370 . S
C715 H741 0.950 . S
C716 N711 1.307 . S
C716 C715 1.370 . S
C716 H734 0.948 . S
Zn717 N711 2.020 . S
Zn717 O726 2.039 . S
Zn717 O732 2.034 . S
Zn717 O736 2.025 . S
Zn717 O738 2.024 . S
C718 O737 1.246 . S
C718 O738 1.249 . S
N719 C720 1.307 . S
N719 C721 1.333 . S
N719 Zn725 2.020 . S
C720 N719 1.307 . S
C720 C724 1.370 . S
C720 H731 0.948 . S
C721 N719 1.333 . S
C721 C722 1.379 . S
C721 H729 0.952 . S
C722 C721 1.379 . S
C722 C723 1.390 . S
C722 H742 0.949 . S
C723 C722 1.390 . S
C723 C724 1.357 . S
C724 C720 1.370 . S
C724 C723 1.357 . S
C724 H743 0.950 . S
Zn725 N719 2.020 . S
Zn725 O728 2.025 . S
Zn725 O733 2.024 . S
Zn725 O735 2.039 . S
Zn725 O737 2.034 . S
O726 C710 1.251 . S
O726 Zn717 2.039 . S
C727 O732 1.246 . S
C727 O733 1.249 . S
O728 C710 1.254 . S
O728 Zn725 2.025 . S
H729 C721 0.952 . S
H730 C712 0.952 . S
H731 C720 0.948 . S
O732 Zn717 2.034 . S
O732 C727 1.246 . S
O733 Zn725 2.024 . S
O733 C727 1.249 . S
H734 C716 0.948 . S
O735 Zn725 2.039 . S
O735 C739 1.251 . S
O736 Zn717 2.025 . S
O736 C739 1.254 . S
O737 C718 1.246 . S
O737 Zn725 2.034 . S
O738 Zn717 2.024 . S
O738 C718 1.249 . S
C739 O735 1.251 . S
C739 O736 1.254 . S
H740 C713 0.949 . S
H741 C715 0.950 . S
H742 C722 0.949 . S
H743 C724 0.950 . S
C744 O760 1.251 . S
C744 O762 1.254 . S
N745 C746 1.333 . S
N745 C750 1.307 . S
N745 Zn751 2.020 . S
C746 N745 1.333 . S
C746 C747 1.379 . S
C746 H764 0.952 . S
C747 C746 1.379 . S
C747 C748 1.390 . S
C747 H774 0.949 . S
C748 C747 1.390 . S
C748 C749 1.357 . S
C749 C748 1.357 . S
C749 C750 1.370 . S
C749 H775 0.950 . S
C750 N745 1.307 . S
C750 C749 1.370 . S
C750 H768 0.948 . S
Zn751 N745 2.020 . S
Zn751 O760 2.039 . S
Zn751 O766 2.034 . S
Zn751 O770 2.025 . S
Zn751 O772 2.024 . S
C752 O771 1.246 . S
C752 O772 1.249 . S
N753 C754 1.307 . S
N753 C755 1.333 . S
N753 Zn759 2.020 . S
C754 N753 1.307 . S
C754 C758 1.370 . S
C754 H765 0.948 . S
C755 N753 1.333 . S
C755 C756 1.379 . S
C755 H763 0.952 . S
C756 C755 1.379 . S
C756 C757 1.390 . S
C756 H776 0.949 . S
C757 C756 1.390 . S
C757 C758 1.357 . S
C758 C754 1.370 . S
C758 C757 1.357 . S
C758 H777 0.950 . S
Zn759 N753 2.020 . S
Zn759 O762 2.025 . S
Zn759 O767 2.024 . S
Zn759 O769 2.039 . S
Zn759 O771 2.034 . S
O760 C744 1.251 . S
O760 Zn751 2.039 . S
C761 O766 1.246 . S
C761 O767 1.249 . S
O762 C744 1.254 . S
O762 Zn759 2.025 . S
H763 C755 0.952 . S
H764 C746 0.952 . S
H765 C754 0.948 . S
O766 Zn751 2.034 . S
O766 C761 1.246 . S
O767 Zn759 2.024 . S
O767 C761 1.249 . S
H768 C750 0.948 . S
O769 Zn759 2.039 . S
O769 C773 1.251 . S
O770 Zn751 2.025 . S
O770 C773 1.254 . S
O771 C752 1.246 . S
O771 Zn759 2.034 . S
O772 Zn751 2.024 . S
O772 C752 1.249 . S
C773 O769 1.251 . S
C773 O770 1.254 . S
H774 C747 0.949 . S
H775 C749 0.950 . S
H776 C756 0.949 . S
H777 C758 0.950 . S
C778 O794 1.251 . S
C778 O796 1.254 . S
N779 C780 1.333 . S
N779 C784 1.307 . S
N779 Zn785 2.020 . S
C780 N779 1.333 . S
C780 C781 1.379 . S
C780 H798 0.952 . S
C781 C780 1.379 . S
C781 C782 1.390 . S
C781 H808 0.949 . S
C782 C781 1.390 . S
C782 C783 1.357 . S
C783 C782 1.357 . S
C783 C784 1.370 . S
C783 H809 0.950 . S
C784 N779 1.307 . S
C784 C783 1.370 . S
C784 H802 0.948 . S
Zn785 N779 2.020 . S
Zn785 O794 2.039 . S
Zn785 O800 2.034 . S
Zn785 O804 2.025 . S
Zn785 O806 2.024 . S
C786 O805 1.246 . S
C786 O806 1.249 . S
N787 C788 1.307 . S
N787 C789 1.333 . S
N787 Zn793 2.020 . S
C788 N787 1.307 . S
C788 C792 1.370 . S
C788 H799 0.948 . S
C789 N787 1.333 . S
C789 C790 1.379 . S
C789 H797 0.952 . S
C790 C789 1.379 . S
C790 C791 1.390 . S
C790 H810 0.949 . S
C791 C790 1.390 . S
C791 C792 1.357 . S
C792 C788 1.370 . S
C792 C791 1.357 . S
C792 H811 0.950 . S
Zn793 N787 2.020 . S
Zn793 O796 2.025 . S
Zn793 O801 2.024 . S
Zn793 O803 2.039 . S
Zn793 O805 2.034 . S
O794 C778 1.251 . S
O794 Zn785 2.039 . S
C795 O800 1.246 . S
C795 O801 1.249 . S
O796 C778 1.254 . S
O796 Zn793 2.025 . S
H797 C789 0.952 . S
H798 C780 0.952 . S
H799 C788 0.948 . S
O800 Zn785 2.034 . S
O800 C795 1.246 . S
O801 Zn793 2.024 . S
O801 C795 1.249 . S
H802 C784 0.948 . S
O803 Zn793 2.039 . S
O803 C807 1.251 . S
O804 Zn785 2.025 . S
O804 C807 1.254 . S
O805 C786 1.246 . S
O805 Zn793 2.034 . S
O806 Zn785 2.024 . S
O806 C786 1.249 . S
C807 O803 1.251 . S
C807 O804 1.254 . S
H808 C781 0.949 . S
H809 C783 0.950 . S
H810 C790 0.949 . S
H811 C792 0.950 . S
C812 O828 1.251 . S
C812 O830 1.254 . S
N813 C814 1.333 . S
N813 C818 1.307 . S
N813 Zn819 2.020 . S
C814 N813 1.333 . S
C814 C815 1.379 . S
C814 H832 0.952 . S
C815 C814 1.379 . S
C815 C816 1.390 . S
C815 H842 0.949 . S
C816 C815 1.390 . S
C816 C817 1.357 . S
C817 C816 1.357 . S
C817 C818 1.370 . S
C817 H843 0.950 . S
C818 N813 1.307 . S
C818 C817 1.370 . S
C818 H836 0.948 . S
Zn819 N813 2.020 . S
Zn819 O828 2.039 . S
Zn819 O834 2.034 . S
Zn819 O838 2.025 . S
Zn819 O840 2.024 . S
C820 O839 1.246 . S
C820 O840 1.249 . S
N821 C822 1.307 . S
N821 C823 1.333 . S
N821 Zn827 2.020 . S
C822 N821 1.307 . S
C822 C826 1.370 . S
C822 H833 0.948 . S
C823 N821 1.333 . S
C823 C824 1.379 . S
C823 H831 0.952 . S
C824 C823 1.379 . S
C824 C825 1.390 . S
C824 H844 0.949 . S
C825 C824 1.390 . S
C825 C826 1.357 . S
C826 C822 1.370 . S
C826 C825 1.357 . S
C826 H845 0.950 . S
Zn827 N821 2.020 . S
Zn827 O830 2.025 . S
Zn827 O835 2.024 . S
Zn827 O837 2.039 . S
Zn827 O839 2.034 . S
O828 C812 1.251 . S
O828 Zn819 2.039 . S
C829 O834 1.246 . S
C829 O835 1.249 . S
O830 C812 1.254 . S
O830 Zn827 2.025 . S
H831 C823 0.952 . S
H832 C814 0.952 . S
H833 C822 0.948 . S
O834 Zn819 2.034 . S
O834 C829 1.246 . S
O835 Zn827 2.024 . S
O835 C829 1.249 . S
H836 C818 0.948 . S
O837 Zn827 2.039 . S
O837 C841 1.251 . S
O838 Zn819 2.025 . S
O838 C841 1.254 . S
O839 C820 1.246 . S
O839 Zn827 2.034 . S
O840 Zn819 2.024 . S
O840 C820 1.249 . S
C841 O837 1.251 . S
C841 O838 1.254 . S
H842 C815 0.949 . S
H843 C817 0.950 . S
H844 C824 0.949 . S
H845 C826 0.950 . S
C846 O862 1.251 . S
C846 O864 1.254 . S
N847 C848 1.333 . S
N847 C852 1.307 . S
N847 Zn853 2.020 . S
C848 N847 1.333 . S
C848 C849 1.379 . S
C848 H866 0.952 . S
C849 C848 1.379 . S
C849 C850 1.390 . S
C849 H876 0.949 . S
C850 C849 1.390 . S
C850 C851 1.357 . S
C851 C850 1.357 . S
C851 C852 1.370 . S
C851 H877 0.950 . S
C852 N847 1.307 . S
C852 C851 1.370 . S
C852 H870 0.948 . S
Zn853 N847 2.020 . S
Zn853 O862 2.039 . S
Zn853 O868 2.034 . S
Zn853 O872 2.025 1_554 S
Zn853 O874 2.024 . S
C854 O873 1.246 . S
C854 O874 1.249 1_655 S
N855 C856 1.307 . S
N855 C857 1.333 1_554 S
N855 Zn861 2.020 . S
C856 N855 1.307 . S
C856 C860 1.370 . S
C856 H867 0.948 . S
C857 N855 1.333 1_556 S
C857 C858 1.379 1_455 S
C857 H865 0.952 . S
C858 C857 1.379 1_655 S
C858 C859 1.390 . S
C858 H878 0.949 . S
C859 C858 1.390 . S
C859 C860 1.357 1_656 S
C860 C856 1.370 . S
C860 C859 1.357 1_454 S
C860 H879 0.950 . S
Zn861 N855 2.020 . S
Zn861 O864 2.025 . S
Zn861 O869 2.024 . S
Zn861 O871 2.039 1_554 S
Zn861 O873 2.034 1_455 S
O862 C846 1.251 . S
O862 Zn853 2.039 . S
C863 O868 1.246 . S
C863 O869 1.249 . S
O864 C846 1.254 . S
O864 Zn861 2.025 . S
H865 C857 0.952 . S
H866 C848 0.952 . S
H867 C856 0.948 . S
O868 Zn853 2.034 . S
O868 C863 1.246 . S
O869 Zn861 2.024 . S
O869 C863 1.249 . S
H870 C852 0.948 . S
O871 Zn861 2.039 1_556 S
O871 C875 1.251 . S
O872 Zn853 2.025 1_556 S
O872 C875 1.254 . S
O873 C854 1.246 . S
O873 Zn861 2.034 1_655 S
O874 Zn853 2.024 . S
O874 C854 1.249 1_455 S
C875 O871 1.251 . S
C875 O872 1.254 . S
H876 C849 0.949 . S
H877 C851 0.950 . S
H878 C858 0.949 . S
H879 C860 0.950 . S
C880 C881 1.369 . S
C880 C882 1.419 . S
C880 H884 0.930 . S
C881 C880 1.369 . S
C881 C890 1.429 . S
C882 C880 1.419 . S
C882 C883 1.363 . S
C882 H885 0.929 . S
C883 C882 1.363 . S
C883 C889 1.428 . S
H884 C880 0.930 . S
H885 C882 0.929 . S
S886 N887 1.613 . S
S886 N888 1.610 . S
N887 S886 1.613 . S
N887 C890 1.350 . S
N888 S886 1.610 . S
N888 C889 1.351 . S
C889 C883 1.428 . S
C889 N888 1.351 . S
C889 C890 1.434 . S
C890 C881 1.429 . S
C890 N887 1.350 . S
C890 C889 1.434 . S
C891 C892 1.369 . S
C891 C893 1.419 . S
C891 H895 0.930 . S
C892 C891 1.369 . S
C892 C901 1.429 . S
C893 C891 1.419 . S
C893 C894 1.363 . S
C893 H896 0.929 . S
C894 C893 1.363 . S
C894 C900 1.428 . S
H895 C891 0.930 . S
H896 C893 0.929 . S
S897 N898 1.613 . S
S897 N899 1.610 . S
N898 S897 1.613 . S
N898 C901 1.350 . S
N899 S897 1.610 . S
N899 C900 1.351 . S
C900 C894 1.428 . S
C900 N899 1.351 . S
C900 C901 1.434 . S
C901 C892 1.429 . S
C901 N898 1.350 . S
C901 C900 1.434 . S
C902 C903 1.369 . S
C902 C904 1.419 . S
C902 H906 0.930 . S
C903 C902 1.369 . S
C903 C912 1.429 . S
C904 C902 1.419 . S
C904 C905 1.363 . S
C904 H907 0.929 . S
C905 C904 1.363 . S
C905 C911 1.428 . S
H906 C902 0.930 . S
H907 C904 0.929 . S
S908 N909 1.613 . S
S908 N910 1.610 . S
N909 S908 1.613 . S
N909 C912 1.350 . S
N910 S908 1.610 . S
N910 C911 1.351 . S
C911 C905 1.428 . S
C911 N910 1.351 . S
C911 C912 1.434 . S
C912 C903 1.429 . S
C912 N909 1.350 . S
C912 C911 1.434 . S
C913 C914 1.369 . S
C913 C915 1.419 . S
C913 H917 0.930 . S
C914 C913 1.369 . S
C914 C923 1.429 . S
C915 C913 1.419 . S
C915 C916 1.363 . S
C915 H918 0.929 . S
C916 C915 1.363 . S
C916 C922 1.428 . S
H917 C913 0.930 . S
H918 C915 0.929 . S
S919 N920 1.613 . S
S919 N921 1.610 . S
N920 S919 1.613 . S
N920 C923 1.350 . S
N921 S919 1.610 . S
N921 C922 1.351 . S
C922 C916 1.428 . S
C922 N921 1.351 . S
C922 C923 1.434 . S
C923 C914 1.429 . S
C923 N920 1.350 . S
C923 C922 1.434 . S
C924 C925 1.369 . S
C924 C926 1.419 . S
C924 H928 0.930 . S
C925 C924 1.369 . S
C925 C934 1.429 . S
C926 C924 1.419 . S
C926 C927 1.363 . S
C926 H929 0.929 . S
C927 C926 1.363 . S
C927 C933 1.428 . S
H928 C924 0.930 . S
H929 C926 0.929 . S
S930 N931 1.613 . S
S930 N932 1.610 . S
N931 S930 1.613 . S
N931 C934 1.350 . S
N932 S930 1.610 . S
N932 C933 1.351 . S
C933 C927 1.428 . S
C933 N932 1.351 . S
C933 C934 1.434 . S
C934 C925 1.429 . S
C934 N931 1.350 . S
C934 C933 1.434 . S
C935 C936 1.369 . S
C935 C937 1.419 . S
C935 H939 0.930 . S
C936 C935 1.369 . S
C936 C945 1.429 . S
C937 C935 1.419 . S
C937 C938 1.363 . S
C937 H940 0.929 . S
C938 C937 1.363 . S
C938 C944 1.428 . S
H939 C935 0.930 . S
H940 C937 0.929 . S
S941 N942 1.613 . S
S941 N943 1.610 . S
N942 S941 1.613 . S
N942 C945 1.350 . S
N943 S941 1.610 . S
N943 C944 1.351 . S
C944 C938 1.428 . S
C944 N943 1.351 . S
C944 C945 1.434 . S
C945 C936 1.429 . S
C945 N942 1.350 . S
C945 C944 1.434 . S
C946 C947 1.369 . S
C946 C948 1.419 . S
C946 H950 0.930 . S
C947 C946 1.369 . S
C947 C956 1.429 . S
C948 C946 1.419 . S
C948 C949 1.363 . S
C948 H951 0.929 1_556 S
C949 C948 1.363 . S
C949 C955 1.428 . S
H950 C946 0.930 . S
H951 C948 0.929 1_554 S
S952 N953 1.613 . S
S952 N954 1.610 . S
N953 S952 1.613 . S
N953 C956 1.350 . S
N954 S952 1.610 . S
N954 C955 1.351 . S
C955 C949 1.428 . S
C955 N954 1.351 . S
C955 C956 1.434 . S
C956 C947 1.429 . S
C956 N953 1.350 . S
C956 C955 1.434 . S
C957 C958 1.369 . S
C957 C959 1.419 . S
C957 H961 0.930 . S
C958 C957 1.369 . S
C958 C967 1.429 . S
C959 C957 1.419 . S
C959 C960 1.363 . S
C959 H962 0.929 . S
C960 C959 1.363 . S
C960 C966 1.428 . S
H961 C957 0.930 . S
H962 C959 0.929 . S
S963 N964 1.613 . S
S963 N965 1.610 . S
N964 S963 1.613 . S
N964 C967 1.350 . S
N965 S963 1.610 . S
N965 C966 1.351 . S
C966 C960 1.428 . S
C966 N965 1.351 . S
C966 C967 1.434 . S
C967 C958 1.429 . S
C967 N964 1.350 . S
C967 C966 1.434 . S
C968 C969 1.369 1_565 S
C968 C970 1.419 . S
C968 H972 0.930 . S
C969 C968 1.369 1_545 S
C969 C978 1.429 . S
C970 C968 1.419 . S
C970 C971 1.363 1_565 S
C970 H973 0.929 . S
C971 C970 1.363 1_545 S
C971 C977 1.428 . S
H972 C968 0.930 . S
H973 C970 0.929 . S
S974 N975 1.613 . S
S974 N976 1.610 . S
N975 S974 1.613 . S
N975 C978 1.350 . S
N976 S974 1.610 . S
N976 C977 1.351 . S
C977 C971 1.428 . S
C977 N976 1.351 . S
C977 C978 1.434 . S
C978 C969 1.429 . S
C978 N975 1.350 . S
C978 C977 1.434 . S
C979 C980 1.369 . S
C979 C981 1.419 . S
C979 H983 0.930 . S
C980 C979 1.369 . S
C980 C989 1.429 . S
C981 C979 1.419 . S
C981 C982 1.363 . S
C981 H984 0.929 . S
C982 C981 1.363 . S
C982 C988 1.428 . S
H983 C979 0.930 . S
H984 C981 0.929 . S
S985 N986 1.613 . S
S985 N987 1.610 . S
N986 S985 1.613 . S
N986 C989 1.350 . S
N987 S985 1.610 . S
N987 C988 1.351 . S
C988 C982 1.428 . S
C988 N987 1.351 . S
C988 C989 1.434 . S
C989 C980 1.429 . S
C989 N986 1.350 . S
C989 C988 1.434 . S
C990 C991 1.369 . S
C990 C992 1.419 . S
C990 H994 0.930 . S
C991 C990 1.369 . S
C991 C1000 1.429 . S
C992 C990 1.419 . S
C992 C993 1.363 . S
C992 H995 0.929 . S
C993 C992 1.363 . S
C993 C999 1.428 . S
H994 C990 0.930 . S
H995 C992 0.929 . S
S996 N997 1.613 . S
S996 N998 1.610 . S
N997 S996 1.613 . S
N997 C1000 1.350 . S
N998 S996 1.610 . S
N998 C999 1.351 . S
C999 C993 1.428 . S
C999 N998 1.351 . S
C999 C1000 1.434 . S
C1000 C991 1.429 . S
C1000 N997 1.350 . S
C1000 C999 1.434 . S
C1001 C1002 1.369 . S
C1001 C1003 1.419 . S
C1001 H1005 0.930 . S
C1002 C1001 1.369 . S
C1002 C1011 1.429 . S
C1003 C1001 1.419 . S
C1003 C1004 1.363 . S
C1003 H1006 0.929 . S
C1004 C1003 1.363 . S
C1004 C1010 1.428 . S
H1005 C1001 0.930 . S
H1006 C1003 0.929 . S
S1007 N1008 1.613 . S
S1007 N1009 1.610 . S
N1008 S1007 1.613 . S
N1008 C1011 1.350 . S
N1009 S1007 1.610 . S
N1009 C1010 1.351 . S
C1010 C1004 1.428 . S
C1010 N1009 1.351 . S
C1010 C1011 1.434 . S
C1011 C1002 1.429 . S
C1011 N1008 1.350 . S
C1011 C1010 1.434 . S
C1012 C1013 1.369 . S
C1012 C1014 1.419 . S
C1012 H1016 0.930 1_545 S
C1013 C1012 1.369 . S
C1013 C1022 1.429 . S
C1014 C1012 1.419 . S
C1014 C1015 1.363 . S
C1014 H1017 0.929 . S
C1015 C1014 1.363 . S
C1015 C1021 1.428 . S
H1016 C1012 0.930 1_565 S
H1017 C1014 0.929 . S
S1018 N1019 1.613 . S
S1018 N1020 1.610 . S
N1019 S1018 1.613 . S
N1019 C1022 1.350 . S
N1020 S1018 1.610 . S
N1020 C1021 1.351 . S
C1021 C1015 1.428 . S
C1021 N1020 1.351 . S
C1021 C1022 1.434 . S
C1022 C1013 1.429 . S
C1022 N1019 1.350 . S
C1022 C1021 1.434 . S
C1023 C1024 1.369 . S
C1023 C1025 1.419 . S
C1023 H1027 0.930 . S
C1024 C1023 1.369 . S
C1024 C1033 1.429 . S
C1025 C1023 1.419 . S
C1025 C1026 1.363 . S
C1025 H1028 0.929 . S
C1026 C1025 1.363 . S
C1026 C1032 1.428 . S
H1027 C1023 0.930 . S
H1028 C1025 0.929 . S
S1029 N1030 1.613 . S
S1029 N1031 1.610 . S
N1030 S1029 1.613 . S
N1030 C1033 1.350 . S
N1031 S1029 1.610 . S
N1031 C1032 1.351 . S
C1032 C1026 1.428 . S
C1032 N1031 1.351 . S
C1032 C1033 1.434 . S
C1033 C1024 1.429 . S
C1033 N1030 1.350 . S
C1033 C1032 1.434 . S
C1034 C1035 1.369 1_565 S
C1034 C1036 1.419 . S
C1034 H1038 0.930 . S
C1035 C1034 1.369 1_545 S
C1035 C1044 1.429 . S
C1036 C1034 1.419 . S
C1036 C1037 1.363 . S
C1036 H1039 0.929 . S
C1037 C1036 1.363 . S
C1037 C1043 1.428 1_565 S
H1038 C1034 0.930 . S
H1039 C1036 0.929 . S
S1040 N1041 1.613 . S
S1040 N1042 1.610 . S
N1041 S1040 1.613 . S
N1041 C1044 1.350 . S
N1042 S1040 1.610 . S
N1042 C1043 1.351 . S
C1043 C1037 1.428 1_545 S
C1043 N1042 1.351 . S
C1043 C1044 1.434 . S
C1044 C1035 1.429 . S
C1044 N1041 1.350 . S
C1044 C1043 1.434 . S
C1045 C1046 1.369 . S
C1045 C1047 1.419 . S
C1045 H1049 0.930 . S
C1046 C1045 1.369 . S
C1046 C1055 1.429 . S
C1047 C1045 1.419 . S
C1047 C1048 1.363 . S
C1047 H1050 0.929 . S
C1048 C1047 1.363 . S
C1048 C1054 1.428 . S
H1049 C1045 0.930 . S
H1050 C1047 0.929 . S
S1051 N1052 1.613 . S
S1051 N1053 1.610 . S
N1052 S1051 1.613 . S
N1052 C1055 1.350 . S
N1053 S1051 1.610 . S
N1053 C1054 1.351 . S
C1054 C1048 1.428 . S
C1054 N1053 1.351 . S
C1054 C1055 1.434 . S
C1055 C1046 1.429 . S
C1055 N1052 1.350 . S
C1055 C1054 1.434 . S
C1056 C1057 1.369 . S
C1056 C1058 1.419 . S
C1056 H1060 0.930 . S
C1057 C1056 1.369 . S
C1057 C1066 1.429 . S
C1058 C1056 1.419 . S
C1058 C1059 1.391 . S
C1058 H1061 0.929 . S
C1059 C1058 1.391 . S
C1059 C1065 1.416 1_554 S
H1060 C1056 0.930 . S
H1061 C1058 0.929 . S
S1062 N1063 1.613 . S
S1062 N1064 1.610 . S
N1063 S1062 1.613 . S
N1063 C1066 1.350 1_556 S
N1064 S1062 1.610 . S
N1064 C1065 1.351 . S
C1065 C1059 1.416 1_556 S
C1065 N1064 1.351 . S
C1065 C1066 1.434 1_556 S
C1066 C1057 1.429 . S
C1066 N1063 1.350 1_554 S
C1066 C1065 1.434 1_554 S
C1067 C1068 1.369 . S
C1067 C1069 1.419 . S
C1067 H1071 0.930 . S
C1068 C1067 1.369 . S
C1068 C1077 1.429 . S
C1069 C1067 1.419 . S
C1069 C1070 1.363 . S
C1069 H1072 0.929 . S
C1070 C1069 1.363 . S
C1070 C1076 1.428 . S
H1071 C1067 0.930 . S
H1072 C1069 0.929 . S
S1073 N1074 1.613 . S
S1073 N1075 1.610 . S
N1074 S1073 1.613 . S
N1074 C1077 1.350 . S
N1075 S1073 1.610 . S
N1075 C1076 1.351 . S
C1076 C1070 1.428 . S
C1076 N1075 1.351 . S
C1076 C1077 1.434 . S
C1077 C1068 1.429 . S
C1077 N1074 1.350 . S
C1077 C1076 1.434 . S
C1078 C1079 1.369 . S
C1078 C1080 1.419 . S
C1078 H1082 0.930 . S
C1079 C1078 1.369 . S
C1079 C1088 1.429 . S
C1080 C1078 1.419 . S
C1080 C1081 1.363 . S
C1080 H1083 0.929 . S
C1081 C1080 1.363 . S
C1081 C1087 1.428 . S
H1082 C1078 0.930 . S
H1083 C1080 0.929 . S
S1084 N1085 1.613 . S
S1084 N1086 1.610 . S
N1085 S1084 1.613 . S
N1085 C1088 1.350 . S
N1086 S1084 1.610 . S
N1086 C1087 1.351 . S
C1087 C1081 1.428 . S
C1087 N1086 1.351 . S
C1087 C1088 1.434 . S
C1088 C1079 1.429 . S
C1088 N1085 1.350 . S
C1088 C1087 1.434 . S
C1089 C1090 1.369 . S
C1089 C1091 1.419 . S
C1089 H1093 0.930 . S
C1090 C1089 1.369 . S
C1090 C1099 1.429 . S
C1091 C1089 1.419 . S
C1091 C1092 1.363 . S
C1091 H1094 0.929 . S
C1092 C1091 1.363 . S
C1092 C1098 1.428 . S
H1093 C1089 0.930 . S
H1094 C1091 0.929 . S
S1095 N1096 1.613 . S
S1095 N1097 1.610 . S
N1096 S1095 1.613 . S
N1096 C1099 1.350 . S
N1097 S1095 1.610 . S
N1097 C1098 1.351 . S
C1098 C1092 1.428 . S
C1098 N1097 1.351 . S
C1098 C1099 1.434 . S
C1099 C1090 1.429 . S
C1099 N1096 1.350 . S
C1099 C1098 1.434 . S
C1100 C1101 1.369 . S
C1100 C1102 1.419 . S
C1100 H1104 0.930 . S
C1101 C1100 1.369 . S
C1101 C1110 1.429 . S
C1102 C1100 1.419 . S
C1102 C1103 1.363 . S
C1102 H1105 0.929 . S
C1103 C1102 1.363 . S
C1103 C1109 1.428 . S
H1104 C1100 0.930 . S
H1105 C1102 0.929 . S
S1106 N1107 1.613 . S
S1106 N1108 1.610 . S
N1107 S1106 1.613 . S
N1107 C1110 1.350 . S
N1108 S1106 1.610 . S
N1108 C1109 1.351 . S
C1109 C1103 1.428 . S
C1109 N1108 1.351 . S
C1109 C1110 1.434 . S
C1110 C1101 1.429 . S
C1110 N1107 1.350 . S
C1110 C1109 1.434 . S
C1111 C1112 1.369 . S
C1111 C1113 1.419 . S
C1111 H1115 0.930 . S
C1112 C1111 1.369 . S
C1112 C1121 1.429 1_565 S
C1113 C1111 1.419 . S
C1113 C1114 1.363 . S
C1113 H1116 0.929 . S
C1114 C1113 1.363 . S
C1114 C1120 1.428 1_565 S
H1115 C1111 0.930 . S
H1116 C1113 0.929 . S
S1117 N1118 1.613 . S
S1117 N1119 1.610 . S
N1118 S1117 1.613 . S
N1118 C1121 1.350 . S
N1119 S1117 1.610 . S
N1119 C1120 1.351 . S
C1120 C1114 1.428 1_545 S
C1120 N1119 1.351 . S
C1120 C1121 1.434 . S
C1121 C1112 1.429 1_545 S
C1121 N1118 1.350 . S
C1121 C1120 1.434 . S
C1122 C1123 1.369 . S
C1122 C1124 1.419 . S
C1122 H1126 0.930 . S
C1123 C1122 1.369 . S
C1123 C1132 1.429 . S
C1124 C1122 1.419 . S
C1124 C1125 1.363 . S
C1124 H1127 0.929 . S
C1125 C1124 1.363 . S
C1125 C1131 1.428 . S
H1126 C1122 0.930 . S
H1127 C1124 0.929 . S
S1128 N1129 1.613 . S
S1128 N1130 1.610 . S
N1129 S1128 1.613 . S
N1129 C1132 1.350 . S
N1130 S1128 1.610 . S
N1130 C1131 1.351 . S
C1131 C1125 1.428 . S
C1131 N1130 1.351 . S
C1131 C1132 1.434 . S
C1132 C1123 1.429 . S
C1132 N1129 1.350 . S
C1132 C1131 1.434 . S
C1133 C1134 1.369 . S
C1133 C1135 1.419 . S
C1133 H1137 0.930 . S
C1134 C1133 1.369 . S
C1134 C1143 1.429 . S
C1135 C1133 1.419 . S
C1135 C1136 1.363 . S
C1135 H1138 0.929 . S
C1136 C1135 1.363 . S
C1136 C1142 1.428 . S
H1137 C1133 0.930 . S
H1138 C1135 0.929 . S
S1139 N1140 1.613 . S
S1139 N1141 1.610 . S
N1140 S1139 1.613 . S
N1140 C1143 1.350 . S
N1141 S1139 1.610 . S
N1141 C1142 1.351 . S
C1142 C1136 1.428 . S
C1142 N1141 1.351 . S
C1142 C1143 1.434 . S
C1143 C1134 1.429 . S
C1143 N1140 1.350 . S
C1143 C1142 1.434 . S
C1144 C1145 1.369 . S
C1144 C1146 1.419 . S
C1144 H1148 0.930 . S
C1145 C1144 1.369 . S
C1145 C1154 1.429 1_455 S
C1146 C1144 1.419 . S
C1146 C1147 1.363 . S
C1146 H1149 0.929 . S
C1147 C1146 1.363 . S
C1147 C1153 1.428 . S
H1148 C1144 0.930 . S
H1149 C1146 0.929 . S
S1150 N1151 1.613 1_554 S
S1150 N1152 1.610 1_655 S
N1151 S1150 1.613 1_556 S
N1151 C1154 1.350 . S
N1152 S1150 1.610 1_455 S
N1152 C1153 1.351 1_554 S
C1153 C1147 1.428 . S
C1153 N1152 1.351 1_556 S
C1153 C1154 1.434 1_455 S
C1154 C1145 1.429 1_655 S
C1154 N1151 1.350 . S
C1154 C1153 1.434 1_655 S
C1155 C1156 1.369 . S
C1155 C1157 1.419 . S
C1155 H1159 0.930 . S
C1156 C1155 1.369 . S
C1156 C1165 1.429 . S
C1157 C1155 1.419 . S
C1157 C1158 1.363 . S
C1157 H1160 0.929 . S
C1158 C1157 1.363 . S
C1158 C1164 1.428 . S
H1159 C1155 0.930 . S
H1160 C1157 0.929 . S
S1161 N1162 1.613 . S
S1161 N1163 1.610 . S
N1162 S1161 1.613 . S
N1162 C1165 1.350 . S
N1163 S1161 1.610 . S
N1163 C1164 1.351 . S
C1164 C1158 1.428 . S
C1164 N1163 1.351 . S
C1164 C1165 1.434 . S
C1165 C1156 1.429 . S
C1165 N1162 1.350 . S
C1165 C1164 1.434 . S
C1166 C1167 1.369 . S
C1166 C1168 1.419 . S
C1166 H1170 0.930 . S
C1167 C1166 1.369 . S
C1167 C1176 1.429 . S
C1168 C1166 1.419 . S
C1168 C1169 1.363 . S
C1168 H1171 0.929 . S
C1169 C1168 1.363 . S
C1169 C1175 1.428 . S
H1170 C1166 0.930 . S
H1171 C1168 0.929 . S
S1172 N1173 1.613 . S
S1172 N1174 1.610 . S
N1173 S1172 1.613 . S
N1173 C1176 1.350 . S
N1174 S1172 1.610 . S
N1174 C1175 1.351 . S
C1175 C1169 1.428 . S
C1175 N1174 1.351 . S
C1175 C1176 1.434 . S
C1176 C1167 1.429 . S
C1176 N1173 1.350 . S
C1176 C1175 1.434 . S
C1177 C1178 1.369 . S
C1177 C1179 1.419 . S
C1177 H1181 0.930 . S
C1178 C1177 1.369 . S
C1178 C1187 1.429 . S
C1179 C1177 1.419 . S
C1179 C1180 1.363 . S
C1179 H1182 0.929 . S
C1180 C1179 1.363 . S
C1180 C1186 1.428 . S
H1181 C1177 0.930 . S
H1182 C1179 0.929 . S
S1183 N1184 1.613 . S
S1183 N1185 1.610 . S
N1184 S1183 1.613 . S
N1184 C1187 1.350 . S
N1185 S1183 1.610 . S
N1185 C1186 1.351 . S
C1186 C1180 1.428 . S
C1186 N1185 1.351 . S
C1186 C1187 1.434 . S
C1187 C1178 1.429 . S
C1187 N1184 1.350 . S
C1187 C1186 1.434 . S
C1188 C1189 1.369 . S
C1188 C1190 1.419 . S
C1188 H1192 0.930 . S
C1189 C1188 1.369 . S
C1189 C1198 1.429 . S
C1190 C1188 1.419 . S
C1190 C1191 1.363 . S
C1190 H1193 0.929 . S
C1191 C1190 1.363 . S
C1191 C1197 1.428 . S
H1192 C1188 0.930 . S
H1193 C1190 0.929 . S
S1194 N1195 1.613 . S
S1194 N1196 1.610 . S
N1195 S1194 1.613 . S
N1195 C1198 1.350 . S
N1196 S1194 1.610 . S
N1196 C1197 1.351 . S
C1197 C1191 1.428 . S
C1197 N1196 1.351 . S
C1197 C1198 1.434 . S
C1198 C1189 1.429 . S
C1198 N1195 1.350 . S
C1198 C1197 1.434 . S
C1199 C1200 1.369 . S
C1199 C1201 1.419 . S
C1199 H1203 0.930 . S
C1200 C1199 1.369 . S
C1200 C1209 1.429 . S
C1201 C1199 1.419 . S
C1201 C1202 1.363 . S
C1201 H1204 0.929 . S
C1202 C1201 1.363 . S
C1202 C1208 1.428 . S
H1203 C1199 0.930 . S
H1204 C1201 0.929 . S
S1205 N1206 1.613 . S
S1205 N1207 1.610 . S
N1206 S1205 1.613 . S
N1206 C1209 1.350 . S
N1207 S1205 1.610 . S
N1207 C1208 1.351 . S
C1208 C1202 1.428 . S
C1208 N1207 1.351 . S
C1208 C1209 1.434 . S
C1209 C1200 1.429 . S
C1209 N1206 1.350 . S
C1209 C1208 1.434 . S
C1210 C1211 1.369 . S
C1210 C1212 1.419 . S
C1210 H1214 0.930 . S
C1211 C1210 1.369 . S
C1211 C1220 1.429 . S
C1212 C1210 1.419 . S
C1212 C1213 1.363 . S
C1212 H1215 0.929 . S
C1213 C1212 1.363 . S
C1213 C1219 1.428 . S
H1214 C1210 0.930 . S
H1215 C1212 0.929 . S
S1216 N1217 1.613 . S
S1216 N1218 1.610 . S
N1217 S1216 1.613 . S
N1217 C1220 1.350 . S
N1218 S1216 1.610 . S
N1218 C1219 1.351 . S
C1219 C1213 1.428 . S
C1219 N1218 1.351 . S
C1219 C1220 1.434 . S
C1220 C1211 1.429 . S
C1220 N1217 1.350 . S
C1220 C1219 1.434 . S
C1221 C1222 1.369 . S
C1221 C1223 1.419 . S
C1221 H1225 0.930 . S
C1222 C1221 1.369 . S
C1222 C1231 1.429 . S
C1223 C1221 1.419 . S
C1223 C1224 1.363 . S
C1223 H1226 0.929 . S
C1224 C1223 1.363 . S
C1224 C1230 1.428 . S
H1225 C1221 0.930 . S
H1226 C1223 0.929 . S
S1227 N1228 1.613 . S
S1227 N1229 1.610 . S
N1228 S1227 1.613 . S
N1228 C1231 1.350 . S
N1229 S1227 1.610 . S
N1229 C1230 1.351 . S
C1230 C1224 1.428 . S
C1230 N1229 1.351 . S
C1230 C1231 1.434 . S
C1231 C1222 1.429 . S
C1231 N1228 1.350 . S
C1231 C1230 1.434 . S
C1232 C1233 1.369 . S
C1232 C1234 1.419 . S
C1232 H1236 0.930 . S
C1233 C1232 1.369 . S
C1233 C1242 1.429 1_545 S
C1234 C1232 1.419 . S
C1234 C1235 1.363 . S
C1234 H1237 0.929 . S
C1235 C1234 1.363 . S
C1235 C1241 1.428 1_655 S
H1236 C1232 0.930 . S
H1237 C1234 0.929 . S
S1238 N1239 1.613 1_455 S
S1238 N1240 1.610 . S
N1239 S1238 1.613 1_655 S
N1239 C1242 1.350 . S
N1240 S1238 1.610 . S
N1240 C1241 1.351 1_565 S
C1241 C1235 1.428 1_455 S
C1241 N1240 1.351 1_545 S
C1241 C1242 1.434 1_445 S
C1242 C1233 1.429 1_565 S
C1242 N1239 1.350 . S
C1242 C1241 1.434 1_665 S
C1243 C1244 1.369 . S
C1243 C1245 1.419 . S
C1243 H1247 0.930 . S
C1244 C1243 1.369 . S
C1244 C1253 1.429 . S
C1245 C1243 1.419 . S
C1245 C1246 1.363 . S
C1245 H1248 0.929 . S
C1246 C1245 1.363 . S
C1246 C1252 1.428 . S
H1247 C1243 0.930 . S
H1248 C1245 0.929 . S
S1249 N1250 1.613 . S
S1249 N1251 1.610 . S
N1250 S1249 1.613 . S
N1250 C1253 1.350 . S
N1251 S1249 1.610 . S
N1251 C1252 1.351 . S
C1252 C1246 1.428 . S
C1252 N1251 1.351 . S
C1252 C1253 1.434 . S
C1253 C1244 1.429 . S
C1253 N1250 1.350 . S
C1253 C1252 1.434 . S
C1254 C1255 1.369 . S
C1254 C1256 1.419 . S
C1254 H1258 0.930 . S
C1255 C1254 1.369 . S
C1255 C1264 1.429 . S
C1256 C1254 1.419 . S
C1256 C1257 1.363 . S
C1256 H1259 0.929 1_545 S
C1257 C1256 1.363 . S
C1257 C1263 1.428 . S
H1258 C1254 0.930 . S
H1259 C1256 0.929 1_565 S
S1260 N1261 1.613 . S
S1260 N1262 1.610 . S
N1261 S1260 1.613 . S
N1261 C1264 1.350 . S
N1262 S1260 1.610 . S
N1262 C1263 1.351 . S
C1263 C1257 1.428 . S
C1263 N1262 1.351 . S
C1263 C1264 1.434 . S
C1264 C1255 1.429 . S
C1264 N1261 1.350 . S
C1264 C1263 1.434 . S
C1265 C1266 1.369 . S
C1265 C1267 1.419 . S
C1265 H1269 0.930 . S
C1266 C1265 1.369 . S
C1266 C1275 1.429 . S
C1267 C1265 1.419 . S
C1267 C1268 1.363 . S
C1267 H1270 0.929 . S
C1268 C1267 1.363 . S
C1268 C1274 1.428 . S
H1269 C1265 0.930 . S
H1270 C1267 0.929 . S
S1271 N1272 1.613 . S
S1271 N1273 1.610 . S
N1272 S1271 1.613 . S
N1272 C1275 1.350 . S
N1273 S1271 1.610 . S
N1273 C1274 1.351 . S
C1274 C1268 1.428 . S
C1274 N1273 1.351 . S
C1274 C1275 1.434 . S
C1275 C1266 1.429 . S
C1275 N1272 1.350 . S
C1275 C1274 1.434 . S
C1276 C1277 1.369 . S
C1276 C1278 1.419 . S
C1276 H1280 0.930 . S
C1277 C1276 1.369 . S
C1277 C1286 1.429 1_565 S
C1278 C1276 1.419 . S
C1278 C1279 1.363 . S
C1278 H1281 0.929 . S
C1279 C1278 1.363 . S
C1279 C1285 1.428 1_565 S
H1280 C1276 0.930 . S
H1281 C1278 0.929 . S
S1282 N1283 1.613 . S
S1282 N1284 1.610 . S
N1283 S1282 1.613 . S
N1283 C1286 1.350 . S
N1284 S1282 1.610 . S
N1284 C1285 1.351 . S
C1285 C1279 1.428 1_545 S
C1285 N1284 1.351 . S
C1285 C1286 1.434 . S
C1286 C1277 1.429 1_545 S
C1286 N1283 1.350 . S
C1286 C1285 1.434 . S
C1287 C1288 1.369 . S
C1287 C1289 1.419 . S
C1287 H1291 0.930 . S
C1288 C1287 1.369 . S
C1288 C1297 1.429 . S
C1289 C1287 1.419 . S
C1289 C1290 1.363 . S
C1289 H1292 0.929 . S
C1290 C1289 1.363 . S
C1290 C1296 1.428 . S
H1291 C1287 0.930 . S
H1292 C1289 0.929 . S
S1293 N1294 1.613 . S
S1293 N1295 1.610 . S
N1294 S1293 1.613 . S
N1294 C1297 1.350 . S
N1295 S1293 1.610 . S
N1295 C1296 1.351 . S
C1296 C1290 1.428 . S
C1296 N1295 1.351 . S
C1296 C1297 1.434 . S
C1297 C1288 1.429 . S
C1297 N1294 1.350 . S
C1297 C1296 1.434 . S
C1298 C1299 1.369 . S
C1298 C1300 1.419 . S
C1298 H1302 0.930 . S
C1299 C1298 1.369 . S
C1299 C1308 1.429 . S
C1300 C1298 1.419 . S
C1300 C1301 1.363 . S
C1300 H1303 0.929 . S
C1301 C1300 1.363 . S
C1301 C1307 1.428 . S
H1302 C1298 0.930 . S
H1303 C1300 0.929 . S
S1304 N1305 1.613 . S
S1304 N1306 1.610 . S
N1305 S1304 1.613 . S
N1305 C1308 1.350 . S
N1306 S1304 1.610 . S
N1306 C1307 1.351 . S
C1307 C1301 1.428 . S
C1307 N1306 1.351 . S
C1307 C1308 1.434 . S
C1308 C1299 1.429 . S
C1308 N1305 1.350 . S
C1308 C1307 1.434 . S
C1309 C1310 1.369 . S
C1309 C1311 1.419 . S
C1309 H1313 0.930 . S
C1310 C1309 1.369 . S
C1310 C1319 1.429 . S
C1311 C1309 1.419 . S
C1311 C1312 1.363 . S
C1311 H1314 0.929 . S
C1312 C1311 1.363 . S
C1312 C1318 1.428 . S
H1313 C1309 0.930 . S
H1314 C1311 0.929 . S
S1315 N1316 1.613 . S
S1315 N1317 1.610 . S
N1316 S1315 1.613 . S
N1316 C1319 1.350 . S
N1317 S1315 1.610 . S
N1317 C1318 1.351 . S
C1318 C1312 1.428 . S
C1318 N1317 1.351 . S
C1318 C1319 1.434 . S
C1319 C1310 1.429 . S
C1319 N1316 1.350 . S
C1319 C1318 1.434 . S
C1320 C1321 1.369 1_545 S
C1320 C1322 1.419 . S
C1320 H1324 0.930 . S
C1321 C1320 1.369 1_565 S
C1321 C1330 1.429 . S
C1322 C1320 1.419 . S
C1322 C1323 1.363 1_545 S
C1322 H1325 0.929 . S
C1323 C1322 1.363 1_565 S
C1323 C1329 1.428 . S
H1324 C1320 0.930 . S
H1325 C1322 0.929 . S
S1326 N1327 1.613 . S
S1326 N1328 1.610 . S
N1327 S1326 1.613 . S
N1327 C1330 1.350 . S
N1328 S1326 1.610 . S
N1328 C1329 1.351 . S
C1329 C1323 1.428 . S
C1329 N1328 1.351 . S
C1329 C1330 1.434 . S
C1330 C1321 1.429 . S
C1330 N1327 1.350 . S
C1330 C1329 1.434 . S
C1331 C1332 1.369 . S
C1331 C1333 1.419 . S
C1331 H1335 0.930 . S
C1332 C1331 1.369 . S
C1332 C1341 1.429 . S
C1333 C1331 1.419 . S
C1333 C1334 1.363 . S
C1333 H1336 0.929 . S
C1334 C1333 1.363 . S
C1334 C1340 1.428 . S
H1335 C1331 0.930 . S
H1336 C1333 0.929 . S
S1337 N1338 1.613 . S
S1337 N1339 1.610 . S
N1338 S1337 1.613 . S
N1338 C1341 1.350 . S
N1339 S1337 1.610 . S
N1339 C1340 1.351 . S
C1340 C1334 1.428 . S
C1340 N1339 1.351 . S
C1340 C1341 1.434 . S
C1341 C1332 1.429 . S
C1341 N1338 1.350 . S
C1341 C1340 1.434 . S
C1342 C1343 1.369 . S
C1342 C1344 1.419 . S
C1342 H1346 0.930 . S
C1343 C1342 1.369 . S
C1343 C1352 1.429 . S
C1344 C1342 1.419 . S
C1344 C1345 1.363 . S
C1344 H1347 0.929 . S
C1345 C1344 1.363 . S
C1345 C1351 1.428 . S
H1346 C1342 0.930 . S
H1347 C1344 0.929 . S
S1348 N1349 1.613 . S
S1348 N1350 1.610 . S
N1349 S1348 1.613 . S
N1349 C1352 1.350 . S
N1350 S1348 1.610 . S
N1350 C1351 1.351 . S
C1351 C1345 1.428 . S
C1351 N1350 1.351 . S
C1351 C1352 1.434 . S
C1352 C1343 1.429 . S
C1352 N1349 1.350 . S
C1352 C1351 1.434 . S
C1353 C1354 1.369 . S
C1353 C1355 1.419 . S
C1353 H1357 0.930 . S
C1354 C1353 1.369 . S
C1354 C1363 1.429 . S
C1355 C1353 1.419 . S
C1355 C1356 1.363 . S
C1355 H1358 0.929 . S
C1356 C1355 1.363 . S
C1356 C1362 1.428 . S
H1357 C1353 0.930 . S
H1358 C1355 0.929 . S
S1359 N1360 1.613 . S
S1359 N1361 1.610 . S
N1360 S1359 1.613 . S
N1360 C1363 1.350 . S
N1361 S1359 1.610 . S
N1361 C1362 1.351 . S
C1362 C1356 1.428 . S
C1362 N1361 1.351 . S
C1362 C1363 1.434 . S
C1363 C1354 1.429 . S
C1363 N1360 1.350 . S
C1363 C1362 1.434 . S
C1364 C1365 1.369 . S
C1364 C1366 1.419 . S
C1364 H1368 0.930 . S
C1365 C1364 1.369 . S
C1365 C1374 1.429 . S
C1366 C1364 1.419 . S
C1366 C1367 1.363 . S
C1366 H1369 0.929 . S
C1367 C1366 1.363 . S
C1367 C1373 1.428 . S
H1368 C1364 0.930 . S
H1369 C1366 0.929 . S
S1370 N1371 1.613 . S
S1370 N1372 1.610 . S
N1371 S1370 1.613 . S
N1371 C1374 1.350 . S
N1372 S1370 1.610 . S
N1372 C1373 1.351 . S
C1373 C1367 1.428 . S
C1373 N1372 1.351 . S
C1373 C1374 1.434 . S
C1374 C1365 1.429 . S
C1374 N1371 1.350 . S
C1374 C1373 1.434 . S
C1375 C1376 1.369 . S
C1375 C1377 1.419 . S
C1375 H1379 0.930 . S
C1376 C1375 1.369 . S
C1376 C1385 1.429 . S
C1377 C1375 1.419 . S
C1377 C1378 1.363 . S
C1377 H1380 0.929 . S
C1378 C1377 1.363 . S
C1378 C1384 1.428 . S
H1379 C1375 0.930 . S
H1380 C1377 0.929 . S
S1381 N1382 1.613 . S
S1381 N1383 1.610 . S
N1382 S1381 1.613 . S
N1382 C1385 1.350 . S
N1383 S1381 1.610 . S
N1383 C1384 1.351 . S
C1384 C1378 1.428 . S
C1384 N1383 1.351 . S
C1384 C1385 1.434 . S
C1385 C1376 1.429 . S
C1385 N1382 1.350 . S
C1385 C1384 1.434 . S
C1386 C1387 1.369 . S
C1386 C1388 1.419 . S
C1386 H1390 0.930 . S
C1387 C1386 1.369 . S
C1387 C1396 1.429 . S
C1388 C1386 1.419 . S
C1388 C1389 1.363 . S
C1388 H1391 0.929 . S
C1389 C1388 1.363 . S
C1389 C1395 1.428 . S
H1390 C1386 0.930 . S
H1391 C1388 0.929 . S
S1392 N1393 1.613 . S
S1392 N1394 1.610 . S
N1393 S1392 1.613 . S
N1393 C1396 1.350 . S
N1394 S1392 1.610 . S
N1394 C1395 1.351 . S
C1395 C1389 1.428 . S
C1395 N1394 1.351 . S
C1395 C1396 1.434 . S
C1396 C1387 1.429 . S
C1396 N1393 1.350 . S
C1396 C1395 1.434 . S
C1397 C1398 1.369 . S
C1397 C1399 1.419 . S
C1397 H1401 0.930 . S
C1398 C1397 1.369 . S
C1398 C1407 1.429 . S
C1399 C1397 1.419 . S
C1399 C1400 1.363 . S
C1399 H1402 0.929 . S
C1400 C1399 1.363 . S
C1400 C1406 1.428 . S
H1401 C1397 0.930 . S
H1402 C1399 0.929 . S
S1403 N1404 1.613 . S
S1403 N1405 1.610 . S
N1404 S1403 1.613 . S
N1404 C1407 1.350 . S
N1405 S1403 1.610 . S
N1405 C1406 1.351 . S
C1406 C1400 1.428 . S
C1406 N1405 1.351 . S
C1406 C1407 1.434 . S
C1407 C1398 1.429 . S
C1407 N1404 1.350 . S
C1407 C1406 1.434 . S
C1408 C1409 1.369 . S
C1408 C1410 1.419 . S
C1408 H1412 0.930 . S
C1409 C1408 1.369 . S
C1409 C1418 1.429 . S
C1410 C1408 1.419 . S
C1410 C1411 1.363 . S
C1410 H1413 0.929 . S
C1411 C1410 1.363 . S
C1411 C1417 1.428 . S
H1412 C1408 0.930 . S
H1413 C1410 0.929 . S
S1414 N1415 1.613 . S
S1414 N1416 1.610 . S
N1415 S1414 1.613 . S
N1415 C1418 1.350 . S
N1416 S1414 1.610 . S
N1416 C1417 1.351 . S
C1417 C1411 1.428 . S
C1417 N1416 1.351 . S
C1417 C1418 1.434 . S
C1418 C1409 1.429 . S
C1418 N1415 1.350 . S
C1418 C1417 1.434 . S
C1419 C1420 1.369 . S
C1419 C1421 1.419 . S
C1419 H1423 0.930 . S
C1420 C1419 1.369 . S
C1420 C1429 1.429 . S
C1421 C1419 1.419 . S
C1421 C1422 1.363 . S
C1421 H1424 0.929 . S
C1422 C1421 1.363 . S
C1422 C1428 1.428 . S
H1423 C1419 0.930 . S
H1424 C1421 0.929 . S
S1425 N1426 1.613 . S
S1425 N1427 1.610 . S
N1426 S1425 1.613 . S
N1426 C1429 1.350 . S
N1427 S1425 1.610 . S
N1427 C1428 1.351 . S
C1428 C1422 1.428 . S
C1428 N1427 1.351 . S
C1428 C1429 1.434 . S
C1429 C1420 1.429 . S
C1429 N1426 1.350 . S
C1429 C1428 1.434 . S
C1430 C1431 1.369 . S
C1430 C1432 1.419 . S
C1430 H1434 0.930 . S
C1431 C1430 1.369 . S
C1431 C1440 1.429 . S
C1432 C1430 1.419 . S
C1432 C1433 1.363 . S
C1432 H1435 0.929 . S
C1433 C1432 1.363 . S
C1433 C1439 1.428 . S
H1434 C1430 0.930 . S
H1435 C1432 0.929 . S
S1436 N1437 1.613 . S
S1436 N1438 1.610 . S
N1437 S1436 1.613 . S
N1437 C1440 1.350 . S
N1438 S1436 1.610 . S
N1438 C1439 1.351 . S
C1439 C1433 1.428 . S
C1439 N1438 1.351 . S
C1439 C1440 1.434 . S
C1440 C1431 1.429 . S
C1440 N1437 1.350 . S
C1440 C1439 1.434 . S
C1441 C1442 1.369 . S
C1441 C1443 1.419 . S
C1441 H1445 0.930 . S
C1442 C1441 1.369 . S
C1442 C1451 1.429 . S
C1443 C1441 1.419 . S
C1443 C1444 1.363 . S
C1443 H1446 0.929 . S
C1444 C1443 1.363 . S
C1444 C1450 1.428 . S
H1445 C1441 0.930 . S
H1446 C1443 0.929 . S
S1447 N1448 1.613 . S
S1447 N1449 1.610 . S
N1448 S1447 1.613 . S
N1448 C1451 1.350 . S
N1449 S1447 1.610 . S
N1449 C1450 1.351 . S
C1450 C1444 1.428 . S
C1450 N1449 1.351 . S
C1450 C1451 1.434 . S
C1451 C1442 1.429 . S
C1451 N1448 1.350 . S
C1451 C1450 1.434 . S
C1452 C1453 1.369 . S
C1452 C1454 1.427 . S
C1452 H1456 0.930 . S
C1453 C1452 1.369 . S
C1453 C1462 1.429 . S
C1454 C1452 1.427 . S
C1454 C1455 1.368 . S
C1454 H1457 0.915 1_556 S
C1455 C1454 1.368 . S
C1455 C1461 1.428 . S
H1456 C1452 0.930 . S
H1457 C1454 0.915 1_554 S
S1458 N1459 1.613 . S
S1458 N1460 1.610 . S
N1459 S1458 1.613 . S
N1459 C1462 1.350 . S
N1460 S1458 1.610 . S
N1460 C1461 1.351 . S
C1461 C1455 1.428 . S
C1461 N1460 1.351 . S
C1461 C1462 1.434 . S
C1462 C1453 1.429 . S
C1462 N1459 1.350 . S
C1462 C1461 1.434 . S
C1463 C1464 1.369 1_655 S
C1463 C1465 1.419 . S
C1463 H1467 0.930 . S
C1464 C1463 1.369 1_455 S
C1464 C1473 1.429 . S
C1465 C1463 1.419 . S
C1465 C1466 1.363 . S
C1465 H1468 0.929 . S
C1466 C1465 1.363 . S
C1466 C1472 1.428 . S
H1467 C1463 0.930 . S
H1468 C1465 0.929 . S
S1469 N1470 1.613 . S
S1469 N1471 1.610 1_455 S
N1470 S1469 1.613 . S
N1470 C1473 1.350 . S
N1471 S1469 1.610 1_655 S
N1471 C1472 1.351 . S
C1472 C1466 1.428 . S
C1472 N1471 1.351 . S
C1472 C1473 1.434 1_655 S
C1473 C1464 1.429 . S
C1473 N1470 1.350 . S
C1473 C1472 1.434 1_455 S
C1474 C1475 1.369 . S
C1474 C1476 1.419 . S
C1474 H1478 0.930 1_455 S
C1475 C1474 1.369 . S
C1475 C1484 1.429 . S
C1476 C1474 1.419 . S
C1476 C1477 1.363 . S
C1476 H1479 0.929 1_455 S
C1477 C1476 1.363 . S
C1477 C1483 1.428 . S
H1478 C1474 0.930 1_655 S
H1479 C1476 0.929 1_655 S
S1480 N1481 1.613 . S
S1480 N1482 1.610 . S
N1481 S1480 1.613 . S
N1481 C1484 1.350 . S
N1482 S1480 1.610 . S
N1482 C1483 1.351 . S
C1483 C1477 1.428 . S
C1483 N1482 1.351 . S
C1483 C1484 1.434 . S
C1484 C1475 1.429 . S
C1484 N1481 1.350 . S
C1484 C1483 1.434 . S
C1485 C1486 1.369 . S
C1485 C1487 1.419 . S
C1485 H1489 0.930 . S
C1486 C1485 1.369 . S
C1486 C1495 1.429 . S
C1487 C1485 1.419 . S
C1487 C1488 1.363 . S
C1487 H1490 0.929 . S
C1488 C1487 1.363 . S
C1488 C1494 1.428 . S
H1489 C1485 0.930 . S
H1490 C1487 0.929 . S
S1491 N1492 1.613 . S
S1491 N1493 1.610 . S
N1492 S1491 1.613 . S
N1492 C1495 1.350 . S
N1493 S1491 1.610 . S
N1493 C1494 1.351 . S
C1494 C1488 1.428 . S
C1494 N1493 1.351 . S
C1494 C1495 1.434 . S
C1495 C1486 1.429 . S
C1495 N1492 1.350 . S
C1495 C1494 1.434 . S
C1496 C1497 1.369 . S
C1496 C1498 1.419 . S
C1496 H1500 0.930 . S
C1497 C1496 1.369 . S
C1497 C1506 1.429 . S
C1498 C1496 1.419 . S
C1498 C1499 1.363 . S
C1498 H1501 0.929 . S
C1499 C1498 1.363 . S
C1499 C1505 1.428 . S
H1500 C1496 0.930 . S
H1501 C1498 0.929 . S
S1502 N1503 1.613 . S
S1502 N1504 1.610 . S
N1503 S1502 1.613 . S
N1503 C1506 1.350 . S
N1504 S1502 1.610 . S
N1504 C1505 1.351 . S
C1505 C1499 1.428 . S
C1505 N1504 1.351 . S
C1505 C1506 1.434 . S
C1506 C1497 1.429 . S
C1506 N1503 1.350 . S
C1506 C1505 1.434 . S
C1507 C1508 1.376 . S
C1507 C1509 1.419 . S
C1507 H1511 0.945 . S
C1508 C1507 1.376 . S
C1508 C1517 1.437 . S
C1509 C1507 1.419 . S
C1509 C1510 1.363 . S
C1509 H1512 0.929 . S
C1510 C1509 1.363 . S
C1510 C1516 1.428 . S
H1511 C1507 0.945 . S
H1512 C1509 0.929 . S
S1513 N1514 1.613 . S
S1513 N1515 1.610 . S
N1514 S1513 1.613 . S
N1514 C1517 1.350 . S
N1515 S1513 1.610 . S
N1515 C1516 1.351 . S
C1516 C1510 1.428 . S
C1516 N1515 1.351 . S
C1516 C1517 1.434 . S
C1517 C1508 1.437 . S
C1517 N1514 1.350 . S
C1517 C1516 1.434 . S
C1518 C1519 1.369 . S
C1518 C1520 1.419 . S
C1518 H1522 0.930 . S
C1519 C1518 1.369 . S
C1519 C1528 1.429 . S
C1520 C1518 1.419 . S
C1520 C1521 1.370 . S
C1520 H1523 0.929 1_655 S
C1521 C1520 1.370 . S
C1521 C1527 1.443 . S
H1522 C1518 0.930 . S
H1523 C1520 0.929 1_455 S
S1524 N1525 1.613 . S
S1524 N1526 1.610 . S
N1525 S1524 1.613 . S
N1525 C1528 1.350 . S
N1526 S1524 1.610 . S
N1526 C1527 1.351 . S
C1527 C1521 1.443 . S
C1527 N1526 1.351 . S
C1527 C1528 1.434 . S
C1528 C1519 1.429 . S
C1528 N1525 1.350 . S
C1528 C1527 1.434 . S
C1529 C1530 1.369 . S
C1529 C1531 1.419 . S
C1529 H1533 0.930 . S
C1530 C1529 1.369 . S
C1530 C1539 1.429 . S
C1531 C1529 1.419 . S
C1531 C1532 1.363 . S
C1531 H1534 0.929 . S
C1532 C1531 1.363 . S
C1532 C1538 1.428 . S
H1533 C1529 0.930 . S
H1534 C1531 0.929 . S
S1535 N1536 1.613 . S
S1535 N1537 1.610 . S
N1536 S1535 1.613 . S
N1536 C1539 1.350 . S
N1537 S1535 1.610 . S
N1537 C1538 1.351 . S
C1538 C1532 1.428 . S
C1538 N1537 1.351 . S
C1538 C1539 1.434 . S
C1539 C1530 1.429 . S
C1539 N1536 1.350 . S
C1539 C1538 1.434 . S
C1540 C1541 1.369 . S
C1540 C1542 1.419 . S
C1540 H1544 0.930 . S
C1541 C1540 1.369 . S
C1541 C1550 1.429 . S
C1542 C1540 1.419 . S
C1542 C1543 1.363 . S
C1542 H1545 0.929 . S
C1543 C1542 1.363 . S
C1543 C1549 1.428 . S
H1544 C1540 0.930 . S
H1545 C1542 0.929 . S
S1546 N1547 1.613 . S
S1546 N1548 1.610 . S
N1547 S1546 1.613 . S
N1547 C1550 1.350 . S
N1548 S1546 1.610 . S
N1548 C1549 1.351 . S
C1549 C1543 1.428 . S
C1549 N1548 1.351 . S
C1549 C1550 1.434 . S
C1550 C1541 1.429 . S
C1550 N1547 1.350 . S
C1550 C1549 1.434 . S
C1551 C1552 1.369 . S
C1551 C1553 1.419 . S
C1551 H1555 0.930 . S
C1552 C1551 1.369 . S
C1552 C1561 1.429 . S
C1553 C1551 1.419 . S
C1553 C1554 1.363 . S
C1553 H1556 0.929 . S
C1554 C1553 1.363 . S
C1554 C1560 1.428 . S
H1555 C1551 0.930 . S
H1556 C1553 0.929 . S
S1557 N1558 1.613 . S
S1557 N1559 1.610 . S
N1558 S1557 1.613 . S
N1558 C1561 1.350 . S
N1559 S1557 1.610 . S
N1559 C1560 1.351 . S
C1560 C1554 1.428 . S
C1560 N1559 1.351 . S
C1560 C1561 1.434 . S
C1561 C1552 1.429 . S
C1561 N1558 1.350 . S
C1561 C1560 1.434 . S
C1562 C1563 1.369 . S
C1562 C1564 1.419 . S
C1562 H1566 0.930 . S
C1563 C1562 1.369 . S
C1563 C1572 1.429 . S
C1564 C1562 1.419 . S
C1564 C1565 1.363 . S
C1564 H1567 0.929 1_655 S
C1565 C1564 1.363 . S
C1565 C1571 1.428 . S
H1566 C1562 0.930 . S
H1567 C1564 0.929 1_455 S
S1568 N1569 1.613 . S
S1568 N1570 1.610 . S
N1569 S1568 1.613 . S
N1569 C1572 1.350 . S
N1570 S1568 1.610 . S
N1570 C1571 1.351 . S
C1571 C1565 1.428 . S
C1571 N1570 1.351 . S
C1571 C1572 1.434 . S
C1572 C1563 1.429 . S
C1572 N1569 1.350 . S
C1572 C1571 1.434 . S
C1573 C1574 1.369 . S
C1573 C1575 1.419 . S
C1573 H1577 0.930 . S
C1574 C1573 1.369 . S
C1574 C1583 1.429 . S
C1575 C1573 1.419 . S
C1575 C1576 1.363 . S
C1575 H1578 0.929 . S
C1576 C1575 1.363 . S
C1576 C1582 1.428 . S
H1577 C1573 0.930 . S
H1578 C1575 0.929 . S
S1579 N1580 1.613 . S
S1579 N1581 1.610 . S
N1580 S1579 1.613 . S
N1580 C1583 1.350 . S
N1581 S1579 1.610 . S
N1581 C1582 1.351 . S
C1582 C1576 1.428 . S
C1582 N1581 1.351 . S
C1582 C1583 1.434 . S
C1583 C1574 1.429 . S
C1583 N1580 1.350 . S
C1583 C1582 1.434 . S
C1584 C1585 1.369 . S
C1584 C1586 1.419 . S
C1584 H1588 0.930 . S
C1585 C1584 1.369 . S
C1585 C1594 1.429 . S
C1586 C1584 1.419 . S
C1586 C1587 1.363 . S
C1586 H1589 0.929 . S
C1587 C1586 1.363 . S
C1587 C1593 1.428 . S
H1588 C1584 0.930 . S
H1589 C1586 0.929 . S
S1590 N1591 1.613 . S
S1590 N1592 1.610 . S
N1591 S1590 1.613 . S
N1591 C1594 1.350 . S
N1592 S1590 1.610 . S
N1592 C1593 1.351 . S
C1593 C1587 1.428 . S
C1593 N1592 1.351 . S
C1593 C1594 1.434 . S
C1594 C1585 1.429 . S
C1594 N1591 1.350 . S
C1594 C1593 1.434 . S
C1595 C1596 1.369 . S
C1595 C1597 1.419 . S
C1595 H1599 0.930 . S
C1596 C1595 1.369 . S
C1596 C1605 1.429 1_565 S
C1597 C1595 1.419 . S
C1597 C1598 1.363 . S
C1597 H1600 0.929 . S
C1598 C1597 1.363 . S
C1598 C1604 1.428 1_565 S
H1599 C1595 0.930 . S
H1600 C1597 0.929 . S
S1601 N1602 1.613 . S
S1601 N1603 1.610 . S
N1602 S1601 1.613 . S
N1602 C1605 1.350 . S
N1603 S1601 1.610 . S
N1603 C1604 1.351 . S
C1604 C1598 1.428 1_545 S
C1604 N1603 1.351 . S
C1604 C1605 1.434 . S
C1605 C1596 1.429 1_545 S
C1605 N1602 1.350 . S
C1605 C1604 1.434 . S
C1606 C1607 1.369 . S
C1606 C1608 1.419 . S
C1606 H1610 0.930 . S
C1607 C1606 1.369 . S
C1607 C1616 1.429 . S
C1608 C1606 1.419 . S
C1608 C1609 1.363 . S
C1608 H1611 0.929 . S
C1609 C1608 1.363 . S
C1609 C1615 1.428 . S
H1610 C1606 0.930 . S
H1611 C1608 0.929 . S
S1612 N1613 1.613 . S
S1612 N1614 1.610 . S
N1613 S1612 1.613 . S
N1613 C1616 1.350 . S
N1614 S1612 1.610 . S
N1614 C1615 1.351 . S
C1615 C1609 1.428 . S
C1615 N1614 1.351 . S
C1615 C1616 1.434 . S
C1616 C1607 1.429 . S
C1616 N1613 1.350 . S
C1616 C1615 1.434 . S
C1617 C1618 1.369 . S
C1617 C1619 1.419 . S
C1617 H1621 0.930 . S
C1618 C1617 1.369 . S
C1618 C1627 1.429 . S
C1619 C1617 1.419 . S
C1619 C1620 1.363 . S
C1619 H1622 0.929 . S
C1620 C1619 1.363 . S
C1620 C1626 1.428 . S
H1621 C1617 0.930 . S
H1622 C1619 0.929 . S
S1623 N1624 1.613 . S
S1623 N1625 1.610 1_556 S
N1624 S1623 1.613 . S
N1624 C1627 1.350 1_556 S
N1625 S1623 1.610 1_554 S
N1625 C1626 1.351 . S
C1626 C1620 1.428 . S
C1626 N1625 1.351 . S
C1626 C1627 1.434 . S
C1627 C1618 1.429 . S
C1627 N1624 1.350 1_554 S
C1627 C1626 1.434 . S
C1628 C1629 1.369 . S
C1628 C1630 1.419 . S
C1628 H1632 0.930 . S
C1629 C1628 1.369 . S
C1629 C1638 1.429 . S
C1630 C1628 1.419 . S
C1630 C1631 1.363 . S
C1630 H1633 0.929 . S
C1631 C1630 1.363 . S
C1631 C1637 1.428 . S
H1632 C1628 0.930 . S
H1633 C1630 0.929 . S
S1634 N1635 1.613 . S
S1634 N1636 1.610 . S
N1635 S1634 1.613 . S
N1635 C1638 1.350 . S
N1636 S1634 1.610 . S
N1636 C1637 1.351 . S
C1637 C1631 1.428 . S
C1637 N1636 1.351 . S
C1637 C1638 1.434 . S
C1638 C1629 1.429 . S
C1638 N1635 1.350 . S
C1638 C1637 1.434 . S
C1639 C1640 1.369 . S
C1639 C1641 1.419 . S
C1639 H1643 0.930 . S
C1640 C1639 1.369 . S
C1640 C1649 1.429 . S
C1641 C1639 1.419 . S
C1641 C1642 1.363 . S
C1641 H1644 0.929 . S
C1642 C1641 1.363 . S
C1642 C1648 1.428 . S
H1643 C1639 0.930 . S
H1644 C1641 0.929 . S
S1645 N1646 1.613 . S
S1645 N1647 1.610 . S
N1646 S1645 1.613 . S
N1646 C1649 1.350 . S
N1647 S1645 1.610 . S
N1647 C1648 1.351 . S
C1648 C1642 1.428 . S
C1648 N1647 1.351 . S
C1648 C1649 1.434 . S
C1649 C1640 1.429 . S
C1649 N1646 1.350 . S
C1649 C1648 1.434 . S
C1650 C1651 1.369 . S
C1650 C1652 1.419 . S
C1650 H1654 0.930 . S
C1651 C1650 1.369 . S
C1651 C1660 1.429 . S
C1652 C1650 1.419 . S
C1652 C1653 1.363 . S
C1652 H1655 0.929 . S
C1653 C1652 1.363 . S
C1653 C1659 1.428 . S
H1654 C1650 0.930 . S
H1655 C1652 0.929 . S
S1656 N1657 1.613 . S
S1656 N1658 1.610 . S
N1657 S1656 1.613 . S
N1657 C1660 1.350 . S
N1658 S1656 1.610 . S
N1658 C1659 1.351 . S
C1659 C1653 1.428 . S
C1659 N1658 1.351 . S
C1659 C1660 1.434 . S
C1660 C1651 1.429 . S
C1660 N1657 1.350 . S
C1660 C1659 1.434 . S
C1661 C1662 1.369 . S
C1661 C1663 1.419 . S
C1661 H1665 0.930 . S
C1662 C1661 1.369 . S
C1662 C1671 1.429 . S
C1663 C1661 1.419 . S
C1663 C1664 1.363 . S
C1663 H1666 0.929 . S
C1664 C1663 1.363 . S
C1664 C1670 1.428 . S
H1665 C1661 0.930 . S
H1666 C1663 0.929 . S
S1667 N1668 1.613 . S
S1667 N1669 1.610 . S
N1668 S1667 1.613 . S
N1668 C1671 1.350 . S
N1669 S1667 1.610 . S
N1669 C1670 1.351 . S
C1670 C1664 1.428 . S
C1670 N1669 1.351 . S
C1670 C1671 1.434 . S
C1671 C1662 1.429 . S
C1671 N1668 1.350 . S
C1671 C1670 1.434 . S
C1672 C1673 1.369 . S
C1672 C1674 1.419 . S
C1672 H1676 0.930 . S
C1673 C1672 1.369 . S
C1673 C1682 1.429 . S
C1674 C1672 1.419 . S
C1674 C1675 1.363 . S
C1674 H1677 0.929 . S
C1675 C1674 1.363 . S
C1675 C1681 1.428 . S
H1676 C1672 0.930 . S
H1677 C1674 0.929 . S
S1678 N1679 1.613 . S
S1678 N1680 1.610 . S
N1679 S1678 1.613 . S
N1679 C1682 1.350 . S
N1680 S1678 1.610 . S
N1680 C1681 1.351 . S
C1681 C1675 1.428 . S
C1681 N1680 1.351 . S
C1681 C1682 1.434 . S
C1682 C1673 1.429 . S
C1682 N1679 1.350 . S
C1682 C1681 1.434 . S
C1683 C1684 1.369 . S
C1683 C1685 1.419 . S
C1683 H1687 0.930 . S
C1684 C1683 1.369 . S
C1684 C1693 1.429 . S
C1685 C1683 1.419 . S
C1685 C1686 1.363 . S
C1685 H1688 0.929 . S
C1686 C1685 1.363 . S
C1686 C1692 1.428 . S
H1687 C1683 0.930 . S
H1688 C1685 0.929 . S
S1689 N1690 1.613 . S
S1689 N1691 1.610 . S
N1690 S1689 1.613 . S
N1690 C1693 1.350 . S
N1691 S1689 1.610 . S
N1691 C1692 1.351 . S
C1692 C1686 1.428 . S
C1692 N1691 1.351 . S
C1692 C1693 1.434 . S
C1693 C1684 1.429 . S
C1693 N1690 1.350 . S
C1693 C1692 1.434 . S
C1694 C1695 1.369 . S
C1694 C1696 1.419 . S
C1694 H1698 0.930 . S
C1695 C1694 1.369 . S
C1695 C1704 1.429 1_655 S
C1696 C1694 1.419 . S
C1696 C1697 1.363 . S
C1696 H1699 0.929 . S
C1697 C1696 1.363 . S
C1697 C1703 1.428 1_655 S
H1698 C1694 0.930 . S
H1699 C1696 0.929 . S
S1700 N1701 1.613 1_554 S
S1700 N1702 1.610 . S
N1701 S1700 1.613 1_556 S
N1701 C1704 1.350 . S
N1702 S1700 1.610 . S
N1702 C1703 1.351 1_554 S
C1703 C1697 1.428 1_455 S
C1703 N1702 1.351 1_556 S
C1703 C1704 1.434 . S
C1704 C1695 1.429 1_455 S
C1704 N1701 1.350 . S
C1704 C1703 1.434 . S
C1705 C1706 1.369 . S
C1705 C1707 1.419 . S
C1705 H1709 0.930 . S
C1706 C1705 1.369 . S
C1706 C1715 1.429 . S
C1707 C1705 1.419 . S
C1707 C1708 1.363 . S
C1707 H1710 0.929 . S
C1708 C1707 1.363 . S
C1708 C1714 1.428 . S
H1709 C1705 0.930 . S
H1710 C1707 0.929 . S
S1711 N1712 1.613 . S
S1711 N1713 1.610 . S
N1712 S1711 1.613 . S
N1712 C1715 1.350 . S
N1713 S1711 1.610 . S
N1713 C1714 1.351 . S
C1714 C1708 1.428 . S
C1714 N1713 1.351 . S
C1714 C1715 1.434 . S
C1715 C1706 1.429 . S
C1715 N1712 1.350 . S
C1715 C1714 1.434 . S
C1716 C1717 1.369 . S
C1716 C1718 1.419 . S
C1716 H1720 0.930 . S
C1717 C1716 1.369 . S
C1717 C1726 1.429 . S
C1718 C1716 1.419 . S
C1718 C1719 1.363 . S
C1718 H1721 0.929 . S
C1719 C1718 1.363 . S
C1719 C1725 1.428 . S
H1720 C1716 0.930 . S
H1721 C1718 0.929 . S
S1722 N1723 1.613 . S
S1722 N1724 1.610 . S
N1723 S1722 1.613 . S
N1723 C1726 1.350 . S
N1724 S1722 1.610 . S
N1724 C1725 1.351 . S
C1725 C1719 1.428 . S
C1725 N1724 1.351 . S
C1725 C1726 1.434 . S
C1726 C1717 1.429 . S
C1726 N1723 1.350 . S
C1726 C1725 1.434 . S
C1727 C1728 1.369 . S
C1727 C1729 1.419 . S
C1727 H1731 0.930 . S
C1728 C1727 1.369 . S
C1728 C1737 1.429 . S
C1729 C1727 1.419 . S
C1729 C1730 1.363 . S
C1729 H1732 0.929 . S
C1730 C1729 1.363 . S
C1730 C1736 1.428 . S
H1731 C1727 0.930 . S
H1732 C1729 0.929 . S
S1733 N1734 1.613 . S
S1733 N1735 1.610 . S
N1734 S1733 1.613 . S
N1734 C1737 1.350 . S
N1735 S1733 1.610 . S
N1735 C1736 1.351 . S
C1736 C1730 1.428 . S
C1736 N1735 1.351 . S
C1736 C1737 1.434 . S
C1737 C1728 1.429 . S
C1737 N1734 1.350 . S
C1737 C1736 1.434 . S
C1738 C1739 1.369 . S
C1738 C1740 1.419 . S
C1738 H1742 0.930 . S
C1739 C1738 1.369 . S
C1739 C1748 1.429 . S
C1740 C1738 1.419 . S
C1740 C1741 1.363 . S
C1740 H1743 0.929 . S
C1741 C1740 1.363 . S
C1741 C1747 1.411 1_455 S
H1742 C1738 0.930 . S
H1743 C1740 0.929 . S
S1744 N1745 1.613 . S
S1744 N1746 1.610 . S
N1745 S1744 1.613 . S
N1745 C1748 1.350 1_655 S
N1746 S1744 1.610 . S
N1746 C1747 1.372 . S
C1747 C1741 1.411 1_655 S
C1747 N1746 1.372 . S
C1747 C1748 1.432 1_655 S
C1748 C1739 1.429 . S
C1748 N1745 1.350 1_455 S
C1748 C1747 1.432 1_455 S
C1749 C1750 1.369 . S
C1749 C1751 1.419 . S
C1749 H1753 0.930 . S
C1750 C1749 1.369 . S
C1750 C1759 1.429 . S
C1751 C1749 1.419 . S
C1751 C1752 1.363 . S
C1751 H1754 0.929 . S
C1752 C1751 1.363 . S
C1752 C1758 1.428 . S
H1753 C1749 0.930 . S
H1754 C1751 0.929 . S
S1755 N1756 1.613 . S
S1755 N1757 1.610 . S
N1756 S1755 1.613 . S
N1756 C1759 1.350 . S
N1757 S1755 1.610 . S
N1757 C1758 1.351 . S
C1758 C1752 1.428 . S
C1758 N1757 1.351 . S
C1758 C1759 1.434 . S
C1759 C1750 1.429 . S
C1759 N1756 1.350 . S
C1759 C1758 1.434 . S
C1760 C1761 1.369 . S
C1760 C1762 1.419 . S
C1760 H1764 0.930 . S
C1761 C1760 1.369 . S
C1761 C1770 1.429 . S
C1762 C1760 1.419 . S
C1762 C1763 1.363 . S
C1762 H1765 0.929 . S
C1763 C1762 1.363 . S
C1763 C1769 1.428 . S
H1764 C1760 0.930 . S
H1765 C1762 0.929 . S
S1766 N1767 1.613 . S
S1766 N1768 1.610 . S
N1767 S1766 1.613 . S
N1767 C1770 1.350 . S
N1768 S1766 1.610 . S
N1768 C1769 1.351 . S
C1769 C1763 1.428 . S
C1769 N1768 1.351 . S
C1769 C1770 1.434 . S
C1770 C1761 1.429 . S
C1770 N1767 1.350 . S
C1770 C1769 1.434 . S
C1771 C1772 1.369 . S
C1771 C1773 1.419 . S
C1771 H1775 0.930 . S
C1772 C1771 1.369 . S
C1772 C1781 1.429 . S
C1773 C1771 1.419 . S
C1773 C1774 1.363 . S
C1773 H1776 0.929 . S
C1774 C1773 1.363 . S
C1774 C1780 1.428 . S
H1775 C1771 0.930 . S
H1776 C1773 0.929 . S
S1777 N1778 1.613 . S
S1777 N1779 1.610 . S
N1778 S1777 1.613 . S
N1778 C1781 1.350 . S
N1779 S1777 1.610 . S
N1779 C1780 1.351 . S
C1780 C1774 1.428 . S
C1780 N1779 1.351 . S
C1780 C1781 1.434 . S
C1781 C1772 1.429 . S
C1781 N1778 1.350 . S
C1781 C1780 1.434 . S
C1782 C1783 1.369 . S
C1782 C1784 1.419 . S
C1782 H1786 0.930 . S
C1783 C1782 1.369 . S
C1783 C1792 1.429 . S
C1784 C1782 1.419 . S
C1784 C1785 1.363 . S
C1784 H1787 0.929 . S
C1785 C1784 1.363 . S
C1785 C1791 1.428 . S
H1786 C1782 0.930 . S
H1787 C1784 0.929 . S
S1788 N1789 1.613 . S
S1788 N1790 1.610 . S
N1789 S1788 1.613 . S
N1789 C1792 1.350 . S
N1790 S1788 1.610 . S
N1790 C1791 1.351 . S
C1791 C1785 1.428 . S
C1791 N1790 1.351 . S
C1791 C1792 1.434 . S
C1792 C1783 1.429 . S
C1792 N1789 1.350 . S
C1792 C1791 1.434 . S
C1793 C1794 1.369 . S
C1793 C1795 1.419 . S
C1793 H1797 0.930 . S
C1794 C1793 1.369 . S
C1794 C1803 1.429 . S
C1795 C1793 1.419 . S
C1795 C1796 1.363 . S
C1795 H1798 0.929 . S
C1796 C1795 1.363 . S
C1796 C1802 1.428 . S
H1797 C1793 0.930 . S
H1798 C1795 0.929 . S
S1799 N1800 1.613 . S
S1799 N1801 1.610 . S
N1800 S1799 1.613 . S
N1800 C1803 1.350 . S
N1801 S1799 1.610 . S
N1801 C1802 1.351 . S
C1802 C1796 1.428 . S
C1802 N1801 1.351 . S
C1802 C1803 1.434 . S
C1803 C1794 1.429 . S
C1803 N1800 1.350 . S
C1803 C1802 1.434 . S
C1804 C1805 1.369 . S
C1804 C1806 1.419 . S
C1804 H1808 0.930 . S
C1805 C1804 1.369 . S
C1805 C1814 1.429 . S
C1806 C1804 1.419 . S
C1806 C1807 1.363 . S
C1806 H1809 0.929 . S
C1807 C1806 1.363 . S
C1807 C1813 1.428 . S
H1808 C1804 0.930 . S
H1809 C1806 0.929 . S
S1810 N1811 1.613 . S
S1810 N1812 1.610 . S
N1811 S1810 1.613 . S
N1811 C1814 1.350 . S
N1812 S1810 1.610 . S
N1812 C1813 1.351 . S
C1813 C1807 1.428 . S
C1813 N1812 1.351 . S
C1813 C1814 1.434 . S
C1814 C1805 1.429 . S
C1814 N1811 1.350 . S
C1814 C1813 1.434 . S
C1815 C1816 1.369 . S
C1815 C1817 1.419 . S
C1815 H1819 0.930 . S
C1816 C1815 1.369 . S
C1816 C1825 1.429 . S
C1817 C1815 1.419 . S
C1817 C1818 1.363 . S
C1817 H1820 0.929 . S
C1818 C1817 1.363 . S
C1818 C1824 1.428 . S
H1819 C1815 0.930 . S
H1820 C1817 0.929 . S
S1821 N1822 1.613 . S
S1821 N1823 1.610 . S
N1822 S1821 1.613 . S
N1822 C1825 1.350 . S
N1823 S1821 1.610 . S
N1823 C1824 1.351 . S
C1824 C1818 1.428 . S
C1824 N1823 1.351 . S
C1824 C1825 1.434 . S
C1825 C1816 1.429 . S
C1825 N1822 1.350 . S
C1825 C1824 1.434 . S
C1826 C1827 1.369 . S
C1826 C1828 1.419 . S
C1826 H1830 0.930 . S
C1827 C1826 1.369 . S
C1827 C1836 1.429 . S
C1828 C1826 1.419 . S
C1828 C1829 1.363 . S
C1828 H1831 0.929 . S
C1829 C1828 1.363 . S
C1829 C1835 1.428 . S
H1830 C1826 0.930 . S
H1831 C1828 0.929 . S
S1832 N1833 1.613 . S
S1832 N1834 1.610 . S
N1833 S1832 1.613 . S
N1833 C1836 1.350 . S
N1834 S1832 1.610 . S
N1834 C1835 1.351 . S
C1835 C1829 1.428 . S
C1835 N1834 1.351 . S
C1835 C1836 1.434 . S
C1836 C1827 1.429 . S
C1836 N1833 1.350 . S
C1836 C1835 1.434 . S
C1837 C1838 1.369 . S
C1837 C1839 1.419 . S
C1837 H1841 0.930 . S
C1838 C1837 1.369 . S
C1838 C1847 1.429 . S
C1839 C1837 1.419 . S
C1839 C1840 1.363 . S
C1839 H1842 0.929 . S
C1840 C1839 1.363 . S
C1840 C1846 1.428 . S
H1841 C1837 0.930 . S
H1842 C1839 0.929 . S
S1843 N1844 1.613 . S
S1843 N1845 1.610 . S
N1844 S1843 1.613 . S
N1844 C1847 1.350 . S
N1845 S1843 1.610 . S
N1845 C1846 1.351 . S
C1846 C1840 1.428 . S
C1846 N1845 1.351 . S
C1846 C1847 1.434 . S
C1847 C1838 1.429 . S
C1847 N1844 1.350 . S
C1847 C1846 1.434 . S
C1848 C1849 1.369 . S
C1848 C1850 1.419 . S
C1848 H1852 0.930 . S
C1849 C1848 1.369 . S
C1849 C1858 1.429 . S
C1850 C1848 1.419 . S
C1850 C1851 1.363 . S
C1850 H1853 0.929 . S
C1851 C1850 1.363 . S
C1851 C1857 1.428 . S
H1852 C1848 0.930 . S
H1853 C1850 0.929 . S
S1854 N1855 1.613 . S
S1854 N1856 1.610 . S
N1855 S1854 1.613 . S
N1855 C1858 1.350 . S
N1856 S1854 1.610 . S
N1856 C1857 1.351 . S
C1857 C1851 1.428 . S
C1857 N1856 1.351 . S
C1857 C1858 1.434 . S
C1858 C1849 1.429 . S
C1858 N1855 1.350 . S
C1858 C1857 1.434 . S
C1859 C1860 1.369 . S
C1859 C1861 1.419 . S
C1859 H1863 0.930 . S
C1860 C1859 1.369 . S
C1860 C1869 1.429 . S
C1861 C1859 1.419 . S
C1861 C1862 1.363 . S
C1861 H1864 0.929 . S
C1862 C1861 1.363 . S
C1862 C1868 1.428 . S
H1863 C1859 0.930 . S
H1864 C1861 0.929 . S
S1865 N1866 1.613 . S
S1865 N1867 1.610 . S
N1866 S1865 1.613 . S
N1866 C1869 1.350 . S
N1867 S1865 1.610 . S
N1867 C1868 1.351 . S
C1868 C1862 1.428 . S
C1868 N1867 1.351 . S
C1868 C1869 1.434 . S
C1869 C1860 1.429 . S
C1869 N1866 1.350 . S
C1869 C1868 1.434 . S
C1870 C1871 1.369 . S
C1870 C1872 1.419 . S
C1870 H1874 0.930 . S
C1871 C1870 1.369 . S
C1871 C1880 1.429 . S
C1872 C1870 1.419 . S
C1872 C1873 1.363 . S
C1872 H1875 0.929 . S
C1873 C1872 1.363 . S
C1873 C1879 1.428 . S
H1874 C1870 0.930 . S
H1875 C1872 0.929 . S
S1876 N1877 1.613 . S
S1876 N1878 1.610 . S
N1877 S1876 1.613 . S
N1877 C1880 1.350 . S
N1878 S1876 1.610 . S
N1878 C1879 1.351 . S
C1879 C1873 1.428 . S
C1879 N1878 1.351 . S
C1879 C1880 1.434 . S
C1880 C1871 1.429 . S
C1880 N1877 1.350 . S
C1880 C1879 1.434 . S
C1881 C1882 1.369 . S
C1881 C1883 1.419 . S
C1881 H1885 0.930 1_554 S
C1882 C1881 1.369 . S
C1882 C1891 1.429 1_565 S
C1883 C1881 1.419 . S
C1883 C1884 1.363 . S
C1883 H1886 0.929 1_554 S
C1884 C1883 1.363 . S
C1884 C1890 1.428 1_565 S
H1885 C1881 0.930 1_556 S
H1886 C1883 0.929 1_556 S
S1887 N1888 1.613 . S
S1887 N1889 1.610 . S
N1888 S1887 1.613 . S
N1888 C1891 1.350 . S
N1889 S1887 1.610 . S
N1889 C1890 1.351 . S
C1890 C1884 1.428 1_545 S
C1890 N1889 1.351 . S
C1890 C1891 1.434 . S
C1891 C1882 1.429 1_545 S
C1891 N1888 1.350 . S
C1891 C1890 1.434 . S
C1892 C1893 1.369 . S
C1892 C1894 1.419 . S
C1892 H1896 0.930 . S
C1893 C1892 1.369 . S
C1893 C1902 1.429 . S
C1894 C1892 1.419 . S
C1894 C1895 1.363 . S
C1894 H1897 0.929 . S
C1895 C1894 1.363 . S
C1895 C1901 1.428 . S
H1896 C1892 0.930 . S
H1897 C1894 0.929 . S
S1898 N1899 1.613 . S
S1898 N1900 1.610 . S
N1899 S1898 1.613 . S
N1899 C1902 1.350 . S
N1900 S1898 1.610 . S
N1900 C1901 1.351 . S
C1901 C1895 1.428 . S
C1901 N1900 1.351 . S
C1901 C1902 1.434 . S
C1902 C1893 1.429 . S
C1902 N1899 1.350 . S
C1902 C1901 1.434 . S
C1903 C1904 1.369 1_556 S
C1903 C1905 1.419 1_556 S
C1903 H1907 0.930 . S
C1904 C1903 1.369 1_554 S
C1904 C1913 1.429 . S
C1905 C1903 1.419 1_554 S
C1905 C1906 1.363 . S
C1905 H1908 0.917 1_554 S
C1906 C1905 1.363 . S
C1906 C1912 1.428 . S
H1907 C1903 0.930 . S
H1908 C1905 0.917 1_556 S
S1909 N1910 1.613 . S
S1909 N1911 1.610 . S
N1910 S1909 1.613 . S
N1910 C1913 1.350 . S
N1911 S1909 1.610 . S
N1911 C1912 1.351 . S
C1912 C1906 1.428 . S
C1912 N1911 1.351 . S
C1912 C1913 1.434 . S
C1913 C1904 1.429 . S
C1913 N1910 1.350 . S
C1913 C1912 1.434 . S
C1914 C1915 1.369 . S
C1914 C1916 1.419 . S
C1914 H1918 0.930 . S
C1915 C1914 1.369 . S
C1915 C1924 1.429 . S
C1916 C1914 1.419 . S
C1916 C1917 1.363 . S
C1916 H1919 0.929 . S
C1917 C1916 1.363 . S
C1917 C1923 1.428 . S
H1918 C1914 0.930 . S
H1919 C1916 0.929 . S
S1920 N1921 1.613 . S
S1920 N1922 1.610 . S
N1921 S1920 1.613 . S
N1921 C1924 1.350 . S
N1922 S1920 1.610 . S
N1922 C1923 1.351 . S
C1923 C1917 1.428 . S
C1923 N1922 1.351 . S
C1923 C1924 1.434 . S
C1924 C1915 1.429 . S
C1924 N1921 1.350 . S
C1924 C1923 1.434 . S
C1925 C1926 1.369 . S
C1925 C1927 1.419 . S
C1925 H1929 0.930 . S
C1926 C1925 1.369 . S
C1926 C1935 1.429 . S
C1927 C1925 1.419 . S
C1927 C1928 1.363 . S
C1927 H1930 0.929 . S
C1928 C1927 1.363 . S
C1928 C1934 1.428 . S
H1929 C1925 0.930 . S
H1930 C1927 0.929 . S
S1931 N1932 1.613 . S
S1931 N1933 1.610 . S
N1932 S1931 1.613 . S
N1932 C1935 1.350 . S
N1933 S1931 1.610 . S
N1933 C1934 1.351 . S
C1934 C1928 1.428 . S
C1934 N1933 1.351 . S
C1934 C1935 1.434 . S
C1935 C1926 1.429 . S
C1935 N1932 1.350 . S
C1935 C1934 1.434 . S
C883 C353 1.160 . S
C881 C4 1.085 . S
C892 C19 1.521 . S
C894 C399 1.855 . S
C903 C39 0.931 . S
C905 C408 0.926 . S
C916 C446 1.652 . S
C914 C54 1.684 . S
C925 C18 1.593 . S
C927 C480 1.636 . S
C938 C510 0.942 . S
C936 C40 0.942 . S
C949 C569 1.594 1_556 S
C947 C53 1.596 . S
C958 C5 0.810 . S
C960 C582 1.168 . S
C969 C61 1.079 . S
C971 C365 1.375 . S
C980 C74 1.266 . S
C982 C383 1.324 . S
C993 C404 1.623 . S
C991 C89 1.237 . S
C1004 C442 1.051 . S
C1002 C109 1.138 . S
C1013 C68 1.319 . S
C1015 C476 1.285 . S
C1026 C506 1.671 . S
C1024 C81 1.708 . S
C1037 C553 1.285 . S
C1035 C96 1.328 . S
C1048 C578 0.907 . S
C1046 C102 0.899 . S
C1059 C349 0.914 . S
C1057 C103 0.789 . S
C1070 C608 1.659 . S
C1068 C117 1.484 . S
C1079 C130 1.497 . S
C1081 C650 1.617 . S
C1092 C693 0.559 . S
C1090 C152 0.542 . S
C1101 C60 1.422 . S
C1103 C574 1.469 . S
C1114 C412 1.604 . S
C1112 C82 1.612 . S
C1123 C137 1.372 . S
C1125 C710 1.407 . S
C1136 C761 1.587 . S
C1134 C165 1.562 . S
C1145 C172 1.172 1_455 S
C1147 C344 1.161 1_556 S
C1158 C744 1.944 . S
C1156 C194 1.961 . S
C1167 C207 0.916 . S
C1169 C417 0.912 . S
C1178 C215 1.512 . S
C1180 C727 1.720 . S
C1191 C489 1.692 . S
C1189 C186 1.705 . S
C1202 C655 0.962 . S
C1200 C201 0.890 . S
C1213 C540 1.632 . S
C1211 C221 1.623 . S
C1224 C795 1.161 . S
C1222 C180 1.175 . S
C1235 C336 1.409 1_655 S
C1233 C236 1.459 . S
C1244 C242 1.411 . S
C1246 C748 1.373 . S
C1257 C433 1.761 . S
C1255 C264 1.810 . S
C1266 C277 1.092 . S
C1268 C723 1.142 . S
C1277 C229 1.160 1_565 S
C1279 C485 1.218 . S
C1288 C249 1.657 . S
C1290 C671 1.661 . S
C1301 C544 1.300 . S
C1299 C257 1.232 . S
C1310 C270 0.900 . S
C1312 C791 0.896 . S
C1321 C278 0.883 . S
C1323 C340 0.906 . S
C1332 C292 1.698 . S
C1334 C637 1.716 . S
C1343 C298 1.781 . S
C1345 C523 1.707 . S
C1354 C313 0.643 . S
C1356 C684 0.598 . S
C1367 C807 1.493 . S
C1365 C228 1.546 . S
C1378 C421 1.599 . S
C1376 C243 1.582 . S
C1389 C467 1.402 . S
C1387 C305 1.398 . S
C1400 C378 1.589 . S
C1398 C333 1.589 . S
C1409 C32 1.082 . S
C1411 C829 1.162 . S
C1422 C773 1.856 . S
C1420 C47 1.519 . S
C1433 C850 0.926 . S
C1431 C11 0.931 . S
C1442 C26 1.684 . S
C1444 C718 1.652 . S
C1453 C46 1.598 . S
C1455 C616 1.633 1_556 S
C1466 C646 0.938 . S
C1464 C12 0.944 . S
C1477 C705 1.594 . S
C1475 C25 1.597 . S
C1488 C786 1.173 . S
C1486 C33 0.790 . S
C1499 C841 1.375 . S
C1497 C159 1.080 . S
C1508 C116 1.254 1_556 S
C1510 C757 1.323 . S
C1519 C131 1.254 . S
C1521 C846 1.601 1_655 S
C1532 C714 1.061 . S
C1530 C151 1.131 . S
C1543 C612 1.284 . S
C1541 C166 1.319 . S
C1552 C123 1.706 . S
C1554 C642 1.670 . S
C1565 C689 1.287 . S
C1563 C138 1.324 . S
C1574 C144 0.904 . S
C1576 C782 0.905 . S
C1587 C825 0.911 . S
C1585 C145 0.799 . S
C1598 C472 1.661 1_565 S
C1596 C75 1.478 . S
C1609 C514 1.612 . S
C1607 C88 1.508 . S
C1618 C110 0.557 . S
C1620 C557 0.549 . S
C1631 C778 1.474 . S
C1629 C158 1.414 . S
C1640 C124 1.612 . S
C1642 C854 1.601 . S
C1653 C438 1.407 . S
C1651 C95 1.365 . S
C1664 C387 1.586 . S
C1662 C67 1.560 . S
C1673 C200 1.182 . S
C1675 C820 1.160 . S
C1686 C370 1.943 . S
C1684 C222 1.961 . S
C1697 C859 0.912 . S
C1695 C179 0.916 . S
C1706 C187 1.514 . S
C1708 C455 1.720 . S
C1717 C214 1.704 . S
C1719 C625 1.696 . S
C1728 C173 0.892 . S
C1730 C519 0.959 . S
C1739 C193 1.620 . S
C1741 C676 1.635 . S
C1750 C208 1.158 . S
C1752 C591 1.168 . S
C1763 C812 1.416 . S
C1761 C334 1.452 . S
C1772 C284 1.411 . S
C1774 C374 1.372 . S
C1785 C875 1.764 . S
C1783 C306 1.807 . S
C1794 C319 1.086 . S
C1796 C451 1.147 . S
C1805 C327 1.158 . S
C1807 C621 1.218 . S
C1818 C535 1.661 . S
C1816 C291 1.659 . S
C1827 C299 1.242 . S
C1829 C680 1.297 . S
C1840 C587 0.895 . S
C1838 C312 0.899 . S
C1851 C816 0.906 . S
C1849 C320 0.888 . S
C1862 C501 1.716 . S
C1860 C250 1.698 . S
C1871 C256 1.778 . S
C1873 C659 1.713 . S
C1884 C548 0.598 1_565 S
C1882 C271 0.643 . S
C1895 C603 1.494 . S
C1893 C326 1.546 . S
C1904 C285 1.580 1_554 S
C1906 C863 1.601 . S
C1917 C739 1.402 . S
C1915 C263 1.398 . S
C1928 C752 1.587 . S
C1926 C235 1.592 . S
