# Generated by pormake.
# Topology ssa, (4,4)-cn, num edge types: 1
# Building blocks:
#     Node 0, Type 0, BuildingBlock: NAWXER_clean_sbu_0, # of connection points: 4
#     Node 1, Type 0, BuildingBlock: NAWXER_clean_sbu_0, # of connection points: 4
#     Node 2, Type 0, BuildingBlock: NAWXER_clean_sbu_0, # of connection points: 4
#     Node 3, Type 0, BuildingBlock: NAWXER_clean_sbu_0, # of connection points: 4
#     Node 4, Type 0, BuildingBlock: NAWXER_clean_sbu_0, # of connection points: 4
#     Node 5, Type 0, BuildingBlock: NAWXER_clean_sbu_0, # of connection points: 4
#     Node 6, Type 1, BuildingBlock: ESEHIV_clean_sbu_0, # of connection points: 4
#     Node 7, Type 1, BuildingBlock: ESEHIV_clean_sbu_0, # of connection points: 4
#     Node 8, Type 1, BuildingBlock: ESEHIV_clean_sbu_0, # of connection points: 4
#     Node 9, Type 1, BuildingBlock: ESEHIV_clean_sbu_0, # of connection points: 4
#     Node 10, Type 1, BuildingBlock: ESEHIV_clean_sbu_0, # of connection points: 4
#     Node 11, Type 1, BuildingBlock: ESEHIV_clean_sbu_0, # of connection points: 4
#     Edge 12, Type (0, 1), BuildingBlock: MIFKUJ_clean_linker_0, # of connection points: 2
#     Edge 13, Type (0, 1), BuildingBlock: MIFKUJ_clean_linker_0, # of connection points: 2
#     Edge 14, Type (0, 1), BuildingBlock: MIFKUJ_clean_linker_0, # of connection points: 2
#     Edge 15, Type (0, 1), BuildingBlock: MIFKUJ_clean_linker_0, # of connection points: 2
#     Edge 16, Type (0, 1), BuildingBlock: MIFKUJ_clean_linker_0, # of connection points: 2
#     Edge 17, Type (0, 1), BuildingBlock: MIFKUJ_clean_linker_0, # of connection points: 2
#     Edge 18, Type (0, 1), BuildingBlock: MIFKUJ_clean_linker_0, # of connection points: 2
#     Edge 19, Type (0, 1), BuildingBlock: MIFKUJ_clean_linker_0, # of connection points: 2
#     Edge 20, Type (0, 1), BuildingBlock: MIFKUJ_clean_linker_0, # of connection points: 2
#     Edge 21, Type (0, 1), BuildingBlock: MIFKUJ_clean_linker_0, # of connection points: 2
#     Edge 22, Type (0, 1), BuildingBlock: MIFKUJ_clean_linker_0, # of connection points: 2
#     Edge 23, Type (0, 1), BuildingBlock: MIFKUJ_clean_linker_0, # of connection points: 2
#     Edge 24, Type (0, 1), BuildingBlock: MIFKUJ_clean_linker_0, # of connection points: 2
#     Edge 25, Type (0, 1), BuildingBlock: MIFKUJ_clean_linker_0, # of connection points: 2
#     Edge 26, Type (0, 1), BuildingBlock: MIFKUJ_clean_linker_0, # of connection points: 2
#     Edge 27, Type (0, 1), BuildingBlock: MIFKUJ_clean_linker_0, # of connection points: 2
#     Edge 28, Type (0, 1), BuildingBlock: MIFKUJ_clean_linker_0, # of connection points: 2
#     Edge 29, Type (0, 1), BuildingBlock: MIFKUJ_clean_linker_0, # of connection points: 2
#     Edge 30, Type (0, 1), BuildingBlock: MIFKUJ_clean_linker_0, # of connection points: 2
#     Edge 31, Type (0, 1), BuildingBlock: MIFKUJ_clean_linker_0, # of connection points: 2
#     Edge 32, Type (0, 1), BuildingBlock: MIFKUJ_clean_linker_0, # of connection points: 2
#     Edge 33, Type (0, 1), BuildingBlock: MIFKUJ_clean_linker_0, # of connection points: 2
#     Edge 34, Type (0, 1), BuildingBlock: MIFKUJ_clean_linker_0, # of connection points: 2
#     Edge 35, Type (0, 1), BuildingBlock: MIFKUJ_clean_linker_0, # of connection points: 2
# Relax obj value: 0.027
# Max RMSD: 0.097
# Mean RMSD: 0.065
data_MOF--net-ssa--node1-NAWXER_clean_sbu_0--node2-ESEHIV_clean_sbu_0--edge1-MIFKUJ_clean_linker_0
_symmetry_space_group_name_H-M    P1
_symmetry_Int_Tables_number       1
_symmetry_cell_setting            triclinic
loop_
_symmetry_equiv_pos_as_xyz
'x, y, z'
_cell_length_a     62.505291
_cell_length_b     62.523114
_cell_length_c     45.788264
_cell_angle_alpha  89.975032
_cell_angle_beta   90.001308
_cell_angle_gamma 120.00792
loop_
_atom_site_label
_atom_site_type_symbol
_atom_site_fract_x
_atom_site_fract_y
_atom_site_fract_z
_atom_type_partial_charge
C0 C 0.0531 0.56295 0.99501 0.0
C1 C 0.01889 0.47948 0.95627 0.0
O2 O 0.03475 0.54676 0.00991 0.0
Zn3 Zn 0.00989 0.50771 0.00959 0.0
O4 O 0.06015 0.55641 0.97237 0.0
Zn5 Zn 0.03642 0.52147 0.975 0.0
O6 O 1.00171 0.51906 0.96463 0.0
O7 O 0.97757 0.50539 1.0033 0.0
O8 O 0.03708 0.49917 0.94627 0.0
O9 O 0.00784 0.48042 0.97944 0.0
O10 O 0.01889 0.4981 0.04668 0.0
O11 O 0.04885 0.51218 0.01419 0.0
C12 C 0.98085 0.51256 0.97679 0.0
C13 C 0.04091 0.50386 0.0399 0.0
C14 C 0.50755 0.04527 0.54713 0.0
C15 C 0.51789 0.98536 0.48603 0.0
O16 O 0.50006 0.02422 0.55933 0.0
Zn17 Zn 0.49777 0.98944 0.54974 0.0
O18 O 0.51622 0.04869 0.5213 0.0
Zn19 Zn 0.51346 0.01621 0.51564 0.0
O20 O 0.47446 0.99159 0.51279 0.0
O21 O 0.46257 0.96616 0.55044 0.0
O22 O 0.52424 0.00755 0.47939 0.0
O23 O 0.5085 0.97711 0.5113 0.0
O24 O 0.51866 0.9881 0.58009 0.0
O25 O 0.53917 0.01735 0.54747 0.0
C26 C 0.45734 0.97328 0.52684 0.0
C27 C 0.53893 0.00604 0.57096 0.0
C28 C 0.50902 0.47763 0.9831 0.0
C29 C 0.51812 0.54704 0.04515 0.0
O30 O 0.501 0.49095 0.97153 0.0
Zn31 Zn 0.49711 0.52225 0.98191 0.0
O32 O 0.51742 0.48237 0.00909 0.0
Zn33 Zn 0.514 0.51182 0.01555 0.0
O34 O 0.47495 0.49641 0.01946 0.0
O35 O 0.46143 0.50856 0.98207 0.0
O36 O 0.52538 0.53183 0.05141 0.0
O37 O 0.50788 0.54528 0.02029 0.0
O38 O 0.51735 0.54473 0.95117 0.0
O39 O 0.53874 0.53655 0.98315 0.0
C40 C 0.4571 0.49654 0.00584 0.0
C41 C 0.53792 0.54742 0.95977 0.0
C42 C 0.03317 0.54541 0.4816 0.0
C43 C 0.97441 0.47183 0.53871 0.0
O44 O 0.04152 0.54355 0.50651 0.0
Zn45 Zn 0.02977 0.51838 0.54313 0.0
O46 O 0.01137 0.52916 0.47408 0.0
Zn47 Zn 1.00308 0.50834 0.50894 0.0
O48 O 1.00117 0.53105 0.54279 0.0
O49 O 0.03017 0.53874 0.5754 0.0
O50 O 0.97096 0.47787 0.51332 0.0
O51 O 0.99532 0.48523 0.55123 0.0
O52 O 0.05356 0.50681 0.54158 0.0
O53 O 0.02856 0.4954 0.50359 0.0
C54 C 0.01205 0.54106 0.56688 0.0
C55 C 0.04694 0.49614 0.51689 0.0
C56 C 0.52235 0.96587 0.99682 0.0
C57 C 0.47618 0.0041 0.95972 0.0
O58 O 0.5259 0.98466 0.01177 0.0
Zn59 Zn 0.51325 0.01061 0.01252 0.0
O60 O 0.50796 0.95908 0.9749 0.0
Zn61 Zn 0.49884 0.98448 0.97774 0.0
O62 O 0.53225 0.01847 0.96737 0.0
O63 O 0.5439 0.04208 0.00655 0.0
O64 O 0.47654 0.98543 0.9493 0.0
O65 O 0.48856 0.01453 0.98293 0.0
O66 O 0.49556 1.00207 0.05007 0.0
O67 O 0.47677 0.97316 0.01672 0.0
C68 C 0.5474 0.0389 0.97988 0.0
C69 C 0.47762 0.98107 0.04276 0.0
C70 C 0.54823 0.51116 0.54099 0.0
C71 C 0.47701 0.50042 0.48134 0.0
O72 O 0.53495 0.51895 0.55327 0.0
Zn73 Zn 0.50224 0.52114 0.54429 0.0
O74 O 0.54249 0.50203 0.5154 0.0
Zn75 Zn 0.51281 0.50499 0.51032 0.0
O76 O 0.52792 0.54428 0.50716 0.0
O77 O 0.51421 0.55622 0.54465 0.0
O78 O 0.49239 0.49347 0.47471 0.0
O79 O 0.47881 0.51043 0.50634 0.0
O80 O 0.48057 0.50066 0.57536 0.0
O81 O 0.48913 0.47978 0.54316 0.0
C82 C 0.52682 0.56143 0.52127 0.0
C83 C 0.47845 0.48033 0.56683 0.0
Cu84 Cu 0.23855 0.46344 0.2613 0.0
N85 N 0.23961 0.44328 0.23185 0.0
N86 N 0.25425 0.4326 0.19348 0.0
C87 C 0.2596 0.4488 0.21549 0.0
C88 C 0.22989 0.41625 0.1959 0.0
C89 C 0.2209 0.42284 0.21975 0.0
O90 O 0.27159 0.48104 0.2797 0.0
C91 C 0.20203 0.47088 0.23675 0.0
O92 O 0.18911 0.44765 0.2448 0.0
H93 H 0.27753 0.46504 0.2189 0.0
H94 H 0.20194 0.41383 0.22715 0.0
N95 N 0.21684 0.44503 0.29133 0.0
N96 N 0.19169 0.43672 0.32954 0.0
C97 C 0.20478 0.45307 0.30839 0.0
C98 C 0.21128 0.4228 0.30213 0.0
C99 C 0.19578 0.41765 0.32587 0.0
C100 C 0.28049 0.46727 0.28701 0.0
O101 O 0.26759 0.44359 0.281 0.0
H102 H 0.206 0.47085 0.30565 0.0
H103 H 0.21823 0.41132 0.29359 0.0
O104 O 0.22524 0.48278 0.24228 0.0
H105 H 0.21935 0.40088 0.1813 0.0
H106 H 0.18801 0.40116 0.33923 0.0
Cu107 Cu 0.78081 0.23893 0.7616 0.0
N108 N 0.77569 0.21343 0.7365 0.0
N109 N 0.75595 0.17757 0.71267 0.0
C110 C 0.75466 0.19158 0.73422 0.0
C111 C 0.77872 0.19112 0.701 0.0
C112 C 0.79095 0.21322 0.71593 0.0
O113 O 0.74964 0.22704 0.78305 0.0
C114 C 0.78904 0.27086 0.71219 0.0
O115 O 0.77262 0.25077 0.69867 0.0
H116 H 0.73834 0.18652 0.74722 0.0
H117 H 0.80934 0.22838 0.71155 0.0
N118 N 0.80603 0.24415 0.78736 0.0
N119 N 0.84097 0.26404 0.81299 0.0
C120 C 0.82682 0.26582 0.79196 0.0
C121 C 0.80708 0.22798 0.80587 0.0
C122 C 0.82861 0.24028 0.82191 0.0
C123 C 0.74839 0.22888 0.81067 0.0
O124 O 0.76873 0.24306 0.82531 0.0
H125 H 0.83106 0.28277 0.78082 0.0
H126 H 0.79293 0.20879 0.80798 0.0
O127 O 0.79308 0.2697 0.73929 0.0
H128 H 0.78582 0.18563 0.68268 0.0
H129 H 0.8346 0.23243 0.83892 0.0
Cu130 Cu 0.55889 0.78555 0.26644 0.0
N131 N 0.57716 0.80813 0.23716 0.0
N132 N 0.58374 0.83276 0.19871 0.0
C133 C 0.56844 0.82003 0.22096 0.0
C134 C 0.60303 0.8288 0.20125 0.0
C135 C 0.59884 0.81347 0.2249 0.0
O136 O 0.54119 0.79958 0.28761 0.0
C137 C 0.5529 0.74349 0.23918 0.0
O138 O 0.57666 0.75549 0.24497 0.0
H139 H 0.5508 0.81876 0.22512 0.0
H140 H 0.61023 0.80589 0.23177 0.0
N141 N 0.57869 0.78174 0.29423 0.0
N142 N 0.58768 0.76394 0.33085 0.0
C143 C 0.56966 0.76374 0.31445 0.0
C144 C 0.60336 0.79398 0.29799 0.0
C145 C 0.60899 0.78292 0.32055 0.0
C146 C 0.55573 0.81946 0.30137 0.0
O147 O 0.57962 0.82802 0.29933 0.0
H148 H 0.55022 0.75019 0.31633 0.0
H149 H 0.61635 0.8096 0.2851 0.0
O150 O 0.53992 0.7532 0.24681 0.0
H151 H 0.61848 0.83549 0.18631 0.0
H152 H 0.62727 0.78839 0.32868 0.0
Cu153 Cu 0.77829 0.54788 0.766 0.0
N154 N 0.80414 0.56752 0.74045 0.0
N155 N 0.83959 0.58309 0.71552 0.0
C156 C 0.82643 0.56916 0.73848 0.0
C157 C 0.82519 0.59091 0.70292 0.0
C158 C 0.80342 0.58141 0.71845 0.0
O159 O 0.78904 0.53036 0.79257 0.0
C160 C 0.74634 0.52271 0.71685 0.0
O161 O 0.76644 0.52641 0.7033 0.0
H162 H 0.83251 0.5595 0.75277 0.0
H163 H 0.78774 0.58364 0.71341 0.0
N164 N 0.77213 0.56865 0.78925 0.0
N165 N 0.75127 0.58364 0.81305 0.0
C166 C 0.75019 0.56751 0.79271 0.0
C167 C 0.7877 0.58618 0.80787 0.0
C168 C 0.77485 0.59543 0.82268 0.0
C169 C 0.7993 0.51801 0.78488 0.0
O170 O 0.79974 0.51309 0.75706 0.0
H171 H 0.73351 0.55431 0.7815 0.0
H172 H 0.80684 0.59133 0.81101 0.0
O173 O 0.74757 0.52815 0.74389 0.0
H174 H 0.82976 0.60217 0.68343 0.0
H175 H 0.78218 0.60944 0.83953 0.0
Cu176 Cu 0.23959 0.7787 0.26192 0.0
N177 N 0.21449 0.77292 0.23539 0.0
N178 N 0.18871 0.75517 0.19786 0.0
C179 C 0.20638 0.75522 0.21482 0.0
C180 C 0.1855 0.77357 0.20822 0.0
C181 C 0.20156 0.78462 0.23129 0.0
O182 O 0.2282 0.74731 0.28285 0.0
C183 C 0.2747 0.81104 0.22348 0.0
O184 O 0.25847 0.81854 0.22385 0.0
H185 H 0.21333 0.74255 0.21247 0.0
H186 H 0.20399 0.80041 0.24358 0.0
N187 N 0.2447 0.80232 0.29026 0.0
N188 N 0.26346 0.82783 0.32781 0.0
C189 C 0.26516 0.81354 0.30688 0.0
C190 C 0.22942 0.80974 0.30098 0.0
C191 C 0.241 0.82559 0.32405 0.0
C192 C 0.20812 0.73999 0.29713 0.0
O193 O 0.1974 0.75344 0.29647 0.0
H194 H 0.2808 0.81081 0.3039 0.0
H195 H 0.21076 0.80326 0.29359 0.0
O196 O 0.27058 0.79252 0.23935 0.0
H197 H 0.17294 0.77908 0.19929 0.0
H198 H 0.23303 0.83389 0.33777 0.0
Cu199 Cu 0.47202 0.2415 0.76932 0.0
N200 N 0.45294 0.24776 0.74301 0.0
N201 N 0.43735 0.26728 0.71747 0.0
C202 C 0.45106 0.26825 0.74074 0.0
C203 C 0.4299 0.2451 0.70498 0.0
C204 C 0.43942 0.23305 0.72089 0.0
O205 O 0.49026 0.27007 0.7952 0.0
C206 C 0.49716 0.23319 0.72141 0.0
O207 O 0.49458 0.25012 0.70745 0.0
H208 H 0.46036 0.28398 0.75512 0.0
H209 H 0.43737 0.21518 0.71611 0.0
N210 N 0.45056 0.21565 0.7934 0.0
N211 N 0.43437 0.18036 0.8185 0.0
C212 C 0.44965 0.19381 0.79661 0.0
C213 C 0.43523 0.216 0.81375 0.0
C214 C 0.42526 0.19424 0.8294 0.0
C215 C 0.5025 0.29265 0.78737 0.0
O216 O 0.50685 0.29799 0.75947 0.0
H217 H 0.46109 0.18853 0.78434 0.0
H218 H 0.43236 0.23144 0.81772 0.0
O219 O 0.49101 0.22905 0.74828 0.0
H220 H 0.41886 0.23828 0.68536 0.0
H221 H 0.41288 0.18933 0.84789 0.0
H222 H 0.09007 0.52013 0.03282 0.0
H223 H 0.11883 0.51854 0.06727 0.0
H224 H 0.0602 0.48254 0.13039 0.0
H225 H 0.03115 0.48463 0.09594 0.0
H226 H 0.10052 0.51523 0.1574 0.0
H227 H 0.0833 0.45067 0.0891 0.0
H228 H 0.07938 0.43197 0.04057 0.0
H229 H 0.15656 0.48119 0.02445 0.0
H230 H 0.16088 0.50041 0.07277 0.0
H231 H 0.15484 0.46033 0.24423 0.0
H232 H 0.1302 0.47091 0.2124 0.0
H233 H 0.19422 0.5147 0.1587 0.0
H234 H 0.21922 0.50422 0.191 0.0
H235 H 0.15328 0.48073 0.12674 0.0
H236 H 0.17007 0.54278 0.19844 0.0
H237 H 0.17266 0.55927 0.24803 0.0
H238 H 0.09448 0.5118 0.2591 0.0
H239 H 0.09146 0.49476 0.20971 0.0
C240 C 0.0831 0.51171 0.05394 0.0
C241 C 0.05808 0.50223 0.06136 0.0
C242 C 0.09968 0.51072 0.07369 0.0
C243 C 0.09177 0.49999 0.10142 0.0
C244 C 0.06686 0.49085 0.10915 0.0
C245 C 0.0502 0.49194 0.08936 0.0
C246 C 0.10954 0.49835 0.12211 0.0
C247 C 0.1118 0.50739 0.15074 0.0
C248 C 0.12486 0.4887 0.11346 0.0
C249 C 0.12235 0.47714 0.08443 0.0
C250 C 0.0994 0.45763 0.07512 0.0
C251 C 0.09711 0.44691 0.04767 0.0
C252 C 0.11769 0.45543 0.02941 0.0
C253 C 0.14063 0.47464 0.0386 0.0
C254 C 0.14301 0.48543 0.06603 0.0
C255 C 0.16387 0.47269 0.22602 0.0
C256 C 0.18904 0.48153 0.22023 0.0
C257 C 0.14971 0.47876 0.20781 0.0
C258 C 0.16025 0.49368 0.18309 0.0
C259 C 0.18564 0.50322 0.17768 0.0
C260 C 0.19999 0.49742 0.19627 0.0
C261 C 0.14416 0.49749 0.16199 0.0
C262 C 0.14214 0.48877 0.13329 0.0
C263 C 0.12885 0.5071 0.17073 0.0
C264 C 0.13058 0.51735 0.20043 0.0
C265 C 0.15345 0.53571 0.21153 0.0
C266 C 0.15499 0.54518 0.23959 0.0
C267 C 0.13376 0.53655 0.25673 0.0
C268 C 0.11092 0.51846 0.24581 0.0
C269 C 0.10928 0.50891 0.21776 0.0
H270 H 0.13498 0.54391 0.27845 0.0
H271 H 0.11588 0.44711 0.00816 0.0
H272 H 0.58584 0.03768 0.55284 0.0
H273 H 0.62297 0.05858 0.58266 0.0
H274 H 0.58151 0.01792 0.65839 0.0
H275 H 0.54395 0.99686 0.62851 0.0
H276 H 0.60795 0.06744 0.66856 0.0
H277 H 0.62518 0.0069 0.63088 0.0
H278 H 0.62915 0.98083 0.59337 0.0
H279 H 0.68554 0.04549 0.5501 0.0
H280 H 0.68168 0.072 0.58711 0.0
H281 H 0.72037 0.14078 0.74503 0.0
H282 H 0.68413 0.10335 0.72676 0.0
H283 H 0.70965 0.12548 0.63832 0.0
H284 H 0.74619 0.16229 0.65664 0.0
H285 H 0.68964 0.07773 0.64258 0.0
H286 H 0.66603 0.13759 0.67412 0.0
H287 H 0.66237 0.16442 0.7109 0.0
H288 H 0.61765 0.10124 0.76471 0.0
H289 H 0.62141 0.07408 0.72845 0.0
C290 C 0.58464 0.03281 0.57573 0.0
C291 C 0.56191 0.01564 0.58832 0.0
C292 C 0.60595 0.04471 0.59275 0.0
C293 C 0.60508 0.03971 0.62274 0.0
C294 C 0.5826 0.02198 0.63526 0.0
C295 C 0.5612 0.00988 0.61814 0.0
C296 C 0.62727 0.05469 0.64105 0.0
C297 C 0.62572 0.06924 0.66338 0.0
C298 C 0.65051 0.05732 0.63401 0.0
C299 C 0.65304 0.04145 0.61175 0.0
C300 C 0.63832 0.01558 0.61327 0.0
C301 C 0.64057 1.00072 0.5921 0.0
C302 C 0.65757 0.0115 0.56935 0.0
C303 C 0.67239 0.03717 0.56775 0.0
C304 C 0.67021 0.05212 0.58885 0.0
C305 C 0.71829 0.13743 0.72173 0.0
C306 C 0.73596 0.15448 0.70221 0.0
C307 C 0.69759 0.1161 0.71129 0.0
C308 C 0.69386 0.1118 0.68109 0.0
C309 C 0.71207 0.12833 0.6617 0.0
C310 C 0.73297 0.14939 0.67216 0.0
C311 C 0.67046 0.09111 0.6693 0.0
C312 C 0.67178 0.07551 0.6482 0.0
C313 C 0.64701 0.08762 0.67734 0.0
C314 C 0.64423 0.10386 0.69875 0.0
C315 C 0.65551 0.12945 0.69386 0.0
C316 C 0.65344 0.14471 0.71462 0.0
C317 C 0.63988 0.13455 0.74019 0.0
C318 C 0.62821 0.10909 0.74493 0.0
C319 C 0.63031 0.09375 0.7243 0.0
H320 H 0.63836 0.1464 0.75628 0.0
H321 H 0.65927 0.99996 0.55297 0.0
H322 H 0.49745 0.57642 0.04091 0.0
H323 H 0.49954 0.60699 0.07542 0.0
H324 H 0.54549 0.59208 0.13238 0.0
H325 H 0.5428 0.56063 0.09806 0.0
H326 H 0.51366 0.59771 0.16428 0.0
H327 H 0.56916 0.645 0.08765 0.0
H328 H 0.58249 0.65836 0.03696 0.0
H329 H 0.5273 0.67968 0.02818 0.0
H330 H 0.51341 0.66613 0.07872 0.0
H331 H 0.56826 0.71024 0.24403 0.0
H332 H 0.55779 0.67462 0.21312 0.0
H333 H 0.50519 0.68721 0.16641 0.0
H334 H 0.51568 0.72325 0.19776 0.0
H335 H 0.5378 0.68201 0.12964 0.0
H336 H 0.48534 0.63727 0.2099 0.0
H337 H 0.47533 0.62584 0.2617 0.0
H338 H 0.5285 0.60153 0.26485 0.0
H339 H 0.53916 0.6132 0.21318 0.0
C340 C 0.50813 0.57963 0.06069 0.0
C341 C 0.52017 0.56611 0.06646 0.0
C342 C 0.50937 0.59728 0.08048 0.0
C343 C 0.52306 0.60236 0.10644 0.0
C344 C 0.53486 0.58867 0.11252 0.0
C345 C 0.53342 0.57073 0.09278 0.0
C346 C 0.52502 0.62198 0.127 0.0
C347 C 0.51921 0.6162 0.1567 0.0
C348 C 0.53175 0.64611 0.11726 0.0
C349 C 0.54007 0.65431 0.08687 0.0
C350 C 0.55974 0.65236 0.07484 0.0
C351 C 0.56742 0.65999 0.04615 0.0
C352 C 0.55571 0.6698 0.02934 0.0
C353 C 0.53633 0.67204 0.04121 0.0
C354 C 0.52856 0.66441 0.06989 0.0
C355 C 0.55408 0.70518 0.22756 0.0
C356 C 0.54275 0.71956 0.22341 0.0
C357 C 0.54806 0.68471 0.2099 0.0
C358 C 0.53062 0.67805 0.18741 0.0
C359 C 0.51867 0.69192 0.18367 0.0
C360 C 0.52449 0.71237 0.20173 0.0
C361 C 0.52644 0.65772 0.16681 0.0
C362 C 0.53197 0.66342 0.13712 0.0
C363 C 0.51982 0.63368 0.17668 0.0
C364 C 0.51318 0.62628 0.20767 0.0
C365 C 0.49503 0.62964 0.22167 0.0
C366 C 0.48922 0.6231 0.25102 0.0
C367 C 0.50129 0.61299 0.26656 0.0
C368 C 0.51917 0.60936 0.25278 0.0
C369 C 0.52508 0.61591 0.22344 0.0
H370 H 0.49678 0.60795 0.28928 0.0
H371 H 0.56168 0.6757 0.00713 0.0
H372 H 0.97999 0.55627 0.55045 0.0
H373 H 0.95829 0.57074 0.58158 0.0
H374 H 0.99821 0.56732 0.65661 0.0
H375 H 0.02008 0.55252 0.62535 0.0
H376 H 0.94866 0.54417 0.66664 0.0
H377 H 0.00945 0.62292 0.63186 0.0
H378 H 0.03593 0.65417 0.5956 0.0
H379 H 0.97172 0.64728 0.55264 0.0
H380 H 0.94481 0.61571 0.58838 0.0
H381 H 0.8767 0.58347 0.74678 0.0
H382 H 0.91335 0.58377 0.72725 0.0
H383 H 0.89037 0.58813 0.6397 0.0
H384 H 0.85408 0.58822 0.65901 0.0
H385 H 0.93856 0.61624 0.64401 0.0
H386 H 0.87841 0.53237 0.67364 0.0
H387 H 0.85161 0.50105 0.70974 0.0
H388 H 0.91497 0.51767 0.76225 0.0
H389 H 0.94211 0.54942 0.72671 0.0
C390 C 0.98451 0.55894 0.57349 0.0
C391 C 1.00177 0.55321 0.58541 0.0
C392 C 0.97213 0.56735 0.59128 0.0
C393 C 0.97673 0.57031 0.62143 0.0
C394 C 0.99444 0.56525 0.63338 0.0
C395 C 0.00702 0.55694 0.61547 0.0
C396 C 0.96156 0.57693 0.64032 0.0
C397 C 0.94689 0.56026 0.66218 0.0
C398 C 0.95899 0.59774 0.63429 0.0
C399 C 0.9751 0.61683 0.61277 0.0
C400 C 1.00096 0.62794 0.61458 0.0
C401 C 0.01605 0.64573 0.59412 0.0
C402 C 1.00552 0.65268 0.57181 0.0
C403 C 0.97986 0.64188 0.56994 0.0
C404 C 0.96468 0.62406 0.59033 0.0
C405 C 0.87958 0.58467 0.72339 0.0
C406 C 0.86238 0.58569 0.70444 0.0
C407 C 0.90053 0.58485 0.71227 0.0
C408 C 0.90446 0.5856 0.68199 0.0
C409 C 0.88781 0.58759 0.66315 0.0
C410 C 0.86704 0.58768 0.67424 0.0
C411 C 0.92504 0.58301 0.66952 0.0
C412 C 0.94072 0.60044 0.64889 0.0
C413 C 0.9285 0.56287 0.67665 0.0
C414 C 0.91224 0.54343 0.69768 0.0
C415 C 0.8866 0.52942 0.69296 0.0
C416 C 0.87136 0.51162 0.71333 0.0
C417 C 0.88158 0.50743 0.73831 0.0
C418 C 0.90708 0.52097 0.74292 0.0
C419 C 0.9224 0.53888 0.72269 0.0
H420 H 0.86976 0.49361 0.75402 0.0
H421 H 0.01724 0.66646 0.55599 0.0
H422 H 0.48207 0.97674 0.10191 0.0
H423 H 0.45057 0.94632 0.13535 0.0
H424 H 0.39774 0.91911 0.06501 0.0
H425 H 0.42932 0.94834 0.03135 0.0
H426 H 0.38897 0.93667 0.13193 0.0
H427 H 0.40898 0.88455 0.07033 0.0
H428 H 0.43754 0.8719 0.05039 0.0
H429 H 0.45452 0.85895 0.13717 0.0
H430 H 0.42699 0.87279 0.15771 0.0
H431 H 0.27812 0.83521 0.17327 0.0
H432 H 0.31497 0.86297 0.14567 0.0
H433 H 0.35949 0.84746 0.20436 0.0
H434 H 0.32201 0.81871 0.23191 0.0
H435 H 0.37699 0.85299 0.14925 0.0
H436 H 0.35651 0.90063 0.21177 0.0
H437 H 0.32972 0.91412 0.23518 0.0
H438 H 0.31538 0.93574 0.15174 0.0
H439 H 0.34181 0.92204 0.12775 0.0
C440 C 0.46371 0.96425 0.09367 0.0
C441 C 0.4582 0.96486 0.06399 0.0
C442 C 0.44581 0.94681 0.11271 0.0
C443 C 0.42193 0.93011 0.10252 0.0
C444 C 0.41615 0.93149 0.07322 0.0
C445 C 0.43418 0.9483 0.05405 0.0
C446 C 0.4025 0.91188 0.12244 0.0
C447 C 0.38627 0.91833 0.13561 0.0
C448 C 0.3995 0.88823 0.12807 0.0
C449 C 0.41645 0.88045 0.11561 0.0
C450 C 0.41933 0.87974 0.08523 0.0
C451 C 0.43526 0.87221 0.07379 0.0
C452 C 0.448 0.8648 0.0925 0.0
C453 C 0.44474 0.8648 0.12269 0.0
C454 C 0.42911 0.87266 0.13424 0.0
C455 C 0.29569 0.83742 0.18021 0.0
C456 C 0.29713 0.82489 0.20499 0.0
C457 C 0.31684 0.85348 0.16444 0.0
C458 C 0.34025 0.858 0.17332 0.0
C459 C 0.34171 0.84452 0.19718 0.0
C460 C 0.32029 0.82803 0.21287 0.0
C461 C 0.36287 0.87748 0.15805 0.0
C462 C 0.37977 0.87138 0.14586 0.0
C463 C 0.36677 0.90165 0.1536 0.0
C464 C 0.35103 0.91015 0.16794 0.0
C465 C 0.34753 0.90812 0.19839 0.0
C466 C 0.33242 0.91582 0.21176 0.0
C467 C 0.32082 0.92575 0.19495 0.0
C468 C 0.32437 0.92805 0.16473 0.0
C469 C 0.33944 0.92035 0.15124 0.0
H470 H 0.30912 0.93169 0.20535 0.0
H471 H 0.46029 0.85894 0.08362 0.0
H472 H 0.46406 0.4332 0.55052 0.0
H473 H 0.44944 0.39704 0.58178 0.0
H474 H 0.45069 0.43999 0.65613 0.0
H475 H 0.46557 0.47659 0.62478 0.0
H476 H 0.4747 0.41442 0.66708 0.0
H477 H 0.39594 0.39517 0.63056 0.0
H478 H 0.36506 0.38979 0.59344 0.0
H479 H 0.37363 0.33297 0.5519 0.0
H480 H 0.40483 0.33824 0.58851 0.0
H481 H 0.4359 0.30365 0.74824 0.0
H482 H 0.4351 0.33961 0.72821 0.0
H483 H 0.43236 0.31239 0.64093 0.0
H484 H 0.43275 0.27642 0.66074 0.0
H485 H 0.40352 0.3317 0.64433 0.0
H486 H 0.48718 0.35641 0.67543 0.0
H487 H 0.51829 0.36143 0.71209 0.0
H488 H 0.50092 0.40832 0.76315 0.0
H489 H 0.46928 0.40311 0.72712 0.0
C490 C 0.46084 0.43493 0.57342 0.0
C491 C 0.46601 0.45781 0.58515 0.0
C492 C 0.45237 0.41417 0.59128 0.0
C493 C 0.44881 0.41574 0.62129 0.0
C494 C 0.45324 0.43836 0.63301 0.0
C495 C 0.46159 0.4592 0.61504 0.0
C496 C 0.44227 0.39409 0.64038 0.0
C497 C 0.45879 0.39643 0.6626 0.0
C498 C 0.42172 0.37056 0.63427 0.0
C499 C 0.40284 0.3672 0.61224 0.0
C500 C 0.39137 0.38164 0.6134 0.0
C501 C 0.37378 0.37859 0.59246 0.0
C502 C 0.36741 0.36107 0.57031 0.0
C503 C 0.37858 0.34653 0.56908 0.0
C504 C 0.39619 0.34951 0.58996 0.0
C505 C 0.43495 0.30528 0.7248 0.0
C506 C 0.43452 0.28723 0.70607 0.0
C507 C 0.43448 0.32582 0.71339 0.0
C508 C 0.43404 0.32891 0.68304 0.0
C509 C 0.43264 0.31042 0.66442 0.0
C510 C 0.43283 0.2898 0.67579 0.0
C511 C 0.43641 0.35188 0.67028 0.0
C512 C 0.41911 0.34979 0.64925 0.0
C513 C 0.45631 0.37562 0.6774 0.0
C514 C 0.47568 0.37915 0.69875 0.0
C515 C 0.48989 0.36766 0.69457 0.0
C516 C 0.50759 0.37052 0.71525 0.0
C517 C 0.5115 0.3851 0.74 0.0
C518 C 0.4978 0.39695 0.74403 0.0
C519 C 0.47996 0.39404 0.72351 0.0
H520 H 0.52521 0.38729 0.75597 0.0
H521 H 0.3538 0.35875 0.55411 0.0
H522 H 0.50733 0.93786 0.49525 0.0
H523 H 0.51029 0.90963 0.46103 0.0
H524 H 0.53515 0.96528 0.39374 0.0
H525 H 0.53273 0.99399 0.42828 0.0
H526 H 0.4889 0.88813 0.41227 0.0
H527 H 0.5744 0.95875 0.34777 0.0
H528 H 0.61144 0.99979 0.35439 0.0
H529 H 0.60964 0.98708 0.44676 0.0
H530 H 0.57279 0.94588 0.44062 0.0
H531 H 0.51314 0.82286 0.29676 0.0
H532 H 0.50324 0.85046 0.32485 0.0
H533 H 0.5693 0.87457 0.37616 0.0
H534 H 0.57945 0.84799 0.34792 0.0
H535 H 0.56788 0.91289 0.36129 0.0
H536 H 0.50775 0.83391 0.40168 0.0
H537 H 0.47244 0.79134 0.40012 0.0
H538 H 0.42645 0.81784 0.36446 0.0
H539 H 0.46159 0.86056 0.36548 0.0
C540 C 0.51355 0.94425 0.47322 0.0
C541 C 0.5201 0.96844 0.46474 0.0
C542 C 0.51504 0.92792 0.45352 0.0
C543 C 0.52314 0.93521 0.42471 0.0
C544 C 0.52923 0.95921 0.41593 0.0
C545 C 0.52785 0.97567 0.43574 0.0
C546 C 0.52598 0.91788 0.40451 0.0
C547 C 0.50615 0.89362 0.40098 0.0
C548 C 0.54845 0.92474 0.38982 0.0
C549 C 0.57068 0.9494 0.39375 0.0
C550 C 0.58195 0.96472 0.36947 0.0
C551 C 0.6029 0.988 0.37314 0.0
C552 C 0.61282 0.99607 0.40099 0.0
C553 C 0.60187 0.98085 0.42522 0.0
C554 C 0.58095 0.95755 0.42166 0.0
C555 C 0.5253 0.83384 0.31429 0.0
C556 C 0.54714 0.83328 0.31996 0.0
C557 C 0.51967 0.84967 0.33037 0.0
C558 C 0.53558 0.86487 0.35273 0.0
C559 C 0.55684 0.86346 0.35889 0.0
C560 C 0.56257 0.84806 0.34272 0.0
C561 C 0.53099 0.88287 0.36947 0.0
C562 C 0.55049 0.90739 0.37223 0.0
C563 C 0.50844 0.87601 0.38402 0.0
C564 C 0.48736 0.85036 0.3833 0.0
C565 C 0.49016 0.83062 0.39327 0.0
C566 C 0.47017 0.80648 0.39253 0.0
C567 C 0.44724 0.80188 0.3821 0.0
C568 C 0.44423 0.82142 0.37246 0.0
C569 C 0.46417 0.8456 0.37312 0.0
H570 H 0.43178 0.78317 0.38156 0.0
H571 H 0.62903 0.01411 0.40379 0.0
H572 H 0.58548 0.56661 0.97767 0.0
H573 H 0.62198 0.58027 0.94712 0.0
H574 H 0.57813 0.57011 0.87013 0.0
H575 H 0.54128 0.55633 0.90078 0.0
H576 H 0.60411 0.54551 0.86706 0.0
H577 H 0.62243 0.62744 0.88885 0.0
H578 H 0.62796 0.66192 0.92015 0.0
H579 H 0.6865 0.65953 0.96637 0.0
H580 H 0.6811 0.6248 0.93564 0.0
H581 H 0.71142 0.57767 0.78283 0.0
H582 H 0.67544 0.5786 0.80245 0.0
H583 H 0.70861 0.59468 0.88815 0.0
H584 H 0.74479 0.59441 0.86843 0.0
H585 H 0.68644 0.62018 0.88017 0.0
H586 H 0.6636 0.53473 0.86571 0.0
H587 H 0.65786 0.49885 0.83701 0.0
H588 H 0.60763 0.50653 0.77987 0.0
H589 H 0.61331 0.54265 0.80806 0.0
C590 C 0.58367 0.56783 0.95428 0.0
C591 C 0.56048 0.56033 0.94163 0.0
C592 C 0.6046 0.57575 0.93683 0.0
C593 C 0.60283 0.57629 0.90632 0.0
C594 C 0.57992 0.56989 0.89364 0.0
C595 C 0.55893 0.56219 0.91118 0.0
C596 C 0.62436 0.58102 0.88795 0.0
C597 C 0.62199 0.56212 0.86935 0.0
C598 C 0.64783 0.60239 0.89155 0.0
C599 C 0.65125 0.6234 0.91001 0.0
C600 C 0.63637 0.63415 0.90582 0.0
C601 C 0.6395 0.65376 0.92344 0.0
C602 C 0.65754 0.66289 0.94526 0.0
C603 C 0.67253 0.65245 0.94946 0.0
C604 C 0.66947 0.63282 0.93191 0.0
C605 C 0.71103 0.5815 0.80582 0.0
C606 C 0.73085 0.58581 0.82414 0.0
C607 C 0.69046 0.58201 0.81703 0.0
C608 C 0.68906 0.58628 0.84693 0.0
C609 C 0.70921 0.59137 0.86502 0.0
C610 C 0.72992 0.59122 0.85374 0.0
C611 C 0.66629 0.58442 0.85978 0.0
C612 C 0.66846 0.6038 0.8774 0.0
C613 C 0.64265 0.56335 0.8556 0.0
C614 C 0.6391 0.54155 0.83876 0.0
C615 C 0.65146 0.52886 0.8469 0.0
C616 C 0.6482 0.50847 0.83075 0.0
C617 C 0.63245 0.50046 0.80657 0.0
C618 C 0.61986 0.51278 0.79856 0.0
C619 C 0.62308 0.5332 0.81462 0.0
H620 H 0.62996 0.48468 0.79409 0.0
H621 H 0.65993 0.67807 0.95889 0.0
H622 H 0.03305 0.54516 0.42157 0.0
H623 H 0.06398 0.57659 0.38876 0.0
H624 H 0.10207 0.62224 0.46297 0.0
H625 H 0.07175 0.59071 0.49581 0.0
H626 H 0.09491 0.64783 0.41397 0.0
H627 H 0.12535 0.59278 0.43661 0.0
H628 H 0.12221 0.55203 0.44014 0.0
H629 H 0.11233 0.54284 0.34726 0.0
H630 H 0.11477 0.58339 0.34328 0.0
H631 H 0.20655 0.73805 0.35595 0.0
H632 H 0.17814 0.70297 0.38623 0.0
H633 H 0.15267 0.65664 0.30968 0.0
H634 H 0.18179 0.69183 0.27943 0.0
H635 H 0.15191 0.62985 0.35748 0.0
H636 H 0.1218 0.68465 0.33419 0.0
H637 H 0.1236 0.72485 0.33032 0.0
H638 H 0.13148 0.73376 0.42339 0.0
H639 H 0.13012 0.69376 0.42777 0.0
C640 C 0.04783 0.56204 0.43084 0.0
C641 C 0.0499 0.56546 0.4613 0.0
C642 C 0.06558 0.57991 0.41209 0.0
C643 C 0.08544 0.60173 0.42341 0.0
C644 C 0.08696 0.60556 0.45372 0.0
C645 C 0.06959 0.58752 0.47247 0.0
C646 C 0.10498 0.62043 0.40389 0.0
C647 C 0.10751 0.64396 0.40183 0.0
C648 C 0.12107 0.61523 0.38747 0.0
C649 C 0.1199 0.59099 0.3897 0.0
C650 C 0.12223 0.58197 0.41696 0.0
C651 C 0.12062 0.55891 0.41905 0.0
C652 C 0.11701 0.54479 0.39395 0.0
C653 C 0.11506 0.55377 0.3667 0.0
C654 C 0.11654 0.57679 0.36452 0.0
C655 C 0.1956 0.72012 0.34579 0.0
C656 C 0.19669 0.71751 0.31547 0.0
C657 C 0.17911 0.70012 0.36304 0.0
C658 C 0.16277 0.67719 0.35024 0.0
C659 C 0.16499 0.6741 0.32014 0.0
C660 C 0.18177 0.69414 0.30287 0.0
C661 C 0.14208 0.65746 0.36782 0.0
C662 C 0.13926 0.63372 0.36948 0.0
C663 C 0.12553 0.66237 0.38378 0.0
C664 C 0.12608 0.68631 0.38128 0.0
C665 C 0.12408 0.69525 0.35382 0.0
C666 C 0.125 0.718 0.35153 0.0
C667 C 0.1277 0.73188 0.37659 0.0
C668 C 0.12942 0.723 0.40399 0.0
C669 C 0.12855 0.70029 0.4064 0.0
H670 H 0.12842 0.74948 0.37477 0.0
H671 H 0.11579 0.52694 0.39563 0.0
H672 H 0.46554 0.03861 0.98034 0.0
H673 H 0.45054 0.06182 0.9527 0.0
H674 H 0.44415 0.01939 0.87562 0.0
H675 H 0.45925 0.99597 0.90324 0.0
H676 H 0.47068 0.0694 0.86591 0.0
H677 H 0.3927 0.01219 0.90757 0.0
H678 H 0.36362 0.98798 0.94687 0.0
H679 H 0.37805 0.05492 0.98986 0.0
H680 H 0.4075 0.07955 0.95104 0.0
H681 H 0.43205 0.14215 0.78834 0.0
H682 H 0.43099 0.10537 0.80871 0.0
H683 H 0.43063 0.13158 0.89584 0.0
H684 H 0.43062 0.16769 0.87543 0.0
H685 H 0.40263 0.08404 0.89517 0.0
H686 H 0.48518 0.14068 0.85963 0.0
H687 H 0.5154 0.16621 0.82186 0.0
H688 H 0.49382 0.10165 0.76942 0.0
H689 H 0.46328 0.07577 0.80678 0.0
C690 C 0.46055 0.03388 0.95763 0.0
C691 C 0.46366 0.01547 0.94397 0.0
C692 C 0.45186 0.04711 0.94188 0.0
C693 C 0.44611 0.04227 0.91213 0.0
C694 C 0.44843 0.02337 0.89859 0.0
C695 C 0.45694 0.00994 0.91444 0.0
C696 C 0.43974 0.05842 0.89487 0.0
C697 C 0.45544 0.0722 0.87186 0.0
C698 C 0.42024 0.06248 0.90309 0.0
C699 C 0.40243 0.04772 0.92644 0.0
C700 C 0.38981 0.02176 0.92551 0.0
C701 C 0.37324 0.00796 0.94769 0.0
C702 C 0.36902 0.01991 0.97087 0.0
C703 C 0.38134 0.04569 0.97189 0.0
C704 C 0.39794 0.05958 0.94977 0.0
C705 C 0.43147 0.13982 0.81181 0.0
C706 C 0.43155 0.15777 0.83033 0.0
C707 C 0.43095 0.11889 0.82346 0.0
C708 C 0.43128 0.11591 0.85387 0.0
C709 C 0.43038 0.1334 0.87233 0.0
C710 C 0.43038 0.15405 0.86067 0.0
C711 C 0.43393 0.09547 0.86666 0.0
C712 C 0.41759 0.08093 0.88886 0.0
C713 C 0.45305 0.09091 0.85796 0.0
C714 C 0.47179 0.10635 0.83583 0.0
C715 C 0.48683 0.13196 0.83999 0.0
C716 C 0.50401 0.14648 0.81866 0.0
C717 C 0.50647 0.13557 0.79321 0.0
C718 C 0.49186 0.11008 0.78912 0.0
C719 C 0.47464 0.09547 0.81037 0.0
H720 H 0.51974 0.14685 0.77669 0.0
H721 H 0.35619 0.00919 0.98802 0.0
H722 H 0.46103 0.47336 0.43026 0.0
H723 H 0.42975 0.471 0.39602 0.0
H724 H 0.41935 0.52179 0.44969 0.0
H725 H 0.44964 0.52334 0.48438 0.0
H726 H 0.37707 0.48916 0.43307 0.0
H727 H 0.45251 0.5381 0.38104 0.0
H728 H 0.49265 0.54869 0.35906 0.0
H729 H 0.45688 0.48502 0.30344 0.0
H730 H 0.41655 0.4739 0.32532 0.0
H731 H 0.30377 0.50682 0.32517 0.0
H732 H 0.33954 0.51668 0.35668 0.0
H733 H 0.34595 0.45761 0.31699 0.0
H734 H 0.3106 0.44778 0.28585 0.0
H735 H 0.39139 0.49795 0.32613 0.0
H736 H 0.31592 0.44907 0.38151 0.0
H737 H 0.2763 0.44071 0.40305 0.0
H738 H 0.31376 0.50807 0.45227 0.0
H739 H 0.35358 0.51698 0.4307 0.0
C740 C 0.45203 0.48398 0.43477 0.0
C741 C 0.4579 0.49848 0.46019 0.0
C742 C 0.43423 0.4828 0.41501 0.0
C743 C 0.42225 0.49654 0.4198 0.0
C744 C 0.42811 0.51093 0.44528 0.0
C745 C 0.44556 0.51182 0.46518 0.0
C746 C 0.40332 0.49566 0.39879 0.0
C747 C 0.3805 0.49152 0.40975 0.0
C748 C 0.40733 0.49846 0.36817 0.0
C749 C 0.43155 0.50505 0.35502 0.0
C750 C 0.45323 0.52626 0.36427 0.0
C751 C 0.47601 0.53238 0.3518 0.0
C752 C 0.47732 0.5175 0.32993 0.0
C753 C 0.45584 0.49651 0.32042 0.0
C754 C 0.43302 0.49031 0.33282 0.0
C755 C 0.31315 0.49631 0.32282 0.0
C756 C 0.30424 0.47644 0.30308 0.0
C757 C 0.33348 0.50181 0.34098 0.0
C758 C 0.34536 0.48769 0.33952 0.0
C759 C 0.3372 0.46877 0.31869 0.0
C760 C 0.31686 0.46313 0.3009 0.0
C761 C 0.36532 0.49138 0.3605 0.0
C762 C 0.38823 0.49592 0.34952 0.0
C763 C 0.36155 0.4893 0.39111 0.0
C764 C 0.33766 0.48382 0.40426 0.0
C765 C 0.31567 0.46218 0.39677 0.0
C766 C 0.29319 0.45733 0.40901 0.0
C767 C 0.2925 0.47388 0.42895 0.0
C768 C 0.31431 0.49528 0.43678 0.0
C769 C 0.33684 0.50024 0.42457 0.0
H770 H 0.27508 0.4701 0.4384 0.0
H771 H 0.49497 0.52227 0.3203 0.0
H772 H 0.98869 0.43308 0.97709 0.0
H773 H 0.96522 0.3953 0.9487 0.0
H774 H 1.00071 0.43493 0.86982 0.0
H775 H 0.02449 0.47294 0.89822 0.0
H776 H 0.94937 0.41035 0.86737 0.0
H777 H 0.01219 0.39147 0.89255 0.0
H778 H 0.04053 0.38631 0.92542 0.0
H779 H 0.97871 0.32974 0.97263 0.0
H780 H 0.94999 0.33481 0.94032 0.0
H781 H 0.87644 0.30327 0.78361 0.0
H782 H 0.91301 0.33885 0.80434 0.0
H783 H 0.89261 0.3058 0.88998 0.0
H784 H 0.85643 0.26993 0.86911 0.0
H785 H 0.94078 0.32803 0.88432 0.0
H786 H 0.87876 0.35059 0.86592 0.0
H787 H 0.84898 0.35595 0.83595 0.0
H788 H 0.90769 0.40588 0.77945 0.0
H789 H 0.93779 0.40056 0.80891 0.0
C790 C 0.99194 0.43366 0.95378 0.0
C791 C 0.00837 0.456 0.93986 0.0
C792 C 0.97857 0.41201 0.9376 0.0
C793 C 0.98125 0.4123 0.90716 0.0
C794 C 0.99844 0.43433 0.89332 0.0
C795 C 0.01209 0.45598 0.90958 0.0
C796 C 0.96414 0.39029 0.88978 0.0
C797 C 0.94787 0.39244 0.87051 0.0
C798 C 0.96171 0.36684 0.89467 0.0
C799 C 0.97893 0.36365 0.9141 0.0
C800 C 1.00463 0.37806 0.91008 0.0
C801 C 0.02077 0.37513 0.92859 0.0
C802 C 0.01143 0.35774 0.95113 0.0
C803 C 0.98592 0.34321 0.95517 0.0
C804 C 0.9697 0.34608 0.93673 0.0
C805 C 0.87988 0.30359 0.80682 0.0
C806 C 0.86349 0.28396 0.82481 0.0
C807 C 0.90075 0.3239 0.81866 0.0
C808 C 0.90533 0.32526 0.84884 0.0
C809 C 0.88949 0.30521 0.86665 0.0
C810 C 0.86881 0.28471 0.85473 0.0
C811 C 0.9258 0.34803 0.86214 0.0
C812 C 0.94258 0.34601 0.88074 0.0
C813 C 0.9285 0.37161 0.85703 0.0
C814 C 0.91047 0.37495 0.8394 0.0
C815 C 0.88528 0.36258 0.84698 0.0
C816 C 0.86836 0.36563 0.83011 0.0
C817 C 0.87643 0.38118 0.80575 0.0
C818 C 0.90146 0.39379 0.79828 0.0
C819 C 0.91846 0.39078 0.81507 0.0
H820 H 0.86329 0.38351 0.79271 0.0
H821 H 0.02395 0.3555 0.96544 0.0
H822 H 0.93771 0.51043 0.99549 0.0
H823 H 0.90532 0.51048 0.96519 0.0
H824 H 0.94565 0.51307 0.88751 0.0
H825 H 0.97829 0.51417 0.91752 0.0
H826 H 0.92938 0.54196 0.87894 0.0
H827 H 0.89064 0.45853 0.91446 0.0
H828 H 0.8758 0.42554 0.95156 0.0
H829 H 0.82888 0.4505 0.98825 0.0
H830 H 0.84368 0.48384 0.95156 0.0
H831 H 0.83447 0.50518 0.77348 0.0
H832 H 0.86316 0.50285 0.80792 0.0
H833 H 0.82813 0.51857 0.8792 0.0
H834 H 0.79943 0.52121 0.84481 0.0
H835 H 0.84042 0.48121 0.8924 0.0
H836 H 0.87878 0.56359 0.8533 0.0
H837 H 0.89316 0.59474 0.81404 0.0
H838 H 0.94098 0.56928 0.78165 0.0
H839 H 0.92643 0.53753 0.8203 0.0
C840 C 0.93964 0.51104 0.97195 0.0
C841 C 0.96071 0.51238 0.95904 0.0
C842 C 0.92099 0.5109 0.95455 0.0
C843 C 0.92267 0.51146 0.9238 0.0
C844 C 0.94374 0.51274 0.91105 0.0
C845 C 0.96248 0.51332 0.92835 0.0
C846 C 0.90292 0.51109 0.90466 0.0
C847 C 0.91 0.5284 0.8818 0.0
C848 C 0.87739 0.49384 0.90841 0.0
C849 C 0.86847 0.47384 0.93048 0.0
C850 C 0.8773 0.45709 0.93058 0.0
C851 C 0.86887 0.43831 0.95151 0.0
C852 C 0.85146 0.43597 0.9723 0.0
C853 C 0.84239 0.45237 0.97216 0.0
C854 C 0.85078 0.47119 0.95129 0.0
C855 C 0.83254 0.50776 0.79652 0.0
C856 C 0.81457 0.51342 0.8063 0.0
C857 C 0.84908 0.50653 0.8162 0.0
C858 C 0.84799 0.51074 0.84617 0.0
C859 C 0.82937 0.51527 0.85621 0.0
C860 C 0.81298 0.5168 0.83648 0.0
C861 C 0.86709 0.51174 0.86667 0.0
C862 C 0.85986 0.49467 0.88972 0.0
C863 C 0.89253 0.52895 0.86285 0.0
C864 C 0.90136 0.54805 0.83959 0.0
C865 C 0.89218 0.56446 0.83764 0.0
C866 C 0.90036 0.58222 0.8155 0.0
C867 C 0.91795 0.58396 0.79536 0.0
C868 C 0.92733 0.56788 0.79725 0.0
C869 C 0.91911 0.54999 0.81927 0.0
H870 H 0.92439 0.59786 0.77839 0.0
H871 H 0.84496 0.42142 0.98849 0.0
H872 H 0.41892 0.92773 0.54287 0.0
H873 H 0.38235 0.90085 0.51341 0.0
H874 H 0.4041 0.95896 0.4498 0.0
H875 H 0.44035 0.98586 0.4789 0.0
H876 H 0.34173 0.90444 0.48719 0.0
H877 H 0.40353 0.93246 0.384 0.0
H878 H 0.44721 0.94766 0.37143 0.0
H879 H 0.45559 0.91297 0.44809 0.0
H880 H 0.41187 0.8972 0.46085 0.0
H881 H 0.2693 0.86795 0.35758 0.0
H882 H 0.29947 0.89053 0.39599 0.0
H883 H 0.32805 0.84068 0.38816 0.0
H884 H 0.29793 0.81798 0.35001 0.0
H885 H 0.36477 0.88679 0.39008 0.0
H886 H 0.2923 0.83689 0.44612 0.0
H887 H 0.24872 0.819 0.46088 0.0
H888 H 0.26129 0.89131 0.48197 0.0
H889 H 0.30488 0.90968 0.46693 0.0
C890 C 0.41554 0.93499 0.52302 0.0
C891 C 0.43273 0.95882 0.51304 0.0
C892 C 0.39466 0.91962 0.50623 0.0
C893 C 0.39084 0.92785 0.47926 0.0
C894 C 0.40693 0.95221 0.47041 0.0
C895 C 0.42765 0.96755 0.48712 0.0
C896 C 0.37167 0.91053 0.45878 0.0
C897 C 0.34667 0.90051 0.46596 0.0
C898 C 0.37827 0.90496 0.43143 0.0
C899 C 0.40446 0.91385 0.42351 0.0
C900 C 0.41465 0.92796 0.39809 0.0
C901 C 0.43942 0.93669 0.39094 0.0
C902 C 0.45418 0.93135 0.409 0.0
C903 C 0.44417 0.91716 0.43418 0.0
C904 C 0.41939 0.90835 0.44139 0.0
C905 C 0.28183 0.86165 0.36421 0.0
C906 C 0.28118 0.84117 0.35057 0.0
C907 C 0.29908 0.87457 0.38619 0.0
C908 C 0.31591 0.86718 0.39513 0.0
C909 C 0.31531 0.84678 0.38157 0.0
C910 C 0.29811 0.83388 0.3596 0.0
C911 C 0.33461 0.88111 0.41804 0.0
C912 C 0.35966 0.89056 0.4113 0.0
C913 C 0.32799 0.88564 0.44601 0.0
C914 C 0.30181 0.87468 0.45515 0.0
C915 C 0.28572 0.849 0.45368 0.0
C916 C 0.26103 0.83877 0.46214 0.0
C917 C 0.25223 0.85402 0.47229 0.0
C918 C 0.26813 0.87952 0.47407 0.0
C919 C 0.29284 0.88986 0.46561 0.0
H920 H 0.2331 0.84606 0.47884 0.0
H921 H 0.47335 0.93814 0.40345 0.0
H922 H 0.51208 0.4369 1.001 0.0
H923 H 0.51215 0.40488 0.96998 0.0
H924 H 0.50871 0.44311 0.89319 0.0
H925 H 0.50738 0.47412 0.9239 0.0
H926 H 0.48009 0.39829 0.88402 0.0
H927 H 0.56367 0.44256 0.91915 0.0
H928 H 0.59683 0.46027 0.95604 0.0
H929 H 0.57199 0.38796 0.99138 0.0
H930 H 0.53848 0.36986 0.95488 0.0
H931 H 0.51581 0.34088 0.7765 0.0
H932 H 0.51886 0.37185 0.81148 0.0
H933 H 0.50346 0.32061 0.88217 0.0
H934 H 0.50018 0.28937 0.84727 0.0
H935 H 0.54088 0.36996 0.89567 0.0
H936 H 0.45842 0.32654 0.85627 0.0
H937 H 0.42777 0.31056 0.81646 0.0
H938 H 0.45341 0.38449 0.78628 0.0
H939 H 0.48474 0.4009 0.82541 0.0
C940 C 0.51132 0.4384 0.9775 0.0
C941 C 0.5096 0.45806 0.96503 0.0
C942 C 0.51154 0.42015 0.95968 0.0
C943 C 0.51072 0.42151 0.92896 0.0
C944 C 0.50919 0.4413 0.91668 0.0
C945 C 0.50848 0.45916 0.93439 0.0
C946 C 0.51103 0.40237 0.90934 0.0
C947 C 0.49366 0.39245 0.8865 0.0
C948 C 0.52831 0.39408 0.91254 0.0
C949 C 0.54841 0.4049 0.93451 0.0
C950 C 0.56517 0.43047 0.93493 0.0
C951 C 0.58405 0.44057 0.95574 0.0
C952 C 0.58647 0.42526 0.9761 0.0
C953 C 0.57006 0.3998 0.97563 0.0
C954 C 0.55113 0.38961 0.95488 0.0
C955 C 0.51348 0.33626 0.79952 0.0
C956 C 0.50769 0.31252 0.80899 0.0
C957 C 0.51513 0.35401 0.81951 0.0
C958 C 0.51117 0.34853 0.84948 0.0
C959 C 0.50658 0.32529 0.85919 0.0
C960 C 0.50466 0.30742 0.83916 0.0
C961 C 0.51032 0.36647 0.87035 0.0
C962 C 0.52743 0.37598 0.89338 0.0
C963 C 0.49311 0.37475 0.86703 0.0
C964 C 0.47408 0.36494 0.84366 0.0
C965 C 0.45769 0.33939 0.84099 0.0
C966 C 0.44021 0.33025 0.81852 0.0
C967 C 0.4387 0.3465 0.79881 0.0
C968 C 0.45466 0.37193 0.80152 0.0
C969 C 0.47231 0.38116 0.82382 0.0
H970 H 0.42507 0.33939 0.78153 0.0
H971 H 0.6011 0.43311 0.9922 0.0
H972 H 0.08099 0.4849 0.53988 0.0
H973 H 0.10537 0.47039 0.51304 0.0
H974 H 0.07076 0.47299 0.43255 0.0
H975 H 0.04588 0.48625 0.45914 0.0
H976 H 0.0735 0.43401 0.43162 0.0
H977 H 0.13116 0.51892 0.45393 0.0
H978 H 0.15438 0.55525 0.48573 0.0
H979 H 0.18698 0.51816 0.53048 0.0
H980 H 0.16371 0.48153 0.49908 0.0
H981 H 0.16299 0.45713 0.3221 0.0
H982 H 0.13806 0.4628 0.35925 0.0
H983 H 0.16174 0.42867 0.42363 0.0
H984 H 0.1865 0.42257 0.38623 0.0
H985 H 0.16497 0.4784 0.4382 0.0
H986 H 0.10886 0.39489 0.40599 0.0
H987 H 0.08698 0.36295 0.36846 0.0
H988 H 0.05258 0.40294 0.33613 0.0
H989 H 0.07455 0.43531 0.37321 0.0
C990 C 0.0785 0.48214 0.51651 0.0
C991 C 0.06139 0.48657 0.50171 0.0
C992 C 0.09253 0.47399 0.50114 0.0
C993 C 0.09008 0.47072 0.47064 0.0
C994 C 0.0729 0.47509 0.45604 0.0
C995 C 0.05865 0.48274 0.47135 0.0
C996 C 0.1054 0.4631 0.45344 0.0
C997 C 0.0935 0.4438 0.43313 0.0
C998 C 0.13152 0.47553 0.45552 0.0
C999 C 0.14547 0.49742 0.47447 0.0
C1000 C 0.14313 0.51848 0.47073 0.0
C1001 C 0.15632 0.53912 0.48863 0.0
C1002 C 0.17207 0.53897 0.5102 0.0
C1003 C 0.17472 0.51822 0.51382 0.0
C1004 C 0.16155 0.49752 0.49597 0.0
C1005 C 0.16288 0.45086 0.34418 0.0
C1006 C 0.17664 0.43942 0.35135 0.0
C1007 C 0.14862 0.45404 0.36531 0.0
C1008 C 0.14812 0.44615 0.39411 0.0
C1009 C 0.16195 0.43486 0.40149 0.0
C1010 C 0.1759 0.43125 0.38014 0.0
C1011 C 0.133 0.44982 0.41625 0.0
C1012 C 0.14494 0.46835 0.43731 0.0
C1013 C 0.10697 0.43721 0.41432 0.0
C1014 C 0.09348 0.4176 0.39226 0.0
C1015 C 0.09677 0.39696 0.39074 0.0
C1016 C 0.08433 0.37876 0.36958 0.0
C1017 C 0.06843 0.38094 0.34989 0.0
C1018 C 0.0649 0.40128 0.35139 0.0
C1019 C 0.07732 0.41954 0.3725 0.0
H1020 H 0.05882 0.36684 0.33351 0.0
H1021 H 0.18228 0.55497 0.52404 0.0
H1022 H 0.58844 0.08129 0.99951 0.0
H1023 H 0.62124 0.11404 0.97012 0.0
H1024 H 0.5847 0.07494 0.89137 0.0
H1025 H 0.55262 0.04182 0.92057 0.0
H1026 H 0.63048 0.09249 0.88338 0.0
H1027 H 0.58348 0.1284 0.91821 0.0
H1028 H 0.5631 0.14129 0.95465 0.0
H1029 H 0.63304 0.18835 0.9957 0.0
H1030 H 0.6538 0.1755 0.95971 0.0
H1031 H 0.7036 0.19324 0.78841 0.0
H1032 H 0.66767 0.16232 0.81571 0.0
H1033 H 0.70512 0.19457 0.89677 0.0
H1034 H 0.74071 0.22582 0.86973 0.0
H1035 H 0.65757 0.18061 0.90166 0.0
H1036 H 0.7036 0.14262 0.86484 0.0
H1037 H 0.72249 0.13068 0.82546 0.0
H1038 H 0.65154 0.08763 0.78489 0.0
H1039 H 0.63228 0.09976 0.82371 0.0
C1040 C 0.58745 0.07965 0.97594 0.0
C1041 C 0.56783 0.05887 0.96249 0.0
C1042 C 0.60616 0.09852 0.95906 0.0
C1043 C 0.60541 0.09737 0.92829 0.0
C1044 C 0.58591 0.07645 0.91495 0.0
C1045 C 0.56747 0.05746 0.93177 0.0
C1046 C 0.62485 0.11774 0.90994 0.0
C1047 C 0.63608 0.11171 0.88722 0.0
C1048 C 0.63255 0.143 0.91479 0.0
C1049 C 0.62015 0.1508 0.93644 0.0
C1050 C 0.59449 0.14137 0.93513 0.0
C1051 C 0.58287 0.14869 0.95568 0.0
C1052 C 0.59676 0.16558 0.97752 0.0
C1053 C 0.6223 0.17524 0.9788 0.0
C1054 C 0.634 0.16797 0.95831 0.0
C1055 C 0.70405 0.19402 0.81204 0.0
C1056 C 0.72521 0.21203 0.8268 0.0
C1057 C 0.68352 0.17616 0.82768 0.0
C1058 C 0.68378 0.17569 0.85842 0.0
C1059 C 0.70441 0.19437 0.87312 0.0
C1060 C 0.72484 0.21228 0.85755 0.0
C1061 C 0.66322 0.15531 0.87542 0.0
C1062 C 0.65182 0.16135 0.89784 0.0
C1063 C 0.65508 0.13005 0.87 0.0
C1064 C 0.66654 0.12226 0.84706 0.0
C1065 C 0.69205 0.13071 0.84744 0.0
C1066 C 0.70282 0.12394 0.82519 0.0
C1067 C 0.68823 0.1085 0.80262 0.0
C1068 C 0.66282 0.09969 0.80232 0.0
C1069 C 0.65196 0.10649 0.82444 0.0
H1070 H 0.6966 0.10328 0.78542 0.0
H1071 H 0.58773 0.17122 0.99341 0.0
H1072 H 0.56628 0.58329 0.48444 0.0
H1073 H 0.58021 0.6214 0.45635 0.0
H1074 H 0.52522 0.63294 0.49868 0.0
H1075 H 0.51163 0.59521 0.52752 0.0
H1076 H 0.52634 0.62922 0.43088 0.0
H1077 H 0.57543 0.67118 0.51646 0.0
H1078 H 0.60612 0.67842 0.55467 0.0
H1079 H 0.661 0.69381 0.48897 0.0
H1080 H 0.6305 0.68629 0.45034 0.0
H1081 H 0.54852 0.74009 0.36696 0.0
H1082 H 0.54135 0.70806 0.40245 0.0
H1083 H 0.61218 0.71583 0.3814 0.0
H1084 H 0.61952 0.74816 0.34586 0.0
H1085 H 0.60435 0.70955 0.43856 0.0
H1086 H 0.55971 0.66828 0.35361 0.0
H1087 H 0.53122 0.65819 0.31198 0.0
H1088 H 0.4707 0.63779 0.37109 0.0
H1089 H 0.4989 0.64811 0.41311 0.0
C1090 C 0.55756 0.59427 0.48826 0.0
C1091 C 0.53789 0.58633 0.50817 0.0
C1092 C 0.56553 0.61599 0.47222 0.0
C1093 C 0.55368 0.62985 0.47547 0.0
C1094 C 0.53461 0.62245 0.49602 0.0
C1095 C 0.52698 0.60101 0.51256 0.0
C1096 C 0.55971 0.65071 0.45552 0.0
C1097 C 0.54315 0.64697 0.43282 0.0
C1098 C 0.58225 0.67329 0.4573 0.0
C1099 C 0.6006 0.6779 0.48051 0.0
C1100 C 0.59396 0.67585 0.51015 0.0
C1101 C 0.61135 0.68007 0.53189 0.0
C1102 C 0.63548 0.6865 0.52425 0.0
C1103 C 0.64229 0.68879 0.49485 0.0
C1104 C 0.62497 0.68458 0.47303 0.0
C1105 C 0.56257 0.73497 0.36985 0.0
C1106 C 0.58446 0.74645 0.35336 0.0
C1107 C 0.55846 0.71666 0.39016 0.0
C1108 C 0.57602 0.70919 0.3942 0.0
C1109 C 0.59834 0.72125 0.37859 0.0
C1110 C 0.60254 0.73974 0.35834 0.0
C1111 C 0.57064 0.68835 0.41419 0.0
C1112 C 0.58739 0.69192 0.43668 0.0
C1113 C 0.54855 0.66527 0.41173 0.0
C1114 C 0.53149 0.65925 0.38653 0.0
C1115 C 0.54037 0.66188 0.35775 0.0
C1116 C 0.52427 0.65607 0.33407 0.0
C1117 C 0.49918 0.64742 0.33889 0.0
C1118 C 0.49015 0.64453 0.3674 0.0
C1119 C 0.50618 0.65035 0.39116 0.0
H1120 H 0.48674 0.6429 0.32053 0.0
H1121 H 0.64891 0.68977 0.54111 0.0
H1122 H 0.52221 0.09302 0.52976 0.0
H1123 H 0.52235 0.12601 0.55894 0.0
H1124 H 0.49251 0.07634 0.63229 0.0
H1125 H 0.49179 0.04337 0.60325 0.0
H1126 H 0.47013 0.10152 0.6292 0.0
H1127 H 0.55488 0.12265 0.62765 0.0
H1128 H 0.59468 0.13209 0.60569 0.0
H1129 H 0.59891 0.19468 0.56148 0.0
H1130 H 0.55894 0.18541 0.5829 0.0
H1131 H 0.49396 0.18983 0.73999 0.0
H1132 H 0.4981 0.15945 0.71051 0.0
H1133 H 0.51725 0.2072 0.63543 0.0
H1134 H 0.51316 0.23772 0.66474 0.0
H1135 H 0.54547 0.18378 0.63919 0.0
H1136 H 0.45933 0.16104 0.6426 0.0
H1137 H 0.42075 0.15153 0.66799 0.0
H1138 H 0.42081 0.0911 0.71254 0.0
H1139 H 0.45957 0.10046 0.68765 0.0
C1140 C 0.51557 0.0891 0.55205 0.0
C1141 C 0.507 0.06544 0.56404 0.0
C1142 C 0.51582 0.10806 0.56884 0.0
C1143 C 0.50773 0.1039 0.59811 0.0
C1144 C 0.49885 0.08018 0.60987 0.0
C1145 C 0.4985 0.06127 0.59313 0.0
C1146 C 0.5083 0.12401 0.61657 0.0
C1147 C 0.48675 0.11937 0.63156 0.0
C1148 C 0.5298 0.14757 0.61961 0.0
C1149 C 0.55378 0.15317 0.60661 0.0
C1150 C 0.56419 0.1383 0.61304 0.0
C1151 C 0.5868 0.14364 0.60074 0.0
C1152 C 0.59928 0.16393 0.58213 0.0
C1153 C 0.5892 0.17894 0.57585 0.0
C1154 C 0.56657 0.17367 0.58808 0.0
C1155 C 0.49945 0.19411 0.71734 0.0
C1156 C 0.50309 0.21626 0.70477 0.0
C1157 C 0.50169 0.17661 0.70043 0.0
C1158 C 0.50766 0.18083 0.67057 0.0
C1159 C 0.51256 0.20345 0.65836 0.0
C1160 C 0.51016 0.22089 0.67519 0.0
C1161 C 0.50738 0.16114 0.65174 0.0
C1162 C 0.52892 0.16589 0.6367 0.0
C1163 C 0.486 0.13754 0.64895 0.0
C1164 C 0.46243 0.13156 0.66344 0.0
C1165 C 0.45117 0.14579 0.65792 0.0
C1166 C 0.42927 0.14042 0.6722 0.0
C1167 C 0.41836 0.12075 0.69191 0.0
C1168 C 0.42929 0.10634 0.69728 0.0
C1169 C 0.4512 0.11165 0.68306 0.0
H1170 H 0.40143 0.11664 0.70298 0.0
H1171 H 0.61679 0.16804 0.57263 0.0
H1172 H 0.44507 0.47701 0.0604 0.0
H1173 H 0.40582 0.46057 0.08541 0.0
H1174 H 0.37304 0.47152 0.00802 0.0
H1175 H 0.41307 0.48919 0.98291 0.0
H1176 H 0.35931 0.48678 0.05261 0.0
H1177 H 0.35788 0.41191 0.03331 0.0
H1178 H 0.37337 0.38266 0.03008 0.0
H1179 H 0.38259 0.38537 0.12317 0.0
H1180 H 0.3675 0.41493 0.12696 0.0
H1181 H 0.2449 0.42436 0.13563 0.0
H1182 H 0.27476 0.42978 0.0972 0.0
H1183 H 0.33107 0.44886 0.16265 0.0
H1184 H 0.3015 0.44405 0.20089 0.0
H1185 H 0.32622 0.41265 0.11616 0.0
H1186 H 0.33354 0.49358 0.13136 0.0
H1187 H 0.31651 0.52163 0.13288 0.0
H1188 H 0.29321 0.50423 0.04358 0.0
H1189 H 0.3098 0.47576 0.0417 0.0
C1190 C 0.42951 0.47568 0.04841 0.0
C1191 C 0.43225 0.48436 0.01953 0.0
C1192 C 0.4069 0.46605 0.06277 0.0
C1193 C 0.38619 0.46424 0.0485 0.0
C1194 C 0.38869 0.47255 0.01947 0.0
C1195 C 0.41155 0.48258 1.0051 0.0
C1196 C 0.36263 0.45525 0.06493 0.0
C1197 C 0.35175 0.4702 0.06588 0.0
C1198 C 0.35264 0.43366 0.08247 0.0
C1199 C 0.36164 0.41575 0.08038 0.0
C1200 C 0.36335 0.4064 0.05308 0.0
C1201 C 0.37205 0.38974 0.05115 0.0
C1202 C 0.37899 0.38218 0.0764 0.0
C1203 C 0.3772 0.39123 0.10363 0.0
C1204 C 0.36853 0.40791 0.10569 0.0
C1205 C 0.26359 0.42942 0.14172 0.0
C1206 C 0.271 0.43384 0.17113 0.0
C1207 C 0.28059 0.43259 0.11983 0.0
C1208 C 0.30507 0.43972 0.12717 0.0
C1209 C 0.31223 0.4433 0.1566 0.0
C1210 C 0.29543 0.44067 0.17836 0.0
C1211 C 0.32369 0.44457 0.10428 0.0
C1212 C 0.33355 0.42884 0.10223 0.0
C1213 C 0.33244 0.46514 0.08538 0.0
C1214 C 0.32259 0.4823 0.08652 0.0
C1215 C 0.32455 0.49554 0.11215 0.0
C1216 C 0.31504 0.51156 0.11306 0.0
C1217 C 0.3037 0.51464 0.08838 0.0
C1218 C 0.30194 0.50177 0.06271 0.0
C1219 C 0.31139 0.4857 0.06171 0.0
H1220 H 0.29636 0.52706 0.08912 0.0
H1221 H 0.38573 0.36929 0.07485 0.0
H1222 H 0.92718 0.4381 0.5202 0.0
H1223 H 0.89431 0.40426 0.54849 0.0
H1224 H 0.94321 0.42402 0.62259 0.0
H1225 H 0.97606 0.45718 0.59442 0.0
H1226 H 0.91923 0.37673 0.61865 0.0
H1227 H 0.89568 0.43874 0.6172 0.0
H1228 H 0.88525 0.46833 0.59506 0.0
H1229 H 0.82407 0.40905 0.55004 0.0
H1230 H 0.83433 0.37912 0.57165 0.0
H1231 H 0.83177 0.31202 0.73002 0.0
H1232 H 0.86144 0.34648 0.69987 0.0
H1233 H 0.81379 0.31552 0.6251 0.0
H1234 H 0.784 0.28091 0.65508 0.0
H1235 H 0.83595 0.36748 0.62831 0.0
H1236 H 0.86058 0.30563 0.63243 0.0
H1237 H 0.8711 0.27734 0.65792 0.0
H1238 H 0.93113 0.33884 0.70159 0.0
H1239 H 0.92075 0.36748 0.67664 0.0
C1240 C 0.93096 0.43513 0.54246 0.0
C1241 C 0.95436 0.45046 0.55493 0.0
C1242 C 0.91206 0.41585 0.55874 0.0
C1243 C 0.91604 0.41163 0.58796 0.0
C1244 C 0.93952 0.42673 0.60018 0.0
C1245 C 0.95837 0.44581 0.58394 0.0
C1246 C 0.89601 0.39157 0.60598 0.0
C1247 C 0.90114 0.37498 0.62092 0.0
C1248 C 0.87215 0.3888 0.60884 0.0
C1249 C 0.86595 0.40673 0.59577 0.0
C1250 C 0.88012 0.43204 0.60238 0.0
C1251 C 0.87422 0.44887 0.58997 0.0
C1252 C 0.85405 0.44058 0.57108 0.0
C1253 C 0.83971 0.41544 0.56463 0.0
C1254 C 0.84555 0.39853 0.57697 0.0
C1255 C 0.82735 0.31269 0.70729 0.0
C1256 C 0.80547 0.29354 0.695 0.0
C1257 C 0.84444 0.33239 0.69001 0.0
C1258 C 0.84004 0.33349 0.66008 0.0
C1259 C 0.81766 0.31509 0.64809 0.0
C1260 C 0.80064 0.29526 0.66529 0.0
C1261 C 0.85936 0.35298 0.641 0.0
C1262 C 0.85407 0.36934 0.62587 0.0
C1263 C 0.88321 0.3558 0.63826 0.0
C1264 C 0.88976 0.33866 0.65286 0.0
C1265 C 0.87594 0.3131 0.6476 0.0
C1266 C 0.88188 0.29701 0.66193 0.0
C1267 C 0.90174 0.30628 0.68141 0.0
C1268 C 0.91575 0.33169 0.68651 0.0
C1269 C 0.90986 0.34786 0.67226 0.0
H1270 H 0.9063 0.29379 0.6925 0.0
H1271 H 0.8495 0.45364 0.5615 0.0
H1272 H 0.49709 0.91659 0.00714 0.0
H1273 H 0.51078 0.89361 0.03807 0.0
H1274 H 0.5834 0.95791 0.04375 0.0
H1275 H 0.56939 0.98135 0.01413 0.0
H1276 H 0.57329 0.90039 0.03541 0.0
H1277 H 0.56477 0.96061 0.09408 0.0
H1278 H 0.54358 0.98261 0.111 0.0
H1279 H 0.48119 0.914 0.13788 0.0
H1280 H 0.50168 0.89136 0.12004 0.0
H1281 H 0.61786 0.86945 0.16424 0.0
H1282 H 0.60999 0.89166 0.12552 0.0
H1283 H 0.53176 0.84844 0.14246 0.0
H1284 H 0.53935 0.82601 0.18068 0.0
H1285 H 0.54669 0.89689 0.1383 0.0
H1286 H 0.55691 0.83706 0.08313 0.0
H1287 H 0.57865 0.81534 0.06699 0.0
H1288 H 0.63886 0.88359 0.03509 0.0
H1289 H 0.61762 0.90578 0.05142 0.0
C1290 C 0.51618 0.92553 0.0142 0.0
C1291 C 0.5323 0.95061 0.00817 0.0
C1292 C 0.52392 0.91247 0.03196 0.0
C1293 C 0.54803 0.92417 0.04321 0.0
C1294 C 0.56474 0.94862 0.0352 0.0
C1295 C 0.55678 0.96192 0.01826 0.0
C1296 C 0.55478 0.91181 0.06592 0.0
C1297 C 0.5678 0.89984 0.058 0.0
C1298 C 0.54726 0.9109 0.09521 0.0
C1299 C 0.53451 0.92424 0.10506 0.0
C1300 C 0.54627 0.95011 0.1029 0.0
C1301 C 0.53443 0.96269 0.11275 0.0
C1302 C 0.51095 0.94963 0.12528 0.0
C1303 C 0.49924 0.92396 0.12786 0.0
C1304 C 0.51093 0.91126 0.11782 0.0
C1305 C 0.59897 0.8645 0.15956 0.0
C1306 C 0.57929 0.84597 0.1758 0.0
C1307 C 0.5945 0.87724 0.13742 0.0
C1308 C 0.57026 0.87162 0.131 0.0
C1309 C 0.55062 0.85317 0.14713 0.0
C1310 C 0.55505 0.84043 0.16916 0.0
C1311 C 0.56521 0.88524 0.10796 0.0
C1312 C 0.55235 0.89744 0.11579 0.0
C1313 C 0.57304 0.88643 0.07866 0.0
C1314 C 0.5858 0.87312 0.06878 0.0
C1315 C 0.57489 0.84747 0.0729 0.0
C1316 C 0.58709 0.83506 0.06367 0.0
C1317 C 0.61015 0.84809 0.0501 0.0
C1318 C 0.62102 0.87353 0.04565 0.0
C1319 C 0.6089 0.88603 0.05486 0.0
H1320 H 0.61957 0.83845 0.04297 0.0
H1321 H 0.50196 0.95941 0.13332 0.0
H1322 H 0.58084 0.49587 0.52354 0.0
H1323 H 0.61396 0.49593 0.55241 0.0
H1324 H 0.59552 0.52733 0.62533 0.0
H1325 H 0.56302 0.52786 0.59659 0.0
H1326 H 0.64296 0.54931 0.62139 0.0
H1327 H 0.57881 0.46464 0.62182 0.0
H1328 H 0.54812 0.42462 0.60067 0.0
H1329 H 0.60594 0.4194 0.5565 0.0
H1330 H 0.63697 0.45958 0.57711 0.0
H1331 H 0.70568 0.52543 0.73424 0.0
H1332 H 0.67157 0.52117 0.70384 0.0
H1333 H 0.70155 0.5024 0.62983 0.0
H1334 H 0.73585 0.50675 0.66005 0.0
H1335 H 0.64913 0.47371 0.63339 0.0
H1336 H 0.71317 0.55946 0.63546 0.0
H1337 H 0.74255 0.5983 0.66008 0.0
H1338 H 0.68243 0.59996 0.7033 0.0
H1339 H 0.6527 0.56092 0.67922 0.0
C1340 C 0.58393 0.5029 0.54567 0.0
C1341 C 0.56915 0.51185 0.55762 0.0
C1342 C 0.6028 0.50277 0.56229 0.0
C1343 C 0.60719 0.51136 0.59134 0.0
C1344 C 0.59266 0.52061 0.60306 0.0
C1345 C 0.57396 0.52085 0.5865 0.0
C1346 C 0.62688 0.51091 0.60968 0.0
C1347 C 0.64404 0.53264 0.62417 0.0
C1348 C 0.62876 0.48936 0.61324 0.0
C1349 C 0.61018 0.46525 0.60073 0.0
C1350 C 0.58496 0.45506 0.60739 0.0
C1351 C 0.56751 0.43233 0.59554 0.0
C1352 C 0.57507 0.41952 0.57717 0.0
C1353 C 0.60011 0.42938 0.57068 0.0
C1354 C 0.61764 0.45212 0.58246 0.0
C1355 C 0.70486 0.51997 0.71164 0.0
C1356 C 0.72367 0.51654 0.69963 0.0
C1357 C 0.68535 0.51766 0.69421 0.0
C1358 C 0.68408 0.51175 0.66439 0.0
C1359 C 0.7021 0.50703 0.65272 0.0
C1360 C 0.72176 0.50956 0.67007 0.0
C1361 C 0.6649 0.51199 0.64508 0.0
C1362 C 0.64796 0.49031 0.63044 0.0
C1363 C 0.66295 0.53347 0.64168 0.0
C1364 C 0.68074 0.55718 0.65572 0.0
C1365 C 0.70623 0.56804 0.65034 0.0
C1366 C 0.72294 0.5901 0.66418 0.0
C1367 C 0.71436 0.60157 0.68329 0.0
C1368 C 0.68904 0.59105 0.68851 0.0
C1369 C 0.67226 0.56897 0.67475 0.0
H1370 H 0.72733 0.61863 0.69401 0.0
H1371 H 0.56153 0.40191 0.56803 0.0
H1372 H 0.10277 0.59436 0.99021 0.0
H1373 H 0.12775 0.63147 0.01966 0.0
H1374 H 0.06141 0.62508 0.05682 0.0
H1375 H 0.03639 0.5877 0.02802 0.0
H1376 H 0.10122 0.67576 0.04382 0.0
H1377 H 0.08484 0.60025 0.09266 0.0
H1378 H 0.08491 0.561 0.09765 0.0
H1379 H 0.16388 0.59967 0.08896 0.0
H1380 H 0.16424 0.6391 0.08325 0.0
H1381 H 0.14185 0.73887 0.17949 0.0
H1382 H 0.12032 0.70994 0.13959 0.0
H1383 H 0.18608 0.7062 0.12107 0.0
H1384 H 0.20746 0.73477 0.16118 0.0
H1385 H 0.14819 0.6619 0.1217 0.0
H1386 H 0.16577 0.73768 0.07597 0.0
H1387 H 0.16659 0.77734 0.07093 0.0
H1388 H 0.0873 0.73945 0.07292 0.0
H1389 H 0.08601 0.69956 0.07838 0.0
C1390 C 0.09351 0.60131 1.00399 0.0
C1391 C 0.06768 0.58815 0.00695 0.0
C1392 C 0.10779 0.6224 0.02089 0.0
C1393 C 0.09637 0.63081 0.04055 0.0
C1394 C 0.07052 0.61885 0.04176 0.0
C1395 C 0.05628 0.59751 0.02534 0.0
C1396 C 0.11122 0.65027 0.06212 0.0
C1397 C 0.11143 0.67278 0.06097 0.0
C1398 C 0.12481 0.64639 0.08411 0.0
C1399 C 0.12453 0.6226 0.08712 0.0
C1400 C 0.10219 0.60036 0.0914 0.0
C1401 C 0.10216 0.57808 0.09444 0.0
C1402 C 0.12439 0.57786 0.09359 0.0
C1403 C 0.14668 0.59988 0.08957 0.0
C1404 C 0.1468 0.62219 0.0864 0.0
C1405 C 0.15176 0.73209 0.16668 0.0
C1406 C 0.17631 0.73902 0.17356 0.0
C1407 C 0.13948 0.71559 0.14382 0.0
C1408 C 0.15164 0.70604 0.12707 0.0
C1409 C 0.17626 0.71323 0.1337 0.0
C1410 C 0.18845 0.72951 0.1567 0.0
C1411 C 0.13842 0.68769 0.10353 0.0
C1412 C 0.13833 0.66519 0.10439 0.0
C1413 C 0.12511 0.6917 0.08119 0.0
C1414 C 0.1258 0.71564 0.07785 0.0
C1415 C 0.14851 0.73781 0.07555 0.0
C1416 C 0.14906 0.76034 0.07258 0.0
C1417 C 0.12702 0.76092 0.07167 0.0
C1418 C 0.10437 0.73897 0.07366 0.0
C1419 C 0.10371 0.7164 0.07666 0.0
H1420 H 0.12748 0.77838 0.06937 0.0
H1421 H 0.12438 0.56066 0.09622 0.0
loop_
_geom_bond_atom_site_label_1
_geom_bond_atom_site_label_2
_geom_bond_distance
_geom_bond_site_symmetry_2
_ccdc_geom_bond_type
C0 O2 1.247 . S
C0 O4 1.258 . S
C1 O8 1.247 1_655 S
C1 O9 1.261 . S
O2 C0 1.247 . S
O2 Zn3 2.028 1_455 S
Zn3 O2 2.028 1_655 S
Zn3 O7 2.033 1_554 S
Zn3 O9 2.033 1_554 S
Zn3 O10 2.028 1_655 S
O4 C0 1.258 . S
O4 Zn5 2.035 1_554 S
Zn5 O4 2.035 1_556 S
Zn5 O6 2.028 . S
Zn5 O8 2.028 . S
Zn5 O11 2.035 1_556 S
O6 Zn5 2.028 . S
O6 C12 1.247 1_455 S
O7 Zn3 2.033 1_556 S
O7 C12 1.261 . S
O8 C1 1.247 1_455 S
O8 Zn5 2.028 . S
O9 C1 1.261 . S
O9 Zn3 2.033 1_556 S
O10 Zn3 2.028 1_455 S
O10 C13 1.247 . S
O11 Zn5 2.035 1_554 S
O11 C13 1.258 . S
C12 O6 1.247 1_655 S
C12 O7 1.261 . S
C13 O10 1.247 . S
C13 O11 1.258 . S
C14 O16 1.247 . S
C14 O18 1.258 . S
C15 O22 1.247 1_565 S
C15 O23 1.258 . S
O16 C14 1.247 . S
O16 Zn17 2.028 1_545 S
Zn17 O16 2.028 1_565 S
Zn17 O21 2.035 . S
Zn17 O23 2.035 . S
Zn17 O24 2.028 1_565 S
O18 C14 1.258 . S
O18 Zn19 2.035 . S
Zn19 O18 2.035 . S
Zn19 O20 2.028 . S
Zn19 O22 2.028 . S
Zn19 O25 2.035 . S
O20 Zn19 2.028 . S
O20 C26 1.247 1_545 S
O21 Zn17 2.035 . S
O21 C26 1.258 . S
O22 C15 1.247 1_545 S
O22 Zn19 2.028 . S
O23 C15 1.258 . S
O23 Zn17 2.035 . S
O24 Zn17 2.028 1_545 S
O24 C27 1.247 . S
O25 Zn19 2.035 . S
O25 C27 1.258 . S
C26 O20 1.247 1_565 S
C26 O21 1.258 . S
C27 O24 1.247 . S
C27 O25 1.258 . S
C28 O30 1.247 . S
C28 O32 1.261 . S
C29 O36 1.247 . S
C29 O37 1.258 . S
O30 C28 1.247 . S
O30 Zn31 2.028 . S
Zn31 O30 2.028 . S
Zn31 O35 2.035 1_556 S
Zn31 O37 2.035 1_556 S
Zn31 O38 2.028 . S
O32 C28 1.261 . S
O32 Zn33 2.033 1_556 S
Zn33 O32 2.033 1_554 S
Zn33 O34 2.028 . S
Zn33 O36 2.028 . S
Zn33 O39 2.033 1_554 S
O34 Zn33 2.028 . S
O34 C40 1.247 . S
O35 Zn31 2.035 1_554 S
O35 C40 1.258 . S
O36 C29 1.247 . S
O36 Zn33 2.028 . S
O37 C29 1.258 . S
O37 Zn31 2.035 1_554 S
O38 Zn31 2.028 . S
O38 C41 1.247 . S
O39 Zn33 2.033 1_556 S
O39 C41 1.261 . S
C40 O34 1.247 . S
C40 O35 1.258 . S
C41 O38 1.247 . S
C41 O39 1.261 . S
C42 O44 1.247 . S
C42 O46 1.258 . S
C43 O50 1.247 . S
C43 O51 1.278 . S
O44 C42 1.247 . S
O44 Zn45 2.028 . S
Zn45 O44 2.028 . S
Zn45 O49 2.008 1_455 S
Zn45 O51 2.030 1_455 S
Zn45 O52 2.028 . S
O46 C42 1.258 . S
O46 Zn47 2.035 1_455 S
Zn47 O46 2.035 1_655 S
Zn47 O48 2.028 . S
Zn47 O50 2.028 . S
Zn47 O53 2.035 1_655 S
O48 Zn47 2.028 . S
O48 C54 1.247 . S
O49 Zn45 2.008 1_655 S
O49 C54 1.287 . S
O50 C43 1.247 . S
O50 Zn47 2.028 . S
O51 C43 1.278 . S
O51 Zn45 2.030 1_655 S
O52 Zn45 2.028 . S
O52 C55 1.247 . S
O53 Zn47 2.035 1_455 S
O53 C55 1.258 . S
C54 O48 1.247 . S
C54 O49 1.287 . S
C55 O52 1.247 . S
C55 O53 1.258 . S
C56 O58 1.273 . S
C56 O60 1.258 . S
C57 O64 1.247 . S
C57 O65 1.262 . S
O58 C56 1.273 . S
O58 Zn59 2.003 1_565 S
Zn59 O58 2.003 1_545 S
Zn59 O63 2.033 1_554 S
Zn59 O65 2.033 1_554 S
Zn59 O66 2.023 1_545 S
O60 C56 1.258 . S
O60 Zn61 2.035 1_554 S
Zn61 O60 2.035 1_556 S
Zn61 O62 2.028 1_565 S
Zn61 O64 2.028 1_565 S
Zn61 O67 2.035 1_556 S
O62 Zn61 2.028 1_545 S
O62 C68 1.247 . S
O63 Zn59 2.033 1_556 S
O63 C68 1.262 . S
O64 C57 1.247 . S
O64 Zn61 2.028 1_545 S
O65 C57 1.262 . S
O65 Zn59 2.033 1_556 S
O66 Zn59 2.023 1_565 S
O66 C69 1.265 . S
O67 Zn61 2.035 1_554 S
O67 C69 1.258 . S
C68 O62 1.247 . S
C68 O63 1.262 . S
C69 O66 1.265 . S
C69 O67 1.258 . S
C70 O72 1.247 . S
C70 O74 1.258 . S
C71 O78 1.247 . S
C71 O79 1.258 . S
O72 C70 1.247 . S
O72 Zn73 2.028 . S
Zn73 O72 2.028 . S
Zn73 O77 2.035 . S
Zn73 O79 2.035 . S
Zn73 O80 2.028 . S
O74 C70 1.258 . S
O74 Zn75 2.035 . S
Zn75 O74 2.035 . S
Zn75 O76 2.028 . S
Zn75 O78 2.028 . S
Zn75 O81 2.035 . S
O76 Zn75 2.028 . S
O76 C82 1.247 . S
O77 Zn73 2.035 . S
O77 C82 1.258 . S
O78 C71 1.247 . S
O78 Zn75 2.028 . S
O79 C71 1.258 . S
O79 Zn73 2.035 . S
O80 Zn73 2.028 . S
O80 C83 1.247 . S
O81 Zn75 2.035 . S
O81 C83 1.258 . S
C82 O76 1.247 . S
C82 O77 1.258 . S
C83 O80 1.247 . S
C83 O81 1.258 . S
Cu84 N85 1.999 . S
Cu84 O90 1.974 . S
Cu84 N95 1.985 . S
Cu84 O104 1.959 . S
N85 Cu84 1.999 . S
N85 C87 1.263 . S
N85 C89 1.389 . S
N86 C87 1.358 . S
N86 C88 1.400 . S
C87 N85 1.263 . S
C87 N86 1.358 . S
C87 H93 0.930 . S
C88 N86 1.400 . S
C88 C89 1.351 . S
C88 H105 0.930 . S
C89 N85 1.389 . S
C89 C88 1.351 . S
C89 H94 0.930 . S
O90 Cu84 1.974 . S
O90 C100 1.282 . S
C91 O92 1.261 . S
C91 O104 1.251 . S
O92 C91 1.261 . S
H93 C87 0.930 . S
H94 C89 0.930 . S
N95 Cu84 1.985 . S
N95 C97 1.335 . S
N95 C98 1.390 . S
N96 C97 1.345 . S
N96 C99 1.336 . S
C97 N95 1.335 . S
C97 N96 1.345 . S
C97 H102 0.930 . S
C98 N95 1.390 . S
C98 C99 1.346 . S
C98 H103 0.930 . S
C99 N96 1.336 . S
C99 C98 1.346 . S
C99 H106 0.929 . S
C100 O90 1.282 . S
C100 O101 1.216 . S
O101 C100 1.216 . S
H102 C97 0.930 . S
H103 C98 0.930 . S
O104 Cu84 1.959 . S
O104 C91 1.251 . S
H105 C88 0.930 . S
H106 C99 0.929 . S
Cu107 N108 1.999 . S
Cu107 O113 1.974 . S
Cu107 N118 1.985 . S
Cu107 O127 1.959 . S
N108 Cu107 1.999 . S
N108 C110 1.263 . S
N108 C112 1.389 . S
N109 C110 1.358 . S
N109 C111 1.400 . S
C110 N108 1.263 . S
C110 N109 1.358 . S
C110 H116 0.930 . S
C111 N109 1.400 . S
C111 C112 1.351 . S
C111 H128 0.930 . S
C112 N108 1.389 . S
C112 C111 1.351 . S
C112 H117 0.930 . S
O113 Cu107 1.974 . S
O113 C123 1.282 . S
C114 O115 1.261 . S
C114 O127 1.251 . S
O115 C114 1.261 . S
H116 C110 0.930 . S
H117 C112 0.930 . S
N118 Cu107 1.985 . S
N118 C120 1.335 . S
N118 C121 1.390 . S
N119 C120 1.345 . S
N119 C122 1.336 . S
C120 N118 1.335 . S
C120 N119 1.345 . S
C120 H125 0.930 . S
C121 N118 1.390 . S
C121 C122 1.346 . S
C121 H126 0.930 . S
C122 N119 1.336 . S
C122 C121 1.346 . S
C122 H129 0.929 . S
C123 O113 1.282 . S
C123 O124 1.216 . S
O124 C123 1.216 . S
H125 C120 0.930 . S
H126 C121 0.930 . S
O127 Cu107 1.959 . S
O127 C114 1.251 . S
H128 C111 0.930 . S
H129 C122 0.929 . S
Cu130 N131 1.999 . S
Cu130 O136 1.974 . S
Cu130 N141 1.985 . S
Cu130 O150 1.959 . S
N131 Cu130 1.999 . S
N131 C133 1.263 . S
N131 C135 1.389 . S
N132 C133 1.358 . S
N132 C134 1.400 . S
C133 N131 1.263 . S
C133 N132 1.358 . S
C133 H139 0.930 . S
C134 N132 1.400 . S
C134 C135 1.351 . S
C134 H151 0.930 . S
C135 N131 1.389 . S
C135 C134 1.351 . S
C135 H140 0.930 . S
O136 Cu130 1.974 . S
O136 C146 1.282 . S
C137 O138 1.261 . S
C137 O150 1.251 . S
O138 C137 1.261 . S
H139 C133 0.930 . S
H140 C135 0.930 . S
N141 Cu130 1.985 . S
N141 C143 1.335 . S
N141 C144 1.390 . S
N142 C143 1.345 . S
N142 C145 1.336 . S
C143 N141 1.335 . S
C143 N142 1.345 . S
C143 H148 0.930 . S
C144 N141 1.390 . S
C144 C145 1.346 . S
C144 H149 0.930 . S
C145 N142 1.336 . S
C145 C144 1.346 . S
C145 H152 0.929 . S
C146 O136 1.282 . S
C146 O147 1.216 . S
O147 C146 1.216 . S
H148 C143 0.930 . S
H149 C144 0.930 . S
O150 Cu130 1.959 . S
O150 C137 1.251 . S
H151 C134 0.930 . S
H152 C145 0.929 . S
Cu153 N154 1.999 . S
Cu153 O159 1.974 . S
Cu153 N164 1.985 . S
Cu153 O173 1.959 . S
N154 Cu153 1.999 . S
N154 C156 1.263 . S
N154 C158 1.389 . S
N155 C156 1.358 . S
N155 C157 1.400 . S
C156 N154 1.263 . S
C156 N155 1.358 . S
C156 H162 0.930 . S
C157 N155 1.400 . S
C157 C158 1.351 . S
C157 H174 0.930 . S
C158 N154 1.389 . S
C158 C157 1.351 . S
C158 H163 0.930 . S
O159 Cu153 1.974 . S
O159 C169 1.282 . S
C160 O161 1.261 . S
C160 O173 1.251 . S
O161 C160 1.261 . S
H162 C156 0.930 . S
H163 C158 0.930 . S
N164 Cu153 1.985 . S
N164 C166 1.335 . S
N164 C167 1.390 . S
N165 C166 1.345 . S
N165 C168 1.336 . S
C166 N164 1.335 . S
C166 N165 1.345 . S
C166 H171 0.930 . S
C167 N164 1.390 . S
C167 C168 1.346 . S
C167 H172 0.930 . S
C168 N165 1.336 . S
C168 C167 1.346 . S
C168 H175 0.929 . S
C169 O159 1.282 . S
C169 O170 1.216 . S
O170 C169 1.216 . S
H171 C166 0.930 . S
H172 C167 0.930 . S
O173 Cu153 1.959 . S
O173 C160 1.251 . S
H174 C157 0.930 . S
H175 C168 0.929 . S
Cu176 N177 1.999 . S
Cu176 O182 1.974 . S
Cu176 N187 1.985 . S
Cu176 O196 1.959 . S
N177 Cu176 1.999 . S
N177 C179 1.263 . S
N177 C181 1.389 . S
N178 C179 1.358 . S
N178 C180 1.400 . S
C179 N177 1.263 . S
C179 N178 1.358 . S
C179 H185 0.930 . S
C180 N178 1.400 . S
C180 C181 1.351 . S
C180 H197 0.930 . S
C181 N177 1.389 . S
C181 C180 1.351 . S
C181 H186 0.930 . S
O182 Cu176 1.974 . S
O182 C192 1.282 . S
C183 O184 1.261 . S
C183 O196 1.251 . S
O184 C183 1.261 . S
H185 C179 0.930 . S
H186 C181 0.930 . S
N187 Cu176 1.985 . S
N187 C189 1.335 . S
N187 C190 1.390 . S
N188 C189 1.345 . S
N188 C191 1.336 . S
C189 N187 1.335 . S
C189 N188 1.345 . S
C189 H194 0.930 . S
C190 N187 1.390 . S
C190 C191 1.346 . S
C190 H195 0.930 . S
C191 N188 1.336 . S
C191 C190 1.346 . S
C191 H198 0.929 . S
C192 O182 1.282 . S
C192 O193 1.216 . S
O193 C192 1.216 . S
H194 C189 0.930 . S
H195 C190 0.930 . S
O196 Cu176 1.959 . S
O196 C183 1.251 . S
H197 C180 0.930 . S
H198 C191 0.929 . S
Cu199 N200 1.999 . S
Cu199 O205 1.974 . S
Cu199 N210 1.985 . S
Cu199 O219 1.959 . S
N200 Cu199 1.999 . S
N200 C202 1.263 . S
N200 C204 1.389 . S
N201 C202 1.358 . S
N201 C203 1.400 . S
C202 N200 1.263 . S
C202 N201 1.358 . S
C202 H208 0.930 . S
C203 N201 1.400 . S
C203 C204 1.351 . S
C203 H220 0.930 . S
C204 N200 1.389 . S
C204 C203 1.351 . S
C204 H209 0.930 . S
O205 Cu199 1.974 . S
O205 C215 1.282 . S
C206 O207 1.261 . S
C206 O219 1.251 . S
O207 C206 1.261 . S
H208 C202 0.930 . S
H209 C204 0.930 . S
N210 Cu199 1.985 . S
N210 C212 1.335 . S
N210 C213 1.390 . S
N211 C212 1.345 . S
N211 C214 1.336 . S
C212 N210 1.335 . S
C212 N211 1.345 . S
C212 H217 0.930 . S
C213 N210 1.390 . S
C213 C214 1.346 . S
C213 H218 0.930 . S
C214 N211 1.336 . S
C214 C213 1.346 . S
C214 H221 0.929 . S
C215 O205 1.282 . S
C215 O216 1.216 . S
O216 C215 1.216 . S
H217 C212 0.930 . S
H218 C213 0.930 . S
O219 Cu199 1.959 . S
O219 C206 1.251 . S
H220 C203 0.930 . S
H221 C214 0.929 . S
H222 C240 0.951 . S
H223 C242 0.951 . S
H224 C244 0.950 . S
H225 C245 0.950 . S
H226 C247 0.950 . S
H227 C250 0.950 . S
H228 C251 0.950 . S
H229 C253 0.950 . S
H230 C254 0.950 . S
H231 C255 0.951 . S
H232 C257 0.951 . S
H233 C259 0.950 . S
H234 C260 0.950 . S
H235 C262 0.950 . S
H236 C265 0.950 . S
H237 C266 0.950 . S
H238 C268 0.950 . S
H239 C269 0.950 . S
C240 H222 0.951 . S
C240 C241 1.366 . S
C240 C242 1.388 . S
C241 C240 1.366 . S
C241 C245 1.385 . S
C242 H223 0.951 . S
C242 C240 1.388 . S
C242 C243 1.366 . S
C243 C242 1.366 . S
C243 C244 1.414 . S
C243 C246 1.499 . S
C244 H224 0.950 . S
C244 C243 1.414 . S
C244 C245 1.374 . S
C245 H225 0.950 . S
C245 C241 1.385 . S
C245 C244 1.374 . S
C246 C243 1.499 . S
C246 C247 1.373 . S
C246 C248 1.389 . S
C247 H226 0.950 . S
C247 C246 1.373 . S
C247 C263 1.377 . S
C248 C246 1.389 . S
C248 C249 1.524 . S
C248 C262 1.377 . S
C249 C248 1.524 . S
C249 C250 1.397 . S
C249 C254 1.363 . S
C250 H227 0.950 . S
C250 C249 1.397 . S
C250 C251 1.334 . S
C251 H228 0.950 . S
C251 C250 1.334 . S
C251 C252 1.287 . S
C252 C251 1.287 . S
C252 C253 1.524 . S
C252 H271 0.913 . S
C253 H229 0.950 . S
C253 C252 1.524 . S
C253 C254 1.415 . S
C254 H230 0.950 . S
C254 C249 1.363 . S
C254 C253 1.415 . S
C255 H231 0.951 . S
C255 C256 1.366 . S
C255 C257 1.388 . S
C256 C255 1.366 . S
C256 C260 1.385 . S
C257 H232 0.951 . S
C257 C255 1.388 . S
C257 C258 1.366 . S
C258 C257 1.366 . S
C258 C259 1.414 . S
C258 C261 1.499 . S
C259 H233 0.950 . S
C259 C258 1.414 . S
C259 C260 1.374 . S
C260 H234 0.950 . S
C260 C256 1.385 . S
C260 C259 1.374 . S
C261 C258 1.499 . S
C261 C262 1.373 . S
C261 C263 1.389 . S
C262 H235 0.950 . S
C262 C248 1.377 . S
C262 C261 1.373 . S
C263 C247 1.377 . S
C263 C261 1.389 . S
C263 C264 1.524 . S
C264 C263 1.524 . S
C264 C265 1.397 . S
C264 C269 1.363 . S
C265 H236 0.950 . S
C265 C264 1.397 . S
C265 C266 1.334 . S
C266 H237 0.950 . S
C266 C265 1.334 . S
C266 C267 1.287 . S
C267 C266 1.287 . S
C267 C268 1.524 . S
C267 H270 0.999 . S
C268 H238 0.950 . S
C268 C267 1.524 . S
C268 C269 1.415 . S
C269 H239 0.950 . S
C269 C264 1.363 . S
C269 C268 1.415 . S
H270 C267 0.999 . S
H271 C252 0.913 . S
H272 C290 0.951 . S
H273 C292 0.951 . S
H274 C294 0.950 . S
H275 C295 0.950 . S
H276 C297 0.950 . S
H277 C300 0.950 . S
H278 C301 0.950 . S
H279 C303 0.950 . S
H280 C304 0.950 . S
H281 C305 0.951 . S
H282 C307 0.951 . S
H283 C309 0.950 . S
H284 C310 0.950 . S
H285 C312 0.950 . S
H286 C315 0.950 . S
H287 C316 0.950 . S
H288 C318 0.950 . S
H289 C319 0.950 . S
C290 H272 0.951 . S
C290 C291 1.366 . S
C290 C292 1.388 . S
C291 C290 1.366 . S
C291 C295 1.385 . S
C292 H273 0.951 . S
C292 C290 1.388 . S
C292 C293 1.366 . S
C293 C292 1.366 . S
C293 C294 1.414 . S
C293 C296 1.499 . S
C294 H274 0.950 . S
C294 C293 1.414 . S
C294 C295 1.374 . S
C295 H275 0.950 . S
C295 C291 1.385 . S
C295 C294 1.374 . S
C296 C293 1.499 . S
C296 C297 1.373 . S
C296 C298 1.389 . S
C297 H276 0.950 . S
C297 C296 1.373 . S
C297 C313 1.377 . S
C298 C296 1.389 . S
C298 C299 1.524 . S
C298 C312 1.377 . S
C299 C298 1.524 . S
C299 C300 1.397 . S
C299 C304 1.363 . S
C300 H277 0.950 . S
C300 C299 1.397 . S
C300 C301 1.334 . S
C301 H278 0.950 . S
C301 C300 1.334 . S
C301 C302 1.287 . S
C302 C301 1.287 . S
C302 C303 1.524 . S
C302 H321 0.913 . S
C303 H279 0.950 . S
C303 C302 1.524 . S
C303 C304 1.415 . S
C304 H280 0.950 . S
C304 C299 1.363 . S
C304 C303 1.415 . S
C305 H281 0.951 . S
C305 C306 1.366 . S
C305 C307 1.388 . S
C306 C305 1.366 . S
C306 C310 1.385 . S
C307 H282 0.951 . S
C307 C305 1.388 . S
C307 C308 1.366 . S
C308 C307 1.366 . S
C308 C309 1.414 . S
C308 C311 1.499 . S
C309 H283 0.950 . S
C309 C308 1.414 . S
C309 C310 1.374 . S
C310 H284 0.950 . S
C310 C306 1.385 . S
C310 C309 1.374 . S
C311 C308 1.499 . S
C311 C312 1.373 . S
C311 C313 1.389 . S
C312 H285 0.950 . S
C312 C298 1.377 . S
C312 C311 1.373 . S
C313 C297 1.377 . S
C313 C311 1.389 . S
C313 C314 1.524 . S
C314 C313 1.524 . S
C314 C315 1.397 . S
C314 C319 1.363 . S
C315 H286 0.950 . S
C315 C314 1.397 . S
C315 C316 1.334 . S
C316 H287 0.950 . S
C316 C315 1.334 . S
C316 C317 1.287 . S
C317 C316 1.287 . S
C317 C318 1.524 . S
C317 H320 0.999 . S
C318 H288 0.950 . S
C318 C317 1.524 . S
C318 C319 1.415 . S
C319 H289 0.950 . S
C319 C314 1.363 . S
C319 C318 1.415 . S
H320 C317 0.999 . S
H321 C302 0.913 . S
H322 C340 0.951 . S
H323 C342 0.951 . S
H324 C344 0.950 . S
H325 C345 0.950 . S
H326 C347 0.950 . S
H327 C350 0.950 . S
H328 C351 0.950 . S
H329 C353 0.950 . S
H330 C354 0.950 . S
H331 C355 0.951 . S
H332 C357 0.951 . S
H333 C359 0.950 . S
H334 C360 0.950 . S
H335 C362 0.950 . S
H336 C365 0.950 . S
H337 C366 0.950 . S
H338 C368 0.950 . S
H339 C369 0.950 . S
C340 H322 0.951 . S
C340 C341 1.366 . S
C340 C342 1.388 . S
C341 C340 1.366 . S
C341 C345 1.385 . S
C342 H323 0.951 . S
C342 C340 1.388 . S
C342 C343 1.366 . S
C343 C342 1.366 . S
C343 C344 1.414 . S
C343 C346 1.499 . S
C344 H324 0.950 . S
C344 C343 1.414 . S
C344 C345 1.374 . S
C345 H325 0.950 . S
C345 C341 1.385 . S
C345 C344 1.374 . S
C346 C343 1.499 . S
C346 C347 1.373 . S
C346 C348 1.389 . S
C347 H326 0.950 . S
C347 C346 1.373 . S
C347 C363 1.377 . S
C348 C346 1.389 . S
C348 C349 1.524 . S
C348 C362 1.377 . S
C349 C348 1.524 . S
C349 C350 1.397 . S
C349 C354 1.363 . S
C350 H327 0.950 . S
C350 C349 1.397 . S
C350 C351 1.334 . S
C351 H328 0.950 . S
C351 C350 1.334 . S
C351 C352 1.287 . S
C352 C351 1.287 . S
C352 C353 1.524 . S
C352 H371 0.913 . S
C353 H329 0.950 . S
C353 C352 1.524 . S
C353 C354 1.415 . S
C354 H330 0.950 . S
C354 C349 1.363 . S
C354 C353 1.415 . S
C355 H331 0.951 . S
C355 C356 1.366 . S
C355 C357 1.388 . S
C356 C355 1.366 . S
C356 C360 1.385 . S
C357 H332 0.951 . S
C357 C355 1.388 . S
C357 C358 1.366 . S
C358 C357 1.366 . S
C358 C359 1.414 . S
C358 C361 1.499 . S
C359 H333 0.950 . S
C359 C358 1.414 . S
C359 C360 1.374 . S
C360 H334 0.950 . S
C360 C356 1.385 . S
C360 C359 1.374 . S
C361 C358 1.499 . S
C361 C362 1.373 . S
C361 C363 1.389 . S
C362 H335 0.950 . S
C362 C348 1.377 . S
C362 C361 1.373 . S
C363 C347 1.377 . S
C363 C361 1.389 . S
C363 C364 1.524 . S
C364 C363 1.524 . S
C364 C365 1.397 . S
C364 C369 1.363 . S
C365 H336 0.950 . S
C365 C364 1.397 . S
C365 C366 1.334 . S
C366 H337 0.950 . S
C366 C365 1.334 . S
C366 C367 1.287 . S
C367 C366 1.287 . S
C367 C368 1.524 . S
C367 H370 0.999 . S
C368 H338 0.950 . S
C368 C367 1.524 . S
C368 C369 1.415 . S
C369 H339 0.950 . S
C369 C364 1.363 . S
C369 C368 1.415 . S
H370 C367 0.999 . S
H371 C352 0.913 . S
H372 C390 0.951 . S
H373 C392 0.951 . S
H374 C394 0.950 . S
H375 C395 0.950 . S
H376 C397 0.950 . S
H377 C400 0.950 . S
H378 C401 0.950 . S
H379 C403 0.950 . S
H380 C404 0.950 . S
H381 C405 0.951 . S
H382 C407 0.951 . S
H383 C409 0.950 . S
H384 C410 0.950 . S
H385 C412 0.950 . S
H386 C415 0.950 . S
H387 C416 0.950 . S
H388 C418 0.950 . S
H389 C419 0.950 . S
C390 H372 0.951 . S
C390 C391 1.366 . S
C390 C392 1.388 . S
C391 C390 1.366 . S
C391 C395 1.385 . S
C392 H373 0.951 . S
C392 C390 1.388 . S
C392 C393 1.366 . S
C393 C392 1.366 . S
C393 C394 1.414 . S
C393 C396 1.499 . S
C394 H374 0.950 . S
C394 C393 1.414 . S
C394 C395 1.374 . S
C395 H375 0.950 . S
C395 C391 1.385 . S
C395 C394 1.374 . S
C396 C393 1.499 . S
C396 C397 1.373 . S
C396 C398 1.389 . S
C397 H376 0.950 . S
C397 C396 1.373 . S
C397 C413 1.377 . S
C398 C396 1.389 . S
C398 C399 1.524 . S
C398 C412 1.377 . S
C399 C398 1.524 . S
C399 C400 1.397 . S
C399 C404 1.363 . S
C400 H377 0.950 . S
C400 C399 1.397 . S
C400 C401 1.334 1_655 S
C401 H378 0.950 . S
C401 C400 1.334 1_455 S
C401 C402 1.287 . S
C402 C401 1.287 . S
C402 C403 1.524 1_455 S
C402 H421 0.913 . S
C403 H379 0.950 . S
C403 C402 1.524 1_655 S
C403 C404 1.415 . S
C404 H380 0.950 . S
C404 C399 1.363 . S
C404 C403 1.415 . S
C405 H381 0.951 . S
C405 C406 1.366 . S
C405 C407 1.388 . S
C406 C405 1.366 . S
C406 C410 1.385 . S
C407 H382 0.951 . S
C407 C405 1.388 . S
C407 C408 1.366 . S
C408 C407 1.366 . S
C408 C409 1.414 . S
C408 C411 1.499 . S
C409 H383 0.950 . S
C409 C408 1.414 . S
C409 C410 1.374 . S
C410 H384 0.950 . S
C410 C406 1.385 . S
C410 C409 1.374 . S
C411 C408 1.499 . S
C411 C412 1.373 . S
C411 C413 1.389 . S
C412 H385 0.950 . S
C412 C398 1.377 . S
C412 C411 1.373 . S
C413 C397 1.377 . S
C413 C411 1.389 . S
C413 C414 1.524 . S
C414 C413 1.524 . S
C414 C415 1.397 . S
C414 C419 1.363 . S
C415 H386 0.950 . S
C415 C414 1.397 . S
C415 C416 1.334 . S
C416 H387 0.950 . S
C416 C415 1.334 . S
C416 C417 1.287 . S
C417 C416 1.287 . S
C417 C418 1.524 . S
C417 H420 0.999 . S
C418 H388 0.950 . S
C418 C417 1.524 . S
C418 C419 1.415 . S
C419 H389 0.950 . S
C419 C414 1.363 . S
C419 C418 1.415 . S
H420 C417 0.999 . S
H421 C402 0.913 . S
H422 C440 0.951 . S
H423 C442 0.951 . S
H424 C444 0.950 . S
H425 C445 0.950 . S
H426 C447 0.950 . S
H427 C450 0.950 . S
H428 C451 0.950 . S
H429 C453 0.950 . S
H430 C454 0.950 . S
H431 C455 0.951 . S
H432 C457 0.951 . S
H433 C459 0.950 . S
H434 C460 0.950 . S
H435 C462 0.950 . S
H436 C465 0.950 . S
H437 C466 0.950 . S
H438 C468 0.950 . S
H439 C469 0.950 . S
C440 H422 0.951 . S
C440 C441 1.366 . S
C440 C442 1.388 . S
C441 C440 1.366 . S
C441 C445 1.385 . S
C442 H423 0.951 . S
C442 C440 1.388 . S
C442 C443 1.366 . S
C443 C442 1.366 . S
C443 C444 1.414 . S
C443 C446 1.499 . S
C444 H424 0.950 . S
C444 C443 1.414 . S
C444 C445 1.374 . S
C445 H425 0.950 . S
C445 C441 1.385 . S
C445 C444 1.374 . S
C446 C443 1.499 . S
C446 C447 1.373 . S
C446 C448 1.389 . S
C447 H426 0.950 . S
C447 C446 1.373 . S
C447 C463 1.377 . S
C448 C446 1.389 . S
C448 C449 1.524 . S
C448 C462 1.377 . S
C449 C448 1.524 . S
C449 C450 1.397 . S
C449 C454 1.363 . S
C450 H427 0.950 . S
C450 C449 1.397 . S
C450 C451 1.334 . S
C451 H428 0.950 . S
C451 C450 1.334 . S
C451 C452 1.287 . S
C452 C451 1.287 . S
C452 C453 1.524 . S
C452 H471 0.913 . S
C453 H429 0.950 . S
C453 C452 1.524 . S
C453 C454 1.415 . S
C454 H430 0.950 . S
C454 C449 1.363 . S
C454 C453 1.415 . S
C455 H431 0.951 . S
C455 C456 1.366 . S
C455 C457 1.388 . S
C456 C455 1.366 . S
C456 C460 1.385 . S
C457 H432 0.951 . S
C457 C455 1.388 . S
C457 C458 1.366 . S
C458 C457 1.366 . S
C458 C459 1.414 . S
C458 C461 1.499 . S
C459 H433 0.950 . S
C459 C458 1.414 . S
C459 C460 1.374 . S
C460 H434 0.950 . S
C460 C456 1.385 . S
C460 C459 1.374 . S
C461 C458 1.499 . S
C461 C462 1.373 . S
C461 C463 1.389 . S
C462 H435 0.950 . S
C462 C448 1.377 . S
C462 C461 1.373 . S
C463 C447 1.377 . S
C463 C461 1.389 . S
C463 C464 1.524 . S
C464 C463 1.524 . S
C464 C465 1.397 . S
C464 C469 1.363 . S
C465 H436 0.950 . S
C465 C464 1.397 . S
C465 C466 1.334 . S
C466 H437 0.950 . S
C466 C465 1.334 . S
C466 C467 1.287 . S
C467 C466 1.287 . S
C467 C468 1.524 . S
C467 H470 0.999 . S
C468 H438 0.950 . S
C468 C467 1.524 . S
C468 C469 1.415 . S
C469 H439 0.950 . S
C469 C464 1.363 . S
C469 C468 1.415 . S
H470 C467 0.999 . S
H471 C452 0.913 . S
H472 C490 0.951 . S
H473 C492 0.951 . S
H474 C494 0.950 . S
H475 C495 0.950 . S
H476 C497 0.950 . S
H477 C500 0.950 . S
H478 C501 0.950 . S
H479 C503 0.950 . S
H480 C504 0.950 . S
H481 C505 0.951 . S
H482 C507 0.951 . S
H483 C509 0.950 . S
H484 C510 0.950 . S
H485 C512 0.950 . S
H486 C515 0.950 . S
H487 C516 0.950 . S
H488 C518 0.950 . S
H489 C519 0.950 . S
C490 H472 0.951 . S
C490 C491 1.366 . S
C490 C492 1.388 . S
C491 C490 1.366 . S
C491 C495 1.385 . S
C492 H473 0.951 . S
C492 C490 1.388 . S
C492 C493 1.366 . S
C493 C492 1.366 . S
C493 C494 1.414 . S
C493 C496 1.499 . S
C494 H474 0.950 . S
C494 C493 1.414 . S
C494 C495 1.374 . S
C495 H475 0.950 . S
C495 C491 1.385 . S
C495 C494 1.374 . S
C496 C493 1.499 . S
C496 C497 1.373 . S
C496 C498 1.389 . S
C497 H476 0.950 . S
C497 C496 1.373 . S
C497 C513 1.377 . S
C498 C496 1.389 . S
C498 C499 1.524 . S
C498 C512 1.377 . S
C499 C498 1.524 . S
C499 C500 1.397 . S
C499 C504 1.363 . S
C500 H477 0.950 . S
C500 C499 1.397 . S
C500 C501 1.334 . S
C501 H478 0.950 . S
C501 C500 1.334 . S
C501 C502 1.287 . S
C502 C501 1.287 . S
C502 C503 1.524 . S
C502 H521 0.913 . S
C503 H479 0.950 . S
C503 C502 1.524 . S
C503 C504 1.415 . S
C504 H480 0.950 . S
C504 C499 1.363 . S
C504 C503 1.415 . S
C505 H481 0.951 . S
C505 C506 1.366 . S
C505 C507 1.388 . S
C506 C505 1.366 . S
C506 C510 1.385 . S
C507 H482 0.951 . S
C507 C505 1.388 . S
C507 C508 1.366 . S
C508 C507 1.366 . S
C508 C509 1.414 . S
C508 C511 1.499 . S
C509 H483 0.950 . S
C509 C508 1.414 . S
C509 C510 1.374 . S
C510 H484 0.950 . S
C510 C506 1.385 . S
C510 C509 1.374 . S
C511 C508 1.499 . S
C511 C512 1.373 . S
C511 C513 1.389 . S
C512 H485 0.950 . S
C512 C498 1.377 . S
C512 C511 1.373 . S
C513 C497 1.377 . S
C513 C511 1.389 . S
C513 C514 1.524 . S
C514 C513 1.524 . S
C514 C515 1.397 . S
C514 C519 1.363 . S
C515 H486 0.950 . S
C515 C514 1.397 . S
C515 C516 1.334 . S
C516 H487 0.950 . S
C516 C515 1.334 . S
C516 C517 1.287 . S
C517 C516 1.287 . S
C517 C518 1.524 . S
C517 H520 0.999 . S
C518 H488 0.950 . S
C518 C517 1.524 . S
C518 C519 1.415 . S
C519 H489 0.950 . S
C519 C514 1.363 . S
C519 C518 1.415 . S
H520 C517 0.999 . S
H521 C502 0.913 . S
H522 C540 0.951 . S
H523 C542 0.951 . S
H524 C544 0.950 . S
H525 C545 0.950 . S
H526 C547 0.950 . S
H527 C550 0.950 . S
H528 C551 0.950 . S
H529 C553 0.950 . S
H530 C554 0.950 . S
H531 C555 0.951 . S
H532 C557 0.951 . S
H533 C559 0.950 . S
H534 C560 0.950 . S
H535 C562 0.950 . S
H536 C565 0.950 . S
H537 C566 0.950 . S
H538 C568 0.950 . S
H539 C569 0.950 . S
C540 H522 0.951 . S
C540 C541 1.366 . S
C540 C542 1.388 . S
C541 C540 1.366 . S
C541 C545 1.385 . S
C542 H523 0.951 . S
C542 C540 1.388 . S
C542 C543 1.366 . S
C543 C542 1.366 . S
C543 C544 1.414 . S
C543 C546 1.499 . S
C544 H524 0.950 . S
C544 C543 1.414 . S
C544 C545 1.374 . S
C545 H525 0.950 . S
C545 C541 1.385 . S
C545 C544 1.374 . S
C546 C543 1.499 . S
C546 C547 1.373 . S
C546 C548 1.389 . S
C547 H526 0.950 . S
C547 C546 1.373 . S
C547 C563 1.377 . S
C548 C546 1.389 . S
C548 C549 1.524 . S
C548 C562 1.377 . S
C549 C548 1.524 . S
C549 C550 1.397 . S
C549 C554 1.363 . S
C550 H527 0.950 . S
C550 C549 1.397 . S
C550 C551 1.334 1_565 S
C551 H528 0.950 . S
C551 C550 1.334 1_545 S
C551 C552 1.287 . S
C552 C551 1.287 . S
C552 C553 1.524 1_545 S
C552 H571 0.913 . S
C553 H529 0.950 . S
C553 C552 1.524 1_565 S
C553 C554 1.415 . S
C554 H530 0.950 . S
C554 C549 1.363 . S
C554 C553 1.415 . S
C555 H531 0.951 . S
C555 C556 1.366 . S
C555 C557 1.388 . S
C556 C555 1.366 . S
C556 C560 1.385 . S
C557 H532 0.951 . S
C557 C555 1.388 . S
C557 C558 1.366 . S
C558 C557 1.366 . S
C558 C559 1.414 . S
C558 C561 1.499 . S
C559 H533 0.950 . S
C559 C558 1.414 . S
C559 C560 1.374 . S
C560 H534 0.950 . S
C560 C556 1.385 . S
C560 C559 1.374 . S
C561 C558 1.499 . S
C561 C562 1.373 . S
C561 C563 1.389 . S
C562 H535 0.950 . S
C562 C548 1.377 . S
C562 C561 1.373 . S
C563 C547 1.377 . S
C563 C561 1.389 . S
C563 C564 1.524 . S
C564 C563 1.524 . S
C564 C565 1.397 . S
C564 C569 1.363 . S
C565 H536 0.950 . S
C565 C564 1.397 . S
C565 C566 1.334 . S
C566 H537 0.950 . S
C566 C565 1.334 . S
C566 C567 1.287 . S
C567 C566 1.287 . S
C567 C568 1.524 . S
C567 H570 0.999 . S
C568 H538 0.950 . S
C568 C567 1.524 . S
C568 C569 1.415 . S
C569 H539 0.950 . S
C569 C564 1.363 . S
C569 C568 1.415 . S
H570 C567 0.999 . S
H571 C552 0.913 . S
H572 C590 0.951 . S
H573 C592 0.951 . S
H574 C594 0.950 . S
H575 C595 0.950 . S
H576 C597 0.950 . S
H577 C600 0.950 . S
H578 C601 0.950 . S
H579 C603 0.950 1_554 S
H580 C604 0.950 . S
H581 C605 0.951 . S
H582 C607 0.951 . S
H583 C609 0.950 . S
H584 C610 0.950 . S
H585 C612 0.950 . S
H586 C615 0.950 . S
H587 C616 0.950 . S
H588 C618 0.950 . S
H589 C619 0.950 . S
C590 H572 0.951 . S
C590 C591 1.366 . S
C590 C592 1.388 . S
C591 C590 1.366 . S
C591 C595 1.385 . S
C592 H573 0.951 . S
C592 C590 1.388 . S
C592 C593 1.366 . S
C593 C592 1.366 . S
C593 C594 1.414 . S
C593 C596 1.499 . S
C594 H574 0.950 . S
C594 C593 1.414 . S
C594 C595 1.374 . S
C595 H575 0.950 . S
C595 C591 1.385 . S
C595 C594 1.374 . S
C596 C593 1.499 . S
C596 C597 1.373 . S
C596 C598 1.389 . S
C597 H576 0.950 . S
C597 C596 1.373 . S
C597 C613 1.377 . S
C598 C596 1.389 . S
C598 C599 1.524 . S
C598 C612 1.377 . S
C599 C598 1.524 . S
C599 C600 1.397 . S
C599 C604 1.363 . S
C600 H577 0.950 . S
C600 C599 1.397 . S
C600 C601 1.334 . S
C601 H578 0.950 . S
C601 C600 1.334 . S
C601 C602 1.295 . S
C602 C601 1.295 . S
C602 C603 1.525 . S
C602 H621 0.902 1_556 S
C603 H579 0.950 1_556 S
C603 C602 1.525 . S
C603 C604 1.415 . S
C604 H580 0.950 . S
C604 C599 1.363 . S
C604 C603 1.415 . S
C605 H581 0.951 . S
C605 C606 1.366 . S
C605 C607 1.388 . S
C606 C605 1.366 . S
C606 C610 1.385 . S
C607 H582 0.951 . S
C607 C605 1.388 . S
C607 C608 1.366 . S
C608 C607 1.366 . S
C608 C609 1.414 . S
C608 C611 1.499 . S
C609 H583 0.950 . S
C609 C608 1.414 . S
C609 C610 1.374 . S
C610 H584 0.950 . S
C610 C606 1.385 . S
C610 C609 1.374 . S
C611 C608 1.499 . S
C611 C612 1.373 . S
C611 C613 1.389 . S
C612 H585 0.950 . S
C612 C598 1.377 . S
C612 C611 1.373 . S
C613 C597 1.377 . S
C613 C611 1.389 . S
C613 C614 1.524 . S
C614 C613 1.524 . S
C614 C615 1.397 . S
C614 C619 1.363 . S
C615 H586 0.950 . S
C615 C614 1.397 . S
C615 C616 1.334 . S
C616 H587 0.950 . S
C616 C615 1.334 . S
C616 C617 1.287 . S
C617 C616 1.287 . S
C617 C618 1.524 . S
C617 H620 0.999 . S
C618 H588 0.950 . S
C618 C617 1.524 . S
C618 C619 1.415 . S
C619 H589 0.950 . S
C619 C614 1.363 . S
C619 C618 1.415 . S
H620 C617 0.999 . S
H621 C602 0.902 1_554 S
H622 C640 0.951 . S
H623 C642 0.951 . S
H624 C644 0.950 . S
H625 C645 0.950 . S
H626 C647 0.950 . S
H627 C650 0.950 . S
H628 C651 0.950 . S
H629 C653 0.950 . S
H630 C654 0.950 . S
H631 C655 0.951 . S
H632 C657 0.951 . S
H633 C659 0.950 . S
H634 C660 0.950 . S
H635 C662 0.950 . S
H636 C665 0.950 . S
H637 C666 0.950 . S
H638 C668 0.950 . S
H639 C669 0.950 . S
C640 H622 0.951 . S
C640 C641 1.366 . S
C640 C642 1.388 . S
C641 C640 1.366 . S
C641 C645 1.385 . S
C642 H623 0.951 . S
C642 C640 1.388 . S
C642 C643 1.366 . S
C643 C642 1.366 . S
C643 C644 1.414 . S
C643 C646 1.499 . S
C644 H624 0.950 . S
C644 C643 1.414 . S
C644 C645 1.374 . S
C645 H625 0.950 . S
C645 C641 1.385 . S
C645 C644 1.374 . S
C646 C643 1.499 . S
C646 C647 1.373 . S
C646 C648 1.389 . S
C647 H626 0.950 . S
C647 C646 1.373 . S
C647 C663 1.377 . S
C648 C646 1.389 . S
C648 C649 1.524 . S
C648 C662 1.377 . S
C649 C648 1.524 . S
C649 C650 1.397 . S
C649 C654 1.363 . S
C650 H627 0.950 . S
C650 C649 1.397 . S
C650 C651 1.334 . S
C651 H628 0.950 . S
C651 C650 1.334 . S
C651 C652 1.287 . S
C652 C651 1.287 . S
C652 C653 1.524 . S
C652 H671 0.913 . S
C653 H629 0.950 . S
C653 C652 1.524 . S
C653 C654 1.415 . S
C654 H630 0.950 . S
C654 C649 1.363 . S
C654 C653 1.415 . S
C655 H631 0.951 . S
C655 C656 1.366 . S
C655 C657 1.388 . S
C656 C655 1.366 . S
C656 C660 1.385 . S
C657 H632 0.951 . S
C657 C655 1.388 . S
C657 C658 1.366 . S
C658 C657 1.366 . S
C658 C659 1.414 . S
C658 C661 1.499 . S
C659 H633 0.950 . S
C659 C658 1.414 . S
C659 C660 1.374 . S
C660 H634 0.950 . S
C660 C656 1.385 . S
C660 C659 1.374 . S
C661 C658 1.499 . S
C661 C662 1.373 . S
C661 C663 1.389 . S
C662 H635 0.950 . S
C662 C648 1.377 . S
C662 C661 1.373 . S
C663 C647 1.377 . S
C663 C661 1.389 . S
C663 C664 1.524 . S
C664 C663 1.524 . S
C664 C665 1.397 . S
C664 C669 1.363 . S
C665 H636 0.950 . S
C665 C664 1.397 . S
C665 C666 1.334 . S
C666 H637 0.950 . S
C666 C665 1.334 . S
C666 C667 1.287 . S
C667 C666 1.287 . S
C667 C668 1.524 . S
C667 H670 0.999 . S
C668 H638 0.950 . S
C668 C667 1.524 . S
C668 C669 1.415 . S
C669 H639 0.950 . S
C669 C664 1.363 . S
C669 C668 1.415 . S
H670 C667 0.999 . S
H671 C652 0.913 . S
H672 C690 0.951 . S
H673 C692 0.951 . S
H674 C694 0.950 . S
H675 C695 0.950 . S
H676 C697 0.950 . S
H677 C700 0.950 . S
H678 C701 0.950 1_554 S
H679 C703 0.941 1_554 S
H680 C704 0.950 . S
H681 C705 0.951 . S
H682 C707 0.951 . S
H683 C709 0.950 . S
H684 C710 0.950 . S
H685 C712 0.950 . S
H686 C715 0.950 . S
H687 C716 0.950 . S
H688 C718 0.950 . S
H689 C719 0.950 . S
C690 H672 0.951 . S
C690 C691 1.366 . S
C690 C692 1.388 . S
C691 C690 1.366 . S
C691 C695 1.385 . S
C692 H673 0.951 . S
C692 C690 1.388 . S
C692 C693 1.366 . S
C693 C692 1.366 . S
C693 C694 1.414 . S
C693 C696 1.499 . S
C694 H674 0.950 . S
C694 C693 1.414 . S
C694 C695 1.374 . S
C695 H675 0.950 . S
C695 C691 1.385 . S
C695 C694 1.374 . S
C696 C693 1.499 . S
C696 C697 1.373 . S
C696 C698 1.389 . S
C697 H676 0.950 . S
C697 C696 1.373 . S
C697 C713 1.377 . S
C698 C696 1.389 . S
C698 C699 1.524 . S
C698 C712 1.377 . S
C699 C698 1.524 . S
C699 C700 1.397 . S
C699 C704 1.363 . S
C700 H677 0.950 . S
C700 C699 1.397 . S
C700 C701 1.334 . S
C701 H678 0.950 1_556 S
C701 C700 1.334 . S
C701 C702 1.287 1_556 S
C702 C701 1.287 1_554 S
C702 C703 1.518 1_554 S
C702 H721 0.913 . S
C703 H679 0.941 1_556 S
C703 C702 1.518 1_556 S
C703 C704 1.430 . S
C704 H680 0.950 . S
C704 C699 1.363 . S
C704 C703 1.430 . S
C705 H681 0.951 . S
C705 C706 1.366 . S
C705 C707 1.388 . S
C706 C705 1.366 . S
C706 C710 1.385 . S
C707 H682 0.951 . S
C707 C705 1.388 . S
C707 C708 1.366 . S
C708 C707 1.366 . S
C708 C709 1.414 . S
C708 C711 1.499 . S
C709 H683 0.950 . S
C709 C708 1.414 . S
C709 C710 1.374 . S
C710 H684 0.950 . S
C710 C706 1.385 . S
C710 C709 1.374 . S
C711 C708 1.499 . S
C711 C712 1.373 . S
C711 C713 1.389 . S
C712 H685 0.950 . S
C712 C698 1.377 . S
C712 C711 1.373 . S
C713 C697 1.377 . S
C713 C711 1.389 . S
C713 C714 1.524 . S
C714 C713 1.524 . S
C714 C715 1.397 . S
C714 C719 1.363 . S
C715 H686 0.950 . S
C715 C714 1.397 . S
C715 C716 1.334 . S
C716 H687 0.950 . S
C716 C715 1.334 . S
C716 C717 1.287 . S
C717 C716 1.287 . S
C717 C718 1.524 . S
C717 H720 0.999 . S
C718 H688 0.950 . S
C718 C717 1.524 . S
C718 C719 1.415 . S
C719 H689 0.950 . S
C719 C714 1.363 . S
C719 C718 1.415 . S
H720 C717 0.999 . S
H721 C702 0.913 . S
H722 C740 0.951 . S
H723 C742 0.951 . S
H724 C744 0.950 . S
H725 C745 0.950 . S
H726 C747 0.950 . S
H727 C750 0.950 . S
H728 C751 0.950 . S
H729 C753 0.950 . S
H730 C754 0.950 . S
H731 C755 0.951 . S
H732 C757 0.951 . S
H733 C759 0.950 . S
H734 C760 0.950 . S
H735 C762 0.950 . S
H736 C765 0.950 . S
H737 C766 0.950 . S
H738 C768 0.950 . S
H739 C769 0.950 . S
C740 H722 0.951 . S
C740 C741 1.366 . S
C740 C742 1.388 . S
C741 C740 1.366 . S
C741 C745 1.385 . S
C742 H723 0.951 . S
C742 C740 1.388 . S
C742 C743 1.366 . S
C743 C742 1.366 . S
C743 C744 1.414 . S
C743 C746 1.499 . S
C744 H724 0.950 . S
C744 C743 1.414 . S
C744 C745 1.374 . S
C745 H725 0.950 . S
C745 C741 1.385 . S
C745 C744 1.374 . S
C746 C743 1.499 . S
C746 C747 1.373 . S
C746 C748 1.389 . S
C747 H726 0.950 . S
C747 C746 1.373 . S
C747 C763 1.377 . S
C748 C746 1.389 . S
C748 C749 1.524 . S
C748 C762 1.377 . S
C749 C748 1.524 . S
C749 C750 1.397 . S
C749 C754 1.363 . S
C750 H727 0.950 . S
C750 C749 1.397 . S
C750 C751 1.334 . S
C751 H728 0.950 . S
C751 C750 1.334 . S
C751 C752 1.287 . S
C752 C751 1.287 . S
C752 C753 1.524 . S
C752 H771 0.913 . S
C753 H729 0.950 . S
C753 C752 1.524 . S
C753 C754 1.415 . S
C754 H730 0.950 . S
C754 C749 1.363 . S
C754 C753 1.415 . S
C755 H731 0.951 . S
C755 C756 1.366 . S
C755 C757 1.388 . S
C756 C755 1.366 . S
C756 C760 1.385 . S
C757 H732 0.951 . S
C757 C755 1.388 . S
C757 C758 1.366 . S
C758 C757 1.366 . S
C758 C759 1.414 . S
C758 C761 1.499 . S
C759 H733 0.950 . S
C759 C758 1.414 . S
C759 C760 1.374 . S
C760 H734 0.950 . S
C760 C756 1.385 . S
C760 C759 1.374 . S
C761 C758 1.499 . S
C761 C762 1.373 . S
C761 C763 1.389 . S
C762 H735 0.950 . S
C762 C748 1.377 . S
C762 C761 1.373 . S
C763 C747 1.377 . S
C763 C761 1.389 . S
C763 C764 1.524 . S
C764 C763 1.524 . S
C764 C765 1.397 . S
C764 C769 1.363 . S
C765 H736 0.950 . S
C765 C764 1.397 . S
C765 C766 1.334 . S
C766 H737 0.950 . S
C766 C765 1.334 . S
C766 C767 1.287 . S
C767 C766 1.287 . S
C767 C768 1.524 . S
C767 H770 0.999 . S
C768 H738 0.950 . S
C768 C767 1.524 . S
C768 C769 1.415 . S
C769 H739 0.950 . S
C769 C764 1.363 . S
C769 C768 1.415 . S
H770 C767 0.999 . S
H771 C752 0.913 . S
H772 C790 0.951 . S
H773 C792 0.951 . S
H774 C794 0.950 . S
H775 C795 0.950 . S
H776 C797 0.950 . S
H777 C800 0.950 . S
H778 C801 0.950 . S
H779 C803 0.940 1_455 S
H780 C804 0.950 . S
H781 C805 0.951 . S
H782 C807 0.951 . S
H783 C809 0.950 . S
H784 C810 0.950 . S
H785 C812 0.950 . S
H786 C815 0.950 . S
H787 C816 0.950 . S
H788 C818 0.950 . S
H789 C819 0.950 . S
C790 H772 0.951 . S
C790 C791 1.366 . S
C790 C792 1.388 . S
C791 C790 1.366 . S
C791 C795 1.385 . S
C792 H773 0.951 . S
C792 C790 1.388 . S
C792 C793 1.366 . S
C793 C792 1.366 . S
C793 C794 1.414 . S
C793 C796 1.499 . S
C794 H774 0.950 . S
C794 C793 1.414 . S
C794 C795 1.374 . S
C795 H775 0.950 . S
C795 C791 1.385 . S
C795 C794 1.374 . S
C796 C793 1.499 . S
C796 C797 1.373 . S
C796 C798 1.389 . S
C797 H776 0.950 . S
C797 C796 1.373 . S
C797 C813 1.377 . S
C798 C796 1.389 . S
C798 C799 1.524 . S
C798 C812 1.377 . S
C799 C798 1.524 . S
C799 C800 1.397 . S
C799 C804 1.363 . S
C800 H777 0.950 . S
C800 C799 1.397 . S
C800 C801 1.334 1_655 S
C801 H778 0.950 . S
C801 C800 1.334 1_455 S
C801 C802 1.287 . S
C802 C801 1.287 . S
C802 C803 1.524 1_455 S
C802 H821 0.913 . S
C803 H779 0.940 1_655 S
C803 C802 1.524 1_655 S
C803 C804 1.415 . S
C804 H780 0.950 . S
C804 C799 1.363 . S
C804 C803 1.415 . S
C805 H781 0.951 . S
C805 C806 1.366 . S
C805 C807 1.388 . S
C806 C805 1.366 . S
C806 C810 1.385 . S
C807 H782 0.951 . S
C807 C805 1.388 . S
C807 C808 1.366 . S
C808 C807 1.366 . S
C808 C809 1.414 . S
C808 C811 1.499 . S
C809 H783 0.950 . S
C809 C808 1.414 . S
C809 C810 1.374 . S
C810 H784 0.950 . S
C810 C806 1.385 . S
C810 C809 1.374 . S
C811 C808 1.499 . S
C811 C812 1.373 . S
C811 C813 1.389 . S
C812 H785 0.950 . S
C812 C798 1.377 . S
C812 C811 1.373 . S
C813 C797 1.377 . S
C813 C811 1.389 . S
C813 C814 1.524 . S
C814 C813 1.524 . S
C814 C815 1.397 . S
C814 C819 1.363 . S
C815 H786 0.950 . S
C815 C814 1.397 . S
C815 C816 1.334 . S
C816 H787 0.950 . S
C816 C815 1.334 . S
C816 C817 1.287 . S
C817 C816 1.287 . S
C817 C818 1.524 . S
C817 H820 0.999 . S
C818 H788 0.950 . S
C818 C817 1.524 . S
C818 C819 1.415 . S
C819 H789 0.950 . S
C819 C814 1.363 . S
C819 C818 1.415 . S
H820 C817 0.999 . S
H821 C802 0.913 . S
H822 C840 0.951 . S
H823 C842 0.951 . S
H824 C844 0.950 . S
H825 C845 0.950 . S
H826 C847 0.950 . S
H827 C850 0.950 . S
H828 C851 0.950 . S
H829 C853 0.950 . S
H830 C854 0.950 . S
H831 C855 0.951 . S
H832 C857 0.951 . S
H833 C859 0.950 . S
H834 C860 0.950 . S
H835 C862 0.950 . S
H836 C865 0.950 . S
H837 C866 0.950 . S
H838 C868 0.950 . S
H839 C869 0.950 . S
C840 H822 0.951 . S
C840 C841 1.366 . S
C840 C842 1.388 . S
C841 C840 1.366 . S
C841 C845 1.385 . S
C842 H823 0.951 . S
C842 C840 1.388 . S
C842 C843 1.366 . S
C843 C842 1.366 . S
C843 C844 1.414 . S
C843 C846 1.499 . S
C844 H824 0.950 . S
C844 C843 1.414 . S
C844 C845 1.374 . S
C845 H825 0.950 . S
C845 C841 1.385 . S
C845 C844 1.374 . S
C846 C843 1.499 . S
C846 C847 1.373 . S
C846 C848 1.389 . S
C847 H826 0.950 . S
C847 C846 1.373 . S
C847 C863 1.377 . S
C848 C846 1.389 . S
C848 C849 1.524 . S
C848 C862 1.377 . S
C849 C848 1.524 . S
C849 C850 1.397 . S
C849 C854 1.363 . S
C850 H827 0.950 . S
C850 C849 1.397 . S
C850 C851 1.334 . S
C851 H828 0.950 . S
C851 C850 1.334 . S
C851 C852 1.287 . S
C852 C851 1.287 . S
C852 C853 1.524 . S
C852 H871 0.913 . S
C853 H829 0.950 . S
C853 C852 1.524 . S
C853 C854 1.415 . S
C854 H830 0.950 . S
C854 C849 1.363 . S
C854 C853 1.415 . S
C855 H831 0.951 . S
C855 C856 1.366 . S
C855 C857 1.388 . S
C856 C855 1.366 . S
C856 C860 1.385 . S
C857 H832 0.951 . S
C857 C855 1.388 . S
C857 C858 1.366 . S
C858 C857 1.366 . S
C858 C859 1.414 . S
C858 C861 1.499 . S
C859 H833 0.950 . S
C859 C858 1.414 . S
C859 C860 1.374 . S
C860 H834 0.950 . S
C860 C856 1.385 . S
C860 C859 1.374 . S
C861 C858 1.499 . S
C861 C862 1.373 . S
C861 C863 1.389 . S
C862 H835 0.950 . S
C862 C848 1.377 . S
C862 C861 1.373 . S
C863 C847 1.377 . S
C863 C861 1.389 . S
C863 C864 1.524 . S
C864 C863 1.524 . S
C864 C865 1.397 . S
C864 C869 1.363 . S
C865 H836 0.950 . S
C865 C864 1.397 . S
C865 C866 1.334 . S
C866 H837 0.950 . S
C866 C865 1.334 . S
C866 C867 1.287 . S
C867 C866 1.287 . S
C867 C868 1.524 . S
C867 H870 0.999 . S
C868 H838 0.950 . S
C868 C867 1.524 . S
C868 C869 1.415 . S
C869 H839 0.950 . S
C869 C864 1.363 . S
C869 C868 1.415 . S
H870 C867 0.999 . S
H871 C852 0.913 . S
H872 C890 0.951 . S
H873 C892 0.951 . S
H874 C894 0.950 . S
H875 C895 0.950 . S
H876 C897 0.950 . S
H877 C900 0.950 . S
H878 C901 0.950 1_545 S
H879 C903 0.950 . S
H880 C904 0.950 . S
H881 C905 0.951 . S
H882 C907 0.951 . S
H883 C909 0.950 . S
H884 C910 0.950 . S
H885 C912 0.950 . S
H886 C915 0.950 . S
H887 C916 0.950 . S
H888 C918 0.950 . S
H889 C919 0.950 . S
C890 H872 0.951 . S
C890 C891 1.366 . S
C890 C892 1.388 . S
C891 C890 1.366 . S
C891 C895 1.385 . S
C892 H873 0.951 . S
C892 C890 1.388 . S
C892 C893 1.366 . S
C893 C892 1.366 . S
C893 C894 1.414 . S
C893 C896 1.499 . S
C894 H874 0.950 . S
C894 C893 1.414 . S
C894 C895 1.374 . S
C895 H875 0.950 . S
C895 C891 1.385 . S
C895 C894 1.374 . S
C896 C893 1.499 . S
C896 C897 1.373 . S
C896 C898 1.389 . S
C897 H876 0.950 . S
C897 C896 1.373 . S
C897 C913 1.377 . S
C898 C896 1.389 . S
C898 C899 1.524 . S
C898 C912 1.377 . S
C899 C898 1.524 . S
C899 C900 1.397 . S
C899 C904 1.363 . S
C900 H877 0.950 . S
C900 C899 1.397 . S
C900 C901 1.334 . S
C901 H878 0.950 1_565 S
C901 C900 1.334 . S
C901 C902 1.287 . S
C902 C901 1.287 . S
C902 C903 1.524 . S
C902 H921 0.913 . S
C903 H879 0.950 . S
C903 C902 1.524 . S
C903 C904 1.415 . S
C904 H880 0.950 . S
C904 C899 1.363 . S
C904 C903 1.415 . S
C905 H881 0.951 . S
C905 C906 1.366 . S
C905 C907 1.388 . S
C906 C905 1.366 . S
C906 C910 1.385 . S
C907 H882 0.951 . S
C907 C905 1.388 . S
C907 C908 1.366 . S
C908 C907 1.366 . S
C908 C909 1.414 . S
C908 C911 1.499 . S
C909 H883 0.950 . S
C909 C908 1.414 . S
C909 C910 1.374 . S
C910 H884 0.950 . S
C910 C906 1.385 . S
C910 C909 1.374 . S
C911 C908 1.499 . S
C911 C912 1.373 . S
C911 C913 1.389 . S
C912 H885 0.950 . S
C912 C898 1.377 . S
C912 C911 1.373 . S
C913 C897 1.377 . S
C913 C911 1.389 . S
C913 C914 1.524 . S
C914 C913 1.524 . S
C914 C915 1.397 . S
C914 C919 1.363 . S
C915 H886 0.950 . S
C915 C914 1.397 . S
C915 C916 1.334 . S
C916 H887 0.950 . S
C916 C915 1.334 . S
C916 C917 1.287 . S
C917 C916 1.287 . S
C917 C918 1.524 . S
C917 H920 0.999 . S
C918 H888 0.950 . S
C918 C917 1.524 . S
C918 C919 1.415 . S
C919 H889 0.950 . S
C919 C914 1.363 . S
C919 C918 1.415 . S
H920 C917 0.999 . S
H921 C902 0.913 . S
H922 C940 0.951 . S
H923 C942 0.951 . S
H924 C944 0.950 . S
H925 C945 0.950 . S
H926 C947 0.950 . S
H927 C950 0.950 . S
H928 C951 0.950 . S
H929 C953 0.952 1_554 S
H930 C954 0.950 . S
H931 C955 0.951 . S
H932 C957 0.951 . S
H933 C959 0.950 . S
H934 C960 0.950 . S
H935 C962 0.950 . S
H936 C965 0.950 . S
H937 C966 0.950 . S
H938 C968 0.950 . S
H939 C969 0.950 . S
C940 H922 0.951 . S
C940 C941 1.366 . S
C940 C942 1.388 . S
C941 C940 1.366 . S
C941 C945 1.385 . S
C942 H923 0.951 . S
C942 C940 1.388 . S
C942 C943 1.366 . S
C943 C942 1.366 . S
C943 C944 1.414 . S
C943 C946 1.499 . S
C944 H924 0.950 . S
C944 C943 1.414 . S
C944 C945 1.374 . S
C945 H925 0.950 . S
C945 C941 1.385 . S
C945 C944 1.374 . S
C946 C943 1.499 . S
C946 C947 1.373 . S
C946 C948 1.389 . S
C947 H926 0.950 . S
C947 C946 1.373 . S
C947 C963 1.377 . S
C948 C946 1.389 . S
C948 C949 1.524 . S
C948 C962 1.377 . S
C949 C948 1.524 . S
C949 C950 1.397 . S
C949 C954 1.363 . S
C950 H927 0.950 . S
C950 C949 1.397 . S
C950 C951 1.334 . S
C951 H928 0.950 . S
C951 C950 1.334 . S
C951 C952 1.287 . S
C952 C951 1.287 . S
C952 C953 1.524 . S
C952 H971 0.913 1_556 S
C953 H929 0.952 1_556 S
C953 C952 1.524 . S
C953 C954 1.415 . S
C954 H930 0.950 . S
C954 C949 1.363 . S
C954 C953 1.415 . S
C955 H931 0.951 . S
C955 C956 1.366 . S
C955 C957 1.388 . S
C956 C955 1.366 . S
C956 C960 1.385 . S
C957 H932 0.951 . S
C957 C955 1.388 . S
C957 C958 1.366 . S
C958 C957 1.366 . S
C958 C959 1.414 . S
C958 C961 1.499 . S
C959 H933 0.950 . S
C959 C958 1.414 . S
C959 C960 1.374 . S
C960 H934 0.950 . S
C960 C956 1.385 . S
C960 C959 1.374 . S
C961 C958 1.499 . S
C961 C962 1.373 . S
C961 C963 1.389 . S
C962 H935 0.950 . S
C962 C948 1.377 . S
C962 C961 1.373 . S
C963 C947 1.377 . S
C963 C961 1.389 . S
C963 C964 1.524 . S
C964 C963 1.524 . S
C964 C965 1.397 . S
C964 C969 1.363 . S
C965 H936 0.950 . S
C965 C964 1.397 . S
C965 C966 1.334 . S
C966 H937 0.950 . S
C966 C965 1.334 . S
C966 C967 1.287 . S
C967 C966 1.287 . S
C967 C968 1.524 . S
C967 H970 0.999 . S
C968 H938 0.950 . S
C968 C967 1.524 . S
C968 C969 1.415 . S
C969 H939 0.950 . S
C969 C964 1.363 . S
C969 C968 1.415 . S
H970 C967 0.999 . S
H971 C952 0.913 1_554 S
H972 C990 0.951 . S
H973 C992 0.951 . S
H974 C994 0.950 . S
H975 C995 0.950 . S
H976 C997 0.950 . S
H977 C1000 0.950 . S
H978 C1001 0.950 . S
H979 C1003 0.950 . S
H980 C1004 0.950 . S
H981 C1005 0.951 . S
H982 C1007 0.951 . S
H983 C1009 0.950 . S
H984 C1010 0.950 . S
H985 C1012 0.950 . S
H986 C1015 0.950 . S
H987 C1016 0.950 . S
H988 C1018 0.950 . S
H989 C1019 0.950 . S
C990 H972 0.951 . S
C990 C991 1.366 . S
C990 C992 1.388 . S
C991 C990 1.366 . S
C991 C995 1.385 . S
C992 H973 0.951 . S
C992 C990 1.388 . S
C992 C993 1.366 . S
C993 C992 1.366 . S
C993 C994 1.414 . S
C993 C996 1.499 . S
C994 H974 0.950 . S
C994 C993 1.414 . S
C994 C995 1.374 . S
C995 H975 0.950 . S
C995 C991 1.385 . S
C995 C994 1.374 . S
C996 C993 1.499 . S
C996 C997 1.373 . S
C996 C998 1.389 . S
C997 H976 0.950 . S
C997 C996 1.373 . S
C997 C1013 1.377 . S
C998 C996 1.389 . S
C998 C999 1.524 . S
C998 C1012 1.377 . S
C999 C998 1.524 . S
C999 C1000 1.397 . S
C999 C1004 1.363 . S
C1000 H977 0.950 . S
C1000 C999 1.397 . S
C1000 C1001 1.334 . S
C1001 H978 0.950 . S
C1001 C1000 1.334 . S
C1001 C1002 1.287 . S
C1002 C1001 1.287 . S
C1002 C1003 1.524 . S
C1002 H1021 0.913 . S
C1003 H979 0.950 . S
C1003 C1002 1.524 . S
C1003 C1004 1.415 . S
C1004 H980 0.950 . S
C1004 C999 1.363 . S
C1004 C1003 1.415 . S
C1005 H981 0.951 . S
C1005 C1006 1.366 . S
C1005 C1007 1.388 . S
C1006 C1005 1.366 . S
C1006 C1010 1.385 . S
C1007 H982 0.951 . S
C1007 C1005 1.388 . S
C1007 C1008 1.366 . S
C1008 C1007 1.366 . S
C1008 C1009 1.414 . S
C1008 C1011 1.499 . S
C1009 H983 0.950 . S
C1009 C1008 1.414 . S
C1009 C1010 1.374 . S
C1010 H984 0.950 . S
C1010 C1006 1.385 . S
C1010 C1009 1.374 . S
C1011 C1008 1.499 . S
C1011 C1012 1.373 . S
C1011 C1013 1.389 . S
C1012 H985 0.950 . S
C1012 C998 1.377 . S
C1012 C1011 1.373 . S
C1013 C997 1.377 . S
C1013 C1011 1.389 . S
C1013 C1014 1.524 . S
C1014 C1013 1.524 . S
C1014 C1015 1.397 . S
C1014 C1019 1.363 . S
C1015 H986 0.950 . S
C1015 C1014 1.397 . S
C1015 C1016 1.334 . S
C1016 H987 0.950 . S
C1016 C1015 1.334 . S
C1016 C1017 1.287 . S
C1017 C1016 1.287 . S
C1017 C1018 1.524 . S
C1017 H1020 0.999 . S
C1018 H988 0.950 . S
C1018 C1017 1.524 . S
C1018 C1019 1.415 . S
C1019 H989 0.950 . S
C1019 C1014 1.363 . S
C1019 C1018 1.415 . S
H1020 C1017 0.999 . S
H1021 C1002 0.913 . S
H1022 C1040 0.951 . S
H1023 C1042 0.951 . S
H1024 C1044 0.950 . S
H1025 C1045 0.950 . S
H1026 C1047 0.950 . S
H1027 C1050 0.950 . S
H1028 C1051 0.950 . S
H1029 C1053 0.950 . S
H1030 C1054 0.950 . S
H1031 C1055 0.951 . S
H1032 C1057 0.951 . S
H1033 C1059 0.950 . S
H1034 C1060 0.950 . S
H1035 C1062 0.950 . S
H1036 C1065 0.950 . S
H1037 C1066 0.950 . S
H1038 C1068 0.950 . S
H1039 C1069 0.950 . S
C1040 H1022 0.951 . S
C1040 C1041 1.366 . S
C1040 C1042 1.388 . S
C1041 C1040 1.366 . S
C1041 C1045 1.385 . S
C1042 H1023 0.951 . S
C1042 C1040 1.388 . S
C1042 C1043 1.366 . S
C1043 C1042 1.366 . S
C1043 C1044 1.414 . S
C1043 C1046 1.499 . S
C1044 H1024 0.950 . S
C1044 C1043 1.414 . S
C1044 C1045 1.374 . S
C1045 H1025 0.950 . S
C1045 C1041 1.385 . S
C1045 C1044 1.374 . S
C1046 C1043 1.499 . S
C1046 C1047 1.373 . S
C1046 C1048 1.389 . S
C1047 H1026 0.950 . S
C1047 C1046 1.373 . S
C1047 C1063 1.377 . S
C1048 C1046 1.389 . S
C1048 C1049 1.524 . S
C1048 C1062 1.377 . S
C1049 C1048 1.524 . S
C1049 C1050 1.397 . S
C1049 C1054 1.363 . S
C1050 H1027 0.950 . S
C1050 C1049 1.397 . S
C1050 C1051 1.334 . S
C1051 H1028 0.950 . S
C1051 C1050 1.334 . S
C1051 C1052 1.287 . S
C1052 C1051 1.287 . S
C1052 C1053 1.524 . S
C1052 H1071 0.913 . S
C1053 H1029 0.950 . S
C1053 C1052 1.524 . S
C1053 C1054 1.415 . S
C1054 H1030 0.950 . S
C1054 C1049 1.363 . S
C1054 C1053 1.415 . S
C1055 H1031 0.951 . S
C1055 C1056 1.366 . S
C1055 C1057 1.388 . S
C1056 C1055 1.366 . S
C1056 C1060 1.385 . S
C1057 H1032 0.951 . S
C1057 C1055 1.388 . S
C1057 C1058 1.366 . S
C1058 C1057 1.366 . S
C1058 C1059 1.414 . S
C1058 C1061 1.499 . S
C1059 H1033 0.950 . S
C1059 C1058 1.414 . S
C1059 C1060 1.374 . S
C1060 H1034 0.950 . S
C1060 C1056 1.385 . S
C1060 C1059 1.374 . S
C1061 C1058 1.499 . S
C1061 C1062 1.373 . S
C1061 C1063 1.389 . S
C1062 H1035 0.950 . S
C1062 C1048 1.377 . S
C1062 C1061 1.373 . S
C1063 C1047 1.377 . S
C1063 C1061 1.389 . S
C1063 C1064 1.524 . S
C1064 C1063 1.524 . S
C1064 C1065 1.397 . S
C1064 C1069 1.363 . S
C1065 H1036 0.950 . S
C1065 C1064 1.397 . S
C1065 C1066 1.334 . S
C1066 H1037 0.950 . S
C1066 C1065 1.334 . S
C1066 C1067 1.287 . S
C1067 C1066 1.287 . S
C1067 C1068 1.524 . S
C1067 H1070 0.999 . S
C1068 H1038 0.950 . S
C1068 C1067 1.524 . S
C1068 C1069 1.415 . S
C1069 H1039 0.950 . S
C1069 C1064 1.363 . S
C1069 C1068 1.415 . S
H1070 C1067 0.999 . S
H1071 C1052 0.913 . S
H1072 C1090 0.951 . S
H1073 C1092 0.951 . S
H1074 C1094 0.950 . S
H1075 C1095 0.950 . S
H1076 C1097 0.950 . S
H1077 C1100 0.950 . S
H1078 C1101 0.950 . S
H1079 C1103 0.950 . S
H1080 C1104 0.950 . S
H1081 C1105 0.951 . S
H1082 C1107 0.951 . S
H1083 C1109 0.950 . S
H1084 C1110 0.950 . S
H1085 C1112 0.950 . S
H1086 C1115 0.950 . S
H1087 C1116 0.950 . S
H1088 C1118 0.950 . S
H1089 C1119 0.950 . S
C1090 H1072 0.951 . S
C1090 C1091 1.366 . S
C1090 C1092 1.388 . S
C1091 C1090 1.366 . S
C1091 C1095 1.385 . S
C1092 H1073 0.951 . S
C1092 C1090 1.388 . S
C1092 C1093 1.366 . S
C1093 C1092 1.366 . S
C1093 C1094 1.414 . S
C1093 C1096 1.499 . S
C1094 H1074 0.950 . S
C1094 C1093 1.414 . S
C1094 C1095 1.374 . S
C1095 H1075 0.950 . S
C1095 C1091 1.385 . S
C1095 C1094 1.374 . S
C1096 C1093 1.499 . S
C1096 C1097 1.373 . S
C1096 C1098 1.389 . S
C1097 H1076 0.950 . S
C1097 C1096 1.373 . S
C1097 C1113 1.377 . S
C1098 C1096 1.389 . S
C1098 C1099 1.524 . S
C1098 C1112 1.377 . S
C1099 C1098 1.524 . S
C1099 C1100 1.397 . S
C1099 C1104 1.363 . S
C1100 H1077 0.950 . S
C1100 C1099 1.397 . S
C1100 C1101 1.334 . S
C1101 H1078 0.950 . S
C1101 C1100 1.334 . S
C1101 C1102 1.287 . S
C1102 C1101 1.287 . S
C1102 C1103 1.524 . S
C1102 H1121 0.913 . S
C1103 H1079 0.950 . S
C1103 C1102 1.524 . S
C1103 C1104 1.415 . S
C1104 H1080 0.950 . S
C1104 C1099 1.363 . S
C1104 C1103 1.415 . S
C1105 H1081 0.951 . S
C1105 C1106 1.366 . S
C1105 C1107 1.388 . S
C1106 C1105 1.366 . S
C1106 C1110 1.385 . S
C1107 H1082 0.951 . S
C1107 C1105 1.388 . S
C1107 C1108 1.366 . S
C1108 C1107 1.366 . S
C1108 C1109 1.414 . S
C1108 C1111 1.499 . S
C1109 H1083 0.950 . S
C1109 C1108 1.414 . S
C1109 C1110 1.374 . S
C1110 H1084 0.950 . S
C1110 C1106 1.385 . S
C1110 C1109 1.374 . S
C1111 C1108 1.499 . S
C1111 C1112 1.373 . S
C1111 C1113 1.389 . S
C1112 H1085 0.950 . S
C1112 C1098 1.377 . S
C1112 C1111 1.373 . S
C1113 C1097 1.377 . S
C1113 C1111 1.389 . S
C1113 C1114 1.524 . S
C1114 C1113 1.524 . S
C1114 C1115 1.397 . S
C1114 C1119 1.363 . S
C1115 H1086 0.950 . S
C1115 C1114 1.397 . S
C1115 C1116 1.334 . S
C1116 H1087 0.950 . S
C1116 C1115 1.334 . S
C1116 C1117 1.287 . S
C1117 C1116 1.287 . S
C1117 C1118 1.524 . S
C1117 H1120 0.999 . S
C1118 H1088 0.950 . S
C1118 C1117 1.524 . S
C1118 C1119 1.415 . S
C1119 H1089 0.950 . S
C1119 C1114 1.363 . S
C1119 C1118 1.415 . S
H1120 C1117 0.999 . S
H1121 C1102 0.913 . S
H1122 C1140 0.951 . S
H1123 C1142 0.951 . S
H1124 C1144 0.950 . S
H1125 C1145 0.950 . S
H1126 C1147 0.950 . S
H1127 C1150 0.950 . S
H1128 C1151 0.950 . S
H1129 C1153 0.950 . S
H1130 C1154 0.950 . S
H1131 C1155 0.951 . S
H1132 C1157 0.951 . S
H1133 C1159 0.950 . S
H1134 C1160 0.950 . S
H1135 C1162 0.950 . S
H1136 C1165 0.950 . S
H1137 C1166 0.950 . S
H1138 C1168 0.950 . S
H1139 C1169 0.950 . S
C1140 H1122 0.951 . S
C1140 C1141 1.366 . S
C1140 C1142 1.388 . S
C1141 C1140 1.366 . S
C1141 C1145 1.385 . S
C1142 H1123 0.951 . S
C1142 C1140 1.388 . S
C1142 C1143 1.366 . S
C1143 C1142 1.366 . S
C1143 C1144 1.414 . S
C1143 C1146 1.499 . S
C1144 H1124 0.950 . S
C1144 C1143 1.414 . S
C1144 C1145 1.374 . S
C1145 H1125 0.950 . S
C1145 C1141 1.385 . S
C1145 C1144 1.374 . S
C1146 C1143 1.499 . S
C1146 C1147 1.373 . S
C1146 C1148 1.389 . S
C1147 H1126 0.950 . S
C1147 C1146 1.373 . S
C1147 C1163 1.377 . S
C1148 C1146 1.389 . S
C1148 C1149 1.524 . S
C1148 C1162 1.377 . S
C1149 C1148 1.524 . S
C1149 C1150 1.397 . S
C1149 C1154 1.363 . S
C1150 H1127 0.950 . S
C1150 C1149 1.397 . S
C1150 C1151 1.334 . S
C1151 H1128 0.950 . S
C1151 C1150 1.334 . S
C1151 C1152 1.287 . S
C1152 C1151 1.287 . S
C1152 C1153 1.524 . S
C1152 H1171 0.913 . S
C1153 H1129 0.950 . S
C1153 C1152 1.524 . S
C1153 C1154 1.415 . S
C1154 H1130 0.950 . S
C1154 C1149 1.363 . S
C1154 C1153 1.415 . S
C1155 H1131 0.951 . S
C1155 C1156 1.366 . S
C1155 C1157 1.388 . S
C1156 C1155 1.366 . S
C1156 C1160 1.385 . S
C1157 H1132 0.951 . S
C1157 C1155 1.388 . S
C1157 C1158 1.366 . S
C1158 C1157 1.366 . S
C1158 C1159 1.414 . S
C1158 C1161 1.499 . S
C1159 H1133 0.950 . S
C1159 C1158 1.414 . S
C1159 C1160 1.374 . S
C1160 H1134 0.950 . S
C1160 C1156 1.385 . S
C1160 C1159 1.374 . S
C1161 C1158 1.499 . S
C1161 C1162 1.373 . S
C1161 C1163 1.389 . S
C1162 H1135 0.950 . S
C1162 C1148 1.377 . S
C1162 C1161 1.373 . S
C1163 C1147 1.377 . S
C1163 C1161 1.389 . S
C1163 C1164 1.524 . S
C1164 C1163 1.524 . S
C1164 C1165 1.397 . S
C1164 C1169 1.363 . S
C1165 H1136 0.950 . S
C1165 C1164 1.397 . S
C1165 C1166 1.334 . S
C1166 H1137 0.950 . S
C1166 C1165 1.334 . S
C1166 C1167 1.287 . S
C1167 C1166 1.287 . S
C1167 C1168 1.524 . S
C1167 H1170 0.999 . S
C1168 H1138 0.950 . S
C1168 C1167 1.524 . S
C1168 C1169 1.415 . S
C1169 H1139 0.950 . S
C1169 C1164 1.363 . S
C1169 C1168 1.415 . S
H1170 C1167 0.999 . S
H1171 C1152 0.913 . S
H1172 C1190 0.951 . S
H1173 C1192 0.951 . S
H1174 C1194 0.950 . S
H1175 C1195 0.950 . S
H1176 C1197 0.950 . S
H1177 C1200 0.950 . S
H1178 C1201 0.950 . S
H1179 C1203 0.950 . S
H1180 C1204 0.950 . S
H1181 C1205 0.951 . S
H1182 C1207 0.951 . S
H1183 C1209 0.950 . S
H1184 C1210 0.950 . S
H1185 C1212 0.950 . S
H1186 C1215 0.950 . S
H1187 C1216 0.950 . S
H1188 C1218 0.950 . S
H1189 C1219 0.950 . S
C1190 H1172 0.951 . S
C1190 C1191 1.366 . S
C1190 C1192 1.388 . S
C1191 C1190 1.366 . S
C1191 C1195 1.385 . S
C1192 H1173 0.951 . S
C1192 C1190 1.388 . S
C1192 C1193 1.366 . S
C1193 C1192 1.366 . S
C1193 C1194 1.414 . S
C1193 C1196 1.499 . S
C1194 H1174 0.950 . S
C1194 C1193 1.414 . S
C1194 C1195 1.374 . S
C1195 H1175 0.950 . S
C1195 C1191 1.385 . S
C1195 C1194 1.374 . S
C1196 C1193 1.499 . S
C1196 C1197 1.373 . S
C1196 C1198 1.389 . S
C1197 H1176 0.950 . S
C1197 C1196 1.373 . S
C1197 C1213 1.377 . S
C1198 C1196 1.389 . S
C1198 C1199 1.524 . S
C1198 C1212 1.377 . S
C1199 C1198 1.524 . S
C1199 C1200 1.397 . S
C1199 C1204 1.363 . S
C1200 H1177 0.950 . S
C1200 C1199 1.397 . S
C1200 C1201 1.334 . S
C1201 H1178 0.950 . S
C1201 C1200 1.334 . S
C1201 C1202 1.287 . S
C1202 C1201 1.287 . S
C1202 C1203 1.524 . S
C1202 H1221 0.913 . S
C1203 H1179 0.950 . S
C1203 C1202 1.524 . S
C1203 C1204 1.415 . S
C1204 H1180 0.950 . S
C1204 C1199 1.363 . S
C1204 C1203 1.415 . S
C1205 H1181 0.951 . S
C1205 C1206 1.366 . S
C1205 C1207 1.388 . S
C1206 C1205 1.366 . S
C1206 C1210 1.385 . S
C1207 H1182 0.951 . S
C1207 C1205 1.388 . S
C1207 C1208 1.366 . S
C1208 C1207 1.366 . S
C1208 C1209 1.414 . S
C1208 C1211 1.499 . S
C1209 H1183 0.950 . S
C1209 C1208 1.414 . S
C1209 C1210 1.374 . S
C1210 H1184 0.950 . S
C1210 C1206 1.385 . S
C1210 C1209 1.374 . S
C1211 C1208 1.499 . S
C1211 C1212 1.373 . S
C1211 C1213 1.389 . S
C1212 H1185 0.950 . S
C1212 C1198 1.377 . S
C1212 C1211 1.373 . S
C1213 C1197 1.377 . S
C1213 C1211 1.389 . S
C1213 C1214 1.524 . S
C1214 C1213 1.524 . S
C1214 C1215 1.397 . S
C1214 C1219 1.363 . S
C1215 H1186 0.950 . S
C1215 C1214 1.397 . S
C1215 C1216 1.334 . S
C1216 H1187 0.950 . S
C1216 C1215 1.334 . S
C1216 C1217 1.287 . S
C1217 C1216 1.287 . S
C1217 C1218 1.524 . S
C1217 H1220 0.999 . S
C1218 H1188 0.950 . S
C1218 C1217 1.524 . S
C1218 C1219 1.415 . S
C1219 H1189 0.950 . S
C1219 C1214 1.363 . S
C1219 C1218 1.415 . S
H1220 C1217 0.999 . S
H1221 C1202 0.913 . S
H1222 C1240 0.951 . S
H1223 C1242 0.951 . S
H1224 C1244 0.950 . S
H1225 C1245 0.950 . S
H1226 C1247 0.950 . S
H1227 C1250 0.950 . S
H1228 C1251 0.950 . S
H1229 C1253 0.950 . S
H1230 C1254 0.950 . S
H1231 C1255 0.951 . S
H1232 C1257 0.951 . S
H1233 C1259 0.950 . S
H1234 C1260 0.950 . S
H1235 C1262 0.950 . S
H1236 C1265 0.950 . S
H1237 C1266 0.950 . S
H1238 C1268 0.950 . S
H1239 C1269 0.950 . S
C1240 H1222 0.951 . S
C1240 C1241 1.366 . S
C1240 C1242 1.388 . S
C1241 C1240 1.366 . S
C1241 C1245 1.385 . S
C1242 H1223 0.951 . S
C1242 C1240 1.388 . S
C1242 C1243 1.366 . S
C1243 C1242 1.366 . S
C1243 C1244 1.414 . S
C1243 C1246 1.499 . S
C1244 H1224 0.950 . S
C1244 C1243 1.414 . S
C1244 C1245 1.374 . S
C1245 H1225 0.950 . S
C1245 C1241 1.385 . S
C1245 C1244 1.374 . S
C1246 C1243 1.499 . S
C1246 C1247 1.373 . S
C1246 C1248 1.389 . S
C1247 H1226 0.950 . S
C1247 C1246 1.373 . S
C1247 C1263 1.377 . S
C1248 C1246 1.389 . S
C1248 C1249 1.524 . S
C1248 C1262 1.377 . S
C1249 C1248 1.524 . S
C1249 C1250 1.397 . S
C1249 C1254 1.363 . S
C1250 H1227 0.950 . S
C1250 C1249 1.397 . S
C1250 C1251 1.334 . S
C1251 H1228 0.950 . S
C1251 C1250 1.334 . S
C1251 C1252 1.287 . S
C1252 C1251 1.287 . S
C1252 C1253 1.524 . S
C1252 H1271 0.913 . S
C1253 H1229 0.950 . S
C1253 C1252 1.524 . S
C1253 C1254 1.415 . S
C1254 H1230 0.950 . S
C1254 C1249 1.363 . S
C1254 C1253 1.415 . S
C1255 H1231 0.951 . S
C1255 C1256 1.366 . S
C1255 C1257 1.388 . S
C1256 C1255 1.366 . S
C1256 C1260 1.385 . S
C1257 H1232 0.951 . S
C1257 C1255 1.388 . S
C1257 C1258 1.366 . S
C1258 C1257 1.366 . S
C1258 C1259 1.414 . S
C1258 C1261 1.499 . S
C1259 H1233 0.950 . S
C1259 C1258 1.414 . S
C1259 C1260 1.374 . S
C1260 H1234 0.950 . S
C1260 C1256 1.385 . S
C1260 C1259 1.374 . S
C1261 C1258 1.499 . S
C1261 C1262 1.373 . S
C1261 C1263 1.389 . S
C1262 H1235 0.950 . S
C1262 C1248 1.377 . S
C1262 C1261 1.373 . S
C1263 C1247 1.377 . S
C1263 C1261 1.389 . S
C1263 C1264 1.524 . S
C1264 C1263 1.524 . S
C1264 C1265 1.397 . S
C1264 C1269 1.363 . S
C1265 H1236 0.950 . S
C1265 C1264 1.397 . S
C1265 C1266 1.334 . S
C1266 H1237 0.950 . S
C1266 C1265 1.334 . S
C1266 C1267 1.287 . S
C1267 C1266 1.287 . S
C1267 C1268 1.524 . S
C1267 H1270 0.999 . S
C1268 H1238 0.950 . S
C1268 C1267 1.524 . S
C1268 C1269 1.415 . S
C1269 H1239 0.950 . S
C1269 C1264 1.363 . S
C1269 C1268 1.415 . S
H1270 C1267 0.999 . S
H1271 C1252 0.913 . S
H1272 C1290 0.951 . S
H1273 C1292 0.951 . S
H1274 C1294 0.950 . S
H1275 C1295 0.950 . S
H1276 C1297 0.950 . S
H1277 C1300 0.950 . S
H1278 C1301 0.950 . S
H1279 C1303 0.950 . S
H1280 C1304 0.950 . S
H1281 C1305 0.951 . S
H1282 C1307 0.951 . S
H1283 C1309 0.950 . S
H1284 C1310 0.950 . S
H1285 C1312 0.950 . S
H1286 C1315 0.950 . S
H1287 C1316 0.950 . S
H1288 C1318 0.950 . S
H1289 C1319 0.950 . S
C1290 H1272 0.951 . S
C1290 C1291 1.366 . S
C1290 C1292 1.388 . S
C1291 C1290 1.366 . S
C1291 C1295 1.385 . S
C1292 H1273 0.951 . S
C1292 C1290 1.388 . S
C1292 C1293 1.366 . S
C1293 C1292 1.366 . S
C1293 C1294 1.414 . S
C1293 C1296 1.499 . S
C1294 H1274 0.950 . S
C1294 C1293 1.414 . S
C1294 C1295 1.374 . S
C1295 H1275 0.950 . S
C1295 C1291 1.385 . S
C1295 C1294 1.374 . S
C1296 C1293 1.499 . S
C1296 C1297 1.373 . S
C1296 C1298 1.389 . S
C1297 H1276 0.950 . S
C1297 C1296 1.373 . S
C1297 C1313 1.377 . S
C1298 C1296 1.389 . S
C1298 C1299 1.524 . S
C1298 C1312 1.377 . S
C1299 C1298 1.524 . S
C1299 C1300 1.397 . S
C1299 C1304 1.363 . S
C1300 H1277 0.950 . S
C1300 C1299 1.397 . S
C1300 C1301 1.334 . S
C1301 H1278 0.950 . S
C1301 C1300 1.334 . S
C1301 C1302 1.287 . S
C1302 C1301 1.287 . S
C1302 C1303 1.524 . S
C1302 H1321 0.913 . S
C1303 H1279 0.950 . S
C1303 C1302 1.524 . S
C1303 C1304 1.415 . S
C1304 H1280 0.950 . S
C1304 C1299 1.363 . S
C1304 C1303 1.415 . S
C1305 H1281 0.951 . S
C1305 C1306 1.366 . S
C1305 C1307 1.388 . S
C1306 C1305 1.366 . S
C1306 C1310 1.385 . S
C1307 H1282 0.951 . S
C1307 C1305 1.388 . S
C1307 C1308 1.366 . S
C1308 C1307 1.366 . S
C1308 C1309 1.414 . S
C1308 C1311 1.499 . S
C1309 H1283 0.950 . S
C1309 C1308 1.414 . S
C1309 C1310 1.374 . S
C1310 H1284 0.950 . S
C1310 C1306 1.385 . S
C1310 C1309 1.374 . S
C1311 C1308 1.499 . S
C1311 C1312 1.373 . S
C1311 C1313 1.389 . S
C1312 H1285 0.950 . S
C1312 C1298 1.377 . S
C1312 C1311 1.373 . S
C1313 C1297 1.377 . S
C1313 C1311 1.389 . S
C1313 C1314 1.524 . S
C1314 C1313 1.524 . S
C1314 C1315 1.397 . S
C1314 C1319 1.363 . S
C1315 H1286 0.950 . S
C1315 C1314 1.397 . S
C1315 C1316 1.334 . S
C1316 H1287 0.950 . S
C1316 C1315 1.334 . S
C1316 C1317 1.287 . S
C1317 C1316 1.287 . S
C1317 C1318 1.524 . S
C1317 H1320 0.999 . S
C1318 H1288 0.950 . S
C1318 C1317 1.524 . S
C1318 C1319 1.415 . S
C1319 H1289 0.950 . S
C1319 C1314 1.363 . S
C1319 C1318 1.415 . S
H1320 C1317 0.999 . S
H1321 C1302 0.913 . S
H1322 C1340 0.951 . S
H1323 C1342 0.951 . S
H1324 C1344 0.950 . S
H1325 C1345 0.950 . S
H1326 C1347 0.950 . S
H1327 C1350 0.950 . S
H1328 C1351 0.950 . S
H1329 C1353 0.950 . S
H1330 C1354 0.950 . S
H1331 C1355 0.951 . S
H1332 C1357 0.951 . S
H1333 C1359 0.950 . S
H1334 C1360 0.950 . S
H1335 C1362 0.950 . S
H1336 C1365 0.950 . S
H1337 C1366 0.950 . S
H1338 C1368 0.950 . S
H1339 C1369 0.950 . S
C1340 H1322 0.951 . S
C1340 C1341 1.366 . S
C1340 C1342 1.388 . S
C1341 C1340 1.366 . S
C1341 C1345 1.385 . S
C1342 H1323 0.951 . S
C1342 C1340 1.388 . S
C1342 C1343 1.366 . S
C1343 C1342 1.366 . S
C1343 C1344 1.414 . S
C1343 C1346 1.499 . S
C1344 H1324 0.950 . S
C1344 C1343 1.414 . S
C1344 C1345 1.374 . S
C1345 H1325 0.950 . S
C1345 C1341 1.385 . S
C1345 C1344 1.374 . S
C1346 C1343 1.499 . S
C1346 C1347 1.373 . S
C1346 C1348 1.389 . S
C1347 H1326 0.950 . S
C1347 C1346 1.373 . S
C1347 C1363 1.377 . S
C1348 C1346 1.389 . S
C1348 C1349 1.524 . S
C1348 C1362 1.377 . S
C1349 C1348 1.524 . S
C1349 C1350 1.397 . S
C1349 C1354 1.363 . S
C1350 H1327 0.950 . S
C1350 C1349 1.397 . S
C1350 C1351 1.334 . S
C1351 H1328 0.950 . S
C1351 C1350 1.334 . S
C1351 C1352 1.287 . S
C1352 C1351 1.287 . S
C1352 C1353 1.524 . S
C1352 H1371 0.913 . S
C1353 H1329 0.950 . S
C1353 C1352 1.524 . S
C1353 C1354 1.415 . S
C1354 H1330 0.950 . S
C1354 C1349 1.363 . S
C1354 C1353 1.415 . S
C1355 H1331 0.951 . S
C1355 C1356 1.366 . S
C1355 C1357 1.388 . S
C1356 C1355 1.366 . S
C1356 C1360 1.385 . S
C1357 H1332 0.951 . S
C1357 C1355 1.388 . S
C1357 C1358 1.366 . S
C1358 C1357 1.366 . S
C1358 C1359 1.414 . S
C1358 C1361 1.499 . S
C1359 H1333 0.950 . S
C1359 C1358 1.414 . S
C1359 C1360 1.374 . S
C1360 H1334 0.950 . S
C1360 C1356 1.385 . S
C1360 C1359 1.374 . S
C1361 C1358 1.499 . S
C1361 C1362 1.373 . S
C1361 C1363 1.389 . S
C1362 H1335 0.950 . S
C1362 C1348 1.377 . S
C1362 C1361 1.373 . S
C1363 C1347 1.377 . S
C1363 C1361 1.389 . S
C1363 C1364 1.524 . S
C1364 C1363 1.524 . S
C1364 C1365 1.397 . S
C1364 C1369 1.363 . S
C1365 H1336 0.950 . S
C1365 C1364 1.397 . S
C1365 C1366 1.334 . S
C1366 H1337 0.950 . S
C1366 C1365 1.334 . S
C1366 C1367 1.287 . S
C1367 C1366 1.287 . S
C1367 C1368 1.524 . S
C1367 H1370 0.999 . S
C1368 H1338 0.950 . S
C1368 C1367 1.524 . S
C1368 C1369 1.415 . S
C1369 H1339 0.950 . S
C1369 C1364 1.363 . S
C1369 C1368 1.415 . S
H1370 C1367 0.999 . S
H1371 C1352 0.913 . S
H1372 C1390 0.951 . S
H1373 C1392 0.951 . S
H1374 C1394 0.950 . S
H1375 C1395 0.950 . S
H1376 C1397 0.950 . S
H1377 C1400 0.950 . S
H1378 C1401 0.950 . S
H1379 C1403 0.950 . S
H1380 C1404 0.950 . S
H1381 C1405 0.951 . S
H1382 C1407 0.951 . S
H1383 C1409 0.950 . S
H1384 C1410 0.950 . S
H1385 C1412 0.950 . S
H1386 C1415 0.950 . S
H1387 C1416 0.950 . S
H1388 C1418 0.950 . S
H1389 C1419 0.950 . S
C1390 H1372 0.951 . S
C1390 C1391 1.366 . S
C1390 C1392 1.388 . S
C1391 C1390 1.366 . S
C1391 C1395 1.385 . S
C1392 H1373 0.951 . S
C1392 C1390 1.388 . S
C1392 C1393 1.366 . S
C1393 C1392 1.366 . S
C1393 C1394 1.414 . S
C1393 C1396 1.499 . S
C1394 H1374 0.950 . S
C1394 C1393 1.414 . S
C1394 C1395 1.374 . S
C1395 H1375 0.950 . S
C1395 C1391 1.385 . S
C1395 C1394 1.374 . S
C1396 C1393 1.499 . S
C1396 C1397 1.373 . S
C1396 C1398 1.389 . S
C1397 H1376 0.950 . S
C1397 C1396 1.373 . S
C1397 C1413 1.377 . S
C1398 C1396 1.389 . S
C1398 C1399 1.524 . S
C1398 C1412 1.377 . S
C1399 C1398 1.524 . S
C1399 C1400 1.397 . S
C1399 C1404 1.363 . S
C1400 H1377 0.950 . S
C1400 C1399 1.397 . S
C1400 C1401 1.334 . S
C1401 H1378 0.950 . S
C1401 C1400 1.334 . S
C1401 C1402 1.287 . S
C1402 C1401 1.287 . S
C1402 C1403 1.524 . S
C1402 H1421 0.913 . S
C1403 H1379 0.950 . S
C1403 C1402 1.524 . S
C1403 C1404 1.415 . S
C1404 H1380 0.950 . S
C1404 C1399 1.363 . S
C1404 C1403 1.415 . S
C1405 H1381 0.951 . S
C1405 C1406 1.366 . S
C1405 C1407 1.388 . S
C1406 C1405 1.366 . S
C1406 C1410 1.385 . S
C1407 H1382 0.951 . S
C1407 C1405 1.388 . S
C1407 C1408 1.366 . S
C1408 C1407 1.366 . S
C1408 C1409 1.414 . S
C1408 C1411 1.499 . S
C1409 H1383 0.950 . S
C1409 C1408 1.414 . S
C1409 C1410 1.374 . S
C1410 H1384 0.950 . S
C1410 C1406 1.385 . S
C1410 C1409 1.374 . S
C1411 C1408 1.499 . S
C1411 C1412 1.373 . S
C1411 C1413 1.389 . S
C1412 H1385 0.950 . S
C1412 C1398 1.377 . S
C1412 C1411 1.373 . S
C1413 C1397 1.377 . S
C1413 C1411 1.389 . S
C1413 C1414 1.524 . S
C1414 C1413 1.524 . S
C1414 C1415 1.397 . S
C1414 C1419 1.363 . S
C1415 H1386 0.950 . S
C1415 C1414 1.397 . S
C1415 C1416 1.334 . S
C1416 H1387 0.950 . S
C1416 C1415 1.334 . S
C1416 C1417 1.287 . S
C1417 C1416 1.287 . S
C1417 C1418 1.524 . S
C1417 H1420 0.999 . S
C1418 H1388 0.950 . S
C1418 C1417 1.524 . S
C1418 C1419 1.415 . S
C1419 H1389 0.950 . S
C1419 C1414 1.363 . S
C1419 C1418 1.415 . S
H1420 C1417 0.999 . S
H1421 C1402 0.913 . S
C241 C13 2.077 . S
C256 C91 2.047 . S
C291 C27 1.418 . S
C306 N109 1.408 . S
C356 C137 2.046 . S
C341 C29 2.077 . S
C406 N155 1.409 . S
C391 C54 1.418 . S
C456 C183 2.046 . S
C441 C69 2.077 . S
C506 N201 1.408 . S
C491 C83 1.418 . S
C541 C15 2.071 . S
C556 C146 2.065 . S
C591 C41 1.420 . S
C606 N165 1.349 . S
C656 C192 2.065 . S
C641 C42 2.071 . S
C706 N211 1.349 . S
C691 C57 1.420 . S
C741 C71 2.071 . S
C756 C100 2.065 . S
C806 N119 1.349 . S
C791 C1 1.420 . S
C856 C169 1.887 . S
C841 C12 1.945 . S
C891 C26 1.283 . S
C906 N188 1.258 . S
C956 C215 1.887 . S
C941 C28 1.945 . S
C991 C55 1.283 . S
C1006 N96 1.257 . S
C1041 C68 1.945 . S
C1056 C123 1.887 . S
C1091 C82 1.283 . S
C1106 N142 1.257 . S
C1141 C14 1.955 . S
C1156 C206 1.933 . S
C1206 N86 1.200 . S
C1191 C40 1.281 . S
C1241 C43 1.955 . S
C1256 C114 1.932 . S
C1291 C56 1.281 . S
C1306 N132 1.199 . S
C1341 C70 1.955 . S
C1356 C160 1.932 . S
C1391 C0 1.281 . S
C1406 N178 1.199 . S
