# Generated by pormake.
# Topology pyr, (3,6)-cn, num edge types: 1
# Building blocks:
#     Node 0, Type 0, BuildingBlock: OLANEW_clean_sbu_2, # of connection points: 3
#     Node 1, Type 0, BuildingBlock: OLANEW_clean_sbu_2, # of connection points: 3
#     Node 2, Type 0, BuildingBlock: OLANEW_clean_sbu_2, # of connection points: 3
#     Node 3, Type 0, BuildingBlock: OLANEW_clean_sbu_2, # of connection points: 3
#     Node 4, Type 0, BuildingBlock: OLANEW_clean_sbu_2, # of connection points: 3
#     Node 5, Type 0, BuildingBlock: OLANEW_clean_sbu_2, # of connection points: 3
#     Node 6, Type 0, BuildingBlock: OLANEW_clean_sbu_2, # of connection points: 3
#     Node 7, Type 0, BuildingBlock: OLANEW_clean_sbu_2, # of connection points: 3
#     Node 8, Type 1, BuildingBlock: BETFAJ_clean_sbu_0, # of connection points: 6
#     Node 9, Type 1, BuildingBlock: BETFAJ_clean_sbu_0, # of connection points: 6
#     Node 10, Type 1, BuildingBlock: BETFAJ_clean_sbu_0, # of connection points: 6
#     Node 11, Type 1, BuildingBlock: BETFAJ_clean_sbu_0, # of connection points: 6
#     Edge 12, Type (0, 1), BuildingBlock: EZIPEK_clean_linker_0, # of connection points: 2
#     Edge 13, Type (0, 1), BuildingBlock: EZIPEK_clean_linker_0, # of connection points: 2
#     Edge 14, Type (0, 1), BuildingBlock: EZIPEK_clean_linker_0, # of connection points: 2
#     Edge 15, Type (0, 1), BuildingBlock: EZIPEK_clean_linker_0, # of connection points: 2
#     Edge 16, Type (0, 1), BuildingBlock: EZIPEK_clean_linker_0, # of connection points: 2
#     Edge 17, Type (0, 1), BuildingBlock: EZIPEK_clean_linker_0, # of connection points: 2
#     Edge 18, Type (0, 1), BuildingBlock: EZIPEK_clean_linker_0, # of connection points: 2
#     Edge 19, Type (0, 1), BuildingBlock: EZIPEK_clean_linker_0, # of connection points: 2
#     Edge 20, Type (0, 1), BuildingBlock: EZIPEK_clean_linker_0, # of connection points: 2
#     Edge 21, Type (0, 1), BuildingBlock: EZIPEK_clean_linker_0, # of connection points: 2
#     Edge 22, Type (0, 1), BuildingBlock: EZIPEK_clean_linker_0, # of connection points: 2
#     Edge 23, Type (0, 1), BuildingBlock: EZIPEK_clean_linker_0, # of connection points: 2
#     Edge 24, Type (0, 1), BuildingBlock: EZIPEK_clean_linker_0, # of connection points: 2
#     Edge 25, Type (0, 1), BuildingBlock: EZIPEK_clean_linker_0, # of connection points: 2
#     Edge 26, Type (0, 1), BuildingBlock: EZIPEK_clean_linker_0, # of connection points: 2
#     Edge 27, Type (0, 1), BuildingBlock: EZIPEK_clean_linker_0, # of connection points: 2
#     Edge 28, Type (0, 1), BuildingBlock: EZIPEK_clean_linker_0, # of connection points: 2
#     Edge 29, Type (0, 1), BuildingBlock: EZIPEK_clean_linker_0, # of connection points: 2
#     Edge 30, Type (0, 1), BuildingBlock: EZIPEK_clean_linker_0, # of connection points: 2
#     Edge 31, Type (0, 1), BuildingBlock: EZIPEK_clean_linker_0, # of connection points: 2
#     Edge 32, Type (0, 1), BuildingBlock: EZIPEK_clean_linker_0, # of connection points: 2
#     Edge 33, Type (0, 1), BuildingBlock: EZIPEK_clean_linker_0, # of connection points: 2
#     Edge 34, Type (0, 1), BuildingBlock: EZIPEK_clean_linker_0, # of connection points: 2
#     Edge 35, Type (0, 1), BuildingBlock: EZIPEK_clean_linker_0, # of connection points: 2
# Relax obj value: 0.187
# Max RMSD: 0.177
# Mean RMSD: 0.123
data_MOF--net-pyr--node1-OLANEW_clean_sbu_2--node2-BETFAJ_clean_sbu_0--edge1-EZIPEK_clean_linker_0
_symmetry_space_group_name_H-M    P1
_symmetry_Int_Tables_number       1
_symmetry_cell_setting            triclinic
loop_
_symmetry_equiv_pos_as_xyz
'x, y, z'
_cell_length_a     30.606187
_cell_length_b     35.273492
_cell_length_c     31.097869
_cell_angle_alpha  97.234416
_cell_angle_beta   87.212522
_cell_angle_gamma 104.60889
loop_
_atom_site_label
_atom_site_type_symbol
_atom_site_fract_x
_atom_site_fract_y
_atom_site_fract_z
_atom_type_partial_charge
O0 O 0.42101 0.28305 0.17604 0.0
Cd1 Cd 0.40023 0.34223 0.2178 0.0
O2 O 0.41741 0.26959 0.24224 0.0
Cd3 Cd 0.41116 0.23745 0.29765 0.0
O4 O 0.35237 0.23557 0.33935 0.0
C5 C 0.34765 0.22382 0.37651 0.0
O6 O 0.38098 0.21353 0.39312 0.0
C7 C 0.42337 0.25874 0.2024 0.0
C8 C 0.33302 0.37787 0.19325 0.0
O9 O 0.37518 0.39483 0.19042 0.0
O10 O 0.32252 0.34364 0.20643 0.0
O11 O 0.2793 0.89934 0.68662 0.0
Cd12 Cd 0.2437 0.86983 0.61803 0.0
O13 O 0.23327 0.85832 0.72635 0.0
Cd14 Cd 0.18879 0.83459 0.67186 0.0
O15 O 0.15497 0.86868 0.63791 0.0
C16 C 0.16764 0.90486 0.65274 0.0
O17 O 0.19565 0.91564 0.68506 0.0
C18 C 0.26786 0.88684 0.72313 0.0
C19 C 0.29845 0.82098 0.59175 0.0
O20 O 0.30696 0.85551 0.57961 0.0
O21 O 0.26159 0.8082 0.61262 0.0
O22 O 0.75414 0.43857 0.87648 0.0
Cd23 Cd 0.68577 0.42899 0.82335 0.0
O24 O 0.73164 0.38629 0.91249 0.0
Cd25 Cd 0.69815 0.32933 0.9444 0.0
O26 O 0.64747 0.27589 0.97149 0.0
C27 C 0.64732 0.23909 0.96413 0.0
O28 O 0.67916 0.229 0.93886 0.0
C29 C 0.76202 0.41802 0.9057 0.0
C30 C 0.65644 0.46762 0.75511 0.0
O31 O 0.64747 0.47605 0.79545 0.0
O32 O 0.68149 0.44328 0.74648 0.0
O33 O 0.94173 0.78084 0.39005 0.0
Cd34 Cd 0.92388 0.71448 0.337 0.0
O35 O 0.91829 0.76136 0.45417 0.0
Cd36 Cd 0.88309 0.69983 0.43542 0.0
O37 O 0.82068 0.65696 0.45169 0.0
C38 C 0.78903 0.6712 0.46948 0.0
O39 O 0.79479 0.70963 0.47628 0.0
C40 C 0.93622 0.78897 0.43132 0.0
C41 C 0.95307 0.66729 0.26153 0.0
O42 O 0.95738 0.70458 0.26216 0.0
O43 O 0.93788 0.65265 0.29663 0.0
O44 O 0.67015 0.75856 0.80195 0.0
Cd45 Cd 0.63785 0.72177 0.8613 0.0
O46 O 0.65647 0.80813 0.84383 0.0
Cd47 Cd 0.64461 0.8632 0.87782 0.0
O48 O 0.57908 0.87068 0.86105 0.0
C49 C 0.55182 0.88879 0.88113 0.0
O50 O 0.51276 0.88577 0.86353 0.0
C51 C 0.67345 0.79539 0.80827 0.0
C52 C 0.7092 0.69384 0.88456 0.0
O53 O 0.709 0.73028 0.89251 0.0
O54 O 0.67401 0.66976 0.86754 0.0
O55 O 0.75375 0.19509 0.46369 0.0
Cd56 Cd 0.80721 0.21619 0.52139 0.0
O57 O 0.80251 0.22483 0.41646 0.0
Cd58 Cd 0.84306 0.25948 0.46987 0.0
O59 O 0.78825 0.28181 0.50221 0.0
C60 C 0.78577 0.31599 0.49601 0.0
O61 O 0.81914 0.33823 0.47546 0.0
C62 C 0.76419 0.20269 0.42516 0.0
C63 C 0.8563 0.16081 0.52183 0.0
O64 O 0.82006 0.15917 0.54466 0.0
O65 O 0.86998 0.18896 0.49827 0.0
O66 O 0.44608 0.81866 0.24474 0.0
Cd67 Cd 0.44331 0.75283 0.28746 0.0
O68 O 0.38609 0.80991 0.20278 0.0
Cd69 Cd 0.34167 0.74905 0.2011 0.0
O70 O 0.29152 0.69909 0.16519 0.0
C71 C 0.25047 0.69991 0.16116 0.0
O72 O 0.23646 0.73011 0.18054 0.0
C73 C 0.42328 0.83195 0.21807 0.0
C74 C 0.46094 0.69873 0.35001 0.0
O75 O 0.48932 0.73148 0.34367 0.0
O76 O 0.42456 0.69109 0.3281 0.0
O77 O 0.17093 0.45195 0.7838 0.0
Cd78 Cd 0.21472 0.41913 0.7245 0.0
O79 O 0.12644 0.39793 0.8051 0.0
Cd80 Cd 0.14264 0.34791 0.76069 0.0
O81 O 0.13625 0.28718 0.72507 0.0
C82 C 0.09768 0.26253 0.72188 0.0
O83 O 0.06199 0.27363 0.7385 0.0
C84 C 0.13846 0.43563 0.80835 0.0
C85 C 0.2906 0.45502 0.67248 0.0
O86 O 0.25011 0.4485 0.65903 0.0
O87 O 0.29544 0.44725 0.71091 0.0
Sm88 Sm 0.02737 0.04005 0.54156 0.0
Sm89 Sm 0.98143 0.00912 0.62462 0.0
C90 C 0.05912 0.08406 0.47995 0.0
C91 C 0.10134 0.11518 0.47753 0.0
C92 C 0.10023 0.15491 0.47856 0.0
C93 C 0.14 0.18377 0.47218 0.0
C94 C 0.1809 0.17284 0.46424 0.0
C95 C 0.18267 0.13405 0.46756 0.0
C96 C 0.14328 0.10542 0.47417 0.0
C97 C 0.07974 0.00848 0.58863 0.0
C98 C 0.04324 0.10214 0.63186 0.0
C99 C 0.95128 0.96836 0.69095 0.0
C100 C 0.90808 0.94337 0.70487 0.0
C101 C 0.90756 0.91772 0.73599 0.0
C102 C 0.86665 0.89388 0.74956 0.0
C103 C 0.82579 0.89536 0.732 0.0
C104 C 0.82637 0.92076 0.70054 0.0
C105 C 0.86724 0.94464 0.68706 0.0
C106 C 0.92949 0.04375 0.58087 0.0
C107 C 0.97629 0.94851 0.53076 0.0
O108 O 0.02839 0.09222 0.50794 0.0
O109 O 0.06351 0.04792 0.47896 0.0
O110 O 0.05399 0.02942 0.60453 0.0
O111 O 0.08074 1.00572 0.54662 0.0
O112 O 0.04992 0.09577 0.58976 0.0
O113 O 0.02159 0.07265 0.65398 0.0
O114 O 0.97039 0.95416 0.65626 0.0
O115 O 0.95331 1.00588 0.69163 0.0
O116 O 0.95529 0.02313 0.56383 0.0
O117 O 0.9233 0.03934 0.62153 0.0
O118 O 0.97699 0.95236 0.57393 0.0
O119 O 0.98675 0.98 0.50982 0.0
H120 H 0.06844 0.16331 0.48231 0.0
H121 H 0.13826 0.2137 0.46968 0.0
H122 H 0.21414 0.12529 0.46166 0.0
H123 H 0.14567 0.07535 0.47461 0.0
H124 H 0.9388 0.91618 0.74982 0.0
H125 H 0.86679 0.87425 0.77366 0.0
H126 H 0.79514 0.92212 0.68657 0.0
H127 H 0.86702 0.96409 0.66279 0.0
Sm128 Sm 0.53783 0.05594 0.11584 0.0
Sm129 Sm 0.45392 0.03549 0.05939 0.0
C130 C 0.61263 0.09642 0.15355 0.0
C131 C 0.62113 0.11483 0.19798 0.0
C132 C 0.64688 0.15385 0.20503 0.0
C133 C 0.65863 0.17099 0.24695 0.0
C134 C 0.64495 0.14891 0.2818 0.0
C135 C 0.61468 0.11167 0.27539 0.0
C136 C 0.60261 0.09462 0.2334 0.0
C137 C 0.48022 0.99091 0.15085 0.0
C138 C 0.45806 0.1047 0.13859 0.0
C139 C 0.37856 0.99902 0.01852 0.0
C140 C 0.36805 0.98522 0.97302 0.0
C141 C 0.32621 0.95941 0.96245 0.0
C142 C 0.31663 0.94427 0.91941 0.0
C143 C 0.34888 0.95472 0.88659 0.0
C144 C 0.39122 0.98003 0.89715 0.0
C145 C 0.40076 0.9953 0.9403 0.0
C146 C 0.51817 0.0996 0.02734 0.0
C147 C 0.53769 0.99624 0.02627 0.0
O148 O 0.588 0.11244 0.13198 0.0
O149 O 0.602 0.0578 0.1471 0.0
O150 O 0.4708 1.00679 0.1182 0.0
O151 O 0.51815 0.01223 0.16656 0.0
O152 O 0.50004 0.10305 0.14406 0.0
O153 O 0.4302 0.07645 0.11417 0.0
O154 O 0.40416 0.9806 0.03556 0.0
O155 O 0.39022 0.03727 0.02918 0.0
O156 O 0.52061 0.0804 0.0585 0.0
O157 O 0.47956 0.08241 0.00971 0.0
O158 O 0.49572 0.99749 0.0209 0.0
O159 O 0.56242 0.0174 0.0587 0.0
H160 H 0.65974 0.17032 0.178 0.0
H161 H 0.68184 0.19991 0.25177 0.0
H162 H 0.60386 0.09451 0.30227 0.0
H163 H 0.58089 0.06504 0.2286 0.0
H164 H 0.30107 0.95083 0.98749 0.0
H165 H 0.28394 0.92455 0.9116 0.0
H166 H 0.41643 0.98817 0.87204 0.0
H167 H 0.43361 0.0147 0.94821 0.0
Sm168 Sm 0.53314 0.52526 0.51869 0.0
Sm169 Sm 0.53245 0.5943 0.57869 0.0
C170 C 0.55617 0.46276 0.47625 0.0
C171 C 0.58264 0.43556 0.48752 0.0
C172 C 0.62909 0.44938 0.49607 0.0
C173 C 0.65468 0.4232 0.50311 0.0
C174 C 0.63449 0.38278 0.50196 0.0
C175 C 0.58773 0.36898 0.49601 0.0
C176 C 0.56201 0.39523 0.48861 0.0
C177 C 0.45318 0.51625 0.56794 0.0
C178 C 0.57547 0.53241 0.61871 0.0
C179 C 0.50497 0.65188 0.62555 0.0
C180 C 0.47962 0.67997 0.61562 0.0
C181 C 0.43213 0.66929 0.61819 0.0
C182 C 0.40742 0.695 0.60844 0.0
C183 C 0.42961 0.73192 0.59638 0.0
C184 C 0.47687 0.74273 0.59289 0.0
C185 C 0.50184 0.71685 0.60264 0.0
C186 C 0.61576 0.59833 0.53908 0.0
C187 C 0.5012 0.59559 0.47671 0.0
O188 O 0.57845 0.49904 0.47307 0.0
O189 O 0.51689 0.46067 0.49536 0.0
O190 O 0.49287 0.53095 0.58135 0.0
O191 O 0.45468 0.50817 0.52589 0.0
O192 O 0.57652 0.51787 0.57711 0.0
O193 O 0.55518 0.56117 0.62981 0.0
O194 O 0.48206 0.61513 0.62138 0.0
O195 O 0.54647 0.65638 0.61062 0.0
O196 O 0.5781 0.5866 0.52031 0.0
O197 O 0.60978 0.61131 0.57943 0.0
O198 O 0.4998 0.61005 0.51808 0.0
O199 O 0.51513 0.56261 0.4667 0.0
H200 H 0.64612 0.48028 0.49609 0.0
H201 H 0.69074 0.43428 0.50765 0.0
H202 H 0.57169 0.33778 0.49492 0.0
H203 H 0.52627 0.38385 0.48249 0.0
H204 H 0.41389 0.64113 0.62809 0.0
H205 H 0.3709 0.68655 0.61148 0.0
H206 H 0.49425 0.77151 0.58403 0.0
H207 H 0.53834 0.72582 0.60041 0.0
Sm208 Sm 0.02727 0.50729 0.05644 0.0
Sm209 Sm 0.01597 0.57499 0.00749 0.0
C210 C 0.063 0.45558 0.08909 0.0
C211 C 0.10676 0.45215 0.10581 0.0
C212 C 0.13208 0.42883 0.08089 0.0
C213 C 0.17066 0.42174 0.09761 0.0
C214 C 0.18509 0.43771 0.13976 0.0
C215 C 0.16105 0.46244 0.1642 0.0
C216 C 0.12214 0.46934 0.14756 0.0
C217 C 0.98605 0.56079 0.1061 0.0
C218 C 0.11116 0.59043 0.05676 0.0
C219 C 0.98528 0.63371 0.98707 0.0
C220 C 0.94486 0.63596 0.96434 0.0
C221 C 0.90149 0.62295 0.98264 0.0
C222 C 0.86374 0.6283 0.96333 0.0
C223 C 0.86852 0.64656 0.92536 0.0
C224 C 0.91121 0.65753 0.90543 0.0
C225 C 0.94926 0.65228 0.92489 0.0
C226 C 0.0569 0.52636 0.94964 0.0
C227 C 0.93477 0.49131 0.99828 0.0
O228 O 0.06037 0.4571 0.04751 0.0
O229 O 0.04083 0.47829 0.11238 0.0
O230 O 0.01898 0.56899 0.07951 0.0
O231 O 0.97378 0.52267 0.10662 0.0
O232 O 0.09692 0.55332 0.06521 0.0
O233 O 0.08403 0.60701 0.0381 0.0
O234 O 0.97805 0.62037 0.02484 0.0
O235 O 0.01635 0.62061 0.96376 0.0
O236 O 0.04482 0.52182 0.98868 0.0
O237 O 0.04783 0.55843 0.9406 0.0
O238 O 0.94648 0.52976 0.99583 0.0
O239 O 0.96135 0.47415 0.01771 0.0
H240 H 0.12138 0.41513 0.0487 0.0
H241 H 0.18877 0.40293 0.07788 0.0
H242 H 0.17169 0.47551 0.1966 0.0
H243 H 0.10366 0.48751 0.16779 0.0
H244 H 0.89665 0.60981 0.01271 0.0
H245 H 0.83099 0.61995 0.9792 0.0
H246 H 0.91534 0.67192 0.87618 0.0
H247 H 0.98222 0.66216 0.90993 0.0
C248 C 0.29921 0.23268 0.44273 0.0
C249 C 0.30293 0.21759 0.39851 0.0
C250 C 0.22121 0.1908 0.39655 0.0
C251 C 0.21934 0.1978 0.44227 0.0
N252 N 0.25546 0.22604 0.50987 0.0
N253 N 0.2673 0.17682 0.3347 0.0
C254 C 0.25796 0.21942 0.46573 0.0
C255 C 0.26379 0.19584 0.3754 0.0
N256 N 0.33457 0.26015 0.46228 0.0
N257 N 0.18228 0.17771 0.37353 0.0
H258 H 0.29792 0.17657 0.31869 0.0
H259 H 0.23998 0.15733 0.31863 0.0
H260 H 0.15029 0.17288 0.38814 0.0
H261 H 0.18171 0.1757 0.33983 0.0
H262 H 0.3324 0.27469 0.49331 0.0
H263 H 0.36474 0.27119 0.44582 0.0
H264 H 0.28362 0.23777 0.52925 0.0
H265 H 0.225 0.21805 0.52704 0.0
C266 C 0.31084 0.8818 0.78797 0.0
C267 C 0.29457 0.90566 0.76207 0.0
C268 C 0.32189 0.96386 0.81493 0.0
C269 C 0.33684 0.93967 0.84106 0.0
N270 N 0.35626 0.87905 0.84889 0.0
N271 N 0.29126 0.97076 0.74701 0.0
C272 C 0.33459 0.89962 0.8264 0.0
C273 C 0.30272 0.94719 0.77403 0.0
N274 N 0.30324 0.84202 0.77612 0.0
N275 N 0.32332 1.00222 0.83054 0.0
H276 H 0.27179 0.9602 0.71957 0.0
H277 H 0.30284 1.00135 0.75065 0.0
H278 H 0.3382 0.0159 0.85979 0.0
H279 H 0.30759 0.02013 0.81599 0.0
H280 H 0.30804 0.8223 0.7966 0.0
H281 H 0.29053 0.82814 0.74612 0.0
H282 H 0.35988 0.85085 0.83801 0.0
H283 H 0.37433 0.89166 0.87693 0.0
C284 C 0.64603 0.52562 0.71771 0.0
C285 C 0.63663 0.48415 0.71939 0.0
C286 C 0.58593 0.47411 0.65615 0.0
C287 C 0.59649 0.51568 0.65363 0.0
N288 N 0.64149 0.58052 0.67945 0.0
N289 N 0.59288 0.41906 0.69367 0.0
C290 C 0.62744 0.54123 0.68411 0.0
C291 C 0.60578 0.45843 0.68901 0.0
N292 N 0.67259 0.55045 0.74889 0.0
N293 N 0.55609 0.44945 0.62739 0.0
H294 H 0.60547 0.40668 0.71757 0.0
H295 H 0.5679 0.39846 0.67586 0.0
H296 H 0.53619 0.45946 0.60734 0.0
H297 H 0.55105 0.41898 0.62249 0.0
H298 H 0.67565 0.58071 0.75424 0.0
H299 H 0.69008 0.54059 0.77134 0.0
H300 H 0.66806 0.60009 0.69634 0.0
H301 H 0.62914 0.59355 0.65609 0.0
C302 C 0.94122 0.63988 0.18107 0.0
C303 C 0.96326 0.64127 0.22099 0.0
C304 C 1.00314 0.59233 0.18419 0.0
C305 C 0.97877 0.58909 0.14542 0.0
N306 N 0.91946 0.60529 0.10937 0.0
N307 N 0.01245 0.61535 0.26113 0.0
C308 C 0.94667 0.61191 0.14452 0.0
C309 C 0.99324 0.61631 0.22263 0.0
N310 N 0.91426 0.66494 0.17798 0.0
N311 N 0.03707 0.57341 0.1839 0.0
H312 H 0.0102 0.63493 0.28869 0.0
H313 H 0.02893 0.59396 0.2665 0.0
H314 H 0.04506 0.55549 0.15694 0.0
H315 H 0.05969 0.57769 0.20903 0.0
H316 H 0.90271 0.66972 0.14869 0.0
H317 H 0.905 0.68265 0.2044 0.0
H318 H 0.89204 0.61749 0.10787 0.0
H319 H 0.92192 0.58474 0.08273 0.0
C320 C 0.45793 0.20116 0.21041 0.0
C321 C 0.43015 0.21822 0.18717 0.0
C322 C 0.42125 0.16115 0.13099 0.0
C323 C 0.44424 0.14182 0.15683 0.0
N324 N 0.47349 0.14062 0.22716 0.0
N325 N 0.37435 0.20701 0.13145 0.0
C326 C 0.45911 0.16097 0.19845 0.0
C327 C 0.40848 0.196 0.14933 0.0
N328 N 0.48542 0.22367 0.24226 0.0
N329 N 0.41375 0.14815 0.0881 0.0
H330 H 0.36143 0.23048 0.14528 0.0
H331 H 0.3551 0.18975 0.106 0.0
H332 H 0.42417 0.12425 0.07192 0.0
H333 H 0.40166 0.16406 0.06735 0.0
H334 H 0.50912 0.21337 0.25733 0.0
H335 H 0.48836 0.25379 0.25012 0.0
H336 H 0.481 0.1522 0.25924 0.0
H337 H 0.47275 0.11073 0.22043 0.0
C338 C 0.10869 0.94211 0.66114 0.0
C339 C 0.14726 0.93427 0.63842 0.0
C340 C 0.15063 0.98777 0.59465 0.0
C341 C 0.10882 0.99179 0.61349 0.0
N342 N 0.06307 0.98876 0.67893 0.0
N343 N 0.20694 0.94966 0.58502 0.0
C344 C 0.09206 0.97382 0.65112 0.0
C345 C 0.16931 0.95752 0.60594 0.0
N346 N 0.08711 0.9185 0.69135 0.0
N347 N 0.17337 0.01466 0.56818 0.0
H348 H 0.22172 0.92795 0.59305 0.0
H349 H 0.22216 0.96291 0.55819 0.0
H350 H 0.16152 0.03888 0.56263 0.0
H351 H 0.2057 0.01569 0.55558 0.0
H352 H 0.05574 0.91996 0.70504 0.0
H353 H 0.09872 0.89525 0.70023 0.0
H354 H 0.05308 0.97888 0.70891 0.0
H355 H 0.05397 0.01456 0.67504 0.0
C356 C 0.84836 0.44506 0.90668 0.0
C357 C 0.80707 0.43192 0.93018 0.0
C358 C 0.85194 0.44996 0.99828 0.0
C359 C 0.89169 0.46738 0.97495 0.0
N360 N 0.92646 0.48361 0.90626 0.0
N361 N 0.76992 0.42509 1.00004 0.0
C362 C 0.8893 0.46552 0.929 0.0
C363 C 0.80916 0.43472 0.97646 0.0
N364 N 0.84924 0.43592 0.86263 0.0
N365 N 0.85489 0.44858 0.04172 0.0
H366 H 0.73825 0.41519 0.98605 0.0
H367 H 0.76797 0.42972 0.0337 0.0
H368 H 0.88463 0.46097 0.05875 0.0
H369 H 0.82912 0.43289 0.06041 0.0
H370 H 0.8787 0.44104 0.84374 0.0
H371 H 0.82127 0.41905 0.84524 0.0
H372 H 0.92547 0.4888 0.87413 0.0
H373 H 0.95805 0.49547 0.92014 0.0
C374 C 0.71008 0.62997 0.45613 0.0
C375 C 0.74674 0.64514 0.48471 0.0
C376 C 0.70037 0.61512 0.54389 0.0
C377 C 0.66175 0.60595 0.51741 0.0
N378 N 0.63639 0.58558 0.44382 0.0
N379 N 0.77765 0.65274 0.55602 0.0
C380 C 0.66825 0.6077 0.47204 0.0
C381 C 0.7423 0.63747 0.52858 0.0
N382 N 0.71452 0.63847 0.4142 0.0
N383 N 0.69761 0.59948 0.58222 0.0
H384 H 0.80947 0.66785 0.54558 0.0
H385 H 0.77471 0.65251 0.58949 0.0
H386 H 0.66894 0.57863 0.59101 0.0
H387 H 0.7251 0.6025 0.60194 0.0
H388 H 0.68736 0.633 0.39344 0.0
H389 H 0.74503 0.65346 0.40097 0.0
H390 H 0.64131 0.58247 0.41032 0.0
H391 H 0.60701 0.56656 0.45376 0.0
C392 C 0.2574 0.39445 0.20881 0.0
C393 C 0.29715 0.39734 0.18235 0.0
C394 C 0.26778 0.43757 0.13712 0.0
C395 C 0.22479 0.42737 0.15786 0.0
N396 N 0.17741 0.39115 0.21115 0.0
N397 N 0.33661 0.41781 0.11641 0.0
C398 C 0.21927 0.40465 0.19331 0.0
C399 C 0.30169 0.41828 0.14541 0.0
N400 N 0.25651 0.3836 0.24957 0.0
N401 N 0.27646 0.46614 0.10982 0.0
H402 H 0.36051 0.40182 0.11887 0.0
H403 H 0.33889 0.42967 0.0871 0.0
H404 H 0.25263 0.4813 0.10373 0.0
H405 H 0.30859 0.47761 0.09721 0.0
H406 H 0.22986 0.38454 0.27152 0.0
H407 H 0.28455 0.3784 0.26331 0.0
H408 H 0.17104 0.37107 0.23397 0.0
H409 H 0.14834 0.39701 0.20038 0.0
C410 C 0.62804 0.1827 0.01117 0.0
C411 C 0.61297 0.20691 0.98487 0.0
C412 C 0.53513 0.16583 0.99395 0.0
C413 C 0.55111 0.1376 0.01438 0.0
N414 N 0.61685 0.11806 0.03476 0.0
N415 N 0.5518 0.21724 0.94585 0.0
C416 C 0.59866 0.14597 0.02122 0.0
C417 C 0.56639 0.19728 0.97486 0.0
N418 N 0.67056 0.19519 0.02754 0.0
N419 N 0.4901 0.16434 0.99457 0.0
H420 H 0.57314 0.24062 0.93183 0.0
H421 H 0.51949 0.20841 0.93301 0.0
H422 H 0.46598 0.14428 0.01038 0.0
H423 H 0.47724 0.18623 0.98409 0.0
H424 H 0.682 0.18127 0.05076 0.0
H425 H 0.69262 0.22187 0.02146 0.0
H426 H 0.65151 0.12093 0.03584 0.0
H427 H 0.59783 0.09026 0.04046 0.0
C428 C 0.9136 0.84264 0.48427 0.0
C429 C 0.94628 0.83113 0.45422 0.0
C430 C 0.99796 0.89724 0.47344 0.0
C431 C 0.96592 0.90788 0.50469 0.0
N432 N 0.89551 0.88821 0.54378 0.0
N433 N 0.01805 0.84961 0.41714 0.0
C434 C 0.92462 0.8797 0.51137 0.0
C435 C 0.98788 0.85919 0.44783 0.0
N436 N 0.87029 0.81957 0.48428 0.0
N437 N 0.03984 0.92239 0.47077 0.0
H438 H 0.01516 0.82117 0.40174 0.0
H439 H 0.04523 0.87003 0.4053 0.0
H440 H 0.04924 0.94966 0.48937 0.0
H441 H 0.06688 0.91549 0.45277 0.0
H442 H 0.84377 0.82756 0.50226 0.0
H443 H 0.85909 0.79444 0.46235 0.0
H444 H 0.8688 0.86705 0.55528 0.0
H445 H 0.89938 0.91605 0.56122 0.0
C446 C 0.35964 0.8047 0.62942 0.0
C447 C 0.33477 0.80058 0.59093 0.0
C448 C 0.3795 0.75782 0.55306 0.0
C449 C 0.40243 0.76017 0.59218 0.0
N450 N 0.42145 0.79033 0.665 0.0
N451 N 0.31761 0.77228 0.51735 0.0
C452 C 0.3947 0.78511 0.6296 0.0
C453 C 0.34412 0.77728 0.5528 0.0
N454 N 0.34834 0.8261 0.66625 0.0
N455 N 0.39239 0.73754 0.51624 0.0
H456 H 0.29162 0.78642 0.51636 0.0
H457 H 0.31941 0.75266 0.4898 0.0
H458 H 0.4185 0.72332 0.51576 0.0
H459 H 0.37986 0.73703 0.48563 0.0
H460 H 0.361 0.82648 0.69676 0.0
H461 H 0.3243 0.84246 0.66707 0.0
H462 H 0.42103 0.81104 0.69184 0.0
H463 H 0.44684 0.77568 0.66665 0.0
C464 C 0.72711 0.80596 0.74367 0.0
C465 C 0.702 0.82189 0.77773 0.0
C466 C 0.75264 0.88728 0.77454 0.0
C467 C 0.78218 0.87019 0.7463 0.0
N468 N 0.79752 0.81326 0.70253 0.0
N469 N 0.67568 0.87951 0.80097 0.0
C470 C 0.76922 0.82953 0.73009 0.0
C471 C 0.71028 0.86326 0.78644 0.0
N472 N 0.70859 0.76986 0.72165 0.0
N473 N 0.76562 0.92599 0.79146 0.0
H474 H 0.64278 0.86191 0.80253 0.0
H475 H 0.67832 0.90978 0.80497 0.0
H476 H 0.7965 0.94467 0.78376 0.0
H477 H 0.74717 0.93855 0.81576 0.0
H478 H 0.72364 0.75753 0.69454 0.0
H479 H 0.67502 0.7549 0.7265 0.0
H480 H 0.79268 0.78299 0.6941 0.0
H481 H 0.82746 0.82991 0.69001 0.0
C482 C 0.74062 0.15806 0.35748 0.0
C483 C 0.73127 0.18644 0.39061 0.0
C484 C 0.66138 0.18651 0.35529 0.0
C485 C 0.67219 0.15977 0.32108 0.0
N486 N 0.72328 0.12257 0.28617 0.0
N487 N 0.68005 0.22304 0.4262 0.0
C488 C 0.71189 0.14586 0.32143 0.0
C489 C 0.69071 0.19926 0.39114 0.0
N490 N 0.7758 0.14138 0.36167 0.0
N491 N 0.62434 0.20104 0.35222 0.0
H492 H 0.70147 0.23449 0.45225 0.0
H493 H 0.64911 0.23025 0.4309 0.0
H494 H 0.60154 0.19115 0.32691 0.0
H495 H 0.61704 0.22409 0.37324 0.0
H496 H 0.78133 0.11718 0.34136 0.0
H497 H 0.79755 0.14949 0.38788 0.0
H498 H 0.75464 0.11609 0.28171 0.0
H499 H 0.70263 0.11147 0.25948 0.0
C500 C 0.43739 0.65415 0.41278 0.0
C501 C 0.47019 0.67034 0.38112 0.0
C502 C 0.52326 0.63763 0.41213 0.0
C503 C 0.4896 0.61911 0.44157 0.0
N504 N 0.41145 0.60517 0.46359 0.0
N505 N 0.54115 0.66791 0.34516 0.0
C506 C 0.44578 0.62613 0.43987 0.0
C507 C 0.51214 0.65924 0.37935 0.0
N508 N 0.3988 0.66704 0.41886 0.0
N509 N 0.56698 0.63666 0.41695 0.0
H510 H 0.5341 0.68233 0.32006 0.0
H511 H 0.56983 0.65709 0.33929 0.0
H512 H 0.57653 0.62329 0.44163 0.0
H513 H 0.59404 0.65268 0.39985 0.0
H514 H 0.37582 0.66002 0.44418 0.0
H515 H 0.39174 0.68792 0.40119 0.0
H516 H 0.3777 0.60511 0.46056 0.0
H517 H 0.41624 0.58486 0.48345 0.0
C518 C 0.07779 0.44058 0.86852 0.0
C519 C 0.11522 0.45985 0.84291 0.0
C520 C 0.11701 0.52171 0.89159 0.0
C521 C 0.0812 0.50193 0.91784 0.0
N522 N 0.03528 0.43989 0.93653 0.0
N523 N 0.15332 0.52366 0.82094 0.0
C524 C 0.06435 0.46056 0.90811 0.0
C525 C 0.13051 0.5018 0.85202 0.0
N526 N 0.05056 0.40517 0.85218 0.0
N527 N 0.13983 0.55952 0.90554 0.0
H528 H 0.15638 0.51203 0.78885 0.0
H529 H 0.16198 0.55438 0.8246 0.0
H530 H 0.13257 0.57434 0.93517 0.0
H531 H 0.16935 0.57425 0.89059 0.0
H532 H 0.02119 0.39098 0.86773 0.0
H533 H 0.05209 0.39347 0.81985 0.0
H534 H 0.02649 0.40918 0.93406 0.0
H535 H 0.02371 0.45314 0.96505 0.0
C536 C 0.59333 0.9478 0.93024 0.0
C537 C 0.56096 0.91088 0.92487 0.0
C538 C 0.52609 0.92607 0.99514 0.0
C539 C 0.55365 0.96524 0.99749 0.0
N540 N 0.61998 0.01133 0.97399 0.0
N541 N 0.50633 0.8599 0.95641 0.0
C542 C 0.58999 0.97526 0.96749 0.0
C543 C 0.53054 0.89842 0.95895 0.0
N544 N 0.62554 0.95705 0.89862 0.0
N545 N 0.49464 0.91606 0.02719 0.0
H546 H 0.5103 0.83907 0.9305 0.0
H547 H 0.48509 0.84767 0.98088 0.0
H548 H 0.49441 0.9344 0.05621 0.0
H549 H 0.46892 0.89026 0.0253 0.0
H550 H 0.64895 0.98408 0.89846 0.0
H551 H 0.62919 0.93707 0.87183 0.0
H552 H 0.64827 0.02066 0.95453 0.0
H553 H 0.61782 0.03181 1.00069 0.0
C554 C 0.8727 0.09436 0.50669 0.0
C555 C 0.8841 0.13347 0.52757 0.0
C556 C 0.92637 0.11466 0.58187 0.0
C557 C 0.91622 0.07512 0.56081 0.0
N558 N 0.88562 0.02871 0.49905 0.0
N559 N 0.93327 0.18351 0.5748 0.0
C560 C 0.89183 0.06553 0.52146 0.0
C561 C 0.91504 0.14444 0.56157 0.0
N562 N 0.84216 0.0846 0.47401 0.0
N563 N 0.94505 0.12407 0.62205 0.0
H564 H 0.92566 0.20605 0.56017 0.0
H565 H 0.95925 0.19349 0.59703 0.0
H566 H 0.95647 0.10474 0.63844 0.0
H567 H 0.94703 0.15117 0.64062 0.0
H568 H 0.82791 0.05575 0.46077 0.0
H569 H 0.82959 0.1057 0.46133 0.0
H570 H 0.87229 0.02133 0.46808 0.0
H571 H 0.89601 1.00583 0.51025 0.0
C572 C 0.20778 0.62982 0.13577 0.0
C573 C 0.22037 0.67035 0.12966 0.0
C574 C 0.1723 0.65567 0.06515 0.0
C575 C 0.15613 0.61581 0.07428 0.0
N576 N 0.17994 0.56312 0.10158 0.0
N577 N 0.22371 0.72046 0.08281 0.0
C578 C 0.18016 0.60213 0.10466 0.0
C579 C 0.20513 0.68293 0.09263 0.0
N580 N 0.22092 0.61769 0.17199 0.0
N581 N 0.15804 0.66683 0.02885 0.0
H582 H 0.24913 0.74041 0.10102 0.0
H583 H 0.21639 0.73164 0.05542 0.0
H584 H 0.14379 0.6463 1.00303 0.0
H585 H 0.162 0.69592 0.02313 0.0
H586 H 0.20842 0.5892 0.18038 0.0
H587 H 0.24131 0.6369 0.19547 0.0
H588 H 0.19922 0.55203 0.12122 0.0
H589 H 0.16692 0.54318 0.0749 0.0
C590 C 0.35961 0.50817 0.65645 0.0
C591 C 0.33116 0.47036 0.64439 0.0
C592 C 0.38523 0.45973 0.58468 0.0
C593 C 0.41335 0.49833 0.59672 0.0
N594 N 0.43585 0.54792 0.65808 0.0
N595 N 0.31551 0.40971 0.5963 0.0
C596 C 0.40301 0.51952 0.63644 0.0
C597 C 0.34359 0.44601 0.60814 0.0
N598 N 0.34483 0.53402 0.68659 0.0
N599 N 0.40085 0.43467 0.55411 0.0
H600 H 0.28633 0.39817 0.61388 0.0
H601 H 0.31944 0.39149 0.56816 0.0
H602 H 0.43339 0.44168 0.54086 0.0
H603 H 0.38419 0.40543 0.54502 0.0
H604 H 0.36203 0.56364 0.69284 0.0
H605 H 0.3132 0.52697 0.70188 0.0
H606 H 0.43068 0.56228 0.68858 0.0
H607 H 0.46975 0.55228 0.64956 0.0
C608 C 0.76524 0.65199 0.86492 0.0
C609 C 0.74975 0.6806 0.89416 0.0
C610 C 0.81839 0.69248 0.9361 0.0
C611 C 0.8299 0.65982 0.91134 0.0
N612 N 0.81123 0.6046 0.85566 0.0
N613 N 0.75715 0.72018 0.96429 0.0
C614 C 0.80234 0.63826 0.8768 0.0
C615 C 0.77517 0.69882 0.93158 0.0
N616 N 0.74675 0.63966 0.82486 0.0
N617 N 0.84879 0.71757 0.96394 0.0
H618 H 0.72382 0.7224 0.9647 0.0
H619 H 0.77336 0.73131 0.9936 0.0
H620 H 0.88108 0.71397 0.96805 0.0
H621 H 0.84351 0.74407 0.9794 0.0
H622 H 0.75949 0.6213 0.80138 0.0
H623 H 0.72232 0.65122 0.81288 0.0
H624 H 0.78919 0.58534 0.83352 0.0
H625 H 0.83898 0.59447 0.86277 0.0
C626 C 0.45433 0.90921 0.22989 0.0
C627 C 0.43885 0.87347 0.20162 0.0
C628 C 0.43744 0.91567 0.14231 0.0
C629 C 0.45748 0.95104 0.16899 0.0
N630 N 0.47044 0.98127 0.24239 0.0
N631 N 0.42622 0.84472 0.12705 0.0
C632 C 0.46233 0.9475 0.21392 0.0
C633 C 0.43294 0.87748 0.15692 0.0
N634 N 0.46174 0.90686 0.27231 0.0
N635 N 0.42005 0.91822 0.10362 0.0
H636 H 0.42666 0.81694 0.13487 0.0
H637 H 0.4261 0.84593 0.09376 0.0
H638 H 0.42064 0.9452 0.09334 0.0
H639 H 0.4004 0.89405 0.08465 0.0
H640 H 0.47915 0.93045 0.29346 0.0
H641 H 0.45248 0.88064 0.28629 0.0
H642 H 0.47076 0.98203 0.27589 0.0
H643 H 0.47172 0.00883 0.23281 0.0
C644 C 0.09724 0.1902 0.71603 0.0
C645 C 0.09135 0.22266 0.69624 0.0
C646 C 0.05768 0.17726 0.63288 0.0
C647 C 0.06091 0.14394 0.65378 0.0
N648 N 0.09775 0.12094 0.70857 0.0
N649 N 0.0668 0.24817 0.63623 0.0
C650 C 0.08443 0.15105 0.69366 0.0
C651 C 0.07272 0.21643 0.65438 0.0
N652 N 0.1138 0.19672 0.75707 0.0
N653 N 0.04083 0.172 0.59202 0.0
H654 H 0.08016 0.27728 0.64945 0.0
H655 H 0.04722 0.24611 0.6092 0.0
H656 H 0.02078 0.14569 0.57755 0.0
H657 H 0.04698 0.19408 0.57163 0.0
H658 H 0.11352 0.17431 0.77596 0.0
H659 H 0.12565 0.22496 0.77335 0.0
H660 H 0.11882 0.12478 0.73487 0.0
H661 H 0.09205 0.09266 0.6919 0.0
C662 C 0.7193 0.32521 0.45938 0.0
C663 C 0.74107 0.32509 0.4986 0.0
C664 C 0.68176 0.34938 0.54067 0.0
C665 C 0.6642 0.35524 0.50128 0.0
N666 N 0.66221 0.34586 0.42321 0.0
N667 N 0.73833 0.32686 0.57626 0.0
C668 C 0.68119 0.34142 0.46062 0.0
C669 C 0.72052 0.33365 0.53931 0.0
N670 N 0.73464 0.30886 0.42114 0.0
N671 N 0.66217 0.36044 0.57909 0.0
H672 H 0.76695 0.31586 0.57592 0.0
H673 H 0.7241 0.33029 0.60708 0.0
H674 H 0.63278 0.37049 0.58044 0.0
H675 H 0.67452 0.35997 0.60952 0.0
H676 H 0.71835 0.30464 0.39172 0.0
H677 H 0.76187 0.29589 0.41924 0.0
H678 H 0.67578 0.34091 0.39233 0.0
H679 H 0.63301 0.35589 0.42286 0.0
loop_
_geom_bond_atom_site_label_1
_geom_bond_atom_site_label_2
_geom_bond_distance
_geom_bond_site_symmetry_2
_ccdc_geom_bond_type
O0 Cd1 2.300 . S
O0 C7 1.275 . S
Cd1 O0 2.300 . S
Cd1 O9 2.381 . S
Cd1 O10 2.378 . S
O2 Cd3 2.385 . S
O2 C7 1.255 . S
Cd3 O2 2.385 . S
Cd3 O4 2.317 . S
O4 Cd3 2.317 . S
O4 C5 1.232 . S
C5 O4 1.232 . S
C5 O6 1.218 . S
O6 C5 1.218 . S
C7 O0 1.275 . S
C7 O2 1.255 . S
C8 O9 1.258 . S
C8 O10 1.256 . S
O9 Cd1 2.381 . S
O9 C8 1.258 . S
O10 Cd1 2.378 . S
O10 C8 1.256 . S
O11 Cd12 2.300 . S
O11 C18 1.275 . S
Cd12 O11 2.300 . S
Cd12 O20 2.381 . S
Cd12 O21 2.378 . S
O13 Cd14 2.385 . S
O13 C18 1.255 . S
Cd14 O13 2.385 . S
Cd14 O15 2.317 . S
O15 Cd14 2.317 . S
O15 C16 1.232 . S
C16 O15 1.232 . S
C16 O17 1.218 . S
O17 C16 1.218 . S
C18 O11 1.275 . S
C18 O13 1.255 . S
C19 O20 1.258 . S
C19 O21 1.256 . S
O20 Cd12 2.381 . S
O20 C19 1.258 . S
O21 Cd12 2.378 . S
O21 C19 1.256 . S
O22 Cd23 2.300 . S
O22 C29 1.275 . S
Cd23 O22 2.300 . S
Cd23 O31 2.381 . S
Cd23 O32 2.378 . S
O24 Cd25 2.385 . S
O24 C29 1.255 . S
Cd25 O24 2.385 . S
Cd25 O26 2.317 . S
O26 Cd25 2.317 . S
O26 C27 1.232 . S
C27 O26 1.232 . S
C27 O28 1.218 . S
O28 C27 1.218 . S
C29 O22 1.275 . S
C29 O24 1.255 . S
C30 O31 1.258 . S
C30 O32 1.256 . S
O31 Cd23 2.381 . S
O31 C30 1.258 . S
O32 Cd23 2.378 . S
O32 C30 1.256 . S
O33 Cd34 2.300 . S
O33 C40 1.275 . S
Cd34 O33 2.300 . S
Cd34 O42 2.381 . S
Cd34 O43 2.378 . S
O35 Cd36 2.385 . S
O35 C40 1.255 . S
Cd36 O35 2.385 . S
Cd36 O37 2.317 . S
O37 Cd36 2.317 . S
O37 C38 1.232 . S
C38 O37 1.232 . S
C38 O39 1.218 . S
O39 C38 1.218 . S
C40 O33 1.275 . S
C40 O35 1.255 . S
C41 O42 1.258 . S
C41 O43 1.256 . S
O42 Cd34 2.381 . S
O42 C41 1.258 . S
O43 Cd34 2.378 . S
O43 C41 1.256 . S
O44 Cd45 2.300 . S
O44 C51 1.275 . S
Cd45 O44 2.300 . S
Cd45 O53 2.381 . S
Cd45 O54 2.378 . S
O46 Cd47 2.385 . S
O46 C51 1.255 . S
Cd47 O46 2.385 . S
Cd47 O48 2.317 . S
O48 Cd47 2.317 . S
O48 C49 1.232 . S
C49 O48 1.232 . S
C49 O50 1.218 . S
O50 C49 1.218 . S
C51 O44 1.275 . S
C51 O46 1.255 . S
C52 O53 1.258 . S
C52 O54 1.256 . S
O53 Cd45 2.381 . S
O53 C52 1.258 . S
O54 Cd45 2.378 . S
O54 C52 1.256 . S
O55 Cd56 2.300 . S
O55 C62 1.275 . S
Cd56 O55 2.300 . S
Cd56 O64 2.381 . S
Cd56 O65 2.378 . S
O57 Cd58 2.385 . S
O57 C62 1.255 . S
Cd58 O57 2.385 . S
Cd58 O59 2.317 . S
O59 Cd58 2.317 . S
O59 C60 1.232 . S
C60 O59 1.232 . S
C60 O61 1.218 . S
O61 C60 1.218 . S
C62 O55 1.275 . S
C62 O57 1.255 . S
C63 O64 1.258 . S
C63 O65 1.256 . S
O64 Cd56 2.381 . S
O64 C63 1.258 . S
O65 Cd56 2.378 . S
O65 C63 1.256 . S
O66 Cd67 2.300 . S
O66 C73 1.275 . S
Cd67 O66 2.300 . S
Cd67 O75 2.381 . S
Cd67 O76 2.378 . S
O68 Cd69 2.385 . S
O68 C73 1.255 . S
Cd69 O68 2.385 . S
Cd69 O70 2.317 . S
O70 Cd69 2.317 . S
O70 C71 1.232 . S
C71 O70 1.232 . S
C71 O72 1.218 . S
O72 C71 1.218 . S
C73 O66 1.275 . S
C73 O68 1.255 . S
C74 O75 1.258 . S
C74 O76 1.256 . S
O75 Cd67 2.381 . S
O75 C74 1.258 . S
O76 Cd67 2.378 . S
O76 C74 1.256 . S
O77 Cd78 2.300 . S
O77 C84 1.275 . S
Cd78 O77 2.300 . S
Cd78 O86 2.381 . S
Cd78 O87 2.378 . S
O79 Cd80 2.385 . S
O79 C84 1.255 . S
Cd80 O79 2.385 . S
Cd80 O81 2.317 . S
O81 Cd80 2.317 . S
O81 C82 1.232 . S
C82 O81 1.232 . S
C82 O83 1.218 . S
O83 C82 1.218 . S
C84 O77 1.275 . S
C84 O79 1.255 . S
C85 O86 1.258 . S
C85 O87 1.256 . S
O86 Cd78 2.381 . S
O86 C85 1.258 . S
O87 Cd78 2.378 . S
O87 C85 1.256 . S
Sm88 C90 2.846 . S
Sm88 O108 2.543 . S
Sm88 O109 2.450 . S
Sm88 O110 2.689 . S
Sm88 O111 2.464 . S
Sm88 O112 2.396 . S
Sm88 O116 2.386 1_455 S
Sm88 O119 2.408 1_445 S
Sm89 C99 2.846 1_545 S
Sm89 O110 2.394 1_655 S
Sm89 O113 2.408 1_655 S
Sm89 O114 2.543 1_545 S
Sm89 O115 2.450 1_545 S
Sm89 O116 2.681 . S
Sm89 O117 2.464 . S
Sm89 O118 2.396 1_545 S
C90 Sm88 2.846 . S
C90 C91 1.506 . S
C90 O108 1.261 . S
C90 O109 1.242 . S
C91 C90 1.506 . S
C91 C92 1.358 . S
C91 C96 1.382 . S
C92 C91 1.358 . S
C92 C93 1.385 . S
C92 H120 0.930 . S
C93 C92 1.385 . S
C93 C94 1.395 . S
C93 H121 0.929 . S
C94 C93 1.395 . S
C94 C95 1.335 . S
C95 C94 1.335 . S
C95 C96 1.398 . S
C95 H122 0.930 . S
C96 C91 1.382 . S
C96 C95 1.398 . S
C96 H123 0.929 . S
C97 O110 1.265 1_565 S
C97 O111 1.251 1_565 S
C98 O112 1.252 . S
C98 O113 1.272 . S
C99 Sm89 2.846 1_565 S
C99 C100 1.506 . S
C99 O114 1.261 . S
C99 O115 1.242 . S
C100 C99 1.506 . S
C100 C101 1.358 . S
C100 C105 1.382 . S
C101 C100 1.358 . S
C101 C102 1.385 . S
C101 H124 0.930 . S
C102 C101 1.385 . S
C102 C103 1.395 . S
C102 H125 0.929 . S
C103 C102 1.395 . S
C103 C104 1.335 . S
C104 C103 1.335 . S
C104 C105 1.398 . S
C104 H126 0.930 . S
C105 C100 1.382 . S
C105 C104 1.398 . S
C105 H127 0.929 . S
C106 O116 1.271 . S
C106 O117 1.251 . S
C107 O118 1.252 . S
C107 O119 1.272 . S
O108 Sm88 2.543 . S
O108 C90 1.261 . S
O109 Sm88 2.450 . S
O109 C90 1.242 . S
O110 Sm88 2.689 . S
O110 Sm89 2.394 1_455 S
O110 C97 1.265 1_545 S
O111 Sm88 2.464 . S
O111 C97 1.251 1_545 S
O112 Sm88 2.396 . S
O112 C98 1.252 . S
O113 Sm89 2.408 1_455 S
O113 C98 1.272 . S
O114 Sm89 2.543 1_565 S
O114 C99 1.261 . S
O115 Sm89 2.450 1_565 S
O115 C99 1.242 . S
O116 Sm88 2.386 1_655 S
O116 Sm89 2.681 . S
O116 C106 1.271 . S
O117 Sm89 2.464 . S
O117 C106 1.251 . S
O118 Sm89 2.396 1_565 S
O118 C107 1.252 . S
O119 Sm88 2.408 1_665 S
O119 C107 1.272 . S
H120 C92 0.930 . S
H121 C93 0.929 . S
H122 C95 0.930 . S
H123 C96 0.929 . S
H124 C101 0.930 . S
H125 C102 0.929 . S
H126 C104 0.930 . S
H127 C105 0.929 . S
Sm128 C130 2.846 . S
Sm128 O148 2.543 . S
Sm128 O149 2.450 . S
Sm128 O150 2.681 . S
Sm128 O151 2.464 1_545 S
Sm128 O152 2.396 . S
Sm128 O156 2.386 . S
Sm128 O159 2.408 . S
Sm129 C139 2.846 1_544 S
Sm129 O150 2.386 . S
Sm129 O153 2.408 . S
Sm129 O154 2.543 1_544 S
Sm129 O155 2.450 1_554 S
Sm129 O156 2.681 . S
Sm129 O157 2.464 . S
Sm129 O158 2.385 1_554 S
C130 Sm128 2.846 . S
C130 C131 1.506 . S
C130 O148 1.261 . S
C130 O149 1.242 . S
C131 C130 1.506 . S
C131 C132 1.358 . S
C131 C136 1.382 . S
C132 C131 1.358 . S
C132 C133 1.385 . S
C132 H160 0.930 . S
C133 C132 1.385 . S
C133 C134 1.395 . S
C133 H161 0.929 . S
C134 C133 1.395 . S
C134 C135 1.335 . S
C135 C134 1.335 . S
C135 C136 1.398 . S
C135 H162 0.930 . S
C136 C131 1.382 . S
C136 C135 1.398 . S
C136 H163 0.929 . S
C137 O150 1.271 1_565 S
C137 O151 1.251 . S
C138 O152 1.252 . S
C138 O153 1.272 . S
C139 Sm129 2.846 1_566 S
C139 C140 1.506 . S
C139 O154 1.261 . S
C139 O155 1.242 1_565 S
C140 C139 1.506 . S
C140 C141 1.358 . S
C140 C145 1.382 . S
C141 C140 1.358 . S
C141 C142 1.385 . S
C141 H164 0.930 . S
C142 C141 1.385 . S
C142 C143 1.395 . S
C142 H165 0.929 . S
C143 C142 1.395 . S
C143 C144 1.335 . S
C144 C143 1.335 . S
C144 C145 1.398 . S
C144 H166 0.930 . S
C145 C140 1.382 . S
C145 C144 1.398 . S
C145 H167 0.929 1_565 S
C146 O156 1.271 . S
C146 O157 1.251 . S
C147 O158 1.262 1_554 S
C147 O159 1.272 . S
O148 Sm128 2.543 . S
O148 C130 1.261 . S
O149 Sm128 2.450 . S
O149 C130 1.242 . S
O150 Sm128 2.681 . S
O150 Sm129 2.386 . S
O150 C137 1.271 1_545 S
O151 Sm128 2.464 1_565 S
O151 C137 1.251 . S
O152 Sm128 2.396 . S
O152 C138 1.252 . S
O153 Sm129 2.408 . S
O153 C138 1.272 . S
O154 Sm129 2.543 1_566 S
O154 C139 1.261 . S
O155 Sm129 2.450 1_556 S
O155 C139 1.242 1_545 S
O156 Sm128 2.386 . S
O156 Sm129 2.681 . S
O156 C146 1.271 . S
O157 Sm129 2.464 . S
O157 C146 1.251 . S
O158 Sm129 2.385 1_556 S
O158 C147 1.262 1_556 S
O159 Sm128 2.408 . S
O159 C147 1.272 . S
H160 C132 0.930 . S
H161 C133 0.929 . S
H162 C135 0.930 . S
H163 C136 0.929 . S
H164 C141 0.930 . S
H165 C142 0.929 . S
H166 C144 0.930 . S
H167 C145 0.929 1_545 S
Sm168 C170 2.846 . S
Sm168 O188 2.543 . S
Sm168 O189 2.450 . S
Sm168 O190 2.681 . S
Sm168 O191 2.464 . S
Sm168 O192 2.396 . S
Sm168 O196 2.386 . S
Sm168 O199 2.408 . S
Sm169 C179 2.846 . S
Sm169 O190 2.386 . S
Sm169 O193 2.408 . S
Sm169 O194 2.543 . S
Sm169 O195 2.450 . S
Sm169 O196 2.681 . S
Sm169 O197 2.464 . S
Sm169 O198 2.396 . S
C170 Sm168 2.846 . S
C170 C171 1.506 . S
C170 O188 1.261 . S
C170 O189 1.242 . S
C171 C170 1.506 . S
C171 C172 1.358 . S
C171 C176 1.382 . S
C172 C171 1.358 . S
C172 C173 1.385 . S
C172 H200 0.930 . S
C173 C172 1.385 . S
C173 C174 1.395 . S
C173 H201 0.929 . S
C174 C173 1.395 . S
C174 C175 1.335 . S
C175 C174 1.335 . S
C175 C176 1.398 . S
C175 H202 0.930 . S
C176 C171 1.382 . S
C176 C175 1.398 . S
C176 H203 0.929 . S
C177 O190 1.271 . S
C177 O191 1.251 . S
C178 O192 1.252 . S
C178 O193 1.272 . S
C179 Sm169 2.846 . S
C179 C180 1.506 . S
C179 O194 1.261 . S
C179 O195 1.242 . S
C180 C179 1.506 . S
C180 C181 1.358 . S
C180 C185 1.382 . S
C181 C180 1.358 . S
C181 C182 1.385 . S
C181 H204 0.930 . S
C182 C181 1.385 . S
C182 C183 1.395 . S
C182 H205 0.929 . S
C183 C182 1.395 . S
C183 C184 1.335 . S
C184 C183 1.335 . S
C184 C185 1.398 . S
C184 H206 0.930 . S
C185 C180 1.382 . S
C185 C184 1.398 . S
C185 H207 0.929 . S
C186 O196 1.271 . S
C186 O197 1.251 . S
C187 O198 1.252 . S
C187 O199 1.272 . S
O188 Sm168 2.543 . S
O188 C170 1.261 . S
O189 Sm168 2.450 . S
O189 C170 1.242 . S
O190 Sm168 2.681 . S
O190 Sm169 2.386 . S
O190 C177 1.271 . S
O191 Sm168 2.464 . S
O191 C177 1.251 . S
O192 Sm168 2.396 . S
O192 C178 1.252 . S
O193 Sm169 2.408 . S
O193 C178 1.272 . S
O194 Sm169 2.543 . S
O194 C179 1.261 . S
O195 Sm169 2.450 . S
O195 C179 1.242 . S
O196 Sm168 2.386 . S
O196 Sm169 2.681 . S
O196 C186 1.271 . S
O197 Sm169 2.464 . S
O197 C186 1.251 . S
O198 Sm169 2.396 . S
O198 C187 1.252 . S
O199 Sm168 2.408 . S
O199 C187 1.272 . S
H200 C172 0.930 . S
H201 C173 0.929 . S
H202 C175 0.930 . S
H203 C176 0.929 . S
H204 C181 0.930 . S
H205 C182 0.929 . S
H206 C184 0.930 . S
H207 C185 0.929 . S
Sm208 C210 2.846 . S
Sm208 O228 2.543 . S
Sm208 O229 2.450 . S
Sm208 O230 2.681 1_455 S
Sm208 O231 2.464 1_455 S
Sm208 O232 2.396 . S
Sm208 O236 2.386 1_554 S
Sm208 O239 2.408 1_455 S
Sm209 C219 2.846 1_455 S
Sm209 O230 2.386 1_456 S
Sm209 O233 2.408 1_556 S
Sm209 O234 2.543 1_455 S
Sm209 O235 2.450 1_455 S
Sm209 O236 2.681 . S
Sm209 O237 2.464 . S
Sm209 O238 2.396 1_455 S
C210 Sm208 2.846 . S
C210 C211 1.506 . S
C210 O228 1.261 . S
C210 O229 1.242 . S
C211 C210 1.506 . S
C211 C212 1.358 . S
C211 C216 1.382 . S
C212 C211 1.358 . S
C212 C213 1.385 . S
C212 H240 0.930 . S
C213 C212 1.385 . S
C213 C214 1.395 . S
C213 H241 0.929 . S
C214 C213 1.395 . S
C214 C215 1.335 . S
C215 C214 1.335 . S
C215 C216 1.398 . S
C215 H242 0.930 . S
C216 C211 1.382 . S
C216 C215 1.398 . S
C216 H243 0.929 . S
C217 O230 1.271 . S
C217 O231 1.251 . S
C218 O232 1.252 . S
C218 O233 1.272 . S
C219 Sm209 2.846 1_655 S
C219 C220 1.506 . S
C219 O234 1.261 . S
C219 O235 1.242 . S
C220 C219 1.506 . S
C220 C221 1.358 . S
C220 C225 1.382 . S
C221 C220 1.358 . S
C221 C222 1.385 . S
C221 H244 0.930 . S
C222 C221 1.385 . S
C222 C223 1.395 . S
C222 H245 0.929 . S
C223 C222 1.395 . S
C223 C224 1.335 . S
C224 C223 1.335 . S
C224 C225 1.398 . S
C224 H246 0.930 . S
C225 C220 1.382 . S
C225 C224 1.398 . S
C225 H247 0.929 . S
C226 O236 1.271 . S
C226 O237 1.251 . S
C227 O238 1.252 . S
C227 O239 1.272 1_556 S
O228 Sm208 2.543 . S
O228 C210 1.261 . S
O229 Sm208 2.450 . S
O229 C210 1.242 . S
O230 Sm208 2.681 1_655 S
O230 Sm209 2.386 1_654 S
O230 C217 1.271 . S
O231 Sm208 2.464 1_655 S
O231 C217 1.251 . S
O232 Sm208 2.396 . S
O232 C218 1.252 . S
O233 Sm209 2.408 1_554 S
O233 C218 1.272 . S
O234 Sm209 2.543 1_655 S
O234 C219 1.261 . S
O235 Sm209 2.450 1_655 S
O235 C219 1.242 . S
O236 Sm208 2.386 1_556 S
O236 Sm209 2.681 . S
O236 C226 1.271 . S
O237 Sm209 2.464 . S
O237 C226 1.251 . S
O238 Sm209 2.396 1_655 S
O238 C227 1.252 . S
O239 Sm208 2.408 1_655 S
O239 C227 1.272 1_554 S
H240 C212 0.930 . S
H241 C213 0.929 . S
H242 C215 0.930 . S
H243 C216 0.929 . S
H244 C221 0.930 . S
H245 C222 0.929 . S
H246 C224 0.930 . S
H247 C225 0.929 . S
C248 C249 1.363 . S
C248 C254 1.379 . S
C248 N256 1.356 . S
C249 C248 1.363 . S
C249 C255 1.363 . S
C250 C251 1.363 . S
C250 C255 1.379 . S
C250 N257 1.356 . S
C251 C250 1.363 . S
C251 C254 1.363 . S
N252 C254 1.356 . S
N252 H264 0.984 . S
N252 H265 0.985 . S
N253 C255 1.356 . S
N253 H258 0.984 . S
N253 H259 0.985 . S
C254 C248 1.379 . S
C254 C251 1.363 . S
C254 N252 1.356 . S
C255 C249 1.363 . S
C255 C250 1.379 . S
C255 N253 1.356 . S
N256 C248 1.356 . S
N256 H262 0.984 . S
N256 H263 0.984 . S
N257 C250 1.356 . S
N257 H260 0.984 . S
N257 H261 0.985 . S
H258 N253 0.984 . S
H259 N253 0.985 . S
H260 N257 0.984 . S
H261 N257 0.985 . S
H262 N256 0.984 . S
H263 N256 0.984 . S
H264 N252 0.984 . S
H265 N252 0.985 . S
C266 C267 1.363 . S
C266 C272 1.379 . S
C266 N274 1.356 . S
C267 C266 1.363 . S
C267 C273 1.363 . S
C268 C269 1.363 . S
C268 C273 1.379 . S
C268 N275 1.356 . S
C269 C268 1.363 . S
C269 C272 1.363 . S
N270 C272 1.356 . S
N270 H282 0.984 . S
N270 H283 0.985 . S
N271 C273 1.356 . S
N271 H276 0.984 . S
N271 H277 0.985 1_565 S
C272 C266 1.379 . S
C272 C269 1.363 . S
C272 N270 1.356 . S
C273 C267 1.363 . S
C273 C268 1.379 . S
C273 N271 1.356 . S
N274 C266 1.356 . S
N274 H280 0.984 . S
N274 H281 0.984 . S
N275 C268 1.356 . S
N275 H278 0.984 . S
N275 H279 0.985 1_565 S
H276 N271 0.984 . S
H277 N271 0.985 1_545 S
H278 N275 0.984 . S
H279 N275 0.985 1_545 S
H280 N274 0.984 . S
H281 N274 0.984 . S
H282 N270 0.984 . S
H283 N270 0.985 . S
C284 C285 1.363 . S
C284 C290 1.379 . S
C284 N292 1.356 . S
C285 C284 1.363 . S
C285 C291 1.363 . S
C286 C287 1.363 . S
C286 C291 1.379 . S
C286 N293 1.356 . S
C287 C286 1.363 . S
C287 C290 1.363 . S
N288 C290 1.356 . S
N288 H300 0.984 . S
N288 H301 0.985 . S
N289 C291 1.356 . S
N289 H294 0.984 . S
N289 H295 0.985 . S
C290 C284 1.379 . S
C290 C287 1.363 . S
C290 N288 1.356 . S
C291 C285 1.363 . S
C291 C286 1.379 . S
C291 N289 1.356 . S
N292 C284 1.356 . S
N292 H298 0.984 . S
N292 H299 0.984 . S
N293 C286 1.356 . S
N293 H296 0.984 . S
N293 H297 0.985 . S
H294 N289 0.984 . S
H295 N289 0.985 . S
H296 N293 0.984 . S
H297 N293 0.985 . S
H298 N292 0.984 . S
H299 N292 0.984 . S
H300 N288 0.984 . S
H301 N288 0.985 . S
C302 C303 1.363 . S
C302 C308 1.379 . S
C302 N310 1.356 . S
C303 C302 1.363 . S
C303 C309 1.363 . S
C304 C305 1.363 . S
C304 C309 1.379 . S
C304 N311 1.356 1_655 S
C305 C304 1.363 . S
C305 C308 1.363 . S
N306 C308 1.356 . S
N306 H318 0.984 . S
N306 H319 0.985 . S
N307 C309 1.356 . S
N307 H312 0.984 . S
N307 H313 0.985 1_655 S
C308 C302 1.379 . S
C308 C305 1.363 . S
C308 N306 1.356 . S
C309 C303 1.363 . S
C309 C304 1.379 . S
C309 N307 1.356 . S
N310 C302 1.356 . S
N310 H316 0.984 . S
N310 H317 0.984 . S
N311 C304 1.356 1_455 S
N311 H314 0.984 . S
N311 H315 0.985 . S
H312 N307 0.984 . S
H313 N307 0.985 1_455 S
H314 N311 0.984 . S
H315 N311 0.985 . S
H316 N310 0.984 . S
H317 N310 0.984 . S
H318 N306 0.984 . S
H319 N306 0.985 . S
C320 C321 1.363 . S
C320 C326 1.379 . S
C320 N328 1.356 . S
C321 C320 1.363 . S
C321 C327 1.363 . S
C322 C323 1.363 . S
C322 C327 1.379 . S
C322 N329 1.356 . S
C323 C322 1.363 . S
C323 C326 1.363 . S
N324 C326 1.356 . S
N324 H336 0.984 . S
N324 H337 0.985 . S
N325 C327 1.356 . S
N325 H330 0.984 . S
N325 H331 0.985 . S
C326 C320 1.379 . S
C326 C323 1.363 . S
C326 N324 1.356 . S
C327 C321 1.363 . S
C327 C322 1.379 . S
C327 N325 1.356 . S
N328 C320 1.356 . S
N328 H334 0.984 . S
N328 H335 0.984 . S
N329 C322 1.356 . S
N329 H332 0.984 . S
N329 H333 0.985 . S
H330 N325 0.984 . S
H331 N325 0.985 . S
H332 N329 0.984 . S
H333 N329 0.985 . S
H334 N328 0.984 . S
H335 N328 0.984 . S
H336 N324 0.984 . S
H337 N324 0.985 . S
C338 C339 1.363 . S
C338 C344 1.379 . S
C338 N346 1.356 . S
C339 C338 1.363 . S
C339 C345 1.363 . S
C340 C341 1.363 . S
C340 C345 1.379 . S
C340 N347 1.356 1_565 S
C341 C340 1.363 . S
C341 C344 1.363 . S
N342 C344 1.356 . S
N342 H354 0.984 . S
N342 H355 0.985 . S
N343 C345 1.356 . S
N343 H348 0.984 . S
N343 H349 0.985 . S
C344 C338 1.379 . S
C344 C341 1.363 . S
C344 N342 1.356 . S
C345 C339 1.363 . S
C345 C340 1.379 . S
C345 N343 1.356 . S
N346 C338 1.356 . S
N346 H352 0.984 . S
N346 H353 0.984 . S
N347 C340 1.356 1_545 S
N347 H350 0.984 . S
N347 H351 0.985 . S
H348 N343 0.984 . S
H349 N343 0.985 . S
H350 N347 0.984 . S
H351 N347 0.985 . S
H352 N346 0.984 . S
H353 N346 0.984 . S
H354 N342 0.984 . S
H355 N342 0.985 . S
C356 C357 1.363 . S
C356 C362 1.379 . S
C356 N364 1.356 . S
C357 C356 1.363 . S
C357 C363 1.363 . S
C358 C359 1.363 . S
C358 C363 1.379 . S
C358 N365 1.356 1_556 S
C359 C358 1.363 . S
C359 C362 1.363 . S
N360 C362 1.356 . S
N360 H372 0.984 . S
N360 H373 0.985 . S
N361 C363 1.356 . S
N361 H366 0.984 . S
N361 H367 0.985 1_556 S
C362 C356 1.379 . S
C362 C359 1.363 . S
C362 N360 1.356 . S
C363 C357 1.363 . S
C363 C358 1.379 . S
C363 N361 1.356 . S
N364 C356 1.356 . S
N364 H370 0.984 . S
N364 H371 0.984 . S
N365 C358 1.356 1_554 S
N365 H368 0.984 . S
N365 H369 0.985 . S
H366 N361 0.984 . S
H367 N361 0.985 1_554 S
H368 N365 0.984 . S
H369 N365 0.985 . S
H370 N364 0.984 . S
H371 N364 0.984 . S
H372 N360 0.984 . S
H373 N360 0.985 . S
C374 C375 1.363 . S
C374 C380 1.379 . S
C374 N382 1.356 . S
C375 C374 1.363 . S
C375 C381 1.363 . S
C376 C377 1.363 . S
C376 C381 1.379 . S
C376 N383 1.356 . S
C377 C376 1.363 . S
C377 C380 1.363 . S
N378 C380 1.356 . S
N378 H390 0.984 . S
N378 H391 0.985 . S
N379 C381 1.356 . S
N379 H384 0.984 . S
N379 H385 0.985 . S
C380 C374 1.379 . S
C380 C377 1.363 . S
C380 N378 1.356 . S
C381 C375 1.363 . S
C381 C376 1.379 . S
C381 N379 1.356 . S
N382 C374 1.356 . S
N382 H388 0.984 . S
N382 H389 0.984 . S
N383 C376 1.356 . S
N383 H386 0.984 . S
N383 H387 0.985 . S
H384 N379 0.984 . S
H385 N379 0.985 . S
H386 N383 0.984 . S
H387 N383 0.985 . S
H388 N382 0.984 . S
H389 N382 0.984 . S
H390 N378 0.984 . S
H391 N378 0.985 . S
C392 C393 1.363 . S
C392 C398 1.379 . S
C392 N400 1.356 . S
C393 C392 1.363 . S
C393 C399 1.363 . S
C394 C395 1.363 . S
C394 C399 1.379 . S
C394 N401 1.356 . S
C395 C394 1.363 . S
C395 C398 1.363 . S
N396 C398 1.356 . S
N396 H408 0.984 . S
N396 H409 0.985 . S
N397 C399 1.356 . S
N397 H402 0.984 . S
N397 H403 0.985 . S
C398 C392 1.379 . S
C398 C395 1.363 . S
C398 N396 1.356 . S
C399 C393 1.363 . S
C399 C394 1.379 . S
C399 N397 1.356 . S
N400 C392 1.356 . S
N400 H406 0.984 . S
N400 H407 0.984 . S
N401 C394 1.356 . S
N401 H404 0.984 . S
N401 H405 0.985 . S
H402 N397 0.984 . S
H403 N397 0.985 . S
H404 N401 0.984 . S
H405 N401 0.985 . S
H406 N400 0.984 . S
H407 N400 0.984 . S
H408 N396 0.984 . S
H409 N396 0.985 . S
C410 C411 1.363 . S
C410 C416 1.379 1_556 S
C410 N418 1.356 . S
C411 C410 1.363 . S
C411 C417 1.363 . S
C412 C413 1.363 1_556 S
C412 C417 1.379 . S
C412 N419 1.356 . S
C413 C412 1.363 1_554 S
C413 C416 1.363 . S
N414 C416 1.356 . S
N414 H426 0.984 . S
N414 H427 0.985 . S
N415 C417 1.356 . S
N415 H420 0.984 . S
N415 H421 0.985 . S
C416 C410 1.379 1_554 S
C416 C413 1.363 . S
C416 N414 1.356 . S
C417 C411 1.363 . S
C417 C412 1.379 . S
C417 N415 1.356 . S
N418 C410 1.356 . S
N418 H424 0.984 . S
N418 H425 0.984 . S
N419 C412 1.356 . S
N419 H422 0.984 . S
N419 H423 0.985 . S
H420 N415 0.984 . S
H421 N415 0.985 . S
H422 N419 0.984 . S
H423 N419 0.985 . S
H424 N418 0.984 . S
H425 N418 0.984 . S
H426 N414 0.984 . S
H427 N414 0.985 . S
C428 C429 1.363 . S
C428 C434 1.379 . S
C428 N436 1.356 . S
C429 C428 1.363 . S
C429 C435 1.363 . S
C430 C431 1.363 . S
C430 C435 1.379 . S
C430 N437 1.356 . S
C431 C430 1.363 . S
C431 C434 1.363 . S
N432 C434 1.356 . S
N432 H444 0.984 . S
N432 H445 0.985 . S
N433 C435 1.356 . S
N433 H438 0.984 . S
N433 H439 0.985 . S
C434 C428 1.379 . S
C434 C431 1.363 . S
C434 N432 1.356 . S
C435 C429 1.363 . S
C435 C430 1.379 . S
C435 N433 1.356 . S
N436 C428 1.356 . S
N436 H442 0.984 . S
N436 H443 0.984 . S
N437 C430 1.356 . S
N437 H440 0.984 . S
N437 H441 0.985 1_655 S
H438 N433 0.984 . S
H439 N433 0.985 . S
H440 N437 0.984 . S
H441 N437 0.985 1_455 S
H442 N436 0.984 . S
H443 N436 0.984 . S
H444 N432 0.984 . S
H445 N432 0.985 . S
C446 C447 1.363 . S
C446 C452 1.379 . S
C446 N454 1.356 . S
C447 C446 1.363 . S
C447 C453 1.363 . S
C448 C449 1.363 . S
C448 C453 1.379 . S
C448 N455 1.356 . S
C449 C448 1.363 . S
C449 C452 1.363 . S
N450 C452 1.356 . S
N450 H462 0.984 . S
N450 H463 0.985 . S
N451 C453 1.356 . S
N451 H456 0.984 . S
N451 H457 0.985 . S
C452 C446 1.379 . S
C452 C449 1.363 . S
C452 N450 1.356 . S
C453 C447 1.363 . S
C453 C448 1.379 . S
C453 N451 1.356 . S
N454 C446 1.356 . S
N454 H460 0.984 . S
N454 H461 0.984 . S
N455 C448 1.356 . S
N455 H458 0.984 . S
N455 H459 0.985 . S
H456 N451 0.984 . S
H457 N451 0.985 . S
H458 N455 0.984 . S
H459 N455 0.985 . S
H460 N454 0.984 . S
H461 N454 0.984 . S
H462 N450 0.984 . S
H463 N450 0.985 . S
C464 C465 1.363 . S
C464 C470 1.379 . S
C464 N472 1.356 . S
C465 C464 1.363 . S
C465 C471 1.363 . S
C466 C467 1.363 . S
C466 C471 1.379 . S
C466 N473 1.356 . S
C467 C466 1.363 . S
C467 C470 1.363 . S
N468 C470 1.356 . S
N468 H480 0.984 . S
N468 H481 0.985 . S
N469 C471 1.356 . S
N469 H474 0.984 . S
N469 H475 0.985 . S
C470 C464 1.379 . S
C470 C467 1.363 . S
C470 N468 1.356 . S
C471 C465 1.363 . S
C471 C466 1.379 . S
C471 N469 1.356 . S
N472 C464 1.356 . S
N472 H478 0.984 . S
N472 H479 0.984 . S
N473 C466 1.356 . S
N473 H476 0.984 . S
N473 H477 0.985 . S
H474 N469 0.984 . S
H475 N469 0.985 . S
H476 N473 0.984 . S
H477 N473 0.985 . S
H478 N472 0.984 . S
H479 N472 0.984 . S
H480 N468 0.984 . S
H481 N468 0.985 . S
C482 C483 1.363 . S
C482 C488 1.379 . S
C482 N490 1.356 . S
C483 C482 1.363 . S
C483 C489 1.363 . S
C484 C485 1.363 . S
C484 C489 1.379 . S
C484 N491 1.356 . S
C485 C484 1.363 . S
C485 C488 1.363 . S
N486 C488 1.356 . S
N486 H498 0.984 . S
N486 H499 0.985 . S
N487 C489 1.356 . S
N487 H492 0.984 . S
N487 H493 0.985 . S
C488 C482 1.379 . S
C488 C485 1.363 . S
C488 N486 1.356 . S
C489 C483 1.363 . S
C489 C484 1.379 . S
C489 N487 1.356 . S
N490 C482 1.356 . S
N490 H496 0.984 . S
N490 H497 0.984 . S
N491 C484 1.356 . S
N491 H494 0.984 . S
N491 H495 0.985 . S
H492 N487 0.984 . S
H493 N487 0.985 . S
H494 N491 0.984 . S
H495 N491 0.985 . S
H496 N490 0.984 . S
H497 N490 0.984 . S
H498 N486 0.984 . S
H499 N486 0.985 . S
C500 C501 1.363 . S
C500 C506 1.379 . S
C500 N508 1.356 . S
C501 C500 1.363 . S
C501 C507 1.363 . S
C502 C503 1.363 . S
C502 C507 1.379 . S
C502 N509 1.356 . S
C503 C502 1.363 . S
C503 C506 1.363 . S
N504 C506 1.356 . S
N504 H516 0.984 . S
N504 H517 0.985 . S
N505 C507 1.356 . S
N505 H510 0.984 . S
N505 H511 0.985 . S
C506 C500 1.379 . S
C506 C503 1.363 . S
C506 N504 1.356 . S
C507 C501 1.363 . S
C507 C502 1.379 . S
C507 N505 1.356 . S
N508 C500 1.356 . S
N508 H514 0.984 . S
N508 H515 0.984 . S
N509 C502 1.356 . S
N509 H512 0.984 . S
N509 H513 0.985 . S
H510 N505 0.984 . S
H511 N505 0.985 . S
H512 N509 0.984 . S
H513 N509 0.985 . S
H514 N508 0.984 . S
H515 N508 0.984 . S
H516 N504 0.984 . S
H517 N504 0.985 . S
C518 C519 1.363 . S
C518 C524 1.379 . S
C518 N526 1.356 . S
C519 C518 1.363 . S
C519 C525 1.363 . S
C520 C521 1.363 . S
C520 C525 1.379 . S
C520 N527 1.356 . S
C521 C520 1.363 . S
C521 C524 1.363 . S
N522 C524 1.356 . S
N522 H534 0.984 . S
N522 H535 0.985 . S
N523 C525 1.356 . S
N523 H528 0.984 . S
N523 H529 0.985 . S
C524 C518 1.379 . S
C524 C521 1.363 . S
C524 N522 1.356 . S
C525 C519 1.363 . S
C525 C520 1.379 . S
C525 N523 1.356 . S
N526 C518 1.356 . S
N526 H532 0.984 . S
N526 H533 0.984 . S
N527 C520 1.356 . S
N527 H530 0.984 . S
N527 H531 0.985 . S
H528 N523 0.984 . S
H529 N523 0.985 . S
H530 N527 0.984 . S
H531 N527 0.985 . S
H532 N526 0.984 . S
H533 N526 0.984 . S
H534 N522 0.984 . S
H535 N522 0.985 . S
C536 C537 1.363 . S
C536 C542 1.379 . S
C536 N544 1.356 . S
C537 C536 1.363 . S
C537 C543 1.363 . S
C538 C539 1.363 . S
C538 C543 1.379 . S
C538 N545 1.356 . S
C539 C538 1.363 . S
C539 C542 1.363 . S
N540 C542 1.356 . S
N540 H552 0.984 . S
N540 H553 0.985 . S
N541 C543 1.356 . S
N541 H546 0.984 . S
N541 H547 0.985 . S
C542 C536 1.379 . S
C542 C539 1.363 . S
C542 N540 1.356 . S
C543 C537 1.363 . S
C543 C538 1.379 . S
C543 N541 1.356 . S
N544 C536 1.356 . S
N544 H550 0.984 . S
N544 H551 0.984 . S
N545 C538 1.356 . S
N545 H548 0.984 1_556 S
N545 H549 0.985 . S
H546 N541 0.984 . S
H547 N541 0.985 . S
H548 N545 0.984 1_554 S
H549 N545 0.985 . S
H550 N544 0.984 . S
H551 N544 0.984 . S
H552 N540 0.984 . S
H553 N540 0.985 . S
C554 C555 1.363 . S
C554 C560 1.379 . S
C554 N562 1.356 . S
C555 C554 1.363 . S
C555 C561 1.363 . S
C556 C557 1.363 . S
C556 C561 1.379 . S
C556 N563 1.356 . S
C557 C556 1.363 . S
C557 C560 1.363 . S
N558 C560 1.356 . S
N558 H570 0.984 . S
N558 H571 0.985 . S
N559 C561 1.356 . S
N559 H564 0.984 . S
N559 H565 0.985 . S
C560 C554 1.379 . S
C560 C557 1.363 . S
C560 N558 1.356 . S
C561 C555 1.363 . S
C561 C556 1.379 . S
C561 N559 1.356 . S
N562 C554 1.356 . S
N562 H568 0.984 . S
N562 H569 0.984 . S
N563 C556 1.356 . S
N563 H566 0.984 . S
N563 H567 0.985 1_655 S
H564 N559 0.984 . S
H565 N559 0.985 . S
H566 N563 0.984 . S
H567 N563 0.985 1_455 S
H568 N562 0.984 . S
H569 N562 0.984 . S
H570 N558 0.984 . S
H571 N558 0.985 . S
C572 C573 1.363 . S
C572 C578 1.379 . S
C572 N580 1.356 . S
C573 C572 1.363 . S
C573 C579 1.363 . S
C574 C575 1.363 . S
C574 C579 1.379 . S
C574 N581 1.356 . S
C575 C574 1.363 . S
C575 C578 1.363 . S
N576 C578 1.356 . S
N576 H588 0.984 . S
N576 H589 0.985 . S
N577 C579 1.356 . S
N577 H582 0.984 . S
N577 H583 0.985 . S
C578 C572 1.379 . S
C578 C575 1.363 . S
C578 N576 1.356 . S
C579 C573 1.363 . S
C579 C574 1.379 . S
C579 N577 1.356 . S
N580 C572 1.356 . S
N580 H586 0.984 . S
N580 H587 0.984 . S
N581 C574 1.356 . S
N581 H584 0.984 . S
N581 H585 0.985 . S
H582 N577 0.984 . S
H583 N577 0.985 . S
H584 N581 0.984 . S
H585 N581 0.985 . S
H586 N580 0.984 . S
H587 N580 0.984 . S
H588 N576 0.984 . S
H589 N576 0.985 . S
C590 C591 1.363 . S
C590 C596 1.379 . S
C590 N598 1.356 . S
C591 C590 1.363 . S
C591 C597 1.363 . S
C592 C593 1.363 . S
C592 C597 1.379 . S
C592 N599 1.356 . S
C593 C592 1.363 . S
C593 C596 1.363 . S
N594 C596 1.356 . S
N594 H606 0.984 . S
N594 H607 0.985 . S
N595 C597 1.356 . S
N595 H600 0.984 . S
N595 H601 0.985 . S
C596 C590 1.379 . S
C596 C593 1.363 . S
C596 N594 1.356 . S
C597 C591 1.363 . S
C597 C592 1.379 . S
C597 N595 1.356 . S
N598 C590 1.356 . S
N598 H604 0.984 . S
N598 H605 0.984 . S
N599 C592 1.356 . S
N599 H602 0.984 . S
N599 H603 0.985 . S
H600 N595 0.984 . S
H601 N595 0.985 . S
H602 N599 0.984 . S
H603 N599 0.985 . S
H604 N598 0.984 . S
H605 N598 0.984 . S
H606 N594 0.984 . S
H607 N594 0.985 . S
C608 C609 1.363 . S
C608 C614 1.379 . S
C608 N616 1.356 . S
C609 C608 1.363 . S
C609 C615 1.363 . S
C610 C611 1.363 . S
C610 C615 1.379 . S
C610 N617 1.356 . S
C611 C610 1.363 . S
C611 C614 1.363 . S
N612 C614 1.356 . S
N612 H624 0.984 . S
N612 H625 0.985 . S
N613 C615 1.356 . S
N613 H618 0.984 . S
N613 H619 0.985 . S
C614 C608 1.379 . S
C614 C611 1.363 . S
C614 N612 1.356 . S
C615 C609 1.363 . S
C615 C610 1.379 . S
C615 N613 1.356 . S
N616 C608 1.356 . S
N616 H622 0.984 . S
N616 H623 0.984 . S
N617 C610 1.356 . S
N617 H620 0.984 . S
N617 H621 0.985 . S
H618 N613 0.984 . S
H619 N613 0.985 . S
H620 N617 0.984 . S
H621 N617 0.985 . S
H622 N616 0.984 . S
H623 N616 0.984 . S
H624 N612 0.984 . S
H625 N612 0.985 . S
C626 C627 1.363 . S
C626 C632 1.379 . S
C626 N634 1.356 . S
C627 C626 1.363 . S
C627 C633 1.363 . S
C628 C629 1.363 . S
C628 C633 1.379 . S
C628 N635 1.356 . S
C629 C628 1.363 . S
C629 C632 1.363 . S
N630 C632 1.356 . S
N630 H642 0.984 . S
N630 H643 0.985 . S
N631 C633 1.356 . S
N631 H636 0.984 . S
N631 H637 0.985 . S
C632 C626 1.379 . S
C632 C629 1.363 . S
C632 N630 1.356 . S
C633 C627 1.363 . S
C633 C628 1.379 . S
C633 N631 1.356 . S
N634 C626 1.356 . S
N634 H640 0.984 . S
N634 H641 0.984 . S
N635 C628 1.356 . S
N635 H638 0.984 . S
N635 H639 0.985 . S
H636 N631 0.984 . S
H637 N631 0.985 . S
H638 N635 0.984 . S
H639 N635 0.985 . S
H640 N634 0.984 . S
H641 N634 0.984 . S
H642 N630 0.984 . S
H643 N630 0.985 . S
C644 C645 1.363 . S
C644 C650 1.379 . S
C644 N652 1.356 . S
C645 C644 1.363 . S
C645 C651 1.363 . S
C646 C647 1.363 . S
C646 C651 1.379 . S
C646 N653 1.356 . S
C647 C646 1.363 . S
C647 C650 1.363 . S
N648 C650 1.356 . S
N648 H660 0.984 . S
N648 H661 0.985 . S
N649 C651 1.356 . S
N649 H654 0.984 . S
N649 H655 0.985 . S
C650 C644 1.379 . S
C650 C647 1.363 . S
C650 N648 1.356 . S
C651 C645 1.363 . S
C651 C646 1.379 . S
C651 N649 1.356 . S
N652 C644 1.356 . S
N652 H658 0.984 . S
N652 H659 0.984 . S
N653 C646 1.356 . S
N653 H656 0.984 . S
N653 H657 0.985 . S
H654 N649 0.984 . S
H655 N649 0.985 . S
H656 N653 0.984 . S
H657 N653 0.985 . S
H658 N652 0.984 . S
H659 N652 0.984 . S
H660 N648 0.984 . S
H661 N648 0.985 . S
C662 C663 1.363 . S
C662 C668 1.379 . S
C662 N670 1.356 . S
C663 C662 1.363 . S
C663 C669 1.363 . S
C664 C665 1.363 . S
C664 C669 1.379 . S
C664 N671 1.356 . S
C665 C664 1.363 . S
C665 C668 1.363 . S
N666 C668 1.356 . S
N666 H678 0.984 . S
N666 H679 0.985 . S
N667 C669 1.356 . S
N667 H672 0.984 . S
N667 H673 0.985 . S
C668 C662 1.379 . S
C668 C665 1.363 . S
C668 N666 1.356 . S
C669 C663 1.363 . S
C669 C664 1.379 . S
C669 N667 1.356 . S
N670 C662 1.356 . S
N670 H676 0.984 . S
N670 H677 0.984 . S
N671 C664 1.356 . S
N671 H674 0.984 . S
N671 H675 0.985 . S
H672 N667 0.984 . S
H673 N667 0.985 . S
H674 N671 0.984 . S
H675 N671 0.985 . S
H676 N670 0.984 . S
H677 N670 0.984 . S
H678 N666 0.984 . S
H679 N666 0.985 . S
C249 C5 1.005 . S
C251 C94 1.254 . S
C267 C18 1.046 . S
C269 C143 1.185 . S
C287 C178 2.378 . S
C285 C30 2.421 . S
C303 C41 2.214 . S
C305 C217 2.172 . S
C323 C138 2.302 . S
C321 C7 2.036 . S
C341 C97 0.834 . S
C339 C16 0.803 . S
C359 C227 2.009 . S
C357 C29 1.977 . S
C377 C186 1.396 . S
C375 C38 1.281 . S
C393 C8 1.463 . S
C395 C214 1.597 . S
C413 C146 2.544 . S
C411 C27 2.367 . S
C429 C40 2.475 . S
C431 C107 2.478 . S
C447 C19 1.047 . S
C449 C183 1.048 . S
C467 C103 1.262 . S
C465 C51 0.999 . S
C483 C62 1.495 . S
C485 C134 1.408 . S
C501 C74 2.518 . S
C503 C187 2.481 . S
C519 C84 2.279 . S
C521 C226 2.372 . S
C537 C49 1.769 . S
C539 C147 2.478 1_566 S
C557 C106 0.942 . S
C555 C63 0.955 . S
C575 C218 1.856 . S
C573 C71 1.769 . S
C593 C177 1.554 . S
C591 C85 1.533 . S
C609 C52 1.536 . S
C611 C223 1.685 . S
C629 C137 2.636 . S
C627 C73 2.728 . S
C647 C98 2.113 . S
C645 C82 1.793 . S
C663 C60 0.926 . S
C665 C174 1.023 . S
