# Generated by pormake.
# Topology iac, (4,6)-cn, num edge types: 1
# Building blocks:
#     Node 0, Type 0, BuildingBlock: QUQFOY_clean_sbu_3, # of connection points: 4
#     Node 1, Type 0, BuildingBlock: QUQFOY_clean_sbu_3, # of connection points: 4
#     Node 2, Type 0, BuildingBlock: QUQFOY_clean_sbu_3, # of connection points: 4
#     Node 3, Type 0, BuildingBlock: QUQFOY_clean_sbu_3, # of connection points: 4
#     Node 4, Type 0, BuildingBlock: QUQFOY_clean_sbu_3, # of connection points: 4
#     Node 5, Type 0, BuildingBlock: QUQFOY_clean_sbu_3, # of connection points: 4
#     Node 6, Type 0, BuildingBlock: QUQFOY_clean_sbu_3, # of connection points: 4
#     Node 7, Type 0, BuildingBlock: QUQFOY_clean_sbu_3, # of connection points: 4
#     Node 8, Type 0, BuildingBlock: QUQFOY_clean_sbu_3, # of connection points: 4
#     Node 9, Type 0, BuildingBlock: QUQFOY_clean_sbu_3, # of connection points: 4
#     Node 10, Type 0, BuildingBlock: QUQFOY_clean_sbu_3, # of connection points: 4
#     Node 11, Type 0, BuildingBlock: QUQFOY_clean_sbu_3, # of connection points: 4
#     Node 12, Type 0, BuildingBlock: QUQFOY_clean_sbu_3, # of connection points: 4
#     Node 13, Type 0, BuildingBlock: QUQFOY_clean_sbu_3, # of connection points: 4
#     Node 14, Type 0, BuildingBlock: QUQFOY_clean_sbu_3, # of connection points: 4
#     Node 15, Type 0, BuildingBlock: QUQFOY_clean_sbu_3, # of connection points: 4
#     Node 16, Type 0, BuildingBlock: QUQFOY_clean_sbu_3, # of connection points: 4
#     Node 17, Type 0, BuildingBlock: QUQFOY_clean_sbu_3, # of connection points: 4
#     Node 18, Type 0, BuildingBlock: QUQFOY_clean_sbu_3, # of connection points: 4
#     Node 19, Type 0, BuildingBlock: QUQFOY_clean_sbu_3, # of connection points: 4
#     Node 20, Type 0, BuildingBlock: QUQFOY_clean_sbu_3, # of connection points: 4
#     Node 21, Type 0, BuildingBlock: QUQFOY_clean_sbu_3, # of connection points: 4
#     Node 22, Type 0, BuildingBlock: QUQFOY_clean_sbu_3, # of connection points: 4
#     Node 23, Type 0, BuildingBlock: QUQFOY_clean_sbu_3, # of connection points: 4
#     Node 24, Type 1, BuildingBlock: CIFDUS_clean_sbu_1, # of connection points: 6
#     Node 25, Type 1, BuildingBlock: CIFDUS_clean_sbu_1, # of connection points: 6
#     Node 26, Type 1, BuildingBlock: CIFDUS_clean_sbu_1, # of connection points: 6
#     Node 27, Type 1, BuildingBlock: CIFDUS_clean_sbu_1, # of connection points: 6
#     Node 28, Type 1, BuildingBlock: CIFDUS_clean_sbu_1, # of connection points: 6
#     Node 29, Type 1, BuildingBlock: CIFDUS_clean_sbu_1, # of connection points: 6
#     Node 30, Type 1, BuildingBlock: CIFDUS_clean_sbu_1, # of connection points: 6
#     Node 31, Type 1, BuildingBlock: CIFDUS_clean_sbu_1, # of connection points: 6
#     Node 32, Type 1, BuildingBlock: CIFDUS_clean_sbu_1, # of connection points: 6
#     Node 33, Type 1, BuildingBlock: CIFDUS_clean_sbu_1, # of connection points: 6
#     Node 34, Type 1, BuildingBlock: CIFDUS_clean_sbu_1, # of connection points: 6
#     Node 35, Type 1, BuildingBlock: CIFDUS_clean_sbu_1, # of connection points: 6
#     Node 36, Type 1, BuildingBlock: CIFDUS_clean_sbu_1, # of connection points: 6
#     Node 37, Type 1, BuildingBlock: CIFDUS_clean_sbu_1, # of connection points: 6
#     Node 38, Type 1, BuildingBlock: CIFDUS_clean_sbu_1, # of connection points: 6
#     Node 39, Type 1, BuildingBlock: CIFDUS_clean_sbu_1, # of connection points: 6
#     Edge 40, Type (0, 1), None
#     Edge 41, Type (0, 1), None
#     Edge 42, Type (0, 1), None
#     Edge 43, Type (0, 1), None
#     Edge 44, Type (0, 1), None
#     Edge 45, Type (0, 1), None
#     Edge 46, Type (0, 1), None
#     Edge 47, Type (0, 1), None
#     Edge 48, Type (0, 1), None
#     Edge 49, Type (0, 1), None
#     Edge 50, Type (0, 1), None
#     Edge 51, Type (0, 1), None
#     Edge 52, Type (0, 1), None
#     Edge 53, Type (0, 1), None
#     Edge 54, Type (0, 1), None
#     Edge 55, Type (0, 1), None
#     Edge 56, Type (0, 1), None
#     Edge 57, Type (0, 1), None
#     Edge 58, Type (0, 1), None
#     Edge 59, Type (0, 1), None
#     Edge 60, Type (0, 1), None
#     Edge 61, Type (0, 1), None
#     Edge 62, Type (0, 1), None
#     Edge 63, Type (0, 1), None
#     Edge 64, Type (0, 1), None
#     Edge 65, Type (0, 1), None
#     Edge 66, Type (0, 1), None
#     Edge 67, Type (0, 1), None
#     Edge 68, Type (0, 1), None
#     Edge 69, Type (0, 1), None
#     Edge 70, Type (0, 1), None
#     Edge 71, Type (0, 1), None
#     Edge 72, Type (0, 1), None
#     Edge 73, Type (0, 1), None
#     Edge 74, Type (0, 1), None
#     Edge 75, Type (0, 1), None
#     Edge 76, Type (0, 1), None
#     Edge 77, Type (0, 1), None
#     Edge 78, Type (0, 1), None
#     Edge 79, Type (0, 1), None
#     Edge 80, Type (0, 1), None
#     Edge 81, Type (0, 1), None
#     Edge 82, Type (0, 1), None
#     Edge 83, Type (0, 1), None
#     Edge 84, Type (0, 1), None
#     Edge 85, Type (0, 1), None
#     Edge 86, Type (0, 1), None
#     Edge 87, Type (0, 1), None
#     Edge 88, Type (0, 1), None
#     Edge 89, Type (0, 1), None
#     Edge 90, Type (0, 1), None
#     Edge 91, Type (0, 1), None
#     Edge 92, Type (0, 1), None
#     Edge 93, Type (0, 1), None
#     Edge 94, Type (0, 1), None
#     Edge 95, Type (0, 1), None
#     Edge 96, Type (0, 1), None
#     Edge 97, Type (0, 1), None
#     Edge 98, Type (0, 1), None
#     Edge 99, Type (0, 1), None
#     Edge 100, Type (0, 1), None
#     Edge 101, Type (0, 1), None
#     Edge 102, Type (0, 1), None
#     Edge 103, Type (0, 1), None
#     Edge 104, Type (0, 1), None
#     Edge 105, Type (0, 1), None
#     Edge 106, Type (0, 1), None
#     Edge 107, Type (0, 1), None
#     Edge 108, Type (0, 1), None
#     Edge 109, Type (0, 1), None
#     Edge 110, Type (0, 1), None
#     Edge 111, Type (0, 1), None
#     Edge 112, Type (0, 1), None
#     Edge 113, Type (0, 1), None
#     Edge 114, Type (0, 1), None
#     Edge 115, Type (0, 1), None
#     Edge 116, Type (0, 1), None
#     Edge 117, Type (0, 1), None
#     Edge 118, Type (0, 1), None
#     Edge 119, Type (0, 1), None
#     Edge 120, Type (0, 1), None
#     Edge 121, Type (0, 1), None
#     Edge 122, Type (0, 1), None
#     Edge 123, Type (0, 1), None
#     Edge 124, Type (0, 1), None
#     Edge 125, Type (0, 1), None
#     Edge 126, Type (0, 1), None
#     Edge 127, Type (0, 1), None
#     Edge 128, Type (0, 1), None
#     Edge 129, Type (0, 1), None
#     Edge 130, Type (0, 1), None
#     Edge 131, Type (0, 1), None
#     Edge 132, Type (0, 1), None
#     Edge 133, Type (0, 1), None
#     Edge 134, Type (0, 1), None
#     Edge 135, Type (0, 1), None
# Relax obj value: 0.096
# Max RMSD: 0.176
# Mean RMSD: 0.088
data_MOF--net-iac--node1-QUQFOY_clean_sbu_3--node2-CIFDUS_clean_sbu_1--edge1-none
_symmetry_space_group_name_H-M    P1
_symmetry_Int_Tables_number       1
_symmetry_cell_setting            triclinic
loop_
_symmetry_equiv_pos_as_xyz
'x, y, z'
_cell_length_a     25.698806
_cell_length_b     25.718124
_cell_length_c     25.830699
_cell_angle_alpha  90.268187
_cell_angle_beta   87.166658
_cell_angle_gamma 88.384613
loop_
_atom_site_label
_atom_site_type_symbol
_atom_site_fract_x
_atom_site_fract_y
_atom_site_fract_z
_atom_type_partial_charge
C0 C 0.89385 0.20591 0.19617 0.0
O1 O 0.93282 0.17471 0.19901 0.0
Cd2 Cd 0.02394 0.17029 0.17489 0.0
O3 O 0.89872 0.24977 0.17358 0.0
Cd4 Cd -0.0177 0.26916 0.12072 0.0
C5 C -0.01311 0.14288 0.06237 0.0
O6 O 0.05297 0.25794 0.18729 0.0
O7 O 0.07663 0.27787 0.10951 0.0
O8 O 0.97128 0.36221 0.0893 0.0
C9 C 0.08897 0.2724 0.15594 0.0
O10 O 0.02034 0.12315 0.09163 0.0
C11 C 0.9759 0.34785 0.04186 0.0
O12 O 0.9697 0.18925 0.07042 0.0
O13 O 0.97686 0.29921 0.03345 0.0
C14 C 0.91066 0.79457 0.25381 0.0
O15 O 0.94043 0.83048 0.23886 0.0
Cd16 Cd 0.00886 0.84989 0.29274 0.0
O17 O 0.91909 0.76722 0.29362 0.0
Cd18 Cd 0.9807 0.75284 0.36053 0.0
C19 C 0.94546 0.86469 0.41412 0.0
O20 O 0.05458 0.76837 0.30203 0.0
O21 O 0.0671 0.76936 0.38471 0.0
O22 O -0.00679 0.66094 0.34928 0.0
C23 C 0.08532 0.76322 0.33852 0.0
O24 O 0.96922 0.88335 0.37424 0.0
C25 C -0.01094 0.64979 0.39704 0.0
O26 O 0.94081 0.81603 0.41915 0.0
O27 O 0.97292 0.68559 0.42828 0.0
C28 C 0.39384 0.70593 0.69617 0.0
O29 O 0.43281 0.67472 0.69901 0.0
Cd30 Cd 0.52392 0.67029 0.6749 0.0
O31 O 0.39871 0.74978 0.67357 0.0
Cd32 Cd 0.48229 0.76917 0.62072 0.0
C33 C 0.48688 0.64288 0.56237 0.0
O34 O 0.55297 0.75794 0.68729 0.0
O35 O 0.57663 0.77787 0.60951 0.0
O36 O 0.47128 0.86221 0.58929 0.0
C37 C 0.58897 0.7724 0.65594 0.0
O38 O 0.52033 0.62315 0.59163 0.0
C39 C 0.4759 0.84785 0.54185 0.0
O40 O 0.46969 0.68925 0.57042 0.0
O41 O 0.47687 0.79922 0.53344 0.0
C42 C 0.41068 0.29459 0.75381 0.0
O43 O 0.44044 0.33049 0.73885 0.0
Cd44 Cd 0.50888 0.34991 0.79273 0.0
O45 O 0.41911 0.26724 0.79361 0.0
Cd46 Cd 0.48072 0.25285 0.86052 0.0
C47 C 0.44548 0.3647 0.91411 0.0
O48 O 0.5546 0.26839 0.80202 0.0
O49 O 0.56711 0.26938 0.8847 0.0
O50 O 0.49325 0.16095 0.84926 0.0
C51 C 0.58534 0.26325 0.83851 0.0
O52 O 0.46923 0.38336 0.87423 0.0
C53 C 0.48909 0.1498 0.89702 0.0
O54 O 0.44083 0.31604 0.91914 0.0
O55 O 0.47294 0.1856 0.92826 0.0
C56 C 0.02679 0.04658 0.34116 0.0
O57 O 0.02375 0.07727 0.30303 0.0
Cd58 Cd 0.05753 0.08082 0.21638 0.0
O59 O 0.05434 0.00439 0.33671 0.0
Cd60 Cd 0.11219 0.98595 0.25389 0.0
C61 C 0.16767 0.10953 0.26222 0.0
O62 O 0.04642 0.99385 0.18389 0.0
O63 O 0.12726 0.98839 0.15959 0.0
O64 O 0.13514 0.89002 0.25598 0.0
C65 C 0.08036 0.98431 0.14786 0.0
O66 O 0.13892 0.12803 0.2278 0.0
C67 C 0.18369 0.89725 0.24727 0.0
O68 O 0.16157 0.06312 0.27794 0.0
O69 O 0.19787 0.94393 0.25046 0.0
C70 C 0.30783 0.98239 0.45771 0.0
O71 O 0.2768 -0.00087 0.42466 0.0
Cd72 Cd 0.2053 0.94873 0.40779 0.0
O73 O 0.29774 0.94361 0.48646 0.0
Cd74 Cd 0.23044 0.88217 0.50704 0.0
C75 C 0.26576 0.82528 0.39898 0.0
O76 O 0.16042 0.94365 0.49026 0.0
O77 O 0.14196 0.86182 0.4928 0.0
O78 O 0.22574 0.89745 0.59896 0.0
C79 C 0.12659 0.9091 0.49473 0.0
O80 O 0.24442 0.86579 0.38015 0.0
C81 C 0.22821 0.84975 0.61118 0.0
O82 O 0.26799 0.81964 0.44744 0.0
O83 O 0.23683 0.81675 0.57495 0.0
C84 C 0.46502 0.94736 0.83223 0.0
O85 O 0.48321 0.91637 0.79719 0.0
Cd86 Cd 0.44024 0.9056 0.72096 0.0
O87 O 0.42679 0.97868 0.82499 0.0
Cd88 Cd 0.36712 0.00116 0.75751 0.0
C89 C 0.32165 0.88671 0.78461 0.0
O90 O 0.43394 0.99217 0.68705 0.0
O91 O 0.35335 0.98831 0.6671 0.0
O92 O 0.36481 0.09511 0.76941 0.0
C93 C 0.40038 0.99623 0.65311 0.0
O94 O 0.36083 0.86914 0.75723 0.0
C95 C 0.31688 0.10146 0.76008 0.0
O96 O 0.31449 0.93502 0.79255 0.0
O97 O 0.29095 0.06063 0.75567 0.0
C98 C 0.33763 0.03426 0.97578 0.0
O99 O 0.29261 0.01545 0.97892 0.0
Cd100 Cd 0.23147 0.04777 0.04795 0.0
O101 O 0.34071 0.08119 0.96127 0.0
Cd102 Cd 0.2546 0.12613 0.95492 0.0
C103 C 0.27037 0.1607 0.08791 0.0
O104 O 0.17215 0.09174 -0.00692 0.0
O105 O 0.19715 0.05994 0.91868 0.0
O106 O 0.26273 0.1775 0.87289 0.0
C107 C 0.16184 0.06347 0.95483 0.0
O108 O 0.26126 0.1157 0.10574 0.0
C109 C 0.24183 0.21765 0.8952 0.0
O110 O 0.26841 0.16912 0.03943 0.0
O111 O 0.22952 0.21433 0.94308 0.0
C112 C 0.80783 0.48238 0.95771 0.0
O113 O 0.7768 0.49912 0.92466 0.0
Cd114 Cd 0.7053 0.44872 0.9078 0.0
O115 O 0.79775 0.4436 0.98646 0.0
Cd116 Cd 0.73045 0.38216 0.00706 0.0
C117 C 0.76577 0.32527 0.89899 0.0
O118 O 0.66043 0.44365 -0.00973 0.0
O119 O 0.64196 0.36182 -0.00718 0.0
O120 O 0.72577 0.39744 0.09897 0.0
C121 C 0.6266 0.4091 -0.00525 0.0
O122 O 0.74443 0.36579 0.88017 0.0
C123 C 0.72823 0.34974 0.11119 0.0
O124 O 0.768 0.31963 0.94745 0.0
O125 O 0.73684 0.31674 0.07496 0.0
C126 C 0.96502 0.44736 0.33221 0.0
O127 O -0.01679 0.41637 0.29717 0.0
Cd128 Cd 0.94023 0.4056 0.22094 0.0
O129 O 0.92679 0.47867 0.32498 0.0
Cd130 Cd 0.86711 0.50115 0.25751 0.0
C131 C 0.82166 0.38669 0.28461 0.0
O132 O 0.93392 0.49217 0.18704 0.0
O133 O 0.85334 0.4883 0.16709 0.0
O134 O 0.86479 0.5951 0.26941 0.0
C135 C 0.90037 0.49623 0.1531 0.0
O136 O 0.86084 0.36912 0.25723 0.0
C137 C 0.81686 0.60145 0.26008 0.0
O138 O 0.81449 0.435 0.29255 0.0
O139 O 0.79094 0.56062 0.25566 0.0
C140 C 0.83762 0.53425 0.47577 0.0
O141 O 0.79259 0.51545 0.47891 0.0
Cd142 Cd 0.73146 0.54778 0.54795 0.0
O143 O 0.8407 0.58118 0.46127 0.0
Cd144 Cd 0.7546 0.62613 0.45492 0.0
C145 C 0.77036 0.6607 0.58792 0.0
O146 O 0.67214 0.59174 0.49308 0.0
O147 O 0.69715 0.55994 0.41869 0.0
O148 O 0.76272 0.6775 0.3729 0.0
C149 C 0.66183 0.56348 0.45483 0.0
O150 O 0.76125 0.6157 0.60574 0.0
C151 C 0.74182 0.71765 0.3952 0.0
O152 O 0.76841 0.66912 0.53943 0.0
O153 O 0.72951 0.71433 0.44308 0.0
C154 C 0.52681 0.54658 0.84115 0.0
O155 O 0.52377 0.57727 0.80302 0.0
Cd156 Cd 0.55754 0.58082 0.71637 0.0
O157 O 0.55436 0.50439 0.83671 0.0
Cd158 Cd 0.6122 0.48595 0.75388 0.0
C159 C 0.66768 0.60953 0.76222 0.0
O160 O 0.54643 0.49384 0.68389 0.0
O161 O 0.62727 0.48838 0.65959 0.0
O162 O 0.63518 0.39001 0.75598 0.0
C163 C 0.58037 0.4843 0.64785 0.0
O164 O 0.63893 0.62802 0.7278 0.0
C165 C 0.68372 0.39725 0.74727 0.0
O166 O 0.66158 0.56312 0.77794 0.0
O167 O 0.6979 0.44395 0.75045 0.0
C168 C 0.8953 0.74391 0.80523 0.0
O169 O 0.90733 0.78939 0.79028 0.0
Cd170 Cd -0.01204 0.83592 0.80033 0.0
O171 O 0.92513 0.71725 0.83369 0.0
Cd172 Cd 0.01123 0.7228 0.87441 0.0
C173 C 0.02066 0.85153 0.92469 0.0
O174 O 0.04313 0.76137 0.80031 0.0
O175 O 0.10497 0.72137 0.83838 0.0
O176 O 0.00306 0.63579 0.91336 0.0
C177 C 0.09145 0.75572 0.80571 0.0
O178 O 0.00433 0.87575 0.88552 0.0
C179 C -0.01105 0.65587 0.95745 0.0
O180 O 0.02464 0.80211 0.92461 0.0
O181 O -0.00655 0.70463 0.9629 0.0
C182 C 0.89752 0.23857 0.69268 0.0
O183 O 0.91337 0.20185 0.72119 0.0
Cd184 Cd 0.0034 0.17342 0.7181 0.0
O185 O 0.92846 0.2614 0.66134 0.0
Cd186 Cd 0.01872 0.26546 0.63376 0.0
C187 C 0.02438 0.1407 0.59096 0.0
O188 O 0.04457 0.25636 0.72261 0.0
O189 O 0.10527 0.26152 0.66146 0.0
O190 O -0.01355 0.35128 0.63023 0.0
C191 C 0.09244 0.25783 0.70935 0.0
O192 O 0.01943 0.12307 0.63685 0.0
C193 C 0.00109 0.36135 0.5839 0.0
O194 O 0.02338 0.18925 0.58244 0.0
O195 O 0.03031 0.32767 0.55965 0.0
C196 C 0.39531 0.2439 0.30522 0.0
O197 O 0.40733 0.28939 0.29027 0.0
Cd198 Cd 0.48797 0.33591 0.30032 0.0
O199 O 0.42514 0.21725 0.33368 0.0
Cd200 Cd 0.51123 0.2228 0.37441 0.0
C201 C 0.52067 0.35153 0.42468 0.0
O202 O 0.54314 0.26136 0.3003 0.0
O203 O 0.60498 0.22136 0.33838 0.0
O204 O 0.50306 0.13578 0.41336 0.0
C205 C 0.59146 0.2557 0.30571 0.0
O206 O 0.50434 0.37574 0.38551 0.0
C207 C 0.48895 0.15587 0.45745 0.0
O208 O 0.52464 0.30211 0.4246 0.0
O209 O 0.49345 0.20463 0.4629 0.0
C210 C 0.39749 0.73859 0.19267 0.0
O211 O 0.41335 0.70187 0.22118 0.0
Cd212 Cd 0.50337 0.67343 0.2181 0.0
O213 O 0.42843 0.76142 0.16134 0.0
Cd214 Cd 0.51869 0.76549 0.13377 0.0
C215 C 0.52436 0.64072 0.09096 0.0
O216 O 0.54455 0.75637 0.22262 0.0
O217 O 0.60525 0.76151 0.16146 0.0
O218 O 0.48647 0.85132 0.13026 0.0
C219 C 0.59242 0.75782 0.20935 0.0
O220 O 0.51942 0.62309 0.13685 0.0
C221 C 0.5011 0.86139 0.08393 0.0
O222 O 0.52335 0.68927 0.08244 0.0
O223 O 0.5303 0.8277 0.05967 0.0
C224 C 0.93876 0.99545 0.84088 0.0
O225 O 0.95847 0.95172 0.82567 0.0
Cd226 Cd 0.94612 0.91134 0.74172 0.0
O227 O 0.90565 0.01974 0.81411 0.0
Cd228 Cd 0.85867 0.01715 0.73223 0.0
C229 C 0.81868 0.8878 0.71452 0.0
O230 O 0.93903 0.99002 0.69558 0.0
O231 O 0.89003 0.02216 0.63805 0.0
O232 O 0.82511 0.10883 0.73992 0.0
C233 C 0.93047 0.99483 0.6481 0.0
O234 O 0.86297 0.86775 0.72471 0.0
C235 C 0.78441 0.09544 0.76641 0.0
O236 O 0.81104 0.93703 0.71529 0.0
O237 O 0.77688 0.04709 0.77105 0.0
C238 C 0.82648 0.07273 0.52047 0.0
O239 O 0.80851 0.04034 0.55319 0.0
Cd240 Cd 0.71907 0.04282 0.58297 0.0
O241 O 0.79709 0.10519 0.49888 0.0
Cd242 Cd 0.70651 0.1218 0.49129 0.0
C243 C 0.70204 0.17334 0.6094 0.0
O244 O 0.67584 0.03409 0.50427 0.0
O245 O 0.61788 0.09722 0.50624 0.0
O246 O 0.73521 0.10852 0.40315 0.0
C247 C 0.62841 0.04867 0.50664 0.0
O248 O 0.70419 0.12698 0.62638 0.0
C249 C 0.72396 0.15417 0.38838 0.0
O250 O 0.70415 0.18264 0.56114 0.0
O251 O 0.69989 0.18479 0.42087 0.0
C252 C 0.51811 0.01494 0.3284 0.0
O253 O 0.49778 0.05926 0.31832 0.0
Cd254 Cd 0.50777 0.1011 0.23427 0.0
O255 O 0.55174 0.9926 0.29733 0.0
Cd256 Cd 0.60312 -0.00106 0.21607 0.0
C257 C 0.63575 0.12589 0.20633 0.0
O258 O 0.52331 0.02526 0.18429 0.0
O259 O 0.58581 0.01001 0.12625 0.0
O260 O 0.64322 0.91204 0.2007 0.0
C261 C 0.54062 0.0296 0.13797 0.0
O262 O 0.59049 0.14574 0.21748 0.0
C263 C 0.68269 0.92151 0.22708 0.0
O264 O 0.64484 0.07734 0.20711 0.0
O265 O 0.68551 0.96709 0.24561 0.0
C266 C 0.84774 0.93246 0.00017 0.0
O267 O 0.83866 0.93829 0.95249 0.0
Cd268 Cd 0.75159 0.95633 0.92118 0.0
O269 O 0.8114 0.91773 0.03179 0.0
Cd270 Cd 0.72302 0.87866 0.01963 0.0
C271 C 0.71994 0.83896 0.88545 0.0
O272 O 0.69801 0.96354 -0.00026 0.0
O273 O 0.63121 0.91964 0.02209 0.0
O274 O 0.72976 0.84411 0.10865 0.0
C275 C 0.64903 0.96091 0.00175 0.0
O276 O 0.72652 0.88417 0.86717 0.0
C277 C 0.72876 0.79699 0.09337 0.0
O278 O 0.72151 0.83111 0.93424 0.0
O279 O 0.71767 0.78958 0.04665 0.0
C280 C 0.32648 0.57273 0.02044 0.0
O281 O 0.30852 0.54034 0.05317 0.0
Cd282 Cd 0.21908 0.54282 0.08296 0.0
O283 O 0.29709 0.60519 -0.00114 0.0
Cd284 Cd 0.20651 0.6218 -0.00873 0.0
C285 C 0.20203 0.67334 0.10939 0.0
O286 O 0.17584 0.53409 0.00426 0.0
O287 O 0.11788 0.59722 0.00623 0.0
O288 O 0.23519 0.60853 0.90312 0.0
C289 C 0.12841 0.54867 0.00664 0.0
O290 O 0.20418 0.62697 0.12637 0.0
C291 C 0.22395 0.65418 0.88836 0.0
O292 O 0.20415 0.68264 0.06113 0.0
O293 O 0.19989 0.6848 0.92086 0.0
C294 C 0.01812 0.51494 0.8284 0.0
O295 O -0.00222 0.55926 0.81833 0.0
Cd296 Cd 0.00777 0.6011 0.73427 0.0
O297 O 0.05175 0.49261 0.79734 0.0
Cd298 Cd 0.10313 0.49896 0.71608 0.0
C299 C 0.13574 0.62591 0.70632 0.0
O300 O 0.0233 0.52525 0.6843 0.0
O301 O 0.08581 0.51002 0.62626 0.0
O302 O 0.14324 0.41206 0.7007 0.0
C303 C 0.04062 0.52959 0.63798 0.0
O304 O 0.09047 0.64576 0.71748 0.0
C305 C 0.1827 0.42152 0.72709 0.0
O306 O 0.14484 0.57736 0.70711 0.0
O307 O 0.18552 0.4671 0.74563 0.0
C308 C 0.34773 0.43246 0.50017 0.0
O309 O 0.33865 0.43831 0.45249 0.0
Cd310 Cd 0.25158 0.45633 0.42118 0.0
O311 O 0.3114 0.41772 0.53179 0.0
Cd312 Cd 0.22302 0.37866 0.51962 0.0
C313 C 0.21994 0.33895 0.38545 0.0
O314 O 0.198 0.46353 0.49974 0.0
O315 O 0.13121 0.41963 0.52209 0.0
O316 O 0.22976 0.34411 0.60865 0.0
C317 C 0.14902 0.4609 0.50175 0.0
O318 O 0.22652 0.38417 0.36717 0.0
C319 C 0.22876 0.29699 0.59338 0.0
O320 O 0.22151 0.3311 0.43423 0.0
O321 O 0.21767 0.28957 0.54666 0.0
C322 C 0.43875 0.49546 0.34089 0.0
O323 O 0.45847 0.45172 0.32567 0.0
Cd324 Cd 0.44612 0.41135 0.24171 0.0
O325 O 0.40564 0.51974 0.31412 0.0
Cd326 Cd 0.35867 0.51715 0.23223 0.0
C327 C 0.31868 0.3878 0.21452 0.0
O328 O 0.43902 0.49003 0.19558 0.0
O329 O 0.39002 0.52216 0.13806 0.0
O330 O 0.3251 0.60883 0.23992 0.0
C331 C 0.43047 0.49484 0.1481 0.0
O332 O 0.36297 0.36775 0.2247 0.0
C333 C 0.2844 0.59544 0.26641 0.0
O334 O 0.31103 0.43703 0.2153 0.0
O335 O 0.27687 0.54709 0.27104 0.0
O336 O 0.07609 0.03472 0.97724 0.0
Mn337 Mn 0.0071 0.99388 -0.00524 0.0
O338 O 0.14142 0.97576 0.9625 0.0
Mn339 Mn 0.10756 0.92474 0.00059 0.0
O340 O 0.9371 0.95264 0.00856 0.0
O341 O 0.9714 0.06414 0.01006 0.0
Mn342 Mn 0.90894 0.06269 0.98464 0.0
O343 O -0.01334 0.99499 0.9175 0.0
O344 O 0.8739 0.0131 0.02295 0.0
O345 O 0.02864 0.99054 0.07269 0.0
O346 O 0.10218 0.93974 0.07099 0.0
O347 O 0.91374 0.12824 0.01155 0.0
O348 O 0.91544 0.04757 0.91401 0.0
C349 C 0.05231 0.87892 0.96146 0.0
C350 C 0.12349 0.0224 0.96232 0.0
C351 C 0.88881 0.96574 0.01886 0.0
C352 C 0.95862 0.11107 0.02591 0.0
C353 C 0.94871 0.01514 0.89311 0.0
C354 C 0.06823 0.96966 0.09462 0.0
O355 O 0.04352 0.92541 0.97926 0.0
O356 O 0.09757 0.8597 0.97215 0.0
O357 O 0.31324 0.7358 0.23088 0.0
Mn358 Mn 0.23695 0.74609 0.25695 0.0
O359 O 0.32804 0.79187 0.16567 0.0
Mn360 Mn 0.2584 0.81055 0.15761 0.0
O361 O 0.16129 0.75547 0.28528 0.0
O362 O 0.24468 0.6794 0.29487 0.0
Mn363 Mn 0.2254 0.68672 0.36111 0.0
O364 O 0.25941 0.78792 0.31893 0.0
O365 O 0.15727 0.71312 0.36198 0.0
O366 O 0.21427 0.70536 0.19308 0.0
O367 O 0.22186 0.75974 0.12486 0.0
O368 O 0.24512 0.61718 0.3501 0.0
O369 O 0.26974 0.73527 0.38657 0.0
C370 C 0.21568 0.86195 0.21247 0.0
C371 C 0.34317 0.75643 0.19646 0.0
C372 C 0.13786 0.74312 0.32817 0.0
C373 C 0.25604 0.63129 0.30292 0.0
C374 C 0.27173 0.77988 0.36547 0.0
C375 C 0.20987 0.71614 0.145 0.0
O376 O 0.2288 0.81404 0.22056 0.0
O377 O 0.23194 0.87808 0.16735 0.0
O378 O 0.39451 0.98607 0.47758 0.0
Mn379 Mn 0.46843 0.00659 0.49503 0.0
O380 O 0.34403 0.05938 0.48145 0.0
Mn381 Mn 0.38471 0.09229 0.52773 0.0
O382 O 0.54104 0.02927 0.51149 0.0
O383 O 0.49191 0.93019 0.49393 0.0
Mn384 Mn 0.54824 0.92657 0.45118 0.0
O385 O 0.48705 0.01811 0.41635 0.0
O386 O 0.59814 0.96843 0.47868 0.0
O387 O 0.4477 0.99735 0.57276 0.0
O388 O 0.38527 0.05947 0.59153 0.0
O389 O 0.53862 0.86004 0.47297 0.0
O390 O 0.5303 0.94679 0.38612 0.0
C391 C 0.45136 0.1305 0.49273 0.0
C392 C 0.35234 0.01174 0.46926 0.0
C393 C 0.5873 0.01204 0.50097 0.0
C394 C 0.50002 0.88051 0.5009 0.0
C395 C 0.50893 0.99113 0.37917 0.0
C396 C 0.4127 0.01941 0.60316 0.0
O397 O 0.44725 0.08136 0.49912 0.0
O398 O 0.41196 0.15707 0.51298 0.0
O399 O 0.32216 0.28566 0.75251 0.0
Mn400 Mn 0.2484 0.26139 0.74238 0.0
O401 O 0.37276 0.25904 0.68261 0.0
Mn402 Mn 0.32418 0.21672 0.65385 0.0
O403 O 0.17551 0.23809 0.73226 0.0
O404 O 0.22916 0.27101 0.81829 0.0
Mn405 Mn 0.1788 0.3187 0.82505 0.0
O406 O 0.22195 0.33702 0.72347 0.0
O407 O 0.12635 0.29362 0.78383 0.0
O408 O 0.2746 0.18551 0.75982 0.0
O409 O 0.31771 0.1539 0.68762 0.0
O410 O 0.18989 0.2951 0.89094 0.0
O411 O 0.20893 0.37769 0.79891 0.0
C412 C 0.26052 0.25672 0.61791 0.0
C413 C 0.36552 0.28283 0.72599 0.0
C414 C 0.13221 0.26032 0.74668 0.0
C415 C 0.22353 0.2636 0.86758 0.0
C416 C 0.21251 0.37886 0.7499 0.0
C417 C 0.30019 0.14917 0.73435 0.0
O418 O 0.26489 0.25072 0.66688 0.0
O419 O 0.29679 0.23219 0.59033 0.0
O420 O 0.95747 0.94318 0.45509 0.0
Mn421 Mn 0.98117 0.00147 0.50236 0.0
O422 O 0.93452 0.87501 0.504 0.0
Mn423 Mn 0.97708 0.89308 0.55689 0.0
O424 O 0.00568 0.05971 0.55211 0.0
O425 O -0.0054 0.04224 0.43404 0.0
Mn426 Mn 0.97071 0.10487 0.45631 0.0
O427 O 0.90624 0.02833 0.51312 0.0
O428 O 0.01388 0.13047 0.50361 0.0
O429 O 0.05506 0.9681 0.49555 0.0
O430 O 0.04701 0.8894 0.53488 0.0
O431 O -0.01128 0.1165 0.39008 0.0
O432 O 0.90067 0.10641 0.47704 0.0
C433 C 0.95074 0.95379 0.61225 0.0
C434 C 0.93948 0.89757 0.46023 0.0
C435 C 0.01865 0.10709 0.54608 0.0
C436 C 0.00327 0.06777 0.39056 0.0
C437 C 0.8809 0.06967 0.50325 0.0
C438 C 0.07285 0.92297 0.50861 0.0
O439 O 0.96583 0.96016 0.56497 0.0
O440 O 0.95339 0.90558 0.62589 0.0
O441 O 0.28339 0.80758 0.77374 0.0
Mn442 Mn 0.23402 0.75198 0.7504 0.0
O443 O 0.23349 0.87576 0.80379 0.0
Mn444 Mn 0.17673 0.861 0.76534 0.0
O445 O 0.17977 0.69991 0.72782 0.0
O446 O 0.30022 0.70924 0.72642 0.0
Mn447 Mn 0.27567 0.64557 0.73507 0.0
O448 O 0.23188 0.71723 0.82235 0.0
O449 O 0.22412 0.63447 0.69033 0.0
O450 O 0.23404 0.78864 0.67902 0.0
O451 O 0.19272 0.86674 0.69451 0.0
O452 O 0.34171 0.63306 0.71215 0.0
O453 O 0.25649 0.63455 0.80424 0.0
C454 C 0.12538 0.79864 0.79069 0.0
C455 C 0.27777 0.85324 0.79351 0.0
C456 C 0.18129 0.65776 0.70219 0.0
C457 C 0.34303 0.68343 0.71097 0.0
C458 C 0.23812 0.66968 0.83545 0.0
C459 C 0.2181 0.83398 0.66477 0.0
O460 O 0.17289 0.79407 0.77467 0.0
O461 O 0.10904 0.84657 0.79176 0.0
O462 O 0.47245 0.97255 0.91809 0.0
Mn463 Mn 0.49647 0.00355 0.98644 0.0
O464 O 0.54401 0.96478 0.86401 0.0
Mn465 Mn 0.57976 0.01527 0.89638 0.0
O466 O 0.52378 0.0336 0.05249 0.0
O467 O 0.42105 0.01085 0.01273 0.0
Mn468 Mn 0.41733 -0.00199 0.0796 0.0
O469 O 0.50437 0.92991 0.02077 0.0
O470 O 0.45746 0.04587 0.11057 0.0
O471 O 0.48786 0.07719 0.95384 0.0
O472 O 0.54993 0.08118 0.88919 0.0
O473 O 0.35004 0.01183 0.06331 0.0
O474 O 0.44335 0.93138 0.08704 0.0
C475 C 0.62106 0.98858 0.96158 0.0
C476 C 0.49608 0.95756 0.87549 0.0
C477 C 0.50584 0.04454 0.09803 0.0
C478 C 0.37096 0.01844 0.01723 0.0
C479 C 0.4818 0.90984 0.06137 0.0
C480 C 0.50987 0.09985 0.91474 0.0
O481 O 0.5715 -0.00216 0.96165 0.0
O482 O 0.64577 0.00085 0.9187 0.0
O483 O 0.31735 0.24752 0.25967 0.0
Mn484 Mn 0.24077 0.25113 0.23554 0.0
O485 O 0.3223 0.19304 0.32686 0.0
Mn486 Mn 0.25035 0.18995 0.33718 0.0
O487 O 0.1634 0.25813 0.20933 0.0
O488 O 0.26267 0.3141 0.19507 0.0
Mn489 Mn 0.24199 0.31014 0.13129 0.0
O490 O 0.25898 0.20099 0.17172 0.0
O491 O 0.17019 0.30673 0.13656 0.0
O492 O 0.22351 0.30023 0.30043 0.0
O493 O 0.2228 0.24891 0.37111 0.0
O494 O 0.27643 0.37206 0.13581 0.0
O495 O 0.2734 0.25071 0.10145 0.0
C496 C 0.20246 0.1426 0.29125 0.0
C497 C 0.34298 0.22506 0.2951 0.0
C498 C 0.14351 0.28051 0.16964 0.0
C499 C 0.28394 0.35764 0.18284 0.0
C500 C 0.2712 0.20631 0.12306 0.0
C501 C 0.21933 0.29356 0.35005 0.0
O502 O 0.22115 0.18683 0.27642 0.0
O503 O 0.21575 0.12826 0.33687 0.0
O504 O 0.45749 0.44318 0.95509 0.0
Mn505 Mn 0.48118 0.50148 0.00236 0.0
O506 O 0.43453 0.37502 0.004 0.0
Mn507 Mn 0.47708 0.39309 0.05689 0.0
O508 O 0.50568 0.55973 0.05211 0.0
O509 O 0.49462 0.54224 0.93404 0.0
Mn510 Mn 0.47072 0.60487 0.9563 0.0
O511 O 0.40625 0.52834 0.01311 0.0
O512 O 0.51387 0.63048 0.00361 0.0
O513 O 0.55508 0.46811 -0.00444 0.0
O514 O 0.54701 0.38941 0.03489 0.0
O515 O 0.48875 0.6165 0.89008 0.0
O516 O 0.40068 0.60641 0.97701 0.0
C517 C 0.45074 0.4538 0.11225 0.0
C518 C 0.43949 0.39758 0.96023 0.0
C519 C 0.51864 0.6071 0.04608 0.0
C520 C 0.50329 0.56777 0.89055 0.0
C521 C 0.3809 0.56967 0.00323 0.0
C522 C 0.57286 0.42298 0.00863 0.0
O523 O 0.46583 0.46017 0.06497 0.0
O524 O 0.45338 0.40559 0.12589 0.0
O525 O 0.7834 0.30756 0.27374 0.0
Mn526 Mn 0.73403 0.25196 0.25041 0.0
O527 O 0.7335 0.37574 0.30381 0.0
Mn528 Mn 0.67675 0.36098 0.26535 0.0
O529 O 0.67979 0.19989 0.22782 0.0
O530 O 0.80023 0.20921 0.22643 0.0
Mn531 Mn 0.77569 0.14554 0.23509 0.0
O532 O 0.73189 0.21722 0.32236 0.0
O533 O 0.72413 0.13444 0.19036 0.0
O534 O 0.73405 0.28862 0.17903 0.0
O535 O 0.69275 0.36673 0.19452 0.0
O536 O 0.84173 0.13304 0.21216 0.0
O537 O 0.75651 0.13453 0.30426 0.0
C538 C 0.62539 0.29862 0.29069 0.0
C539 C 0.77779 0.35321 0.29352 0.0
C540 C 0.68131 0.15773 0.20221 0.0
C541 C 0.84305 0.18341 0.21098 0.0
C542 C 0.73814 0.16967 0.33547 0.0
C543 C 0.71812 0.33396 0.16478 0.0
O544 O 0.67291 0.29405 0.27467 0.0
O545 O 0.60906 0.34656 0.29177 0.0
O546 O 0.97244 0.47253 0.41808 0.0
Mn547 Mn -0.00355 0.50352 0.48644 0.0
O548 O 0.04401 0.46478 0.364 0.0
Mn549 Mn 0.07975 0.51527 0.39639 0.0
O550 O 0.02375 0.53355 0.5525 0.0
O551 O 0.92104 0.51082 0.51272 0.0
Mn552 Mn 0.91731 0.49796 0.57958 0.0
O553 O 0.00436 0.42987 0.52075 0.0
O554 O 0.95744 0.54579 0.61059 0.0
O555 O -0.01216 0.57717 0.45385 0.0
O556 O 0.04991 0.58118 0.3892 0.0
O557 O 0.85002 0.51178 0.5633 0.0
O558 O 0.94331 0.43132 0.587 0.0
C559 C 0.12105 0.48857 0.46158 0.0
C560 C -0.00392 0.45755 0.37547 0.0
C561 C 0.00581 0.54448 0.59804 0.0
C562 C 0.87095 0.51841 0.51722 0.0
C563 C -0.01822 0.40979 0.56133 0.0
C564 C 0.00985 0.59984 0.41476 0.0
O565 O 0.07148 0.49782 0.46165 0.0
O566 O 0.14576 0.50085 0.41871 0.0
O567 O 0.82215 0.78564 0.25251 0.0
Mn568 Mn 0.74839 0.76138 0.24238 0.0
O569 O 0.87275 0.75902 0.18262 0.0
Mn570 Mn 0.82416 0.71671 0.15385 0.0
O571 O 0.67549 0.73808 0.23226 0.0
O572 O 0.72914 0.771 0.31828 0.0
Mn573 Mn 0.67879 0.81869 0.32505 0.0
O574 O 0.72193 0.83701 0.22347 0.0
O575 O 0.62633 0.79361 0.28383 0.0
O576 O 0.77458 0.6855 0.25982 0.0
O577 O 0.81769 0.65389 0.18762 0.0
O578 O 0.68987 0.7951 0.39094 0.0
O579 O 0.70892 0.87768 0.29891 0.0
C580 C 0.76051 0.75672 0.11791 0.0
C581 C 0.86551 0.78281 0.226 0.0
C582 C 0.63219 0.76031 0.24668 0.0
C583 C 0.72352 0.76359 0.36758 0.0
C584 C 0.7125 0.87885 0.2499 0.0
C585 C 0.80017 0.64916 0.23435 0.0
O586 O 0.76487 0.75071 0.16688 0.0
O587 O 0.79678 0.73218 0.09033 0.0
O588 O 0.81327 0.23579 0.73089 0.0
Mn589 Mn 0.73697 0.2461 0.75696 0.0
O590 O 0.82807 0.29186 0.66568 0.0
Mn591 Mn 0.75844 0.31055 0.65762 0.0
O592 O 0.66131 0.25548 0.78528 0.0
O593 O 0.74469 0.17941 0.79488 0.0
Mn594 Mn 0.72541 0.18673 0.86112 0.0
O595 O 0.75943 0.28792 0.81893 0.0
O596 O 0.65729 0.21313 0.86198 0.0
O597 O 0.71429 0.20536 0.69308 0.0
O598 O 0.72189 0.25975 0.62486 0.0
O599 O 0.74513 0.11718 0.8501 0.0
O600 O 0.76975 0.23526 0.88658 0.0
C601 C 0.71572 0.36196 0.71247 0.0
C602 C 0.84321 0.25642 0.69647 0.0
C603 C 0.63788 0.24314 0.82816 0.0
C604 C 0.75605 0.13129 0.80292 0.0
C605 C 0.77175 0.27988 0.86548 0.0
C606 C 0.7099 0.21614 0.645 0.0
O607 O 0.72883 0.31405 0.72057 0.0
O608 O 0.73199 0.37808 0.66736 0.0
O609 O 0.81734 0.74752 0.75967 0.0
Mn610 Mn 0.74076 0.75114 0.73554 0.0
O611 O 0.82229 0.69305 0.82687 0.0
Mn612 Mn 0.75034 0.68995 0.83718 0.0
O613 O 0.6634 0.75813 0.70933 0.0
O614 O 0.76267 0.8141 0.69507 0.0
Mn615 Mn 0.74198 0.81015 0.63129 0.0
O616 O 0.75897 0.701 0.67172 0.0
O617 O 0.67018 0.80673 0.63656 0.0
O618 O 0.72351 0.80023 0.80043 0.0
O619 O 0.72279 0.74892 0.87111 0.0
O620 O 0.77642 0.87207 0.63581 0.0
O621 O 0.77339 0.75071 0.60145 0.0
C622 C 0.70246 0.6426 0.79125 0.0
C623 C 0.84297 0.72507 0.79511 0.0
C624 C 0.6435 0.78052 0.66964 0.0
C625 C 0.78394 0.85765 0.68284 0.0
C626 C 0.77119 0.70631 0.62307 0.0
C627 C 0.71932 0.79356 0.85005 0.0
O628 O 0.72114 0.68684 0.77642 0.0
O629 O 0.71574 0.62827 0.83687 0.0
O630 O 0.57608 0.53472 0.47724 0.0
Mn631 Mn 0.5071 0.49387 0.49476 0.0
O632 O 0.64142 0.47576 0.4625 0.0
Mn633 Mn 0.60755 0.42474 0.50058 0.0
O634 O 0.4371 0.45264 0.50856 0.0
O635 O 0.4714 0.56414 0.51006 0.0
Mn636 Mn 0.40894 0.56269 0.48465 0.0
O637 O 0.48666 0.49499 0.4175 0.0
O638 O 0.3739 0.5131 0.52296 0.0
O639 O 0.52864 0.49053 0.57269 0.0
O640 O 0.60218 0.43973 0.57098 0.0
O641 O 0.41373 0.62824 0.51156 0.0
O642 O 0.41543 0.54756 0.41402 0.0
C643 C 0.55231 0.37892 0.46146 0.0
C644 C 0.62348 0.5224 0.46232 0.0
C645 C 0.3888 0.46573 0.51887 0.0
C646 C 0.45862 0.61107 0.52592 0.0
C647 C 0.44871 0.51514 0.39311 0.0
C648 C 0.56823 0.46965 0.59462 0.0
O649 O 0.54351 0.4254 0.47925 0.0
O650 O 0.59758 0.3597 0.47214 0.0
O651 O 0.89451 0.48606 0.97758 0.0
Mn652 Mn 0.96843 0.50659 -0.00497 0.0
O653 O 0.84404 0.55938 0.98144 0.0
Mn654 Mn 0.88471 0.59229 0.02772 0.0
O655 O 0.04104 0.52926 0.01149 0.0
O656 O -0.00809 0.43018 -0.00606 0.0
Mn657 Mn 0.04825 0.42656 0.95118 0.0
O658 O -0.01295 0.51811 0.91636 0.0
O659 O 0.09814 0.46842 0.97869 0.0
O660 O 0.9477 0.49735 0.07276 0.0
O661 O 0.88526 0.55946 0.09153 0.0
O662 O 0.03862 0.36004 0.97298 0.0
O663 O 0.0303 0.44679 0.88612 0.0
C664 C 0.95136 0.6305 -0.00727 0.0
C665 C 0.85235 0.51174 0.96925 0.0
C666 C 0.0873 0.51204 0.00097 0.0
C667 C 2e-05 0.38051 0.00091 0.0
C668 C 0.00893 0.49113 0.87918 0.0
C669 C 0.91269 0.51941 0.10316 0.0
O670 O 0.94725 0.58136 -0.00088 0.0
O671 O 0.91196 0.65707 0.01298 0.0
loop_
_geom_bond_atom_site_label_1
_geom_bond_atom_site_label_2
_geom_bond_distance
_geom_bond_site_symmetry_2
_ccdc_geom_bond_type
C0 O1 1.306 . S
C0 O3 1.160 . S
O1 C0 1.306 . S
O1 Cd2 2.228 1_655 S
Cd2 O1 2.228 1_455 S
Cd2 O6 2.273 . S
Cd2 O10 2.277 . S
O3 C0 1.160 . S
O3 Cd4 2.203 1_655 S
Cd4 O3 2.203 1_455 S
Cd4 O6 2.411 . S
Cd4 O7 2.333 . S
Cd4 O8 2.352 . S
Cd4 O12 2.278 . S
Cd4 O13 2.356 . S
C5 O10 1.209 . S
C5 O12 1.227 . S
O6 Cd2 2.273 . S
O6 Cd4 2.411 . S
O6 C9 1.320 . S
O7 Cd4 2.333 . S
O7 C9 1.214 . S
O8 Cd4 2.352 . S
O8 C11 1.258 . S
C9 O6 1.320 . S
C9 O7 1.214 . S
O10 Cd2 2.277 . S
O10 C5 1.209 . S
C11 O8 1.258 . S
C11 O13 1.282 . S
O12 Cd4 2.278 . S
O12 C5 1.227 . S
O13 Cd4 2.356 . S
O13 C11 1.282 . S
C14 O15 1.306 . S
C14 O17 1.160 . S
O15 C14 1.306 . S
O15 Cd16 2.228 1_655 S
Cd16 O15 2.228 1_455 S
Cd16 O20 2.273 . S
Cd16 O24 2.277 . S
O17 C14 1.160 . S
O17 Cd18 2.203 1_655 S
Cd18 O17 2.203 1_455 S
Cd18 O20 2.411 . S
Cd18 O21 2.333 . S
Cd18 O22 2.352 . S
Cd18 O26 2.277 . S
Cd18 O27 2.356 . S
C19 O24 1.209 . S
C19 O26 1.226 . S
O20 Cd16 2.273 . S
O20 Cd18 2.411 . S
O20 C23 1.320 . S
O21 Cd18 2.333 . S
O21 C23 1.214 . S
O22 Cd18 2.352 . S
O22 C25 1.258 . S
C23 O20 1.320 . S
C23 O21 1.214 . S
O24 Cd16 2.277 . S
O24 C19 1.209 . S
C25 O22 1.258 . S
C25 O27 1.282 . S
O26 Cd18 2.277 . S
O26 C19 1.226 . S
O27 Cd18 2.356 . S
O27 C25 1.282 . S
C28 O29 1.306 . S
C28 O31 1.160 . S
O29 C28 1.306 . S
O29 Cd30 2.228 . S
Cd30 O29 2.228 . S
Cd30 O34 2.273 . S
Cd30 O38 2.277 . S
O31 C28 1.160 . S
O31 Cd32 2.203 . S
Cd32 O31 2.203 . S
Cd32 O34 2.411 . S
Cd32 O35 2.333 . S
Cd32 O36 2.352 . S
Cd32 O40 2.277 . S
Cd32 O41 2.356 . S
C33 O38 1.209 . S
C33 O40 1.226 . S
O34 Cd30 2.273 . S
O34 Cd32 2.411 . S
O34 C37 1.320 . S
O35 Cd32 2.333 . S
O35 C37 1.214 . S
O36 Cd32 2.352 . S
O36 C39 1.258 . S
C37 O34 1.320 . S
C37 O35 1.214 . S
O38 Cd30 2.277 . S
O38 C33 1.209 . S
C39 O36 1.258 . S
C39 O41 1.282 . S
O40 Cd32 2.277 . S
O40 C33 1.226 . S
O41 Cd32 2.356 . S
O41 C39 1.282 . S
C42 O43 1.306 . S
C42 O45 1.160 . S
O43 C42 1.306 . S
O43 Cd44 2.228 . S
Cd44 O43 2.228 . S
Cd44 O48 2.273 . S
Cd44 O52 2.277 . S
O45 C42 1.160 . S
O45 Cd46 2.203 . S
Cd46 O45 2.203 . S
Cd46 O48 2.411 . S
Cd46 O49 2.333 . S
Cd46 O50 2.352 . S
Cd46 O54 2.277 . S
Cd46 O55 2.356 . S
C47 O52 1.209 . S
C47 O54 1.226 . S
O48 Cd44 2.273 . S
O48 Cd46 2.411 . S
O48 C51 1.320 . S
O49 Cd46 2.333 . S
O49 C51 1.214 . S
O50 Cd46 2.352 . S
O50 C53 1.258 . S
C51 O48 1.320 . S
C51 O49 1.214 . S
O52 Cd44 2.277 . S
O52 C47 1.209 . S
C53 O50 1.258 . S
C53 O55 1.282 . S
O54 Cd46 2.277 . S
O54 C47 1.226 . S
O55 Cd46 2.356 . S
O55 C53 1.282 . S
C56 O57 1.306 . S
C56 O59 1.165 . S
O57 C56 1.306 . S
O57 Cd58 2.228 . S
Cd58 O57 2.228 . S
Cd58 O62 2.273 . S
Cd58 O66 2.277 . S
O59 C56 1.165 . S
O59 Cd60 2.203 1_545 S
Cd60 O59 2.203 1_565 S
Cd60 O62 2.411 1_565 S
Cd60 O63 2.333 . S
Cd60 O64 2.352 . S
Cd60 O68 2.277 1_565 S
Cd60 O69 2.356 . S
C61 O66 1.209 . S
C61 O68 1.226 . S
O62 Cd58 2.273 . S
O62 Cd60 2.411 1_545 S
O62 C65 1.320 . S
O63 Cd60 2.333 . S
O63 C65 1.214 1_565 S
O64 Cd60 2.352 . S
O64 C67 1.258 . S
C65 O62 1.320 . S
C65 O63 1.214 1_545 S
O66 Cd58 2.277 . S
O66 C61 1.209 . S
C67 O64 1.258 . S
C67 O69 1.282 . S
O68 Cd60 2.277 1_545 S
O68 C61 1.226 . S
O69 Cd60 2.356 . S
O69 C67 1.282 . S
C70 O71 1.306 . S
C70 O73 1.160 . S
O71 C70 1.306 . S
O71 Cd72 2.228 . S
Cd72 O71 2.228 . S
Cd72 O76 2.273 . S
Cd72 O80 2.277 . S
O73 C70 1.160 . S
O73 Cd74 2.203 . S
Cd74 O73 2.203 . S
Cd74 O76 2.411 . S
Cd74 O77 2.333 . S
Cd74 O78 2.352 . S
Cd74 O82 2.277 . S
Cd74 O83 2.356 . S
C75 O80 1.209 . S
C75 O82 1.226 . S
O76 Cd72 2.273 . S
O76 Cd74 2.411 . S
O76 C79 1.320 . S
O77 Cd74 2.333 . S
O77 C79 1.214 . S
O78 Cd74 2.352 . S
O78 C81 1.258 . S
C79 O76 1.320 . S
C79 O77 1.214 . S
O80 Cd72 2.277 . S
O80 C75 1.209 . S
C81 O78 1.258 . S
C81 O83 1.282 . S
O82 Cd74 2.277 . S
O82 C75 1.226 . S
O83 Cd74 2.356 . S
O83 C81 1.282 . S
C84 O85 1.306 . S
C84 O87 1.160 1_565 S
O85 C84 1.306 . S
O85 Cd86 2.228 . S
Cd86 O85 2.228 . S
Cd86 O90 2.291 . S
Cd86 O94 2.277 . S
O87 C84 1.160 1_545 S
O87 Cd88 2.203 . S
Cd88 O87 2.203 . S
Cd88 O90 2.409 1_545 S
Cd88 O91 2.333 . S
Cd88 O92 2.352 . S
Cd88 O96 2.277 1_545 S
Cd88 O97 2.356 . S
C89 O94 1.209 . S
C89 O96 1.226 . S
O90 Cd86 2.291 . S
O90 Cd88 2.409 1_565 S
O90 C93 1.318 1_565 S
O91 Cd88 2.333 . S
O91 C93 1.214 . S
O92 Cd88 2.352 . S
O92 C95 1.258 . S
C93 O90 1.318 1_545 S
C93 O91 1.214 . S
O94 Cd86 2.277 . S
O94 C89 1.209 . S
C95 O92 1.258 . S
C95 O97 1.282 . S
O96 Cd88 2.277 1_565 S
O96 C89 1.226 . S
O97 Cd88 2.356 . S
O97 C95 1.282 . S
C98 O99 1.306 . S
C98 O101 1.160 . S
O99 C98 1.306 . S
O99 Cd100 2.228 . S
Cd100 O99 2.228 . S
Cd100 O104 2.273 . S
Cd100 O108 2.277 . S
O101 C98 1.160 . S
O101 Cd102 2.203 1_554 S
Cd102 O101 2.203 1_556 S
Cd102 O104 2.409 1_556 S
Cd102 O105 2.333 . S
Cd102 O106 2.367 . S
Cd102 O110 2.264 1_556 S
Cd102 O111 2.367 . S
C103 O108 1.209 . S
C103 O110 1.226 . S
O104 Cd100 2.273 . S
O104 Cd102 2.409 1_554 S
O104 C107 1.320 . S
O105 Cd102 2.333 . S
O105 C107 1.212 1_556 S
O106 Cd102 2.367 . S
O106 C109 1.258 . S
C107 O104 1.320 . S
C107 O105 1.212 1_554 S
O108 Cd100 2.277 . S
O108 C103 1.209 . S
C109 O106 1.258 . S
C109 O111 1.282 . S
O110 Cd102 2.264 1_554 S
O110 C103 1.226 . S
O111 Cd102 2.367 . S
O111 C109 1.282 . S
C112 O113 1.306 . S
C112 O115 1.160 1_556 S
O113 C112 1.306 . S
O113 Cd114 2.228 . S
Cd114 O113 2.228 . S
Cd114 O118 2.282 . S
Cd114 O122 2.277 . S
O115 C112 1.160 1_554 S
O115 Cd116 2.203 . S
Cd116 O115 2.203 . S
Cd116 O118 2.410 1_554 S
Cd116 O119 2.333 . S
Cd116 O120 2.352 . S
Cd116 O124 2.277 1_554 S
Cd116 O125 2.356 . S
C117 O122 1.209 . S
C117 O124 1.226 . S
O118 Cd114 2.282 . S
O118 Cd116 2.410 1_556 S
O118 C121 1.319 1_556 S
O119 Cd116 2.333 . S
O119 C121 1.214 . S
O120 Cd116 2.352 . S
O120 C123 1.258 . S
C121 O118 1.319 1_554 S
C121 O119 1.214 . S
O122 Cd114 2.277 . S
O122 C117 1.209 . S
C123 O120 1.258 . S
C123 O125 1.282 . S
O124 Cd116 2.277 1_556 S
O124 C117 1.226 . S
O125 Cd116 2.356 . S
O125 C123 1.282 . S
C126 O127 1.306 . S
C126 O129 1.160 . S
O127 C126 1.306 . S
O127 Cd128 2.228 . S
Cd128 O127 2.228 . S
Cd128 O132 2.273 . S
Cd128 O136 2.277 . S
O129 C126 1.160 . S
O129 Cd130 2.203 . S
Cd130 O129 2.203 . S
Cd130 O132 2.411 . S
Cd130 O133 2.333 . S
Cd130 O134 2.352 . S
Cd130 O138 2.277 . S
Cd130 O139 2.356 . S
C131 O136 1.209 . S
C131 O138 1.226 . S
O132 Cd128 2.273 . S
O132 Cd130 2.411 . S
O132 C135 1.320 . S
O133 Cd130 2.333 . S
O133 C135 1.214 . S
O134 Cd130 2.352 . S
O134 C137 1.258 . S
C135 O132 1.320 . S
C135 O133 1.214 . S
O136 Cd128 2.277 . S
O136 C131 1.209 . S
C137 O134 1.258 . S
C137 O139 1.282 . S
O138 Cd130 2.277 . S
O138 C131 1.226 . S
O139 Cd130 2.356 . S
O139 C137 1.282 . S
C140 O141 1.306 . S
C140 O143 1.160 . S
O141 C140 1.306 . S
O141 Cd142 2.228 . S
Cd142 O141 2.228 . S
Cd142 O146 2.273 . S
Cd142 O150 2.277 . S
O143 C140 1.160 . S
O143 Cd144 2.203 . S
Cd144 O143 2.203 . S
Cd144 O146 2.411 . S
Cd144 O147 2.333 . S
Cd144 O148 2.352 . S
Cd144 O152 2.277 . S
Cd144 O153 2.356 . S
C145 O150 1.209 . S
C145 O152 1.226 . S
O146 Cd142 2.273 . S
O146 Cd144 2.411 . S
O146 C149 1.320 . S
O147 Cd144 2.333 . S
O147 C149 1.214 . S
O148 Cd144 2.352 . S
O148 C151 1.258 . S
C149 O146 1.320 . S
C149 O147 1.214 . S
O150 Cd142 2.277 . S
O150 C145 1.209 . S
C151 O148 1.258 . S
C151 O153 1.282 . S
O152 Cd144 2.277 . S
O152 C145 1.226 . S
O153 Cd144 2.356 . S
O153 C151 1.282 . S
C154 O155 1.306 . S
C154 O157 1.160 . S
O155 C154 1.306 . S
O155 Cd156 2.228 . S
Cd156 O155 2.228 . S
Cd156 O160 2.273 . S
Cd156 O164 2.277 . S
O157 C154 1.160 . S
O157 Cd158 2.203 . S
Cd158 O157 2.203 . S
Cd158 O160 2.411 . S
Cd158 O161 2.333 . S
Cd158 O162 2.352 . S
Cd158 O166 2.277 . S
Cd158 O167 2.356 . S
C159 O164 1.209 . S
C159 O166 1.226 . S
O160 Cd156 2.273 . S
O160 Cd158 2.411 . S
O160 C163 1.320 . S
O161 Cd158 2.333 . S
O161 C163 1.214 . S
O162 Cd158 2.352 . S
O162 C165 1.258 . S
C163 O160 1.320 . S
C163 O161 1.214 . S
O164 Cd156 2.277 . S
O164 C159 1.209 . S
C165 O162 1.258 . S
C165 O167 1.282 . S
O166 Cd158 2.277 . S
O166 C159 1.226 . S
O167 Cd158 2.356 . S
O167 C165 1.282 . S
C168 O169 1.306 . S
C168 O171 1.160 . S
O169 C168 1.306 . S
O169 Cd170 2.228 1_655 S
Cd170 O169 2.228 1_455 S
Cd170 O174 2.273 . S
Cd170 O178 2.277 . S
O171 C168 1.160 . S
O171 Cd172 2.203 1_655 S
Cd172 O171 2.203 1_455 S
Cd172 O174 2.411 . S
Cd172 O175 2.333 . S
Cd172 O176 2.352 . S
Cd172 O180 2.277 . S
Cd172 O181 2.356 . S
C173 O178 1.209 . S
C173 O180 1.226 . S
O174 Cd170 2.273 . S
O174 Cd172 2.411 . S
O174 C177 1.320 . S
O175 Cd172 2.333 . S
O175 C177 1.214 . S
O176 Cd172 2.352 . S
O176 C179 1.258 . S
C177 O174 1.320 . S
C177 O175 1.214 . S
O178 Cd170 2.277 . S
O178 C173 1.209 . S
C179 O176 1.258 . S
C179 O181 1.282 . S
O180 Cd172 2.277 . S
O180 C173 1.226 . S
O181 Cd172 2.356 . S
O181 C179 1.282 . S
C182 O183 1.306 . S
C182 O185 1.160 . S
O183 C182 1.306 . S
O183 Cd184 2.228 1_655 S
Cd184 O183 2.228 1_455 S
Cd184 O188 2.273 . S
Cd184 O192 2.277 . S
O185 C182 1.160 . S
O185 Cd186 2.203 1_655 S
Cd186 O185 2.203 1_455 S
Cd186 O188 2.411 . S
Cd186 O189 2.333 . S
Cd186 O190 2.352 . S
Cd186 O194 2.277 . S
Cd186 O195 2.356 . S
C187 O192 1.209 . S
C187 O194 1.226 . S
O188 Cd184 2.273 . S
O188 Cd186 2.411 . S
O188 C191 1.320 . S
O189 Cd186 2.333 . S
O189 C191 1.214 . S
O190 Cd186 2.352 . S
O190 C193 1.258 . S
C191 O188 1.320 . S
C191 O189 1.214 . S
O192 Cd184 2.277 . S
O192 C187 1.209 . S
C193 O190 1.258 . S
C193 O195 1.282 . S
O194 Cd186 2.277 . S
O194 C187 1.226 . S
O195 Cd186 2.356 . S
O195 C193 1.282 . S
C196 O197 1.306 . S
C196 O199 1.160 . S
O197 C196 1.306 . S
O197 Cd198 2.228 . S
Cd198 O197 2.228 . S
Cd198 O202 2.273 . S
Cd198 O206 2.277 . S
O199 C196 1.160 . S
O199 Cd200 2.203 . S
Cd200 O199 2.203 . S
Cd200 O202 2.411 . S
Cd200 O203 2.333 . S
Cd200 O204 2.352 . S
Cd200 O208 2.277 . S
Cd200 O209 2.356 . S
C201 O206 1.209 . S
C201 O208 1.226 . S
O202 Cd198 2.273 . S
O202 Cd200 2.411 . S
O202 C205 1.320 . S
O203 Cd200 2.333 . S
O203 C205 1.214 . S
O204 Cd200 2.352 . S
O204 C207 1.258 . S
C205 O202 1.320 . S
C205 O203 1.214 . S
O206 Cd198 2.277 . S
O206 C201 1.209 . S
C207 O204 1.258 . S
C207 O209 1.282 . S
O208 Cd200 2.277 . S
O208 C201 1.226 . S
O209 Cd200 2.356 . S
O209 C207 1.282 . S
C210 O211 1.306 . S
C210 O213 1.160 . S
O211 C210 1.306 . S
O211 Cd212 2.228 . S
Cd212 O211 2.228 . S
Cd212 O216 2.273 . S
Cd212 O220 2.277 . S
O213 C210 1.160 . S
O213 Cd214 2.203 . S
Cd214 O213 2.203 . S
Cd214 O216 2.411 . S
Cd214 O217 2.333 . S
Cd214 O218 2.352 . S
Cd214 O222 2.277 . S
Cd214 O223 2.356 . S
C215 O220 1.209 . S
C215 O222 1.226 . S
O216 Cd212 2.273 . S
O216 Cd214 2.411 . S
O216 C219 1.320 . S
O217 Cd214 2.333 . S
O217 C219 1.214 . S
O218 Cd214 2.352 . S
O218 C221 1.258 . S
C219 O216 1.320 . S
C219 O217 1.214 . S
O220 Cd212 2.277 . S
O220 C215 1.209 . S
C221 O218 1.258 . S
C221 O223 1.282 . S
O222 Cd214 2.277 . S
O222 C215 1.226 . S
O223 Cd214 2.356 . S
O223 C221 1.282 . S
C224 O225 1.306 . S
C224 O227 1.160 1_565 S
O225 C224 1.306 . S
O225 Cd226 2.228 . S
Cd226 O225 2.228 . S
Cd226 O230 2.273 . S
Cd226 O234 2.277 . S
O227 C224 1.160 1_545 S
O227 Cd228 2.203 . S
Cd228 O227 2.203 . S
Cd228 O230 2.411 1_545 S
Cd228 O231 2.333 . S
Cd228 O232 2.352 . S
Cd228 O236 2.277 1_545 S
Cd228 O237 2.356 . S
C229 O234 1.209 . S
C229 O236 1.226 . S
O230 Cd226 2.273 . S
O230 Cd228 2.411 1_565 S
O230 C233 1.319 1_565 S
O231 Cd228 2.333 . S
O231 C233 1.215 . S
O232 Cd228 2.352 . S
O232 C235 1.258 . S
C233 O230 1.319 1_545 S
C233 O231 1.215 . S
O234 Cd226 2.277 . S
O234 C229 1.209 . S
C235 O232 1.258 . S
C235 O237 1.282 . S
O236 Cd228 2.277 1_565 S
O236 C229 1.226 . S
O237 Cd228 2.356 . S
O237 C235 1.282 . S
C238 O239 1.306 . S
C238 O241 1.160 . S
O239 C238 1.306 . S
O239 Cd240 2.228 . S
Cd240 O239 2.228 . S
Cd240 O244 2.273 . S
Cd240 O248 2.277 . S
O241 C238 1.160 . S
O241 Cd242 2.203 . S
Cd242 O241 2.203 . S
Cd242 O244 2.411 . S
Cd242 O245 2.333 . S
Cd242 O246 2.352 . S
Cd242 O250 2.277 . S
Cd242 O251 2.356 . S
C243 O248 1.209 . S
C243 O250 1.226 . S
O244 Cd240 2.273 . S
O244 Cd242 2.411 . S
O244 C247 1.320 . S
O245 Cd242 2.333 . S
O245 C247 1.214 . S
O246 Cd242 2.352 . S
O246 C249 1.258 . S
C247 O244 1.320 . S
C247 O245 1.214 . S
O248 Cd240 2.277 . S
O248 C243 1.209 . S
C249 O246 1.258 . S
C249 O251 1.282 . S
O250 Cd242 2.277 . S
O250 C243 1.226 . S
O251 Cd242 2.356 . S
O251 C249 1.282 . S
C252 O253 1.306 . S
C252 O255 1.160 . S
O253 C252 1.306 . S
O253 Cd254 2.228 . S
Cd254 O253 2.228 . S
Cd254 O258 2.273 . S
Cd254 O262 2.277 . S
O255 C252 1.160 . S
O255 Cd256 2.203 1_545 S
Cd256 O255 2.203 1_565 S
Cd256 O258 2.411 1_565 S
Cd256 O259 2.333 . S
Cd256 O260 2.352 . S
Cd256 O264 2.277 1_565 S
Cd256 O265 2.356 . S
C257 O262 1.209 . S
C257 O264 1.226 . S
O258 Cd254 2.273 . S
O258 Cd256 2.411 1_545 S
O258 C261 1.320 . S
O259 Cd256 2.333 . S
O259 C261 1.214 1_565 S
O260 Cd256 2.352 . S
O260 C263 1.258 . S
C261 O258 1.320 . S
C261 O259 1.214 1_545 S
O262 Cd254 2.277 . S
O262 C257 1.209 . S
C263 O260 1.258 . S
C263 O265 1.282 . S
O264 Cd256 2.277 1_545 S
O264 C257 1.226 . S
O265 Cd256 2.356 . S
O265 C263 1.282 . S
C266 O267 1.306 1_554 S
C266 O269 1.160 . S
O267 C266 1.306 1_556 S
O267 Cd268 2.228 . S
Cd268 O267 2.228 . S
Cd268 O272 2.273 1_556 S
Cd268 O276 2.277 . S
O269 C266 1.160 . S
O269 Cd270 2.203 . S
Cd270 O269 2.203 . S
Cd270 O272 2.411 . S
Cd270 O273 2.333 . S
Cd270 O274 2.352 . S
Cd270 O278 2.277 1_554 S
Cd270 O279 2.356 . S
C271 O276 1.209 . S
C271 O278 1.226 . S
O272 Cd268 2.273 1_554 S
O272 Cd270 2.411 . S
O272 C275 1.320 . S
O273 Cd270 2.333 . S
O273 C275 1.214 . S
O274 Cd270 2.352 . S
O274 C277 1.258 . S
C275 O272 1.320 . S
C275 O273 1.214 . S
O276 Cd268 2.277 . S
O276 C271 1.209 . S
C277 O274 1.258 . S
C277 O279 1.282 . S
O278 Cd270 2.277 1_556 S
O278 C271 1.226 . S
O279 Cd270 2.356 . S
O279 C277 1.282 . S
C280 O281 1.306 . S
C280 O283 1.160 1_554 S
O281 C280 1.306 . S
O281 Cd282 2.228 . S
Cd282 O281 2.228 . S
Cd282 O286 2.273 . S
Cd282 O290 2.277 . S
O283 C280 1.160 1_556 S
O283 Cd284 2.203 . S
Cd284 O283 2.203 . S
Cd284 O286 2.411 1_556 S
Cd284 O287 2.333 . S
Cd284 O288 2.352 . S
Cd284 O292 2.277 1_556 S
Cd284 O293 2.356 . S
C285 O290 1.209 . S
C285 O292 1.226 . S
O286 Cd282 2.273 . S
O286 Cd284 2.411 1_554 S
O286 C289 1.320 . S
O287 Cd284 2.333 . S
O287 C289 1.214 1_556 S
O288 Cd284 2.352 . S
O288 C291 1.258 . S
C289 O286 1.320 . S
C289 O287 1.214 1_554 S
O290 Cd282 2.277 . S
O290 C285 1.209 . S
C291 O288 1.258 . S
C291 O293 1.282 . S
O292 Cd284 2.277 1_554 S
O292 C285 1.226 . S
O293 Cd284 2.356 . S
O293 C291 1.282 . S
C294 O295 1.306 . S
C294 O297 1.160 . S
O295 C294 1.306 . S
O295 Cd296 2.228 . S
Cd296 O295 2.228 . S
Cd296 O300 2.273 . S
Cd296 O304 2.277 . S
O297 C294 1.160 . S
O297 Cd298 2.203 . S
Cd298 O297 2.203 . S
Cd298 O300 2.411 . S
Cd298 O301 2.333 . S
Cd298 O302 2.352 . S
Cd298 O306 2.277 . S
Cd298 O307 2.356 . S
C299 O304 1.209 . S
C299 O306 1.226 . S
O300 Cd296 2.273 . S
O300 Cd298 2.411 . S
O300 C303 1.320 . S
O301 Cd298 2.333 . S
O301 C303 1.214 . S
O302 Cd298 2.352 . S
O302 C305 1.258 . S
C303 O300 1.320 . S
C303 O301 1.214 . S
O304 Cd296 2.277 . S
O304 C299 1.209 . S
C305 O302 1.258 . S
C305 O307 1.282 . S
O306 Cd298 2.277 . S
O306 C299 1.226 . S
O307 Cd298 2.356 . S
O307 C305 1.282 . S
C308 O309 1.306 . S
C308 O311 1.160 . S
O309 C308 1.306 . S
O309 Cd310 2.228 . S
Cd310 O309 2.228 . S
Cd310 O314 2.273 . S
Cd310 O318 2.277 . S
O311 C308 1.160 . S
O311 Cd312 2.203 . S
Cd312 O311 2.203 . S
Cd312 O314 2.411 . S
Cd312 O315 2.333 . S
Cd312 O316 2.352 . S
Cd312 O320 2.277 . S
Cd312 O321 2.356 . S
C313 O318 1.209 . S
C313 O320 1.226 . S
O314 Cd310 2.273 . S
O314 Cd312 2.411 . S
O314 C317 1.320 . S
O315 Cd312 2.333 . S
O315 C317 1.214 . S
O316 Cd312 2.352 . S
O316 C319 1.258 . S
C317 O314 1.320 . S
C317 O315 1.214 . S
O318 Cd310 2.277 . S
O318 C313 1.209 . S
C319 O316 1.258 . S
C319 O321 1.282 . S
O320 Cd312 2.277 . S
O320 C313 1.226 . S
O321 Cd312 2.356 . S
O321 C319 1.282 . S
C322 O323 1.306 . S
C322 O325 1.160 . S
O323 C322 1.306 . S
O323 Cd324 2.228 . S
Cd324 O323 2.228 . S
Cd324 O328 2.273 . S
Cd324 O332 2.277 . S
O325 C322 1.160 . S
O325 Cd326 2.203 . S
Cd326 O325 2.203 . S
Cd326 O328 2.411 . S
Cd326 O329 2.333 . S
Cd326 O330 2.352 . S
Cd326 O334 2.277 . S
Cd326 O335 2.356 . S
C327 O332 1.209 . S
C327 O334 1.226 . S
O328 Cd324 2.273 . S
O328 Cd326 2.411 . S
O328 C331 1.320 . S
O329 Cd326 2.333 . S
O329 C331 1.214 . S
O330 Cd326 2.352 . S
O330 C333 1.258 . S
C331 O328 1.320 . S
C331 O329 1.214 . S
O332 Cd324 2.277 . S
O332 C327 1.209 . S
C333 O330 1.258 . S
C333 O335 1.282 . S
O334 Cd326 2.277 . S
O334 C327 1.226 . S
O335 Cd326 2.356 . S
O335 C333 1.282 . S
O336 Mn337 2.163 1_556 S
O336 C350 1.244 . S
Mn337 O336 2.163 1_554 S
Mn337 O340 2.160 1_445 S
Mn337 O341 2.221 1_455 S
Mn337 O343 2.163 1_454 S
Mn337 O345 2.160 1_545 S
Mn337 O355 2.221 1_544 S
O338 Mn339 2.087 1_556 S
O338 C350 1.256 1_565 S
Mn339 O338 2.087 1_554 S
Mn339 O346 2.089 . S
Mn339 O355 2.290 1_554 S
Mn339 O356 2.251 1_554 S
O340 Mn337 2.160 1_665 S
O340 C351 1.239 . S
O341 Mn337 2.221 1_655 S
O341 Mn342 2.290 1_554 S
O341 C352 1.278 . S
Mn342 O341 2.290 1_556 S
Mn342 O344 2.090 . S
Mn342 O347 2.251 1_556 S
Mn342 O348 2.087 . S
O343 Mn337 2.163 1_656 S
O343 C353 1.244 . S
O344 Mn342 2.090 . S
O344 C351 1.253 1_546 S
O345 Mn337 2.160 1_565 S
O345 C354 1.239 . S
O346 Mn339 2.089 . S
O346 C354 1.256 . S
O347 Mn342 2.251 1_554 S
O347 C352 1.241 . S
O348 Mn342 2.087 . S
O348 C353 1.256 . S
C349 O355 1.278 . S
C349 O356 1.241 . S
C350 O336 1.244 . S
C350 O338 1.256 1_545 S
C351 O340 1.239 . S
C351 O344 1.253 1_564 S
C352 O341 1.278 . S
C352 O347 1.241 . S
C353 O343 1.244 . S
C353 O348 1.256 . S
C354 O345 1.239 . S
C354 O346 1.256 . S
O355 Mn337 2.221 1_566 S
O355 Mn339 2.290 1_556 S
O355 C349 1.278 . S
O356 Mn339 2.251 1_556 S
O356 C349 1.241 . S
O357 Mn358 2.163 . S
O357 C371 1.244 . S
Mn358 O357 2.163 . S
Mn358 O361 2.160 . S
Mn358 O362 2.221 . S
Mn358 O364 2.163 . S
Mn358 O366 2.160 . S
Mn358 O376 2.221 . S
O359 Mn360 2.087 . S
O359 C371 1.256 . S
Mn360 O359 2.087 . S
Mn360 O367 2.089 . S
Mn360 O376 2.290 . S
Mn360 O377 2.251 . S
O361 Mn358 2.160 . S
O361 C372 1.239 . S
O362 Mn358 2.221 . S
O362 Mn363 2.290 . S
O362 C373 1.278 . S
Mn363 O362 2.290 . S
Mn363 O365 2.089 . S
Mn363 O368 2.251 . S
Mn363 O369 2.087 . S
O364 Mn358 2.163 . S
O364 C374 1.244 . S
O365 Mn363 2.089 . S
O365 C372 1.256 . S
O366 Mn358 2.160 . S
O366 C375 1.239 . S
O367 Mn360 2.089 . S
O367 C375 1.256 . S
O368 Mn363 2.251 . S
O368 C373 1.241 . S
O369 Mn363 2.087 . S
O369 C374 1.256 . S
C370 O376 1.278 . S
C370 O377 1.241 . S
C371 O357 1.244 . S
C371 O359 1.256 . S
C372 O361 1.239 . S
C372 O365 1.256 . S
C373 O362 1.278 . S
C373 O368 1.241 . S
C374 O364 1.244 . S
C374 O369 1.256 . S
C375 O366 1.239 . S
C375 O367 1.256 . S
O376 Mn358 2.221 . S
O376 Mn360 2.290 . S
O376 C370 1.278 . S
O377 Mn360 2.251 . S
O377 C370 1.241 . S
O378 Mn379 2.163 1_565 S
O378 C392 1.244 . S
Mn379 O378 2.163 1_545 S
Mn379 O382 2.160 . S
Mn379 O383 2.221 1_545 S
Mn379 O385 2.163 . S
Mn379 O387 2.160 . S
Mn379 O397 2.221 . S
O380 Mn381 2.087 . S
O380 C392 1.256 1_545 S
Mn381 O380 2.087 . S
Mn381 O388 2.089 . S
Mn381 O397 2.290 . S
Mn381 O398 2.251 . S
O382 Mn379 2.160 . S
O382 C393 1.239 . S
O383 Mn379 2.221 1_565 S
O383 Mn384 2.290 . S
O383 C394 1.278 . S
Mn384 O383 2.290 . S
Mn384 O386 2.089 1_565 S
Mn384 O389 2.251 . S
Mn384 O390 2.087 . S
O385 Mn379 2.163 . S
O385 C395 1.244 1_545 S
O386 Mn384 2.089 1_545 S
O386 C393 1.256 . S
O387 Mn379 2.160 . S
O387 C396 1.239 . S
O388 Mn381 2.089 . S
O388 C396 1.256 . S
O389 Mn384 2.251 . S
O389 C394 1.241 . S
O390 Mn384 2.087 . S
O390 C395 1.256 . S
C391 O397 1.278 . S
C391 O398 1.241 . S
C392 O378 1.244 . S
C392 O380 1.256 1_565 S
C393 O382 1.239 . S
C393 O386 1.256 . S
C394 O383 1.278 . S
C394 O389 1.241 . S
C395 O385 1.244 1_565 S
C395 O390 1.256 . S
C396 O387 1.239 . S
C396 O388 1.256 . S
O397 Mn379 2.221 . S
O397 Mn381 2.290 . S
O397 C391 1.278 . S
O398 Mn381 2.251 . S
O398 C391 1.241 . S
O399 Mn400 2.163 . S
O399 C413 1.244 . S
Mn400 O399 2.163 . S
Mn400 O403 2.160 . S
Mn400 O404 2.221 . S
Mn400 O406 2.163 . S
Mn400 O408 2.160 . S
Mn400 O418 2.221 . S
O401 Mn402 2.087 . S
O401 C413 1.256 . S
Mn402 O401 2.087 . S
Mn402 O409 2.089 . S
Mn402 O418 2.290 . S
Mn402 O419 2.251 . S
O403 Mn400 2.160 . S
O403 C414 1.239 . S
O404 Mn400 2.221 . S
O404 Mn405 2.290 . S
O404 C415 1.278 . S
Mn405 O404 2.290 . S
Mn405 O407 2.089 . S
Mn405 O410 2.251 . S
Mn405 O411 2.087 . S
O406 Mn400 2.163 . S
O406 C416 1.244 . S
O407 Mn405 2.089 . S
O407 C414 1.256 . S
O408 Mn400 2.160 . S
O408 C417 1.239 . S
O409 Mn402 2.089 . S
O409 C417 1.256 . S
O410 Mn405 2.251 . S
O410 C415 1.241 . S
O411 Mn405 2.087 . S
O411 C416 1.256 . S
C412 O418 1.278 . S
C412 O419 1.241 . S
C413 O399 1.244 . S
C413 O401 1.256 . S
C414 O403 1.239 . S
C414 O407 1.256 . S
C415 O404 1.278 . S
C415 O410 1.241 . S
C416 O406 1.244 . S
C416 O411 1.256 . S
C417 O408 1.239 . S
C417 O409 1.256 . S
O418 Mn400 2.221 . S
O418 Mn402 2.290 . S
O418 C412 1.278 . S
O419 Mn402 2.251 . S
O419 C412 1.241 . S
O420 Mn421 2.162 1_665 S
O420 C434 1.245 . S
Mn421 O420 2.162 1_445 S
Mn421 O424 2.160 . S
Mn421 O425 2.221 . S
Mn421 O427 2.163 1_455 S
Mn421 O429 2.160 1_545 S
Mn421 O439 2.221 1_445 S
O422 Mn423 2.087 1_655 S
O422 C434 1.256 . S
Mn423 O422 2.087 1_455 S
Mn423 O430 2.089 . S
Mn423 O439 2.290 1_455 S
Mn423 O440 2.251 1_455 S
O424 Mn421 2.160 . S
O424 C435 1.239 . S
O425 Mn421 2.221 . S
O425 Mn426 2.290 1_455 S
O425 C436 1.278 . S
Mn426 O425 2.290 1_655 S
Mn426 O428 2.089 1_655 S
Mn426 O431 2.251 1_655 S
Mn426 O432 2.087 . S
O427 Mn421 2.163 1_655 S
O427 C437 1.244 . S
O428 Mn426 2.089 1_455 S
O428 C435 1.256 . S
O429 Mn421 2.160 1_565 S
O429 C438 1.239 . S
O430 Mn423 2.089 . S
O430 C438 1.256 . S
O431 Mn426 2.251 1_455 S
O431 C436 1.241 . S
O432 Mn426 2.087 . S
O432 C437 1.256 . S
C433 O439 1.278 . S
C433 O440 1.241 . S
C434 O420 1.245 . S
C434 O422 1.256 . S
C435 O424 1.239 . S
C435 O428 1.256 . S
C436 O425 1.278 . S
C436 O431 1.241 . S
C437 O427 1.244 . S
C437 O432 1.256 . S
C438 O429 1.239 . S
C438 O430 1.256 . S
O439 Mn421 2.221 1_665 S
O439 Mn423 2.290 1_655 S
O439 C433 1.278 . S
O440 Mn423 2.251 1_655 S
O440 C433 1.241 . S
O441 Mn442 2.163 . S
O441 C455 1.244 . S
Mn442 O441 2.163 . S
Mn442 O445 2.160 . S
Mn442 O446 2.221 . S
Mn442 O448 2.163 . S
Mn442 O450 2.160 . S
Mn442 O460 2.221 . S
O443 Mn444 2.087 . S
O443 C455 1.256 . S
Mn444 O443 2.087 . S
Mn444 O451 2.089 . S
Mn444 O460 2.290 . S
Mn444 O461 2.251 . S
O445 Mn442 2.160 . S
O445 C456 1.239 . S
O446 Mn442 2.221 . S
O446 Mn447 2.290 . S
O446 C457 1.278 . S
Mn447 O446 2.290 . S
Mn447 O449 2.089 . S
Mn447 O452 2.251 . S
Mn447 O453 2.087 . S
O448 Mn442 2.163 . S
O448 C458 1.244 . S
O449 Mn447 2.089 . S
O449 C456 1.256 . S
O450 Mn442 2.160 . S
O450 C459 1.239 . S
O451 Mn444 2.089 . S
O451 C459 1.256 . S
O452 Mn447 2.251 . S
O452 C457 1.241 . S
O453 Mn447 2.087 . S
O453 C458 1.256 . S
C454 O460 1.278 . S
C454 O461 1.241 . S
C455 O441 1.244 . S
C455 O443 1.256 . S
C456 O445 1.239 . S
C456 O449 1.256 . S
C457 O446 1.278 . S
C457 O452 1.241 . S
C458 O448 1.244 . S
C458 O453 1.256 . S
C459 O450 1.239 . S
C459 O451 1.256 . S
O460 Mn442 2.221 . S
O460 Mn444 2.290 . S
O460 C454 1.278 . S
O461 Mn444 2.251 . S
O461 C454 1.241 . S
O462 Mn463 2.163 1_566 S
O462 C476 1.244 . S
Mn463 O462 2.163 1_544 S
Mn463 O466 2.160 . S
Mn463 O467 2.221 . S
Mn463 O469 2.163 1_545 S
Mn463 O471 2.160 1_554 S
Mn463 O481 2.221 1_544 S
O464 Mn465 2.087 1_565 S
O464 C476 1.256 . S
Mn465 O464 2.087 1_545 S
Mn465 O472 2.089 . S
Mn465 O481 2.290 1_545 S
Mn465 O482 2.251 1_545 S
O466 Mn463 2.160 . S
O466 C477 1.239 . S
O467 Mn463 2.221 . S
O467 Mn468 2.290 1_545 S
O467 C478 1.278 . S
Mn468 O467 2.290 1_565 S
Mn468 O470 2.089 . S
Mn468 O473 2.251 1_565 S
Mn468 O474 2.087 . S
O469 Mn463 2.163 1_565 S
O469 C479 1.244 . S
O470 Mn468 2.089 . S
O470 C477 1.254 1_565 S
O471 Mn463 2.160 1_556 S
O471 C480 1.239 . S
O472 Mn465 2.089 . S
O472 C480 1.256 . S
O473 Mn468 2.251 1_545 S
O473 C478 1.241 . S
O474 Mn468 2.087 . S
O474 C479 1.256 . S
C475 O481 1.278 . S
C475 O482 1.241 . S
C476 O462 1.244 . S
C476 O464 1.256 . S
C477 O466 1.239 . S
C477 O470 1.254 1_545 S
C478 O467 1.278 . S
C478 O473 1.241 . S
C479 O469 1.244 . S
C479 O474 1.256 . S
C480 O471 1.239 . S
C480 O472 1.256 . S
O481 Mn463 2.221 1_566 S
O481 Mn465 2.290 1_565 S
O481 C475 1.278 . S
O482 Mn465 2.251 1_565 S
O482 C475 1.241 . S
O483 Mn484 2.163 . S
O483 C497 1.244 . S
Mn484 O483 2.163 . S
Mn484 O487 2.160 . S
Mn484 O488 2.221 . S
Mn484 O490 2.163 . S
Mn484 O492 2.160 . S
Mn484 O502 2.221 . S
O485 Mn486 2.087 . S
O485 C497 1.256 . S
Mn486 O485 2.087 . S
Mn486 O493 2.089 . S
Mn486 O502 2.290 . S
Mn486 O503 2.251 . S
O487 Mn484 2.160 . S
O487 C498 1.239 . S
O488 Mn484 2.221 . S
O488 Mn489 2.290 . S
O488 C499 1.278 . S
Mn489 O488 2.290 . S
Mn489 O491 2.089 . S
Mn489 O494 2.251 . S
Mn489 O495 2.087 . S
O490 Mn484 2.163 . S
O490 C500 1.244 . S
O491 Mn489 2.089 . S
O491 C498 1.256 . S
O492 Mn484 2.160 . S
O492 C501 1.239 . S
O493 Mn486 2.089 . S
O493 C501 1.256 . S
O494 Mn489 2.251 . S
O494 C499 1.241 . S
O495 Mn489 2.087 . S
O495 C500 1.256 . S
C496 O502 1.278 . S
C496 O503 1.241 . S
C497 O483 1.244 . S
C497 O485 1.256 . S
C498 O487 1.239 . S
C498 O491 1.256 . S
C499 O488 1.278 . S
C499 O494 1.241 . S
C500 O490 1.244 . S
C500 O495 1.256 . S
C501 O492 1.239 . S
C501 O493 1.256 . S
O502 Mn484 2.221 . S
O502 Mn486 2.290 . S
O502 C496 1.278 . S
O503 Mn486 2.251 . S
O503 C496 1.241 . S
O504 Mn505 2.163 1_556 S
O504 C518 1.244 . S
Mn505 O504 2.163 1_554 S
Mn505 O508 2.160 . S
Mn505 O509 2.221 1_554 S
Mn505 O511 2.163 . S
Mn505 O513 2.160 . S
Mn505 O523 2.221 . S
O506 Mn507 2.087 . S
O506 C518 1.256 1_554 S
Mn507 O506 2.087 . S
Mn507 O514 2.089 . S
Mn507 O523 2.290 . S
Mn507 O524 2.251 . S
O508 Mn505 2.160 . S
O508 C519 1.239 . S
O509 Mn505 2.221 1_556 S
O509 Mn510 2.290 . S
O509 C520 1.278 . S
Mn510 O509 2.290 . S
Mn510 O512 2.089 1_556 S
Mn510 O515 2.251 . S
Mn510 O516 2.087 . S
O511 Mn505 2.163 . S
O511 C521 1.244 1_554 S
O512 Mn510 2.089 1_554 S
O512 C519 1.256 . S
O513 Mn505 2.160 . S
O513 C522 1.239 . S
O514 Mn507 2.089 . S
O514 C522 1.256 . S
O515 Mn510 2.251 . S
O515 C520 1.241 . S
O516 Mn510 2.087 . S
O516 C521 1.256 . S
C517 O523 1.278 . S
C517 O524 1.241 . S
C518 O504 1.244 . S
C518 O506 1.256 1_556 S
C519 O508 1.239 . S
C519 O512 1.256 . S
C520 O509 1.278 . S
C520 O515 1.241 . S
C521 O511 1.244 1_556 S
C521 O516 1.256 . S
C522 O513 1.239 . S
C522 O514 1.256 . S
O523 Mn505 2.221 . S
O523 Mn507 2.290 . S
O523 C517 1.278 . S
O524 Mn507 2.251 . S
O524 C517 1.241 . S
O525 Mn526 2.163 . S
O525 C539 1.244 . S
Mn526 O525 2.163 . S
Mn526 O529 2.160 . S
Mn526 O530 2.221 . S
Mn526 O532 2.163 . S
Mn526 O534 2.160 . S
Mn526 O544 2.221 . S
O527 Mn528 2.087 . S
O527 C539 1.256 . S
Mn528 O527 2.087 . S
Mn528 O535 2.089 . S
Mn528 O544 2.290 . S
Mn528 O545 2.251 . S
O529 Mn526 2.160 . S
O529 C540 1.239 . S
O530 Mn526 2.221 . S
O530 Mn531 2.290 . S
O530 C541 1.278 . S
Mn531 O530 2.290 . S
Mn531 O533 2.089 . S
Mn531 O536 2.251 . S
Mn531 O537 2.087 . S
O532 Mn526 2.163 . S
O532 C542 1.244 . S
O533 Mn531 2.089 . S
O533 C540 1.256 . S
O534 Mn526 2.160 . S
O534 C543 1.239 . S
O535 Mn528 2.089 . S
O535 C543 1.256 . S
O536 Mn531 2.251 . S
O536 C541 1.241 . S
O537 Mn531 2.087 . S
O537 C542 1.256 . S
C538 O544 1.278 . S
C538 O545 1.241 . S
C539 O525 1.244 . S
C539 O527 1.256 . S
C540 O529 1.239 . S
C540 O533 1.256 . S
C541 O530 1.278 . S
C541 O536 1.241 . S
C542 O532 1.244 . S
C542 O537 1.256 . S
C543 O534 1.239 . S
C543 O535 1.256 . S
O544 Mn526 2.221 . S
O544 Mn528 2.290 . S
O544 C538 1.278 . S
O545 Mn528 2.251 . S
O545 C538 1.241 . S
O546 Mn547 2.163 1_655 S
O546 C560 1.244 . S
Mn547 O546 2.163 1_455 S
Mn547 O550 2.160 . S
Mn547 O551 2.221 1_455 S
Mn547 O553 2.163 . S
Mn547 O555 2.160 . S
Mn547 O565 2.221 . S
O548 Mn549 2.087 . S
O548 C560 1.256 1_455 S
Mn549 O548 2.087 . S
Mn549 O556 2.089 . S
Mn549 O565 2.290 . S
Mn549 O566 2.251 . S
O550 Mn547 2.160 . S
O550 C561 1.239 . S
O551 Mn547 2.221 1_655 S
O551 Mn552 2.290 . S
O551 C562 1.278 . S
Mn552 O551 2.290 . S
Mn552 O554 2.075 1_655 S
Mn552 O557 2.251 . S
Mn552 O558 2.087 . S
O553 Mn547 2.163 . S
O553 C563 1.244 1_455 S
O554 Mn552 2.075 1_455 S
O554 C561 1.267 . S
O555 Mn547 2.160 . S
O555 C564 1.239 . S
O556 Mn549 2.089 . S
O556 C564 1.256 . S
O557 Mn552 2.251 . S
O557 C562 1.241 . S
O558 Mn552 2.087 . S
O558 C563 1.256 . S
C559 O565 1.278 . S
C559 O566 1.241 . S
C560 O546 1.244 . S
C560 O548 1.256 1_655 S
C561 O550 1.239 . S
C561 O554 1.267 . S
C562 O551 1.278 . S
C562 O557 1.241 . S
C563 O553 1.244 1_655 S
C563 O558 1.256 . S
C564 O555 1.239 . S
C564 O556 1.256 . S
O565 Mn547 2.221 . S
O565 Mn549 2.290 . S
O565 C559 1.278 . S
O566 Mn549 2.251 . S
O566 C559 1.241 . S
O567 Mn568 2.163 . S
O567 C581 1.244 . S
Mn568 O567 2.163 . S
Mn568 O571 2.160 . S
Mn568 O572 2.221 . S
Mn568 O574 2.163 . S
Mn568 O576 2.160 . S
Mn568 O586 2.221 . S
O569 Mn570 2.087 . S
O569 C581 1.256 . S
Mn570 O569 2.087 . S
Mn570 O577 2.089 . S
Mn570 O586 2.290 . S
Mn570 O587 2.251 . S
O571 Mn568 2.160 . S
O571 C582 1.239 . S
O572 Mn568 2.221 . S
O572 Mn573 2.290 . S
O572 C583 1.278 . S
Mn573 O572 2.290 . S
Mn573 O575 2.089 . S
Mn573 O578 2.251 . S
Mn573 O579 2.087 . S
O574 Mn568 2.163 . S
O574 C584 1.244 . S
O575 Mn573 2.089 . S
O575 C582 1.256 . S
O576 Mn568 2.160 . S
O576 C585 1.239 . S
O577 Mn570 2.089 . S
O577 C585 1.256 . S
O578 Mn573 2.251 . S
O578 C583 1.241 . S
O579 Mn573 2.087 . S
O579 C584 1.256 . S
C580 O586 1.278 . S
C580 O587 1.241 . S
C581 O567 1.244 . S
C581 O569 1.256 . S
C582 O571 1.239 . S
C582 O575 1.256 . S
C583 O572 1.278 . S
C583 O578 1.241 . S
C584 O574 1.244 . S
C584 O579 1.256 . S
C585 O576 1.239 . S
C585 O577 1.256 . S
O586 Mn568 2.221 . S
O586 Mn570 2.290 . S
O586 C580 1.278 . S
O587 Mn570 2.251 . S
O587 C580 1.241 . S
O588 Mn589 2.163 . S
O588 C602 1.244 . S
Mn589 O588 2.163 . S
Mn589 O592 2.160 . S
Mn589 O593 2.221 . S
Mn589 O595 2.163 . S
Mn589 O597 2.160 . S
Mn589 O607 2.221 . S
O590 Mn591 2.087 . S
O590 C602 1.256 . S
Mn591 O590 2.087 . S
Mn591 O598 2.089 . S
Mn591 O607 2.290 . S
Mn591 O608 2.251 . S
O592 Mn589 2.160 . S
O592 C603 1.239 . S
O593 Mn589 2.221 . S
O593 Mn594 2.290 . S
O593 C604 1.278 . S
Mn594 O593 2.290 . S
Mn594 O596 2.089 . S
Mn594 O599 2.251 . S
Mn594 O600 2.087 . S
O595 Mn589 2.163 . S
O595 C605 1.244 . S
O596 Mn594 2.089 . S
O596 C603 1.256 . S
O597 Mn589 2.160 . S
O597 C606 1.239 . S
O598 Mn591 2.089 . S
O598 C606 1.256 . S
O599 Mn594 2.251 . S
O599 C604 1.241 . S
O600 Mn594 2.087 . S
O600 C605 1.256 . S
C601 O607 1.278 . S
C601 O608 1.241 . S
C602 O588 1.244 . S
C602 O590 1.256 . S
C603 O592 1.239 . S
C603 O596 1.256 . S
C604 O593 1.278 . S
C604 O599 1.241 . S
C605 O595 1.244 . S
C605 O600 1.256 . S
C606 O597 1.239 . S
C606 O598 1.256 . S
O607 Mn589 2.221 . S
O607 Mn591 2.290 . S
O607 C601 1.278 . S
O608 Mn591 2.251 . S
O608 C601 1.241 . S
O609 Mn610 2.163 . S
O609 C623 1.244 . S
Mn610 O609 2.163 . S
Mn610 O613 2.160 . S
Mn610 O614 2.221 . S
Mn610 O616 2.163 . S
Mn610 O618 2.160 . S
Mn610 O628 2.221 . S
O611 Mn612 2.087 . S
O611 C623 1.256 . S
Mn612 O611 2.087 . S
Mn612 O619 2.089 . S
Mn612 O628 2.290 . S
Mn612 O629 2.251 . S
O613 Mn610 2.160 . S
O613 C624 1.239 . S
O614 Mn610 2.221 . S
O614 Mn615 2.290 . S
O614 C625 1.278 . S
Mn615 O614 2.290 . S
Mn615 O617 2.089 . S
Mn615 O620 2.251 . S
Mn615 O621 2.087 . S
O616 Mn610 2.163 . S
O616 C626 1.244 . S
O617 Mn615 2.089 . S
O617 C624 1.256 . S
O618 Mn610 2.160 . S
O618 C627 1.239 . S
O619 Mn612 2.089 . S
O619 C627 1.256 . S
O620 Mn615 2.251 . S
O620 C625 1.241 . S
O621 Mn615 2.087 . S
O621 C626 1.256 . S
C622 O628 1.278 . S
C622 O629 1.241 . S
C623 O609 1.244 . S
C623 O611 1.256 . S
C624 O613 1.239 . S
C624 O617 1.256 . S
C625 O614 1.278 . S
C625 O620 1.241 . S
C626 O616 1.244 . S
C626 O621 1.256 . S
C627 O618 1.239 . S
C627 O619 1.256 . S
O628 Mn610 2.221 . S
O628 Mn612 2.290 . S
O628 C622 1.278 . S
O629 Mn612 2.251 . S
O629 C622 1.241 . S
O630 Mn631 2.163 . S
O630 C644 1.244 . S
Mn631 O630 2.163 . S
Mn631 O634 2.160 . S
Mn631 O635 2.221 . S
Mn631 O637 2.163 . S
Mn631 O639 2.160 . S
Mn631 O649 2.221 . S
O632 Mn633 2.087 . S
O632 C644 1.256 . S
Mn633 O632 2.087 . S
Mn633 O640 2.089 . S
Mn633 O649 2.290 . S
Mn633 O650 2.251 . S
O634 Mn631 2.160 . S
O634 C645 1.239 . S
O635 Mn631 2.221 . S
O635 Mn636 2.290 . S
O635 C646 1.278 . S
Mn636 O635 2.290 . S
Mn636 O638 2.089 . S
Mn636 O641 2.251 . S
Mn636 O642 2.087 . S
O637 Mn631 2.163 . S
O637 C647 1.244 . S
O638 Mn636 2.089 . S
O638 C645 1.256 . S
O639 Mn631 2.160 . S
O639 C648 1.239 . S
O640 Mn633 2.089 . S
O640 C648 1.256 . S
O641 Mn636 2.251 . S
O641 C646 1.241 . S
O642 Mn636 2.087 . S
O642 C647 1.256 . S
C643 O649 1.278 . S
C643 O650 1.241 . S
C644 O630 1.244 . S
C644 O632 1.256 . S
C645 O634 1.239 . S
C645 O638 1.256 . S
C646 O635 1.278 . S
C646 O641 1.241 . S
C647 O637 1.244 . S
C647 O642 1.256 . S
C648 O639 1.239 . S
C648 O640 1.256 . S
O649 Mn631 2.221 . S
O649 Mn633 2.290 . S
O649 C643 1.278 . S
O650 Mn633 2.251 . S
O650 C643 1.241 . S
O651 Mn652 2.163 1_656 S
O651 C665 1.244 . S
Mn652 O651 2.163 1_454 S
Mn652 O655 2.160 . S
Mn652 O656 2.221 . S
Mn652 O658 2.163 1_554 S
Mn652 O660 2.160 1_455 S
Mn652 O670 2.221 1_454 S
O653 Mn654 2.087 1_556 S
O653 C665 1.256 . S
Mn654 O653 2.087 1_554 S
Mn654 O661 2.089 . S
Mn654 O670 2.290 1_554 S
Mn654 O671 2.251 1_554 S
O655 Mn652 2.160 . S
O655 C666 1.239 . S
O656 Mn652 2.221 . S
O656 Mn657 2.290 1_554 S
O656 C667 1.278 . S
Mn657 O656 2.290 1_556 S
Mn657 O659 2.089 . S
Mn657 O662 2.251 . S
Mn657 O663 2.087 . S
O658 Mn652 2.163 1_556 S
O658 C668 1.244 . S
O659 Mn657 2.089 . S
O659 C666 1.256 1_556 S
O660 Mn652 2.160 1_655 S
O660 C669 1.239 . S
O661 Mn654 2.089 . S
O661 C669 1.256 . S
O662 Mn657 2.251 . S
O662 C667 1.241 1_556 S
O663 Mn657 2.087 . S
O663 C668 1.256 . S
C664 O670 1.278 . S
C664 O671 1.241 . S
C665 O651 1.244 . S
C665 O653 1.256 . S
C666 O655 1.239 . S
C666 O659 1.256 1_554 S
C667 O656 1.278 . S
C667 O662 1.241 1_554 S
C668 O658 1.244 . S
C668 O663 1.256 . S
C669 O660 1.239 . S
C669 O661 1.256 . S
O670 Mn652 2.221 1_656 S
O670 Mn654 2.290 1_556 S
O670 C664 1.278 . S
O671 Mn654 2.251 1_556 S
O671 C664 1.241 . S
C352 C5 1.630 1_655 S
C23 C372 1.347 . S
C39 C394 1.578 . S
C413 C42 1.386 . S
C19 C434 1.530 1_455 S
C457 C28 1.644 . S
C480 C53 1.293 . S
C9 C498 1.413 . S
C65 C354 1.445 1_545 S
C75 C374 1.577 . S
C396 C93 1.444 . S
C415 C109 1.688 . S
C56 C436 1.597 . S
C459 C81 1.208 . S
C476 C84 1.413 . S
C500 C103 1.552 . S
C350 C107 1.522 1_556 S
C522 C121 1.343 . S
C131 C539 1.569 . S
C562 C140 1.629 . S
C61 C496 1.633 . S
C392 C70 1.404 . S
C137 C585 1.279 . S
C601 C165 1.510 . S
C173 C349 1.654 . S
C602 C182 1.423 . S
C207 C391 1.751 . S
C219 C582 1.460 . S
C435 C187 1.439 . S
C538 C205 1.674 . S
C479 C221 1.424 . S
C623 C168 1.598 . S
C353 C224 1.652 1_545 S
C243 C606 1.448 . S
C395 C252 1.511 1_565 S
C277 C580 1.770 . S
C233 C433 1.668 1_545 S
C249 C542 1.320 . S
C477 C261 1.446 . S
C271 C627 1.412 . S
C266 C351 1.349 . S
C280 C521 1.441 1_554 S
C299 C456 1.451 . S
C317 C559 1.766 . S
C625 C229 1.646 . S
C393 C247 1.410 . S
C416 C305 1.436 . S
C373 C333 1.726 . S
C33 C646 1.630 . S
C603 C51 1.347 . S
C667 C11 1.578 . S
C14 C581 1.386 . S
C47 C518 1.530 . S
C541 C0 1.644 . S
C564 C25 1.293 . S
C624 C37 1.414 . S
C648 C163 1.445 . S
C117 C605 1.577 . S
C135 C669 1.444 . S
C583 C151 1.688 . S
C520 C154 1.597 . S
C123 C543 1.208 . S
C560 C126 1.413 . S
C145 C626 1.552 . S
C644 C149 1.522 . S
C438 C79 1.343 . S
C455 C89 1.569 . S
C98 C478 1.629 . S
C622 C159 1.633 . S
C112 C665 1.404 . S
C417 C95 1.279 . S
C370 C67 1.510 . S
C201 C643 1.654 . S
C371 C210 1.423 . S
C664 C179 1.751 1_655 S
C191 C414 1.460 . S
C215 C519 1.439 . S
C177 C454 1.674 . S
C193 C563 1.424 1_455 S
C196 C497 1.598 . S
C647 C322 1.652 . S
C285 C375 1.448 . S
C668 C294 1.511 . S
C319 C412 1.770 . S
C331 C517 1.674 . S
C458 C291 1.320 . S
C303 C561 1.446 . S
C501 C313 1.412 . S
C645 C308 1.349 . S
C437 C238 1.441 . S
C257 C540 1.451 . S
C475 C275 1.766 1_556 S
C499 C327 1.645 . S
C289 C666 1.410 . S
C584 C263 1.436 . S
C604 C235 1.726 . S
