# Generated by pormake.
# Topology ocu, (6,8)-cn, num edge types: 1
# Building blocks:
#     Node 0, Type 0, BuildingBlock: PAMTUU_clean_sbu_0, # of connection points: 6
#     Node 1, Type 0, BuildingBlock: PAMTUU_clean_sbu_0, # of connection points: 6
#     Node 2, Type 0, BuildingBlock: PAMTUU_clean_sbu_0, # of connection points: 6
#     Node 3, Type 0, BuildingBlock: PAMTUU_clean_sbu_0, # of connection points: 6
#     Node 4, Type 0, BuildingBlock: PAMTUU_clean_sbu_0, # of connection points: 6
#     Node 5, Type 0, BuildingBlock: PAMTUU_clean_sbu_0, # of connection points: 6
#     Node 6, Type 0, BuildingBlock: PAMTUU_clean_sbu_0, # of connection points: 6
#     Node 7, Type 0, BuildingBlock: PAMTUU_clean_sbu_0, # of connection points: 6
#     Node 8, Type 1, BuildingBlock: TAGTUT_clean_sbu_1, # of connection points: 8
#     Node 9, Type 1, BuildingBlock: TAGTUT_clean_sbu_1, # of connection points: 8
#     Node 10, Type 1, BuildingBlock: TAGTUT_clean_sbu_1, # of connection points: 8
#     Node 11, Type 1, BuildingBlock: TAGTUT_clean_sbu_1, # of connection points: 8
#     Node 12, Type 1, BuildingBlock: TAGTUT_clean_sbu_1, # of connection points: 8
#     Node 13, Type 1, BuildingBlock: TAGTUT_clean_sbu_1, # of connection points: 8
#     Edge 14, Type (0, 1), BuildingBlock: ZUJKAS_clean_linker_0, # of connection points: 2
#     Edge 15, Type (0, 1), BuildingBlock: ZUJKAS_clean_linker_0, # of connection points: 2
#     Edge 16, Type (0, 1), BuildingBlock: ZUJKAS_clean_linker_0, # of connection points: 2
#     Edge 17, Type (0, 1), BuildingBlock: ZUJKAS_clean_linker_0, # of connection points: 2
#     Edge 18, Type (0, 1), BuildingBlock: ZUJKAS_clean_linker_0, # of connection points: 2
#     Edge 19, Type (0, 1), BuildingBlock: ZUJKAS_clean_linker_0, # of connection points: 2
#     Edge 20, Type (0, 1), BuildingBlock: ZUJKAS_clean_linker_0, # of connection points: 2
#     Edge 21, Type (0, 1), BuildingBlock: ZUJKAS_clean_linker_0, # of connection points: 2
#     Edge 22, Type (0, 1), BuildingBlock: ZUJKAS_clean_linker_0, # of connection points: 2
#     Edge 23, Type (0, 1), BuildingBlock: ZUJKAS_clean_linker_0, # of connection points: 2
#     Edge 24, Type (0, 1), BuildingBlock: ZUJKAS_clean_linker_0, # of connection points: 2
#     Edge 25, Type (0, 1), BuildingBlock: ZUJKAS_clean_linker_0, # of connection points: 2
#     Edge 26, Type (0, 1), BuildingBlock: ZUJKAS_clean_linker_0, # of connection points: 2
#     Edge 27, Type (0, 1), BuildingBlock: ZUJKAS_clean_linker_0, # of connection points: 2
#     Edge 28, Type (0, 1), BuildingBlock: ZUJKAS_clean_linker_0, # of connection points: 2
#     Edge 29, Type (0, 1), BuildingBlock: ZUJKAS_clean_linker_0, # of connection points: 2
#     Edge 30, Type (0, 1), BuildingBlock: ZUJKAS_clean_linker_0, # of connection points: 2
#     Edge 31, Type (0, 1), BuildingBlock: ZUJKAS_clean_linker_0, # of connection points: 2
#     Edge 32, Type (0, 1), BuildingBlock: ZUJKAS_clean_linker_0, # of connection points: 2
#     Edge 33, Type (0, 1), BuildingBlock: ZUJKAS_clean_linker_0, # of connection points: 2
#     Edge 34, Type (0, 1), BuildingBlock: ZUJKAS_clean_linker_0, # of connection points: 2
#     Edge 35, Type (0, 1), BuildingBlock: ZUJKAS_clean_linker_0, # of connection points: 2
#     Edge 36, Type (0, 1), BuildingBlock: ZUJKAS_clean_linker_0, # of connection points: 2
#     Edge 37, Type (0, 1), BuildingBlock: ZUJKAS_clean_linker_0, # of connection points: 2
#     Edge 38, Type (0, 1), BuildingBlock: ZUJKAS_clean_linker_0, # of connection points: 2
#     Edge 39, Type (0, 1), BuildingBlock: ZUJKAS_clean_linker_0, # of connection points: 2
#     Edge 40, Type (0, 1), BuildingBlock: ZUJKAS_clean_linker_0, # of connection points: 2
#     Edge 41, Type (0, 1), BuildingBlock: ZUJKAS_clean_linker_0, # of connection points: 2
#     Edge 42, Type (0, 1), BuildingBlock: ZUJKAS_clean_linker_0, # of connection points: 2
#     Edge 43, Type (0, 1), BuildingBlock: ZUJKAS_clean_linker_0, # of connection points: 2
#     Edge 44, Type (0, 1), BuildingBlock: ZUJKAS_clean_linker_0, # of connection points: 2
#     Edge 45, Type (0, 1), BuildingBlock: ZUJKAS_clean_linker_0, # of connection points: 2
#     Edge 46, Type (0, 1), BuildingBlock: ZUJKAS_clean_linker_0, # of connection points: 2
#     Edge 47, Type (0, 1), BuildingBlock: ZUJKAS_clean_linker_0, # of connection points: 2
#     Edge 48, Type (0, 1), BuildingBlock: ZUJKAS_clean_linker_0, # of connection points: 2
#     Edge 49, Type (0, 1), BuildingBlock: ZUJKAS_clean_linker_0, # of connection points: 2
#     Edge 50, Type (0, 1), BuildingBlock: ZUJKAS_clean_linker_0, # of connection points: 2
#     Edge 51, Type (0, 1), BuildingBlock: ZUJKAS_clean_linker_0, # of connection points: 2
#     Edge 52, Type (0, 1), BuildingBlock: ZUJKAS_clean_linker_0, # of connection points: 2
#     Edge 53, Type (0, 1), BuildingBlock: ZUJKAS_clean_linker_0, # of connection points: 2
#     Edge 54, Type (0, 1), BuildingBlock: ZUJKAS_clean_linker_0, # of connection points: 2
#     Edge 55, Type (0, 1), BuildingBlock: ZUJKAS_clean_linker_0, # of connection points: 2
#     Edge 56, Type (0, 1), BuildingBlock: ZUJKAS_clean_linker_0, # of connection points: 2
#     Edge 57, Type (0, 1), BuildingBlock: ZUJKAS_clean_linker_0, # of connection points: 2
#     Edge 58, Type (0, 1), BuildingBlock: ZUJKAS_clean_linker_0, # of connection points: 2
#     Edge 59, Type (0, 1), BuildingBlock: ZUJKAS_clean_linker_0, # of connection points: 2
#     Edge 60, Type (0, 1), BuildingBlock: ZUJKAS_clean_linker_0, # of connection points: 2
#     Edge 61, Type (0, 1), BuildingBlock: ZUJKAS_clean_linker_0, # of connection points: 2
# Relax obj value: 0.112
# Max RMSD: 0.262
# Mean RMSD: 0.147
data_MOF--net-ocu--node1-PAMTUU_clean_sbu_0--node2-TAGTUT_clean_sbu_1--edge1-ZUJKAS_clean_linker_0
_symmetry_space_group_name_H-M    P1
_symmetry_Int_Tables_number       1
_symmetry_cell_setting            triclinic
loop_
_symmetry_equiv_pos_as_xyz
'x, y, z'
_cell_length_a     48.872514
_cell_length_b     50.117978
_cell_length_c     51.831117
_cell_angle_alpha  85.989341
_cell_angle_beta   97.005502
_cell_angle_gamma 110.24694
loop_
_atom_site_label
_atom_site_type_symbol
_atom_site_fract_x
_atom_site_fract_y
_atom_site_fract_z
_atom_type_partial_charge
Tb0 Tb 0.26872 0.27906 0.25307 0.0
Tb1 Tb 0.31771 0.2802 0.30077 0.0
C2 C 0.25626 0.23403 0.29826 0.0
C3 C 0.20126 0.28524 0.21862 0.0
C4 C 0.15335 0.3041 0.21783 0.0
C5 C 0.15671 0.29034 0.19631 0.0
C6 C 0.1807 0.28113 0.19665 0.0
C7 C 0.19679 0.29721 0.24075 0.0
C8 C 0.17318 0.30687 0.24027 0.0
C9 C 0.22856 0.2794 0.21783 0.0
O10 O 0.26448 0.30975 0.28033 0.0
O11 O 0.28886 0.29864 0.31793 0.0
O12 O 0.33099 0.32192 0.2814 0.0
O13 O 0.31052 0.3063 0.2412 0.0
O14 O 0.32998 0.26804 0.33881 0.0
O15 O 0.36226 0.29536 0.31491 0.0
O16 O 0.33091 0.26075 0.26922 0.0
O17 O 0.28904 0.24897 0.24064 0.0
O18 O 0.24659 0.25197 0.28386 0.0
O19 O 0.2844 0.23801 0.30174 0.0
C20 C 0.27075 0.31117 0.30598 0.0
O21 O 0.25242 0.30116 0.22288 0.0
O22 O 0.23008 0.25628 0.2302 0.0
C23 C 0.33057 0.32488 0.25608 0.0
C24 C 0.3751 0.26074 0.34072 0.0
C25 C 0.40936 0.22529 0.3478 0.0
C26 C 0.41764 0.25055 0.36165 0.0
C27 C 0.40061 0.26815 0.3581 0.0
C28 C 0.36689 0.23576 0.32666 0.0
C29 C 0.38385 0.21816 0.33018 0.0
C30 C 0.35784 0.27969 0.33612 0.0
C31 C 0.31559 0.24769 0.24803 0.0
H32 H 0.1418 0.28827 0.1787 0.0
H33 H 0.18382 0.27188 0.17944 0.0
H34 H 0.21223 0.30021 0.25802 0.0
H35 H 0.17098 0.31742 0.25705 0.0
H36 H 0.43737 0.25678 0.37512 0.0
H37 H 0.40743 0.28759 0.36881 0.0
H38 H 0.34732 0.22987 0.31296 0.0
H39 H 0.37664 0.19869 0.3195 0.0
Tb40 Tb 0.75523 0.27428 0.27518 0.0
Tb41 Tb 0.81704 0.26151 0.29079 0.0
C42 C 0.79401 0.29574 0.32619 0.0
C43 C 0.69859 0.30873 0.26926 0.0
C44 C 0.67949 0.35477 0.27469 0.0
C45 C 0.70804 0.35957 0.26831 0.0
C46 C 0.71757 0.33674 0.26576 0.0
C47 C 0.67059 0.30386 0.2766 0.0
C48 C 0.66113 0.32667 0.2794 0.0
C49 C 0.7078 0.28436 0.26607 0.0
O50 O 0.78791 0.30457 0.25271 0.0
O51 O 0.8286 0.30651 0.28055 0.0
O52 O 0.80346 0.25052 0.25045 0.0
O53 O 0.75395 0.24188 0.24926 0.0
O54 O 0.84411 0.24452 0.31614 0.0
O55 O 0.8596 0.2685 0.28139 0.0
O56 O 0.7827 0.22062 0.29586 0.0
O57 O 0.7471 0.23859 0.30275 0.0
O58 O 0.7793 0.30299 0.30571 0.0
O59 O 0.80606 0.27616 0.3253 0.0
C60 C 0.81589 0.31676 0.26047 0.0
O61 O 0.72575 0.28706 0.24861 0.0
O62 O 0.71545 0.27268 0.28764 0.0
C63 C 0.77665 0.24038 0.23906 0.0
C64 C 0.8757 0.23021 0.29391 0.0
C65 C 0.89731 0.18708 0.28432 0.0
C66 C 0.91666 0.21486 0.28918 0.0
C67 C 0.9059 0.23625 0.29402 0.0
C68 C 0.85618 0.20297 0.28748 0.0
C69 C 0.86693 0.1815 0.28285 0.0
C70 C 0.8649 0.25239 0.30074 0.0
C71 C 0.75769 0.21773 0.30464 0.0
H72 H 0.72262 0.38088 0.26418 0.0
H73 H 0.73951 0.34094 0.26052 0.0
H74 H 0.65589 0.28236 0.27986 0.0
H75 H 0.63919 0.32227 0.28468 0.0
H76 H 0.94018 0.21965 0.29081 0.0
H77 H 0.9212 0.25729 0.29865 0.0
H78 H 0.83271 0.1981 0.28685 0.0
H79 H 0.85158 0.16027 0.2791 0.0
Tb80 Tb 0.81982 0.79926 0.26378 0.0
Tb81 Tb 0.76289 0.76048 0.29112 0.0
C82 C 0.80155 0.82012 0.31337 0.0
C83 C 0.88814 0.8192 0.23454 0.0
C84 C 0.91889 0.78922 0.21377 0.0
C85 C 0.91374 0.78515 0.24005 0.0
C86 C 0.89837 0.79995 0.25035 0.0
C87 C 0.89596 0.82549 0.20914 0.0
C88 C 0.91128 0.81059 0.19878 0.0
C89 C 0.86481 0.82803 0.24239 0.0
O90 O 0.8383 0.77218 0.2918 0.0
O91 O 0.79586 0.73884 0.30377 0.0
O92 O 0.75839 0.74354 0.25305 0.0
O93 O 0.80638 0.75838 0.24546 0.0
O94 O 0.74546 0.7335 0.32227 0.0
O95 O 0.71721 0.73988 0.28897 0.0
O96 O 0.74892 0.796 0.27213 0.0
O97 O 0.78324 0.81245 0.24302 0.0
O98 O 0.8155 0.82642 0.29253 0.0
O99 O 0.78258 0.79489 0.31789 0.0
C100 C 0.82488 0.74791 0.30418 0.0
O101 O 0.83916 0.81615 0.22958 0.0
O102 O 0.86312 0.82779 0.26734 0.0
C103 C 0.77919 0.74172 0.24041 0.0
C104 C 0.70087 0.73618 0.33048 0.0
C105 C 0.67819 0.75401 0.37062 0.0
C106 C 0.68144 0.72716 0.37232 0.0
C107 C 0.69264 0.71826 0.35229 0.0
C108 C 0.69623 0.76238 0.32816 0.0
C109 C 0.68478 0.77114 0.34801 0.0
C110 C 0.71855 0.72957 0.31268 0.0
C111 C 0.75829 0.81192 0.2512 0.0
H112 H 0.91977 0.76909 0.25211 0.0
H113 H 0.89266 0.79474 0.27007 0.0
H114 H 0.88813 0.84016 0.19664 0.0
H115 H 0.91478 0.81406 0.1784 0.0
H116 H 0.6764 0.71359 0.38954 0.0
H117 H 0.69639 0.6981 0.35447 0.0
H118 H 0.70293 0.77679 0.3117 0.0
H119 H 0.6829 0.79212 0.34639 0.0
Tb120 Tb 0.30984 0.75635 0.28532 0.0
Tb121 Tb 0.27757 0.80287 0.26448 0.0
C122 C 0.24934 0.75102 0.30137 0.0
C123 C 0.34456 0.70615 0.27614 0.0
C124 C 0.36675 0.68544 0.23723 0.0
C125 C 0.37658 0.68258 0.26365 0.0
C126 C 0.3656 0.69301 0.28302 0.0
C127 C 0.33425 0.70827 0.24988 0.0
C128 C 0.34505 0.69788 0.23067 0.0
C129 C 0.335 0.72021 0.29541 0.0
O130 O 0.27693 0.73829 0.25336 0.0
O131 O 0.27461 0.77846 0.23047 0.0
O132 O 0.32338 0.82133 0.25847 0.0
O133 O 0.33225 0.78038 0.25321 0.0
O134 O 0.23959 0.81222 0.25031 0.0
O135 O 0.28115 0.8457 0.25764 0.0
O136 O 0.29094 0.8099 0.30572 0.0
O137 O 0.32883 0.79221 0.31082 0.0
O138 O 0.27523 0.74965 0.31002 0.0
O139 O 0.24536 0.76588 0.28034 0.0
C140 C 0.27046 0.75103 0.23168 0.0
O141 O 0.34873 0.74758 0.29646 0.0
O142 O 0.30668 0.71397 0.2946 0.0
C143 C 0.33946 0.80801 0.25054 0.0
C144 C 0.24085 0.85188 0.27255 0.0
C145 C 0.2261 0.87874 0.3119 0.0
C146 C 0.22944 0.89156 0.28691 0.0
C147 C 0.23707 0.87829 0.26737 0.0
C148 C 0.23639 0.83866 0.29721 0.0
C149 C 0.22921 0.85199 0.31671 0.0
C150 C 0.25283 0.83935 0.25387 0.0
C151 C 0.3154 0.8085 0.31836 0.0
H152 H 0.39342 0.6732 0.26923 0.0
H153 H 0.37404 0.6915 0.30318 0.0
H154 H 0.31832 0.71867 0.24411 0.0
H155 H 0.33665 0.69997 0.21058 0.0
H156 H 0.22713 0.91221 0.28279 0.0
H157 H 0.24078 0.88892 0.24853 0.0
H158 H 0.23926 0.81829 0.30164 0.0
H159 H 0.22629 0.84145 0.33567 0.0
Tb160 Tb 0.26689 0.79402 0.77086 0.0
Tb161 Tb 0.30703 0.75612 0.79348 0.0
C162 C 0.30968 0.81079 0.82194 0.0
C163 C 0.2424 0.85546 0.75006 0.0
C164 C 0.24688 0.91181 0.73569 0.0
C165 C 0.22721 0.89615 0.7534 0.0
C166 C 0.22493 0.86817 0.76042 0.0
C167 C 0.26378 0.87175 0.73402 0.0
C168 C 0.26591 0.89973 0.7268 0.0
C169 C 0.2368 0.82494 0.75525 0.0
O170 O 0.30499 0.80841 0.74928 0.0
O171 O 0.33681 0.79619 0.77978 0.0
O172 O 0.28933 0.74091 0.75414 0.0
O173 O 0.24899 0.75502 0.7487 0.0
O174 O 0.31864 0.7298 0.82299 0.0
O175 O 0.34279 0.74362 0.78926 0.0
O176 O 0.26249 0.72929 0.79902 0.0
O177 O 0.24377 0.76509 0.80034 0.0
O178 O 0.29969 0.82023 0.79978 0.0
O179 O 0.30865 0.78415 0.82478 0.0
C180 C 0.33176 0.8106 0.75882 0.0
O181 O 0.24676 0.81188 0.73973 0.0
O182 O 0.24096 0.8173 0.77951 0.0
C183 C 0.26367 0.73953 0.74175 0.0
C184 C 0.34119 0.69927 0.80901 0.0
C185 C 0.35332 0.64856 0.80692 0.0
C186 C 0.34205 0.66008 0.78432 0.0
C187 C 0.33592 0.68527 0.78536 0.0
C188 C 0.35118 0.68717 0.83166 0.0
C189 C 0.35722 0.66213 0.83066 0.0
C190 C 0.33935 0.72772 0.81044 0.0
C191 C 0.24207 0.73856 0.80488 0.0
H192 H 0.21196 0.90471 0.76027 0.0
H193 H 0.20851 0.85601 0.77301 0.0
H194 H 0.27793 0.86254 0.72616 0.0
H195 H 0.28129 0.91139 0.71317 0.0
H196 H 0.33867 0.65004 0.76581 0.0
H197 H 0.32804 0.69426 0.76761 0.0
H198 H 0.35555 0.69776 0.85001 0.0
H199 H 0.36648 0.65432 0.84838 0.0
Tb200 Tb 0.32227 0.28939 0.75879 0.0
Tb201 Tb 0.26573 0.26776 0.79259 0.0
C202 C 0.31575 0.32524 0.80311 0.0
C203 C 0.37797 0.28711 0.71812 0.0
C204 C 0.40096 0.25442 0.69064 0.0
C205 C 0.40973 0.28416 0.68669 0.0
C206 C 0.39828 0.30035 0.7003 0.0
C207 C 0.36931 0.25753 0.72233 0.0
C208 C 0.38071 0.24133 0.70874 0.0
C209 C 0.36476 0.3039 0.73135 0.0
O210 O 0.33033 0.25584 0.78536 0.0
O211 O 0.30113 0.25659 0.81652 0.0
O212 O 0.26228 0.22979 0.77279 0.0
O213 O 0.29264 0.25099 0.74094 0.0
O214 O 0.25119 0.26043 0.82968 0.0
O215 O 0.22023 0.25352 0.79546 0.0
O216 O 0.25037 0.2849 0.75546 0.0
O217 O 0.29449 0.31509 0.74372 0.0
O218 O 0.33358 0.31629 0.79208 0.0
O219 O 0.28729 0.31281 0.79922 0.0
C220 C 0.32264 0.24955 0.80921 0.0
O221 O 0.33799 0.30142 0.72227 0.0
O222 O 0.36773 0.30226 0.75667 0.0
C223 C 0.27305 0.22893 0.75098 0.0
C224 C 0.20905 0.27167 0.83213 0.0
C225 C 0.18448 0.30385 0.85854 0.0
C226 C 0.1743 0.27392 0.86087 0.0
C227 C 0.18656 0.258 0.84784 0.0
C228 C 0.21873 0.30141 0.82908 0.0
C229 C 0.20661 0.31737 0.8422 0.0
C230 C 0.22386 0.25506 0.82069 0.0
C231 C 0.26549 0.3065 0.74107 0.0
H232 H 0.42499 0.29488 0.67267 0.0
H233 H 0.405 0.32314 0.69666 0.0
H234 H 0.35356 0.24694 0.73601 0.0
H235 H 0.37376 0.21856 0.71254 0.0
H236 H 0.15695 0.26276 0.8729 0.0
H237 H 0.17886 0.23505 0.85043 0.0
H238 H 0.23616 0.31232 0.81706 0.0
H239 H 0.21524 0.34035 0.84015 0.0
Tb240 Tb 0.81603 0.27024 0.79006 0.0
Tb241 Tb 0.76374 0.29123 0.76059 0.0
C242 C 0.75319 0.25043 0.81041 0.0
C243 C 0.87306 0.24288 0.78656 0.0
C244 C 0.88888 0.21845 0.74587 0.0
C245 C 0.88785 0.20574 0.77098 0.0
C246 C 0.87974 0.21777 0.79116 0.0
C247 C 0.876 0.25646 0.76187 0.0
C248 C 0.88375 0.24436 0.74176 0.0
C249 C 0.8567 0.25125 0.80473 0.0
O250 O 0.80323 0.25061 0.75275 0.0
O251 O 0.75582 0.24939 0.74579 0.0
O252 O 0.79725 0.3028 0.73342 0.0
O253 O 0.83608 0.30666 0.76425 0.0
O254 O 0.71921 0.28325 0.74778 0.0
O255 O 0.75121 0.32504 0.74326 0.0
O256 O 0.79167 0.32394 0.78675 0.0
O257 O 0.81032 0.29804 0.81756 0.0
O258 O 0.77589 0.24321 0.80666 0.0
O259 O 0.74846 0.27232 0.79774 0.0
C260 C 0.77641 0.23929 0.74202 0.0
O261 O 0.86018 0.27832 0.80482 0.0
O262 O 0.82907 0.23552 0.80347 0.0
C263 C 0.82571 0.31187 0.74048 0.0
C264 C 0.70814 0.32242 0.76095 0.0
C265 C 0.6903 0.34662 0.80074 0.0
C266 C 0.70641 0.36403 0.78141 0.0
C267 C 0.71517 0.35205 0.76169 0.0
C268 C 0.69046 0.30497 0.77934 0.0
C269 C 0.68171 0.31693 0.799 0.0
C270 C 0.7235 0.3104 0.74445 0.0
C271 C 0.80241 0.32024 0.81062 0.0
H272 H 0.89165 0.1857 0.77462 0.0
H273 H 0.87699 0.2066 0.80985 0.0
H274 H 0.87052 0.27557 0.75757 0.0
H275 H 0.88476 0.2548 0.72269 0.0
H276 H 0.71292 0.38697 0.78192 0.0
H277 H 0.72877 0.36604 0.74782 0.0
H278 H 0.68468 0.28206 0.77953 0.0
H279 H 0.66952 0.30286 0.81364 0.0
Tb280 Tb 0.79654 0.79538 0.80337 0.0
Tb281 Tb 0.7822 0.75325 0.75312 0.0
C282 C 0.83498 0.80938 0.75669 0.0
C283 C 0.78841 0.84004 0.85513 0.0
C284 C 0.75546 0.86291 0.88271 0.0
C285 C 0.78349 0.87982 0.8761 0.0
C286 C 0.79976 0.86847 0.86254 0.0
C287 C 0.76039 0.82301 0.86147 0.0
C288 C 0.74412 0.83431 0.87521 0.0
C289 C 0.80593 0.82913 0.84017 0.0
O290 O 0.75568 0.79665 0.78281 0.0
O291 O 0.76297 0.78641 0.74229 0.0
O292 O 0.74372 0.73709 0.77419 0.0
O293 O 0.76501 0.75484 0.81438 0.0
O294 O 0.7813 0.74973 0.71287 0.0
O295 O 0.76791 0.71222 0.73791 0.0
O296 O 0.80619 0.7361 0.78403 0.0
O297 O 0.8304 0.77588 0.80825 0.0
O298 O 0.82122 0.81906 0.77194 0.0
O299 O 0.82677 0.78221 0.75216 0.0
C300 C 0.75002 0.79728 0.75743 0.0
O301 O 0.80321 0.80233 0.84358 0.0
O302 O 0.80637 0.83703 0.81572 0.0
C303 C 0.74372 0.73699 0.79955 0.0
C304 C 0.79157 0.70925 0.70154 0.0
C305 C 0.82358 0.68388 0.6754 0.0
C306 C 0.79527 0.66798 0.68207 0.0
C307 C 0.77946 0.68056 0.6949 0.0
C308 C 0.82001 0.72515 0.69534 0.0
C309 C 0.83578 0.71263 0.68233 0.0
C310 C 0.77403 0.72209 0.71458 0.0
C311 C 0.8271 0.74996 0.80165 0.0
H312 H 0.79276 0.90204 0.881 0.0
H313 H 0.8212 0.88206 0.8576 0.0
H314 H 0.75107 0.80102 0.85577 0.0
H315 H 0.72278 0.82053 0.88016 0.0
H316 H 0.78532 0.64569 0.67755 0.0
H317 H 0.75764 0.66784 0.69961 0.0
H318 H 0.82999 0.74732 0.70031 0.0
H319 H 0.85734 0.72568 0.6773 0.0
C320 C 0.97237 0.09808 0.53979 0.0
C321 C 1.00274 0.0815 0.4665 0.0
C322 C 0.98005 0.97795 0.49426 0.0
Mg323 Mg 0.03051 0.09735 0.52216 0.0
O324 O 1.01389 0.05864 0.53147 0.0
Mg325 Mg 0.97338 0.03692 0.51565 0.0
Mg326 Mg 0.03379 0.03132 0.52578 0.0
O327 O 0.05472 1.00329 0.52174 0.0
Mg328 Mg 0.03565 0.96154 0.51778 0.0
Mg329 Mg 0.09813 0.02852 0.53611 0.0
C330 C 0.08835 0.08743 0.55037 0.0
C331 C 0.07602 0.05483 0.48016 0.0
O332 O 0.95938 0.07261 0.53163 0.0
O333 O 0.99971 0.11143 0.53817 0.0
O334 O 0.98307 0.06031 0.47608 0.0
O335 O 1.02373 0.09875 0.48061 0.0
O336 O 0.07449 0.10459 0.54233 0.0
O337 O 0.07682 0.06049 0.54711 0.0
C338 C 0.98776 1.00447 0.56933 0.0
O339 O 1.01364 0.00903 0.56298 0.0
O340 O 0.96902 0.01302 0.55479 0.0
O341 O 0.11273 0.99404 0.51898 0.0
O342 O 0.07343 0.95715 0.50293 0.0
O343 O 0.05829 0.99391 0.54735 0.0
C344 C 0.10123 0.97073 0.50638 0.0
O345 O 0.03606 0.95038 0.55934 0.0
O346 O 0.99412 0.96036 0.49669 0.0
C347 C 0.05438 0.97468 0.56548 0.0
O348 O 0.99133 1.00305 0.50345 0.0
O349 O 0.05176 0.05374 0.48785 0.0
O350 O 0.09411 0.04562 0.49454 0.0
C351 C 0.46395 0.10752 0.09096 0.0
C352 C 0.47627 0.10985 0.00839 0.0
C353 C 0.47701 0.99453 0.02774 0.0
Mg354 Mg 0.51946 0.11463 0.06093 0.0
O355 O 0.50841 0.07484 0.06125 0.0
Mg356 Mg 0.46587 0.05243 0.05193 0.0
Mg357 Mg 0.53098 0.04946 0.05155 0.0
O358 O 0.5528 0.02261 0.0444 0.0
Mg359 Mg 0.53977 0.9829 0.05021 0.0
Mg360 Mg 0.59457 0.04285 0.05754 0.0
C361 C 0.58384 0.10271 0.07507 0.0
C362 C 0.57598 0.08127 1.00747 0.0
O363 O 0.45108 0.08386 0.07869 0.0
O364 O 0.49126 0.12155 0.08886 0.0
O365 O 0.46273 0.08382 0.01539 0.0
O366 O 0.49953 0.12513 0.02211 0.0
O367 O 0.5672 0.11835 0.07102 0.0
O368 O 0.57381 0.07523 0.07415 0.0
C369 C 0.49141 0.01551 0.09726 0.0
O370 O 0.51546 0.0232 0.08702 0.0
O371 O 0.46997 0.02358 0.08775 0.0
O372 O 0.60754 0.01158 0.03394 0.0
O373 O 0.56621 0.97502 0.02311 0.0
O374 O 0.59875 0.00985 0.0946 0.0
C375 C 0.59365 0.98843 0.02174 0.0
O376 O 0.56194 0.96902 0.08696 0.0
O377 O 0.49335 0.97914 0.0352 0.0
C378 C 0.58643 0.98291 0.09996 0.0
O379 O 0.48641 0.02209 0.02986 0.0
O380 O 0.55019 0.07718 0.01423 0.0
O381 O 0.5936 0.07059 0.02093 0.0
C382 C 0.95563 0.60695 0.03639 0.0
C383 C 0.97548 0.59243 0.96222 0.0
C384 C 0.94973 0.48377 0.9939 0.0
Mg385 Mg 1.01002 0.60051 0.01578 0.0
O386 O 0.99054 0.56319 0.02707 0.0
Mg387 Mg 0.94902 0.54482 0.01122 0.0
Mg388 Mg 1.00758 0.53403 0.02014 0.0
O389 O 1.02436 0.50488 0.01261 0.0
Mg390 Mg 1.00407 0.46664 0.0201 0.0
Mg391 Mg 0.06485 0.52221 0.03055 0.0
C392 C 0.06523 0.58511 0.04354 0.0
C393 C 0.05574 0.56003 0.97865 0.0
O394 O 0.9398 0.58153 0.02966 0.0
O395 O 0.98289 0.61805 0.03308 0.0
O396 O 0.95617 0.57182 0.97288 0.0
O397 O 1.0003 0.60538 0.97458 0.0
O398 O 0.05386 0.60361 0.0335 0.0
O399 O 0.05048 0.55824 0.04398 0.0
C400 C 0.96018 0.50699 0.06259 0.0
O401 O 0.98562 0.50981 0.05613 0.0
O402 O 0.94317 0.51823 0.04885 0.0
O403 O 0.07535 0.48522 0.01323 0.0
O404 O 0.03278 0.44936 1.00422 0.0
O405 O 0.05325 0.49508 0.06875 0.0
C406 C 0.06067 0.46048 1.00409 0.0
O407 O 1.00915 0.46166 0.06131 0.0
O408 O 0.96099 0.46444 1.0013 0.0
C409 C 0.03165 0.47443 0.07669 0.0
O410 O 0.96448 0.51035 0.99644 0.0
O411 O 0.03027 0.55804 0.98457 0.0
O412 O 0.07219 0.54844 0.9929 0.0
C413 C 0.48536 0.58963 0.03852 0.0
C414 C 0.51033 0.56513 0.96678 0.0
C415 C 0.4943 0.46515 0.01235 0.0
Mg416 Mg 0.54267 0.58838 0.01974 0.0
O417 O 0.52835 0.55125 0.03426 0.0
Mg418 Mg 0.48774 0.52666 0.02098 0.0
Mg419 Mg 0.54834 0.52368 0.02961 0.0
O420 O 0.56835 0.49626 0.02432 0.0
Mg421 Mg 0.55473 0.45894 0.03823 0.0
Mg422 Mg 0.60975 0.52089 0.0348 0.0
C423 C 0.60316 0.58219 0.04593 0.0
C424 C 0.58715 0.54604 0.9805 0.0
O425 O 0.47322 0.56323 0.03293 0.0
O426 O 0.5123 0.60361 0.03551 0.0
O427 O 0.49288 0.54461 0.97913 0.0
O428 O 0.53159 0.5847 0.97835 0.0
O429 O 0.58848 0.59834 0.03675 0.0
O430 O 0.59148 0.55494 0.04641 0.0
C431 C 0.5066 0.50136 0.07698 0.0
O432 O 0.53184 0.50439 0.06964 0.0
O433 O 0.48717 0.50846 0.06204 0.0
O434 O 0.62315 0.48445 0.02052 0.0
O435 O 0.58418 0.44403 0.02044 0.0
O436 O 0.60765 0.50265 0.07659 0.0
C437 C 0.61048 0.45797 0.01537 0.0
O438 O 0.56763 0.46401 0.07935 0.0
O439 O 0.50867 0.44874 0.02156 0.0
C440 C 0.59045 0.48293 0.08992 0.0
O441 O 0.50623 0.49234 0.01227 0.0
O442 O 0.56314 0.54302 0.98991 0.0
O443 O 0.60779 0.53901 0.99345 0.0
C444 C 0.98755 0.56426 0.53278 0.0
C445 C 0.99821 0.57595 0.45503 0.0
C446 C 1.00209 0.45607 0.47645 0.0
Mg447 Mg 0.04341 0.57375 0.50565 0.0
O448 O 0.03099 0.53386 0.50893 0.0
Mg449 Mg 0.98967 0.51337 0.49404 0.0
Mg450 Mg 0.05408 0.50814 0.50176 0.0
O451 O 0.07707 0.48307 0.49227 0.0
Mg452 Mg 0.06556 0.44312 0.49355 0.0
Mg453 Mg 0.11933 0.50528 0.50252 0.0
C454 C 0.1064 0.56216 0.52874 0.0
C455 C 0.095 0.54285 0.45723 0.0
O456 O 0.97457 0.54208 0.51898 0.0
O457 O 1.01505 0.57829 0.5327 0.0
O458 O 0.98654 0.54858 0.45852 0.0
O459 O 1.02175 0.58951 0.46946 0.0
O460 O 0.08967 0.57731 0.52178 0.0
O461 O 0.09777 0.53484 0.52515 0.0
C462 C 1.00624 0.47206 0.54238 0.0
O463 O 0.03322 0.47869 0.53768 0.0
O464 O 0.98868 0.4825 0.52849 0.0
O465 O 0.13422 0.47421 0.47534 0.0
O466 O 0.09435 0.43574 0.46652 0.0
O467 O 0.12246 0.4735 0.53845 0.0
C468 C 0.12144 0.45008 0.46376 0.0
O469 O 0.08505 0.43252 0.53276 0.0
O470 O 1.01786 0.43969 0.48195 0.0
C471 C 0.10887 0.44767 0.54589 0.0
O472 O 1.01288 0.48344 0.47718 0.0
O473 O 0.07085 0.53571 0.46723 0.0
O474 O 0.11596 0.53425 0.46695 0.0
C475 C 0.52014 0.08639 0.55376 0.0
C476 C 0.5434 0.06298 0.48217 0.0
C477 C 0.50716 0.95644 0.52163 0.0
Mg478 Mg 0.57444 0.07551 0.53745 0.0
O479 O 0.55305 0.03846 0.54811 0.0
Mg480 Mg 0.51163 0.02123 0.53203 0.0
Mg481 Mg 0.56734 0.0065 0.54379 0.0
O482 O 0.58132 0.97431 0.53991 0.0
Mg483 Mg 0.55908 0.9385 0.55296 0.0
Mg484 Mg 0.6228 0.9914 0.55595 0.0
C485 C 0.62712 0.05641 0.56599 0.0
C486 C 0.61518 0.02529 0.50106 0.0
O487 O 0.50411 0.0613 0.54624 0.0
O488 O 0.548 0.09601 0.55288 0.0
O489 O 0.52249 0.04363 0.49232 0.0
O490 O 0.56676 0.07736 0.49583 0.0
O491 O 0.61731 0.07611 0.55621 0.0
O492 O 0.61089 0.03005 0.5662 0.0
C493 C 0.51988 0.98743 0.58652 0.0
O494 O 0.54463 0.98729 0.58066 0.0
O495 O 0.50406 0.9989 0.57135 0.0
O496 O 0.62922 0.95059 0.543 0.0
O497 O 0.58459 0.91643 0.53913 0.0
O498 O 0.61312 0.96877 0.59571 0.0
C499 C 0.61229 0.92511 0.5375 0.0
O500 O 0.56805 0.93681 0.59474 0.0
O501 O 0.5163 0.93688 0.5329 0.0
C502 C 0.59292 0.94988 0.60706 0.0
O503 O 0.52366 0.98275 0.52137 0.0
O504 O 0.59049 0.02587 0.50678 0.0
O505 O 0.63052 0.01343 0.51635 0.0
H506 H 0.19663 0.21587 0.29001 0.0
H507 H 0.16148 0.18242 0.31683 0.0
H508 H 0.23238 0.16658 0.36594 0.0
H509 H 0.26795 0.2003 0.33921 0.0
H510 H 0.1507 0.12355 0.33187 0.0
H511 H 0.18847 0.19602 0.41529 0.0
H512 H 0.19778 0.20761 0.38273 0.0
H513 H 0.21679 0.18728 0.40248 0.0
C514 C 0.20483 0.20509 0.30636 0.0
C515 C 0.23516 0.21097 0.31263 0.0
C516 C 0.18465 0.18591 0.32162 0.0
C517 C 0.19435 0.17237 0.34356 0.0
C518 C 0.2245 0.17715 0.34925 0.0
H519 H 0.1075 0.03952 0.44811 0.0
H520 H 0.13152 0.06721 0.41143 0.0
C521 C 0.24478 0.19628 0.33388 0.0
C522 C 0.17296 0.15443 0.36113 0.0
H523 H 0.15351 0.15054 0.4227 0.0
C524 C 0.15124 0.12943 0.35172 0.0
C525 C 0.17329 0.16255 0.38679 0.0
C526 C 0.19513 0.18994 0.39745 0.0
C527 C 0.13047 0.11179 0.36768 0.0
C528 C 0.1316 0.11935 0.39365 0.0
C529 C 0.15272 0.1448 0.40276 0.0
C530 C 0.11267 0.10028 0.41244 0.0
C531 C 0.10744 0.08525 0.35672 0.0
C532 C 0.09365 0.10942 0.42489 0.0
C533 C 0.07982 0.09355 0.44591 0.0
C534 C 0.08507 0.06849 0.4549 0.0
C535 C 0.10296 0.05871 0.44152 0.0
C536 C 0.11659 0.07443 0.42047 0.0
H537 H 0.10488 0.08609 0.33511 0.0
H538 H 0.11396 0.06655 0.3633 0.0
H539 H 0.08591 0.08202 0.36376 0.0
H540 H 0.09057 0.12947 0.41912 0.0
H541 H 0.06686 0.10199 0.4562 0.0
H542 H 0.94198 0.18307 0.259 0.0
H543 H 0.96813 0.14921 0.26969 0.0
H544 H 0.90652 0.10637 0.32507 0.0
H545 H 0.87992 0.1386 0.31333 0.0
H546 H 0.99828 0.14762 0.30985 0.0
H547 H 0.92254 0.03977 0.30905 0.0
H548 H 0.91216 0.06742 0.29074 0.0
H549 H 0.90272 0.05758 0.32368 0.0
C550 C 0.93349 0.16558 0.27263 0.0
C551 C 0.90898 0.16342 0.28538 0.0
C552 C 0.94841 0.14623 0.27875 0.0
C553 C 0.93934 0.1248 0.29807 0.0
C554 C 0.9136 0.1217 0.30936 0.0
H555 H 1.01179 0.13046 0.43778 0.0
H556 H 1.00604 0.13559 0.39065 0.0
C557 C 0.89841 0.1405 0.30284 0.0
C558 C 0.95937 0.11009 0.31089 0.0
H559 H 0.95238 0.05472 0.35419 0.0
C560 C 0.98856 0.12674 0.31875 0.0
C561 C 0.94828 0.08208 0.32142 0.0
C562 C 0.9198 0.06072 0.31036 0.0
C563 C 1.00429 0.11836 0.34031 0.0
C564 C 0.98973 0.09384 0.35511 0.0
C565 C 0.96313 0.07458 0.34405 0.0
C566 C 0.998 0.09112 0.38351 0.0
C567 C 0.03557 0.13685 0.34792 0.0
C568 C 0.99456 0.06435 0.39567 0.0
C569 C 0.9962 0.06125 0.42276 0.0
C570 C 1.00209 0.08498 0.43813 0.0
C571 C 1.00723 0.11192 0.42622 0.0
C572 C 1.00455 0.11487 0.39918 0.0
H573 H 0.0476 0.1432 0.33037 0.0
H574 H 0.03591 0.15672 0.35637 0.0
H575 H 0.0473 0.12583 0.36211 0.0
H576 H 0.98951 0.04565 0.38422 0.0
H577 H 0.99269 0.04029 0.43171 0.0
H578 H 0.76626 0.82566 0.34855 0.0
H579 H 0.77859 0.86269 0.38087 0.0
H580 H 0.86457 0.90052 0.35443 0.0
H581 H 0.8518 0.86498 0.32153 0.0
H582 H 0.81433 0.87224 0.42022 0.0
H583 H 0.85112 0.9714 0.36347 0.0
H584 H 0.83079 0.9382 0.34782 0.0
H585 H 0.87043 0.95027 0.35317 0.0
C586 C 0.78759 0.84226 0.34945 0.0
C587 C 0.80806 0.84254 0.3325 0.0
C588 C 0.79456 0.86348 0.36781 0.0
C589 C 0.82224 0.88508 0.3697 0.0
C590 C 0.84257 0.88512 0.3527 0.0
H591 H 0.9477 0.92367 0.48191 0.0
H592 H 0.90082 0.90639 0.45644 0.0
C593 C 0.83541 0.86442 0.33408 0.0
C594 C 0.83196 0.90518 0.39149 0.0
H595 H 0.8831 0.97002 0.4056 0.0
C596 C 0.82849 0.89399 0.41697 0.0
C597 C 0.84923 0.93415 0.38781 0.0
C598 C 0.85018 0.94915 0.36151 0.0
C599 C 0.84546 0.90946 0.43832 0.0
C600 C 0.86731 0.93607 0.43389 0.0
C601 C 0.86728 0.94908 0.40902 0.0
C602 C 0.89392 0.94701 0.45258 0.0
C603 C 0.84123 0.89619 0.46522 0.0
C604 C 0.90646 0.97598 0.45852 0.0
C605 C 0.93411 0.98625 0.47288 0.0
C606 C 0.94969 0.96774 0.48122 0.0
C607 C 0.93654 0.9387 0.47581 0.0
C608 C 0.90926 0.92858 0.46154 0.0
H609 H 0.81751 0.8853 0.46716 0.0
H610 H 0.85187 0.87976 0.46838 0.0
H611 H 0.8506 0.91224 0.48055 0.0
H612 H 0.89526 0.99072 0.45146 0.0
H613 H 0.94359 0.00871 0.47662 0.0
H614 H 0.25433 0.88702 0.36081 0.0
H615 H 0.24078 0.90619 0.39754 0.0
H616 H 0.16947 0.92104 0.34808 0.0
H617 H 0.18343 0.90247 0.31109 0.0
H618 H 0.19791 0.96457 0.38135 0.0
H619 H 0.17047 0.86027 0.435 0.0
H620 H 0.20755 0.87454 0.42686 0.0
H621 H 0.17775 0.86434 0.40141 0.0
C622 C 0.23587 0.89455 0.35779 0.0
C623 C 0.21965 0.89298 0.33326 0.0
C624 C 0.22811 0.90539 0.37877 0.0
C625 C 0.2037 0.91438 0.37567 0.0
C626 C 0.1883 0.91404 0.3509 0.0
H627 H 0.08566 0.92241 0.47863 0.0
H628 H 0.11469 0.91 0.4497 0.0
C629 C 0.19627 0.9035 0.3298 0.0
C630 C 0.19341 0.92305 0.39836 0.0
H631 H 0.1656 0.89826 0.45612 0.0
C632 C 0.19103 0.95019 0.39781 0.0
C633 C 0.18423 0.90408 0.41968 0.0
C634 C 0.18484 0.87409 0.42078 0.0
C635 C 0.17908 0.95869 0.41773 0.0
C636 C 0.16993 0.93972 0.43905 0.0
C637 C 0.17298 0.91285 0.4399 0.0
C638 C 0.15401 0.94603 0.45904 0.0
C639 C 0.17505 0.98734 0.41513 0.0
C640 C 0.16686 0.96983 0.47471 0.0
C641 C 0.1502 0.97718 0.49127 0.0
C642 C 0.12046 0.96069 0.49251 0.0
C643 C 0.10837 0.93581 0.47804 0.0
C644 C 0.12496 0.9286 0.46147 0.0
H645 H 0.17768 0.99676 0.39515 0.0
H646 H 0.15302 0.98559 0.42011 0.0
H647 H 0.19173 1.00219 0.42877 0.0
H648 H 0.1895 0.98317 0.47357 0.0
H649 H 0.16031 0.99636 0.50228 0.0
H650 H 0.24118 0.95774 0.75773 0.0
H651 H 0.21791 0.9904 0.73528 0.0
H652 H 0.21768 0.95433 0.66199 0.0
H653 H 0.24179 0.92298 0.68393 0.0
H654 H 0.21956 0.00746 0.65452 0.0
H655 H 0.13206 0.95002 0.71852 0.0
H656 H 0.16629 0.97282 0.73389 0.0
H657 H 0.16461 0.94086 0.71896 0.0
C658 C 0.23715 0.9577 0.73671 0.0
C659 C 0.24272 0.93748 0.72259 0.0
C660 C 0.22367 0.97616 0.72395 0.0
C661 C 0.21494 0.97394 0.69713 0.0
C662 C 0.22392 0.95629 0.68275 0.0
H663 H 0.06714 0.93392 0.59735 0.0
H664 H 0.10625 0.94156 0.63319 0.0
C665 C 0.23784 0.93833 0.69535 0.0
C666 C 0.19233 0.98535 0.68432 0.0
H667 H 0.11832 0.97083 0.68015 0.0
C668 C 0.19756 1.00022 0.66043 0.0
C669 C 0.16355 0.97567 0.69209 0.0
C670 C 0.15608 0.95884 0.71716 0.0
C671 C 0.17438 1.00281 0.64284 0.0
C672 C 0.14546 0.99149 0.64997 0.0
C673 C 0.14061 0.9794 0.6749 0.0
C674 C 0.11979 0.98756 0.63049 0.0
C675 C 0.18066 0.01501 0.61589 0.0
C676 C 0.11388 0.01088 0.61779 0.0
C677 C 0.0916 0.0065 0.59727 0.0
C678 C 0.07502 0.97882 0.58922 0.0
C679 C 0.07975 0.95547 0.60303 0.0
C680 C 0.10205 0.95984 0.62349 0.0
H681 H 0.2039 0.01968 0.61252 0.0
H682 H 0.16635 1.00006 0.60098 0.0
H683 H 0.17582 0.03506 0.61312 0.0
H684 H 0.1269 0.03239 0.62333 0.0
H685 H 0.08765 0.02476 0.58738 0.0
H686 H 0.21711 0.19118 0.74617 0.0
H687 H 0.19555 0.1567 0.71187 0.0
H688 H 0.28112 0.17432 0.68641 0.0
H689 H 0.30252 0.20952 0.72006 0.0
H690 H 0.2458 0.18432 0.64866 0.0
H691 H 0.18826 0.07889 0.69129 0.0
H692 H 0.17782 0.10524 0.70516 0.0
H693 H 0.21544 0.10659 0.71038 0.0
C694 C 0.23141 0.1869 0.73385 0.0
C695 C 0.26133 0.20318 0.73546 0.0
C696 C 0.21913 0.16705 0.71433 0.0
C697 C 0.23675 0.16281 0.69659 0.0
C698 C 0.26711 0.17724 0.69983 0.0
H699 H 0.12802 0.06036 0.56755 0.0
H700 H 0.17077 0.07752 0.59933 0.0
C701 C 0.27929 0.19737 0.71902 0.0
C702 C 0.22291 0.14794 0.67214 0.0
H703 H 0.16683 0.09011 0.64834 0.0
C704 C 0.22908 0.16336 0.64858 0.0
C705 C 0.20151 0.12041 0.6718 0.0
C706 C 0.19566 0.10175 0.69605 0.0
C707 C 0.21267 0.15308 0.62506 0.0
C708 C 0.18906 0.12705 0.62524 0.0
C709 C 0.18461 0.1104 0.64833 0.0
C710 C 0.16657 0.1185 0.60274 0.0
C711 C 0.22012 0.1707 0.60043 0.0
C712 C 0.15065 0.13635 0.59349 0.0
C713 C 0.12637 0.12682 0.57509 0.0
C714 C 0.11716 0.09899 0.56592 0.0
C715 C 0.13411 0.08171 0.57426 0.0
C716 C 0.15859 0.09142 0.59252 0.0
H717 H 0.24391 0.18331 0.60151 0.0
H718 H 0.21407 0.1572 0.58311 0.0
H719 H 0.20798 0.18593 0.59785 0.0
H720 H 0.15605 0.15717 0.6015 0.0
H721 H 0.1139 0.14077 0.56922 0.0
H722 H 0.93165 0.19553 0.74249 0.0
H723 H 0.9401 0.17394 0.7045 0.0
H724 H 0.86402 0.18647 0.66136 0.0
H725 H 0.8559 0.20856 0.69899 0.0
H726 H 0.90789 0.12797 0.67731 0.0
H727 H 0.92479 0.22401 0.61262 0.0
H728 H 0.92299 0.22482 0.64707 0.0
H729 H 0.88987 0.21187 0.62534 0.0
C730 C 0.91675 0.19359 0.72489 0.0
C731 C 0.89344 0.20411 0.72351 0.0
C732 C 0.92156 0.1813 0.70321 0.0
C733 C 0.90304 0.17914 0.67987 0.0
C734 C 0.87908 0.18865 0.67886 0.0
H735 H 0.91688 0.07441 0.5555 0.0
H736 H 0.89566 0.09352 0.58715 0.0
C737 C 0.87445 0.20121 0.70039 0.0
C738 C 0.9089 0.167 0.65663 0.0
H739 H 0.92307 0.182 0.59328 0.0
C740 C 0.91115 0.13974 0.6589 0.0
C741 C 0.91335 0.18249 0.63266 0.0
C742 C 0.91292 0.21251 0.62927 0.0
C743 C 0.91819 0.12771 0.63807 0.0
C744 C 0.92227 0.14304 0.614 0.0
C745 C 0.91953 0.17011 0.6116 0.0
C746 C 0.93253 0.13278 0.59205 0.0
C747 C 0.92247 0.09925 0.64245 0.0
C748 C 0.95934 0.14926 0.583 0.0
C749 C 0.97124 0.13868 0.56462 0.0
C750 C 0.95667 0.11124 0.55492 0.0
C751 C 0.92882 0.09552 0.56267 0.0
C752 C 0.91679 0.10628 0.581 0.0
H753 H 0.92513 0.09348 0.66347 0.0
H754 H 0.90298 0.0825 0.63325 0.0
H755 H 0.94204 0.09924 0.63359 0.0
H756 H 0.97179 0.16987 0.59103 0.0
H757 H 0.9926 0.15158 0.55899 0.0
H758 H 0.87095 0.79716 0.72639 0.0
H759 H 0.90647 0.83046 0.69972 0.0
H760 H 0.88738 0.90044 0.72786 0.0
H761 H 0.85241 0.86745 0.75504 0.0
H762 H 0.89206 0.86207 0.66085 0.0
H763 H 0.97545 0.93349 0.73041 0.0
H764 H 0.94979 0.89981 0.74042 0.0
H765 H 0.93905 0.9309 0.73579 0.0
C766 C 0.87471 0.81969 0.7273 0.0
C767 C 0.85873 0.82964 0.74275 0.0
C768 C 0.89508 0.8387 0.71208 0.0
C769 C 0.89988 0.86798 0.71204 0.0
C770 C 0.88464 0.87804 0.72808 0.0
H771 H 0.93416 0.98899 0.58751 0.0
H772 H 0.91649 0.95604 0.6235 0.0
C773 C 0.86441 0.85908 0.74344 0.0
C774 C 0.91784 0.88752 0.69289 0.0
H775 H 0.97178 0.95195 0.68614 0.0
C776 C 0.90983 0.88146 0.66645 0.0
C777 C 0.94123 0.91269 0.70017 0.0
C778 C 0.95209 0.91946 0.72827 0.0
C779 C 0.92353 0.90055 0.64707 0.0
C780 C 0.94544 0.92662 0.65431 0.0
C781 C 0.95463 0.9321 0.68071 0.0
C782 C 0.95758 0.94892 0.63454 0.0
C783 C 0.91403 0.89292 0.61893 0.0
C784 C 0.98695 0.95672 0.62962 0.0
C785 C 0.99727 0.97575 0.60902 0.0
C786 C 0.97831 0.98719 0.5931 0.0
C787 C 0.94933 0.98039 0.59912 0.0
C788 C 0.93911 0.96148 0.61966 0.0
H789 H 0.90306 0.8696 0.6168 0.0
H790 H 0.89819 0.9035 0.61079 0.0
H791 H 0.93304 0.90025 0.60727 0.0
H792 H 1.00158 0.94737 0.64111 0.0
H793 H 1.0198 0.98085 0.60518 0.0
H794 H 0.37281 0.24694 0.25268 0.0
H795 H 0.39548 0.22325 0.22638 0.0
H796 H 0.31261 0.18675 0.18049 0.0
H797 H 0.2903 0.21161 0.20599 0.0
H798 H 0.39465 0.17473 0.21723 0.0
H799 H 0.35616 0.20876 0.12036 0.0
H800 H 0.35079 0.22277 0.14965 0.0
H801 H 0.32585 0.18891 0.13801 0.0
C802 C 0.35925 0.23408 0.23686 0.0
C803 C 0.32937 0.23185 0.23176 0.0
C804 C 0.37244 0.22023 0.22159 0.0
C805 C 0.35658 0.20319 0.20031 0.0
C806 C 0.32644 0.20034 0.19569 0.0
H807 H 0.4032 0.09351 0.0936 0.0
H808 H 0.37761 0.1154 0.11924 0.0
C809 C 0.31332 0.21452 0.21076 0.0
C810 C 0.37139 0.18822 0.18382 0.0
H811 H 0.37761 0.17274 0.12109 0.0
C812 C 0.39083 0.17468 0.19619 0.0
C813 C 0.36725 0.18744 0.15601 0.0
C814 C 0.34915 0.20299 0.14021 0.0
C815 C 0.40526 0.16064 0.18226 0.0
C816 C 0.40082 0.15961 0.15458 0.0
C817 C 0.38131 0.17291 0.14214 0.0
C818 C 0.41672 0.14565 0.13843 0.0
C819 C 0.42491 0.1464 0.1976 0.0
C820 C 0.44767 0.15486 0.13975 0.0
C821 C 0.46245 0.14245 0.12475 0.0
C822 C 0.44722 0.11985 0.10769 0.0
C823 C 0.41619 0.11051 0.10641 0.0
C824 C 0.40135 0.12328 0.12119 0.0
H825 H 0.42013 0.14217 0.21819 0.0
H826 H 0.42253 0.12598 0.1889 0.0
H827 H 0.44807 0.16056 0.1974 0.0
H828 H 0.46068 0.17219 0.1522 0.0
H829 H 0.48619 0.15079 0.12658 0.0
H830 H 0.79748 0.34453 0.21827 0.0
H831 H 0.82793 0.38055 0.18968 0.0
H832 H 0.90572 0.37982 0.23844 0.0
H833 H 0.8755 0.34358 0.26711 0.0
H834 H 0.87056 0.4357 0.20054 0.0
H835 H 0.91967 0.36165 0.16542 0.0
H836 H 0.88729 0.34918 0.18251 0.0
H837 H 0.92271 0.36519 0.20003 0.0
C838 C 0.82104 0.35218 0.2231 0.0
C839 C 0.83402 0.34098 0.24492 0.0
C840 C 0.83842 0.37277 0.20672 0.0
C841 C 0.86909 0.38247 0.2117 0.0
C842 C 0.88211 0.37223 0.234 0.0
H843 H 0.9923 0.49197 0.10481 0.0
H844 H 0.97358 0.46358 0.14358 0.0
C845 C 0.86475 0.35166 0.25046 0.0
C846 C 0.88723 0.40279 0.19308 0.0
H847 H 0.93338 0.40799 0.14698 0.0
C848 C 0.88449 0.42975 0.18898 0.0
C849 C 0.90563 0.39506 0.17821 0.0
C850 C 0.90898 0.36615 0.18152 0.0
C851 C 0.89904 0.44893 0.16994 0.0
C852 C 0.91626 0.44067 0.15417 0.0
C853 C 0.92008 0.41422 0.15904 0.0
C854 C 0.9281 0.45802 0.13105 0.0
C855 C 0.89561 0.4778 0.16672 0.0
C856 C 0.90874 0.46379 0.11099 0.0
C857 C 0.91931 0.4797 0.08891 0.0
C858 C 0.94951 0.48998 0.08619 0.0
C859 C 0.96892 0.48397 0.10618 0.0
C860 C 0.95828 0.46796 0.12839 0.0
H861 H 0.89032 0.48429 0.18503 0.0
H862 H 0.91584 0.49431 0.16068 0.0
H863 H 0.87726 0.47691 0.15152 0.0
H864 H 0.88532 0.45572 0.1123 0.0
H865 H 0.90368 0.48367 0.07381 0.0
H866 H 0.70901 0.82311 0.26435 0.0
H867 H 0.68102 0.85137 0.24067 0.0
H868 H 0.73811 0.87055 0.17992 0.0
H869 H 0.76611 0.84249 0.20352 0.0
H870 H 0.69134 0.90703 0.22473 0.0
H871 H 0.66156 0.84651 0.1345 0.0
H872 H 0.67751 0.83396 0.16399 0.0
H873 H 0.70042 0.86056 0.1433 0.0
C874 C 0.71577 0.83318 0.2459 0.0
C875 C 0.74035 0.82976 0.2363 0.0
C876 C 0.6995 0.8497 0.23214 0.0
C877 C 0.70638 0.86344 0.20765 0.0
C878 C 0.73108 0.86016 0.19817 0.0
H879 H 0.57168 0.92425 0.11019 0.0
H880 H 0.59962 0.8972 0.13553 0.0
C881 C 0.74754 0.84395 0.21204 0.0
C882 C 0.68823 0.88109 0.19243 0.0
H883 H 0.65085 0.88934 0.1327 0.0
C884 C 0.68266 0.90294 0.20458 0.0
C885 C 0.67583 0.87649 0.16594 0.0
C886 C 0.67881 0.85296 0.15116 0.0
C887 C 0.66636 0.91993 0.19147 0.0
C888 C 0.65458 0.91577 0.16479 0.0
C889 C 0.65962 0.89351 0.15282 0.0
C890 C 0.63662 0.93347 0.14933 0.0
C891 C 0.6613 0.94191 0.20685 0.0
C892 C 0.64695 0.96374 0.14764 0.0
C893 C 0.63068 0.97961 0.13275 0.0
C894 C 0.60287 0.96627 0.11873 0.0
C895 C 0.59249 0.93603 0.12065 0.0
C896 C 0.60888 0.9202 0.13526 0.0
H897 H 0.66383 0.93726 0.22811 0.0
H898 H 0.67769 0.96306 0.20283 0.0
H899 H 0.63906 0.9431 0.20133 0.0
H900 H 0.66825 0.9754 0.15734 0.0
H901 H 0.64035 1.00258 0.13185 0.0
H902 H 0.24517 0.76578 0.18493 0.0
H903 H 0.21781 0.73381 0.14958 0.0
H904 H 0.23683 0.66397 0.1917 0.0
H905 H 0.26397 0.69533 0.22689 0.0
H906 H 0.23671 0.69027 0.12019 0.0
H907 H 0.14327 0.64479 0.18044 0.0
H908 H 0.17025 0.67972 0.18579 0.0
H909 H 0.17954 0.64863 0.19559 0.0
C910 C 0.24386 0.74372 0.18649 0.0
C911 C 0.25647 0.73309 0.2089 0.0
C912 C 0.22831 0.72554 0.16629 0.0
C913 C 0.22523 0.69657 0.16823 0.0
C914 C 0.23889 0.68624 0.18996 0.0
H915 H 0.0915 0.55908 0.08233 0.0
H916 H 0.13591 0.58268 0.11115 0.0
C917 C 0.25434 0.70428 0.21008 0.0
C918 C 0.20576 0.67654 0.14872 0.0
H919 H 0.13796 0.62589 0.13931 0.0
C920 C 0.21515 0.67608 0.1243 0.0
C921 C 0.17793 0.65779 0.15441 0.0
C922 C 0.1669 0.65767 0.1804 0.0
C923 C 0.19705 0.65753 0.10516 0.0
C924 C 0.16866 0.63952 0.11048 0.0
C925 C 0.15977 0.63949 0.13525 0.0
C926 C 0.14638 0.62319 0.09001 0.0
C927 C 0.20856 0.65741 0.07948 0.0
C928 C 0.13816 0.63775 0.06804 0.0
C929 C 0.11303 0.62433 0.05158 0.0
C930 C 0.0953 0.59615 0.0569 0.0
C931 C 0.10473 0.58079 0.0777 0.0
C932 C 0.13002 0.5943 0.09424 0.0
H933 H 0.23281 0.66321 0.08188 0.0
H934 H 0.19872 0.63629 0.07044 0.0
H935 H 0.20317 0.67351 0.066 0.0
H936 H 0.14993 0.66014 0.0646 0.0
H937 H 0.1065 0.63671 0.0356 0.0
H938 H 0.33011 0.7989 0.87175 0.0
H939 H 0.35307 0.83191 0.90711 0.0
H940 H 0.34414 0.90145 0.85706 0.0
H941 H 0.32054 0.8685 0.82184 0.0
H942 H 0.40294 0.87606 0.91065 0.0
H943 H 0.31283 0.91669 0.92038 0.0
H944 H 0.30757 0.88609 0.90146 0.0
H945 H 0.32386 0.92146 0.88812 0.0
C946 C 0.33276 0.82117 0.86827 0.0
C947 C 0.32323 0.83085 0.84382 0.0
C948 C 0.34597 0.84012 0.88858 0.0
C949 C 0.35001 0.86931 0.88513 0.0
C950 C 0.34065 0.87904 0.86068 0.0
H951 H 0.45317 0.01476 0.98291 0.0
H952 H 0.41977 0.98534 0.94823 0.0
C953 C 0.3273 0.86009 0.84038 0.0
C954 C 0.3653 0.88955 0.90669 0.0
H955 H 0.35895 0.94071 0.94397 0.0
C956 C 0.39314 0.89004 0.91794 0.0
C957 C 0.35283 0.90812 0.91634 0.0
C958 C 0.32252 0.90794 0.90614 0.0
C959 C 0.40877 0.90843 0.93819 0.0
C960 C 0.39627 0.92684 0.94793 0.0
C961 C 0.3686 0.92669 0.93657 0.0
C962 C 0.41161 0.94561 0.97035 0.0
C963 C 0.43886 0.90825 0.94886 0.0
C964 C 0.41675 0.93346 0.99488 0.0
C965 C 0.43556 0.95021 0.01473 0.0
C966 C 0.44971 0.97966 0.01068 0.0
C967 C 0.44239 0.99228 0.98691 0.0
C968 C 0.42351 0.97538 0.96692 0.0
H969 H 0.44814 0.898 0.93553 0.0
H970 H 0.45424 0.93024 0.95235 0.0
H971 H 0.43734 0.89616 0.96772 0.0
H972 H 0.40751 0.91066 0.99823 0.0
H973 H 0.4407 0.93973 0.03272 0.0
H974 H 0.17038 0.29413 0.90873 0.0
H975 H 0.15075 0.32179 0.93352 0.0
H976 H 0.15394 0.38072 0.86828 0.0
H977 H 0.17237 0.35248 0.84289 0.0
H978 H 0.17444 0.3774 0.94809 0.0
H979 H 0.06983 0.35962 0.88496 0.0
H980 H 0.09347 0.33937 0.88229 0.0
H981 H 0.10196 0.37471 0.86809 0.0
C982 C 0.16646 0.3127 0.89945 0.0
C983 C 0.17268 0.32086 0.87367 0.0
C984 C 0.15551 0.32866 0.91377 0.0
C985 C 0.1505 0.3531 0.90265 0.0
C986 C 0.15712 0.36163 0.8771 0.0
H987 H 0.11652 0.48039 0.9893 0.0
H988 H 0.13971 0.45506 0.96536 0.0
C989 C 0.16797 0.34561 0.8627 0.0
C990 C 0.13841 0.36961 0.91791 0.0
H991 H 0.08027 0.39238 0.91862 0.0
C992 C 0.15384 0.38069 0.94168 0.0
C993 C 0.11138 0.3736 0.90964 0.0
C994 C 0.09301 0.36099 0.88498 0.0
C995 C 0.14299 0.39569 0.95738 0.0
C996 C 0.11625 0.40016 0.94884 0.0
C997 C 0.10086 0.38909 0.92507 0.0
C998 C 0.10315 0.41535 0.96457 0.0
C999 C 0.15987 0.40592 0.98327 0.0
C1000 C 0.07481 0.40158 0.97187 0.0
C1001 C 0.06139 0.41605 0.98527 0.0
C1002 C 0.07604 0.44468 0.99172 0.0
C1003 C 0.10471 0.4583 0.98486 0.0
C1004 C 0.11806 0.44381 0.97125 0.0
H1005 H 0.17543 0.3945 0.98988 0.0
H1006 H 0.17275 0.42892 0.98139 0.0
H1007 H 0.1448 0.40308 0.99843 0.0
H1008 H 0.06289 0.37964 0.96693 0.0
H1009 H 0.03935 0.40484 0.99029 0.0
H1010 H 0.75416 0.20296 0.84039 0.0
H1011 H 0.72037 0.17639 0.87194 0.0
H1012 H 0.67215 0.23433 0.8567 0.0
H1013 H 0.70547 0.2607 0.82491 0.0
H1014 H 0.7084 0.19305 0.91686 0.0
H1015 H 0.60579 0.15902 0.84987 0.0
H1016 H 0.64153 0.17387 0.83831 0.0
H1017 H 0.6246 0.19678 0.84984 0.0
C1018 C 0.73629 0.21001 0.8436 0.0
C1019 C 0.73263 0.234 0.82982 0.0
C1020 C 0.71691 0.19475 0.86174 0.0
C1021 C 0.69318 0.20288 0.86656 0.0
C1022 C 0.68967 0.227 0.85302 0.0
H1023 H 0.56424 0.1284 0.98326 0.0
H1024 H 0.59072 0.15975 0.94861 0.0
C1025 C 0.709 0.24225 0.83487 0.0
C1026 C 0.67291 0.18667 0.88635 0.0
H1027 H 0.60105 0.14829 0.89474 0.0
C1028 C 0.68494 0.18335 0.91192 0.0
C1029 C 0.6421 0.17406 0.88023 0.0
C1030 C 0.62769 0.17583 0.85304 0.0
C1031 C 0.66735 0.16778 0.93125 0.0
C1032 C 0.6367 0.1546 0.92501 0.0
C1033 C 0.62445 0.15845 0.89966 0.0
C1034 C 0.61795 0.13464 0.94399 0.0
C1035 C 0.68182 0.16545 0.95834 0.0
C1036 C 0.62343 0.10956 0.95219 0.0
C1037 C 0.60842 0.0918 0.97168 0.0
C1038 C 0.58719 0.09833 0.98366 0.0
C1039 C 0.58031 0.12261 0.97444 0.0
C1040 C 0.59558 0.14062 0.95474 0.0
H1041 H 0.7033 0.18277 0.96192 0.0
H1042 H 0.66758 0.16612 0.97325 0.0
H1043 H 0.68575 0.14485 0.9608 0.0
H1044 H 0.64003 0.10403 0.94395 0.0
H1045 H 0.61415 0.07314 0.97793 0.0
H1046 H 0.86984 0.76831 0.84246 0.0
H1047 H 0.90111 0.74291 0.86476 0.0
H1048 H 0.86096 0.67343 0.81257 0.0
H1049 H 0.8299 0.69861 0.79005 0.0
H1050 H 0.88091 0.69013 0.8899 0.0
H1051 H 0.94853 0.68659 0.81258 0.0
H1052 H 0.92821 0.7108 0.81099 0.0
H1053 H 0.90981 0.67423 0.80262 0.0
C1054 C 0.8679 0.74779 0.83551 0.0
C1055 C 0.84727 0.73552 0.81448 0.0
C1056 C 0.88581 0.73331 0.84827 0.0
C1057 C 0.88367 0.70646 0.84008 0.0
C1058 C 0.86345 0.69438 0.81887 0.0
H1059 H 0.92339 0.57252 0.93146 0.0
H1060 H 0.90332 0.60004 0.89865 0.0
C1061 C 0.8455 0.70875 0.80617 0.0
C1062 C 0.9007 0.68999 0.85504 0.0
H1063 H 0.94917 0.65557 0.84978 0.0
C1064 C 0.89602 0.68281 0.88117 0.0
C1065 C 0.92051 0.68052 0.84364 0.0
C1066 C 0.92733 0.68863 0.81598 0.0
C1067 C 0.90996 0.6658 0.89602 0.0
C1068 C 0.9289 0.65547 0.88439 0.0
C1069 C 0.93432 0.66325 0.85849 0.0
C1070 C 0.94311 0.63664 0.89931 0.0
C1071 C 0.90426 0.65886 0.92411 0.0
C1072 C 0.97268 0.64751 0.90932 0.0
C1073 C 0.98434 0.63181 0.92814 0.0
C1074 C 0.96647 0.60507 0.93728 0.0
C1075 C 0.93771 0.59315 0.92516 0.0
C1076 C 0.92613 0.60886 0.9064 0.0
H1077 H 0.89337 0.67255 0.9314 0.0
H1078 H 0.8898 0.63635 0.92605 0.0
H1079 H 0.92509 0.66143 0.93663 0.0
H1080 H 0.98615 0.66888 0.90394 0.0
H1081 H 1.00664 0.64157 0.93686 0.0
H1082 H 0.094 0.28188 0.20529 0.0
H1083 H 0.06046 0.3088 0.19408 0.0
H1084 H 0.13194 0.387 0.21164 0.0
H1085 H 0.16481 0.36005 0.22432 0.0
H1086 H 0.08206 0.39163 0.22246 0.0
H1087 H 0.06636 0.34712 0.1241 0.0
H1088 H 0.0533 0.32102 0.14929 0.0
H1089 H 0.09193 0.34076 0.14969 0.0
C1090 C 0.10219 0.30474 0.20734 0.0
C1091 C 0.1319 0.31903 0.21536 0.0
C1092 C 0.08315 0.32011 0.20083 0.0
C1093 C 0.09392 0.34999 0.20123 0.0
C1094 C 0.12313 0.36399 0.21106 0.0
H1095 H 0.07941 0.48889 0.11337 0.0
H1096 H 0.08775 0.45936 0.15091 0.0
C1097 C 0.14193 0.34861 0.21823 0.0
C1098 C 0.07638 0.36707 0.18841 0.0
H1099 H 0.04571 0.38166 0.12882 0.0
C1100 C 0.07369 0.38919 0.20208 0.0
C1101 C 0.06573 0.36407 0.1617 0.0
C1102 C 0.06966 0.34217 0.14524 0.0
C1103 C 0.06166 0.40898 0.18947 0.0
C1104 C 0.05185 0.40628 0.16274 0.0
C1105 C 0.05304 0.38337 0.14946 0.0
C1106 C 0.04379 0.42858 0.14689 0.0
C1107 C 0.06029 0.43311 0.20446 0.0
C1108 C 1.01592 0.42171 0.13303 0.0
C1109 C 1.01114 0.43839 0.11146 0.0
C1110 C 0.03428 0.46207 0.10328 0.0
C1111 C 0.06122 0.47066 0.11898 0.0
C1112 C 0.06597 0.45393 0.14061 0.0
H1113 H 0.06243 0.42875 0.22578 0.0
H1114 H 0.07851 0.45279 0.19993 0.0
H1115 H 0.03935 0.43707 0.19868 0.0
H1116 H 0.9986 0.40216 0.13756 0.0
H1117 H 0.98993 0.43141 0.10009 0.0
H1118 H 0.2348 0.68516 0.8257 0.0
H1119 H 0.19345 0.65399 0.84779 0.0
H1120 H 0.1499 0.71598 0.83306 0.0
H1121 H 0.19147 0.74761 0.81155 0.0
H1122 H 0.15055 0.69867 0.88252 0.0
H1123 H 0.11221 0.604 0.82167 0.0
H1124 H 0.15072 0.61374 0.83173 0.0
H1125 H 0.13711 0.63779 0.81101 0.0
C1126 C 0.21629 0.69203 0.8269 0.0
C1127 C 0.21648 0.71889 0.81698 0.0
C1128 C 0.19252 0.67407 0.83931 0.0
C1129 C 0.16831 0.68242 0.84161 0.0
C1130 C 0.16825 0.70903 0.83132 0.0
H1131 H 0.02975 0.59006 0.94331 0.0
H1132 H 0.0514 0.62021 0.90649 0.0
C1133 C 0.1921 0.7271 0.81913 0.0
C1134 C 0.14448 0.66454 0.85691 0.0
H1135 H 0.09976 0.59599 0.86628 0.0
C1136 C 0.13886 0.6764 0.87859 0.0
C1137 C 0.12903 0.63556 0.85161 0.0
C1138 C 0.13235 0.62214 0.82755 0.0
C1139 C 0.11986 0.65951 0.89618 0.0
C1140 C 0.10626 0.63013 0.8919 0.0
C1141 C 0.1104 0.61858 0.86944 0.0
C1142 C 0.09162 0.61058 0.91252 0.0
C1143 C 0.11591 0.67268 0.92014 0.0
C1144 C 0.10699 0.59511 0.92767 0.0
C1145 C 0.09499 0.57836 0.9488 0.0
C1146 C 0.06722 0.5766 0.95514 0.0
C1147 C 0.05135 0.59135 0.93926 0.0
C1148 C 0.06357 0.60841 0.91815 0.0
H1149 H 0.12848 0.69586 0.92079 0.0
H1150 H 0.09233 0.66943 0.92065 0.0
H1151 H 0.12314 0.66205 0.93784 0.0
H1152 H 0.1287 0.59663 0.92355 0.0
H1153 H 0.10781 0.56716 0.96038 0.0
H1154 H 0.36406 0.22508 0.80131 0.0
H1155 H 0.38967 0.20078 0.8331 0.0
H1156 H 0.34505 0.21682 0.89383 0.0
H1157 H 0.31873 0.24007 0.8621 0.0
H1158 H 0.42762 0.21436 0.87354 0.0
H1159 H 0.32972 0.13564 0.91114 0.0
H1160 H 0.32705 0.15819 0.883 0.0
H1161 H 0.33072 0.17116 0.91529 0.0
C1162 C 0.35943 0.22326 0.82139 0.0
C1163 C 0.33878 0.23451 0.82873 0.0
C1164 C 0.37429 0.20929 0.83977 0.0
C1165 C 0.36918 0.20596 0.86628 0.0
C1166 C 0.34903 0.2178 0.87365 0.0
H1167 H 0.4916 0.16677 0.9928 0.0
H1168 H 0.4668 0.18937 0.959 0.0
C1169 C 0.33399 0.2315 0.85529 0.0
C1170 C 0.38526 0.19086 0.8861 0.0
H1171 H 0.37538 0.14069 0.93627 0.0
C1172 C 0.41599 0.19817 0.88712 0.0
C1173 C 0.3707 0.16908 0.90391 0.0
C1174 C 0.33772 0.15782 0.90313 0.0
C1175 C 0.4322 0.18516 0.90526 0.0
C1176 C 0.4178 0.16443 0.92395 0.0
C1177 C 0.38701 0.15669 0.92255 0.0
C1178 C 0.43392 0.15033 0.94475 0.0
C1179 C 0.46468 0.19334 0.90351 0.0
C1180 C 0.42387 0.12053 0.94932 0.0
C1181 C 0.43796 0.10743 0.96918 0.0
C1182 C 0.46281 0.12352 0.98539 0.0
C1183 C 0.47299 0.1533 0.98069 0.0
C1184 C 0.45873 0.16641 0.961 0.0
H1185 H 0.47036 0.20124 0.8836 0.0
H1186 H 0.47671 0.2108 0.91702 0.0
H1187 H 0.47241 0.1751 0.90877 0.0
H1188 H 0.40488 0.10719 0.93751 0.0
H1189 H 0.42903 0.08455 0.97204 0.0
H1190 H 0.82299 0.32064 0.86213 0.0
H1191 H 0.82772 0.35648 0.89352 0.0
H1192 H 0.79126 0.40328 0.83449 0.0
H1193 H 0.78644 0.3676 0.80284 0.0
H1194 H 0.84693 0.43408 0.85982 0.0
H1195 H 0.77021 0.37866 0.93225 0.0
H1196 H 0.78858 0.35723 0.92059 0.0
H1197 H 0.76375 0.36926 0.89835 0.0
C1198 C 0.81573 0.33839 0.85584 0.0
C1199 C 0.80478 0.34146 0.82991 0.0
C1200 C 0.81801 0.35862 0.87389 0.0
C1201 C 0.80923 0.38216 0.86639 0.0
C1202 C 0.79773 0.38503 0.84068 0.0
H1203 H 0.91935 0.51682 0.96834 0.0
H1204 H 0.87377 0.49975 0.93928 0.0
C1205 C 0.79533 0.36475 0.82261 0.0
C1206 C 0.81661 0.40562 0.88452 0.0
H1207 H 0.81408 0.41626 0.94816 0.0
C1208 C 0.83919 0.43083 0.87893 0.0
C1209 C 0.8059 0.40136 0.90909 0.0
C1210 C 0.78054 0.37527 0.91541 0.0
C1211 C 0.85447 0.44993 0.89854 0.0
C1212 C 0.84617 0.4438 0.92417 0.0
C1213 C 0.82066 0.42076 0.92862 0.0
C1214 C 0.86775 0.45513 0.94686 0.0
C1215 C 0.88147 0.47441 0.89219 0.0
C1216 C 0.87788 0.4358 0.96254 0.0
C1217 C 0.90334 0.44541 0.97944 0.0
C1218 C 0.9195 0.47461 0.98085 0.0
C1219 C 0.9077 0.49416 0.9673 0.0
C1220 C 0.88175 0.48444 0.95056 0.0
H1221 H 0.88585 0.47466 0.87162 0.0
H1222 H 0.87858 0.49484 0.89555 0.0
H1223 H 0.90104 0.47319 0.90488 0.0
H1224 H 0.8674 0.41306 0.96025 0.0
H1225 H 0.91135 0.42973 0.99006 0.0
H1226 H 0.69593 0.85253 0.87647 0.0
H1227 H 0.66815 0.87373 0.89969 0.0
H1228 H 0.74787 0.92295 0.94432 0.0
H1229 H 0.77576 0.90131 0.92191 0.0
H1230 H 0.66733 0.87432 0.9573 0.0
H1231 H 0.70878 0.98187 0.91017 0.0
H1232 H 0.71012 0.95042 0.89608 0.0
H1233 H 0.73593 0.96636 0.92311 0.0
C1234 C 0.70758 0.86758 0.89145 0.0
C1235 C 0.73821 0.87526 0.89715 0.0
C1236 C 0.69165 0.87982 0.90457 0.0
C1237 C 0.70602 0.90018 0.92345 0.0
C1238 C 0.73644 0.90764 0.92948 0.0
H1239 H 0.65314 0.00521 0.01973 0.0
H1240 H 0.67984 0.98339 0.99595 0.0
C1241 C 0.75235 0.89529 0.91654 0.0
C1242 C 0.68922 0.91347 0.9371 0.0
H1243 H 0.67936 0.97665 0.94442 0.0
C1244 C 0.6698 0.89665 0.95443 0.0
C1245 C 0.69271 0.94264 0.93342 0.0
C1246 C 0.71284 0.96146 0.91457 0.0
C1247 C 0.65414 0.90835 0.9686 0.0
C1248 C 0.65739 0.93754 0.96477 0.0
C1249 C 0.67682 0.95431 0.94735 0.0
C1250 C 0.64097 0.95109 0.97874 0.0
C1251 C 0.63496 0.8895 0.9881 0.0
C1252 C 0.61019 0.94064 0.97657 0.0
C1253 C 0.59486 0.95294 0.99029 0.0
C1254 C 0.60995 0.97628 1.00622 0.0
C1255 C 0.64077 0.98727 1.00771 0.0
C1256 C 0.65609 0.9748 0.99411 0.0
H1257 H 0.64146 0.87064 0.99415 0.0
H1258 H 0.63594 0.90133 1.00572 0.0
H1259 H 0.6119 0.8817 0.97915 0.0
H1260 H 0.59797 0.92291 0.96427 0.0
H1261 H 0.57114 0.94407 0.98842 0.0
H1262 H 0.89698 0.73171 0.22003 0.0
H1263 H 0.90251 0.6965 0.19282 0.0
H1264 H 0.96251 0.76352 0.14971 0.0
H1265 H 0.95765 0.79899 0.17731 0.0
H1266 H 0.88627 0.69747 0.13877 0.0
H1267 H 1.00171 0.70223 0.16173 0.0
H1268 H 0.98305 0.71514 0.18335 0.0
H1269 H 0.99771 0.73648 0.1556 0.0
C1270 C 0.91224 0.73893 0.20542 0.0
C1271 C 0.92701 0.76812 0.20081 0.0
C1272 C 0.91512 0.71878 0.18976 0.0
C1273 C 0.93295 0.72748 0.16942 0.0
C1274 C 0.94894 0.75644 0.1656 0.0
H1275 H 0.97121 0.66426 0.03662 0.0
H1276 H 0.96072 0.69184 0.06865 0.0
C1277 C 0.94603 0.77665 0.18124 0.0
C1278 C 0.93241 0.70676 0.15044 0.0
H1279 H 0.97653 0.68041 0.12204 0.0
C1280 C 0.90587 0.69337 0.13527 0.0
C1281 C 0.95802 0.70154 0.14613 0.0
C1282 C 0.9867 0.71438 0.16272 0.0
C1283 C 0.90462 0.67583 0.11493 0.0
C1284 C 0.93052 0.67154 0.10999 0.0
C1285 C 0.95678 0.68408 0.12581 0.0
C1286 C 0.93154 0.65518 0.08786 0.0
C1287 C 0.87604 0.66296 0.09824 0.0
C1288 C 0.91745 0.62558 0.08746 0.0
C1289 C 0.92317 0.60975 0.06895 0.0
C1290 C 0.94339 0.62342 0.05104 0.0
C1291 C 0.95571 0.65323 0.05037 0.0
C1292 C 0.9498 0.66898 0.06863 0.0
H1293 H 0.8593 0.67225 0.1019 0.0
H1294 H 0.87951 0.66612 0.07731 0.0
H1295 H 0.86727 0.63972 0.10252 0.0
H1296 H 0.90353 0.6146 0.10238 0.0
H1297 H 0.91362 0.58676 0.06998 0.0
H1298 H 0.35927 0.86501 0.24125 0.0
H1299 H 0.40289 0.89333 0.22134 0.0
H1300 H 0.42549 0.81834 0.21451 0.0
H1301 H 0.38103 0.78928 0.23432 0.0
H1302 H 0.4636 0.90143 0.23457 0.0
H1303 H 0.41796 0.84975 0.1392 0.0
H1304 H 0.39489 0.84432 0.16508 0.0
H1305 H 0.42293 0.82848 0.16764 0.0
C1306 C 0.37345 0.85439 0.23568 0.0
C1307 C 0.36649 0.82485 0.23903 0.0
C1308 C 0.39858 0.87069 0.22452 0.0
C1309 C 0.41734 0.85789 0.21653 0.0
C1310 C 0.41111 0.82851 0.2205 0.0
H1311 H 0.53161 0.99221 0.12032 0.0
H1312 H 0.52307 0.95205 0.15152 0.0
C1313 C 0.38572 0.81201 0.23167 0.0
C1314 C 0.44132 0.87569 0.20165 0.0
H1315 H 0.45065 0.89653 0.13845 0.0
C1316 C 0.4618 0.89993 0.21361 0.0
C1317 C 0.43888 0.87345 0.17437 0.0
C1318 C 0.41753 0.84767 0.16064 0.0
C1319 C 0.47698 0.92359 0.19866 0.0
C1320 C 0.47159 0.92254 0.17138 0.0
C1321 C 0.45425 0.89706 0.15951 0.0
C1322 C 0.47842 0.94865 0.1551 0.0
C1323 C 0.49615 0.95056 0.2119 0.0
C1324 C 0.45618 0.96015 0.14743 0.0
C1325 C 0.46078 0.98292 0.12952 0.0
C1326 C 0.48774 0.99445 0.11905 0.0
C1327 C 0.51049 0.9837 0.12789 0.0
C1328 C 0.50577 0.96081 0.14572 0.0
H1329 H 0.50068 0.947 0.23315 0.0
H1330 H 0.51728 0.95938 0.20324 0.0
H1331 H 0.4851 0.96668 0.20879 0.0
H1332 H 0.43491 0.95083 0.15467 0.0
H1333 H 0.4429 0.99073 0.1232 0.0
H1334 H 0.81043 0.21545 0.21823 0.0
H1335 H 0.80076 0.19396 0.17529 0.0
H1336 H 0.72351 0.21792 0.15907 0.0
H1337 H 0.73263 0.23871 0.20158 0.0
H1338 H 0.7467 0.14904 0.16189 0.0
H1339 H 0.76091 0.237 0.0896 0.0
H1340 H 0.78141 0.24122 0.12152 0.0
H1341 H 0.74525 0.24389 0.11687 0.0
C1342 C 0.79162 0.21636 0.20526 0.0
C1343 C 0.772 0.22834 0.21322 0.0
C1344 C 0.78634 0.20437 0.18076 0.0
C1345 C 0.76193 0.2051 0.16384 0.0
C1346 C 0.74297 0.2179 0.17158 0.0
H1347 H 0.61124 0.15347 0.09798 0.0
H1348 H 0.66365 0.17642 0.10995 0.0
C1349 C 0.74788 0.2293 0.19606 0.0
C1350 C 0.75234 0.18838 0.14014 0.0
H1351 H 0.71458 0.19534 0.08203 0.0
C1352 C 0.74074 0.15878 0.14372 0.0
C1353 C 0.74535 0.20116 0.11631 0.0
C1354 C 0.75923 0.23259 0.11077 0.0
C1355 C 0.71774 0.14244 0.12638 0.0
C1356 C 0.70697 0.15633 0.1049 0.0
C1357 C 0.72246 0.18492 0.09888 0.0
C1358 C 0.67625 0.14429 0.09358 0.0
C1359 C 0.70255 0.11143 0.1332 0.0
C1360 C 0.6661 0.11901 0.07997 0.0
C1361 C 0.63606 0.1056 0.07356 0.0
C1362 C 0.61576 0.11742 0.08036 0.0
C1363 C 0.62624 0.14367 0.09262 0.0
C1364 C 0.6562 0.1569 0.09929 0.0
H1365 H 0.71329 0.10428 0.15115 0.0
H1366 H 0.67933 0.1076 0.13608 0.0
H1367 H 0.70272 0.09815 0.11701 0.0
H1368 H 0.68128 0.10924 0.07499 0.0
H1369 H 0.62903 0.08608 0.06335 0.0
H1370 H 0.73268 0.73456 0.8501 0.0
H1371 H 0.69671 0.69638 0.87234 0.0
H1372 H 0.66428 0.65231 0.80041 0.0
H1373 H 0.70035 0.69062 0.77771 0.0
H1374 H 0.61952 0.65411 0.83769 0.0
H1375 H 0.70961 0.61579 0.88029 0.0
H1376 H 0.71741 0.65336 0.88277 0.0
H1377 H 0.71223 0.63838 0.8513 0.0
C1378 C 0.71776 0.71695 0.83885 0.0
C1379 C 0.71968 0.71544 0.81218 0.0
C1380 C 0.69715 0.69522 0.8516 0.0
C1381 C 0.67813 0.67154 0.838 0.0
C1382 C 0.67885 0.67051 0.81115 0.0
H1383 H 0.6064 0.52638 0.94144 0.0
H1384 H 0.62162 0.55151 0.90049 0.0
C1385 C 0.69951 0.69235 0.79828 0.0
C1386 C 0.65959 0.647 0.85262 0.0
H1387 H 0.66542 0.59872 0.90055 0.0
C1388 C 0.6293 0.64155 0.85115 0.0
C1389 C 0.67243 0.63037 0.86967 0.0
C1390 C 0.70467 0.63451 0.87102 0.0
C1391 C 0.61175 0.62091 0.86764 0.0
C1392 C 0.62512 0.60591 0.88624 0.0
C1393 C 0.6551 0.61023 0.8864 0.0
C1394 C 0.60966 0.58793 0.90755 0.0
C1395 C 0.57926 0.61574 0.86526 0.0
C1396 C 0.59721 0.5997 0.92482 0.0
C1397 C 0.5883 0.58524 0.94802 0.0
C1398 C 0.59196 0.55897 0.95441 0.0
C1399 C 0.60329 0.54662 0.93676 0.0
C1400 C 0.61186 0.5609 0.91339 0.0
H1401 H 0.57103 0.61994 0.84499 0.0
H1402 H 0.56663 0.59359 0.87123 0.0
H1403 H 0.57501 0.63054 0.87793 0.0
H1404 H 0.59626 0.62093 0.92128 0.0
H1405 H 0.58072 0.59563 0.96179 0.0
H1406 H 0.34769 0.60443 0.84202 0.0
H1407 H 0.37936 0.5762 0.84897 0.0
H1408 H 0.41312 0.6069 0.77521 0.0
H1409 H 0.38352 0.63792 0.76959 0.0
H1410 H 0.39455 0.53808 0.83162 0.0
H1411 H 0.48739 0.63926 0.81783 0.0
H1412 H 0.45054 0.63952 0.81581 0.0
H1413 H 0.46198 0.62445 0.79026 0.0
C1414 C 0.36169 0.60506 0.82714 0.0
C1415 C 0.36418 0.62446 0.80595 0.0
C1416 C 0.37965 0.58857 0.83094 0.0
C1417 C 0.39992 0.59043 0.81322 0.0
C1418 C 0.39891 0.60623 0.78986 0.0
H1419 H 0.50073 0.52333 0.93242 0.0
H1420 H 0.48339 0.52426 0.88603 0.0
C1421 C 0.38149 0.62357 0.78643 0.0
C1422 C 0.42432 0.57945 0.82201 0.0
H1423 H 0.49616 0.60552 0.84685 0.0
C1424 C 0.41697 0.5526 0.83466 0.0
C1425 C 0.45394 0.59793 0.82498 0.0
C1426 C 0.4641 0.6269 0.81158 0.0
C1427 C 0.43633 0.54627 0.85439 0.0
C1428 C 0.46481 0.56654 0.85992 0.0
C1429 C 0.47399 0.59059 0.84329 0.0
C1430 C 0.48222 0.56716 0.88572 0.0
C1431 C 0.42464 0.51952 0.8708 0.0
C1432 C 0.49038 0.59185 0.90042 0.0
C1433 C 0.50178 0.59179 0.9264 0.0
C1434 C 0.50441 0.56682 0.9384 0.0
C1435 C 0.4983 0.54269 0.92349 0.0
C1436 C 0.48805 0.54313 0.89709 0.0
H1437 H 0.40075 0.50838 0.86594 0.0
H1438 H 0.43602 0.50463 0.86738 0.0
H1439 H 0.42845 0.52441 0.89176 0.0
H1440 H 0.48633 0.61081 0.89231 0.0
H1441 H 0.50645 0.61063 0.93758 0.0
H1442 H 0.37322 0.35015 0.8209 0.0
H1443 H 0.39312 0.37989 0.85844 0.0
H1444 H 0.30688 0.38077 0.8677 0.0
H1445 H 0.28641 0.34995 0.83039 0.0
H1446 H 0.39521 0.43132 0.87108 0.0
H1447 H 0.32889 0.34843 0.93756 0.0
H1448 H 0.33069 0.3415 0.90426 0.0
H1449 H 0.30864 0.36161 0.91164 0.0
C1450 C 0.35842 0.35688 0.83064 0.0
C1451 C 0.32814 0.3473 0.82287 0.0
C1452 C 0.36988 0.37395 0.85213 0.0
C1453 C 0.35139 0.38202 0.86622 0.0
C1454 C 0.32141 0.37415 0.8575 0.0
H1455 H 0.45572 0.49199 0.99184 0.0
H1456 H 0.41366 0.47324 0.9598 0.0
C1457 C 0.30981 0.35674 0.83606 0.0
C1458 C 0.36386 0.39723 0.89073 0.0
H1459 H 0.36515 0.38808 0.95676 0.0
C1460 C 0.38832 0.4222 0.88982 0.0
C1461 C 0.35493 0.38502 0.91514 0.0
C1462 C 0.3295 0.35757 0.91739 0.0
C1463 C 0.4053 0.43424 0.91258 0.0
C1464 C 0.39673 0.42173 0.93697 0.0
C1465 C 0.37132 0.39774 0.93799 0.0
C1466 C 0.41632 0.43099 0.96113 0.0
C1467 C 0.43357 0.45884 0.91024 0.0
C1468 C 0.43026 0.41282 0.97388 0.0
C1469 C 0.45422 0.4234 0.99248 0.0
C1470 C 0.4647 0.4524 0.99842 0.0
C1471 C 0.44868 0.46973 0.98753 0.0
C1472 C 0.42456 0.45905 0.96912 0.0
H1473 H 0.43987 0.46203 0.89009 0.0
H1474 H 0.43098 0.47865 0.91603 0.0
H1475 H 0.45186 0.45531 0.92331 0.0
H1476 H 0.42407 0.39099 0.96805 0.0
H1477 H 0.46579 0.40932 1.00065 0.0
H1478 H 0.72654 0.39249 0.82852 0.0
H1479 H 0.71667 0.41184 0.86699 0.0
H1480 H 0.63063 0.34762 0.86389 0.0
H1481 H 0.63978 0.329 0.82473 0.0
H1482 H 0.6289 0.39933 0.87235 0.0
H1483 H 0.71706 0.37914 0.94029 0.0
H1484 H 0.72997 0.40091 0.91228 0.0
H1485 H 0.70655 0.36446 0.9083 0.0
C1486 C 0.70534 0.38274 0.83578 0.0
C1487 C 0.68392 0.35919 0.82349 0.0
C1488 C 0.69993 0.39354 0.85806 0.0
C1489 C 0.67315 0.38081 0.86867 0.0
C1490 C 0.65157 0.35763 0.8562 0.0
H1491 H 0.59003 0.40309 0.99902 0.0
H1492 H 0.60775 0.38405 0.96496 0.0
C1493 C 0.65688 0.34691 0.83387 0.0
C1494 C 0.66709 0.39202 0.89232 0.0
H1495 H 0.69094 0.40544 0.95652 0.0
C1496 C 0.64243 0.40056 0.89075 0.0
C1497 C 0.68481 0.39369 0.91634 0.0
C1498 C 0.71092 0.38382 0.91956 0.0
C1499 C 0.63506 0.41078 0.91246 0.0
C1500 C 0.65266 0.4123 0.93644 0.0
C1501 C 0.67752 0.40415 0.93806 0.0
C1502 C 0.64507 0.42212 0.95996 0.0
C1503 C 0.60857 0.4201 0.90962 0.0
C1504 C 0.66107 0.44934 0.96923 0.0
C1505 C 0.65102 0.46038 0.98875 0.0
C1506 C 0.6248 0.44431 0.99931 0.0
C1507 C 0.61016 0.41619 0.99126 0.0
C1508 C 0.62019 0.40525 0.97173 0.0
H1509 H 0.60042 0.42239 0.8889 0.0
H1510 H 0.59065 0.40403 0.91933 0.0
H1511 H 0.61379 0.4407 0.91915 0.0
H1512 H 0.68042 0.46259 0.96039 0.0
H1513 H 0.66293 0.48206 0.99448 0.0
H1514 H 0.70741 0.40965 0.29101 0.0
H1515 H 0.69187 0.45064 0.27825 0.0
H1516 H 0.61019 0.39443 0.24143 0.0
H1517 H 0.62541 0.35398 0.25383 0.0
H1518 H 0.68623 0.46287 0.22902 0.0
H1519 H 0.58185 0.45398 0.26295 0.0
H1520 H 0.60515 0.43558 0.27966 0.0
H1521 H 0.57823 0.41933 0.25307 0.0
C1522 C 0.68578 0.40605 0.28085 0.0
C1523 C 0.66782 0.37858 0.27311 0.0
C1524 C 0.67681 0.42945 0.27384 0.0
C1525 C 0.64971 0.42569 0.25911 0.0
C1526 C 0.63078 0.39798 0.25348 0.0
H1527 H 0.57047 0.43829 0.124 0.0
H1528 H 0.58545 0.43647 0.17052 0.0
C1529 C 0.63968 0.3747 0.26045 0.0
C1530 C 0.64411 0.44973 0.24386 0.0
H1531 H 0.58519 0.46586 0.2148 0.0
C1532 C 0.66457 0.46465 0.22656 0.0
C1533 C 0.61614 0.45264 0.24097 0.0
C1534 C 0.59431 0.4397 0.26045 0.0
C1535 C 0.65617 0.47814 0.20397 0.0
C1536 C 0.62666 0.47703 0.19901 0.0
C1537 C 0.60761 0.46607 0.21835 0.0
C1538 C 0.61387 0.48058 0.1722 0.0
C1539 C 0.67795 0.49031 0.18422 0.0
C1540 C 0.62419 0.50621 0.15789 0.0
C1541 C 0.61615 0.50711 0.13113 0.0
C1542 C 0.59724 0.4825 0.11843 0.0
C1543 C 0.58533 0.45746 0.13318 0.0
C1544 C 0.59366 0.4565 0.15981 0.0
H1545 H 0.69927 0.48723 0.19034 0.0
H1546 H 0.66902 0.4802 0.16518 0.0
H1547 H 0.68219 0.51349 0.18142 0.0
H1548 H 0.63932 0.52518 0.16718 0.0
H1549 H 0.62515 0.52694 0.12032 0.0
H1550 H 0.81548 0.72756 0.21115 0.0
H1551 H 0.80046 0.69394 0.17545 0.0
H1552 H 0.70968 0.67648 0.18632 0.0
H1553 H 0.72425 0.70894 0.22195 0.0
H1554 H 0.72144 0.62809 0.17963 0.0
H1555 H 0.76592 0.71038 0.10307 0.0
H1556 H 0.79091 0.70548 0.12992 0.0
H1557 H 0.76335 0.72 0.13534 0.0
C1558 C 0.79234 0.7164 0.20594 0.0
C1559 C 0.77106 0.72105 0.21934 0.0
C1560 C 0.78381 0.6973 0.1855 0.0
C1561 C 0.75393 0.68289 0.17808 0.0
C1562 C 0.73287 0.68724 0.19177 0.0
H1563 H 0.63062 0.63815 0.05689 0.0
H1564 H 0.67492 0.65868 0.08586 0.0
C1565 C 0.74128 0.70597 0.21215 0.0
C1566 C 0.74353 0.66393 0.15557 0.0
H1567 H 0.73196 0.66684 0.08934 0.0
C1568 C 0.72422 0.6362 0.15981 0.0
C1569 C 0.7475 0.6746 0.12979 0.0
C1570 C 0.76792 0.70426 0.12405 0.0
C1571 C 0.70623 0.62006 0.1392 0.0
C1572 C 0.70848 0.63168 0.1135 0.0
C1573 C 0.73017 0.65811 0.10906 0.0
C1574 C 0.68505 0.61977 0.09213 0.0
C1575 C 0.68311 0.59203 0.14555 0.0
C1576 C 0.6766 0.59133 0.08493 0.0
C1577 C 0.65069 0.57925 0.06868 0.0
C1578 C 0.6332 0.59563 0.05889 0.0
C1579 C 0.64331 0.62477 0.06419 0.0
C1580 C 0.66882 0.63663 0.08074 0.0
H1581 H 0.68148 0.58845 0.16679 0.0
H1582 H 0.66125 0.59106 0.13586 0.0
H1583 H 0.68865 0.57432 0.13851 0.0
H1584 H 0.68925 0.57812 0.09282 0.0
H1585 H 0.64386 0.55688 0.06472 0.0
H1586 H 0.37928 0.6364 0.23494 0.0
H1587 H 0.39838 0.62136 0.19896 0.0
H1588 H 0.40191 0.69932 0.15632 0.0
H1589 H 0.38317 0.71456 0.1921 0.0
H1590 H 0.3743 0.64946 0.12713 0.0
H1591 H 0.48287 0.6541 0.17771 0.0
H1592 H 0.45175 0.63343 0.19431 0.0
H1593 H 0.4602 0.67118 0.18986 0.0
C1594 C 0.38449 0.65044 0.21802 0.0
C1595 C 0.37958 0.67657 0.21627 0.0
C1596 C 0.39532 0.64183 0.19751 0.0
C1597 C 0.40161 0.65932 0.17508 0.0
C1598 C 0.39704 0.68549 0.17343 0.0
H1599 H 0.5042 0.64394 0.05611 0.0
H1600 H 0.48169 0.66246 0.08688 0.0
C1601 C 0.38624 0.6941 0.19385 0.0
C1602 C 0.41256 0.6503 0.15304 0.0
H1603 H 0.47049 0.6351 0.13563 0.0
C1604 C 0.39534 0.64633 0.12892 0.0
C1605 C 0.44014 0.64663 0.15545 0.0
C1606 C 0.46 0.65176 0.18064 0.0
C1607 C 0.40488 0.63838 0.10715 0.0
C1608 C 0.43219 0.63411 0.10972 0.0
C1609 C 0.44952 0.63839 0.13377 0.0
C1610 C 0.44319 0.62466 0.08796 0.0
C1611 C 0.3859 0.63498 0.08152 0.0
C1612 C 0.4285 0.5976 0.07779 0.0
C1613 C 0.44125 0.58692 0.06013 0.0
C1614 C 0.46907 0.60306 0.05253 0.0
C1615 C 0.48283 0.63087 0.06158 0.0
C1616 C 0.47006 0.64149 0.07923 0.0
H1617 H 0.36949 0.64581 0.08115 0.0
H1618 H 0.39946 0.64363 0.06515 0.0
H1619 H 0.37389 0.61201 0.07836 0.0
H1620 H 0.40791 0.58414 0.08454 0.0
H1621 H 0.43001 0.56542 0.0536 0.0
H1622 H 0.38259 0.3606 0.27986 0.0
H1623 H 0.4237 0.39418 0.25848 0.0
H1624 H 0.37353 0.37313 0.18374 0.0
H1625 H 0.33277 0.3396 0.20469 0.0
H1626 H 0.43103 0.37037 0.18714 0.0
H1627 H 0.43013 0.47251 0.22254 0.0
H1628 H 0.4314 0.44481 0.24622 0.0
H1629 H 0.39908 0.44002 0.22395 0.0
C1630 C 0.38021 0.36345 0.2589 0.0
C1631 C 0.35439 0.34742 0.24398 0.0
C1632 C 0.40372 0.38262 0.24673 0.0
C1633 C 0.40163 0.38612 0.21953 0.0
C1634 C 0.37565 0.37062 0.20475 0.0
H1635 H 0.45747 0.49721 0.09896 0.0
H1636 H 0.44024 0.47149 0.13845 0.0
C1637 C 0.35231 0.35152 0.2168 0.0
C1638 C 0.42638 0.4053 0.20586 0.0
H1639 H 0.46092 0.47531 0.19039 0.0
C1640 C 0.43811 0.39334 0.18818 0.0
C1641 C 0.43558 0.4352 0.20744 0.0
C1642 C 0.42341 0.4491 0.22593 0.0
C1643 C 0.45713 0.41045 0.17064 0.0
C1644 C 0.46497 0.44038 0.17113 0.0
C1645 C 0.45496 0.45237 0.19015 0.0
C1646 C 0.47835 0.45896 0.14915 0.0
C1647 C 0.46674 0.39627 0.15042 0.0
C1648 C 0.50604 0.46121 0.14226 0.0
C1649 C 0.51597 0.47587 0.11923 0.0
C1650 C 0.49843 0.48848 0.10286 0.0
C1651 C 0.47152 0.48745 0.11077 0.0
C1652 C 0.46164 0.47287 0.13355 0.0
H1653 H 0.45562 0.37281 0.15073 0.0
H1654 H 0.4621 0.40482 0.13066 0.0
H1655 H 0.49073 0.40073 0.1541 0.0
H1656 H 0.51959 0.45107 0.15427 0.0
H1657 H 0.53685 0.4766 0.11387 0.0
H1658 H 0.88275 0.69256 0.68145 0.0
H1659 H 0.90968 0.67155 0.65714 0.0
H1660 H 0.82882 0.62288 0.61359 0.0
H1661 H 0.80193 0.64483 0.63675 0.0
H1662 H 0.90581 0.6167 0.65361 0.0
H1663 H 0.87883 0.65878 0.55571 0.0
H1664 H 0.87174 0.67144 0.58507 0.0
H1665 H 0.84697 0.63866 0.57147 0.0
C1666 C 0.87069 0.67775 0.66641 0.0
C1667 C 0.8401 0.67062 0.66102 0.0
C1668 C 0.88613 0.66555 0.65267 0.0
C1669 C 0.87139 0.64598 0.63319 0.0
C1670 C 0.84082 0.6384 0.62808 0.0
H1671 H 0.92765 0.5463 0.53276 0.0
H1672 H 0.89926 0.56494 0.55789 0.0
C1673 C 0.82539 0.65071 0.64168 0.0
C1674 C 0.88794 0.63313 0.61858 0.0
H1675 H 0.9021 0.62408 0.55738 0.0
C1676 C 0.90508 0.61843 0.63258 0.0
C1677 C 0.88703 0.63536 0.5911 0.0
C1678 C 0.87039 0.65215 0.57495 0.0
C1679 C 0.921 0.60565 0.61987 0.0
C1680 C 0.91993 0.60778 0.59244 0.0
C1681 C 0.90272 0.62233 0.57841 0.0
C1682 C 0.93719 0.59576 0.57796 0.0
C1683 C 0.93855 0.58963 0.63583 0.0
C1684 C 0.96792 0.60699 0.58082 0.0
C1685 C 0.98423 0.59651 0.56642 0.0
C1686 C 0.97013 0.5745 0.54883 0.0
C1687 C 0.93928 0.56313 0.54619 0.0
C1688 C 0.92298 0.5738 0.56049 0.0
H1689 H 0.93186 0.58443 0.65583 0.0
H1690 H 0.93606 0.56959 0.62639 0.0
H1691 H 0.96212 0.60295 0.63738 0.0
H1692 H 0.97932 0.62423 0.59391 0.0
H1693 H 1.00791 0.60585 0.56898 0.0
H1694 H 0.3306 0.84883 0.7188 0.0
H1695 H 0.37225 0.88107 0.69768 0.0
H1696 H 0.43131 0.84972 0.74912 0.0
H1697 H 0.38981 0.81723 0.77042 0.0
H1698 H 0.42608 0.92405 0.72372 0.0
H1699 H 0.44676 0.83968 0.67247 0.0
H1700 H 0.41187 0.83393 0.68435 0.0
H1701 H 0.44315 0.83499 0.70681 0.0
C1702 C 0.35241 0.84872 0.72564 0.0
C1703 C 0.35688 0.83037 0.7462 0.0
C1704 C 0.37616 0.86722 0.71363 0.0
C1705 C 0.40469 0.86755 0.72182 0.0
C1706 C 0.40936 0.84953 0.74246 0.0
H1707 H 0.54676 0.96258 0.62604 0.0
H1708 H 0.52492 0.93537 0.66409 0.0
C1709 C 0.38562 0.83107 0.75459 0.0
C1710 C 0.42931 0.88661 0.70825 0.0
H1711 H 0.47279 0.88714 0.66139 0.0
C1712 C 0.43673 0.91605 0.71043 0.0
C1713 C 0.44337 0.87597 0.69128 0.0
C1714 C 0.43597 0.84443 0.68836 0.0
C1715 C 0.45672 0.93523 0.69488 0.0
C1716 C 0.46902 0.92456 0.67641 0.0
C1717 C 0.46323 0.89518 0.67558 0.0
C1718 C 0.48375 0.94292 0.65511 0.0
C1719 C 0.46365 0.96671 0.69765 0.0
C1720 C 0.46776 0.95592 0.63752 0.0
C1721 C 0.4799 0.97092 0.61569 0.0
C1722 C 0.50831 0.97315 0.61085 0.0
C1723 C 0.52466 0.96076 0.62891 0.0
C1724 C 0.51233 0.94546 0.65077 0.0
H1725 H 0.46121 0.97156 0.71766 0.0
H1726 H 0.48629 0.97904 0.69304 0.0
H1727 H 0.44807 0.97389 0.68401 0.0
H1728 H 0.44542 0.95367 0.64022 0.0
H1729 H 0.4666 0.98016 0.60228 0.0
H1730 H 0.28738 0.35684 0.712 0.0
H1731 H 0.26054 0.38071 0.68103 0.0
H1732 H 0.17954 0.3133 0.69337 0.0
H1733 H 0.20604 0.29011 0.72498 0.0
H1734 H 0.23047 0.37048 0.63625 0.0
H1735 H 0.15071 0.37598 0.70058 0.0
H1736 H 0.18143 0.36497 0.71263 0.0
H1737 H 0.14836 0.33994 0.6971 0.0
C1738 C 0.2638 0.34714 0.70836 0.0
C1739 C 0.24915 0.32144 0.72156 0.0
C1740 C 0.24829 0.3609 0.69041 0.0
C1741 C 0.21744 0.3496 0.68483 0.0
C1742 C 0.20296 0.32355 0.6976 0.0
H1743 H 0.08741 0.39397 0.56997 0.0
H1744 H 0.11307 0.37098 0.60316 0.0
C1745 C 0.21838 0.30997 0.71572 0.0
C1746 C 0.20076 0.36448 0.66531 0.0
H1747 H 0.14029 0.38598 0.65549 0.0
C1748 C 0.21091 0.37397 0.64076 0.0
C1749 C 0.17496 0.3695 0.67048 0.0
C1750 C 0.1634 0.36234 0.69671 0.0
C1751 C 0.19611 0.38738 0.62162 0.0
C1752 C 0.17015 0.39196 0.62669 0.0
C1753 C 0.15993 0.38251 0.65115 0.0
C1754 C 0.15367 0.40671 0.60704 0.0
C1755 C 0.20816 0.39602 0.5957 0.0
C1756 C 0.16713 0.435 0.59818 0.0
C1757 C 0.15227 0.44842 0.57936 0.0
C1758 C 0.12326 0.43413 0.5684 0.0
C1759 C 0.10955 0.40599 0.57773 0.0
C1760 C 0.12437 0.39267 0.59683 0.0
H1761 H 0.22362 0.38508 0.59233 0.0
H1762 H 0.19018 0.39124 0.57955 0.0
H1763 H 0.2202 0.41929 0.59519 0.0
H1764 H 0.1894 0.44683 0.60577 0.0
H1765 H 0.16394 0.46997 0.57293 0.0
H1766 H 0.81146 0.20823 0.73657 0.0
H1767 H 0.7999 0.16645 0.71021 0.0
H1768 H 0.71544 0.1733 0.68317 0.0
H1769 H 0.72642 0.21459 0.71003 0.0
H1770 H 0.71292 0.1188 0.69987 0.0
H1771 H 0.79859 0.16456 0.63173 0.0
H1772 H 0.80984 0.16477 0.66608 0.0
H1773 H 0.78922 0.18681 0.65253 0.0
C1774 C 0.79044 0.20093 0.7249 0.0
C1775 C 0.76979 0.21474 0.72531 0.0
C1776 C 0.78398 0.1771 0.7098 0.0
C1777 C 0.75696 0.16697 0.6946 0.0
C1778 C 0.73643 0.18081 0.69487 0.0
H1779 H 0.66919 0.10871 0.56458 0.0
H1780 H 0.71047 0.12724 0.59702 0.0
C1781 C 0.74272 0.20443 0.71015 0.0
C1782 C 0.74929 0.1418 0.67839 0.0
H1783 H 0.76091 0.1221 0.62021 0.0
C1784 C 0.72371 0.11902 0.68272 0.0
C1785 C 0.76398 0.14204 0.65647 0.0
C1786 C 0.79189 0.16584 0.6512 0.0
C1787 C 0.71025 0.0983 0.66407 0.0
C1788 C 0.72334 0.10012 0.64075 0.0
C1789 C 0.75093 0.12087 0.63804 0.0
C1790 C 0.70535 0.0866 0.61697 0.0
C1791 C 0.68054 0.07672 0.66834 0.0
C1792 C 0.69017 0.05717 0.61605 0.0
C1793 C 0.66584 0.0465 0.59769 0.0
C1794 C 0.65693 0.06519 0.57989 0.0
C1795 C 0.67494 0.09387 0.57851 0.0
C1796 C 0.69885 0.10449 0.59696 0.0
H1797 H 0.67261 0.08002 0.68665 0.0
H1798 H 0.66405 0.07785 0.65195 0.0
H1799 H 0.68182 0.055 0.66942 0.0
H1800 H 0.69548 0.04285 0.63082 0.0
H1801 H 0.65275 0.02416 0.5989 0.0
H1802 H 0.77074 0.33581 0.3368 0.0
H1803 H 0.7859 0.36696 0.3741 0.0
H1804 H 0.84372 0.32214 0.40695 0.0
H1805 H 0.82826 0.29062 0.37043 0.0
H1806 H 0.82022 0.34398 0.44506 0.0
H1807 H 0.86769 0.42479 0.36791 0.0
H1808 H 0.82862 0.40766 0.36617 0.0
H1809 H 0.85146 0.38763 0.36065 0.0
C1810 C 0.78623 0.33224 0.35227 0.0
C1811 C 0.79907 0.31139 0.35032 0.0
C1812 C 0.79469 0.34993 0.3736 0.0
C1813 C 0.81633 0.34716 0.39292 0.0
C1814 C 0.82698 0.32462 0.39219 0.0
H1815 H 0.96879 0.39954 0.47943 0.0
H1816 H 0.91656 0.378 0.46615 0.0
C1817 C 0.81837 0.30682 0.3711 0.0
C1818 C 0.83262 0.37031 0.41079 0.0
H1819 H 0.8908 0.43184 0.40965 0.0
C1820 C 0.83506 0.36376 0.43756 0.0
C1821 C 0.85159 0.39631 0.40098 0.0
C1822 C 0.84993 0.40467 0.37239 0.0
C1823 C 0.85818 0.38098 0.45431 0.0
C1824 C 0.87946 0.40483 0.44375 0.0
C1825 C 0.8747 0.41331 0.4177 0.0
C1826 C 0.90915 0.41805 0.45727 0.0
C1827 C 0.86046 0.37254 0.48276 0.0
C1828 C 0.92259 0.44769 0.45634 0.0
C1829 C 0.95271 0.45996 0.4627 0.0
C1830 C 0.96995 0.44291 0.4709 0.0
C1831 C 0.95621 0.41331 0.47317 0.0
C1832 C 0.92613 0.40098 0.46614 0.0
H1833 H 0.83831 0.3635 0.48961 0.0
H1834 H 0.87058 0.3557 0.48561 0.0
H1835 H 0.87392 0.39086 0.49489 0.0
H1836 H 0.91006 0.46127 0.44915 0.0
H1837 H 0.96251 0.48273 0.46004 0.0
H1838 H 0.63906 0.78156 0.37155 0.0
H1839 H 0.63437 0.80831 0.4075 0.0
H1840 H 0.69807 0.78074 0.4565 0.0
H1841 H 0.70276 0.75379 0.42064 0.0
H1842 H 0.65032 0.78131 0.48215 0.0
H1843 H 0.70114 0.88269 0.42867 0.0
H1844 H 0.67024 0.85876 0.40985 0.0
H1845 H 0.70235 0.84912 0.4193 0.0
C1846 C 0.65173 0.78091 0.3901 0.0
C1847 C 0.6714 0.76583 0.39333 0.0
C1848 C 0.64915 0.79624 0.41053 0.0
C1849 C 0.66644 0.79696 0.43432 0.0
C1850 C 0.68475 0.78054 0.43815 0.0
H1851 H 0.66989 0.93396 0.53155 0.0
H1852 H 0.68919 0.90167 0.51248 0.0
C1853 C 0.68724 0.76505 0.41775 0.0
C1854 C 0.66619 0.81596 0.45465 0.0
H1855 H 0.67449 0.885 0.46395 0.0
C1856 C 0.65603 0.80405 0.47844 0.0
C1857 C 0.67466 0.8457 0.45005 0.0
C1858 C 0.68803 0.85988 0.42569 0.0
C1859 C 0.65188 0.82098 0.49698 0.0
C1860 C 0.65749 0.85028 0.49118 0.0
C1861 C 0.66986 0.86246 0.46827 0.0
C1862 C 0.64717 0.86792 0.50659 0.0
C1863 C 0.64088 0.80718 0.52228 0.0
C1864 C 0.61726 0.85954 0.5097 0.0
C1865 C 0.60621 0.87781 0.52054 0.0
C1866 C 0.6248 0.90508 0.52817 0.0
C1867 C 0.65497 0.91316 0.52576 0.0
C1868 C 0.66605 0.89471 0.51499 0.0
H1869 H 0.64865 0.78902 0.52803 0.0
H1870 H 0.64816 0.82258 0.53824 0.0
H1871 H 0.61656 0.79867 0.51981 0.0
H1872 H 0.60212 0.83935 0.50263 0.0
H1873 H 0.58286 0.87083 0.52209 0.0
H1874 H 0.19183 0.73763 0.28244 0.0
H1875 H 0.14921 0.70603 0.30282 0.0
H1876 H 0.20601 0.69508 0.37014 0.0
H1877 H 0.24877 0.72638 0.34992 0.0
H1878 H 0.14535 0.64805 0.31801 0.0
H1879 H 0.13603 0.70852 0.39986 0.0
H1880 H 0.15329 0.72554 0.37121 0.0
H1881 H 0.17326 0.71163 0.39691 0.0
C1882 C 0.19521 0.72886 0.30178 0.0
C1883 C 0.22362 0.73423 0.31458 0.0
C1884 C 0.17084 0.71095 0.31334 0.0
C1885 C 0.1746 0.69871 0.33801 0.0
C1886 C 0.20278 0.70487 0.35123 0.0
H1887 H 0.13915 0.55748 0.42577 0.0
H1888 H 0.1478 0.59356 0.3907 0.0
C1889 C 0.22717 0.72248 0.33958 0.0
C1890 C 0.14998 0.67654 0.34885 0.0
H1891 H 0.12029 0.65704 0.40615 0.0
C1892 C 0.13896 0.65012 0.3369 0.0
C1893 C 0.14137 0.67956 0.37315 0.0
C1894 C 0.15138 0.70795 0.38592 0.0
C1895 C 0.12231 0.62581 0.35019 0.0
C1896 C 0.11692 0.62828 0.37589 0.0
C1897 C 0.12486 0.65524 0.3865 0.0
C1898 C 0.10852 0.6034 0.39372 0.0
C1899 C 0.11247 0.59741 0.33745 0.0
C1900 C 0.08361 0.59717 0.40689 0.0
C1901 C 0.07866 0.57665 0.42698 0.0
C1902 C 0.09888 0.56246 0.43442 0.0
C1903 C 0.12331 0.56815 0.42057 0.0
C1904 C 0.12807 0.58848 0.40035 0.0
H1905 H 0.10928 0.59993 0.31594 0.0
H1906 H 0.1296 0.58748 0.3423 0.0
H1907 H 0.09171 0.58282 0.34442 0.0
H1908 H 0.06857 0.60883 0.40219 0.0
H1909 H 0.05958 0.5727 0.43728 0.0
H1910 H 0.42389 0.19576 0.31206 0.0
H1911 H 0.44862 0.16045 0.32097 0.0
H1912 H 0.45842 0.17589 0.40295 0.0
H1913 H 0.43321 0.21039 0.39443 0.0
H1914 H 0.50639 0.16523 0.34939 0.0
H1915 H 0.4124 0.08892 0.3951 0.0
H1916 H 0.40916 0.11809 0.37388 0.0
H1917 H 0.42294 0.12398 0.40759 0.0
C1918 C 0.43131 0.19156 0.33199 0.0
C1919 C 0.42643 0.20572 0.35258 0.0
C1920 C 0.44557 0.17158 0.33697 0.0
C1921 C 0.45492 0.1654 0.36261 0.0
C1922 C 0.45102 0.18021 0.38305 0.0
H1923 H 0.56996 0.11434 0.45884 0.0
H1924 H 0.55044 0.13356 0.41956 0.0
C1925 C 0.43684 0.20011 0.37812 0.0
C1926 C 0.46789 0.14285 0.3687 0.0
H1927 H 0.4596 0.08448 0.40857 0.0
C1928 C 0.49601 0.14709 0.36181 0.0
C1929 C 0.45386 0.11871 0.38405 0.0
C1930 C 0.42278 0.11194 0.39036 0.0
C1931 C 0.51165 0.12928 0.37221 0.0
C1932 C 0.49899 0.10731 0.39037 0.0
C1933 C 0.46967 0.10143 0.39493 0.0
C1934 C 0.51662 0.09367 0.40841 0.0
C1935 C 0.54186 0.13486 0.36431 0.0
C1936 C 0.50504 0.0645 0.41494 0.0
C1937 C 0.51561 0.05364 0.43805 0.0
C1938 C 0.53826 0.07171 0.45473 0.0
C1939 C 0.55238 0.09992 0.44645 0.0
C1940 C 0.54138 0.11091 0.42368 0.0
H1941 H 0.54264 0.14148 0.34343 0.0
H1942 H 0.55788 0.15265 0.37566 0.0
H1943 H 0.54867 0.11583 0.36767 0.0
H1944 H 0.48608 0.05069 0.4034 0.0
H1945 H 0.50462 0.03165 0.44376 0.0
H1946 H 0.74268 0.81566 0.70696 0.0
H1947 H 0.70998 0.84118 0.68847 0.0
H1948 H 0.67644 0.83515 0.76269 0.0
H1949 H 0.70985 0.81057 0.78155 0.0
H1950 H 0.65215 0.82656 0.68253 0.0
H1951 H 0.69777 0.91884 0.7472 0.0
H1952 H 0.71531 0.89273 0.74607 0.0
H1953 H 0.68421 0.88522 0.7642 0.0
C1954 C 0.72834 0.81976 0.71935 0.0
C1955 C 0.72906 0.8113 0.74577 0.0
C1956 C 0.70965 0.83436 0.70876 0.0
C1957 C 0.69112 0.84063 0.7243 0.0
C1958 C 0.69111 0.83136 0.75049 0.0
H1959 H 0.55977 0.90422 0.6356 0.0
H1960 H 0.57917 0.87737 0.66982 0.0
C1961 C 0.7101 0.8171 0.76119 0.0
C1962 C 0.67181 0.85669 0.71282 0.0
H1963 H 0.65692 0.91792 0.71739 0.0
C1964 C 0.65305 0.84645 0.69024 0.0
C1965 C 0.6731 0.88274 0.72284 0.0
C1966 C 0.69386 0.89571 0.74626 0.0
C1967 C 0.63636 0.86192 0.67687 0.0
C1968 C 0.6376 0.88798 0.68689 0.0
C1969 C 0.65564 0.89777 0.70995 0.0
C1970 C 0.62368 0.9071 0.67173 0.0
C1971 C 0.61897 0.85093 0.65133 0.0
C1972 C 0.64151 0.93409 0.66345 0.0
C1973 C 0.63038 0.94979 0.6444 0.0
C1974 C 0.60123 0.93862 0.63296 0.0
C1975 C 0.58247 0.91322 0.64359 0.0
C1976 C 0.59361 0.89766 0.66297 0.0
H1977 H 0.6254 0.83397 0.64381 0.0
H1978 H 0.59532 0.8418 0.6541 0.0
H1979 H 0.62198 0.86839 0.63636 0.0
H1980 H 0.66468 0.94211 0.67022 0.0
H1981 H 0.6454 0.96953 0.63708 0.0
H1982 H 0.70168 0.20152 0.31705 0.0
H1983 H 0.67733 0.1626 0.34619 0.0
H1984 H 0.75255 0.13526 0.35435 0.0
H1985 H 0.77753 0.17475 0.32528 0.0
H1986 H 0.66242 0.10308 0.34629 0.0
H1987 H 0.74433 0.15211 0.42915 0.0
H1988 H 0.74154 0.17096 0.39855 0.0
H1989 H 0.75889 0.14446 0.40145 0.0
C1990 C 0.71306 0.18713 0.3248 0.0
C1991 C 0.74178 0.19152 0.31915 0.0
C1992 C 0.69899 0.16478 0.34138 0.0
C1993 C 0.7133 0.14635 0.35278 0.0
C1994 C 0.74132 0.14958 0.34607 0.0
H1995 H 0.66623 0.02723 0.48334 0.0
H1996 H 0.68855 0.05342 0.44556 0.0
C1997 C 0.75549 0.17202 0.32934 0.0
C1998 C 0.69943 0.12525 0.373 0.0
H1999 H 0.70585 0.1103 0.43824 0.0
C2000 C 0.67199 0.10444 0.36637 0.0
C2001 C 0.71186 0.12729 0.39921 0.0
C2002 C 0.74065 0.15001 0.4077 0.0
C2003 C 0.65665 0.08558 0.38529 0.0
C2004 C 0.66887 0.08798 0.41157 0.0
C2005 C 0.69653 0.10847 0.41808 0.0
C2006 C 0.65344 0.06981 0.43288 0.0
C2007 C 0.62762 0.06319 0.37693 0.0
C2008 C 0.62599 0.07 0.43822 0.0
C2009 C 0.61295 0.05478 0.45985 0.0
C2010 C 0.62733 0.0395 0.47677 0.0
C2011 C 0.65449 0.03887 0.47092 0.0
C2012 C 0.66737 0.05386 0.44927 0.0
H2013 H 0.62551 0.05879 0.35593 0.0
H2014 H 0.62477 0.04299 0.38835 0.0
H2015 H 0.6096 0.07086 0.38019 0.0
H2016 H 0.61503 0.08258 0.42615 0.0
H2017 H 0.59199 0.0555 0.46359 0.0
H2018 H 0.81033 0.70591 0.34415 0.0
H2019 H 0.8392 0.67876 0.36788 0.0
H2020 H 0.90934 0.71952 0.32025 0.0
H2021 H 0.88133 0.74801 0.29799 0.0
H2022 H 0.85875 0.64087 0.36576 0.0
H2023 H 0.96433 0.72798 0.38032 0.0
H2024 H 0.93151 0.73465 0.367 0.0
H2025 H 0.95279 0.7238 0.34631 0.0
C2026 C 0.83208 0.70952 0.3388 0.0
C2027 C 0.84301 0.7301 0.31889 0.0
C2028 C 0.84896 0.69356 0.35259 0.0
C2029 C 0.87785 0.69674 0.34725 0.0
C2030 C 0.88826 0.71669 0.32663 0.0
H2031 H 0.95171 0.55787 0.41459 0.0
H2032 H 0.92438 0.58499 0.38854 0.0
C2033 C 0.87168 0.73313 0.31328 0.0
C2034 C 0.89616 0.67897 0.36257 0.0
H2035 H 0.96608 0.68141 0.38808 0.0
C2036 C 0.88223 0.65021 0.37062 0.0
C2037 C 0.92717 0.68988 0.37023 0.0
C2038 C 0.94477 0.72082 0.3658 0.0
C2039 C 0.89742 0.6329 0.38504 0.0
C2040 C 0.92868 0.64331 0.39136 0.0
C2041 C 0.94255 0.67216 0.38354 0.0
C2042 C 0.9471 0.62566 0.40671 0.0
C2043 C 0.87896 0.60379 0.39434 0.0
C2044 C 0.9714 0.63836 0.42527 0.0
C2045 C 0.98817 0.62273 0.43965 0.0
C2046 C 0.98182 0.59311 0.43678 0.0
C2047 C 0.95791 0.58036 0.41796 0.0
C2048 C 0.94151 0.59619 0.40311 0.0
H2049 H 0.85619 0.60276 0.39615 0.0
H2050 H 0.87762 0.5879 0.37994 0.0
H2051 H 0.88831 0.5978 0.41353 0.0
H2052 H 0.97731 0.66067 0.42928 0.0
H2053 H 1.00588 0.63399 0.45383 0.0
H2054 H 0.36428 0.8095 0.35048 0.0
H2055 H 0.38823 0.84091 0.38649 0.0
H2056 H 0.32126 0.87962 0.37431 0.0
H2057 H 0.29677 0.84797 0.33817 0.0
H2058 H 0.4091 0.90156 0.38126 0.0
H2059 H 0.3282 0.8609 0.45414 0.0
H2060 H 0.3283 0.83995 0.4272 0.0
H2061 H 0.31511 0.86931 0.42167 0.0
C2062 C 0.35439 0.82446 0.35553 0.0
C2063 C 0.32863 0.82623 0.34136 0.0
C2064 C 0.36815 0.84242 0.37613 0.0
C2065 C 0.35645 0.86248 0.38309 0.0
C2066 C 0.33043 0.86404 0.36941 0.0
H2067 H 0.48321 0.989 0.48754 0.0
H2068 H 0.44106 0.97142 0.45486 0.0
C2069 C 0.31655 0.84599 0.34872 0.0
C2070 C 0.37274 0.88251 0.40387 0.0
H2071 H 0.37291 0.89644 0.46743 0.0
C2072 C 0.40107 0.90088 0.39999 0.0
C2073 C 0.36203 0.88146 0.42818 0.0
C2074 C 0.33181 0.86179 0.43329 0.0
C2075 C 0.41973 0.91706 0.42023 0.0
C2076 C 0.4095 0.91523 0.44493 0.0
C2077 C 0.38056 0.89797 0.44842 0.0
C2078 C 0.42999 0.92738 0.46805 0.0
C2079 C 0.4509 0.93439 0.41542 0.0
C2080 C 0.43633 0.90879 0.48742 0.0
C2081 C 0.46013 0.91877 0.50625 0.0
C2082 C 0.47816 0.94757 0.50601 0.0
C2083 C 0.47002 0.96666 0.48813 0.0
C2084 C 0.44602 0.95662 0.46932 0.0
H2085 H 0.45654 0.92967 0.39653 0.0
H2086 H 0.45382 0.95736 0.41518 0.0
H2087 H 0.46664 0.93026 0.43115 0.0
H2088 H 0.42412 0.88617 0.48692 0.0
H2089 H 0.46544 0.90351 0.51995 0.0
H2090 H 0.23584 0.34453 0.28916 0.0
H2091 H 0.21301 0.3689 0.31477 0.0
H2092 H 0.24841 0.33673 0.38535 0.0
H2093 H 0.27213 0.3134 0.35984 0.0
H2094 H 0.17312 0.35748 0.34449 0.0
H2095 H 0.27054 0.41358 0.41018 0.0
H2096 H 0.27307 0.39474 0.38273 0.0
H2097 H 0.26292 0.37595 0.41302 0.0
C2098 C 0.23919 0.34282 0.31016 0.0
C2099 C 0.2566 0.3269 0.32198 0.0
C2100 C 0.22582 0.35689 0.32506 0.0
C2101 C 0.22903 0.35589 0.35267 0.0
C2102 C 0.24596 0.33944 0.36442 0.0
H2103 H 0.10322 0.3965 0.44279 0.0
H2104 H 0.12841 0.375 0.4173 0.0
C2105 C 0.25954 0.3256 0.34954 0.0
C2106 C 0.21413 0.37109 0.36879 0.0
H2107 H 0.22463 0.41214 0.42261 0.0
C2108 C 0.18472 0.36945 0.36149 0.0
C2109 C 0.22849 0.38771 0.39104 0.0
C2110 C 0.26056 0.3934 0.39955 0.0
C2111 C 0.16965 0.38281 0.37546 0.0
C2112 C 0.18349 0.39809 0.39854 0.0
C2113 C 0.21313 0.40033 0.40549 0.0
C2114 C 0.16787 0.41179 0.41541 0.0
C2115 C 0.13908 0.38104 0.36444 0.0
C2116 C 0.18124 0.4398 0.42488 0.0
C2117 C 0.16671 0.45228 0.4403 0.0
C2118 C 0.13799 0.43742 0.44713 0.0
C2119 C 0.12494 0.40931 0.43799 0.0
C2120 C 0.1395 0.39683 0.42286 0.0
H2121 H 0.13576 0.37823 0.34308 0.0
H2122 H 0.12297 0.36228 0.37332 0.0
H2123 H 0.13439 0.40043 0.36839 0.0
H2124 H 0.20305 0.45237 0.4201 0.0
H2125 H 0.17805 0.47377 0.44677 0.0
H2126 H 0.37114 0.20263 0.66894 0.0
H2127 H 0.39062 0.17386 0.64516 0.0
H2128 H 0.47627 0.23856 0.65399 0.0
H2129 H 0.45724 0.26704 0.67853 0.0
H2130 H 0.41763 0.18722 0.59915 0.0
H2131 H 0.49283 0.16646 0.68094 0.0
H2132 H 0.46421 0.18013 0.6857 0.0
H2133 H 0.49808 0.2035 0.67469 0.0
C2134 C 0.39422 0.21059 0.66613 0.0
C2135 C 0.41268 0.23707 0.67583 0.0
C2136 C 0.40525 0.19421 0.65236 0.0
C2137 C 0.43497 0.20388 0.64813 0.0
C2138 C 0.45337 0.23045 0.65744 0.0
H2139 H 0.54665 0.14039 0.5717 0.0
H2140 H 0.52477 0.16869 0.59317 0.0
C2141 C 0.44237 0.24685 0.67121 0.0
C2142 C 0.44666 0.18633 0.63371 0.0
H2143 H 0.49749 0.15307 0.6391 0.0
C2144 C 0.43498 0.17961 0.60789 0.0
C2145 C 0.46924 0.17637 0.6452 0.0
C2146 C 0.48167 0.18172 0.67323 0.0
C2147 C 0.44581 0.16378 0.59305 0.0
C2148 C 0.4686 0.1541 0.60448 0.0
C2149 C 0.4801 0.16063 0.63035 0.0
C2150 C 0.48113 0.13734 0.58997 0.0
C2151 C 0.43328 0.15816 0.56509 0.0
C2152 C 0.4638 0.1103 0.58094 0.0
C2153 C 0.47624 0.09398 0.56858 0.0
C2154 C 0.5063 0.10435 0.56516 0.0
C2155 C 0.52344 0.13166 0.57394 0.0
C2156 C 0.51099 0.1479 0.58628 0.0
H2157 H 0.42116 0.17266 0.55751 0.0
H2158 H 0.45089 0.16062 0.55251 0.0
H2159 H 0.41774 0.13598 0.56367 0.0
H2160 H 0.44081 0.10151 0.584 0.0
H2161 H 0.46239 0.07301 0.56221 0.0
H2162 H 0.81361 0.32441 0.68861 0.0
H2163 H 0.84827 0.34921 0.65718 0.0
H2164 H 0.9204 0.35994 0.71693 0.0
H2165 H 0.88591 0.33529 0.74853 0.0
H2166 H 0.92589 0.40964 0.68641 0.0
H2167 H 0.90183 0.31769 0.62351 0.0
H2168 H 0.86978 0.32541 0.62893 0.0
H2169 H 0.89038 0.31389 0.6558 0.0
C2170 C 0.83682 0.33202 0.69515 0.0
C2171 C 0.84677 0.32769 0.72125 0.0
C2172 C 0.85673 0.34609 0.67704 0.0
C2173 C 0.88716 0.35618 0.68444 0.0
C2174 C 0.89713 0.35231 0.71057 0.0
H2175 H 0.03239 0.4606 0.59095 0.0
H2176 H 1.00704 0.43124 0.62699 0.0
C2177 C 0.87726 0.33814 0.72868 0.0
C2178 C 0.90844 0.37103 0.66502 0.0
H2179 H 0.9297 0.363 0.60631 0.0
C2180 C 0.92696 0.39933 0.66903 0.0
C2181 C 0.91016 0.35767 0.64236 0.0
C2182 C 0.89221 0.32691 0.63743 0.0
C2183 C 0.9459 0.41495 0.65051 0.0
C2184 C 0.94696 0.40184 0.62743 0.0
C2185 C 0.9291 0.37323 0.62389 0.0
C2186 C 0.96382 0.41807 0.6055 0.0
C2187 C 0.96355 0.44582 0.65525 0.0
C2188 C 0.94854 0.41955 0.58103 0.0
C2189 C 0.96293 0.43596 0.56057 0.0
C2190 C 0.99327 0.45148 0.56371 0.0
C2191 C 1.00908 0.44898 0.5878 0.0
C2192 C 0.99446 0.43246 0.60853 0.0
H2193 H 0.95589 0.45425 0.67118 0.0
H2194 H 0.98687 0.44803 0.66079 0.0
H2195 H 0.96236 0.45909 0.63736 0.0
H2196 H 0.92506 0.40863 0.57789 0.0
H2197 H 0.94996 0.43701 0.54226 0.0
H2198 H 0.21076 0.72991 0.71188 0.0
H2199 H 0.18931 0.69719 0.67616 0.0
H2200 H 0.26498 0.67062 0.68556 0.0
H2201 H 0.28681 0.70358 0.72124 0.0
H2202 H 0.2483 0.67957 0.63393 0.0
H2203 H 0.15115 0.61133 0.68104 0.0
H2204 H 0.15473 0.64825 0.67967 0.0
H2205 H 0.18218 0.63679 0.69877 0.0
C2206 C 0.22292 0.7171 0.70648 0.0
C2207 C 0.2506 0.71949 0.71972 0.0
C2208 C 0.21046 0.69816 0.68605 0.0
C2209 C 0.22516 0.68087 0.67826 0.0
C2210 C 0.25299 0.68349 0.69117 0.0
H2211 H 0.12931 0.5396 0.57262 0.0
H2212 H 0.16191 0.56663 0.60892 0.0
C2213 C 0.26547 0.70241 0.71167 0.0
C2214 C 0.21172 0.66056 0.65641 0.0
H2215 H 0.14989 0.60562 0.6355 0.0
C2216 C 0.22687 0.66327 0.63441 0.0
C2217 C 0.18396 0.63879 0.65697 0.0
C2218 C 0.16716 0.63335 0.68048 0.0
C2219 C 0.21463 0.64573 0.61277 0.0
C2220 C 0.1862 0.62496 0.61278 0.0
C2221 C 0.17156 0.62154 0.63519 0.0
C2222 C 0.17042 0.60785 0.58932 0.0
C2223 C 0.23242 0.64961 0.59011 0.0
C2224 C 0.16494 0.62164 0.56573 0.0
C2225 C 0.14651 0.6062 0.54493 0.0
C2226 C 0.13287 0.57644 0.54703 0.0
C2227 C 0.13985 0.56236 0.57002 0.0
C2228 C 0.15821 0.57791 0.59099 0.0
H2229 H 0.2563 0.65882 0.59631 0.0
H2230 H 0.22797 0.62912 0.58063 0.0
H2231 H 0.22661 0.66457 0.57551 0.0
H2232 H 0.17345 0.64463 0.56386 0.0
H2233 H 0.14137 0.61785 0.52772 0.0
loop_
_geom_bond_atom_site_label_1
_geom_bond_atom_site_label_2
_geom_bond_distance
_geom_bond_site_symmetry_2
_ccdc_geom_bond_type
Tb0 C9 2.764 . S
Tb0 O10 2.325 . S
Tb0 O13 2.303 . S
Tb0 O17 2.322 . S
Tb0 O18 2.349 . S
Tb0 O21 2.415 . S
Tb0 O22 2.399 . S
Tb1 O11 2.322 . S
Tb1 O12 2.349 . S
Tb1 O14 2.415 . S
Tb1 O15 2.399 . S
Tb1 O16 2.325 . S
Tb1 O19 2.303 . S
Tb1 C30 2.764 . S
C2 O18 1.261 . S
C2 O19 1.257 . S
C3 C6 1.358 . S
C3 C7 1.332 . S
C3 C9 1.504 . S
C4 C5 1.373 . S
C4 C8 1.308 . S
C5 C4 1.373 . S
C5 C6 1.429 . S
C5 H32 0.932 . S
C6 C3 1.358 . S
C6 C5 1.429 . S
C6 H33 0.930 . S
C7 C3 1.332 . S
C7 C8 1.394 . S
C7 H34 0.932 . S
C8 C4 1.308 . S
C8 C7 1.394 . S
C8 H35 0.929 . S
C9 Tb0 2.764 . S
C9 C3 1.504 . S
C9 O21 1.239 . S
C9 O22 1.263 . S
O10 Tb0 2.325 . S
O10 C20 1.236 . S
O11 Tb1 2.322 . S
O11 C20 1.257 . S
O12 Tb1 2.349 . S
O12 C23 1.261 . S
O13 Tb0 2.303 . S
O13 C23 1.257 . S
O14 Tb1 2.415 . S
O14 C30 1.239 . S
O15 Tb1 2.399 . S
O15 C30 1.263 . S
O16 Tb1 2.325 . S
O16 C31 1.236 . S
O17 Tb0 2.322 . S
O17 C31 1.257 . S
O18 Tb0 2.349 . S
O18 C2 1.261 . S
O19 Tb1 2.303 . S
O19 C2 1.257 . S
C20 O10 1.236 . S
C20 O11 1.257 . S
O21 Tb0 2.415 . S
O21 C9 1.239 . S
O22 Tb0 2.399 . S
O22 C9 1.263 . S
C23 O12 1.261 . S
C23 O13 1.257 . S
C24 C27 1.358 . S
C24 C28 1.332 . S
C24 C30 1.504 . S
C25 C26 1.373 . S
C25 C29 1.308 . S
C26 C25 1.373 . S
C26 C27 1.429 . S
C26 H36 0.932 . S
C27 C24 1.358 . S
C27 C26 1.429 . S
C27 H37 0.930 . S
C28 C24 1.332 . S
C28 C29 1.394 . S
C28 H38 0.932 . S
C29 C25 1.308 . S
C29 C28 1.394 . S
C29 H39 0.929 . S
C30 Tb1 2.764 . S
C30 O14 1.239 . S
C30 O15 1.263 . S
C30 C24 1.504 . S
C31 O16 1.236 . S
C31 O17 1.257 . S
H32 C5 0.932 . S
H33 C6 0.930 . S
H34 C7 0.932 . S
H35 C8 0.929 . S
H36 C26 0.932 . S
H37 C27 0.930 . S
H38 C28 0.932 . S
H39 C29 0.929 . S
Tb40 C49 2.764 . S
Tb40 O50 2.325 . S
Tb40 O53 2.303 . S
Tb40 O57 2.322 . S
Tb40 O58 2.349 . S
Tb40 O61 2.415 . S
Tb40 O62 2.399 . S
Tb41 O51 2.322 . S
Tb41 O52 2.349 . S
Tb41 O54 2.415 . S
Tb41 O55 2.399 . S
Tb41 O56 2.325 . S
Tb41 O59 2.303 . S
Tb41 C70 2.764 . S
C42 O58 1.261 . S
C42 O59 1.257 . S
C43 C46 1.358 . S
C43 C47 1.332 . S
C43 C49 1.504 . S
C44 C45 1.373 . S
C44 C48 1.308 . S
C45 C44 1.373 . S
C45 C46 1.429 . S
C45 H72 0.932 . S
C46 C43 1.358 . S
C46 C45 1.429 . S
C46 H73 0.930 . S
C47 C43 1.332 . S
C47 C48 1.394 . S
C47 H74 0.932 . S
C48 C44 1.308 . S
C48 C47 1.394 . S
C48 H75 0.929 . S
C49 Tb40 2.764 . S
C49 C43 1.504 . S
C49 O61 1.239 . S
C49 O62 1.263 . S
O50 Tb40 2.325 . S
O50 C60 1.236 . S
O51 Tb41 2.322 . S
O51 C60 1.257 . S
O52 Tb41 2.349 . S
O52 C63 1.261 . S
O53 Tb40 2.303 . S
O53 C63 1.257 . S
O54 Tb41 2.415 . S
O54 C70 1.239 . S
O55 Tb41 2.399 . S
O55 C70 1.263 . S
O56 Tb41 2.325 . S
O56 C71 1.236 . S
O57 Tb40 2.322 . S
O57 C71 1.257 . S
O58 Tb40 2.349 . S
O58 C42 1.261 . S
O59 Tb41 2.303 . S
O59 C42 1.257 . S
C60 O50 1.236 . S
C60 O51 1.257 . S
O61 Tb40 2.415 . S
O61 C49 1.239 . S
O62 Tb40 2.399 . S
O62 C49 1.263 . S
C63 O52 1.261 . S
C63 O53 1.257 . S
C64 C67 1.358 . S
C64 C68 1.332 . S
C64 C70 1.504 . S
C65 C66 1.373 . S
C65 C69 1.308 . S
C66 C65 1.373 . S
C66 C67 1.429 . S
C66 H76 0.932 . S
C67 C64 1.358 . S
C67 C66 1.429 . S
C67 H77 0.930 . S
C68 C64 1.332 . S
C68 C69 1.394 . S
C68 H78 0.932 . S
C69 C65 1.308 . S
C69 C68 1.394 . S
C69 H79 0.929 . S
C70 Tb41 2.764 . S
C70 O54 1.239 . S
C70 O55 1.263 . S
C70 C64 1.504 . S
C71 O56 1.236 . S
C71 O57 1.257 . S
H72 C45 0.932 . S
H73 C46 0.930 . S
H74 C47 0.932 . S
H75 C48 0.929 . S
H76 C66 0.932 . S
H77 C67 0.930 . S
H78 C68 0.932 . S
H79 C69 0.929 . S
Tb80 C89 2.764 . S
Tb80 O90 2.325 . S
Tb80 O93 2.303 . S
Tb80 O97 2.322 . S
Tb80 O98 2.349 . S
Tb80 O101 2.415 . S
Tb80 O102 2.399 . S
Tb81 O91 2.322 . S
Tb81 O92 2.349 . S
Tb81 O94 2.415 . S
Tb81 O95 2.399 . S
Tb81 O96 2.325 . S
Tb81 O99 2.303 . S
Tb81 C110 2.764 . S
C82 O98 1.261 . S
C82 O99 1.257 . S
C83 C86 1.358 . S
C83 C87 1.332 . S
C83 C89 1.504 . S
C84 C85 1.373 . S
C84 C88 1.308 . S
C85 C84 1.373 . S
C85 C86 1.429 . S
C85 H112 0.932 . S
C86 C83 1.358 . S
C86 C85 1.429 . S
C86 H113 0.930 . S
C87 C83 1.332 . S
C87 C88 1.394 . S
C87 H114 0.932 . S
C88 C84 1.308 . S
C88 C87 1.394 . S
C88 H115 0.929 . S
C89 Tb80 2.764 . S
C89 C83 1.504 . S
C89 O101 1.239 . S
C89 O102 1.263 . S
O90 Tb80 2.325 . S
O90 C100 1.236 . S
O91 Tb81 2.322 . S
O91 C100 1.257 . S
O92 Tb81 2.349 . S
O92 C103 1.261 . S
O93 Tb80 2.303 . S
O93 C103 1.257 . S
O94 Tb81 2.415 . S
O94 C110 1.239 . S
O95 Tb81 2.399 . S
O95 C110 1.263 . S
O96 Tb81 2.325 . S
O96 C111 1.236 . S
O97 Tb80 2.322 . S
O97 C111 1.257 . S
O98 Tb80 2.349 . S
O98 C82 1.261 . S
O99 Tb81 2.303 . S
O99 C82 1.257 . S
C100 O90 1.236 . S
C100 O91 1.257 . S
O101 Tb80 2.415 . S
O101 C89 1.239 . S
O102 Tb80 2.399 . S
O102 C89 1.263 . S
C103 O92 1.261 . S
C103 O93 1.257 . S
C104 C107 1.358 . S
C104 C108 1.332 . S
C104 C110 1.504 . S
C105 C106 1.373 . S
C105 C109 1.308 . S
C106 C105 1.373 . S
C106 C107 1.429 . S
C106 H116 0.932 . S
C107 C104 1.358 . S
C107 C106 1.429 . S
C107 H117 0.930 . S
C108 C104 1.332 . S
C108 C109 1.394 . S
C108 H118 0.932 . S
C109 C105 1.308 . S
C109 C108 1.394 . S
C109 H119 0.929 . S
C110 Tb81 2.764 . S
C110 O94 1.239 . S
C110 O95 1.263 . S
C110 C104 1.504 . S
C111 O96 1.236 . S
C111 O97 1.257 . S
H112 C85 0.932 . S
H113 C86 0.930 . S
H114 C87 0.932 . S
H115 C88 0.929 . S
H116 C106 0.932 . S
H117 C107 0.930 . S
H118 C108 0.932 . S
H119 C109 0.929 . S
Tb120 C129 2.764 . S
Tb120 O130 2.325 . S
Tb120 O133 2.303 . S
Tb120 O137 2.322 . S
Tb120 O138 2.349 . S
Tb120 O141 2.415 . S
Tb120 O142 2.399 . S
Tb121 O131 2.322 . S
Tb121 O132 2.349 . S
Tb121 O134 2.415 . S
Tb121 O135 2.399 . S
Tb121 O136 2.325 . S
Tb121 O139 2.303 . S
Tb121 C150 2.764 . S
C122 O138 1.261 . S
C122 O139 1.257 . S
C123 C126 1.358 . S
C123 C127 1.332 . S
C123 C129 1.504 . S
C124 C125 1.373 . S
C124 C128 1.308 . S
C125 C124 1.373 . S
C125 C126 1.429 . S
C125 H152 0.932 . S
C126 C123 1.358 . S
C126 C125 1.429 . S
C126 H153 0.930 . S
C127 C123 1.332 . S
C127 C128 1.394 . S
C127 H154 0.932 . S
C128 C124 1.308 . S
C128 C127 1.394 . S
C128 H155 0.929 . S
C129 Tb120 2.764 . S
C129 C123 1.504 . S
C129 O141 1.239 . S
C129 O142 1.263 . S
O130 Tb120 2.325 . S
O130 C140 1.236 . S
O131 Tb121 2.322 . S
O131 C140 1.257 . S
O132 Tb121 2.349 . S
O132 C143 1.261 . S
O133 Tb120 2.303 . S
O133 C143 1.257 . S
O134 Tb121 2.415 . S
O134 C150 1.239 . S
O135 Tb121 2.399 . S
O135 C150 1.263 . S
O136 Tb121 2.325 . S
O136 C151 1.236 . S
O137 Tb120 2.322 . S
O137 C151 1.257 . S
O138 Tb120 2.349 . S
O138 C122 1.261 . S
O139 Tb121 2.303 . S
O139 C122 1.257 . S
C140 O130 1.236 . S
C140 O131 1.257 . S
O141 Tb120 2.415 . S
O141 C129 1.239 . S
O142 Tb120 2.399 . S
O142 C129 1.263 . S
C143 O132 1.261 . S
C143 O133 1.257 . S
C144 C147 1.358 . S
C144 C148 1.332 . S
C144 C150 1.504 . S
C145 C146 1.373 . S
C145 C149 1.308 . S
C146 C145 1.373 . S
C146 C147 1.429 . S
C146 H156 0.932 . S
C147 C144 1.358 . S
C147 C146 1.429 . S
C147 H157 0.930 . S
C148 C144 1.332 . S
C148 C149 1.394 . S
C148 H158 0.932 . S
C149 C145 1.308 . S
C149 C148 1.394 . S
C149 H159 0.929 . S
C150 Tb121 2.764 . S
C150 O134 1.239 . S
C150 O135 1.263 . S
C150 C144 1.504 . S
C151 O136 1.236 . S
C151 O137 1.257 . S
H152 C125 0.932 . S
H153 C126 0.930 . S
H154 C127 0.932 . S
H155 C128 0.929 . S
H156 C146 0.932 . S
H157 C147 0.930 . S
H158 C148 0.932 . S
H159 C149 0.929 . S
Tb160 C169 2.764 . S
Tb160 O170 2.325 . S
Tb160 O173 2.303 . S
Tb160 O177 2.322 . S
Tb160 O178 2.349 . S
Tb160 O181 2.415 . S
Tb160 O182 2.399 . S
Tb161 O171 2.322 . S
Tb161 O172 2.349 . S
Tb161 O174 2.415 . S
Tb161 O175 2.399 . S
Tb161 O176 2.325 . S
Tb161 O179 2.303 . S
Tb161 C190 2.764 . S
C162 O178 1.261 . S
C162 O179 1.257 . S
C163 C166 1.358 . S
C163 C167 1.332 . S
C163 C169 1.504 . S
C164 C165 1.373 . S
C164 C168 1.308 . S
C165 C164 1.373 . S
C165 C166 1.429 . S
C165 H192 0.932 . S
C166 C163 1.358 . S
C166 C165 1.429 . S
C166 H193 0.930 . S
C167 C163 1.332 . S
C167 C168 1.394 . S
C167 H194 0.932 . S
C168 C164 1.308 . S
C168 C167 1.394 . S
C168 H195 0.929 . S
C169 Tb160 2.764 . S
C169 C163 1.504 . S
C169 O181 1.239 . S
C169 O182 1.263 . S
O170 Tb160 2.325 . S
O170 C180 1.236 . S
O171 Tb161 2.322 . S
O171 C180 1.257 . S
O172 Tb161 2.349 . S
O172 C183 1.261 . S
O173 Tb160 2.303 . S
O173 C183 1.257 . S
O174 Tb161 2.415 . S
O174 C190 1.239 . S
O175 Tb161 2.399 . S
O175 C190 1.263 . S
O176 Tb161 2.325 . S
O176 C191 1.236 . S
O177 Tb160 2.322 . S
O177 C191 1.257 . S
O178 Tb160 2.349 . S
O178 C162 1.261 . S
O179 Tb161 2.303 . S
O179 C162 1.257 . S
C180 O170 1.236 . S
C180 O171 1.257 . S
O181 Tb160 2.415 . S
O181 C169 1.239 . S
O182 Tb160 2.399 . S
O182 C169 1.263 . S
C183 O172 1.261 . S
C183 O173 1.257 . S
C184 C187 1.358 . S
C184 C188 1.332 . S
C184 C190 1.504 . S
C185 C186 1.373 . S
C185 C189 1.308 . S
C186 C185 1.373 . S
C186 C187 1.429 . S
C186 H196 0.932 . S
C187 C184 1.358 . S
C187 C186 1.429 . S
C187 H197 0.930 . S
C188 C184 1.332 . S
C188 C189 1.394 . S
C188 H198 0.932 . S
C189 C185 1.308 . S
C189 C188 1.394 . S
C189 H199 0.929 . S
C190 Tb161 2.764 . S
C190 O174 1.239 . S
C190 O175 1.263 . S
C190 C184 1.504 . S
C191 O176 1.236 . S
C191 O177 1.257 . S
H192 C165 0.932 . S
H193 C166 0.930 . S
H194 C167 0.932 . S
H195 C168 0.929 . S
H196 C186 0.932 . S
H197 C187 0.930 . S
H198 C188 0.932 . S
H199 C189 0.929 . S
Tb200 C209 2.764 . S
Tb200 O210 2.325 . S
Tb200 O213 2.303 . S
Tb200 O217 2.322 . S
Tb200 O218 2.349 . S
Tb200 O221 2.415 . S
Tb200 O222 2.399 . S
Tb201 O211 2.322 . S
Tb201 O212 2.349 . S
Tb201 O214 2.415 . S
Tb201 O215 2.399 . S
Tb201 O216 2.325 . S
Tb201 O219 2.303 . S
Tb201 C230 2.764 . S
C202 O218 1.261 . S
C202 O219 1.257 . S
C203 C206 1.358 . S
C203 C207 1.332 . S
C203 C209 1.504 . S
C204 C205 1.373 . S
C204 C208 1.308 . S
C205 C204 1.373 . S
C205 C206 1.429 . S
C205 H232 0.932 . S
C206 C203 1.358 . S
C206 C205 1.429 . S
C206 H233 0.930 . S
C207 C203 1.332 . S
C207 C208 1.394 . S
C207 H234 0.932 . S
C208 C204 1.308 . S
C208 C207 1.394 . S
C208 H235 0.929 . S
C209 Tb200 2.764 . S
C209 C203 1.504 . S
C209 O221 1.239 . S
C209 O222 1.263 . S
O210 Tb200 2.325 . S
O210 C220 1.236 . S
O211 Tb201 2.322 . S
O211 C220 1.257 . S
O212 Tb201 2.349 . S
O212 C223 1.261 . S
O213 Tb200 2.303 . S
O213 C223 1.257 . S
O214 Tb201 2.415 . S
O214 C230 1.239 . S
O215 Tb201 2.399 . S
O215 C230 1.263 . S
O216 Tb201 2.325 . S
O216 C231 1.236 . S
O217 Tb200 2.322 . S
O217 C231 1.257 . S
O218 Tb200 2.349 . S
O218 C202 1.261 . S
O219 Tb201 2.303 . S
O219 C202 1.257 . S
C220 O210 1.236 . S
C220 O211 1.257 . S
O221 Tb200 2.415 . S
O221 C209 1.239 . S
O222 Tb200 2.399 . S
O222 C209 1.263 . S
C223 O212 1.261 . S
C223 O213 1.257 . S
C224 C227 1.358 . S
C224 C228 1.332 . S
C224 C230 1.504 . S
C225 C226 1.373 . S
C225 C229 1.308 . S
C226 C225 1.373 . S
C226 C227 1.429 . S
C226 H236 0.932 . S
C227 C224 1.358 . S
C227 C226 1.429 . S
C227 H237 0.930 . S
C228 C224 1.332 . S
C228 C229 1.394 . S
C228 H238 0.932 . S
C229 C225 1.308 . S
C229 C228 1.394 . S
C229 H239 0.929 . S
C230 Tb201 2.764 . S
C230 O214 1.239 . S
C230 O215 1.263 . S
C230 C224 1.504 . S
C231 O216 1.236 . S
C231 O217 1.257 . S
H232 C205 0.932 . S
H233 C206 0.930 . S
H234 C207 0.932 . S
H235 C208 0.929 . S
H236 C226 0.932 . S
H237 C227 0.930 . S
H238 C228 0.932 . S
H239 C229 0.929 . S
Tb240 C249 2.764 . S
Tb240 O250 2.325 . S
Tb240 O253 2.303 . S
Tb240 O257 2.322 . S
Tb240 O258 2.349 . S
Tb240 O261 2.415 . S
Tb240 O262 2.399 . S
Tb241 O251 2.322 . S
Tb241 O252 2.349 . S
Tb241 O254 2.415 . S
Tb241 O255 2.399 . S
Tb241 O256 2.325 . S
Tb241 O259 2.303 . S
Tb241 C270 2.764 . S
C242 O258 1.261 . S
C242 O259 1.257 . S
C243 C246 1.358 . S
C243 C247 1.332 . S
C243 C249 1.504 . S
C244 C245 1.373 . S
C244 C248 1.308 . S
C245 C244 1.373 . S
C245 C246 1.429 . S
C245 H272 0.932 . S
C246 C243 1.358 . S
C246 C245 1.429 . S
C246 H273 0.930 . S
C247 C243 1.332 . S
C247 C248 1.394 . S
C247 H274 0.932 . S
C248 C244 1.308 . S
C248 C247 1.394 . S
C248 H275 0.929 . S
C249 Tb240 2.764 . S
C249 C243 1.504 . S
C249 O261 1.239 . S
C249 O262 1.263 . S
O250 Tb240 2.325 . S
O250 C260 1.236 . S
O251 Tb241 2.322 . S
O251 C260 1.257 . S
O252 Tb241 2.349 . S
O252 C263 1.261 . S
O253 Tb240 2.303 . S
O253 C263 1.257 . S
O254 Tb241 2.415 . S
O254 C270 1.239 . S
O255 Tb241 2.399 . S
O255 C270 1.263 . S
O256 Tb241 2.325 . S
O256 C271 1.236 . S
O257 Tb240 2.322 . S
O257 C271 1.257 . S
O258 Tb240 2.349 . S
O258 C242 1.261 . S
O259 Tb241 2.303 . S
O259 C242 1.257 . S
C260 O250 1.236 . S
C260 O251 1.257 . S
O261 Tb240 2.415 . S
O261 C249 1.239 . S
O262 Tb240 2.399 . S
O262 C249 1.263 . S
C263 O252 1.261 . S
C263 O253 1.257 . S
C264 C267 1.358 . S
C264 C268 1.332 . S
C264 C270 1.504 . S
C265 C266 1.373 . S
C265 C269 1.308 . S
C266 C265 1.373 . S
C266 C267 1.429 . S
C266 H276 0.932 . S
C267 C264 1.358 . S
C267 C266 1.429 . S
C267 H277 0.930 . S
C268 C264 1.332 . S
C268 C269 1.394 . S
C268 H278 0.932 . S
C269 C265 1.308 . S
C269 C268 1.394 . S
C269 H279 0.929 . S
C270 Tb241 2.764 . S
C270 O254 1.239 . S
C270 O255 1.263 . S
C270 C264 1.504 . S
C271 O256 1.236 . S
C271 O257 1.257 . S
H272 C245 0.932 . S
H273 C246 0.930 . S
H274 C247 0.932 . S
H275 C248 0.929 . S
H276 C266 0.932 . S
H277 C267 0.930 . S
H278 C268 0.932 . S
H279 C269 0.929 . S
Tb280 C289 2.764 . S
Tb280 O290 2.325 . S
Tb280 O293 2.303 . S
Tb280 O297 2.322 . S
Tb280 O298 2.349 . S
Tb280 O301 2.415 . S
Tb280 O302 2.399 . S
Tb281 O291 2.322 . S
Tb281 O292 2.349 . S
Tb281 O294 2.415 . S
Tb281 O295 2.399 . S
Tb281 O296 2.325 . S
Tb281 O299 2.303 . S
Tb281 C310 2.764 . S
C282 O298 1.261 . S
C282 O299 1.257 . S
C283 C286 1.358 . S
C283 C287 1.332 . S
C283 C289 1.504 . S
C284 C285 1.373 . S
C284 C288 1.308 . S
C285 C284 1.373 . S
C285 C286 1.429 . S
C285 H312 0.932 . S
C286 C283 1.358 . S
C286 C285 1.429 . S
C286 H313 0.930 . S
C287 C283 1.332 . S
C287 C288 1.394 . S
C287 H314 0.932 . S
C288 C284 1.308 . S
C288 C287 1.394 . S
C288 H315 0.929 . S
C289 Tb280 2.764 . S
C289 C283 1.504 . S
C289 O301 1.239 . S
C289 O302 1.263 . S
O290 Tb280 2.325 . S
O290 C300 1.236 . S
O291 Tb281 2.322 . S
O291 C300 1.257 . S
O292 Tb281 2.349 . S
O292 C303 1.261 . S
O293 Tb280 2.303 . S
O293 C303 1.257 . S
O294 Tb281 2.415 . S
O294 C310 1.239 . S
O295 Tb281 2.399 . S
O295 C310 1.263 . S
O296 Tb281 2.325 . S
O296 C311 1.236 . S
O297 Tb280 2.322 . S
O297 C311 1.257 . S
O298 Tb280 2.349 . S
O298 C282 1.261 . S
O299 Tb281 2.303 . S
O299 C282 1.257 . S
C300 O290 1.236 . S
C300 O291 1.257 . S
O301 Tb280 2.415 . S
O301 C289 1.239 . S
O302 Tb280 2.399 . S
O302 C289 1.263 . S
C303 O292 1.261 . S
C303 O293 1.257 . S
C304 C307 1.358 . S
C304 C308 1.332 . S
C304 C310 1.504 . S
C305 C306 1.373 . S
C305 C309 1.308 . S
C306 C305 1.373 . S
C306 C307 1.429 . S
C306 H316 0.932 . S
C307 C304 1.358 . S
C307 C306 1.429 . S
C307 H317 0.930 . S
C308 C304 1.332 . S
C308 C309 1.394 . S
C308 H318 0.932 . S
C309 C305 1.308 . S
C309 C308 1.394 . S
C309 H319 0.929 . S
C310 Tb281 2.764 . S
C310 O294 1.239 . S
C310 O295 1.263 . S
C310 C304 1.504 . S
C311 O296 1.236 . S
C311 O297 1.257 . S
H312 C285 0.932 . S
H313 C286 0.930 . S
H314 C287 0.932 . S
H315 C288 0.929 . S
H316 C306 0.932 . S
H317 C307 0.930 . S
H318 C308 0.932 . S
H319 C309 0.929 . S
C320 O332 1.241 . S
C320 O333 1.280 . S
C321 O334 1.277 . S
C321 O335 1.245 . S
C322 O346 1.247 . S
C322 O348 1.289 . S
Mg323 O324 1.926 1_455 S
Mg323 O333 1.984 1_455 S
Mg323 O335 1.988 1_455 S
Mg323 O336 2.061 . S
O324 Mg323 1.926 1_655 S
O324 Mg325 1.986 . S
O324 Mg326 1.917 1_655 S
Mg325 O324 1.986 . S
Mg325 O332 2.042 . S
Mg325 O334 2.041 . S
Mg325 O340 2.038 1_545 S
Mg325 O348 2.238 1_545 S
Mg326 O324 1.917 1_455 S
Mg326 O327 1.917 1_545 S
Mg326 O337 2.106 . S
Mg326 O339 2.072 1_445 S
Mg326 O348 2.106 1_445 S
Mg326 O349 2.079 . S
O327 Mg326 1.917 1_565 S
O327 Mg328 1.926 . S
O327 Mg329 1.986 1_565 S
Mg328 O327 1.926 . S
Mg328 O342 1.984 . S
Mg328 O345 1.988 . S
Mg328 O346 2.061 1_455 S
Mg329 O327 1.986 1_545 S
Mg329 O337 2.238 . S
Mg329 O341 2.022 1_545 S
Mg329 O343 2.041 1_545 S
Mg329 O350 2.038 . S
C330 O336 1.247 . S
C330 O337 1.289 . S
C331 O349 1.245 . S
C331 O350 1.274 . S
O332 C320 1.241 . S
O332 Mg325 2.042 . S
O333 C320 1.280 . S
O333 Mg323 1.984 1_655 S
O334 C321 1.277 . S
O334 Mg325 2.041 . S
O335 C321 1.245 . S
O335 Mg323 1.988 1_655 S
O336 Mg323 2.061 . S
O336 C330 1.247 . S
O337 Mg326 2.106 . S
O337 Mg329 2.238 . S
O337 C330 1.289 . S
C338 O339 1.277 . S
C338 O340 1.274 . S
O339 Mg326 2.072 1_665 S
O339 C338 1.277 . S
O340 Mg325 2.038 1_565 S
O340 C338 1.274 . S
O341 Mg329 2.022 1_565 S
O341 C344 1.260 . S
O342 Mg328 1.984 . S
O342 C344 1.280 . S
O343 Mg329 2.041 1_565 S
O343 C347 1.277 . S
C344 O341 1.260 . S
C344 O342 1.280 . S
O345 Mg328 1.988 . S
O345 C347 1.245 . S
O346 C322 1.247 . S
O346 Mg328 2.061 1_655 S
C347 O343 1.277 . S
C347 O345 1.245 . S
O348 C322 1.289 . S
O348 Mg325 2.238 1_565 S
O348 Mg326 2.106 1_665 S
O349 Mg326 2.079 . S
O349 C331 1.245 . S
O350 Mg329 2.038 . S
O350 C331 1.274 . S
C351 O363 1.241 . S
C351 O364 1.280 . S
C352 O365 1.277 1_556 S
C352 O366 1.245 1_556 S
C353 O377 1.241 1_556 S
C353 O379 1.271 1_566 S
Mg354 O355 1.926 . S
Mg354 O364 1.984 . S
Mg354 O366 1.988 . S
Mg354 O367 2.061 . S
O355 Mg354 1.926 . S
O355 Mg356 1.986 . S
O355 Mg357 1.917 . S
Mg356 O355 1.986 . S
Mg356 O363 2.042 . S
Mg356 O365 2.041 . S
Mg356 O371 2.038 1_545 S
Mg356 O379 2.238 . S
Mg357 O355 1.917 . S
Mg357 O358 1.917 . S
Mg357 O368 2.106 . S
Mg357 O370 2.100 . S
Mg357 O379 2.106 . S
Mg357 O380 2.079 . S
O358 Mg357 1.917 . S
O358 Mg359 1.926 1_545 S
O358 Mg360 1.986 . S
Mg359 O358 1.926 1_565 S
Mg359 O373 1.984 . S
Mg359 O376 1.988 . S
Mg359 O377 2.061 . S
Mg360 O358 1.986 . S
Mg360 O368 2.238 . S
Mg360 O372 2.042 . S
Mg360 O374 2.041 . S
Mg360 O381 2.038 . S
C361 O367 1.247 . S
C361 O368 1.289 . S
C362 O380 1.245 1_556 S
C362 O381 1.274 1_556 S
O363 C351 1.241 . S
O363 Mg356 2.042 . S
O364 C351 1.280 . S
O364 Mg354 1.984 . S
O365 C352 1.277 1_554 S
O365 Mg356 2.041 . S
O366 C352 1.245 1_554 S
O366 Mg354 1.988 . S
O367 Mg354 2.061 . S
O367 C361 1.247 . S
O368 Mg357 2.106 . S
O368 Mg360 2.238 . S
O368 C361 1.289 . S
C369 O370 1.251 1_565 S
C369 O371 1.274 . S
O370 Mg357 2.100 . S
O370 C369 1.251 1_545 S
O371 Mg356 2.038 1_565 S
O371 C369 1.274 . S
O372 Mg360 2.042 . S
O372 C375 1.236 1_544 S
O373 Mg359 1.984 . S
O373 C375 1.278 1_554 S
O374 Mg360 2.041 . S
O374 C378 1.277 1_545 S
C375 O372 1.236 1_566 S
C375 O373 1.278 1_556 S
O376 Mg359 1.988 . S
O376 C378 1.245 . S
O377 C353 1.241 1_554 S
O377 Mg359 2.061 . S
C378 O374 1.277 1_565 S
C378 O376 1.245 . S
O379 C353 1.271 1_544 S
O379 Mg356 2.238 . S
O379 Mg357 2.106 . S
O380 Mg357 2.079 . S
O380 C362 1.245 1_554 S
O381 Mg360 2.038 . S
O381 C362 1.274 1_554 S
C382 O394 1.241 . S
C382 O395 1.280 . S
C383 O396 1.277 . S
C383 O397 1.245 . S
C384 O408 1.247 . S
C384 O410 1.289 . S
Mg385 O386 1.926 . S
Mg385 O395 1.984 . S
Mg385 O397 1.988 1_554 S
Mg385 O398 2.061 1_655 S
O386 Mg385 1.926 . S
O386 Mg387 1.978 1_554 S
O386 Mg388 1.917 1_655 S
Mg387 O386 1.978 1_556 S
Mg387 O394 2.011 1_556 S
Mg387 O396 2.075 . S
Mg387 O402 2.006 1_556 S
Mg387 O410 2.264 . S
Mg388 O386 1.917 1_455 S
Mg388 O389 1.917 1_554 S
Mg388 O399 2.106 . S
Mg388 O401 2.079 1_455 S
Mg388 O410 2.106 1_454 S
Mg388 O411 2.079 1_554 S
O389 Mg388 1.917 1_556 S
O389 Mg390 1.926 . S
O389 Mg391 1.986 1_556 S
Mg390 O389 1.926 . S
Mg390 O404 1.984 . S
Mg390 O407 1.988 1_556 S
Mg390 O408 2.061 1_455 S
Mg391 O389 1.986 1_554 S
Mg391 O399 2.238 . S
Mg391 O403 2.042 1_554 S
Mg391 O405 2.041 . S
Mg391 O412 2.038 1_554 S
C392 O398 1.247 . S
C392 O399 1.289 . S
C393 O411 1.245 . S
C393 O412 1.274 . S
O394 C382 1.241 . S
O394 Mg387 2.011 1_554 S
O395 C382 1.280 . S
O395 Mg385 1.984 . S
O396 C383 1.277 . S
O396 Mg387 2.075 . S
O397 C383 1.245 . S
O397 Mg385 1.988 1_556 S
O398 Mg385 2.061 1_455 S
O398 C392 1.247 . S
O399 Mg388 2.106 . S
O399 Mg391 2.238 . S
O399 C392 1.289 . S
C400 O401 1.245 . S
C400 O402 1.274 . S
O401 Mg388 2.079 1_655 S
O401 C400 1.245 . S
O402 Mg387 2.006 1_554 S
O402 C400 1.274 . S
O403 Mg391 2.042 1_556 S
O403 C406 1.241 . S
O404 Mg390 1.984 . S
O404 C406 1.280 . S
O405 Mg391 2.041 . S
O405 C409 1.277 . S
C406 O403 1.241 . S
C406 O404 1.280 . S
O407 Mg390 1.988 1_554 S
O407 C409 1.245 . S
O408 C384 1.247 . S
O408 Mg390 2.061 1_655 S
C409 O405 1.277 . S
C409 O407 1.245 . S
O410 C384 1.289 . S
O410 Mg387 2.264 . S
O410 Mg388 2.106 1_656 S
O411 Mg388 2.079 1_556 S
O411 C393 1.245 . S
O412 Mg391 2.038 1_556 S
O412 C393 1.274 . S
C413 O425 1.241 . S
C413 O426 1.280 . S
C414 O427 1.277 . S
C414 O428 1.245 . S
C415 O439 1.247 . S
C415 O441 1.289 . S
Mg416 O417 1.926 . S
Mg416 O426 1.984 . S
Mg416 O428 1.988 1_554 S
Mg416 O429 2.061 . S
O417 Mg416 1.926 . S
O417 Mg418 1.986 . S
O417 Mg419 1.917 . S
Mg418 O417 1.986 . S
Mg418 O425 2.042 . S
Mg418 O427 2.041 1_554 S
Mg418 O433 2.038 . S
Mg418 O441 2.238 1_554 S
Mg419 O417 1.917 . S
Mg419 O420 1.917 . S
Mg419 O430 2.106 . S
Mg419 O432 2.079 . S
Mg419 O441 2.106 1_554 S
Mg419 O442 2.079 1_554 S
O420 Mg419 1.917 . S
O420 Mg421 1.926 . S
O420 Mg422 1.986 . S
Mg421 O420 1.926 . S
Mg421 O435 1.984 1_554 S
Mg421 O438 1.988 . S
Mg421 O439 2.061 1_554 S
Mg422 O420 1.986 . S
Mg422 O430 2.238 . S
Mg422 O434 2.042 1_554 S
Mg422 O436 2.041 . S
Mg422 O443 2.038 1_554 S
C423 O429 1.247 . S
C423 O430 1.289 . S
C424 O442 1.245 . S
C424 O443 1.274 . S
O425 C413 1.241 . S
O425 Mg418 2.042 . S
O426 C413 1.280 . S
O426 Mg416 1.984 . S
O427 C414 1.277 . S
O427 Mg418 2.041 1_556 S
O428 C414 1.245 . S
O428 Mg416 1.988 1_556 S
O429 Mg416 2.061 . S
O429 C423 1.247 . S
O430 Mg419 2.106 . S
O430 Mg422 2.238 . S
O430 C423 1.289 . S
C431 O432 1.245 . S
C431 O433 1.274 . S
O432 Mg419 2.079 . S
O432 C431 1.245 . S
O433 Mg418 2.038 . S
O433 C431 1.274 . S
O434 Mg422 2.042 1_556 S
O434 C437 1.241 . S
O435 Mg421 1.984 1_556 S
O435 C437 1.280 . S
O436 Mg422 2.041 . S
O436 C440 1.277 . S
C437 O434 1.241 . S
C437 O435 1.280 . S
O438 Mg421 1.988 . S
O438 C440 1.245 . S
O439 C415 1.247 . S
O439 Mg421 2.061 1_556 S
C440 O436 1.277 . S
C440 O438 1.245 . S
O441 C415 1.289 . S
O441 Mg418 2.238 1_556 S
O441 Mg419 2.106 1_556 S
O442 Mg419 2.079 1_556 S
O442 C424 1.245 . S
O443 Mg422 2.038 1_556 S
O443 C424 1.274 . S
C444 O456 1.241 . S
C444 O457 1.280 . S
C445 O458 1.277 . S
C445 O459 1.245 1_655 S
C446 O470 1.247 . S
C446 O472 1.289 . S
Mg447 O448 1.926 . S
Mg447 O457 1.984 1_455 S
Mg447 O459 1.988 . S
Mg447 O460 2.061 . S
O448 Mg447 1.926 . S
O448 Mg449 1.986 1_455 S
O448 Mg450 1.917 . S
Mg449 O448 1.986 1_655 S
Mg449 O456 2.042 . S
Mg449 O458 2.041 . S
Mg449 O464 2.038 . S
Mg449 O472 2.238 . S
Mg450 O448 1.917 . S
Mg450 O451 1.917 . S
Mg450 O461 2.106 . S
Mg450 O463 2.079 . S
Mg450 O472 2.106 1_455 S
Mg450 O473 2.079 . S
O451 Mg450 1.917 . S
O451 Mg452 1.926 . S
O451 Mg453 1.986 . S
Mg452 O451 1.926 . S
Mg452 O466 1.984 . S
Mg452 O469 1.988 . S
Mg452 O470 2.061 1_455 S
Mg453 O451 1.986 . S
Mg453 O461 2.238 . S
Mg453 O465 2.042 . S
Mg453 O467 2.041 . S
Mg453 O474 2.038 . S
C454 O460 1.247 . S
C454 O461 1.289 . S
C455 O473 1.245 . S
C455 O474 1.274 . S
O456 C444 1.241 . S
O456 Mg449 2.042 . S
O457 C444 1.280 . S
O457 Mg447 1.984 1_655 S
O458 C445 1.277 . S
O458 Mg449 2.041 . S
O459 C445 1.245 1_455 S
O459 Mg447 1.988 . S
O460 Mg447 2.061 . S
O460 C454 1.247 . S
O461 Mg450 2.106 . S
O461 Mg453 2.238 . S
O461 C454 1.289 . S
C462 O463 1.245 1_655 S
C462 O464 1.274 . S
O463 Mg450 2.079 . S
O463 C462 1.245 1_455 S
O464 Mg449 2.038 . S
O464 C462 1.274 . S
O465 Mg453 2.042 . S
O465 C468 1.241 . S
O466 Mg452 1.984 . S
O466 C468 1.280 . S
O467 Mg453 2.041 . S
O467 C471 1.277 . S
C468 O465 1.241 . S
C468 O466 1.280 . S
O469 Mg452 1.988 . S
O469 C471 1.245 . S
O470 C446 1.247 . S
O470 Mg452 2.061 1_655 S
C471 O467 1.277 . S
C471 O469 1.245 . S
O472 C446 1.289 . S
O472 Mg449 2.238 . S
O472 Mg450 2.106 1_655 S
O473 Mg450 2.079 . S
O473 C455 1.245 . S
O474 Mg453 2.038 . S
O474 C455 1.274 . S
C475 O487 1.241 . S
C475 O488 1.280 . S
C476 O489 1.277 . S
C476 O490 1.245 . S
C477 O501 1.247 . S
C477 O503 1.289 . S
Mg478 O479 1.926 . S
Mg478 O488 1.984 . S
Mg478 O490 1.988 . S
Mg478 O491 2.061 . S
O479 Mg478 1.926 . S
O479 Mg480 1.986 . S
O479 Mg481 1.917 . S
Mg480 O479 1.986 . S
Mg480 O487 2.042 . S
Mg480 O489 2.041 . S
Mg480 O495 2.038 1_545 S
Mg480 O503 2.238 1_545 S
Mg481 O479 1.917 . S
Mg481 O482 1.917 1_545 S
Mg481 O492 2.106 . S
Mg481 O494 2.079 1_545 S
Mg481 O503 2.106 1_545 S
Mg481 O504 2.079 . S
O482 Mg481 1.917 1_565 S
O482 Mg483 1.926 . S
O482 Mg484 1.986 1_565 S
Mg483 O482 1.926 . S
Mg483 O497 1.984 . S
Mg483 O500 1.988 . S
Mg483 O501 2.061 . S
Mg484 O482 1.986 1_545 S
Mg484 O492 2.238 . S
Mg484 O496 2.042 1_545 S
Mg484 O498 2.041 1_545 S
Mg484 O505 2.038 . S
C485 O491 1.247 . S
C485 O492 1.289 . S
C486 O504 1.245 . S
C486 O505 1.274 . S
O487 C475 1.241 . S
O487 Mg480 2.042 . S
O488 C475 1.280 . S
O488 Mg478 1.984 . S
O489 C476 1.277 . S
O489 Mg480 2.041 . S
O490 C476 1.245 . S
O490 Mg478 1.988 . S
O491 Mg478 2.061 . S
O491 C485 1.247 . S
O492 Mg481 2.106 . S
O492 Mg484 2.238 . S
O492 C485 1.289 . S
C493 O494 1.245 . S
C493 O495 1.274 . S
O494 Mg481 2.079 1_565 S
O494 C493 1.245 . S
O495 Mg480 2.038 1_565 S
O495 C493 1.274 . S
O496 Mg484 2.042 1_565 S
O496 C499 1.241 . S
O497 Mg483 1.984 . S
O497 C499 1.280 . S
O498 Mg484 2.041 1_565 S
O498 C502 1.277 . S
C499 O496 1.241 . S
C499 O497 1.280 . S
O500 Mg483 1.988 . S
O500 C502 1.245 . S
O501 C477 1.247 . S
O501 Mg483 2.061 . S
C502 O498 1.277 . S
C502 O500 1.245 . S
O503 C477 1.289 . S
O503 Mg480 2.238 1_565 S
O503 Mg481 2.106 1_565 S
O504 Mg481 2.079 . S
O504 C486 1.245 . S
O505 Mg484 2.038 . S
O505 C486 1.274 . S
H506 C514 0.929 . S
H507 C516 0.930 . S
H508 C518 0.930 . S
H509 C521 0.929 . S
H510 C524 0.930 . S
H511 C526 0.960 . S
H512 C526 0.960 . S
H513 C526 0.960 . S
C514 H506 0.929 . S
C514 C515 1.377 . S
C514 C516 1.384 . S
C515 C514 1.377 . S
C515 C521 1.390 . S
C516 H507 0.930 . S
C516 C514 1.384 . S
C516 C517 1.372 . S
C517 C516 1.372 . S
C517 C518 1.400 . S
C517 C522 1.490 . S
C518 H508 0.930 . S
C518 C517 1.400 . S
C518 C521 1.386 . S
H519 C535 0.930 . S
H520 C536 0.931 . S
C521 H509 0.929 . S
C521 C515 1.390 . S
C521 C518 1.386 . S
C522 C517 1.490 . S
C522 C524 1.395 . S
C522 C525 1.403 . S
H523 C529 0.930 . S
C524 H510 0.930 . S
C524 C522 1.395 . S
C524 C527 1.403 . S
C525 C522 1.403 . S
C525 C526 1.524 . S
C525 C529 1.400 . S
C526 H511 0.960 . S
C526 H512 0.960 . S
C526 H513 0.960 . S
C526 C525 1.524 . S
C527 C524 1.403 . S
C527 C528 1.392 . S
C527 C531 1.495 . S
C528 C527 1.392 . S
C528 C529 1.385 . S
C528 C530 1.478 . S
C529 H523 0.930 . S
C529 C525 1.400 . S
C529 C528 1.385 . S
C530 C528 1.478 . S
C530 C532 1.381 . S
C530 C536 1.383 . S
C531 C527 1.495 . S
C531 H537 0.959 . S
C531 H538 0.961 . S
C531 H539 0.960 . S
C532 C530 1.381 . S
C532 C533 1.394 . S
C532 H540 0.930 . S
C533 C532 1.394 . S
C533 C534 1.383 . S
C533 H541 0.929 . S
C534 C533 1.383 . S
C534 C535 1.377 . S
C535 H519 0.930 . S
C535 C534 1.377 . S
C535 C536 1.379 . S
C536 H520 0.931 . S
C536 C530 1.383 . S
C536 C535 1.379 . S
H537 C531 0.959 . S
H538 C531 0.961 . S
H539 C531 0.960 . S
H540 C532 0.930 . S
H541 C533 0.929 . S
H542 C550 0.929 . S
H543 C552 0.930 . S
H544 C554 0.930 . S
H545 C557 0.929 . S
H546 C560 0.930 . S
H547 C562 0.960 . S
H548 C562 0.960 . S
H549 C562 0.960 . S
C550 H542 0.929 . S
C550 C551 1.377 . S
C550 C552 1.384 . S
C551 C550 1.377 . S
C551 C557 1.390 . S
C552 H543 0.930 . S
C552 C550 1.384 . S
C552 C553 1.372 . S
C553 C552 1.372 . S
C553 C554 1.400 . S
C553 C558 1.490 . S
C554 H544 0.930 . S
C554 C553 1.400 . S
C554 C557 1.386 . S
H555 C571 0.930 . S
H556 C572 0.931 . S
C557 H545 0.929 . S
C557 C551 1.390 . S
C557 C554 1.386 . S
C558 C553 1.490 . S
C558 C560 1.395 . S
C558 C561 1.403 . S
H559 C565 0.930 . S
C560 H546 0.930 . S
C560 C558 1.395 . S
C560 C563 1.403 . S
C561 C558 1.403 . S
C561 C562 1.524 . S
C561 C565 1.400 . S
C562 H547 0.960 . S
C562 H548 0.960 . S
C562 H549 0.960 . S
C562 C561 1.524 . S
C563 C560 1.403 . S
C563 C564 1.392 . S
C563 C567 1.495 . S
C564 C563 1.392 . S
C564 C565 1.385 . S
C564 C566 1.478 . S
C565 H559 0.930 . S
C565 C561 1.400 . S
C565 C564 1.385 . S
C566 C564 1.478 . S
C566 C568 1.381 . S
C566 C572 1.383 . S
C567 C563 1.495 . S
C567 H573 0.959 . S
C567 H574 0.961 . S
C567 H575 0.960 . S
C568 C566 1.381 . S
C568 C569 1.394 . S
C568 H576 0.930 . S
C569 C568 1.394 . S
C569 C570 1.383 . S
C569 H577 0.929 . S
C570 C569 1.383 . S
C570 C571 1.377 . S
C571 H555 0.930 . S
C571 C570 1.377 . S
C571 C572 1.379 . S
C572 H556 0.931 . S
C572 C566 1.383 . S
C572 C571 1.379 . S
H573 C567 0.959 . S
H574 C567 0.961 . S
H575 C567 0.960 . S
H576 C568 0.930 . S
H577 C569 0.929 . S
H578 C586 0.929 . S
H579 C588 0.930 . S
H580 C590 0.930 . S
H581 C593 0.929 . S
H582 C596 0.930 . S
H583 C598 0.960 . S
H584 C598 0.960 . S
H585 C598 0.960 . S
C586 H578 0.929 . S
C586 C587 1.377 . S
C586 C588 1.384 . S
C587 C586 1.377 . S
C587 C593 1.390 . S
C588 H579 0.930 . S
C588 C586 1.384 . S
C588 C589 1.372 . S
C589 C588 1.372 . S
C589 C590 1.400 . S
C589 C594 1.490 . S
C590 H580 0.930 . S
C590 C589 1.400 . S
C590 C593 1.386 . S
H591 C607 0.930 . S
H592 C608 0.931 . S
C593 H581 0.929 . S
C593 C587 1.390 . S
C593 C590 1.386 . S
C594 C589 1.490 . S
C594 C596 1.395 . S
C594 C597 1.403 . S
H595 C601 0.930 . S
C596 H582 0.930 . S
C596 C594 1.395 . S
C596 C599 1.403 . S
C597 C594 1.403 . S
C597 C598 1.524 . S
C597 C601 1.400 . S
C598 H583 0.960 . S
C598 H584 0.960 . S
C598 H585 0.960 . S
C598 C597 1.524 . S
C599 C596 1.403 . S
C599 C600 1.392 . S
C599 C603 1.495 . S
C600 C599 1.392 . S
C600 C601 1.385 . S
C600 C602 1.478 . S
C601 H595 0.930 . S
C601 C597 1.400 . S
C601 C600 1.385 . S
C602 C600 1.478 . S
C602 C604 1.381 . S
C602 C608 1.383 . S
C603 C599 1.495 . S
C603 H609 0.959 . S
C603 H610 0.961 . S
C603 H611 0.960 . S
C604 C602 1.381 . S
C604 C605 1.394 . S
C604 H612 0.930 . S
C605 C604 1.394 . S
C605 C606 1.383 . S
C605 H613 0.929 . S
C606 C605 1.383 . S
C606 C607 1.377 . S
C607 H591 0.930 . S
C607 C606 1.377 . S
C607 C608 1.379 . S
C608 H592 0.931 . S
C608 C602 1.383 . S
C608 C607 1.379 . S
H609 C603 0.959 . S
H610 C603 0.961 . S
H611 C603 0.960 . S
H612 C604 0.930 . S
H613 C605 0.929 . S
H614 C622 0.929 . S
H615 C624 0.930 . S
H616 C626 0.930 . S
H617 C629 0.929 . S
H618 C632 0.930 . S
H619 C634 0.960 . S
H620 C634 0.960 . S
H621 C634 0.960 . S
C622 H614 0.929 . S
C622 C623 1.377 . S
C622 C624 1.384 . S
C623 C622 1.377 . S
C623 C629 1.390 . S
C624 H615 0.930 . S
C624 C622 1.384 . S
C624 C625 1.372 . S
C625 C624 1.372 . S
C625 C626 1.400 . S
C625 C630 1.490 . S
C626 H616 0.930 . S
C626 C625 1.400 . S
C626 C629 1.386 . S
H627 C643 0.930 . S
H628 C644 0.931 . S
C629 H617 0.929 . S
C629 C623 1.390 . S
C629 C626 1.386 . S
C630 C625 1.490 . S
C630 C632 1.395 . S
C630 C633 1.403 . S
H631 C637 0.930 . S
C632 H618 0.930 . S
C632 C630 1.395 . S
C632 C635 1.403 . S
C633 C630 1.403 . S
C633 C634 1.524 . S
C633 C637 1.400 . S
C634 H619 0.960 . S
C634 H620 0.960 . S
C634 H621 0.960 . S
C634 C633 1.524 . S
C635 C632 1.403 . S
C635 C636 1.392 . S
C635 C639 1.495 . S
C636 C635 1.392 . S
C636 C637 1.385 . S
C636 C638 1.478 . S
C637 H631 0.930 . S
C637 C633 1.400 . S
C637 C636 1.385 . S
C638 C636 1.478 . S
C638 C640 1.381 . S
C638 C644 1.383 . S
C639 C635 1.495 . S
C639 H645 0.959 . S
C639 H646 0.961 1_565 S
C639 H647 0.960 . S
C640 C638 1.381 . S
C640 C641 1.394 . S
C640 H648 0.930 . S
C641 C640 1.394 . S
C641 C642 1.383 . S
C641 H649 0.929 . S
C642 C641 1.383 . S
C642 C643 1.377 . S
C643 H627 0.930 . S
C643 C642 1.377 . S
C643 C644 1.379 . S
C644 H628 0.931 . S
C644 C638 1.383 . S
C644 C643 1.379 . S
H645 C639 0.959 . S
H646 C639 0.961 1_545 S
H647 C639 0.960 . S
H648 C640 0.930 . S
H649 C641 0.929 . S
H650 C658 0.929 . S
H651 C660 0.930 . S
H652 C662 0.930 . S
H653 C665 0.929 . S
H654 C668 0.930 . S
H655 C670 0.960 . S
H656 C670 0.960 . S
H657 C670 0.960 . S
C658 H650 0.929 . S
C658 C659 1.377 . S
C658 C660 1.384 . S
C659 C658 1.377 . S
C659 C665 1.390 . S
C660 H651 0.930 . S
C660 C658 1.384 . S
C660 C661 1.372 . S
C661 C660 1.372 . S
C661 C662 1.400 . S
C661 C666 1.490 . S
C662 H652 0.930 . S
C662 C661 1.400 . S
C662 C665 1.386 . S
H663 C679 0.930 . S
H664 C680 0.931 . S
C665 H653 0.929 . S
C665 C659 1.390 . S
C665 C662 1.386 . S
C666 C661 1.490 . S
C666 C668 1.395 . S
C666 C669 1.403 . S
H667 C673 0.930 . S
C668 H654 0.930 . S
C668 C666 1.395 . S
C668 C671 1.403 . S
C669 C666 1.403 . S
C669 C670 1.524 . S
C669 C673 1.400 . S
C670 H655 0.960 . S
C670 H656 0.960 . S
C670 H657 0.960 . S
C670 C669 1.524 . S
C671 C668 1.403 . S
C671 C672 1.392 . S
C671 C675 1.495 . S
C672 C671 1.392 . S
C672 C673 1.385 . S
C672 C674 1.478 . S
C673 H667 0.930 . S
C673 C669 1.400 . S
C673 C672 1.385 . S
C674 C672 1.478 . S
C674 C676 1.381 . S
C674 C680 1.383 . S
C675 C671 1.495 . S
C675 H681 0.959 . S
C675 H682 0.961 . S
C675 H683 0.960 . S
C676 C674 1.381 . S
C676 C677 1.394 . S
C676 H684 0.930 . S
C677 C676 1.394 . S
C677 C678 1.383 . S
C677 H685 0.929 . S
C678 C677 1.383 . S
C678 C679 1.377 . S
C679 H663 0.930 . S
C679 C678 1.377 . S
C679 C680 1.379 . S
C680 H664 0.931 . S
C680 C674 1.383 . S
C680 C679 1.379 . S
H681 C675 0.959 . S
H682 C675 0.961 . S
H683 C675 0.960 . S
H684 C676 0.930 . S
H685 C677 0.929 . S
H686 C694 0.929 . S
H687 C696 0.930 . S
H688 C698 0.930 . S
H689 C701 0.929 . S
H690 C704 0.930 . S
H691 C706 0.960 . S
H692 C706 0.960 . S
H693 C706 0.960 . S
C694 H686 0.929 . S
C694 C695 1.377 . S
C694 C696 1.384 . S
C695 C694 1.377 . S
C695 C701 1.390 . S
C696 H687 0.930 . S
C696 C694 1.384 . S
C696 C697 1.372 . S
C697 C696 1.372 . S
C697 C698 1.400 . S
C697 C702 1.490 . S
C698 H688 0.930 . S
C698 C697 1.400 . S
C698 C701 1.386 . S
H699 C715 0.930 . S
H700 C716 0.931 . S
C701 H689 0.929 . S
C701 C695 1.390 . S
C701 C698 1.386 . S
C702 C697 1.490 . S
C702 C704 1.395 . S
C702 C705 1.403 . S
H703 C709 0.930 . S
C704 H690 0.930 . S
C704 C702 1.395 . S
C704 C707 1.403 . S
C705 C702 1.403 . S
C705 C706 1.524 . S
C705 C709 1.400 . S
C706 H691 0.960 . S
C706 H692 0.960 . S
C706 H693 0.960 . S
C706 C705 1.524 . S
C707 C704 1.403 . S
C707 C708 1.392 . S
C707 C711 1.495 . S
C708 C707 1.392 . S
C708 C709 1.385 . S
C708 C710 1.478 . S
C709 H703 0.930 . S
C709 C705 1.400 . S
C709 C708 1.385 . S
C710 C708 1.478 . S
C710 C712 1.381 . S
C710 C716 1.383 . S
C711 C707 1.495 . S
C711 H717 0.959 . S
C711 H718 0.961 . S
C711 H719 0.960 . S
C712 C710 1.381 . S
C712 C713 1.394 . S
C712 H720 0.930 . S
C713 C712 1.394 . S
C713 C714 1.383 . S
C713 H721 0.929 . S
C714 C713 1.383 . S
C714 C715 1.377 . S
C715 H699 0.930 . S
C715 C714 1.377 . S
C715 C716 1.379 . S
C716 H700 0.931 . S
C716 C710 1.383 . S
C716 C715 1.379 . S
H717 C711 0.959 . S
H718 C711 0.961 . S
H719 C711 0.960 . S
H720 C712 0.930 . S
H721 C713 0.929 . S
H722 C730 0.929 . S
H723 C732 0.930 . S
H724 C734 0.930 . S
H725 C737 0.929 . S
H726 C740 0.930 . S
H727 C742 0.960 . S
H728 C742 0.960 . S
H729 C742 0.960 . S
C730 H722 0.929 . S
C730 C731 1.377 . S
C730 C732 1.384 . S
C731 C730 1.377 . S
C731 C737 1.390 . S
C732 H723 0.930 . S
C732 C730 1.384 . S
C732 C733 1.372 . S
C733 C732 1.372 . S
C733 C734 1.400 . S
C733 C738 1.490 . S
C734 H724 0.930 . S
C734 C733 1.400 . S
C734 C737 1.386 . S
H735 C751 0.930 . S
H736 C752 0.931 . S
C737 H725 0.929 . S
C737 C731 1.390 . S
C737 C734 1.386 . S
C738 C733 1.490 . S
C738 C740 1.395 . S
C738 C741 1.403 . S
H739 C745 0.930 . S
C740 H726 0.930 . S
C740 C738 1.395 . S
C740 C743 1.403 . S
C741 C738 1.403 . S
C741 C742 1.524 . S
C741 C745 1.400 . S
C742 H727 0.960 . S
C742 H728 0.960 . S
C742 H729 0.960 . S
C742 C741 1.524 . S
C743 C740 1.403 . S
C743 C744 1.392 . S
C743 C747 1.495 . S
C744 C743 1.392 . S
C744 C745 1.385 . S
C744 C746 1.478 . S
C745 H739 0.930 . S
C745 C741 1.400 . S
C745 C744 1.385 . S
C746 C744 1.478 . S
C746 C748 1.381 . S
C746 C752 1.383 . S
C747 C743 1.495 . S
C747 H753 0.959 . S
C747 H754 0.961 . S
C747 H755 0.960 . S
C748 C746 1.381 . S
C748 C749 1.394 . S
C748 H756 0.930 . S
C749 C748 1.394 . S
C749 C750 1.383 . S
C749 H757 0.929 . S
C750 C749 1.383 . S
C750 C751 1.377 . S
C751 H735 0.930 . S
C751 C750 1.377 . S
C751 C752 1.379 . S
C752 H736 0.931 . S
C752 C746 1.383 . S
C752 C751 1.379 . S
H753 C747 0.959 . S
H754 C747 0.961 . S
H755 C747 0.960 . S
H756 C748 0.930 . S
H757 C749 0.929 . S
H758 C766 0.929 . S
H759 C768 0.930 . S
H760 C770 0.930 . S
H761 C773 0.929 . S
H762 C776 0.930 . S
H763 C778 0.960 . S
H764 C778 0.960 . S
H765 C778 0.960 . S
C766 H758 0.929 . S
C766 C767 1.377 . S
C766 C768 1.384 . S
C767 C766 1.377 . S
C767 C773 1.390 . S
C768 H759 0.930 . S
C768 C766 1.384 . S
C768 C769 1.372 . S
C769 C768 1.372 . S
C769 C770 1.400 . S
C769 C774 1.490 . S
C770 H760 0.930 . S
C770 C769 1.400 . S
C770 C773 1.386 . S
H771 C787 0.930 . S
H772 C788 0.931 . S
C773 H761 0.929 . S
C773 C767 1.390 . S
C773 C770 1.386 . S
C774 C769 1.490 . S
C774 C776 1.395 . S
C774 C777 1.403 . S
H775 C781 0.930 . S
C776 H762 0.930 . S
C776 C774 1.395 . S
C776 C779 1.403 . S
C777 C774 1.403 . S
C777 C778 1.524 . S
C777 C781 1.400 . S
C778 H763 0.960 . S
C778 H764 0.960 . S
C778 H765 0.960 . S
C778 C777 1.524 . S
C779 C776 1.403 . S
C779 C780 1.392 . S
C779 C783 1.495 . S
C780 C779 1.392 . S
C780 C781 1.385 . S
C780 C782 1.478 . S
C781 H775 0.930 . S
C781 C777 1.400 . S
C781 C780 1.385 . S
C782 C780 1.478 . S
C782 C784 1.381 . S
C782 C788 1.383 . S
C783 C779 1.495 . S
C783 H789 0.959 . S
C783 H790 0.961 . S
C783 H791 0.960 . S
C784 C782 1.381 . S
C784 C785 1.394 . S
C784 H792 0.930 . S
C785 C784 1.394 . S
C785 C786 1.383 . S
C785 H793 0.929 . S
C786 C785 1.383 . S
C786 C787 1.377 . S
C787 H771 0.930 . S
C787 C786 1.377 . S
C787 C788 1.379 . S
C788 H772 0.931 . S
C788 C782 1.383 . S
C788 C787 1.379 . S
H789 C783 0.959 . S
H790 C783 0.961 . S
H791 C783 0.960 . S
H792 C784 0.930 . S
H793 C785 0.929 . S
H794 C802 0.929 . S
H795 C804 0.930 . S
H796 C806 0.930 . S
H797 C809 0.929 . S
H798 C812 0.930 . S
H799 C814 0.960 . S
H800 C814 0.960 . S
H801 C814 0.960 . S
C802 H794 0.929 . S
C802 C803 1.377 . S
C802 C804 1.384 . S
C803 C802 1.377 . S
C803 C809 1.390 . S
C804 H795 0.930 . S
C804 C802 1.384 . S
C804 C805 1.372 . S
C805 C804 1.372 . S
C805 C806 1.400 . S
C805 C810 1.490 . S
C806 H796 0.930 . S
C806 C805 1.400 . S
C806 C809 1.386 . S
H807 C823 0.930 . S
H808 C824 0.931 . S
C809 H797 0.929 . S
C809 C803 1.390 . S
C809 C806 1.386 . S
C810 C805 1.490 . S
C810 C812 1.395 . S
C810 C813 1.403 . S
H811 C817 0.930 . S
C812 H798 0.930 . S
C812 C810 1.395 . S
C812 C815 1.403 . S
C813 C810 1.403 . S
C813 C814 1.524 . S
C813 C817 1.400 . S
C814 H799 0.960 . S
C814 H800 0.960 . S
C814 H801 0.960 . S
C814 C813 1.524 . S
C815 C812 1.403 . S
C815 C816 1.392 . S
C815 C819 1.495 . S
C816 C815 1.392 . S
C816 C817 1.385 . S
C816 C818 1.478 . S
C817 H811 0.930 . S
C817 C813 1.400 . S
C817 C816 1.385 . S
C818 C816 1.478 . S
C818 C820 1.381 . S
C818 C824 1.383 . S
C819 C815 1.495 . S
C819 H825 0.959 . S
C819 H826 0.961 . S
C819 H827 0.960 . S
C820 C818 1.381 . S
C820 C821 1.394 . S
C820 H828 0.930 . S
C821 C820 1.394 . S
C821 C822 1.383 . S
C821 H829 0.929 . S
C822 C821 1.383 . S
C822 C823 1.377 . S
C823 H807 0.930 . S
C823 C822 1.377 . S
C823 C824 1.379 . S
C824 H808 0.931 . S
C824 C818 1.383 . S
C824 C823 1.379 . S
H825 C819 0.959 . S
H826 C819 0.961 . S
H827 C819 0.960 . S
H828 C820 0.930 . S
H829 C821 0.929 . S
H830 C838 0.929 . S
H831 C840 0.930 . S
H832 C842 0.930 . S
H833 C845 0.929 . S
H834 C848 0.930 . S
H835 C850 0.960 . S
H836 C850 0.960 . S
H837 C850 0.960 . S
C838 H830 0.929 . S
C838 C839 1.377 . S
C838 C840 1.384 . S
C839 C838 1.377 . S
C839 C845 1.390 . S
C840 H831 0.930 . S
C840 C838 1.384 . S
C840 C841 1.372 . S
C841 C840 1.372 . S
C841 C842 1.400 . S
C841 C846 1.490 . S
C842 H832 0.930 . S
C842 C841 1.400 . S
C842 C845 1.386 . S
H843 C859 0.930 . S
H844 C860 0.931 . S
C845 H833 0.929 . S
C845 C839 1.390 . S
C845 C842 1.386 . S
C846 C841 1.490 . S
C846 C848 1.395 . S
C846 C849 1.403 . S
H847 C853 0.930 . S
C848 H834 0.930 . S
C848 C846 1.395 . S
C848 C851 1.403 . S
C849 C846 1.403 . S
C849 C850 1.524 . S
C849 C853 1.400 . S
C850 H835 0.960 . S
C850 H836 0.960 . S
C850 H837 0.960 . S
C850 C849 1.524 . S
C851 C848 1.403 . S
C851 C852 1.392 . S
C851 C855 1.495 . S
C852 C851 1.392 . S
C852 C853 1.385 . S
C852 C854 1.478 . S
C853 H847 0.930 . S
C853 C849 1.400 . S
C853 C852 1.385 . S
C854 C852 1.478 . S
C854 C856 1.381 . S
C854 C860 1.383 . S
C855 C851 1.495 . S
C855 H861 0.959 . S
C855 H862 0.961 . S
C855 H863 0.960 . S
C856 C854 1.381 . S
C856 C857 1.394 . S
C856 H864 0.930 . S
C857 C856 1.394 . S
C857 C858 1.383 . S
C857 H865 0.929 . S
C858 C857 1.383 . S
C858 C859 1.377 . S
C859 H843 0.930 . S
C859 C858 1.377 . S
C859 C860 1.379 . S
C860 H844 0.931 . S
C860 C854 1.383 . S
C860 C859 1.379 . S
H861 C855 0.959 . S
H862 C855 0.961 . S
H863 C855 0.960 . S
H864 C856 0.930 . S
H865 C857 0.929 . S
H866 C874 0.929 . S
H867 C876 0.930 . S
H868 C878 0.930 . S
H869 C881 0.929 . S
H870 C884 0.930 . S
H871 C886 0.960 . S
H872 C886 0.960 . S
H873 C886 0.960 . S
C874 H866 0.929 . S
C874 C875 1.377 . S
C874 C876 1.384 . S
C875 C874 1.377 . S
C875 C881 1.390 . S
C876 H867 0.930 . S
C876 C874 1.384 . S
C876 C877 1.372 . S
C877 C876 1.372 . S
C877 C878 1.400 . S
C877 C882 1.490 . S
C878 H868 0.930 . S
C878 C877 1.400 . S
C878 C881 1.386 . S
H879 C895 0.930 . S
H880 C896 0.931 . S
C881 H869 0.929 . S
C881 C875 1.390 . S
C881 C878 1.386 . S
C882 C877 1.490 . S
C882 C884 1.395 . S
C882 C885 1.403 . S
H883 C889 0.930 . S
C884 H870 0.930 . S
C884 C882 1.395 . S
C884 C887 1.403 . S
C885 C882 1.403 . S
C885 C886 1.524 . S
C885 C889 1.400 . S
C886 H871 0.960 . S
C886 H872 0.960 . S
C886 H873 0.960 . S
C886 C885 1.524 . S
C887 C884 1.403 . S
C887 C888 1.392 . S
C887 C891 1.495 . S
C888 C887 1.392 . S
C888 C889 1.385 . S
C888 C890 1.478 . S
C889 H883 0.930 . S
C889 C885 1.400 . S
C889 C888 1.385 . S
C890 C888 1.478 . S
C890 C892 1.381 . S
C890 C896 1.383 . S
C891 C887 1.495 . S
C891 H897 0.959 . S
C891 H898 0.961 . S
C891 H899 0.960 . S
C892 C890 1.381 . S
C892 C893 1.394 . S
C892 H900 0.930 . S
C893 C892 1.394 . S
C893 C894 1.383 . S
C893 H901 0.929 . S
C894 C893 1.383 . S
C894 C895 1.377 . S
C895 H879 0.930 . S
C895 C894 1.377 . S
C895 C896 1.379 . S
C896 H880 0.931 . S
C896 C890 1.383 . S
C896 C895 1.379 . S
H897 C891 0.959 . S
H898 C891 0.961 . S
H899 C891 0.960 . S
H900 C892 0.930 . S
H901 C893 0.929 . S
H902 C910 0.929 . S
H903 C912 0.930 . S
H904 C914 0.930 . S
H905 C917 0.929 . S
H906 C920 0.930 . S
H907 C922 0.960 . S
H908 C922 0.960 . S
H909 C922 0.960 . S
C910 H902 0.929 . S
C910 C911 1.377 . S
C910 C912 1.384 . S
C911 C910 1.377 . S
C911 C917 1.390 . S
C912 H903 0.930 . S
C912 C910 1.384 . S
C912 C913 1.372 . S
C913 C912 1.372 . S
C913 C914 1.400 . S
C913 C918 1.490 . S
C914 H904 0.930 . S
C914 C913 1.400 . S
C914 C917 1.386 . S
H915 C931 0.930 . S
H916 C932 0.931 . S
C917 H905 0.929 . S
C917 C911 1.390 . S
C917 C914 1.386 . S
C918 C913 1.490 . S
C918 C920 1.395 . S
C918 C921 1.403 . S
H919 C925 0.930 . S
C920 H906 0.930 . S
C920 C918 1.395 . S
C920 C923 1.403 . S
C921 C918 1.403 . S
C921 C922 1.524 . S
C921 C925 1.400 . S
C922 H907 0.960 . S
C922 H908 0.960 . S
C922 H909 0.960 . S
C922 C921 1.524 . S
C923 C920 1.403 . S
C923 C924 1.392 . S
C923 C927 1.495 . S
C924 C923 1.392 . S
C924 C925 1.385 . S
C924 C926 1.478 . S
C925 H919 0.930 . S
C925 C921 1.400 . S
C925 C924 1.385 . S
C926 C924 1.478 . S
C926 C928 1.381 . S
C926 C932 1.383 . S
C927 C923 1.495 . S
C927 H933 0.959 . S
C927 H934 0.961 . S
C927 H935 0.960 . S
C928 C926 1.381 . S
C928 C929 1.394 . S
C928 H936 0.930 . S
C929 C928 1.394 . S
C929 C930 1.383 . S
C929 H937 0.929 . S
C930 C929 1.383 . S
C930 C931 1.377 . S
C931 H915 0.930 . S
C931 C930 1.377 . S
C931 C932 1.379 . S
C932 H916 0.931 . S
C932 C926 1.383 . S
C932 C931 1.379 . S
H933 C927 0.959 . S
H934 C927 0.961 . S
H935 C927 0.960 . S
H936 C928 0.930 . S
H937 C929 0.929 . S
H938 C946 0.929 . S
H939 C948 0.930 . S
H940 C950 0.930 . S
H941 C953 0.929 . S
H942 C956 0.930 . S
H943 C958 0.960 . S
H944 C958 0.960 . S
H945 C958 0.960 . S
C946 H938 0.929 . S
C946 C947 1.377 . S
C946 C948 1.384 . S
C947 C946 1.377 . S
C947 C953 1.390 . S
C948 H939 0.930 . S
C948 C946 1.384 . S
C948 C949 1.372 . S
C949 C948 1.372 . S
C949 C950 1.400 . S
C949 C954 1.490 . S
C950 H940 0.930 . S
C950 C949 1.400 . S
C950 C953 1.386 . S
H951 C967 0.934 1_545 S
H952 C968 0.931 . S
C953 H941 0.929 . S
C953 C947 1.390 . S
C953 C950 1.386 . S
C954 C949 1.490 . S
C954 C956 1.395 . S
C954 C957 1.403 . S
H955 C961 0.930 . S
C956 H942 0.930 . S
C956 C954 1.395 . S
C956 C959 1.403 . S
C957 C954 1.403 . S
C957 C958 1.524 . S
C957 C961 1.400 . S
C958 H943 0.960 . S
C958 H944 0.960 . S
C958 H945 0.960 . S
C958 C957 1.524 . S
C959 C956 1.403 . S
C959 C960 1.392 . S
C959 C963 1.495 . S
C960 C959 1.392 . S
C960 C961 1.385 . S
C960 C962 1.478 . S
C961 H955 0.930 . S
C961 C957 1.400 . S
C961 C960 1.385 . S
C962 C960 1.478 . S
C962 C964 1.381 . S
C962 C968 1.383 . S
C963 C959 1.495 . S
C963 H969 0.959 . S
C963 H970 0.961 . S
C963 H971 0.960 . S
C964 C962 1.381 . S
C964 C965 1.394 . S
C964 H972 0.930 . S
C965 C964 1.394 . S
C965 C966 1.383 . S
C965 H973 0.929 . S
C966 C965 1.383 . S
C966 C967 1.377 . S
C967 H951 0.934 1_565 S
C967 C966 1.377 . S
C967 C968 1.379 . S
C968 H952 0.931 . S
C968 C962 1.383 . S
C968 C967 1.379 . S
H969 C963 0.959 . S
H970 C963 0.961 . S
H971 C963 0.960 . S
H972 C964 0.930 . S
H973 C965 0.929 . S
H974 C982 0.929 . S
H975 C984 0.930 . S
H976 C986 0.930 . S
H977 C989 0.929 . S
H978 C992 0.930 . S
H979 C994 0.960 . S
H980 C994 0.960 . S
H981 C994 0.960 . S
C982 H974 0.929 . S
C982 C983 1.377 . S
C982 C984 1.384 . S
C983 C982 1.377 . S
C983 C989 1.390 . S
C984 H975 0.930 . S
C984 C982 1.384 . S
C984 C985 1.372 . S
C985 C984 1.372 . S
C985 C986 1.400 . S
C985 C990 1.490 . S
C986 H976 0.930 . S
C986 C985 1.400 . S
C986 C989 1.386 . S
H987 C1003 0.930 . S
H988 C1004 0.931 . S
C989 H977 0.929 . S
C989 C983 1.390 . S
C989 C986 1.386 . S
C990 C985 1.490 . S
C990 C992 1.395 . S
C990 C993 1.403 . S
H991 C997 0.930 . S
C992 H978 0.930 . S
C992 C990 1.395 . S
C992 C995 1.403 . S
C993 C990 1.403 . S
C993 C994 1.524 . S
C993 C997 1.400 . S
C994 H979 0.960 . S
C994 H980 0.960 . S
C994 H981 0.960 . S
C994 C993 1.524 . S
C995 C992 1.403 . S
C995 C996 1.392 . S
C995 C999 1.495 . S
C996 C995 1.392 . S
C996 C997 1.385 . S
C996 C998 1.478 . S
C997 H991 0.930 . S
C997 C993 1.400 . S
C997 C996 1.385 . S
C998 C996 1.478 . S
C998 C1000 1.381 . S
C998 C1004 1.383 . S
C999 C995 1.495 . S
C999 H1005 0.959 . S
C999 H1006 0.961 . S
C999 H1007 0.960 . S
C1000 C998 1.381 . S
C1000 C1001 1.394 . S
C1000 H1008 0.930 . S
C1001 C1000 1.394 . S
C1001 C1002 1.383 . S
C1001 H1009 0.929 . S
C1002 C1001 1.383 . S
C1002 C1003 1.377 . S
C1003 H987 0.930 . S
C1003 C1002 1.377 . S
C1003 C1004 1.379 . S
C1004 H988 0.931 . S
C1004 C998 1.383 . S
C1004 C1003 1.379 . S
H1005 C999 0.959 . S
H1006 C999 0.961 . S
H1007 C999 0.960 . S
H1008 C1000 0.930 . S
H1009 C1001 0.929 . S
H1010 C1018 0.929 . S
H1011 C1020 0.930 . S
H1012 C1022 0.930 . S
H1013 C1025 0.929 . S
H1014 C1028 0.930 . S
H1015 C1030 0.960 . S
H1016 C1030 0.960 . S
H1017 C1030 0.960 . S
C1018 H1010 0.929 . S
C1018 C1019 1.377 . S
C1018 C1020 1.384 . S
C1019 C1018 1.377 . S
C1019 C1025 1.390 . S
C1020 H1011 0.930 . S
C1020 C1018 1.384 . S
C1020 C1021 1.372 . S
C1021 C1020 1.372 . S
C1021 C1022 1.400 . S
C1021 C1026 1.490 . S
C1022 H1012 0.930 . S
C1022 C1021 1.400 . S
C1022 C1025 1.386 . S
H1023 C1039 0.930 . S
H1024 C1040 0.931 . S
C1025 H1013 0.929 . S
C1025 C1019 1.390 . S
C1025 C1022 1.386 . S
C1026 C1021 1.490 . S
C1026 C1028 1.395 . S
C1026 C1029 1.403 . S
H1027 C1033 0.930 . S
C1028 H1014 0.930 . S
C1028 C1026 1.395 . S
C1028 C1031 1.403 . S
C1029 C1026 1.403 . S
C1029 C1030 1.524 . S
C1029 C1033 1.400 . S
C1030 H1015 0.960 . S
C1030 H1016 0.960 . S
C1030 H1017 0.960 . S
C1030 C1029 1.524 . S
C1031 C1028 1.403 . S
C1031 C1032 1.392 . S
C1031 C1035 1.495 . S
C1032 C1031 1.392 . S
C1032 C1033 1.385 . S
C1032 C1034 1.478 . S
C1033 H1027 0.930 . S
C1033 C1029 1.400 . S
C1033 C1032 1.385 . S
C1034 C1032 1.478 . S
C1034 C1036 1.381 . S
C1034 C1040 1.383 . S
C1035 C1031 1.495 . S
C1035 H1041 0.959 . S
C1035 H1042 0.961 . S
C1035 H1043 0.960 . S
C1036 C1034 1.381 . S
C1036 C1037 1.394 . S
C1036 H1044 0.930 . S
C1037 C1036 1.394 . S
C1037 C1038 1.383 . S
C1037 H1045 0.929 . S
C1038 C1037 1.383 . S
C1038 C1039 1.377 . S
C1039 H1023 0.930 . S
C1039 C1038 1.377 . S
C1039 C1040 1.379 . S
C1040 H1024 0.931 . S
C1040 C1034 1.383 . S
C1040 C1039 1.379 . S
H1041 C1035 0.959 . S
H1042 C1035 0.961 . S
H1043 C1035 0.960 . S
H1044 C1036 0.930 . S
H1045 C1037 0.929 . S
H1046 C1054 0.929 . S
H1047 C1056 0.930 . S
H1048 C1058 0.930 . S
H1049 C1061 0.929 . S
H1050 C1064 0.930 . S
H1051 C1066 0.960 . S
H1052 C1066 0.960 . S
H1053 C1066 0.960 . S
C1054 H1046 0.929 . S
C1054 C1055 1.377 . S
C1054 C1056 1.384 . S
C1055 C1054 1.377 . S
C1055 C1061 1.390 . S
C1056 H1047 0.930 . S
C1056 C1054 1.384 . S
C1056 C1057 1.372 . S
C1057 C1056 1.372 . S
C1057 C1058 1.400 . S
C1057 C1062 1.490 . S
C1058 H1048 0.930 . S
C1058 C1057 1.400 . S
C1058 C1061 1.386 . S
H1059 C1075 0.930 . S
H1060 C1076 0.931 . S
C1061 H1049 0.929 . S
C1061 C1055 1.390 . S
C1061 C1058 1.386 . S
C1062 C1057 1.490 . S
C1062 C1064 1.395 . S
C1062 C1065 1.403 . S
H1063 C1069 0.930 . S
C1064 H1050 0.930 . S
C1064 C1062 1.395 . S
C1064 C1067 1.403 . S
C1065 C1062 1.403 . S
C1065 C1066 1.524 . S
C1065 C1069 1.400 . S
C1066 H1051 0.960 . S
C1066 H1052 0.960 . S
C1066 H1053 0.960 . S
C1066 C1065 1.524 . S
C1067 C1064 1.403 . S
C1067 C1068 1.392 . S
C1067 C1071 1.495 . S
C1068 C1067 1.392 . S
C1068 C1069 1.385 . S
C1068 C1070 1.478 . S
C1069 H1063 0.930 . S
C1069 C1065 1.400 . S
C1069 C1068 1.385 . S
C1070 C1068 1.478 . S
C1070 C1072 1.381 . S
C1070 C1076 1.383 . S
C1071 C1067 1.495 . S
C1071 H1077 0.959 . S
C1071 H1078 0.961 . S
C1071 H1079 0.960 . S
C1072 C1070 1.381 . S
C1072 C1073 1.394 . S
C1072 H1080 0.930 . S
C1073 C1072 1.394 . S
C1073 C1074 1.383 . S
C1073 H1081 0.929 . S
C1074 C1073 1.383 . S
C1074 C1075 1.377 . S
C1075 H1059 0.930 . S
C1075 C1074 1.377 . S
C1075 C1076 1.379 . S
C1076 H1060 0.931 . S
C1076 C1070 1.383 . S
C1076 C1075 1.379 . S
H1077 C1071 0.959 . S
H1078 C1071 0.961 . S
H1079 C1071 0.960 . S
H1080 C1072 0.930 . S
H1081 C1073 0.929 . S
H1082 C1090 0.929 . S
H1083 C1092 0.930 . S
H1084 C1094 0.930 . S
H1085 C1097 0.929 . S
H1086 C1100 0.930 . S
H1087 C1102 0.960 . S
H1088 C1102 0.960 . S
H1089 C1102 0.960 . S
C1090 H1082 0.929 . S
C1090 C1091 1.377 . S
C1090 C1092 1.384 . S
C1091 C1090 1.377 . S
C1091 C1097 1.390 . S
C1092 H1083 0.930 . S
C1092 C1090 1.384 . S
C1092 C1093 1.372 . S
C1093 C1092 1.372 . S
C1093 C1094 1.400 . S
C1093 C1098 1.490 . S
C1094 H1084 0.930 . S
C1094 C1093 1.400 . S
C1094 C1097 1.386 . S
H1095 C1111 0.930 . S
H1096 C1112 0.931 . S
C1097 H1085 0.929 . S
C1097 C1091 1.390 . S
C1097 C1094 1.386 . S
C1098 C1093 1.490 . S
C1098 C1100 1.395 . S
C1098 C1101 1.403 . S
H1099 C1105 0.930 . S
C1100 H1086 0.930 . S
C1100 C1098 1.395 . S
C1100 C1103 1.403 . S
C1101 C1098 1.403 . S
C1101 C1102 1.524 . S
C1101 C1105 1.400 . S
C1102 H1087 0.960 . S
C1102 H1088 0.960 . S
C1102 H1089 0.960 . S
C1102 C1101 1.524 . S
C1103 C1100 1.403 . S
C1103 C1104 1.392 . S
C1103 C1107 1.495 . S
C1104 C1103 1.392 . S
C1104 C1105 1.385 . S
C1104 C1106 1.478 . S
C1105 H1099 0.930 . S
C1105 C1101 1.400 . S
C1105 C1104 1.385 . S
C1106 C1104 1.478 . S
C1106 C1108 1.381 . S
C1106 C1112 1.383 . S
C1107 C1103 1.495 . S
C1107 H1113 0.959 . S
C1107 H1114 0.961 . S
C1107 H1115 0.960 . S
C1108 C1106 1.381 . S
C1108 C1109 1.394 . S
C1108 H1116 0.930 . S
C1109 C1108 1.394 . S
C1109 C1110 1.383 . S
C1109 H1117 0.929 . S
C1110 C1109 1.383 . S
C1110 C1111 1.377 . S
C1111 H1095 0.930 . S
C1111 C1110 1.377 . S
C1111 C1112 1.379 . S
C1112 H1096 0.931 . S
C1112 C1106 1.383 . S
C1112 C1111 1.379 . S
H1113 C1107 0.959 . S
H1114 C1107 0.961 . S
H1115 C1107 0.960 . S
H1116 C1108 0.930 . S
H1117 C1109 0.929 . S
H1118 C1126 0.929 . S
H1119 C1128 0.930 . S
H1120 C1130 0.930 . S
H1121 C1133 0.929 . S
H1122 C1136 0.930 . S
H1123 C1138 0.960 . S
H1124 C1138 0.960 . S
H1125 C1138 0.960 . S
C1126 H1118 0.929 . S
C1126 C1127 1.377 . S
C1126 C1128 1.384 . S
C1127 C1126 1.377 . S
C1127 C1133 1.390 . S
C1128 H1119 0.930 . S
C1128 C1126 1.384 . S
C1128 C1129 1.372 . S
C1129 C1128 1.372 . S
C1129 C1130 1.400 . S
C1129 C1134 1.490 . S
C1130 H1120 0.930 . S
C1130 C1129 1.400 . S
C1130 C1133 1.386 . S
H1131 C1147 0.930 . S
H1132 C1148 0.931 . S
C1133 H1121 0.929 . S
C1133 C1127 1.390 . S
C1133 C1130 1.386 . S
C1134 C1129 1.490 . S
C1134 C1136 1.395 . S
C1134 C1137 1.403 . S
H1135 C1141 0.930 . S
C1136 H1122 0.930 . S
C1136 C1134 1.395 . S
C1136 C1139 1.403 . S
C1137 C1134 1.403 . S
C1137 C1138 1.524 . S
C1137 C1141 1.400 . S
C1138 H1123 0.960 . S
C1138 H1124 0.960 . S
C1138 H1125 0.960 . S
C1138 C1137 1.524 . S
C1139 C1136 1.403 . S
C1139 C1140 1.392 . S
C1139 C1143 1.495 . S
C1140 C1139 1.392 . S
C1140 C1141 1.385 . S
C1140 C1142 1.478 . S
C1141 H1135 0.930 . S
C1141 C1137 1.400 . S
C1141 C1140 1.385 . S
C1142 C1140 1.478 . S
C1142 C1144 1.381 . S
C1142 C1148 1.383 . S
C1143 C1139 1.495 . S
C1143 H1149 0.959 . S
C1143 H1150 0.961 . S
C1143 H1151 0.960 . S
C1144 C1142 1.381 . S
C1144 C1145 1.394 . S
C1144 H1152 0.930 . S
C1145 C1144 1.394 . S
C1145 C1146 1.383 . S
C1145 H1153 0.929 . S
C1146 C1145 1.383 . S
C1146 C1147 1.377 . S
C1147 H1131 0.930 . S
C1147 C1146 1.377 . S
C1147 C1148 1.379 . S
C1148 H1132 0.931 . S
C1148 C1142 1.383 . S
C1148 C1147 1.379 . S
H1149 C1143 0.959 . S
H1150 C1143 0.961 . S
H1151 C1143 0.960 . S
H1152 C1144 0.930 . S
H1153 C1145 0.929 . S
H1154 C1162 0.929 . S
H1155 C1164 0.930 . S
H1156 C1166 0.930 . S
H1157 C1169 0.929 . S
H1158 C1172 0.930 . S
H1159 C1174 0.960 . S
H1160 C1174 0.960 . S
H1161 C1174 0.960 . S
C1162 H1154 0.929 . S
C1162 C1163 1.377 . S
C1162 C1164 1.384 . S
C1163 C1162 1.377 . S
C1163 C1169 1.390 . S
C1164 H1155 0.930 . S
C1164 C1162 1.384 . S
C1164 C1165 1.372 . S
C1165 C1164 1.372 . S
C1165 C1166 1.400 . S
C1165 C1170 1.490 . S
C1166 H1156 0.930 . S
C1166 C1165 1.400 . S
C1166 C1169 1.386 . S
H1167 C1183 0.930 . S
H1168 C1184 0.931 . S
C1169 H1157 0.929 . S
C1169 C1163 1.390 . S
C1169 C1166 1.386 . S
C1170 C1165 1.490 . S
C1170 C1172 1.395 . S
C1170 C1173 1.403 . S
H1171 C1177 0.930 . S
C1172 H1158 0.930 . S
C1172 C1170 1.395 . S
C1172 C1175 1.403 . S
C1173 C1170 1.403 . S
C1173 C1174 1.524 . S
C1173 C1177 1.400 . S
C1174 H1159 0.960 . S
C1174 H1160 0.960 . S
C1174 H1161 0.960 . S
C1174 C1173 1.524 . S
C1175 C1172 1.403 . S
C1175 C1176 1.392 . S
C1175 C1179 1.495 . S
C1176 C1175 1.392 . S
C1176 C1177 1.385 . S
C1176 C1178 1.478 . S
C1177 H1171 0.930 . S
C1177 C1173 1.400 . S
C1177 C1176 1.385 . S
C1178 C1176 1.478 . S
C1178 C1180 1.381 . S
C1178 C1184 1.383 . S
C1179 C1175 1.495 . S
C1179 H1185 0.959 . S
C1179 H1186 0.961 . S
C1179 H1187 0.960 . S
C1180 C1178 1.381 . S
C1180 C1181 1.394 . S
C1180 H1188 0.930 . S
C1181 C1180 1.394 . S
C1181 C1182 1.383 . S
C1181 H1189 0.929 . S
C1182 C1181 1.383 . S
C1182 C1183 1.377 . S
C1183 H1167 0.930 . S
C1183 C1182 1.377 . S
C1183 C1184 1.379 . S
C1184 H1168 0.931 . S
C1184 C1178 1.383 . S
C1184 C1183 1.379 . S
H1185 C1179 0.959 . S
H1186 C1179 0.961 . S
H1187 C1179 0.960 . S
H1188 C1180 0.930 . S
H1189 C1181 0.929 . S
H1190 C1198 0.929 . S
H1191 C1200 0.930 . S
H1192 C1202 0.930 . S
H1193 C1205 0.929 . S
H1194 C1208 0.930 . S
H1195 C1210 0.960 . S
H1196 C1210 0.960 . S
H1197 C1210 0.960 . S
C1198 H1190 0.929 . S
C1198 C1199 1.377 . S
C1198 C1200 1.384 . S
C1199 C1198 1.377 . S
C1199 C1205 1.390 . S
C1200 H1191 0.930 . S
C1200 C1198 1.384 . S
C1200 C1201 1.372 . S
C1201 C1200 1.372 . S
C1201 C1202 1.400 . S
C1201 C1206 1.490 . S
C1202 H1192 0.930 . S
C1202 C1201 1.400 . S
C1202 C1205 1.386 . S
H1203 C1219 0.930 . S
H1204 C1220 0.931 . S
C1205 H1193 0.929 . S
C1205 C1199 1.390 . S
C1205 C1202 1.386 . S
C1206 C1201 1.490 . S
C1206 C1208 1.395 . S
C1206 C1209 1.403 . S
H1207 C1213 0.930 . S
C1208 H1194 0.930 . S
C1208 C1206 1.395 . S
C1208 C1211 1.403 . S
C1209 C1206 1.403 . S
C1209 C1210 1.524 . S
C1209 C1213 1.400 . S
C1210 H1195 0.960 . S
C1210 H1196 0.960 . S
C1210 H1197 0.960 . S
C1210 C1209 1.524 . S
C1211 C1208 1.403 . S
C1211 C1212 1.392 . S
C1211 C1215 1.495 . S
C1212 C1211 1.392 . S
C1212 C1213 1.385 . S
C1212 C1214 1.478 . S
C1213 H1207 0.930 . S
C1213 C1209 1.400 . S
C1213 C1212 1.385 . S
C1214 C1212 1.478 . S
C1214 C1216 1.381 . S
C1214 C1220 1.383 . S
C1215 C1211 1.495 . S
C1215 H1221 0.959 . S
C1215 H1222 0.961 . S
C1215 H1223 0.960 . S
C1216 C1214 1.381 . S
C1216 C1217 1.394 . S
C1216 H1224 0.930 . S
C1217 C1216 1.394 . S
C1217 C1218 1.383 . S
C1217 H1225 0.929 . S
C1218 C1217 1.383 . S
C1218 C1219 1.377 . S
C1219 H1203 0.930 . S
C1219 C1218 1.377 . S
C1219 C1220 1.379 . S
C1220 H1204 0.931 . S
C1220 C1214 1.383 . S
C1220 C1219 1.379 . S
H1221 C1215 0.959 . S
H1222 C1215 0.961 . S
H1223 C1215 0.960 . S
H1224 C1216 0.930 . S
H1225 C1217 0.929 . S
H1226 C1234 0.929 . S
H1227 C1236 0.930 . S
H1228 C1238 0.930 . S
H1229 C1241 0.929 . S
H1230 C1244 0.930 . S
H1231 C1246 0.960 . S
H1232 C1246 0.960 . S
H1233 C1246 0.960 . S
C1234 H1226 0.929 . S
C1234 C1235 1.377 . S
C1234 C1236 1.384 . S
C1235 C1234 1.377 . S
C1235 C1241 1.390 . S
C1236 H1227 0.930 . S
C1236 C1234 1.384 . S
C1236 C1237 1.372 . S
C1237 C1236 1.372 . S
C1237 C1238 1.400 . S
C1237 C1242 1.490 . S
C1238 H1228 0.930 . S
C1238 C1237 1.400 . S
C1238 C1241 1.386 . S
H1239 C1255 0.930 1_554 S
H1240 C1256 0.931 . S
C1241 H1229 0.929 . S
C1241 C1235 1.390 . S
C1241 C1238 1.386 . S
C1242 C1237 1.490 . S
C1242 C1244 1.395 . S
C1242 C1245 1.403 . S
H1243 C1249 0.930 . S
C1244 H1230 0.930 . S
C1244 C1242 1.395 . S
C1244 C1247 1.403 . S
C1245 C1242 1.403 . S
C1245 C1246 1.524 . S
C1245 C1249 1.400 . S
C1246 H1231 0.960 . S
C1246 H1232 0.960 . S
C1246 H1233 0.960 . S
C1246 C1245 1.524 . S
C1247 C1244 1.403 . S
C1247 C1248 1.392 . S
C1247 C1251 1.495 . S
C1248 C1247 1.392 . S
C1248 C1249 1.385 . S
C1248 C1250 1.478 . S
C1249 H1243 0.930 . S
C1249 C1245 1.400 . S
C1249 C1248 1.385 . S
C1250 C1248 1.478 . S
C1250 C1252 1.381 . S
C1250 C1256 1.383 . S
C1251 C1247 1.495 . S
C1251 H1257 0.959 . S
C1251 H1258 0.961 . S
C1251 H1259 0.960 . S
C1252 C1250 1.381 . S
C1252 C1253 1.394 . S
C1252 H1260 0.930 . S
C1253 C1252 1.394 . S
C1253 C1254 1.383 . S
C1253 H1261 0.929 . S
C1254 C1253 1.383 . S
C1254 C1255 1.377 . S
C1255 H1239 0.930 1_556 S
C1255 C1254 1.377 . S
C1255 C1256 1.379 . S
C1256 H1240 0.931 . S
C1256 C1250 1.383 . S
C1256 C1255 1.379 . S
H1257 C1251 0.959 . S
H1258 C1251 0.961 . S
H1259 C1251 0.960 . S
H1260 C1252 0.930 . S
H1261 C1253 0.929 . S
H1262 C1270 0.929 . S
H1263 C1272 0.930 . S
H1264 C1274 0.930 . S
H1265 C1277 0.929 . S
H1266 C1280 0.930 . S
H1267 C1282 0.960 . S
H1268 C1282 0.960 . S
H1269 C1282 0.960 . S
C1270 H1262 0.929 . S
C1270 C1271 1.377 . S
C1270 C1272 1.384 . S
C1271 C1270 1.377 . S
C1271 C1277 1.390 . S
C1272 H1263 0.930 . S
C1272 C1270 1.384 . S
C1272 C1273 1.372 . S
C1273 C1272 1.372 . S
C1273 C1274 1.400 . S
C1273 C1278 1.490 . S
C1274 H1264 0.930 . S
C1274 C1273 1.400 . S
C1274 C1277 1.386 . S
H1275 C1291 0.930 . S
H1276 C1292 0.931 . S
C1277 H1265 0.929 . S
C1277 C1271 1.390 . S
C1277 C1274 1.386 . S
C1278 C1273 1.490 . S
C1278 C1280 1.395 . S
C1278 C1281 1.403 . S
H1279 C1285 0.930 . S
C1280 H1266 0.930 . S
C1280 C1278 1.395 . S
C1280 C1283 1.403 . S
C1281 C1278 1.403 . S
C1281 C1282 1.524 . S
C1281 C1285 1.400 . S
C1282 H1267 0.960 . S
C1282 H1268 0.960 . S
C1282 H1269 0.960 . S
C1282 C1281 1.524 . S
C1283 C1280 1.403 . S
C1283 C1284 1.392 . S
C1283 C1287 1.495 . S
C1284 C1283 1.392 . S
C1284 C1285 1.385 . S
C1284 C1286 1.478 . S
C1285 H1279 0.930 . S
C1285 C1281 1.400 . S
C1285 C1284 1.385 . S
C1286 C1284 1.478 . S
C1286 C1288 1.381 . S
C1286 C1292 1.383 . S
C1287 C1283 1.495 . S
C1287 H1293 0.959 . S
C1287 H1294 0.961 . S
C1287 H1295 0.960 . S
C1288 C1286 1.381 . S
C1288 C1289 1.394 . S
C1288 H1296 0.930 . S
C1289 C1288 1.394 . S
C1289 C1290 1.383 . S
C1289 H1297 0.929 . S
C1290 C1289 1.383 . S
C1290 C1291 1.377 . S
C1291 H1275 0.930 . S
C1291 C1290 1.377 . S
C1291 C1292 1.379 . S
C1292 H1276 0.931 . S
C1292 C1286 1.383 . S
C1292 C1291 1.379 . S
H1293 C1287 0.959 . S
H1294 C1287 0.961 . S
H1295 C1287 0.960 . S
H1296 C1288 0.930 . S
H1297 C1289 0.929 . S
H1298 C1306 0.929 . S
H1299 C1308 0.930 . S
H1300 C1310 0.930 . S
H1301 C1313 0.929 . S
H1302 C1316 0.930 . S
H1303 C1318 0.960 . S
H1304 C1318 0.960 . S
H1305 C1318 0.960 . S
C1306 H1298 0.929 . S
C1306 C1307 1.377 . S
C1306 C1308 1.384 . S
C1307 C1306 1.377 . S
C1307 C1313 1.390 . S
C1308 H1299 0.930 . S
C1308 C1306 1.384 . S
C1308 C1309 1.372 . S
C1309 C1308 1.372 . S
C1309 C1310 1.400 . S
C1309 C1314 1.490 . S
C1310 H1300 0.930 . S
C1310 C1309 1.400 . S
C1310 C1313 1.386 . S
H1311 C1327 0.930 . S
H1312 C1328 0.931 . S
C1313 H1301 0.929 . S
C1313 C1307 1.390 . S
C1313 C1310 1.386 . S
C1314 C1309 1.490 . S
C1314 C1316 1.395 . S
C1314 C1317 1.403 . S
H1315 C1321 0.930 . S
C1316 H1302 0.930 . S
C1316 C1314 1.395 . S
C1316 C1319 1.403 . S
C1317 C1314 1.403 . S
C1317 C1318 1.524 . S
C1317 C1321 1.400 . S
C1318 H1303 0.960 . S
C1318 H1304 0.960 . S
C1318 H1305 0.960 . S
C1318 C1317 1.524 . S
C1319 C1316 1.403 . S
C1319 C1320 1.392 . S
C1319 C1323 1.495 . S
C1320 C1319 1.392 . S
C1320 C1321 1.385 . S
C1320 C1322 1.478 . S
C1321 H1315 0.930 . S
C1321 C1317 1.400 . S
C1321 C1320 1.385 . S
C1322 C1320 1.478 . S
C1322 C1324 1.381 . S
C1322 C1328 1.383 . S
C1323 C1319 1.495 . S
C1323 H1329 0.959 . S
C1323 H1330 0.961 . S
C1323 H1331 0.960 . S
C1324 C1322 1.381 . S
C1324 C1325 1.394 . S
C1324 H1332 0.930 . S
C1325 C1324 1.394 . S
C1325 C1326 1.383 . S
C1325 H1333 0.929 1_565 S
C1326 C1325 1.383 . S
C1326 C1327 1.377 . S
C1327 H1311 0.930 . S
C1327 C1326 1.377 . S
C1327 C1328 1.379 . S
C1328 H1312 0.931 . S
C1328 C1322 1.383 . S
C1328 C1327 1.379 . S
H1329 C1323 0.959 . S
H1330 C1323 0.961 . S
H1331 C1323 0.960 . S
H1332 C1324 0.930 . S
H1333 C1325 0.929 1_545 S
H1334 C1342 0.929 . S
H1335 C1344 0.930 . S
H1336 C1346 0.930 . S
H1337 C1349 0.929 . S
H1338 C1352 0.930 . S
H1339 C1354 0.960 . S
H1340 C1354 0.960 . S
H1341 C1354 0.960 . S
C1342 H1334 0.929 . S
C1342 C1343 1.377 . S
C1342 C1344 1.384 . S
C1343 C1342 1.377 . S
C1343 C1349 1.390 . S
C1344 H1335 0.930 . S
C1344 C1342 1.384 . S
C1344 C1345 1.372 . S
C1345 C1344 1.372 . S
C1345 C1346 1.400 . S
C1345 C1350 1.490 . S
C1346 H1336 0.930 . S
C1346 C1345 1.400 . S
C1346 C1349 1.386 . S
H1347 C1363 0.930 . S
H1348 C1364 0.931 . S
C1349 H1337 0.929 . S
C1349 C1343 1.390 . S
C1349 C1346 1.386 . S
C1350 C1345 1.490 . S
C1350 C1352 1.395 . S
C1350 C1353 1.403 . S
H1351 C1357 0.930 . S
C1352 H1338 0.930 . S
C1352 C1350 1.395 . S
C1352 C1355 1.403 . S
C1353 C1350 1.403 . S
C1353 C1354 1.524 . S
C1353 C1357 1.400 . S
C1354 H1339 0.960 . S
C1354 H1340 0.960 . S
C1354 H1341 0.960 . S
C1354 C1353 1.524 . S
C1355 C1352 1.403 . S
C1355 C1356 1.392 . S
C1355 C1359 1.495 . S
C1356 C1355 1.392 . S
C1356 C1357 1.385 . S
C1356 C1358 1.478 . S
C1357 H1351 0.930 . S
C1357 C1353 1.400 . S
C1357 C1356 1.385 . S
C1358 C1356 1.478 . S
C1358 C1360 1.381 . S
C1358 C1364 1.383 . S
C1359 C1355 1.495 . S
C1359 H1365 0.959 . S
C1359 H1366 0.961 . S
C1359 H1367 0.960 . S
C1360 C1358 1.381 . S
C1360 C1361 1.394 . S
C1360 H1368 0.930 . S
C1361 C1360 1.394 . S
C1361 C1362 1.383 . S
C1361 H1369 0.929 . S
C1362 C1361 1.383 . S
C1362 C1363 1.377 . S
C1363 H1347 0.930 . S
C1363 C1362 1.377 . S
C1363 C1364 1.379 . S
C1364 H1348 0.931 . S
C1364 C1358 1.383 . S
C1364 C1363 1.379 . S
H1365 C1359 0.959 . S
H1366 C1359 0.961 . S
H1367 C1359 0.960 . S
H1368 C1360 0.930 . S
H1369 C1361 0.929 . S
H1370 C1378 0.929 . S
H1371 C1380 0.930 . S
H1372 C1382 0.930 . S
H1373 C1385 0.929 . S
H1374 C1388 0.930 . S
H1375 C1390 0.960 . S
H1376 C1390 0.960 . S
H1377 C1390 0.960 . S
C1378 H1370 0.929 . S
C1378 C1379 1.377 . S
C1378 C1380 1.384 . S
C1379 C1378 1.377 . S
C1379 C1385 1.390 . S
C1380 H1371 0.930 . S
C1380 C1378 1.384 . S
C1380 C1381 1.372 . S
C1381 C1380 1.372 . S
C1381 C1382 1.400 . S
C1381 C1386 1.490 . S
C1382 H1372 0.930 . S
C1382 C1381 1.400 . S
C1382 C1385 1.386 . S
H1383 C1399 0.930 . S
H1384 C1400 0.931 . S
C1385 H1373 0.929 . S
C1385 C1379 1.390 . S
C1385 C1382 1.386 . S
C1386 C1381 1.490 . S
C1386 C1388 1.395 . S
C1386 C1389 1.403 . S
H1387 C1393 0.930 . S
C1388 H1374 0.930 . S
C1388 C1386 1.395 . S
C1388 C1391 1.403 . S
C1389 C1386 1.403 . S
C1389 C1390 1.524 . S
C1389 C1393 1.400 . S
C1390 H1375 0.960 . S
C1390 H1376 0.960 . S
C1390 H1377 0.960 . S
C1390 C1389 1.524 . S
C1391 C1388 1.403 . S
C1391 C1392 1.392 . S
C1391 C1395 1.495 . S
C1392 C1391 1.392 . S
C1392 C1393 1.385 . S
C1392 C1394 1.478 . S
C1393 H1387 0.930 . S
C1393 C1389 1.400 . S
C1393 C1392 1.385 . S
C1394 C1392 1.478 . S
C1394 C1396 1.381 . S
C1394 C1400 1.383 . S
C1395 C1391 1.495 . S
C1395 H1401 0.959 . S
C1395 H1402 0.961 . S
C1395 H1403 0.960 . S
C1396 C1394 1.381 . S
C1396 C1397 1.394 . S
C1396 H1404 0.930 . S
C1397 C1396 1.394 . S
C1397 C1398 1.383 . S
C1397 H1405 0.929 . S
C1398 C1397 1.383 . S
C1398 C1399 1.377 . S
C1399 H1383 0.930 . S
C1399 C1398 1.377 . S
C1399 C1400 1.379 . S
C1400 H1384 0.931 . S
C1400 C1394 1.383 . S
C1400 C1399 1.379 . S
H1401 C1395 0.959 . S
H1402 C1395 0.961 . S
H1403 C1395 0.960 . S
H1404 C1396 0.930 . S
H1405 C1397 0.929 . S
H1406 C1414 0.929 . S
H1407 C1416 0.930 . S
H1408 C1418 0.930 . S
H1409 C1421 0.929 . S
H1410 C1424 0.930 . S
H1411 C1426 0.960 . S
H1412 C1426 0.960 . S
H1413 C1426 0.960 . S
C1414 H1406 0.929 . S
C1414 C1415 1.377 . S
C1414 C1416 1.384 . S
C1415 C1414 1.377 . S
C1415 C1421 1.390 . S
C1416 H1407 0.930 . S
C1416 C1414 1.384 . S
C1416 C1417 1.372 . S
C1417 C1416 1.372 . S
C1417 C1418 1.400 . S
C1417 C1422 1.490 . S
C1418 H1408 0.930 . S
C1418 C1417 1.400 . S
C1418 C1421 1.386 . S
H1419 C1435 0.930 . S
H1420 C1436 0.931 . S
C1421 H1409 0.929 . S
C1421 C1415 1.390 . S
C1421 C1418 1.386 . S
C1422 C1417 1.490 . S
C1422 C1424 1.395 . S
C1422 C1425 1.403 . S
H1423 C1429 0.930 . S
C1424 H1410 0.930 . S
C1424 C1422 1.395 . S
C1424 C1427 1.403 . S
C1425 C1422 1.403 . S
C1425 C1426 1.524 . S
C1425 C1429 1.400 . S
C1426 H1411 0.960 . S
C1426 H1412 0.960 . S
C1426 H1413 0.960 . S
C1426 C1425 1.524 . S
C1427 C1424 1.403 . S
C1427 C1428 1.392 . S
C1427 C1431 1.495 . S
C1428 C1427 1.392 . S
C1428 C1429 1.385 . S
C1428 C1430 1.478 . S
C1429 H1423 0.930 . S
C1429 C1425 1.400 . S
C1429 C1428 1.385 . S
C1430 C1428 1.478 . S
C1430 C1432 1.381 . S
C1430 C1436 1.383 . S
C1431 C1427 1.495 . S
C1431 H1437 0.959 . S
C1431 H1438 0.961 . S
C1431 H1439 0.960 . S
C1432 C1430 1.381 . S
C1432 C1433 1.394 . S
C1432 H1440 0.930 . S
C1433 C1432 1.394 . S
C1433 C1434 1.383 . S
C1433 H1441 0.929 1_556 S
C1434 C1433 1.383 . S
C1434 C1435 1.377 . S
C1435 H1419 0.930 . S
C1435 C1434 1.377 . S
C1435 C1436 1.379 . S
C1436 H1420 0.931 . S
C1436 C1430 1.383 . S
C1436 C1435 1.379 . S
H1437 C1431 0.959 . S
H1438 C1431 0.961 . S
H1439 C1431 0.960 . S
H1440 C1432 0.930 . S
H1441 C1433 0.929 1_554 S
H1442 C1450 0.929 . S
H1443 C1452 0.930 . S
H1444 C1454 0.930 . S
H1445 C1457 0.929 . S
H1446 C1460 0.930 . S
H1447 C1462 0.960 . S
H1448 C1462 0.960 . S
H1449 C1462 0.960 . S
C1450 H1442 0.929 . S
C1450 C1451 1.377 . S
C1450 C1452 1.384 . S
C1451 C1450 1.377 . S
C1451 C1457 1.390 . S
C1452 H1443 0.930 . S
C1452 C1450 1.384 . S
C1452 C1453 1.372 . S
C1453 C1452 1.372 . S
C1453 C1454 1.400 . S
C1453 C1458 1.490 . S
C1454 H1444 0.930 . S
C1454 C1453 1.400 . S
C1454 C1457 1.386 . S
H1455 C1471 0.930 . S
H1456 C1472 0.931 . S
C1457 H1445 0.929 . S
C1457 C1451 1.390 . S
C1457 C1454 1.386 . S
C1458 C1453 1.490 . S
C1458 C1460 1.395 . S
C1458 C1461 1.403 . S
H1459 C1465 0.930 . S
C1460 H1446 0.930 . S
C1460 C1458 1.395 . S
C1460 C1463 1.403 . S
C1461 C1458 1.403 . S
C1461 C1462 1.524 . S
C1461 C1465 1.400 . S
C1462 H1447 0.960 . S
C1462 H1448 0.960 . S
C1462 H1449 0.960 . S
C1462 C1461 1.524 . S
C1463 C1460 1.403 . S
C1463 C1464 1.392 . S
C1463 C1467 1.495 . S
C1464 C1463 1.392 . S
C1464 C1465 1.385 . S
C1464 C1466 1.478 . S
C1465 H1459 0.930 . S
C1465 C1461 1.400 . S
C1465 C1464 1.385 . S
C1466 C1464 1.478 . S
C1466 C1468 1.381 . S
C1466 C1472 1.383 . S
C1467 C1463 1.495 . S
C1467 H1473 0.959 . S
C1467 H1474 0.961 . S
C1467 H1475 0.960 . S
C1468 C1466 1.381 . S
C1468 C1469 1.394 . S
C1468 H1476 0.930 . S
C1469 C1468 1.394 . S
C1469 C1470 1.383 . S
C1469 H1477 0.929 . S
C1470 C1469 1.383 . S
C1470 C1471 1.377 . S
C1471 H1455 0.930 . S
C1471 C1470 1.377 . S
C1471 C1472 1.379 . S
C1472 H1456 0.931 . S
C1472 C1466 1.383 . S
C1472 C1471 1.379 . S
H1473 C1467 0.959 . S
H1474 C1467 0.961 . S
H1475 C1467 0.960 . S
H1476 C1468 0.930 . S
H1477 C1469 0.929 . S
H1478 C1486 0.929 . S
H1479 C1488 0.930 . S
H1480 C1490 0.930 . S
H1481 C1493 0.929 . S
H1482 C1496 0.930 . S
H1483 C1498 0.960 . S
H1484 C1498 0.960 . S
H1485 C1498 0.960 . S
C1486 H1478 0.929 . S
C1486 C1487 1.377 . S
C1486 C1488 1.384 . S
C1487 C1486 1.377 . S
C1487 C1493 1.390 . S
C1488 H1479 0.930 . S
C1488 C1486 1.384 . S
C1488 C1489 1.372 . S
C1489 C1488 1.372 . S
C1489 C1490 1.400 . S
C1489 C1494 1.490 . S
C1490 H1480 0.930 . S
C1490 C1489 1.400 . S
C1490 C1493 1.386 . S
H1491 C1507 0.930 . S
H1492 C1508 0.931 . S
C1493 H1481 0.929 . S
C1493 C1487 1.390 . S
C1493 C1490 1.386 . S
C1494 C1489 1.490 . S
C1494 C1496 1.395 . S
C1494 C1497 1.403 . S
H1495 C1501 0.930 . S
C1496 H1482 0.930 . S
C1496 C1494 1.395 . S
C1496 C1499 1.403 . S
C1497 C1494 1.403 . S
C1497 C1498 1.524 . S
C1497 C1501 1.400 . S
C1498 H1483 0.960 . S
C1498 H1484 0.960 . S
C1498 H1485 0.960 . S
C1498 C1497 1.524 . S
C1499 C1496 1.403 . S
C1499 C1500 1.392 . S
C1499 C1503 1.495 . S
C1500 C1499 1.392 . S
C1500 C1501 1.385 . S
C1500 C1502 1.478 . S
C1501 H1495 0.930 . S
C1501 C1497 1.400 . S
C1501 C1500 1.385 . S
C1502 C1500 1.478 . S
C1502 C1504 1.381 . S
C1502 C1508 1.383 . S
C1503 C1499 1.495 . S
C1503 H1509 0.959 . S
C1503 H1510 0.961 . S
C1503 H1511 0.960 . S
C1504 C1502 1.381 . S
C1504 C1505 1.394 . S
C1504 H1512 0.930 . S
C1505 C1504 1.394 . S
C1505 C1506 1.383 . S
C1505 H1513 0.929 . S
C1506 C1505 1.383 . S
C1506 C1507 1.377 . S
C1507 H1491 0.930 . S
C1507 C1506 1.377 . S
C1507 C1508 1.379 . S
C1508 H1492 0.931 . S
C1508 C1502 1.383 . S
C1508 C1507 1.379 . S
H1509 C1503 0.959 . S
H1510 C1503 0.961 . S
H1511 C1503 0.960 . S
H1512 C1504 0.930 . S
H1513 C1505 0.929 . S
H1514 C1522 0.929 . S
H1515 C1524 0.930 . S
H1516 C1526 0.930 . S
H1517 C1529 0.929 . S
H1518 C1532 0.930 . S
H1519 C1534 0.960 . S
H1520 C1534 0.960 . S
H1521 C1534 0.960 . S
C1522 H1514 0.929 . S
C1522 C1523 1.377 . S
C1522 C1524 1.384 . S
C1523 C1522 1.377 . S
C1523 C1529 1.390 . S
C1524 H1515 0.930 . S
C1524 C1522 1.384 . S
C1524 C1525 1.372 . S
C1525 C1524 1.372 . S
C1525 C1526 1.400 . S
C1525 C1530 1.490 . S
C1526 H1516 0.930 . S
C1526 C1525 1.400 . S
C1526 C1529 1.386 . S
H1527 C1543 0.930 . S
H1528 C1544 0.931 . S
C1529 H1517 0.929 . S
C1529 C1523 1.390 . S
C1529 C1526 1.386 . S
C1530 C1525 1.490 . S
C1530 C1532 1.395 . S
C1530 C1533 1.403 . S
H1531 C1537 0.930 . S
C1532 H1518 0.930 . S
C1532 C1530 1.395 . S
C1532 C1535 1.403 . S
C1533 C1530 1.403 . S
C1533 C1534 1.524 . S
C1533 C1537 1.400 . S
C1534 H1519 0.960 . S
C1534 H1520 0.960 . S
C1534 H1521 0.960 . S
C1534 C1533 1.524 . S
C1535 C1532 1.403 . S
C1535 C1536 1.392 . S
C1535 C1539 1.495 . S
C1536 C1535 1.392 . S
C1536 C1537 1.385 . S
C1536 C1538 1.478 . S
C1537 H1531 0.930 . S
C1537 C1533 1.400 . S
C1537 C1536 1.385 . S
C1538 C1536 1.478 . S
C1538 C1540 1.381 . S
C1538 C1544 1.383 . S
C1539 C1535 1.495 . S
C1539 H1545 0.959 . S
C1539 H1546 0.961 . S
C1539 H1547 0.960 . S
C1540 C1538 1.381 . S
C1540 C1541 1.394 . S
C1540 H1548 0.930 . S
C1541 C1540 1.394 . S
C1541 C1542 1.383 . S
C1541 H1549 0.929 . S
C1542 C1541 1.383 . S
C1542 C1543 1.377 . S
C1543 H1527 0.930 . S
C1543 C1542 1.377 . S
C1543 C1544 1.379 . S
C1544 H1528 0.931 . S
C1544 C1538 1.383 . S
C1544 C1543 1.379 . S
H1545 C1539 0.959 . S
H1546 C1539 0.961 . S
H1547 C1539 0.960 . S
H1548 C1540 0.930 . S
H1549 C1541 0.929 . S
H1550 C1558 0.929 . S
H1551 C1560 0.930 . S
H1552 C1562 0.930 . S
H1553 C1565 0.929 . S
H1554 C1568 0.930 . S
H1555 C1570 0.960 . S
H1556 C1570 0.960 . S
H1557 C1570 0.960 . S
C1558 H1550 0.929 . S
C1558 C1559 1.377 . S
C1558 C1560 1.384 . S
C1559 C1558 1.377 . S
C1559 C1565 1.390 . S
C1560 H1551 0.930 . S
C1560 C1558 1.384 . S
C1560 C1561 1.372 . S
C1561 C1560 1.372 . S
C1561 C1562 1.400 . S
C1561 C1566 1.490 . S
C1562 H1552 0.930 . S
C1562 C1561 1.400 . S
C1562 C1565 1.386 . S
H1563 C1579 0.930 . S
H1564 C1580 0.931 . S
C1565 H1553 0.929 . S
C1565 C1559 1.390 . S
C1565 C1562 1.386 . S
C1566 C1561 1.490 . S
C1566 C1568 1.395 . S
C1566 C1569 1.403 . S
H1567 C1573 0.930 . S
C1568 H1554 0.930 . S
C1568 C1566 1.395 . S
C1568 C1571 1.403 . S
C1569 C1566 1.403 . S
C1569 C1570 1.524 . S
C1569 C1573 1.400 . S
C1570 H1555 0.960 . S
C1570 H1556 0.960 . S
C1570 H1557 0.960 . S
C1570 C1569 1.524 . S
C1571 C1568 1.403 . S
C1571 C1572 1.392 . S
C1571 C1575 1.495 . S
C1572 C1571 1.392 . S
C1572 C1573 1.385 . S
C1572 C1574 1.478 . S
C1573 H1567 0.930 . S
C1573 C1569 1.400 . S
C1573 C1572 1.385 . S
C1574 C1572 1.478 . S
C1574 C1576 1.381 . S
C1574 C1580 1.383 . S
C1575 C1571 1.495 . S
C1575 H1581 0.959 . S
C1575 H1582 0.961 . S
C1575 H1583 0.960 . S
C1576 C1574 1.381 . S
C1576 C1577 1.394 . S
C1576 H1584 0.930 . S
C1577 C1576 1.394 . S
C1577 C1578 1.383 . S
C1577 H1585 0.929 . S
C1578 C1577 1.383 . S
C1578 C1579 1.377 . S
C1579 H1563 0.930 . S
C1579 C1578 1.377 . S
C1579 C1580 1.379 . S
C1580 H1564 0.931 . S
C1580 C1574 1.383 . S
C1580 C1579 1.379 . S
H1581 C1575 0.959 . S
H1582 C1575 0.961 . S
H1583 C1575 0.960 . S
H1584 C1576 0.930 . S
H1585 C1577 0.929 . S
H1586 C1594 0.929 . S
H1587 C1596 0.930 . S
H1588 C1598 0.930 . S
H1589 C1601 0.929 . S
H1590 C1604 0.930 . S
H1591 C1606 0.960 . S
H1592 C1606 0.960 . S
H1593 C1606 0.960 . S
C1594 H1586 0.929 . S
C1594 C1595 1.377 . S
C1594 C1596 1.384 . S
C1595 C1594 1.377 . S
C1595 C1601 1.390 . S
C1596 H1587 0.930 . S
C1596 C1594 1.384 . S
C1596 C1597 1.372 . S
C1597 C1596 1.372 . S
C1597 C1598 1.400 . S
C1597 C1602 1.490 . S
C1598 H1588 0.930 . S
C1598 C1597 1.400 . S
C1598 C1601 1.386 . S
H1599 C1615 0.930 . S
H1600 C1616 0.931 . S
C1601 H1589 0.929 . S
C1601 C1595 1.390 . S
C1601 C1598 1.386 . S
C1602 C1597 1.490 . S
C1602 C1604 1.395 . S
C1602 C1605 1.403 . S
H1603 C1609 0.930 . S
C1604 H1590 0.930 . S
C1604 C1602 1.395 . S
C1604 C1607 1.403 . S
C1605 C1602 1.403 . S
C1605 C1606 1.524 . S
C1605 C1609 1.400 . S
C1606 H1591 0.960 . S
C1606 H1592 0.960 . S
C1606 H1593 0.960 . S
C1606 C1605 1.524 . S
C1607 C1604 1.403 . S
C1607 C1608 1.392 . S
C1607 C1611 1.495 . S
C1608 C1607 1.392 . S
C1608 C1609 1.385 . S
C1608 C1610 1.478 . S
C1609 H1603 0.930 . S
C1609 C1605 1.400 . S
C1609 C1608 1.385 . S
C1610 C1608 1.478 . S
C1610 C1612 1.381 . S
C1610 C1616 1.383 . S
C1611 C1607 1.495 . S
C1611 H1617 0.959 . S
C1611 H1618 0.961 . S
C1611 H1619 0.960 . S
C1612 C1610 1.381 . S
C1612 C1613 1.394 . S
C1612 H1620 0.930 . S
C1613 C1612 1.394 . S
C1613 C1614 1.383 . S
C1613 H1621 0.929 . S
C1614 C1613 1.383 . S
C1614 C1615 1.377 . S
C1615 H1599 0.930 . S
C1615 C1614 1.377 . S
C1615 C1616 1.379 . S
C1616 H1600 0.931 . S
C1616 C1610 1.383 . S
C1616 C1615 1.379 . S
H1617 C1611 0.959 . S
H1618 C1611 0.961 . S
H1619 C1611 0.960 . S
H1620 C1612 0.930 . S
H1621 C1613 0.929 . S
H1622 C1630 0.929 . S
H1623 C1632 0.930 . S
H1624 C1634 0.930 . S
H1625 C1637 0.929 . S
H1626 C1640 0.930 . S
H1627 C1642 0.960 . S
H1628 C1642 0.960 . S
H1629 C1642 0.960 . S
C1630 H1622 0.929 . S
C1630 C1631 1.377 . S
C1630 C1632 1.384 . S
C1631 C1630 1.377 . S
C1631 C1637 1.390 . S
C1632 H1623 0.930 . S
C1632 C1630 1.384 . S
C1632 C1633 1.372 . S
C1633 C1632 1.372 . S
C1633 C1634 1.400 . S
C1633 C1638 1.490 . S
C1634 H1624 0.930 . S
C1634 C1633 1.400 . S
C1634 C1637 1.386 . S
H1635 C1651 0.930 . S
H1636 C1652 0.931 . S
C1637 H1625 0.929 . S
C1637 C1631 1.390 . S
C1637 C1634 1.386 . S
C1638 C1633 1.490 . S
C1638 C1640 1.395 . S
C1638 C1641 1.403 . S
H1639 C1645 0.930 . S
C1640 H1626 0.930 . S
C1640 C1638 1.395 . S
C1640 C1643 1.403 . S
C1641 C1638 1.403 . S
C1641 C1642 1.524 . S
C1641 C1645 1.400 . S
C1642 H1627 0.960 . S
C1642 H1628 0.960 . S
C1642 H1629 0.960 . S
C1642 C1641 1.524 . S
C1643 C1640 1.403 . S
C1643 C1644 1.392 . S
C1643 C1647 1.495 . S
C1644 C1643 1.392 . S
C1644 C1645 1.385 . S
C1644 C1646 1.478 . S
C1645 H1639 0.930 . S
C1645 C1641 1.400 . S
C1645 C1644 1.385 . S
C1646 C1644 1.478 . S
C1646 C1648 1.381 . S
C1646 C1652 1.383 . S
C1647 C1643 1.495 . S
C1647 H1653 0.959 . S
C1647 H1654 0.961 . S
C1647 H1655 0.960 . S
C1648 C1646 1.381 . S
C1648 C1649 1.394 . S
C1648 H1656 0.930 . S
C1649 C1648 1.394 . S
C1649 C1650 1.383 . S
C1649 H1657 0.929 . S
C1650 C1649 1.383 . S
C1650 C1651 1.377 . S
C1651 H1635 0.930 . S
C1651 C1650 1.377 . S
C1651 C1652 1.379 . S
C1652 H1636 0.931 . S
C1652 C1646 1.383 . S
C1652 C1651 1.379 . S
H1653 C1647 0.959 . S
H1654 C1647 0.961 . S
H1655 C1647 0.960 . S
H1656 C1648 0.930 . S
H1657 C1649 0.929 . S
H1658 C1666 0.929 . S
H1659 C1668 0.930 . S
H1660 C1670 0.930 . S
H1661 C1673 0.929 . S
H1662 C1676 0.930 . S
H1663 C1678 0.960 . S
H1664 C1678 0.960 . S
H1665 C1678 0.960 . S
C1666 H1658 0.929 . S
C1666 C1667 1.377 . S
C1666 C1668 1.384 . S
C1667 C1666 1.377 . S
C1667 C1673 1.390 . S
C1668 H1659 0.930 . S
C1668 C1666 1.384 . S
C1668 C1669 1.372 . S
C1669 C1668 1.372 . S
C1669 C1670 1.400 . S
C1669 C1674 1.490 . S
C1670 H1660 0.930 . S
C1670 C1669 1.400 . S
C1670 C1673 1.386 . S
H1671 C1687 0.930 . S
H1672 C1688 0.931 . S
C1673 H1661 0.929 . S
C1673 C1667 1.390 . S
C1673 C1670 1.386 . S
C1674 C1669 1.490 . S
C1674 C1676 1.395 . S
C1674 C1677 1.403 . S
H1675 C1681 0.930 . S
C1676 H1662 0.930 . S
C1676 C1674 1.395 . S
C1676 C1679 1.403 . S
C1677 C1674 1.403 . S
C1677 C1678 1.524 . S
C1677 C1681 1.400 . S
C1678 H1663 0.960 . S
C1678 H1664 0.960 . S
C1678 H1665 0.960 . S
C1678 C1677 1.524 . S
C1679 C1676 1.403 . S
C1679 C1680 1.392 . S
C1679 C1683 1.495 . S
C1680 C1679 1.392 . S
C1680 C1681 1.385 . S
C1680 C1682 1.478 . S
C1681 H1675 0.930 . S
C1681 C1677 1.400 . S
C1681 C1680 1.385 . S
C1682 C1680 1.478 . S
C1682 C1684 1.381 . S
C1682 C1688 1.383 . S
C1683 C1679 1.495 . S
C1683 H1689 0.959 . S
C1683 H1690 0.961 . S
C1683 H1691 0.960 . S
C1684 C1682 1.381 . S
C1684 C1685 1.394 . S
C1684 H1692 0.930 . S
C1685 C1684 1.394 . S
C1685 C1686 1.383 . S
C1685 H1693 0.929 . S
C1686 C1685 1.383 . S
C1686 C1687 1.377 . S
C1687 H1671 0.930 . S
C1687 C1686 1.377 . S
C1687 C1688 1.379 . S
C1688 H1672 0.931 . S
C1688 C1682 1.383 . S
C1688 C1687 1.379 . S
H1689 C1683 0.959 . S
H1690 C1683 0.961 . S
H1691 C1683 0.960 . S
H1692 C1684 0.930 . S
H1693 C1685 0.929 . S
H1694 C1702 0.929 . S
H1695 C1704 0.930 . S
H1696 C1706 0.930 . S
H1697 C1709 0.929 . S
H1698 C1712 0.930 . S
H1699 C1714 0.960 . S
H1700 C1714 0.960 . S
H1701 C1714 0.960 . S
C1702 H1694 0.929 . S
C1702 C1703 1.377 . S
C1702 C1704 1.384 . S
C1703 C1702 1.377 . S
C1703 C1709 1.390 . S
C1704 H1695 0.930 . S
C1704 C1702 1.384 . S
C1704 C1705 1.372 . S
C1705 C1704 1.372 . S
C1705 C1706 1.400 . S
C1705 C1710 1.490 . S
C1706 H1696 0.930 . S
C1706 C1705 1.400 . S
C1706 C1709 1.386 . S
H1707 C1723 0.930 . S
H1708 C1724 0.931 . S
C1709 H1697 0.929 . S
C1709 C1703 1.390 . S
C1709 C1706 1.386 . S
C1710 C1705 1.490 . S
C1710 C1712 1.395 . S
C1710 C1713 1.403 . S
H1711 C1717 0.930 . S
C1712 H1698 0.930 . S
C1712 C1710 1.395 . S
C1712 C1715 1.403 . S
C1713 C1710 1.403 . S
C1713 C1714 1.524 . S
C1713 C1717 1.400 . S
C1714 H1699 0.960 . S
C1714 H1700 0.960 . S
C1714 H1701 0.960 . S
C1714 C1713 1.524 . S
C1715 C1712 1.403 . S
C1715 C1716 1.392 . S
C1715 C1719 1.495 . S
C1716 C1715 1.392 . S
C1716 C1717 1.385 . S
C1716 C1718 1.478 . S
C1717 H1711 0.930 . S
C1717 C1713 1.400 . S
C1717 C1716 1.385 . S
C1718 C1716 1.478 . S
C1718 C1720 1.381 . S
C1718 C1724 1.383 . S
C1719 C1715 1.495 . S
C1719 H1725 0.959 . S
C1719 H1726 0.961 . S
C1719 H1727 0.960 . S
C1720 C1718 1.381 . S
C1720 C1721 1.394 . S
C1720 H1728 0.930 . S
C1721 C1720 1.394 . S
C1721 C1722 1.383 . S
C1721 H1729 0.929 . S
C1722 C1721 1.383 . S
C1722 C1723 1.377 . S
C1723 H1707 0.930 . S
C1723 C1722 1.377 . S
C1723 C1724 1.379 . S
C1724 H1708 0.931 . S
C1724 C1718 1.383 . S
C1724 C1723 1.379 . S
H1725 C1719 0.959 . S
H1726 C1719 0.961 . S
H1727 C1719 0.960 . S
H1728 C1720 0.930 . S
H1729 C1721 0.929 . S
H1730 C1738 0.929 . S
H1731 C1740 0.930 . S
H1732 C1742 0.930 . S
H1733 C1745 0.929 . S
H1734 C1748 0.930 . S
H1735 C1750 0.960 . S
H1736 C1750 0.960 . S
H1737 C1750 0.960 . S
C1738 H1730 0.929 . S
C1738 C1739 1.377 . S
C1738 C1740 1.384 . S
C1739 C1738 1.377 . S
C1739 C1745 1.390 . S
C1740 H1731 0.930 . S
C1740 C1738 1.384 . S
C1740 C1741 1.372 . S
C1741 C1740 1.372 . S
C1741 C1742 1.400 . S
C1741 C1746 1.490 . S
C1742 H1732 0.930 . S
C1742 C1741 1.400 . S
C1742 C1745 1.386 . S
H1743 C1759 0.930 . S
H1744 C1760 0.931 . S
C1745 H1733 0.929 . S
C1745 C1739 1.390 . S
C1745 C1742 1.386 . S
C1746 C1741 1.490 . S
C1746 C1748 1.395 . S
C1746 C1749 1.403 . S
H1747 C1753 0.930 . S
C1748 H1734 0.930 . S
C1748 C1746 1.395 . S
C1748 C1751 1.403 . S
C1749 C1746 1.403 . S
C1749 C1750 1.524 . S
C1749 C1753 1.400 . S
C1750 H1735 0.960 . S
C1750 H1736 0.960 . S
C1750 H1737 0.960 . S
C1750 C1749 1.524 . S
C1751 C1748 1.403 . S
C1751 C1752 1.392 . S
C1751 C1755 1.495 . S
C1752 C1751 1.392 . S
C1752 C1753 1.385 . S
C1752 C1754 1.478 . S
C1753 H1747 0.930 . S
C1753 C1749 1.400 . S
C1753 C1752 1.385 . S
C1754 C1752 1.478 . S
C1754 C1756 1.381 . S
C1754 C1760 1.383 . S
C1755 C1751 1.495 . S
C1755 H1761 0.959 . S
C1755 H1762 0.961 . S
C1755 H1763 0.960 . S
C1756 C1754 1.381 . S
C1756 C1757 1.394 . S
C1756 H1764 0.930 . S
C1757 C1756 1.394 . S
C1757 C1758 1.383 . S
C1757 H1765 0.929 . S
C1758 C1757 1.383 . S
C1758 C1759 1.377 . S
C1759 H1743 0.930 . S
C1759 C1758 1.377 . S
C1759 C1760 1.379 . S
C1760 H1744 0.931 . S
C1760 C1754 1.383 . S
C1760 C1759 1.379 . S
H1761 C1755 0.959 . S
H1762 C1755 0.961 . S
H1763 C1755 0.960 . S
H1764 C1756 0.930 . S
H1765 C1757 0.929 . S
H1766 C1774 0.929 . S
H1767 C1776 0.930 . S
H1768 C1778 0.930 . S
H1769 C1781 0.929 . S
H1770 C1784 0.930 . S
H1771 C1786 0.960 . S
H1772 C1786 0.960 . S
H1773 C1786 0.960 . S
C1774 H1766 0.929 . S
C1774 C1775 1.377 . S
C1774 C1776 1.384 . S
C1775 C1774 1.377 . S
C1775 C1781 1.390 . S
C1776 H1767 0.930 . S
C1776 C1774 1.384 . S
C1776 C1777 1.372 . S
C1777 C1776 1.372 . S
C1777 C1778 1.400 . S
C1777 C1782 1.490 . S
C1778 H1768 0.930 . S
C1778 C1777 1.400 . S
C1778 C1781 1.386 . S
H1779 C1795 0.930 . S
H1780 C1796 0.931 . S
C1781 H1769 0.929 . S
C1781 C1775 1.390 . S
C1781 C1778 1.386 . S
C1782 C1777 1.490 . S
C1782 C1784 1.395 . S
C1782 C1785 1.403 . S
H1783 C1789 0.930 . S
C1784 H1770 0.930 . S
C1784 C1782 1.395 . S
C1784 C1787 1.403 . S
C1785 C1782 1.403 . S
C1785 C1786 1.524 . S
C1785 C1789 1.400 . S
C1786 H1771 0.960 . S
C1786 H1772 0.960 . S
C1786 H1773 0.960 . S
C1786 C1785 1.524 . S
C1787 C1784 1.403 . S
C1787 C1788 1.392 . S
C1787 C1791 1.495 . S
C1788 C1787 1.392 . S
C1788 C1789 1.385 . S
C1788 C1790 1.478 . S
C1789 H1783 0.930 . S
C1789 C1785 1.400 . S
C1789 C1788 1.385 . S
C1790 C1788 1.478 . S
C1790 C1792 1.381 . S
C1790 C1796 1.383 . S
C1791 C1787 1.495 . S
C1791 H1797 0.959 . S
C1791 H1798 0.961 . S
C1791 H1799 0.960 . S
C1792 C1790 1.381 . S
C1792 C1793 1.394 . S
C1792 H1800 0.930 . S
C1793 C1792 1.394 . S
C1793 C1794 1.383 . S
C1793 H1801 0.929 . S
C1794 C1793 1.383 . S
C1794 C1795 1.377 . S
C1795 H1779 0.930 . S
C1795 C1794 1.377 . S
C1795 C1796 1.379 . S
C1796 H1780 0.931 . S
C1796 C1790 1.383 . S
C1796 C1795 1.379 . S
H1797 C1791 0.959 . S
H1798 C1791 0.961 . S
H1799 C1791 0.960 . S
H1800 C1792 0.930 . S
H1801 C1793 0.929 . S
H1802 C1810 0.929 . S
H1803 C1812 0.930 . S
H1804 C1814 0.930 . S
H1805 C1817 0.929 . S
H1806 C1820 0.930 . S
H1807 C1822 0.960 . S
H1808 C1822 0.960 . S
H1809 C1822 0.960 . S
C1810 H1802 0.929 . S
C1810 C1811 1.377 . S
C1810 C1812 1.384 . S
C1811 C1810 1.377 . S
C1811 C1817 1.390 . S
C1812 H1803 0.930 . S
C1812 C1810 1.384 . S
C1812 C1813 1.372 . S
C1813 C1812 1.372 . S
C1813 C1814 1.400 . S
C1813 C1818 1.490 . S
C1814 H1804 0.930 . S
C1814 C1813 1.400 . S
C1814 C1817 1.386 . S
H1815 C1831 0.930 . S
H1816 C1832 0.931 . S
C1817 H1805 0.929 . S
C1817 C1811 1.390 . S
C1817 C1814 1.386 . S
C1818 C1813 1.490 . S
C1818 C1820 1.395 . S
C1818 C1821 1.403 . S
H1819 C1825 0.930 . S
C1820 H1806 0.930 . S
C1820 C1818 1.395 . S
C1820 C1823 1.403 . S
C1821 C1818 1.403 . S
C1821 C1822 1.524 . S
C1821 C1825 1.400 . S
C1822 H1807 0.960 . S
C1822 H1808 0.960 . S
C1822 H1809 0.960 . S
C1822 C1821 1.524 . S
C1823 C1820 1.403 . S
C1823 C1824 1.392 . S
C1823 C1827 1.495 . S
C1824 C1823 1.392 . S
C1824 C1825 1.385 . S
C1824 C1826 1.478 . S
C1825 H1819 0.930 . S
C1825 C1821 1.400 . S
C1825 C1824 1.385 . S
C1826 C1824 1.478 . S
C1826 C1828 1.381 . S
C1826 C1832 1.383 . S
C1827 C1823 1.495 . S
C1827 H1833 0.959 . S
C1827 H1834 0.961 . S
C1827 H1835 0.960 . S
C1828 C1826 1.381 . S
C1828 C1829 1.394 . S
C1828 H1836 0.930 . S
C1829 C1828 1.394 . S
C1829 C1830 1.383 . S
C1829 H1837 0.929 . S
C1830 C1829 1.383 . S
C1830 C1831 1.377 . S
C1831 H1815 0.930 . S
C1831 C1830 1.377 . S
C1831 C1832 1.379 . S
C1832 H1816 0.931 . S
C1832 C1826 1.383 . S
C1832 C1831 1.379 . S
H1833 C1827 0.959 . S
H1834 C1827 0.961 . S
H1835 C1827 0.960 . S
H1836 C1828 0.930 . S
H1837 C1829 0.929 . S
H1838 C1846 0.929 . S
H1839 C1848 0.930 . S
H1840 C1850 0.930 . S
H1841 C1853 0.929 . S
H1842 C1856 0.930 . S
H1843 C1858 0.960 . S
H1844 C1858 0.960 . S
H1845 C1858 0.960 . S
C1846 H1838 0.929 . S
C1846 C1847 1.377 . S
C1846 C1848 1.384 . S
C1847 C1846 1.377 . S
C1847 C1853 1.390 . S
C1848 H1839 0.930 . S
C1848 C1846 1.384 . S
C1848 C1849 1.372 . S
C1849 C1848 1.372 . S
C1849 C1850 1.400 . S
C1849 C1854 1.490 . S
C1850 H1840 0.930 . S
C1850 C1849 1.400 . S
C1850 C1853 1.386 . S
H1851 C1867 0.930 . S
H1852 C1868 0.931 . S
C1853 H1841 0.929 . S
C1853 C1847 1.390 . S
C1853 C1850 1.386 . S
C1854 C1849 1.490 . S
C1854 C1856 1.395 . S
C1854 C1857 1.403 . S
H1855 C1861 0.930 . S
C1856 H1842 0.930 . S
C1856 C1854 1.395 . S
C1856 C1859 1.403 . S
C1857 C1854 1.403 . S
C1857 C1858 1.524 . S
C1857 C1861 1.400 . S
C1858 H1843 0.960 . S
C1858 H1844 0.960 . S
C1858 H1845 0.960 . S
C1858 C1857 1.524 . S
C1859 C1856 1.403 . S
C1859 C1860 1.392 . S
C1859 C1863 1.495 . S
C1860 C1859 1.392 . S
C1860 C1861 1.385 . S
C1860 C1862 1.478 . S
C1861 H1855 0.930 . S
C1861 C1857 1.400 . S
C1861 C1860 1.385 . S
C1862 C1860 1.478 . S
C1862 C1864 1.381 . S
C1862 C1868 1.383 . S
C1863 C1859 1.495 . S
C1863 H1869 0.959 . S
C1863 H1870 0.961 . S
C1863 H1871 0.960 . S
C1864 C1862 1.381 . S
C1864 C1865 1.394 . S
C1864 H1872 0.930 . S
C1865 C1864 1.394 . S
C1865 C1866 1.383 . S
C1865 H1873 0.929 . S
C1866 C1865 1.383 . S
C1866 C1867 1.377 . S
C1867 H1851 0.930 . S
C1867 C1866 1.377 . S
C1867 C1868 1.379 . S
C1868 H1852 0.931 . S
C1868 C1862 1.383 . S
C1868 C1867 1.379 . S
H1869 C1863 0.959 . S
H1870 C1863 0.961 . S
H1871 C1863 0.960 . S
H1872 C1864 0.930 . S
H1873 C1865 0.929 . S
H1874 C1882 0.929 . S
H1875 C1884 0.930 . S
H1876 C1886 0.930 . S
H1877 C1889 0.929 . S
H1878 C1892 0.930 . S
H1879 C1894 0.960 . S
H1880 C1894 0.960 . S
H1881 C1894 0.960 . S
C1882 H1874 0.929 . S
C1882 C1883 1.377 . S
C1882 C1884 1.384 . S
C1883 C1882 1.377 . S
C1883 C1889 1.390 . S
C1884 H1875 0.930 . S
C1884 C1882 1.384 . S
C1884 C1885 1.372 . S
C1885 C1884 1.372 . S
C1885 C1886 1.400 . S
C1885 C1890 1.490 . S
C1886 H1876 0.930 . S
C1886 C1885 1.400 . S
C1886 C1889 1.386 . S
H1887 C1903 0.930 . S
H1888 C1904 0.931 . S
C1889 H1877 0.929 . S
C1889 C1883 1.390 . S
C1889 C1886 1.386 . S
C1890 C1885 1.490 . S
C1890 C1892 1.395 . S
C1890 C1893 1.403 . S
H1891 C1897 0.930 . S
C1892 H1878 0.930 . S
C1892 C1890 1.395 . S
C1892 C1895 1.403 . S
C1893 C1890 1.403 . S
C1893 C1894 1.524 . S
C1893 C1897 1.400 . S
C1894 H1879 0.960 . S
C1894 H1880 0.960 . S
C1894 H1881 0.960 . S
C1894 C1893 1.524 . S
C1895 C1892 1.403 . S
C1895 C1896 1.392 . S
C1895 C1899 1.495 . S
C1896 C1895 1.392 . S
C1896 C1897 1.385 . S
C1896 C1898 1.478 . S
C1897 H1891 0.930 . S
C1897 C1893 1.400 . S
C1897 C1896 1.385 . S
C1898 C1896 1.478 . S
C1898 C1900 1.381 . S
C1898 C1904 1.383 . S
C1899 C1895 1.495 . S
C1899 H1905 0.959 . S
C1899 H1906 0.961 . S
C1899 H1907 0.960 . S
C1900 C1898 1.381 . S
C1900 C1901 1.394 . S
C1900 H1908 0.930 . S
C1901 C1900 1.394 . S
C1901 C1902 1.383 . S
C1901 H1909 0.929 . S
C1902 C1901 1.383 . S
C1902 C1903 1.377 . S
C1903 H1887 0.930 . S
C1903 C1902 1.377 . S
C1903 C1904 1.379 . S
C1904 H1888 0.931 . S
C1904 C1898 1.383 . S
C1904 C1903 1.379 . S
H1905 C1899 0.959 . S
H1906 C1899 0.961 . S
H1907 C1899 0.960 . S
H1908 C1900 0.930 . S
H1909 C1901 0.929 . S
H1910 C1918 0.929 . S
H1911 C1920 0.930 . S
H1912 C1922 0.930 . S
H1913 C1925 0.929 . S
H1914 C1928 0.930 . S
H1915 C1930 0.960 . S
H1916 C1930 0.960 . S
H1917 C1930 0.960 . S
C1918 H1910 0.929 . S
C1918 C1919 1.377 . S
C1918 C1920 1.384 . S
C1919 C1918 1.377 . S
C1919 C1925 1.390 . S
C1920 H1911 0.930 . S
C1920 C1918 1.384 . S
C1920 C1921 1.372 . S
C1921 C1920 1.372 . S
C1921 C1922 1.400 . S
C1921 C1926 1.490 . S
C1922 H1912 0.930 . S
C1922 C1921 1.400 . S
C1922 C1925 1.386 . S
H1923 C1939 0.930 . S
H1924 C1940 0.931 . S
C1925 H1913 0.929 . S
C1925 C1919 1.390 . S
C1925 C1922 1.386 . S
C1926 C1921 1.490 . S
C1926 C1928 1.395 . S
C1926 C1929 1.403 . S
H1927 C1933 0.930 . S
C1928 H1914 0.930 . S
C1928 C1926 1.395 . S
C1928 C1931 1.403 . S
C1929 C1926 1.403 . S
C1929 C1930 1.524 . S
C1929 C1933 1.400 . S
C1930 H1915 0.960 . S
C1930 H1916 0.960 . S
C1930 H1917 0.960 . S
C1930 C1929 1.524 . S
C1931 C1928 1.403 . S
C1931 C1932 1.392 . S
C1931 C1935 1.495 . S
C1932 C1931 1.392 . S
C1932 C1933 1.385 . S
C1932 C1934 1.478 . S
C1933 H1927 0.930 . S
C1933 C1929 1.400 . S
C1933 C1932 1.385 . S
C1934 C1932 1.478 . S
C1934 C1936 1.381 . S
C1934 C1940 1.383 . S
C1935 C1931 1.495 . S
C1935 H1941 0.959 . S
C1935 H1942 0.961 . S
C1935 H1943 0.960 . S
C1936 C1934 1.381 . S
C1936 C1937 1.394 . S
C1936 H1944 0.930 . S
C1937 C1936 1.394 . S
C1937 C1938 1.383 . S
C1937 H1945 0.929 . S
C1938 C1937 1.383 . S
C1938 C1939 1.377 . S
C1939 H1923 0.930 . S
C1939 C1938 1.377 . S
C1939 C1940 1.379 . S
C1940 H1924 0.931 . S
C1940 C1934 1.383 . S
C1940 C1939 1.379 . S
H1941 C1935 0.959 . S
H1942 C1935 0.961 . S
H1943 C1935 0.960 . S
H1944 C1936 0.930 . S
H1945 C1937 0.929 . S
H1946 C1954 0.929 . S
H1947 C1956 0.930 . S
H1948 C1958 0.930 . S
H1949 C1961 0.929 . S
H1950 C1964 0.930 . S
H1951 C1966 0.960 . S
H1952 C1966 0.960 . S
H1953 C1966 0.960 . S
C1954 H1946 0.929 . S
C1954 C1955 1.377 . S
C1954 C1956 1.384 . S
C1955 C1954 1.377 . S
C1955 C1961 1.390 . S
C1956 H1947 0.930 . S
C1956 C1954 1.384 . S
C1956 C1957 1.372 . S
C1957 C1956 1.372 . S
C1957 C1958 1.400 . S
C1957 C1962 1.490 . S
C1958 H1948 0.930 . S
C1958 C1957 1.400 . S
C1958 C1961 1.386 . S
H1959 C1975 0.930 . S
H1960 C1976 0.931 . S
C1961 H1949 0.929 . S
C1961 C1955 1.390 . S
C1961 C1958 1.386 . S
C1962 C1957 1.490 . S
C1962 C1964 1.395 . S
C1962 C1965 1.403 . S
H1963 C1969 0.930 . S
C1964 H1950 0.930 . S
C1964 C1962 1.395 . S
C1964 C1967 1.403 . S
C1965 C1962 1.403 . S
C1965 C1966 1.524 . S
C1965 C1969 1.400 . S
C1966 H1951 0.960 . S
C1966 H1952 0.960 . S
C1966 H1953 0.960 . S
C1966 C1965 1.524 . S
C1967 C1964 1.403 . S
C1967 C1968 1.392 . S
C1967 C1971 1.495 . S
C1968 C1967 1.392 . S
C1968 C1969 1.385 . S
C1968 C1970 1.478 . S
C1969 H1963 0.930 . S
C1969 C1965 1.400 . S
C1969 C1968 1.385 . S
C1970 C1968 1.478 . S
C1970 C1972 1.381 . S
C1970 C1976 1.383 . S
C1971 C1967 1.495 . S
C1971 H1977 0.959 . S
C1971 H1978 0.961 . S
C1971 H1979 0.960 . S
C1972 C1970 1.381 . S
C1972 C1973 1.394 . S
C1972 H1980 0.930 . S
C1973 C1972 1.394 . S
C1973 C1974 1.383 . S
C1973 H1981 0.929 . S
C1974 C1973 1.383 . S
C1974 C1975 1.377 . S
C1975 H1959 0.930 . S
C1975 C1974 1.377 . S
C1975 C1976 1.379 . S
C1976 H1960 0.931 . S
C1976 C1970 1.383 . S
C1976 C1975 1.379 . S
H1977 C1971 0.959 . S
H1978 C1971 0.961 . S
H1979 C1971 0.960 . S
H1980 C1972 0.930 . S
H1981 C1973 0.929 . S
H1982 C1990 0.929 . S
H1983 C1992 0.930 . S
H1984 C1994 0.930 . S
H1985 C1997 0.929 . S
H1986 C2000 0.930 . S
H1987 C2002 0.960 . S
H1988 C2002 0.960 . S
H1989 C2002 0.960 . S
C1990 H1982 0.929 . S
C1990 C1991 1.377 . S
C1990 C1992 1.384 . S
C1991 C1990 1.377 . S
C1991 C1997 1.390 . S
C1992 H1983 0.930 . S
C1992 C1990 1.384 . S
C1992 C1993 1.372 . S
C1993 C1992 1.372 . S
C1993 C1994 1.400 . S
C1993 C1998 1.490 . S
C1994 H1984 0.930 . S
C1994 C1993 1.400 . S
C1994 C1997 1.386 . S
H1995 C2011 0.930 . S
H1996 C2012 0.931 . S
C1997 H1985 0.929 . S
C1997 C1991 1.390 . S
C1997 C1994 1.386 . S
C1998 C1993 1.490 . S
C1998 C2000 1.395 . S
C1998 C2001 1.403 . S
H1999 C2005 0.930 . S
C2000 H1986 0.930 . S
C2000 C1998 1.395 . S
C2000 C2003 1.403 . S
C2001 C1998 1.403 . S
C2001 C2002 1.524 . S
C2001 C2005 1.400 . S
C2002 H1987 0.960 . S
C2002 H1988 0.960 . S
C2002 H1989 0.960 . S
C2002 C2001 1.524 . S
C2003 C2000 1.403 . S
C2003 C2004 1.392 . S
C2003 C2007 1.495 . S
C2004 C2003 1.392 . S
C2004 C2005 1.385 . S
C2004 C2006 1.478 . S
C2005 H1999 0.930 . S
C2005 C2001 1.400 . S
C2005 C2004 1.385 . S
C2006 C2004 1.478 . S
C2006 C2008 1.381 . S
C2006 C2012 1.383 . S
C2007 C2003 1.495 . S
C2007 H2013 0.959 . S
C2007 H2014 0.961 . S
C2007 H2015 0.960 . S
C2008 C2006 1.381 . S
C2008 C2009 1.394 . S
C2008 H2016 0.930 . S
C2009 C2008 1.394 . S
C2009 C2010 1.383 . S
C2009 H2017 0.929 . S
C2010 C2009 1.383 . S
C2010 C2011 1.377 . S
C2011 H1995 0.930 . S
C2011 C2010 1.377 . S
C2011 C2012 1.379 . S
C2012 H1996 0.931 . S
C2012 C2006 1.383 . S
C2012 C2011 1.379 . S
H2013 C2007 0.959 . S
H2014 C2007 0.961 . S
H2015 C2007 0.960 . S
H2016 C2008 0.930 . S
H2017 C2009 0.929 . S
H2018 C2026 0.929 . S
H2019 C2028 0.930 . S
H2020 C2030 0.930 . S
H2021 C2033 0.929 . S
H2022 C2036 0.930 . S
H2023 C2038 0.960 . S
H2024 C2038 0.960 . S
H2025 C2038 0.960 . S
C2026 H2018 0.929 . S
C2026 C2027 1.377 . S
C2026 C2028 1.384 . S
C2027 C2026 1.377 . S
C2027 C2033 1.390 . S
C2028 H2019 0.930 . S
C2028 C2026 1.384 . S
C2028 C2029 1.372 . S
C2029 C2028 1.372 . S
C2029 C2030 1.400 . S
C2029 C2034 1.490 . S
C2030 H2020 0.930 . S
C2030 C2029 1.400 . S
C2030 C2033 1.386 . S
H2031 C2047 0.930 . S
H2032 C2048 0.931 . S
C2033 H2021 0.929 . S
C2033 C2027 1.390 . S
C2033 C2030 1.386 . S
C2034 C2029 1.490 . S
C2034 C2036 1.395 . S
C2034 C2037 1.403 . S
H2035 C2041 0.930 . S
C2036 H2022 0.930 . S
C2036 C2034 1.395 . S
C2036 C2039 1.403 . S
C2037 C2034 1.403 . S
C2037 C2038 1.524 . S
C2037 C2041 1.400 . S
C2038 H2023 0.960 . S
C2038 H2024 0.960 . S
C2038 H2025 0.960 . S
C2038 C2037 1.524 . S
C2039 C2036 1.403 . S
C2039 C2040 1.392 . S
C2039 C2043 1.495 . S
C2040 C2039 1.392 . S
C2040 C2041 1.385 . S
C2040 C2042 1.478 . S
C2041 H2035 0.930 . S
C2041 C2037 1.400 . S
C2041 C2040 1.385 . S
C2042 C2040 1.478 . S
C2042 C2044 1.381 . S
C2042 C2048 1.383 . S
C2043 C2039 1.495 . S
C2043 H2049 0.959 . S
C2043 H2050 0.961 . S
C2043 H2051 0.960 . S
C2044 C2042 1.381 . S
C2044 C2045 1.394 . S
C2044 H2052 0.930 . S
C2045 C2044 1.394 . S
C2045 C2046 1.383 . S
C2045 H2053 0.929 . S
C2046 C2045 1.383 . S
C2046 C2047 1.377 . S
C2047 H2031 0.930 . S
C2047 C2046 1.377 . S
C2047 C2048 1.379 . S
C2048 H2032 0.931 . S
C2048 C2042 1.383 . S
C2048 C2047 1.379 . S
H2049 C2043 0.959 . S
H2050 C2043 0.961 . S
H2051 C2043 0.960 . S
H2052 C2044 0.930 . S
H2053 C2045 0.929 . S
H2054 C2062 0.929 . S
H2055 C2064 0.930 . S
H2056 C2066 0.930 . S
H2057 C2069 0.929 . S
H2058 C2072 0.930 . S
H2059 C2074 0.960 . S
H2060 C2074 0.960 . S
H2061 C2074 0.960 . S
C2062 H2054 0.929 . S
C2062 C2063 1.377 . S
C2062 C2064 1.384 . S
C2063 C2062 1.377 . S
C2063 C2069 1.390 . S
C2064 H2055 0.930 . S
C2064 C2062 1.384 . S
C2064 C2065 1.372 . S
C2065 C2064 1.372 . S
C2065 C2066 1.400 . S
C2065 C2070 1.490 . S
C2066 H2056 0.930 . S
C2066 C2065 1.400 . S
C2066 C2069 1.386 . S
H2067 C2083 0.930 . S
H2068 C2084 0.931 . S
C2069 H2057 0.929 . S
C2069 C2063 1.390 . S
C2069 C2066 1.386 . S
C2070 C2065 1.490 . S
C2070 C2072 1.395 . S
C2070 C2073 1.403 . S
H2071 C2077 0.930 . S
C2072 H2058 0.930 . S
C2072 C2070 1.395 . S
C2072 C2075 1.403 . S
C2073 C2070 1.403 . S
C2073 C2074 1.524 . S
C2073 C2077 1.400 . S
C2074 H2059 0.960 . S
C2074 H2060 0.960 . S
C2074 H2061 0.960 . S
C2074 C2073 1.524 . S
C2075 C2072 1.403 . S
C2075 C2076 1.392 . S
C2075 C2079 1.495 . S
C2076 C2075 1.392 . S
C2076 C2077 1.385 . S
C2076 C2078 1.478 . S
C2077 H2071 0.930 . S
C2077 C2073 1.400 . S
C2077 C2076 1.385 . S
C2078 C2076 1.478 . S
C2078 C2080 1.381 . S
C2078 C2084 1.383 . S
C2079 C2075 1.495 . S
C2079 H2085 0.959 . S
C2079 H2086 0.961 . S
C2079 H2087 0.960 . S
C2080 C2078 1.381 . S
C2080 C2081 1.394 . S
C2080 H2088 0.930 . S
C2081 C2080 1.394 . S
C2081 C2082 1.383 . S
C2081 H2089 0.929 . S
C2082 C2081 1.383 . S
C2082 C2083 1.377 . S
C2083 H2067 0.930 . S
C2083 C2082 1.377 . S
C2083 C2084 1.379 . S
C2084 H2068 0.931 . S
C2084 C2078 1.383 . S
C2084 C2083 1.379 . S
H2085 C2079 0.959 . S
H2086 C2079 0.961 . S
H2087 C2079 0.960 . S
H2088 C2080 0.930 . S
H2089 C2081 0.929 . S
H2090 C2098 0.929 . S
H2091 C2100 0.930 . S
H2092 C2102 0.930 . S
H2093 C2105 0.929 . S
H2094 C2108 0.930 . S
H2095 C2110 0.960 . S
H2096 C2110 0.960 . S
H2097 C2110 0.960 . S
C2098 H2090 0.929 . S
C2098 C2099 1.377 . S
C2098 C2100 1.384 . S
C2099 C2098 1.377 . S
C2099 C2105 1.390 . S
C2100 H2091 0.930 . S
C2100 C2098 1.384 . S
C2100 C2101 1.372 . S
C2101 C2100 1.372 . S
C2101 C2102 1.400 . S
C2101 C2106 1.490 . S
C2102 H2092 0.930 . S
C2102 C2101 1.400 . S
C2102 C2105 1.386 . S
H2103 C2119 0.930 . S
H2104 C2120 0.931 . S
C2105 H2093 0.929 . S
C2105 C2099 1.390 . S
C2105 C2102 1.386 . S
C2106 C2101 1.490 . S
C2106 C2108 1.395 . S
C2106 C2109 1.403 . S
H2107 C2113 0.930 . S
C2108 H2094 0.930 . S
C2108 C2106 1.395 . S
C2108 C2111 1.403 . S
C2109 C2106 1.403 . S
C2109 C2110 1.524 . S
C2109 C2113 1.400 . S
C2110 H2095 0.960 . S
C2110 H2096 0.960 . S
C2110 H2097 0.960 . S
C2110 C2109 1.524 . S
C2111 C2108 1.403 . S
C2111 C2112 1.392 . S
C2111 C2115 1.495 . S
C2112 C2111 1.392 . S
C2112 C2113 1.385 . S
C2112 C2114 1.478 . S
C2113 H2107 0.930 . S
C2113 C2109 1.400 . S
C2113 C2112 1.385 . S
C2114 C2112 1.478 . S
C2114 C2116 1.381 . S
C2114 C2120 1.383 . S
C2115 C2111 1.495 . S
C2115 H2121 0.959 . S
C2115 H2122 0.961 . S
C2115 H2123 0.960 . S
C2116 C2114 1.381 . S
C2116 C2117 1.394 . S
C2116 H2124 0.930 . S
C2117 C2116 1.394 . S
C2117 C2118 1.383 . S
C2117 H2125 0.929 . S
C2118 C2117 1.383 . S
C2118 C2119 1.377 . S
C2119 H2103 0.930 . S
C2119 C2118 1.377 . S
C2119 C2120 1.379 . S
C2120 H2104 0.931 . S
C2120 C2114 1.383 . S
C2120 C2119 1.379 . S
H2121 C2115 0.959 . S
H2122 C2115 0.961 . S
H2123 C2115 0.960 . S
H2124 C2116 0.930 . S
H2125 C2117 0.929 . S
H2126 C2134 0.929 . S
H2127 C2136 0.930 . S
H2128 C2138 0.930 . S
H2129 C2141 0.929 . S
H2130 C2144 0.930 . S
H2131 C2146 0.960 . S
H2132 C2146 0.960 . S
H2133 C2146 0.960 . S
C2134 H2126 0.929 . S
C2134 C2135 1.377 . S
C2134 C2136 1.384 . S
C2135 C2134 1.377 . S
C2135 C2141 1.390 . S
C2136 H2127 0.930 . S
C2136 C2134 1.384 . S
C2136 C2137 1.372 . S
C2137 C2136 1.372 . S
C2137 C2138 1.400 . S
C2137 C2142 1.490 . S
C2138 H2128 0.930 . S
C2138 C2137 1.400 . S
C2138 C2141 1.386 . S
H2139 C2155 0.930 . S
H2140 C2156 0.931 . S
C2141 H2129 0.929 . S
C2141 C2135 1.390 . S
C2141 C2138 1.386 . S
C2142 C2137 1.490 . S
C2142 C2144 1.395 . S
C2142 C2145 1.403 . S
H2143 C2149 0.930 . S
C2144 H2130 0.930 . S
C2144 C2142 1.395 . S
C2144 C2147 1.403 . S
C2145 C2142 1.403 . S
C2145 C2146 1.524 . S
C2145 C2149 1.400 . S
C2146 H2131 0.960 . S
C2146 H2132 0.960 . S
C2146 H2133 0.960 . S
C2146 C2145 1.524 . S
C2147 C2144 1.403 . S
C2147 C2148 1.392 . S
C2147 C2151 1.495 . S
C2148 C2147 1.392 . S
C2148 C2149 1.385 . S
C2148 C2150 1.478 . S
C2149 H2143 0.930 . S
C2149 C2145 1.400 . S
C2149 C2148 1.385 . S
C2150 C2148 1.478 . S
C2150 C2152 1.381 . S
C2150 C2156 1.383 . S
C2151 C2147 1.495 . S
C2151 H2157 0.959 . S
C2151 H2158 0.961 . S
C2151 H2159 0.960 . S
C2152 C2150 1.381 . S
C2152 C2153 1.394 . S
C2152 H2160 0.930 . S
C2153 C2152 1.394 . S
C2153 C2154 1.383 . S
C2153 H2161 0.929 . S
C2154 C2153 1.383 . S
C2154 C2155 1.377 . S
C2155 H2139 0.930 . S
C2155 C2154 1.377 . S
C2155 C2156 1.379 . S
C2156 H2140 0.931 . S
C2156 C2150 1.383 . S
C2156 C2155 1.379 . S
H2157 C2151 0.959 . S
H2158 C2151 0.961 . S
H2159 C2151 0.960 . S
H2160 C2152 0.930 . S
H2161 C2153 0.929 . S
H2162 C2170 0.929 . S
H2163 C2172 0.930 . S
H2164 C2174 0.930 . S
H2165 C2177 0.929 . S
H2166 C2180 0.930 . S
H2167 C2182 0.960 . S
H2168 C2182 0.960 . S
H2169 C2182 0.960 . S
C2170 H2162 0.929 . S
C2170 C2171 1.377 . S
C2170 C2172 1.384 . S
C2171 C2170 1.377 . S
C2171 C2177 1.390 . S
C2172 H2163 0.930 . S
C2172 C2170 1.384 . S
C2172 C2173 1.372 . S
C2173 C2172 1.372 . S
C2173 C2174 1.400 . S
C2173 C2178 1.490 . S
C2174 H2164 0.930 . S
C2174 C2173 1.400 . S
C2174 C2177 1.386 . S
H2175 C2191 0.930 . S
H2176 C2192 0.931 . S
C2177 H2165 0.929 . S
C2177 C2171 1.390 . S
C2177 C2174 1.386 . S
C2178 C2173 1.490 . S
C2178 C2180 1.395 . S
C2178 C2181 1.403 . S
H2179 C2185 0.930 . S
C2180 H2166 0.930 . S
C2180 C2178 1.395 . S
C2180 C2183 1.403 . S
C2181 C2178 1.403 . S
C2181 C2182 1.524 . S
C2181 C2185 1.400 . S
C2182 H2167 0.960 . S
C2182 H2168 0.960 . S
C2182 H2169 0.960 . S
C2182 C2181 1.524 . S
C2183 C2180 1.403 . S
C2183 C2184 1.392 . S
C2183 C2187 1.495 . S
C2184 C2183 1.392 . S
C2184 C2185 1.385 . S
C2184 C2186 1.478 . S
C2185 H2179 0.930 . S
C2185 C2181 1.400 . S
C2185 C2184 1.385 . S
C2186 C2184 1.478 . S
C2186 C2188 1.381 . S
C2186 C2192 1.383 . S
C2187 C2183 1.495 . S
C2187 H2193 0.959 . S
C2187 H2194 0.961 . S
C2187 H2195 0.960 . S
C2188 C2186 1.381 . S
C2188 C2189 1.394 . S
C2188 H2196 0.930 . S
C2189 C2188 1.394 . S
C2189 C2190 1.383 . S
C2189 H2197 0.929 . S
C2190 C2189 1.383 . S
C2190 C2191 1.377 . S
C2191 H2175 0.930 . S
C2191 C2190 1.377 . S
C2191 C2192 1.379 . S
C2192 H2176 0.931 . S
C2192 C2186 1.383 . S
C2192 C2191 1.379 . S
H2193 C2187 0.959 . S
H2194 C2187 0.961 . S
H2195 C2187 0.960 . S
H2196 C2188 0.930 . S
H2197 C2189 0.929 . S
H2198 C2206 0.929 . S
H2199 C2208 0.930 . S
H2200 C2210 0.930 . S
H2201 C2213 0.929 . S
H2202 C2216 0.930 . S
H2203 C2218 0.960 . S
H2204 C2218 0.960 . S
H2205 C2218 0.960 . S
C2206 H2198 0.929 . S
C2206 C2207 1.377 . S
C2206 C2208 1.384 . S
C2207 C2206 1.377 . S
C2207 C2213 1.390 . S
C2208 H2199 0.930 . S
C2208 C2206 1.384 . S
C2208 C2209 1.372 . S
C2209 C2208 1.372 . S
C2209 C2210 1.400 . S
C2209 C2214 1.490 . S
C2210 H2200 0.930 . S
C2210 C2209 1.400 . S
C2210 C2213 1.386 . S
H2211 C2227 0.930 . S
H2212 C2228 0.931 . S
C2213 H2201 0.929 . S
C2213 C2207 1.390 . S
C2213 C2210 1.386 . S
C2214 C2209 1.490 . S
C2214 C2216 1.395 . S
C2214 C2217 1.403 . S
H2215 C2221 0.930 . S
C2216 H2202 0.930 . S
C2216 C2214 1.395 . S
C2216 C2219 1.403 . S
C2217 C2214 1.403 . S
C2217 C2218 1.524 . S
C2217 C2221 1.400 . S
C2218 H2203 0.960 . S
C2218 H2204 0.960 . S
C2218 H2205 0.960 . S
C2218 C2217 1.524 . S
C2219 C2216 1.403 . S
C2219 C2220 1.392 . S
C2219 C2223 1.495 . S
C2220 C2219 1.392 . S
C2220 C2221 1.385 . S
C2220 C2222 1.478 . S
C2221 H2215 0.930 . S
C2221 C2217 1.400 . S
C2221 C2220 1.385 . S
C2222 C2220 1.478 . S
C2222 C2224 1.381 . S
C2222 C2228 1.383 . S
C2223 C2219 1.495 . S
C2223 H2229 0.959 . S
C2223 H2230 0.961 . S
C2223 H2231 0.960 . S
C2224 C2222 1.381 . S
C2224 C2225 1.394 . S
C2224 H2232 0.930 . S
C2225 C2224 1.394 . S
C2225 C2226 1.383 . S
C2225 H2233 0.929 . S
C2226 C2225 1.383 . S
C2226 C2227 1.377 . S
C2227 H2211 0.930 . S
C2227 C2226 1.377 . S
C2227 C2228 1.379 . S
C2228 H2212 0.931 . S
C2228 C2222 1.383 . S
C2228 C2227 1.379 . S
H2229 C2223 0.959 . S
H2230 C2223 0.961 . S
H2231 C2223 0.960 . S
H2232 C2224 0.930 . S
H2233 C2225 0.929 . S
C534 C331 1.494 . S
C515 C2 1.489 . S
C570 C321 0.549 . S
C551 C65 0.398 . S
C606 C322 1.019 . S
C587 C82 0.999 . S
C623 C145 0.843 . S
C642 C344 0.863 . S
C659 C164 0.239 . S
C678 C347 0.335 . S
C714 C330 0.945 . S
C695 C223 0.978 . S
C731 C244 1.075 . S
C750 C320 1.090 . S
C767 C282 1.451 . S
C786 C338 1.414 . S
C822 C351 3.276 . S
C803 C31 3.298 . S
C839 C60 1.761 . S
C858 C400 1.722 . S
C894 C378 3.380 . S
C875 C111 3.437 . S
C930 C392 1.098 . S
C911 C140 1.140 . S
C947 C162 1.192 . S
C966 C353 1.182 . S
C1002 C406 1.245 . S
C983 C225 1.317 . S
C1019 C242 1.842 . S
C1038 C362 1.766 . S
C1055 C311 2.502 . S
C1074 C383 2.457 . S
C1091 C4 1.046 . S
C1110 C409 1.059 . S
C1127 C191 1.025 . S
C1146 C393 0.951 . S
C1182 C352 3.023 . S
C1163 C220 3.031 . S
C1218 C384 0.676 . S
C1199 C271 0.693 . S
C1235 C284 1.648 . S
C1254 C375 1.623 . S
C1271 C84 0.953 . S
C1290 C382 0.967 . S
C1326 C369 1.092 . S
C1307 C143 1.074 . S
C1343 C63 0.749 . S
C1362 C361 0.790 . S
C1379 C303 1.450 . S
C1398 C424 1.456 . S
C1415 C185 0.214 . S
C1434 C414 0.409 . S
C1470 C415 1.000 . S
C1451 C202 0.978 . S
C1506 C437 1.087 . S
C1487 C265 1.077 . S
C1523 C44 0.391 . S
C1542 C440 0.453 . S
C1578 C423 1.005 . S
C1559 C103 1.007 . S
C1595 C124 0.849 . S
C1614 C413 0.805 . S
C1631 C23 1.492 . S
C1650 C431 1.483 . S
C1667 C305 1.644 . S
C1686 C444 1.641 . S
C1722 C493 1.041 . S
C1703 C180 1.031 . S
C1739 C231 3.031 . S
C1758 C471 3.006 . S
C1775 C260 0.679 . S
C1794 C485 0.639 . S
C1830 C446 0.756 . S
C1811 C42 0.741 . S
C1847 C105 0.946 . S
C1866 C499 0.911 . S
C1902 C455 1.063 . S
C1883 C122 1.081 . S
C1938 C476 1.043 . S
C1919 C25 1.035 . S
C1974 C502 2.462 . S
C1955 C300 2.497 . S
C1991 C71 1.758 . S
C2010 C486 1.734 . S
C2027 C100 3.436 . S
C2046 C445 3.371 . S
C2082 C477 1.132 . S
C2063 C151 1.143 . S
C2099 C20 3.302 . S
C2118 C468 3.275 . S
C2135 C204 1.307 . S
C2154 C475 1.223 . S
C2190 C462 1.807 . S
C2171 C263 1.840 . S
C2226 C454 1.136 . S
C2207 C183 1.190 . S
