# Generated by pormake.
# Topology gar, (4,6)-cn, num edge types: 1
# Building blocks:
#     Node 0, Type 0, BuildingBlock: CEKHIL_clean_sbu_0, # of connection points: 4
#     Node 1, Type 0, BuildingBlock: CEKHIL_clean_sbu_0, # of connection points: 4
#     Node 2, Type 0, BuildingBlock: CEKHIL_clean_sbu_0, # of connection points: 4
#     Node 3, Type 0, BuildingBlock: CEKHIL_clean_sbu_0, # of connection points: 4
#     Node 4, Type 0, BuildingBlock: CEKHIL_clean_sbu_0, # of connection points: 4
#     Node 5, Type 0, BuildingBlock: CEKHIL_clean_sbu_0, # of connection points: 4
#     Node 6, Type 0, BuildingBlock: CEKHIL_clean_sbu_0, # of connection points: 4
#     Node 7, Type 0, BuildingBlock: CEKHIL_clean_sbu_0, # of connection points: 4
#     Node 8, Type 0, BuildingBlock: CEKHIL_clean_sbu_0, # of connection points: 4
#     Node 9, Type 0, BuildingBlock: CEKHIL_clean_sbu_0, # of connection points: 4
#     Node 10, Type 0, BuildingBlock: CEKHIL_clean_sbu_0, # of connection points: 4
#     Node 11, Type 0, BuildingBlock: CEKHIL_clean_sbu_0, # of connection points: 4
#     Node 12, Type 0, BuildingBlock: CEKHIL_clean_sbu_0, # of connection points: 4
#     Node 13, Type 0, BuildingBlock: CEKHIL_clean_sbu_0, # of connection points: 4
#     Node 14, Type 0, BuildingBlock: CEKHIL_clean_sbu_0, # of connection points: 4
#     Node 15, Type 0, BuildingBlock: CEKHIL_clean_sbu_0, # of connection points: 4
#     Node 16, Type 0, BuildingBlock: CEKHIL_clean_sbu_0, # of connection points: 4
#     Node 17, Type 0, BuildingBlock: CEKHIL_clean_sbu_0, # of connection points: 4
#     Node 18, Type 0, BuildingBlock: CEKHIL_clean_sbu_0, # of connection points: 4
#     Node 19, Type 0, BuildingBlock: CEKHIL_clean_sbu_0, # of connection points: 4
#     Node 20, Type 0, BuildingBlock: CEKHIL_clean_sbu_0, # of connection points: 4
#     Node 21, Type 0, BuildingBlock: CEKHIL_clean_sbu_0, # of connection points: 4
#     Node 22, Type 0, BuildingBlock: CEKHIL_clean_sbu_0, # of connection points: 4
#     Node 23, Type 0, BuildingBlock: CEKHIL_clean_sbu_0, # of connection points: 4
#     Node 24, Type 1, BuildingBlock: CUKXOW_clean_sbu_0, # of connection points: 6
#     Node 25, Type 1, BuildingBlock: CUKXOW_clean_sbu_0, # of connection points: 6
#     Node 26, Type 1, BuildingBlock: CUKXOW_clean_sbu_0, # of connection points: 6
#     Node 27, Type 1, BuildingBlock: CUKXOW_clean_sbu_0, # of connection points: 6
#     Node 28, Type 1, BuildingBlock: CUKXOW_clean_sbu_0, # of connection points: 6
#     Node 29, Type 1, BuildingBlock: CUKXOW_clean_sbu_0, # of connection points: 6
#     Node 30, Type 1, BuildingBlock: CUKXOW_clean_sbu_0, # of connection points: 6
#     Node 31, Type 1, BuildingBlock: CUKXOW_clean_sbu_0, # of connection points: 6
#     Node 32, Type 1, BuildingBlock: CUKXOW_clean_sbu_0, # of connection points: 6
#     Node 33, Type 1, BuildingBlock: CUKXOW_clean_sbu_0, # of connection points: 6
#     Node 34, Type 1, BuildingBlock: CUKXOW_clean_sbu_0, # of connection points: 6
#     Node 35, Type 1, BuildingBlock: CUKXOW_clean_sbu_0, # of connection points: 6
#     Node 36, Type 1, BuildingBlock: CUKXOW_clean_sbu_0, # of connection points: 6
#     Node 37, Type 1, BuildingBlock: CUKXOW_clean_sbu_0, # of connection points: 6
#     Node 38, Type 1, BuildingBlock: CUKXOW_clean_sbu_0, # of connection points: 6
#     Node 39, Type 1, BuildingBlock: CUKXOW_clean_sbu_0, # of connection points: 6
#     Edge 40, Type (0, 1), BuildingBlock: CIFDUS_clean_linker_0, # of connection points: 2
#     Edge 41, Type (0, 1), BuildingBlock: CIFDUS_clean_linker_0, # of connection points: 2
#     Edge 42, Type (0, 1), BuildingBlock: CIFDUS_clean_linker_0, # of connection points: 2
#     Edge 43, Type (0, 1), BuildingBlock: CIFDUS_clean_linker_0, # of connection points: 2
#     Edge 44, Type (0, 1), BuildingBlock: CIFDUS_clean_linker_0, # of connection points: 2
#     Edge 45, Type (0, 1), BuildingBlock: CIFDUS_clean_linker_0, # of connection points: 2
#     Edge 46, Type (0, 1), BuildingBlock: CIFDUS_clean_linker_0, # of connection points: 2
#     Edge 47, Type (0, 1), BuildingBlock: CIFDUS_clean_linker_0, # of connection points: 2
#     Edge 48, Type (0, 1), BuildingBlock: CIFDUS_clean_linker_0, # of connection points: 2
#     Edge 49, Type (0, 1), BuildingBlock: CIFDUS_clean_linker_0, # of connection points: 2
#     Edge 50, Type (0, 1), BuildingBlock: CIFDUS_clean_linker_0, # of connection points: 2
#     Edge 51, Type (0, 1), BuildingBlock: CIFDUS_clean_linker_0, # of connection points: 2
#     Edge 52, Type (0, 1), BuildingBlock: CIFDUS_clean_linker_0, # of connection points: 2
#     Edge 53, Type (0, 1), BuildingBlock: CIFDUS_clean_linker_0, # of connection points: 2
#     Edge 54, Type (0, 1), BuildingBlock: CIFDUS_clean_linker_0, # of connection points: 2
#     Edge 55, Type (0, 1), BuildingBlock: CIFDUS_clean_linker_0, # of connection points: 2
#     Edge 56, Type (0, 1), BuildingBlock: CIFDUS_clean_linker_0, # of connection points: 2
#     Edge 57, Type (0, 1), BuildingBlock: CIFDUS_clean_linker_0, # of connection points: 2
#     Edge 58, Type (0, 1), BuildingBlock: CIFDUS_clean_linker_0, # of connection points: 2
#     Edge 59, Type (0, 1), BuildingBlock: CIFDUS_clean_linker_0, # of connection points: 2
#     Edge 60, Type (0, 1), BuildingBlock: CIFDUS_clean_linker_0, # of connection points: 2
#     Edge 61, Type (0, 1), BuildingBlock: CIFDUS_clean_linker_0, # of connection points: 2
#     Edge 62, Type (0, 1), BuildingBlock: CIFDUS_clean_linker_0, # of connection points: 2
#     Edge 63, Type (0, 1), BuildingBlock: CIFDUS_clean_linker_0, # of connection points: 2
#     Edge 64, Type (0, 1), BuildingBlock: CIFDUS_clean_linker_0, # of connection points: 2
#     Edge 65, Type (0, 1), BuildingBlock: CIFDUS_clean_linker_0, # of connection points: 2
#     Edge 66, Type (0, 1), BuildingBlock: CIFDUS_clean_linker_0, # of connection points: 2
#     Edge 67, Type (0, 1), BuildingBlock: CIFDUS_clean_linker_0, # of connection points: 2
#     Edge 68, Type (0, 1), BuildingBlock: CIFDUS_clean_linker_0, # of connection points: 2
#     Edge 69, Type (0, 1), BuildingBlock: CIFDUS_clean_linker_0, # of connection points: 2
#     Edge 70, Type (0, 1), BuildingBlock: CIFDUS_clean_linker_0, # of connection points: 2
#     Edge 71, Type (0, 1), BuildingBlock: CIFDUS_clean_linker_0, # of connection points: 2
#     Edge 72, Type (0, 1), BuildingBlock: CIFDUS_clean_linker_0, # of connection points: 2
#     Edge 73, Type (0, 1), BuildingBlock: CIFDUS_clean_linker_0, # of connection points: 2
#     Edge 74, Type (0, 1), BuildingBlock: CIFDUS_clean_linker_0, # of connection points: 2
#     Edge 75, Type (0, 1), BuildingBlock: CIFDUS_clean_linker_0, # of connection points: 2
#     Edge 76, Type (0, 1), BuildingBlock: CIFDUS_clean_linker_0, # of connection points: 2
#     Edge 77, Type (0, 1), BuildingBlock: CIFDUS_clean_linker_0, # of connection points: 2
#     Edge 78, Type (0, 1), BuildingBlock: CIFDUS_clean_linker_0, # of connection points: 2
#     Edge 79, Type (0, 1), BuildingBlock: CIFDUS_clean_linker_0, # of connection points: 2
#     Edge 80, Type (0, 1), BuildingBlock: CIFDUS_clean_linker_0, # of connection points: 2
#     Edge 81, Type (0, 1), BuildingBlock: CIFDUS_clean_linker_0, # of connection points: 2
#     Edge 82, Type (0, 1), BuildingBlock: CIFDUS_clean_linker_0, # of connection points: 2
#     Edge 83, Type (0, 1), BuildingBlock: CIFDUS_clean_linker_0, # of connection points: 2
#     Edge 84, Type (0, 1), BuildingBlock: CIFDUS_clean_linker_0, # of connection points: 2
#     Edge 85, Type (0, 1), BuildingBlock: CIFDUS_clean_linker_0, # of connection points: 2
#     Edge 86, Type (0, 1), BuildingBlock: CIFDUS_clean_linker_0, # of connection points: 2
#     Edge 87, Type (0, 1), BuildingBlock: CIFDUS_clean_linker_0, # of connection points: 2
#     Edge 88, Type (0, 1), BuildingBlock: CIFDUS_clean_linker_0, # of connection points: 2
#     Edge 89, Type (0, 1), BuildingBlock: CIFDUS_clean_linker_0, # of connection points: 2
#     Edge 90, Type (0, 1), BuildingBlock: CIFDUS_clean_linker_0, # of connection points: 2
#     Edge 91, Type (0, 1), BuildingBlock: CIFDUS_clean_linker_0, # of connection points: 2
#     Edge 92, Type (0, 1), BuildingBlock: CIFDUS_clean_linker_0, # of connection points: 2
#     Edge 93, Type (0, 1), BuildingBlock: CIFDUS_clean_linker_0, # of connection points: 2
#     Edge 94, Type (0, 1), BuildingBlock: CIFDUS_clean_linker_0, # of connection points: 2
#     Edge 95, Type (0, 1), BuildingBlock: CIFDUS_clean_linker_0, # of connection points: 2
#     Edge 96, Type (0, 1), BuildingBlock: CIFDUS_clean_linker_0, # of connection points: 2
#     Edge 97, Type (0, 1), BuildingBlock: CIFDUS_clean_linker_0, # of connection points: 2
#     Edge 98, Type (0, 1), BuildingBlock: CIFDUS_clean_linker_0, # of connection points: 2
#     Edge 99, Type (0, 1), BuildingBlock: CIFDUS_clean_linker_0, # of connection points: 2
#     Edge 100, Type (0, 1), BuildingBlock: CIFDUS_clean_linker_0, # of connection points: 2
#     Edge 101, Type (0, 1), BuildingBlock: CIFDUS_clean_linker_0, # of connection points: 2
#     Edge 102, Type (0, 1), BuildingBlock: CIFDUS_clean_linker_0, # of connection points: 2
#     Edge 103, Type (0, 1), BuildingBlock: CIFDUS_clean_linker_0, # of connection points: 2
#     Edge 104, Type (0, 1), BuildingBlock: CIFDUS_clean_linker_0, # of connection points: 2
#     Edge 105, Type (0, 1), BuildingBlock: CIFDUS_clean_linker_0, # of connection points: 2
#     Edge 106, Type (0, 1), BuildingBlock: CIFDUS_clean_linker_0, # of connection points: 2
#     Edge 107, Type (0, 1), BuildingBlock: CIFDUS_clean_linker_0, # of connection points: 2
#     Edge 108, Type (0, 1), BuildingBlock: CIFDUS_clean_linker_0, # of connection points: 2
#     Edge 109, Type (0, 1), BuildingBlock: CIFDUS_clean_linker_0, # of connection points: 2
#     Edge 110, Type (0, 1), BuildingBlock: CIFDUS_clean_linker_0, # of connection points: 2
#     Edge 111, Type (0, 1), BuildingBlock: CIFDUS_clean_linker_0, # of connection points: 2
#     Edge 112, Type (0, 1), BuildingBlock: CIFDUS_clean_linker_0, # of connection points: 2
#     Edge 113, Type (0, 1), BuildingBlock: CIFDUS_clean_linker_0, # of connection points: 2
#     Edge 114, Type (0, 1), BuildingBlock: CIFDUS_clean_linker_0, # of connection points: 2
#     Edge 115, Type (0, 1), BuildingBlock: CIFDUS_clean_linker_0, # of connection points: 2
#     Edge 116, Type (0, 1), BuildingBlock: CIFDUS_clean_linker_0, # of connection points: 2
#     Edge 117, Type (0, 1), BuildingBlock: CIFDUS_clean_linker_0, # of connection points: 2
#     Edge 118, Type (0, 1), BuildingBlock: CIFDUS_clean_linker_0, # of connection points: 2
#     Edge 119, Type (0, 1), BuildingBlock: CIFDUS_clean_linker_0, # of connection points: 2
#     Edge 120, Type (0, 1), BuildingBlock: CIFDUS_clean_linker_0, # of connection points: 2
#     Edge 121, Type (0, 1), BuildingBlock: CIFDUS_clean_linker_0, # of connection points: 2
#     Edge 122, Type (0, 1), BuildingBlock: CIFDUS_clean_linker_0, # of connection points: 2
#     Edge 123, Type (0, 1), BuildingBlock: CIFDUS_clean_linker_0, # of connection points: 2
#     Edge 124, Type (0, 1), BuildingBlock: CIFDUS_clean_linker_0, # of connection points: 2
#     Edge 125, Type (0, 1), BuildingBlock: CIFDUS_clean_linker_0, # of connection points: 2
#     Edge 126, Type (0, 1), BuildingBlock: CIFDUS_clean_linker_0, # of connection points: 2
#     Edge 127, Type (0, 1), BuildingBlock: CIFDUS_clean_linker_0, # of connection points: 2
#     Edge 128, Type (0, 1), BuildingBlock: CIFDUS_clean_linker_0, # of connection points: 2
#     Edge 129, Type (0, 1), BuildingBlock: CIFDUS_clean_linker_0, # of connection points: 2
#     Edge 130, Type (0, 1), BuildingBlock: CIFDUS_clean_linker_0, # of connection points: 2
#     Edge 131, Type (0, 1), BuildingBlock: CIFDUS_clean_linker_0, # of connection points: 2
#     Edge 132, Type (0, 1), BuildingBlock: CIFDUS_clean_linker_0, # of connection points: 2
#     Edge 133, Type (0, 1), BuildingBlock: CIFDUS_clean_linker_0, # of connection points: 2
#     Edge 134, Type (0, 1), BuildingBlock: CIFDUS_clean_linker_0, # of connection points: 2
#     Edge 135, Type (0, 1), BuildingBlock: CIFDUS_clean_linker_0, # of connection points: 2
# Relax obj value: 0.114
# Max RMSD: 0.225
# Mean RMSD: 0.121
data_MOF--net-gar--node1-CEKHIL_clean_sbu_0--node2-CUKXOW_clean_sbu_0--edge1-CIFDUS_clean_linker_0
_symmetry_space_group_name_H-M    P1
_symmetry_Int_Tables_number       1
_symmetry_cell_setting            triclinic
loop_
_symmetry_equiv_pos_as_xyz
'x, y, z'
_cell_length_a     48.523915
_cell_length_b     46.647747
_cell_length_c     46.236277
_cell_angle_alpha  93.698487
_cell_angle_beta   94.898866
_cell_angle_gamma 98.144477
loop_
_atom_site_label
_atom_site_type_symbol
_atom_site_fract_x
_atom_site_fract_y
_atom_site_fract_z
_atom_type_partial_charge
Co0 Co 0.04004 0.28054 0.43869 0.0
O1 O 0.07948 0.27859 0.44152 0.0
O2 O 0.05013 0.26672 0.40166 0.0
C3 C 0.0431 0.32442 0.46215 0.0
O4 O 0.99893 0.2807 0.42626 0.0
Co5 Co 1.00612 0.28515 0.49267 0.0
O6 O 0.97487 0.29058 0.46419 0.0
C7 C 0.02586 0.23027 0.47497 0.0
C8 C 0.07548 0.26939 0.4141 0.0
C9 C 0.97642 0.28591 0.43698 0.0
O10 O 0.03284 0.23993 0.45085 0.0
O11 O 0.0168 0.24549 0.4951 0.0
O12 O 0.04748 0.32216 0.43478 0.0
O13 O 0.03926 0.30056 0.47481 0.0
Co14 Co 0.99639 0.80497 0.60812 0.0
O15 O 0.95708 0.80644 0.60775 0.0
O16 O 0.9843 0.79486 0.64506 0.0
C17 C 1.00686 0.84708 0.58853 0.0
O18 O 0.03732 0.80216 0.61749 0.0
Co19 Co 0.02658 0.80355 0.55171 0.0
O20 O 0.06157 0.8085 0.57865 0.0
C21 C 0.98735 0.75318 0.56495 0.0
C22 C 0.95974 0.79941 0.63448 0.0
C23 C 0.06045 0.80519 0.60572 0.0
O24 O 0.98856 0.76353 0.59158 0.0
O25 O 0.99807 0.76745 0.54489 0.0
O26 O 1.00466 0.84702 0.61636 0.0
O27 O 1.00105 0.82236 0.57361 0.0
Co28 Co 0.53254 0.78173 0.93061 0.0
O29 O 0.57045 0.77433 0.932 0.0
O30 O 0.53821 0.7608 0.89484 0.0
C31 C 0.54319 0.82886 0.94731 0.0
O32 O 0.49216 0.78627 0.92001 0.0
Co33 Co 0.50486 0.79978 0.98532 0.0
O34 O 0.4723 0.80433 0.9579 0.0
C35 C 0.5152 0.73929 0.9748 0.0
C36 C 0.56397 0.76215 0.90574 0.0
C37 C 0.47147 0.79566 0.93111 0.0
O38 O 0.5212 0.74436 0.94889 0.0
O39 O 0.5106 0.75914 0.99348 0.0
O40 O 0.54428 0.82104 0.92 0.0
O41 O 0.53748 0.80798 0.96393 0.0
Co42 Co 0.50506 0.29961 0.11104 0.0
O43 O 0.46554 0.29985 0.11163 0.0
O44 O 0.49309 0.28453 0.14634 0.0
C45 C 0.51508 0.34491 0.09695 0.0
O46 O 0.54615 0.2974 0.11989 0.0
Co47 Co 0.53606 0.30534 0.05576 0.0
O48 O 0.57066 0.31158 0.0831 0.0
C49 C 0.50188 0.24953 0.06489 0.0
C50 C 0.46839 0.28973 0.13711 0.0
C51 C 0.56944 0.30443 0.10913 0.0
O52 O 0.49821 0.25944 0.09066 0.0
O53 O 0.51462 0.26512 0.04688 0.0
O54 O 0.51215 0.34063 0.12408 0.0
O55 O 0.50985 0.32202 0.07889 0.0
Co56 Co 1.0026 0.78383 0.17317 0.0
O57 O 0.96199 0.77483 0.17163 0.0
O58 O 0.99088 0.77132 0.21015 0.0
C59 C 1.00163 0.82646 0.15229 0.0
O60 O 0.04528 0.79278 0.18483 0.0
Co61 Co 0.03559 0.79406 0.11936 0.0
O62 O 0.06685 0.8121 0.14806 0.0
C63 C 0.01592 0.73367 0.13384 0.0
C64 C 0.96517 0.76996 0.19894 0.0
C65 C 0.06722 0.80579 0.17445 0.0
O66 O 1.00589 0.74263 0.15731 0.0
O67 O 0.02702 0.7507 0.11602 0.0
O68 O 0.99972 0.82522 0.18005 0.0
O69 O 1.00323 0.80221 0.13805 0.0
Co70 Co 0.54272 0.80862 0.3759 0.0
O71 O 0.58394 0.81369 0.38006 0.0
O72 O 0.55724 0.80023 0.33921 0.0
C73 C 0.53722 0.84981 0.40276 0.0
O74 O 0.50098 0.80234 0.36021 0.0
Co75 Co 0.50379 0.80238 0.42578 0.0
O76 O 0.47189 0.79953 0.39557 0.0
C77 C 0.53889 0.75794 0.41236 0.0
C78 C 0.58234 0.80619 0.35225 0.0
C79 C 0.47616 0.79947 0.3688 0.0
O80 O 0.54146 0.76675 0.38663 0.0
O81 O 0.52802 0.7719 0.43203 0.0
O82 O 0.54343 0.85126 0.37595 0.0
O83 O 0.53657 0.82461 0.41253 0.0
Co84 Co 0.49989 0.27687 0.67338 0.0
O85 O 0.45905 0.27136 0.66851 0.0
O86 O 0.48425 0.26209 0.70773 0.0
C87 C 0.50369 0.32163 0.65592 0.0
O88 O 0.5416 0.2808 0.68872 0.0
Co89 Co 0.53932 0.29017 0.62517 0.0
O90 O 0.56969 0.3009 0.65711 0.0
C91 C 0.50951 0.22996 0.62894 0.0
C92 C 0.45964 0.26389 0.69512 0.0
C93 C 0.56599 0.29178 0.68205 0.0
O94 O 0.5011 0.23649 0.65408 0.0
O95 O 0.5224 0.24885 0.61398 0.0
O96 O 0.49969 0.31864 0.68308 0.0
O97 O 0.50531 0.29807 0.64058 0.0
Co98 Co 0.04776 0.31293 0.87747 0.0
O99 O 0.08845 0.32074 0.88554 0.0
O100 O 0.06611 0.30875 0.84201 0.0
C101 C 0.0381 0.35128 0.906 0.0
O102 O 1.00666 0.30401 0.8591 0.0
Co103 Co 1.0069 0.29948 0.92487 0.0
O104 O 0.9764 0.29531 0.8929 0.0
C105 C 0.04583 0.25938 0.90962 0.0
C106 C 0.08991 0.31512 0.85784 0.0
C107 C 0.9815 0.29763 0.86653 0.0
O108 O 0.04908 0.27085 0.88527 0.0
O109 O 0.03257 0.26985 0.92953 0.0
O110 O 0.04556 0.3551 0.87993 0.0
O111 O 0.03848 0.32553 0.91415 0.0
Co112 Co 0.41369 0.08761 0.2666 0.0
O113 O 0.41281 0.12938 0.26471 0.0
O114 O 0.37774 0.09508 0.24934 0.0
C115 C 0.43277 0.08935 0.31399 0.0
O116 O 0.40351 0.04341 0.26609 0.0
Co117 Co 0.46659 0.05838 0.27777 0.0
O118 O 0.44042 0.02242 0.28137 0.0
C119 C 0.45215 0.07601 0.21862 0.0
C120 C 0.38683 0.12265 0.25391 0.0
C121 C 0.41446 0.02104 0.27345 0.0
O122 O 0.42949 0.0846 0.22671 0.0
O123 O 0.46988 0.06622 0.23603 0.0
O124 O 0.40637 0.09064 0.3077 0.0
O125 O 0.44731 0.08951 0.29181 0.0
Co126 Co 0.27926 0.13598 0.47678 0.0
O127 O 0.3174 0.13698 0.49213 0.0
O128 O 0.28369 0.09957 0.49282 0.0
C129 C 0.29051 0.15505 0.4351 0.0
O130 O 0.23784 0.12616 0.46333 0.0
Co131 Co 0.25337 0.19037 0.45971 0.0
O132 O 0.21892 0.1633 0.44561 0.0
C133 C 0.26545 0.1793 0.52192 0.0
C134 C 0.3098 0.11065 0.49899 0.0
C135 C 0.21692 0.13695 0.45183 0.0
O136 O 0.27041 0.15346 0.51508 0.0
O137 O 0.26088 0.19748 0.50309 0.0
O138 O 0.28937 0.12725 0.43728 0.0
O139 O 0.28527 0.17001 0.4578 0.0
Co140 Co 0.16928 0.01072 0.80627 0.0
O141 O 0.17003 0.96912 0.80391 0.0
O142 O 0.20603 1.00266 0.79887 0.0
C143 C 0.14578 0.01108 0.84679 0.0
O144 O 0.17872 0.05484 0.80711 0.0
Co145 Co 0.11692 0.04139 0.80457 0.0
O146 O 0.14236 0.07904 0.81059 0.0
C147 C 0.13195 0.01012 0.75139 0.0
C148 C 0.19629 0.97538 0.79957 0.0
C149 C 0.16834 0.07871 0.80882 0.0
O150 O 0.1566 0.00864 0.7634 0.0
O151 O 0.11278 0.01943 0.76523 0.0
O152 O 0.1728 0.01174 0.84903 0.0
O153 O 0.13402 0.01006 0.82064 0.0
Co154 Co 0.22586 0.89996 0.0226 0.0
O155 O 0.18583 0.90078 0.02648 0.0
O156 O 0.21953 0.93685 0.04053 0.0
C157 C 0.22146 0.88071 0.97485 0.0
O158 O 0.26783 0.91154 0.02075 0.0
Co159 Co 0.25501 0.84658 0.00964 0.0
O160 O 0.28905 0.87447 1.00539 0.0
C161 C 0.24058 0.85902 0.06996 0.0
C162 C 0.19291 0.92767 0.03707 0.0
C163 C 0.2895 0.90128 0.01287 0.0
O164 O 0.23213 0.88309 0.06275 0.0
O165 O 0.24829 0.84112 0.0512 0.0
O166 O 0.21987 0.90792 0.98131 0.0
O167 O 0.2233 0.86547 0.99715 0.0
Co168 Co 0.26785 0.41727 0.04651 0.0
O169 O 0.22973 0.41113 0.02982 0.0
O170 O 0.24852 0.44795 0.06131 0.0
C171 C 0.28551 0.40969 1.00386 0.0
O172 O 0.30708 0.43173 0.06653 0.0
Co173 Co 0.30481 0.36807 0.04179 0.0
O174 O 0.33557 0.39846 0.0582 0.0
C175 C 0.25684 0.36306 0.07707 0.0
C176 C 0.22708 0.43535 0.04394 0.0
C177 C 0.33139 0.42342 0.06813 0.0
O178 O 0.25694 0.39082 0.07816 0.0
O179 O 0.27198 0.35005 0.06079 0.0
O180 O 0.27929 0.43513 0.01143 0.0
O181 O 0.27945 0.38985 0.02134 0.0
Co182 Co 0.816 0.17195 1.00251 0.0
O183 O 0.85614 0.16911 1.00319 0.0
O184 O 0.82393 0.13416 0.01335 0.0
C185 C 0.81137 0.19151 0.95813 0.0
O186 O 0.7734 0.16373 1.00285 0.0
Co187 Co 0.78956 0.22877 0.99935 0.0
O188 O 0.75355 0.20239 0.99057 0.0
C189 C 0.8148 0.21378 0.05654 0.0
C190 C 0.84995 0.14227 0.0094 0.0
C191 C 0.75168 0.17588 0.9963 0.0
O192 O 0.81974 0.18896 0.04526 0.0
O193 O 0.80514 0.23265 0.04114 0.0
O194 O 0.81191 0.16389 0.95974 0.0
O195 O 0.81583 0.20659 0.98288 0.0
Co196 Co 0.13466 0.48428 0.29682 0.0
O197 O 0.13522 0.44196 0.29479 0.0
O198 O 0.16915 0.47485 0.28392 0.0
C199 C 0.11724 0.48856 0.34122 0.0
O200 O 0.14605 0.52774 0.29679 0.0
Co201 Co 0.08561 0.51898 0.30193 0.0
O202 O 0.11346 0.55513 0.30685 0.0
C203 C 0.09263 0.48862 0.24506 0.0
C204 C 0.1603 0.44773 0.28644 0.0
C205 C 0.13829 0.55264 0.30131 0.0
O206 O 0.11682 0.4826 0.25481 0.0
O207 O 0.07649 0.5003 0.26128 0.0
O208 O 0.14355 0.48655 0.33957 0.0
O209 O 0.10219 0.48657 0.31665 0.0
Co210 Co 0.77196 0.9214 0.55929 0.0
O211 O 0.73317 0.91579 0.54592 0.0
O212 O 0.75685 0.95755 0.56558 0.0
C213 C 0.78538 0.89956 0.51961 0.0
O214 O 0.8131 0.93457 0.57356 0.0
Co215 Co 0.80051 0.86641 0.56862 0.0
O216 O 0.83512 0.89501 0.57313 0.0
C217 C 0.75857 0.88241 0.60626 0.0
C218 C 0.7334 0.94308 0.55318 0.0
C219 C 0.83544 0.92244 0.57577 0.0
O220 O 0.76236 0.90849 0.59838 0.0
O221 O 0.76915 0.86164 0.59414 0.0
O222 O 0.78161 0.92659 0.51994 0.0
O223 O 0.77836 0.88614 0.54198 0.0
Co224 Co 0.87561 0.06971 0.24331 0.0
O225 O 0.87851 0.11158 0.24513 0.0
O226 O 0.84147 0.08098 0.22588 0.0
C227 C 0.89341 0.06848 0.28976 0.0
O228 O 0.86299 0.02568 0.23982 0.0
Co229 Co 0.92634 0.03658 0.25413 0.0
O230 O 0.89821 1.00122 0.25309 0.0
C231 C 0.91924 0.06766 0.2011 0.0
C232 C 0.8528 0.10763 0.2335 0.0
C233 C 0.87253 1.00197 0.24532 0.0
O234 O 0.8933 0.06894 0.2049 0.0
O235 O 0.93622 0.05897 0.22016 0.0
O236 O 0.86714 0.07089 0.28417 0.0
O237 O 0.90778 0.06828 0.26766 0.0
Co238 Co 0.3206 0.67228 0.50101 0.0
O239 O 0.36166 0.67549 0.50299 0.0
O240 O 0.33411 0.63578 0.51039 0.0
C241 C 0.31438 0.69381 0.45747 0.0
O242 O 0.27821 0.65841 0.50005 0.0
Co243 Co 0.28692 0.72471 0.49852 0.0
O244 O 0.25413 0.69431 0.48768 0.0
C245 C 0.31364 0.71093 0.55565 0.0
C246 C 0.35944 0.64818 0.50805 0.0
C247 C 0.25503 0.66799 0.49303 0.0
O248 O 0.32146 0.68743 0.54427 0.0
O249 O 0.30221 0.72871 0.54028 0.0
O250 O 0.31821 0.66679 0.45776 0.0
O251 O 0.31651 0.70721 0.48292 0.0
Co252 Co 0.37599 0.57319 0.75649 0.0
O253 O 0.38149 0.61502 0.76293 0.0
O254 O 0.34362 0.58855 0.73994 0.0
C255 C 0.39061 0.56546 0.80239 0.0
O256 O 0.36145 0.52968 0.74784 0.0
Co257 Co 0.42498 0.53725 0.76458 0.0
O258 O 0.3954 0.50285 0.75914 0.0
C259 C 0.4218 0.57537 0.71665 0.0
C260 C 0.35629 0.61398 0.75058 0.0
C261 C 0.37006 0.50502 0.75109 0.0
O262 O 0.39558 0.57598 0.71932 0.0
O263 O 0.43772 0.56425 0.73488 0.0
O264 O 0.36508 0.57016 0.79619 0.0
O265 O 0.40645 0.56747 0.78143 0.0
Co266 Co 0.63454 0.98481 0.79194 0.0
O267 O 0.6333 0.94261 0.79084 0.0
O268 O 0.67117 0.97355 0.78696 0.0
C269 C 0.60967 0.98783 0.83193 0.0
O270 O 0.64613 0.02901 0.79317 0.0
Co271 Co 0.58281 0.01698 0.78772 0.0
O272 O 0.60975 0.05292 0.799 0.0
C273 C 0.60076 0.98937 0.73394 0.0
C274 C 0.6601 0.94677 0.78878 0.0
C275 C 0.63578 0.05277 0.79718 0.0
O276 O 0.62352 0.9836 0.74783 0.0
O277 O 0.58156 0.99981 0.74674 0.0
O278 O 0.63637 0.98678 0.8351 0.0
O279 O 0.59891 0.98607 0.80535 0.0
Co280 Co 0.78312 0.63063 0.99183 0.0
O281 O 0.8215 0.63181 1.00716 0.0
O282 O 0.78826 0.59356 1.00538 0.0
C283 C 0.79422 0.65323 0.9517 0.0
O284 O 0.74187 0.61945 0.97864 0.0
Co285 Co 0.75421 0.68371 0.97691 0.0
O286 O 0.71954 0.65606 0.96563 0.0
C287 C 0.76674 0.67027 0.0385 0.0
C288 C 0.81416 0.60482 0.01229 0.0
C289 C 0.71949 0.62943 0.97011 0.0
O290 O 0.77356 0.64537 0.03094 0.0
O291 O 0.76122 0.68876 0.02033 0.0
O292 O 0.7938 0.62527 0.95189 0.0
O293 O 0.78783 0.66611 0.97506 0.0
Co294 Co 0.91743 0.58441 0.77302 0.0
O295 O 0.91387 0.62612 0.77157 0.0
O296 O 0.87988 0.58976 0.76026 0.0
C297 C 0.94227 0.58728 0.81792 0.0
O298 O 0.90744 0.5408 0.77399 0.0
Co299 Co 0.9689 0.55262 0.77846 0.0
O300 O 0.9433 0.51719 0.78573 0.0
C301 C 0.95021 0.57111 0.72069 0.0
C302 C 0.8872 0.61752 0.76442 0.0
C303 C 0.91723 0.51772 0.78061 0.0
O304 O 0.92883 0.58078 0.73097 0.0
O305 O 0.96864 0.56053 0.73645 0.0
O306 O 0.91552 0.58826 0.81552 0.0
O307 O 0.95341 0.58638 0.79354 0.0
Co308 Co 0.72528 0.40075 0.52375 0.0
O309 O 0.68445 0.39615 0.52499 0.0
O310 O 0.71312 0.43525 0.54217 0.0
C311 C 0.72413 0.38374 0.47545 0.0
O312 O 0.76731 0.41653 0.52549 0.0
Co313 Co 0.76052 0.35231 0.50847 0.0
O314 O 0.7899 0.3848 0.50192 0.0
C315 C 0.7431 0.35908 0.5688 0.0
C316 C 0.6874 0.42278 0.53642 0.0
C317 C 0.78922 0.40987 0.51419 0.0
O318 O 0.73165 0.38197 0.56287 0.0
O319 O 0.75363 0.34417 0.54947 0.0
O320 O 0.72023 0.41017 0.48258 0.0
O321 O 0.72694 0.36815 0.49723 0.0
Co322 Co 0.67729 0.5124 0.31967 0.0
O323 O 0.67716 0.4706 0.31512 0.0
O324 O 0.71342 0.50408 0.31076 0.0
C325 C 0.65466 0.51198 0.36078 0.0
O326 O 0.68782 0.55639 0.3226 0.0
Co327 Co 0.62626 0.54528 0.32175 0.0
O328 O 0.65293 0.58193 0.32942 0.0
C329 C 0.63881 0.51542 0.26645 0.0
C330 C 0.70335 0.4768 0.31044 0.0
C331 C 0.67856 0.5807 0.32643 0.0
O332 O 0.66362 0.51259 0.27714 0.0
O333 O 0.62067 0.52488 0.2817 0.0
O334 O 0.68149 0.5113 0.36241 0.0
O335 O 0.64268 0.51236 0.33495 0.0
Tb336 Tb 0.03903 0.06618 0.01245 0.0
C337 C 0.03441 0.01456 0.96227 0.0
Tb338 Tb 1.00661 1.00551 0.02163 0.0
O339 O 0.07839 0.05628 0.0355 0.0
O340 O 0.04785 0.02382 0.01661 0.0
O341 O 0.03947 0.04282 0.96993 0.0
C342 C 0.9993 0.95639 0.04841 0.0
O343 O 0.024 0.99527 0.98009 0.0
C344 C 0.97449 0.04376 1.00276 0.0
C345 C 1.01296 0.05805 0.07203 0.0
O346 O 0.98636 0.96039 0.02341 0.0
O347 O 0.0161 0.97983 0.05793 0.0
O348 O 0.96683 0.01561 0.99989 0.0
O349 O 0.99763 0.04786 0.01803 0.0
O350 O 1.00725 0.02962 0.06438 0.0
O351 O 0.02358 0.0773 0.05432 0.0
C352 C 0.04249 0.11195 0.98074 0.0
O353 O 0.05952 0.10981 1.00378 0.0
O354 O 0.02394 0.0889 0.97648 0.0
C355 C 0.0704 0.02813 0.03283 0.0
Tb356 Tb 0.2776 0.82338 0.28265 0.0
C357 C 0.32332 0.77932 0.28444 0.0
Tb358 Tb 0.25786 0.75594 0.27054 0.0
O359 O 0.26803 0.82061 0.32888 0.0
O360 O 0.27684 0.78537 0.3052 0.0
O361 O 0.31801 0.80656 0.28267 0.0
C362 C 0.23045 0.70653 0.28611 0.0
O363 O 0.30301 0.75634 0.28197 0.0
C364 C 0.25976 0.78213 0.22087 0.0
C365 C 0.21358 0.80018 0.26618 0.0
O366 O 0.24895 0.7081 0.26707 0.0
O367 O 0.2281 0.73251 0.29636 0.0
O368 O 0.25462 0.75403 0.22233 0.0
O369 O 0.26445 0.7929 0.24687 0.0
O370 O 0.21889 0.77424 0.27323 0.0
O371 O 0.23391 0.82232 0.26475 0.0
C372 C 0.30364 0.87738 0.27833 0.0
O373 O 0.28255 0.87065 0.29345 0.0
O374 O 0.30965 0.85381 0.26548 0.0
C375 C 0.26902 0.79284 0.32926 0.0
Tb376 Tb 0.55985 0.04621 0.51454 0.0
C377 C 0.54219 0.01744 0.57365 0.0
Tb378 Tb 0.49892 0.03663 0.52719 0.0
O379 O 0.56152 0.09311 0.52084 0.0
O380 O 0.53541 0.06499 0.54408 0.0
O381 O 0.56176 0.02405 0.55563 0.0
C382 C 0.45061 0.05265 0.54009 0.0
O383 O 0.51602 0.02224 0.56782 0.0
C384 C 0.51615 0.99228 0.49989 0.0
C385 C 0.51525 0.06243 0.46669 0.0
O386 O 0.45321 0.02774 0.52705 0.0
O387 O 0.47506 0.06799 0.54591 0.0
O388 O 0.49586 0.98944 0.51678 0.0
O389 O 0.52331 0.01885 0.49732 0.0
O390 O 0.49672 0.0588 0.48637 0.0
O391 O 0.54126 0.05631 0.47186 0.0
C392 C 0.61056 0.0323 0.50824 0.0
O393 O 0.6055 0.05806 0.51649 0.0
O394 O 0.58701 0.01517 0.50226 0.0
C395 C 0.54211 0.09114 0.53873 0.0
Tb396 Tb 0.27847 0.29999 0.79895 0.0
C397 C 0.29034 0.34372 0.75091 0.0
Tb398 Tb 0.25819 0.27993 0.73222 0.0
O399 O 0.32223 0.29036 0.79649 0.0
O400 O 0.2934 0.28274 0.76173 0.0
O401 O 0.28552 0.34083 0.77849 0.0
C402 C 0.25782 0.25875 0.67772 0.0
O403 O 0.2848 0.32189 0.73023 0.0
C404 C 0.21723 0.29835 0.76001 0.0
C405 C 0.24301 0.23783 0.78163 0.0
O406 O 0.25096 0.2838 0.68569 0.0
O407 O 0.26493 0.24552 0.70048 0.0
O408 O 0.21494 0.28921 0.7326 0.0
O409 O 0.24223 0.29731 0.76947 0.0
O410 O 0.24776 0.2397 0.75375 0.0
O411 O 0.25012 0.25975 0.80201 0.0
C412 C 0.28433 0.32292 0.85316 0.0
O413 O 0.28774 0.29648 0.84536 0.0
O414 O 0.27678 0.3361 0.83055 0.0
C415 C 0.31852 0.28132 0.76909 0.0
Tb416 Tb 1.01186 0.03208 0.48145 0.0
C417 C 0.97465 0.00813 0.52883 0.0
Tb418 Tb 0.04078 0.02341 0.54166 0.0
O419 O 1.00029 0.98522 0.47119 0.0
O420 O 0.03518 1.00156 0.49973 0.0
O421 O 0.97554 0.02313 0.50542 0.0
C422 C 0.06022 1.00462 0.59188 0.0
O423 O 0.99761 1.00214 0.54366 0.0
C424 C 0.0312 0.07612 0.53369 0.0
C425 C 0.07709 0.0461 0.49341 0.0
O426 O 0.03418 1.00489 0.58325 0.0
O427 O 0.07546 0.01471 0.57209 0.0
O428 O 0.05114 0.07071 0.55201 0.0
O429 O 0.01652 0.05292 0.52383 0.0
O430 O 0.07561 0.02836 0.51477 0.0
O431 O 0.05441 0.05451 0.48047 0.0
C432 C 0.9908 0.05052 0.43225 0.0
O433 O 1.01137 0.0356 0.43466 0.0
O434 O 0.98228 0.05555 0.45768 0.0
C435 C 0.01974 0.97866 0.48954 0.0
Tb436 Tb 0.29459 0.78848 0.78166 0.0
C437 C 0.24707 0.7991 0.8221 0.0
Tb438 Tb 0.23288 0.78089 0.754 0.0
O439 O 0.29589 0.83585 0.79048 0.0
O440 O 0.26827 0.81306 0.758 0.0
O441 O 0.27183 0.79036 0.82041 0.0
C442 C 0.1849 0.78827 0.72468 0.0
O443 O 0.22925 0.79991 0.79858 0.0
C444 C 0.25201 0.73173 0.76245 0.0
C445 C 0.28179 0.76972 0.71453 0.0
O446 O 0.18692 0.77671 0.74953 0.0
O447 O 0.20971 0.79605 0.71693 0.0
O448 O 0.22979 0.73371 0.74544 0.0
O449 O 0.25918 0.75585 0.77702 0.0
O450 O 0.25682 0.77827 0.71584 0.0
O451 O 0.29927 0.76892 0.73812 0.0
C452 C 0.34396 0.78336 0.80886 0.0
O453 O 0.34046 0.79579 0.7847 0.0
O454 O 0.31982 0.77332 0.81706 0.0
C455 C 0.27437 0.83734 0.77229 0.0
Tb456 Tb 0.495 0.01912 0.01584 0.0
C457 C 0.54489 0.98454 0.02421 0.0
Tb458 Tb 0.55507 0.05299 0.02682 0.0
O459 O 0.50308 0.99915 0.97331 0.0
O460 O 0.52617 0.03818 0.99021 0.0
O461 O 0.5187 0.98559 0.02954 0.0
C462 C 0.60782 0.07873 0.02383 0.0
O463 O 0.56221 0.00786 0.01877 0.0
C464 C 0.52441 0.05361 0.07172 0.0
C465 C 0.5051 0.08694 0.01424 0.0
O466 O 0.60035 0.05794 0.04028 0.0
O467 O 0.58564 0.08496 0.00941 0.0
O468 O 0.54503 0.07367 0.06828 0.0
O469 O 0.52433 0.03319 0.0525 0.0
O470 O 0.53149 0.08535 0.00983 0.0
O471 O 0.48765 0.06439 0.02121 0.0
C472 C 0.44372 0.99092 0.02114 0.0
O473 O 0.44976 0.00935 1.00183 0.0
O474 O 0.46632 0.98905 0.03752 0.0
C475 C 0.52478 0.01808 0.97028 0.0
Tb476 Tb 0.23409 0.25956 0.27493 0.0
C477 C 0.29098 0.25992 0.31233 0.0
Tb478 Tb 0.28853 0.28499 0.25135 0.0
O479 O 0.24313 0.21474 0.27157 0.0
O480 O 0.26168 0.24463 0.24528 0.0
O481 O 0.26408 0.26185 0.31282 0.0
C482 C 0.33422 0.29525 0.22324 0.0
O483 O 0.30494 0.26543 0.28947 0.0
C484 C 0.26055 0.3246 0.27418 0.0
C485 C 0.2325 0.28305 0.21428 0.0
O486 O 0.33351 0.28466 0.24849 0.0
O487 O 0.30956 0.30034 0.21433 0.0
O488 O 0.27949 0.33002 0.25638 0.0
O489 O 0.26171 0.29925 0.28161 0.0
O490 O 0.25769 0.27535 0.21372 0.0
O491 O 0.21971 0.28257 0.23835 0.0
C492 C 0.18798 0.25218 0.30241 0.0
O493 O 0.1886 0.24664 0.27455 0.0
O494 O 0.21295 0.26177 0.31422 0.0
C495 C 0.26268 0.21972 0.25431 0.0
Tb496 Tb 0.50742 0.53788 0.9999 0.0
C497 C 0.469 0.52539 0.05065 0.0
Tb498 Tb 0.53539 0.54084 0.06463 0.0
O499 O 0.52246 0.49593 0.99006 0.0
O500 O 0.5165 0.50924 0.0317 0.0
O501 O 0.47042 0.533 0.02353 0.0
C502 C 0.5587 0.52399 0.11356 0.0
O503 O 0.49147 0.52342 0.0688 0.0
C504 C 0.52381 0.59202 0.05043 0.0
C505 C 0.57037 0.56284 0.01377 0.0
O506 O 0.53572 0.53525 0.11095 0.0
O507 O 0.56904 0.52248 0.08855 0.0
O508 O 0.53508 0.58763 0.07605 0.0
O509 O 0.52008 0.56815 0.03561 0.0
O510 O 0.57107 0.54906 0.03816 0.0
O511 O 0.54673 0.56569 0.99847 0.0
C512 C 0.48151 0.54416 0.94825 0.0
O513 O 0.50668 0.53811 0.95284 0.0
O514 O 0.47077 0.54696 0.97288 0.0
C515 C 0.52652 0.49055 0.0171 0.0
Tb516 Tb 0.80454 0.2938 0.28461 0.0
C517 C 0.75624 0.30414 0.32426 0.0
Tb518 Tb 0.74326 0.28425 0.25652 0.0
O519 O 0.80514 0.34091 0.29323 0.0
O520 O 0.77772 0.31765 0.26069 0.0
O521 O 0.78149 0.29641 0.32313 0.0
C522 C 0.69462 0.28926 0.22744 0.0
O523 O 0.73842 0.30366 0.30053 0.0
C524 C 0.76473 0.23636 0.26582 0.0
C525 C 0.79234 0.27533 0.21723 0.0
O526 O 0.69726 0.27697 0.25184 0.0
O527 O 0.71913 0.2989 0.21998 0.0
O528 O 0.74361 0.2375 0.24698 0.0
O529 O 0.76985 0.2604 0.28071 0.0
O530 O 0.76722 0.28336 0.21848 0.0
O531 O 0.80977 0.27462 0.24092 0.0
C532 C 0.85345 0.28811 0.31249 0.0
O533 O 0.82907 0.2778 0.3198 0.0
O534 O 0.85055 0.30152 0.28885 0.0
C535 C 0.7834 0.34193 0.27514 0.0
Tb536 Tb 0.99592 0.525 0.51624 0.0
C537 C 0.04276 0.48624 0.52325 0.0
Tb538 Tb 0.05711 0.55459 0.53197 0.0
O539 O 1.00706 0.50714 0.47454 0.0
O540 O 0.02885 0.54624 0.49373 0.0
O541 O 0.01616 0.48792 0.52696 0.0
C542 C 0.11072 0.57669 0.52728 0.0
O543 O 0.06175 0.50943 0.52202 0.0
C544 C 0.02547 0.55095 0.57601 0.0
C545 C 1.01028 0.59367 0.52734 0.0
O546 O 0.10197 0.56131 0.54815 0.0
O547 O 0.0893 0.57965 0.50958 0.0
O548 O 0.04746 0.57036 0.57538 0.0
O549 O 0.02446 0.5327 0.55431 0.0
O550 O 0.0371 0.5923 0.52526 0.0
O551 O 0.99072 0.57046 0.52582 0.0
C552 C 0.94139 0.50213 0.51151 0.0
O553 O 0.95527 0.51229 0.49069 0.0
O554 O 0.95816 0.50525 0.53534 0.0
C555 C 0.02823 0.5271 0.47286 0.0
Tb556 Tb 0.78823 0.80213 0.3106 0.0
C557 C 0.79569 0.84168 0.25802 0.0
Tb558 Tb 0.7641 0.777 0.24587 0.0
O559 O 0.83185 0.79321 0.30666 0.0
O560 O 0.80133 0.7828 0.2733 0.0
O561 O 0.7931 0.84076 0.2863 0.0
C562 C 0.75931 0.75168 0.19261 0.0
O563 O 0.78891 0.81866 0.23887 0.0
C564 C 0.72487 0.7953 0.27683 0.0
C565 C 0.75454 0.73849 0.29909 0.0
O566 O 0.7511 0.7763 0.19971 0.0
O567 O 0.77046 0.74132 0.21551 0.0
O568 O 0.7202 0.78381 0.25015 0.0
O569 O 0.75079 0.79665 0.28316 0.0
O570 O 0.7576 0.73861 0.2707 0.0
O571 O 0.76189 0.76171 0.31794 0.0
C572 C 0.79411 0.83224 0.36145 0.0
O573 O 0.79791 0.80523 0.35774 0.0
O574 O 0.78647 0.84184 0.33679 0.0
C575 C 0.82691 0.78251 0.27972 0.0
Tb576 Tb 0.78526 0.31465 0.77678 0.0
C577 C 0.82966 0.27056 0.77912 0.0
Tb578 Tb 0.76424 0.25086 0.76315 0.0
O579 O 0.77395 0.31318 0.82204 0.0
O580 O 0.78382 0.27686 0.80016 0.0
O581 O 0.82496 0.29729 0.77464 0.0
C582 C 0.73759 0.19723 0.76911 0.0
O583 O 0.80835 0.24898 0.77896 0.0
C584 C 0.7751 0.27993 0.71656 0.0
C585 C 0.7202 0.2965 0.7611 0.0
O586 O 0.75564 0.20382 0.75042 0.0
O587 O 0.7346 0.22083 0.78419 0.0
O588 O 0.77684 0.25248 0.71851 0.0
O589 O 0.76541 0.28866 0.73936 0.0
O590 O 0.72435 0.26908 0.76387 0.0
O591 O 0.74165 0.31803 0.7625 0.0
C592 C 0.81656 0.36562 0.77113 0.0
O593 O 0.79819 0.36125 0.78997 0.0
O594 O 0.81638 0.3417 0.75521 0.0
C595 C 0.7747 0.28547 0.82328 0.0
Tb596 Tb 0.74715 0.77078 0.79915 0.0
C597 C 0.80229 0.77052 0.83945 0.0
Tb598 Tb 0.80538 0.80066 0.78079 0.0
O599 O 0.75913 0.72661 0.79361 0.0
O600 O 0.77891 0.76053 0.77336 0.0
O601 O 0.77535 0.77263 0.83838 0.0
C602 C 0.84983 0.80695 0.75094 0.0
O603 O 0.81795 0.77729 0.81805 0.0
C604 C 0.77669 0.83963 0.8038 0.0
C605 C 0.7482 0.80231 0.74138 0.0
O606 O 0.85051 0.81314 0.77888 0.0
O607 O 0.82442 0.79733 0.74024 0.0
O608 O 0.80172 0.84586 0.79552 0.0
O609 O 0.77139 0.81224 0.80139 0.0
O610 O 0.77605 0.80588 0.74378 0.0
O611 O 0.73227 0.79017 0.76053 0.0
C612 C 0.70226 0.76352 0.82803 0.0
O613 O 0.7258 0.77959 0.83707 0.0
O614 O 0.7034 0.75176 0.80184 0.0
C615 C 0.78028 0.73466 0.77896 0.0
Tb616 Tb 0.53753 0.57043 0.52577 0.0
C617 C 0.54357 0.52193 0.47693 0.0
Tb618 Tb 0.5116 0.50539 0.53068 0.0
O619 O 0.58163 0.56582 0.54038 0.0
O620 O 0.55078 0.53131 0.53705 0.0
O621 O 0.539 0.54897 0.4826 0.0
C622 C 0.50605 0.45495 0.55554 0.0
O623 O 0.5377 0.50122 0.49479 0.0
C624 C 0.4765 0.53889 0.50611 0.0
C625 C 0.50324 0.55458 0.57999 0.0
O626 O 0.49653 0.4584 0.52893 0.0
O627 O 0.51857 0.47969 0.5677 0.0
O628 O 0.47359 0.51053 0.5022 0.0
O629 O 0.49719 0.54576 0.52483 0.0
O630 O 0.50195 0.5265 0.57155 0.0
O631 O 0.51537 0.57587 0.56519 0.0
C632 C 0.5436 0.6215 0.50274 0.0
O633 O 0.5526 0.61726 0.52932 0.0
O634 O 0.53053 0.59728 0.48978 0.0
C635 C 0.57685 0.53789 0.54259 0.0
Tb636 Tb 0.05789 0.54533 0.01884 0.0
C637 C 0.04967 0.51685 0.08044 0.0
Tb638 Tb 1.00062 0.5331 0.03968 0.0
O639 O 0.06019 0.59193 0.02668 0.0
O640 O 0.03707 0.56394 0.05241 0.0
O641 O 0.06608 0.52466 0.0598 0.0
C642 C 0.95136 0.5422 0.05726 0.0
O643 O 0.02268 0.51923 0.07806 0.0
C644 C 0.01625 0.49002 0.00862 0.0
C645 C 1.00826 0.56229 0.97892 0.0
O646 O 0.955 0.52226 0.03763 0.0
O647 O 0.97554 0.55623 0.06737 0.0
O648 O 0.99952 0.48604 0.02906 0.0
O649 O 0.02112 0.51672 1.00555 0.0
O650 O 0.99349 0.55864 1.00181 0.0
O651 O 0.03417 0.55571 0.97921 0.0
C652 C 0.10669 0.52978 1.00635 0.0
O653 O 0.10299 0.55598 0.01491 0.0
O654 O 0.08266 0.51329 1.00319 0.0
C655 C 0.04274 0.59028 0.04668 0.0
H656 H 0.01768 0.20632 0.89531 0.0
H657 H 0.09413 0.25209 0.94013 0.0
H658 H 0.1014 0.20905 0.96593 0.0
H659 H 0.08182 0.16071 0.98101 0.0
H660 H 1.00376 0.11682 0.93696 0.0
H661 H 1.00115 0.15655 0.90591 0.0
C662 C 0.03654 0.2063 0.90973 0.0
C663 C 0.05567 0.23186 0.91541 0.0
C664 C 0.03977 0.18205 0.92542 0.0
C665 C 0.07956 0.23221 0.93493 0.0
C666 C 0.08341 0.20781 0.95007 0.0
C667 C 0.06444 0.15987 0.96444 0.0
C668 C 0.04285 0.13609 0.96159 0.0
C669 C 0.06298 0.18301 0.94644 0.0
C670 C 0.02056 0.13503 0.93982 0.0
C671 C 0.01904 0.1577 0.9219 0.0
H672 H 0.08439 0.7801 0.2235 0.0
H673 H 0.11258 0.8449 0.16581 0.0
H674 H 0.15951 0.85135 0.191 0.0
H675 H 0.19396 0.83565 0.22671 0.0
H676 H 0.16647 0.769 0.28266 0.0
H677 H 0.11832 0.76661 0.26135 0.0
C678 C 0.10066 0.79598 0.21675 0.0
C679 C 0.09476 0.81185 0.19261 0.0
C680 C 0.12802 0.79924 0.23104 0.0
C681 C 0.11637 0.83216 0.18413 0.0
C682 C 0.14335 0.83592 0.19856 0.0
C683 C 0.17735 0.82108 0.23469 0.0
C684 C 0.18395 0.80262 0.25637 0.0
C685 C 0.14963 0.81917 0.22168 0.0
C686 C 0.1621 0.78349 0.26602 0.0
C687 C 0.13447 0.78201 0.25374 0.0
H688 H 0.5525 0.90884 0.40064 0.0
H689 H 0.5044 0.84518 0.4472 0.0
H690 H 0.49375 0.88298 0.48095 0.0
H691 H 0.49891 0.9342 0.49884 0.0
H692 H 0.54781 0.99858 0.45401 0.0
H693 H 0.5575 0.96089 0.41871 0.0
C694 C 0.53944 0.90337 0.41796 0.0
C695 C 0.52923 0.87408 0.42112 0.0
C696 C 0.53378 0.92545 0.43809 0.0
C697 C 0.51263 0.86739 0.44402 0.0
C698 C 0.50651 0.88908 0.46356 0.0
C699 C 0.51173 0.93994 0.48138 0.0
C700 C 0.52273 0.9691 0.47923 0.0
C701 C 0.51721 0.91815 0.46107 0.0
C702 C 0.53927 0.97622 0.45639 0.0
C703 C 0.54471 0.95467 0.43603 0.0
H704 H 0.40526 0.26828 0.67535 0.0
H705 H 0.45706 0.2554 0.75267 0.0
H706 H 0.41795 0.25864 0.78191 0.0
H707 H 0.36988 0.26852 0.78647 0.0
H708 H 0.31724 0.28011 0.70956 0.0
H709 H 0.35548 0.27389 0.67939 0.0
C710 C 0.40789 0.26574 0.69852 0.0
C711 C 0.43431 0.2617 0.71168 0.0
C712 C 0.3851 0.26764 0.71542 0.0
C713 C 0.43714 0.25849 0.7418 0.0
C714 C 0.41474 0.26048 0.75866 0.0
C715 C 0.3667 0.26939 0.76305 0.0
C716 C 0.34071 0.27484 0.75031 0.0
C717 C 0.38879 0.2656 0.74584 0.0
C718 C 0.33692 0.27578 0.71993 0.0
C719 C 0.35889 0.27235 0.70268 0.0
H720 H 0.98984 0.85551 0.53387 0.0
H721 H 0.03994 0.89748 0.61056 0.0
H722 H 0.0518 0.94113 0.58459 0.0
H723 H 0.04582 0.96764 0.54056 0.0
H724 H 0.99047 0.92733 0.46682 0.0
H725 H 0.9833 0.88199 0.49073 0.0
C726 C 1.00346 0.87422 0.54484 0.0
C727 C 1.01414 0.87354 0.57388 0.0
C728 C 1.00924 0.89926 0.53023 0.0
C729 C 0.03143 0.89783 0.58816 0.0
C730 C 0.03822 0.92264 0.57333 0.0
C731 C 0.0322 0.94893 0.5299 0.0
C732 C 0.0184 0.9507 0.50231 0.0
C733 C 0.02696 0.92365 0.54446 0.0
C734 C 1.00114 0.9263 0.48821 0.0
C735 C 0.99694 0.90054 0.50189 0.0
H736 H 0.46566 0.79647 0.8723 0.0
H737 H 0.4185 0.7923 0.94738 0.0
H738 H 0.37484 0.78655 0.9157 0.0
H739 H 0.35015 0.78195 0.86683 0.0
H740 H 0.39682 0.78963 0.79176 0.0
H741 H 0.44085 0.79438 0.82329 0.0
C742 C 0.44581 0.79439 0.88171 0.0
C743 C 0.44527 0.79466 0.91212 0.0
C744 C 0.42083 0.79142 0.8634 0.0
C745 C 0.41946 0.7923 0.92406 0.0
C746 C 0.3945 0.78882 0.90597 0.0
C747 C 0.36999 0.78444 0.85739 0.0
C748 C 0.37048 0.78505 0.82713 0.0
C749 C 0.39497 0.78812 0.87565 0.0
C750 C 0.39615 0.78891 0.81507 0.0
C751 C 0.42121 0.7917 0.83306 0.0
H752 H 0.50777 0.22024 0.01355 0.0
H753 H 0.47675 0.20781 0.09737 0.0
H754 H 0.46985 0.15524 0.08637 0.0
H755 H 0.47925 0.1129 0.05593 0.0
H756 H 0.51429 0.12621 0.97444 0.0
H757 H 0.51233 0.17824 0.98115 0.0
C758 C 0.49908 0.20614 0.02931 0.0
C759 C 0.49329 0.21807 0.05646 0.0
C760 C 0.49583 0.17597 0.02318 0.0
C761 C 0.48173 0.19931 0.0764 0.0
C762 C 0.47778 0.16919 0.07015 0.0
C763 C 0.48552 0.12716 0.03926 0.0
C764 C 0.49674 0.11597 0.01467 0.0
C765 C 0.48565 0.15726 0.04401 0.0
C766 C 0.50545 0.13453 0.99345 0.0
C767 C 0.50454 0.16425 0.99741 0.0
H768 H 0.0735 0.25404 0.35618 0.0
H769 H 0.1299 0.27125 0.43484 0.0
H770 H 0.16937 0.26512 0.40694 0.0
H771 H 0.18811 0.25826 0.36023 0.0
H772 H 0.13271 0.2421 0.28103 0.0
H773 H 0.09227 0.24417 0.30923 0.0
C774 C 0.0944 0.25621 0.36723 0.0
C775 C 0.09885 0.26335 0.39748 0.0
C776 C 0.11705 0.25295 0.35101 0.0
C777 C 0.12599 0.26597 0.41155 0.0
C778 C 0.14855 0.26248 0.39564 0.0
C779 C 0.16715 0.25496 0.34914 0.0
C780 C 0.16321 0.25026 0.3187 0.0
C781 C 0.14435 0.25651 0.36536 0.0
C782 C 0.13607 0.24577 0.30452 0.0
C783 C 0.11306 0.24706 0.32061 0.0
H784 H 0.97196 0.09048 0.19305 0.0
H785 H 0.89215 0.05653 0.1461 0.0
H786 H 0.9146 0.05334 0.10066 0.0
H787 H 0.95795 0.05311 0.07624 0.0
H788 H 0.03774 0.08601 0.1235 0.0
H789 H 0.01435 0.09667 0.16722 0.0
C790 C 0.95937 0.08298 0.17273 0.0
C791 C 0.93048 0.07337 0.17292 0.0
C792 C 0.97254 0.08049 0.14703 0.0
C793 C 0.91435 0.06411 0.14647 0.0
C794 C 0.92726 0.06194 0.1206 0.0
C795 C 0.97008 0.063 0.0961 0.0
C796 C 0.99944 0.06844 0.09712 0.0
C797 C 0.95647 0.06891 0.12093 0.0
C798 C 0.01514 0.08157 0.12252 0.0
C799 C 1.00176 0.08757 0.1474 0.0
H800 H 0.29708 0.7471 0.45363 0.0
H801 H 0.31102 0.6722 0.40027 0.0
H802 H 0.29714 0.69545 0.35634 0.0
H803 H 0.2821 0.73773 0.3328 0.0
H804 H 0.26767 0.8123 0.3863 0.0
H805 H 0.2802 0.78842 0.43021 0.0
C806 C 0.29701 0.73572 0.43243 0.0
C807 C 0.30527 0.70777 0.4305 0.0
C808 C 0.28874 0.7492 0.40715 0.0
C809 C 0.30487 0.69359 0.40264 0.0
C810 C 0.29689 0.70694 0.37743 0.0
C811 C 0.28144 0.74871 0.35406 0.0
C812 C 0.27388 0.77696 0.35606 0.0
C813 C 0.28888 0.73481 0.37936 0.0
C814 C 0.27325 0.79066 0.38393 0.0
C815 C 0.28057 0.777 0.40912 0.0
H816 H 0.55143 0.97626 0.70105 0.0
H817 H 0.63963 0.9989 0.69375 0.0
H818 H 0.62958 0.00762 0.64225 0.0
H819 H 0.59486 0.01472 0.60102 0.0
H820 H 0.50674 0.99367 0.61104 0.0
H821 H 0.51767 0.97876 0.65954 0.0
C822 C 0.56859 0.98253 0.68808 0.0
C823 C 0.59628 0.98697 0.70142 0.0
C824 C 0.56257 0.98844 0.65896 0.0
C825 C 0.61816 0.99497 0.68411 0.0
C826 C 0.61234 1.00037 0.65472 0.0
C827 C 0.57806 1.00655 0.61367 0.0
C828 C 0.54989 1.0058 0.60223 0.0
C829 C 0.58451 0.99814 0.64214 0.0
C830 C 0.52853 0.99498 0.61913 0.0
C831 C 0.53476 0.98631 0.64698 0.0
H832 H 0.30273 0.35986 0.98645 0.0
H833 H 0.28382 0.44097 0.95579 0.0
H834 H 0.28381 0.42139 0.90535 0.0
H835 H 0.2826 0.37893 0.87049 0.0
H836 H 0.29884 0.29724 0.90195 0.0
H837 H 0.30602 0.31923 0.9519 0.0
C838 C 0.2991 0.37346 0.96874 0.0
C839 C 0.29279 0.40156 0.97463 0.0
C840 C 0.29797 0.36171 0.94009 0.0
C841 C 0.28862 0.41918 0.95165 0.0
C842 C 0.28829 0.40789 0.92287 0.0
C843 C 0.28784 0.36606 0.88834 0.0
C844 C 0.28972 0.33648 0.88288 0.0
C845 C 0.29176 0.37879 0.91691 0.0
C846 C 0.29694 0.31999 0.90589 0.0
C847 C 0.30115 0.33256 0.93434 0.0
H848 H 0.94677 0.06155 0.3031 0.0
H849 H 0.87066 0.07103 0.34229 0.0
H850 H 0.89493 0.06861 0.39075 0.0
H851 H 0.93787 0.06252 0.42152 0.0
H852 H 1.01273 0.05132 0.38066 0.0
H853 H 0.98887 0.05623 0.33302 0.0
C854 C 0.93535 0.06307 0.32217 0.0
C855 C 0.90693 0.06633 0.31916 0.0
C856 C 0.94931 0.06163 0.34958 0.0
C857 C 0.89253 0.06834 0.34411 0.0
C858 C 0.90642 0.06708 0.37175 0.0
C859 C 0.94895 0.06158 0.40215 0.0
C860 C 0.97697 0.05673 0.40439 0.0
C861 C 0.93484 0.06366 0.37471 0.0
C862 C 0.99115 0.05511 0.3793 0.0
C863 C 0.97751 0.05779 0.35212 0.0
H864 H 0.30558 0.76172 0.58298 0.0
H865 H 0.32374 0.67659 0.60192 0.0
H866 H 0.31783 0.68798 0.65367 0.0
H867 H 0.30316 0.72133 0.69297 0.0
H868 H 0.28031 0.80354 0.66985 0.0
H869 H 0.29202 0.79389 0.6203 0.0
C870 C 0.30846 0.7454 0.59819 0.0
C871 C 0.31499 0.7181 0.58807 0.0
C872 C 0.3038 0.75161 0.62735 0.0
C873 C 0.31888 0.6978 0.60875 0.0
C874 C 0.31522 0.70427 0.63839 0.0
C875 C 0.3011 0.73716 0.67705 0.0
C876 C 0.29097 0.7633 0.68515 0.0
C877 C 0.30703 0.73094 0.64789 0.0
C878 C 0.28798 0.78338 0.66423 0.0
C879 C 0.29472 0.77786 0.63587 0.0
H880 H 0.62236 0.01778 0.88618 0.0
H881 H 0.55618 0.9627 0.83231 0.0
H882 H 0.52464 0.96623 0.8703 0.0
H883 H 0.51504 0.98582 0.91846 0.0
H884 H 0.57936 0.04377 0.97134 0.0
H885 H 0.61213 0.0386 0.93457 0.0
C886 C 0.6011 1.00643 0.88294 0.0
C887 C 0.59174 0.98983 0.85643 0.0
C888 C 0.58255 0.00934 0.9047 0.0
C889 C 0.56396 0.97562 0.85243 0.0
C890 C 0.54585 0.97763 0.87418 0.0
C891 C 0.53621 0.99739 0.9219 0.0
C892 C 0.54461 0.0155 0.9476 0.0
C893 C 0.55477 0.99461 0.90031 0.0
C894 C 0.57215 0.03024 0.95162 0.0
C895 C 0.59099 0.02705 0.9306 0.0
H896 H 0.23646 0.37889 0.12875 0.0
H897 H 0.241 0.30497 0.06898 0.0
H898 H 0.22819 0.27209 0.10567 0.0
H899 H 0.22638 0.26501 0.15745 0.0
H900 H 0.21827 0.33718 0.21716 0.0
H901 H 0.22131 0.36999 0.17792 0.0
C902 C 0.23378 0.35561 0.12352 0.0
C903 C 0.24094 0.34451 0.09663 0.0
C904 C 0.22619 0.33646 0.14485 0.0
C905 C 0.23669 0.3142 0.08993 0.0
C906 C 0.22929 0.29524 0.11088 0.0
C907 C 0.22405 0.28768 0.16151 0.0
C908 C 0.22277 0.29897 0.19001 0.0
C909 C 0.22563 0.3062 0.13886 0.0
C910 C 0.2196 0.32825 0.19526 0.0
C911 C 0.22155 0.34702 0.17286 0.0
H912 H 0.13525 0.91883 0.02495 0.0
H913 H 0.2043 0.98378 0.06011 0.0
H914 H 0.17297 0.02005 0.0635 0.0
H915 H 0.12618 0.03476 0.05358 0.0
H916 H 0.05701 0.9699 0.01883 0.0
H917 H 0.08771 0.93278 0.01843 0.0
C918 C 0.14339 0.9408 0.03374 0.0
C919 C 0.17233 0.94831 0.04215 0.0
C920 C 0.1251 0.96194 0.03556 0.0
C921 C 0.18227 0.9771 0.05337 0.0
C922 C 0.1643 0.99805 0.05528 0.0
C923 C 0.11775 0.01245 0.04629 0.0
C924 C 0.08919 1.00538 0.03614 0.0
C925 C 0.13571 0.99094 0.04601 0.0
C926 C 0.07882 0.97621 0.02671 0.0
C927 C 0.09646 0.95483 0.0264 0.0
H928 H 0.66738 0.64504 0.96608 0.0
H929 H 0.7108 0.5717 0.97997 0.0
H930 H 0.66873 0.54466 0.99586 0.0
H931 H 0.62044 0.5433 0.00984 0.0
H932 H 0.57728 0.61641 0.99473 0.0
H933 H 0.61847 0.64219 0.97593 0.0
C934 C 0.66756 0.62292 0.97193 0.0
C935 C 0.69241 0.61066 0.97206 0.0
C936 C 0.64347 0.60765 0.98165 0.0
C937 C 0.69205 0.58186 0.97973 0.0
C938 C 0.66805 0.56641 0.98915 0.0
C939 C 0.62028 0.56494 1.0026 0.0
C940 C 0.59617 0.57818 1.00405 0.0
C941 C 0.64389 0.57942 0.99109 0.0
C942 C 0.59579 0.60593 0.99398 0.0
C943 C 0.61926 0.62062 0.98309 0.0
H944 H 0.68853 0.42138 0.28569 0.0
H945 H 0.75922 0.48222 0.32461 0.0
H946 H 0.79028 0.44612 0.31703 0.0
H947 H 0.79747 0.39702 0.29944 0.0
H948 H 0.72756 0.33742 0.25794 0.0
H949 H 0.69625 0.37296 0.26584 0.0
C950 C 0.71071 0.42661 0.29256 0.0
C951 C 0.72154 0.45432 0.30583 0.0
C952 C 0.72867 0.406 0.28734 0.0
C953 C 0.75039 0.46101 0.31429 0.0
C954 C 0.76819 0.44039 0.30997 0.0
C955 C 0.77541 0.39195 0.2919 0.0
C956 C 0.76488 0.36453 0.27774 0.0
C957 C 0.75759 0.41282 0.29645 0.0
C958 C 0.7363 0.35838 0.26816 0.0
C959 C 0.71831 0.37871 0.27306 0.0
H960 H 0.82634 0.421 0.47413 0.0
H961 H 0.81124 0.44581 0.56209 0.0
H962 H 0.85711 0.47646 0.56958 0.0
H963 H 0.90281 0.49453 0.55152 0.0
H964 H 0.91532 0.47306 0.46197 0.0
H965 H 0.86943 0.44298 0.45464 0.0
C966 C 0.83301 0.43335 0.49484 0.0
C967 C 0.8155 0.431 0.51758 0.0
C968 C 0.85911 0.45145 0.49873 0.0
C969 C 0.82428 0.44736 0.5442 0.0
C970 C 0.85059 0.46476 0.54853 0.0
C971 C 0.89533 0.48339 0.5304 0.0
C972 C 0.91256 0.48581 0.50738 0.0
C973 C 0.86839 0.46671 0.52606 0.0
C974 C 0.90249 0.47156 0.48002 0.0
C975 C 0.87625 0.45427 0.47583 0.0
H976 H 0.32994 0.11342 0.24763 0.0
H977 H 0.40008 0.18196 0.25158 0.0
H978 H 0.36795 0.21809 0.24819 0.0
H979 H 0.31945 0.23041 0.24736 0.0
H980 H 0.25054 0.16149 0.24873 0.0
H981 H 0.28232 0.1255 0.2462 0.0
C982 C 0.3383 0.13623 0.24741 0.0
C983 C 0.36753 0.1448 0.24971 0.0
C984 C 0.31971 0.15694 0.24637 0.0
C985 C 0.37777 0.1746 0.24979 0.0
C986 C 0.35933 0.19533 0.24788 0.0
C987 C 0.31139 0.20757 0.24662 0.0
C988 C 0.28246 0.19879 0.24795 0.0
C989 C 0.33018 0.18683 0.24655 0.0
C990 C 0.27257 0.16893 0.2475 0.0
C991 C 0.29081 0.14828 0.24623 0.0
H992 H 0.35721 0.13133 0.53274 0.0
H993 H 0.30887 0.052 0.49241 0.0
H994 H 0.34766 0.02534 0.50516 0.0
H995 H 0.39767 0.0265 0.52171 0.0
H996 H 0.44523 0.10627 0.56236 0.0
H997 H 0.40425 0.13076 0.55609 0.0
C998 C 0.35505 0.1081 0.52721 0.0
C999 C 0.33061 0.09365 0.51128 0.0
C1000 C 0.37733 0.09307 0.53454 0.0
C1001 C 0.32768 0.06352 0.50461 0.0
C1002 C 0.34987 0.04834 0.51175 0.0
C1003 C 0.39878 0.04903 0.52977 0.0
C1004 C 0.42441 0.06473 0.54199 0.0
C1005 C 0.37515 0.06312 0.52583 0.0
C1006 C 0.4257 0.09384 0.55261 0.0
C1007 C 0.40234 0.10792 0.54892 0.0
H1008 H 0.67479 0.63663 0.34635 0.0
H1009 H 0.72514 0.58564 0.29743 0.0
H1010 H 0.75332 0.62972 0.28499 0.0
H1011 H 0.76195 0.68297 0.28513 0.0
H1012 H 0.71438 0.73445 0.33672 0.0
H1013 H 0.68698 0.69023 0.351 0.0
C1014 C 0.69215 0.63521 0.33329 0.0
C1015 C 0.69765 0.60779 0.32274 0.0
C1016 C 0.70869 0.66079 0.32647 0.0
C1017 C 0.72042 0.60636 0.30601 0.0
C1018 C 0.7365 0.63161 0.29867 0.0
C1019 C 0.74573 0.68441 0.2997 0.0
C1020 C 0.74001 0.71178 0.30973 0.0
C1021 C 0.73054 0.65894 0.30833 0.0
C1022 C 0.7192 0.71351 0.32885 0.0
C1023 C 0.70346 0.68825 0.33691 0.0
H1024 H 0.91948 0.46228 0.75957 0.0
H1025 H 0.86891 0.51478 0.80606 0.0
H1026 H 0.83328 0.47244 0.80804 0.0
H1027 H 0.8159 0.42036 0.79558 0.0
H1028 H 0.86476 0.36897 0.74538 0.0
H1029 H 0.90135 0.41068 0.74561 0.0
C1030 C 0.90076 0.46426 0.77034 0.0
C1031 C 0.89688 0.49143 0.78289 0.0
C1032 C 0.87987 0.44002 0.77047 0.0
C1033 C 0.87231 0.49397 0.7963 0.0
C1034 C 0.85192 0.46981 0.7974 0.0
C1035 C 0.83453 0.41843 0.78465 0.0
C1036 C 0.83762 0.3917 0.77048 0.0
C1037 C 0.85533 0.44273 0.78436 0.0
C1038 C 0.86181 0.38942 0.75628 0.0
C1039 C 0.88284 0.41323 0.75651 0.0
H1040 H 0.98581 0.83169 0.09564 0.0
H1041 H 0.01835 0.88212 0.17582 0.0
H1042 H 0.02047 0.92688 0.15053 0.0
H1043 H 1.01386 0.95142 0.10534 0.0
H1044 H 0.97829 0.9013 0.02595 0.0
H1045 H 0.97636 0.85651 0.0512 0.0
C1046 C 0.99337 0.85251 0.10755 0.0
C1047 C 1.00218 0.85367 0.13748 0.0
C1048 C 0.9939 0.87809 0.09301 0.0
C1049 C 1.0115 0.88074 0.15278 0.0
C1050 C 1.01274 0.90628 0.13832 0.0
C1051 C 1.00558 0.93066 0.09362 0.0
C1052 C 0.99637 0.92952 0.06381 0.0
C1053 C 1.0041 0.90518 0.10842 0.0
C1054 C 0.98544 0.90263 0.04891 0.0
C1055 C 0.98443 0.87707 0.06332 0.0
H1056 H 0.93519 0.25685 0.86388 0.0
H1057 H 0.97261 0.32818 0.8187 0.0
H1058 H 0.92963 0.32457 0.78571 0.0
H1059 H 0.87975 0.30387 0.77271 0.0
H1060 H 0.84355 0.2308 0.81658 0.0
H1061 H 0.8877 0.23198 0.84656 0.0
C1062 C 0.93405 0.27138 0.84656 0.0
C1063 C 0.95703 0.293 0.84398 0.0
C1064 C 0.90943 0.26881 0.82737 0.0
C1065 C 0.95533 0.31137 0.82118 0.0
C1066 C 0.93067 0.30936 0.80238 0.0
C1067 C 0.88171 0.28776 0.78836 0.0
C1068 C 0.85817 0.26725 0.79227 0.0
C1069 C 0.90736 0.28853 0.80563 0.0
C1070 C 0.86122 0.24661 0.81274 0.0
C1071 C 0.88647 0.24747 0.83018 0.0
H1072 H 0.50797 0.21242 0.57227 0.0
H1073 H 0.50539 0.17873 0.65683 0.0
H1074 H 0.51194 0.13075 0.6354 0.0
H1075 H 0.52511 0.10052 0.59335 0.0
H1076 H 0.53274 0.13811 0.51107 0.0
H1077 H 0.51775 0.18246 0.53084 0.0
C1078 C 0.5085 0.19456 0.58613 0.0
C1079 C 0.5066 0.19936 0.61626 0.0
C1080 C 0.51367 0.16778 0.574 0.0
C1081 C 0.50677 0.17572 0.63361 0.0
C1082 C 0.51085 0.14836 0.62137 0.0
C1083 C 0.52307 0.11837 0.57979 0.0
C1084 C 0.53019 0.11626 0.55083 0.0
C1085 C 0.51538 0.14444 0.59174 0.0
C1086 C 0.52765 0.13943 0.53344 0.0
C1087 C 0.51902 0.16475 0.54472 0.0
H1088 H 0.63932 0.81481 0.37165 0.0
H1089 H 0.58156 0.79304 0.29436 0.0
H1090 H 0.6201 0.78877 0.26511 0.0
H1091 H 0.66985 0.79029 0.2606 0.0
H1092 H 0.72931 0.81121 0.33622 0.0
H1093 H 0.69085 0.81685 0.36669 0.0
C1094 C 0.63522 0.80919 0.34842 0.0
C1095 C 0.60725 0.80424 0.33544 0.0
C1096 C 0.65789 0.80663 0.33126 0.0
C1097 C 0.60258 0.79696 0.30521 0.0
C1098 C 0.62472 0.7945 0.28829 0.0
C1099 C 0.67452 0.79623 0.28376 0.0
C1100 C 0.7025 0.80042 0.29603 0.0
C1101 C 0.65238 0.79918 0.301 0.0
C1102 C 0.70802 0.80802 0.32612 0.0
C1103 C 0.68595 0.81114 0.34355 0.0
H1104 H 0.99101 0.19226 0.50064 0.0
H1105 H 0.06955 0.20258 0.46259 0.0
H1106 H 0.07911 0.15572 0.47904 0.0
H1107 H 0.0658 0.11307 0.5065 0.0
H1108 H 0.9852 0.10085 0.54009 0.0
H1109 H 0.9757 0.14768 0.52361 0.0
C1110 C 1.01006 0.18401 0.49576 0.0
C1111 C 0.02969 0.2006 0.48076 0.0
C1112 C 0.01517 0.15718 0.50494 0.0
C1113 C 0.05416 0.18985 0.47406 0.0
C1114 C 0.05972 0.16331 0.48367 0.0
C1115 C 0.04632 0.12096 0.51028 0.0
C1116 C 0.02643 0.10447 0.525 0.0
C1117 C 0.04059 0.14709 0.49959 0.0
C1118 C 1.00085 0.11391 0.5292 0.0
C1119 C 0.9954 0.14042 0.51967 0.0
H1120 H 0.57436 0.2852 0.16331 0.0
H1121 H 0.62331 0.32233 0.09739 0.0
H1122 H 0.66619 0.32156 0.12886 0.0
H1123 H 0.68968 0.31001 0.17471 0.0
H1124 H 0.64112 0.27201 0.24024 0.0
H1125 H 0.59787 0.27366 0.20919 0.0
C1126 C 0.59437 0.29319 0.15574 0.0
C1127 C 0.59556 0.30381 0.12795 0.0
C1128 C 0.61891 0.29259 0.17387 0.0
C1129 C 0.62174 0.31396 0.11859 0.0
C1130 C 0.64627 0.31358 0.13659 0.0
C1131 C 0.6696 0.30219 0.18224 0.0
C1132 C 0.66841 0.29094 0.20965 0.0
C1133 C 0.64506 0.30292 0.16421 0.0
C1134 C 0.6424 0.28077 0.21918 0.0
C1135 C 0.61777 0.28168 0.20144 0.0
H1136 H 0.53857 0.85057 1.00224 0.0
H1137 H 0.56046 0.87616 0.91812 0.0
H1138 H 0.5683 0.92721 0.93667 0.0
H1139 H 0.56472 0.96466 0.97553 0.0
H1140 H 0.53831 0.93911 0.05789 0.0
H1141 H 0.53746 0.88792 0.0418 0.0
C1142 C 0.54525 0.8673 0.98803 0.0
C1143 C 0.54869 0.85963 0.9588 0.0
C1144 C 0.54932 0.89659 0.99872 0.0
C1145 C 0.55741 0.88154 0.94065 0.0
C1146 C 0.56204 0.91072 0.95128 0.0
C1147 C 0.55973 0.94786 0.99022 0.0
C1148 C 0.5521 0.95543 0.01799 0.0
C1149 C 0.55765 0.91852 0.98015 0.0
C1150 C 0.54473 0.9336 0.0366 0.0
C1151 C 0.54389 0.9044 0.02726 0.0
H1152 H 0.96252 0.80553 0.6933 0.0
H1153 H 0.90453 0.79225 0.61582 0.0
H1154 H 0.86541 0.7939 0.64546 0.0
H1155 H 0.84791 0.79972 0.693 0.0
H1156 H 0.90534 0.8149 0.77076 0.0
H1157 H 0.94481 0.81228 0.74131 0.0
C1158 C 0.94128 0.80273 0.683 0.0
C1159 C 0.93626 0.79857 0.65253 0.0
C1160 C 0.919 0.80438 0.70012 0.0
C1161 C 0.90878 0.79543 0.63929 0.0
C1162 C 0.88647 0.79643 0.65617 0.0
C1163 C 0.8691 0.80256 0.70349 0.0
C1164 C 0.87392 0.8075 0.73384 0.0
C1165 C 0.89139 0.80109 0.68653 0.0
C1166 C 0.90133 0.81125 0.7473 0.0
C1167 C 0.92378 0.80959 0.73052 0.0
H1168 H 0.08915 1.00261 0.84513 0.0
H1169 H 0.16389 0.01597 0.90501 0.0
H1170 H 0.13521 0.01386 0.94618 0.0
H1171 H 0.08897 0.01152 0.96502 0.0
H1172 H 0.01446 1.00013 0.90531 0.0
H1173 H 0.0429 0.99734 0.86398 0.0
C1174 C 0.09923 1.00504 0.86719 0.0
C1175 C 0.12871 0.00979 0.87199 0.0
C1176 C 0.0826 1.0037 0.89067 0.0
C1177 C 0.14133 0.01255 0.9007 0.0
C1178 C 0.12492 0.01123 0.92422 0.0
C1179 C 0.07899 0.00754 0.94291 0.0
C1180 C 0.0497 1.00529 0.93802 0.0
C1181 C 0.09557 1.00709 0.91945 0.0
C1182 C 0.0369 1.00109 0.90946 0.0
C1183 C 0.05321 0.99995 0.88592 0.0
H1184 H 0.76864 0.31391 0.58627 0.0
H1185 H 0.72473 0.38085 0.62061 0.0
H1186 H 0.73146 0.36322 0.66947 0.0
H1187 H 0.74998 0.32801 0.70256 0.0
H1188 H 0.79338 0.26182 0.66584 0.0
H1189 H 0.78693 0.28028 0.61798 0.0
C1190 C 0.76033 0.32492 0.60421 0.0
C1191 C 0.74598 0.34888 0.59922 0.0
C1192 C 0.76444 0.3148 0.6321 0.0
C1193 C 0.73573 0.36243 0.62335 0.0
C1194 C 0.73969 0.35232 0.65142 0.0
C1195 C 0.75819 0.31779 0.6841 0.0
C1196 C 0.77228 0.2934 0.68801 0.0
C1197 C 0.75409 0.32848 0.65612 0.0
C1198 C 0.78254 0.28046 0.66369 0.0
C1199 C 0.77878 0.29101 0.6362 0.0
H1200 H 0.48698 0.08377 0.33324 0.0
H1201 H 0.40557 0.08698 0.36318 0.0
H1202 H 0.42405 0.08045 0.41268 0.0
H1203 H 0.4628 0.07259 0.44754 0.0
H1204 H 0.54437 0.06863 0.41825 0.0
H1205 H 0.52646 0.07694 0.36885 0.0
C1206 C 0.47329 0.08312 0.3506 0.0
C1207 C 0.44479 0.08583 0.34426 0.0
C1208 C 0.48413 0.07928 0.37932 0.0
C1209 C 0.4275 0.08492 0.3672 0.0
C1210 C 0.43808 0.0812 0.39564 0.0
C1211 C 0.47685 0.07373 0.43049 0.0
C1212 C 0.50506 0.06996 0.43694 0.0
C1213 C 0.46631 0.07821 0.40197 0.0
C1214 C 0.52266 0.07151 0.41423 0.0
C1215 C 0.51236 0.07617 0.38583 0.0
H1216 H 0.74115 0.71335 0.05973 0.0
H1217 H 0.78899 0.64677 0.08681 0.0
H1218 H 0.7898 0.66544 0.13778 0.0
H1219 H 0.77931 0.70292 0.17398 0.0
H1220 H 0.73292 0.76993 0.14507 0.0
H1221 H 0.72937 0.74885 0.09508 0.0
C1222 C 0.75181 0.70279 0.07668 0.0
C1223 C 0.76534 0.67897 0.06949 0.0
C1224 C 0.75259 0.71385 0.10549 0.0
C1225 C 0.77849 0.66522 0.09183 0.0
C1226 C 0.77907 0.67597 0.12089 0.0
C1227 C 0.76833 0.71271 0.15667 0.0
C1228 C 0.75652 0.73795 0.16294 0.0
C1229 C 0.7666 0.70061 0.12788 0.0
C1230 C 0.74229 0.75056 0.14058 0.0
C1231 C 0.74022 0.73853 0.11206 0.0
H1232 H 0.08149 0.98801 0.72441 0.0
H1233 H 0.1668 0.01609 0.70774 0.0
H1234 H 0.15242 0.01358 0.65533 0.0
H1235 H 0.11428 0.01002 0.6154 0.0
H1236 H 0.02908 0.98318 0.63347 0.0
H1237 H 0.04471 0.97841 0.68424 0.0
C1238 C 0.09703 0.99314 0.70925 0.0
C1239 C 0.12505 1.00269 0.71985 0.0
C1240 C 0.08853 0.99219 0.67949 0.0
C1241 C 0.14508 0.00874 0.70003 0.0
C1242 C 0.13681 0.00754 0.67013 0.0
C1243 C 0.09928 1.00266 0.63042 0.0
C1244 C 0.07056 0.99743 0.62098 0.0
C1245 C 0.10842 1.00033 0.65975 0.0
C1246 C 0.05126 0.98767 0.64042 0.0
C1247 C 0.06017 0.98495 0.66942 0.0
H1248 H 0.74238 0.33329 0.45763 0.0
H1249 H 0.71335 0.40895 0.42419 0.0
H1250 H 0.71842 0.39027 0.37436 0.0
H1251 H 0.73235 0.35248 0.33993 0.0
H1252 H 0.76444 0.27896 0.37477 0.0
H1253 H 0.7567 0.29644 0.42395 0.0
C1254 C 0.73708 0.34575 0.4395 0.0
C1255 C 0.72741 0.37258 0.4449 0.0
C1256 C 0.74046 0.33503 0.41089 0.0
C1257 C 0.72087 0.38832 0.42089 0.0
C1258 C 0.72371 0.37756 0.39229 0.0
C1259 C 0.73718 0.34009 0.35827 0.0
C1260 C 0.74854 0.31408 0.35351 0.0
C1261 C 0.73353 0.3509 0.38694 0.0
C1262 C 0.75545 0.29881 0.37769 0.0
C1263 C 0.75112 0.30888 0.4059 0.0
H1264 H 0.4569 0.03032 0.18129 0.0
H1265 H 0.46521 0.12367 0.18813 0.0
H1266 H 0.48805 0.12523 0.14267 0.0
H1267 H 0.50988 0.09986 0.10345 0.0
H1268 H 0.49865 1.00626 0.09544 0.0
H1269 H 0.47278 1.00486 0.13863 0.0
C1270 C 0.46299 0.05096 0.17234 0.0
C1271 C 0.45907 0.07686 0.1879 0.0
C1272 C 0.4761 0.0516 0.14622 0.0
C1273 C 0.46747 0.10345 0.17631 0.0
C1274 C 0.48087 0.10432 0.15049 0.0
C1275 C 0.50154 0.07919 0.11108 0.0
C1276 C 0.5066 0.05316 0.09648 0.0
C1277 C 0.48601 0.07855 0.13567 0.0
C1278 C 0.49524 0.02656 0.10631 0.0
C1279 C 0.48044 0.02576 0.13107 0.0
H1280 H 0.8091 0.71089 0.9544 0.0
H1281 H 0.79696 0.63452 0.89427 0.0
H1282 H 0.80485 0.66541 0.85373 0.0
H1283 H 0.80843 0.71433 0.83541 0.0
H1284 H 0.81609 0.78979 0.89593 0.0
H1285 H 0.81759 0.75904 0.93681 0.0
C1286 C 0.80835 0.70087 0.93245 0.0
C1287 C 0.80185 0.67051 0.92716 0.0
C1288 C 0.81243 0.71867 0.90955 0.0
C1289 C 0.80161 0.65787 0.89876 0.0
C1290 C 0.80612 0.67552 0.87567 0.0
C1291 C 0.81155 0.724 0.8576 0.0
C1292 C 0.81274 0.7542 0.86292 0.0
C1293 C 0.81073 0.70598 0.88078 0.0
C1294 C 0.81581 0.76664 0.89158 0.0
C1295 C 0.81624 0.74902 0.91482 0.0
H1296 H 0.90785 0.15228 0.011 0.0
H1297 H 0.83792 0.08327 1.00581 0.0
H1298 H 0.86933 0.04715 1.00126 0.0
H1299 H 0.91693 0.03447 0.99858 0.0
H1300 H 0.98736 0.10297 0.00896 0.0
H1301 H 0.95594 0.13939 0.01114 0.0
C1302 C 0.89949 0.12935 0.00902 0.0
C1303 C 0.87033 0.12076 0.00875 0.0
C1304 C 0.91792 0.10833 1.00689 0.0
C1305 C 0.86013 0.09078 1.00627 0.0
C1306 C 0.87815 0.06996 1.00349 0.0
C1307 C 0.92541 0.05737 1.00096 0.0
C1308 C 0.95466 0.06578 1.00253 0.0
C1309 C 0.9071 0.07838 1.00362 0.0
C1310 C 0.96508 0.09566 1.00661 0.0
C1311 C 0.94702 0.11663 0.00824 0.0
H1312 H 0.34208 0.47846 0.0532 0.0
H1313 H 0.37742 0.41486 0.10238 0.0
H1314 H 0.4236 0.44443 0.10585 0.0
H1315 H 0.45495 0.48355 0.08711 0.0
H1316 H 0.42008 0.54379 0.0328 0.0
H1317 H 0.37282 0.52073 0.03926 0.0
C1318 C 0.35972 0.4717 0.0656 0.0
C1319 C 0.35647 0.4447 0.07764 0.0
C1320 C 0.38645 0.48797 0.06599 0.0
C1321 C 0.37954 0.4357 0.09307 0.0
C1322 C 0.40596 0.45247 0.09482 0.0
C1323 C 0.43697 0.49208 0.07737 0.0
C1324 C 0.44093 0.51515 0.05933 0.0
C1325 C 0.40988 0.47793 0.08017 0.0
C1326 C 0.4175 0.52584 0.04655 0.0
C1327 C 0.39048 0.51266 0.05022 0.0
H1328 H 0.30185 0.61673 0.73278 0.0
H1329 H 0.37743 0.66907 0.77324 0.0
H1330 H 0.3519 0.7099 0.78186 0.0
H1331 H 0.30751 0.73032 0.77911 0.0
H1332 H 0.23246 0.67801 0.73785 0.0
H1333 H 0.25817 0.63757 0.72874 0.0
C1334 C 0.31284 0.63716 0.74317 0.0
C1335 C 0.34154 0.63976 0.75229 0.0
C1336 C 0.29797 0.66047 0.74837 0.0
C1337 C 0.35536 0.66643 0.76587 0.0
C1338 C 0.34073 0.68977 0.771 0.0
C1339 C 0.2968 0.71001 0.76846 0.0
C1340 C 0.26807 0.70712 0.7595 0.0
C1341 C 0.31192 0.68693 0.76272 0.0
C1342 C 0.25456 0.68075 0.74515 0.0
C1343 C 0.26927 0.65763 0.73978 0.0
H1344 H 0.23982 0.62714 0.5311 0.0
H1345 H 0.20866 0.66688 0.45573 0.0
H1346 H 0.16174 0.64108 0.45893 0.0
H1347 H 0.12878 0.60989 0.48488 0.0
H1348 H 0.1585 0.5718 0.56185 0.0
H1349 H 0.20654 0.59418 0.55644 0.0
C1350 C 0.22283 0.62965 0.51509 0.0
C1351 C 0.2278 0.64879 0.49306 0.0
C1352 C 0.19551 0.61536 0.51763 0.0
C1353 C 0.20543 0.65227 0.47282 0.0
C1354 C 0.17854 0.63761 0.47472 0.0
C1355 C 0.14579 0.60638 0.50044 0.0
C1356 C 0.14005 0.58932 0.52384 0.0
C1357 C 0.17321 0.61958 0.49735 0.0
C1358 C 0.16233 0.58494 0.54373 0.0
C1359 C 0.18982 0.59772 0.5406 0.0
H1360 H 0.71681 0.95144 0.79942 0.0
H1361 H 0.64271 0.88763 0.78376 0.0
H1362 H 0.67127 0.84851 0.78897 0.0
H1363 H 0.71817 0.83217 0.79725 0.0
H1364 H 0.79139 0.89727 0.81365 0.0
H1365 H 0.7625 0.93564 0.80955 0.0
C1366 C 0.70684 0.92899 0.79698 0.0
C1367 C 0.67755 0.92268 0.79085 0.0
C1368 C 0.72336 0.90658 0.80054 0.0
C1369 C 0.66516 0.8933 0.78826 0.0
C1370 C 0.68154 0.87084 0.79136 0.0
C1371 C 0.72771 0.85473 0.80034 0.0
C1372 C 0.75711 0.86165 0.80583 0.0
C1373 C 0.71077 0.87714 0.79755 0.0
C1374 C 0.76894 0.89114 0.80952 0.0
C1375 C 0.7524 0.91324 0.80698 0.0
H1376 H 0.72859 1.00117 0.55309 0.0
H1377 H 0.68198 0.91499 0.53415 0.0
H1378 H 0.64132 0.93525 0.51552 0.0
H1379 H 0.61854 0.97674 0.50487 0.0
H1380 H 0.66234 0.06359 0.52585 0.0
H1381 H 0.70477 0.04385 0.54263 0.0
C1382 C 0.70942 0.98694 0.54517 0.0
C1383 C 0.70838 0.95661 0.54506 0.0
C1384 C 0.68579 0.99879 0.53432 0.0
C1385 C 0.68345 0.93841 0.5345 0.0
C1386 C 0.66014 0.94993 0.52367 0.0
C1387 C 0.63748 0.99143 0.51274 0.0
C1388 C 0.63747 0.02152 0.51392 0.0
C1389 C 0.66113 0.97999 0.52331 0.0
C1390 C 0.66203 0.04028 0.52447 0.0
C1391 C 0.68614 0.02899 0.53433 0.0
H1392 H 0.37592 0.45208 0.72601 0.0
H1393 H 0.31835 0.4974 0.77037 0.0
H1394 H 0.28769 0.45144 0.77339 0.0
H1395 H 0.27948 0.39771 0.76726 0.0
H1396 H 0.33496 0.35283 0.71928 0.0
H1397 H 0.3641 0.39912 0.71357 0.0
C1398 C 0.3564 0.45188 0.73586 0.0
C1399 C 0.34946 0.47804 0.74811 0.0
C1400 C 0.33863 0.42542 0.73704 0.0
C1401 C 0.32404 0.47757 0.76063 0.0
C1402 C 0.30662 0.45127 0.76256 0.0
C1403 C 0.29772 0.39821 0.75517 0.0
C1404 C 0.30522 0.37197 0.74385 0.0
C1405 C 0.31401 0.42498 0.75142 0.0
C1406 C 0.32873 0.3728 0.72803 0.0
C1407 C 0.34547 0.39924 0.72492 0.0
H1408 H 0.13731 0.60929 0.32075 0.0
H1409 H 0.18551 0.55461 0.27328 0.0
H1410 H 0.21856 0.59684 0.26481 0.0
H1411 H 0.23338 0.64984 0.26943 0.0
H1412 H 0.18634 0.70437 0.31841 0.0
H1413 H 0.15365 0.66199 0.32775 0.0
C1414 C 0.15508 0.60664 0.30863 0.0
C1415 C 0.15874 0.57876 0.29764 0.0
C1416 C 0.17437 0.6311 0.30403 0.0
C1417 C 0.1821 0.57575 0.28216 0.0
C1418 C 0.20107 0.59994 0.27718 0.0
C1419 C 0.21607 0.65234 0.28229 0.0
C1420 C 0.21223 0.68017 0.29307 0.0
C1421 C 0.19737 0.62777 0.28783 0.0
C1422 C 0.18978 0.68313 0.30983 0.0
C1423 C 0.17098 0.6589 0.31515 0.0
H1424 H 0.56513 0.74837 0.46316 0.0
H1425 H 0.52828 0.70477 0.38105 0.0
H1426 H 0.5279 0.65757 0.40192 0.0
H1427 H 0.53206 0.62977 0.44563 0.0
H1428 H 0.56708 0.67456 0.528 0.0
H1429 H 0.57377 0.72051 0.50507 0.0
C1430 C 0.5577 0.72844 0.4496 0.0
C1431 C 0.54667 0.72992 0.42067 0.0
C1432 C 0.55649 0.7018 0.46209 0.0
C1433 C 0.53717 0.70409 0.40325 0.0
C1434 C 0.53652 0.6772 0.41537 0.0
C1435 C 0.54128 0.64961 0.45848 0.0
C1436 C 0.54865 0.64897 0.48858 0.0
C1437 C 0.54506 0.67594 0.4451 0.0
C1438 C 0.56096 0.67464 0.50492 0.0
C1439 C 0.56488 0.70085 0.49179 0.0
H1440 H 0.61455 0.32992 0.68857 0.0
H1441 H 0.57444 0.25192 0.72161 0.0
H1442 H 0.61808 0.24703 0.75043 0.0
H1443 H 0.66899 0.26292 0.76317 0.0
H1444 H 0.70777 0.34265 0.73191 0.0
H1445 H 0.66352 0.3489 0.70592 0.0
C1446 C 0.61525 0.31204 0.70237 0.0
C1447 C 0.59125 0.29119 0.7027 0.0
C1448 C 0.64034 0.30958 0.71921 0.0
C1449 C 0.59251 0.26835 0.72097 0.0
C1450 C 0.61755 0.26544 0.73735 0.0
C1451 C 0.66765 0.2819 0.75107 0.0
C1452 C 0.69193 0.30216 0.74952 0.0
C1453 C 0.64181 0.28563 0.73623 0.0
C1454 C 0.68961 0.3267 0.73376 0.0
C1455 C 0.66424 0.33025 0.71864 0.0
H1456 H 0.04741 0.41059 0.90325 0.0
H1457 H 1.01145 0.34352 0.9547 0.0
H1458 H 1.00149 0.37995 0.99077 0.0
H1459 H 1.0041 0.4311 0.00901 0.0
H1460 H 0.04038 0.49847 0.95821 0.0
H1461 H 0.04923 0.46209 0.92118 0.0
C1462 C 0.03713 0.40402 0.92219 0.0
C1463 C 0.03018 0.3743 0.92609 0.0
C1464 C 0.03177 0.42524 0.94336 0.0
C1465 C 0.01709 0.36619 0.951 0.0
C1466 C 1.01141 0.38705 0.97181 0.0
C1467 C 1.01396 0.43776 0.98985 0.0
C1468 C 0.02179 0.46744 0.9866 0.0
C1469 C 0.01891 0.41666 0.96844 0.0
C1470 C 0.03441 0.47574 0.9615 0.0
C1471 C 0.03939 0.45492 0.94017 0.0
H1472 H 0.9092 0.7684 0.1818 0.0
H1473 H 0.96688 0.76609 0.25773 0.0
H1474 H 0.92909 0.7684 0.28902 0.0
H1475 H 0.88031 0.77468 0.29541 0.0
H1476 H 0.82214 0.7763 0.21996 0.0
H1477 H 0.85917 0.77054 0.18807 0.0
C1478 C 0.91345 0.76796 0.20516 0.0
C1479 C 0.94108 0.76716 0.21728 0.0
C1480 C 0.89146 0.76941 0.22322 0.0
C1481 C 0.94599 0.76665 0.24766 0.0
C1482 C 0.92434 0.76812 0.26566 0.0
C1483 C 0.87567 0.77343 0.27195 0.0
C1484 C 0.84844 0.77593 0.26011 0.0
C1485 C 0.89712 0.77007 0.25377 0.0
C1486 C 0.84279 0.77423 0.22968 0.0
C1487 C 0.86406 0.77108 0.21143 0.0
H1488 H 0.52484 0.35954 0.04231 0.0
H1489 H 0.52067 0.39635 0.12966 0.0
H1490 H 0.52672 0.44512 0.11278 0.0
H1491 H 0.52828 0.47664 0.07263 0.0
H1492 H 0.53259 0.44073 0.98515 0.0
H1493 H 0.53151 0.39209 1.00265 0.0
C1494 C 0.52555 0.37826 0.05767 0.0
C1495 C 0.52193 0.37433 0.08711 0.0
C1496 C 0.52889 0.40629 0.04778 0.0
C1497 C 0.5232 0.39878 0.10685 0.0
C1498 C 0.5266 0.42667 0.09722 0.0
C1499 C 0.52965 0.45829 0.05749 0.0
C1500 C 0.53044 0.46215 0.02769 0.0
C1501 C 0.52879 0.43059 0.06766 0.0
C1502 C 0.53196 0.43819 0.00822 0.0
C1503 C 0.5312 0.41042 0.0182 0.0
H1504 H 0.97331 0.29569 0.37949 0.0
H1505 H 0.92249 0.27475 0.44967 0.0
H1506 H 0.88018 0.27221 0.4166 0.0
H1507 H 0.85767 0.27612 0.36824 0.0
H1508 H 0.90736 0.30025 0.29825 0.0
H1509 H 0.95033 0.30113 0.33076 0.0
C1510 C 0.95295 0.29054 0.38748 0.0
C1511 C 0.951 0.28534 0.41695 0.0
C1512 C 0.92866 0.28957 0.36843 0.0
C1513 C 0.92453 0.279 0.42713 0.0
C1514 C 0.90034 0.27742 0.40823 0.0
C1515 C 0.87792 0.2814 0.36003 0.0
C1516 C 0.87955 0.28787 0.33096 0.0
C1517 C 0.90219 0.28264 0.37892 0.0
C1518 C 0.90578 0.2951 0.32062 0.0
C1519 C 0.93024 0.29564 0.33918 0.0
H1520 H 1.00788 0.71324 0.59454 0.0
H1521 H 0.95264 0.72395 0.51941 0.0
H1522 H 0.95127 0.67265 0.5025 0.0
H1523 H 0.97183 0.62676 0.50597 0.0
H1524 H 0.03579 0.62289 0.57572 0.0
H1525 H 0.02775 0.66895 0.59812 0.0
C1526 C 0.99481 0.704 0.57498 0.0
C1527 C 0.98003 0.72181 0.55843 0.0
C1528 C 0.9962 0.67568 0.56426 0.0
C1529 C 0.96387 0.71019 0.53259 0.0
C1530 C 0.96338 0.68106 0.52281 0.0
C1531 C 0.98364 0.63608 0.52618 0.0
C1532 C 1.00396 0.6214 0.53958 0.0
C1533 C 0.98043 0.6639 0.53787 0.0
C1534 C 0.01968 0.63366 0.5654 0.0
C1535 C 0.0152 0.66006 0.57819 0.0
H1536 H 0.61861 0.76468 0.9232 0.0
H1537 H 0.55832 0.74148 0.84831 0.0
H1538 H 0.59616 0.73666 0.81733 0.0
H1539 H 0.64689 0.74498 0.81086 0.0
H1540 H 0.70596 0.77161 0.8862 0.0
H1541 H 0.66817 0.76908 0.91764 0.0
C1542 C 0.61366 0.75812 0.90018 0.0
C1543 C 0.58581 0.7538 0.888 0.0
C1544 C 0.6354 0.75637 0.88249 0.0
C1545 C 0.57971 0.74508 0.85818 0.0
C1546 C 0.60132 0.74249 0.84043 0.0
C1547 C 0.65133 0.74982 0.83419 0.0
C1548 C 0.67897 0.75881 0.84624 0.0
C1549 C 0.62932 0.74903 0.8522 0.0
C1550 C 0.6847 0.76504 0.87645 0.0
C1551 C 0.66315 0.76354 0.89447 0.0
H1552 H 0.40641 0.55244 0.66182 0.0
H1553 H 0.46735 0.61548 0.71337 0.0
H1554 H 0.49778 0.61759 0.6737 0.0
H1555 H 0.5103 0.59519 0.62723 0.0
H1556 H 0.45023 0.52877 0.57847 0.0
H1557 H 0.4165 0.53423 0.61364 0.0
C1558 C 0.4258 0.56751 0.66378 0.0
C1559 C 0.43448 0.5841 0.69014 0.0
C1560 C 0.44386 0.56729 0.64158 0.0
C1561 C 0.4601 0.60287 0.69295 0.0
C1562 C 0.47768 0.60376 0.67044 0.0
C1563 C 0.48971 0.58227 0.62428 0.0
C1564 C 0.48305 0.56109 0.60079 0.0
C1565 C 0.47038 0.58504 0.64513 0.0
C1566 C 0.45616 0.54463 0.59693 0.0
C1567 C 0.43672 0.54786 0.6169 0.0
H1568 H 0.79727 0.2457 0.95098 0.0
H1569 H 0.80813 0.16669 0.90237 0.0
H1570 H 0.7968 0.18814 0.85668 0.0
H1571 H 0.78492 0.22994 0.83022 0.0
H1572 H 0.77286 0.30843 0.87895 0.0
H1573 H 0.7831 0.28654 0.92463 0.0
C1574 C 0.79711 0.2331 0.93042 0.0
C1575 C 0.80375 0.20455 0.93029 0.0
C1576 C 0.7902 0.2455 0.90411 0.0
C1577 C 0.80318 0.18863 0.90329 0.0
C1578 C 0.79668 0.20093 0.87707 0.0
C1579 C 0.7843 0.2422 0.85084 0.0
C1580 C 0.77817 0.27094 0.85102 0.0
C1581 C 0.79027 0.22941 0.87716 0.0
C1582 C 0.77744 0.28635 0.87803 0.0
C1583 C 0.78344 0.27384 0.90423 0.0
H1584 H 0.12193 0.5001 0.19763 0.0
H1585 H 0.0399 0.46864 0.22193 0.0
H1586 H 0.01939 0.4727 0.17265 0.0
H1587 H 0.02371 0.49068 0.12424 0.0
H1588 H 0.10546 0.52252 0.09928 0.0
H1589 H 0.12688 0.51278 0.14669 0.0
C1590 C 0.09973 0.49327 0.19183 0.0
C1591 C 0.08251 0.48406 0.21353 0.0
C1592 C 0.08782 0.49634 0.16334 0.0
C1593 C 0.05365 0.4758 0.20571 0.0
C1594 C 0.04183 0.47832 0.17752 0.0
C1595 C 0.04624 0.49523 0.129 0.0
C1596 C 0.06277 0.50771 0.10816 0.0
C1597 C 0.05853 0.48954 0.15642 0.0
C1598 C 0.09204 0.51305 0.11479 0.0
C1599 C 0.10439 0.50752 0.14203 0.0
H1600 H 0.79274 0.92103 0.46786 0.0
H1601 H 0.79621 0.8438 0.51383 0.0
H1602 H 0.80233 0.81633 0.46858 0.0
H1603 H 0.80106 0.81323 0.41516 0.0
H1604 H 0.79426 0.89006 0.36943 0.0
H1605 H 0.79514 0.91889 0.41548 0.0
C1606 C 0.79527 0.8983 0.46805 0.0
C1607 C 0.79366 0.88428 0.49386 0.0
C1608 C 0.79784 0.88256 0.44199 0.0
C1609 C 0.79713 0.85491 0.494 0.0
C1610 C 0.80052 0.8392 0.46818 0.0
C1611 C 0.80011 0.83634 0.41545 0.0
C1612 C 0.79727 0.84958 0.38925 0.0
C1613 C 0.79998 0.8526 0.44192 0.0
C1614 C 0.79613 0.87948 0.38954 0.0
C1615 C 0.79667 0.89595 0.41578 0.0
H1616 H 0.44166 0.55223 0.81713 0.0
H1617 H 0.36502 0.56596 0.85317 0.0
H1618 H 0.38637 0.56024 0.90214 0.0
H1619 H 0.42785 0.55321 0.93467 0.0
H1620 H 0.50401 0.54017 0.89713 0.0
H1621 H 0.48179 0.54397 0.84859 0.0
C1622 C 0.42948 0.55382 0.83563 0.0
C1623 C 0.40188 0.55962 0.83164 0.0
C1624 C 0.44191 0.55088 0.86341 0.0
C1625 C 0.38635 0.56148 0.85579 0.0
C1626 C 0.39858 0.55834 0.88374 0.0
C1627 C 0.43946 0.55123 0.91579 0.0
C1628 C 0.4675 0.54658 0.91932 0.0
C1629 C 0.4265 0.5534 0.88782 0.0
C1630 C 0.48241 0.54385 0.89485 0.0
C1631 C 0.46974 0.54597 0.86711 0.0
H1632 H 0.81151 0.26593 0.08451 0.0
H1633 H 0.8235 0.17859 0.10211 0.0
H1634 H 0.82047 0.19062 0.15429 0.0
H1635 H 0.81 0.22537 0.19449 0.0
H1636 H 0.79359 0.31047 0.17353 0.0
H1637 H 0.80275 0.2999 0.12319 0.0
C1638 C 0.81372 0.24933 0.09956 0.0
C1639 C 0.81759 0.22119 0.08895 0.0
C1640 C 0.81096 0.2561 0.12914 0.0
C1641 C 0.82062 0.20042 0.10934 0.0
C1642 C 0.81868 0.20729 0.13925 0.0
C1643 C 0.80888 0.24165 0.17891 0.0
C1644 C 0.80131 0.26886 0.18781 0.0
C1645 C 0.81322 0.23494 0.14937 0.0
C1646 C 0.79947 0.28953 0.16729 0.0
C1647 C 0.80465 0.28345 0.13847 0.0
H1648 H 0.11625 0.53728 0.37779 0.0
H1649 H 0.08678 0.44539 0.36549 0.0
H1650 H 0.05769 0.44902 0.40589 0.0
H1651 H 0.0377 0.47871 0.44213 0.0
H1652 H 0.06602 0.57079 0.45495 0.0
H1653 H 0.09846 0.56685 0.41736 0.0
C1654 C 0.10395 0.51802 0.38451 0.0
C1655 C 0.10403 0.49094 0.36899 0.0
C1656 C 0.08675 0.52042 0.40763 0.0
C1657 C 0.08742 0.46631 0.37738 0.0
C1658 C 0.0706 0.46844 0.40034 0.0
C1659 C 0.0511 0.49794 0.43686 0.0
C1660 C 0.04941 0.52505 0.45145 0.0
C1661 C 0.06961 0.49544 0.4152 0.0
C1662 C 0.06708 0.54964 0.44439 0.0
C1663 C 0.08553 0.54738 0.42271 0.0
H1664 H 0.72638 0.83286 0.61588 0.0
H1665 H 0.76123 0.91766 0.65615 0.0
H1666 H 0.75399 0.90063 0.70426 0.0
H1667 H 0.74985 0.85859 0.73395 0.0
H1668 H 0.71871 0.77312 0.69342 0.0
H1669 H 0.71183 0.7933 0.64614 0.0
C1670 C 0.73148 0.84782 0.6352 0.0
C1671 C 0.74504 0.87612 0.63282 0.0
C1672 C 0.72833 0.83753 0.66262 0.0
C1673 C 0.75102 0.89566 0.65765 0.0
C1674 C 0.74717 0.88584 0.68513 0.0
C1675 C 0.74051 0.84471 0.71485 0.0
C1676 C 0.73501 0.81459 0.71658 0.0
C1677 C 0.73767 0.85636 0.68783 0.0
C1678 C 0.72296 0.79642 0.69218 0.0
C1679 C 0.71931 0.80793 0.66524 0.0
H1680 H 0.68838 0.48056 0.55321 0.0
H1681 H 0.6309 0.40243 0.52612 0.0
H1682 H 0.59145 0.42993 0.52725 0.0
H1683 H 0.57299 0.47733 0.53366 0.0
H1684 H 0.63165 0.55509 0.55913 0.0
H1685 H 0.67023 0.52684 0.56111 0.0
C1686 C 0.66723 0.46936 0.54785 0.0
C1687 C 0.66294 0.43919 0.5397 0.0
C1688 C 0.64451 0.48548 0.54815 0.0
C1689 C 0.63514 0.42547 0.53261 0.0
C1690 C 0.61244 0.4413 0.53317 0.0
C1691 C 0.59416 0.48803 0.53996 0.0
C1692 C 0.59915 0.51857 0.5463 0.0
C1693 C 0.61678 0.47147 0.5406 0.0
C1694 C 0.62693 0.5318 0.55418 0.0
C1695 C 0.64918 0.51559 0.55524 0.0
H1696 H 0.2032 0.08517 0.47448 0.0
H1697 H 0.16699 0.14998 0.42743 0.0
H1698 H 0.12012 0.12609 0.43441 0.0
H1699 H 0.08979 0.0899 0.45833 0.0
H1700 H 0.12673 0.02708 0.50768 0.0
H1701 H 0.17298 0.04729 0.49538 0.0
C1702 C 0.18512 0.09386 0.4652 0.0
C1703 C 0.18873 0.11951 0.45061 0.0
C1704 C 0.15832 0.08062 0.47012 0.0
C1705 C 0.16491 0.13034 0.43884 0.0
C1706 C 0.13807 0.11678 0.44298 0.0
C1707 C 0.10791 0.0804 0.46612 0.0
C1708 C 0.10479 0.05713 0.4841 0.0
C1709 C 0.13458 0.09242 0.45934 0.0
C1710 C 0.12852 0.04515 0.49405 0.0
C1711 C 0.155 0.05665 0.48696 0.0
H1712 H 0.18106 0.91891 0.77895 0.0
H1713 H 0.2527 0.98144 0.81207 0.0
H1714 H 0.28334 0.94443 0.80678 0.0
H1715 H 0.28975 0.89383 0.79294 0.0
H1716 H 0.21845 0.83279 0.75711 0.0
H1717 H 0.18785 0.86929 0.76278 0.0
C1718 C 0.20337 0.92437 0.78504 0.0
C1719 C 0.21457 0.95277 0.79606 0.0
C1720 C 0.22099 0.9032 0.78118 0.0
C1721 C 0.24358 0.95969 0.8035 0.0
C1722 C 0.26112 0.93853 0.80051 0.0
C1723 C 0.26754 0.88867 0.78618 0.0
C1724 C 0.25639 0.86051 0.77418 0.0
C1725 C 0.25008 0.91017 0.78935 0.0
C1726 C 0.22764 0.85425 0.76557 0.0
C1727 C 0.21005 0.87516 0.76921 0.0
H1728 H 0.34208 0.89233 0.0309 0.0
H1729 H 0.29581 0.95582 0.99429 0.0
H1730 H 0.33937 0.98922 0.99267 0.0
H1731 H 0.3911 1.00026 1.00153 0.0
H1732 H 0.43628 0.93834 0.04284 0.0
H1733 H 0.39296 0.90461 0.04287 0.0
C1734 C 0.34162 0.91347 0.02252 0.0
C1735 C 0.31588 0.92152 0.01246 0.0
C1736 C 0.36662 0.9329 0.02258 0.0
C1737 C 0.31544 0.94917 1.00215 0.0
C1738 C 0.34033 0.96824 1.00118 0.0
C1739 C 0.39133 0.97941 0.01058 0.0
C1740 C 0.41683 0.97171 0.02201 0.0
C1741 C 0.3661 0.96036 0.01132 0.0
C1742 C 0.41688 0.94478 0.03398 0.0
C1743 C 0.39213 0.92542 0.03393 0.0
H1744 H 0.89134 0.67807 0.76393 0.0
H1745 H 0.83203 0.60022 0.76684 0.0
H1746 H 0.79456 0.62889 0.77155 0.0
H1747 H 0.77786 0.67603 0.77638 0.0
H1748 H 0.83499 0.75414 0.77034 0.0
H1749 H 0.87337 0.72597 0.76512 0.0
C1750 C 0.8702 0.66742 0.76536 0.0
C1751 C 0.86488 0.6368 0.76504 0.0
C1752 C 0.84803 0.68422 0.76754 0.0
C1753 C 0.83712 0.62359 0.76685 0.0
C1754 C 0.81544 0.64002 0.76968 0.0
C1755 C 0.79867 0.68689 0.77368 0.0
C1756 C 0.80339 0.71735 0.77365 0.0
C1757 C 0.82058 0.67033 0.77025 0.0
C1758 C 0.83055 0.73087 0.77003 0.0
C1759 C 0.85264 0.71464 0.76728 0.0
H1760 H 0.85982 0.6227 0.05022 0.0
H1761 H 0.81404 0.54726 0.99988 0.0
H1762 H 0.8513 0.51899 0.01321 0.0
H1763 H 0.89962 0.51803 0.03371 0.0
H1764 H 0.9445 0.5929 0.0857 0.0
H1765 H 0.9046 0.61892 0.07795 0.0
C1766 C 0.85794 0.59997 0.04255 0.0
C1767 C 0.8347 0.58713 0.02369 0.0
C1768 C 0.8792 0.5838 0.05063 0.0
C1769 C 0.83198 0.55755 0.01429 0.0
C1770 C 0.85326 0.54142 0.02184 0.0
C1771 C 0.90029 0.53972 0.044 0.0
C1772 C 0.92501 0.55382 0.05971 0.0
C1773 C 0.87734 0.55459 0.03927 0.0
C1774 C 0.92568 0.58178 0.07324 0.0
C1775 C 0.90297 0.59675 0.06863 0.0
H1776 H 0.16201 0.1347 0.82584 0.0
H1777 H 0.21572 0.08443 0.78096 0.0
H1778 H 0.2431 0.12883 0.76792 0.0
H1779 H 0.25088 0.18224 0.76736 0.0
H1780 H 0.19997 0.23285 0.81557 0.0
H1781 H 0.17249 0.18835 0.82904 0.0
C1782 C 0.17987 0.1335 0.81347 0.0
C1783 C 0.18666 0.10617 0.80437 0.0
C1784 C 0.19595 0.15928 0.80636 0.0
C1785 C 0.21005 0.10509 0.78849 0.0
C1786 C 0.22567 0.13052 0.7808 0.0
C1787 C 0.23378 0.18341 0.78084 0.0
C1788 C 0.22725 0.21067 0.79024 0.0
C1789 C 0.21863 0.15774 0.78926 0.0
C1790 C 0.20536 0.21203 0.80809 0.0
C1791 C 0.18962 0.18661 0.81577 0.0
H1792 H 0.35957 0.00922 0.28414 0.0
H1793 H 0.42936 0.96828 0.25961 0.0
H1794 H 0.4008 0.92056 0.25748 0.0
H1795 H 0.35637 0.89019 0.26353 0.0
H1796 H 0.28753 0.93006 0.29215 0.0
H1797 H 0.31514 0.97836 0.29172 0.0
C1798 C 0.36841 0.98982 0.27819 0.0
C1799 C 0.39653 0.99232 0.27192 0.0
C1800 C 0.35203 0.96225 0.2778 0.0
C1801 C 0.40783 0.96697 0.26464 0.0
C1802 C 0.39149 0.93966 0.26336 0.0
C1803 C 0.34737 0.90948 0.26951 0.0
C1804 C 0.3199 0.90665 0.27763 0.0
C1805 C 0.36363 0.93701 0.27002 0.0
C1806 C 0.30863 0.93175 0.28576 0.0
C1807 C 0.32442 0.95934 0.28551 0.0
H1808 H 0.49482 0.32869 0.59867 0.0
H1809 H 0.51525 0.37716 0.68222 0.0
H1810 H 0.51796 0.42284 0.65828 0.0
H1811 H 0.5149 0.44875 0.61332 0.0
H1812 H 0.49176 0.39978 0.53035 0.0
H1813 H 0.48963 0.35433 0.55436 0.0
C1814 C 0.49995 0.34925 0.6117 0.0
C1815 C 0.50512 0.34958 0.64219 0.0
C1816 C 0.5009 0.37523 0.59785 0.0
C1817 C 0.51127 0.37636 0.65875 0.0
C1818 C 0.51283 0.40243 0.64504 0.0
C1819 C 0.50934 0.42809 0.60054 0.0
C1820 C 0.50362 0.42752 0.57008 0.0
C1821 C 0.50774 0.4021 0.61459 0.0
C1822 C 0.49621 0.40071 0.55378 0.0
C1823 C 0.49506 0.37477 0.56751 0.0
H1824 H 0.42942 0.75934 0.36499 0.0
H1825 H 0.46709 0.83362 0.32418 0.0
H1826 H 0.42363 0.83303 0.29262 0.0
H1827 H 0.37338 0.81368 0.27968 0.0
H1828 H 0.33732 0.73709 0.31842 0.0
H1829 H 0.38159 0.73595 0.34719 0.0
C1830 C 0.42819 0.77512 0.34887 0.0
C1831 C 0.45133 0.79666 0.34706 0.0
C1832 C 0.40336 0.7742 0.33038 0.0
C1833 C 0.44959 0.81681 0.32592 0.0
C1834 C 0.42469 0.81653 0.30797 0.0
C1835 C 0.37541 0.79637 0.29393 0.0
C1836 C 0.35189 0.77551 0.29678 0.0
C1837 C 0.40122 0.79564 0.31037 0.0
C1838 C 0.35499 0.75325 0.31542 0.0
C1839 C 0.38031 0.75273 0.33217 0.0
H1840 H 0.06075 0.70915 0.12294 0.0
H1841 H 0.97171 0.68898 0.12557 0.0
H1842 H 0.97206 0.6411 0.10007 0.0
H1843 H 0.99748 0.60779 0.07145 0.0
H1844 H 0.08645 0.63 0.06853 0.0
H1845 H 0.08644 0.67432 0.09945 0.0
C1846 C 0.04153 0.69387 0.11867 0.0
C1847 C 0.01629 0.7024 0.12631 0.0
C1848 C 0.0419 0.66694 0.10343 0.0
C1849 C 0.99147 0.68266 0.1204 0.0
C1850 C 0.99167 0.65544 0.10545 0.0
C1851 C 0.0169 0.62185 0.07832 0.0
C1852 C 0.04197 0.61544 0.0678 0.0
C1853 C 0.01669 0.64768 0.09606 0.0
C1854 C 0.06688 0.6345 0.07614 0.0
C1855 C 0.06691 0.65983 0.09391 0.0
H1856 H 0.09879 0.31352 0.80056 0.0
H1857 H 0.14249 0.3157 0.88597 0.0
H1858 H 0.18639 0.31205 0.86415 0.0
H1859 H 0.21228 0.30596 0.81984 0.0
H1860 H 0.16691 0.30491 0.73521 0.0
H1861 H 0.12436 0.31054 0.75755 0.0
C1862 C 0.11791 0.31334 0.8145 0.0
C1863 C 0.11714 0.31475 0.8449 0.0
C1864 C 0.14307 0.3114 0.80182 0.0
C1865 C 0.14233 0.31468 0.86248 0.0
C1866 C 0.16751 0.31252 0.84998 0.0
C1867 C 0.19315 0.30735 0.80641 0.0
C1868 C 0.19295 0.3049 0.77576 0.0
C1869 C 0.16818 0.31059 0.81955 0.0
C1870 C 0.16783 0.3066 0.75877 0.0
C1871 C 0.14332 0.30979 0.77153 0.0
H1872 H 0.51722 0.72253 0.02984 0.0
H1873 H 0.51085 0.68864 0.94001 0.0
H1874 H 0.51045 0.63939 0.95541 0.0
H1875 H 0.51381 0.60626 0.99467 0.0
H1876 H 0.5237 0.64132 0.0842 0.0
H1877 H 0.52022 0.6898 0.06863 0.0
C1878 C 0.51552 0.70439 0.01356 0.0
C1879 C 0.51405 0.7093 0.98382 0.0
C1880 C 0.51584 0.67632 0.02254 0.0
C1881 C 0.51213 0.6855 0.96307 0.0
C1882 C 0.51184 0.65733 0.97185 0.0
C1883 C 0.51505 0.62452 0.0107 0.0
C1884 C 0.51909 0.62038 0.0405 0.0
C1885 C 0.51396 0.65252 1.00155 0.0
C1886 C 0.52064 0.64411 0.06112 0.0
C1887 C 0.51874 0.67181 0.05224 0.0
H1888 H 0.06501 0.78992 0.6615 0.0
H1889 H 0.1146 0.81824 0.59249 0.0
H1890 H 0.15737 0.81638 0.62384 0.0
H1891 H 0.18059 0.80605 0.67045 0.0
H1892 H 0.13119 0.7764 0.73891 0.0
H1893 H 0.08821 0.77964 0.70809 0.0
C1894 C 0.08514 0.7958 0.65325 0.0
C1895 C 0.08653 0.80423 0.6246 0.0
C1896 C 0.10961 0.79447 0.67129 0.0
C1897 C 0.11287 0.81159 0.61436 0.0
C1898 C 0.13734 0.81058 0.63229 0.0
C1899 C 0.16039 0.80042 0.67866 0.0
C1900 C 0.15892 0.79105 0.70686 0.0
C1901 C 0.13593 0.80197 0.66073 0.0
C1902 C 0.13273 0.78368 0.71725 0.0
C1903 C 0.10823 0.7855 0.69964 0.0
H1904 H 0.07335 0.37626 0.45581 0.0
H1905 H 1.00866 0.33429 0.50367 0.0
H1906 H 1.00439 0.3807 0.5291 0.0
H1907 H 0.01729 0.4336 0.5356 0.0
H1908 H 0.08404 0.47521 0.48991 0.0
H1909 H 0.08976 0.42853 0.46627 0.0
C1910 C 0.05837 0.37743 0.47183 0.0
C1911 C 0.04103 0.35225 0.47763 0.0
C1912 C 0.05663 0.40399 0.48696 0.0
C1913 C 0.02209 0.35359 0.4988 0.0
C1914 C 0.01967 0.38006 0.51337 0.0
C1915 C 0.03343 0.43231 0.5209 0.0
C1916 C 0.05006 0.4577 0.51438 0.0
C1917 C 0.03666 0.40543 0.50742 0.0
C1918 C 0.07108 0.45586 0.49547 0.0
C1919 C 0.07419 0.42923 0.48168 0.0
H1920 H 0.41985 0.31134 0.12929 0.0
H1921 H 0.4655 0.26203 0.18729 0.0
H1922 H 0.42835 0.26025 0.22004 0.0
H1923 H 0.38287 0.2732 0.23225 0.0
H1924 H 0.33798 0.32285 0.17393 0.0
H1925 H 0.37511 0.32447 0.14146 0.0
C1926 C 0.42157 0.29998 0.14896 0.0
C1927 C 0.44523 0.28671 0.15581 0.0
C1928 C 0.40047 0.29947 0.16782 0.0
C1929 C 0.44737 0.27236 0.18155 0.0
C1930 C 0.42622 0.27144 0.20032 0.0
C1931 C 0.38146 0.28457 0.21257 0.0
C1932 C 0.35793 0.29798 0.20544 0.0
C1933 C 0.40276 0.28511 0.19378 0.0
C1934 C 0.35603 0.31243 0.1798 0.0
C1935 C 0.37715 0.31326 0.16118 0.0
H1936 H 0.60138 0.52218 0.36081 0.0
H1937 H 0.66998 0.50186 0.41766 0.0
H1938 H 0.64033 0.4999 0.45825 0.0
H1939 H 0.59489 0.5053 0.4776 0.0
H1940 H 0.5282 0.52901 0.42065 0.0
H1941 H 0.55694 0.52772 0.37971 0.0
C1942 C 0.60999 0.51735 0.38207 0.0
C1943 C 0.63793 0.51224 0.3862 0.0
C1944 C 0.59296 0.51646 0.4051 0.0
C1945 C 0.64864 0.50609 0.41395 0.0
C1946 C 0.63162 0.5048 0.43708 0.0
C1947 C 0.58656 0.50949 0.45602 0.0
C1948 C 0.55927 0.51649 0.45176 0.0
C1949 C 0.60371 0.50993 0.43288 0.0
C1950 C 0.54893 0.52299 0.42411 0.0
C1951 C 0.56544 0.52251 0.40085 0.0
H1952 H 0.26205 0.81268 0.0904 0.0
H1953 H 0.22485 0.88645 0.12055 0.0
H1954 H 0.22941 0.87104 0.17056 0.0
H1955 H 0.24294 0.8348 0.20582 0.0
H1956 H 0.27837 0.76111 0.17232 0.0
H1957 H 0.27594 0.77863 0.12392 0.0
C1958 C 0.2548 0.82569 0.10767 0.0
C1959 C 0.24288 0.8508 0.10115 0.0
C1960 C 0.25749 0.81671 0.13616 0.0
C1961 C 0.234 0.86702 0.12448 0.0
C1962 C 0.23669 0.85818 0.15322 0.0
C1963 C 0.25056 0.82295 0.18798 0.0
C1964 C 0.26119 0.79667 0.19295 0.0
C1965 C 0.24836 0.8329 0.15941 0.0
C1966 C 0.27034 0.78136 0.16934 0.0
C1967 C 0.26882 0.79132 0.14151 0.0
H1968 H 0.9256 0.5898 0.87336 0.0
H1969 H 0.99616 0.5767 0.82594 0.0
H1970 H 0.0232 0.56922 0.87104 0.0
H1971 H 0.02667 0.56468 0.92416 0.0
H1972 H 0.95625 0.57851 0.97166 0.0
H1973 H 0.92986 0.58756 0.92683 0.0
C1974 C 0.94692 0.5854 0.8729 0.0
C1975 C 0.95863 0.58368 0.84607 0.0
C1976 C 0.96261 0.58125 0.89915 0.0
C1977 C 0.98641 0.57809 0.8461 0.0
C1978 C 1.002 0.5738 0.87199 0.0
C1979 C 1.00568 0.57 0.92482 0.0
C1980 C 0.99367 0.57079 0.95155 0.0
C1981 C 0.99032 0.57514 0.8987 0.0
C1982 C 0.96627 0.57764 0.95163 0.0
C1983 C 0.95099 0.58278 0.92587 0.0
H1984 H 0.25094 0.22976 0.54312 0.0
H1985 H 0.27886 0.15091 0.5704 0.0
H1986 H 0.27883 0.16856 0.62143 0.0
H1987 H 0.27139 0.20695 0.65815 0.0
H1988 H 0.24366 0.28533 0.62963 0.0
H1989 H 0.24324 0.2672 0.57894 0.0
C1990 C 0.25708 0.21629 0.56011 0.0
C1991 C 0.26498 0.18907 0.55289 0.0
C1992 C 0.2571 0.22653 0.58914 0.0
C1993 C 0.27265 0.17196 0.57533 0.0
C1994 C 0.2727 0.18205 0.6045 0.0
C1995 C 0.26525 0.21995 0.64075 0.0
C1996 C 0.25759 0.24737 0.64741 0.0
C1997 C 0.26505 0.20937 0.61162 0.0
C1998 C 0.24965 0.26414 0.62489 0.0
C1999 C 0.2494 0.25381 0.59596 0.0
H2000 H 0.58678 0.49716 0.24205 0.0
H2001 H 0.67125 0.52057 0.2203 0.0
H2002 H 0.65387 0.5214 0.16886 0.0
H2003 H 0.61363 0.52279 0.1318 0.0
H2004 H 0.52967 0.50382 0.15662 0.0
H2005 H 0.54776 0.49388 0.20514 0.0
C2006 C 0.60149 0.50205 0.226 0.0
C2007 C 0.63017 0.50931 0.23496 0.0
C2008 C 0.5913 0.50366 0.19708 0.0
C2009 C 0.64904 0.51497 0.21389 0.0
C2010 C 0.63905 0.51573 0.18457 0.0
C2011 C 0.59945 0.51597 0.14779 0.0
C2012 C 0.57042 0.51434 0.14098 0.0
C2013 C 0.61011 0.51126 0.17613 0.0
C2014 C 0.5521 0.50558 0.16166 0.0
C2015 C 0.56241 0.49986 0.18934 0.0
H2016 H 0.23728 0.82876 0.95658 0.0
H2017 H 0.20945 0.90531 0.92386 0.0
H2018 H 0.21238 0.88608 0.87383 0.0
H2019 H 0.22449 0.84791 0.83884 0.0
H2020 H 0.2557 0.77338 0.87237 0.0
H2021 H 0.24958 0.79108 0.92201 0.0
C2022 C 0.23171 0.84121 0.93853 0.0
C2023 C 0.22305 0.86852 0.94424 0.0
C2024 C 0.23395 0.83021 0.90966 0.0
C2025 C 0.21621 0.88431 0.92035 0.0
C2026 C 0.21783 0.87326 0.8916 0.0
C2027 C 0.22944 0.83532 0.857 0.0
C2028 C 0.2401 0.809 0.85171 0.0
C2029 C 0.22679 0.84624 0.88589 0.0
C2030 C 0.24721 0.79349 0.87568 0.0
C2031 C 0.24382 0.80369 0.90416 0.0
H2032 H 0.94911 0.52661 0.67934 0.0
H2033 H 0.96765 0.61972 0.69387 0.0
H2034 H 0.99251 0.62182 0.64988 0.0
H2035 H 1.01409 0.59645 0.61103 0.0
H2036 H 0.99264 0.50378 0.59377 0.0
H2037 H 0.96403 0.50205 0.63511 0.0
C2038 C 0.95761 0.54746 0.67218 0.0
C2039 C 0.956 0.57308 0.68967 0.0
C2040 C 0.97204 0.54842 0.6468 0.0
C2041 C 0.96785 0.59981 0.6805 0.0
C2042 C 0.98251 0.60093 0.65556 0.0
C2043 C 1.00274 0.57594 0.61586 0.0
C2044 C 1.00582 0.55022 0.59932 0.0
C2045 C 0.98556 0.57529 0.63911 0.0
C2046 C 0.99082 0.52386 0.6061 0.0
C2047 C 0.97443 0.52289 0.62979 0.0
H2048 H 0.30688 0.21197 0.43233 0.0
H2049 H 0.2894 0.13094 0.37903 0.0
H2050 H 0.29476 0.15741 0.33513 0.0
H2051 H 0.29692 0.20398 0.31231 0.0
H2052 H 0.30976 0.2844 0.36625 0.0
H2053 H 0.31465 0.25782 0.40993 0.0
C2054 C 0.30449 0.20001 0.41112 0.0
C2055 C 0.29712 0.16965 0.40872 0.0
C2056 C 0.30706 0.21533 0.3863 0.0
C2057 C 0.29475 0.15437 0.38127 0.0
C2058 C 0.2978 0.16949 0.35627 0.0
C2059 C 0.30194 0.2156 0.33362 0.0
C2060 C 0.30351 0.24597 0.3364 0.0
C2061 C 0.30302 0.20003 0.35852 0.0
C2062 C 0.30911 0.26104 0.3639 0.0
C2063 C 0.31146 0.24582 0.38875 0.0
H2064 H 0.36041 0.58955 0.49591 0.0
H2065 H 0.41493 0.66976 0.52253 0.0
H2066 H 0.45556 0.64386 0.52409 0.0
H2067 H 0.47614 0.59789 0.51822 0.0
H2068 H 0.42164 0.51851 0.48801 0.0
H2069 H 0.38115 0.54433 0.48733 0.0
C2070 C 0.38115 0.6014 0.50221 0.0
C2071 C 0.38427 0.63176 0.50946 0.0
C2072 C 0.40475 0.58637 0.50221 0.0
C2073 C 0.4116 0.64654 0.51698 0.0
C2074 C 0.43498 0.63165 0.51784 0.0
C2075 C 0.45544 0.58627 0.51121 0.0
C2076 C 0.45227 0.55602 0.50314 0.0
C2077 C 0.43193 0.60152 0.51047 0.0
C2078 C 0.42506 0.54162 0.4942 0.0
C2079 C 0.40172 0.55644 0.49394 0.0
H2080 H 0.84826 0.97201 0.54956 0.0
H2081 H 0.88462 0.91218 0.60315 0.0
H2082 H 0.93159 0.93515 0.59517 0.0
H2083 H 0.96197 0.96832 0.56816 0.0
H2084 H 0.92498 0.02573 0.51178 0.0
H2085 H 0.87875 0.00757 0.52551 0.0
C2086 C 0.86649 0.96463 0.56021 0.0
C2087 C 0.86305 0.9406 0.57702 0.0
C2088 C 0.89335 0.97706 0.55445 0.0
C2089 C 0.88682 0.93076 0.59019 0.0
C2090 C 0.91365 0.94372 0.58543 0.0
C2091 C 0.94383 0.97708 0.55913 0.0
C2092 C 0.94695 0.99812 0.53873 0.0
C2093 C 0.91714 0.96622 0.56678 0.0
C2094 C 0.9232 0.00923 0.52723 0.0
C2095 C 0.89671 0.99896 0.53516 0.0
H2096 H 0.85636 0.15264 0.27404 0.0
H2097 H 0.8104 0.11536 0.19331 0.0
H2098 H 0.77932 0.15242 0.19591 0.0
H2099 H 0.76414 0.19422 0.22233 0.0
H2100 H 0.80688 0.22765 0.30569 0.0
H2101 H 0.84033 0.19341 0.30109 0.0
C2102 C 0.83979 0.15295 0.2568 0.0
C2103 C 0.83588 0.13163 0.23327 0.0
C2104 C 0.82132 0.17348 0.25914 0.0
C2105 C 0.8139 0.13173 0.21148 0.0
C2106 C 0.79607 0.15279 0.21307 0.0
C2107 C 0.78072 0.19392 0.23953 0.0
C2108 C 0.7836 0.21408 0.26402 0.0
C2109 C 0.79932 0.1735 0.23704 0.0
C2110 C 0.805 0.21324 0.28619 0.0
C2111 C 0.82391 0.19341 0.28365 0.0
H2112 H 0.73671 0.12744 0.02521 0.0
H2113 H 0.70259 0.18697 0.96929 0.0
H2114 H 0.65546 0.16184 0.97248 0.0
H2115 H 0.6236 0.12393 0.99216 0.0
H2116 H 0.65684 0.06525 0.04948 0.0
H2117 H 0.70453 0.08901 0.04481 0.0
C2118 C 0.71899 0.13473 0.0135 0.0
C2119 C 0.7233 0.1591 0.99699 0.0
C2120 C 0.69172 0.12045 0.01586 0.0
C2121 C 0.69998 0.1684 0.98224 0.0
C2122 C 0.67296 0.15403 0.98405 0.0
C2123 C 0.6413 0.11632 1.00362 0.0
C2124 C 0.63673 0.09292 0.02119 0.0
C2125 C 0.66854 0.13024 1.00101 0.0
C2126 C 0.65984 0.0833 0.0359 0.0
C2127 C 0.68709 0.09686 0.03318 0.0
H2128 H 0.16062 0.39277 0.30678 0.0
H2129 H 0.20278 0.45329 0.25239 0.0
H2130 H 0.23722 0.42126 0.24463 0.0
H2131 H 0.25669 0.37698 0.25394 0.0
H2132 H 0.21631 0.3156 0.3082 0.0
H2133 H 0.18034 0.34676 0.31553 0.0
C2134 C 0.17715 0.39871 0.29297 0.0
C2135 C 0.17894 0.42558 0.28021 0.0
C2136 C 0.19753 0.38011 0.2888 0.0
C2137 C 0.20078 0.43295 0.26263 0.0
C2138 C 0.22065 0.41462 0.25818 0.0
C2139 C 0.24008 0.37039 0.26749 0.0
C2140 C 0.23918 0.34377 0.28034 0.0
C2141 C 0.21949 0.38838 0.27141 0.0
C2142 C 0.21743 0.33573 0.29779 0.0
C2143 C 0.19682 0.35364 0.30197 0.0
H2144 H 0.22249 0.49306 0.04943 0.0
H2145 H 0.17582 0.40852 0.02196 0.0
H2146 H 0.13559 0.43081 1.00479 0.0
H2147 H 0.11353 0.47391 0.9978 0.0
H2148 H 0.15886 0.55886 0.02563 0.0
H2149 H 0.20016 0.53696 0.04152 0.0
C2150 C 0.20334 0.47958 0.0401 0.0
C2151 C 0.20198 0.44917 0.03729 0.0
C2152 C 0.18036 0.49263 0.02968 0.0
C2153 C 0.17728 0.43195 0.02457 0.0
C2154 C 0.15435 0.44468 0.01453 0.0
C2155 C 0.1326 0.48771 1.00691 0.0
C2156 C 0.13326 0.51794 0.0104 0.0
C2157 C 0.15573 0.47495 0.01679 0.0
C2158 C 0.158 0.53553 0.02242 0.0
C2159 C 0.18146 0.52298 0.03184 0.0
H2160 H 0.87849 0.94779 0.2235 0.0
H2161 H 0.82221 0.99529 0.26745 0.0
H2162 H 0.79238 0.94978 0.27422 0.0
H2163 H 0.7846 0.89611 0.27133 0.0
H2164 H 0.83847 0.84869 0.22373 0.0
H2165 H 0.86679 0.89437 0.21435 0.0
C2166 C 0.85944 0.94811 0.23414 0.0
C2167 C 0.85262 0.97478 0.24517 0.0
C2168 C 0.84206 0.92187 0.23737 0.0
C2169 C 0.8278 0.97502 0.25868 0.0
C2170 C 0.81084 0.949 0.2627 0.0
C2171 C 0.80226 0.8959 0.25846 0.0
C2172 C 0.80958 0.86919 0.2483 0.0
C2173 C 0.81807 0.92226 0.25268 0.0
C2174 C 0.83236 0.86906 0.23154 0.0
C2175 C 0.84866 0.89515 0.22637 0.0
H2176 H 0.68298 0.06536 0.7692 0.0
H2177 H 0.62935 0.10443 0.82489 0.0
H2178 H 0.65671 0.15217 0.82205 0.0
H2179 H 0.69464 0.18336 0.80207 0.0
H2180 H 0.74663 0.14513 0.74398 0.0
H2181 H 0.72127 0.09672 0.74934 0.0
C2182 C 0.67753 0.08427 0.78103 0.0
C2183 C 0.65419 0.08121 0.7974 0.0
C2184 C 0.69294 0.11192 0.77862 0.0
C2185 C 0.64716 0.10609 0.81215 0.0
C2186 C 0.66279 0.13345 0.81049 0.0
C2187 C 0.70048 0.16441 0.79066 0.0
C2188 C 0.72249 0.16784 0.77263 0.0
C2189 C 0.68549 0.13671 0.7935 0.0
C2190 C 0.72972 0.14309 0.75791 0.0
C2191 C 0.71524 0.11539 0.76102 0.0
loop_
_geom_bond_atom_site_label_1
_geom_bond_atom_site_label_2
_geom_bond_distance
_geom_bond_site_symmetry_2
_ccdc_geom_bond_type
Co0 O1 2.216 . S
Co0 O2 2.091 . S
Co0 O4 2.004 1_455 S
Co0 O10 2.021 . S
Co0 O12 2.137 . S
Co0 O13 2.244 . S
O1 Co0 2.216 . S
O1 C8 1.247 . S
O2 Co0 2.091 . S
O2 C8 1.261 . S
C3 O12 1.247 . S
C3 O13 1.272 . S
O4 Co0 2.004 1_655 S
O4 C9 1.259 . S
Co5 O6 2.061 . S
Co5 O11 2.028 1_655 S
Co5 O13 2.135 1_655 S
O6 Co5 2.061 . S
O6 C9 1.235 . S
C7 O10 1.238 . S
C7 O11 1.262 . S
C8 O1 1.247 . S
C8 O2 1.261 . S
C9 O4 1.259 . S
C9 O6 1.235 . S
O10 Co0 2.021 . S
O10 C7 1.238 . S
O11 Co5 2.028 1_455 S
O11 C7 1.262 . S
O12 Co0 2.137 . S
O12 C3 1.247 . S
O13 Co0 2.244 . S
O13 C3 1.272 . S
O13 Co5 2.135 1_455 S
Co14 O15 2.216 . S
Co14 O16 2.091 . S
Co14 O18 2.004 1_655 S
Co14 O24 2.021 . S
Co14 O26 2.137 . S
Co14 O27 2.244 1_655 S
O15 Co14 2.216 . S
O15 C22 1.247 . S
O16 Co14 2.091 . S
O16 C22 1.261 . S
C17 O26 1.247 1_455 S
C17 O27 1.272 . S
O18 Co14 2.004 1_455 S
O18 C23 1.259 . S
Co19 O20 2.061 . S
Co19 O25 2.052 . S
Co19 O27 2.135 . S
O20 Co19 2.061 . S
O20 C23 1.235 . S
C21 O24 1.238 . S
C21 O25 1.241 1_655 S
C22 O15 1.247 . S
C22 O16 1.261 . S
C23 O18 1.259 . S
C23 O20 1.235 . S
O24 Co14 2.021 . S
O24 C21 1.238 . S
O25 Co19 2.052 . S
O25 C21 1.241 1_455 S
O26 Co14 2.137 . S
O26 C17 1.247 1_655 S
O27 Co14 2.244 1_455 S
O27 C17 1.272 . S
O27 Co19 2.135 . S
Co28 O29 2.216 . S
Co28 O30 2.091 . S
Co28 O32 2.004 . S
Co28 O38 2.021 . S
Co28 O40 2.137 . S
Co28 O41 2.244 . S
O29 Co28 2.216 . S
O29 C36 1.247 . S
O30 Co28 2.091 . S
O30 C36 1.261 . S
C31 O40 1.247 . S
C31 O41 1.272 . S
O32 Co28 2.004 . S
O32 C37 1.259 . S
Co33 O34 2.061 . S
Co33 O39 2.052 . S
Co33 O41 2.135 . S
O34 Co33 2.061 . S
O34 C37 1.235 . S
C35 O38 1.238 . S
C35 O39 1.241 . S
C36 O29 1.247 . S
C36 O30 1.261 . S
C37 O32 1.259 . S
C37 O34 1.235 . S
O38 Co28 2.021 . S
O38 C35 1.238 . S
O39 Co33 2.052 . S
O39 C35 1.241 . S
O40 Co28 2.137 . S
O40 C31 1.247 . S
O41 Co28 2.244 . S
O41 C31 1.272 . S
O41 Co33 2.135 . S
Co42 O43 2.216 . S
Co42 O44 2.091 . S
Co42 O46 2.004 . S
Co42 O52 2.021 . S
Co42 O54 2.137 . S
Co42 O55 2.244 . S
O43 Co42 2.216 . S
O43 C50 1.247 . S
O44 Co42 2.091 . S
O44 C50 1.261 . S
C45 O54 1.247 . S
C45 O55 1.272 . S
O46 Co42 2.004 . S
O46 C51 1.259 . S
Co47 O48 2.061 . S
Co47 O53 2.052 . S
Co47 O55 2.135 . S
O48 Co47 2.061 . S
O48 C51 1.235 . S
C49 O52 1.238 . S
C49 O53 1.241 . S
C50 O43 1.247 . S
C50 O44 1.261 . S
C51 O46 1.259 . S
C51 O48 1.235 . S
O52 Co42 2.021 . S
O52 C49 1.238 . S
O53 Co47 2.052 . S
O53 C49 1.241 . S
O54 Co42 2.137 . S
O54 C45 1.247 . S
O55 Co42 2.244 . S
O55 C45 1.272 . S
O55 Co47 2.135 . S
Co56 O57 2.216 1_455 S
Co56 O58 2.091 1_455 S
Co56 O60 2.004 . S
Co56 O66 2.021 . S
Co56 O68 2.137 . S
Co56 O69 2.244 . S
O57 Co56 2.216 1_655 S
O57 C64 1.247 . S
O58 Co56 2.091 1_655 S
O58 C64 1.261 . S
C59 O68 1.247 . S
C59 O69 1.272 . S
O60 Co56 2.004 . S
O60 C65 1.259 . S
Co61 O62 2.061 . S
Co61 O67 2.052 . S
Co61 O69 2.135 . S
O62 Co61 2.061 . S
O62 C65 1.235 . S
C63 O66 1.238 . S
C63 O67 1.241 . S
C64 O57 1.247 . S
C64 O58 1.261 . S
C65 O60 1.259 . S
C65 O62 1.235 . S
O66 Co56 2.021 . S
O66 C63 1.238 . S
O67 Co61 2.052 . S
O67 C63 1.241 . S
O68 Co56 2.137 . S
O68 C59 1.247 . S
O69 Co56 2.244 . S
O69 C59 1.272 . S
O69 Co61 2.135 . S
Co70 O71 2.216 . S
Co70 O72 2.091 . S
Co70 O74 2.004 . S
Co70 O80 2.021 . S
Co70 O82 2.137 . S
Co70 O83 2.244 . S
O71 Co70 2.216 . S
O71 C78 1.247 . S
O72 Co70 2.091 . S
O72 C78 1.261 . S
C73 O82 1.247 . S
C73 O83 1.272 . S
O74 Co70 2.004 . S
O74 C79 1.259 . S
Co75 O76 2.061 . S
Co75 O81 2.052 . S
Co75 O83 2.135 . S
O76 Co75 2.061 . S
O76 C79 1.235 . S
C77 O80 1.238 . S
C77 O81 1.241 . S
C78 O71 1.247 . S
C78 O72 1.261 . S
C79 O74 1.259 . S
C79 O76 1.235 . S
O80 Co70 2.021 . S
O80 C77 1.238 . S
O81 Co75 2.052 . S
O81 C77 1.241 . S
O82 Co70 2.137 . S
O82 C73 1.247 . S
O83 Co70 2.244 . S
O83 C73 1.272 . S
O83 Co75 2.135 . S
Co84 O85 2.216 . S
Co84 O86 2.091 . S
Co84 O88 2.004 . S
Co84 O94 2.021 . S
Co84 O96 2.137 . S
Co84 O97 2.244 . S
O85 Co84 2.216 . S
O85 C92 1.247 . S
O86 Co84 2.091 . S
O86 C92 1.261 . S
C87 O96 1.247 . S
C87 O97 1.272 . S
O88 Co84 2.004 . S
O88 C93 1.259 . S
Co89 O90 2.061 . S
Co89 O95 2.052 . S
Co89 O97 2.135 . S
O90 Co89 2.061 . S
O90 C93 1.235 . S
C91 O94 1.238 . S
C91 O95 1.241 . S
C92 O85 1.247 . S
C92 O86 1.261 . S
C93 O88 1.259 . S
C93 O90 1.235 . S
O94 Co84 2.021 . S
O94 C91 1.238 . S
O95 Co89 2.052 . S
O95 C91 1.241 . S
O96 Co84 2.137 . S
O96 C87 1.247 . S
O97 Co84 2.244 . S
O97 C87 1.272 . S
O97 Co89 2.135 . S
Co98 O99 2.216 . S
Co98 O100 2.091 . S
Co98 O102 2.004 1_455 S
Co98 O108 2.021 . S
Co98 O110 2.137 . S
Co98 O111 2.244 . S
O99 Co98 2.216 . S
O99 C106 1.247 . S
O100 Co98 2.091 . S
O100 C106 1.261 . S
C101 O110 1.247 . S
C101 O111 1.272 . S
O102 Co98 2.004 1_655 S
O102 C107 1.259 . S
Co103 O104 2.061 . S
Co103 O109 2.052 . S
Co103 O111 2.135 1_655 S
O104 Co103 2.061 . S
O104 C107 1.235 . S
C105 O108 1.238 . S
C105 O109 1.241 1_455 S
C106 O99 1.247 . S
C106 O100 1.261 . S
C107 O102 1.259 . S
C107 O104 1.235 . S
O108 Co98 2.021 . S
O108 C105 1.238 . S
O109 Co103 2.052 . S
O109 C105 1.241 1_655 S
O110 Co98 2.137 . S
O110 C101 1.247 . S
O111 Co98 2.244 . S
O111 C101 1.272 . S
O111 Co103 2.135 1_455 S
Co112 O113 2.216 . S
Co112 O114 2.091 . S
Co112 O116 2.004 . S
Co112 O122 2.021 . S
Co112 O124 2.137 . S
Co112 O125 2.244 . S
O113 Co112 2.216 . S
O113 C120 1.247 . S
O114 Co112 2.091 . S
O114 C120 1.261 . S
C115 O124 1.247 . S
C115 O125 1.272 . S
O116 Co112 2.004 . S
O116 C121 1.259 1_545 S
Co117 O118 2.061 1_545 S
Co117 O123 2.052 . S
Co117 O125 2.135 . S
O118 Co117 2.061 1_565 S
O118 C121 1.235 . S
C119 O122 1.238 . S
C119 O123 1.241 . S
C120 O113 1.247 . S
C120 O114 1.261 . S
C121 O116 1.259 1_565 S
C121 O118 1.235 . S
O122 Co112 2.021 . S
O122 C119 1.238 . S
O123 Co117 2.052 . S
O123 C119 1.241 . S
O124 Co112 2.137 . S
O124 C115 1.247 . S
O125 Co112 2.244 . S
O125 C115 1.272 . S
O125 Co117 2.135 . S
Co126 O127 2.216 . S
Co126 O128 2.091 . S
Co126 O130 2.004 . S
Co126 O136 2.021 . S
Co126 O138 2.137 . S
Co126 O139 2.244 . S
O127 Co126 2.216 . S
O127 C134 1.247 . S
O128 Co126 2.091 . S
O128 C134 1.261 . S
C129 O138 1.247 . S
C129 O139 1.272 . S
O130 Co126 2.004 . S
O130 C135 1.259 . S
Co131 O132 2.061 . S
Co131 O137 2.052 . S
Co131 O139 2.135 . S
O132 Co131 2.061 . S
O132 C135 1.235 . S
C133 O136 1.238 . S
C133 O137 1.241 . S
C134 O127 1.247 . S
C134 O128 1.261 . S
C135 O130 1.259 . S
C135 O132 1.235 . S
O136 Co126 2.021 . S
O136 C133 1.238 . S
O137 Co131 2.052 . S
O137 C133 1.241 . S
O138 Co126 2.137 . S
O138 C129 1.247 . S
O139 Co126 2.244 . S
O139 C129 1.272 . S
O139 Co131 2.135 . S
Co140 O141 2.216 . S
Co140 O142 2.091 . S
Co140 O144 2.004 1_565 S
Co140 O150 2.021 . S
Co140 O152 2.137 . S
Co140 O153 2.244 1_565 S
O141 Co140 2.216 . S
O141 C148 1.247 . S
O142 Co140 2.091 . S
O142 C148 1.261 . S
C143 O152 1.240 1_545 S
C143 O153 1.277 . S
O144 Co140 2.004 1_545 S
O144 C149 1.259 . S
Co145 O146 2.061 . S
Co145 O151 2.052 . S
Co145 O153 2.135 . S
O146 Co145 2.061 . S
O146 C149 1.235 . S
C147 O150 1.238 . S
C147 O151 1.241 1_565 S
C148 O141 1.247 . S
C148 O142 1.261 . S
C149 O144 1.259 . S
C149 O146 1.235 . S
O150 Co140 2.021 . S
O150 C147 1.238 . S
O151 Co145 2.052 . S
O151 C147 1.241 1_545 S
O152 Co140 2.137 . S
O152 C143 1.240 1_565 S
O153 Co140 2.244 1_545 S
O153 C143 1.277 . S
O153 Co145 2.135 . S
Co154 O155 2.216 . S
Co154 O156 2.091 . S
Co154 O158 2.004 . S
Co154 O164 2.021 . S
Co154 O166 2.137 1_554 S
Co154 O167 2.244 . S
O155 Co154 2.216 . S
O155 C162 1.247 . S
O156 Co154 2.091 . S
O156 C162 1.261 . S
C157 O166 1.247 . S
C157 O167 1.272 1_556 S
O158 Co154 2.004 . S
O158 C163 1.259 . S
Co159 O160 2.061 . S
Co159 O165 2.052 . S
Co159 O167 2.135 . S
O160 Co159 2.061 . S
O160 C163 1.235 . S
C161 O164 1.238 . S
C161 O165 1.241 . S
C162 O155 1.247 . S
C162 O156 1.261 . S
C163 O158 1.259 . S
C163 O160 1.235 . S
O164 Co154 2.021 . S
O164 C161 1.238 . S
O165 Co159 2.052 . S
O165 C161 1.241 . S
O166 Co154 2.137 1_556 S
O166 C157 1.247 . S
O167 Co154 2.244 . S
O167 C157 1.272 1_554 S
O167 Co159 2.135 . S
Co168 O169 2.216 . S
Co168 O170 2.091 . S
Co168 O172 2.004 . S
Co168 O178 2.021 . S
Co168 O180 2.137 1_554 S
Co168 O181 2.244 . S
O169 Co168 2.216 . S
O169 C176 1.247 . S
O170 Co168 2.091 . S
O170 C176 1.261 . S
C171 O180 1.247 . S
C171 O181 1.272 1_556 S
O172 Co168 2.004 . S
O172 C177 1.259 . S
Co173 O174 2.061 . S
Co173 O179 2.052 . S
Co173 O181 2.135 . S
O174 Co173 2.061 . S
O174 C177 1.235 . S
C175 O178 1.238 . S
C175 O179 1.241 . S
C176 O169 1.247 . S
C176 O170 1.261 . S
C177 O172 1.259 . S
C177 O174 1.235 . S
O178 Co168 2.021 . S
O178 C175 1.238 . S
O179 Co173 2.052 . S
O179 C175 1.241 . S
O180 Co168 2.137 1_556 S
O180 C171 1.247 . S
O181 Co168 2.244 . S
O181 C171 1.272 1_554 S
O181 Co173 2.135 . S
Co182 O183 2.216 1_556 S
Co182 O184 2.088 1_556 S
Co182 O186 2.004 . S
Co182 O192 2.021 1_556 S
Co182 O194 2.137 . S
Co182 O195 2.244 . S
O183 Co182 2.216 1_554 S
O183 C190 1.247 . S
O184 Co182 2.088 1_554 S
O184 C190 1.259 . S
C185 O194 1.247 . S
C185 O195 1.272 . S
O186 Co182 2.004 . S
O186 C191 1.259 . S
Co187 O188 2.065 1_554 S
Co187 O193 2.074 . S
Co187 O195 2.119 1_554 S
O188 Co187 2.065 1_556 S
O188 C191 1.235 . S
C189 O192 1.238 . S
C189 O193 1.241 . S
C190 O183 1.247 . S
C190 O184 1.259 . S
C191 O186 1.259 . S
C191 O188 1.235 . S
O192 Co182 2.021 1_554 S
O192 C189 1.238 . S
O193 Co187 2.074 . S
O193 C189 1.241 . S
O194 Co182 2.137 . S
O194 C185 1.247 . S
O195 Co182 2.244 . S
O195 C185 1.272 . S
O195 Co187 2.119 1_556 S
Co196 O197 2.216 . S
Co196 O198 2.091 . S
Co196 O200 2.004 . S
Co196 O206 2.021 . S
Co196 O208 2.137 . S
Co196 O209 2.244 . S
O197 Co196 2.216 . S
O197 C204 1.247 . S
O198 Co196 2.091 . S
O198 C204 1.261 . S
C199 O208 1.247 . S
C199 O209 1.272 . S
O200 Co196 2.004 . S
O200 C205 1.259 . S
Co201 O202 2.061 . S
Co201 O207 2.052 . S
Co201 O209 2.135 . S
O202 Co201 2.061 . S
O202 C205 1.235 . S
C203 O206 1.238 . S
C203 O207 1.241 . S
C204 O197 1.247 . S
C204 O198 1.261 . S
C205 O200 1.259 . S
C205 O202 1.235 . S
O206 Co196 2.021 . S
O206 C203 1.238 . S
O207 Co201 2.052 . S
O207 C203 1.241 . S
O208 Co196 2.137 . S
O208 C199 1.247 . S
O209 Co196 2.244 . S
O209 C199 1.272 . S
O209 Co201 2.135 . S
Co210 O211 2.216 . S
Co210 O212 2.091 . S
Co210 O214 2.004 . S
Co210 O220 2.021 . S
Co210 O222 2.137 . S
Co210 O223 2.244 . S
O211 Co210 2.216 . S
O211 C218 1.247 . S
O212 Co210 2.091 . S
O212 C218 1.261 . S
C213 O222 1.247 . S
C213 O223 1.272 . S
O214 Co210 2.004 . S
O214 C219 1.259 . S
Co215 O216 2.061 . S
Co215 O221 2.052 . S
Co215 O223 2.135 . S
O216 Co215 2.061 . S
O216 C219 1.235 . S
C217 O220 1.238 . S
C217 O221 1.241 . S
C218 O211 1.247 . S
C218 O212 1.261 . S
C219 O214 1.259 . S
C219 O216 1.235 . S
O220 Co210 2.021 . S
O220 C217 1.238 . S
O221 Co215 2.052 . S
O221 C217 1.241 . S
O222 Co210 2.137 . S
O222 C213 1.247 . S
O223 Co210 2.244 . S
O223 C213 1.272 . S
O223 Co215 2.135 . S
Co224 O225 2.216 . S
Co224 O226 2.091 . S
Co224 O228 2.004 . S
Co224 O234 2.021 . S
Co224 O236 2.137 . S
Co224 O237 2.244 . S
O225 Co224 2.216 . S
O225 C232 1.247 . S
O226 Co224 2.091 . S
O226 C232 1.261 . S
C227 O236 1.247 . S
C227 O237 1.272 . S
O228 Co224 2.004 . S
O228 C233 1.273 . S
Co229 O230 2.061 1_545 S
Co229 O235 2.052 . S
Co229 O237 2.135 . S
O230 Co229 2.061 1_565 S
O230 C233 1.231 1_565 S
C231 O234 1.238 . S
C231 O235 1.241 . S
C232 O225 1.247 . S
C232 O226 1.261 . S
C233 O228 1.273 . S
C233 O230 1.231 1_545 S
O234 Co224 2.021 . S
O234 C231 1.238 . S
O235 Co229 2.052 . S
O235 C231 1.241 . S
O236 Co224 2.137 . S
O236 C227 1.247 . S
O237 Co224 2.244 . S
O237 C227 1.272 . S
O237 Co229 2.135 . S
Co238 O239 2.216 . S
Co238 O240 2.091 . S
Co238 O242 2.004 . S
Co238 O248 2.021 . S
Co238 O250 2.137 . S
Co238 O251 2.244 . S
O239 Co238 2.216 . S
O239 C246 1.247 . S
O240 Co238 2.091 . S
O240 C246 1.261 . S
C241 O250 1.247 . S
C241 O251 1.272 . S
O242 Co238 2.004 . S
O242 C247 1.259 . S
Co243 O244 2.061 . S
Co243 O249 2.052 . S
Co243 O251 2.135 . S
O244 Co243 2.061 . S
O244 C247 1.235 . S
C245 O248 1.238 . S
C245 O249 1.241 . S
C246 O239 1.247 . S
C246 O240 1.261 . S
C247 O242 1.259 . S
C247 O244 1.235 . S
O248 Co238 2.021 . S
O248 C245 1.238 . S
O249 Co243 2.052 . S
O249 C245 1.241 . S
O250 Co238 2.137 . S
O250 C241 1.247 . S
O251 Co238 2.244 . S
O251 C241 1.272 . S
O251 Co243 2.135 . S
Co252 O253 2.216 . S
Co252 O254 2.091 . S
Co252 O256 2.004 . S
Co252 O262 2.021 . S
Co252 O264 2.137 . S
Co252 O265 2.244 . S
O253 Co252 2.216 . S
O253 C260 1.247 . S
O254 Co252 2.091 . S
O254 C260 1.261 . S
C255 O264 1.247 . S
C255 O265 1.272 . S
O256 Co252 2.004 . S
O256 C261 1.259 . S
Co257 O258 2.061 . S
Co257 O263 2.052 . S
Co257 O265 2.135 . S
O258 Co257 2.061 . S
O258 C261 1.235 . S
C259 O262 1.238 . S
C259 O263 1.241 . S
C260 O253 1.247 . S
C260 O254 1.261 . S
C261 O256 1.259 . S
C261 O258 1.235 . S
O262 Co252 2.021 . S
O262 C259 1.238 . S
O263 Co257 2.052 . S
O263 C259 1.241 . S
O264 Co252 2.137 . S
O264 C255 1.247 . S
O265 Co252 2.244 . S
O265 C255 1.272 . S
O265 Co257 2.135 . S
Co266 O267 2.216 1_545 S
Co266 O268 2.091 1_545 S
Co266 O270 2.004 . S
Co266 O276 2.021 . S
Co266 O278 2.137 . S
Co266 O279 2.244 . S
O267 Co266 2.216 1_565 S
O267 C274 1.247 . S
O268 Co266 2.091 1_565 S
O268 C274 1.261 . S
C269 O278 1.247 . S
C269 O279 1.272 . S
O270 Co266 2.004 . S
O270 C275 1.259 . S
Co271 O272 2.061 . S
Co271 O277 2.052 . S
Co271 O279 2.135 . S
O272 Co271 2.061 . S
O272 C275 1.235 . S
C273 O276 1.238 . S
C273 O277 1.241 . S
C274 O267 1.247 . S
C274 O268 1.261 . S
C275 O270 1.259 . S
C275 O272 1.235 . S
O276 Co266 2.021 . S
O276 C273 1.238 . S
O277 Co271 2.052 . S
O277 C273 1.241 . S
O278 Co266 2.137 . S
O278 C269 1.247 . S
O279 Co266 2.244 . S
O279 C269 1.272 . S
O279 Co271 2.135 . S
Co280 O281 2.216 1_556 S
Co280 O282 2.091 . S
Co280 O284 2.004 . S
Co280 O290 2.021 1_556 S
Co280 O292 2.137 . S
Co280 O293 2.244 . S
O281 Co280 2.216 1_554 S
O281 C288 1.247 . S
O282 Co280 2.091 . S
O282 C288 1.261 1_556 S
C283 O292 1.247 . S
C283 O293 1.272 . S
O284 Co280 2.004 . S
O284 C289 1.259 . S
Co285 O286 2.061 . S
Co285 O291 2.046 1_556 S
Co285 O293 2.139 . S
O286 Co285 2.061 . S
O286 C289 1.235 . S
C287 O290 1.238 . S
C287 O291 1.241 . S
C288 O281 1.247 . S
C288 O282 1.261 1_554 S
C289 O284 1.259 . S
C289 O286 1.235 . S
O290 Co280 2.021 1_554 S
O290 C287 1.238 . S
O291 Co285 2.046 1_554 S
O291 C287 1.241 . S
O292 Co280 2.137 . S
O292 C283 1.247 . S
O293 Co280 2.244 . S
O293 C283 1.272 . S
O293 Co285 2.139 . S
Co294 O295 2.216 . S
Co294 O296 2.091 . S
Co294 O298 2.004 . S
Co294 O304 2.021 . S
Co294 O306 2.137 . S
Co294 O307 2.244 . S
O295 Co294 2.216 . S
O295 C302 1.247 . S
O296 Co294 2.091 . S
O296 C302 1.261 . S
C297 O306 1.247 . S
C297 O307 1.272 . S
O298 Co294 2.004 . S
O298 C303 1.259 . S
Co299 O300 2.061 . S
Co299 O305 2.052 . S
Co299 O307 2.135 . S
O300 Co299 2.061 . S
O300 C303 1.235 . S
C301 O304 1.238 . S
C301 O305 1.241 . S
C302 O295 1.247 . S
C302 O296 1.261 . S
C303 O298 1.259 . S
C303 O300 1.235 . S
O304 Co294 2.021 . S
O304 C301 1.238 . S
O305 Co299 2.052 . S
O305 C301 1.241 . S
O306 Co294 2.137 . S
O306 C297 1.247 . S
O307 Co294 2.244 . S
O307 C297 1.272 . S
O307 Co299 2.135 . S
Co308 O309 2.216 . S
Co308 O310 2.091 . S
Co308 O312 2.004 . S
Co308 O318 2.021 . S
Co308 O320 2.137 . S
Co308 O321 2.244 . S
O309 Co308 2.216 . S
O309 C316 1.247 . S
O310 Co308 2.091 . S
O310 C316 1.261 . S
C311 O320 1.247 . S
C311 O321 1.272 . S
O312 Co308 2.004 . S
O312 C317 1.259 . S
Co313 O314 2.061 . S
Co313 O319 2.052 . S
Co313 O321 2.135 . S
O314 Co313 2.061 . S
O314 C317 1.235 . S
C315 O318 1.238 . S
C315 O319 1.241 . S
C316 O309 1.247 . S
C316 O310 1.261 . S
C317 O312 1.259 . S
C317 O314 1.235 . S
O318 Co308 2.021 . S
O318 C315 1.238 . S
O319 Co313 2.052 . S
O319 C315 1.241 . S
O320 Co308 2.137 . S
O320 C311 1.247 . S
O321 Co308 2.244 . S
O321 C311 1.272 . S
O321 Co313 2.135 . S
Co322 O323 2.216 . S
Co322 O324 2.091 . S
Co322 O326 2.004 . S
Co322 O332 2.021 . S
Co322 O334 2.137 . S
Co322 O335 2.244 . S
O323 Co322 2.216 . S
O323 C330 1.247 . S
O324 Co322 2.091 . S
O324 C330 1.261 . S
C325 O334 1.247 . S
C325 O335 1.272 . S
O326 Co322 2.004 . S
O326 C331 1.259 . S
Co327 O328 2.061 . S
Co327 O333 2.052 . S
Co327 O335 2.135 . S
O328 Co327 2.061 . S
O328 C331 1.235 . S
C329 O332 1.238 . S
C329 O333 1.241 . S
C330 O323 1.247 . S
C330 O324 1.261 . S
C331 O326 1.259 . S
C331 O328 1.235 . S
O332 Co322 2.021 . S
O332 C329 1.238 . S
O333 Co327 2.052 . S
O333 C329 1.241 . S
O334 Co322 2.137 . S
O334 C325 1.247 . S
O335 Co322 2.244 . S
O335 C325 1.272 . S
O335 Co327 2.135 . S
Tb336 O339 2.453 . S
Tb336 O340 2.596 . S
Tb336 O341 2.374 1_554 S
Tb336 O349 2.343 1_455 S
Tb336 O351 2.353 . S
Tb336 O353 2.427 . S
Tb336 O354 2.513 1_554 S
C337 O341 1.251 . S
C337 O343 1.264 1_545 S
Tb338 O340 2.343 1_665 S
Tb338 O343 2.353 1_654 S
Tb338 O346 2.427 1_655 S
Tb338 O347 2.513 1_655 S
Tb338 O348 2.453 1_564 S
Tb338 O349 2.596 1_565 S
Tb338 O350 2.374 1_565 S
O339 Tb336 2.453 . S
O339 C355 1.245 . S
O340 Tb336 2.596 . S
O340 Tb338 2.343 1_445 S
O340 C355 1.259 . S
O341 Tb336 2.374 1_556 S
O341 C337 1.251 . S
C342 O346 1.275 . S
C342 O347 1.246 . S
O343 C337 1.264 1_565 S
O343 Tb338 2.353 1_456 S
C344 O348 1.245 1_554 S
C344 O349 1.259 . S
C345 O350 1.250 . S
C345 O351 1.263 1_655 S
O346 Tb338 2.427 1_455 S
O346 C342 1.275 . S
O347 Tb338 2.513 1_455 S
O347 C342 1.246 . S
O348 Tb338 2.453 1_546 S
O348 C344 1.245 1_556 S
O349 Tb336 2.343 1_655 S
O349 Tb338 2.596 1_545 S
O349 C344 1.259 . S
O350 Tb338 2.374 1_545 S
O350 C345 1.250 . S
O351 Tb336 2.353 . S
O351 C345 1.263 1_455 S
C352 O353 1.263 1_556 S
C352 O354 1.254 . S
O353 Tb336 2.427 . S
O353 C352 1.263 1_554 S
O354 Tb336 2.513 1_556 S
O354 C352 1.254 . S
C355 O339 1.245 . S
C355 O340 1.259 . S
Tb356 O359 2.453 . S
Tb356 O360 2.596 . S
Tb356 O361 2.374 . S
Tb356 O369 2.343 . S
Tb356 O371 2.353 . S
Tb356 O373 2.427 . S
Tb356 O374 2.513 . S
C357 O361 1.251 . S
C357 O363 1.263 . S
Tb358 O360 2.343 . S
Tb358 O363 2.353 . S
Tb358 O366 2.427 . S
Tb358 O367 2.513 . S
Tb358 O368 2.453 . S
Tb358 O369 2.596 . S
Tb358 O370 2.374 . S
O359 Tb356 2.453 . S
O359 C375 1.245 . S
O360 Tb356 2.596 . S
O360 Tb358 2.343 . S
O360 C375 1.259 . S
O361 Tb356 2.374 . S
O361 C357 1.251 . S
C362 O366 1.275 . S
C362 O367 1.246 . S
O363 C357 1.263 . S
O363 Tb358 2.353 . S
C364 O368 1.245 . S
C364 O369 1.259 . S
C365 O370 1.250 . S
C365 O371 1.263 . S
O366 Tb358 2.427 . S
O366 C362 1.275 . S
O367 Tb358 2.513 . S
O367 C362 1.246 . S
O368 Tb358 2.453 . S
O368 C364 1.245 . S
O369 Tb356 2.343 . S
O369 Tb358 2.596 . S
O369 C364 1.259 . S
O370 Tb358 2.374 . S
O370 C365 1.250 . S
O371 Tb356 2.353 . S
O371 C365 1.263 . S
C372 O373 1.275 . S
C372 O374 1.246 . S
O373 Tb356 2.427 . S
O373 C372 1.275 . S
O374 Tb356 2.513 . S
O374 C372 1.246 . S
C375 O359 1.245 . S
C375 O360 1.259 . S
Tb376 O379 2.453 . S
Tb376 O380 2.596 . S
Tb376 O381 2.374 . S
Tb376 O389 2.343 1_545 S
Tb376 O391 2.353 . S
Tb376 O393 2.427 . S
Tb376 O394 2.476 1_545 S
C377 O381 1.251 . S
C377 O383 1.263 . S
Tb378 O380 2.343 . S
Tb378 O383 2.353 . S
Tb378 O386 2.427 . S
Tb378 O387 2.513 . S
Tb378 O388 2.453 1_545 S
Tb378 O389 2.596 1_545 S
Tb378 O390 2.374 . S
O379 Tb376 2.453 . S
O379 C395 1.245 . S
O380 Tb376 2.596 . S
O380 Tb378 2.343 . S
O380 C395 1.259 . S
O381 Tb376 2.374 . S
O381 C377 1.251 . S
C382 O386 1.275 . S
C382 O387 1.246 . S
O383 C377 1.263 . S
O383 Tb378 2.353 . S
C384 O388 1.245 . S
C384 O389 1.259 . S
C385 O390 1.250 . S
C385 O391 1.263 . S
O386 Tb378 2.427 . S
O386 C382 1.275 . S
O387 Tb378 2.513 . S
O387 C382 1.246 . S
O388 Tb378 2.453 1_565 S
O388 C384 1.245 . S
O389 Tb376 2.343 1_565 S
O389 Tb378 2.596 1_565 S
O389 C384 1.259 . S
O390 Tb378 2.374 . S
O390 C385 1.250 . S
O391 Tb376 2.353 . S
O391 C385 1.263 . S
C392 O393 1.275 1_565 S
C392 O394 1.249 . S
O393 Tb376 2.427 . S
O393 C392 1.275 1_545 S
O394 Tb376 2.476 1_565 S
O394 C392 1.249 . S
C395 O379 1.245 . S
C395 O380 1.259 . S
Tb396 O399 2.453 . S
Tb396 O400 2.596 . S
Tb396 O401 2.374 . S
Tb396 O409 2.343 . S
Tb396 O411 2.353 . S
Tb396 O413 2.427 . S
Tb396 O414 2.513 . S
C397 O401 1.251 . S
C397 O403 1.263 . S
Tb398 O400 2.343 . S
Tb398 O403 2.353 . S
Tb398 O406 2.427 . S
Tb398 O407 2.513 . S
Tb398 O408 2.453 . S
Tb398 O409 2.596 . S
Tb398 O410 2.374 . S
O399 Tb396 2.453 . S
O399 C415 1.245 . S
O400 Tb396 2.596 . S
O400 Tb398 2.343 . S
O400 C415 1.259 . S
O401 Tb396 2.374 . S
O401 C397 1.251 . S
C402 O406 1.275 . S
C402 O407 1.246 . S
O403 C397 1.263 . S
O403 Tb398 2.353 . S
C404 O408 1.245 . S
C404 O409 1.259 . S
C405 O410 1.250 . S
C405 O411 1.263 . S
O406 Tb398 2.427 . S
O406 C402 1.275 . S
O407 Tb398 2.513 . S
O407 C402 1.246 . S
O408 Tb398 2.453 . S
O408 C404 1.245 . S
O409 Tb396 2.343 . S
O409 Tb398 2.596 . S
O409 C404 1.259 . S
O410 Tb398 2.374 . S
O410 C405 1.250 . S
O411 Tb396 2.353 . S
O411 C405 1.263 . S
C412 O413 1.275 . S
C412 O414 1.246 . S
O413 Tb396 2.427 . S
O413 C412 1.275 . S
O414 Tb396 2.513 . S
O414 C412 1.246 . S
C415 O399 1.245 . S
C415 O400 1.259 . S
Tb416 O419 2.453 1_545 S
Tb416 O420 2.596 . S
Tb416 O421 2.374 1_455 S
Tb416 O429 2.343 . S
Tb416 O431 2.353 . S
Tb416 O433 2.427 . S
Tb416 O434 2.513 1_455 S
C417 O421 1.251 . S
C417 O423 1.263 . S
Tb418 O420 2.343 . S
Tb418 O423 2.353 1_455 S
Tb418 O426 2.427 . S
Tb418 O427 2.513 . S
Tb418 O428 2.453 . S
Tb418 O429 2.596 . S
Tb418 O430 2.374 . S
O419 Tb416 2.453 1_565 S
O419 C435 1.245 . S
O420 Tb416 2.596 . S
O420 Tb418 2.343 . S
O420 C435 1.259 1_545 S
O421 Tb416 2.374 1_655 S
O421 C417 1.251 . S
C422 O426 1.275 . S
C422 O427 1.246 . S
O423 C417 1.263 . S
O423 Tb418 2.353 1_655 S
C424 O428 1.245 . S
C424 O429 1.259 . S
C425 O430 1.250 . S
C425 O431 1.263 . S
O426 Tb418 2.427 . S
O426 C422 1.275 . S
O427 Tb418 2.513 . S
O427 C422 1.246 . S
O428 Tb418 2.453 . S
O428 C424 1.245 . S
O429 Tb416 2.343 . S
O429 Tb418 2.596 . S
O429 C424 1.259 . S
O430 Tb418 2.374 . S
O430 C425 1.250 . S
O431 Tb416 2.353 . S
O431 C425 1.263 . S
C432 O433 1.275 1_655 S
C432 O434 1.246 . S
O433 Tb416 2.427 . S
O433 C432 1.275 1_455 S
O434 Tb416 2.513 1_655 S
O434 C432 1.246 . S
C435 O419 1.245 . S
C435 O420 1.259 1_565 S
Tb436 O439 2.453 . S
Tb436 O440 2.596 . S
Tb436 O441 2.374 . S
Tb436 O449 2.343 . S
Tb436 O451 2.353 . S
Tb436 O453 2.427 . S
Tb436 O454 2.513 . S
C437 O441 1.251 . S
C437 O443 1.263 . S
Tb438 O440 2.343 . S
Tb438 O443 2.353 . S
Tb438 O446 2.427 . S
Tb438 O447 2.513 . S
Tb438 O448 2.453 . S
Tb438 O449 2.596 . S
Tb438 O450 2.374 . S
O439 Tb436 2.453 . S
O439 C455 1.245 . S
O440 Tb436 2.596 . S
O440 Tb438 2.343 . S
O440 C455 1.259 . S
O441 Tb436 2.374 . S
O441 C437 1.251 . S
C442 O446 1.275 . S
C442 O447 1.246 . S
O443 C437 1.263 . S
O443 Tb438 2.353 . S
C444 O448 1.245 . S
C444 O449 1.259 . S
C445 O450 1.250 . S
C445 O451 1.263 . S
O446 Tb438 2.427 . S
O446 C442 1.275 . S
O447 Tb438 2.513 . S
O447 C442 1.246 . S
O448 Tb438 2.453 . S
O448 C444 1.245 . S
O449 Tb436 2.343 . S
O449 Tb438 2.596 . S
O449 C444 1.259 . S
O450 Tb438 2.374 . S
O450 C445 1.250 . S
O451 Tb436 2.353 . S
O451 C445 1.263 . S
C452 O453 1.275 . S
C452 O454 1.246 . S
O453 Tb436 2.427 . S
O453 C452 1.275 . S
O454 Tb436 2.513 . S
O454 C452 1.246 . S
C455 O439 1.245 . S
C455 O440 1.259 . S
Tb456 O459 2.453 . S
Tb456 O460 2.596 . S
Tb456 O461 2.374 1_545 S
Tb456 O469 2.343 1_556 S
Tb456 O471 2.353 1_556 S
Tb456 O473 2.427 1_556 S
Tb456 O474 2.513 1_546 S
C457 O461 1.251 . S
C457 O463 1.263 1_556 S
Tb458 O460 2.343 1_554 S
Tb458 O463 2.353 1_545 S
Tb458 O466 2.427 . S
Tb458 O467 2.513 . S
Tb458 O468 2.453 . S
Tb458 O469 2.596 . S
Tb458 O470 2.374 . S
O459 Tb456 2.453 . S
O459 C475 1.245 . S
O460 Tb456 2.596 . S
O460 Tb458 2.343 1_556 S
O460 C475 1.259 . S
O461 Tb456 2.374 1_565 S
O461 C457 1.251 . S
C462 O466 1.275 . S
C462 O467 1.246 . S
O463 C457 1.263 1_554 S
O463 Tb458 2.353 1_565 S
C464 O468 1.245 . S
C464 O469 1.259 . S
C465 O470 1.250 . S
C465 O471 1.263 . S
O466 Tb458 2.427 . S
O466 C462 1.275 . S
O467 Tb458 2.513 . S
O467 C462 1.246 . S
O468 Tb458 2.453 . S
O468 C464 1.245 . S
O469 Tb456 2.343 1_554 S
O469 Tb458 2.596 . S
O469 C464 1.259 . S
O470 Tb458 2.374 . S
O470 C465 1.250 . S
O471 Tb456 2.353 1_554 S
O471 C465 1.263 . S
C472 O473 1.275 . S
C472 O474 1.246 1_545 S
O473 Tb456 2.427 1_554 S
O473 C472 1.275 . S
O474 Tb456 2.513 1_564 S
O474 C472 1.246 1_565 S
C475 O459 1.245 . S
C475 O460 1.259 . S
Tb476 O479 2.453 . S
Tb476 O480 2.596 . S
Tb476 O481 2.374 . S
Tb476 O489 2.343 . S
Tb476 O491 2.353 . S
Tb476 O493 2.427 . S
Tb476 O494 2.513 . S
C477 O481 1.251 . S
C477 O483 1.263 . S
Tb478 O480 2.343 . S
Tb478 O483 2.353 . S
Tb478 O486 2.427 . S
Tb478 O487 2.513 . S
Tb478 O488 2.453 . S
Tb478 O489 2.596 . S
Tb478 O490 2.374 . S
O479 Tb476 2.453 . S
O479 C495 1.245 . S
O480 Tb476 2.596 . S
O480 Tb478 2.343 . S
O480 C495 1.259 . S
O481 Tb476 2.374 . S
O481 C477 1.251 . S
C482 O486 1.275 . S
C482 O487 1.246 . S
O483 C477 1.263 . S
O483 Tb478 2.353 . S
C484 O488 1.245 . S
C484 O489 1.259 . S
C485 O490 1.250 . S
C485 O491 1.263 . S
O486 Tb478 2.427 . S
O486 C482 1.275 . S
O487 Tb478 2.513 . S
O487 C482 1.246 . S
O488 Tb478 2.453 . S
O488 C484 1.245 . S
O489 Tb476 2.343 . S
O489 Tb478 2.596 . S
O489 C484 1.259 . S
O490 Tb478 2.374 . S
O490 C485 1.250 . S
O491 Tb476 2.353 . S
O491 C485 1.263 . S
C492 O493 1.275 . S
C492 O494 1.246 . S
O493 Tb476 2.427 . S
O493 C492 1.275 . S
O494 Tb476 2.513 . S
O494 C492 1.246 . S
C495 O479 1.245 . S
C495 O480 1.259 . S
Tb496 O499 2.453 1_556 S
Tb496 O500 2.596 1_556 S
Tb496 O501 2.374 . S
Tb496 O509 2.343 . S
Tb496 O511 2.353 . S
Tb496 O513 2.427 . S
Tb496 O514 2.513 . S
C497 O501 1.251 1_554 S
C497 O503 1.263 . S
Tb498 O500 2.343 . S
Tb498 O503 2.353 . S
Tb498 O506 2.427 . S
Tb498 O507 2.513 . S
Tb498 O508 2.453 . S
Tb498 O509 2.596 1_554 S
Tb498 O510 2.374 . S
O499 Tb496 2.453 1_554 S
O499 C515 1.245 . S
O500 Tb496 2.596 1_554 S
O500 Tb498 2.343 . S
O500 C515 1.259 . S
O501 Tb496 2.374 . S
O501 C497 1.251 1_556 S
C502 O506 1.275 . S
C502 O507 1.246 . S
O503 C497 1.263 . S
O503 Tb498 2.353 . S
C504 O508 1.272 . S
C504 O509 1.257 1_554 S
C505 O510 1.250 . S
C505 O511 1.263 1_554 S
O506 Tb498 2.427 . S
O506 C502 1.275 . S
O507 Tb498 2.513 . S
O507 C502 1.246 . S
O508 Tb498 2.453 . S
O508 C504 1.272 . S
O509 Tb496 2.343 . S
O509 Tb498 2.596 1_556 S
O509 C504 1.257 1_556 S
O510 Tb498 2.374 . S
O510 C505 1.250 . S
O511 Tb496 2.353 . S
O511 C505 1.263 1_556 S
C512 O513 1.275 . S
C512 O514 1.246 . S
O513 Tb496 2.427 . S
O513 C512 1.275 . S
O514 Tb496 2.513 . S
O514 C512 1.246 . S
C515 O499 1.245 . S
C515 O500 1.259 . S
Tb516 O519 2.453 . S
Tb516 O520 2.596 . S
Tb516 O521 2.374 . S
Tb516 O529 2.343 . S
Tb516 O531 2.353 . S
Tb516 O533 2.427 . S
Tb516 O534 2.513 . S
C517 O521 1.251 . S
C517 O523 1.263 . S
Tb518 O520 2.343 . S
Tb518 O523 2.353 . S
Tb518 O526 2.427 . S
Tb518 O527 2.513 . S
Tb518 O528 2.453 . S
Tb518 O529 2.596 . S
Tb518 O530 2.374 . S
O519 Tb516 2.453 . S
O519 C535 1.245 . S
O520 Tb516 2.596 . S
O520 Tb518 2.343 . S
O520 C535 1.259 . S
O521 Tb516 2.374 . S
O521 C517 1.251 . S
C522 O526 1.275 . S
C522 O527 1.246 . S
O523 C517 1.263 . S
O523 Tb518 2.353 . S
C524 O528 1.245 . S
C524 O529 1.259 . S
C525 O530 1.250 . S
C525 O531 1.263 . S
O526 Tb518 2.427 . S
O526 C522 1.275 . S
O527 Tb518 2.513 . S
O527 C522 1.246 . S
O528 Tb518 2.453 . S
O528 C524 1.245 . S
O529 Tb516 2.343 . S
O529 Tb518 2.596 . S
O529 C524 1.259 . S
O530 Tb518 2.374 . S
O530 C525 1.250 . S
O531 Tb516 2.353 . S
O531 C525 1.263 . S
C532 O533 1.275 . S
C532 O534 1.246 . S
O533 Tb516 2.427 . S
O533 C532 1.275 . S
O534 Tb516 2.513 . S
O534 C532 1.246 . S
C535 O519 1.245 . S
C535 O520 1.259 . S
Tb536 O539 2.453 . S
Tb536 O540 2.596 1_655 S
Tb536 O541 2.374 . S
Tb536 O549 2.343 . S
Tb536 O551 2.353 . S
Tb536 O553 2.427 . S
Tb536 O554 2.513 . S
C537 O541 1.251 1_455 S
C537 O543 1.263 . S
Tb538 O540 2.343 . S
Tb538 O543 2.353 . S
Tb538 O546 2.427 . S
Tb538 O547 2.513 . S
Tb538 O548 2.453 . S
Tb538 O549 2.596 1_455 S
Tb538 O550 2.374 . S
O539 Tb536 2.453 . S
O539 C555 1.245 1_655 S
O540 Tb536 2.596 1_455 S
O540 Tb538 2.343 . S
O540 C555 1.259 . S
O541 Tb536 2.374 . S
O541 C537 1.251 1_655 S
C542 O546 1.275 . S
C542 O547 1.246 . S
O543 C537 1.263 . S
O543 Tb538 2.353 . S
C544 O548 1.245 1_655 S
C544 O549 1.259 . S
C545 O550 1.250 . S
C545 O551 1.263 1_455 S
O546 Tb538 2.427 . S
O546 C542 1.275 . S
O547 Tb538 2.513 . S
O547 C542 1.246 . S
O548 Tb538 2.453 . S
O548 C544 1.245 1_455 S
O549 Tb536 2.343 . S
O549 Tb538 2.596 1_655 S
O549 C544 1.259 . S
O550 Tb538 2.374 . S
O550 C545 1.250 . S
O551 Tb536 2.353 . S
O551 C545 1.263 1_655 S
C552 O553 1.275 . S
C552 O554 1.246 . S
O553 Tb536 2.427 . S
O553 C552 1.275 . S
O554 Tb536 2.513 . S
O554 C552 1.246 . S
C555 O539 1.245 1_455 S
C555 O540 1.259 . S
Tb556 O559 2.453 . S
Tb556 O560 2.596 . S
Tb556 O561 2.374 . S
Tb556 O569 2.343 . S
Tb556 O571 2.353 . S
Tb556 O573 2.427 . S
Tb556 O574 2.513 . S
C557 O561 1.251 . S
C557 O563 1.263 . S
Tb558 O560 2.343 . S
Tb558 O563 2.353 . S
Tb558 O566 2.427 . S
Tb558 O567 2.513 . S
Tb558 O568 2.453 . S
Tb558 O569 2.596 . S
Tb558 O570 2.374 . S
O559 Tb556 2.453 . S
O559 C575 1.245 . S
O560 Tb556 2.596 . S
O560 Tb558 2.343 . S
O560 C575 1.259 . S
O561 Tb556 2.374 . S
O561 C557 1.251 . S
C562 O566 1.275 . S
C562 O567 1.246 . S
O563 C557 1.263 . S
O563 Tb558 2.353 . S
C564 O568 1.245 . S
C564 O569 1.259 . S
C565 O570 1.250 . S
C565 O571 1.263 . S
O566 Tb558 2.427 . S
O566 C562 1.275 . S
O567 Tb558 2.513 . S
O567 C562 1.246 . S
O568 Tb558 2.453 . S
O568 C564 1.245 . S
O569 Tb556 2.343 . S
O569 Tb558 2.596 . S
O569 C564 1.259 . S
O570 Tb558 2.374 . S
O570 C565 1.250 . S
O571 Tb556 2.353 . S
O571 C565 1.263 . S
C572 O573 1.275 . S
C572 O574 1.246 . S
O573 Tb556 2.427 . S
O573 C572 1.275 . S
O574 Tb556 2.513 . S
O574 C572 1.246 . S
C575 O559 1.245 . S
C575 O560 1.259 . S
Tb576 O579 2.453 . S
Tb576 O580 2.596 . S
Tb576 O581 2.374 . S
Tb576 O589 2.343 . S
Tb576 O591 2.353 . S
Tb576 O593 2.427 . S
Tb576 O594 2.513 . S
C577 O581 1.251 . S
C577 O583 1.263 . S
Tb578 O580 2.343 . S
Tb578 O583 2.353 . S
Tb578 O586 2.427 . S
Tb578 O587 2.513 . S
Tb578 O588 2.453 . S
Tb578 O589 2.596 . S
Tb578 O590 2.374 . S
O579 Tb576 2.453 . S
O579 C595 1.245 . S
O580 Tb576 2.596 . S
O580 Tb578 2.343 . S
O580 C595 1.259 . S
O581 Tb576 2.374 . S
O581 C577 1.251 . S
C582 O586 1.275 . S
C582 O587 1.246 . S
O583 C577 1.263 . S
O583 Tb578 2.353 . S
C584 O588 1.245 . S
C584 O589 1.259 . S
C585 O590 1.250 . S
C585 O591 1.263 . S
O586 Tb578 2.427 . S
O586 C582 1.275 . S
O587 Tb578 2.513 . S
O587 C582 1.246 . S
O588 Tb578 2.453 . S
O588 C584 1.245 . S
O589 Tb576 2.343 . S
O589 Tb578 2.596 . S
O589 C584 1.259 . S
O590 Tb578 2.374 . S
O590 C585 1.250 . S
O591 Tb576 2.353 . S
O591 C585 1.263 . S
C592 O593 1.275 . S
C592 O594 1.246 . S
O593 Tb576 2.427 . S
O593 C592 1.275 . S
O594 Tb576 2.513 . S
O594 C592 1.246 . S
C595 O579 1.245 . S
C595 O580 1.259 . S
Tb596 O599 2.453 . S
Tb596 O600 2.596 . S
Tb596 O601 2.374 . S
Tb596 O609 2.343 . S
Tb596 O611 2.353 . S
Tb596 O613 2.427 . S
Tb596 O614 2.513 . S
C597 O601 1.251 . S
C597 O603 1.263 . S
Tb598 O600 2.343 . S
Tb598 O603 2.353 . S
Tb598 O606 2.427 . S
Tb598 O607 2.513 . S
Tb598 O608 2.453 . S
Tb598 O609 2.596 . S
Tb598 O610 2.374 . S
O599 Tb596 2.453 . S
O599 C615 1.245 . S
O600 Tb596 2.596 . S
O600 Tb598 2.343 . S
O600 C615 1.259 . S
O601 Tb596 2.374 . S
O601 C597 1.251 . S
C602 O606 1.275 . S
C602 O607 1.246 . S
O603 C597 1.263 . S
O603 Tb598 2.353 . S
C604 O608 1.245 . S
C604 O609 1.259 . S
C605 O610 1.250 . S
C605 O611 1.263 . S
O606 Tb598 2.427 . S
O606 C602 1.275 . S
O607 Tb598 2.513 . S
O607 C602 1.246 . S
O608 Tb598 2.453 . S
O608 C604 1.245 . S
O609 Tb596 2.343 . S
O609 Tb598 2.596 . S
O609 C604 1.259 . S
O610 Tb598 2.374 . S
O610 C605 1.250 . S
O611 Tb596 2.353 . S
O611 C605 1.263 . S
C612 O613 1.275 . S
C612 O614 1.246 . S
O613 Tb596 2.427 . S
O613 C612 1.275 . S
O614 Tb596 2.513 . S
O614 C612 1.246 . S
C615 O599 1.245 . S
C615 O600 1.259 . S
Tb616 O619 2.453 . S
Tb616 O620 2.596 . S
Tb616 O621 2.374 . S
Tb616 O629 2.343 . S
Tb616 O631 2.353 . S
Tb616 O633 2.427 . S
Tb616 O634 2.513 . S
C617 O621 1.251 . S
C617 O623 1.263 . S
Tb618 O620 2.343 . S
Tb618 O623 2.353 . S
Tb618 O626 2.427 . S
Tb618 O627 2.513 . S
Tb618 O628 2.453 . S
Tb618 O629 2.596 . S
Tb618 O630 2.374 . S
O619 Tb616 2.453 . S
O619 C635 1.245 . S
O620 Tb616 2.596 . S
O620 Tb618 2.343 . S
O620 C635 1.259 . S
O621 Tb616 2.374 . S
O621 C617 1.251 . S
C622 O626 1.275 . S
C622 O627 1.246 . S
O623 C617 1.263 . S
O623 Tb618 2.353 . S
C624 O628 1.245 . S
C624 O629 1.259 . S
C625 O630 1.250 . S
C625 O631 1.263 . S
O626 Tb618 2.427 . S
O626 C622 1.275 . S
O627 Tb618 2.513 . S
O627 C622 1.246 . S
O628 Tb618 2.453 . S
O628 C624 1.245 . S
O629 Tb616 2.343 . S
O629 Tb618 2.596 . S
O629 C624 1.259 . S
O630 Tb618 2.374 . S
O630 C625 1.250 . S
O631 Tb616 2.353 . S
O631 C625 1.263 . S
C632 O633 1.275 . S
C632 O634 1.246 . S
O633 Tb616 2.427 . S
O633 C632 1.275 . S
O634 Tb616 2.513 . S
O634 C632 1.246 . S
C635 O619 1.245 . S
C635 O620 1.259 . S
Tb636 O639 2.453 . S
Tb636 O640 2.596 . S
Tb636 O641 2.374 . S
Tb636 O649 2.343 . S
Tb636 O651 2.353 1_554 S
Tb636 O653 2.427 1_554 S
Tb636 O654 2.513 . S
C637 O641 1.251 . S
C637 O643 1.263 1_455 S
Tb638 O640 2.343 1_655 S
Tb638 O643 2.353 . S
Tb638 O646 2.427 . S
Tb638 O647 2.513 . S
Tb638 O648 2.453 . S
Tb638 O649 2.596 1_655 S
Tb638 O650 2.374 1_554 S
O639 Tb636 2.453 . S
O639 C655 1.245 . S
O640 Tb636 2.596 . S
O640 Tb638 2.343 1_455 S
O640 C655 1.259 . S
O641 Tb636 2.374 . S
O641 C637 1.251 . S
C642 O646 1.275 . S
C642 O647 1.246 . S
O643 C637 1.263 1_655 S
O643 Tb638 2.353 . S
C644 O648 1.245 1_556 S
C644 O649 1.259 1_656 S
C645 O650 1.250 . S
C645 O651 1.263 1_655 S
O646 Tb638 2.427 . S
O646 C642 1.275 . S
O647 Tb638 2.513 . S
O647 C642 1.246 . S
O648 Tb638 2.453 . S
O648 C644 1.245 1_554 S
O649 Tb636 2.343 . S
O649 Tb638 2.596 1_455 S
O649 C644 1.259 1_454 S
O650 Tb638 2.374 1_556 S
O650 C645 1.250 . S
O651 Tb636 2.353 1_556 S
O651 C645 1.263 1_455 S
C652 O653 1.275 . S
C652 O654 1.246 1_556 S
O653 Tb636 2.427 1_556 S
O653 C652 1.275 . S
O654 Tb636 2.513 . S
O654 C652 1.246 1_554 S
C655 O639 1.245 . S
C655 O640 1.259 . S
H656 C662 0.930 1_655 S
H657 C665 0.930 . S
H658 C666 0.930 . S
H659 C667 0.930 1_554 S
H660 C670 0.930 1_655 S
H661 C671 0.930 . S
C662 H656 0.930 1_455 S
C662 C663 1.355 . S
C662 C664 1.415 . S
C663 C662 1.355 . S
C663 C665 1.419 . S
C664 C662 1.415 . S
C664 C669 1.425 . S
C664 C671 1.409 1_455 S
C665 H657 0.930 . S
C665 C663 1.419 . S
C665 C666 1.362 . S
C666 H658 0.930 . S
C666 C665 1.362 . S
C666 C669 1.409 . S
C667 H659 0.930 1_556 S
C667 C668 1.355 . S
C667 C669 1.415 . S
C668 C667 1.355 . S
C668 C670 1.420 . S
C669 C664 1.425 . S
C669 C666 1.409 . S
C669 C667 1.415 . S
C670 H660 0.930 1_455 S
C670 C668 1.420 . S
C670 C671 1.362 1_455 S
C671 H661 0.930 . S
C671 C664 1.409 1_655 S
C671 C670 1.362 1_655 S
H672 C678 0.930 . S
H673 C681 0.930 . S
H674 C682 0.930 . S
H675 C683 0.930 . S
H676 C686 0.930 . S
H677 C687 0.930 . S
C678 H672 0.930 . S
C678 C679 1.355 . S
C678 C680 1.415 . S
C679 C678 1.355 . S
C679 C681 1.419 . S
C680 C678 1.415 . S
C680 C685 1.425 . S
C680 C687 1.409 . S
C681 H673 0.930 . S
C681 C679 1.419 . S
C681 C682 1.362 . S
C682 H674 0.930 . S
C682 C681 1.362 . S
C682 C685 1.409 . S
C683 H675 0.930 . S
C683 C684 1.355 . S
C683 C685 1.415 . S
C684 C683 1.355 . S
C684 C686 1.419 . S
C685 C680 1.425 . S
C685 C682 1.409 . S
C685 C683 1.415 . S
C686 H676 0.930 . S
C686 C684 1.419 . S
C686 C687 1.362 . S
C687 H677 0.930 . S
C687 C680 1.409 . S
C687 C686 1.362 . S
H688 C694 0.930 . S
H689 C697 0.930 . S
H690 C698 0.930 . S
H691 C699 0.930 . S
H692 C702 0.930 . S
H693 C703 0.930 . S
C694 H688 0.930 . S
C694 C695 1.355 . S
C694 C696 1.415 . S
C695 C694 1.355 . S
C695 C697 1.419 . S
C696 C694 1.415 . S
C696 C701 1.425 . S
C696 C703 1.409 . S
C697 H689 0.930 . S
C697 C695 1.419 . S
C697 C698 1.362 . S
C698 H690 0.930 . S
C698 C697 1.362 . S
C698 C701 1.409 . S
C699 H691 0.930 . S
C699 C700 1.355 . S
C699 C701 1.415 . S
C700 C699 1.355 . S
C700 C702 1.419 . S
C701 C696 1.425 . S
C701 C698 1.409 . S
C701 C699 1.415 . S
C702 H692 0.930 . S
C702 C700 1.419 . S
C702 C703 1.362 . S
C703 H693 0.930 . S
C703 C696 1.409 . S
C703 C702 1.362 . S
H704 C710 0.930 . S
H705 C713 0.930 . S
H706 C714 0.930 . S
H707 C715 0.930 . S
H708 C718 0.930 . S
H709 C719 0.930 . S
C710 H704 0.930 . S
C710 C711 1.355 . S
C710 C712 1.415 . S
C711 C710 1.355 . S
C711 C713 1.419 . S
C712 C710 1.415 . S
C712 C717 1.425 . S
C712 C719 1.409 . S
C713 H705 0.930 . S
C713 C711 1.419 . S
C713 C714 1.362 . S
C714 H706 0.930 . S
C714 C713 1.362 . S
C714 C717 1.409 . S
C715 H707 0.930 . S
C715 C716 1.355 . S
C715 C717 1.415 . S
C716 C715 1.355 . S
C716 C718 1.419 . S
C717 C712 1.425 . S
C717 C714 1.409 . S
C717 C715 1.415 . S
C718 H708 0.930 . S
C718 C716 1.419 . S
C718 C719 1.362 . S
C719 H709 0.930 . S
C719 C712 1.409 . S
C719 C718 1.362 . S
H720 C726 0.930 . S
H721 C729 0.930 . S
H722 C730 0.930 . S
H723 C731 0.930 . S
H724 C734 0.930 . S
H725 C735 0.930 . S
C726 H720 0.930 . S
C726 C727 1.355 1_655 S
C726 C728 1.415 . S
C727 C726 1.355 1_455 S
C727 C729 1.419 . S
C728 C726 1.415 . S
C728 C733 1.425 1_655 S
C728 C735 1.409 . S
C729 H721 0.930 . S
C729 C727 1.419 . S
C729 C730 1.362 . S
C730 H722 0.930 . S
C730 C729 1.362 . S
C730 C733 1.409 . S
C731 H723 0.930 . S
C731 C732 1.355 . S
C731 C733 1.415 . S
C732 C731 1.355 . S
C732 C734 1.419 1_455 S
C733 C728 1.425 1_455 S
C733 C730 1.409 . S
C733 C731 1.415 . S
C734 H724 0.930 . S
C734 C732 1.419 1_655 S
C734 C735 1.362 . S
C735 H725 0.930 . S
C735 C728 1.409 . S
C735 C734 1.362 . S
H736 C742 0.930 . S
H737 C745 0.930 . S
H738 C746 0.930 . S
H739 C747 0.930 . S
H740 C750 0.930 . S
H741 C751 0.930 . S
C742 H736 0.930 . S
C742 C743 1.355 . S
C742 C744 1.415 . S
C743 C742 1.355 . S
C743 C745 1.419 . S
C744 C742 1.415 . S
C744 C749 1.425 . S
C744 C751 1.409 . S
C745 H737 0.930 . S
C745 C743 1.419 . S
C745 C746 1.362 . S
C746 H738 0.930 . S
C746 C745 1.362 . S
C746 C749 1.409 . S
C747 H739 0.930 . S
C747 C748 1.355 . S
C747 C749 1.415 . S
C748 C747 1.355 . S
C748 C750 1.419 . S
C749 C744 1.425 . S
C749 C746 1.409 . S
C749 C747 1.415 . S
C750 H740 0.930 . S
C750 C748 1.419 . S
C750 C751 1.362 . S
C751 H741 0.930 . S
C751 C744 1.409 . S
C751 C750 1.362 . S
H752 C758 0.930 . S
H753 C761 0.930 . S
H754 C762 0.930 . S
H755 C763 0.930 . S
H756 C766 0.930 . S
H757 C767 0.930 . S
C758 H752 0.930 . S
C758 C759 1.355 . S
C758 C760 1.415 . S
C759 C758 1.355 . S
C759 C761 1.419 . S
C760 C758 1.415 . S
C760 C765 1.425 . S
C760 C767 1.409 . S
C761 H753 0.930 . S
C761 C759 1.419 . S
C761 C762 1.362 . S
C762 H754 0.930 . S
C762 C761 1.362 . S
C762 C765 1.409 . S
C763 H755 0.930 . S
C763 C764 1.355 . S
C763 C765 1.415 . S
C764 C763 1.355 . S
C764 C766 1.419 . S
C765 C760 1.425 . S
C765 C762 1.409 . S
C765 C763 1.415 . S
C766 H756 0.930 . S
C766 C764 1.419 . S
C766 C767 1.362 . S
C767 H757 0.930 . S
C767 C760 1.409 . S
C767 C766 1.362 . S
H768 C774 0.930 . S
H769 C777 0.930 . S
H770 C778 0.930 . S
H771 C779 0.930 . S
H772 C782 0.930 . S
H773 C783 0.930 . S
C774 H768 0.930 . S
C774 C775 1.355 . S
C774 C776 1.415 . S
C775 C774 1.355 . S
C775 C777 1.419 . S
C776 C774 1.415 . S
C776 C781 1.425 . S
C776 C783 1.409 . S
C777 H769 0.930 . S
C777 C775 1.419 . S
C777 C778 1.362 . S
C778 H770 0.930 . S
C778 C777 1.362 . S
C778 C781 1.409 . S
C779 H771 0.930 . S
C779 C780 1.355 . S
C779 C781 1.415 . S
C780 C779 1.355 . S
C780 C782 1.419 . S
C781 C776 1.425 . S
C781 C778 1.409 . S
C781 C779 1.415 . S
C782 H772 0.930 . S
C782 C780 1.419 . S
C782 C783 1.362 . S
C783 H773 0.930 . S
C783 C776 1.409 . S
C783 C782 1.362 . S
H784 C790 0.930 . S
H785 C793 0.930 . S
H786 C794 0.930 . S
H787 C795 0.930 . S
H788 C798 0.930 . S
H789 C799 0.945 . S
C790 H784 0.930 . S
C790 C791 1.355 . S
C790 C792 1.415 . S
C791 C790 1.355 . S
C791 C793 1.419 . S
C792 C790 1.415 . S
C792 C797 1.425 . S
C792 C799 1.409 . S
C793 H785 0.930 . S
C793 C791 1.419 . S
C793 C794 1.362 . S
C794 H786 0.930 . S
C794 C793 1.362 . S
C794 C797 1.409 . S
C795 H787 0.930 . S
C795 C796 1.355 . S
C795 C797 1.415 . S
C796 C795 1.355 . S
C796 C798 1.419 . S
C797 C792 1.425 . S
C797 C794 1.409 . S
C797 C795 1.415 . S
C798 H788 0.930 . S
C798 C796 1.419 . S
C798 C799 1.362 . S
C799 H789 0.945 . S
C799 C792 1.409 . S
C799 C798 1.362 . S
H800 C806 0.930 . S
H801 C809 0.930 . S
H802 C810 0.930 . S
H803 C811 0.930 . S
H804 C814 0.930 . S
H805 C815 0.930 . S
C806 H800 0.930 . S
C806 C807 1.355 . S
C806 C808 1.415 . S
C807 C806 1.355 . S
C807 C809 1.419 . S
C808 C806 1.415 . S
C808 C813 1.425 . S
C808 C815 1.409 . S
C809 H801 0.930 . S
C809 C807 1.419 . S
C809 C810 1.362 . S
C810 H802 0.930 . S
C810 C809 1.362 . S
C810 C813 1.409 . S
C811 H803 0.930 . S
C811 C812 1.355 . S
C811 C813 1.415 . S
C812 C811 1.355 . S
C812 C814 1.419 . S
C813 C808 1.425 . S
C813 C810 1.409 . S
C813 C811 1.415 . S
C814 H804 0.930 . S
C814 C812 1.419 . S
C814 C815 1.362 . S
C815 H805 0.930 . S
C815 C808 1.409 . S
C815 C814 1.362 . S
H816 C822 0.930 . S
H817 C825 0.930 . S
H818 C826 0.930 . S
H819 C827 0.930 . S
H820 C830 0.930 . S
H821 C831 0.930 . S
C822 H816 0.930 . S
C822 C823 1.355 1_565 S
C822 C824 1.415 1_565 S
C823 C822 1.355 1_545 S
C823 C825 1.419 . S
C824 C822 1.415 1_545 S
C824 C829 1.425 . S
C824 C831 1.409 1_545 S
C825 H817 0.930 . S
C825 C823 1.419 . S
C825 C826 1.362 . S
C826 H818 0.930 . S
C826 C825 1.362 . S
C826 C829 1.409 . S
C827 H819 0.930 . S
C827 C828 1.355 . S
C827 C829 1.415 . S
C828 C827 1.355 . S
C828 C830 1.419 1_545 S
C829 C824 1.425 . S
C829 C826 1.409 . S
C829 C827 1.415 . S
C830 H820 0.930 . S
C830 C828 1.419 1_565 S
C830 C831 1.362 . S
C831 H821 0.930 . S
C831 C824 1.409 1_565 S
C831 C830 1.362 . S
H832 C838 0.930 . S
H833 C841 0.930 . S
H834 C842 0.930 . S
H835 C843 0.930 . S
H836 C846 0.930 . S
H837 C847 0.930 . S
C838 H832 0.930 . S
C838 C839 1.355 . S
C838 C840 1.415 . S
C839 C838 1.355 . S
C839 C841 1.419 . S
C840 C838 1.415 . S
C840 C845 1.425 . S
C840 C847 1.409 . S
C841 H833 0.930 . S
C841 C839 1.419 . S
C841 C842 1.362 . S
C842 H834 0.930 . S
C842 C841 1.362 . S
C842 C845 1.409 . S
C843 H835 0.930 . S
C843 C844 1.355 . S
C843 C845 1.415 . S
C844 C843 1.355 . S
C844 C846 1.419 . S
C845 C840 1.425 . S
C845 C842 1.409 . S
C845 C843 1.415 . S
C846 H836 0.930 . S
C846 C844 1.419 . S
C846 C847 1.362 . S
C847 H837 0.930 . S
C847 C840 1.409 . S
C847 C846 1.362 . S
H848 C854 0.930 . S
H849 C857 0.930 . S
H850 C858 0.930 . S
H851 C859 0.930 . S
H852 C862 0.958 . S
H853 C863 0.930 1_455 S
C854 H848 0.930 . S
C854 C855 1.355 . S
C854 C856 1.415 . S
C855 C854 1.355 . S
C855 C857 1.419 . S
C856 C854 1.415 . S
C856 C861 1.425 . S
C856 C863 1.409 . S
C857 H849 0.930 . S
C857 C855 1.419 . S
C857 C858 1.362 . S
C858 H850 0.930 . S
C858 C857 1.362 . S
C858 C861 1.409 . S
C859 H851 0.930 . S
C859 C860 1.355 . S
C859 C861 1.415 . S
C860 C859 1.355 . S
C860 C862 1.400 1_655 S
C861 C856 1.425 . S
C861 C858 1.409 . S
C861 C859 1.415 . S
C862 H852 0.958 . S
C862 C860 1.400 1_455 S
C862 C863 1.354 1_455 S
C863 H853 0.930 1_655 S
C863 C856 1.409 . S
C863 C862 1.354 1_655 S
H864 C870 0.930 . S
H865 C873 0.930 . S
H866 C874 0.930 . S
H867 C875 0.930 . S
H868 C878 0.930 . S
H869 C879 0.930 . S
C870 H864 0.930 . S
C870 C871 1.355 . S
C870 C872 1.415 . S
C871 C870 1.355 . S
C871 C873 1.419 . S
C872 C870 1.415 . S
C872 C877 1.425 . S
C872 C879 1.409 . S
C873 H865 0.930 . S
C873 C871 1.419 . S
C873 C874 1.362 . S
C874 H866 0.930 . S
C874 C873 1.362 . S
C874 C877 1.409 . S
C875 H867 0.930 . S
C875 C876 1.355 . S
C875 C877 1.415 . S
C876 C875 1.355 . S
C876 C878 1.419 . S
C877 C872 1.425 . S
C877 C874 1.409 . S
C877 C875 1.415 . S
C878 H868 0.930 . S
C878 C876 1.419 . S
C878 C879 1.362 . S
C879 H869 0.930 . S
C879 C872 1.409 . S
C879 C878 1.362 . S
H880 C886 0.930 . S
H881 C889 0.930 1_565 S
H882 C890 0.930 1_565 S
H883 C891 0.930 . S
H884 C894 0.930 . S
H885 C895 0.930 . S
C886 H880 0.930 . S
C886 C887 1.355 . S
C886 C888 1.415 . S
C887 C886 1.355 . S
C887 C889 1.419 . S
C888 C886 1.415 . S
C888 C893 1.425 . S
C888 C895 1.409 . S
C889 H881 0.930 1_545 S
C889 C887 1.419 . S
C889 C890 1.362 . S
C890 H882 0.930 1_545 S
C890 C889 1.362 . S
C890 C893 1.409 . S
C891 H883 0.930 . S
C891 C892 1.355 . S
C891 C893 1.415 . S
C892 C891 1.355 . S
C892 C894 1.419 . S
C893 C888 1.425 . S
C893 C890 1.409 . S
C893 C891 1.415 . S
C894 H884 0.930 . S
C894 C892 1.419 . S
C894 C895 1.362 . S
C895 H885 0.930 . S
C895 C888 1.409 . S
C895 C894 1.362 . S
H896 C902 0.930 . S
H897 C905 0.930 . S
H898 C906 0.930 . S
H899 C907 0.930 . S
H900 C910 0.930 . S
H901 C911 0.930 . S
C902 H896 0.930 . S
C902 C903 1.355 . S
C902 C904 1.415 . S
C903 C902 1.355 . S
C903 C905 1.419 . S
C904 C902 1.415 . S
C904 C909 1.425 . S
C904 C911 1.409 . S
C905 H897 0.930 . S
C905 C903 1.419 . S
C905 C906 1.362 . S
C906 H898 0.930 . S
C906 C905 1.362 . S
C906 C909 1.409 . S
C907 H899 0.930 . S
C907 C908 1.355 . S
C907 C909 1.415 . S
C908 C907 1.355 . S
C908 C910 1.419 . S
C909 C904 1.425 . S
C909 C906 1.409 . S
C909 C907 1.415 . S
C910 H900 0.930 . S
C910 C908 1.419 . S
C910 C911 1.362 . S
C911 H901 0.930 . S
C911 C904 1.409 . S
C911 C910 1.362 . S
H912 C918 0.930 1_556 S
H913 C921 0.930 . S
H914 C922 0.930 . S
H915 C923 0.930 1_545 S
H916 C926 0.930 1_556 S
H917 C927 0.930 . S
C918 H912 0.930 1_554 S
C918 C919 1.355 . S
C918 C920 1.415 . S
C919 C918 1.355 . S
C919 C921 1.419 . S
C920 C918 1.415 . S
C920 C925 1.425 . S
C920 C927 1.409 1_554 S
C921 H913 0.930 . S
C921 C919 1.419 . S
C921 C922 1.362 . S
C922 H914 0.930 . S
C922 C921 1.362 . S
C922 C925 1.409 . S
C923 H915 0.930 1_565 S
C923 C924 1.355 . S
C923 C925 1.415 . S
C924 C923 1.355 . S
C924 C926 1.419 . S
C925 C920 1.425 . S
C925 C922 1.409 . S
C925 C923 1.415 . S
C926 H916 0.930 1_554 S
C926 C924 1.419 . S
C926 C927 1.362 1_554 S
C927 H917 0.930 . S
C927 C920 1.409 1_556 S
C927 C926 1.362 1_556 S
H928 C934 0.930 . S
H929 C937 0.930 . S
H930 C938 0.930 . S
H931 C939 0.930 . S
H932 C942 0.930 . S
H933 C943 0.930 . S
C934 H928 0.930 . S
C934 C935 1.355 . S
C934 C936 1.415 . S
C935 C934 1.355 . S
C935 C937 1.419 1_556 S
C936 C934 1.415 . S
C936 C941 1.425 1_556 S
C936 C943 1.409 . S
C937 H929 0.930 . S
C937 C935 1.419 1_554 S
C937 C938 1.362 . S
C938 H930 0.930 . S
C938 C937 1.362 . S
C938 C941 1.409 . S
C939 H931 0.930 . S
C939 C940 1.355 1_554 S
C939 C941 1.415 . S
C940 C939 1.355 1_556 S
C940 C942 1.419 . S
C941 C936 1.425 1_554 S
C941 C938 1.409 . S
C941 C939 1.415 . S
C942 H932 0.930 . S
C942 C940 1.419 . S
C942 C943 1.362 . S
C943 H933 0.930 . S
C943 C936 1.409 . S
C943 C942 1.362 . S
H944 C950 0.930 . S
H945 C953 0.930 . S
H946 C954 0.930 . S
H947 C955 0.930 . S
H948 C958 0.930 . S
H949 C959 0.930 . S
C950 H944 0.930 . S
C950 C951 1.355 . S
C950 C952 1.415 . S
C951 C950 1.355 . S
C951 C953 1.419 . S
C952 C950 1.415 . S
C952 C957 1.425 . S
C952 C959 1.409 . S
C953 H945 0.930 . S
C953 C951 1.419 . S
C953 C954 1.362 . S
C954 H946 0.930 . S
C954 C953 1.362 . S
C954 C957 1.409 . S
C955 H947 0.930 . S
C955 C956 1.355 . S
C955 C957 1.415 . S
C956 C955 1.355 . S
C956 C958 1.419 . S
C957 C952 1.425 . S
C957 C954 1.409 . S
C957 C955 1.415 . S
C958 H948 0.930 . S
C958 C956 1.419 . S
C958 C959 1.362 . S
C959 H949 0.930 . S
C959 C952 1.409 . S
C959 C958 1.362 . S
H960 C966 0.930 . S
H961 C969 0.930 . S
H962 C970 0.930 . S
H963 C971 0.930 . S
H964 C974 0.930 . S
H965 C975 0.930 . S
C966 H960 0.930 . S
C966 C967 1.355 . S
C966 C968 1.415 . S
C967 C966 1.355 . S
C967 C969 1.419 . S
C968 C966 1.415 . S
C968 C973 1.425 . S
C968 C975 1.409 . S
C969 H961 0.930 . S
C969 C967 1.419 . S
C969 C970 1.362 . S
C970 H962 0.930 . S
C970 C969 1.362 . S
C970 C973 1.409 . S
C971 H963 0.930 . S
C971 C972 1.355 . S
C971 C973 1.415 . S
C972 C971 1.355 . S
C972 C974 1.419 . S
C973 C968 1.425 . S
C973 C970 1.409 . S
C973 C971 1.415 . S
C974 H964 0.930 . S
C974 C972 1.419 . S
C974 C975 1.362 . S
C975 H965 0.930 . S
C975 C968 1.409 . S
C975 C974 1.362 . S
H976 C982 0.930 . S
H977 C985 0.930 . S
H978 C986 0.930 . S
H979 C987 0.930 . S
H980 C990 0.930 . S
H981 C991 0.930 . S
C982 H976 0.930 . S
C982 C983 1.355 . S
C982 C984 1.415 . S
C983 C982 1.355 . S
C983 C985 1.419 . S
C984 C982 1.415 . S
C984 C989 1.425 . S
C984 C991 1.409 . S
C985 H977 0.930 . S
C985 C983 1.419 . S
C985 C986 1.362 . S
C986 H978 0.930 . S
C986 C985 1.362 . S
C986 C989 1.409 . S
C987 H979 0.930 . S
C987 C988 1.355 . S
C987 C989 1.415 . S
C988 C987 1.355 . S
C988 C990 1.419 . S
C989 C984 1.425 . S
C989 C986 1.409 . S
C989 C987 1.415 . S
C990 H980 0.930 . S
C990 C988 1.419 . S
C990 C991 1.362 . S
C991 H981 0.930 . S
C991 C984 1.409 . S
C991 C990 1.362 . S
H992 C998 0.930 . S
H993 C1001 0.930 . S
H994 C1002 0.930 . S
H995 C1003 0.930 . S
H996 C1006 0.930 . S
H997 C1007 0.930 . S
C998 H992 0.930 . S
C998 C999 1.355 . S
C998 C1000 1.415 . S
C999 C998 1.355 . S
C999 C1001 1.419 . S
C1000 C998 1.415 . S
C1000 C1005 1.425 . S
C1000 C1007 1.409 . S
C1001 H993 0.930 . S
C1001 C999 1.419 . S
C1001 C1002 1.362 . S
C1002 H994 0.930 . S
C1002 C1001 1.362 . S
C1002 C1005 1.409 . S
C1003 H995 0.930 . S
C1003 C1004 1.355 . S
C1003 C1005 1.415 . S
C1004 C1003 1.355 . S
C1004 C1006 1.419 . S
C1005 C1000 1.425 . S
C1005 C1002 1.409 . S
C1005 C1003 1.415 . S
C1006 H996 0.930 . S
C1006 C1004 1.419 . S
C1006 C1007 1.362 . S
C1007 H997 0.930 . S
C1007 C1000 1.409 . S
C1007 C1006 1.362 . S
H1008 C1014 0.930 . S
H1009 C1017 0.930 . S
H1010 C1018 0.930 . S
H1011 C1019 0.930 . S
H1012 C1022 0.930 . S
H1013 C1023 0.930 . S
C1014 H1008 0.930 . S
C1014 C1015 1.355 . S
C1014 C1016 1.415 . S
C1015 C1014 1.355 . S
C1015 C1017 1.419 . S
C1016 C1014 1.415 . S
C1016 C1021 1.425 . S
C1016 C1023 1.409 . S
C1017 H1009 0.930 . S
C1017 C1015 1.419 . S
C1017 C1018 1.362 . S
C1018 H1010 0.930 . S
C1018 C1017 1.362 . S
C1018 C1021 1.409 . S
C1019 H1011 0.930 . S
C1019 C1020 1.355 . S
C1019 C1021 1.415 . S
C1020 C1019 1.355 . S
C1020 C1022 1.419 . S
C1021 C1016 1.425 . S
C1021 C1018 1.409 . S
C1021 C1019 1.415 . S
C1022 H1012 0.930 . S
C1022 C1020 1.419 . S
C1022 C1023 1.362 . S
C1023 H1013 0.930 . S
C1023 C1016 1.409 . S
C1023 C1022 1.362 . S
H1024 C1030 0.930 . S
H1025 C1033 0.930 . S
H1026 C1034 0.930 . S
H1027 C1035 0.930 . S
H1028 C1038 0.930 . S
H1029 C1039 0.930 . S
C1030 H1024 0.930 . S
C1030 C1031 1.355 . S
C1030 C1032 1.415 . S
C1031 C1030 1.355 . S
C1031 C1033 1.419 . S
C1032 C1030 1.415 . S
C1032 C1037 1.425 . S
C1032 C1039 1.409 . S
C1033 H1025 0.930 . S
C1033 C1031 1.419 . S
C1033 C1034 1.362 . S
C1034 H1026 0.930 . S
C1034 C1033 1.362 . S
C1034 C1037 1.409 . S
C1035 H1027 0.930 . S
C1035 C1036 1.355 . S
C1035 C1037 1.415 . S
C1036 C1035 1.355 . S
C1036 C1038 1.419 . S
C1037 C1032 1.425 . S
C1037 C1034 1.409 . S
C1037 C1035 1.415 . S
C1038 H1028 0.930 . S
C1038 C1036 1.419 . S
C1038 C1039 1.362 . S
C1039 H1029 0.930 . S
C1039 C1032 1.409 . S
C1039 C1038 1.362 . S
H1040 C1046 0.930 . S
H1041 C1049 0.930 . S
H1042 C1050 0.930 . S
H1043 C1051 0.930 . S
H1044 C1054 0.930 . S
H1045 C1055 0.930 . S
C1046 H1040 0.930 . S
C1046 C1047 1.355 1_655 S
C1046 C1048 1.415 1_655 S
C1047 C1046 1.355 1_455 S
C1047 C1049 1.419 . S
C1048 C1046 1.415 1_455 S
C1048 C1053 1.425 . S
C1048 C1055 1.409 1_455 S
C1049 H1041 0.930 . S
C1049 C1047 1.419 . S
C1049 C1050 1.362 . S
C1050 H1042 0.930 . S
C1050 C1049 1.362 . S
C1050 C1053 1.409 . S
C1051 H1043 0.930 . S
C1051 C1052 1.355 . S
C1051 C1053 1.415 . S
C1052 C1051 1.355 . S
C1052 C1054 1.419 1_455 S
C1053 C1048 1.425 . S
C1053 C1050 1.409 . S
C1053 C1051 1.415 . S
C1054 H1044 0.930 . S
C1054 C1052 1.419 1_655 S
C1054 C1055 1.362 . S
C1055 H1045 0.930 . S
C1055 C1048 1.409 1_655 S
C1055 C1054 1.362 . S
H1056 C1062 0.930 . S
H1057 C1065 0.930 . S
H1058 C1066 0.930 . S
H1059 C1067 0.930 . S
H1060 C1070 0.930 . S
H1061 C1071 0.930 . S
C1062 H1056 0.930 . S
C1062 C1063 1.355 . S
C1062 C1064 1.415 . S
C1063 C1062 1.355 . S
C1063 C1065 1.419 . S
C1064 C1062 1.415 . S
C1064 C1069 1.425 . S
C1064 C1071 1.409 . S
C1065 H1057 0.930 . S
C1065 C1063 1.419 . S
C1065 C1066 1.362 . S
C1066 H1058 0.930 . S
C1066 C1065 1.362 . S
C1066 C1069 1.409 . S
C1067 H1059 0.930 . S
C1067 C1068 1.355 . S
C1067 C1069 1.415 . S
C1068 C1067 1.355 . S
C1068 C1070 1.419 . S
C1069 C1064 1.425 . S
C1069 C1066 1.409 . S
C1069 C1067 1.415 . S
C1070 H1060 0.930 . S
C1070 C1068 1.419 . S
C1070 C1071 1.362 . S
C1071 H1061 0.930 . S
C1071 C1064 1.409 . S
C1071 C1070 1.362 . S
H1072 C1078 0.930 . S
H1073 C1081 0.930 . S
H1074 C1082 0.930 . S
H1075 C1083 0.930 . S
H1076 C1086 0.930 . S
H1077 C1087 0.930 . S
C1078 H1072 0.930 . S
C1078 C1079 1.355 . S
C1078 C1080 1.415 . S
C1079 C1078 1.355 . S
C1079 C1081 1.419 . S
C1080 C1078 1.415 . S
C1080 C1085 1.425 . S
C1080 C1087 1.409 . S
C1081 H1073 0.930 . S
C1081 C1079 1.419 . S
C1081 C1082 1.362 . S
C1082 H1074 0.930 . S
C1082 C1081 1.362 . S
C1082 C1085 1.409 . S
C1083 H1075 0.930 . S
C1083 C1084 1.355 . S
C1083 C1085 1.415 . S
C1084 C1083 1.355 . S
C1084 C1086 1.419 . S
C1085 C1080 1.425 . S
C1085 C1082 1.409 . S
C1085 C1083 1.415 . S
C1086 H1076 0.930 . S
C1086 C1084 1.419 . S
C1086 C1087 1.362 . S
C1087 H1077 0.930 . S
C1087 C1080 1.409 . S
C1087 C1086 1.362 . S
H1088 C1094 0.930 . S
H1089 C1097 0.930 . S
H1090 C1098 0.930 . S
H1091 C1099 0.930 . S
H1092 C1102 0.930 . S
H1093 C1103 0.930 . S
C1094 H1088 0.930 . S
C1094 C1095 1.355 . S
C1094 C1096 1.415 . S
C1095 C1094 1.355 . S
C1095 C1097 1.419 . S
C1096 C1094 1.415 . S
C1096 C1101 1.425 . S
C1096 C1103 1.409 . S
C1097 H1089 0.930 . S
C1097 C1095 1.419 . S
C1097 C1098 1.362 . S
C1098 H1090 0.930 . S
C1098 C1097 1.362 . S
C1098 C1101 1.409 . S
C1099 H1091 0.930 . S
C1099 C1100 1.355 . S
C1099 C1101 1.415 . S
C1100 C1099 1.355 . S
C1100 C1102 1.419 . S
C1101 C1096 1.425 . S
C1101 C1098 1.409 . S
C1101 C1099 1.415 . S
C1102 H1092 0.930 . S
C1102 C1100 1.419 . S
C1102 C1103 1.362 . S
C1103 H1093 0.930 . S
C1103 C1096 1.409 . S
C1103 C1102 1.362 . S
H1104 C1110 0.930 . S
H1105 C1113 0.930 . S
H1106 C1114 0.930 . S
H1107 C1115 0.930 . S
H1108 C1118 0.930 . S
H1109 C1119 0.930 . S
C1110 H1104 0.930 . S
C1110 C1111 1.355 1_655 S
C1110 C1112 1.415 . S
C1111 C1110 1.355 1_455 S
C1111 C1113 1.419 . S
C1112 C1110 1.415 . S
C1112 C1117 1.425 1_655 S
C1112 C1119 1.409 . S
C1113 H1105 0.930 . S
C1113 C1111 1.419 . S
C1113 C1114 1.362 . S
C1114 H1106 0.930 . S
C1114 C1113 1.362 . S
C1114 C1117 1.409 . S
C1115 H1107 0.930 . S
C1115 C1116 1.355 . S
C1115 C1117 1.415 . S
C1116 C1115 1.355 . S
C1116 C1118 1.419 1_455 S
C1117 C1112 1.425 1_455 S
C1117 C1114 1.409 . S
C1117 C1115 1.415 . S
C1118 H1108 0.930 . S
C1118 C1116 1.419 1_655 S
C1118 C1119 1.362 . S
C1119 H1109 0.930 . S
C1119 C1112 1.409 . S
C1119 C1118 1.362 . S
H1120 C1126 0.930 . S
H1121 C1129 0.930 . S
H1122 C1130 0.930 . S
H1123 C1131 0.930 . S
H1124 C1134 0.930 . S
H1125 C1135 0.930 . S
C1126 H1120 0.930 . S
C1126 C1127 1.355 . S
C1126 C1128 1.415 . S
C1127 C1126 1.355 . S
C1127 C1129 1.419 . S
C1128 C1126 1.415 . S
C1128 C1133 1.425 . S
C1128 C1135 1.409 . S
C1129 H1121 0.930 . S
C1129 C1127 1.419 . S
C1129 C1130 1.362 . S
C1130 H1122 0.930 . S
C1130 C1129 1.362 . S
C1130 C1133 1.409 . S
C1131 H1123 0.930 . S
C1131 C1132 1.355 . S
C1131 C1133 1.415 . S
C1132 C1131 1.355 . S
C1132 C1134 1.419 . S
C1133 C1128 1.425 . S
C1133 C1130 1.409 . S
C1133 C1131 1.415 . S
C1134 H1124 0.930 . S
C1134 C1132 1.419 . S
C1134 C1135 1.362 . S
C1135 H1125 0.930 . S
C1135 C1128 1.409 . S
C1135 C1134 1.362 . S
H1136 C1142 0.930 . S
H1137 C1145 0.930 . S
H1138 C1146 0.930 . S
H1139 C1147 0.930 . S
H1140 C1150 0.930 . S
H1141 C1151 0.930 1_554 S
C1142 H1136 0.930 . S
C1142 C1143 1.355 . S
C1142 C1144 1.415 . S
C1143 C1142 1.355 . S
C1143 C1145 1.419 . S
C1144 C1142 1.415 . S
C1144 C1149 1.425 . S
C1144 C1151 1.409 . S
C1145 H1137 0.930 . S
C1145 C1143 1.419 . S
C1145 C1146 1.362 . S
C1146 H1138 0.930 . S
C1146 C1145 1.362 . S
C1146 C1149 1.409 . S
C1147 H1139 0.930 . S
C1147 C1148 1.355 . S
C1147 C1149 1.415 . S
C1148 C1147 1.355 . S
C1148 C1150 1.419 1_556 S
C1149 C1144 1.425 . S
C1149 C1146 1.409 . S
C1149 C1147 1.415 . S
C1150 H1140 0.930 . S
C1150 C1148 1.419 1_554 S
C1150 C1151 1.362 1_554 S
C1151 H1141 0.930 1_556 S
C1151 C1144 1.409 . S
C1151 C1150 1.362 1_556 S
H1152 C1158 0.930 . S
H1153 C1161 0.930 . S
H1154 C1162 0.930 . S
H1155 C1163 0.930 . S
H1156 C1166 0.930 . S
H1157 C1167 0.930 . S
C1158 H1152 0.930 . S
C1158 C1159 1.355 . S
C1158 C1160 1.415 . S
C1159 C1158 1.355 . S
C1159 C1161 1.419 . S
C1160 C1158 1.415 . S
C1160 C1165 1.425 . S
C1160 C1167 1.409 . S
C1161 H1153 0.930 . S
C1161 C1159 1.419 . S
C1161 C1162 1.362 . S
C1162 H1154 0.930 . S
C1162 C1161 1.362 . S
C1162 C1165 1.409 . S
C1163 H1155 0.930 . S
C1163 C1164 1.355 . S
C1163 C1165 1.415 . S
C1164 C1163 1.355 . S
C1164 C1166 1.419 . S
C1165 C1160 1.425 . S
C1165 C1162 1.409 . S
C1165 C1163 1.415 . S
C1166 H1156 0.930 . S
C1166 C1164 1.419 . S
C1166 C1167 1.362 . S
C1167 H1157 0.930 . S
C1167 C1160 1.409 . S
C1167 C1166 1.362 . S
H1168 C1174 0.930 . S
H1169 C1177 0.930 . S
H1170 C1178 0.930 . S
H1171 C1179 0.930 . S
H1172 C1182 0.930 . S
H1173 C1183 0.930 . S
C1174 H1168 0.930 . S
C1174 C1175 1.355 1_565 S
C1174 C1176 1.415 . S
C1175 C1174 1.355 1_545 S
C1175 C1177 1.419 . S
C1176 C1174 1.415 . S
C1176 C1181 1.425 1_565 S
C1176 C1183 1.409 . S
C1177 H1169 0.930 . S
C1177 C1175 1.419 . S
C1177 C1178 1.362 . S
C1178 H1170 0.930 . S
C1178 C1177 1.362 . S
C1178 C1181 1.409 . S
C1179 H1171 0.930 . S
C1179 C1180 1.355 . S
C1179 C1181 1.415 . S
C1180 C1179 1.355 . S
C1180 C1182 1.419 1_545 S
C1181 C1176 1.425 1_545 S
C1181 C1178 1.409 . S
C1181 C1179 1.415 . S
C1182 H1172 0.930 . S
C1182 C1180 1.419 1_565 S
C1182 C1183 1.362 . S
C1183 H1173 0.930 . S
C1183 C1176 1.409 . S
C1183 C1182 1.362 . S
H1184 C1190 0.930 . S
H1185 C1193 0.930 . S
H1186 C1194 0.930 . S
H1187 C1195 0.930 . S
H1188 C1198 0.930 . S
H1189 C1199 0.930 . S
C1190 H1184 0.930 . S
C1190 C1191 1.355 . S
C1190 C1192 1.415 . S
C1191 C1190 1.355 . S
C1191 C1193 1.419 . S
C1192 C1190 1.415 . S
C1192 C1197 1.425 . S
C1192 C1199 1.409 . S
C1193 H1185 0.930 . S
C1193 C1191 1.419 . S
C1193 C1194 1.362 . S
C1194 H1186 0.930 . S
C1194 C1193 1.362 . S
C1194 C1197 1.409 . S
C1195 H1187 0.930 . S
C1195 C1196 1.355 . S
C1195 C1197 1.415 . S
C1196 C1195 1.355 . S
C1196 C1198 1.419 . S
C1197 C1192 1.425 . S
C1197 C1194 1.409 . S
C1197 C1195 1.415 . S
C1198 H1188 0.930 . S
C1198 C1196 1.419 . S
C1198 C1199 1.362 . S
C1199 H1189 0.930 . S
C1199 C1192 1.409 . S
C1199 C1198 1.362 . S
H1200 C1206 0.930 . S
H1201 C1209 0.930 . S
H1202 C1210 0.930 . S
H1203 C1211 0.930 . S
H1204 C1214 0.930 . S
H1205 C1215 0.930 . S
C1206 H1200 0.930 . S
C1206 C1207 1.355 . S
C1206 C1208 1.415 . S
C1207 C1206 1.355 . S
C1207 C1209 1.419 . S
C1208 C1206 1.415 . S
C1208 C1213 1.425 . S
C1208 C1215 1.409 . S
C1209 H1201 0.930 . S
C1209 C1207 1.419 . S
C1209 C1210 1.362 . S
C1210 H1202 0.930 . S
C1210 C1209 1.362 . S
C1210 C1213 1.409 . S
C1211 H1203 0.930 . S
C1211 C1212 1.355 . S
C1211 C1213 1.415 . S
C1212 C1211 1.355 . S
C1212 C1214 1.419 . S
C1213 C1208 1.425 . S
C1213 C1210 1.409 . S
C1213 C1211 1.415 . S
C1214 H1204 0.930 . S
C1214 C1212 1.419 . S
C1214 C1215 1.362 . S
C1215 H1205 0.930 . S
C1215 C1208 1.409 . S
C1215 C1214 1.362 . S
H1216 C1222 0.930 . S
H1217 C1225 0.930 . S
H1218 C1226 0.930 . S
H1219 C1227 0.930 . S
H1220 C1230 0.930 . S
H1221 C1231 0.930 . S
C1222 H1216 0.930 . S
C1222 C1223 1.355 . S
C1222 C1224 1.415 . S
C1223 C1222 1.355 . S
C1223 C1225 1.419 . S
C1224 C1222 1.415 . S
C1224 C1229 1.425 . S
C1224 C1231 1.409 . S
C1225 H1217 0.930 . S
C1225 C1223 1.419 . S
C1225 C1226 1.362 . S
C1226 H1218 0.930 . S
C1226 C1225 1.362 . S
C1226 C1229 1.409 . S
C1227 H1219 0.930 . S
C1227 C1228 1.355 . S
C1227 C1229 1.415 . S
C1228 C1227 1.355 . S
C1228 C1230 1.419 . S
C1229 C1224 1.425 . S
C1229 C1226 1.409 . S
C1229 C1227 1.415 . S
C1230 H1220 0.930 . S
C1230 C1228 1.419 . S
C1230 C1231 1.362 . S
C1231 H1221 0.930 . S
C1231 C1224 1.409 . S
C1231 C1230 1.362 . S
H1232 C1238 0.930 . S
H1233 C1241 0.930 . S
H1234 C1242 0.930 . S
H1235 C1243 0.930 . S
H1236 C1246 0.930 . S
H1237 C1247 0.930 . S
C1238 H1232 0.930 . S
C1238 C1239 1.355 1_545 S
C1238 C1240 1.415 . S
C1239 C1238 1.355 1_565 S
C1239 C1241 1.419 . S
C1240 C1238 1.415 . S
C1240 C1245 1.425 1_545 S
C1240 C1247 1.409 . S
C1241 H1233 0.930 . S
C1241 C1239 1.419 . S
C1241 C1242 1.362 . S
C1242 H1234 0.930 . S
C1242 C1241 1.362 . S
C1242 C1245 1.409 . S
C1243 H1235 0.930 . S
C1243 C1244 1.355 1_565 S
C1243 C1245 1.415 . S
C1244 C1243 1.355 1_545 S
C1244 C1246 1.419 . S
C1245 C1240 1.425 1_565 S
C1245 C1242 1.409 . S
C1245 C1243 1.415 . S
C1246 H1236 0.930 . S
C1246 C1244 1.419 . S
C1246 C1247 1.362 . S
C1247 H1237 0.930 . S
C1247 C1240 1.409 . S
C1247 C1246 1.362 . S
H1248 C1254 0.930 . S
H1249 C1257 0.930 . S
H1250 C1258 0.930 . S
H1251 C1259 0.930 . S
H1252 C1262 0.930 . S
H1253 C1263 0.930 . S
C1254 H1248 0.930 . S
C1254 C1255 1.355 . S
C1254 C1256 1.415 . S
C1255 C1254 1.355 . S
C1255 C1257 1.419 . S
C1256 C1254 1.415 . S
C1256 C1261 1.425 . S
C1256 C1263 1.409 . S
C1257 H1249 0.930 . S
C1257 C1255 1.419 . S
C1257 C1258 1.362 . S
C1258 H1250 0.930 . S
C1258 C1257 1.362 . S
C1258 C1261 1.409 . S
C1259 H1251 0.930 . S
C1259 C1260 1.355 . S
C1259 C1261 1.415 . S
C1260 C1259 1.355 . S
C1260 C1262 1.419 . S
C1261 C1256 1.425 . S
C1261 C1258 1.409 . S
C1261 C1259 1.415 . S
C1262 H1252 0.930 . S
C1262 C1260 1.419 . S
C1262 C1263 1.362 . S
C1263 H1253 0.930 . S
C1263 C1256 1.409 . S
C1263 C1262 1.362 . S
H1264 C1270 0.930 . S
H1265 C1273 0.930 . S
H1266 C1274 0.930 . S
H1267 C1275 0.930 . S
H1268 C1278 0.930 . S
H1269 C1279 0.930 . S
C1270 H1264 0.930 . S
C1270 C1271 1.355 . S
C1270 C1272 1.415 . S
C1271 C1270 1.355 . S
C1271 C1273 1.419 . S
C1272 C1270 1.415 . S
C1272 C1277 1.425 . S
C1272 C1279 1.409 . S
C1273 H1265 0.930 . S
C1273 C1271 1.419 . S
C1273 C1274 1.362 . S
C1274 H1266 0.930 . S
C1274 C1273 1.362 . S
C1274 C1277 1.409 . S
C1275 H1267 0.930 . S
C1275 C1276 1.355 . S
C1275 C1277 1.415 . S
C1276 C1275 1.355 . S
C1276 C1278 1.419 . S
C1277 C1272 1.425 . S
C1277 C1274 1.409 . S
C1277 C1275 1.415 . S
C1278 H1268 0.930 . S
C1278 C1276 1.419 . S
C1278 C1279 1.362 . S
C1279 H1269 0.930 . S
C1279 C1272 1.409 . S
C1279 C1278 1.362 . S
H1280 C1286 0.930 . S
H1281 C1289 0.930 . S
H1282 C1290 0.930 . S
H1283 C1291 0.930 . S
H1284 C1294 0.930 . S
H1285 C1295 0.930 . S
C1286 H1280 0.930 . S
C1286 C1287 1.355 . S
C1286 C1288 1.415 . S
C1287 C1286 1.355 . S
C1287 C1289 1.419 . S
C1288 C1286 1.415 . S
C1288 C1293 1.425 . S
C1288 C1295 1.409 . S
C1289 H1281 0.930 . S
C1289 C1287 1.419 . S
C1289 C1290 1.362 . S
C1290 H1282 0.930 . S
C1290 C1289 1.362 . S
C1290 C1293 1.409 . S
C1291 H1283 0.930 . S
C1291 C1292 1.355 . S
C1291 C1293 1.415 . S
C1292 C1291 1.355 . S
C1292 C1294 1.419 . S
C1293 C1288 1.425 . S
C1293 C1290 1.409 . S
C1293 C1291 1.415 . S
C1294 H1284 0.930 . S
C1294 C1292 1.419 . S
C1294 C1295 1.362 . S
C1295 H1285 0.930 . S
C1295 C1288 1.409 . S
C1295 C1294 1.362 . S
H1296 C1302 0.930 . S
H1297 C1305 0.930 . S
H1298 C1306 0.930 . S
H1299 C1307 0.930 . S
H1300 C1310 0.930 . S
H1301 C1311 0.930 . S
C1302 H1296 0.930 . S
C1302 C1303 1.355 . S
C1302 C1304 1.415 . S
C1303 C1302 1.355 . S
C1303 C1305 1.419 1_554 S
C1304 C1302 1.415 . S
C1304 C1309 1.425 1_554 S
C1304 C1311 1.409 . S
C1305 H1297 0.930 . S
C1305 C1303 1.419 1_556 S
C1305 C1306 1.362 . S
C1306 H1298 0.930 . S
C1306 C1305 1.362 . S
C1306 C1309 1.409 . S
C1307 H1299 0.930 . S
C1307 C1308 1.355 1_556 S
C1307 C1309 1.415 . S
C1308 C1307 1.355 1_554 S
C1308 C1310 1.419 . S
C1309 C1304 1.425 1_556 S
C1309 C1306 1.409 . S
C1309 C1307 1.415 . S
C1310 H1300 0.930 . S
C1310 C1308 1.419 . S
C1310 C1311 1.362 . S
C1311 H1301 0.930 . S
C1311 C1304 1.409 . S
C1311 C1310 1.362 . S
H1312 C1318 0.930 . S
H1313 C1321 0.930 . S
H1314 C1322 0.930 . S
H1315 C1323 0.930 . S
H1316 C1326 0.930 . S
H1317 C1327 0.930 . S
C1318 H1312 0.930 . S
C1318 C1319 1.355 . S
C1318 C1320 1.415 . S
C1319 C1318 1.355 . S
C1319 C1321 1.419 . S
C1320 C1318 1.415 . S
C1320 C1325 1.425 . S
C1320 C1327 1.409 . S
C1321 H1313 0.930 . S
C1321 C1319 1.419 . S
C1321 C1322 1.362 . S
C1322 H1314 0.930 . S
C1322 C1321 1.362 . S
C1322 C1325 1.409 . S
C1323 H1315 0.930 . S
C1323 C1324 1.355 . S
C1323 C1325 1.415 . S
C1324 C1323 1.355 . S
C1324 C1326 1.419 . S
C1325 C1320 1.425 . S
C1325 C1322 1.409 . S
C1325 C1323 1.415 . S
C1326 H1316 0.930 . S
C1326 C1324 1.419 . S
C1326 C1327 1.362 . S
C1327 H1317 0.930 . S
C1327 C1320 1.409 . S
C1327 C1326 1.362 . S
H1328 C1334 0.930 . S
H1329 C1337 0.930 . S
H1330 C1338 0.930 . S
H1331 C1339 0.930 . S
H1332 C1342 0.930 . S
H1333 C1343 0.930 . S
C1334 H1328 0.930 . S
C1334 C1335 1.355 . S
C1334 C1336 1.415 . S
C1335 C1334 1.355 . S
C1335 C1337 1.419 . S
C1336 C1334 1.415 . S
C1336 C1341 1.425 . S
C1336 C1343 1.409 . S
C1337 H1329 0.930 . S
C1337 C1335 1.419 . S
C1337 C1338 1.362 . S
C1338 H1330 0.930 . S
C1338 C1337 1.362 . S
C1338 C1341 1.409 . S
C1339 H1331 0.930 . S
C1339 C1340 1.355 . S
C1339 C1341 1.415 . S
C1340 C1339 1.355 . S
C1340 C1342 1.419 . S
C1341 C1336 1.425 . S
C1341 C1338 1.409 . S
C1341 C1339 1.415 . S
C1342 H1332 0.930 . S
C1342 C1340 1.419 . S
C1342 C1343 1.362 . S
C1343 H1333 0.930 . S
C1343 C1336 1.409 . S
C1343 C1342 1.362 . S
H1344 C1350 0.930 . S
H1345 C1353 0.930 . S
H1346 C1354 0.930 . S
H1347 C1355 0.930 . S
H1348 C1358 0.930 . S
H1349 C1359 0.930 . S
C1350 H1344 0.930 . S
C1350 C1351 1.355 . S
C1350 C1352 1.415 . S
C1351 C1350 1.355 . S
C1351 C1353 1.419 . S
C1352 C1350 1.415 . S
C1352 C1357 1.425 . S
C1352 C1359 1.409 . S
C1353 H1345 0.930 . S
C1353 C1351 1.419 . S
C1353 C1354 1.362 . S
C1354 H1346 0.930 . S
C1354 C1353 1.362 . S
C1354 C1357 1.409 . S
C1355 H1347 0.930 . S
C1355 C1356 1.355 . S
C1355 C1357 1.415 . S
C1356 C1355 1.355 . S
C1356 C1358 1.419 . S
C1357 C1352 1.425 . S
C1357 C1354 1.409 . S
C1357 C1355 1.415 . S
C1358 H1348 0.930 . S
C1358 C1356 1.419 . S
C1358 C1359 1.362 . S
C1359 H1349 0.930 . S
C1359 C1352 1.409 . S
C1359 C1358 1.362 . S
H1360 C1366 0.930 . S
H1361 C1369 0.930 . S
H1362 C1370 0.930 . S
H1363 C1371 0.930 . S
H1364 C1374 0.930 . S
H1365 C1375 0.930 . S
C1366 H1360 0.930 . S
C1366 C1367 1.355 . S
C1366 C1368 1.415 . S
C1367 C1366 1.355 . S
C1367 C1369 1.419 . S
C1368 C1366 1.415 . S
C1368 C1373 1.425 . S
C1368 C1375 1.409 . S
C1369 H1361 0.930 . S
C1369 C1367 1.419 . S
C1369 C1370 1.362 . S
C1370 H1362 0.930 . S
C1370 C1369 1.362 . S
C1370 C1373 1.409 . S
C1371 H1363 0.930 . S
C1371 C1372 1.355 . S
C1371 C1373 1.415 . S
C1372 C1371 1.355 . S
C1372 C1374 1.419 . S
C1373 C1368 1.425 . S
C1373 C1370 1.409 . S
C1373 C1371 1.415 . S
C1374 H1364 0.930 . S
C1374 C1372 1.419 . S
C1374 C1375 1.362 . S
C1375 H1365 0.930 . S
C1375 C1368 1.409 . S
C1375 C1374 1.362 . S
H1376 C1382 0.930 . S
H1377 C1385 0.930 . S
H1378 C1386 0.930 . S
H1379 C1387 0.930 . S
H1380 C1390 0.930 1_545 S
H1381 C1391 0.930 . S
C1382 H1376 0.930 . S
C1382 C1383 1.355 . S
C1382 C1384 1.415 . S
C1383 C1382 1.355 . S
C1383 C1385 1.419 . S
C1384 C1382 1.415 . S
C1384 C1389 1.425 . S
C1384 C1391 1.409 . S
C1385 H1377 0.930 . S
C1385 C1383 1.419 . S
C1385 C1386 1.362 . S
C1386 H1378 0.930 . S
C1386 C1385 1.362 . S
C1386 C1389 1.409 . S
C1387 H1379 0.930 . S
C1387 C1388 1.355 . S
C1387 C1389 1.415 . S
C1388 C1387 1.355 . S
C1388 C1390 1.419 . S
C1389 C1384 1.425 . S
C1389 C1386 1.409 . S
C1389 C1387 1.415 . S
C1390 H1380 0.930 1_565 S
C1390 C1388 1.419 . S
C1390 C1391 1.362 . S
C1391 H1381 0.930 . S
C1391 C1384 1.409 . S
C1391 C1390 1.362 . S
H1392 C1398 0.930 . S
H1393 C1401 0.930 . S
H1394 C1402 0.930 . S
H1395 C1403 0.930 . S
H1396 C1406 0.930 . S
H1397 C1407 0.930 . S
C1398 H1392 0.930 . S
C1398 C1399 1.355 . S
C1398 C1400 1.415 . S
C1399 C1398 1.355 . S
C1399 C1401 1.419 . S
C1400 C1398 1.415 . S
C1400 C1405 1.425 . S
C1400 C1407 1.409 . S
C1401 H1393 0.930 . S
C1401 C1399 1.419 . S
C1401 C1402 1.362 . S
C1402 H1394 0.930 . S
C1402 C1401 1.362 . S
C1402 C1405 1.409 . S
C1403 H1395 0.930 . S
C1403 C1404 1.355 . S
C1403 C1405 1.415 . S
C1404 C1403 1.355 . S
C1404 C1406 1.419 . S
C1405 C1400 1.425 . S
C1405 C1402 1.409 . S
C1405 C1403 1.415 . S
C1406 H1396 0.930 . S
C1406 C1404 1.419 . S
C1406 C1407 1.362 . S
C1407 H1397 0.930 . S
C1407 C1400 1.409 . S
C1407 C1406 1.362 . S
H1408 C1414 0.930 . S
H1409 C1417 0.930 . S
H1410 C1418 0.930 . S
H1411 C1419 0.930 . S
H1412 C1422 0.930 . S
H1413 C1423 0.930 . S
C1414 H1408 0.930 . S
C1414 C1415 1.355 . S
C1414 C1416 1.415 . S
C1415 C1414 1.355 . S
C1415 C1417 1.419 . S
C1416 C1414 1.415 . S
C1416 C1421 1.425 . S
C1416 C1423 1.409 . S
C1417 H1409 0.930 . S
C1417 C1415 1.419 . S
C1417 C1418 1.362 . S
C1418 H1410 0.930 . S
C1418 C1417 1.362 . S
C1418 C1421 1.409 . S
C1419 H1411 0.930 . S
C1419 C1420 1.355 . S
C1419 C1421 1.415 . S
C1420 C1419 1.355 . S
C1420 C1422 1.419 . S
C1421 C1416 1.425 . S
C1421 C1418 1.409 . S
C1421 C1419 1.415 . S
C1422 H1412 0.930 . S
C1422 C1420 1.419 . S
C1422 C1423 1.362 . S
C1423 H1413 0.930 . S
C1423 C1416 1.409 . S
C1423 C1422 1.362 . S
H1424 C1430 0.930 . S
H1425 C1433 0.930 . S
H1426 C1434 0.930 . S
H1427 C1435 0.930 . S
H1428 C1438 0.930 . S
H1429 C1439 0.930 . S
C1430 H1424 0.930 . S
C1430 C1431 1.355 . S
C1430 C1432 1.415 . S
C1431 C1430 1.355 . S
C1431 C1433 1.419 . S
C1432 C1430 1.415 . S
C1432 C1437 1.425 . S
C1432 C1439 1.409 . S
C1433 H1425 0.930 . S
C1433 C1431 1.419 . S
C1433 C1434 1.362 . S
C1434 H1426 0.930 . S
C1434 C1433 1.362 . S
C1434 C1437 1.409 . S
C1435 H1427 0.930 . S
C1435 C1436 1.355 . S
C1435 C1437 1.415 . S
C1436 C1435 1.355 . S
C1436 C1438 1.419 . S
C1437 C1432 1.425 . S
C1437 C1434 1.409 . S
C1437 C1435 1.415 . S
C1438 H1428 0.930 . S
C1438 C1436 1.419 . S
C1438 C1439 1.362 . S
C1439 H1429 0.930 . S
C1439 C1432 1.409 . S
C1439 C1438 1.362 . S
H1440 C1446 0.930 . S
H1441 C1449 0.930 . S
H1442 C1450 0.930 . S
H1443 C1451 0.930 . S
H1444 C1454 0.930 . S
H1445 C1455 0.930 . S
C1446 H1440 0.930 . S
C1446 C1447 1.355 . S
C1446 C1448 1.415 . S
C1447 C1446 1.355 . S
C1447 C1449 1.419 . S
C1448 C1446 1.415 . S
C1448 C1453 1.425 . S
C1448 C1455 1.409 . S
C1449 H1441 0.930 . S
C1449 C1447 1.419 . S
C1449 C1450 1.362 . S
C1450 H1442 0.930 . S
C1450 C1449 1.362 . S
C1450 C1453 1.409 . S
C1451 H1443 0.930 . S
C1451 C1452 1.355 . S
C1451 C1453 1.415 . S
C1452 C1451 1.355 . S
C1452 C1454 1.419 . S
C1453 C1448 1.425 . S
C1453 C1450 1.409 . S
C1453 C1451 1.415 . S
C1454 H1444 0.930 . S
C1454 C1452 1.419 . S
C1454 C1455 1.362 . S
C1455 H1445 0.930 . S
C1455 C1448 1.409 . S
C1455 C1454 1.362 . S
H1456 C1462 0.937 . S
H1457 C1465 0.930 . S
H1458 C1466 0.930 . S
H1459 C1467 0.930 1_554 S
H1460 C1470 0.930 . S
H1461 C1471 0.930 . S
C1462 H1456 0.937 . S
C1462 C1463 1.355 . S
C1462 C1464 1.415 . S
C1463 C1462 1.355 . S
C1463 C1465 1.419 . S
C1464 C1462 1.415 . S
C1464 C1469 1.425 . S
C1464 C1471 1.409 1_455 S
C1465 H1457 0.930 . S
C1465 C1463 1.419 . S
C1465 C1466 1.362 . S
C1466 H1458 0.930 . S
C1466 C1465 1.362 . S
C1466 C1469 1.409 . S
C1467 H1459 0.930 1_556 S
C1467 C1468 1.355 . S
C1467 C1469 1.415 . S
C1468 C1467 1.355 . S
C1468 C1470 1.419 1_455 S
C1469 C1464 1.425 . S
C1469 C1466 1.409 . S
C1469 C1467 1.415 . S
C1470 H1460 0.930 . S
C1470 C1468 1.419 1_655 S
C1470 C1471 1.362 . S
C1471 H1461 0.930 . S
C1471 C1464 1.409 1_655 S
C1471 C1470 1.362 . S
H1472 C1478 0.930 . S
H1473 C1481 0.930 . S
H1474 C1482 0.930 . S
H1475 C1483 0.930 . S
H1476 C1486 0.930 . S
H1477 C1487 0.930 . S
C1478 H1472 0.930 . S
C1478 C1479 1.355 . S
C1478 C1480 1.415 . S
C1479 C1478 1.355 . S
C1479 C1481 1.419 . S
C1480 C1478 1.415 . S
C1480 C1485 1.425 . S
C1480 C1487 1.409 . S
C1481 H1473 0.930 . S
C1481 C1479 1.419 . S
C1481 C1482 1.362 . S
C1482 H1474 0.930 . S
C1482 C1481 1.362 . S
C1482 C1485 1.409 . S
C1483 H1475 0.930 . S
C1483 C1484 1.355 . S
C1483 C1485 1.415 . S
C1484 C1483 1.355 . S
C1484 C1486 1.419 . S
C1485 C1480 1.425 . S
C1485 C1482 1.409 . S
C1485 C1483 1.415 . S
C1486 H1476 0.930 . S
C1486 C1484 1.419 . S
C1486 C1487 1.362 . S
C1487 H1477 0.930 . S
C1487 C1480 1.409 . S
C1487 C1486 1.362 . S
H1488 C1494 0.930 . S
H1489 C1497 0.930 . S
H1490 C1498 0.930 . S
H1491 C1499 0.930 . S
H1492 C1502 0.930 . S
H1493 C1503 0.930 . S
C1494 H1488 0.930 . S
C1494 C1495 1.355 . S
C1494 C1496 1.415 . S
C1495 C1494 1.355 . S
C1495 C1497 1.419 . S
C1496 C1494 1.415 . S
C1496 C1501 1.425 . S
C1496 C1503 1.409 . S
C1497 H1489 0.930 . S
C1497 C1495 1.419 . S
C1497 C1498 1.362 . S
C1498 H1490 0.930 . S
C1498 C1497 1.362 . S
C1498 C1501 1.409 . S
C1499 H1491 0.930 . S
C1499 C1500 1.355 . S
C1499 C1501 1.415 . S
C1500 C1499 1.355 . S
C1500 C1502 1.419 . S
C1501 C1496 1.425 . S
C1501 C1498 1.409 . S
C1501 C1499 1.415 . S
C1502 H1492 0.930 . S
C1502 C1500 1.419 . S
C1502 C1503 1.362 . S
C1503 H1493 0.930 . S
C1503 C1496 1.409 . S
C1503 C1502 1.362 . S
H1504 C1510 0.930 . S
H1505 C1513 0.930 . S
H1506 C1514 0.930 . S
H1507 C1515 0.930 . S
H1508 C1518 0.930 . S
H1509 C1519 0.930 . S
C1510 H1504 0.930 . S
C1510 C1511 1.355 . S
C1510 C1512 1.415 . S
C1511 C1510 1.355 . S
C1511 C1513 1.419 . S
C1512 C1510 1.415 . S
C1512 C1517 1.425 . S
C1512 C1519 1.409 . S
C1513 H1505 0.930 . S
C1513 C1511 1.419 . S
C1513 C1514 1.362 . S
C1514 H1506 0.930 . S
C1514 C1513 1.362 . S
C1514 C1517 1.409 . S
C1515 H1507 0.930 . S
C1515 C1516 1.355 . S
C1515 C1517 1.415 . S
C1516 C1515 1.355 . S
C1516 C1518 1.419 . S
C1517 C1512 1.425 . S
C1517 C1514 1.409 . S
C1517 C1515 1.415 . S
C1518 H1508 0.930 . S
C1518 C1516 1.419 . S
C1518 C1519 1.362 . S
C1519 H1509 0.930 . S
C1519 C1512 1.409 . S
C1519 C1518 1.362 . S
H1520 C1526 0.930 . S
H1521 C1529 0.930 . S
H1522 C1530 0.923 1_455 S
H1523 C1531 0.930 . S
H1524 C1534 0.930 . S
H1525 C1535 0.930 . S
C1526 H1520 0.930 . S
C1526 C1527 1.355 . S
C1526 C1528 1.415 . S
C1527 C1526 1.355 . S
C1527 C1529 1.419 . S
C1528 C1526 1.415 . S
C1528 C1533 1.425 . S
C1528 C1535 1.409 . S
C1529 H1521 0.930 . S
C1529 C1527 1.419 . S
C1529 C1530 1.362 . S
C1530 H1522 0.923 1_655 S
C1530 C1529 1.362 . S
C1530 C1533 1.409 . S
C1531 H1523 0.930 . S
C1531 C1532 1.355 . S
C1531 C1533 1.415 . S
C1532 C1531 1.355 . S
C1532 C1534 1.419 . S
C1533 C1528 1.425 . S
C1533 C1530 1.409 . S
C1533 C1531 1.415 . S
C1534 H1524 0.930 . S
C1534 C1532 1.419 . S
C1534 C1535 1.362 . S
C1535 H1525 0.930 . S
C1535 C1528 1.409 . S
C1535 C1534 1.362 . S
H1536 C1542 0.930 . S
H1537 C1545 0.930 . S
H1538 C1546 0.930 . S
H1539 C1547 0.930 . S
H1540 C1550 0.930 . S
H1541 C1551 0.930 . S
C1542 H1536 0.930 . S
C1542 C1543 1.355 . S
C1542 C1544 1.415 . S
C1543 C1542 1.355 . S
C1543 C1545 1.419 . S
C1544 C1542 1.415 . S
C1544 C1549 1.425 . S
C1544 C1551 1.409 . S
C1545 H1537 0.930 . S
C1545 C1543 1.419 . S
C1545 C1546 1.362 . S
C1546 H1538 0.930 . S
C1546 C1545 1.362 . S
C1546 C1549 1.409 . S
C1547 H1539 0.930 . S
C1547 C1548 1.355 . S
C1547 C1549 1.415 . S
C1548 C1547 1.355 . S
C1548 C1550 1.419 . S
C1549 C1544 1.425 . S
C1549 C1546 1.409 . S
C1549 C1547 1.415 . S
C1550 H1540 0.930 . S
C1550 C1548 1.419 . S
C1550 C1551 1.362 . S
C1551 H1541 0.930 . S
C1551 C1544 1.409 . S
C1551 C1550 1.362 . S
H1552 C1558 0.930 . S
H1553 C1561 0.930 . S
H1554 C1562 0.930 . S
H1555 C1563 0.930 . S
H1556 C1566 0.930 . S
H1557 C1567 0.930 . S
C1558 H1552 0.930 . S
C1558 C1559 1.355 . S
C1558 C1560 1.415 . S
C1559 C1558 1.355 . S
C1559 C1561 1.419 . S
C1560 C1558 1.415 . S
C1560 C1565 1.425 . S
C1560 C1567 1.409 . S
C1561 H1553 0.930 . S
C1561 C1559 1.419 . S
C1561 C1562 1.362 . S
C1562 H1554 0.930 . S
C1562 C1561 1.362 . S
C1562 C1565 1.409 . S
C1563 H1555 0.930 . S
C1563 C1564 1.355 . S
C1563 C1565 1.415 . S
C1564 C1563 1.355 . S
C1564 C1566 1.419 . S
C1565 C1560 1.425 . S
C1565 C1562 1.409 . S
C1565 C1563 1.415 . S
C1566 H1556 0.930 . S
C1566 C1564 1.419 . S
C1566 C1567 1.362 . S
C1567 H1557 0.930 . S
C1567 C1560 1.409 . S
C1567 C1566 1.362 . S
H1568 C1574 0.930 . S
H1569 C1577 0.930 . S
H1570 C1578 0.930 . S
H1571 C1579 0.930 . S
H1572 C1582 0.930 . S
H1573 C1583 0.930 . S
C1574 H1568 0.930 . S
C1574 C1575 1.355 . S
C1574 C1576 1.415 . S
C1575 C1574 1.355 . S
C1575 C1577 1.419 . S
C1576 C1574 1.415 . S
C1576 C1581 1.425 . S
C1576 C1583 1.409 . S
C1577 H1569 0.930 . S
C1577 C1575 1.419 . S
C1577 C1578 1.362 . S
C1578 H1570 0.930 . S
C1578 C1577 1.362 . S
C1578 C1581 1.409 . S
C1579 H1571 0.930 . S
C1579 C1580 1.355 . S
C1579 C1581 1.415 . S
C1580 C1579 1.355 . S
C1580 C1582 1.419 . S
C1581 C1576 1.425 . S
C1581 C1578 1.409 . S
C1581 C1579 1.415 . S
C1582 H1572 0.930 . S
C1582 C1580 1.419 . S
C1582 C1583 1.362 . S
C1583 H1573 0.930 . S
C1583 C1576 1.409 . S
C1583 C1582 1.362 . S
H1584 C1590 0.930 . S
H1585 C1593 0.930 . S
H1586 C1594 0.930 . S
H1587 C1595 0.930 . S
H1588 C1598 0.930 . S
H1589 C1599 0.930 . S
C1590 H1584 0.930 . S
C1590 C1591 1.355 . S
C1590 C1592 1.415 . S
C1591 C1590 1.355 . S
C1591 C1593 1.419 . S
C1592 C1590 1.415 . S
C1592 C1597 1.425 . S
C1592 C1599 1.409 . S
C1593 H1585 0.930 . S
C1593 C1591 1.419 . S
C1593 C1594 1.362 . S
C1594 H1586 0.930 . S
C1594 C1593 1.362 . S
C1594 C1597 1.409 . S
C1595 H1587 0.930 . S
C1595 C1596 1.355 . S
C1595 C1597 1.415 . S
C1596 C1595 1.355 . S
C1596 C1598 1.419 . S
C1597 C1592 1.425 . S
C1597 C1594 1.409 . S
C1597 C1595 1.415 . S
C1598 H1588 0.930 . S
C1598 C1596 1.419 . S
C1598 C1599 1.362 . S
C1599 H1589 0.930 . S
C1599 C1592 1.409 . S
C1599 C1598 1.362 . S
H1600 C1606 0.930 . S
H1601 C1609 0.930 . S
H1602 C1610 0.930 . S
H1603 C1611 0.930 . S
H1604 C1614 0.930 . S
H1605 C1615 0.930 . S
C1606 H1600 0.930 . S
C1606 C1607 1.355 . S
C1606 C1608 1.415 . S
C1607 C1606 1.355 . S
C1607 C1609 1.419 . S
C1608 C1606 1.415 . S
C1608 C1613 1.425 . S
C1608 C1615 1.409 . S
C1609 H1601 0.930 . S
C1609 C1607 1.419 . S
C1609 C1610 1.362 . S
C1610 H1602 0.930 . S
C1610 C1609 1.362 . S
C1610 C1613 1.409 . S
C1611 H1603 0.930 . S
C1611 C1612 1.355 . S
C1611 C1613 1.415 . S
C1612 C1611 1.355 . S
C1612 C1614 1.419 . S
C1613 C1608 1.425 . S
C1613 C1610 1.409 . S
C1613 C1611 1.415 . S
C1614 H1604 0.930 . S
C1614 C1612 1.419 . S
C1614 C1615 1.362 . S
C1615 H1605 0.930 . S
C1615 C1608 1.409 . S
C1615 C1614 1.362 . S
H1616 C1622 0.930 . S
H1617 C1625 0.930 . S
H1618 C1626 0.930 . S
H1619 C1627 0.930 . S
H1620 C1630 0.930 . S
H1621 C1631 0.930 . S
C1622 H1616 0.930 . S
C1622 C1623 1.355 . S
C1622 C1624 1.415 . S
C1623 C1622 1.355 . S
C1623 C1625 1.419 . S
C1624 C1622 1.415 . S
C1624 C1629 1.425 . S
C1624 C1631 1.409 . S
C1625 H1617 0.930 . S
C1625 C1623 1.419 . S
C1625 C1626 1.362 . S
C1626 H1618 0.930 . S
C1626 C1625 1.362 . S
C1626 C1629 1.409 . S
C1627 H1619 0.930 . S
C1627 C1628 1.355 . S
C1627 C1629 1.415 . S
C1628 C1627 1.355 . S
C1628 C1630 1.419 . S
C1629 C1624 1.425 . S
C1629 C1626 1.409 . S
C1629 C1627 1.415 . S
C1630 H1620 0.930 . S
C1630 C1628 1.419 . S
C1630 C1631 1.362 . S
C1631 H1621 0.930 . S
C1631 C1624 1.409 . S
C1631 C1630 1.362 . S
H1632 C1638 0.930 . S
H1633 C1641 0.930 . S
H1634 C1642 0.930 . S
H1635 C1643 0.930 . S
H1636 C1646 0.930 . S
H1637 C1647 0.930 . S
C1638 H1632 0.930 . S
C1638 C1639 1.355 . S
C1638 C1640 1.415 . S
C1639 C1638 1.355 . S
C1639 C1641 1.419 . S
C1640 C1638 1.415 . S
C1640 C1645 1.425 . S
C1640 C1647 1.409 . S
C1641 H1633 0.930 . S
C1641 C1639 1.419 . S
C1641 C1642 1.362 . S
C1642 H1634 0.930 . S
C1642 C1641 1.362 . S
C1642 C1645 1.409 . S
C1643 H1635 0.930 . S
C1643 C1644 1.355 . S
C1643 C1645 1.415 . S
C1644 C1643 1.355 . S
C1644 C1646 1.419 . S
C1645 C1640 1.425 . S
C1645 C1642 1.409 . S
C1645 C1643 1.415 . S
C1646 H1636 0.930 . S
C1646 C1644 1.419 . S
C1646 C1647 1.362 . S
C1647 H1637 0.930 . S
C1647 C1640 1.409 . S
C1647 C1646 1.362 . S
H1648 C1654 0.930 . S
H1649 C1657 0.930 . S
H1650 C1658 0.930 . S
H1651 C1659 0.930 . S
H1652 C1662 0.930 . S
H1653 C1663 0.930 . S
C1654 H1648 0.930 . S
C1654 C1655 1.355 . S
C1654 C1656 1.415 . S
C1655 C1654 1.355 . S
C1655 C1657 1.419 . S
C1656 C1654 1.415 . S
C1656 C1661 1.425 . S
C1656 C1663 1.409 . S
C1657 H1649 0.930 . S
C1657 C1655 1.419 . S
C1657 C1658 1.362 . S
C1658 H1650 0.930 . S
C1658 C1657 1.362 . S
C1658 C1661 1.409 . S
C1659 H1651 0.930 . S
C1659 C1660 1.355 . S
C1659 C1661 1.415 . S
C1660 C1659 1.355 . S
C1660 C1662 1.419 . S
C1661 C1656 1.425 . S
C1661 C1658 1.409 . S
C1661 C1659 1.415 . S
C1662 H1652 0.930 . S
C1662 C1660 1.419 . S
C1662 C1663 1.362 . S
C1663 H1653 0.930 . S
C1663 C1656 1.409 . S
C1663 C1662 1.362 . S
H1664 C1670 0.930 . S
H1665 C1673 0.930 . S
H1666 C1674 0.930 . S
H1667 C1675 0.930 . S
H1668 C1678 0.930 . S
H1669 C1679 0.930 . S
C1670 H1664 0.930 . S
C1670 C1671 1.355 . S
C1670 C1672 1.415 . S
C1671 C1670 1.355 . S
C1671 C1673 1.419 . S
C1672 C1670 1.415 . S
C1672 C1677 1.425 . S
C1672 C1679 1.409 . S
C1673 H1665 0.930 . S
C1673 C1671 1.419 . S
C1673 C1674 1.362 . S
C1674 H1666 0.930 . S
C1674 C1673 1.362 . S
C1674 C1677 1.409 . S
C1675 H1667 0.930 . S
C1675 C1676 1.355 . S
C1675 C1677 1.415 . S
C1676 C1675 1.355 . S
C1676 C1678 1.419 . S
C1677 C1672 1.425 . S
C1677 C1674 1.409 . S
C1677 C1675 1.415 . S
C1678 H1668 0.930 . S
C1678 C1676 1.419 . S
C1678 C1679 1.362 . S
C1679 H1669 0.930 . S
C1679 C1672 1.409 . S
C1679 C1678 1.362 . S
H1680 C1686 0.930 . S
H1681 C1689 0.930 . S
H1682 C1690 0.930 . S
H1683 C1691 0.930 . S
H1684 C1694 0.930 . S
H1685 C1695 0.930 . S
C1686 H1680 0.930 . S
C1686 C1687 1.355 . S
C1686 C1688 1.415 . S
C1687 C1686 1.355 . S
C1687 C1689 1.419 . S
C1688 C1686 1.415 . S
C1688 C1693 1.425 . S
C1688 C1695 1.409 . S
C1689 H1681 0.930 . S
C1689 C1687 1.419 . S
C1689 C1690 1.362 . S
C1690 H1682 0.930 . S
C1690 C1689 1.362 . S
C1690 C1693 1.409 . S
C1691 H1683 0.930 . S
C1691 C1692 1.355 . S
C1691 C1693 1.415 . S
C1692 C1691 1.355 . S
C1692 C1694 1.419 . S
C1693 C1688 1.425 . S
C1693 C1690 1.409 . S
C1693 C1691 1.415 . S
C1694 H1684 0.930 . S
C1694 C1692 1.419 . S
C1694 C1695 1.362 . S
C1695 H1685 0.930 . S
C1695 C1688 1.409 . S
C1695 C1694 1.362 . S
H1696 C1702 0.930 . S
H1697 C1705 0.930 . S
H1698 C1706 0.930 . S
H1699 C1707 0.930 . S
H1700 C1710 0.930 . S
H1701 C1711 0.930 . S
C1702 H1696 0.930 . S
C1702 C1703 1.355 . S
C1702 C1704 1.415 . S
C1703 C1702 1.355 . S
C1703 C1705 1.419 . S
C1704 C1702 1.415 . S
C1704 C1709 1.425 . S
C1704 C1711 1.409 . S
C1705 H1697 0.930 . S
C1705 C1703 1.419 . S
C1705 C1706 1.362 . S
C1706 H1698 0.930 . S
C1706 C1705 1.362 . S
C1706 C1709 1.409 . S
C1707 H1699 0.930 . S
C1707 C1708 1.355 . S
C1707 C1709 1.415 . S
C1708 C1707 1.355 . S
C1708 C1710 1.419 . S
C1709 C1704 1.425 . S
C1709 C1706 1.409 . S
C1709 C1707 1.415 . S
C1710 H1700 0.930 . S
C1710 C1708 1.419 . S
C1710 C1711 1.362 . S
C1711 H1701 0.930 . S
C1711 C1704 1.409 . S
C1711 C1710 1.362 . S
H1712 C1718 0.930 . S
H1713 C1721 0.930 . S
H1714 C1722 0.930 . S
H1715 C1723 0.930 . S
H1716 C1726 0.930 . S
H1717 C1727 0.930 . S
C1718 H1712 0.930 . S
C1718 C1719 1.355 . S
C1718 C1720 1.415 . S
C1719 C1718 1.355 . S
C1719 C1721 1.419 . S
C1720 C1718 1.415 . S
C1720 C1725 1.425 . S
C1720 C1727 1.409 . S
C1721 H1713 0.930 . S
C1721 C1719 1.419 . S
C1721 C1722 1.362 . S
C1722 H1714 0.930 . S
C1722 C1721 1.362 . S
C1722 C1725 1.409 . S
C1723 H1715 0.930 . S
C1723 C1724 1.355 . S
C1723 C1725 1.415 . S
C1724 C1723 1.355 . S
C1724 C1726 1.419 . S
C1725 C1720 1.425 . S
C1725 C1722 1.409 . S
C1725 C1723 1.415 . S
C1726 H1716 0.930 . S
C1726 C1724 1.419 . S
C1726 C1727 1.362 . S
C1727 H1717 0.930 . S
C1727 C1720 1.409 . S
C1727 C1726 1.362 . S
H1728 C1734 0.930 . S
H1729 C1737 0.930 1_556 S
H1730 C1738 0.930 . S
H1731 C1739 0.930 1_556 S
H1732 C1742 0.930 . S
H1733 C1743 0.930 . S
C1734 H1728 0.930 . S
C1734 C1735 1.355 . S
C1734 C1736 1.415 . S
C1735 C1734 1.355 . S
C1735 C1737 1.419 . S
C1736 C1734 1.415 . S
C1736 C1741 1.425 . S
C1736 C1743 1.409 . S
C1737 H1729 0.930 1_554 S
C1737 C1735 1.419 . S
C1737 C1738 1.362 1_554 S
C1738 H1730 0.930 . S
C1738 C1737 1.362 1_556 S
C1738 C1741 1.409 1_556 S
C1739 H1731 0.930 1_554 S
C1739 C1740 1.355 . S
C1739 C1741 1.415 . S
C1740 C1739 1.355 . S
C1740 C1742 1.419 . S
C1741 C1736 1.425 . S
C1741 C1738 1.409 1_554 S
C1741 C1739 1.415 . S
C1742 H1732 0.930 . S
C1742 C1740 1.419 . S
C1742 C1743 1.362 . S
C1743 H1733 0.930 . S
C1743 C1736 1.409 . S
C1743 C1742 1.362 . S
H1744 C1750 0.930 . S
H1745 C1753 0.930 . S
H1746 C1754 0.930 . S
H1747 C1755 0.930 . S
H1748 C1758 0.930 . S
H1749 C1759 0.930 . S
C1750 H1744 0.930 . S
C1750 C1751 1.355 . S
C1750 C1752 1.415 . S
C1751 C1750 1.355 . S
C1751 C1753 1.419 . S
C1752 C1750 1.415 . S
C1752 C1757 1.425 . S
C1752 C1759 1.409 . S
C1753 H1745 0.930 . S
C1753 C1751 1.419 . S
C1753 C1754 1.362 . S
C1754 H1746 0.930 . S
C1754 C1753 1.362 . S
C1754 C1757 1.409 . S
C1755 H1747 0.930 . S
C1755 C1756 1.355 . S
C1755 C1757 1.415 . S
C1756 C1755 1.355 . S
C1756 C1758 1.419 . S
C1757 C1752 1.425 . S
C1757 C1754 1.409 . S
C1757 C1755 1.415 . S
C1758 H1748 0.930 . S
C1758 C1756 1.419 . S
C1758 C1759 1.362 . S
C1759 H1749 0.930 . S
C1759 C1752 1.409 . S
C1759 C1758 1.362 . S
H1760 C1766 0.933 1_556 S
H1761 C1769 0.930 . S
H1762 C1770 0.930 . S
H1763 C1771 0.930 . S
H1764 C1774 0.930 . S
H1765 C1775 0.930 1_556 S
C1766 H1760 0.933 1_554 S
C1766 C1767 1.353 . S
C1766 C1768 1.413 . S
C1767 C1766 1.353 . S
C1767 C1769 1.419 . S
C1768 C1766 1.413 . S
C1768 C1773 1.425 . S
C1768 C1775 1.409 . S
C1769 H1761 0.930 . S
C1769 C1767 1.419 . S
C1769 C1770 1.362 . S
C1770 H1762 0.930 . S
C1770 C1769 1.362 . S
C1770 C1773 1.409 . S
C1771 H1763 0.930 . S
C1771 C1772 1.355 . S
C1771 C1773 1.415 . S
C1772 C1771 1.355 . S
C1772 C1774 1.419 . S
C1773 C1768 1.425 . S
C1773 C1770 1.409 . S
C1773 C1771 1.415 . S
C1774 H1764 0.930 . S
C1774 C1772 1.419 . S
C1774 C1775 1.362 . S
C1775 H1765 0.930 1_554 S
C1775 C1768 1.409 . S
C1775 C1774 1.362 . S
H1776 C1782 0.930 . S
H1777 C1785 0.930 . S
H1778 C1786 0.930 . S
H1779 C1787 0.930 . S
H1780 C1790 0.930 . S
H1781 C1791 0.930 . S
C1782 H1776 0.930 . S
C1782 C1783 1.355 . S
C1782 C1784 1.415 . S
C1783 C1782 1.355 . S
C1783 C1785 1.419 . S
C1784 C1782 1.415 . S
C1784 C1789 1.425 . S
C1784 C1791 1.409 . S
C1785 H1777 0.930 . S
C1785 C1783 1.419 . S
C1785 C1786 1.362 . S
C1786 H1778 0.930 . S
C1786 C1785 1.362 . S
C1786 C1789 1.409 . S
C1787 H1779 0.930 . S
C1787 C1788 1.355 . S
C1787 C1789 1.415 . S
C1788 C1787 1.355 . S
C1788 C1790 1.419 . S
C1789 C1784 1.425 . S
C1789 C1786 1.409 . S
C1789 C1787 1.415 . S
C1790 H1780 0.930 . S
C1790 C1788 1.419 . S
C1790 C1791 1.362 . S
C1791 H1781 0.930 . S
C1791 C1784 1.409 . S
C1791 C1790 1.362 . S
H1792 C1798 0.930 . S
H1793 C1801 0.930 . S
H1794 C1802 0.930 . S
H1795 C1803 0.930 . S
H1796 C1806 0.930 . S
H1797 C1807 0.930 . S
C1798 H1792 0.930 . S
C1798 C1799 1.355 . S
C1798 C1800 1.415 . S
C1799 C1798 1.355 . S
C1799 C1801 1.419 . S
C1800 C1798 1.415 . S
C1800 C1805 1.425 . S
C1800 C1807 1.409 . S
C1801 H1793 0.930 . S
C1801 C1799 1.419 . S
C1801 C1802 1.362 . S
C1802 H1794 0.930 . S
C1802 C1801 1.362 . S
C1802 C1805 1.409 . S
C1803 H1795 0.930 . S
C1803 C1804 1.355 . S
C1803 C1805 1.415 . S
C1804 C1803 1.355 . S
C1804 C1806 1.419 . S
C1805 C1800 1.425 . S
C1805 C1802 1.409 . S
C1805 C1803 1.415 . S
C1806 H1796 0.930 . S
C1806 C1804 1.419 . S
C1806 C1807 1.362 . S
C1807 H1797 0.930 . S
C1807 C1800 1.409 . S
C1807 C1806 1.362 . S
H1808 C1814 0.930 . S
H1809 C1817 0.930 . S
H1810 C1818 0.930 . S
H1811 C1819 0.930 . S
H1812 C1822 0.930 . S
H1813 C1823 0.930 . S
C1814 H1808 0.930 . S
C1814 C1815 1.355 . S
C1814 C1816 1.415 . S
C1815 C1814 1.355 . S
C1815 C1817 1.419 . S
C1816 C1814 1.415 . S
C1816 C1821 1.425 . S
C1816 C1823 1.409 . S
C1817 H1809 0.930 . S
C1817 C1815 1.419 . S
C1817 C1818 1.362 . S
C1818 H1810 0.930 . S
C1818 C1817 1.362 . S
C1818 C1821 1.409 . S
C1819 H1811 0.930 . S
C1819 C1820 1.355 . S
C1819 C1821 1.415 . S
C1820 C1819 1.355 . S
C1820 C1822 1.419 . S
C1821 C1816 1.425 . S
C1821 C1818 1.409 . S
C1821 C1819 1.415 . S
C1822 H1812 0.930 . S
C1822 C1820 1.419 . S
C1822 C1823 1.362 . S
C1823 H1813 0.930 . S
C1823 C1816 1.409 . S
C1823 C1822 1.362 . S
H1824 C1830 0.930 . S
H1825 C1833 0.930 . S
H1826 C1834 0.930 . S
H1827 C1835 0.930 . S
H1828 C1838 0.930 . S
H1829 C1839 0.930 . S
C1830 H1824 0.930 . S
C1830 C1831 1.355 . S
C1830 C1832 1.415 . S
C1831 C1830 1.355 . S
C1831 C1833 1.419 . S
C1832 C1830 1.415 . S
C1832 C1837 1.425 . S
C1832 C1839 1.409 . S
C1833 H1825 0.930 . S
C1833 C1831 1.419 . S
C1833 C1834 1.362 . S
C1834 H1826 0.930 . S
C1834 C1833 1.362 . S
C1834 C1837 1.409 . S
C1835 H1827 0.930 . S
C1835 C1836 1.355 . S
C1835 C1837 1.415 . S
C1836 C1835 1.355 . S
C1836 C1838 1.419 . S
C1837 C1832 1.425 . S
C1837 C1834 1.409 . S
C1837 C1835 1.415 . S
C1838 H1828 0.930 . S
C1838 C1836 1.419 . S
C1838 C1839 1.362 . S
C1839 H1829 0.930 . S
C1839 C1832 1.409 . S
C1839 C1838 1.362 . S
H1840 C1846 0.930 . S
H1841 C1849 0.930 . S
H1842 C1850 0.930 . S
H1843 C1851 0.930 . S
H1844 C1854 0.930 . S
H1845 C1855 0.930 . S
C1846 H1840 0.930 . S
C1846 C1847 1.355 1_655 S
C1846 C1848 1.415 . S
C1847 C1846 1.355 1_455 S
C1847 C1849 1.419 . S
C1848 C1846 1.415 . S
C1848 C1853 1.425 1_655 S
C1848 C1855 1.409 . S
C1849 H1841 0.930 . S
C1849 C1847 1.419 . S
C1849 C1850 1.362 . S
C1850 H1842 0.930 . S
C1850 C1849 1.362 . S
C1850 C1853 1.409 . S
C1851 H1843 0.930 . S
C1851 C1852 1.355 . S
C1851 C1853 1.415 . S
C1852 C1851 1.355 . S
C1852 C1854 1.419 1_455 S
C1853 C1848 1.425 1_455 S
C1853 C1850 1.409 . S
C1853 C1851 1.415 . S
C1854 H1844 0.930 . S
C1854 C1852 1.419 1_655 S
C1854 C1855 1.362 . S
C1855 H1845 0.930 . S
C1855 C1848 1.409 . S
C1855 C1854 1.362 . S
H1856 C1862 0.930 . S
H1857 C1865 0.930 . S
H1858 C1866 0.930 . S
H1859 C1867 0.930 . S
H1860 C1870 0.930 . S
H1861 C1871 0.930 . S
C1862 H1856 0.930 . S
C1862 C1863 1.355 . S
C1862 C1864 1.415 . S
C1863 C1862 1.355 . S
C1863 C1865 1.419 . S
C1864 C1862 1.415 . S
C1864 C1869 1.425 . S
C1864 C1871 1.409 . S
C1865 H1857 0.930 . S
C1865 C1863 1.419 . S
C1865 C1866 1.362 . S
C1866 H1858 0.930 . S
C1866 C1865 1.362 . S
C1866 C1869 1.409 . S
C1867 H1859 0.930 . S
C1867 C1868 1.355 . S
C1867 C1869 1.415 . S
C1868 C1867 1.355 . S
C1868 C1870 1.419 . S
C1869 C1864 1.425 . S
C1869 C1866 1.409 . S
C1869 C1867 1.415 . S
C1870 H1860 0.930 . S
C1870 C1868 1.419 . S
C1870 C1871 1.362 . S
C1871 H1861 0.930 . S
C1871 C1864 1.409 . S
C1871 C1870 1.362 . S
H1872 C1878 0.930 . S
H1873 C1881 0.930 . S
H1874 C1882 0.930 . S
H1875 C1883 0.930 . S
H1876 C1886 0.930 1_554 S
H1877 C1887 0.930 . S
C1878 H1872 0.930 . S
C1878 C1879 1.355 . S
C1878 C1880 1.415 . S
C1879 C1878 1.355 . S
C1879 C1881 1.419 . S
C1880 C1878 1.415 . S
C1880 C1885 1.425 . S
C1880 C1887 1.409 . S
C1881 H1873 0.930 . S
C1881 C1879 1.419 . S
C1881 C1882 1.362 . S
C1882 H1874 0.930 . S
C1882 C1881 1.362 . S
C1882 C1885 1.409 . S
C1883 H1875 0.930 . S
C1883 C1884 1.355 . S
C1883 C1885 1.415 . S
C1884 C1883 1.355 . S
C1884 C1886 1.419 . S
C1885 C1880 1.425 . S
C1885 C1882 1.409 . S
C1885 C1883 1.415 . S
C1886 H1876 0.930 1_556 S
C1886 C1884 1.419 . S
C1886 C1887 1.362 . S
C1887 H1877 0.930 . S
C1887 C1880 1.409 . S
C1887 C1886 1.362 . S
H1888 C1894 0.930 . S
H1889 C1897 0.930 . S
H1890 C1898 0.930 . S
H1891 C1899 0.930 . S
H1892 C1902 0.930 . S
H1893 C1903 0.930 . S
C1894 H1888 0.930 . S
C1894 C1895 1.355 . S
C1894 C1896 1.415 . S
C1895 C1894 1.355 . S
C1895 C1897 1.419 . S
C1896 C1894 1.415 . S
C1896 C1901 1.425 . S
C1896 C1903 1.409 . S
C1897 H1889 0.930 . S
C1897 C1895 1.419 . S
C1897 C1898 1.362 . S
C1898 H1890 0.930 . S
C1898 C1897 1.362 . S
C1898 C1901 1.409 . S
C1899 H1891 0.930 . S
C1899 C1900 1.355 . S
C1899 C1901 1.415 . S
C1900 C1899 1.355 . S
C1900 C1902 1.419 . S
C1901 C1896 1.425 . S
C1901 C1898 1.409 . S
C1901 C1899 1.415 . S
C1902 H1892 0.930 . S
C1902 C1900 1.419 . S
C1902 C1903 1.362 . S
C1903 H1893 0.930 . S
C1903 C1896 1.409 . S
C1903 C1902 1.362 . S
H1904 C1910 0.930 . S
H1905 C1913 0.930 . S
H1906 C1914 0.930 . S
H1907 C1915 0.930 . S
H1908 C1918 0.930 . S
H1909 C1919 0.930 . S
C1910 H1904 0.930 . S
C1910 C1911 1.355 . S
C1910 C1912 1.415 . S
C1911 C1910 1.355 . S
C1911 C1913 1.419 . S
C1912 C1910 1.415 . S
C1912 C1917 1.425 . S
C1912 C1919 1.409 . S
C1913 H1905 0.930 . S
C1913 C1911 1.419 . S
C1913 C1914 1.362 . S
C1914 H1906 0.930 . S
C1914 C1913 1.362 . S
C1914 C1917 1.409 . S
C1915 H1907 0.930 . S
C1915 C1916 1.355 . S
C1915 C1917 1.415 . S
C1916 C1915 1.355 . S
C1916 C1918 1.419 . S
C1917 C1912 1.425 . S
C1917 C1914 1.409 . S
C1917 C1915 1.415 . S
C1918 H1908 0.930 . S
C1918 C1916 1.419 . S
C1918 C1919 1.362 . S
C1919 H1909 0.930 . S
C1919 C1912 1.409 . S
C1919 C1918 1.362 . S
H1920 C1926 0.930 . S
H1921 C1929 0.930 . S
H1922 C1930 0.930 . S
H1923 C1931 0.930 . S
H1924 C1934 0.930 . S
H1925 C1935 0.930 . S
C1926 H1920 0.930 . S
C1926 C1927 1.355 . S
C1926 C1928 1.415 . S
C1927 C1926 1.355 . S
C1927 C1929 1.419 . S
C1928 C1926 1.415 . S
C1928 C1933 1.425 . S
C1928 C1935 1.409 . S
C1929 H1921 0.930 . S
C1929 C1927 1.419 . S
C1929 C1930 1.362 . S
C1930 H1922 0.930 . S
C1930 C1929 1.362 . S
C1930 C1933 1.409 . S
C1931 H1923 0.930 . S
C1931 C1932 1.355 . S
C1931 C1933 1.415 . S
C1932 C1931 1.355 . S
C1932 C1934 1.419 . S
C1933 C1928 1.425 . S
C1933 C1930 1.409 . S
C1933 C1931 1.415 . S
C1934 H1924 0.930 . S
C1934 C1932 1.419 . S
C1934 C1935 1.362 . S
C1935 H1925 0.930 . S
C1935 C1928 1.409 . S
C1935 C1934 1.362 . S
H1936 C1942 0.930 . S
H1937 C1945 0.930 . S
H1938 C1946 0.930 . S
H1939 C1947 0.930 . S
H1940 C1950 0.930 . S
H1941 C1951 0.930 . S
C1942 H1936 0.930 . S
C1942 C1943 1.355 . S
C1942 C1944 1.415 . S
C1943 C1942 1.355 . S
C1943 C1945 1.419 . S
C1944 C1942 1.415 . S
C1944 C1949 1.425 . S
C1944 C1951 1.409 . S
C1945 H1937 0.930 . S
C1945 C1943 1.419 . S
C1945 C1946 1.362 . S
C1946 H1938 0.930 . S
C1946 C1945 1.362 . S
C1946 C1949 1.409 . S
C1947 H1939 0.930 . S
C1947 C1948 1.355 . S
C1947 C1949 1.415 . S
C1948 C1947 1.355 . S
C1948 C1950 1.419 . S
C1949 C1944 1.425 . S
C1949 C1946 1.409 . S
C1949 C1947 1.415 . S
C1950 H1940 0.930 . S
C1950 C1948 1.419 . S
C1950 C1951 1.362 . S
C1951 H1941 0.930 . S
C1951 C1944 1.409 . S
C1951 C1950 1.362 . S
H1952 C1958 0.930 . S
H1953 C1961 0.930 . S
H1954 C1962 0.930 . S
H1955 C1963 0.930 . S
H1956 C1966 0.930 . S
H1957 C1967 0.930 . S
C1958 H1952 0.930 . S
C1958 C1959 1.355 . S
C1958 C1960 1.415 . S
C1959 C1958 1.355 . S
C1959 C1961 1.419 . S
C1960 C1958 1.415 . S
C1960 C1965 1.425 . S
C1960 C1967 1.409 . S
C1961 H1953 0.930 . S
C1961 C1959 1.419 . S
C1961 C1962 1.362 . S
C1962 H1954 0.930 . S
C1962 C1961 1.362 . S
C1962 C1965 1.409 . S
C1963 H1955 0.930 . S
C1963 C1964 1.355 . S
C1963 C1965 1.415 . S
C1964 C1963 1.355 . S
C1964 C1966 1.419 . S
C1965 C1960 1.425 . S
C1965 C1962 1.409 . S
C1965 C1963 1.415 . S
C1966 H1956 0.930 . S
C1966 C1964 1.419 . S
C1966 C1967 1.362 . S
C1967 H1957 0.930 . S
C1967 C1960 1.409 . S
C1967 C1966 1.362 . S
H1968 C1974 0.930 . S
H1969 C1977 0.930 . S
H1970 C1978 0.930 1_455 S
H1971 C1979 0.930 1_455 S
H1972 C1982 0.930 . S
H1973 C1983 0.930 . S
C1974 H1968 0.930 . S
C1974 C1975 1.355 . S
C1974 C1976 1.415 . S
C1975 C1974 1.355 . S
C1975 C1977 1.419 . S
C1976 C1974 1.415 . S
C1976 C1981 1.425 . S
C1976 C1983 1.409 . S
C1977 H1969 0.930 . S
C1977 C1975 1.419 . S
C1977 C1978 1.362 . S
C1978 H1970 0.930 1_655 S
C1978 C1977 1.362 . S
C1978 C1981 1.409 . S
C1979 H1971 0.930 1_655 S
C1979 C1980 1.355 . S
C1979 C1981 1.415 . S
C1980 C1979 1.355 . S
C1980 C1982 1.419 . S
C1981 C1976 1.425 . S
C1981 C1978 1.409 . S
C1981 C1979 1.415 . S
C1982 H1972 0.930 . S
C1982 C1980 1.419 . S
C1982 C1983 1.362 . S
C1983 H1973 0.930 . S
C1983 C1976 1.409 . S
C1983 C1982 1.362 . S
H1984 C1990 0.930 . S
H1985 C1993 0.930 . S
H1986 C1994 0.930 . S
H1987 C1995 0.930 . S
H1988 C1998 0.930 . S
H1989 C1999 0.930 . S
C1990 H1984 0.930 . S
C1990 C1991 1.355 . S
C1990 C1992 1.415 . S
C1991 C1990 1.355 . S
C1991 C1993 1.419 . S
C1992 C1990 1.415 . S
C1992 C1997 1.425 . S
C1992 C1999 1.409 . S
C1993 H1985 0.930 . S
C1993 C1991 1.419 . S
C1993 C1994 1.362 . S
C1994 H1986 0.930 . S
C1994 C1993 1.362 . S
C1994 C1997 1.409 . S
C1995 H1987 0.930 . S
C1995 C1996 1.355 . S
C1995 C1997 1.415 . S
C1996 C1995 1.355 . S
C1996 C1998 1.419 . S
C1997 C1992 1.425 . S
C1997 C1994 1.409 . S
C1997 C1995 1.415 . S
C1998 H1988 0.930 . S
C1998 C1996 1.419 . S
C1998 C1999 1.362 . S
C1999 H1989 0.930 . S
C1999 C1992 1.409 . S
C1999 C1998 1.362 . S
H2000 C2006 0.930 . S
H2001 C2009 0.930 . S
H2002 C2010 0.930 . S
H2003 C2011 0.930 . S
H2004 C2014 0.930 . S
H2005 C2015 0.930 . S
C2006 H2000 0.930 . S
C2006 C2007 1.355 . S
C2006 C2008 1.415 . S
C2007 C2006 1.355 . S
C2007 C2009 1.419 . S
C2008 C2006 1.415 . S
C2008 C2013 1.425 . S
C2008 C2015 1.409 . S
C2009 H2001 0.930 . S
C2009 C2007 1.419 . S
C2009 C2010 1.362 . S
C2010 H2002 0.930 . S
C2010 C2009 1.362 . S
C2010 C2013 1.409 . S
C2011 H2003 0.930 . S
C2011 C2012 1.355 . S
C2011 C2013 1.415 . S
C2012 C2011 1.355 . S
C2012 C2014 1.419 . S
C2013 C2008 1.425 . S
C2013 C2010 1.409 . S
C2013 C2011 1.415 . S
C2014 H2004 0.930 . S
C2014 C2012 1.419 . S
C2014 C2015 1.362 . S
C2015 H2005 0.930 . S
C2015 C2008 1.409 . S
C2015 C2014 1.362 . S
H2016 C2022 0.930 . S
H2017 C2025 0.930 . S
H2018 C2026 0.930 . S
H2019 C2027 0.930 . S
H2020 C2030 0.930 . S
H2021 C2031 0.930 . S
C2022 H2016 0.930 . S
C2022 C2023 1.355 . S
C2022 C2024 1.415 . S
C2023 C2022 1.355 . S
C2023 C2025 1.419 . S
C2024 C2022 1.415 . S
C2024 C2029 1.425 . S
C2024 C2031 1.409 . S
C2025 H2017 0.930 . S
C2025 C2023 1.419 . S
C2025 C2026 1.362 . S
C2026 H2018 0.930 . S
C2026 C2025 1.362 . S
C2026 C2029 1.409 . S
C2027 H2019 0.930 . S
C2027 C2028 1.355 . S
C2027 C2029 1.415 . S
C2028 C2027 1.355 . S
C2028 C2030 1.419 . S
C2029 C2024 1.425 . S
C2029 C2026 1.409 . S
C2029 C2027 1.415 . S
C2030 H2020 0.930 . S
C2030 C2028 1.419 . S
C2030 C2031 1.362 . S
C2031 H2021 0.930 . S
C2031 C2024 1.409 . S
C2031 C2030 1.362 . S
H2032 C2038 0.930 . S
H2033 C2041 0.930 . S
H2034 C2042 0.930 . S
H2035 C2043 0.930 . S
H2036 C2046 0.942 . S
H2037 C2047 0.930 . S
C2038 H2032 0.930 . S
C2038 C2039 1.355 . S
C2038 C2040 1.415 . S
C2039 C2038 1.355 . S
C2039 C2041 1.419 . S
C2040 C2038 1.415 . S
C2040 C2045 1.425 . S
C2040 C2047 1.409 . S
C2041 H2033 0.930 . S
C2041 C2039 1.419 . S
C2041 C2042 1.362 . S
C2042 H2034 0.930 . S
C2042 C2041 1.362 . S
C2042 C2045 1.409 . S
C2043 H2035 0.930 . S
C2043 C2044 1.355 . S
C2043 C2045 1.415 . S
C2044 C2043 1.355 . S
C2044 C2046 1.419 . S
C2045 C2040 1.425 . S
C2045 C2042 1.409 . S
C2045 C2043 1.415 . S
C2046 H2036 0.942 . S
C2046 C2044 1.419 . S
C2046 C2047 1.362 . S
C2047 H2037 0.930 . S
C2047 C2040 1.409 . S
C2047 C2046 1.362 . S
H2048 C2054 0.930 . S
H2049 C2057 0.930 . S
H2050 C2058 0.930 . S
H2051 C2059 0.930 . S
H2052 C2062 0.930 . S
H2053 C2063 0.930 . S
C2054 H2048 0.930 . S
C2054 C2055 1.355 . S
C2054 C2056 1.415 . S
C2055 C2054 1.355 . S
C2055 C2057 1.419 . S
C2056 C2054 1.415 . S
C2056 C2061 1.425 . S
C2056 C2063 1.409 . S
C2057 H2049 0.930 . S
C2057 C2055 1.419 . S
C2057 C2058 1.362 . S
C2058 H2050 0.930 . S
C2058 C2057 1.362 . S
C2058 C2061 1.409 . S
C2059 H2051 0.930 . S
C2059 C2060 1.355 . S
C2059 C2061 1.415 . S
C2060 C2059 1.355 . S
C2060 C2062 1.419 . S
C2061 C2056 1.425 . S
C2061 C2058 1.409 . S
C2061 C2059 1.415 . S
C2062 H2052 0.930 . S
C2062 C2060 1.419 . S
C2062 C2063 1.362 . S
C2063 H2053 0.930 . S
C2063 C2056 1.409 . S
C2063 C2062 1.362 . S
H2064 C2070 0.930 . S
H2065 C2073 0.930 . S
H2066 C2074 0.930 . S
H2067 C2075 0.930 . S
H2068 C2078 0.930 . S
H2069 C2079 0.930 . S
C2070 H2064 0.930 . S
C2070 C2071 1.355 . S
C2070 C2072 1.415 . S
C2071 C2070 1.355 . S
C2071 C2073 1.419 . S
C2072 C2070 1.415 . S
C2072 C2077 1.425 . S
C2072 C2079 1.409 . S
C2073 H2065 0.930 . S
C2073 C2071 1.419 . S
C2073 C2074 1.362 . S
C2074 H2066 0.930 . S
C2074 C2073 1.362 . S
C2074 C2077 1.409 . S
C2075 H2067 0.930 . S
C2075 C2076 1.355 . S
C2075 C2077 1.415 . S
C2076 C2075 1.355 . S
C2076 C2078 1.419 . S
C2077 C2072 1.425 . S
C2077 C2074 1.409 . S
C2077 C2075 1.415 . S
C2078 H2068 0.930 . S
C2078 C2076 1.419 . S
C2078 C2079 1.362 . S
C2079 H2069 0.930 . S
C2079 C2072 1.409 . S
C2079 C2078 1.362 . S
H2080 C2086 0.930 . S
H2081 C2089 0.930 . S
H2082 C2090 0.930 . S
H2083 C2091 0.930 . S
H2084 C2094 0.930 . S
H2085 C2095 0.916 1_545 S
C2086 H2080 0.930 . S
C2086 C2087 1.355 . S
C2086 C2088 1.415 . S
C2087 C2086 1.355 . S
C2087 C2089 1.419 . S
C2088 C2086 1.415 . S
C2088 C2093 1.425 . S
C2088 C2095 1.427 . S
C2089 H2081 0.930 . S
C2089 C2087 1.419 . S
C2089 C2090 1.362 . S
C2090 H2082 0.930 . S
C2090 C2089 1.362 . S
C2090 C2093 1.409 . S
C2091 H2083 0.930 . S
C2091 C2092 1.355 . S
C2091 C2093 1.415 . S
C2092 C2091 1.355 . S
C2092 C2094 1.419 1_565 S
C2093 C2088 1.425 . S
C2093 C2090 1.409 . S
C2093 C2091 1.415 . S
C2094 H2084 0.930 . S
C2094 C2092 1.419 1_545 S
C2094 C2095 1.359 1_545 S
C2095 H2085 0.916 1_565 S
C2095 C2088 1.427 . S
C2095 C2094 1.359 1_565 S
H2096 C2102 0.930 . S
H2097 C2105 0.930 . S
H2098 C2106 0.930 . S
H2099 C2107 0.930 . S
H2100 C2110 0.930 . S
H2101 C2111 0.930 . S
C2102 H2096 0.930 . S
C2102 C2103 1.355 . S
C2102 C2104 1.415 . S
C2103 C2102 1.355 . S
C2103 C2105 1.419 . S
C2104 C2102 1.415 . S
C2104 C2109 1.425 . S
C2104 C2111 1.409 . S
C2105 H2097 0.930 . S
C2105 C2103 1.419 . S
C2105 C2106 1.362 . S
C2106 H2098 0.930 . S
C2106 C2105 1.362 . S
C2106 C2109 1.409 . S
C2107 H2099 0.930 . S
C2107 C2108 1.355 . S
C2107 C2109 1.415 . S
C2108 C2107 1.355 . S
C2108 C2110 1.419 . S
C2109 C2104 1.425 . S
C2109 C2106 1.409 . S
C2109 C2107 1.415 . S
C2110 H2100 0.930 . S
C2110 C2108 1.419 . S
C2110 C2111 1.362 . S
C2111 H2101 0.930 . S
C2111 C2104 1.409 . S
C2111 C2110 1.362 . S
H2112 C2118 0.930 . S
H2113 C2121 0.930 . S
H2114 C2122 0.930 . S
H2115 C2123 0.930 . S
H2116 C2126 0.930 . S
H2117 C2127 0.930 . S
C2118 H2112 0.930 . S
C2118 C2119 1.355 . S
C2118 C2120 1.415 . S
C2119 C2118 1.355 . S
C2119 C2121 1.419 1_556 S
C2120 C2118 1.415 . S
C2120 C2125 1.425 1_556 S
C2120 C2127 1.409 . S
C2121 H2113 0.930 . S
C2121 C2119 1.419 1_554 S
C2121 C2122 1.362 . S
C2122 H2114 0.930 . S
C2122 C2121 1.362 . S
C2122 C2125 1.409 . S
C2123 H2115 0.930 . S
C2123 C2124 1.355 . S
C2123 C2125 1.415 . S
C2124 C2123 1.355 . S
C2124 C2126 1.419 1_554 S
C2125 C2120 1.425 1_554 S
C2125 C2122 1.409 . S
C2125 C2123 1.415 . S
C2126 H2116 0.930 . S
C2126 C2124 1.419 1_556 S
C2126 C2127 1.362 . S
C2127 H2117 0.930 . S
C2127 C2120 1.409 . S
C2127 C2126 1.362 . S
H2128 C2134 0.930 . S
H2129 C2137 0.930 . S
H2130 C2138 0.930 . S
H2131 C2139 0.930 . S
H2132 C2142 0.930 . S
H2133 C2143 0.930 . S
C2134 H2128 0.930 . S
C2134 C2135 1.355 . S
C2134 C2136 1.415 . S
C2135 C2134 1.355 . S
C2135 C2137 1.419 . S
C2136 C2134 1.415 . S
C2136 C2141 1.425 . S
C2136 C2143 1.409 . S
C2137 H2129 0.930 . S
C2137 C2135 1.419 . S
C2137 C2138 1.362 . S
C2138 H2130 0.930 . S
C2138 C2137 1.362 . S
C2138 C2141 1.409 . S
C2139 H2131 0.930 . S
C2139 C2140 1.355 . S
C2139 C2141 1.415 . S
C2140 C2139 1.355 . S
C2140 C2142 1.419 . S
C2141 C2136 1.425 . S
C2141 C2138 1.409 . S
C2141 C2139 1.415 . S
C2142 H2132 0.930 . S
C2142 C2140 1.419 . S
C2142 C2143 1.362 . S
C2143 H2133 0.930 . S
C2143 C2136 1.409 . S
C2143 C2142 1.362 . S
H2144 C2150 0.930 . S
H2145 C2153 0.930 . S
H2146 C2154 0.930 . S
H2147 C2155 0.930 . S
H2148 C2158 0.930 . S
H2149 C2159 0.930 . S
C2150 H2144 0.930 . S
C2150 C2151 1.355 . S
C2150 C2152 1.415 . S
C2151 C2150 1.355 . S
C2151 C2153 1.419 . S
C2152 C2150 1.415 . S
C2152 C2157 1.425 . S
C2152 C2159 1.409 1_554 S
C2153 H2145 0.930 . S
C2153 C2151 1.419 . S
C2153 C2154 1.362 . S
C2154 H2146 0.930 . S
C2154 C2153 1.362 . S
C2154 C2157 1.409 . S
C2155 H2147 0.930 . S
C2155 C2156 1.355 1_554 S
C2155 C2157 1.415 . S
C2156 C2155 1.355 1_556 S
C2156 C2158 1.419 . S
C2157 C2152 1.425 . S
C2157 C2154 1.409 . S
C2157 C2155 1.415 . S
C2158 H2148 0.930 . S
C2158 C2156 1.419 . S
C2158 C2159 1.362 . S
C2159 H2149 0.930 . S
C2159 C2152 1.409 1_556 S
C2159 C2158 1.362 . S
H2160 C2166 0.930 . S
H2161 C2169 0.930 . S
H2162 C2170 0.930 . S
H2163 C2171 0.930 . S
H2164 C2174 0.930 . S
H2165 C2175 0.930 . S
C2166 H2160 0.930 . S
C2166 C2167 1.355 . S
C2166 C2168 1.415 . S
C2167 C2166 1.355 . S
C2167 C2169 1.419 . S
C2168 C2166 1.415 . S
C2168 C2173 1.425 . S
C2168 C2175 1.409 . S
C2169 H2161 0.930 . S
C2169 C2167 1.419 . S
C2169 C2170 1.362 . S
C2170 H2162 0.930 . S
C2170 C2169 1.362 . S
C2170 C2173 1.409 . S
C2171 H2163 0.930 . S
C2171 C2172 1.355 . S
C2171 C2173 1.415 . S
C2172 C2171 1.355 . S
C2172 C2174 1.419 . S
C2173 C2168 1.425 . S
C2173 C2170 1.409 . S
C2173 C2171 1.415 . S
C2174 H2164 0.930 . S
C2174 C2172 1.419 . S
C2174 C2175 1.362 . S
C2175 H2165 0.930 . S
C2175 C2168 1.409 . S
C2175 C2174 1.362 . S
H2176 C2182 0.930 . S
H2177 C2185 0.930 . S
H2178 C2186 0.930 . S
H2179 C2187 0.930 . S
H2180 C2190 0.930 . S
H2181 C2191 0.930 . S
C2182 H2176 0.930 . S
C2182 C2183 1.355 . S
C2182 C2184 1.415 . S
C2183 C2182 1.355 . S
C2183 C2185 1.419 . S
C2184 C2182 1.415 . S
C2184 C2189 1.425 . S
C2184 C2191 1.409 . S
C2185 H2177 0.930 . S
C2185 C2183 1.419 . S
C2185 C2186 1.362 . S
C2186 H2178 0.930 . S
C2186 C2185 1.362 . S
C2186 C2189 1.409 . S
C2187 H2179 0.930 . S
C2187 C2188 1.355 . S
C2187 C2189 1.415 . S
C2188 C2187 1.355 . S
C2188 C2190 1.419 . S
C2189 C2184 1.425 . S
C2189 C2186 1.409 . S
C2189 C2187 1.415 . S
C2190 H2180 0.930 . S
C2190 C2188 1.419 . S
C2190 C2191 1.362 . S
C2191 H2181 0.930 . S
C2191 C2184 1.409 . S
C2191 C2190 1.362 . S
C663 C105 1.240 . S
C668 C352 1.248 . S
C679 C65 1.376 . S
C684 C365 1.357 . S
C695 C73 1.399 . S
C700 C384 1.409 . S
C716 C415 1.894 . S
C711 C92 1.902 . S
C727 C17 1.761 . S
C732 C435 1.720 . S
C748 C452 0.950 . S
C743 C37 0.976 . S
C764 C465 1.510 . S
C759 C49 1.460 . S
C775 C8 1.090 . S
C780 C492 1.031 . S
C796 C345 1.250 . S
C791 C231 1.266 . S
C807 C241 1.506 . S
C812 C375 1.469 . S
C828 C377 1.646 . S
C823 C273 1.633 . S
C844 C412 0.958 . S
C839 C171 0.912 . S
C855 C227 1.172 . S
C860 C432 1.192 . S
C876 C445 1.764 . S
C871 C245 1.704 . S
C892 C475 1.377 . S
C887 C269 1.383 . S
C908 C485 1.232 . S
C903 C175 1.197 . S
C924 C355 1.634 1_565 S
C919 C162 1.627 . S
C935 C289 1.755 . S
C940 C505 1.754 1_556 S
C956 C535 1.658 . S
C951 C330 1.610 . S
C972 C552 1.226 . S
C967 C317 1.254 . S
C983 C120 1.873 . S
C988 C495 1.863 . S
C999 C134 1.284 . S
C1004 C382 1.269 . S
C1015 C331 1.784 . S
C1020 C565 1.797 . S
C1036 C592 1.040 . S
C1031 C303 1.065 . S
C1052 C342 1.245 . S
C1047 C59 1.330 . S
C1068 C577 1.394 . S
C1063 C107 1.424 . S
C1079 C91 1.399 . S
C1084 C395 1.400 . S
C1095 C78 1.941 . S
C1100 C564 1.918 . S
C1116 C424 1.764 . S
C1111 C7 1.759 . S
C1127 C51 0.968 . S
C1132 C522 1.003 . S
C1148 C457 1.514 . S
C1143 C31 1.518 . S
C1164 C602 1.085 . S
C1159 C22 1.132 . S
C1180 C337 1.303 . S
C1175 C143 1.309 . S
C1196 C584 1.494 . S
C1191 C315 1.495 . S
C1207 C115 1.754 . S
C1212 C385 1.728 . S
C1223 C287 0.996 . S
C1228 C562 0.944 . S
C1239 C147 1.196 . S
C1244 C422 1.170 . S
C1260 C517 1.764 . S
C1255 C311 1.786 . S
C1271 C119 1.328 . S
C1276 C464 1.405 . S
C1287 C283 1.275 . S
C1292 C597 1.267 . S
C1303 C190 1.647 . S
C1308 C344 1.646 . S
C1319 C177 1.750 . S
C1324 C497 1.761 . S
C1335 C260 1.664 . S
C1340 C444 1.639 . S
C1351 C247 1.299 . S
C1356 C542 1.227 . S
C1372 C604 1.869 . S
C1367 C274 1.903 . S
C1383 C218 1.342 . S
C1388 C392 1.313 . S
C1404 C397 1.806 . S
C1399 C261 1.786 . S
C1420 C362 1.080 . S
C1415 C205 1.096 . S
C1431 C77 1.256 . S
C1436 C632 1.242 . S
C1452 C585 1.392 . S
C1447 C93 1.402 . S
C1463 C101 1.412 . S
C1468 C644 1.376 1_455 S
C1479 C64 1.901 . S
C1484 C575 1.893 . S
C1495 C45 1.758 . S
C1500 C515 1.716 . S
C1516 C532 0.913 . S
C1511 C9 0.973 . S
C1532 C545 1.509 1_655 S
C1527 C21 1.423 . S
C1548 C612 1.015 . S
C1543 C36 1.073 . S
C1564 C625 1.294 . S
C1559 C259 1.200 . S
C1575 C185 1.529 . S
C1580 C595 1.486 . S
C1596 C637 1.644 . S
C1591 C203 1.640 . S
C1612 C572 0.882 . S
C1607 C213 0.946 . S
C1628 C512 1.197 . S
C1623 C255 1.162 . S
C1639 C189 1.727 . S
C1644 C525 1.750 . S
C1660 C555 1.367 . S
C1655 C199 1.369 . S
C1671 C217 1.252 . S
C1676 C605 1.218 . S
C1692 C635 1.601 . S
C1687 C316 1.652 . S
C1703 C135 1.743 . S
C1708 C425 1.727 . S
C1724 C455 1.652 . S
C1719 C148 1.613 . S
C1740 C472 1.241 1_565 S
C1735 C163 1.243 . S
C1756 C615 1.885 . S
C1751 C302 1.845 . S
C1767 C288 1.283 . S
C1772 C642 1.263 . S
C1788 C405 1.795 . S
C1783 C149 1.776 . S
C1804 C372 1.104 . S
C1799 C121 1.079 . S
C1815 C87 1.343 . S
C1820 C622 1.274 . S
C1836 C357 1.413 . S
C1831 C79 1.395 . S
C1847 C63 1.343 . S
C1852 C655 1.443 . S
C1863 C106 1.950 . S
C1868 C404 1.873 . S
C1879 C35 1.774 . S
C1884 C504 1.718 1_556 S
C1900 C442 1.002 . S
C1895 C23 0.968 . S
C1911 C3 1.527 . S
C1916 C537 1.511 . S
C1927 C50 1.071 . S
C1932 C482 1.067 . S
C1948 C617 1.268 . S
C1943 C325 1.315 . S
C1959 C161 1.524 . S
C1964 C364 1.520 . S
C1980 C645 1.679 . S
C1975 C297 1.762 . S
C1991 C133 0.998 . S
C1996 C402 0.933 . S
C2007 C329 1.205 . S
C2012 C502 1.176 . S
C2028 C437 1.777 . S
C2023 C157 1.770 . S
C2039 C301 1.390 . S
C2044 C544 1.366 . S
C2060 C477 1.272 . S
C2055 C129 1.275 . S
C2076 C624 1.616 . S
C2071 C246 1.672 . S
C2092 C417 1.756 1_565 S
C2087 C219 1.751 . S
C2103 C232 1.619 . S
C2108 C524 1.674 . S
C2124 C462 1.291 . S
C2119 C191 1.266 . S
C2135 C204 1.872 . S
C2140 C484 1.902 . S
C2151 C176 1.343 . S
C2156 C652 1.295 . S
C2172 C557 1.817 . S
C2167 C233 1.797 1_565 S
C2188 C582 1.104 . S
C2183 C275 1.116 . S
