# Generated by pormake.
# Topology tph, (6,8)-cn, num edge types: 1
# Building blocks:
#     Node 0, Type 0, BuildingBlock: MIDCAF_clean_sbu_0, # of connection points: 6
#     Node 1, Type 0, BuildingBlock: MIDCAF_clean_sbu_0, # of connection points: 6
#     Node 2, Type 0, BuildingBlock: MIDCAF_clean_sbu_0, # of connection points: 6
#     Node 3, Type 0, BuildingBlock: MIDCAF_clean_sbu_0, # of connection points: 6
#     Node 4, Type 0, BuildingBlock: MIDCAF_clean_sbu_0, # of connection points: 6
#     Node 5, Type 0, BuildingBlock: MIDCAF_clean_sbu_0, # of connection points: 6
#     Node 6, Type 0, BuildingBlock: MIDCAF_clean_sbu_0, # of connection points: 6
#     Node 7, Type 0, BuildingBlock: MIDCAF_clean_sbu_0, # of connection points: 6
#     Node 8, Type 0, BuildingBlock: MIDCAF_clean_sbu_0, # of connection points: 6
#     Node 9, Type 0, BuildingBlock: MIDCAF_clean_sbu_0, # of connection points: 6
#     Node 10, Type 0, BuildingBlock: MIDCAF_clean_sbu_0, # of connection points: 6
#     Node 11, Type 0, BuildingBlock: MIDCAF_clean_sbu_0, # of connection points: 6
#     Node 12, Type 0, BuildingBlock: MIDCAF_clean_sbu_0, # of connection points: 6
#     Node 13, Type 0, BuildingBlock: MIDCAF_clean_sbu_0, # of connection points: 6
#     Node 14, Type 0, BuildingBlock: MIDCAF_clean_sbu_0, # of connection points: 6
#     Node 15, Type 0, BuildingBlock: MIDCAF_clean_sbu_0, # of connection points: 6
#     Node 16, Type 1, BuildingBlock: TAGTUT_clean_sbu_1, # of connection points: 8
#     Node 17, Type 1, BuildingBlock: TAGTUT_clean_sbu_1, # of connection points: 8
#     Node 18, Type 1, BuildingBlock: TAGTUT_clean_sbu_1, # of connection points: 8
#     Node 19, Type 1, BuildingBlock: TAGTUT_clean_sbu_1, # of connection points: 8
#     Node 20, Type 1, BuildingBlock: TAGTUT_clean_sbu_1, # of connection points: 8
#     Node 21, Type 1, BuildingBlock: TAGTUT_clean_sbu_1, # of connection points: 8
#     Node 22, Type 1, BuildingBlock: TAGTUT_clean_sbu_1, # of connection points: 8
#     Node 23, Type 1, BuildingBlock: TAGTUT_clean_sbu_1, # of connection points: 8
#     Node 24, Type 1, BuildingBlock: TAGTUT_clean_sbu_1, # of connection points: 8
#     Node 25, Type 1, BuildingBlock: TAGTUT_clean_sbu_1, # of connection points: 8
#     Node 26, Type 1, BuildingBlock: TAGTUT_clean_sbu_1, # of connection points: 8
#     Node 27, Type 1, BuildingBlock: TAGTUT_clean_sbu_1, # of connection points: 8
#     Edge 28, Type (0, 1), None
#     Edge 29, Type (0, 1), None
#     Edge 30, Type (0, 1), None
#     Edge 31, Type (0, 1), None
#     Edge 32, Type (0, 1), None
#     Edge 33, Type (0, 1), None
#     Edge 34, Type (0, 1), None
#     Edge 35, Type (0, 1), None
#     Edge 36, Type (0, 1), None
#     Edge 37, Type (0, 1), None
#     Edge 38, Type (0, 1), None
#     Edge 39, Type (0, 1), None
#     Edge 40, Type (0, 1), None
#     Edge 41, Type (0, 1), None
#     Edge 42, Type (0, 1), None
#     Edge 43, Type (0, 1), None
#     Edge 44, Type (0, 1), None
#     Edge 45, Type (0, 1), None
#     Edge 46, Type (0, 1), None
#     Edge 47, Type (0, 1), None
#     Edge 48, Type (0, 1), None
#     Edge 49, Type (0, 1), None
#     Edge 50, Type (0, 1), None
#     Edge 51, Type (0, 1), None
#     Edge 52, Type (0, 1), None
#     Edge 53, Type (0, 1), None
#     Edge 54, Type (0, 1), None
#     Edge 55, Type (0, 1), None
#     Edge 56, Type (0, 1), None
#     Edge 57, Type (0, 1), None
#     Edge 58, Type (0, 1), None
#     Edge 59, Type (0, 1), None
#     Edge 60, Type (0, 1), None
#     Edge 61, Type (0, 1), None
#     Edge 62, Type (0, 1), None
#     Edge 63, Type (0, 1), None
#     Edge 64, Type (0, 1), None
#     Edge 65, Type (0, 1), None
#     Edge 66, Type (0, 1), None
#     Edge 67, Type (0, 1), None
#     Edge 68, Type (0, 1), None
#     Edge 69, Type (0, 1), None
#     Edge 70, Type (0, 1), None
#     Edge 71, Type (0, 1), None
#     Edge 72, Type (0, 1), None
#     Edge 73, Type (0, 1), None
#     Edge 74, Type (0, 1), None
#     Edge 75, Type (0, 1), None
#     Edge 76, Type (0, 1), None
#     Edge 77, Type (0, 1), None
#     Edge 78, Type (0, 1), None
#     Edge 79, Type (0, 1), None
#     Edge 80, Type (0, 1), None
#     Edge 81, Type (0, 1), None
#     Edge 82, Type (0, 1), None
#     Edge 83, Type (0, 1), None
#     Edge 84, Type (0, 1), None
#     Edge 85, Type (0, 1), None
#     Edge 86, Type (0, 1), None
#     Edge 87, Type (0, 1), None
#     Edge 88, Type (0, 1), None
#     Edge 89, Type (0, 1), None
#     Edge 90, Type (0, 1), None
#     Edge 91, Type (0, 1), None
#     Edge 92, Type (0, 1), None
#     Edge 93, Type (0, 1), None
#     Edge 94, Type (0, 1), None
#     Edge 95, Type (0, 1), None
#     Edge 96, Type (0, 1), None
#     Edge 97, Type (0, 1), None
#     Edge 98, Type (0, 1), None
#     Edge 99, Type (0, 1), None
#     Edge 100, Type (0, 1), None
#     Edge 101, Type (0, 1), None
#     Edge 102, Type (0, 1), None
#     Edge 103, Type (0, 1), None
#     Edge 104, Type (0, 1), None
#     Edge 105, Type (0, 1), None
#     Edge 106, Type (0, 1), None
#     Edge 107, Type (0, 1), None
#     Edge 108, Type (0, 1), None
#     Edge 109, Type (0, 1), None
#     Edge 110, Type (0, 1), None
#     Edge 111, Type (0, 1), None
#     Edge 112, Type (0, 1), None
#     Edge 113, Type (0, 1), None
#     Edge 114, Type (0, 1), None
#     Edge 115, Type (0, 1), None
#     Edge 116, Type (0, 1), None
#     Edge 117, Type (0, 1), None
#     Edge 118, Type (0, 1), None
#     Edge 119, Type (0, 1), None
#     Edge 120, Type (0, 1), None
#     Edge 121, Type (0, 1), None
#     Edge 122, Type (0, 1), None
#     Edge 123, Type (0, 1), None
# Relax obj value: 0.207
# Max RMSD: 0.319
# Mean RMSD: 0.187
data_MOF--net-tph--node1-MIDCAF_clean_sbu_0--node2-TAGTUT_clean_sbu_1--edge1-none
_symmetry_space_group_name_H-M    P1
_symmetry_Int_Tables_number       1
_symmetry_cell_setting            triclinic
loop_
_symmetry_equiv_pos_as_xyz
'x, y, z'
_cell_length_a     23.237609
_cell_length_b     23.469105
_cell_length_c     23.630897
_cell_angle_alpha  91.024907
_cell_angle_beta   90.926368
_cell_angle_gamma 89.222461
loop_
_atom_site_label
_atom_site_type_symbol
_atom_site_fract_x
_atom_site_fract_y
_atom_site_fract_z
_atom_type_partial_charge
Zn0 Zn 0.24596 0.2237 0.23213 0.0
Zn1 Zn 0.09058 0.14532 0.12628 0.0
Zn2 Zn 0.18315 0.17033 0.16578 0.0
C3 C 0.08228 0.09069 0.22344 0.0
C4 C 0.08467 0.24143 0.08509 0.0
O5 O 0.27144 0.15544 0.12734 0.0
O6 O 0.30397 0.23313 0.16985 0.0
C7 C 0.2171 0.13337 0.28981 0.0
O8 O 0.12936 0.11863 0.23001 0.0
O9 O 0.05664 0.09391 0.17671 0.0
O10 O 0.04503 0.21515 0.10832 0.0
O11 O 0.13685 0.23104 0.10217 0.0
O12 O 0.26307 0.16121 0.28816 0.0
O13 O 0.1789 0.1401 0.25042 0.0
O14 O 0.16157 0.25431 0.1584 0.0
O15 O 0.17845 0.28128 0.24546 0.0
C16 C 0.15228 0.28939 0.19888 0.0
O17 O 0.2105 0.11417 0.1085 0.0
O18 O 0.12647 0.1006 0.06432 0.0
C19 C 0.31055 0.19402 0.13268 0.0
C20 C 0.17913 0.08857 0.07165 0.0
Zn21 Zn 0.29723 0.69238 0.08032 0.0
Zn22 Zn 0.48465 0.50512 -0.00957 0.0
Zn23 Zn 0.42207 0.57349 0.04063 0.0
C24 C 0.4627 0.43401 0.06646 0.0
C25 C 0.55656 0.59146 0.0163 0.0
O26 O 0.38679 0.61303 0.95627 0.0
O27 O 0.33519 0.65348 0.01742 0.0
C28 C 0.3031 0.59528 0.13493 0.0
O29 O 0.45898 0.48663 0.08489 0.0
O30 O 0.45467 0.42756 0.01395 0.0
O31 O 0.55752 0.53871 0.02659 0.0
O32 O 0.50671 0.6164 0.0178 0.0
O33 O 0.26731 0.63573 0.12814 0.0
O34 O 0.3462 0.58715 0.10099 0.0
O35 O 0.40045 0.64637 0.1057 0.0
O36 O 0.34819 0.72346 0.13109 0.0
C37 C 0.38737 0.68759 0.14142 0.0
O38 O 0.38446 0.53737 0.95524 0.0
O39 O 0.46582 0.52217 0.91074 0.0
C40 C 0.34658 0.64935 0.96635 0.0
C41 C 0.41153 0.51967 0.91033 0.0
Zn42 Zn 0.74126 0.23017 0.22767 0.0
Zn43 Zn 0.87115 0.34904 0.11981 0.0
Zn44 Zn 0.81301 0.29493 0.18154 0.0
C45 C 0.89593 0.39336 0.2273 0.0
C46 C 0.91265 0.24374 0.1017 0.0
O47 O 0.72639 0.30417 0.14981 0.0
O48 O 0.69045 0.21901 0.1571 0.0
C49 C 0.77087 0.32622 0.29883 0.0
O50 O 0.86865 0.34799 0.23999 0.0
O51 O 0.89254 0.41033 0.17683 0.0
O52 O 0.93387 0.2929 0.10168 0.0
O53 O 0.86605 0.23666 0.12892 0.0
O54 O 0.72902 0.2945 0.28517 0.0
O55 O 0.81671 0.32535 0.26906 0.0
O56 O 0.84061 0.20729 0.17033 0.0
O57 O 0.79923 0.1703 0.24388 0.0
C58 C 0.8349 0.16614 0.20426 0.0
O59 O 0.75792 0.34969 0.12654 0.0
O60 O 0.81424 0.36566 0.05593 0.0
C61 C 0.68881 0.26713 0.1342 0.0
C62 C 0.76474 0.36972 0.07691 0.0
Zn63 Zn 0.50574 0.97041 -0.02029 0.0
Zn64 Zn 0.6852 0.78098 0.15847 0.0
Zn65 Zn 0.57509 0.92126 0.049 0.0
C66 C 0.58887 0.83282 0.16904 0.0
C67 C 0.70019 0.8847 0.12174 0.0
O68 O 0.61741 0.94683 0.96267 0.0
O69 O 0.5444 0.97507 0.90905 0.0
C70 C 0.4396 0.89146 0.02372 0.0
O71 O 0.59242 0.86931 0.12848 0.0
O72 O 0.62936 0.82763 0.20519 0.0
O73 O 0.73391 0.84177 0.12255 0.0
O74 O 0.65733 0.88579 0.08611 0.0
O75 O 0.43936 0.91893 -0.02155 0.0
O76 O 0.4849 0.89194 0.05543 0.0
O77 O 0.55025 0.00784 0.09055 0.0
O78 O 0.49848 0.04612 0.02152 0.0
C79 C 0.5204 0.05046 0.07067 0.0
O80 O 0.60741 0.82884 0.06345 0.0
O81 O 0.634 0.74406 0.09651 0.0
C82 C 0.5976 0.96642 0.91487 0.0
C83 C 0.63665 0.78118 0.05862 0.0
Zn84 Zn 0.12489 0.85923 0.35229 0.0
Zn85 Zn 0.23424 0.73266 0.21627 0.0
Zn86 Zn 0.18381 0.80227 0.29497 0.0
C87 C 0.31484 0.77677 0.30771 0.0
C88 C 0.16037 0.6642 0.26957 0.0
O89 O 0.13008 0.8576 0.23772 0.0
O90 O 0.09218 0.91609 0.29877 0.0
C91 C 0.23147 0.88974 0.39153 0.0
O92 O 0.27163 0.80521 0.32694 0.0
O93 O 0.30957 0.74839 0.26168 0.0
O94 O 0.19813 0.66373 0.23221 0.0
O95 O 0.14988 0.71049 0.29848 0.0
O96 O 0.18001 0.89198 0.40739 0.0
O97 O 0.24409 0.85594 0.34985 0.0
O98 O 0.13065 0.74103 0.34709 0.0
O99 O 0.07212 0.80385 0.38506 0.0
C100 C 0.089 0.75275 0.38113 0.0
O101 O 0.19242 0.84488 0.20972 0.0
O102 O 0.18485 0.77068 0.156 0.0
C103 C 0.09804 0.90118 0.24771 0.0
C104 C 0.19403 0.82312 0.15971 0.0
Zn105 Zn 0.00263 0.50014 -0.01733 0.0
Zn106 Zn 0.19455 0.64203 0.91767 0.0
Zn107 Zn 0.06673 0.55792 0.92455 0.0
C108 C 0.1527 0.61588 0.00871 0.0
C109 C 0.0971 0.67716 0.85327 0.0
O110 O 0.03684 0.47363 0.88083 0.0
O111 O 0.00764 0.42071 0.94997 0.0
C112 C 0.08752 0.50752 0.0516 0.0
O113 O 0.09895 0.60609 0.00117 0.0
O114 O 0.1856 0.58545 -0.02095 0.0
O115 O 0.13947 0.69818 0.87895 0.0
O116 O 0.07692 0.6288 0.86777 0.0
O117 O 0.03506 0.51857 0.05864 0.0
O118 O 0.10798 0.5137 0.00173 0.0
O119 O 0.9801 0.60397 0.94225 0.0
O120 O 0.92771 0.53401 0.97403 0.0
C121 C 0.93186 0.58549 0.96126 0.0
O122 O 0.13342 0.56679 0.85113 0.0
O123 O 0.21788 0.61165 0.84725 0.0
C124 C 0.01722 0.42566 0.89787 0.0
C125 C 0.17907 0.58243 0.8236 0.0
Zn126 Zn 0.76125 0.74339 0.23567 0.0
Zn127 Zn 0.93354 0.59974 0.36733 0.0
Zn128 Zn 0.82829 0.6795 0.28153 0.0
C129 C 0.91889 0.73008 0.37928 0.0
C130 C 0.82013 0.60072 0.36261 0.0
O131 O 0.82632 0.64912 0.19419 0.0
O132 O 0.74235 0.68889 0.17218 0.0
C133 C 0.86162 0.80012 0.25154 0.0
O134 O 0.88568 0.73738 0.33556 0.0
O135 O 0.93465 0.68078 0.394 0.0
O136 O 0.8601 0.58425 0.33127 0.0
O137 O 0.78468 0.63701 0.34303 0.0
O138 O 0.82322 0.79746 0.21337 0.0
O139 O 0.86429 0.76079 0.28816 0.0
O140 O 0.74038 0.67133 0.32026 0.0
O141 O 0.70715 0.75695 0.30383 0.0
C142 C 0.70146 0.71022 0.32901 0.0
O143 O 0.87294 0.61949 0.2199 0.0
O144 O 0.93409 0.58277 0.28248 0.0
C145 C 0.78399 0.65624 0.15922 0.0
C146 C 0.91586 0.58628 0.23186 0.0
Zn147 Zn 0.98396 0.9743 0.96523 0.0
Zn148 Zn 0.79931 0.79619 0.79023 0.0
Zn149 Zn 0.93068 0.91636 0.90068 0.0
C150 C 0.86471 0.78288 0.87701 0.0
C151 C 0.89605 0.84179 0.76558 0.0
O152 O 0.96963 -0.00514 0.85813 0.0
O153 O 0.95808 0.04903 0.93251 0.0
C154 C 0.90636 0.96338 0.03979 0.0
O155 O 0.89598 0.82851 0.8744 0.0
O156 O 0.8615 0.75001 0.83417 0.0
O157 O 0.84888 0.84072 0.73816 0.0
O158 O 0.90147 0.87198 0.81287 0.0
O159 O 0.96018 0.96798 0.04474 0.0
O160 O 0.88564 0.94722 -0.00993 0.0
O161 O 0.01675 0.87169 0.91011 0.0
O162 O 0.06307 0.94516 0.94546 0.0
C163 C 0.06463 0.89537 0.92426 0.0
O164 O 0.84451 0.89187 0.87276 0.0
O165 O 0.76203 0.85787 0.84167 0.0
C166 C 0.97189 0.0451 0.88128 0.0
C167 C 0.79804 0.8981 0.84315 0.0
Zn168 Zn 0.2993 0.29535 0.29167 0.0
Zn169 Zn 0.48402 0.47411 0.46549 0.0
Zn170 Zn 0.43036 0.41628 0.40101 0.0
C171 C 0.56477 0.39551 0.42472 0.0
C172 C 0.40636 0.46336 0.53995 0.0
O173 O 0.34352 0.39112 0.37378 0.0
O174 O 0.26111 0.35585 0.34386 0.0
C175 C 0.39387 0.34362 0.26578 0.0
O176 O 0.51684 0.37184 0.41056 0.0
O177 O 0.56323 0.44532 0.44586 0.0
O178 O 0.46021 0.46768 0.54494 0.0
O179 O 0.38555 0.44737 0.49024 0.0
O180 O 0.34624 0.34216 0.23917 0.0
O181 O 0.39949 0.3733 0.31334 0.0
O182 O 0.39692 0.32817 0.37456 0.0
O183 O 0.3631 0.2496 0.33411 0.0
C184 C 0.36644 0.28204 0.37724 0.0
O185 O 0.46978 0.49453 0.35846 0.0
O186 O 0.45784 0.54874 0.43274 0.0
C187 C 0.29611 0.39694 0.34537 0.0
C188 C 0.47198 0.54477 0.3816 0.0
Zn189 Zn 0.37124 0.84898 0.61981 0.0
Zn190 Zn 0.24108 0.73035 0.72767 0.0
Zn191 Zn 0.31302 0.79503 0.68149 0.0
C192 C 0.33474 0.66622 0.70438 0.0
C193 C 0.27074 0.82696 0.79828 0.0
O194 O 0.25797 0.84974 0.62648 0.0
O195 O 0.3144 0.86568 0.55595 0.0
C196 C 0.4126 0.74365 0.60178 0.0
O197 O 0.34051 0.70736 0.67043 0.0
O198 O 0.29904 0.67042 0.74398 0.0
O199 O 0.22892 0.79518 0.78471 0.0
O200 O 0.31676 0.82569 0.7688 0.0
O201 O 0.43385 0.7928 0.60166 0.0
O202 O 0.366 0.73665 0.629 0.0
O203 O 0.36878 0.84812 0.7399 0.0
O204 O 0.39284 0.9103 0.67665 0.0
C205 C 0.39614 0.89343 0.72715 0.0
O206 O 0.22636 0.80429 0.64977 0.0
O207 O 0.19029 0.71917 0.6571 0.0
C208 C 0.26488 0.86978 0.57687 0.0
C209 C 0.18874 0.76729 0.63419 0.0
Zn210 Zn 0.00535 0.47045 0.47928 0.0
Zn211 Zn 0.18514 0.28093 0.65787 0.0
Zn212 Zn 0.07503 0.42107 0.54867 0.0
C213 C 0.08906 0.33313 0.66882 0.0
C214 C 0.20042 0.38461 0.62119 0.0
O215 O 0.11747 0.44591 0.46242 0.0
O216 O 0.04464 0.47436 0.4087 0.0
C217 C 0.93933 0.39139 0.52399 0.0
O218 O 0.09278 0.36955 0.62825 0.0
O219 O 0.1296 0.32768 0.70488 0.0
O220 O 0.23402 0.34159 0.62194 0.0
O221 O 0.15742 0.38575 0.58572 0.0
O222 O 0.93862 0.41926 0.47893 0.0
O223 O 0.98496 0.39153 0.55523 0.0
O224 O 0.05031 0.5076 0.59001 0.0
O225 O -0.00132 0.54618 0.52101 0.0
C226 C 0.02065 0.55034 0.57014 0.0
O227 O 0.10709 0.32884 0.56307 0.0
O228 O 0.13376 0.24411 0.59594 0.0
C229 C 0.0978 0.46534 0.41454 0.0
C230 C 0.13631 0.28124 0.55804 0.0
Zn231 Zn 0.98561 0.00473 0.48948 0.0
Zn232 Zn 0.79671 0.18591 0.57771 0.0
Zn233 Zn 0.92383 0.07418 0.53965 0.0
C234 C 0.88514 0.18573 0.64192 0.0
C235 C 0.80436 0.09054 0.63323 0.0
O236 O 0.88554 0.03769 0.45484 0.0
O237 O 0.96651 0.02225 0.4099 0.0
C238 C 0.05832 0.09095 0.51638 0.0
O239 O 0.90003 0.1454 0.60592 0.0
O240 O 0.84266 0.21807 0.63299 0.0
O241 O 0.7653 0.12537 0.61837 0.0
O242 O 0.85006 0.08054 0.60307 0.0
O243 O 0.05874 0.03794 0.52548 0.0
O244 O 0.00888 0.1165 0.51872 0.0
O245 O 0.96021 -0.01298 0.58404 0.0
O246 O 0.95495 0.92746 0.51362 0.0
C247 C 0.96322 0.93419 0.56608 0.0
O248 O 0.88949 0.11422 0.45492 0.0
O249 O 0.83619 0.14917 0.51695 0.0
C250 C 0.91222 0.0199 0.40981 0.0
C251 C 0.84763 0.1481 0.46592 0.0
Zn252 Zn 0.74571 0.72334 0.73208 0.0
Zn253 Zn 0.59096 0.645 0.62634 0.0
Zn254 Zn 0.68299 0.67069 0.6659 0.0
C255 C 0.58229 0.59064 0.72347 0.0
C256 C 0.5846 0.74149 0.58549 0.0
O257 O 0.77129 0.65561 0.62734 0.0
O258 O 0.80388 0.73319 0.66997 0.0
C259 C 0.71698 0.63317 0.78981 0.0
O260 O 0.62907 0.61906 0.73014 0.0
O261 O 0.55699 0.5933 0.67654 0.0
O262 O 0.54516 0.71461 0.60835 0.0
O263 O 0.63679 0.73154 0.60271 0.0
O264 O 0.76315 0.66065 0.78791 0.0
O265 O 0.6787 0.64022 0.75053 0.0
O266 O 0.66158 0.75514 0.65872 0.0
O267 O 0.6784 0.78122 0.74601 0.0
C268 C 0.65242 0.78998 0.69946 0.0
O269 O 0.71111 0.61468 0.60855 0.0
O270 O 0.62715 0.60051 0.56444 0.0
C271 C 0.81048 0.69412 0.63277 0.0
C272 C 0.6799 0.58886 0.5717 0.0
Zn273 Zn 0.73357 0.23329 0.71511 0.0
Zn274 Zn 0.62454 0.35951 0.85255 0.0
Zn275 Zn 0.6835 0.30267 0.79535 0.0
C276 C 0.58891 0.25294 0.88146 0.0
C277 C 0.7312 0.39003 0.89172 0.0
O278 O 0.69218 0.3454 0.71037 0.0
O279 O 0.68337 0.27206 0.65578 0.0
C280 C 0.65917 0.16523 0.76885 0.0
O281 O 0.63058 0.2413 0.84744 0.0
O282 O 0.57194 0.30401 0.88539 0.0
O283 O 0.67973 0.39225 0.90754 0.0
O284 O 0.7439 0.3562 0.85011 0.0
O285 O 0.69626 0.16498 0.73082 0.0
O286 O 0.64955 0.21113 0.79862 0.0
O287 O 0.77133 0.30555 0.82692 0.0
O288 O 0.80876 0.24868 0.76138 0.0
C289 C 0.81434 0.277 0.80744 0.0
O290 O 0.62967 0.35785 0.73828 0.0
O291 O 0.59174 0.41644 0.79913 0.0
C292 C 0.69337 0.32429 0.6601 0.0
C293 C 0.59768 0.40146 0.74811 0.0
Zn294 Zn 0.69348 0.14245 0.41826 0.0
Zn295 Zn 0.50264 -1e-05 0.48239 0.0
Zn296 Zn 0.56652 0.05777 0.42425 0.0
C297 C 0.43201 0.08549 0.46119 0.0
C298 C 0.58758 0.00733 0.55121 0.0
O299 O 0.63325 0.06693 0.35116 0.0
O300 O 0.71772 0.11172 0.34805 0.0
C301 C 0.59648 0.17741 0.35308 0.0
O302 O 0.48022 0.10405 0.44221 0.0
O303 O 0.42783 0.03396 0.47374 0.0
O304 O 0.53508 0.01814 0.55831 0.0
O305 O 0.60798 0.01351 0.50131 0.0
O306 O 0.63893 0.19845 0.37866 0.0
O307 O 0.57638 0.12901 0.36759 0.0
O308 O 0.59681 0.10668 0.5011 0.0
O309 O 0.68404 0.08677 0.48042 0.0
C310 C 0.65035 0.11701 0.50941 0.0
O311 O 0.53644 0.97349 0.38068 0.0
O312 O 0.50761 0.92055 0.44998 0.0
C313 C 0.67904 0.08268 0.32396 0.0
C314 C 0.51706 0.92547 0.39786 0.0
Zn315 Zn 0.43338 0.09966 0.86721 0.0
Zn316 Zn 0.2612 0.24338 0.7353 0.0
Zn317 Zn 0.32806 0.17962 0.7813 0.0
C318 C 0.20108 0.21036 0.82849 0.0
C319 C 0.36161 0.3001 0.75146 0.0
O320 O 0.37251 0.11953 0.71965 0.0
O321 O 0.43342 0.08267 0.78228 0.0
C322 C 0.31979 0.10118 0.86255 0.0
O323 O 0.24002 0.17145 0.81988 0.0
O324 O 0.20684 0.25704 0.80325 0.0
O325 O 0.32325 0.29746 0.71323 0.0
O326 O 0.36422 0.26077 0.78807 0.0
O327 O 0.35978 0.08454 0.8313 0.0
O328 O 0.28435 0.13732 0.84274 0.0
O329 O 0.38556 0.23734 0.83553 0.0
O330 O 0.43469 0.18073 0.89389 0.0
C331 C 0.41887 0.23004 0.8792 0.0
O332 O 0.32627 0.14929 0.69393 0.0
O333 O 0.24239 0.18904 0.67161 0.0
C334 C 0.41522 0.08609 0.73165 0.0
C335 C 0.28411 0.15644 0.65878 0.0
C336 C 0.91995 0.21078 0.04974 0.0
C337 C 0.07269 0.26312 0.02811 0.0
C338 C 0.00698 0.37432 0.8597 0.0
Mg339 Mg 0.02202 0.16895 0.9709 0.0
O340 O 0.97076 0.21009 0.92426 0.0
Mg341 Mg 0.95193 0.29154 0.95166 0.0
Mg342 Mg 0.00463 0.22828 0.85086 0.0
O343 O 0.03345 0.24971 0.77865 0.0
Mg344 Mg 0.97553 0.30113 0.75085 0.0
Mg345 Mg 0.0406 0.16953 0.74773 0.0
C346 C 0.01268 0.09035 0.863 0.0
C347 C 0.14133 0.19199 0.83573 0.0
O348 O 0.89904 0.23824 0.00806 0.0
O349 O 0.96417 0.17742 0.0448 0.0
O350 O 0.02447 0.28914 0.02213 0.0
O351 O 0.08865 0.22933 -0.01118 0.0
O352 O 0.0468 0.10589 0.90357 0.0
O353 O 0.9958 0.12821 0.8267 0.0
C354 C 0.86952 0.27333 0.84033 0.0
O355 O 0.91055 0.24237 0.82139 0.0
O356 O 0.87462 0.29807 0.88849 0.0
O357 O 0.07066 0.23812 0.68407 0.0
O358 O -0.00018 0.30207 0.66789 0.0
O359 O 0.96288 0.1701 0.699 0.0
C360 C 0.05103 0.2856 0.66304 0.0
O361 O 0.90982 0.24878 0.71527 0.0
O362 O 0.9917 0.3788 0.80727 0.0
C363 C 0.91922 0.2007 0.6903 0.0
O364 O 0.00989 0.32473 0.88183 0.0
O365 O 0.10579 0.21795 0.86926 0.0
O366 O 0.12364 0.16548 0.79196 0.0
C367 C 0.41989 0.71057 0.54991 0.0
C368 C 0.57268 0.76315 0.52851 0.0
C369 C 0.50709 0.87402 0.35987 0.0
Mg370 Mg 0.52213 0.66883 0.47137 0.0
O371 O 0.47098 0.71 0.42469 0.0
Mg372 Mg 0.45207 0.79149 0.45199 0.0
Mg373 Mg 0.50505 0.728 0.35139 0.0
O374 O 0.53421 0.74915 0.27908 0.0
Mg375 Mg 0.47637 0.80044 0.25135 0.0
Mg376 Mg 0.54121 0.66879 0.24828 0.0
C377 C 0.51295 0.58996 0.36359 0.0
C378 C 0.64176 0.69178 0.33632 0.0
O379 O 0.39909 0.73799 0.50815 0.0
O380 O 0.4641 0.67719 0.54509 0.0
O381 O 0.52446 0.78915 0.5225 0.0
O382 O 0.58866 0.72934 0.48925 0.0
O383 O 0.54688 0.6054 0.40436 0.0
O384 O 0.49625 0.62791 0.32734 0.0
C385 C 0.36987 0.77322 0.34083 0.0
O386 O 0.41092 0.74209 0.3222 0.0
O387 O 0.37484 0.7982 0.38886 0.0
O388 O 0.57086 0.73775 0.18454 0.0
O389 O 0.49978 0.80136 0.16814 0.0
O390 O 0.46379 0.66882 0.19922 0.0
C391 C 0.55104 0.78508 0.16331 0.0
O392 O 0.41111 0.74741 0.21702 0.0
O393 O 0.49194 0.87829 0.30742 0.0
C394 C 0.42033 0.69982 0.19114 0.0
O395 O 0.51016 0.82451 0.38216 0.0
O396 O 0.60619 0.71776 0.36981 0.0
O397 O 0.62414 0.66512 0.29262 0.0
C398 C 0.93214 0.77656 0.42074 0.0
C399 C 0.07726 0.71737 0.43131 0.0
C400 C 0.01165 0.60603 0.60192 0.0
Mg401 Mg 0.02049 0.8139 0.48476 0.0
O402 O 0.96627 0.76113 0.52118 0.0
Mg403 Mg 0.95721 0.66949 0.49436 0.0
Mg404 Mg 7e-05 0.74865 0.60082 0.0
O405 O 0.03472 0.73102 0.67482 0.0
Mg406 Mg 0.98245 0.68311 0.7095 0.0
Mg407 Mg 0.04582 0.80953 0.70933 0.0
C408 C 0.00304 0.88849 0.59219 0.0
C409 C 0.13326 0.78982 0.61638 0.0
O410 O 0.93676 0.76216 0.473 0.0
O411 O 0.96172 0.81971 0.40786 0.0
O412 O 0.03788 0.67948 0.42867 0.0
O413 O 0.08238 0.74542 0.47713 0.0
O414 O 0.04157 0.87192 0.55738 0.0
O415 O 0.98676 0.85106 0.62919 0.0
C416 C 0.86626 0.69497 0.60093 0.0
O417 O 0.90532 0.72807 0.62125 0.0
O418 O 0.8749 0.666 0.55499 0.0
O419 O 0.09206 0.75114 0.78148 0.0
O420 O 0.02987 0.67722 0.78291 0.0
O421 O 0.98319 0.79728 0.77321 0.0
C422 C 0.07216 0.70475 0.80353 0.0
O423 O 0.91715 0.74899 0.72685 0.0
O424 O 0.9971 0.60601 0.6541 0.0
C425 C 0.93318 0.79327 0.75517 0.0
O426 O 0.01172 0.65346 0.57486 0.0
O427 O 0.09834 0.75896 0.58712 0.0
O428 O 0.11552 0.82574 0.65237 0.0
C429 C 0.0494 0.06333 0.26909 0.0
C430 C 0.04971 0.91631 0.20887 0.0
C431 C 0.87216 0.97662 0.09364 0.0
Mg432 Mg 0.99705 0.9671 0.30299 0.0
O433 O 0.95357 0.01925 0.25286 0.0
Mg434 Mg 0.97811 0.03192 0.16406 0.0
Mg435 Mg 0.87475 0.9851 0.236 0.0
O436 O 0.8009 0.95577 0.21504 0.0
Mg437 Mg 0.76259 0.01244 0.17046 0.0
Mg438 Mg 0.76958 0.9398 0.29156 0.0
C439 C 0.88589 0.98078 0.36747 0.0
C440 C 0.87214 0.85615 0.27302 0.0
O441 O 0.99651 0.05289 0.25676 0.0
O442 O 0.07118 0.03117 0.30699 0.0
O443 O 0.05304 0.95836 0.17504 0.0
O444 O 0.00247 0.9097 0.2323 0.0
O445 O 0.9207 0.94239 0.34993 0.0
O446 O 0.84468 -0.00318 0.33387 0.0
C447 C 0.86688 0.11301 0.19691 0.0
O448 O 0.84867 0.07236 0.2255 0.0
O449 O 0.91137 0.10811 0.16548 0.0
O450 O 0.72059 0.89549 0.21829 0.0
O451 O 0.68608 0.96897 0.16753 0.0
O452 O 0.69606 -0.00061 0.28111 0.0
C453 C 0.69495 0.91636 0.174 0.0
O454 O 0.73302 0.07252 0.23837 0.0
O455 O 0.81896 -0.00622 0.09238 0.0
C456 C 0.69769 0.05188 0.27387 0.0
O457 O 0.89975 0.97587 0.1418 0.0
O458 O 0.89686 0.89137 0.24188 0.0
O459 O 0.83277 0.87176 0.30601 0.0
C460 C 0.30205 0.06322 0.90505 0.0
C461 C 0.20538 0.04423 0.03934 0.0
C462 C 0.12139 0.86467 0.92656 0.0
Mg463 Mg 0.31926 -0.00989 0.01222 0.0
O464 O 0.27793 0.94234 0.96441 0.0
Mg465 Mg 0.20544 0.9659 0.92228 0.0
Mg466 Mg 0.25385 0.86734 -0.01362 0.0
O467 O 0.22823 0.7946 9e-05 0.0
Mg468 Mg 0.19841 0.75627 0.93624 0.0
Mg469 Mg 0.30122 0.76533 0.02762 0.0
C470 C 0.38261 0.88109 0.04715 0.0
C471 C 0.23627 0.84202 0.11865 0.0
O472 O 0.25479 0.0386 0.89352 0.0
O473 O 0.33728 0.04871 0.94509 0.0
O474 O 0.17975 0.02352 -0.00438 0.0
O475 O 0.25617 0.03148 0.05484 0.0
O476 O 0.36235 0.92769 0.06763 0.0
O477 O 0.3493 0.84975 0.01602 0.0
C478 C 0.2651 0.86269 0.84947 0.0
O479 O 0.27791 0.84026 0.89664 0.0
O480 O 0.23561 0.90898 0.8472 0.0
O481 O 0.22619 0.68467 0.02358 0.0
O482 O 0.14235 0.71118 -0.01136 0.0
O483 O 0.33857 0.74373 0.94365 0.0
C484 C 0.17194 0.67535 0.01568 0.0
O485 O 0.27228 0.69248 0.90991 0.0
O486 O 0.12922 0.81491 0.90441 0.0
C487 C 0.32454 0.69499 0.92727 0.0
O488 O 0.16144 0.88835 0.95599 0.0
O489 O 0.22451 0.88049 0.08158 0.0
O490 O 0.2709 0.80107 0.10788 0.0
C491 C 0.95209 0.55605 0.18956 0.0
C492 C 0.9495 0.40913 0.25815 0.0
C493 C 0.13185 0.47406 0.36206 0.0
Mg494 Mg 0.00347 0.45641 0.16003 0.0
O495 O 0.04581 0.5094 0.21218 0.0
Mg496 Mg 0.02121 0.52666 0.30093 0.0
Mg497 Mg 0.12752 0.47798 0.22446 0.0
O498 O 0.20746 0.44842 0.23816 0.0
Mg499 Mg 0.23697 0.51129 0.28499 0.0
Mg500 Mg 0.23524 0.43599 0.15559 0.0
C501 C 0.11422 0.46941 0.09331 0.0
C502 C 0.1409 0.34735 0.18248 0.0
O503 O 0.00373 0.54335 0.20628 0.0
O504 O 0.93215 0.52315 0.1506 0.0
O505 O 0.94958 0.45306 0.29131 0.0
O506 O 0.9938 0.39921 0.22909 0.0
O507 O 0.07944 0.43172 0.10965 0.0
O508 O 0.15114 0.48917 0.12966 0.0
C509 C 0.12894 0.61027 0.27431 0.0
O510 O 0.14746 0.56951 0.24286 0.0
O511 O 0.08364 0.6052 0.30383 0.0
O512 O 0.26123 0.41715 0.25389 0.0
O513 O 0.31963 0.47969 0.29866 0.0
O514 O 0.29867 0.5038 0.16206 0.0
C515 C 0.29615 0.43147 0.29559 0.0
O516 O 0.25648 0.56892 0.21771 0.0
O517 O 0.18293 0.49481 0.36284 0.0
C518 C 0.28906 0.55466 0.17643 0.0
O519 O 0.10359 0.47009 0.31513 0.0
O520 O 0.11241 0.3818 0.21418 0.0
O521 O 0.17793 0.36394 0.14814 0.0
C522 C 0.73179 0.42032 0.06204 0.0
C523 C 0.76434 0.44239 0.90464 0.0
C524 C 0.87852 0.62012 0.96818 0.0
Mg525 Mg 0.67789 0.49763 0.96276 0.0
O526 O 0.72002 0.54721 0.01037 0.0
Mg527 Mg 0.80345 0.51967 0.02112 0.0
Mg528 Mg 0.7366 0.62197 0.97372 0.0
O529 O 0.75519 0.69569 0.93692 0.0
Mg530 Mg 0.80279 0.73071 -0.00341 0.0
Mg531 Mg 0.67197 0.72453 0.92295 0.0
C532 C 0.60181 0.60891 0.97495 0.0
C533 C 0.69485 0.6204 0.84471 0.0
O534 O 0.75908 0.46375 0.07891 0.0
O535 O 0.6979 0.42141 0.0182 0.0
O536 O 0.79472 0.44409 0.9502 0.0
O537 O 0.73533 0.48665 0.89362 0.0
O538 O 0.6161 0.56796 0.94093 0.0
O539 O 0.6387 0.64941 -0.01425 0.0
C540 C 0.78326 0.62779 0.10375 0.0
O541 O 0.75214 0.64921 0.06465 0.0
O542 O 0.81166 0.58176 0.09596 0.0
O543 O 0.77158 0.74863 0.89736 0.0
O544 O 0.81676 0.80752 0.95945 0.0
O545 O 0.68884 0.79629 -0.01959 0.0
C546 C 0.81376 0.78301 0.91152 0.0
O547 O 0.7329 0.75246 0.05061 0.0
O548 O 0.87963 0.67226 -0.01423 0.0
C549 C 0.69055 0.78171 0.03079 0.0
O550 O 0.83078 0.5935 0.96438 0.0
O551 O 0.72763 0.5965 0.8809 0.0
O552 O 0.65706 0.65634 0.85968 0.0
C553 C 0.232 0.92038 0.56196 0.0
C554 C 0.26469 0.94206 0.40446 0.0
C555 C 0.37867 0.12003 0.46808 0.0
Mg556 Mg 0.17838 -0.00252 0.46244 0.0
O557 O 0.22048 0.04718 0.51006 0.0
Mg558 Mg 0.30378 0.0196 0.52086 0.0
Mg559 Mg 0.23713 0.12198 0.4733 0.0
O560 O 0.25547 0.19581 0.43626 0.0
Mg561 Mg 0.30277 0.23047 0.49661 0.0
Mg562 Mg 0.1722 0.22458 0.42233 0.0
C563 C 0.10324 0.10878 0.47499 0.0
C564 C 0.19497 0.1201 0.34455 0.0
O565 O 0.25935 0.96381 0.57875 0.0
O566 O 0.19819 0.92143 0.51807 0.0
O567 O 0.29498 0.94381 0.45008 0.0
O568 O 0.23579 -0.01366 0.39331 0.0
O569 O 0.11749 0.06829 0.44048 0.0
O570 O 0.13978 0.14958 0.4856 0.0
C571 C 0.28364 0.12797 0.60331 0.0
O572 O 0.25273 0.14943 0.56409 0.0
O573 O 0.31192 0.08184 0.59567 0.0
O574 O 0.2738 0.24629 0.39844 0.0
O575 O 0.31801 0.30714 0.45958 0.0
O576 O 0.18866 0.29653 0.47974 0.0
C577 C 0.31588 0.28112 0.41233 0.0
O578 O 0.23249 0.25251 0.54999 0.0
O579 O 0.37963 0.17201 0.48613 0.0
C580 C 0.19022 0.28184 0.53012 0.0
O581 O 0.33104 0.09334 0.4639 0.0
O582 O 0.22794 0.0963 0.38063 0.0
O583 O 0.157 0.15575 0.3597 0.0
C584 C 0.54928 0.5635 0.76918 0.0
C585 C 0.54949 0.41651 0.70909 0.0
C586 C 0.37218 0.4767 0.59371 0.0
Mg587 Mg 0.4968 0.46728 0.80306 0.0
O588 O 0.45338 0.51943 0.75297 0.0
Mg589 Mg 0.47797 0.53206 0.66419 0.0
Mg590 Mg 0.37463 0.48514 0.73604 0.0
O591 O 0.30088 0.45572 0.71497 0.0
Mg592 Mg 0.2626 0.51233 0.6703 0.0
Mg593 Mg 0.26946 0.43965 0.79142 0.0
C594 C 0.38556 0.48069 0.8676 0.0
C595 C 0.37212 0.35613 0.77296 0.0
O596 O 0.49638 0.55314 0.75684 0.0
O597 O 0.57099 0.53129 0.80708 0.0
O598 O 0.55292 0.45854 0.67524 0.0
O599 O 0.50219 0.40991 0.73237 0.0
O600 O 0.42056 0.44245 0.85008 0.0
O601 O 0.34444 0.49675 0.83389 0.0
C602 C 0.36671 0.61308 0.69703 0.0
O603 O 0.34849 0.57241 0.72559 0.0
O604 O 0.4112 0.6082 0.66559 0.0
O605 O 0.22101 0.39537 0.71773 0.0
O606 O 0.18621 0.46881 0.6671 0.0
O607 O 0.19583 0.49913 0.78071 0.0
C608 C 0.19532 0.41623 0.67347 0.0
O609 O 0.23283 0.57229 0.73803 0.0
O610 O 0.31899 0.49382 0.59235 0.0
C611 C 0.19745 0.55163 0.77347 0.0
O612 O 0.39972 0.47597 0.6419 0.0
O613 O 0.39678 0.39139 0.74183 0.0
O614 O 0.33277 0.37171 0.80599 0.0
C615 C 0.80259 0.56264 0.40511 0.0
C616 C 0.7063 0.54454 0.53943 0.0
C617 C 0.62157 0.3648 0.42705 0.0
Mg618 Mg 0.82 0.48969 0.51248 0.0
O619 O 0.77856 0.4417 0.46486 0.0
Mg620 Mg 0.70601 0.46547 0.42279 0.0
Mg621 Mg 0.75401 0.36677 0.48719 0.0
O622 O 0.72762 0.29425 0.5015 0.0
Mg623 Mg 0.69797 0.25633 0.43696 0.0
Mg624 Mg 0.80037 0.26478 0.53005 0.0
C625 C 0.88264 0.38047 0.5479 0.0
C626 C 0.73644 0.34282 0.61988 0.0
O627 O 0.75531 0.53802 0.39373 0.0
O628 O 0.83795 0.54808 0.44504 0.0
O629 O 0.68052 0.52341 0.49599 0.0
O630 O 0.75715 0.53192 0.55484 0.0
O631 O 0.86192 0.42686 0.56839 0.0
O632 O 0.84943 0.34859 0.51721 0.0
C633 C 0.76526 0.36181 0.35015 0.0
O634 O 0.77782 0.33923 0.39735 0.0
O635 O 0.73609 0.4083 0.34787 0.0
O636 O 0.72287 0.18652 0.52525 0.0
O637 O 0.63993 0.21193 0.48784 0.0
O638 O 0.83795 0.24314 0.4463 0.0
C639 C 0.66893 0.1767 0.51611 0.0
O640 O 0.77185 0.192 0.41181 0.0
O641 O 0.6295 0.31526 0.40453 0.0
C642 C 0.8242 0.19474 0.42885 0.0
O643 O 0.6616 0.38828 0.45672 0.0
O644 O 0.72495 0.38069 0.58216 0.0
O645 O 0.7711 0.30165 0.61004 0.0
C646 C 0.45152 0.05595 0.68932 0.0
C647 C 0.44961 0.90933 0.7581 0.0
C648 C 0.63149 0.97572 0.86241 0.0
Mg649 Mg 0.50346 0.9565 0.65973 0.0
O650 O 0.54535 0.00985 0.71186 0.0
Mg651 Mg 0.52063 0.02731 0.80071 0.0
Mg652 Mg 0.62711 0.97906 0.7247 0.0
O653 O 0.70666 0.95044 0.73985 0.0
Mg654 Mg 0.7363 0.0137 0.78551 0.0
Mg655 Mg 0.73544 0.93748 0.65776 0.0
C656 C 0.61465 0.96975 0.59321 0.0
C657 C 0.64138 0.84825 0.68361 0.0
O658 O 0.50321 0.04346 0.70603 0.0
O659 O 0.43175 0.02298 0.65032 0.0
O660 O 0.44947 0.95324 0.79131 0.0
O661 O 0.49399 0.89961 0.72911 0.0
O662 O 0.58013 0.932 0.61 0.0
O663 O 0.65156 -0.00997 0.62934 0.0
C664 C 0.62785 0.11133 0.77377 0.0
O665 O 0.64643 0.0706 0.74236 0.0
O666 O 0.58268 0.10616 0.80347 0.0
O667 O 0.76581 0.91616 0.75155 0.0
O668 O 0.81856 0.98169 0.7979 0.0
O669 O 0.8008 0.00288 0.66823 0.0
C670 C 0.80002 0.93156 0.79294 0.0
O671 O 0.75607 0.07094 0.71742 0.0
O672 O 0.68236 -0.00299 0.86328 0.0
C673 C 0.7907 0.0544 0.67861 0.0
O674 O 0.60325 0.97151 0.81545 0.0
O675 O 0.61252 0.88255 0.71514 0.0
O676 O 0.67847 0.86518 0.64951 0.0
C677 C 0.43212 0.2765 0.9207 0.0
C678 C 0.57721 0.21747 0.93156 0.0
C679 C 0.51127 0.10634 0.10225 0.0
Mg680 Mg 0.52036 0.31403 -0.01519 0.0
O681 O 0.46627 0.26112 0.02115 0.0
Mg682 Mg 0.45726 0.16945 -0.00563 0.0
Mg683 Mg 0.49995 0.24873 0.10088 0.0
O684 O 0.5341 0.23132 0.17518 0.0
Mg685 Mg 0.48101 0.18423 0.20961 0.0
Mg686 Mg 0.5453 0.31001 0.20938 0.0
C687 C 0.50278 0.38852 0.09235 0.0
C688 C 0.63322 0.28963 0.11671 0.0
O689 O 0.43676 0.26209 0.97295 0.0
O690 O 0.4616 0.31973 0.90785 0.0
O691 O 0.53793 0.17949 0.9288 0.0
O692 O 0.58219 0.24547 -0.02259 0.0
O693 O 0.54131 0.37209 0.05746 0.0
O694 O 0.48657 0.35103 0.1292 0.0
C695 C 0.36626 0.19492 0.10079 0.0
O696 O 0.40525 0.2281 0.12105 0.0
O697 O 0.37494 0.16588 0.05491 0.0
O698 O 0.59117 0.25156 0.28156 0.0
O699 O 0.52839 0.17817 0.28331 0.0
O700 O 0.48167 0.29986 0.27264 0.0
C701 C 0.57108 0.20531 0.30368 0.0
O702 O 0.41599 0.25125 0.2261 0.0
O703 O 0.49607 0.10669 0.1543 0.0
C704 C 0.4318 0.29583 0.25412 0.0
O705 O 0.51173 0.15362 0.07498 0.0
O706 O 0.59825 0.25894 0.08733 0.0
O707 O 0.6156 0.3253 0.15299 0.0
loop_
_geom_bond_atom_site_label_1
_geom_bond_atom_site_label_2
_geom_bond_distance
_geom_bond_site_symmetry_2
_ccdc_geom_bond_type
Zn0 O6 1.920 . S
Zn0 O12 1.898 . S
Zn0 O15 1.905 . S
Zn1 O9 1.905 . S
Zn1 O10 1.898 . S
Zn1 O18 1.920 . S
Zn2 O5 2.080 . S
Zn2 O8 2.114 . S
Zn2 O11 2.120 . S
Zn2 O13 2.120 . S
Zn2 O14 2.114 . S
Zn2 O17 2.080 . S
C3 O8 1.166 . S
C3 O9 1.182 . S
C4 O10 1.167 . S
C4 O11 1.299 . S
O5 Zn2 2.080 . S
O5 C19 1.305 . S
O6 Zn0 1.920 . S
O6 C19 1.234 . S
C7 O12 1.167 . S
C7 O13 1.299 . S
O8 Zn2 2.114 . S
O8 C3 1.166 . S
O9 Zn1 1.905 . S
O9 C3 1.182 . S
O10 Zn1 1.898 . S
O10 C4 1.167 . S
O11 Zn2 2.120 . S
O11 C4 1.299 . S
O12 Zn0 1.898 . S
O12 C7 1.167 . S
O13 Zn2 2.120 . S
O13 C7 1.299 . S
O14 Zn2 2.114 . S
O14 C16 1.166 . S
O15 Zn0 1.905 . S
O15 C16 1.182 . S
C16 O14 1.166 . S
C16 O15 1.182 . S
O17 Zn2 2.080 . S
O17 C20 1.305 . S
O18 Zn1 1.920 . S
O18 C20 1.234 . S
C19 O5 1.305 . S
C19 O6 1.234 . S
C20 O17 1.305 . S
C20 O18 1.234 . S
Zn21 O27 1.920 . S
Zn21 O33 1.898 . S
Zn21 O36 1.905 . S
Zn22 O30 1.905 1_556 S
Zn22 O31 1.898 1_556 S
Zn22 O39 1.920 . S
Zn23 O26 2.080 . S
Zn23 O29 2.114 . S
Zn23 O32 2.120 . S
Zn23 O34 2.120 . S
Zn23 O35 2.114 . S
Zn23 O38 2.080 1_554 S
C24 O29 1.166 . S
C24 O30 1.182 . S
C25 O31 1.167 . S
C25 O32 1.299 . S
O26 Zn23 2.080 . S
O26 C40 1.305 . S
O27 Zn21 1.920 . S
O27 C40 1.234 . S
C28 O33 1.167 . S
C28 O34 1.299 . S
O29 Zn23 2.114 . S
O29 C24 1.166 . S
O30 Zn22 1.905 1_554 S
O30 C24 1.182 . S
O31 Zn22 1.898 1_554 S
O31 C25 1.167 . S
O32 Zn23 2.120 . S
O32 C25 1.299 . S
O33 Zn21 1.898 . S
O33 C28 1.167 . S
O34 Zn23 2.120 . S
O34 C28 1.299 . S
O35 Zn23 2.114 . S
O35 C37 1.166 . S
O36 Zn21 1.905 . S
O36 C37 1.182 . S
C37 O35 1.166 . S
C37 O36 1.182 . S
O38 Zn23 2.080 1_556 S
O38 C41 1.305 . S
O39 Zn22 1.920 . S
O39 C41 1.234 . S
C40 O26 1.305 . S
C40 O27 1.234 . S
C41 O38 1.305 . S
C41 O39 1.234 . S
Zn42 O48 1.920 . S
Zn42 O54 1.898 . S
Zn42 O57 1.905 . S
Zn43 O51 1.905 . S
Zn43 O52 1.898 . S
Zn43 O60 1.920 . S
Zn44 O47 2.080 . S
Zn44 O50 2.114 . S
Zn44 O53 2.120 . S
Zn44 O55 2.120 . S
Zn44 O56 2.114 . S
Zn44 O59 2.080 . S
C45 O50 1.166 . S
C45 O51 1.182 . S
C46 O52 1.167 . S
C46 O53 1.299 . S
O47 Zn44 2.080 . S
O47 C61 1.305 . S
O48 Zn42 1.920 . S
O48 C61 1.234 . S
C49 O54 1.167 . S
C49 O55 1.299 . S
O50 Zn44 2.114 . S
O50 C45 1.166 . S
O51 Zn43 1.905 . S
O51 C45 1.182 . S
O52 Zn43 1.898 . S
O52 C46 1.167 . S
O53 Zn44 2.120 . S
O53 C46 1.299 . S
O54 Zn42 1.898 . S
O54 C49 1.167 . S
O55 Zn44 2.120 . S
O55 C49 1.299 . S
O56 Zn44 2.114 . S
O56 C58 1.166 . S
O57 Zn42 1.905 . S
O57 C58 1.182 . S
C58 O56 1.166 . S
C58 O57 1.182 . S
O59 Zn44 2.080 . S
O59 C62 1.305 . S
O60 Zn43 1.920 . S
O60 C62 1.234 . S
C61 O47 1.305 . S
C61 O48 1.234 . S
C62 O59 1.305 . S
C62 O60 1.234 . S
Zn63 O69 1.920 1_545 S
Zn63 O75 1.898 1_546 S
Zn63 O78 1.905 1_556 S
Zn64 O72 1.905 . S
Zn64 O73 1.898 . S
Zn64 O81 1.920 . S
Zn65 O68 2.080 1_554 S
Zn65 O71 2.114 . S
Zn65 O74 2.120 . S
Zn65 O76 2.120 . S
Zn65 O77 2.115 1_565 S
Zn65 O80 2.080 . S
C66 O71 1.166 . S
C66 O72 1.182 . S
C67 O73 1.167 . S
C67 O74 1.299 . S
O68 Zn65 2.080 1_556 S
O68 C82 1.305 . S
O69 Zn63 1.920 1_565 S
O69 C82 1.234 . S
C70 O75 1.167 . S
C70 O76 1.299 . S
O71 Zn65 2.114 . S
O71 C66 1.166 . S
O72 Zn64 1.905 . S
O72 C66 1.182 . S
O73 Zn64 1.898 . S
O73 C67 1.167 . S
O74 Zn65 2.120 . S
O74 C67 1.299 . S
O75 Zn63 1.898 1_564 S
O75 C70 1.167 . S
O76 Zn65 2.120 . S
O76 C70 1.299 . S
O77 Zn65 2.115 1_545 S
O77 C79 1.165 . S
O78 Zn63 1.905 1_554 S
O78 C79 1.182 . S
C79 O77 1.165 . S
C79 O78 1.182 . S
O80 Zn65 2.080 . S
O80 C83 1.305 . S
O81 Zn64 1.920 . S
O81 C83 1.234 . S
C82 O68 1.305 . S
C82 O69 1.234 . S
C83 O80 1.305 . S
C83 O81 1.234 . S
Zn84 O90 1.920 . S
Zn84 O96 1.898 . S
Zn84 O99 1.905 . S
Zn85 O93 1.905 . S
Zn85 O94 1.898 . S
Zn85 O102 1.920 . S
Zn86 O89 2.080 . S
Zn86 O92 2.114 . S
Zn86 O95 2.120 . S
Zn86 O97 2.120 . S
Zn86 O98 2.114 . S
Zn86 O101 2.080 . S
C87 O92 1.166 . S
C87 O93 1.182 . S
C88 O94 1.167 . S
C88 O95 1.299 . S
O89 Zn86 2.080 . S
O89 C103 1.305 . S
O90 Zn84 1.920 . S
O90 C103 1.234 . S
C91 O96 1.167 . S
C91 O97 1.299 . S
O92 Zn86 2.114 . S
O92 C87 1.166 . S
O93 Zn85 1.905 . S
O93 C87 1.182 . S
O94 Zn85 1.898 . S
O94 C88 1.167 . S
O95 Zn86 2.120 . S
O95 C88 1.299 . S
O96 Zn84 1.898 . S
O96 C91 1.167 . S
O97 Zn86 2.120 . S
O97 C91 1.299 . S
O98 Zn86 2.114 . S
O98 C100 1.166 . S
O99 Zn84 1.905 . S
O99 C100 1.182 . S
C100 O98 1.166 . S
C100 O99 1.182 . S
O101 Zn86 2.080 . S
O101 C104 1.305 . S
O102 Zn85 1.920 . S
O102 C104 1.234 . S
C103 O89 1.305 . S
C103 O90 1.234 . S
C104 O101 1.305 . S
C104 O102 1.234 . S
Zn105 O111 1.920 1_654 S
Zn105 O117 1.898 1_655 S
Zn105 O120 1.905 . S
Zn106 O114 1.905 . S
Zn106 O115 1.898 . S
Zn106 O123 1.920 . S
Zn107 O110 2.080 . S
Zn107 O113 2.114 . S
Zn107 O116 2.120 . S
Zn107 O118 2.120 1_556 S
Zn107 O119 2.114 1_455 S
Zn107 O122 2.080 . S
C108 O113 1.166 . S
C108 O114 1.182 . S
C109 O115 1.167 . S
C109 O116 1.299 . S
O110 Zn107 2.080 . S
O110 C124 1.305 . S
O111 Zn105 1.920 1_456 S
O111 C124 1.234 . S
C112 O117 1.167 . S
C112 O118 1.299 . S
O113 Zn107 2.114 . S
O113 C108 1.166 . S
O114 Zn106 1.905 . S
O114 C108 1.182 . S
O115 Zn106 1.898 . S
O115 C109 1.167 . S
O116 Zn107 2.120 . S
O116 C109 1.299 . S
O117 Zn105 1.898 1_455 S
O117 C112 1.167 . S
O118 Zn107 2.120 1_554 S
O118 C112 1.299 . S
O119 Zn107 2.114 1_655 S
O119 C121 1.166 . S
O120 Zn105 1.905 . S
O120 C121 1.182 1_554 S
C121 O119 1.166 . S
C121 O120 1.182 1_556 S
O122 Zn107 2.080 . S
O122 C125 1.305 . S
O123 Zn106 1.920 . S
O123 C125 1.234 . S
C124 O110 1.305 . S
C124 O111 1.234 . S
C125 O122 1.305 . S
C125 O123 1.234 . S
Zn126 O132 1.920 . S
Zn126 O138 1.898 . S
Zn126 O141 1.905 . S
Zn127 O135 1.905 . S
Zn127 O136 1.898 . S
Zn127 O144 1.920 . S
Zn128 O131 2.080 . S
Zn128 O134 2.114 . S
Zn128 O137 2.120 . S
Zn128 O139 2.120 . S
Zn128 O140 2.114 . S
Zn128 O143 2.080 . S
C129 O134 1.166 . S
C129 O135 1.182 . S
C130 O136 1.167 . S
C130 O137 1.299 . S
O131 Zn128 2.080 . S
O131 C145 1.305 . S
O132 Zn126 1.920 . S
O132 C145 1.234 . S
C133 O138 1.167 . S
C133 O139 1.299 . S
O134 Zn128 2.114 . S
O134 C129 1.166 . S
O135 Zn127 1.905 . S
O135 C129 1.182 . S
O136 Zn127 1.898 . S
O136 C130 1.167 . S
O137 Zn128 2.120 . S
O137 C130 1.299 . S
O138 Zn126 1.898 . S
O138 C133 1.167 . S
O139 Zn128 2.120 . S
O139 C133 1.299 . S
O140 Zn128 2.114 . S
O140 C142 1.166 . S
O141 Zn126 1.905 . S
O141 C142 1.182 . S
C142 O140 1.166 . S
C142 O141 1.182 . S
O143 Zn128 2.080 . S
O143 C146 1.305 . S
O144 Zn127 1.920 . S
O144 C146 1.234 . S
C145 O131 1.305 . S
C145 O132 1.234 . S
C146 O143 1.305 . S
C146 O144 1.234 . S
Zn147 O153 1.920 1_454 S
Zn147 O159 1.898 1_445 S
Zn147 O162 1.905 1_544 S
Zn148 O156 1.905 . S
Zn148 O157 1.898 . S
Zn148 O165 1.920 . S
Zn149 O152 2.080 1_565 S
Zn149 O155 2.114 . S
Zn149 O158 2.120 . S
Zn149 O160 2.120 1_556 S
Zn149 O161 2.114 1_655 S
Zn149 O164 2.080 . S
C150 O155 1.166 . S
C150 O156 1.182 . S
C151 O157 1.167 . S
C151 O158 1.299 . S
O152 Zn149 2.080 1_545 S
O152 C166 1.305 . S
O153 Zn147 1.920 1_656 S
O153 C166 1.234 . S
C154 O159 1.167 . S
C154 O160 1.299 . S
O155 Zn149 2.114 . S
O155 C150 1.166 . S
O156 Zn148 1.905 . S
O156 C150 1.182 . S
O157 Zn148 1.898 . S
O157 C151 1.167 . S
O158 Zn149 2.120 . S
O158 C151 1.299 . S
O159 Zn147 1.898 1_665 S
O159 C154 1.167 . S
O160 Zn149 2.120 1_554 S
O160 C154 1.299 . S
O161 Zn149 2.114 1_455 S
O161 C163 1.166 . S
O162 Zn147 1.905 1_566 S
O162 C163 1.182 . S
C163 O161 1.166 . S
C163 O162 1.182 . S
O164 Zn149 2.080 . S
O164 C167 1.305 . S
O165 Zn148 1.920 . S
O165 C167 1.234 . S
C166 O152 1.305 . S
C166 O153 1.234 . S
C167 O164 1.305 . S
C167 O165 1.234 . S
Zn168 O174 1.920 . S
Zn168 O180 1.898 . S
Zn168 O183 1.905 . S
Zn169 O177 1.905 . S
Zn169 O178 1.898 . S
Zn169 O186 1.920 . S
Zn170 O173 2.080 . S
Zn170 O176 2.114 . S
Zn170 O179 2.120 . S
Zn170 O181 2.120 . S
Zn170 O182 2.114 . S
Zn170 O185 2.080 . S
C171 O176 1.166 . S
C171 O177 1.182 . S
C172 O178 1.167 . S
C172 O179 1.299 . S
O173 Zn170 2.080 . S
O173 C187 1.305 . S
O174 Zn168 1.920 . S
O174 C187 1.234 . S
C175 O180 1.167 . S
C175 O181 1.299 . S
O176 Zn170 2.114 . S
O176 C171 1.166 . S
O177 Zn169 1.905 . S
O177 C171 1.182 . S
O178 Zn169 1.898 . S
O178 C172 1.167 . S
O179 Zn170 2.120 . S
O179 C172 1.299 . S
O180 Zn168 1.898 . S
O180 C175 1.167 . S
O181 Zn170 2.120 . S
O181 C175 1.299 . S
O182 Zn170 2.114 . S
O182 C184 1.166 . S
O183 Zn168 1.905 . S
O183 C184 1.182 . S
C184 O182 1.166 . S
C184 O183 1.182 . S
O185 Zn170 2.080 . S
O185 C188 1.305 . S
O186 Zn169 1.920 . S
O186 C188 1.234 . S
C187 O173 1.305 . S
C187 O174 1.234 . S
C188 O185 1.305 . S
C188 O186 1.234 . S
Zn189 O195 1.920 . S
Zn189 O201 1.898 . S
Zn189 O204 1.905 . S
Zn190 O198 1.905 . S
Zn190 O199 1.898 . S
Zn190 O207 1.920 . S
Zn191 O194 2.080 . S
Zn191 O197 2.114 . S
Zn191 O200 2.120 . S
Zn191 O202 2.120 . S
Zn191 O203 2.114 . S
Zn191 O206 2.080 . S
C192 O197 1.166 . S
C192 O198 1.182 . S
C193 O199 1.167 . S
C193 O200 1.299 . S
O194 Zn191 2.080 . S
O194 C208 1.305 . S
O195 Zn189 1.920 . S
O195 C208 1.234 . S
C196 O201 1.167 . S
C196 O202 1.299 . S
O197 Zn191 2.114 . S
O197 C192 1.166 . S
O198 Zn190 1.905 . S
O198 C192 1.182 . S
O199 Zn190 1.898 . S
O199 C193 1.167 . S
O200 Zn191 2.120 . S
O200 C193 1.299 . S
O201 Zn189 1.898 . S
O201 C196 1.167 . S
O202 Zn191 2.120 . S
O202 C196 1.299 . S
O203 Zn191 2.114 . S
O203 C205 1.166 . S
O204 Zn189 1.905 . S
O204 C205 1.182 . S
C205 O203 1.166 . S
C205 O204 1.182 . S
O206 Zn191 2.080 . S
O206 C209 1.305 . S
O207 Zn190 1.920 . S
O207 C209 1.234 . S
C208 O194 1.305 . S
C208 O195 1.234 . S
C209 O206 1.305 . S
C209 O207 1.234 . S
Zn210 O216 1.920 1_655 S
Zn210 O222 1.898 . S
Zn210 O225 1.905 1_655 S
Zn211 O219 1.905 . S
Zn211 O220 1.898 . S
Zn211 O228 1.920 . S
Zn212 O215 2.080 . S
Zn212 O218 2.114 . S
Zn212 O221 2.120 . S
Zn212 O223 2.120 1_455 S
Zn212 O224 2.114 . S
Zn212 O227 2.080 . S
C213 O218 1.166 . S
C213 O219 1.182 . S
C214 O220 1.167 . S
C214 O221 1.299 . S
O215 Zn212 2.080 . S
O215 C229 1.305 . S
O216 Zn210 1.920 1_455 S
O216 C229 1.234 . S
C217 O222 1.167 . S
C217 O223 1.299 . S
O218 Zn212 2.114 . S
O218 C213 1.166 . S
O219 Zn211 1.905 . S
O219 C213 1.182 . S
O220 Zn211 1.898 . S
O220 C214 1.167 . S
O221 Zn212 2.120 . S
O221 C214 1.299 . S
O222 Zn210 1.898 . S
O222 C217 1.167 . S
O223 Zn212 2.120 1_655 S
O223 C217 1.299 . S
O224 Zn212 2.114 . S
O224 C226 1.166 . S
O225 Zn210 1.905 1_455 S
O225 C226 1.182 . S
C226 O224 1.166 . S
C226 O225 1.182 . S
O227 Zn212 2.080 . S
O227 C230 1.305 . S
O228 Zn211 1.920 . S
O228 C230 1.234 . S
C229 O215 1.305 . S
C229 O216 1.234 . S
C230 O227 1.305 . S
C230 O228 1.234 . S
Zn231 O237 1.920 1_465 S
Zn231 O243 1.898 1_565 S
Zn231 O246 1.905 1_455 S
Zn232 O240 1.905 . S
Zn232 O241 1.898 . S
Zn232 O249 1.920 . S
Zn233 O236 2.080 . S
Zn233 O239 2.114 . S
Zn233 O242 2.120 . S
Zn233 O244 2.120 1_655 S
Zn233 O245 2.132 . S
Zn233 O248 2.080 . S
C234 O239 1.166 . S
C234 O240 1.182 . S
C235 O241 1.167 . S
C235 O242 1.299 . S
O236 Zn233 2.080 . S
O236 C250 1.305 . S
O237 Zn231 1.920 1_645 S
O237 C250 1.234 . S
C238 O243 1.167 . S
C238 O244 1.299 . S
O239 Zn233 2.114 . S
O239 C234 1.166 . S
O240 Zn232 1.905 . S
O240 C234 1.182 . S
O241 Zn232 1.898 . S
O241 C235 1.167 . S
O242 Zn233 2.120 . S
O242 C235 1.299 . S
O243 Zn231 1.898 1_545 S
O243 C238 1.167 . S
O244 Zn233 2.120 1_455 S
O244 C238 1.299 . S
O245 Zn233 2.132 . S
O245 C247 1.148 1_545 S
O246 Zn231 1.905 1_655 S
O246 C247 1.182 . S
C247 O245 1.148 1_565 S
C247 O246 1.182 . S
O248 Zn233 2.080 . S
O248 C251 1.305 . S
O249 Zn232 1.920 . S
O249 C251 1.234 . S
C250 O236 1.305 . S
C250 O237 1.234 . S
C251 O248 1.305 . S
C251 O249 1.234 . S
Zn252 O258 1.920 . S
Zn252 O264 1.898 . S
Zn252 O267 1.905 . S
Zn253 O261 1.905 . S
Zn253 O262 1.898 . S
Zn253 O270 1.920 . S
Zn254 O257 2.080 . S
Zn254 O260 2.114 . S
Zn254 O263 2.120 . S
Zn254 O265 2.120 . S
Zn254 O266 2.114 . S
Zn254 O269 2.080 . S
C255 O260 1.166 . S
C255 O261 1.182 . S
C256 O262 1.167 . S
C256 O263 1.299 . S
O257 Zn254 2.080 . S
O257 C271 1.305 . S
O258 Zn252 1.920 . S
O258 C271 1.234 . S
C259 O264 1.167 . S
C259 O265 1.299 . S
O260 Zn254 2.114 . S
O260 C255 1.166 . S
O261 Zn253 1.905 . S
O261 C255 1.182 . S
O262 Zn253 1.898 . S
O262 C256 1.167 . S
O263 Zn254 2.120 . S
O263 C256 1.299 . S
O264 Zn252 1.898 . S
O264 C259 1.167 . S
O265 Zn254 2.120 . S
O265 C259 1.299 . S
O266 Zn254 2.114 . S
O266 C268 1.166 . S
O267 Zn252 1.905 . S
O267 C268 1.182 . S
C268 O266 1.166 . S
C268 O267 1.182 . S
O269 Zn254 2.080 . S
O269 C272 1.305 . S
O270 Zn253 1.920 . S
O270 C272 1.234 . S
C271 O257 1.305 . S
C271 O258 1.234 . S
C272 O269 1.305 . S
C272 O270 1.234 . S
Zn273 O279 1.920 . S
Zn273 O285 1.898 . S
Zn273 O288 1.905 . S
Zn274 O282 1.905 . S
Zn274 O283 1.898 . S
Zn274 O291 1.920 . S
Zn275 O278 2.080 . S
Zn275 O281 2.114 . S
Zn275 O284 2.120 . S
Zn275 O286 2.120 . S
Zn275 O287 2.114 . S
Zn275 O290 2.080 . S
C276 O281 1.166 . S
C276 O282 1.182 . S
C277 O283 1.167 . S
C277 O284 1.299 . S
O278 Zn275 2.080 . S
O278 C292 1.305 . S
O279 Zn273 1.920 . S
O279 C292 1.234 . S
C280 O285 1.167 . S
C280 O286 1.299 . S
O281 Zn275 2.114 . S
O281 C276 1.166 . S
O282 Zn274 1.905 . S
O282 C276 1.182 . S
O283 Zn274 1.898 . S
O283 C277 1.167 . S
O284 Zn275 2.120 . S
O284 C277 1.299 . S
O285 Zn273 1.898 . S
O285 C280 1.167 . S
O286 Zn275 2.120 . S
O286 C280 1.299 . S
O287 Zn275 2.114 . S
O287 C289 1.166 . S
O288 Zn273 1.905 . S
O288 C289 1.182 . S
C289 O287 1.166 . S
C289 O288 1.182 . S
O290 Zn275 2.080 . S
O290 C293 1.305 . S
O291 Zn274 1.920 . S
O291 C293 1.234 . S
C292 O278 1.305 . S
C292 O279 1.234 . S
C293 O290 1.305 . S
C293 O291 1.234 . S
Zn294 O300 1.920 . S
Zn294 O306 1.898 . S
Zn294 O309 1.905 . S
Zn295 O303 1.905 1_565 S
Zn295 O304 1.898 1_565 S
Zn295 O312 1.920 . S
Zn296 O299 2.080 . S
Zn296 O302 2.114 . S
Zn296 O305 2.120 . S
Zn296 O307 2.120 . S
Zn296 O308 2.114 . S
Zn296 O311 2.080 1_545 S
C297 O302 1.166 . S
C297 O303 1.182 . S
C298 O304 1.167 . S
C298 O305 1.299 . S
O299 Zn296 2.080 . S
O299 C313 1.305 . S
O300 Zn294 1.920 . S
O300 C313 1.234 . S
C301 O306 1.167 . S
C301 O307 1.299 . S
O302 Zn296 2.114 . S
O302 C297 1.166 . S
O303 Zn295 1.905 1_545 S
O303 C297 1.182 . S
O304 Zn295 1.898 1_545 S
O304 C298 1.167 . S
O305 Zn296 2.120 . S
O305 C298 1.299 . S
O306 Zn294 1.898 . S
O306 C301 1.167 . S
O307 Zn296 2.120 . S
O307 C301 1.299 . S
O308 Zn296 2.114 . S
O308 C310 1.166 . S
O309 Zn294 1.905 . S
O309 C310 1.182 . S
C310 O308 1.166 . S
C310 O309 1.182 . S
O311 Zn296 2.080 1_565 S
O311 C314 1.305 . S
O312 Zn295 1.920 . S
O312 C314 1.234 . S
C313 O299 1.305 . S
C313 O300 1.234 . S
C314 O311 1.305 . S
C314 O312 1.234 . S
Zn315 O321 1.920 . S
Zn315 O327 1.898 . S
Zn315 O330 1.905 . S
Zn316 O324 1.905 . S
Zn316 O325 1.898 . S
Zn316 O333 1.920 . S
Zn317 O320 2.080 . S
Zn317 O323 2.114 . S
Zn317 O326 2.120 . S
Zn317 O328 2.120 . S
Zn317 O329 2.114 . S
Zn317 O332 2.080 . S
C318 O323 1.166 . S
C318 O324 1.182 . S
C319 O325 1.167 . S
C319 O326 1.299 . S
O320 Zn317 2.080 . S
O320 C334 1.305 . S
O321 Zn315 1.920 . S
O321 C334 1.234 . S
C322 O327 1.167 . S
C322 O328 1.299 . S
O323 Zn317 2.114 . S
O323 C318 1.166 . S
O324 Zn316 1.905 . S
O324 C318 1.182 . S
O325 Zn316 1.898 . S
O325 C319 1.167 . S
O326 Zn317 2.120 . S
O326 C319 1.299 . S
O327 Zn315 1.898 . S
O327 C322 1.167 . S
O328 Zn317 2.120 . S
O328 C322 1.299 . S
O329 Zn317 2.114 . S
O329 C331 1.166 . S
O330 Zn315 1.905 . S
O330 C331 1.182 . S
C331 O329 1.166 . S
C331 O330 1.182 . S
O332 Zn317 2.080 . S
O332 C335 1.305 . S
O333 Zn316 1.920 . S
O333 C335 1.234 . S
C334 O320 1.305 . S
C334 O321 1.234 . S
C335 O332 1.305 . S
C335 O333 1.234 . S
C336 O348 1.241 . S
C336 O349 1.280 . S
C337 O350 1.277 . S
C337 O351 1.245 . S
C338 O362 1.247 1_455 S
C338 O364 1.289 . S
Mg339 O340 1.926 1_454 S
Mg339 O349 1.984 1_455 S
Mg339 O351 1.988 . S
Mg339 O352 2.061 1_554 S
O340 Mg339 1.926 1_656 S
O340 Mg341 1.986 . S
O340 Mg342 1.917 1_655 S
Mg341 O340 1.986 . S
Mg341 O348 2.042 1_556 S
Mg341 O350 2.041 1_656 S
Mg341 O356 2.038 . S
Mg341 O364 2.238 1_655 S
Mg342 O340 1.917 1_455 S
Mg342 O343 1.917 . S
Mg342 O353 2.106 1_455 S
Mg342 O355 2.079 1_455 S
Mg342 O364 2.106 . S
Mg342 O365 2.079 . S
O343 Mg342 1.917 . S
O343 Mg344 1.926 1_455 S
O343 Mg345 1.986 . S
Mg344 O343 1.926 1_655 S
Mg344 O358 1.984 1_655 S
Mg344 O361 1.988 . S
Mg344 O362 2.061 . S
Mg345 O343 1.986 . S
Mg345 O353 2.238 1_455 S
Mg345 O357 2.042 . S
Mg345 O359 2.041 1_455 S
Mg345 O366 2.038 . S
C346 O352 1.247 1_655 S
C346 O353 1.289 . S
C347 O365 1.245 . S
C347 O366 1.274 . S
O348 C336 1.241 . S
O348 Mg341 2.042 1_554 S
O349 C336 1.280 . S
O349 Mg339 1.984 1_655 S
O350 C337 1.277 . S
O350 Mg341 2.041 1_454 S
O351 C337 1.245 . S
O351 Mg339 1.988 . S
O352 Mg339 2.061 1_556 S
O352 C346 1.247 1_455 S
O353 Mg342 2.106 1_655 S
O353 Mg345 2.238 1_655 S
O353 C346 1.289 . S
C354 O355 1.245 . S
C354 O356 1.274 . S
O355 Mg342 2.079 1_655 S
O355 C354 1.245 . S
O356 Mg341 2.038 . S
O356 C354 1.274 . S
O357 Mg345 2.042 . S
O357 C360 1.241 . S
O358 Mg344 1.984 1_455 S
O358 C360 1.280 . S
O359 Mg345 2.041 1_655 S
O359 C363 1.277 . S
C360 O357 1.241 . S
C360 O358 1.280 . S
O361 Mg344 1.988 . S
O361 C363 1.245 . S
O362 C338 1.247 1_655 S
O362 Mg344 2.061 . S
C363 O359 1.277 . S
C363 O361 1.245 . S
O364 C338 1.289 . S
O364 Mg341 2.238 1_455 S
O364 Mg342 2.106 . S
O365 Mg342 2.079 . S
O365 C347 1.245 . S
O366 Mg345 2.038 . S
O366 C347 1.274 . S
C367 O379 1.241 . S
C367 O380 1.280 . S
C368 O381 1.277 . S
C368 O382 1.245 . S
C369 O393 1.247 . S
C369 O395 1.289 . S
Mg370 O371 1.926 . S
Mg370 O380 1.984 . S
Mg370 O382 1.988 . S
Mg370 O383 2.061 . S
O371 Mg370 1.926 . S
O371 Mg372 1.986 . S
O371 Mg373 1.917 . S
Mg372 O371 1.986 . S
Mg372 O379 2.042 . S
Mg372 O381 2.041 . S
Mg372 O387 2.038 . S
Mg372 O395 2.238 . S
Mg373 O371 1.917 . S
Mg373 O374 1.917 . S
Mg373 O384 2.106 . S
Mg373 O386 2.079 . S
Mg373 O395 2.106 . S
Mg373 O396 2.079 . S
O374 Mg373 1.917 . S
O374 Mg375 1.926 . S
O374 Mg376 1.986 . S
Mg375 O374 1.926 . S
Mg375 O389 1.984 . S
Mg375 O392 1.988 . S
Mg375 O393 2.061 . S
Mg376 O374 1.986 . S
Mg376 O384 2.238 . S
Mg376 O388 2.042 . S
Mg376 O390 2.041 . S
Mg376 O397 2.038 . S
C377 O383 1.247 . S
C377 O384 1.289 . S
C378 O396 1.245 . S
C378 O397 1.274 . S
O379 C367 1.241 . S
O379 Mg372 2.042 . S
O380 C367 1.280 . S
O380 Mg370 1.984 . S
O381 C368 1.277 . S
O381 Mg372 2.041 . S
O382 C368 1.245 . S
O382 Mg370 1.988 . S
O383 Mg370 2.061 . S
O383 C377 1.247 . S
O384 Mg373 2.106 . S
O384 Mg376 2.238 . S
O384 C377 1.289 . S
C385 O386 1.245 . S
C385 O387 1.274 . S
O386 Mg373 2.079 . S
O386 C385 1.245 . S
O387 Mg372 2.038 . S
O387 C385 1.274 . S
O388 Mg376 2.042 . S
O388 C391 1.241 . S
O389 Mg375 1.984 . S
O389 C391 1.280 . S
O390 Mg376 2.041 . S
O390 C394 1.277 . S
C391 O388 1.241 . S
C391 O389 1.280 . S
O392 Mg375 1.988 . S
O392 C394 1.245 . S
O393 C369 1.247 . S
O393 Mg375 2.061 . S
C394 O390 1.277 . S
C394 O392 1.245 . S
O395 C369 1.289 . S
O395 Mg372 2.238 . S
O395 Mg373 2.106 . S
O396 Mg373 2.079 . S
O396 C378 1.245 . S
O397 Mg376 2.038 . S
O397 C378 1.274 . S
C398 O410 1.241 . S
C398 O411 1.280 . S
C399 O412 1.277 . S
C399 O413 1.245 . S
C400 O424 1.247 . S
C400 O426 1.289 . S
Mg401 O402 1.926 1_455 S
Mg401 O411 1.984 1_455 S
Mg401 O413 1.988 . S
Mg401 O414 2.061 . S
O402 Mg401 1.926 1_655 S
O402 Mg403 1.986 . S
O402 Mg404 1.917 1_655 S
Mg403 O402 1.986 . S
Mg403 O410 2.042 . S
Mg403 O412 2.041 1_655 S
Mg403 O418 2.038 . S
Mg403 O426 2.238 1_655 S
Mg404 O402 1.917 1_455 S
Mg404 O405 1.917 . S
Mg404 O415 2.106 1_455 S
Mg404 O417 2.079 1_455 S
Mg404 O426 2.106 . S
Mg404 O427 2.079 . S
O405 Mg404 1.917 . S
O405 Mg406 1.926 1_455 S
O405 Mg407 1.986 . S
Mg406 O405 1.926 1_655 S
Mg406 O420 1.984 1_655 S
Mg406 O423 1.988 . S
Mg406 O424 2.061 1_655 S
Mg407 O405 1.986 . S
Mg407 O415 2.231 1_455 S
Mg407 O419 2.042 . S
Mg407 O421 2.041 1_455 S
Mg407 O428 2.038 . S
C408 O414 1.247 1_655 S
C408 O415 1.291 . S
C409 O427 1.245 . S
C409 O428 1.274 . S
O410 C398 1.241 . S
O410 Mg403 2.042 . S
O411 C398 1.280 . S
O411 Mg401 1.984 1_655 S
O412 C399 1.277 . S
O412 Mg403 2.041 1_455 S
O413 C399 1.245 . S
O413 Mg401 1.988 . S
O414 Mg401 2.061 . S
O414 C408 1.247 1_455 S
O415 Mg404 2.106 1_655 S
O415 Mg407 2.231 1_655 S
O415 C408 1.291 . S
C416 O417 1.245 . S
C416 O418 1.274 . S
O417 Mg404 2.079 1_655 S
O417 C416 1.245 . S
O418 Mg403 2.038 . S
O418 C416 1.274 . S
O419 Mg407 2.042 . S
O419 C422 1.241 . S
O420 Mg406 1.984 1_455 S
O420 C422 1.280 . S
O421 Mg407 2.041 1_655 S
O421 C425 1.277 . S
C422 O419 1.241 . S
C422 O420 1.280 . S
O423 Mg406 1.988 . S
O423 C425 1.245 . S
O424 C400 1.247 . S
O424 Mg406 2.061 1_455 S
C425 O421 1.277 . S
C425 O423 1.245 . S
O426 C400 1.289 . S
O426 Mg403 2.238 1_455 S
O426 Mg404 2.106 . S
O427 Mg404 2.079 . S
O427 C409 1.245 . S
O428 Mg407 2.038 . S
O428 C409 1.274 . S
C429 O441 1.241 . S
C429 O442 1.280 . S
C430 O443 1.277 . S
C430 O444 1.245 . S
C431 O455 1.247 1_565 S
C431 O457 1.289 . S
Mg432 O433 1.926 1_465 S
Mg432 O442 1.984 1_565 S
Mg432 O444 1.988 . S
Mg432 O445 2.061 1_465 S
O433 Mg432 1.926 1_645 S
O433 Mg434 1.986 . S
O433 Mg435 1.917 . S
Mg434 O433 1.986 . S
Mg434 O441 2.042 1_655 S
Mg434 O443 2.041 1_645 S
Mg434 O449 2.038 . S
Mg434 O457 2.238 1_545 S
Mg435 O433 1.917 . S
Mg435 O436 1.917 1_545 S
Mg435 O446 2.106 . S
Mg435 O448 2.079 . S
Mg435 O457 2.106 1_545 S
Mg435 O458 2.079 1_545 S
O436 Mg435 1.917 1_565 S
O436 Mg437 1.926 1_565 S
O436 Mg438 1.986 . S
Mg437 O436 1.926 1_545 S
Mg437 O451 1.984 1_545 S
Mg437 O454 1.988 . S
Mg437 O455 2.061 . S
Mg438 O436 1.986 . S
Mg438 O446 2.238 1_565 S
Mg438 O450 2.042 . S
Mg438 O452 2.041 1_565 S
Mg438 O459 2.038 . S
C439 O445 1.247 . S
C439 O446 1.289 . S
C440 O458 1.245 . S
C440 O459 1.274 . S
O441 C429 1.241 . S
O441 Mg434 2.042 1_455 S
O442 C429 1.280 . S
O442 Mg432 1.984 1_545 S
O443 C430 1.277 . S
O443 Mg434 2.041 1_465 S
O444 C430 1.245 . S
O444 Mg432 1.988 . S
O445 Mg432 2.061 1_645 S
O445 C439 1.247 . S
O446 Mg435 2.106 . S
O446 Mg438 2.238 1_545 S
O446 C439 1.289 . S
C447 O448 1.245 . S
C447 O449 1.274 . S
O448 Mg435 2.079 . S
O448 C447 1.245 . S
O449 Mg434 2.038 . S
O449 C447 1.274 . S
O450 Mg438 2.042 . S
O450 C453 1.241 . S
O451 Mg437 1.984 1_565 S
O451 C453 1.280 . S
O452 Mg438 2.041 1_545 S
O452 C456 1.277 . S
C453 O450 1.241 . S
C453 O451 1.280 . S
O454 Mg437 1.988 . S
O454 C456 1.245 . S
O455 C431 1.247 1_545 S
O455 Mg437 2.061 . S
C456 O452 1.277 . S
C456 O454 1.245 . S
O457 C431 1.289 . S
O457 Mg434 2.238 1_565 S
O457 Mg435 2.106 1_565 S
O458 Mg435 2.079 1_565 S
O458 C440 1.245 . S
O459 Mg438 2.038 . S
O459 C440 1.274 . S
C460 O472 1.241 . S
C460 O473 1.280 . S
C461 O474 1.277 . S
C461 O475 1.245 . S
C462 O486 1.247 . S
C462 O488 1.289 . S
Mg463 O464 1.926 1_544 S
Mg463 O473 1.984 1_554 S
Mg463 O475 1.988 . S
Mg463 O476 2.061 1_545 S
O464 Mg463 1.926 1_566 S
O464 Mg465 1.986 . S
O464 Mg466 1.917 1_556 S
Mg465 O464 1.986 . S
Mg465 O472 2.042 1_565 S
Mg465 O474 2.041 1_566 S
Mg465 O480 2.038 . S
Mg465 O488 2.238 . S
Mg466 O464 1.917 1_554 S
Mg466 O467 1.917 . S
Mg466 O477 2.106 . S
Mg466 O479 2.079 1_554 S
Mg466 O488 2.106 1_554 S
Mg466 O489 2.079 . S
O467 Mg466 1.917 . S
O467 Mg468 1.926 1_554 S
O467 Mg469 1.986 . S
Mg468 O467 1.926 1_556 S
Mg468 O482 1.984 1_556 S
Mg468 O485 1.988 . S
Mg468 O486 2.061 . S
Mg469 O467 1.986 . S
Mg469 O477 2.238 . S
Mg469 O481 2.042 . S
Mg469 O483 2.041 . S
Mg469 O490 2.038 . S
C470 O476 1.247 . S
C470 O477 1.289 . S
C471 O489 1.245 . S
C471 O490 1.274 . S
O472 C460 1.241 . S
O472 Mg465 2.042 1_545 S
O473 C460 1.280 . S
O473 Mg463 1.984 1_556 S
O474 C461 1.277 . S
O474 Mg465 2.041 1_544 S
O475 C461 1.245 . S
O475 Mg463 1.988 . S
O476 Mg463 2.061 1_565 S
O476 C470 1.247 . S
O477 Mg466 2.106 . S
O477 Mg469 2.238 . S
O477 C470 1.289 . S
C478 O479 1.245 . S
C478 O480 1.274 . S
O479 Mg466 2.079 1_556 S
O479 C478 1.245 . S
O480 Mg465 2.038 . S
O480 C478 1.274 . S
O481 Mg469 2.042 . S
O481 C484 1.241 . S
O482 Mg468 1.984 1_554 S
O482 C484 1.280 . S
O483 Mg469 2.041 . S
O483 C487 1.277 1_554 S
C484 O481 1.241 . S
C484 O482 1.280 . S
O485 Mg468 1.988 . S
O485 C487 1.245 . S
O486 C462 1.247 . S
O486 Mg468 2.061 . S
C487 O483 1.277 1_556 S
C487 O485 1.245 . S
O488 C462 1.289 . S
O488 Mg465 2.238 . S
O488 Mg466 2.106 1_556 S
O489 Mg466 2.079 . S
O489 C471 1.245 . S
O490 Mg469 2.038 . S
O490 C471 1.274 . S
C491 O503 1.241 . S
C491 O504 1.280 . S
C492 O505 1.277 . S
C492 O506 1.245 . S
C493 O517 1.247 . S
C493 O519 1.289 . S
Mg494 O495 1.926 1_655 S
Mg494 O504 1.984 . S
Mg494 O506 1.988 . S
Mg494 O507 2.061 1_655 S
O495 Mg494 1.926 1_455 S
O495 Mg496 1.986 . S
O495 Mg497 1.917 . S
Mg496 O495 1.986 . S
Mg496 O503 2.042 1_455 S
Mg496 O505 2.041 1_455 S
Mg496 O511 2.038 . S
Mg496 O519 2.238 . S
Mg497 O495 1.917 . S
Mg497 O498 1.917 . S
Mg497 O508 2.106 . S
Mg497 O510 2.079 . S
Mg497 O519 2.106 . S
Mg497 O520 2.079 . S
O498 Mg497 1.917 . S
O498 Mg499 1.926 . S
O498 Mg500 1.986 . S
Mg499 O498 1.926 . S
Mg499 O513 1.984 . S
Mg499 O516 1.988 . S
Mg499 O517 2.061 . S
Mg500 O498 1.986 . S
Mg500 O508 2.238 . S
Mg500 O512 2.042 . S
Mg500 O514 2.041 . S
Mg500 O521 2.038 . S
C501 O507 1.247 . S
C501 O508 1.289 . S
C502 O520 1.245 . S
C502 O521 1.274 . S
O503 C491 1.241 . S
O503 Mg496 2.042 1_655 S
O504 C491 1.280 . S
O504 Mg494 1.984 . S
O505 C492 1.277 . S
O505 Mg496 2.041 1_655 S
O506 C492 1.245 . S
O506 Mg494 1.988 . S
O507 Mg494 2.061 1_455 S
O507 C501 1.247 . S
O508 Mg497 2.106 . S
O508 Mg500 2.238 . S
O508 C501 1.289 . S
C509 O510 1.245 . S
C509 O511 1.274 . S
O510 Mg497 2.079 . S
O510 C509 1.245 . S
O511 Mg496 2.038 . S
O511 C509 1.274 . S
O512 Mg500 2.042 . S
O512 C515 1.241 . S
O513 Mg499 1.984 . S
O513 C515 1.280 . S
O514 Mg500 2.041 . S
O514 C518 1.277 . S
C515 O512 1.241 . S
C515 O513 1.280 . S
O516 Mg499 1.988 . S
O516 C518 1.245 . S
O517 C493 1.247 . S
O517 Mg499 2.061 . S
C518 O514 1.277 . S
C518 O516 1.245 . S
O519 C493 1.289 . S
O519 Mg496 2.238 . S
O519 Mg497 2.106 . S
O520 Mg497 2.079 . S
O520 C502 1.245 . S
O521 Mg500 2.038 . S
O521 C502 1.274 . S
C522 O534 1.241 . S
C522 O535 1.280 . S
C523 O536 1.277 . S
C523 O537 1.245 . S
C524 O548 1.247 1_556 S
C524 O550 1.289 . S
Mg525 O526 1.926 1_556 S
Mg525 O535 1.984 1_556 S
Mg525 O537 1.988 . S
Mg525 O538 2.061 . S
O526 Mg525 1.926 1_554 S
O526 Mg527 1.986 . S
O526 Mg528 1.917 . S
Mg527 O526 1.986 . S
Mg527 O534 2.042 . S
Mg527 O536 2.041 1_554 S
Mg527 O542 2.038 . S
Mg527 O550 2.238 1_554 S
Mg528 O526 1.917 . S
Mg528 O529 1.917 1_554 S
Mg528 O539 2.106 . S
Mg528 O541 2.079 . S
Mg528 O550 2.106 1_554 S
Mg528 O551 2.079 1_554 S
O529 Mg528 1.917 1_556 S
O529 Mg530 1.926 1_556 S
O529 Mg531 1.986 . S
Mg530 O529 1.926 1_554 S
Mg530 O544 1.984 1_554 S
Mg530 O547 1.988 . S
Mg530 O548 2.061 . S
Mg531 O529 1.986 . S
Mg531 O539 2.238 1_556 S
Mg531 O543 2.042 . S
Mg531 O545 2.041 1_556 S
Mg531 O552 2.038 . S
C532 O538 1.247 1_554 S
C532 O539 1.289 . S
C533 O551 1.245 . S
C533 O552 1.274 . S
O534 C522 1.241 . S
O534 Mg527 2.042 . S
O535 C522 1.280 . S
O535 Mg525 1.984 1_554 S
O536 C523 1.277 . S
O536 Mg527 2.041 1_556 S
O537 C523 1.245 . S
O537 Mg525 1.988 . S
O538 Mg525 2.061 . S
O538 C532 1.247 1_556 S
O539 Mg528 2.106 . S
O539 Mg531 2.238 1_554 S
O539 C532 1.289 . S
C540 O541 1.245 . S
C540 O542 1.274 . S
O541 Mg528 2.079 . S
O541 C540 1.245 . S
O542 Mg527 2.038 . S
O542 C540 1.274 . S
O543 Mg531 2.042 . S
O543 C546 1.241 . S
O544 Mg530 1.984 1_556 S
O544 C546 1.280 . S
O545 Mg531 2.041 1_554 S
O545 C549 1.277 . S
C546 O543 1.241 . S
C546 O544 1.280 . S
O547 Mg530 1.988 . S
O547 C549 1.245 . S
O548 C524 1.247 1_554 S
O548 Mg530 2.061 . S
C549 O545 1.277 . S
C549 O547 1.245 . S
O550 C524 1.289 . S
O550 Mg527 2.238 1_556 S
O550 Mg528 2.106 1_556 S
O551 Mg528 2.079 1_556 S
O551 C533 1.245 . S
O552 Mg531 2.038 . S
O552 C533 1.274 . S
C553 O565 1.241 . S
C553 O566 1.280 . S
C554 O567 1.277 . S
C554 O568 1.245 . S
C555 O579 1.247 . S
C555 O581 1.289 . S
Mg556 O557 1.926 1_565 S
Mg556 O566 1.984 . S
Mg556 O568 1.988 . S
Mg556 O569 2.061 1_565 S
O557 Mg556 1.926 1_545 S
O557 Mg558 1.986 . S
O557 Mg559 1.917 . S
Mg558 O557 1.986 . S
Mg558 O565 2.042 1_545 S
Mg558 O567 2.041 1_545 S
Mg558 O573 2.038 . S
Mg558 O581 2.238 . S
Mg559 O557 1.917 . S
Mg559 O560 1.917 . S
Mg559 O570 2.106 . S
Mg559 O572 2.079 . S
Mg559 O581 2.106 . S
Mg559 O582 2.079 . S
O560 Mg559 1.917 . S
O560 Mg561 1.926 . S
O560 Mg562 1.986 . S
Mg561 O560 1.926 . S
Mg561 O575 1.984 . S
Mg561 O578 1.988 . S
Mg561 O579 2.061 . S
Mg562 O560 1.986 . S
Mg562 O570 2.238 . S
Mg562 O574 2.042 . S
Mg562 O576 2.041 . S
Mg562 O583 2.038 . S
C563 O569 1.247 . S
C563 O570 1.289 . S
C564 O582 1.245 . S
C564 O583 1.274 . S
O565 C553 1.241 . S
O565 Mg558 2.042 1_565 S
O566 C553 1.280 . S
O566 Mg556 1.984 . S
O567 C554 1.277 . S
O567 Mg558 2.041 1_565 S
O568 C554 1.245 . S
O568 Mg556 1.988 . S
O569 Mg556 2.061 1_545 S
O569 C563 1.247 . S
O570 Mg559 2.106 . S
O570 Mg562 2.238 . S
O570 C563 1.289 . S
C571 O572 1.245 . S
C571 O573 1.274 . S
O572 Mg559 2.079 . S
O572 C571 1.245 . S
O573 Mg558 2.038 . S
O573 C571 1.274 . S
O574 Mg562 2.042 . S
O574 C577 1.241 . S
O575 Mg561 1.984 . S
O575 C577 1.280 . S
O576 Mg562 2.041 . S
O576 C580 1.277 . S
C577 O574 1.241 . S
C577 O575 1.280 . S
O578 Mg561 1.988 . S
O578 C580 1.245 . S
O579 C555 1.247 . S
O579 Mg561 2.061 . S
C580 O576 1.277 . S
C580 O578 1.245 . S
O581 C555 1.289 . S
O581 Mg558 2.238 . S
O581 Mg559 2.106 . S
O582 Mg559 2.079 . S
O582 C564 1.245 . S
O583 Mg562 2.038 . S
O583 C564 1.274 . S
C584 O596 1.241 . S
C584 O597 1.280 . S
C585 O598 1.277 . S
C585 O599 1.245 . S
C586 O610 1.247 . S
C586 O612 1.289 . S
Mg587 O588 1.926 . S
Mg587 O597 1.984 . S
Mg587 O599 1.988 . S
Mg587 O600 2.061 . S
O588 Mg587 1.926 . S
O588 Mg589 1.986 . S
O588 Mg590 1.917 . S
Mg589 O588 1.986 . S
Mg589 O596 2.042 . S
Mg589 O598 2.041 . S
Mg589 O604 2.038 . S
Mg589 O612 2.238 . S
Mg590 O588 1.917 . S
Mg590 O591 1.917 . S
Mg590 O601 2.106 . S
Mg590 O603 2.079 . S
Mg590 O612 2.106 . S
Mg590 O613 2.079 . S
O591 Mg590 1.917 . S
O591 Mg592 1.926 . S
O591 Mg593 1.986 . S
Mg592 O591 1.926 . S
Mg592 O606 1.984 . S
Mg592 O609 1.988 . S
Mg592 O610 2.061 . S
Mg593 O591 1.986 . S
Mg593 O601 2.238 . S
Mg593 O605 2.042 . S
Mg593 O607 2.041 . S
Mg593 O614 2.038 . S
C594 O600 1.247 . S
C594 O601 1.289 . S
C595 O613 1.245 . S
C595 O614 1.274 . S
O596 C584 1.241 . S
O596 Mg589 2.042 . S
O597 C584 1.280 . S
O597 Mg587 1.984 . S
O598 C585 1.277 . S
O598 Mg589 2.041 . S
O599 C585 1.245 . S
O599 Mg587 1.988 . S
O600 Mg587 2.061 . S
O600 C594 1.247 . S
O601 Mg590 2.106 . S
O601 Mg593 2.238 . S
O601 C594 1.289 . S
C602 O603 1.245 . S
C602 O604 1.274 . S
O603 Mg590 2.079 . S
O603 C602 1.245 . S
O604 Mg589 2.038 . S
O604 C602 1.274 . S
O605 Mg593 2.042 . S
O605 C608 1.241 . S
O606 Mg592 1.984 . S
O606 C608 1.280 . S
O607 Mg593 2.041 . S
O607 C611 1.277 . S
C608 O605 1.241 . S
C608 O606 1.280 . S
O609 Mg592 1.988 . S
O609 C611 1.245 . S
O610 C586 1.247 . S
O610 Mg592 2.061 . S
C611 O607 1.277 . S
C611 O609 1.245 . S
O612 C586 1.289 . S
O612 Mg589 2.238 . S
O612 Mg590 2.106 . S
O613 Mg590 2.079 . S
O613 C595 1.245 . S
O614 Mg593 2.038 . S
O614 C595 1.274 . S
C615 O627 1.241 . S
C615 O628 1.280 . S
C616 O629 1.277 . S
C616 O630 1.245 . S
C617 O641 1.247 . S
C617 O643 1.289 . S
Mg618 O619 1.926 . S
Mg618 O628 1.984 . S
Mg618 O630 1.988 . S
Mg618 O631 2.061 . S
O619 Mg618 1.926 . S
O619 Mg620 1.986 . S
O619 Mg621 1.917 . S
Mg620 O619 1.986 . S
Mg620 O627 2.042 . S
Mg620 O629 2.041 . S
Mg620 O635 2.038 . S
Mg620 O643 2.238 . S
Mg621 O619 1.917 . S
Mg621 O622 1.917 . S
Mg621 O632 2.106 . S
Mg621 O634 2.079 . S
Mg621 O643 2.106 . S
Mg621 O644 2.079 . S
O622 Mg621 1.917 . S
O622 Mg623 1.926 . S
O622 Mg624 1.986 . S
Mg623 O622 1.926 . S
Mg623 O637 1.984 . S
Mg623 O640 1.988 . S
Mg623 O641 2.061 . S
Mg624 O622 1.986 . S
Mg624 O632 2.238 . S
Mg624 O636 2.042 . S
Mg624 O638 2.041 . S
Mg624 O645 2.038 . S
C625 O631 1.247 . S
C625 O632 1.289 . S
C626 O644 1.245 . S
C626 O645 1.274 . S
O627 C615 1.241 . S
O627 Mg620 2.042 . S
O628 C615 1.280 . S
O628 Mg618 1.984 . S
O629 C616 1.277 . S
O629 Mg620 2.041 . S
O630 C616 1.245 . S
O630 Mg618 1.988 . S
O631 Mg618 2.061 . S
O631 C625 1.247 . S
O632 Mg621 2.106 . S
O632 Mg624 2.238 . S
O632 C625 1.289 . S
C633 O634 1.245 . S
C633 O635 1.274 . S
O634 Mg621 2.079 . S
O634 C633 1.245 . S
O635 Mg620 2.038 . S
O635 C633 1.274 . S
O636 Mg624 2.042 . S
O636 C639 1.241 . S
O637 Mg623 1.984 . S
O637 C639 1.280 . S
O638 Mg624 2.041 . S
O638 C642 1.277 . S
C639 O636 1.241 . S
C639 O637 1.280 . S
O640 Mg623 1.988 . S
O640 C642 1.245 . S
O641 C617 1.247 . S
O641 Mg623 2.061 . S
C642 O638 1.277 . S
C642 O640 1.245 . S
O643 C617 1.289 . S
O643 Mg620 2.238 . S
O643 Mg621 2.106 . S
O644 Mg621 2.079 . S
O644 C626 1.245 . S
O645 Mg624 2.038 . S
O645 C626 1.274 . S
C646 O658 1.241 . S
C646 O659 1.280 . S
C647 O660 1.277 . S
C647 O661 1.245 . S
C648 O672 1.250 . S
C648 O674 1.289 . S
Mg649 O650 1.926 1_565 S
Mg649 O659 1.984 1_565 S
Mg649 O661 1.988 . S
Mg649 O662 2.059 1_565 S
O650 Mg649 1.926 1_545 S
O650 Mg651 1.986 . S
O650 Mg652 1.917 . S
Mg651 O650 1.986 . S
Mg651 O658 2.042 . S
Mg651 O660 2.041 1_545 S
Mg651 O666 2.038 . S
Mg651 O674 2.238 1_545 S
Mg652 O650 1.917 . S
Mg652 O653 1.917 1_545 S
Mg652 O663 2.106 . S
Mg652 O665 2.079 . S
Mg652 O674 2.106 1_545 S
Mg652 O675 2.079 1_545 S
O653 Mg652 1.917 1_565 S
O653 Mg654 1.926 1_565 S
O653 Mg655 1.986 . S
Mg654 O653 1.926 1_545 S
Mg654 O668 1.984 1_545 S
Mg654 O671 1.988 . S
Mg654 O672 2.060 1_545 S
Mg655 O653 1.986 . S
Mg655 O663 2.238 1_565 S
Mg655 O667 2.042 . S
Mg655 O669 2.041 1_565 S
Mg655 O676 2.038 . S
C656 O662 1.252 . S
C656 O663 1.289 . S
C657 O675 1.245 . S
C657 O676 1.274 . S
O658 C646 1.241 . S
O658 Mg651 2.042 . S
O659 C646 1.280 . S
O659 Mg649 1.984 1_545 S
O660 C647 1.277 . S
O660 Mg651 2.041 1_565 S
O661 C647 1.245 . S
O661 Mg649 1.988 . S
O662 Mg649 2.059 1_545 S
O662 C656 1.252 . S
O663 Mg652 2.106 . S
O663 Mg655 2.238 1_545 S
O663 C656 1.289 . S
C664 O665 1.245 . S
C664 O666 1.274 . S
O665 Mg652 2.079 . S
O665 C664 1.245 . S
O666 Mg651 2.038 . S
O666 C664 1.274 . S
O667 Mg655 2.042 . S
O667 C670 1.241 . S
O668 Mg654 1.984 1_565 S
O668 C670 1.280 . S
O669 Mg655 2.041 1_545 S
O669 C673 1.277 . S
C670 O667 1.241 . S
C670 O668 1.280 . S
O671 Mg654 1.988 . S
O671 C673 1.245 . S
O672 C648 1.250 . S
O672 Mg654 2.060 1_565 S
C673 O669 1.277 . S
C673 O671 1.245 . S
O674 C648 1.289 . S
O674 Mg651 2.238 1_565 S
O674 Mg652 2.106 1_565 S
O675 Mg652 2.079 1_565 S
O675 C657 1.245 . S
O676 Mg655 2.038 . S
O676 C657 1.274 . S
C677 O689 1.241 . S
C677 O690 1.280 . S
C678 O691 1.277 . S
C678 O692 1.245 . S
C679 O703 1.247 . S
C679 O705 1.289 . S
Mg680 O681 1.926 1_556 S
Mg680 O690 1.984 . S
Mg680 O692 1.988 . S
Mg680 O693 2.061 1_556 S
O681 Mg680 1.926 1_554 S
O681 Mg682 1.986 . S
O681 Mg683 1.917 . S
Mg682 O681 1.986 . S
Mg682 O689 2.042 1_554 S
Mg682 O691 2.041 1_554 S
Mg682 O697 2.038 . S
Mg682 O705 2.238 . S
Mg683 O681 1.917 . S
Mg683 O684 1.917 . S
Mg683 O694 2.106 . S
Mg683 O696 2.079 . S
Mg683 O705 2.106 . S
Mg683 O706 2.079 . S
O684 Mg683 1.917 . S
O684 Mg685 1.926 . S
O684 Mg686 1.986 . S
Mg685 O684 1.926 . S
Mg685 O699 1.984 . S
Mg685 O702 1.988 . S
Mg685 O703 2.061 . S
Mg686 O684 1.986 . S
Mg686 O694 2.238 . S
Mg686 O698 2.042 . S
Mg686 O700 2.041 . S
Mg686 O707 2.038 . S
C687 O693 1.247 . S
C687 O694 1.289 . S
C688 O706 1.245 . S
C688 O707 1.274 . S
O689 C677 1.241 . S
O689 Mg682 2.042 1_556 S
O690 C677 1.280 . S
O690 Mg680 1.984 . S
O691 C678 1.277 . S
O691 Mg682 2.041 1_556 S
O692 C678 1.245 . S
O692 Mg680 1.988 . S
O693 Mg680 2.061 1_554 S
O693 C687 1.247 . S
O694 Mg683 2.106 . S
O694 Mg686 2.238 . S
O694 C687 1.289 . S
C695 O696 1.245 . S
C695 O697 1.274 . S
O696 Mg683 2.079 . S
O696 C695 1.245 . S
O697 Mg682 2.038 . S
O697 C695 1.274 . S
O698 Mg686 2.042 . S
O698 C701 1.241 . S
O699 Mg685 1.984 . S
O699 C701 1.280 . S
O700 Mg686 2.041 . S
O700 C704 1.277 . S
C701 O698 1.241 . S
C701 O699 1.280 . S
O702 Mg685 1.988 . S
O702 C704 1.245 . S
O703 C679 1.247 . S
O703 Mg685 2.061 . S
C704 O700 1.277 . S
C704 O702 1.245 . S
O705 C679 1.289 . S
O705 Mg682 2.238 . S
O705 Mg683 2.106 . S
O706 Mg683 2.079 . S
O706 C688 1.245 . S
O707 Mg686 2.038 . S
O707 C688 1.274 . S
C360 C213 1.681 . S
C368 C256 1.490 . S
C363 C234 1.658 . S
C196 C367 1.640 . S
C422 C109 1.988 . S
C129 C398 1.478 . S
C425 C151 1.484 . S
C100 C399 1.850 . S
C313 C456 2.212 . S
C322 C460 1.439 . S
C515 C187 1.744 . S
C523 C277 1.911 . S
C453 C67 1.868 . S
C461 C20 1.451 . S
C28 C518 1.933 . S
C62 C522 1.896 . S
C40 C487 2.175 1_554 S
C577 C184 2.031 . S
C293 C585 1.805 . S
C639 C310 2.447 . S
C146 C491 1.569 . S
C580 C230 1.748 . S
C584 C255 2.025 . S
C647 C205 1.508 . S
C66 C391 1.681 . S
C4 C337 1.489 . S
C394 C37 1.659 . S
C46 C336 1.640 . S
C301 C701 1.988 . S
C331 C677 1.478 . S
C704 C175 1.484 . S
C276 C678 1.850 . S
C125 C611 2.212 . S
C615 C130 1.439 . S
C670 C167 1.744 . S
C554 C91 1.910 . S
C608 C214 1.868 . S
C272 C616 1.451 . S
C235 C673 1.933 . S
C553 C208 1.897 . S
C251 C642 2.176 . S
C546 C150 2.030 . S
C103 C430 1.804 . S
C108 C484 2.447 1_556 S
C334 C646 1.569 . S
C83 C549 1.748 . S
C3 C429 2.025 . S
C492 C45 1.507 . S
C347 C318 1.984 . S
C377 C188 1.735 . S
C354 C289 2.237 . S
C369 C314 2.095 . S
C409 C209 1.838 . S
C226 C400 2.233 . S
C271 C416 2.327 . S
C247 C408 2.049 . S
C447 C58 2.065 . S
C470 C70 1.836 . S
C16 C502 1.422 . S
C532 C25 1.740 . S
C133 C440 1.528 . S
C462 C163 1.959 . S
C509 C88 1.927 . S
C121 C524 2.066 . S
C471 C104 1.626 . S
C7 C564 1.832 . S
C41 C594 1.332 . S
C49 C633 2.002 . S
C493 C229 1.883 . S
C571 C335 2.097 . S
C172 C586 2.065 . S
C656 C298 1.123 . S
C378 C142 1.984 . S
C166 C346 1.735 . S
C87 C385 2.236 . S
C124 C338 2.095 . S
C688 C61 1.838 . S
C679 C79 2.233 . S
C19 C695 2.327 . S
C24 C687 2.049 . S
C192 C602 2.065 . S
C625 C217 1.835 . S
C657 C268 1.422 . S
C238 C563 1.741 . S
C595 C319 1.528 . S
C171 C617 1.959 . S
C664 C280 1.927 . S
C297 C555 2.066 . S
C292 C626 1.626 . S
C259 C533 1.833 . S
C439 C250 1.332 . S
C193 C478 2.002 . S
C82 C648 1.884 . S
C145 C540 2.096 . S
C431 C154 2.065 . S
C112 C501 1.124 . S
