# Generated by pormake.
# Topology soc, (4,6)-cn, num edge types: 1
# Building blocks:
#     Node 0, Type 0, BuildingBlock: ESEHIV_clean_sbu_0, # of connection points: 4
#     Node 1, Type 0, BuildingBlock: ESEHIV_clean_sbu_0, # of connection points: 4
#     Node 2, Type 0, BuildingBlock: ESEHIV_clean_sbu_0, # of connection points: 4
#     Node 3, Type 0, BuildingBlock: ESEHIV_clean_sbu_0, # of connection points: 4
#     Node 4, Type 0, BuildingBlock: ESEHIV_clean_sbu_0, # of connection points: 4
#     Node 5, Type 0, BuildingBlock: ESEHIV_clean_sbu_0, # of connection points: 4
#     Node 6, Type 0, BuildingBlock: ESEHIV_clean_sbu_0, # of connection points: 4
#     Node 7, Type 0, BuildingBlock: ESEHIV_clean_sbu_0, # of connection points: 4
#     Node 8, Type 0, BuildingBlock: ESEHIV_clean_sbu_0, # of connection points: 4
#     Node 9, Type 0, BuildingBlock: ESEHIV_clean_sbu_0, # of connection points: 4
#     Node 10, Type 0, BuildingBlock: ESEHIV_clean_sbu_0, # of connection points: 4
#     Node 11, Type 0, BuildingBlock: ESEHIV_clean_sbu_0, # of connection points: 4
#     Node 12, Type 1, BuildingBlock: KUMJIN_clean_sbu_0, # of connection points: 6
#     Node 13, Type 1, BuildingBlock: KUMJIN_clean_sbu_0, # of connection points: 6
#     Node 14, Type 1, BuildingBlock: KUMJIN_clean_sbu_0, # of connection points: 6
#     Node 15, Type 1, BuildingBlock: KUMJIN_clean_sbu_0, # of connection points: 6
#     Node 16, Type 1, BuildingBlock: KUMJIN_clean_sbu_0, # of connection points: 6
#     Node 17, Type 1, BuildingBlock: KUMJIN_clean_sbu_0, # of connection points: 6
#     Node 18, Type 1, BuildingBlock: KUMJIN_clean_sbu_0, # of connection points: 6
#     Node 19, Type 1, BuildingBlock: KUMJIN_clean_sbu_0, # of connection points: 6
#     Edge 20, Type (0, 1), BuildingBlock: OJICUG_clean_linker_0, # of connection points: 2
#     Edge 21, Type (0, 1), BuildingBlock: OJICUG_clean_linker_0, # of connection points: 2
#     Edge 22, Type (0, 1), BuildingBlock: OJICUG_clean_linker_0, # of connection points: 2
#     Edge 23, Type (0, 1), BuildingBlock: OJICUG_clean_linker_0, # of connection points: 2
#     Edge 24, Type (0, 1), BuildingBlock: OJICUG_clean_linker_0, # of connection points: 2
#     Edge 25, Type (0, 1), BuildingBlock: OJICUG_clean_linker_0, # of connection points: 2
#     Edge 26, Type (0, 1), BuildingBlock: OJICUG_clean_linker_0, # of connection points: 2
#     Edge 27, Type (0, 1), BuildingBlock: OJICUG_clean_linker_0, # of connection points: 2
#     Edge 28, Type (0, 1), BuildingBlock: OJICUG_clean_linker_0, # of connection points: 2
#     Edge 29, Type (0, 1), BuildingBlock: OJICUG_clean_linker_0, # of connection points: 2
#     Edge 30, Type (0, 1), BuildingBlock: OJICUG_clean_linker_0, # of connection points: 2
#     Edge 31, Type (0, 1), BuildingBlock: OJICUG_clean_linker_0, # of connection points: 2
#     Edge 32, Type (0, 1), BuildingBlock: OJICUG_clean_linker_0, # of connection points: 2
#     Edge 33, Type (0, 1), BuildingBlock: OJICUG_clean_linker_0, # of connection points: 2
#     Edge 34, Type (0, 1), BuildingBlock: OJICUG_clean_linker_0, # of connection points: 2
#     Edge 35, Type (0, 1), BuildingBlock: OJICUG_clean_linker_0, # of connection points: 2
#     Edge 36, Type (0, 1), BuildingBlock: OJICUG_clean_linker_0, # of connection points: 2
#     Edge 37, Type (0, 1), BuildingBlock: OJICUG_clean_linker_0, # of connection points: 2
#     Edge 38, Type (0, 1), BuildingBlock: OJICUG_clean_linker_0, # of connection points: 2
#     Edge 39, Type (0, 1), BuildingBlock: OJICUG_clean_linker_0, # of connection points: 2
#     Edge 40, Type (0, 1), BuildingBlock: OJICUG_clean_linker_0, # of connection points: 2
#     Edge 41, Type (0, 1), BuildingBlock: OJICUG_clean_linker_0, # of connection points: 2
#     Edge 42, Type (0, 1), BuildingBlock: OJICUG_clean_linker_0, # of connection points: 2
#     Edge 43, Type (0, 1), BuildingBlock: OJICUG_clean_linker_0, # of connection points: 2
#     Edge 44, Type (0, 1), BuildingBlock: OJICUG_clean_linker_0, # of connection points: 2
#     Edge 45, Type (0, 1), BuildingBlock: OJICUG_clean_linker_0, # of connection points: 2
#     Edge 46, Type (0, 1), BuildingBlock: OJICUG_clean_linker_0, # of connection points: 2
#     Edge 47, Type (0, 1), BuildingBlock: OJICUG_clean_linker_0, # of connection points: 2
#     Edge 48, Type (0, 1), BuildingBlock: OJICUG_clean_linker_0, # of connection points: 2
#     Edge 49, Type (0, 1), BuildingBlock: OJICUG_clean_linker_0, # of connection points: 2
#     Edge 50, Type (0, 1), BuildingBlock: OJICUG_clean_linker_0, # of connection points: 2
#     Edge 51, Type (0, 1), BuildingBlock: OJICUG_clean_linker_0, # of connection points: 2
#     Edge 52, Type (0, 1), BuildingBlock: OJICUG_clean_linker_0, # of connection points: 2
#     Edge 53, Type (0, 1), BuildingBlock: OJICUG_clean_linker_0, # of connection points: 2
#     Edge 54, Type (0, 1), BuildingBlock: OJICUG_clean_linker_0, # of connection points: 2
#     Edge 55, Type (0, 1), BuildingBlock: OJICUG_clean_linker_0, # of connection points: 2
#     Edge 56, Type (0, 1), BuildingBlock: OJICUG_clean_linker_0, # of connection points: 2
#     Edge 57, Type (0, 1), BuildingBlock: OJICUG_clean_linker_0, # of connection points: 2
#     Edge 58, Type (0, 1), BuildingBlock: OJICUG_clean_linker_0, # of connection points: 2
#     Edge 59, Type (0, 1), BuildingBlock: OJICUG_clean_linker_0, # of connection points: 2
#     Edge 60, Type (0, 1), BuildingBlock: OJICUG_clean_linker_0, # of connection points: 2
#     Edge 61, Type (0, 1), BuildingBlock: OJICUG_clean_linker_0, # of connection points: 2
#     Edge 62, Type (0, 1), BuildingBlock: OJICUG_clean_linker_0, # of connection points: 2
#     Edge 63, Type (0, 1), BuildingBlock: OJICUG_clean_linker_0, # of connection points: 2
#     Edge 64, Type (0, 1), BuildingBlock: OJICUG_clean_linker_0, # of connection points: 2
#     Edge 65, Type (0, 1), BuildingBlock: OJICUG_clean_linker_0, # of connection points: 2
#     Edge 66, Type (0, 1), BuildingBlock: OJICUG_clean_linker_0, # of connection points: 2
#     Edge 67, Type (0, 1), BuildingBlock: OJICUG_clean_linker_0, # of connection points: 2
# Relax obj value: 0.097
# Max RMSD: 0.263
# Mean RMSD: 0.161
data_MOF--net-soc--node1-ESEHIV_clean_sbu_0--node2-KUMJIN_clean_sbu_0--edge1-OJICUG_clean_linker_0
_symmetry_space_group_name_H-M    P1
_symmetry_Int_Tables_number       1
_symmetry_cell_setting            triclinic
loop_
_symmetry_equiv_pos_as_xyz
'x, y, z'
_cell_length_a     40.016757
_cell_length_b     38.292559
_cell_length_c     31.235824
_cell_angle_alpha  81.572205
_cell_angle_beta   80.313231
_cell_angle_gamma 68.560414
loop_
_atom_site_label
_atom_site_type_symbol
_atom_site_fract_x
_atom_site_fract_y
_atom_site_fract_z
_atom_type_partial_charge
Cu0 Cu 0.05857 0.06095 0.39867 0.0
N1 N 0.0724 0.08643 0.43549 0.0
N2 N 0.09653 0.12536 0.455 0.0
C3 C 0.0996 0.10042 0.42662 0.0
C4 C 0.0664 0.12672 0.48274 0.0
C5 C 0.05136 0.10347 0.47019 0.0
O6 O 0.10359 0.02624 0.36767 0.0
C7 C 0.99631 0.10468 0.35051 0.0
O8 O 0.99281 0.07288 0.34532 0.0
H9 H 0.11942 0.09476 0.39793 0.0
H10 H 0.02512 0.10193 0.4832 0.0
N11 N 0.03203 0.03205 0.43127 0.0
N12 N 0.99667 0.9971 0.44644 0.0
C13 C 1.01676 0.0115 0.41503 0.0
C14 C 0.0223 0.02897 0.47476 0.0
C15 C 0.99993 1.00806 0.48407 0.0
C16 C 0.11671 0.99172 0.38332 0.0
O17 O 0.0993 0.97973 0.41829 0.0
H18 H 1.01933 1.00809 0.38073 0.0
H19 H 0.03046 0.04122 0.49832 0.0
O20 O 0.02418 0.10388 0.36616 0.0
H21 H 0.05482 0.14464 0.50913 0.0
H22 H 0.98642 1.00203 0.51582 0.0
Cu23 Cu 0.06652 0.05347 0.76414 0.0
N24 N 0.05141 0.03169 0.72439 0.0
N25 N 1.02033 1.00295 0.69834 0.0
C26 C 0.02519 0.01648 0.73357 0.0
C27 C 0.04452 0.01007 0.66577 0.0
C28 C 0.06359 0.02774 0.6819 0.0
O29 O 0.02277 0.09133 0.79239 0.0
C30 C 0.12999 0.99426 0.77232 0.0
O31 O 0.13073 1.00521 0.73042 0.0
H32 H 1.01028 0.01509 0.76568 0.0
H33 H 0.08487 0.03698 0.66387 0.0
N34 N 0.09382 0.08269 0.73736 0.0
N35 N 0.12906 0.11633 0.73742 0.0
C36 C 0.11391 0.09221 0.76061 0.0
C37 C 0.09599 0.10154 0.69767 0.0
C38 C 0.11785 0.12243 0.69763 0.0
C39 C 1.00352 0.11463 0.76443 0.0
O40 O 1.01361 0.10924 0.72297 0.0
H41 H 0.11573 0.0829 0.79483 0.0
H42 H 0.08174 0.10127 0.67129 0.0
O43 O 0.10161 0.01162 0.79746 0.0
H44 H 0.04793 1.00353 0.63241 0.0
H45 H 0.12433 0.14113 0.67075 0.0
Cu46 Cu 0.32336 0.09031 0.12282 0.0
N47 N 0.28353 0.08402 0.10517 0.0
N48 N 0.25685 0.04873 0.08323 0.0
C49 C 0.27956 0.05024 0.10952 0.0
C50 C 0.24557 0.08321 0.06134 0.0
C51 C 0.26188 0.10508 0.0752 0.0
O52 O 0.3472 0.03899 0.1537 0.0
C53 C 0.33409 0.14185 0.05076 0.0
O54 O 0.30546 0.16453 0.07274 0.0
H55 H 0.2967 0.02549 0.12692 0.0
H56 H 0.26078 0.1329 0.06106 0.0
N57 N 0.30751 0.12923 0.16065 0.0
N58 N 0.30532 0.17685 0.19675 0.0
C59 C 0.32692 0.14539 0.17738 0.0
C60 C 0.2727 0.15106 0.17031 0.0
C61 C 0.27128 0.18032 0.19232 0.0
C62 C 0.33099 0.02932 0.19021 0.0
O63 O 0.30368 0.05587 0.20922 0.0
H64 H 0.35619 0.13542 0.17361 0.0
H65 H 0.24993 0.14687 0.16036 0.0
O66 O 0.34841 0.10767 0.06713 0.0
H67 H 0.22934 0.09098 0.03468 0.0
H68 H 0.24703 0.20277 0.2038 0.0
Cu69 Cu 0.08443 0.33463 0.12136 0.0
N70 N 0.12506 0.30522 0.08371 0.0
N71 N 0.17035 0.29357 0.02708 0.0
C72 C 0.13914 0.31895 0.04497 0.0
C73 C 0.17592 0.26259 0.05601 0.0
C74 C 0.14829 0.26981 0.09055 0.0
O75 O 0.10777 0.35965 0.15418 0.0
C76 C 0.04167 0.33835 0.06116 0.0
O77 O 0.06056 0.30242 0.06891 0.0
H78 H 0.12732 0.34766 0.03101 0.0
H79 H 0.1459 0.25083 0.11921 0.0
N80 N 0.05473 0.31136 0.16239 0.0
N81 N 1.00354 0.30482 0.20223 0.0
C82 C 1.01804 0.32708 0.17273 0.0
C83 C 0.0636 0.27772 0.18616 0.0
C84 C 0.03257 0.27374 0.21055 0.0
C85 C 0.12783 0.33861 0.18306 0.0
O86 O 0.12897 0.30364 0.19188 0.0
H87 H 1.00225 0.35461 0.15882 0.0
H88 H 0.09072 0.2572 0.18565 0.0
O89 O 0.0487 0.36206 0.08015 0.0
H90 H 0.19856 0.23641 0.05278 0.0
H91 H 0.03157 0.24922 0.23213 0.0
Cu92 Cu 0.7825 0.04546 0.99961 0.0
N93 N 0.80658 0.07253 0.95819 0.0
N94 N 0.8155 0.12367 0.91954 0.0
C95 C 0.79323 0.11046 0.94946 0.0
C96 C 0.84404 0.09251 0.90887 0.0
C97 C 0.83852 0.06115 0.93272 0.0
O98 O 0.75693 0.08325 0.04202 0.0
C99 C 0.78021 0.99315 0.94915 0.0
O100 O 0.81491 0.98435 0.95099 0.0
H101 H 0.76747 0.12803 0.96495 0.0
H102 H 0.85672 0.03224 0.93187 0.0
N103 N 0.81149 1.00419 0.03389 0.0
N104 N 0.82376 0.95862 0.08903 0.0
C105 C 0.79781 0.98412 0.0667 0.0
C106 C 0.84749 0.99047 0.03508 0.0
C107 C 0.85508 0.96256 0.06928 0.0
C108 C 0.78005 0.09056 0.05984 0.0
O109 O 0.81451 0.07174 0.04901 0.0
H110 H 0.76913 0.98945 0.07535 0.0
H111 H 0.86665 1.00098 1.01374 0.0
O112 O 0.75802 0.02212 0.96774 0.0
H113 H 0.86774 0.0923 0.88621 0.0
H114 H 0.88151 0.94691 0.07944 0.0
Cu115 Cu 0.04453 0.79454 0.02641 0.0
N116 N 1.01957 0.79477 0.97893 0.0
N117 N 0.9795 0.79696 0.93425 0.0
C118 C 0.98398 0.80536 0.97345 0.0
C119 C 1.01346 0.78019 0.91506 0.0
C120 C 0.0376 0.77872 0.94231 0.0
O121 O 1.01948 0.77529 0.08402 0.0
C122 C 0.11164 0.79367 0.96978 0.0
O123 O 0.08721 0.82296 0.95191 0.0
H124 H 0.96189 0.81847 0.99771 0.0
H125 H 0.06664 0.76542 0.93626 0.0
N126 N 0.04055 0.84224 0.03857 0.0
N127 N 0.06658 0.87641 0.064 0.0
C128 C 0.05931 0.84426 0.0694 0.0
C129 C 0.03444 0.87498 1.01317 0.0
C130 C 0.05075 0.89608 0.0287 0.0
C131 C 0.98739 0.79704 0.09896 0.0
O132 O 0.97348 0.82913 0.07562 0.0
H133 H 0.0723 0.82 0.09111 0.0
H134 H 0.02336 0.88092 0.98252 0.0
O135 O 0.09982 0.77464 1.00315 0.0
H136 H 1.0206 0.76832 0.88399 0.0
H137 H 0.05397 0.92189 1.0126 0.0
Cu138 Cu 0.56242 0.54946 0.90408 0.0
N139 N 0.57843 0.57203 0.94155 0.0
N140 N 0.60339 0.6078 0.96568 0.0
C141 C 0.59899 0.59386 0.93053 0.0
C142 C 0.585 0.59405 1.00004 0.0
C143 C 0.56966 0.57203 0.98505 0.0
O144 O 0.60605 0.51994 0.86742 0.0
C145 C 0.499 0.59048 0.8559 0.0
O146 O 0.50158 0.5585 0.8426 0.0
H147 H 0.60945 0.60035 0.89725 0.0
H148 H 0.55272 0.55756 1.0044 0.0
N149 N 0.54406 0.51477 0.93836 0.0
N150 N 0.51042 0.47886 0.96219 0.0
C151 C 0.51182 0.51105 0.93904 0.0
C152 C 0.5634 0.48429 0.96261 0.0
C153 C 0.54277 0.46195 0.97719 0.0
C154 C 0.60991 0.48766 0.85645 0.0
O155 O 0.58136 0.47758 0.86114 0.0
H156 H 0.49056 0.53028 0.92095 0.0
H157 H 0.59127 0.47786 0.96733 0.0
O158 O 0.52312 0.59118 0.87758 0.0
H159 H 0.58269 0.59958 0.03363 0.0
H160 H 0.55128 0.43484 0.99609 0.0
Cu161 Cu 0.58031 0.57328 0.24395 0.0
N162 N 0.56371 0.5452 0.21361 0.0
N163 N 0.53297 0.51173 0.19597 0.0
C164 C 0.53406 0.53516 0.22395 0.0
C165 C 0.5632 0.50712 0.16715 0.0
C166 C 0.5821 0.52729 0.17836 0.0
O167 O 0.53833 0.61019 0.27618 0.0
C168 C 0.65183 0.52595 0.26555 0.0
O169 O 0.6632 0.54685 0.23364 0.0
H170 H 0.51437 0.54401 0.25216 0.0
H171 H 0.608 0.52816 0.16244 0.0
N172 N 0.60141 0.60325 0.20407 0.0
N173 N 0.62776 0.64594 0.17882 0.0
C174 C 0.61677 0.62635 0.21445 0.0
C175 C 0.60204 0.60896 0.16041 0.0
C176 C 0.61852 0.63503 0.14472 0.0
C177 C 0.5138 0.63138 0.25278 0.0
O178 O 0.51767 0.62526 0.21162 0.0
H179 H 0.62001 0.62839 0.24759 0.0
H180 H 0.59048 0.59596 0.14129 0.0
O181 O 0.61769 0.53444 0.27729 0.0
H182 H 0.57146 0.49025 0.13976 0.0
H183 H 0.62247 0.64581 0.11095 0.0
Cu184 Cu 0.83777 0.59938 0.62807 0.0
N185 N 0.87053 0.61096 0.58261 0.0
N186 N 0.88865 0.63461 0.51661 0.0
C187 C 0.8602 0.63279 0.54579 0.0
C188 C 0.91821 0.61368 0.53623 0.0
C189 C 0.90695 0.59888 0.57689 0.0
O190 O 0.8176 0.64409 0.66351 0.0
C191 C 0.82034 0.56313 0.56713 0.0
O192 O 0.85417 0.55836 0.5519 0.0
H193 H 0.83217 0.64646 0.54025 0.0
H194 H 0.92405 0.58005 0.60016 0.0
N195 N 0.85846 0.55615 0.6659 0.0
N196 N 0.86109 0.49999 0.70178 0.0
C197 C 0.85777 0.52141 0.66319 0.0
C198 C 0.86281 0.55618 0.70776 0.0
C199 C 0.8643 0.52179 0.72986 0.0
C200 C 0.84092 0.65437 0.6771 0.0
O201 O 0.87538 0.6354 0.66635 0.0
H202 H 0.85092 0.51335 0.63502 0.0
H203 H 0.861 0.5807 0.72257 0.0
O204 O 0.80559 0.58293 0.59971 0.0
H205 H 0.94593 0.60849 0.52173 0.0
H206 H 0.86492 0.51445 0.76456 0.0
Cu207 Cu 0.58205 0.82898 0.61681 0.0
N208 N 0.61875 0.82174 0.56364 0.0
N209 N 0.66234 0.81605 0.50319 0.0
C210 C 0.64837 0.79771 0.53943 0.0
C211 C 0.64125 0.85239 0.5058 0.0
C212 C 0.61573 0.85559 0.54162 0.0
O213 O 0.60402 0.84856 0.6564 0.0
C214 C 0.53243 0.85019 0.56227 0.0
O215 O 0.55507 0.81695 0.55177 0.0
H216 H 0.65954 0.76766 0.54813 0.0
H217 H 0.59603 0.88196 0.55173 0.0
N218 N 0.55341 0.79959 0.65195 0.0
N219 N 0.50385 0.79045 0.69551 0.0
C220 C 0.51751 0.81512 0.6687 0.0
C221 C 0.56257 0.76344 0.66912 0.0
C222 C 0.5327 0.75788 0.69547 0.0
C223 C 0.61395 0.83136 0.69306 0.0
O224 O 0.60478 0.80196 0.70885 0.0
H225 H 0.50179 0.84464 0.66232 0.0
H226 H 0.58937 0.74253 0.66382 0.0
O227 O 0.53997 0.86547 0.59135 0.0
H228 H 0.64454 0.8758 0.48369 0.0
H229 H 0.53248 0.73147 0.7132 0.0
Cu230 Cu 0.2883 0.54944 0.51211 0.0
N231 N 0.31304 0.57921 0.47342 0.0
N232 N 0.32285 0.62941 0.43118 0.0
C233 C 0.30036 0.61735 0.46277 0.0
C234 C 0.35079 0.5973 0.42206 0.0
C235 C 0.34471 0.56689 0.44766 0.0
O236 O 0.25388 0.58618 0.54964 0.0
C237 C 0.28889 0.49283 0.46498 0.0
O238 O 0.32183 0.47925 0.47594 0.0
H239 H 0.27457 0.63581 0.47718 0.0
H240 H 0.362 0.53763 0.4469 0.0
N241 N 0.31472 0.50986 0.55285 0.0
N242 N 0.32523 0.46718 0.61234 0.0
C243 C 0.30016 0.49119 0.58704 0.0
C244 C 0.35033 0.49677 0.55656 0.0
C245 C 0.3568 0.4708 0.59284 0.0
C246 C 0.27133 0.59466 0.57463 0.0
O247 O 0.30672 0.57867 0.57059 0.0
H248 H 0.27147 0.49612 0.59402 0.0
H249 H 0.37017 0.50608 0.53493 0.0
O250 O 0.26795 0.52514 0.47665 0.0
H251 H 0.37436 0.59561 0.39852 0.0
H252 H 0.38294 0.45575 0.60399 0.0
Cu253 Cu 0.52956 0.30719 0.51944 0.0
N254 N 0.57371 0.28235 0.48359 0.0
N255 N 0.62853 0.27805 0.44558 0.0
C256 C 0.60651 0.28568 0.48386 0.0
C257 C 0.60899 0.26943 0.42031 0.0
C258 C 0.57562 0.27198 0.44357 0.0
O259 O 0.54597 0.34266 0.54443 0.0
C260 C 0.47488 0.30156 0.47422 0.0
O261 O 0.48811 0.26709 0.49274 0.0
H262 H 0.61292 0.2969 0.50995 0.0
H263 H 0.55306 0.27001 0.43052 0.0
N264 N 0.51362 0.2781 0.56852 0.0
N265 N 0.4839 0.26609 0.63425 0.0
C266 C 0.48579 0.29212 0.60016 0.0
C267 C 0.52935 0.24166 0.58274 0.0
C268 C 0.51123 0.23425 0.62294 0.0
C269 C 0.55876 0.33277 0.5813 0.0
O270 O 0.55286 0.30441 0.60615 0.0
H271 H 0.46863 0.3215 0.59931 0.0
H272 H 0.5532 0.22218 0.5659 0.0
O273 O 0.48885 0.32558 0.48082 0.0
H274 H 0.61742 0.26379 0.38647 0.0
H275 H 0.51815 0.20746 0.64261 0.0
Eu276 Eu 0.27583 0.3164 0.36969 0.0
C277 C 0.32423 0.35125 0.17489 0.0
C278 C 0.37524 0.29391 0.16077 0.0
C279 C 0.34237 0.33155 0.10137 0.0
C280 C 0.35204 0.32003 0.18986 0.0
C281 C 0.31963 0.35771 0.13025 0.0
C282 C 0.3698 0.29947 0.11666 0.0
C283 C 0.27371 0.41804 0.14468 0.0
N284 N 0.30361 0.3769 0.20317 0.0
C285 C 0.27968 0.41075 0.18846 0.0
C286 C 0.29346 0.39119 0.11553 0.0
Eu287 Eu 0.31728 0.36344 0.27592 0.0
N288 N 0.35777 0.31632 0.2322 0.0
C289 C 0.38716 0.28831 0.24703 0.0
C290 C 0.40416 0.26382 0.17648 0.0
C291 C 0.41033 0.26121 0.21971 0.0
H292 H 0.26469 0.4317 0.21098 0.0
H293 H 0.43308 0.23851 0.23192 0.0
H294 H 0.3875 0.27986 0.09379 0.0
H295 H 0.2541 0.44444 0.13339 0.0
H296 H 0.39231 0.28623 0.2803 0.0
H297 H 0.15654 0.44352 0.39719 0.0
H298 H 0.42247 0.24308 0.15521 0.0
H299 H 0.32386 0.25414 0.44286 0.0
H300 H 0.20031 0.39323 0.35514 0.0
H301 H 0.32804 0.24647 0.52203 0.0
H302 H 0.33975 0.3366 0.06689 0.0
H303 H 0.16193 0.44486 0.47455 0.0
H304 H 0.19339 0.41382 0.54026 0.0
H305 H 0.28905 0.39705 0.08152 0.0
H306 H 0.23963 0.36006 0.57434 0.0
N307 N 0.2314 0.36607 0.40757 0.0
C308 C 0.20323 0.39298 0.38883 0.0
C309 C 0.1815 0.42261 0.45614 0.0
C310 C 0.20933 0.39407 0.47578 0.0
C311 C 0.17828 0.42186 0.41256 0.0
C312 C 0.2343 0.36586 0.4503 0.0
H313 H 0.28817 0.29655 0.56815 0.0
N314 N 0.28423 0.3092 0.44407 0.0
C315 C 0.30959 0.27217 0.50746 0.0
C316 C 0.26139 0.33649 0.46914 0.0
C317 C 0.30724 0.27665 0.46275 0.0
C318 C 0.28738 0.3007 0.53334 0.0
C319 C 0.2629 0.33334 0.51439 0.0
O320 O 0.27535 0.25943 0.39091 0.0
O321 O 0.30229 0.31267 0.30117 0.0
O322 O 0.26443 0.36417 0.25436 0.0
O323 O 0.23663 0.3399 0.31744 0.0
O324 O 0.32016 0.26488 0.34298 0.0
O325 O 0.22566 0.30433 0.37729 0.0
O326 O 0.32166 0.41904 0.25621 0.0
O327 O 0.29136 0.36664 0.34427 0.0
O328 O 0.32926 0.31364 0.39023 0.0
O329 O 0.35778 0.33813 0.3277 0.0
O330 O 0.27506 0.41579 0.30416 0.0
O331 O 0.36986 0.37062 0.26689 0.0
C332 C 0.32203 0.27822 0.30253 0.0
C333 C 0.22064 0.25415 0.42898 0.0
C334 C 0.18167 0.21767 0.45949 0.0
C335 C 0.20192 0.23057 0.42343 0.0
C336 C 0.18128 0.22782 0.50112 0.0
C337 C 0.21931 0.26418 0.47079 0.0
C338 C 0.20004 0.25082 0.50664 0.0
C339 C 0.23683 0.35473 0.27606 0.0
C340 C 0.24056 0.26892 0.39096 0.0
C341 C 0.23872 0.36183 0.53962 0.0
C342 C 0.21225 0.39235 0.52025 0.0
C343 C 0.27266 0.40132 0.34412 0.0
C344 C 0.37749 0.42069 0.21678 0.0
C345 C 0.40324 0.43598 0.22325 0.0
C346 C 0.42424 0.44793 0.18726 0.0
C347 C 0.41867 0.44494 0.14486 0.0
C348 C 0.37251 0.41813 0.17412 0.0
C349 C 0.39289 0.4303 0.13844 0.0
C350 C 0.35707 0.32293 0.36908 0.0
C351 C 0.35686 0.40662 0.25469 0.0
H352 H 0.20228 0.2232 0.3911 0.0
H353 H 0.16627 0.21802 0.52947 0.0
H354 H 0.23286 0.28252 0.4759 0.0
H355 H 0.19934 0.25866 0.53879 0.0
H356 H 0.40751 0.43774 0.25611 0.0
H357 H 0.43421 0.45413 0.1166 0.0
H358 H 0.35304 0.40666 0.16819 0.0
H359 H 0.38881 0.42818 0.10565 0.0
Eu360 Eu 0.82186 0.32819 0.37225 0.0
C361 C 0.72069 0.28269 0.28766 0.0
C362 C 0.72203 0.22535 0.33371 0.0
C363 C 0.66894 0.26181 0.2979 0.0
C364 C 0.73914 0.25125 0.31428 0.0
C365 C 0.68556 0.28785 0.27894 0.0
C366 C 0.68705 0.23076 0.32528 0.0
C367 C 0.68579 0.34367 0.23184 0.0
N368 N 0.7367 0.30833 0.27057 0.0
C369 C 0.72049 0.33749 0.24126 0.0
C370 C 0.66808 0.31896 0.2511 0.0
Eu371 Eu 0.79718 0.29248 0.28423 0.0
N372 N 0.77301 0.24662 0.32249 0.0
C373 C 0.79057 0.21704 0.3505 0.0
C374 C 0.74026 0.19493 0.36175 0.0
C375 C 0.77455 0.19091 0.37032 0.0
H376 H 0.73449 0.35612 0.22501 0.0
H377 H 0.78863 0.16778 0.39258 0.0
H378 H 0.67366 0.21112 0.34 0.0
H379 H 0.67293 0.36724 0.2093 0.0
H380 H 0.81647 0.2135 0.35918 0.0
H381 H 0.90089 0.41252 0.28518 0.0
H382 H 0.7279 0.17466 0.37742 0.0
H383 H 0.83889 0.26484 0.46035 0.0
H384 H 0.84742 0.39309 0.30427 0.0
H385 H 0.88833 0.23327 0.50588 0.0
H386 H 0.64196 0.2655 0.29169 0.0
H387 H 0.95486 0.38005 0.32355 0.0
H388 H 0.98451 0.33185 0.38208 0.0
H389 H 0.64118 0.32376 0.24364 0.0
H390 H 0.98095 0.28359 0.44222 0.0
N391 N 0.8714 0.34916 0.35182 0.0
C392 C 0.87088 0.37862 0.32112 0.0
C393 C 0.93151 0.37134 0.33199 0.0
C394 C 0.9311 0.3425 0.36507 0.0
C395 C 0.90109 0.38976 0.31028 0.0
C396 C 0.9001 0.33207 0.37467 0.0
H397 H 0.94514 0.24704 0.48884 0.0
N398 N 0.86773 0.29563 0.41742 0.0
C399 C 0.89152 0.25312 0.47845 0.0
C400 C 0.89813 0.30478 0.40859 0.0
C401 C 0.86358 0.27104 0.45258 0.0
C402 C 0.92353 0.26101 0.46875 0.0
C403 C 0.92706 0.28733 0.43373 0.0
O404 O 0.78666 0.34765 0.43188 0.0
O405 O 0.77808 0.31299 0.35084 0.0
O406 O 0.75705 0.3514 0.29538 0.0
O407 O 0.79119 0.37716 0.32488 0.0
O408 O 0.78928 0.29468 0.41416 0.0
O409 O 0.81351 0.38358 0.39386 0.0
O410 O 0.80298 0.30089 0.21339 0.0
O411 O 0.83961 0.30966 0.30458 0.0
O412 O 0.86359 0.26845 0.36574 0.0
O413 O 0.8474 0.24584 0.30919 0.0
O414 O 0.831 0.32499 0.24118 0.0
O415 O 0.80842 0.2451 0.24509 0.0
C416 C 0.76832 0.29616 0.38619 0.0
C417 C 0.80149 0.38761 0.47134 0.0
C418 C 0.80062 0.43366 0.51965 0.0
C419 C 0.79556 0.4252 0.47889 0.0
C420 C 0.81215 0.40376 0.5521 0.0
C421 C 0.81304 0.35874 0.50474 0.0
C422 C 0.8184 0.36679 0.54457 0.0
C423 C 0.76246 0.38081 0.30627 0.0
C424 C 0.79355 0.3786 0.43007 0.0
C425 C 0.95835 0.29692 0.42348 0.0
C426 C 0.96039 0.32439 0.38921 0.0
C427 C 0.85148 0.32466 0.26923 0.0
C428 C 0.78114 0.26351 0.17822 0.0
C429 C 0.7801 0.22817 0.17131 0.0
C430 C 0.75896 0.22535 0.14043 0.0
C431 C 0.73805 0.25881 0.11803 0.0
C432 C 0.76055 0.29594 0.15398 0.0
C433 C 0.73876 0.29361 0.12498 0.0
C434 C 0.86857 0.24177 0.3398 0.0
C435 C 0.80503 0.26681 0.20838 0.0
H436 H 0.78652 0.44775 0.45347 0.0
H437 H 0.81728 0.40877 0.5832 0.0
H438 H 0.81752 0.3298 0.50042 0.0
H439 H 0.82752 0.34417 0.56983 0.0
H440 H 0.79623 0.20302 0.18938 0.0
H441 H 0.72223 0.25826 0.09341 0.0
H442 H 0.76137 0.32339 0.15702 0.0
H443 H 0.72305 0.31892 0.10676 0.0
Eu444 Eu 0.8169 0.76831 0.27564 0.0
C445 C 0.80383 0.82518 0.43456 0.0
C446 C 0.74516 0.87472 0.43145 0.0
C447 C 0.76082 0.83893 0.50052 0.0
C448 C 0.77896 0.85271 0.41045 0.0
C449 C 0.79491 0.81813 0.47993 0.0
C450 C 0.73619 0.86748 0.47644 0.0
C451 C 0.85592 0.77485 0.48316 0.0
N452 N 0.83715 0.80642 0.41415 0.0
C453 C 0.86399 0.7844 0.43875 0.0
C454 C 0.82083 0.79089 0.50355 0.0
Eu455 Eu 0.84696 0.82082 0.33683 0.0
N456 N 0.7879 0.85833 0.36666 0.0
C457 C 0.76456 0.88651 0.34246 0.0
C458 C 0.72109 0.90305 0.40651 0.0
C459 C 0.73091 0.90902 0.36186 0.0
H460 H 0.89181 0.77353 0.42416 0.0
H461 H 0.71259 0.93108 0.34229 0.0
H462 H 0.71018 0.88372 0.49289 0.0
H463 H 0.8769 0.7556 0.50174 0.0
H464 H 0.77156 0.89234 0.30818 0.0
H465 H 0.86673 0.61388 0.30689 0.0
H466 H 0.69489 0.92041 0.4214 0.0
H467 H 0.81799 0.81055 0.17091 0.0
H468 H 0.82367 0.67869 0.3151 0.0
H469 H 0.85777 0.80214 0.10185 0.0
H470 H 0.75355 0.8337 0.53526 0.0
H471 H 0.91927 0.60237 0.2494 0.0
H472 H 0.95038 0.62775 0.18208 0.0
H473 H 0.81444 0.78341 0.53793 0.0
H474 H 0.94785 0.68004 0.12511 0.0
N475 N 0.85315 0.70398 0.26507 0.0
C476 C 0.84672 0.67396 0.29009 0.0
C477 C 0.90074 0.63089 0.2533 0.0
C478 C 0.90452 0.6611 0.22427 0.0
C479 C 0.87103 0.63724 0.2856 0.0
C480 C 0.87964 0.6977 0.23086 0.0
H481 H 0.91224 0.74481 0.09387 0.0
N482 N 0.85087 0.7603 0.20457 0.0
C483 C 0.86442 0.78106 0.12925 0.0
C484 C 0.8783 0.72697 0.19913 0.0
C485 C 0.84218 0.78609 0.1692 0.0
C486 C 0.89511 0.7487 0.12487 0.0
C487 C 0.90168 0.72052 0.15955 0.0
O488 O 0.7609 0.79785 0.26197 0.0
O489 O 0.79852 0.803 0.33445 0.0
O490 O 0.87564 0.76051 0.36035 0.0
O491 O 0.84804 0.72837 0.32938 0.0
O492 O 0.79168 0.75132 0.34247 0.0
O493 O 0.78627 0.73869 0.25401 0.0
O494 O 0.88872 0.8328 0.36293 0.0
O495 O 0.85844 0.79547 0.27243 0.0
O496 O 0.80385 0.82887 0.2409 0.0
O497 O 0.83207 0.8586 0.27493 0.0
O498 O 0.90283 0.78761 0.30103 0.0
O499 O 0.84913 0.87783 0.3296 0.0
C500 C 0.78586 0.78074 0.36206 0.0
C501 C 0.73875 0.7723 0.2123 0.0
C502 C 0.70162 0.7503 0.17598 0.0
C503 C 0.71969 0.74809 0.2117 0.0
C504 C 0.70287 0.77728 0.1406 0.0
C505 C 0.73963 0.7992 0.17685 0.0
C506 C 0.72164 0.80164 0.14121 0.0
C507 C 0.86892 0.73001 0.35704 0.0
C508 C 0.75739 0.76822 0.25047 0.0
C509 C 0.9291 0.68523 0.15481 0.0
C510 C 0.93055 0.65548 0.18725 0.0
C511 C 0.89297 0.78145 0.2663 0.0
C512 C 0.8713 0.89285 0.38759 0.0
C513 C 0.89769 0.90836 0.39053 0.0
C514 C 0.89429 0.92923 0.42589 0.0
C515 C 0.86451 0.93316 0.45857 0.0
C516 C 0.84117 0.89912 0.41948 0.0
C517 C 0.83801 0.91864 0.45499 0.0
C518 C 0.81395 0.85792 0.24352 0.0
C519 C 0.87591 0.8689 0.35246 0.0
H520 H 0.71933 0.72711 0.23901 0.0
H521 H 0.68879 0.77999 0.1129 0.0
H522 H 0.75399 0.81829 0.17676 0.0
H523 H 0.72201 0.82264 0.1141 0.0
H524 H 0.92041 0.90446 0.3651 0.0
H525 H 0.86154 0.94741 0.4872 0.0
H526 H 0.8201 0.88882 0.41713 0.0
H527 H 0.81495 0.92244 0.47993 0.0
Eu528 Eu 0.30464 0.81821 0.26601 0.0
C529 C 0.37059 0.91492 0.332 0.0
C530 C 0.42547 0.90177 0.28101 0.0
C531 C 0.40116 0.96078 0.31435 0.0
C532 C 0.39724 0.89042 0.30509 0.0
C533 C 0.37221 0.95046 0.33659 0.0
C534 C 0.42771 0.93651 0.2866 0.0
C535 C 0.31589 0.96393 0.38425 0.0
N536 N 0.34218 0.90494 0.35213 0.0
C537 C 0.3154 0.92858 0.37887 0.0
C538 C 0.3444 0.97497 0.363 0.0
Eu539 Eu 0.34537 0.84254 0.34725 0.0
N540 N 0.39387 0.85725 0.29941 0.0
C541 C 0.4155 0.83719 0.26576 0.0
C542 C 0.44969 0.87885 0.25026 0.0
C543 C 0.44409 0.84694 0.24186 0.0
H544 H 0.29372 0.92011 0.397 0.0
H545 H 0.46117 0.83033 0.21598 0.0
H546 H 0.44933 0.94535 0.2686 0.0
H547 H 0.29444 0.98246 0.40523 0.0
H548 H 0.41024 0.8148 0.25471 0.0
H549 H 0.22588 0.73346 0.35136 0.0
H550 H 0.47153 0.88668 0.2311 0.0
H551 H 0.36976 0.8 0.17913 0.0
H552 H 0.24568 0.78857 0.33648 0.0
H553 H 0.3982 0.75108 0.12795 0.0
H554 H 0.40285 0.98784 0.31767 0.0
H555 H 0.25399 0.68023 0.30538 0.0
H556 H 0.29788 0.65225 0.24133 0.0
H557 H 0.34472 1.00243 0.36723 0.0
H558 H 0.34394 0.65746 0.18022 0.0
N559 N 0.28536 0.76605 0.28372 0.0
C560 C 0.25823 0.76535 0.31642 0.0
C561 C 0.26287 0.70425 0.29885 0.0
C562 C 0.28973 0.70584 0.26432 0.0
C563 C 0.24692 0.73425 0.32486 0.0
C564 C 0.30052 0.73762 0.25738 0.0
H565 H 0.38119 0.69425 0.13756 0.0
N566 N 0.33707 0.77105 0.21797 0.0
C567 C 0.37827 0.74767 0.1547 0.0
C568 C 0.32669 0.74043 0.22314 0.0
C569 C 0.3621 0.77534 0.18387 0.0
C570 C 0.3685 0.71568 0.16015 0.0
C571 C 0.34247 0.7117 0.19466 0.0
O572 O 0.28388 0.85637 0.20967 0.0
O573 O 0.3209 0.8634 0.28573 0.0
O574 O 0.28668 0.88337 0.34456 0.0
O575 O 0.2596 0.84864 0.31751 0.0
O576 O 0.33542 0.85296 0.22148 0.0
O577 O 0.2507 0.82749 0.2487 0.0
O578 O 0.32166 0.84915 0.41613 0.0
O579 O 0.31234 0.80827 0.33685 0.0
O580 O 0.36061 0.77216 0.2725 0.0
O581 O 0.38924 0.78871 0.32232 0.0
O582 O 0.34938 0.78426 0.381 0.0
O583 O 0.37916 0.84118 0.39548 0.0
C584 C 0.33531 0.87446 0.24967 0.0
C585 C 0.24464 0.84138 0.1731 0.0
C586 C 0.20062 0.85183 0.12251 0.0
C587 C 0.20895 0.85779 0.16241 0.0
C588 C 0.22825 0.82879 0.09405 0.0
C589 C 0.27156 0.81845 0.14403 0.0
C590 C 0.26331 0.81195 0.10504 0.0
C591 C 0.25736 0.8783 0.33649 0.0
C592 C 0.25405 0.84936 0.21352 0.0
C593 C 0.33197 0.6799 0.20161 0.0
C594 C 0.30577 0.67691 0.23644 0.0
C595 C 0.32508 0.77887 0.36313 0.0
C596 C 0.35797 0.85072 0.47172 0.0
C597 C 0.3876 0.85996 0.47818 0.0
C598 C 0.39445 0.86193 0.5205 0.0
C599 C 0.36984 0.85608 0.55626 0.0
C600 C 0.33377 0.84533 0.50785 0.0
C601 C 0.33964 0.84822 0.54983 0.0
C602 C 0.38844 0.76549 0.29473 0.0
C603 C 0.35241 0.84736 0.42713 0.0
H604 H 0.18793 0.87548 0.18468 0.0
H605 H 0.22255 0.82301 0.06366 0.0
H606 H 0.2991 0.80584 0.15114 0.0
H607 H 0.28419 0.79374 0.08323 0.0
H608 H 0.40538 0.86552 0.44997 0.0
H609 H 0.37434 0.8564 0.58939 0.0
H610 H 0.31054 0.83859 0.50371 0.0
H611 H 0.32106 0.84361 0.57764 0.0
Eu612 Eu 0.31762 0.80689 0.88158 0.0
C613 C 0.2187 0.77485 0.79397 0.0
C614 C 0.21709 0.71824 0.83946 0.0
C615 C 0.16288 0.7609 0.80964 0.0
C616 C 0.23634 0.74189 0.81873 0.0
C617 C 0.18211 0.78385 0.78805 0.0
C618 C 0.18027 0.72828 0.83541 0.0
C619 C 0.18691 0.83545 0.73602 0.0
N620 N 0.23748 0.79726 0.77412 0.0
C621 C 0.22295 0.82544 0.74285 0.0
C622 C 0.16611 0.8151 0.75951 0.0
Eu623 Eu 0.29845 0.77846 0.78839 0.0
N624 N 0.27207 0.73278 0.82252 0.0
C625 C 0.29 0.69973 0.84554 0.0
C626 C 0.23533 0.68503 0.86372 0.0
C627 C 0.27196 0.67565 0.86648 0.0
H628 H 0.2391 0.84072 0.72339 0.0
H629 H 0.28639 0.64984 0.88497 0.0
H630 H 0.16514 0.71061 0.8515 0.0
H631 H 0.17532 0.85863 0.71236 0.0
H632 H 0.31807 0.69137 0.84898 0.0
H633 H 0.3503 0.92398 0.78326 0.0
H634 H 0.22145 0.6663 0.88016 0.0
H635 H 0.36297 0.74507 0.9587 0.0
H636 H 0.31149 0.88767 0.81512 0.0
H637 H 0.42231 0.72549 0.9859 0.0
H638 H 0.13467 0.76775 0.80595 0.0
H639 H 0.41293 0.90355 0.8009 0.0
H640 H 0.46175 0.85865 0.84308 0.0
H641 H 0.13816 0.82282 0.75409 0.0
H642 H 0.48138 0.80476 0.8979 0.0
N643 N 0.35136 0.84633 0.85105 0.0
C644 C 0.33841 0.87836 0.82392 0.0
C645 C 0.39588 0.88741 0.81534 0.0
C646 C 0.4086 0.85547 0.84443 0.0
C647 C 0.36052 0.89909 0.80541 0.0
C648 C 0.3854 0.83525 0.86218 0.0
H649 H 0.46666 0.75564 0.95188 0.0
N650 N 0.37383 0.78574 0.90969 0.0
C651 C 0.41563 0.74746 0.95939 0.0
C652 C 0.39684 0.80429 0.89245 0.0
C653 C 0.38208 0.75868 0.94399 0.0
C654 C 0.44059 0.76451 0.94004 0.0
C655 C 0.43122 0.79359 0.90657 0.0
O656 O 0.30234 0.80294 0.95198 0.0
O657 O 0.27321 0.79535 0.85663 0.0
O658 O 0.26426 0.84015 0.78946 0.0
O659 O 0.27094 0.8574 0.85472 0.0
O660 O 0.28796 0.76784 0.91635 0.0
O661 O 0.29731 0.85753 0.91664 0.0
O662 O 0.30757 0.79006 0.71816 0.0
O663 O 0.34249 0.7907 0.81306 0.0
O664 O 0.35841 0.74678 0.87489 0.0
O665 O 0.34854 0.72968 0.81068 0.0
O666 O 0.33175 0.81349 0.7513 0.0
O667 O 0.3087 0.73437 0.74519 0.0
C668 C 0.26396 0.7755 0.89008 0.0
C669 C 0.30432 0.85045 0.99202 0.0
C670 C 0.29446 0.89938 0.03978 0.0
C671 C 0.28707 0.88775 1.00283 0.0
C672 C 0.3196 0.87303 0.06578 0.0
C673 C 0.32901 0.82457 0.01874 0.0
C674 C 0.33673 0.83595 0.05521 0.0
C675 C 0.25552 0.86474 0.81844 0.0
C676 C 0.29397 0.83889 0.95468 0.0
C677 C 0.45473 0.8129 0.88785 0.0
C678 C 0.44351 0.84364 0.85672 0.0
C679 C 0.35382 0.80857 0.77918 0.0
C680 C 0.28366 0.75934 0.67779 0.0
C681 C 0.27047 0.73003 0.67771 0.0
C682 C 0.25214 0.72879 0.64326 0.0
C683 C 0.24405 0.75993 0.61141 0.0
C684 C 0.27544 0.78963 0.64527 0.0
C685 C 0.25506 0.79025 0.61301 0.0
C686 C 0.36662 0.72256 0.845 0.0
C687 C 0.3076 0.75773 0.71001 0.0
H688 H 0.26735 0.90754 0.98287 0.0
H689 H 0.32643 0.88115 0.09401 0.0
H690 H 0.34173 0.79539 1.01229 0.0
H691 H 0.35577 0.81583 0.07565 0.0
H692 H 0.27578 0.70766 0.70388 0.0
H693 H 0.23084 0.7605 0.58374 0.0
H694 H 0.28507 0.81276 0.64444 0.0
H695 H 0.24909 0.81364 0.58797 0.0
Eu696 Eu 0.31017 0.27654 0.79559 0.0
C697 C 0.28957 0.33634 0.95874 0.0
C698 C 0.23449 0.38937 0.94787 0.0
C699 C 0.242 0.35539 0.0196 0.0
C700 C 0.26886 0.3649 0.93124 0.0
C701 C 0.27656 0.33186 1.00345 0.0
C702 C 0.22103 0.38409 0.99189 0.0
C703 C 0.33431 0.284 1.01435 0.0
N704 N 0.32303 0.31407 0.9424 0.0
C705 C 0.34634 0.29039 0.97029 0.0
C706 C 0.29895 0.30428 0.03086 0.0
Eu707 Eu 0.34028 0.32373 0.86589 0.0
N708 N 0.28242 0.36913 0.88854 0.0
C709 C 0.26335 0.39863 0.86162 0.0
C710 C 0.21455 0.41855 0.91981 0.0
C711 C 0.22921 0.42337 0.87664 0.0
H712 H 0.37438 0.27598 0.95856 0.0
H713 H 0.21428 0.44635 0.85485 0.0
H714 H 0.19455 0.40235 1.00494 0.0
H715 H 0.35256 0.26397 0.03571 0.0
H716 H 0.27393 0.404 0.82853 0.0
H717 H 0.43582 0.15227 0.78991 0.0
H718 H 0.18807 0.43781 0.9313 0.0
H719 H 0.26579 0.32618 0.71015 0.0
H720 H 0.3806 0.19616 0.82452 0.0
H721 H 0.27951 0.33849 0.63073 0.0
H722 H 0.23149 0.35203 0.05367 0.0
H723 H 0.4528 0.16019 0.71037 0.0
H724 H 0.43866 0.19641 0.63861 0.0
H725 H 0.28981 0.29971 0.0652 0.0
H726 H 0.39737 0.24821 0.59576 0.0
N727 N 0.365 0.23074 0.76587 0.0
C728 C 0.38692 0.20101 0.79003 0.0
C729 C 0.42803 0.17991 0.72545 0.0
C730 C 0.40534 0.20963 0.70051 0.0
C731 C 0.41861 0.17545 0.77033 0.0
C732 C 0.3733 0.23466 0.72172 0.0
H733 H 0.33919 0.30237 0.59281 0.0
N734 N 0.31865 0.28676 0.71807 0.0
C735 C 0.29969 0.31755 0.64901 0.0
C736 C 0.34989 0.26379 0.6974 0.0
C737 C 0.29223 0.31078 0.69411 0.0
C738 C 0.33325 0.29706 0.62778 0.0
C739 C 0.35814 0.26861 0.65158 0.0
O740 O 0.26056 0.27503 0.77714 0.0
O741 O 0.2988 0.29759 0.86163 0.0
O742 O 0.35888 0.26169 0.89348 0.0
O743 O 0.32655 0.237 0.85835 0.0
O744 O 0.25455 0.3105 0.82908 0.0
O745 O 0.304 0.22282 0.79286 0.0
O746 O 0.38438 0.32705 0.89641 0.0
O747 O 0.3525 0.29975 0.80183 0.0
O748 O 0.29993 0.33711 0.76273 0.0
O749 O 0.33021 0.36182 0.80078 0.0
O750 O 0.39664 0.28966 0.83333 0.0
O751 O 0.34915 0.37698 0.86303 0.0
C752 C 0.26444 0.31148 0.86607 0.0
C753 C 0.24455 0.22326 0.81015 0.0
C754 C 0.20218 0.19039 0.81479 0.0
C755 C 0.22632 0.20658 0.78985 0.0
C756 C 0.19604 0.19166 0.86033 0.0
C757 C 0.23825 0.22438 0.85557 0.0
C758 C 0.2139 0.20878 0.88051 0.0
C759 C 0.34661 0.23458 0.88961 0.0
C760 C 0.27079 0.23839 0.78364 0.0
C761 C 0.39052 0.24459 0.6308 0.0
C762 C 0.41394 0.21503 0.65517 0.0
C763 C 0.38665 0.28495 0.79796 0.0
C764 C 0.3725 0.38552 0.92372 0.0
C765 C 0.40137 0.39674 0.92807 0.0
C766 C 0.39821 0.41959 0.96111 0.0
C767 C 0.36635 0.42999 0.99062 0.0
C768 C 0.34067 0.39697 0.95298 0.0
C769 C 0.33781 0.41858 0.98656 0.0
C770 C 0.31293 0.36361 0.76701 0.0
C771 C 0.37524 0.36342 0.88752 0.0
H772 H 0.23171 0.20529 0.75479 0.0
H773 H 0.17738 0.17952 0.88024 0.0
H774 H 0.25242 0.23694 0.87163 0.0
H775 H 0.2091 0.20967 0.91556 0.0
H776 H 0.42569 0.38886 0.90486 0.0
H777 H 0.36345 0.44722 0.01655 0.0
H778 H 0.31774 0.38997 0.94945 0.0
H779 H 0.31313 0.42712 1.00899 0.0
Eu780 Eu 0.79983 0.30811 0.75894 0.0
C781 C 0.85272 0.40764 0.8461 0.0
C782 C 0.90924 0.40188 0.79949 0.0
C783 C 0.87805 0.45754 0.83852 0.0
C784 C 0.88212 0.38683 0.81832 0.0
C785 C 0.85074 0.44305 0.85667 0.0
C786 C 0.90707 0.43714 0.80984 0.0
C787 C 0.7955 0.44702 0.90409 0.0
N788 N 0.82606 0.39355 0.86266 0.0
C789 C 0.79866 0.41184 0.89298 0.0
C790 C 0.82149 0.46287 0.88556 0.0
Eu791 Eu 0.83728 0.33124 0.84754 0.0
N792 N 0.8837 0.35266 0.80857 0.0
C793 C 0.91135 0.33276 0.77958 0.0
C794 C 0.93766 0.3813 0.77031 0.0
C795 C 0.93858 0.34673 0.76015 0.0
H796 H 0.7793 0.39901 0.90913 0.0
H797 H 0.96021 0.33086 0.73709 0.0
H798 H 0.92769 0.44899 0.79567 0.0
H799 H 0.77337 0.46156 0.92753 0.0
H800 H 0.91254 0.30651 0.77007 0.0
H801 H 0.71548 0.22903 0.84481 0.0
H802 H 0.95881 0.39206 0.75504 0.0
H803 H 0.85923 0.2903 0.66759 0.0
H804 H 0.73639 0.28326 0.82761 0.0
H805 H 0.88649 0.24014 0.61766 0.0
H806 H 0.87688 0.48466 0.84629 0.0
H807 H 0.74435 0.17336 0.80271 0.0
H808 H 0.78915 0.14246 0.74083 0.0
H809 H 0.81911 0.49007 0.89444 0.0
H810 H 0.83515 0.1457 0.67883 0.0
N811 N 0.77771 0.25784 0.77759 0.0
C812 C 0.74934 0.25901 0.80921 0.0
C813 C 0.75375 0.19701 0.79515 0.0
C814 C 0.78141 0.19694 0.76108 0.0
C815 C 0.73735 0.22839 0.81896 0.0
C816 C 0.79281 0.22834 0.75273 0.0
H817 H 0.87102 0.18223 0.63223 0.0
N818 N 0.82894 0.26092 0.71037 0.0
C819 C 0.86775 0.23682 0.64592 0.0
C820 C 0.81894 0.23004 0.71795 0.0
C821 C 0.85229 0.26517 0.67434 0.0
C822 C 0.85892 0.20419 0.65424 0.0
C823 C 0.83409 0.20056 0.69042 0.0
O824 O 0.78094 0.34639 0.70181 0.0
O825 O 0.81794 0.35033 0.78208 0.0
O826 O 0.78072 0.37462 0.84014 0.0
O827 O 0.75494 0.34023 0.80969 0.0
O828 O 0.83304 0.34068 0.71693 0.0
O829 O 0.74518 0.32056 0.74112 0.0
O830 O 0.82982 0.32551 0.91852 0.0
O831 O 0.81712 0.29044 0.82582 0.0
O832 O 0.85641 0.26337 0.76246 0.0
O833 O 0.87911 0.27635 0.82095 0.0
O834 O 0.80392 0.29875 0.8905 0.0
O835 O 0.88384 0.3158 0.88446 0.0
C836 C 0.83412 0.36017 0.7467 0.0
C837 C 0.73952 0.33415 0.66456 0.0
C838 C 0.69309 0.33854 0.6186 0.0
C839 C 0.70267 0.34352 0.65864 0.0
C840 C 0.72118 0.32362 0.58529 0.0
C841 C 0.76642 0.3195 0.63019 0.0
C842 C 0.7573 0.31424 0.59112 0.0
C843 C 0.75216 0.3701 0.82876 0.0
C844 C 0.75011 0.34122 0.7053 0.0
C845 C 0.82357 0.16877 0.69939 0.0
C846 C 0.79738 0.16692 0.73471 0.0
C847 C 0.80223 0.27901 0.86127 0.0
C848 C 0.86908 0.34466 0.95226 0.0
C849 C 0.90412 0.34302 0.95803 0.0
C850 C 0.9088 0.36466 0.98856 0.0
C851 C 0.87762 0.38844 1.01208 0.0
C852 C 0.839 0.36816 0.97756 0.0
C853 C 0.84326 0.39021 1.00643 0.0
C854 C 0.88184 0.25547 0.7888 0.0
C855 C 0.86336 0.3208 0.92205 0.0
H856 H 0.68167 0.35509 0.6848 0.0
H857 H 0.7154 0.31821 0.55477 0.0
H858 H 0.79469 0.31242 0.63321 0.0
H859 H 0.77844 0.30267 0.56513 0.0
H860 H 0.92752 0.3246 0.93924 0.0
H861 H 0.87956 0.4047 0.03651 0.0
H862 H 0.81184 0.36949 0.97547 0.0
H863 H 0.8197 0.40816 0.02546 0.0
Eu864 Eu 0.76958 0.80731 0.86779 0.0
C865 C 0.80491 0.85083 0.66864 0.0
C866 C 0.85454 0.79604 0.64344 0.0
C867 C 0.81659 0.84015 0.59186 0.0
C868 C 0.8338 0.81822 0.67742 0.0
C869 C 0.79626 0.86236 0.62565 0.0
C870 C 0.84561 0.80703 0.60076 0.0
C871 C 0.75109 0.91947 0.65158 0.0
N872 N 0.78704 0.87282 0.70152 0.0
C873 C 0.76114 0.90726 0.6935 0.0
C874 C 0.76855 0.8968 0.61754 0.0
Eu875 Eu 0.80786 0.852 0.77032 0.0
N876 N 0.84311 0.80952 0.71852 0.0
C877 C 0.87364 0.77992 0.72745 0.0
C878 C 0.88465 0.76437 0.65299 0.0
C879 C 0.89437 0.75643 0.69514 0.0
H880 H 0.74797 0.92506 0.71969 0.0
H881 H 0.91804 0.73247 0.70268 0.0
H882 H 0.86177 0.79069 0.57424 0.0
H883 H 0.73014 0.94649 0.64549 0.0
H884 H 0.88181 0.77383 0.75971 0.0
H885 H 0.6615 0.93113 0.9301 0.0
H886 H 0.90112 0.7465 0.62782 0.0
H887 H 0.82724 0.73516 0.9236 0.0
H888 H 0.69404 0.88403 0.87733 0.0
H889 H 0.84938 0.72059 0.99593 0.0
H890 H 0.81076 0.84902 0.55856 0.0
H891 H 0.68422 0.92534 1.00071 0.0
H892 H 0.72933 0.88819 0.05251 0.0
H893 H 0.76111 0.90657 0.58493 0.0
H894 H 0.7807 0.83106 0.07029 0.0
N895 N 0.73501 0.85228 0.9174 0.0
C896 C 0.70402 0.88105 0.90818 0.0
C897 C 0.69853 0.90452 0.97775 0.0
C898 C 0.72923 0.8738 0.98793 0.0
C899 C 0.68557 0.90783 0.93796 0.0
C900 C 0.74692 0.84759 0.95681 0.0
H901 H 0.82486 0.76787 0.04996 0.0
N902 N 0.79119 0.79015 0.93673 0.0
C903 C 0.82887 0.74749 0.98804 0.0
C904 C 0.77592 0.81557 0.96679 0.0
C905 C 0.81624 0.75571 0.94729 0.0
C906 C 0.81502 0.7743 0.01842 0.0
C907 C 0.78782 0.80861 1.00825 0.0
O908 O 0.76387 0.75218 0.88487 0.0
O909 O 0.79322 0.80136 0.79791 0.0
O910 O 0.75677 0.84745 0.75222 0.0
O911 O 0.7263 0.8385 0.82124 0.0
O912 O 0.81136 0.75426 0.84067 0.0
O913 O 0.71605 0.80256 0.88425 0.0
O914 O 0.81493 0.90662 0.75456 0.0
O915 O 0.78376 0.8577 0.83947 0.0
O916 O 0.82157 0.81052 0.88445 0.0
O917 O 0.85163 0.81812 0.81512 0.0
O918 O 0.76631 0.90529 0.79811 0.0
O919 O 0.86198 0.85573 0.75905 0.0
C920 C 0.81296 0.76687 0.8 0.0
C921 C 0.71234 0.75045 0.93326 0.0
C922 C 0.679 0.70976 0.9698 0.0
C923 C 0.69421 0.72556 0.93127 0.0
C924 C 0.6826 0.71931 1.01024 0.0
C925 C 0.71495 0.75993 0.97388 0.0
C926 C 0.70028 0.74432 1.01211 0.0
C927 C 0.72742 0.84536 0.77797 0.0
C928 C 0.72868 0.76601 0.89282 0.0
C929 C 0.77152 0.83557 0.03853 0.0
C930 C 0.74226 0.8681 0.0284 0.0
C931 C 0.76459 0.89231 0.83861 0.0
C932 C 0.86974 0.90746 0.71218 0.0
C933 C 0.89621 0.92177 0.71835 0.0
C934 C 0.9152 0.93639 0.68235 0.0
C935 C 0.90709 0.93648 0.64018 0.0
C936 C 0.8622 0.90798 0.66982 0.0
C937 C 0.88081 0.92236 0.63408 0.0
C938 C 0.85088 0.81179 0.85829 0.0
C939 C 0.85022 0.89225 0.75018 0.0
H940 H 0.69161 0.71901 0.89967 0.0
H941 H 0.67201 0.70725 0.04057 0.0
H942 H 0.72829 0.77934 0.97614 0.0
H943 H 0.70271 0.75163 0.04329 0.0
H944 H 0.90223 0.92114 0.75108 0.0
H945 H 0.92067 0.94803 0.61185 0.0
H946 H 0.84185 0.89753 0.66428 0.0
H947 H 0.8747 0.92277 0.6015 0.0
C948 C 0.1028 0.18329 0.47322 0.0
C949 C 0.11772 0.14928 0.45332 0.0
H950 H 0.11108 0.23137 0.49014 0.0
C951 C 0.15357 0.13922 0.43241 0.0
H952 H 0.07506 0.19289 0.48842 0.0
C953 C 0.17423 0.16199 0.43285 0.0
C954 C 0.15948 0.19505 0.45448 0.0
H955 H 0.16597 0.11331 0.41674 0.0
H956 H 0.20205 0.1531 0.41765 0.0
C957 C 0.1234 0.20568 0.47395 0.0
C958 C 0.93589 0.14224 0.32399 0.0
C959 C 0.96505 0.14081 0.34483 0.0
H960 H 0.88299 0.17463 0.30611 0.0
C961 C 0.96219 0.17314 0.36375 0.0
H962 H 0.9369 0.11793 0.30922 0.0
C963 C 0.93086 0.20556 0.36262 0.0
C964 C 0.90155 0.20685 0.34213 0.0
H965 H 0.98382 0.17314 0.38046 0.0
H966 H 0.9298 0.22973 0.37758 0.0
C967 C 0.90477 0.1748 0.32239 0.0
C968 C 0.9348 0.99692 0.45521 0.0
C969 C 0.97149 0.98016 0.44019 0.0
H970 H 0.8816 0.99558 0.46021 0.0
C971 C 0.983 0.94732 0.41867 0.0
H972 H 0.9254 0.02276 0.47104 0.0
C973 C 0.95813 0.93065 0.4137 0.0
C974 C 0.92115 0.94717 0.42925 0.0
H975 H 1.01132 0.93417 0.40675 0.0
H976 H 0.96808 0.90448 0.39854 0.0
C977 C 0.90985 0.98104 0.44921 0.0
C978 C 0.18357 0.97394 0.35683 0.0
C979 C 0.15206 0.96466 0.36524 0.0
H980 H 0.24154 0.95387 0.34249 0.0
C981 C 0.15545 0.92701 0.36304 0.0
H982 H 0.18198 1.00247 0.35914 0.0
C983 C 0.18938 0.89926 0.35297 0.0
C984 C 0.22113 0.90808 0.34627 0.0
H985 H 0.13172 0.91885 0.3699 0.0
H986 H 0.19084 0.87061 0.35172 0.0
C987 C 0.21775 0.94589 0.34796 0.0
C988 C 0.19138 0.94622 0.75531 0.0
C989 C 0.16253 0.96272 0.78722 0.0
H990 H 0.24289 0.90375 0.74031 0.0
C991 C 0.16607 0.94848 0.83116 0.0
H992 H 0.1903 0.95618 0.72111 0.0
C993 C 0.19728 0.91787 0.8423 0.0
C994 C 0.2253 0.9009 0.80967 0.0
H995 H 0.14461 0.96046 0.85667 0.0
H996 H 0.19878 0.90649 0.87606 0.0
C997 C 0.22196 0.91598 0.76628 0.0
C998 C 0.16795 0.11649 0.79078 0.0
C999 C 0.1497 0.134 0.75428 0.0
H1000 H 0.19851 0.12073 0.83854 0.0
C1001 C 0.15015 0.1698 0.73663 0.0
H1002 H 0.16902 0.08855 0.80457 0.0
C1003 C 0.16751 0.18808 0.75597 0.0
C1004 C 0.18447 0.17099 0.79344 0.0
H1005 H 0.13617 0.18418 0.70879 0.0
H1006 H 0.16688 0.21598 0.74233 0.0
C1007 C 0.18488 0.13488 0.81031 0.0
C1008 C 0.94453 0.16209 0.74679 0.0
C1009 C 0.97097 0.14836 0.77553 0.0
H1010 H 0.89687 0.20548 0.72817 0.0
C1011 C 0.96767 0.16987 0.80993 0.0
H1012 H 0.94602 0.1464 0.71991 0.0
C1013 C 0.93907 0.20487 0.81435 0.0
C1014 C 0.91312 0.21891 0.78461 0.0
H1015 H 0.9878 0.1604 0.83234 0.0
H1016 H 0.93747 0.22097 0.84085 0.0
C1017 C 0.91621 0.19648 0.75133 0.0
C1018 C 0.9628 0.99147 0.72545 0.0
C1019 C 0.99461 0.98505 0.69571 0.0
H1020 H 0.91277 0.98146 0.74449 0.0
C1021 C 1.00063 0.96119 0.66282 0.0
H1022 H 0.95699 0.00995 0.75092 0.0
C1023 C 0.97527 0.9449 0.65915 0.0
C1024 C 0.94313 0.95195 0.68826 0.0
H1025 H 0.02506 0.95488 0.63988 0.0
H1026 H 0.98091 0.92666 0.63342 0.0
C1027 C 0.9374 0.97509 0.7218 0.0
C1028 C 0.3399 0.1893 0.24816 0.0
C1029 C 0.31526 0.20261 0.21723 0.0
H1030 H 0.36149 0.20302 0.29941 0.0
C1031 C 0.29731 0.24172 0.21005 0.0
H1032 H 0.35404 0.15933 0.25444 0.0
C1033 C 0.30206 0.26674 0.23503 0.0
C1034 C 0.32435 0.25332 0.26857 0.0
H1035 H 0.27849 0.25284 0.18604 0.0
H1036 H 0.28658 0.29635 0.22957 0.0
C1037 C 0.34413 0.21435 0.27385 0.0
C1038 C 0.93644 0.33681 0.19852 0.0
C1039 C 0.96543 0.31164 0.22039 0.0
H1040 H 0.87875 0.36044 0.19645 0.0
C1041 C 0.95609 0.29226 0.26008 0.0
H1042 H 0.94192 0.35219 0.16785 0.0
C1043 C 0.91962 0.29723 0.27662 0.0
C1044 C 0.89067 0.32182 0.25441 0.0
H1045 H 0.97705 0.273 0.27864 0.0
H1046 H 0.9143 0.28124 0.3067 0.0
C1047 C 0.89993 0.34152 0.21501 0.0
C1048 C 0.83836 0.93198 0.1632 0.0
C1049 C 0.81879 0.93532 0.12867 0.0
H1050 H 0.8511 0.90653 0.22653 0.0
C1051 C 0.79467 0.91547 0.13355 0.0
H1052 H 0.85669 0.94734 0.16065 0.0
C1053 C 0.7916 0.89136 0.17152 0.0
C1054 C 0.81207 0.88724 0.20569 0.0
H1055 H 0.77914 0.91768 0.10741 0.0
H1056 H 0.7738 0.87546 0.17372 0.0
C1057 C 0.8347 0.90879 0.20129 0.0
C1058 C 0.12324 0.89013 0.05393 0.0
C1059 C 0.09602 0.88017 0.08172 0.0
H1060 H 0.17785 0.88918 0.04534 0.0
C1061 C 0.10156 0.86682 0.12532 0.0
H1062 H 0.11999 0.90005 0.02008 0.0
C1063 C 0.1347 0.86059 0.13986 0.0
C1064 C 0.16308 0.8672 0.11085 0.0
H1065 H 0.08099 0.8589 0.14733 0.0
H1066 H 0.13902 0.84787 0.17274 0.0
C1067 C 0.1565 0.88354 0.0683 0.0
C1068 C 0.26359 1.00609 0.02794 0.0
C1069 C 0.25649 0.01387 0.07177 0.0
H1070 H 0.28188 0.96353 0.98338 0.0
C1071 C 0.25674 0.98451 0.1046 0.0
H1072 H 0.2641 0.02811 1.00205 0.0
C1073 C 0.2669 0.94755 0.09407 0.0
C1074 C 0.27727 0.93916 0.05041 0.0
H1075 H 0.25128 0.98993 0.13862 0.0
H1076 H 0.2682 0.92533 0.12026 0.0
C1077 C 0.27399 0.96902 0.01733 0.0
C1078 C 0.18033 0.32546 0.95206 0.0
C1079 C 0.19378 0.29859 0.98691 0.0
H1080 H 0.1916 0.35025 0.88708 0.0
C1081 C 0.23089 0.27632 0.98134 0.0
H1082 H 0.152 0.34295 0.95448 0.0
C1083 C 0.25359 0.2809 0.94286 0.0
C1084 C 0.2403 0.3078 0.90815 0.0
H1085 H 0.24279 0.25558 1.0071 0.0
H1086 H 0.28177 0.26337 0.94055 0.0
C1087 C 0.20309 0.32959 0.91318 0.0
C1088 C 0.78789 0.19266 0.92835 0.0
C1089 C 0.8105 0.16277 0.90364 0.0
H1090 H 0.76753 0.25233 0.93417 0.0
C1091 C 0.82877 0.1719 0.86346 0.0
H1092 H 0.77361 0.18705 0.95966 0.0
C1093 C 0.82521 0.20944 0.84895 0.0
C1094 C 0.8031 0.23929 0.87383 0.0
H1095 H 0.84597 0.15002 0.84303 0.0
H1096 H 0.84013 0.21472 0.81826 0.0
C1097 C 0.78444 0.23026 0.91375 0.0
C1098 C 0.94703 0.80385 0.87032 0.0
C1099 C 0.94654 0.80235 0.91588 0.0
H1100 H 0.9183 0.80747 0.81682 0.0
C1101 C 0.91384 0.80441 0.94241 0.0
H1102 H 0.97122 0.8032 0.84843 0.0
C1103 C 0.88302 0.80708 0.92392 0.0
C1104 C 0.88392 0.80775 0.87836 0.0
H1105 H 0.91219 0.80329 0.9775 0.0
H1106 H 0.85839 0.8089 0.94546 0.0
C1107 C 0.9164 0.80644 0.85195 0.0
C1108 C 0.15194 0.34008 0.25189 0.0
C1109 C 0.15106 0.35084 0.20686 0.0
H1110 H 0.17797 0.3337 0.30855 0.0
C1111 C 0.17739 0.36585 0.18495 0.0
H1112 H 0.13268 0.32778 0.26989 0.0
C1113 C 0.20447 0.36847 0.20724 0.0
C1114 C 0.20587 0.35661 0.25225 0.0
H1115 H 0.17843 0.37342 0.15009 0.0
H1116 H 0.22509 0.37846 0.18871 0.0
C1117 C 0.17838 0.34328 0.27415 0.0
C1118 C 0.15894 0.80888 0.91146 0.0
C1119 C 0.15136 0.78581 0.94917 0.0
H1120 H 0.19828 0.82444 0.86416 0.0
C1121 C 0.18191 0.75793 0.9657 0.0
H1122 H 0.13697 0.8309 0.89688 0.0
C1123 C 0.21791 0.75402 0.94587 0.0
C1124 C 0.22514 0.77755 0.9085 0.0
H1125 H 0.17813 0.7395 0.99441 0.0
H1126 H 0.24036 0.73261 0.96031 0.0
C1127 C 0.19464 0.80506 0.89194 0.0
C1128 C 0.37101 0.17363 0.9968 0.0
C1129 C 0.34497 0.15604 1.00532 0.0
H1130 H 0.39331 0.21065 0.95299 0.0
C1131 C 0.32282 0.16076 0.9728 0.0
H1132 H 0.38786 0.17143 0.02154 0.0
C1133 C 0.32547 0.18373 0.93374 0.0
C1134 C 0.34988 0.20347 0.92625 0.0
H1135 H 0.30179 0.1485 0.97878 0.0
H1136 H 0.30651 0.18808 0.91081 0.0
C1137 C 0.37366 0.19671 0.95766 0.0
C1138 C 0.98346 0.38412 0.03349 0.0
C1139 C 1.01026 0.34817 0.03594 0.0
H1140 H 0.93135 0.41821 0.0147 0.0
C1141 C 1.00527 0.31925 0.01728 0.0
H1142 H 0.98639 0.40714 0.04707 0.0
C1143 C 0.97345 0.32515 0.99976 0.0
C1144 C 0.94546 0.36039 0.99969 0.0
H1145 H 0.02538 0.29113 0.01796 0.0
H1146 H 0.97015 0.30129 0.98859 0.0
C1147 C 0.95164 0.39022 0.01526 0.0
C1148 C 0.74381 0.98057 0.89731 0.0
C1149 C 0.76935 0.96742 0.92723 0.0
H1150 H 0.72225 0.96694 0.84571 0.0
C1151 C 0.78981 0.92864 0.93117 0.0
H1152 H 0.72797 0.0103 0.89297 0.0
C1153 C 0.7866 0.90404 0.90441 0.0
C1154 C 0.76269 0.91717 0.87267 0.0
H1155 H 0.80979 0.91743 0.95383 0.0
H1156 H 0.80436 0.87504 0.90734 0.0
C1157 C 0.74074 0.95571 0.87008 0.0
C1158 C 0.9282 0.81477 0.15017 0.0
C1159 C 0.96415 0.78933 0.14149 0.0
H1160 H 0.87891 0.83218 0.19361 0.0
C1161 C 0.97597 0.75961 0.17448 0.0
H1162 H 0.91713 0.83829 0.12661 0.0
C1163 C 0.95293 0.75629 0.21421 0.0
C1164 C 0.91691 0.78201 0.22228 0.0
H1165 H 1.00322 0.73937 0.17012 0.0
H1166 H 0.96347 0.73362 0.23889 0.0
C1167 C 0.90553 0.81125 0.18922 0.0
C1168 C 0.35884 0.95778 0.18392 0.0
C1169 C 0.33648 0.98864 0.20731 0.0
H1170 H 0.37624 0.89788 0.17899 0.0
C1171 C 0.31548 0.98073 0.24609 0.0
H1172 H 0.37507 0.96237 0.15371 0.0
C1173 C 0.31575 0.94398 0.26012 0.0
C1174 C 0.3377 0.91321 0.23673 0.0
H1175 H 0.29758 1.00332 0.26521 0.0
H1176 H 0.29775 0.93992 0.28875 0.0
C1177 C 0.35935 0.9207 0.19837 0.0
C1178 C 0.73721 0.15128 0.09082 0.0
C1179 C 0.77097 0.1221 0.08767 0.0
H1180 H 0.70616 0.20603 0.11181 0.0
C1181 C 0.79877 0.12508 0.10771 0.0
H1182 H 0.71513 0.14986 0.07614 0.0
C1183 C 0.79415 0.15748 0.127 0.0
C1184 C 0.76131 0.18803 0.12759 0.0
H1185 H 0.82513 0.10298 0.10661 0.0
H1186 H 0.81729 0.15923 0.13897 0.0
C1187 C 0.73235 0.18374 0.11088 0.0
C1188 C 0.61087 0.65927 0.998 0.0
C1189 C 0.62225 0.6334 0.96633 0.0
H1190 H 0.61883 0.70419 0.02314 0.0
C1191 C 0.65225 0.63301 0.93538 0.0
H1192 H 0.58751 0.66075 0.02185 0.0
C1193 C 0.67067 0.65767 0.9364 0.0
C1194 C 0.6593 0.68361 0.96814 0.0
H1195 H 0.66192 0.6131 0.91089 0.0
H1196 H 0.69422 0.65588 0.91274 0.0
C1197 C 0.62898 0.68417 0.99876 0.0
C1198 C 0.43744 0.62431 0.82952 0.0
C1199 C 0.46582 0.62481 0.85058 0.0
H1200 H 0.38403 0.65444 0.81121 0.0
C1201 C 0.46121 0.65797 0.86888 0.0
H1202 H 0.43987 0.59938 0.81498 0.0
C1203 C 0.42912 0.68923 0.86705 0.0
C1204 C 0.40042 0.68856 0.847 0.0
H1205 H 0.48234 0.65979 0.88508 0.0
H1206 H 0.42723 0.71433 0.88057 0.0
C1207 C 0.40528 0.65587 0.8275 0.0
C1208 C 0.4459 0.48748 0.96669 0.0
C1209 C 0.48221 0.46353 0.96471 0.0
H1210 H 0.39084 0.49219 0.96737 0.0
C1211 C 0.49073 0.42472 0.96284 0.0
H1212 H 0.43869 0.51745 0.96828 0.0
C1213 C 0.46346 0.41029 0.96186 0.0
C1214 C 0.42718 0.43435 0.96347 0.0
H1215 H 0.51857 0.40573 0.96076 0.0
H1216 H 0.4707 0.38037 0.95979 0.0
C1217 C 0.41861 0.473 0.9664 0.0
C1218 C 0.6503 0.42324 0.83494 0.0
C1219 C 0.6467 0.45894 0.846 0.0
H1220 H 0.68576 0.36753 0.82128 0.0
C1221 C 0.67833 0.46528 0.85078 0.0
H1222 H 0.62668 0.41712 0.83105 0.0
C1223 C 0.71241 0.43651 0.84551 0.0
C1224 C 0.71587 0.40057 0.83534 0.0
H1225 H 0.67675 0.49226 0.85944 0.0
H1226 H 0.73606 0.44264 0.84917 0.0
C1227 C 0.68432 0.39458 0.82957 0.0
C1228 C 0.71508 0.48688 0.28217 0.0
C1229 C 0.67888 0.48985 0.28216 0.0
H1230 H 0.76966 0.45057 0.29061 0.0
C1231 C 0.67028 0.45691 0.29241 0.0
H1232 H 0.72271 0.51167 0.27411 0.0
C1233 C 0.69742 0.42177 0.30048 0.0
C1234 C 0.73377 0.41867 0.29957 0.0
H1235 H 0.64289 0.45799 0.29211 0.0
H1236 H 0.68989 0.39689 0.30711 0.0
C1237 C 0.74207 0.45185 0.29145 0.0
C1238 C 0.64107 0.69239 0.21415 0.0
C1239 C 0.64547 0.67292 0.17758 0.0
H1240 H 0.65489 0.73241 0.24205 0.0
C1241 C 0.66787 0.67987 0.14001 0.0
H1242 H 0.62358 0.68829 0.24335 0.0
C1243 C 0.68572 0.70533 0.13925 0.0
C1244 C 0.68159 0.7244 0.176 0.0
H1245 H 0.67234 0.66493 0.11155 0.0
H1246 H 0.70357 0.7093 0.11034 0.0
C1247 C 0.65894 0.71778 0.21338 0.0
C1248 C 0.48237 0.68736 0.29839 0.0
C1249 C 0.48125 0.66307 0.26927 0.0
H1250 H 0.45442 0.73912 0.32886 0.0
C1251 C 0.44912 0.67192 0.25088 0.0
H1252 H 0.50686 0.68162 0.31278 0.0
C1253 C 0.41938 0.70435 0.26012 0.0
C1254 C 0.42053 0.72986 0.28749 0.0
H1255 H 0.44708 0.65387 0.2285 0.0
H1256 H 0.3955 0.70937 0.24522 0.0
C1257 C 0.45237 0.72052 0.30724 0.0
C1258 C 0.47155 0.50804 0.22074 0.0
C1259 C 0.5061 0.49439 0.19657 0.0
H1260 H 0.4186 0.50386 0.23711 0.0
C1261 C 0.51375 0.46371 0.17197 0.0
H1262 H 0.4644 0.53159 0.23998 0.0
C1263 C 0.48742 0.4483 0.17001 0.0
C1264 C 0.45273 0.46261 0.19303 0.0
H1265 H 0.54008 0.45144 0.15383 0.0
H1266 H 0.49418 0.42515 0.15012 0.0
C1267 C 0.44522 0.49216 0.21916 0.0
C1268 C 0.80317 0.7191 0.70454 0.0
C1269 C 0.83146 0.68396 0.70834 0.0
H1270 H 0.77567 0.77366 0.72926 0.0
C1271 C 0.85388 0.67775 0.74103 0.0
H1272 H 0.78572 0.72519 0.67936 0.0
C1273 C 0.84801 0.70507 0.76955 0.0
C1274 C 0.82018 0.74028 0.76579 0.0
H1275 H 0.87606 0.65125 0.74495 0.0
H1276 H 0.86549 0.69859 0.79479 0.0
C1277 C 0.79778 0.7471 0.73273 0.0
C1278 C 0.45985 0.77359 0.75693 0.0
C1279 C 0.46674 0.79679 0.71902 0.0
H1280 H 0.42058 0.75929 0.80622 0.0
C1281 C 0.43585 0.82549 0.70417 0.0
H1282 H 0.48226 0.75132 0.77036 0.0
C1283 C 0.40015 0.82977 0.72488 0.0
C1284 C 0.39313 0.80623 0.76218 0.0
H1285 H 0.43905 0.84405 0.67538 0.0
H1286 H 0.37762 0.85145 0.71087 0.0
C1287 C 0.42404 0.77835 0.77809 0.0
C1288 C 0.29237 0.42786 0.65991 0.0
C1289 C 0.32008 0.44342 0.65239 0.0
H1290 H 0.26792 0.39129 0.70149 0.0
C1291 C 0.34357 0.43426 0.68462 0.0
H1292 H 0.27375 0.43399 0.63609 0.0
C1293 C 0.34004 0.41 0.72234 0.0
C1294 C 0.31322 0.39333 0.72922 0.0
H1295 H 0.36497 0.44583 0.68068 0.0
H1296 H 0.35933 0.40328 0.74549 0.0
C1297 C 0.28918 0.40306 0.69749 0.0
C1298 C 0.6101 0.35837 0.56024 0.0
C1299 C 0.5876 0.34494 0.59252 0.0
H1300 H 0.66049 0.36789 0.54327 0.0
C1301 C 0.59747 0.33562 0.63521 0.0
H1302 H 0.60357 0.36578 0.52707 0.0
C1303 C 0.6304 0.33619 0.64449 0.0
C1304 C 0.6546 0.34616 0.61135 0.0
H1305 H 0.58077 0.32534 0.66114 0.0
H1306 H 0.63793 0.32617 0.67698 0.0
C1307 C 0.64311 0.35901 0.56955 0.0
C1308 C 0.78628 0.51787 0.58186 0.0
C1309 C 0.8046 0.53798 0.55205 0.0
H1310 H 0.77004 0.46938 0.59481 0.0
C1311 C 0.81578 0.52709 0.50923 0.0
H1312 H 0.77777 0.5251 0.6152 0.0
C1313 C 0.81169 0.495 0.49752 0.0
C1314 C 0.79661 0.47263 0.52849 0.0
H1315 H 0.83016 0.5419 0.48549 0.0
H1316 H 0.82303 0.48609 0.46523 0.0
C1317 C 0.78238 0.48554 0.57022 0.0
C1318 C 0.72624 0.77515 0.47388 0.0
C1319 C 0.69264 0.80385 0.46761 0.0
H1320 H 0.78149 0.7459 0.44648 0.0
C1321 C 0.69052 0.82416 0.42558 0.0
H1322 H 0.72969 0.75875 0.50517 0.0
C1323 C 0.72043 0.8174 0.39231 0.0
C1324 C 0.75447 0.79028 0.39921 0.0
H1325 H 0.66536 0.84599 0.41826 0.0
H1326 H 0.71687 0.8337 0.36093 0.0
C1327 C 0.75631 0.76822 0.44015 0.0
C1328 C 0.3386 0.67382 0.37023 0.0
C1329 C 0.31891 0.66781 0.41099 0.0
H1330 H 0.35507 0.7126 0.32254 0.0
C1331 C 0.29705 0.70028 0.43212 0.0
H1332 H 0.35537 0.6502 0.35205 0.0
C1333 C 0.29659 0.73676 0.41435 0.0
C1334 C 0.31724 0.7425 0.37431 0.0
H1335 H 0.28161 0.69742 0.46354 0.0
H1336 H 0.2813 0.76048 0.43315 0.0
C1337 C 0.33805 0.71019 0.35263 0.0
C1338 C 0.43693 0.33738 0.41126 0.0
C1339 C 0.44382 0.31009 0.44749 0.0
H1340 H 0.40521 0.36238 0.35759 0.0
C1341 C 0.42201 0.28737 0.45672 0.0
H1342 H 0.45313 0.35523 0.4025 0.0
C1343 C 0.3947 0.29145 0.43124 0.0
C1344 C 0.38793 0.31812 0.39468 0.0
H1345 H 0.42611 0.26591 0.48405 0.0
H1346 H 0.37917 0.27299 0.44003 0.0
C1347 C 0.40963 0.34111 0.38508 0.0
C1348 C 0.64139 0.83033 0.76052 0.0
C1349 C 0.63966 0.84056 0.71552 0.0
H1350 H 0.66929 0.82466 0.8155 0.0
C1351 C 0.6655 0.85531 0.69187 0.0
H1352 H 0.62211 0.81869 0.77983 0.0
C1353 C 0.69328 0.85794 0.71224 0.0
C1354 C 0.69556 0.84683 0.75712 0.0
H1355 H 0.66543 0.86298 0.65709 0.0
H1356 H 0.71357 0.86767 0.69238 0.0
C1357 C 0.66859 0.8338 0.78107 0.0
C1358 C 0.69343 0.2636 0.45339 0.0
C1359 C 0.66303 0.28368 0.43157 0.0
H1360 H 0.75022 0.25095 0.45542 0.0
C1361 C 0.66736 0.30849 0.3947 0.0
H1362 H 0.69109 0.24434 0.48182 0.0
C1363 C 0.70104 0.31313 0.38021 0.0
C1364 C 0.73197 0.29163 0.40066 0.0
H1365 H 0.64444 0.32466 0.37734 0.0
H1366 H 0.70287 0.33343 0.35278 0.0
C1367 C 0.72736 0.26734 0.43803 0.0
C1368 C 0.91258 0.67116 0.45488 0.0
C1369 C 0.88717 0.65401 0.47324 0.0
H1370 H 0.92729 0.70819 0.40284 0.0
C1371 C 0.85906 0.65764 0.44936 0.0
H1372 H 0.93455 0.66883 0.47243 0.0
C1373 C 0.85516 0.67969 0.40936 0.0
C1374 C 0.87902 0.69908 0.39246 0.0
H1375 H 0.83944 0.64419 0.46219 0.0
H1376 H 0.83196 0.68353 0.39326 0.0
C1377 C 0.90844 0.69362 0.415 0.0
C1378 C 0.46462 0.88144 0.57361 0.0
C1379 C 0.4965 0.86341 0.54682 0.0
H1380 H 0.40702 0.89603 0.58598 0.0
C1381 C 0.49383 0.85009 0.50844 0.0
H1382 H 0.46585 0.89182 0.60353 0.0
C1383 C 0.46062 0.85128 0.49906 0.0
C1384 C 0.42874 0.86656 0.52738 0.0
H1385 H 0.51796 0.83605 0.48708 0.0
H1386 H 0.46069 0.83772 0.47099 0.0
C1387 C 0.43098 0.88312 0.56388 0.0
C1388 C 0.25508 0.48615 0.40652 0.0
C1389 C 0.27809 0.46989 0.43904 0.0
H1390 H 0.23517 0.47694 0.35077 0.0
C1391 C 0.29489 0.43049 0.44358 0.0
H1392 H 0.24186 0.51643 0.40207 0.0
C1393 C 0.2909 0.40809 0.41472 0.0
C1394 C 0.27004 0.42424 0.38021 0.0
H1395 H 0.3125 0.41692 0.46857 0.0
H1396 H 0.30577 0.37824 0.41839 0.0
C1397 C 0.25134 0.46352 0.37713 0.0
C1398 C 0.47028 0.24872 0.71408 0.0
C1399 C 0.45971 0.27149 0.67534 0.0
H1400 H 0.45599 0.23543 0.78257 0.0
C1401 C 0.42495 0.29944 0.67782 0.0
H1402 H 0.49694 0.22734 0.71406 0.0
C1403 C 0.40129 0.30365 0.71721 0.0
C1404 C 0.41155 0.28027 0.75557 0.0
H1405 H 0.41559 0.31752 0.649 0.0
H1406 H 0.37474 0.32502 0.71731 0.0
C1407 C 0.4468 0.25343 0.7536 0.0
C1408 C 0.82766 0.46188 0.7474 0.0
C1409 C 0.85416 0.46508 0.71281 0.0
H1410 H 0.79934 0.42691 0.78396 0.0
C1411 C 0.87317 0.43398 0.68874 0.0
H1412 H 0.81204 0.48574 0.76582 0.0
C1413 C 0.86679 0.39988 0.70011 0.0
C1414 C 0.84106 0.39629 0.73558 0.0
H1415 H 0.89338 0.43594 0.66163 0.0
H1416 H 0.88227 0.37613 0.68143 0.0
C1417 C 0.82061 0.42813 0.75799 0.0
C1418 C 0.27368 0.62491 0.63737 0.0
C1419 C 0.25514 0.6257 0.6028 0.0
H1420 H 0.28863 0.65581 0.67622 0.0
C1421 C 0.22826 0.65931 0.58981 0.0
H1422 H 0.29409 0.59902 0.64863 0.0
C1423 C 0.2238 0.69275 0.60715 0.0
C1424 C 0.24708 0.6931 0.63645 0.0
H1425 H 0.2132 0.6605 0.56356 0.0
H1426 H 0.20396 0.71853 0.59492 0.0
C1427 C 0.27018 0.6581 0.65356 0.0
loop_
_geom_bond_atom_site_label_1
_geom_bond_atom_site_label_2
_geom_bond_distance
_geom_bond_site_symmetry_2
_ccdc_geom_bond_type
Cu0 N1 1.999 . S
Cu0 O6 1.974 . S
Cu0 N11 1.985 . S
Cu0 O20 1.959 1_455 S
N1 Cu0 1.999 . S
N1 C3 1.263 . S
N1 C5 1.389 . S
N2 C3 1.358 . S
N2 C4 1.400 . S
C3 N1 1.263 . S
C3 N2 1.358 . S
C3 H9 0.930 . S
C4 N2 1.400 . S
C4 C5 1.351 . S
C4 H21 0.930 . S
C5 N1 1.389 . S
C5 C4 1.351 . S
C5 H10 0.930 . S
O6 Cu0 1.974 . S
O6 C16 1.282 1_545 S
C7 O8 1.247 1_655 S
C7 O20 1.251 . S
O8 C7 1.247 1_455 S
H9 C3 0.930 . S
H10 C5 0.930 . S
N11 Cu0 1.985 . S
N11 C13 1.335 1_455 S
N11 C14 1.390 1_545 S
N12 C13 1.345 1_565 S
N12 C15 1.336 1_655 S
C13 N11 1.335 1_655 S
C13 N12 1.345 1_545 S
C13 H18 0.930 . S
C14 N11 1.390 1_565 S
C14 C15 1.346 . S
C14 H19 0.930 . S
C15 N12 1.336 1_455 S
C15 C14 1.346 . S
C15 H22 0.929 . S
C16 O6 1.282 1_565 S
C16 O17 1.216 1_565 S
O17 C16 1.216 1_545 S
H18 C13 0.930 . S
H19 C14 0.930 . S
O20 Cu0 1.959 1_655 S
O20 C7 1.251 . S
H21 C4 0.930 . S
H22 C15 0.929 . S
Cu23 N24 1.999 . S
Cu23 O29 1.974 1_455 S
Cu23 N34 1.985 . S
Cu23 O43 1.959 . S
N24 Cu23 1.999 . S
N24 C26 1.263 1_455 S
N24 C28 1.389 1_545 S
N25 C26 1.358 . S
N25 C27 1.400 1_545 S
C26 N24 1.263 1_655 S
C26 N25 1.358 . S
C26 H32 0.930 . S
C27 N25 1.400 1_565 S
C27 C28 1.351 1_655 S
C27 H44 0.930 . S
C28 N24 1.389 1_565 S
C28 C27 1.351 1_455 S
C28 H33 0.930 . S
O29 Cu23 1.974 1_655 S
O29 C39 1.282 . S
C30 O31 1.261 . S
C30 O43 1.251 . S
O31 C30 1.261 . S
H32 C26 0.930 . S
H33 C28 0.930 . S
N34 Cu23 1.985 . S
N34 C36 1.335 . S
N34 C37 1.390 . S
N35 C36 1.345 . S
N35 C38 1.336 . S
C36 N34 1.335 . S
C36 N35 1.345 . S
C36 H41 0.930 . S
C37 N34 1.390 . S
C37 C38 1.346 . S
C37 H42 0.930 . S
C38 N35 1.336 . S
C38 C37 1.346 . S
C38 H45 0.929 . S
C39 O29 1.282 . S
C39 O40 1.216 . S
O40 C39 1.216 . S
H41 C36 0.930 . S
H42 C37 0.930 . S
O43 Cu23 1.959 . S
O43 C30 1.251 . S
H44 C27 0.930 . S
H45 C38 0.929 . S
Cu46 N47 1.999 . S
Cu46 O52 1.974 . S
Cu46 N57 1.985 . S
Cu46 O66 1.959 . S
N47 Cu46 1.999 . S
N47 C49 1.263 . S
N47 C51 1.389 . S
N48 C49 1.358 . S
N48 C50 1.400 . S
C49 N47 1.263 . S
C49 N48 1.358 . S
C49 H55 0.930 . S
C50 N48 1.400 . S
C50 C51 1.351 . S
C50 H67 0.930 1_554 S
C51 N47 1.389 . S
C51 C50 1.351 . S
C51 H56 0.930 . S
O52 Cu46 1.974 . S
O52 C62 1.282 . S
C53 O54 1.261 . S
C53 O66 1.251 . S
O54 C53 1.261 . S
H55 C49 0.930 . S
H56 C51 0.930 . S
N57 Cu46 1.985 . S
N57 C59 1.335 . S
N57 C60 1.390 . S
N58 C59 1.345 . S
N58 C61 1.336 . S
C59 N57 1.335 . S
C59 N58 1.345 . S
C59 H64 0.930 . S
C60 N57 1.390 . S
C60 C61 1.346 . S
C60 H65 0.930 . S
C61 N58 1.336 . S
C61 C60 1.346 . S
C61 H68 0.929 . S
C62 O52 1.282 . S
C62 O63 1.216 . S
O63 C62 1.216 . S
H64 C59 0.930 . S
H65 C60 0.930 . S
O66 Cu46 1.959 . S
O66 C53 1.251 . S
H67 C50 0.930 1_556 S
H68 C61 0.929 . S
Cu69 N70 1.999 . S
Cu69 O75 1.974 . S
Cu69 N80 1.985 . S
Cu69 O89 1.959 . S
N70 Cu69 1.999 . S
N70 C72 1.263 . S
N70 C74 1.389 . S
N71 C72 1.358 . S
N71 C73 1.400 1_554 S
C72 N70 1.263 . S
C72 N71 1.358 . S
C72 H78 0.930 . S
C73 N71 1.400 1_556 S
C73 C74 1.351 1_556 S
C73 H90 0.930 . S
C74 N70 1.389 . S
C74 C73 1.351 1_554 S
C74 H79 0.930 1_554 S
O75 Cu69 1.974 . S
O75 C85 1.282 . S
C76 O77 1.261 . S
C76 O89 1.251 . S
O77 C76 1.261 . S
H78 C72 0.930 . S
H79 C74 0.930 1_556 S
N80 Cu69 1.985 . S
N80 C82 1.335 . S
N80 C83 1.390 . S
N81 C82 1.345 1_655 S
N81 C84 1.336 1_655 S
C82 N80 1.335 . S
C82 N81 1.345 1_455 S
C82 H87 0.930 1_455 S
C83 N80 1.390 . S
C83 C84 1.346 . S
C83 H88 0.930 . S
C84 N81 1.336 1_455 S
C84 C83 1.346 . S
C84 H91 0.929 . S
C85 O75 1.282 . S
C85 O86 1.216 . S
O86 C85 1.216 . S
H87 C82 0.930 1_655 S
H88 C83 0.930 . S
O89 Cu69 1.959 . S
O89 C76 1.251 . S
H90 C73 0.930 . S
H91 C84 0.929 . S
Cu92 N93 1.999 1_554 S
Cu92 O98 1.974 . S
Cu92 N103 1.985 1_545 S
Cu92 O112 1.959 1_544 S
N93 Cu92 1.999 1_556 S
N93 C95 1.263 . S
N93 C97 1.389 . S
N94 C95 1.358 . S
N94 C96 1.400 . S
C95 N93 1.263 . S
C95 N94 1.358 . S
C95 H101 0.930 . S
C96 N94 1.400 . S
C96 C97 1.351 . S
C96 H113 0.930 . S
C97 N93 1.389 . S
C97 C96 1.351 . S
C97 H102 0.930 . S
O98 Cu92 1.974 . S
O98 C108 1.282 . S
C99 O100 1.261 . S
C99 O112 1.251 . S
O100 C99 1.261 . S
H101 C95 0.930 . S
H102 C97 0.930 . S
N103 Cu92 1.985 1_565 S
N103 C105 1.335 . S
N103 C106 1.390 . S
N104 C105 1.345 . S
N104 C107 1.336 . S
C105 N103 1.335 . S
C105 N104 1.345 . S
C105 H110 0.930 . S
C106 N103 1.390 . S
C106 C107 1.346 . S
C106 H111 0.930 . S
C107 N104 1.336 . S
C107 C106 1.346 . S
C107 H114 0.929 . S
C108 O98 1.282 . S
C108 O109 1.216 . S
O109 C108 1.216 . S
H110 C105 0.930 . S
H111 C106 0.930 . S
O112 Cu92 1.959 1_566 S
O112 C99 1.251 . S
H113 C96 0.930 . S
H114 C107 0.929 . S
Cu115 N116 1.999 1_454 S
Cu115 O121 1.974 1_455 S
Cu115 N126 1.985 . S
Cu115 O135 1.959 1_554 S
N116 Cu115 1.999 1_656 S
N116 C118 1.263 . S
N116 C120 1.389 . S
N117 C118 1.358 . S
N117 C119 1.400 . S
C118 N116 1.263 . S
C118 N117 1.358 . S
C118 H124 0.930 . S
C119 N117 1.400 . S
C119 C120 1.351 . S
C119 H136 0.930 . S
C120 N116 1.389 . S
C120 C119 1.351 . S
C120 H125 0.930 1_655 S
O121 Cu115 1.974 1_655 S
O121 C131 1.282 . S
C122 O123 1.261 . S
C122 O135 1.251 . S
O123 C122 1.261 . S
H124 C118 0.930 . S
H125 C120 0.930 1_455 S
N126 Cu115 1.985 . S
N126 C128 1.335 . S
N126 C129 1.390 . S
N127 C128 1.345 . S
N127 C130 1.336 . S
C128 N126 1.335 . S
C128 N127 1.345 . S
C128 H133 0.930 . S
C129 N126 1.390 . S
C129 C130 1.346 . S
C129 H134 0.930 1_455 S
C130 N127 1.336 . S
C130 C129 1.346 . S
C130 H137 0.929 . S
C131 O121 1.282 . S
C131 O132 1.216 . S
O132 C131 1.216 . S
H133 C128 0.930 . S
H134 C129 0.930 1_655 S
O135 Cu115 1.959 1_556 S
O135 C122 1.251 . S
H136 C119 0.930 . S
H137 C130 0.929 . S
Cu138 N139 1.999 . S
Cu138 O144 1.974 . S
Cu138 N149 1.985 . S
Cu138 O158 1.959 . S
N139 Cu138 1.999 . S
N139 C141 1.263 . S
N139 C143 1.389 . S
N140 C141 1.358 . S
N140 C142 1.400 . S
C141 N139 1.263 . S
C141 N140 1.358 . S
C141 H147 0.930 . S
C142 N140 1.400 . S
C142 C143 1.351 . S
C142 H159 0.930 . S
C143 N139 1.389 . S
C143 C142 1.351 . S
C143 H148 0.930 . S
O144 Cu138 1.974 . S
O144 C154 1.282 . S
C145 O146 1.261 . S
C145 O158 1.251 . S
O146 C145 1.261 . S
H147 C141 0.930 . S
H148 C143 0.930 . S
N149 Cu138 1.985 . S
N149 C151 1.335 . S
N149 C152 1.390 . S
N150 C151 1.345 . S
N150 C153 1.336 . S
C151 N149 1.335 . S
C151 N150 1.345 . S
C151 H156 0.930 . S
C152 N149 1.390 . S
C152 C153 1.346 . S
C152 H157 0.930 . S
C153 N150 1.336 . S
C153 C152 1.346 . S
C153 H160 0.929 . S
C154 O144 1.282 . S
C154 O155 1.216 . S
O155 C154 1.216 . S
H156 C151 0.930 . S
H157 C152 0.930 . S
O158 Cu138 1.959 . S
O158 C145 1.251 . S
H159 C142 0.930 . S
H160 C153 0.929 . S
Cu161 N162 1.999 . S
Cu161 O167 1.974 . S
Cu161 N172 1.985 . S
Cu161 O181 1.959 . S
N162 Cu161 1.999 . S
N162 C164 1.263 . S
N162 C166 1.389 . S
N163 C164 1.358 . S
N163 C165 1.400 . S
C164 N162 1.263 . S
C164 N163 1.358 . S
C164 H170 0.930 . S
C165 N163 1.400 . S
C165 C166 1.351 . S
C165 H182 0.930 . S
C166 N162 1.389 . S
C166 C165 1.351 . S
C166 H171 0.930 . S
O167 Cu161 1.974 . S
O167 C177 1.282 . S
C168 O169 1.261 . S
C168 O181 1.251 . S
O169 C168 1.261 . S
H170 C164 0.930 . S
H171 C166 0.930 . S
N172 Cu161 1.985 . S
N172 C174 1.335 . S
N172 C175 1.390 . S
N173 C174 1.345 . S
N173 C176 1.336 . S
C174 N172 1.335 . S
C174 N173 1.345 . S
C174 H179 0.930 . S
C175 N172 1.390 . S
C175 C176 1.346 . S
C175 H180 0.930 . S
C176 N173 1.336 . S
C176 C175 1.346 . S
C176 H183 0.929 . S
C177 O167 1.282 . S
C177 O178 1.216 . S
O178 C177 1.216 . S
H179 C174 0.930 . S
H180 C175 0.930 . S
O181 Cu161 1.959 . S
O181 C168 1.251 . S
H182 C165 0.930 . S
H183 C176 0.929 . S
Cu184 N185 1.999 . S
Cu184 O190 1.974 . S
Cu184 N195 1.985 . S
Cu184 O204 1.959 . S
N185 Cu184 1.999 . S
N185 C187 1.263 . S
N185 C189 1.389 . S
N186 C187 1.358 . S
N186 C188 1.400 . S
C187 N185 1.263 . S
C187 N186 1.358 . S
C187 H193 0.930 . S
C188 N186 1.400 . S
C188 C189 1.351 . S
C188 H205 0.930 . S
C189 N185 1.389 . S
C189 C188 1.351 . S
C189 H194 0.930 . S
O190 Cu184 1.974 . S
O190 C200 1.282 . S
C191 O192 1.261 . S
C191 O204 1.251 . S
O192 C191 1.261 . S
H193 C187 0.930 . S
H194 C189 0.930 . S
N195 Cu184 1.985 . S
N195 C197 1.335 . S
N195 C198 1.390 . S
N196 C197 1.345 . S
N196 C199 1.336 . S
C197 N195 1.335 . S
C197 N196 1.345 . S
C197 H202 0.930 . S
C198 N195 1.390 . S
C198 C199 1.346 . S
C198 H203 0.930 . S
C199 N196 1.336 . S
C199 C198 1.346 . S
C199 H206 0.929 . S
C200 O190 1.282 . S
C200 O201 1.216 . S
O201 C200 1.216 . S
H202 C197 0.930 . S
H203 C198 0.930 . S
O204 Cu184 1.959 . S
O204 C191 1.251 . S
H205 C188 0.930 . S
H206 C199 0.929 . S
Cu207 N208 1.999 . S
Cu207 O213 1.974 . S
Cu207 N218 1.985 . S
Cu207 O227 1.959 . S
N208 Cu207 1.999 . S
N208 C210 1.263 . S
N208 C212 1.389 . S
N209 C210 1.358 . S
N209 C211 1.400 . S
C210 N208 1.263 . S
C210 N209 1.358 . S
C210 H216 0.930 . S
C211 N209 1.400 . S
C211 C212 1.351 . S
C211 H228 0.930 . S
C212 N208 1.389 . S
C212 C211 1.351 . S
C212 H217 0.930 . S
O213 Cu207 1.974 . S
O213 C223 1.282 . S
C214 O215 1.261 . S
C214 O227 1.251 . S
O215 C214 1.261 . S
H216 C210 0.930 . S
H217 C212 0.930 . S
N218 Cu207 1.985 . S
N218 C220 1.335 . S
N218 C221 1.390 . S
N219 C220 1.345 . S
N219 C222 1.336 . S
C220 N218 1.335 . S
C220 N219 1.345 . S
C220 H225 0.930 . S
C221 N218 1.390 . S
C221 C222 1.346 . S
C221 H226 0.930 . S
C222 N219 1.336 . S
C222 C221 1.346 . S
C222 H229 0.929 . S
C223 O213 1.282 . S
C223 O224 1.216 . S
O224 C223 1.216 . S
H225 C220 0.930 . S
H226 C221 0.930 . S
O227 Cu207 1.959 . S
O227 C214 1.251 . S
H228 C211 0.930 . S
H229 C222 0.929 . S
Cu230 N231 1.999 . S
Cu230 O236 1.974 . S
Cu230 N241 1.985 . S
Cu230 O250 1.959 . S
N231 Cu230 1.999 . S
N231 C233 1.263 . S
N231 C235 1.389 . S
N232 C233 1.358 . S
N232 C234 1.400 . S
C233 N231 1.263 . S
C233 N232 1.358 . S
C233 H239 0.930 . S
C234 N232 1.400 . S
C234 C235 1.351 . S
C234 H251 0.930 . S
C235 N231 1.389 . S
C235 C234 1.351 . S
C235 H240 0.930 . S
O236 Cu230 1.974 . S
O236 C246 1.282 . S
C237 O238 1.261 . S
C237 O250 1.251 . S
O238 C237 1.261 . S
H239 C233 0.930 . S
H240 C235 0.930 . S
N241 Cu230 1.985 . S
N241 C243 1.335 . S
N241 C244 1.390 . S
N242 C243 1.345 . S
N242 C245 1.336 . S
C243 N241 1.335 . S
C243 N242 1.345 . S
C243 H248 0.930 . S
C244 N241 1.390 . S
C244 C245 1.346 . S
C244 H249 0.930 . S
C245 N242 1.336 . S
C245 C244 1.346 . S
C245 H252 0.929 . S
C246 O236 1.282 . S
C246 O247 1.216 . S
O247 C246 1.216 . S
H248 C243 0.930 . S
H249 C244 0.930 . S
O250 Cu230 1.959 . S
O250 C237 1.251 . S
H251 C234 0.930 . S
H252 C245 0.929 . S
Cu253 N254 1.999 . S
Cu253 O259 1.974 . S
Cu253 N264 1.985 . S
Cu253 O273 1.959 . S
N254 Cu253 1.999 . S
N254 C256 1.263 . S
N254 C258 1.389 . S
N255 C256 1.358 . S
N255 C257 1.400 . S
C256 N254 1.263 . S
C256 N255 1.358 . S
C256 H262 0.930 . S
C257 N255 1.400 . S
C257 C258 1.351 . S
C257 H274 0.930 . S
C258 N254 1.389 . S
C258 C257 1.351 . S
C258 H263 0.930 . S
O259 Cu253 1.974 . S
O259 C269 1.282 . S
C260 O261 1.261 . S
C260 O273 1.251 . S
O261 C260 1.261 . S
H262 C256 0.930 . S
H263 C258 0.930 . S
N264 Cu253 1.985 . S
N264 C266 1.335 . S
N264 C267 1.390 . S
N265 C266 1.345 . S
N265 C268 1.336 . S
C266 N264 1.335 . S
C266 N265 1.345 . S
C266 H271 0.930 . S
C267 N264 1.390 . S
C267 C268 1.346 . S
C267 H272 0.930 . S
C268 N265 1.336 . S
C268 C267 1.346 . S
C268 H275 0.929 . S
C269 O259 1.282 . S
C269 O270 1.216 . S
O270 C269 1.216 . S
H271 C266 0.930 . S
H272 C267 0.930 . S
O273 Cu253 1.959 . S
O273 C260 1.251 . S
H274 C257 0.930 . S
H275 C268 0.929 . S
Eu276 N307 2.657 . S
Eu276 N314 2.609 . S
Eu276 O320 2.558 . S
Eu276 O321 2.612 . S
Eu276 O323 2.339 . S
Eu276 O324 2.563 . S
Eu276 O325 2.419 . S
Eu276 O327 2.380 . S
Eu276 O328 2.432 . S
Eu276 C340 2.848 . S
C277 C280 1.429 . S
C277 C281 1.411 . S
C277 N284 1.377 . S
C278 C280 1.420 . S
C278 C282 1.423 . S
C278 C290 1.392 . S
C279 C281 1.420 . S
C279 C282 1.351 . S
C279 H302 0.931 . S
C280 C277 1.429 . S
C280 C278 1.420 . S
C280 N288 1.362 . S
C281 C277 1.411 . S
C281 C279 1.420 . S
C281 C286 1.395 . S
C282 C278 1.423 . S
C282 C279 1.351 . S
C282 H294 0.930 . S
C283 C285 1.400 . S
C283 C286 1.386 . S
C283 H295 0.930 . S
N284 C277 1.377 . S
N284 C285 1.321 . S
N284 Eu287 2.609 . S
C285 C283 1.400 . S
C285 N284 1.321 . S
C285 H292 0.930 . S
C286 C281 1.395 . S
C286 C283 1.386 . S
C286 H305 0.930 . S
Eu287 N284 2.609 . S
Eu287 N288 2.657 . S
Eu287 O321 2.380 . S
Eu287 O322 2.432 . S
Eu287 O326 2.558 . S
Eu287 O327 2.612 . S
Eu287 O329 2.339 . S
Eu287 O330 2.563 . S
Eu287 O331 2.419 . S
Eu287 C351 2.848 . S
N288 C280 1.362 . S
N288 Eu287 2.657 . S
N288 C289 1.334 . S
C289 N288 1.334 . S
C289 C291 1.413 . S
C289 H296 0.929 . S
C290 C278 1.392 . S
C290 C291 1.367 . S
C290 H298 0.930 . S
C291 C289 1.413 . S
C291 C290 1.367 . S
C291 H293 0.930 . S
H292 C285 0.930 . S
H293 C291 0.930 . S
H294 C282 0.930 . S
H295 C283 0.930 . S
H296 C289 0.929 . S
H297 C311 0.930 . S
H298 C290 0.930 . S
H299 C317 0.930 . S
H300 C308 0.929 . S
H301 C315 0.930 . S
H302 C279 0.931 . S
H303 C309 0.930 . S
H304 C342 0.930 . S
H305 C286 0.930 . S
H306 C341 0.931 . S
N307 Eu276 2.657 . S
N307 C308 1.334 . S
N307 C312 1.362 . S
C308 H300 0.929 . S
C308 N307 1.334 . S
C308 C311 1.413 . S
C309 H303 0.930 . S
C309 C310 1.392 . S
C309 C311 1.367 . S
C310 C309 1.392 . S
C310 C312 1.420 . S
C310 C342 1.423 . S
C311 H297 0.930 . S
C311 C308 1.413 . S
C311 C309 1.367 . S
C312 N307 1.362 . S
C312 C310 1.420 . S
C312 C316 1.429 . S
H313 C318 0.930 . S
N314 Eu276 2.609 . S
N314 C316 1.377 . S
N314 C317 1.321 . S
C315 H301 0.930 . S
C315 C317 1.400 . S
C315 C318 1.386 . S
C316 C312 1.429 . S
C316 N314 1.377 . S
C316 C319 1.411 . S
C317 H299 0.930 . S
C317 N314 1.321 . S
C317 C315 1.400 . S
C318 H313 0.930 . S
C318 C315 1.386 . S
C318 C319 1.395 . S
C319 C316 1.411 . S
C319 C318 1.395 . S
C319 C341 1.420 . S
O320 Eu276 2.558 . S
O320 C340 1.257 . S
O321 Eu276 2.612 . S
O321 Eu287 2.380 . S
O321 C332 1.276 . S
O322 Eu287 2.432 . S
O322 C339 1.264 . S
O323 Eu276 2.339 . S
O323 C339 1.254 . S
O324 Eu276 2.563 . S
O324 C332 1.235 . S
O325 Eu276 2.419 . S
O325 C340 1.249 . S
O326 Eu287 2.558 . S
O326 C351 1.257 . S
O327 Eu276 2.380 . S
O327 Eu287 2.612 . S
O327 C343 1.276 . S
O328 Eu276 2.432 . S
O328 C350 1.264 . S
O329 Eu287 2.339 . S
O329 C350 1.254 . S
O330 Eu287 2.563 . S
O330 C343 1.235 . S
O331 Eu287 2.419 . S
O331 C351 1.249 . S
C332 O321 1.276 . S
C332 O324 1.235 . S
C333 C335 1.393 . S
C333 C337 1.395 . S
C333 C340 1.492 . S
C334 C335 1.392 . S
C334 C336 1.386 . S
C335 C333 1.393 . S
C335 C334 1.392 . S
C335 H352 0.930 . S
C336 C334 1.386 . S
C336 C338 1.395 . S
C336 H353 0.930 . S
C337 C333 1.395 . S
C337 C338 1.379 . S
C337 H354 0.930 . S
C338 C336 1.395 . S
C338 C337 1.379 . S
C338 H355 0.930 . S
C339 O322 1.264 . S
C339 O323 1.254 . S
C340 Eu276 2.848 . S
C340 O320 1.257 . S
C340 O325 1.249 . S
C340 C333 1.492 . S
C341 H306 0.931 . S
C341 C319 1.420 . S
C341 C342 1.351 . S
C342 H304 0.930 . S
C342 C310 1.423 . S
C342 C341 1.351 . S
C343 O327 1.276 . S
C343 O330 1.235 . S
C344 C345 1.393 . S
C344 C348 1.395 . S
C344 C351 1.492 . S
C345 C344 1.393 . S
C345 C346 1.392 . S
C345 H356 0.930 . S
C346 C345 1.392 . S
C346 C347 1.386 . S
C347 C346 1.386 . S
C347 C349 1.395 . S
C347 H357 0.930 . S
C348 C344 1.395 . S
C348 C349 1.379 . S
C348 H358 0.930 . S
C349 C347 1.395 . S
C349 C348 1.379 . S
C349 H359 0.930 . S
C350 O328 1.264 . S
C350 O329 1.254 . S
C351 Eu287 2.848 . S
C351 O326 1.257 . S
C351 O331 1.249 . S
C351 C344 1.492 . S
H352 C335 0.930 . S
H353 C336 0.930 . S
H354 C337 0.930 . S
H355 C338 0.930 . S
H356 C345 0.930 . S
H357 C347 0.930 . S
H358 C348 0.930 . S
H359 C349 0.930 . S
Eu360 N391 2.657 . S
Eu360 N398 2.609 . S
Eu360 O404 2.558 . S
Eu360 O405 2.612 . S
Eu360 O407 2.339 . S
Eu360 O408 2.563 . S
Eu360 O409 2.419 . S
Eu360 O411 2.380 . S
Eu360 O412 2.432 . S
Eu360 C424 2.848 . S
C361 C364 1.429 . S
C361 C365 1.411 . S
C361 N368 1.377 . S
C362 C364 1.420 . S
C362 C366 1.423 . S
C362 C374 1.392 . S
C363 C365 1.420 . S
C363 C366 1.351 . S
C363 H386 0.931 . S
C364 C361 1.429 . S
C364 C362 1.420 . S
C364 N372 1.362 . S
C365 C361 1.411 . S
C365 C363 1.420 . S
C365 C370 1.395 . S
C366 C362 1.423 . S
C366 C363 1.351 . S
C366 H378 0.930 . S
C367 C369 1.400 . S
C367 C370 1.386 . S
C367 H379 0.930 . S
N368 C361 1.377 . S
N368 C369 1.321 . S
N368 Eu371 2.609 . S
C369 C367 1.400 . S
C369 N368 1.321 . S
C369 H376 0.930 . S
C370 C365 1.395 . S
C370 C367 1.386 . S
C370 H389 0.930 . S
Eu371 N368 2.609 . S
Eu371 N372 2.657 . S
Eu371 O405 2.380 . S
Eu371 O406 2.432 . S
Eu371 O410 2.558 . S
Eu371 O411 2.612 . S
Eu371 O413 2.339 . S
Eu371 O414 2.563 . S
Eu371 O415 2.419 . S
Eu371 C435 2.848 . S
N372 C364 1.362 . S
N372 Eu371 2.657 . S
N372 C373 1.334 . S
C373 N372 1.334 . S
C373 C375 1.413 . S
C373 H380 0.929 . S
C374 C362 1.392 . S
C374 C375 1.367 . S
C374 H382 0.930 . S
C375 C373 1.413 . S
C375 C374 1.367 . S
C375 H377 0.930 . S
H376 C369 0.930 . S
H377 C375 0.930 . S
H378 C366 0.930 . S
H379 C367 0.930 . S
H380 C373 0.929 . S
H381 C395 0.930 . S
H382 C374 0.930 . S
H383 C401 0.930 . S
H384 C392 0.929 . S
H385 C399 0.930 . S
H386 C363 0.931 . S
H387 C393 0.930 . S
H388 C426 0.930 . S
H389 C370 0.930 . S
H390 C425 0.931 . S
N391 Eu360 2.657 . S
N391 C392 1.334 . S
N391 C396 1.362 . S
C392 H384 0.929 . S
C392 N391 1.334 . S
C392 C395 1.413 . S
C393 H387 0.930 . S
C393 C394 1.392 . S
C393 C395 1.367 . S
C394 C393 1.392 . S
C394 C396 1.420 . S
C394 C426 1.423 . S
C395 H381 0.930 . S
C395 C392 1.413 . S
C395 C393 1.367 . S
C396 N391 1.362 . S
C396 C394 1.420 . S
C396 C400 1.429 . S
H397 C402 0.930 . S
N398 Eu360 2.609 . S
N398 C400 1.377 . S
N398 C401 1.321 . S
C399 H385 0.930 . S
C399 C401 1.400 . S
C399 C402 1.386 . S
C400 C396 1.429 . S
C400 N398 1.377 . S
C400 C403 1.411 . S
C401 H383 0.930 . S
C401 N398 1.321 . S
C401 C399 1.400 . S
C402 H397 0.930 . S
C402 C399 1.386 . S
C402 C403 1.395 . S
C403 C400 1.411 . S
C403 C402 1.395 . S
C403 C425 1.420 . S
O404 Eu360 2.558 . S
O404 C424 1.257 . S
O405 Eu360 2.612 . S
O405 Eu371 2.380 . S
O405 C416 1.276 . S
O406 Eu371 2.432 . S
O406 C423 1.264 . S
O407 Eu360 2.339 . S
O407 C423 1.254 . S
O408 Eu360 2.563 . S
O408 C416 1.235 . S
O409 Eu360 2.419 . S
O409 C424 1.249 . S
O410 Eu371 2.558 . S
O410 C435 1.257 . S
O411 Eu360 2.380 . S
O411 Eu371 2.612 . S
O411 C427 1.276 . S
O412 Eu360 2.432 . S
O412 C434 1.264 . S
O413 Eu371 2.339 . S
O413 C434 1.254 . S
O414 Eu371 2.563 . S
O414 C427 1.235 . S
O415 Eu371 2.419 . S
O415 C435 1.249 . S
C416 O405 1.276 . S
C416 O408 1.235 . S
C417 C419 1.393 . S
C417 C421 1.395 . S
C417 C424 1.492 . S
C418 C419 1.392 . S
C418 C420 1.386 . S
C419 C417 1.393 . S
C419 C418 1.392 . S
C419 H436 0.930 . S
C420 C418 1.386 . S
C420 C422 1.395 . S
C420 H437 0.930 . S
C421 C417 1.395 . S
C421 C422 1.379 . S
C421 H438 0.930 . S
C422 C420 1.395 . S
C422 C421 1.379 . S
C422 H439 0.930 . S
C423 O406 1.264 . S
C423 O407 1.254 . S
C424 Eu360 2.848 . S
C424 O404 1.257 . S
C424 O409 1.249 . S
C424 C417 1.492 . S
C425 H390 0.931 . S
C425 C403 1.420 . S
C425 C426 1.351 . S
C426 H388 0.930 . S
C426 C394 1.423 . S
C426 C425 1.351 . S
C427 O411 1.276 . S
C427 O414 1.235 . S
C428 C429 1.393 . S
C428 C432 1.395 . S
C428 C435 1.492 . S
C429 C428 1.393 . S
C429 C430 1.392 . S
C429 H440 0.930 . S
C430 C429 1.392 . S
C430 C431 1.386 . S
C431 C430 1.386 . S
C431 C433 1.395 . S
C431 H441 0.930 . S
C432 C428 1.395 . S
C432 C433 1.379 . S
C432 H442 0.930 . S
C433 C431 1.395 . S
C433 C432 1.379 . S
C433 H443 0.930 . S
C434 O412 1.264 . S
C434 O413 1.254 . S
C435 Eu371 2.848 . S
C435 O410 1.257 . S
C435 O415 1.249 . S
C435 C428 1.492 . S
H436 C419 0.930 . S
H437 C420 0.930 . S
H438 C421 0.930 . S
H439 C422 0.930 . S
H440 C429 0.930 . S
H441 C431 0.930 . S
H442 C432 0.930 . S
H443 C433 0.930 . S
Eu444 N475 2.657 . S
Eu444 N482 2.609 . S
Eu444 O488 2.558 . S
Eu444 O489 2.612 . S
Eu444 O491 2.339 . S
Eu444 O492 2.563 . S
Eu444 O493 2.419 . S
Eu444 O495 2.380 . S
Eu444 O496 2.432 . S
Eu444 C508 2.848 . S
C445 C448 1.429 . S
C445 C449 1.411 . S
C445 N452 1.377 . S
C446 C448 1.420 . S
C446 C450 1.423 . S
C446 C458 1.392 . S
C447 C449 1.420 . S
C447 C450 1.351 . S
C447 H470 0.931 . S
C448 C445 1.429 . S
C448 C446 1.420 . S
C448 N456 1.362 . S
C449 C445 1.411 . S
C449 C447 1.420 . S
C449 C454 1.395 . S
C450 C446 1.423 . S
C450 C447 1.351 . S
C450 H462 0.930 . S
C451 C453 1.400 . S
C451 C454 1.386 . S
C451 H463 0.930 . S
N452 C445 1.377 . S
N452 C453 1.321 . S
N452 Eu455 2.609 . S
C453 C451 1.400 . S
C453 N452 1.321 . S
C453 H460 0.930 . S
C454 C449 1.395 . S
C454 C451 1.386 . S
C454 H473 0.930 . S
Eu455 N452 2.609 . S
Eu455 N456 2.657 . S
Eu455 O489 2.380 . S
Eu455 O490 2.432 . S
Eu455 O494 2.558 . S
Eu455 O495 2.612 . S
Eu455 O497 2.339 . S
Eu455 O498 2.563 . S
Eu455 O499 2.419 . S
Eu455 C519 2.848 . S
N456 C448 1.362 . S
N456 Eu455 2.657 . S
N456 C457 1.334 . S
C457 N456 1.334 . S
C457 C459 1.413 . S
C457 H464 0.929 . S
C458 C446 1.392 . S
C458 C459 1.367 . S
C458 H466 0.930 . S
C459 C457 1.413 . S
C459 C458 1.367 . S
C459 H461 0.930 . S
H460 C453 0.930 . S
H461 C459 0.930 . S
H462 C450 0.930 . S
H463 C451 0.930 . S
H464 C457 0.929 . S
H465 C479 0.930 . S
H466 C458 0.930 . S
H467 C485 0.930 . S
H468 C476 0.929 . S
H469 C483 0.930 . S
H470 C447 0.931 . S
H471 C477 0.930 . S
H472 C510 0.930 . S
H473 C454 0.930 . S
H474 C509 0.931 . S
N475 Eu444 2.657 . S
N475 C476 1.334 . S
N475 C480 1.362 . S
C476 H468 0.929 . S
C476 N475 1.334 . S
C476 C479 1.413 . S
C477 H471 0.930 . S
C477 C478 1.392 . S
C477 C479 1.367 . S
C478 C477 1.392 . S
C478 C480 1.420 . S
C478 C510 1.423 . S
C479 H465 0.930 . S
C479 C476 1.413 . S
C479 C477 1.367 . S
C480 N475 1.362 . S
C480 C478 1.420 . S
C480 C484 1.429 . S
H481 C486 0.930 . S
N482 Eu444 2.609 . S
N482 C484 1.377 . S
N482 C485 1.321 . S
C483 H469 0.930 . S
C483 C485 1.400 . S
C483 C486 1.386 . S
C484 C480 1.429 . S
C484 N482 1.377 . S
C484 C487 1.411 . S
C485 H467 0.930 . S
C485 N482 1.321 . S
C485 C483 1.400 . S
C486 H481 0.930 . S
C486 C483 1.386 . S
C486 C487 1.395 . S
C487 C484 1.411 . S
C487 C486 1.395 . S
C487 C509 1.420 . S
O488 Eu444 2.558 . S
O488 C508 1.257 . S
O489 Eu444 2.612 . S
O489 Eu455 2.380 . S
O489 C500 1.276 . S
O490 Eu455 2.432 . S
O490 C507 1.264 . S
O491 Eu444 2.339 . S
O491 C507 1.254 . S
O492 Eu444 2.563 . S
O492 C500 1.235 . S
O493 Eu444 2.419 . S
O493 C508 1.249 . S
O494 Eu455 2.558 . S
O494 C519 1.257 . S
O495 Eu444 2.380 . S
O495 Eu455 2.612 . S
O495 C511 1.276 . S
O496 Eu444 2.432 . S
O496 C518 1.264 . S
O497 Eu455 2.339 . S
O497 C518 1.254 . S
O498 Eu455 2.563 . S
O498 C511 1.235 . S
O499 Eu455 2.419 . S
O499 C519 1.249 . S
C500 O489 1.276 . S
C500 O492 1.235 . S
C501 C503 1.393 . S
C501 C505 1.395 . S
C501 C508 1.492 . S
C502 C503 1.392 . S
C502 C504 1.386 . S
C503 C501 1.393 . S
C503 C502 1.392 . S
C503 H520 0.930 . S
C504 C502 1.386 . S
C504 C506 1.395 . S
C504 H521 0.930 . S
C505 C501 1.395 . S
C505 C506 1.379 . S
C505 H522 0.930 . S
C506 C504 1.395 . S
C506 C505 1.379 . S
C506 H523 0.930 . S
C507 O490 1.264 . S
C507 O491 1.254 . S
C508 Eu444 2.848 . S
C508 O488 1.257 . S
C508 O493 1.249 . S
C508 C501 1.492 . S
C509 H474 0.931 . S
C509 C487 1.420 . S
C509 C510 1.351 . S
C510 H472 0.930 . S
C510 C478 1.423 . S
C510 C509 1.351 . S
C511 O495 1.276 . S
C511 O498 1.235 . S
C512 C513 1.393 . S
C512 C516 1.395 . S
C512 C519 1.492 . S
C513 C512 1.393 . S
C513 C514 1.392 . S
C513 H524 0.930 . S
C514 C513 1.392 . S
C514 C515 1.386 . S
C515 C514 1.386 . S
C515 C517 1.395 . S
C515 H525 0.930 . S
C516 C512 1.395 . S
C516 C517 1.379 . S
C516 H526 0.930 . S
C517 C515 1.395 . S
C517 C516 1.379 . S
C517 H527 0.930 . S
C518 O496 1.264 . S
C518 O497 1.254 . S
C519 Eu455 2.848 . S
C519 O494 1.257 . S
C519 O499 1.249 . S
C519 C512 1.492 . S
H520 C503 0.930 . S
H521 C504 0.930 . S
H522 C505 0.930 . S
H523 C506 0.930 . S
H524 C513 0.930 . S
H525 C515 0.930 . S
H526 C516 0.930 . S
H527 C517 0.930 . S
Eu528 N559 2.657 . S
Eu528 N566 2.609 . S
Eu528 O572 2.558 . S
Eu528 O573 2.612 . S
Eu528 O575 2.339 . S
Eu528 O576 2.563 . S
Eu528 O577 2.419 . S
Eu528 O579 2.380 . S
Eu528 O580 2.432 . S
Eu528 C592 2.848 . S
C529 C532 1.429 . S
C529 C533 1.411 . S
C529 N536 1.377 . S
C530 C532 1.420 . S
C530 C534 1.423 . S
C530 C542 1.392 . S
C531 C533 1.420 . S
C531 C534 1.351 . S
C531 H554 0.931 1_565 S
C532 C529 1.429 . S
C532 C530 1.420 . S
C532 N540 1.362 . S
C533 C529 1.411 . S
C533 C531 1.420 . S
C533 C538 1.395 . S
C534 C530 1.423 . S
C534 C531 1.351 . S
C534 H546 0.930 . S
C535 C537 1.400 . S
C535 C538 1.386 . S
C535 H547 0.930 . S
N536 C529 1.377 . S
N536 C537 1.321 . S
N536 Eu539 2.609 . S
C537 C535 1.400 . S
C537 N536 1.321 . S
C537 H544 0.930 . S
C538 C533 1.395 . S
C538 C535 1.386 . S
C538 H557 0.930 . S
Eu539 N536 2.609 . S
Eu539 N540 2.657 . S
Eu539 O573 2.380 . S
Eu539 O574 2.432 . S
Eu539 O578 2.558 . S
Eu539 O579 2.612 . S
Eu539 O581 2.339 . S
Eu539 O582 2.563 . S
Eu539 O583 2.419 . S
Eu539 C603 2.848 . S
N540 C532 1.362 . S
N540 Eu539 2.657 . S
N540 C541 1.334 . S
C541 N540 1.334 . S
C541 C543 1.413 . S
C541 H548 0.929 . S
C542 C530 1.392 . S
C542 C543 1.367 . S
C542 H550 0.930 . S
C543 C541 1.413 . S
C543 C542 1.367 . S
C543 H545 0.930 . S
H544 C537 0.930 . S
H545 C543 0.930 . S
H546 C534 0.930 . S
H547 C535 0.930 . S
H548 C541 0.929 . S
H549 C563 0.930 . S
H550 C542 0.930 . S
H551 C569 0.930 . S
H552 C560 0.929 . S
H553 C567 0.930 . S
H554 C531 0.931 1_545 S
H555 C561 0.930 . S
H556 C594 0.930 . S
H557 C538 0.930 . S
H558 C593 0.931 . S
N559 Eu528 2.657 . S
N559 C560 1.334 . S
N559 C564 1.362 . S
C560 H552 0.929 . S
C560 N559 1.334 . S
C560 C563 1.413 . S
C561 H555 0.930 . S
C561 C562 1.392 . S
C561 C563 1.367 . S
C562 C561 1.392 . S
C562 C564 1.420 . S
C562 C594 1.423 . S
C563 H549 0.930 . S
C563 C560 1.413 . S
C563 C561 1.367 . S
C564 N559 1.362 . S
C564 C562 1.420 . S
C564 C568 1.429 . S
H565 C570 0.930 . S
N566 Eu528 2.609 . S
N566 C568 1.377 . S
N566 C569 1.321 . S
C567 H553 0.930 . S
C567 C569 1.400 . S
C567 C570 1.386 . S
C568 C564 1.429 . S
C568 N566 1.377 . S
C568 C571 1.411 . S
C569 H551 0.930 . S
C569 N566 1.321 . S
C569 C567 1.400 . S
C570 H565 0.930 . S
C570 C567 1.386 . S
C570 C571 1.395 . S
C571 C568 1.411 . S
C571 C570 1.395 . S
C571 C593 1.420 . S
O572 Eu528 2.558 . S
O572 C592 1.257 . S
O573 Eu528 2.612 . S
O573 Eu539 2.380 . S
O573 C584 1.276 . S
O574 Eu539 2.432 . S
O574 C591 1.264 . S
O575 Eu528 2.339 . S
O575 C591 1.254 . S
O576 Eu528 2.563 . S
O576 C584 1.235 . S
O577 Eu528 2.419 . S
O577 C592 1.249 . S
O578 Eu539 2.558 . S
O578 C603 1.257 . S
O579 Eu528 2.380 . S
O579 Eu539 2.612 . S
O579 C595 1.276 . S
O580 Eu528 2.432 . S
O580 C602 1.264 . S
O581 Eu539 2.339 . S
O581 C602 1.254 . S
O582 Eu539 2.563 . S
O582 C595 1.235 . S
O583 Eu539 2.419 . S
O583 C603 1.249 . S
C584 O573 1.276 . S
C584 O576 1.235 . S
C585 C587 1.393 . S
C585 C589 1.395 . S
C585 C592 1.492 . S
C586 C587 1.392 . S
C586 C588 1.386 . S
C587 C585 1.393 . S
C587 C586 1.392 . S
C587 H604 0.930 . S
C588 C586 1.386 . S
C588 C590 1.395 . S
C588 H605 0.930 . S
C589 C585 1.395 . S
C589 C590 1.379 . S
C589 H606 0.930 . S
C590 C588 1.395 . S
C590 C589 1.379 . S
C590 H607 0.930 . S
C591 O574 1.264 . S
C591 O575 1.254 . S
C592 Eu528 2.848 . S
C592 O572 1.257 . S
C592 O577 1.249 . S
C592 C585 1.492 . S
C593 H558 0.931 . S
C593 C571 1.420 . S
C593 C594 1.351 . S
C594 H556 0.930 . S
C594 C562 1.423 . S
C594 C593 1.351 . S
C595 O579 1.276 . S
C595 O582 1.235 . S
C596 C597 1.393 . S
C596 C600 1.395 . S
C596 C603 1.492 . S
C597 C596 1.393 . S
C597 C598 1.392 . S
C597 H608 0.930 . S
C598 C597 1.392 . S
C598 C599 1.386 . S
C599 C598 1.386 . S
C599 C601 1.395 . S
C599 H609 0.930 . S
C600 C596 1.395 . S
C600 C601 1.379 . S
C600 H610 0.930 . S
C601 C599 1.395 . S
C601 C600 1.379 . S
C601 H611 0.930 . S
C602 O580 1.264 . S
C602 O581 1.254 . S
C603 Eu539 2.848 . S
C603 O578 1.257 . S
C603 O583 1.249 . S
C603 C596 1.492 . S
H604 C587 0.930 . S
H605 C588 0.930 . S
H606 C589 0.930 . S
H607 C590 0.930 . S
H608 C597 0.930 . S
H609 C599 0.930 . S
H610 C600 0.930 . S
H611 C601 0.930 . S
Eu612 N643 2.657 . S
Eu612 N650 2.609 . S
Eu612 O656 2.558 . S
Eu612 O657 2.612 . S
Eu612 O659 2.339 . S
Eu612 O660 2.563 . S
Eu612 O661 2.419 . S
Eu612 O663 2.380 . S
Eu612 O664 2.432 . S
Eu612 C676 2.848 . S
C613 C616 1.429 . S
C613 C617 1.411 . S
C613 N620 1.377 . S
C614 C616 1.420 . S
C614 C618 1.423 . S
C614 C626 1.392 . S
C615 C617 1.420 . S
C615 C618 1.351 . S
C615 H638 0.931 . S
C616 C613 1.429 . S
C616 C614 1.420 . S
C616 N624 1.362 . S
C617 C613 1.411 . S
C617 C615 1.420 . S
C617 C622 1.395 . S
C618 C614 1.423 . S
C618 C615 1.351 . S
C618 H630 0.930 . S
C619 C621 1.400 . S
C619 C622 1.386 . S
C619 H631 0.930 . S
N620 C613 1.377 . S
N620 C621 1.321 . S
N620 Eu623 2.609 . S
C621 C619 1.400 . S
C621 N620 1.321 . S
C621 H628 0.930 . S
C622 C617 1.395 . S
C622 C619 1.386 . S
C622 H641 0.930 . S
Eu623 N620 2.609 . S
Eu623 N624 2.657 . S
Eu623 O657 2.380 . S
Eu623 O658 2.432 . S
Eu623 O662 2.558 . S
Eu623 O663 2.612 . S
Eu623 O665 2.339 . S
Eu623 O666 2.563 . S
Eu623 O667 2.419 . S
Eu623 C687 2.848 . S
N624 C616 1.362 . S
N624 Eu623 2.657 . S
N624 C625 1.334 . S
C625 N624 1.334 . S
C625 C627 1.413 . S
C625 H632 0.929 . S
C626 C614 1.392 . S
C626 C627 1.367 . S
C626 H634 0.930 . S
C627 C625 1.413 . S
C627 C626 1.367 . S
C627 H629 0.930 . S
H628 C621 0.930 . S
H629 C627 0.930 . S
H630 C618 0.930 . S
H631 C619 0.930 . S
H632 C625 0.929 . S
H633 C647 0.930 . S
H634 C626 0.930 . S
H635 C653 0.930 . S
H636 C644 0.929 . S
H637 C651 0.930 . S
H638 C615 0.931 . S
H639 C645 0.930 . S
H640 C678 0.930 . S
H641 C622 0.930 . S
H642 C677 0.931 . S
N643 Eu612 2.657 . S
N643 C644 1.334 . S
N643 C648 1.362 . S
C644 H636 0.929 . S
C644 N643 1.334 . S
C644 C647 1.413 . S
C645 H639 0.930 . S
C645 C646 1.392 . S
C645 C647 1.367 . S
C646 C645 1.392 . S
C646 C648 1.420 . S
C646 C678 1.423 . S
C647 H633 0.930 . S
C647 C644 1.413 . S
C647 C645 1.367 . S
C648 N643 1.362 . S
C648 C646 1.420 . S
C648 C652 1.429 . S
H649 C654 0.930 . S
N650 Eu612 2.609 . S
N650 C652 1.377 . S
N650 C653 1.321 . S
C651 H637 0.930 . S
C651 C653 1.400 . S
C651 C654 1.386 . S
C652 C648 1.429 . S
C652 N650 1.377 . S
C652 C655 1.411 . S
C653 H635 0.930 . S
C653 N650 1.321 . S
C653 C651 1.400 . S
C654 H649 0.930 . S
C654 C651 1.386 . S
C654 C655 1.395 . S
C655 C652 1.411 . S
C655 C654 1.395 . S
C655 C677 1.420 . S
O656 Eu612 2.558 . S
O656 C676 1.257 . S
O657 Eu612 2.612 . S
O657 Eu623 2.380 . S
O657 C668 1.276 . S
O658 Eu623 2.432 . S
O658 C675 1.264 . S
O659 Eu612 2.339 . S
O659 C675 1.254 . S
O660 Eu612 2.563 . S
O660 C668 1.235 . S
O661 Eu612 2.419 . S
O661 C676 1.249 . S
O662 Eu623 2.558 . S
O662 C687 1.257 . S
O663 Eu612 2.380 . S
O663 Eu623 2.612 . S
O663 C679 1.276 . S
O664 Eu612 2.432 . S
O664 C686 1.264 . S
O665 Eu623 2.339 . S
O665 C686 1.254 . S
O666 Eu623 2.563 . S
O666 C679 1.235 . S
O667 Eu623 2.419 . S
O667 C687 1.249 . S
C668 O657 1.276 . S
C668 O660 1.235 . S
C669 C671 1.393 . S
C669 C673 1.395 . S
C669 C676 1.492 . S
C670 C671 1.392 . S
C670 C672 1.386 1_556 S
C671 C669 1.393 . S
C671 C670 1.392 . S
C671 H688 0.930 . S
C672 C670 1.386 1_554 S
C672 C674 1.395 . S
C672 H689 0.930 . S
C673 C669 1.395 . S
C673 C674 1.379 1_556 S
C673 H690 0.930 . S
C674 C672 1.395 . S
C674 C673 1.379 1_554 S
C674 H691 0.930 . S
C675 O658 1.264 . S
C675 O659 1.254 . S
C676 Eu612 2.848 . S
C676 O656 1.257 . S
C676 O661 1.249 . S
C676 C669 1.492 . S
C677 H642 0.931 . S
C677 C655 1.420 . S
C677 C678 1.351 . S
C678 H640 0.930 . S
C678 C646 1.423 . S
C678 C677 1.351 . S
C679 O663 1.276 . S
C679 O666 1.235 . S
C680 C681 1.393 . S
C680 C684 1.395 . S
C680 C687 1.492 . S
C681 C680 1.393 . S
C681 C682 1.392 . S
C681 H692 0.930 . S
C682 C681 1.392 . S
C682 C683 1.386 . S
C683 C682 1.386 . S
C683 C685 1.395 . S
C683 H693 0.930 . S
C684 C680 1.395 . S
C684 C685 1.379 . S
C684 H694 0.930 . S
C685 C683 1.395 . S
C685 C684 1.379 . S
C685 H695 0.930 . S
C686 O664 1.264 . S
C686 O665 1.254 . S
C687 Eu623 2.848 . S
C687 O662 1.257 . S
C687 O667 1.249 . S
C687 C680 1.492 . S
H688 C671 0.930 . S
H689 C672 0.930 . S
H690 C673 0.930 . S
H691 C674 0.930 . S
H692 C681 0.930 . S
H693 C683 0.930 . S
H694 C684 0.930 . S
H695 C685 0.930 . S
Eu696 N727 2.657 . S
Eu696 N734 2.609 . S
Eu696 O740 2.558 . S
Eu696 O741 2.612 . S
Eu696 O743 2.339 . S
Eu696 O744 2.563 . S
Eu696 O745 2.419 . S
Eu696 O747 2.380 . S
Eu696 O748 2.432 . S
Eu696 C760 2.848 . S
C697 C700 1.429 . S
C697 C701 1.411 1_556 S
C697 N704 1.377 . S
C698 C700 1.420 . S
C698 C702 1.446 . S
C698 C710 1.392 . S
C699 C701 1.420 . S
C699 C702 1.337 1_554 S
C699 H722 0.931 . S
C700 C697 1.429 . S
C700 C698 1.420 . S
C700 N708 1.362 . S
C701 C697 1.411 1_554 S
C701 C699 1.420 . S
C701 C706 1.395 . S
C702 C698 1.446 . S
C702 C699 1.337 1_556 S
C702 H714 0.920 1_556 S
C703 C705 1.400 1_554 S
C703 C706 1.386 . S
C703 H715 0.930 . S
N704 C697 1.377 . S
N704 C705 1.321 . S
N704 Eu707 2.609 . S
C705 C703 1.400 1_556 S
C705 N704 1.321 . S
C705 H712 0.930 . S
C706 C701 1.395 . S
C706 C703 1.386 . S
C706 H725 0.930 . S
Eu707 N704 2.609 . S
Eu707 N708 2.657 . S
Eu707 O741 2.380 . S
Eu707 O742 2.432 . S
Eu707 O746 2.558 . S
Eu707 O747 2.612 . S
Eu707 O749 2.339 . S
Eu707 O750 2.563 . S
Eu707 O751 2.419 . S
Eu707 C771 2.848 . S
N708 C700 1.362 . S
N708 Eu707 2.657 . S
N708 C709 1.334 . S
C709 N708 1.334 . S
C709 C711 1.413 . S
C709 H716 0.929 . S
C710 C698 1.392 . S
C710 C711 1.367 . S
C710 H718 0.930 . S
C711 C709 1.413 . S
C711 C710 1.367 . S
C711 H713 0.930 . S
H712 C705 0.930 . S
H713 C711 0.930 . S
H714 C702 0.920 1_554 S
H715 C703 0.930 . S
H716 C709 0.929 . S
H717 C731 0.930 . S
H718 C710 0.930 . S
H719 C737 0.930 . S
H720 C728 0.929 . S
H721 C735 0.930 . S
H722 C699 0.931 . S
H723 C729 0.930 . S
H724 C762 0.930 . S
H725 C706 0.930 . S
H726 C761 0.931 . S
N727 Eu696 2.657 . S
N727 C728 1.334 . S
N727 C732 1.362 . S
C728 H720 0.929 . S
C728 N727 1.334 . S
C728 C731 1.413 . S
C729 H723 0.930 . S
C729 C730 1.392 . S
C729 C731 1.367 . S
C730 C729 1.392 . S
C730 C732 1.420 . S
C730 C762 1.423 . S
C731 H717 0.930 . S
C731 C728 1.413 . S
C731 C729 1.367 . S
C732 N727 1.362 . S
C732 C730 1.420 . S
C732 C736 1.429 . S
H733 C738 0.930 . S
N734 Eu696 2.609 . S
N734 C736 1.377 . S
N734 C737 1.321 . S
C735 H721 0.930 . S
C735 C737 1.400 . S
C735 C738 1.386 . S
C736 C732 1.429 . S
C736 N734 1.377 . S
C736 C739 1.411 . S
C737 H719 0.930 . S
C737 N734 1.321 . S
C737 C735 1.400 . S
C738 H733 0.930 . S
C738 C735 1.386 . S
C738 C739 1.395 . S
C739 C736 1.411 . S
C739 C738 1.395 . S
C739 C761 1.420 . S
O740 Eu696 2.558 . S
O740 C760 1.257 . S
O741 Eu696 2.612 . S
O741 Eu707 2.380 . S
O741 C752 1.276 . S
O742 Eu707 2.432 . S
O742 C759 1.264 . S
O743 Eu696 2.339 . S
O743 C759 1.254 . S
O744 Eu696 2.563 . S
O744 C752 1.235 . S
O745 Eu696 2.419 . S
O745 C760 1.249 . S
O746 Eu707 2.558 . S
O746 C771 1.257 . S
O747 Eu696 2.380 . S
O747 Eu707 2.612 . S
O747 C763 1.276 . S
O748 Eu696 2.432 . S
O748 C770 1.264 . S
O749 Eu707 2.339 . S
O749 C770 1.254 . S
O750 Eu707 2.563 . S
O750 C763 1.235 . S
O751 Eu707 2.419 . S
O751 C771 1.249 . S
C752 O741 1.276 . S
C752 O744 1.235 . S
C753 C755 1.393 . S
C753 C757 1.395 . S
C753 C760 1.492 . S
C754 C755 1.392 . S
C754 C756 1.386 . S
C755 C753 1.393 . S
C755 C754 1.392 . S
C755 H772 0.930 . S
C756 C754 1.386 . S
C756 C758 1.395 . S
C756 H773 0.930 . S
C757 C753 1.395 . S
C757 C758 1.379 . S
C757 H774 0.930 . S
C758 C756 1.395 . S
C758 C757 1.379 . S
C758 H775 0.930 . S
C759 O742 1.264 . S
C759 O743 1.254 . S
C760 Eu696 2.848 . S
C760 O740 1.257 . S
C760 O745 1.249 . S
C760 C753 1.492 . S
C761 H726 0.931 . S
C761 C739 1.420 . S
C761 C762 1.351 . S
C762 H724 0.930 . S
C762 C730 1.423 . S
C762 C761 1.351 . S
C763 O747 1.276 . S
C763 O750 1.235 . S
C764 C765 1.393 . S
C764 C768 1.395 . S
C764 C771 1.492 . S
C765 C764 1.393 . S
C765 C766 1.392 . S
C765 H776 0.930 . S
C766 C765 1.392 . S
C766 C767 1.386 . S
C767 C766 1.386 . S
C767 C769 1.395 . S
C767 H777 0.930 . S
C768 C764 1.395 . S
C768 C769 1.379 . S
C768 H778 0.930 . S
C769 C767 1.395 . S
C769 C768 1.379 . S
C769 H779 0.930 . S
C770 O748 1.264 . S
C770 O749 1.254 . S
C771 Eu707 2.848 . S
C771 O746 1.257 . S
C771 O751 1.249 . S
C771 C764 1.492 . S
H772 C755 0.930 . S
H773 C756 0.930 . S
H774 C757 0.930 . S
H775 C758 0.930 . S
H776 C765 0.930 . S
H777 C767 0.930 . S
H778 C768 0.930 . S
H779 C769 0.930 . S
Eu780 N811 2.657 . S
Eu780 N818 2.609 . S
Eu780 O824 2.558 . S
Eu780 O825 2.612 . S
Eu780 O827 2.339 . S
Eu780 O828 2.563 . S
Eu780 O829 2.419 . S
Eu780 O831 2.380 . S
Eu780 O832 2.432 . S
Eu780 C844 2.848 . S
C781 C784 1.429 . S
C781 C785 1.411 . S
C781 N788 1.377 . S
C782 C784 1.420 . S
C782 C786 1.423 . S
C782 C794 1.392 . S
C783 C785 1.420 . S
C783 C786 1.351 . S
C783 H806 0.931 . S
C784 C781 1.429 . S
C784 C782 1.420 . S
C784 N792 1.362 . S
C785 C781 1.411 . S
C785 C783 1.420 . S
C785 C790 1.395 . S
C786 C782 1.423 . S
C786 C783 1.351 . S
C786 H798 0.930 . S
C787 C789 1.400 . S
C787 C790 1.386 . S
C787 H799 0.930 . S
N788 C781 1.377 . S
N788 C789 1.321 . S
N788 Eu791 2.609 . S
C789 C787 1.400 . S
C789 N788 1.321 . S
C789 H796 0.930 . S
C790 C785 1.395 . S
C790 C787 1.386 . S
C790 H809 0.930 . S
Eu791 N788 2.609 . S
Eu791 N792 2.657 . S
Eu791 O825 2.380 . S
Eu791 O826 2.432 . S
Eu791 O830 2.558 . S
Eu791 O831 2.612 . S
Eu791 O833 2.339 . S
Eu791 O834 2.563 . S
Eu791 O835 2.419 . S
Eu791 C855 2.848 . S
N792 C784 1.362 . S
N792 Eu791 2.657 . S
N792 C793 1.334 . S
C793 N792 1.334 . S
C793 C795 1.413 . S
C793 H800 0.929 . S
C794 C782 1.392 . S
C794 C795 1.367 . S
C794 H802 0.930 . S
C795 C793 1.413 . S
C795 C794 1.367 . S
C795 H797 0.930 . S
H796 C789 0.930 . S
H797 C795 0.930 . S
H798 C786 0.930 . S
H799 C787 0.930 . S
H800 C793 0.929 . S
H801 C815 0.930 . S
H802 C794 0.930 . S
H803 C821 0.930 . S
H804 C812 0.929 . S
H805 C819 0.930 . S
H806 C783 0.931 . S
H807 C813 0.930 . S
H808 C846 0.930 . S
H809 C790 0.930 . S
H810 C845 0.931 . S
N811 Eu780 2.657 . S
N811 C812 1.334 . S
N811 C816 1.362 . S
C812 H804 0.929 . S
C812 N811 1.334 . S
C812 C815 1.413 . S
C813 H807 0.930 . S
C813 C814 1.392 . S
C813 C815 1.367 . S
C814 C813 1.392 . S
C814 C816 1.420 . S
C814 C846 1.423 . S
C815 H801 0.930 . S
C815 C812 1.413 . S
C815 C813 1.367 . S
C816 N811 1.362 . S
C816 C814 1.420 . S
C816 C820 1.429 . S
H817 C822 0.930 . S
N818 Eu780 2.609 . S
N818 C820 1.377 . S
N818 C821 1.321 . S
C819 H805 0.930 . S
C819 C821 1.400 . S
C819 C822 1.386 . S
C820 C816 1.429 . S
C820 N818 1.377 . S
C820 C823 1.411 . S
C821 H803 0.930 . S
C821 N818 1.321 . S
C821 C819 1.400 . S
C822 H817 0.930 . S
C822 C819 1.386 . S
C822 C823 1.395 . S
C823 C820 1.411 . S
C823 C822 1.395 . S
C823 C845 1.420 . S
O824 Eu780 2.558 . S
O824 C844 1.257 . S
O825 Eu780 2.612 . S
O825 Eu791 2.380 . S
O825 C836 1.276 . S
O826 Eu791 2.432 . S
O826 C843 1.264 . S
O827 Eu780 2.339 . S
O827 C843 1.254 . S
O828 Eu780 2.563 . S
O828 C836 1.235 . S
O829 Eu780 2.419 . S
O829 C844 1.249 . S
O830 Eu791 2.558 . S
O830 C855 1.257 . S
O831 Eu780 2.380 . S
O831 Eu791 2.612 . S
O831 C847 1.276 . S
O832 Eu780 2.432 . S
O832 C854 1.264 . S
O833 Eu791 2.339 . S
O833 C854 1.254 . S
O834 Eu791 2.563 . S
O834 C847 1.235 . S
O835 Eu791 2.419 . S
O835 C855 1.249 . S
C836 O825 1.276 . S
C836 O828 1.235 . S
C837 C839 1.393 . S
C837 C841 1.395 . S
C837 C844 1.492 . S
C838 C839 1.392 . S
C838 C840 1.386 . S
C839 C837 1.393 . S
C839 C838 1.392 . S
C839 H856 0.930 . S
C840 C838 1.386 . S
C840 C842 1.395 . S
C840 H857 0.930 . S
C841 C837 1.395 . S
C841 C842 1.379 . S
C841 H858 0.930 . S
C842 C840 1.395 . S
C842 C841 1.379 . S
C842 H859 0.930 . S
C843 O826 1.264 . S
C843 O827 1.254 . S
C844 Eu780 2.848 . S
C844 O824 1.257 . S
C844 O829 1.249 . S
C844 C837 1.492 . S
C845 H810 0.931 . S
C845 C823 1.420 . S
C845 C846 1.351 . S
C846 H808 0.930 . S
C846 C814 1.423 . S
C846 C845 1.351 . S
C847 O831 1.276 . S
C847 O834 1.235 . S
C848 C849 1.393 . S
C848 C852 1.395 . S
C848 C855 1.492 . S
C849 C848 1.393 . S
C849 C850 1.392 . S
C849 H860 0.930 . S
C850 C849 1.392 . S
C850 C851 1.386 1_556 S
C851 C850 1.386 1_554 S
C851 C853 1.395 . S
C851 H861 0.930 . S
C852 C848 1.395 . S
C852 C853 1.379 1_556 S
C852 H862 0.930 . S
C853 C851 1.395 . S
C853 C852 1.379 1_554 S
C853 H863 0.930 . S
C854 O832 1.264 . S
C854 O833 1.254 . S
C855 Eu791 2.848 . S
C855 O830 1.257 . S
C855 O835 1.249 . S
C855 C848 1.492 . S
H856 C839 0.930 . S
H857 C840 0.930 . S
H858 C841 0.930 . S
H859 C842 0.930 . S
H860 C849 0.930 . S
H861 C851 0.930 . S
H862 C852 0.930 . S
H863 C853 0.930 . S
Eu864 N895 2.657 . S
Eu864 N902 2.609 . S
Eu864 O908 2.558 . S
Eu864 O909 2.612 . S
Eu864 O911 2.339 . S
Eu864 O912 2.563 . S
Eu864 O913 2.419 . S
Eu864 O915 2.380 . S
Eu864 O916 2.432 . S
Eu864 C928 2.848 . S
C865 C868 1.429 . S
C865 C869 1.411 . S
C865 N872 1.377 . S
C866 C868 1.420 . S
C866 C870 1.423 . S
C866 C878 1.392 . S
C867 C869 1.420 . S
C867 C870 1.351 . S
C867 H890 0.931 . S
C868 C865 1.429 . S
C868 C866 1.420 . S
C868 N876 1.362 . S
C869 C865 1.411 . S
C869 C867 1.420 . S
C869 C874 1.395 . S
C870 C866 1.423 . S
C870 C867 1.351 . S
C870 H882 0.930 . S
C871 C873 1.400 . S
C871 C874 1.386 . S
C871 H883 0.930 . S
N872 C865 1.377 . S
N872 C873 1.321 . S
N872 Eu875 2.609 . S
C873 C871 1.400 . S
C873 N872 1.321 . S
C873 H880 0.930 . S
C874 C869 1.395 . S
C874 C871 1.386 . S
C874 H893 0.930 . S
Eu875 N872 2.609 . S
Eu875 N876 2.657 . S
Eu875 O909 2.380 . S
Eu875 O910 2.432 . S
Eu875 O914 2.558 . S
Eu875 O915 2.612 . S
Eu875 O917 2.339 . S
Eu875 O918 2.563 . S
Eu875 O919 2.419 . S
Eu875 C939 2.848 . S
N876 C868 1.362 . S
N876 Eu875 2.657 . S
N876 C877 1.334 . S
C877 N876 1.334 . S
C877 C879 1.413 . S
C877 H884 0.929 . S
C878 C866 1.392 . S
C878 C879 1.367 . S
C878 H886 0.930 . S
C879 C877 1.413 . S
C879 C878 1.367 . S
C879 H881 0.930 . S
H880 C873 0.930 . S
H881 C879 0.930 . S
H882 C870 0.930 . S
H883 C871 0.930 . S
H884 C877 0.929 . S
H885 C899 0.930 . S
H886 C878 0.930 . S
H887 C905 0.930 . S
H888 C896 0.929 . S
H889 C903 0.930 . S
H890 C867 0.931 . S
H891 C897 0.930 . S
H892 C930 0.930 1_554 S
H893 C874 0.930 . S
H894 C929 0.931 . S
N895 Eu864 2.657 . S
N895 C896 1.334 . S
N895 C900 1.362 . S
C896 H888 0.929 . S
C896 N895 1.334 . S
C896 C899 1.413 . S
C897 H891 0.930 . S
C897 C898 1.392 . S
C897 C899 1.367 . S
C898 C897 1.392 . S
C898 C900 1.420 . S
C898 C930 1.423 . S
C899 H885 0.930 . S
C899 C896 1.413 . S
C899 C897 1.367 . S
C900 N895 1.362 . S
C900 C898 1.420 . S
C900 C904 1.429 . S
H901 C906 0.930 . S
N902 Eu864 2.609 . S
N902 C904 1.377 . S
N902 C905 1.321 . S
C903 H889 0.930 . S
C903 C905 1.400 . S
C903 C906 1.386 1_556 S
C904 C900 1.429 . S
C904 N902 1.377 . S
C904 C907 1.411 . S
C905 H887 0.930 . S
C905 N902 1.321 . S
C905 C903 1.400 . S
C906 H901 0.930 . S
C906 C903 1.386 1_554 S
C906 C907 1.395 1_554 S
C907 C904 1.411 . S
C907 C906 1.395 1_556 S
C907 C929 1.420 1_556 S
O908 Eu864 2.558 . S
O908 C928 1.257 . S
O909 Eu864 2.612 . S
O909 Eu875 2.380 . S
O909 C920 1.276 . S
O910 Eu875 2.432 . S
O910 C927 1.264 . S
O911 Eu864 2.339 . S
O911 C927 1.254 . S
O912 Eu864 2.563 . S
O912 C920 1.235 . S
O913 Eu864 2.419 . S
O913 C928 1.249 . S
O914 Eu875 2.558 . S
O914 C939 1.257 . S
O915 Eu864 2.380 . S
O915 Eu875 2.612 . S
O915 C931 1.276 . S
O916 Eu864 2.432 . S
O916 C938 1.264 . S
O917 Eu875 2.339 . S
O917 C938 1.254 . S
O918 Eu875 2.563 . S
O918 C931 1.235 . S
O919 Eu875 2.419 . S
O919 C939 1.249 . S
C920 O909 1.276 . S
C920 O912 1.235 . S
C921 C923 1.393 . S
C921 C925 1.395 . S
C921 C928 1.492 . S
C922 C923 1.392 . S
C922 C924 1.386 . S
C923 C921 1.393 . S
C923 C922 1.392 . S
C923 H940 0.930 . S
C924 C922 1.386 . S
C924 C926 1.395 . S
C924 H941 0.930 . S
C925 C921 1.395 . S
C925 C926 1.379 . S
C925 H942 0.930 . S
C926 C924 1.395 . S
C926 C925 1.379 . S
C926 H943 0.930 . S
C927 O910 1.264 . S
C927 O911 1.254 . S
C928 Eu864 2.848 . S
C928 O908 1.257 . S
C928 O913 1.249 . S
C928 C921 1.492 . S
C929 H894 0.931 . S
C929 C907 1.420 1_554 S
C929 C930 1.351 1_554 S
C930 H892 0.930 1_556 S
C930 C898 1.423 . S
C930 C929 1.351 1_556 S
C931 O915 1.276 . S
C931 O918 1.235 . S
C932 C933 1.393 . S
C932 C936 1.395 . S
C932 C939 1.492 . S
C933 C932 1.393 . S
C933 C934 1.392 . S
C933 H944 0.930 . S
C934 C933 1.392 . S
C934 C935 1.386 . S
C935 C934 1.386 . S
C935 C937 1.395 . S
C935 H945 0.930 . S
C936 C932 1.395 . S
C936 C937 1.379 . S
C936 H946 0.930 . S
C937 C935 1.395 . S
C937 C936 1.379 . S
C937 H947 0.930 . S
C938 O916 1.264 . S
C938 O917 1.254 . S
C939 Eu875 2.848 . S
C939 O914 1.257 . S
C939 O919 1.249 . S
C939 C932 1.492 . S
H940 C923 0.930 . S
H941 C924 0.930 . S
H942 C925 0.930 . S
H943 C926 0.930 . S
H944 C933 0.930 . S
H945 C935 0.930 . S
H946 C936 0.930 . S
H947 C937 0.930 . S
C948 C949 1.387 . S
C948 H952 0.950 . S
C948 C957 1.390 . S
C949 C948 1.387 . S
C949 C951 1.387 . S
H950 C957 0.950 . S
C951 C949 1.387 . S
C951 C953 1.390 . S
C951 H955 0.950 . S
H952 C948 0.950 . S
C953 C951 1.390 . S
C953 C954 1.387 . S
C953 H956 0.950 . S
C954 C953 1.387 . S
C954 C957 1.387 . S
H955 C951 0.950 . S
H956 C953 0.950 . S
C957 C948 1.390 . S
C957 H950 0.950 . S
C957 C954 1.387 . S
C958 C959 1.387 . S
C958 H962 0.950 . S
C958 C967 1.390 . S
C959 C958 1.387 . S
C959 C961 1.387 . S
H960 C967 0.950 . S
C961 C959 1.387 . S
C961 C963 1.390 . S
C961 H965 0.950 . S
H962 C958 0.950 . S
C963 C961 1.390 . S
C963 C964 1.387 . S
C963 H966 0.950 . S
C964 C963 1.387 . S
C964 C967 1.387 . S
H965 C961 0.950 . S
H966 C963 0.950 . S
C967 C958 1.390 . S
C967 H960 0.950 . S
C967 C964 1.387 . S
C968 C969 1.387 . S
C968 H972 0.950 . S
C968 C977 1.390 . S
C969 C968 1.387 . S
C969 C971 1.387 . S
H970 C977 0.950 . S
C971 C969 1.387 . S
C971 C973 1.390 . S
C971 H975 0.950 1_655 S
H972 C968 0.950 . S
C973 C971 1.390 . S
C973 C974 1.387 . S
C973 H976 0.950 . S
C974 C973 1.387 . S
C974 C977 1.387 . S
H975 C971 0.950 1_455 S
H976 C973 0.950 . S
C977 C968 1.390 . S
C977 H970 0.950 . S
C977 C974 1.387 . S
C978 C979 1.387 . S
C978 H982 0.950 . S
C978 C987 1.390 . S
C979 C978 1.387 . S
C979 C981 1.387 . S
H980 C987 0.950 . S
C981 C979 1.387 . S
C981 C983 1.390 . S
C981 H985 0.950 . S
H982 C978 0.950 . S
C983 C981 1.390 . S
C983 C984 1.387 . S
C983 H986 0.950 . S
C984 C983 1.387 . S
C984 C987 1.387 . S
H985 C981 0.950 . S
H986 C983 0.950 . S
C987 C978 1.390 . S
C987 H980 0.950 . S
C987 C984 1.387 . S
C988 C989 1.387 . S
C988 H992 0.950 . S
C988 C997 1.390 . S
C989 C988 1.387 . S
C989 C991 1.387 . S
H990 C997 0.950 . S
C991 C989 1.387 . S
C991 C993 1.390 . S
C991 H995 0.950 . S
H992 C988 0.950 . S
C993 C991 1.390 . S
C993 C994 1.387 . S
C993 H996 0.950 . S
C994 C993 1.387 . S
C994 C997 1.387 . S
H995 C991 0.950 . S
H996 C993 0.950 . S
C997 C988 1.390 . S
C997 H990 0.950 . S
C997 C994 1.387 . S
C998 C999 1.387 . S
C998 H1002 0.950 . S
C998 C1007 1.390 . S
C999 C998 1.387 . S
C999 C1001 1.387 . S
H1000 C1007 0.950 . S
C1001 C999 1.387 . S
C1001 C1003 1.390 . S
C1001 H1005 0.950 . S
H1002 C998 0.950 . S
C1003 C1001 1.390 . S
C1003 C1004 1.387 . S
C1003 H1006 0.950 . S
C1004 C1003 1.387 . S
C1004 C1007 1.387 . S
H1005 C1001 0.950 . S
H1006 C1003 0.950 . S
C1007 C998 1.390 . S
C1007 H1000 0.950 . S
C1007 C1004 1.387 . S
C1008 C1009 1.387 . S
C1008 H1012 0.950 . S
C1008 C1017 1.390 . S
C1009 C1008 1.387 . S
C1009 C1011 1.387 . S
H1010 C1017 0.950 . S
C1011 C1009 1.387 . S
C1011 C1013 1.390 . S
C1011 H1015 0.950 . S
H1012 C1008 0.950 . S
C1013 C1011 1.390 . S
C1013 C1014 1.387 . S
C1013 H1016 0.950 . S
C1014 C1013 1.387 . S
C1014 C1017 1.387 . S
H1015 C1011 0.950 . S
H1016 C1013 0.950 . S
C1017 C1008 1.390 . S
C1017 H1010 0.950 . S
C1017 C1014 1.387 . S
C1018 C1019 1.387 . S
C1018 H1022 0.950 . S
C1018 C1027 1.390 . S
C1019 C1018 1.387 . S
C1019 C1021 1.387 . S
H1020 C1027 0.950 . S
C1021 C1019 1.387 . S
C1021 C1023 1.390 . S
C1021 H1025 0.950 . S
H1022 C1018 0.950 . S
C1023 C1021 1.390 . S
C1023 C1024 1.387 . S
C1023 H1026 0.950 . S
C1024 C1023 1.387 . S
C1024 C1027 1.387 . S
H1025 C1021 0.950 . S
H1026 C1023 0.950 . S
C1027 C1018 1.390 . S
C1027 H1020 0.950 . S
C1027 C1024 1.387 . S
C1028 C1029 1.387 . S
C1028 H1032 0.950 . S
C1028 C1037 1.390 . S
C1029 C1028 1.387 . S
C1029 C1031 1.387 . S
H1030 C1037 0.950 . S
C1031 C1029 1.387 . S
C1031 C1033 1.390 . S
C1031 H1035 0.950 . S
H1032 C1028 0.950 . S
C1033 C1031 1.390 . S
C1033 C1034 1.387 . S
C1033 H1036 0.950 . S
C1034 C1033 1.387 . S
C1034 C1037 1.387 . S
H1035 C1031 0.950 . S
H1036 C1033 0.950 . S
C1037 C1028 1.390 . S
C1037 H1030 0.950 . S
C1037 C1034 1.387 . S
C1038 C1039 1.387 . S
C1038 H1042 0.950 . S
C1038 C1047 1.390 . S
C1039 C1038 1.387 . S
C1039 C1041 1.387 . S
H1040 C1047 0.950 . S
C1041 C1039 1.387 . S
C1041 C1043 1.390 . S
C1041 H1045 0.950 . S
H1042 C1038 0.950 . S
C1043 C1041 1.390 . S
C1043 C1044 1.387 . S
C1043 H1046 0.950 . S
C1044 C1043 1.387 . S
C1044 C1047 1.387 . S
H1045 C1041 0.950 . S
H1046 C1043 0.950 . S
C1047 C1038 1.390 . S
C1047 H1040 0.950 . S
C1047 C1044 1.387 . S
C1048 C1049 1.387 . S
C1048 H1052 0.950 . S
C1048 C1057 1.390 . S
C1049 C1048 1.387 . S
C1049 C1051 1.387 . S
H1050 C1057 0.950 . S
C1051 C1049 1.387 . S
C1051 C1053 1.390 . S
C1051 H1055 0.950 . S
H1052 C1048 0.950 . S
C1053 C1051 1.390 . S
C1053 C1054 1.387 . S
C1053 H1056 0.950 . S
C1054 C1053 1.387 . S
C1054 C1057 1.387 . S
H1055 C1051 0.950 . S
H1056 C1053 0.950 . S
C1057 C1048 1.390 . S
C1057 H1050 0.950 . S
C1057 C1054 1.387 . S
C1058 C1059 1.387 . S
C1058 H1062 0.950 . S
C1058 C1067 1.390 . S
C1059 C1058 1.387 . S
C1059 C1061 1.387 . S
H1060 C1067 0.950 . S
C1061 C1059 1.387 . S
C1061 C1063 1.390 . S
C1061 H1065 0.950 . S
H1062 C1058 0.950 . S
C1063 C1061 1.390 . S
C1063 C1064 1.387 . S
C1063 H1066 0.950 . S
C1064 C1063 1.387 . S
C1064 C1067 1.387 . S
H1065 C1061 0.950 . S
H1066 C1063 0.950 . S
C1067 C1058 1.390 . S
C1067 H1060 0.950 . S
C1067 C1064 1.387 . S
C1068 C1069 1.387 1_556 S
C1068 H1072 0.950 . S
C1068 C1077 1.390 . S
C1069 C1068 1.387 1_554 S
C1069 C1071 1.387 1_545 S
H1070 C1077 0.950 . S
C1071 C1069 1.387 1_565 S
C1071 C1073 1.390 . S
C1071 H1075 0.950 . S
H1072 C1068 0.950 . S
C1073 C1071 1.390 . S
C1073 C1074 1.387 1_554 S
C1073 H1076 0.950 . S
C1074 C1073 1.387 1_556 S
C1074 C1077 1.387 1_565 S
H1075 C1071 0.950 . S
H1076 C1073 0.950 . S
C1077 C1068 1.390 . S
C1077 H1070 0.950 . S
C1077 C1074 1.387 1_545 S
C1078 C1079 1.387 . S
C1078 H1082 0.950 . S
C1078 C1087 1.390 . S
C1079 C1078 1.387 . S
C1079 C1081 1.387 . S
H1080 C1087 0.950 . S
C1081 C1079 1.387 . S
C1081 C1083 1.390 . S
C1081 H1085 0.950 . S
H1082 C1078 0.950 . S
C1083 C1081 1.390 . S
C1083 C1084 1.387 . S
C1083 H1086 0.950 . S
C1084 C1083 1.387 . S
C1084 C1087 1.387 . S
H1085 C1081 0.950 . S
H1086 C1083 0.950 . S
C1087 C1078 1.390 . S
C1087 H1080 0.950 . S
C1087 C1084 1.387 . S
C1088 C1089 1.387 . S
C1088 H1092 0.950 . S
C1088 C1097 1.390 . S
C1089 C1088 1.387 . S
C1089 C1091 1.387 . S
H1090 C1097 0.950 . S
C1091 C1089 1.387 . S
C1091 C1093 1.390 . S
C1091 H1095 0.950 . S
H1092 C1088 0.950 . S
C1093 C1091 1.390 . S
C1093 C1094 1.387 . S
C1093 H1096 0.950 . S
C1094 C1093 1.387 . S
C1094 C1097 1.387 . S
H1095 C1091 0.950 . S
H1096 C1093 0.950 . S
C1097 C1088 1.390 . S
C1097 H1090 0.950 . S
C1097 C1094 1.387 . S
C1098 C1099 1.387 . S
C1098 H1102 0.950 . S
C1098 C1107 1.390 . S
C1099 C1098 1.387 . S
C1099 C1101 1.387 . S
H1100 C1107 0.950 . S
C1101 C1099 1.387 . S
C1101 C1103 1.390 . S
C1101 H1105 0.950 . S
H1102 C1098 0.950 . S
C1103 C1101 1.390 . S
C1103 C1104 1.387 . S
C1103 H1106 0.950 . S
C1104 C1103 1.387 . S
C1104 C1107 1.387 . S
H1105 C1101 0.950 . S
H1106 C1103 0.950 . S
C1107 C1098 1.390 . S
C1107 H1100 0.950 . S
C1107 C1104 1.387 . S
C1108 C1109 1.387 . S
C1108 H1112 0.950 . S
C1108 C1117 1.390 . S
C1109 C1108 1.387 . S
C1109 C1111 1.387 . S
H1110 C1117 0.950 . S
C1111 C1109 1.387 . S
C1111 C1113 1.390 . S
C1111 H1115 0.950 . S
H1112 C1108 0.950 . S
C1113 C1111 1.390 . S
C1113 C1114 1.387 . S
C1113 H1116 0.950 . S
C1114 C1113 1.387 . S
C1114 C1117 1.387 . S
H1115 C1111 0.950 . S
H1116 C1113 0.950 . S
C1117 C1108 1.390 . S
C1117 H1110 0.950 . S
C1117 C1114 1.387 . S
C1118 C1119 1.387 . S
C1118 H1122 0.950 . S
C1118 C1127 1.390 . S
C1119 C1118 1.387 . S
C1119 C1121 1.387 . S
H1120 C1127 0.950 . S
C1121 C1119 1.387 . S
C1121 C1123 1.390 . S
C1121 H1125 0.950 . S
H1122 C1118 0.950 . S
C1123 C1121 1.390 . S
C1123 C1124 1.387 . S
C1123 H1126 0.950 . S
C1124 C1123 1.387 . S
C1124 C1127 1.387 . S
H1125 C1121 0.950 . S
H1126 C1123 0.950 . S
C1127 C1118 1.390 . S
C1127 H1120 0.950 . S
C1127 C1124 1.387 . S
C1128 C1129 1.387 1_556 S
C1128 H1132 0.950 1_556 S
C1128 C1137 1.390 . S
C1129 C1128 1.387 1_554 S
C1129 C1131 1.387 1_554 S
H1130 C1137 0.950 . S
C1131 C1129 1.387 1_556 S
C1131 C1133 1.390 . S
C1131 H1135 0.950 . S
H1132 C1128 0.950 1_554 S
C1133 C1131 1.390 . S
C1133 C1134 1.387 . S
C1133 H1136 0.950 . S
C1134 C1133 1.387 . S
C1134 C1137 1.387 . S
H1135 C1131 0.950 . S
H1136 C1133 0.950 . S
C1137 C1128 1.390 . S
C1137 H1130 0.950 . S
C1137 C1134 1.387 . S
C1138 C1139 1.387 1_655 S
C1138 H1142 0.950 . S
C1138 C1147 1.390 1_554 S
C1139 C1138 1.387 1_455 S
C1139 C1141 1.387 . S
H1140 C1147 0.950 . S
C1141 C1139 1.387 . S
C1141 C1143 1.390 1_454 S
C1141 H1145 0.950 . S
H1142 C1138 0.950 . S
C1143 C1141 1.390 1_656 S
C1143 C1144 1.387 . S
C1143 H1146 0.950 . S
C1144 C1143 1.387 . S
C1144 C1147 1.387 . S
H1145 C1141 0.950 . S
H1146 C1143 0.950 . S
C1147 C1138 1.390 1_556 S
C1147 H1140 0.950 . S
C1147 C1144 1.387 . S
C1148 C1149 1.387 . S
C1148 H1152 0.950 . S
C1148 C1157 1.390 . S
C1149 C1148 1.387 . S
C1149 C1151 1.387 . S
H1150 C1157 0.950 . S
C1151 C1149 1.387 . S
C1151 C1153 1.390 . S
C1151 H1155 0.950 . S
H1152 C1148 0.950 . S
C1153 C1151 1.390 . S
C1153 C1154 1.387 . S
C1153 H1156 0.950 . S
C1154 C1153 1.387 . S
C1154 C1157 1.387 . S
H1155 C1151 0.950 . S
H1156 C1153 0.950 . S
C1157 C1148 1.390 . S
C1157 H1150 0.950 . S
C1157 C1154 1.387 . S
C1158 C1159 1.387 . S
C1158 H1162 0.950 . S
C1158 C1167 1.390 . S
C1159 C1158 1.387 . S
C1159 C1161 1.387 . S
H1160 C1167 0.950 . S
C1161 C1159 1.387 . S
C1161 C1163 1.390 . S
C1161 H1165 0.950 . S
H1162 C1158 0.950 . S
C1163 C1161 1.390 . S
C1163 C1164 1.387 . S
C1163 H1166 0.950 . S
C1164 C1163 1.387 . S
C1164 C1167 1.387 . S
H1165 C1161 0.950 . S
H1166 C1163 0.950 . S
C1167 C1158 1.390 . S
C1167 H1160 0.950 . S
C1167 C1164 1.387 . S
C1168 C1169 1.387 1_565 S
C1168 H1172 0.950 . S
C1168 C1177 1.390 . S
C1169 C1168 1.387 1_545 S
C1169 C1171 1.387 1_545 S
H1170 C1177 0.950 . S
C1171 C1169 1.387 1_565 S
C1171 C1173 1.390 . S
C1171 H1175 0.950 1_565 S
H1172 C1168 0.950 . S
C1173 C1171 1.390 . S
C1173 C1174 1.387 . S
C1173 H1176 0.950 . S
C1174 C1173 1.387 . S
C1174 C1177 1.387 . S
H1175 C1171 0.950 1_545 S
H1176 C1173 0.950 . S
C1177 C1168 1.390 . S
C1177 H1170 0.950 . S
C1177 C1174 1.387 . S
C1178 C1179 1.387 . S
C1178 H1182 0.950 . S
C1178 C1187 1.390 . S
C1179 C1178 1.387 . S
C1179 C1181 1.387 . S
H1180 C1187 0.950 . S
C1181 C1179 1.387 . S
C1181 C1183 1.390 . S
C1181 H1185 0.950 . S
H1182 C1178 0.950 . S
C1183 C1181 1.390 . S
C1183 C1184 1.387 . S
C1183 H1186 0.950 . S
C1184 C1183 1.387 . S
C1184 C1187 1.387 . S
H1185 C1181 0.950 . S
H1186 C1183 0.950 . S
C1187 C1178 1.390 . S
C1187 H1180 0.950 . S
C1187 C1184 1.387 . S
C1188 C1189 1.387 . S
C1188 H1192 0.950 . S
C1188 C1197 1.390 . S
C1189 C1188 1.387 . S
C1189 C1191 1.387 . S
H1190 C1197 0.950 . S
C1191 C1189 1.387 . S
C1191 C1193 1.390 . S
C1191 H1195 0.950 . S
H1192 C1188 0.950 . S
C1193 C1191 1.390 . S
C1193 C1194 1.387 . S
C1193 H1196 0.950 . S
C1194 C1193 1.387 . S
C1194 C1197 1.387 . S
H1195 C1191 0.950 . S
H1196 C1193 0.950 . S
C1197 C1188 1.390 . S
C1197 H1190 0.950 . S
C1197 C1194 1.387 . S
C1198 C1199 1.387 . S
C1198 H1202 0.950 . S
C1198 C1207 1.390 . S
C1199 C1198 1.387 . S
C1199 C1201 1.387 . S
H1200 C1207 0.950 . S
C1201 C1199 1.387 . S
C1201 C1203 1.390 . S
C1201 H1205 0.950 . S
H1202 C1198 0.950 . S
C1203 C1201 1.390 . S
C1203 C1204 1.387 . S
C1203 H1206 0.950 . S
C1204 C1203 1.387 . S
C1204 C1207 1.387 . S
H1205 C1201 0.950 . S
H1206 C1203 0.950 . S
C1207 C1198 1.390 . S
C1207 H1200 0.950 . S
C1207 C1204 1.387 . S
C1208 C1209 1.387 . S
C1208 H1212 0.950 . S
C1208 C1217 1.390 . S
C1209 C1208 1.387 . S
C1209 C1211 1.387 . S
H1210 C1217 0.950 . S
C1211 C1209 1.387 . S
C1211 C1213 1.390 . S
C1211 H1215 0.950 . S
H1212 C1208 0.950 . S
C1213 C1211 1.390 . S
C1213 C1214 1.387 . S
C1213 H1216 0.950 . S
C1214 C1213 1.387 . S
C1214 C1217 1.387 . S
H1215 C1211 0.950 . S
H1216 C1213 0.950 . S
C1217 C1208 1.390 . S
C1217 H1210 0.950 . S
C1217 C1214 1.387 . S
C1218 C1219 1.387 . S
C1218 H1222 0.950 . S
C1218 C1227 1.390 . S
C1219 C1218 1.387 . S
C1219 C1221 1.387 . S
H1220 C1227 0.950 . S
C1221 C1219 1.387 . S
C1221 C1223 1.390 . S
C1221 H1225 0.950 . S
H1222 C1218 0.950 . S
C1223 C1221 1.390 . S
C1223 C1224 1.387 . S
C1223 H1226 0.950 . S
C1224 C1223 1.387 . S
C1224 C1227 1.387 . S
H1225 C1221 0.950 . S
H1226 C1223 0.950 . S
C1227 C1218 1.390 . S
C1227 H1220 0.950 . S
C1227 C1224 1.387 . S
C1228 C1229 1.387 . S
C1228 H1232 0.950 . S
C1228 C1237 1.390 . S
C1229 C1228 1.387 . S
C1229 C1231 1.387 . S
H1230 C1237 0.950 . S
C1231 C1229 1.387 . S
C1231 C1233 1.390 . S
C1231 H1235 0.950 . S
H1232 C1228 0.950 . S
C1233 C1231 1.390 . S
C1233 C1234 1.387 . S
C1233 H1236 0.950 . S
C1234 C1233 1.387 . S
C1234 C1237 1.387 . S
H1235 C1231 0.950 . S
H1236 C1233 0.950 . S
C1237 C1228 1.390 . S
C1237 H1230 0.950 . S
C1237 C1234 1.387 . S
C1238 C1239 1.387 . S
C1238 H1242 0.950 . S
C1238 C1247 1.390 . S
C1239 C1238 1.387 . S
C1239 C1241 1.387 . S
H1240 C1247 0.950 . S
C1241 C1239 1.387 . S
C1241 C1243 1.390 . S
C1241 H1245 0.950 . S
H1242 C1238 0.950 . S
C1243 C1241 1.390 . S
C1243 C1244 1.387 . S
C1243 H1246 0.950 . S
C1244 C1243 1.387 . S
C1244 C1247 1.387 . S
H1245 C1241 0.950 . S
H1246 C1243 0.950 . S
C1247 C1238 1.390 . S
C1247 H1240 0.950 . S
C1247 C1244 1.387 . S
C1248 C1249 1.387 . S
C1248 H1252 0.950 . S
C1248 C1257 1.390 . S
C1249 C1248 1.387 . S
C1249 C1251 1.387 . S
H1250 C1257 0.950 . S
C1251 C1249 1.387 . S
C1251 C1253 1.390 . S
C1251 H1255 0.950 . S
H1252 C1248 0.950 . S
C1253 C1251 1.390 . S
C1253 C1254 1.387 . S
C1253 H1256 0.950 . S
C1254 C1253 1.387 . S
C1254 C1257 1.387 . S
H1255 C1251 0.950 . S
H1256 C1253 0.950 . S
C1257 C1248 1.390 . S
C1257 H1250 0.950 . S
C1257 C1254 1.387 . S
C1258 C1259 1.387 . S
C1258 H1262 0.950 . S
C1258 C1267 1.390 . S
C1259 C1258 1.387 . S
C1259 C1261 1.387 . S
H1260 C1267 0.950 . S
C1261 C1259 1.387 . S
C1261 C1263 1.390 . S
C1261 H1265 0.950 . S
H1262 C1258 0.950 . S
C1263 C1261 1.390 . S
C1263 C1264 1.387 . S
C1263 H1266 0.950 . S
C1264 C1263 1.387 . S
C1264 C1267 1.387 . S
H1265 C1261 0.950 . S
H1266 C1263 0.950 . S
C1267 C1258 1.390 . S
C1267 H1260 0.950 . S
C1267 C1264 1.387 . S
C1268 C1269 1.387 . S
C1268 H1272 0.950 . S
C1268 C1277 1.390 . S
C1269 C1268 1.387 . S
C1269 C1271 1.387 . S
H1270 C1277 0.950 . S
C1271 C1269 1.387 . S
C1271 C1273 1.390 . S
C1271 H1275 0.950 . S
H1272 C1268 0.950 . S
C1273 C1271 1.390 . S
C1273 C1274 1.387 . S
C1273 H1276 0.950 . S
C1274 C1273 1.387 . S
C1274 C1277 1.387 . S
H1275 C1271 0.950 . S
H1276 C1273 0.950 . S
C1277 C1268 1.390 . S
C1277 H1270 0.950 . S
C1277 C1274 1.387 . S
C1278 C1279 1.387 . S
C1278 H1282 0.950 . S
C1278 C1287 1.390 . S
C1279 C1278 1.387 . S
C1279 C1281 1.387 . S
H1280 C1287 0.950 . S
C1281 C1279 1.387 . S
C1281 C1283 1.390 . S
C1281 H1285 0.950 . S
H1282 C1278 0.950 . S
C1283 C1281 1.390 . S
C1283 C1284 1.387 . S
C1283 H1286 0.950 . S
C1284 C1283 1.387 . S
C1284 C1287 1.387 . S
H1285 C1281 0.950 . S
H1286 C1283 0.950 . S
C1287 C1278 1.390 . S
C1287 H1280 0.950 . S
C1287 C1284 1.387 . S
C1288 C1289 1.387 . S
C1288 H1292 0.950 . S
C1288 C1297 1.390 . S
C1289 C1288 1.387 . S
C1289 C1291 1.387 . S
H1290 C1297 0.950 . S
C1291 C1289 1.387 . S
C1291 C1293 1.390 . S
C1291 H1295 0.950 . S
H1292 C1288 0.950 . S
C1293 C1291 1.390 . S
C1293 C1294 1.387 . S
C1293 H1296 0.950 . S
C1294 C1293 1.387 . S
C1294 C1297 1.387 . S
H1295 C1291 0.950 . S
H1296 C1293 0.950 . S
C1297 C1288 1.390 . S
C1297 H1290 0.950 . S
C1297 C1294 1.387 . S
C1298 C1299 1.387 . S
C1298 H1302 0.950 . S
C1298 C1307 1.390 . S
C1299 C1298 1.387 . S
C1299 C1301 1.387 . S
H1300 C1307 0.950 . S
C1301 C1299 1.387 . S
C1301 C1303 1.390 . S
C1301 H1305 0.950 . S
H1302 C1298 0.950 . S
C1303 C1301 1.390 . S
C1303 C1304 1.387 . S
C1303 H1306 0.950 . S
C1304 C1303 1.387 . S
C1304 C1307 1.387 . S
H1305 C1301 0.950 . S
H1306 C1303 0.950 . S
C1307 C1298 1.390 . S
C1307 H1300 0.950 . S
C1307 C1304 1.387 . S
C1308 C1309 1.387 . S
C1308 H1312 0.950 . S
C1308 C1317 1.390 . S
C1309 C1308 1.387 . S
C1309 C1311 1.387 . S
H1310 C1317 0.950 . S
C1311 C1309 1.387 . S
C1311 C1313 1.390 . S
C1311 H1315 0.950 . S
H1312 C1308 0.950 . S
C1313 C1311 1.390 . S
C1313 C1314 1.387 . S
C1313 H1316 0.950 . S
C1314 C1313 1.387 . S
C1314 C1317 1.387 . S
H1315 C1311 0.950 . S
H1316 C1313 0.950 . S
C1317 C1308 1.390 . S
C1317 H1310 0.950 . S
C1317 C1314 1.387 . S
C1318 C1319 1.387 . S
C1318 H1322 0.950 . S
C1318 C1327 1.390 . S
C1319 C1318 1.387 . S
C1319 C1321 1.387 . S
H1320 C1327 0.950 . S
C1321 C1319 1.387 . S
C1321 C1323 1.390 . S
C1321 H1325 0.950 . S
H1322 C1318 0.950 . S
C1323 C1321 1.390 . S
C1323 C1324 1.387 . S
C1323 H1326 0.950 . S
C1324 C1323 1.387 . S
C1324 C1327 1.387 . S
H1325 C1321 0.950 . S
H1326 C1323 0.950 . S
C1327 C1318 1.390 . S
C1327 H1320 0.950 . S
C1327 C1324 1.387 . S
C1328 C1329 1.387 . S
C1328 H1332 0.950 . S
C1328 C1337 1.390 . S
C1329 C1328 1.387 . S
C1329 C1331 1.387 . S
H1330 C1337 0.950 . S
C1331 C1329 1.387 . S
C1331 C1333 1.390 . S
C1331 H1335 0.950 . S
H1332 C1328 0.950 . S
C1333 C1331 1.390 . S
C1333 C1334 1.387 . S
C1333 H1336 0.950 . S
C1334 C1333 1.387 . S
C1334 C1337 1.387 . S
H1335 C1331 0.950 . S
H1336 C1333 0.950 . S
C1337 C1328 1.390 . S
C1337 H1330 0.950 . S
C1337 C1334 1.387 . S
C1338 C1339 1.387 . S
C1338 H1342 0.950 . S
C1338 C1347 1.390 . S
C1339 C1338 1.387 . S
C1339 C1341 1.387 . S
H1340 C1347 0.950 . S
C1341 C1339 1.387 . S
C1341 C1343 1.390 . S
C1341 H1345 0.950 . S
H1342 C1338 0.950 . S
C1343 C1341 1.390 . S
C1343 C1344 1.387 . S
C1343 H1346 0.950 . S
C1344 C1343 1.387 . S
C1344 C1347 1.387 . S
H1345 C1341 0.950 . S
H1346 C1343 0.950 . S
C1347 C1338 1.390 . S
C1347 H1340 0.950 . S
C1347 C1344 1.387 . S
C1348 C1349 1.387 . S
C1348 H1352 0.950 . S
C1348 C1357 1.390 . S
C1349 C1348 1.387 . S
C1349 C1351 1.387 . S
H1350 C1357 0.950 . S
C1351 C1349 1.387 . S
C1351 C1353 1.390 . S
C1351 H1355 0.950 . S
H1352 C1348 0.950 . S
C1353 C1351 1.390 . S
C1353 C1354 1.387 . S
C1353 H1356 0.950 . S
C1354 C1353 1.387 . S
C1354 C1357 1.387 . S
H1355 C1351 0.950 . S
H1356 C1353 0.950 . S
C1357 C1348 1.390 . S
C1357 H1350 0.950 . S
C1357 C1354 1.387 . S
C1358 C1359 1.387 . S
C1358 H1362 0.950 . S
C1358 C1367 1.390 . S
C1359 C1358 1.387 . S
C1359 C1361 1.387 . S
H1360 C1367 0.950 . S
C1361 C1359 1.387 . S
C1361 C1363 1.390 . S
C1361 H1365 0.950 . S
H1362 C1358 0.950 . S
C1363 C1361 1.390 . S
C1363 C1364 1.387 . S
C1363 H1366 0.950 . S
C1364 C1363 1.387 . S
C1364 C1367 1.387 . S
H1365 C1361 0.950 . S
H1366 C1363 0.950 . S
C1367 C1358 1.390 . S
C1367 H1360 0.950 . S
C1367 C1364 1.387 . S
C1368 C1369 1.387 . S
C1368 H1372 0.950 . S
C1368 C1377 1.390 . S
C1369 C1368 1.387 . S
C1369 C1371 1.387 . S
H1370 C1377 0.950 . S
C1371 C1369 1.387 . S
C1371 C1373 1.390 . S
C1371 H1375 0.950 . S
H1372 C1368 0.950 . S
C1373 C1371 1.390 . S
C1373 C1374 1.387 . S
C1373 H1376 0.950 . S
C1374 C1373 1.387 . S
C1374 C1377 1.387 . S
H1375 C1371 0.950 . S
H1376 C1373 0.950 . S
C1377 C1368 1.390 . S
C1377 H1370 0.950 . S
C1377 C1374 1.387 . S
C1378 C1379 1.387 . S
C1378 H1382 0.950 . S
C1378 C1387 1.390 . S
C1379 C1378 1.387 . S
C1379 C1381 1.387 . S
H1380 C1387 0.950 . S
C1381 C1379 1.387 . S
C1381 C1383 1.390 . S
C1381 H1385 0.950 . S
H1382 C1378 0.950 . S
C1383 C1381 1.390 . S
C1383 C1384 1.387 . S
C1383 H1386 0.950 . S
C1384 C1383 1.387 . S
C1384 C1387 1.387 . S
H1385 C1381 0.950 . S
H1386 C1383 0.950 . S
C1387 C1378 1.390 . S
C1387 H1380 0.950 . S
C1387 C1384 1.387 . S
C1388 C1389 1.387 . S
C1388 H1392 0.950 . S
C1388 C1397 1.390 . S
C1389 C1388 1.387 . S
C1389 C1391 1.387 . S
H1390 C1397 0.950 . S
C1391 C1389 1.387 . S
C1391 C1393 1.390 . S
C1391 H1395 0.950 . S
H1392 C1388 0.950 . S
C1393 C1391 1.390 . S
C1393 C1394 1.387 . S
C1393 H1396 0.950 . S
C1394 C1393 1.387 . S
C1394 C1397 1.387 . S
H1395 C1391 0.950 . S
H1396 C1393 0.950 . S
C1397 C1388 1.390 . S
C1397 H1390 0.950 . S
C1397 C1394 1.387 . S
C1398 C1399 1.387 . S
C1398 H1402 0.950 . S
C1398 C1407 1.390 . S
C1399 C1398 1.387 . S
C1399 C1401 1.387 . S
H1400 C1407 0.950 . S
C1401 C1399 1.387 . S
C1401 C1403 1.390 . S
C1401 H1405 0.950 . S
H1402 C1398 0.950 . S
C1403 C1401 1.390 . S
C1403 C1404 1.387 . S
C1403 H1406 0.950 . S
C1404 C1403 1.387 . S
C1404 C1407 1.387 . S
H1405 C1401 0.950 . S
H1406 C1403 0.950 . S
C1407 C1398 1.390 . S
C1407 H1400 0.950 . S
C1407 C1404 1.387 . S
C1408 C1409 1.387 . S
C1408 H1412 0.950 . S
C1408 C1417 1.390 . S
C1409 C1408 1.387 . S
C1409 C1411 1.387 . S
H1410 C1417 0.950 . S
C1411 C1409 1.387 . S
C1411 C1413 1.390 . S
C1411 H1415 0.950 . S
H1412 C1408 0.950 . S
C1413 C1411 1.390 . S
C1413 C1414 1.387 . S
C1413 H1416 0.950 . S
C1414 C1413 1.387 . S
C1414 C1417 1.387 . S
H1415 C1411 0.950 . S
H1416 C1413 0.950 . S
C1417 C1408 1.390 . S
C1417 H1410 0.950 . S
C1417 C1414 1.387 . S
C1418 C1419 1.387 . S
C1418 H1422 0.950 . S
C1418 C1427 1.390 . S
C1419 C1418 1.387 . S
C1419 C1421 1.387 . S
H1420 C1427 0.950 . S
C1421 C1419 1.387 . S
C1421 C1423 1.390 . S
C1421 H1425 0.950 . S
H1422 C1418 0.950 . S
C1423 C1421 1.390 . S
C1423 C1424 1.387 . S
C1423 H1426 0.950 . S
C1424 C1423 1.387 . S
C1424 C1427 1.387 . S
H1425 C1421 0.950 . S
H1426 C1423 0.950 . S
C1427 C1418 1.390 . S
C1427 H1420 0.950 . S
C1427 C1424 1.387 . S
C954 C334 1.164 . S
C949 N2 1.279 . S
C964 C434 2.038 . S
C959 C7 2.043 . S
C974 C514 1.211 . S
C969 N12 1.463 . S
C979 C16 1.828 . S
C984 C591 1.876 . S
C994 C675 2.095 . S
C989 C30 2.101 1_565 S
C1004 C754 1.031 . S
C999 N35 1.331 . S
C1009 C39 2.006 . S
C1014 C854 1.993 . S
C1024 C934 1.131 . S
C1019 N25 1.167 1_565 S
C1034 C332 1.251 . S
C1029 N58 1.289 . S
C1039 N81 2.019 . S
C1044 C427 2.024 . S
C1054 C518 1.390 . S
C1049 N104 1.253 . S
C1059 N127 1.336 . S
C1064 C586 0.983 . S
C1074 C670 0.840 . S
C1069 N48 1.161 . S
C1084 C752 1.488 . S
C1079 N71 1.381 1_556 S
C1089 N94 1.707 . S
C1094 C847 1.745 . S
C1104 C938 1.560 . S
C1099 N117 1.509 . S
C1109 C85 2.296 . S
C1114 C339 2.292 . S
C1119 C122 2.517 . S
C1124 C668 2.509 . S
C1129 C53 2.000 . S
C1134 C759 2.102 . S
C1144 C850 1.243 . S
C1139 C76 1.553 . S
C1154 C931 1.998 . S
C1149 C99 2.109 . S
C1164 C511 2.045 . S
C1159 C131 2.078 . S
C1174 C584 2.231 . S
C1169 C62 2.249 . S
C1179 C108 1.336 . S
C1184 C430 1.082 . S
C1194 C922 1.143 . S
C1189 N140 1.322 . S
C1199 C145 2.033 . S
C1204 C686 2.028 . S
C1214 C766 1.133 . S
C1209 N150 1.320 . S
C1219 C154 1.827 . S
C1224 C843 1.878 . S
C1234 C423 2.102 . S
C1229 C168 2.108 . S
C1239 N173 1.181 . S
C1244 C502 0.981 . S
C1254 C602 1.999 . S
C1249 C177 2.015 . S
C1264 C346 1.094 . S
C1259 N163 1.157 . S
C1274 C920 1.673 . S
C1269 C200 1.712 . S
C1284 C679 2.300 . S
C1279 N219 2.296 . S
C1289 N242 1.522 . S
C1294 C770 1.674 . S
C1304 C838 1.200 . S
C1299 C269 1.610 . S
C1314 C418 1.032 . S
C1309 C191 1.377 . S
C1319 N209 1.658 . S
C1324 C500 1.760 . S
C1329 N232 1.993 . S
C1334 C595 2.035 . S
C1339 C260 2.042 . S
C1344 C350 2.045 . S
C1349 C223 1.978 . S
C1354 C927 1.975 . S
C1359 N255 2.141 . S
C1364 C416 2.123 . S
C1369 N186 1.693 . S
C1374 C507 1.785 . S
C1384 C598 1.028 . S
C1379 C214 1.238 . S
C1394 C343 1.702 . S
C1389 C237 1.800 . S
C1404 C763 1.686 . S
C1399 N265 1.585 . S
C1414 C836 1.854 . S
C1409 N196 1.829 . S
C1424 C682 0.885 . S
C1419 C246 1.025 . S
