# Generated by pormake.
# Topology nia, (6,6)-cn, num edge types: 1
# Building blocks:
#     Node 0, Type 0, BuildingBlock: KUMJIN_clean_sbu_1, # of connection points: 6
#     Node 1, Type 0, BuildingBlock: KUMJIN_clean_sbu_1, # of connection points: 6
#     Node 2, Type 1, BuildingBlock: MIDCAF_clean_sbu_0, # of connection points: 6
#     Node 3, Type 1, BuildingBlock: MIDCAF_clean_sbu_0, # of connection points: 6
#     Edge 4, Type (0, 1), BuildingBlock: MIFKUJ_clean_linker_0, # of connection points: 2
#     Edge 5, Type (0, 1), BuildingBlock: MIFKUJ_clean_linker_0, # of connection points: 2
#     Edge 6, Type (0, 1), BuildingBlock: MIFKUJ_clean_linker_0, # of connection points: 2
#     Edge 7, Type (0, 1), BuildingBlock: MIFKUJ_clean_linker_0, # of connection points: 2
#     Edge 8, Type (0, 1), BuildingBlock: MIFKUJ_clean_linker_0, # of connection points: 2
#     Edge 9, Type (0, 1), BuildingBlock: MIFKUJ_clean_linker_0, # of connection points: 2
#     Edge 10, Type (0, 1), BuildingBlock: MIFKUJ_clean_linker_0, # of connection points: 2
#     Edge 11, Type (0, 1), BuildingBlock: MIFKUJ_clean_linker_0, # of connection points: 2
#     Edge 12, Type (0, 1), BuildingBlock: MIFKUJ_clean_linker_0, # of connection points: 2
#     Edge 13, Type (0, 1), BuildingBlock: MIFKUJ_clean_linker_0, # of connection points: 2
#     Edge 14, Type (0, 1), BuildingBlock: MIFKUJ_clean_linker_0, # of connection points: 2
#     Edge 15, Type (0, 1), BuildingBlock: MIFKUJ_clean_linker_0, # of connection points: 2
# Relax obj value: 0.166
# Max RMSD: 0.273
# Mean RMSD: 0.199
data_MOF--net-nia--node1-KUMJIN_clean_sbu_1--node2-MIDCAF_clean_sbu_0--edge1-MIFKUJ_clean_linker_0
_symmetry_space_group_name_H-M    P1
_symmetry_Int_Tables_number       1
_symmetry_cell_setting            triclinic
loop_
_symmetry_equiv_pos_as_xyz
'x, y, z'
_cell_length_a     35.276209
_cell_length_b     35.278481
_cell_length_c     40.53837
_cell_angle_alpha  90.037659
_cell_angle_beta   89.918989
_cell_angle_gamma 133.96377
loop_
_atom_site_label
_atom_site_type_symbol
_atom_site_fract_x
_atom_site_fract_y
_atom_site_fract_z
_atom_type_partial_charge
Eu0 Eu 0.01431 0.97429 0.03776 0.0
C1 C 0.94374 0.96206 0.89816 0.0
N2 N 0.99267 0.00394 0.91008 0.0
C3 C 0.03243 0.00434 0.86191 0.0
C4 C 0.93764 0.93827 0.86805 0.0
C5 C 0.03676 0.0265 0.89198 0.0
C6 C 0.98275 0.95975 0.85006 0.0
C7 C 0.84876 0.89934 0.90435 0.0
C8 C 0.89977 0.94242 0.91653 0.0
C9 C 0.84267 0.87462 0.87488 0.0
C10 C 0.88695 0.89399 0.85681 0.0
Eu11 Eu 0.99594 0.03695 0.96187 0.0
N12 N 0.90665 0.96685 0.94522 0.0
C13 C 0.80526 0.8834 0.92153 0.0
C14 C 0.86443 0.95501 0.95975 0.0
C15 C 0.81322 0.91218 0.94887 0.0
H16 H 0.07522 0.06077 0.90128 0.0
H17 H 0.77996 0.90208 0.96121 0.0
H18 H 0.92435 0.93949 0.09279 0.0
H19 H 0.22905 0.11094 0.05108 0.0
H20 H 0.86959 0.97889 0.97936 0.0
H21 H 0.76551 0.85054 0.91297 0.0
H22 H 0.14446 0.0434 0.02367 0.0
H23 H 0.06732 0.0213 0.84797 0.0
H24 H 0.80377 0.84115 0.86545 0.0
H25 H 0.88154 0.8749 0.8339 0.0
H26 H 0.92086 0.96437 0.14893 0.0
H27 H 0.97962 0.94248 0.82686 0.0
H28 H 0.23298 0.14289 0.10626 0.0
N29 N 0.00761 0.99643 0.09077 0.0
C30 C 0.05362 0.03323 0.10742 0.0
C31 C 0.95843 0.9844 0.13744 0.0
C32 C 0.05354 0.04776 0.13984 0.0
C33 C 0.96037 0.97099 0.10547 0.0
C34 C 0.00524 0.02316 0.15465 0.0
N35 N 0.09984 0.04163 0.06053 0.0
C36 C 0.14504 0.05929 0.04654 0.0
C37 C 0.14886 0.09416 0.10901 0.0
C38 C 0.10086 0.05674 0.09181 0.0
C39 C 0.19545 0.11468 0.09373 0.0
C40 C 0.19343 0.09683 0.06252 0.0
H41 H 0.00363 0.03332 0.1795 0.0
H42 H 0.10211 0.09756 0.18143 0.0
H43 H 0.1852 0.13704 0.15491 0.0
O44 O 0.04122 0.9346 0.04652 0.0
O45 O 0.01953 0.04078 0.0503 0.0
O46 O 0.0512 0.09249 0.00345 0.0
O47 O 0.96686 0.90181 0.06627 0.0
O48 O 0.06908 0.0062 0.99336 0.0
O49 O 0.07759 0.0742 0.97686 0.0
O50 O 0.97177 0.07883 0.9498 0.0
O51 O -0.00326 0.97426 0.95073 0.0
O52 O 0.95715 0.92168 0.99637 0.0
O53 O 0.04276 0.10357 0.92812 0.0
O54 O 0.94438 0.00901 0.0076 0.0
O55 O 0.93345 0.93937 0.02335 0.0
C56 C 0.04619 0.08647 0.03573 0.0
C57 C 0.01429 0.89038 0.09807 0.0
C58 C 0.04205 0.85467 0.13003 0.0
C59 C 0.032 0.86782 0.15927 0.0
C60 C 0.00465 0.90329 0.12771 0.0
C61 C 0.01374 0.89232 0.15804 0.0
C62 C 0.0337 0.86654 0.09938 0.0
C63 C 0.0937 0.05003 0.97659 0.0
C64 C 0.00189 0.89927 0.06594 0.0
C65 C 0.10139 0.08594 0.15651 0.0
C66 C 0.14881 0.10874 0.14126 0.0
C67 C 0.96967 0.92855 0.96509 0.0
C68 C 0.02279 0.154 0.91156 0.0
C69 C 0.9942 0.1945 0.88783 0.0
C70 C 0.04477 0.23424 0.87412 0.0
C71 C 0.07291 0.19423 0.89761 0.0
C72 C 0.98355 0.15439 0.90671 0.0
C73 C 0.08374 0.23409 0.87911 0.0
C74 C 0.91887 0.96493 0.02429 0.0
C75 C 0.01161 0.11101 0.92991 0.0
H76 H 0.03864 0.85938 0.1831 0.0
H77 H 0.98927 0.92109 0.12763 0.0
H78 H 0.0061 0.90237 0.18068 0.0
H79 H 0.04099 0.85607 0.07674 0.0
H80 H 0.05404 0.26507 0.85898 0.0
H81 H 0.1038 0.19482 0.90087 0.0
H82 H 0.94486 0.1235 0.91746 0.0
H83 H 0.1224 0.26473 0.86831 0.0
Eu84 Eu 0.04477 -0.0001 0.46509 0.0
C85 C 0.0325 0.0585 0.60635 0.0
N86 N 0.99544 0.01165 0.59052 0.0
C87 C 0.98233 0.96469 0.63889 0.0
C88 C 0.04711 0.05999 0.63906 0.0
C89 C 0.96947 0.96503 0.60638 0.0
C90 C 0.02154 0.01235 0.65525 0.0
C91 C 0.09552 0.15399 0.60554 0.0
C92 C 0.05674 0.10509 0.58946 0.0
C93 C 0.11088 0.15551 0.63784 0.0
C94 C 0.0868 0.10871 0.65453 0.0
Eu95 Eu 0.97406 0.01596 0.53651 0.0
N96 N 0.04114 0.10267 0.55806 0.0
C97 C 0.11668 0.20001 0.58909 0.0
C98 C 0.05858 0.14731 0.54329 0.0
C99 C 0.09754 0.19654 0.55807 0.0
H100 H 0.9388 0.9282 0.59384 0.0
H101 H 0.11182 0.23174 0.54586 0.0
H102 H 0.0705 0.07644 0.40193 0.0
H103 H 0.92072 0.78561 0.46526 0.0
H104 H 0.04167 0.14574 0.52065 0.0
H105 H 0.14621 0.23822 0.60067 0.0
H106 H 0.99315 0.87633 0.48408 0.0
H107 H 0.96207 0.9277 0.6513 0.0
H108 H 0.14077 0.19274 0.6504 0.0
H109 H 0.09885 0.11062 0.67953 0.0
H110 H 0.03492 0.06628 0.34655 0.0
H111 H 0.03168 0.01194 0.68037 0.0
H112 H 0.87079 0.76783 0.41508 0.0
N113 N 0.01553 0.99423 0.41124 0.0
C114 C 0.97582 0.9448 0.39914 0.0
C115 C 0.01781 0.03185 0.36114 0.0
C116 C 0.95387 0.9372 0.36789 0.0
C117 C 0.03792 0.03756 0.3924 0.0
C118 C 0.97517 0.9815 0.349 0.0
N119 N 0.98006 0.91022 0.44782 0.0
C120 C 0.96997 0.8695 0.46329 0.0
C121 C 0.91631 0.85023 0.40581 0.0
C122 C 0.9569 0.90177 0.41822 0.0
C123 C 0.90173 0.80794 0.42378 0.0
C124 C 0.92964 0.81778 0.45219 0.0
H125 H 0.95934 0.97723 0.32489 0.0
H126 H 0.89371 0.87929 0.33273 0.0
H127 H 0.86114 0.80319 0.36576 0.0
O128 O 0.09313 0.98143 0.45933 0.0
O129 O 0.98161 -0.00162 0.45001 0.0
O130 O 0.92322 0.96129 0.4935 0.0
O131 O 0.11382 0.0481 0.4336 0.0
O132 O 0.01096 0.94666 0.51035 0.0
O133 O 0.93978 0.93539 0.52194 0.0
O134 O 0.93118 0.04038 0.54523 0.0
O135 O 0.03824 0.01891 0.55186 0.0
O136 O 0.09489 0.05595 0.50761 0.0
O137 O 0.90348 0.96785 0.5663 0.0
O138 O 0.00751 0.07031 0.49186 0.0
O139 O 0.07745 0.08016 0.47922 0.0
C140 C 0.93377 0.969 0.46173 0.0
C141 C 0.17273 0.03638 0.42445 0.0
C142 C 0.22397 0.0164 0.40785 0.0
C143 C 0.26328 0.06802 0.39552 0.0
C144 C 0.21272 0.08768 0.412 0.0
C145 C 0.25765 0.10329 0.39769 0.0
C146 C 0.17851 0.00075 0.42237 0.0
C147 C 0.9647 0.92026 0.52431 0.0
C148 C 0.12552 0.02106 0.43935 0.0
C149 C 0.91159 0.88588 0.35645 0.0
C150 C 0.89287 0.84254 0.37535 0.0
C151 C 0.08538 0.04627 0.53934 0.0
C152 C 0.85143 0.98647 0.58034 0.0
C153 C 0.80898 0.01342 0.60382 0.0
C154 C 0.77259 0.96406 0.61979 0.0
C155 C 0.81336 0.93718 0.59574 0.0
C156 C 0.84839 0.02405 0.58377 0.0
C157 C 0.77428 0.92617 0.61522 0.0
C158 C 0.0523 0.09504 0.4762 0.0
C159 C 0.89674 -0.00053 0.56397 0.0
H160 H 0.29816 0.08098 0.38362 0.0
H161 H 0.20938 0.11594 0.41339 0.0
H162 H 0.28812 0.14284 0.38805 0.0
H163 H 0.1479 0.96119 0.43203 0.0
H164 H 0.74317 0.95458 0.63659 0.0
H165 H 0.81455 0.90742 0.59352 0.0
H166 H 0.8773 0.06161 0.57138 0.0
H167 H 0.7459 0.88849 0.62759 0.0
Zn168 Zn 0.36482 0.68225 0.19257 0.0
Zn169 Zn 0.355 0.65196 0.31728 0.0
Zn170 Zn 0.3572 0.66166 0.25521 0.0
C171 C 0.45566 0.70284 0.29921 0.0
C172 C 0.28164 0.5509 0.29353 0.0
O173 O 0.3211 0.6935 0.24464 0.0
O174 O 0.32932 0.70699 0.19067 0.0
C175 C 0.46618 0.73959 0.21124 0.0
O176 O 0.43849 0.70559 0.27215 0.0
O177 O 0.42451 0.67571 0.323 0.0
O178 O 0.29178 0.57558 0.31983 0.0
O179 O 0.30507 0.57625 0.26641 0.0
O180 O 0.4417 0.73551 0.18668 0.0
O181 O 0.44116 0.71405 0.23807 0.0
O182 O 0.30901 0.58376 0.2316 0.0
O183 O 0.32513 0.60842 0.17928 0.0
C184 C 0.30357 0.5725 0.20069 0.0
O185 O 0.32891 0.69552 0.27869 0.0
O186 O 0.34902 0.70118 0.33126 0.0
C187 C 0.31351 0.70798 0.21825 0.0
C188 C 0.3326 0.71088 0.30842 0.0
Zn189 Zn 0.65282 0.34721 0.81523 0.0
Zn190 Zn 0.65676 0.34786 0.69138 0.0
Zn191 Zn 0.65859 0.35295 0.75242 0.0
C192 C 0.70237 0.44892 0.70649 0.0
C193 C 0.554 0.27775 0.70696 0.0
O194 O 0.68791 0.31683 0.76983 0.0
O195 O 0.66723 0.30295 0.82283 0.0
C196 C 0.72658 0.45422 0.79935 0.0
O197 O 0.70541 0.43533 0.73516 0.0
O198 O 0.67806 0.41555 0.68349 0.0
O199 O 0.58132 0.28415 0.68335 0.0
O200 O 0.57652 0.30281 0.73428 0.0
O201 O 0.70893 0.42338 0.82353 0.0
O202 O 0.71135 0.43589 0.76977 0.0
O203 O 0.57507 0.30514 0.76867 0.0
O204 O 0.58079 0.31548 0.82279 0.0
C205 C 0.55361 0.29754 0.79684 0.0
O206 O 0.69368 0.32245 0.73528 0.0
O207 O 0.70938 0.34448 0.68254 0.0
C208 C 0.6853 0.29815 0.79806 0.0
C209 C 0.71401 0.32653 0.70739 0.0
H210 H 0.13366 0.88933 0.10558 0.0
H211 H 0.17274 0.85479 0.11899 0.0
H212 H 0.03217 0.72675 0.17287 0.0
H213 H 0.99415 0.76243 0.16046 0.0
H214 H 0.11285 0.77459 0.21019 0.0
H215 H 0.07234 0.70793 0.10031 0.0
H216 H 0.07029 0.71101 0.03965 0.0
H217 H 0.23929 0.8259 0.03655 0.0
H218 H 0.24242 0.82412 0.09725 0.0
H219 H 0.21265 0.65045 0.23802 0.0
H220 H 0.15881 0.66856 0.22431 0.0
H221 H 0.29547 0.81879 0.18343 0.0
H222 H 0.34892 0.80013 0.19645 0.0
H223 H 0.20935 0.75043 0.13942 0.0
H224 H 0.21998 0.8436 0.24922 0.0
H225 H 0.21011 0.84403 0.30936 0.0
H226 H 0.09457 0.67504 0.31077 0.0
H227 H 0.10162 0.6737 0.25026 0.0
C228 C 0.11079 0.85309 0.11954 0.0
C229 C 0.06123 0.82859 0.13223 0.0
C230 C 0.13296 0.83322 0.12711 0.0
C231 C 0.10537 0.78807 0.14695 0.0
C232 C 0.05431 0.76175 0.15768 0.0
C233 C 0.03258 0.78202 0.15057 0.0
C234 C 0.13197 0.77227 0.16016 0.0
C235 C 0.13298 0.76823 0.1945 0.0
C236 C 0.1593 0.76509 0.13994 0.0
C237 C 0.1576 0.76618 0.1034 0.0
C238 C 0.10909 0.73417 0.08673 0.0
C239 C 0.10773 0.73562 0.05232 0.0
C240 C 0.15463 0.7687 0.03426 0.0
C241 C 0.20299 0.80031 0.05057 0.0
C242 C 0.20457 0.79905 0.08498 0.0
C243 C 0.23148 0.68829 0.2275 0.0
C244 C 0.28496 0.72441 0.21885 0.0
C245 C 0.20074 0.69867 0.21969 0.0
C246 C 0.22328 0.74547 0.20334 0.0
C247 C 0.27738 0.78268 0.19631 0.0
C248 C 0.30791 0.77215 0.20388 0.0
C249 C 0.18991 0.75278 0.18933 0.0
C250 C 0.18822 0.7558 0.15484 0.0
C251 C 0.16138 0.75851 0.20925 0.0
C252 C 0.16284 0.75858 0.24556 0.0
C253 C 0.19339 0.80659 0.26252 0.0
C254 C 0.18785 0.80701 0.29658 0.0
C255 C 0.15234 0.75963 0.31392 0.0
C256 C 0.12243 0.71169 0.29729 0.0
C257 C 0.12714 0.71107 0.2631 0.0
H258 H 0.14739 0.7601 0.34012 0.0
H259 H 0.15349 0.76977 0.00762 0.0
H260 H 0.07874 0.01352 0.60191 0.0
H261 H 0.1503 0.05173 0.64064 0.0
H262 H 0.26304 0.15818 0.56469 0.0
H263 H 0.19121 0.12343 0.52698 0.0
H264 H 0.22314 0.05497 0.64448 0.0
H265 H 0.37305 0.26898 0.59296 0.0
H266 H 0.37231 0.33201 0.56761 0.0
H267 H 0.22487 0.2543 0.61479 0.0
H268 H 0.22451 0.19065 0.64041 0.0
H269 H 0.48749 0.19053 0.66872 0.0
H270 H 0.39843 0.14596 0.65184 0.0
H271 H 0.40424 0.24846 0.71496 0.0
H272 H 0.49416 0.29402 0.73139 0.0
H273 H 0.37596 0.24792 0.65425 0.0
H274 H 0.31763 0.11877 0.73233 0.0
H275 H 0.31417 0.05635 0.76337 0.0
H276 H 0.27136 0.9668 0.67514 0.0
H277 H 0.27512 0.02897 0.64342 0.0
C278 C 0.11868 0.04627 0.59385 0.0
C279 C 0.12914 0.06683 0.56184 0.0
C280 C 0.15972 0.06752 0.61585 0.0
C281 C 0.21228 0.1089 0.60599 0.0
C282 C 0.22287 0.12764 0.57339 0.0
C283 C 0.18174 0.10725 0.55166 0.0
C284 C 0.25609 0.13147 0.62938 0.0
C285 C 0.25634 0.09717 0.64677 0.0
C286 C 0.29868 0.18655 0.6335 0.0
C287 C 0.29868 0.22491 0.61846 0.0
C288 C 0.34054 0.26544 0.59803 0.0
C289 C 0.34018 0.30113 0.58351 0.0
C290 C 0.29837 0.29694 0.58945 0.0
C291 C 0.25691 0.25714 0.60999 0.0
C292 C 0.25692 0.22119 0.62447 0.0
C293 C 0.4693 0.20276 0.67954 0.0
C294 C 0.4974 0.2453 0.7016 0.0
C295 C 0.41831 0.17712 0.67003 0.0
C296 C 0.39451 0.19365 0.68229 0.0
C297 C 0.42179 0.23494 0.70531 0.0
C298 C 0.47289 0.26057 0.71491 0.0
C299 C 0.34379 0.17139 0.66812 0.0
C300 C 0.34226 0.20574 0.65243 0.0
C301 C 0.29933 0.11647 0.66652 0.0
C302 C 0.29692 0.07876 0.68542 0.0
C303 C 0.30783 0.08599 0.71946 0.0
C304 C 0.30577 0.05061 0.7372 0.0
C305 C 0.29267 0.00773 0.72122 0.0
C306 C 0.28149 5e-05 0.68748 0.0
C307 C 0.28347 0.03529 0.66961 0.0
H308 H 0.2911 0.98039 0.73499 0.0
H309 H 0.29816 0.32462 0.5782 0.0
H310 H 0.12966 0.18956 0.01998 0.0
H311 H 0.17079 0.26694 0.05411 0.0
H312 H 0.06053 0.16677 0.13249 0.0
H313 H 0.01811 0.08921 0.098 0.0
H314 H 0.07208 0.2516 0.12028 0.0
H315 H 0.19206 0.22857 0.14252 0.0
H316 H 0.25268 0.21879 0.12712 0.0
H317 H 0.34224 0.3573 0.06689 0.0
H318 H 0.28343 0.36913 0.08277 0.0
H319 H 0.21979 0.47718 0.22988 0.0
H320 H 0.17245 0.38875 0.20821 0.0
H321 H 0.27366 0.45888 0.12261 0.0
H322 H 0.32142 0.54614 0.14439 0.0
H323 H 0.26304 0.38225 0.14564 0.0
H324 H 0.15399 0.4126 0.12221 0.0
H325 H 0.09823 0.42961 0.1329 0.0
H326 H 0.98623 0.28195 0.18378 0.0
H327 H 0.04192 0.26444 0.17405 0.0
C328 C 0.11413 0.18398 0.04447 0.0
C329 C 0.07105 0.13322 0.05647 0.0
C330 C 0.13798 0.22821 0.06408 0.0
C331 C 0.11931 0.22259 0.09608 0.0
C332 C 0.07589 0.17199 0.108 0.0
C333 C 0.052 0.12769 0.08837 0.0
C334 C 0.14416 0.26983 0.1165 0.0
C335 C 0.11358 0.27973 0.12658 0.0
C336 C 0.1986 0.30726 0.12362 0.0
C337 C 0.23321 0.29949 0.11365 0.0
C338 C 0.22453 0.25674 0.12586 0.0
C339 C 0.25856 0.25087 0.11709 0.0
C340 C 0.30074 0.28687 0.09573 0.0
C341 C 0.30945 0.32932 0.08336 0.0
C342 C 0.27607 0.33589 0.09243 0.0
C343 C 0.23245 0.47348 0.20685 0.0
C344 C 0.2747 0.51856 0.18908 0.0
C345 C 0.205 0.42304 0.19426 0.0
C346 C 0.21948 0.4172 0.16372 0.0
C347 C 0.26189 0.4623 0.14626 0.0
C348 C 0.289 0.51225 0.1587 0.0
C349 C 0.19122 0.36468 0.14927 0.0
C350 C 0.22121 0.35373 0.14019 0.0
C351 C 0.13655 0.32725 0.14221 0.0
C352 C 0.1032 0.33802 0.1484 0.0
C353 C 0.11811 0.38421 0.13634 0.0
C354 C 0.08632 0.39384 0.14206 0.0
C355 C 0.03901 0.35716 0.15935 0.0
C356 C 0.02319 0.31059 0.17072 0.0
C357 C 0.05493 0.30087 0.16516 0.0
H358 H 0.01438 0.36462 0.16368 0.0
H359 H 0.32686 0.28203 0.08893 0.0
H360 H 0.72162 0.99622 0.61801 0.0
H361 H 0.71842 0.0592 0.63495 0.0
H362 H 0.88448 0.18645 0.61446 0.0
H363 H 0.88996 0.12269 0.60267 0.0
H364 H 0.87016 0.21488 0.66295 0.0
H365 H 0.77652 0.15238 0.5639 0.0
H366 H 0.71378 0.09035 0.52041 0.0
H367 H 0.58429 0.02188 0.58605 0.0
H368 H 0.64624 0.08297 0.63013 0.0
H369 H 0.80515 0.37334 0.67534 0.0
H370 H 0.83523 0.33134 0.65733 0.0
H371 H 0.70391 0.18898 0.70797 0.0
H372 H 0.67428 0.23101 0.72642 0.0
H373 H 0.71241 0.18244 0.63693 0.0
H374 H 0.82323 0.25942 0.7354 0.0
H375 H 0.89594 0.33165 0.77113 0.0
H376 H 0.0057 0.3915 0.69187 0.0
H377 H 0.93387 0.31948 0.65583 0.0
C378 C 0.75807 0.03737 0.61775 0.0
C379 C 0.80632 0.05356 0.60944 0.0
C380 C 0.75577 0.07388 0.62656 0.0
C381 C 0.80083 0.12817 0.62514 0.0
C382 C 0.84889 0.14489 0.61571 0.0
C383 C 0.85176 0.10809 0.60835 0.0
C384 C 0.79756 0.16657 0.6353 0.0
C385 C 0.8362 0.20838 0.6565 0.0
C386 C 0.75379 0.15916 0.6268 0.0
C387 C 0.71613 0.12218 0.60039 0.0
C388 C 0.73468 0.12389 0.56914 0.0
C389 C 0.69924 0.08891 0.54437 0.0
C390 C 0.64509 0.05217 0.55048 0.0
C391 C 0.62625 0.05038 0.58136 0.0
C392 C 0.66152 0.08525 0.60623 0.0
C393 C 0.7838 0.33361 0.68345 0.0
C394 C 0.73783 0.30545 0.70255 0.0
C395 C 0.80102 0.30978 0.67321 0.0
C396 C 0.77193 0.25718 0.68149 0.0
C397 C 0.7272 0.22977 0.70167 0.0
C398 C 0.71037 0.25378 0.71226 0.0
C399 C 0.78344 0.22834 0.66555 0.0
C400 C 0.74656 0.18896 0.64284 0.0
C401 C 0.8302 0.24007 0.67127 0.0
C402 C 0.87296 0.28412 0.69286 0.0
C403 C 0.86275 0.28814 0.72555 0.0
C404 C 0.90381 0.32895 0.74588 0.0
C405 C 0.95525 0.36623 0.73372 0.0
C406 C 0.96581 0.36264 0.70126 0.0
C407 C 0.92496 0.32171 0.68093 0.0
H408 H 0.98696 0.3978 0.74949 0.0
H409 H 0.61772 0.02511 0.53127 0.0
H410 H 0.8429 0.86482 0.04764 0.0
H411 H 0.77221 0.83054 0.08614 0.0
H412 H 0.81803 0.98014 0.08539 0.0
H413 H 0.89089 0.01565 0.04777 0.0
H414 H 0.79766 0.9446 0.14649 0.0
H415 H 0.70803 0.87076 0.04352 0.0
H416 H 0.68329 0.82322 0.99099 0.0
H417 H 0.61713 0.68314 0.04379 0.0
H418 H 0.6423 0.73011 0.09667 0.0
H419 H 0.54117 0.84026 0.1902 0.0
H420 H 0.62762 0.88332 0.16784 0.0
H421 H 0.60305 0.75013 0.19712 0.0
H422 H 0.51687 0.70757 0.22061 0.0
H423 H 0.61412 0.77602 0.12481 0.0
H424 H 0.70612 0.85288 0.22779 0.0
H425 H 0.73331 0.90292 0.27954 0.0
H426 H 0.79079 0.03835 0.22473 0.0
H427 H 0.7646 0.98924 0.17262 0.0
C428 C 0.83782 0.89044 0.05546 0.0
C429 C 0.87257 0.94303 0.04469 0.0
C430 C 0.7972 0.87068 0.07745 0.0
C431 C 0.78933 0.90252 0.08849 0.0
C432 C 0.82335 0.95483 0.07727 0.0
C433 C 0.86459 0.97491 0.0555 0.0
C434 C 0.74578 0.88102 0.11189 0.0
C435 C 0.75743 0.90807 0.1415 0.0
C436 C 0.69337 0.83273 0.10584 0.0
C437 C 0.67749 0.80412 0.07407 0.0
C438 C 0.68852 0.82992 0.04394 0.0
C439 C 0.6744 0.80307 0.0141 0.0
C440 C 0.64876 0.75023 0.01405 0.0
C441 C 0.63705 0.72409 0.04387 0.0
C442 C 0.65121 0.7508 0.07379 0.0
C443 C 0.55528 0.82126 0.19312 0.0
C444 C 0.52271 0.77081 0.20712 0.0
C445 C 0.60458 0.84583 0.18034 0.0
C446 C 0.62153 0.81978 0.1807 0.0
C447 C 0.59064 0.77089 0.19675 0.0
C448 C 0.54167 0.74676 0.21026 0.0
C449 C 0.66617 0.83944 0.1593 0.0
C450 C 0.65451 0.81226 0.12984 0.0
C451 C 0.71821 0.88786 0.16525 0.0
C452 C 0.73287 0.91721 0.19642 0.0
C453 C 0.72407 0.89315 0.22687 0.0
C454 C 0.73951 0.9214 0.25623 0.0
C455 C 0.76331 0.97362 0.25547 0.0
C456 C 0.77218 0.99784 0.2253 0.0
C457 C 0.75731 0.9699 0.19583 0.0
H458 H 0.77511 0.99539 0.27823 0.0
H459 H 0.63788 0.72951 0.99092 0.0
H460 H 0.01309 0.9023 0.56418 0.0
H461 H 0.97056 0.8266 0.6007 0.0
H462 H 0.81828 0.7554 0.56401 0.0
H463 H 0.86063 0.8322 0.52904 0.0
H464 H 0.81097 0.74444 0.62569 0.0
H465 H 0.88333 0.71423 0.54201 0.0
H466 H 0.95285 0.73584 0.50636 0.0
H467 H 0.03624 0.7541 0.59173 0.0
H468 H 0.96758 0.73341 0.62795 0.0
H469 H 0.66128 0.47505 0.6683 0.0
H470 H 0.70757 0.55938 0.64256 0.0
H471 H 0.84662 0.62934 0.69881 0.0
H472 H 0.80041 0.54329 0.72388 0.0
H473 H 0.86367 0.64593 0.63242 0.0
H474 H 0.8004 0.72157 0.70552 0.0
H475 H 0.72734 0.69939 0.7371 0.0
H476 H 0.61815 0.58895 0.66212 0.0
H477 H 0.69082 0.61061 0.63034 0.0
C478 C 0.97059 0.87006 0.56374 0.0
C479 C 0.94001 0.87273 0.54381 0.0
C480 C 0.94628 0.82681 0.58456 0.0
C481 C 0.89108 0.78481 0.58497 0.0
C482 C 0.86082 0.78728 0.56439 0.0
C483 C 0.885 0.831 0.54426 0.0
C484 C 0.86436 0.73884 0.60733 0.0
C485 C 0.82235 0.72272 0.62684 0.0
C486 C 0.87941 0.7107 0.60943 0.0
C487 C 0.92059 0.72282 0.58771 0.0
C488 C 0.91668 0.72322 0.5532 0.0
C489 C 0.95591 0.73527 0.53288 0.0
C490 C -0.001 0.74646 0.54677 0.0
C491 C 0.00288 0.74551 0.58101 0.0
C492 C 0.96381 0.73361 0.60144 0.0
C493 C 0.7011 0.50889 0.67625 0.0
C494 C 0.72698 0.50284 0.69863 0.0
C495 C 0.72733 0.55757 0.66185 0.0
C496 C 0.77984 0.60187 0.6699 0.0
C497 C 0.80545 0.5963 0.6931 0.0
C498 C 0.77901 0.54725 0.70767 0.0
C499 C 0.80975 0.65103 0.65021 0.0
C500 C 0.85268 0.66799 0.63134 0.0
C501 C 0.79438 0.67888 0.64771 0.0
C502 C 0.75035 0.66464 0.66694 0.0
C503 C 0.76054 0.69122 0.69642 0.0
C504 C 0.71932 0.67927 0.71414 0.0
C505 C 0.66789 0.64186 0.70201 0.0
C506 C 0.6578 0.61703 0.67188 0.0
C507 C 0.69897 0.62891 0.65414 0.0
H508 H 0.63602 0.63275 0.71569 0.0
H509 H 0.02933 0.75575 0.531 0.0
H510 H 0.15015 0.91244 0.38915 0.0
H511 H 0.16527 0.85581 0.37637 0.0
H512 H 0.32797 0.98043 0.405 0.0
H513 H 0.31304 0.03667 0.4184 0.0
H514 H 0.31707 0.94361 0.34331 0.0
H515 H 0.24838 0.87665 0.45016 0.0
H516 H 0.18581 0.83817 0.49637 0.0
H517 H 0.07099 0.69551 0.44134 0.0
H518 H 0.13244 0.73317 0.39462 0.0
H519 H 0.39457 0.80371 0.34041 0.0
H520 H 0.37171 0.85183 0.35902 0.0
H521 H 0.21777 0.73337 0.31529 0.0
H522 H 0.24083 0.68506 0.29657 0.0
H523 H 0.22273 0.76481 0.38525 0.0
H524 H 0.29411 0.83791 0.27677 0.0
H525 H 0.36061 0.87991 0.23256 0.0
H526 H 0.47479 0.01257 0.29516 0.0
H527 H 0.4092 0.9713 0.33994 0.0
C528 C 0.18879 0.92727 0.39349 0.0
C529 C 0.23057 0.97928 0.4044 0.0
C530 C 0.19739 0.89494 0.3861 0.0
C531 C 0.24782 0.91409 0.38959 0.0
C532 C 0.28888 0.96507 0.40189 0.0
C533 C 0.28029 0.9972 0.40941 0.0
C534 C 0.2591 0.88294 0.37786 0.0
C535 C 0.29681 0.90475 0.3528 0.0
C536 C 0.23203 0.83191 0.38998 0.0
C537 C 0.19478 0.80854 0.41829 0.0
C538 C 0.20951 0.8374 0.44759 0.0
C539 C 0.17426 0.81559 0.47401 0.0
C540 C 0.12428 0.7646 0.47169 0.0
C541 C 0.1096 0.73517 0.44302 0.0
C542 C 0.14467 0.75682 0.4165 0.0
C543 C 0.35612 0.78841 0.33442 0.0
C544 C 0.31975 0.7415 0.31646 0.0
C545 C 0.34306 0.81571 0.34514 0.0
C546 C 0.29309 0.79608 0.33853 0.0
C547 C 0.25653 0.74909 0.32059 0.0
C548 C 0.26994 0.72207 0.30943 0.0
C549 C 0.27979 0.8253 0.35041 0.0
C550 C 0.24246 0.8035 0.37577 0.0
C551 C 0.30734 0.87654 0.33882 0.0
C552 C 0.34679 0.9013 0.31184 0.0
C553 C 0.33346 0.87586 0.28124 0.0
C554 C 0.37097 0.89955 0.25604 0.0
C555 C 0.42186 0.94873 0.26107 0.0
C556 C 0.43535 0.97444 0.2913 0.0
C557 C 0.39801 0.95096 0.31658 0.0
H558 H 0.45082 0.96697 0.24152 0.0
H559 H 0.09704 0.74778 0.49218 0.0
H560 H 0.17724 0.15145 0.9588 0.0
H561 H 0.24504 0.18391 0.91805 0.0
H562 H 0.17245 0.02477 0.89997 0.0
H563 H 0.10659 0.99272 0.94261 0.0
H564 H 0.27046 0.08302 0.89853 0.0
H565 H 0.16179 0.09721 0.84447 0.0
H566 H 0.11047 0.12064 0.83849 0.0
H567 H 0.25202 0.28452 0.84782 0.0
H568 H 0.304 0.26203 0.85434 0.0
H569 H 0.46722 0.19805 0.77534 0.0
H570 H 0.3755 0.14521 0.79288 0.0
H571 H 0.42391 0.27989 0.84458 0.0
H572 H 0.51474 0.33219 0.82718 0.0
H573 H 0.32399 0.21801 0.81721 0.0
H574 H 0.42454 0.19601 0.88426 0.0
H575 H 0.47435 0.17089 0.8901 0.0
H576 H 0.3425 0.01677 0.85225 0.0
H577 H 0.29217 0.04129 0.84589 0.0
C578 C 0.17608 0.12351 0.9463 0.0
C579 C 0.1367 0.06963 0.95376 0.0
C580 C 0.21443 0.14196 0.92264 0.0
C581 C 0.21307 0.10671 0.90495 0.0
C582 C 0.17426 0.05283 0.91297 0.0
C583 C 0.1367 0.03452 0.93739 0.0
C584 C 0.2533 0.12664 0.879 0.0
C585 C 0.28104 0.11147 0.88023 0.0
C586 C 0.26751 0.16382 0.85488 0.0
C587 C 0.2367 0.17781 0.85007 0.0
C588 C 0.18187 0.13819 0.84538 0.0
C589 C 0.15268 0.15131 0.84192 0.0
C590 C 0.17795 0.204 0.84286 0.0
C591 C 0.23249 0.24371 0.8471 0.0
C592 C 0.26185 0.23079 0.85062 0.0
C593 C 0.45767 0.21655 0.7895 0.0
C594 C 0.49767 0.269 0.8 0.0
C595 C 0.40547 0.18642 0.7996 0.0
C596 C 0.39301 0.20851 0.82035 0.0
C597 C 0.4325 0.26205 0.82854 0.0
C598 C 0.48439 0.29185 0.81871 0.0
C599 C 0.34155 0.17539 0.83765 0.0
C600 C 0.3119 0.18821 0.83487 0.0
C601 C 0.32498 0.13549 0.85999 0.0
C602 C 0.35485 0.12056 0.86438 0.0
C603 C 0.40631 0.15684 0.8771 0.0
C604 C 0.43461 0.14273 0.8805 0.0
C605 C 0.41164 0.09229 0.8715 0.0
C606 C 0.36025 0.05583 0.85918 0.0
C607 C 0.33182 0.06979 0.8557 0.0
H608 H 0.43362 0.08144 0.87412 0.0
H609 H 0.15528 0.21408 0.84024 0.0
H610 H 0.14622 0.15828 0.44335 0.0
H611 H 0.18072 0.2283 0.40422 0.0
H612 H 0.04386 0.20373 0.41936 0.0
H613 H 0.00776 0.13166 0.45759 0.0
H614 H 0.06784 0.21865 0.35607 0.0
H615 H 0.16479 0.30708 0.45579 0.0
H616 H 0.21944 0.3266 0.50339 0.0
H617 H 0.34277 0.37617 0.43792 0.0
H618 H 0.28845 0.35608 0.38988 0.0
H619 H 0.1833 0.47964 0.31886 0.0
H620 H 0.13913 0.39225 0.33994 0.0
H621 H 0.26277 0.40833 0.29936 0.0
H622 H 0.30621 0.49538 0.27721 0.0
H623 H 0.24784 0.39547 0.37108 0.0
H624 H 0.15107 0.31268 0.27135 0.0
H625 H 0.09479 0.29239 0.22486 0.0
H626 H 0.97039 0.2354 0.29209 0.0
H627 H 0.02627 0.25571 0.33916 0.0
C628 C 0.12337 0.16772 0.43847 0.0
C629 C 0.07427 0.13946 0.45378 0.0
C630 C 0.14329 0.20796 0.41609 0.0
C631 C 0.1153 0.22189 0.40913 0.0
C632 C 0.06621 0.19373 0.42433 0.0
C633 C 0.04584 0.15285 0.44642 0.0
C634 C 0.13759 0.2662 0.3863 0.0
C635 C 0.10699 0.25745 0.35958 0.0
C636 C 0.18921 0.31659 0.39035 0.0
C637 C 0.22233 0.32959 0.41922 0.0
C638 C 0.20344 0.32184 0.45153 0.0
C639 C 0.23436 0.33302 0.4786 0.0
C640 C 0.2845 0.3525 0.47368 0.0
C641 C 0.30389 0.36101 0.44169 0.0
C642 C 0.27306 0.34976 0.41453 0.0
C643 C 0.19965 0.46338 0.31314 0.0
C644 C 0.24775 0.49374 0.29625 0.0
C645 C 0.17459 0.41365 0.3253 0.0
C646 C 0.1979 0.39407 0.32138 0.0
C647 C 0.24417 0.42282 0.30255 0.0
C648 C 0.26866 0.47219 0.28969 0.0
C649 C 0.17799 0.34787 0.34104 0.0
C650 C 0.20894 0.35645 0.36738 0.0
C651 C 0.12656 0.29769 0.33691 0.0
C652 C 0.09304 0.28613 0.3088 0.0
C653 C 0.11192 0.29633 0.27627 0.0
C654 C 0.08 0.2847 0.24978 0.0
C655 C 0.02903 0.26278 0.25549 0.0
C656 C 0.00989 0.25242 0.28772 0.0
C657 C 0.04164 0.26387 0.31431 0.0
H658 H 0.00423 0.25355 0.23497 0.0
H659 H 0.30836 0.36108 0.49467 0.0
H660 H 0.00542 0.27936 0.88759 0.0
H661 H 0.94016 0.2816 0.87271 0.0
H662 H 0.8234 0.11289 0.8601 0.0
H663 H 0.88954 0.11065 0.87354 0.0
H664 H 0.81699 0.156 0.8112 0.0
H665 H 0.81888 0.16992 0.92677 0.0
H666 H 0.85604 0.2022 0.98264 0.0
H667 H 0.92364 0.35647 0.95621 0.0
H668 H 0.88753 0.32533 0.9 0.0
H669 H 0.64487 0.2173 0.83948 0.0
H670 H 0.68264 0.1819 0.85388 0.0
H671 H 0.80668 0.28538 0.78304 0.0
H672 H 0.77035 0.32257 0.76936 0.0
H673 H 0.79235 0.25597 0.87714 0.0
H674 H 0.81759 0.18076 0.75555 0.0
H675 H 0.768 0.1311 0.70522 0.0
H676 H 0.62739 0.07949 0.74809 0.0
H677 H 0.67487 0.12559 0.7996 0.0
C678 C 0.96593 0.24267 0.88156 0.0
C679 C 0.95285 0.19485 0.88162 0.0
C680 C 0.92842 0.24394 0.8734 0.0
C681 C 0.87662 0.19735 0.8656 0.0
C682 C 0.86308 0.14935 0.86609 0.0
C683 C 0.90079 0.14807 0.87411 0.0
C684 C 0.83758 0.1996 0.85585 0.0
C685 C 0.81156 0.17796 0.82544 0.0
C686 C 0.82885 0.22627 0.87528 0.0
C687 C 0.85078 0.24534 0.90907 0.0
C688 C 0.84201 0.21084 0.93278 0.0
C689 C 0.86283 0.22891 0.96453 0.0
C690 C 0.89226 0.28137 0.97295 0.0
C691 C 0.90085 0.31585 0.94965 0.0
C692 C 0.88016 0.29798 0.91785 0.0
C693 C 0.67965 0.23178 0.82645 0.0
C694 C 0.7041 0.27194 0.80273 0.0
C695 C 0.70097 0.21133 0.83461 0.0
C696 C 0.74674 0.23012 0.81889 0.0
C697 C 0.77038 0.26909 0.79452 0.0
C698 C 0.74948 0.29018 0.78666 0.0
C699 C 0.77409 0.215 0.83151 0.0
C700 C 0.79784 0.23421 0.86264 0.0
C701 C 0.77932 0.18476 0.81299 0.0
C702 C 0.75054 0.15835 0.78143 0.0
C703 C 0.77607 0.15886 0.75442 0.0
C704 C 0.74824 0.13111 0.72561 0.0
C705 C 0.69485 0.10295 0.7232 0.0
C706 C 0.66895 0.10186 0.74983 0.0
C707 C 0.6964 0.12893 0.77889 0.0
H708 H 0.67352 0.08175 0.70077 0.0
H709 H 0.90833 0.29529 0.99755 0.0
H710 H 0.9364 0.01343 0.40589 0.0
H711 H 0.86474 0.97375 0.36626 0.0
H712 H 0.76289 0.83207 0.42494 0.0
H713 H 0.83442 0.87174 0.46467 0.0
H714 H 0.76052 0.81663 0.3536 0.0
H715 H 0.75181 0.91432 0.43426 0.0
H716 H 0.79039 0.9958 0.46347 0.0
H717 H 0.81858 0.07105 0.37093 0.0
H718 H 0.78079 0.99014 0.34118 0.0
H719 H 0.49474 0.67178 0.33481 0.0
H720 H 0.5862 0.72354 0.34946 0.0
H721 H 0.63479 0.85193 0.28924 0.0
H722 H 0.54238 0.80023 0.27518 0.0
H723 H 0.67763 0.88635 0.34829 0.0
H724 H 0.66789 0.78456 0.26819 0.0
H725 H 0.63236 0.70628 0.23632 0.0
H726 H 0.64357 0.64244 0.32163 0.0
H727 H 0.67844 0.72003 0.3542 0.0
C728 C 0.89873 0.97372 0.41015 0.0
C729 C 0.89059 0.94554 0.43827 0.0
C730 C 0.85798 0.95119 0.38756 0.0
C731 C 0.80868 0.90004 0.39272 0.0
C732 C 0.80081 0.87154 0.42052 0.0
C733 C 0.84134 0.89432 0.44332 0.0
C734 C 0.76409 0.87691 0.37028 0.0
C735 C 0.74209 0.83154 0.3524 0.0
C736 C 0.74198 0.89819 0.36755 0.0
C737 C 0.76407 0.94647 0.3855 0.0
C738 C 0.76662 0.94839 0.42015 0.0
C739 C 0.78827 0.99442 0.4368 0.0
C740 C 0.80708 0.03863 0.41906 0.0
C741 C 0.8041 0.03682 0.38464 0.0
C742 C 0.78255 0.99089 0.36787 0.0
C743 C 0.52502 0.71069 0.32418 0.0
C744 C 0.51163 0.73183 0.30357 0.0
C745 C 0.57739 0.74014 0.33237 0.0
C746 C 0.61763 0.79142 0.32009 0.0
C747 C 0.60453 0.81225 0.29871 0.0
C748 C 0.55183 0.78255 0.29042 0.0
C749 C 0.67212 0.82422 0.33259 0.0
C750 C 0.69631 0.87166 0.34868 0.0
C751 C 0.69673 0.80526 0.33312 0.0
C752 C 0.67579 0.75829 0.31369 0.0
C753 C 0.66259 0.75378 0.28023 0.0
C754 C 0.64254 0.70948 0.26202 0.0
C755 C 0.63571 0.66939 0.27694 0.0
C756 C 0.64895 0.67357 0.31009 0.0
C757 C 0.66896 0.71778 0.32843 0.0
H758 H 0.62017 0.6351 0.26281 0.0
H759 H 0.82383 0.07424 0.432 0.0
H760 H 0.88364 0.82424 0.97439 0.0
H761 H 0.85674 0.75074 0.94174 0.0
H762 H 0.99414 0.85943 0.87989 0.0
H763 H 0.0198 0.93313 0.91176 0.0
H764 H 0.91805 0.78991 0.84277 0.0
H765 H 0.98382 0.77951 0.93898 0.0
H766 H -0.00194 0.77902 0.99843 0.0
H767 H 0.83508 0.63656 0.01057 0.0
H768 H 0.81958 0.63662 0.95128 0.0
H769 H 0.82747 0.54071 0.77865 0.0
H770 H 0.88538 0.63036 0.80215 0.0
H771 H 0.75705 0.58022 0.86325 0.0
H772 H 0.69978 0.49211 0.83972 0.0
H773 H 0.85193 0.62802 0.89806 0.0
H774 H 0.79391 0.65006 0.79614 0.0
H775 H 0.79209 0.65389 0.73587 0.0
H776 H 0.96026 0.78372 0.7337 0.0
H777 H 0.96342 0.77835 0.79416 0.0
C778 C 0.90815 0.83233 0.95392 0.0
C779 C 0.95384 0.88422 0.94563 0.0
C780 C 0.893 0.79034 0.93536 0.0
C781 C 0.92409 0.79933 0.90877 0.0
C782 C 0.96961 0.85135 0.90034 0.0
C783 C 0.98424 0.89344 0.91856 0.0
C784 C 0.90785 0.75426 0.88937 0.0
C785 C 0.90467 0.75495 0.85487 0.0
C786 C 0.89145 0.70893 0.90492 0.0
C787 C 0.90048 0.70824 0.94064 0.0
C788 C 0.95091 0.74822 0.95434 0.0
C789 C 0.95922 0.74802 0.98803 0.0
C790 C 0.91749 0.70782 0.00827 0.0
C791 C 0.86737 0.66767 0.99485 0.0
C792 C 0.85881 0.66773 0.96118 0.0
C793 C 0.8115 0.54972 0.79621 0.0
C794 C 0.75916 0.5101 0.80708 0.0
C795 C 0.84462 0.60048 0.80993 0.0
C796 C 0.82552 0.61156 0.83473 0.0
C797 C 0.77268 0.57234 0.84443 0.0
C798 C 0.73991 0.52223 0.83076 0.0
C799 C 0.8597 0.663 0.8519 0.0
C800 C 0.86653 0.66355 0.88605 0.0
C801 C 0.88127 0.70999 0.83588 0.0
C802 C 0.87896 0.71321 0.79964 0.0
C803 C 0.83063 0.67888 0.78285 0.0
C804 C 0.82939 0.68148 0.74859 0.0
C805 C 0.87604 0.71943 0.73089 0.0
C806 C 0.92415 0.75441 0.74744 0.0
C807 C 0.92572 0.75133 0.78169 0.0
H808 H 0.87502 0.72177 0.70436 0.0
H809 H 0.924 0.70775 0.03434 0.0
loop_
_geom_bond_atom_site_label_1
_geom_bond_atom_site_label_2
_geom_bond_distance
_geom_bond_site_symmetry_2
_ccdc_geom_bond_type
Eu0 N29 2.600 . S
Eu0 N35 2.562 1_565 S
Eu0 O44 2.462 . S
Eu0 O45 2.373 1_565 S
Eu0 O47 2.432 . S
Eu0 O48 2.299 1_565 S
Eu0 O52 2.358 1_455 S
Eu0 O55 2.372 1_455 S
Eu0 C64 2.787 . S
C1 N2 1.365 1_665 S
C1 C4 1.405 . S
C1 C8 1.448 . S
N2 C1 1.365 1_445 S
N2 C5 1.319 . S
N2 Eu11 2.600 1_455 S
C3 C5 1.397 . S
C3 C6 1.367 . S
C3 H23 0.931 . S
C4 C1 1.405 . S
C4 C6 1.403 1_665 S
C4 C10 1.439 . S
C5 N2 1.319 . S
C5 C3 1.397 . S
C5 H16 0.930 . S
C6 C3 1.367 . S
C6 C4 1.403 1_445 S
C6 H27 0.929 1_545 S
C7 C8 1.430 . S
C7 C9 1.387 . S
C7 C13 1.404 . S
C8 C1 1.448 . S
C8 C7 1.430 . S
C8 N12 1.351 . S
C9 C7 1.387 . S
C9 C10 1.374 . S
C9 H24 0.931 . S
C10 C4 1.439 . S
C10 C9 1.374 . S
C10 H25 0.931 . S
Eu11 N2 2.600 1_655 S
Eu11 N12 2.562 1_545 S
Eu11 O46 2.335 1_656 S
Eu11 O49 2.372 1_655 S
Eu11 O50 2.462 . S
Eu11 O51 2.373 1_545 S
Eu11 O53 2.432 1_655 S
Eu11 O54 2.291 1_546 S
Eu11 C75 2.787 . S
N12 C8 1.351 . S
N12 Eu11 2.562 1_565 S
N12 C14 1.325 . S
C13 C7 1.404 . S
C13 C15 1.366 . S
C13 H21 0.930 . S
C14 N12 1.325 . S
C14 C15 1.416 . S
C14 H20 0.929 . S
C15 C13 1.366 . S
C15 C14 1.416 . S
C15 H17 0.930 . S
H16 C5 0.930 . S
H17 C15 0.930 . S
H18 C33 0.930 . S
H19 C40 0.930 . S
H20 C14 0.929 . S
H21 C13 0.930 . S
H22 C36 0.929 . S
H23 C3 0.931 . S
H24 C9 0.931 . S
H25 C10 0.931 . S
H26 C31 0.931 . S
H27 C6 0.929 1_565 S
H28 C39 0.930 . S
N29 Eu0 2.600 . S
N29 C30 1.365 1_565 S
N29 C33 1.319 1_455 S
C30 N29 1.365 1_545 S
C30 C32 1.405 . S
C30 C38 1.448 . S
C31 H26 0.931 . S
C31 C33 1.397 . S
C31 C34 1.367 1_565 S
C32 C30 1.405 . S
C32 C34 1.403 1_455 S
C32 C65 1.439 . S
C33 H18 0.930 . S
C33 N29 1.319 1_655 S
C33 C31 1.397 . S
C34 C31 1.367 1_545 S
C34 C32 1.403 1_655 S
C34 H41 0.929 . S
N35 Eu0 2.562 1_545 S
N35 C36 1.325 . S
N35 C38 1.351 . S
C36 H22 0.929 . S
C36 N35 1.325 . S
C36 C40 1.416 . S
C37 C38 1.430 . S
C37 C39 1.404 . S
C37 C66 1.387 . S
C38 C30 1.448 . S
C38 N35 1.351 . S
C38 C37 1.430 . S
C39 H28 0.930 . S
C39 C37 1.404 . S
C39 C40 1.366 . S
C40 H19 0.930 . S
C40 C36 1.416 . S
C40 C39 1.366 . S
H41 C34 0.929 . S
H42 C65 0.931 . S
H43 C66 0.931 . S
O44 Eu0 2.462 . S
O44 C64 1.252 . S
O45 Eu0 2.373 1_545 S
O45 C56 1.249 . S
O46 Eu11 2.335 1_454 S
O46 C56 1.264 . S
O47 Eu0 2.432 . S
O47 C64 1.268 . S
O48 Eu0 2.299 1_545 S
O48 C63 1.246 1_554 S
O49 Eu11 2.372 1_455 S
O49 C63 1.257 . S
O50 Eu11 2.462 . S
O50 C75 1.252 . S
O51 Eu11 2.373 1_565 S
O51 C67 1.249 . S
O52 Eu0 2.358 1_655 S
O52 C67 1.235 1_554 S
O53 Eu11 2.432 1_455 S
O53 C75 1.268 1_455 S
O54 Eu11 2.291 1_564 S
O54 C74 1.255 . S
O55 Eu0 2.372 1_655 S
O55 C74 1.257 . S
C56 O45 1.249 . S
C56 O46 1.264 . S
C57 C60 1.382 . S
C57 C62 1.390 . S
C57 C64 1.506 . S
C58 C59 1.398 . S
C58 C62 1.392 . S
C59 C58 1.398 . S
C59 C61 1.372 . S
C59 H76 0.931 . S
C60 C57 1.382 . S
C60 C61 1.390 . S
C60 H77 0.931 1_455 S
C61 C59 1.372 . S
C61 C60 1.390 . S
C61 H78 0.929 . S
C62 C57 1.390 . S
C62 C58 1.392 . S
C62 H79 0.930 . S
C63 O48 1.246 1_556 S
C63 O49 1.257 . S
C64 Eu0 2.787 . S
C64 O44 1.252 . S
C64 O47 1.268 . S
C64 C57 1.506 . S
C65 C32 1.439 . S
C65 H42 0.931 . S
C65 C66 1.374 . S
C66 C37 1.387 . S
C66 H43 0.931 . S
C66 C65 1.374 . S
C67 O51 1.249 . S
C67 O52 1.235 1_556 S
C68 C71 1.382 . S
C68 C72 1.390 . S
C68 C75 1.506 . S
C69 C70 1.398 . S
C69 C72 1.392 . S
C70 C69 1.398 . S
C70 C73 1.372 . S
C70 H80 0.931 . S
C71 C68 1.382 . S
C71 C73 1.390 . S
C71 H81 0.931 1_655 S
C72 C68 1.390 . S
C72 C69 1.392 . S
C72 H82 0.930 . S
C73 C70 1.372 . S
C73 C71 1.390 . S
C73 H83 0.931 . S
C74 O54 1.255 . S
C74 O55 1.257 . S
C75 Eu11 2.787 . S
C75 O50 1.252 . S
C75 O53 1.268 1_655 S
C75 C68 1.506 . S
H76 C59 0.931 . S
H77 C60 0.931 1_655 S
H78 C61 0.929 . S
H79 C62 0.930 . S
H80 C70 0.931 . S
H81 C71 0.931 1_455 S
H82 C72 0.930 . S
H83 C73 0.931 . S
Eu84 N113 2.600 1_565 S
Eu84 N119 2.562 1_455 S
Eu84 O128 2.462 . S
Eu84 O129 2.373 1_455 S
Eu84 O131 2.432 1_565 S
Eu84 O132 2.291 1_455 S
Eu84 O136 2.335 1_565 S
Eu84 O139 2.372 1_565 S
Eu84 C148 2.787 . S
C85 N86 1.365 . S
C85 C88 1.405 . S
C85 C92 1.448 . S
N86 C85 1.365 . S
N86 C89 1.319 1_445 S
N86 Eu95 2.600 1_455 S
C87 C89 1.397 . S
C87 C90 1.367 1_665 S
C87 H107 0.931 . S
C88 C85 1.405 . S
C88 C90 1.403 . S
C88 C94 1.439 . S
C89 N86 1.319 1_665 S
C89 C87 1.397 . S
C89 H100 0.930 . S
C90 C87 1.367 1_445 S
C90 C88 1.403 . S
C90 H111 0.921 1_545 S
C91 C92 1.430 . S
C91 C93 1.387 . S
C91 C97 1.404 . S
C92 C85 1.448 . S
C92 C91 1.430 . S
C92 N96 1.351 . S
C93 C91 1.387 . S
C93 C94 1.374 . S
C93 H108 0.931 . S
C94 C88 1.439 . S
C94 C93 1.374 . S
C94 H109 0.931 . S
Eu95 N86 2.600 1_655 S
Eu95 N96 2.562 1_655 S
Eu95 O130 2.335 1_545 S
Eu95 O133 2.372 1_545 S
Eu95 O134 2.462 . S
Eu95 O135 2.373 1_655 S
Eu95 O137 2.432 . S
Eu95 O138 2.291 1_655 S
Eu95 C159 2.787 . S
N96 C92 1.351 . S
N96 Eu95 2.562 1_455 S
N96 C98 1.325 . S
C97 C91 1.404 . S
C97 C99 1.366 . S
C97 H105 0.930 . S
C98 N96 1.325 . S
C98 C99 1.416 . S
C98 H104 0.929 . S
C99 C97 1.366 . S
C99 C98 1.416 . S
C99 H101 0.930 . S
H100 C89 0.930 . S
H101 C99 0.930 . S
H102 C117 0.930 . S
H103 C124 0.930 . S
H104 C98 0.929 . S
H105 C97 0.930 . S
H106 C120 0.929 . S
H107 C87 0.931 . S
H108 C93 0.931 . S
H109 C94 0.931 . S
H110 C115 0.931 . S
H111 C90 0.921 1_565 S
H112 C123 0.930 . S
N113 Eu84 2.600 1_545 S
N113 C114 1.365 1_445 S
N113 C117 1.319 . S
C114 N113 1.365 1_665 S
C114 C116 1.405 . S
C114 C122 1.448 . S
C115 H110 0.931 . S
C115 C117 1.397 . S
C115 C118 1.367 . S
C116 C114 1.405 . S
C116 C118 1.403 1_665 S
C116 C149 1.439 . S
C117 H102 0.930 . S
C117 N113 1.319 . S
C117 C115 1.397 . S
C118 C115 1.367 . S
C118 C116 1.403 1_445 S
C118 H125 0.929 . S
N119 Eu84 2.562 1_655 S
N119 C120 1.325 . S
N119 C122 1.351 . S
C120 H106 0.929 . S
C120 N119 1.325 . S
C120 C124 1.416 . S
C121 C122 1.430 . S
C121 C123 1.404 . S
C121 C150 1.387 . S
C122 C114 1.448 . S
C122 N119 1.351 . S
C122 C121 1.430 . S
C123 H112 0.930 . S
C123 C121 1.404 . S
C123 C124 1.366 . S
C124 H103 0.930 . S
C124 C120 1.416 . S
C124 C123 1.366 . S
H125 C118 0.929 . S
H126 C149 0.931 . S
H127 C150 0.931 . S
O128 Eu84 2.462 . S
O128 C148 1.252 . S
O129 Eu84 2.373 1_655 S
O129 C140 1.249 . S
O130 Eu95 2.335 1_565 S
O130 C140 1.264 . S
O131 Eu84 2.432 1_545 S
O131 C148 1.268 1_545 S
O132 Eu84 2.291 1_655 S
O132 C147 1.255 . S
O133 Eu95 2.372 1_565 S
O133 C147 1.257 . S
O134 Eu95 2.462 . S
O134 C159 1.252 . S
O135 Eu95 2.373 1_455 S
O135 C151 1.249 . S
O136 Eu84 2.335 1_545 S
O136 C151 1.264 . S
O137 Eu95 2.432 . S
O137 C159 1.268 . S
O138 Eu95 2.291 1_455 S
O138 C158 1.255 . S
O139 Eu84 2.372 1_545 S
O139 C158 1.257 . S
C140 O129 1.249 . S
C140 O130 1.264 . S
C141 C144 1.382 . S
C141 C146 1.390 . S
C141 C148 1.506 . S
C142 C143 1.398 . S
C142 C146 1.392 . S
C143 C142 1.398 . S
C143 C145 1.372 . S
C143 H160 0.931 . S
C144 C141 1.382 . S
C144 C145 1.390 . S
C144 H161 0.931 1_565 S
C145 C143 1.372 . S
C145 C144 1.390 . S
C145 H162 0.929 1_565 S
C146 C141 1.390 . S
C146 C142 1.392 . S
C146 H163 0.930 . S
C147 O132 1.255 . S
C147 O133 1.257 . S
C148 Eu84 2.787 . S
C148 O128 1.252 . S
C148 O131 1.268 1_565 S
C148 C141 1.506 . S
C149 C116 1.439 . S
C149 H126 0.931 . S
C149 C150 1.374 . S
C150 C121 1.387 . S
C150 H127 0.931 . S
C150 C149 1.374 . S
C151 O135 1.249 . S
C151 O136 1.264 . S
C152 C155 1.382 . S
C152 C156 1.390 . S
C152 C159 1.506 . S
C153 C154 1.398 . S
C153 C156 1.392 . S
C154 C153 1.398 . S
C154 C157 1.372 . S
C154 H164 0.931 . S
C155 C152 1.382 . S
C155 C157 1.390 . S
C155 H165 0.931 . S
C156 C152 1.390 . S
C156 C153 1.392 . S
C156 H166 0.930 . S
C157 C154 1.372 . S
C157 C155 1.390 . S
C157 H167 0.929 . S
C158 O138 1.255 . S
C158 O139 1.257 . S
C159 Eu95 2.787 . S
C159 O134 1.252 . S
C159 O137 1.268 . S
C159 C152 1.506 . S
H160 C143 0.931 . S
H161 C144 0.931 1_545 S
H162 C145 0.929 1_545 S
H163 C146 0.930 . S
H164 C154 0.931 . S
H165 C155 0.931 . S
H166 C156 0.930 . S
H167 C157 0.929 . S
Zn168 O174 1.920 . S
Zn168 O180 1.898 . S
Zn168 O183 1.905 . S
Zn169 O177 1.905 . S
Zn169 O178 1.898 . S
Zn169 O186 1.920 . S
Zn170 O173 2.080 . S
Zn170 O176 2.114 . S
Zn170 O179 2.120 . S
Zn170 O181 2.120 . S
Zn170 O182 2.114 . S
Zn170 O185 2.080 . S
C171 O176 1.166 . S
C171 O177 1.182 . S
C172 O178 1.167 . S
C172 O179 1.299 . S
O173 Zn170 2.080 . S
O173 C187 1.305 . S
O174 Zn168 1.920 . S
O174 C187 1.234 . S
C175 O180 1.167 . S
C175 O181 1.299 . S
O176 Zn170 2.114 . S
O176 C171 1.166 . S
O177 Zn169 1.905 . S
O177 C171 1.182 . S
O178 Zn169 1.898 . S
O178 C172 1.167 . S
O179 Zn170 2.120 . S
O179 C172 1.299 . S
O180 Zn168 1.898 . S
O180 C175 1.167 . S
O181 Zn170 2.120 . S
O181 C175 1.299 . S
O182 Zn170 2.114 . S
O182 C184 1.166 . S
O183 Zn168 1.905 . S
O183 C184 1.182 . S
C184 O182 1.166 . S
C184 O183 1.182 . S
O185 Zn170 2.080 . S
O185 C188 1.305 . S
O186 Zn169 1.920 . S
O186 C188 1.234 . S
C187 O173 1.305 . S
C187 O174 1.234 . S
C188 O185 1.305 . S
C188 O186 1.234 . S
Zn189 O195 1.920 . S
Zn189 O201 1.898 . S
Zn189 O204 1.905 . S
Zn190 O198 1.905 . S
Zn190 O199 1.898 . S
Zn190 O207 1.920 . S
Zn191 O194 2.080 . S
Zn191 O197 2.114 . S
Zn191 O200 2.120 . S
Zn191 O202 2.120 . S
Zn191 O203 2.114 . S
Zn191 O206 2.080 . S
C192 O197 1.166 . S
C192 O198 1.182 . S
C193 O199 1.167 . S
C193 O200 1.299 . S
O194 Zn191 2.080 . S
O194 C208 1.305 . S
O195 Zn189 1.920 . S
O195 C208 1.234 . S
C196 O201 1.167 . S
C196 O202 1.299 . S
O197 Zn191 2.114 . S
O197 C192 1.166 . S
O198 Zn190 1.905 . S
O198 C192 1.182 . S
O199 Zn190 1.898 . S
O199 C193 1.167 . S
O200 Zn191 2.120 . S
O200 C193 1.299 . S
O201 Zn189 1.898 . S
O201 C196 1.167 . S
O202 Zn191 2.120 . S
O202 C196 1.299 . S
O203 Zn191 2.114 . S
O203 C205 1.166 . S
O204 Zn189 1.905 . S
O204 C205 1.182 . S
C205 O203 1.166 . S
C205 O204 1.182 . S
O206 Zn191 2.080 . S
O206 C209 1.305 . S
O207 Zn190 1.920 . S
O207 C209 1.234 . S
C208 O194 1.305 . S
C208 O195 1.234 . S
C209 O206 1.305 . S
C209 O207 1.234 . S
H210 C228 0.951 . S
H211 C230 0.951 . S
H212 C232 0.950 . S
H213 C233 0.950 . S
H214 C235 0.950 . S
H215 C238 0.950 . S
H216 C239 0.950 . S
H217 C241 0.950 1_556 S
H218 C242 0.950 . S
H219 C243 0.951 . S
H220 C245 0.951 . S
H221 C247 0.950 . S
H222 C248 0.950 . S
H223 C250 0.950 . S
H224 C253 0.950 . S
H225 C254 0.950 . S
H226 C256 0.950 . S
H227 C257 0.950 . S
C228 H210 0.951 . S
C228 C229 1.366 . S
C228 C230 1.388 . S
C229 C228 1.366 . S
C229 C233 1.385 . S
C230 H211 0.951 . S
C230 C228 1.388 . S
C230 C231 1.366 . S
C231 C230 1.366 . S
C231 C232 1.414 . S
C231 C234 1.499 . S
C232 H212 0.950 . S
C232 C231 1.414 . S
C232 C233 1.374 . S
C233 H213 0.950 . S
C233 C229 1.385 . S
C233 C232 1.374 . S
C234 C231 1.499 . S
C234 C235 1.373 . S
C234 C236 1.389 . S
C235 H214 0.950 . S
C235 C234 1.373 . S
C235 C251 1.377 . S
C236 C234 1.389 . S
C236 C237 1.524 . S
C236 C250 1.377 . S
C237 C236 1.524 . S
C237 C238 1.397 . S
C237 C242 1.363 . S
C238 H215 0.950 . S
C238 C237 1.397 . S
C238 C239 1.334 . S
C239 H216 0.950 . S
C239 C238 1.334 . S
C239 C240 1.287 1_554 S
C240 C239 1.287 1_556 S
C240 C241 1.524 1_556 S
C240 H259 0.913 . S
C241 H217 0.950 1_554 S
C241 C240 1.524 1_554 S
C241 C242 1.415 . S
C242 H218 0.950 . S
C242 C237 1.363 . S
C242 C241 1.415 . S
C243 H219 0.951 . S
C243 C244 1.366 . S
C243 C245 1.388 . S
C244 C243 1.366 . S
C244 C248 1.385 . S
C245 H220 0.951 . S
C245 C243 1.388 . S
C245 C246 1.366 . S
C246 C245 1.366 . S
C246 C247 1.414 . S
C246 C249 1.499 . S
C247 H221 0.950 . S
C247 C246 1.414 . S
C247 C248 1.374 . S
C248 H222 0.950 . S
C248 C244 1.385 . S
C248 C247 1.374 . S
C249 C246 1.499 . S
C249 C250 1.373 . S
C249 C251 1.389 . S
C250 H223 0.950 . S
C250 C236 1.377 . S
C250 C249 1.373 . S
C251 C235 1.377 . S
C251 C249 1.389 . S
C251 C252 1.524 . S
C252 C251 1.524 . S
C252 C253 1.397 . S
C252 C257 1.363 . S
C253 H224 0.950 . S
C253 C252 1.397 . S
C253 C254 1.334 . S
C254 H225 0.950 . S
C254 C253 1.334 . S
C254 C255 1.287 . S
C255 C254 1.287 . S
C255 C256 1.524 . S
C255 H258 0.999 . S
C256 H226 0.950 . S
C256 C255 1.524 . S
C256 C257 1.415 . S
C257 H227 0.950 . S
C257 C252 1.363 . S
C257 C256 1.415 . S
H258 C255 0.999 . S
H259 C240 0.913 . S
H260 C278 0.951 . S
H261 C280 0.951 . S
H262 C282 0.950 . S
H263 C283 0.950 . S
H264 C285 0.950 . S
H265 C288 0.950 . S
H266 C289 0.950 . S
H267 C291 0.950 . S
H268 C292 0.950 . S
H269 C293 0.951 . S
H270 C295 0.951 . S
H271 C297 0.950 . S
H272 C298 0.950 . S
H273 C300 0.950 . S
H274 C303 0.950 . S
H275 C304 0.950 . S
H276 C306 0.950 . S
H277 C307 0.950 . S
C278 H260 0.951 . S
C278 C279 1.366 . S
C278 C280 1.388 . S
C279 C278 1.366 . S
C279 C283 1.385 . S
C280 H261 0.951 . S
C280 C278 1.388 . S
C280 C281 1.366 . S
C281 C280 1.366 . S
C281 C282 1.414 . S
C281 C284 1.499 . S
C282 H262 0.950 . S
C282 C281 1.414 . S
C282 C283 1.374 . S
C283 H263 0.950 . S
C283 C279 1.385 . S
C283 C282 1.374 . S
C284 C281 1.499 . S
C284 C285 1.373 . S
C284 C286 1.389 . S
C285 H264 0.950 . S
C285 C284 1.373 . S
C285 C301 1.377 . S
C286 C284 1.389 . S
C286 C287 1.524 . S
C286 C300 1.377 . S
C287 C286 1.524 . S
C287 C288 1.397 . S
C287 C292 1.363 . S
C288 H265 0.950 . S
C288 C287 1.397 . S
C288 C289 1.334 . S
C289 H266 0.950 . S
C289 C288 1.334 . S
C289 C290 1.287 . S
C290 C289 1.287 . S
C290 C291 1.524 . S
C290 H309 0.913 . S
C291 H267 0.950 . S
C291 C290 1.524 . S
C291 C292 1.415 . S
C292 H268 0.950 . S
C292 C287 1.363 . S
C292 C291 1.415 . S
C293 H269 0.951 . S
C293 C294 1.366 . S
C293 C295 1.388 . S
C294 C293 1.366 . S
C294 C298 1.385 . S
C295 H270 0.951 . S
C295 C293 1.388 . S
C295 C296 1.366 . S
C296 C295 1.366 . S
C296 C297 1.414 . S
C296 C299 1.499 . S
C297 H271 0.950 . S
C297 C296 1.414 . S
C297 C298 1.374 . S
C298 H272 0.950 . S
C298 C294 1.385 . S
C298 C297 1.374 . S
C299 C296 1.499 . S
C299 C300 1.373 . S
C299 C301 1.389 . S
C300 H273 0.950 . S
C300 C286 1.377 . S
C300 C299 1.373 . S
C301 C285 1.377 . S
C301 C299 1.389 . S
C301 C302 1.524 . S
C302 C301 1.524 . S
C302 C303 1.397 . S
C302 C307 1.363 . S
C303 H274 0.950 . S
C303 C302 1.397 . S
C303 C304 1.334 . S
C304 H275 0.950 . S
C304 C303 1.334 . S
C304 C305 1.287 . S
C305 C304 1.287 . S
C305 C306 1.524 . S
C305 H308 0.999 1_545 S
C306 H276 0.950 . S
C306 C305 1.524 . S
C306 C307 1.415 . S
C307 H277 0.950 . S
C307 C302 1.363 . S
C307 C306 1.415 . S
H308 C305 0.999 1_565 S
H309 C290 0.913 . S
H310 C328 0.951 . S
H311 C330 0.951 . S
H312 C332 0.950 . S
H313 C333 0.950 . S
H314 C335 0.950 . S
H315 C338 0.950 . S
H316 C339 0.950 . S
H317 C341 0.950 . S
H318 C342 0.950 . S
H319 C343 0.951 . S
H320 C345 0.951 . S
H321 C347 0.950 . S
H322 C348 0.950 . S
H323 C350 0.950 . S
H324 C353 0.950 . S
H325 C354 0.950 . S
H326 C356 0.950 . S
H327 C357 0.950 . S
C328 H310 0.951 . S
C328 C329 1.366 . S
C328 C330 1.388 . S
C329 C328 1.366 . S
C329 C333 1.385 . S
C330 H311 0.951 . S
C330 C328 1.388 . S
C330 C331 1.366 . S
C331 C330 1.366 . S
C331 C332 1.414 . S
C331 C334 1.499 . S
C332 H312 0.950 . S
C332 C331 1.414 . S
C332 C333 1.374 . S
C333 H313 0.950 . S
C333 C329 1.385 . S
C333 C332 1.374 . S
C334 C331 1.499 . S
C334 C335 1.373 . S
C334 C336 1.389 . S
C335 H314 0.950 . S
C335 C334 1.373 . S
C335 C351 1.377 . S
C336 C334 1.389 . S
C336 C337 1.524 . S
C336 C350 1.377 . S
C337 C336 1.524 . S
C337 C338 1.397 . S
C337 C342 1.363 . S
C338 H315 0.950 . S
C338 C337 1.397 . S
C338 C339 1.334 . S
C339 H316 0.950 . S
C339 C338 1.334 . S
C339 C340 1.287 . S
C340 C339 1.287 . S
C340 C341 1.524 . S
C340 H359 0.913 . S
C341 H317 0.950 . S
C341 C340 1.524 . S
C341 C342 1.415 . S
C342 H318 0.950 . S
C342 C337 1.363 . S
C342 C341 1.415 . S
C343 H319 0.951 . S
C343 C344 1.366 . S
C343 C345 1.388 . S
C344 C343 1.366 . S
C344 C348 1.385 . S
C345 H320 0.951 . S
C345 C343 1.388 . S
C345 C346 1.366 . S
C346 C345 1.366 . S
C346 C347 1.414 . S
C346 C349 1.499 . S
C347 H321 0.950 . S
C347 C346 1.414 . S
C347 C348 1.374 . S
C348 H322 0.950 . S
C348 C344 1.385 . S
C348 C347 1.374 . S
C349 C346 1.499 . S
C349 C350 1.373 . S
C349 C351 1.389 . S
C350 H323 0.950 . S
C350 C336 1.377 . S
C350 C349 1.373 . S
C351 C335 1.377 . S
C351 C349 1.389 . S
C351 C352 1.524 . S
C352 C351 1.524 . S
C352 C353 1.397 . S
C352 C357 1.363 . S
C353 H324 0.950 . S
C353 C352 1.397 . S
C353 C354 1.334 . S
C354 H325 0.950 . S
C354 C353 1.334 . S
C354 C355 1.287 . S
C355 C354 1.287 . S
C355 C356 1.524 . S
C355 H358 0.999 . S
C356 H326 0.950 . S
C356 C355 1.524 . S
C356 C357 1.415 . S
C357 H327 0.950 . S
C357 C352 1.363 . S
C357 C356 1.415 . S
H358 C355 0.999 . S
H359 C340 0.913 . S
H360 C378 0.951 . S
H361 C380 0.951 . S
H362 C382 0.950 . S
H363 C383 0.950 . S
H364 C385 0.950 . S
H365 C388 0.950 . S
H366 C389 0.950 . S
H367 C391 0.950 . S
H368 C392 0.950 . S
H369 C393 0.951 . S
H370 C395 0.951 . S
H371 C397 0.950 . S
H372 C398 0.950 . S
H373 C400 0.950 . S
H374 C403 0.950 . S
H375 C404 0.950 . S
H376 C406 0.950 1_455 S
H377 C407 0.950 . S
C378 H360 0.951 . S
C378 C379 1.366 . S
C378 C380 1.388 . S
C379 C378 1.366 . S
C379 C383 1.385 . S
C380 H361 0.951 . S
C380 C378 1.388 . S
C380 C381 1.366 . S
C381 C380 1.366 . S
C381 C382 1.414 . S
C381 C384 1.499 . S
C382 H362 0.950 . S
C382 C381 1.414 . S
C382 C383 1.374 . S
C383 H363 0.950 . S
C383 C379 1.385 . S
C383 C382 1.374 . S
C384 C381 1.499 . S
C384 C385 1.373 . S
C384 C386 1.389 . S
C385 H364 0.950 . S
C385 C384 1.373 . S
C385 C401 1.377 . S
C386 C384 1.389 . S
C386 C387 1.524 . S
C386 C400 1.377 . S
C387 C386 1.524 . S
C387 C388 1.397 . S
C387 C392 1.363 . S
C388 H365 0.950 . S
C388 C387 1.397 . S
C388 C389 1.334 . S
C389 H366 0.950 . S
C389 C388 1.334 . S
C389 C390 1.287 . S
C390 C389 1.287 . S
C390 C391 1.524 . S
C390 H409 0.913 . S
C391 H367 0.950 . S
C391 C390 1.524 . S
C391 C392 1.415 . S
C392 H368 0.950 . S
C392 C387 1.363 . S
C392 C391 1.415 . S
C393 H369 0.951 . S
C393 C394 1.366 . S
C393 C395 1.388 . S
C394 C393 1.366 . S
C394 C398 1.385 . S
C395 H370 0.951 . S
C395 C393 1.388 . S
C395 C396 1.366 . S
C396 C395 1.366 . S
C396 C397 1.414 . S
C396 C399 1.499 . S
C397 H371 0.950 . S
C397 C396 1.414 . S
C397 C398 1.374 . S
C398 H372 0.950 . S
C398 C394 1.385 . S
C398 C397 1.374 . S
C399 C396 1.499 . S
C399 C400 1.373 . S
C399 C401 1.389 . S
C400 H373 0.950 . S
C400 C386 1.377 . S
C400 C399 1.373 . S
C401 C385 1.377 . S
C401 C399 1.389 . S
C401 C402 1.524 . S
C402 C401 1.524 . S
C402 C403 1.397 . S
C402 C407 1.363 . S
C403 H374 0.950 . S
C403 C402 1.397 . S
C403 C404 1.334 . S
C404 H375 0.950 . S
C404 C403 1.334 . S
C404 C405 1.287 . S
C405 C404 1.287 . S
C405 C406 1.524 . S
C405 H408 0.999 . S
C406 H376 0.950 1_655 S
C406 C405 1.524 . S
C406 C407 1.415 . S
C407 H377 0.950 . S
C407 C402 1.363 . S
C407 C406 1.415 . S
H408 C405 0.999 . S
H409 C390 0.913 . S
H410 C428 0.951 . S
H411 C430 0.951 . S
H412 C432 0.950 . S
H413 C433 0.950 . S
H414 C435 0.950 . S
H415 C438 0.950 . S
H416 C439 0.950 . S
H417 C441 0.950 . S
H418 C442 0.950 . S
H419 C443 0.951 . S
H420 C445 0.951 . S
H421 C447 0.950 . S
H422 C448 0.950 . S
H423 C450 0.950 . S
H424 C453 0.950 . S
H425 C454 0.950 . S
H426 C456 0.947 . S
H427 C457 0.950 . S
C428 H410 0.951 . S
C428 C429 1.366 . S
C428 C430 1.388 . S
C429 C428 1.366 . S
C429 C433 1.385 . S
C430 H411 0.951 . S
C430 C428 1.388 . S
C430 C431 1.366 . S
C431 C430 1.366 . S
C431 C432 1.414 . S
C431 C434 1.499 . S
C432 H412 0.950 . S
C432 C431 1.414 . S
C432 C433 1.374 . S
C433 H413 0.950 . S
C433 C429 1.385 . S
C433 C432 1.374 . S
C434 C431 1.499 . S
C434 C435 1.373 . S
C434 C436 1.389 . S
C435 H414 0.950 . S
C435 C434 1.373 . S
C435 C451 1.377 . S
C436 C434 1.389 . S
C436 C437 1.524 . S
C436 C450 1.377 . S
C437 C436 1.524 . S
C437 C438 1.397 . S
C437 C442 1.363 . S
C438 H415 0.950 . S
C438 C437 1.397 . S
C438 C439 1.334 . S
C439 H416 0.950 . S
C439 C438 1.334 . S
C439 C440 1.287 . S
C440 C439 1.287 . S
C440 C441 1.524 . S
C440 H459 0.913 . S
C441 H417 0.950 . S
C441 C440 1.524 . S
C441 C442 1.415 . S
C442 H418 0.950 . S
C442 C437 1.363 . S
C442 C441 1.415 . S
C443 H419 0.951 . S
C443 C444 1.366 . S
C443 C445 1.388 . S
C444 C443 1.366 . S
C444 C448 1.385 . S
C445 H420 0.951 . S
C445 C443 1.388 . S
C445 C446 1.366 . S
C446 C445 1.366 . S
C446 C447 1.414 . S
C446 C449 1.499 . S
C447 H421 0.950 . S
C447 C446 1.414 . S
C447 C448 1.374 . S
C448 H422 0.950 . S
C448 C444 1.385 . S
C448 C447 1.374 . S
C449 C446 1.499 . S
C449 C450 1.373 . S
C449 C451 1.389 . S
C450 H423 0.950 . S
C450 C436 1.377 . S
C450 C449 1.373 . S
C451 C435 1.377 . S
C451 C449 1.389 . S
C451 C452 1.524 . S
C452 C451 1.524 . S
C452 C453 1.397 . S
C452 C457 1.363 . S
C453 H424 0.950 . S
C453 C452 1.397 . S
C453 C454 1.334 . S
C454 H425 0.950 . S
C454 C453 1.334 . S
C454 C455 1.287 1_565 S
C455 C454 1.287 1_545 S
C455 C456 1.524 . S
C455 H458 0.999 . S
C456 H426 0.947 . S
C456 C455 1.524 . S
C456 C457 1.418 1_545 S
C457 H427 0.950 . S
C457 C452 1.363 . S
C457 C456 1.418 1_565 S
H458 C455 0.999 . S
H459 C440 0.913 . S
H460 C478 0.951 1_455 S
H461 C480 0.951 . S
H462 C482 0.950 . S
H463 C483 0.950 . S
H464 C485 0.950 . S
H465 C488 0.950 . S
H466 C489 0.950 . S
H467 C491 0.950 1_455 S
H468 C492 0.950 . S
H469 C493 0.951 . S
H470 C495 0.951 . S
H471 C497 0.950 . S
H472 C498 0.950 . S
H473 C500 0.950 . S
H474 C503 0.950 . S
H475 C504 0.950 . S
H476 C506 0.950 . S
H477 C507 0.950 . S
C478 H460 0.951 1_655 S
C478 C479 1.366 . S
C478 C480 1.388 . S
C479 C478 1.366 . S
C479 C483 1.385 . S
C480 H461 0.951 . S
C480 C478 1.388 . S
C480 C481 1.366 . S
C481 C480 1.366 . S
C481 C482 1.414 . S
C481 C484 1.499 . S
C482 H462 0.950 . S
C482 C481 1.414 . S
C482 C483 1.374 . S
C483 H463 0.950 . S
C483 C479 1.385 . S
C483 C482 1.374 . S
C484 C481 1.499 . S
C484 C485 1.373 . S
C484 C486 1.389 . S
C485 H464 0.950 . S
C485 C484 1.373 . S
C485 C501 1.377 . S
C486 C484 1.389 . S
C486 C487 1.524 . S
C486 C500 1.377 . S
C487 C486 1.524 . S
C487 C488 1.397 . S
C487 C492 1.363 . S
C488 H465 0.950 . S
C488 C487 1.397 . S
C488 C489 1.334 . S
C489 H466 0.950 . S
C489 C488 1.334 . S
C489 C490 1.287 . S
C490 C489 1.287 . S
C490 C491 1.524 . S
C490 H509 0.913 1_655 S
C491 H467 0.950 1_655 S
C491 C490 1.524 . S
C491 C492 1.415 . S
C492 H468 0.950 . S
C492 C487 1.363 . S
C492 C491 1.415 . S
C493 H469 0.951 . S
C493 C494 1.366 . S
C493 C495 1.388 . S
C494 C493 1.366 . S
C494 C498 1.385 . S
C495 H470 0.951 . S
C495 C493 1.388 . S
C495 C496 1.366 . S
C496 C495 1.366 . S
C496 C497 1.414 . S
C496 C499 1.499 . S
C497 H471 0.950 . S
C497 C496 1.414 . S
C497 C498 1.374 . S
C498 H472 0.950 . S
C498 C494 1.385 . S
C498 C497 1.374 . S
C499 C496 1.499 . S
C499 C500 1.373 . S
C499 C501 1.389 . S
C500 H473 0.950 . S
C500 C486 1.377 . S
C500 C499 1.373 . S
C501 C485 1.377 . S
C501 C499 1.389 . S
C501 C502 1.524 . S
C502 C501 1.524 . S
C502 C503 1.397 . S
C502 C507 1.363 . S
C503 H474 0.950 . S
C503 C502 1.397 . S
C503 C504 1.334 . S
C504 H475 0.950 . S
C504 C503 1.334 . S
C504 C505 1.287 . S
C505 C504 1.287 . S
C505 C506 1.524 . S
C505 H508 0.999 . S
C506 H476 0.950 . S
C506 C505 1.524 . S
C506 C507 1.415 . S
C507 H477 0.950 . S
C507 C502 1.363 . S
C507 C506 1.415 . S
H508 C505 0.999 . S
H509 C490 0.913 1_455 S
H510 C528 0.951 . S
H511 C530 0.951 . S
H512 C532 0.950 . S
H513 C533 0.950 . S
H514 C535 0.950 . S
H515 C538 0.950 . S
H516 C539 0.950 . S
H517 C541 0.950 . S
H518 C542 0.950 . S
H519 C543 0.951 . S
H520 C545 0.951 . S
H521 C547 0.950 . S
H522 C548 0.950 . S
H523 C550 0.950 . S
H524 C553 0.950 . S
H525 C554 0.950 . S
H526 C556 0.950 1_545 S
H527 C557 0.950 . S
C528 H510 0.951 . S
C528 C529 1.366 . S
C528 C530 1.388 . S
C529 C528 1.366 . S
C529 C533 1.385 . S
C530 H511 0.951 . S
C530 C528 1.388 . S
C530 C531 1.366 . S
C531 C530 1.366 . S
C531 C532 1.414 . S
C531 C534 1.499 . S
C532 H512 0.950 . S
C532 C531 1.414 . S
C532 C533 1.374 . S
C533 H513 0.950 . S
C533 C529 1.385 . S
C533 C532 1.374 . S
C534 C531 1.499 . S
C534 C535 1.373 . S
C534 C536 1.389 . S
C535 H514 0.950 . S
C535 C534 1.373 . S
C535 C551 1.377 . S
C536 C534 1.389 . S
C536 C537 1.524 . S
C536 C550 1.377 . S
C537 C536 1.524 . S
C537 C538 1.397 . S
C537 C542 1.363 . S
C538 H515 0.950 . S
C538 C537 1.397 . S
C538 C539 1.334 . S
C539 H516 0.950 . S
C539 C538 1.334 . S
C539 C540 1.287 . S
C540 C539 1.287 . S
C540 C541 1.524 . S
C540 H559 0.913 . S
C541 H517 0.950 . S
C541 C540 1.524 . S
C541 C542 1.415 . S
C542 H518 0.950 . S
C542 C537 1.363 . S
C542 C541 1.415 . S
C543 H519 0.951 . S
C543 C544 1.366 . S
C543 C545 1.388 . S
C544 C543 1.366 . S
C544 C548 1.385 . S
C545 H520 0.951 . S
C545 C543 1.388 . S
C545 C546 1.366 . S
C546 C545 1.366 . S
C546 C547 1.414 . S
C546 C549 1.499 . S
C547 H521 0.950 . S
C547 C546 1.414 . S
C547 C548 1.374 . S
C548 H522 0.950 . S
C548 C544 1.385 . S
C548 C547 1.374 . S
C549 C546 1.499 . S
C549 C550 1.373 . S
C549 C551 1.389 . S
C550 H523 0.950 . S
C550 C536 1.377 . S
C550 C549 1.373 . S
C551 C535 1.377 . S
C551 C549 1.389 . S
C551 C552 1.524 . S
C552 C551 1.524 . S
C552 C553 1.397 . S
C552 C557 1.363 . S
C553 H524 0.950 . S
C553 C552 1.397 . S
C553 C554 1.334 . S
C554 H525 0.950 . S
C554 C553 1.334 . S
C554 C555 1.287 . S
C555 C554 1.287 . S
C555 C556 1.524 . S
C555 H558 0.999 1_565 S
C556 H526 0.950 1_565 S
C556 C555 1.524 . S
C556 C557 1.415 . S
C557 H527 0.950 . S
C557 C552 1.363 . S
C557 C556 1.415 . S
H558 C555 0.999 1_545 S
H559 C540 0.913 . S
H560 C578 0.951 . S
H561 C580 0.951 . S
H562 C582 0.950 . S
H563 C583 0.950 . S
H564 C585 0.950 . S
H565 C588 0.950 . S
H566 C589 0.950 . S
H567 C591 0.950 . S
H568 C592 0.950 . S
H569 C593 0.951 . S
H570 C595 0.951 . S
H571 C597 0.950 . S
H572 C598 0.950 . S
H573 C600 0.950 . S
H574 C603 0.950 . S
H575 C604 0.950 . S
H576 C606 0.950 . S
H577 C607 0.950 . S
C578 H560 0.951 . S
C578 C579 1.366 . S
C578 C580 1.388 . S
C579 C578 1.366 . S
C579 C583 1.385 . S
C580 H561 0.951 . S
C580 C578 1.388 . S
C580 C581 1.366 . S
C581 C580 1.366 . S
C581 C582 1.414 . S
C581 C584 1.499 . S
C582 H562 0.950 . S
C582 C581 1.414 . S
C582 C583 1.374 . S
C583 H563 0.950 . S
C583 C579 1.385 . S
C583 C582 1.374 . S
C584 C581 1.499 . S
C584 C585 1.373 . S
C584 C586 1.389 . S
C585 H564 0.950 . S
C585 C584 1.373 . S
C585 C601 1.377 . S
C586 C584 1.389 . S
C586 C587 1.524 . S
C586 C600 1.377 . S
C587 C586 1.524 . S
C587 C588 1.397 . S
C587 C592 1.363 . S
C588 H565 0.950 . S
C588 C587 1.397 . S
C588 C589 1.334 . S
C589 H566 0.950 . S
C589 C588 1.334 . S
C589 C590 1.287 . S
C590 C589 1.287 . S
C590 C591 1.524 . S
C590 H609 0.913 . S
C591 H567 0.950 . S
C591 C590 1.524 . S
C591 C592 1.415 . S
C592 H568 0.950 . S
C592 C587 1.363 . S
C592 C591 1.415 . S
C593 H569 0.951 . S
C593 C594 1.366 . S
C593 C595 1.388 . S
C594 C593 1.366 . S
C594 C598 1.385 . S
C595 H570 0.951 . S
C595 C593 1.388 . S
C595 C596 1.366 . S
C596 C595 1.366 . S
C596 C597 1.414 . S
C596 C599 1.499 . S
C597 H571 0.950 . S
C597 C596 1.414 . S
C597 C598 1.374 . S
C598 H572 0.950 . S
C598 C594 1.385 . S
C598 C597 1.374 . S
C599 C596 1.499 . S
C599 C600 1.373 . S
C599 C601 1.389 . S
C600 H573 0.950 . S
C600 C586 1.377 . S
C600 C599 1.373 . S
C601 C585 1.377 . S
C601 C599 1.389 . S
C601 C602 1.524 . S
C602 C601 1.524 . S
C602 C603 1.397 . S
C602 C607 1.363 . S
C603 H574 0.950 . S
C603 C602 1.397 . S
C603 C604 1.334 . S
C604 H575 0.950 . S
C604 C603 1.334 . S
C604 C605 1.287 . S
C605 C604 1.287 . S
C605 C606 1.524 . S
C605 H608 0.999 . S
C606 H576 0.950 . S
C606 C605 1.524 . S
C606 C607 1.415 . S
C607 H577 0.950 . S
C607 C602 1.363 . S
C607 C606 1.415 . S
H608 C605 0.999 . S
H609 C590 0.913 . S
H610 C628 0.951 . S
H611 C630 0.951 . S
H612 C632 0.950 . S
H613 C633 0.950 . S
H614 C635 0.950 . S
H615 C638 0.950 . S
H616 C639 0.950 . S
H617 C641 0.950 . S
H618 C642 0.950 . S
H619 C643 0.951 . S
H620 C645 0.951 . S
H621 C647 0.950 . S
H622 C648 0.950 . S
H623 C650 0.950 . S
H624 C653 0.950 . S
H625 C654 0.950 . S
H626 C656 0.950 1_655 S
H627 C657 0.950 . S
C628 H610 0.951 . S
C628 C629 1.366 . S
C628 C630 1.388 . S
C629 C628 1.366 . S
C629 C633 1.385 . S
C630 H611 0.951 . S
C630 C628 1.388 . S
C630 C631 1.366 . S
C631 C630 1.366 . S
C631 C632 1.414 . S
C631 C634 1.499 . S
C632 H612 0.950 . S
C632 C631 1.414 . S
C632 C633 1.374 . S
C633 H613 0.950 . S
C633 C629 1.385 . S
C633 C632 1.374 . S
C634 C631 1.499 . S
C634 C635 1.373 . S
C634 C636 1.389 . S
C635 H614 0.950 . S
C635 C634 1.373 . S
C635 C651 1.377 . S
C636 C634 1.389 . S
C636 C637 1.524 . S
C636 C650 1.377 . S
C637 C636 1.524 . S
C637 C638 1.397 . S
C637 C642 1.363 . S
C638 H615 0.950 . S
C638 C637 1.397 . S
C638 C639 1.334 . S
C639 H616 0.950 . S
C639 C638 1.334 . S
C639 C640 1.287 . S
C640 C639 1.287 . S
C640 C641 1.524 . S
C640 H659 0.913 . S
C641 H617 0.950 . S
C641 C640 1.524 . S
C641 C642 1.415 . S
C642 H618 0.950 . S
C642 C637 1.363 . S
C642 C641 1.415 . S
C643 H619 0.951 . S
C643 C644 1.366 . S
C643 C645 1.388 . S
C644 C643 1.366 . S
C644 C648 1.385 . S
C645 H620 0.951 . S
C645 C643 1.388 . S
C645 C646 1.366 . S
C646 C645 1.366 . S
C646 C647 1.414 . S
C646 C649 1.499 . S
C647 H621 0.950 . S
C647 C646 1.414 . S
C647 C648 1.374 . S
C648 H622 0.950 . S
C648 C644 1.385 . S
C648 C647 1.374 . S
C649 C646 1.499 . S
C649 C650 1.373 . S
C649 C651 1.389 . S
C650 H623 0.950 . S
C650 C636 1.377 . S
C650 C649 1.373 . S
C651 C635 1.377 . S
C651 C649 1.389 . S
C651 C652 1.524 . S
C652 C651 1.524 . S
C652 C653 1.397 . S
C652 C657 1.363 . S
C653 H624 0.950 . S
C653 C652 1.397 . S
C653 C654 1.334 . S
C654 H625 0.950 . S
C654 C653 1.334 . S
C654 C655 1.287 . S
C655 C654 1.287 . S
C655 C656 1.524 . S
C655 H658 0.999 1_455 S
C656 H626 0.950 1_455 S
C656 C655 1.524 . S
C656 C657 1.415 . S
C657 H627 0.950 . S
C657 C652 1.363 . S
C657 C656 1.415 . S
H658 C655 0.999 1_655 S
H659 C640 0.913 . S
H660 C678 0.951 . S
H661 C680 0.951 . S
H662 C682 0.950 . S
H663 C683 0.950 . S
H664 C685 0.950 . S
H665 C688 0.950 . S
H666 C689 0.950 1_554 S
H667 C691 0.950 . S
H668 C692 0.950 . S
H669 C693 0.951 . S
H670 C695 0.951 . S
H671 C697 0.950 . S
H672 C698 0.950 . S
H673 C700 0.950 . S
H674 C703 0.950 . S
H675 C704 0.950 . S
H676 C706 0.950 . S
H677 C707 0.950 . S
C678 H660 0.951 . S
C678 C679 1.366 . S
C678 C680 1.388 . S
C679 C678 1.366 . S
C679 C683 1.385 . S
C680 H661 0.951 . S
C680 C678 1.388 . S
C680 C681 1.366 . S
C681 C680 1.366 . S
C681 C682 1.414 . S
C681 C684 1.499 . S
C682 H662 0.950 . S
C682 C681 1.414 . S
C682 C683 1.374 . S
C683 H663 0.950 . S
C683 C679 1.385 . S
C683 C682 1.374 . S
C684 C681 1.499 . S
C684 C685 1.373 . S
C684 C686 1.389 . S
C685 H664 0.950 . S
C685 C684 1.373 . S
C685 C701 1.377 . S
C686 C684 1.389 . S
C686 C687 1.524 . S
C686 C700 1.377 . S
C687 C686 1.524 . S
C687 C688 1.397 . S
C687 C692 1.363 . S
C688 H665 0.950 . S
C688 C687 1.397 . S
C688 C689 1.334 . S
C689 H666 0.950 1_556 S
C689 C688 1.334 . S
C689 C690 1.287 1_556 S
C690 C689 1.287 1_554 S
C690 C691 1.524 1_554 S
C690 H709 0.913 . S
C691 H667 0.950 . S
C691 C690 1.524 1_556 S
C691 C692 1.415 . S
C692 H668 0.950 . S
C692 C687 1.363 . S
C692 C691 1.415 . S
C693 H669 0.951 . S
C693 C694 1.366 . S
C693 C695 1.388 . S
C694 C693 1.366 . S
C694 C698 1.385 . S
C695 H670 0.951 . S
C695 C693 1.388 . S
C695 C696 1.366 . S
C696 C695 1.366 . S
C696 C697 1.414 . S
C696 C699 1.499 . S
C697 H671 0.950 . S
C697 C696 1.414 . S
C697 C698 1.374 . S
C698 H672 0.950 . S
C698 C694 1.385 . S
C698 C697 1.374 . S
C699 C696 1.499 . S
C699 C700 1.373 . S
C699 C701 1.389 . S
C700 H673 0.950 . S
C700 C686 1.377 . S
C700 C699 1.373 . S
C701 C685 1.377 . S
C701 C699 1.389 . S
C701 C702 1.524 . S
C702 C701 1.524 . S
C702 C703 1.397 . S
C702 C707 1.363 . S
C703 H674 0.950 . S
C703 C702 1.397 . S
C703 C704 1.334 . S
C704 H675 0.950 . S
C704 C703 1.334 . S
C704 C705 1.287 . S
C705 C704 1.287 . S
C705 C706 1.524 . S
C705 H708 0.999 . S
C706 H676 0.950 . S
C706 C705 1.524 . S
C706 C707 1.415 . S
C707 H677 0.950 . S
C707 C702 1.363 . S
C707 C706 1.415 . S
H708 C705 0.999 . S
H709 C690 0.913 . S
H710 C728 0.951 . S
H711 C730 0.951 . S
H712 C732 0.950 . S
H713 C733 0.950 . S
H714 C735 0.950 . S
H715 C738 0.950 . S
H716 C739 0.950 . S
H717 C741 0.950 . S
H718 C742 0.950 . S
H719 C743 0.951 . S
H720 C745 0.951 . S
H721 C747 0.950 . S
H722 C748 0.950 . S
H723 C750 0.950 . S
H724 C753 0.950 . S
H725 C754 0.950 . S
H726 C756 0.950 . S
H727 C757 0.950 . S
C728 H710 0.951 . S
C728 C729 1.366 . S
C728 C730 1.388 . S
C729 C728 1.366 . S
C729 C733 1.385 . S
C730 H711 0.951 . S
C730 C728 1.388 . S
C730 C731 1.366 . S
C731 C730 1.366 . S
C731 C732 1.414 . S
C731 C734 1.499 . S
C732 H712 0.950 . S
C732 C731 1.414 . S
C732 C733 1.374 . S
C733 H713 0.950 . S
C733 C729 1.385 . S
C733 C732 1.374 . S
C734 C731 1.499 . S
C734 C735 1.373 . S
C734 C736 1.389 . S
C735 H714 0.950 . S
C735 C734 1.373 . S
C735 C751 1.377 . S
C736 C734 1.389 . S
C736 C737 1.524 . S
C736 C750 1.377 . S
C737 C736 1.524 . S
C737 C738 1.397 . S
C737 C742 1.363 . S
C738 H715 0.950 . S
C738 C737 1.397 . S
C738 C739 1.334 1_565 S
C739 H716 0.950 . S
C739 C738 1.334 1_545 S
C739 C740 1.287 . S
C740 C739 1.287 . S
C740 C741 1.524 . S
C740 H759 0.913 . S
C741 H717 0.950 . S
C741 C740 1.524 . S
C741 C742 1.415 1_545 S
C742 H718 0.950 . S
C742 C737 1.363 . S
C742 C741 1.415 1_565 S
C743 H719 0.951 . S
C743 C744 1.366 . S
C743 C745 1.388 . S
C744 C743 1.366 . S
C744 C748 1.385 . S
C745 H720 0.951 . S
C745 C743 1.388 . S
C745 C746 1.366 . S
C746 C745 1.366 . S
C746 C747 1.414 . S
C746 C749 1.499 . S
C747 H721 0.950 . S
C747 C746 1.414 . S
C747 C748 1.374 . S
C748 H722 0.950 . S
C748 C744 1.385 . S
C748 C747 1.374 . S
C749 C746 1.499 . S
C749 C750 1.373 . S
C749 C751 1.389 . S
C750 H723 0.950 . S
C750 C736 1.377 . S
C750 C749 1.373 . S
C751 C735 1.377 . S
C751 C749 1.389 . S
C751 C752 1.524 . S
C752 C751 1.524 . S
C752 C753 1.397 . S
C752 C757 1.363 . S
C753 H724 0.950 . S
C753 C752 1.397 . S
C753 C754 1.334 . S
C754 H725 0.950 . S
C754 C753 1.334 . S
C754 C755 1.287 . S
C755 C754 1.287 . S
C755 C756 1.524 . S
C755 H758 0.999 . S
C756 H726 0.950 . S
C756 C755 1.524 . S
C756 C757 1.415 . S
C757 H727 0.950 . S
C757 C752 1.363 . S
C757 C756 1.415 . S
H758 C755 0.999 . S
H759 C740 0.913 . S
H760 C778 0.951 . S
H761 C780 0.951 . S
H762 C782 0.950 . S
H763 C783 0.950 . S
H764 C785 0.950 . S
H765 C788 0.950 . S
H766 C789 0.950 1_554 S
H767 C791 0.950 . S
H768 C792 0.950 . S
H769 C793 0.951 . S
H770 C795 0.951 . S
H771 C797 0.950 . S
H772 C798 0.950 . S
H773 C800 0.950 . S
H774 C803 0.950 . S
H775 C804 0.950 . S
H776 C806 0.950 . S
H777 C807 0.950 . S
C778 H760 0.951 . S
C778 C779 1.366 . S
C778 C780 1.388 . S
C779 C778 1.366 . S
C779 C783 1.385 . S
C780 H761 0.951 . S
C780 C778 1.388 . S
C780 C781 1.366 . S
C781 C780 1.366 . S
C781 C782 1.414 . S
C781 C784 1.499 . S
C782 H762 0.950 . S
C782 C781 1.414 . S
C782 C783 1.374 . S
C783 H763 0.950 . S
C783 C779 1.385 . S
C783 C782 1.374 . S
C784 C781 1.499 . S
C784 C785 1.373 . S
C784 C786 1.389 . S
C785 H764 0.950 . S
C785 C784 1.373 . S
C785 C801 1.377 . S
C786 C784 1.389 . S
C786 C787 1.524 . S
C786 C800 1.377 . S
C787 C786 1.524 . S
C787 C788 1.397 . S
C787 C792 1.363 . S
C788 H765 0.950 . S
C788 C787 1.397 . S
C788 C789 1.334 . S
C789 H766 0.950 1_556 S
C789 C788 1.334 . S
C789 C790 1.287 1_556 S
C790 C789 1.287 1_554 S
C790 C791 1.524 . S
C790 H809 0.913 . S
C791 H767 0.950 . S
C791 C790 1.524 . S
C791 C792 1.415 1_554 S
C792 H768 0.950 . S
C792 C787 1.363 . S
C792 C791 1.415 1_556 S
C793 H769 0.951 . S
C793 C794 1.366 . S
C793 C795 1.388 . S
C794 C793 1.366 . S
C794 C798 1.385 . S
C795 H770 0.951 . S
C795 C793 1.388 . S
C795 C796 1.366 . S
C796 C795 1.366 . S
C796 C797 1.414 . S
C796 C799 1.499 . S
C797 H771 0.950 . S
C797 C796 1.414 . S
C797 C798 1.374 . S
C798 H772 0.950 . S
C798 C794 1.385 . S
C798 C797 1.374 . S
C799 C796 1.499 . S
C799 C800 1.373 . S
C799 C801 1.389 . S
C800 H773 0.950 . S
C800 C786 1.377 . S
C800 C799 1.373 . S
C801 C785 1.377 . S
C801 C799 1.389 . S
C801 C802 1.524 . S
C802 C801 1.524 . S
C802 C803 1.397 . S
C802 C807 1.363 . S
C803 H774 0.950 . S
C803 C802 1.397 . S
C803 C804 1.334 . S
C804 H775 0.950 . S
C804 C803 1.334 . S
C804 C805 1.287 . S
C805 C804 1.287 . S
C805 C806 1.524 . S
C805 H808 0.999 . S
C806 H776 0.950 . S
C806 C805 1.524 . S
C806 C807 1.415 . S
C807 H777 0.950 . S
C807 C802 1.363 . S
C807 C806 1.415 . S
H808 C805 0.999 . S
H809 C790 0.913 . S
C229 C58 1.166 . S
C244 C187 1.247 . S
C279 C151 1.520 . S
C294 C193 1.383 . S
C329 C56 1.590 . S
C344 C184 1.467 . S
C379 C153 1.194 . S
C394 C209 1.250 . S
C429 C74 1.562 . S
C444 C175 1.430 . S
C494 C192 1.510 . S
C479 C147 1.602 . S
C529 C142 1.165 . S
C544 C188 1.246 . S
C594 C205 1.511 . S
C579 C63 1.603 . S
C644 C172 1.430 . S
C629 C158 1.562 . S
C694 C208 1.250 . S
C679 C69 1.193 . S
C744 C171 1.467 . S
C729 C140 1.590 . S
C794 C196 1.383 . S
C779 C67 1.520 . S
