# Generated by pormake.
# Topology pth, (4,4)-cn, num edge types: 1
# Building blocks:
#     Node 0, Type 0, BuildingBlock: QUQFOY_clean_sbu_1, # of connection points: 4
#     Node 1, Type 0, BuildingBlock: QUQFOY_clean_sbu_1, # of connection points: 4
#     Node 2, Type 0, BuildingBlock: QUQFOY_clean_sbu_1, # of connection points: 4
#     Node 3, Type 1, BuildingBlock: MUDLON_clean_sbu_0, # of connection points: 4
#     Node 4, Type 1, BuildingBlock: MUDLON_clean_sbu_0, # of connection points: 4
#     Node 5, Type 1, BuildingBlock: MUDLON_clean_sbu_0, # of connection points: 4
#     Edge 6, Type (0, 1), BuildingBlock: XIVTED_clean_linker_0, # of connection points: 2
#     Edge 7, Type (0, 1), BuildingBlock: XIVTED_clean_linker_0, # of connection points: 2
#     Edge 8, Type (0, 1), BuildingBlock: XIVTED_clean_linker_0, # of connection points: 2
#     Edge 9, Type (0, 1), BuildingBlock: XIVTED_clean_linker_0, # of connection points: 2
#     Edge 10, Type (0, 1), BuildingBlock: XIVTED_clean_linker_0, # of connection points: 2
#     Edge 11, Type (0, 1), BuildingBlock: XIVTED_clean_linker_0, # of connection points: 2
#     Edge 12, Type (0, 1), BuildingBlock: XIVTED_clean_linker_0, # of connection points: 2
#     Edge 13, Type (0, 1), BuildingBlock: XIVTED_clean_linker_0, # of connection points: 2
#     Edge 14, Type (0, 1), BuildingBlock: XIVTED_clean_linker_0, # of connection points: 2
#     Edge 15, Type (0, 1), BuildingBlock: XIVTED_clean_linker_0, # of connection points: 2
#     Edge 16, Type (0, 1), BuildingBlock: XIVTED_clean_linker_0, # of connection points: 2
#     Edge 17, Type (0, 1), BuildingBlock: XIVTED_clean_linker_0, # of connection points: 2
# Relax obj value: 0.038
# Max RMSD: 0.129
# Mean RMSD: 0.076
data_MOF--net-pth--node1-QUQFOY_clean_sbu_1--node2-MUDLON_clean_sbu_0--edge1-XIVTED_clean_linker_0
_symmetry_space_group_name_H-M    P1
_symmetry_Int_Tables_number       1
_symmetry_cell_setting            triclinic
loop_
_symmetry_equiv_pos_as_xyz
'x, y, z'
_cell_length_a     21.89614
_cell_length_b     23.413419
_cell_length_c     61.493519
_cell_angle_alpha  89.821226
_cell_angle_beta   90.282459
_cell_angle_gamma 119.39011
loop_
_atom_site_label
_atom_site_type_symbol
_atom_site_fract_x
_atom_site_fract_y
_atom_site_fract_z
_atom_type_partial_charge
O0 O 0.05059 0.09657 0.06253 0.0
Cd1 Cd 0.97405 0.03757 0.08413 0.0
Cd2 Cd 0.05209 0.98208 0.08621 0.0
O3 O 0.12924 0.06897 0.07277 0.0
O4 O 0.93017 0.09038 0.09404 0.0
O5 O 0.99505 0.06505 0.11538 0.0
C6 C 0.96097 0.09647 0.11254 0.0
C7 C 0.0546 0.93214 0.11872 0.0
C8 C 0.11271 0.10568 0.06179 0.0
C9 C 0.9158 0.90789 0.06326 0.0
O10 O 0.97819 0.91812 0.06487 0.0
O11 O 0.89853 0.94643 0.07255 0.0
O12 O 0.08831 0.92971 0.10186 0.0
O13 O 0.02459 0.96771 0.11756 0.0
O14 O 0.93117 0.024 0.44239 0.0
Cd15 Cd 0.02103 0.08059 0.42502 0.0
Cd16 Cd 0.01407 0.95323 0.42389 0.0
O17 O 0.92328 0.92607 0.44174 0.0
O18 O 0.01728 0.16328 0.42034 0.0
O19 O 1.01059 0.09828 0.3934 0.0
C20 C 1.00878 0.14988 0.39987 0.0
C21 C 0.0202 0.88227 0.39819 0.0
C22 C 0.89966 0.96368 0.44753 0.0
C23 C 0.14179 0.07051 0.44426 0.0
O24 O 0.10885 1.01034 0.439 0.0
O25 O 0.11657 0.10815 0.44022 0.0
O26 O 0.01676 0.87028 0.41873 0.0
O27 O 0.01617 0.93311 0.39199 0.0
O28 O 0.91521 1.01039 0.72815 0.0
Cd29 Cd 0.95645 0.95945 0.7439 0.0
Cd30 Cd 0.076 0.08232 0.74208 0.0
O31 O 1.00901 0.10868 0.72641 0.0
O32 O 0.87236 0.87873 0.75459 0.0
O33 O 0.95001 0.95434 0.77658 0.0
C34 C 0.89156 0.9003 0.7741 0.0
C35 C 0.15529 0.14924 0.76882 0.0
C36 C 0.94442 0.07019 0.72243 0.0
C37 C 0.079 0.96836 0.71961 0.0
O38 O 0.1103 0.02873 0.72465 0.0
O39 O 0.01629 0.93048 0.72569 0.0
O40 O 0.16415 0.16542 0.74855 0.0
O41 O 0.0992 0.09593 0.77415 0.0
Mg42 Mg 0.9994 0.51367 0.25446 0.0
C43 C 0.92668 0.4366 0.29627 0.0
O44 O 0.93467 0.49269 0.30343 0.0
C45 C 0.95306 0.6098 0.23917 0.0
O46 O 0.97548 0.63479 0.25858 0.0
C47 C 0.9836 0.43304 0.21772 0.0
O48 O 0.92402 0.43279 0.22052 0.0
O49 O 0.03464 0.46807 0.23039 0.0
O50 O 0.94031 0.43196 0.2765 0.0
O51 O 0.07392 0.59846 0.27325 0.0
C52 C 0.09106 0.59494 0.29278 0.0
O53 O 0.08183 0.53853 0.30014 0.0
O54 O 0.94702 0.55424 0.23467 0.0
Mg55 Mg 0.51631 0.01926 0.58318 0.0
C56 C 0.50196 0.09105 0.5447 0.0
O57 O 0.54886 0.07641 0.53736 0.0
C58 C 0.60348 0.08916 0.62214 0.0
O59 O 0.54078 0.0748 0.62897 0.0
C60 C 0.36998 0.94398 0.60302 0.0
O61 O 0.3506 0.95395 0.58377 0.0
O62 O 0.43413 0.96144 0.60637 0.0
O63 O 0.482 0.07731 0.56434 0.0
O64 O 0.53841 0.96253 0.55972 0.0
C65 C 0.58249 0.94303 0.56324 0.0
O66 O 0.61046 0.95071 0.5827 0.0
O67 O 0.61053 0.07608 0.60256 0.0
Mg68 Mg 0.51727 0.51076 0.91795 0.0
C69 C 0.51736 0.44473 0.87593 0.0
O70 O 0.55363 0.50599 0.86952 0.0
C71 C 0.58032 0.57714 0.95796 0.0
O72 O 0.51884 0.57388 0.95629 0.0
C73 C 0.43318 0.41441 0.94831 0.0
O74 O 0.48966 0.41017 0.94415 0.0
O75 O 0.42427 0.45707 0.93798 0.0
O76 O 0.5057 0.43285 0.89614 0.0
O77 O 0.53382 0.59177 0.89638 0.0
C78 C 0.58805 0.64755 0.89925 0.0
O79 O 0.62299 0.65874 0.91759 0.0
O80 O 0.59902 0.55168 0.9429 0.0
H81 H 0.03841 0.13601 0.15024 0.0
H82 H 0.89945 0.38269 0.18247 0.0
H83 H 0.88879 0.16419 0.11236 0.0
H84 H 0.07345 0.38186 0.21541 0.0
H85 H 0.89376 0.30031 0.15734 0.0
H86 H 0.04877 0.22128 0.17544 0.0
C87 C 1.00716 0.15958 0.14734 0.0
C88 C 0.96249 0.14279 0.12916 0.0
C89 C 0.93358 0.31823 0.16994 0.0
C90 C 0.97475 0.24079 0.1578 0.0
C91 C 0.93696 0.36546 0.18431 0.0
C92 C 0.98692 0.38909 0.20111 0.0
C93 C 0.98006 0.29355 0.17239 0.0
C94 C 0.03434 0.36515 0.20261 0.0
C95 C 0.01358 0.20861 0.16164 0.0
C96 C 0.92378 0.17536 0.12614 0.0
N97 N 0.02937 0.31815 0.18853 0.0
N98 N 0.93084 0.22269 0.14028 0.0
H99 H 0.85875 0.87304 0.48049 0.0
H100 H 0.55783 0.94877 0.51981 0.0
H101 H 0.80055 1.00137 0.44697 0.0
H102 H 0.67475 0.89521 0.56422 0.0
H103 H 0.62199 0.93636 0.48951 0.0
H104 H 0.76739 0.85041 0.50769 0.0
C105 C 0.8256 0.89507 0.47857 0.0
C106 C 0.83737 0.9395 0.46161 0.0
C107 C 0.6328 0.92637 0.50587 0.0
C108 C 0.7333 0.91373 0.49237 0.0
C109 C 0.59602 0.93318 0.5232 0.0
C110 C 0.61169 0.92404 0.54467 0.0
C111 C 0.68526 0.90974 0.50995 0.0
C112 C 0.66159 0.90357 0.54796 0.0
C113 C 0.77398 0.88254 0.49413 0.0
C114 C 0.79351 0.96727 0.45993 0.0
N115 N 0.69715 0.8977 0.53079 0.0
N116 N 0.74364 0.95414 0.47515 0.0
H117 H 0.91343 0.9342 0.81731 0.0
H118 H 0.55168 0.62656 0.85591 0.0
H119 H 0.7642 0.78812 0.77351 0.0
H120 H 0.70418 0.76912 0.8999 0.0
H121 H 0.62328 0.69102 0.82522 0.0
H122 H 0.83384 0.87842 0.84758 0.0
C123 C 0.8641 0.89026 0.81406 0.0
C124 C 0.84573 0.86565 0.79284 0.0
C125 C 0.64069 0.70856 0.84159 0.0
C126 C 0.75388 0.80185 0.8274 0.0
C127 C 0.59947 0.67201 0.85914 0.0
C128 C 0.6222 0.69203 0.88056 0.0
C129 C 0.70509 0.76556 0.84548 0.0
C130 C 0.68478 0.75139 0.88369 0.0
C131 C 0.81848 0.85858 0.83134 0.0
C132 C 0.78081 0.80874 0.7896 0.0
N133 N 0.72429 0.78563 0.86638 0.0
N134 N 0.73736 0.7788 0.80667 0.0
H135 H 1.00421 0.93775 0.15899 0.0
H136 H 0.9509 0.58888 0.1953 0.0
H137 H 0.07643 0.82711 0.12147 0.0
H138 H 0.96114 0.73031 0.24217 0.0
H139 H 0.97588 0.66903 0.1664 0.0
H140 H 0.97217 0.85732 0.18851 0.0
C141 C 0.01404 0.897 0.15705 0.0
C142 C 0.04338 0.88931 0.13777 0.0
C143 C 0.97209 0.6823 0.183 0.0
C144 C 1.005 0.79643 0.17114 0.0
C145 C 0.95704 0.63632 0.19951 0.0
C146 C 0.95431 0.65296 0.22127 0.0
C147 C 0.98366 0.7452 0.18817 0.0
C148 C 0.96307 0.71545 0.22565 0.0
C149 C 0.99548 0.85107 0.17385 0.0
C150 C 0.05451 0.83534 0.13609 0.0
N151 N 0.97759 0.75943 0.20925 0.0
N152 N 0.0347 0.79067 0.15246 0.0
H153 H 0.24431 0.04046 0.4364 0.0
H154 H 0.40222 0.12666 0.55374 0.0
H155 H 0.18909 0.15248 0.47958 0.0
H156 H 0.51259 0.09899 0.50042 0.0
H157 H 0.32543 0.13978 0.52744 0.0
H158 H 0.34457 0.06381 0.45966 0.0
C159 C 0.25421 0.07102 0.45063 0.0
C160 C 0.20858 0.09459 0.45614 0.0
C161 C 0.36737 0.13211 0.52154 0.0
C162 C 0.32201 0.12001 0.4832 0.0
C163 C 0.41114 0.12449 0.53652 0.0
C164 C 0.46337 0.11079 0.5293 0.0
C165 C 0.37519 0.12482 0.49923 0.0
C166 C 0.47269 0.10884 0.50679 0.0
C167 C 0.31143 0.08442 0.46389 0.0
C168 C 0.22347 0.1338 0.47476 0.0
N169 N 0.42824 0.11452 0.49259 0.0
N170 N 0.27823 0.14421 0.48793 0.0
H171 H 0.15729 0.12736 0.81278 0.0
H172 H 0.52621 0.45302 0.83158 0.0
H173 H 0.27851 0.26212 0.7618 0.0
H174 H 0.40828 0.32039 0.88345 0.0
H175 H 0.44055 0.37776 0.80545 0.0
H176 H 0.25105 0.19323 0.83874 0.0
C177 C 0.20342 0.17085 0.80705 0.0
C178 C 0.20978 0.18938 0.78508 0.0
C179 C 0.43368 0.36466 0.82252 0.0
C180 C 0.31759 0.26458 0.81463 0.0
C181 C 0.48296 0.40752 0.83746 0.0
C182 C 0.4743 0.39341 0.8598 0.0
C183 C 0.37483 0.30725 0.82991 0.0
C184 C 0.41712 0.33348 0.8664 0.0
C185 C 0.2571 0.20825 0.82186 0.0
C186 C 0.27102 0.246 0.77857 0.0
N187 N 0.36914 0.29301 0.85156 0.0
N188 N 0.32231 0.28149 0.79325 0.0
H189 H 0.98535 0.15613 0.68811 0.0
H190 H 0.59673 0.09311 0.6664 0.0
H191 H 0.8074 0.03386 0.72831 0.0
H192 H 0.74176 0.12654 0.61421 0.0
H193 H 0.6864 0.10492 0.69257 0.0
H194 H 0.90792 0.17752 0.66428 0.0
C195 C 0.93041 0.13514 0.69218 0.0
C196 C 0.90241 0.09289 0.71007 0.0
C197 C 0.69885 0.11064 0.6754 0.0
C198 C 0.81447 0.11747 0.68323 0.0
C199 C 0.64782 0.10417 0.66042 0.0
C200 C 0.66135 0.10786 0.63802 0.0
C201 C 0.76423 0.12163 0.66799 0.0
C202 C 0.7288 0.12257 0.63131 0.0
C203 C 0.88636 0.14697 0.67855 0.0
C204 C 0.83083 0.06632 0.71457 0.0
N205 N 0.77767 0.1284 0.64624 0.0
N206 N 0.78933 0.07896 0.70123 0.0
H207 H 0.94061 0.82522 0.03816 0.0
H208 H 0.54838 0.62833 0.99284 0.0
H209 H 0.7752 0.86437 0.05732 0.0
H210 H 0.72063 0.61618 0.96368 0.0
H211 H 0.62812 0.70302 0.02009 0.0
H212 H 0.85823 0.73804 1.01429 0.0
C213 C 0.88683 0.81529 0.03747 0.0
C214 C 0.8649 0.85257 0.04972 0.0
C215 C 0.64858 0.68388 1.00782 0.0
C216 C 0.77033 0.75247 0.02237 0.0
C217 C 0.60304 0.641 0.99223 0.0
C218 C 0.62801 0.61642 0.97577 0.0
C219 C 0.71991 0.70253 1.00707 0.0
C220 C 0.69922 0.63415 0.97602 0.0
C221 C 0.83992 0.76551 0.02378 0.0
C222 C 0.79456 0.83722 0.04813 0.0
N223 N 0.74288 0.67656 0.99137 0.0
N224 N 0.74985 0.78844 0.03467 0.0
H225 H 0.03111 0.7732 0.40702 0.0
H226 H 0.10274 0.7149 0.28372 0.0
H227 H 0.04014 0.89804 0.35391 0.0
H228 H 0.09318 0.59143 0.33736 0.0
H229 H 0.08925 0.7875 0.30933 0.0
H230 H 0.05924 0.70937 0.38182 0.0
C231 C 0.03864 0.78706 0.39001 0.0
C232 C 0.03289 0.84102 0.38258 0.0
C233 C 0.0909 0.74494 0.31553 0.0
C234 C 0.06601 0.76812 0.35354 0.0
C235 C 0.09908 0.70358 0.30091 0.0
C236 C 0.09853 0.64645 0.30833 0.0
C237 C 0.08198 0.72916 0.33776 0.0
C238 C 0.09379 0.63468 0.33083 0.0
C239 C 0.0551 0.75067 0.37562 0.0
C240 C 0.04364 0.85667 0.36035 0.0
N241 N 0.08498 0.67522 0.34469 0.0
N242 N 0.05964 0.82038 0.34662 0.0
H243 H 0.02359 0.8765 0.68712 0.0
H244 H 0.40147 0.9491 0.64635 0.0
H245 H 0.21811 1.00762 0.71928 0.0
H246 H 0.22788 0.89813 0.60239 0.0
H247 H 0.32551 0.93819 0.67686 0.0
H248 H 0.09001 0.85319 0.65969 0.0
C249 C 0.08001 0.89905 0.68869 0.0
C250 C 0.11564 0.94438 0.70534 0.0
C251 C 0.30384 0.9284 0.66056 0.0
C252 C 0.19128 0.91773 0.67435 0.0
C253 C 0.34703 0.93432 0.64311 0.0
C254 C 0.32131 0.92549 0.6217 0.0
C255 C 0.23418 0.91288 0.65666 0.0
C256 C 0.25014 0.90618 0.61859 0.0
C257 C 0.11778 0.88611 0.67301 0.0
C258 C 0.18878 0.9728 0.70657 0.0
N259 N 0.20913 0.90107 0.63588 0.0
N260 N 0.22419 0.95916 0.69125 0.0
H261 H 0.24665 0.13271 0.05213 0.0
H262 H 0.30895 0.40565 0.96229 0.0
H263 H 0.09484 0.19463 0.03754 0.0
H264 H 0.44831 0.32727 0.97381 0.0
H265 H 0.23265 0.33461 0.99141 0.0
H266 H 0.32556 0.21126 0.02535 0.0
C267 C 0.23009 0.16312 0.04343 0.0
C268 C 0.16382 0.15667 0.04701 0.0
C269 C 0.28005 0.33319 0.98751 0.0
C270 C 0.2537 0.24651 0.01618 0.0
C271 C 0.32344 0.3736 0.97089 0.0
C272 C 0.3849 0.37223 0.96551 0.0
C273 C 0.29862 0.29153 0.99882 0.0
C274 C 0.40136 0.32994 0.97726 0.0
C275 C 0.27506 0.20785 0.02807 0.0
C276 C 0.14527 0.19756 0.03524 0.0
N277 N 0.35859 0.29144 0.99329 0.0
N278 N 0.1898 0.24049 0.02029 0.0
H279 H 1.0004 0.25982 0.40933 0.0
H280 H 0.91326 0.31633 0.2872 0.0
H281 H 0.98121 0.13271 0.35595 0.0
H282 H 0.93253 0.44259 0.34088 0.0
H283 H 0.92886 0.24383 0.31248 0.0
H284 H 0.97003 0.32406 0.38475 0.0
C285 C 0.99009 0.2455 0.3924 0.0
C286 C 0.99373 0.19084 0.38469 0.0
C287 C 0.92892 0.287 0.31878 0.0
C288 C 0.95814 0.26422 0.35639 0.0
C289 C 0.91956 0.32831 0.30435 0.0
C290 C 0.92198 0.38604 0.31186 0.0
C291 C 0.94108 0.30347 0.34091 0.0
C292 C 0.93027 0.39877 0.3343 0.0
C293 C 0.97239 0.28214 0.37837 0.0
C294 C 0.9794 0.17461 0.36259 0.0
N295 N 0.94022 0.35822 0.34797 0.0
N296 N 0.96232 0.21117 0.34922 0.0
loop_
_geom_bond_atom_site_label_1
_geom_bond_atom_site_label_2
_geom_bond_distance
_geom_bond_site_symmetry_2
_ccdc_geom_bond_type
O0 Cd1 2.223 1_455 S
O0 C8 1.315 . S
Cd1 O0 2.223 1_655 S
Cd1 O4 2.297 . S
Cd1 O5 2.439 . S
Cd1 O11 2.240 1_545 S
Cd2 O3 2.240 1_565 S
Cd2 O10 2.223 1_455 S
Cd2 O12 2.297 . S
Cd2 O13 2.439 . S
O3 Cd2 2.240 1_545 S
O3 C8 1.279 . S
O4 Cd1 2.297 . S
O4 C6 1.247 . S
O5 Cd1 2.439 . S
O5 C6 1.208 . S
C6 O4 1.247 . S
C6 O5 1.208 . S
C7 O12 1.247 . S
C7 O13 1.208 . S
C8 O0 1.315 . S
C8 O3 1.279 . S
C9 O10 1.315 . S
C9 O11 1.279 . S
O10 Cd2 2.223 1_655 S
O10 C9 1.315 . S
O11 Cd1 2.240 1_565 S
O11 C9 1.279 . S
O12 Cd2 2.297 . S
O12 C7 1.247 . S
O13 Cd2 2.439 . S
O13 C7 1.208 . S
O14 Cd15 2.223 1_655 S
O14 C22 1.315 . S
Cd15 O14 2.223 1_455 S
Cd15 O18 2.297 . S
Cd15 O19 2.439 . S
Cd15 O25 2.240 . S
Cd16 O17 2.240 . S
Cd16 O24 2.223 1_655 S
Cd16 O26 2.297 . S
Cd16 O27 2.439 . S
O17 Cd16 2.240 . S
O17 C22 1.279 1_565 S
O18 Cd15 2.297 . S
O18 C20 1.247 . S
O19 Cd15 2.439 . S
O19 C20 1.208 . S
C20 O18 1.247 . S
C20 O19 1.208 . S
C21 O26 1.247 . S
C21 O27 1.208 . S
C22 O14 1.315 . S
C22 O17 1.279 1_545 S
C23 O24 1.315 . S
C23 O25 1.279 1_565 S
O24 Cd16 2.223 1_455 S
O24 C23 1.315 . S
O25 Cd15 2.240 . S
O25 C23 1.279 1_545 S
O26 Cd16 2.297 . S
O26 C21 1.247 . S
O27 Cd16 2.439 . S
O27 C21 1.208 . S
O28 Cd29 2.223 . S
O28 C36 1.315 . S
Cd29 O28 2.223 . S
Cd29 O32 2.297 . S
Cd29 O33 2.439 . S
Cd29 O39 2.240 1_655 S
Cd30 O31 2.240 1_455 S
Cd30 O38 2.223 . S
Cd30 O40 2.297 . S
Cd30 O41 2.439 . S
O31 Cd30 2.240 1_655 S
O31 C36 1.279 1_545 S
O32 Cd29 2.297 . S
O32 C34 1.247 . S
O33 Cd29 2.439 . S
O33 C34 1.208 . S
C34 O32 1.247 . S
C34 O33 1.208 . S
C35 O40 1.247 . S
C35 O41 1.208 . S
C36 O28 1.315 . S
C36 O31 1.279 1_565 S
C37 O38 1.315 . S
C37 O39 1.279 1_545 S
O38 Cd30 2.223 . S
O38 C37 1.315 . S
O39 Cd29 2.240 1_455 S
O39 C37 1.279 1_565 S
O40 Cd30 2.297 . S
O40 C35 1.247 . S
O41 Cd30 2.439 . S
O41 C35 1.208 . S
Mg42 O49 2.141 . S
Mg42 O50 2.048 . S
Mg42 O51 2.048 . S
Mg42 O54 2.141 . S
C43 O44 1.313 . S
C43 O50 1.195 1_655 S
O44 C43 1.313 . S
C45 O46 1.245 . S
C45 O54 1.289 1_655 S
O46 C45 1.245 . S
C47 O48 1.245 . S
C47 O49 1.289 1_655 S
O48 C47 1.245 . S
O49 Mg42 2.141 . S
O49 C47 1.289 1_455 S
O50 Mg42 2.048 . S
O50 C43 1.195 1_455 S
O51 Mg42 2.048 . S
O51 C52 1.195 1_455 S
C52 O51 1.195 1_655 S
C52 O53 1.313 . S
O53 C52 1.313 . S
O54 Mg42 2.141 . S
O54 C45 1.289 1_455 S
Mg55 O62 2.141 . S
Mg55 O63 2.048 . S
Mg55 O64 2.048 . S
Mg55 O67 2.141 . S
C56 O57 1.313 . S
C56 O63 1.195 1_565 S
O57 C56 1.313 . S
C58 O59 1.245 . S
C58 O67 1.289 1_565 S
O59 C58 1.245 . S
C60 O61 1.245 . S
C60 O62 1.289 1_565 S
O61 C60 1.245 . S
O62 Mg55 2.141 . S
O62 C60 1.289 1_545 S
O63 Mg55 2.048 . S
O63 C56 1.195 1_545 S
O64 Mg55 2.048 . S
O64 C65 1.195 1_545 S
C65 O64 1.195 1_565 S
C65 O66 1.313 . S
O66 C65 1.313 . S
O67 Mg55 2.141 . S
O67 C58 1.289 1_545 S
Mg68 O75 2.141 . S
Mg68 O76 2.048 . S
Mg68 O77 2.048 . S
Mg68 O80 2.141 . S
C69 O70 1.313 . S
C69 O76 1.195 . S
O70 C69 1.313 . S
C71 O72 1.245 . S
C71 O80 1.289 . S
O72 C71 1.245 . S
C73 O74 1.245 . S
C73 O75 1.289 . S
O74 C73 1.245 . S
O75 Mg68 2.141 . S
O75 C73 1.289 . S
O76 Mg68 2.048 . S
O76 C69 1.195 . S
O77 Mg68 2.048 . S
O77 C78 1.195 . S
C78 O77 1.195 . S
C78 O79 1.313 . S
O79 C78 1.313 . S
O80 Mg68 2.141 . S
O80 C71 1.289 . S
H81 C87 0.930 . S
H82 C91 0.930 . S
H83 C96 0.929 . S
H84 C94 0.929 . S
H85 C89 0.929 . S
H86 C95 0.929 . S
C87 H81 0.930 . S
C87 C88 1.370 . S
C87 C95 1.378 . S
C88 C87 1.370 . S
C88 C96 1.427 1_455 S
C89 H85 0.929 . S
C89 C91 1.378 . S
C89 C93 1.359 . S
C90 C93 1.452 1_455 S
C90 C95 1.360 . S
C90 N98 1.422 1_455 S
C91 H82 0.930 . S
C91 C89 1.378 . S
C91 C92 1.369 . S
C92 C91 1.369 . S
C92 C94 1.428 1_655 S
C93 C89 1.359 . S
C93 C90 1.452 1_655 S
C93 N97 1.423 1_655 S
C94 H84 0.929 . S
C94 C92 1.428 1_455 S
C94 N97 1.384 . S
C95 H86 0.929 . S
C95 C87 1.378 . S
C95 C90 1.360 . S
C96 H83 0.929 . S
C96 C88 1.427 1_655 S
C96 N98 1.384 . S
N97 C93 1.423 1_455 S
N97 C94 1.384 . S
N98 C90 1.422 1_655 S
N98 C96 1.384 . S
H99 C105 0.930 . S
H100 C109 0.930 . S
H101 C114 0.929 . S
H102 C112 0.929 . S
H103 C107 0.929 . S
H104 C113 0.929 . S
C105 H99 0.930 . S
C105 C106 1.367 1_565 S
C105 C113 1.378 . S
C106 C105 1.367 1_545 S
C106 C114 1.433 . S
C107 H103 0.929 . S
C107 C109 1.378 . S
C107 C111 1.350 . S
C108 C111 1.463 . S
C108 C113 1.350 1_545 S
C108 N116 1.427 . S
C109 H100 0.930 . S
C109 C107 1.378 . S
C109 C110 1.367 . S
C110 C109 1.367 . S
C110 C112 1.433 1_545 S
C111 C107 1.350 . S
C111 C108 1.463 . S
C111 N115 1.427 1_545 S
C112 H102 0.929 . S
C112 C110 1.433 1_565 S
C112 N115 1.384 . S
C113 H104 0.929 . S
C113 C105 1.378 . S
C113 C108 1.350 1_565 S
C114 H101 0.929 . S
C114 C106 1.433 . S
C114 N116 1.384 . S
N115 C111 1.427 1_565 S
N115 C112 1.384 . S
N116 C108 1.427 . S
N116 C114 1.384 . S
H117 C123 0.930 . S
H118 C127 0.930 . S
H119 C132 0.929 . S
H120 C130 0.929 . S
H121 C125 0.929 . S
H122 C131 0.929 . S
C123 H117 0.930 . S
C123 C124 1.367 . S
C123 C131 1.378 . S
C124 C123 1.367 . S
C124 C132 1.433 . S
C125 H121 0.929 . S
C125 C127 1.378 . S
C125 C129 1.350 . S
C126 C129 1.463 . S
C126 C131 1.350 . S
C126 N134 1.427 . S
C127 H118 0.930 . S
C127 C125 1.378 . S
C127 C128 1.367 . S
C128 C127 1.367 . S
C128 C130 1.433 . S
C129 C125 1.350 . S
C129 C126 1.463 . S
C129 N133 1.427 . S
C130 H120 0.929 . S
C130 C128 1.433 . S
C130 N133 1.384 . S
C131 H122 0.929 . S
C131 C123 1.378 . S
C131 C126 1.350 . S
C132 H119 0.929 . S
C132 C124 1.433 . S
C132 N134 1.384 . S
N133 C129 1.427 . S
N133 C130 1.384 . S
N134 C126 1.427 . S
N134 C132 1.384 . S
H135 C141 0.930 . S
H136 C145 0.930 . S
H137 C150 0.929 . S
H138 C148 0.929 . S
H139 C143 0.929 . S
H140 C149 0.929 . S
C141 H135 0.930 . S
C141 C142 1.369 . S
C141 C149 1.378 . S
C142 C141 1.369 . S
C142 C150 1.429 1_655 S
C143 H139 0.929 . S
C143 C145 1.378 . S
C143 C147 1.350 . S
C144 C147 1.457 1_655 S
C144 C149 1.360 . S
C144 N152 1.422 1_655 S
C145 H136 0.930 . S
C145 C143 1.378 . S
C145 C146 1.372 . S
C146 C145 1.372 . S
C146 C148 1.423 1_455 S
C147 C143 1.350 . S
C147 C144 1.457 1_455 S
C147 N151 1.427 1_455 S
C148 H138 0.929 . S
C148 C146 1.423 1_655 S
C148 N151 1.384 . S
C149 H140 0.929 . S
C149 C141 1.378 . S
C149 C144 1.360 . S
C150 H137 0.929 . S
C150 C142 1.429 1_455 S
C150 N152 1.384 . S
N151 C147 1.427 1_655 S
N151 C148 1.384 . S
N152 C144 1.422 1_455 S
N152 C150 1.384 . S
H153 C159 0.930 . S
H154 C163 0.930 . S
H155 C168 0.929 . S
H156 C166 0.929 . S
H157 C161 0.929 . S
H158 C167 0.929 . S
C159 H153 0.930 . S
C159 C160 1.367 . S
C159 C167 1.378 . S
C160 C159 1.367 . S
C160 C168 1.433 1_565 S
C161 H157 0.929 . S
C161 C163 1.378 . S
C161 C165 1.349 1_545 S
C162 C165 1.462 . S
C162 C167 1.350 . S
C162 N170 1.427 1_565 S
C163 H154 0.930 . S
C163 C161 1.378 . S
C163 C164 1.384 . S
C164 C163 1.384 . S
C164 C166 1.422 1_545 S
C165 C161 1.349 1_565 S
C165 C162 1.462 . S
C165 N169 1.429 . S
C166 H156 0.929 . S
C166 C164 1.422 1_565 S
C166 N169 1.384 . S
C167 H158 0.929 . S
C167 C159 1.378 . S
C167 C162 1.350 . S
C168 H155 0.929 . S
C168 C160 1.433 1_545 S
C168 N170 1.384 . S
N169 C165 1.429 . S
N169 C166 1.384 . S
N170 C162 1.427 1_545 S
N170 C168 1.384 . S
H171 C177 0.930 . S
H172 C181 0.930 . S
H173 C186 0.929 . S
H174 C184 0.929 . S
H175 C179 0.929 . S
H176 C185 0.929 . S
C177 H171 0.930 . S
C177 C178 1.367 . S
C177 C185 1.378 . S
C178 C177 1.367 . S
C178 C186 1.433 . S
C179 H175 0.929 . S
C179 C181 1.378 . S
C179 C183 1.350 . S
C180 C183 1.463 . S
C180 C185 1.350 . S
C180 N188 1.427 . S
C181 H172 0.930 . S
C181 C179 1.378 . S
C181 C182 1.367 . S
C182 C181 1.367 . S
C182 C184 1.433 . S
C183 C179 1.350 . S
C183 C180 1.463 . S
C183 N187 1.427 . S
C184 H174 0.929 . S
C184 C182 1.433 . S
C184 N187 1.384 . S
C185 H176 0.929 . S
C185 C177 1.378 . S
C185 C180 1.350 . S
C186 H173 0.929 . S
C186 C178 1.433 . S
C186 N188 1.384 . S
N187 C183 1.427 . S
N187 C184 1.384 . S
N188 C180 1.427 . S
N188 C186 1.384 . S
H189 C195 0.930 1_545 S
H190 C199 0.930 . S
H191 C204 0.929 . S
H192 C202 0.929 . S
H193 C197 0.929 . S
H194 C203 0.928 . S
C195 H189 0.930 1_565 S
C195 C196 1.367 . S
C195 C203 1.375 1_565 S
C196 C195 1.367 . S
C196 C204 1.433 . S
C197 H193 0.929 . S
C197 C199 1.378 . S
C197 C201 1.350 . S
C198 C201 1.463 . S
C198 C203 1.352 1_565 S
C198 N206 1.427 . S
C199 H190 0.930 . S
C199 C197 1.378 . S
C199 C200 1.367 . S
C200 C199 1.367 . S
C200 C202 1.442 1_565 S
C201 C197 1.350 . S
C201 C198 1.463 . S
C201 N205 1.427 1_565 S
C202 H192 0.929 . S
C202 C200 1.442 1_545 S
C202 N205 1.384 . S
C203 H194 0.928 . S
C203 C195 1.375 1_545 S
C203 C198 1.352 1_545 S
C204 H191 0.929 . S
C204 C196 1.433 . S
C204 N206 1.384 . S
N205 C201 1.427 1_545 S
N205 C202 1.384 . S
N206 C198 1.427 . S
N206 C204 1.384 . S
H207 C213 0.921 1_556 S
H208 C217 0.930 . S
H209 C222 0.929 . S
H210 C220 0.929 . S
H211 C215 0.929 1_554 S
H212 C221 0.929 . S
C213 H207 0.921 1_554 S
C213 C214 1.367 . S
C213 C221 1.378 1_554 S
C214 C213 1.367 . S
C214 C222 1.433 . S
C215 H211 0.929 1_556 S
C215 C217 1.378 . S
C215 C219 1.350 . S
C216 C219 1.463 . S
C216 C221 1.350 . S
C216 N224 1.427 1_556 S
C217 H208 0.930 . S
C217 C215 1.378 . S
C217 C218 1.367 . S
C218 C217 1.367 . S
C218 C220 1.433 . S
C219 C215 1.350 . S
C219 C216 1.463 . S
C219 N223 1.427 . S
C220 H210 0.929 . S
C220 C218 1.433 . S
C220 N223 1.384 . S
C221 H212 0.929 . S
C221 C213 1.378 1_556 S
C221 C216 1.350 . S
C222 H209 0.929 . S
C222 C214 1.433 . S
C222 N224 1.384 . S
N223 C219 1.427 . S
N223 C220 1.384 . S
N224 C216 1.427 1_554 S
N224 C222 1.384 . S
H225 C231 0.930 . S
H226 C235 0.930 . S
H227 C240 0.929 . S
H228 C238 0.929 . S
H229 C233 0.929 . S
H230 C239 0.929 . S
C231 H225 0.930 . S
C231 C232 1.367 1_655 S
C231 C239 1.378 . S
C232 C231 1.367 1_455 S
C232 C240 1.433 . S
C233 H229 0.929 . S
C233 C235 1.378 . S
C233 C237 1.350 . S
C234 C237 1.463 . S
C234 C239 1.350 1_455 S
C234 N242 1.427 . S
C235 H226 0.930 . S
C235 C233 1.378 . S
C235 C236 1.367 . S
C236 C235 1.367 . S
C236 C238 1.433 1_455 S
C237 C233 1.350 . S
C237 C234 1.463 . S
C237 N241 1.427 1_455 S
C238 H228 0.929 . S
C238 C236 1.433 1_655 S
C238 N241 1.384 . S
C239 H230 0.929 . S
C239 C231 1.378 . S
C239 C234 1.350 1_655 S
C240 H227 0.929 . S
C240 C232 1.433 . S
C240 N242 1.384 . S
N241 C237 1.427 1_655 S
N241 C238 1.384 . S
N242 C234 1.427 . S
N242 C240 1.384 . S
H243 C249 0.930 . S
H244 C253 0.930 . S
H245 C258 0.929 . S
H246 C256 0.929 . S
H247 C251 0.929 . S
H248 C257 0.929 . S
C249 H243 0.930 . S
C249 C250 1.367 1_565 S
C249 C257 1.378 . S
C250 C249 1.367 1_545 S
C250 C258 1.433 . S
C251 H247 0.929 . S
C251 C253 1.378 . S
C251 C255 1.350 . S
C252 C255 1.463 . S
C252 C257 1.350 1_545 S
C252 N260 1.427 . S
C253 H244 0.930 . S
C253 C251 1.378 . S
C253 C254 1.367 . S
C254 C253 1.367 . S
C254 C256 1.433 1_545 S
C255 C251 1.350 . S
C255 C252 1.463 . S
C255 N259 1.427 1_545 S
C256 H246 0.929 . S
C256 C254 1.433 1_565 S
C256 N259 1.384 . S
C257 H248 0.929 . S
C257 C249 1.378 . S
C257 C252 1.350 1_565 S
C258 H245 0.929 . S
C258 C250 1.433 . S
C258 N260 1.384 . S
N259 C255 1.427 1_565 S
N259 C256 1.384 . S
N260 C252 1.427 . S
N260 C258 1.384 . S
H261 C267 0.930 . S
H262 C271 0.930 . S
H263 C276 0.929 . S
H264 C274 0.929 . S
H265 C269 0.929 . S
H266 C275 0.929 . S
C267 H261 0.930 . S
C267 C268 1.367 . S
C267 C275 1.378 . S
C268 C267 1.367 . S
C268 C276 1.433 . S
C269 H265 0.929 . S
C269 C271 1.378 . S
C269 C273 1.350 . S
C270 C273 1.463 . S
C270 C275 1.350 1_556 S
C270 N278 1.427 . S
C271 H262 0.930 . S
C271 C269 1.378 . S
C271 C272 1.367 . S
C272 C271 1.367 . S
C272 C274 1.433 . S
C273 C269 1.350 . S
C273 C270 1.463 . S
C273 N277 1.427 . S
C274 H264 0.929 . S
C274 C272 1.433 . S
C274 N277 1.384 . S
C275 H266 0.929 . S
C275 C267 1.378 . S
C275 C270 1.350 1_554 S
C276 H263 0.929 . S
C276 C268 1.433 . S
C276 N278 1.382 1_554 S
N277 C273 1.427 . S
N277 C274 1.384 . S
N278 C270 1.427 . S
N278 C276 1.382 1_556 S
H279 C285 0.930 . S
H280 C289 0.930 . S
H281 C294 0.929 . S
H282 C292 0.929 . S
H283 C287 0.929 . S
H284 C293 0.929 . S
C285 H279 0.930 . S
C285 C286 1.367 . S
C285 C293 1.378 . S
C286 C285 1.367 . S
C286 C294 1.433 1_655 S
C287 H283 0.929 . S
C287 C289 1.378 . S
C287 C291 1.341 1_455 S
C288 C291 1.458 . S
C288 C293 1.350 . S
C288 N296 1.427 1_655 S
C289 H280 0.930 . S
C289 C287 1.378 . S
C289 C290 1.382 . S
C290 C289 1.382 . S
C290 C292 1.423 1_455 S
C291 C287 1.341 1_655 S
C291 C288 1.458 . S
C291 N295 1.441 . S
C292 H282 0.929 . S
C292 C290 1.423 1_655 S
C292 N295 1.384 . S
C293 H284 0.929 . S
C293 C285 1.378 . S
C293 C288 1.350 . S
C294 H281 0.929 . S
C294 C286 1.433 1_455 S
C294 N296 1.384 . S
N295 C291 1.441 . S
N295 C292 1.384 . S
N296 C288 1.427 1_455 S
N296 C294 1.384 . S
C92 C47 1.424 . S
C88 C6 1.423 1_455 S
C106 C22 1.545 . S
C110 C65 1.561 1_545 S
C124 C34 1.299 . S
C128 C78 1.319 . S
C142 C7 1.424 1_655 S
C146 C45 1.429 1_455 S
C164 C56 1.550 1_545 S
C160 C23 1.535 . S
C178 C35 1.300 . S
C182 C69 1.307 . S
C200 C58 1.480 . S
C196 C36 1.487 . S
C214 C9 1.674 . S
C218 C71 1.695 . S
C236 C52 1.494 1_455 S
C232 C21 1.476 1_455 S
C254 C60 1.492 1_545 S
C250 C37 1.486 . S
C272 C73 1.695 . S
C268 C8 1.675 . S
C286 C20 1.481 1_655 S
C290 C43 1.484 1_455 S
