# Generated by pormake.
# Topology csq, (4,8)-cn, num edge types: 1
# Building blocks:
#     Node 0, Type 0, BuildingBlock: KOZSID_clean_sbu_0, # of connection points: 4
#     Node 1, Type 0, BuildingBlock: KOZSID_clean_sbu_0, # of connection points: 4
#     Node 2, Type 0, BuildingBlock: KOZSID_clean_sbu_0, # of connection points: 4
#     Node 3, Type 0, BuildingBlock: KOZSID_clean_sbu_0, # of connection points: 4
#     Node 4, Type 0, BuildingBlock: KOZSID_clean_sbu_0, # of connection points: 4
#     Node 5, Type 0, BuildingBlock: KOZSID_clean_sbu_0, # of connection points: 4
#     Node 6, Type 1, BuildingBlock: TAGTUT_clean_sbu_3, # of connection points: 8
#     Node 7, Type 1, BuildingBlock: TAGTUT_clean_sbu_3, # of connection points: 8
#     Node 8, Type 1, BuildingBlock: TAGTUT_clean_sbu_3, # of connection points: 8
#     Edge 9, Type (0, 1), BuildingBlock: ZUJKAS_clean_linker_0, # of connection points: 2
#     Edge 10, Type (0, 1), BuildingBlock: ZUJKAS_clean_linker_0, # of connection points: 2
#     Edge 11, Type (0, 1), BuildingBlock: ZUJKAS_clean_linker_0, # of connection points: 2
#     Edge 12, Type (0, 1), BuildingBlock: ZUJKAS_clean_linker_0, # of connection points: 2
#     Edge 13, Type (0, 1), BuildingBlock: ZUJKAS_clean_linker_0, # of connection points: 2
#     Edge 14, Type (0, 1), BuildingBlock: ZUJKAS_clean_linker_0, # of connection points: 2
#     Edge 15, Type (0, 1), BuildingBlock: ZUJKAS_clean_linker_0, # of connection points: 2
#     Edge 16, Type (0, 1), BuildingBlock: ZUJKAS_clean_linker_0, # of connection points: 2
#     Edge 17, Type (0, 1), BuildingBlock: ZUJKAS_clean_linker_0, # of connection points: 2
#     Edge 18, Type (0, 1), BuildingBlock: ZUJKAS_clean_linker_0, # of connection points: 2
#     Edge 19, Type (0, 1), BuildingBlock: ZUJKAS_clean_linker_0, # of connection points: 2
#     Edge 20, Type (0, 1), BuildingBlock: ZUJKAS_clean_linker_0, # of connection points: 2
#     Edge 21, Type (0, 1), BuildingBlock: ZUJKAS_clean_linker_0, # of connection points: 2
#     Edge 22, Type (0, 1), BuildingBlock: ZUJKAS_clean_linker_0, # of connection points: 2
#     Edge 23, Type (0, 1), BuildingBlock: ZUJKAS_clean_linker_0, # of connection points: 2
#     Edge 24, Type (0, 1), BuildingBlock: ZUJKAS_clean_linker_0, # of connection points: 2
#     Edge 25, Type (0, 1), BuildingBlock: ZUJKAS_clean_linker_0, # of connection points: 2
#     Edge 26, Type (0, 1), BuildingBlock: ZUJKAS_clean_linker_0, # of connection points: 2
#     Edge 27, Type (0, 1), BuildingBlock: ZUJKAS_clean_linker_0, # of connection points: 2
#     Edge 28, Type (0, 1), BuildingBlock: ZUJKAS_clean_linker_0, # of connection points: 2
#     Edge 29, Type (0, 1), BuildingBlock: ZUJKAS_clean_linker_0, # of connection points: 2
#     Edge 30, Type (0, 1), BuildingBlock: ZUJKAS_clean_linker_0, # of connection points: 2
#     Edge 31, Type (0, 1), BuildingBlock: ZUJKAS_clean_linker_0, # of connection points: 2
#     Edge 32, Type (0, 1), BuildingBlock: ZUJKAS_clean_linker_0, # of connection points: 2
# Relax obj value: 0.030
# Max RMSD: 0.125
# Mean RMSD: 0.045
data_MOF--net-csq--node1-KOZSID_clean_sbu_0--node2-TAGTUT_clean_sbu_3--edge1-ZUJKAS_clean_linker_0
_symmetry_space_group_name_H-M    P1
_symmetry_Int_Tables_number       1
_symmetry_cell_setting            triclinic
loop_
_symmetry_equiv_pos_as_xyz
'x, y, z'
_cell_length_a     71.562942
_cell_length_b     70.698739
_cell_length_c     25.452431
_cell_angle_alpha  88.444594
_cell_angle_beta   96.120248
_cell_angle_gamma 119.91854
loop_
_atom_site_label
_atom_site_type_symbol
_atom_site_fract_x
_atom_site_fract_y
_atom_site_fract_z
_atom_type_partial_charge
C0 C 0.28963 0.51631 0.20428 0.0
C1 C 0.30068 0.53892 0.20696 0.0
C2 C 0.28708 0.54523 0.17993 0.0
C3 C 0.26864 0.52614 0.16229 0.0
N4 N 0.26987 0.50838 0.17683 0.0
Co5 Co 0.24827 0.47758 0.15688 0.0
N6 N 0.23501 0.48637 0.09581 0.0
C7 C 0.23731 0.50643 0.08968 0.0
C8 C 0.22496 0.50758 0.04619 0.0
C9 C 0.2139 0.48693 0.02406 0.0
C10 C 0.22021 0.47414 0.05523 0.0
N11 N 0.22699 0.44666 0.13732 0.0
C12 C 0.21427 0.43777 0.09142 0.0
C13 C 0.20302 0.41511 0.09313 0.0
C14 C 0.20804 0.40981 0.14274 0.0
C15 C 0.22236 0.42939 0.16827 0.0
N16 N 0.26136 0.46906 0.21841 0.0
C17 C 0.2523 0.44997 0.24306 0.0
C18 C 0.26608 0.44911 0.28385 0.0
C19 C 0.28495 0.46885 0.28428 0.0
C20 C 0.28151 0.48053 0.24351 0.0
N21 N 0.22808 0.47876 0.20141 0.0
C22 C 0.19969 0.48308 0.2618 0.0
C23 C 0.19222 0.47183 0.21276 0.0
C24 C 0.20658 0.46981 0.18343 0.0
C25 C 0.22162 0.49158 0.28062 0.0
C26 C 0.23551 0.48924 0.24991 0.0
N27 N 0.26861 0.47663 0.11259 0.0
C28 C 0.28954 0.46046 0.09001 0.0
C29 C 0.30115 0.47788 0.05736 0.0
C30 C 0.29558 0.4943 0.05181 0.0
C31 C 0.27932 0.49336 0.0796 0.0
C32 C 0.27333 0.4601 0.11701 0.0
H33 H 0.27585 0.50654 0.07554 0.0
H34 H 0.26496 0.44668 0.14246 0.0
H35 H 0.20024 0.46121 0.14579 0.0
H36 H 0.25237 0.49625 0.26505 0.0
C37 C 0.25266 0.52421 0.12253 0.0
C38 C 0.29752 0.50233 0.22865 0.0
C39 C 0.20952 0.45009 0.04969 0.0
C40 C 0.23382 0.43194 0.21826 0.0
H41 H 0.31688 0.54967 0.22556 0.0
H42 H 0.29082 0.56175 0.17119 0.0
H43 H 0.22407 0.52172 0.03215 0.0
H44 H 0.20196 0.48199 0.98998 0.0
H45 H 0.19164 0.40363 0.06245 0.0
H46 H 0.20224 0.3936 0.15797 0.0
H47 H 0.26338 0.43525 0.30776 0.0
H48 H 0.29969 0.47385 0.3104 0.0
H49 H 0.17534 0.46455 0.19701 0.0
H50 H 0.22818 0.50046 0.31821 0.0
H51 H 0.293 0.44721 0.09489 0.0
H52 H 0.30416 0.50816 0.02738 0.0
C53 C 0.81387 0.27417 0.048 0.0
C54 C 0.83107 0.2722 0.03402 0.0
C55 C 0.8287 0.25317 0.0543 0.0
C56 C 0.81032 0.24465 0.07959 0.0
N57 N 0.80077 0.25709 0.07683 0.0
Co58 Co 0.77375 0.25074 0.10856 0.0
N59 N 0.77028 0.22267 0.13813 0.0
C60 C 0.78402 0.21484 0.1361 0.0
C61 C 0.77749 0.1953 0.16022 0.0
C62 C 0.75826 0.19013 0.17815 0.0
C63 C 0.75404 0.20681 0.1634 0.0
N64 N 0.74642 0.2441 0.1392 0.0
C65 C 0.73194 0.2258 0.16233 0.0
C66 C 0.71404 0.2272 0.17321 0.0
C67 C 0.71736 0.24704 0.15684 0.0
C68 C 0.73687 0.25654 0.13637 0.0
N69 N 0.7774 0.27898 0.07961 0.0
C70 C 0.76453 0.2876 0.08512 0.0
C71 C 0.77102 0.30715 0.06105 0.0
C72 C 0.78921 0.31139 0.03898 0.0
C73 C 0.79285 0.29415 0.05114 0.0
N74 N 0.75602 0.23485 0.04276 0.0
C75 C 0.72514 0.20618 0.96363 0.0
C76 C 0.72421 0.22424 0.98089 0.0
C77 C 0.73983 0.23838 0.02003 0.0
C78 C 0.74286 0.20388 0.98303 0.0
C79 C 0.75815 0.21845 0.02198 0.0
N80 N 0.79135 0.26646 0.17514 0.0
C81 C 0.79918 0.29163 0.24764 0.0
C82 C 0.81666 0.28922 0.26877 0.0
C83 C 0.82104 0.27497 0.24283 0.0
C84 C 0.80833 0.2639 0.19648 0.0
C85 C 0.78684 0.28017 0.20125 0.0
H86 H 0.8128 0.2536 0.17845 0.0
H87 H 0.77386 0.28286 0.18719 0.0
H88 H 0.73796 0.25149 0.03281 0.0
H89 H 0.77106 0.21562 0.03616 0.0
C90 C 0.80208 0.22541 0.10785 0.0
C91 C 0.81108 0.29289 0.0342 0.0
C92 C 0.73407 0.20645 0.17273 0.0
C93 C 0.74596 0.27652 0.11131 0.0
H94 H 0.84417 0.28347 0.01198 0.0
H95 H 0.83928 0.24648 0.05155 0.0
H96 H 0.78547 0.18567 0.1632 0.0
H97 H 0.74827 0.17552 0.19887 0.0
H98 H 0.69971 0.21498 0.18996 0.0
H99 H 0.70649 0.25347 0.15806 0.0
H100 H 0.76329 0.31701 0.05924 0.0
H101 H 0.79863 0.32554 0.01618 0.0
H102 H 0.71088 0.22682 0.96644 0.0
H103 H 0.7446 0.19051 0.96937 0.0
H104 H 0.79507 0.30239 0.26666 0.0
H105 H 0.83466 0.27284 0.25724 0.0
C106 C 0.54663 0.74021 0.108 0.0
C107 C 0.5657 0.74238 0.13406 0.0
C108 C 0.58206 0.76231 0.12196 0.0
C109 C 0.57218 0.77114 0.08911 0.0
N110 N 0.55045 0.758 0.07908 0.0
Co111 Co 0.52986 0.76462 0.0332 0.0
N112 N 0.55404 0.79399 0.01529 0.0
C113 C 0.57538 0.80275 0.03221 0.0
C114 C 0.58827 0.82269 0.0117 0.0
C115 C 0.5744 0.82691 0.97933 0.0
C116 C 0.55372 0.80927 0.98217 0.0
N117 N 0.50923 0.77134 0.98795 0.0
C118 C 0.51307 0.78887 0.95806 0.0
C119 C 0.49395 0.78702 0.93328 0.0
C120 C 0.47749 0.76749 0.94715 0.0
C121 C 0.48741 0.75861 0.97974 0.0
N122 N 0.50572 0.7351 0.05033 0.0
C123 C 0.48442 0.72627 0.03283 0.0
C124 C 0.47157 0.70601 0.05181 0.0
C125 C 0.48543 0.70155 0.0834 0.0
C126 C 0.50609 0.7194 0.08167 0.0
N127 N 0.52576 0.77773 0.09592 0.0
C128 C 0.5203 0.7953 0.18733 0.0
C129 C 0.5024 0.78048 0.15364 0.0
C130 C 0.50547 0.77196 0.10853 0.0
C131 C 0.54095 0.80129 0.17424 0.0
C132 C 0.54328 0.79244 0.1288 0.0
N133 N 0.53399 0.75148 0.9708 0.0
C134 C 0.51929 0.72789 0.89247 0.0
C135 C 0.53976 0.73112 0.88555 0.0
C136 C 0.55738 0.74529 0.92071 0.0
C137 C 0.55418 0.75532 0.96248 0.0
C138 C 0.51677 0.7381 0.93521 0.0
H139 H 0.56828 0.76586 0.98787 0.0
H140 H 0.50071 0.73464 0.93917 0.0
H141 H 0.49118 0.7607 0.08466 0.0
H142 H 0.55946 0.79782 0.1212 0.0
C143 C 0.58288 0.79158 0.06636 0.0
C144 C 0.52538 0.72087 0.1118 0.0
C145 C 0.53443 0.8075 0.95136 0.0
C146 C 0.47682 0.73787 0.0008 0.0
H147 H 0.56762 0.73073 0.15917 0.0
H148 H 0.59916 0.76949 0.13537 0.0
H149 H 0.60572 0.83279 0.01874 0.0
H150 H 0.57906 0.84122 0.95568 0.0
H151 H 0.49208 0.7985 0.90739 0.0
H152 H 0.46036 0.76043 0.93428 0.0
H153 H 0.45413 0.69587 0.04441 0.0
H154 H 0.48073 0.68693 0.10585 0.0
H155 H 0.48604 0.77531 0.16219 0.0
H156 H 0.55537 0.81312 0.19841 0.0
H157 H 0.50514 0.71688 0.86626 0.0
H158 H 0.57358 0.74844 0.91638 0.0
C159 C 0.82347 0.56185 0.13299 0.0
C160 C 0.84036 0.58316 0.14215 0.0
C161 C 0.8355 0.59585 0.10863 0.0
C162 C 0.81598 0.58163 0.08125 0.0
N163 N 0.80778 0.56069 0.09618 0.0
Co164 Co 0.78048 0.53451 0.06494 0.0
N165 N 0.77419 0.55281 0.01228 0.0
C166 C 0.78622 0.57466 0.007 0.0
C167 C 0.77694 0.58285 0.97018 0.0
C168 C 0.75759 0.56529 0.95161 0.0
C169 C 0.75625 0.5473 0.97811 0.0
N170 N 0.75345 0.50825 0.03284 0.0
C171 C 0.7378 0.50698 0.99574 0.0
C172 C 0.72141 0.48557 0.98502 0.0
C173 C 0.72658 0.47286 0.01767 0.0
C174 C 0.74581 0.48719 0.04607 0.0
N175 N 0.78642 0.51625 0.11841 0.0
C176 C 0.77389 0.49454 0.12496 0.0
C177 C 0.78273 0.48636 0.16296 0.0
C178 C 0.80224 0.50377 0.18119 0.0
C179 C 0.80414 0.52172 0.15332 0.0
N180 N 0.7634 0.53914 0.11469 0.0
C181 C 0.73807 0.54558 0.18211 0.0
C182 C 0.73424 0.52464 0.17068 0.0
C183 C 0.74704 0.52183 0.13739 0.0
C184 C 0.755 0.56325 0.15982 0.0
C185 C 0.76729 0.55969 0.1264 0.0
N186 N 0.79776 0.52995 0.01559 0.0
C187 C 0.81164 0.50776 0.98459 0.0
C188 C 0.82694 0.52532 0.95816 0.0
C189 C 0.82661 0.54491 0.95859 0.0
C190 C 0.81201 0.54685 0.98729 0.0
C191 C 0.79718 0.51033 0.01231 0.0
H192 H 0.81299 0.56237 0.98716 0.0
H193 H 0.78602 0.49634 0.03179 0.0
H194 H 0.74325 0.50546 0.13028 0.0
H195 H 0.77966 0.57384 0.11002 0.0
C196 C 0.80541 0.58724 0.03977 0.0
C197 C 0.82374 0.54315 0.15775 0.0
C198 C 0.73702 0.52563 0.9725 0.0
C199 C 0.75555 0.48177 0.08977 0.0
H200 H 0.85498 0.58881 0.16919 0.0
H201 H 0.84533 0.61325 0.10368 0.0
H202 H 0.78311 0.59972 0.95966 0.0
H203 H 0.74555 0.56587 0.92312 0.0
H204 H 0.70682 0.47986 0.95783 0.0
H205 H 0.71694 0.4554 0.02204 0.0
H206 H 0.77635 0.46951 0.17387 0.0
H207 H 0.81402 0.50296 0.21002 0.0
H208 H 0.72145 0.51044 0.18753 0.0
H209 H 0.75845 0.57978 0.16702 0.0
H210 H 0.81092 0.49209 0.98427 0.0
H211 H 0.83812 0.55898 0.93852 0.0
C212 C 0.26851 0.81401 0.15988 0.0
C213 C 0.26773 0.83109 0.18326 0.0
C214 C 0.24761 0.82827 0.16809 0.0
C215 C 0.23731 0.80978 0.13627 0.0
N216 N 0.24956 0.80046 0.1306 0.0
Co217 Co 0.24143 0.77403 0.08562 0.0
N218 N 0.21296 0.77162 0.05762 0.0
C219 C 0.20513 0.78457 0.07077 0.0
C220 C 0.18543 0.77928 0.04391 0.0
C221 C 0.18039 0.762 0.01134 0.0
C222 C 0.19737 0.7577 0.02045 0.0
N223 N 0.23335 0.74761 0.04083 0.0
C224 C 0.21575 0.73588 0.00564 0.0
C225 C 0.21633 0.71848 0.98327 0.0
C226 C 0.23509 0.71945 0.00448 0.0
C227 C 0.24482 0.73721 0.03862 0.0
N228 N 0.26999 0.77661 0.11288 0.0
C229 C 0.27736 0.76301 0.10191 0.0
C230 C 0.29774 0.76923 0.12577 0.0
C231 C 0.30395 0.78813 0.15303 0.0
C232 C 0.28693 0.79239 0.14392 0.0
N233 N 0.22759 0.7549 0.14525 0.0
C234 C 0.20839 0.72839 0.23096 0.0
C235 C 0.22269 0.72543 0.20352 0.0
C236 C 0.23196 0.73868 0.16118 0.0
C237 C 0.20382 0.74479 0.21452 0.0
C238 C 0.2135 0.75771 0.17218 0.0
N239 N 0.25523 0.79315 0.02673 0.0
C240 C 0.28 0.80434 0.95979 0.0
C241 C 0.27763 0.82259 0.94912 0.0
C242 C 0.2632 0.82532 0.97648 0.0
C243 C 0.2522 0.81049 0.01462 0.0
C244 C 0.2687 0.78991 0.99845 0.0
H245 H 0.24159 0.81361 0.03446 0.0
H246 H 0.27144 0.7765 0.00566 0.0
H247 H 0.24261 0.73544 0.1422 0.0
H248 H 0.20919 0.76978 0.16208 0.0
C249 C 0.21697 0.80194 0.10745 0.0
C250 C 0.28788 0.8119 0.16451 0.0
C251 C 0.19815 0.74052 0.99205 0.0
C252 C 0.26513 0.74504 0.0673 0.0
H253 H 0.28054 0.84454 0.20763 0.0
H254 H 0.24151 0.83889 0.17755 0.0
H255 H 0.176 0.78724 0.04706 0.0
H256 H 0.16597 0.75365 0.9836 0.0
H257 H 0.20447 0.70637 0.95436 0.0
H258 H 0.24108 0.70867 0.99556 0.0
H259 H 0.30713 0.76121 0.12283 0.0
H260 H 0.3194 0.79786 0.17636 0.0
H261 H 0.22695 0.71307 0.21487 0.0
H262 H 0.19252 0.74752 0.23364 0.0
H263 H 0.29108 0.80157 0.93978 0.0
H264 H 0.26052 0.83898 0.96887 0.0
C265 C 0.5056 0.22669 0.21757 0.0
C266 C 0.5254 0.22968 0.24082 0.0
C267 C 0.54094 0.2446 0.21148 0.0
C268 C 0.52987 0.24992 0.17214 0.0
N269 N 0.50832 0.23954 0.17521 0.0
Co270 Co 0.48653 0.24217 0.12474 0.0
N271 N 0.50935 0.26923 0.09502 0.0
C272 C 0.53075 0.27623 0.10045 0.0
C273 C 0.54259 0.29525 0.0749 0.0
C274 C 0.5277 0.30049 0.05146 0.0
C275 C 0.50753 0.28429 0.06413 0.0
N276 N 0.46483 0.24474 0.07385 0.0
C277 C 0.46681 0.26181 0.04447 0.0
C278 C 0.4475 0.25649 0.0138 0.0
C279 C 0.43305 0.23527 0.02383 0.0
C280 C 0.44426 0.22885 0.06005 0.0
N281 N 0.46366 0.21513 0.15443 0.0
C282 C 0.44311 0.20266 0.13225 0.0
C283 C 0.43095 0.18489 0.16137 0.0
C284 C 0.44475 0.18602 0.20429 0.0
C285 C 0.46468 0.20444 0.19877 0.0
N286 N 0.48345 0.25981 0.17721 0.0
C287 C 0.47954 0.28555 0.25215 0.0
C288 C 0.46107 0.26833 0.22463 0.0
C289 C 0.46339 0.25571 0.18723 0.0
C290 C 0.49996 0.2894 0.24175 0.0
C291 C 0.50155 0.27639 0.20432 0.0
N292 N 0.48979 0.22456 0.07232 0.0
C293 C 0.49348 0.19369 0.05141 0.0
C294 C 0.49715 0.20067 0.99972 0.0
C295 C 0.49668 0.21961 0.98461 0.0
C296 C 0.49269 0.23116 0.02132 0.0
C297 C 0.49 0.20592 0.0871 0.0
H298 H 0.49226 0.2456 0.00852 0.0
H299 H 0.48786 0.2004 0.12691 0.0
H300 H 0.44893 0.24273 0.1662 0.0
H301 H 0.5175 0.27983 0.19726 0.0
C302 C 0.53931 0.2663 0.1357 0.0
C303 C 0.48463 0.20948 0.2327 0.0
C304 C 0.48699 0.28262 0.04177 0.0
C305 C 0.43519 0.20948 0.08764 0.0
H306 H 0.52826 0.22148 0.2746 0.0
H307 H 0.55827 0.25102 0.21847 0.0
H308 H 0.56002 0.30452 0.07448 0.0
H309 H 0.53123 0.31444 0.02712 0.0
H310 H 0.44422 0.26682 0.98676 0.0
H311 H 0.41619 0.2259 0.00795 0.0
H312 H 0.41398 0.17276 0.1529 0.0
H313 H 0.44078 0.1743 0.2354 0.0
H314 H 0.44497 0.26491 0.23106 0.0
H315 H 0.51467 0.30234 0.26258 0.0
H316 H 0.49386 0.17918 0.06462 0.0
H317 H 0.49927 0.22536 0.94471 0.0
C318 C 0.04612 0.4876 0.57599 0.0
C319 C 0.04063 0.46046 0.76898 0.0
C320 C 0.97848 0.45791 0.75244 0.0
Mg321 Mg 0.02532 0.51455 0.51438 0.0
Mg322 Mg 0.01635 0.5486 0.57929 0.0
O323 O 0.01059 0.51979 0.57078 0.0
Mg324 Mg 0.01918 0.50622 0.63141 0.0
O325 O 0.02759 0.49091 0.68802 0.0
Mg326 Mg 0.0101 0.46 0.65866 0.0
Mg327 Mg 0.02565 0.49506 0.75909 0.0
C328 C 0.99167 0.52656 0.68071 0.0
O329 O 0.04506 0.53892 0.67303 0.0
O330 O 0.00641 0.52658 0.4558 0.0
O331 O 0.0426 0.53067 0.7594 0.0
O332 O 0.05454 0.54958 0.52222 0.0
O333 O 0.00119 0.54991 0.50268 0.0
O334 O 0.05055 0.57079 0.57778 0.0
O335 O 0.99371 0.47293 0.59625 0.0
O336 O 0.99659 0.47947 0.51037 0.0
C337 C 0.9879 0.46648 0.54777 0.0
C338 C 0.99914 0.53981 0.45948 0.0
O339 O 0.99549 0.51062 0.67824 0.0
O340 O 0.0295 0.4514 0.72469 0.0
O341 O 0.99962 0.54299 0.65025 0.0
O342 O 0.9829 0.45036 0.7134 0.0
O343 O 0.04177 0.47756 0.78871 0.0
O344 O 0.99224 0.47634 0.77464 0.0
O345 O 0.04216 0.50327 0.58028 0.0
O346 O 0.03684 0.4704 0.60321 0.0
C347 C 0.06192 0.56777 0.54724 0.0
C348 C 0.04975 0.54453 0.7225 0.0
C349 C 0.50228 0.03444 0.47597 0.0
C350 C 0.56439 0.02395 0.41105 0.0
C351 C 0.52905 0.96007 0.48351 0.0
Mg352 Mg 0.47434 0.01273 0.5758 0.0
Mg353 Mg 0.49626 1.00037 0.68122 0.0
O354 O 0.48798 0.99558 0.60828 0.0
Mg355 Mg 0.51118 0.00361 0.56095 0.0
O356 O 0.53303 0.012 0.50939 0.0
Mg357 Mg 0.51301 0.99657 0.44417 0.0
Mg358 Mg 0.55629 0.00681 0.52552 0.0
C359 C 0.51915 0.97358 0.65393 0.0
O360 O 0.53915 0.0281 0.61943 0.0
O361 O 0.44729 0.9936 0.63208 0.0
O362 O 0.56745 0.02435 0.60164 0.0
O363 O 0.49247 0.04115 0.63762 0.0
O364 O 0.46389 0.98601 0.70298 0.0
O365 O 0.51255 0.03465 0.70031 0.0
O366 O 0.48526 0.98002 0.49818 0.0
O367 O 0.45788 0.98521 0.51276 0.0
C368 C 0.46568 0.97593 0.48688 0.0
C369 C 0.44696 0.98505 0.67758 0.0
O370 O 0.51803 0.97746 0.60412 0.0
O371 O 0.54383 0.01588 0.39902 0.0
O372 O 0.51351 0.98223 0.68831 0.0
O373 O 0.51853 0.96711 0.45331 0.0
O374 O 0.57258 0.02203 0.45682 0.0
O375 O 0.54374 0.97226 0.51962 0.0
O376 O 0.50306 0.02909 0.5244 0.0
O377 O 0.50649 0.02526 0.43984 0.0
C378 C 0.5063 0.0473 0.67864 0.0
C379 C 0.55891 0.0324 0.62936 0.0
C380 C 0.52718 0.55142 0.66099 0.0
C381 C 0.46202 0.48564 0.74754 0.0
C382 C 0.49085 0.44873 0.69846 0.0
Mg383 Mg 0.55223 0.55107 0.56278 0.0
Mg384 Mg 0.52615 0.51373 0.46856 0.0
O385 O 0.53588 0.51923 0.54087 0.0
Mg386 Mg 0.51352 0.50769 0.59223 0.0
O387 O 0.49251 0.498 0.64647 0.0
Mg388 Mg 0.51271 0.50381 0.71271 0.0
Mg389 Mg 0.46741 0.47034 0.63829 0.0
C390 C 0.49988 0.46574 0.51327 0.0
O391 O 0.48624 0.50482 0.53241 0.0
O392 O 0.57736 0.55446 0.50524 0.0
O393 O 0.45661 0.47482 0.55704 0.0
O394 O 0.53511 0.56177 0.49551 0.0
O395 O 0.55795 0.52759 0.44341 0.0
O396 O 0.51318 0.53422 0.43908 0.0
O397 O 0.53915 0.50989 0.65715 0.0
O398 O 0.56775 0.53997 0.63143 0.0
C399 C 0.55939 0.52426 0.6635 0.0
C400 C 0.57594 0.54375 0.46334 0.0
O401 O 0.50295 0.4728 0.56138 0.0
O402 O 0.48283 0.49665 0.75858 0.0
O403 O 0.50575 0.47856 0.47401 0.0
O404 O 0.5036 0.46766 0.71978 0.0
O405 O 0.45304 0.47481 0.70369 0.0
O406 O 0.47616 0.44571 0.66098 0.0
O407 O 0.52493 0.54271 0.61575 0.0
O408 O 0.52249 0.53998 0.70258 0.0
C409 C 0.52113 0.55399 0.45485 0.0
C410 C 0.46606 0.49033 0.52481 0.0
H411 H 0.1681 0.49265 0.22426 0.0
H412 H 0.14276 0.49653 0.27407 0.0
H413 H 0.17171 0.48412 0.41853 0.0
H414 H 0.19712 0.48019 0.36895 0.0
H415 H 0.11241 0.4664 0.33256 0.0
H416 H 0.17056 0.53868 0.45948 0.0
H417 H 0.17806 0.53054 0.40228 0.0
H418 H 0.17682 0.51702 0.4638 0.0
C419 C 0.16908 0.4907 0.26664 0.0
C420 C 0.18467 0.48607 0.29256 0.0
C421 C 0.15464 0.49305 0.2951 0.0
C422 C 0.1555 0.49095 0.35018 0.0
C423 C 0.17106 0.48637 0.37625 0.0
H424 H 0.05528 0.4559 0.55209 0.0
H425 H 0.08132 0.45807 0.49457 0.0
C426 C 0.18556 0.48407 0.34781 0.0
C427 C 0.13939 0.4924 0.37982 0.0
H428 H 0.13443 0.51854 0.48402 0.0
C429 C 0.11724 0.47794 0.36538 0.0
C430 C 0.14563 0.50769 0.42213 0.0
C431 C 0.16905 0.52452 0.43757 0.0
C432 C 0.10124 0.4778 0.3932 0.0
C433 C 0.10754 0.49228 0.43726 0.0
C434 C 0.12962 0.5073 0.45054 0.0
C435 C 0.0915 0.49122 0.47162 0.0
C436 C 0.07771 0.46211 0.37513 0.0
C437 C 0.08882 0.50933 0.47884 0.0
C438 C 0.07387 0.50819 0.51208 0.0
C439 C 0.0615 0.48897 0.53911 0.0
C440 C 0.06439 0.47095 0.53182 0.0
C441 C 0.07923 0.4721 0.49863 0.0
H442 H 0.07538 0.45705 0.33289 0.0
H443 H 0.07201 0.44722 0.39892 0.0
H444 H 0.06745 0.46945 0.3805 0.0
H445 H 0.09825 0.52432 0.45864 0.0
H446 H 0.0722 0.52241 0.51703 0.0
H447 H 0.71086 0.16599 0.12493 0.0
H448 H 0.68169 0.13274 0.15892 0.0
H449 H 0.68693 0.16895 0.29894 0.0
H450 H 0.71719 0.20167 0.26667 0.0
H451 H 0.68249 0.13248 0.32685 0.0
H452 H 0.61989 0.11456 0.15838 0.0
H453 H 0.64328 0.11495 0.13802 0.0
H454 H 0.64562 0.13957 0.16418 0.0
C455 C 0.70571 0.16672 0.16298 0.0
C456 C 0.71598 0.18638 0.19295 0.0
C457 C 0.68886 0.14781 0.18211 0.0
C458 C 0.68156 0.14836 0.23091 0.0
C459 C 0.69206 0.16804 0.261 0.0
H460 H 0.56016 0.05281 0.34471 0.0
H461 H 0.58859 0.08192 0.29802 0.0
C462 C 0.70925 0.18678 0.24249 0.0
C463 C 0.66361 0.12837 0.25189 0.0
H464 H 0.61156 0.08678 0.2217 0.0
C465 C 0.66695 0.12258 0.30383 0.0
C466 C 0.64315 0.1155 0.2223 0.0
C467 C 0.63767 0.12159 0.16788 0.0
C468 C 0.65053 0.10456 0.32715 0.0
C469 C 0.63041 0.0911 0.29679 0.0
C470 C 0.62705 0.09682 0.24477 0.0
C471 C 0.61232 0.07176 0.31937 0.0
C472 C 0.65475 0.10081 0.38484 0.0
C473 C 0.61573 0.05567 0.34481 0.0
C474 C 0.59968 0.03936 0.37257 0.0
C475 C 0.57958 0.03828 0.37363 0.0
C476 C 0.57546 0.05318 0.34428 0.0
C477 C 0.59175 0.06988 0.31774 0.0
H478 H 0.66779 0.11602 0.4058 0.0
H479 H 0.63994 0.09474 0.40534 0.0
H480 H 0.66015 0.08855 0.38815 0.0
H481 H 0.6311 0.05617 0.34489 0.0
H482 H 0.60319 0.02794 0.39448 0.0
H483 H 0.53214 0.72182 0.21954 0.0
H484 H 0.52887 0.69211 0.27725 0.0
H485 H 0.50967 0.64924 0.14034 0.0
H486 H 0.51377 0.67919 0.08274 0.0
H487 H 0.49478 0.65284 0.29356 0.0
H488 H 0.55719 0.6406 0.21359 0.0
H489 H 0.55388 0.66383 0.19749 0.0
H490 H 0.53621 0.63787 0.16382 0.0
C491 C 0.52742 0.70607 0.20198 0.0
C492 C 0.52334 0.70276 0.14683 0.0
C493 C 0.52546 0.68909 0.23487 0.0
C494 C 0.51936 0.66846 0.21325 0.0
C495 C 0.51493 0.66509 0.15805 0.0
H496 H 0.49906 0.54636 0.35545 0.0
H497 H 0.49614 0.57315 0.2972 0.0
C498 C 0.5171 0.68213 0.12516 0.0
C499 C 0.51742 0.65047 0.24852 0.0
H500 H 0.53556 0.6142 0.27306 0.0
C501 C 0.50375 0.64445 0.28909 0.0
C502 C 0.52913 0.63946 0.24294 0.0
C503 C 0.54509 0.64589 0.20247 0.0
C504 C 0.50139 0.6277 0.32375 0.0
C505 C 0.513 0.61669 0.31787 0.0
C506 C 0.5265 0.62253 0.27716 0.0
C507 C 0.51231 0.59982 0.35511 0.0
C508 C 0.48638 0.62176 0.36626 0.0
C509 C 0.52198 0.60579 0.40737 0.0
C510 C 0.52381 0.59058 0.44069 0.0
C511 C 0.51599 0.56901 0.42246 0.0
C512 C 0.5053 0.5628 0.37087 0.0
C513 C 0.50366 0.57811 0.3374 0.0
H514 H 0.4753 0.62852 0.35895 0.0
H515 H 0.47654 0.60374 0.36902 0.0
H516 H 0.49616 0.62841 0.40497 0.0
H517 H 0.52892 0.62248 0.42175 0.0
H518 H 0.53207 0.59596 0.48017 0.0
H519 H 0.83447 0.53881 0.26161 0.0
H520 H 0.86834 0.54151 0.30198 0.0
H521 H 0.89424 0.55773 0.1511 0.0
H522 H 0.85964 0.55338 0.11007 0.0
H523 H 0.90429 0.53052 0.19541 0.0
H524 H 0.92427 0.59416 0.34597 0.0
H525 H 0.89805 0.57131 0.35354 0.0
H526 H 0.90251 0.58658 0.29366 0.0
C527 C 0.84741 0.54282 0.23724 0.0
C528 C 0.84454 0.54565 0.18288 0.0
C529 C 0.86686 0.54469 0.26035 0.0
C530 C 0.88408 0.55034 0.22987 0.0
C531 C 0.88125 0.55346 0.17549 0.0
H532 H 0.00373 0.57788 0.42135 0.0
H533 H 0.97921 0.58242 0.35434 0.0
C534 C 0.86159 0.55107 0.15215 0.0
C535 C 0.90463 0.55202 0.25449 0.0
H536 H 0.94119 0.57208 0.36407 0.0
C537 C 0.91261 0.53992 0.23183 0.0
C538 C 0.91593 0.56479 0.30109 0.0
C539 C 0.90986 0.58013 0.3245 0.0
C540 C 0.93086 0.53932 0.25604 0.0
C541 C 0.94081 0.55033 0.30547 0.0
C542 C 0.93347 0.56332 0.3266 0.0
C543 C 0.95792 0.54775 0.33782 0.0
C544 C 0.93925 0.52698 0.22805 0.0
C545 C 0.95467 0.52682 0.34958 0.0
C546 C 0.96915 0.52431 0.38643 0.0
C547 C 0.98663 0.54262 0.41349 0.0
C548 C 0.99032 0.56355 0.40074 0.0
C549 C 0.97627 0.56611 0.36266 0.0
H550 H 0.93615 0.5275 0.18445 0.0
H551 H 0.95691 0.5337 0.2387 0.0
H552 H 0.93054 0.50958 0.23889 0.0
H553 H 0.94032 0.51234 0.33257 0.0
H554 H 0.96583 0.508 0.39645 0.0
H555 H 0.32416 0.83933 0.1186 0.0
H556 H 0.35946 0.86698 0.16258 0.0
H557 H 0.3333 0.85122 0.31308 0.0
H558 H 0.29829 0.82322 0.2692 0.0
H559 H 0.37001 0.90317 0.21922 0.0
H560 H 0.38843 0.84847 0.34539 0.0
H561 H 0.36716 0.83835 0.29102 0.0
H562 H 0.36231 0.84477 0.3544 0.0
C563 C 0.32611 0.84188 0.16107 0.0
C564 C 0.30871 0.82942 0.19079 0.0
C565 C 0.34618 0.85755 0.18611 0.0
C566 C 0.34912 0.86083 0.24121 0.0
C567 C 0.33156 0.84855 0.27072 0.0
H568 H 0.42584 0.96822 0.44516 0.0
H569 H 0.40111 0.94114 0.37782 0.0
C570 C 0.31155 0.83281 0.24573 0.0
C571 C 0.37019 0.87781 0.26784 0.0
H572 H 0.40747 0.88657 0.37346 0.0
C573 C 0.37842 0.89949 0.25234 0.0
C574 C 0.38151 0.87297 0.31013 0.0
C575 C 0.37452 0.84983 0.3258 0.0
C576 C 0.39677 0.91663 0.28051 0.0
C577 C 0.40682 0.91196 0.32593 0.0
C578 C 0.39957 0.89016 0.33904 0.0
C579 C 0.42294 0.92941 0.36381 0.0
C580 C 0.40488 0.93964 0.26214 0.0
C581 C 0.44337 0.93156 0.37916 0.0
C582 C 0.45765 0.94706 0.41833 0.0
C583 C 0.45154 0.9604 0.44308 0.0
C584 C 0.43114 0.95827 0.42701 0.0
C585 C 0.417 0.9429 0.38803 0.0
H586 H 0.40098 0.93982 0.21875 0.0
H587 H 0.39675 0.94697 0.2817 0.0
H588 H 0.42268 0.94997 0.27213 0.0
H589 H 0.44814 0.9211 0.36131 0.0
H590 H 0.4732 0.94823 0.43001 0.0
H591 H 0.45139 0.27372 0.32811 0.0
H592 H 0.44906 0.29787 0.39148 0.0
H593 H 0.50114 0.35373 0.32549 0.0
H594 H 0.50358 0.32987 0.26254 0.0
H595 H 0.50615 0.35389 0.43596 0.0
H596 H 0.42387 0.33836 0.35729 0.0
H597 H 0.42655 0.31508 0.37641 0.0
H598 H 0.43925 0.33042 0.32071 0.0
C599 C 0.46221 0.29118 0.32696 0.0
C600 C 0.47771 0.2999 0.2904 0.0
C601 C 0.46087 0.30492 0.36318 0.0
C602 C 0.47485 0.3276 0.36298 0.0
C603 C 0.49028 0.33627 0.32654 0.0
H604 H 0.48297 0.44467 0.41768 0.0
H605 H 0.47323 0.40758 0.39435 0.0
C606 C 0.49169 0.3226 0.29065 0.0
C607 C 0.47365 0.3427 0.4 0.0
H608 H 0.44341 0.3662 0.42204 0.0
C609 C 0.49229 0.35635 0.43385 0.0
C610 C 0.45548 0.34574 0.39713 0.0
C611 C 0.43515 0.33176 0.36079 0.0
C612 C 0.4939 0.37398 0.462 0.0
C613 C 0.47615 0.37778 0.45691 0.0
C614 C 0.45692 0.36316 0.42605 0.0
C615 C 0.47876 0.3989 0.47435 0.0
C616 C 0.51516 0.38938 0.49356 0.0
C617 C 0.48434 0.40617 0.52758 0.0
C618 C 0.49017 0.42767 0.54119 0.0
C619 C 0.49044 0.4421 0.50167 0.0
C620 C 0.48332 0.43415 0.44906 0.0
C621 C 0.47757 0.41284 0.43562 0.0
H622 H 0.52815 0.38563 0.4876 0.0
H623 H 0.52065 0.40652 0.48244 0.0
H624 H 0.51297 0.38809 0.53625 0.0
H625 H 0.48496 0.39552 0.55825 0.0
H626 H 0.49543 0.43324 0.58212 0.0
H627 H 0.52775 0.8044 0.84359 0.0
H628 H 0.52924 0.83241 0.78187 0.0
H629 H 0.54611 0.87717 0.91357 0.0
H630 H 0.54474 0.84923 0.97501 0.0
H631 H 0.50472 0.85271 0.77591 0.0
H632 H 0.5917 0.91437 0.81569 0.0
H633 H 0.58077 0.8865 0.83621 0.0
H634 H 0.57838 0.90599 0.87484 0.0
C635 C 0.532 0.82034 0.85906 0.0
C636 C 0.53634 0.82483 0.91383 0.0
C637 C 0.53283 0.83629 0.82391 0.0
C638 C 0.53817 0.85706 0.84291 0.0
C639 C 0.54249 0.86149 0.89778 0.0
H640 H 0.53459 0.97086 0.75438 0.0
H641 H 0.54081 0.94217 0.79154 0.0
C642 C 0.54162 0.84553 0.93289 0.0
C643 C 0.5381 0.87375 0.80589 0.0
H644 H 0.56863 0.92696 0.77221 0.0
C645 C 0.51879 0.86884 0.77435 0.0
C646 C 0.5565 0.89475 0.80356 0.0
C647 C 0.57808 0.90068 0.83397 0.0
C648 C 0.517 0.88473 0.74314 0.0
C649 C 0.53513 0.90604 0.74272 0.0
C650 C 0.55472 0.91064 0.77245 0.0
C651 C 0.53335 0.92441 0.71732 0.0
C652 C 0.49536 0.87892 0.71322 0.0
C653 C 0.52775 0.92447 0.66259 0.0
C654 C 0.52412 0.94102 0.64092 0.0
C655 C 0.52601 0.95774 0.67373 0.0
C656 C 0.53272 0.95813 0.72794 0.0
C657 C 0.53637 0.94174 0.74935 0.0
H658 H 0.48213 0.86293 0.72473 0.0
H659 H 0.49106 0.89166 0.72012 0.0
H660 H 0.49635 0.87798 0.67024 0.0
H661 H 0.52571 0.91148 0.63684 0.0
H662 H 0.51895 0.94021 0.59909 0.0
H663 H 0.72544 0.52735 0.86781 0.0
H664 H 0.691 0.52342 0.82656 0.0
H665 H 0.66696 0.51242 0.97941 0.0
H666 H 0.70164 0.51691 0.02071 0.0
H667 H 0.6487 0.48871 0.82596 0.0
H668 H 0.65877 0.56299 0.92468 0.0
H669 H 0.68076 0.5574 0.92458 0.0
H670 H 0.66009 0.5431 0.96798 0.0
C671 C 0.71277 0.52419 0.89236 0.0
C672 C 0.7161 0.52277 0.94724 0.0
C673 C 0.69314 0.52184 0.86893 0.0
C674 C 0.67656 0.51794 0.90007 0.0
C675 C 0.67969 0.51585 0.95484 0.0
H676 H 0.55033 0.49032 0.73103 0.0
H677 H 0.57603 0.48663 0.79652 0.0
C678 C 0.69937 0.51832 0.9783 0.0
C679 C 0.65623 0.51649 0.87485 0.0
H680 H 0.62728 0.54311 0.866 0.0
C681 C 0.64382 0.50043 0.83505 0.0
C682 C 0.65002 0.53187 0.88685 0.0
C683 C 0.66315 0.54994 0.92803 0.0
C684 C 0.6258 0.4998 0.80547 0.0
C685 C 0.61987 0.51547 0.8167 0.0
C686 C 0.63178 0.53101 0.85789 0.0
C687 C 0.60344 0.518 0.78148 0.0
C688 C 0.61399 0.48316 0.76059 0.0
C689 C 0.61015 0.53715 0.75293 0.0
C690 C 0.5956 0.53935 0.71601 0.0
C691 C 0.57392 0.52244 0.70676 0.0
C692 C 0.56693 0.50359 0.73704 0.0
C693 C 0.58161 0.5014 0.77421 0.0
H694 H 0.62279 0.47457 0.75186 0.0
H695 H 0.59773 0.47079 0.77118 0.0
H696 H 0.61168 0.49108 0.72413 0.0
H697 H 0.62691 0.55018 0.75805 0.0
H698 H 0.60154 0.55418 0.69382 0.0
H699 H 0.19834 0.73996 0.88539 0.0
H700 H 0.17082 0.71194 0.82156 0.0
H701 H 0.13071 0.68019 0.94712 0.0
H702 H 0.15809 0.7083 0.01046 0.0
H703 H 0.15972 0.66927 0.82978 0.0
H704 H 0.08612 0.6762 0.82848 0.0
H705 H 0.11275 0.69799 0.85304 0.0
H706 H 0.09741 0.67562 0.89448 0.0
C707 C 0.18329 0.72733 0.89867 0.0
C708 C 0.18006 0.72618 0.95233 0.0
C709 C 0.16766 0.71136 0.86243 0.0
C710 C 0.14858 0.69415 0.87945 0.0
C711 C 0.14502 0.69362 0.93283 0.0
H712 H 0.0536 0.56381 0.81722 0.0
H713 H 0.07738 0.60194 0.84517 0.0
C714 C 0.16064 0.70956 0.96901 0.0
C715 C 0.13387 0.67517 0.84362 0.0
H716 H 0.08038 0.64074 0.80316 0.0
C717 C 0.14243 0.66327 0.82279 0.0
C718 C 0.11135 0.66742 0.83459 0.0
C719 C 0.10141 0.68012 0.8534 0.0
C720 C 0.12888 0.64303 0.79644 0.0
C721 C 0.10622 0.63468 0.79012 0.0
C722 C 0.09777 0.64716 0.80828 0.0
C723 C 0.09093 0.61202 0.7706 0.0
C724 C 0.1388 0.63011 0.77867 0.0
C725 C 0.09052 0.60509 0.71911 0.0
C726 C 0.07705 0.58316 0.70309 0.0
C727 C 0.06367 0.56789 0.73821 0.0
C728 C 0.06382 0.57508 0.7893 0.0
C729 C 0.07727 0.59691 0.80524 0.0
H730 H 0.15614 0.6373 0.7944 0.0
H731 H 0.12983 0.61298 0.79153 0.0
H732 H 0.13775 0.62979 0.73486 0.0
H733 H 0.10081 0.61656 0.69161 0.0
H734 H 0.07752 0.57809 0.66379 0.0
H735 H 0.47344 0.15729 0.97466 0.0
H736 H 0.48222 0.13626 0.91739 0.0
H737 H 0.54071 0.19499 0.88535 0.0
H738 H 0.53142 0.21625 0.94113 0.0
H739 H 0.52231 0.17093 0.7983 0.0
H740 H 0.52585 0.11753 0.95614 0.0
H741 H 0.49992 0.1159 0.94992 0.0
H742 H 0.52408 0.14145 0.9698 0.0
C743 C 0.48813 0.16567 0.95523 0.0
C744 C 0.50185 0.1883 0.96245 0.0
C745 C 0.49325 0.15365 0.92293 0.0
C746 C 0.51249 0.16393 0.89842 0.0
C747 C 0.5259 0.18668 0.90432 0.0
H748 H 0.53813 0.0683 0.76078 0.0
H749 H 0.54589 0.10099 0.81044 0.0
C750 C 0.52057 0.1988 0.93598 0.0
C751 C 0.51826 0.15081 0.86611 0.0
H752 H 0.52016 0.1036 0.86669 0.0
C753 C 0.52221 0.15639 0.81347 0.0
C754 C 0.51895 0.13228 0.88626 0.0
C755 C 0.51723 0.12662 0.94382 0.0
C756 C 0.5253 0.14309 0.7795 0.0
C757 C 0.52358 0.12329 0.7982 0.0
C758 C 0.52113 0.11855 0.85181 0.0
C759 C 0.52208 0.10621 0.76238 0.0
C760 C 0.53022 0.15042 0.72395 0.0
C761 C 0.50658 0.09857 0.71791 0.0
C762 C 0.50252 0.08025 0.68873 0.0
C763 C 0.5134 0.06872 0.70429 0.0
C764 C 0.52948 0.07681 0.74767 0.0
C765 C 0.53388 0.09547 0.77621 0.0
H766 H 0.53979 0.16851 0.7229 0.0
H767 H 0.53939 0.14356 0.70731 0.0
H768 H 0.51479 0.14505 0.69832 0.0
H769 H 0.49671 0.10601 0.70726 0.0
H770 H 0.48993 0.07443 0.65575 0.0
H771 H 0.31064 0.49057 0.95625 0.0
H772 H 0.34024 0.49277 0.91153 0.0
H773 H 0.36221 0.47052 0.0514 0.0
H774 H 0.33266 0.46834 0.09653 0.0
H775 H 0.38502 0.51696 0.93747 0.0
H776 H 0.35611 0.42798 0.93634 0.0
H777 H 0.33926 0.43899 0.95134 0.0
H778 H 0.35985 0.44016 1.00042 0.0
C779 C 0.32181 0.48624 0.97765 0.0
C780 C 0.31913 0.47911 0.0299 0.0
C781 C 0.33872 0.48746 0.95196 0.0
C782 C 0.35331 0.48154 0.9778 0.0
C783 C 0.3509 0.47473 0.03022 0.0
H784 H 0.47308 0.50812 0.84348 0.0
H785 H 0.44836 0.50781 0.90394 0.0
C786 C 0.33395 0.47345 0.05594 0.0
C787 C 0.37093 0.48247 0.94957 0.0
H788 H 0.38949 0.45074 0.90254 0.0
C789 C 0.38609 0.50252 0.93007 0.0
C790 C 0.37223 0.46357 0.9396 0.0
C791 C 0.35592 0.4414 0.95755 0.0
C792 C 0.40232 0.50413 0.90038 0.0
C793 C 0.40361 0.48524 0.89047 0.0
C794 C 0.38863 0.46526 0.91059 0.0
C795 C 0.41903 0.48536 0.85528 0.0
C796 C 0.4174 0.52588 0.87815 0.0
C797 C 0.41084 0.4725 0.80853 0.0
C798 C 0.42484 0.47255 0.77422 0.0
C799 C 0.44751 0.48543 0.78576 0.0
C800 C 0.45576 0.49808 0.83315 0.0
C801 C 0.44163 0.49802 0.86763 0.0
H802 H 0.41157 0.53771 0.88051 0.0
H803 H 0.43365 0.53291 0.90098 0.0
H804 H 0.41925 0.52388 0.83623 0.0
H805 H 0.39349 0.46257 0.79815 0.0
H806 H 0.41776 0.46251 0.73834 0.0
H807 H 0.8179 0.29223 0.93102 0.0
H808 H 0.84492 0.32208 0.88207 0.0
H809 H 0.86687 0.36437 0.02104 0.0
H810 H 0.84027 0.33433 0.0702 0.0
H811 H 0.85077 0.36279 0.85899 0.0
H812 H 0.92304 0.37046 0.98273 0.0
H813 H 0.89617 0.34757 0.9866 0.0
H814 H 0.90446 0.37314 0.01973 0.0
C815 C 0.82863 0.3079 0.95094 0.0
C816 C 0.82723 0.31105 0.00428 0.0
C817 C 0.84396 0.32494 0.92304 0.0
C818 C 0.85818 0.34539 0.94808 0.0
C819 C 0.85644 0.34862 0.00119 0.0
H820 H 0.96573 0.46521 0.84415 0.0
H821 H 0.93492 0.43914 0.88985 0.0
C822 C 0.8412 0.33155 0.02915 0.0
C823 C 0.87478 0.3633 0.9186 0.0
H824 H 0.92937 0.39753 0.91916 0.0
C825 C 0.86796 0.37037 0.87211 0.0
C826 C 0.89723 0.37319 0.93566 0.0
C827 C 0.90572 0.36559 0.98361 0.0
C828 C 0.88296 0.38716 0.84256 0.0
C829 C 0.90536 0.39701 0.8597 0.0
C830 C 0.91216 0.39008 0.90634 0.0
C831 C 0.92219 0.41382 0.82873 0.0
C832 C 0.87473 0.3944 0.79352 0.0
C833 C 0.92502 0.4084 0.77868 0.0
C834 C 0.94266 0.42323 0.75248 0.0
C835 C 0.9579 0.44377 0.77593 0.0
C836 C 0.95438 0.44955 0.82491 0.0
C837 C 0.93679 0.43465 0.8512 0.0
H838 H 0.8573 0.38929 0.79309 0.0
H839 H 0.8842 0.41241 0.7903 0.0
H840 H 0.8766 0.38689 0.75818 0.0
H841 H 0.91414 0.39233 0.76088 0.0
H842 H 0.9448 0.4182 0.7148 0.0
H843 H 0.84047 0.5397 0.86077 0.0
H844 H 0.86877 0.53757 0.81918 0.0
H845 H 0.87948 0.50496 0.95477 0.0
H846 H 0.85125 0.50707 0.99672 0.0
H847 H 0.91844 0.54336 0.91599 0.0
H848 H 0.865 0.47967 0.76155 0.0
H849 H 0.85954 0.50165 0.76901 0.0
H850 H 0.85544 0.48301 0.82164 0.0
C851 C 0.84884 0.53206 0.88168 0.0
C852 C 0.84356 0.52346 0.9319 0.0
C853 C 0.86489 0.53074 0.85777 0.0
C854 C 0.87605 0.52095 0.88379 0.0
C855 C 0.87093 0.51245 0.93397 0.0
H856 H 0.96373 0.49127 0.73489 0.0
H857 H 0.9367 0.48914 0.78988 0.0
C858 C 0.85473 0.51355 0.95769 0.0
C859 C 0.89349 0.52015 0.8591 0.0
H860 H 0.9028 0.49784 0.75461 0.0
C861 C 0.91505 0.53331 0.88093 0.0
C862 C 0.88895 0.50681 0.81382 0.0
C863 C 0.86598 0.49182 0.79014 0.0
C864 C 0.93231 0.53404 0.85749 0.0
C865 C 0.92783 0.52137 0.8109 0.0
C866 C 0.9062 0.50762 0.7902 0.0
C867 C 0.94535 0.523 0.78139 0.0
C868 C 0.95518 0.54843 0.88264 0.0
C869 C 0.95925 0.54275 0.75865 0.0
C870 C 0.97471 0.54403 0.72733 0.0
C871 C 0.97659 0.52555 0.71793 0.0
C872 C 0.96292 0.50587 0.74173 0.0
C873 C 0.94737 0.50458 0.77294 0.0
H874 H 0.95555 0.55222 0.92495 0.0
H875 H 0.96518 0.5406 0.87965 0.0
H876 H 0.96269 0.56408 0.86176 0.0
H877 H 0.95773 0.55706 0.76389 0.0
H878 H 0.98492 0.55945 0.70966 0.0
H879 H 0.28734 0.81605 0.85218 0.0
H880 H 0.31183 0.84383 0.7949 0.0
H881 H 0.32271 0.89446 0.90518 0.0
H882 H 0.29829 0.86691 0.9624 0.0
H883 H 0.31837 0.90501 0.79852 0.0
H884 H 0.37745 0.87553 0.83676 0.0
H885 H 0.35071 0.85541 0.80932 0.0
H886 H 0.35473 0.86678 0.8746 0.0
C887 C 0.2949 0.83311 0.86408 0.0
C888 C 0.291 0.83927 0.912 0.0
C889 C 0.30884 0.84895 0.8313 0.0
C890 C 0.31928 0.87117 0.84617 0.0
C891 C 0.31477 0.8774 0.89292 0.0
H892 H 0.44141 0.97581 0.78091 0.0
H893 H 0.40841 0.94907 0.81741 0.0
C894 C 0.30078 0.86162 0.92554 0.0
C895 C 0.3361 0.88792 0.81536 0.0
H896 H 0.3869 0.90532 0.78127 0.0
C897 C 0.3333 0.90503 0.79428 0.0
C898 C 0.35563 0.88798 0.81047 0.0
C899 C 0.35999 0.87058 0.83429 0.0
C900 C 0.34972 0.92241 0.76909 0.0
C901 C 0.36927 0.9225 0.76468 0.0
C902 C 0.37183 0.90515 0.7847 0.0
C903 C 0.38806 0.94105 0.74297 0.0
C904 C 0.34641 0.94093 0.74919 0.0
C905 C 0.3874 0.94594 0.68918 0.0
C906 C 0.40633 0.96144 0.66809 0.0
C907 C 0.42618 0.97199 0.70048 0.0
C908 C 0.42643 0.96783 0.7548 0.0
C909 C 0.40758 0.95255 0.77577 0.0
H910 H 0.33196 0.94022 0.7636 0.0
H911 H 0.36091 0.9569 0.76175 0.0
H912 H 0.34412 0.9401 0.70533 0.0
H913 H 0.37254 0.93704 0.66308 0.0
H914 H 0.40568 0.96419 0.62602 0.0
H915 H 0.48555 0.28008 0.93499 0.0
H916 H 0.48631 0.30682 0.8703 0.0
H917 H 0.49059 0.34858 0.99701 0.0
H918 H 0.48957 0.32161 0.06168 0.0
H919 H 0.45988 0.34334 0.91172 0.0
H920 H 0.53914 0.36563 0.84248 0.0
H921 H 0.51986 0.3369 0.83896 0.0
H922 H 0.5303 0.35093 0.90226 0.0
C923 C 0.48666 0.29501 0.94876 0.0
C924 C 0.48744 0.29891 0.00297 0.0
C925 C 0.48723 0.31031 0.91196 0.0
C926 C 0.48878 0.32984 0.92883 0.0
C927 C 0.48945 0.33366 0.98313 0.0
H928 H 0.52246 0.44974 0.77068 0.0
H929 H 0.52143 0.4196 0.8216 0.0
C930 C 0.4889 0.31834 0.01998 0.0
C931 C 0.48936 0.34614 0.88982 0.0
H932 H 0.51898 0.38026 0.79591 0.0
C933 C 0.47277 0.35138 0.88629 0.0
C934 C 0.50628 0.35673 0.85694 0.0
C935 C 0.52503 0.35246 0.86049 0.0
C936 C 0.47262 0.36693 0.85086 0.0
C937 C 0.48938 0.37731 0.81742 0.0
C938 C 0.50598 0.37207 0.82098 0.0
C939 C 0.49085 0.39492 0.78172 0.0
C940 C 0.45491 0.37263 0.85074 0.0
C941 C 0.47442 0.39097 0.74072 0.0
C942 C 0.47495 0.40826 0.71125 0.0
C943 C 0.49193 0.42982 0.72236 0.0
C944 C 0.509 0.43342 0.7613 0.0
C945 C 0.50847 0.41618 0.79052 0.0
H946 H 0.44599 0.36664 0.88623 0.0
H947 H 0.46168 0.39057 0.84917 0.0
H948 H 0.4431 0.36498 0.81523 0.0
H949 H 0.46089 0.37461 0.73247 0.0
H950 H 0.4616 0.40486 0.68141 0.0
H951 H 0.16947 0.42462 0.08203 0.0
H952 H 0.13455 0.41109 0.03016 0.0
H953 H 0.16705 0.43998 0.89138 0.0
H954 H 0.20191 0.4504 0.94195 0.0
H955 H 0.12193 0.43523 1.00036 0.0
H956 H 0.11559 0.39277 0.81664 0.0
H957 H 0.13613 0.39734 0.87033 0.0
H958 H 0.14098 0.41771 0.82091 0.0
C959 C 0.1691 0.42691 0.03975 0.0
C960 C 0.18841 0.43854 0.01586 0.0
C961 C 0.14907 0.41942 0.01012 0.0
C962 C 0.14789 0.42457 0.95659 0.0
C963 C 0.16718 0.43513 0.93202 0.0
H964 H 0.0769 0.48278 0.83697 0.0
H965 H 0.09966 0.46957 0.88183 0.0
C966 C 0.18722 0.44146 0.96114 0.0
C967 C 0.12746 0.42285 0.93025 0.0
H968 H 0.09842 0.41593 0.8098 0.0
C969 C 0.11651 0.43027 0.95907 0.0
C970 C 0.11973 0.41606 0.87661 0.0
C971 C 0.12864 0.40528 0.84476 0.0
C972 C 0.09932 0.4326 0.9351 0.0
C973 C 0.09367 0.42872 0.88 0.0
C974 C 0.10324 0.41958 0.85181 0.0
C975 C 0.07976 0.43635 0.85077 0.0
C976 C 0.0878 0.43978 0.96912 0.0
C977 C 0.06154 0.42234 0.81612 0.0
C978 C 0.04867 0.43006 0.78919 0.0
C979 C 0.05379 0.45182 0.79701 0.0
C980 C 0.07222 0.4658 0.83105 0.0
C981 C 0.08522 0.45823 0.85696 0.0
H982 H 0.08755 0.43344 0.00963 0.0
H983 H 0.09668 0.45787 0.97288 0.0
H984 H 0.07084 0.4341 0.95211 0.0
H985 H 0.0572 0.40546 0.81029 0.0
H986 H 0.03462 0.41899 0.76282 0.0
H987 H 0.7028 0.2113 0.87526 0.0
H988 H 0.67152 0.18244 0.82093 0.0
H989 H 0.67531 0.13366 0.91968 0.0
H990 H 0.70618 0.16228 0.97456 0.0
H991 H 0.67043 0.14738 0.76577 0.0
H992 H 0.61112 0.11799 0.91412 0.0
H993 H 0.63571 0.14425 0.92041 0.0
H994 H 0.63657 0.11986 0.93771 0.0
C995 C 0.69686 0.19442 0.88545 0.0
C996 C 0.70694 0.189 0.92894 0.0
C997 C 0.67906 0.17801 0.85447 0.0
C998 C 0.67097 0.15603 0.86701 0.0
C999 C 0.68112 0.15058 0.91006 0.0
H1000 H 0.59713 0.03839 0.67979 0.0
H1001 H 0.62317 0.06882 0.73938 0.0
C1002 C 0.69892 0.16692 0.94084 0.0
C1003 C 0.65256 0.13859 0.83373 0.0
H1004 H 0.60177 0.09475 0.83773 0.0
C1005 C 0.65533 0.136 0.78125 0.0
C1006 C 0.63284 0.12397 0.8541 0.0
C1007 C 0.62873 0.12672 0.90954 0.0
C1008 C 0.63916 0.11857 0.74907 0.0
C1009 C 0.61992 0.1033 0.7703 0.0
C1010 C 0.61673 0.10638 0.82204 0.0
C1011 C 0.60319 0.08381 0.73929 0.0
C1012 C 0.64283 0.11648 0.69272 0.0
C1013 C 0.5831 0.08187 0.72141 0.0
C1014 C 0.56817 0.06451 0.68741 0.0
C1015 C 0.57314 0.04882 0.67117 0.0
C1016 C 0.5929 0.0503 0.69135 0.0
C1017 C 0.60779 0.06765 0.72526 0.0
H1018 H 0.65602 0.13202 0.67902 0.0
H1019 H 0.64747 0.10375 0.68997 0.0
H1020 H 0.62778 0.11145 0.66568 0.0
H1021 H 0.57936 0.09427 0.73197 0.0
H1022 H 0.55327 0.06402 0.67177 0.0
H1023 H 0.52409 0.72486 0.7806 0.0
H1024 H 0.52654 0.70133 0.7156 0.0
H1025 H 0.56321 0.68483 0.83491 0.0
H1026 H 0.56141 0.70869 0.89897 0.0
H1027 H 0.57882 0.69001 0.7403 0.0
H1028 H 0.48893 0.63609 0.71756 0.0
H1029 H 0.49898 0.66397 0.69946 0.0
H1030 H 0.50262 0.65768 0.76738 0.0
C1031 C 0.53281 0.71631 0.79256 0.0
C1032 C 0.54247 0.71846 0.84475 0.0
C1033 C 0.53416 0.70287 0.75555 0.0
C1034 C 0.54474 0.69104 0.77068 0.0
C1035 C 0.55503 0.69385 0.82228 0.0
H1036 H 0.54686 0.57817 0.74811 0.0
H1037 H 0.55437 0.61561 0.75901 0.0
C1038 C 0.55397 0.70747 0.8589 0.0
C1039 C 0.54397 0.67442 0.73496 0.0
H1040 H 0.50933 0.62342 0.68118 0.0
C1041 C 0.56361 0.67565 0.72632 0.0
C1042 C 0.52408 0.65572 0.71652 0.0
C1043 C 0.50243 0.65309 0.72587 0.0
C1044 C 0.5639 0.65801 0.70339 0.0
C1045 C 0.54409 0.63883 0.68848 0.0
C1046 C 0.52447 0.63828 0.6927 0.0
C1047 C 0.5432 0.61798 0.678 0.0
C1048 C 0.58534 0.65945 0.69795 0.0
C1049 C 0.53469 0.60712 0.62859 0.0
C1050 C 0.53057 0.58575 0.6221 0.0
C1051 C 0.5344 0.57486 0.66538 0.0
C1052 C 0.54365 0.58613 0.71422 0.0
C1053 C 0.5481 0.60755 0.72038 0.0
H1054 H 0.59866 0.67668 0.69786 0.0
H1055 H 0.58933 0.65142 0.73189 0.0
H1056 H 0.58451 0.65089 0.66107 0.0
H1057 H 0.53058 0.6149 0.59569 0.0
H1058 H 0.52334 0.57739 0.58407 0.0
H1059 H 0.48236 0.17218 0.20094 0.0
H1060 H 0.48436 0.1441 0.25588 0.0
H1061 H 0.48942 0.17982 0.39643 0.0
H1062 H 0.48737 0.20807 0.34099 0.0
H1063 H 0.52056 0.15334 0.33627 0.0
H1064 H 0.44042 0.11463 0.41641 0.0
H1065 H 0.44529 0.13003 0.35664 0.0
H1066 H 0.45681 0.14398 0.41959 0.0
C1067 C 0.48364 0.17385 0.24356 0.0
C1068 C 0.48455 0.19206 0.26699 0.0
C1069 C 0.48482 0.15788 0.27486 0.0
C1070 C 0.48684 0.15978 0.33018 0.0
C1071 C 0.48755 0.17791 0.35379 0.0
H1072 H 0.50022 0.06404 0.54044 0.0
H1073 H 0.49653 0.09573 0.51244 0.0
C1074 C 0.48644 0.194 0.3223 0.0
C1075 C 0.48936 0.14321 0.36234 0.0
H1076 H 0.46231 0.09871 0.43755 0.0
C1077 C 0.50795 0.14158 0.35901 0.0
C1078 C 0.47297 0.12799 0.39227 0.0
C1079 C 0.45264 0.12903 0.39656 0.0
C1080 C 0.51025 0.12469 0.38319 0.0
C1081 C 0.49334 0.10875 0.4107 0.0
C1082 C 0.4752 0.11094 0.41632 0.0
C1083 C 0.49348 0.08868 0.42877 0.0
C1084 C 0.53056 0.1237 0.37801 0.0
C1085 C 0.49227 0.07393 0.39108 0.0
C1086 C 0.49434 0.05596 0.40677 0.0
C1087 C 0.4976 0.05221 0.46069 0.0
C1088 C 0.49776 0.06645 0.49863 0.0
C1089 C 0.49569 0.08456 0.48274 0.0
H1090 H 0.54417 0.13989 0.36886 0.0
H1091 H 0.53563 0.11791 0.41485 0.0
H1092 H 0.52733 0.11207 0.34524 0.0
H1093 H 0.49023 0.07662 0.34926 0.0
H1094 H 0.49387 0.04525 0.37637 0.0
H1095 H 0.32049 0.48746 0.18463 0.0
H1096 H 0.35496 0.49088 0.22283 0.0
H1097 H 0.36054 0.53611 0.34221 0.0
H1098 H 0.3257 0.5322 0.30478 0.0
H1099 H 0.39933 0.52489 0.25733 0.0
H1100 H 0.34997 0.47974 0.42004 0.0
H1101 H 0.33805 0.48322 0.35713 0.0
H1102 H 0.35126 0.50534 0.40539 0.0
C1103 C 0.32956 0.49876 0.21778 0.0
C1104 C 0.32071 0.50969 0.2418 0.0
C1105 C 0.34919 0.50072 0.23949 0.0
C1106 C 0.36007 0.51353 0.28561 0.0
C1107 C 0.35225 0.52607 0.30668 0.0
H1108 H 0.47455 0.52766 0.4738 0.0
H1109 H 0.45035 0.53317 0.40866 0.0
C1110 C 0.33251 0.52401 0.28513 0.0
C1111 C 0.3771 0.51067 0.31642 0.0
H1112 H 0.38651 0.48884 0.43022 0.0
C1113 C 0.39666 0.51709 0.29523 0.0
C1114 C 0.37322 0.49996 0.36511 0.0
C1115 C 0.35194 0.49146 0.38821 0.0
C1116 C 0.41265 0.51332 0.3221 0.0
C1117 C 0.40892 0.50308 0.37147 0.0
C1118 C 0.3893 0.49661 0.39228 0.0
C1119 C 0.42511 0.49919 0.40351 0.0
C1120 C 0.43312 0.51992 0.29692 0.0
C1121 C 0.41905 0.47823 0.4222 0.0
C1122 C 0.43274 0.47508 0.46017 0.0
C1123 C 0.45281 0.49283 0.47969 0.0
C1124 C 0.45934 0.51358 0.45884 0.0
C1125 C 0.44554 0.51677 0.42137 0.0
H1126 H 0.43063 0.5211 0.25338 0.0
H1127 H 0.44599 0.53622 0.31307 0.0
H1128 H 0.43896 0.50814 0.30544 0.0
H1129 H 0.4033 0.46444 0.40898 0.0
H1130 H 0.42735 0.4589 0.47534 0.0
H1131 H 0.83213 0.33243 0.28848 0.0
H1132 H 0.85926 0.35558 0.35924 0.0
H1133 H 0.86152 0.29975 0.42473 0.0
H1134 H 0.83427 0.27633 0.3535 0.0
H1135 H 0.86177 0.35505 0.47017 0.0
H1136 H 0.92394 0.34106 0.39199 0.0
H1137 H 0.898 0.33281 0.35496 0.0
H1138 H 0.8999 0.31752 0.41071 0.0
C1139 C 0.83803 0.32495 0.31851 0.0
C1140 C 0.8312 0.3026 0.31524 0.0
C1141 C 0.85356 0.33821 0.35889 0.0
C1142 C 0.86256 0.3294 0.39676 0.0
C1143 C 0.85501 0.30689 0.39531 0.0
H1144 H 0.96391 0.43431 0.61488 0.0
H1145 H 0.93397 0.39744 0.59044 0.0
C1146 C 0.8395 0.29358 0.35465 0.0
C1147 C 0.88103 0.3444 0.43453 0.0
H1148 H 0.93618 0.36918 0.45527 0.0
C1149 C 0.87802 0.35787 0.46804 0.0
C1150 C 0.90215 0.34794 0.43137 0.0
C1151 C 0.90637 0.33421 0.3952 0.0
C1152 C 0.89577 0.37587 0.49548 0.0
C1153 C 0.91696 0.38019 0.48969 0.0
C1154 C 0.91985 0.36571 0.45951 0.0
C1155 C 0.93619 0.40146 0.50634 0.0
C1156 C 0.89181 0.39107 0.527 0.0
C1157 C 0.9477 0.41558 0.46727 0.0
C1158 C 0.9648 0.43649 0.48098 0.0
C1159 C 0.97076 0.44372 0.53418 0.0
C1160 C 0.95966 0.42927 0.57354 0.0
C1161 C 0.9425 0.40824 0.55969 0.0
H1162 H 0.87449 0.38671 0.52225 0.0
H1163 H 0.89667 0.39037 0.56956 0.0
H1164 H 0.90175 0.40817 0.51473 0.0
H1165 H 0.94303 0.41063 0.42583 0.0
H1166 H 0.97303 0.4471 0.44965 0.0
H1167 H 0.54284 0.80321 0.28569 0.0
H1168 H 0.54173 0.82399 0.35952 0.0
H1169 H 0.49109 0.83093 0.26915 0.0
H1170 H 0.49217 0.81035 0.19527 0.0
H1171 H 0.55146 0.86625 0.35039 0.0
H1172 H 0.46952 0.81749 0.41449 0.0
H1173 H 0.48119 0.80588 0.37543 0.0
H1174 H 0.46854 0.82044 0.34419 0.0
C1175 C 0.53128 0.80894 0.28185 0.0
C1176 C 0.51769 0.80528 0.23452 0.0
C1177 C 0.53055 0.82064 0.32419 0.0
C1178 C 0.51612 0.82872 0.32012 0.0
C1179 C 0.50193 0.82433 0.27373 0.0
H1180 H 0.49945 0.93013 0.4092 0.0
H1181 H 0.49624 0.89568 0.38346 0.0
C1182 C 0.50263 0.81263 0.2314 0.0
C1183 C 0.51793 0.84433 0.36067 0.0
H1184 H 0.4876 0.85656 0.43281 0.0
C1185 C 0.53768 0.86395 0.36962 0.0
C1186 C 0.49992 0.84122 0.38567 0.0
C1187 C 0.47867 0.82 0.37989 0.0
C1188 C 0.53946 0.88127 0.39939 0.0
C1189 C 0.52105 0.87866 0.42168 0.0
C1190 C 0.50168 0.85851 0.41563 0.0
C1191 C 0.52077 0.89759 0.44413 0.0
C1192 C 0.56056 0.90273 0.40331 0.0
C1193 C 0.53505 0.90969 0.48821 0.0
C1194 C 0.53715 0.92965 0.5028 0.0
C1195 C 0.52486 0.93768 0.47366 0.0
C1196 C 0.50942 0.92464 0.43208 0.0
C1197 C 0.50744 0.90483 0.41745 0.0
H1198 H 0.57202 0.90297 0.37675 0.0
H1199 H 0.55757 0.91644 0.39322 0.0
H1200 H 0.56848 0.9056 0.44448 0.0
H1201 H 0.54517 0.90412 0.50997 0.0
H1202 H 0.54895 0.93913 0.53557 0.0
H1203 H 0.75067 0.57671 0.26067 0.0
H1204 H 0.72733 0.58253 0.31437 0.0
H1205 H 0.67087 0.52797 0.23321 0.0
H1206 H 0.69397 0.52214 0.17916 0.0
H1207 H 0.67204 0.5718 0.24284 0.0
H1208 H 0.68987 0.53909 0.43165 0.0
H1209 H 0.71193 0.55748 0.39503 0.0
H1210 H 0.69306 0.53058 0.3685 0.0
C1211 C 0.73328 0.56598 0.25424 0.0
C1212 C 0.72415 0.54891 0.21578 0.0
C1213 C 0.72001 0.56926 0.28512 0.0
C1214 C 0.69744 0.55559 0.27785 0.0
C1215 C 0.68829 0.53861 0.2395 0.0
H1216 H 0.57755 0.52823 0.3682 0.0
H1217 H 0.60928 0.53534 0.32649 0.0
C1218 C 0.70151 0.53523 0.20891 0.0
C1219 C 0.68311 0.55909 0.3092 0.0
H1220 H 0.66281 0.54884 0.42867 0.0
C1221 C 0.6702 0.56707 0.28369 0.0
C1222 C 0.68101 0.55317 0.36261 0.0
C1223 C 0.6946 0.54453 0.39141 0.0
C1224 C 0.6546 0.5685 0.30967 0.0
C1225 C 0.65148 0.56124 0.36206 0.0
C1226 C 0.6652 0.55435 0.3885 0.0
C1227 C 0.63246 0.55815 0.38746 0.0
C1228 C 0.64131 0.57739 0.28036 0.0
C1229 C 0.63489 0.56831 0.43639 0.0
C1230 C 0.61659 0.56417 0.46087 0.0
C1231 C 0.5956 0.54957 0.43702 0.0
C1232 C 0.59338 0.53959 0.38787 0.0
C1233 C 0.61156 0.54377 0.36359 0.0
H1234 H 0.65032 0.58892 0.24976 0.0
H1235 H 0.62629 0.5637 0.25998 0.0
H1236 H 0.63664 0.58592 0.30772 0.0
H1237 H 0.65092 0.57932 0.45572 0.0
H1238 H 0.61888 0.57203 0.49881 0.0
H1239 H 0.19971 0.74021 0.32331 0.0
H1240 H 0.18026 0.71641 0.39346 0.0
H1241 H 0.1741 0.66093 0.31034 0.0
H1242 H 0.19307 0.68443 0.23949 0.0
H1243 H 0.13763 0.68044 0.37787 0.0
H1244 H 0.19575 0.6548 0.46351 0.0
H1245 H 0.20369 0.67856 0.42338 0.0
H1246 H 0.19047 0.65173 0.39275 0.0
C1247 C 0.19423 0.72294 0.31987 0.0
C1248 C 0.19793 0.71425 0.27554 0.0
C1249 C 0.18328 0.70941 0.36025 0.0
C1250 C 0.17604 0.68698 0.35748 0.0
C1251 C 0.18001 0.67829 0.31387 0.0
H1252 H 0.08974 0.56712 0.48278 0.0
H1253 H 0.11986 0.59835 0.44693 0.0
C1254 C 0.19087 0.69177 0.27335 0.0
C1255 C 0.1627 0.6723 0.39767 0.0
H1256 H 0.15913 0.63321 0.48436 0.0
C1257 C 0.14244 0.67037 0.40193 0.0
C1258 C 0.16907 0.65921 0.42886 0.0
C1259 C 0.19102 0.66127 0.42738 0.0
C1260 C 0.12781 0.65478 0.43425 0.0
C1261 C 0.13388 0.64113 0.46422 0.0
C1262 C 0.15453 0.64372 0.46158 0.0
C1263 C 0.11808 0.62248 0.49335 0.0
C1264 C 0.10552 0.65219 0.43344 0.0
C1265 C 0.10773 0.62559 0.53346 0.0
C1266 C 0.09024 0.60767 0.55389 0.0
C1267 C 0.08297 0.58636 0.53474 0.0
C1268 C 0.09466 0.58329 0.49798 0.0
C1269 C 0.11198 0.60116 0.47746 0.0
H1270 H 0.10202 0.6609 0.40029 0.0
H1271 H 0.09281 0.63469 0.4299 0.0
H1272 H 0.10441 0.65904 0.47094 0.0
H1273 H 0.11257 0.6419 0.54734 0.0
H1274 H 0.0818 0.61061 0.58267 0.0
loop_
_geom_bond_atom_site_label_1
_geom_bond_atom_site_label_2
_geom_bond_distance
_geom_bond_site_symmetry_2
_ccdc_geom_bond_type
C0 C1 1.443 . S
C0 N4 1.376 . S
C0 C38 1.389 . S
C1 C0 1.443 . S
C1 C2 1.340 . S
C1 H41 0.951 . S
C2 C1 1.340 . S
C2 C3 1.439 . S
C2 H42 0.950 . S
C3 C2 1.439 . S
C3 N4 1.374 . S
C3 C37 1.395 . S
N4 C0 1.376 . S
N4 C3 1.374 . S
N4 Co5 2.008 . S
Co5 N4 2.008 . S
Co5 N6 1.995 . S
Co5 N11 2.008 . S
Co5 N16 1.995 . S
Co5 N21 2.282 . S
Co5 N27 2.282 . S
N6 Co5 1.995 . S
N6 C7 1.376 . S
N6 C10 1.383 . S
C7 N6 1.376 . S
C7 C8 1.446 . S
C7 C37 1.391 . S
C8 C7 1.446 . S
C8 C9 1.339 . S
C8 H43 0.949 . S
C9 C8 1.339 . S
C9 C10 1.439 . S
C9 H44 0.950 . S
C10 N6 1.383 . S
C10 C9 1.439 . S
C10 C39 1.392 . S
N11 Co5 2.008 . S
N11 C12 1.376 . S
N11 C15 1.374 . S
C12 N11 1.376 . S
C12 C13 1.443 . S
C12 C39 1.389 . S
C13 C12 1.443 . S
C13 C14 1.340 . S
C13 H45 0.951 . S
C14 C13 1.340 . S
C14 C15 1.439 . S
C14 H46 0.950 . S
C15 N11 1.374 . S
C15 C14 1.439 . S
C15 C40 1.395 . S
N16 Co5 1.995 . S
N16 C17 1.376 . S
N16 C20 1.383 . S
C17 N16 1.376 . S
C17 C18 1.446 . S
C17 C40 1.391 . S
C18 C17 1.446 . S
C18 C19 1.339 . S
C18 H47 0.949 . S
C19 C18 1.339 . S
C19 C20 1.439 . S
C19 H48 0.950 . S
C20 N16 1.383 . S
C20 C19 1.439 . S
C20 C38 1.392 . S
N21 Co5 2.282 . S
N21 C24 1.332 . S
N21 C26 1.332 . S
C22 C23 1.386 . S
C22 C25 1.388 . S
C23 C22 1.386 . S
C23 C24 1.382 . S
C23 H49 0.950 . S
C24 N21 1.332 . S
C24 C23 1.382 . S
C24 H35 0.952 . S
C25 C22 1.388 . S
C25 C26 1.382 . S
C25 H50 0.950 . S
C26 N21 1.332 . S
C26 C25 1.382 . S
C26 H36 0.948 . S
N27 Co5 2.282 . S
N27 C31 1.332 . S
N27 C32 1.332 . S
C28 C29 1.388 . S
C28 C32 1.382 . S
C28 H51 0.950 . S
C29 C28 1.388 . S
C29 C30 1.386 . S
C30 C29 1.386 . S
C30 C31 1.382 . S
C30 H52 0.950 . S
C31 N27 1.332 . S
C31 C30 1.382 . S
C31 H33 0.952 . S
C32 N27 1.332 . S
C32 C28 1.382 . S
C32 H34 0.948 . S
H33 C31 0.952 . S
H34 C32 0.948 . S
H35 C24 0.952 . S
H36 C26 0.948 . S
C37 C3 1.395 . S
C37 C7 1.391 . S
C38 C0 1.389 . S
C38 C20 1.392 . S
C39 C10 1.392 . S
C39 C12 1.389 . S
C40 C15 1.395 . S
C40 C17 1.391 . S
H41 C1 0.951 . S
H42 C2 0.950 . S
H43 C8 0.949 . S
H44 C9 0.950 . S
H45 C13 0.951 . S
H46 C14 0.950 . S
H47 C18 0.949 . S
H48 C19 0.950 . S
H49 C23 0.950 . S
H50 C25 0.950 . S
H51 C28 0.950 . S
H52 C30 0.950 . S
C53 C54 1.443 . S
C53 N57 1.376 . S
C53 C91 1.389 . S
C54 C53 1.443 . S
C54 C55 1.340 . S
C54 H94 0.951 . S
C55 C54 1.340 . S
C55 C56 1.439 . S
C55 H95 0.950 . S
C56 C55 1.439 . S
C56 N57 1.374 . S
C56 C90 1.395 . S
N57 C53 1.376 . S
N57 C56 1.374 . S
N57 Co58 2.008 . S
Co58 N57 2.008 . S
Co58 N59 1.995 . S
Co58 N64 2.008 . S
Co58 N69 1.995 . S
Co58 N74 2.282 . S
Co58 N80 2.282 . S
N59 Co58 1.995 . S
N59 C60 1.376 . S
N59 C63 1.383 . S
C60 N59 1.376 . S
C60 C61 1.446 . S
C60 C90 1.391 . S
C61 C60 1.446 . S
C61 C62 1.339 . S
C61 H96 0.949 . S
C62 C61 1.339 . S
C62 C63 1.439 . S
C62 H97 0.950 . S
C63 N59 1.383 . S
C63 C62 1.439 . S
C63 C92 1.392 . S
N64 Co58 2.008 . S
N64 C65 1.376 . S
N64 C68 1.374 . S
C65 N64 1.376 . S
C65 C66 1.443 . S
C65 C92 1.389 . S
C66 C65 1.443 . S
C66 C67 1.340 . S
C66 H98 0.951 . S
C67 C66 1.340 . S
C67 C68 1.439 . S
C67 H99 0.950 . S
C68 N64 1.374 . S
C68 C67 1.439 . S
C68 C93 1.395 . S
N69 Co58 1.995 . S
N69 C70 1.376 . S
N69 C73 1.383 . S
C70 N69 1.376 . S
C70 C71 1.446 . S
C70 C93 1.391 . S
C71 C70 1.446 . S
C71 C72 1.339 . S
C71 H100 0.949 . S
C72 C71 1.339 . S
C72 C73 1.439 . S
C72 H101 0.950 1_554 S
C73 N69 1.383 . S
C73 C72 1.439 . S
C73 C91 1.392 . S
N74 Co58 2.282 . S
N74 C77 1.332 . S
N74 C79 1.332 . S
C75 C76 1.386 . S
C75 C78 1.388 1_556 S
C76 C75 1.386 . S
C76 C77 1.382 1_556 S
C76 H102 0.950 . S
C77 N74 1.332 . S
C77 C76 1.382 1_554 S
C77 H88 0.952 . S
C78 C75 1.388 1_554 S
C78 C79 1.382 . S
C78 H103 0.950 . S
C79 N74 1.332 . S
C79 C78 1.382 . S
C79 H89 0.948 . S
N80 Co58 2.282 . S
N80 C84 1.332 . S
N80 C85 1.332 . S
C81 C82 1.388 . S
C81 C85 1.382 . S
C81 H104 0.950 . S
C82 C81 1.388 . S
C82 C83 1.386 . S
C83 C82 1.386 . S
C83 C84 1.382 . S
C83 H105 0.950 . S
C84 N80 1.332 . S
C84 C83 1.382 . S
C84 H86 0.952 . S
C85 N80 1.332 . S
C85 C81 1.382 . S
C85 H87 0.948 . S
H86 C84 0.952 . S
H87 C85 0.948 . S
H88 C77 0.952 . S
H89 C79 0.948 . S
C90 C56 1.395 . S
C90 C60 1.391 . S
C91 C53 1.389 . S
C91 C73 1.392 . S
C92 C63 1.392 . S
C92 C65 1.389 . S
C93 C68 1.395 . S
C93 C70 1.391 . S
H94 C54 0.951 . S
H95 C55 0.950 . S
H96 C61 0.949 . S
H97 C62 0.950 . S
H98 C66 0.951 . S
H99 C67 0.950 . S
H100 C71 0.949 . S
H101 C72 0.950 1_556 S
H102 C76 0.950 . S
H103 C78 0.950 . S
H104 C81 0.950 . S
H105 C83 0.950 . S
C106 C107 1.443 . S
C106 N110 1.376 . S
C106 C144 1.389 . S
C107 C106 1.443 . S
C107 C108 1.340 . S
C107 H147 0.951 . S
C108 C107 1.340 . S
C108 C109 1.439 . S
C108 H148 0.950 . S
C109 C108 1.439 . S
C109 N110 1.374 . S
C109 C143 1.395 . S
N110 C106 1.376 . S
N110 C109 1.374 . S
N110 Co111 2.008 . S
Co111 N110 2.008 . S
Co111 N112 1.995 1_554 S
Co111 N117 2.008 1_554 S
Co111 N122 1.995 . S
Co111 N127 2.282 . S
Co111 N133 2.282 1_554 S
N112 Co111 1.995 1_556 S
N112 C113 1.376 . S
N112 C116 1.383 . S
C113 N112 1.376 . S
C113 C114 1.446 . S
C113 C143 1.391 1_556 S
C114 C113 1.446 . S
C114 C115 1.339 . S
C114 H149 0.949 . S
C115 C114 1.339 . S
C115 C116 1.439 . S
C115 H150 0.950 . S
C116 N112 1.383 . S
C116 C115 1.439 . S
C116 C145 1.392 . S
N117 Co111 2.008 1_556 S
N117 C118 1.376 . S
N117 C121 1.374 . S
C118 N117 1.376 . S
C118 C119 1.443 . S
C118 C145 1.389 . S
C119 C118 1.443 . S
C119 C120 1.340 . S
C119 H151 0.951 . S
C120 C119 1.340 . S
C120 C121 1.439 . S
C120 H152 0.950 . S
C121 N117 1.374 . S
C121 C120 1.439 . S
C121 C146 1.395 1_556 S
N122 Co111 1.995 . S
N122 C123 1.376 . S
N122 C126 1.383 . S
C123 N122 1.376 . S
C123 C124 1.446 . S
C123 C146 1.391 . S
C124 C123 1.446 . S
C124 C125 1.339 . S
C124 H153 0.949 . S
C125 C124 1.339 . S
C125 C126 1.439 . S
C125 H154 0.950 . S
C126 N122 1.383 . S
C126 C125 1.439 . S
C126 C144 1.392 . S
N127 Co111 2.282 . S
N127 C130 1.332 . S
N127 C132 1.332 . S
C128 C129 1.386 . S
C128 C131 1.388 . S
C129 C128 1.386 . S
C129 C130 1.382 . S
C129 H155 0.950 . S
C130 N127 1.332 . S
C130 C129 1.382 . S
C130 H141 0.952 . S
C131 C128 1.388 . S
C131 C132 1.382 . S
C131 H156 0.950 . S
C132 N127 1.332 . S
C132 C131 1.382 . S
C132 H142 0.948 . S
N133 Co111 2.282 1_556 S
N133 C137 1.332 . S
N133 C138 1.332 . S
C134 C135 1.388 . S
C134 C138 1.382 . S
C134 H157 0.950 . S
C135 C134 1.388 . S
C135 C136 1.386 . S
C136 C135 1.386 . S
C136 C137 1.382 . S
C136 H158 0.950 . S
C137 N133 1.332 . S
C137 C136 1.382 . S
C137 H139 0.952 . S
C138 N133 1.332 . S
C138 C134 1.382 . S
C138 H140 0.948 . S
H139 C137 0.952 . S
H140 C138 0.948 . S
H141 C130 0.952 . S
H142 C132 0.948 . S
C143 C109 1.395 . S
C143 C113 1.391 1_554 S
C144 C106 1.389 . S
C144 C126 1.392 . S
C145 C116 1.392 . S
C145 C118 1.389 . S
C146 C121 1.395 1_554 S
C146 C123 1.391 . S
H147 C107 0.951 . S
H148 C108 0.950 . S
H149 C114 0.949 . S
H150 C115 0.950 . S
H151 C119 0.951 . S
H152 C120 0.950 . S
H153 C124 0.949 . S
H154 C125 0.950 . S
H155 C129 0.950 . S
H156 C131 0.950 . S
H157 C134 0.950 . S
H158 C136 0.950 . S
C159 C160 1.443 . S
C159 N163 1.376 . S
C159 C197 1.389 . S
C160 C159 1.443 . S
C160 C161 1.340 . S
C160 H200 0.951 . S
C161 C160 1.340 . S
C161 C162 1.439 . S
C161 H201 0.950 . S
C162 C161 1.439 . S
C162 N163 1.374 . S
C162 C196 1.395 . S
N163 C159 1.376 . S
N163 C162 1.374 . S
N163 Co164 2.008 . S
Co164 N163 2.008 . S
Co164 N165 1.995 1_554 S
Co164 N170 2.008 1_554 S
Co164 N175 1.995 . S
Co164 N180 2.282 . S
Co164 N186 2.282 1_554 S
N165 Co164 1.995 1_556 S
N165 C166 1.376 . S
N165 C169 1.383 . S
C166 N165 1.376 . S
C166 C167 1.446 . S
C166 C196 1.391 1_556 S
C167 C166 1.446 . S
C167 C168 1.339 . S
C167 H202 0.949 . S
C168 C167 1.339 . S
C168 C169 1.439 . S
C168 H203 0.950 . S
C169 N165 1.383 . S
C169 C168 1.439 . S
C169 C198 1.392 . S
N170 Co164 2.008 1_556 S
N170 C171 1.376 . S
N170 C174 1.374 . S
C171 N170 1.376 . S
C171 C172 1.443 . S
C171 C198 1.389 . S
C172 C171 1.443 . S
C172 C173 1.340 . S
C172 H204 0.951 . S
C173 C172 1.340 . S
C173 C174 1.439 . S
C173 H205 0.950 . S
C174 N170 1.374 . S
C174 C173 1.439 . S
C174 C199 1.395 1_556 S
N175 Co164 1.995 . S
N175 C176 1.376 . S
N175 C179 1.383 . S
C176 N175 1.376 . S
C176 C177 1.446 . S
C176 C199 1.391 . S
C177 C176 1.446 . S
C177 C178 1.339 . S
C177 H206 0.949 . S
C178 C177 1.339 . S
C178 C179 1.439 . S
C178 H207 0.950 . S
C179 N175 1.383 . S
C179 C178 1.439 . S
C179 C197 1.392 . S
N180 Co164 2.282 . S
N180 C183 1.332 . S
N180 C185 1.332 . S
C181 C182 1.386 . S
C181 C184 1.388 . S
C182 C181 1.386 . S
C182 C183 1.382 . S
C182 H208 0.950 . S
C183 N180 1.332 . S
C183 C182 1.382 . S
C183 H194 0.952 . S
C184 C181 1.388 . S
C184 C185 1.382 . S
C184 H209 0.950 . S
C185 N180 1.332 . S
C185 C184 1.382 . S
C185 H195 0.948 . S
N186 Co164 2.282 1_556 S
N186 C190 1.332 . S
N186 C191 1.332 . S
C187 C188 1.388 . S
C187 C191 1.382 . S
C187 H210 0.950 . S
C188 C187 1.388 . S
C188 C189 1.386 . S
C189 C188 1.386 . S
C189 C190 1.382 . S
C189 H211 0.950 . S
C190 N186 1.332 . S
C190 C189 1.382 . S
C190 H192 0.952 . S
C191 N186 1.332 . S
C191 C187 1.382 . S
C191 H193 0.948 . S
H192 C190 0.952 . S
H193 C191 0.948 . S
H194 C183 0.952 . S
H195 C185 0.948 . S
C196 C162 1.395 . S
C196 C166 1.391 1_554 S
C197 C159 1.389 . S
C197 C179 1.392 . S
C198 C169 1.392 . S
C198 C171 1.389 . S
C199 C174 1.395 1_554 S
C199 C176 1.391 . S
H200 C160 0.951 . S
H201 C161 0.950 . S
H202 C167 0.949 . S
H203 C168 0.950 . S
H204 C172 0.951 . S
H205 C173 0.950 . S
H206 C177 0.949 . S
H207 C178 0.950 . S
H208 C182 0.950 . S
H209 C184 0.950 . S
H210 C187 0.950 . S
H211 C189 0.950 . S
C212 C213 1.443 . S
C212 N216 1.376 . S
C212 C250 1.389 . S
C213 C212 1.443 . S
C213 C214 1.340 . S
C213 H253 0.951 . S
C214 C213 1.340 . S
C214 C215 1.439 . S
C214 H254 0.950 . S
C215 C214 1.439 . S
C215 N216 1.374 . S
C215 C249 1.395 . S
N216 C212 1.376 . S
N216 C215 1.374 . S
N216 Co217 2.008 . S
Co217 N216 2.008 . S
Co217 N218 1.995 . S
Co217 N223 2.008 . S
Co217 N228 1.995 . S
Co217 N233 2.282 . S
Co217 N239 2.282 . S
N218 Co217 1.995 . S
N218 C219 1.376 . S
N218 C222 1.383 . S
C219 N218 1.376 . S
C219 C220 1.446 . S
C219 C249 1.391 . S
C220 C219 1.446 . S
C220 C221 1.339 1_554 S
C220 H255 0.949 1_554 S
C221 C220 1.339 1_556 S
C221 C222 1.439 1_556 S
C221 H256 0.950 . S
C222 N218 1.383 . S
C222 C221 1.439 1_554 S
C222 C251 1.392 . S
N223 Co217 2.008 . S
N223 C224 1.376 . S
N223 C227 1.374 . S
C224 N223 1.376 . S
C224 C225 1.443 . S
C224 C251 1.389 . S
C225 C224 1.443 . S
C225 C226 1.340 . S
C225 H257 0.951 . S
C226 C225 1.340 . S
C226 C227 1.439 . S
C226 H258 0.950 . S
C227 N223 1.374 . S
C227 C226 1.439 . S
C227 C252 1.395 . S
N228 Co217 1.995 . S
N228 C229 1.376 . S
N228 C232 1.383 . S
C229 N228 1.376 . S
C229 C230 1.446 . S
C229 C252 1.391 . S
C230 C229 1.446 . S
C230 C231 1.339 . S
C230 H259 0.949 . S
C231 C230 1.339 . S
C231 C232 1.439 . S
C231 H260 0.950 . S
C232 N228 1.383 . S
C232 C231 1.439 . S
C232 C250 1.392 . S
N233 Co217 2.282 . S
N233 C236 1.332 . S
N233 C238 1.332 . S
C234 C235 1.386 . S
C234 C237 1.388 . S
C235 C234 1.386 . S
C235 C236 1.382 . S
C235 H261 0.950 . S
C236 N233 1.332 . S
C236 C235 1.382 . S
C236 H247 0.952 . S
C237 C234 1.388 . S
C237 C238 1.382 . S
C237 H262 0.950 . S
C238 N233 1.332 . S
C238 C237 1.382 . S
C238 H248 0.948 . S
N239 Co217 2.282 . S
N239 C243 1.341 . S
N239 C244 1.332 . S
C240 C241 1.388 . S
C240 C244 1.382 1_556 S
C240 H263 0.950 . S
C241 C240 1.388 . S
C241 C242 1.386 . S
C242 C241 1.386 . S
C242 C243 1.370 1_556 S
C242 H264 0.950 . S
C243 N239 1.341 . S
C243 C242 1.370 1_554 S
C243 H245 0.954 . S
C244 N239 1.332 . S
C244 C240 1.382 1_554 S
C244 H246 0.948 . S
H245 C243 0.954 . S
H246 C244 0.948 . S
H247 C236 0.952 . S
H248 C238 0.948 . S
C249 C215 1.395 . S
C249 C219 1.391 . S
C250 C212 1.389 . S
C250 C232 1.392 . S
C251 C222 1.392 . S
C251 C224 1.389 . S
C252 C227 1.395 . S
C252 C229 1.391 . S
H253 C213 0.951 . S
H254 C214 0.950 . S
H255 C220 0.949 1_556 S
H256 C221 0.950 . S
H257 C225 0.951 . S
H258 C226 0.950 . S
H259 C230 0.949 . S
H260 C231 0.950 . S
H261 C235 0.950 . S
H262 C237 0.950 . S
H263 C240 0.950 . S
H264 C242 0.950 . S
C265 C266 1.443 . S
C265 N269 1.376 . S
C265 C303 1.389 . S
C266 C265 1.443 . S
C266 C267 1.340 . S
C266 H306 0.951 . S
C267 C266 1.340 . S
C267 C268 1.439 . S
C267 H307 0.950 . S
C268 C267 1.439 . S
C268 N269 1.374 . S
C268 C302 1.395 . S
N269 C265 1.376 . S
N269 C268 1.374 . S
N269 Co270 2.008 . S
Co270 N269 2.008 . S
Co270 N271 1.995 . S
Co270 N276 2.008 . S
Co270 N281 1.995 . S
Co270 N286 2.282 . S
Co270 N292 2.282 . S
N271 Co270 1.995 . S
N271 C272 1.376 . S
N271 C275 1.383 . S
C272 N271 1.376 . S
C272 C273 1.446 . S
C272 C302 1.391 . S
C273 C272 1.446 . S
C273 C274 1.339 . S
C273 H308 0.949 . S
C274 C273 1.339 . S
C274 C275 1.439 . S
C274 H309 0.950 . S
C275 N271 1.383 . S
C275 C274 1.439 . S
C275 C304 1.392 . S
N276 Co270 2.008 . S
N276 C277 1.376 . S
N276 C280 1.374 . S
C277 N276 1.376 . S
C277 C278 1.443 . S
C277 C304 1.389 . S
C278 C277 1.443 . S
C278 C279 1.340 . S
C278 H310 0.951 . S
C279 C278 1.340 . S
C279 C280 1.439 . S
C279 H311 0.950 . S
C280 N276 1.374 . S
C280 C279 1.439 . S
C280 C305 1.395 . S
N281 Co270 1.995 . S
N281 C282 1.376 . S
N281 C285 1.383 . S
C282 N281 1.376 . S
C282 C283 1.446 . S
C282 C305 1.391 . S
C283 C282 1.446 . S
C283 C284 1.339 . S
C283 H312 0.949 . S
C284 C283 1.339 . S
C284 C285 1.439 . S
C284 H313 0.950 . S
C285 N281 1.383 . S
C285 C284 1.439 . S
C285 C303 1.392 . S
N286 Co270 2.282 . S
N286 C289 1.332 . S
N286 C291 1.332 . S
C287 C288 1.386 . S
C287 C290 1.388 . S
C288 C287 1.386 . S
C288 C289 1.382 . S
C288 H314 0.950 . S
C289 N286 1.332 . S
C289 C288 1.382 . S
C289 H300 0.952 . S
C290 C287 1.388 . S
C290 C291 1.382 . S
C290 H315 0.950 . S
C291 N286 1.332 . S
C291 C290 1.382 . S
C291 H301 0.948 . S
N292 Co270 2.282 . S
N292 C296 1.332 . S
N292 C297 1.332 . S
C293 C294 1.388 . S
C293 C297 1.382 . S
C293 H316 0.950 . S
C294 C293 1.388 . S
C294 C295 1.386 . S
C295 C294 1.386 . S
C295 C296 1.382 . S
C295 H317 0.950 . S
C296 N292 1.332 . S
C296 C295 1.382 . S
C296 H298 0.952 . S
C297 N292 1.332 . S
C297 C293 1.382 . S
C297 H299 0.948 . S
H298 C296 0.952 . S
H299 C297 0.948 . S
H300 C289 0.952 . S
H301 C291 0.948 . S
C302 C268 1.395 . S
C302 C272 1.391 . S
C303 C265 1.389 . S
C303 C285 1.392 . S
C304 C275 1.392 . S
C304 C277 1.389 . S
C305 C280 1.395 . S
C305 C282 1.391 . S
H306 C266 0.951 . S
H307 C267 0.950 . S
H308 C273 0.949 . S
H309 C274 0.950 . S
H310 C278 0.951 . S
H311 C279 0.950 . S
H312 C283 0.949 . S
H313 C284 0.950 . S
H314 C288 0.950 . S
H315 C290 0.950 . S
H316 C293 0.950 . S
H317 C295 0.950 . S
C318 O345 1.312 . S
C318 O346 1.208 . S
C319 O340 1.331 . S
C319 O343 1.244 . S
C320 O342 1.264 . S
C320 O344 1.273 . S
Mg321 O323 1.936 . S
Mg321 O330 2.081 1_455 S
Mg321 O332 2.023 . S
Mg321 O336 2.031 1_455 S
Mg321 O345 2.291 . S
Mg322 O323 1.963 . S
Mg322 O333 1.942 1_455 S
Mg322 O334 1.955 . S
Mg322 O341 1.986 1_455 S
O323 Mg321 1.936 . S
O323 Mg322 1.963 . S
O323 Mg324 1.915 . S
Mg324 O323 1.915 . S
Mg324 O325 1.915 . S
Mg324 O329 2.013 . S
Mg324 O335 2.114 1_455 S
Mg324 O339 2.013 1_455 S
Mg324 O345 2.114 . S
O325 Mg324 1.915 . S
O325 Mg326 1.936 . S
O325 Mg327 1.963 . S
Mg326 O325 1.936 . S
Mg326 O335 2.291 1_455 S
Mg326 O340 2.081 . S
Mg326 O342 2.023 1_455 S
Mg326 O346 2.031 . S
Mg327 O325 1.963 . S
Mg327 O331 1.986 . S
Mg327 O343 1.942 . S
Mg327 O344 1.955 1_455 S
C328 O339 1.191 . S
C328 O341 1.307 . S
O329 Mg324 2.013 . S
O329 C348 1.191 . S
O330 Mg321 2.081 1_655 S
O330 C338 1.331 . S
O331 Mg327 1.986 . S
O331 C348 1.307 . S
O332 Mg321 2.023 . S
O332 C347 1.264 . S
O333 Mg322 1.942 1_655 S
O333 C338 1.244 . S
O334 Mg322 1.955 . S
O334 C347 1.273 . S
O335 Mg324 2.114 1_655 S
O335 Mg326 2.291 1_655 S
O335 C337 1.312 . S
O336 Mg321 2.031 1_655 S
O336 C337 1.208 . S
C337 O335 1.312 . S
C337 O336 1.208 . S
C338 O330 1.331 . S
C338 O333 1.244 . S
O339 Mg324 2.013 1_655 S
O339 C328 1.191 . S
O340 C319 1.331 . S
O340 Mg326 2.081 . S
O341 Mg322 1.986 1_655 S
O341 C328 1.307 . S
O342 C320 1.264 . S
O342 Mg326 2.023 1_655 S
O343 C319 1.244 . S
O343 Mg327 1.942 . S
O344 C320 1.273 . S
O344 Mg327 1.955 1_655 S
O345 C318 1.312 . S
O345 Mg321 2.291 . S
O345 Mg324 2.114 . S
O346 C318 1.208 . S
O346 Mg326 2.031 . S
C347 O332 1.264 . S
C347 O334 1.273 . S
C348 O329 1.191 . S
C348 O331 1.307 . S
C349 O376 1.312 . S
C349 O377 1.208 . S
C350 O371 1.331 . S
C350 O374 1.244 . S
C351 O373 1.264 . S
C351 O375 1.273 . S
Mg352 O354 1.936 1_545 S
Mg352 O361 2.081 1_545 S
Mg352 O363 2.023 . S
Mg352 O367 2.031 1_545 S
Mg352 O376 2.291 . S
Mg353 O354 1.963 . S
Mg353 O364 1.942 . S
Mg353 O365 1.955 1_565 S
Mg353 O372 1.986 . S
O354 Mg352 1.936 1_565 S
O354 Mg353 1.963 . S
O354 Mg355 1.915 1_565 S
Mg355 O354 1.915 1_545 S
Mg355 O356 1.915 . S
Mg355 O360 2.013 . S
Mg355 O366 2.114 1_545 S
Mg355 O370 2.013 1_545 S
Mg355 O376 2.114 . S
O356 Mg355 1.915 . S
O356 Mg357 1.936 . S
O356 Mg358 1.963 . S
Mg357 O356 1.936 . S
Mg357 O366 2.291 1_545 S
Mg357 O371 2.081 . S
Mg357 O373 2.023 1_545 S
Mg357 O377 2.031 . S
Mg358 O356 1.963 . S
Mg358 O362 1.986 . S
Mg358 O374 1.942 . S
Mg358 O375 1.955 1_545 S
C359 O370 1.191 . S
C359 O372 1.307 . S
O360 Mg355 2.013 . S
O360 C379 1.191 . S
O361 Mg352 2.081 1_565 S
O361 C369 1.331 . S
O362 Mg358 1.986 . S
O362 C379 1.307 . S
O363 Mg352 2.023 . S
O363 C378 1.264 . S
O364 Mg353 1.942 . S
O364 C369 1.244 . S
O365 Mg353 1.955 1_545 S
O365 C378 1.273 . S
O366 Mg355 2.114 1_565 S
O366 Mg357 2.291 1_565 S
O366 C368 1.312 . S
O367 Mg352 2.031 1_565 S
O367 C368 1.208 . S
C368 O366 1.312 . S
C368 O367 1.208 . S
C369 O361 1.331 . S
C369 O364 1.244 . S
O370 Mg355 2.013 1_565 S
O370 C359 1.191 . S
O371 C350 1.331 . S
O371 Mg357 2.081 . S
O372 Mg353 1.986 . S
O372 C359 1.307 . S
O373 C351 1.264 . S
O373 Mg357 2.023 1_565 S
O374 C350 1.244 . S
O374 Mg358 1.942 . S
O375 C351 1.273 . S
O375 Mg358 1.955 1_565 S
O376 C349 1.312 . S
O376 Mg352 2.291 . S
O376 Mg355 2.114 . S
O377 C349 1.208 . S
O377 Mg357 2.031 . S
C378 O363 1.264 . S
C378 O365 1.273 . S
C379 O360 1.191 . S
C379 O362 1.307 . S
C380 O407 1.312 . S
C380 O408 1.208 . S
C381 O402 1.331 . S
C381 O405 1.244 . S
C382 O404 1.264 . S
C382 O406 1.273 . S
Mg383 O385 1.936 . S
Mg383 O392 2.081 . S
Mg383 O394 2.023 . S
Mg383 O398 2.031 . S
Mg383 O407 2.291 . S
Mg384 O385 1.963 . S
Mg384 O395 1.942 . S
Mg384 O396 1.955 . S
Mg384 O403 1.986 . S
O385 Mg383 1.936 . S
O385 Mg384 1.963 . S
O385 Mg386 1.915 . S
Mg386 O385 1.915 . S
Mg386 O387 1.915 . S
Mg386 O391 2.013 . S
Mg386 O397 2.114 . S
Mg386 O401 2.013 . S
Mg386 O407 2.114 . S
O387 Mg386 1.915 . S
O387 Mg388 1.936 . S
O387 Mg389 1.963 . S
Mg388 O387 1.936 . S
Mg388 O397 2.291 . S
Mg388 O402 2.081 . S
Mg388 O404 2.023 . S
Mg388 O408 2.031 . S
Mg389 O387 1.963 . S
Mg389 O393 1.986 . S
Mg389 O405 1.942 . S
Mg389 O406 1.955 . S
C390 O401 1.191 . S
C390 O403 1.307 . S
O391 Mg386 2.013 . S
O391 C410 1.191 . S
O392 Mg383 2.081 . S
O392 C400 1.331 . S
O393 Mg389 1.986 . S
O393 C410 1.307 . S
O394 Mg383 2.023 . S
O394 C409 1.264 . S
O395 Mg384 1.942 . S
O395 C400 1.244 . S
O396 Mg384 1.955 . S
O396 C409 1.273 . S
O397 Mg386 2.114 . S
O397 Mg388 2.291 . S
O397 C399 1.312 . S
O398 Mg383 2.031 . S
O398 C399 1.208 . S
C399 O397 1.312 . S
C399 O398 1.208 . S
C400 O392 1.331 . S
C400 O395 1.244 . S
O401 Mg386 2.013 . S
O401 C390 1.191 . S
O402 C381 1.331 . S
O402 Mg388 2.081 . S
O403 Mg384 1.986 . S
O403 C390 1.307 . S
O404 C382 1.264 . S
O404 Mg388 2.023 . S
O405 C381 1.244 . S
O405 Mg389 1.942 . S
O406 C382 1.273 . S
O406 Mg389 1.955 . S
O407 C380 1.312 . S
O407 Mg383 2.291 . S
O407 Mg386 2.114 . S
O408 C380 1.208 . S
O408 Mg388 2.031 . S
C409 O394 1.264 . S
C409 O396 1.273 . S
C410 O391 1.191 . S
C410 O393 1.307 . S
H411 C419 0.929 . S
H412 C421 0.930 . S
H413 C423 0.930 . S
H414 C426 0.929 . S
H415 C429 0.930 . S
H416 C431 0.960 . S
H417 C431 0.960 . S
H418 C431 0.960 . S
C419 H411 0.929 . S
C419 C420 1.377 . S
C419 C421 1.384 . S
C420 C419 1.377 . S
C420 C426 1.390 . S
C421 H412 0.930 . S
C421 C419 1.384 . S
C421 C422 1.372 . S
C422 C421 1.372 . S
C422 C423 1.400 . S
C422 C427 1.490 . S
C423 H413 0.930 . S
C423 C422 1.400 . S
C423 C426 1.386 . S
H424 C440 0.930 . S
H425 C441 0.931 . S
C426 H414 0.929 . S
C426 C420 1.390 . S
C426 C423 1.386 . S
C427 C422 1.490 . S
C427 C429 1.395 . S
C427 C430 1.403 . S
H428 C434 0.930 . S
C429 H415 0.930 . S
C429 C427 1.395 . S
C429 C432 1.403 . S
C430 C427 1.403 . S
C430 C431 1.524 . S
C430 C434 1.400 . S
C431 H416 0.960 . S
C431 H417 0.960 . S
C431 H418 0.960 . S
C431 C430 1.524 . S
C432 C429 1.403 . S
C432 C433 1.392 . S
C432 C436 1.495 . S
C433 C432 1.392 . S
C433 C434 1.385 . S
C433 C435 1.478 . S
C434 H428 0.930 . S
C434 C430 1.400 . S
C434 C433 1.385 . S
C435 C433 1.478 . S
C435 C437 1.381 . S
C435 C441 1.383 . S
C436 C432 1.495 . S
C436 H442 0.959 . S
C436 H443 0.961 . S
C436 H444 0.960 . S
C437 C435 1.381 . S
C437 C438 1.394 . S
C437 H445 0.930 . S
C438 C437 1.394 . S
C438 C439 1.383 . S
C438 H446 0.929 . S
C439 C438 1.383 . S
C439 C440 1.377 . S
C440 H424 0.930 . S
C440 C439 1.377 . S
C440 C441 1.379 . S
C441 H425 0.931 . S
C441 C435 1.383 . S
C441 C440 1.379 . S
H442 C436 0.959 . S
H443 C436 0.961 . S
H444 C436 0.960 . S
H445 C437 0.930 . S
H446 C438 0.929 . S
H447 C455 0.929 . S
H448 C457 0.930 . S
H449 C459 0.930 . S
H450 C462 0.929 . S
H451 C465 0.930 . S
H452 C467 0.960 . S
H453 C467 0.960 . S
H454 C467 0.960 . S
C455 H447 0.929 . S
C455 C456 1.377 . S
C455 C457 1.384 . S
C456 C455 1.377 . S
C456 C462 1.390 . S
C457 H448 0.930 . S
C457 C455 1.384 . S
C457 C458 1.372 . S
C458 C457 1.372 . S
C458 C459 1.400 . S
C458 C463 1.490 . S
C459 H449 0.930 . S
C459 C458 1.400 . S
C459 C462 1.386 . S
H460 C476 0.930 . S
H461 C477 0.931 . S
C462 H450 0.929 . S
C462 C456 1.390 . S
C462 C459 1.386 . S
C463 C458 1.490 . S
C463 C465 1.395 . S
C463 C466 1.403 . S
H464 C470 0.930 . S
C465 H451 0.930 . S
C465 C463 1.395 . S
C465 C468 1.403 . S
C466 C463 1.403 . S
C466 C467 1.524 . S
C466 C470 1.400 . S
C467 H452 0.960 . S
C467 H453 0.960 . S
C467 H454 0.960 . S
C467 C466 1.524 . S
C468 C465 1.403 . S
C468 C469 1.392 . S
C468 C472 1.495 . S
C469 C468 1.392 . S
C469 C470 1.385 . S
C469 C471 1.478 . S
C470 H464 0.930 . S
C470 C466 1.400 . S
C470 C469 1.385 . S
C471 C469 1.478 . S
C471 C473 1.381 . S
C471 C477 1.383 . S
C472 C468 1.495 . S
C472 H478 0.959 . S
C472 H479 0.961 . S
C472 H480 0.960 . S
C473 C471 1.381 . S
C473 C474 1.394 . S
C473 H481 0.930 . S
C474 C473 1.394 . S
C474 C475 1.383 . S
C474 H482 0.929 . S
C475 C474 1.383 . S
C475 C476 1.377 . S
C476 H460 0.930 . S
C476 C475 1.377 . S
C476 C477 1.379 . S
C477 H461 0.931 . S
C477 C471 1.383 . S
C477 C476 1.379 . S
H478 C472 0.959 . S
H479 C472 0.961 . S
H480 C472 0.960 . S
H481 C473 0.930 . S
H482 C474 0.929 . S
H483 C491 0.929 . S
H484 C493 0.930 . S
H485 C495 0.930 . S
H486 C498 0.929 . S
H487 C501 0.930 . S
H488 C503 0.960 . S
H489 C503 0.960 . S
H490 C503 0.960 . S
C491 H483 0.929 . S
C491 C492 1.377 . S
C491 C493 1.384 . S
C492 C491 1.377 . S
C492 C498 1.390 . S
C493 H484 0.930 . S
C493 C491 1.384 . S
C493 C494 1.372 . S
C494 C493 1.372 . S
C494 C495 1.400 . S
C494 C499 1.490 . S
C495 H485 0.930 . S
C495 C494 1.400 . S
C495 C498 1.386 . S
H496 C512 0.930 . S
H497 C513 0.931 . S
C498 H486 0.929 . S
C498 C492 1.390 . S
C498 C495 1.386 . S
C499 C494 1.490 . S
C499 C501 1.395 . S
C499 C502 1.403 . S
H500 C506 0.930 . S
C501 H487 0.930 . S
C501 C499 1.395 . S
C501 C504 1.403 . S
C502 C499 1.403 . S
C502 C503 1.524 . S
C502 C506 1.400 . S
C503 H488 0.960 . S
C503 H489 0.960 . S
C503 H490 0.960 . S
C503 C502 1.524 . S
C504 C501 1.403 . S
C504 C505 1.392 . S
C504 C508 1.495 . S
C505 C504 1.392 . S
C505 C506 1.385 . S
C505 C507 1.478 . S
C506 H500 0.930 . S
C506 C502 1.400 . S
C506 C505 1.385 . S
C507 C505 1.478 . S
C507 C509 1.381 . S
C507 C513 1.383 . S
C508 C504 1.495 . S
C508 H514 0.959 . S
C508 H515 0.961 . S
C508 H516 0.960 . S
C509 C507 1.381 . S
C509 C510 1.394 . S
C509 H517 0.930 . S
C510 C509 1.394 . S
C510 C511 1.383 . S
C510 H518 0.929 . S
C511 C510 1.383 . S
C511 C512 1.377 . S
C512 H496 0.930 . S
C512 C511 1.377 . S
C512 C513 1.379 . S
C513 H497 0.931 . S
C513 C507 1.383 . S
C513 C512 1.379 . S
H514 C508 0.959 . S
H515 C508 0.961 . S
H516 C508 0.960 . S
H517 C509 0.930 . S
H518 C510 0.929 . S
H519 C527 0.929 . S
H520 C529 0.930 . S
H521 C531 0.930 . S
H522 C534 0.929 . S
H523 C537 0.930 . S
H524 C539 0.960 . S
H525 C539 0.960 . S
H526 C539 0.960 . S
C527 H519 0.929 . S
C527 C528 1.377 . S
C527 C529 1.384 . S
C528 C527 1.377 . S
C528 C534 1.390 . S
C529 H520 0.930 . S
C529 C527 1.384 . S
C529 C530 1.372 . S
C530 C529 1.372 . S
C530 C531 1.400 . S
C530 C535 1.490 . S
C531 H521 0.930 . S
C531 C530 1.400 . S
C531 C534 1.386 . S
H532 C548 0.930 . S
H533 C549 0.931 . S
C534 H522 0.929 . S
C534 C528 1.390 . S
C534 C531 1.386 . S
C535 C530 1.490 . S
C535 C537 1.395 . S
C535 C538 1.403 . S
H536 C542 0.930 . S
C537 H523 0.930 . S
C537 C535 1.395 . S
C537 C540 1.403 . S
C538 C535 1.403 . S
C538 C539 1.524 . S
C538 C542 1.400 . S
C539 H524 0.960 . S
C539 H525 0.960 . S
C539 H526 0.960 . S
C539 C538 1.524 . S
C540 C537 1.403 . S
C540 C541 1.392 . S
C540 C544 1.495 . S
C541 C540 1.392 . S
C541 C542 1.385 . S
C541 C543 1.478 . S
C542 H536 0.930 . S
C542 C538 1.400 . S
C542 C541 1.385 . S
C543 C541 1.478 . S
C543 C545 1.381 . S
C543 C549 1.383 . S
C544 C540 1.495 . S
C544 H550 0.959 . S
C544 H551 0.961 . S
C544 H552 0.960 . S
C545 C543 1.381 . S
C545 C546 1.394 . S
C545 H553 0.930 . S
C546 C545 1.394 . S
C546 C547 1.383 . S
C546 H554 0.929 . S
C547 C546 1.383 . S
C547 C548 1.377 . S
C548 H532 0.930 . S
C548 C547 1.377 . S
C548 C549 1.379 . S
C549 H533 0.931 . S
C549 C543 1.383 . S
C549 C548 1.379 . S
H550 C544 0.959 . S
H551 C544 0.961 . S
H552 C544 0.960 . S
H553 C545 0.930 . S
H554 C546 0.929 . S
H555 C563 0.929 . S
H556 C565 0.930 . S
H557 C567 0.930 . S
H558 C570 0.929 . S
H559 C573 0.930 . S
H560 C575 0.960 . S
H561 C575 0.960 . S
H562 C575 0.960 . S
C563 H555 0.929 . S
C563 C564 1.377 . S
C563 C565 1.384 . S
C564 C563 1.377 . S
C564 C570 1.390 . S
C565 H556 0.930 . S
C565 C563 1.384 . S
C565 C566 1.372 . S
C566 C565 1.372 . S
C566 C567 1.400 . S
C566 C571 1.490 . S
C567 H557 0.930 . S
C567 C566 1.400 . S
C567 C570 1.386 . S
H568 C584 0.930 . S
H569 C585 0.931 . S
C570 H558 0.929 . S
C570 C564 1.390 . S
C570 C567 1.386 . S
C571 C566 1.490 . S
C571 C573 1.395 . S
C571 C574 1.403 . S
H572 C578 0.930 . S
C573 H559 0.930 . S
C573 C571 1.395 . S
C573 C576 1.403 . S
C574 C571 1.403 . S
C574 C575 1.524 . S
C574 C578 1.400 . S
C575 H560 0.960 . S
C575 H561 0.960 . S
C575 H562 0.960 . S
C575 C574 1.524 . S
C576 C573 1.403 . S
C576 C577 1.392 . S
C576 C580 1.495 . S
C577 C576 1.392 . S
C577 C578 1.385 . S
C577 C579 1.478 . S
C578 H572 0.930 . S
C578 C574 1.400 . S
C578 C577 1.385 . S
C579 C577 1.478 . S
C579 C581 1.381 . S
C579 C585 1.383 . S
C580 C576 1.495 . S
C580 H586 0.959 . S
C580 H587 0.961 . S
C580 H588 0.960 . S
C581 C579 1.381 . S
C581 C582 1.394 . S
C581 H589 0.930 . S
C582 C581 1.394 . S
C582 C583 1.383 . S
C582 H590 0.929 . S
C583 C582 1.383 . S
C583 C584 1.377 . S
C584 H568 0.930 . S
C584 C583 1.377 . S
C584 C585 1.379 . S
C585 H569 0.931 . S
C585 C579 1.383 . S
C585 C584 1.379 . S
H586 C580 0.959 . S
H587 C580 0.961 . S
H588 C580 0.960 . S
H589 C581 0.930 . S
H590 C582 0.929 . S
H591 C599 0.929 . S
H592 C601 0.930 . S
H593 C603 0.930 . S
H594 C606 0.929 . S
H595 C609 0.930 . S
H596 C611 0.960 . S
H597 C611 0.960 . S
H598 C611 0.960 . S
C599 H591 0.929 . S
C599 C600 1.377 . S
C599 C601 1.384 . S
C600 C599 1.377 . S
C600 C606 1.390 . S
C601 H592 0.930 . S
C601 C599 1.384 . S
C601 C602 1.372 . S
C602 C601 1.372 . S
C602 C603 1.400 . S
C602 C607 1.490 . S
C603 H593 0.930 . S
C603 C602 1.400 . S
C603 C606 1.386 . S
H604 C620 0.930 . S
H605 C621 0.931 . S
C606 H594 0.929 . S
C606 C600 1.390 . S
C606 C603 1.386 . S
C607 C602 1.490 . S
C607 C609 1.395 . S
C607 C610 1.403 . S
H608 C614 0.930 . S
C609 H595 0.930 . S
C609 C607 1.395 . S
C609 C612 1.403 . S
C610 C607 1.403 . S
C610 C611 1.524 . S
C610 C614 1.400 . S
C611 H596 0.960 . S
C611 H597 0.960 . S
C611 H598 0.960 . S
C611 C610 1.524 . S
C612 C609 1.403 . S
C612 C613 1.392 . S
C612 C616 1.495 . S
C613 C612 1.392 . S
C613 C614 1.385 . S
C613 C615 1.478 . S
C614 H608 0.930 . S
C614 C610 1.400 . S
C614 C613 1.385 . S
C615 C613 1.478 . S
C615 C617 1.381 . S
C615 C621 1.383 . S
C616 C612 1.495 . S
C616 H622 0.959 . S
C616 H623 0.961 . S
C616 H624 0.960 . S
C617 C615 1.381 . S
C617 C618 1.394 . S
C617 H625 0.930 . S
C618 C617 1.394 . S
C618 C619 1.383 . S
C618 H626 0.929 . S
C619 C618 1.383 . S
C619 C620 1.377 . S
C620 H604 0.930 . S
C620 C619 1.377 . S
C620 C621 1.379 . S
C621 H605 0.931 . S
C621 C615 1.383 . S
C621 C620 1.379 . S
H622 C616 0.959 . S
H623 C616 0.961 . S
H624 C616 0.960 . S
H625 C617 0.930 . S
H626 C618 0.929 . S
H627 C635 0.929 . S
H628 C637 0.930 . S
H629 C639 0.930 . S
H630 C642 0.929 . S
H631 C645 0.930 . S
H632 C647 0.960 . S
H633 C647 0.960 . S
H634 C647 0.960 . S
C635 H627 0.929 . S
C635 C636 1.377 . S
C635 C637 1.384 . S
C636 C635 1.377 . S
C636 C642 1.390 . S
C637 H628 0.930 . S
C637 C635 1.384 . S
C637 C638 1.372 . S
C638 C637 1.372 . S
C638 C639 1.400 . S
C638 C643 1.490 . S
C639 H629 0.930 . S
C639 C638 1.400 . S
C639 C642 1.386 . S
H640 C656 0.930 . S
H641 C657 0.931 . S
C642 H630 0.929 . S
C642 C636 1.390 . S
C642 C639 1.386 . S
C643 C638 1.490 . S
C643 C645 1.395 . S
C643 C646 1.403 . S
H644 C650 0.930 . S
C645 H631 0.930 . S
C645 C643 1.395 . S
C645 C648 1.403 . S
C646 C643 1.403 . S
C646 C647 1.524 . S
C646 C650 1.400 . S
C647 H632 0.960 . S
C647 H633 0.960 . S
C647 H634 0.960 . S
C647 C646 1.524 . S
C648 C645 1.403 . S
C648 C649 1.392 . S
C648 C652 1.495 . S
C649 C648 1.392 . S
C649 C650 1.385 . S
C649 C651 1.478 . S
C650 H644 0.930 . S
C650 C646 1.400 . S
C650 C649 1.385 . S
C651 C649 1.478 . S
C651 C653 1.381 . S
C651 C657 1.383 . S
C652 C648 1.495 . S
C652 H658 0.959 . S
C652 H659 0.961 . S
C652 H660 0.960 . S
C653 C651 1.381 . S
C653 C654 1.394 . S
C653 H661 0.930 . S
C654 C653 1.394 . S
C654 C655 1.383 . S
C654 H662 0.929 . S
C655 C654 1.383 . S
C655 C656 1.377 . S
C656 H640 0.930 . S
C656 C655 1.377 . S
C656 C657 1.379 . S
C657 H641 0.931 . S
C657 C651 1.383 . S
C657 C656 1.379 . S
H658 C652 0.959 . S
H659 C652 0.961 . S
H660 C652 0.960 . S
H661 C653 0.930 . S
H662 C654 0.929 . S
H663 C671 0.929 . S
H664 C673 0.930 . S
H665 C675 0.930 . S
H666 C678 0.929 . S
H667 C681 0.930 . S
H668 C683 0.960 . S
H669 C683 0.960 . S
H670 C683 0.960 . S
C671 H663 0.929 . S
C671 C672 1.377 . S
C671 C673 1.384 . S
C672 C671 1.377 . S
C672 C678 1.390 . S
C673 H664 0.930 . S
C673 C671 1.384 . S
C673 C674 1.372 . S
C674 C673 1.372 . S
C674 C675 1.400 . S
C674 C679 1.490 . S
C675 H665 0.930 . S
C675 C674 1.400 . S
C675 C678 1.386 . S
H676 C692 0.930 . S
H677 C693 0.931 . S
C678 H666 0.929 . S
C678 C672 1.390 . S
C678 C675 1.386 . S
C679 C674 1.490 . S
C679 C681 1.395 . S
C679 C682 1.403 . S
H680 C686 0.930 . S
C681 H667 0.930 . S
C681 C679 1.395 . S
C681 C684 1.403 . S
C682 C679 1.403 . S
C682 C683 1.524 . S
C682 C686 1.400 . S
C683 H668 0.960 . S
C683 H669 0.960 . S
C683 H670 0.960 . S
C683 C682 1.524 . S
C684 C681 1.403 . S
C684 C685 1.392 . S
C684 C688 1.495 . S
C685 C684 1.392 . S
C685 C686 1.385 . S
C685 C687 1.478 . S
C686 H680 0.930 . S
C686 C682 1.400 . S
C686 C685 1.385 . S
C687 C685 1.478 . S
C687 C689 1.381 . S
C687 C693 1.383 . S
C688 C684 1.495 . S
C688 H694 0.959 . S
C688 H695 0.961 . S
C688 H696 0.960 . S
C689 C687 1.381 . S
C689 C690 1.394 . S
C689 H697 0.930 . S
C690 C689 1.394 . S
C690 C691 1.383 . S
C690 H698 0.929 . S
C691 C690 1.383 . S
C691 C692 1.377 . S
C692 H676 0.930 . S
C692 C691 1.377 . S
C692 C693 1.379 . S
C693 H677 0.931 . S
C693 C687 1.383 . S
C693 C692 1.379 . S
H694 C688 0.959 . S
H695 C688 0.961 . S
H696 C688 0.960 . S
H697 C689 0.930 . S
H698 C690 0.929 . S
H699 C707 0.929 . S
H700 C709 0.930 . S
H701 C711 0.930 . S
H702 C714 0.929 1_554 S
H703 C717 0.930 . S
H704 C719 0.960 . S
H705 C719 0.960 . S
H706 C719 0.960 . S
C707 H699 0.929 . S
C707 C708 1.377 . S
C707 C709 1.384 . S
C708 C707 1.377 . S
C708 C714 1.390 . S
C709 H700 0.930 . S
C709 C707 1.384 . S
C709 C710 1.372 . S
C710 C709 1.372 . S
C710 C711 1.400 . S
C710 C715 1.490 . S
C711 H701 0.930 . S
C711 C710 1.400 . S
C711 C714 1.386 . S
H712 C728 0.930 . S
H713 C729 0.931 . S
C714 H702 0.929 1_556 S
C714 C708 1.390 . S
C714 C711 1.386 . S
C715 C710 1.490 . S
C715 C717 1.395 . S
C715 C718 1.403 . S
H716 C722 0.930 . S
C717 H703 0.930 . S
C717 C715 1.395 . S
C717 C720 1.403 . S
C718 C715 1.403 . S
C718 C719 1.524 . S
C718 C722 1.400 . S
C719 H704 0.960 . S
C719 H705 0.960 . S
C719 H706 0.960 . S
C719 C718 1.524 . S
C720 C717 1.403 . S
C720 C721 1.392 . S
C720 C724 1.495 . S
C721 C720 1.392 . S
C721 C722 1.385 . S
C721 C723 1.478 . S
C722 H716 0.930 . S
C722 C718 1.400 . S
C722 C721 1.385 . S
C723 C721 1.478 . S
C723 C725 1.381 . S
C723 C729 1.383 . S
C724 C720 1.495 . S
C724 H730 0.959 . S
C724 H731 0.961 . S
C724 H732 0.960 . S
C725 C723 1.381 . S
C725 C726 1.394 . S
C725 H733 0.930 . S
C726 C725 1.394 . S
C726 C727 1.383 . S
C726 H734 0.929 . S
C727 C726 1.383 . S
C727 C728 1.377 . S
C728 H712 0.930 . S
C728 C727 1.377 . S
C728 C729 1.379 . S
C729 H713 0.931 . S
C729 C723 1.383 . S
C729 C728 1.379 . S
H730 C724 0.959 . S
H731 C724 0.961 . S
H732 C724 0.960 . S
H733 C725 0.930 . S
H734 C726 0.929 . S
H735 C743 0.929 . S
H736 C745 0.930 . S
H737 C747 0.930 . S
H738 C750 0.929 . S
H739 C753 0.930 . S
H740 C755 0.960 . S
H741 C755 0.960 . S
H742 C755 0.960 . S
C743 H735 0.929 . S
C743 C744 1.377 . S
C743 C745 1.384 . S
C744 C743 1.377 . S
C744 C750 1.390 . S
C745 H736 0.930 . S
C745 C743 1.384 . S
C745 C746 1.372 . S
C746 C745 1.372 . S
C746 C747 1.400 . S
C746 C751 1.490 . S
C747 H737 0.930 . S
C747 C746 1.400 . S
C747 C750 1.386 . S
H748 C764 0.930 . S
H749 C765 0.931 . S
C750 H738 0.929 . S
C750 C744 1.390 . S
C750 C747 1.386 . S
C751 C746 1.490 . S
C751 C753 1.395 . S
C751 C754 1.403 . S
H752 C758 0.930 . S
C753 H739 0.930 . S
C753 C751 1.395 . S
C753 C756 1.403 . S
C754 C751 1.403 . S
C754 C755 1.524 . S
C754 C758 1.400 . S
C755 H740 0.960 . S
C755 H741 0.960 . S
C755 H742 0.960 . S
C755 C754 1.524 . S
C756 C753 1.403 . S
C756 C757 1.392 . S
C756 C760 1.495 . S
C757 C756 1.392 . S
C757 C758 1.385 . S
C757 C759 1.478 . S
C758 H752 0.930 . S
C758 C754 1.400 . S
C758 C757 1.385 . S
C759 C757 1.478 . S
C759 C761 1.381 . S
C759 C765 1.383 . S
C760 C756 1.495 . S
C760 H766 0.959 . S
C760 H767 0.961 . S
C760 H768 0.960 . S
C761 C759 1.381 . S
C761 C762 1.394 . S
C761 H769 0.930 . S
C762 C761 1.394 . S
C762 C763 1.383 . S
C762 H770 0.929 . S
C763 C762 1.383 . S
C763 C764 1.377 . S
C764 H748 0.930 . S
C764 C763 1.377 . S
C764 C765 1.379 . S
C765 H749 0.931 . S
C765 C759 1.383 . S
C765 C764 1.379 . S
H766 C760 0.959 . S
H767 C760 0.961 . S
H768 C760 0.960 . S
H769 C761 0.930 . S
H770 C762 0.929 . S
H771 C779 0.929 . S
H772 C781 0.930 . S
H773 C783 0.930 . S
H774 C786 0.929 . S
H775 C789 0.930 . S
H776 C791 0.960 . S
H777 C791 0.960 . S
H778 C791 0.960 . S
C779 H771 0.929 . S
C779 C780 1.377 . S
C779 C781 1.384 1_554 S
C780 C779 1.377 . S
C780 C786 1.390 . S
C781 H772 0.930 . S
C781 C779 1.384 1_556 S
C781 C782 1.372 . S
C782 C781 1.372 . S
C782 C783 1.400 . S
C782 C787 1.490 . S
C783 H773 0.930 . S
C783 C782 1.400 . S
C783 C786 1.386 1_556 S
H784 C800 0.930 . S
H785 C801 0.931 . S
C786 H774 0.929 . S
C786 C780 1.390 . S
C786 C783 1.386 1_554 S
C787 C782 1.490 . S
C787 C789 1.395 . S
C787 C790 1.403 . S
H788 C794 0.930 . S
C789 H775 0.930 . S
C789 C787 1.395 . S
C789 C792 1.403 . S
C790 C787 1.403 . S
C790 C791 1.524 . S
C790 C794 1.400 . S
C791 H776 0.960 . S
C791 H777 0.960 . S
C791 H778 0.960 . S
C791 C790 1.524 . S
C792 C789 1.403 . S
C792 C793 1.392 . S
C792 C796 1.495 . S
C793 C792 1.392 . S
C793 C794 1.385 . S
C793 C795 1.478 . S
C794 H788 0.930 . S
C794 C790 1.400 . S
C794 C793 1.385 . S
C795 C793 1.478 . S
C795 C797 1.381 . S
C795 C801 1.383 . S
C796 C792 1.495 . S
C796 H802 0.959 . S
C796 H803 0.961 . S
C796 H804 0.960 . S
C797 C795 1.381 . S
C797 C798 1.394 . S
C797 H805 0.930 . S
C798 C797 1.394 . S
C798 C799 1.383 . S
C798 H806 0.929 . S
C799 C798 1.383 . S
C799 C800 1.377 . S
C800 H784 0.930 . S
C800 C799 1.377 . S
C800 C801 1.379 . S
C801 H785 0.931 . S
C801 C795 1.383 . S
C801 C800 1.379 . S
H802 C796 0.959 . S
H803 C796 0.961 . S
H804 C796 0.960 . S
H805 C797 0.930 . S
H806 C798 0.929 . S
H807 C815 0.929 . S
H808 C817 0.930 . S
H809 C819 0.921 1_554 S
H810 C822 0.929 . S
H811 C825 0.930 . S
H812 C827 0.960 . S
H813 C827 0.960 . S
H814 C827 0.960 . S
C815 H807 0.929 . S
C815 C816 1.377 . S
C815 C817 1.384 . S
C816 C815 1.377 . S
C816 C822 1.390 1_556 S
C817 H808 0.930 . S
C817 C815 1.384 . S
C817 C818 1.372 . S
C818 C817 1.372 . S
C818 C819 1.400 . S
C818 C823 1.490 . S
C819 H809 0.921 1_556 S
C819 C818 1.400 . S
C819 C822 1.386 1_556 S
H820 C836 0.930 . S
H821 C837 0.931 . S
C822 H810 0.929 . S
C822 C816 1.390 1_554 S
C822 C819 1.386 1_554 S
C823 C818 1.490 . S
C823 C825 1.395 . S
C823 C826 1.403 . S
H824 C830 0.930 . S
C825 H811 0.930 . S
C825 C823 1.395 . S
C825 C828 1.403 . S
C826 C823 1.403 . S
C826 C827 1.524 . S
C826 C830 1.400 . S
C827 H812 0.960 . S
C827 H813 0.960 . S
C827 H814 0.960 . S
C827 C826 1.524 . S
C828 C825 1.403 . S
C828 C829 1.392 . S
C828 C832 1.495 . S
C829 C828 1.392 . S
C829 C830 1.385 . S
C829 C831 1.478 . S
C830 H824 0.930 . S
C830 C826 1.400 . S
C830 C829 1.385 . S
C831 C829 1.478 . S
C831 C833 1.381 . S
C831 C837 1.383 . S
C832 C828 1.495 . S
C832 H838 0.959 . S
C832 H839 0.961 . S
C832 H840 0.960 . S
C833 C831 1.381 . S
C833 C834 1.394 . S
C833 H841 0.930 . S
C834 C833 1.394 . S
C834 C835 1.383 . S
C834 H842 0.929 . S
C835 C834 1.383 . S
C835 C836 1.377 . S
C836 H820 0.930 . S
C836 C835 1.377 . S
C836 C837 1.379 . S
C837 H821 0.931 . S
C837 C831 1.383 . S
C837 C836 1.379 . S
H838 C832 0.959 . S
H839 C832 0.961 . S
H840 C832 0.960 . S
H841 C833 0.930 . S
H842 C834 0.929 . S
H843 C851 0.929 . S
H844 C853 0.930 . S
H845 C855 0.930 . S
H846 C858 0.929 . S
H847 C861 0.930 . S
H848 C863 0.960 . S
H849 C863 0.960 . S
H850 C863 0.960 . S
C851 H843 0.929 . S
C851 C852 1.377 . S
C851 C853 1.384 . S
C852 C851 1.377 . S
C852 C858 1.390 . S
C853 H844 0.930 . S
C853 C851 1.384 . S
C853 C854 1.372 . S
C854 C853 1.372 . S
C854 C855 1.400 . S
C854 C859 1.490 . S
C855 H845 0.930 . S
C855 C854 1.400 . S
C855 C858 1.386 . S
H856 C872 0.930 . S
H857 C873 0.931 . S
C858 H846 0.929 . S
C858 C852 1.390 . S
C858 C855 1.386 . S
C859 C854 1.490 . S
C859 C861 1.395 . S
C859 C862 1.403 . S
H860 C866 0.930 . S
C861 H847 0.930 . S
C861 C859 1.395 . S
C861 C864 1.403 . S
C862 C859 1.403 . S
C862 C863 1.524 . S
C862 C866 1.400 . S
C863 H848 0.960 . S
C863 H849 0.960 . S
C863 H850 0.960 . S
C863 C862 1.524 . S
C864 C861 1.403 . S
C864 C865 1.392 . S
C864 C868 1.495 . S
C865 C864 1.392 . S
C865 C866 1.385 . S
C865 C867 1.478 . S
C866 H860 0.930 . S
C866 C862 1.400 . S
C866 C865 1.385 . S
C867 C865 1.478 . S
C867 C869 1.381 . S
C867 C873 1.383 . S
C868 C864 1.495 . S
C868 H874 0.959 . S
C868 H875 0.961 . S
C868 H876 0.960 . S
C869 C867 1.381 . S
C869 C870 1.394 . S
C869 H877 0.930 . S
C870 C869 1.394 . S
C870 C871 1.383 . S
C870 H878 0.929 . S
C871 C870 1.383 . S
C871 C872 1.377 . S
C872 H856 0.930 . S
C872 C871 1.377 . S
C872 C873 1.379 . S
C873 H857 0.931 . S
C873 C867 1.383 . S
C873 C872 1.379 . S
H874 C868 0.959 . S
H875 C868 0.961 . S
H876 C868 0.960 . S
H877 C869 0.930 . S
H878 C870 0.929 . S
H879 C887 0.929 . S
H880 C889 0.930 . S
H881 C891 0.930 . S
H882 C894 0.929 . S
H883 C897 0.930 . S
H884 C899 0.960 . S
H885 C899 0.960 . S
H886 C899 0.960 . S
C887 H879 0.929 . S
C887 C888 1.377 . S
C887 C889 1.384 . S
C888 C887 1.377 . S
C888 C894 1.390 . S
C889 H880 0.930 . S
C889 C887 1.384 . S
C889 C890 1.372 . S
C890 C889 1.372 . S
C890 C891 1.400 . S
C890 C895 1.490 . S
C891 H881 0.930 . S
C891 C890 1.400 . S
C891 C894 1.386 . S
H892 C908 0.930 . S
H893 C909 0.931 . S
C894 H882 0.929 . S
C894 C888 1.390 . S
C894 C891 1.386 . S
C895 C890 1.490 . S
C895 C897 1.395 . S
C895 C898 1.403 . S
H896 C902 0.930 . S
C897 H883 0.930 . S
C897 C895 1.395 . S
C897 C900 1.403 . S
C898 C895 1.403 . S
C898 C899 1.524 . S
C898 C902 1.400 . S
C899 H884 0.960 . S
C899 H885 0.960 . S
C899 H886 0.960 . S
C899 C898 1.524 . S
C900 C897 1.403 . S
C900 C901 1.392 . S
C900 C904 1.495 . S
C901 C900 1.392 . S
C901 C902 1.385 . S
C901 C903 1.478 . S
C902 H896 0.930 . S
C902 C898 1.400 . S
C902 C901 1.385 . S
C903 C901 1.478 . S
C903 C905 1.381 . S
C903 C909 1.383 . S
C904 C900 1.495 . S
C904 H910 0.959 . S
C904 H911 0.961 . S
C904 H912 0.960 . S
C905 C903 1.381 . S
C905 C906 1.394 . S
C905 H913 0.930 . S
C906 C905 1.394 . S
C906 C907 1.383 . S
C906 H914 0.929 . S
C907 C906 1.383 . S
C907 C908 1.377 . S
C908 H892 0.930 . S
C908 C907 1.377 . S
C908 C909 1.379 . S
C909 H893 0.931 . S
C909 C903 1.383 . S
C909 C908 1.379 . S
H910 C904 0.959 . S
H911 C904 0.961 . S
H912 C904 0.960 . S
H913 C905 0.930 . S
H914 C906 0.929 . S
H915 C923 0.929 . S
H916 C925 0.930 . S
H917 C927 0.930 1_554 S
H918 C930 0.929 . S
H919 C933 0.930 . S
H920 C935 0.960 . S
H921 C935 0.960 . S
H922 C935 0.960 . S
C923 H915 0.929 . S
C923 C924 1.377 1_556 S
C923 C925 1.384 . S
C924 C923 1.377 1_554 S
C924 C930 1.390 . S
C925 H916 0.930 . S
C925 C923 1.384 . S
C925 C926 1.372 . S
C926 C925 1.372 . S
C926 C927 1.400 . S
C926 C931 1.490 . S
C927 H917 0.930 1_556 S
C927 C926 1.400 . S
C927 C930 1.386 1_556 S
H928 C944 0.930 . S
H929 C945 0.931 . S
C930 H918 0.929 . S
C930 C924 1.390 . S
C930 C927 1.386 1_554 S
C931 C926 1.490 . S
C931 C933 1.395 . S
C931 C934 1.403 . S
H932 C938 0.930 . S
C933 H919 0.930 . S
C933 C931 1.395 . S
C933 C936 1.403 . S
C934 C931 1.403 . S
C934 C935 1.524 . S
C934 C938 1.400 . S
C935 H920 0.960 . S
C935 H921 0.960 . S
C935 H922 0.960 . S
C935 C934 1.524 . S
C936 C933 1.403 . S
C936 C937 1.392 . S
C936 C940 1.495 . S
C937 C936 1.392 . S
C937 C938 1.385 . S
C937 C939 1.478 . S
C938 H932 0.930 . S
C938 C934 1.400 . S
C938 C937 1.385 . S
C939 C937 1.478 . S
C939 C941 1.381 . S
C939 C945 1.383 . S
C940 C936 1.495 . S
C940 H946 0.959 . S
C940 H947 0.961 . S
C940 H948 0.960 . S
C941 C939 1.381 . S
C941 C942 1.394 . S
C941 H949 0.930 . S
C942 C941 1.394 . S
C942 C943 1.383 . S
C942 H950 0.929 . S
C943 C942 1.383 . S
C943 C944 1.377 . S
C944 H928 0.930 . S
C944 C943 1.377 . S
C944 C945 1.379 . S
C945 H929 0.931 . S
C945 C939 1.383 . S
C945 C944 1.379 . S
H946 C940 0.959 . S
H947 C940 0.961 . S
H948 C940 0.960 . S
H949 C941 0.930 . S
H950 C942 0.929 . S
H951 C959 0.929 . S
H952 C961 0.930 . S
H953 C963 0.930 . S
H954 C966 0.929 . S
H955 C969 0.930 1_554 S
H956 C971 0.960 . S
H957 C971 0.960 . S
H958 C971 0.960 . S
C959 H951 0.929 . S
C959 C960 1.377 . S
C959 C961 1.384 . S
C960 C959 1.377 . S
C960 C966 1.390 . S
C961 H952 0.930 . S
C961 C959 1.384 . S
C961 C962 1.370 1_554 S
C962 C961 1.370 1_556 S
C962 C963 1.398 1_556 S
C962 C967 1.493 . S
C963 H953 0.930 . S
C963 C962 1.398 1_554 S
C963 C966 1.386 . S
H964 C980 0.930 . S
H965 C981 0.931 . S
C966 H954 0.929 . S
C966 C960 1.390 . S
C966 C963 1.386 . S
C967 C962 1.493 . S
C967 C969 1.395 . S
C967 C970 1.403 . S
H968 C974 0.930 . S
C969 H955 0.930 1_556 S
C969 C967 1.395 . S
C969 C972 1.403 . S
C970 C967 1.403 . S
C970 C971 1.524 . S
C970 C974 1.400 . S
C971 H956 0.960 . S
C971 H957 0.960 . S
C971 H958 0.960 . S
C971 C970 1.524 . S
C972 C969 1.403 . S
C972 C973 1.392 . S
C972 C976 1.495 . S
C973 C972 1.392 . S
C973 C974 1.385 . S
C973 C975 1.478 . S
C974 H968 0.930 . S
C974 C970 1.400 . S
C974 C973 1.385 . S
C975 C973 1.478 . S
C975 C977 1.381 . S
C975 C981 1.383 . S
C976 C972 1.495 . S
C976 H982 0.949 1_556 S
C976 H983 0.961 . S
C976 H984 0.960 . S
C977 C975 1.381 . S
C977 C978 1.394 . S
C977 H985 0.930 . S
C978 C977 1.394 . S
C978 C979 1.383 . S
C978 H986 0.929 . S
C979 C978 1.383 . S
C979 C980 1.377 . S
C980 H964 0.930 . S
C980 C979 1.377 . S
C980 C981 1.379 . S
C981 H965 0.931 . S
C981 C975 1.383 . S
C981 C980 1.379 . S
H982 C976 0.949 1_554 S
H983 C976 0.961 . S
H984 C976 0.960 . S
H985 C977 0.930 . S
H986 C978 0.929 . S
H987 C995 0.929 . S
H988 C997 0.930 . S
H989 C999 0.930 . S
H990 C1002 0.929 . S
H991 C1005 0.930 . S
H992 C1007 0.960 . S
H993 C1007 0.960 . S
H994 C1007 0.960 . S
C995 H987 0.929 . S
C995 C996 1.377 . S
C995 C997 1.384 . S
C996 C995 1.377 . S
C996 C1002 1.390 . S
C997 H988 0.930 . S
C997 C995 1.384 . S
C997 C998 1.372 . S
C998 C997 1.372 . S
C998 C999 1.400 . S
C998 C1003 1.490 . S
C999 H989 0.930 . S
C999 C998 1.400 . S
C999 C1002 1.386 . S
H1000 C1016 0.930 . S
H1001 C1017 0.931 . S
C1002 H990 0.929 . S
C1002 C996 1.390 . S
C1002 C999 1.386 . S
C1003 C998 1.490 . S
C1003 C1005 1.395 . S
C1003 C1006 1.403 . S
H1004 C1010 0.930 . S
C1005 H991 0.930 . S
C1005 C1003 1.395 . S
C1005 C1008 1.403 . S
C1006 C1003 1.403 . S
C1006 C1007 1.524 . S
C1006 C1010 1.400 . S
C1007 H992 0.960 . S
C1007 H993 0.960 . S
C1007 H994 0.960 . S
C1007 C1006 1.524 . S
C1008 C1005 1.403 . S
C1008 C1009 1.392 . S
C1008 C1012 1.495 . S
C1009 C1008 1.392 . S
C1009 C1010 1.385 . S
C1009 C1011 1.478 . S
C1010 H1004 0.930 . S
C1010 C1006 1.400 . S
C1010 C1009 1.385 . S
C1011 C1009 1.478 . S
C1011 C1013 1.381 . S
C1011 C1017 1.383 . S
C1012 C1008 1.495 . S
C1012 H1018 0.959 . S
C1012 H1019 0.961 . S
C1012 H1020 0.960 . S
C1013 C1011 1.381 . S
C1013 C1014 1.394 . S
C1013 H1021 0.930 . S
C1014 C1013 1.394 . S
C1014 C1015 1.383 . S
C1014 H1022 0.929 . S
C1015 C1014 1.383 . S
C1015 C1016 1.377 . S
C1016 H1000 0.930 . S
C1016 C1015 1.377 . S
C1016 C1017 1.379 . S
C1017 H1001 0.931 . S
C1017 C1011 1.383 . S
C1017 C1016 1.379 . S
H1018 C1012 0.959 . S
H1019 C1012 0.961 . S
H1020 C1012 0.960 . S
H1021 C1013 0.930 . S
H1022 C1014 0.929 . S
H1023 C1031 0.929 . S
H1024 C1033 0.930 . S
H1025 C1035 0.930 . S
H1026 C1038 0.929 . S
H1027 C1041 0.930 . S
H1028 C1043 0.960 . S
H1029 C1043 0.960 . S
H1030 C1043 0.960 . S
C1031 H1023 0.929 . S
C1031 C1032 1.377 . S
C1031 C1033 1.384 . S
C1032 C1031 1.377 . S
C1032 C1038 1.390 . S
C1033 H1024 0.930 . S
C1033 C1031 1.384 . S
C1033 C1034 1.372 . S
C1034 C1033 1.372 . S
C1034 C1035 1.400 . S
C1034 C1039 1.490 . S
C1035 H1025 0.930 . S
C1035 C1034 1.400 . S
C1035 C1038 1.386 . S
H1036 C1052 0.930 . S
H1037 C1053 0.931 . S
C1038 H1026 0.929 . S
C1038 C1032 1.390 . S
C1038 C1035 1.386 . S
C1039 C1034 1.490 . S
C1039 C1041 1.395 . S
C1039 C1042 1.403 . S
H1040 C1046 0.930 . S
C1041 H1027 0.930 . S
C1041 C1039 1.395 . S
C1041 C1044 1.403 . S
C1042 C1039 1.403 . S
C1042 C1043 1.524 . S
C1042 C1046 1.400 . S
C1043 H1028 0.960 . S
C1043 H1029 0.960 . S
C1043 H1030 0.960 . S
C1043 C1042 1.524 . S
C1044 C1041 1.403 . S
C1044 C1045 1.392 . S
C1044 C1048 1.495 . S
C1045 C1044 1.392 . S
C1045 C1046 1.385 . S
C1045 C1047 1.478 . S
C1046 H1040 0.930 . S
C1046 C1042 1.400 . S
C1046 C1045 1.385 . S
C1047 C1045 1.478 . S
C1047 C1049 1.381 . S
C1047 C1053 1.383 . S
C1048 C1044 1.495 . S
C1048 H1054 0.959 . S
C1048 H1055 0.961 . S
C1048 H1056 0.960 . S
C1049 C1047 1.381 . S
C1049 C1050 1.394 . S
C1049 H1057 0.930 . S
C1050 C1049 1.394 . S
C1050 C1051 1.383 . S
C1050 H1058 0.929 . S
C1051 C1050 1.383 . S
C1051 C1052 1.377 . S
C1052 H1036 0.930 . S
C1052 C1051 1.377 . S
C1052 C1053 1.379 . S
C1053 H1037 0.931 . S
C1053 C1047 1.383 . S
C1053 C1052 1.379 . S
H1054 C1048 0.959 . S
H1055 C1048 0.961 . S
H1056 C1048 0.960 . S
H1057 C1049 0.930 . S
H1058 C1050 0.929 . S
H1059 C1067 0.929 . S
H1060 C1069 0.930 . S
H1061 C1071 0.930 . S
H1062 C1074 0.929 . S
H1063 C1077 0.930 . S
H1064 C1079 0.960 . S
H1065 C1079 0.960 . S
H1066 C1079 0.960 . S
C1067 H1059 0.929 . S
C1067 C1068 1.377 . S
C1067 C1069 1.384 . S
C1068 C1067 1.377 . S
C1068 C1074 1.390 . S
C1069 H1060 0.930 . S
C1069 C1067 1.384 . S
C1069 C1070 1.372 . S
C1070 C1069 1.372 . S
C1070 C1071 1.400 . S
C1070 C1075 1.490 . S
C1071 H1061 0.930 . S
C1071 C1070 1.400 . S
C1071 C1074 1.386 . S
H1072 C1088 0.930 . S
H1073 C1089 0.931 . S
C1074 H1062 0.929 . S
C1074 C1068 1.390 . S
C1074 C1071 1.386 . S
C1075 C1070 1.490 . S
C1075 C1077 1.395 . S
C1075 C1078 1.403 . S
H1076 C1082 0.930 . S
C1077 H1063 0.930 . S
C1077 C1075 1.395 . S
C1077 C1080 1.403 . S
C1078 C1075 1.403 . S
C1078 C1079 1.524 . S
C1078 C1082 1.400 . S
C1079 H1064 0.960 . S
C1079 H1065 0.960 . S
C1079 H1066 0.960 . S
C1079 C1078 1.524 . S
C1080 C1077 1.403 . S
C1080 C1081 1.392 . S
C1080 C1084 1.495 . S
C1081 C1080 1.392 . S
C1081 C1082 1.385 . S
C1081 C1083 1.478 . S
C1082 H1076 0.930 . S
C1082 C1078 1.400 . S
C1082 C1081 1.385 . S
C1083 C1081 1.478 . S
C1083 C1085 1.381 . S
C1083 C1089 1.383 . S
C1084 C1080 1.495 . S
C1084 H1090 0.959 . S
C1084 H1091 0.961 . S
C1084 H1092 0.960 . S
C1085 C1083 1.381 . S
C1085 C1086 1.394 . S
C1085 H1093 0.930 . S
C1086 C1085 1.394 . S
C1086 C1087 1.383 . S
C1086 H1094 0.929 . S
C1087 C1086 1.383 . S
C1087 C1088 1.377 . S
C1088 H1072 0.930 . S
C1088 C1087 1.377 . S
C1088 C1089 1.379 . S
C1089 H1073 0.931 . S
C1089 C1083 1.383 . S
C1089 C1088 1.379 . S
H1090 C1084 0.959 . S
H1091 C1084 0.961 . S
H1092 C1084 0.960 . S
H1093 C1085 0.930 . S
H1094 C1086 0.929 . S
H1095 C1103 0.929 . S
H1096 C1105 0.930 . S
H1097 C1107 0.930 . S
H1098 C1110 0.929 . S
H1099 C1113 0.930 . S
H1100 C1115 0.960 . S
H1101 C1115 0.960 . S
H1102 C1115 0.960 . S
C1103 H1095 0.929 . S
C1103 C1104 1.377 . S
C1103 C1105 1.384 . S
C1104 C1103 1.377 . S
C1104 C1110 1.390 . S
C1105 H1096 0.930 . S
C1105 C1103 1.384 . S
C1105 C1106 1.372 . S
C1106 C1105 1.372 . S
C1106 C1107 1.400 . S
C1106 C1111 1.490 . S
C1107 H1097 0.930 . S
C1107 C1106 1.400 . S
C1107 C1110 1.386 . S
H1108 C1124 0.930 . S
H1109 C1125 0.931 . S
C1110 H1098 0.929 . S
C1110 C1104 1.390 . S
C1110 C1107 1.386 . S
C1111 C1106 1.490 . S
C1111 C1113 1.395 . S
C1111 C1114 1.403 . S
H1112 C1118 0.930 . S
C1113 H1099 0.930 . S
C1113 C1111 1.395 . S
C1113 C1116 1.403 . S
C1114 C1111 1.403 . S
C1114 C1115 1.524 . S
C1114 C1118 1.400 . S
C1115 H1100 0.960 . S
C1115 H1101 0.960 . S
C1115 H1102 0.960 . S
C1115 C1114 1.524 . S
C1116 C1113 1.403 . S
C1116 C1117 1.392 . S
C1116 C1120 1.495 . S
C1117 C1116 1.392 . S
C1117 C1118 1.385 . S
C1117 C1119 1.478 . S
C1118 H1112 0.930 . S
C1118 C1114 1.400 . S
C1118 C1117 1.385 . S
C1119 C1117 1.478 . S
C1119 C1121 1.381 . S
C1119 C1125 1.383 . S
C1120 C1116 1.495 . S
C1120 H1126 0.959 . S
C1120 H1127 0.961 . S
C1120 H1128 0.960 . S
C1121 C1119 1.381 . S
C1121 C1122 1.394 . S
C1121 H1129 0.930 . S
C1122 C1121 1.394 . S
C1122 C1123 1.383 . S
C1122 H1130 0.929 . S
C1123 C1122 1.383 . S
C1123 C1124 1.377 . S
C1124 H1108 0.930 . S
C1124 C1123 1.377 . S
C1124 C1125 1.379 . S
C1125 H1109 0.931 . S
C1125 C1119 1.383 . S
C1125 C1124 1.379 . S
H1126 C1120 0.959 . S
H1127 C1120 0.961 . S
H1128 C1120 0.960 . S
H1129 C1121 0.930 . S
H1130 C1122 0.929 . S
H1131 C1139 0.929 . S
H1132 C1141 0.930 . S
H1133 C1143 0.930 . S
H1134 C1146 0.929 . S
H1135 C1149 0.930 . S
H1136 C1151 0.960 . S
H1137 C1151 0.960 . S
H1138 C1151 0.960 . S
C1139 H1131 0.929 . S
C1139 C1140 1.377 . S
C1139 C1141 1.384 . S
C1140 C1139 1.377 . S
C1140 C1146 1.390 . S
C1141 H1132 0.930 . S
C1141 C1139 1.384 . S
C1141 C1142 1.372 . S
C1142 C1141 1.372 . S
C1142 C1143 1.400 . S
C1142 C1147 1.490 . S
C1143 H1133 0.930 . S
C1143 C1142 1.400 . S
C1143 C1146 1.386 . S
H1144 C1160 0.930 . S
H1145 C1161 0.931 . S
C1146 H1134 0.929 . S
C1146 C1140 1.390 . S
C1146 C1143 1.386 . S
C1147 C1142 1.490 . S
C1147 C1149 1.395 . S
C1147 C1150 1.403 . S
H1148 C1154 0.930 . S
C1149 H1135 0.930 . S
C1149 C1147 1.395 . S
C1149 C1152 1.403 . S
C1150 C1147 1.403 . S
C1150 C1151 1.524 . S
C1150 C1154 1.400 . S
C1151 H1136 0.960 . S
C1151 H1137 0.960 . S
C1151 H1138 0.960 . S
C1151 C1150 1.524 . S
C1152 C1149 1.403 . S
C1152 C1153 1.392 . S
C1152 C1156 1.495 . S
C1153 C1152 1.392 . S
C1153 C1154 1.385 . S
C1153 C1155 1.478 . S
C1154 H1148 0.930 . S
C1154 C1150 1.400 . S
C1154 C1153 1.385 . S
C1155 C1153 1.478 . S
C1155 C1157 1.381 . S
C1155 C1161 1.383 . S
C1156 C1152 1.495 . S
C1156 H1162 0.959 . S
C1156 H1163 0.961 . S
C1156 H1164 0.960 . S
C1157 C1155 1.381 . S
C1157 C1158 1.394 . S
C1157 H1165 0.930 . S
C1158 C1157 1.394 . S
C1158 C1159 1.383 . S
C1158 H1166 0.929 . S
C1159 C1158 1.383 . S
C1159 C1160 1.377 . S
C1160 H1144 0.930 . S
C1160 C1159 1.377 . S
C1160 C1161 1.379 . S
C1161 H1145 0.931 . S
C1161 C1155 1.383 . S
C1161 C1160 1.379 . S
H1162 C1156 0.959 . S
H1163 C1156 0.961 . S
H1164 C1156 0.960 . S
H1165 C1157 0.930 . S
H1166 C1158 0.929 . S
H1167 C1175 0.929 . S
H1168 C1177 0.930 . S
H1169 C1179 0.930 . S
H1170 C1182 0.929 . S
H1171 C1185 0.930 . S
H1172 C1187 0.960 . S
H1173 C1187 0.960 . S
H1174 C1187 0.960 . S
C1175 H1167 0.929 . S
C1175 C1176 1.377 . S
C1175 C1177 1.384 . S
C1176 C1175 1.377 . S
C1176 C1182 1.390 . S
C1177 H1168 0.930 . S
C1177 C1175 1.384 . S
C1177 C1178 1.372 . S
C1178 C1177 1.372 . S
C1178 C1179 1.400 . S
C1178 C1183 1.490 . S
C1179 H1169 0.930 . S
C1179 C1178 1.400 . S
C1179 C1182 1.386 . S
H1180 C1196 0.930 . S
H1181 C1197 0.931 . S
C1182 H1170 0.929 . S
C1182 C1176 1.390 . S
C1182 C1179 1.386 . S
C1183 C1178 1.490 . S
C1183 C1185 1.395 . S
C1183 C1186 1.403 . S
H1184 C1190 0.930 . S
C1185 H1171 0.930 . S
C1185 C1183 1.395 . S
C1185 C1188 1.403 . S
C1186 C1183 1.403 . S
C1186 C1187 1.524 . S
C1186 C1190 1.400 . S
C1187 H1172 0.960 . S
C1187 H1173 0.960 . S
C1187 H1174 0.960 . S
C1187 C1186 1.524 . S
C1188 C1185 1.403 . S
C1188 C1189 1.392 . S
C1188 C1192 1.495 . S
C1189 C1188 1.392 . S
C1189 C1190 1.385 . S
C1189 C1191 1.478 . S
C1190 H1184 0.930 . S
C1190 C1186 1.400 . S
C1190 C1189 1.385 . S
C1191 C1189 1.478 . S
C1191 C1193 1.381 . S
C1191 C1197 1.383 . S
C1192 C1188 1.495 . S
C1192 H1198 0.959 . S
C1192 H1199 0.961 . S
C1192 H1200 0.960 . S
C1193 C1191 1.381 . S
C1193 C1194 1.394 . S
C1193 H1201 0.930 . S
C1194 C1193 1.394 . S
C1194 C1195 1.383 . S
C1194 H1202 0.929 . S
C1195 C1194 1.383 . S
C1195 C1196 1.377 . S
C1196 H1180 0.930 . S
C1196 C1195 1.377 . S
C1196 C1197 1.379 . S
C1197 H1181 0.931 . S
C1197 C1191 1.383 . S
C1197 C1196 1.379 . S
H1198 C1192 0.959 . S
H1199 C1192 0.961 . S
H1200 C1192 0.960 . S
H1201 C1193 0.930 . S
H1202 C1194 0.929 . S
H1203 C1211 0.929 . S
H1204 C1213 0.930 . S
H1205 C1215 0.930 . S
H1206 C1218 0.929 . S
H1207 C1221 0.930 . S
H1208 C1223 0.960 . S
H1209 C1223 0.960 . S
H1210 C1223 0.960 . S
C1211 H1203 0.929 . S
C1211 C1212 1.377 . S
C1211 C1213 1.384 . S
C1212 C1211 1.377 . S
C1212 C1218 1.390 . S
C1213 H1204 0.930 . S
C1213 C1211 1.384 . S
C1213 C1214 1.372 . S
C1214 C1213 1.372 . S
C1214 C1215 1.400 . S
C1214 C1219 1.490 . S
C1215 H1205 0.930 . S
C1215 C1214 1.400 . S
C1215 C1218 1.386 . S
H1216 C1232 0.930 . S
H1217 C1233 0.931 . S
C1218 H1206 0.929 . S
C1218 C1212 1.390 . S
C1218 C1215 1.386 . S
C1219 C1214 1.490 . S
C1219 C1221 1.395 . S
C1219 C1222 1.403 . S
H1220 C1226 0.930 . S
C1221 H1207 0.930 . S
C1221 C1219 1.395 . S
C1221 C1224 1.403 . S
C1222 C1219 1.403 . S
C1222 C1223 1.524 . S
C1222 C1226 1.400 . S
C1223 H1208 0.960 . S
C1223 H1209 0.960 . S
C1223 H1210 0.960 . S
C1223 C1222 1.524 . S
C1224 C1221 1.403 . S
C1224 C1225 1.392 . S
C1224 C1228 1.495 . S
C1225 C1224 1.392 . S
C1225 C1226 1.385 . S
C1225 C1227 1.478 . S
C1226 H1220 0.930 . S
C1226 C1222 1.400 . S
C1226 C1225 1.385 . S
C1227 C1225 1.478 . S
C1227 C1229 1.381 . S
C1227 C1233 1.383 . S
C1228 C1224 1.495 . S
C1228 H1234 0.959 . S
C1228 H1235 0.961 . S
C1228 H1236 0.960 . S
C1229 C1227 1.381 . S
C1229 C1230 1.394 . S
C1229 H1237 0.930 . S
C1230 C1229 1.394 . S
C1230 C1231 1.383 . S
C1230 H1238 0.929 . S
C1231 C1230 1.383 . S
C1231 C1232 1.377 . S
C1232 H1216 0.930 . S
C1232 C1231 1.377 . S
C1232 C1233 1.379 . S
C1233 H1217 0.931 . S
C1233 C1227 1.383 . S
C1233 C1232 1.379 . S
H1234 C1228 0.959 . S
H1235 C1228 0.961 . S
H1236 C1228 0.960 . S
H1237 C1229 0.930 . S
H1238 C1230 0.929 . S
H1239 C1247 0.929 . S
H1240 C1249 0.930 . S
H1241 C1251 0.930 . S
H1242 C1254 0.929 . S
H1243 C1257 0.930 . S
H1244 C1259 0.960 . S
H1245 C1259 0.960 . S
H1246 C1259 0.960 . S
C1247 H1239 0.929 . S
C1247 C1248 1.377 . S
C1247 C1249 1.384 . S
C1248 C1247 1.377 . S
C1248 C1254 1.390 . S
C1249 H1240 0.930 . S
C1249 C1247 1.384 . S
C1249 C1250 1.372 . S
C1250 C1249 1.372 . S
C1250 C1251 1.400 . S
C1250 C1255 1.490 . S
C1251 H1241 0.930 . S
C1251 C1250 1.400 . S
C1251 C1254 1.386 . S
H1252 C1268 0.930 . S
H1253 C1269 0.931 . S
C1254 H1242 0.929 . S
C1254 C1248 1.390 . S
C1254 C1251 1.386 . S
C1255 C1250 1.490 . S
C1255 C1257 1.395 . S
C1255 C1258 1.403 . S
H1256 C1262 0.930 . S
C1257 H1243 0.930 . S
C1257 C1255 1.395 . S
C1257 C1260 1.403 . S
C1258 C1255 1.403 . S
C1258 C1259 1.524 . S
C1258 C1262 1.400 . S
C1259 H1244 0.960 . S
C1259 H1245 0.960 . S
C1259 H1246 0.960 . S
C1259 C1258 1.524 . S
C1260 C1257 1.403 . S
C1260 C1261 1.392 . S
C1260 C1264 1.495 . S
C1261 C1260 1.392 . S
C1261 C1262 1.385 . S
C1261 C1263 1.478 . S
C1262 H1256 0.930 . S
C1262 C1258 1.400 . S
C1262 C1261 1.385 . S
C1263 C1261 1.478 . S
C1263 C1265 1.381 . S
C1263 C1269 1.383 . S
C1264 C1260 1.495 . S
C1264 H1270 0.959 . S
C1264 H1271 0.961 . S
C1264 H1272 0.960 . S
C1265 C1263 1.381 . S
C1265 C1266 1.394 . S
C1265 H1273 0.930 . S
C1266 C1265 1.394 . S
C1266 C1267 1.383 . S
C1266 H1274 0.929 . S
C1267 C1266 1.383 . S
C1267 C1268 1.377 . S
C1268 H1252 0.930 . S
C1268 C1267 1.377 . S
C1268 C1269 1.379 . S
C1269 H1253 0.931 . S
C1269 C1263 1.383 . S
C1269 C1268 1.379 . S
H1270 C1264 0.959 . S
H1271 C1264 0.961 . S
H1272 C1264 0.960 . S
H1273 C1265 0.930 . S
H1274 C1266 0.929 . S
C420 C22 1.730 . S
C439 C318 1.621 . S
C456 C92 1.818 . S
C475 C350 1.775 . S
C511 C409 2.123 . S
C492 C144 2.161 . S
C547 C338 1.610 . S
C528 C197 1.635 . S
C564 C250 1.825 . S
C583 C368 1.716 . S
C619 C390 1.195 . S
C600 C287 1.191 . S
C655 C359 1.755 . S
C636 C145 1.796 . S
C672 C198 1.353 . S
C691 C399 1.291 . S
C727 C348 1.741 . S
C708 C251 1.766 1_556 S
C744 C294 1.565 1_556 S
C763 C378 1.523 . S
C780 C29 1.913 . S
C799 C381 1.882 . S
C835 C320 1.887 . S
C816 C91 1.904 1_556 S
C871 C328 1.396 . S
C852 C188 1.460 . S
C907 C369 1.336 . S
C888 C241 1.353 . S
C943 C382 1.941 . S
C924 C304 2.001 . S
C979 C319 1.453 . S
C960 C39 1.500 . S
C1015 C379 1.250 . S
C996 C75 1.307 . S
C1032 C135 1.031 . S
C1051 C380 1.018 . S
C1087 C349 1.517 . S
C1068 C303 1.579 . S
C1123 C410 1.070 . S
C1104 C38 1.098 . S
C1159 C337 1.311 . S
C1140 C82 1.338 . S
C1195 C351 1.396 . S
C1176 C128 1.445 . S
C1212 C181 1.763 . S
C1231 C400 1.704 . S
C1248 C234 1.463 . S
C1267 C347 1.409 . S
