# Generated by pormake.
# Topology nia, (6,6)-cn, num edge types: 1
# Building blocks:
#     Node 0, Type 0, BuildingBlock: PAMTUU_clean_sbu_0, # of connection points: 6
#     Node 1, Type 0, BuildingBlock: PAMTUU_clean_sbu_0, # of connection points: 6
#     Node 2, Type 1, BuildingBlock: MIDCAF_clean_sbu_0, # of connection points: 6
#     Node 3, Type 1, BuildingBlock: MIDCAF_clean_sbu_0, # of connection points: 6
#     Edge 4, Type (0, 1), BuildingBlock: CIFDUS_clean_linker_0, # of connection points: 2
#     Edge 5, Type (0, 1), BuildingBlock: CIFDUS_clean_linker_0, # of connection points: 2
#     Edge 6, Type (0, 1), BuildingBlock: CIFDUS_clean_linker_0, # of connection points: 2
#     Edge 7, Type (0, 1), BuildingBlock: CIFDUS_clean_linker_0, # of connection points: 2
#     Edge 8, Type (0, 1), BuildingBlock: CIFDUS_clean_linker_0, # of connection points: 2
#     Edge 9, Type (0, 1), BuildingBlock: CIFDUS_clean_linker_0, # of connection points: 2
#     Edge 10, Type (0, 1), BuildingBlock: CIFDUS_clean_linker_0, # of connection points: 2
#     Edge 11, Type (0, 1), BuildingBlock: CIFDUS_clean_linker_0, # of connection points: 2
#     Edge 12, Type (0, 1), BuildingBlock: CIFDUS_clean_linker_0, # of connection points: 2
#     Edge 13, Type (0, 1), BuildingBlock: CIFDUS_clean_linker_0, # of connection points: 2
#     Edge 14, Type (0, 1), BuildingBlock: CIFDUS_clean_linker_0, # of connection points: 2
#     Edge 15, Type (0, 1), BuildingBlock: CIFDUS_clean_linker_0, # of connection points: 2
# Relax obj value: 0.318
# Max RMSD: 0.271
# Mean RMSD: 0.246
data_MOF--net-nia--node1-PAMTUU_clean_sbu_0--node2-MIDCAF_clean_sbu_0--edge1-CIFDUS_clean_linker_0
_symmetry_space_group_name_H-M    P1
_symmetry_Int_Tables_number       1
_symmetry_cell_setting            triclinic
loop_
_symmetry_equiv_pos_as_xyz
'x, y, z'
_cell_length_a     22.364383
_cell_length_b     25.712528
_cell_length_c     31.591583
_cell_angle_alpha  67.914801
_cell_angle_beta   103.51976
_cell_angle_gamma 128.23328
loop_
_atom_site_label
_atom_site_type_symbol
_atom_site_fract_x
_atom_site_fract_y
_atom_site_fract_z
_atom_type_partial_charge
Tb0 Tb 0.97129 0.93552 0.9968 0.0
Tb1 Tb 0.07889 0.04788 0.05552 0.0
C2 C 0.1432 0.04726 0.97559 0.0
C3 C 0.90869 0.797 0.9516 0.0
C4 C 0.9367 0.71535 0.93318 0.0
C5 C 0.99005 0.7877 0.9203 0.0
C6 C 0.97663 0.82838 0.92999 0.0
C7 C 0.85663 0.72447 0.9657 0.0
C8 C 0.87076 0.68384 0.95678 0.0
C9 C 0.89257 0.83862 0.96146 0.0
O10 O 0.04116 0.90516 0.04282 0.0
O11 O 0.07604 0.95779 0.09771 0.0
O12 O 0.96969 0.98944 0.08687 0.0
O13 O 0.89589 0.91173 0.04494 0.0
O14 O 0.16741 0.15309 0.04818 0.0
O15 O 0.12594 0.07733 0.11503 0.0
O16 O 0.01606 0.08476 1.00693 0.0
O17 O 0.94075 0.00672 0.96516 0.0
O18 O 0.07582 0.01371 0.95723 0.0
O19 O 0.15203 0.05353 0.01635 0.0
C20 C 0.06855 0.91237 0.08341 0.0
O21 O 0.89038 0.82913 1.00474 0.0
O22 O 0.9297 0.90421 0.93764 0.0
C23 C 0.90411 0.93738 0.0767 0.0
C24 C 0.17431 0.19193 0.10697 0.0
C25 C 0.18598 0.28704 0.13795 0.0
C26 C 0.11402 0.22772 0.13249 0.0
C27 C 0.10818 0.18046 0.11679 0.0
C28 C 0.24573 0.25093 0.11236 0.0
C29 C 0.25158 0.298 0.12772 0.0
C30 C 0.17126 0.14281 0.09217 0.0
C31 C 0.96488 0.06199 0.97512 0.0
H32 H 0.04081 0.81266 0.90167 0.0
H33 H 0.01856 0.88426 0.91976 0.0
H34 H 0.80449 0.69935 0.98297 0.0
H35 H 0.8284 0.62799 0.96626 0.0
H36 H 0.06269 0.21847 0.13982 0.0
H37 H 0.05243 0.13502 0.11253 0.0
H38 H 0.29721 0.26035 0.10503 0.0
H39 H 0.3078 0.34285 0.13211 0.0
Tb40 Tb 0.09387 0.01392 0.50517 0.0
Tb41 Tb 0.98111 0.01339 0.55612 0.0
C42 C 0.07676 0.13765 0.47231 0.0
C43 C 0.21935 -0.00476 0.45644 0.0
C44 C 0.26942 0.92746 0.44 0.0
C45 C 0.25524 0.97094 0.40356 0.0
C46 C 0.23096 0.00464 0.41177 0.0
C47 C 0.2359 0.95419 0.49333 0.0
C48 C 0.26126 0.92076 0.48513 0.0
C49 C 0.18639 0.02682 0.46195 0.0
O50 O 0.13952 0.02042 0.5731 0.0
O51 O 0.09922 0.08133 0.57519 0.0
O52 O 0.98196 0.92459 0.59777 0.0
O53 O 0.01809 0.90507 0.54608 0.0
O54 O 0.97661 0.05851 0.59716 0.0
O55 O 0.87429 0.9671 0.58199 0.0
O56 O 0.90735 0.95843 0.5066 0.0
O57 O 0.9968 0.98923 0.46009 0.0
O58 O 0.12229 0.11876 0.48015 0.0
O59 O 0.0108 0.09732 0.49301 0.0
C60 C 0.14602 0.06386 0.58894 0.0
O61 O 0.11443 -0.00331 0.45228 0.0
O62 O 0.2055 0.04889 0.4972 0.0
C63 C 0.98343 0.883 0.58407 0.0
C64 C 0.85949 0.03862 0.60292 0.0
C65 C 0.79084 0.08488 0.62789 0.0
C66 C 0.75529 0.01349 0.63805 0.0
C67 C 0.78941 0.99065 0.6257 0.0
C68 C 0.8917 0.10988 0.58892 0.0
C69 C 0.85736 0.13282 0.60121 0.0
C70 C 0.90323 0.01353 0.60251 0.0
C71 C 0.92663 0.96038 0.46952 0.0
H72 H 0.25918 0.97656 0.3684 0.0
H73 H 0.21847 0.03629 0.38292 0.0
H74 H 0.22758 0.94671 0.52814 0.0
H75 H 0.27283 0.88856 0.51403 0.0
H76 H 0.70336 0.97537 0.65795 0.0
H77 H 0.76364 0.9355 0.63685 0.0
H78 H 0.94579 0.14802 0.57121 0.0
H79 H 0.88602 0.18815 0.59291 0.0
Zn80 Zn 0.41057 0.76185 0.19327 0.0
Zn81 Zn 0.40329 0.65471 0.35855 0.0
Zn82 Zn 0.40057 0.70194 0.2732 0.0
C83 C 0.55232 0.7502 0.33597 0.0
C84 C 0.31065 0.53624 0.33507 0.0
O85 O 0.3354 0.75095 0.25134 0.0
O86 O 0.34456 0.79104 0.17609 0.0
C87 C 0.55536 0.8158 0.20997 0.0
O88 O 0.51978 0.75891 0.29724 0.0
O89 O 0.51341 0.69944 0.36991 0.0
O90 O 0.33438 0.5547 0.37069 0.0
O91 O 0.33062 0.58272 0.29529 0.0
O92 O 0.51848 0.8337 0.17945 0.0
O93 O 0.52184 0.76818 0.24773 0.0
O94 O 0.34159 0.61278 0.24736 0.0
O95 O 0.37106 0.67982 0.17604 0.0
C96 C 0.34223 0.62032 0.20479 0.0
O97 O 0.35647 0.7409 0.29825 0.0
O98 O 0.36531 0.69821 0.37276 0.0
C99 C 0.31823 0.77994 0.21202 0.0
C100 C 0.35033 0.73508 0.33962 0.0
Zn101 Zn 0.6757 0.28304 0.86358 0.0
Zn102 Zn 0.66465 0.36657 0.64386 0.0
Zn103 Zn 0.67116 0.313 0.7827 0.0
C104 C 0.76133 0.47414 0.69512 0.0
C105 C 0.53111 0.26161 0.72296 0.0
O106 O 0.72706 0.25553 0.81165 0.0
O107 O 0.71273 0.22613 0.88542 0.0
C108 C 0.77696 0.42944 0.82669 0.0
O109 O 0.7413 0.42921 0.73618 0.0
O110 O 0.73702 0.45702 0.65832 0.0
O111 O 0.58236 0.30185 0.69274 0.0
O112 O 0.55096 0.25852 0.7648 0.0
O113 O 0.75423 0.3795 0.8632 0.0
O114 O 0.74916 0.41762 0.78815 0.0
O115 O 0.55182 0.25562 0.80959 0.0
O116 O 0.5737 0.2388 0.88344 0.0
C117 C 0.52742 0.23176 0.85062 0.0
O118 O 0.70293 0.25922 0.76689 0.0
O119 O 0.67606 0.31222 0.70435 0.0
C120 C 0.73698 0.22607 0.85328 0.0
C121 C 0.69526 0.27203 0.72382 0.0
H122 H 0.18417 0.9503 0.14516 0.0
H123 H 0.02066 0.78505 0.08513 0.0
H124 H 0.07564 0.72233 0.12799 0.0
H125 H 0.1785 0.7205 0.17596 0.0
H126 H 0.35199 0.89326 0.22675 0.0
H127 H 0.28398 0.94584 0.19586 0.0
C128 C 0.15971 0.89993 0.14216 0.0
C129 C 0.09817 0.87217 0.1122 0.0
C130 C 0.19305 0.86509 0.16592 0.0
C131 C 0.06812 0.80758 0.10788 0.0
C132 C 0.09943 0.77163 0.13246 0.0
C133 C 0.19945 0.76819 0.18186 0.0
C134 C 0.26771 0.80073 0.20625 0.0
C135 C 0.16278 0.8005 0.1609 0.0
C136 C 0.29682 0.86449 0.21142 0.0
C137 C 0.25893 0.89563 0.19239 0.0
H138 H 0.1981 0.03012 0.67467 0.0
H139 H 0.2541 0.19797 0.54977 0.0
H140 H 0.3768 0.27557 0.58165 0.0
H141 H 0.46963 0.29446 0.64333 0.0
H142 H 0.41486 0.13069 0.7705 0.0
H143 H 0.28923 0.0528 0.74014 0.0
C144 C 0.23744 0.08378 0.65479 0.0
C145 C 0.21822 0.10872 0.60997 0.0
C146 C 0.30733 0.12864 0.67383 0.0
C147 C 0.26849 0.17818 0.58434 0.0
C148 C 0.33834 0.22241 0.60252 0.0
C149 C 0.42978 0.24192 0.66462 0.0
C150 C 0.45124 0.218 0.70886 0.0
C151 C 0.35846 0.1981 0.64702 0.0
C152 C 0.39911 0.1502 0.73635 0.0
C153 C 0.32772 0.1056 0.71884 0.0
H154 H 0.27192 0.42481 0.09908 0.0
H155 H 0.1202 0.26518 0.21224 0.0
H156 H 0.15348 0.35421 0.24387 0.0
H157 H 0.2339 0.47897 0.24116 0.0
H158 H 0.38981 0.63406 0.12833 0.0
H159 H 0.34751 0.54549 0.09527 0.0
C160 C 0.24592 0.40949 0.13062 0.0
C161 C 0.19484 0.33891 0.1537 0.0
C162 C 0.2669 0.46028 0.14901 0.0
C163 C 0.1599 0.31953 0.1939 0.0
C164 C 0.17949 0.37033 0.21217 0.0
C165 C 0.25893 0.49289 0.20972 0.0
C166 C 0.31522 0.56301 0.18755 0.0
C167 C 0.23455 0.44105 0.19056 0.0
C168 C 0.34608 0.5806 0.14615 0.0
C169 C 0.32201 0.53 0.12702 0.0
H170 H 0.77179 0.18871 0.59042 0.0
H171 H 0.7551 0.03634 0.71723 0.0
H172 H 0.7229 0.08003 0.75773 0.0
H173 H 0.70185 0.16254 0.75776 0.0
H174 H 0.72122 0.31742 0.63214 0.0
H175 H 0.7483 0.27101 0.59042 0.0
C176 C 0.76063 0.16497 0.62684 0.0
C177 C 0.76513 0.10897 0.65067 0.0
C178 C 0.74257 0.19073 0.65015 0.0
C179 C 0.75044 0.07855 0.69789 0.0
C180 C 0.73265 0.10384 0.7212 0.0
C181 C 0.71322 0.18683 0.72138 0.0
C182 C 0.71117 0.24415 0.69828 0.0
C183 C 0.72916 0.16018 0.69778 0.0
C184 C 0.72302 0.27346 0.65081 0.0
C185 C 0.73864 0.24702 0.62694 0.0
H186 H 0.8862 0.9321 0.16223 0.0
H187 H 0.764 0.88079 0.03946 0.0
H188 H 0.64713 0.83777 0.07119 0.0
H189 H 0.5796 0.81708 0.13168 0.0
H190 H 0.69349 0.86173 0.2569 0.0
H191 H 0.8135 0.90384 0.22689 0.0
C192 C 0.8338 0.91123 0.14267 0.0
C193 C 0.83392 0.90951 0.0985 0.0
C194 C 0.76551 0.88532 0.16153 0.0
C195 C 0.76558 0.88205 0.07362 0.0
C196 C 0.6986 0.85765 0.09164 0.0
C197 C 0.63078 0.83627 0.1525 0.0
C198 C 0.62829 0.8376 0.19604 0.0
C199 C 0.69807 0.85943 0.13524 0.0
C200 C 0.69424 0.86055 0.22318 0.0
C201 C 0.76273 0.88487 0.20585 0.0
H202 H 0.0149 0.78839 0.60159 0.0
H203 H 0.85178 0.80965 0.62854 0.0
H204 H 0.77155 0.68627 0.6702 0.0
H205 H 0.7411 0.56928 0.69277 0.0
H206 H 0.90822 0.54823 0.67301 0.0
H207 H 0.99292 0.67336 0.63503 0.0
C208 C 0.96208 0.76595 0.6169 0.0
C209 C 0.9391 0.80824 0.61142 0.0
C210 C 0.9168 0.6947 0.64236 0.0
C211 C 0.87092 0.77845 0.63208 0.0
C212 C 0.82475 0.70769 0.65596 0.0
C213 C 0.79756 0.59267 0.68208 0.0
C214 C 0.81955 0.54979 0.68739 0.0
C215 C 0.84645 0.66498 0.66081 0.0
C216 C 0.89134 0.5805 0.67112 0.0
C217 C 0.93933 0.65199 0.64873 0.0
H218 H 0.35388 0.96449 0.37019 0.0
H219 H 0.21921 0.79329 0.4872 0.0
H220 H 0.22973 0.71807 0.46518 0.0
H221 H 0.27154 0.69894 0.41076 0.0
H222 H 0.40508 0.86886 0.29397 0.0
H223 H 0.39571 0.94547 0.31581 0.0
C224 C 0.32612 0.91056 0.39074 0.0
C225 C 0.28513 0.8847 0.43012 0.0
C226 C 0.32961 0.86668 0.37689 0.0
C227 C 0.25193 0.81519 0.45706 0.0
C228 C 0.25684 0.77167 0.44411 0.0
C229 C 0.2974 0.75249 0.38977 0.0
C230 C 0.33573 0.77777 0.34954 0.0
C231 C 0.29423 0.7965 0.40368 0.0
C232 C 0.37103 0.84753 0.32329 0.0
C233 C 0.36748 0.89161 0.33656 0.0
H234 H 0.19112 0.11703 0.88555 0.0
H235 H 0.24633 0.02428 0.01899 0.0
H236 H 0.36556 0.06715 0.9901 0.0
H237 H 0.4589 0.13863 0.93019 0.0
H238 H 0.4133 0.23852 0.79634 0.0
H239 H 0.2853 0.1846 0.82171 0.0
C240 C 0.22911 0.10575 0.9079 0.0
C241 C 0.21055 0.06838 0.95454 0.0
C242 C 0.29938 0.13224 0.89115 0.0
C243 C 0.25999 0.0539 0.98324 0.0
C244 C 0.32813 0.07826 0.96675 0.0
C245 C 0.4211 0.14868 0.90625 0.0
C246 C 0.44625 0.1936 0.86167 0.0
C247 C 0.34923 0.1189 0.92126 0.0
C248 C 0.39557 0.20445 0.83095 0.0
C249 C 0.32257 0.17388 0.84559 0.0
H250 H 0.18268 0.22272 0.40367 0.0
H251 H 0.03161 0.21332 0.47476 0.0
H252 H 0.08286 0.33395 0.43191 0.0
H253 H 0.17958 0.44533 0.38076 0.0
H254 H 0.33204 0.45798 0.3092 0.0
H255 H 0.26956 0.33243 0.34424 0.0
C256 C 0.16047 0.24695 0.40936 0.0
C257 C 0.10378 0.20904 0.44276 0.0
C258 C 0.18986 0.31668 0.38411 0.0
C259 C 0.07506 0.24099 0.44936 0.0
C260 C 0.10441 0.31013 0.42486 0.0
C261 C 0.19728 0.42002 0.37159 0.0
C262 C 0.25956 0.4605 0.34205 0.0
C263 C 0.1627 0.34876 0.39287 0.0
C264 C 0.28317 0.42761 0.33109 0.0
C265 C 0.24823 0.35608 0.35176 0.0
H266 H 0.94243 0.12054 0.88544 0.0
H267 H 0.88737 0.06612 0.02474 0.0
H268 H 0.80675 0.10589 0.9985 0.0
H269 H 0.75414 0.15711 0.93758 0.0
H270 H 0.81777 0.22684 0.79762 0.0
H271 H 0.89184 0.1791 0.82224 0.0
C272 C 0.91303 0.1181 0.90977 0.0
C273 C 0.92117 0.09119 0.95697 0.0
C274 C 0.86798 0.14306 0.89435 0.0
C275 C 0.88283 0.08777 0.98836 0.0
C276 C 0.83637 0.11002 0.97338 0.0
C277 C 0.78381 0.16204 0.91204 0.0
C278 C 0.77888 0.19453 0.86557 0.0
C279 C 0.82886 0.13793 0.92663 0.0
C280 C 0.81856 0.20042 0.83344 0.0
C281 C 0.86179 0.1739 0.84764 0.0
H282 H 0.8225 0.9816 0.41957 0.0
H283 H 0.89864 0.85263 0.45222 0.0
H284 H 0.7939 0.77951 0.4078 0.0
H285 H 0.67246 0.74504 0.36691 0.0
H286 H 0.60127 0.87853 0.32887 0.0
H287 H 0.7127 0.95806 0.36714 0.0
C288 C 0.81613 0.9378 0.41645 0.0
C289 C 0.86662 0.92123 0.43962 0.0
C290 C 0.75712 0.89725 0.38969 0.0
C291 C 0.85946 0.86548 0.43487 0.0
C292 C 0.79983 0.82383 0.40949 0.0
C293 C 0.68319 0.79293 0.36565 0.0
C294 C 0.62968 0.80654 0.34501 0.0
C295 C 0.74736 0.83833 0.38757 0.0
C296 C 0.64295 0.86804 0.3439 0.0
C297 C 0.70594 0.91289 0.36636 0.0
H298 H 0.91455 0.71534 0.84682 0.0
H299 H 0.96339 0.6183 0.98044 0.0
H300 H 0.93563 0.52763 0.95331 0.0
H301 H 0.87379 0.46552 0.89641 0.0
H302 H 0.79469 0.54826 0.77058 0.0
H303 H 0.86194 0.65733 0.78769 0.0
C304 C 0.92167 0.67558 0.86931 0.0
C305 C 0.94141 0.67311 0.91516 0.0
C306 C 0.90023 0.62139 0.85437 0.0
C307 C 0.94894 0.62098 0.94483 0.0
C308 C 0.93251 0.56913 0.92939 0.0
C309 C 0.87268 0.5081 0.87226 0.0
C310 C 0.8307 0.49983 0.83141 0.0
C311 C 0.90441 0.56707 0.88492 0.0
C312 C 0.82972 0.55507 0.80064 0.0
C313 C 0.86641 0.6165 0.8113 0.0
loop_
_geom_bond_atom_site_label_1
_geom_bond_atom_site_label_2
_geom_bond_distance
_geom_bond_site_symmetry_2
_ccdc_geom_bond_type
Tb0 C9 2.764 . S
Tb0 O10 2.325 1_656 S
Tb0 O13 2.303 1_556 S
Tb0 O17 2.322 1_565 S
Tb0 O18 2.349 1_665 S
Tb0 O21 2.415 . S
Tb0 O22 2.399 . S
Tb1 O11 2.322 1_545 S
Tb1 O12 2.349 1_445 S
Tb1 O14 2.415 . S
Tb1 O15 2.399 . S
Tb1 O16 2.325 . S
Tb1 O19 2.303 1_554 S
Tb1 C30 2.764 . S
C2 O18 1.261 . S
C2 O19 1.257 . S
C3 C6 1.358 . S
C3 C7 1.332 . S
C3 C9 1.504 . S
C4 C5 1.373 . S
C4 C8 1.308 . S
C5 C4 1.373 . S
C5 C6 1.429 . S
C5 H32 0.932 . S
C6 C3 1.358 . S
C6 C5 1.429 . S
C6 H33 0.930 . S
C7 C3 1.332 . S
C7 C8 1.394 . S
C7 H34 0.932 1_556 S
C8 C4 1.308 . S
C8 C7 1.394 . S
C8 H35 0.913 1_556 S
C9 Tb0 2.764 . S
C9 C3 1.504 . S
C9 O21 1.239 . S
C9 O22 1.263 . S
O10 Tb0 2.325 1_454 S
O10 C20 1.236 . S
O11 Tb1 2.322 1_565 S
O11 C20 1.257 . S
O12 Tb1 2.349 1_665 S
O12 C23 1.261 . S
O13 Tb0 2.303 1_554 S
O13 C23 1.257 . S
O14 Tb1 2.415 . S
O14 C30 1.239 . S
O15 Tb1 2.399 . S
O15 C30 1.263 . S
O16 Tb1 2.325 . S
O16 C31 1.236 1_454 S
O17 Tb0 2.322 1_545 S
O17 C31 1.257 . S
O18 Tb0 2.349 1_445 S
O18 C2 1.261 . S
O19 Tb1 2.303 1_556 S
O19 C2 1.257 . S
C20 O10 1.236 . S
C20 O11 1.257 . S
O21 Tb0 2.415 . S
O21 C9 1.239 . S
O22 Tb0 2.399 . S
O22 C9 1.263 . S
C23 O12 1.261 . S
C23 O13 1.257 . S
C24 C27 1.358 . S
C24 C28 1.332 . S
C24 C30 1.504 . S
C25 C26 1.373 . S
C25 C29 1.308 . S
C26 C25 1.373 . S
C26 C27 1.429 . S
C26 H36 0.932 . S
C27 C24 1.358 . S
C27 C26 1.429 . S
C27 H37 0.930 . S
C28 C24 1.332 . S
C28 C29 1.394 . S
C28 H38 0.932 . S
C29 C25 1.308 . S
C29 C28 1.394 . S
C29 H39 0.929 . S
C30 Tb1 2.764 . S
C30 O14 1.239 . S
C30 O15 1.263 . S
C30 C24 1.504 . S
C31 O16 1.236 1_656 S
C31 O17 1.257 . S
H32 C5 0.932 . S
H33 C6 0.930 . S
H34 C7 0.932 1_554 S
H35 C8 0.913 1_554 S
H36 C26 0.932 . S
H37 C27 0.930 . S
H38 C28 0.932 . S
H39 C29 0.929 . S
Tb40 C49 2.768 . S
Tb40 O50 2.324 1_565 S
Tb40 O53 2.303 . S
Tb40 O57 2.320 1_455 S
Tb40 O58 2.345 1_565 S
Tb40 O61 2.419 . S
Tb40 O62 2.401 1_565 S
Tb41 O51 2.322 . S
Tb41 O52 2.349 1_445 S
Tb41 O54 2.415 1_455 S
Tb41 O55 2.399 1_455 S
Tb41 O56 2.325 1_445 S
Tb41 O59 2.303 . S
Tb41 C70 2.764 1_455 S
C42 O58 1.261 . S
C42 O59 1.257 . S
C43 C46 1.358 . S
C43 C47 1.332 . S
C43 C49 1.504 . S
C44 C45 1.373 . S
C44 C48 1.308 . S
C45 C44 1.373 . S
C45 C46 1.429 . S
C45 H72 0.932 . S
C46 C43 1.358 . S
C46 C45 1.429 . S
C46 H73 0.930 1_565 S
C47 C43 1.332 . S
C47 C48 1.394 . S
C47 H74 0.932 . S
C48 C44 1.308 . S
C48 C47 1.394 . S
C48 H75 0.929 . S
C49 Tb40 2.768 . S
C49 C43 1.504 . S
C49 O61 1.239 . S
C49 O62 1.263 1_565 S
O50 Tb40 2.324 1_545 S
O50 C60 1.236 . S
O51 Tb41 2.322 . S
O51 C60 1.257 . S
O52 Tb41 2.349 1_665 S
O52 C63 1.261 . S
O53 Tb40 2.303 . S
O53 C63 1.257 1_455 S
O54 Tb41 2.415 1_655 S
O54 C70 1.239 . S
O55 Tb41 2.399 1_655 S
O55 C70 1.263 . S
O56 Tb41 2.325 1_665 S
O56 C71 1.236 . S
O57 Tb40 2.320 1_655 S
O57 C71 1.257 . S
O58 Tb40 2.345 1_545 S
O58 C42 1.261 . S
O59 Tb41 2.303 . S
O59 C42 1.257 . S
C60 O50 1.236 . S
C60 O51 1.257 . S
O61 Tb40 2.419 . S
O61 C49 1.239 . S
O62 Tb40 2.401 1_545 S
O62 C49 1.263 1_545 S
C63 O52 1.261 . S
C63 O53 1.257 1_655 S
C64 C67 1.358 . S
C64 C68 1.332 . S
C64 C70 1.504 . S
C65 C66 1.373 . S
C65 C69 1.308 . S
C66 C65 1.373 . S
C66 C67 1.429 . S
C66 H76 0.932 . S
C67 C64 1.358 . S
C67 C66 1.429 . S
C67 H77 0.930 . S
C68 C64 1.332 . S
C68 C69 1.394 . S
C68 H78 0.932 . S
C69 C65 1.308 . S
C69 C68 1.394 . S
C69 H79 0.929 . S
C70 Tb41 2.764 1_655 S
C70 O54 1.239 . S
C70 O55 1.263 . S
C70 C64 1.504 . S
C71 O56 1.236 . S
C71 O57 1.257 . S
H72 C45 0.932 . S
H73 C46 0.930 1_545 S
H74 C47 0.932 . S
H75 C48 0.929 . S
H76 C66 0.932 . S
H77 C67 0.930 . S
H78 C68 0.932 . S
H79 C69 0.929 . S
Zn80 O86 1.920 . S
Zn80 O92 1.898 . S
Zn80 O95 1.905 . S
Zn81 O89 1.905 . S
Zn81 O90 1.898 . S
Zn81 O98 1.920 . S
Zn82 O85 2.080 . S
Zn82 O88 2.114 . S
Zn82 O91 2.120 . S
Zn82 O93 2.120 . S
Zn82 O94 2.114 . S
Zn82 O97 2.080 . S
C83 O88 1.166 . S
C83 O89 1.182 . S
C84 O90 1.167 . S
C84 O91 1.299 . S
O85 Zn82 2.080 . S
O85 C99 1.305 . S
O86 Zn80 1.920 . S
O86 C99 1.234 . S
C87 O92 1.167 . S
C87 O93 1.299 . S
O88 Zn82 2.114 . S
O88 C83 1.166 . S
O89 Zn81 1.905 . S
O89 C83 1.182 . S
O90 Zn81 1.898 . S
O90 C84 1.167 . S
O91 Zn82 2.120 . S
O91 C84 1.299 . S
O92 Zn80 1.898 . S
O92 C87 1.167 . S
O93 Zn82 2.120 . S
O93 C87 1.299 . S
O94 Zn82 2.114 . S
O94 C96 1.166 . S
O95 Zn80 1.905 . S
O95 C96 1.182 . S
C96 O94 1.166 . S
C96 O95 1.182 . S
O97 Zn82 2.080 . S
O97 C100 1.305 . S
O98 Zn81 1.920 . S
O98 C100 1.234 . S
C99 O85 1.305 . S
C99 O86 1.234 . S
C100 O97 1.305 . S
C100 O98 1.234 . S
Zn101 O107 1.920 . S
Zn101 O113 1.898 . S
Zn101 O116 1.905 . S
Zn102 O110 1.905 . S
Zn102 O111 1.898 . S
Zn102 O119 1.920 . S
Zn103 O106 2.080 . S
Zn103 O109 2.114 . S
Zn103 O112 2.120 . S
Zn103 O114 2.120 . S
Zn103 O115 2.114 . S
Zn103 O118 2.080 . S
C104 O109 1.166 . S
C104 O110 1.182 . S
C105 O111 1.167 . S
C105 O112 1.299 . S
O106 Zn103 2.080 . S
O106 C120 1.305 . S
O107 Zn101 1.920 . S
O107 C120 1.234 . S
C108 O113 1.167 . S
C108 O114 1.299 . S
O109 Zn103 2.114 . S
O109 C104 1.166 . S
O110 Zn102 1.905 . S
O110 C104 1.182 . S
O111 Zn102 1.898 . S
O111 C105 1.167 . S
O112 Zn103 2.120 . S
O112 C105 1.299 . S
O113 Zn101 1.898 . S
O113 C108 1.167 . S
O114 Zn103 2.120 . S
O114 C108 1.299 . S
O115 Zn103 2.114 . S
O115 C117 1.166 . S
O116 Zn101 1.905 . S
O116 C117 1.182 . S
C117 O115 1.166 . S
C117 O116 1.182 . S
O118 Zn103 2.080 . S
O118 C121 1.305 . S
O119 Zn102 1.920 . S
O119 C121 1.234 . S
C120 O106 1.305 . S
C120 O107 1.234 . S
C121 O118 1.305 . S
C121 O119 1.234 . S
H122 C128 0.930 . S
H123 C131 0.930 . S
H124 C132 0.930 . S
H125 C133 0.930 . S
H126 C136 0.930 . S
H127 C137 0.930 . S
C128 H122 0.930 . S
C128 C129 1.355 . S
C128 C130 1.415 . S
C129 C128 1.355 . S
C129 C131 1.419 . S
C130 C128 1.415 . S
C130 C135 1.425 . S
C130 C137 1.409 . S
C131 H123 0.930 . S
C131 C129 1.419 . S
C131 C132 1.362 . S
C132 H124 0.930 . S
C132 C131 1.362 . S
C132 C135 1.409 . S
C133 H125 0.930 . S
C133 C134 1.355 . S
C133 C135 1.415 . S
C134 C133 1.355 . S
C134 C136 1.419 . S
C135 C130 1.425 . S
C135 C132 1.409 . S
C135 C133 1.415 . S
C136 H126 0.930 . S
C136 C134 1.419 . S
C136 C137 1.362 . S
C137 H127 0.930 . S
C137 C130 1.409 . S
C137 C136 1.362 . S
H138 C144 0.930 . S
H139 C147 0.930 . S
H140 C148 0.930 . S
H141 C149 0.930 . S
H142 C152 0.930 . S
H143 C153 0.930 . S
C144 H138 0.930 . S
C144 C145 1.355 . S
C144 C146 1.415 . S
C145 C144 1.355 . S
C145 C147 1.419 . S
C146 C144 1.415 . S
C146 C151 1.425 . S
C146 C153 1.409 . S
C147 H139 0.930 . S
C147 C145 1.419 . S
C147 C148 1.362 . S
C148 H140 0.930 . S
C148 C147 1.362 . S
C148 C151 1.409 . S
C149 H141 0.930 . S
C149 C150 1.355 . S
C149 C151 1.415 . S
C150 C149 1.355 . S
C150 C152 1.419 . S
C151 C146 1.425 . S
C151 C148 1.409 . S
C151 C149 1.415 . S
C152 H142 0.930 . S
C152 C150 1.419 . S
C152 C153 1.362 . S
C153 H143 0.930 . S
C153 C146 1.409 . S
C153 C152 1.362 . S
H154 C160 0.930 . S
H155 C163 0.930 . S
H156 C164 0.930 . S
H157 C165 0.930 . S
H158 C168 0.930 . S
H159 C169 0.930 . S
C160 H154 0.930 . S
C160 C161 1.355 . S
C160 C162 1.415 . S
C161 C160 1.355 . S
C161 C163 1.419 . S
C162 C160 1.415 . S
C162 C167 1.425 . S
C162 C169 1.409 . S
C163 H155 0.930 . S
C163 C161 1.419 . S
C163 C164 1.362 . S
C164 H156 0.930 . S
C164 C163 1.362 . S
C164 C167 1.409 . S
C165 H157 0.930 . S
C165 C166 1.355 . S
C165 C167 1.415 . S
C166 C165 1.355 . S
C166 C168 1.419 . S
C167 C162 1.425 . S
C167 C164 1.409 . S
C167 C165 1.415 . S
C168 H158 0.930 . S
C168 C166 1.419 . S
C168 C169 1.362 . S
C169 H159 0.930 . S
C169 C162 1.409 . S
C169 C168 1.362 . S
H170 C176 0.930 . S
H171 C179 0.930 . S
H172 C180 0.930 . S
H173 C181 0.930 . S
H174 C184 0.930 . S
H175 C185 0.930 . S
C176 H170 0.930 . S
C176 C177 1.355 . S
C176 C178 1.415 . S
C177 C176 1.355 . S
C177 C179 1.419 . S
C178 C176 1.415 . S
C178 C183 1.425 . S
C178 C185 1.409 . S
C179 H171 0.930 . S
C179 C177 1.419 . S
C179 C180 1.362 . S
C180 H172 0.930 . S
C180 C179 1.362 . S
C180 C183 1.409 . S
C181 H173 0.930 . S
C181 C182 1.355 . S
C181 C183 1.415 . S
C182 C181 1.355 . S
C182 C184 1.419 . S
C183 C178 1.425 . S
C183 C180 1.409 . S
C183 C181 1.415 . S
C184 H174 0.930 . S
C184 C182 1.419 . S
C184 C185 1.362 . S
C185 H175 0.930 . S
C185 C178 1.409 . S
C185 C184 1.362 . S
H186 C192 0.930 . S
H187 C195 0.930 . S
H188 C196 0.930 . S
H189 C197 0.930 . S
H190 C200 0.930 . S
H191 C201 0.930 . S
C192 H186 0.930 . S
C192 C193 1.355 . S
C192 C194 1.415 . S
C193 C192 1.355 . S
C193 C195 1.419 . S
C194 C192 1.415 . S
C194 C199 1.425 . S
C194 C201 1.409 . S
C195 H187 0.930 . S
C195 C193 1.419 . S
C195 C196 1.362 . S
C196 H188 0.930 . S
C196 C195 1.362 . S
C196 C199 1.409 . S
C197 H189 0.930 . S
C197 C198 1.355 . S
C197 C199 1.415 . S
C198 C197 1.355 . S
C198 C200 1.419 . S
C199 C194 1.425 . S
C199 C196 1.409 . S
C199 C197 1.415 . S
C200 H190 0.930 . S
C200 C198 1.419 . S
C200 C201 1.362 . S
C201 H191 0.930 . S
C201 C194 1.409 . S
C201 C200 1.362 . S
H202 C208 0.930 . S
H203 C211 0.930 . S
H204 C212 0.930 . S
H205 C213 0.930 . S
H206 C216 0.930 . S
H207 C217 0.930 . S
C208 H202 0.930 . S
C208 C209 1.355 . S
C208 C210 1.415 . S
C209 C208 1.355 . S
C209 C211 1.419 . S
C210 C208 1.415 . S
C210 C215 1.425 . S
C210 C217 1.409 . S
C211 H203 0.930 . S
C211 C209 1.419 . S
C211 C212 1.362 . S
C212 H204 0.930 . S
C212 C211 1.362 . S
C212 C215 1.409 . S
C213 H205 0.930 . S
C213 C214 1.355 . S
C213 C215 1.415 . S
C214 C213 1.355 . S
C214 C216 1.419 . S
C215 C210 1.425 . S
C215 C212 1.409 . S
C215 C213 1.415 . S
C216 H206 0.930 . S
C216 C214 1.419 . S
C216 C217 1.362 . S
C217 H207 0.930 . S
C217 C210 1.409 . S
C217 C216 1.362 . S
H218 C224 0.930 . S
H219 C227 0.930 . S
H220 C228 0.930 . S
H221 C229 0.930 . S
H222 C232 0.930 . S
H223 C233 0.930 . S
C224 H218 0.930 . S
C224 C225 1.355 . S
C224 C226 1.415 . S
C225 C224 1.355 . S
C225 C227 1.419 . S
C226 C224 1.415 . S
C226 C231 1.425 . S
C226 C233 1.409 . S
C227 H219 0.930 . S
C227 C225 1.419 . S
C227 C228 1.362 . S
C228 H220 0.930 . S
C228 C227 1.362 . S
C228 C231 1.409 . S
C229 H221 0.930 . S
C229 C230 1.355 . S
C229 C231 1.415 . S
C230 C229 1.355 . S
C230 C232 1.419 . S
C231 C226 1.425 . S
C231 C228 1.409 . S
C231 C229 1.415 . S
C232 H222 0.930 . S
C232 C230 1.419 . S
C232 C233 1.362 . S
C233 H223 0.930 . S
C233 C226 1.409 . S
C233 C232 1.362 . S
H234 C240 0.930 . S
H235 C243 0.930 . S
H236 C244 0.930 . S
H237 C245 0.930 . S
H238 C248 0.930 . S
H239 C249 0.930 . S
C240 H234 0.930 . S
C240 C241 1.355 . S
C240 C242 1.415 . S
C241 C240 1.355 . S
C241 C243 1.419 . S
C242 C240 1.415 . S
C242 C247 1.425 . S
C242 C249 1.409 . S
C243 H235 0.930 . S
C243 C241 1.419 . S
C243 C244 1.362 . S
C244 H236 0.930 . S
C244 C243 1.362 . S
C244 C247 1.409 . S
C245 H237 0.930 . S
C245 C246 1.355 . S
C245 C247 1.415 . S
C246 C245 1.355 . S
C246 C248 1.419 . S
C247 C242 1.425 . S
C247 C244 1.409 . S
C247 C245 1.415 . S
C248 H238 0.930 . S
C248 C246 1.419 . S
C248 C249 1.362 . S
C249 H239 0.930 . S
C249 C242 1.409 . S
C249 C248 1.362 . S
H250 C256 0.930 . S
H251 C259 0.930 . S
H252 C260 0.930 . S
H253 C261 0.930 . S
H254 C264 0.930 . S
H255 C265 0.930 . S
C256 H250 0.930 . S
C256 C257 1.355 . S
C256 C258 1.415 . S
C257 C256 1.355 . S
C257 C259 1.419 . S
C258 C256 1.415 . S
C258 C263 1.425 . S
C258 C265 1.409 . S
C259 H251 0.930 . S
C259 C257 1.419 . S
C259 C260 1.362 . S
C260 H252 0.930 . S
C260 C259 1.362 . S
C260 C263 1.409 . S
C261 H253 0.930 . S
C261 C262 1.355 . S
C261 C263 1.415 . S
C262 C261 1.355 . S
C262 C264 1.419 . S
C263 C258 1.425 . S
C263 C260 1.409 . S
C263 C261 1.415 . S
C264 H254 0.930 . S
C264 C262 1.419 . S
C264 C265 1.362 . S
C265 H255 0.930 . S
C265 C258 1.409 . S
C265 C264 1.362 . S
H266 C272 0.930 . S
H267 C275 0.930 . S
H268 C276 0.930 . S
H269 C277 0.930 . S
H270 C280 0.930 . S
H271 C281 0.930 . S
C272 H266 0.930 . S
C272 C273 1.355 . S
C272 C274 1.415 . S
C273 C272 1.355 . S
C273 C275 1.419 . S
C274 C272 1.415 . S
C274 C279 1.425 . S
C274 C281 1.409 . S
C275 H267 0.930 . S
C275 C273 1.419 . S
C275 C276 1.362 . S
C276 H268 0.930 . S
C276 C275 1.362 . S
C276 C279 1.409 . S
C277 H269 0.930 . S
C277 C278 1.355 . S
C277 C279 1.415 . S
C278 C277 1.355 . S
C278 C280 1.419 . S
C279 C274 1.425 . S
C279 C276 1.409 . S
C279 C277 1.415 . S
C280 H270 0.930 . S
C280 C278 1.419 . S
C280 C281 1.362 . S
C281 H271 0.930 . S
C281 C274 1.409 . S
C281 C280 1.362 . S
H282 C288 0.930 . S
H283 C291 0.930 . S
H284 C292 0.930 . S
H285 C293 0.930 . S
H286 C296 0.930 . S
H287 C297 0.930 . S
C288 H282 0.930 . S
C288 C289 1.355 . S
C288 C290 1.415 . S
C289 C288 1.355 . S
C289 C291 1.419 . S
C290 C288 1.415 . S
C290 C295 1.425 . S
C290 C297 1.409 . S
C291 H283 0.930 . S
C291 C289 1.419 . S
C291 C292 1.362 . S
C292 H284 0.930 . S
C292 C291 1.362 . S
C292 C295 1.409 . S
C293 H285 0.930 . S
C293 C294 1.355 . S
C293 C295 1.415 . S
C294 C293 1.355 . S
C294 C296 1.419 . S
C295 C290 1.425 . S
C295 C292 1.409 . S
C295 C293 1.415 . S
C296 H286 0.930 . S
C296 C294 1.419 . S
C296 C297 1.362 . S
C297 H287 0.930 . S
C297 C290 1.409 . S
C297 C296 1.362 . S
H298 C304 0.930 . S
H299 C307 0.930 . S
H300 C308 0.930 . S
H301 C309 0.930 . S
H302 C312 0.930 . S
H303 C313 0.930 . S
C304 H298 0.930 . S
C304 C305 1.355 . S
C304 C306 1.415 . S
C305 C304 1.355 . S
C305 C307 1.419 . S
C306 C304 1.415 . S
C306 C311 1.425 . S
C306 C313 1.409 . S
C307 H299 0.930 . S
C307 C305 1.419 . S
C307 C308 1.362 . S
C308 H300 0.930 . S
C308 C307 1.362 . S
C308 C311 1.409 . S
C309 H301 0.930 . S
C309 C310 1.355 . S
C309 C311 1.415 . S
C310 C309 1.355 . S
C310 C312 1.419 . S
C311 C306 1.425 . S
C311 C308 1.409 . S
C311 C309 1.415 . S
C312 H302 0.930 . S
C312 C310 1.419 . S
C312 C313 1.362 . S
C313 H303 0.930 . S
C313 C306 1.409 . S
C313 C312 1.362 . S
C129 C20 1.985 . S
C134 C99 1.885 . S
C145 C60 1.317 . S
C150 C105 1.269 . S
C161 C25 0.925 . S
C166 C96 0.782 . S
C177 C65 1.334 . S
C182 C121 1.121 . S
C193 C23 2.029 . S
C198 C87 1.954 . S
C214 C104 2.232 . S
C209 C63 2.288 . S
C225 C44 1.185 . S
C230 C100 1.129 . S
C246 C117 1.662 . S
C241 C2 1.674 . S
C262 C84 2.066 . S
C257 C42 2.152 . S
C278 C120 2.145 . S
C273 C31 2.179 . S
C294 C83 1.503 . S
C289 C71 1.621 . S
C310 C108 0.981 . S
C305 C4 1.021 . S
