# Generated by pormake.
# Topology fgl, (4,4)-cn, num edge types: 1
# Building blocks:
#     Node 0, Type 0, BuildingBlock: ESEHIV_clean_sbu_0, # of connection points: 4
#     Node 1, Type 0, BuildingBlock: ESEHIV_clean_sbu_0, # of connection points: 4
#     Node 2, Type 0, BuildingBlock: ESEHIV_clean_sbu_0, # of connection points: 4
#     Node 3, Type 0, BuildingBlock: ESEHIV_clean_sbu_0, # of connection points: 4
#     Node 4, Type 0, BuildingBlock: ESEHIV_clean_sbu_0, # of connection points: 4
#     Node 5, Type 0, BuildingBlock: ESEHIV_clean_sbu_0, # of connection points: 4
#     Node 6, Type 0, BuildingBlock: ESEHIV_clean_sbu_0, # of connection points: 4
#     Node 7, Type 0, BuildingBlock: ESEHIV_clean_sbu_0, # of connection points: 4
#     Node 8, Type 0, BuildingBlock: ESEHIV_clean_sbu_0, # of connection points: 4
#     Node 9, Type 0, BuildingBlock: ESEHIV_clean_sbu_0, # of connection points: 4
#     Node 10, Type 0, BuildingBlock: ESEHIV_clean_sbu_0, # of connection points: 4
#     Node 11, Type 0, BuildingBlock: ESEHIV_clean_sbu_0, # of connection points: 4
#     Node 12, Type 0, BuildingBlock: ESEHIV_clean_sbu_0, # of connection points: 4
#     Node 13, Type 0, BuildingBlock: ESEHIV_clean_sbu_0, # of connection points: 4
#     Node 14, Type 0, BuildingBlock: ESEHIV_clean_sbu_0, # of connection points: 4
#     Node 15, Type 0, BuildingBlock: ESEHIV_clean_sbu_0, # of connection points: 4
#     Node 16, Type 0, BuildingBlock: ESEHIV_clean_sbu_0, # of connection points: 4
#     Node 17, Type 0, BuildingBlock: ESEHIV_clean_sbu_0, # of connection points: 4
#     Node 18, Type 1, BuildingBlock: GALJAG_clean_sbu_0, # of connection points: 4
#     Node 19, Type 1, BuildingBlock: GALJAG_clean_sbu_0, # of connection points: 4
#     Node 20, Type 1, BuildingBlock: GALJAG_clean_sbu_0, # of connection points: 4
#     Node 21, Type 1, BuildingBlock: GALJAG_clean_sbu_0, # of connection points: 4
#     Node 22, Type 1, BuildingBlock: GALJAG_clean_sbu_0, # of connection points: 4
#     Node 23, Type 1, BuildingBlock: GALJAG_clean_sbu_0, # of connection points: 4
#     Node 24, Type 1, BuildingBlock: GALJAG_clean_sbu_0, # of connection points: 4
#     Node 25, Type 1, BuildingBlock: GALJAG_clean_sbu_0, # of connection points: 4
#     Node 26, Type 1, BuildingBlock: GALJAG_clean_sbu_0, # of connection points: 4
#     Node 27, Type 1, BuildingBlock: GALJAG_clean_sbu_0, # of connection points: 4
#     Node 28, Type 1, BuildingBlock: GALJAG_clean_sbu_0, # of connection points: 4
#     Node 29, Type 1, BuildingBlock: GALJAG_clean_sbu_0, # of connection points: 4
#     Node 30, Type 1, BuildingBlock: GALJAG_clean_sbu_0, # of connection points: 4
#     Node 31, Type 1, BuildingBlock: GALJAG_clean_sbu_0, # of connection points: 4
#     Node 32, Type 1, BuildingBlock: GALJAG_clean_sbu_0, # of connection points: 4
#     Node 33, Type 1, BuildingBlock: GALJAG_clean_sbu_0, # of connection points: 4
#     Node 34, Type 1, BuildingBlock: GALJAG_clean_sbu_0, # of connection points: 4
#     Node 35, Type 1, BuildingBlock: GALJAG_clean_sbu_0, # of connection points: 4
#     Edge 36, Type (0, 1), BuildingBlock: TEMPAE_clean_linker_10, # of connection points: 2
#     Edge 37, Type (0, 1), BuildingBlock: TEMPAE_clean_linker_10, # of connection points: 2
#     Edge 38, Type (0, 1), BuildingBlock: TEMPAE_clean_linker_10, # of connection points: 2
#     Edge 39, Type (0, 1), BuildingBlock: TEMPAE_clean_linker_10, # of connection points: 2
#     Edge 40, Type (0, 1), BuildingBlock: TEMPAE_clean_linker_10, # of connection points: 2
#     Edge 41, Type (0, 1), BuildingBlock: TEMPAE_clean_linker_10, # of connection points: 2
#     Edge 42, Type (0, 1), BuildingBlock: TEMPAE_clean_linker_10, # of connection points: 2
#     Edge 43, Type (0, 1), BuildingBlock: TEMPAE_clean_linker_10, # of connection points: 2
#     Edge 44, Type (0, 1), BuildingBlock: TEMPAE_clean_linker_10, # of connection points: 2
#     Edge 45, Type (0, 1), BuildingBlock: TEMPAE_clean_linker_10, # of connection points: 2
#     Edge 46, Type (0, 1), BuildingBlock: TEMPAE_clean_linker_10, # of connection points: 2
#     Edge 47, Type (0, 1), BuildingBlock: TEMPAE_clean_linker_10, # of connection points: 2
#     Edge 48, Type (0, 1), BuildingBlock: TEMPAE_clean_linker_10, # of connection points: 2
#     Edge 49, Type (0, 1), BuildingBlock: TEMPAE_clean_linker_10, # of connection points: 2
#     Edge 50, Type (0, 1), BuildingBlock: TEMPAE_clean_linker_10, # of connection points: 2
#     Edge 51, Type (0, 1), BuildingBlock: TEMPAE_clean_linker_10, # of connection points: 2
#     Edge 52, Type (0, 1), BuildingBlock: TEMPAE_clean_linker_10, # of connection points: 2
#     Edge 53, Type (0, 1), BuildingBlock: TEMPAE_clean_linker_10, # of connection points: 2
#     Edge 54, Type (0, 1), BuildingBlock: TEMPAE_clean_linker_10, # of connection points: 2
#     Edge 55, Type (0, 1), BuildingBlock: TEMPAE_clean_linker_10, # of connection points: 2
#     Edge 56, Type (0, 1), BuildingBlock: TEMPAE_clean_linker_10, # of connection points: 2
#     Edge 57, Type (0, 1), BuildingBlock: TEMPAE_clean_linker_10, # of connection points: 2
#     Edge 58, Type (0, 1), BuildingBlock: TEMPAE_clean_linker_10, # of connection points: 2
#     Edge 59, Type (0, 1), BuildingBlock: TEMPAE_clean_linker_10, # of connection points: 2
#     Edge 60, Type (0, 1), BuildingBlock: TEMPAE_clean_linker_10, # of connection points: 2
#     Edge 61, Type (0, 1), BuildingBlock: TEMPAE_clean_linker_10, # of connection points: 2
#     Edge 62, Type (0, 1), BuildingBlock: TEMPAE_clean_linker_10, # of connection points: 2
#     Edge 63, Type (0, 1), BuildingBlock: TEMPAE_clean_linker_10, # of connection points: 2
#     Edge 64, Type (0, 1), BuildingBlock: TEMPAE_clean_linker_10, # of connection points: 2
#     Edge 65, Type (0, 1), BuildingBlock: TEMPAE_clean_linker_10, # of connection points: 2
#     Edge 66, Type (0, 1), BuildingBlock: TEMPAE_clean_linker_10, # of connection points: 2
#     Edge 67, Type (0, 1), BuildingBlock: TEMPAE_clean_linker_10, # of connection points: 2
#     Edge 68, Type (0, 1), BuildingBlock: TEMPAE_clean_linker_10, # of connection points: 2
#     Edge 69, Type (0, 1), BuildingBlock: TEMPAE_clean_linker_10, # of connection points: 2
#     Edge 70, Type (0, 1), BuildingBlock: TEMPAE_clean_linker_10, # of connection points: 2
#     Edge 71, Type (0, 1), BuildingBlock: TEMPAE_clean_linker_10, # of connection points: 2
#     Edge 72, Type (0, 1), BuildingBlock: TEMPAE_clean_linker_10, # of connection points: 2
#     Edge 73, Type (0, 1), BuildingBlock: TEMPAE_clean_linker_10, # of connection points: 2
#     Edge 74, Type (0, 1), BuildingBlock: TEMPAE_clean_linker_10, # of connection points: 2
#     Edge 75, Type (0, 1), BuildingBlock: TEMPAE_clean_linker_10, # of connection points: 2
#     Edge 76, Type (0, 1), BuildingBlock: TEMPAE_clean_linker_10, # of connection points: 2
#     Edge 77, Type (0, 1), BuildingBlock: TEMPAE_clean_linker_10, # of connection points: 2
#     Edge 78, Type (0, 1), BuildingBlock: TEMPAE_clean_linker_10, # of connection points: 2
#     Edge 79, Type (0, 1), BuildingBlock: TEMPAE_clean_linker_10, # of connection points: 2
#     Edge 80, Type (0, 1), BuildingBlock: TEMPAE_clean_linker_10, # of connection points: 2
#     Edge 81, Type (0, 1), BuildingBlock: TEMPAE_clean_linker_10, # of connection points: 2
#     Edge 82, Type (0, 1), BuildingBlock: TEMPAE_clean_linker_10, # of connection points: 2
#     Edge 83, Type (0, 1), BuildingBlock: TEMPAE_clean_linker_10, # of connection points: 2
#     Edge 84, Type (0, 1), BuildingBlock: TEMPAE_clean_linker_10, # of connection points: 2
#     Edge 85, Type (0, 1), BuildingBlock: TEMPAE_clean_linker_10, # of connection points: 2
#     Edge 86, Type (0, 1), BuildingBlock: TEMPAE_clean_linker_10, # of connection points: 2
#     Edge 87, Type (0, 1), BuildingBlock: TEMPAE_clean_linker_10, # of connection points: 2
#     Edge 88, Type (0, 1), BuildingBlock: TEMPAE_clean_linker_10, # of connection points: 2
#     Edge 89, Type (0, 1), BuildingBlock: TEMPAE_clean_linker_10, # of connection points: 2
#     Edge 90, Type (0, 1), BuildingBlock: TEMPAE_clean_linker_10, # of connection points: 2
#     Edge 91, Type (0, 1), BuildingBlock: TEMPAE_clean_linker_10, # of connection points: 2
#     Edge 92, Type (0, 1), BuildingBlock: TEMPAE_clean_linker_10, # of connection points: 2
#     Edge 93, Type (0, 1), BuildingBlock: TEMPAE_clean_linker_10, # of connection points: 2
#     Edge 94, Type (0, 1), BuildingBlock: TEMPAE_clean_linker_10, # of connection points: 2
#     Edge 95, Type (0, 1), BuildingBlock: TEMPAE_clean_linker_10, # of connection points: 2
#     Edge 96, Type (0, 1), BuildingBlock: TEMPAE_clean_linker_10, # of connection points: 2
#     Edge 97, Type (0, 1), BuildingBlock: TEMPAE_clean_linker_10, # of connection points: 2
#     Edge 98, Type (0, 1), BuildingBlock: TEMPAE_clean_linker_10, # of connection points: 2
#     Edge 99, Type (0, 1), BuildingBlock: TEMPAE_clean_linker_10, # of connection points: 2
#     Edge 100, Type (0, 1), BuildingBlock: TEMPAE_clean_linker_10, # of connection points: 2
#     Edge 101, Type (0, 1), BuildingBlock: TEMPAE_clean_linker_10, # of connection points: 2
#     Edge 102, Type (0, 1), BuildingBlock: TEMPAE_clean_linker_10, # of connection points: 2
#     Edge 103, Type (0, 1), BuildingBlock: TEMPAE_clean_linker_10, # of connection points: 2
#     Edge 104, Type (0, 1), BuildingBlock: TEMPAE_clean_linker_10, # of connection points: 2
#     Edge 105, Type (0, 1), BuildingBlock: TEMPAE_clean_linker_10, # of connection points: 2
#     Edge 106, Type (0, 1), BuildingBlock: TEMPAE_clean_linker_10, # of connection points: 2
#     Edge 107, Type (0, 1), BuildingBlock: TEMPAE_clean_linker_10, # of connection points: 2
# Relax obj value: 0.030
# Max RMSD: 0.114
# Mean RMSD: 0.092
data_MOF--net-fgl--node1-ESEHIV_clean_sbu_0--node2-GALJAG_clean_sbu_0--edge1-TEMPAE_clean_linker_10
_symmetry_space_group_name_H-M    P1
_symmetry_Int_Tables_number       1
_symmetry_cell_setting            triclinic
loop_
_symmetry_equiv_pos_as_xyz
'x, y, z'
_cell_length_a     77.139873
_cell_length_b     77.291414
_cell_length_c     51.477315
_cell_angle_alpha  90.139492
_cell_angle_beta   90.329805
_cell_angle_gamma 119.86227
loop_
_atom_site_label
_atom_site_type_symbol
_atom_site_fract_x
_atom_site_fract_y
_atom_site_fract_z
_atom_type_partial_charge
Cu0 Cu 0.03729 0.53828 0.01567 0.0
N1 N 0.02501 0.53829 0.04729 0.0
N2 N 0.02028 0.55095 0.08421 0.0
C3 C 0.02726 0.55478 0.05961 0.0
C4 C 0.01316 0.53119 0.08734 0.0
C5 C 0.01609 0.52345 0.0646 0.0
O6 O 0.04062 0.56124 0.99646 0.0
C7 C 0.07006 0.54237 0.04589 0.0
O8 O 0.06534 0.55224 0.06251 0.0
H9 H 0.03523 0.56958 0.05135 0.0
H10 H 0.013 0.50833 0.06143 0.0
N11 N 0.02258 0.51543 0.99473 0.0
N12 N 0.01654 0.49323 0.96275 0.0
C13 C 0.03058 0.50929 0.97605 0.0
C14 C 1.00276 0.5027 0.99338 0.0
C15 C 0.99899 0.48907 0.97362 0.0
C16 C 0.02422 0.56087 0.99175 0.0
O17 O 0.00747 0.54518 0.99902 0.0
H18 H 0.0464 0.51687 0.9718 0.0
H19 H 0.99179 0.50348 1.00559 0.0
O20 O 0.06185 0.53821 0.02352 0.0
H21 H 1.00687 0.52302 0.10508 0.0
H22 H 0.98444 0.47703 0.96774 0.0
Cu23 Cu 0.53863 0.55369 0.02475 0.0
N24 N 0.54262 0.56157 0.98813 0.0
N25 N 0.55681 0.57458 0.94996 0.0
C26 C 0.55972 0.56994 0.97435 0.0
C27 C 0.53715 0.56873 0.94847 0.0
C28 C 0.52848 0.56074 0.97199 0.0
O29 O 0.55946 0.58272 0.03537 0.0
C30 C 0.51782 0.50933 0.01833 0.0
O31 O 0.53373 0.51107 0.03025 0.0
H32 H 0.57403 0.57309 0.98222 0.0
H33 H 0.51299 0.55498 0.97713 0.0
N34 N 0.53432 0.5459 0.06149 0.0
N35 N 0.51939 0.53321 0.09936 0.0
C36 C 0.5167 0.53536 0.07384 0.0
C37 C 0.54852 0.55034 0.07973 0.0
C38 C 0.53936 0.54263 0.1031 0.0
C39 C 0.57819 0.58913 0.03801 0.0
O40 O 0.5849 0.57672 0.034 0.0
H41 H 0.50227 0.52959 0.06441 0.0
H42 H 0.56443 0.55854 0.07636 0.0
O43 O 0.51686 0.52509 0.01386 0.0
H44 H 0.52953 0.5701 0.93155 0.0
H45 H 0.54681 0.54357 0.12136 0.0
Cu46 Cu 0.53556 0.06825 0.03873 0.0
N47 N 0.53201 0.08366 0.01377 0.0
N48 N 0.52143 0.08961 0.97624 0.0
C49 C 0.52427 0.07649 0.99014 0.0
C50 C 0.52765 0.10577 0.99173 0.0
C51 C 0.53434 0.10211 0.01491 0.0
O52 O 0.50868 0.04779 0.04939 0.0
C53 C 0.56976 0.07394 0.01676 0.0
O54 O 0.57295 0.09211 0.02071 0.0
H55 H 0.51992 0.06149 0.98377 0.0
H56 H 0.53992 0.11195 0.03158 0.0
N57 N 0.54973 0.08288 0.0681 0.0
N58 N 0.57088 0.0913 0.1017 0.0
C59 C 0.56299 0.07941 0.08073 0.0
C60 C 0.5492 0.09756 0.08162 0.0
C61 C 0.56218 0.1027 0.10255 0.0
C62 C 0.4983 0.05506 0.05857 0.0
O63 O 0.50653 0.07454 0.05992 0.0
H64 H 0.56643 0.06798 0.07496 0.0
H65 H 0.53995 0.10399 0.07691 0.0
O66 O 0.55271 0.05927 0.02274 0.0
H67 H 0.52709 0.1191 0.98682 0.0
H68 H 0.56504 0.11392 0.11717 0.0
Cu69 Cu 0.53595 0.03602 0.52533 0.0
N70 N 0.53677 0.0265 0.49226 0.0
N71 N 0.55 0.02609 0.45401 0.0
C72 C 0.55217 0.03644 0.47604 0.0
C73 C 0.53248 0.00891 0.4564 0.0
C74 C 0.52426 0.00924 0.48004 0.0
O75 O 0.56094 0.04015 0.54251 0.0
C76 C 0.51424 0.05278 0.50656 0.0
O77 O 0.50449 0.03429 0.498 0.0
H78 H 0.56506 0.05076 0.48073 0.0
H79 H 0.51028 0.99767 0.48774 0.0
N80 N 0.51443 0.01751 0.5451 0.0
N81 N 0.49131 0.00708 0.57619 0.0
C82 C 0.5063 0.02294 0.56424 0.0
C83 C 0.50422 0.99742 0.54484 0.0
C84 C 0.48997 0.99093 0.56409 0.0
C85 C 0.56201 0.02411 0.54366 0.0
O86 O 0.54693 0.00768 0.53418 0.0
H87 H 0.51169 0.03834 0.56966 0.0
H88 H 0.50703 0.98807 0.53192 0.0
O89 O 0.53023 0.05817 0.51999 0.0
H90 H 0.52608 0.99701 0.4421 0.0
H91 H 0.47944 0.97556 0.56875 0.0
Cu92 Cu 0.05473 0.55869 0.53025 0.0
N93 N 0.0694 0.55286 0.55503 0.0
N94 N 0.07473 0.53605 0.5869 0.0
C95 C 0.06149 0.53604 0.56948 0.0
C96 C 0.0917 0.55357 0.58314 0.0
C97 C 0.08843 0.56382 0.56346 0.0
O98 O 0.03459 0.53256 0.51733 0.0
C99 C 0.06007 0.59343 0.55022 0.0
O100 O 0.07837 0.59658 0.54821 0.0
H101 H 0.04609 0.52422 0.56774 0.0
H102 H 0.09916 0.57834 0.55611 0.0
N103 N 0.06845 0.57351 0.50064 0.0
N104 N 0.07225 0.59111 0.46429 0.0
C105 C 0.05927 0.57819 0.48176 0.0
C106 C 0.08803 0.58379 0.49491 0.0
C107 C 0.09042 0.59465 0.47253 0.0
C108 C 0.04233 0.52467 0.50314 0.0
O109 O 0.06159 0.53495 0.49848 0.0
H110 H 0.04338 0.57293 0.48166 0.0
H111 H 0.09979 0.58396 0.50664 0.0
O112 O 0.04555 0.57591 0.54556 0.0
H113 H 0.10554 0.55863 0.59382 0.0
H114 H 0.10447 0.60457 0.46326 0.0
Cu115 Cu 0.5469 0.53576 0.52826 0.0
N116 N 0.57106 0.53827 0.51779 0.0
N117 N 0.6027 0.55359 0.50456 0.0
C118 C 0.58652 0.5554 0.50935 0.0
C119 C 0.59722 0.53452 0.51028 0.0
C120 C 0.57759 0.52505 0.51841 0.0
O121 O 0.55426 0.55911 0.55012 0.0
C122 C 0.52892 0.52001 0.48108 0.0
O123 O 0.53858 0.51028 0.48532 0.0
H124 H 0.58606 0.56913 0.50768 0.0
H125 H 0.56883 0.50973 0.52462 0.0
N126 N 0.5324 0.5126 0.54731 0.0
N127 N 0.5055 0.48615 0.56338 0.0
C128 C 0.51239 0.50165 0.54686 0.0
C129 C 0.53859 0.50383 0.5647 0.0
C130 C 0.52197 0.48744 0.57468 0.0
C131 C 0.54689 0.55838 0.57244 0.0
O132 O 0.53104 0.54181 0.57974 0.0
H133 H 0.50309 0.5056 0.53538 0.0
H134 H 0.55402 0.50921 0.5701 0.0
O135 O 0.53073 0.53314 0.4976 0.0
H136 H 0.60669 0.52792 0.5088 0.0
H137 H 0.52204 0.47744 0.58929 0.0
Cu138 Cu 0.68967 0.86763 0.35101 0.0
N139 N 0.67218 0.87503 0.33642 0.0
N140 N 0.66225 0.89583 0.32154 0.0
C141 C 0.67486 0.89359 0.33757 0.0
C142 C 0.65107 0.87795 0.30988 0.0
C143 C 0.65741 0.8652 0.31886 0.0
O144 O 0.70039 0.88421 0.38302 0.0
C145 C 0.71151 0.85491 0.31728 0.0
O146 O 0.71122 0.84399 0.33692 0.0
H147 H 0.68656 0.90553 0.34894 0.0
H148 H 0.65261 0.85038 0.31153 0.0
N149 N 0.67582 0.84138 0.363 0.0
N150 N 0.67285 0.81359 0.38046 0.0
C151 C 0.68388 0.83365 0.37924 0.0
C152 C 0.65866 0.82572 0.35432 0.0
C153 C 0.65682 0.80855 0.36501 0.0
C154 C 0.71332 0.90254 0.3871 0.0
O155 O 0.72446 0.91346 0.36785 0.0
H156 H 0.69865 0.84241 0.38777 0.0
H157 H 0.64881 0.82643 0.33996 0.0
O158 O 0.70604 0.86789 0.32102 0.0
H159 H 0.64017 0.87478 0.2946 0.0
H160 H 0.6452 0.79346 0.36053 0.0
Cu161 Cu 0.21757 0.89429 0.36164 0.0
N162 N 0.2149 0.87045 0.34763 0.0
N163 N 0.19851 0.8396 0.33034 0.0
C164 C 0.19842 0.85213 0.34863 0.0
C165 C 0.21596 0.85027 0.31772 0.0
C166 C 0.22606 0.86919 0.3285 0.0
O167 O 0.19686 0.88692 0.38804 0.0
C168 C 0.21166 0.90416 0.30979 0.0
O169 O 0.19934 0.88495 0.30661 0.0
H170 H 0.18575 0.84848 0.36088 0.0
H171 H 0.23965 0.88169 0.32125 0.0
N172 N 0.24227 0.91014 0.37861 0.0
N173 N 0.26876 0.93767 0.39525 0.0
C174 C 0.25208 0.93028 0.38014 0.0
C175 C 0.25305 0.90446 0.39319 0.0
C176 C 0.26934 0.92132 0.40341 0.0
C177 C 0.17809 0.87598 0.38434 0.0
O178 O 0.17112 0.8717 0.36043 0.0
H179 H 0.24687 0.93925 0.37044 0.0
H180 H 0.24908 0.88913 0.39667 0.0
O181 O 0.21823 0.91089 0.33254 0.0
H182 H 0.22052 0.84516 0.30088 0.0
H183 H 0.28038 0.92136 0.41649 0.0
Cu184 Cu 0.21208 0.4073 0.37815 0.0
N185 N 0.21042 0.42359 0.35285 0.0
N186 N 0.19723 0.43069 0.31862 0.0
C187 C 0.1941 0.41772 0.3379 0.0
C188 C 0.21631 0.44555 0.3218 0.0
C189 C 0.22448 0.44106 0.34293 0.0
O190 O 0.18443 0.38902 0.38847 0.0
C191 C 0.23301 0.39656 0.34135 0.0
O192 O 0.22396 0.40138 0.32348 0.0
H193 H 0.1804 0.40373 0.34063 0.0
H194 H 0.23981 0.44935 0.34965 0.0
N195 N 0.22615 0.42167 0.40744 0.0
N196 N 0.2419 0.42672 0.44553 0.0
C197 C 0.22904 0.4131 0.42842 0.0
C198 C 0.23747 0.44147 0.41137 0.0
C199 C 0.2473 0.44464 0.43493 0.0
C200 C 0.17621 0.39778 0.39982 0.0
O201 O 0.18716 0.41702 0.40444 0.0
H202 H 0.22273 0.39713 0.43032 0.0
H203 H 0.23906 0.45277 0.39772 0.0
O204 O 0.22787 0.39574 0.36502 0.0
H205 H 0.22414 0.45813 0.30894 0.0
H206 H 0.25794 0.45895 0.44328 0.0
Cu207 Cu 0.2208 0.39167 0.8825 0.0
N208 N 0.24299 0.41265 0.86686 0.0
N209 N 0.26863 0.4275 0.83956 0.0
C210 C 0.25676 0.41088 0.85308 0.0
C211 C 0.26222 0.44043 0.84531 0.0
C212 C 0.24641 0.43122 0.86229 0.0
O213 O 0.22893 0.37215 0.8929 0.0
C214 C 0.17978 0.37268 0.86064 0.0
O215 O 0.1739 0.35898 0.87873 0.0
H216 H 0.25697 0.39709 0.85108 0.0
H217 H 0.23719 0.43711 0.86933 0.0
N218 N 0.21588 0.40118 0.9132 0.0
N219 N 0.19974 0.40428 0.9472 0.0
C220 C 0.19797 0.39574 0.92369 0.0
C221 C 0.22951 0.41369 0.93051 0.0
C222 C 0.21961 0.41567 0.95151 0.0
C223 C 0.23428 0.36215 0.87858 0.0
O224 O 0.23044 0.36078 0.85352 0.0
H225 H 0.18392 0.38561 0.91438 0.0
H226 H 0.24552 0.42045 0.92829 0.0
O227 O 0.19837 0.38528 0.85845 0.0
H228 H 0.26774 0.45499 0.83668 0.0
H229 H 0.22654 0.42424 0.96896 0.0
Cu230 Cu 0.71636 0.88391 0.84584 0.0
N231 N 0.72761 0.86949 0.83188 0.0
N232 N 0.72789 0.84274 0.81572 0.0
C233 C 0.71696 0.85173 0.81978 0.0
C234 C 0.7462 0.85542 0.82559 0.0
C235 C 0.74597 0.87191 0.83558 0.0
O236 O 0.7038 0.86923 0.87845 0.0
C237 C 0.69779 0.90142 0.81406 0.0
O238 O 0.70053 0.91285 0.83434 0.0
H239 H 0.70111 0.84495 0.81569 0.0
H240 H 0.75799 0.88423 0.84605 0.0
N241 N 0.73596 0.91002 0.8546 0.0
N242 N 0.74829 0.94138 0.86899 0.0
C243 C 0.73323 0.9223 0.87052 0.0
C244 C 0.75356 0.92158 0.84292 0.0
C245 C 0.76124 0.94091 0.85181 0.0
C246 C 0.71616 0.87153 0.8968 0.0
O247 O 0.73521 0.88419 0.89321 0.0
H248 H 0.71957 0.91757 0.88123 0.0
H249 H 0.75975 0.91659 0.8278 0.0
O250 O 0.70084 0.88665 0.81659 0.0
H251 H 0.75866 0.85269 0.82631 0.0
H252 H 0.77484 0.95374 0.84515 0.0
Cu253 Cu 0.19835 0.8869 0.84611 0.0
N254 N 0.18498 0.88679 0.81536 0.0
N255 N 0.16846 0.87546 0.77765 0.0
C256 C 0.17818 0.8722 0.79721 0.0
C257 C 0.16902 0.89272 0.78374 0.0
C258 C 0.17934 0.89976 0.80694 0.0
O259 O 0.18032 0.86254 0.86411 0.0
C260 C 0.23246 0.89551 0.81645 0.0
O261 O 0.22253 0.89835 0.79774 0.0
H262 H 0.18019 0.85932 0.79846 0.0
H263 H 0.1825 0.91336 0.81684 0.0
N264 N 0.20399 0.90801 0.86904 0.0
N265 N 0.21683 0.9271 0.9046 0.0
C266 C 0.21781 0.91396 0.8882 0.0
C267 C 0.19397 0.91786 0.87338 0.0
C268 C 0.20185 0.92963 0.89529 0.0
C269 C 0.16343 0.86089 0.86921 0.0
O270 O 0.16014 0.87533 0.86217 0.0
H271 H 0.22759 0.9078 0.89095 0.0
H272 H 0.18115 0.91588 0.86232 0.0
O273 O 0.22407 0.88913 0.83832 0.0
H274 H 0.1627 0.89987 0.77205 0.0
H275 H 0.19661 0.93891 0.90407 0.0
Cu276 Cu 0.36418 0.21051 0.70892 0.0
N277 N 0.34262 0.21218 0.69503 0.0
N278 N 0.32348 0.22478 0.68228 0.0
C279 C 0.3386 0.22714 0.69791 0.0
C280 C 0.31754 0.20754 0.66927 0.0
C281 C 0.32925 0.19969 0.67739 0.0
O282 O 0.37562 0.22879 0.73927 0.0
C283 C 0.37968 0.21466 0.65666 0.0
O284 O 0.36977 0.22403 0.65161 0.0
H285 H 0.34727 0.24009 0.71004 0.0
H286 H 0.32881 0.18637 0.66995 0.0
N287 N 0.3542 0.1852 0.72274 0.0
N288 N 0.35351 0.15713 0.73472 0.0
C289 C 0.36398 0.17489 0.72279 0.0
C290 C 0.33684 0.17364 0.73495 0.0
C291 C 0.33634 0.15624 0.74235 0.0
C292 C 0.38191 0.24751 0.74066 0.0
O293 O 0.3843 0.2575 0.71911 0.0
H294 H 0.37851 0.18038 0.71407 0.0
H295 H 0.3255 0.17769 0.73845 0.0
O296 O 0.38135 0.21055 0.68029 0.0
H297 H 0.30609 0.20148 0.6543 0.0
H298 H 0.32449 0.14412 0.75303 0.0
Cu299 Cu 0.86472 0.20598 0.67761 0.0
N300 N 0.86372 0.21898 0.64764 0.0
N301 N 0.8748 0.23771 0.61197 0.0
C302 C 0.87974 0.23074 0.63309 0.0
C303 C 0.8548 0.23002 0.61334 0.0
C304 C 0.848 0.21851 0.63548 0.0
O305 O 0.89233 0.22323 0.69051 0.0
C306 C 0.85074 0.17027 0.64655 0.0
O307 O 0.85566 0.18251 0.62681 0.0
H308 H 0.89468 0.23365 0.6376 0.0
H309 H 0.83271 0.2102 0.64206 0.0
N310 N 0.84657 0.2054 0.70194 0.0
N311 N 0.82508 0.19473 0.735 0.0
C312 C 0.83662 0.19075 0.71925 0.0
C313 C 0.84112 0.21913 0.7067 0.0
C314 C 0.82789 0.21261 0.72716 0.0
C315 C 0.89673 0.23145 0.71299 0.0
O316 O 0.88284 0.22511 0.73085 0.0
H317 H 0.83831 0.1777 0.72071 0.0
H318 H 0.84657 0.23298 0.69624 0.0
O319 O 0.85549 0.1776 0.66952 0.0
H320 H 0.84575 0.23257 0.59943 0.0
H321 H 0.82087 0.22043 0.73555 0.0
Cu322 Cu 0.88502 0.74089 0.69321 0.0
N323 N 0.88158 0.75895 0.67286 0.0
N324 N 0.86892 0.76813 0.64008 0.0
C325 C 0.86686 0.75298 0.65508 0.0
C326 C 0.88563 0.7844 0.64876 0.0
C327 C 0.89339 0.77871 0.66914 0.0
O328 O 0.85806 0.71934 0.70078 0.0
C329 C 0.92019 0.7488 0.67147 0.0
O330 O 0.92424 0.76592 0.68197 0.0
H331 H 0.85555 0.73751 0.65212 0.0
H332 H 0.90717 0.78815 0.67952 0.0
N333 N 0.89775 0.75149 0.72497 0.0
N334 N 0.91355 0.75287 0.76199 0.0
C335 C 0.90258 0.74134 0.74191 0.0
C336 C 0.90574 0.7701 0.73478 0.0
C337 C 0.91566 0.77103 0.75763 0.0
C338 C 0.84814 0.72538 0.71401 0.0
O339 O 0.85722 0.74419 0.72139 0.0
H340 H 0.89892 0.72601 0.73889 0.0
H341 H 0.90493 0.78225 0.72568 0.0
O342 O 0.90254 0.73401 0.67389 0.0
H343 H 0.89209 0.79917 0.64047 0.0
H344 H 0.92398 0.78404 0.76989 0.0
Cu345 Cu 0.86525 0.70451 0.17521 0.0
N346 N 0.86405 0.69036 0.14511 0.0
N347 N 0.87582 0.68247 0.1103 0.0
C348 C 0.88024 0.69489 0.13073 0.0
C349 C 0.85601 0.66961 0.11161 0.0
C350 C 0.84878 0.67439 0.13336 0.0
O351 O 0.89193 0.71232 0.19049 0.0
C352 C 0.83989 0.71693 0.15543 0.0
O353 O 0.82954 0.69746 0.15282 0.0
H354 H 0.89504 0.70714 0.13519 0.0
H355 H 0.83354 0.66664 0.14018 0.0
N356 N 0.84632 0.68855 0.19958 0.0
N357 N 0.82672 0.68177 0.23419 0.0
C358 C 0.84082 0.69613 0.21927 0.0
C359 C 0.83538 0.6686 0.20198 0.0
C360 C 0.82328 0.66436 0.22346 0.0
C361 C 0.89458 0.69735 0.19387 0.0
O362 O 0.87954 0.67947 0.18862 0.0
H363 H 0.84728 0.71199 0.22268 0.0
H364 H 0.83612 0.65794 0.18905 0.0
O365 O 0.8575 0.72466 0.16538 0.0
H366 H 0.84752 0.65743 0.09815 0.0
H367 H 0.81261 0.64964 0.2304 0.0
Cu368 Cu 0.39433 0.22692 0.20367 0.0
N369 N 0.40357 0.21114 0.18828 0.0
N370 N 0.40109 0.18324 0.1716 0.0
C371 C 0.39174 0.1938 0.17582 0.0
C372 C 0.41981 0.19473 0.18104 0.0
C373 C 0.42127 0.21192 0.19144 0.0
O374 O 0.3839 0.21503 0.23847 0.0
C375 C 0.3773 0.24675 0.17393 0.0
O376 O 0.38293 0.25915 0.19374 0.0
H377 H 0.3761 0.18842 0.17166 0.0
H378 H 0.43385 0.22346 0.20215 0.0
N379 N 0.41537 0.25258 0.21071 0.0
N380 N 0.42735 0.28402 0.2247 0.0
C381 C 0.4145 0.26447 0.22918 0.0
C382 C 0.42978 0.26484 0.19438 0.0
C383 C 0.43727 0.28421 0.20302 0.0
C384 C 0.37651 0.19648 0.24375 0.0
O385 O 0.37092 0.18362 0.22448 0.0
H386 H 0.40307 0.2589 0.24391 0.0
H387 H 0.43302 0.26025 0.17603 0.0
O388 O 0.37798 0.23059 0.17631 0.0
H389 H 0.43111 0.19034 0.1822 0.0
H390 H 0.44765 0.29743 0.19251 0.0
Cu391 Cu 0.86664 0.23675 0.17396 0.0
N392 N 0.85218 0.23589 0.14413 0.0
N393 N 0.83292 0.22258 0.1089 0.0
C394 C 0.84493 0.22089 0.12662 0.0
C395 C 0.83266 0.23937 0.1154 0.0
C396 C 0.84466 0.24763 0.1371 0.0
O397 O 0.85051 0.21131 0.19132 0.0
C398 C 0.90231 0.25716 0.14815 0.0
O399 O 0.89212 0.26478 0.13745 0.0
H400 H 0.84759 0.20842 0.12768 0.0
H401 H 0.84721 0.2609 0.14742 0.0
N402 N 0.87064 0.25683 0.19751 0.0
N403 N 0.88481 0.27741 0.2314 0.0
C404 C 0.88599 0.26466 0.21454 0.0
C405 C 0.85925 0.2649 0.2037 0.0
C406 C 0.86797 0.27763 0.22464 0.0
C407 C 0.83258 0.20734 0.19514 0.0
O408 O 0.82748 0.22055 0.18817 0.0
H409 H 0.89728 0.26025 0.21529 0.0
H410 H 0.84526 0.2613 0.19435 0.0
O411 O 0.8935 0.24295 0.16429 0.0
H412 H 0.82418 0.24508 0.10541 0.0
H413 H 0.86217 0.28609 0.23438 0.0
In414 In 0.04207 0.67461 0.26649 0.0
O415 O 0.07597 0.69688 0.26292 0.0
O416 O 0.05873 0.70622 0.28429 0.0
C417 C 0.0369 0.65021 0.22502 0.0
C418 C 0.04371 0.65401 0.30908 0.0
C419 C 0.01292 0.68374 0.25393 0.0
O420 O 0.05251 0.66697 0.22832 0.0
O421 O 0.02387 0.64591 0.24236 0.0
O422 O 0.01126 0.67238 0.2726 0.0
O423 O 0.02917 0.69042 0.24175 0.0
C424 C 0.07583 0.71046 0.27641 0.0
O425 O 0.03409 0.6633 0.30915 0.0
O426 O 0.05179 0.65469 0.28766 0.0
In427 In 0.41123 0.43472 0.29014 0.0
O428 O 0.41336 0.45231 0.25288 0.0
O429 O 0.43778 0.4482 0.26284 0.0
C430 C 0.3723 0.42465 0.29817 0.0
C431 C 0.41361 0.40157 0.28007 0.0
C432 C 0.432 0.45601 0.33285 0.0
O433 O 0.38607 0.4424 0.29492 0.0
O434 O 0.37807 0.41203 0.29699 0.0
O435 O 0.42037 0.43739 0.33322 0.0
O436 O 0.43297 0.46389 0.31113 0.0
C437 C 0.43053 0.45531 0.24696 0.0
O438 O 0.42055 0.41171 0.30067 0.0
O439 O 0.40504 0.40787 0.26495 0.0
In440 In 0.67287 0.06203 0.27184 0.0
O441 O 0.668 0.06926 0.31355 0.0
O442 O 0.64285 0.05496 0.28818 0.0
C443 C 0.71213 0.08828 0.26466 0.0
C444 C 0.67064 0.02654 0.28021 0.0
C445 C 0.65548 0.06991 0.23156 0.0
O446 O 0.70188 0.09095 0.2816 0.0
O447 O 0.70265 0.07228 0.25183 0.0
O448 O 0.652 0.05248 0.23668 0.0
O449 O 0.66804 0.08339 0.24646 0.0
C450 C 0.64932 0.06174 0.31061 0.0
O451 O 0.66834 0.03187 0.25788 0.0
O452 O 0.67442 0.03922 0.29794 0.0
In453 In 0.0445 0.40715 0.76577 0.0
O454 O 0.02956 0.40632 0.8049 0.0
O455 O 0.05067 0.43468 0.79025 0.0
C456 C 0.01392 0.36962 0.75213 0.0
C457 C 0.05077 0.4326 0.72477 0.0
C458 C 0.07542 0.40189 0.78281 0.0
O459 O 0.01094 0.38337 0.76003 0.0
O460 O 0.03214 0.37475 0.75098 0.0
O461 O 0.07087 0.40126 0.75906 0.0
O462 O 0.0648 0.40564 0.79777 0.0
C463 C 0.0386 0.42503 0.80817 0.0
O464 O 0.06407 0.42905 0.73322 0.0
O465 O 0.0344 0.42313 0.73652 0.0
In466 In 0.66595 0.66132 0.75527 0.0
O467 O 0.66332 0.65811 0.7997 0.0
O468 O 0.64307 0.63333 0.77682 0.0
C469 C 0.70138 0.66318 0.74469 0.0
C470 C 0.63951 0.64276 0.71573 0.0
C471 C 0.6749 0.69988 0.76136 0.0
O472 O 0.69336 0.65832 0.76678 0.0
O473 O 0.69134 0.66655 0.72818 0.0
O474 O 0.68504 0.69479 0.74753 0.0
O475 O 0.65975 0.68548 0.77149 0.0
C476 C 0.64857 0.6406 0.79931 0.0
O477 O 0.64208 0.65878 0.72588 0.0
O478 O 0.65014 0.63625 0.72557 0.0
In479 In 0.40834 0.02896 0.77723 0.0
O480 O 0.43719 0.05246 0.79667 0.0
O481 O 0.41984 0.02507 0.81647 0.0
C482 C 0.3988 0.05749 0.7666 0.0
C483 C 0.42427 0.02129 0.73499 0.0
C484 C 0.37419 0.99628 0.79215 0.0
O485 O 0.40173 0.05342 0.7893 0.0
O486 O 0.40105 0.04742 0.74899 0.0
O487 O 0.3894 0.99531 0.78544 0.0
O488 O 0.37639 0.01353 0.7914 0.0
C489 C 0.43518 0.04221 0.81663 0.0
O490 O 0.40593 0.01579 0.7366 0.0
O491 O 0.43451 0.03054 0.7547 0.0
In492 In 0.70711 0.99162 0.59859 0.0
O493 O 0.7218 0.02446 0.61197 0.0
O494 O 0.74134 0.01434 0.6001 0.0
C495 C 0.71049 0.97268 0.55467 0.0
C496 C 0.70241 0.96863 0.64187 0.0
C497 C 0.67576 0.99854 0.58959 0.0
O498 O 0.71396 0.99045 0.55489 0.0
O499 O 0.70553 0.96439 0.57658 0.0
O500 O 0.68531 0.99582 0.57176 0.0
O501 O 0.68138 0.99696 0.61212 0.0
C502 C 0.73965 0.02871 0.60881 0.0
O503 O 0.68795 0.96572 0.62723 0.0
O504 O 0.719 0.98281 0.63454 0.0
In505 In 0.08075 0.76689 0.57862 0.0
O506 O 0.08473 0.78927 0.54665 0.0
O507 O 0.10449 0.77764 0.54644 0.0
C508 C 0.04352 0.758 0.59367 0.0
C509 C 0.075 0.7297 0.56944 0.0
C510 C 0.10346 0.7901 0.61907 0.0
O511 O 0.04969 0.76348 0.57085 0.0
O512 O 0.05614 0.75738 0.60866 0.0
O513 O 0.09658 0.7715 0.61814 0.0
O514 O 0.09935 0.79709 0.59938 0.0
C515 C 0.09937 0.78919 0.53591 0.0
O516 O 0.0895 0.74262 0.58279 0.0
O517 O 0.06392 0.73579 0.55988 0.0
In518 In 0.32395 0.38486 0.63143 0.0
O519 O 0.30483 0.3507 0.63411 0.0
O520 O 0.3349 0.36477 0.64764 0.0
C521 C 0.30293 0.391 0.59375 0.0
C522 C 0.31655 0.39577 0.67792 0.0
C523 C 0.36135 0.40598 0.61287 0.0
O524 O 0.3082 0.37803 0.59162 0.0
O525 O 0.30791 0.40049 0.61489 0.0
O526 O 0.35416 0.41331 0.6285 0.0
O527 O 0.34954 0.38815 0.60623 0.0
C528 C 0.31877 0.34868 0.64392 0.0
O529 O 0.3336 0.40457 0.66762 0.0
O530 O 0.30331 0.38129 0.66489 0.0
In531 In 0.71099 0.77071 0.09952 0.0
O532 O 0.69606 0.77607 0.1354 0.0
O533 O 0.72593 0.79789 0.12763 0.0
C534 C 0.68089 0.73275 0.08681 0.0
C535 C 0.70948 0.79191 0.05717 0.0
C536 C 0.74219 0.76427 0.11195 0.0
O537 O 0.68155 0.74118 0.10815 0.0
O538 O 0.69522 0.7434 0.07197 0.0
O539 O 0.74375 0.77706 0.09549 0.0
O540 O 0.72505 0.75477 0.12186 0.0
C541 C 0.71112 0.7923 0.14246 0.0
O542 O 0.7225 0.78667 0.05997 0.0
O543 O 0.69745 0.78687 0.07591 0.0
In544 In 0.31951 0.99784 0.1135 0.0
O545 O 0.30783 0.97409 0.1457 0.0
O546 O 0.29395 0.99166 0.14146 0.0
C547 C 0.35372 0.99801 0.09984 0.0
C548 C 0.29546 0.98155 0.07118 0.0
C549 C 0.33594 0.03705 0.12637 0.0
O550 O 0.3456 0.99185 0.12166 0.0
O551 O 0.34435 1.00348 0.085 0.0
O552 O 0.3241 0.0292 0.10741 0.0
O553 O 0.33918 0.02506 0.13921 0.0
C554 C 0.2947 0.97797 0.15382 0.0
O555 O 0.30295 0.99965 0.07762 0.0
O556 O 0.29973 0.9714 0.08642 0.0
In557 In 0.08221 0.39356 0.12276 0.0
O558 O 0.11091 0.40004 0.14353 0.0
O559 O 0.08825 0.40013 0.16647 0.0
C560 C 0.08308 0.42775 0.10896 0.0
C561 C 0.09849 0.38648 0.08077 0.0
C562 C 0.04631 0.36067 0.13275 0.0
O563 O 0.09782 0.42746 0.11914 0.0
O564 O 0.06775 0.41079 0.10597 0.0
O565 O 0.05966 0.35997 0.11958 0.0
O566 O 0.05107 0.37786 0.14092 0.0
C567 C 0.10564 0.40251 0.16567 0.0
O568 O 0.09984 0.38082 0.1033 0.0
O569 O 0.08806 0.39488 0.07919 0.0
In570 In 0.37619 0.33115 0.95681 0.0
O571 O 0.38861 0.31623 0.98501 0.0
O572 O 0.36037 0.31265 0.99362 0.0
C573 C 0.34502 0.337 0.94269 0.0
C574 C 0.4056 0.36946 0.96931 0.0
C575 C 0.37921 0.3115 0.91345 0.0
O576 O 0.34272 0.32225 0.95587 0.0
O577 O 0.363 0.34894 0.93695 0.0
O578 O 0.39422 0.32469 0.92572 0.0
O579 O 0.36284 0.30787 0.92332 0.0
C580 C 0.37398 0.30901 1.00033 0.0
O581 O 0.40562 0.36059 0.94867 0.0
O582 O 0.39078 0.35909 0.98366 0.0
In583 In 0.73272 0.09247 0.93402 0.0
O584 O 0.74685 0.07278 0.9405 0.0
O585 O 0.7222 0.06213 0.91453 0.0
C586 C 0.75292 0.11985 0.97187 0.0
C587 C 0.75051 0.11282 0.89022 0.0
C588 C 0.6944 0.08059 0.94773 0.0
O589 O 0.74764 0.10164 0.97427 0.0
O590 O 0.74789 0.12418 0.95059 0.0
O591 O 0.70215 0.09013 0.92717 0.0
O592 O 0.70588 0.07691 0.96118 0.0
C593 C 0.73525 0.05913 0.9251 0.0
O594 O 0.73214 0.10606 0.89461 0.0
O595 O 0.75972 0.10917 0.90776 0.0
In596 In 1.00222 0.70848 0.93605 0.0
O597 O 0.9927 0.71862 0.9722 0.0
O598 O 0.97494 0.68829 0.96006 0.0
C599 C 0.03936 0.7389 0.9271 0.0
C600 C 0.01067 0.67896 0.94246 0.0
C601 C 0.98066 0.71427 0.89925 0.0
O602 O 0.03113 0.73645 0.94897 0.0
O603 O 0.0288 0.72621 0.91007 0.0
O604 O 0.98578 0.70115 0.89675 0.0
O605 O 0.98633 0.72418 0.92011 0.0
C606 C 0.97745 0.70176 0.97609 0.0
O607 O 1.00053 0.67931 0.92327 0.0
O608 O 0.0163 0.69334 0.95821 0.0
In609 In 0.39507 0.11976 0.45829 0.0
O610 O 0.37868 0.12518 0.49228 0.0
O611 O 0.40929 0.14619 0.48766 0.0
C612 C 0.36655 0.08168 0.44449 0.0
C613 C 0.39312 0.14076 0.41603 0.0
C614 C 0.42522 0.11205 0.47167 0.0
O615 O 0.36617 0.0897 0.46575 0.0
O616 O 0.38107 0.09287 0.43021 0.0
O617 O 0.42755 0.12508 0.45508 0.0
O618 O 0.408 0.10328 0.48147 0.0
C619 C 0.39365 0.14093 0.50071 0.0
O620 O 0.40785 0.13822 0.42045 0.0
O621 O 0.37974 0.13319 0.43312 0.0
In622 In 0.99373 0.34832 0.43485 0.0
O623 O 0.98051 0.31995 0.45992 0.0
O624 O 0.97012 0.34035 0.46603 0.0
C625 C 0.03058 0.35259 0.42636 0.0
C626 C 0.9724 0.33369 0.39017 0.0
C627 C 1.00027 0.38447 0.4511 0.0
O628 O 0.02081 0.34497 0.44679 0.0
O629 O 0.02182 0.358 0.41036 0.0
O630 O 0.98732 0.3741 0.43416 0.0
O631 O 0.01025 0.37676 0.45969 0.0
C632 C 0.96905 0.32415 0.47246 0.0
O633 O 0.98278 0.35208 0.39507 0.0
O634 O 0.97297 0.32257 0.40764 0.0
In635 In 0.75659 0.71303 0.44136 0.0
O636 O 0.77568 0.73841 0.4697 0.0
O637 O 0.77982 0.71325 0.46919 0.0
C638 C 0.73843 0.73451 0.43095 0.0
C639 C 0.77173 0.70861 0.39626 0.0
C640 C 0.72943 0.67647 0.45864 0.0
O641 O 0.73046 0.71884 0.44432 0.0
O642 O 0.75568 0.73948 0.42279 0.0
O643 O 0.73787 0.67921 0.43696 0.0
O644 O 0.73489 0.69214 0.47181 0.0
C645 C 0.7847 0.73 0.47915 0.0
O646 O 0.75351 0.70322 0.39906 0.0
O647 O 0.78252 0.71672 0.41608 0.0
C648 C 0.08347 0.5193 0.03799 0.0
C649 C 0.07922 0.53065 0.05544 0.0
C650 C 0.0871 0.50424 0.04689 0.0
C651 C 0.08631 0.50036 0.07384 0.0
C652 C 0.08373 0.51288 0.09164 0.0
C653 C 0.08037 0.52799 0.08223 0.0
C654 C 0.09021 0.49149 0.02729 0.0
C655 C 0.08279 0.50924 0.12054 0.0
C656 C 0.06645 0.44635 0.09289 0.0
C657 C 0.08394 0.44641 0.10047 0.0
C658 C 0.06706 0.46388 0.08441 0.0
C659 C 0.08567 0.48185 0.08314 0.0
C660 C 0.1034 0.48199 0.09069 0.0
C661 C 0.10231 0.46427 0.09945 0.0
C662 C 0.04777 0.46316 0.07678 0.0
C663 C 0.12351 0.50078 0.08927 0.0
H664 H 0.0828 0.52139 0.01726 0.0
H665 H 0.07717 0.5367 0.09589 0.0
H666 H 0.10271 0.48918 0.03341 0.0
H667 H 0.07654 0.4766 0.02604 0.0
H668 H 0.09341 0.49822 0.00762 0.0
H669 H 0.08334 0.52176 0.13188 0.0
H670 H 0.06864 0.49541 0.12514 0.0
H671 H 0.09528 0.50702 0.12699 0.0
H672 H 0.05223 0.43259 0.0937 0.0
H673 H 0.1159 0.46435 0.10516 0.0
H674 H 0.04835 0.46745 0.05612 0.0
H675 H 0.04573 0.47403 0.0886 0.0
H676 H 0.03453 0.4481 0.07943 0.0
H677 H 0.12646 0.50629 0.06899 0.0
H678 H 0.13589 0.49839 0.0959 0.0
H679 H 0.12355 0.51268 0.1014 0.0
C680 C 0.61194 0.6159 0.05417 0.0
C681 C 0.59246 0.61033 0.04579 0.0
C682 C 0.62579 0.63575 0.06132 0.0
C683 C 0.6203 0.65071 0.05976 0.0
C684 C 0.60065 0.64521 0.05131 0.0
C685 C 0.58696 0.62513 0.04465 0.0
C686 C 0.64639 0.64071 0.07051 0.0
C687 C 0.59415 0.6606 0.04896 0.0
C688 C 0.65144 0.69925 0.09853 0.0
C689 C 0.66491 0.712 0.07982 0.0
C690 C 0.6368 0.67942 0.09227 0.0
C691 C 0.63526 0.67209 0.06655 0.0
C692 C 0.64858 0.68506 0.04748 0.0
C693 C 0.66326 0.7047 0.05436 0.0
C694 C 0.6232 0.66616 0.11336 0.0
C695 C 0.64743 0.67812 0.01977 0.0
H696 H 0.61641 0.60467 0.05531 0.0
H697 H 0.57203 0.6211 0.03813 0.0
H698 H 0.65784 0.65164 0.0572 0.0
H699 H 0.64944 0.64776 0.09006 0.0
H700 H 0.64816 0.62732 0.07151 0.0
H701 H 0.5784 0.65401 0.04222 0.0
H702 H 0.59575 0.66803 0.06799 0.0
H703 H 0.60394 0.67233 0.03506 0.0
H704 H 0.65258 0.70466 0.11826 0.0
H705 H 0.67349 0.71439 0.0397 0.0
H706 H 0.6254 0.65314 0.11602 0.0
H707 H 0.60734 0.66029 0.10766 0.0
H708 H 0.62597 0.67413 0.13225 0.0
H709 H 0.6507 0.66568 0.01908 0.0
H710 H 0.65814 0.69024 1.00695 0.0
H711 H 0.63209 0.67234 0.0119 0.0
C712 C 0.46812 0.05177 0.08041 0.0
C713 C 0.47711 0.04261 0.06669 0.0
C714 C 0.44772 0.04149 0.08623 0.0
C715 C 0.43576 0.02137 0.07829 0.0
C716 C 0.44483 0.01165 0.06546 0.0
C717 C 0.46545 0.02241 0.05976 0.0
C718 C 0.43881 0.05253 0.09998 0.0
C719 C 0.43263 0.99015 0.05692 0.0
C720 C 0.38496 0.99692 0.11104 0.0
C721 C 0.37356 1.00062 0.09291 0.0
C722 C 0.40488 1.00214 0.10576 0.0
C723 C 0.41362 0.01138 0.08188 0.0
C724 C 0.40171 0.01392 0.06289 0.0
C725 C 0.38187 0.00849 0.06862 0.0
C726 C 0.41694 0.99894 0.12642 0.0
C727 C 0.41034 0.02373 0.03719 0.0
H728 H 0.47699 0.0673 0.08618 0.0
H729 H 0.47226 0.0152 0.04921 0.0
H730 H 0.42787 0.0536 0.08697 0.0
H731 H 0.43065 0.04425 0.11753 0.0
H732 H 0.45033 0.06786 0.10595 0.0
H733 H 0.44218 0.98404 0.05024 0.0
H734 H 0.4231 0.98082 0.07305 0.0
H735 H 0.42252 0.98893 0.04073 0.0
H736 H 0.37862 0.99072 0.12979 0.0
H737 H 0.37313 0.01125 0.0544 0.0
H738 H 0.42754 0.01346 0.1356 0.0
H739 H 0.42591 0.9928 0.11776 0.0
H740 H 0.4073 0.98867 0.14182 0.0
H741 H 0.42113 0.0398 0.04046 0.0
H742 H 0.39861 0.02244 0.0234 0.0
H743 H 0.41861 0.017 0.02808 0.0
C744 C 0.50848 0.0818 0.51709 0.0
C745 C 0.50546 0.06586 0.50092 0.0
C746 C 0.49747 0.09182 0.51322 0.0
C747 C 0.48316 0.08583 0.49268 0.0
C748 C 0.48084 0.07037 0.47569 0.0
C749 C 0.49192 0.06069 0.48001 0.0
C750 C 0.50057 0.10828 0.53174 0.0
C751 C 0.46594 0.06338 0.45348 0.0
C752 C 0.43658 0.0913 0.49625 0.0
C753 C 0.4409 0.10674 0.47858 0.0
C754 C 0.45053 0.08505 0.5019 0.0
C755 C 0.46948 0.09444 0.48972 0.0
C756 C 0.47422 0.11055 0.47257 0.0
C757 C 0.45991 0.11645 0.46716 0.0
C758 C 0.44461 0.06777 0.52016 0.0
C759 C 0.4942 0.12112 0.45922 0.0
H760 H 0.51877 0.08587 0.53338 0.0
H761 H 0.48953 0.04854 0.46717 0.0
H762 H 0.50267 0.12154 0.52083 0.0
H763 H 0.48707 0.10319 0.5439 0.0
H764 H 0.51368 0.11277 0.54474 0.0
H765 H 0.46674 0.05201 0.4411 0.0
H766 H 0.45057 0.05682 0.46126 0.0
H767 H 0.46855 0.07618 0.44111 0.0
H768 H 0.42202 0.0837 0.5053 0.0
H769 H 0.4635 0.12844 0.45358 0.0
H770 H 0.45621 0.0718 0.53546 0.0
H771 H 0.44347 0.05484 0.50926 0.0
H772 H 0.43004 0.06308 0.52965 0.0
H773 H 0.50649 0.12547 0.47357 0.0
H774 H 0.49652 0.13467 0.4488 0.0
H775 H 0.49522 0.11087 0.44499 0.0
C776 C 0.03818 0.49837 0.47208 0.0
C777 C 0.03115 0.50376 0.49395 0.0
C778 C 0.03077 0.47834 0.46533 0.0
C779 C 0.01596 0.46321 0.48092 0.0
C780 C 0.00794 0.46853 0.50221 0.0
C781 C 0.01562 0.48883 0.50848 0.0
C782 C 0.03964 0.4734 0.44232 0.0
C783 C 0.99207 0.45282 0.5192 0.0
C784 C 0.99159 0.41165 0.44998 0.0
C785 C 1.00331 0.404 0.46019 0.0
C786 C 0.99482 0.4305 0.45757 0.0
C787 C 0.01017 0.44202 0.47574 0.0
C788 C 0.02155 0.43405 0.48682 0.0
C789 C 0.01798 0.41514 0.4789 0.0
C790 C 0.98232 0.43842 0.44538 0.0
C791 C 0.03805 0.44584 0.50628 0.0
H792 H 0.0501 0.50989 0.46068 0.0
H793 H 0.01029 0.49295 0.52554 0.0
H794 H 0.048 0.466 0.44914 0.0
H795 H 0.02763 0.46284 0.42903 0.0
H796 H 0.05002 0.48688 0.43116 0.0
H797 H 0.9855 0.45923 0.53265 0.0
H798 H 0.97992 0.44105 0.50716 0.0
H799 H 0.99872 0.44553 0.53093 0.0
H800 H 0.98009 0.40304 0.43566 0.0
H801 H 0.02697 0.40925 0.48702 0.0
H802 H 0.99179 0.45106 0.43242 0.0
H803 H 0.97635 0.4442 0.46057 0.0
H804 H 0.96962 0.42685 0.43379 0.0
H805 H 0.05026 0.45917 0.49673 0.0
H806 H 0.04439 0.43693 0.51465 0.0
H807 H 0.03241 0.45123 0.52235 0.0
C808 C 0.6234 0.58495 0.4813 0.0
C809 C 0.622 0.56934 0.49659 0.0
C810 C 0.64198 0.60136 0.47519 0.0
C811 C 0.65965 0.60216 0.48455 0.0
C812 C 0.65842 0.58613 0.49925 0.0
C813 C 0.63956 0.56986 0.50509 0.0
C814 C 0.64265 0.61808 0.45927 0.0
C815 C 0.67697 0.58649 0.50948 0.0
C816 C 0.70667 0.64011 0.45046 0.0
C817 C 0.71322 0.65675 0.46689 0.0
C818 C 0.68978 0.62184 0.45662 0.0
C819 C 0.67925 0.62024 0.47972 0.0
C820 C 0.68641 0.6367 0.49701 0.0
C821 C 0.70334 0.65479 0.49037 0.0
C822 C 0.68263 0.60459 0.43776 0.0
C823 C 0.67559 0.63555 0.52188 0.0
H824 H 0.60988 0.58441 0.47427 0.0
H825 H 0.63854 0.5579 0.51707 0.0
H826 H 0.64945 0.63205 0.47096 0.0
H827 H 0.65216 0.62088 0.44195 0.0
H828 H 0.62757 0.61479 0.45269 0.0
H829 H 0.67354 0.57224 0.51896 0.0
H830 H 0.68765 0.58945 0.49348 0.0
H831 H 0.68458 0.59878 0.52386 0.0
H832 H 0.71434 0.64154 0.43232 0.0
H833 H 0.70841 0.66759 0.50319 0.0
H834 H 0.66841 0.60177 0.42853 0.0
H835 H 0.67955 0.59078 0.44809 0.0
H836 H 0.69367 0.60752 0.42221 0.0
H837 H 0.66083 0.63404 0.5172 0.0
H838 H 0.68411 0.64899 0.53432 0.0
H839 H 0.67278 0.62219 0.53314 0.0
C840 C 1.00572 0.57874 0.98157 0.0
C841 C 0.02366 0.57828 0.98088 0.0
C842 C 1.00482 0.5955 0.97325 0.0
C843 C 0.02224 0.61216 0.96359 0.0
C844 C 0.04028 0.61158 0.96192 0.0
C845 C 0.04083 0.59466 0.97082 0.0
C846 C 0.98536 0.59561 0.97573 0.0
C847 C 0.05904 0.62898 0.9513 0.0
C848 C 0.01173 0.64869 0.92734 0.0
C849 C 0.01513 0.66271 0.94689 0.0
C850 C 0.0151 0.6327 0.932 0.0
C851 C 0.02164 0.63054 0.95693 0.0
C852 C 0.02561 0.64498 0.97648 0.0
C853 C 0.02246 0.66098 0.97114 0.0
C854 C 0.01102 0.61776 0.91057 0.0
C855 C 0.03227 0.64304 1.00345 0.0
H856 H 0.99237 0.56618 0.98936 0.0
H857 H 0.05471 0.59434 0.97011 0.0
H858 H 0.98735 0.60762 0.98936 0.0
H859 H 0.98083 0.5988 0.95666 0.0
H860 H 0.97304 0.5812 0.98293 0.0
H861 H 0.0713 0.62549 0.94911 0.0
H862 H 0.05593 0.63343 0.93213 0.0
H863 H 0.06425 0.64202 0.96453 0.0
H864 H 1.00625 0.65011 0.90848 0.0
H865 H 0.02514 0.6718 0.98632 0.0
H866 H 0.99765 0.60331 0.91543 0.0
H867 H 0.02377 0.61502 0.90863 0.0
H868 H 0.00832 0.62281 0.89155 0.0
H869 H 0.0202 0.62955 0.01292 0.0
H870 H 0.03595 0.65621 0.01591 0.0
H871 H 0.04558 0.64114 1.00244 0.0
C872 C 0.48406 0.48666 0.99727 0.0
C873 C 0.50103 0.48904 0.01073 0.0
C874 C 0.46824 0.46754 0.9902 0.0
C875 C 0.46923 0.45022 0.99675 0.0
C876 C 0.4863 0.45255 0.01038 0.0
C877 C 0.5019 0.4718 0.01713 0.0
C878 C 0.45043 0.46589 0.97566 0.0
C879 C 0.48811 0.43464 0.01789 0.0
C880 C 0.42121 0.39921 0.99971 0.0
C881 C 0.42166 0.39025 0.97612 0.0
C882 C 0.43639 0.41869 1.00651 0.0
C883 C 0.45253 0.42967 0.98935 0.0
C884 C 0.45295 0.42075 0.96541 0.0
C885 C 0.4376 0.40124 0.95913 0.0
C886 C 0.43525 0.42745 0.03225 0.0
C887 C 0.46975 0.43178 0.94645 0.0
H888 H 0.48312 0.49977 0.99218 0.0
H889 H 0.51482 0.4733 0.02756 0.0
H890 H 0.44862 0.45819 0.95678 0.0
H891 H 0.4366 0.45673 0.98691 0.0
H892 H 0.45185 0.48069 0.97195 0.0
H893 H 0.50226 0.43888 0.02853 0.0
H894 H 0.47537 0.42456 0.03034 0.0
H895 H 0.48746 0.42605 1.00026 0.0
H896 H 0.40901 0.39093 0.01301 0.0
H897 H 0.43814 0.39454 0.94084 0.0
H898 H 0.43543 0.44173 0.02911 0.0
H899 H 0.44852 0.43081 0.04435 0.0
H900 H 0.42157 0.41724 0.04321 0.0
H901 H 0.47083 0.44619 0.94119 0.0
H902 H 0.4677 0.42305 0.92837 0.0
H903 H 0.48419 0.43524 0.95562 0.0
C904 C 0.58339 0.05387 0.99493 0.0
C905 C 0.5865 0.07146 0.0071 0.0
C906 C 0.59958 0.05255 0.98448 0.0
C907 C 0.61926 0.0691 0.98659 0.0
C908 C 0.62242 0.0866 0.99958 0.0
C909 C 0.60607 0.08757 0.00952 0.0
C910 C 0.59563 0.03367 0.9707 0.0
C911 C 0.64311 0.10452 1.00268 0.0
C912 C 0.66693 0.0664 0.98056 0.0
C913 C 0.67396 0.07521 0.95623 0.0
C914 C 0.64848 0.06311 0.99006 0.0
C915 C 0.63672 0.0687 0.97485 0.0
C916 C 0.64325 0.07658 0.94967 0.0
C917 C 0.66181 0.07978 0.9407 0.0
C918 C 0.64216 0.05475 0.01702 0.0
C919 C 0.63117 0.08268 0.93276 0.0
H920 H 0.56831 0.04139 0.99299 0.0
H921 H 0.60869 0.10113 0.01922 0.0
H922 H 0.5998 0.0369 0.94996 0.0
H923 H 0.60503 0.02795 0.97924 0.0
H924 H 0.57969 0.02181 0.9718 0.0
H925 H 0.64308 0.11674 0.01404 0.0
H926 H 0.65315 0.10015 0.01259 0.0
H927 H 0.64954 0.11038 0.98329 0.0
H928 H 0.67618 0.06272 0.99263 0.0
H929 H 0.66706 0.08645 0.92181 0.0
H930 H 0.62631 0.04268 0.01697 0.0
H931 H 0.64341 0.06668 0.03026 0.0
H932 H 0.65155 0.04879 0.02497 0.0
H933 H 0.6153 0.07066 0.932 0.0
H934 H 0.63699 0.0862 0.91263 0.0
H935 H 0.63159 0.0961 0.94123 0.0
C936 C 0.59888 0.03958 0.5563 0.0
C937 C 0.57958 0.02296 0.55421 0.0
C938 C 0.61547 0.03733 0.56337 0.0
C939 C 0.61272 0.01804 0.56853 0.0
C940 C 0.59314 1.00141 0.56734 0.0
C941 C 0.57699 1.00407 0.56029 0.0
C942 C 0.63603 0.05552 0.56454 0.0
C943 C 0.58925 0.98056 0.57271 0.0
C944 C 0.65419 1.00512 0.55874 0.0
C945 C 0.65996 1.00402 0.58435 0.0
C946 C 0.63945 0.01037 0.55334 0.0
C947 C 0.63013 0.01478 0.57399 0.0
C948 C 0.63619 0.01411 0.59989 0.0
C949 C 0.65093 0.00871 0.60474 0.0
C950 C 0.63347 0.01069 0.52545 0.0
C951 C 0.62679 0.01869 0.62255 0.0
H952 H 0.60114 0.05422 0.55158 0.0
H953 H 0.56218 0.99106 0.55905 0.0
H954 H 0.6434 0.05612 0.58336 0.0
H955 H 0.64542 0.05459 0.54897 0.0
H956 H 0.63558 0.06957 0.56212 0.0
H957 H 0.57307 0.96929 0.57205 0.0
H958 H 0.59706 0.97635 0.55813 0.0
H959 H 0.59527 0.97999 0.59211 0.0
H960 H 0.66111 1.00167 0.54279 0.0
H961 H 0.65536 0.00811 0.62459 0.0
H962 H 0.63451 0.02522 0.52104 0.0
H963 H 0.61767 0.99893 0.52233 0.0
H964 H 0.64295 0.00817 0.51152 0.0
H965 H 0.62752 0.03326 0.61967 0.0
H966 H 0.6342 0.01913 0.64131 0.0
H967 H 0.61076 0.00717 0.6238 0.0
C968 C 0.06904 0.62689 0.5341 0.0
C969 C 0.05749 0.61113 0.55097 0.0
C970 C 0.06987 0.64535 0.53641 0.0
C971 C 0.0591 0.64832 0.5564 0.0
C972 C 0.04663 0.63214 0.57281 0.0
C973 C 0.04588 0.6136 0.5698 0.0
C974 C 0.08309 0.66197 0.51817 0.0
C975 C 0.03491 0.6347 0.59435 0.0
C976 C 0.08237 0.70226 0.57943 0.0
C977 C 0.07073 0.70881 0.5663 0.0
C978 C 0.07828 0.68244 0.57707 0.0
C979 C 0.0622 0.66879 0.56107 0.0
C980 C 0.05024 0.67526 0.54801 0.0
C981 C 0.05462 0.69516 0.55082 0.0
C982 C 0.09143 0.67621 0.59134 0.0
C983 C 0.03309 0.66127 0.53061 0.0
H984 H 0.07794 0.62491 0.51939 0.0
H985 H 0.03708 0.60146 0.58296 0.0
H986 H 0.07471 0.66875 0.50944 0.0
H987 H 0.09591 0.67389 0.52918 0.0
H988 H 0.08903 0.6567 0.50226 0.0
H989 H 0.02445 0.6203 0.60369 0.0
H990 H 0.04539 0.64494 0.60938 0.0
H991 H 0.02626 0.64158 0.58679 0.0
H992 H 0.09474 0.71265 0.59159 0.0
H993 H 0.04547 0.70006 0.54072 0.0
H994 H 0.0996 0.67215 0.57714 0.0
H995 H 0.08215 0.66281 0.60324 0.0
H996 H 0.10252 0.68822 0.60424 0.0
H997 H 0.0389 0.65671 0.51383 0.0
H998 H 0.02445 0.6682 0.52313 0.0
H999 H 0.02281 0.6475 0.54129 0.0
C1000 C 0.46983 0.46909 0.55088 0.0
C1001 C 0.48481 0.47245 0.56912 0.0
C1002 C 0.44955 0.45752 0.55702 0.0
C1003 C 0.44407 0.44878 0.58188 0.0
C1004 C 0.45904 0.4513 0.59999 0.0
C1005 C 0.47925 0.4632 0.59344 0.0
C1006 C 0.434 0.45521 0.5372 0.0
C1007 C 0.45372 0.44196 0.62659 0.0
C1008 C 0.39394 0.43755 0.60894 0.0
C1009 C 0.38226 0.41704 0.60408 0.0
C1010 C 0.41405 0.4481 0.60155 0.0
C1011 C 0.4227 0.43779 0.58935 0.0
C1012 C 0.41095 0.41708 0.58432 0.0
C1013 C 0.39079 0.40696 0.5916 0.0
C1014 C 0.42607 0.47026 0.60687 0.0
C1015 C 0.41973 0.40558 0.5716 0.0
H1016 H 0.47394 0.47574 0.53181 0.0
H1017 H 0.49065 0.46577 0.60772 0.0
H1018 H 0.42325 0.43918 0.53364 0.0
H1019 H 0.42535 0.46206 0.54478 0.0
H1020 H 0.44074 0.46232 0.51838 0.0
H1021 H 0.46706 0.44409 0.63765 0.0
H1022 H 0.44632 0.44867 0.63791 0.0
H1023 H 0.44297 0.42574 0.62485 0.0
H1024 H 0.38735 0.44538 0.61853 0.0
H1025 H 0.38181 0.39106 0.58795 0.0
H1026 H 0.43233 0.4784 0.58848 0.0
H1027 H 0.43886 0.47358 0.61993 0.0
H1028 H 0.41698 0.4761 0.61602 0.0
H1029 H 0.42586 0.41201 0.55231 0.0
H1030 H 0.40855 0.38952 0.569 0.0
H1031 H 0.43233 0.40685 0.58357 0.0
C1032 C 0.67537 0.78306 0.37728 0.0
C1033 C 0.67962 0.8006 0.39063 0.0
C1034 C 0.68415 0.77173 0.38489 0.0
C1035 C 0.69742 0.77804 0.40646 0.0
C1036 C 0.70111 0.79525 0.42068 0.0
C1037 C 0.6922 0.80636 0.41254 0.0
C1038 C 0.67991 0.7535 0.36916 0.0
C1039 C 0.71499 0.80233 0.44394 0.0
C1040 C 0.70967 0.74048 0.43641 0.0
C1041 C 0.7282 0.74594 0.42514 0.0
C1042 C 0.69957 0.75094 0.43077 0.0
C1043 C 0.70816 0.76715 0.41331 0.0
C1044 C 0.72693 0.7728 0.40198 0.0
C1045 C 0.73676 0.76216 0.40811 0.0
C1046 C 0.67966 0.74457 0.44334 0.0
C1047 C 0.73652 0.78995 0.38316 0.0
H1048 H 0.66593 0.77869 0.36011 0.0
H1049 H 0.69537 0.81981 0.423 0.0
H1050 H 0.69383 0.75598 0.35964 0.0
H1051 H 0.67484 0.74038 0.38202 0.0
H1052 H 0.66834 0.74993 0.35392 0.0
H1053 H 0.7152 0.81519 0.45393 0.0
H1054 H 0.71046 0.79003 0.45808 0.0
H1055 H 0.73041 0.80687 0.4377 0.0
H1056 H 0.70301 0.72798 0.44965 0.0
H1057 H 0.75106 0.76641 0.39933 0.0
H1058 H 0.66786 0.73995 0.42819 0.0
H1059 H 0.68023 0.75731 0.45409 0.0
H1060 H 0.67527 0.73199 0.45701 0.0
H1061 H 0.72655 0.78695 0.36609 0.0
H1062 H 0.75123 0.79255 0.37622 0.0
H1063 H 0.73868 0.80384 0.39254 0.0
C1064 C 0.27726 0.97328 0.39858 0.0
C1065 C 0.28259 0.95846 0.40203 0.0
C1066 C 0.29048 0.9934 0.40526 0.0
C1067 C 0.30957 0.99906 0.41593 0.0
C1068 C 0.31506 0.98425 0.41953 0.0
C1069 C 0.30164 0.96427 0.41247 0.0
C1070 C 0.28398 0.00865 0.4009 0.0
C1071 C 0.33521 0.98951 0.43087 0.0
C1072 C 0.35162 0.05343 0.41207 0.0
C1073 C 0.35156 0.06072 0.43707 0.0
C1074 C 0.33792 0.03357 0.40486 0.0
C1075 C 0.32385 0.02046 0.42313 0.0
C1076 C 0.32367 0.02776 0.44839 0.0
C1077 C 0.33742 0.04778 0.45499 0.0
C1078 C 0.33859 0.02659 0.37766 0.0
C1079 C 0.3091 0.01435 0.46858 0.0
H1080 H 0.26264 0.96921 0.39091 0.0
H1081 H 0.30625 0.95325 0.41499 0.0
H1082 H 0.28403 0.01581 0.41962 0.0
H1083 H 0.2947 0.0206 0.38793 0.0
H1084 H 0.26879 1.00198 0.39211 0.0
H1085 H 0.33713 0.97626 0.43295 0.0
H1086 H 0.34728 1.00053 0.4183 0.0
H1087 H 0.33713 0.99657 0.45026 0.0
H1088 H 0.36243 0.06329 0.39803 0.0
H1089 H 0.33727 0.05321 0.47437 0.0
H1090 H 0.32378 0.02069 0.36806 0.0
H1091 H 0.34196 0.01422 0.3784 0.0
H1092 H 0.35003 0.03872 0.36551 0.0
H1093 H 0.29355 0.00819 0.46132 0.0
H1094 H 0.3107 0.02228 0.48724 0.0
H1095 H 0.31143 1.00152 0.47232 0.0
C1096 C 0.14088 0.36877 0.39547 0.0
C1097 C 0.15446 0.38765 0.40566 0.0
C1098 C 0.12009 0.36052 0.3989 0.0
C1099 C 0.11277 0.37143 0.41274 0.0
C1100 C 0.1265 0.39014 0.42381 0.0
C1101 C 0.14706 0.39794 0.42021 0.0
C1102 C 0.10595 0.34044 0.38701 0.0
C1103 C 0.11946 0.40236 0.4387 0.0
C1104 C 0.06157 0.36568 0.39954 0.0
C1105 C 0.05095 0.35566 0.42181 0.0
C1106 C 0.08137 0.37002 0.39574 0.0
C1107 C 0.09084 0.36413 0.4146 0.0
C1108 C 0.0799 0.35324 0.43658 0.0
C1109 C 0.06012 0.34921 0.43998 0.0
C1110 C 0.09246 0.38175 0.37209 0.0
C1111 C 0.08934 0.34654 0.45704 0.0
H1112 H 0.14643 0.36072 0.38418 0.0
H1113 H 0.15737 0.41247 0.42837 0.0
H1114 H 0.09503 0.33055 0.40166 0.0
H1115 H 0.09731 0.34229 0.37103 0.0
H1116 H 0.11394 0.33299 0.37908 0.0
H1117 H 0.13207 0.41625 0.447 0.0
H1118 H 0.11063 0.4065 0.42564 0.0
H1119 H 0.10953 0.39346 0.45477 0.0
H1120 H 0.05458 0.37064 0.38533 0.0
H1121 H 0.05198 0.34133 0.45715 0.0
H1122 H 0.09946 0.37416 0.36186 0.0
H1123 H 0.10466 0.3967 0.37819 0.0
H1124 H 0.08253 0.38376 0.3582 0.0
H1125 H 0.09672 0.33891 0.44788 0.0
H1126 H 0.07824 0.33629 0.47131 0.0
H1127 H 0.10106 0.35974 0.46768 0.0
C1128 C 0.14426 0.36155 0.84662 0.0
C1129 C 0.16474 0.37573 0.84581 0.0
C1130 C 0.12979 0.36524 0.835 0.0
C1131 C 0.13579 0.38371 0.82255 0.0
C1132 C 0.15646 0.3979 0.82117 0.0
C1133 C 0.17062 0.3937 0.83258 0.0
C1134 C 0.108 0.34951 0.83661 0.0
C1135 C 0.16362 0.41788 0.80845 0.0
C1136 C 0.09965 0.38926 0.77632 0.0
C1137 C 0.09131 0.39778 0.79258 0.0
C1138 C 0.11398 0.38449 0.78577 0.0
C1139 C 0.12045 0.38859 0.81207 0.0
C1140 C 0.11227 0.39746 0.82844 0.0
C1141 C 0.09774 0.40178 0.81859 0.0
C1142 C 0.12201 0.3748 0.76768 0.0
C1143 C 0.11886 0.40242 0.85645 0.0
H1144 H 0.13947 0.34762 0.85672 0.0
H1145 H 0.18633 0.40488 0.83191 0.0
H1146 H 0.09995 0.3551 0.84871 0.0
H1147 H 0.10103 0.34627 0.81698 0.0
H1148 H 0.10584 0.33539 0.84516 0.0
H1149 H 0.18019 0.42699 0.80801 0.0
H1150 H 0.15781 0.41581 0.78825 0.0
H1151 H 0.15776 0.42634 0.81916 0.0
H1152 H 0.0947 0.38598 0.75626 0.0
H1153 H 0.09145 0.40837 0.83133 0.0
H1154 H 0.11882 0.36017 0.77559 0.0
H1155 H 0.13849 0.3842 0.76622 0.0
H1156 H 0.11541 0.37243 0.74787 0.0
H1157 H 0.11541 0.38862 0.86709 0.0
H1158 H 0.11148 0.40974 0.86648 0.0
H1159 H 0.13529 0.41248 0.85753 0.0
C1160 C 0.70528 0.81458 0.78722 0.0
C1161 C 0.72058 0.82273 0.80601 0.0
C1162 C 0.69731 0.79479 0.77849 0.0
C1163 C 0.70467 0.78275 0.78901 0.0
C1164 C 0.72022 0.79094 0.80784 0.0
C1165 C 0.72806 0.81084 0.816 0.0
C1166 C 0.68095 0.78673 0.75812 0.0
C1167 C 0.72835 0.77857 0.81976 0.0
C1168 C 0.67225 0.72615 0.78678 0.0
C1169 C 0.68128 0.72107 0.76688 0.0
C1170 C 0.67948 0.74618 0.79389 0.0
C1171 C 0.696 0.76152 0.78058 0.0
C1172 C 0.70473 0.7565 0.75988 0.0
C1173 C 0.69734 0.73634 0.75339 0.0
C1174 C 0.66984 0.75089 0.81619 0.0
C1175 C 0.72218 0.7724 0.74499 0.0
H1176 H 0.69959 0.82376 0.77927 0.0
H1177 H 0.73966 0.81693 0.83078 0.0
H1178 H 0.68553 0.78114 0.74112 0.0
H1179 H 0.66723 0.77392 0.76604 0.0
H1180 H 0.67727 0.79818 0.75138 0.0
H1181 H 0.74054 0.78718 0.83405 0.0
H1182 H 0.71618 0.76545 0.82969 0.0
H1183 H 0.73418 0.77282 0.80435 0.0
H1184 H 0.65989 0.71441 0.79736 0.0
H1185 H 0.70436 0.73253 0.73795 0.0
H1186 H 0.66499 0.76154 0.80989 0.0
H1187 H 0.68089 0.75817 0.83216 0.0
H1188 H 0.65669 0.73733 0.82393 0.0
H1189 H 0.7185 0.78364 0.73748 0.0
H1190 H 0.72645 0.76612 0.72839 0.0
H1191 H 0.73531 0.78032 0.75813 0.0
C1192 C 0.26308 0.91071 0.78932 0.0
C1193 C 0.25428 0.90385 0.81365 0.0
C1194 C 0.2838 0.92298 0.78697 0.0
C1195 C 0.29603 0.92841 0.80951 0.0
C1196 C 0.28746 0.91988 0.83373 0.0
C1197 C 0.26661 0.90769 0.83555 0.0
C1198 C 0.29231 0.93166 0.76073 0.0
C1199 C 0.30004 0.925 0.85813 0.0
C1200 C 0.35192 0.95929 0.79714 0.0
C1201 C 0.35492 0.9787 0.79918 0.0
C1202 C 0.33299 0.9426 0.80169 0.0
C1203 C 0.31681 0.9455 0.80826 0.0
C1204 C 0.32005 0.9651 0.81142 0.0
C1205 C 0.33904 0.98142 0.80688 0.0
C1206 C 0.33015 0.92193 0.79849 0.0
C1207 C 0.30323 0.96889 0.81846 0.0
H1208 H 0.25368 0.90755 0.77222 0.0
H1209 H 0.25995 0.90233 0.85442 0.0
H1210 H 0.29668 0.94768 0.76053 0.0
H1211 H 0.30593 0.93069 0.75684 0.0
H1212 H 0.28136 0.92397 0.74473 0.0
H1213 H 0.29208 0.91417 0.87391 0.0
H1214 H 0.31436 0.92537 0.85431 0.0
H1215 H 0.30367 0.94005 0.86504 0.0
H1216 H 0.3642 0.95713 0.79133 0.0
H1217 H 0.34131 0.99638 0.80871 0.0
H1218 H 0.32135 0.91495 0.78056 0.0
H1219 H 0.32161 0.91234 0.81503 0.0
H1220 H 0.34464 0.92218 0.79708 0.0
H1221 H 0.29179 0.96322 0.80272 0.0
H1222 H 0.30849 0.985 0.82151 0.0
H1223 H 0.29581 0.96077 0.83645 0.0
C1224 C 0.68121 0.93205 0.3142 0.0
C1225 C 0.66285 0.91421 0.31512 0.0
C1226 C 0.68216 0.95007 0.3076 0.0
C1227 C 0.66428 0.95031 0.30214 0.0
C1228 C 0.64568 0.93234 0.30303 0.0
C1229 C 0.64521 0.91444 0.30929 0.0
C1230 C 0.70231 0.96887 0.30649 0.0
C1231 C 0.62629 0.93209 0.29773 0.0
C1232 C 0.66686 1.00022 0.31119 0.0
C1233 C 0.66866 0.00688 0.28552 0.0
C1234 C 0.66493 0.98161 0.31679 0.0
C1235 C 0.66511 0.96951 0.29624 0.0
C1236 C 0.66685 0.97612 0.27025 0.0
C1237 C 0.66844 0.9947 0.26517 0.0
C1238 C 0.66285 0.97496 0.34473 0.0
C1239 C 0.6674 0.96374 0.24788 0.0
H1240 H 0.6949 0.93183 0.31819 0.0
H1241 H 0.63104 0.90065 0.31012 0.0
H1242 H 0.70447 0.97582 0.28707 0.0
H1243 H 0.70303 0.97985 0.32099 0.0
H1244 H 0.71483 0.96599 0.31037 0.0
H1245 H 0.61311 0.91684 0.29895 0.0
H1246 H 0.62444 0.94186 0.31195 0.0
H1247 H 0.62655 0.93812 0.27812 0.0
H1248 H 0.66685 0.00953 0.32697 0.0
H1249 H 0.66984 0.99984 0.24531 0.0
H1250 H 0.67581 0.97329 0.35047 0.0
H1251 H 0.64922 0.96017 0.34698 0.0
H1252 H 0.66196 0.98569 0.35831 0.0
H1253 H 0.68044 0.96146 0.25016 0.0
H1254 H 0.66845 0.97084 0.22878 0.0
H1255 H 0.65379 0.94878 0.24789 0.0
C1256 C 0.16951 0.80675 0.3412 0.0
C1257 C 0.18171 0.8206 0.32254 0.0
C1258 C 0.15264 0.78851 0.33384 0.0
C1259 C 0.14745 0.78423 0.30717 0.0
C1260 C 0.15969 0.79827 0.28828 0.0
C1261 C 0.17676 0.81612 0.29616 0.0
C1262 C 0.14036 0.77383 0.35464 0.0
C1263 C 0.15447 0.79469 0.25973 0.0
C1264 C 0.11294 0.73057 0.28402 0.0
C1265 C 0.09422 0.72946 0.28346 0.0
C1266 C 0.13029 0.74814 0.29208 0.0
C1267 C 0.12906 0.76527 0.29902 0.0
C1268 C 0.11022 0.76431 0.29795 0.0
C1269 C 0.09303 0.74636 0.2906 0.0
C1270 C 0.1499 0.74827 0.29359 0.0
C1271 C 0.10823 0.7823 0.30442 0.0
H1272 H 0.1733 0.81017 0.36158 0.0
H1273 H 0.18592 0.82693 0.28169 0.0
H1274 H 0.12502 0.77165 0.3546 0.0
H1275 H 0.13901 0.7591 0.35056 0.0
H1276 H 0.14698 0.77888 0.37433 0.0
H1277 H 0.16539 0.80715 0.24749 0.0
H1278 H 0.15391 0.78072 0.25329 0.0
H1279 H 0.1394 0.7928 0.25632 0.0
H1280 H 0.11394 0.7175 0.2788 0.0
H1281 H 0.07862 0.74562 0.29015 0.0
H1282 H 0.15616 0.75228 0.31358 0.0
H1283 H 0.1609 0.75974 0.28037 0.0
H1284 H 0.14828 0.73359 0.28831 0.0
H1285 H 0.1128 0.78692 0.32488 0.0
H1286 H 0.0927 0.77937 0.30166 0.0
H1287 H 0.11833 0.79504 0.29198 0.0
C1288 C 0.25752 0.39748 0.30871 0.0
C1289 C 0.25173 0.39643 0.33474 0.0
C1290 C 0.27655 0.40059 0.30219 0.0
C1291 C 0.29028 0.40288 0.32215 0.0
C1292 C 0.28422 0.40097 0.34842 0.0
C1293 C 0.26503 0.39769 0.35439 0.0
C1294 C 0.28226 0.40224 0.27393 0.0
C1295 C 0.29835 0.40333 0.37033 0.0
C1296 C 0.33641 0.39894 0.30574 0.0
C1297 C 0.35125 0.41907 0.30367 0.0
C1298 C 0.31651 0.39342 0.31157 0.0
C1299 C 0.31129 0.40839 0.31561 0.0
C1300 C 0.32622 0.42874 0.31346 0.0
C1301 C 0.34596 0.43382 0.30744 0.0
C1302 C 0.30107 0.37158 0.31348 0.0
C1303 C 0.32135 0.44519 0.31772 0.0
H1304 H 0.24739 0.39648 0.29335 0.0
H1305 H 0.2608 0.397 0.37457 0.0
H1306 H 0.29425 0.4177 0.26978 0.0
H1307 H 0.28827 0.39219 0.26947 0.0
H1308 H 0.26941 0.39848 0.26072 0.0
H1309 H 0.29098 0.40012 0.38958 0.0
H1310 H 0.30452 0.39323 0.3673 0.0
H1311 H 0.31115 0.41883 0.3706 0.0
H1312 H 0.34035 0.38743 0.30284 0.0
H1313 H 0.35733 0.44941 0.30595 0.0
H1314 H 0.28867 0.36786 0.29952 0.0
H1315 H 0.29453 0.36824 0.33321 0.0
H1316 H 0.30745 0.36175 0.30943 0.0
H1317 H 0.30965 0.44357 0.30371 0.0
H1318 H 0.33464 0.46027 0.31543 0.0
H1319 H 0.31529 0.44408 0.33752 0.0
C1320 C 0.25585 0.36083 0.91478 0.0
C1321 C 0.24823 0.35562 0.88932 0.0
C1322 C 0.27092 0.35711 0.9241 0.0
C1323 C 0.27862 0.34777 0.90773 0.0
C1324 C 0.2705 0.34184 0.88233 0.0
C1325 C 0.25553 0.34588 0.87344 0.0
C1326 C 0.27911 0.36381 0.95123 0.0
C1327 C 0.27804 0.33169 0.86424 0.0
C1328 C 0.3316 0.35714 0.92084 0.0
C1329 C 0.32802 0.33982 0.93409 0.0
C1330 C 0.31574 0.35991 0.91227 0.0
C1331 C 0.29565 0.34495 0.91682 0.0
C1332 C 0.29195 0.3274 0.93016 0.0
C1333 C 0.30811 0.32509 0.93868 0.0
C1334 C 0.3205 0.37892 0.89833 0.0
C1335 C 0.27086 0.31098 0.9353 0.0
H1336 H 0.2505 0.36844 0.92728 0.0
H1337 H 0.24988 0.34179 0.85374 0.0
H1338 H 0.27815 0.35112 0.96241 0.0
H1339 H 0.29514 0.37538 0.95029 0.0
H1340 H 0.27099 0.37005 0.96196 0.0
H1341 H 0.26933 0.32679 0.84579 0.0
H1342 H 0.29394 0.34207 0.85955 0.0
H1343 H 0.27731 0.3185 0.87381 0.0
H1344 H 0.34688 0.36863 0.91716 0.0
H1345 H 0.30513 0.31161 0.9488 0.0
H1346 H 0.31393 0.38678 0.90892 0.0
H1347 H 0.31372 0.37538 0.87859 0.0
H1348 H 0.33685 0.3892 0.89649 0.0
H1349 H 0.2629 0.31685 0.94706 0.0
H1350 H 0.27042 0.2982 0.94573 0.0
H1351 H 0.26255 0.30547 0.91668 0.0
C1352 C 0.73747 0.95726 0.90206 0.0
C1353 C 0.74835 0.95877 0.87958 0.0
C1354 C 0.73572 0.97349 0.91113 0.0
C1355 C 0.74515 0.99175 0.89747 0.0
C1356 C 0.75672 0.99361 0.87529 0.0
C1357 C 0.75816 0.97712 0.86662 0.0
C1358 C 0.72331 0.97091 0.93491 0.0
C1359 C 0.76705 0.01283 0.86019 0.0
C1360 C 0.72388 0.02675 0.90177 0.0
C1361 C 0.73727 0.04145 0.91906 0.0
C1362 C 0.72611 0.01036 0.89491 0.0
C1363 C 0.74215 0.00863 0.90556 0.0
C1364 C 0.75556 0.02327 0.92333 0.0
C1365 C 0.75294 0.0395 0.92989 0.0
C1366 C 0.71144 0.99504 0.87597 0.0
C1367 C 0.77286 0.02199 0.93506 0.0
H1368 H 0.7301 0.94326 0.91244 0.0
H1369 H 0.76639 0.97847 0.84907 0.0
H1370 H 0.73219 0.98271 0.94945 0.0
H1371 H 0.71024 0.97251 0.92949 0.0
H1372 H 0.7178 0.95611 0.94411 0.0
H1373 H 0.77647 0.01226 0.84435 0.0
H1374 H 0.75572 0.016 0.85152 0.0
H1375 H 0.7766 0.02547 0.87335 0.0
H1376 H 0.71173 0.02814 0.89334 0.0
H1377 H 0.76336 0.05082 0.94325 0.0
H1378 H 0.70442 0.97997 0.88475 0.0
H1379 H 0.71942 0.99462 0.85831 0.0
H1380 H 0.69946 0.99823 0.87003 0.0
H1381 H 0.76733 0.00749 0.94504 0.0
H1382 H 0.78155 0.03422 0.94922 0.0
H1383 H 0.78306 0.02269 0.91947 0.0
C1384 C 0.14969 0.82677 0.88875 0.0
C1385 C 0.14715 0.84284 0.88145 0.0
C1386 C 0.13365 0.80924 0.89887 0.0
C1387 C 0.11469 0.8078 0.90145 0.0
C1388 C 0.11227 0.82422 0.89487 0.0
C1389 C 0.12852 0.84153 0.88509 0.0
C1390 C 0.13679 0.79208 0.90603 0.0
C1391 C 0.09228 0.82326 0.89715 0.0
C1392 C 0.06652 0.75855 0.89573 0.0
C1393 C 0.05954 0.75555 0.92132 0.0
C1394 C 0.08498 0.77501 0.88925 0.0
C1395 C 0.09685 0.78871 0.90891 0.0
C1396 C 0.09035 0.78523 0.93503 0.0
C1397 C 0.07166 0.76872 0.94092 0.0
C1398 C 0.09125 0.77828 0.86112 0.0
C1399 C 0.10275 0.79939 0.95654 0.0
H1400 H 0.16408 0.82774 0.88615 0.0
H1401 H 0.1264 0.8539 0.87967 0.0
H1402 H 0.13089 0.78657 0.92573 0.0
H1403 H 0.12842 0.77951 0.89224 0.0
H1404 H 0.15282 0.79631 0.90557 0.0
H1405 H 0.09315 0.83768 0.89238 0.0
H1406 H 0.0813 0.81162 0.88378 0.0
H1407 H 0.08644 0.81903 0.91715 0.0
H1408 H 0.05726 0.74835 0.88051 0.0
H1409 H 0.06639 0.76632 0.96078 0.0
H1410 H 0.10667 0.78088 0.85917 0.0
H1411 H 0.09127 0.7918 0.85384 0.0
H1412 H 0.08112 0.76543 0.84855 0.0
H1413 H 0.11851 0.80285 0.95527 0.0
H1414 H 0.09693 0.79322 0.97607 0.0
H1415 H 0.10272 0.81366 0.95445 0.0
C1416 C 0.34564 0.12236 0.74212 0.0
C1417 C 0.35977 0.1426 0.73892 0.0
C1418 C 0.35165 0.10814 0.74615 0.0
C1419 C 0.37228 0.11432 0.74693 0.0
C1420 C 0.38661 0.13469 0.74362 0.0
C1421 C 0.38019 0.14856 0.73976 0.0
C1422 C 0.33594 0.08653 0.74965 0.0
C1423 C 0.40875 0.14186 0.7444 0.0
C1424 C 0.38922 0.08216 0.78205 0.0
C1425 C 0.39237 0.07225 0.76135 0.0
C1426 C 0.38253 0.09577 0.77762 0.0
C1427 C 0.37896 0.0996 0.75185 0.0
C1428 C 0.38217 0.08969 0.73084 0.0
C1429 C 0.38883 0.07609 0.73585 0.0
C1430 C 0.37929 0.10606 0.80053 0.0
C1431 C 0.3786 0.09348 0.70309 0.0
H1432 H 0.32986 0.11759 0.7412 0.0
H1433 H 0.39126 0.16418 0.7378 0.0
H1434 H 0.33769 0.07719 0.73467 0.0
H1435 H 0.33789 0.08123 0.76888 0.0
H1436 H 0.32052 0.08414 0.74829 0.0
H1437 H 0.41796 0.15814 0.74076 0.0
H1438 H 0.41297 0.13861 0.76366 0.0
H1439 H 0.41248 0.13378 0.72963 0.0
H1440 H 0.39188 0.0792 0.80182 0.0
H1441 H 0.39121 0.06843 0.7198 0.0
H1442 H 0.3636 0.10289 0.80063 0.0
H1443 H 0.38903 0.12245 0.79887 0.0
H1444 H 0.38254 0.10124 0.81938 0.0
H1445 H 0.36289 0.08998 0.70053 0.0
H1446 H 0.38162 0.08443 0.68898 0.0
H1447 H 0.38832 0.10949 0.69843 0.0
C1448 C 0.92238 0.2571 0.74328 0.0
C1449 C 0.91605 0.2503 0.71777 0.0
C1450 C 0.93901 0.27608 0.74838 0.0
C1451 C 0.9495 0.28892 0.7275 0.0
C1452 C 0.9435 0.28196 0.70165 0.0
C1453 C 0.927 0.26273 0.6971 0.0
C1454 C 0.94501 0.28259 0.77622 0.0
C1455 C 0.95399 0.29514 0.67875 0.0
C1456 C 0.97763 0.34493 0.74293 0.0
C1457 C 0.9975 0.34912 0.74517 0.0
C1458 C 0.96201 0.32558 0.73664 0.0
C1459 C 0.9662 0.30984 0.73284 0.0
C1460 C 0.98626 0.31402 0.73503 0.0
C1461 C 1.00163 0.33357 0.74096 0.0
C1462 C 0.94095 0.32197 0.73421 0.0
C1463 C 0.99146 0.29774 0.73154 0.0
H1464 H 0.91406 0.24766 0.75941 0.0
H1465 H 0.92212 0.25779 0.67731 0.0
H1466 H 0.96114 0.28779 0.77916 0.0
H1467 H 0.94271 0.29534 0.78078 0.0
H1468 H 0.93628 0.27041 0.79019 0.0
H1469 H 0.94813 0.28729 0.65989 0.0
H1470 H 0.95209 0.30846 0.67924 0.0
H1471 H 0.97027 0.30056 0.67987 0.0
H1472 H 0.97428 0.35683 0.74603 0.0
H1473 H 0.0169 0.3366 0.7427 0.0
H1474 H 0.93137 0.31118 0.74918 0.0
H1475 H 0.93455 0.31527 0.71496 0.0
H1476 H 0.94025 0.3359 0.73653 0.0
H1477 H 0.98356 0.28596 0.74627 0.0
H1478 H 0.00777 0.30342 0.73344 0.0
H1479 H 0.98636 0.29063 0.71216 0.0
C1480 C 0.81644 0.72102 0.73243 0.0
C1481 C 0.82649 0.71257 0.71958 0.0
C1482 C 0.7958 0.71015 0.73653 0.0
C1483 C 0.78473 0.69011 0.7279 0.0
C1484 C 0.7948 0.68116 0.71573 0.0
C1485 C 0.81559 0.69255 0.71154 0.0
C1486 C 0.78574 0.72042 0.74938 0.0
C1487 C 0.78355 0.65974 0.70662 0.0
C1488 C 0.73306 0.66372 0.75803 0.0
C1489 C 0.72176 0.66679 0.73905 0.0
C1490 C 0.75331 0.66975 0.75384 0.0
C1491 C 0.7625 0.67932 0.7303 0.0
C1492 C 0.7508 0.68131 0.71051 0.0
C1493 C 0.73058 0.67493 0.71508 0.0
C1494 C 0.76515 0.66702 0.77526 0.0
C1495 C 0.75996 0.69158 0.68522 0.0
H1496 H 0.82464 0.73644 0.73884 0.0
H1497 H 0.82323 0.68588 0.7017 0.0
H1498 H 0.77481 0.7209 0.73571 0.0
H1499 H 0.77734 0.71193 0.76668 0.0
H1500 H 0.79657 0.73593 0.75556 0.0
H1501 H 0.79375 0.65436 0.70008 0.0
H1502 H 0.77402 0.64995 0.72244 0.0
H1503 H 0.77349 0.65824 0.69022 0.0
H1504 H 0.7263 0.65727 0.77651 0.0
H1505 H 0.72193 0.67725 0.70023 0.0
H1506 H 0.77506 0.68161 0.78478 0.0
H1507 H 0.77482 0.66147 0.76725 0.0
H1508 H 0.7553 0.65644 0.79027 0.0
H1509 H 0.77012 0.70773 0.68891 0.0
H1510 H 0.74848 0.68991 0.67075 0.0
H1511 H 0.76904 0.68554 0.6767 0.0
C1512 C 0.83239 0.74531 0.16081 0.0
C1513 C 0.83005 0.72854 0.14712 0.0
C1514 C 0.81995 0.75357 0.15537 0.0
C1515 C 0.80494 0.74496 0.1357 0.0
C1516 C 0.80337 0.72872 0.121 0.0
C1517 C 0.81579 0.72074 0.12694 0.0
C1518 C 0.82222 0.77087 0.17155 0.0
C1519 C 0.78786 0.71905 0.09971 0.0
C1520 C 0.75611 0.74646 0.13829 0.0
C1521 C 0.75887 0.76045 0.11904 0.0
C1522 C 0.77127 0.74201 0.14466 0.0
C1523 C 0.78981 0.75167 0.13147 0.0
C1524 C 0.79289 0.76622 0.1125 0.0
C1525 C 0.77745 0.77044 0.10655 0.0
C1526 C 0.76716 0.72641 0.165 0.0
C1527 C 0.8123 0.7769 0.09787 0.0
H1528 H 0.84318 0.75131 0.17661 0.0
H1529 H 0.81389 0.70784 0.11614 0.0
H1530 H 0.82281 0.78275 0.15889 0.0
H1531 H 0.80902 0.76577 0.18428 0.0
H1532 H 0.83588 0.77733 0.18395 0.0
H1533 H 0.78952 0.70755 0.0888 0.0
H1534 H 0.77268 0.71187 0.10824 0.0
H1535 H 0.78889 0.73047 0.08581 0.0
H1536 H 0.74191 0.73872 0.14822 0.0
H1537 H 0.77983 0.78133 0.09174 0.0
H1538 H 0.77929 0.73236 0.17982 0.0
H1539 H 0.76684 0.71326 0.1558 0.0
H1540 H 0.75269 0.72138 0.17492 0.0
H1541 H 0.82515 0.78333 0.11164 0.0
H1542 H 0.81314 0.78904 0.0855 0.0
H1543 H 0.8139 0.76611 0.08529 0.0
C1544 C 0.40274 0.15539 0.15025 0.0
C1545 C 0.39185 0.16255 0.16379 0.0
C1546 C 0.39402 0.1351 0.14336 0.0
C1547 C 0.37402 0.12161 0.15053 0.0
C1548 C 0.36298 0.12878 0.16423 0.0
C1549 C 0.37199 0.14913 0.17057 0.0
C1550 C 0.40621 0.12809 0.12848 0.0
C1551 C 0.34174 0.11489 0.17258 0.0
C1552 C 0.34404 0.07181 0.11534 0.0
C1553 C 0.34565 0.05864 0.13258 0.0
C1554 C 0.35348 0.09237 0.12071 0.0
C1555 C 0.36463 0.09994 0.14403 0.0
C1556 C 0.36627 0.0867 0.16153 0.0
C1557 C 0.35686 0.06623 0.15553 0.0
C1558 C 0.35149 0.106 0.10145 0.0
C1559 C 0.3778 0.09413 0.18675 0.0
H1560 H 0.41805 0.16572 0.14492 0.0
H1561 H 0.3636 0.15444 0.18151 0.0
H1562 H 0.40779 0.11684 0.14 0.0
H1563 H 0.3984 0.12073 0.1101 0.0
H1564 H 0.42136 0.14052 0.1238 0.0
H1565 H 0.33518 0.12284 0.18303 0.0
H1566 H 0.33223 0.1072 0.15539 0.0
H1567 H 0.34126 0.1032 0.18552 0.0
H1568 H 0.33549 0.06606 0.0975 0.0
H1569 H 0.35816 0.05614 0.16893 0.0
H1570 H 0.36652 0.11795 0.09546 0.0
H1571 H 0.34387 0.11337 0.11066 0.0
H1572 H 0.34289 0.09788 0.08381 0.0
H1573 H 0.39351 0.10561 0.1828 0.0
H1574 H 0.37779 0.08194 0.19816 0.0
H1575 H 0.37122 0.10131 0.19878 0.0
C1576 C 0.93258 0.2804 0.12336 0.0
C1577 C 0.92425 0.26761 0.1446 0.0
C1578 C 0.95321 0.29356 0.12182 0.0
C1579 C 0.96592 0.29401 0.14207 0.0
C1580 C 0.95779 0.28024 0.16278 0.0
C1581 C 0.93699 0.26715 0.1638 0.0
C1582 C 0.9612 0.30786 0.0993 0.0
C1583 C 0.97084 0.28016 0.18467 0.0
C1584 C 0.0214 0.3243 0.12686 0.0
C1585 C 0.02637 0.34301 0.13728 0.0
C1586 C 1.00202 0.30785 0.12939 0.0
C1587 C 0.98726 0.31022 0.14255 0.0
C1588 C 0.99245 0.32888 0.15402 0.0
C1589 C 0.01192 0.34503 0.15126 0.0
C1590 C 0.99714 0.28817 0.11712 0.0
C1591 C 0.97718 0.33206 0.16826 0.0
H1592 H 0.92282 0.28072 0.10835 0.0
H1593 H 0.93064 0.25739 0.18036 0.0
H1594 H 0.96678 0.32332 0.10643 0.0
H1595 H 0.97398 0.30739 0.09027 0.0
H1596 H 0.94963 0.30448 0.08412 0.0
H1597 H 0.96293 0.26663 0.19688 0.0
H1598 H 0.98465 0.28101 0.17699 0.0
H1599 H 0.97543 0.29347 0.19721 0.0
H1600 H 0.03254 0.3226 0.11617 0.0
H1601 H 0.01568 0.35941 0.15952 0.0
H1602 H 0.98686 0.28501 0.10036 0.0
H1603 H 0.98934 0.27585 0.1312 0.0
H1604 H 0.01072 0.28812 0.11015 0.0
H1605 H 0.96542 0.33059 0.15444 0.0
H1606 H 0.98394 0.347 0.17766 0.0
H1607 H 0.96975 0.32051 0.18338 0.0
C1608 C 0.31488 0.24382 0.65168 0.0
C1609 C 0.31785 0.23962 0.67725 0.0
C1610 C 0.31257 0.26034 0.64612 0.0
C1611 C 0.31291 0.2727 0.66671 0.0
C1612 C 0.31456 0.26771 0.6927 0.0
C1613 C 0.31724 0.25134 0.69763 0.0
C1614 C 0.31122 0.26534 0.61812 0.0
C1615 C 0.31459 0.28026 0.71523 0.0
C1616 C 0.33418 0.32774 0.65313 0.0
C1617 C 0.31687 0.32913 0.64983 0.0
C1618 C 0.33301 0.30942 0.65836 0.0
C1619 C 0.31405 0.29208 0.66091 0.0
C1620 C 0.29647 0.2934 0.65788 0.0
C1621 C 0.29809 0.31192 0.65207 0.0
C1622 C 0.35213 0.30863 0.66099 0.0
C1623 C 0.27602 0.27529 0.66098 0.0
H1624 H 0.31558 0.23491 0.63589 0.0
H1625 H 0.31937 0.24795 0.71741 0.0
H1626 H 0.29869 0.26833 0.61532 0.0
H1627 H 0.32518 0.27912 0.61278 0.0
H1628 H 0.30909 0.25318 0.60463 0.0
H1629 H 0.31323 0.27288 0.7342 0.0
H1630 H 0.32874 0.29478 0.71536 0.0
H1631 H 0.30213 0.28345 0.71319 0.0
H1632 H 0.34873 0.34099 0.65123 0.0
H1633 H 0.28469 0.313 0.64962 0.0
H1634 H 0.3521 0.29776 0.64683 0.0
H1635 H 0.35321 0.30345 0.68069 0.0
H1636 H 0.36564 0.32337 0.65768 0.0
H1637 H 0.27385 0.26366 0.6466 0.0
H1638 H 0.26384 0.27887 0.65842 0.0
H1639 H 0.27475 0.26881 0.68057 0.0
C1640 C 0.8286 0.13498 0.66269 0.0
C1641 C 0.83701 0.1484 0.64199 0.0
C1642 C 0.81375 0.11489 0.65829 0.0
C1643 C 0.80695 0.10798 0.63261 0.0
C1644 C 0.81588 0.1213 0.61165 0.0
C1645 C 0.83077 0.14119 0.61656 0.0
C1646 C 0.80486 0.1012 0.68123 0.0
C1647 C 0.80911 0.11479 0.58398 0.0
C1648 C 0.77666 0.05225 0.61547 0.0
C1649 C 0.75698 0.04882 0.6152 0.0
C1650 C 0.793 0.07123 0.62176 0.0
C1651 C 0.7897 0.08731 0.6276 0.0
C1652 C 0.76984 0.08386 0.62741 0.0
C1653 C 0.7538 0.06472 0.6214 0.0
C1654 C 0.81383 0.0741 0.622 0.0
C1655 C 0.76553 0.10051 0.63314 0.0
H1656 H 0.83319 0.1403 0.68242 0.0
H1657 H 0.83708 0.15129 0.60032 0.0
H1658 H 0.78897 0.09711 0.68338 0.0
H1659 H 0.8052 0.08717 0.67801 0.0
H1660 H 0.81291 0.10822 0.69966 0.0
H1661 H 0.81819 0.1266 0.56973 0.0
H1662 H 0.81001 0.10126 0.57922 0.0
H1663 H 0.79325 0.11084 0.58169 0.0
H1664 H 0.77929 0.04006 0.61088 0.0
H1665 H 0.73869 0.06227 0.62127 0.0
H1666 H 0.82118 0.08031 0.64102 0.0
H1667 H 0.82299 0.08502 0.60691 0.0
H1668 H 0.81386 0.05994 0.61835 0.0
H1669 H 0.77159 0.10709 0.65254 0.0
H1670 H 0.74927 0.09536 0.6327 0.0
H1671 H 0.77307 0.11257 0.61866 0.0
C1672 C 0.95522 0.76479 0.65576 0.0
C1673 C 0.93637 0.74753 0.65762 0.0
C1674 C 0.97123 0.76448 0.64361 0.0
C1675 C 0.96849 0.74643 0.63284 0.0
C1676 C 0.94945 0.72894 0.63417 0.0
C1677 C 0.93356 0.72968 0.6466 0.0
C1678 C 0.99126 0.78348 0.64278 0.0
C1679 C 0.94598 0.70945 0.62281 0.0
C1680 C 0.00994 0.75503 0.58605 0.0
C1681 C 0.0233 0.75297 0.60258 0.0
C1682 C 0.99134 0.75163 0.59515 0.0
C1683 C 0.98603 0.74608 0.62138 0.0
C1684 C 0.99906 0.74301 0.63772 0.0
C1685 C 0.01752 0.74651 0.62814 0.0
C1686 C 0.97785 0.75502 0.57708 0.0
C1687 C 0.99405 0.73714 0.66582 0.0
H1688 H 0.95763 0.77872 0.66407 0.0
H1689 H 0.91906 0.7163 0.64789 0.0
H1690 H 1.0026 0.78141 0.65352 0.0
H1691 H 0.99638 0.78714 0.62241 0.0
H1692 H 0.99075 0.7964 0.65144 0.0
H1693 H 0.93008 0.6975 0.6241 0.0
H1694 H 0.95052 0.71145 0.60213 0.0
H1695 H 0.95536 0.70451 0.63325 0.0
H1696 H 0.01425 0.75986 0.56621 0.0
H1697 H 0.02768 0.74467 0.64097 0.0
H1698 H 0.9778 0.76881 0.58298 0.0
H1699 H 0.96225 0.7425 0.57832 0.0
H1700 H 0.98279 0.75662 0.55656 0.0
H1701 H 0.99466 0.74978 0.67687 0.0
H1702 H 1.00459 0.73308 0.67504 0.0
H1703 H 0.97865 0.72433 0.66748 0.0
C1704 C 0.91787 0.68373 0.19394 0.0
C1705 C 0.91406 0.69896 0.20174 0.0
C1706 C 0.93482 0.68305 0.20263 0.0
C1707 C 0.94855 0.6979 0.21991 0.0
C1708 C 0.94518 0.71373 0.22734 0.0
C1709 C 0.92803 0.71415 0.21805 0.0
C1710 C 0.93776 0.66605 0.19369 0.0
C1711 C 0.95938 0.72989 0.24569 0.0
C1712 C 0.97916 0.68094 0.2605 0.0
C1713 C 0.997 0.68857 0.24644 0.0
C1714 C 0.9637 0.68466 0.25283 0.0
C1715 C 0.96598 0.69628 0.23043 0.0
C1716 C 0.98421 0.70449 0.2166 0.0
C1717 C 0.99943 0.70058 0.22474 0.0
C1718 C 0.94461 0.67557 0.26824 0.0
C1719 C 0.98738 0.71684 0.19256 0.0
H1720 H 0.90737 0.67203 0.18106 0.0
H1721 H 0.92522 0.72593 0.22429 0.0
H1722 H 0.95266 0.67196 0.18465 0.0
H1723 H 0.93727 0.65697 0.21063 0.0
H1724 H 0.92617 0.65613 0.17942 0.0
H1725 H 0.9554 0.74174 0.24849 0.0
H1726 H 0.95924 0.72329 0.26487 0.0
H1727 H 0.97488 0.73679 0.23827 0.0
H1728 H 0.9771 0.67174 0.27734 0.0
H1729 H 0.01315 0.70664 0.21373 0.0
H1730 H 0.93217 0.6641 0.25625 0.0
H1731 H 0.94067 0.68713 0.27335 0.0
H1732 H 0.94577 0.66845 0.28639 0.0
H1733 H 0.97707 0.7073 0.17691 0.0
H1734 H 1.00296 0.72368 0.18534 0.0
H1735 H 0.98388 0.72887 0.19656 0.0
C1736 C 0.4429 0.32037 0.23309 0.0
C1737 C 0.42679 0.30091 0.23608 0.0
C1738 C 0.44167 0.33706 0.24148 0.0
C1739 C 0.42396 0.33427 0.25342 0.0
C1740 C 0.40797 0.3147 0.25748 0.0
C1741 C 0.40953 0.29832 0.24868 0.0
C1742 C 0.45905 0.35771 0.23677 0.0
C1743 C 0.38886 0.31103 0.27026 0.0
C1744 C 0.42453 0.3769 0.29153 0.0
C1745 C 0.41606 0.38421 0.27354 0.0
C1746 C 0.4273 0.36072 0.28525 0.0
C1747 C 0.42162 0.35176 0.26031 0.0
C1748 C 0.41315 0.35917 0.24205 0.0
C1749 C 0.4104 0.37523 0.24891 0.0
C1750 C 0.43618 0.35313 0.30534 0.0
C1751 C 0.40697 0.35011 0.21521 0.0
H1752 H 0.4564 0.32261 0.22375 0.0
H1753 H 0.39679 0.28354 0.2509 0.0
H1754 H 0.45444 0.36576 0.22304 0.0
H1755 H 0.46366 0.36642 0.25516 0.0
H1756 H 0.47217 0.35736 0.22858 0.0
H1757 H 0.37847 0.29494 0.27389 0.0
H1758 H 0.39223 0.31921 0.28902 0.0
H1759 H 0.38113 0.31676 0.25766 0.0
H1760 H 0.42896 0.38379 0.31059 0.0
H1761 H 0.40395 0.38088 0.23485 0.0
H1762 H 0.44989 0.35376 0.29766 0.0
H1763 H 0.42545 0.33727 0.30972 0.0
H1764 H 0.44004 0.36187 0.32373 0.0
H1765 H 0.41993 0.35068 0.20515 0.0
H1766 H 0.40104 0.3579 0.20307 0.0
H1767 H 0.39529 0.33417 0.21667 0.0
C1768 C 0.79693 0.18212 0.20149 0.0
C1769 C 0.8171 0.18818 0.20615 0.0
C1770 C 0.7816 0.16472 0.21248 0.0
C1771 C 0.78646 0.15307 0.22889 0.0
C1772 C 0.8068 0.15886 0.23341 0.0
C1773 C 0.82195 0.17635 0.22179 0.0
C1774 C 0.76014 0.15897 0.20673 0.0
C1775 C 0.81251 0.14686 0.25093 0.0
C1776 C 0.74285 0.12133 0.27273 0.0
C1777 C 0.73292 0.10353 0.25838 0.0
C1778 C 0.76132 0.1371 0.26455 0.0
C1779 C 0.76994 0.13506 0.24132 0.0
C1780 C 0.76065 0.11661 0.2278 0.0
C1781 C 0.74228 0.10104 0.23654 0.0
C1782 C 0.77086 0.15644 0.27972 0.0
C1783 C 0.76925 0.11381 0.2029 0.0
H1784 H 0.79305 0.19105 0.18916 0.0
H1785 H 0.83753 0.18102 0.22549 0.0
H1786 H 0.75196 0.14368 0.19841 0.0
H1787 H 0.75253 0.15891 0.22499 0.0
H1788 H 0.75894 0.16934 0.19288 0.0
H1789 H 0.82891 0.15278 0.25145 0.0
H1790 H 0.80737 0.147 0.27098 0.0
H1791 H 0.80499 0.13106 0.24439 0.0
H1792 H 0.73579 0.12327 0.28978 0.0
H1793 H 0.73477 0.08726 0.22544 0.0
H1794 H 0.76887 0.16774 0.26891 0.0
H1795 H 0.78716 0.16233 0.28206 0.0
H1796 H 0.76413 0.15464 0.29925 0.0
H1797 H 0.76692 0.1222 0.18709 0.0
H1798 H 0.76206 0.09786 0.197 0.0
H1799 H 0.78558 0.1198 0.20493 0.0
C1800 C 1.00532 0.47476 0.92091 0.0
C1801 C 0.01962 0.48316 0.94094 0.0
C1802 C 0.00829 0.46529 0.89933 0.0
C1803 C 0.02586 0.46381 0.89781 0.0
C1804 C 0.04024 0.47205 0.91816 0.0
C1805 C 0.03704 0.48175 0.93929 0.0
C1806 C 0.99271 0.45707 0.87797 0.0
C1807 C 0.05902 0.47057 0.91766 0.0
C1808 C 0.02487 0.42374 0.85288 0.0
C1809 C 0.0354 0.4349 0.83116 0.0
C1810 C 0.02186 0.43294 0.87475 0.0
C1811 C 0.02926 0.45382 0.87485 0.0
C1812 C 0.03979 0.46513 0.85288 0.0
C1813 C 0.04286 0.45559 0.83147 0.0
C1814 C 0.01082 0.42031 0.89782 0.0
C1815 C 0.0477 0.48734 0.85189 0.0
H1816 H 0.99195 0.47599 0.92183 0.0
H1817 H 0.04805 0.48798 0.95479 0.0
H1818 H 0.99955 0.46426 0.85926 0.0
H1819 H 0.98689 0.44083 0.87556 0.0
H1820 H 0.97994 0.45952 0.88193 0.0
H1821 H 0.06849 0.47726 0.93524 0.0
H1822 H 0.05508 0.45469 0.91621 0.0
H1823 H 0.06795 0.47825 0.90027 0.0
H1824 H 0.01911 0.40777 0.8529 0.0
H1825 H 0.05095 0.46435 0.81477 0.0
H1826 H 0.99715 0.42126 0.90136 0.0
H1827 H 0.02033 0.42604 0.91552 0.0
H1828 H 1.00644 0.40439 0.89502 0.0
H1829 H 0.03523 0.49047 0.85436 0.0
H1830 H 0.05534 0.49398 0.8333 0.0
H1831 H 0.05841 0.49487 0.86812 0.0
C1832 C 0.56905 0.59633 0.91144 0.0
C1833 C 0.57152 0.58435 0.92986 0.0
C1834 C 0.58276 0.60545 0.89123 0.0
C1835 C 0.59941 0.6025 0.88918 0.0
C1836 C 0.6022 0.59067 0.90791 0.0
C1837 C 0.58826 0.5818 0.92807 0.0
C1838 C 0.5793 0.61811 0.8719 0.0
C1839 C 0.61969 0.58708 0.90634 0.0
C1840 C 0.62139 0.61051 0.82133 0.0
C1841 C 0.63748 0.6301 0.82302 0.0
C1842 C 0.60941 0.60105 0.84301 0.0
C1843 C 0.6135 0.61146 0.86698 0.0
C1844 C 0.63018 0.63099 0.86905 0.0
C1845 C 0.64199 0.64005 0.84707 0.0
C1846 C 0.59188 0.58017 0.83997 0.0
C1847 C 0.63505 0.64264 0.89419 0.0
H1848 H 0.5564 0.59872 0.91293 0.0
H1849 H 0.59021 0.57247 0.94209 0.0
H1850 H 0.59254 0.63332 0.87133 0.0
H1851 H 0.57727 0.61158 0.85214 0.0
H1852 H 0.56594 0.61938 0.87662 0.0
H1853 H 0.62014 0.5781 0.92289 0.0
H1854 H 0.61881 0.57913 0.88797 0.0
H1855 H 0.63392 0.60151 0.90607 0.0
H1856 H 0.61783 0.60269 0.80285 0.0
H1857 H 0.65439 0.6552 0.84854 0.0
H1858 H 0.57772 0.58045 0.84214 0.0
H1859 H 0.59227 0.57037 0.85541 0.0
H1860 H 0.59169 0.57351 0.82075 0.0
H1861 H 0.62293 0.64592 0.89879 0.0
H1862 H 0.64939 0.65698 0.89323 0.0
H1863 H 0.63593 0.6337 0.91044 0.0
C1864 C 0.49797 0.09229 0.94604 0.0
C1865 C 0.5116 0.08576 0.95134 0.0
C1866 C 0.48638 0.08636 0.92316 0.0
C1867 C 0.48873 0.07382 0.90511 0.0
C1868 C 0.5032 0.06802 0.9098 0.0
C1869 C 0.51438 0.07397 0.93294 0.0
C1870 C 0.47099 0.09272 0.91892 0.0
C1871 C 0.50638 0.05494 0.89084 0.0
C1872 C 0.44444 0.03954 0.86237 0.0
C1873 C 0.44921 0.05002 0.83891 0.0
C1874 C 0.45715 0.04721 0.88409 0.0
C1875 C 0.47516 0.06568 0.88218 0.0
C1876 C 0.48019 0.0762 0.85843 0.0
C1877 C 0.46709 0.06829 0.83709 0.0
C1878 C 0.4512 0.03561 0.90915 0.0
C1879 C 0.49939 0.09581 0.85559 0.0
H1880 H 0.49568 0.10124 0.96036 0.0
H1881 H 0.52511 0.06914 0.93692 0.0
H1882 H 0.47285 0.09959 0.8995 0.0
H1883 H 0.45578 0.07944 0.91943 0.0
H1884 H 0.47196 0.10354 0.93391 0.0
H1885 H 0.51935 0.05316 0.89633 0.0
H1886 H 0.49282 0.03994 0.89001 0.0
H1887 H 0.5088 0.06128 0.87101 0.0
H1888 H 0.4306 0.02546 0.86389 0.0
H1889 H 0.47084 0.07643 0.81895 0.0
H1890 H 0.45028 0.04492 0.92493 0.0
H1891 H 0.46272 0.03175 0.91499 0.0
H1892 H 0.43656 0.02161 0.9075 0.0
H1893 H 0.49973 0.10689 0.86961 0.0
H1894 H 0.50124 0.10197 0.83568 0.0
H1895 H 0.51237 0.09383 0.86019 0.0
C1896 C 0.47237 0.99227 0.61642 0.0
C1897 C 0.47991 0.00759 0.59799 0.0
C1898 C 0.46238 0.99331 0.63859 0.0
C1899 C 0.45984 0.01007 0.64236 0.0
C1900 C 0.46693 0.02532 0.62347 0.0
C1901 C 0.47686 0.02388 0.60154 0.0
C1902 C 0.45502 0.97676 0.6583 0.0
C1903 C 0.46441 0.04337 0.62668 0.0
C1904 C 0.4212 0.00763 0.69001 0.0
C1905 C 0.43316 0.0177 0.71165 0.0
C1906 C 0.42962 1.00474 0.66744 0.0
C1907 C 0.45048 0.01211 0.66652 0.0
C1908 C 0.46257 0.02204 0.68846 0.0
C1909 C 0.45377 0.0247 0.71076 0.0
C1910 C 0.41624 0.99407 0.64444 0.0
C1911 C 0.48489 0.03015 0.68823 0.0
H1912 H 0.47481 0.97973 0.61392 0.0
H1913 H 0.48229 0.03559 0.58714 0.0
H1914 H 0.46308 0.98269 0.677 0.0
H1915 H 0.43889 0.97082 0.66206 0.0
H1916 H 0.45723 0.96427 0.65185 0.0
H1917 H 0.4701 0.05353 0.60973 0.0
H1918 H 0.4484 0.03865 0.62936 0.0
H1919 H 0.47255 0.05185 0.64435 0.0
H1920 H 0.40526 1.00217 0.69061 0.0
H1921 H 0.46309 0.03248 0.72744 0.0
H1922 H 0.41795 0.98116 0.63869 0.0
H1923 H 0.42071 1.00426 0.62756 0.0
H1924 H 0.40023 0.98864 0.64859 0.0
H1925 H 0.48814 0.01804 0.68354 0.0
H1926 H 0.49208 0.03697 0.70714 0.0
H1927 H 0.49181 0.04161 0.67288 0.0
C1928 C 0.08047 0.52634 0.6307 0.0
C1929 C 0.0713 0.52092 0.60608 0.0
C1930 C 0.0771 0.51188 0.6497 0.0
C1931 C 0.06459 0.49131 0.64392 0.0
C1932 C 0.05552 0.48573 0.61893 0.0
C1933 C 0.05877 0.50056 0.6005 0.0
C1934 C 0.08673 0.51867 0.67615 0.0
C1935 C 0.04243 0.46406 0.61158 0.0
C1936 C 0.07063 0.45406 0.68699 0.0
C1937 C 0.05414 0.44718 0.70359 0.0
C1938 C 0.07396 0.46801 0.66719 0.0
C1939 C 0.06078 0.47574 0.66418 0.0
C1940 C 0.04416 0.46887 0.681 0.0
C1941 C 0.04093 0.45459 0.7002 0.0
C1942 C 0.09162 0.4745 0.64947 0.0
C1943 C 0.02992 0.4769 0.67904 0.0
H1944 H 0.08997 0.54201 0.63531 0.0
H1945 H 0.0518 0.4962 0.58148 0.0
H1946 H 0.07505 0.51317 0.69133 0.0
H1947 H 0.0965 0.51227 0.68032 0.0
H1948 H 0.09582 0.53518 0.67775 0.0
H1949 H 0.03708 0.46211 0.59112 0.0
H1950 H 0.05083 0.45597 0.61427 0.0
H1951 H 0.02926 0.45699 0.6245 0.0
H1952 H 0.08089 0.44841 0.68934 0.0
H1953 H 0.02821 0.4495 0.71298 0.0
H1954 H 0.10206 0.49074 0.65183 0.0
H1955 H 0.08652 0.47187 0.6289 0.0
H1956 H 0.09991 0.46644 0.65344 0.0
H1957 H 0.03823 0.49333 0.6819 0.0
H1958 H 0.0178 0.4702 0.69363 0.0
H1959 H 0.02305 0.47393 0.65938 0.0
C1960 C 0.57748 0.59032 0.58589 0.0
C1961 C 0.55848 0.57436 0.59193 0.0
C1962 C 0.59013 0.6034 0.60533 0.0
C1963 C 0.58366 0.6005 0.63146 0.0
C1964 C 0.564 0.58528 0.63738 0.0
C1965 C 0.55166 0.57242 0.61756 0.0
C1966 C 0.61091 0.61952 0.59812 0.0
C1967 C 0.55644 0.58171 0.66494 0.0
C1968 C 0.62305 0.61431 0.68436 0.0
C1969 C 0.62525 0.63226 0.69408 0.0
C1970 C 0.60965 0.60396 0.66397 0.0
C1971 C 0.59811 0.61173 0.65289 0.0
C1972 C 0.6003 0.62992 0.66252 0.0
C1973 C 0.61384 0.63997 0.68304 0.0
C1974 C 0.60779 0.58461 0.65437 0.0
C1975 C 0.58832 0.6387 0.65118 0.0
H1976 H 0.5829 0.59205 0.56615 0.0
H1977 H 0.53698 0.56025 0.62247 0.0
H1978 H 0.61438 0.63397 0.60709 0.0
H1979 H 0.622 0.61561 0.6057 0.0
H1980 H 0.61278 0.62148 0.57676 0.0
H1981 H 0.54015 0.57091 0.66591 0.0
H1982 H 0.56448 0.57574 0.67646 0.0
H1983 H 0.55945 0.59591 0.67423 0.0
H1984 H 0.6318 0.60824 0.69276 0.0
H1985 H 0.61549 0.65386 0.69043 0.0
H1986 H 0.61131 0.58572 0.63337 0.0
H1987 H 0.59219 0.57229 0.65668 0.0
H1988 H 0.61792 0.58066 0.66496 0.0
H1989 H 0.59118 0.64118 0.63005 0.0
H1990 H 0.59195 0.65309 0.66056 0.0
H1991 H 0.57211 0.62808 0.65349 0.0
C1992 C 0.02566 0.5627 0.13001 0.0
C1993 C 0.02228 0.56534 0.10386 0.0
C1994 C 0.02817 0.5768 0.14923 0.0
C1995 C 0.02696 0.59393 0.14238 0.0
C1996 C 0.02336 0.5966 0.11602 0.0
C1997 C 0.02126 0.58241 0.09711 0.0
C1998 C 0.03234 0.57345 0.17691 0.0
C1999 C 0.02159 0.61439 0.10781 0.0
C2000 C 0.01537 0.61995 0.19742 0.0
C2001 C 0.03426 0.63637 0.20313 0.0
C2002 C 0.01271 0.60637 0.17735 0.0
C2003 C 0.0294 0.60894 0.16283 0.0
C2004 C 0.04851 0.62556 0.16845 0.0
C2005 C 0.05067 0.63913 0.18831 0.0
C2006 C 0.99202 0.58914 0.17181 0.0
C2007 C 0.06678 0.62878 0.15385 0.0
H2008 H 0.0268 0.54976 0.13539 0.0
H2009 H 0.01852 0.58451 0.07701 0.0
H2010 H 0.04666 0.58629 0.18374 0.0
H2011 H 0.02042 0.57246 0.18982 0.0
H2012 H 0.03321 0.5596 0.17904 0.0
H2013 H 0.01853 0.61422 0.08667 0.0
H2014 H 0.00937 0.6147 0.11869 0.0
H2015 H 0.03561 0.62839 0.1126 0.0
H2016 H 1.00258 0.61771 0.20865 0.0
H2017 H 0.06533 0.6517 0.19263 0.0
H2018 H 0.99162 0.57483 0.17567 0.0
H2019 H 0.98813 0.58907 0.15101 0.0
H2020 H 0.98044 0.58978 0.18385 0.0
H2021 H 0.06903 0.6158 0.15671 0.0
H2022 H 0.08053 0.6425 0.16029 0.0
H2023 H 0.06463 0.62986 0.13272 0.0
C2024 C 0.4871 0.50461 0.11284 0.0
C2025 C 0.50438 0.52273 0.11879 0.0
C2026 C 0.4734 0.49335 0.13235 0.0
C2027 C 0.47692 0.50058 0.1583 0.0
C2028 C 0.49389 0.51933 0.16408 0.0
C2029 C 0.50746 0.53006 0.14433 0.0
C2030 C 0.45568 0.47332 0.12541 0.0
C2031 C 0.49808 0.52777 0.19135 0.0
C2032 C 0.43586 0.4781 0.20932 0.0
C2033 C 0.4415 0.46616 0.2234 0.0
C2034 C 0.44699 0.48914 0.18773 0.0
C2035 C 0.46394 0.48793 0.17985 0.0
C2036 C 0.46927 0.47538 0.19357 0.0
C2037 C 0.4581 0.46481 0.21525 0.0
C2038 C 0.44098 0.50254 0.17383 0.0
C2039 C 0.48704 0.4734 0.18568 0.0
H2040 H 0.48477 0.49886 0.09315 0.0
H2041 H 0.52067 0.54419 0.14888 0.0
H2042 H 0.45732 0.46133 0.13491 0.0
H2043 H 0.44168 0.47225 0.13272 0.0
H2044 H 0.45418 0.47053 0.10411 0.0
H2045 H 0.51088 0.54328 0.19217 0.0
H2046 H 0.48469 0.52766 0.19933 0.0
H2047 H 0.50153 0.51833 0.20415 0.0
H2048 H 0.42304 0.47921 0.21555 0.0
H2049 H 0.46245 0.45547 0.2259 0.0
H2050 H 0.43906 0.49904 0.15274 0.0
H2051 H 0.453 0.51831 0.176 0.0
H2052 H 0.42687 0.50106 0.18148 0.0
H2053 H 0.48585 0.46927 0.16482 0.0
H2054 H 0.48838 0.46201 0.19727 0.0
H2055 H 0.50098 0.48794 0.18825 0.0
C2056 C 0.58282 0.09263 0.14654 0.0
C2057 C 0.5849 0.09085 0.11982 0.0
C2058 C 0.59518 0.09017 0.1645 0.0
C2059 C 0.61018 0.08621 0.15542 0.0
C2060 C 0.61286 0.08525 0.12838 0.0
C2061 C 0.60006 0.08741 0.11092 0.0
C2062 C 0.59168 0.09102 0.19319 0.0
C2063 C 0.62892 0.08146 0.11791 0.0
C2064 C 0.65116 0.09366 0.20312 0.0
C2065 C 0.64463 0.07402 0.21098 0.0
C2066 C 0.64031 0.09785 0.18464 0.0
C2067 C 0.62235 0.08204 0.17419 0.0
C2068 C 0.6158 0.06217 0.18192 0.0
C2069 C 0.62713 0.05838 0.20006 0.0
C2070 C 0.64795 0.11917 0.17647 0.0
C2071 C 0.5966 0.04493 0.17144 0.0
H2072 H 0.57097 0.0951 0.15338 0.0
H2073 H 0.6018 0.0863 0.09021 0.0
H2074 H 0.58707 0.0763 0.20207 0.0
H2075 H 0.60572 0.10211 0.20302 0.0
H2076 H 0.57995 0.09501 0.19705 0.0
H2077 H 0.62999 0.08263 0.0964 0.0
H2078 H 0.64366 0.09225 0.12649 0.0
H2079 H 0.62573 0.0663 0.1235 0.0
H2080 H 0.66473 0.10578 0.21148 0.0
H2081 H 0.62198 0.04319 0.20622 0.0
H2082 H 0.63705 0.12391 0.18194 0.0
H2083 H 0.64953 0.12041 0.15505 0.0
H2084 H 0.66262 0.12963 0.18557 0.0
H2085 H 0.58385 0.04717 0.17624 0.0
H2086 H 0.5936 0.03037 0.17946 0.0
H2087 H 0.59723 0.04426 0.14996 0.0
C2088 C 0.57544 0.05216 0.42621 0.0
C2089 C 0.56409 0.032 0.43309 0.0
C2090 C 0.58971 0.0583 0.40644 0.0
C2091 C 0.5929 0.04396 0.39349 0.0
C2092 C 0.58149 0.02358 0.40038 0.0
C2093 C 0.5671 0.01783 0.41997 0.0
C2094 C 0.60131 0.08011 0.39932 0.0
C2095 C 0.58461 0.00788 0.3872 0.0
C2096 C 0.61586 0.05425 0.32639 0.0
C2097 C 0.63565 0.05932 0.33201 0.0
C2098 C 0.60195 0.04982 0.34628 0.0
C2099 C 0.60791 0.05018 0.37242 0.0
C2100 C 0.62802 0.0558 0.37827 0.0
C2101 C 0.64172 0.06046 0.35796 0.0
C2102 C 0.58075 0.04425 0.33927 0.0
C2103 C 0.63487 0.05618 0.40591 0.0
H2104 H 0.57296 0.0631 0.43615 0.0
H2105 H 0.55853 1.00229 0.42551 0.0
H2106 H 0.61756 0.08587 0.40203 0.0
H2107 H 0.59882 0.08197 0.37851 0.0
H2108 H 0.59696 0.08935 0.41119 0.0
H2109 H 0.5748 0.99274 0.39518 0.0
H2110 H 0.58158 0.00754 0.36607 0.0
H2111 H 0.60041 0.01161 0.38953 0.0
H2112 H 0.61114 0.05344 0.30633 0.0
H2113 H 0.65698 0.06426 0.36235 0.0
H2114 H 0.57621 0.05367 0.35032 0.0
H2115 H 0.57042 0.02852 0.34469 0.0
H2116 H 0.57888 0.04596 0.31819 0.0
H2117 H 0.63143 0.06592 0.41811 0.0
H2118 H 0.65116 0.06159 0.40727 0.0
H2119 H 0.62666 0.04094 0.41417 0.0
C2120 C 0.04904 0.58969 0.42961 0.0
C2121 C 0.06763 0.60002 0.44243 0.0
C2122 C 0.04429 0.59811 0.40837 0.0
C2123 C 0.05837 0.61748 0.39968 0.0
C2124 C 0.07707 0.62808 0.41273 0.0
C2125 C 0.0815 0.61922 0.43377 0.0
C2126 C 0.02428 0.58612 0.39496 0.0
C2127 C 0.09248 0.64882 0.40439 0.0
C2128 C 0.05561 0.6323 0.32959 0.0
C2129 C 0.04636 0.64392 0.33226 0.0
C2130 C 0.05932 0.62345 0.35122 0.0
C2131 C 0.05384 0.62636 0.37641 0.0
C2132 C 0.04431 0.63792 0.37923 0.0
C2133 C 0.0406 0.64647 0.35716 0.0
C2134 C 0.06931 0.61111 0.34711 0.0
C2135 C 0.03832 0.64154 0.40566 0.0
H2136 H 0.03828 0.5748 0.43591 0.0
H2137 H 0.09576 0.62749 0.44371 0.0
H2138 H 0.01614 0.59458 0.39499 0.0
H2139 H 0.0265 0.58348 0.37437 0.0
H2140 H 0.01479 0.57147 0.40438 0.0
H2141 H 0.10603 0.65537 0.41701 0.0
H2142 H 0.09704 0.64844 0.38409 0.0
H2143 H 0.08597 0.65878 0.40481 0.0
H2144 H 0.06011 0.63018 0.31048 0.0
H2145 H 0.03354 0.65549 0.35948 0.0
H2146 H 0.05988 0.59593 0.3551 0.0
H2147 H 0.0838 0.61798 0.35771 0.0
H2148 H 0.07208 0.60974 0.32626 0.0
H2149 H 0.02807 0.62711 0.41502 0.0
H2150 H 0.03081 0.65061 0.40464 0.0
H2151 H 0.05174 0.64937 0.41836 0.0
C2152 C 0.49861 0.51724 0.45837 0.0
C2153 C 0.51508 0.51419 0.45849 0.0
C2154 C 0.4842 0.50934 0.43826 0.0
C2155 C 0.48647 0.49836 0.41775 0.0
C2156 C 0.50354 0.49603 0.41731 0.0
C2157 C 0.51753 0.50387 0.43769 0.0
C2158 C 0.46617 0.51208 0.43947 0.0
C2159 C 0.50675 0.48467 0.3957 0.0
C2160 C 0.44267 0.458 0.37935 0.0
C2161 C 0.44445 0.46747 0.35551 0.0
C2162 C 0.45558 0.46824 0.40027 0.0
C2163 C 0.47074 0.48841 0.39725 0.0
C2164 C 0.47205 0.49828 0.37358 0.0
C2165 C 0.45887 0.4877 0.35302 0.0
C2166 C 0.45357 0.45719 0.42523 0.0
C2167 C 0.48798 0.51973 0.36952 0.0
H2168 H 0.49657 0.52509 0.47448 0.0
H2169 H 0.5303 0.50158 0.43754 0.0
H2170 H 0.46414 0.51802 0.4208 0.0
H2171 H 0.45255 0.49742 0.44256 0.0
H2172 H 0.4674 0.52235 0.45543 0.0
H2173 H 0.52134 0.48515 0.39748 0.0
H2174 H 0.49465 0.46884 0.3959 0.0
H2175 H 0.50609 0.49091 0.37657 0.0
H2176 H 0.43149 0.44241 0.38148 0.0
H2177 H 0.46029 0.49515 0.33469 0.0
H2178 H 0.45318 0.46595 0.4421 0.0
H2179 H 0.46676 0.4552 0.42785 0.0
H2180 H 0.43988 0.44225 0.4254 0.0
H2181 H 0.48822 0.52918 0.38592 0.0
H2182 H 0.48572 0.52585 0.35112 0.0
H2183 H 0.50287 0.52081 0.36896 0.0
C2184 C 0.70889 0.85575 0.26807 0.0
C2185 C 0.71451 0.84923 0.2904 0.0
C2186 C 0.70893 0.84797 0.24314 0.0
C2187 C 0.71473 0.83326 0.24024 0.0
C2188 C 0.72112 0.82722 0.26259 0.0
C2189 C 0.72093 0.8352 0.28719 0.0
C2190 C 0.70208 0.85498 0.21998 0.0
C2191 C 0.72754 0.81172 0.2607 0.0
C2192 C 0.69508 0.79601 0.18323 0.0
C2193 C 0.71167 0.80342 0.1667 0.0
C2194 C 0.69573 0.80579 0.20675 0.0
C2195 C 0.7134 0.82354 0.21421 0.0
C2196 C 0.73007 0.83131 0.19734 0.0
C2197 C 0.72902 0.8212 0.17393 0.0
C2198 C 0.67757 0.79685 0.22396 0.0
C2199 C 0.74922 0.85013 0.20427 0.0
H2200 H 0.70375 0.86642 0.27016 0.0
H2201 H 0.72532 0.82997 0.30413 0.0
H2202 H 0.71339 0.85997 0.20436 0.0
H2203 H 0.68802 0.84242 0.21202 0.0
H2204 H 0.69939 0.86743 0.22501 0.0
H2205 H 0.73303 0.8093 0.27958 0.0
H2206 H 0.71476 0.79732 0.25401 0.0
H2207 H 0.73957 0.81628 0.24614 0.0
H2208 H 0.68159 0.78232 0.17795 0.0
H2209 H 0.74195 0.82713 0.1614 0.0
H2210 H 0.673 0.80808 0.22825 0.0
H2211 H 0.68125 0.79242 0.24278 0.0
H2212 H 0.66469 0.78352 0.21499 0.0
H2213 H 0.74611 0.86242 0.20841 0.0
H2214 H 0.76045 0.8549 0.18854 0.0
H2215 H 0.75578 0.84772 0.22219 0.0
C2216 C 0.23851 0.93576 0.28954 0.0
C2217 C 0.22138 0.91687 0.28665 0.0
C2218 C 0.24983 0.94645 0.26789 0.0
C2219 C 0.24386 0.93818 0.24261 0.0
C2220 C 0.22604 0.9196 0.23946 0.0
C2221 C 0.21508 0.90918 0.26145 0.0
C2222 C 0.26869 0.96619 0.2722 0.0
C2223 C 0.21898 0.9103 0.2129 0.0
C2224 C 0.26662 0.97198 0.18376 0.0
C2225 C 0.28152 0.96762 0.17629 0.0
C2226 C 0.25423 0.96251 0.20519 0.0
C2227 C 0.25682 0.94838 0.21967 0.0
C2228 C 0.27184 0.94392 0.21219 0.0
C2229 C 0.28395 0.95353 0.1906 0.0
C2230 C 0.23837 0.96765 0.21234 0.0
C2231 C 0.2752 0.92903 0.22708 0.0
H2232 H 0.24362 0.94187 0.30886 0.0
H2233 H 0.20189 0.89464 0.25891 0.0
H2234 H 0.28185 0.96484 0.26667 0.0
H2235 H 0.26863 0.97782 0.25968 0.0
H2236 H 0.27055 0.97126 0.29276 0.0
H2237 H 0.20405 0.89661 0.21348 0.0
H2238 H 0.21821 0.92112 0.19948 0.0
H2239 H 0.22983 0.90635 0.20468 0.0
H2240 H 0.26462 0.98284 0.17282 0.0
H2241 H 0.29543 0.95009 0.18504 0.0
H2242 H 0.24095 0.97364 0.23247 0.0
H2243 H 0.22343 0.95399 0.21185 0.0
H2244 H 0.23815 0.97884 0.19905 0.0
H2245 H 0.27878 0.93381 0.24769 0.0
H2246 H 0.28754 0.92728 0.21891 0.0
H2247 H 0.26134 0.91425 0.22687 0.0
C2248 C 0.16966 0.40835 0.28928 0.0
C2249 C 0.18375 0.42775 0.29737 0.0
C2250 C 0.15663 0.40506 0.26842 0.0
C2251 C 0.15773 0.42157 0.25514 0.0
C2252 C 0.17177 0.44121 0.26326 0.0
C2253 C 0.18467 0.44407 0.28428 0.0
C2254 C 0.14198 0.38388 0.26025 0.0
C2255 C 0.17332 0.45915 0.24954 0.0
C2256 C 0.13839 0.41098 0.18579 0.0
C2257 C 0.11904 0.40805 0.18855 0.0
C2258 C 0.15134 0.41597 0.20721 0.0
C2259 C 0.14477 0.41808 0.23201 0.0
C2260 C 0.12537 0.41551 0.23487 0.0
C2261 C 0.11271 0.41052 0.21305 0.0
C2262 C 0.17189 0.41853 0.20338 0.0
C2263 C 0.11786 0.4176 0.26105 0.0
H2264 H 0.1691 0.39563 0.29884 0.0
H2265 H 0.1954 0.45906 0.29058 0.0
H2266 H 0.12654 0.38145 0.26008 0.0
H2267 H 0.14532 0.38117 0.2402 0.0
H2268 H 0.14246 0.3727 0.27331 0.0
H2269 H 0.18449 0.47341 0.25886 0.0
H2270 H 0.17764 0.4592 0.22901 0.0
H2271 H 0.15858 0.4584 0.24936 0.0
H2272 H 0.1434 0.40919 0.16686 0.0
H2273 H 0.09779 0.40836 0.21524 0.0
H2274 H 0.17321 0.40691 0.21439 0.0
H2275 H 0.18349 0.43323 0.21107 0.0
H2276 H 0.17508 0.41741 0.18261 0.0
H2277 H 0.11686 0.40582 0.27427 0.0
H2278 H 0.1029 0.41635 0.25972 0.0
H2279 H 0.12851 0.4322 0.26999 0.0
C2280 C 0.18666 0.41512 0.98367 0.0
C2281 C 0.1838 0.40088 0.96469 0.0
C2282 C 0.17155 0.41172 1.00139 0.0
C2283 C 0.15305 0.39366 1.00003 0.0
C2284 C 0.14988 0.37935 0.98066 0.0
C2285 C 0.16531 0.3831 0.96329 0.0
C2286 C 0.17548 0.42736 0.02179 0.0
C2287 C 0.13034 0.35994 0.97858 0.0
C2288 C 0.12358 0.37845 0.06262 0.0
C2289 C 0.11033 0.38569 0.0588 0.0
C2290 C 0.13711 0.38031 0.04325 0.0
C2291 C 0.13731 0.38957 0.01947 0.0
C2292 C 0.12327 0.39599 0.015 0.0
C2293 C 0.10995 0.394 0.03477 0.0
C2294 C 0.15181 0.37323 0.04873 0.0
C2295 C 0.12291 0.40574 0.98978 0.0
H2296 H 0.20074 0.42901 0.98467 0.0
H2297 H 0.16298 0.37184 0.94899 0.0
H2298 H 0.16408 0.43209 0.02031 0.0
H2299 H 0.17424 0.421 0.04144 0.0
H2300 H 0.19054 0.44076 0.01993 0.0
H2301 H 0.12989 0.35083 0.96158 0.0
H2302 H 0.12797 0.35106 0.99645 0.0
H2303 H 0.1177 0.3629 0.97692 0.0
H2304 H 0.12393 0.372 0.08116 0.0
H2305 H 0.09971 0.3996 0.0317 0.0
H2306 H 0.1672 0.38622 0.04949 0.0
H2307 H 0.15136 0.36327 0.03287 0.0
H2308 H 0.14877 0.3651 0.06742 0.0
H2309 H 0.13687 0.42031 0.98799 0.0
H2310 H 0.10998 0.40831 0.98849 0.0
H2311 H 0.12226 0.39638 0.97303 0.0
C2312 C 0.7219 0.86823 0.94392 0.0
C2313 C 0.71047 0.85957 0.92131 0.0
C2314 C 0.71996 0.85687 0.96621 0.0
C2315 C 0.70643 0.83604 0.96609 0.0
C2316 C 0.69422 0.82727 0.94368 0.0
C2317 C 0.69628 0.83913 0.92164 0.0
C2318 C 0.7331 0.86712 0.98955 0.0
C2319 C 0.67967 0.80515 0.94248 0.0
C2320 C 0.72064 0.80598 0.01217 0.0
C2321 C 0.70823 0.80272 0.03363 0.0
C2322 C 0.71972 0.81615 0.98989 0.0
C2323 C 0.70614 0.82352 0.98884 0.0
C2324 C 0.6934 0.82008 0.01035 0.0
C2325 C 0.69453 0.8097 0.03232 0.0
C2326 C 0.73355 0.81928 0.96755 0.0
C2327 C 0.67884 0.82774 0.01039 0.0
H2328 H 0.73293 0.88399 0.94394 0.0
H2329 H 0.68761 0.83219 0.90419 0.0
H2330 H 0.72394 0.86341 0.00738 0.0
H2331 H 0.74389 0.86172 0.99234 0.0
H2332 H 0.74164 0.8836 0.98745 0.0
H2333 H 0.67 0.80085 0.92485 0.0
H2334 H 0.68805 0.79693 0.94238 0.0
H2335 H 0.67004 0.80034 0.95992 0.0
H2336 H 0.73119 0.80059 0.01278 0.0
H2337 H 0.68481 0.80726 0.04868 0.0
H2338 H 0.7441 0.83546 0.96507 0.0
H2339 H 0.72484 0.81368 0.94921 0.0
H2340 H 0.74234 0.81162 0.97057 0.0
H2341 H 0.68715 0.84429 0.00968 0.0
H2342 H 0.66924 0.82301 0.0279 0.0
H2343 H 0.66912 0.82235 0.99285 0.0
C2344 C 0.21911 0.93827 0.9502 0.0
C2345 C 0.22805 0.93505 0.92845 0.0
C2346 C 0.22967 0.94542 0.97377 0.0
C2347 C 0.24978 0.94978 0.97558 0.0
C2348 C 0.25894 0.94671 0.95361 0.0
C2349 C 0.24792 0.93925 0.9304 0.0
C2350 C 0.21924 0.94819 0.9968 0.0
C2351 C 0.28043 0.95146 0.95455 0.0
C2352 C 0.28266 0.9861 0.02845 0.0
C2353 C 0.28338 0.97325 0.04709 0.0
C2354 C 0.2719 0.97867 1.00509 0.0
C2355 C 0.26132 0.95783 1.00033 0.0
C2356 C 0.2618 0.94476 0.01924 0.0
C2357 C 0.27294 0.95263 0.0423 0.0
C2358 C 0.27202 0.99315 0.98536 0.0
C2359 C 0.25051 0.92245 0.0151 0.0
H2360 H 0.20368 0.93476 0.94895 0.0
H2361 H 0.25493 0.93695 0.91359 0.0
H2362 H 0.21954 0.9392 0.0134 0.0
H2363 H 0.22722 0.96403 1.00313 0.0
H2364 H 0.20344 0.94373 0.99239 0.0
H2365 H 0.28538 0.94833 0.93576 0.0
H2366 H 0.29032 0.96743 0.95958 0.0
H2367 H 0.28243 0.94257 0.96993 0.0
H2368 H 0.29078 1.00206 0.03194 0.0
H2369 H 0.27342 0.94262 0.05663 0.0
H2370 H 0.25654 0.99 0.9816 0.0
H2371 H 0.27799 0.99129 0.96665 0.0
H2372 H 0.2812 0.00892 0.99184 0.0
H2373 H 0.2344 0.9172 0.01186 0.0
H2374 H 0.25204 0.91428 0.03189 0.0
H2375 H 0.25605 0.91853 0.99746 0.0
C2376 C 0.73115 0.92927 0.42156 0.0
C2377 C 0.71383 0.9121 0.41278 0.0
C2378 C 0.73137 0.9389 0.44511 0.0
C2379 C 0.71367 0.93171 0.45999 0.0
C2380 C 0.69613 0.91441 0.4511 0.0
C2381 C 0.69652 0.9047 0.42798 0.0
C2382 C 0.75061 0.95685 0.45403 0.0
C2383 C 0.67672 0.90644 0.46563 0.0
C2384 C 0.71515 0.9462 0.53195 0.0
C2385 C 0.71166 0.96236 0.53055 0.0
C2386 C 0.71635 0.93647 0.50927 0.0
C2387 C 0.71329 0.94249 0.48441 0.0
C2388 C 0.70951 0.95867 0.48297 0.0
C2389 C 0.70909 0.96856 0.5059 0.0
C2390 C 0.72105 0.91979 0.51192 0.0
C2391 C 0.70552 0.96532 0.45718 0.0
H2392 H 0.74462 0.93515 0.41007 0.0
H2393 H 0.68295 0.89163 0.4213 0.0
H2394 H 0.74891 0.97028 0.45401 0.0
H2395 H 0.75415 0.95467 0.47427 0.0
H2396 H 0.76341 0.95973 0.44144 0.0
H2397 H 0.66433 0.89301 0.45613 0.0
H2398 H 0.67858 0.90256 0.48578 0.0
H2399 H 0.67239 0.91813 0.46693 0.0
H2400 H 0.71728 0.94134 0.55085 0.0
H2401 H 0.70624 0.98092 0.50455 0.0
H2402 H 0.73427 0.92304 0.5 0.0
H2403 H 0.70834 0.90564 0.50451 0.0
H2404 H 0.72413 0.91757 0.53239 0.0
H2405 H 0.71864 0.97034 0.44435 0.0
H2406 H 0.70222 0.97769 0.45932 0.0
H2407 H 0.69264 0.95259 0.44729 0.0
C2408 C 0.17183 0.87028 0.43235 0.0
C2409 C 0.165 0.86489 0.40665 0.0
C2410 C 0.16066 0.85852 0.45346 0.0
C2411 C 0.14228 0.84073 0.44887 0.0
C2412 C 0.13506 0.83547 0.42301 0.0
C2413 C 0.14641 0.84765 0.40229 0.0
C2414 C 0.16882 0.86487 0.48068 0.0
C2415 C 0.11568 0.81657 0.41713 0.0
C2416 C 0.12477 0.79991 0.50025 0.0
C2417 C 0.11002 0.80206 0.5133 0.0
C2418 C 0.13519 0.81222 0.47916 0.0
C2419 C 0.13099 0.82728 0.47099 0.0
C2420 C 0.1161 0.8295 0.4841 0.0
C2421 C 0.10574 0.81682 0.50495 0.0
C2422 C 0.15077 0.80915 0.46562 0.0
C2423 C 0.11124 0.84542 0.47625 0.0
H2424 H 0.18615 0.88355 0.43598 0.0
H2425 H 0.14103 0.84319 0.38255 0.0
H2426 H 0.15747 0.86548 0.49319 0.0
H2427 H 0.17222 0.85372 0.48925 0.0
H2428 H 0.18266 0.87969 0.48116 0.0
H2429 H 0.11169 0.81499 0.39615 0.0
H2430 H 0.1169 0.80345 0.42317 0.0
H2431 H 0.10331 0.81628 0.42838 0.0
H2432 H 0.12816 0.78853 0.50651 0.0
H2433 H 0.09443 0.81866 0.51495 0.0
H2434 H 0.16558 0.8229 0.46717 0.0
H2435 H 0.14706 0.80619 0.44463 0.0
H2436 H 0.15199 0.79654 0.47391 0.0
H2437 H 0.12482 0.86035 0.47797 0.0
H2438 H 0.09929 0.84526 0.48838 0.0
H2439 H 0.10635 0.84334 0.45562 0.0
C2440 C 0.27005 0.43456 0.47532 0.0
C2441 C 0.24986 0.42254 0.4685 0.0
C2442 C 0.27839 0.42948 0.49623 0.0
C2443 C 0.26616 0.41212 0.51081 0.0
C2444 C 0.24562 0.40029 0.5045 0.0
C2445 C 0.23775 0.40559 0.48331 0.0
C2446 C 0.30041 0.44236 0.50223 0.0
C2447 C 0.23202 0.38185 0.51984 0.0
C2448 C 0.29122 0.38786 0.5477 0.0
C2449 C 0.29262 0.3955 0.57281 0.0
C2450 C 0.28258 0.39311 0.52732 0.0
C2451 C 0.27495 0.4061 0.53232 0.0
C2452 C 0.27593 0.41348 0.55779 0.0
C2453 C 0.28487 0.40819 0.5777 0.0
C2454 C 0.28194 0.38506 0.50036 0.0
C2455 C 0.26771 0.42712 0.56394 0.0
H2456 H 0.27949 0.44751 0.46369 0.0
H2457 H 0.22209 0.39641 0.47819 0.0
H2458 H 0.30261 0.44754 0.52272 0.0
H2459 H 0.30801 0.43348 0.49983 0.0
H2460 H 0.30775 0.45561 0.48942 0.0
H2461 H 0.21622 0.3748 0.51314 0.0
H2462 H 0.23708 0.37076 0.51804 0.0
H2463 H 0.23272 0.38566 0.54076 0.0
H2464 H 0.29727 0.37812 0.54383 0.0
H2465 H 0.28587 0.41409 0.59713 0.0
H2466 H 0.29034 0.3976 0.48677 0.0
H2467 H 0.26627 0.37666 0.49318 0.0
H2468 H 0.28842 0.37505 0.49975 0.0
H2469 H 0.27583 0.44111 0.55267 0.0
H2470 H 0.26901 0.431 0.58492 0.0
H2471 H 0.25173 0.41993 0.55809 0.0
C2472 C 0.28147 0.43776 0.79519 0.0
C2473 C 0.28133 0.42846 0.81859 0.0
C2474 C 0.28992 0.43478 0.77275 0.0
C2475 C 0.29841 0.42223 0.77384 0.0
C2476 C 0.29981 0.4142 0.79791 0.0
C2477 C 0.29129 0.41746 0.82002 0.0
C2478 C 0.28829 0.44375 0.74747 0.0
C2479 C 0.30887 0.40086 0.79997 0.0
C2480 C 0.29304 0.39182 0.7134 0.0
C2481 C 0.31223 0.40232 0.70282 0.0
C2482 C 0.28845 0.39815 0.73657 0.0
C2483 C 0.3034 0.41544 0.74944 0.0
C2484 C 0.32286 0.42603 0.73897 0.0
C2485 C 0.32706 0.41932 0.71574 0.0
C2486 C 0.26752 0.38639 0.7472 0.0
C2487 C 0.33915 0.44451 0.75218 0.0
H2488 H 0.27371 0.44618 0.79392 0.0
H2489 H 0.29147 0.41053 0.83821 0.0
H2490 H 0.30267 0.45052 0.73691 0.0
H2491 H 0.27684 0.43181 0.73485 0.0
H2492 H 0.28393 0.45531 0.75052 0.0
H2493 H 0.31121 0.39802 0.82049 0.0
H2494 H 0.29878 0.38631 0.79044 0.0
H2495 H 0.3234 0.40754 0.78978 0.0
H2496 H 0.28154 0.37867 0.70349 0.0
H2497 H 0.34192 0.4275 0.70758 0.0
H2498 H 0.26072 0.39607 0.74858 0.0
H2499 H 0.26799 0.38116 0.7671 0.0
H2500 H 0.25768 0.37322 0.73491 0.0
H2501 H 0.33461 0.45603 0.7535 0.0
H2502 H 0.35357 0.45089 0.74169 0.0
H2503 H 0.34148 0.44097 0.77232 0.0
C2504 C 0.69164 0.9245 0.78588 0.0
C2505 C 0.69472 0.90806 0.78781 0.0
C2506 C 0.69155 0.93303 0.7617 0.0
C2507 C 0.6946 0.92505 0.73847 0.0
C2508 C 0.69694 0.90797 0.74012 0.0
C2509 C 0.69698 0.89971 0.76466 0.0
C2510 C 0.68895 0.95113 0.76117 0.0
C2511 C 0.70015 0.89883 0.716 0.0
C2512 C 0.68159 0.94123 0.67393 0.0
C2513 C 0.70028 0.9568 0.66596 0.0
C2514 C 0.67954 0.9305 0.69705 0.0
C2515 C 0.69656 0.93539 0.71283 0.0
C2516 C 0.71548 0.95092 0.70464 0.0
C2517 C 0.7171 0.96135 0.68147 0.0
C2518 C 0.65907 0.91411 0.70482 0.0
C2519 C 0.73408 0.95681 0.72065 0.0
H2520 H 0.68985 0.93118 0.80346 0.0
H2521 H 0.69949 0.88713 0.76572 0.0
H2522 H 0.70285 0.9642 0.75407 0.0
H2523 H 0.67674 0.94867 0.74751 0.0
H2524 H 0.68549 0.95482 0.78064 0.0
H2525 H 0.70006 0.88469 0.72016 0.0
H2526 H 0.68837 0.89582 0.70132 0.0
H2527 H 0.71472 0.90949 0.70725 0.0
H2528 H 0.66847 0.93752 0.66218 0.0
H2529 H 0.73163 0.9733 0.67562 0.0
H2530 H 0.65475 0.91807 0.72347 0.0
H2531 H 0.6593 0.90003 0.70796 0.0
H2532 H 0.64748 0.91141 0.68996 0.0
H2533 H 0.73261 0.96225 0.74002 0.0
H2534 H 0.74778 0.96869 0.71127 0.0
H2535 H 0.73596 0.94365 0.72386 0.0
C2536 C 0.14089 0.85946 0.74568 0.0
C2537 C 0.15958 0.86319 0.7549 0.0
C2538 C 0.13194 0.84728 0.72373 0.0
C2539 C 0.14218 0.83911 0.71018 0.0
C2540 C 0.16122 0.8431 0.71925 0.0
C2541 C 0.16954 0.85485 0.74171 0.0
C2542 C 0.11141 0.84299 0.71518 0.0
C2543 C 0.1729 0.83516 0.70505 0.0
C2544 C 0.11225 0.7937 0.66644 0.0
C2545 C 0.1143 0.80252 0.64204 0.0
C2546 C 0.12123 0.8054 0.68876 0.0
C2547 C 0.13297 0.82642 0.68654 0.0
C2548 C 0.13556 0.83533 0.66178 0.0
C2549 C 0.12598 0.82331 0.63991 0.0
C2550 C 0.11771 0.79532 0.71482 0.0
C2551 C 0.14835 0.85761 0.65842 0.0
H2552 H 0.13312 0.86575 0.75605 0.0
H2553 H 0.18409 0.85792 0.7487 0.0
H2554 H 0.11205 0.84865 0.69523 0.0
H2555 H 0.10101 0.82664 0.71462 0.0
H2556 H 0.10517 0.84993 0.72829 0.0
H2557 H 0.18771 0.84004 0.71423 0.0
H2558 H 0.16433 0.81862 0.70459 0.0
H2559 H 0.17523 0.84032 0.6846 0.0
H2560 H 0.1031 0.77765 0.66824 0.0
H2561 H 0.12767 0.83019 0.62107 0.0
H2562 H 0.11032 0.80101 0.72801 0.0
H2563 H 0.13217 0.79889 0.72398 0.0
H2564 H 0.10823 0.77884 0.71327 0.0
H2565 H 0.14177 0.86535 0.66923 0.0
H2566 H 0.14982 0.86209 0.63771 0.0
H2567 H 0.16351 0.86285 0.66665 0.0
C2568 C 0.38953 0.19025 0.63853 0.0
C2569 C 0.38541 0.20584 0.63455 0.0
C2570 C 0.39201 0.17996 0.61738 0.0
C2571 C 0.39045 0.18536 0.59147 0.0
C2572 C 0.38707 0.20159 0.58741 0.0
C2573 C 0.38455 0.21152 0.60885 0.0
C2574 C 0.39559 0.16281 0.62279 0.0
C2575 C 0.38543 0.20808 0.5603 0.0
C2576 C 0.41041 0.16853 0.53419 0.0
C2577 C 0.39293 0.15218 0.5241 0.0
C2578 C 0.40991 0.17921 0.55625 0.0
C2579 C 0.39146 0.1736 0.56861 0.0
C2580 C 0.37379 0.15705 0.55853 0.0
C2581 C 0.37475 0.14656 0.53658 0.0
C2582 C 0.42915 0.19662 0.56624 0.0
C2583 C 0.35376 0.15051 0.57081 0.0
H2584 H 0.39007 0.18554 0.65819 0.0
H2585 H 0.38139 0.2235 0.60538 0.0
H2586 H 0.38269 0.1487 0.61557 0.0
H2587 H 0.40901 0.16491 0.61227 0.0
H2588 H 0.39766 0.1612 0.64385 0.0
H2589 H 0.38389 0.22163 0.56033 0.0
H2590 H 0.39882 0.2112 0.54887 0.0
H2591 H 0.37224 0.19587 0.55021 0.0
H2592 H 0.42457 0.173 0.52485 0.0
H2593 H 0.36114 0.13398 0.52904 0.0
H2594 H 0.43144 0.19432 0.58696 0.0
H2595 H 0.42828 0.2105 0.56516 0.0
H2596 H 0.44234 0.19876 0.55504 0.0
H2597 H 0.35421 0.14706 0.59162 0.0
H2598 H 0.34146 0.13715 0.56107 0.0
H2599 H 0.35029 0.16281 0.56992 0.0
C2600 C 0.90827 0.26378 0.59786 0.0
C2601 C 0.88817 0.25021 0.59194 0.0
C2602 C 0.92163 0.27571 0.57854 0.0
C2603 C 0.91478 0.27401 0.55258 0.0
C2604 C 0.89451 0.26038 0.54646 0.0
C2605 C 0.88144 0.2487 0.56623 0.0
C2606 C 0.94306 0.29022 0.58596 0.0
C2607 C 0.88664 0.25806 0.519 0.0
C2608 C 0.94396 0.3176 0.50706 0.0
C2609 C 0.95531 0.31124 0.49296 0.0
C2610 C 0.93076 0.30565 0.52649 0.0
C2611 C 0.92875 0.2868 0.53193 0.0
C2612 C 0.94014 0.28026 0.51775 0.0
C2613 C 0.95333 0.29258 0.49846 0.0
C2614 C 0.91899 0.31324 0.54124 0.0
C2615 C 0.93837 0.26022 0.52293 0.0
H2616 H 0.91352 0.26525 0.61774 0.0
H2617 H 0.86601 0.23808 0.56145 0.0
H2618 H 0.9533 0.28696 0.57462 0.0
H2619 H 0.9467 0.30565 0.58116 0.0
H2620 H 0.94606 0.28962 0.60698 0.0
H2621 H 0.87054 0.24666 0.51739 0.0
H2622 H 0.88868 0.27251 0.51198 0.0
H2623 H 0.89524 0.25374 0.5059 0.0
H2624 H 0.94543 0.33202 0.50295 0.0
H2625 H 0.96204 0.28757 0.48761 0.0
H2626 H 0.92238 0.31397 0.56232 0.0
H2627 H 0.90274 0.30278 0.5387 0.0
H2628 H 0.92234 0.32828 0.53474 0.0
H2629 H 0.94244 0.25948 0.54344 0.0
H2630 H 0.94812 0.25725 0.51008 0.0
H2631 H 0.92266 0.24819 0.52002 0.0
C2632 C 0.8663 0.77679 0.59467 0.0
C2633 C 0.85716 0.76621 0.61732 0.0
C2634 C 0.85536 0.77294 0.57137 0.0
C2635 C 0.8348 0.75834 0.5709 0.0
C2636 C 0.82532 0.74836 0.59407 0.0
C2637 C 0.83665 0.75236 0.61695 0.0
C2638 C 0.86602 0.78376 0.54703 0.0
C2639 C 0.80337 0.7329 0.5945 0.0
C2640 C 0.80074 0.75493 0.51511 0.0
C2641 C 0.7989 0.73846 0.5012 0.0
C2642 C 0.81283 0.76196 0.5375 0.0
C2643 C 0.82343 0.7524 0.54596 0.0
C2644 C 0.8222 0.73625 0.53139 0.0
C2645 C 0.80986 0.72941 0.50926 0.0
C2646 C 0.81366 0.77912 0.55263 0.0
C2647 C 0.83344 0.72579 0.53962 0.0
H2648 H 0.88219 0.78735 0.59487 0.0
H2649 H 0.82957 0.74436 0.63455 0.0
H2650 H 0.86654 0.77302 0.53316 0.0
H2651 H 0.85776 0.79031 0.53732 0.0
H2652 H 0.88156 0.79584 0.55108 0.0
H2653 H 0.79797 0.72765 0.61448 0.0
H2654 H 0.79436 0.73906 0.58597 0.0
H2655 H 0.80067 0.71984 0.58247 0.0
H2656 H 0.79227 0.76196 0.50897 0.0
H2657 H 0.80855 0.71674 0.49848 0.0
H2658 H 0.82941 0.79092 0.55597 0.0
H2659 H 0.80681 0.77383 0.57198 0.0
H2660 H 0.80564 0.7858 0.54253 0.0
H2661 H 0.84954 0.73679 0.54242 0.0
H2662 H 0.832 0.71443 0.52519 0.0
H2663 H 0.82767 0.71829 0.55852 0.0
C2664 C 0.81078 0.67092 0.27712 0.0
C2665 C 0.81761 0.68478 0.25684 0.0
C2666 C 0.80288 0.67433 0.29983 0.0
C2667 C 0.80178 0.69201 0.30226 0.0
C2668 C 0.80828 0.70587 0.28165 0.0
C2669 C 0.81605 0.70205 0.2592 0.0
C2670 C 0.79601 0.65918 0.3214 0.0
C2671 C 0.80725 0.72485 0.28342 0.0
C2672 C 0.76647 0.6943 0.35146 0.0
C2673 C 0.77954 0.7048 0.37205 0.0
C2674 C 0.77348 0.68989 0.32871 0.0
C2675 C 0.79406 0.69622 0.32647 0.0
C2676 C 0.80735 0.70691 0.34714 0.0
C2677 C 0.79992 0.71105 0.36973 0.0
C2678 C 0.75885 0.67844 0.30709 0.0
C2679 C 0.82942 0.714 0.34538 0.0
H2680 H 0.81208 0.65763 0.27552 0.0
H2681 H 0.82089 0.71264 0.24341 0.0
H2682 H 0.80507 0.66611 0.33918 0.0
H2683 H 0.78022 0.65415 0.32624 0.0
H2684 H 0.7973 0.64591 0.31616 0.0
H2685 H 0.81268 0.73395 0.26552 0.0
H2686 H 0.79163 0.72126 0.2869 0.0
H2687 H 0.8164 0.73399 0.30013 0.0
H2688 H 0.75069 0.68936 0.3532 0.0
H2689 H 0.81007 0.71914 0.38561 0.0
H2690 H 0.75921 0.66456 0.30276 0.0
H2691 H 0.76319 0.68747 0.28909 0.0
H2692 H 0.74329 0.67442 0.31201 0.0
H2693 H 0.83174 0.70111 0.34206 0.0
H2694 H 0.83773 0.72201 0.36324 0.0
H2695 H 0.83591 0.72415 0.32858 0.0
C2696 C 0.38721 0.20291 0.29133 0.0
C2697 C 0.37716 0.18947 0.27081 0.0
C2698 C 0.38988 0.1962 0.31584 0.0
C2699 C 0.3824 0.17552 0.32015 0.0
C2700 C 0.37179 0.1619 0.29973 0.0
C2701 C 0.3693 0.16898 0.27554 0.0
C2702 C 0.40116 0.21131 0.33696 0.0
C2703 C 0.36346 0.13976 0.30316 0.0
C2704 C 0.40538 0.15731 0.37235 0.0
C2705 C 0.39112 0.15087 0.39222 0.0
C2706 C 0.403 0.16577 0.34921 0.0
C2707 C 0.38595 0.16802 0.34564 0.0
C2708 C 0.37174 0.16196 0.36592 0.0
C2709 C 0.37445 0.15347 0.38879 0.0
C2710 C 0.41854 0.17187 0.32826 0.0
C2711 C 0.35338 0.16406 0.36322 0.0
H2712 H 0.3935 0.21875 0.28804 0.0
H2713 H 0.36152 0.15834 0.26002 0.0
H2714 H 0.39211 0.20736 0.35491 0.0
H2715 H 0.41513 0.21116 0.34176 0.0
H2716 H 0.40511 0.22668 0.33118 0.0
H2717 H 0.35507 0.13102 0.28574 0.0
H2718 H 0.37582 0.1367 0.30717 0.0
H2719 H 0.35332 0.13439 0.3201 0.0
H2720 H 0.4183 0.1554 0.37467 0.0
H2721 H 0.36331 0.14861 0.40393 0.0
H2722 H 0.42419 0.18767 0.32286 0.0
H2723 H 0.41168 0.16268 0.31057 0.0
H2724 H 0.43139 0.1701 0.33438 0.0
H2725 H 0.35773 0.17966 0.35828 0.0
H2726 H 0.34438 0.15985 0.38126 0.0
H2727 H 0.34383 0.15441 0.34709 0.0
C2728 C 0.89062 0.2912 0.27607 0.0
C2729 C 0.8979 0.28706 0.25335 0.0
C2730 C 0.90289 0.29928 0.29816 0.0
C2731 C 0.92294 0.30337 0.29753 0.0
C2732 C 0.93051 0.29966 0.27448 0.0
C2733 C 0.91791 0.29159 0.2527 0.0
C2734 C 0.89428 0.30305 0.32237 0.0
C2735 C 0.95183 0.30393 0.27293 0.0
C2736 C 0.95965 0.3391 0.34794 0.0
C2737 C 0.96014 0.3259 0.3662 0.0
C2738 C 0.94766 0.33198 0.32547 0.0
C2739 C 0.93589 0.31116 0.32114 0.0
C2740 C 0.93644 0.29777 0.33943 0.0
C2741 C 0.94855 0.3053 0.36175 0.0
C2742 C 0.9475 0.34674 0.30645 0.0
C2743 C 0.92415 0.27547 0.33548 0.0
H2744 H 0.87515 0.28756 0.27686 0.0
H2745 H 0.92375 0.28876 0.2351 0.0
H2746 H 0.89457 0.29367 0.33845 0.0
H2747 H 0.90352 0.31885 0.32861 0.0
H2748 H 0.87863 0.29972 0.31942 0.0
H2749 H 0.95555 0.30069 0.25335 0.0
H2750 H 0.96231 0.31981 0.27778 0.0
H2751 H 0.95435 0.29477 0.28739 0.0
H2752 H 0.96855 0.35504 0.35127 0.0
H2753 H 0.94885 0.29503 0.3758 0.0
H2754 H 0.93212 0.34434 0.30446 0.0
H2755 H 0.95207 0.34439 0.28696 0.0
H2756 H 0.95765 0.36245 0.31253 0.0
H2757 H 0.90805 0.27084 0.33429 0.0
H2758 H 0.92636 0.26707 0.35142 0.0
H2759 H 0.92818 0.2712 0.31683 0.0
C2760 C 0.38638 0.2767 0.768 0.0
C2761 C 0.3839 0.25741 0.76656 0.0
C2762 C 0.38638 0.28557 0.79203 0.0
C2763 C 0.38404 0.27509 0.81553 0.0
C2764 C 0.38209 0.25584 0.81428 0.0
C2765 C 0.38193 0.24723 0.78994 0.0
C2766 C 0.38834 0.30599 0.79218 0.0
C2767 C 0.37977 0.24414 0.8387 0.0
C2768 C 0.39905 0.30521 0.87939 0.0
C2769 C 0.38053 0.30167 0.88895 0.0
C2770 C 0.4004 0.29647 0.85587 0.0
C2771 C 0.38286 0.28396 0.84121 0.0
C2772 C 0.36414 0.28027 0.85088 0.0
C2773 C 0.3632 0.28904 0.87455 0.0
C2774 C 0.42067 0.30075 0.84659 0.0
C2775 C 0.34503 0.26723 0.836 0.0
H2776 H 0.3878 0.28476 0.75021 0.0
H2777 H 0.37998 0.23235 0.78924 0.0
H2778 H 0.37462 0.30506 0.80037 0.0
H2779 H 0.40105 0.31629 0.80481 0.0
H2780 H 0.39069 0.3125 0.77242 0.0
H2781 H 0.37958 0.22992 0.83469 0.0
H2782 H 0.39217 0.25318 0.85249 0.0
H2783 H 0.36563 0.24068 0.84847 0.0
H2784 H 0.41255 0.31491 0.89028 0.0
H2785 H 0.34881 0.2862 0.8816 0.0
H2786 H 0.42399 0.3085 0.82762 0.0
H2787 H 0.42072 0.28656 0.84351 0.0
H2788 H 0.4328 0.31017 0.86056 0.0
H2789 H 0.34577 0.27366 0.81651 0.0
H2790 H 0.33165 0.26563 0.84616 0.0
H2791 H 0.34316 0.25218 0.83298 0.0
C2792 C 0.80495 0.16196 0.75605 0.0
C2793 C 0.81306 0.18274 0.75637 0.0
C2794 C 0.79395 0.15017 0.77715 0.0
C2795 C 0.79102 0.15937 0.79922 0.0
C2796 C 0.79887 0.18029 0.79949 0.0
C2797 C 0.80974 0.1917 0.77806 0.0
C2798 C 0.78573 0.12791 0.77598 0.0
C2799 C 0.79619 0.1907 0.82269 0.0
C2800 C 0.74986 0.1276 0.84709 0.0
C2801 C 0.76067 0.12445 0.86672 0.0
C2802 C 0.7595 0.13884 0.82494 0.0
C2803 C 0.78045 0.14722 0.82242 0.0
C2804 C 0.7914 0.14405 0.84218 0.0
C2805 C 0.78138 0.13268 0.86403 0.0
C2806 C 0.74729 0.1418 0.80424 0.0
C2807 C 0.81375 0.15276 0.84032 0.0
H2808 H 0.80716 0.15486 0.73922 0.0
H2809 H 0.81612 0.20774 0.77862 0.0
H2810 H 0.79258 0.12338 0.79162 0.0
H2811 H 0.76936 0.11994 0.77932 0.0
H2812 H 0.78863 0.12296 0.75702 0.0
H2813 H 0.80252 0.20695 0.81946 0.0
H2814 H 0.78008 0.18402 0.82725 0.0
H2815 H 0.80362 0.18863 0.83997 0.0
H2816 H 0.73385 0.12127 0.84904 0.0
H2817 H 0.78985 0.13035 0.87913 0.0
H2818 H 0.74917 0.13607 0.78531 0.0
H2819 H 0.75268 0.15795 0.80182 0.0
H2820 H 0.73112 0.13412 0.80895 0.0
H2821 H 0.81743 0.1472 0.82248 0.0
H2822 H 0.82008 0.14894 0.85736 0.0
H2823 H 0.8212 0.16924 0.83884 0.0
C2824 C 0.94207 0.76019 0.79069 0.0
C2825 C 0.92245 0.74715 0.78239 0.0
C2826 C 0.95133 0.75428 0.80946 0.0
C2827 C 0.94052 0.73505 0.82057 0.0
C2828 C 0.92055 0.72197 0.81257 0.0
C2829 C 0.91184 0.72811 0.79335 0.0
C2830 C 0.97277 0.76852 0.81715 0.0
C2831 C 0.90837 0.70154 0.82439 0.0
C2832 C 0.96961 0.71314 0.85318 0.0
C2833 C 0.96943 0.71837 0.87921 0.0
C2834 C 0.9602 0.71843 0.83383 0.0
C2835 C 0.95003 0.72876 0.84085 0.0
C2836 C 0.94929 0.73347 0.86725 0.0
C2837 C 0.9592 0.72843 0.88606 0.0
C2838 C 0.9616 0.71345 0.80582 0.0
C2839 C 0.93821 0.74405 0.8756 0.0
H2840 H 0.95034 0.77479 0.78192 0.0
H2841 H 0.89661 0.71812 0.787 0.0
H2842 H 0.97374 0.77199 0.83821 0.0
H2843 H 0.98204 0.76146 0.81367 0.0
H2844 H 0.97924 0.78273 0.80619 0.0
H2845 H 0.89292 0.69333 0.81635 0.0
H2846 H 0.91572 0.69254 0.82086 0.0
H2847 H 0.90755 0.70293 0.84575 0.0
H2848 H 0.97763 0.70547 0.84785 0.0
H2849 H 0.95894 0.73237 0.90623 0.0
H2850 H 0.96926 0.72738 0.79434 0.0
H2851 H 0.94641 0.70427 0.79736 0.0
H2852 H 0.9699 0.70521 0.80362 0.0
H2853 H 0.94523 0.75913 0.86688 0.0
H2854 H 0.93814 0.74564 0.89704 0.0
H2855 H 0.92251 0.73574 0.86849 0.0
C2856 C 0.90864 0.68671 0.09934 0.0
C2857 C 0.88972 0.6831 0.09139 0.0
C2858 C 0.92296 0.68873 0.08112 0.0
C2859 C 0.91838 0.68759 0.05429 0.0
C2860 C 0.89915 0.68365 0.04617 0.0
C2861 C 0.88494 0.6812 0.06489 0.0
C2862 C 0.94309 0.69239 0.09059 0.0
C2863 C 0.89383 0.68271 0.01773 0.0
C2864 C 0.96192 0.71422 0.00799 0.0
C2865 C 0.963 0.69822 0.99693 0.0
C2866 C 0.94737 0.71095 0.02658 0.0
C2867 C 0.93393 0.69124 0.03472 0.0
C2868 C 0.93531 0.67506 0.02407 0.0
C2869 C 0.94969 0.67873 1.00504 0.0
C2870 C 0.94614 0.72855 0.03715 0.0
C2871 C 0.92158 0.6539 0.03274 0.0
H2872 H 0.91218 0.68795 0.11991 0.0
H2873 H 0.87034 0.67859 0.05886 0.0
H2874 H 0.94654 0.68135 0.08176 0.0
H2875 H 0.95494 0.7074 0.08448 0.0
H2876 H 0.94375 0.69145 0.11208 0.0
H2877 H 0.87813 0.67916 0.01467 0.0
H2878 H 0.90391 0.69726 0.00848 0.0
H2879 H 0.89602 0.67126 0.00764 0.0
H2880 H 0.9721 0.72928 1.00158 0.0
H2881 H 0.95057 0.66634 0.99658 0.0
H2882 H 0.9483 0.72953 0.05853 0.0
H2883 H 0.93108 0.72651 0.03317 0.0
H2884 H 0.95751 0.74289 0.02851 0.0
H2885 H 0.92269 0.65284 0.05412 0.0
H2886 H 0.92513 0.6431 0.02331 0.0
H2887 H 0.90585 0.64948 0.0281 0.0
C2888 C 0.36933 0.24185 0.12538 0.0
C2889 C 0.37383 0.25359 0.14802 0.0
C2890 C 0.36818 0.24939 0.10072 0.0
C2891 C 0.37192 0.26928 0.09835 0.0
C2892 C 0.37612 0.28102 0.1212 0.0
C2893 C 0.37686 0.27305 0.14553 0.0
C2894 C 0.36333 0.23615 0.07708 0.0
C2895 C 0.38042 0.30232 0.11991 0.0
C2896 C 0.39021 0.29773 0.03401 0.0
C2897 C 0.37313 0.29785 0.0246 0.0
C2898 C 0.38991 0.28819 0.05756 0.0
C2899 C 0.37202 0.27816 0.07212 0.0
C2900 C 0.35458 0.27776 0.0623 0.0
C2901 C 0.35539 0.2877 0.03891 0.0
C2902 C 0.40897 0.28936 0.06725 0.0
C2903 C 0.33509 0.2671 0.07677 0.0
H2904 H 0.36702 0.22687 0.12685 0.0
H2905 H 0.38046 0.28245 0.16265 0.0
H2906 H 0.35058 0.23558 0.06623 0.0
H2907 H 0.37632 0.24245 0.06382 0.0
H2908 H 0.35953 0.22071 0.0822 0.0
H2909 H 0.3832 0.30945 0.13941 0.0
H2910 H 0.39375 0.31125 0.1077 0.0
H2911 H 0.36769 0.30287 0.11066 0.0
H2912 H 0.40402 0.30553 0.02325 0.0
H2913 H 0.34206 0.28758 0.03186 0.0
H2914 H 0.40654 0.27416 0.07076 0.0
H2915 H 0.41347 0.29752 0.08606 0.0
H2916 H 0.42146 0.29707 0.05334 0.0
H2917 H 0.3313 0.25152 0.08093 0.0
H2918 H 0.32253 0.2668 0.06571 0.0
H2919 H 0.33658 0.2746 0.09571 0.0
C2920 C 0.8299 0.19878 0.07481 0.0
C2921 C 0.82155 0.20842 0.08873 0.0
C2922 C 0.81885 0.18455 0.05552 0.0
C2923 C 0.7988 0.17949 0.05045 0.0
C2924 C 0.79025 0.18912 0.06458 0.0
C2925 C 0.80182 0.20364 0.08335 0.0
C2926 C 0.82867 0.17497 0.04053 0.0
C2927 C 0.76881 0.18386 0.06016 0.0
C2928 C 0.77484 0.15533 0.98569 0.0
C2929 C 0.76441 0.13503 0.99208 0.0
C2930 C 0.78619 0.16993 1.00444 0.0
C2931 C 0.78678 0.16414 0.03036 0.0
C2932 C 0.77602 0.14366 0.03701 0.0
C2933 C 0.76515 0.12933 0.01771 0.0
C2934 C 0.79777 0.19155 0.99643 0.0
C2935 C 0.77594 0.1369 0.06452 0.0
H2936 H 0.8452 0.2026 0.07886 0.0
H2937 H 0.79527 0.21088 0.09436 0.0
H2938 H 0.8205 0.15862 0.04369 0.0
H2939 H 0.82798 0.17743 0.0194 0.0
H2940 H 0.84455 0.18097 0.0463 0.0
H2941 H 0.76433 0.19251 0.07301 0.0
H2942 H 0.76656 0.18674 0.03966 0.0
H2943 H 0.75872 0.16772 0.06371 0.0
H2944 H 0.77441 0.15979 0.96585 0.0
H2945 H 0.75703 0.11365 0.02275 0.0
H2946 H 0.8139 0.19771 1.00079 0.0
H2947 H 0.79272 0.20044 0.00773 0.0
H2948 H 0.796 0.19355 0.9754 0.0
H2949 H 0.79136 0.14114 0.07069 0.0
H2950 H 0.76628 0.12051 0.06668 0.0
H2951 H 0.77058 0.14447 0.07793 0.0
loop_
_geom_bond_atom_site_label_1
_geom_bond_atom_site_label_2
_geom_bond_distance
_geom_bond_site_symmetry_2
_ccdc_geom_bond_type
Cu0 N1 1.999 . S
Cu0 O6 1.974 1_554 S
Cu0 N11 1.985 1_554 S
Cu0 O20 1.959 . S
N1 Cu0 1.999 . S
N1 C3 1.263 . S
N1 C5 1.389 . S
N2 C3 1.358 . S
N2 C4 1.400 . S
C3 N1 1.263 . S
C3 N2 1.358 . S
C3 H9 0.930 1_455 S
C4 N2 1.400 . S
C4 C5 1.351 . S
C4 H21 0.930 . S
C5 N1 1.389 . S
C5 C4 1.351 . S
C5 H10 0.930 . S
O6 Cu0 1.974 1_556 S
O6 C16 1.282 1_455 S
C7 O8 1.261 1_455 S
C7 O20 1.251 . S
O8 C7 1.261 1_655 S
H9 C3 0.930 1_655 S
H10 C5 0.930 . S
N11 Cu0 1.985 1_556 S
N11 C13 1.335 . S
N11 C14 1.390 1_455 S
N12 C13 1.345 . S
N12 C15 1.336 1_455 S
C13 N11 1.335 . S
C13 N12 1.345 . S
C13 H18 0.930 . S
C14 N11 1.390 1_655 S
C14 C15 1.346 . S
C14 H19 0.930 . S
C15 N12 1.336 1_655 S
C15 C14 1.346 . S
C15 H22 0.929 . S
C16 O6 1.282 1_655 S
C16 O17 1.216 . S
O17 C16 1.216 . S
H18 C13 0.930 . S
H19 C14 0.930 . S
O20 Cu0 1.959 . S
O20 C7 1.251 . S
H21 C4 0.930 . S
H22 C15 0.929 . S
Cu23 N24 1.999 1_554 S
Cu23 O29 1.974 . S
Cu23 N34 1.985 . S
Cu23 O43 1.959 1_554 S
N24 Cu23 1.999 1_556 S
N24 C26 1.263 . S
N24 C28 1.389 . S
N25 C26 1.358 . S
N25 C27 1.400 . S
C26 N24 1.263 . S
C26 N25 1.358 . S
C26 H32 0.930 . S
C27 N25 1.400 . S
C27 C28 1.351 . S
C27 H44 0.930 . S
C28 N24 1.389 . S
C28 C27 1.351 . S
C28 H33 0.930 . S
O29 Cu23 1.974 . S
O29 C39 1.282 . S
C30 O31 1.261 1_556 S
C30 O43 1.251 . S
O31 C30 1.261 1_554 S
H32 C26 0.930 . S
H33 C28 0.930 . S
N34 Cu23 1.985 . S
N34 C36 1.335 . S
N34 C37 1.390 . S
N35 C36 1.345 . S
N35 C38 1.336 . S
C36 N34 1.335 . S
C36 N35 1.345 . S
C36 H41 0.930 . S
C37 N34 1.390 . S
C37 C38 1.346 . S
C37 H42 0.930 . S
C38 N35 1.336 . S
C38 C37 1.346 . S
C38 H45 0.929 . S
C39 O29 1.282 . S
C39 O40 1.216 . S
O40 C39 1.216 . S
H41 C36 0.930 . S
H42 C37 0.930 . S
O43 Cu23 1.959 1_556 S
O43 C30 1.251 . S
H44 C27 0.930 . S
H45 C38 0.929 . S
Cu46 N47 1.999 1_554 S
Cu46 O52 1.974 . S
Cu46 N57 1.985 . S
Cu46 O66 1.959 . S
N47 Cu46 1.999 1_556 S
N47 C49 1.263 . S
N47 C51 1.389 . S
N48 C49 1.358 . S
N48 C50 1.400 . S
C49 N47 1.263 . S
C49 N48 1.358 . S
C49 H55 0.930 . S
C50 N48 1.400 . S
C50 C51 1.351 . S
C50 H67 0.930 . S
C51 N47 1.389 . S
C51 C50 1.351 . S
C51 H56 0.930 . S
O52 Cu46 1.974 . S
O52 C62 1.282 . S
C53 O54 1.262 . S
C53 O66 1.253 . S
O54 C53 1.262 . S
H55 C49 0.930 . S
H56 C51 0.930 . S
N57 Cu46 1.985 . S
N57 C59 1.335 . S
N57 C60 1.390 . S
N58 C59 1.345 . S
N58 C61 1.336 . S
C59 N57 1.335 . S
C59 N58 1.345 . S
C59 H64 0.930 . S
C60 N57 1.390 . S
C60 C61 1.346 . S
C60 H65 0.930 . S
C61 N58 1.336 . S
C61 C60 1.346 . S
C61 H68 0.929 . S
C62 O52 1.282 . S
C62 O63 1.216 . S
O63 C62 1.216 . S
H64 C59 0.930 . S
H65 C60 0.930 . S
O66 Cu46 1.959 . S
O66 C53 1.253 . S
H67 C50 0.930 . S
H68 C61 0.929 . S
Cu69 N70 1.999 . S
Cu69 O75 1.974 . S
Cu69 N80 1.985 . S
Cu69 O89 1.959 . S
N70 Cu69 1.999 . S
N70 C72 1.263 . S
N70 C74 1.389 . S
N71 C72 1.358 . S
N71 C73 1.400 . S
C72 N70 1.263 . S
C72 N71 1.358 . S
C72 H78 0.930 . S
C73 N71 1.400 . S
C73 C74 1.351 . S
C73 H90 0.930 . S
C74 N70 1.389 . S
C74 C73 1.351 . S
C74 H79 0.930 . S
O75 Cu69 1.974 . S
O75 C85 1.282 . S
C76 O77 1.261 . S
C76 O89 1.251 . S
O77 C76 1.261 . S
H78 C72 0.930 . S
H79 C74 0.930 . S
N80 Cu69 1.985 . S
N80 C82 1.335 . S
N80 C83 1.390 . S
N81 C82 1.345 . S
N81 C84 1.336 . S
C82 N80 1.335 . S
C82 N81 1.345 . S
C82 H87 0.930 . S
C83 N80 1.390 . S
C83 C84 1.346 . S
C83 H88 0.930 . S
C84 N81 1.336 . S
C84 C83 1.346 . S
C84 H91 0.929 . S
C85 O75 1.282 . S
C85 O86 1.216 1_545 S
O86 C85 1.216 1_565 S
H87 C82 0.930 . S
H88 C83 0.930 . S
O89 Cu69 1.959 . S
O89 C76 1.251 . S
H90 C73 0.930 . S
H91 C84 0.929 . S
Cu92 N93 1.999 . S
Cu92 O98 1.974 . S
Cu92 N103 1.985 . S
Cu92 O112 1.959 . S
N93 Cu92 1.999 . S
N93 C95 1.263 . S
N93 C97 1.389 . S
N94 C95 1.358 . S
N94 C96 1.400 . S
C95 N93 1.263 . S
C95 N94 1.358 . S
C95 H101 0.930 . S
C96 N94 1.400 . S
C96 C97 1.351 . S
C96 H113 0.930 . S
C97 N93 1.389 . S
C97 C96 1.351 . S
C97 H102 0.930 . S
O98 Cu92 1.974 . S
O98 C108 1.282 . S
C99 O100 1.261 . S
C99 O112 1.251 . S
O100 C99 1.261 . S
H101 C95 0.930 . S
H102 C97 0.930 . S
N103 Cu92 1.985 . S
N103 C105 1.335 . S
N103 C106 1.390 . S
N104 C105 1.345 . S
N104 C107 1.336 . S
C105 N103 1.335 . S
C105 N104 1.345 . S
C105 H110 0.930 . S
C106 N103 1.390 . S
C106 C107 1.346 . S
C106 H111 0.930 . S
C107 N104 1.336 . S
C107 C106 1.346 . S
C107 H114 0.929 . S
C108 O98 1.282 . S
C108 O109 1.216 . S
O109 C108 1.216 . S
H110 C105 0.930 . S
H111 C106 0.930 . S
O112 Cu92 1.959 . S
O112 C99 1.251 . S
H113 C96 0.930 . S
H114 C107 0.929 . S
Cu115 N116 1.999 . S
Cu115 O121 1.974 . S
Cu115 N126 1.985 . S
Cu115 O135 1.959 . S
N116 Cu115 1.999 . S
N116 C118 1.263 . S
N116 C120 1.389 . S
N117 C118 1.358 . S
N117 C119 1.400 . S
C118 N116 1.263 . S
C118 N117 1.358 . S
C118 H124 0.930 . S
C119 N117 1.400 . S
C119 C120 1.351 . S
C119 H136 0.930 . S
C120 N116 1.389 . S
C120 C119 1.351 . S
C120 H125 0.930 . S
O121 Cu115 1.974 . S
O121 C131 1.282 . S
C122 O123 1.261 . S
C122 O135 1.251 . S
O123 C122 1.261 . S
H124 C118 0.930 . S
H125 C120 0.930 . S
N126 Cu115 1.985 . S
N126 C128 1.335 . S
N126 C129 1.390 . S
N127 C128 1.345 . S
N127 C130 1.336 . S
C128 N126 1.335 . S
C128 N127 1.345 . S
C128 H133 0.930 . S
C129 N126 1.390 . S
C129 C130 1.346 . S
C129 H134 0.930 . S
C130 N127 1.336 . S
C130 C129 1.346 . S
C130 H137 0.929 . S
C131 O121 1.282 . S
C131 O132 1.216 . S
O132 C131 1.216 . S
H133 C128 0.930 . S
H134 C129 0.930 . S
O135 Cu115 1.959 . S
O135 C122 1.251 . S
H136 C119 0.930 . S
H137 C130 0.929 . S
Cu138 N139 1.999 . S
Cu138 O144 1.974 . S
Cu138 N149 1.985 . S
Cu138 O158 1.959 . S
N139 Cu138 1.999 . S
N139 C141 1.263 . S
N139 C143 1.389 . S
N140 C141 1.358 . S
N140 C142 1.400 . S
C141 N139 1.263 . S
C141 N140 1.358 . S
C141 H147 0.930 . S
C142 N140 1.400 . S
C142 C143 1.351 . S
C142 H159 0.930 . S
C143 N139 1.389 . S
C143 C142 1.351 . S
C143 H148 0.930 . S
O144 Cu138 1.974 . S
O144 C154 1.282 . S
C145 O146 1.261 . S
C145 O158 1.251 . S
O146 C145 1.261 . S
H147 C141 0.930 . S
H148 C143 0.930 . S
N149 Cu138 1.985 . S
N149 C151 1.335 . S
N149 C152 1.390 . S
N150 C151 1.345 . S
N150 C153 1.336 . S
C151 N149 1.335 . S
C151 N150 1.345 . S
C151 H156 0.930 . S
C152 N149 1.390 . S
C152 C153 1.346 . S
C152 H157 0.930 . S
C153 N150 1.336 . S
C153 C152 1.346 . S
C153 H160 0.929 . S
C154 O144 1.282 . S
C154 O155 1.216 . S
O155 C154 1.216 . S
H156 C151 0.930 . S
H157 C152 0.930 . S
O158 Cu138 1.959 . S
O158 C145 1.251 . S
H159 C142 0.930 . S
H160 C153 0.929 . S
Cu161 N162 1.999 . S
Cu161 O167 1.974 . S
Cu161 N172 1.985 . S
Cu161 O181 1.959 . S
N162 Cu161 1.999 . S
N162 C164 1.263 . S
N162 C166 1.389 . S
N163 C164 1.358 . S
N163 C165 1.400 . S
C164 N162 1.263 . S
C164 N163 1.358 . S
C164 H170 0.930 . S
C165 N163 1.400 . S
C165 C166 1.351 . S
C165 H182 0.930 . S
C166 N162 1.389 . S
C166 C165 1.351 . S
C166 H171 0.930 . S
O167 Cu161 1.974 . S
O167 C177 1.282 . S
C168 O169 1.261 . S
C168 O181 1.251 . S
O169 C168 1.261 . S
H170 C164 0.930 . S
H171 C166 0.930 . S
N172 Cu161 1.985 . S
N172 C174 1.335 . S
N172 C175 1.390 . S
N173 C174 1.345 . S
N173 C176 1.336 . S
C174 N172 1.335 . S
C174 N173 1.345 . S
C174 H179 0.930 . S
C175 N172 1.390 . S
C175 C176 1.346 . S
C175 H180 0.930 . S
C176 N173 1.336 . S
C176 C175 1.346 . S
C176 H183 0.929 . S
C177 O167 1.282 . S
C177 O178 1.216 . S
O178 C177 1.216 . S
H179 C174 0.930 . S
H180 C175 0.930 . S
O181 Cu161 1.959 . S
O181 C168 1.251 . S
H182 C165 0.930 . S
H183 C176 0.929 . S
Cu184 N185 1.999 . S
Cu184 O190 1.974 . S
Cu184 N195 1.985 . S
Cu184 O204 1.959 . S
N185 Cu184 1.999 . S
N185 C187 1.263 . S
N185 C189 1.389 . S
N186 C187 1.358 . S
N186 C188 1.400 . S
C187 N185 1.263 . S
C187 N186 1.358 . S
C187 H193 0.930 . S
C188 N186 1.400 . S
C188 C189 1.351 . S
C188 H205 0.930 . S
C189 N185 1.389 . S
C189 C188 1.351 . S
C189 H194 0.930 . S
O190 Cu184 1.974 . S
O190 C200 1.282 . S
C191 O192 1.261 . S
C191 O204 1.251 . S
O192 C191 1.261 . S
H193 C187 0.930 . S
H194 C189 0.930 . S
N195 Cu184 1.985 . S
N195 C197 1.335 . S
N195 C198 1.390 . S
N196 C197 1.345 . S
N196 C199 1.336 . S
C197 N195 1.335 . S
C197 N196 1.345 . S
C197 H202 0.930 . S
C198 N195 1.390 . S
C198 C199 1.346 . S
C198 H203 0.930 . S
C199 N196 1.336 . S
C199 C198 1.346 . S
C199 H206 0.929 . S
C200 O190 1.282 . S
C200 O201 1.216 . S
O201 C200 1.216 . S
H202 C197 0.930 . S
H203 C198 0.930 . S
O204 Cu184 1.959 . S
O204 C191 1.251 . S
H205 C188 0.930 . S
H206 C199 0.929 . S
Cu207 N208 1.999 . S
Cu207 O213 1.974 . S
Cu207 N218 1.985 . S
Cu207 O227 1.959 . S
N208 Cu207 1.999 . S
N208 C210 1.263 . S
N208 C212 1.389 . S
N209 C210 1.358 . S
N209 C211 1.400 . S
C210 N208 1.263 . S
C210 N209 1.358 . S
C210 H216 0.930 . S
C211 N209 1.400 . S
C211 C212 1.351 . S
C211 H228 0.930 . S
C212 N208 1.389 . S
C212 C211 1.351 . S
C212 H217 0.930 . S
O213 Cu207 1.974 . S
O213 C223 1.282 . S
C214 O215 1.261 . S
C214 O227 1.251 . S
O215 C214 1.261 . S
H216 C210 0.930 . S
H217 C212 0.930 . S
N218 Cu207 1.985 . S
N218 C220 1.335 . S
N218 C221 1.390 . S
N219 C220 1.345 . S
N219 C222 1.336 . S
C220 N218 1.335 . S
C220 N219 1.345 . S
C220 H225 0.930 . S
C221 N218 1.390 . S
C221 C222 1.346 . S
C221 H226 0.930 . S
C222 N219 1.336 . S
C222 C221 1.346 . S
C222 H229 0.929 . S
C223 O213 1.282 . S
C223 O224 1.216 . S
O224 C223 1.216 . S
H225 C220 0.930 . S
H226 C221 0.930 . S
O227 Cu207 1.959 . S
O227 C214 1.251 . S
H228 C211 0.930 . S
H229 C222 0.929 . S
Cu230 N231 1.999 . S
Cu230 O236 1.974 . S
Cu230 N241 1.985 . S
Cu230 O250 1.959 . S
N231 Cu230 1.999 . S
N231 C233 1.263 . S
N231 C235 1.389 . S
N232 C233 1.358 . S
N232 C234 1.400 . S
C233 N231 1.263 . S
C233 N232 1.358 . S
C233 H239 0.930 . S
C234 N232 1.400 . S
C234 C235 1.351 . S
C234 H251 0.930 . S
C235 N231 1.389 . S
C235 C234 1.351 . S
C235 H240 0.930 . S
O236 Cu230 1.974 . S
O236 C246 1.282 . S
C237 O238 1.261 . S
C237 O250 1.251 . S
O238 C237 1.261 . S
H239 C233 0.930 . S
H240 C235 0.930 . S
N241 Cu230 1.985 . S
N241 C243 1.335 . S
N241 C244 1.390 . S
N242 C243 1.345 . S
N242 C245 1.336 . S
C243 N241 1.335 . S
C243 N242 1.345 . S
C243 H248 0.930 . S
C244 N241 1.390 . S
C244 C245 1.346 . S
C244 H249 0.930 . S
C245 N242 1.336 . S
C245 C244 1.346 . S
C245 H252 0.929 . S
C246 O236 1.282 . S
C246 O247 1.216 . S
O247 C246 1.216 . S
H248 C243 0.930 . S
H249 C244 0.930 . S
O250 Cu230 1.959 . S
O250 C237 1.251 . S
H251 C234 0.930 . S
H252 C245 0.929 . S
Cu253 N254 1.999 . S
Cu253 O259 1.974 . S
Cu253 N264 1.985 . S
Cu253 O273 1.959 . S
N254 Cu253 1.999 . S
N254 C256 1.263 . S
N254 C258 1.389 . S
N255 C256 1.358 . S
N255 C257 1.400 . S
C256 N254 1.263 . S
C256 N255 1.358 . S
C256 H262 0.930 . S
C257 N255 1.400 . S
C257 C258 1.351 . S
C257 H274 0.930 . S
C258 N254 1.389 . S
C258 C257 1.351 . S
C258 H263 0.930 . S
O259 Cu253 1.974 . S
O259 C269 1.282 . S
C260 O261 1.261 . S
C260 O273 1.251 . S
O261 C260 1.261 . S
H262 C256 0.930 . S
H263 C258 0.930 . S
N264 Cu253 1.985 . S
N264 C266 1.335 . S
N264 C267 1.390 . S
N265 C266 1.345 . S
N265 C268 1.336 . S
C266 N264 1.335 . S
C266 N265 1.345 . S
C266 H271 0.930 . S
C267 N264 1.390 . S
C267 C268 1.346 . S
C267 H272 0.930 . S
C268 N265 1.336 . S
C268 C267 1.346 . S
C268 H275 0.929 . S
C269 O259 1.282 . S
C269 O270 1.216 . S
O270 C269 1.216 . S
H271 C266 0.930 . S
H272 C267 0.930 . S
O273 Cu253 1.959 . S
O273 C260 1.251 . S
H274 C257 0.930 . S
H275 C268 0.929 . S
Cu276 N277 1.999 . S
Cu276 O282 1.974 . S
Cu276 N287 1.985 . S
Cu276 O296 1.959 . S
N277 Cu276 1.999 . S
N277 C279 1.263 . S
N277 C281 1.389 . S
N278 C279 1.358 . S
N278 C280 1.400 . S
C279 N277 1.263 . S
C279 N278 1.358 . S
C279 H285 0.930 . S
C280 N278 1.400 . S
C280 C281 1.351 . S
C280 H297 0.930 . S
C281 N277 1.389 . S
C281 C280 1.351 . S
C281 H286 0.930 . S
O282 Cu276 1.974 . S
O282 C292 1.282 . S
C283 O284 1.261 . S
C283 O296 1.251 . S
O284 C283 1.261 . S
H285 C279 0.930 . S
H286 C281 0.930 . S
N287 Cu276 1.985 . S
N287 C289 1.335 . S
N287 C290 1.390 . S
N288 C289 1.345 . S
N288 C291 1.336 . S
C289 N287 1.335 . S
C289 N288 1.345 . S
C289 H294 0.930 . S
C290 N287 1.390 . S
C290 C291 1.346 . S
C290 H295 0.930 . S
C291 N288 1.336 . S
C291 C290 1.346 . S
C291 H298 0.929 . S
C292 O282 1.282 . S
C292 O293 1.216 . S
O293 C292 1.216 . S
H294 C289 0.930 . S
H295 C290 0.930 . S
O296 Cu276 1.959 . S
O296 C283 1.251 . S
H297 C280 0.930 . S
H298 C291 0.929 . S
Cu299 N300 1.999 . S
Cu299 O305 1.974 . S
Cu299 N310 1.985 . S
Cu299 O319 1.959 . S
N300 Cu299 1.999 . S
N300 C302 1.263 . S
N300 C304 1.389 . S
N301 C302 1.358 . S
N301 C303 1.400 . S
C302 N300 1.263 . S
C302 N301 1.358 . S
C302 H308 0.930 . S
C303 N301 1.400 . S
C303 C304 1.351 . S
C303 H320 0.930 . S
C304 N300 1.389 . S
C304 C303 1.351 . S
C304 H309 0.930 . S
O305 Cu299 1.974 . S
O305 C315 1.282 . S
C306 O307 1.261 . S
C306 O319 1.251 . S
O307 C306 1.261 . S
H308 C302 0.930 . S
H309 C304 0.930 . S
N310 Cu299 1.985 . S
N310 C312 1.335 . S
N310 C313 1.390 . S
N311 C312 1.345 . S
N311 C314 1.336 . S
C312 N310 1.335 . S
C312 N311 1.345 . S
C312 H317 0.930 . S
C313 N310 1.390 . S
C313 C314 1.346 . S
C313 H318 0.930 . S
C314 N311 1.336 . S
C314 C313 1.346 . S
C314 H321 0.929 . S
C315 O305 1.282 . S
C315 O316 1.216 . S
O316 C315 1.216 . S
H317 C312 0.930 . S
H318 C313 0.930 . S
O319 Cu299 1.959 . S
O319 C306 1.251 . S
H320 C303 0.930 . S
H321 C314 0.929 . S
Cu322 N323 1.999 . S
Cu322 O328 1.974 . S
Cu322 N333 1.985 . S
Cu322 O342 1.959 . S
N323 Cu322 1.999 . S
N323 C325 1.263 . S
N323 C327 1.389 . S
N324 C325 1.358 . S
N324 C326 1.400 . S
C325 N323 1.263 . S
C325 N324 1.358 . S
C325 H331 0.930 . S
C326 N324 1.400 . S
C326 C327 1.351 . S
C326 H343 0.930 . S
C327 N323 1.389 . S
C327 C326 1.351 . S
C327 H332 0.930 . S
O328 Cu322 1.974 . S
O328 C338 1.282 . S
C329 O330 1.261 . S
C329 O342 1.251 . S
O330 C329 1.261 . S
H331 C325 0.930 . S
H332 C327 0.930 . S
N333 Cu322 1.985 . S
N333 C335 1.335 . S
N333 C336 1.390 . S
N334 C335 1.345 . S
N334 C337 1.336 . S
C335 N333 1.335 . S
C335 N334 1.345 . S
C335 H340 0.930 . S
C336 N333 1.390 . S
C336 C337 1.346 . S
C336 H341 0.930 . S
C337 N334 1.336 . S
C337 C336 1.346 . S
C337 H344 0.929 . S
C338 O328 1.282 . S
C338 O339 1.216 . S
O339 C338 1.216 . S
H340 C335 0.930 . S
H341 C336 0.930 . S
O342 Cu322 1.959 . S
O342 C329 1.251 . S
H343 C326 0.930 . S
H344 C337 0.929 . S
Cu345 N346 1.999 . S
Cu345 O351 1.974 . S
Cu345 N356 1.985 . S
Cu345 O365 1.959 . S
N346 Cu345 1.999 . S
N346 C348 1.263 . S
N346 C350 1.389 . S
N347 C348 1.358 . S
N347 C349 1.400 . S
C348 N346 1.263 . S
C348 N347 1.358 . S
C348 H354 0.930 . S
C349 N347 1.400 . S
C349 C350 1.351 . S
C349 H366 0.930 . S
C350 N346 1.389 . S
C350 C349 1.351 . S
C350 H355 0.930 . S
O351 Cu345 1.974 . S
O351 C361 1.282 . S
C352 O353 1.261 . S
C352 O365 1.251 . S
O353 C352 1.261 . S
H354 C348 0.930 . S
H355 C350 0.930 . S
N356 Cu345 1.985 . S
N356 C358 1.335 . S
N356 C359 1.390 . S
N357 C358 1.345 . S
N357 C360 1.336 . S
C358 N356 1.335 . S
C358 N357 1.345 . S
C358 H363 0.930 . S
C359 N356 1.390 . S
C359 C360 1.346 . S
C359 H364 0.930 . S
C360 N357 1.336 . S
C360 C359 1.346 . S
C360 H367 0.929 . S
C361 O351 1.282 . S
C361 O362 1.216 . S
O362 C361 1.216 . S
H363 C358 0.930 . S
H364 C359 0.930 . S
O365 Cu345 1.959 . S
O365 C352 1.251 . S
H366 C349 0.930 . S
H367 C360 0.929 . S
Cu368 N369 1.999 . S
Cu368 O374 1.974 . S
Cu368 N379 1.985 . S
Cu368 O388 1.959 . S
N369 Cu368 1.999 . S
N369 C371 1.263 . S
N369 C373 1.389 . S
N370 C371 1.358 . S
N370 C372 1.400 . S
C371 N369 1.263 . S
C371 N370 1.358 . S
C371 H377 0.930 . S
C372 N370 1.400 . S
C372 C373 1.351 . S
C372 H389 0.930 . S
C373 N369 1.389 . S
C373 C372 1.351 . S
C373 H378 0.930 . S
O374 Cu368 1.974 . S
O374 C384 1.282 . S
C375 O376 1.261 . S
C375 O388 1.251 . S
O376 C375 1.261 . S
H377 C371 0.930 . S
H378 C373 0.930 . S
N379 Cu368 1.985 . S
N379 C381 1.335 . S
N379 C382 1.390 . S
N380 C381 1.345 . S
N380 C383 1.336 . S
C381 N379 1.335 . S
C381 N380 1.345 . S
C381 H386 0.930 . S
C382 N379 1.390 . S
C382 C383 1.346 . S
C382 H387 0.930 . S
C383 N380 1.336 . S
C383 C382 1.346 . S
C383 H390 0.929 . S
C384 O374 1.282 . S
C384 O385 1.216 . S
O385 C384 1.216 . S
H386 C381 0.930 . S
H387 C382 0.930 . S
O388 Cu368 1.959 . S
O388 C375 1.251 . S
H389 C372 0.930 . S
H390 C383 0.929 . S
Cu391 N392 1.999 . S
Cu391 O397 1.974 . S
Cu391 N402 1.985 . S
Cu391 O411 1.959 . S
N392 Cu391 1.999 . S
N392 C394 1.263 . S
N392 C396 1.389 . S
N393 C394 1.358 . S
N393 C395 1.400 . S
C394 N392 1.263 . S
C394 N393 1.358 . S
C394 H400 0.930 . S
C395 N393 1.400 . S
C395 C396 1.351 . S
C395 H412 0.930 . S
C396 N392 1.389 . S
C396 C395 1.351 . S
C396 H401 0.930 . S
O397 Cu391 1.974 . S
O397 C407 1.282 . S
C398 O399 1.261 . S
C398 O411 1.251 . S
O399 C398 1.261 . S
H400 C394 0.930 . S
H401 C396 0.930 . S
N402 Cu391 1.985 . S
N402 C404 1.335 . S
N402 C405 1.390 . S
N403 C404 1.345 . S
N403 C406 1.336 . S
C404 N402 1.335 . S
C404 N403 1.345 . S
C404 H409 0.930 . S
C405 N402 1.390 . S
C405 C406 1.346 . S
C405 H410 0.930 . S
C406 N403 1.336 . S
C406 C405 1.346 . S
C406 H413 0.929 . S
C407 O397 1.282 . S
C407 O408 1.216 . S
O408 C407 1.216 . S
H409 C404 0.930 . S
H410 C405 0.930 . S
O411 Cu391 1.959 . S
O411 C398 1.251 . S
H412 C395 0.930 . S
H413 C406 0.929 . S
In414 O415 2.294 . S
In414 O416 2.326 . S
In414 O420 2.266 . S
In414 O421 2.326 . S
In414 O422 2.266 1_455 S
In414 O423 2.326 . S
In414 O425 2.294 . S
In414 O426 2.326 . S
O415 In414 2.294 . S
O415 C424 1.240 . S
O416 In414 2.326 . S
O416 C424 1.252 . S
C417 O420 1.252 . S
C417 O421 1.260 . S
C418 O425 1.240 . S
C418 O426 1.252 . S
C419 O422 1.252 . S
C419 O423 1.260 1_655 S
O420 In414 2.266 . S
O420 C417 1.252 . S
O421 In414 2.326 . S
O421 C417 1.260 . S
O422 In414 2.266 1_655 S
O422 C419 1.252 . S
O423 In414 2.326 . S
O423 C419 1.260 1_455 S
C424 O415 1.240 . S
C424 O416 1.252 . S
O425 In414 2.294 . S
O425 C418 1.240 . S
O426 In414 2.326 . S
O426 C418 1.252 . S
In427 O428 2.294 . S
In427 O429 2.326 . S
In427 O433 2.266 . S
In427 O434 2.326 . S
In427 O435 2.266 . S
In427 O436 2.326 . S
In427 O438 2.294 . S
In427 O439 2.326 . S
O428 In427 2.294 . S
O428 C437 1.240 . S
O429 In427 2.326 . S
O429 C437 1.252 . S
C430 O433 1.252 . S
C430 O434 1.260 . S
C431 O438 1.240 . S
C431 O439 1.252 . S
C432 O435 1.252 . S
C432 O436 1.260 . S
O433 In427 2.266 . S
O433 C430 1.252 . S
O434 In427 2.326 . S
O434 C430 1.260 . S
O435 In427 2.266 . S
O435 C432 1.252 . S
O436 In427 2.326 . S
O436 C432 1.260 . S
C437 O428 1.240 . S
C437 O429 1.252 . S
O438 In427 2.294 . S
O438 C431 1.240 . S
O439 In427 2.326 . S
O439 C431 1.252 . S
In440 O441 2.294 . S
In440 O442 2.326 . S
In440 O446 2.266 . S
In440 O447 2.326 . S
In440 O448 2.266 . S
In440 O449 2.326 . S
In440 O451 2.294 . S
In440 O452 2.326 . S
O441 In440 2.294 . S
O441 C450 1.240 . S
O442 In440 2.326 . S
O442 C450 1.252 . S
C443 O446 1.252 . S
C443 O447 1.260 . S
C444 O451 1.240 . S
C444 O452 1.252 . S
C445 O448 1.252 . S
C445 O449 1.260 . S
O446 In440 2.266 . S
O446 C443 1.252 . S
O447 In440 2.326 . S
O447 C443 1.260 . S
O448 In440 2.266 . S
O448 C445 1.252 . S
O449 In440 2.326 . S
O449 C445 1.260 . S
C450 O441 1.240 . S
C450 O442 1.252 . S
O451 In440 2.294 . S
O451 C444 1.240 . S
O452 In440 2.326 . S
O452 C444 1.252 . S
In453 O454 2.294 . S
In453 O455 2.326 . S
In453 O459 2.266 . S
In453 O460 2.326 . S
In453 O461 2.266 . S
In453 O462 2.326 . S
In453 O464 2.294 . S
In453 O465 2.326 . S
O454 In453 2.294 . S
O454 C463 1.240 . S
O455 In453 2.326 . S
O455 C463 1.252 . S
C456 O459 1.252 . S
C456 O460 1.260 . S
C457 O464 1.240 . S
C457 O465 1.252 . S
C458 O461 1.252 . S
C458 O462 1.260 . S
O459 In453 2.266 . S
O459 C456 1.252 . S
O460 In453 2.326 . S
O460 C456 1.260 . S
O461 In453 2.266 . S
O461 C458 1.252 . S
O462 In453 2.326 . S
O462 C458 1.260 . S
C463 O454 1.240 . S
C463 O455 1.252 . S
O464 In453 2.294 . S
O464 C457 1.240 . S
O465 In453 2.326 . S
O465 C457 1.252 . S
In466 O467 2.294 . S
In466 O468 2.326 . S
In466 O472 2.266 . S
In466 O473 2.326 . S
In466 O474 2.266 . S
In466 O475 2.326 . S
In466 O477 2.294 . S
In466 O478 2.326 . S
O467 In466 2.294 . S
O467 C476 1.240 . S
O468 In466 2.326 . S
O468 C476 1.252 . S
C469 O472 1.252 . S
C469 O473 1.260 . S
C470 O477 1.240 . S
C470 O478 1.252 . S
C471 O474 1.252 . S
C471 O475 1.260 . S
O472 In466 2.266 . S
O472 C469 1.252 . S
O473 In466 2.326 . S
O473 C469 1.260 . S
O474 In466 2.266 . S
O474 C471 1.252 . S
O475 In466 2.326 . S
O475 C471 1.260 . S
C476 O467 1.240 . S
C476 O468 1.252 . S
O477 In466 2.294 . S
O477 C470 1.240 . S
O478 In466 2.326 . S
O478 C470 1.252 . S
In479 O480 2.294 . S
In479 O481 2.326 . S
In479 O485 2.266 . S
In479 O486 2.326 . S
In479 O487 2.296 . S
In479 O488 2.326 . S
In479 O490 2.294 . S
In479 O491 2.326 . S
O480 In479 2.294 . S
O480 C489 1.240 . S
O481 In479 2.326 . S
O481 C489 1.252 . S
C482 O485 1.252 . S
C482 O486 1.260 . S
C483 O490 1.240 . S
C483 O491 1.252 . S
C484 O487 1.283 . S
C484 O488 1.260 . S
O485 In479 2.266 . S
O485 C482 1.252 . S
O486 In479 2.326 . S
O486 C482 1.260 . S
O487 In479 2.296 . S
O487 C484 1.283 . S
O488 In479 2.326 . S
O488 C484 1.260 . S
C489 O480 1.240 . S
C489 O481 1.252 . S
O490 In479 2.294 . S
O490 C483 1.240 . S
O491 In479 2.326 . S
O491 C483 1.252 . S
In492 O493 2.294 1_565 S
In492 O494 2.326 1_565 S
In492 O498 2.266 . S
In492 O499 2.326 . S
In492 O500 2.266 . S
In492 O501 2.326 1_565 S
In492 O503 2.294 . S
In492 O504 2.326 . S
O493 In492 2.294 1_545 S
O493 C502 1.240 . S
O494 In492 2.326 1_545 S
O494 C502 1.252 . S
C495 O498 1.252 . S
C495 O499 1.260 . S
C496 O503 1.240 . S
C496 O504 1.252 . S
C497 O500 1.252 . S
C497 O501 1.260 1_565 S
O498 In492 2.266 . S
O498 C495 1.252 . S
O499 In492 2.326 . S
O499 C495 1.260 . S
O500 In492 2.266 . S
O500 C497 1.252 . S
O501 In492 2.326 1_545 S
O501 C497 1.260 1_545 S
C502 O493 1.240 . S
C502 O494 1.252 . S
O503 In492 2.294 . S
O503 C496 1.240 . S
O504 In492 2.326 . S
O504 C496 1.252 . S
In505 O506 2.294 . S
In505 O507 2.326 . S
In505 O511 2.266 . S
In505 O512 2.326 . S
In505 O513 2.266 . S
In505 O514 2.326 . S
In505 O516 2.294 . S
In505 O517 2.326 . S
O506 In505 2.294 . S
O506 C515 1.240 . S
O507 In505 2.326 . S
O507 C515 1.252 . S
C508 O511 1.252 . S
C508 O512 1.260 . S
C509 O516 1.240 . S
C509 O517 1.252 . S
C510 O513 1.252 . S
C510 O514 1.260 . S
O511 In505 2.266 . S
O511 C508 1.252 . S
O512 In505 2.326 . S
O512 C508 1.260 . S
O513 In505 2.266 . S
O513 C510 1.252 . S
O514 In505 2.326 . S
O514 C510 1.260 . S
C515 O506 1.240 . S
C515 O507 1.252 . S
O516 In505 2.294 . S
O516 C509 1.240 . S
O517 In505 2.326 . S
O517 C509 1.252 . S
In518 O519 2.294 . S
In518 O520 2.326 . S
In518 O524 2.266 . S
In518 O525 2.326 . S
In518 O526 2.266 . S
In518 O527 2.326 . S
In518 O529 2.294 . S
In518 O530 2.326 . S
O519 In518 2.294 . S
O519 C528 1.240 . S
O520 In518 2.326 . S
O520 C528 1.252 . S
C521 O524 1.252 . S
C521 O525 1.260 . S
C522 O529 1.240 . S
C522 O530 1.252 . S
C523 O526 1.252 . S
C523 O527 1.260 . S
O524 In518 2.266 . S
O524 C521 1.252 . S
O525 In518 2.326 . S
O525 C521 1.260 . S
O526 In518 2.266 . S
O526 C523 1.252 . S
O527 In518 2.326 . S
O527 C523 1.260 . S
C528 O519 1.240 . S
C528 O520 1.252 . S
O529 In518 2.294 . S
O529 C522 1.240 . S
O530 In518 2.326 . S
O530 C522 1.252 . S
In531 O532 2.294 . S
In531 O533 2.326 . S
In531 O537 2.266 . S
In531 O538 2.326 . S
In531 O539 2.266 . S
In531 O540 2.326 . S
In531 O542 2.294 . S
In531 O543 2.326 . S
O532 In531 2.294 . S
O532 C541 1.240 . S
O533 In531 2.326 . S
O533 C541 1.252 . S
C534 O537 1.252 . S
C534 O538 1.260 . S
C535 O542 1.240 . S
C535 O543 1.252 . S
C536 O539 1.252 . S
C536 O540 1.260 . S
O537 In531 2.266 . S
O537 C534 1.252 . S
O538 In531 2.326 . S
O538 C534 1.260 . S
O539 In531 2.266 . S
O539 C536 1.252 . S
O540 In531 2.326 . S
O540 C536 1.260 . S
C541 O532 1.240 . S
C541 O533 1.252 . S
O542 In531 2.294 . S
O542 C535 1.240 . S
O543 In531 2.326 . S
O543 C535 1.252 . S
In544 O545 2.298 . S
In544 O546 2.326 . S
In544 O550 2.269 1_565 S
In544 O551 2.324 1_565 S
In544 O552 2.261 1_565 S
In544 O553 2.322 1_565 S
In544 O555 2.293 . S
In544 O556 2.330 . S
O545 In544 2.298 . S
O545 C554 1.240 . S
O546 In544 2.326 . S
O546 C554 1.252 . S
C547 O550 1.252 . S
C547 O551 1.260 . S
C548 O555 1.240 . S
C548 O556 1.252 . S
C549 O552 1.252 . S
C549 O553 1.260 . S
O550 In544 2.269 1_545 S
O550 C547 1.252 . S
O551 In544 2.324 1_545 S
O551 C547 1.260 . S
O552 In544 2.261 1_545 S
O552 C549 1.252 . S
O553 In544 2.322 1_545 S
O553 C549 1.260 . S
C554 O545 1.240 . S
C554 O546 1.252 . S
O555 In544 2.293 . S
O555 C548 1.240 . S
O556 In544 2.330 . S
O556 C548 1.252 . S
In557 O558 2.294 . S
In557 O559 2.326 . S
In557 O563 2.266 . S
In557 O564 2.326 . S
In557 O565 2.266 . S
In557 O566 2.326 . S
In557 O568 2.294 . S
In557 O569 2.326 . S
O558 In557 2.294 . S
O558 C567 1.240 . S
O559 In557 2.326 . S
O559 C567 1.252 . S
C560 O563 1.252 . S
C560 O564 1.260 . S
C561 O568 1.240 . S
C561 O569 1.252 . S
C562 O565 1.252 . S
C562 O566 1.260 . S
O563 In557 2.266 . S
O563 C560 1.252 . S
O564 In557 2.326 . S
O564 C560 1.260 . S
O565 In557 2.266 . S
O565 C562 1.252 . S
O566 In557 2.326 . S
O566 C562 1.260 . S
C567 O558 1.240 . S
C567 O559 1.252 . S
O568 In557 2.294 . S
O568 C561 1.240 . S
O569 In557 2.326 . S
O569 C561 1.252 . S
In570 O571 2.294 . S
In570 O572 2.326 . S
In570 O576 2.266 . S
In570 O577 2.326 . S
In570 O578 2.266 . S
In570 O579 2.326 . S
In570 O581 2.294 . S
In570 O582 2.326 . S
O571 In570 2.294 . S
O571 C580 1.240 . S
O572 In570 2.326 . S
O572 C580 1.252 . S
C573 O576 1.252 . S
C573 O577 1.260 . S
C574 O581 1.240 . S
C574 O582 1.252 . S
C575 O578 1.252 . S
C575 O579 1.260 . S
O576 In570 2.266 . S
O576 C573 1.252 . S
O577 In570 2.326 . S
O577 C573 1.260 . S
O578 In570 2.266 . S
O578 C575 1.252 . S
O579 In570 2.326 . S
O579 C575 1.260 . S
C580 O571 1.240 . S
C580 O572 1.252 . S
O581 In570 2.294 . S
O581 C574 1.240 . S
O582 In570 2.326 . S
O582 C574 1.252 . S
In583 O584 2.294 . S
In583 O585 2.326 . S
In583 O589 2.266 . S
In583 O590 2.326 . S
In583 O591 2.266 . S
In583 O592 2.326 . S
In583 O594 2.294 . S
In583 O595 2.326 . S
O584 In583 2.294 . S
O584 C593 1.240 . S
O585 In583 2.326 . S
O585 C593 1.252 . S
C586 O589 1.252 . S
C586 O590 1.260 . S
C587 O594 1.240 . S
C587 O595 1.252 . S
C588 O591 1.252 . S
C588 O592 1.260 . S
O589 In583 2.266 . S
O589 C586 1.252 . S
O590 In583 2.326 . S
O590 C586 1.260 . S
O591 In583 2.266 . S
O591 C588 1.252 . S
O592 In583 2.326 . S
O592 C588 1.260 . S
C593 O584 1.240 . S
C593 O585 1.252 . S
O594 In583 2.294 . S
O594 C587 1.240 . S
O595 In583 2.326 . S
O595 C587 1.252 . S
In596 O597 2.294 . S
In596 O598 2.326 . S
In596 O602 2.266 1_655 S
In596 O603 2.326 1_655 S
In596 O604 2.266 . S
In596 O605 2.326 . S
In596 O607 2.294 . S
In596 O608 2.327 1_655 S
O597 In596 2.294 . S
O597 C606 1.240 . S
O598 In596 2.326 . S
O598 C606 1.252 . S
C599 O602 1.252 . S
C599 O603 1.260 . S
C600 O607 1.240 . S
C600 O608 1.252 1_655 S
C601 O604 1.252 . S
C601 O605 1.260 . S
O602 In596 2.266 1_455 S
O602 C599 1.252 . S
O603 In596 2.326 1_455 S
O603 C599 1.260 . S
O604 In596 2.266 . S
O604 C601 1.252 . S
O605 In596 2.326 . S
O605 C601 1.260 . S
C606 O597 1.240 . S
C606 O598 1.252 . S
O607 In596 2.294 . S
O607 C600 1.240 . S
O608 In596 2.327 1_455 S
O608 C600 1.252 1_455 S
In609 O610 2.294 . S
In609 O611 2.326 . S
In609 O615 2.266 . S
In609 O616 2.326 . S
In609 O617 2.266 . S
In609 O618 2.326 . S
In609 O620 2.294 . S
In609 O621 2.326 . S
O610 In609 2.294 . S
O610 C619 1.240 . S
O611 In609 2.326 . S
O611 C619 1.252 . S
C612 O615 1.252 . S
C612 O616 1.260 . S
C613 O620 1.240 . S
C613 O621 1.252 . S
C614 O617 1.252 . S
C614 O618 1.260 . S
O615 In609 2.266 . S
O615 C612 1.252 . S
O616 In609 2.326 . S
O616 C612 1.260 . S
O617 In609 2.266 . S
O617 C614 1.252 . S
O618 In609 2.326 . S
O618 C614 1.260 . S
C619 O610 1.240 . S
C619 O611 1.252 . S
O620 In609 2.294 . S
O620 C613 1.240 . S
O621 In609 2.326 . S
O621 C613 1.252 . S
In622 O623 2.294 . S
In622 O624 2.326 . S
In622 O628 2.266 1_655 S
In622 O629 2.326 1_655 S
In622 O630 2.293 1_655 S
In622 O631 2.326 1_655 S
In622 O633 2.294 . S
In622 O634 2.326 . S
O623 In622 2.294 . S
O623 C632 1.240 . S
O624 In622 2.326 . S
O624 C632 1.252 . S
C625 O628 1.252 . S
C625 O629 1.260 . S
C626 O633 1.240 . S
C626 O634 1.252 . S
C627 O630 1.283 . S
C627 O631 1.260 . S
O628 In622 2.266 1_455 S
O628 C625 1.252 . S
O629 In622 2.326 1_455 S
O629 C625 1.260 . S
O630 In622 2.293 1_455 S
O630 C627 1.283 . S
O631 In622 2.326 1_455 S
O631 C627 1.260 . S
C632 O623 1.240 . S
C632 O624 1.252 . S
O633 In622 2.294 . S
O633 C626 1.240 . S
O634 In622 2.326 . S
O634 C626 1.252 . S
In635 O636 2.294 . S
In635 O637 2.326 . S
In635 O641 2.266 . S
In635 O642 2.326 . S
In635 O643 2.266 . S
In635 O644 2.326 . S
In635 O646 2.294 . S
In635 O647 2.326 . S
O636 In635 2.294 . S
O636 C645 1.240 . S
O637 In635 2.326 . S
O637 C645 1.252 . S
C638 O641 1.252 . S
C638 O642 1.260 . S
C639 O646 1.240 . S
C639 O647 1.252 . S
C640 O643 1.252 . S
C640 O644 1.260 . S
O641 In635 2.266 . S
O641 C638 1.252 . S
O642 In635 2.326 . S
O642 C638 1.260 . S
O643 In635 2.266 . S
O643 C640 1.252 . S
O644 In635 2.326 . S
O644 C640 1.260 . S
C645 O636 1.240 . S
C645 O637 1.252 . S
O646 In635 2.294 . S
O646 C639 1.240 . S
O647 In635 2.326 . S
O647 C639 1.252 . S
C648 C649 1.391 . S
C648 C650 1.394 . S
C648 H664 0.931 1_554 S
C649 C648 1.391 . S
C649 C653 1.376 . S
C650 C648 1.394 . S
C650 C651 1.369 . S
C650 C654 1.531 . S
C651 C650 1.369 . S
C651 C652 1.410 . S
C651 C659 1.503 . S
C652 C651 1.410 . S
C652 C653 1.392 . S
C652 C655 1.511 . S
C653 C649 1.376 . S
C653 C652 1.392 . S
C653 H665 0.929 . S
C654 C650 1.531 . S
C654 H666 0.960 . S
C654 H667 0.962 . S
C654 H668 0.960 1_554 S
C655 C652 1.511 . S
C655 H669 0.961 . S
C655 H670 0.961 . S
C655 H671 0.961 . S
C656 C657 1.370 . S
C656 C658 1.363 . S
C656 H672 0.931 . S
C657 C656 1.370 . S
C657 C661 1.408 . S
C658 C656 1.363 . S
C658 C659 1.370 . S
C658 C662 1.524 1_455 S
C659 C651 1.503 . S
C659 C658 1.370 . S
C659 C660 1.403 . S
C660 C659 1.403 . S
C660 C661 1.404 . S
C660 C663 1.539 . S
C661 C657 1.408 . S
C661 C660 1.404 . S
C661 H673 0.930 . S
C662 C658 1.524 1_655 S
C662 H674 0.956 . S
C662 H675 0.961 . S
C662 H676 0.961 . S
C663 C660 1.539 . S
C663 H677 0.958 . S
C663 H678 0.961 . S
C663 H679 0.960 . S
H664 C648 0.931 1_556 S
H665 C653 0.929 . S
H666 C654 0.960 . S
H667 C654 0.962 . S
H668 C654 0.960 1_556 S
H669 C655 0.961 . S
H670 C655 0.961 . S
H671 C655 0.961 . S
H672 C656 0.931 . S
H673 C661 0.930 . S
H674 C662 0.956 . S
H675 C662 0.961 . S
H676 C662 0.961 . S
H677 C663 0.958 . S
H678 C663 0.961 . S
H679 C663 0.960 . S
C680 C681 1.391 . S
C680 C682 1.394 . S
C680 H696 0.931 . S
C681 C680 1.391 . S
C681 C685 1.376 . S
C682 C680 1.394 . S
C682 C683 1.369 . S
C682 C686 1.531 . S
C683 C682 1.369 . S
C683 C684 1.410 . S
C683 C691 1.503 . S
C684 C683 1.410 . S
C684 C685 1.392 . S
C684 C687 1.511 . S
C685 C681 1.376 . S
C685 C684 1.392 . S
C685 H697 0.929 . S
C686 C682 1.531 . S
C686 H698 0.960 . S
C686 H699 0.962 . S
C686 H700 0.960 . S
C687 C684 1.511 . S
C687 H701 0.961 1_554 S
C687 H702 0.961 . S
C687 H703 0.961 1_554 S
C688 C689 1.370 . S
C688 C690 1.363 . S
C688 H704 0.931 . S
C689 C688 1.370 . S
C689 C693 1.408 . S
C690 C688 1.363 . S
C690 C691 1.370 . S
C690 C694 1.524 . S
C691 C683 1.503 . S
C691 C690 1.370 . S
C691 C692 1.403 . S
C692 C691 1.403 . S
C692 C693 1.404 . S
C692 C695 1.539 . S
C693 C689 1.408 . S
C693 C692 1.404 . S
C693 H705 0.930 . S
C694 C690 1.524 . S
C694 H706 0.956 . S
C694 H707 0.961 . S
C694 H708 0.961 . S
C695 C692 1.539 . S
C695 H709 0.958 . S
C695 H710 0.961 . S
C695 H711 0.960 . S
H696 C680 0.931 . S
H697 C685 0.929 . S
H698 C686 0.960 . S
H699 C686 0.962 . S
H700 C686 0.960 . S
H701 C687 0.961 1_556 S
H702 C687 0.961 . S
H703 C687 0.961 1_556 S
H704 C688 0.931 . S
H705 C693 0.930 . S
H706 C694 0.956 . S
H707 C694 0.961 . S
H708 C694 0.961 . S
H709 C695 0.958 . S
H710 C695 0.961 . S
H711 C695 0.960 . S
C712 C713 1.391 . S
C712 C714 1.394 . S
C712 H728 0.931 . S
C713 C712 1.391 . S
C713 C717 1.376 . S
C714 C712 1.394 . S
C714 C715 1.369 . S
C714 C718 1.531 . S
C715 C714 1.369 . S
C715 C716 1.410 . S
C715 C723 1.503 . S
C716 C715 1.410 . S
C716 C717 1.392 . S
C716 C719 1.511 . S
C717 C713 1.376 . S
C717 C716 1.392 . S
C717 H729 0.929 . S
C718 C714 1.531 . S
C718 H730 0.960 . S
C718 H731 0.962 . S
C718 H732 0.960 . S
C719 C716 1.511 . S
C719 H733 0.961 . S
C719 H734 0.961 . S
C719 H735 0.961 . S
C720 C721 1.370 . S
C720 C722 1.363 . S
C720 H736 0.931 . S
C721 C720 1.370 . S
C721 C725 1.408 . S
C722 C720 1.363 . S
C722 C723 1.370 . S
C722 C726 1.524 . S
C723 C715 1.503 . S
C723 C722 1.370 . S
C723 C724 1.403 . S
C724 C723 1.403 . S
C724 C725 1.404 . S
C724 C727 1.539 . S
C725 C721 1.408 . S
C725 C724 1.404 . S
C725 H737 0.930 1_545 S
C726 C722 1.524 . S
C726 H738 0.956 . S
C726 H739 0.961 . S
C726 H740 0.961 . S
C727 C724 1.539 . S
C727 H741 0.958 . S
C727 H742 0.961 1_545 S
C727 H743 0.960 . S
H728 C712 0.931 . S
H729 C717 0.929 . S
H730 C718 0.960 . S
H731 C718 0.962 . S
H732 C718 0.960 . S
H733 C719 0.961 . S
H734 C719 0.961 . S
H735 C719 0.961 . S
H736 C720 0.931 . S
H737 C725 0.930 1_565 S
H738 C726 0.956 . S
H739 C726 0.961 . S
H740 C726 0.961 . S
H741 C727 0.958 . S
H742 C727 0.961 1_565 S
H743 C727 0.960 . S
C744 C745 1.391 . S
C744 C746 1.394 . S
C744 H760 0.931 . S
C745 C744 1.391 . S
C745 C749 1.376 . S
C746 C744 1.394 . S
C746 C747 1.369 . S
C746 C750 1.531 . S
C747 C746 1.369 . S
C747 C748 1.410 . S
C747 C755 1.503 . S
C748 C747 1.410 . S
C748 C749 1.392 . S
C748 C751 1.511 . S
C749 C745 1.376 . S
C749 C748 1.392 . S
C749 H761 0.929 . S
C750 C746 1.531 . S
C750 H762 0.960 . S
C750 H763 0.962 . S
C750 H764 0.960 . S
C751 C748 1.511 . S
C751 H765 0.961 . S
C751 H766 0.961 . S
C751 H767 0.961 . S
C752 C753 1.370 . S
C752 C754 1.363 . S
C752 H768 0.931 . S
C753 C752 1.370 . S
C753 C757 1.408 . S
C754 C752 1.363 . S
C754 C755 1.370 . S
C754 C758 1.524 . S
C755 C747 1.503 . S
C755 C754 1.370 . S
C755 C756 1.403 . S
C756 C755 1.403 . S
C756 C757 1.404 . S
C756 C759 1.539 . S
C757 C753 1.408 . S
C757 C756 1.404 . S
C757 H769 0.930 . S
C758 C754 1.524 . S
C758 H770 0.956 . S
C758 H771 0.961 . S
C758 H772 0.961 . S
C759 C756 1.539 . S
C759 H773 0.958 . S
C759 H774 0.961 . S
C759 H775 0.960 . S
H760 C744 0.931 . S
H761 C749 0.929 . S
H762 C750 0.960 . S
H763 C750 0.962 . S
H764 C750 0.960 . S
H765 C751 0.961 . S
H766 C751 0.961 . S
H767 C751 0.961 . S
H768 C752 0.931 . S
H769 C757 0.930 . S
H770 C758 0.956 . S
H771 C758 0.961 . S
H772 C758 0.961 . S
H773 C759 0.958 . S
H774 C759 0.961 . S
H775 C759 0.960 . S
C776 C777 1.391 . S
C776 C778 1.394 . S
C776 H792 0.931 . S
C777 C776 1.391 . S
C777 C781 1.376 . S
C778 C776 1.394 . S
C778 C779 1.369 . S
C778 C782 1.531 . S
C779 C778 1.369 . S
C779 C780 1.410 . S
C779 C787 1.503 . S
C780 C779 1.410 . S
C780 C781 1.392 . S
C780 C783 1.511 . S
C781 C777 1.376 . S
C781 C780 1.392 . S
C781 H793 0.929 . S
C782 C778 1.531 . S
C782 H794 0.960 . S
C782 H795 0.962 . S
C782 H796 0.960 . S
C783 C780 1.511 . S
C783 H797 0.961 . S
C783 H798 0.961 . S
C783 H799 0.961 . S
C784 C785 1.370 . S
C784 C786 1.363 . S
C784 H800 0.931 . S
C785 C784 1.370 . S
C785 C789 1.408 . S
C786 C784 1.363 . S
C786 C787 1.370 . S
C786 C790 1.524 . S
C787 C779 1.503 . S
C787 C786 1.370 . S
C787 C788 1.403 . S
C788 C787 1.403 . S
C788 C789 1.404 . S
C788 C791 1.539 . S
C789 C785 1.408 . S
C789 C788 1.404 . S
C789 H801 0.904 1_455 S
C790 C786 1.524 . S
C790 H802 0.956 . S
C790 H803 0.961 . S
C790 H804 0.961 . S
C791 C788 1.539 . S
C791 H805 0.958 . S
C791 H806 0.961 1_455 S
C791 H807 0.960 . S
H792 C776 0.931 . S
H793 C781 0.929 . S
H794 C782 0.960 . S
H795 C782 0.962 . S
H796 C782 0.960 . S
H797 C783 0.961 . S
H798 C783 0.961 . S
H799 C783 0.961 . S
H800 C784 0.931 . S
H801 C789 0.904 1_655 S
H802 C790 0.956 . S
H803 C790 0.961 . S
H804 C790 0.961 . S
H805 C791 0.958 . S
H806 C791 0.961 1_655 S
H807 C791 0.960 . S
C808 C809 1.391 . S
C808 C810 1.394 . S
C808 H824 0.931 . S
C809 C808 1.391 . S
C809 C813 1.376 . S
C810 C808 1.394 . S
C810 C811 1.369 . S
C810 C814 1.531 . S
C811 C810 1.369 . S
C811 C812 1.410 . S
C811 C819 1.503 . S
C812 C811 1.410 . S
C812 C813 1.392 . S
C812 C815 1.511 . S
C813 C809 1.376 . S
C813 C812 1.392 . S
C813 H825 0.929 . S
C814 C810 1.531 . S
C814 H826 0.960 . S
C814 H827 0.962 . S
C814 H828 0.960 . S
C815 C812 1.511 . S
C815 H829 0.961 . S
C815 H830 0.961 . S
C815 H831 0.961 . S
C816 C817 1.370 . S
C816 C818 1.363 . S
C816 H832 0.931 . S
C817 C816 1.370 . S
C817 C821 1.408 . S
C818 C816 1.363 . S
C818 C819 1.370 . S
C818 C822 1.524 . S
C819 C811 1.503 . S
C819 C818 1.370 . S
C819 C820 1.403 . S
C820 C819 1.403 . S
C820 C821 1.404 . S
C820 C823 1.539 . S
C821 C817 1.408 . S
C821 C820 1.404 . S
C821 H833 0.930 . S
C822 C818 1.524 . S
C822 H834 0.956 . S
C822 H835 0.961 . S
C822 H836 0.961 . S
C823 C820 1.539 . S
C823 H837 0.958 . S
C823 H838 0.961 . S
C823 H839 0.960 . S
H824 C808 0.931 . S
H825 C813 0.929 . S
H826 C814 0.960 . S
H827 C814 0.962 . S
H828 C814 0.960 . S
H829 C815 0.961 . S
H830 C815 0.961 . S
H831 C815 0.961 . S
H832 C816 0.931 . S
H833 C821 0.930 . S
H834 C822 0.956 . S
H835 C822 0.961 . S
H836 C822 0.961 . S
H837 C823 0.958 . S
H838 C823 0.961 . S
H839 C823 0.960 . S
C840 C841 1.391 . S
C840 C842 1.394 . S
C840 H856 0.931 . S
C841 C840 1.391 . S
C841 C845 1.376 1_655 S
C842 C840 1.394 . S
C842 C843 1.369 . S
C842 C846 1.531 . S
C843 C842 1.369 . S
C843 C844 1.410 1_655 S
C843 C851 1.503 . S
C844 C843 1.410 1_455 S
C844 C845 1.392 . S
C844 C847 1.511 . S
C845 C841 1.376 1_455 S
C845 C844 1.392 . S
C845 H857 0.929 . S
C846 C842 1.531 . S
C846 H858 0.960 . S
C846 H859 0.962 . S
C846 H860 0.960 1_556 S
C847 C844 1.511 . S
C847 H861 0.961 . S
C847 H862 0.961 . S
C847 H863 0.961 . S
C848 C849 1.370 . S
C848 C850 1.363 . S
C848 H864 0.931 . S
C849 C848 1.370 . S
C849 C853 1.408 1_655 S
C850 C848 1.363 . S
C850 C851 1.370 . S
C850 C854 1.524 . S
C851 C843 1.503 . S
C851 C850 1.370 . S
C851 C852 1.403 1_655 S
C852 C851 1.403 1_455 S
C852 C853 1.403 . S
C852 C855 1.540 1_556 S
C853 C849 1.408 1_455 S
C853 C852 1.403 . S
C853 H865 0.930 . S
C854 C850 1.524 . S
C854 H866 0.956 . S
C854 H867 0.961 . S
C854 H868 0.961 . S
C855 C852 1.540 1_554 S
C855 H869 0.958 1_455 S
C855 H870 0.961 . S
C855 H871 0.960 . S
H856 C840 0.931 . S
H857 C845 0.929 . S
H858 C846 0.960 . S
H859 C846 0.962 . S
H860 C846 0.960 1_554 S
H861 C847 0.961 . S
H862 C847 0.961 . S
H863 C847 0.961 . S
H864 C848 0.931 . S
H865 C853 0.930 . S
H866 C854 0.956 . S
H867 C854 0.961 . S
H868 C854 0.961 . S
H869 C855 0.958 1_655 S
H870 C855 0.961 . S
H871 C855 0.960 . S
C872 C873 1.391 . S
C872 C874 1.394 . S
C872 H888 0.931 . S
C873 C872 1.391 . S
C873 C877 1.376 . S
C874 C872 1.394 . S
C874 C875 1.369 . S
C874 C878 1.531 . S
C875 C874 1.369 . S
C875 C876 1.410 . S
C875 C883 1.503 . S
C876 C875 1.410 . S
C876 C877 1.392 . S
C876 C879 1.511 . S
C877 C873 1.376 . S
C877 C876 1.392 . S
C877 H889 0.929 . S
C878 C874 1.531 . S
C878 H890 0.960 . S
C878 H891 0.962 . S
C878 H892 0.960 . S
C879 C876 1.511 . S
C879 H893 0.961 . S
C879 H894 0.961 . S
C879 H895 0.961 . S
C880 C881 1.370 . S
C880 C882 1.363 . S
C880 H896 0.931 1_556 S
C881 C880 1.370 . S
C881 C885 1.408 . S
C882 C880 1.363 . S
C882 C883 1.370 . S
C882 C886 1.524 1_556 S
C883 C875 1.503 . S
C883 C882 1.370 . S
C883 C884 1.403 . S
C884 C883 1.403 . S
C884 C885 1.404 . S
C884 C887 1.539 . S
C885 C881 1.408 . S
C885 C884 1.404 . S
C885 H897 0.930 . S
C886 C882 1.524 1_554 S
C886 H898 0.956 . S
C886 H899 0.961 . S
C886 H900 0.961 . S
C887 C884 1.539 . S
C887 H901 0.958 . S
C887 H902 0.961 . S
C887 H903 0.960 . S
H888 C872 0.931 . S
H889 C877 0.929 . S
H890 C878 0.960 . S
H891 C878 0.962 . S
H892 C878 0.960 . S
H893 C879 0.961 . S
H894 C879 0.961 . S
H895 C879 0.961 . S
H896 C880 0.931 1_554 S
H897 C885 0.930 . S
H898 C886 0.956 . S
H899 C886 0.961 . S
H900 C886 0.961 . S
H901 C887 0.958 . S
H902 C887 0.961 . S
H903 C887 0.960 . S
C904 C905 1.391 . S
C904 C906 1.394 . S
C904 H920 0.931 . S
C905 C904 1.391 . S
C905 C909 1.376 1_556 S
C906 C904 1.394 . S
C906 C907 1.369 . S
C906 C910 1.531 . S
C907 C906 1.369 . S
C907 C908 1.410 1_556 S
C907 C915 1.503 . S
C908 C907 1.410 1_554 S
C908 C909 1.392 . S
C908 C911 1.511 . S
C909 C905 1.376 1_554 S
C909 C908 1.392 . S
C909 H921 0.929 . S
C910 C906 1.531 . S
C910 H922 0.960 . S
C910 H923 0.962 . S
C910 H924 0.960 . S
C911 C908 1.511 . S
C911 H925 0.961 . S
C911 H926 0.961 . S
C911 H927 0.961 . S
C912 C913 1.370 . S
C912 C914 1.363 . S
C912 H928 0.931 . S
C913 C912 1.370 . S
C913 C917 1.408 . S
C914 C912 1.363 . S
C914 C915 1.370 . S
C914 C918 1.524 . S
C915 C907 1.503 . S
C915 C914 1.370 . S
C915 C916 1.403 . S
C916 C915 1.403 . S
C916 C917 1.404 . S
C916 C919 1.539 . S
C917 C913 1.408 . S
C917 C916 1.404 . S
C917 H929 0.930 . S
C918 C914 1.524 . S
C918 H930 0.956 . S
C918 H931 0.961 . S
C918 H932 0.961 . S
C919 C916 1.539 . S
C919 H933 0.958 . S
C919 H934 0.961 . S
C919 H935 0.960 . S
H920 C904 0.931 . S
H921 C909 0.929 . S
H922 C910 0.960 . S
H923 C910 0.962 . S
H924 C910 0.960 . S
H925 C911 0.961 . S
H926 C911 0.961 . S
H927 C911 0.961 . S
H928 C912 0.931 . S
H929 C917 0.930 . S
H930 C918 0.956 . S
H931 C918 0.961 . S
H932 C918 0.961 . S
H933 C919 0.958 . S
H934 C919 0.961 . S
H935 C919 0.960 . S
C936 C937 1.391 . S
C936 C938 1.394 . S
C936 H952 0.931 . S
C937 C936 1.391 . S
C937 C941 1.382 . S
C938 C936 1.394 . S
C938 C939 1.369 . S
C938 C942 1.531 . S
C939 C938 1.369 . S
C939 C940 1.407 . S
C939 C947 1.503 . S
C940 C939 1.407 . S
C940 C941 1.401 . S
C940 C943 1.499 1_545 S
C941 C937 1.382 . S
C941 C940 1.401 . S
C941 H953 0.930 1_545 S
C942 C938 1.531 . S
C942 H954 0.960 . S
C942 H955 0.962 . S
C942 H956 0.960 . S
C943 C940 1.499 1_565 S
C943 H957 0.961 . S
C943 H958 0.961 . S
C943 H959 0.961 1_565 S
C944 C945 1.370 . S
C944 C946 1.363 . S
C944 H960 0.931 . S
C945 C944 1.370 . S
C945 C949 1.408 1_565 S
C946 C944 1.363 . S
C946 C947 1.370 1_565 S
C946 C950 1.524 . S
C947 C939 1.503 . S
C947 C946 1.370 1_545 S
C947 C948 1.403 . S
C948 C947 1.403 . S
C948 C949 1.404 . S
C948 C951 1.539 . S
C949 C945 1.408 1_545 S
C949 C948 1.404 . S
C949 H961 0.930 . S
C950 C946 1.524 . S
C950 H962 0.956 . S
C950 H963 0.961 . S
C950 H964 0.961 . S
C951 C948 1.539 . S
C951 H965 0.958 . S
C951 H966 0.961 . S
C951 H967 0.960 . S
H952 C936 0.931 . S
H953 C941 0.930 1_565 S
H954 C942 0.960 . S
H955 C942 0.962 . S
H956 C942 0.960 . S
H957 C943 0.961 . S
H958 C943 0.961 . S
H959 C943 0.961 1_545 S
H960 C944 0.931 . S
H961 C949 0.930 . S
H962 C950 0.956 . S
H963 C950 0.961 . S
H964 C950 0.961 . S
H965 C951 0.958 . S
H966 C951 0.961 . S
H967 C951 0.960 . S
C968 C969 1.391 . S
C968 C970 1.394 . S
C968 H984 0.931 . S
C969 C968 1.391 . S
C969 C973 1.376 . S
C970 C968 1.394 . S
C970 C971 1.369 . S
C970 C974 1.531 . S
C971 C970 1.369 . S
C971 C972 1.410 . S
C971 C979 1.503 . S
C972 C971 1.410 . S
C972 C973 1.392 . S
C972 C975 1.511 . S
C973 C969 1.376 . S
C973 C972 1.392 . S
C973 H985 0.929 . S
C974 C970 1.531 . S
C974 H986 0.960 . S
C974 H987 0.962 . S
C974 H988 0.960 . S
C975 C972 1.511 . S
C975 H989 0.961 . S
C975 H990 0.961 . S
C975 H991 0.961 . S
C976 C977 1.370 . S
C976 C978 1.363 . S
C976 H992 0.931 . S
C977 C976 1.370 . S
C977 C981 1.408 . S
C978 C976 1.363 . S
C978 C979 1.370 . S
C978 C982 1.524 . S
C979 C971 1.503 . S
C979 C978 1.370 . S
C979 C980 1.403 . S
C980 C979 1.403 . S
C980 C981 1.404 . S
C980 C983 1.539 . S
C981 C977 1.408 . S
C981 C980 1.404 . S
C981 H993 0.930 . S
C982 C978 1.524 . S
C982 H994 0.956 . S
C982 H995 0.961 . S
C982 H996 0.961 . S
C983 C980 1.539 . S
C983 H997 0.958 . S
C983 H998 0.961 . S
C983 H999 0.960 . S
H984 C968 0.931 . S
H985 C973 0.929 . S
H986 C974 0.960 . S
H987 C974 0.962 . S
H988 C974 0.960 . S
H989 C975 0.961 . S
H990 C975 0.961 . S
H991 C975 0.961 . S
H992 C976 0.931 . S
H993 C981 0.930 . S
H994 C982 0.956 . S
H995 C982 0.961 . S
H996 C982 0.961 . S
H997 C983 0.958 . S
H998 C983 0.961 . S
H999 C983 0.960 . S
C1000 C1001 1.391 . S
C1000 C1002 1.394 . S
C1000 H1016 0.931 . S
C1001 C1000 1.391 . S
C1001 C1005 1.376 . S
C1002 C1000 1.394 . S
C1002 C1003 1.369 . S
C1002 C1006 1.531 . S
C1003 C1002 1.369 . S
C1003 C1004 1.410 . S
C1003 C1011 1.503 . S
C1004 C1003 1.410 . S
C1004 C1005 1.392 . S
C1004 C1007 1.511 . S
C1005 C1001 1.376 . S
C1005 C1004 1.392 . S
C1005 H1017 0.929 . S
C1006 C1002 1.531 . S
C1006 H1018 0.960 . S
C1006 H1019 0.962 . S
C1006 H1020 0.960 . S
C1007 C1004 1.511 . S
C1007 H1021 0.961 . S
C1007 H1022 0.961 . S
C1007 H1023 0.961 . S
C1008 C1009 1.370 . S
C1008 C1010 1.363 . S
C1008 H1024 0.931 . S
C1009 C1008 1.370 . S
C1009 C1013 1.408 . S
C1010 C1008 1.363 . S
C1010 C1011 1.370 . S
C1010 C1014 1.524 . S
C1011 C1003 1.503 . S
C1011 C1010 1.370 . S
C1011 C1012 1.403 . S
C1012 C1011 1.403 . S
C1012 C1013 1.404 . S
C1012 C1015 1.539 . S
C1013 C1009 1.408 . S
C1013 C1012 1.404 . S
C1013 H1025 0.930 . S
C1014 C1010 1.524 . S
C1014 H1026 0.956 . S
C1014 H1027 0.961 . S
C1014 H1028 0.961 . S
C1015 C1012 1.539 . S
C1015 H1029 0.958 . S
C1015 H1030 0.961 . S
C1015 H1031 0.960 . S
H1016 C1000 0.931 . S
H1017 C1005 0.929 . S
H1018 C1006 0.960 . S
H1019 C1006 0.962 . S
H1020 C1006 0.960 . S
H1021 C1007 0.961 . S
H1022 C1007 0.961 . S
H1023 C1007 0.961 . S
H1024 C1008 0.931 . S
H1025 C1013 0.930 . S
H1026 C1014 0.956 . S
H1027 C1014 0.961 . S
H1028 C1014 0.961 . S
H1029 C1015 0.958 . S
H1030 C1015 0.961 . S
H1031 C1015 0.960 . S
C1032 C1033 1.391 . S
C1032 C1034 1.394 . S
C1032 H1048 0.931 . S
C1033 C1032 1.391 . S
C1033 C1037 1.376 . S
C1034 C1032 1.394 . S
C1034 C1035 1.369 . S
C1034 C1038 1.531 . S
C1035 C1034 1.369 . S
C1035 C1036 1.410 . S
C1035 C1043 1.503 . S
C1036 C1035 1.410 . S
C1036 C1037 1.392 . S
C1036 C1039 1.511 . S
C1037 C1033 1.376 . S
C1037 C1036 1.392 . S
C1037 H1049 0.929 . S
C1038 C1034 1.531 . S
C1038 H1050 0.960 . S
C1038 H1051 0.962 . S
C1038 H1052 0.960 . S
C1039 C1036 1.511 . S
C1039 H1053 0.961 . S
C1039 H1054 0.961 . S
C1039 H1055 0.961 . S
C1040 C1041 1.370 . S
C1040 C1042 1.363 . S
C1040 H1056 0.931 . S
C1041 C1040 1.370 . S
C1041 C1045 1.408 . S
C1042 C1040 1.363 . S
C1042 C1043 1.370 . S
C1042 C1046 1.524 . S
C1043 C1035 1.503 . S
C1043 C1042 1.370 . S
C1043 C1044 1.403 . S
C1044 C1043 1.403 . S
C1044 C1045 1.404 . S
C1044 C1047 1.539 . S
C1045 C1041 1.408 . S
C1045 C1044 1.404 . S
C1045 H1057 0.930 . S
C1046 C1042 1.524 . S
C1046 H1058 0.956 . S
C1046 H1059 0.961 . S
C1046 H1060 0.961 . S
C1047 C1044 1.539 . S
C1047 H1061 0.958 . S
C1047 H1062 0.961 . S
C1047 H1063 0.960 . S
H1048 C1032 0.931 . S
H1049 C1037 0.929 . S
H1050 C1038 0.960 . S
H1051 C1038 0.962 . S
H1052 C1038 0.960 . S
H1053 C1039 0.961 . S
H1054 C1039 0.961 . S
H1055 C1039 0.961 . S
H1056 C1040 0.931 . S
H1057 C1045 0.930 . S
H1058 C1046 0.956 . S
H1059 C1046 0.961 . S
H1060 C1046 0.961 . S
H1061 C1047 0.958 . S
H1062 C1047 0.961 . S
H1063 C1047 0.960 . S
C1064 C1065 1.391 . S
C1064 C1066 1.394 . S
C1064 H1080 0.931 . S
C1065 C1064 1.391 . S
C1065 C1069 1.376 . S
C1066 C1064 1.394 . S
C1066 C1067 1.369 . S
C1066 C1070 1.531 . S
C1067 C1066 1.369 . S
C1067 C1068 1.410 . S
C1067 C1075 1.503 1_565 S
C1068 C1067 1.410 . S
C1068 C1069 1.392 . S
C1068 C1071 1.511 . S
C1069 C1065 1.376 . S
C1069 C1068 1.392 . S
C1069 H1081 0.929 . S
C1070 C1066 1.531 . S
C1070 H1082 0.960 . S
C1070 H1083 0.962 . S
C1070 H1084 0.960 . S
C1071 C1068 1.511 . S
C1071 H1085 0.961 . S
C1071 H1086 0.961 . S
C1071 H1087 0.961 . S
C1072 C1073 1.370 . S
C1072 C1074 1.363 . S
C1072 H1088 0.931 . S
C1073 C1072 1.370 . S
C1073 C1077 1.408 . S
C1074 C1072 1.363 . S
C1074 C1075 1.370 . S
C1074 C1078 1.524 . S
C1075 C1067 1.503 1_545 S
C1075 C1074 1.370 . S
C1075 C1076 1.403 . S
C1076 C1075 1.403 . S
C1076 C1077 1.404 . S
C1076 C1079 1.539 1_545 S
C1077 C1073 1.408 . S
C1077 C1076 1.404 . S
C1077 H1089 0.930 . S
C1078 C1074 1.524 . S
C1078 H1090 0.956 . S
C1078 H1091 0.961 . S
C1078 H1092 0.961 . S
C1079 C1076 1.539 1_565 S
C1079 H1093 0.958 . S
C1079 H1094 0.959 . S
C1079 H1095 0.960 . S
H1080 C1064 0.931 . S
H1081 C1069 0.929 . S
H1082 C1070 0.960 . S
H1083 C1070 0.962 . S
H1084 C1070 0.960 . S
H1085 C1071 0.961 . S
H1086 C1071 0.961 . S
H1087 C1071 0.961 . S
H1088 C1072 0.931 . S
H1089 C1077 0.930 . S
H1090 C1078 0.956 . S
H1091 C1078 0.961 . S
H1092 C1078 0.961 . S
H1093 C1079 0.958 . S
H1094 C1079 0.959 . S
H1095 C1079 0.960 . S
C1096 C1097 1.391 . S
C1096 C1098 1.394 . S
C1096 H1112 0.931 . S
C1097 C1096 1.391 . S
C1097 C1101 1.376 . S
C1098 C1096 1.394 . S
C1098 C1099 1.369 . S
C1098 C1102 1.531 . S
C1099 C1098 1.369 . S
C1099 C1100 1.410 . S
C1099 C1107 1.503 . S
C1100 C1099 1.410 . S
C1100 C1101 1.392 . S
C1100 C1103 1.511 . S
C1101 C1097 1.376 . S
C1101 C1100 1.392 . S
C1101 H1113 0.929 . S
C1102 C1098 1.531 . S
C1102 H1114 0.960 . S
C1102 H1115 0.962 . S
C1102 H1116 0.960 . S
C1103 C1100 1.511 . S
C1103 H1117 0.961 . S
C1103 H1118 0.961 . S
C1103 H1119 0.961 . S
C1104 C1105 1.370 . S
C1104 C1106 1.363 . S
C1104 H1120 0.931 . S
C1105 C1104 1.370 . S
C1105 C1109 1.408 . S
C1106 C1104 1.363 . S
C1106 C1107 1.370 . S
C1106 C1110 1.524 . S
C1107 C1099 1.503 . S
C1107 C1106 1.370 . S
C1107 C1108 1.403 . S
C1108 C1107 1.403 . S
C1108 C1109 1.404 . S
C1108 C1111 1.539 . S
C1109 C1105 1.408 . S
C1109 C1108 1.404 . S
C1109 H1121 0.930 . S
C1110 C1106 1.524 . S
C1110 H1122 0.956 . S
C1110 H1123 0.961 . S
C1110 H1124 0.961 . S
C1111 C1108 1.539 . S
C1111 H1125 0.958 . S
C1111 H1126 0.961 . S
C1111 H1127 0.960 . S
H1112 C1096 0.931 . S
H1113 C1101 0.929 . S
H1114 C1102 0.960 . S
H1115 C1102 0.962 . S
H1116 C1102 0.960 . S
H1117 C1103 0.961 . S
H1118 C1103 0.961 . S
H1119 C1103 0.961 . S
H1120 C1104 0.931 . S
H1121 C1109 0.930 . S
H1122 C1110 0.956 . S
H1123 C1110 0.961 . S
H1124 C1110 0.961 . S
H1125 C1111 0.958 . S
H1126 C1111 0.961 . S
H1127 C1111 0.960 . S
C1128 C1129 1.391 . S
C1128 C1130 1.394 . S
C1128 H1144 0.931 . S
C1129 C1128 1.391 . S
C1129 C1133 1.376 . S
C1130 C1128 1.394 . S
C1130 C1131 1.369 . S
C1130 C1134 1.531 . S
C1131 C1130 1.369 . S
C1131 C1132 1.410 . S
C1131 C1139 1.503 . S
C1132 C1131 1.410 . S
C1132 C1133 1.392 . S
C1132 C1135 1.511 . S
C1133 C1129 1.376 . S
C1133 C1132 1.392 . S
C1133 H1145 0.929 . S
C1134 C1130 1.531 . S
C1134 H1146 0.960 . S
C1134 H1147 0.962 . S
C1134 H1148 0.960 . S
C1135 C1132 1.511 . S
C1135 H1149 0.961 . S
C1135 H1150 0.961 . S
C1135 H1151 0.961 . S
C1136 C1137 1.370 . S
C1136 C1138 1.363 . S
C1136 H1152 0.931 . S
C1137 C1136 1.370 . S
C1137 C1141 1.408 . S
C1138 C1136 1.363 . S
C1138 C1139 1.370 . S
C1138 C1142 1.524 . S
C1139 C1131 1.503 . S
C1139 C1138 1.370 . S
C1139 C1140 1.403 . S
C1140 C1139 1.403 . S
C1140 C1141 1.404 . S
C1140 C1143 1.539 . S
C1141 C1137 1.408 . S
C1141 C1140 1.404 . S
C1141 H1153 0.930 . S
C1142 C1138 1.524 . S
C1142 H1154 0.956 . S
C1142 H1155 0.961 . S
C1142 H1156 0.961 . S
C1143 C1140 1.539 . S
C1143 H1157 0.958 . S
C1143 H1158 0.961 . S
C1143 H1159 0.960 . S
H1144 C1128 0.931 . S
H1145 C1133 0.929 . S
H1146 C1134 0.960 . S
H1147 C1134 0.962 . S
H1148 C1134 0.960 . S
H1149 C1135 0.961 . S
H1150 C1135 0.961 . S
H1151 C1135 0.961 . S
H1152 C1136 0.931 . S
H1153 C1141 0.930 . S
H1154 C1142 0.956 . S
H1155 C1142 0.961 . S
H1156 C1142 0.961 . S
H1157 C1143 0.958 . S
H1158 C1143 0.961 . S
H1159 C1143 0.960 . S
C1160 C1161 1.391 . S
C1160 C1162 1.394 . S
C1160 H1176 0.931 . S
C1161 C1160 1.391 . S
C1161 C1165 1.376 . S
C1162 C1160 1.394 . S
C1162 C1163 1.369 . S
C1162 C1166 1.531 . S
C1163 C1162 1.369 . S
C1163 C1164 1.410 . S
C1163 C1171 1.503 . S
C1164 C1163 1.410 . S
C1164 C1165 1.392 . S
C1164 C1167 1.511 . S
C1165 C1161 1.376 . S
C1165 C1164 1.392 . S
C1165 H1177 0.929 . S
C1166 C1162 1.531 . S
C1166 H1178 0.960 . S
C1166 H1179 0.962 . S
C1166 H1180 0.960 . S
C1167 C1164 1.511 . S
C1167 H1181 0.961 . S
C1167 H1182 0.961 . S
C1167 H1183 0.961 . S
C1168 C1169 1.370 . S
C1168 C1170 1.363 . S
C1168 H1184 0.931 . S
C1169 C1168 1.370 . S
C1169 C1173 1.408 . S
C1170 C1168 1.363 . S
C1170 C1171 1.370 . S
C1170 C1174 1.524 . S
C1171 C1163 1.503 . S
C1171 C1170 1.370 . S
C1171 C1172 1.403 . S
C1172 C1171 1.403 . S
C1172 C1173 1.404 . S
C1172 C1175 1.539 . S
C1173 C1169 1.408 . S
C1173 C1172 1.404 . S
C1173 H1185 0.930 . S
C1174 C1170 1.524 . S
C1174 H1186 0.956 . S
C1174 H1187 0.961 . S
C1174 H1188 0.961 . S
C1175 C1172 1.539 . S
C1175 H1189 0.958 . S
C1175 H1190 0.961 . S
C1175 H1191 0.960 . S
H1176 C1160 0.931 . S
H1177 C1165 0.929 . S
H1178 C1166 0.960 . S
H1179 C1166 0.962 . S
H1180 C1166 0.960 . S
H1181 C1167 0.961 . S
H1182 C1167 0.961 . S
H1183 C1167 0.961 . S
H1184 C1168 0.931 . S
H1185 C1173 0.930 . S
H1186 C1174 0.956 . S
H1187 C1174 0.961 . S
H1188 C1174 0.961 . S
H1189 C1175 0.958 . S
H1190 C1175 0.961 . S
H1191 C1175 0.960 . S
C1192 C1193 1.391 . S
C1192 C1194 1.394 . S
C1192 H1208 0.931 . S
C1193 C1192 1.391 . S
C1193 C1197 1.376 . S
C1194 C1192 1.394 . S
C1194 C1195 1.369 . S
C1194 C1198 1.531 . S
C1195 C1194 1.369 . S
C1195 C1196 1.410 . S
C1195 C1203 1.503 . S
C1196 C1195 1.410 . S
C1196 C1197 1.392 . S
C1196 C1199 1.511 . S
C1197 C1193 1.376 . S
C1197 C1196 1.392 . S
C1197 H1209 0.929 . S
C1198 C1194 1.531 . S
C1198 H1210 0.960 . S
C1198 H1211 0.962 . S
C1198 H1212 0.960 . S
C1199 C1196 1.511 . S
C1199 H1213 0.961 . S
C1199 H1214 0.961 . S
C1199 H1215 0.961 . S
C1200 C1201 1.370 . S
C1200 C1202 1.363 . S
C1200 H1216 0.931 . S
C1201 C1200 1.370 . S
C1201 C1205 1.408 . S
C1202 C1200 1.363 . S
C1202 C1203 1.370 . S
C1202 C1206 1.524 . S
C1203 C1195 1.503 . S
C1203 C1202 1.370 . S
C1203 C1204 1.403 . S
C1204 C1203 1.403 . S
C1204 C1205 1.404 . S
C1204 C1207 1.539 . S
C1205 C1201 1.408 . S
C1205 C1204 1.404 . S
C1205 H1217 0.930 1_565 S
C1206 C1202 1.524 . S
C1206 H1218 0.956 . S
C1206 H1219 0.961 . S
C1206 H1220 0.961 . S
C1207 C1204 1.539 . S
C1207 H1221 1.001 . S
C1207 H1222 0.961 . S
C1207 H1223 0.960 . S
H1208 C1192 0.931 . S
H1209 C1197 0.929 . S
H1210 C1198 0.960 . S
H1211 C1198 0.962 . S
H1212 C1198 0.960 . S
H1213 C1199 0.961 . S
H1214 C1199 0.961 . S
H1215 C1199 0.961 . S
H1216 C1200 0.931 . S
H1217 C1205 0.930 1_545 S
H1218 C1206 0.956 . S
H1219 C1206 0.961 . S
H1220 C1206 0.961 . S
H1221 C1207 1.001 . S
H1222 C1207 0.961 . S
H1223 C1207 0.960 . S
C1224 C1225 1.391 . S
C1224 C1226 1.394 . S
C1224 H1240 0.931 . S
C1225 C1224 1.391 . S
C1225 C1229 1.376 . S
C1226 C1224 1.394 . S
C1226 C1227 1.369 . S
C1226 C1230 1.531 . S
C1227 C1226 1.369 . S
C1227 C1228 1.410 . S
C1227 C1235 1.503 . S
C1228 C1227 1.410 . S
C1228 C1229 1.392 . S
C1228 C1231 1.511 . S
C1229 C1225 1.376 . S
C1229 C1228 1.392 . S
C1229 H1241 0.929 . S
C1230 C1226 1.531 . S
C1230 H1242 0.960 . S
C1230 H1243 0.962 . S
C1230 H1244 0.960 . S
C1231 C1228 1.511 . S
C1231 H1245 0.961 . S
C1231 H1246 0.961 . S
C1231 H1247 0.961 . S
C1232 C1233 1.370 . S
C1232 C1234 1.363 1_545 S
C1232 H1248 0.931 . S
C1233 C1232 1.370 . S
C1233 C1237 1.408 . S
C1234 C1232 1.363 1_565 S
C1234 C1235 1.370 . S
C1234 C1238 1.524 . S
C1235 C1227 1.503 . S
C1235 C1234 1.370 . S
C1235 C1236 1.403 . S
C1236 C1235 1.403 . S
C1236 C1237 1.404 1_565 S
C1236 C1239 1.539 . S
C1237 C1233 1.408 . S
C1237 C1236 1.404 1_545 S
C1237 H1249 0.930 . S
C1238 C1234 1.524 . S
C1238 H1250 0.956 . S
C1238 H1251 0.961 . S
C1238 H1252 0.961 . S
C1239 C1236 1.539 . S
C1239 H1253 0.958 . S
C1239 H1254 0.961 . S
C1239 H1255 0.960 . S
H1240 C1224 0.931 . S
H1241 C1229 0.929 . S
H1242 C1230 0.960 . S
H1243 C1230 0.962 . S
H1244 C1230 0.960 . S
H1245 C1231 0.961 . S
H1246 C1231 0.961 . S
H1247 C1231 0.961 . S
H1248 C1232 0.931 . S
H1249 C1237 0.930 . S
H1250 C1238 0.956 . S
H1251 C1238 0.961 . S
H1252 C1238 0.961 . S
H1253 C1239 0.958 . S
H1254 C1239 0.961 . S
H1255 C1239 0.960 . S
C1256 C1257 1.391 . S
C1256 C1258 1.394 . S
C1256 H1272 0.931 . S
C1257 C1256 1.391 . S
C1257 C1261 1.376 . S
C1258 C1256 1.394 . S
C1258 C1259 1.369 . S
C1258 C1262 1.531 . S
C1259 C1258 1.369 . S
C1259 C1260 1.410 . S
C1259 C1267 1.503 . S
C1260 C1259 1.410 . S
C1260 C1261 1.392 . S
C1260 C1263 1.511 . S
C1261 C1257 1.376 . S
C1261 C1260 1.392 . S
C1261 H1273 0.929 . S
C1262 C1258 1.531 . S
C1262 H1274 0.960 . S
C1262 H1275 0.962 . S
C1262 H1276 0.960 . S
C1263 C1260 1.511 . S
C1263 H1277 0.961 . S
C1263 H1278 0.961 . S
C1263 H1279 0.961 . S
C1264 C1265 1.370 . S
C1264 C1266 1.363 . S
C1264 H1280 0.931 . S
C1265 C1264 1.370 . S
C1265 C1269 1.408 . S
C1266 C1264 1.363 . S
C1266 C1267 1.370 . S
C1266 C1270 1.524 . S
C1267 C1259 1.503 . S
C1267 C1266 1.370 . S
C1267 C1268 1.403 . S
C1268 C1267 1.403 . S
C1268 C1269 1.404 . S
C1268 C1271 1.539 . S
C1269 C1265 1.408 . S
C1269 C1268 1.404 . S
C1269 H1281 0.930 . S
C1270 C1266 1.524 . S
C1270 H1282 0.956 . S
C1270 H1283 0.961 . S
C1270 H1284 0.961 . S
C1271 C1268 1.539 . S
C1271 H1285 0.958 . S
C1271 H1286 0.961 . S
C1271 H1287 0.960 . S
H1272 C1256 0.931 . S
H1273 C1261 0.929 . S
H1274 C1262 0.960 . S
H1275 C1262 0.962 . S
H1276 C1262 0.960 . S
H1277 C1263 0.961 . S
H1278 C1263 0.961 . S
H1279 C1263 0.961 . S
H1280 C1264 0.931 . S
H1281 C1269 0.930 . S
H1282 C1270 0.956 . S
H1283 C1270 0.961 . S
H1284 C1270 0.961 . S
H1285 C1271 0.958 . S
H1286 C1271 0.961 . S
H1287 C1271 0.960 . S
C1288 C1289 1.391 . S
C1288 C1290 1.394 . S
C1288 H1304 0.931 . S
C1289 C1288 1.391 . S
C1289 C1293 1.376 . S
C1290 C1288 1.394 . S
C1290 C1291 1.369 . S
C1290 C1294 1.531 . S
C1291 C1290 1.369 . S
C1291 C1292 1.410 . S
C1291 C1299 1.503 . S
C1292 C1291 1.410 . S
C1292 C1293 1.392 . S
C1292 C1295 1.511 . S
C1293 C1289 1.376 . S
C1293 C1292 1.392 . S
C1293 H1305 0.929 . S
C1294 C1290 1.531 . S
C1294 H1306 0.960 . S
C1294 H1307 0.962 . S
C1294 H1308 0.960 . S
C1295 C1292 1.511 . S
C1295 H1309 0.961 . S
C1295 H1310 0.961 . S
C1295 H1311 0.961 . S
C1296 C1297 1.370 . S
C1296 C1298 1.363 . S
C1296 H1312 0.931 . S
C1297 C1296 1.370 . S
C1297 C1301 1.408 . S
C1298 C1296 1.363 . S
C1298 C1299 1.370 . S
C1298 C1302 1.524 . S
C1299 C1291 1.503 . S
C1299 C1298 1.370 . S
C1299 C1300 1.403 . S
C1300 C1299 1.403 . S
C1300 C1301 1.404 . S
C1300 C1303 1.539 . S
C1301 C1297 1.408 . S
C1301 C1300 1.404 . S
C1301 H1313 0.930 . S
C1302 C1298 1.524 . S
C1302 H1314 0.956 . S
C1302 H1315 0.961 . S
C1302 H1316 0.961 . S
C1303 C1300 1.539 . S
C1303 H1317 0.958 . S
C1303 H1318 0.961 . S
C1303 H1319 0.960 . S
H1304 C1288 0.931 . S
H1305 C1293 0.929 . S
H1306 C1294 0.960 . S
H1307 C1294 0.962 . S
H1308 C1294 0.960 . S
H1309 C1295 0.961 . S
H1310 C1295 0.961 . S
H1311 C1295 0.961 . S
H1312 C1296 0.931 . S
H1313 C1301 0.930 . S
H1314 C1302 0.956 . S
H1315 C1302 0.961 . S
H1316 C1302 0.961 . S
H1317 C1303 0.958 . S
H1318 C1303 0.961 . S
H1319 C1303 0.960 . S
C1320 C1321 1.391 . S
C1320 C1322 1.394 . S
C1320 H1336 0.931 . S
C1321 C1320 1.391 . S
C1321 C1325 1.376 . S
C1322 C1320 1.394 . S
C1322 C1323 1.369 . S
C1322 C1326 1.531 . S
C1323 C1322 1.369 . S
C1323 C1324 1.410 . S
C1323 C1331 1.503 . S
C1324 C1323 1.410 . S
C1324 C1325 1.392 . S
C1324 C1327 1.511 . S
C1325 C1321 1.376 . S
C1325 C1324 1.392 . S
C1325 H1337 0.929 . S
C1326 C1322 1.531 . S
C1326 H1338 0.960 . S
C1326 H1339 0.962 . S
C1326 H1340 0.960 . S
C1327 C1324 1.511 . S
C1327 H1341 0.961 . S
C1327 H1342 0.961 . S
C1327 H1343 0.961 . S
C1328 C1329 1.370 . S
C1328 C1330 1.363 . S
C1328 H1344 0.931 . S
C1329 C1328 1.370 . S
C1329 C1333 1.408 . S
C1330 C1328 1.363 . S
C1330 C1331 1.370 . S
C1330 C1334 1.524 . S
C1331 C1323 1.503 . S
C1331 C1330 1.370 . S
C1331 C1332 1.403 . S
C1332 C1331 1.403 . S
C1332 C1333 1.404 . S
C1332 C1335 1.539 . S
C1333 C1329 1.408 . S
C1333 C1332 1.404 . S
C1333 H1345 0.930 . S
C1334 C1330 1.524 . S
C1334 H1346 0.956 . S
C1334 H1347 0.961 . S
C1334 H1348 0.961 . S
C1335 C1332 1.539 . S
C1335 H1349 0.958 . S
C1335 H1350 0.961 . S
C1335 H1351 0.960 . S
H1336 C1320 0.931 . S
H1337 C1325 0.929 . S
H1338 C1326 0.960 . S
H1339 C1326 0.962 . S
H1340 C1326 0.960 . S
H1341 C1327 0.961 . S
H1342 C1327 0.961 . S
H1343 C1327 0.961 . S
H1344 C1328 0.931 . S
H1345 C1333 0.930 . S
H1346 C1334 0.956 . S
H1347 C1334 0.961 . S
H1348 C1334 0.961 . S
H1349 C1335 0.958 . S
H1350 C1335 0.961 . S
H1351 C1335 0.960 . S
C1352 C1353 1.391 . S
C1352 C1354 1.394 . S
C1352 H1368 0.931 . S
C1353 C1352 1.391 . S
C1353 C1357 1.376 . S
C1354 C1352 1.394 . S
C1354 C1355 1.369 . S
C1354 C1358 1.531 . S
C1355 C1354 1.369 . S
C1355 C1356 1.414 1_565 S
C1355 C1363 1.503 1_565 S
C1356 C1355 1.414 1_545 S
C1356 C1357 1.375 1_545 S
C1356 C1359 1.523 . S
C1357 C1353 1.376 . S
C1357 C1356 1.375 1_565 S
C1357 H1369 0.929 . S
C1358 C1354 1.531 . S
C1358 H1370 0.960 . S
C1358 H1371 0.962 . S
C1358 H1372 0.960 . S
C1359 C1356 1.523 . S
C1359 H1373 0.961 . S
C1359 H1374 0.961 . S
C1359 H1375 0.961 . S
C1360 C1361 1.370 . S
C1360 C1362 1.363 . S
C1360 H1376 0.931 . S
C1361 C1360 1.370 . S
C1361 C1365 1.408 . S
C1362 C1360 1.363 . S
C1362 C1363 1.370 . S
C1362 C1366 1.553 . S
C1363 C1355 1.503 1_545 S
C1363 C1362 1.370 . S
C1363 C1364 1.403 . S
C1364 C1363 1.403 . S
C1364 C1365 1.404 . S
C1364 C1367 1.539 . S
C1365 C1361 1.408 . S
C1365 C1364 1.404 . S
C1365 H1377 0.930 . S
C1366 C1362 1.553 . S
C1366 H1378 0.916 1_545 S
C1366 H1379 0.928 1_545 S
C1366 H1380 1.001 . S
C1367 C1364 1.539 . S
C1367 H1381 0.958 . S
C1367 H1382 0.961 . S
C1367 H1383 0.960 . S
H1368 C1352 0.931 . S
H1369 C1357 0.929 . S
H1370 C1358 0.960 . S
H1371 C1358 0.962 . S
H1372 C1358 0.960 . S
H1373 C1359 0.961 . S
H1374 C1359 0.961 . S
H1375 C1359 0.961 . S
H1376 C1360 0.931 . S
H1377 C1365 0.930 . S
H1378 C1366 0.916 1_565 S
H1379 C1366 0.928 1_565 S
H1380 C1366 1.001 . S
H1381 C1367 0.958 . S
H1382 C1367 0.961 . S
H1383 C1367 0.960 . S
C1384 C1385 1.391 . S
C1384 C1386 1.394 . S
C1384 H1400 0.931 . S
C1385 C1384 1.391 . S
C1385 C1389 1.376 . S
C1386 C1384 1.394 . S
C1386 C1387 1.369 . S
C1386 C1390 1.531 . S
C1387 C1386 1.369 . S
C1387 C1388 1.410 . S
C1387 C1395 1.503 . S
C1388 C1387 1.410 . S
C1388 C1389 1.392 . S
C1388 C1391 1.511 . S
C1389 C1385 1.376 . S
C1389 C1388 1.392 . S
C1389 H1401 0.929 . S
C1390 C1386 1.531 . S
C1390 H1402 0.960 . S
C1390 H1403 0.962 . S
C1390 H1404 0.960 . S
C1391 C1388 1.511 . S
C1391 H1405 0.961 . S
C1391 H1406 0.961 . S
C1391 H1407 0.961 . S
C1392 C1393 1.370 . S
C1392 C1394 1.363 . S
C1392 H1408 0.931 . S
C1393 C1392 1.370 . S
C1393 C1397 1.408 . S
C1394 C1392 1.363 . S
C1394 C1395 1.370 . S
C1394 C1398 1.524 . S
C1395 C1387 1.503 . S
C1395 C1394 1.370 . S
C1395 C1396 1.403 . S
C1396 C1395 1.403 . S
C1396 C1397 1.404 . S
C1396 C1399 1.539 . S
C1397 C1393 1.408 . S
C1397 C1396 1.404 . S
C1397 H1409 0.930 . S
C1398 C1394 1.524 . S
C1398 H1410 0.956 . S
C1398 H1411 0.961 . S
C1398 H1412 0.961 . S
C1399 C1396 1.539 . S
C1399 H1413 0.958 . S
C1399 H1414 0.961 . S
C1399 H1415 0.960 . S
H1400 C1384 0.931 . S
H1401 C1389 0.929 . S
H1402 C1390 0.960 . S
H1403 C1390 0.962 . S
H1404 C1390 0.960 . S
H1405 C1391 0.961 . S
H1406 C1391 0.961 . S
H1407 C1391 0.961 . S
H1408 C1392 0.931 . S
H1409 C1397 0.930 . S
H1410 C1398 0.956 . S
H1411 C1398 0.961 . S
H1412 C1398 0.961 . S
H1413 C1399 0.958 . S
H1414 C1399 0.961 . S
H1415 C1399 0.960 . S
C1416 C1417 1.391 . S
C1416 C1418 1.394 . S
C1416 H1432 0.931 . S
C1417 C1416 1.391 . S
C1417 C1421 1.376 . S
C1418 C1416 1.394 . S
C1418 C1419 1.369 . S
C1418 C1422 1.531 . S
C1419 C1418 1.369 . S
C1419 C1420 1.410 . S
C1419 C1427 1.503 . S
C1420 C1419 1.410 . S
C1420 C1421 1.392 . S
C1420 C1423 1.511 . S
C1421 C1417 1.376 . S
C1421 C1420 1.392 . S
C1421 H1433 0.929 . S
C1422 C1418 1.531 . S
C1422 H1434 0.960 . S
C1422 H1435 0.962 . S
C1422 H1436 0.960 . S
C1423 C1420 1.511 . S
C1423 H1437 0.961 . S
C1423 H1438 0.961 . S
C1423 H1439 0.961 . S
C1424 C1425 1.370 . S
C1424 C1426 1.363 . S
C1424 H1440 0.931 . S
C1425 C1424 1.370 . S
C1425 C1429 1.408 . S
C1426 C1424 1.363 . S
C1426 C1427 1.370 . S
C1426 C1430 1.524 . S
C1427 C1419 1.503 . S
C1427 C1426 1.370 . S
C1427 C1428 1.403 . S
C1428 C1427 1.403 . S
C1428 C1429 1.404 . S
C1428 C1431 1.539 . S
C1429 C1425 1.408 . S
C1429 C1428 1.404 . S
C1429 H1441 0.930 . S
C1430 C1426 1.524 . S
C1430 H1442 0.956 . S
C1430 H1443 0.961 . S
C1430 H1444 0.961 . S
C1431 C1428 1.539 . S
C1431 H1445 0.958 . S
C1431 H1446 0.961 . S
C1431 H1447 0.960 . S
H1432 C1416 0.931 . S
H1433 C1421 0.929 . S
H1434 C1422 0.960 . S
H1435 C1422 0.962 . S
H1436 C1422 0.960 . S
H1437 C1423 0.961 . S
H1438 C1423 0.961 . S
H1439 C1423 0.961 . S
H1440 C1424 0.931 . S
H1441 C1429 0.930 . S
H1442 C1430 0.956 . S
H1443 C1430 0.961 . S
H1444 C1430 0.961 . S
H1445 C1431 0.958 . S
H1446 C1431 0.961 . S
H1447 C1431 0.960 . S
C1448 C1449 1.391 . S
C1448 C1450 1.394 . S
C1448 H1464 0.931 . S
C1449 C1448 1.391 . S
C1449 C1453 1.376 . S
C1450 C1448 1.394 . S
C1450 C1451 1.369 . S
C1450 C1454 1.531 . S
C1451 C1450 1.369 . S
C1451 C1452 1.410 . S
C1451 C1459 1.503 . S
C1452 C1451 1.410 . S
C1452 C1453 1.392 . S
C1452 C1455 1.511 . S
C1453 C1449 1.376 . S
C1453 C1452 1.392 . S
C1453 H1465 0.929 . S
C1454 C1450 1.531 . S
C1454 H1466 0.960 . S
C1454 H1467 0.962 . S
C1454 H1468 0.960 . S
C1455 C1452 1.511 . S
C1455 H1469 0.961 . S
C1455 H1470 0.961 . S
C1455 H1471 0.961 . S
C1456 C1457 1.370 . S
C1456 C1458 1.363 . S
C1456 H1472 0.931 . S
C1457 C1456 1.370 . S
C1457 C1461 1.408 1_655 S
C1458 C1456 1.363 . S
C1458 C1459 1.370 . S
C1458 C1462 1.524 . S
C1459 C1451 1.503 . S
C1459 C1458 1.370 . S
C1459 C1460 1.403 . S
C1460 C1459 1.403 . S
C1460 C1461 1.404 1_655 S
C1460 C1463 1.534 . S
C1461 C1457 1.408 1_455 S
C1461 C1460 1.404 1_455 S
C1461 H1473 0.930 . S
C1462 C1458 1.524 . S
C1462 H1474 0.956 . S
C1462 H1475 0.961 . S
C1462 H1476 0.961 . S
C1463 C1460 1.534 . S
C1463 H1477 0.963 1_655 S
C1463 H1478 0.965 1_655 S
C1463 H1479 0.956 . S
H1464 C1448 0.931 . S
H1465 C1453 0.929 . S
H1466 C1454 0.960 . S
H1467 C1454 0.962 . S
H1468 C1454 0.960 . S
H1469 C1455 0.961 . S
H1470 C1455 0.961 . S
H1471 C1455 0.961 . S
H1472 C1456 0.931 . S
H1473 C1461 0.930 . S
H1474 C1462 0.956 . S
H1475 C1462 0.961 . S
H1476 C1462 0.961 . S
H1477 C1463 0.963 1_455 S
H1478 C1463 0.965 1_455 S
H1479 C1463 0.956 . S
C1480 C1481 1.391 . S
C1480 C1482 1.394 . S
C1480 H1496 0.931 . S
C1481 C1480 1.391 . S
C1481 C1485 1.376 . S
C1482 C1480 1.394 . S
C1482 C1483 1.369 . S
C1482 C1486 1.531 . S
C1483 C1482 1.369 . S
C1483 C1484 1.410 . S
C1483 C1491 1.503 . S
C1484 C1483 1.410 . S
C1484 C1485 1.392 . S
C1484 C1487 1.511 . S
C1485 C1481 1.376 . S
C1485 C1484 1.392 . S
C1485 H1497 0.929 . S
C1486 C1482 1.531 . S
C1486 H1498 0.960 . S
C1486 H1499 0.962 . S
C1486 H1500 0.960 . S
C1487 C1484 1.511 . S
C1487 H1501 0.961 . S
C1487 H1502 0.961 . S
C1487 H1503 0.961 . S
C1488 C1489 1.370 . S
C1488 C1490 1.363 . S
C1488 H1504 0.931 . S
C1489 C1488 1.370 . S
C1489 C1493 1.408 . S
C1490 C1488 1.363 . S
C1490 C1491 1.370 . S
C1490 C1494 1.524 . S
C1491 C1483 1.503 . S
C1491 C1490 1.370 . S
C1491 C1492 1.403 . S
C1492 C1491 1.403 . S
C1492 C1493 1.404 . S
C1492 C1495 1.539 . S
C1493 C1489 1.408 . S
C1493 C1492 1.404 . S
C1493 H1505 0.930 . S
C1494 C1490 1.524 . S
C1494 H1506 0.956 . S
C1494 H1507 0.961 . S
C1494 H1508 0.961 . S
C1495 C1492 1.539 . S
C1495 H1509 0.958 . S
C1495 H1510 0.961 . S
C1495 H1511 0.960 . S
H1496 C1480 0.931 . S
H1497 C1485 0.929 . S
H1498 C1486 0.960 . S
H1499 C1486 0.962 . S
H1500 C1486 0.960 . S
H1501 C1487 0.961 . S
H1502 C1487 0.961 . S
H1503 C1487 0.961 . S
H1504 C1488 0.931 . S
H1505 C1493 0.930 . S
H1506 C1494 0.956 . S
H1507 C1494 0.961 . S
H1508 C1494 0.961 . S
H1509 C1495 0.958 . S
H1510 C1495 0.961 . S
H1511 C1495 0.960 . S
C1512 C1513 1.391 . S
C1512 C1514 1.394 . S
C1512 H1528 0.931 . S
C1513 C1512 1.391 . S
C1513 C1517 1.376 . S
C1514 C1512 1.394 . S
C1514 C1515 1.369 . S
C1514 C1518 1.531 . S
C1515 C1514 1.369 . S
C1515 C1516 1.410 . S
C1515 C1523 1.503 . S
C1516 C1515 1.410 . S
C1516 C1517 1.392 . S
C1516 C1519 1.511 . S
C1517 C1513 1.376 . S
C1517 C1516 1.392 . S
C1517 H1529 0.929 . S
C1518 C1514 1.531 . S
C1518 H1530 0.960 . S
C1518 H1531 0.962 . S
C1518 H1532 0.960 . S
C1519 C1516 1.511 . S
C1519 H1533 0.961 . S
C1519 H1534 0.961 . S
C1519 H1535 0.961 . S
C1520 C1521 1.370 . S
C1520 C1522 1.363 . S
C1520 H1536 0.931 . S
C1521 C1520 1.370 . S
C1521 C1525 1.408 . S
C1522 C1520 1.363 . S
C1522 C1523 1.370 . S
C1522 C1526 1.524 . S
C1523 C1515 1.503 . S
C1523 C1522 1.370 . S
C1523 C1524 1.403 . S
C1524 C1523 1.403 . S
C1524 C1525 1.404 . S
C1524 C1527 1.539 . S
C1525 C1521 1.408 . S
C1525 C1524 1.404 . S
C1525 H1537 0.930 . S
C1526 C1522 1.524 . S
C1526 H1538 0.956 . S
C1526 H1539 0.961 . S
C1526 H1540 0.961 . S
C1527 C1524 1.539 . S
C1527 H1541 0.958 . S
C1527 H1542 0.961 . S
C1527 H1543 0.960 . S
H1528 C1512 0.931 . S
H1529 C1517 0.929 . S
H1530 C1518 0.960 . S
H1531 C1518 0.962 . S
H1532 C1518 0.960 . S
H1533 C1519 0.961 . S
H1534 C1519 0.961 . S
H1535 C1519 0.961 . S
H1536 C1520 0.931 . S
H1537 C1525 0.930 . S
H1538 C1526 0.956 . S
H1539 C1526 0.961 . S
H1540 C1526 0.961 . S
H1541 C1527 0.958 . S
H1542 C1527 0.961 . S
H1543 C1527 0.960 . S
C1544 C1545 1.391 . S
C1544 C1546 1.394 . S
C1544 H1560 0.931 . S
C1545 C1544 1.391 . S
C1545 C1549 1.376 . S
C1546 C1544 1.394 . S
C1546 C1547 1.369 . S
C1546 C1550 1.531 . S
C1547 C1546 1.369 . S
C1547 C1548 1.410 . S
C1547 C1555 1.503 . S
C1548 C1547 1.410 . S
C1548 C1549 1.392 . S
C1548 C1551 1.511 . S
C1549 C1545 1.376 . S
C1549 C1548 1.392 . S
C1549 H1561 0.929 . S
C1550 C1546 1.531 . S
C1550 H1562 0.960 . S
C1550 H1563 0.962 . S
C1550 H1564 0.960 . S
C1551 C1548 1.511 . S
C1551 H1565 0.961 . S
C1551 H1566 0.961 . S
C1551 H1567 0.961 . S
C1552 C1553 1.370 . S
C1552 C1554 1.363 . S
C1552 H1568 0.931 . S
C1553 C1552 1.370 . S
C1553 C1557 1.408 . S
C1554 C1552 1.363 . S
C1554 C1555 1.370 . S
C1554 C1558 1.524 . S
C1555 C1547 1.503 . S
C1555 C1554 1.370 . S
C1555 C1556 1.403 . S
C1556 C1555 1.403 . S
C1556 C1557 1.404 . S
C1556 C1559 1.539 . S
C1557 C1553 1.408 . S
C1557 C1556 1.404 . S
C1557 H1569 0.930 . S
C1558 C1554 1.524 . S
C1558 H1570 0.956 . S
C1558 H1571 0.961 . S
C1558 H1572 0.961 . S
C1559 C1556 1.539 . S
C1559 H1573 0.958 . S
C1559 H1574 0.961 . S
C1559 H1575 0.960 . S
H1560 C1544 0.931 . S
H1561 C1549 0.929 . S
H1562 C1550 0.960 . S
H1563 C1550 0.962 . S
H1564 C1550 0.960 . S
H1565 C1551 0.961 . S
H1566 C1551 0.961 . S
H1567 C1551 0.961 . S
H1568 C1552 0.931 . S
H1569 C1557 0.930 . S
H1570 C1558 0.956 . S
H1571 C1558 0.961 . S
H1572 C1558 0.961 . S
H1573 C1559 0.958 . S
H1574 C1559 0.961 . S
H1575 C1559 0.960 . S
C1576 C1577 1.391 . S
C1576 C1578 1.394 . S
C1576 H1592 0.931 . S
C1577 C1576 1.391 . S
C1577 C1581 1.376 . S
C1578 C1576 1.394 . S
C1578 C1579 1.369 . S
C1578 C1582 1.531 . S
C1579 C1578 1.369 . S
C1579 C1580 1.410 . S
C1579 C1587 1.503 . S
C1580 C1579 1.410 . S
C1580 C1581 1.392 . S
C1580 C1583 1.511 . S
C1581 C1577 1.376 . S
C1581 C1580 1.392 . S
C1581 H1593 0.929 . S
C1582 C1578 1.531 . S
C1582 H1594 0.960 . S
C1582 H1595 0.962 . S
C1582 H1596 0.960 . S
C1583 C1580 1.511 . S
C1583 H1597 0.961 . S
C1583 H1598 0.961 . S
C1583 H1599 0.961 . S
C1584 C1585 1.370 1_655 S
C1584 C1586 1.363 . S
C1584 H1600 0.931 . S
C1585 C1584 1.370 1_455 S
C1585 C1589 1.408 1_455 S
C1586 C1584 1.363 . S
C1586 C1587 1.370 . S
C1586 C1590 1.524 . S
C1587 C1579 1.503 . S
C1587 C1586 1.370 . S
C1587 C1588 1.403 . S
C1588 C1587 1.403 . S
C1588 C1589 1.404 . S
C1588 C1591 1.539 . S
C1589 C1585 1.408 1_655 S
C1589 C1588 1.404 . S
C1589 H1601 0.930 1_655 S
C1590 C1586 1.524 . S
C1590 H1602 0.956 . S
C1590 H1603 0.961 . S
C1590 H1604 0.961 . S
C1591 C1588 1.539 . S
C1591 H1605 0.958 . S
C1591 H1606 0.961 . S
C1591 H1607 0.960 . S
H1592 C1576 0.931 . S
H1593 C1581 0.929 . S
H1594 C1582 0.960 . S
H1595 C1582 0.962 . S
H1596 C1582 0.960 . S
H1597 C1583 0.961 . S
H1598 C1583 0.961 . S
H1599 C1583 0.961 . S
H1600 C1584 0.931 . S
H1601 C1589 0.930 1_455 S
H1602 C1590 0.956 . S
H1603 C1590 0.961 . S
H1604 C1590 0.961 . S
H1605 C1591 0.958 . S
H1606 C1591 0.961 . S
H1607 C1591 0.960 . S
C1608 C1609 1.391 . S
C1608 C1610 1.394 . S
C1608 H1624 0.931 . S
C1609 C1608 1.391 . S
C1609 C1613 1.376 . S
C1610 C1608 1.394 . S
C1610 C1611 1.369 . S
C1610 C1614 1.531 . S
C1611 C1610 1.369 . S
C1611 C1612 1.410 . S
C1611 C1619 1.503 . S
C1612 C1611 1.410 . S
C1612 C1613 1.392 . S
C1612 C1615 1.511 . S
C1613 C1609 1.376 . S
C1613 C1612 1.392 . S
C1613 H1625 0.929 . S
C1614 C1610 1.531 . S
C1614 H1626 0.960 . S
C1614 H1627 0.962 . S
C1614 H1628 0.960 . S
C1615 C1612 1.511 . S
C1615 H1629 0.961 . S
C1615 H1630 0.961 . S
C1615 H1631 0.961 . S
C1616 C1617 1.370 . S
C1616 C1618 1.363 . S
C1616 H1632 0.931 . S
C1617 C1616 1.370 . S
C1617 C1621 1.408 . S
C1618 C1616 1.363 . S
C1618 C1619 1.370 . S
C1618 C1622 1.524 . S
C1619 C1611 1.503 . S
C1619 C1618 1.370 . S
C1619 C1620 1.403 . S
C1620 C1619 1.403 . S
C1620 C1621 1.404 . S
C1620 C1623 1.539 . S
C1621 C1617 1.408 . S
C1621 C1620 1.404 . S
C1621 H1633 0.930 . S
C1622 C1618 1.524 . S
C1622 H1634 0.956 . S
C1622 H1635 0.961 . S
C1622 H1636 0.961 . S
C1623 C1620 1.539 . S
C1623 H1637 0.958 . S
C1623 H1638 0.961 . S
C1623 H1639 0.960 . S
H1624 C1608 0.931 . S
H1625 C1613 0.929 . S
H1626 C1614 0.960 . S
H1627 C1614 0.962 . S
H1628 C1614 0.960 . S
H1629 C1615 0.961 . S
H1630 C1615 0.961 . S
H1631 C1615 0.961 . S
H1632 C1616 0.931 . S
H1633 C1621 0.930 . S
H1634 C1622 0.956 . S
H1635 C1622 0.961 . S
H1636 C1622 0.961 . S
H1637 C1623 0.958 . S
H1638 C1623 0.961 . S
H1639 C1623 0.960 . S
C1640 C1641 1.391 . S
C1640 C1642 1.394 . S
C1640 H1656 0.931 . S
C1641 C1640 1.391 . S
C1641 C1645 1.376 . S
C1642 C1640 1.394 . S
C1642 C1643 1.369 . S
C1642 C1646 1.531 . S
C1643 C1642 1.369 . S
C1643 C1644 1.410 . S
C1643 C1651 1.503 . S
C1644 C1643 1.410 . S
C1644 C1645 1.392 . S
C1644 C1647 1.511 . S
C1645 C1641 1.376 . S
C1645 C1644 1.392 . S
C1645 H1657 0.929 . S
C1646 C1642 1.531 . S
C1646 H1658 0.960 . S
C1646 H1659 0.962 . S
C1646 H1660 0.960 . S
C1647 C1644 1.511 . S
C1647 H1661 0.961 . S
C1647 H1662 0.961 . S
C1647 H1663 0.961 . S
C1648 C1649 1.370 . S
C1648 C1650 1.363 . S
C1648 H1664 0.931 . S
C1649 C1648 1.370 . S
C1649 C1653 1.408 . S
C1650 C1648 1.363 . S
C1650 C1651 1.370 . S
C1650 C1654 1.524 . S
C1651 C1643 1.503 . S
C1651 C1650 1.370 . S
C1651 C1652 1.403 . S
C1652 C1651 1.403 . S
C1652 C1653 1.404 . S
C1652 C1655 1.539 . S
C1653 C1649 1.408 . S
C1653 C1652 1.404 . S
C1653 H1665 0.930 . S
C1654 C1650 1.524 . S
C1654 H1666 0.956 . S
C1654 H1667 0.961 . S
C1654 H1668 0.961 . S
C1655 C1652 1.539 . S
C1655 H1669 0.958 . S
C1655 H1670 0.961 . S
C1655 H1671 0.960 . S
H1656 C1640 0.931 . S
H1657 C1645 0.929 . S
H1658 C1646 0.960 . S
H1659 C1646 0.962 . S
H1660 C1646 0.960 . S
H1661 C1647 0.961 . S
H1662 C1647 0.961 . S
H1663 C1647 0.961 . S
H1664 C1648 0.931 . S
H1665 C1653 0.930 . S
H1666 C1654 0.956 . S
H1667 C1654 0.961 . S
H1668 C1654 0.961 . S
H1669 C1655 0.958 . S
H1670 C1655 0.961 . S
H1671 C1655 0.960 . S
C1672 C1673 1.391 . S
C1672 C1674 1.394 . S
C1672 H1688 0.931 . S
C1673 C1672 1.391 . S
C1673 C1677 1.376 . S
C1674 C1672 1.394 . S
C1674 C1675 1.369 . S
C1674 C1678 1.531 . S
C1675 C1674 1.369 . S
C1675 C1676 1.410 . S
C1675 C1683 1.503 . S
C1676 C1675 1.410 . S
C1676 C1677 1.392 . S
C1676 C1679 1.511 . S
C1677 C1673 1.376 . S
C1677 C1676 1.392 . S
C1677 H1689 0.929 . S
C1678 C1674 1.531 . S
C1678 H1690 0.960 . S
C1678 H1691 0.962 . S
C1678 H1692 0.960 . S
C1679 C1676 1.511 . S
C1679 H1693 0.961 . S
C1679 H1694 0.961 . S
C1679 H1695 0.961 . S
C1680 C1681 1.370 . S
C1680 C1682 1.363 . S
C1680 H1696 0.931 . S
C1681 C1680 1.370 . S
C1681 C1685 1.408 . S
C1682 C1680 1.363 . S
C1682 C1683 1.370 1_455 S
C1682 C1686 1.524 . S
C1683 C1675 1.503 . S
C1683 C1682 1.370 1_655 S
C1683 C1684 1.403 . S
C1684 C1683 1.403 . S
C1684 C1685 1.404 1_655 S
C1684 C1687 1.539 . S
C1685 C1681 1.408 . S
C1685 C1684 1.404 1_455 S
C1685 H1697 0.930 . S
C1686 C1682 1.524 . S
C1686 H1698 0.956 . S
C1686 H1699 0.959 1_455 S
C1686 H1700 0.961 . S
C1687 C1684 1.539 . S
C1687 H1701 0.958 . S
C1687 H1702 0.961 . S
C1687 H1703 0.960 . S
H1688 C1672 0.931 . S
H1689 C1677 0.929 . S
H1690 C1678 0.960 . S
H1691 C1678 0.962 . S
H1692 C1678 0.960 . S
H1693 C1679 0.961 . S
H1694 C1679 0.961 . S
H1695 C1679 0.961 . S
H1696 C1680 0.931 . S
H1697 C1685 0.930 . S
H1698 C1686 0.956 . S
H1699 C1686 0.959 1_655 S
H1700 C1686 0.961 . S
H1701 C1687 0.958 . S
H1702 C1687 0.961 . S
H1703 C1687 0.960 . S
C1704 C1705 1.391 . S
C1704 C1706 1.394 . S
C1704 H1720 0.931 . S
C1705 C1704 1.391 . S
C1705 C1709 1.376 . S
C1706 C1704 1.394 . S
C1706 C1707 1.369 . S
C1706 C1710 1.531 . S
C1707 C1706 1.369 . S
C1707 C1708 1.410 . S
C1707 C1715 1.503 . S
C1708 C1707 1.410 . S
C1708 C1709 1.392 . S
C1708 C1711 1.511 . S
C1709 C1705 1.376 . S
C1709 C1708 1.392 . S
C1709 H1721 0.929 . S
C1710 C1706 1.531 . S
C1710 H1722 0.960 . S
C1710 H1723 0.962 . S
C1710 H1724 0.960 . S
C1711 C1708 1.511 . S
C1711 H1725 0.961 . S
C1711 H1726 0.961 . S
C1711 H1727 0.961 . S
C1712 C1713 1.370 . S
C1712 C1714 1.363 . S
C1712 H1728 0.931 . S
C1713 C1712 1.370 . S
C1713 C1717 1.408 . S
C1714 C1712 1.363 . S
C1714 C1715 1.370 . S
C1714 C1718 1.524 . S
C1715 C1707 1.503 . S
C1715 C1714 1.370 . S
C1715 C1716 1.403 . S
C1716 C1715 1.403 . S
C1716 C1717 1.404 . S
C1716 C1719 1.539 . S
C1717 C1713 1.408 . S
C1717 C1716 1.404 . S
C1717 H1729 0.930 . S
C1718 C1714 1.524 . S
C1718 H1730 0.956 . S
C1718 H1731 0.961 . S
C1718 H1732 0.961 . S
C1719 C1716 1.539 . S
C1719 H1733 0.958 . S
C1719 H1734 0.961 . S
C1719 H1735 0.960 . S
H1720 C1704 0.931 . S
H1721 C1709 0.929 . S
H1722 C1710 0.960 . S
H1723 C1710 0.962 . S
H1724 C1710 0.960 . S
H1725 C1711 0.961 . S
H1726 C1711 0.961 . S
H1727 C1711 0.961 . S
H1728 C1712 0.931 . S
H1729 C1717 0.930 . S
H1730 C1718 0.956 . S
H1731 C1718 0.961 . S
H1732 C1718 0.961 . S
H1733 C1719 0.958 . S
H1734 C1719 0.961 . S
H1735 C1719 0.960 . S
C1736 C1737 1.391 . S
C1736 C1738 1.394 . S
C1736 H1752 0.931 . S
C1737 C1736 1.391 . S
C1737 C1741 1.376 . S
C1738 C1736 1.394 . S
C1738 C1739 1.369 . S
C1738 C1742 1.531 . S
C1739 C1738 1.369 . S
C1739 C1740 1.410 . S
C1739 C1747 1.503 . S
C1740 C1739 1.410 . S
C1740 C1741 1.392 . S
C1740 C1743 1.511 . S
C1741 C1737 1.376 . S
C1741 C1740 1.392 . S
C1741 H1753 0.929 . S
C1742 C1738 1.531 . S
C1742 H1754 0.960 . S
C1742 H1755 0.962 . S
C1742 H1756 0.960 . S
C1743 C1740 1.511 . S
C1743 H1757 0.961 . S
C1743 H1758 0.961 . S
C1743 H1759 0.961 . S
C1744 C1745 1.370 . S
C1744 C1746 1.363 . S
C1744 H1760 0.931 . S
C1745 C1744 1.370 . S
C1745 C1749 1.408 . S
C1746 C1744 1.363 . S
C1746 C1747 1.370 . S
C1746 C1750 1.524 . S
C1747 C1739 1.503 . S
C1747 C1746 1.370 . S
C1747 C1748 1.403 . S
C1748 C1747 1.403 . S
C1748 C1749 1.404 . S
C1748 C1751 1.539 . S
C1749 C1745 1.408 . S
C1749 C1748 1.404 . S
C1749 H1761 0.930 . S
C1750 C1746 1.524 . S
C1750 H1762 0.956 . S
C1750 H1763 0.961 . S
C1750 H1764 0.961 . S
C1751 C1748 1.539 . S
C1751 H1765 0.958 . S
C1751 H1766 0.961 . S
C1751 H1767 0.960 . S
H1752 C1736 0.931 . S
H1753 C1741 0.929 . S
H1754 C1742 0.960 . S
H1755 C1742 0.962 . S
H1756 C1742 0.960 . S
H1757 C1743 0.961 . S
H1758 C1743 0.961 . S
H1759 C1743 0.961 . S
H1760 C1744 0.931 . S
H1761 C1749 0.930 . S
H1762 C1750 0.956 . S
H1763 C1750 0.961 . S
H1764 C1750 0.961 . S
H1765 C1751 0.958 . S
H1766 C1751 0.961 . S
H1767 C1751 0.960 . S
C1768 C1769 1.391 . S
C1768 C1770 1.394 . S
C1768 H1784 0.931 . S
C1769 C1768 1.391 . S
C1769 C1773 1.376 . S
C1770 C1768 1.394 . S
C1770 C1771 1.369 . S
C1770 C1774 1.531 . S
C1771 C1770 1.369 . S
C1771 C1772 1.410 . S
C1771 C1779 1.503 . S
C1772 C1771 1.410 . S
C1772 C1773 1.392 . S
C1772 C1775 1.511 . S
C1773 C1769 1.376 . S
C1773 C1772 1.392 . S
C1773 H1785 0.929 . S
C1774 C1770 1.531 . S
C1774 H1786 0.960 . S
C1774 H1787 0.962 . S
C1774 H1788 0.960 . S
C1775 C1772 1.511 . S
C1775 H1789 0.961 . S
C1775 H1790 0.961 . S
C1775 H1791 0.961 . S
C1776 C1777 1.370 . S
C1776 C1778 1.363 . S
C1776 H1792 0.931 . S
C1777 C1776 1.370 . S
C1777 C1781 1.408 . S
C1778 C1776 1.363 . S
C1778 C1779 1.370 . S
C1778 C1782 1.524 . S
C1779 C1771 1.503 . S
C1779 C1778 1.370 . S
C1779 C1780 1.403 . S
C1780 C1779 1.403 . S
C1780 C1781 1.404 . S
C1780 C1783 1.539 . S
C1781 C1777 1.408 . S
C1781 C1780 1.404 . S
C1781 H1793 0.930 . S
C1782 C1778 1.524 . S
C1782 H1794 0.956 . S
C1782 H1795 0.961 . S
C1782 H1796 0.961 . S
C1783 C1780 1.539 . S
C1783 H1797 0.958 . S
C1783 H1798 0.961 . S
C1783 H1799 0.960 . S
H1784 C1768 0.931 . S
H1785 C1773 0.929 . S
H1786 C1774 0.960 . S
H1787 C1774 0.962 . S
H1788 C1774 0.960 . S
H1789 C1775 0.961 . S
H1790 C1775 0.961 . S
H1791 C1775 0.961 . S
H1792 C1776 0.931 . S
H1793 C1781 0.930 . S
H1794 C1782 0.956 . S
H1795 C1782 0.961 . S
H1796 C1782 0.961 . S
H1797 C1783 0.958 . S
H1798 C1783 0.961 . S
H1799 C1783 0.960 . S
C1800 C1801 1.391 . S
C1800 C1802 1.394 . S
C1800 H1816 0.931 1_455 S
C1801 C1800 1.391 . S
C1801 C1805 1.376 . S
C1802 C1800 1.394 . S
C1802 C1803 1.369 . S
C1802 C1806 1.531 1_455 S
C1803 C1802 1.369 . S
C1803 C1804 1.410 . S
C1803 C1811 1.503 . S
C1804 C1803 1.410 . S
C1804 C1805 1.392 . S
C1804 C1807 1.511 . S
C1805 C1801 1.376 . S
C1805 C1804 1.392 . S
C1805 H1817 0.929 . S
C1806 C1802 1.531 1_655 S
C1806 H1818 0.960 1_655 S
C1806 H1819 0.962 . S
C1806 H1820 0.960 . S
C1807 C1804 1.511 . S
C1807 H1821 0.961 . S
C1807 H1822 0.961 . S
C1807 H1823 0.961 . S
C1808 C1809 1.370 . S
C1808 C1810 1.363 . S
C1808 H1824 0.931 . S
C1809 C1808 1.370 . S
C1809 C1813 1.408 . S
C1810 C1808 1.363 . S
C1810 C1811 1.370 . S
C1810 C1814 1.524 1_455 S
C1811 C1803 1.503 . S
C1811 C1810 1.370 . S
C1811 C1812 1.403 . S
C1812 C1811 1.403 . S
C1812 C1813 1.404 . S
C1812 C1815 1.539 . S
C1813 C1809 1.408 . S
C1813 C1812 1.404 . S
C1813 H1825 0.930 . S
C1814 C1810 1.524 1_655 S
C1814 H1826 0.956 . S
C1814 H1827 0.961 . S
C1814 H1828 0.961 . S
C1815 C1812 1.539 . S
C1815 H1829 0.958 . S
C1815 H1830 0.961 . S
C1815 H1831 0.960 . S
H1816 C1800 0.931 1_655 S
H1817 C1805 0.929 . S
H1818 C1806 0.960 1_455 S
H1819 C1806 0.962 . S
H1820 C1806 0.960 . S
H1821 C1807 0.961 . S
H1822 C1807 0.961 . S
H1823 C1807 0.961 . S
H1824 C1808 0.931 . S
H1825 C1813 0.930 . S
H1826 C1814 0.956 . S
H1827 C1814 0.961 . S
H1828 C1814 0.961 . S
H1829 C1815 0.958 . S
H1830 C1815 0.961 . S
H1831 C1815 0.960 . S
C1832 C1833 1.391 . S
C1832 C1834 1.394 . S
C1832 H1848 0.931 . S
C1833 C1832 1.391 . S
C1833 C1837 1.376 . S
C1834 C1832 1.394 . S
C1834 C1835 1.369 . S
C1834 C1838 1.531 . S
C1835 C1834 1.369 . S
C1835 C1836 1.410 . S
C1835 C1843 1.503 . S
C1836 C1835 1.410 . S
C1836 C1837 1.392 . S
C1836 C1839 1.511 . S
C1837 C1833 1.376 . S
C1837 C1836 1.392 . S
C1837 H1849 0.929 . S
C1838 C1834 1.531 . S
C1838 H1850 0.960 . S
C1838 H1851 0.962 . S
C1838 H1852 0.960 . S
C1839 C1836 1.511 . S
C1839 H1853 0.961 . S
C1839 H1854 0.961 . S
C1839 H1855 0.961 . S
C1840 C1841 1.370 . S
C1840 C1842 1.363 . S
C1840 H1856 0.931 . S
C1841 C1840 1.370 . S
C1841 C1845 1.408 . S
C1842 C1840 1.363 . S
C1842 C1843 1.370 . S
C1842 C1846 1.524 . S
C1843 C1835 1.503 . S
C1843 C1842 1.370 . S
C1843 C1844 1.403 . S
C1844 C1843 1.403 . S
C1844 C1845 1.404 . S
C1844 C1847 1.539 . S
C1845 C1841 1.408 . S
C1845 C1844 1.404 . S
C1845 H1857 0.930 . S
C1846 C1842 1.524 . S
C1846 H1858 0.956 . S
C1846 H1859 0.961 . S
C1846 H1860 0.961 . S
C1847 C1844 1.539 . S
C1847 H1861 0.958 . S
C1847 H1862 0.961 . S
C1847 H1863 0.960 . S
H1848 C1832 0.931 . S
H1849 C1837 0.929 . S
H1850 C1838 0.960 . S
H1851 C1838 0.962 . S
H1852 C1838 0.960 . S
H1853 C1839 0.961 . S
H1854 C1839 0.961 . S
H1855 C1839 0.961 . S
H1856 C1840 0.931 . S
H1857 C1845 0.930 . S
H1858 C1846 0.956 . S
H1859 C1846 0.961 . S
H1860 C1846 0.961 . S
H1861 C1847 0.958 . S
H1862 C1847 0.961 . S
H1863 C1847 0.960 . S
C1864 C1865 1.391 . S
C1864 C1866 1.394 . S
C1864 H1880 0.931 . S
C1865 C1864 1.391 . S
C1865 C1869 1.376 . S
C1866 C1864 1.394 . S
C1866 C1867 1.369 . S
C1866 C1870 1.531 . S
C1867 C1866 1.369 . S
C1867 C1868 1.410 . S
C1867 C1875 1.503 . S
C1868 C1867 1.410 . S
C1868 C1869 1.392 . S
C1868 C1871 1.511 . S
C1869 C1865 1.376 . S
C1869 C1868 1.392 . S
C1869 H1881 0.929 . S
C1870 C1866 1.531 . S
C1870 H1882 0.960 . S
C1870 H1883 0.962 . S
C1870 H1884 0.960 . S
C1871 C1868 1.511 . S
C1871 H1885 0.961 . S
C1871 H1886 0.961 . S
C1871 H1887 0.961 . S
C1872 C1873 1.370 . S
C1872 C1874 1.363 . S
C1872 H1888 0.931 . S
C1873 C1872 1.370 . S
C1873 C1877 1.408 . S
C1874 C1872 1.363 . S
C1874 C1875 1.370 . S
C1874 C1878 1.524 . S
C1875 C1867 1.503 . S
C1875 C1874 1.370 . S
C1875 C1876 1.403 . S
C1876 C1875 1.403 . S
C1876 C1877 1.404 . S
C1876 C1879 1.539 . S
C1877 C1873 1.408 . S
C1877 C1876 1.404 . S
C1877 H1889 0.930 . S
C1878 C1874 1.524 . S
C1878 H1890 0.956 . S
C1878 H1891 0.961 . S
C1878 H1892 0.961 . S
C1879 C1876 1.539 . S
C1879 H1893 0.958 . S
C1879 H1894 0.961 . S
C1879 H1895 0.960 . S
H1880 C1864 0.931 . S
H1881 C1869 0.929 . S
H1882 C1870 0.960 . S
H1883 C1870 0.962 . S
H1884 C1870 0.960 . S
H1885 C1871 0.961 . S
H1886 C1871 0.961 . S
H1887 C1871 0.961 . S
H1888 C1872 0.931 . S
H1889 C1877 0.930 . S
H1890 C1878 0.956 . S
H1891 C1878 0.961 . S
H1892 C1878 0.961 . S
H1893 C1879 0.958 . S
H1894 C1879 0.961 . S
H1895 C1879 0.960 . S
C1896 C1897 1.391 . S
C1896 C1898 1.394 . S
C1896 H1912 0.931 . S
C1897 C1896 1.391 . S
C1897 C1901 1.376 . S
C1898 C1896 1.394 . S
C1898 C1899 1.369 . S
C1898 C1902 1.531 . S
C1899 C1898 1.369 . S
C1899 C1900 1.410 . S
C1899 C1907 1.503 . S
C1900 C1899 1.410 . S
C1900 C1901 1.392 . S
C1900 C1903 1.511 . S
C1901 C1897 1.376 . S
C1901 C1900 1.392 . S
C1901 H1913 0.929 . S
C1902 C1898 1.531 . S
C1902 H1914 0.960 . S
C1902 H1915 0.962 . S
C1902 H1916 0.960 . S
C1903 C1900 1.511 . S
C1903 H1917 0.961 . S
C1903 H1918 0.961 . S
C1903 H1919 0.961 . S
C1904 C1905 1.370 . S
C1904 C1906 1.363 . S
C1904 H1920 0.905 1_545 S
C1905 C1904 1.370 . S
C1905 C1909 1.408 . S
C1906 C1904 1.363 . S
C1906 C1907 1.370 . S
C1906 C1910 1.524 1_545 S
C1907 C1899 1.503 . S
C1907 C1906 1.370 . S
C1907 C1908 1.403 . S
C1908 C1907 1.403 . S
C1908 C1909 1.404 . S
C1908 C1911 1.539 . S
C1909 C1905 1.408 . S
C1909 C1908 1.404 . S
C1909 H1921 0.930 . S
C1910 C1906 1.524 1_565 S
C1910 H1922 0.956 . S
C1910 H1923 0.961 . S
C1910 H1924 0.961 . S
C1911 C1908 1.539 . S
C1911 H1925 0.958 . S
C1911 H1926 0.961 . S
C1911 H1927 0.960 . S
H1912 C1896 0.931 . S
H1913 C1901 0.929 . S
H1914 C1902 0.960 . S
H1915 C1902 0.962 . S
H1916 C1902 0.960 . S
H1917 C1903 0.961 . S
H1918 C1903 0.961 . S
H1919 C1903 0.961 . S
H1920 C1904 0.905 1_565 S
H1921 C1909 0.930 . S
H1922 C1910 0.956 . S
H1923 C1910 0.961 . S
H1924 C1910 0.961 . S
H1925 C1911 0.958 . S
H1926 C1911 0.961 . S
H1927 C1911 0.960 . S
C1928 C1929 1.391 . S
C1928 C1930 1.394 . S
C1928 H1944 0.931 . S
C1929 C1928 1.391 . S
C1929 C1933 1.376 . S
C1930 C1928 1.394 . S
C1930 C1931 1.369 . S
C1930 C1934 1.531 . S
C1931 C1930 1.369 . S
C1931 C1932 1.410 . S
C1931 C1939 1.503 . S
C1932 C1931 1.410 . S
C1932 C1933 1.392 . S
C1932 C1935 1.511 . S
C1933 C1929 1.376 . S
C1933 C1932 1.392 . S
C1933 H1945 0.929 . S
C1934 C1930 1.531 . S
C1934 H1946 0.960 . S
C1934 H1947 0.962 . S
C1934 H1948 0.960 . S
C1935 C1932 1.511 . S
C1935 H1949 0.961 . S
C1935 H1950 0.961 . S
C1935 H1951 0.961 . S
C1936 C1937 1.370 . S
C1936 C1938 1.363 . S
C1936 H1952 0.931 . S
C1937 C1936 1.370 . S
C1937 C1941 1.408 . S
C1938 C1936 1.363 . S
C1938 C1939 1.370 . S
C1938 C1942 1.524 . S
C1939 C1931 1.503 . S
C1939 C1938 1.370 . S
C1939 C1940 1.403 . S
C1940 C1939 1.403 . S
C1940 C1941 1.404 . S
C1940 C1943 1.539 . S
C1941 C1937 1.408 . S
C1941 C1940 1.404 . S
C1941 H1953 0.930 . S
C1942 C1938 1.524 . S
C1942 H1954 0.956 . S
C1942 H1955 0.961 . S
C1942 H1956 0.961 . S
C1943 C1940 1.539 . S
C1943 H1957 0.958 . S
C1943 H1958 0.961 . S
C1943 H1959 0.960 . S
H1944 C1928 0.931 . S
H1945 C1933 0.929 . S
H1946 C1934 0.960 . S
H1947 C1934 0.962 . S
H1948 C1934 0.960 . S
H1949 C1935 0.961 . S
H1950 C1935 0.961 . S
H1951 C1935 0.961 . S
H1952 C1936 0.931 . S
H1953 C1941 0.930 . S
H1954 C1942 0.956 . S
H1955 C1942 0.961 . S
H1956 C1942 0.961 . S
H1957 C1943 0.958 . S
H1958 C1943 0.961 . S
H1959 C1943 0.960 . S
C1960 C1961 1.391 . S
C1960 C1962 1.394 . S
C1960 H1976 0.931 . S
C1961 C1960 1.391 . S
C1961 C1965 1.376 . S
C1962 C1960 1.394 . S
C1962 C1963 1.369 . S
C1962 C1966 1.531 . S
C1963 C1962 1.369 . S
C1963 C1964 1.410 . S
C1963 C1971 1.503 . S
C1964 C1963 1.410 . S
C1964 C1965 1.392 . S
C1964 C1967 1.511 . S
C1965 C1961 1.376 . S
C1965 C1964 1.392 . S
C1965 H1977 0.929 . S
C1966 C1962 1.531 . S
C1966 H1978 0.960 . S
C1966 H1979 0.962 . S
C1966 H1980 0.960 . S
C1967 C1964 1.511 . S
C1967 H1981 0.961 . S
C1967 H1982 0.961 . S
C1967 H1983 0.961 . S
C1968 C1969 1.370 . S
C1968 C1970 1.363 . S
C1968 H1984 0.931 . S
C1969 C1968 1.370 . S
C1969 C1973 1.408 . S
C1970 C1968 1.363 . S
C1970 C1971 1.370 . S
C1970 C1974 1.524 . S
C1971 C1963 1.503 . S
C1971 C1970 1.370 . S
C1971 C1972 1.403 . S
C1972 C1971 1.403 . S
C1972 C1973 1.404 . S
C1972 C1975 1.539 . S
C1973 C1969 1.408 . S
C1973 C1972 1.404 . S
C1973 H1985 0.930 . S
C1974 C1970 1.524 . S
C1974 H1986 0.956 . S
C1974 H1987 0.961 . S
C1974 H1988 0.961 . S
C1975 C1972 1.539 . S
C1975 H1989 0.958 . S
C1975 H1990 0.961 . S
C1975 H1991 0.960 . S
H1976 C1960 0.931 . S
H1977 C1965 0.929 . S
H1978 C1966 0.960 . S
H1979 C1966 0.962 . S
H1980 C1966 0.960 . S
H1981 C1967 0.961 . S
H1982 C1967 0.961 . S
H1983 C1967 0.961 . S
H1984 C1968 0.931 . S
H1985 C1973 0.930 . S
H1986 C1974 0.956 . S
H1987 C1974 0.961 . S
H1988 C1974 0.961 . S
H1989 C1975 0.958 . S
H1990 C1975 0.961 . S
H1991 C1975 0.960 . S
C1992 C1993 1.391 1_655 S
C1992 C1994 1.394 1_655 S
C1992 H2008 0.931 . S
C1993 C1992 1.391 1_455 S
C1993 C1997 1.376 . S
C1994 C1992 1.394 1_455 S
C1994 C1995 1.369 . S
C1994 C1998 1.531 1_455 S
C1995 C1994 1.369 . S
C1995 C1996 1.410 . S
C1995 C2003 1.503 . S
C1996 C1995 1.410 . S
C1996 C1997 1.392 . S
C1996 C1999 1.511 . S
C1997 C1993 1.376 . S
C1997 C1996 1.392 . S
C1997 H2009 0.929 . S
C1998 C1994 1.531 1_655 S
C1998 H2010 0.946 1_655 S
C1998 H2011 0.962 . S
C1998 H2012 0.960 . S
C1999 C1996 1.511 . S
C1999 H2013 0.961 . S
C1999 H2014 0.961 . S
C1999 H2015 0.961 . S
C2000 C2001 1.370 . S
C2000 C2002 1.363 . S
C2000 H2016 0.931 1_455 S
C2001 C2000 1.370 . S
C2001 C2005 1.408 . S
C2002 C2000 1.363 . S
C2002 C2003 1.370 . S
C2002 C2006 1.524 1_455 S
C2003 C1995 1.503 . S
C2003 C2002 1.370 . S
C2003 C2004 1.403 . S
C2004 C2003 1.403 . S
C2004 C2005 1.404 . S
C2004 C2007 1.539 . S
C2005 C2001 1.408 . S
C2005 C2004 1.404 . S
C2005 H2017 0.930 . S
C2006 C2002 1.524 1_655 S
C2006 H2018 0.956 . S
C2006 H2019 0.961 . S
C2006 H2020 0.961 . S
C2007 C2004 1.539 . S
C2007 H2021 0.958 . S
C2007 H2022 0.961 . S
C2007 H2023 0.960 . S
H2008 C1992 0.931 . S
H2009 C1997 0.929 . S
H2010 C1998 0.946 1_455 S
H2011 C1998 0.962 . S
H2012 C1998 0.960 . S
H2013 C1999 0.961 . S
H2014 C1999 0.961 . S
H2015 C1999 0.961 . S
H2016 C2000 0.931 1_655 S
H2017 C2005 0.930 . S
H2018 C2006 0.956 . S
H2019 C2006 0.961 . S
H2020 C2006 0.961 . S
H2021 C2007 0.958 . S
H2022 C2007 0.961 . S
H2023 C2007 0.960 . S
C2024 C2025 1.391 . S
C2024 C2026 1.394 . S
C2024 H2040 0.931 . S
C2025 C2024 1.391 . S
C2025 C2029 1.376 . S
C2026 C2024 1.394 . S
C2026 C2027 1.369 . S
C2026 C2030 1.531 . S
C2027 C2026 1.369 . S
C2027 C2028 1.410 . S
C2027 C2035 1.503 . S
C2028 C2027 1.410 . S
C2028 C2029 1.392 . S
C2028 C2031 1.511 . S
C2029 C2025 1.376 . S
C2029 C2028 1.392 . S
C2029 H2041 0.929 . S
C2030 C2026 1.531 . S
C2030 H2042 0.960 . S
C2030 H2043 0.962 . S
C2030 H2044 0.960 . S
C2031 C2028 1.511 . S
C2031 H2045 0.961 . S
C2031 H2046 0.961 . S
C2031 H2047 0.961 . S
C2032 C2033 1.370 . S
C2032 C2034 1.363 . S
C2032 H2048 0.931 . S
C2033 C2032 1.370 . S
C2033 C2037 1.408 . S
C2034 C2032 1.363 . S
C2034 C2035 1.370 . S
C2034 C2038 1.524 . S
C2035 C2027 1.503 . S
C2035 C2034 1.370 . S
C2035 C2036 1.403 . S
C2036 C2035 1.403 . S
C2036 C2037 1.404 . S
C2036 C2039 1.539 . S
C2037 C2033 1.408 . S
C2037 C2036 1.404 . S
C2037 H2049 0.930 . S
C2038 C2034 1.524 . S
C2038 H2050 0.956 . S
C2038 H2051 0.961 . S
C2038 H2052 0.961 . S
C2039 C2036 1.539 . S
C2039 H2053 0.958 . S
C2039 H2054 0.961 . S
C2039 H2055 0.960 . S
H2040 C2024 0.931 . S
H2041 C2029 0.929 . S
H2042 C2030 0.960 . S
H2043 C2030 0.962 . S
H2044 C2030 0.960 . S
H2045 C2031 0.961 . S
H2046 C2031 0.961 . S
H2047 C2031 0.961 . S
H2048 C2032 0.931 . S
H2049 C2037 0.930 . S
H2050 C2038 0.956 . S
H2051 C2038 0.961 . S
H2052 C2038 0.961 . S
H2053 C2039 0.958 . S
H2054 C2039 0.961 . S
H2055 C2039 0.960 . S
C2056 C2057 1.391 . S
C2056 C2058 1.394 . S
C2056 H2072 0.931 . S
C2057 C2056 1.391 . S
C2057 C2061 1.376 . S
C2058 C2056 1.394 . S
C2058 C2059 1.369 . S
C2058 C2062 1.531 . S
C2059 C2058 1.369 . S
C2059 C2060 1.410 . S
C2059 C2067 1.503 . S
C2060 C2059 1.410 . S
C2060 C2061 1.392 . S
C2060 C2063 1.511 . S
C2061 C2057 1.376 . S
C2061 C2060 1.392 . S
C2061 H2073 0.929 . S
C2062 C2058 1.531 . S
C2062 H2074 0.960 . S
C2062 H2075 0.962 . S
C2062 H2076 0.960 . S
C2063 C2060 1.511 . S
C2063 H2077 0.961 . S
C2063 H2078 0.961 . S
C2063 H2079 0.961 . S
C2064 C2065 1.370 . S
C2064 C2066 1.363 . S
C2064 H2080 0.931 . S
C2065 C2064 1.370 . S
C2065 C2069 1.408 . S
C2066 C2064 1.363 . S
C2066 C2067 1.370 . S
C2066 C2070 1.524 . S
C2067 C2059 1.503 . S
C2067 C2066 1.370 . S
C2067 C2068 1.403 . S
C2068 C2067 1.403 . S
C2068 C2069 1.404 . S
C2068 C2071 1.539 . S
C2069 C2065 1.408 . S
C2069 C2068 1.404 . S
C2069 H2081 0.930 . S
C2070 C2066 1.524 . S
C2070 H2082 0.956 . S
C2070 H2083 0.961 . S
C2070 H2084 0.961 . S
C2071 C2068 1.539 . S
C2071 H2085 0.958 . S
C2071 H2086 0.961 . S
C2071 H2087 0.960 . S
H2072 C2056 0.931 . S
H2073 C2061 0.929 . S
H2074 C2062 0.960 . S
H2075 C2062 0.962 . S
H2076 C2062 0.960 . S
H2077 C2063 0.961 . S
H2078 C2063 0.961 . S
H2079 C2063 0.961 . S
H2080 C2064 0.931 . S
H2081 C2069 0.930 . S
H2082 C2070 0.956 . S
H2083 C2070 0.961 . S
H2084 C2070 0.961 . S
H2085 C2071 0.958 . S
H2086 C2071 0.961 . S
H2087 C2071 0.960 . S
C2088 C2089 1.391 . S
C2088 C2090 1.394 . S
C2088 H2104 0.931 . S
C2089 C2088 1.391 . S
C2089 C2093 1.376 . S
C2090 C2088 1.394 . S
C2090 C2091 1.369 . S
C2090 C2094 1.531 . S
C2091 C2090 1.369 . S
C2091 C2092 1.410 . S
C2091 C2099 1.503 . S
C2092 C2091 1.410 . S
C2092 C2093 1.392 . S
C2092 C2095 1.511 . S
C2093 C2089 1.376 . S
C2093 C2092 1.392 . S
C2093 H2105 0.929 . S
C2094 C2090 1.531 . S
C2094 H2106 0.960 . S
C2094 H2107 0.962 . S
C2094 H2108 0.960 . S
C2095 C2092 1.511 . S
C2095 H2109 0.961 1_545 S
C2095 H2110 0.961 . S
C2095 H2111 0.961 . S
C2096 C2097 1.370 . S
C2096 C2098 1.363 . S
C2096 H2112 0.931 . S
C2097 C2096 1.370 . S
C2097 C2101 1.408 . S
C2098 C2096 1.363 . S
C2098 C2099 1.370 . S
C2098 C2102 1.524 . S
C2099 C2091 1.503 . S
C2099 C2098 1.370 . S
C2099 C2100 1.403 . S
C2100 C2099 1.403 . S
C2100 C2101 1.404 . S
C2100 C2103 1.539 . S
C2101 C2097 1.408 . S
C2101 C2100 1.404 . S
C2101 H2113 0.930 . S
C2102 C2098 1.524 . S
C2102 H2114 0.956 . S
C2102 H2115 0.961 . S
C2102 H2116 0.961 . S
C2103 C2100 1.539 . S
C2103 H2117 0.958 . S
C2103 H2118 0.961 . S
C2103 H2119 0.960 . S
H2104 C2088 0.931 . S
H2105 C2093 0.929 . S
H2106 C2094 0.960 . S
H2107 C2094 0.962 . S
H2108 C2094 0.960 . S
H2109 C2095 0.961 1_565 S
H2110 C2095 0.961 . S
H2111 C2095 0.961 . S
H2112 C2096 0.931 . S
H2113 C2101 0.930 . S
H2114 C2102 0.956 . S
H2115 C2102 0.961 . S
H2116 C2102 0.961 . S
H2117 C2103 0.958 . S
H2118 C2103 0.961 . S
H2119 C2103 0.960 . S
C2120 C2121 1.391 . S
C2120 C2122 1.394 . S
C2120 H2136 0.931 . S
C2121 C2120 1.391 . S
C2121 C2125 1.376 . S
C2122 C2120 1.394 . S
C2122 C2123 1.369 . S
C2122 C2126 1.531 . S
C2123 C2122 1.369 . S
C2123 C2124 1.410 . S
C2123 C2131 1.503 . S
C2124 C2123 1.410 . S
C2124 C2125 1.392 . S
C2124 C2127 1.511 . S
C2125 C2121 1.376 . S
C2125 C2124 1.392 . S
C2125 H2137 0.929 . S
C2126 C2122 1.531 . S
C2126 H2138 0.960 . S
C2126 H2139 0.962 . S
C2126 H2140 0.960 . S
C2127 C2124 1.511 . S
C2127 H2141 0.961 . S
C2127 H2142 0.961 . S
C2127 H2143 0.961 . S
C2128 C2129 1.370 . S
C2128 C2130 1.363 . S
C2128 H2144 0.931 . S
C2129 C2128 1.370 . S
C2129 C2133 1.408 . S
C2130 C2128 1.363 . S
C2130 C2131 1.370 . S
C2130 C2134 1.524 . S
C2131 C2123 1.503 . S
C2131 C2130 1.370 . S
C2131 C2132 1.403 . S
C2132 C2131 1.403 . S
C2132 C2133 1.404 . S
C2132 C2135 1.539 . S
C2133 C2129 1.408 . S
C2133 C2132 1.404 . S
C2133 H2145 0.930 . S
C2134 C2130 1.524 . S
C2134 H2146 0.956 . S
C2134 H2147 0.961 . S
C2134 H2148 0.961 . S
C2135 C2132 1.539 . S
C2135 H2149 0.958 . S
C2135 H2150 0.961 . S
C2135 H2151 0.960 . S
H2136 C2120 0.931 . S
H2137 C2125 0.929 . S
H2138 C2126 0.960 . S
H2139 C2126 0.962 . S
H2140 C2126 0.960 . S
H2141 C2127 0.961 . S
H2142 C2127 0.961 . S
H2143 C2127 0.961 . S
H2144 C2128 0.931 . S
H2145 C2133 0.930 . S
H2146 C2134 0.956 . S
H2147 C2134 0.961 . S
H2148 C2134 0.961 . S
H2149 C2135 0.958 . S
H2150 C2135 0.961 . S
H2151 C2135 0.960 . S
C2152 C2153 1.391 . S
C2152 C2154 1.394 . S
C2152 H2168 0.931 . S
C2153 C2152 1.391 . S
C2153 C2157 1.376 . S
C2154 C2152 1.394 . S
C2154 C2155 1.369 . S
C2154 C2158 1.531 . S
C2155 C2154 1.369 . S
C2155 C2156 1.410 . S
C2155 C2163 1.503 . S
C2156 C2155 1.410 . S
C2156 C2157 1.392 . S
C2156 C2159 1.511 . S
C2157 C2153 1.376 . S
C2157 C2156 1.392 . S
C2157 H2169 0.929 . S
C2158 C2154 1.531 . S
C2158 H2170 0.960 . S
C2158 H2171 0.962 . S
C2158 H2172 0.960 . S
C2159 C2156 1.511 . S
C2159 H2173 0.961 . S
C2159 H2174 0.961 . S
C2159 H2175 0.961 . S
C2160 C2161 1.370 . S
C2160 C2162 1.363 . S
C2160 H2176 0.931 . S
C2161 C2160 1.370 . S
C2161 C2165 1.408 . S
C2162 C2160 1.363 . S
C2162 C2163 1.370 . S
C2162 C2166 1.524 . S
C2163 C2155 1.503 . S
C2163 C2162 1.370 . S
C2163 C2164 1.403 . S
C2164 C2163 1.403 . S
C2164 C2165 1.404 . S
C2164 C2167 1.539 . S
C2165 C2161 1.408 . S
C2165 C2164 1.404 . S
C2165 H2177 0.930 . S
C2166 C2162 1.524 . S
C2166 H2178 0.956 . S
C2166 H2179 0.961 . S
C2166 H2180 0.961 . S
C2167 C2164 1.539 . S
C2167 H2181 0.958 . S
C2167 H2182 0.961 . S
C2167 H2183 0.960 . S
H2168 C2152 0.931 . S
H2169 C2157 0.929 . S
H2170 C2158 0.960 . S
H2171 C2158 0.962 . S
H2172 C2158 0.960 . S
H2173 C2159 0.961 . S
H2174 C2159 0.961 . S
H2175 C2159 0.961 . S
H2176 C2160 0.931 . S
H2177 C2165 0.930 . S
H2178 C2166 0.956 . S
H2179 C2166 0.961 . S
H2180 C2166 0.961 . S
H2181 C2167 0.958 . S
H2182 C2167 0.961 . S
H2183 C2167 0.960 . S
C2184 C2185 1.391 . S
C2184 C2186 1.394 . S
C2184 H2200 0.931 . S
C2185 C2184 1.391 . S
C2185 C2189 1.376 . S
C2186 C2184 1.394 . S
C2186 C2187 1.369 . S
C2186 C2190 1.531 . S
C2187 C2186 1.369 . S
C2187 C2188 1.410 . S
C2187 C2195 1.503 . S
C2188 C2187 1.410 . S
C2188 C2189 1.392 . S
C2188 C2191 1.511 . S
C2189 C2185 1.376 . S
C2189 C2188 1.392 . S
C2189 H2201 0.929 . S
C2190 C2186 1.531 . S
C2190 H2202 0.960 . S
C2190 H2203 0.962 . S
C2190 H2204 0.960 . S
C2191 C2188 1.511 . S
C2191 H2205 0.961 . S
C2191 H2206 0.961 . S
C2191 H2207 0.961 . S
C2192 C2193 1.370 . S
C2192 C2194 1.363 . S
C2192 H2208 0.931 . S
C2193 C2192 1.370 . S
C2193 C2197 1.408 . S
C2194 C2192 1.363 . S
C2194 C2195 1.370 . S
C2194 C2198 1.524 . S
C2195 C2187 1.503 . S
C2195 C2194 1.370 . S
C2195 C2196 1.403 . S
C2196 C2195 1.403 . S
C2196 C2197 1.404 . S
C2196 C2199 1.539 . S
C2197 C2193 1.408 . S
C2197 C2196 1.404 . S
C2197 H2209 0.930 . S
C2198 C2194 1.524 . S
C2198 H2210 0.956 . S
C2198 H2211 0.961 . S
C2198 H2212 0.961 . S
C2199 C2196 1.539 . S
C2199 H2213 0.958 . S
C2199 H2214 0.961 . S
C2199 H2215 0.960 . S
H2200 C2184 0.931 . S
H2201 C2189 0.929 . S
H2202 C2190 0.960 . S
H2203 C2190 0.962 . S
H2204 C2190 0.960 . S
H2205 C2191 0.961 . S
H2206 C2191 0.961 . S
H2207 C2191 0.961 . S
H2208 C2192 0.931 . S
H2209 C2197 0.930 . S
H2210 C2198 0.956 . S
H2211 C2198 0.961 . S
H2212 C2198 0.961 . S
H2213 C2199 0.958 . S
H2214 C2199 0.961 . S
H2215 C2199 0.960 . S
C2216 C2217 1.391 . S
C2216 C2218 1.394 . S
C2216 H2232 0.931 . S
C2217 C2216 1.391 . S
C2217 C2221 1.376 . S
C2218 C2216 1.394 . S
C2218 C2219 1.369 . S
C2218 C2222 1.531 . S
C2219 C2218 1.369 . S
C2219 C2220 1.410 . S
C2219 C2227 1.503 . S
C2220 C2219 1.410 . S
C2220 C2221 1.392 . S
C2220 C2223 1.511 . S
C2221 C2217 1.376 . S
C2221 C2220 1.392 . S
C2221 H2233 0.929 . S
C2222 C2218 1.531 . S
C2222 H2234 0.960 . S
C2222 H2235 0.962 . S
C2222 H2236 0.960 . S
C2223 C2220 1.511 . S
C2223 H2237 0.961 . S
C2223 H2238 0.961 . S
C2223 H2239 0.961 . S
C2224 C2225 1.370 . S
C2224 C2226 1.363 . S
C2224 H2240 0.931 . S
C2225 C2224 1.370 . S
C2225 C2229 1.408 . S
C2226 C2224 1.363 . S
C2226 C2227 1.370 . S
C2226 C2230 1.524 . S
C2227 C2219 1.503 . S
C2227 C2226 1.370 . S
C2227 C2228 1.403 . S
C2228 C2227 1.403 . S
C2228 C2229 1.404 . S
C2228 C2231 1.539 . S
C2229 C2225 1.408 . S
C2229 C2228 1.404 . S
C2229 H2241 0.930 . S
C2230 C2226 1.524 . S
C2230 H2242 0.956 . S
C2230 H2243 0.961 . S
C2230 H2244 0.961 . S
C2231 C2228 1.539 . S
C2231 H2245 0.958 . S
C2231 H2246 0.961 . S
C2231 H2247 0.960 . S
H2232 C2216 0.931 . S
H2233 C2221 0.929 . S
H2234 C2222 0.960 . S
H2235 C2222 0.962 . S
H2236 C2222 0.960 . S
H2237 C2223 0.961 . S
H2238 C2223 0.961 . S
H2239 C2223 0.961 . S
H2240 C2224 0.931 . S
H2241 C2229 0.930 . S
H2242 C2230 0.956 . S
H2243 C2230 0.961 . S
H2244 C2230 0.961 . S
H2245 C2231 0.958 . S
H2246 C2231 0.961 . S
H2247 C2231 0.960 . S
C2248 C2249 1.391 . S
C2248 C2250 1.394 . S
C2248 H2264 0.931 . S
C2249 C2248 1.391 . S
C2249 C2253 1.376 . S
C2250 C2248 1.394 . S
C2250 C2251 1.369 . S
C2250 C2254 1.531 . S
C2251 C2250 1.369 . S
C2251 C2252 1.410 . S
C2251 C2259 1.503 . S
C2252 C2251 1.410 . S
C2252 C2253 1.392 . S
C2252 C2255 1.511 . S
C2253 C2249 1.376 . S
C2253 C2252 1.392 . S
C2253 H2265 0.929 . S
C2254 C2250 1.531 . S
C2254 H2266 0.960 . S
C2254 H2267 0.962 . S
C2254 H2268 0.960 . S
C2255 C2252 1.511 . S
C2255 H2269 0.961 . S
C2255 H2270 0.961 . S
C2255 H2271 0.961 . S
C2256 C2257 1.370 . S
C2256 C2258 1.363 . S
C2256 H2272 0.931 . S
C2257 C2256 1.370 . S
C2257 C2261 1.408 . S
C2258 C2256 1.363 . S
C2258 C2259 1.370 . S
C2258 C2262 1.524 . S
C2259 C2251 1.503 . S
C2259 C2258 1.370 . S
C2259 C2260 1.403 . S
C2260 C2259 1.403 . S
C2260 C2261 1.404 . S
C2260 C2263 1.539 . S
C2261 C2257 1.408 . S
C2261 C2260 1.404 . S
C2261 H2273 0.930 . S
C2262 C2258 1.524 . S
C2262 H2274 0.956 . S
C2262 H2275 0.961 . S
C2262 H2276 0.961 . S
C2263 C2260 1.539 . S
C2263 H2277 0.958 . S
C2263 H2278 0.961 . S
C2263 H2279 0.960 . S
H2264 C2248 0.931 . S
H2265 C2253 0.929 . S
H2266 C2254 0.960 . S
H2267 C2254 0.962 . S
H2268 C2254 0.960 . S
H2269 C2255 0.961 . S
H2270 C2255 0.961 . S
H2271 C2255 0.961 . S
H2272 C2256 0.931 . S
H2273 C2261 0.930 . S
H2274 C2262 0.956 . S
H2275 C2262 0.961 . S
H2276 C2262 0.961 . S
H2277 C2263 0.958 . S
H2278 C2263 0.961 . S
H2279 C2263 0.960 . S
C2280 C2281 1.391 . S
C2280 C2282 1.394 . S
C2280 H2296 0.931 . S
C2281 C2280 1.391 . S
C2281 C2285 1.376 . S
C2282 C2280 1.394 . S
C2282 C2283 1.369 . S
C2282 C2286 1.531 1_556 S
C2283 C2282 1.369 . S
C2283 C2284 1.410 . S
C2283 C2291 1.503 1_556 S
C2284 C2283 1.410 . S
C2284 C2285 1.392 . S
C2284 C2287 1.511 . S
C2285 C2281 1.376 . S
C2285 C2284 1.392 . S
C2285 H2297 0.929 . S
C2286 C2282 1.531 1_554 S
C2286 H2298 0.960 . S
C2286 H2299 0.962 . S
C2286 H2300 0.960 . S
C2287 C2284 1.511 . S
C2287 H2301 0.961 . S
C2287 H2302 0.961 . S
C2287 H2303 0.961 . S
C2288 C2289 1.370 . S
C2288 C2290 1.363 . S
C2288 H2304 0.931 . S
C2289 C2288 1.370 . S
C2289 C2293 1.408 . S
C2290 C2288 1.363 . S
C2290 C2291 1.370 . S
C2290 C2294 1.524 . S
C2291 C2283 1.503 1_554 S
C2291 C2290 1.370 . S
C2291 C2292 1.403 . S
C2292 C2291 1.403 . S
C2292 C2293 1.404 . S
C2292 C2295 1.539 1_554 S
C2293 C2289 1.408 . S
C2293 C2292 1.404 . S
C2293 H2305 0.930 . S
C2294 C2290 1.524 . S
C2294 H2306 0.956 . S
C2294 H2307 0.961 . S
C2294 H2308 0.961 . S
C2295 C2292 1.539 1_556 S
C2295 H2309 0.958 . S
C2295 H2310 0.961 . S
C2295 H2311 0.960 . S
H2296 C2280 0.931 . S
H2297 C2285 0.929 . S
H2298 C2286 0.960 . S
H2299 C2286 0.962 . S
H2300 C2286 0.960 . S
H2301 C2287 0.961 . S
H2302 C2287 0.961 . S
H2303 C2287 0.961 . S
H2304 C2288 0.931 . S
H2305 C2293 0.930 . S
H2306 C2294 0.956 . S
H2307 C2294 0.961 . S
H2308 C2294 0.961 . S
H2309 C2295 0.958 . S
H2310 C2295 0.961 . S
H2311 C2295 0.960 . S
C2312 C2313 1.391 . S
C2312 C2314 1.394 . S
C2312 H2328 0.931 . S
C2313 C2312 1.391 . S
C2313 C2317 1.376 . S
C2314 C2312 1.394 . S
C2314 C2315 1.369 . S
C2314 C2318 1.531 . S
C2315 C2314 1.369 . S
C2315 C2316 1.410 . S
C2315 C2323 1.503 . S
C2316 C2315 1.410 . S
C2316 C2317 1.392 . S
C2316 C2319 1.511 . S
C2317 C2313 1.376 . S
C2317 C2316 1.392 . S
C2317 H2329 0.929 . S
C2318 C2314 1.531 . S
C2318 H2330 0.960 . S
C2318 H2331 0.962 . S
C2318 H2332 0.960 . S
C2319 C2316 1.511 . S
C2319 H2333 0.961 . S
C2319 H2334 0.961 . S
C2319 H2335 0.961 . S
C2320 C2321 1.370 . S
C2320 C2322 1.363 . S
C2320 H2336 0.931 . S
C2321 C2320 1.370 . S
C2321 C2325 1.408 . S
C2322 C2320 1.363 . S
C2322 C2323 1.370 1_554 S
C2322 C2326 1.524 1_554 S
C2323 C2315 1.503 . S
C2323 C2322 1.370 1_556 S
C2323 C2324 1.403 . S
C2324 C2323 1.403 . S
C2324 C2325 1.404 1_556 S
C2324 C2327 1.539 . S
C2325 C2321 1.408 . S
C2325 C2324 1.404 1_554 S
C2325 H2337 0.930 . S
C2326 C2322 1.524 1_556 S
C2326 H2338 0.956 . S
C2326 H2339 0.961 . S
C2326 H2340 0.961 1_556 S
C2327 C2324 1.539 . S
C2327 H2341 0.958 . S
C2327 H2342 0.961 . S
C2327 H2343 0.960 . S
H2328 C2312 0.931 . S
H2329 C2317 0.929 . S
H2330 C2318 0.960 . S
H2331 C2318 0.962 . S
H2332 C2318 0.960 . S
H2333 C2319 0.961 . S
H2334 C2319 0.961 . S
H2335 C2319 0.961 . S
H2336 C2320 0.931 . S
H2337 C2325 0.930 . S
H2338 C2326 0.956 . S
H2339 C2326 0.961 . S
H2340 C2326 0.961 1_554 S
H2341 C2327 0.958 . S
H2342 C2327 0.961 . S
H2343 C2327 0.960 . S
C2344 C2345 1.391 . S
C2344 C2346 1.394 . S
C2344 H2360 0.931 . S
C2345 C2344 1.391 . S
C2345 C2349 1.376 . S
C2346 C2344 1.394 . S
C2346 C2347 1.369 . S
C2346 C2350 1.531 1_556 S
C2347 C2346 1.369 . S
C2347 C2348 1.410 . S
C2347 C2355 1.503 1_556 S
C2348 C2347 1.410 . S
C2348 C2349 1.392 . S
C2348 C2351 1.511 . S
C2349 C2345 1.376 . S
C2349 C2348 1.392 . S
C2349 H2361 0.929 . S
C2350 C2346 1.531 1_554 S
C2350 H2362 0.960 . S
C2350 H2363 0.962 . S
C2350 H2364 0.960 . S
C2351 C2348 1.511 . S
C2351 H2365 0.961 . S
C2351 H2366 0.961 . S
C2351 H2367 0.961 . S
C2352 C2353 1.370 . S
C2352 C2354 1.363 . S
C2352 H2368 0.931 . S
C2353 C2352 1.370 . S
C2353 C2357 1.408 . S
C2354 C2352 1.363 . S
C2354 C2355 1.370 . S
C2354 C2358 1.524 . S
C2355 C2347 1.503 1_554 S
C2355 C2354 1.370 . S
C2355 C2356 1.403 . S
C2356 C2355 1.403 . S
C2356 C2357 1.404 . S
C2356 C2359 1.539 . S
C2357 C2353 1.408 . S
C2357 C2356 1.404 . S
C2357 H2369 0.930 . S
C2358 C2354 1.524 . S
C2358 H2370 0.956 . S
C2358 H2371 0.961 1_554 S
C2358 H2372 0.961 . S
C2359 C2356 1.539 . S
C2359 H2373 0.958 . S
C2359 H2374 0.961 . S
C2359 H2375 0.960 1_554 S
H2360 C2344 0.931 . S
H2361 C2349 0.929 . S
H2362 C2350 0.960 . S
H2363 C2350 0.962 . S
H2364 C2350 0.960 . S
H2365 C2351 0.961 . S
H2366 C2351 0.961 . S
H2367 C2351 0.961 . S
H2368 C2352 0.931 . S
H2369 C2357 0.930 . S
H2370 C2358 0.956 . S
H2371 C2358 0.961 1_556 S
H2372 C2358 0.961 . S
H2373 C2359 0.958 . S
H2374 C2359 0.961 . S
H2375 C2359 0.960 1_556 S
C2376 C2377 1.391 . S
C2376 C2378 1.394 . S
C2376 H2392 0.931 . S
C2377 C2376 1.391 . S
C2377 C2381 1.376 . S
C2378 C2376 1.394 . S
C2378 C2379 1.369 . S
C2378 C2382 1.531 . S
C2379 C2378 1.369 . S
C2379 C2380 1.410 . S
C2379 C2387 1.503 . S
C2380 C2379 1.410 . S
C2380 C2381 1.392 . S
C2380 C2383 1.511 . S
C2381 C2377 1.376 . S
C2381 C2380 1.392 . S
C2381 H2393 0.929 . S
C2382 C2378 1.531 . S
C2382 H2394 0.960 . S
C2382 H2395 0.962 . S
C2382 H2396 0.960 . S
C2383 C2380 1.511 . S
C2383 H2397 0.961 . S
C2383 H2398 0.961 . S
C2383 H2399 0.961 . S
C2384 C2385 1.370 . S
C2384 C2386 1.363 . S
C2384 H2400 0.931 . S
C2385 C2384 1.370 . S
C2385 C2389 1.408 . S
C2386 C2384 1.363 . S
C2386 C2387 1.370 . S
C2386 C2390 1.524 . S
C2387 C2379 1.503 . S
C2387 C2386 1.370 . S
C2387 C2388 1.403 . S
C2388 C2387 1.403 . S
C2388 C2389 1.404 . S
C2388 C2391 1.539 . S
C2389 C2385 1.408 . S
C2389 C2388 1.404 . S
C2389 H2401 0.930 . S
C2390 C2386 1.524 . S
C2390 H2402 0.956 . S
C2390 H2403 0.961 . S
C2390 H2404 0.961 . S
C2391 C2388 1.539 . S
C2391 H2405 0.958 . S
C2391 H2406 0.961 . S
C2391 H2407 0.960 . S
H2392 C2376 0.931 . S
H2393 C2381 0.929 . S
H2394 C2382 0.960 . S
H2395 C2382 0.962 . S
H2396 C2382 0.960 . S
H2397 C2383 0.961 . S
H2398 C2383 0.961 . S
H2399 C2383 0.961 . S
H2400 C2384 0.931 . S
H2401 C2389 0.930 . S
H2402 C2390 0.956 . S
H2403 C2390 0.961 . S
H2404 C2390 0.961 . S
H2405 C2391 0.958 . S
H2406 C2391 0.961 . S
H2407 C2391 0.960 . S
C2408 C2409 1.391 . S
C2408 C2410 1.394 . S
C2408 H2424 0.931 . S
C2409 C2408 1.391 . S
C2409 C2413 1.376 . S
C2410 C2408 1.394 . S
C2410 C2411 1.369 . S
C2410 C2414 1.531 . S
C2411 C2410 1.369 . S
C2411 C2412 1.410 . S
C2411 C2419 1.503 . S
C2412 C2411 1.410 . S
C2412 C2413 1.392 . S
C2412 C2415 1.511 . S
C2413 C2409 1.376 . S
C2413 C2412 1.392 . S
C2413 H2425 0.929 . S
C2414 C2410 1.531 . S
C2414 H2426 0.960 . S
C2414 H2427 0.962 . S
C2414 H2428 0.960 . S
C2415 C2412 1.511 . S
C2415 H2429 0.961 . S
C2415 H2430 0.961 . S
C2415 H2431 0.961 . S
C2416 C2417 1.370 . S
C2416 C2418 1.363 . S
C2416 H2432 0.931 . S
C2417 C2416 1.370 . S
C2417 C2421 1.408 . S
C2418 C2416 1.363 . S
C2418 C2419 1.370 . S
C2418 C2422 1.524 . S
C2419 C2411 1.503 . S
C2419 C2418 1.370 . S
C2419 C2420 1.403 . S
C2420 C2419 1.403 . S
C2420 C2421 1.404 . S
C2420 C2423 1.539 . S
C2421 C2417 1.408 . S
C2421 C2420 1.404 . S
C2421 H2433 0.930 . S
C2422 C2418 1.524 . S
C2422 H2434 0.956 . S
C2422 H2435 0.961 . S
C2422 H2436 0.961 . S
C2423 C2420 1.539 . S
C2423 H2437 0.958 . S
C2423 H2438 0.961 . S
C2423 H2439 0.960 . S
H2424 C2408 0.931 . S
H2425 C2413 0.929 . S
H2426 C2414 0.960 . S
H2427 C2414 0.962 . S
H2428 C2414 0.960 . S
H2429 C2415 0.961 . S
H2430 C2415 0.961 . S
H2431 C2415 0.961 . S
H2432 C2416 0.931 . S
H2433 C2421 0.930 . S
H2434 C2422 0.956 . S
H2435 C2422 0.961 . S
H2436 C2422 0.961 . S
H2437 C2423 0.958 . S
H2438 C2423 0.961 . S
H2439 C2423 0.960 . S
C2440 C2441 1.391 . S
C2440 C2442 1.394 . S
C2440 H2456 0.931 . S
C2441 C2440 1.391 . S
C2441 C2445 1.376 . S
C2442 C2440 1.394 . S
C2442 C2443 1.369 . S
C2442 C2446 1.531 . S
C2443 C2442 1.369 . S
C2443 C2444 1.410 . S
C2443 C2451 1.503 . S
C2444 C2443 1.410 . S
C2444 C2445 1.392 . S
C2444 C2447 1.511 . S
C2445 C2441 1.376 . S
C2445 C2444 1.392 . S
C2445 H2457 0.929 . S
C2446 C2442 1.531 . S
C2446 H2458 0.960 . S
C2446 H2459 0.962 . S
C2446 H2460 0.960 . S
C2447 C2444 1.511 . S
C2447 H2461 0.961 . S
C2447 H2462 0.961 . S
C2447 H2463 0.961 . S
C2448 C2449 1.370 . S
C2448 C2450 1.363 . S
C2448 H2464 0.931 . S
C2449 C2448 1.370 . S
C2449 C2453 1.408 . S
C2450 C2448 1.363 . S
C2450 C2451 1.370 . S
C2450 C2454 1.524 . S
C2451 C2443 1.503 . S
C2451 C2450 1.370 . S
C2451 C2452 1.403 . S
C2452 C2451 1.403 . S
C2452 C2453 1.404 . S
C2452 C2455 1.539 . S
C2453 C2449 1.408 . S
C2453 C2452 1.404 . S
C2453 H2465 0.930 . S
C2454 C2450 1.524 . S
C2454 H2466 0.956 . S
C2454 H2467 0.961 . S
C2454 H2468 0.961 . S
C2455 C2452 1.539 . S
C2455 H2469 0.958 . S
C2455 H2470 0.961 . S
C2455 H2471 0.960 . S
H2456 C2440 0.931 . S
H2457 C2445 0.929 . S
H2458 C2446 0.960 . S
H2459 C2446 0.962 . S
H2460 C2446 0.960 . S
H2461 C2447 0.961 . S
H2462 C2447 0.961 . S
H2463 C2447 0.961 . S
H2464 C2448 0.931 . S
H2465 C2453 0.930 . S
H2466 C2454 0.956 . S
H2467 C2454 0.961 . S
H2468 C2454 0.961 . S
H2469 C2455 0.958 . S
H2470 C2455 0.961 . S
H2471 C2455 0.960 . S
C2472 C2473 1.391 . S
C2472 C2474 1.394 . S
C2472 H2488 0.931 . S
C2473 C2472 1.391 . S
C2473 C2477 1.376 . S
C2474 C2472 1.394 . S
C2474 C2475 1.369 . S
C2474 C2478 1.531 . S
C2475 C2474 1.369 . S
C2475 C2476 1.410 . S
C2475 C2483 1.503 . S
C2476 C2475 1.410 . S
C2476 C2477 1.392 . S
C2476 C2479 1.511 . S
C2477 C2473 1.376 . S
C2477 C2476 1.392 . S
C2477 H2489 0.929 . S
C2478 C2474 1.531 . S
C2478 H2490 0.960 . S
C2478 H2491 0.962 . S
C2478 H2492 0.960 . S
C2479 C2476 1.511 . S
C2479 H2493 0.961 . S
C2479 H2494 0.961 . S
C2479 H2495 0.961 . S
C2480 C2481 1.370 . S
C2480 C2482 1.363 . S
C2480 H2496 0.931 . S
C2481 C2480 1.370 . S
C2481 C2485 1.408 . S
C2482 C2480 1.363 . S
C2482 C2483 1.370 . S
C2482 C2486 1.524 . S
C2483 C2475 1.503 . S
C2483 C2482 1.370 . S
C2483 C2484 1.403 . S
C2484 C2483 1.403 . S
C2484 C2485 1.404 . S
C2484 C2487 1.539 . S
C2485 C2481 1.408 . S
C2485 C2484 1.404 . S
C2485 H2497 0.930 . S
C2486 C2482 1.524 . S
C2486 H2498 0.956 . S
C2486 H2499 0.961 . S
C2486 H2500 0.961 . S
C2487 C2484 1.539 . S
C2487 H2501 0.958 . S
C2487 H2502 0.961 . S
C2487 H2503 0.960 . S
H2488 C2472 0.931 . S
H2489 C2477 0.929 . S
H2490 C2478 0.960 . S
H2491 C2478 0.962 . S
H2492 C2478 0.960 . S
H2493 C2479 0.961 . S
H2494 C2479 0.961 . S
H2495 C2479 0.961 . S
H2496 C2480 0.931 . S
H2497 C2485 0.930 . S
H2498 C2486 0.956 . S
H2499 C2486 0.961 . S
H2500 C2486 0.961 . S
H2501 C2487 0.958 . S
H2502 C2487 0.961 . S
H2503 C2487 0.960 . S
C2504 C2505 1.391 . S
C2504 C2506 1.394 . S
C2504 H2520 0.931 . S
C2505 C2504 1.391 . S
C2505 C2509 1.376 . S
C2506 C2504 1.394 . S
C2506 C2507 1.369 . S
C2506 C2510 1.531 . S
C2507 C2506 1.369 . S
C2507 C2508 1.410 . S
C2507 C2515 1.503 . S
C2508 C2507 1.410 . S
C2508 C2509 1.392 . S
C2508 C2511 1.511 . S
C2509 C2505 1.376 . S
C2509 C2508 1.392 . S
C2509 H2521 0.929 . S
C2510 C2506 1.531 . S
C2510 H2522 0.960 . S
C2510 H2523 0.962 . S
C2510 H2524 0.960 . S
C2511 C2508 1.511 . S
C2511 H2525 0.961 . S
C2511 H2526 0.961 . S
C2511 H2527 0.961 . S
C2512 C2513 1.370 . S
C2512 C2514 1.363 . S
C2512 H2528 0.931 . S
C2513 C2512 1.370 . S
C2513 C2517 1.408 . S
C2514 C2512 1.363 . S
C2514 C2515 1.370 . S
C2514 C2518 1.524 . S
C2515 C2507 1.503 . S
C2515 C2514 1.370 . S
C2515 C2516 1.403 . S
C2516 C2515 1.403 . S
C2516 C2517 1.404 . S
C2516 C2519 1.539 . S
C2517 C2513 1.408 . S
C2517 C2516 1.404 . S
C2517 H2529 0.930 . S
C2518 C2514 1.524 . S
C2518 H2530 0.956 . S
C2518 H2531 0.961 . S
C2518 H2532 0.961 . S
C2519 C2516 1.539 . S
C2519 H2533 0.958 . S
C2519 H2534 0.961 . S
C2519 H2535 0.960 . S
H2520 C2504 0.931 . S
H2521 C2509 0.929 . S
H2522 C2510 0.960 . S
H2523 C2510 0.962 . S
H2524 C2510 0.960 . S
H2525 C2511 0.961 . S
H2526 C2511 0.961 . S
H2527 C2511 0.961 . S
H2528 C2512 0.931 . S
H2529 C2517 0.930 . S
H2530 C2518 0.956 . S
H2531 C2518 0.961 . S
H2532 C2518 0.961 . S
H2533 C2519 0.958 . S
H2534 C2519 0.961 . S
H2535 C2519 0.960 . S
C2536 C2537 1.391 . S
C2536 C2538 1.394 . S
C2536 H2552 0.931 . S
C2537 C2536 1.391 . S
C2537 C2541 1.376 . S
C2538 C2536 1.394 . S
C2538 C2539 1.369 . S
C2538 C2542 1.531 . S
C2539 C2538 1.369 . S
C2539 C2540 1.410 . S
C2539 C2547 1.503 . S
C2540 C2539 1.410 . S
C2540 C2541 1.392 . S
C2540 C2543 1.511 . S
C2541 C2537 1.376 . S
C2541 C2540 1.392 . S
C2541 H2553 0.929 . S
C2542 C2538 1.531 . S
C2542 H2554 0.960 . S
C2542 H2555 0.962 . S
C2542 H2556 0.960 . S
C2543 C2540 1.511 . S
C2543 H2557 0.961 . S
C2543 H2558 0.961 . S
C2543 H2559 0.961 . S
C2544 C2545 1.370 . S
C2544 C2546 1.363 . S
C2544 H2560 0.931 . S
C2545 C2544 1.370 . S
C2545 C2549 1.408 . S
C2546 C2544 1.363 . S
C2546 C2547 1.370 . S
C2546 C2550 1.524 . S
C2547 C2539 1.503 . S
C2547 C2546 1.370 . S
C2547 C2548 1.403 . S
C2548 C2547 1.403 . S
C2548 C2549 1.404 . S
C2548 C2551 1.539 . S
C2549 C2545 1.408 . S
C2549 C2548 1.404 . S
C2549 H2561 0.930 . S
C2550 C2546 1.524 . S
C2550 H2562 0.956 . S
C2550 H2563 0.961 . S
C2550 H2564 0.961 . S
C2551 C2548 1.539 . S
C2551 H2565 0.958 . S
C2551 H2566 0.961 . S
C2551 H2567 0.960 . S
H2552 C2536 0.931 . S
H2553 C2541 0.929 . S
H2554 C2542 0.960 . S
H2555 C2542 0.962 . S
H2556 C2542 0.960 . S
H2557 C2543 0.961 . S
H2558 C2543 0.961 . S
H2559 C2543 0.961 . S
H2560 C2544 0.931 . S
H2561 C2549 0.930 . S
H2562 C2550 0.956 . S
H2563 C2550 0.961 . S
H2564 C2550 0.961 . S
H2565 C2551 0.958 . S
H2566 C2551 0.961 . S
H2567 C2551 0.960 . S
C2568 C2569 1.391 . S
C2568 C2570 1.394 . S
C2568 H2584 0.931 . S
C2569 C2568 1.391 . S
C2569 C2573 1.376 . S
C2570 C2568 1.394 . S
C2570 C2571 1.369 . S
C2570 C2574 1.531 . S
C2571 C2570 1.369 . S
C2571 C2572 1.410 . S
C2571 C2579 1.503 . S
C2572 C2571 1.410 . S
C2572 C2573 1.392 . S
C2572 C2575 1.511 . S
C2573 C2569 1.376 . S
C2573 C2572 1.392 . S
C2573 H2585 0.929 . S
C2574 C2570 1.531 . S
C2574 H2586 0.960 . S
C2574 H2587 0.962 . S
C2574 H2588 0.960 . S
C2575 C2572 1.511 . S
C2575 H2589 0.961 . S
C2575 H2590 0.961 . S
C2575 H2591 0.961 . S
C2576 C2577 1.370 . S
C2576 C2578 1.363 . S
C2576 H2592 0.931 . S
C2577 C2576 1.370 . S
C2577 C2581 1.408 . S
C2578 C2576 1.363 . S
C2578 C2579 1.370 . S
C2578 C2582 1.524 . S
C2579 C2571 1.503 . S
C2579 C2578 1.370 . S
C2579 C2580 1.403 . S
C2580 C2579 1.403 . S
C2580 C2581 1.404 . S
C2580 C2583 1.539 . S
C2581 C2577 1.408 . S
C2581 C2580 1.404 . S
C2581 H2593 0.930 . S
C2582 C2578 1.524 . S
C2582 H2594 0.956 . S
C2582 H2595 0.961 . S
C2582 H2596 0.961 . S
C2583 C2580 1.539 . S
C2583 H2597 0.958 . S
C2583 H2598 0.961 . S
C2583 H2599 0.960 . S
H2584 C2568 0.931 . S
H2585 C2573 0.929 . S
H2586 C2574 0.960 . S
H2587 C2574 0.962 . S
H2588 C2574 0.960 . S
H2589 C2575 0.961 . S
H2590 C2575 0.961 . S
H2591 C2575 0.961 . S
H2592 C2576 0.931 . S
H2593 C2581 0.930 . S
H2594 C2582 0.956 . S
H2595 C2582 0.961 . S
H2596 C2582 0.961 . S
H2597 C2583 0.958 . S
H2598 C2583 0.961 . S
H2599 C2583 0.960 . S
C2600 C2601 1.391 . S
C2600 C2602 1.394 . S
C2600 H2616 0.931 . S
C2601 C2600 1.391 . S
C2601 C2605 1.376 . S
C2602 C2600 1.394 . S
C2602 C2603 1.369 . S
C2602 C2606 1.531 . S
C2603 C2602 1.369 . S
C2603 C2604 1.410 . S
C2603 C2611 1.503 . S
C2604 C2603 1.410 . S
C2604 C2605 1.392 . S
C2604 C2607 1.511 . S
C2605 C2601 1.376 . S
C2605 C2604 1.392 . S
C2605 H2617 0.929 . S
C2606 C2602 1.531 . S
C2606 H2618 0.960 . S
C2606 H2619 0.962 . S
C2606 H2620 0.960 . S
C2607 C2604 1.511 . S
C2607 H2621 0.961 . S
C2607 H2622 0.961 . S
C2607 H2623 0.961 . S
C2608 C2609 1.370 . S
C2608 C2610 1.363 . S
C2608 H2624 0.931 . S
C2609 C2608 1.370 . S
C2609 C2613 1.408 . S
C2610 C2608 1.363 . S
C2610 C2611 1.370 . S
C2610 C2614 1.524 . S
C2611 C2603 1.503 . S
C2611 C2610 1.370 . S
C2611 C2612 1.403 . S
C2612 C2611 1.403 . S
C2612 C2613 1.404 . S
C2612 C2615 1.539 . S
C2613 C2609 1.408 . S
C2613 C2612 1.404 . S
C2613 H2625 0.930 . S
C2614 C2610 1.524 . S
C2614 H2626 0.956 . S
C2614 H2627 0.961 . S
C2614 H2628 0.961 . S
C2615 C2612 1.539 . S
C2615 H2629 0.958 . S
C2615 H2630 0.961 . S
C2615 H2631 0.960 . S
H2616 C2600 0.931 . S
H2617 C2605 0.929 . S
H2618 C2606 0.960 . S
H2619 C2606 0.962 . S
H2620 C2606 0.960 . S
H2621 C2607 0.961 . S
H2622 C2607 0.961 . S
H2623 C2607 0.961 . S
H2624 C2608 0.931 . S
H2625 C2613 0.930 . S
H2626 C2614 0.956 . S
H2627 C2614 0.961 . S
H2628 C2614 0.961 . S
H2629 C2615 0.958 . S
H2630 C2615 0.961 . S
H2631 C2615 0.960 . S
C2632 C2633 1.391 . S
C2632 C2634 1.394 . S
C2632 H2648 0.931 . S
C2633 C2632 1.391 . S
C2633 C2637 1.376 . S
C2634 C2632 1.394 . S
C2634 C2635 1.369 . S
C2634 C2638 1.531 . S
C2635 C2634 1.369 . S
C2635 C2636 1.410 . S
C2635 C2643 1.503 . S
C2636 C2635 1.410 . S
C2636 C2637 1.392 . S
C2636 C2639 1.511 . S
C2637 C2633 1.376 . S
C2637 C2636 1.392 . S
C2637 H2649 0.929 . S
C2638 C2634 1.531 . S
C2638 H2650 0.960 . S
C2638 H2651 0.962 . S
C2638 H2652 0.960 . S
C2639 C2636 1.511 . S
C2639 H2653 0.961 . S
C2639 H2654 0.961 . S
C2639 H2655 0.961 . S
C2640 C2641 1.370 . S
C2640 C2642 1.363 . S
C2640 H2656 0.931 . S
C2641 C2640 1.370 . S
C2641 C2645 1.408 . S
C2642 C2640 1.363 . S
C2642 C2643 1.370 . S
C2642 C2646 1.524 . S
C2643 C2635 1.503 . S
C2643 C2642 1.370 . S
C2643 C2644 1.403 . S
C2644 C2643 1.403 . S
C2644 C2645 1.404 . S
C2644 C2647 1.539 . S
C2645 C2641 1.408 . S
C2645 C2644 1.404 . S
C2645 H2657 0.930 . S
C2646 C2642 1.524 . S
C2646 H2658 0.956 . S
C2646 H2659 0.961 . S
C2646 H2660 0.961 . S
C2647 C2644 1.539 . S
C2647 H2661 0.958 . S
C2647 H2662 0.961 . S
C2647 H2663 0.960 . S
H2648 C2632 0.931 . S
H2649 C2637 0.929 . S
H2650 C2638 0.960 . S
H2651 C2638 0.962 . S
H2652 C2638 0.960 . S
H2653 C2639 0.961 . S
H2654 C2639 0.961 . S
H2655 C2639 0.961 . S
H2656 C2640 0.931 . S
H2657 C2645 0.930 . S
H2658 C2646 0.956 . S
H2659 C2646 0.961 . S
H2660 C2646 0.961 . S
H2661 C2647 0.958 . S
H2662 C2647 0.961 . S
H2663 C2647 0.960 . S
C2664 C2665 1.391 . S
C2664 C2666 1.394 . S
C2664 H2680 0.931 . S
C2665 C2664 1.391 . S
C2665 C2669 1.376 . S
C2666 C2664 1.394 . S
C2666 C2667 1.369 . S
C2666 C2670 1.531 . S
C2667 C2666 1.369 . S
C2667 C2668 1.410 . S
C2667 C2675 1.503 . S
C2668 C2667 1.410 . S
C2668 C2669 1.392 . S
C2668 C2671 1.511 . S
C2669 C2665 1.376 . S
C2669 C2668 1.392 . S
C2669 H2681 0.929 . S
C2670 C2666 1.531 . S
C2670 H2682 0.960 . S
C2670 H2683 0.962 . S
C2670 H2684 0.960 . S
C2671 C2668 1.511 . S
C2671 H2685 0.961 . S
C2671 H2686 0.961 . S
C2671 H2687 0.961 . S
C2672 C2673 1.370 . S
C2672 C2674 1.363 . S
C2672 H2688 0.931 . S
C2673 C2672 1.370 . S
C2673 C2677 1.408 . S
C2674 C2672 1.363 . S
C2674 C2675 1.370 . S
C2674 C2678 1.524 . S
C2675 C2667 1.503 . S
C2675 C2674 1.370 . S
C2675 C2676 1.403 . S
C2676 C2675 1.403 . S
C2676 C2677 1.404 . S
C2676 C2679 1.539 . S
C2677 C2673 1.408 . S
C2677 C2676 1.404 . S
C2677 H2689 0.930 . S
C2678 C2674 1.524 . S
C2678 H2690 0.956 . S
C2678 H2691 0.961 . S
C2678 H2692 0.961 . S
C2679 C2676 1.539 . S
C2679 H2693 0.958 . S
C2679 H2694 0.961 . S
C2679 H2695 0.960 . S
H2680 C2664 0.931 . S
H2681 C2669 0.929 . S
H2682 C2670 0.960 . S
H2683 C2670 0.962 . S
H2684 C2670 0.960 . S
H2685 C2671 0.961 . S
H2686 C2671 0.961 . S
H2687 C2671 0.961 . S
H2688 C2672 0.931 . S
H2689 C2677 0.930 . S
H2690 C2678 0.956 . S
H2691 C2678 0.961 . S
H2692 C2678 0.961 . S
H2693 C2679 0.958 . S
H2694 C2679 0.961 . S
H2695 C2679 0.960 . S
C2696 C2697 1.391 . S
C2696 C2698 1.394 . S
C2696 H2712 0.931 . S
C2697 C2696 1.391 . S
C2697 C2701 1.376 . S
C2698 C2696 1.394 . S
C2698 C2699 1.369 . S
C2698 C2702 1.531 . S
C2699 C2698 1.369 . S
C2699 C2700 1.410 . S
C2699 C2707 1.503 . S
C2700 C2699 1.410 . S
C2700 C2701 1.392 . S
C2700 C2703 1.511 . S
C2701 C2697 1.376 . S
C2701 C2700 1.392 . S
C2701 H2713 0.929 . S
C2702 C2698 1.531 . S
C2702 H2714 0.960 . S
C2702 H2715 0.962 . S
C2702 H2716 0.960 . S
C2703 C2700 1.511 . S
C2703 H2717 0.961 . S
C2703 H2718 0.961 . S
C2703 H2719 0.961 . S
C2704 C2705 1.370 . S
C2704 C2706 1.363 . S
C2704 H2720 0.931 . S
C2705 C2704 1.370 . S
C2705 C2709 1.408 . S
C2706 C2704 1.363 . S
C2706 C2707 1.370 . S
C2706 C2710 1.524 . S
C2707 C2699 1.503 . S
C2707 C2706 1.370 . S
C2707 C2708 1.403 . S
C2708 C2707 1.403 . S
C2708 C2709 1.404 . S
C2708 C2711 1.539 . S
C2709 C2705 1.408 . S
C2709 C2708 1.404 . S
C2709 H2721 0.930 . S
C2710 C2706 1.524 . S
C2710 H2722 0.956 . S
C2710 H2723 0.961 . S
C2710 H2724 0.961 . S
C2711 C2708 1.539 . S
C2711 H2725 0.958 . S
C2711 H2726 0.961 . S
C2711 H2727 0.960 . S
H2712 C2696 0.931 . S
H2713 C2701 0.929 . S
H2714 C2702 0.960 . S
H2715 C2702 0.962 . S
H2716 C2702 0.960 . S
H2717 C2703 0.961 . S
H2718 C2703 0.961 . S
H2719 C2703 0.961 . S
H2720 C2704 0.931 . S
H2721 C2709 0.930 . S
H2722 C2710 0.956 . S
H2723 C2710 0.961 . S
H2724 C2710 0.961 . S
H2725 C2711 0.958 . S
H2726 C2711 0.961 . S
H2727 C2711 0.960 . S
C2728 C2729 1.391 . S
C2728 C2730 1.394 . S
C2728 H2744 0.931 . S
C2729 C2728 1.391 . S
C2729 C2733 1.376 . S
C2730 C2728 1.394 . S
C2730 C2731 1.369 . S
C2730 C2734 1.531 . S
C2731 C2730 1.369 . S
C2731 C2732 1.410 . S
C2731 C2739 1.503 . S
C2732 C2731 1.410 . S
C2732 C2733 1.392 . S
C2732 C2735 1.511 . S
C2733 C2729 1.376 . S
C2733 C2732 1.392 . S
C2733 H2745 0.929 . S
C2734 C2730 1.531 . S
C2734 H2746 0.960 . S
C2734 H2747 0.962 . S
C2734 H2748 0.960 . S
C2735 C2732 1.511 . S
C2735 H2749 0.961 . S
C2735 H2750 0.961 . S
C2735 H2751 0.961 . S
C2736 C2737 1.370 . S
C2736 C2738 1.363 . S
C2736 H2752 0.931 . S
C2737 C2736 1.370 . S
C2737 C2741 1.408 . S
C2738 C2736 1.363 . S
C2738 C2739 1.370 . S
C2738 C2742 1.524 . S
C2739 C2731 1.503 . S
C2739 C2738 1.370 . S
C2739 C2740 1.403 . S
C2740 C2739 1.403 . S
C2740 C2741 1.404 . S
C2740 C2743 1.539 . S
C2741 C2737 1.408 . S
C2741 C2740 1.404 . S
C2741 H2753 0.930 . S
C2742 C2738 1.524 . S
C2742 H2754 0.956 . S
C2742 H2755 0.961 . S
C2742 H2756 0.961 . S
C2743 C2740 1.539 . S
C2743 H2757 0.958 . S
C2743 H2758 0.961 . S
C2743 H2759 0.960 . S
H2744 C2728 0.931 . S
H2745 C2733 0.929 . S
H2746 C2734 0.960 . S
H2747 C2734 0.962 . S
H2748 C2734 0.960 . S
H2749 C2735 0.961 . S
H2750 C2735 0.961 . S
H2751 C2735 0.961 . S
H2752 C2736 0.931 . S
H2753 C2741 0.930 . S
H2754 C2742 0.956 . S
H2755 C2742 0.961 . S
H2756 C2742 0.961 . S
H2757 C2743 0.958 . S
H2758 C2743 0.961 . S
H2759 C2743 0.960 . S
C2760 C2761 1.391 . S
C2760 C2762 1.394 . S
C2760 H2776 0.931 . S
C2761 C2760 1.391 . S
C2761 C2765 1.376 . S
C2762 C2760 1.394 . S
C2762 C2763 1.369 . S
C2762 C2766 1.531 . S
C2763 C2762 1.369 . S
C2763 C2764 1.410 . S
C2763 C2771 1.503 . S
C2764 C2763 1.410 . S
C2764 C2765 1.392 . S
C2764 C2767 1.511 . S
C2765 C2761 1.376 . S
C2765 C2764 1.392 . S
C2765 H2777 0.929 . S
C2766 C2762 1.531 . S
C2766 H2778 0.960 . S
C2766 H2779 0.962 . S
C2766 H2780 0.960 . S
C2767 C2764 1.511 . S
C2767 H2781 0.961 . S
C2767 H2782 0.961 . S
C2767 H2783 0.961 . S
C2768 C2769 1.370 . S
C2768 C2770 1.363 . S
C2768 H2784 0.931 . S
C2769 C2768 1.370 . S
C2769 C2773 1.408 . S
C2770 C2768 1.363 . S
C2770 C2771 1.370 . S
C2770 C2774 1.524 . S
C2771 C2763 1.503 . S
C2771 C2770 1.370 . S
C2771 C2772 1.403 . S
C2772 C2771 1.403 . S
C2772 C2773 1.404 . S
C2772 C2775 1.539 . S
C2773 C2769 1.408 . S
C2773 C2772 1.404 . S
C2773 H2785 0.930 . S
C2774 C2770 1.524 . S
C2774 H2786 0.956 . S
C2774 H2787 0.961 . S
C2774 H2788 0.961 . S
C2775 C2772 1.539 . S
C2775 H2789 0.958 . S
C2775 H2790 0.961 . S
C2775 H2791 0.960 . S
H2776 C2760 0.931 . S
H2777 C2765 0.929 . S
H2778 C2766 0.960 . S
H2779 C2766 0.962 . S
H2780 C2766 0.960 . S
H2781 C2767 0.961 . S
H2782 C2767 0.961 . S
H2783 C2767 0.961 . S
H2784 C2768 0.931 . S
H2785 C2773 0.930 . S
H2786 C2774 0.956 . S
H2787 C2774 0.961 . S
H2788 C2774 0.961 . S
H2789 C2775 0.958 . S
H2790 C2775 0.961 . S
H2791 C2775 0.960 . S
C2792 C2793 1.391 . S
C2792 C2794 1.394 . S
C2792 H2808 0.931 . S
C2793 C2792 1.391 . S
C2793 C2797 1.376 . S
C2794 C2792 1.394 . S
C2794 C2795 1.369 . S
C2794 C2798 1.531 . S
C2795 C2794 1.369 . S
C2795 C2796 1.410 . S
C2795 C2803 1.503 . S
C2796 C2795 1.410 . S
C2796 C2797 1.392 . S
C2796 C2799 1.511 . S
C2797 C2793 1.376 . S
C2797 C2796 1.392 . S
C2797 H2809 0.929 . S
C2798 C2794 1.531 . S
C2798 H2810 0.960 . S
C2798 H2811 0.962 . S
C2798 H2812 0.960 . S
C2799 C2796 1.511 . S
C2799 H2813 0.961 . S
C2799 H2814 0.961 . S
C2799 H2815 0.961 . S
C2800 C2801 1.370 . S
C2800 C2802 1.363 . S
C2800 H2816 0.931 . S
C2801 C2800 1.370 . S
C2801 C2805 1.408 . S
C2802 C2800 1.363 . S
C2802 C2803 1.370 . S
C2802 C2806 1.524 . S
C2803 C2795 1.503 . S
C2803 C2802 1.370 . S
C2803 C2804 1.403 . S
C2804 C2803 1.403 . S
C2804 C2805 1.404 . S
C2804 C2807 1.539 . S
C2805 C2801 1.408 . S
C2805 C2804 1.404 . S
C2805 H2817 0.930 . S
C2806 C2802 1.524 . S
C2806 H2818 0.956 . S
C2806 H2819 0.961 . S
C2806 H2820 0.961 . S
C2807 C2804 1.539 . S
C2807 H2821 0.958 . S
C2807 H2822 0.961 . S
C2807 H2823 0.960 . S
H2808 C2792 0.931 . S
H2809 C2797 0.929 . S
H2810 C2798 0.960 . S
H2811 C2798 0.962 . S
H2812 C2798 0.960 . S
H2813 C2799 0.961 . S
H2814 C2799 0.961 . S
H2815 C2799 0.961 . S
H2816 C2800 0.931 . S
H2817 C2805 0.930 . S
H2818 C2806 0.956 . S
H2819 C2806 0.961 . S
H2820 C2806 0.961 . S
H2821 C2807 0.958 . S
H2822 C2807 0.961 . S
H2823 C2807 0.960 . S
C2824 C2825 1.391 . S
C2824 C2826 1.394 . S
C2824 H2840 0.931 . S
C2825 C2824 1.391 . S
C2825 C2829 1.376 . S
C2826 C2824 1.394 . S
C2826 C2827 1.369 . S
C2826 C2830 1.531 . S
C2827 C2826 1.369 . S
C2827 C2828 1.410 . S
C2827 C2835 1.503 . S
C2828 C2827 1.410 . S
C2828 C2829 1.392 . S
C2828 C2831 1.511 . S
C2829 C2825 1.376 . S
C2829 C2828 1.392 . S
C2829 H2841 0.929 . S
C2830 C2826 1.531 . S
C2830 H2842 0.960 . S
C2830 H2843 0.962 . S
C2830 H2844 0.960 . S
C2831 C2828 1.511 . S
C2831 H2845 0.961 . S
C2831 H2846 0.961 . S
C2831 H2847 0.961 . S
C2832 C2833 1.370 . S
C2832 C2834 1.363 . S
C2832 H2848 0.931 . S
C2833 C2832 1.370 . S
C2833 C2837 1.408 . S
C2834 C2832 1.363 . S
C2834 C2835 1.370 . S
C2834 C2838 1.524 . S
C2835 C2827 1.503 . S
C2835 C2834 1.370 . S
C2835 C2836 1.403 . S
C2836 C2835 1.403 . S
C2836 C2837 1.404 . S
C2836 C2839 1.539 . S
C2837 C2833 1.408 . S
C2837 C2836 1.404 . S
C2837 H2849 0.930 . S
C2838 C2834 1.524 . S
C2838 H2850 0.956 . S
C2838 H2851 0.961 . S
C2838 H2852 0.961 . S
C2839 C2836 1.539 . S
C2839 H2853 0.958 . S
C2839 H2854 0.961 . S
C2839 H2855 0.960 . S
H2840 C2824 0.931 . S
H2841 C2829 0.929 . S
H2842 C2830 0.960 . S
H2843 C2830 0.962 . S
H2844 C2830 0.960 . S
H2845 C2831 0.961 . S
H2846 C2831 0.961 . S
H2847 C2831 0.961 . S
H2848 C2832 0.931 . S
H2849 C2837 0.930 . S
H2850 C2838 0.956 . S
H2851 C2838 0.961 . S
H2852 C2838 0.961 . S
H2853 C2839 0.958 . S
H2854 C2839 0.961 . S
H2855 C2839 0.960 . S
C2856 C2857 1.391 . S
C2856 C2858 1.394 . S
C2856 H2872 0.931 . S
C2857 C2856 1.391 . S
C2857 C2861 1.376 . S
C2858 C2856 1.394 . S
C2858 C2859 1.369 . S
C2858 C2862 1.531 . S
C2859 C2858 1.369 . S
C2859 C2860 1.410 . S
C2859 C2867 1.503 . S
C2860 C2859 1.410 . S
C2860 C2861 1.392 . S
C2860 C2863 1.511 . S
C2861 C2857 1.376 . S
C2861 C2860 1.392 . S
C2861 H2873 0.929 . S
C2862 C2858 1.531 . S
C2862 H2874 0.960 . S
C2862 H2875 0.962 . S
C2862 H2876 0.960 . S
C2863 C2860 1.511 . S
C2863 H2877 0.961 . S
C2863 H2878 0.961 . S
C2863 H2879 0.961 . S
C2864 C2865 1.370 1_554 S
C2864 C2866 1.363 . S
C2864 H2880 0.931 . S
C2865 C2864 1.370 1_556 S
C2865 C2869 1.408 . S
C2866 C2864 1.363 . S
C2866 C2867 1.370 . S
C2866 C2870 1.524 . S
C2867 C2859 1.503 . S
C2867 C2866 1.370 . S
C2867 C2868 1.403 . S
C2868 C2867 1.403 . S
C2868 C2869 1.404 1_554 S
C2868 C2871 1.539 . S
C2869 C2865 1.408 . S
C2869 C2868 1.404 1_556 S
C2869 H2881 0.930 . S
C2870 C2866 1.524 . S
C2870 H2882 0.956 . S
C2870 H2883 0.961 . S
C2870 H2884 0.961 . S
C2871 C2868 1.539 . S
C2871 H2885 0.958 . S
C2871 H2886 0.961 1_554 S
C2871 H2887 0.960 . S
H2872 C2856 0.931 . S
H2873 C2861 0.929 . S
H2874 C2862 0.960 . S
H2875 C2862 0.962 . S
H2876 C2862 0.960 . S
H2877 C2863 0.961 . S
H2878 C2863 0.961 . S
H2879 C2863 0.961 . S
H2880 C2864 0.931 . S
H2881 C2869 0.930 . S
H2882 C2870 0.956 . S
H2883 C2870 0.961 . S
H2884 C2870 0.961 . S
H2885 C2871 0.958 . S
H2886 C2871 0.961 1_556 S
H2887 C2871 0.960 . S
C2888 C2889 1.391 . S
C2888 C2890 1.394 . S
C2888 H2904 0.931 . S
C2889 C2888 1.391 . S
C2889 C2893 1.376 . S
C2890 C2888 1.394 . S
C2890 C2891 1.369 . S
C2890 C2894 1.531 . S
C2891 C2890 1.369 . S
C2891 C2892 1.410 . S
C2891 C2899 1.503 . S
C2892 C2891 1.410 . S
C2892 C2893 1.392 . S
C2892 C2895 1.511 . S
C2893 C2889 1.376 . S
C2893 C2892 1.392 . S
C2893 H2905 0.929 . S
C2894 C2890 1.531 . S
C2894 H2906 0.960 . S
C2894 H2907 0.962 . S
C2894 H2908 0.960 . S
C2895 C2892 1.511 . S
C2895 H2909 0.961 . S
C2895 H2910 0.961 . S
C2895 H2911 0.961 . S
C2896 C2897 1.370 . S
C2896 C2898 1.363 . S
C2896 H2912 0.931 . S
C2897 C2896 1.370 . S
C2897 C2901 1.408 . S
C2898 C2896 1.363 . S
C2898 C2899 1.370 . S
C2898 C2902 1.524 . S
C2899 C2891 1.503 . S
C2899 C2898 1.370 . S
C2899 C2900 1.403 . S
C2900 C2899 1.403 . S
C2900 C2901 1.404 . S
C2900 C2903 1.539 . S
C2901 C2897 1.408 . S
C2901 C2900 1.404 . S
C2901 H2913 0.930 . S
C2902 C2898 1.524 . S
C2902 H2914 0.956 . S
C2902 H2915 0.961 . S
C2902 H2916 0.961 . S
C2903 C2900 1.539 . S
C2903 H2917 0.958 . S
C2903 H2918 0.961 . S
C2903 H2919 0.960 . S
H2904 C2888 0.931 . S
H2905 C2893 0.929 . S
H2906 C2894 0.960 . S
H2907 C2894 0.962 . S
H2908 C2894 0.960 . S
H2909 C2895 0.961 . S
H2910 C2895 0.961 . S
H2911 C2895 0.961 . S
H2912 C2896 0.931 . S
H2913 C2901 0.930 . S
H2914 C2902 0.956 . S
H2915 C2902 0.961 . S
H2916 C2902 0.961 . S
H2917 C2903 0.958 . S
H2918 C2903 0.961 . S
H2919 C2903 0.960 . S
C2920 C2921 1.391 . S
C2920 C2922 1.394 . S
C2920 H2936 0.931 . S
C2921 C2920 1.391 . S
C2921 C2925 1.376 . S
C2922 C2920 1.394 . S
C2922 C2923 1.369 . S
C2922 C2926 1.531 . S
C2923 C2922 1.369 . S
C2923 C2924 1.410 . S
C2923 C2931 1.503 . S
C2924 C2923 1.410 . S
C2924 C2925 1.392 . S
C2924 C2927 1.511 . S
C2925 C2921 1.376 . S
C2925 C2924 1.392 . S
C2925 H2937 0.929 . S
C2926 C2922 1.531 . S
C2926 H2938 0.960 . S
C2926 H2939 0.962 . S
C2926 H2940 0.960 . S
C2927 C2924 1.511 . S
C2927 H2941 0.961 . S
C2927 H2942 0.961 . S
C2927 H2943 0.961 . S
C2928 C2929 1.370 . S
C2928 C2930 1.363 1_556 S
C2928 H2944 0.931 . S
C2929 C2928 1.370 . S
C2929 C2933 1.408 1_556 S
C2930 C2928 1.363 1_554 S
C2930 C2931 1.370 . S
C2930 C2934 1.524 . S
C2931 C2923 1.503 . S
C2931 C2930 1.370 . S
C2931 C2932 1.403 . S
C2932 C2931 1.403 . S
C2932 C2933 1.404 . S
C2932 C2935 1.539 . S
C2933 C2929 1.408 1_554 S
C2933 C2932 1.404 . S
C2933 H2945 0.930 . S
C2934 C2930 1.524 . S
C2934 H2946 0.956 . S
C2934 H2947 0.961 . S
C2934 H2948 0.961 1_554 S
C2935 C2932 1.539 . S
C2935 H2949 0.958 . S
C2935 H2950 0.961 . S
C2935 H2951 0.960 . S
H2936 C2920 0.931 . S
H2937 C2925 0.929 . S
H2938 C2926 0.960 . S
H2939 C2926 0.962 . S
H2940 C2926 0.960 . S
H2941 C2927 0.961 . S
H2942 C2927 0.961 . S
H2943 C2927 0.961 . S
H2944 C2928 0.931 . S
H2945 C2933 0.930 . S
H2946 C2934 0.956 . S
H2947 C2934 0.961 . S
H2948 C2934 0.961 1_556 S
H2949 C2935 0.958 . S
H2950 C2935 0.961 . S
H2951 C2935 0.960 . S
C649 C7 1.541 . S
C657 C560 1.557 . S
C689 C534 1.851 . S
C681 C39 1.845 . S
C721 C547 1.681 . S
C713 C62 1.678 . S
C745 C76 1.850 . S
C753 C614 1.869 . S
C777 C108 1.491 . S
C785 C627 1.494 . S
C809 N117 1.384 . S
C817 C640 1.382 . S
C849 C600 1.441 . S
C841 C16 1.443 . S
C873 C30 1.773 . S
C881 C574 1.773 . S
C913 C588 1.481 . S
C905 C53 1.485 1_556 S
C937 C85 1.741 . S
C945 C497 1.743 . S
C977 C509 1.585 . S
C969 C99 1.564 . S
C1001 N127 1.249 . S
C1009 C523 1.302 . S
C1033 N150 1.209 . S
C1041 C638 1.235 . S
C1073 C612 1.642 . S
C1065 N173 1.589 . S
C1105 C625 1.475 . S
C1097 C200 1.471 . S
C1129 C214 1.661 . S
C1137 C458 1.677 . S
C1161 N232 1.512 . S
C1169 C471 1.551 . S
C1193 C260 1.536 . S
C1201 C484 1.538 1_565 S
C1233 C444 1.293 . S
C1225 N140 1.292 . S
C1257 N163 1.396 . S
C1265 C424 1.394 . S
C1297 C430 1.539 . S
C1289 C191 1.538 . S
C1329 C573 1.792 . S
C1321 C223 1.795 . S
C1361 C593 1.419 . S
C1353 N242 1.393 . S
C1393 C599 1.456 . S
C1385 C269 1.464 . S
C1417 N288 1.350 . S
C1425 C482 1.359 . S
C1449 C315 1.576 . S
C1457 C456 1.583 1_655 S
C1481 C338 1.760 . S
C1489 C469 1.761 . S
C1513 C352 1.910 . S
C1521 C536 1.917 . S
C1553 C549 1.575 . S
C1545 N370 1.545 . S
C1585 C562 1.591 . S
C1577 C398 1.589 . S
C1617 C528 1.206 . S
C1609 N278 1.194 . S
C1641 C306 1.659 . S
C1649 C502 1.665 . S
C1673 C329 1.566 . S
C1681 C508 1.585 . S
C1713 C419 1.501 . S
C1705 C361 1.495 . S
C1737 N380 1.452 . S
C1745 C431 1.466 . S
C1777 C443 1.399 . S
C1769 C407 1.395 . S
C1809 C463 1.449 . S
C1801 N12 1.415 . S
C1833 N25 1.534 . S
C1841 C476 1.557 . S
C1873 C489 1.335 . S
C1865 N48 1.300 . S
C1905 C483 1.407 . S
C1897 N81 1.396 . S
C1937 C457 1.623 . S
C1929 N94 1.536 . S
C1969 C470 1.659 . S
C1961 C131 1.659 . S
C2001 C417 1.368 . S
C1993 N2 1.282 . S
C2025 N35 1.418 . S
C2033 C437 1.470 . S
C2057 N58 1.216 . S
C2065 C445 1.230 . S
C2097 C450 1.361 . S
C2089 N71 1.323 . S
C2129 C418 1.449 . S
C2121 N104 1.425 . S
C2161 C432 1.638 . S
C2153 C122 1.631 . S
C2185 C145 1.973 . S
C2193 C541 1.980 . S
C2217 C168 1.671 . S
C2225 C554 1.679 . S
C2249 N186 1.459 . S
C2257 C567 1.515 . S
C2289 C561 1.482 . S
C2281 N219 1.470 . S
C2321 C535 1.860 . S
C2313 C246 1.821 . S
C2353 C548 1.554 . S
C2345 N265 1.533 . S
C2385 C495 1.805 . S
C2377 C154 1.796 . S
C2409 C177 1.688 . S
C2417 C515 1.714 . S
C2441 N196 1.278 . S
C2449 C521 1.344 . S
C2473 N209 1.196 . S
C2481 C522 1.305 . S
C2505 C237 1.834 . S
C2513 C496 1.832 . S
C2545 C510 1.468 . S
C2537 N255 1.405 . S
C2569 C283 1.840 . S
C2577 C619 1.847 . S
C2601 N301 1.503 . S
C2609 C632 1.527 . S
C2633 N324 1.215 . S
C2641 C645 1.287 . S
C2673 C639 1.251 . S
C2665 N357 1.222 . S
C2705 C613 1.828 . S
C2697 C384 1.804 . S
C2729 N403 1.401 . S
C2737 C626 1.431 . S
C2761 C292 1.842 . S
C2769 C575 1.855 . S
C2801 C587 1.404 . S
C2793 N311 1.390 . S
C2825 N334 1.282 . S
C2833 C601 1.341 . S
C2857 N347 1.355 . S
C2865 C606 1.386 . S
C2897 C580 1.883 1_554 S
C2889 C375 1.874 . S
C2921 N393 1.375 . S
C2929 C586 1.436 . S
