# Generated by pormake.
# Topology zzz, (3,6)-cn, num edge types: 1
# Building blocks:
#     Node 0, Type 0, BuildingBlock: OLANEW_clean_sbu_2, # of connection points: 3
#     Node 1, Type 0, BuildingBlock: OLANEW_clean_sbu_2, # of connection points: 3
#     Node 2, Type 0, BuildingBlock: OLANEW_clean_sbu_2, # of connection points: 3
#     Node 3, Type 0, BuildingBlock: OLANEW_clean_sbu_2, # of connection points: 3
#     Node 4, Type 0, BuildingBlock: OLANEW_clean_sbu_2, # of connection points: 3
#     Node 5, Type 0, BuildingBlock: OLANEW_clean_sbu_2, # of connection points: 3
#     Node 6, Type 0, BuildingBlock: OLANEW_clean_sbu_2, # of connection points: 3
#     Node 7, Type 0, BuildingBlock: OLANEW_clean_sbu_2, # of connection points: 3
#     Node 8, Type 1, BuildingBlock: KUMBOL_clean_sbu_0, # of connection points: 6
#     Node 9, Type 1, BuildingBlock: KUMBOL_clean_sbu_0, # of connection points: 6
#     Node 10, Type 1, BuildingBlock: KUMBOL_clean_sbu_0, # of connection points: 6
#     Node 11, Type 1, BuildingBlock: KUMBOL_clean_sbu_0, # of connection points: 6
#     Edge 12, Type (0, 1), BuildingBlock: UVAHIK_clean_linker_0, # of connection points: 2
#     Edge 13, Type (0, 1), BuildingBlock: UVAHIK_clean_linker_0, # of connection points: 2
#     Edge 14, Type (0, 1), BuildingBlock: UVAHIK_clean_linker_0, # of connection points: 2
#     Edge 15, Type (0, 1), BuildingBlock: UVAHIK_clean_linker_0, # of connection points: 2
#     Edge 16, Type (0, 1), BuildingBlock: UVAHIK_clean_linker_0, # of connection points: 2
#     Edge 17, Type (0, 1), BuildingBlock: UVAHIK_clean_linker_0, # of connection points: 2
#     Edge 18, Type (0, 1), BuildingBlock: UVAHIK_clean_linker_0, # of connection points: 2
#     Edge 19, Type (0, 1), BuildingBlock: UVAHIK_clean_linker_0, # of connection points: 2
#     Edge 20, Type (0, 1), BuildingBlock: UVAHIK_clean_linker_0, # of connection points: 2
#     Edge 21, Type (0, 1), BuildingBlock: UVAHIK_clean_linker_0, # of connection points: 2
#     Edge 22, Type (0, 1), BuildingBlock: UVAHIK_clean_linker_0, # of connection points: 2
#     Edge 23, Type (0, 1), BuildingBlock: UVAHIK_clean_linker_0, # of connection points: 2
#     Edge 24, Type (0, 1), BuildingBlock: UVAHIK_clean_linker_0, # of connection points: 2
#     Edge 25, Type (0, 1), BuildingBlock: UVAHIK_clean_linker_0, # of connection points: 2
#     Edge 26, Type (0, 1), BuildingBlock: UVAHIK_clean_linker_0, # of connection points: 2
#     Edge 27, Type (0, 1), BuildingBlock: UVAHIK_clean_linker_0, # of connection points: 2
#     Edge 28, Type (0, 1), BuildingBlock: UVAHIK_clean_linker_0, # of connection points: 2
#     Edge 29, Type (0, 1), BuildingBlock: UVAHIK_clean_linker_0, # of connection points: 2
#     Edge 30, Type (0, 1), BuildingBlock: UVAHIK_clean_linker_0, # of connection points: 2
#     Edge 31, Type (0, 1), BuildingBlock: UVAHIK_clean_linker_0, # of connection points: 2
#     Edge 32, Type (0, 1), BuildingBlock: UVAHIK_clean_linker_0, # of connection points: 2
#     Edge 33, Type (0, 1), BuildingBlock: UVAHIK_clean_linker_0, # of connection points: 2
#     Edge 34, Type (0, 1), BuildingBlock: UVAHIK_clean_linker_0, # of connection points: 2
#     Edge 35, Type (0, 1), BuildingBlock: UVAHIK_clean_linker_0, # of connection points: 2
# Relax obj value: 0.134
# Max RMSD: 0.157
# Mean RMSD: 0.121
data_MOF--net-zzz--node1-OLANEW_clean_sbu_2--node2-KUMBOL_clean_sbu_0--edge1-UVAHIK_clean_linker_0
_symmetry_space_group_name_H-M    P1
_symmetry_Int_Tables_number       1
_symmetry_cell_setting            triclinic
loop_
_symmetry_equiv_pos_as_xyz
'x, y, z'
_cell_length_a     68.829979
_cell_length_b     68.876841
_cell_length_c     21.140168
_cell_angle_alpha  90.106943
_cell_angle_beta   90.075522
_cell_angle_gamma 90.017803
loop_
_atom_site_label
_atom_site_type_symbol
_atom_site_fract_x
_atom_site_fract_y
_atom_site_fract_z
_atom_type_partial_charge
O0 O 0.74944 0.61605 0.94319 0.0
Cd1 Cd 0.71829 0.62882 0.97782 0.0
O2 O 0.75166 0.60401 0.0387 0.0
Cd3 Cd 0.7653 0.58573 0.11038 0.0
O4 O 0.79057 0.57463 0.16051 0.0
C5 C 0.79 0.56529 0.21218 0.0
O6 O 0.7731 0.56145 0.2382 0.0
C7 C 0.75866 0.60593 0.98335 0.0
C8 C 0.68947 0.60805 0.91527 0.0
O9 O 0.69436 0.62503 0.89642 0.0
O10 O 0.69783 0.60113 0.96445 0.0
O11 O 0.887 0.75069 0.01552 0.0
Cd12 Cd 0.88274 0.71828 0.05984 0.0
O13 O 0.89531 0.7601 0.1109 0.0
Cd14 Cd 0.90505 0.78182 0.17979 0.0
O15 O 0.91912 0.80571 0.23005 0.0
C16 C 0.91739 0.82293 0.20928 0.0
O17 O 0.90655 0.82605 0.15913 0.0
C18 C 0.89307 0.76394 0.05246 0.0
C19 C 0.90422 0.69095 0.99197 0.0
O20 O 0.88605 0.69335 0.98125 0.0
O21 O 0.91223 0.70138 0.03496 0.0
O22 O 0.7555 0.87371 0.99515 0.0
Cd23 Cd 0.78685 0.86241 0.03638 0.0
O24 O 0.75157 0.89397 0.0744 0.0
Cd25 Cd 0.73629 0.91734 0.12435 0.0
O26 O 0.71463 0.93583 0.1701 0.0
C27 C 0.70294 0.92769 0.20823 0.0
O28 O 0.70473 0.90897 0.21868 0.0
C29 C 0.74521 0.88634 0.02352 0.0
C30 C 0.81882 0.88007 0.97881 0.0
O31 O 0.81062 0.86519 0.95391 0.0
O32 O 0.81184 0.88668 0.03075 0.0
O33 O 0.62735 0.76362 0.96329 0.0
Cd34 Cd 0.64897 0.79052 0.99135 0.0
O35 O 0.61609 0.76077 0.05999 0.0
Cd36 Cd 0.59683 0.74809 0.13146 0.0
O37 O 0.58152 0.72723 0.19121 0.0
C38 C 0.56779 0.71719 0.16766 0.0
O39 O 0.56218 0.72058 0.10933 0.0
C40 C 0.61638 0.75505 0.00268 0.0
C41 C 0.63583 0.82519 0.93864 0.0
O42 O 0.64609 0.81324 0.90634 0.0
O43 O 0.63193 0.82086 0.99619 0.0
O44 O 0.25797 0.39277 0.22565 0.0
Cd45 Cd 0.28999 0.38003 0.19984 0.0
O46 O 0.24927 0.39334 0.12574 0.0
Cd47 Cd 0.2295 0.40222 0.05014 0.0
O48 O 0.20678 0.41315 0.98763 0.0
C49 C 0.20603 0.43111 0.97418 0.0
O50 O 0.21933 0.44283 0.99738 0.0
C51 C 0.24539 0.39663 0.18357 0.0
C52 C 0.31786 0.40414 0.25455 0.0
O53 O 0.31203 0.40696 0.1977 0.0
O54 O 0.31078 0.3897 0.28494 0.0
O55 O 0.08431 0.26597 0.19202 0.0
Cd56 Cd 0.10322 0.29448 0.16186 0.0
O57 O 0.09871 0.24879 0.11811 0.0
Cd58 Cd 0.09994 0.22208 0.06244 0.0
O59 O 0.09032 0.19468 0.02126 0.0
C60 C 0.07241 0.19051 0.02702 0.0
O61 O 0.06089 0.2029 0.05579 0.0
C62 C 0.08658 0.24993 0.16328 0.0
C63 C 0.08643 0.32811 0.21073 0.0
O64 O 0.08196 0.32196 0.15532 0.0
O65 O 0.09896 0.31844 0.24262 0.0
O66 O 0.2527 0.08933 0.15676 0.0
Cd67 Cd 0.2231 0.10353 0.11281 0.0
O68 O 0.2694 0.10176 0.07822 0.0
Cd69 Cd 0.2964 0.10226 0.02408 0.0
O70 O 0.32451 0.09334 0.98664 0.0
C71 C 0.32999 0.07602 0.99721 0.0
O72 O 0.31848 0.06438 0.02905 0.0
C73 C 0.26878 0.09163 0.1284 0.0
C74 C 0.19048 0.09151 0.18008 0.0
O75 O 0.19795 0.08078 0.13692 0.0
O76 O 0.19834 0.10804 0.19127 0.0
O77 O 0.39017 0.25392 0.20027 0.0
Cd78 Cd 0.36965 0.22578 0.17891 0.0
O79 O 0.3887 0.26375 0.10159 0.0
Cd80 Cd 0.39856 0.28304 0.02626 0.0
O81 O 0.4111 0.30565 0.96687 0.0
C82 C 0.42687 0.31366 0.98435 0.0
O83 O 0.4354 0.30763 0.03632 0.0
C84 C 0.39489 0.26605 0.1578 0.0
C85 C 0.38751 0.19311 0.23006 0.0
O86 O 0.39015 0.19776 0.17202 0.0
O87 O 0.37607 0.20365 0.26334 0.0
Gd88 Gd 0.98125 0.01924 0.55416 0.0
Gd89 Gd 0.01531 0.99457 0.66573 0.0
C90 C 0.04478 0.02602 0.83135 0.0
C91 C 0.07879 0.02486 0.8009 0.0
C92 C 0.05412 0.00977 0.73464 0.0
C93 C 0.03985 0.01575 0.77578 0.0
C94 C 0.07383 0.0138 0.74737 0.0
C95 C 0.06427 0.03098 0.84285 0.0
C96 C 0.03005 0.03055 0.87439 0.0
C97 C 0.01113 0.02424 0.86249 0.0
N98 N 0.02122 0.01067 0.76294 0.0
C99 C 0.007 0.01406 0.80672 0.0
H100 H 0.99225 0.00947 0.7985 0.0
C101 C 0.06253 0.99038 0.64674 0.0
N102 N 0.04878 -0.00102 0.68397 0.0
C103 C 0.08228 0.99406 0.65692 0.0
C104 C 0.08796 0.00607 0.70696 0.0
H105 H 0.05819 0.98107 0.60803 0.0
H106 H 0.0683 0.03909 0.88483 0.0
H107 H 0.00398 0.0047 0.42139 0.0
H108 H 0.0332 0.03849 0.91749 0.0
H109 H -0.00032 0.02732 0.89603 0.0
H110 H 0.09383 0.02831 0.81115 0.0
H111 H 0.93857 0.02926 0.62126 0.0
H112 H 0.96308 0.97424 0.30567 0.0
H113 H 0.99642 0.98642 0.32436 0.0
H114 H 0.90305 0.98202 0.41774 0.0
H115 H 0.09309 0.98762 0.62625 0.0
H116 H 0.10326 0.00883 0.71502 0.0
H117 H 0.92827 0.97252 0.34122 0.0
H118 H 0.90383 0.0211 0.60626 0.0
N119 N 0.97531 0.00267 0.45854 0.0
C120 C 0.9663 0.98235 0.34839 0.0
C121 C 0.98511 0.98923 0.35873 0.0
C122 C 0.95174 0.98647 0.39254 0.0
C123 C 0.95674 0.99697 0.44753 0.0
C124 C 0.98934 -0.00037 0.41397 0.0
N125 N 0.9479 0.01299 0.54136 0.0
C126 C 0.94258 0.00228 0.49039 0.0
C127 C 0.91459 0.01565 0.57344 0.0
C128 C 0.90897 0.0039 0.52267 0.0
C129 C 0.93421 0.02031 0.58167 0.0
C130 C 0.92299 0.99727 0.47985 0.0
H131 H 0.89375 0.00035 0.51629 0.0
O132 O 0.96855 0.04798 0.54614 0.0
O133 O 0.00058 0.0218 0.63715 0.0
O134 O 0.98398 0.99526 0.70006 0.0
O135 O 0.96476 0.99673 0.60961 0.0
O136 O 0.97518 0.03759 0.64111 0.0
O137 O 0.99189 0.03909 0.483 0.0
O138 O 0.02601 0.96498 0.6699 0.0
O139 O 0.99666 0.99248 0.58111 0.0
O140 O 0.01249 0.02065 0.51949 0.0
O141 O 0.03343 0.01439 0.60509 0.0
O142 O 0.02185 0.97673 0.57764 0.0
O143 O 0.0039 0.97448 0.73573 0.0
C144 C 0.99118 0.03374 0.67013 0.0
C145 C 0.918 0.98617 0.42642 0.0
C146 C 0.93236 0.98076 0.38285 0.0
C147 C 0.97932 0.05252 0.49754 0.0
C148 C 0.9699 0.06221 0.44396 0.0
C149 C 0.95132 0.05693 0.42271 0.0
C150 C 0.98011 0.07697 0.41295 0.0
C151 C 0.97191 0.08671 0.36107 0.0
C152 C 0.94299 0.06663 0.37129 0.0
C153 C 0.95316 0.08151 0.34072 0.0
C154 C 0.96775 0.99132 0.66883 0.0
C155 C 0.00607 0.98072 0.54751 0.0
C156 C 0.01272 0.95968 0.71022 0.0
C157 C 0.0002 0.94313 0.69171 0.0
C158 C 0.00194 0.93447 0.63167 0.0
C159 C 0.98591 0.93627 0.73358 0.0
C160 C 0.97351 0.92089 0.71598 0.0
C161 C 0.98933 0.91966 0.61324 0.0
C162 C 0.97521 0.9129 0.6549 0.0
C163 C 0.0298 0.02089 0.5473 0.0
H164 H 0.9433 0.04542 0.44574 0.0
H165 H 0.99443 0.08103 0.42992 0.0
H166 H 0.92863 0.06259 0.35501 0.0
H167 H 0.9465 0.08876 0.30078 0.0
H168 H 0.01295 0.93912 0.59856 0.0
H169 H 0.98455 0.94285 0.77998 0.0
H170 H 0.99074 0.91318 0.56679 0.0
H171 H 0.96619 0.90085 0.64005 0.0
Gd172 Gd 0.50673 0.99662 0.52385 0.0
Gd173 Gd 0.52843 0.02982 0.6444 0.0
C174 C 0.49496 0.05742 0.80819 0.0
C175 C 0.49415 0.09139 0.77742 0.0
C176 C 0.51078 0.06765 0.71169 0.0
C177 C 0.50562 0.05306 0.75299 0.0
C178 C 0.50542 0.08705 0.72387 0.0
C179 C 0.48894 0.0766 0.81953 0.0
C180 C 0.49097 0.04244 0.85081 0.0
C181 C 0.49802 0.02381 0.83866 0.0
N182 N 0.51157 0.03469 0.74024 0.0
C183 C 0.50851 0.02021 0.78323 0.0
H184 H 0.51371 0.00569 0.77466 0.0
C185 C 0.52883 0.0771 0.62182 0.0
N186 N 0.52168 0.06294 0.66063 0.0
C187 C 0.52382 0.09655 0.63166 0.0
C188 C 0.51188 0.10153 0.68254 0.0
H189 H 0.53791 0.07326 0.58205 0.0
H190 H 0.48055 0.08018 0.8613 0.0
H191 H 0.52482 0.02068 0.39889 0.0
H192 H 0.48276 0.04516 0.89361 0.0
H193 H 0.49526 0.01217 0.87175 0.0
H194 H 0.48973 0.10619 0.78734 0.0
H195 H 0.49431 0.95326 0.58094 0.0
H196 H 0.55834 0.98106 0.28781 0.0
H197 H 0.54577 0.01419 0.30699 0.0
H198 H 0.5469 0.91977 0.38851 0.0
H199 H 0.52913 0.10766 0.59996 0.0
H200 H 0.50804 0.11661 0.69017 0.0
H201 H 0.55883 0.94582 0.31898 0.0
H202 H 0.50242 0.91867 0.56353 0.0
N203 N 0.52574 0.99159 0.43271 0.0
C204 C 0.54907 0.9838 0.32823 0.0
C205 C 0.54197 0.00251 0.33883 0.0
C206 C 0.54366 0.96876 0.36893 0.0
C207 C 0.53166 0.97316 0.42105 0.0
C208 C 0.53005 0.00612 0.39112 0.0
N209 N 0.51291 0.9634 0.50793 0.0
C210 C 0.52502 0.95857 0.45997 0.0
C211 C 0.50894 0.92976 0.53418 0.0
C212 C 0.52206 0.92462 0.48666 0.0
C213 C 0.50431 0.94932 0.54377 0.0
C214 C 0.5301 0.93907 0.44826 0.0
H215 H 0.5256 0.90946 0.47925 0.0
O216 O 0.47763 0.98537 0.5091 0.0
O217 O 0.50252 0.01413 0.61 0.0
O218 O 0.52855 -0.0018 0.67563 0.0
O219 O 0.52756 0.9794 0.58354 0.0
O220 O 0.48652 0.98897 0.60525 0.0
O221 O 0.48897 0.00795 0.44769 0.0
O222 O 0.55687 0.04282 0.65616 0.0
O223 O 0.53275 0.01202 0.5589 0.0
O224 O 0.5066 0.0284 0.49407 0.0
O225 O 0.50621 0.04628 0.58773 0.0
O226 O 0.54764 0.0377 0.56072 0.0
O227 O 0.54826 0.01869 0.71577 0.0
C228 C 0.4901 0.00417 0.63887 0.0
C229 C 0.54267 0.93464 0.39796 0.0
C230 C 0.54946 0.94947 0.35838 0.0
C231 C 0.47457 0.99624 0.4596 0.0
C232 C 0.46534 0.9871 0.40462 0.0
C233 C 0.47166 0.96921 0.3806 0.0
C234 C 0.44975 0.99671 0.37578 0.0
C235 C 0.44018 0.98851 0.32347 0.0
C236 C 0.4622 0.96092 0.32855 0.0
C237 C 0.44646 0.97043 0.30025 0.0
C238 C 0.53233 0.98201 0.64369 0.0
C239 C 0.545 0.02192 0.52907 0.0
C240 C 0.56266 0.02919 0.69471 0.0
C241 C 0.58055 0.01854 0.67679 0.0
C242 C 0.59113 0.02391 0.6227 0.0
C243 C 0.58679 0.00244 0.71244 0.0
C244 C 0.60342 0.99178 0.69455 0.0
C245 C 0.60742 0.01336 0.60425 0.0
C246 C 0.6136 0.99751 0.63984 0.0
C247 C 0.50216 0.04422 0.52688 0.0
H248 H 0.48379 0.96167 0.40211 0.0
H249 H 0.44486 0.01049 0.39496 0.0
H250 H 0.46705 0.94707 0.31015 0.0
H251 H 0.43936 0.96378 0.2599 0.0
H252 H 0.58682 0.03621 0.59412 0.0
H253 H 0.57857 -0.00181 0.75377 0.0
H254 H 0.61541 0.01759 0.5624 0.0
H255 H 0.62672 0.99013 0.62512 0.0
Gd256 Gd 0.48692 0.5288 0.62524 0.0
Gd257 Gd 0.51607 0.49755 0.51802 0.0
C258 C 0.58203 0.49243 0.53945 0.0
C259 C 0.59348 0.50588 0.44003 0.0
C260 C 0.55885 0.50355 0.46142 0.0
C261 C 0.56269 0.49568 0.52001 0.0
C262 C 0.57417 0.50826 0.41995 0.0
C263 C 0.5974 0.498 0.49978 0.0
C264 C 0.58531 0.48321 0.59736 0.0
C265 C 0.56952 0.47684 0.63304 0.0
N266 N 0.54746 0.49033 0.55671 0.0
C267 C 0.55061 0.48025 0.61143 0.0
H268 H 0.53864 0.47526 0.63989 0.0
C269 C 0.53551 0.51048 0.38274 0.0
N270 N 0.54007 0.50547 0.44346 0.0
C271 C 0.55015 0.51546 0.3399 0.0
C272 C 0.56958 0.51462 0.35888 0.0
H273 H 0.52048 0.51113 0.36799 0.0
H274 H 0.61236 0.4958 0.51414 0.0
H275 H 0.4621 0.54936 0.50584 0.0
H276 H 0.59994 0.48051 0.61413 0.0
H277 H 0.57188 0.46933 0.6773 0.0
H278 H 0.60546 0.5096 0.40913 0.0
H279 H 0.48526 0.51529 0.77685 0.0
H280 H 0.40138 0.54149 0.54009 0.0
H281 H 0.42806 0.55355 0.47238 0.0
H282 H 0.39984 0.51348 0.74748 0.0
H283 H 0.54644 0.51991 0.29233 0.0
H284 H 0.58091 0.51839 0.32555 0.0
H285 H 0.39097 0.52632 0.64273 0.0
H286 H 0.46068 0.50598 0.85633 0.0
N287 N 0.4549 0.53445 0.59075 0.0
C288 C 0.41632 0.53956 0.55498 0.0
C289 C 0.43133 0.54643 0.51674 0.0
C290 C 0.42076 0.53086 0.613 0.0
C291 C 0.44045 0.52862 0.62995 0.0
C292 C 0.45064 0.54404 0.53594 0.0
N293 N 0.46449 0.5202 0.70403 0.0
C294 C 0.44541 0.5213 0.68857 0.0
C295 C 0.45619 0.51015 0.80919 0.0
C296 C 0.43651 0.51023 0.79297 0.0
C297 C 0.47007 0.51544 0.76411 0.0
C298 C 0.43087 0.51613 0.73232 0.0
H299 H 0.42578 0.50616 0.82799 0.0
O300 O 0.49915 0.54743 0.69778 0.0
O301 O 0.51619 0.5186 0.59716 0.0
O302 O 0.50609 0.48156 0.60677 0.0
O303 O 0.47952 0.49806 0.65023 0.0
O304 O 0.51067 0.52019 0.69298 0.0
O305 O 0.4815 0.55991 0.62327 0.0
O306 O 0.50687 0.47982 0.43833 0.0
O307 O 0.487 0.50809 0.54529 0.0
O308 O 0.49614 0.5449 0.53641 0.0
O309 O 0.52259 0.52852 0.49088 0.0
O310 O 0.49208 0.50576 0.44993 0.0
O311 O 0.51736 0.46619 0.52425 0.0
C312 C 0.52377 0.51653 0.65102 0.0
C313 C 0.41123 0.51756 0.71477 0.0
C314 C 0.40618 0.52488 0.65514 0.0
C315 C 0.49122 0.56309 0.67524 0.0
C316 C 0.48259 0.57618 0.7221 0.0
C317 C 0.46442 0.57239 0.74934 0.0
C318 C 0.49352 0.59212 0.74293 0.0
C319 C 0.48665 0.60412 0.79178 0.0
C320 C 0.45742 0.58436 0.7977 0.0
C321 C 0.46853 0.60007 0.8193 0.0
C322 C 0.49049 0.4824 0.64373 0.0
C323 C 0.47908 0.50973 0.49186 0.0
C324 C 0.51135 0.46361 0.46633 0.0
C325 C 0.52185 0.44926 0.42819 0.0
C326 C 0.54217 0.44951 0.42335 0.0
C327 C 0.51119 0.43484 0.39685 0.0
C328 C 0.52065 0.42041 0.36134 0.0
C329 C 0.55169 0.43525 0.38792 0.0
C330 C 0.54103 0.42068 0.35734 0.0
C331 C 0.51148 0.54406 0.49852 0.0
H332 H 0.45583 0.56011 0.73388 0.0
H333 H 0.5077 0.59482 0.7224 0.0
H334 H 0.44344 0.58135 0.81893 0.0
H335 H 0.46293 0.60911 0.85709 0.0
H336 H 0.55061 0.46059 0.44719 0.0
H337 H 0.49549 0.43461 0.40134 0.0
H338 H 0.56738 0.43543 0.38439 0.0
H339 H 0.54868 0.40975 0.33019 0.0
Gd340 Gd 0.9919 0.49774 0.6354 0.0
Gd341 Gd 0.01831 0.53461 0.54138 0.0
C342 C 0.02262 0.59638 0.62242 0.0
C343 C 0.00494 0.615 0.54377 0.0
C344 C 0.0094 0.58018 0.53018 0.0
C345 C 0.01955 0.57927 0.58668 0.0
C346 C 0.00246 0.59815 0.50731 0.0
C347 C 0.01496 0.61411 0.60128 0.0
C348 C 0.03347 0.59528 0.6781 0.0
C349 C 0.04139 0.57757 0.69626 0.0
N350 N 0.02667 0.56181 0.60621 0.0
C351 C 0.03802 0.561 0.65958 0.0
H352 H 0.0442 0.54773 0.67656 0.0
C353 C -0.00029 0.56444 0.43594 0.0
N354 N 0.00708 0.56369 0.49602 0.0
C355 C 0.99258 0.58185 0.41131 0.0
C356 C 0.99366 0.59874 0.44761 0.0
H357 H -0.00101 0.55138 0.40761 0.0
H358 H 0.01703 0.6273 0.6285 0.0
H359 H 0.96922 0.47742 0.51064 0.0
H360 H 0.03606 0.60805 0.70689 0.0
H361 H 0.05001 0.5766 0.73901 0.0
H362 H -0.00049 0.62887 0.52731 0.0
H363 H 0.01184 0.49 0.77734 0.0
H364 H 0.98257 0.41679 0.50818 0.0
H365 H 0.96639 0.44528 0.4603 0.0
H366 H 0.01806 0.40758 0.70113 0.0
H367 H 0.9863 0.58222 0.36437 0.0
H368 H 0.98817 0.61225 0.42844 0.0
H369 H 0.00198 0.40286 0.59811 0.0
H370 H 0.02607 0.4628 0.83787 0.0
N371 N 0.98734 0.46748 0.58562 0.0
C372 C 0.98386 0.43089 0.53061 0.0
C373 C 0.97468 0.44693 0.50351 0.0
C374 C 0.99414 0.43316 0.58728 0.0
C375 C 0.9955 0.45186 0.61423 0.0
C376 C 0.97632 0.46516 0.53233 0.0
N377 N 0.00505 0.47261 0.69708 0.0
C378 C 0.00458 0.45449 0.67192 0.0
C379 C 0.02015 0.46028 0.79113 0.0
C380 C 0.0206 0.44169 0.76463 0.0
C381 C 0.01205 0.47563 0.75683 0.0
C382 C 0.01254 0.43854 0.70464 0.0
H383 H 0.02688 0.42982 0.7913 0.0
O384 O 0.97528 0.50294 0.72054 0.0
O385 O -0.0012 0.52893 0.62189 0.0
O386 O 0.03764 0.52122 0.6175 0.0
O387 O 0.02364 0.49129 0.64322 0.0
O388 O 0.0001 0.51877 0.71328 0.0
O389 O 0.96114 0.49059 0.63767 0.0
O390 O 0.03616 0.54703 0.46701 0.0
O391 O 0.00936 0.50414 0.54995 0.0
O392 O 0.97205 0.50939 0.55943 0.0
O393 O 0.98625 0.53738 0.51667 0.0
O394 O 0.00809 0.51563 0.46023 0.0
O395 O 0.04617 0.52163 0.51635 0.0
C396 C 0.00133 0.53405 0.67839 0.0
C397 C 0.01186 0.41999 0.67702 0.0
C398 C 0.00271 0.41731 0.61837 0.0
C399 C 0.9592 0.49631 0.69617 0.0
C400 C 0.94692 0.48469 0.73791 0.0
C401 C 0.9531 0.46693 0.76318 0.0
C402 C 0.92911 0.49258 0.75655 0.0
C403 C 0.91756 0.4832 0.80168 0.0
C404 C 0.94152 0.45735 0.80773 0.0
C405 C 0.92391 0.46554 0.82757 0.0
C406 C 0.03848 0.50346 0.64206 0.0
C407 C 0.00626 0.49988 0.49282 0.0
C408 C 0.04839 0.53268 0.46717 0.0
C409 C 0.05165 0.52261 0.40628 0.0
C410 C 0.03859 0.52485 0.3556 0.0
C411 C 0.06753 0.50998 0.39947 0.0
C412 C 0.0705 0.49974 0.34248 0.0
C413 C 0.04129 0.51459 0.29943 0.0
C414 C 0.05713 0.50215 0.2927 0.0
C415 C 0.97133 0.52545 0.52525 0.0
H416 H 0.96691 0.4607 0.74939 0.0
H417 H 0.92458 0.5065 0.73765 0.0
H418 H 0.94634 0.44371 0.82764 0.0
H419 H 0.91526 0.45811 0.86281 0.0
H420 H 0.02617 0.5344 0.35934 0.0
H421 H 0.07744 0.50802 0.43884 0.0
H422 H 0.03114 0.51639 0.26073 0.0
H423 H 0.05912 0.49478 0.24789 0.0
C424 C 0.16935 0.06495 0.22145 0.0
C425 C 0.17344 0.08484 0.21644 0.0
C426 C 0.15351 0.05853 0.25694 0.0
C427 C 0.11799 0.07509 0.3793 0.0
H428 H 0.09144 0.02771 0.33018 0.0
C429 C 0.04466 0.0473 0.48353 0.0
C430 C 0.04607 0.02877 0.51059 0.0
C431 C 0.06004 0.05477 0.4479 0.0
C432 C 0.09878 0.04095 0.34432 0.0
H433 H 0.16397 0.11368 0.24333 0.0
H434 H 0.13573 0.10262 0.30255 0.0
H435 H 0.11802 0.03989 0.26535 0.0
H436 H 0.06403 0.00317 0.51994 0.0
H437 H 0.09082 0.01605 0.45639 0.0
H438 H 0.09799 0.07634 0.45704 0.0
C439 C 0.14511 0.09184 0.28122 0.0
C440 C 0.11413 0.04789 0.30758 0.0
C441 C 0.16123 0.09823 0.24685 0.0
C442 C 0.06286 0.01766 0.50077 0.0
C443 C 0.07804 0.02493 0.464 0.0
C444 C 0.10234 0.06835 0.41519 0.0
C445 C 0.14108 0.07187 0.28713 0.0
C446 C 0.12415 0.06494 0.32494 0.0
C447 C 0.07676 0.04356 0.4375 0.0
C448 C 0.09279 0.05113 0.39834 0.0
H449 H 0.17865 0.05429 0.199 0.0
H450 H 0.15127 0.04304 0.26141 0.0
H451 H 0.12548 0.08805 0.39508 0.0
H452 H 0.03175 0.05605 0.49043 0.0
H453 H 0.05874 0.06914 0.42751 0.0
C454 C 0.40877 0.16372 0.22059 0.0
C455 C 0.398 0.17655 0.25856 0.0
C456 C 0.41955 0.14874 0.24802 0.0
C457 C 0.42577 0.12109 0.39779 0.0
H458 H 0.47668 0.10977 0.32849 0.0
C459 C 0.48241 0.07471 0.52997 0.0
C460 C 0.49145 0.05996 0.49459 0.0
C461 C 0.47106 0.08876 0.5 0.0
C462 C 0.46243 0.11268 0.34801 0.0
H463 H 0.38992 0.1836 0.35504 0.0
H464 H 0.40907 0.15785 0.40296 0.0
H465 H 0.45627 0.13424 0.27819 0.0
H466 H 0.49601 0.04869 0.39979 0.0
H467 H 0.47632 0.07339 0.34754 0.0
H468 H 0.43222 0.09981 0.46851 0.0
C469 C 0.4089 0.15904 0.35189 0.0
C470 C 0.45068 0.12663 0.31908 0.0
C471 C 0.39799 0.17389 0.32442 0.0
C472 C 0.48925 0.05984 0.42845 0.0
C473 C 0.47804 0.07401 0.39845 0.0
C474 C 0.4376 0.10729 0.42706 0.0
C475 C 0.41995 0.14635 0.3141 0.0
C476 C 0.43221 0.13106 0.34371 0.0
C477 C 0.46864 0.08846 0.43402 0.0
C478 C 0.45607 0.103 0.40258 0.0
H479 H 0.40897 0.16532 0.16963 0.0
H480 H 0.42759 0.13903 0.21736 0.0
H481 H 0.4115 0.12383 0.41739 0.0
H482 H 0.48372 0.07519 0.58102 0.0
H483 H 0.46414 0.09986 0.52848 0.0
C484 C 0.33706 0.41511 0.34869 0.0
C485 C 0.3322 0.41727 0.28452 0.0
C486 C 0.35062 0.42746 0.3771 0.0
C487 C 0.37633 0.47449 0.35667 0.0
H488 H 0.4144 0.45075 0.46745 0.0
C489 C 0.45084 0.5083 0.41853 0.0
C490 C 0.4586 0.5048 0.47884 0.0
C491 C 0.43289 0.50042 0.40121 0.0
C492 C 0.40367 0.45772 0.43764 0.0
H493 H 0.33762 0.4342 0.19995 0.0
H494 H 0.36161 0.45547 0.24913 0.0
H495 H 0.38829 0.43112 0.42399 0.0
H496 H 0.45336 0.49087 0.56906 0.0
H497 H 0.42192 0.47753 0.5396 0.0
H498 H 0.39223 0.50101 0.36907 0.0
C499 C 0.35469 0.44446 0.27785 0.0
C500 C 0.38868 0.44643 0.4126 0.0
C501 C 0.34105 0.43216 0.2495 0.0
C502 C 0.44769 0.49406 0.52259 0.0
C503 C 0.42974 0.48623 0.50542 0.0
C504 C 0.3914 0.48579 0.38163 0.0
C505 C 0.35971 0.44219 0.34192 0.0
C506 C 0.37494 0.45461 0.37127 0.0
C507 C 0.42247 0.48874 0.44382 0.0
C508 C 0.40535 0.47747 0.4219 0.0
H509 H 0.33038 0.40389 0.37715 0.0
H510 H 0.35394 0.42548 0.42676 0.0
H511 H 0.3658 0.4813 0.32574 0.0
H512 H 0.45908 0.51641 0.38382 0.0
H513 H 0.42777 0.50249 0.35324 0.0
C514 C 0.08095 0.35125 0.30038 0.0
C515 C 0.07718 0.34567 0.23757 0.0
C516 C 0.07189 0.36754 0.32638 0.0
C517 C 0.04788 0.41339 0.2844 0.0
H518 H 0.02737 0.41024 0.45492 0.0
C519 C 0.00596 0.47677 0.40191 0.0
C520 C 0.01143 0.48104 0.46436 0.0
C521 C 0.01241 0.45972 0.37267 0.0
C522 C 0.03312 0.41137 0.40739 0.0
H523 H 0.06108 0.35297 0.15257 0.0
H524 H 0.04528 0.3815 0.19811 0.0
H525 H 0.0421 0.38163 0.40657 0.0
H526 H 0.02866 0.47129 0.5441 0.0
H527 H 0.03957 0.44153 0.49399 0.0
H528 H 0.03917 0.44325 0.28569 0.0
C529 C 0.05531 0.37326 0.22706 0.0
C530 C 0.04158 0.39501 0.37975 0.0
C531 C 0.0643 0.35688 0.20111 0.0
C532 C 0.02362 0.4681 0.49682 0.0
C533 C 0.02993 0.45104 0.46793 0.0
C534 C 0.03945 0.42979 0.31212 0.0
C535 C 0.05893 0.37869 0.2901 0.0
C536 C 0.04923 0.39589 0.31823 0.0
C537 C 0.02452 0.4467 0.40541 0.0
C538 C 0.03217 0.429 0.37417 0.0
H539 H 0.09083 0.34296 0.32971 0.0
H540 H 0.07518 0.37152 0.37483 0.0
H541 H 0.05383 0.41457 0.23715 0.0
H542 H 0.99687 0.48673 0.37555 0.0
H543 H 0.00797 0.45674 0.32446 0.0
C544 C 0.84696 0.90319 0.9811 0.0
C545 C 0.83567 0.88949 0.94806 0.0
C546 C 0.86246 0.91257 0.95131 0.0
C547 C 0.87792 0.92892 0.79671 0.0
H548 H 0.92903 0.93429 0.87188 0.0
C549 C 0.93913 0.96898 0.66503 0.0
C550 C 0.95273 0.97953 0.70075 0.0
C551 C 0.92578 0.95676 0.69479 0.0
C552 C 0.91475 0.93326 0.85061 0.0
H553 H 0.83205 0.87461 0.85827 0.0
H554 H 0.85889 0.89138 0.8059 0.0
H555 H 0.90426 0.91508 0.92548 0.0
H556 H 0.96287 0.98573 0.79577 0.0
H557 H 0.93888 0.96543 0.84797 0.0
H558 H 0.88783 0.94765 0.72336 0.0
C559 C 0.85573 0.89475 0.85491 0.0
C560 C 0.90063 0.92211 0.88123 0.0
C561 C 0.84042 0.88514 0.88495 0.0
C562 C 0.95255 0.9778 0.76691 0.0
C563 C 0.9389 0.96592 0.79681 0.0
C564 C 0.8919 0.94032 0.76664 0.0
C565 C 0.86678 0.90867 0.88764 0.0
C566 C 0.88208 0.91985 0.85453 0.0
C567 C 0.92533 0.95517 0.76119 0.0
C568 C 0.91054 0.94269 0.79307 0.0
H569 H 0.84373 0.90676 0.02989 0.0
H570 H 0.8707 0.92333 0.97748 0.0
H571 H 0.86363 0.92764 0.77559 0.0
H572 H 0.93904 0.96978 0.61387 0.0
H573 H 0.91597 0.9484 0.66539 0.0
C574 C 0.62177 0.85861 0.9474 0.0
C575 C 0.62805 0.84307 0.90956 0.0
C576 C 0.61333 0.87501 0.91984 0.0
C577 C 0.60475 0.89936 0.764 0.0
H578 H 0.56143 0.92243 0.85371 0.0
C579 C 0.55019 0.95036 0.64191 0.0
C580 C 0.54329 0.96645 0.67613 0.0
C581 C 0.56157 0.93626 0.67147 0.0
C582 C 0.57369 0.91638 0.82843 0.0
H583 H 0.63077 0.8326 0.81326 0.0
H584 H 0.61527 0.86066 0.76537 0.0
H585 H 0.57983 0.89647 0.90303 0.0
H586 H 0.54308 0.98034 0.76842 0.0
H587 H 0.56319 0.95591 0.81957 0.0
H588 H 0.59828 0.91908 0.68887 0.0
C589 C 0.61735 0.86061 0.81613 0.0
C590 C 0.58433 0.90148 0.85681 0.0
C591 C 0.62613 0.84441 0.84361 0.0
C592 C 0.548 0.96808 0.74066 0.0
C593 C 0.55949 0.95402 0.77012 0.0
C594 C 0.5941 0.91423 0.73562 0.0
C595 C 0.61059 0.87605 0.8539 0.0
C596 C 0.59996 0.89267 0.82488 0.0
C597 C 0.56641 0.93795 0.73586 0.0
C598 C 0.57834 0.92281 0.76727 0.0
H599 H 0.62331 0.85807 0.99837 0.0
H600 H 0.60882 0.88679 0.95042 0.0
H601 H 0.61681 0.89317 0.73808 0.0
H602 H 0.54705 0.94871 0.592 0.0
H603 H 0.56643 0.92392 0.64387 0.0
C604 C 0.65983 0.60585 0.84756 0.0
C605 C 0.67484 0.59658 0.8806 0.0
C606 C 0.64583 0.59495 0.81541 0.0
C607 C 0.62179 0.57034 0.72786 0.0
H608 H 0.60666 0.52042 0.79593 0.0
C609 C 0.55652 0.52974 0.62247 0.0
C610 C 0.54433 0.52034 0.66586 0.0
C611 C 0.5751 0.53577 0.64057 0.0
C612 C 0.61053 0.53441 0.77646 0.0
H613 H 0.68756 0.56877 0.90424 0.0
H614 H 0.66391 0.54972 0.84514 0.0
H615 H 0.63288 0.53826 0.84518 0.0
H616 H 0.54186 0.50986 0.76188 0.0
H617 H 0.57355 0.52139 0.79497 0.0
H618 H 0.59828 0.56735 0.66296 0.0
C619 C 0.66226 0.56534 0.8461 0.0
C620 C 0.62592 0.54457 0.80415 0.0
C621 C 0.67592 0.57625 0.87977 0.0
C622 C 0.55111 0.51686 0.72731 0.0
C623 C 0.56944 0.52333 0.74598 0.0
C624 C 0.60606 0.56044 0.7013 0.0
C625 C 0.64685 0.5745 0.81397 0.0
C626 C 0.63155 0.56288 0.78105 0.0
C627 C 0.58158 0.53326 0.70329 0.0
C628 C 0.59992 0.5425 0.72605 0.0
H629 H 0.65863 0.62154 0.84785 0.0
H630 H 0.634 0.60264 0.79286 0.0
H631 H 0.62599 0.58408 0.70723 0.0
H632 H 0.55151 0.53297 0.5751 0.0
H633 H 0.58411 0.54292 0.60576 0.0
C634 C 0.9359 0.67819 0.95125 0.0
C635 C 0.91562 0.67653 0.95583 0.0
C636 C 0.94664 0.66461 0.91662 0.0
C637 C 0.96761 0.62863 0.87075 0.0
H638 H 0.94365 0.60232 0.72857 0.0
C639 C -0.00108 0.55775 0.76716 0.0
C640 C 0.99535 0.55313 0.7036 0.0
C641 C 0.99106 0.57457 0.79391 0.0
C642 C 0.95083 0.60971 0.76729 0.0
H643 H 0.89068 0.6592 0.92885 0.0
H644 H 0.90934 0.63498 0.87143 0.0
H645 H 0.92652 0.62848 0.78047 0.0
H646 H 0.98077 0.56242 0.61801 0.0
H647 H 0.96827 0.59241 0.66286 0.0
H648 H 0.99233 0.61045 0.85548 0.0
C649 C 0.91704 0.64714 0.89217 0.0
C650 C 0.94075 0.62455 0.79813 0.0
C651 C 0.90629 0.66095 0.92563 0.0
C652 C 0.98411 0.56582 0.66683 0.0
C653 C 0.97664 0.58288 0.69303 0.0
C654 C 0.97788 0.61404 0.83903 0.0
C655 C 0.93737 0.6488 0.88682 0.0
C656 C 0.94879 0.63395 0.85118 0.0
C657 C 0.97954 0.58725 0.75747 0.0
C658 C 0.96948 0.6041 0.7876 0.0
H659 H 0.94346 0.69017 0.97365 0.0
H660 H 0.96218 0.66666 0.91279 0.0
H661 H 0.97431 0.63534 0.91164 0.0
H662 H 0.00729 0.54802 0.79676 0.0
H663 H 0.99338 0.57712 0.84387 0.0
C664 C 0.08335 0.21449 0.18525 0.0
C665 C 0.07479 0.23293 0.18098 0.0
C666 C 0.07214 0.19829 0.20097 0.0
C667 C 0.02181 0.18013 0.20145 0.0
H668 H 0.0415 0.14331 0.32432 0.0
C669 C 0.97417 0.12034 0.31584 0.0
C670 C 0.98299 0.10245 0.3296 0.0
C671 C 0.98521 0.13578 0.29227 0.0
C672 C 0.03589 0.15326 0.28916 0.0
H673 H 0.04802 0.24911 0.19128 0.0
H674 H 0.02829 0.22072 0.21847 0.0
H675 H 0.06118 0.17125 0.29515 0.0
H676 H 0.01 0.0863 0.32577 0.0
H677 H 0.02918 0.11308 0.28392 0.0
H678 H 0.99649 0.16211 0.19555 0.0
C679 C 0.04362 0.21875 0.2089 0.0
C680 C 0.04717 0.16931 0.2726 0.0
C681 C 0.0549 0.23499 0.19387 0.0
C682 C 0.00287 0.10004 0.3167 0.0
C683 C 0.01387 0.1154 0.2929 0.0
C684 C 0.01053 0.164 0.21787 0.0
C685 C 0.05212 0.20022 0.21244 0.0
C686 C 0.04022 0.18298 0.22886 0.0
C687 C 0.00527 0.13359 0.2817 0.0
C688 C 0.01741 0.15042 0.26215 0.0
H689 H 0.09875 0.21261 0.17677 0.0
H690 H 0.07909 0.1842 0.2031 0.0
H691 H 0.01621 0.19027 0.16687 0.0
H692 H 0.95891 0.12265 0.32576 0.0
H693 H 0.97816 0.14963 0.28469 0.0
C694 C 0.28544 0.06194 0.16854 0.0
C695 C 0.28635 0.08155 0.1509 0.0
C696 C 0.30237 0.05194 0.18516 0.0
C697 C 0.35202 0.05875 0.24381 0.0
H698 H 0.36177 0.00847 0.16724 0.0
C699 C 0.42437 0.01885 0.28344 0.0
C700 C 0.42342 -0.00123 0.29469 0.0
C701 C 0.40809 0.02893 0.26161 0.0
C702 C 0.35918 0.02239 0.18958 0.0
H703 H 0.30526 0.10644 0.1401 0.0
H704 H 0.33488 0.08904 0.16999 0.0
H705 H 0.33215 0.02621 0.14069 0.0
H706 H 0.40483 0.97342 0.29057 0.0
H707 H 0.37626 0.99103 0.25332 0.0
H708 H 0.37876 0.05489 0.29367 0.0
C709 C 0.32116 0.08133 0.17021 0.0
C710 C 0.34222 0.03254 0.17432 0.0
C711 C 0.30428 0.09123 0.15267 0.0
C712 C 0.40602 0.98887 0.28177 0.0
C713 C 0.38967 -0.00102 0.26034 0.0
C714 C 0.36889 0.04855 0.25945 0.0
C715 C 0.32042 0.0615 0.18562 0.0
C716 C 0.33845 0.05078 0.20147 0.0
C717 C 0.39042 0.0192 0.25095 0.0
C718 C 0.37268 0.03022 0.23265 0.0
H719 H 0.27173 0.05421 0.16768 0.0
H720 H 0.30135 0.03674 0.19769 0.0
H721 H 0.34939 0.07271 0.26588 0.0
H722 H 0.43769 0.02681 0.29208 0.0
H723 H 0.40934 0.0444 0.25352 0.0
C724 C 0.42427 0.27902 0.21235 0.0
C725 C 0.40802 0.28224 0.17363 0.0
C726 C 0.43689 0.29426 0.22711 0.0
C727 C 0.43912 0.34703 0.24282 0.0
H728 H 0.49484 0.33963 0.23004 0.0
C729 C 0.4923 0.40952 0.29587 0.0
C730 C 0.50912 0.40489 0.33035 0.0
C731 C 0.48056 0.39486 0.27078 0.0
C732 C 0.47933 0.34189 0.23454 0.0
H733 H 0.39165 0.30394 0.1222 0.0
H734 H 0.4136 0.33075 0.14881 0.0
H735 H 0.4729 0.31342 0.19919 0.0
H736 H 0.52703 0.38132 0.36484 0.0
H737 H 0.50635 0.35565 0.32234 0.0
H738 H 0.44541 0.37522 0.27992 0.0
C739 C 0.41673 0.31638 0.16693 0.0
C740 C 0.46678 0.32688 0.21668 0.0
C741 C 0.4043 0.30105 0.1512 0.0
C742 C 0.51424 0.3853 0.3379 0.0
C743 C 0.50239 0.37061 0.31336 0.0
C744 C 0.45166 0.36197 0.26126 0.0
C745 C 0.43326 0.31309 0.20452 0.0
C746 C 0.44656 0.32927 0.22106 0.0
C747 C 0.48525 0.37519 0.28017 0.0
C748 C 0.47194 0.35956 0.25773 0.0
H749 H 0.42734 0.26464 0.23053 0.0
H750 H 0.44936 0.29137 0.25699 0.0
H751 H 0.4236 0.34919 0.24733 0.0
H752 H 0.48816 0.42453 0.28863 0.0
H753 H 0.46772 0.39896 0.24432 0.0
C754 C 0.20941 0.40102 0.17225 0.0
C755 C 0.22697 0.40598 0.20203 0.0
C756 C 0.19209 0.41018 0.18984 0.0
C757 C 0.17384 0.45511 0.25942 0.0
H758 H 0.127 0.42581 0.29498 0.0
C759 C 0.10605 0.49301 0.35747 0.0
C760 C 0.08788 0.4872 0.33366 0.0
C761 C 0.1227 0.48212 0.34478 0.0
C762 C 0.13988 0.43424 0.28446 0.0
H763 H 0.24026 0.42396 0.27432 0.0
H764 H 0.21005 0.44013 0.30456 0.0
H765 H 0.15662 0.40873 0.2639 0.0
H766 H 0.07288 0.46474 0.28048 0.0
H767 H 0.10201 0.44621 0.25608 0.0
H768 H 0.15721 0.48062 0.27799 0.0
C769 C 0.20967 0.42927 0.26743 0.0
C770 C 0.15683 0.42443 0.26682 0.0
C771 C 0.2269 0.41997 0.25039 0.0
C772 C 0.0867 0.46986 0.29855 0.0
C773 C 0.1034 0.45907 0.28527 0.0
C774 C 0.15688 0.46492 0.27626 0.0
C775 C 0.19212 0.42453 0.23717 0.0
C776 C 0.17399 0.43479 0.25456 0.0
C777 C 0.12168 0.46525 0.30732 0.0
C778 C 0.1397 0.45462 0.28947 0.0
H779 H 0.209 0.3899 0.13601 0.0
H780 H 0.17874 0.40626 0.16579 0.0
H781 H 0.1868 0.46346 0.24927 0.0
H782 H 0.10757 0.50633 0.38431 0.0
H783 H 0.13645 0.4871 0.3638 0.0
C784 C 0.88784 0.7913 0.97641 0.0
C785 C 0.89828 0.7832 0.02703 0.0
C786 C 0.89353 0.80908 0.9503 0.0
C787 C 0.93718 0.84 0.93652 0.0
H788 H 0.90122 0.87801 0.86873 0.0
C789 C 0.96678 0.90852 0.82507 0.0
C790 C 0.96032 0.91168 0.76285 0.0
C791 C 0.95649 0.89628 0.86542 0.0
C792 C 0.9114 0.86755 0.88776 0.0
H793 H 0.92339 0.78686 0.08775 0.0
H794 H 0.93264 0.81817 0.04521 0.0
H795 H 0.88867 0.84937 0.9238 0.0
H796 H 0.93669 0.90637 0.697 0.0
H797 H 0.919 0.88445 0.76706 0.0
H798 H 0.95985 0.85788 0.90031 0.0
C799 C 0.9201 0.8109 0.02522 0.0
C800 C 0.90424 0.85109 0.91891 0.0
C801 C 0.91451 0.79312 0.0508 0.0
C802 C 0.94236 0.90376 0.74403 0.0
C803 C 0.9321 0.89139 0.7844 0.0
C804 C 0.94428 0.85644 0.90618 0.0
C805 C 0.90986 0.81902 0.97408 0.0
C806 C 0.91709 0.83705 0.94332 0.0
C807 C 0.93958 0.88682 0.8444 0.0
C808 C 0.93152 0.87036 0.88115 0.0
H809 H 0.8754 0.78379 0.95665 0.0
H810 H 0.8855 0.81471 0.91024 0.0
H811 H 0.94753 0.8293 0.95298 0.0
H812 H 0.98052 0.91434 0.84137 0.0
H813 H 0.96238 0.89333 0.91197 0.0
C814 C 0.724 0.89287 0.92992 0.0
C815 C 0.72645 0.89251 0.99588 0.0
C816 C 0.70671 0.89969 0.9033 0.0
C817 C 0.66772 0.93364 0.93574 0.0
H818 H 0.6437 0.91045 0.78808 0.0
C819 C 0.60943 0.97595 0.8005 0.0
C820 C 0.61094 0.97545 0.73413 0.0
C821 C 0.61911 0.96225 0.83778 0.0
C822 C 0.65012 0.91718 0.82927 0.0
H823 H 0.71186 0.8969 0.08557 0.0
H824 H 0.68201 0.9098 0.03913 0.0
H825 H 0.66934 0.89309 0.84344 0.0
H826 H 0.62209 0.95855 0.65528 0.0
H827 H 0.64014 0.93589 0.7196 0.0
H828 H 0.64952 0.95818 0.92011 0.0
C829 C 0.69364 0.90517 0.00811 0.0
C830 C 0.66486 0.90718 0.86099 0.0
C831 C 0.71086 0.89811 0.03468 0.0
C832 C 0.6212 0.95998 0.7062 0.0
C833 C 0.6313 0.94663 0.74342 0.0
C834 C 0.65312 0.94373 0.90374 0.0
C835 C 0.69151 0.90629 0.94213 0.0
C836 C 0.67412 0.91552 0.91362 0.0
C837 C 0.63095 0.94795 0.80985 0.0
C838 C 0.64438 0.93586 0.84908 0.0
H839 H 0.73569 0.88842 0.89882 0.0
H840 H 0.70552 0.90048 0.85227 0.0
H841 H 0.67474 0.94052 0.97584 0.0
H842 H 0.60163 0.98749 0.8242 0.0
H843 H 0.6179 0.9634 0.88869 0.0
C844 C 0.59569 0.73936 0.92002 0.0
C845 C 0.60384 0.73894 0.98098 0.0
C846 C 0.58344 0.72441 0.89956 0.0
C847 C 0.54987 0.68799 0.95812 0.0
H848 H 0.55691 0.66311 0.79515 0.0
C849 C 0.5032 0.6223 0.87937 0.0
C850 C 0.49882 0.6204 0.8148 0.0
C851 C 0.516 0.63674 0.90028 0.0
C852 C 0.55448 0.6701 0.84036 0.0
H853 H 0.60698 0.72171 0.06604 0.0
H854 H 0.58515 0.6958 0.03084 0.0
H855 H 0.57963 0.68816 0.82945 0.0
H856 H 0.50369 0.63249 0.72172 0.0
H857 H 0.52534 0.65819 0.75812 0.0
H858 H 0.52441 0.67051 0.9686 0.0
C859 C 0.58786 0.70798 0.9997 0.0
C860 C 0.56762 0.68436 0.86009 0.0
C861 C 0.60016 0.7229 0.02007 0.0
C862 C 0.507 0.63355 0.77173 0.0
C863 C 0.51954 0.64816 0.79266 0.0
C864 C 0.53654 0.67393 0.93805 0.0
C865 C 0.57917 0.70875 0.93963 0.0
C866 C 0.56544 0.69341 0.91914 0.0
C867 C 0.52448 0.64978 0.85711 0.0
C868 C 0.53865 0.66479 0.87882 0.0
H869 H 0.59847 0.75146 0.88862 0.0
H870 H 0.57696 0.72532 0.85293 0.0
H871 H 0.54774 0.69496 0.00354 0.0
H872 H 0.49724 0.61219 0.91342 0.0
H873 H 0.51962 0.6373 0.95009 0.0
C874 C 0.77745 0.5872 0.90309 0.0
C875 C 0.77627 0.59519 0.96411 0.0
C876 C 0.79309 0.57534 0.88636 0.0
C877 C 0.8289 0.54255 0.95527 0.0
H878 H 0.85521 0.54799 0.79428 0.0
C879 C 0.89695 0.49743 0.88739 0.0
C880 C 0.89951 0.49273 0.82334 0.0
C881 C 0.8815 0.50932 0.90617 0.0
C882 C 0.84781 0.54601 0.83898 0.0
H883 H 0.79152 0.59881 0.05302 0.0
H884 H 0.81849 0.57734 0.02485 0.0
H885 H 0.82975 0.57086 0.82318 0.0
H886 H 0.88749 0.49565 0.7292 0.0
H887 H 0.86007 0.51565 0.76198 0.0
H888 H 0.84659 0.51744 0.97061 0.0
C889 C 0.80706 0.57989 0.99056 0.0
C890 C 0.83332 0.55923 0.85564 0.0
C891 C 0.79154 0.59197 0.00693 0.0
C892 C 0.88584 0.49921 0.77886 0.0
C893 C 0.87028 0.51084 0.79764 0.0
C894 C 0.84326 0.52916 0.9383 0.0
C895 C 0.80783 0.57123 0.9304 0.0
C896 C 0.82369 0.55761 0.91384 0.0
C897 C 0.86823 0.51655 0.86124 0.0
C898 C 0.85285 0.53067 0.87976 0.0
H899 H 0.76592 0.58955 0.86899 0.0
H900 H 0.79331 0.56885 0.83965 0.0
H901 H 0.82154 0.54086 0.00019 0.0
H902 H 0.90746 0.49277 0.92239 0.0
H903 H 0.8805 0.51352 0.95543 0.0
C904 C 0.04512 0.16695 0.01244 0.0
C905 C 0.06445 0.17234 0.00023 0.0
C906 C 0.03721 0.15033 0.98458 0.0
C907 C 0.05 0.10465 0.9011 0.0
H908 H -0.00141 0.11027 0.82817 0.0
C909 C 0.01937 0.05268 0.71144 0.0
C910 C -0.00026 0.04737 0.71591 0.0
C911 C 0.02716 0.06657 0.75242 0.0
C912 C 0.01282 0.10834 0.84911 0.0
H913 H 0.09082 0.16419 0.95082 0.0
H914 H 0.07692 0.13535 0.90135 0.0
H915 H 0.0125 0.13683 0.88926 0.0
H916 H 0.97264 0.05273 0.76457 0.0
H917 H 0.98625 0.07701 0.83689 0.0
H918 H 0.0504 0.07624 0.8596 0.0
C919 C 0.06794 0.14384 0.93304 0.0
C920 C 0.02081 0.12356 0.88419 0.0
C921 C 0.07587 0.16044 0.96107 0.0
C922 C 0.98789 0.05644 0.76102 0.0
C923 C 0.99566 0.07035 0.80206 0.0
C924 C 0.04201 0.0894 0.8659 0.0
C925 C 0.04843 0.13874 0.94378 0.0
C926 C 0.03957 0.12199 0.91005 0.0
C927 C 0.01537 0.07562 0.79801 0.0
C928 C 0.02341 0.09118 0.83896 0.0
H929 H 0.03601 0.17566 0.04311 0.0
H930 H 0.02224 0.14661 0.99471 0.0
H931 H 0.06437 0.10287 0.92119 0.0
H932 H 0.02865 0.04631 0.67573 0.0
H933 H 0.04229 0.07057 0.74732 0.0
C934 C 0.36014 0.08049 0.93256 0.0
C935 C 0.34869 0.06878 0.97206 0.0
C936 C 0.37724 0.07325 0.90598 0.0
C937 C 0.4 0.02715 0.8601 0.0
H938 H 0.4457 0.05921 0.8358 0.0
C939 C 0.46819 -0.00134 0.73064 0.0
C940 C 0.47639 0.01145 0.68657 0.0
C941 C 0.45413 0.00525 0.7733 0.0
C942 C 0.43301 0.05011 0.84205 0.0
H943 H 0.34664 0.04052 0.01687 0.0
H944 H 0.37655 0.02792 0.97065 0.0
H945 H 0.41845 0.07168 0.89753 0.0
H946 H 0.47544 0.04072 0.64945 0.0
H947 H 0.45107 0.05227 0.72365 0.0
H948 H 0.41432 0.00577 0.80345 0.0
C949 C 0.37213 0.04261 0.95941 0.0
C950 C 0.41741 0.05725 0.87737 0.0
C951 C 0.35502 0.04985 0.986 0.0
C952 C 0.46996 0.03076 0.68458 0.0
C953 C 0.45593 0.03735 0.72706 0.0
C954 C 0.41558 0.02002 0.82477 0.0
C955 C 0.38329 0.05413 0.9184 0.0
C956 C 0.4006 0.04597 0.88591 0.0
C957 C 0.44782 0.02467 0.77185 0.0
C958 C 0.43212 0.03154 0.81443 0.0
H959 H 0.35569 0.09515 0.92097 0.0
H960 H 0.38539 0.08243 0.87404 0.0
H961 H 0.38716 0.01819 0.86505 0.0
H962 H 0.4727 0.9836 0.73213 0.0
H963 H 0.44818 0.99513 0.80734 0.0
C964 C 0.42832 0.33429 0.88706 0.0
C965 C 0.43502 0.33013 0.94838 0.0
C966 C 0.43561 0.35025 0.85396 0.0
C967 C 0.45712 0.39802 0.87859 0.0
H968 H 0.47266 0.39395 0.70271 0.0
C969 C 0.46809 0.46448 0.71665 0.0
C970 C 0.48511 0.46481 0.67989 0.0
C971 C 0.46292 0.44788 0.75044 0.0
C972 C 0.46846 0.39525 0.75191 0.0
H973 H 0.45464 0.33936 0.02303 0.0
H974 H 0.46716 0.3674 0.96536 0.0
H975 H 0.46211 0.36487 0.75963 0.0
H976 H 0.50986 0.44766 0.64913 0.0
H977 H 0.50056 0.41855 0.70735 0.0
H978 H 0.46319 0.42843 0.87065 0.0
C979 C 0.45633 0.35826 0.94297 0.0
C980 C 0.46231 0.37868 0.78427 0.0
C981 C 0.44923 0.34216 0.97577 0.0
C982 C 0.49669 0.44799 0.67708 0.0
C983 C 0.49136 0.43128 0.71024 0.0
C984 C 0.46301 0.41462 0.846 0.0
C985 C 0.44954 0.36249 0.88185 0.0
C986 C 0.45655 0.37992 0.84788 0.0
C987 C 0.47447 0.4311 0.7474 0.0
C988 C 0.4687 0.4134 0.78233 0.0
H989 H 0.41739 0.32527 0.86469 0.0
H990 H 0.43002 0.35328 0.80708 0.0
H991 H 0.45261 0.3994 0.92748 0.0
H992 H 0.45858 0.47696 0.71888 0.0
H993 H 0.44967 0.44803 0.778 0.0
C994 C 0.189 0.45869 0.92012 0.0
C995 C 0.18994 0.43882 0.93506 0.0
C996 C 0.17336 0.46606 0.88536 0.0
C997 C 0.12241 0.45522 0.84651 0.0
H998 H 0.12929 0.4931 0.71285 0.0
C999 C 0.05931 0.47682 0.68455 0.0
C1000 C 0.05694 0.49661 0.67036 0.0
C1001 C 0.0761 0.4702 0.71437 0.0
C1002 C 0.12713 0.4827 0.75053 0.0
H1003 H 0.17541 0.41106 0.92394 0.0
H1004 H 0.14824 0.4239 0.86317 0.0
H1005 H 0.15767 0.48064 0.76948 0.0
H1006 H 0.0709 0.52484 0.67375 0.0
H1007 H 0.10024 0.51327 0.72677 0.0
H1008 H 0.09195 0.45729 0.82819 0.0
C1009 C 0.15946 0.43382 0.879 0.0
C1010 C 0.14337 0.47555 0.78288 0.0
C1011 C 0.17509 0.42645 0.91354 0.0
C1012 C 0.07214 0.50954 0.6846 0.0
C1013 C 0.08901 0.50289 0.71466 0.0
C1014 C 0.10622 0.46238 0.81438 0.0
C1015 C 0.15831 0.45374 0.86504 0.0
C1016 C 0.14118 0.46162 0.83092 0.0
C1017 C 0.09103 0.48318 0.73075 0.0
C1018 C 0.10837 0.47608 0.76567 0.0
H1019 H 0.20021 0.46861 0.93594 0.0
H1020 H 0.17281 0.48149 0.87577 0.0
H1021 H 0.12019 0.44482 0.88417 0.0
H1022 H 0.04817 0.46632 0.67274 0.0
H1023 H 0.07738 0.45485 0.72457 0.0
C1024 C 0.93824 0.83615 0.29656 0.0
C1025 C 0.92761 0.83923 0.24068 0.0
C1026 C 0.94771 0.85158 0.32654 0.0
C1027 C 0.96656 0.90118 0.3012 0.0
H1028 H 0.96107 0.90539 0.48326 0.0
C1029 C 0.00835 0.95693 0.45854 0.0
C1030 C 0.99714 0.96634 0.50474 0.0
C1031 C 0.00035 0.94184 0.42242 0.0
C1032 C 0.96268 0.90444 0.43236 0.0
H1033 H 0.91888 0.86088 0.17181 0.0
H1034 H 0.93531 0.88783 0.2245 0.0
H1035 H 0.94633 0.87809 0.42772 0.0
H1036 H 0.96918 0.96659 0.55146 0.0
H1037 H 0.95512 0.94086 0.48817 0.0
H1038 H 0.98271 0.92781 0.30619 0.0
C1039 C 0.93643 0.87345 0.24482 0.0
C1040 C 0.95441 0.88871 0.40064 0.0
C1041 C 0.92689 0.85803 0.21494 0.0
C1042 C 0.97794 0.96025 0.51471 0.0
C1043 C 0.96998 0.94522 0.47905 0.0
C1044 C 0.97495 0.91691 0.33309 0.0
C1045 C 0.94681 0.87042 0.30121 0.0
C1046 C 0.95616 0.88693 0.33469 0.0
C1047 C 0.98116 0.93567 0.43311 0.0
C1048 C 0.97293 0.91877 0.39892 0.0
H1049 H 0.93918 0.82184 0.31745 0.0
H1050 H 0.95579 0.84874 0.36953 0.0
H1051 H 0.96828 0.90011 0.25039 0.0
H1052 H 0.02334 0.96112 0.45094 0.0
H1053 H 0.00936 0.93458 0.3877 0.0
C1054 C 0.68412 0.95854 0.22514 0.0
C1055 C 0.68745 0.93894 0.2402 0.0
C1056 C 0.66932 0.96898 0.25533 0.0
C1057 C 0.63924 0.96876 0.39959 0.0
H1058 H 0.60372 0.00088 0.30299 0.0
C1059 C 0.56683 0.99422 0.50229 0.0
C1060 C 0.56094 0.01343 0.49152 0.0
C1061 C 0.58274 0.98646 0.47052 0.0
C1062 C 0.6137 0.99219 0.33067 0.0
H1063 H 0.67783 0.91494 0.29866 0.0
H1064 H 0.65213 0.93307 0.35103 0.0
H1065 H 0.63092 0.98489 0.24957 0.0
H1066 H 0.56755 0.03992 0.44109 0.0
H1067 H 0.59563 0.02628 0.38471 0.0
H1068 H 0.62203 0.97586 0.48051 0.0
C1069 C 0.66104 0.94045 0.31638 0.0
C1070 C 0.62925 0.98303 0.30013 0.0
C1071 C 0.67571 0.93002 0.28605 0.0
C1072 C 0.57159 0.02492 0.44914 0.0
C1073 C 0.58757 0.01712 0.41693 0.0
C1074 C 0.62377 0.97791 0.43003 0.0
C1075 C 0.65768 0.96005 0.30148 0.0
C1076 C 0.64199 0.97095 0.33414 0.0
C1077 C 0.59338 -0.00217 0.42776 0.0
C1078 C 0.61063 0.98944 0.39575 0.0
H1079 H 0.69289 0.96583 0.18993 0.0
H1080 H 0.66715 0.98409 0.24314 0.0
H1081 H 0.64903 0.95987 0.42733 0.0
H1082 H 0.55948 0.98519 0.53626 0.0
H1083 H 0.58673 0.97151 0.47959 0.0
C1084 C 0.56086 0.69988 0.26912 0.0
C1085 C 0.55975 0.70055 0.20289 0.0
C1086 C 0.55438 0.68352 0.30197 0.0
C1087 C 0.52615 0.63736 0.28144 0.0
H1088 H 0.5543 0.62245 0.4328 0.0
C1089 C 0.52162 0.56148 0.40019 0.0
C1090 C 0.51662 0.56195 0.46448 0.0
C1091 C 0.52621 0.57866 0.36836 0.0
C1092 C 0.54629 0.62653 0.39072 0.0
H1093 H 0.55103 0.68467 0.11895 0.0
H1094 H 0.54058 0.65585 0.17552 0.0
H1095 H 0.56343 0.65199 0.377 0.0
H1096 H 0.51259 0.58049 0.54629 0.0
H1097 H 0.52122 0.61051 0.49099 0.0
H1098 H 0.50964 0.61123 0.29429 0.0
C1099 C 0.54575 0.66813 0.20277 0.0
C1100 C 0.55137 0.64355 0.3589 0.0
C1101 C 0.55185 0.68465 0.17011 0.0
C1102 C 0.51638 0.5798 0.4966 0.0
C1103 C 0.52137 0.59691 0.46519 0.0
C1104 C 0.52136 0.62013 0.31259 0.0
C1105 C 0.54705 0.66725 0.2692 0.0
C1106 C 0.54135 0.64925 0.30382 0.0
C1107 C 0.52623 0.59648 0.40075 0.0
C1108 C 0.53136 0.61462 0.36752 0.0
H1109 H 0.56677 0.712 0.29559 0.0
H1110 H 0.55519 0.68366 0.3531 0.0
H1111 H 0.51779 0.64138 0.24009 0.0
H1112 H 0.52154 0.54797 0.37419 0.0
H1113 H 0.52993 0.57801 0.31862 0.0
C1114 C 0.80823 0.54974 0.30168 0.0
C1115 C 0.80835 0.55966 0.24366 0.0
C1116 C 0.82568 0.54519 0.33219 0.0
C1117 C 0.8787 0.54049 0.3042 0.0
H1118 H 0.88226 0.54776 0.4858 0.0
C1119 C 0.95187 0.54057 0.43771 0.0
C1120 C 0.95263 0.52977 0.49387 0.0
C1121 C 0.93412 0.54394 0.40752 0.0
C1122 C 0.88142 0.54551 0.43514 0.0
H1123 H 0.82692 0.57234 0.17175 0.0
H1124 H 0.85719 0.56472 0.22528 0.0
H1125 H 0.85141 0.55351 0.43205 0.0
H1126 H 0.9353 0.51423 0.56301 0.0
H1127 H 0.90437 0.52012 0.51035 0.0
H1128 H 0.90881 0.53277 0.30732 0.0
C1129 C 0.84368 0.56018 0.24691 0.0
C1130 C 0.86374 0.54872 0.40436 0.0
C1131 C 0.82628 0.56467 0.21639 0.0
C1132 C 0.93524 0.52256 0.5196 0.0
C1133 C 0.91749 0.52605 0.48974 0.0
C1134 C 0.89639 0.53738 0.33494 0.0
C1135 C 0.84361 0.55048 0.30532 0.0
C1136 C 0.86219 0.54633 0.33847 0.0
C1137 C 0.91675 0.53667 0.43317 0.0
C1138 C 0.89795 0.53993 0.40067 0.0
H1139 H 0.79466 0.54561 0.3238 0.0
H1140 H 0.82513 0.53747 0.37673 0.0
H1141 H 0.87793 0.53818 0.25357 0.0
H1142 H 0.96495 0.54604 0.41614 0.0
H1143 H 0.93397 0.5523 0.36416 0.0
loop_
_geom_bond_atom_site_label_1
_geom_bond_atom_site_label_2
_geom_bond_distance
_geom_bond_site_symmetry_2
_ccdc_geom_bond_type
O0 Cd1 2.300 . S
O0 C7 1.275 . S
Cd1 O0 2.300 . S
Cd1 O9 2.381 . S
Cd1 O10 2.378 . S
O2 Cd3 2.385 . S
O2 C7 1.255 . S
Cd3 O2 2.385 . S
Cd3 O4 2.317 . S
O4 Cd3 2.317 . S
O4 C5 1.232 . S
C5 O4 1.232 . S
C5 O6 1.218 . S
O6 C5 1.218 . S
C7 O0 1.275 . S
C7 O2 1.255 . S
C8 O9 1.258 . S
C8 O10 1.256 . S
O9 Cd1 2.381 . S
O9 C8 1.258 . S
O10 Cd1 2.378 . S
O10 C8 1.256 . S
O11 Cd12 2.300 . S
O11 C18 1.275 . S
Cd12 O11 2.300 . S
Cd12 O20 2.381 . S
Cd12 O21 2.378 . S
O13 Cd14 2.385 . S
O13 C18 1.255 . S
Cd14 O13 2.385 . S
Cd14 O15 2.317 . S
O15 Cd14 2.317 . S
O15 C16 1.232 . S
C16 O15 1.232 . S
C16 O17 1.218 . S
O17 C16 1.218 . S
C18 O11 1.275 . S
C18 O13 1.255 . S
C19 O20 1.258 . S
C19 O21 1.256 . S
O20 Cd12 2.381 . S
O20 C19 1.258 . S
O21 Cd12 2.378 . S
O21 C19 1.256 . S
O22 Cd23 2.300 . S
O22 C29 1.275 . S
Cd23 O22 2.300 . S
Cd23 O31 2.381 . S
Cd23 O32 2.378 . S
O24 Cd25 2.385 . S
O24 C29 1.255 . S
Cd25 O24 2.385 . S
Cd25 O26 2.317 . S
O26 Cd25 2.317 . S
O26 C27 1.232 . S
C27 O26 1.232 . S
C27 O28 1.218 . S
O28 C27 1.218 . S
C29 O22 1.275 . S
C29 O24 1.255 . S
C30 O31 1.258 . S
C30 O32 1.256 . S
O31 Cd23 2.381 . S
O31 C30 1.258 . S
O32 Cd23 2.378 . S
O32 C30 1.256 . S
O33 Cd34 2.300 . S
O33 C40 1.275 . S
Cd34 O33 2.300 . S
Cd34 O42 2.381 . S
Cd34 O43 2.378 . S
O35 Cd36 2.385 . S
O35 C40 1.255 . S
Cd36 O35 2.385 . S
Cd36 O37 2.317 . S
O37 Cd36 2.317 . S
O37 C38 1.232 . S
C38 O37 1.232 . S
C38 O39 1.218 . S
O39 C38 1.218 . S
C40 O33 1.275 . S
C40 O35 1.255 . S
C41 O42 1.258 . S
C41 O43 1.256 . S
O42 Cd34 2.381 . S
O42 C41 1.258 . S
O43 Cd34 2.378 . S
O43 C41 1.256 . S
O44 Cd45 2.300 . S
O44 C51 1.275 . S
Cd45 O44 2.300 . S
Cd45 O53 2.381 . S
Cd45 O54 2.378 . S
O46 Cd47 2.385 1_554 S
O46 C51 1.255 . S
Cd47 O46 2.385 1_556 S
Cd47 O48 2.317 . S
O48 Cd47 2.317 . S
O48 C49 1.232 . S
C49 O48 1.232 . S
C49 O50 1.218 . S
O50 C49 1.218 . S
C51 O44 1.275 . S
C51 O46 1.255 . S
C52 O53 1.258 . S
C52 O54 1.256 . S
O53 Cd45 2.381 . S
O53 C52 1.258 . S
O54 Cd45 2.378 . S
O54 C52 1.256 . S
O55 Cd56 2.300 . S
O55 C62 1.275 . S
Cd56 O55 2.300 . S
Cd56 O64 2.381 . S
Cd56 O65 2.378 . S
O57 Cd58 2.385 1_554 S
O57 C62 1.255 . S
Cd58 O57 2.385 1_556 S
Cd58 O59 2.317 . S
O59 Cd58 2.317 . S
O59 C60 1.232 . S
C60 O59 1.232 . S
C60 O61 1.218 . S
O61 C60 1.218 . S
C62 O55 1.275 . S
C62 O57 1.255 . S
C63 O64 1.258 . S
C63 O65 1.256 . S
O64 Cd56 2.381 . S
O64 C63 1.258 . S
O65 Cd56 2.378 . S
O65 C63 1.256 . S
O66 Cd67 2.300 . S
O66 C73 1.275 . S
Cd67 O66 2.300 . S
Cd67 O75 2.381 . S
Cd67 O76 2.378 . S
O68 Cd69 2.385 1_554 S
O68 C73 1.255 . S
Cd69 O68 2.385 1_556 S
Cd69 O70 2.317 . S
O70 Cd69 2.317 . S
O70 C71 1.232 . S
C71 O70 1.232 . S
C71 O72 1.218 . S
O72 C71 1.218 . S
C73 O66 1.275 . S
C73 O68 1.255 . S
C74 O75 1.258 . S
C74 O76 1.256 . S
O75 Cd67 2.381 . S
O75 C74 1.258 . S
O76 Cd67 2.378 . S
O76 C74 1.256 . S
O77 Cd78 2.300 . S
O77 C84 1.275 . S
Cd78 O77 2.300 . S
Cd78 O86 2.381 . S
Cd78 O87 2.378 . S
O79 Cd80 2.385 1_554 S
O79 C84 1.255 . S
Cd80 O79 2.385 1_556 S
Cd80 O81 2.317 . S
O81 Cd80 2.317 . S
O81 C82 1.232 . S
C82 O81 1.232 . S
C82 O83 1.218 . S
O83 C82 1.218 . S
C84 O77 1.275 . S
C84 O79 1.255 . S
C85 O86 1.258 . S
C85 O87 1.256 . S
O86 Cd78 2.381 . S
O86 C85 1.258 . S
O87 Cd78 2.378 . S
O87 C85 1.256 . S
Gd88 N119 2.661 . S
Gd88 N125 2.601 . S
Gd88 O132 2.545 . S
Gd88 O133 2.606 1_655 S
Gd88 O135 2.429 . S
Gd88 O136 2.545 1_655 S
Gd88 O137 2.413 . S
Gd88 O139 2.362 1_545 S
Gd88 O140 2.324 1_655 S
Gd88 C147 2.828 . S
Gd89 N98 2.661 1_565 S
Gd89 N102 2.609 . S
Gd89 O133 2.362 1_565 S
Gd89 O134 2.336 1_455 S
Gd89 O138 2.545 . S
Gd89 O139 2.606 1_455 S
Gd89 O141 2.429 . S
Gd89 O142 2.545 . S
Gd89 O143 2.412 . S
Gd89 C156 2.828 . S
C90 C93 1.417 . S
C90 C95 1.431 . S
C90 C96 1.412 . S
C91 C94 1.437 . S
C91 C95 1.317 . S
C91 H110 0.929 . S
C92 C93 1.426 . S
C92 C94 1.413 . S
C92 N102 1.342 1_545 S
C93 C90 1.417 . S
C93 C92 1.426 . S
C93 N98 1.350 . S
C94 C91 1.437 . S
C94 C92 1.413 . S
C94 C104 1.391 . S
C95 C90 1.431 . S
C95 C91 1.317 . S
C95 H106 0.930 . S
C96 C90 1.412 . S
C96 C97 1.355 . S
C96 H108 0.930 . S
C97 C96 1.355 . S
C97 C99 1.402 . S
C97 H109 0.930 1_455 S
N98 Gd89 2.661 1_545 S
N98 C93 1.350 . S
N98 C99 1.307 . S
C99 C97 1.402 . S
C99 N98 1.307 . S
C99 H100 0.930 1_455 S
H100 C99 0.930 1_655 S
C101 N102 1.349 . S
C101 C103 1.394 . S
C101 H105 0.930 . S
N102 Gd89 2.609 . S
N102 C92 1.342 1_565 S
N102 C101 1.349 . S
C103 C101 1.394 . S
C103 C104 1.359 1_565 S
C103 H115 0.930 . S
C104 C94 1.391 . S
C104 C103 1.359 1_545 S
C104 H116 0.929 . S
H105 C101 0.930 . S
H106 C95 0.930 . S
H107 C124 0.930 . S
H108 C96 0.930 . S
H109 C97 0.930 1_655 S
H110 C91 0.929 . S
H111 C129 0.930 . S
H112 C120 0.930 . S
H113 C121 0.930 . S
H114 C145 0.929 . S
H115 C103 0.930 . S
H116 C104 0.929 . S
H117 C146 0.930 . S
H118 C127 0.930 . S
N119 Gd88 2.661 . S
N119 C123 1.350 . S
N119 C124 1.307 1_645 S
C120 H112 0.930 . S
C120 C121 1.355 1_655 S
C120 C122 1.412 . S
C121 H113 0.930 . S
C121 C120 1.355 1_455 S
C121 C124 1.402 . S
C122 C120 1.412 . S
C122 C123 1.417 1_565 S
C122 C146 1.431 . S
C123 N119 1.350 . S
C123 C122 1.417 1_545 S
C123 C126 1.426 . S
C124 H107 0.930 . S
C124 N119 1.307 1_465 S
C124 C121 1.402 . S
N125 Gd88 2.601 . S
N125 C126 1.359 . S
N125 C129 1.334 . S
C126 C123 1.426 . S
C126 N125 1.359 . S
C126 C130 1.413 . S
C127 H118 0.930 . S
C127 C128 1.359 . S
C127 C129 1.394 . S
C128 C127 1.359 . S
C128 C130 1.391 . S
C128 H131 0.929 . S
C129 H111 0.930 . S
C129 N125 1.334 . S
C129 C127 1.394 . S
C130 C126 1.413 . S
C130 C128 1.391 . S
C130 C145 1.437 1_545 S
H131 C128 0.929 . S
O132 Gd88 2.545 . S
O132 C147 1.258 . S
O133 Gd88 2.606 1_455 S
O133 Gd89 2.362 1_545 S
O133 C144 1.284 . S
O134 Gd89 2.336 1_655 S
O134 C154 1.236 1_565 S
O135 Gd88 2.429 . S
O135 C154 1.268 . S
O136 Gd88 2.545 1_455 S
O136 C144 1.250 . S
O137 Gd88 2.413 . S
O137 C147 1.254 . S
O138 Gd89 2.545 . S
O138 C156 1.258 . S
O139 Gd88 2.362 1_565 S
O139 Gd89 2.606 1_655 S
O139 C155 1.284 . S
O140 Gd88 2.324 1_455 S
O140 C163 1.254 . S
O141 Gd89 2.429 . S
O141 C163 1.268 1_565 S
O142 Gd89 2.545 . S
O142 C155 1.250 1_455 S
O143 Gd89 2.412 . S
O143 C156 1.252 . S
C144 O133 1.284 . S
C144 O136 1.250 . S
C145 H114 0.929 . S
C145 C130 1.437 1_565 S
C145 C146 1.317 . S
C146 H117 0.930 . S
C146 C122 1.431 . S
C146 C145 1.317 . S
C147 Gd88 2.828 . S
C147 O132 1.258 . S
C147 O137 1.254 . S
C147 C148 1.497 . S
C148 C147 1.497 . S
C148 C149 1.395 . S
C148 C150 1.380 1_655 S
C149 C148 1.395 . S
C149 C152 1.398 . S
C149 H164 0.930 . S
C150 C148 1.380 1_455 S
C150 C151 1.391 . S
C150 H165 0.930 . S
C151 C150 1.391 . S
C151 C153 1.379 1_455 S
C152 C149 1.398 . S
C152 C153 1.380 . S
C152 H166 0.930 . S
C153 C151 1.379 1_655 S
C153 C152 1.380 . S
C153 H167 0.930 . S
C154 O134 1.236 1_545 S
C154 O135 1.268 . S
C155 O139 1.284 . S
C155 O142 1.250 1_655 S
C156 Gd89 2.828 . S
C156 O138 1.258 . S
C156 O143 1.252 . S
C156 C157 1.497 . S
C157 C156 1.497 . S
C157 C158 1.395 . S
C157 C159 1.380 . S
C158 C157 1.395 . S
C158 C161 1.398 . S
C158 H168 0.930 . S
C159 C157 1.380 . S
C159 C160 1.391 . S
C159 H169 0.930 1_455 S
C160 C159 1.391 . S
C160 C162 1.387 . S
C161 C158 1.398 . S
C161 C162 1.380 . S
C161 H170 0.930 . S
C162 C160 1.387 . S
C162 C161 1.380 . S
C162 H171 0.930 . S
C163 O140 1.254 . S
C163 O141 1.268 1_545 S
H164 C149 0.930 . S
H165 C150 0.930 . S
H166 C152 0.930 . S
H167 C153 0.930 . S
H168 C158 0.930 . S
H169 C159 0.930 1_655 S
H170 C161 0.930 . S
H171 C162 0.930 . S
Gd172 N203 2.661 . S
Gd172 N209 2.601 . S
Gd172 O216 2.545 . S
Gd172 O217 2.606 1_565 S
Gd172 O219 2.429 . S
Gd172 O220 2.545 1_565 S
Gd172 O221 2.412 1_565 S
Gd172 O223 2.361 1_565 S
Gd172 O224 2.324 1_565 S
Gd172 C231 2.828 . S
Gd173 N182 2.661 . S
Gd173 N186 2.601 . S
Gd173 O217 2.362 . S
Gd173 O218 2.324 1_545 S
Gd173 O222 2.545 . S
Gd173 O223 2.609 . S
Gd173 O225 2.429 . S
Gd173 O226 2.545 . S
Gd173 O227 2.412 . S
Gd173 C240 2.828 . S
C174 C177 1.417 . S
C174 C179 1.431 . S
C174 C180 1.412 . S
C175 C178 1.437 . S
C175 C179 1.317 . S
C175 H194 0.929 . S
C176 C177 1.426 . S
C176 C178 1.413 . S
C176 N186 1.359 . S
C177 C174 1.417 . S
C177 C176 1.426 . S
C177 N182 1.350 . S
C178 C175 1.437 . S
C178 C176 1.413 . S
C178 C188 1.391 . S
C179 C174 1.431 . S
C179 C175 1.317 . S
C179 H190 0.930 . S
C180 C174 1.412 . S
C180 C181 1.355 . S
C180 H192 0.930 . S
C181 C180 1.355 . S
C181 C183 1.402 . S
C181 H193 0.930 1_545 S
N182 Gd173 2.661 . S
N182 C177 1.350 . S
N182 C183 1.307 . S
C183 C181 1.402 . S
C183 N182 1.307 . S
C183 H184 0.930 1_545 S
H184 C183 0.930 1_565 S
C185 N186 1.334 . S
C185 C187 1.394 . S
C185 H189 0.930 . S
N186 Gd173 2.601 . S
N186 C176 1.359 . S
N186 C185 1.334 . S
C187 C185 1.394 . S
C187 C188 1.359 . S
C187 H199 0.930 . S
C188 C178 1.391 . S
C188 C187 1.359 . S
C188 H200 0.929 . S
H189 C185 0.930 . S
H190 C179 0.930 . S
H191 C208 0.930 . S
H192 C180 0.930 . S
H193 C181 0.930 1_565 S
H194 C175 0.929 . S
H195 C213 0.930 . S
H196 C204 0.930 . S
H197 C205 0.930 . S
H198 C229 0.929 . S
H199 C187 0.930 . S
H200 C188 0.929 . S
H201 C230 0.930 . S
H202 C211 0.930 . S
N203 Gd172 2.661 . S
N203 C207 1.350 . S
N203 C208 1.307 1_565 S
C204 H196 0.930 . S
C204 C205 1.355 1_565 S
C204 C206 1.412 . S
C205 H197 0.930 . S
C205 C204 1.355 1_545 S
C205 C208 1.402 . S
C206 C204 1.412 . S
C206 C207 1.417 . S
C206 C230 1.431 . S
C207 N203 1.350 . S
C207 C206 1.417 . S
C207 C210 1.426 . S
C208 H191 0.930 . S
C208 N203 1.307 1_545 S
C208 C205 1.402 . S
N209 Gd172 2.601 . S
N209 C210 1.359 . S
N209 C213 1.334 . S
C210 C207 1.426 . S
C210 N209 1.359 . S
C210 C214 1.413 . S
C211 H202 0.930 . S
C211 C212 1.359 . S
C211 C213 1.394 . S
C212 C211 1.359 . S
C212 C214 1.391 . S
C212 H215 0.929 . S
C213 H195 0.930 . S
C213 N209 1.334 . S
C213 C211 1.394 . S
C214 C210 1.413 . S
C214 C212 1.391 . S
C214 C229 1.437 . S
H215 C212 0.929 . S
O216 Gd172 2.545 . S
O216 C231 1.258 . S
O217 Gd172 2.606 1_545 S
O217 Gd173 2.362 . S
O217 C228 1.284 . S
O218 Gd173 2.324 1_565 S
O218 C238 1.254 . S
O219 Gd172 2.429 . S
O219 C238 1.268 . S
O220 Gd172 2.545 1_545 S
O220 C228 1.250 . S
O221 Gd172 2.412 1_545 S
O221 C231 1.252 1_545 S
O222 Gd173 2.545 . S
O222 C240 1.258 . S
O223 Gd172 2.361 1_545 S
O223 Gd173 2.609 . S
O223 C239 1.284 . S
O224 Gd172 2.324 1_545 S
O224 C247 1.254 . S
O225 Gd173 2.429 . S
O225 C247 1.268 . S
O226 Gd173 2.545 . S
O226 C239 1.258 . S
O227 Gd173 2.412 . S
O227 C240 1.252 . S
C228 O217 1.284 . S
C228 O220 1.250 . S
C229 H198 0.929 . S
C229 C214 1.437 . S
C229 C230 1.317 . S
C230 H201 0.930 . S
C230 C206 1.431 . S
C230 C229 1.317 . S
C231 Gd172 2.828 . S
C231 O216 1.258 . S
C231 O221 1.252 1_565 S
C231 C232 1.497 . S
C232 C231 1.497 . S
C232 C233 1.395 . S
C232 C234 1.380 1_565 S
C233 C232 1.395 . S
C233 C236 1.398 . S
C233 H248 0.930 . S
C234 C232 1.380 1_545 S
C234 C235 1.391 . S
C234 H249 0.930 . S
C235 C234 1.391 . S
C235 C237 1.387 1_545 S
C236 C233 1.398 . S
C236 C237 1.380 . S
C236 H250 0.930 . S
C237 C235 1.387 1_565 S
C237 C236 1.380 . S
C237 H251 0.930 . S
C238 O218 1.254 . S
C238 O219 1.268 . S
C239 O223 1.284 . S
C239 O226 1.258 . S
C240 Gd173 2.828 . S
C240 O222 1.258 . S
C240 O227 1.252 . S
C240 C241 1.497 . S
C241 C240 1.497 . S
C241 C242 1.395 . S
C241 C243 1.380 . S
C242 C241 1.395 . S
C242 C245 1.398 . S
C242 H252 0.930 . S
C243 C241 1.380 . S
C243 C244 1.391 . S
C243 H253 0.930 . S
C244 C243 1.391 . S
C244 C246 1.387 . S
C245 C242 1.398 . S
C245 C246 1.380 . S
C245 H254 0.930 . S
C246 C244 1.387 . S
C246 C245 1.380 . S
C246 H255 0.930 . S
C247 O224 1.254 . S
C247 O225 1.268 . S
H248 C233 0.930 . S
H249 C234 0.930 . S
H250 C236 0.930 . S
H251 C237 0.930 . S
H252 C242 0.930 . S
H253 C243 0.930 . S
H254 C245 0.930 . S
H255 C246 0.930 . S
Gd256 N287 2.661 . S
Gd256 N293 2.601 . S
Gd256 O300 2.545 . S
Gd256 O301 2.606 . S
Gd256 O303 2.429 . S
Gd256 O304 2.545 . S
Gd256 O305 2.412 . S
Gd256 O307 2.362 . S
Gd256 O308 2.324 . S
Gd256 C315 2.828 . S
Gd257 N266 2.661 . S
Gd257 N270 2.601 . S
Gd257 O301 2.362 . S
Gd257 O302 2.324 . S
Gd257 O306 2.545 . S
Gd257 O307 2.606 . S
Gd257 O309 2.429 . S
Gd257 O310 2.545 . S
Gd257 O311 2.412 . S
Gd257 C324 2.828 . S
C258 C261 1.417 . S
C258 C263 1.431 . S
C258 C264 1.412 . S
C259 C262 1.437 . S
C259 C263 1.317 . S
C259 H278 0.929 . S
C260 C261 1.426 . S
C260 C262 1.413 . S
C260 N270 1.359 . S
C261 C258 1.417 . S
C261 C260 1.426 . S
C261 N266 1.350 . S
C262 C259 1.437 . S
C262 C260 1.413 . S
C262 C272 1.391 . S
C263 C258 1.431 . S
C263 C259 1.317 . S
C263 H274 0.930 . S
C264 C258 1.412 . S
C264 C265 1.355 . S
C264 H276 0.930 . S
C265 C264 1.355 . S
C265 C267 1.402 . S
C265 H277 0.930 . S
N266 Gd257 2.661 . S
N266 C261 1.350 . S
N266 C267 1.307 . S
C267 C265 1.402 . S
C267 N266 1.307 . S
C267 H268 0.930 . S
H268 C267 0.930 . S
C269 N270 1.334 . S
C269 C271 1.394 . S
C269 H273 0.930 . S
N270 Gd257 2.601 . S
N270 C260 1.359 . S
N270 C269 1.334 . S
C271 C269 1.394 . S
C271 C272 1.359 . S
C271 H283 0.930 . S
C272 C262 1.391 . S
C272 C271 1.359 . S
C272 H284 0.929 . S
H273 C269 0.930 . S
H274 C263 0.930 . S
H275 C292 0.930 . S
H276 C264 0.930 . S
H277 C265 0.930 . S
H278 C259 0.929 . S
H279 C297 0.930 . S
H280 C288 0.930 . S
H281 C289 0.930 . S
H282 C313 0.929 . S
H283 C271 0.930 . S
H284 C272 0.929 . S
H285 C314 0.930 . S
H286 C295 0.930 . S
N287 Gd256 2.661 . S
N287 C291 1.350 . S
N287 C292 1.307 . S
C288 H280 0.930 . S
C288 C289 1.355 . S
C288 C290 1.412 . S
C289 H281 0.930 . S
C289 C288 1.355 . S
C289 C292 1.402 . S
C290 C288 1.412 . S
C290 C291 1.417 . S
C290 C314 1.431 . S
C291 N287 1.350 . S
C291 C290 1.417 . S
C291 C294 1.426 . S
C292 H275 0.930 . S
C292 N287 1.307 . S
C292 C289 1.402 . S
N293 Gd256 2.601 . S
N293 C294 1.359 . S
N293 C297 1.334 . S
C294 C291 1.426 . S
C294 N293 1.359 . S
C294 C298 1.413 . S
C295 H286 0.930 . S
C295 C296 1.359 . S
C295 C297 1.394 . S
C296 C295 1.359 . S
C296 C298 1.391 . S
C296 H299 0.929 . S
C297 H279 0.930 . S
C297 N293 1.334 . S
C297 C295 1.394 . S
C298 C294 1.413 . S
C298 C296 1.391 . S
C298 C313 1.437 . S
H299 C296 0.929 . S
O300 Gd256 2.545 . S
O300 C315 1.258 . S
O301 Gd256 2.606 . S
O301 Gd257 2.362 . S
O301 C312 1.284 . S
O302 Gd257 2.324 . S
O302 C322 1.254 . S
O303 Gd256 2.429 . S
O303 C322 1.268 . S
O304 Gd256 2.545 . S
O304 C312 1.250 . S
O305 Gd256 2.412 . S
O305 C315 1.252 . S
O306 Gd257 2.545 . S
O306 C324 1.258 . S
O307 Gd256 2.362 . S
O307 Gd257 2.606 . S
O307 C323 1.284 . S
O308 Gd256 2.324 . S
O308 C331 1.254 . S
O309 Gd257 2.429 . S
O309 C331 1.268 . S
O310 Gd257 2.545 . S
O310 C323 1.250 . S
O311 Gd257 2.412 . S
O311 C324 1.252 . S
C312 O301 1.284 . S
C312 O304 1.250 . S
C313 H282 0.929 . S
C313 C298 1.437 . S
C313 C314 1.317 . S
C314 H285 0.930 . S
C314 C290 1.431 . S
C314 C313 1.317 . S
C315 Gd256 2.828 . S
C315 O300 1.258 . S
C315 O305 1.252 . S
C315 C316 1.497 . S
C316 C315 1.497 . S
C316 C317 1.395 . S
C316 C318 1.380 . S
C317 C316 1.395 . S
C317 C320 1.398 . S
C317 H332 0.930 . S
C318 C316 1.380 . S
C318 C319 1.391 . S
C318 H333 0.930 . S
C319 C318 1.391 . S
C319 C321 1.387 . S
C320 C317 1.398 . S
C320 C321 1.380 . S
C320 H334 0.930 . S
C321 C319 1.387 . S
C321 C320 1.380 . S
C321 H335 0.930 . S
C322 O302 1.254 . S
C322 O303 1.268 . S
C323 O307 1.284 . S
C323 O310 1.250 . S
C324 Gd257 2.828 . S
C324 O306 1.258 . S
C324 O311 1.252 . S
C324 C325 1.497 . S
C325 C324 1.497 . S
C325 C326 1.395 . S
C325 C327 1.380 . S
C326 C325 1.395 . S
C326 C329 1.398 . S
C326 H336 0.930 . S
C327 C325 1.380 . S
C327 C328 1.391 . S
C327 H337 0.930 . S
C328 C327 1.391 . S
C328 C330 1.387 . S
C329 C326 1.398 . S
C329 C330 1.380 . S
C329 H338 0.930 . S
C330 C328 1.387 . S
C330 C329 1.380 . S
C330 H339 0.930 . S
C331 O308 1.254 . S
C331 O309 1.268 . S
H332 C317 0.930 . S
H333 C318 0.930 . S
H334 C320 0.930 . S
H335 C321 0.930 . S
H336 C326 0.930 . S
H337 C327 0.930 . S
H338 C329 0.930 . S
H339 C330 0.930 . S
Gd340 N371 2.661 . S
Gd340 N377 2.601 . S
Gd340 O384 2.545 . S
Gd340 O385 2.606 1_655 S
Gd340 O387 2.429 1_655 S
Gd340 O388 2.545 . S
Gd340 O389 2.412 . S
Gd340 O391 2.362 1_655 S
Gd340 O392 2.324 . S
Gd340 C399 2.828 . S
Gd341 N350 2.661 . S
Gd341 N354 2.601 . S
Gd341 O385 2.362 . S
Gd341 O386 2.324 . S
Gd341 O390 2.545 . S
Gd341 O391 2.606 . S
Gd341 O393 2.429 1_455 S
Gd341 O394 2.545 . S
Gd341 O395 2.412 . S
Gd341 C408 2.828 . S
C342 C345 1.417 . S
C342 C347 1.431 . S
C342 C348 1.412 . S
C343 C346 1.437 . S
C343 C347 1.317 . S
C343 H362 0.929 . S
C344 C345 1.426 . S
C344 C346 1.413 . S
C344 N354 1.359 . S
C345 C342 1.417 . S
C345 C344 1.426 . S
C345 N350 1.350 . S
C346 C343 1.437 . S
C346 C344 1.413 . S
C346 C356 1.391 . S
C347 C342 1.431 . S
C347 C343 1.317 . S
C347 H358 0.930 . S
C348 C342 1.412 . S
C348 C349 1.355 . S
C348 H360 0.930 . S
C349 C348 1.355 . S
C349 C351 1.402 . S
C349 H361 0.930 . S
N350 Gd341 2.661 . S
N350 C345 1.350 . S
N350 C351 1.307 . S
C351 C349 1.402 . S
C351 N350 1.307 . S
C351 H352 0.930 . S
H352 C351 0.930 . S
C353 N354 1.334 . S
C353 C355 1.394 . S
C353 H357 0.930 1_455 S
N354 Gd341 2.601 . S
N354 C344 1.359 . S
N354 C353 1.334 . S
C355 C353 1.394 . S
C355 C356 1.359 . S
C355 H367 0.930 1_455 S
C356 C346 1.391 . S
C356 C355 1.359 . S
C356 H368 0.929 . S
H357 C353 0.930 1_655 S
H358 C347 0.930 . S
H359 C376 0.930 . S
H360 C348 0.930 . S
H361 C349 0.930 . S
H362 C343 0.929 . S
H363 C381 0.930 . S
H364 C372 0.930 . S
H365 C373 0.930 . S
H366 C397 0.929 . S
H367 C355 0.930 1_655 S
H368 C356 0.929 . S
H369 C398 0.930 . S
H370 C379 0.930 . S
N371 Gd340 2.661 . S
N371 C375 1.350 . S
N371 C376 1.307 . S
C372 H364 0.930 . S
C372 C373 1.355 . S
C372 C374 1.412 . S
C373 H365 0.930 . S
C373 C372 1.355 . S
C373 C376 1.402 . S
C374 C372 1.412 . S
C374 C375 1.417 . S
C374 C398 1.431 . S
C375 N371 1.350 . S
C375 C374 1.417 . S
C375 C378 1.426 . S
C376 H359 0.930 . S
C376 N371 1.307 . S
C376 C373 1.402 . S
N377 Gd340 2.601 . S
N377 C378 1.359 . S
N377 C381 1.334 1_655 S
C378 C375 1.426 . S
C378 N377 1.359 . S
C378 C382 1.413 . S
C379 H370 0.930 . S
C379 C380 1.359 1_455 S
C379 C381 1.394 . S
C380 C379 1.359 1_655 S
C380 C382 1.391 . S
C380 H383 0.933 . S
C381 H363 0.930 . S
C381 N377 1.334 1_455 S
C381 C379 1.394 . S
C382 C378 1.413 . S
C382 C380 1.391 . S
C382 C397 1.437 . S
H383 C380 0.933 . S
O384 Gd340 2.545 . S
O384 C399 1.258 . S
O385 Gd340 2.606 1_455 S
O385 Gd341 2.362 . S
O385 C396 1.284 1_455 S
O386 Gd341 2.324 . S
O386 C406 1.254 . S
O387 Gd340 2.429 1_455 S
O387 C406 1.268 . S
O388 Gd340 2.545 . S
O388 C396 1.250 . S
O389 Gd340 2.412 . S
O389 C399 1.252 . S
O390 Gd341 2.545 . S
O390 C408 1.258 . S
O391 Gd340 2.362 1_455 S
O391 Gd341 2.606 . S
O391 C407 1.284 . S
O392 Gd340 2.324 . S
O392 C415 1.254 . S
O393 Gd341 2.429 1_655 S
O393 C415 1.268 . S
O394 Gd341 2.545 . S
O394 C407 1.250 . S
O395 Gd341 2.412 . S
O395 C408 1.252 . S
C396 O385 1.284 1_655 S
C396 O388 1.250 . S
C397 H366 0.929 . S
C397 C382 1.437 . S
C397 C398 1.317 . S
C398 H369 0.930 . S
C398 C374 1.431 . S
C398 C397 1.317 . S
C399 Gd340 2.828 . S
C399 O384 1.258 . S
C399 O389 1.252 . S
C399 C400 1.497 . S
C400 C399 1.497 . S
C400 C401 1.395 . S
C400 C402 1.380 . S
C401 C400 1.395 . S
C401 C404 1.398 . S
C401 H416 0.930 . S
C402 C400 1.380 . S
C402 C403 1.391 . S
C402 H417 0.930 . S
C403 C402 1.391 . S
C403 C405 1.387 . S
C404 C401 1.398 . S
C404 C405 1.380 . S
C404 H418 0.930 . S
C405 C403 1.387 . S
C405 C404 1.380 . S
C405 H419 0.930 . S
C406 O386 1.254 . S
C406 O387 1.268 . S
C407 O391 1.284 . S
C407 O394 1.250 . S
C408 Gd341 2.828 . S
C408 O390 1.258 . S
C408 O395 1.252 . S
C408 C409 1.497 . S
C409 C408 1.497 . S
C409 C410 1.395 . S
C409 C411 1.380 . S
C410 C409 1.395 . S
C410 C413 1.398 . S
C410 H420 0.930 . S
C411 C409 1.380 . S
C411 C412 1.391 . S
C411 H421 0.930 . S
C412 C411 1.391 . S
C412 C414 1.387 . S
C413 C410 1.398 . S
C413 C414 1.380 . S
C413 H422 0.930 . S
C414 C412 1.387 . S
C414 C413 1.380 . S
C414 H423 0.930 . S
C415 O392 1.254 . S
C415 O393 1.268 . S
H416 C401 0.930 . S
H417 C402 0.930 . S
H418 C404 0.930 . S
H419 C405 0.930 . S
H420 C410 0.930 . S
H421 C411 0.930 . S
H422 C413 0.930 . S
H423 C414 0.930 . S
C424 C425 1.349 . S
C424 C426 1.327 . S
C424 H449 0.950 . S
C425 C424 1.349 . S
C425 C441 1.349 . S
C426 C424 1.327 . S
C426 C445 1.429 . S
C426 H450 0.950 . S
C427 C444 1.574 . S
C427 C446 1.368 . S
C427 H451 0.949 . S
H428 C432 0.949 . S
C429 C430 1.349 . S
C429 C431 1.327 . S
C429 H452 0.950 . S
C430 C429 1.349 . S
C430 C442 1.349 . S
C431 C429 1.327 . S
C431 C447 1.429 . S
C431 H453 0.950 . S
C432 H428 0.949 . S
C432 C440 1.574 . S
C432 C448 1.368 . S
H433 C441 0.950 . S
H434 C439 0.950 . S
H435 C440 0.949 . S
H436 C442 0.950 1_565 S
H437 C443 0.950 . S
H438 C444 0.949 . S
C439 H434 0.950 . S
C439 C441 1.327 . S
C439 C445 1.429 . S
C440 C432 1.574 . S
C440 H435 0.949 . S
C440 C446 1.368 . S
C441 C425 1.349 . S
C441 H433 0.950 . S
C441 C439 1.327 . S
C442 C430 1.349 . S
C442 H436 0.950 1_545 S
C442 C443 1.327 . S
C443 H437 0.950 . S
C443 C442 1.327 . S
C443 C447 1.429 . S
C444 C427 1.574 . S
C444 H438 0.949 . S
C444 C448 1.368 . S
C445 C426 1.429 . S
C445 C439 1.429 . S
C445 C446 1.523 . S
C446 C427 1.368 . S
C446 C440 1.368 . S
C446 C445 1.523 . S
C447 C431 1.429 . S
C447 C443 1.429 . S
C447 C448 1.523 . S
C448 C432 1.368 . S
C448 C444 1.368 . S
C448 C447 1.523 . S
H449 C424 0.950 . S
H450 C426 0.950 . S
H451 C427 0.949 . S
H452 C429 0.950 . S
H453 C431 0.950 . S
C454 C455 1.349 . S
C454 C456 1.327 . S
C454 H479 0.950 . S
C455 C454 1.349 . S
C455 C471 1.349 . S
C456 C454 1.327 . S
C456 C475 1.429 . S
C456 H480 0.950 . S
C457 C474 1.574 . S
C457 C476 1.368 . S
C457 H481 0.949 . S
H458 C462 0.949 . S
C459 C460 1.349 . S
C459 C461 1.327 . S
C459 H482 0.950 . S
C460 C459 1.349 . S
C460 C472 1.349 . S
C461 C459 1.327 . S
C461 C477 1.429 . S
C461 H483 0.950 . S
C462 H458 0.949 . S
C462 C470 1.574 . S
C462 C478 1.368 . S
H463 C471 0.950 . S
H464 C469 0.950 . S
H465 C470 0.949 . S
H466 C472 0.950 . S
H467 C473 0.950 . S
H468 C474 0.949 . S
C469 H464 0.950 . S
C469 C471 1.327 . S
C469 C475 1.429 . S
C470 C462 1.574 . S
C470 H465 0.949 . S
C470 C476 1.368 . S
C471 C455 1.349 . S
C471 H463 0.950 . S
C471 C469 1.327 . S
C472 C460 1.349 . S
C472 H466 0.950 . S
C472 C473 1.327 . S
C473 H467 0.950 . S
C473 C472 1.327 . S
C473 C477 1.429 . S
C474 C457 1.574 . S
C474 H468 0.949 . S
C474 C478 1.368 . S
C475 C456 1.429 . S
C475 C469 1.429 . S
C475 C476 1.523 . S
C476 C457 1.368 . S
C476 C470 1.368 . S
C476 C475 1.523 . S
C477 C461 1.429 . S
C477 C473 1.429 . S
C477 C478 1.523 . S
C478 C462 1.368 . S
C478 C474 1.368 . S
C478 C477 1.523 . S
H479 C454 0.950 . S
H480 C456 0.950 . S
H481 C457 0.949 . S
H482 C459 0.950 . S
H483 C461 0.950 . S
C484 C485 1.349 . S
C484 C486 1.327 . S
C484 H509 0.950 . S
C485 C484 1.349 . S
C485 C501 1.349 . S
C486 C484 1.327 . S
C486 C505 1.429 . S
C486 H510 0.950 . S
C487 C504 1.574 . S
C487 C506 1.368 . S
C487 H511 0.949 . S
H488 C492 0.949 . S
C489 C490 1.349 . S
C489 C491 1.327 . S
C489 H512 0.950 . S
C490 C489 1.349 . S
C490 C502 1.349 . S
C491 C489 1.327 . S
C491 C507 1.429 . S
C491 H513 0.950 . S
C492 H488 0.949 . S
C492 C500 1.574 . S
C492 C508 1.368 . S
H493 C501 0.950 . S
H494 C499 0.950 . S
H495 C500 0.949 . S
H496 C502 0.950 . S
H497 C503 0.950 . S
H498 C504 0.949 . S
C499 H494 0.950 . S
C499 C501 1.327 . S
C499 C505 1.429 . S
C500 C492 1.574 . S
C500 H495 0.949 . S
C500 C506 1.368 . S
C501 C485 1.349 . S
C501 H493 0.950 . S
C501 C499 1.327 . S
C502 C490 1.349 . S
C502 H496 0.950 . S
C502 C503 1.327 . S
C503 H497 0.950 . S
C503 C502 1.327 . S
C503 C507 1.429 . S
C504 C487 1.574 . S
C504 H498 0.949 . S
C504 C508 1.368 . S
C505 C486 1.429 . S
C505 C499 1.429 . S
C505 C506 1.523 . S
C506 C487 1.368 . S
C506 C500 1.368 . S
C506 C505 1.523 . S
C507 C491 1.429 . S
C507 C503 1.429 . S
C507 C508 1.523 . S
C508 C492 1.368 . S
C508 C504 1.368 . S
C508 C507 1.523 . S
H509 C484 0.950 . S
H510 C486 0.950 . S
H511 C487 0.949 . S
H512 C489 0.950 . S
H513 C491 0.950 . S
C514 C515 1.349 . S
C514 C516 1.327 . S
C514 H539 0.950 . S
C515 C514 1.349 . S
C515 C531 1.349 . S
C516 C514 1.327 . S
C516 C535 1.429 . S
C516 H540 0.950 . S
C517 C534 1.574 . S
C517 C536 1.368 . S
C517 H541 0.949 . S
H518 C522 0.949 . S
C519 C520 1.349 . S
C519 C521 1.327 . S
C519 H542 0.950 . S
C520 C519 1.349 . S
C520 C532 1.349 . S
C521 C519 1.327 . S
C521 C537 1.429 . S
C521 H543 0.950 . S
C522 H518 0.949 . S
C522 C530 1.574 . S
C522 C538 1.368 . S
H523 C531 0.950 . S
H524 C529 0.950 . S
H525 C530 0.949 . S
H526 C532 0.950 . S
H527 C533 0.950 . S
H528 C534 0.949 . S
C529 H524 0.950 . S
C529 C531 1.327 . S
C529 C535 1.429 . S
C530 C522 1.574 . S
C530 H525 0.949 . S
C530 C536 1.368 . S
C531 C515 1.349 . S
C531 H523 0.950 . S
C531 C529 1.327 . S
C532 C520 1.349 . S
C532 H526 0.950 . S
C532 C533 1.327 . S
C533 H527 0.950 . S
C533 C532 1.327 . S
C533 C537 1.429 . S
C534 C517 1.574 . S
C534 H528 0.949 . S
C534 C538 1.368 . S
C535 C516 1.429 . S
C535 C529 1.429 . S
C535 C536 1.523 . S
C536 C517 1.368 . S
C536 C530 1.368 . S
C536 C535 1.523 . S
C537 C521 1.429 . S
C537 C533 1.429 . S
C537 C538 1.523 . S
C538 C522 1.368 . S
C538 C534 1.368 . S
C538 C537 1.523 . S
H539 C514 0.950 . S
H540 C516 0.950 . S
H541 C517 0.949 . S
H542 C519 0.950 . S
H543 C521 0.950 . S
C544 C545 1.349 . S
C544 C546 1.327 . S
C544 H569 0.950 . S
C545 C544 1.349 . S
C545 C561 1.349 1_554 S
C546 C544 1.327 . S
C546 C565 1.429 1_554 S
C546 H570 0.950 . S
C547 C564 1.574 . S
C547 C566 1.368 . S
C547 H571 0.949 . S
H548 C552 0.949 1_545 S
C549 C550 1.349 . S
C549 C551 1.327 . S
C549 H572 0.950 . S
C550 C549 1.349 . S
C550 C562 1.349 1_565 S
C551 C549 1.327 . S
C551 C567 1.429 . S
C551 H573 0.950 . S
C552 H548 0.949 1_565 S
C552 C560 1.574 . S
C552 C568 1.368 . S
H553 C561 0.950 . S
H554 C559 0.950 . S
H555 C560 0.949 . S
H556 C562 0.950 . S
H557 C563 0.952 1_545 S
H558 C564 0.949 . S
C559 H554 0.950 . S
C559 C561 1.327 . S
C559 C565 1.429 . S
C560 C552 1.574 . S
C560 H555 0.949 . S
C560 C566 1.368 . S
C561 C545 1.349 1_556 S
C561 H553 0.950 . S
C561 C559 1.327 . S
C562 C550 1.349 1_545 S
C562 H556 0.950 . S
C562 C563 1.328 1_545 S
C563 H557 0.952 1_565 S
C563 C562 1.328 1_565 S
C563 C567 1.425 . S
C564 C547 1.574 . S
C564 H558 0.949 . S
C564 C568 1.368 . S
C565 C546 1.429 1_556 S
C565 C559 1.429 . S
C565 C566 1.523 . S
C566 C547 1.368 . S
C566 C560 1.368 . S
C566 C565 1.523 . S
C567 C551 1.429 . S
C567 C563 1.425 . S
C567 C568 1.523 . S
C568 C552 1.368 . S
C568 C564 1.368 . S
C568 C567 1.523 . S
H569 C544 0.950 . S
H570 C546 0.950 . S
H571 C547 0.949 . S
H572 C549 0.950 . S
H573 C551 0.950 . S
C574 C575 1.349 1_556 S
C574 C576 1.327 . S
C574 H599 0.950 . S
C575 C574 1.349 1_554 S
C575 C591 1.349 . S
C576 C574 1.327 . S
C576 C595 1.429 . S
C576 H600 0.950 . S
C577 C594 1.574 . S
C577 C596 1.368 . S
C577 H601 0.949 . S
H578 C582 0.949 . S
C579 C580 1.349 . S
C579 C581 1.327 . S
C579 H602 0.950 . S
C580 C579 1.349 . S
C580 C592 1.349 . S
C581 C579 1.327 . S
C581 C597 1.429 . S
C581 H603 0.950 . S
C582 H578 0.949 . S
C582 C590 1.574 . S
C582 C598 1.368 . S
H583 C591 0.950 . S
H584 C589 0.950 . S
H585 C590 0.949 . S
H586 C592 0.950 . S
H587 C593 0.950 . S
H588 C594 0.949 . S
C589 H584 0.950 . S
C589 C591 1.339 . S
C589 C595 1.416 1_554 S
C590 C582 1.574 . S
C590 H585 0.949 . S
C590 C596 1.368 . S
C591 C575 1.349 . S
C591 H583 0.950 . S
C591 C589 1.339 . S
C592 C580 1.349 . S
C592 H586 0.950 . S
C592 C593 1.327 . S
C593 H587 0.950 . S
C593 C592 1.327 . S
C593 C597 1.429 . S
C594 C577 1.574 . S
C594 H588 0.949 . S
C594 C598 1.368 . S
C595 C576 1.429 . S
C595 C589 1.416 1_556 S
C595 C596 1.523 . S
C596 C577 1.368 . S
C596 C590 1.368 . S
C596 C595 1.523 . S
C597 C581 1.429 . S
C597 C593 1.429 . S
C597 C598 1.523 . S
C598 C582 1.368 . S
C598 C594 1.368 . S
C598 C597 1.523 . S
H599 C574 0.950 . S
H600 C576 0.950 . S
H601 C577 0.949 . S
H602 C579 0.950 . S
H603 C581 0.950 . S
C604 C605 1.349 . S
C604 C606 1.327 . S
C604 H629 0.950 . S
C605 C604 1.349 . S
C605 C621 1.349 1_554 S
C606 C604 1.327 . S
C606 C625 1.429 1_554 S
C606 H630 0.950 . S
C607 C624 1.574 . S
C607 C626 1.368 . S
C607 H631 0.949 . S
H608 C612 0.949 . S
C609 C610 1.349 . S
C609 C611 1.327 . S
C609 H632 0.950 . S
C610 C609 1.349 . S
C610 C622 1.349 . S
C611 C609 1.327 . S
C611 C627 1.429 . S
C611 H633 0.950 . S
C612 H608 0.949 . S
C612 C620 1.574 . S
C612 C628 1.368 . S
H613 C621 0.950 . S
H614 C619 0.950 . S
H615 C620 0.949 . S
H616 C622 0.950 . S
H617 C623 0.950 . S
H618 C624 0.949 . S
C619 H614 0.950 . S
C619 C621 1.327 . S
C619 C625 1.429 . S
C620 C612 1.574 . S
C620 H615 0.949 . S
C620 C626 1.368 . S
C621 C605 1.349 1_556 S
C621 H613 0.950 . S
C621 C619 1.327 . S
C622 C610 1.349 . S
C622 H616 0.950 . S
C622 C623 1.327 . S
C623 H617 0.950 . S
C623 C622 1.327 . S
C623 C627 1.429 . S
C624 C607 1.574 . S
C624 H618 0.949 . S
C624 C628 1.368 . S
C625 C606 1.429 1_556 S
C625 C619 1.429 . S
C625 C626 1.523 . S
C626 C607 1.368 . S
C626 C620 1.368 . S
C626 C625 1.523 . S
C627 C611 1.429 . S
C627 C623 1.429 . S
C627 C628 1.523 . S
C628 C612 1.368 . S
C628 C624 1.368 . S
C628 C627 1.523 . S
H629 C604 0.950 . S
H630 C606 0.950 . S
H631 C607 0.949 . S
H632 C609 0.950 . S
H633 C611 0.950 . S
C634 C635 1.349 1_556 S
C634 C636 1.327 . S
C634 H659 0.950 . S
C635 C634 1.349 1_554 S
C635 C651 1.349 . S
C636 C634 1.327 . S
C636 C655 1.429 . S
C636 H660 0.950 . S
C637 C654 1.574 . S
C637 C656 1.368 . S
C637 H661 0.949 . S
H638 C642 0.949 . S
C639 C640 1.349 . S
C639 C641 1.327 . S
C639 H662 0.950 . S
C640 C639 1.349 . S
C640 C652 1.349 . S
C641 C639 1.327 . S
C641 C657 1.429 . S
C641 H663 0.950 . S
C642 H638 0.949 . S
C642 C650 1.574 . S
C642 C658 1.368 . S
H643 C651 0.950 . S
H644 C649 0.950 . S
H645 C650 0.949 . S
H646 C652 0.942 1_455 S
H647 C653 0.950 . S
H648 C654 0.949 . S
C649 H644 0.950 . S
C649 C651 1.327 . S
C649 C655 1.429 1_554 S
C650 C642 1.574 . S
C650 H645 0.949 . S
C650 C656 1.368 . S
C651 C635 1.349 . S
C651 H643 0.950 . S
C651 C649 1.327 . S
C652 C640 1.349 . S
C652 H646 0.942 1_655 S
C652 C653 1.327 . S
C653 H647 0.950 . S
C653 C652 1.327 . S
C653 C657 1.429 . S
C654 C637 1.574 . S
C654 H648 0.949 . S
C654 C658 1.368 . S
C655 C636 1.429 . S
C655 C649 1.429 1_556 S
C655 C656 1.523 . S
C656 C637 1.368 . S
C656 C650 1.368 . S
C656 C655 1.523 . S
C657 C641 1.429 . S
C657 C653 1.429 . S
C657 C658 1.523 . S
C658 C642 1.368 . S
C658 C654 1.368 . S
C658 C657 1.523 . S
H659 C634 0.950 . S
H660 C636 0.950 . S
H661 C637 0.949 . S
H662 C639 0.950 . S
H663 C641 0.950 . S
C664 C665 1.349 . S
C664 C666 1.327 . S
C664 H689 0.950 . S
C665 C664 1.349 . S
C665 C681 1.349 . S
C666 C664 1.327 . S
C666 C685 1.429 . S
C666 H690 0.950 . S
C667 C684 1.574 . S
C667 C686 1.368 . S
C667 H691 0.949 . S
H668 C672 0.949 . S
C669 C670 1.349 1_655 S
C669 C671 1.327 1_655 S
C669 H692 0.950 . S
C670 C669 1.349 1_455 S
C670 C682 1.349 . S
C671 C669 1.327 1_455 S
C671 C687 1.429 . S
C671 H693 0.950 1_455 S
C672 H668 0.949 . S
C672 C680 1.574 . S
C672 C688 1.368 . S
H673 C681 0.950 . S
H674 C679 0.950 . S
H675 C680 0.949 . S
H676 C682 0.950 . S
H677 C683 0.950 . S
H678 C684 0.949 . S
C679 H674 0.950 . S
C679 C681 1.327 . S
C679 C685 1.429 . S
C680 C672 1.574 . S
C680 H675 0.949 . S
C680 C686 1.368 . S
C681 C665 1.349 . S
C681 H673 0.950 . S
C681 C679 1.327 . S
C682 C670 1.349 . S
C682 H676 0.950 . S
C682 C683 1.327 . S
C683 H677 0.950 . S
C683 C682 1.327 . S
C683 C687 1.429 . S
C684 C667 1.574 . S
C684 H678 0.949 . S
C684 C688 1.368 . S
C685 C666 1.429 . S
C685 C679 1.429 . S
C685 C686 1.523 . S
C686 C667 1.368 . S
C686 C680 1.368 . S
C686 C685 1.523 . S
C687 C671 1.429 . S
C687 C683 1.429 . S
C687 C688 1.523 . S
C688 C672 1.368 . S
C688 C684 1.368 . S
C688 C687 1.523 . S
H689 C664 0.950 . S
H690 C666 0.950 . S
H691 C667 0.949 . S
H692 C669 0.950 . S
H693 C671 0.950 1_655 S
C694 C695 1.349 . S
C694 C696 1.327 . S
C694 H719 0.950 . S
C695 C694 1.349 . S
C695 C711 1.349 . S
C696 C694 1.327 . S
C696 C715 1.429 . S
C696 H720 0.950 . S
C697 C714 1.574 . S
C697 C716 1.368 . S
C697 H721 0.949 . S
H698 C702 0.949 . S
C699 C700 1.349 . S
C699 C701 1.327 . S
C699 H722 0.950 . S
C700 C699 1.349 . S
C700 C712 1.349 . S
C701 C699 1.327 . S
C701 C717 1.429 . S
C701 H723 0.950 . S
C702 H698 0.949 . S
C702 C710 1.574 . S
C702 C718 1.368 . S
H703 C711 0.950 . S
H704 C709 0.950 . S
H705 C710 0.949 . S
H706 C712 0.950 1_565 S
H707 C713 0.950 . S
H708 C714 0.949 . S
C709 H704 0.950 . S
C709 C711 1.327 . S
C709 C715 1.429 . S
C710 C702 1.574 . S
C710 H705 0.949 . S
C710 C716 1.368 . S
C711 C695 1.349 . S
C711 H703 0.950 . S
C711 C709 1.327 . S
C712 C700 1.349 . S
C712 H706 0.950 1_545 S
C712 C713 1.327 . S
C713 H707 0.950 . S
C713 C712 1.327 . S
C713 C717 1.429 . S
C714 C697 1.574 . S
C714 H708 0.949 . S
C714 C718 1.368 . S
C715 C696 1.429 . S
C715 C709 1.429 . S
C715 C716 1.523 . S
C716 C697 1.368 . S
C716 C710 1.368 . S
C716 C715 1.523 . S
C717 C701 1.429 . S
C717 C713 1.429 . S
C717 C718 1.523 . S
C718 C702 1.368 . S
C718 C714 1.368 . S
C718 C717 1.523 . S
H719 C694 0.950 . S
H720 C696 0.950 . S
H721 C697 0.949 . S
H722 C699 0.950 . S
H723 C701 0.950 . S
C724 C725 1.349 . S
C724 C726 1.327 . S
C724 H749 0.950 . S
C725 C724 1.349 . S
C725 C741 1.349 . S
C726 C724 1.327 . S
C726 C745 1.429 . S
C726 H750 0.950 . S
C727 C744 1.574 . S
C727 C746 1.368 . S
C727 H751 0.949 . S
H728 C732 0.949 . S
C729 C730 1.349 . S
C729 C731 1.327 . S
C729 H752 0.950 . S
C730 C729 1.349 . S
C730 C742 1.349 . S
C731 C729 1.327 . S
C731 C747 1.429 . S
C731 H753 0.950 . S
C732 H728 0.949 . S
C732 C740 1.574 . S
C732 C748 1.368 . S
H733 C741 0.950 . S
H734 C739 0.950 . S
H735 C740 0.949 . S
H736 C742 0.950 . S
H737 C743 0.950 . S
H738 C744 0.949 . S
C739 H734 0.950 . S
C739 C741 1.327 . S
C739 C745 1.429 . S
C740 C732 1.574 . S
C740 H735 0.949 . S
C740 C746 1.368 . S
C741 C725 1.349 . S
C741 H733 0.950 . S
C741 C739 1.327 . S
C742 C730 1.349 . S
C742 H736 0.950 . S
C742 C743 1.327 . S
C743 H737 0.950 . S
C743 C742 1.327 . S
C743 C747 1.429 . S
C744 C727 1.574 . S
C744 H738 0.949 . S
C744 C748 1.368 . S
C745 C726 1.429 . S
C745 C739 1.429 . S
C745 C746 1.523 . S
C746 C727 1.368 . S
C746 C740 1.368 . S
C746 C745 1.523 . S
C747 C731 1.429 . S
C747 C743 1.429 . S
C747 C748 1.523 . S
C748 C732 1.368 . S
C748 C744 1.368 . S
C748 C747 1.523 . S
H749 C724 0.950 . S
H750 C726 0.950 . S
H751 C727 0.949 . S
H752 C729 0.950 . S
H753 C731 0.950 . S
C754 C755 1.349 . S
C754 C756 1.327 . S
C754 H779 0.950 . S
C755 C754 1.349 . S
C755 C771 1.349 . S
C756 C754 1.327 . S
C756 C775 1.429 . S
C756 H780 0.950 . S
C757 C774 1.574 . S
C757 C776 1.368 . S
C757 H781 0.949 . S
H758 C762 0.949 . S
C759 C760 1.349 . S
C759 C761 1.327 . S
C759 H782 0.950 . S
C760 C759 1.349 . S
C760 C772 1.349 . S
C761 C759 1.327 . S
C761 C777 1.429 . S
C761 H783 0.950 . S
C762 H758 0.949 . S
C762 C770 1.574 . S
C762 C778 1.368 . S
H763 C771 0.950 . S
H764 C769 0.950 . S
H765 C770 0.949 . S
H766 C772 0.950 . S
H767 C773 0.950 . S
H768 C774 0.949 . S
C769 H764 0.950 . S
C769 C771 1.327 . S
C769 C775 1.429 . S
C770 C762 1.574 . S
C770 H765 0.949 . S
C770 C776 1.368 . S
C771 C755 1.349 . S
C771 H763 0.950 . S
C771 C769 1.327 . S
C772 C760 1.349 . S
C772 H766 0.950 . S
C772 C773 1.327 . S
C773 H767 0.950 . S
C773 C772 1.327 . S
C773 C777 1.429 . S
C774 C757 1.574 . S
C774 H768 0.949 . S
C774 C778 1.368 . S
C775 C756 1.429 . S
C775 C769 1.429 . S
C775 C776 1.523 . S
C776 C757 1.368 . S
C776 C770 1.368 . S
C776 C775 1.523 . S
C777 C761 1.429 . S
C777 C773 1.429 . S
C777 C778 1.523 . S
C778 C762 1.368 . S
C778 C774 1.368 . S
C778 C777 1.523 . S
H779 C754 0.950 . S
H780 C756 0.950 . S
H781 C757 0.949 . S
H782 C759 0.950 . S
H783 C761 0.950 . S
C784 C785 1.349 . S
C784 C786 1.327 1_554 S
C784 H809 0.950 . S
C785 C784 1.349 . S
C785 C801 1.349 . S
C786 C784 1.327 1_556 S
C786 C805 1.429 1_556 S
C786 H810 0.950 . S
C787 C804 1.574 . S
C787 C806 1.368 . S
C787 H811 0.949 1_556 S
H788 C792 0.949 . S
C789 C790 1.349 . S
C789 C791 1.327 . S
C789 H812 0.950 . S
C790 C789 1.349 . S
C790 C802 1.349 1_455 S
C791 C789 1.327 . S
C791 C807 1.429 1_455 S
C791 H813 0.950 . S
C792 H788 0.949 . S
C792 C800 1.574 . S
C792 C808 1.368 . S
H793 C801 0.950 . S
H794 C799 0.950 . S
H795 C800 0.949 . S
H796 C802 0.950 . S
H797 C803 0.950 . S
H798 C804 0.949 1_455 S
C799 H794 0.950 . S
C799 C801 1.327 . S
C799 C805 1.429 . S
C800 C792 1.574 . S
C800 H795 0.949 . S
C800 C806 1.368 . S
C801 C785 1.349 . S
C801 H793 0.950 . S
C801 C799 1.327 . S
C802 C790 1.349 1_655 S
C802 H796 0.950 . S
C802 C803 1.327 . S
C803 H797 0.950 . S
C803 C802 1.327 . S
C803 C807 1.429 . S
C804 C787 1.574 . S
C804 H798 0.949 1_655 S
C804 C808 1.368 . S
C805 C786 1.429 1_554 S
C805 C799 1.429 . S
C805 C806 1.523 1_554 S
C806 C787 1.368 . S
C806 C800 1.368 . S
C806 C805 1.523 1_556 S
C807 C791 1.429 1_655 S
C807 C803 1.429 . S
C807 C808 1.523 . S
C808 C792 1.368 . S
C808 C804 1.368 . S
C808 C807 1.523 . S
H809 C784 0.950 . S
H810 C786 0.950 . S
H811 C787 0.949 1_554 S
H812 C789 0.950 . S
H813 C791 0.950 . S
C814 C815 1.349 . S
C814 C816 1.327 1_554 S
C814 H839 0.950 1_554 S
C815 C814 1.349 . S
C815 C831 1.349 . S
C816 C814 1.327 1_556 S
C816 C835 1.429 1_556 S
C816 H840 0.950 . S
C817 C834 1.574 1_554 S
C817 C836 1.368 1_554 S
C817 H841 0.949 . S
H818 C822 0.949 . S
C819 C820 1.349 . S
C819 C821 1.329 1_545 S
C819 H842 0.950 . S
C820 C819 1.349 . S
C820 C832 1.350 1_545 S
C821 C819 1.329 1_565 S
C821 C837 1.427 . S
C821 H843 0.950 1_565 S
C822 H818 0.949 . S
C822 C830 1.574 . S
C822 C838 1.368 . S
H823 C831 0.950 . S
H824 C829 0.950 . S
H825 C830 0.949 . S
H826 C832 0.950 1_545 S
H827 C833 0.950 . S
H828 C834 0.949 . S
C829 H824 0.950 . S
C829 C831 1.327 . S
C829 C835 1.429 . S
C830 C822 1.574 . S
C830 H825 0.949 . S
C830 C836 1.368 . S
C831 C815 1.349 . S
C831 H823 0.950 . S
C831 C829 1.327 . S
C832 C820 1.350 1_565 S
C832 H826 0.950 1_565 S
C832 C833 1.326 . S
C833 H827 0.950 . S
C833 C832 1.326 . S
C833 C837 1.429 . S
C834 C817 1.574 1_556 S
C834 H828 0.949 . S
C834 C838 1.368 . S
C835 C816 1.429 1_554 S
C835 C829 1.429 . S
C835 C836 1.523 1_554 S
C836 C817 1.368 1_556 S
C836 C830 1.368 . S
C836 C835 1.523 1_556 S
C837 C821 1.427 . S
C837 C833 1.429 . S
C837 C838 1.523 . S
C838 C822 1.368 . S
C838 C834 1.368 . S
C838 C837 1.523 . S
H839 C814 0.950 1_556 S
H840 C816 0.950 . S
H841 C817 0.949 . S
H842 C819 0.950 . S
H843 C821 0.950 1_545 S
C844 C845 1.349 . S
C844 C846 1.327 1_554 S
C844 H869 0.950 1_554 S
C845 C844 1.349 . S
C845 C861 1.349 . S
C846 C844 1.327 1_556 S
C846 C865 1.429 1_556 S
C846 H870 0.950 . S
C847 C864 1.574 1_554 S
C847 C866 1.368 1_554 S
C847 H871 0.949 . S
H848 C852 0.949 . S
C849 C850 1.349 . S
C849 C851 1.327 . S
C849 H872 0.950 . S
C850 C849 1.349 . S
C850 C862 1.349 . S
C851 C849 1.327 . S
C851 C867 1.429 . S
C851 H873 0.950 . S
C852 H848 0.949 . S
C852 C860 1.574 . S
C852 C868 1.368 . S
H853 C861 0.950 . S
H854 C859 0.950 . S
H855 C860 0.949 . S
H856 C862 0.950 . S
H857 C863 0.950 . S
H858 C864 0.949 . S
C859 H854 0.950 . S
C859 C861 1.327 . S
C859 C865 1.429 . S
C860 C852 1.574 . S
C860 H855 0.949 . S
C860 C866 1.368 . S
C861 C845 1.349 . S
C861 H853 0.950 . S
C861 C859 1.327 . S
C862 C850 1.349 . S
C862 H856 0.950 . S
C862 C863 1.327 . S
C863 H857 0.950 . S
C863 C862 1.327 . S
C863 C867 1.429 . S
C864 C847 1.574 1_556 S
C864 H858 0.949 . S
C864 C868 1.368 . S
C865 C846 1.429 1_554 S
C865 C859 1.429 . S
C865 C866 1.523 1_554 S
C866 C847 1.368 1_556 S
C866 C860 1.368 . S
C866 C865 1.523 1_556 S
C867 C851 1.429 . S
C867 C863 1.429 . S
C867 C868 1.523 . S
C868 C852 1.368 . S
C868 C864 1.368 . S
C868 C867 1.523 . S
H869 C844 0.950 1_556 S
H870 C846 0.950 . S
H871 C847 0.949 . S
H872 C849 0.950 . S
H873 C851 0.950 . S
C874 C875 1.349 . S
C874 C876 1.327 1_554 S
C874 H899 0.950 1_554 S
C875 C874 1.349 . S
C875 C891 1.349 . S
C876 C874 1.327 1_556 S
C876 C895 1.429 1_556 S
C876 H900 0.950 . S
C877 C894 1.574 1_554 S
C877 C896 1.368 1_554 S
C877 H901 0.949 . S
H878 C882 0.949 . S
C879 C880 1.349 . S
C879 C881 1.327 . S
C879 H902 0.950 . S
C880 C879 1.349 . S
C880 C892 1.349 . S
C881 C879 1.327 . S
C881 C897 1.429 . S
C881 H903 0.950 . S
C882 H878 0.949 . S
C882 C890 1.574 . S
C882 C898 1.368 . S
H883 C891 0.950 . S
H884 C889 0.950 . S
H885 C890 0.949 . S
H886 C892 0.950 . S
H887 C893 0.950 . S
H888 C894 0.949 . S
C889 H884 0.950 . S
C889 C891 1.327 . S
C889 C895 1.429 . S
C890 C882 1.574 . S
C890 H885 0.949 . S
C890 C896 1.368 . S
C891 C875 1.349 . S
C891 H883 0.950 . S
C891 C889 1.327 . S
C892 C880 1.349 . S
C892 H886 0.950 . S
C892 C893 1.327 . S
C893 H887 0.950 . S
C893 C892 1.327 . S
C893 C897 1.429 . S
C894 C877 1.574 1_556 S
C894 H888 0.949 . S
C894 C898 1.368 . S
C895 C876 1.429 1_554 S
C895 C889 1.429 . S
C895 C896 1.523 1_554 S
C896 C877 1.368 1_556 S
C896 C890 1.368 . S
C896 C895 1.523 1_556 S
C897 C881 1.429 . S
C897 C893 1.429 . S
C897 C898 1.523 . S
C898 C882 1.368 . S
C898 C894 1.368 . S
C898 C897 1.523 . S
H899 C874 0.950 1_556 S
H900 C876 0.950 . S
H901 C877 0.949 . S
H902 C879 0.950 . S
H903 C881 0.950 . S
C904 C905 1.349 . S
C904 C906 1.327 . S
C904 H929 0.950 . S
C905 C904 1.349 . S
C905 C921 1.349 . S
C906 C904 1.327 . S
C906 C925 1.429 . S
C906 H930 0.950 . S
C907 C924 1.574 . S
C907 C926 1.368 . S
C907 H931 0.949 . S
H908 C912 0.949 . S
C909 C910 1.349 . S
C909 C911 1.327 . S
C909 H932 0.950 . S
C910 C909 1.349 . S
C910 C922 1.349 . S
C911 C909 1.327 . S
C911 C927 1.429 . S
C911 H933 0.950 . S
C912 H908 0.949 . S
C912 C920 1.574 . S
C912 C928 1.368 . S
H913 C921 0.950 . S
H914 C919 0.950 . S
H915 C920 0.949 . S
H916 C922 0.905 1_655 S
H917 C923 0.950 . S
H918 C924 0.949 . S
C919 H914 0.950 . S
C919 C921 1.327 . S
C919 C925 1.429 . S
C920 C912 1.574 . S
C920 H915 0.949 . S
C920 C926 1.368 . S
C921 C905 1.349 . S
C921 H913 0.950 . S
C921 C919 1.327 . S
C922 C910 1.349 . S
C922 H916 0.905 1_455 S
C922 C923 1.327 . S
C923 H917 0.950 . S
C923 C922 1.327 . S
C923 C927 1.429 . S
C924 C907 1.574 . S
C924 H918 0.949 . S
C924 C928 1.368 . S
C925 C906 1.429 . S
C925 C919 1.429 . S
C925 C926 1.523 . S
C926 C907 1.368 . S
C926 C920 1.368 . S
C926 C925 1.523 . S
C927 C911 1.429 . S
C927 C923 1.429 . S
C927 C928 1.523 . S
C928 C912 1.368 . S
C928 C924 1.368 . S
C928 C927 1.523 . S
H929 C904 0.950 . S
H930 C906 0.950 . S
H931 C907 0.949 . S
H932 C909 0.950 . S
H933 C911 0.950 . S
C934 C935 1.349 . S
C934 C936 1.327 . S
C934 H959 0.950 . S
C935 C934 1.349 . S
C935 C951 1.349 . S
C936 C934 1.327 . S
C936 C955 1.429 . S
C936 H960 0.950 . S
C937 C954 1.574 . S
C937 C956 1.368 . S
C937 H961 0.949 . S
H938 C942 0.949 . S
C939 C940 1.349 . S
C939 C941 1.327 . S
C939 H962 0.950 . S
C940 C939 1.349 . S
C940 C952 1.349 . S
C941 C939 1.327 . S
C941 C957 1.429 . S
C941 H963 0.950 . S
C942 H938 0.949 . S
C942 C950 1.574 . S
C942 C958 1.368 . S
H943 C951 0.950 . S
H944 C949 0.950 . S
H945 C950 0.949 . S
H946 C952 0.950 . S
H947 C953 0.950 . S
H948 C954 0.949 . S
C949 H944 0.950 . S
C949 C951 1.327 . S
C949 C955 1.429 . S
C950 C942 1.574 . S
C950 H945 0.949 . S
C950 C956 1.368 . S
C951 C935 1.349 . S
C951 H943 0.950 . S
C951 C949 1.327 . S
C952 C940 1.349 . S
C952 H946 0.950 . S
C952 C953 1.327 . S
C953 H947 0.950 . S
C953 C952 1.327 . S
C953 C957 1.429 . S
C954 C937 1.574 . S
C954 H948 0.949 . S
C954 C958 1.368 . S
C955 C936 1.429 . S
C955 C949 1.429 . S
C955 C956 1.523 . S
C956 C937 1.368 . S
C956 C950 1.368 . S
C956 C955 1.523 . S
C957 C941 1.429 . S
C957 C953 1.429 . S
C957 C958 1.523 . S
C958 C942 1.368 . S
C958 C954 1.368 . S
C958 C957 1.523 . S
H959 C934 0.950 . S
H960 C936 0.950 . S
H961 C937 0.949 . S
H962 C939 0.950 . S
H963 C941 0.950 . S
C964 C965 1.349 . S
C964 C966 1.327 . S
C964 H989 0.950 . S
C965 C964 1.349 . S
C965 C981 1.349 . S
C966 C964 1.327 . S
C966 C985 1.429 . S
C966 H990 0.950 . S
C967 C984 1.574 . S
C967 C986 1.368 . S
C967 H991 0.949 . S
H968 C972 0.949 . S
C969 C970 1.349 . S
C969 C971 1.327 . S
C969 H992 0.950 . S
C970 C969 1.349 . S
C970 C982 1.349 . S
C971 C969 1.327 . S
C971 C987 1.429 . S
C971 H993 0.950 . S
C972 H968 0.949 . S
C972 C980 1.574 . S
C972 C988 1.368 . S
H973 C981 0.950 . S
H974 C979 0.950 . S
H975 C980 0.949 . S
H976 C982 0.950 . S
H977 C983 0.950 . S
H978 C984 0.949 . S
C979 H974 0.950 . S
C979 C981 1.327 . S
C979 C985 1.429 . S
C980 C972 1.574 . S
C980 H975 0.949 . S
C980 C986 1.368 . S
C981 C965 1.349 . S
C981 H973 0.950 . S
C981 C979 1.327 . S
C982 C970 1.349 . S
C982 H976 0.950 . S
C982 C983 1.327 . S
C983 H977 0.950 . S
C983 C982 1.327 . S
C983 C987 1.429 . S
C984 C967 1.574 . S
C984 H978 0.949 . S
C984 C988 1.368 . S
C985 C966 1.429 . S
C985 C979 1.429 . S
C985 C986 1.523 . S
C986 C967 1.368 . S
C986 C980 1.368 . S
C986 C985 1.523 . S
C987 C971 1.429 . S
C987 C983 1.429 . S
C987 C988 1.523 . S
C988 C972 1.368 . S
C988 C984 1.368 . S
C988 C987 1.523 . S
H989 C964 0.950 . S
H990 C966 0.950 . S
H991 C967 0.949 . S
H992 C969 0.950 . S
H993 C971 0.950 . S
C994 C995 1.349 . S
C994 C996 1.327 . S
C994 H1019 0.950 . S
C995 C994 1.349 . S
C995 C1011 1.349 . S
C996 C994 1.327 . S
C996 C1015 1.429 . S
C996 H1020 0.950 . S
C997 C1014 1.574 . S
C997 C1016 1.368 . S
C997 H1021 0.949 . S
H998 C1002 0.949 . S
C999 C1000 1.349 . S
C999 C1001 1.327 . S
C999 H1022 0.950 . S
C1000 C999 1.349 . S
C1000 C1012 1.349 . S
C1001 C999 1.327 . S
C1001 C1017 1.429 . S
C1001 H1023 0.950 . S
C1002 H998 0.949 . S
C1002 C1010 1.574 . S
C1002 C1018 1.368 . S
H1003 C1011 0.950 . S
H1004 C1009 0.950 . S
H1005 C1010 0.949 . S
H1006 C1012 0.950 . S
H1007 C1013 0.950 . S
H1008 C1014 0.949 . S
C1009 H1004 0.950 . S
C1009 C1011 1.327 . S
C1009 C1015 1.429 . S
C1010 C1002 1.574 . S
C1010 H1005 0.949 . S
C1010 C1016 1.368 . S
C1011 C995 1.349 . S
C1011 H1003 0.950 . S
C1011 C1009 1.327 . S
C1012 C1000 1.349 . S
C1012 H1006 0.950 . S
C1012 C1013 1.327 . S
C1013 H1007 0.950 . S
C1013 C1012 1.327 . S
C1013 C1017 1.429 . S
C1014 C997 1.574 . S
C1014 H1008 0.949 . S
C1014 C1018 1.368 . S
C1015 C996 1.429 . S
C1015 C1009 1.429 . S
C1015 C1016 1.523 . S
C1016 C997 1.368 . S
C1016 C1010 1.368 . S
C1016 C1015 1.523 . S
C1017 C1001 1.429 . S
C1017 C1013 1.429 . S
C1017 C1018 1.523 . S
C1018 C1002 1.368 . S
C1018 C1014 1.368 . S
C1018 C1017 1.523 . S
H1019 C994 0.950 . S
H1020 C996 0.950 . S
H1021 C997 0.949 . S
H1022 C999 0.950 . S
H1023 C1001 0.950 . S
C1024 C1025 1.349 . S
C1024 C1026 1.327 . S
C1024 H1049 0.950 . S
C1025 C1024 1.349 . S
C1025 C1041 1.349 . S
C1026 C1024 1.327 . S
C1026 C1045 1.429 . S
C1026 H1050 0.950 . S
C1027 C1044 1.574 . S
C1027 C1046 1.368 . S
C1027 H1051 0.949 . S
H1028 C1032 0.949 . S
C1029 C1030 1.349 . S
C1029 C1031 1.327 . S
C1029 H1052 0.950 . S
C1030 C1029 1.349 . S
C1030 C1042 1.349 . S
C1031 C1029 1.327 . S
C1031 C1047 1.429 . S
C1031 H1053 0.950 . S
C1032 H1028 0.949 . S
C1032 C1040 1.574 . S
C1032 C1048 1.368 . S
H1033 C1041 0.950 . S
H1034 C1039 0.950 . S
H1035 C1040 0.949 . S
H1036 C1042 0.950 . S
H1037 C1043 0.950 . S
H1038 C1044 0.949 . S
C1039 H1034 0.950 . S
C1039 C1041 1.327 . S
C1039 C1045 1.429 . S
C1040 C1032 1.574 . S
C1040 H1035 0.949 . S
C1040 C1046 1.368 . S
C1041 C1025 1.349 . S
C1041 H1033 0.950 . S
C1041 C1039 1.327 . S
C1042 C1030 1.349 . S
C1042 H1036 0.950 . S
C1042 C1043 1.327 . S
C1043 H1037 0.950 . S
C1043 C1042 1.327 . S
C1043 C1047 1.429 . S
C1044 C1027 1.574 . S
C1044 H1038 0.949 . S
C1044 C1048 1.368 . S
C1045 C1026 1.429 . S
C1045 C1039 1.429 . S
C1045 C1046 1.523 . S
C1046 C1027 1.368 . S
C1046 C1040 1.368 . S
C1046 C1045 1.523 . S
C1047 C1031 1.429 . S
C1047 C1043 1.429 . S
C1047 C1048 1.523 . S
C1048 C1032 1.368 . S
C1048 C1044 1.368 . S
C1048 C1047 1.523 . S
H1049 C1024 0.950 . S
H1050 C1026 0.950 . S
H1051 C1027 0.949 . S
H1052 C1029 0.950 . S
H1053 C1031 0.950 . S
C1054 C1055 1.349 . S
C1054 C1056 1.327 . S
C1054 H1079 0.950 . S
C1055 C1054 1.349 . S
C1055 C1071 1.349 . S
C1056 C1054 1.327 . S
C1056 C1075 1.429 . S
C1056 H1080 0.950 . S
C1057 C1074 1.574 . S
C1057 C1076 1.368 . S
C1057 H1081 0.949 . S
H1058 C1062 0.949 1_545 S
C1059 C1060 1.349 . S
C1059 C1061 1.327 . S
C1059 H1082 0.950 . S
C1060 C1059 1.349 . S
C1060 C1072 1.349 1_565 S
C1061 C1059 1.327 . S
C1061 C1077 1.429 . S
C1061 H1083 0.950 . S
C1062 H1058 0.949 1_565 S
C1062 C1070 1.574 . S
C1062 C1078 1.368 . S
H1063 C1071 0.950 . S
H1064 C1069 0.950 . S
H1065 C1070 0.949 . S
H1066 C1072 0.950 . S
H1067 C1073 0.950 1_545 S
H1068 C1074 0.949 . S
C1069 H1064 0.950 . S
C1069 C1071 1.327 . S
C1069 C1075 1.429 . S
C1070 C1062 1.574 . S
C1070 H1065 0.949 . S
C1070 C1076 1.368 . S
C1071 C1055 1.349 . S
C1071 H1063 0.950 . S
C1071 C1069 1.327 . S
C1072 C1060 1.349 1_545 S
C1072 H1066 0.950 . S
C1072 C1073 1.327 1_545 S
C1073 H1067 0.950 1_565 S
C1073 C1072 1.327 1_565 S
C1073 C1077 1.429 . S
C1074 C1057 1.574 . S
C1074 H1068 0.949 . S
C1074 C1078 1.368 . S
C1075 C1056 1.429 . S
C1075 C1069 1.429 . S
C1075 C1076 1.523 . S
C1076 C1057 1.368 . S
C1076 C1070 1.368 . S
C1076 C1075 1.523 . S
C1077 C1061 1.429 . S
C1077 C1073 1.429 . S
C1077 C1078 1.523 . S
C1078 C1062 1.368 . S
C1078 C1074 1.368 . S
C1078 C1077 1.523 . S
H1079 C1054 0.950 . S
H1080 C1056 0.950 . S
H1081 C1057 0.949 . S
H1082 C1059 0.950 . S
H1083 C1061 0.950 . S
C1084 C1085 1.349 . S
C1084 C1086 1.327 . S
C1084 H1109 0.950 . S
C1085 C1084 1.349 . S
C1085 C1101 1.349 . S
C1086 C1084 1.327 . S
C1086 C1105 1.429 . S
C1086 H1110 0.950 . S
C1087 C1104 1.574 . S
C1087 C1106 1.368 . S
C1087 H1111 0.949 . S
H1088 C1092 0.949 . S
C1089 C1090 1.349 . S
C1089 C1091 1.327 . S
C1089 H1112 0.950 . S
C1090 C1089 1.349 . S
C1090 C1102 1.349 . S
C1091 C1089 1.327 . S
C1091 C1107 1.429 . S
C1091 H1113 0.950 . S
C1092 H1088 0.949 . S
C1092 C1100 1.574 . S
C1092 C1108 1.368 . S
H1093 C1101 0.950 . S
H1094 C1099 0.950 . S
H1095 C1100 0.949 . S
H1096 C1102 0.950 . S
H1097 C1103 0.950 . S
H1098 C1104 0.949 . S
C1099 H1094 0.950 . S
C1099 C1101 1.327 . S
C1099 C1105 1.429 . S
C1100 C1092 1.574 . S
C1100 H1095 0.949 . S
C1100 C1106 1.368 . S
C1101 C1085 1.349 . S
C1101 H1093 0.950 . S
C1101 C1099 1.327 . S
C1102 C1090 1.349 . S
C1102 H1096 0.950 . S
C1102 C1103 1.327 . S
C1103 H1097 0.950 . S
C1103 C1102 1.327 . S
C1103 C1107 1.429 . S
C1104 C1087 1.574 . S
C1104 H1098 0.949 . S
C1104 C1108 1.368 . S
C1105 C1086 1.429 . S
C1105 C1099 1.429 . S
C1105 C1106 1.523 . S
C1106 C1087 1.368 . S
C1106 C1100 1.368 . S
C1106 C1105 1.523 . S
C1107 C1091 1.429 . S
C1107 C1103 1.429 . S
C1107 C1108 1.523 . S
C1108 C1092 1.368 . S
C1108 C1104 1.368 . S
C1108 C1107 1.523 . S
H1109 C1084 0.950 . S
H1110 C1086 0.950 . S
H1111 C1087 0.949 . S
H1112 C1089 0.950 . S
H1113 C1091 0.950 . S
C1114 C1115 1.349 . S
C1114 C1116 1.327 . S
C1114 H1139 0.950 . S
C1115 C1114 1.349 . S
C1115 C1131 1.349 . S
C1116 C1114 1.327 . S
C1116 C1135 1.429 . S
C1116 H1140 0.950 . S
C1117 C1134 1.574 . S
C1117 C1136 1.368 . S
C1117 H1141 0.949 . S
H1118 C1122 0.949 . S
C1119 C1120 1.349 . S
C1119 C1121 1.327 . S
C1119 H1142 0.950 . S
C1120 C1119 1.349 . S
C1120 C1132 1.349 . S
C1121 C1119 1.327 . S
C1121 C1137 1.429 . S
C1121 H1143 0.950 . S
C1122 H1118 0.949 . S
C1122 C1130 1.574 . S
C1122 C1138 1.368 . S
H1123 C1131 0.950 . S
H1124 C1129 0.950 . S
H1125 C1130 0.949 . S
H1126 C1132 0.950 . S
H1127 C1133 0.950 . S
H1128 C1134 0.949 . S
C1129 H1124 0.950 . S
C1129 C1131 1.327 . S
C1129 C1135 1.429 . S
C1130 C1122 1.574 . S
C1130 H1125 0.949 . S
C1130 C1136 1.368 . S
C1131 C1115 1.349 . S
C1131 H1123 0.950 . S
C1131 C1129 1.327 . S
C1132 C1120 1.349 . S
C1132 H1126 0.950 . S
C1132 C1133 1.327 . S
C1133 H1127 0.950 . S
C1133 C1132 1.327 . S
C1133 C1137 1.429 . S
C1134 C1117 1.574 . S
C1134 H1128 0.949 . S
C1134 C1138 1.368 . S
C1135 C1116 1.429 . S
C1135 C1129 1.429 . S
C1135 C1136 1.523 . S
C1136 C1117 1.368 . S
C1136 C1130 1.368 . S
C1136 C1135 1.523 . S
C1137 C1121 1.429 . S
C1137 C1133 1.429 . S
C1137 C1138 1.523 . S
C1138 C1122 1.368 . S
C1138 C1134 1.368 . S
C1138 C1137 1.523 . S
H1139 C1114 0.950 . S
H1140 C1116 0.950 . S
H1141 C1117 0.949 . S
H1142 C1119 0.950 . S
H1143 C1121 0.950 . S
C425 C74 1.795 . S
C430 C163 1.794 . S
C460 C247 1.830 . S
C455 C85 1.832 . S
C490 C323 1.835 . S
C485 C52 1.950 . S
C520 C407 1.804 . S
C515 C63 1.919 . S
C550 C154 1.793 1_565 S
C545 C30 1.745 . S
C575 C41 1.777 . S
C580 C238 1.830 . S
C605 C8 1.892 . S
C610 C312 1.834 . S
C635 C19 1.864 . S
C640 C396 1.804 . S
C670 C151 0.606 . S
C665 C62 0.552 . S
C700 C235 0.572 . S
C695 C73 0.510 . S
C730 C328 0.554 . S
C725 C84 0.449 . S
C755 C51 0.493 . S
C760 C412 0.575 . S
C785 C18 0.616 . S
C790 C160 0.598 . S
C820 C244 0.572 . S
C815 C29 0.588 . S
C850 C319 0.554 . S
C845 C40 0.558 . S
C875 C7 0.584 . S
C880 C403 0.575 . S
C905 C60 1.808 . S
C910 C144 2.000 . S
C935 C71 1.761 . S
C940 C228 1.961 . S
C970 C322 1.948 . S
C965 C82 1.675 . S
C1000 C406 1.982 . S
C995 C49 1.712 . S
C1025 C16 1.577 . S
C1030 C155 2.000 . S
C1060 C239 1.955 1_565 S
C1055 C27 1.550 . S
C1090 C331 1.947 . S
C1085 C38 1.445 . S
C1115 C5 1.469 . S
C1120 C415 1.981 . S
