# Generated by pormake.
# Topology iac, (4,6)-cn, num edge types: 1
# Building blocks:
#     Node 0, Type 0, BuildingBlock: UXUYUI_clean_sbu_0, # of connection points: 4
#     Node 1, Type 0, BuildingBlock: UXUYUI_clean_sbu_0, # of connection points: 4
#     Node 2, Type 0, BuildingBlock: UXUYUI_clean_sbu_0, # of connection points: 4
#     Node 3, Type 0, BuildingBlock: UXUYUI_clean_sbu_0, # of connection points: 4
#     Node 4, Type 0, BuildingBlock: UXUYUI_clean_sbu_0, # of connection points: 4
#     Node 5, Type 0, BuildingBlock: UXUYUI_clean_sbu_0, # of connection points: 4
#     Node 6, Type 0, BuildingBlock: UXUYUI_clean_sbu_0, # of connection points: 4
#     Node 7, Type 0, BuildingBlock: UXUYUI_clean_sbu_0, # of connection points: 4
#     Node 8, Type 0, BuildingBlock: UXUYUI_clean_sbu_0, # of connection points: 4
#     Node 9, Type 0, BuildingBlock: UXUYUI_clean_sbu_0, # of connection points: 4
#     Node 10, Type 0, BuildingBlock: UXUYUI_clean_sbu_0, # of connection points: 4
#     Node 11, Type 0, BuildingBlock: UXUYUI_clean_sbu_0, # of connection points: 4
#     Node 12, Type 0, BuildingBlock: UXUYUI_clean_sbu_0, # of connection points: 4
#     Node 13, Type 0, BuildingBlock: UXUYUI_clean_sbu_0, # of connection points: 4
#     Node 14, Type 0, BuildingBlock: UXUYUI_clean_sbu_0, # of connection points: 4
#     Node 15, Type 0, BuildingBlock: UXUYUI_clean_sbu_0, # of connection points: 4
#     Node 16, Type 0, BuildingBlock: UXUYUI_clean_sbu_0, # of connection points: 4
#     Node 17, Type 0, BuildingBlock: UXUYUI_clean_sbu_0, # of connection points: 4
#     Node 18, Type 0, BuildingBlock: UXUYUI_clean_sbu_0, # of connection points: 4
#     Node 19, Type 0, BuildingBlock: UXUYUI_clean_sbu_0, # of connection points: 4
#     Node 20, Type 0, BuildingBlock: UXUYUI_clean_sbu_0, # of connection points: 4
#     Node 21, Type 0, BuildingBlock: UXUYUI_clean_sbu_0, # of connection points: 4
#     Node 22, Type 0, BuildingBlock: UXUYUI_clean_sbu_0, # of connection points: 4
#     Node 23, Type 0, BuildingBlock: UXUYUI_clean_sbu_0, # of connection points: 4
#     Node 24, Type 1, BuildingBlock: CIFDUS_clean_sbu_1, # of connection points: 6
#     Node 25, Type 1, BuildingBlock: CIFDUS_clean_sbu_1, # of connection points: 6
#     Node 26, Type 1, BuildingBlock: CIFDUS_clean_sbu_1, # of connection points: 6
#     Node 27, Type 1, BuildingBlock: CIFDUS_clean_sbu_1, # of connection points: 6
#     Node 28, Type 1, BuildingBlock: CIFDUS_clean_sbu_1, # of connection points: 6
#     Node 29, Type 1, BuildingBlock: CIFDUS_clean_sbu_1, # of connection points: 6
#     Node 30, Type 1, BuildingBlock: CIFDUS_clean_sbu_1, # of connection points: 6
#     Node 31, Type 1, BuildingBlock: CIFDUS_clean_sbu_1, # of connection points: 6
#     Node 32, Type 1, BuildingBlock: CIFDUS_clean_sbu_1, # of connection points: 6
#     Node 33, Type 1, BuildingBlock: CIFDUS_clean_sbu_1, # of connection points: 6
#     Node 34, Type 1, BuildingBlock: CIFDUS_clean_sbu_1, # of connection points: 6
#     Node 35, Type 1, BuildingBlock: CIFDUS_clean_sbu_1, # of connection points: 6
#     Node 36, Type 1, BuildingBlock: CIFDUS_clean_sbu_1, # of connection points: 6
#     Node 37, Type 1, BuildingBlock: CIFDUS_clean_sbu_1, # of connection points: 6
#     Node 38, Type 1, BuildingBlock: CIFDUS_clean_sbu_1, # of connection points: 6
#     Node 39, Type 1, BuildingBlock: CIFDUS_clean_sbu_1, # of connection points: 6
#     Edge 40, Type (0, 1), BuildingBlock: TEMPAE_clean_linker_10, # of connection points: 2
#     Edge 41, Type (0, 1), BuildingBlock: TEMPAE_clean_linker_10, # of connection points: 2
#     Edge 42, Type (0, 1), BuildingBlock: TEMPAE_clean_linker_10, # of connection points: 2
#     Edge 43, Type (0, 1), BuildingBlock: TEMPAE_clean_linker_10, # of connection points: 2
#     Edge 44, Type (0, 1), BuildingBlock: TEMPAE_clean_linker_10, # of connection points: 2
#     Edge 45, Type (0, 1), BuildingBlock: TEMPAE_clean_linker_10, # of connection points: 2
#     Edge 46, Type (0, 1), BuildingBlock: TEMPAE_clean_linker_10, # of connection points: 2
#     Edge 47, Type (0, 1), BuildingBlock: TEMPAE_clean_linker_10, # of connection points: 2
#     Edge 48, Type (0, 1), BuildingBlock: TEMPAE_clean_linker_10, # of connection points: 2
#     Edge 49, Type (0, 1), BuildingBlock: TEMPAE_clean_linker_10, # of connection points: 2
#     Edge 50, Type (0, 1), BuildingBlock: TEMPAE_clean_linker_10, # of connection points: 2
#     Edge 51, Type (0, 1), BuildingBlock: TEMPAE_clean_linker_10, # of connection points: 2
#     Edge 52, Type (0, 1), BuildingBlock: TEMPAE_clean_linker_10, # of connection points: 2
#     Edge 53, Type (0, 1), BuildingBlock: TEMPAE_clean_linker_10, # of connection points: 2
#     Edge 54, Type (0, 1), BuildingBlock: TEMPAE_clean_linker_10, # of connection points: 2
#     Edge 55, Type (0, 1), BuildingBlock: TEMPAE_clean_linker_10, # of connection points: 2
#     Edge 56, Type (0, 1), BuildingBlock: TEMPAE_clean_linker_10, # of connection points: 2
#     Edge 57, Type (0, 1), BuildingBlock: TEMPAE_clean_linker_10, # of connection points: 2
#     Edge 58, Type (0, 1), BuildingBlock: TEMPAE_clean_linker_10, # of connection points: 2
#     Edge 59, Type (0, 1), BuildingBlock: TEMPAE_clean_linker_10, # of connection points: 2
#     Edge 60, Type (0, 1), BuildingBlock: TEMPAE_clean_linker_10, # of connection points: 2
#     Edge 61, Type (0, 1), BuildingBlock: TEMPAE_clean_linker_10, # of connection points: 2
#     Edge 62, Type (0, 1), BuildingBlock: TEMPAE_clean_linker_10, # of connection points: 2
#     Edge 63, Type (0, 1), BuildingBlock: TEMPAE_clean_linker_10, # of connection points: 2
#     Edge 64, Type (0, 1), BuildingBlock: TEMPAE_clean_linker_10, # of connection points: 2
#     Edge 65, Type (0, 1), BuildingBlock: TEMPAE_clean_linker_10, # of connection points: 2
#     Edge 66, Type (0, 1), BuildingBlock: TEMPAE_clean_linker_10, # of connection points: 2
#     Edge 67, Type (0, 1), BuildingBlock: TEMPAE_clean_linker_10, # of connection points: 2
#     Edge 68, Type (0, 1), BuildingBlock: TEMPAE_clean_linker_10, # of connection points: 2
#     Edge 69, Type (0, 1), BuildingBlock: TEMPAE_clean_linker_10, # of connection points: 2
#     Edge 70, Type (0, 1), BuildingBlock: TEMPAE_clean_linker_10, # of connection points: 2
#     Edge 71, Type (0, 1), BuildingBlock: TEMPAE_clean_linker_10, # of connection points: 2
#     Edge 72, Type (0, 1), BuildingBlock: TEMPAE_clean_linker_10, # of connection points: 2
#     Edge 73, Type (0, 1), BuildingBlock: TEMPAE_clean_linker_10, # of connection points: 2
#     Edge 74, Type (0, 1), BuildingBlock: TEMPAE_clean_linker_10, # of connection points: 2
#     Edge 75, Type (0, 1), BuildingBlock: TEMPAE_clean_linker_10, # of connection points: 2
#     Edge 76, Type (0, 1), BuildingBlock: TEMPAE_clean_linker_10, # of connection points: 2
#     Edge 77, Type (0, 1), BuildingBlock: TEMPAE_clean_linker_10, # of connection points: 2
#     Edge 78, Type (0, 1), BuildingBlock: TEMPAE_clean_linker_10, # of connection points: 2
#     Edge 79, Type (0, 1), BuildingBlock: TEMPAE_clean_linker_10, # of connection points: 2
#     Edge 80, Type (0, 1), BuildingBlock: TEMPAE_clean_linker_10, # of connection points: 2
#     Edge 81, Type (0, 1), BuildingBlock: TEMPAE_clean_linker_10, # of connection points: 2
#     Edge 82, Type (0, 1), BuildingBlock: TEMPAE_clean_linker_10, # of connection points: 2
#     Edge 83, Type (0, 1), BuildingBlock: TEMPAE_clean_linker_10, # of connection points: 2
#     Edge 84, Type (0, 1), BuildingBlock: TEMPAE_clean_linker_10, # of connection points: 2
#     Edge 85, Type (0, 1), BuildingBlock: TEMPAE_clean_linker_10, # of connection points: 2
#     Edge 86, Type (0, 1), BuildingBlock: TEMPAE_clean_linker_10, # of connection points: 2
#     Edge 87, Type (0, 1), BuildingBlock: TEMPAE_clean_linker_10, # of connection points: 2
#     Edge 88, Type (0, 1), BuildingBlock: TEMPAE_clean_linker_10, # of connection points: 2
#     Edge 89, Type (0, 1), BuildingBlock: TEMPAE_clean_linker_10, # of connection points: 2
#     Edge 90, Type (0, 1), BuildingBlock: TEMPAE_clean_linker_10, # of connection points: 2
#     Edge 91, Type (0, 1), BuildingBlock: TEMPAE_clean_linker_10, # of connection points: 2
#     Edge 92, Type (0, 1), BuildingBlock: TEMPAE_clean_linker_10, # of connection points: 2
#     Edge 93, Type (0, 1), BuildingBlock: TEMPAE_clean_linker_10, # of connection points: 2
#     Edge 94, Type (0, 1), BuildingBlock: TEMPAE_clean_linker_10, # of connection points: 2
#     Edge 95, Type (0, 1), BuildingBlock: TEMPAE_clean_linker_10, # of connection points: 2
#     Edge 96, Type (0, 1), BuildingBlock: TEMPAE_clean_linker_10, # of connection points: 2
#     Edge 97, Type (0, 1), BuildingBlock: TEMPAE_clean_linker_10, # of connection points: 2
#     Edge 98, Type (0, 1), BuildingBlock: TEMPAE_clean_linker_10, # of connection points: 2
#     Edge 99, Type (0, 1), BuildingBlock: TEMPAE_clean_linker_10, # of connection points: 2
#     Edge 100, Type (0, 1), BuildingBlock: TEMPAE_clean_linker_10, # of connection points: 2
#     Edge 101, Type (0, 1), BuildingBlock: TEMPAE_clean_linker_10, # of connection points: 2
#     Edge 102, Type (0, 1), BuildingBlock: TEMPAE_clean_linker_10, # of connection points: 2
#     Edge 103, Type (0, 1), BuildingBlock: TEMPAE_clean_linker_10, # of connection points: 2
#     Edge 104, Type (0, 1), BuildingBlock: TEMPAE_clean_linker_10, # of connection points: 2
#     Edge 105, Type (0, 1), BuildingBlock: TEMPAE_clean_linker_10, # of connection points: 2
#     Edge 106, Type (0, 1), BuildingBlock: TEMPAE_clean_linker_10, # of connection points: 2
#     Edge 107, Type (0, 1), BuildingBlock: TEMPAE_clean_linker_10, # of connection points: 2
#     Edge 108, Type (0, 1), BuildingBlock: TEMPAE_clean_linker_10, # of connection points: 2
#     Edge 109, Type (0, 1), BuildingBlock: TEMPAE_clean_linker_10, # of connection points: 2
#     Edge 110, Type (0, 1), BuildingBlock: TEMPAE_clean_linker_10, # of connection points: 2
#     Edge 111, Type (0, 1), BuildingBlock: TEMPAE_clean_linker_10, # of connection points: 2
#     Edge 112, Type (0, 1), BuildingBlock: TEMPAE_clean_linker_10, # of connection points: 2
#     Edge 113, Type (0, 1), BuildingBlock: TEMPAE_clean_linker_10, # of connection points: 2
#     Edge 114, Type (0, 1), BuildingBlock: TEMPAE_clean_linker_10, # of connection points: 2
#     Edge 115, Type (0, 1), BuildingBlock: TEMPAE_clean_linker_10, # of connection points: 2
#     Edge 116, Type (0, 1), BuildingBlock: TEMPAE_clean_linker_10, # of connection points: 2
#     Edge 117, Type (0, 1), BuildingBlock: TEMPAE_clean_linker_10, # of connection points: 2
#     Edge 118, Type (0, 1), BuildingBlock: TEMPAE_clean_linker_10, # of connection points: 2
#     Edge 119, Type (0, 1), BuildingBlock: TEMPAE_clean_linker_10, # of connection points: 2
#     Edge 120, Type (0, 1), BuildingBlock: TEMPAE_clean_linker_10, # of connection points: 2
#     Edge 121, Type (0, 1), BuildingBlock: TEMPAE_clean_linker_10, # of connection points: 2
#     Edge 122, Type (0, 1), BuildingBlock: TEMPAE_clean_linker_10, # of connection points: 2
#     Edge 123, Type (0, 1), BuildingBlock: TEMPAE_clean_linker_10, # of connection points: 2
#     Edge 124, Type (0, 1), BuildingBlock: TEMPAE_clean_linker_10, # of connection points: 2
#     Edge 125, Type (0, 1), BuildingBlock: TEMPAE_clean_linker_10, # of connection points: 2
#     Edge 126, Type (0, 1), BuildingBlock: TEMPAE_clean_linker_10, # of connection points: 2
#     Edge 127, Type (0, 1), BuildingBlock: TEMPAE_clean_linker_10, # of connection points: 2
#     Edge 128, Type (0, 1), BuildingBlock: TEMPAE_clean_linker_10, # of connection points: 2
#     Edge 129, Type (0, 1), BuildingBlock: TEMPAE_clean_linker_10, # of connection points: 2
#     Edge 130, Type (0, 1), BuildingBlock: TEMPAE_clean_linker_10, # of connection points: 2
#     Edge 131, Type (0, 1), BuildingBlock: TEMPAE_clean_linker_10, # of connection points: 2
#     Edge 132, Type (0, 1), BuildingBlock: TEMPAE_clean_linker_10, # of connection points: 2
#     Edge 133, Type (0, 1), BuildingBlock: TEMPAE_clean_linker_10, # of connection points: 2
#     Edge 134, Type (0, 1), BuildingBlock: TEMPAE_clean_linker_10, # of connection points: 2
#     Edge 135, Type (0, 1), BuildingBlock: TEMPAE_clean_linker_10, # of connection points: 2
# Relax obj value: 0.128
# Max RMSD: 0.165
# Mean RMSD: 0.153
data_MOF--net-iac--node1-UXUYUI_clean_sbu_0--node2-CIFDUS_clean_sbu_1--edge1-TEMPAE_clean_linker_10
_symmetry_space_group_name_H-M    P1
_symmetry_Int_Tables_number       1
_symmetry_cell_setting            triclinic
loop_
_symmetry_equiv_pos_as_xyz
'x, y, z'
_cell_length_a     67.543109
_cell_length_b     67.346621
_cell_length_c     67.492215
_cell_angle_alpha  89.8966
_cell_angle_beta   89.905618
_cell_angle_gamma 89.926668
loop_
_atom_site_label
_atom_site_type_symbol
_atom_site_fract_x
_atom_site_fract_y
_atom_site_fract_z
_atom_type_partial_charge
Li0 Li -0.00238 0.27122 0.1075 0.0
Li1 Li 0.01625 0.25394 0.13484 0.0
Li2 Li -0.00109 0.23418 0.10799 0.0
Li3 Li 0.97946 0.25207 0.13453 0.0
C4 C 0.03553 0.25443 0.09151 0.0
N5 N 0.06474 0.25561 0.06283 0.0
C6 C 0.05497 0.25925 0.09666 0.0
C7 C 0.03095 0.25013 0.07179 0.0
C8 C 0.06953 0.25978 0.08194 0.0
C9 C 0.04593 0.25085 0.0575 0.0
C10 C -0.00028 0.28983 0.15087 0.0
C11 C -0.00109 0.29996 0.18511 0.0
N12 N 0.00493 0.31845 0.17966 0.0
C13 C 0.00593 0.30892 0.1456 0.0
C14 C -0.00382 0.28528 0.17077 0.0
C15 C 0.00847 0.32319 0.16037 0.0
C16 C 0.97984 0.30674 0.0961 0.0
N17 N -0.00437 0.29488 0.09206 0.0
C18 C 0.00802 0.31852 0.06869 0.0
C19 C 0.00956 0.30032 0.07857 0.0
C20 C 0.99215 0.33143 0.07295 0.0
C21 C 0.97782 0.32516 0.08673 0.0
H22 H 0.96907 0.30209 0.10704 0.0
H23 H 0.02206 0.29077 0.07568 0.0
C24 C 0.04623 0.23763 0.15919 0.0
N25 N 0.03934 0.25482 0.15112 0.0
C26 C 0.0635 0.2376 0.17057 0.0
C27 C 0.06661 0.27287 0.16472 0.0
C28 C 0.04911 0.27228 0.15368 0.0
C29 C 0.07399 0.25535 0.17331 0.0
H30 H 0.0385 0.22386 0.15653 0.0
H31 H 0.04352 0.28567 0.14682 0.0
C32 C 0.96195 0.25002 0.09048 0.0
N33 N 0.93431 0.24706 0.06053 0.0
C34 C 0.94254 0.24431 0.09483 0.0
C35 C 0.96732 0.2543 0.07094 0.0
C36 C 0.92878 0.24289 0.07947 0.0
C37 C 0.95312 0.25268 0.05599 0.0
C38 C -0.0038 0.21606 0.15154 0.0
C39 C 0.99185 0.1965 0.14623 0.0
C40 C -0.00174 0.22102 0.17152 0.0
C41 C 0.98966 0.18216 0.16105 0.0
C42 C -0.00402 0.20624 0.1859 0.0
N43 N 0.99178 0.18729 0.18041 0.0
C44 C 0.0189 0.20313 0.08817 0.0
C45 C 0.984 0.19982 0.08834 0.0
C46 C 0.02101 0.18477 0.07876 0.0
N47 N 0.00062 0.21024 0.0928 0.0
C48 C 0.98544 0.18123 0.07919 0.0
C49 C 0.00417 0.1733 0.07444 0.0
H50 H 0.03192 0.2115 0.0922 0.0
H51 H 0.96966 0.20561 0.09254 0.0
C52 C 0.94812 0.27031 0.15516 0.0
N53 N 0.95574 0.25234 0.15 0.0
C54 C 0.93021 0.27154 0.16551 0.0
C55 C 0.92819 0.23573 0.1649 0.0
C56 C 0.94622 0.23519 0.15467 0.0
C57 C 0.91988 0.25411 0.17037 0.0
H58 H 0.9558 0.28375 0.15092 0.0
H59 H 0.95246 0.2211 0.15018 0.0
O60 O 0.02121 0.2535 0.10583 0.0
O61 O -0.00352 0.27592 0.13652 0.0
O62 O 0.97543 0.25194 0.10543 0.0
O63 O -0.00086 0.23008 0.13715 0.0
H64 H 0.05879 0.26247 0.11188 0.0
H65 H 0.01601 0.24619 0.06759 0.0
H66 H 0.08464 0.26347 0.08572 0.0
H67 H 0.04261 0.24757 0.04218 0.0
H68 H -0.00384 0.29668 0.20056 0.0
H69 H 0.00867 0.31269 0.13024 0.0
H70 H 0.99116 0.27064 0.17506 0.0
H71 H 0.0132 0.33804 0.1565 0.0
H72 H 0.01926 0.32247 0.05794 0.0
H73 H 0.96549 0.33463 0.09075 0.0
H74 H 0.0689 0.22374 0.17671 0.0
H75 H 0.0743 0.28685 0.16651 0.0
H76 H 0.93814 0.24109 0.10992 0.0
H77 H 0.98223 0.25897 0.06738 0.0
H78 H 0.91369 0.23852 0.08261 0.0
H79 H 0.95704 0.25596 0.04078 0.0
H80 H 0.99034 0.19239 0.13082 0.0
H81 H 0.00184 0.23604 0.17585 0.0
H82 H 0.98637 0.16695 0.15715 0.0
H83 H -0.00236 0.20983 0.20143 0.0
H84 H 0.03574 0.17955 0.07515 0.0
H85 H 0.97201 0.1729 0.07653 0.0
H86 H 0.92426 0.28601 0.16922 0.0
H87 H 0.92083 0.22191 0.16851 0.0
Li88 Li 0.98316 0.74674 0.3583 0.0
Li89 Li -0.00014 0.76626 0.38474 0.0
Li90 Li 0.0192 0.74846 0.35865 0.0
Li91 Li 0.00203 0.73024 0.38562 0.0
C92 C -0.00015 0.785 0.34171 0.0
N93 N -0.00029 0.81456 0.31328 0.0
C94 C -0.00321 0.80477 0.34719 0.0
C95 C 0.00285 0.78024 0.32179 0.0
C96 C -0.00325 0.8195 0.33259 0.0
C97 C 0.00274 0.79541 0.30763 0.0
C98 C 0.96414 0.74956 0.40155 0.0
C99 C 0.95462 0.74995 0.43598 0.0
N100 N 0.93577 0.75465 0.43062 0.0
C101 C 0.94468 0.75434 0.39636 0.0
C102 C 0.96918 0.74729 0.4215 0.0
C103 C 0.93056 0.75688 0.41129 0.0
C104 C 0.95044 0.72743 0.34275 0.0
N105 N 0.96031 0.745 0.34298 0.0
C106 C 0.93411 0.76122 0.32581 0.0
C107 C 0.95275 0.76167 0.33452 0.0
C108 C 0.9233 0.74352 0.32612 0.0
C109 C 0.93165 0.72634 0.33429 0.0
H110 H 0.95677 0.71457 0.34999 0.0
H111 H 0.96071 0.77553 0.33541 0.0
C112 C 0.01689 0.79797 0.40402 0.0
N113 N -0.00079 0.78939 0.39981 0.0
C114 C 0.01748 0.81607 0.4139 0.0
C115 C 0.98164 0.81596 0.41507 0.0
C116 C 0.98175 0.79789 0.40508 0.0
C117 C -0.00032 0.82534 0.41935 0.0
H118 H 0.03049 0.79092 0.39931 0.0
H119 H 0.96793 0.79096 0.40104 0.0
C120 C 0.00263 0.71028 0.34261 0.0
N121 N 0.00291 0.68125 0.31376 0.0
C122 C 0.00577 0.69043 0.3478 0.0
C123 C -0.00042 0.71539 0.32278 0.0
C124 C 0.00588 0.67596 0.33299 0.0
C125 C -0.00022 0.70048 0.3084 0.0
C126 C 0.03782 0.74742 0.40189 0.0
C127 C 0.05716 0.74209 0.39672 0.0
C128 C 0.03295 0.75044 0.42179 0.0
C129 C 0.07132 0.73974 0.41161 0.0
C130 C 0.04753 0.74789 0.43625 0.0
N131 N 0.06625 0.74264 0.4309 0.0
C132 C 0.04929 0.7679 0.33816 0.0
C133 C 0.05105 0.73266 0.33753 0.0
C134 C 0.06659 0.76935 0.32701 0.0
N135 N 0.04189 0.74976 0.34299 0.0
C136 C 0.06857 0.73343 0.32666 0.0
C137 C 0.07639 0.75195 0.32135 0.0
H138 H 0.04189 0.78121 0.3432 0.0
H139 H 0.04493 0.7185 0.34194 0.0
C140 C 0.9839 0.69995 0.40626 0.0
N141 N 0.00186 0.70817 0.40238 0.0
C142 C 0.98247 0.6835 0.41867 0.0
C143 C 0.01807 0.68432 0.42279 0.0
C144 C 0.01882 0.70065 0.41014 0.0
C145 C -0.00029 0.67558 0.42711 0.0
H146 H 0.97072 0.70614 0.39957 0.0
H147 H 0.03294 0.70713 0.40634 0.0
O148 O -0.0 0.77046 0.35588 0.0
O149 O 0.97805 0.74675 0.38708 0.0
O150 O 0.00232 0.72452 0.35702 0.0
O151 O 0.02388 0.74997 0.38745 0.0
H152 H 0.99445 0.80871 0.36255 0.0
H153 H 0.00537 0.76504 0.31732 0.0
H154 H 0.99439 0.83487 0.33662 0.0
H155 H 0.00509 0.79197 0.29216 0.0
H156 H 0.95828 0.74823 0.45149 0.0
H157 H 0.94054 0.75605 0.38096 0.0
H158 H 0.98412 0.74339 0.42573 0.0
H159 H 0.91544 0.76059 0.4075 0.0
H160 H 0.92778 0.77473 0.31979 0.0
H161 H 0.92341 0.71257 0.3349 0.0
H162 H 0.03166 0.82282 0.41711 0.0
H163 H 0.96762 0.82282 0.41884 0.0
H164 H 0.00809 0.68625 0.36313 0.0
H165 H -0.00305 0.73066 0.31856 0.0
H166 H 0.0083 0.66054 0.33679 0.0
H167 H -0.00258 0.70419 0.29299 0.0
H168 H 0.06118 0.73982 0.38136 0.0
H169 H 0.01811 0.75475 0.42601 0.0
H170 H 0.08634 0.73562 0.40782 0.0
H171 H 0.04398 0.75013 0.45172 0.0
H172 H 0.07252 0.78382 0.32328 0.0
H173 H 0.07598 0.71977 0.32252 0.0
H174 H 0.9681 0.67698 0.42161 0.0
H175 H 0.03171 0.67824 0.42867 0.0
Li176 Li 0.51659 0.75178 0.63359 0.0
Li177 Li 0.4984 0.77034 0.60648 0.0
Li178 Li 0.47974 0.75167 0.63331 0.0
Li179 Li 0.49848 0.73331 0.60639 0.0
C180 C 0.49962 0.78879 0.6499 0.0
N181 N 0.50255 0.81776 0.67866 0.0
C182 C 0.50661 0.80769 0.64498 0.0
C183 C 0.49417 0.78458 0.66945 0.0
C184 C 0.50796 0.82215 0.65973 0.0
C185 C 0.49577 0.79944 0.68378 0.0
C186 C 0.53617 0.754 0.59085 0.0
C187 C 0.54836 0.75125 0.55736 0.0
N188 N 0.56656 0.7572 0.56359 0.0
C189 C 0.55498 0.76009 0.59692 0.0
C190 C 0.5328 0.74952 0.57092 0.0
C191 C 0.57015 0.76161 0.58291 0.0
C192 C 0.55095 0.73369 0.64811 0.0
N193 N 0.5396 0.75029 0.64997 0.0
C194 C 0.56143 0.76319 0.67464 0.0
C195 C 0.54455 0.76497 0.66285 0.0
C196 C 0.5735 0.74632 0.67288 0.0
C197 C 0.56817 0.73146 0.65937 0.0
H198 H 0.54666 0.72226 0.63773 0.0
H199 H 0.53558 0.77817 0.66393 0.0
C200 C 0.48244 0.80715 0.59709 0.0
N201 N 0.49664 0.79411 0.5912 0.0
C202 C 0.48037 0.82548 0.5876 0.0
C203 C 0.50703 0.81629 0.56554 0.0
C204 C 0.50874 0.79824 0.57562 0.0
C205 C 0.4929 0.83041 0.57168 0.0
H206 H 0.473 0.80345 0.60952 0.0
H207 H 0.51985 0.78768 0.57109 0.0
C208 C 0.49664 0.71499 0.65024 0.0
N209 N 0.49398 0.68688 0.67995 0.0
C210 C 0.49175 0.69537 0.64565 0.0
C211 C 0.50021 0.72034 0.66989 0.0
C212 C 0.49046 0.68138 0.6609 0.0
C213 C 0.49878 0.7059 0.68472 0.0
C214 C 0.46189 0.74949 0.58959 0.0
C215 C 0.44262 0.74367 0.59441 0.0
C216 C 0.46691 0.75324 0.56985 0.0
C217 C 0.42862 0.74169 0.57933 0.0
C218 C 0.45249 0.75108 0.55519 0.0
N219 N 0.43381 0.74541 0.5602 0.0
C220 C 0.44858 0.77197 0.65134 0.0
C221 C 0.44743 0.73729 0.6571 0.0
C222 C 0.43116 0.77479 0.66216 0.0
N223 N 0.45634 0.75348 0.64905 0.0
C224 C 0.42985 0.73939 0.66789 0.0
C225 C 0.42138 0.75836 0.67049 0.0
H226 H 0.45589 0.78458 0.64461 0.0
H227 H 0.45376 0.72271 0.65485 0.0
C228 C 0.51819 0.70354 0.58478 0.0
N229 N 0.49992 0.70991 0.59039 0.0
C230 C 0.52039 0.6862 0.57366 0.0
C231 C 0.48496 0.68173 0.57496 0.0
C232 C 0.4834 0.69946 0.58565 0.0
C233 C 0.50369 0.67476 0.5688 0.0
H234 H 0.53116 0.71179 0.58917 0.0
H235 H 0.46906 0.70462 0.59062 0.0
O236 O 0.49792 0.77458 0.63556 0.0
O237 O 0.52137 0.75176 0.60452 0.0
O238 O 0.49832 0.72873 0.63542 0.0
O239 O 0.47557 0.752 0.60425 0.0
H240 H 0.51098 0.81115 0.62993 0.0
H241 H 0.48876 0.77001 0.6735 0.0
H242 H 0.51331 0.83686 0.65613 0.0
H243 H 0.4916 0.79642 0.69897 0.0
H244 H 0.54598 0.74783 0.54189 0.0
H245 H 0.55785 0.76349 0.61232 0.0
H246 H 0.51833 0.74473 0.56601 0.0
H247 H 0.5848 0.76625 0.5874 0.0
H248 H 0.5653 0.77509 0.68469 0.0
H249 H 0.57721 0.71828 0.65761 0.0
H250 H 0.46945 0.83589 0.59311 0.0
H251 H 0.51679 0.81918 0.55312 0.0
H252 H 0.48903 0.69101 0.63047 0.0
H253 H 0.50415 0.73545 0.67363 0.0
H254 H 0.4867 0.66613 0.65758 0.0
H255 H 0.50153 0.70979 0.70001 0.0
H256 H 0.4385 0.74082 0.60967 0.0
H257 H 0.48176 0.75787 0.56593 0.0
H258 H 0.41363 0.73724 0.58284 0.0
H259 H 0.45613 0.75396 0.53984 0.0
H260 H 0.42544 0.7897 0.66393 0.0
H261 H 0.42271 0.7262 0.67366 0.0
H262 H 0.53513 0.68181 0.56911 0.0
H263 H 0.47161 0.67334 0.57211 0.0
Li264 Li 0.48304 0.24656 0.85906 0.0
Li265 Li 0.50107 0.26477 0.88522 0.0
Li266 Li 0.51902 0.24614 0.85848 0.0
Li267 Li 0.5015 0.2287 0.88581 0.0
C268 C 0.49943 0.2835 0.84215 0.0
N269 N 0.49657 0.31268 0.81349 0.0
C270 C 0.49496 0.30304 0.84752 0.0
C271 C 0.5025 0.27879 0.82224 0.0
C272 C 0.49357 0.31758 0.8328 0.0
C273 C 0.50096 0.29376 0.80795 0.0
C274 C 0.46474 0.24858 0.90272 0.0
C275 C 0.45594 0.24786 0.93735 0.0
N276 N 0.43699 0.25273 0.93255 0.0
C277 C 0.44516 0.25349 0.89812 0.0
C278 C 0.47018 0.24565 0.92247 0.0
C279 C 0.43136 0.25556 0.91341 0.0
C280 C 0.45246 0.22938 0.83727 0.0
N281 N 0.46018 0.24676 0.84384 0.0
C282 C 0.43242 0.2649 0.83188 0.0
C283 C 0.45076 0.26436 0.84118 0.0
C284 C 0.42381 0.24712 0.82528 0.0
C285 C 0.43426 0.22924 0.82765 0.0
H286 H 0.46012 0.21556 0.84006 0.0
H287 H 0.45712 0.27784 0.84706 0.0
C288 C 0.51889 0.29663 0.90423 0.0
N289 N 0.50124 0.28786 0.90033 0.0
C290 C 0.51942 0.31481 0.91401 0.0
C291 C 0.48361 0.31429 0.91572 0.0
C292 C 0.48377 0.29622 0.90581 0.0
C293 C 0.50158 0.32389 0.91968 0.0
H294 H 0.5325 0.28972 0.89932 0.0
H295 H 0.46996 0.28919 0.90192 0.0
C296 C 0.50159 0.2088 0.84289 0.0
N297 N 0.50358 0.17949 0.81438 0.0
C298 C 0.50499 0.18907 0.84841 0.0
C299 C 0.49916 0.21364 0.82289 0.0
C300 C 0.50596 0.17447 0.83377 0.0
C301 C 0.50023 0.19859 0.8087 0.0
C302 C 0.53847 0.24611 0.90164 0.0
C303 C 0.55811 0.24202 0.8965 0.0
C304 C 0.53346 0.24926 0.92149 0.0
C305 C 0.57244 0.24103 0.91138 0.0
C306 C 0.54822 0.24809 0.93593 0.0
N307 N 0.56724 0.24403 0.93062 0.0
C308 C 0.55106 0.26404 0.84012 0.0
C309 C 0.5477 0.22967 0.83325 0.0
C310 C 0.56841 0.26493 0.82896 0.0
N311 N 0.54128 0.24655 0.84214 0.0
C312 C 0.56472 0.22996 0.82166 0.0
C313 C 0.57556 0.24764 0.81976 0.0
H314 H 0.54561 0.27715 0.84761 0.0
H315 H 0.53993 0.21588 0.83547 0.0
C316 C 0.48335 0.1982 0.90648 0.0
N317 N 0.50116 0.20666 0.90249 0.0
C318 C 0.48224 0.18179 0.91902 0.0
C319 C 0.51783 0.18329 0.92304 0.0
C320 C 0.51827 0.19951 0.91026 0.0
C321 C 0.49965 0.17428 0.92747 0.0
H322 H 0.47004 0.20418 0.89984 0.0
H323 H 0.53225 0.20622 0.90638 0.0
O324 O 0.50132 0.26924 0.85646 0.0
O325 O 0.47836 0.2464 0.88786 0.0
O326 O 0.50063 0.22321 0.85711 0.0
O327 O 0.52434 0.24717 0.8872 0.0
H328 H 0.49266 0.30694 0.8629 0.0
H329 H 0.50617 0.26378 0.81788 0.0
H330 H 0.49014 0.33276 0.83675 0.0
H331 H 0.50332 0.29035 0.79247 0.0
H332 H 0.45994 0.24564 0.95271 0.0
H333 H 0.44067 0.25569 0.88289 0.0
H334 H 0.48519 0.2416 0.92627 0.0
H335 H 0.41616 0.2594 0.91007 0.0
H336 H 0.42469 0.27895 0.83069 0.0
H337 H 0.42824 0.21526 0.82257 0.0
H338 H 0.53356 0.32178 0.91695 0.0
H339 H 0.46956 0.32103 0.91962 0.0
H340 H 0.50688 0.18511 0.86384 0.0
H341 H 0.49645 0.22882 0.81841 0.0
H342 H 0.5086 0.15914 0.83781 0.0
H343 H 0.49839 0.20209 0.79316 0.0
H344 H 0.56222 0.23963 0.88118 0.0
H345 H 0.51838 0.25264 0.92568 0.0
H346 H 0.5877 0.23786 0.90762 0.0
H347 H 0.54456 0.25045 0.95136 0.0
H348 H 0.57648 0.27879 0.82819 0.0
H349 H 0.56955 0.21634 0.81463 0.0
H350 H 0.46801 0.17503 0.92205 0.0
H351 H 0.53159 0.17751 0.92895 0.0
Li352 Li 0.11695 -0.00253 0.26965 0.0
Li353 Li 0.14329 0.01582 0.25051 0.0
Li354 Li 0.11635 -0.00385 0.23285 0.0
Li355 Li 0.14388 0.97897 0.2513 0.0
C356 C 0.10005 0.03381 0.25382 0.0
N357 N 0.07182 0.06297 0.2594 0.0
C358 C 0.10565 0.05265 0.26039 0.0
C359 C 0.08013 0.02978 0.25006 0.0
C360 C 0.09115 0.0672 0.26311 0.0
C361 C 0.06606 0.04472 0.25301 0.0
C362 C 0.16062 -9e-05 0.28766 0.0
C363 C 0.19511 -0.00054 0.29683 0.0
N364 N 0.18996 0.00324 0.31594 0.0
C365 C 0.15566 0.00375 0.3074 0.0
C366 C 0.1805 -0.00232 0.28231 0.0
C367 C 0.1707 0.0054 0.32148 0.0
C368 C 0.09531 0.97882 0.29986 0.0
N369 N 0.10166 -0.00316 0.29336 0.0
C370 C 0.08934 0.01239 0.32272 0.0
C371 C 0.09872 0.01353 0.30426 0.0
C372 C 0.0828 0.99389 0.32998 0.0
C373 C 0.08563 0.97703 0.31805 0.0
H374 H 0.09818 0.9657 0.29112 0.0
H375 H 0.10429 0.02762 0.29893 0.0
C376 C 0.15697 0.04953 0.23092 0.0
N377 N 0.15837 0.03962 0.24843 0.0
C378 C 0.1665 0.06776 0.22834 0.0
C379 C 0.17926 0.06496 0.26167 0.0
C380 C 0.16921 0.04694 0.26373 0.0
C381 C 0.17777 0.07567 0.24386 0.0
H382 H 0.14813 0.04339 0.21907 0.0
H383 H 0.16976 0.03906 0.27766 0.0
C384 C 0.10041 0.96001 0.24942 0.0
N385 N 0.07111 0.93196 0.24407 0.0
C386 C 0.10544 0.94043 0.24475 0.0
C387 C 0.08051 0.96533 0.25143 0.0
C388 C 0.0904 0.92646 0.2421 0.0
C389 C 0.0659 0.95094 0.24862 0.0
C390 C 0.15988 0.99462 0.21402 0.0
C391 C 0.15504 0.98815 0.19498 0.0
C392 C 0.17951 -0.00074 0.21857 0.0
C393 C 0.16999 0.98632 0.18077 0.0
C394 C 0.19405 -0.00282 0.20397 0.0
N395 N 0.18903 0.99082 0.18553 0.0
C396 C 0.0965 0.01453 0.20127 0.0
C397 C 0.09164 0.9797 0.20232 0.0
C398 C 0.08461 0.01611 0.18439 0.0
N399 N 0.09972 -0.00346 0.20989 0.0
C400 C 0.07942 0.98064 0.18563 0.0
C401 C 0.07581 -0.00098 0.17642 0.0
H402 H 0.10325 0.02767 0.2075 0.0
H403 H 0.09478 0.9655 0.20907 0.0
C404 C 0.16607 0.94972 0.27101 0.0
N405 N 0.16003 0.95582 0.25279 0.0
C406 C 0.17666 0.93205 0.27323 0.0
C407 C 0.17432 0.92699 0.23789 0.0
C408 C 0.16405 0.94497 0.23632 0.0
C409 C 0.18067 0.92017 0.2566 0.0
H410 H 0.16228 0.95835 0.28395 0.0
H411 H 0.15872 0.94995 0.22204 0.0
O412 O 0.11415 0.01967 0.25032 0.0
O413 O 0.146 -0.00207 0.27379 0.0
O414 O 0.11498 0.97378 0.25228 0.0
O415 O 0.14531 -0.00295 0.22788 0.0
H416 H 0.12105 0.05603 0.26321 0.0
H417 H 0.07561 0.01534 0.24473 0.0
H418 H 0.09526 0.08187 0.26812 0.0
H419 H 0.05058 0.04184 0.25012 0.0
H420 H 0.21056 -0.00223 0.29291 0.0
H421 H 0.14035 0.00537 0.31183 0.0
H422 H 0.18457 0.99449 0.26715 0.0
H423 H 0.16707 0.00834 0.33681 0.0
H424 H 0.08782 0.02577 0.33145 0.0
H425 H 0.08058 0.96252 0.32276 0.0
H426 H 0.16503 0.07564 0.21441 0.0
H427 H 0.1876 0.07078 0.27406 0.0
H428 H 0.12079 0.93605 0.24324 0.0
H429 H 0.07641 0.9804 0.25516 0.0
H430 H 0.09406 0.91124 0.23851 0.0
H431 H 0.05043 0.95483 0.25011 0.0
H432 H 0.13986 0.98468 0.1912 0.0
H433 H 0.18343 0.00458 0.23315 0.0
H434 H 0.16646 0.98137 0.16596 0.0
H435 H 0.20931 0.00072 0.20726 0.0
H436 H 0.08224 0.03054 0.1777 0.0
H437 H 0.07323 0.96707 0.1797 0.0
H438 H 0.18144 0.92767 0.28791 0.0
H439 H 0.17666 0.91825 0.22464 0.0
Li440 Li 0.23253 0.88845 0.50106 0.0
Li441 Li 0.25101 0.86131 0.51743 0.0
Li442 Li 0.26862 0.88915 0.49991 0.0
Li443 Li 0.25094 0.86273 0.48115 0.0
C444 C 0.24914 0.9046 0.53748 0.0
N445 N 0.24546 0.93394 0.56579 0.0
C446 C 0.24448 0.89961 0.55704 0.0
C447 C 0.25202 0.92449 0.53231 0.0
C448 C 0.24268 0.91467 0.57114 0.0
C449 C 0.25004 0.93912 0.54684 0.0
C450 C 0.21393 0.84504 0.50115 0.0
C451 C 0.20376 0.8108 0.49905 0.0
N452 N 0.18524 0.81607 0.50502 0.0
C453 C 0.19479 0.85013 0.50721 0.0
C454 C 0.21845 0.82524 0.49692 0.0
C455 C 0.18049 0.83527 0.50909 0.0
C456 C 0.20261 0.91171 0.48447 0.0
N457 N 0.20972 0.9043 0.50181 0.0
C458 C 0.18313 0.91892 0.51991 0.0
C459 C 0.20042 0.90761 0.51936 0.0
C460 C 0.17565 0.92693 0.50226 0.0
C461 C 0.18558 0.92338 0.48439 0.0
H462 H 0.21004 0.90836 0.47069 0.0
H463 H 0.20627 0.90122 0.53284 0.0
C464 C 0.2707 0.84006 0.54696 0.0
N465 N 0.25252 0.84394 0.53926 0.0
C466 C 0.27268 0.82716 0.56302 0.0
C467 C 0.23713 0.82274 0.56303 0.0
C468 C 0.23585 0.83576 0.54702 0.0
C469 C 0.25573 0.8183 0.57121 0.0
H470 H 0.28366 0.84708 0.54068 0.0
H471 H 0.22154 0.83953 0.54097 0.0
C472 C 0.25151 0.90624 0.46347 0.0
N473 N 0.2542 0.93517 0.43451 0.0
C474 C 0.25508 0.90094 0.44377 0.0
C475 C 0.24928 0.92625 0.46845 0.0
C476 C 0.25641 0.91578 0.42935 0.0
C477 C 0.2507 0.94065 0.45359 0.0
C478 C 0.28779 0.84578 0.49817 0.0
C479 C 0.30775 0.85079 0.49597 0.0
C480 C 0.28231 0.82585 0.49966 0.0
C481 C 0.32194 0.83569 0.49527 0.0
C482 C 0.29694 0.81118 0.49894 0.0
N483 N 0.31629 0.81637 0.49676 0.0
C484 C 0.3011 0.90796 0.51695 0.0
C485 C 0.2997 0.90959 0.48183 0.0
C486 C 0.31985 0.91658 0.51688 0.0
N487 N 0.29164 0.90446 0.49957 0.0
C488 C 0.31829 0.91844 0.48108 0.0
C489 C 0.32874 0.92158 0.49873 0.0
H490 H 0.29442 0.90332 0.53077 0.0
H491 H 0.29212 0.90598 0.46824 0.0
C492 C 0.235 0.84356 0.44794 0.0
N493 N 0.25196 0.84844 0.45752 0.0
C494 C 0.23591 0.83486 0.42922 0.0
C495 C 0.27169 0.83611 0.43095 0.0
C496 C 0.27008 0.8449 0.44952 0.0
C497 C 0.25446 0.83123 0.42049 0.0
H498 H 0.22082 0.84688 0.45464 0.0
H499 H 0.28327 0.84952 0.45727 0.0
O500 O 0.25146 0.88995 0.52367 0.0
O501 O 0.22799 0.85948 0.49902 0.0
O502 O 0.24979 0.89182 0.47767 0.0
O503 O 0.27379 0.86043 0.49906 0.0
H504 H 0.24238 0.88424 0.56128 0.0
H505 H 0.25592 0.92855 0.5173 0.0
H506 H 0.23912 0.91102 0.58635 0.0
H507 H 0.25223 0.95458 0.54306 0.0
H508 H 0.20706 0.79541 0.49589 0.0
H509 H 0.191 0.86541 0.5104 0.0
H510 H 0.23311 0.82109 0.49198 0.0
H511 H 0.16561 0.83901 0.51375 0.0
H512 H 0.17567 0.92138 0.53392 0.0
H513 H 0.17994 0.92915 0.4705 0.0
H514 H 0.28726 0.82419 0.569 0.0
H515 H 0.22367 0.81666 0.5693 0.0
H516 H 0.25674 0.88553 0.43961 0.0
H517 H 0.24629 0.93059 0.48357 0.0
H518 H 0.25915 0.91188 0.41404 0.0
H519 H 0.24895 0.9562 0.45721 0.0
H520 H 0.31224 0.86617 0.49483 0.0
H521 H 0.26695 0.82175 0.50154 0.0
H522 H 0.33744 0.83934 0.49356 0.0
H523 H 0.29293 0.79568 0.50014 0.0
H524 H 0.32753 0.91888 0.53076 0.0
H525 H 0.32485 0.92187 0.46682 0.0
H526 H 0.22231 0.83109 0.42162 0.0
H527 H 0.28623 0.83372 0.42458 0.0
Li528 Li 0.36344 0.98434 0.74664 0.0
Li529 Li 0.38912 0.00315 0.76494 0.0
Li530 Li 0.36262 0.02025 0.74526 0.0
Li531 Li 0.39037 0.00268 0.72898 0.0
C532 C 0.34592 0.00102 0.78311 0.0
N533 N 0.31738 -0.00237 0.81231 0.0
C534 C 0.35138 -0.00336 0.80261 0.0
C535 C 0.32594 0.00375 0.77848 0.0
C536 C 0.33674 0.99495 0.81715 0.0
C537 C 0.31174 0.00196 0.79346 0.0
C538 C 0.40633 0.96564 0.74985 0.0
C539 C 0.44051 0.95533 0.75108 0.0
N540 N 0.43461 0.93625 0.75403 0.0
C541 C 0.4006 0.94592 0.75288 0.0
C542 C 0.42644 0.97041 0.74895 0.0
C543 C 0.41512 0.93128 0.75497 0.0
C544 C 0.34453 0.95196 0.72949 0.0
N545 N 0.34873 0.96106 0.74692 0.0
C546 C 0.33603 0.93381 0.7654 0.0
C547 C 0.34451 0.95258 0.76468 0.0
C548 C 0.33205 0.92377 0.74766 0.0
C549 C 0.33595 0.93316 0.72951 0.0
H550 H 0.34855 0.95896 0.71563 0.0
H551 H 0.34854 0.96 0.77825 0.0
C552 C 0.40914 0.02095 0.79669 0.0
N553 N 0.40378 0.00347 0.78823 0.0
C554 C 0.4177 0.02103 0.81548 0.0
C555 C 0.4153 0.98514 0.81608 0.0
C556 C 0.40694 0.98575 0.7973 0.0
C557 C 0.42033 0.00296 0.8255 0.0
H558 H 0.40605 0.03481 0.78919 0.0
H559 H 0.40208 0.97217 0.79037 0.0
C560 C 0.34682 0.0023 0.70921 0.0
N561 N 0.31674 0.00382 0.68157 0.0
C562 C 0.35118 0.00593 0.68928 0.0
C563 C 0.3272 -0.00062 0.7151 0.0
C564 C 0.33576 0.00665 0.67553 0.0
C565 C 0.31219 0.00024 0.70089 0.0
C566 C 0.40579 0.04006 0.74521 0.0
C567 C 0.40078 0.05979 0.74112 0.0
C568 C 0.4256 0.03488 0.74812 0.0
C569 C 0.41575 0.07404 0.73996 0.0
C570 C 0.44015 0.04957 0.7468 0.0
N571 N 0.43496 0.06868 0.7428 0.0
C572 C 0.34049 0.05036 0.76219 0.0
C573 C 0.34065 0.05044 0.72697 0.0
C574 C 0.32885 0.06741 0.76253 0.0
N575 N 0.34607 0.04232 0.74459 0.0
C576 C 0.32911 0.06757 0.72663 0.0
C577 C 0.32326 0.07615 0.74458 0.0
H578 H 0.34548 0.04377 0.77592 0.0
H579 H 0.34573 0.04393 0.71325 0.0
C580 C 0.41504 0.98462 0.70125 0.0
N581 N 0.40749 0.00228 0.70736 0.0
C582 C 0.42769 0.98388 0.68497 0.0
C583 C 0.42408 0.01948 0.68138 0.0
C584 C 0.4117 0.01954 0.69788 0.0
C585 C 0.43218 0.00145 0.67469 0.0
H586 H 0.41103 0.97108 0.70883 0.0
H587 H 0.40509 0.03328 0.7029 0.0
O588 O 0.36017 0.00317 0.76883 0.0
O589 O 0.39224 0.98004 0.74736 0.0
O590 O 0.36184 0.00128 0.72274 0.0
O591 O 0.39122 0.02607 0.74681 0.0
H592 H 0.36676 0.99463 0.80652 0.0
H593 H 0.32146 0.00744 0.76355 0.0
H594 H 0.34078 0.99157 0.83229 0.0
H595 H 0.29622 0.0041 0.7901 0.0
H596 H 0.45613 0.9588 0.75033 0.0
H597 H 0.38512 0.94192 0.75351 0.0
H598 H 0.43113 0.98552 0.7464 0.0
H599 H 0.41089 0.91596 0.7573 0.0
H600 H 0.33303 0.92701 0.77965 0.0
H601 H 0.3332 0.92571 0.71558 0.0
H602 H 0.42133 0.03502 0.82247 0.0
H603 H 0.41729 0.97096 0.82341 0.0
H604 H 0.36633 0.00812 0.6845 0.0
H605 H 0.32362 -0.00368 0.73041 0.0
H606 H 0.3389 0.00943 0.66005 0.0
H607 H 0.29693 -0.00201 0.70522 0.0
H608 H 0.38547 0.06404 0.73895 0.0
H609 H 0.42969 0.01975 0.75153 0.0
H610 H 0.41209 0.08938 0.73686 0.0
H611 H 0.45555 0.04578 0.74904 0.0
H612 H 0.32483 0.07409 0.77657 0.0
H613 H 0.32521 0.07434 0.71259 0.0
H614 H 0.43364 0.96969 0.68033 0.0
H615 H 0.42672 0.0333 0.67358 0.0
Li616 Li 0.25257 0.13626 0.01682 0.0
Li617 Li 0.26994 0.1101 -0.00281 0.0
Li618 Li 0.25094 0.13786 0.9806 0.0
Li619 Li 0.2334 0.1104 -0.00182 0.0
C620 C 0.28815 0.15361 0.00219 0.0
N621 N 0.31549 0.18278 0.01086 0.0
C622 C 0.30745 0.14842 0.00757 0.0
C623 C 0.28276 0.17362 0.00116 0.0
C624 C 0.32106 0.16339 0.01192 0.0
C625 C 0.2968 0.18816 0.00562 0.0
C626 C 0.25144 0.09297 0.03503 0.0
C627 C 0.2471 0.05899 0.04551 0.0
N628 N 0.24953 0.06467 0.06468 0.0
C629 C 0.25383 0.09846 0.05485 0.0
C630 C 0.24799 0.07308 0.0303 0.0
C631 C 0.25284 0.08394 0.06962 0.0
C632 C 0.23611 0.15674 0.04909 0.0
N633 N 0.25339 0.15064 0.04074 0.0
C634 C 0.27165 0.16114 0.06907 0.0
C635 C 0.27099 0.15277 0.05021 0.0
C636 C 0.254 0.16711 0.07832 0.0
C637 C 0.23607 0.1651 0.068 0.0
H638 H 0.2223 0.15453 0.04131 0.0
H639 H 0.28441 0.14719 0.04351 0.0
C640 C 0.30283 0.09518 0.97737 0.0
N641 N 0.29284 0.09426 0.99484 0.0
C642 C 0.32042 0.08458 0.97486 0.0
C643 C 0.31692 0.07212 0.00832 0.0
C644 C 0.29943 0.08303 0.0102 0.0
C645 C 0.32774 0.07293 0.99051 0.0
H646 H 0.2972 0.10436 0.96547 0.0
H647 H 0.29133 0.08282 0.02402 0.0
C648 C 0.21464 0.15352 -0.00345 0.0
N649 N 0.18555 0.18182 0.99077 0.0
C650 C 0.19562 0.14781 0.99074 0.0
C651 C 0.21884 0.1736 -0.0005 0.0
C652 C 0.18111 0.16234 0.9879 0.0
C653 C 0.20395 0.18769 -0.00357 0.0
C654 C 0.2507 0.09412 0.96116 0.0
C655 C 0.24717 0.09841 0.94121 0.0
C656 C 0.25405 0.07451 0.96705 0.0
C657 C 0.24692 0.08294 0.92746 0.0
C658 C 0.25369 0.05944 0.95285 0.0
N659 N 0.25016 0.06393 0.93352 0.0
C660 C 0.26875 0.16156 0.95174 0.0
C661 C 0.23443 0.1564 0.94666 0.0
C662 C 0.27029 0.17182 0.93386 0.0
N663 N 0.25105 0.15408 0.95773 0.0
C664 C 0.23533 0.16638 0.92851 0.0
C665 C 0.25353 0.17405 0.92176 0.0
H666 H 0.28183 0.15907 0.96059 0.0
H667 H 0.22065 0.14986 0.95159 0.0
C668 C 0.20079 0.09011 0.01506 0.0
N669 N 0.21005 0.09506 -0.00215 0.0
C670 C 0.18221 0.08104 0.01463 0.0
C671 C 0.1833 0.08215 0.97882 0.0
C672 C 0.20185 0.09108 0.97994 0.0
C673 C 0.17308 0.07738 -0.00369 0.0
H674 H 0.20751 0.09385 0.0291 0.0
H675 H 0.20935 0.09558 0.96651 0.0
O676 O 0.27481 0.13913 -0.00253 0.0
O677 O 0.25234 0.10706 0.02041 0.0
O678 O 0.22878 0.13942 0.00015 0.0
O679 O 0.25104 0.10915 0.97475 0.0
H680 H 0.31187 0.13297 0.00832 0.0
H681 H 0.26796 0.17788 -0.00322 0.0
H682 H 0.33605 0.1596 0.0161 0.0
H683 H 0.29285 0.20371 0.00485 0.0
H684 H 0.24443 0.04354 0.04207 0.0
H685 H 0.25643 0.11377 0.05883 0.0
H686 H 0.24587 0.06858 0.0151 0.0
H687 H 0.2547 0.088 0.08501 0.0
H688 H 0.28574 0.16219 0.07663 0.0
H689 H 0.22217 0.16971 0.07457 0.0
H690 H 0.32824 0.08553 0.96087 0.0
H691 H 0.32222 0.06362 0.02088 0.0
H692 H 0.19203 0.13232 0.98862 0.0
H693 H 0.23338 0.17824 0.0043 0.0
H694 H 0.16631 0.15812 0.98349 0.0
H695 H 0.20698 0.2033 -0.00135 0.0
H696 H 0.24462 0.11354 0.93641 0.0
H697 H 0.25704 0.07098 0.98238 0.0
H698 H 0.24418 0.08603 0.91197 0.0
H699 H 0.25627 0.04419 0.95719 0.0
H700 H 0.28456 0.17768 0.92944 0.0
H701 H 0.22208 0.16741 0.91957 0.0
H702 H 0.17471 0.0777 0.02844 0.0
H703 H 0.17682 0.07937 0.96441 0.0
Li704 Li 0.73305 0.38857 0.0007 0.0
Li705 Li 0.75155 0.36152 0.01705 0.0
Li706 Li 0.76918 0.38932 -0.00045 0.0
Li707 Li 0.75129 0.36275 0.98103 0.0
C708 C 0.75137 0.40488 0.03714 0.0
N709 N 0.75022 0.43449 0.06538 0.0
C710 C 0.74725 0.40021 0.0569 0.0
C711 C 0.75502 0.42458 0.03173 0.0
C712 C 0.74671 0.4154 0.07096 0.0
C713 C 0.75433 0.43935 0.04624 0.0
C714 C 0.71445 0.34545 0.00248 0.0
C715 C 0.70404 0.31121 0.00251 0.0
N716 N 0.68574 0.31693 0.00874 0.0
C717 C 0.69554 0.35099 0.00887 0.0
C718 C 0.71874 0.32542 -0.0008 0.0
C719 C 0.68122 0.33635 0.01194 0.0
C720 C 0.69993 0.40545 0.98362 0.0
N721 N 0.71025 0.40435 0.00085 0.0
C722 C 0.68708 0.4255 0.01711 0.0
C723 C 0.70416 0.4139 0.0175 0.0
C724 C 0.6762 0.42683 -0.00047 0.0
C725 C 0.68261 0.41666 0.98264 0.0
H726 H 0.70511 0.39747 0.97071 0.0
H727 H 0.71235 0.41237 0.03112 0.0
C728 C 0.77005 0.33596 0.04402 0.0
N729 N 0.75243 0.34414 0.03874 0.0
C730 C 0.77096 0.32231 0.05952 0.0
C731 C 0.73571 0.32655 0.06442 0.0
C732 C 0.73546 0.33995 0.04868 0.0
C733 C 0.75362 0.31739 0.06989 0.0
H734 H 0.78341 0.34002 0.03622 0.0
H735 H 0.72177 0.34711 0.04446 0.0
C736 C 0.74941 0.40625 0.96319 0.0
N737 N 0.74772 0.43543 0.93442 0.0
C738 C 0.7522 0.40137 0.94325 0.0
C739 C 0.74567 0.42594 0.9685 0.0
C740 C 0.75132 0.41634 0.92893 0.0
C741 C 0.74488 0.44049 0.95373 0.0
C742 C 0.78833 0.34606 -0.00425 0.0
C743 C 0.80814 0.35133 0.99288 0.0
C744 C 0.78298 0.32603 -0.00399 0.0
C745 C 0.82232 0.33642 0.99041 0.0
C746 C 0.7976 0.31155 0.99349 0.0
N747 N 0.81681 0.317 0.99078 0.0
C748 C 0.80325 0.4051 0.01601 0.0
C749 C 0.79791 0.41418 0.98241 0.0
C750 C 0.8218 0.41413 0.0158 0.0
N751 N 0.79197 0.40502 -0.00064 0.0
C752 C 0.81623 0.42362 0.98163 0.0
C753 C 0.82845 0.4232 -0.00166 0.0
H754 H 0.79815 0.3974 0.02914 0.0
H755 H 0.78886 0.41345 0.96927 0.0
C756 C 0.73449 0.34134 0.94972 0.0
N757 N 0.75165 0.34821 0.9576 0.0
C758 C 0.7346 0.3323 0.93116 0.0
C759 C 0.77006 0.33738 0.92953 0.0
C760 C 0.76924 0.34632 0.94806 0.0
C761 C 0.75254 0.3305 0.92075 0.0
H762 H 0.72069 0.34337 0.95762 0.0
H763 H 0.78253 0.35243 0.95454 0.0
O764 O 0.75191 0.39013 0.02327 0.0
O765 O 0.72841 0.35969 -0.00119 0.0
O766 O 0.75043 0.39175 0.97736 0.0
O767 O 0.77441 0.3605 -0.0012 0.0
H768 H 0.74446 0.385 0.06131 0.0
H769 H 0.75837 0.4284 0.01652 0.0
H770 H 0.7435 0.41201 0.08631 0.0
H771 H 0.75708 0.45467 0.04228 0.0
H772 H 0.70715 0.29565 4e-05 0.0
H773 H 0.69193 0.36646 0.01132 0.0
H774 H 0.7332 0.32091 0.99399 0.0
H775 H 0.6665 0.34043 0.01682 0.0
H776 H 0.68219 0.433 0.03044 0.0
H777 H 0.6743 0.41737 0.96894 0.0
H778 H 0.78507 0.31567 0.06327 0.0
H779 H 0.7221 0.32369 0.07243 0.0
H780 H 0.75508 0.38621 0.93887 0.0
H781 H 0.74336 0.42994 0.98384 0.0
H782 H 0.75351 0.41279 0.91345 0.0
H783 H 0.74201 0.4558 0.95761 0.0
H784 H 0.81253 0.36678 0.99269 0.0
H785 H 0.76776 0.32171 -0.00162 0.0
H786 H 0.83772 0.34028 0.98825 0.0
H787 H 0.7937 0.29598 0.99377 0.0
H788 H 0.8311 0.4135 0.02884 0.0
H789 H 0.82121 0.43032 0.96789 0.0
H790 H 0.72082 0.327 0.92491 0.0
H791 H 0.78412 0.33653 0.92184 0.0
Li792 Li 0.88976 0.50287 0.26634 0.0
Li793 Li 0.86421 0.4844 0.247 0.0
Li794 Li 0.89072 0.50438 0.2303 0.0
Li795 Li 0.86282 0.52039 0.24807 0.0
C796 C 0.90719 0.4661 0.24869 0.0
N797 N 0.93514 0.43619 0.25064 0.0
C798 C 0.90138 0.44656 0.25261 0.0
C799 C 0.9272 0.47044 0.24578 0.0
C800 C 0.91574 0.43165 0.25355 0.0
C801 C 0.94111 0.45509 0.2468 0.0
C802 C 0.84665 0.50174 0.28459 0.0
C803 C 0.81248 0.50492 0.29448 0.0
N804 N 0.81784 0.50196 0.31369 0.0
C805 C 0.85183 0.49875 0.30442 0.0
C806 C 0.82683 0.50483 0.27954 0.0
C807 C 0.83704 0.49889 0.31891 0.0
C808 C 0.90493 0.5201 0.30039 0.0
N809 N 0.90394 0.50289 0.28997 0.0
C810 C 0.9179 0.48463 0.31673 0.0
C811 C 0.91048 0.4854 0.29754 0.0
C812 C 0.91829 0.50199 0.32821 0.0
C813 C 0.91223 0.52002 0.3197 0.0
H814 H 0.89917 0.53368 0.29402 0.0
H815 H 0.90908 0.4719 0.28907 0.0
C816 C 0.84679 0.45123 0.22922 0.0
N817 N 0.84956 0.46104 0.24655 0.0
C818 C 0.83816 0.43244 0.22931 0.0
C819 C 0.83492 0.43473 0.26498 0.0
C820 C 0.8436 0.4534 0.2642 0.0
C821 C 0.83262 0.42383 0.24744 0.0
H822 H 0.852 0.45768 0.21548 0.0
H823 H 0.84637 0.46141 0.27775 0.0
C824 C 0.90591 0.54068 0.24955 0.0
N825 N 0.93535 0.56909 0.24976 0.0
C826 C 0.90114 0.56069 0.24676 0.0
C827 C 0.92561 0.53509 0.25251 0.0
C828 C 0.91625 0.57484 0.2469 0.0
C829 C 0.94029 0.5497 0.25254 0.0
C830 C 0.84742 0.5029 0.21042 0.0
C831 C 0.852 0.50729 0.19069 0.0
C832 C 0.82792 0.49844 0.21572 0.0
C833 C 0.83691 0.50728 0.17656 0.0
C834 C 0.81324 0.49861 0.20115 0.0
N835 N 0.818 0.50299 0.18204 0.0
C836 C 0.91334 0.48842 0.1997 0.0
C837 C 0.91325 0.52363 0.2013 0.0
C838 C 0.92545 0.48887 0.18299 0.0
N839 N 0.90756 0.50565 0.20841 0.0
C840 C 0.92535 0.52478 0.18463 0.0
C841 C 0.93142 0.50724 0.17518 0.0
H842 H 0.90821 0.47437 0.20553 0.0
H843 H 0.90809 0.53707 0.20835 0.0
C844 C 0.845 0.55139 0.2675 0.0
N845 N 0.84583 0.54205 0.24971 0.0
C846 C 0.83284 0.56789 0.26998 0.0
C847 C 0.82255 0.56461 0.23577 0.0
C848 C 0.83503 0.54827 0.23393 0.0
C849 C 0.82152 0.57466 0.25394 0.0
H850 H 0.85396 0.54607 0.27968 0.0
H851 H 0.83633 0.54082 0.21985 0.0
O852 O 0.89323 0.48077 0.24735 0.0
O853 O 0.861 0.50155 0.27025 0.0
O854 O 0.89123 0.52674 0.2495 0.0
O855 O 0.86208 0.50292 0.22436 0.0
H856 H 0.88595 0.44293 0.25488 0.0
H857 H 0.93192 0.48545 0.24259 0.0
H858 H 0.91144 0.41647 0.25656 0.0
H859 H 0.95666 0.45821 0.24451 0.0
H860 H 0.79708 0.50735 0.29082 0.0
H861 H 0.86708 0.49623 0.30858 0.0
H862 H 0.82259 0.50725 0.26429 0.0
H863 H 0.84084 0.49654 0.33431 0.0
H864 H 0.92274 0.47052 0.32274 0.0
H865 H 0.91223 0.53366 0.32818 0.0
H866 H 0.83671 0.42437 0.21552 0.0
H867 H 0.83059 0.42862 0.2792 0.0
H868 H 0.88592 0.56522 0.24449 0.0
H869 H 0.92949 0.51968 0.2548 0.0
H870 H 0.91279 0.59038 0.24474 0.0
H871 H 0.95562 0.54562 0.25481 0.0
H872 H 0.86706 0.51071 0.18637 0.0
H873 H 0.82417 0.49487 0.23089 0.0
H874 H 0.84023 0.51069 0.16124 0.0
H875 H 0.79806 0.49523 0.20503 0.0
H876 H 0.9295 0.47505 0.17585 0.0
H877 H 0.92966 0.53922 0.179 0.0
H878 H 0.83243 0.57539 0.28416 0.0
H879 H 0.81434 0.56976 0.22298 0.0
Li880 Li 0.75116 0.63653 0.51723 0.0
Li881 Li 0.77006 0.60988 0.49921 0.0
Li882 Li 0.75159 0.63687 0.48065 0.0
Li883 Li 0.73349 0.6098 0.49844 0.0
C884 C 0.78837 0.65351 0.5013 0.0
N885 N 0.81698 0.6825 0.50524 0.0
C886 C 0.80749 0.6484 0.50733 0.0
C887 C 0.78378 0.67336 0.49726 0.0
C888 C 0.82175 0.66328 0.50925 0.0
C889 C 0.79846 0.6878 0.49934 0.0
C890 C 0.75179 0.59362 0.53628 0.0
C891 C 0.74691 0.5601 0.54786 0.0
N892 N 0.75222 0.56584 0.56642 0.0
C893 C 0.75729 0.59918 0.55545 0.0
C894 C 0.7466 0.57394 0.53241 0.0
C895 C 0.75737 0.58491 0.5705 0.0
C896 C 0.73387 0.64738 0.55303 0.0
N897 N 0.7497 0.65109 0.54112 0.0
C898 C 0.76479 0.67085 0.56615 0.0
C899 C 0.76483 0.66286 0.54714 0.0
C900 C 0.7492 0.6664 0.57922 0.0
C901 C 0.7333 0.65493 0.57229 0.0
H902 H 0.72216 0.63775 0.54787 0.0
H903 H 0.77734 0.66547 0.53759 0.0
C904 C 0.80408 0.59531 0.48145 0.0
N905 N 0.79318 0.59405 0.49833 0.0
C906 C 0.82162 0.58452 0.47953 0.0
C907 C 0.81619 0.57104 0.51231 0.0
C908 C 0.79881 0.58222 0.51365 0.0
C909 C 0.82797 0.57222 0.49513 0.0
H910 H 0.79921 0.60494 0.46956 0.0
H911 H 0.78995 0.58154 0.52695 0.0
C912 C 0.71435 0.65311 0.49825 0.0
N913 N 0.68541 0.68211 0.49794 0.0
C914 C 0.69459 0.648 0.49489 0.0
C915 C 0.71941 0.67294 0.5015 0.0
C916 C 0.68017 0.66288 0.49479 0.0
C917 C 0.70455 0.6874 0.50125 0.0
C918 C 0.75012 0.59283 0.46253 0.0
C919 C 0.74397 0.59709 0.44322 0.0
C920 C 0.75404 0.57321 0.46804 0.0
C921 C 0.74171 0.58156 0.42972 0.0
C922 C 0.75163 0.5581 0.45409 0.0
N923 N 0.74556 0.56255 0.43539 0.0
C924 C 0.77036 0.65867 0.45091 0.0
C925 C 0.7356 0.65605 0.44696 0.0
C926 C 0.77201 0.66916 0.43318 0.0
N927 N 0.75237 0.65248 0.45745 0.0
C928 C 0.73661 0.6661 0.42885 0.0
C929 C 0.75506 0.67273 0.42165 0.0
H930 H 0.78351 0.65515 0.45928 0.0
H931 H 0.72154 0.65055 0.45236 0.0
C932 C 0.70081 0.59312 0.51683 0.0
N933 N 0.71024 0.59439 0.49908 0.0
C934 C 0.68228 0.58411 0.51816 0.0
C935 C 0.68383 0.5774 0.48299 0.0
C936 C 0.70227 0.58666 0.48232 0.0
C937 C 0.67344 0.57643 0.501 0.0
H938 H 0.70741 0.59972 0.52984 0.0
H939 H 0.7098 0.58835 0.46831 0.0
O940 O 0.77437 0.63904 0.49906 0.0
O941 O 0.75116 0.60751 0.52151 0.0
O942 O 0.72855 0.63865 0.49877 0.0
O943 O 0.75245 0.60789 0.47586 0.0
H944 H 0.81128 0.63309 0.51047 0.0
H945 H 0.76906 0.67754 0.4925 0.0
H946 H 0.83662 0.65955 0.5139 0.0
H947 H 0.79514 0.70321 0.49624 0.0
H948 H 0.74289 0.54481 0.5451 0.0
H949 H 0.76147 0.61433 0.55868 0.0
H950 H 0.74229 0.56943 0.51765 0.0
H951 H 0.76154 0.58901 0.58541 0.0
H952 H 0.77711 0.68004 0.57074 0.0
H953 H 0.72102 0.65111 0.5819 0.0
H954 H 0.83034 0.58619 0.46615 0.0
H955 H 0.82033 0.56159 0.52462 0.0
H956 H 0.69043 0.63268 0.49244 0.0
H957 H 0.73462 0.67709 0.5043 0.0
H958 H 0.66481 0.65914 0.49223 0.0
H959 H 0.70823 0.70282 0.50375 0.0
H960 H 0.74093 0.61222 0.43873 0.0
H961 H 0.7589 0.56972 0.48292 0.0
H962 H 0.73691 0.58462 0.41473 0.0
H963 H 0.75459 0.54284 0.45813 0.0
H964 H 0.78649 0.67421 0.42851 0.0
H965 H 0.72317 0.66809 0.42037 0.0
H966 H 0.67475 0.58354 0.53233 0.0
H967 H 0.67736 0.57192 0.46938 0.0
Li968 Li 0.64276 0.51602 0.74761 0.0
Li969 Li 0.61704 0.49879 0.76868 0.0
Li970 Li 0.64356 0.47926 0.75098 0.0
Li971 Li 0.61549 0.49541 0.73216 0.0
C972 C 0.6604 0.49965 0.78623 0.0
N973 N 0.6891 0.49902 0.81535 0.0
C974 C 0.65532 0.50359 0.80592 0.0
C975 C 0.68005 0.49535 0.78133 0.0
C976 C 0.67005 0.50322 0.82043 0.0
C977 C 0.69435 0.49511 0.79628 0.0
C978 C 0.59941 0.534 0.75164 0.0
C979 C 0.56526 0.54441 0.75183 0.0
N980 N 0.57097 0.56289 0.75759 0.0
C981 C 0.60496 0.55308 0.75754 0.0
C982 C 0.57943 0.52959 0.74873 0.0
C983 C 0.59035 0.56748 0.76049 0.0
C984 C 0.66131 0.54727 0.7261 0.0
N985 N 0.65779 0.53985 0.74455 0.0
C986 C 0.67262 0.56839 0.75939 0.0
C987 C 0.66342 0.54988 0.76107 0.0
C988 C 0.67625 0.57648 0.74054 0.0
C989 C 0.67082 0.56558 0.72374 0.0
H990 H 0.65632 0.53918 0.71321 0.0
H991 H 0.66022 0.54376 0.77555 0.0
C992 C 0.59853 0.48063 0.8007 0.0
N993 N 0.6021 0.49876 0.79255 0.0
C994 C 0.58814 0.479 0.81851 0.0
C995 C 0.58571 0.5148 0.81954 0.0
C996 C 0.59598 0.51573 0.80155 0.0
C997 C 0.58168 0.49623 0.82822 0.0
H998 H 0.60397 0.4674 0.79347 0.0
H999 H 0.59928 0.52997 0.79493 0.0
C1000 C 0.65881 0.4958 0.71207 0.0
N1001 N 0.68782 0.49684 0.68321 0.0
C1002 C 0.65389 0.49252 0.69225 0.0
C1003 C 0.67845 0.49968 0.71723 0.0
C1004 C 0.66878 0.49308 0.67787 0.0
C1005 C 0.69291 0.50014 0.70241 0.0
C1006 C 0.60043 0.46006 0.75149 0.0
C1007 C 0.60567 0.44054 0.74679 0.0
C1008 C 0.58059 0.46486 0.75491 0.0
C1009 C 0.5909 0.42609 0.74556 0.0
C1010 C 0.56625 0.44998 0.75355 0.0
N1011 N 0.57166 0.43107 0.74894 0.0
C1012 C 0.6565 0.44525 0.77065 0.0
C1013 C 0.67084 0.44906 0.73881 0.0
C1014 C 0.66566 0.42678 0.77303 0.0
N1015 N 0.65904 0.45582 0.75366 0.0
C1016 C 0.68043 0.43075 0.74064 0.0
C1017 C 0.67761 0.41911 0.75778 0.0
H1018 H 0.64682 0.45093 0.78211 0.0
H1019 H 0.67246 0.45762 0.72536 0.0
C1020 C 0.59414 0.51106 0.70025 0.0
N1021 N 0.59821 0.49385 0.70997 0.0
C1022 C 0.58202 0.511 0.6835 0.0
C1023 C 0.57814 0.47554 0.68733 0.0
C1024 C 0.59055 0.47626 0.70383 0.0
C1025 C 0.57389 0.49303 0.67673 0.0
H1026 H 0.60062 0.52482 0.70534 0.0
H1027 H 0.59424 0.46271 0.71153 0.0
O1028 O 0.64609 0.49981 0.77193 0.0
O1029 O 0.61358 0.51994 0.7481 0.0
O1030 O 0.64434 0.49546 0.72625 0.0
O1031 O 0.61475 0.47432 0.75288 0.0
H1032 H 0.64017 0.50691 0.80996 0.0
H1033 H 0.68419 0.49207 0.76621 0.0
H1034 H 0.66634 0.50625 0.83572 0.0
H1035 H 0.70961 0.49177 0.79272 0.0
H1036 H 0.54972 0.54124 0.7496 0.0
H1037 H 0.62039 0.55676 0.75973 0.0
H1038 H 0.57493 0.51493 0.744 0.0
H1039 H 0.59443 0.58232 0.76502 0.0
H1040 H 0.67667 0.57642 0.77266 0.0
H1041 H 0.67329 0.57148 0.709 0.0
H1042 H 0.58557 0.46444 0.82484 0.0
H1043 H 0.58087 0.52844 0.82654 0.0
H1044 H 0.63871 0.48958 0.68803 0.0
H1045 H 0.68245 0.50245 0.73248 0.0
H1046 H 0.6652 0.49054 0.66246 0.0
H1047 H 0.70818 0.50315 0.70618 0.0
H1048 H 0.62097 0.4366 0.74406 0.0
H1049 H 0.57633 0.4799 0.75861 0.0
H1050 H 0.59472 0.41093 0.74192 0.0
H1051 H 0.55083 0.45346 0.75617 0.0
H1052 H 0.66281 0.41832 0.78639 0.0
H1053 H 0.68977 0.42568 0.72861 0.0
H1054 H 0.57954 0.5248 0.67564 0.0
H1055 H 0.57209 0.46136 0.68285 0.0
Li1056 Li 0.98347 0.75125 0.85901 0.0
Li1057 Li -0.00046 0.7692 0.88709 0.0
Li1058 Li 0.02038 0.75219 0.86041 0.0
Li1059 Li 0.00243 0.73252 0.88621 0.0
C1060 C 0.00204 0.7895 0.84444 0.0
N1061 N 0.00285 0.81959 0.81658 0.0
C1062 C -0.00118 0.80918 0.85019 0.0
C1063 C 0.00577 0.78513 0.82455 0.0
C1064 C -0.00073 0.82418 0.83588 0.0
C1065 C 0.00609 0.80056 0.81068 0.0
C1066 C 0.9641 0.75146 0.90255 0.0
C1067 C 0.95486 0.75115 0.93706 0.0
N1068 N 0.93603 0.75619 0.93197 0.0
C1069 C 0.94466 0.75658 0.89764 0.0
C1070 C 0.96927 0.74865 0.92239 0.0
C1071 C 0.93068 0.75892 0.91274 0.0
C1072 C 0.95052 0.73456 0.83893 0.0
N1073 N 0.96097 0.75153 0.84184 0.0
C1074 C 0.93859 0.76971 0.82116 0.0
C1075 C 0.9553 0.76892 0.83329 0.0
C1076 C 0.92723 0.75252 0.81809 0.0
C1077 C 0.93351 0.73472 0.82712 0.0
H1078 H 0.9552 0.72096 0.84611 0.0
H1079 H 0.96354 0.78233 0.83609 0.0
C1080 C 0.01237 0.80114 0.9117 0.0
N1081 N -0.00354 0.79244 0.903 0.0
C1082 C 0.01023 0.81924 0.92164 0.0
C1083 C 0.97536 0.81892 0.91371 0.0
C1084 C 0.97818 0.80087 0.90392 0.0
C1085 C 0.99156 0.82852 0.92251 0.0
H1086 H 0.02683 0.79435 0.91039 0.0
H1087 H 0.96586 0.7939 0.8965 0.0
C1088 C 0.00304 0.71527 0.84217 0.0
N1089 N 0.00299 0.68732 0.81226 0.0
C1090 C 0.00651 0.69528 0.84654 0.0
C1091 C -0.00053 0.72106 0.82261 0.0
C1092 C 0.00647 0.68137 0.83121 0.0
C1093 C -0.00049 0.70669 0.80769 0.0
C1094 C 0.03771 0.74975 0.90406 0.0
C1095 C 0.05718 0.74505 0.89877 0.0
C1096 C 0.03278 0.75211 0.92403 0.0
C1097 C 0.07141 0.7427 0.91358 0.0
C1098 C 0.04744 0.74962 0.93842 0.0
N1099 N 0.06628 0.74502 0.93294 0.0
C1100 C 0.05358 0.7688 0.83973 0.0
C1101 C 0.0526 0.73371 0.84241 0.0
C1102 C 0.07212 0.76785 0.83046 0.0
N1103 N 0.04433 0.75185 0.84556 0.0
C1104 C 0.07111 0.73208 0.83336 0.0
C1105 C 0.08124 0.7493 0.82747 0.0
H1106 H 0.04683 0.78305 0.84273 0.0
H1107 H 0.04506 0.7205 0.8475 0.0
C1108 C 0.98803 0.69954 0.90832 0.0
N1109 N 0.00452 0.7083 0.9008 0.0
C1110 C 0.98929 0.68095 0.9175 0.0
C1111 C 0.0245 0.68077 0.91113 0.0
C1112 C 0.02256 0.6994 0.90213 0.0
C1113 C 0.00768 0.67114 0.91878 0.0
H1114 H 0.97382 0.70681 0.90686 0.0
H1115 H 0.03537 0.7065 0.89564 0.0
O1116 O 0.00135 0.77464 0.85825 0.0
O1117 O 0.97785 0.7488 0.88791 0.0
O1118 O 0.00274 0.72899 0.85708 0.0
O1119 O 0.02378 0.75274 0.88967 0.0
H1120 H -0.00406 0.81283 0.86552 0.0
H1121 H 0.00839 0.77 0.81988 0.0
H1122 H -0.00325 0.83946 0.84011 0.0
H1123 H 0.00892 0.7974 0.79522 0.0
H1124 H 0.95864 0.74903 0.9525 0.0
H1125 H 0.94043 0.75869 0.88231 0.0
H1126 H 0.9842 0.74445 0.9264 0.0
H1127 H 0.91557 0.76288 0.90916 0.0
H1128 H 0.93455 0.78374 0.81442 0.0
H1129 H 0.92507 0.72116 0.82561 0.0
H1130 H 0.0232 0.82624 0.92791 0.0
H1131 H 0.9607 0.82542 0.91414 0.0
H1132 H 0.00918 0.69053 0.86163 0.0
H1133 H -0.00347 0.73643 0.819 0.0
H1134 H 0.00916 0.66585 0.83439 0.0
H1135 H -0.00327 0.71093 0.79248 0.0
H1136 H 0.06131 0.74336 0.88338 0.0
H1137 H 0.01786 0.75604 0.92835 0.0
H1138 H 0.08654 0.73911 0.90969 0.0
H1139 H 0.04385 0.75144 0.95393 0.0
H1140 H 0.07953 0.7815 0.82633 0.0
H1141 H 0.07754 0.71751 0.83118 0.0
H1142 H 0.97596 0.6743 0.92345 0.0
H1143 H 0.03892 0.67375 0.91153 0.0
Li1144 Li -0.00182 0.26762 0.61111 0.0
Li1145 Li 0.0166 0.25191 0.63845 0.0
Li1146 Li 0.00032 0.23135 0.61213 0.0
Li1147 Li 0.98093 0.24858 0.63807 0.0
C1148 C 0.03607 0.25195 0.59535 0.0
N1149 N 0.06473 0.25374 0.56618 0.0
C1150 C 0.05559 0.25671 0.60024 0.0
C1151 C 0.03111 0.24803 0.57567 0.0
C1152 C 0.06988 0.25754 0.58527 0.0
C1153 C 0.04582 0.24905 0.56111 0.0
C1154 C -0.0005 0.28693 0.65464 0.0
C1155 C -1e-05 0.29554 0.68931 0.0
N1156 N 0.00455 0.31459 0.68439 0.0
C1157 C 0.00416 0.30659 0.64993 0.0
C1158 C -0.00265 0.28134 0.67448 0.0
C1159 C 0.00667 0.32036 0.66518 0.0
C1160 C 0.98081 0.29611 0.58606 0.0
N1161 N -0.00209 0.28997 0.59465 0.0
C1162 C 0.01538 0.31779 0.58154 0.0
C1163 C 0.01505 0.30027 0.59254 0.0
C1164 C -0.0021 0.32463 0.57252 0.0
C1165 C 0.98053 0.31331 0.5746 0.0
H1166 H 0.96729 0.28788 0.58843 0.0
H1167 H 0.02832 0.29518 0.59994 0.0
C1168 C 0.04704 0.23585 0.66023 0.0
N1169 N 0.03917 0.25336 0.65407 0.0
C1170 C 0.06499 0.23558 0.67022 0.0
C1171 C 0.06653 0.27139 0.66703 0.0
C1172 C 0.04833 0.271 0.65736 0.0
C1173 C 0.075 0.25347 0.67331 0.0
H1174 H 0.03975 0.22204 0.6567 0.0
H1175 H 0.04194 0.2846 0.65174 0.0
C1176 C 0.96205 0.24592 0.59486 0.0
N1177 N 0.93302 0.24238 0.56628 0.0
C1178 C 0.9426 0.24141 0.60033 0.0
C1179 C 0.96675 0.24862 0.57485 0.0
C1180 C 0.92813 0.23967 0.58566 0.0
C1181 C 0.95185 0.24678 0.56063 0.0
C1182 C -0.00127 0.21331 0.65535 0.0
C1183 C 0.99424 0.19378 0.64999 0.0
C1184 C 0.00144 0.21804 0.67532 0.0
C1185 C 0.99256 0.17929 0.66473 0.0
C1186 C -0.00037 0.20312 0.68961 0.0
N1187 N -0.00472 0.18421 0.68407 0.0
C1188 C 0.01979 0.19707 0.60194 0.0
C1189 C 0.98835 0.2003 0.58664 0.0
C1190 C 0.02199 0.17796 0.59438 0.0
N1191 N 0.00306 0.20761 0.59817 0.0
C1192 C 0.99007 0.18141 0.57851 0.0
C1193 C 0.00687 0.16979 0.58269 0.0
H1194 H 0.03104 0.20327 0.61149 0.0
H1195 H 0.97506 0.20882 0.58418 0.0
C1196 C 0.95078 0.26372 0.66171 0.0
N1197 N 0.95882 0.24673 0.6545 0.0
C1198 C 0.93479 0.26282 0.67469 0.0
C1199 C 0.93566 0.22695 0.6724 0.0
C1200 C 0.95152 0.22857 0.65932 0.0
C1201 C 0.92709 0.24424 0.68021 0.0
H1202 H 0.95674 0.27794 0.65728 0.0
H1203 H 0.95794 0.21536 0.65294 0.0
O1204 O 0.02204 0.25075 0.60992 0.0
O1205 O -0.00353 0.27343 0.63983 0.0
O1206 O 0.97626 0.24799 0.60913 0.0
O1207 O 0.00105 0.22752 0.64103 0.0
H1208 H 0.05969 0.25965 0.61545 0.0
H1209 H 0.01612 0.24411 0.5717 0.0
H1210 H 0.08505 0.26118 0.58884 0.0
H1211 H 0.04221 0.24606 0.5458 0.0
H1212 H -0.00167 0.29143 0.70472 0.0
H1213 H 0.00572 0.3112 0.63463 0.0
H1214 H 0.9935 0.26625 0.67837 0.0
H1215 H 0.01025 0.33564 0.66174 0.0
H1216 H 0.029 0.32622 0.58076 0.0
H1217 H 0.96677 0.31785 0.56775 0.0
H1218 H 0.07148 0.22152 0.67461 0.0
H1219 H 0.07416 0.28537 0.66909 0.0
H1220 H 0.93871 0.23934 0.61576 0.0
H1221 H 0.98169 0.25226 0.57038 0.0
H1222 H 0.91301 0.23621 0.58968 0.0
H1223 H 0.95526 0.24889 0.5451 0.0
H1224 H 0.99204 0.18984 0.63463 0.0
H1225 H 0.00514 0.23301 0.67971 0.0
H1226 H 0.98912 0.16412 0.66078 0.0
H1227 H 0.00176 0.20655 0.70511 0.0
H1228 H 0.03509 0.1695 0.59816 0.0
H1229 H 0.97824 0.1759 0.56921 0.0
H1230 H 0.92822 0.27652 0.67994 0.0
H1231 H 0.9301 0.21237 0.67624 0.0
Li1232 Li 0.48402 0.2521 0.35961 0.0
Li1233 Li 0.50093 0.27009 0.38702 0.0
Li1234 Li 0.52078 0.25136 0.36058 0.0
Li1235 Li 0.5022 0.23332 0.38707 0.0
C1236 C 0.50246 0.28831 0.34311 0.0
N1237 N 0.5014 0.31606 0.31294 0.0
C1238 C 0.4986 0.30825 0.34736 0.0
C1239 C 0.50595 0.28249 0.32356 0.0
C1240 C 0.49809 0.32205 0.3319 0.0
C1241 C 0.50529 0.29674 0.3085 0.0
C1242 C 0.46492 0.25449 0.40314 0.0
C1243 C 0.45562 0.25477 0.43764 0.0
N1244 N 0.43711 0.26084 0.4325 0.0
C1245 C 0.44581 0.26072 0.39818 0.0
C1246 C 0.46989 0.25144 0.42299 0.0
C1247 C 0.43196 0.26386 0.41325 0.0
C1248 C 0.45293 0.23611 0.33627 0.0
N1249 N 0.4616 0.25316 0.34256 0.0
C1250 C 0.43796 0.27268 0.32471 0.0
C1251 C 0.45439 0.27124 0.33717 0.0
C1252 C 0.42869 0.25533 0.31788 0.0
C1253 C 0.43642 0.23685 0.32382 0.0
H1254 H 0.45871 0.22192 0.34109 0.0
H1255 H 0.46128 0.28459 0.3427 0.0
C1256 C 0.51507 0.30101 0.41221 0.0
N1257 N 0.49907 0.29382 0.40239 0.0
C1258 C 0.51391 0.31916 0.4222 0.0
C1259 C 0.47985 0.32219 0.41175 0.0
C1260 C 0.48164 0.30393 0.40209 0.0
C1261 C 0.49617 0.3302 0.42187 0.0
H1262 H 0.52886 0.29284 0.412 0.0
H1263 H 0.46927 0.29807 0.39381 0.0
C1264 C 0.50284 0.21447 0.34368 0.0
N1265 N 0.50444 0.1854 0.31487 0.0
C1266 C 0.50711 0.19482 0.34886 0.0
C1267 C 0.49932 0.21933 0.32385 0.0
C1268 C 0.50789 0.18035 0.33407 0.0
C1269 C 0.5002 0.20442 0.3095 0.0
C1270 C 0.53846 0.24915 0.404 0.0
C1271 C 0.5577 0.24387 0.39844 0.0
C1272 C 0.53381 0.25146 0.42404 0.0
C1273 C 0.57203 0.241 0.41308 0.0
C1274 C 0.54855 0.24842 0.43824 0.0
N1275 N 0.56719 0.24332 0.43251 0.0
C1276 C 0.55646 0.26726 0.34656 0.0
C1277 C 0.5505 0.23434 0.33573 0.0
C1278 C 0.57526 0.26701 0.33791 0.0
N1279 N 0.54466 0.25097 0.34558 0.0
C1280 C 0.56902 0.23358 0.32653 0.0
C1281 C 0.58175 0.2499 0.32797 0.0
H1282 H 0.5515 0.28021 0.35465 0.0
H1283 H 0.54114 0.22139 0.3355 0.0
C1284 C 0.48602 0.20176 0.40989 0.0
N1285 N 0.50307 0.20977 0.40278 0.0
C1286 C 0.48641 0.18374 0.42021 0.0
C1287 C 0.52191 0.18265 0.41586 0.0
C1288 C 0.52082 0.20066 0.4056 0.0
C1289 C 0.50453 0.1738 0.42313 0.0
H1290 H 0.47206 0.20919 0.40723 0.0
H1291 H 0.53411 0.20708 0.39939 0.0
O1292 O 0.50291 0.27465 0.35811 0.0
O1293 O 0.47843 0.25077 0.38851 0.0
O1294 O 0.50208 0.22879 0.35801 0.0
O1295 O 0.52445 0.25262 0.38979 0.0
H1296 H 0.49599 0.31302 0.36244 0.0
H1297 H 0.50919 0.26717 0.32007 0.0
H1298 H 0.49508 0.33753 0.33497 0.0
H1299 H 0.5079 0.29245 0.29328 0.0
H1300 H 0.45924 0.25243 0.45307 0.0
H1301 H 0.44171 0.263 0.38284 0.0
H1302 H 0.48454 0.24638 0.42703 0.0
H1303 H 0.41709 0.26864 0.40964 0.0
H1304 H 0.43255 0.28724 0.32053 0.0
H1305 H 0.42948 0.22309 0.31934 0.0
H1306 H 0.52683 0.32451 0.43001 0.0
H1307 H 0.46599 0.33021 0.41076 0.0
H1308 H 0.50984 0.19079 0.36414 0.0
H1309 H 0.49585 0.23442 0.3196 0.0
H1310 H 0.51122 0.16509 0.33787 0.0
H1311 H 0.49749 0.20796 0.2941 0.0
H1312 H 0.56157 0.24206 0.38299 0.0
H1313 H 0.51905 0.25574 0.42857 0.0
H1314 H 0.587 0.23698 0.409 0.0
H1315 H 0.54519 0.2502 0.45381 0.0
H1316 H 0.58473 0.27991 0.33916 0.0
H1317 H 0.57365 0.22013 0.31906 0.0
H1318 H 0.47265 0.17761 0.42573 0.0
H1319 H 0.53615 0.17541 0.41748 0.0
Li1320 Li 0.49918 0.76803 0.10845 0.0
Li1321 Li 0.51752 0.75215 0.13622 0.0
Li1322 Li 0.50101 0.7317 0.1103 0.0
Li1323 Li 0.48161 0.74978 0.13588 0.0
C1324 C 0.53835 0.74853 0.09479 0.0
N1325 N 0.56982 0.74396 0.06898 0.0
C1326 C 0.55746 0.7539 0.10063 0.0
C1327 C 0.53525 0.74079 0.07584 0.0
C1328 C 0.57317 0.75148 0.08736 0.0
C1329 C 0.55136 0.73861 0.06301 0.0
C1330 C 0.4994 0.78732 0.1527 0.0
C1331 C 0.49698 0.79471 0.18756 0.0
N1332 N 0.50195 0.8139 0.18371 0.0
C1333 C 0.50446 0.80712 0.14908 0.0
C1334 C 0.49559 0.78103 0.17207 0.0
C1335 C 0.50569 0.82033 0.16496 0.0
C1336 C 0.48501 0.80431 0.0951 0.0
N1337 N 0.49821 0.78967 0.09104 0.0
C1338 C 0.50988 0.80695 0.06245 0.0
C1339 C 0.51047 0.79059 0.07509 0.0
C1340 C 0.4966 0.82249 0.06639 0.0
C1341 C 0.48398 0.821 0.08293 0.0
H1342 H 0.47551 0.8031 0.10796 0.0
H1343 H 0.52075 0.77871 0.07218 0.0
C1344 C 0.54985 0.73476 0.15256 0.0
N1345 N 0.54032 0.75249 0.15166 0.0
C1346 C 0.568 0.73325 0.16209 0.0
C1347 C 0.56604 0.76831 0.1698 0.0
C1348 C 0.54785 0.76913 0.16011 0.0
C1349 C 0.57643 0.75024 0.17056 0.0
H1350 H 0.54356 0.72192 0.14534 0.0
H1351 H 0.54009 0.78309 0.15885 0.0
C1352 C 0.46252 0.74785 0.09323 0.0
N1353 N 0.43223 0.7473 0.0658 0.0
C1354 C 0.44349 0.74197 0.09891 0.0
C1355 C 0.46617 0.75344 0.07362 0.0
C1356 C 0.42838 0.74177 0.08481 0.0
C1357 C 0.45064 0.75308 0.05997 0.0
C1358 C 0.5004 0.71457 0.1542 0.0
C1359 C 0.49461 0.69507 0.15013 0.0
C1360 C 0.5056 0.71983 0.17351 0.0
C1361 C 0.4942 0.68112 0.16546 0.0
C1362 C 0.505 0.70544 0.18845 0.0
N1363 N 0.49938 0.68655 0.18415 0.0
C1364 C 0.51694 0.69519 0.10385 0.0
C1365 C 0.4914 0.70303 0.08104 0.0
C1366 C 0.51856 0.67612 0.09621 0.0
N1367 N 0.50325 0.70794 0.09649 0.0
C1368 C 0.49283 0.68421 0.07259 0.0
C1369 C 0.50632 0.67033 0.08043 0.0
H1370 H 0.52609 0.69967 0.1162 0.0
H1371 H 0.48071 0.71357 0.07546 0.0
C1372 C 0.44865 0.76568 0.15515 0.0
N1373 N 0.45877 0.74862 0.15154 0.0
C1374 C 0.43143 0.7652 0.16653 0.0
C1375 C 0.43562 0.72969 0.17039 0.0
C1376 C 0.45252 0.7308 0.15864 0.0
C1377 C 0.42488 0.74702 0.1743 0.0
H1378 H 0.45392 0.77957 0.14905 0.0
H1379 H 0.46042 0.71741 0.15496 0.0
O1380 O 0.5228 0.75095 0.10757 0.0
O1381 O 0.49782 0.77434 0.13723 0.0
O1382 O 0.47733 0.74853 0.10699 0.0
O1383 O 0.50126 0.72829 0.13923 0.0
H1384 H 0.56011 0.76 0.1152 0.0
H1385 H 0.52053 0.73673 0.07103 0.0
H1386 H 0.58802 0.75562 0.09166 0.0
H1387 H 0.54917 0.73272 0.04827 0.0
H1388 H 0.49405 0.79007 0.20264 0.0
H1389 H 0.50741 0.81221 0.13414 0.0
H1390 H 0.49149 0.76581 0.1751 0.0
H1391 H 0.50959 0.83569 0.16238 0.0
H1392 H 0.51973 0.80745 0.04979 0.0
H1393 H 0.47379 0.83282 0.08674 0.0
H1394 H 0.5757 0.71913 0.16215 0.0
H1395 H 0.57207 0.78167 0.17633 0.0
H1396 H 0.44043 0.73764 0.11406 0.0
H1397 H 0.48083 0.75796 0.06898 0.0
H1398 H 0.41359 0.73724 0.08899 0.0
H1399 H 0.45322 0.7574 0.04473 0.0
H1400 H 0.49025 0.69078 0.13533 0.0
H1401 H 0.5102 0.73482 0.17692 0.0
H1402 H 0.48974 0.66599 0.16251 0.0
H1403 H 0.50905 0.70929 0.20346 0.0
H1404 H 0.52894 0.66593 0.103 0.0
H1405 H 0.48343 0.6806 0.06013 0.0
H1406 H 0.42333 0.77882 0.16927 0.0
H1407 H 0.43069 0.71541 0.17592 0.0
Li1408 Li 0.88975 -0.00283 0.76705 0.0
Li1409 Li 0.86225 0.97882 0.75035 0.0
Li1410 Li 0.88929 -0.00372 0.73028 0.0
Li1411 Li 0.86284 0.01552 0.74772 0.0
C1412 C 0.90534 0.95934 0.74877 0.0
N1413 N 0.93395 0.93003 0.74789 0.0
C1414 C 0.90004 0.93946 0.75148 0.0
C1415 C 0.92515 0.96433 0.74554 0.0
C1416 C 0.91473 0.92486 0.751 0.0
C1417 C 0.93941 0.94929 0.74517 0.0
C1418 C 0.84606 -0.00274 0.78594 0.0
C1419 C 0.81157 -0.00134 0.79513 0.0
N1420 N 0.81657 0.99458 0.81422 0.0
C1421 C 0.85086 0.99311 0.80565 0.0
C1422 C 0.82627 7e-05 0.7806 0.0
C1423 C 0.83574 0.99178 0.81973 0.0
C1424 C 0.91196 0.01398 0.79849 0.0
N1425 N 0.90654 -0.00328 0.78965 0.0
C1426 C 0.92492 0.97784 0.8134 0.0
C1427 C 0.91266 0.97885 0.79678 0.0
C1428 C 0.93079 0.99541 0.82291 0.0
C1429 C 0.92415 0.01367 0.8152 0.0
H1430 H 0.90663 0.02798 0.79267 0.0
H1431 H 0.90789 0.96532 0.78967 0.0
C1432 C 0.8395 0.94622 0.73628 0.0
N1433 N 0.84631 0.95556 0.75274 0.0
C1434 C 0.82932 0.92822 0.73797 0.0
C1435 C 0.8331 0.92995 0.77351 0.0
C1436 C 0.84326 0.94786 0.77113 0.0
C1437 C 0.8262 0.9197 0.75678 0.0
H1438 H 0.84245 0.95247 0.7218 0.0
H1439 H 0.84918 0.95535 0.78395 0.0
C1440 C 0.90623 0.03389 0.74773 0.0
N1441 N 0.93509 0.06293 0.74729 0.0
C1442 C 0.9011 0.05371 0.74425 0.0
C1443 C 0.92603 0.02884 0.75103 0.0
C1444 C 0.91591 0.06817 0.74405 0.0
C1445 C 0.9404 0.04375 0.75077 0.0
C1446 C 0.84612 -0.00252 0.712 0.0
C1447 C 0.85155 0.00161 0.69242 0.0
C1448 C 0.8262 0.99475 0.7168 0.0
C1449 C 0.83686 0.003 0.67794 0.0
C1450 C 0.81195 -0.00372 0.7019 0.0
N1451 N 0.81753 0.00033 0.68294 0.0
C1452 C 0.90782 0.97963 0.69613 0.0
C1453 C 0.90935 0.01465 0.69911 0.0
C1454 C 0.91653 0.98059 0.67732 0.0
N1455 N 0.90427 -0.00343 0.70647 0.0
C1456 C 0.91815 0.01629 0.68049 0.0
C1457 C 0.92152 -0.00083 0.66913 0.0
H1458 H 0.90325 0.96547 0.70218 0.0
H1459 H 0.90593 0.02792 0.70739 0.0
C1460 C 0.83897 0.0475 0.76145 0.0
N1461 N 0.84747 0.03909 0.74523 0.0
C1462 C 0.82847 0.0653 0.75968 0.0
C1463 C 0.83605 0.06571 0.72466 0.0
C1464 C 0.84615 0.04774 0.72704 0.0
C1465 C 0.82707 0.07464 0.74112 0.0
H1466 H 0.84064 0.04058 0.77582 0.0
H1467 H 0.85334 0.04089 0.71446 0.0
O1468 O 0.89112 0.97377 0.74925 0.0
O1469 O 0.86077 -0.00101 0.77211 0.0
O1470 O 0.89186 0.01961 0.74798 0.0
O1471 O 0.86033 0.99545 0.72624 0.0
H1472 H 0.88474 0.93537 0.75396 0.0
H1473 H 0.92944 0.97963 0.74328 0.0
H1474 H 0.91086 0.90941 0.7531 0.0
H1475 H 0.95481 0.95292 0.7427 0.0
H1476 H 0.79619 0.00087 0.79123 0.0
H1477 H 0.86614 0.99097 0.81002 0.0
H1478 H 0.82233 0.0035 0.76545 0.0
H1479 H 0.83924 0.98858 0.83505 0.0
H1480 H 0.9297 0.96345 0.81876 0.0
H1481 H 0.92792 0.02757 0.82228 0.0
H1482 H 0.82457 0.92072 0.72462 0.0
H1483 H 0.83089 0.92409 0.7883 0.0
H1484 H 0.88585 0.05789 0.74171 0.0
H1485 H 0.93022 0.01361 0.75389 0.0
H1486 H 0.91216 0.08355 0.74133 0.0
H1487 H 0.95577 0.04007 0.75336 0.0
H1488 H 0.86694 0.00362 0.68842 0.0
H1489 H 0.82182 0.99129 0.73183 0.0
H1490 H 0.84083 0.00614 0.66272 0.0
H1491 H 0.79646 0.99417 0.70539 0.0
H1492 H 0.91865 0.96701 0.669 0.0
H1493 H 0.92198 0.03088 0.67491 0.0
H1494 H 0.82197 0.07199 0.77275 0.0
H1495 H 0.8353 0.07259 0.71016 0.0
Li1496 Li 0.75294 0.13775 0.51443 0.0
Li1497 Li 0.77081 0.11135 0.4962 0.0
Li1498 Li 0.75304 0.13902 0.4784 0.0
Li1499 Li 0.73468 0.1117 0.49483 0.0
C1500 C 0.79 0.15434 0.50059 0.0
N1501 N 0.81852 0.18272 0.50801 0.0
C1502 C 0.80934 0.14859 0.50523 0.0
C1503 C 0.78514 0.1745 0.49975 0.0
C1504 C 0.82355 0.16317 0.50894 0.0
C1505 C 0.79978 0.18862 0.50355 0.0
C1506 C 0.75204 0.09459 0.53277 0.0
C1507 C 0.74857 0.06053 0.54326 0.0
N1508 N 0.75257 0.06604 0.56221 0.0
C1509 C 0.75606 0.09993 0.55236 0.0
C1510 C 0.74821 0.07474 0.52816 0.0
C1511 C 0.75628 0.08528 0.56703 0.0
C1512 C 0.73421 0.1561 0.54579 0.0
N1513 N 0.75234 0.1524 0.5379 0.0
C1514 C 0.76839 0.16619 0.56612 0.0
C1515 C 0.7693 0.15731 0.54751 0.0
C1516 C 0.74987 0.16957 0.5749 0.0
C1517 C 0.73261 0.16474 0.56444 0.0
H1518 H 0.72103 0.1517 0.53786 0.0
H1519 H 0.7835 0.15362 0.54113 0.0
C1520 C 0.8036 0.09315 0.47926 0.0
N1521 N 0.79319 0.09496 0.49639 0.0
C1522 C 0.82069 0.08156 0.47875 0.0
C1523 C 0.81572 0.0737 0.51343 0.0
C1524 C 0.79894 0.08571 0.51336 0.0
C1525 C 0.82676 0.07171 0.49601 0.0
H1526 H 0.79869 0.1009 0.46609 0.0
H1527 H 0.79074 0.08786 0.5269 0.0
C1528 C 0.71601 0.15487 0.49351 0.0
N1529 N 0.68723 0.18356 0.48826 0.0
C1530 C 0.69688 0.14944 0.48784 0.0
C1531 C 0.72051 0.17487 0.49658 0.0
C1532 C 0.68252 0.16417 0.48527 0.0
C1533 C 0.70576 0.18917 0.49379 0.0
C1534 C 0.75228 0.09519 0.4589 0.0
C1535 C 0.74815 0.09948 0.43906 0.0
C1536 C 0.75535 0.07553 0.46479 0.0
C1537 C 0.74707 0.08395 0.42541 0.0
C1538 C 0.75413 0.06041 0.45068 0.0
N1539 N 0.75006 0.06491 0.43145 0.0
C1540 C 0.77061 0.16498 0.45113 0.0
C1541 C 0.73627 0.15952 0.44639 0.0
C1542 C 0.77122 0.17776 0.43489 0.0
N1543 N 0.7533 0.15628 0.45655 0.0
C1544 C 0.73623 0.17203 0.42992 0.0
C1545 C 0.75391 0.18128 0.42391 0.0
H1546 H 0.78401 0.16181 0.45926 0.0
H1547 H 0.72281 0.15207 0.45087 0.0
C1548 C 0.70254 0.09309 0.51207 0.0
N1549 N 0.71163 0.09624 0.49437 0.0
C1550 C 0.68418 0.08376 0.51276 0.0
C1551 C 0.68508 0.08074 0.47703 0.0
C1552 C 0.70348 0.09013 0.47701 0.0
C1553 C 0.67523 0.07783 0.49506 0.0
H1554 H 0.70923 0.09852 0.52555 0.0
H1555 H 0.71082 0.09329 0.46313 0.0
O1556 O 0.77608 0.14022 0.49644 0.0
O1557 O 0.7518 0.10878 0.51825 0.0
O1558 O 0.73004 0.14056 0.49663 0.0
O1559 O 0.75363 0.11029 0.47233 0.0
H1560 H 0.81334 0.13304 0.50586 0.0
H1561 H 0.77029 0.17918 0.49602 0.0
H1562 H 0.83859 0.15895 0.51249 0.0
H1563 H 0.79626 0.20428 0.50288 0.0
H1564 H 0.74565 0.0451 0.53992 0.0
H1565 H 0.75904 0.11522 0.5562 0.0
H1566 H 0.74493 0.07038 0.5131 0.0
H1567 H 0.7594 0.08921 0.58224 0.0
H1568 H 0.78197 0.16956 0.57393 0.0
H1569 H 0.71809 0.16727 0.5708 0.0
H1570 H 0.82912 0.08033 0.46514 0.0
H1571 H 0.82032 0.06645 0.52701 0.0
H1572 H 0.69311 0.134 0.48557 0.0
H1573 H 0.73517 0.17928 0.5012 0.0
H1574 H 0.66764 0.16018 0.48094 0.0
H1575 H 0.70902 0.20471 0.4961 0.0
H1576 H 0.74583 0.11466 0.43428 0.0
H1577 H 0.75874 0.072 0.48005 0.0
H1578 H 0.74389 0.08705 0.41001 0.0
H1579 H 0.75648 0.04512 0.45501 0.0
H1580 H 0.78515 0.18462 0.43086 0.0
H1581 H 0.72263 0.17391 0.42164 0.0
H1582 H 0.67668 0.0819 0.52685 0.0
H1583 H 0.67826 0.07653 0.46314 0.0
Li1584 Li 0.61153 0.00108 0.26741 0.0
Li1585 Li 0.63895 0.01885 0.25051 0.0
Li1586 Li 0.61236 0.00103 0.23139 0.0
Li1587 Li 0.63847 0.98284 0.24956 0.0
C1588 C 0.59577 0.03818 0.25076 0.0
N1589 N 0.56676 0.06702 0.25309 0.0
C1590 C 0.60089 0.05787 0.25476 0.0
C1591 C 0.57592 0.03315 0.24791 0.0
C1592 C 0.586 0.07224 0.25589 0.0
C1593 C 0.56146 0.04795 0.24917 0.0
C1594 C 0.65473 0.00101 0.28703 0.0
C1595 C 0.68906 -0.00174 0.29636 0.0
N1596 N 0.68405 0.00231 0.31547 0.0
C1597 C 0.6499 0.0051 0.30675 0.0
C1598 C 0.67444 -0.00247 0.28175 0.0
C1599 C 0.66495 0.00572 0.32091 0.0
C1600 C 0.58906 0.98364 0.29726 0.0
N1601 N 0.59506 0.00127 0.28956 0.0
C1602 C 0.57861 0.01919 0.31514 0.0
C1603 C 0.59015 0.01887 0.29804 0.0
C1604 C 0.57232 0.00121 0.32356 0.0
C1605 C 0.5775 0.98326 0.31434 0.0
H1606 H 0.59364 0.9699 0.29038 0.0
H1607 H 0.59555 0.03261 0.29179 0.0
C1608 C 0.65482 0.05156 0.23306 0.0
N1609 N 0.65451 0.04161 0.25055 0.0
C1610 C 0.66369 0.07012 0.23187 0.0
C1611 C 0.67262 0.06736 0.26652 0.0
C1612 C 0.66331 0.04889 0.26711 0.0
C1613 C 0.67233 0.07829 0.24885 0.0
H1614 H 0.64746 0.04536 0.22027 0.0
H1615 H 0.66244 0.04083 0.28092 0.0
C1616 C 0.59538 0.96386 0.24726 0.0
N1617 N 0.56675 0.93479 0.24406 0.0
C1618 C 0.6008 0.94426 0.24313 0.0
C1619 C 0.57541 0.96869 0.24975 0.0
C1620 C 0.5861 0.92977 0.24157 0.0
C1621 C 0.56115 0.95377 0.24807 0.0
C1622 C 0.6555 -0.00043 0.21286 0.0
C1623 C 0.65021 0.99363 0.19376 0.0
C1624 C 0.67529 0.0037 0.21719 0.0
C1625 C 0.66489 0.99179 0.17927 0.0
C1626 C 0.68954 0.00167 0.20228 0.0
N1627 N 0.68409 -0.00419 0.1838 0.0
C1628 C 0.59273 0.01996 0.20068 0.0
C1629 C 0.5922 0.98473 0.199 0.0
C1630 C 0.58302 0.02139 0.18255 0.0
N1631 N 0.59715 0.00184 0.20838 0.0
C1632 C 0.5827 0.98547 0.1807 0.0
C1633 C 0.57829 0.00399 0.17233 0.0
H1634 H 0.59732 0.03328 0.20831 0.0
H1635 H 0.59631 0.97057 0.20534 0.0
C1636 C 0.65508 0.95087 0.26827 0.0
N1637 N 0.65427 0.9602 0.25046 0.0
C1638 C 0.666 0.93349 0.27037 0.0
C1639 C 0.67525 0.93587 0.23576 0.0
C1640 C 0.66399 0.95314 0.2343 0.0
C1641 C 0.67611 0.92579 0.25393 0.0
H1642 H 0.647 0.95686 0.28076 0.0
H1643 H 0.66273 0.96061 0.22021 0.0
O1644 O 0.61024 0.02406 0.24924 0.0
O1645 O 0.6401 0.00022 0.27309 0.0
O1646 O 0.60969 0.97803 0.24947 0.0
O1647 O 0.64125 0.0016 0.22713 0.0
H1648 H 0.61621 0.06201 0.25694 0.0
H1649 H 0.57175 0.01802 0.2446 0.0
H1650 H 0.58975 0.08754 0.25895 0.0
H1651 H 0.54603 0.04428 0.24697 0.0
H1652 H 0.70438 -0.00441 0.29252 0.0
H1653 H 0.63468 0.00777 0.31105 0.0
H1654 H 0.67838 0.99425 0.26655 0.0
H1655 H 0.66144 0.00889 0.33623 0.0
H1656 H 0.57492 0.0333 0.32188 0.0
H1657 H 0.57328 0.96909 0.32067 0.0
H1658 H 0.66331 0.07828 0.21803 0.0
H1659 H 0.67905 0.07346 0.27989 0.0
H1660 H 0.61623 0.94026 0.24128 0.0
H1661 H 0.57099 0.98373 0.25318 0.0
H1662 H 0.59009 0.91453 0.23843 0.0
H1663 H 0.54563 0.95727 0.25004 0.0
H1664 H 0.63494 0.99045 0.19015 0.0
H1665 H 0.67958 0.00843 0.23188 0.0
H1666 H 0.66102 0.98719 0.16442 0.0
H1667 H 0.70492 0.00479 0.2054 0.0
H1668 H 0.58 0.03586 0.1762 0.0
H1669 H 0.57932 0.97184 0.17293 0.0
H1670 H 0.6664 0.92605 0.28461 0.0
H1671 H 0.68264 0.9301 0.22272 0.0
Li1672 Li 0.72709 0.88866 0.00383 0.0
Li1673 Li 0.74317 0.86079 0.02195 0.0
Li1674 Li 0.76375 0.88646 0.00407 0.0
Li1675 Li 0.74488 0.86097 0.9855 0.0
C1676 C 0.7457 0.90476 0.0401 0.0
N1677 N 0.74664 0.93533 0.0673 0.0
C1678 C 0.74235 0.90088 0.06017 0.0
C1679 C 0.74964 0.92414 0.03384 0.0
C1680 C 0.74285 0.91654 0.0737 0.0
C1681 C 0.75002 0.93941 0.04784 0.0
C1682 C 0.70765 0.84501 0.00543 0.0
C1683 C 0.69911 0.81028 0.00496 0.0
N1684 N 0.68025 0.815 0.01032 0.0
C1685 C 0.68821 0.84954 0.0109 0.0
C1686 C 0.71318 0.82526 0.00237 0.0
C1687 C 0.67457 0.83415 0.01332 0.0
C1688 C 0.69494 0.91045 0.98773 0.0
N1689 N 0.70415 0.90476 0.0047 0.0
C1690 C 0.67764 0.91763 0.02433 0.0
C1691 C 0.69601 0.90828 0.02279 0.0
C1692 C 0.66747 0.92326 0.00708 0.0
C1693 C 0.67651 0.91988 0.98859 0.0
H1694 H 0.70155 0.90699 0.97354 0.0
H1695 H 0.70346 0.90315 0.036 0.0
C1696 C 0.75746 0.83711 0.05301 0.0
N1697 N 0.74102 0.84585 0.04542 0.0
C1698 C 0.75673 0.82791 0.07151 0.0
C1699 C 0.72216 0.83699 0.07405 0.0
C1700 C 0.72353 0.84586 0.05539 0.0
C1701 C 0.73899 0.82809 0.08249 0.0
H1702 H 0.77128 0.83775 0.04493 0.0
H1703 H 0.71084 0.85342 0.04916 0.0
C1704 C 0.7479 0.9041 0.96655 0.0
N1705 N 0.75134 0.93216 0.93685 0.0
C1706 C 0.75351 0.89837 0.94745 0.0
C1707 C 0.74399 0.92407 0.97055 0.0
C1708 C 0.75516 0.91279 0.93263 0.0
C1709 C 0.74585 0.93805 0.95533 0.0
C1710 C 0.78098 0.84324 0.00122 0.0
C1711 C 0.79961 0.84913 0.99434 0.0
C1712 C 0.77724 0.82315 0.00482 0.0
C1713 C 0.81424 0.83479 0.99121 0.0
C1714 C 0.79226 0.80926 0.00148 0.0
N1715 N 0.81029 0.81532 0.99482 0.0
C1716 C 0.79835 0.89765 0.02276 0.0
C1717 C 0.79598 0.91023 0.99002 0.0
C1718 C 0.81751 0.90513 0.02462 0.0
N1719 N 0.78813 0.90016 0.00561 0.0
C1720 C 0.81508 0.91807 0.99127 0.0
C1721 C 0.82624 0.91531 0.00866 0.0
H1722 H 0.79178 0.88927 0.03477 0.0
H1723 H 0.78766 0.91177 0.97645 0.0
C1724 C 0.72612 0.84511 0.95273 0.0
N1725 N 0.74394 0.84565 0.96203 0.0
C1726 C 0.72434 0.83608 0.93424 0.0
C1727 C 0.75913 0.82763 0.93558 0.0
C1728 C 0.76031 0.83707 0.95395 0.0
C1729 C 0.74104 0.82743 0.92547 0.0
H1730 H 0.71344 0.85229 0.95942 0.0
H1731 H 0.77441 0.8381 0.96135 0.0
O1732 O 0.74529 0.88954 0.02673 0.0
O1733 O 0.72104 0.85995 0.00261 0.0
O1734 O 0.7457 0.8901 0.98107 0.0
O1735 O 0.7667 0.85716 0.00498 0.0
H1736 H 0.73938 0.88593 0.06525 0.0
H1737 H 0.75247 0.92733 0.01839 0.0
H1738 H 0.74025 0.91377 0.08928 0.0
H1739 H 0.75303 0.9545 0.04323 0.0
H1740 H 0.70315 0.79491 0.00264 0.0
H1741 H 0.68369 0.8648 0.01319 0.0
H1742 H 0.72814 0.82156 -0.00205 0.0
H1743 H 0.65945 0.83743 0.01753 0.0
H1744 H 0.67128 0.92009 0.03886 0.0
H1745 H 0.66906 0.92371 0.97491 0.0
H1746 H 0.77 0.82096 0.07724 0.0
H1747 H 0.70827 0.83774 0.08205 0.0
H1748 H 0.75646 0.88294 0.94409 0.0
H1749 H 0.73939 0.9287 0.98519 0.0
H1750 H 0.75945 0.90857 0.91777 0.0
H1751 H 0.74285 0.95356 0.9582 0.0
H1752 H 0.80278 0.86461 0.99146 0.0
H1753 H 0.76294 0.81837 0.01026 0.0
H1754 H 0.82873 0.83914 0.98594 0.0
H1755 H 0.7896 0.79366 0.00425 0.0
H1756 H 0.82558 0.90245 0.03821 0.0
H1757 H 0.82107 0.9261 0.97871 0.0
H1758 H 0.71021 0.83621 0.92667 0.0
H1759 H 0.77232 0.82126 0.92898 0.0
Li1760 Li 0.25165 0.63809 0.01493 0.0
Li1761 Li 0.26987 0.61164 -0.00246 0.0
Li1762 Li 0.25252 0.63871 0.97871 0.0
Li1763 Li 0.23406 0.6117 0.99535 0.0
C1764 C 0.28876 0.65518 0.00034 0.0
N1765 N 0.31687 0.68455 0.00513 0.0
C1766 C 0.30804 0.65022 0.006 0.0
C1767 C 0.28378 0.67506 -0.00292 0.0
C1768 C 0.32204 0.66529 0.00836 0.0
C1769 C 0.2982 0.6897 -0.0004 0.0
C1770 C 0.25382 0.59477 0.03318 0.0
C1771 C 0.2545 0.5603 0.04286 0.0
N1772 N 0.25992 0.56573 0.06148 0.0
C1773 C 0.25934 0.60002 0.05242 0.0
C1774 C 0.25127 0.57477 0.02835 0.0
C1775 C 0.26237 0.58512 0.06652 0.0
C1776 C 0.23171 0.6568 0.04548 0.0
N1777 N 0.25007 0.6532 0.03811 0.0
C1778 C 0.26517 0.66809 0.06629 0.0
C1779 C 0.26669 0.65869 0.04797 0.0
C1780 C 0.24635 0.67172 0.07447 0.0
C1781 C 0.22948 0.66623 0.06368 0.0
H1782 H 0.21879 0.65186 0.03744 0.0
H1783 H 0.2811 0.65514 0.04195 0.0
C1784 C 0.29935 0.58793 0.98118 0.0
N1785 N 0.2923 0.59544 -0.00154 0.0
C1786 C 0.3163 0.57617 0.98116 0.0
C1787 C 0.31843 0.58027 0.01673 0.0
C1788 C 0.30142 0.59196 0.01604 0.0
C1789 C 0.3261 0.57233 -0.00091 0.0
H1790 H 0.29195 0.5913 0.9674 0.0
H1791 H 0.29574 0.5986 0.02946 0.0
C1792 C 0.21511 0.6549 0.99506 0.0
N1793 N 0.18611 0.6838 0.99318 0.0
C1794 C 0.19543 0.64963 0.99148 0.0
C1795 C 0.22004 0.67485 -0.00224 0.0
C1796 C 0.18098 0.66446 0.99057 0.0
C1797 C 0.20516 0.68925 -0.00328 0.0
C1798 C 0.24952 0.59545 0.95953 0.0
C1799 C 0.24412 0.60088 0.94029 0.0
C1800 C 0.25145 0.57538 0.96444 0.0
C1801 C 0.24067 0.58607 0.92624 0.0
C1802 C 0.24786 0.56102 0.94997 0.0
N1803 N 0.2426 0.56662 0.93133 0.0
C1804 C 0.27041 0.66158 0.94905 0.0
C1805 C 0.23529 0.66007 0.94784 0.0
C1806 C 0.27082 0.67348 0.93215 0.0
N1807 N 0.25281 0.65525 0.95649 0.0
C1808 C 0.23503 0.67184 0.93087 0.0
C1809 C 0.25295 0.67858 0.92295 0.0
H1810 H 0.28409 0.65713 0.95609 0.0
H1811 H 0.22158 0.65442 0.95388 0.0
C1812 C 0.20259 0.59345 0.01312 0.0
N1813 N 0.21075 0.59683 0.99505 0.0
C1814 C 0.18367 0.58549 0.0146 0.0
C1815 C 0.18222 0.58395 0.9788 0.0
C1816 C 0.20118 0.5921 0.978 0.0
C1817 C 0.17311 0.58111 -0.00271 0.0
H1818 H 0.21046 0.59777 0.02637 0.0
H1819 H 0.20782 0.59552 0.96383 0.0
O1820 O 0.2751 0.64052 -0.00262 0.0
O1821 O 0.25035 0.60922 0.01936 0.0
O1822 O 0.22934 0.64049 -0.00373 0.0
O1823 O 0.25351 0.6098 0.97326 0.0
H1824 H 0.31218 0.63488 0.00843 0.0
H1825 H 0.26902 0.67913 0.99242 0.0
H1826 H 0.33703 0.66166 0.0127 0.0
H1827 H 0.29457 0.70514 -0.00293 0.0
H1828 H 0.2526 0.54476 0.03934 0.0
H1829 H 0.2612 0.61545 0.05644 0.0
H1830 H 0.24673 0.57049 0.01361 0.0
H1831 H 0.26663 0.58897 0.08147 0.0
H1832 H 0.27854 0.67183 0.07428 0.0
H1833 H 0.21472 0.66897 0.06936 0.0
H1834 H 0.32177 0.57027 0.96727 0.0
H1835 H 0.32582 0.57798 0.03078 0.0
H1836 H 0.19133 0.63424 0.98946 0.0
H1837 H 0.23514 0.67914 0.00078 0.0
H1838 H 0.16569 0.66059 0.98783 0.0
H1839 H 0.20876 0.70475 -0.00121 0.0
H1840 H 0.24272 0.61637 0.93622 0.0
H1841 H 0.25585 0.57095 0.9792 0.0
H1842 H 0.23652 0.59005 0.91127 0.0
H1843 H 0.24934 0.54542 0.95354 0.0
H1844 H 0.28488 0.67824 0.92603 0.0
H1845 H 0.22106 0.67539 0.92381 0.0
H1846 H 0.17715 0.58327 0.02911 0.0
H1847 H 0.17439 0.58086 0.96515 0.0
Li1848 Li 0.13882 0.51812 0.74962 0.0
Li1849 Li 0.11152 0.50181 0.7678 0.0
Li1850 Li 0.13792 0.48205 0.75036 0.0
Li1851 Li 0.11179 0.49982 0.73181 0.0
C1852 C 0.15493 0.50296 0.78696 0.0
N1853 N 0.18416 0.50707 0.81525 0.0
C1854 C 0.14999 0.50849 0.8063 0.0
C1855 C 0.17474 0.4995 0.78201 0.0
C1856 C 0.16498 0.51049 0.82039 0.0
C1857 C 0.1893 0.50167 0.79652 0.0
C1858 C 0.09601 0.53801 0.75029 0.0
C1859 C 0.06174 0.54802 0.74989 0.0
N1860 N 0.06733 0.56711 0.75332 0.0
C1861 C 0.10143 0.55771 0.75379 0.0
C1862 C 0.07603 0.53309 0.74828 0.0
C1863 C 0.0867 0.57221 0.75529 0.0
C1864 C 0.15535 0.54917 0.72955 0.0
N1865 N 0.15457 0.54074 0.74781 0.0
C1866 C 0.17255 0.56764 0.76189 0.0
C1867 C 0.16303 0.54939 0.76387 0.0
C1868 C 0.17294 0.57702 0.7433 0.0
C1869 C 0.16456 0.56743 0.72692 0.0
H1870 H 0.14818 0.54198 0.71718 0.0
H1871 H 0.16173 0.54258 0.7783 0.0
C1872 C 0.08674 0.48694 0.79737 0.0
N1873 N 0.09481 0.50377 0.7898 0.0
C1874 C 0.074 0.48798 0.81357 0.0
C1875 C 0.07823 0.52367 0.81383 0.0
C1876 C 0.09097 0.52191 0.79769 0.0
C1877 C 0.06963 0.50654 0.822 0.0
H1878 H 0.09039 0.4727 0.79095 0.0
H1879 H 0.09793 0.53498 0.79156 0.0
C1880 C 0.15498 0.49798 0.71312 0.0
N1881 N 0.18409 0.49534 0.68444 0.0
C1882 C 0.14991 0.49403 0.69345 0.0
C1883 C 0.17484 0.50067 0.7182 0.0
C1884 C 0.16484 0.49274 0.67916 0.0
C1885 C 0.18934 0.49924 0.70349 0.0
C1886 C 0.09451 0.46393 0.74753 0.0
C1887 C 0.09982 0.44461 0.74211 0.0
C1888 C 0.07453 0.46877 0.75001 0.0
C1889 C 0.08502 0.43044 0.73923 0.0
C1890 C 0.06017 0.45418 0.74698 0.0
N1891 N 0.06566 0.43548 0.74172 0.0
C1892 C 0.16101 0.45233 0.76775 0.0
C1893 C 0.15744 0.45025 0.73281 0.0
C1894 C 0.17284 0.43539 0.76788 0.0
N1895 N 0.15373 0.45937 0.75037 0.0
C1896 C 0.16902 0.43316 0.73228 0.0
C1897 C 0.17682 0.4256 0.74999 0.0
H1898 H 0.15744 0.45973 0.78149 0.0
H1899 H 0.15114 0.4561 0.71929 0.0
C1900 C 0.09228 0.51833 0.70099 0.0
N1901 N 0.09674 0.50019 0.70861 0.0
C1902 C 0.08309 0.51988 0.68263 0.0
C1903 C 0.08342 0.48401 0.68024 0.0
C1904 C 0.0924 0.48314 0.69882 0.0
C1905 C 0.07892 0.50258 0.67193 0.0
H1906 H 0.09652 0.53162 0.70885 0.0
H1907 H 0.09659 0.46896 0.70506 0.0
O1908 O 0.14033 0.50048 0.77318 0.0
O1909 O 0.1103 0.52374 0.7484 0.0
O1910 O 0.14046 0.4996 0.72717 0.0
O1911 O 0.10889 0.47771 0.75119 0.0
H1912 H 0.1347 0.51111 0.8104 0.0
H1913 H 0.17879 0.495 0.76718 0.0
H1914 H 0.16136 0.51472 0.83543 0.0
H1915 H 0.20469 0.49899 0.79291 0.0
H1916 H 0.04621 0.54445 0.74835 0.0
H1917 H 0.11686 0.56176 0.75529 0.0
H1918 H 0.07163 0.51795 0.74536 0.0
H1919 H 0.09068 0.58753 0.75797 0.0
H1920 H 0.17868 0.57476 0.77488 0.0
H1921 H 0.16473 0.57421 0.71236 0.0
H1922 H 0.06808 0.47438 0.81976 0.0
H1923 H 0.07526 0.53823 0.81995 0.0
H1924 H 0.13459 0.49203 0.68924 0.0
H1925 H 0.17898 0.50398 0.7333 0.0
H1926 H 0.16112 0.4897 0.66388 0.0
H1927 H 0.20478 0.5013 0.70719 0.0
H1928 H 0.11522 0.44056 0.74032 0.0
H1929 H 0.07018 0.48357 0.75445 0.0
H1930 H 0.08892 0.41542 0.7351 0.0
H1931 H 0.04465 0.45769 0.74892 0.0
H1932 H 0.17832 0.42967 0.78185 0.0
H1933 H 0.17176 0.42585 0.71825 0.0
H1934 H 0.08007 0.53443 0.67647 0.0
H1935 H 0.08037 0.47039 0.6723 0.0
Li1936 Li 0.22748 0.3889 0.50413 0.0
Li1937 Li 0.2447 0.36206 0.52258 0.0
Li1938 Li 0.26393 0.38865 0.50415 0.0
Li1939 Li 0.24657 0.36194 0.48623 0.0
C1940 C 0.24503 0.40577 0.54092 0.0
N1941 N 0.24431 0.43526 0.56932 0.0
C1942 C 0.24184 0.40094 0.56083 0.0
C1943 C 0.24791 0.42557 0.53547 0.0
C1944 C 0.2415 0.41607 0.57496 0.0
C1945 C 0.24749 0.44028 0.55004 0.0
C1946 C 0.20904 0.34533 0.5062 0.0
C1947 C 0.20007 0.31071 0.50738 0.0
N1948 N 0.18109 0.31592 0.51174 0.0
C1949 C 0.18944 0.35036 0.51063 0.0
C1950 C 0.21442 0.32537 0.50448 0.0
C1951 C 0.17553 0.33527 0.5134 0.0
C1952 C 0.19469 0.40919 0.48777 0.0
N1953 N 0.20424 0.40427 0.50478 0.0
C1954 C 0.17812 0.41784 0.52439 0.0
C1955 C 0.19644 0.40845 0.52286 0.0
C1956 C 0.16761 0.4227 0.50713 0.0
C1957 C 0.17624 0.41854 0.4886 0.0
H1958 H 0.20111 0.40526 0.47361 0.0
H1959 H 0.20414 0.4039 0.53613 0.0
C1960 C 0.25924 0.33992 0.55496 0.0
N1961 N 0.24265 0.34712 0.54616 0.0
C1962 C 0.25798 0.33059 0.57341 0.0
C1963 C 0.22257 0.33599 0.57314 0.0
C1964 C 0.22454 0.34534 0.55479 0.0
C1965 C 0.23947 0.32872 0.58281 0.0
H1966 H 0.27348 0.34185 0.54787 0.0
H1967 H 0.21169 0.35176 0.54773 0.0
C1968 C 0.2466 0.40531 0.46707 0.0
N1969 N 0.24746 0.43431 0.43806 0.0
C1970 C 0.24999 0.40015 0.4473 0.0
C1971 C 0.24354 0.4252 0.47207 0.0
C1972 C 0.25039 0.41503 0.43285 0.0
C1973 C 0.24408 0.43965 0.4572 0.0
C1974 C 0.28245 0.34523 0.50154 0.0
C1975 C 0.3012 0.35068 0.49464 0.0
C1976 C 0.27814 0.32522 0.50485 0.0
C1977 C 0.31532 0.33595 0.491 0.0
C1978 C 0.29265 0.31092 0.501 0.0
N1979 N 0.31078 0.31654 0.49422 0.0
C1980 C 0.29527 0.41025 0.52103 0.0
C1981 C 0.29594 0.40753 0.48596 0.0
C1982 C 0.31358 0.41979 0.52093 0.0
N1983 N 0.28699 0.40423 0.50372 0.0
C1984 C 0.3144 0.41675 0.4852 0.0
C1985 C 0.32342 0.42271 0.50288 0.0
H1986 H 0.28801 0.40699 0.53495 0.0
H1987 H 0.28915 0.4022 0.47249 0.0
C1988 C 0.22944 0.34097 0.45518 0.0
N1989 N 0.2471 0.34689 0.46268 0.0
C1990 C 0.22846 0.33269 0.4363 0.0
C1991 C 0.26396 0.33634 0.43338 0.0
C1992 C 0.26426 0.34455 0.45237 0.0
C1993 C 0.2458 0.33074 0.42496 0.0
H1994 H 0.216 0.34341 0.46354 0.0
H1995 H 0.27802 0.34995 0.45846 0.0
O1996 O 0.24561 0.39105 0.52698 0.0
O1997 O 0.22272 0.35996 0.50314 0.0
O1998 O 0.2458 0.39085 0.4813 0.0
O1999 O 0.26868 0.35952 0.50578 0.0
H2000 H 0.23968 0.38567 0.56533 0.0
H2001 H 0.25067 0.42953 0.52019 0.0
H2002 H 0.23904 0.41255 0.59041 0.0
H2003 H 0.24974 0.45567 0.54604 0.0
H2004 H 0.20401 0.29519 0.5061 0.0
H2005 H 0.18502 0.36576 0.51188 0.0
H2006 H 0.22946 0.32126 0.50083 0.0
H2007 H 0.16031 0.33894 0.51683 0.0
H2008 H 0.17209 0.42095 0.53894 0.0
H2009 H 0.16851 0.42177 0.47493 0.0
H2010 H 0.27135 0.32501 0.5803 0.0
H2011 H 0.20809 0.33507 0.58 0.0
H2012 H 0.25222 0.38482 0.44312 0.0
H2013 H 0.24057 0.42941 0.48723 0.0
H2014 H 0.25298 0.41124 0.41749 0.0
H2015 H 0.24172 0.4551 0.46086 0.0
H2016 H 0.30486 0.36612 0.49222 0.0
H2017 H 0.26382 0.32079 0.51051 0.0
H2018 H 0.32989 0.33995 0.48567 0.0
H2019 H 0.28954 0.29536 0.50349 0.0
H2020 H 0.3204 0.42403 0.53481 0.0
H2021 H 0.32181 0.41871 0.47108 0.0
H2022 H 0.2142 0.32827 0.43047 0.0
H2023 H 0.27764 0.33524 0.42505 0.0
Li2024 Li 0.38851 0.49875 0.26667 0.0
Li2025 Li 0.36181 0.47989 0.24947 0.0
Li2026 Li 0.38873 0.49817 0.2301 0.0
Li2027 Li 0.36173 0.51694 0.24731 0.0
C2028 C 0.40555 0.46168 0.25078 0.0
N2029 N 0.43493 0.43329 0.25393 0.0
C2030 C 0.40097 0.44258 0.25747 0.0
C2031 C 0.42504 0.46635 0.24565 0.0
C2032 C 0.41604 0.42842 0.25896 0.0
C2033 C 0.4397 0.4518 0.24739 0.0
C2034 C 0.34567 0.49861 0.28603 0.0
C2035 C 0.31229 0.50305 0.29795 0.0
N2036 N 0.31795 0.49624 0.31607 0.0
C2037 C 0.35117 0.49167 0.30477 0.0
C2038 C 0.32609 0.50437 0.28256 0.0
C2039 C 0.33692 0.49057 0.31976 0.0
C2040 C 0.41097 0.51669 0.29708 0.0
N2041 N 0.40458 0.49906 0.2897 0.0
C2042 C 0.41988 0.48141 0.31636 0.0
C2043 C 0.40881 0.48159 0.29891 0.0
C2044 C 0.42669 0.49939 0.32432 0.0
C2045 C 0.42226 0.51718 0.31438 0.0
H2046 H 0.40702 0.53039 0.28972 0.0
H2047 H 0.40321 0.46783 0.29293 0.0
C2048 C 0.35054 0.44213 0.23616 0.0
N2049 N 0.34655 0.456 0.25022 0.0
C2050 C 0.34151 0.42347 0.23697 0.0
C2051 C 0.32391 0.43395 0.26633 0.0
C2052 C 0.33334 0.45233 0.265 0.0
C2053 C 0.32819 0.41906 0.2524 0.0
H2054 H 0.36125 0.44538 0.22466 0.0
H2055 H 0.33034 0.46343 0.27606 0.0
C2056 C 0.40537 0.53534 0.24704 0.0
N2057 N 0.43489 0.56365 0.24534 0.0
C2058 C 0.40059 0.55525 0.24361 0.0
C2059 C 0.42515 0.52982 0.24964 0.0
C2060 C 0.41573 0.56934 0.24277 0.0
C2061 C 0.43986 0.54436 0.24874 0.0
C2062 C 0.34545 0.49752 0.21146 0.0
C2063 C 0.35059 0.5011 0.1917 0.0
C2064 C 0.32569 0.49411 0.21652 0.0
C2065 C 0.33579 0.50125 0.17728 0.0
C2066 C 0.31132 0.49437 0.20165 0.0
N2067 N 0.31662 0.4979 0.18251 0.0
C2068 C 0.40743 0.4813 0.19668 0.0
C2069 C 0.40918 0.51638 0.19893 0.0
C2070 C 0.41636 0.48177 0.178 0.0
N2071 N 0.40387 0.49849 0.20658 0.0
C2072 C 0.41828 0.51754 0.18043 0.0
C2073 C 0.42161 0.50013 0.16949 0.0
H2074 H 0.40268 0.46732 0.20301 0.0
H2075 H 0.40574 0.52986 0.20686 0.0
C2076 C 0.3407 0.55033 0.26164 0.0
N2077 N 0.34641 0.54046 0.24504 0.0
C2078 C 0.33084 0.5685 0.2601 0.0
C2079 C 0.33298 0.56605 0.22443 0.0
C2080 C 0.34276 0.54789 0.22666 0.0
C2081 C 0.32701 0.57668 0.24129 0.0
H2082 H 0.34424 0.54431 0.27607 0.0
H2083 H 0.34786 0.53996 0.21372 0.0
O2084 O 0.39084 0.47548 0.24863 0.0
O2085 O 0.35947 0.49993 0.27126 0.0
O2086 O 0.39066 0.52143 0.24796 0.0
O2087 O 0.35982 0.49704 0.22567 0.0
H2088 H 0.38594 0.43871 0.26147 0.0
H2089 H 0.42877 0.48099 0.24019 0.0
H2090 H 0.41271 0.41357 0.26408 0.0
H2091 H 0.45486 0.45518 0.24344 0.0
H2092 H 0.29708 0.50744 0.29549 0.0
H2093 H 0.36627 0.48717 0.30769 0.0
H2094 H 0.32161 0.50972 0.26811 0.0
H2095 H 0.34096 0.48521 0.33433 0.0
H2096 H 0.42295 0.4674 0.32364 0.0
H2097 H 0.42693 0.53137 0.32028 0.0
H2098 H 0.34541 0.41243 0.22599 0.0
H2099 H 0.31346 0.43138 0.27824 0.0
H2100 H 0.38534 0.55977 0.24159 0.0
H2101 H 0.42907 0.5145 0.25247 0.0
H2102 H 0.41225 0.5848 0.2401 0.0
H2103 H 0.45523 0.54032 0.25077 0.0
H2104 H 0.36585 0.50372 0.18755 0.0
H2105 H 0.32153 0.49124 0.23176 0.0
H2106 H 0.33954 0.504 0.16192 0.0
H2107 H 0.29595 0.49174 0.20531 0.0
H2108 H 0.41843 0.46799 0.17001 0.0
H2109 H 0.42235 0.53196 0.17461 0.0
H2110 H 0.32681 0.57636 0.2735 0.0
H2111 H 0.33025 0.57176 0.20967 0.0
O2112 O 0.02563 0.01346 0.99542 0.0
Mn2113 Mn -0.00148 -0.00051 0.00112 0.0
O2114 O 0.04897 0.98978 0.99406 0.0
Mn2115 Mn 0.03313 0.97055 0.00532 0.0
O2116 O 0.97084 0.98594 0.00664 0.0
O2117 O 0.98787 0.0268 0.00769 0.0
Mn2118 Mn 0.96494 0.02978 -0.00421 0.0
O2119 O 0.99078 0.0024 0.97107 0.0
O2120 O 0.94842 0.01068 0.00599 0.0
O2121 O 0.00644 -0.00364 0.03128 0.0
O2122 O 0.02963 0.97243 0.03231 0.0
O2123 O 0.96896 0.05318 0.0089 0.0
O2124 O 0.96924 0.0277 0.96887 0.0
C2125 C 0.01331 0.95466 0.98721 0.0
C2126 C 0.04347 0.00773 0.99219 0.0
C2127 C 0.95291 0.99243 0.00815 0.0
C2128 C 0.98528 0.04468 0.01433 0.0
C2129 C 0.97958 0.01405 0.9609 0.0
C2130 C 0.01847 0.98501 0.04092 0.0
O2131 O 0.0096 0.97228 0.99413 0.0
O2132 O 0.03005 0.94696 0.9926 0.0
O2133 O 0.28141 0.74686 0.24459 0.0
Mn2134 Mn 0.25107 0.74703 0.24965 0.0
O2135 O 0.28749 0.77107 0.22223 0.0
Mn2136 Mn 0.26138 0.77684 0.21617 0.0
O2137 O 0.22059 0.74742 0.25449 0.0
O2138 O 0.25373 0.71946 0.26064 0.0
Mn2139 Mn 0.23803 0.71623 0.28112 0.0
O2140 O 0.25523 0.75915 0.27765 0.0
O2141 O 0.21283 0.7196 0.27116 0.0
O2142 O 0.24642 0.73458 0.22179 0.0
O2143 O 0.24881 0.75924 0.19936 0.0
O2144 O 0.25147 0.69255 0.27824 0.0
O2145 O 0.24559 0.73541 0.29926 0.0
C2146 C 0.24428 0.79332 0.23706 0.0
C2147 C 0.29321 0.75744 0.23405 0.0
C2148 C 0.20791 0.7352 0.2617 0.0
C2149 C 0.25961 0.70144 0.26332 0.0
C2150 C 0.25185 0.75288 0.29533 0.0
C2151 C 0.24478 0.74137 0.20409 0.0
O2152 O 0.24873 0.77477 0.23884 0.0
O2153 O 0.25099 0.80165 0.22113 0.0
O2154 O 0.47723 0.98237 0.49522 0.0
Mn2155 Mn 0.50135 0.00155 0.49902 0.0
O2156 O 0.45355 0.00033 0.48145 0.0
Mn2157 Mn 0.46153 0.02161 0.49639 0.0
O2158 O 0.52596 0.01987 0.50309 0.0
O2159 O 0.51604 0.97752 0.50833 0.0
Mn2160 Mn 0.54082 0.97783 0.50081 0.0
O2161 O 0.5108 -0.00362 0.47039 0.0
O2162 O 0.55101 0.00017 0.51282 0.0
O2163 O 0.49204 0.00652 0.52754 0.0
O2164 O 0.46108 0.0184 0.52387 0.0
O2165 O 0.5371 0.95409 0.51422 0.0
O2166 O 0.53932 0.979 0.47327 0.0
C2167 C 0.48006 0.04366 0.48428 0.0
C2168 C 0.46056 0.98365 0.48635 0.0
C2169 C 0.54354 0.01727 0.50984 0.0
C2170 C 0.51904 0.96023 0.51588 0.0
C2171 C 0.52591 0.98753 0.46289 0.0
C2172 C 0.47545 0.01236 0.53468 0.0
O2173 O 0.48647 0.0264 0.49019 0.0
O2174 O 0.46112 0.04637 0.48573 0.0
O2175 O 0.2736 0.25329 0.7694 0.0
Mn2176 Mn 0.248 0.25024 0.75207 0.0
O2177 O 0.29487 0.26753 0.74919 0.0
Mn2178 Mn 0.28626 0.25117 0.72938 0.0
O2179 O 0.22235 0.24669 0.73546 0.0
O2180 O 0.23431 0.24217 0.77716 0.0
Mn2181 Mn 0.21025 0.25182 0.77829 0.0
O2182 O 0.24027 0.27962 0.75682 0.0
O2183 O 0.19736 0.2411 0.75676 0.0
O2184 O 0.2558 0.22118 0.74749 0.0
O2185 O 0.2862 0.2238 0.73373 0.0
O2186 O 0.21374 0.23768 0.80146 0.0
O2187 O 0.2138 0.2791 0.77731 0.0
C2188 C 0.26703 0.26289 0.70815 0.0
C2189 C 0.29018 0.26191 0.76638 0.0
C2190 C 0.20437 0.24203 0.73929 0.0
C2191 C 0.23121 0.23439 0.79432 0.0
C2192 C 0.22678 0.28836 0.76706 0.0
C2193 C 0.27187 0.21363 0.74082 0.0
O2194 O 0.2613 0.2577 0.72585 0.0
O2195 O 0.28571 0.26068 0.70434 0.0
O2196 O -0.00166 0.97057 0.48731 0.0
Mn2197 Mn 0.0011 -0.00085 0.49863 0.0
O2198 O 0.0067 0.95011 0.51248 0.0
Mn2199 Mn 0.01222 0.96929 0.53123 0.0
O2200 O 0.00437 0.02756 0.51026 0.0
O2201 O 0.00601 0.00904 0.47087 0.0
Mn2202 Mn 0.99245 0.03098 0.46678 0.0
O2203 O 0.97062 0.00371 0.49586 0.0
O2204 O 0.00154 0.04922 0.48507 0.0
O2205 O 0.03162 0.9948 0.50093 0.0
O2206 O 0.03747 0.97948 0.52983 0.0
O2207 O 0.00572 0.02621 0.44349 0.0
O2208 O 0.96626 0.02378 0.46948 0.0
C2209 C 0.98945 0.98652 0.54428 0.0
C2210 C 0.00165 0.9532 0.49452 0.0
C2211 C 0.00482 0.04529 0.50326 0.0
C2212 C 0.01227 0.01077 0.45285 0.0
C2213 C 0.9595 0.01292 0.4834 0.0
C2214 C 0.04348 0.98832 0.5143 0.0
O2215 O -0.00395 0.98922 0.52646 0.0
O2216 O -0.00246 0.97198 0.55389 0.0
O2217 O 0.26658 0.77746 0.7522 0.0
Mn2218 Mn 0.25094 0.75124 0.74761 0.0
O2219 O 0.24428 0.80232 0.75191 0.0
Mn2220 Mn 0.22365 0.78737 0.7422 0.0
O2221 O 0.23521 0.72504 0.74287 0.0
O2222 O 0.2771 0.7382 0.7408 0.0
Mn2223 Mn 0.27805 0.71468 0.75215 0.0
O2224 O 0.25411 0.74404 0.77743 0.0
O2225 O 0.25756 0.7003 0.7413 0.0
O2226 O 0.24786 0.75829 0.71766 0.0
O2227 O 0.22456 0.78197 0.71542 0.0
O2228 O 0.30156 0.71705 0.73881 0.0
O2229 O 0.27665 0.71941 0.77911 0.0
C2230 C 0.20775 0.76902 0.76211 0.0
C2231 C 0.26179 0.79577 0.75429 0.0
C2232 C 0.24001 0.70692 0.73955 0.0
C2233 C 0.29457 0.73427 0.73389 0.0
C2234 C 0.26506 0.73194 0.78725 0.0
C2235 C 0.23674 0.76991 0.70746 0.0
O2236 O 0.22486 0.7644 0.75465 0.0
O2237 O 0.20055 0.78585 0.75624 0.0
O2238 O 0.48176 -0.0034 0.97375 0.0
Mn2239 Mn 0.499 0.00013 -0.00075 0.0
O2240 O 0.50323 0.99458 0.94815 0.0
Mn2241 Mn 0.52526 0.00301 0.9617 0.0
O2242 O 0.51662 0.00402 0.02465 0.0
O2243 O 0.47449 0.00941 0.01431 0.0
Mn2244 Mn 0.47763 -0.001 0.03836 0.0
O2245 O 0.49444 0.9707 0.00642 0.0
O2246 O 0.49651 0.01577 0.04817 0.0
O2247 O 0.50402 0.02962 0.99174 0.0
O2248 O 0.52644 0.02989 0.96704 0.0
O2249 O 0.45107 0.0019 0.03502 0.0
O2250 O 0.4856 0.97264 0.03819 0.0
C2251 C 0.54007 0.98252 0.98057 0.0
C2252 C 0.48581 0.99376 0.95534 0.0
C2253 C 0.5138 0.01281 0.04134 0.0
C2254 C 0.4556 0.00724 0.01715 0.0
C2255 C 0.49113 0.96267 0.02323 0.0
C2256 C 0.51551 0.03881 0.97964 0.0
O2257 O 0.52363 0.99134 0.98489 0.0
O2258 O 0.54724 0.98701 0.96335 0.0
O2259 O 0.27976 0.24708 0.25821 0.0
Mn2260 Mn 0.24915 0.24879 0.25252 0.0
O2261 O 0.28148 0.23194 0.28753 0.0
Mn2262 Mn 0.25554 0.22398 0.28934 0.0
O2263 O 0.21879 0.25072 0.24594 0.0
O2264 O 0.25432 0.27557 0.23994 0.0
Mn2265 Mn 0.24236 0.2769 0.21698 0.0
O2266 O 0.25314 0.23358 0.22546 0.0
O2267 O 0.21562 0.27387 0.22194 0.0
O2268 O 0.24426 0.26418 0.2794 0.0
O2269 O 0.23963 0.24117 0.30305 0.0
O2270 O 0.25416 0.30115 0.21999 0.0
O2271 O 0.25343 0.25723 0.20182 0.0
C2272 C 0.24512 0.20327 0.26772 0.0
C2273 C 0.28971 0.24066 0.27308 0.0
C2274 C 0.20827 0.26135 0.23404 0.0
C2275 C 0.25974 0.29376 0.23681 0.0
C2276 C 0.2546 0.23916 0.20723 0.0
C2277 C 0.2388 0.25908 0.29703 0.0
O2278 O 0.24304 0.22242 0.26629 0.0
O2279 O 0.25267 0.19765 0.28445 0.0
O2280 O 0.49769 0.46931 0.98758 0.0
Mn2281 Mn 0.50114 0.49756 -0.0003 0.0
O2282 O 0.50516 0.44791 0.01227 0.0
Mn2283 Mn 0.51169 0.46625 0.03144 0.0
O2284 O 0.50543 0.52521 0.01393 0.0
O2285 O 0.5049 0.50701 0.97019 0.0
Mn2286 Mn 0.49657 0.53141 0.9763 0.0
O2287 O 0.47095 0.50233 -0.00161 0.0
O2288 O 0.51555 0.54452 0.99004 0.0
O2289 O 0.53169 0.49262 0.00136 0.0
O2290 O 0.53706 0.47584 0.02966 0.0
O2291 O 0.49884 0.53367 0.95051 0.0
O2292 O 0.47111 0.53309 0.98632 0.0
C2293 C 0.48984 0.48424 0.04501 0.0
C2294 C 0.50045 0.45167 0.99435 0.0
C2295 C 0.51394 0.54119 0.00824 0.0
C2296 C 0.50547 0.51568 0.95256 0.0
C2297 C 0.4622 0.51862 0.99438 0.0
C2298 C 0.54331 0.48528 0.01456 0.0
O2299 O 0.49651 0.48691 0.02724 0.0
O2300 O 0.4973 0.46919 0.05432 0.0
O2301 O 0.76932 0.27558 0.25141 0.0
Mn2302 Mn 0.75101 0.25099 0.24674 0.0
O2303 O 0.74958 0.30168 0.24554 0.0
Mn2304 Mn 0.72778 0.28699 0.2393 0.0
O2305 O 0.73245 0.22624 0.24203 0.0
O2306 O 0.77585 0.23511 0.23899 0.0
Mn2307 Mn 0.76962 0.21123 0.24871 0.0
O2308 O 0.75382 0.24394 0.27634 0.0
O2309 O 0.75197 0.20237 0.23032 0.0
O2310 O 0.7488 0.25768 0.21629 0.0
O2311 O 0.72471 0.27988 0.21356 0.0
O2312 O 0.79635 0.21177 0.24842 0.0
O2313 O 0.75955 0.21144 0.27442 0.0
C2314 C 0.70928 0.27589 0.26056 0.0
C2315 C 0.76611 0.29432 0.25051 0.0
C2316 C 0.73482 0.20952 0.2331 0.0
C2317 C 0.79406 0.2302 0.24336 0.0
C2318 C 0.75516 0.22684 0.28433 0.0
C2319 C 0.73707 0.26825 0.20572 0.0
O2320 O 0.72545 0.26623 0.25522 0.0
O2321 O 0.70576 0.2929 0.25221 0.0
O2322 O 0.98383 0.49483 0.47325 0.0
Mn2323 Mn 0.00018 0.5006 0.49881 0.0
O2324 O 0.00576 0.49383 0.44802 0.0
Mn2325 Mn 0.02725 0.50352 0.46172 0.0
O2326 O 0.01723 0.50606 0.52415 0.0
O2327 O 0.9745 0.50772 0.51231 0.0
Mn2328 Mn 0.97701 0.5024 0.53769 0.0
O2329 O -0.00334 0.47171 0.50832 0.0
O2330 O -0.00333 0.51916 0.54624 0.0
O2331 O 0.00371 0.53001 0.49004 0.0
O2332 O 0.02719 0.53054 0.46636 0.0
O2333 O 0.95141 0.51104 0.5346 0.0
O2334 O 0.98312 0.47537 0.53878 0.0
C2335 C 0.04207 0.48412 0.48182 0.0
C2336 C 0.98829 0.49194 0.45495 0.0
C2337 C 0.01409 0.51518 0.54051 0.0
C2338 C 0.95637 0.51254 0.51613 0.0
C2339 C 0.99085 0.46477 0.52506 0.0
C2340 C 0.01531 0.53934 0.47815 0.0
O2341 O 0.02537 0.49269 0.48526 0.0
O2342 O 0.04971 0.48826 0.46472 0.0
O2343 O 0.77554 0.7542 0.26798 0.0
Mn2344 Mn 0.74963 0.74992 0.25181 0.0
O2345 O 0.8 0.76085 0.24684 0.0
Mn2346 Mn 0.78724 0.74705 0.22712 0.0
O2347 O 0.72273 0.7459 0.23668 0.0
O2348 O 0.73724 0.74382 0.27815 0.0
Mn2349 Mn 0.71391 0.75461 0.28042 0.0
O2350 O 0.74252 0.77971 0.25461 0.0
O2351 O 0.69972 0.74263 0.26069 0.0
O2352 O 0.75672 0.72019 0.24871 0.0
O2353 O 0.7849 0.71988 0.23072 0.0
O2354 O 0.71828 0.74197 0.30417 0.0
O2355 O 0.71798 0.78161 0.27734 0.0
C2356 C 0.76755 0.76095 0.20735 0.0
C2357 C 0.79318 0.76001 0.26432 0.0
C2358 C 0.70481 0.74291 0.24253 0.0
C2359 C 0.73495 0.73726 0.29595 0.0
C2360 C 0.73017 0.78952 0.26524 0.0
C2361 C 0.77103 0.71106 0.2401 0.0
O2362 O 0.76273 0.75605 0.22535 0.0
O2363 O 0.78567 0.7572 0.20223 0.0
O2364 O 0.78113 0.25182 0.74067 0.0
Mn2365 Mn 0.75186 0.24815 0.74866 0.0
O2366 O 0.78076 0.27085 0.71315 0.0
Mn2367 Mn 0.75356 0.27439 0.71114 0.0
O2368 O 0.72251 0.24492 0.75638 0.0
O2369 O 0.75936 0.22097 0.76146 0.0
Mn2370 Mn 0.75174 0.22697 0.78595 0.0
O2371 O 0.75616 0.26559 0.77415 0.0
O2372 O 0.7251 0.23349 0.78742 0.0
O2373 O 0.74691 0.23197 0.72253 0.0
O2374 O 0.73995 0.25431 0.69879 0.0
O2375 O 0.75893 0.20178 0.78875 0.0
O2376 O 0.76895 0.24522 0.79596 0.0
C2377 C 0.73942 0.29235 0.73298 0.0
C2378 C 0.78992 0.26089 0.72643 0.0
C2379 C 0.71495 0.24044 0.77315 0.0
C2380 C 0.76373 0.20402 0.77025 0.0
C2381 C 0.76475 0.26263 0.79073 0.0
C2382 C 0.74084 0.23652 0.70503 0.0
O2383 O 0.74492 0.27416 0.73566 0.0
O2384 O 0.74256 0.29903 0.71527 0.0
O2385 O 0.7777 0.74898 0.75831 0.0
Mn2386 Mn 0.74765 0.75028 0.75086 0.0
O2387 O 0.77627 0.73577 0.78869 0.0
Mn2388 Mn 0.74978 0.72877 0.7877 0.0
O2389 O 0.71738 0.75142 0.74355 0.0
O2390 O 0.75283 0.77689 0.73835 0.0
Mn2391 Mn 0.73963 0.77925 0.71614 0.0
O2392 O 0.75325 0.73572 0.72397 0.0
O2393 O 0.7132 0.77727 0.72287 0.0
O2394 O 0.74213 0.76696 0.77662 0.0
O2395 O 0.7321 0.74585 0.79924 0.0
O2396 O 0.75348 0.80261 0.71888 0.0
O2397 O 0.74909 0.75907 0.70026 0.0
C2398 C 0.7398 0.70487 0.77162 0.0
C2399 C 0.78606 0.74361 0.77456 0.0
C2400 C 0.70626 0.76319 0.73341 0.0
C2401 C 0.75979 0.79443 0.73504 0.0
C2402 C 0.75342 0.74143 0.70571 0.0
C2403 C 0.73373 0.76342 0.79321 0.0
O2404 O 0.74266 0.72227 0.7631 0.0
O2405 O 0.744 0.70322 0.7903 0.0
O2406 O 0.5229 0.51904 0.49726 0.0
Mn2407 Mn 0.49786 0.50091 0.50119 0.0
O2408 O 0.54623 0.49952 0.48483 0.0
Mn2409 Mn 0.53714 0.47901 0.50033 0.0
O2410 O 0.47268 0.48323 0.50535 0.0
O2411 O 0.48353 0.52584 0.50922 0.0
Mn2412 Mn 0.45909 0.52537 0.5005 0.0
O2413 O 0.48931 0.50524 0.47178 0.0
O2414 O 0.4474 0.5037 0.5124 0.0
O2415 O 0.50646 0.49665 0.53049 0.0
O2416 O 0.5372 0.48371 0.52758 0.0
O2417 O 0.46176 0.54923 0.51351 0.0
O2418 O 0.46151 0.52386 0.47311 0.0
C2419 C 0.51754 0.45784 0.48801 0.0
C2420 C 0.53987 0.51667 0.48907 0.0
C2421 C 0.45475 0.48639 0.51085 0.0
C2422 C 0.47977 0.54328 0.51622 0.0
C2423 C 0.47485 0.51448 0.46341 0.0
C2424 C 0.52298 0.49079 0.53795 0.0
O2425 O 0.51219 0.47551 0.49356 0.0
O2426 O 0.53612 0.45379 0.49049 0.0
O2427 O 0.97613 0.48429 0.99295 0.0
Mn2428 Mn 0.00122 0.50166 -0.00179 0.0
O2429 O 0.95147 0.50482 0.98519 0.0
Mn2430 Mn 0.96247 0.52438 0.00061 0.0
O2431 O 0.02671 0.51832 0.0037 0.0
O2432 O 0.01502 0.47605 0.00435 0.0
Mn2433 Mn 0.03933 0.47606 0.99535 0.0
O2434 O 0.00927 0.49928 0.96868 0.0
O2435 O 0.05141 0.49649 0.00885 0.0
O2436 O 0.99346 0.5038 0.02768 0.0
O2437 O 0.96366 0.51895 0.02762 0.0
O2438 O 0.03529 0.45125 0.00638 0.0
O2439 O 0.03651 0.47982 0.96825 0.0
C2440 C 0.98165 0.54574 0.98783 0.0
C2441 C 0.95872 0.48751 0.98617 0.0
C2442 C 0.04449 0.51409 0.00901 0.0
C2443 C 0.01767 0.45792 0.00986 0.0
C2444 C 0.02323 0.49014 0.95948 0.0
C2445 C 0.97804 0.51044 0.03649 0.0
O2446 O 0.98715 0.52778 0.9924 0.0
O2447 O 0.96329 0.54987 0.99159 0.0
C2448 C 0.02192 0.1404 0.07145 0.0
C2449 C 0.00617 0.15291 0.06585 0.0
C2450 C 0.02352 0.1209 0.06414 0.0
C2451 C 0.00886 0.11352 0.05117 0.0
C2452 C 0.99313 0.12613 0.04518 0.0
C2453 C 0.99206 0.14564 0.05245 0.0
C2454 C 0.04066 0.10807 0.07064 0.0
C2455 C 0.97712 0.11888 0.03136 0.0
C2456 C 0.0121 0.06908 0.01703 0.0
C2457 C -0.00082 0.05595 0.02662 0.0
C2458 C 0.01727 0.08728 0.0258 0.0
C2459 C 0.00915 0.09237 0.0445 0.0
C2460 C -0.00173 0.07794 0.05527 0.0
C2461 C 0.99347 0.05985 0.04617 0.0
C2462 C 0.02935 0.10193 0.01396 0.0
C2463 C 0.98946 0.08255 0.0753 0.0
H2464 H 0.03279 0.14563 0.08199 0.0
H2465 H 0.98007 0.1552 0.04765 0.0
H2466 H 0.03512 0.09546 0.07965 0.0
H2467 H 0.04828 0.10169 0.05753 0.0
H2468 H 0.05163 0.11646 0.07955 0.0
H2469 H 0.96611 0.13063 0.02782 0.0
H2470 H 0.98379 0.11355 0.01731 0.0
H2471 H 0.96922 0.10614 0.03819 0.0
H2472 H 0.01626 0.06623 0.00176 0.0
H2473 H 0.98321 0.04982 0.05345 0.0
H2474 H 0.03949 0.11045 0.02366 0.0
H2475 H 0.01925 0.11268 0.00665 0.0
H2476 H 0.0382 0.0944 0.00229 0.0
H2477 H 0.00028 0.09038 0.08482 0.0
H2478 H 0.98444 0.06889 0.08308 0.0
H2479 H 0.97648 0.0925 0.07336 0.0
C2480 C 0.09571 0.75987 0.29102 0.0
C2481 C 0.09521 0.75302 0.31058 0.0
C2482 C 0.11342 0.75947 0.28017 0.0
C2483 C 0.13088 0.75241 0.28937 0.0
C2484 C 0.13051 0.74636 0.30949 0.0
C2485 C 0.11254 0.74652 0.31981 0.0
C2486 C 0.11329 0.7657 0.25868 0.0
C2487 C 0.14892 0.73909 0.31994 0.0
C2488 C 0.17235 0.72662 0.26249 0.0
C2489 C 0.1871 0.74116 0.26303 0.0
C2490 C 0.1533 0.7307 0.26953 0.0
C2491 C 0.1492 0.74961 0.2777 0.0
C2492 C 0.16364 0.76481 0.27688 0.0
C2493 C 0.18245 0.76044 0.26926 0.0
C2494 C 0.13815 0.71422 0.26984 0.0
C2495 C 0.15994 0.78502 0.2858 0.0
H2496 H 0.08213 0.76486 0.28405 0.0
H2497 H 0.11195 0.74141 0.33505 0.0
H2498 H 0.12511 0.77675 0.2558 0.0
H2499 H 0.11643 0.75262 0.2492 0.0
H2500 H 0.09884 0.77216 0.25417 0.0
H2501 H 0.1464 0.73666 0.33604 0.0
H2502 H 0.15388 0.72488 0.31328 0.0
H2503 H 0.16113 0.74995 0.31808 0.0
H2504 H 0.17608 0.71171 0.25768 0.0
H2505 H 0.19401 0.77158 0.26994 0.0
H2506 H 0.12357 0.71974 0.26466 0.0
H2507 H 0.13621 0.70878 0.28525 0.0
H2508 H 0.14268 0.70147 0.26043 0.0
H2509 H 0.14543 0.791 0.28095 0.0
H2510 H 0.1717 0.79583 0.28178 0.0
H2511 H 0.15946 0.78369 0.30219 0.0
C2512 C 0.4738 0.86045 0.55985 0.0
C2513 C 0.49195 0.85047 0.56226 0.0
C2514 C 0.47303 0.87985 0.55207 0.0
C2515 C 0.49078 0.88938 0.5463 0.0
C2516 C 0.50906 0.87919 0.54819 0.0
C2517 C 0.50943 0.86002 0.5563 0.0
C2518 C 0.45329 0.89022 0.55027 0.0
C2519 C 0.52838 0.88866 0.54196 0.0
C2520 C 0.49682 0.93201 0.51053 0.0
C2521 C 0.50372 0.94677 0.52334 0.0
C2522 C 0.49034 0.91364 0.51793 0.0
C2523 C 0.49074 0.91015 0.53863 0.0
C2524 C 0.49518 0.92603 0.55165 0.0
C2525 C 0.50186 0.94416 0.5438 0.0
C2526 C 0.48575 0.89725 0.50343 0.0
C2527 C 0.49528 0.92316 0.57383 0.0
H2528 H 0.46016 0.85313 0.56407 0.0
H2529 H 0.52357 0.85271 0.55841 0.0
H2530 H 0.45349 0.90426 0.55885 0.0
H2531 H 0.45044 0.89424 0.53458 0.0
H2532 H 0.44085 0.88089 0.55569 0.0
H2533 H 0.54113 0.87833 0.54336 0.0
H2534 H 0.52747 0.89373 0.52633 0.0
H2535 H 0.53132 0.90191 0.55124 0.0
H2536 H 0.4986 0.93399 0.49466 0.0
H2537 H 0.50749 0.95551 0.55368 0.0
H2538 H 0.47355 0.88768 0.50888 0.0
H2539 H 0.49906 0.88774 0.5016 0.0
H2540 H 0.48166 0.90327 0.48865 0.0
H2541 H 0.48242 0.91414 0.57867 0.0
H2542 H 0.49499 0.9376 0.58179 0.0
H2543 H 0.50893 0.91509 0.5782 0.0
C2544 C 0.3971 0.26256 0.8049 0.0
C2545 C 0.40345 0.24714 0.81732 0.0
C2546 C 0.37746 0.26358 0.79848 0.0
C2547 C 0.36396 0.24866 0.80446 0.0
C2548 C 0.37035 0.23276 0.81654 0.0
C2549 C 0.39003 0.23227 0.82297 0.0
C2550 C 0.3712 0.28053 0.78518 0.0
C2551 C 0.35642 0.21629 0.82258 0.0
C2552 C 0.31032 0.26348 0.79749 0.0
C2553 C 0.30704 0.25595 0.77853 0.0
C2554 C 0.32858 0.26008 0.8069 0.0
C2555 C 0.34351 0.24914 0.79686 0.0
C2556 C 0.3395 0.24032 0.77836 0.0
C2557 C 0.32123 0.24373 0.76953 0.0
C2558 C 0.33239 0.26918 0.82693 0.0
C2559 C 0.35496 0.22867 0.76704 0.0
H2560 H 0.40752 0.27387 0.80019 0.0
H2561 H 0.39479 0.22042 0.83276 0.0
H2562 H 0.36601 0.27467 0.77075 0.0
H2563 H 0.35864 0.28869 0.792 0.0
H2564 H 0.38343 0.29119 0.78236 0.0
H2565 H 0.36376 0.20498 0.83206 0.0
H2566 H 0.34359 0.22254 0.83075 0.0
H2567 H 0.3505 0.20878 0.80922 0.0
H2568 H 0.29915 0.27273 0.80443 0.0
H2569 H 0.31841 0.23767 0.75492 0.0
H2570 H 0.34313 0.28153 0.82534 0.0
H2571 H 0.33906 0.25806 0.83708 0.0
H2572 H 0.31862 0.27506 0.83379 0.0
H2573 H 0.36616 0.23905 0.76092 0.0
H2574 H 0.34842 0.22024 0.75452 0.0
H2575 H 0.36281 0.21809 0.77689 0.0
C2576 C 0.98783 0.84868 0.44539 0.0
C2577 C -0.00013 0.84501 0.4289 0.0
C2578 C 0.98784 0.86728 0.45458 0.0
C2579 C 0.00016 0.88251 0.44702 0.0
C2580 C 0.01221 0.87896 0.43024 0.0
C2581 C 0.01193 0.86018 0.42137 0.0
C2582 C 0.97502 0.8705 0.47266 0.0
C2583 C 0.02566 0.89484 0.42193 0.0
C2584 C 0.98886 0.93464 0.46501 0.0
C2585 C 0.0016 0.93587 0.48131 0.0
C2586 C 0.98855 0.91747 0.45323 0.0
C2587 C 0.00155 0.90156 0.45775 0.0
C2588 C 0.01514 0.90327 0.47354 0.0
C2589 C 0.01487 0.92033 0.48521 0.0
C2590 C 0.97391 0.91602 0.43642 0.0
C2591 C 0.02954 0.88682 0.47857 0.0
H2592 H 0.97867 0.83687 0.45132 0.0
H2593 H 0.02107 0.85738 0.40844 0.0
H2594 H 0.98447 0.87378 0.48568 0.0
H2595 H 0.96519 0.88351 0.47035 0.0
H2596 H 0.96572 0.85736 0.47617 0.0
H2597 H 0.03361 0.88984 0.40839 0.0
H2598 H 0.01696 0.90833 0.41826 0.0
H2599 H 0.03677 0.89917 0.43321 0.0
H2600 H 0.97877 0.94678 0.46189 0.0
H2601 H 0.02513 0.9215 0.49749 0.0
H2602 H 0.96294 0.90422 0.43975 0.0
H2603 H 0.98159 0.91176 0.42252 0.0
H2604 H 0.96587 0.9302 0.43392 0.0
H2605 H 0.0213 0.87377 0.4843 0.0
H2606 H 0.04048 0.89142 0.48995 0.0
H2607 H 0.03769 0.88198 0.46514 0.0
C2608 C 0.39736 0.74874 0.69736 0.0
C2609 C 0.40206 0.7608 0.68106 0.0
C2610 C 0.37843 0.74919 0.70598 0.0
C2611 C 0.36385 0.76228 0.69835 0.0
C2612 C 0.36892 0.77556 0.68291 0.0
C2613 C 0.38787 0.77453 0.6743 0.0
C2614 C 0.37373 0.73473 0.72247 0.0
C2615 C 0.35399 0.79015 0.6748 0.0
C2616 C 0.31277 0.74007 0.70315 0.0
C2617 C 0.30673 0.74742 0.72155 0.0
C2618 C 0.33074 0.746 0.69462 0.0
C2619 C 0.34281 0.75991 0.70468 0.0
C2620 C 0.33564 0.76909 0.72218 0.0
C2621 C 0.31768 0.76255 0.73056 0.0
C2622 C 0.33781 0.73557 0.67611 0.0
C2623 C 0.34779 0.78432 0.73309 0.0
H2624 H 0.40835 0.73852 0.70312 0.0
H2625 H 0.39121 0.78394 0.6617 0.0
H2626 H 0.36688 0.74256 0.73519 0.0
H2627 H 0.36287 0.72362 0.71711 0.0
H2628 H 0.3871 0.72673 0.7278 0.0
H2629 H 0.36097 0.80133 0.6649 0.0
H2630 H 0.34254 0.78207 0.66624 0.0
H2631 H 0.34633 0.79798 0.68708 0.0
H2632 H 0.30445 0.72806 0.69645 0.0
H2633 H 0.31325 0.76785 0.74507 0.0
H2634 H 0.35023 0.72545 0.67994 0.0
H2635 H 0.34345 0.74643 0.66512 0.0
H2636 H 0.32591 0.72667 0.66908 0.0
H2637 H 0.36014 0.77684 0.74094 0.0
H2638 H 0.3388 0.79247 0.74423 0.0
H2639 H 0.35439 0.79514 0.72257 0.0
C2640 C 0.49027 0.13904 0.93235 0.0
C2641 C 0.49921 0.15622 0.93973 0.0
C2642 C 0.49221 0.12095 0.94234 0.0
C2643 C 0.50311 0.12023 0.96024 0.0
C2644 C 0.51103 0.13782 0.96842 0.0
C2645 C 0.50914 0.15566 0.95791 0.0
C2646 C 0.4838 0.10241 0.93301 0.0
C2647 C 0.52243 0.1376 0.98764 0.0
C2648 C 0.49837 0.07096 0.9866 0.0
C2649 C 0.5145 0.06064 0.97845 0.0
C2650 C 0.49512 0.09099 0.98191 0.0
C2651 C 0.50829 0.10071 0.96881 0.0
C2652 C 0.52544 0.09083 0.96188 0.0
C2653 C 0.52839 0.07092 0.9669 0.0
C2654 C 0.47686 0.10125 0.98978 0.0
C2655 C 0.53984 0.10072 0.94781 0.0
H2656 H 0.48273 0.13954 0.91818 0.0
H2657 H 0.51587 0.16909 0.96362 0.0
H2658 H 0.49608 0.09252 0.92828 0.0
H2659 H 0.47474 0.09407 0.94392 0.0
H2660 H 0.47448 0.10578 0.91988 0.0
H2661 H 0.52503 0.15281 0.99339 0.0
H2662 H 0.51439 0.12887 -0.00095 0.0
H2663 H 0.53699 0.13033 0.9853 0.0
H2664 H 0.48763 0.06314 -0.00435 0.0
H2665 H 0.54107 0.06313 0.96084 0.0
H2666 H 0.4658 0.10274 0.97773 0.0
H2667 H 0.48049 0.11643 0.99499 0.0
H2668 H 0.46995 0.09283 0.00216 0.0
H2669 H 0.53253 0.10317 0.93329 0.0
H2670 H 0.55335 0.09162 0.94535 0.0
H2671 H 0.54436 0.11544 0.95354 0.0
C2672 C 0.1099 0.26386 0.17606 0.0
C2673 C 0.0929 0.25544 0.18449 0.0
C2674 C 0.12807 0.26357 0.18614 0.0
C2675 C 0.12918 0.255 0.20531 0.0
C2676 C 0.11197 0.24667 0.21399 0.0
C2677 C 0.09407 0.2468 0.20337 0.0
C2678 C 0.14614 0.27225 0.17616 0.0
C2679 C 0.11246 0.2378 0.23453 0.0
C2680 C 0.18087 0.24024 0.22211 0.0
C2681 C 0.18699 0.25752 0.23184 0.0
C2682 C 0.16174 0.23883 0.21406 0.0
C2683 C 0.14837 0.25494 0.21621 0.0
C2684 C 0.15412 0.27181 0.22732 0.0
C2685 C 0.1735 0.27304 0.23469 0.0
C2686 C 0.15643 0.22081 0.20191 0.0
C2687 C 0.14026 0.28915 0.23029 0.0
H2688 H 0.10906 0.27034 0.16136 0.0
H2689 H 0.08089 0.24038 0.20995 0.0
H2690 H 0.15219 0.28456 0.18521 0.0
H2691 H 0.15788 0.26078 0.17496 0.0
H2692 H 0.14285 0.27803 0.16109 0.0
H2693 H 0.09775 0.23218 0.23929 0.0
H2694 H 0.12324 0.22538 0.23507 0.0
H2695 H 0.1175 0.24913 0.24532 0.0
H2696 H 0.19156 0.22851 0.2194 0.0
H2697 H 0.17845 0.28655 0.24185 0.0
H2698 H 0.15493 0.22516 0.18611 0.0
H2699 H 0.14195 0.21469 0.20672 0.0
H2700 H 0.1678 0.20892 0.20302 0.0
H2701 H 0.13843 0.29726 0.21609 0.0
H2702 H 0.1459 0.29973 0.24156 0.0
H2703 H 0.1254 0.28389 0.23496 0.0
C2704 C 0.07089 0.01 0.1413 0.0
C2705 C 0.06365 0.00013 0.15811 0.0
C2706 C 0.06065 0.00931 0.12321 0.0
C2707 C 0.04252 -0.00121 0.12197 0.0
C2708 C 0.03453 0.98989 0.13925 0.0
C2709 C 0.0453 0.99046 0.15706 0.0
C2710 C 0.06996 0.01866 0.1051 0.0
C2711 C 0.0151 0.97885 0.13871 0.0
C2712 C 0.01459 0.00415 0.07298 0.0
C2713 C 0.02146 0.98741 0.06266 0.0
C2714 C 0.02051 0.00769 0.09272 0.0
C2715 C 0.03382 0.99437 0.10214 0.0
C2716 C 0.04 0.97704 0.09206 0.0
C2717 C 0.03354 0.97367 0.07268 0.0
C2718 C 0.01313 0.02603 0.10321 0.0
C2719 C 0.0544 0.96253 0.10131 0.0
H2720 H 0.08511 0.01741 0.14203 0.0
H2721 H 0.03953 0.98304 0.17011 0.0
H2722 H 0.07463 0.00684 0.09465 0.0
H2723 H 0.05907 0.02817 0.09727 0.0
H2724 H 0.08311 0.0278 0.10886 0.0
H2725 H 0.00935 0.9757 0.15382 0.0
H2726 H 0.00384 0.9875 0.1304 0.0
H2727 H 0.01714 0.96452 0.13089 0.0
H2728 H 0.00524 0.01485 0.06544 0.0
H2729 H 0.03878 0.96052 0.06505 0.0
H2730 H 0.02551 0.03666 0.10513 0.0
H2731 H 0.00758 0.02215 0.1182 0.0
H2732 H 0.00112 0.03357 0.09484 0.0
H2733 H 0.06867 0.97011 0.10431 0.0
H2734 H 0.05738 0.94952 0.09164 0.0
H2735 H 0.0486 0.95706 0.11569 0.0
C2736 C 0.24419 0.82992 0.385 0.0
C2737 C 0.25589 0.82254 0.40048 0.0
C2738 C 0.24482 0.82121 0.36616 0.0
C2739 C 0.25729 0.80462 0.36293 0.0
C2740 C 0.26973 0.79765 0.37831 0.0
C2741 C 0.26889 0.80673 0.39693 0.0
C2742 C 0.2314 0.82908 0.35007 0.0
C2743 C 0.28309 0.77988 0.37545 0.0
C2744 C 0.24083 0.76403 0.32844 0.0
C2745 C 0.25328 0.76685 0.31204 0.0
C2746 C 0.24148 0.77679 0.34467 0.0
C2747 C 0.25518 0.79263 0.3447 0.0
C2748 C 0.26747 0.79598 0.32799 0.0
C2749 C 0.26622 0.7831 0.31166 0.0
C2750 C 0.22777 0.77299 0.36201 0.0
C2751 C 0.28218 0.81282 0.3276 0.0
H2752 H 0.23439 0.8424 0.38769 0.0
H2753 H 0.27789 0.80098 0.40893 0.0
H2754 H 0.23969 0.8309 0.33598 0.0
H2755 H 0.21933 0.81829 0.3473 0.0
H2756 H 0.22464 0.84356 0.35413 0.0
H2757 H 0.29321 0.77757 0.38821 0.0
H2758 H 0.27396 0.76632 0.37361 0.0
H2759 H 0.29209 0.78166 0.3618 0.0
H2760 H 0.23038 0.75182 0.32856 0.0
H2761 H 0.27566 0.78544 0.29886 0.0
H2762 H 0.21925 0.78661 0.3656 0.0
H2763 H 0.23658 0.76901 0.3753 0.0
H2764 H 0.21713 0.76079 0.35904 0.0
H2765 H 0.27457 0.82712 0.33058 0.0
H2766 H 0.29002 0.81394 0.31316 0.0
H2767 H 0.29331 0.81066 0.33949 0.0
C2768 C 0.45689 0.0163 0.65139 0.0
C2769 C 0.44377 0.00087 0.6561 0.0
C2770 C 0.46529 0.01772 0.63246 0.0
C2771 C 0.46056 0.00322 0.61811 0.0
C2772 C 0.44871 0.98671 0.62329 0.0
C2773 C 0.44032 0.9858 0.64221 0.0
C2774 C 0.47792 0.0355 0.62743 0.0
C2775 C 0.44359 0.97082 0.60837 0.0
C2776 C 0.45526 0.01914 0.56482 0.0
C2777 C 0.47249 0.01127 0.55629 0.0
C2778 C 0.45154 0.01705 0.58507 0.0
C2779 C 0.46536 0.00678 0.59706 0.0
C2780 C 0.48298 -0.00084 0.5887 0.0
C2781 C 0.48639 0.00156 0.56836 0.0
C2782 C 0.43251 0.02532 0.59353 0.0
C2783 C 0.49796 0.98809 0.60112 0.0
H2784 H 0.45997 0.02772 0.66225 0.0
H2785 H 0.43011 0.97389 0.64567 0.0
H2786 H 0.49128 0.03094 0.619 0.0
H2787 H 0.46935 0.04581 0.61787 0.0
H2788 H 0.48265 0.0437 0.64088 0.0
H2789 H 0.43655 0.9577 0.61546 0.0
H2790 H 0.43316 0.97698 0.59725 0.0
H2791 H 0.45702 0.96584 0.60031 0.0
H2792 H 0.44449 0.02672 0.55561 0.0
H2793 H 0.49973 0.99539 0.56187 0.0
H2794 H 0.43575 0.03533 0.60615 0.0
H2795 H 0.4232 0.01302 0.59927 0.0
H2796 H 0.4238 0.03372 0.58235 0.0
H2797 H 0.50332 -0.00225 0.61327 0.0
H2798 H 0.51089 0.98301 0.59227 0.0
H2799 H 0.49093 0.97493 0.6081 0.0
C2800 C 0.27195 0.18011 0.88989 0.0
C2801 C 0.25522 0.1835 0.90186 0.0
C2802 C 0.27331 0.18815 0.87072 0.0
C2803 C 0.25744 0.19956 0.8632 0.0
C2804 C 0.24072 0.20342 0.87534 0.0
C2805 C 0.23988 0.19546 0.89453 0.0
C2806 C 0.29149 0.18405 0.85834 0.0
C2807 C 0.22342 0.21557 0.86789 0.0
C2808 C 0.25734 0.23455 0.81949 0.0
C2809 C 0.24578 0.22366 0.8062 0.0
C2810 C 0.2633 0.22614 0.83758 0.0
C2811 C 0.25743 0.20649 0.84226 0.0
C2812 C 0.2481 0.1947 0.82764 0.0
C2813 C 0.24234 0.20351 0.80973 0.0
C2814 C 0.27361 0.23913 0.85254 0.0
C2815 C 0.24181 0.17361 0.83185 0.0
H2816 H 0.28381 0.1707 0.89527 0.0
H2817 H 0.22711 0.19851 0.90378 0.0
H2818 H 0.28741 0.17504 0.84522 0.0
H2819 H 0.29782 0.19818 0.85274 0.0
H2820 H 0.30309 0.17598 0.8668 0.0
H2821 H 0.21178 0.21759 0.87936 0.0
H2822 H 0.22857 0.23042 0.86299 0.0
H2823 H 0.21668 0.20816 0.85487 0.0
H2824 H 0.25973 0.25025 0.81681 0.0
H2825 H 0.23315 0.19524 0.79948 0.0
H2826 H 0.28454 0.23051 0.86131 0.0
H2827 H 0.26248 0.24524 0.863 0.0
H2828 H 0.2813 0.25178 0.84527 0.0
H2829 H 0.25369 0.16531 0.8396 0.0
H2830 H 0.23791 0.16554 0.81805 0.0
H2831 H 0.22862 0.17376 0.84168 0.0
C2832 C 0.07734 0.97538 0.36206 0.0
C2833 C 0.07358 0.99206 0.35004 0.0
C2834 C 0.06883 0.97354 0.381 0.0
C2835 C 0.05653 0.98887 0.38829 0.0
C2836 C 0.0527 0.00576 0.37629 0.0
C2837 C 0.06114 0.00706 0.35732 0.0
C2838 C 0.07302 0.95522 0.39322 0.0
C2839 C 0.03965 0.02251 0.38349 0.0
C2840 C 0.01695 0.9853 0.42755 0.0
C2841 C 0.02537 -0.00311 0.44251 0.0
C2842 C 0.02775 0.98052 0.41043 0.0
C2843 C 0.0474 0.98755 0.40838 0.0
C2844 C 0.05678 -0.00322 0.42473 0.0
C2845 C 0.04556 0.00142 0.44165 0.0
C2846 C 0.01721 0.97033 0.39358 0.0
C2847 C 0.07782 0.00415 0.42341 0.0
H2848 H 0.08718 0.96382 0.35679 0.0
H2849 H 0.0578 0.01983 0.3481 0.0
H2850 H 0.08024 0.95944 0.40735 0.0
H2851 H 0.05893 0.94768 0.39709 0.0
H2852 H 0.08272 0.9445 0.38532 0.0
H2853 H 0.03838 0.03471 0.37247 0.0
H2854 H 0.02458 0.01683 0.38679 0.0
H2855 H 0.04569 0.02873 0.39745 0.0
H2856 H 0.00123 0.98205 0.42814 0.0
H2857 H 0.05197 0.01064 0.45313 0.0
H2858 H 0.0272 0.95987 0.38575 0.0
H2859 H 0.01225 0.98166 0.38269 0.0
H2860 H 0.00396 0.96208 0.39885 0.0
H2861 H 0.08742 0.99326 0.41569 0.0
H2862 H 0.0841 0.00713 0.43832 0.0
H2863 H 0.07813 0.01817 0.41475 0.0
C2864 C 0.24574 0.78836 0.59074 0.0
C2865 C 0.25711 0.80569 0.58912 0.0
C2866 C 0.24426 0.77817 0.60881 0.0
C2867 C 0.25423 0.78569 0.62561 0.0
C2868 C 0.26705 0.8022 0.62362 0.0
C2869 C 0.26836 0.812 0.60535 0.0
C2870 C 0.23073 0.76042 0.61027 0.0
C2871 C 0.27789 0.81074 0.64122 0.0
C2872 C 0.22784 0.78454 0.67481 0.0
C2873 C 0.23945 0.77116 0.68573 0.0
C2874 C 0.23216 0.7888 0.65503 0.0
C2875 C 0.24826 0.77911 0.6457 0.0
C2876 C 0.25926 0.76459 0.65615 0.0
C2877 C 0.25477 0.76082 0.67615 0.0
C2878 C 0.22017 0.8046 0.6445 0.0
C2879 C 0.27619 0.75364 0.64644 0.0
H2880 H 0.23734 0.78323 0.57806 0.0
H2881 H 0.27714 0.82542 0.60417 0.0
H2882 H 0.23746 0.74861 0.61956 0.0
H2883 H 0.21662 0.76492 0.61743 0.0
H2884 H 0.22724 0.75418 0.59545 0.0
H2885 H 0.28929 0.82173 0.6367 0.0
H2886 H 0.26712 0.81825 0.65114 0.0
H2887 H 0.28515 0.79881 0.64992 0.0
H2888 H 0.21583 0.79248 0.68197 0.0
H2889 H 0.26374 0.75034 0.68443 0.0
H2890 H 0.21404 0.79868 0.63048 0.0
H2891 H 0.22987 0.81733 0.64063 0.0
H2892 H 0.20771 0.81021 0.65369 0.0
H2893 H 0.27095 0.74617 0.63279 0.0
H2894 H 0.28287 0.74233 0.65642 0.0
H2895 H 0.28789 0.76428 0.64195 0.0
C2896 C 0.44455 0.01208 0.85174 0.0
C2897 C 0.42702 0.00258 0.84622 0.0
C2898 C 0.4516 0.01056 0.8712 0.0
C2899 C 0.4406 -0.00048 0.88534 0.0
C2900 C 0.42245 0.99067 0.87997 0.0
C2901 C 0.41592 0.9922 0.86038 0.0
C2902 C 0.47117 0.02003 0.87639 0.0
C2903 C 0.41029 0.97901 0.89473 0.0
C2904 C 0.47192 0.97753 0.92596 0.0
C2905 C 0.46995 0.99187 0.94079 0.0
C2906 C 0.46157 0.9793 0.90814 0.0
C2907 C 0.449 -0.00413 0.90522 0.0
C2908 C 0.4459 0.00967 0.92072 0.0
C2909 C 0.45641 0.00743 0.93848 0.0
C2910 C 0.46546 0.96443 0.89184 0.0
C2911 C 0.43259 0.02749 0.91799 0.0
H2912 H 0.45306 0.02008 0.84068 0.0
H2913 H 0.40217 0.98515 0.85606 0.0
H2914 H 0.46962 0.02941 0.88979 0.0
H2915 H 0.48219 0.00829 0.87983 0.0
H2916 H 0.47707 0.02934 0.86412 0.0
H2917 H 0.39575 0.97444 0.88857 0.0
H2918 H 0.4185 0.96547 0.89926 0.0
H2919 H 0.40771 0.98796 0.90828 0.0
H2920 H 0.48271 0.96571 0.92775 0.0
H2921 H 0.45537 0.01879 0.94981 0.0
H2922 H 0.47377 0.97173 0.87965 0.0
H2923 H 0.45133 0.95895 0.88555 0.0
H2924 H 0.47422 0.95149 0.89713 0.0
H2925 H 0.43757 0.03642 0.90509 0.0
H2926 H 0.43237 0.03723 0.93125 0.0
H2927 H 0.41727 0.0225 0.91484 0.0
C2928 C 0.24047 0.16814 0.11288 0.0
C2929 C 0.25433 0.17482 0.09887 0.0
C2930 C 0.24058 0.17543 0.13235 0.0
C2931 C 0.25479 0.18982 0.13784 0.0
C2932 C 0.26907 0.19628 0.12385 0.0
C2933 C 0.26868 0.18867 0.10455 0.0
C2934 C 0.22502 0.16834 0.1468 0.0
C2935 C 0.28418 0.21197 0.12899 0.0
C2936 C 0.24171 0.22959 0.17461 0.0
C2937 C 0.25352 0.2246 0.19098 0.0
C2938 C 0.24131 0.21784 0.15767 0.0
C2939 C 0.25296 0.20044 0.157 0.0
C2940 C 0.26396 0.1945 0.17392 0.0
C2941 C 0.26407 0.20669 0.19091 0.0
C2942 C 0.22922 0.22474 0.1401 0.0
C2943 C 0.27617 0.17575 0.17373 0.0
H2944 H 0.22953 0.1572 0.10861 0.0
H2945 H 0.27929 0.194 0.09371 0.0
H2946 H 0.232 0.16371 0.16094 0.0
H2947 H 0.21467 0.18066 0.15027 0.0
H2948 H 0.2163 0.15571 0.14086 0.0
H2949 H 0.29521 0.21421 0.11697 0.0
H2950 H 0.27657 0.22631 0.13178 0.0
H2951 H 0.29212 0.20784 0.14277 0.0
H2952 H 0.23298 0.24312 0.17487 0.0
H2953 H 0.27293 0.20267 0.20368 0.0
H2954 H 0.21958 0.21261 0.13467 0.0
H2955 H 0.23928 0.22896 0.12777 0.0
H2956 H 0.21975 0.23775 0.14369 0.0
H2957 H 0.267 0.16301 0.16887 0.0
H2958 H 0.28253 0.17232 0.18852 0.0
H2959 H 0.28847 0.17732 0.16292 0.0
C2960 C 0.13876 0.07836 0.98264 0.0
C2961 C 0.15264 0.0695 0.99533 0.0
C2962 C 0.11948 0.07085 0.98103 0.0
C2963 C 0.11401 0.05404 0.99234 0.0
C2964 C 0.12784 0.04527 0.0055 0.0
C2965 C 0.14701 0.05316 0.00688 0.0
C2966 C 0.10511 0.08062 0.96694 0.0
C2967 C 0.12256 0.02723 0.01774 0.0
C2968 C 0.06058 0.03906 0.00115 0.0
C2969 C 0.05913 0.02247 0.98877 0.0
C2970 C 0.07812 0.05021 0.00185 0.0
C2971 C 0.09428 0.04476 0.98958 0.0
C2972 C 0.09214 0.02907 0.97582 0.0
C2973 C 0.07464 0.01796 0.97575 0.0
C2974 C 0.07987 0.06673 0.01684 0.0
C2975 C 0.10883 0.0231 0.96213 0.0
H2976 H 0.14299 0.09124 0.97395 0.0
H2977 H 0.15775 0.04625 0.01663 0.0
H2978 H 0.10083 0.06997 0.95518 0.0
H2979 H 0.09139 0.08488 0.97492 0.0
H2980 H 0.11145 0.09408 0.9598 0.0
H2981 H 0.13463 0.02286 0.02803 0.0
H2982 H 0.10896 0.03016 0.02652 0.0
H2983 H 0.11937 0.01451 0.00783 0.0
H2984 H 0.04866 0.04234 0.01142 0.0
H2985 H 0.07342 0.0051 0.96617 0.0
H2986 H 0.0867 0.08009 0.01006 0.0
H2987 H 0.08965 0.06184 0.02911 0.0
H2988 H 0.06526 0.07091 0.0232 0.0
H2989 H 0.11499 0.03631 0.95448 0.0
H2990 H 0.10397 0.01222 0.95079 0.0
H2991 H 0.12096 0.01632 0.97091 0.0
C2992 C 0.63965 0.42785 -0.00038 0.0
C2993 C 0.65763 0.43804 -0.0008 0.0
C2994 C 0.62174 0.43823 0.00083 0.0
C2995 C 0.62202 0.45927 0.00126 0.0
C2996 C 0.64021 0.4696 0.00021 0.0
C2997 C 0.65793 0.45879 -0.0006 0.0
C2998 C 0.60263 0.42669 0.00243 0.0
C2999 C 0.64095 0.492 0.00047 0.0
C3000 C 0.57187 0.48224 0.99146 0.0
C3001 C 0.56473 0.48425 0.01085 0.0
C3002 C 0.59113 0.47523 0.98801 0.0
C3003 C 0.60331 0.47026 0.00434 0.0
C3004 C 0.5967 0.47392 0.02389 0.0
C3005 C 0.5775 0.48102 0.02689 0.0
C3006 C 0.5978 0.4716 0.96697 0.0
C3007 C 0.60917 0.46863 0.04172 0.0
H3008 H 0.63968 0.41174 -0.00039 0.0
H3009 H 0.67202 0.46649 -0.00091 0.0
H3010 H 0.59538 0.42987 0.01684 0.0
H3011 H 0.59223 0.43135 0.99059 0.0
H3012 H 0.60502 0.4104 0.00128 0.0
H3013 H 0.65617 0.49775 -0.00195 0.0
H3014 H 0.63108 0.49817 0.98885 0.0
H3015 H 0.63548 0.49756 0.01494 0.0
H3016 H 0.56197 0.48458 0.97904 0.0
H3017 H 0.57199 0.48271 0.0419 0.0
H3018 H 0.59798 0.4554 0.96401 0.0
H3019 H 0.61308 0.4772 0.96469 0.0
H3020 H 0.58783 0.47881 0.95602 0.0
H3021 H 0.61038 0.45223 0.04292 0.0
H3022 H 0.60272 0.47438 0.05573 0.0
H3023 H 0.62439 0.47457 0.04009 0.0
C3024 C 0.81132 0.3962 0.23519 0.0
C3025 C 0.82574 0.40309 0.24835 0.0
C3026 C 0.80438 0.37665 0.23645 0.0
C3027 C 0.8122 0.3638 0.25114 0.0
C3028 C 0.82716 0.37054 0.26406 0.0
C3029 C 0.83375 0.39015 0.26252 0.0
C3030 C 0.78819 0.36997 0.22256 0.0
C3031 C 0.83579 0.3572 0.27985 0.0
C3032 C 0.7761 0.32465 0.26744 0.0
C3033 C 0.78149 0.30873 0.25527 0.0
C3034 C 0.78666 0.3424 0.26699 0.0
C3035 C 0.80323 0.34405 0.25428 0.0
C3036 C 0.80992 0.32733 0.24341 0.0
C3037 C 0.79881 0.30972 0.24397 0.0
C3038 C 0.77891 0.35991 0.27866 0.0
C3039 C 0.82768 0.32853 0.22988 0.0
H3040 H 0.8051 0.40626 0.22428 0.0
H3041 H 0.84521 0.3954 0.27245 0.0
H3042 H 0.7927 0.35617 0.21481 0.0
H3043 H 0.77459 0.36654 0.23116 0.0
H3044 H 0.78451 0.38144 0.21129 0.0
H3045 H 0.84815 0.36439 0.28796 0.0
H3046 H 0.82412 0.35309 0.29069 0.0
H3047 H 0.84129 0.34323 0.27309 0.0
H3048 H 0.76254 0.32375 0.27605 0.0
H3049 H 0.80271 0.29748 0.23432 0.0
H3050 H 0.77279 0.37117 0.26831 0.0
H3051 H 0.79103 0.36709 0.28707 0.0
H3052 H 0.76704 0.35557 0.28923 0.0
H3053 H 0.82337 0.33611 0.21593 0.0
H3054 H 0.83342 0.31355 0.2261 0.0
H3055 H 0.83975 0.33729 0.23675 0.0
C3056 C 0.85949 0.56 0.51042 0.0
C3057 C 0.84716 0.56138 0.49379 0.0
C3058 C 0.87791 0.55046 0.50936 0.0
C3059 C 0.8844 0.54231 0.49111 0.0
C3060 C 0.87199 0.54345 0.47428 0.0
C3061 C 0.85348 0.5529 0.47584 0.0
C3062 C 0.89049 0.54922 0.52783 0.0
C3063 C 0.87833 0.53484 0.45464 0.0
C3064 C 0.93987 0.53617 0.49348 0.0
C3065 C 0.94108 0.51704 0.50142 0.0
C3066 C 0.92146 0.54403 0.48767 0.0
C3067 C 0.9041 0.53243 0.49012 0.0
C3068 C 0.90581 0.51223 0.49569 0.0
C3069 C 0.92435 0.50478 0.50124 0.0
C3070 C 0.92034 0.56548 0.48132 0.0
C3071 C 0.88781 0.49925 0.49856 0.0
H3072 H 0.85494 0.56674 0.52427 0.0
H3073 H 0.84392 0.5536 0.46298 0.0
H3074 H 0.89407 0.53349 0.53121 0.0
H3075 H 0.90469 0.55712 0.52541 0.0
H3076 H 0.88302 0.5558 0.54096 0.0
H3077 H 0.86662 0.53621 0.44318 0.0
H3078 H 0.8918 0.5426 0.4493 0.0
H3079 H 0.88221 0.51892 0.45637 0.0
H3080 H 0.95279 0.5457 0.49388 0.0
H3081 H 0.92535 0.49 0.5076 0.0
H3082 H 0.91516 0.57463 0.49397 0.0
H3083 H 0.90957 0.5674 0.46907 0.0
H3084 H 0.935 0.57119 0.47647 0.0
H3085 H 0.88093 0.50271 0.5131 0.0
H3086 H 0.89178 0.48324 0.49845 0.0
H3087 H 0.87656 0.50203 0.48693 0.0
C3088 C 0.17558 0.11212 0.23725 0.0
C3089 C 0.18713 0.09546 0.24192 0.0
C3090 C 0.18375 0.1313 0.23747 0.0
C3091 C 0.20401 0.13381 0.24219 0.0
C3092 C 0.21598 0.11685 0.24579 0.0
C3093 C 0.20733 0.0979 0.24582 0.0
C3094 C 0.17039 0.14895 0.23399 0.0
C3095 C 0.23763 0.11882 0.25098 0.0
C3096 C 0.23213 0.18299 0.23916 0.0
C3097 C 0.23103 0.18908 0.25894 0.0
C3098 C 0.22225 0.16559 0.23295 0.0
C3099 C 0.21178 0.15391 0.24708 0.0
C3100 C 0.20988 0.16076 0.26677 0.0
C3101 C 0.21906 0.17845 0.27225 0.0
C3102 C 0.22392 0.15912 0.21164 0.0
C3103 C 0.19946 0.14867 0.28257 0.0
H3104 H 0.1599 0.11022 0.23438 0.0
H3105 H 0.21628 0.08497 0.2493 0.0
H3106 H 0.16801 0.15695 0.24815 0.0
H3107 H 0.17741 0.15952 0.2235 0.0
H3108 H 0.15572 0.14449 0.22808 0.0
H3109 H 0.24538 0.10426 0.2509 0.0
H3110 H 0.24518 0.12892 0.2404 0.0
H3111 H 0.23906 0.1254 0.26597 0.0
H3112 H 0.24146 0.19111 0.2289 0.0
H3113 H 0.21813 0.18323 0.28757 0.0
H3114 H 0.20922 0.15464 0.20588 0.0
H3115 H 0.23381 0.14599 0.21063 0.0
H3116 H 0.23002 0.17107 0.20204 0.0
H3117 H 0.18416 0.14508 0.2779 0.0
H3118 H 0.19878 0.15649 0.29704 0.0
H3119 H 0.2074 0.13439 0.2848 0.0
C3120 C 0.36426 0.9182 0.50795 0.0
C3121 C 0.34935 0.92871 0.49802 0.0
C3122 C 0.38408 0.92416 0.50661 0.0
C3123 C 0.38894 0.94118 0.49533 0.0
C3124 C 0.37388 0.95194 0.48539 0.0
C3125 C 0.35424 0.94543 0.48671 0.0
C3126 C 0.39981 0.91229 0.51725 0.0
C3127 C 0.37845 0.9705 0.47364 0.0
C3128 C 0.43397 0.97164 0.50745 0.0
C3129 C 0.44565 0.96858 0.49059 0.0
C3130 C 0.41576 0.96213 0.50962 0.0
C3131 C 0.40954 0.94863 0.49489 0.0
C3132 C 0.42223 0.94403 0.47876 0.0
C3133 C 0.4401 0.95448 0.47653 0.0
C3134 C 0.40243 0.96808 0.52663 0.0
C3135 C 0.4163 0.92909 0.46324 0.0
H3136 H 0.36044 0.90508 0.51647 0.0
H3137 H 0.34264 0.95356 0.4791 0.0
H3138 H 0.41158 0.90778 0.50667 0.0
H3139 H 0.40693 0.92156 0.52878 0.0
H3140 H 0.3937 0.89877 0.52446 0.0
H3141 H 0.36497 0.97724 0.46701 0.0
H3142 H 0.38558 0.98168 0.48336 0.0
H3143 H 0.38904 0.96704 0.46156 0.0
H3144 H 0.43832 0.98284 0.51813 0.0
H3145 H 0.44916 0.95236 0.46342 0.0
H3146 H 0.39638 0.95481 0.53423 0.0
H3147 H 0.38968 0.9767 0.5208 0.0
H3148 H 0.41026 0.97738 0.53772 0.0
H3149 H 0.41046 0.91542 0.47034 0.0
H3150 H 0.42892 0.92503 0.45346 0.0
H3151 H 0.40431 0.93537 0.45391 0.0
C3152 C 0.79066 0.59411 0.24818 0.0
C3153 C 0.81004 0.59315 0.25548 0.0
C3154 C 0.78067 0.61231 0.24703 0.0
C3155 C 0.79052 0.62979 0.25304 0.0
C3156 C 0.80971 0.62871 0.2614 0.0
C3157 C 0.81921 0.61032 0.2626 0.0
C3158 C 0.76014 0.61296 0.23826 0.0
C3159 C 0.82076 0.64713 0.26779 0.0
C3160 C 0.78236 0.67859 0.22726 0.0
C3161 C 0.77252 0.68942 0.24198 0.0
C3162 C 0.78714 0.65863 0.23019 0.0
C3163 C 0.78206 0.64945 0.24836 0.0
C3164 C 0.77101 0.65994 0.26276 0.0
C3165 C 0.76623 0.67989 0.25932 0.0
C3166 C 0.79885 0.64785 0.21442 0.0
C3167 C 0.7654 0.65049 0.28225 0.0
H3168 H 0.78356 0.58072 0.24286 0.0
H3169 H 0.83429 0.60954 0.26806 0.0
H3170 H 0.75028 0.62258 0.24725 0.0
H3171 H 0.76084 0.61942 0.22315 0.0
H3172 H 0.75344 0.59793 0.23723 0.0
H3173 H 0.83478 0.64352 0.27559 0.0
H3174 H 0.82436 0.65628 0.25458 0.0
H3175 H 0.81141 0.65633 0.27771 0.0
H3176 H 0.787 0.68595 0.21372 0.0
H3177 H 0.75867 0.68834 0.27071 0.0
H3178 H 0.79201 0.63327 0.2111 0.0
H3179 H 0.81408 0.64496 0.21988 0.0
H3180 H 0.7999 0.65652 0.20043 0.0
H3181 H 0.75807 0.63599 0.27972 0.0
H3182 H 0.75536 0.6601 0.29103 0.0
H3183 H 0.77893 0.6476 0.29111 0.0
C3184 C 0.69366 0.39145 0.77739 0.0
C3185 C 0.68637 0.3988 0.7593 0.0
C3186 C 0.70206 0.37234 0.77875 0.0
C3187 C 0.70352 0.36044 0.76154 0.0
C3188 C 0.69588 0.36765 0.74334 0.0
C3189 C 0.68727 0.38658 0.74251 0.0
C3190 C 0.7098 0.3651 0.79845 0.0
C3191 C 0.69728 0.35559 0.72451 0.0
C3192 C 0.74391 0.32372 0.7504 0.0
C3193 C 0.73295 0.30621 0.74846 0.0
C3194 C 0.73495 0.34133 0.7568 0.0
C3195 C 0.71457 0.34126 0.76172 0.0
C3196 C 0.70423 0.32292 0.76258 0.0
C3197 C 0.71354 0.30551 0.75568 0.0
C3198 C 0.74663 0.3604 0.75542 0.0
C3199 C 0.68273 0.32206 0.76856 0.0
H3200 H 0.69317 0.40076 0.79046 0.0
H3201 H 0.68121 0.39182 0.72859 0.0
H3202 H 0.70442 0.34984 0.80153 0.0
H3203 H 0.7262 0.36446 0.79806 0.0
H3204 H 0.70526 0.37495 0.81084 0.0
H3205 H 0.69054 0.36332 0.71162 0.0
H3206 H 0.71303 0.35244 0.72101 0.0
H3207 H 0.68971 0.34112 0.72652 0.0
H3208 H 0.75893 0.32419 0.74468 0.0
H3209 H 0.70503 0.29197 0.75405 0.0
H3210 H 0.74344 0.37026 0.76816 0.0
H3211 H 0.7423 0.36846 0.74172 0.0
H3212 H 0.76283 0.35759 0.75481 0.0
H3213 H 0.67969 0.33229 0.78107 0.0
H3214 H 0.67829 0.30677 0.7729 0.0
H3215 H 0.67339 0.32677 0.75589 0.0
C3216 C 0.97778 0.86325 0.9222 0.0
C3217 C 0.98925 0.84857 0.93158 0.0
C3218 C 0.97676 0.8827 0.9297 0.0
C3219 C 0.98758 0.88765 0.94693 0.0
C3220 C -0.00149 0.87269 0.95693 0.0
C3221 C -0.00081 0.85337 0.94915 0.0
C3222 C 0.96487 0.89813 0.91867 0.0
C3223 C 0.01025 0.87729 0.97539 0.0
C3224 C 0.01118 0.93757 0.95549 0.0
C3225 C 0.00134 0.94384 0.97265 0.0
C3226 C 0.00573 0.92003 0.94583 0.0
C3227 C 0.98967 0.90877 0.95327 0.0
C3228 C 0.97793 0.91659 0.9689 0.0
C3229 C 0.9841 0.93401 0.97865 0.0
C3230 C 0.01885 0.91234 0.92938 0.0
C3231 C 0.96016 0.90555 0.97672 0.0
H3232 H 0.97017 0.85976 0.90852 0.0
H3233 H 0.00779 0.84205 0.95668 0.0
H3234 H 0.95575 0.90697 0.92914 0.0
H3235 H 0.97504 0.90856 0.91102 0.0
H3236 H 0.95499 0.89136 0.90741 0.0
H3237 H 0.01703 0.86379 0.98202 0.0
H3238 H 0.02224 0.88796 0.97176 0.0
H3239 H 0.0006 0.88438 0.98665 0.0
H3240 H 0.02464 0.94513 0.951 0.0
H3241 H 0.97662 0.93871 0.99207 0.0
H3242 H 0.00989 0.90643 0.91699 0.0
H3243 H 0.02808 0.89996 0.93514 0.0
H3244 H 0.02888 0.92403 0.92352 0.0
H3245 H 0.95196 0.89817 0.96456 0.0
H3246 H 0.94991 0.91567 0.98473 0.0
H3247 H 0.96514 0.89389 0.98722 0.0
C3248 C 0.89365 0.23044 0.68725 0.0
C3249 C 0.90914 0.24313 0.69266 0.0
C3250 C 0.8752 0.23174 0.69656 0.0
C3251 C 0.87225 0.24618 0.71148 0.0
C3252 C 0.88829 0.25781 0.7182 0.0
C3253 C 0.90663 0.25612 0.70868 0.0
C3254 C 0.85841 0.219 0.68907 0.0
C3255 C 0.88565 0.27317 0.73425 0.0
C3256 C 0.82152 0.26918 0.70945 0.0
C3257 C 0.81155 0.2588 0.72445 0.0
C3258 C 0.84152 0.26567 0.70562 0.0
C3259 C 0.85185 0.25153 0.71721 0.0
C3260 C 0.84222 0.24172 0.73304 0.0
C3261 C 0.82209 0.24544 0.73647 0.0
C3262 C 0.85133 0.27641 0.68854 0.0
C3263 C 0.85287 0.22663 0.74571 0.0
H3264 H 0.89547 0.22043 0.67483 0.0
H3265 H 0.91877 0.26562 0.71318 0.0
H3266 H 0.84976 0.21277 0.70159 0.0
H3267 H 0.8482 0.22827 0.68008 0.0
H3268 H 0.8638 0.20657 0.6797 0.0
H3269 H 0.90007 0.2787 0.73988 0.0
H3270 H 0.8772 0.28599 0.72826 0.0
H3271 H 0.87703 0.26699 0.74683 0.0
H3272 H 0.81357 0.27967 0.70021 0.0
H3273 H 0.81449 0.23738 0.74813 0.0
H3274 H 0.85576 0.26556 0.67699 0.0
H3275 H 0.86497 0.28399 0.69364 0.0
H3276 H 0.84143 0.28764 0.68163 0.0
H3277 H 0.85515 0.21282 0.73706 0.0
H3278 H 0.84435 0.22285 0.75929 0.0
H3279 H 0.86769 0.23217 0.75009 0.0
C3280 C 0.52032 0.1491 0.44637 0.0
C3281 C 0.50517 0.15398 0.43297 0.0
C3282 C 0.52088 0.13043 0.45576 0.0
C3283 C 0.50587 0.11635 0.45175 0.0
C3284 C 0.49073 0.1211 0.438 0.0
C3285 C 0.49062 0.13977 0.42875 0.0
C3286 C 0.53722 0.12596 0.47034 0.0
C3287 C 0.47423 0.10667 0.43349 0.0
C3288 C 0.50558 0.06116 0.46369 0.0
C3289 C 0.49253 0.061 0.47979 0.0
C3290 C 0.51179 0.07935 0.45536 0.0
C3291 C 0.5045 0.09749 0.46327 0.0
C3292 C 0.49296 0.0972 0.48077 0.0
C3293 C 0.48729 0.07895 0.48887 0.0
C3294 C 0.52462 0.07909 0.43707 0.0
C3295 C 0.48468 0.11603 0.48972 0.0
H3296 H 0.53155 0.16003 0.44983 0.0
H3297 H 0.47909 0.14323 0.41815 0.0
H3298 H 0.531 0.12485 0.48551 0.0
H3299 H 0.54418 0.11144 0.46687 0.0
H3300 H 0.54885 0.13761 0.47031 0.0
H3301 H 0.46404 0.11232 0.42186 0.0
H3302 H 0.48046 0.09228 0.4285 0.0
H3303 H 0.46548 0.10377 0.44712 0.0
H3304 H 0.50954 0.04726 0.45662 0.0
H3305 H 0.47723 0.07874 0.50142 0.0
H3306 H 0.53606 0.09088 0.43782 0.0
H3307 H 0.51533 0.08209 0.42385 0.0
H3308 H 0.53204 0.0645 0.43504 0.0
H3309 H 0.49654 0.12722 0.4917 0.0
H3310 H 0.47749 0.11334 0.50429 0.0
H3311 H 0.47351 0.12253 0.47955 0.0
C3312 C 0.61057 0.76366 0.17435 0.0
C3313 C 0.59645 0.7492 0.17917 0.0
C3314 C 0.62979 0.7626 0.182 0.0
C3315 C 0.63488 0.74672 0.19474 0.0
C3316 C 0.62073 0.73197 0.1995 0.0
C3317 C 0.60165 0.73338 0.19162 0.0
C3318 C 0.64447 0.77874 0.17691 0.0
C3319 C 0.62551 0.71515 0.21356 0.0
C3320 C 0.68796 0.73575 0.20996 0.0
C3321 C 0.68823 0.74474 0.22862 0.0
C3322 C 0.67076 0.73678 0.19821 0.0
C3323 C 0.6539 0.74707 0.20547 0.0
C3324 C 0.65466 0.757 0.22382 0.0
C3325 C 0.67183 0.75582 0.23502 0.0
C3326 C 0.67031 0.72636 0.17846 0.0
C3327 C 0.63709 0.76822 0.23212 0.0
H3328 H 0.60661 0.77574 0.16448 0.0
H3329 H 0.59065 0.72232 0.19549 0.0
H3330 H 0.64877 0.78687 0.19052 0.0
H3331 H 0.65815 0.7721 0.17065 0.0
H3332 H 0.6384 0.78961 0.1661 0.0
H3333 H 0.61328 0.70418 0.21464 0.0
H3334 H 0.63915 0.70736 0.20869 0.0
H3335 H 0.62838 0.72118 0.22858 0.0
H3336 H 0.70078 0.72745 0.20493 0.0
H3337 H 0.67228 0.76342 0.24918 0.0
H3338 H 0.66507 0.73668 0.16674 0.0
H3339 H 0.65968 0.71383 0.17911 0.0
H3340 H 0.68508 0.72049 0.17417 0.0
H3341 H 0.63194 0.77958 0.22139 0.0
H3342 H 0.64055 0.77576 0.24633 0.0
H3343 H 0.62462 0.75782 0.23473 0.0
C3344 C 0.02659 0.14194 0.56795 0.0
C3345 C 0.00844 0.14927 0.57494 0.0
C3346 C 0.02781 0.12324 0.55897 0.0
C3347 C 0.01039 0.11187 0.55655 0.0
C3348 C 0.99226 0.11867 0.56457 0.0
C3349 C 0.99156 0.13721 0.57387 0.0
C3350 C 0.04749 0.11622 0.55096 0.0
C3351 C 0.97333 0.10699 0.56218 0.0
C3352 C 0.00608 0.08164 0.50979 0.0
C3353 C 0.00795 0.06214 0.51692 0.0
C3354 C 0.00713 0.09787 0.52258 0.0
C3355 C 0.01045 0.09461 0.54301 0.0
C3356 C 0.01304 0.07507 0.55031 0.0
C3357 C 0.01164 0.059 0.53716 0.0
C3358 C 0.00405 0.11852 0.51427 0.0
C3359 C 0.01681 0.07112 0.572 0.0
H3360 H 0.03972 0.15114 0.56868 0.0
H3361 H 0.97761 0.14249 0.57983 0.0
H3362 H 0.05002 0.10041 0.55485 0.0
H3363 H 0.04747 0.11736 0.53456 0.0
H3364 H 0.06001 0.12519 0.55672 0.0
H3365 H 0.96078 0.11369 0.57047 0.0
H3366 H 0.96929 0.10633 0.54626 0.0
H3367 H 0.97542 0.0915 0.56737 0.0
H3368 H 0.00323 0.08428 0.49421 0.0
H3369 H 0.01314 0.04399 0.54279 0.0
H3370 H 0.01703 0.12799 0.51762 0.0
H3371 H 0.99094 0.12549 0.52136 0.0
H3372 H 0.00175 0.11847 0.49798 0.0
H3373 H 0.02867 0.08099 0.57763 0.0
H3374 H 0.02111 0.05543 0.57481 0.0
H3375 H 0.00322 0.07438 0.58065 0.0
C3376 C 0.60521 0.24567 0.29962 0.0
C3377 C 0.60206 0.24885 0.31987 0.0
C3378 C 0.62439 0.24651 0.29158 0.0
C3379 C 0.64075 0.25016 0.30421 0.0
C3380 C 0.63767 0.25191 0.32488 0.0
C3381 C 0.61831 0.25154 0.33244 0.0
C3382 C 0.62697 0.24498 0.26941 0.0
C3383 C 0.65471 0.25536 0.33889 0.0
C3384 C 0.69179 0.24854 0.27954 0.0
C3385 C 0.69434 0.26865 0.27494 0.0
C3386 C 0.67483 0.24218 0.29008 0.0
C3387 C 0.66008 0.25624 0.29549 0.0
C3388 C 0.66326 0.27662 0.29173 0.0
C3389 C 0.68049 0.28254 0.282 0.0
C3390 C 0.67237 0.22041 0.29459 0.0
C3391 C 0.64791 0.29221 0.29683 0.0
H3392 H 0.59258 0.24351 0.28997 0.0
H3393 H 0.61581 0.25368 0.34817 0.0
H3394 H 0.63149 0.25964 0.26337 0.0
H3395 H 0.63886 0.23423 0.26576 0.0
H3396 H 0.61312 0.24031 0.26187 0.0
H3397 H 0.65038 0.25279 0.35458 0.0
H3398 H 0.66734 0.24548 0.33516 0.0
H3399 H 0.65993 0.27091 0.33744 0.0
H3400 H 0.70248 0.23776 0.27426 0.0
H3401 H 0.68253 0.29822 0.27896 0.0
H3402 H 0.66295 0.21352 0.28305 0.0
H3403 H 0.66507 0.21811 0.30915 0.0
H3404 H 0.68689 0.21267 0.29464 0.0
H3405 H 0.63394 0.28908 0.28878 0.0
H3406 H 0.6528 0.30747 0.29291 0.0
H3407 H 0.6445 0.29184 0.3129 0.0
C3408 C 0.51448 0.84936 0.04806 0.0
C3409 C 0.49656 0.84068 0.05406 0.0
C3410 C 0.51476 0.86812 0.03907 0.0
C3411 C 0.49673 0.87845 0.03632 0.0
C3412 C 0.47853 0.86912 0.04094 0.0
C3413 C 0.47867 0.85027 0.04966 0.0
C3414 C 0.53445 0.87754 0.03412 0.0
C3415 C 0.45899 0.87972 0.03827 0.0
C3416 C 0.49639 0.93362 0.04511 0.0
C3417 C 0.49396 0.94115 0.0259 0.0
C3418 C 0.49791 0.91325 0.04853 0.0
C3419 C 0.49698 0.90003 0.0323 0.0
C3420 C 0.49527 0.90749 0.01276 0.0
C3421 C 0.49388 0.92809 0.00975 0.0
C3422 C 0.49992 0.9059 0.06962 0.0
C3423 C 0.49453 0.89372 0.99516 0.0
H3424 H 0.52838 0.84206 0.05146 0.0
H3425 H 0.46477 0.84337 0.05381 0.0
H3426 H 0.53373 0.8855 0.01974 0.0
H3427 H 0.53824 0.8886 0.04567 0.0
H3428 H 0.54655 0.86637 0.03345 0.0
H3429 H 0.44618 0.86957 0.0402 0.0
H3430 H 0.45774 0.89181 0.04936 0.0
H3431 H 0.45813 0.88663 0.02337 0.0
H3432 H 0.49692 0.94368 0.05763 0.0
H3433 H 0.49219 0.93391 0.99486 0.0
H3434 H 0.51332 0.89647 0.0711 0.0
H3435 H 0.48695 0.89661 0.07359 0.0
H3436 H 0.50098 0.91825 0.08046 0.0
H3437 H 0.5083 0.88474 0.99449 0.0
H3438 H 0.49284 0.90189 0.98095 0.0
H3439 H 0.48201 0.88319 -0.00323 0.0
C3440 C 0.89578 0.76996 0.80815 0.0
C3441 C 0.90834 0.75338 0.80661 0.0
C3442 C 0.87694 0.77008 0.79937 0.0
C3443 C 0.87028 0.75308 0.78906 0.0
C3444 C 0.88334 0.73683 0.7863 0.0
C3445 C 0.90221 0.73721 0.79502 0.0
C3446 C 0.8636 0.78781 0.8025 0.0
C3447 C 0.87685 0.71845 0.77533 0.0
C3448 C 0.81608 0.74064 0.7958 0.0
C3449 C 0.80771 0.7463 0.7776 0.0
C3450 C 0.83632 0.74275 0.79951 0.0
C3451 C 0.84878 0.75076 0.78466 0.0
C3452 C 0.84058 0.75657 0.7662 0.0
C3453 C 0.82007 0.75434 0.76289 0.0
C3454 C 0.84435 0.7364 0.81945 0.0
C3455 C 0.85339 0.76532 0.75008 0.0
H3456 H 0.90017 0.78252 0.81713 0.0
H3457 H 0.91196 0.72454 0.79324 0.0
H3458 H 0.85587 0.79182 0.78857 0.0
H3459 H 0.85211 0.78406 0.81367 0.0
H3460 H 0.87193 0.80097 0.80784 0.0
H3461 H 0.88946 0.70835 0.77208 0.0
H3462 H 0.86588 0.71023 0.78443 0.0
H3463 H 0.86953 0.72251 0.76119 0.0
H3464 H 0.80679 0.73449 0.80738 0.0
H3465 H 0.81377 0.75888 0.74883 0.0
H3466 H 0.85126 0.74926 0.82701 0.0
H3467 H 0.85601 0.72495 0.81746 0.0
H3468 H 0.83268 0.73024 0.82931 0.0
H3469 H 0.85866 0.7802 0.75471 0.0
H3470 H 0.84526 0.76693 0.73586 0.0
H3471 H 0.86667 0.75594 0.74757 0.0
C3472 C 0.9387 0.9807 0.85619 0.0
C3473 C 0.94284 0.99476 0.84137 0.0
C3474 C 0.94805 0.98158 0.87474 0.0
C3475 C 0.96179 -0.00305 0.87862 0.0
C3476 C 0.96717 0.01021 0.86322 0.0
C3477 C 0.95761 0.00898 0.8448 0.0
C3478 C 0.94189 0.96708 0.89068 0.0
C3479 C 0.98195 0.02663 0.86665 0.0
C3480 C 0.95999 0.01905 0.93006 0.0
C3481 C 0.97645 0.01039 0.93941 0.0
C3482 C 0.95519 0.01467 0.91042 0.0
C3483 C 0.96737 0.00158 0.89945 0.0
C3484 C 0.98433 0.99309 0.90851 0.0
C3485 C 0.98856 -0.00259 0.92851 0.0
C3486 C 0.93672 0.02377 0.90154 0.0
C3487 C -0.00223 0.97921 0.89722 0.0
H3488 H 0.92729 0.96968 0.85375 0.0
H3489 H 0.96126 0.01959 0.83327 0.0
H3490 H 0.95493 0.96167 0.89907 0.0
H3491 H 0.93193 0.97469 0.90134 0.0
H3492 H 0.93391 0.9541 0.88447 0.0
H3493 H 0.98684 0.03363 0.85255 0.0
H3494 H 0.97511 0.03827 0.87607 0.0
H3495 H -0.00487 0.0209 0.87462 0.0
H3496 H 0.95032 0.0289 0.93831 0.0
H3497 H 0.00122 0.99055 0.93561 0.0
H3498 H 0.92646 0.01188 0.89669 0.0
H3499 H 0.94061 0.03269 0.88827 0.0
H3500 H 0.92873 0.0335 0.91216 0.0
H3501 H 0.98988 0.9651 0.89422 0.0
H3502 H 0.01152 0.97575 0.90555 0.0
H3503 H 0.00185 0.98578 0.88269 0.0
C3504 C 0.7371 0.16677 0.60933 0.0
C3505 C 0.74849 0.17706 0.59533 0.0
C3506 C 0.73535 0.17373 0.62878 0.0
C3507 C 0.74492 0.19157 0.63414 0.0
C3508 C 0.75678 0.20183 0.62013 0.0
C3509 C 0.75855 0.19432 0.60086 0.0
C3510 C 0.72308 0.16218 0.64352 0.0
C3511 C 0.7673 0.22088 0.6254 0.0
C3512 C 0.72443 0.22385 0.67496 0.0
C3513 C 0.73856 0.2211 0.68987 0.0
C3514 C 0.7258 0.21353 0.65704 0.0
C3515 C 0.74171 0.20019 0.65405 0.0
C3516 C 0.75534 0.19643 0.66953 0.0
C3517 C 0.75345 0.20682 0.68744 0.0
C3518 C 0.71123 0.21821 0.64071 0.0
C3519 C 0.77253 0.18233 0.66682 0.0
H3520 H 0.72964 0.1532 0.60505 0.0
H3521 H 0.7674 0.20218 0.58997 0.0
H3522 H 0.73202 0.15883 0.6569 0.0
H3523 H 0.71023 0.17124 0.64835 0.0
H3524 H 0.7175 0.148 0.63727 0.0
H3525 H 0.77614 0.22686 0.61285 0.0
H3526 H 0.75633 0.23227 0.62996 0.0
H3527 H 0.77733 0.21835 0.63816 0.0
H3528 H 0.71307 0.23509 0.67681 0.0
H3529 H 0.76464 0.20508 0.6988 0.0
H3530 H 0.7049 0.20434 0.63458 0.0
H3531 H 0.71901 0.22594 0.62843 0.0
H3532 H 0.69891 0.22783 0.64591 0.0
H3533 H 0.767 0.16683 0.66743 0.0
H3534 H 0.78395 0.18428 0.67846 0.0
H3535 H 0.77974 0.18442 0.65219 0.0
C3536 C 0.54564 0.98834 0.34575 0.0
C3537 C 0.56181 0.00101 0.34272 0.0
C3538 C 0.53702 0.98642 0.36454 0.0
C3539 C 0.54491 -0.00264 0.38055 0.0
C3540 C 0.56067 0.01082 0.37738 0.0
C3541 C 0.56893 0.01249 0.35845 0.0
C3542 C 0.5201 0.97207 0.36744 0.0
C3543 C 0.56957 0.0226 0.39419 0.0
C3544 C 0.51851 0.00233 0.42976 0.0
C3545 C 0.52882 0.98836 0.44126 0.0
C3546 C 0.52306 0.00497 0.40967 0.0
C3547 C 0.53816 0.9933 0.40099 0.0
C3548 C 0.54797 0.97858 0.41228 0.0
C3549 C 0.54316 0.97628 0.43229 0.0
C3550 C 0.51238 0.02085 0.39801 0.0
C3551 C 0.5642 0.96587 0.40347 0.0
H3552 H 0.54002 0.97963 0.33349 0.0
H3553 H 0.58159 0.02211 0.35617 0.0
H3554 H 0.52504 0.95945 0.3768 0.0
H3555 H 0.50768 0.97944 0.37531 0.0
H3556 H 0.51455 0.96608 0.35316 0.0
H3557 H 0.58055 0.03368 0.3889 0.0
H3558 H 0.55782 0.03048 0.40259 0.0
H3559 H 0.57708 0.01236 0.40467 0.0
H3560 H 0.50745 0.01177 0.43661 0.0
H3561 H 0.55106 0.96533 0.44105 0.0
H3562 H 0.50665 0.01466 0.38392 0.0
H3563 H 0.52288 0.0329 0.39411 0.0
H3564 H 0.49985 0.02741 0.40645 0.0
H3565 H 0.55882 0.95832 0.38991 0.0
H3566 H 0.56964 0.95441 0.41401 0.0
H3567 H 0.57688 0.97538 0.39906 0.0
C3568 C 0.75461 0.8218 0.1155 0.0
C3569 C 0.73834 0.81956 0.10282 0.0
C3570 C 0.75502 0.81266 0.13413 0.0
C3571 C 0.73854 0.80132 0.1405 0.0
C3572 C 0.72156 0.79997 0.12834 0.0
C3573 C 0.72172 0.80896 0.10954 0.0
C3574 C 0.77354 0.81433 0.14656 0.0
C3575 C 0.70358 0.78839 0.13489 0.0
C3576 C 0.75512 0.7595 0.17346 0.0
C3577 C 0.75384 0.76826 0.1922 0.0
C3578 C 0.74868 0.76955 0.15654 0.0
C3579 C 0.74046 0.78877 0.15852 0.0
C3580 C 0.73726 0.79684 0.17768 0.0
C3581 C 0.74403 0.7864 0.19445 0.0
C3582 C 0.75292 0.76053 0.13647 0.0
C3583 C 0.72808 0.81709 0.18031 0.0
H3584 H 0.76725 0.83048 0.11072 0.0
H3585 H 0.70907 0.80712 0.09987 0.0
H3586 H 0.76982 0.81968 0.16165 0.0
H3587 H 0.7805 0.79947 0.14816 0.0
H3588 H 0.7846 0.8246 0.13994 0.0
H3589 H 0.69089 0.79039 0.12463 0.0
H3590 H 0.70722 0.77234 0.13567 0.0
H3591 H 0.69901 0.79308 0.14998 0.0
H3592 H 0.76283 0.74545 0.17183 0.0
H3593 H 0.74328 0.79317 0.20899 0.0
H3594 H 0.76503 0.76894 0.12915 0.0
H3595 H 0.73973 0.7615 0.12676 0.0
H3596 H 0.7575 0.74472 0.13759 0.0
H3597 H 0.73589 0.8283 0.17113 0.0
H3598 H 0.7285 0.82202 0.19598 0.0
H3599 H 0.71245 0.81669 0.17528 0.0
C3600 C 0.94367 0.98732 0.64167 0.0
C3601 C 0.92951 0.00085 0.64862 0.0
C3602 C 0.95126 0.98876 0.62235 0.0
C3603 C 0.94454 0.00414 0.60961 0.0
C3604 C 0.93025 0.01784 0.61652 0.0
C3605 C 0.92288 0.016 0.63591 0.0
C3606 C 0.96656 0.97384 0.61558 0.0
C3607 C 0.92269 0.03435 0.6034 0.0
C3608 C 0.9814 0.01231 0.56833 0.0
C3609 C 0.97454 -0.00134 0.55434 0.0
C3610 C 0.97071 0.0159 0.58581 0.0
C3611 C 0.95269 0.00567 0.58914 0.0
C3612 C 0.94441 0.99411 0.57372 0.0
C3613 C 0.95554 0.99067 0.55646 0.0
C3614 C 0.98002 0.02853 0.60172 0.0
C3615 C 0.92507 0.98325 0.57642 0.0
H3616 H 0.94904 0.97572 0.65145 0.0
H3617 H 0.91167 0.02633 0.64104 0.0
H3618 H 0.96107 0.96577 0.60237 0.0
H3619 H 0.98037 0.9816 0.6112 0.0
H3620 H 0.97019 0.9628 0.62728 0.0
H3621 H 0.91194 0.04411 0.61118 0.0
H3622 H 0.93523 0.04356 0.59806 0.0
H3623 H 0.9154 0.02798 0.59014 0.0
H3624 H -0.00373 0.0182 0.56683 0.0
H3625 H 0.95037 0.97986 0.54575 0.0
H3626 H 0.98673 0.01873 0.61312 0.0
H3627 H 0.96876 0.03791 0.60919 0.0
H3628 H 0.99183 0.03827 0.59563 0.0
H3629 H 0.92764 0.96971 0.58547 0.0
H3630 H 0.91868 0.97865 0.56198 0.0
H3631 H 0.9141 0.99258 0.58436 0.0
C3632 C 0.73857 0.20545 0.40011 0.0
C3633 C 0.75454 0.19321 0.40542 0.0
C3634 C 0.73779 0.21449 0.38139 0.0
C3635 C 0.75344 0.21131 0.36781 0.0
C3636 C 0.77025 0.20019 0.37363 0.0
C3637 C 0.77053 0.19115 0.3923 0.0
C3638 C 0.71964 0.22628 0.3757 0.0
C3639 C 0.78736 0.19662 0.35961 0.0
C3640 C 0.74397 0.20682 0.31299 0.0
C3641 C 0.7521 0.22452 0.30577 0.0
C3642 C 0.74325 0.20292 0.33331 0.0
C3643 C 0.75115 0.21697 0.34671 0.0
C3644 C 0.7585 0.23533 0.33958 0.0
C3645 C 0.75869 0.239 0.31909 0.0
C3646 C 0.73501 0.18327 0.34033 0.0
C3647 C 0.7671 0.25057 0.35348 0.0
H3648 H 0.72636 0.20746 0.41035 0.0
H3649 H 0.78286 0.18159 0.39616 0.0
H3650 H 0.72385 0.24026 0.36808 0.0
H3651 H 0.71059 0.2175 0.36518 0.0
H3652 H 0.71032 0.22996 0.38876 0.0
H3653 H 0.80034 0.18997 0.36725 0.0
H3654 H 0.78262 0.18637 0.34767 0.0
H3655 H 0.79203 0.21072 0.35249 0.0
H3656 H 0.73858 0.19577 0.30264 0.0
H3657 H 0.76498 0.2527 0.31344 0.0
H3658 H 0.72409 0.18562 0.3524 0.0
H3659 H 0.74716 0.174 0.34642 0.0
H3660 H 0.72772 0.17489 0.3282 0.0
H3661 H 0.75633 0.25415 0.36538 0.0
H3662 H 0.77123 0.26452 0.34569 0.0
H3663 H 0.7805 0.24442 0.36075 0.0
C3664 C 0.55079 0.01054 0.14889 0.0
C3665 C 0.57051 0.00523 0.15215 0.0
C3666 C 0.54341 0.01194 0.12955 0.0
C3667 C 0.5563 0.0084 0.11333 0.0
C3668 C 0.57633 0.00332 0.11668 0.0
C3669 C 0.58317 0.0016 0.13617 0.0
C3670 C 0.5218 0.01687 0.1265 0.0
C3671 C 0.5905 -0.00019 0.09972 0.0
C3672 C 0.53206 0.99315 0.06543 0.0
C3673 C 0.52926 0.01158 0.05629 0.0
C3674 C 0.54126 0.99182 0.0839 0.0
C3675 C 0.54859 0.0093 0.09286 0.0
C3676 C 0.54729 0.02774 0.0828 0.0
C3677 C 0.5371 0.02876 0.06474 0.0
C3678 C 0.54156 0.97204 0.0945 0.0
C3679 C 0.55557 0.04653 0.09167 0.0
H3680 H 0.54117 0.01334 0.16145 0.0
H3681 H 0.59849 -0.00234 0.13896 0.0
H3682 H 0.52033 0.03064 0.11759 0.0
H3683 H 0.5145 0.00478 0.1181 0.0
H3684 H 0.51378 0.01897 0.14073 0.0
H3685 H 0.60578 -0.0034 0.1049 0.0
H3686 H 0.58537 0.98715 0.09059 0.0
H3687 H 0.59089 0.01307 0.08994 0.0
H3688 H 0.52542 0.98 0.05897 0.0
H3689 H 0.53449 0.04301 0.0577 0.0
H3690 H 0.53202 0.97287 0.10789 0.0
H3691 H 0.55674 0.96839 0.09954 0.0
H3692 H 0.53611 0.95975 0.085 0.0
H3693 H 0.54619 0.05126 0.10432 0.0
H3694 H 0.5561 0.05885 0.08072 0.0
H3695 H 0.57073 0.04391 0.09746 0.0
C3696 C 0.74004 0.79924 0.90164 0.0
C3697 C 0.73989 0.81969 0.90514 0.0
C3698 C 0.73857 0.79186 0.88226 0.0
C3699 C 0.73719 0.80535 0.86614 0.0
C3700 C 0.7373 0.82604 0.86971 0.0
C3701 C 0.73852 0.83297 0.88925 0.0
C3702 C 0.73853 0.76968 0.87902 0.0
C3703 C 0.73607 0.84082 0.85292 0.0
C3704 C 0.75191 0.78513 0.81589 0.0
C3705 C 0.73363 0.77868 0.80861 0.0
C3706 C 0.75328 0.7943 0.83445 0.0
C3707 C 0.73581 0.79774 0.84555 0.0
C3708 C 0.71713 0.7927 0.83744 0.0
C3709 C 0.7163 0.78275 0.8192 0.0
C3710 C 0.77351 0.7988 0.84281 0.0
C3711 C 0.69815 0.79669 0.84858 0.0
H3712 H 0.74109 0.78908 0.91408 0.0
H3713 H 0.73852 0.8488 0.89215 0.0
H3714 H 0.72472 0.76517 0.87138 0.0
H3715 H 0.7511 0.76541 0.8693 0.0
H3716 H 0.73968 0.76124 0.89313 0.0
H3717 H 0.73648 0.85642 0.85822 0.0
H3718 H 0.74854 0.83851 0.84245 0.0
H3719 H 0.72217 0.8385 0.84449 0.0
H3720 H 0.76534 0.7814 0.80785 0.0
H3721 H 0.70225 0.77738 0.81364 0.0
H3722 H 0.77644 0.78888 0.85563 0.0
H3723 H 0.77415 0.81429 0.84831 0.0
H3724 H 0.78547 0.79662 0.83171 0.0
H3725 H 0.69714 0.78657 0.86154 0.0
H3726 H 0.68488 0.79439 0.83915 0.0
H3727 H 0.69794 0.81213 0.85429 0.0
C3728 C 0.85366 0.93165 0.0277 0.0
C3729 C 0.84687 0.92293 0.01011 0.0
C3730 C 0.87265 0.94 0.02887 0.0
C3731 C 0.8851 0.93985 0.01197 0.0
C3732 C 0.87872 0.93024 0.99447 0.0
C3733 C 0.85973 0.92183 0.99378 0.0
C3734 C 0.87887 0.95014 0.04779 0.0
C3735 C 0.89146 0.92993 0.97606 0.0
C3736 C 0.9169 0.98545 0.00554 0.0
C3737 C 0.93598 0.9785 0.01021 0.0
C3738 C 0.90046 0.97293 0.00591 0.0
C3739 C 0.90289 0.95284 0.01143 0.0
C3740 C 0.922 0.94558 0.01636 0.0
C3741 C 0.93843 0.9585 0.01554 0.0
C3742 C 0.88046 0.98126 0.00012 0.0
C3743 C 0.92501 0.92428 0.02259 0.0
H3744 H 0.84383 0.9327 0.04037 0.0
H3745 H 0.8548 0.9147 0.98028 0.0
H3746 H 0.89427 0.94599 0.05173 0.0
H3747 H 0.8785 0.96648 0.04564 0.0
H3748 H 0.86896 0.94634 0.0604 0.0
H3749 H 0.8853 0.92008 0.96441 0.0
H3750 H 0.89261 0.94518 0.96992 0.0
H3751 H 0.90668 0.92491 0.97966 0.0
H3752 H 0.91472 0.00076 0.00109 0.0
H3753 H 0.95307 0.95299 0.01911 0.0
H3754 H 0.86994 0.97986 0.01268 0.0
H3755 H 0.87428 0.97271 0.98754 0.0
H3756 H 0.88123 -0.00285 -0.00427 0.0
H3757 H 0.9166 0.92132 0.03642 0.0
H3758 H 0.94087 0.92072 0.02518 0.0
H3759 H 0.91917 0.91411 0.0111 0.0
C3760 C 0.35948 0.56533 0.98509 0.0
C3761 C 0.3449 0.56111 -0.00074 0.0
C3762 C 0.37787 0.55581 0.98567 0.0
C3763 C 0.38175 0.54181 0.00084 0.0
C3764 C 0.36696 0.53714 0.01493 0.0
C3765 C 0.34864 0.54688 0.01397 0.0
C3766 C 0.39338 0.56129 0.97045 0.0
C3767 C 0.37072 0.52236 0.03135 0.0
C3768 C 0.42675 0.50999 0.99068 0.0
C3769 C 0.44144 0.52149 -0.00043 0.0
C3770 C 0.40683 0.51578 0.99192 0.0
C3771 C 0.4018 0.5332 0.00256 0.0
C3772 C 0.41657 0.54386 0.0129 0.0
C3773 C 0.43631 0.53796 0.01106 0.0
C3774 C 0.39146 0.50425 0.98055 0.0
C3775 C 0.41177 0.56236 0.02459 0.0
H3776 H 0.35674 0.57656 0.97389 0.0
H3777 H 0.33728 0.54349 0.02483 0.0
H3778 H 0.40601 0.56872 0.97785 0.0
H3779 H 0.39922 0.54775 0.96315 0.0
H3780 H 0.3875 0.57144 0.95886 0.0
H3781 H 0.35719 0.51929 0.04021 0.0
H3782 H 0.37631 0.50817 0.02514 0.0
H3783 H 0.38233 0.52816 0.0414 0.0
H3784 H 0.43096 0.49738 0.98163 0.0
H3785 H 0.44788 0.54675 0.01789 0.0
H3786 H 0.38655 0.51312 0.96757 0.0
H3787 H 0.37824 0.50145 0.9899 0.0
H3788 H 0.3973 0.48982 0.97513 0.0
H3789 H 0.40795 0.57461 0.01425 0.0
H3790 H 0.42443 0.56724 0.03388 0.0
H3791 H 0.39876 0.55986 0.03432 0.0
C3792 C 0.19924 0.60222 0.74938 0.0
C3793 C 0.18085 0.59731 0.74126 0.0
C3794 C 0.20665 0.62156 0.74777 0.0
C3795 C 0.19526 0.63626 0.73794 0.0
C3796 C 0.17664 0.63138 0.7298 0.0
C3797 C 0.16966 0.61189 0.73153 0.0
C3798 C 0.22669 0.62625 0.75652 0.0
C3799 C 0.16417 0.64669 0.71924 0.0
C3800 C 0.21048 0.68862 0.75077 0.0
C3801 C 0.2246 0.69217 0.73603 0.0
C3802 C 0.19984 0.67077 0.75104 0.0
C3803 C 0.2032 0.65661 0.73589 0.0
C3804 C 0.21605 0.66112 0.71993 0.0
C3805 C 0.22686 0.6788 0.72036 0.0
C3806 C 0.1865 0.6663 0.76845 0.0
C3807 C 0.21971 0.64655 0.70334 0.0
H3808 H 0.2079 0.59086 0.7568 0.0
H3809 H 0.15528 0.6081 0.72551 0.0
H3810 H 0.23688 0.63146 0.7447 0.0
H3811 H 0.2253 0.63842 0.76749 0.0
H3812 H 0.23349 0.61317 0.76393 0.0
H3813 H 0.14985 0.64051 0.71405 0.0
H3814 H 0.1611 0.65939 0.72924 0.0
H3815 H 0.17237 0.65261 0.70626 0.0
H3816 H 0.20909 0.69891 0.76304 0.0
H3817 H 0.23796 0.68166 0.70908 0.0
H3818 H 0.19333 0.65451 0.77771 0.0
H3819 H 0.17199 0.66063 0.7633 0.0
H3820 H 0.18398 0.67956 0.77789 0.0
H3821 H 0.22892 0.63408 0.70889 0.0
H3822 H 0.22753 0.65355 0.69063 0.0
H3823 H 0.20556 0.64018 0.69797 0.0
C3824 C 0.14145 0.44634 0.49556 0.0
C3825 C 0.14736 0.43116 0.50846 0.0
C3826 C 0.12202 0.45364 0.49587 0.0
C3827 C 0.10815 0.44558 0.50948 0.0
C3828 C 0.11416 0.43069 0.52296 0.0
C3829 C 0.1337 0.4236 0.52225 0.0
C3830 C 0.11619 0.46955 0.48117 0.0
C3831 C 0.0998 0.42176 0.53763 0.0
C3832 C 0.06311 0.47863 0.51109 0.0
C3833 C 0.05244 0.47066 0.49526 0.0
C3834 C 0.08048 0.46925 0.51775 0.0
C3835 C 0.08707 0.45173 0.50815 0.0
C3836 C 0.0747 0.4423 0.49413 0.0
C3837 C 0.05746 0.45195 0.48785 0.0
C3838 C 0.09295 0.47948 0.53318 0.0
C3839 C 0.08097 0.42353 0.48362 0.0
H3840 H 0.15202 0.45243 0.48509 0.0
H3841 H 0.1381 0.41167 0.53211 0.0
H3842 H 0.10473 0.46371 0.47096 0.0
H3843 H 0.10968 0.48246 0.48903 0.0
H3844 H 0.12896 0.4748 0.47218 0.0
H3845 H 0.10732 0.41195 0.54853 0.0
H3846 H 0.0918 0.43363 0.54575 0.0
H3847 H 0.08855 0.41289 0.52962 0.0
H3848 H 0.05927 0.49324 0.51665 0.0
H3849 H 0.04916 0.44594 0.47548 0.0
H3850 H 0.10465 0.4883 0.52567 0.0
H3851 H 0.10037 0.46854 0.54298 0.0
H3852 H 0.08394 0.48973 0.54241 0.0
H3853 H 0.09215 0.42726 0.47214 0.0
H3854 H 0.06826 0.41617 0.47622 0.0
H3855 H 0.08785 0.41285 0.49406 0.0
C3856 C 0.82419 0.88568 0.77219 0.0
C3857 C 0.81667 0.89982 0.75882 0.0
C3858 C 0.81629 0.86639 0.7732 0.0
C3859 C 0.8006 0.86103 0.76044 0.0
C3860 C 0.79247 0.87545 0.74743 0.0
C3861 C 0.80057 0.89463 0.74681 0.0
C3862 C 0.82529 0.85153 0.78733 0.0
C3863 C 0.77565 0.87042 0.73359 0.0
C3864 C 0.79217 0.8101 0.73902 0.0
C3865 C 0.77393 0.80516 0.74753 0.0
C3866 C 0.80221 0.8274 0.74462 0.0
C3867 C 0.79371 0.84002 0.7591 0.0
C3868 C 0.77661 0.83367 0.76956 0.0
C3869 C 0.76682 0.81626 0.76355 0.0
C3870 C 0.82049 0.83337 0.73317 0.0
C3871 C 0.76734 0.84635 0.78548 0.0
H3872 H 0.83675 0.88945 0.78141 0.0
H3873 H 0.79442 0.90554 0.73672 0.0
H3874 H 0.81354 0.84356 0.79565 0.0
H3875 H 0.83375 0.84025 0.77885 0.0
H3876 H 0.83547 0.85867 0.79808 0.0
H3877 H 0.77037 0.88356 0.72513 0.0
H3878 H 0.78054 0.85892 0.72289 0.0
H3879 H 0.76302 0.86419 0.74208 0.0
H3880 H 0.7975 0.80159 0.72645 0.0
H3881 H 0.75254 0.81257 0.76995 0.0
H3882 H 0.83188 0.83964 0.74317 0.0
H3883 H 0.81651 0.84505 0.72225 0.0
H3884 H 0.82704 0.82063 0.72502 0.0
H3885 H 0.77883 0.85342 0.79483 0.0
H3886 H 0.75729 0.83753 0.79512 0.0
H3887 H 0.75856 0.85836 0.77844 0.0
C3888 C 0.63937 0.08483 0.49515 0.0
C3889 C 0.6547 0.07087 0.49538 0.0
C3890 C 0.61962 0.07883 0.49699 0.0
C3891 C 0.61529 0.0584 0.49907 0.0
C3892 C 0.63081 0.04418 0.4988 0.0
C3893 C 0.65046 0.05065 0.49703 0.0
C3894 C 0.60348 0.09435 0.49731 0.0
C3895 C 0.62668 0.02222 0.5007 0.0
C3896 C 0.56928 0.03887 0.52433 0.0
C3897 C 0.5579 0.03332 0.50799 0.0
C3898 C 0.58743 0.0486 0.52164 0.0
C3899 C 0.59459 0.05184 0.50215 0.0
C3900 C 0.58257 0.04719 0.48565 0.0
C3901 C 0.56409 0.03835 0.48884 0.0
C3902 C 0.59959 0.05399 0.53958 0.0
C3903 C 0.58996 0.0497 0.46466 0.0
H3904 H 0.64293 0.10049 0.49393 0.0
H3905 H 0.66252 0.04 0.49725 0.0
H3906 H 0.59223 0.09108 0.48582 0.0
H3907 H 0.59581 0.094 0.51187 0.0
H3908 H 0.60932 0.10955 0.49476 0.0
H3909 H 0.64033 0.01311 0.4992 0.0
H3910 H 0.61989 0.01904 0.51534 0.0
H3911 H 0.61595 0.01751 0.48921 0.0
H3912 H 0.56455 0.03456 0.53908 0.0
H3913 H 0.55542 0.03347 0.47623 0.0
H3914 H 0.60576 0.06918 0.53799 0.0
H3915 H 0.61225 0.04357 0.54095 0.0
H3916 H 0.59076 0.05327 0.55346 0.0
H3917 H 0.59579 0.06491 0.46232 0.0
H3918 H 0.5782 0.04681 0.45354 0.0
H3919 H 0.60235 0.0392 0.46195 0.0
C3920 C 0.20594 0.40529 0.76015 0.0
C3921 C 0.18789 0.40678 0.75009 0.0
C3922 C 0.2155 0.38693 0.76209 0.0
C3923 C 0.20652 0.36978 0.75407 0.0
C3924 C 0.18866 0.37137 0.74324 0.0
C3925 C 0.1796 0.38995 0.74127 0.0
C3926 C 0.2347 0.38573 0.77346 0.0
C3927 C 0.17846 0.35331 0.73479 0.0
C3928 C 0.23249 0.32027 0.74912 0.0
C3929 C 0.2247 0.31006 0.7655 0.0
C3930 C 0.22744 0.34015 0.74561 0.0
C3931 C 0.21444 0.34991 0.75887 0.0
C3932 C 0.20753 0.34003 0.77604 0.0
C3933 C 0.2128 0.32022 0.77917 0.0
C3934 C 0.23505 0.3503 0.72715 0.0
C3935 C 0.19356 0.34997 0.79049 0.0
H3936 H 0.21236 0.41843 0.7668 0.0
H3937 H 0.16552 0.39115 0.73366 0.0
H3938 H 0.23229 0.37758 0.78756 0.0
H3939 H 0.24593 0.37734 0.76485 0.0
H3940 H 0.24072 0.40066 0.77698 0.0
H3941 H 0.16555 0.35733 0.72541 0.0
H3942 H 0.18896 0.34442 0.72578 0.0
H3943 H 0.17319 0.34368 0.74707 0.0
H3944 H 0.24165 0.31246 0.73848 0.0
H3945 H 0.20691 0.31244 0.79196 0.0
H3946 H 0.24116 0.36513 0.73083 0.0
H3947 H 0.22265 0.35265 0.71664 0.0
H3948 H 0.24668 0.34143 0.71956 0.0
H3949 H 0.19979 0.36431 0.79556 0.0
H3950 H 0.1905 0.34057 0.80368 0.0
H3951 H 0.1793 0.35325 0.78302 0.0
C3952 C 0.32494 0.61071 0.22605 0.0
C3953 C 0.31752 0.59654 0.23942 0.0
C3954 C 0.31707 0.63004 0.22532 0.0
C3955 C 0.30148 0.6353 0.23832 0.0
C3956 C 0.29344 0.62081 0.2513 0.0
C3957 C 0.30155 0.60164 0.25167 0.0
C3958 C 0.32596 0.64502 0.21124 0.0
C3959 C 0.27668 0.62572 0.26534 0.0
C3960 C 0.29231 0.68612 0.25972 0.0
C3961 C 0.27408 0.69082 0.25111 0.0
C3962 C 0.30263 0.66894 0.25413 0.0
C3963 C 0.29435 0.65619 0.23968 0.0
C3964 C 0.27712 0.6622 0.2293 0.0
C3965 C 0.26714 0.67953 0.2352 0.0
C3966 C 0.32098 0.66318 0.26555 0.0
C3967 C 0.26798 0.64916 0.21363 0.0
H3968 H 0.33738 0.60692 0.21662 0.0
H3969 H 0.29551 0.59065 0.26176 0.0
H3970 H 0.31416 0.65308 0.2031 0.0
H3971 H 0.33445 0.65621 0.21976 0.0
H3972 H 0.3361 0.63797 0.20034 0.0
H3973 H 0.27146 0.6125 0.27372 0.0
H3974 H 0.28162 0.63711 0.27611 0.0
H3975 H 0.26398 0.63204 0.25705 0.0
H3976 H 0.29743 0.69471 0.27229 0.0
H3977 H 0.2528 0.68301 0.22885 0.0
H3978 H 0.33252 0.6572 0.25549 0.0
H3979 H 0.31719 0.65134 0.27636 0.0
H3980 H 0.32725 0.67596 0.27382 0.0
H3981 H 0.27936 0.64446 0.20273 0.0
H3982 H 0.25576 0.6568 0.20567 0.0
H3983 H 0.26194 0.63553 0.22062 0.0
C3984 C 0.4908 0.64823 0.54584 0.0
C3985 C 0.50584 0.65524 0.55834 0.0
C3986 C 0.49145 0.62896 0.53794 0.0
C3987 C 0.5078 0.61644 0.54217 0.0
C3988 C 0.52382 0.62395 0.55332 0.0
C3989 C 0.52252 0.64309 0.56154 0.0
C3990 C 0.47408 0.62163 0.52593 0.0
C3991 C 0.54189 0.61141 0.5574 0.0
C3992 C 0.49097 0.56309 0.54441 0.0
C3993 C 0.49422 0.55695 0.52491 0.0
C3994 C 0.49712 0.58189 0.55083 0.0
C3995 C 0.50662 0.59487 0.53728 0.0
C3996 C 0.51198 0.58778 0.51824 0.0
C3997 C 0.50564 0.56882 0.51224 0.0
C3998 C 0.49129 0.58865 0.57135 0.0
C3999 C 0.52248 0.60084 0.50341 0.0
H4000 H 0.47818 0.65761 0.54257 0.0
H4001 H 0.5343 0.64809 0.57116 0.0
H4002 H 0.47927 0.61544 0.51161 0.0
H4003 H 0.46648 0.60949 0.53407 0.0
H4004 H 0.46313 0.63356 0.52286 0.0
H4005 H 0.55429 0.62035 0.56346 0.0
H4006 H 0.53812 0.59964 0.56828 0.0
H4007 H 0.54699 0.60394 0.54366 0.0
H4008 H 0.48184 0.55401 0.55406 0.0
H4009 H 0.50781 0.5642 0.497 0.0
H4010 H 0.4791 0.59967 0.57022 0.0
H4011 H 0.50391 0.59603 0.5788 0.0
H4012 H 0.48619 0.57613 0.58078 0.0
H4013 H 0.5114 0.61002 0.49544 0.0
H4014 H 0.5306 0.59183 0.49226 0.0
H4015 H 0.53306 0.61103 0.51077 0.0
C4016 C 0.60117 0.26388 0.7982 0.0
C4017 C 0.595 0.24759 0.80964 0.0
C4018 C 0.62022 0.26444 0.78994 0.0
C4019 C 0.63316 0.2482 0.79301 0.0
C4020 C 0.62679 0.23146 0.80396 0.0
C4021 C 0.60787 0.23146 0.8123 0.0
C4022 C 0.62676 0.2826 0.77854 0.0
C4023 C 0.64023 0.21386 0.80757 0.0
C4024 C 0.67959 0.23929 0.76298 0.0
C4025 C 0.69403 0.24454 0.77681 0.0
C4026 C 0.65945 0.24127 0.76764 0.0
C4027 C 0.65395 0.24915 0.7863 0.0
C4028 C 0.6686 0.25578 0.79968 0.0
C4029 C 0.68853 0.25314 0.79485 0.0
C4030 C 0.64415 0.23376 0.75322 0.0
C4031 C 0.6633 0.26465 0.81955 0.0
H4032 H 0.5912 0.27629 0.79591 0.0
H4033 H 0.60343 0.21903 0.8215 0.0
H4034 H 0.63936 0.28977 0.78625 0.0
H4035 H 0.63207 0.27829 0.76359 0.0
H4036 H 0.61466 0.29367 0.77689 0.0
H4037 H 0.63236 0.20132 0.81482 0.0
H4038 H 0.64663 0.20854 0.79339 0.0
H4039 H 0.65272 0.21837 0.81722 0.0
H4040 H 0.68403 0.23271 0.749 0.0
H4041 H 0.69987 0.25755 0.80533 0.0
H4042 H 0.63238 0.24503 0.75095 0.0
H4043 H 0.63696 0.22029 0.75941 0.0
H4044 H 0.65073 0.22992 0.73863 0.0
H4045 H 0.65203 0.2765 0.81773 0.0
H4046 H 0.67639 0.271 0.8272 0.0
H4047 H 0.65677 0.25303 0.82922 0.0
C4048 C 0.97278 0.3601 0.05843 0.0
C4049 C 0.99105 0.35158 0.06372 0.0
C4050 C 0.97175 0.37918 0.04991 0.0
C4051 C 0.98942 0.38987 0.04631 0.0
C4052 C 0.00787 0.38139 0.05168 0.0
C4053 C 0.00842 0.36251 0.06046 0.0
C4054 C 0.95181 0.38777 0.04451 0.0
C4055 C 0.02715 0.39214 0.04794 0.0
C4056 C -0.00159 0.42746 0.00607 0.0
C4057 C 0.00235 0.44442 0.01733 0.0
C4058 C 0.99185 0.4099 0.01509 0.0
C4059 C 0.98917 0.40942 0.03589 0.0
C4060 C 0.99049 0.42733 0.04686 0.0
C4061 C -0.00276 0.44471 0.03742 0.0
C4062 C 0.9906 0.39131 0.00269 0.0
C4063 C 0.98712 0.42764 0.06895 0.0
H4064 H 0.95925 0.35176 0.06067 0.0
H4065 H 0.02257 0.35637 0.0649 0.0
H4066 H 0.95022 0.40293 0.05074 0.0
H4067 H 0.95058 0.38912 0.02818 0.0
H4068 H 0.93939 0.37844 0.04998 0.0
H4069 H 0.04023 0.38341 0.05284 0.0
H4070 H 0.02879 0.39537 0.03189 0.0
H4071 H 0.02718 0.40656 0.05586 0.0
H4072 H 0.00254 0.42728 0.99053 0.0
H4073 H 0.00048 0.45782 0.04614 0.0
H4074 H 0.9779 0.38195 0.00726 0.0
H4075 H 0.0043 0.38243 0.00479 0.0
H4076 H 0.98915 0.39481 0.98666 0.0
H4077 H 0.9745 0.41796 0.07315 0.0
H4078 H 0.98422 0.44293 0.0744 0.0
H4079 H 0.00052 0.42188 0.07655 0.0
C4080 C 0.89727 0.74016 0.3005 0.0
C4081 C 0.90251 0.74382 0.32014 0.0
C4082 C 0.87761 0.74254 0.29433 0.0
C4083 C 0.86315 0.74897 0.30819 0.0
C4084 C 0.8684 0.75207 0.32821 0.0
C4085 C 0.88812 0.74941 0.33397 0.0
C4086 C 0.87246 0.73884 0.27288 0.0
C4087 C 0.85341 0.759 0.34331 0.0
C4088 C 0.82165 0.77515 0.28165 0.0
C4089 C 0.80771 0.75992 0.28032 0.0
C4090 C 0.83911 0.77241 0.29248 0.0
C4091 C 0.84291 0.75367 0.30127 0.0
C4092 C 0.82816 0.73877 0.30116 0.0
C4093 C 0.81048 0.74226 0.29095 0.0
C4094 C 0.85417 0.78895 0.29307 0.0
C4095 C 0.8318 0.71841 0.30984 0.0
H4096 H 0.90862 0.73592 0.28993 0.0
H4097 H 0.89248 0.75228 0.34916 0.0
H4098 H 0.85951 0.72878 0.27183 0.0
H4099 H 0.86833 0.75305 0.26564 0.0
H4100 H 0.88499 0.73219 0.26451 0.0
H4101 H 0.8597 0.75964 0.35849 0.0
H4102 H 0.84799 0.77402 0.3392 0.0
H4103 H 0.8404 0.74897 0.34346 0.0
H4104 H 0.81941 0.78875 0.2733 0.0
H4105 H 0.79972 0.73039 0.28957 0.0
H4106 H 0.86651 0.78547 0.28277 0.0
H4107 H 0.86052 0.79042 0.30815 0.0
H4108 H 0.84763 0.80343 0.28863 0.0
H4109 H 0.84126 0.70978 0.29949 0.0
H4110 H 0.81776 0.71011 0.3121 0.0
H4111 H 0.83973 0.71933 0.32417 0.0
C4112 C 0.48977 0.34723 0.94569 0.0
C4113 C 0.50157 0.34365 0.92901 0.0
C4114 C 0.48932 0.366 0.9545 0.0
C4115 C 0.50089 0.3815 0.94633 0.0
C4116 C 0.51271 0.37803 0.92937 0.0
C4117 C 0.51295 0.35905 0.92091 0.0
C4118 C 0.47683 0.36911 0.97283 0.0
C4119 C 0.52536 0.39421 0.92042 0.0
C4120 C 0.48793 0.43314 0.96465 0.0
C4121 C 0.50098 0.43477 0.98064 0.0
C4122 C 0.48816 0.41606 0.95269 0.0
C4123 C 0.50196 0.40072 0.95678 0.0
C4124 C 0.51591 0.40298 0.97217 0.0
C4125 C 0.51515 0.41991 0.98396 0.0
C4126 C 0.47318 0.41402 0.93626 0.0
C4127 C 0.5311 0.38713 0.97682 0.0
H4128 H 0.48113 0.33523 0.95203 0.0
H4129 H 0.52189 0.3563 0.90784 0.0
H4130 H 0.48648 0.37297 0.98555 0.0
H4131 H 0.46648 0.3817 0.97054 0.0
H4132 H 0.46811 0.3557 0.97683 0.0
H4133 H 0.53314 0.38924 0.90678 0.0
H4134 H 0.51608 0.40731 0.91675 0.0
H4135 H 0.53659 0.39916 0.93132 0.0
H4136 H 0.47716 0.44478 0.96197 0.0
H4137 H 0.52566 0.42146 -0.00401 0.0
H4138 H 0.46256 0.40203 0.94002 0.0
H4139 H 0.48062 0.40973 0.92224 0.0
H4140 H 0.46475 0.42798 0.93376 0.0
H4141 H 0.52355 0.3739 0.98308 0.0
H4142 H 0.54231 0.39229 0.98768 0.0
H4143 H 0.53889 0.38235 0.96316 0.0
C4144 C 0.8847 0.24296 0.17468 0.0
C4145 C 0.90043 0.25505 0.1808 0.0
C4146 C 0.8666 0.24282 0.18495 0.0
C4147 C 0.86408 0.25506 0.20184 0.0
C4148 C 0.87961 0.26793 0.2076 0.0
C4149 C 0.89759 0.26777 0.19703 0.0
C4150 C 0.85053 0.22876 0.1783 0.0
C4151 C 0.87757 0.2812 0.22549 0.0
C4152 C 0.81099 0.25581 0.22162 0.0
C4153 C 0.81194 0.24065 0.23584 0.0
C4154 C 0.82822 0.26189 0.21136 0.0
C4155 C 0.8465 0.25205 0.21497 0.0
C4156 C 0.84762 0.23764 0.23018 0.0
C4157 C 0.83051 0.23257 0.24072 0.0
C4158 C 0.82662 0.27797 0.19588 0.0
C4159 C 0.86652 0.22628 0.23426 0.0
H4160 H 0.88664 0.2334 0.16192 0.0
H4161 H 0.90968 0.27712 0.2019 0.0
H4162 H 0.84832 0.21708 0.18972 0.0
H4163 H 0.8363 0.2368 0.17662 0.0
H4164 H 0.85418 0.22143 0.16401 0.0
H4165 H 0.88966 0.29233 0.22633 0.0
H4166 H 0.86314 0.28908 0.22523 0.0
H4167 H 0.87794 0.27206 0.23918 0.0
H4168 H 0.79676 0.2622 0.2178 0.0
H4169 H 0.83149 0.22106 0.25193 0.0
H4170 H 0.82683 0.27117 0.18092 0.0
H4171 H 0.83941 0.28825 0.19681 0.0
H4172 H 0.81271 0.28664 0.19747 0.0
H4173 H 0.87046 0.2172 0.22112 0.0
H4174 H 0.86516 0.21621 0.24724 0.0
H4175 H 0.87897 0.23664 0.23694 0.0
C4176 C 0.98916 0.64061 0.4318 0.0
C4177 C -0.00114 0.65738 0.43917 0.0
C4178 C 0.99064 0.62234 0.44155 0.0
C4179 C 0.0019 0.62101 0.45919 0.0
C4180 C 0.01054 0.63823 0.46744 0.0
C4181 C 0.00906 0.65626 0.45719 0.0
C4182 C 0.98147 0.60421 0.43214 0.0
C4183 C 0.02236 0.63735 0.48638 0.0
C4184 C -0.00234 0.57131 0.48498 0.0
C4185 C 0.01366 0.56111 0.47645 0.0
C4186 C 0.9942 0.59134 0.48046 0.0
C4187 C 0.00702 0.60121 0.4671 0.0
C4188 C 0.02392 0.59137 0.45954 0.0
C4189 C 0.0271 0.57148 0.46443 0.0
C4190 C 0.97622 0.60156 0.48901 0.0
C4191 C 0.0379 0.60136 0.44512 0.0
H4192 H 0.98139 0.64152 0.41778 0.0
H4193 H 0.01635 0.66937 0.46294 0.0
H4194 H 0.99335 0.59423 0.42665 0.0
H4195 H 0.97269 0.59576 0.44319 0.0
H4196 H 0.9717 0.60811 0.41948 0.0
H4197 H 0.02537 0.65239 0.49241 0.0
H4198 H 0.01443 0.62851 0.49778 0.0
H4199 H 0.03674 0.62991 0.48353 0.0
H4200 H 0.98731 0.56344 0.49442 0.0
H4201 H 0.03969 0.5638 0.45802 0.0
H4202 H 0.96498 0.60366 0.47722 0.0
H4203 H 0.98018 0.61649 0.49467 0.0
H4204 H 0.96939 0.59282 0.50121 0.0
H4205 H 0.03003 0.60442 0.43101 0.0
H4206 H 0.0511 0.59209 0.44179 0.0
H4207 H 0.04299 0.61581 0.45108 0.0
C4208 C 0.59172 0.74638 0.70512 0.0
C4209 C 0.59206 0.74486 0.68442 0.0
C4210 C 0.60941 0.7469 0.71606 0.0
C4211 C 0.6278 0.74648 0.70596 0.0
C4212 C 0.62815 0.74431 0.68506 0.0
C4213 C 0.61024 0.7433 0.67457 0.0
C4214 C 0.60841 0.74875 0.73832 0.0
C4215 C 0.6474 0.74422 0.67364 0.0
C4216 C 0.67205 0.77446 0.72583 0.0
C4217 C 0.68488 0.75898 0.73119 0.0
C4218 C 0.65302 0.77058 0.71862 0.0
C4219 C 0.64656 0.75068 0.71677 0.0
C4220 C 0.65887 0.73502 0.72356 0.0
C4221 C 0.67793 0.73936 0.73077 0.0
C4222 C 0.64042 0.78776 0.71159 0.0
C4223 C 0.65242 0.71363 0.72204 0.0
H4224 H 0.5776 0.74745 0.71271 0.0
H4225 H 0.61045 0.74226 0.65854 0.0
H4226 H 0.61856 0.73791 0.74542 0.0
H4227 H 0.61328 0.7638 0.7428 0.0
H4228 H 0.59319 0.74629 0.74408 0.0
H4229 H 0.64517 0.74122 0.65762 0.0
H4230 H 0.65478 0.75885 0.67519 0.0
H4231 H 0.6576 0.73284 0.67975 0.0
H4232 H 0.67733 0.78966 0.72625 0.0
H4233 H 0.68783 0.72732 0.73476 0.0
H4234 H 0.62539 0.7869 0.71815 0.0
H4235 H 0.63874 0.787 0.69526 0.0
H4236 H 0.64698 0.80237 0.71544 0.0
H4237 H 0.63743 0.71174 0.72853 0.0
H4238 H 0.66284 0.70337 0.72964 0.0
H4239 H 0.6515 0.70928 0.70622 0.0
C4240 C 0.56457 0.47652 0.64478 0.0
C4241 C 0.56214 0.49237 0.65805 0.0
C4242 C 0.5551 0.47647 0.62631 0.0
C4243 C 0.54311 0.4928 0.62076 0.0
C4244 C 0.53987 0.50845 0.63436 0.0
C4245 C 0.54933 0.50799 0.65289 0.0
C4246 C 0.55887 0.45942 0.61228 0.0
C4247 C 0.52727 0.52617 0.62893 0.0
C4248 C 0.54448 0.50162 0.5655 0.0
C4249 C 0.52657 0.49325 0.55932 0.0
C4250 C 0.54939 0.50269 0.58559 0.0
C4251 C 0.53632 0.49458 0.59987 0.0
C4252 C 0.51785 0.48668 0.59378 0.0
C4253 C 0.51305 0.48636 0.57348 0.0
C4254 C 0.569 0.51173 0.59142 0.0
C4255 C 0.5037 0.47759 0.60852 0.0
H4256 H 0.5746 0.4645 0.6484 0.0
H4257 H 0.547 0.52011 0.66318 0.0
H4258 H 0.54475 0.45405 0.60586 0.0
H4259 H 0.56833 0.46455 0.59984 0.0
H4260 H 0.56642 0.44676 0.6197 0.0
H4261 H 0.52481 0.53625 0.64172 0.0
H4262 H 0.53461 0.5347 0.61691 0.0
H4263 H 0.5127 0.52126 0.62321 0.0
H4264 H 0.55483 0.50713 0.55453 0.0
H4265 H 0.49922 0.47983 0.56863 0.0
H4266 H 0.57907 0.49992 0.59693 0.0
H4267 H 0.56692 0.52258 0.6036 0.0
H4268 H 0.57634 0.51939 0.57881 0.0
H4269 H 0.50998 0.46341 0.6141 0.0
H4270 H 0.489 0.47449 0.60185 0.0
H4271 H 0.50166 0.48749 0.62148 0.0
C4272 C 0.7389 0.32811 0.88644 0.0
C4273 C 0.75302 0.32224 0.9005 0.0
C4274 C 0.73968 0.32091 0.86699 0.0
C4275 C 0.75492 0.30755 0.8616 0.0
C4276 C 0.76921 0.30158 0.87575 0.0
C4277 C 0.76807 0.309 0.89505 0.0
C4278 C 0.72406 0.32731 0.8523 0.0
C4279 C 0.78543 0.28698 0.87063 0.0
C4280 C 0.74779 0.26925 0.82199 0.0
C4281 C 0.76045 0.2762 0.80706 0.0
C4282 C 0.74495 0.27994 0.83939 0.0
C4283 C 0.75497 0.29815 0.84183 0.0
C4284 C 0.76663 0.30603 0.82617 0.0
C4285 C 0.76927 0.29485 0.80876 0.0
C4286 C 0.73237 0.27096 0.85564 0.0
C4287 C 0.77712 0.32566 0.82829 0.0
H4288 H 0.72739 0.33854 0.8906 0.0
H4289 H 0.77883 0.30425 0.90598 0.0
H4290 H 0.73113 0.33335 0.83873 0.0
H4291 H 0.71511 0.3143 0.84776 0.0
H4292 H 0.71393 0.33873 0.85851 0.0
H4293 H 0.79591 0.28464 0.88309 0.0
H4294 H 0.77883 0.27245 0.86665 0.0
H4295 H 0.79389 0.29231 0.85756 0.0
H4296 H 0.74066 0.25492 0.82035 0.0
H4297 H 0.77882 0.30023 0.797 0.0
H4298 H 0.72186 0.28208 0.86166 0.0
H4299 H 0.74204 0.26608 0.86802 0.0
H4300 H 0.7238 0.25791 0.85041 0.0
H4301 H 0.76668 0.3372 0.83365 0.0
H4302 H 0.78379 0.33071 0.81409 0.0
H4303 H 0.78905 0.32426 0.83949 0.0
C4304 C 0.93598 0.52105 0.14135 0.0
C4305 C 0.9424 0.50812 0.15629 0.0
C4306 C 0.9448 0.52083 0.12262 0.0
C4307 C 0.96044 0.50736 0.11879 0.0
C4308 C 0.96756 0.49482 0.13403 0.0
C4309 C 0.95837 0.4953 0.15267 0.0
C4310 C 0.93672 0.53436 0.10667 0.0
C4311 C 0.98438 0.48048 0.13043 0.0
C4312 C 0.96202 0.49398 0.06475 0.0
C4313 C 0.97618 0.50734 0.05775 0.0
C4314 C 0.95788 0.49267 0.085 0.0
C4315 C 0.96793 0.50537 0.09831 0.0
C4316 C 0.98313 0.51807 0.09133 0.0
C4317 C 0.98717 0.51883 0.07096 0.0
C4318 C 0.94178 0.47873 0.09191 0.0
C4319 C 0.99408 0.53184 0.1051 0.0
H4320 H 0.92346 0.53077 0.14405 0.0
H4321 H 0.96345 0.48545 0.16433 0.0
H4322 H 0.94886 0.54308 0.09983 0.0
H4323 H 0.92987 0.52532 0.09478 0.0
H4324 H 0.92539 0.54483 0.11246 0.0
H4325 H 0.98884 0.47251 0.14414 0.0
H4326 H 0.97994 0.46937 0.11916 0.0
H4327 H -0.00258 0.48851 0.12444 0.0
H4328 H 0.95373 0.48505 0.05429 0.0
H4329 H -0.00187 0.52913 0.06527 0.0
H4330 H 0.92865 0.48747 0.09662 0.0
H4331 H 0.94684 0.46999 0.1049 0.0
H4332 H 0.93714 0.46828 0.08008 0.0
H4333 H 0.98411 0.54415 0.10961 0.0
H4334 H 0.00741 0.53836 0.09796 0.0
H4335 H -0.00136 0.52392 0.11878 0.0
C4336 C 0.77335 0.67927 0.38978 0.0
C4337 C 0.75676 0.68264 0.40196 0.0
C4338 C 0.77486 0.688 0.37095 0.0
C4339 C 0.75922 0.69997 0.3639 0.0
C4340 C 0.74255 0.70368 0.37614 0.0
C4341 C 0.74163 0.69515 0.39508 0.0
C4342 C 0.79299 0.68408 0.35844 0.0
C4343 C 0.72536 0.71618 0.36902 0.0
C4344 C 0.76074 0.73618 0.32121 0.0
C4345 C 0.74942 0.72589 0.30727 0.0
C4346 C 0.76587 0.72723 0.33928 0.0
C4347 C 0.75941 0.70763 0.34325 0.0
C4348 C 0.7501 0.69646 0.32815 0.0
C4349 C 0.74534 0.70576 0.3102 0.0
C4350 C 0.7759 0.7396 0.35494 0.0
C4351 C 0.74306 0.67549 0.3318 0.0
H4352 H 0.78501 0.66939 0.39472 0.0
H4353 H 0.72896 0.69824 0.40445 0.0
H4354 H 0.78883 0.67528 0.34522 0.0
H4355 H 0.79933 0.69829 0.35302 0.0
H4356 H 0.80461 0.67587 0.36672 0.0
H4357 H 0.71369 0.71793 0.38051 0.0
H4358 H 0.73063 0.73113 0.36458 0.0
H4359 H 0.7186 0.70923 0.35575 0.0
H4360 H 0.7635 0.7519 0.31903 0.0
H4361 H 0.73622 0.69802 0.2995 0.0
H4362 H 0.78688 0.73068 0.36331 0.0
H4363 H 0.76463 0.74499 0.36566 0.0
H4364 H 0.78345 0.75273 0.34841 0.0
H4365 H 0.75585 0.66581 0.33541 0.0
H4366 H 0.73519 0.6692 0.31883 0.0
H4367 H 0.73281 0.6751 0.34467 0.0
C4368 C 0.57632 0.50712 0.86323 0.0
C4369 C 0.571 0.49482 0.84741 0.0
C4370 C 0.56583 0.50662 0.88118 0.0
C4371 C 0.5495 0.49359 0.88332 0.0
C4372 C 0.54451 0.4806 0.86764 0.0
C4373 C 0.55536 0.48133 0.84987 0.0
C4374 C 0.5716 0.52082 0.89748 0.0
C4375 C 0.52708 0.46667 0.86924 0.0
C4376 C 0.52841 0.49129 0.93576 0.0
C4377 C 0.51403 0.50626 0.93468 0.0
C4378 C 0.53937 0.48592 0.91876 0.0
C4379 C 0.53595 0.49599 0.90057 0.0
C4380 C 0.5205 0.51008 0.89925 0.0
C4381 C 0.50959 0.51477 0.91619 0.0
C4382 C 0.55532 0.47034 0.92051 0.0
C4383 C 0.51642 0.52144 0.88032 0.0
H4384 H 0.58862 0.51732 0.86149 0.0
H4385 H 0.55115 0.47184 0.83763 0.0
H4386 H 0.55978 0.53212 0.89943 0.0
H4387 H 0.57315 0.51278 0.91175 0.0
H4388 H 0.58572 0.52862 0.89422 0.0
H4389 H 0.52681 0.45569 0.85698 0.0
H4390 H 0.52739 0.4586 0.88358 0.0
H4391 H 0.51311 0.47533 0.86878 0.0
H4392 H 0.53183 0.4846 0.94997 0.0
H4393 H 0.49821 0.52609 0.9151 0.0
H4394 H 0.57007 0.47752 0.91957 0.0
H4395 H 0.55429 0.45962 0.90809 0.0
H4396 H 0.55438 0.46209 0.93475 0.0
H4397 H 0.52922 0.53117 0.87683 0.0
H4398 H 0.50296 0.53087 0.88142 0.0
H4399 H 0.51456 0.51109 0.8677 0.0
C4400 C 0.73859 0.29049 0.09061 0.0
C4401 C 0.75427 0.30367 0.08706 0.0
C4402 C 0.73731 0.27997 0.10847 0.0
C4403 C 0.75215 0.28261 0.12299 0.0
C4404 C 0.769 0.29432 0.11867 0.0
C4405 C 0.76979 0.30485 0.10079 0.0
C4406 C 0.71904 0.26774 0.11261 0.0
C4407 C 0.78511 0.29757 0.13382 0.0
C4408 C 0.73355 0.28796 0.17514 0.0
C4409 C 0.74003 0.27034 0.18417 0.0
C4410 C 0.73742 0.29193 0.1553 0.0
C4411 C 0.74767 0.27768 0.14387 0.0
C4412 C 0.75386 0.25955 0.15259 0.0
C4413 C 0.75016 0.25614 0.17286 0.0
C4414 C 0.73098 0.31173 0.1468 0.0
C4415 C 0.76448 0.24397 0.14055 0.0
H4416 H 0.72681 0.28912 0.07981 0.0
H4417 H 0.78194 0.31504 0.09822 0.0
H4418 H 0.72297 0.25369 0.12027 0.0
H4419 H 0.70899 0.27618 0.12254 0.0
H4420 H 0.71083 0.26418 0.09881 0.0
H4421 H 0.79871 0.30388 0.12701 0.0
H4422 H 0.77974 0.30808 0.14529 0.0
H4423 H 0.78899 0.28347 0.1414 0.0
H4424 H 0.72598 0.29921 0.18378 0.0
H4425 H 0.75519 0.24252 0.17981 0.0
H4426 H 0.72112 0.30944 0.13389 0.0
H4427 H 0.7441 0.32014 0.14155 0.0
H4428 H 0.723 0.32105 0.1578 0.0
H4429 H 0.75492 0.2391 0.12813 0.0
H4430 H 0.76854 0.23077 0.14958 0.0
H4431 H 0.77813 0.2503 0.13393 0.0
C4432 C 0.93758 0.51465 0.35706 0.0
C4433 C 0.92415 0.50095 0.34923 0.0
C4434 C 0.94449 0.51262 0.37652 0.0
C4435 C 0.93771 0.49656 0.3883 0.0
C4436 C 0.92323 0.48345 0.38085 0.0
C4437 C 0.91664 0.48578 0.36134 0.0
C4438 C 0.96 0.5269 0.384 0.0
C4439 C 0.91554 0.46631 0.39306 0.0
C4440 C 0.97733 0.47838 0.42289 0.0
C4441 C 0.97259 0.48859 0.44032 0.0
C4442 C 0.96533 0.4799 0.40615 0.0
C4443 C 0.94807 0.49178 0.407 0.0
C4444 C 0.94215 0.50051 0.42516 0.0
C4445 C 0.95456 0.49879 0.44174 0.0
C4446 C 0.97214 0.47026 0.3871 0.0
C4447 C 0.92368 0.51304 0.4267 0.0
H4448 H 0.94333 0.5264 0.3477 0.0
H4449 H 0.90587 0.47547 0.35539 0.0
H4450 H 0.95585 0.53259 0.39885 0.0
H4451 H 0.97436 0.51901 0.38555 0.0
H4452 H 0.96213 0.53972 0.37384 0.0
H4453 H 0.90257 0.45904 0.38605 0.0
H4454 H 0.9274 0.45505 0.39488 0.0
H4455 H 0.91127 0.47144 0.40808 0.0
H4456 H 0.99121 0.4703 0.42192 0.0
H4457 H 0.95093 0.50674 0.45523 0.0
H4458 H 0.97669 0.48192 0.37638 0.0
H4459 H 0.9599 0.46175 0.38024 0.0
H4460 H 0.98488 0.46008 0.38944 0.0
H4461 H 0.9266 0.5279 0.42022 0.0
H4462 H 0.91904 0.51508 0.44237 0.0
H4463 H 0.91129 0.5063 0.41831 0.0
C4464 C 0.7333 0.68094 0.60956 0.0
C4465 C 0.75009 0.67314 0.60012 0.0
C4466 C 0.7346 0.68894 0.62871 0.0
C4467 C 0.75313 0.68918 0.63853 0.0
C4468 C 0.76981 0.68023 0.62955 0.0
C4469 C 0.76807 0.67228 0.61047 0.0
C4470 C 0.71645 0.69833 0.63786 0.0
C4471 C 0.78979 0.68015 0.63956 0.0
C4472 C 0.76139 0.73422 0.67058 0.0
C4473 C 0.75695 0.72699 0.68959 0.0
C4474 C 0.76066 0.72188 0.654 0.0
C4475 C 0.75576 0.70163 0.65646 0.0
C4476 C 0.75265 0.69383 0.67574 0.0
C4477 C 0.75322 0.70667 0.69216 0.0
C4478 C 0.76408 0.73085 0.63371 0.0
C4479 C 0.74774 0.67221 0.67893 0.0
H4480 H 0.71936 0.68161 0.60166 0.0
H4481 H 0.78097 0.66575 0.60346 0.0
H4482 H 0.71466 0.69341 0.65345 0.0
H4483 H 0.71821 0.71471 0.63798 0.0
H4484 H 0.70275 0.69466 0.62956 0.0
H4485 H 0.80058 0.67041 0.6318 0.0
H4486 H 0.79583 0.69546 0.63979 0.0
H4487 H 0.78838 0.67513 0.65516 0.0
H4488 H 0.7646 0.74986 0.66848 0.0
H4489 H 0.74977 0.70099 0.7068 0.0
H4490 H 0.75033 0.72979 0.62481 0.0
H4491 H 0.77579 0.72253 0.6257 0.0
H4492 H 0.76851 0.74671 0.63447 0.0
H4493 H 0.73246 0.66928 0.67369 0.0
H4494 H 0.74868 0.66791 0.6948 0.0
H4495 H 0.75786 0.66259 0.67022 0.0
C4496 C 0.64804 0.55122 0.49158 0.0
C4497 C 0.65291 0.5688 0.50149 0.0
C4498 C 0.62839 0.54464 0.49072 0.0
C4499 C 0.61326 0.55609 0.49976 0.0
C4500 C 0.61814 0.57364 0.51012 0.0
C4501 C 0.63796 0.57975 0.51093 0.0
C4502 C 0.62381 0.52548 0.48005 0.0
C4503 C 0.6024 0.58612 0.52 0.0
C4504 C 0.56234 0.54443 0.4792 0.0
C4505 C 0.55545 0.53105 0.49345 0.0
C4506 C 0.58065 0.554 0.48182 0.0
C4507 C 0.5924 0.54934 0.49863 0.0
C4508 C 0.58489 0.53656 0.51346 0.0
C4509 C 0.56635 0.52784 0.51078 0.0
C4510 C 0.58803 0.56804 0.46602 0.0
C4511 C 0.59712 0.5306 0.53124 0.0
H4512 H 0.65963 0.54263 0.48449 0.0
H4513 H 0.64169 0.59346 0.51844 0.0
H4514 H 0.61576 0.51519 0.49007 0.0
H4515 H 0.61402 0.52852 0.46722 0.0
H4516 H 0.63739 0.51791 0.47461 0.0
H4517 H 0.60868 0.59937 0.52749 0.0
H4518 H 0.59144 0.59114 0.50882 0.0
H4519 H 0.59425 0.57716 0.53114 0.0
H4520 H 0.55396 0.54662 0.46569 0.0
H4521 H 0.56106 0.51709 0.5215 0.0
H4522 H 0.60023 0.56089 0.45762 0.0
H4523 H 0.59406 0.58173 0.47285 0.0
H4524 H 0.57615 0.57222 0.45544 0.0
H4525 H 0.60985 0.5214 0.5263 0.0
H4526 H 0.58843 0.52189 0.54219 0.0
H4527 H 0.60325 0.54387 0.53873 0.0
C4528 C 0.13966 0.92938 0.50904 0.0
C4529 C 0.15709 0.93834 0.50236 0.0
C4530 C 0.12179 0.93992 0.50915 0.0
C4531 C 0.12159 0.96002 0.50289 0.0
C4532 C 0.13921 0.9691 0.49609 0.0
C4533 C 0.1568 0.95802 0.49568 0.0
C4534 C 0.10318 0.92957 0.51609 0.0
C4535 C 0.13955 0.99059 0.48972 0.0
C4536 C 0.07056 0.97983 0.49115 0.0
C4537 C 0.06467 0.98669 0.50983 0.0
C4538 C 0.08957 0.97201 0.48826 0.0
C4539 C 0.103 0.9716 0.50434 0.0
C4540 C 0.09769 0.98031 0.52267 0.0
C4541 C 0.07843 0.98755 0.52527 0.0
C4542 C 0.09452 0.96246 0.46863 0.0
C4543 C 0.11177 0.98052 0.54003 0.0
H4544 H 0.14001 0.91405 0.51397 0.0
H4545 H 0.17042 0.96483 0.49055 0.0
H4546 H 0.09746 0.93685 0.52968 0.0
H4547 H 0.09149 0.93078 0.50461 0.0
H4548 H 0.10573 0.9136 0.51939 0.0
H4549 H 0.1544 0.99529 0.4844 0.0
H4550 H 0.12863 0.99315 0.47772 0.0
H4551 H 0.13518 0.00019 0.50235 0.0
H4552 H 0.05976 0.97884 0.47932 0.0
H4553 H 0.07377 0.99281 0.53973 0.0
H4554 H 0.09468 0.94608 0.47044 0.0
H4555 H 0.10945 0.96699 0.46351 0.0
H4556 H 0.08356 0.96633 0.45697 0.0
H4557 H 0.1133 0.96526 0.54607 0.0
H4558 H 0.10647 0.99037 0.55213 0.0
H4559 H 0.12669 0.9855 0.53528 0.0
C4560 C 0.3084 0.89764 0.73683 0.0
C4561 C 0.32475 0.90321 0.74823 0.0
C4562 C 0.3007 0.87841 0.73821 0.0
C4563 C 0.30973 0.86454 0.75117 0.0
C4564 C 0.32676 0.86987 0.76204 0.0
C4565 C 0.33404 0.88923 0.7605 0.0
C4566 C 0.28243 0.87319 0.72642 0.0
C4567 C 0.33683 0.85535 0.77581 0.0
C4568 C 0.27376 0.82637 0.77014 0.0
C4569 C 0.27722 0.81067 0.75706 0.0
C4570 C 0.2852 0.8436 0.76921 0.0
C4571 C 0.3002 0.84513 0.75462 0.0
C4572 C 0.30456 0.8288 0.74218 0.0
C4573 C 0.29305 0.81156 0.7437 0.0
C4574 C 0.28012 0.86076 0.7827 0.0
C4575 C 0.32034 0.83008 0.72636 0.0
H4576 H 0.30126 0.90852 0.72737 0.0
H4577 H 0.34694 0.89353 0.769 0.0
H4578 H 0.28489 0.85933 0.71791 0.0
H4579 H 0.26985 0.87048 0.73667 0.0
H4580 H 0.27815 0.88518 0.71592 0.0
H4581 H 0.35082 0.86138 0.782 0.0
H4582 H 0.32677 0.85164 0.78828 0.0
H4583 H 0.34017 0.84131 0.7679 0.0
H4584 H 0.26134 0.82558 0.78033 0.0
H4585 H 0.29531 0.79953 0.7333 0.0
H4586 H 0.27343 0.87295 0.77386 0.0
H4587 H 0.29367 0.86673 0.78977 0.0
H4588 H 0.26947 0.85643 0.7945 0.0
H4589 H 0.31731 0.84277 0.7163 0.0
H4590 H 0.32124 0.81634 0.71731 0.0
H4591 H 0.33496 0.83278 0.73331 0.0
C4592 C 0.34923 0.04319 -0.00367 0.0
C4593 C 0.347 0.06243 0.98871 0.0
C4594 C 0.36787 0.034 -0.00304 0.0
C4595 C 0.38468 0.0443 0.98971 0.0
C4596 C 0.3823 0.06321 0.98084 0.0
C4597 C 0.36349 0.07209 0.98049 0.0
C4598 C 0.36971 0.01392 0.00679 0.0
C4599 C 0.39985 0.0746 0.97288 0.0
C4600 C 0.43168 0.03451 0.01827 0.0
C4601 C 0.44074 0.01958 0.00701 0.0
C4602 C 0.41367 0.04291 0.01254 0.0
C4603 C 0.40485 0.03686 0.99455 0.0
C4604 C 0.41468 0.02287 0.98227 0.0
C4605 C 0.43248 0.01407 0.98883 0.0
C4606 C 0.40339 0.05708 0.02656 0.0
C4607 C 0.40581 0.0165 0.96281 0.0
H4608 H 0.33646 0.03553 0.00237 0.0
H4609 H 0.36189 0.08702 0.97468 0.0
H4610 H 0.37906 0.00382 -0.0022 0.0
H4611 H 0.37701 0.01567 0.0214 0.0
H4612 H 0.35507 0.0068 0.00916 0.0
H4613 H 0.39525 0.08777 0.96407 0.0
H4614 H 0.40915 0.07978 0.98538 0.0
H4615 H 0.40921 0.06486 0.96349 0.0
H4616 H 0.438 0.03856 0.03247 0.0
H4617 H 0.43927 0.00221 0.98038 0.0
H4618 H 0.38919 0.0505 0.03164 0.0
H4619 H 0.39983 0.07121 0.0189 0.0
H4620 H 0.41249 0.06049 0.03982 0.0
H4621 H 0.3913 0.00924 0.96536 0.0
H4622 H 0.41552 0.00598 0.95468 0.0
H4623 H 0.40301 0.02972 0.95338 0.0
C4624 C 0.7034 0.59944 0.72967 0.0
C4625 C 0.6849 0.5966 0.73865 0.0
C4626 C 0.71275 0.61811 0.73021 0.0
C4627 C 0.70322 0.63426 0.73976 0.0
C4628 C 0.68383 0.63171 0.74741 0.0
C4629 C 0.67501 0.61286 0.74695 0.0
C4630 C 0.73345 0.62013 0.722 0.0
C4631 C 0.67302 0.64848 0.75759 0.0
C4632 C 0.73357 0.66868 0.77155 0.0
C4633 C 0.7325 0.68684 0.7613 0.0
C4634 C 0.72476 0.65147 0.76424 0.0
C4635 C 0.71483 0.65208 0.74584 0.0
C4636 C 0.71474 0.66999 0.73465 0.0
C4637 C 0.72348 0.6873 0.74261 0.0
C4638 C 0.72518 0.63288 0.77689 0.0
C4639 C 0.70475 0.67106 0.71473 0.0
H4640 H 0.711 0.58683 0.72319 0.0
H4641 H 0.66058 0.61066 0.75367 0.0
H4642 H 0.73503 0.63423 0.71363 0.0
H4643 H 0.7442 0.62051 0.73441 0.0
H4644 H 0.73742 0.60753 0.71215 0.0
H4645 H 0.65714 0.64498 0.76007 0.0
H4646 H 0.67999 0.65137 0.77218 0.0
H4647 H 0.67408 0.66232 0.74873 0.0
H4648 H 0.74082 0.66793 0.78585 0.0
H4649 H 0.72267 0.70122 0.73456 0.0
H4650 H 0.73108 0.62018 0.76827 0.0
H4651 H 0.70991 0.62901 0.78158 0.0
H4652 H 0.73438 0.63467 0.7904 0.0
H4653 H 0.70869 0.65795 0.7056 0.0
H4654 H 0.70884 0.68477 0.7065 0.0
H4655 H 0.68845 0.67093 0.71681 0.0
C4656 C 0.86426 0.4167 0.9945 0.0
C4657 C 0.84885 0.43038 -0.00315 0.0
C4658 C 0.8838 0.42315 0.99199 0.0
C4659 C 0.88789 0.44374 0.99226 0.0
C4660 C 0.8723 0.45761 0.99498 0.0
C4661 C 0.85283 0.45072 -0.00299 0.0
C4662 C 0.89999 0.40802 0.98875 0.0
C4663 C 0.87616 0.47968 -0.00426 0.0
C4664 C 0.93886 0.4632 0.0043 0.0
C4665 C 0.9444 0.47131 0.98602 0.0
C4666 C 0.92075 0.45337 0.00646 0.0
C4667 C 0.90844 0.45092 0.98969 0.0
C4668 C 0.91503 0.45729 0.97078 0.0
C4669 C 0.9328 0.46793 0.96925 0.0
C4670 C 0.91395 0.44751 0.027 0.0
C4671 C 0.90264 0.4542 0.95245 0.0
H4672 H 0.8609 0.40095 0.99424 0.0
H4673 H 0.84072 0.46116 -0.00122 0.0
H4674 H 0.90777 0.41115 0.97459 0.0
H4675 H 0.91113 0.40904 0.00076 0.0
H4676 H 0.89419 0.3926 0.98833 0.0
H4677 H 0.86254 0.48834 -0.00098 0.0
H4678 H 0.88739 0.48301 0.00725 0.0
H4679 H 0.88223 0.48483 0.98134 0.0
H4680 H 0.94773 0.46633 0.01732 0.0
H4681 H 0.93709 0.47451 0.95521 0.0
H4682 H 0.90811 0.43214 0.0271 0.0
H4683 H 0.90172 0.45748 0.03169 0.0
H4684 H 0.92606 0.4486 0.03808 0.0
H4685 H 0.89686 0.43879 0.95197 0.0
H4686 H 0.91119 0.45713 0.93868 0.0
H4687 H 0.88971 0.46437 0.95277 0.0
C4688 C 0.32461 0.1125 0.74181 0.0
C4689 C 0.31331 0.09539 0.74461 0.0
C4690 C 0.31568 0.1312 0.74199 0.0
C4691 C 0.29494 0.1326 0.74478 0.0
C4692 C 0.28346 0.11526 0.74761 0.0
C4693 C 0.29288 0.09671 0.74762 0.0
C4694 C 0.32842 0.14942 0.73913 0.0
C4695 C 0.26129 0.11632 0.7503 0.0
C4696 C 0.27804 0.18355 0.76059 0.0
C4697 C 0.27447 0.19227 0.74215 0.0
C4698 C 0.28377 0.16362 0.76185 0.0
C4699 C 0.28546 0.15234 0.74424 0.0
C4700 C 0.28045 0.16087 0.72572 0.0
C4701 C 0.27532 0.18096 0.72487 0.0
C4702 C 0.28938 0.15512 0.78179 0.0
C4703 C 0.28169 0.14914 0.70671 0.0
H4704 H 0.34047 0.11119 0.7396 0.0
H4705 H 0.28435 0.08325 0.74979 0.0
H4706 H 0.32386 0.15743 0.7255 0.0
H4707 H 0.32639 0.15975 0.75176 0.0
H4708 H 0.3444 0.1457 0.73787 0.0
H4709 H 0.25463 0.10146 0.75289 0.0
H4710 H 0.25754 0.12608 0.76299 0.0
H4711 H 0.25442 0.12296 0.73691 0.0
H4712 H 0.27744 0.19261 0.77385 0.0
H4713 H 0.27248 0.18799 0.71068 0.0
H4714 H 0.30563 0.15276 0.78231 0.0
H4715 H 0.28226 0.14047 0.78412 0.0
H4716 H 0.28512 0.16511 0.79418 0.0
H4717 H 0.29746 0.1466 0.70281 0.0
H4718 H 0.27447 0.15701 0.69416 0.0
H4719 H 0.27464 0.13439 0.70854 0.0
C4720 C 0.20341 0.89337 0.24403 0.0
C4721 C 0.19061 0.90046 0.25882 0.0
C4722 C 0.21166 0.87427 0.24517 0.0
C4723 C 0.20733 0.86197 0.26169 0.0
C4724 C 0.19525 0.86932 0.27714 0.0
C4725 C 0.18685 0.88836 0.27543 0.0
C4726 C 0.2246 0.86706 0.22836 0.0
C4727 C 0.19079 0.85689 0.29523 0.0
C4728 C 0.21276 0.80822 0.24707 0.0
C4729 C 0.2328 0.8051 0.25119 0.0
C4730 C 0.20349 0.82611 0.25234 0.0
C4731 C 0.21464 0.84109 0.26194 0.0
C4732 C 0.2341 0.83679 0.2685 0.0
C4733 C 0.24301 0.8188 0.26291 0.0
C4734 C 0.18262 0.82989 0.24531 0.0
C4735 C 0.24642 0.85202 0.27923 0.0
H4736 H 0.20689 0.9027 0.23141 0.0
H4737 H 0.17685 0.89349 0.2869 0.0
H4738 H 0.23928 0.86242 0.23411 0.0
H4739 H 0.21774 0.85388 0.22132 0.0
H4740 H 0.22689 0.87861 0.21681 0.0
H4741 H 0.18269 0.86541 0.30676 0.0
H4742 H 0.1817 0.84388 0.29097 0.0
H4743 H 0.20473 0.85108 0.30174 0.0
H4744 H 0.205 0.79771 0.23772 0.0
H4745 H 0.25863 0.81644 0.26583 0.0
H4746 H 0.18306 0.83964 0.23203 0.0
H4747 H 0.17382 0.83762 0.25684 0.0
H4748 H 0.17495 0.81589 0.24128 0.0
H4749 H 0.25309 0.86233 0.26825 0.0
H4750 H 0.25863 0.84491 0.28769 0.0
H4751 H 0.23725 0.86095 0.28956 0.0
C4752 C 0.51117 0.36312 0.43087 0.0
C4753 C 0.49492 0.35015 0.43149 0.0
C4754 C 0.51054 0.3817 0.44025 0.0
C4755 C 0.49312 0.38772 0.45034 0.0
C4756 C 0.47642 0.37504 0.4505 0.0
C4757 C 0.47756 0.35637 0.4412 0.0
C4758 C 0.52876 0.39468 0.43978 0.0
C4759 C 0.45751 0.38105 0.46082 0.0
C4760 C 0.50578 0.42359 0.49126 0.0
C4761 C 0.50422 0.44188 0.48148 0.0
C4762 C 0.50048 0.40585 0.48187 0.0
C4763 C 0.49333 0.40644 0.46217 0.0
C4764 C 0.48957 0.42511 0.45308 0.0
C4765 C 0.4952 0.4427 0.46285 0.0
C4766 C 0.50481 0.38643 0.49223 0.0
C4767 C 0.48155 0.42652 0.43229 0.0
H4768 H 0.52448 0.35876 0.42301 0.0
H4769 H 0.46494 0.34648 0.44192 0.0
H4770 H 0.52508 0.40941 0.43339 0.0
H4771 H 0.53417 0.39717 0.4551 0.0
H4772 H 0.54097 0.38803 0.43095 0.0
H4773 H 0.44544 0.3701 0.45854 0.0
H4774 H 0.46017 0.38256 0.47696 0.0
H4775 H 0.45251 0.39576 0.45531 0.0
H4776 H 0.51293 0.42299 0.50563 0.0
H4777 H 0.49426 0.4568 0.45517 0.0
H4778 H 0.51812 0.3795 0.48546 0.0
H4779 H 0.49234 0.3759 0.49045 0.0
H4780 H 0.50766 0.3885 0.5083 0.0
H4781 H 0.49393 0.4249 0.42158 0.0
H4782 H 0.47438 0.44114 0.4296 0.0
H4783 H 0.47068 0.41456 0.4293 0.0
C4784 C 0.3888 0.75269 0.17729 0.0
C4785 C 0.40643 0.74598 0.18578 0.0
C4786 C 0.37103 0.75188 0.1879 0.0
C4787 C 0.37112 0.74462 0.20762 0.0
C4788 C 0.3889 0.73758 0.21617 0.0
C4789 C 0.40641 0.73815 0.20501 0.0
C4790 C 0.35226 0.75917 0.17812 0.0
C4791 C 0.3895 0.73004 0.23723 0.0
C4792 C 0.32832 0.76725 0.23503 0.0
C4793 C 0.31417 0.75224 0.23328 0.0
C4794 C 0.34775 0.76416 0.22856 0.0
C4795 C 0.35275 0.74587 0.21952 0.0
C4796 C 0.33888 0.73012 0.2192 0.0
C4797 C 0.31969 0.73345 0.22639 0.0
C4798 C 0.36231 0.78112 0.22964 0.0
C4799 C 0.34348 0.71055 0.20932 0.0
H4800 H 0.38893 0.75847 0.16227 0.0
H4801 H 0.42018 0.73295 0.21144 0.0
H4802 H 0.34046 0.74779 0.1794 0.0
H4803 H 0.3469 0.77275 0.18572 0.0
H4804 H 0.35449 0.76271 0.16219 0.0
H4805 H 0.40438 0.72437 0.2414 0.0
H4806 H 0.38537 0.74218 0.24754 0.0
H4807 H 0.37853 0.71796 0.23931 0.0
H4808 H 0.32385 0.78178 0.24034 0.0
H4809 H 0.30852 0.72199 0.22483 0.0
H4810 H 0.36416 0.78778 0.2147 0.0
H4811 H 0.37705 0.77574 0.23454 0.0
H4812 H 0.35724 0.79294 0.23994 0.0
H4813 H 0.34249 0.71244 0.19301 0.0
H4814 H 0.33287 0.69877 0.21383 0.0
H4815 H 0.35872 0.70553 0.21279 0.0
C4816 C 0.99414 0.63687 0.92433 0.0
C4817 C 0.00913 0.65086 0.92768 0.0
C4818 C 0.99437 0.61826 0.93372 0.0
C4819 C 0.01012 0.61329 0.94667 0.0
C4820 C 0.02593 0.62684 0.94921 0.0
C4821 C 0.02521 0.6455 0.93977 0.0
C4822 C 0.97711 0.60436 0.93061 0.0
C4823 C 0.04318 0.62193 0.96254 0.0
C4824 C 0.99124 0.58085 0.98808 0.0
C4825 C 0.99468 0.56176 0.98061 0.0
C4826 C -0.00231 0.59777 0.97793 0.0
C4827 C 0.00809 0.59557 0.95985 0.0
C4828 C 0.01356 0.57625 0.95336 0.0
C4829 C 0.00669 0.55944 0.96385 0.0
C4830 C 0.99142 0.61793 0.98553 0.0
C4831 C 0.02513 0.57322 0.93449 0.0
H4832 H 0.98195 0.64059 0.91458 0.0
H4833 H 0.03691 0.65614 0.94247 0.0
H4834 H 0.98249 0.5894 0.92635 0.0
H4835 H 0.96871 0.60275 0.94467 0.0
H4836 H 0.9668 0.60978 0.91898 0.0
H4837 H 0.05505 0.63331 0.96171 0.0
H4838 H 0.03807 0.62079 0.97813 0.0
H4839 H 0.04951 0.60731 0.95841 0.0
H4840 H 0.98206 0.58262 0.00117 0.0
H4841 H 0.00935 0.54469 0.95806 0.0
H4842 H 0.97995 0.62425 0.97557 0.0
H4843 H 0.00411 0.62834 0.9856 0.0
H4844 H 0.98518 0.61716 0.00076 0.0
H4845 H 0.01495 0.57425 0.92165 0.0
H4846 H 0.03233 0.55837 0.93414 0.0
H4847 H 0.03663 0.58484 0.93267 0.0
C4848 C 0.11104 0.25743 0.66873 0.0
C4849 C 0.09511 0.25303 0.68124 0.0
C4850 C 0.13052 0.25544 0.67544 0.0
C4851 C 0.13389 0.24935 0.6952 0.0
C4852 C 0.11774 0.24523 0.70799 0.0
C4853 C 0.09843 0.24686 0.70071 0.0
C4854 C 0.14744 0.2595 0.66136 0.0
C4855 C 0.12084 0.23925 0.72935 0.0
C4856 C 0.18166 0.22749 0.7144 0.0
C4857 C 0.18978 0.24409 0.72365 0.0
C4858 C 0.16406 0.2293 0.70353 0.0
C4859 C 0.15428 0.24793 0.70286 0.0
C4860 C 0.16314 0.26489 0.71138 0.0
C4861 C 0.18104 0.26277 0.72142 0.0
C4862 C 0.15526 0.21109 0.69399 0.0
C4863 C 0.15287 0.28484 0.71157 0.0
H4864 H 0.1082 0.26191 0.65355 0.0
H4865 H 0.08591 0.24339 0.71018 0.0
H4866 H 0.15699 0.27149 0.66727 0.0
H4867 H 0.15681 0.24603 0.65994 0.0
H4868 H 0.14222 0.26393 0.64639 0.0
H4869 H 0.10663 0.23718 0.73742 0.0
H4870 H 0.12933 0.22517 0.7301 0.0
H4871 H 0.12964 0.25074 0.73713 0.0
H4872 H 0.18848 0.21305 0.71647 0.0
H4873 H 0.1874 0.27546 0.72898 0.0
H4874 H 0.14983 0.21461 0.67887 0.0
H4875 H 0.14239 0.20593 0.70282 0.0
H4876 H 0.16614 0.19874 0.69303 0.0
H4877 H 0.14818 0.28912 0.69643 0.0
H4878 H 0.16247 0.29677 0.71762 0.0
H4879 H 0.13932 0.2839 0.72085 0.0
C4880 C 0.52586 0.64002 0.0715 0.0
C4881 C 0.50756 0.64989 0.07237 0.0
C4882 C 0.52733 0.62081 0.06384 0.0
C4883 C 0.51027 0.61157 0.05609 0.0
C4884 C 0.49167 0.62117 0.05724 0.0
C4885 C 0.49049 0.64014 0.06564 0.0
C4886 C 0.54725 0.61062 0.06346 0.0
C4887 C 0.47317 0.61162 0.04912 0.0
C4888 C 0.51997 0.57711 0.01335 0.0
C4889 C 0.51585 0.55841 0.02161 0.0
C4890 C 0.51783 0.59443 0.02442 0.0
C4891 C 0.51238 0.59304 0.04458 0.0
C4892 C 0.50905 0.57421 0.05337 0.0
C4893 C 0.5108 0.55705 0.0417 0.0
C4894 C 0.52049 0.61427 0.01421 0.0
C4895 C 0.50343 0.57189 0.07489 0.0
H4896 H 0.5392 0.64744 0.07639 0.0
H4897 H 0.47619 0.64736 0.06678 0.0
H4898 H 0.5459 0.59522 0.06921 0.0
H4899 H 0.55271 0.60966 0.04798 0.0
H4900 H 0.55846 0.61866 0.07241 0.0
H4901 H 0.45981 0.621 0.05134 0.0
H4902 H 0.47499 0.60879 0.03302 0.0
H4903 H 0.4707 0.59705 0.05643 0.0
H4904 H 0.5239 0.57841 -0.00217 0.0
H4905 H 0.50764 0.54267 0.04818 0.0
H4906 H 0.53279 0.62262 0.02116 0.0
H4907 H 0.50685 0.62334 0.0159 0.0
H4908 H 0.52373 0.61271 -0.00186 0.0
H4909 H 0.51678 0.56754 0.08343 0.0
H4910 H 0.49231 0.55989 0.07662 0.0
H4911 H 0.49729 0.58565 0.0815 0.0
C4912 C 0.10679 0.75918 0.80235 0.0
C4913 C 0.10154 0.74792 0.81901 0.0
C4914 C 0.12612 0.75858 0.79468 0.0
C4915 C 0.14064 0.74652 0.80398 0.0
C4916 C 0.13533 0.73484 0.8206 0.0
C4917 C 0.11584 0.73564 0.82788 0.0
C4918 C 0.13113 0.7713 0.7769 0.0
C4919 C 0.15039 0.722 0.83106 0.0
C4920 C 0.18579 0.74098 0.771 0.0
C4921 C 0.19673 0.75754 0.77695 0.0
C4922 C 0.16825 0.73575 0.78104 0.0
C4923 C 0.16161 0.74759 0.79712 0.0
C4924 C 0.17399 0.7628 0.80453 0.0
C4925 C 0.19147 0.76749 0.79438 0.0
C4926 C 0.15578 0.71904 0.77305 0.0
C4927 C 0.16761 0.77587 0.82156 0.0
H4928 H 0.09575 0.76851 0.79531 0.0
H4929 H 0.11191 0.72707 0.84092 0.0
H4930 H 0.14233 0.78257 0.78109 0.0
H4931 H 0.13768 0.76202 0.76501 0.0
H4932 H 0.11795 0.7791 0.77085 0.0
H4933 H 0.14353 0.71246 0.84262 0.0
H4934 H 0.15825 0.7124 0.82025 0.0
H4935 H 0.1617 0.73154 0.8382 0.0
H4936 H 0.18971 0.73349 0.75734 0.0
H4937 H 0.19987 0.78047 0.7988 0.0
H4938 H 0.14308 0.72532 0.7647 0.0
H4939 H 0.14967 0.70992 0.78532 0.0
H4940 H 0.16436 0.70929 0.76292 0.0
H4941 H 0.15611 0.78643 0.81631 0.0
H4942 H 0.18017 0.7846 0.8276 0.0
H4943 H 0.16103 0.76694 0.8337 0.0
C4944 C 0.98092 0.35659 0.56444 0.0
C4945 C -0.00256 0.34413 0.56228 0.0
C4946 C 0.98066 0.3756 0.55611 0.0
C4947 C -0.00248 0.38254 0.54577 0.0
C4948 C 0.01411 0.36999 0.54313 0.0
C4949 C 0.0138 0.35082 0.55127 0.0
C4950 C 0.96261 0.38855 0.55909 0.0
C4951 C 0.03249 0.37712 0.53252 0.0
C4952 C 0.98965 0.42915 0.51533 0.0
C4953 C 0.99414 0.44372 0.52935 0.0
C4954 C 0.99131 0.40896 0.5202 0.0
C4955 C -0.00181 0.4035 0.53926 0.0
C4956 C 0.00392 0.41827 0.55296 0.0
C4957 C 0.0015 0.43825 0.54794 0.0
C4958 C 0.98473 0.39355 0.5054 0.0
C4959 C 0.01186 0.41304 0.57323 0.0
H4960 H 0.96839 0.3518 0.57325 0.0
H4961 H 0.02651 0.34119 0.54928 0.0
H4962 H 0.96632 0.40108 0.56906 0.0
H4963 H 0.95775 0.395 0.54475 0.0
H4964 H 0.95002 0.38023 0.56569 0.0
H4965 H 0.0434 0.36498 0.53018 0.0
H4966 H 0.02861 0.38365 0.51794 0.0
H4967 H 0.03965 0.38899 0.54135 0.0
H4968 H 0.98401 0.43355 0.50094 0.0
H4969 H 0.00528 0.44963 0.55861 0.0
H4970 H 0.97132 0.38591 0.51107 0.0
H4971 H -0.00363 0.38209 0.50343 0.0
H4972 H 0.98124 0.40018 0.49072 0.0
H4973 H -0.00019 0.40666 0.58244 0.0
H4974 H 0.01795 0.42619 0.58105 0.0
H4975 H 0.02368 0.40164 0.57203 0.0
C4976 C 0.39539 0.27009 0.31049 0.0
C4977 C 0.41034 0.25641 0.30572 0.0
C4978 C 0.37689 0.26947 0.30107 0.0
C4979 C 0.37318 0.25474 0.2866 0.0
C4980 C 0.38869 0.24192 0.28061 0.0
C4981 C 0.40708 0.24289 0.29026 0.0
C4982 C 0.36077 0.28342 0.30796 0.0
C4983 C 0.3854 0.22607 0.26519 0.0
C4984 C 0.32161 0.23355 0.29001 0.0
C4985 C 0.31155 0.24324 0.27452 0.0
C4986 C 0.34169 0.23678 0.29355 0.0
C4987 C 0.35233 0.25001 0.28126 0.0
C4988 C 0.34268 0.25918 0.26497 0.0
C4989 C 0.32234 0.2556 0.26171 0.0
C4990 C 0.35132 0.22649 0.31102 0.0
C4991 C 0.35374 0.27304 0.25133 0.0
H4992 H 0.39768 0.28055 0.32246 0.0
H4993 H 0.41871 0.23257 0.28617 0.0
H4994 H 0.3525 0.28956 0.29514 0.0
H4995 H 0.35006 0.27511 0.31731 0.0
H4996 H 0.36676 0.29592 0.31682 0.0
H4997 H 0.39958 0.21974 0.25971 0.0
H4998 H 0.37651 0.21385 0.27172 0.0
H4999 H 0.37698 0.23209 0.25242 0.0
H5000 H 0.31368 0.22359 0.29984 0.0
H5001 H 0.31486 0.26274 0.24945 0.0
H5002 H 0.35632 0.2377 0.32195 0.0
H5003 H 0.36457 0.21808 0.3061 0.0
H5004 H 0.34112 0.21603 0.31864 0.0
H5005 H 0.35976 0.28571 0.25989 0.0
H5006 H 0.34419 0.27891 0.23927 0.0
H5007 H 0.36654 0.2652 0.24461 0.0
C5008 C 0.45441 0.51118 0.34592 0.0
C5009 C 0.43723 0.49977 0.34355 0.0
C5010 C 0.4635 0.51296 0.36454 0.0
C5011 C 0.45497 0.50338 0.38117 0.0
C5012 C 0.438 0.4913 0.37869 0.0
C5013 C 0.4294 0.48956 0.35988 0.0
C5014 C 0.48175 0.52571 0.36656 0.0
C5015 C 0.42827 0.48108 0.3961 0.0
C5016 C 0.48135 0.49806 0.43065 0.0
C5017 C 0.47234 0.51325 0.44164 0.0
C5018 C 0.47643 0.49502 0.41065 0.0
C5019 C 0.46236 0.50763 0.40146 0.0
C5020 C 0.45412 0.52367 0.41218 0.0
C5021 C 0.4592 0.52627 0.4321 0.0
C5022 C 0.48555 0.47778 0.39966 0.0
C5023 C 0.43913 0.53754 0.40292 0.0
H5024 H 0.46059 0.51891 0.33324 0.0
H5025 H 0.41601 0.4809 0.35812 0.0
H5026 H 0.47822 0.53906 0.3755 0.0
H5027 H 0.49355 0.51745 0.3745 0.0
H5028 H 0.4876 0.53062 0.35196 0.0
H5029 H 0.41614 0.471 0.39145 0.0
H5030 H 0.43934 0.47234 0.40458 0.0
H5031 H 0.42203 0.49238 0.40631 0.0
H5032 H 0.4916 0.48802 0.43787 0.0
H5033 H 0.45235 0.53823 0.44039 0.0
H5034 H 0.4916 0.4828 0.3852 0.0
H5035 H 0.474 0.46652 0.3965 0.0
H5036 H 0.49758 0.47054 0.40826 0.0
H5037 H 0.44509 0.54392 0.38897 0.0
H5038 H 0.43496 0.54993 0.41295 0.0
H5039 H 0.42554 0.52916 0.39909 0.0
C5040 C 0.25648 0.69631 0.10021 0.0
C5041 C 0.24434 0.6805 0.09446 0.0
C5042 C 0.25489 0.70455 0.11918 0.0
C5043 C 0.24073 0.69685 0.13264 0.0
C5044 C 0.22843 0.6809 0.12695 0.0
C5045 C 0.23042 0.67286 0.10792 0.0
C5046 C 0.26834 0.72154 0.12479 0.0
C5047 C 0.21309 0.67245 0.1409 0.0
C5048 C 0.25097 0.70994 0.18612 0.0
C5049 C 0.24029 0.72767 0.18788 0.0
C5050 C 0.25057 0.6991 0.16841 0.0
C5051 C 0.23869 0.70592 0.15251 0.0
C5052 C 0.22656 0.7229 0.15494 0.0
C5053 C 0.22776 0.73377 0.17255 0.0
C5054 C 0.26391 0.68122 0.16622 0.0
C5055 C 0.21346 0.73042 0.13844 0.0
H5056 H 0.2671 0.70239 0.08979 0.0
H5057 H 0.22122 0.66041 0.10364 0.0
H5058 H 0.25938 0.73488 0.12838 0.0
H5059 H 0.27693 0.71763 0.13826 0.0
H5060 H 0.2789 0.72545 0.11276 0.0
H5061 H 0.20475 0.65994 0.13419 0.0
H5062 H 0.2203 0.6671 0.15467 0.0
H5063 H 0.20242 0.68421 0.14521 0.0
H5064 H 0.26082 0.70542 0.19797 0.0
H5065 H 0.21949 0.74751 0.17404 0.0
H5066 H 0.27415 0.68337 0.15352 0.0
H5067 H 0.25491 0.66784 0.16306 0.0
H5068 H 0.27289 0.67843 0.17971 0.0
H5069 H 0.22277 0.73712 0.12664 0.0
H5070 H 0.20281 0.74185 0.14371 0.0
H5071 H 0.20504 0.71804 0.13167 0.0
C5072 C 0.06397 0.51934 0.85613 0.0
C5073 C 0.05752 0.50771 0.84021 0.0
C5074 C 0.05465 0.51812 0.87461 0.0
C5075 C 0.03856 0.50491 0.87714 0.0
C5076 C 0.03097 0.49437 0.86073 0.0
C5077 C 0.0406 0.49587 0.8424 0.0
C5078 C 0.0632 0.52958 0.89181 0.0
C5079 C 0.01366 0.48037 0.86289 0.0
C5080 C 0.03867 0.48071 0.92741 0.0
C5081 C 0.02491 0.49234 0.93779 0.0
C5082 C 0.04255 0.48416 0.90739 0.0
C5083 C 0.03229 0.49953 0.89743 0.0
C5084 C 0.01753 0.51058 0.90744 0.0
C5085 C 0.01399 0.50683 0.92759 0.0
C5086 C 0.05845 0.47204 0.89722 0.0
C5087 C 0.00624 0.52698 0.89719 0.0
H5088 H 0.07711 0.52843 0.85454 0.0
H5089 H 0.03536 0.48717 0.82996 0.0
H5090 H 0.05128 0.53681 0.90052 0.0
H5091 H 0.07108 0.51918 0.90186 0.0
H5092 H 0.07384 0.54114 0.88685 0.0
H5093 H 0.00765 0.47577 0.84829 0.0
H5094 H 0.01846 0.46685 0.87099 0.0
H5095 H 0.00163 0.48737 0.87166 0.0
H5096 H 0.04697 0.46926 0.93508 0.0
H5097 H 0.0032 0.51576 0.93547 0.0
H5098 H 0.07099 0.48182 0.893 0.0
H5099 H 0.0526 0.46534 0.88342 0.0
H5100 H 0.06425 0.45994 0.90681 0.0
H5101 H 0.01611 0.53997 0.89506 0.0
H5102 H 0.99316 0.53185 0.90595 0.0
H5103 H 0.00122 0.52214 0.88232 0.0
C5104 C 0.25164 0.32485 0.61751 0.0
C5105 C 0.23793 0.31975 0.60284 0.0
C5106 C 0.25134 0.31559 0.6361 0.0
C5107 C 0.23693 0.30084 0.64016 0.0
C5108 C 0.22233 0.29643 0.62581 0.0
C5109 C 0.22302 0.30592 0.60727 0.0
C5110 C 0.26728 0.3207 0.65093 0.0
C5111 C 0.2067 0.28089 0.62965 0.0
C5112 C 0.25901 0.26164 0.67291 0.0
C5113 C 0.2539 0.26859 0.69178 0.0
C5114 C 0.25227 0.27115 0.65584 0.0
C5115 C 0.23962 0.28779 0.65772 0.0
C5116 C 0.23243 0.29336 0.67671 0.0
C5117 C 0.23982 0.2837 0.69371 0.0
C5118 C 0.26061 0.26476 0.63603 0.0
C5119 C 0.21841 0.3106 0.67925 0.0
H5120 H 0.26289 0.33587 0.6143 0.0
H5121 H 0.21236 0.30195 0.59597 0.0
H5122 H 0.26064 0.32387 0.66562 0.0
H5123 H 0.27741 0.30784 0.65274 0.0
H5124 H 0.27617 0.33376 0.64624 0.0
H5125 H 0.19491 0.2811 0.6182 0.0
H5126 H 0.21361 0.26593 0.62973 0.0
H5127 H 0.19984 0.28317 0.64443 0.0
H5128 H 0.26975 0.24972 0.6715 0.0
H5129 H 0.23586 0.28901 0.70834 0.0
H5130 H 0.27115 0.27618 0.63059 0.0
H5131 H 0.24868 0.26337 0.62486 0.0
H5132 H 0.2686 0.25036 0.63698 0.0
H5133 H 0.22692 0.32468 0.67883 0.0
H5134 H 0.21049 0.30982 0.69367 0.0
H5135 H 0.20739 0.31108 0.66708 0.0
C5136 C 0.44347 0.48711 0.14239 0.0
C5137 C 0.42975 0.50124 0.14904 0.0
C5138 C 0.45106 0.48789 0.12305 0.0
C5139 C 0.44493 0.5033 0.11007 0.0
C5140 C 0.43114 0.51764 0.11668 0.0
C5141 C 0.42362 0.51637 0.13604 0.0
C5142 C 0.46583 0.47231 0.11658 0.0
C5143 C 0.42432 0.53426 0.10329 0.0
C5144 C 0.48282 0.50977 0.06956 0.0
C5145 C 0.47542 0.49679 0.05523 0.0
C5146 C 0.47208 0.51368 0.08692 0.0
C5147 C 0.45349 0.50442 0.08979 0.0
C5148 C 0.44491 0.49334 0.07419 0.0
C5149 C 0.45605 0.48966 0.057 0.0
C5150 C 0.48165 0.52572 0.10315 0.0
C5151 C 0.42518 0.48314 0.07665 0.0
H5152 H 0.44848 0.47555 0.15239 0.0
H5153 H 0.41273 0.52713 0.14093 0.0
H5154 H 0.46038 0.4646 0.10315 0.0
H5155 H 0.48011 0.47946 0.11267 0.0
H5156 H 0.46864 0.46104 0.12829 0.0
H5157 H 0.41381 0.54446 0.11083 0.0
H5158 H 0.43725 0.54297 0.09806 0.0
H5159 H 0.417 0.52803 0.08999 0.0
H5160 H 0.49802 0.51479 0.06839 0.0
H5161 H 0.45055 0.47923 0.04609 0.0
H5162 H 0.48365 0.51646 0.11661 0.0
H5163 H 0.47191 0.53834 0.10724 0.0
H5164 H 0.49637 0.53159 0.09871 0.0
H5165 H 0.42717 0.4696 0.08584 0.0
H5166 H 0.41886 0.47862 0.06216 0.0
H5167 H 0.4144 0.49287 0.08437 0.0
C5168 C 0.25588 0.71005 0.90392 0.0
C5169 C 0.25312 0.68948 0.90419 0.0
C5170 C 0.25673 0.72036 0.88587 0.0
C5171 C 0.25505 0.70967 0.86791 0.0
C5172 C 0.25197 0.68886 0.86827 0.0
C5173 C 0.25093 0.67902 0.8865 0.0
C5174 C 0.25986 0.74255 0.88596 0.0
C5175 C 0.25043 0.67688 0.84943 0.0
C5176 C 0.24436 0.73229 0.81776 0.0
C5177 C 0.26306 0.73088 0.80889 0.0
C5178 C 0.24161 0.7266 0.83757 0.0
C5179 C 0.25807 0.71973 0.84864 0.0
C5180 C 0.27724 0.72 0.84018 0.0
C5181 C 0.27948 0.72545 0.82032 0.0
C5182 C 0.22093 0.72637 0.84609 0.0
C5183 C 0.29518 0.71297 0.85158 0.0
H5184 H 0.2575 0.71796 0.9178 0.0
H5185 H 0.24886 0.66306 0.88697 0.0
H5186 H 0.27421 0.74617 0.87881 0.0
H5187 H 0.24809 0.74999 0.87723 0.0
H5188 H 0.25984 0.74875 0.9012 0.0
H5189 H 0.24703 0.661 0.85236 0.0
H5190 H 0.23871 0.6831 0.83972 0.0
H5191 H 0.2646 0.67771 0.84113 0.0
H5192 H 0.23164 0.73639 0.80883 0.0
H5193 H 0.29397 0.72455 0.81343 0.0
H5194 H 0.22079 0.73277 0.86122 0.0
H5195 H 0.21572 0.7108 0.8473 0.0
H5196 H 0.2103 0.73474 0.83668 0.0
H5197 H 0.29565 0.71994 0.86644 0.0
H5198 H 0.30923 0.71637 0.84369 0.0
H5199 H 0.29429 0.69667 0.8538 0.0
C5200 C 0.05423 0.51559 0.64785 0.0
C5201 C 0.07106 0.50409 0.65165 0.0
C5202 C 0.0469 0.51754 0.62856 0.0
C5203 C 0.05695 0.50804 0.61274 0.0
C5204 C 0.07415 0.49666 0.61649 0.0
C5205 C 0.08092 0.49467 0.636 0.0
C5206 C 0.02815 0.52932 0.62517 0.0
C5207 C 0.08528 0.48651 0.59993 0.0
C5208 C 0.02513 0.49569 0.56876 0.0
C5209 C 0.02824 0.51217 0.55653 0.0
C5210 C 0.03487 0.49386 0.58686 0.0
C5211 C 0.04845 0.50872 0.59257 0.0
C5212 C 0.05268 0.52478 0.57961 0.0
C5213 C 0.04221 0.52651 0.56169 0.0
C5214 C 0.02954 0.47677 0.6004 0.0
C5215 C 0.06747 0.54059 0.58514 0.0
H5216 H 0.04664 0.5228 0.66006 0.0
H5217 H 0.09413 0.486 0.63901 0.0
H5218 H 0.03084 0.54128 0.61418 0.0
H5219 H 0.01652 0.51949 0.619 0.0
H5220 H 0.02243 0.53613 0.63903 0.0
H5221 H 0.09898 0.47908 0.60523 0.0
H5222 H 0.07571 0.47523 0.59281 0.0
H5223 H 0.08932 0.4975 0.58834 0.0
H5224 H 0.01405 0.48481 0.56468 0.0
H5225 H 0.04435 0.53933 0.55219 0.0
H5226 H 0.02221 0.48257 0.61394 0.0
H5227 H 0.04305 0.46873 0.60517 0.0
H5228 H 0.01938 0.466 0.59321 0.0
H5229 H 0.0614 0.54979 0.59734 0.0
H5230 H 0.07102 0.55049 0.57244 0.0
H5231 H 0.08137 0.5337 0.59059 0.0
C5232 C 0.22961 0.33051 0.39165 0.0
C5233 C 0.2447 0.32363 0.4042 0.0
C5234 C 0.22756 0.32314 0.37235 0.0
C5235 C 0.24091 0.30852 0.36545 0.0
C5236 C 0.2567 0.30212 0.37773 0.0
C5237 C 0.25841 0.30978 0.39698 0.0
C5238 C 0.21062 0.33037 0.35968 0.0
C5239 C 0.27124 0.2865 0.37088 0.0
C5240 C 0.22462 0.26905 0.3294 0.0
C5241 C 0.23517 0.27432 0.31229 0.0
C5242 C 0.2255 0.28071 0.3465 0.0
C5243 C 0.23712 0.29818 0.34641 0.0
C5244 C 0.24636 0.30455 0.32864 0.0
C5245 C 0.24523 0.29251 0.31168 0.0
C5246 C 0.21529 0.27344 0.36508 0.0
C5247 C 0.25865 0.32324 0.32791 0.0
H5248 H 0.21924 0.34157 0.39702 0.0
H5249 H 0.27007 0.3044 0.40661 0.0
H5250 H 0.21604 0.33464 0.34474 0.0
H5251 H 0.19975 0.31821 0.35767 0.0
H5252 H 0.20287 0.34328 0.36638 0.0
H5253 H 0.28353 0.28429 0.38158 0.0
H5254 H 0.26344 0.27214 0.36892 0.0
H5255 H 0.27762 0.29069 0.35631 0.0
H5256 H 0.21664 0.25509 0.32983 0.0
H5257 H 0.25344 0.29663 0.29848 0.0
H5258 H 0.20646 0.28553 0.3719 0.0
H5259 H 0.22658 0.26875 0.37608 0.0
H5260 H 0.20536 0.26065 0.36216 0.0
H5261 H 0.25065 0.33574 0.33502 0.0
H5262 H 0.26254 0.32753 0.31248 0.0
H5263 H 0.27257 0.32088 0.33631 0.0
C5264 C 0.35948 0.41691 0.49968 0.0
C5265 C 0.34383 0.43018 0.50274 0.0
C5266 C 0.37917 0.42336 0.50075 0.0
C5267 C 0.38312 0.44362 0.50458 0.0
C5268 C 0.36723 0.45718 0.50714 0.0
C5269 C 0.34769 0.4502 0.50645 0.0
C5270 C 0.3957 0.40847 0.49827 0.0
C5271 C 0.37086 0.47902 0.51063 0.0
C5272 C 0.43091 0.46307 0.52636 0.0
C5273 C 0.44029 0.47038 0.5094 0.0
C5274 C 0.41291 0.45279 0.52484 0.0
C5275 C 0.40383 0.45075 0.50602 0.0
C5276 C 0.41384 0.4573 0.48878 0.0
C5277 C 0.43218 0.46673 0.49069 0.0
C5278 C 0.40294 0.4454 0.54347 0.0
C5279 C 0.40439 0.45611 0.46854 0.0
H5280 H 0.35627 0.40138 0.49694 0.0
H5281 H 0.33542 0.46034 0.50876 0.0
H5282 H 0.40571 0.41307 0.48606 0.0
H5283 H 0.40471 0.40789 0.512 0.0
H5284 H 0.39009 0.39332 0.49505 0.0
H5285 H 0.35688 0.4877 0.51131 0.0
H5286 H 0.37896 0.48112 0.52476 0.0
H5287 H 0.38027 0.48518 0.49861 0.0
H5288 H 0.43708 0.46633 0.54082 0.0
H5289 H 0.43933 0.47294 0.47767 0.0
H5290 H 0.39715 0.43015 0.54127 0.0
H5291 H 0.39016 0.45512 0.54707 0.0
H5292 H 0.41319 0.44534 0.55632 0.0
H5293 H 0.39907 0.44084 0.46556 0.0
H5294 H 0.41475 0.46055 0.45653 0.0
H5295 H 0.3913 0.46608 0.46804 0.0
C5296 C 0.84454 0.03944 0.49715 0.0
C5297 C 0.84514 0.06016 0.49608 0.0
C5298 C 0.86208 0.0283 0.49648 0.0
C5299 C 0.88045 0.0383 0.49509 0.0
C5300 C 0.88103 0.05934 0.49467 0.0
C5301 C 0.86327 0.07003 0.49497 0.0
C5302 C 0.86096 0.00593 0.49662 0.0
C5303 C 0.90034 0.07056 0.49336 0.0
C5304 C 0.93033 0.01514 0.50579 0.0
C5305 C 0.93798 0.01363 0.48655 0.0
C5306 C 0.91092 0.02193 0.50892 0.0
C5307 C 0.89905 0.02699 0.49237 0.0
C5308 C 0.90613 0.02359 0.47294 0.0
C5309 C 0.92557 0.01697 0.47027 0.0
C5310 C 0.90388 0.02546 0.52985 0.0
C5311 C 0.89386 0.02867 0.45491 0.0
H5312 H 0.83034 0.03199 0.49802 0.0
H5313 H 0.86349 0.08612 0.4943 0.0
H5314 H 0.86671 2e-05 0.48238 0.0
H5315 H 0.87043 -0.0002 0.50858 0.0
H5316 H 0.84559 0.00048 0.49875 0.0
H5317 H 0.89824 0.08685 0.49484 0.0
H5318 H 0.91065 0.06546 0.50511 0.0
H5319 H 0.90753 0.06756 0.47887 0.0
H5320 H 0.93999 0.01272 0.51838 0.0
H5321 H 0.9315 0.01566 0.45538 0.0
H5322 H 0.88849 0.02008 0.53183 0.0
H5323 H 0.90388 0.04165 0.53291 0.0
H5324 H 0.91355 0.01803 0.54094 0.0
H5325 H 0.87867 0.02263 0.45642 0.0
H5326 H 0.90055 0.02285 0.44104 0.0
H5327 H 0.89256 0.04505 0.45354 0.0
C5328 C 0.66619 0.11402 0.24319 0.0
C5329 C 0.67939 0.09886 0.24836 0.0
C5330 C 0.67266 0.13364 0.24139 0.0
C5331 C 0.69286 0.138 0.24451 0.0
C5332 C 0.70617 0.12278 0.25035 0.0
C5333 C 0.69919 0.10329 0.25236 0.0
C5334 C 0.65805 0.14956 0.23549 0.0
C5335 C 0.72785 0.12698 0.25388 0.0
C5336 C 0.71712 0.18118 0.21836 0.0
C5337 C 0.71896 0.1948 0.23385 0.0
C5338 C 0.70762 0.16297 0.22139 0.0
C5339 C 0.70033 0.15823 0.24049 0.0
C5340 C 0.70123 0.17239 0.25591 0.0
C5341 C 0.71021 0.19076 0.25226 0.0
C5342 C 0.7068 0.1482 0.20459 0.0
C5343 C 0.69399 0.16761 0.27657 0.0
H5344 H 0.65079 0.11044 0.24039 0.0
H5345 H 0.70928 0.09142 0.25642 0.0
H5346 H 0.65866 0.1621 0.2461 0.0
H5347 H 0.66202 0.15551 0.22067 0.0
H5348 H 0.64261 0.1439 0.23494 0.0
H5349 H 0.736 0.11366 0.25918 0.0
H5350 H 0.73485 0.13221 0.23993 0.0
H5351 H 0.72954 0.139 0.26497 0.0
H5352 H 0.72428 0.18425 0.20429 0.0
H5353 H 0.71216 0.20112 0.26439 0.0
H5354 H 0.69158 0.14226 0.20294 0.0
H5355 H 0.71669 0.13546 0.20792 0.0
H5356 H 0.71149 0.15486 0.19025 0.0
H5357 H 0.67772 0.16547 0.27639 0.0
H5358 H 0.69762 0.17949 0.28734 0.0
H5359 H 0.70072 0.15355 0.28192 0.0
C5360 C 0.64146 0.94743 -0.00391 0.0
C5361 C 0.64711 0.93157 0.0083 0.0
C5362 C 0.62191 0.95448 -0.00394 0.0
C5363 C 0.60759 0.94542 0.00853 0.0
C5364 C 0.61334 0.92986 0.0214 0.0
C5365 C 0.63303 0.9231 0.02111 0.0
C5366 C 0.61642 0.97116 0.98211 0.0
C5367 C 0.59853 0.9198 0.03483 0.0
C5368 C 0.56095 0.97655 0.01004 0.0
C5369 C 0.55112 0.96898 0.99347 0.0
C5370 C 0.5786 0.96767 0.01673 0.0
C5371 C 0.58638 0.95106 0.00642 0.0
C5372 C 0.57498 0.94195 0.99138 0.0
C5373 C 0.55743 0.95105 0.98513 0.0
C5374 C 0.58998 0.97751 0.03322 0.0
C5375 C 0.58253 0.92416 0.98004 0.0
H5376 H 0.65233 0.95421 0.98637 0.0
H5377 H 0.63723 0.91068 0.03044 0.0
H5378 H 0.60574 0.96569 0.97091 0.0
H5379 H 0.60909 0.98335 0.99039 0.0
H5380 H 0.6295 0.97733 0.97422 0.0
H5381 H 0.60577 0.9096 0.04556 0.0
H5382 H 0.58983 0.93102 0.04316 0.0
H5383 H 0.58793 0.91111 0.0258 0.0
H5384 H 0.55618 0.99057 0.01632 0.0
H5385 H 0.54981 0.94534 0.9722 0.0
H5386 H 0.60155 0.98723 0.02672 0.0
H5387 H 0.59749 0.96634 0.04269 0.0
H5388 H 0.58016 0.98681 0.04264 0.0
H5389 H 0.59426 0.92901 0.96957 0.0
H5390 H 0.57058 0.91691 0.97138 0.0
H5391 H 0.58915 0.91302 0.99018 0.0
C5392 C 0.31254 0.38881 0.23739 0.0
C5393 C 0.31908 0.399 0.25425 0.0
C5394 C 0.30367 0.37004 0.23897 0.0
C5395 C 0.30118 0.36119 0.2579 0.0
C5396 C 0.30798 0.37124 0.27496 0.0
C5397 C 0.31687 0.38999 0.27293 0.0
C5398 C 0.29663 0.35981 0.22037 0.0
C5399 C 0.3058 0.36218 0.29531 0.0
C5400 C 0.25951 0.32403 0.25659 0.0
C5401 C 0.2697 0.30681 0.25101 0.0
C5402 C 0.26972 0.34164 0.26076 0.0
C5403 C 0.29064 0.34183 0.25963 0.0
C5404 C 0.30101 0.32373 0.25676 0.0
C5405 C 0.29035 0.3064 0.25221 0.0
C5406 C 0.25798 0.3605 0.26377 0.0
C5407 C 0.32331 0.323 0.25608 0.0
H5408 H 0.31399 0.3957 0.22294 0.0
H5409 H 0.32224 0.39756 0.28602 0.0
H5410 H 0.30369 0.34498 0.21908 0.0
H5411 H 0.28039 0.35747 0.22113 0.0
H5412 H 0.30006 0.36847 0.20677 0.0
H5413 H 0.31201 0.37183 0.3071 0.0
H5414 H 0.28994 0.35945 0.29861 0.0
H5415 H 0.31344 0.34759 0.2958 0.0
H5416 H 0.2435 0.32438 0.25536 0.0
H5417 H 0.29824 0.29326 0.24743 0.0
H5418 H 0.25836 0.36941 0.24992 0.0
H5419 H 0.26451 0.36967 0.27571 0.0
H5420 H 0.24226 0.35739 0.2675 0.0
H5421 H 0.32834 0.32572 0.24065 0.0
H5422 H 0.32879 0.30816 0.2607 0.0
H5423 H 0.33008 0.33441 0.26575 0.0
C5424 C 0.13908 0.58511 0.01086 0.0
C5425 C 0.15229 0.57469 -0.00134 0.0
C5426 C 0.11952 0.57871 0.01327 0.0
C5427 C 0.11315 0.56141 0.00336 0.0
C5428 C 0.12625 0.55122 0.99044 0.0
C5429 C 0.1457 0.55807 0.98817 0.0
C5430 C 0.10593 0.58999 0.02703 0.0
C5431 C 0.11997 0.53262 0.97967 0.0
C5432 C 0.07478 0.52702 0.02477 0.0
C5433 C 0.05897 0.53005 0.01173 0.0
C5434 C 0.09209 0.53826 0.02312 0.0
C5435 C 0.09356 0.55271 0.00794 0.0
C5436 C 0.07694 0.55707 -0.00409 0.0
C5437 C 0.05966 0.54573 -0.0019 0.0
C5438 C 0.10941 0.53335 0.0364 0.0
C5439 C 0.07799 0.57238 0.97959 0.0
H5440 H 0.14413 0.59821 0.01867 0.0
H5441 H 0.15597 0.55005 0.97875 0.0
H5442 H 0.09163 0.5932 0.0196 0.0
H5443 H 0.10262 0.58076 0.04026 0.0
H5444 H 0.11254 0.60421 0.03205 0.0
H5445 H 0.13151 0.52722 0.96924 0.0
H5446 H 0.11682 0.52067 0.99057 0.0
H5447 H 0.10614 0.53537 0.97126 0.0
H5448 H 0.07414 0.51488 0.03534 0.0
H5449 H 0.04746 0.54792 0.98789 0.0
H5450 H 0.11605 0.54708 0.04251 0.0
H5451 H 0.12104 0.52569 0.02762 0.0
H5452 H 0.10508 0.52352 0.04891 0.0
H5453 H 0.08437 0.58645 0.98521 0.0
H5454 H 0.06319 0.5755 0.97311 0.0
H5455 H 0.08786 0.56693 0.96762 0.0
C5456 C 0.70581 0.90451 0.24823 0.0
C5457 C 0.68646 0.90664 0.25543 0.0
C5458 C 0.71546 0.88612 0.24918 0.0
C5459 C 0.70535 0.86962 0.25728 0.0
C5460 C 0.68578 0.87173 0.26452 0.0
C5461 C 0.67661 0.8903 0.2636 0.0
C5462 C 0.73635 0.88427 0.24142 0.0
C5463 C 0.67437 0.85429 0.27279 0.0
C5464 C 0.71926 0.81705 0.244 0.0
C5465 C 0.72792 0.8107 0.26171 0.0
C5466 C 0.71237 0.83655 0.24203 0.0
C5467 C 0.71493 0.84994 0.25797 0.0
C5468 C 0.72481 0.8438 0.27542 0.0
C5469 C 0.73091 0.82403 0.27721 0.0
C5470 C 0.70139 0.84246 0.22343 0.0
C5471 C 0.72779 0.85774 0.29264 0.0
H5472 H 0.71338 0.91725 0.24197 0.0
H5473 H 0.66151 0.89195 0.26883 0.0
H5474 H 0.7461 0.87772 0.25294 0.0
H5475 H 0.7366 0.87408 0.22852 0.0
H5476 H 0.74257 0.89881 0.23676 0.0
H5477 H 0.65933 0.85856 0.27797 0.0
H5478 H 0.67284 0.84266 0.26126 0.0
H5479 H 0.68252 0.84758 0.28539 0.0
H5480 H 0.71659 0.80639 0.23227 0.0
H5481 H 0.73735 0.81878 0.29097 0.0
H5482 H 0.71056 0.85301 0.21474 0.0
H5483 H 0.68729 0.85009 0.2271 0.0
H5484 H 0.6979 0.82947 0.21394 0.0
H5485 H 0.73443 0.87189 0.28745 0.0
H5486 H 0.73747 0.85121 0.30425 0.0
H5487 H 0.71326 0.86136 0.29943 0.0
C5488 C 0.82762 0.11085 0.73307 0.0
C5489 C 0.81703 0.09409 0.73932 0.0
C5490 C 0.8191 0.12988 0.73403 0.0
C5491 C 0.79948 0.13205 0.74115 0.0
C5492 C 0.78827 0.11493 0.74599 0.0
C5493 C 0.79728 0.09616 0.74526 0.0
C5494 C 0.83156 0.14774 0.72884 0.0
C5495 C 0.76719 0.11654 0.7533 0.0
C5496 C 0.78735 0.17634 0.77315 0.0
C5497 C 0.77498 0.18771 0.76088 0.0
C5498 C 0.7958 0.1586 0.76662 0.0
C5499 C 0.792 0.15199 0.74713 0.0
C5500 C 0.78023 0.1638 0.73427 0.0
C5501 C 0.7719 0.18172 0.74129 0.0
C5502 C 0.80796 0.14643 0.78102 0.0
C5503 C 0.77599 0.15722 0.71339 0.0
H5504 H 0.84293 0.10919 0.7285 0.0
H5505 H 0.78906 0.08312 0.74987 0.0
H5506 H 0.82308 0.15817 0.71935 0.0
H5507 H 0.83555 0.1558 0.74259 0.0
H5508 H 0.84544 0.14351 0.72106 0.0
H5509 H 0.7597 0.10187 0.75379 0.0
H5510 H 0.76709 0.12293 0.76844 0.0
H5511 H 0.75851 0.12665 0.74363 0.0
H5512 H 0.78991 0.18102 0.7883 0.0
H5513 H 0.7622 0.1904 0.73188 0.0
H5514 H 0.82271 0.14307 0.7746 0.0
H5515 H 0.80048 0.13205 0.78393 0.0
H5516 H 0.81013 0.1541 0.79541 0.0
H5517 H 0.78963 0.1588 0.70435 0.0
H5518 H 0.76397 0.16611 0.70652 0.0
H5519 H 0.7717 0.14133 0.713 0.0
loop_
_geom_bond_atom_site_label_1
_geom_bond_atom_site_label_2
_geom_bond_distance
_geom_bond_site_symmetry_2
_ccdc_geom_bond_type
Li0 N17 1.990 . S
Li0 O60 1.956 . S
Li0 O61 1.970 . S
Li0 O62 1.961 1_455 S
Li1 N25 1.990 . S
Li1 O60 1.970 . S
Li1 O61 1.956 . S
Li1 O63 1.961 . S
Li2 N47 1.990 . S
Li2 O60 1.961 . S
Li2 O62 1.956 1_455 S
Li2 O63 1.970 . S
Li3 N53 1.990 . S
Li3 O61 1.961 1_655 S
Li3 O62 1.970 . S
Li3 O63 1.956 1_655 S
C4 C6 1.348 . S
C4 C7 1.356 . S
C4 O60 1.325 . S
N5 C8 1.314 . S
N5 C9 1.279 . S
C6 C4 1.348 . S
C6 C8 1.353 . S
C6 H64 0.929 . S
C7 C4 1.356 . S
C7 C9 1.358 . S
C7 H65 0.930 . S
C8 N5 1.314 . S
C8 C6 1.353 . S
C8 H66 0.930 . S
C9 N5 1.279 . S
C9 C7 1.358 . S
C9 H67 0.930 . S
C10 C13 1.348 . S
C10 C14 1.357 1_455 S
C10 O61 1.325 . S
C11 N12 1.287 . S
C11 C14 1.358 1_455 S
C11 H68 0.923 1_455 S
N12 C11 1.287 . S
N12 C15 1.314 . S
C13 C10 1.348 . S
C13 C15 1.353 . S
C13 H69 0.929 . S
C14 C10 1.357 1_655 S
C14 C11 1.358 1_655 S
C14 H70 0.928 . S
C15 N12 1.314 . S
C15 C13 1.353 . S
C15 H71 0.930 . S
C16 N17 1.314 1_655 S
C16 C21 1.353 . S
C16 H22 0.930 . S
N17 Li0 1.990 . S
N17 C16 1.314 1_455 S
N17 C19 1.279 . S
C18 C19 1.358 . S
C18 C20 1.356 . S
C18 H72 0.930 . S
C19 N17 1.279 . S
C19 C18 1.358 . S
C19 H23 0.930 . S
C20 C18 1.356 . S
C20 C21 1.348 1_455 S
C21 C16 1.353 . S
C21 C20 1.348 1_655 S
C21 H73 0.929 . S
H22 C16 0.930 . S
H23 C19 0.930 . S
C24 N25 1.314 . S
C24 C26 1.353 . S
C24 H30 0.930 . S
N25 Li1 1.990 . S
N25 C24 1.314 . S
N25 C28 1.279 . S
C26 C24 1.353 . S
C26 C29 1.348 . S
C26 H74 0.929 . S
C27 C28 1.358 . S
C27 C29 1.356 . S
C27 H75 0.930 . S
C28 N25 1.279 . S
C28 C27 1.358 . S
C28 H31 0.930 . S
C29 C26 1.348 . S
C29 C27 1.356 . S
H30 C24 0.930 . S
H31 C28 0.930 . S
C32 C34 1.348 . S
C32 C35 1.356 . S
C32 O62 1.325 . S
N33 C36 1.314 . S
N33 C37 1.279 . S
C34 C32 1.348 . S
C34 C36 1.353 . S
C34 H76 0.929 . S
C35 C32 1.356 . S
C35 C37 1.358 . S
C35 H77 0.930 . S
C36 N33 1.314 . S
C36 C34 1.353 . S
C36 H78 0.930 . S
C37 N33 1.279 . S
C37 C35 1.358 . S
C37 H79 0.930 . S
C38 C39 1.348 1_455 S
C38 C40 1.356 . S
C38 O63 1.325 . S
C39 C38 1.348 1_655 S
C39 C41 1.353 . S
C39 H80 0.929 . S
C40 C38 1.356 . S
C40 C42 1.358 . S
C40 H81 0.930 . S
C41 C39 1.353 . S
C41 N43 1.314 1_655 S
C41 H82 0.930 . S
C42 C40 1.358 . S
C42 N43 1.279 . S
C42 H83 0.930 . S
N43 C41 1.314 1_455 S
N43 C42 1.279 . S
C44 C46 1.353 . S
C44 N47 1.314 . S
C44 H50 0.930 . S
C45 N47 1.279 1_655 S
C45 C48 1.358 . S
C45 H51 0.930 . S
C46 C44 1.353 . S
C46 C49 1.348 . S
C46 H84 0.929 . S
N47 Li2 1.990 . S
N47 C44 1.314 . S
N47 C45 1.279 1_455 S
C48 C45 1.358 . S
C48 C49 1.356 1_655 S
C48 H85 0.930 . S
C49 C46 1.348 . S
C49 C48 1.356 1_455 S
H50 C44 0.930 . S
H51 C45 0.930 . S
C52 N53 1.314 . S
C52 C54 1.353 . S
C52 H58 0.930 . S
N53 Li3 1.990 . S
N53 C52 1.314 . S
N53 C56 1.279 . S
C54 C52 1.353 . S
C54 C57 1.348 . S
C54 H86 0.929 . S
C55 C56 1.358 . S
C55 C57 1.356 . S
C55 H87 0.930 . S
C56 N53 1.279 . S
C56 C55 1.358 . S
C56 H59 0.930 . S
C57 C54 1.348 . S
C57 C55 1.356 . S
H58 C52 0.930 . S
H59 C56 0.930 . S
O60 Li0 1.956 . S
O60 Li1 1.970 . S
O60 Li2 1.961 . S
O60 C4 1.325 . S
O61 Li0 1.970 . S
O61 Li1 1.956 . S
O61 Li3 1.961 1_455 S
O61 C10 1.325 . S
O62 Li0 1.961 1_655 S
O62 Li2 1.956 1_655 S
O62 Li3 1.970 . S
O62 C32 1.325 . S
O63 Li1 1.961 . S
O63 Li2 1.970 . S
O63 Li3 1.956 1_455 S
O63 C38 1.325 . S
H64 C6 0.929 . S
H65 C7 0.930 . S
H66 C8 0.930 . S
H67 C9 0.930 . S
H68 C11 0.923 1_655 S
H69 C13 0.929 . S
H70 C14 0.928 . S
H71 C15 0.930 . S
H72 C18 0.930 . S
H73 C21 0.929 . S
H74 C26 0.929 . S
H75 C27 0.930 . S
H76 C34 0.929 . S
H77 C35 0.930 . S
H78 C36 0.930 . S
H79 C37 0.930 . S
H80 C39 0.929 . S
H81 C40 0.930 . S
H82 C41 0.930 . S
H83 C42 0.930 . S
H84 C46 0.929 . S
H85 C48 0.930 . S
H86 C54 0.929 . S
H87 C55 0.930 . S
Li88 N105 1.990 . S
Li88 O148 1.956 1_655 S
Li88 O149 1.970 . S
Li88 O150 1.961 1_655 S
Li89 N113 1.990 . S
Li89 O148 1.970 . S
Li89 O149 1.956 1_455 S
Li89 O151 1.961 . S
Li90 N135 1.990 . S
Li90 O148 1.961 . S
Li90 O150 1.956 . S
Li90 O151 1.970 . S
Li91 N141 1.990 . S
Li91 O149 1.961 1_455 S
Li91 O150 1.970 . S
Li91 O151 1.956 . S
C92 C94 1.364 . S
C92 C95 1.356 . S
C92 O148 1.325 . S
N93 C96 1.328 . S
N93 C97 1.279 . S
C94 C92 1.364 . S
C94 C96 1.353 . S
C94 H152 0.916 1_455 S
C95 C92 1.356 . S
C95 C97 1.358 . S
C95 H153 0.930 . S
C96 N93 1.328 . S
C96 C94 1.353 . S
C96 H154 0.917 1_455 S
C97 N93 1.279 . S
C97 C95 1.358 . S
C97 H155 0.930 . S
C98 C101 1.348 . S
C98 C102 1.356 . S
C98 O149 1.325 . S
C99 N100 1.279 . S
C99 C102 1.358 . S
C99 H156 0.930 . S
N100 C99 1.279 . S
N100 C103 1.314 . S
C101 C98 1.348 . S
C101 C103 1.353 . S
C101 H157 0.929 . S
C102 C98 1.356 . S
C102 C99 1.358 . S
C102 H158 0.930 . S
C103 N100 1.314 . S
C103 C101 1.353 . S
C103 H159 0.930 . S
C104 N105 1.314 . S
C104 C109 1.353 . S
C104 H110 0.930 . S
N105 Li88 1.990 . S
N105 C104 1.314 . S
N105 C107 1.279 . S
C106 C107 1.358 . S
C106 C108 1.356 . S
C106 H160 0.930 . S
C107 N105 1.279 . S
C107 C106 1.358 . S
C107 H111 0.930 . S
C108 C106 1.356 . S
C108 C109 1.348 . S
C109 C104 1.353 . S
C109 C108 1.348 . S
C109 H161 0.929 . S
H110 C104 0.930 . S
H111 C107 0.930 . S
C112 N113 1.314 . S
C112 C114 1.353 . S
C112 H118 0.930 . S
N113 Li89 1.990 . S
N113 C112 1.314 . S
N113 C116 1.279 1_455 S
C114 C112 1.353 . S
C114 C117 1.348 . S
C114 H162 0.929 . S
C115 C116 1.358 . S
C115 C117 1.356 1_655 S
C115 H163 0.930 . S
C116 N113 1.279 1_655 S
C116 C115 1.358 . S
C116 H119 0.930 . S
C117 C114 1.348 . S
C117 C115 1.356 1_455 S
H118 C112 0.930 . S
H119 C116 0.930 . S
C120 C122 1.348 . S
C120 C123 1.356 . S
C120 O150 1.325 . S
N121 C124 1.314 . S
N121 C125 1.279 . S
C122 C120 1.348 . S
C122 C124 1.353 . S
C122 H164 0.929 . S
C123 C120 1.356 . S
C123 C125 1.358 . S
C123 H165 0.927 1_455 S
C124 N121 1.314 . S
C124 C122 1.353 . S
C124 H166 0.930 . S
C125 N121 1.279 . S
C125 C123 1.358 . S
C125 H167 0.926 1_455 S
C126 C127 1.348 . S
C126 C128 1.356 . S
C126 O151 1.325 . S
C127 C126 1.348 . S
C127 C129 1.353 . S
C127 H168 0.929 . S
C128 C126 1.356 . S
C128 C130 1.358 . S
C128 H169 0.930 . S
C129 C127 1.353 . S
C129 N131 1.314 . S
C129 H170 0.930 . S
C130 C128 1.358 . S
C130 N131 1.279 . S
C130 H171 0.930 . S
N131 C129 1.314 . S
N131 C130 1.279 . S
C132 C134 1.353 . S
C132 N135 1.314 . S
C132 H138 0.930 . S
C133 N135 1.279 . S
C133 C136 1.358 . S
C133 H139 0.930 . S
C134 C132 1.353 . S
C134 C137 1.348 . S
C134 H172 0.929 . S
N135 Li90 1.990 . S
N135 C132 1.314 . S
N135 C133 1.279 . S
C136 C133 1.358 . S
C136 C137 1.356 . S
C136 H173 0.930 . S
C137 C134 1.348 . S
C137 C136 1.356 . S
H138 C132 0.930 . S
H139 C133 0.930 . S
C140 N141 1.314 1_655 S
C140 C142 1.353 . S
C140 H146 0.930 . S
N141 Li91 1.990 . S
N141 C140 1.314 1_455 S
N141 C144 1.279 . S
C142 C140 1.353 . S
C142 C145 1.348 1_655 S
C142 H174 0.929 . S
C143 C144 1.358 . S
C143 C145 1.356 . S
C143 H175 0.930 . S
C144 N141 1.279 . S
C144 C143 1.358 . S
C144 H147 0.930 . S
C145 C142 1.348 1_455 S
C145 C143 1.356 . S
H146 C140 0.930 . S
H147 C144 0.930 . S
O148 Li88 1.956 1_455 S
O148 Li89 1.970 . S
O148 Li90 1.961 . S
O148 C92 1.325 . S
O149 Li88 1.970 . S
O149 Li89 1.956 1_655 S
O149 Li91 1.961 1_655 S
O149 C98 1.325 . S
O150 Li88 1.961 1_455 S
O150 Li90 1.956 . S
O150 Li91 1.970 . S
O150 C120 1.325 . S
O151 Li89 1.961 . S
O151 Li90 1.970 . S
O151 Li91 1.956 . S
O151 C126 1.325 . S
H152 C94 0.916 1_655 S
H153 C95 0.930 . S
H154 C96 0.917 1_655 S
H155 C97 0.930 . S
H156 C99 0.930 . S
H157 C101 0.929 . S
H158 C102 0.930 . S
H159 C103 0.930 . S
H160 C106 0.930 . S
H161 C109 0.929 . S
H162 C114 0.929 . S
H163 C115 0.930 . S
H164 C122 0.929 . S
H165 C123 0.927 1_655 S
H166 C124 0.930 . S
H167 C125 0.926 1_655 S
H168 C127 0.929 . S
H169 C128 0.930 . S
H170 C129 0.930 . S
H171 C130 0.930 . S
H172 C134 0.929 . S
H173 C136 0.930 . S
H174 C142 0.929 . S
H175 C143 0.930 . S
Li176 N193 1.990 . S
Li176 O236 1.956 . S
Li176 O237 1.970 . S
Li176 O238 1.961 . S
Li177 N201 1.990 . S
Li177 O236 1.970 . S
Li177 O237 1.956 . S
Li177 O239 1.961 . S
Li178 N223 1.990 . S
Li178 O236 1.961 . S
Li178 O238 1.956 . S
Li178 O239 1.970 . S
Li179 N229 1.990 . S
Li179 O237 1.961 . S
Li179 O238 1.970 . S
Li179 O239 1.956 . S
C180 C182 1.348 . S
C180 C183 1.356 . S
C180 O236 1.325 . S
N181 C184 1.314 . S
N181 C185 1.279 . S
C182 C180 1.348 . S
C182 C184 1.353 . S
C182 H240 0.929 . S
C183 C180 1.356 . S
C183 C185 1.358 . S
C183 H241 0.930 . S
C184 N181 1.314 . S
C184 C182 1.353 . S
C184 H242 0.930 . S
C185 N181 1.279 . S
C185 C183 1.358 . S
C185 H243 0.930 . S
C186 C189 1.348 . S
C186 C190 1.356 . S
C186 O237 1.325 . S
C187 N188 1.279 . S
C187 C190 1.358 . S
C187 H244 0.930 . S
N188 C187 1.279 . S
N188 C191 1.314 . S
C189 C186 1.348 . S
C189 C191 1.353 . S
C189 H245 0.929 . S
C190 C186 1.356 . S
C190 C187 1.358 . S
C190 H246 0.930 . S
C191 N188 1.314 . S
C191 C189 1.353 . S
C191 H247 0.930 . S
C192 N193 1.314 . S
C192 C197 1.353 . S
C192 H198 0.930 . S
N193 Li176 1.990 . S
N193 C192 1.314 . S
N193 C195 1.279 . S
C194 C195 1.358 . S
C194 C196 1.356 . S
C194 H248 0.930 . S
C195 N193 1.279 . S
C195 C194 1.358 . S
C195 H199 0.930 . S
C196 C194 1.356 . S
C196 C197 1.348 . S
C197 C192 1.353 . S
C197 C196 1.348 . S
C197 H249 0.929 . S
H198 C192 0.930 . S
H199 C195 0.930 . S
C200 N201 1.314 . S
C200 C202 1.353 . S
C200 H206 0.930 . S
N201 Li177 1.990 . S
N201 C200 1.314 . S
N201 C204 1.279 . S
C202 C200 1.353 . S
C202 C205 1.348 . S
C202 H250 0.929 . S
C203 C204 1.358 . S
C203 C205 1.356 . S
C203 H251 0.930 . S
C204 N201 1.279 . S
C204 C203 1.358 . S
C204 H207 0.930 . S
C205 C202 1.348 . S
C205 C203 1.356 . S
H206 C200 0.930 . S
H207 C204 0.930 . S
C208 C210 1.348 . S
C208 C211 1.356 . S
C208 O238 1.325 . S
N209 C212 1.314 . S
N209 C213 1.279 . S
C210 C208 1.348 . S
C210 C212 1.353 . S
C210 H252 0.929 . S
C211 C208 1.356 . S
C211 C213 1.358 . S
C211 H253 0.930 . S
C212 N209 1.314 . S
C212 C210 1.353 . S
C212 H254 0.930 . S
C213 N209 1.279 . S
C213 C211 1.358 . S
C213 H255 0.930 . S
C214 C215 1.348 . S
C214 C216 1.356 . S
C214 O239 1.325 . S
C215 C214 1.348 . S
C215 C217 1.353 . S
C215 H256 0.929 . S
C216 C214 1.356 . S
C216 C218 1.358 . S
C216 H257 0.930 . S
C217 C215 1.353 . S
C217 N219 1.314 . S
C217 H258 0.930 . S
C218 C216 1.358 . S
C218 N219 1.279 . S
C218 H259 0.930 . S
N219 C217 1.314 . S
N219 C218 1.279 . S
C220 C222 1.353 . S
C220 N223 1.314 . S
C220 H226 0.930 . S
C221 N223 1.279 . S
C221 C224 1.358 . S
C221 H227 0.930 . S
C222 C220 1.353 . S
C222 C225 1.348 . S
C222 H260 0.929 . S
N223 Li178 1.990 . S
N223 C220 1.314 . S
N223 C221 1.279 . S
C224 C221 1.358 . S
C224 C225 1.356 . S
C224 H261 0.930 . S
C225 C222 1.348 . S
C225 C224 1.356 . S
H226 C220 0.930 . S
H227 C221 0.930 . S
C228 N229 1.314 . S
C228 C230 1.353 . S
C228 H234 0.930 . S
N229 Li179 1.990 . S
N229 C228 1.314 . S
N229 C232 1.279 . S
C230 C228 1.353 . S
C230 C233 1.348 . S
C230 H262 0.929 . S
C231 C232 1.358 . S
C231 C233 1.356 . S
C231 H263 0.930 . S
C232 N229 1.279 . S
C232 C231 1.358 . S
C232 H235 0.930 . S
C233 C230 1.348 . S
C233 C231 1.356 . S
H234 C228 0.930 . S
H235 C232 0.930 . S
O236 Li176 1.956 . S
O236 Li177 1.970 . S
O236 Li178 1.961 . S
O236 C180 1.325 . S
O237 Li176 1.970 . S
O237 Li177 1.956 . S
O237 Li179 1.961 . S
O237 C186 1.325 . S
O238 Li176 1.961 . S
O238 Li178 1.956 . S
O238 Li179 1.970 . S
O238 C208 1.325 . S
O239 Li177 1.961 . S
O239 Li178 1.970 . S
O239 Li179 1.956 . S
O239 C214 1.325 . S
H240 C182 0.929 . S
H241 C183 0.930 . S
H242 C184 0.930 . S
H243 C185 0.930 . S
H244 C187 0.930 . S
H245 C189 0.929 . S
H246 C190 0.930 . S
H247 C191 0.930 . S
H248 C194 0.930 . S
H249 C197 0.929 . S
H250 C202 0.929 . S
H251 C203 0.930 . S
H252 C210 0.929 . S
H253 C211 0.930 . S
H254 C212 0.930 . S
H255 C213 0.930 . S
H256 C215 0.929 . S
H257 C216 0.930 . S
H258 C217 0.930 . S
H259 C218 0.930 . S
H260 C222 0.929 . S
H261 C224 0.930 . S
H262 C230 0.929 . S
H263 C231 0.930 . S
Li264 N281 1.990 . S
Li264 O324 1.956 . S
Li264 O325 1.970 . S
Li264 O326 1.961 . S
Li265 N289 1.990 . S
Li265 O324 1.970 . S
Li265 O325 1.956 . S
Li265 O327 1.961 . S
Li266 N311 1.990 . S
Li266 O324 1.961 . S
Li266 O326 1.956 . S
Li266 O327 1.970 . S
Li267 N317 1.990 . S
Li267 O325 1.961 . S
Li267 O326 1.970 . S
Li267 O327 1.956 . S
C268 C270 1.348 . S
C268 C271 1.356 . S
C268 O324 1.325 . S
N269 C272 1.314 . S
N269 C273 1.279 . S
C270 C268 1.348 . S
C270 C272 1.353 . S
C270 H328 0.929 . S
C271 C268 1.356 . S
C271 C273 1.358 . S
C271 H329 0.930 . S
C272 N269 1.314 . S
C272 C270 1.353 . S
C272 H330 0.930 . S
C273 N269 1.279 . S
C273 C271 1.358 . S
C273 H331 0.930 . S
C274 C277 1.348 . S
C274 C278 1.356 . S
C274 O325 1.325 . S
C275 N276 1.279 . S
C275 C278 1.358 . S
C275 H332 0.930 . S
N276 C275 1.279 . S
N276 C279 1.314 . S
C277 C274 1.348 . S
C277 C279 1.353 . S
C277 H333 0.929 . S
C278 C274 1.356 . S
C278 C275 1.358 . S
C278 H334 0.930 . S
C279 N276 1.314 . S
C279 C277 1.353 . S
C279 H335 0.930 . S
C280 N281 1.314 . S
C280 C285 1.353 . S
C280 H286 0.930 . S
N281 Li264 1.990 . S
N281 C280 1.314 . S
N281 C283 1.279 . S
C282 C283 1.358 . S
C282 C284 1.356 . S
C282 H336 0.930 . S
C283 N281 1.279 . S
C283 C282 1.358 . S
C283 H287 0.930 . S
C284 C282 1.356 . S
C284 C285 1.348 . S
C285 C280 1.353 . S
C285 C284 1.348 . S
C285 H337 0.929 . S
H286 C280 0.930 . S
H287 C283 0.930 . S
C288 N289 1.314 . S
C288 C290 1.353 . S
C288 H294 0.930 . S
N289 Li265 1.990 . S
N289 C288 1.314 . S
N289 C292 1.279 . S
C290 C288 1.353 . S
C290 C293 1.348 . S
C290 H338 0.929 . S
C291 C292 1.358 . S
C291 C293 1.356 . S
C291 H339 0.930 . S
C292 N289 1.279 . S
C292 C291 1.358 . S
C292 H295 0.930 . S
C293 C290 1.348 . S
C293 C291 1.356 . S
H294 C288 0.930 . S
H295 C292 0.930 . S
C296 C298 1.348 . S
C296 C299 1.356 . S
C296 O326 1.325 . S
N297 C300 1.314 . S
N297 C301 1.279 . S
C298 C296 1.348 . S
C298 C300 1.353 . S
C298 H340 0.929 . S
C299 C296 1.356 . S
C299 C301 1.358 . S
C299 H341 0.930 . S
C300 N297 1.314 . S
C300 C298 1.353 . S
C300 H342 0.930 . S
C301 N297 1.279 . S
C301 C299 1.358 . S
C301 H343 0.930 . S
C302 C303 1.348 . S
C302 C304 1.356 . S
C302 O327 1.325 . S
C303 C302 1.348 . S
C303 C305 1.353 . S
C303 H344 0.929 . S
C304 C302 1.356 . S
C304 C306 1.358 . S
C304 H345 0.930 . S
C305 C303 1.353 . S
C305 N307 1.314 . S
C305 H346 0.930 . S
C306 C304 1.358 . S
C306 N307 1.279 . S
C306 H347 0.930 . S
N307 C305 1.314 . S
N307 C306 1.279 . S
C308 C310 1.353 . S
C308 N311 1.314 . S
C308 H314 0.930 . S
C309 N311 1.279 . S
C309 C312 1.358 . S
C309 H315 0.930 . S
C310 C308 1.353 . S
C310 C313 1.348 . S
C310 H348 0.929 . S
N311 Li266 1.990 . S
N311 C308 1.314 . S
N311 C309 1.279 . S
C312 C309 1.358 . S
C312 C313 1.356 . S
C312 H349 0.930 . S
C313 C310 1.348 . S
C313 C312 1.356 . S
H314 C308 0.930 . S
H315 C309 0.930 . S
C316 N317 1.314 . S
C316 C318 1.353 . S
C316 H322 0.930 . S
N317 Li267 1.990 . S
N317 C316 1.314 . S
N317 C320 1.279 . S
C318 C316 1.353 . S
C318 C321 1.348 . S
C318 H350 0.929 . S
C319 C320 1.358 . S
C319 C321 1.356 . S
C319 H351 0.930 . S
C320 N317 1.279 . S
C320 C319 1.358 . S
C320 H323 0.930 . S
C321 C318 1.348 . S
C321 C319 1.356 . S
H322 C316 0.930 . S
H323 C320 0.930 . S
O324 Li264 1.956 . S
O324 Li265 1.970 . S
O324 Li266 1.961 . S
O324 C268 1.325 . S
O325 Li264 1.970 . S
O325 Li265 1.956 . S
O325 Li267 1.961 . S
O325 C274 1.325 . S
O326 Li264 1.961 . S
O326 Li266 1.956 . S
O326 Li267 1.970 . S
O326 C296 1.325 . S
O327 Li265 1.961 . S
O327 Li266 1.970 . S
O327 Li267 1.956 . S
O327 C302 1.325 . S
H328 C270 0.929 . S
H329 C271 0.930 . S
H330 C272 0.930 . S
H331 C273 0.930 . S
H332 C275 0.930 . S
H333 C277 0.929 . S
H334 C278 0.930 . S
H335 C279 0.930 . S
H336 C282 0.930 . S
H337 C285 0.929 . S
H338 C290 0.929 . S
H339 C291 0.930 . S
H340 C298 0.929 . S
H341 C299 0.930 . S
H342 C300 0.930 . S
H343 C301 0.930 . S
H344 C303 0.929 . S
H345 C304 0.930 . S
H346 C305 0.930 . S
H347 C306 0.930 . S
H348 C310 0.929 . S
H349 C312 0.930 . S
H350 C318 0.929 . S
H351 C319 0.930 . S
Li352 N369 1.990 . S
Li352 O412 1.956 . S
Li352 O413 1.970 . S
Li352 O414 1.961 1_545 S
Li353 N377 1.990 . S
Li353 O412 1.970 . S
Li353 O413 1.956 . S
Li353 O415 1.961 . S
Li354 N399 1.990 . S
Li354 O412 1.961 . S
Li354 O414 1.956 1_545 S
Li354 O415 1.970 . S
Li355 N405 1.990 . S
Li355 O413 1.961 1_565 S
Li355 O414 1.970 . S
Li355 O415 1.956 1_565 S
C356 C358 1.348 . S
C356 C359 1.356 . S
C356 O412 1.325 . S
N357 C360 1.314 . S
N357 C361 1.279 . S
C358 C356 1.348 . S
C358 C360 1.353 . S
C358 H416 0.929 . S
C359 C356 1.356 . S
C359 C361 1.358 . S
C359 H417 0.930 . S
C360 N357 1.314 . S
C360 C358 1.353 . S
C360 H418 0.930 . S
C361 N357 1.279 . S
C361 C359 1.358 . S
C361 H419 0.930 . S
C362 C365 1.348 . S
C362 C366 1.356 1_545 S
C362 O413 1.325 . S
C363 N364 1.268 1_565 S
C363 C366 1.361 . S
C363 H420 0.943 . S
N364 C363 1.268 1_545 S
N364 C367 1.314 . S
C365 C362 1.348 . S
C365 C367 1.353 . S
C365 H421 0.929 . S
C366 C362 1.356 1_565 S
C366 C363 1.361 . S
C366 H422 0.930 . S
C367 N364 1.314 . S
C367 C365 1.353 . S
C367 H423 0.930 . S
C368 N369 1.314 1_565 S
C368 C373 1.353 . S
C368 H374 0.930 . S
N369 Li352 1.990 . S
N369 C368 1.314 1_545 S
N369 C371 1.279 . S
C370 C371 1.358 . S
C370 C372 1.356 . S
C370 H424 0.930 . S
C371 N369 1.279 . S
C371 C370 1.358 . S
C371 H375 0.930 . S
C372 C370 1.356 . S
C372 C373 1.348 1_545 S
C373 C368 1.353 . S
C373 C372 1.348 1_565 S
C373 H425 0.929 . S
H374 C368 0.930 . S
H375 C371 0.930 . S
C376 N377 1.314 . S
C376 C378 1.353 . S
C376 H382 0.930 . S
N377 Li353 1.990 . S
N377 C376 1.314 . S
N377 C380 1.279 . S
C378 C376 1.353 . S
C378 C381 1.348 . S
C378 H426 0.929 . S
C379 C380 1.358 . S
C379 C381 1.356 . S
C379 H427 0.930 . S
C380 N377 1.279 . S
C380 C379 1.358 . S
C380 H383 0.930 . S
C381 C378 1.348 . S
C381 C379 1.356 . S
H382 C376 0.930 . S
H383 C380 0.930 . S
C384 C386 1.348 . S
C384 C387 1.356 . S
C384 O414 1.325 . S
N385 C388 1.314 . S
N385 C389 1.279 . S
C386 C384 1.348 . S
C386 C388 1.353 . S
C386 H428 0.929 . S
C387 C384 1.356 . S
C387 C389 1.358 . S
C387 H429 0.930 . S
C388 N385 1.314 . S
C388 C386 1.353 . S
C388 H430 0.930 . S
C389 N385 1.279 . S
C389 C387 1.358 . S
C389 H431 0.930 . S
C390 C391 1.348 1_545 S
C390 C392 1.356 . S
C390 O415 1.325 . S
C391 C390 1.348 1_565 S
C391 C393 1.353 . S
C391 H432 0.929 . S
C392 C390 1.356 . S
C392 C394 1.358 . S
C392 H433 0.930 . S
C393 C391 1.353 . S
C393 N395 1.304 1_565 S
C393 H434 0.930 . S
C394 C392 1.358 . S
C394 N395 1.292 . S
C394 H435 0.930 . S
N395 C393 1.304 1_545 S
N395 C394 1.292 . S
C396 C398 1.353 . S
C396 N399 1.314 . S
C396 H402 0.930 . S
C397 N399 1.279 1_565 S
C397 C400 1.358 . S
C397 H403 0.930 . S
C398 C396 1.353 . S
C398 C401 1.348 . S
C398 H436 0.929 . S
N399 Li354 1.990 . S
N399 C396 1.314 . S
N399 C397 1.279 1_545 S
C400 C397 1.358 . S
C400 C401 1.356 1_565 S
C400 H437 0.930 . S
C401 C398 1.348 . S
C401 C400 1.356 1_545 S
H402 C396 0.930 . S
H403 C397 0.930 . S
C404 N405 1.314 . S
C404 C406 1.353 . S
C404 H410 0.930 . S
N405 Li355 1.990 . S
N405 C404 1.314 . S
N405 C408 1.279 . S
C406 C404 1.353 . S
C406 C409 1.348 . S
C406 H438 0.929 . S
C407 C408 1.358 . S
C407 C409 1.356 . S
C407 H439 0.930 . S
C408 N405 1.279 . S
C408 C407 1.358 . S
C408 H411 0.930 . S
C409 C406 1.348 . S
C409 C407 1.356 . S
H410 C404 0.930 . S
H411 C408 0.930 . S
O412 Li352 1.956 . S
O412 Li353 1.970 . S
O412 Li354 1.961 . S
O412 C356 1.325 . S
O413 Li352 1.970 . S
O413 Li353 1.956 . S
O413 Li355 1.961 1_545 S
O413 C362 1.325 . S
O414 Li352 1.961 1_565 S
O414 Li354 1.956 1_565 S
O414 Li355 1.970 . S
O414 C384 1.325 . S
O415 Li353 1.961 . S
O415 Li354 1.970 . S
O415 Li355 1.956 1_545 S
O415 C390 1.325 . S
H416 C358 0.929 . S
H417 C359 0.930 . S
H418 C360 0.930 . S
H419 C361 0.930 . S
H420 C363 0.943 . S
H421 C365 0.929 . S
H422 C366 0.930 . S
H423 C367 0.930 . S
H424 C370 0.930 . S
H425 C373 0.929 . S
H426 C378 0.929 . S
H427 C379 0.930 . S
H428 C386 0.929 . S
H429 C387 0.930 . S
H430 C388 0.930 . S
H431 C389 0.930 . S
H432 C391 0.929 . S
H433 C392 0.930 . S
H434 C393 0.930 . S
H435 C394 0.930 . S
H436 C398 0.929 . S
H437 C400 0.930 . S
H438 C406 0.929 . S
H439 C407 0.930 . S
Li440 N457 1.990 . S
Li440 O500 1.956 . S
Li440 O501 1.970 . S
Li440 O502 1.961 . S
Li441 N465 1.990 . S
Li441 O500 1.970 . S
Li441 O501 1.956 . S
Li441 O503 1.961 . S
Li442 N487 1.990 . S
Li442 O500 1.961 . S
Li442 O502 1.956 . S
Li442 O503 1.970 . S
Li443 N493 1.990 . S
Li443 O501 1.961 . S
Li443 O502 1.970 . S
Li443 O503 1.956 . S
C444 C446 1.348 . S
C444 C447 1.356 . S
C444 O500 1.325 . S
N445 C448 1.314 . S
N445 C449 1.279 . S
C446 C444 1.348 . S
C446 C448 1.353 . S
C446 H504 0.929 . S
C447 C444 1.356 . S
C447 C449 1.358 . S
C447 H505 0.930 . S
C448 N445 1.314 . S
C448 C446 1.353 . S
C448 H506 0.930 . S
C449 N445 1.279 . S
C449 C447 1.358 . S
C449 H507 0.930 . S
C450 C453 1.348 . S
C450 C454 1.356 . S
C450 O501 1.325 . S
C451 N452 1.279 . S
C451 C454 1.358 . S
C451 H508 0.930 . S
N452 C451 1.279 . S
N452 C455 1.314 . S
C453 C450 1.348 . S
C453 C455 1.353 . S
C453 H509 0.929 . S
C454 C450 1.356 . S
C454 C451 1.358 . S
C454 H510 0.930 . S
C455 N452 1.314 . S
C455 C453 1.353 . S
C455 H511 0.930 . S
C456 N457 1.314 . S
C456 C461 1.353 . S
C456 H462 0.930 . S
N457 Li440 1.990 . S
N457 C456 1.314 . S
N457 C459 1.279 . S
C458 C459 1.358 . S
C458 C460 1.356 . S
C458 H512 0.930 . S
C459 N457 1.279 . S
C459 C458 1.358 . S
C459 H463 0.930 . S
C460 C458 1.356 . S
C460 C461 1.348 . S
C461 C456 1.353 . S
C461 C460 1.348 . S
C461 H513 0.929 . S
H462 C456 0.930 . S
H463 C459 0.930 . S
C464 N465 1.314 . S
C464 C466 1.353 . S
C464 H470 0.930 . S
N465 Li441 1.990 . S
N465 C464 1.314 . S
N465 C468 1.279 . S
C466 C464 1.353 . S
C466 C469 1.348 . S
C466 H514 0.929 . S
C467 C468 1.358 . S
C467 C469 1.356 . S
C467 H515 0.930 . S
C468 N465 1.279 . S
C468 C467 1.358 . S
C468 H471 0.930 . S
C469 C466 1.348 . S
C469 C467 1.356 . S
H470 C464 0.930 . S
H471 C468 0.930 . S
C472 C474 1.348 . S
C472 C475 1.356 . S
C472 O502 1.325 . S
N473 C476 1.314 . S
N473 C477 1.279 . S
C474 C472 1.348 . S
C474 C476 1.353 . S
C474 H516 0.929 . S
C475 C472 1.356 . S
C475 C477 1.358 . S
C475 H517 0.930 . S
C476 N473 1.314 . S
C476 C474 1.353 . S
C476 H518 0.930 . S
C477 N473 1.279 . S
C477 C475 1.358 . S
C477 H519 0.930 . S
C478 C479 1.348 . S
C478 C480 1.356 . S
C478 O503 1.325 . S
C479 C478 1.348 . S
C479 C481 1.353 . S
C479 H520 0.929 . S
C480 C478 1.356 . S
C480 C482 1.358 . S
C480 H521 0.930 . S
C481 C479 1.353 . S
C481 N483 1.314 . S
C481 H522 0.930 . S
C482 C480 1.358 . S
C482 N483 1.279 . S
C482 H523 0.930 . S
N483 C481 1.314 . S
N483 C482 1.279 . S
C484 C486 1.353 . S
C484 N487 1.314 . S
C484 H490 0.930 . S
C485 N487 1.279 . S
C485 C488 1.358 . S
C485 H491 0.930 . S
C486 C484 1.353 . S
C486 C489 1.348 . S
C486 H524 0.929 . S
N487 Li442 1.990 . S
N487 C484 1.314 . S
N487 C485 1.279 . S
C488 C485 1.358 . S
C488 C489 1.356 . S
C488 H525 0.930 . S
C489 C486 1.348 . S
C489 C488 1.356 . S
H490 C484 0.930 . S
H491 C485 0.930 . S
C492 N493 1.314 . S
C492 C494 1.353 . S
C492 H498 0.930 . S
N493 Li443 1.990 . S
N493 C492 1.314 . S
N493 C496 1.279 . S
C494 C492 1.353 . S
C494 C497 1.348 . S
C494 H526 0.929 . S
C495 C496 1.358 . S
C495 C497 1.356 . S
C495 H527 0.930 . S
C496 N493 1.279 . S
C496 C495 1.358 . S
C496 H499 0.930 . S
C497 C494 1.348 . S
C497 C495 1.356 . S
H498 C492 0.930 . S
H499 C496 0.930 . S
O500 Li440 1.956 . S
O500 Li441 1.970 . S
O500 Li442 1.961 . S
O500 C444 1.325 . S
O501 Li440 1.970 . S
O501 Li441 1.956 . S
O501 Li443 1.961 . S
O501 C450 1.325 . S
O502 Li440 1.961 . S
O502 Li442 1.956 . S
O502 Li443 1.970 . S
O502 C472 1.325 . S
O503 Li441 1.961 . S
O503 Li442 1.970 . S
O503 Li443 1.956 . S
O503 C478 1.325 . S
H504 C446 0.929 . S
H505 C447 0.930 . S
H506 C448 0.930 . S
H507 C449 0.930 . S
H508 C451 0.930 . S
H509 C453 0.929 . S
H510 C454 0.930 . S
H511 C455 0.930 . S
H512 C458 0.930 . S
H513 C461 0.929 . S
H514 C466 0.929 . S
H515 C467 0.930 . S
H516 C474 0.929 . S
H517 C475 0.930 . S
H518 C476 0.930 . S
H519 C477 0.930 . S
H520 C479 0.929 . S
H521 C480 0.930 . S
H522 C481 0.930 . S
H523 C482 0.930 . S
H524 C486 0.929 . S
H525 C488 0.930 . S
H526 C494 0.929 . S
H527 C495 0.930 . S
Li528 N545 1.990 . S
Li528 O588 1.956 1_565 S
Li528 O589 1.970 . S
Li528 O590 1.961 1_565 S
Li529 N553 1.990 . S
Li529 O588 1.970 . S
Li529 O589 1.956 1_545 S
Li529 O591 1.961 . S
Li530 N575 1.990 . S
Li530 O588 1.961 . S
Li530 O590 1.956 . S
Li530 O591 1.970 . S
Li531 N581 1.990 . S
Li531 O589 1.961 1_545 S
Li531 O590 1.970 . S
Li531 O591 1.956 . S
C532 C534 1.353 . S
C532 C535 1.356 . S
C532 O588 1.325 . S
N533 C536 1.317 . S
N533 C537 1.279 . S
C534 C532 1.353 . S
C534 C536 1.353 . S
C534 H592 0.924 1_545 S
C535 C532 1.356 . S
C535 C537 1.358 . S
C535 H593 0.930 . S
C536 N533 1.317 . S
C536 C534 1.353 . S
C536 H594 0.926 1_545 S
C537 N533 1.279 . S
C537 C535 1.358 . S
C537 H595 0.930 . S
C538 C541 1.348 . S
C538 C542 1.356 . S
C538 O589 1.325 . S
C539 N540 1.279 . S
C539 C542 1.358 . S
C539 H596 0.930 . S
N540 C539 1.279 . S
N540 C543 1.314 . S
C541 C538 1.348 . S
C541 C543 1.353 . S
C541 H597 0.929 . S
C542 C538 1.356 . S
C542 C539 1.358 . S
C542 H598 0.930 . S
C543 N540 1.314 . S
C543 C541 1.353 . S
C543 H599 0.930 . S
C544 N545 1.314 . S
C544 C549 1.353 . S
C544 H550 0.930 . S
N545 Li528 1.990 . S
N545 C544 1.314 . S
N545 C547 1.279 . S
C546 C547 1.358 . S
C546 C548 1.356 . S
C546 H600 0.930 . S
C547 N545 1.279 . S
C547 C546 1.358 . S
C547 H551 0.930 . S
C548 C546 1.356 . S
C548 C549 1.348 . S
C549 C544 1.353 . S
C549 C548 1.348 . S
C549 H601 0.929 . S
H550 C544 0.930 . S
H551 C547 0.930 . S
C552 N553 1.314 . S
C552 C554 1.353 . S
C552 H558 0.930 . S
N553 Li529 1.990 . S
N553 C552 1.314 . S
N553 C556 1.279 1_545 S
C554 C552 1.353 . S
C554 C557 1.348 . S
C554 H602 0.929 . S
C555 C556 1.358 . S
C555 C557 1.356 1_565 S
C555 H603 0.930 . S
C556 N553 1.279 1_565 S
C556 C555 1.358 . S
C556 H559 0.930 . S
C557 C554 1.348 . S
C557 C555 1.356 1_545 S
H558 C552 0.930 . S
H559 C556 0.930 . S
C560 C562 1.348 . S
C560 C563 1.356 . S
C560 O590 1.325 . S
N561 C564 1.314 . S
N561 C565 1.279 . S
C562 C560 1.348 . S
C562 C564 1.353 . S
C562 H604 0.929 . S
C563 C560 1.356 . S
C563 C565 1.358 . S
C563 H605 0.929 1_545 S
C564 N561 1.314 . S
C564 C562 1.353 . S
C564 H606 0.930 . S
C565 N561 1.279 . S
C565 C563 1.358 . S
C565 H607 0.932 1_545 S
C566 C567 1.348 . S
C566 C568 1.356 . S
C566 O591 1.325 . S
C567 C566 1.348 . S
C567 C569 1.353 . S
C567 H608 0.929 . S
C568 C566 1.356 . S
C568 C570 1.358 . S
C568 H609 0.930 . S
C569 C567 1.353 . S
C569 N571 1.314 . S
C569 H610 0.930 . S
C570 C568 1.358 . S
C570 N571 1.279 . S
C570 H611 0.930 . S
N571 C569 1.314 . S
N571 C570 1.279 . S
C572 C574 1.353 . S
C572 N575 1.314 . S
C572 H578 0.930 . S
C573 N575 1.279 . S
C573 C576 1.358 . S
C573 H579 0.930 . S
C574 C572 1.353 . S
C574 C577 1.348 . S
C574 H612 0.929 . S
N575 Li530 1.990 . S
N575 C572 1.314 . S
N575 C573 1.279 . S
C576 C573 1.358 . S
C576 C577 1.356 . S
C576 H613 0.930 . S
C577 C574 1.348 . S
C577 C576 1.356 . S
H578 C572 0.930 . S
H579 C573 0.930 . S
C580 N581 1.314 1_565 S
C580 C582 1.353 . S
C580 H586 0.930 . S
N581 Li531 1.990 . S
N581 C580 1.314 1_545 S
N581 C584 1.279 . S
C582 C580 1.353 . S
C582 C585 1.348 1_565 S
C582 H614 0.929 . S
C583 C584 1.358 . S
C583 C585 1.356 . S
C583 H615 0.930 . S
C584 N581 1.279 . S
C584 C583 1.358 . S
C584 H587 0.930 . S
C585 C582 1.348 1_545 S
C585 C583 1.356 . S
H586 C580 0.930 . S
H587 C584 0.930 . S
O588 Li528 1.956 1_545 S
O588 Li529 1.970 . S
O588 Li530 1.961 . S
O588 C532 1.325 . S
O589 Li528 1.970 . S
O589 Li529 1.956 1_565 S
O589 Li531 1.961 1_565 S
O589 C538 1.325 . S
O590 Li528 1.961 1_545 S
O590 Li530 1.956 . S
O590 Li531 1.970 . S
O590 C560 1.325 . S
O591 Li529 1.961 . S
O591 Li530 1.970 . S
O591 Li531 1.956 . S
O591 C566 1.325 . S
H592 C534 0.924 1_565 S
H593 C535 0.930 . S
H594 C536 0.926 1_565 S
H595 C537 0.930 . S
H596 C539 0.930 . S
H597 C541 0.929 . S
H598 C542 0.930 . S
H599 C543 0.930 . S
H600 C546 0.930 . S
H601 C549 0.929 . S
H602 C554 0.929 . S
H603 C555 0.930 . S
H604 C562 0.929 . S
H605 C563 0.929 1_565 S
H606 C564 0.930 . S
H607 C565 0.932 1_565 S
H608 C567 0.929 . S
H609 C568 0.930 . S
H610 C569 0.930 . S
H611 C570 0.930 . S
H612 C574 0.929 . S
H613 C576 0.930 . S
H614 C582 0.929 . S
H615 C583 0.930 . S
Li616 N633 1.990 . S
Li616 O676 1.956 . S
Li616 O677 1.970 . S
Li616 O678 1.961 . S
Li617 N641 1.990 . S
Li617 O676 1.970 . S
Li617 O677 1.956 . S
Li617 O679 1.961 1_554 S
Li618 N663 1.990 . S
Li618 O676 1.961 1_556 S
Li618 O678 1.956 1_556 S
Li618 O679 1.970 . S
Li619 N669 1.990 . S
Li619 O677 1.961 . S
Li619 O678 1.970 . S
Li619 O679 1.956 1_554 S
C620 C622 1.348 . S
C620 C623 1.356 . S
C620 O676 1.325 . S
N621 C624 1.314 . S
N621 C625 1.279 . S
C622 C620 1.348 . S
C622 C624 1.353 . S
C622 H680 0.929 . S
C623 C620 1.356 . S
C623 C625 1.358 . S
C623 H681 0.920 1_554 S
C624 N621 1.314 . S
C624 C622 1.353 . S
C624 H682 0.930 . S
C625 N621 1.279 . S
C625 C623 1.358 . S
C625 H683 0.921 1_554 S
C626 C629 1.348 . S
C626 C630 1.356 . S
C626 O677 1.325 . S
C627 N628 1.279 . S
C627 C630 1.358 . S
C627 H684 0.930 . S
N628 C627 1.279 . S
N628 C631 1.314 . S
C629 C626 1.348 . S
C629 C631 1.353 . S
C629 H685 0.929 . S
C630 C626 1.356 . S
C630 C627 1.358 . S
C630 H686 0.930 . S
C631 N628 1.314 . S
C631 C629 1.353 . S
C631 H687 0.930 . S
C632 N633 1.314 . S
C632 C637 1.353 . S
C632 H638 0.930 . S
N633 Li616 1.990 . S
N633 C632 1.314 . S
N633 C635 1.279 . S
C634 C635 1.358 . S
C634 C636 1.356 . S
C634 H688 0.930 . S
C635 N633 1.279 . S
C635 C634 1.358 . S
C635 H639 0.930 . S
C636 C634 1.356 . S
C636 C637 1.348 . S
C637 C632 1.353 . S
C637 C636 1.348 . S
C637 H689 0.929 . S
H638 C632 0.930 . S
H639 C635 0.930 . S
C640 N641 1.314 1_556 S
C640 C642 1.353 . S
C640 H646 0.930 . S
N641 Li617 1.990 . S
N641 C640 1.314 1_554 S
N641 C644 1.279 . S
C642 C640 1.353 . S
C642 C645 1.348 1_556 S
C642 H690 0.929 . S
C643 C644 1.358 . S
C643 C645 1.356 . S
C643 H691 0.930 . S
C644 N641 1.279 . S
C644 C643 1.358 . S
C644 H647 0.930 . S
C645 C642 1.348 1_554 S
C645 C643 1.356 . S
H646 C640 0.930 . S
H647 C644 0.930 . S
C648 C650 1.345 1_554 S
C648 C651 1.356 . S
C648 O678 1.325 . S
N649 C652 1.312 1_554 S
N649 C653 1.279 . S
C650 C648 1.345 1_556 S
C650 C652 1.353 . S
C650 H692 0.932 . S
C651 C648 1.356 . S
C651 C653 1.358 . S
C651 H693 0.930 . S
C652 N649 1.312 1_556 S
C652 C650 1.353 . S
C652 H694 0.932 . S
C653 N649 1.279 . S
C653 C651 1.358 . S
C653 H695 0.930 . S
C654 C655 1.348 . S
C654 C656 1.356 . S
C654 O679 1.325 . S
C655 C654 1.348 . S
C655 C657 1.353 . S
C655 H696 0.929 . S
C656 C654 1.356 . S
C656 C658 1.358 . S
C656 H697 0.930 . S
C657 C655 1.353 . S
C657 N659 1.314 . S
C657 H698 0.930 . S
C658 C656 1.358 . S
C658 N659 1.279 . S
C658 H699 0.930 . S
N659 C657 1.314 . S
N659 C658 1.279 . S
C660 C662 1.353 . S
C660 N663 1.314 . S
C660 H666 0.930 . S
C661 N663 1.279 . S
C661 C664 1.358 . S
C661 H667 0.930 . S
C662 C660 1.353 . S
C662 C665 1.348 . S
C662 H700 0.929 . S
N663 Li618 1.990 . S
N663 C660 1.314 . S
N663 C661 1.279 . S
C664 C661 1.358 . S
C664 C665 1.356 . S
C664 H701 0.930 . S
C665 C662 1.348 . S
C665 C664 1.356 . S
H666 C660 0.930 . S
H667 C661 0.930 . S
C668 N669 1.314 . S
C668 C670 1.353 . S
C668 H674 0.930 . S
N669 Li619 1.990 . S
N669 C668 1.314 . S
N669 C672 1.279 1_554 S
C670 C668 1.353 . S
C670 C673 1.348 . S
C670 H702 0.929 . S
C671 C672 1.358 . S
C671 C673 1.356 1_556 S
C671 H703 0.930 . S
C672 N669 1.279 1_556 S
C672 C671 1.358 . S
C672 H675 0.930 . S
C673 C670 1.348 . S
C673 C671 1.356 1_554 S
H674 C668 0.930 . S
H675 C672 0.930 . S
O676 Li616 1.956 . S
O676 Li617 1.970 . S
O676 Li618 1.961 1_554 S
O676 C620 1.325 . S
O677 Li616 1.970 . S
O677 Li617 1.956 . S
O677 Li619 1.961 . S
O677 C626 1.325 . S
O678 Li616 1.961 . S
O678 Li618 1.956 1_554 S
O678 Li619 1.970 . S
O678 C648 1.325 . S
O679 Li617 1.961 1_556 S
O679 Li618 1.970 . S
O679 Li619 1.956 1_556 S
O679 C654 1.325 . S
H680 C622 0.929 . S
H681 C623 0.920 1_556 S
H682 C624 0.930 . S
H683 C625 0.921 1_556 S
H684 C627 0.930 . S
H685 C629 0.929 . S
H686 C630 0.930 . S
H687 C631 0.930 . S
H688 C634 0.930 . S
H689 C637 0.929 . S
H690 C642 0.929 . S
H691 C643 0.930 . S
H692 C650 0.932 . S
H693 C651 0.930 . S
H694 C652 0.932 . S
H695 C653 0.930 . S
H696 C655 0.929 . S
H697 C656 0.930 . S
H698 C657 0.930 . S
H699 C658 0.930 . S
H700 C662 0.929 . S
H701 C664 0.930 . S
H702 C670 0.929 . S
H703 C671 0.930 . S
Li704 N721 1.990 . S
Li704 O764 1.956 . S
Li704 O765 1.970 . S
Li704 O766 1.961 1_554 S
Li705 N729 1.990 . S
Li705 O764 1.970 . S
Li705 O765 1.956 . S
Li705 O767 1.961 . S
Li706 N751 1.990 . S
Li706 O764 1.961 . S
Li706 O766 1.956 1_554 S
Li706 O767 1.970 . S
Li707 N757 1.990 . S
Li707 O765 1.961 1_556 S
Li707 O766 1.970 . S
Li707 O767 1.956 1_556 S
C708 C710 1.348 . S
C708 C711 1.356 . S
C708 O764 1.325 . S
N709 C712 1.314 . S
N709 C713 1.279 . S
C710 C708 1.348 . S
C710 C712 1.353 . S
C710 H768 0.929 . S
C711 C708 1.356 . S
C711 C713 1.358 . S
C711 H769 0.930 . S
C712 N709 1.314 . S
C712 C710 1.353 . S
C712 H770 0.930 . S
C713 N709 1.279 . S
C713 C711 1.358 . S
C713 H771 0.930 . S
C714 C717 1.348 . S
C714 C718 1.356 . S
C714 O765 1.325 . S
C715 N716 1.279 . S
C715 C718 1.358 . S
C715 H772 0.930 1_554 S
N716 C715 1.279 . S
N716 C719 1.314 . S
C717 C714 1.348 . S
C717 C719 1.353 . S
C717 H773 0.929 . S
C718 C714 1.356 . S
C718 C715 1.358 . S
C718 H774 0.930 1_554 S
C719 N716 1.314 . S
C719 C717 1.353 . S
C719 H775 0.930 . S
C720 N721 1.314 1_556 S
C720 C725 1.353 . S
C720 H726 0.930 . S
N721 Li704 1.990 . S
N721 C720 1.314 1_554 S
N721 C723 1.279 . S
C722 C723 1.358 . S
C722 C724 1.356 . S
C722 H776 0.930 . S
C723 N721 1.279 . S
C723 C722 1.358 . S
C723 H727 0.930 . S
C724 C722 1.356 . S
C724 C725 1.348 1_554 S
C725 C720 1.353 . S
C725 C724 1.348 1_556 S
C725 H777 0.929 . S
H726 C720 0.930 . S
H727 C723 0.930 . S
C728 N729 1.314 . S
C728 C730 1.353 . S
C728 H734 0.930 . S
N729 Li705 1.990 . S
N729 C728 1.314 . S
N729 C732 1.279 . S
C730 C728 1.353 . S
C730 C733 1.348 . S
C730 H778 0.929 . S
C731 C732 1.358 . S
C731 C733 1.356 . S
C731 H779 0.930 . S
C732 N729 1.279 . S
C732 C731 1.358 . S
C732 H735 0.930 . S
C733 C730 1.348 . S
C733 C731 1.356 . S
H734 C728 0.930 . S
H735 C732 0.930 . S
C736 C738 1.348 . S
C736 C739 1.356 . S
C736 O766 1.325 . S
N737 C740 1.314 . S
N737 C741 1.279 . S
C738 C736 1.348 . S
C738 C740 1.353 . S
C738 H780 0.929 . S
C739 C736 1.356 . S
C739 C741 1.358 . S
C739 H781 0.930 . S
C740 N737 1.314 . S
C740 C738 1.353 . S
C740 H782 0.930 . S
C741 N737 1.279 . S
C741 C739 1.358 . S
C741 H783 0.930 . S
C742 C743 1.348 1_554 S
C742 C744 1.356 . S
C742 O767 1.325 . S
C743 C742 1.348 1_556 S
C743 C745 1.353 . S
C743 H784 0.929 . S
C744 C742 1.356 . S
C744 C746 1.358 . S
C744 H785 0.930 . S
C745 C743 1.353 . S
C745 N747 1.314 1_556 S
C745 H786 0.930 . S
C746 C744 1.358 . S
C746 N747 1.279 . S
C746 H787 0.930 . S
N747 C745 1.314 1_554 S
N747 C746 1.279 . S
C748 C750 1.353 . S
C748 N751 1.314 . S
C748 H754 0.930 . S
C749 N751 1.279 1_556 S
C749 C752 1.358 . S
C749 H755 0.930 . S
C750 C748 1.353 . S
C750 C753 1.348 . S
C750 H788 0.929 . S
N751 Li706 1.990 . S
N751 C748 1.314 . S
N751 C749 1.279 1_554 S
C752 C749 1.358 . S
C752 C753 1.356 1_556 S
C752 H789 0.930 . S
C753 C750 1.348 . S
C753 C752 1.356 1_554 S
H754 C748 0.930 . S
H755 C749 0.930 . S
C756 N757 1.314 . S
C756 C758 1.353 . S
C756 H762 0.930 . S
N757 Li707 1.990 . S
N757 C756 1.314 . S
N757 C760 1.279 . S
C758 C756 1.353 . S
C758 C761 1.348 . S
C758 H790 0.929 . S
C759 C760 1.358 . S
C759 C761 1.356 . S
C759 H791 0.930 . S
C760 N757 1.279 . S
C760 C759 1.358 . S
C760 H763 0.930 . S
C761 C758 1.348 . S
C761 C759 1.356 . S
H762 C756 0.930 . S
H763 C760 0.930 . S
O764 Li704 1.956 . S
O764 Li705 1.970 . S
O764 Li706 1.961 . S
O764 C708 1.325 . S
O765 Li704 1.970 . S
O765 Li705 1.956 . S
O765 Li707 1.961 1_554 S
O765 C714 1.325 . S
O766 Li704 1.961 1_556 S
O766 Li706 1.956 1_556 S
O766 Li707 1.970 . S
O766 C736 1.325 . S
O767 Li705 1.961 . S
O767 Li706 1.970 . S
O767 Li707 1.956 1_554 S
O767 C742 1.325 . S
H768 C710 0.929 . S
H769 C711 0.930 . S
H770 C712 0.930 . S
H771 C713 0.930 . S
H772 C715 0.930 1_556 S
H773 C717 0.929 . S
H774 C718 0.930 1_556 S
H775 C719 0.930 . S
H776 C722 0.930 . S
H777 C725 0.929 . S
H778 C730 0.929 . S
H779 C731 0.930 . S
H780 C738 0.929 . S
H781 C739 0.930 . S
H782 C740 0.930 . S
H783 C741 0.930 . S
H784 C743 0.929 . S
H785 C744 0.930 . S
H786 C745 0.930 . S
H787 C746 0.930 . S
H788 C750 0.929 . S
H789 C752 0.930 . S
H790 C758 0.929 . S
H791 C759 0.930 . S
Li792 N809 1.990 . S
Li792 O852 1.956 . S
Li792 O853 1.970 . S
Li792 O854 1.961 . S
Li793 N817 1.990 . S
Li793 O852 1.970 . S
Li793 O853 1.956 . S
Li793 O855 1.961 . S
Li794 N839 1.990 . S
Li794 O852 1.961 . S
Li794 O854 1.956 . S
Li794 O855 1.970 . S
Li795 N845 1.990 . S
Li795 O853 1.961 . S
Li795 O854 1.970 . S
Li795 O855 1.956 . S
C796 C798 1.348 . S
C796 C799 1.356 . S
C796 O852 1.325 . S
N797 C800 1.314 . S
N797 C801 1.279 . S
C798 C796 1.348 . S
C798 C800 1.353 . S
C798 H856 0.929 . S
C799 C796 1.356 . S
C799 C801 1.358 . S
C799 H857 0.930 . S
C800 N797 1.314 . S
C800 C798 1.353 . S
C800 H858 0.930 . S
C801 N797 1.279 . S
C801 C799 1.358 . S
C801 H859 0.930 . S
C802 C805 1.348 . S
C802 C806 1.356 . S
C802 O853 1.325 . S
C803 N804 1.279 . S
C803 C806 1.358 . S
C803 H860 0.930 . S
N804 C803 1.279 . S
N804 C807 1.314 . S
C805 C802 1.348 . S
C805 C807 1.353 . S
C805 H861 0.929 . S
C806 C802 1.356 . S
C806 C803 1.358 . S
C806 H862 0.930 . S
C807 N804 1.314 . S
C807 C805 1.353 . S
C807 H863 0.930 . S
C808 N809 1.314 . S
C808 C813 1.353 . S
C808 H814 0.930 . S
N809 Li792 1.990 . S
N809 C808 1.314 . S
N809 C811 1.279 . S
C810 C811 1.358 . S
C810 C812 1.356 . S
C810 H864 0.930 . S
C811 N809 1.279 . S
C811 C810 1.358 . S
C811 H815 0.930 . S
C812 C810 1.356 . S
C812 C813 1.348 . S
C813 C808 1.353 . S
C813 C812 1.348 . S
C813 H865 0.929 . S
H814 C808 0.930 . S
H815 C811 0.930 . S
C816 N817 1.314 . S
C816 C818 1.353 . S
C816 H822 0.930 . S
N817 Li793 1.990 . S
N817 C816 1.314 . S
N817 C820 1.279 . S
C818 C816 1.353 . S
C818 C821 1.348 . S
C818 H866 0.929 . S
C819 C820 1.358 . S
C819 C821 1.356 . S
C819 H867 0.930 . S
C820 N817 1.279 . S
C820 C819 1.358 . S
C820 H823 0.930 . S
C821 C818 1.348 . S
C821 C819 1.356 . S
H822 C816 0.930 . S
H823 C820 0.930 . S
C824 C826 1.348 . S
C824 C827 1.356 . S
C824 O854 1.325 . S
N825 C828 1.314 . S
N825 C829 1.279 . S
C826 C824 1.348 . S
C826 C828 1.353 . S
C826 H868 0.929 . S
C827 C824 1.356 . S
C827 C829 1.358 . S
C827 H869 0.930 . S
C828 N825 1.314 . S
C828 C826 1.353 . S
C828 H870 0.930 . S
C829 N825 1.279 . S
C829 C827 1.358 . S
C829 H871 0.930 . S
C830 C831 1.348 . S
C830 C832 1.356 . S
C830 O855 1.325 . S
C831 C830 1.348 . S
C831 C833 1.353 . S
C831 H872 0.929 . S
C832 C830 1.356 . S
C832 C834 1.358 . S
C832 H873 0.930 . S
C833 C831 1.353 . S
C833 N835 1.314 . S
C833 H874 0.930 . S
C834 C832 1.358 . S
C834 N835 1.279 . S
C834 H875 0.930 . S
N835 C833 1.314 . S
N835 C834 1.279 . S
C836 C838 1.353 . S
C836 N839 1.314 . S
C836 H842 0.930 . S
C837 N839 1.279 . S
C837 C840 1.358 . S
C837 H843 0.930 . S
C838 C836 1.353 . S
C838 C841 1.348 . S
C838 H876 0.929 . S
N839 Li794 1.990 . S
N839 C836 1.314 . S
N839 C837 1.279 . S
C840 C837 1.358 . S
C840 C841 1.356 . S
C840 H877 0.930 . S
C841 C838 1.348 . S
C841 C840 1.356 . S
H842 C836 0.930 . S
H843 C837 0.930 . S
C844 N845 1.314 . S
C844 C846 1.353 . S
C844 H850 0.930 . S
N845 Li795 1.990 . S
N845 C844 1.314 . S
N845 C848 1.279 . S
C846 C844 1.353 . S
C846 C849 1.348 . S
C846 H878 0.929 . S
C847 C848 1.358 . S
C847 C849 1.356 . S
C847 H879 0.930 . S
C848 N845 1.279 . S
C848 C847 1.358 . S
C848 H851 0.930 . S
C849 C846 1.348 . S
C849 C847 1.356 . S
H850 C844 0.930 . S
H851 C848 0.930 . S
O852 Li792 1.956 . S
O852 Li793 1.970 . S
O852 Li794 1.961 . S
O852 C796 1.325 . S
O853 Li792 1.970 . S
O853 Li793 1.956 . S
O853 Li795 1.961 . S
O853 C802 1.325 . S
O854 Li792 1.961 . S
O854 Li794 1.956 . S
O854 Li795 1.970 . S
O854 C824 1.325 . S
O855 Li793 1.961 . S
O855 Li794 1.970 . S
O855 Li795 1.956 . S
O855 C830 1.325 . S
H856 C798 0.929 . S
H857 C799 0.930 . S
H858 C800 0.930 . S
H859 C801 0.930 . S
H860 C803 0.930 . S
H861 C805 0.929 . S
H862 C806 0.930 . S
H863 C807 0.930 . S
H864 C810 0.930 . S
H865 C813 0.929 . S
H866 C818 0.929 . S
H867 C819 0.930 . S
H868 C826 0.929 . S
H869 C827 0.930 . S
H870 C828 0.930 . S
H871 C829 0.930 . S
H872 C831 0.929 . S
H873 C832 0.930 . S
H874 C833 0.930 . S
H875 C834 0.930 . S
H876 C838 0.929 . S
H877 C840 0.930 . S
H878 C846 0.929 . S
H879 C847 0.930 . S
Li880 N897 1.990 . S
Li880 O940 1.956 . S
Li880 O941 1.970 . S
Li880 O942 1.961 . S
Li881 N905 1.990 . S
Li881 O940 1.970 . S
Li881 O941 1.956 . S
Li881 O943 1.961 . S
Li882 N927 1.990 . S
Li882 O940 1.961 . S
Li882 O942 1.956 . S
Li882 O943 1.970 . S
Li883 N933 1.990 . S
Li883 O941 1.961 . S
Li883 O942 1.970 . S
Li883 O943 1.956 . S
C884 C886 1.348 . S
C884 C887 1.356 . S
C884 O940 1.325 . S
N885 C888 1.314 . S
N885 C889 1.279 . S
C886 C884 1.348 . S
C886 C888 1.353 . S
C886 H944 0.929 . S
C887 C884 1.356 . S
C887 C889 1.358 . S
C887 H945 0.930 . S
C888 N885 1.314 . S
C888 C886 1.353 . S
C888 H946 0.930 . S
C889 N885 1.279 . S
C889 C887 1.358 . S
C889 H947 0.930 . S
C890 C893 1.348 . S
C890 C894 1.356 . S
C890 O941 1.325 . S
C891 N892 1.279 . S
C891 C894 1.358 . S
C891 H948 0.930 . S
N892 C891 1.279 . S
N892 C895 1.314 . S
C893 C890 1.348 . S
C893 C895 1.353 . S
C893 H949 0.929 . S
C894 C890 1.356 . S
C894 C891 1.358 . S
C894 H950 0.930 . S
C895 N892 1.314 . S
C895 C893 1.353 . S
C895 H951 0.930 . S
C896 N897 1.314 . S
C896 C901 1.353 . S
C896 H902 0.930 . S
N897 Li880 1.990 . S
N897 C896 1.314 . S
N897 C899 1.279 . S
C898 C899 1.358 . S
C898 C900 1.356 . S
C898 H952 0.930 . S
C899 N897 1.279 . S
C899 C898 1.358 . S
C899 H903 0.930 . S
C900 C898 1.356 . S
C900 C901 1.348 . S
C901 C896 1.353 . S
C901 C900 1.348 . S
C901 H953 0.929 . S
H902 C896 0.930 . S
H903 C899 0.930 . S
C904 N905 1.314 . S
C904 C906 1.353 . S
C904 H910 0.930 . S
N905 Li881 1.990 . S
N905 C904 1.314 . S
N905 C908 1.279 . S
C906 C904 1.353 . S
C906 C909 1.348 . S
C906 H954 0.929 . S
C907 C908 1.358 . S
C907 C909 1.356 . S
C907 H955 0.930 . S
C908 N905 1.279 . S
C908 C907 1.358 . S
C908 H911 0.930 . S
C909 C906 1.348 . S
C909 C907 1.356 . S
H910 C904 0.930 . S
H911 C908 0.930 . S
C912 C914 1.348 . S
C912 C915 1.356 . S
C912 O942 1.325 . S
N913 C916 1.314 . S
N913 C917 1.279 . S
C914 C912 1.348 . S
C914 C916 1.353 . S
C914 H956 0.929 . S
C915 C912 1.356 . S
C915 C917 1.358 . S
C915 H957 0.930 . S
C916 N913 1.314 . S
C916 C914 1.353 . S
C916 H958 0.930 . S
C917 N913 1.279 . S
C917 C915 1.358 . S
C917 H959 0.930 . S
C918 C919 1.348 . S
C918 C920 1.356 . S
C918 O943 1.325 . S
C919 C918 1.348 . S
C919 C921 1.353 . S
C919 H960 0.929 . S
C920 C918 1.356 . S
C920 C922 1.358 . S
C920 H961 0.930 . S
C921 C919 1.353 . S
C921 N923 1.314 . S
C921 H962 0.930 . S
C922 C920 1.358 . S
C922 N923 1.279 . S
C922 H963 0.930 . S
N923 C921 1.314 . S
N923 C922 1.279 . S
C924 C926 1.353 . S
C924 N927 1.314 . S
C924 H930 0.930 . S
C925 N927 1.279 . S
C925 C928 1.358 . S
C925 H931 0.930 . S
C926 C924 1.353 . S
C926 C929 1.348 . S
C926 H964 0.929 . S
N927 Li882 1.990 . S
N927 C924 1.314 . S
N927 C925 1.279 . S
C928 C925 1.358 . S
C928 C929 1.356 . S
C928 H965 0.930 . S
C929 C926 1.348 . S
C929 C928 1.356 . S
H930 C924 0.930 . S
H931 C925 0.930 . S
C932 N933 1.314 . S
C932 C934 1.353 . S
C932 H938 0.930 . S
N933 Li883 1.990 . S
N933 C932 1.314 . S
N933 C936 1.279 . S
C934 C932 1.353 . S
C934 C937 1.348 . S
C934 H966 0.929 . S
C935 C936 1.358 . S
C935 C937 1.356 . S
C935 H967 0.930 . S
C936 N933 1.279 . S
C936 C935 1.358 . S
C936 H939 0.930 . S
C937 C934 1.348 . S
C937 C935 1.356 . S
H938 C932 0.930 . S
H939 C936 0.930 . S
O940 Li880 1.956 . S
O940 Li881 1.970 . S
O940 Li882 1.961 . S
O940 C884 1.325 . S
O941 Li880 1.970 . S
O941 Li881 1.956 . S
O941 Li883 1.961 . S
O941 C890 1.325 . S
O942 Li880 1.961 . S
O942 Li882 1.956 . S
O942 Li883 1.970 . S
O942 C912 1.325 . S
O943 Li881 1.961 . S
O943 Li882 1.970 . S
O943 Li883 1.956 . S
O943 C918 1.325 . S
H944 C886 0.929 . S
H945 C887 0.930 . S
H946 C888 0.930 . S
H947 C889 0.930 . S
H948 C891 0.930 . S
H949 C893 0.929 . S
H950 C894 0.930 . S
H951 C895 0.930 . S
H952 C898 0.930 . S
H953 C901 0.929 . S
H954 C906 0.929 . S
H955 C907 0.930 . S
H956 C914 0.929 . S
H957 C915 0.930 . S
H958 C916 0.930 . S
H959 C917 0.930 . S
H960 C919 0.929 . S
H961 C920 0.930 . S
H962 C921 0.930 . S
H963 C922 0.930 . S
H964 C926 0.929 . S
H965 C928 0.930 . S
H966 C934 0.929 . S
H967 C935 0.930 . S
Li968 N985 1.990 . S
Li968 O1028 1.956 . S
Li968 O1029 1.970 . S
Li968 O1030 1.961 . S
Li969 N993 1.990 . S
Li969 O1028 1.970 . S
Li969 O1029 1.956 . S
Li969 O1031 1.961 . S
Li970 N1015 1.990 . S
Li970 O1028 1.961 . S
Li970 O1030 1.956 . S
Li970 O1031 1.970 . S
Li971 N1021 1.990 . S
Li971 O1029 1.961 . S
Li971 O1030 1.970 . S
Li971 O1031 1.956 . S
C972 C974 1.348 . S
C972 C975 1.356 . S
C972 O1028 1.325 . S
N973 C976 1.314 . S
N973 C977 1.279 . S
C974 C972 1.348 . S
C974 C976 1.353 . S
C974 H1032 0.929 . S
C975 C972 1.356 . S
C975 C977 1.358 . S
C975 H1033 0.930 . S
C976 N973 1.314 . S
C976 C974 1.353 . S
C976 H1034 0.930 . S
C977 N973 1.279 . S
C977 C975 1.358 . S
C977 H1035 0.930 . S
C978 C981 1.348 . S
C978 C982 1.356 . S
C978 O1029 1.325 . S
C979 N980 1.279 . S
C979 C982 1.358 . S
C979 H1036 0.930 . S
N980 C979 1.279 . S
N980 C983 1.314 . S
C981 C978 1.348 . S
C981 C983 1.353 . S
C981 H1037 0.929 . S
C982 C978 1.356 . S
C982 C979 1.358 . S
C982 H1038 0.930 . S
C983 N980 1.314 . S
C983 C981 1.353 . S
C983 H1039 0.930 . S
C984 N985 1.314 . S
C984 C989 1.353 . S
C984 H990 0.930 . S
N985 Li968 1.990 . S
N985 C984 1.314 . S
N985 C987 1.279 . S
C986 C987 1.358 . S
C986 C988 1.356 . S
C986 H1040 0.930 . S
C987 N985 1.279 . S
C987 C986 1.358 . S
C987 H991 0.930 . S
C988 C986 1.356 . S
C988 C989 1.348 . S
C989 C984 1.353 . S
C989 C988 1.348 . S
C989 H1041 0.929 . S
H990 C984 0.930 . S
H991 C987 0.930 . S
C992 N993 1.314 . S
C992 C994 1.353 . S
C992 H998 0.930 . S
N993 Li969 1.990 . S
N993 C992 1.314 . S
N993 C996 1.279 . S
C994 C992 1.353 . S
C994 C997 1.348 . S
C994 H1042 0.929 . S
C995 C996 1.358 . S
C995 C997 1.356 . S
C995 H1043 0.930 . S
C996 N993 1.279 . S
C996 C995 1.358 . S
C996 H999 0.930 . S
C997 C994 1.348 . S
C997 C995 1.356 . S
H998 C992 0.930 . S
H999 C996 0.930 . S
C1000 C1002 1.348 . S
C1000 C1003 1.356 . S
C1000 O1030 1.325 . S
N1001 C1004 1.314 . S
N1001 C1005 1.279 . S
C1002 C1000 1.348 . S
C1002 C1004 1.353 . S
C1002 H1044 0.929 . S
C1003 C1000 1.356 . S
C1003 C1005 1.358 . S
C1003 H1045 0.930 . S
C1004 N1001 1.314 . S
C1004 C1002 1.353 . S
C1004 H1046 0.930 . S
C1005 N1001 1.279 . S
C1005 C1003 1.358 . S
C1005 H1047 0.930 . S
C1006 C1007 1.348 . S
C1006 C1008 1.356 . S
C1006 O1031 1.325 . S
C1007 C1006 1.348 . S
C1007 C1009 1.353 . S
C1007 H1048 0.929 . S
C1008 C1006 1.356 . S
C1008 C1010 1.358 . S
C1008 H1049 0.930 . S
C1009 C1007 1.353 . S
C1009 N1011 1.314 . S
C1009 H1050 0.930 . S
C1010 C1008 1.358 . S
C1010 N1011 1.279 . S
C1010 H1051 0.930 . S
N1011 C1009 1.314 . S
N1011 C1010 1.279 . S
C1012 C1014 1.353 . S
C1012 N1015 1.314 . S
C1012 H1018 0.930 . S
C1013 N1015 1.279 . S
C1013 C1016 1.358 . S
C1013 H1019 0.930 . S
C1014 C1012 1.353 . S
C1014 C1017 1.348 . S
C1014 H1052 0.929 . S
N1015 Li970 1.990 . S
N1015 C1012 1.314 . S
N1015 C1013 1.279 . S
C1016 C1013 1.358 . S
C1016 C1017 1.356 . S
C1016 H1053 0.930 . S
C1017 C1014 1.348 . S
C1017 C1016 1.356 . S
H1018 C1012 0.930 . S
H1019 C1013 0.930 . S
C1020 N1021 1.314 . S
C1020 C1022 1.353 . S
C1020 H1026 0.930 . S
N1021 Li971 1.990 . S
N1021 C1020 1.314 . S
N1021 C1024 1.279 . S
C1022 C1020 1.353 . S
C1022 C1025 1.348 . S
C1022 H1054 0.929 . S
C1023 C1024 1.358 . S
C1023 C1025 1.356 . S
C1023 H1055 0.930 . S
C1024 N1021 1.279 . S
C1024 C1023 1.358 . S
C1024 H1027 0.930 . S
C1025 C1022 1.348 . S
C1025 C1023 1.356 . S
H1026 C1020 0.930 . S
H1027 C1024 0.930 . S
O1028 Li968 1.956 . S
O1028 Li969 1.970 . S
O1028 Li970 1.961 . S
O1028 C972 1.325 . S
O1029 Li968 1.970 . S
O1029 Li969 1.956 . S
O1029 Li971 1.961 . S
O1029 C978 1.325 . S
O1030 Li968 1.961 . S
O1030 Li970 1.956 . S
O1030 Li971 1.970 . S
O1030 C1000 1.325 . S
O1031 Li969 1.961 . S
O1031 Li970 1.970 . S
O1031 Li971 1.956 . S
O1031 C1006 1.325 . S
H1032 C974 0.929 . S
H1033 C975 0.930 . S
H1034 C976 0.930 . S
H1035 C977 0.930 . S
H1036 C979 0.930 . S
H1037 C981 0.929 . S
H1038 C982 0.930 . S
H1039 C983 0.930 . S
H1040 C986 0.930 . S
H1041 C989 0.929 . S
H1042 C994 0.929 . S
H1043 C995 0.930 . S
H1044 C1002 0.929 . S
H1045 C1003 0.930 . S
H1046 C1004 0.930 . S
H1047 C1005 0.930 . S
H1048 C1007 0.929 . S
H1049 C1008 0.930 . S
H1050 C1009 0.930 . S
H1051 C1010 0.930 . S
H1052 C1014 0.929 . S
H1053 C1016 0.930 . S
H1054 C1022 0.929 . S
H1055 C1023 0.930 . S
Li1056 N1073 1.990 . S
Li1056 O1116 1.956 1_655 S
Li1056 O1117 1.970 . S
Li1056 O1118 1.961 1_655 S
Li1057 N1081 1.990 . S
Li1057 O1116 1.970 . S
Li1057 O1117 1.956 1_455 S
Li1057 O1119 1.961 . S
Li1058 N1103 1.990 . S
Li1058 O1116 1.961 . S
Li1058 O1118 1.956 . S
Li1058 O1119 1.970 . S
Li1059 N1109 1.990 . S
Li1059 O1117 1.961 1_455 S
Li1059 O1118 1.970 . S
Li1059 O1119 1.956 . S
C1060 C1062 1.360 . S
C1060 C1063 1.356 . S
C1060 O1116 1.325 . S
N1061 C1064 1.322 . S
N1061 C1065 1.279 . S
C1062 C1060 1.360 . S
C1062 C1064 1.353 . S
C1062 H1120 0.919 1_455 S
C1063 C1060 1.356 . S
C1063 C1065 1.358 . S
C1063 H1121 0.930 . S
C1064 N1061 1.322 . S
C1064 C1062 1.353 . S
C1064 H1122 0.921 1_455 S
C1065 N1061 1.279 . S
C1065 C1063 1.358 . S
C1065 H1123 0.930 . S
C1066 C1069 1.348 . S
C1066 C1070 1.356 . S
C1066 O1117 1.325 . S
C1067 N1068 1.279 . S
C1067 C1070 1.358 . S
C1067 H1124 0.930 . S
N1068 C1067 1.279 . S
N1068 C1071 1.314 . S
C1069 C1066 1.348 . S
C1069 C1071 1.353 . S
C1069 H1125 0.929 . S
C1070 C1066 1.356 . S
C1070 C1067 1.358 . S
C1070 H1126 0.930 . S
C1071 N1068 1.314 . S
C1071 C1069 1.353 . S
C1071 H1127 0.930 . S
C1072 N1073 1.314 . S
C1072 C1077 1.353 . S
C1072 H1078 0.930 . S
N1073 Li1056 1.990 . S
N1073 C1072 1.314 . S
N1073 C1075 1.279 . S
C1074 C1075 1.358 . S
C1074 C1076 1.356 . S
C1074 H1128 0.930 . S
C1075 N1073 1.279 . S
C1075 C1074 1.358 . S
C1075 H1079 0.930 . S
C1076 C1074 1.356 . S
C1076 C1077 1.348 . S
C1077 C1072 1.353 . S
C1077 C1076 1.348 . S
C1077 H1129 0.929 . S
H1078 C1072 0.930 . S
H1079 C1075 0.930 . S
C1080 N1081 1.314 . S
C1080 C1082 1.353 . S
C1080 H1086 0.930 . S
N1081 Li1057 1.990 . S
N1081 C1080 1.314 . S
N1081 C1084 1.279 1_455 S
C1082 C1080 1.353 . S
C1082 C1085 1.348 . S
C1082 H1130 0.929 . S
C1083 C1084 1.358 . S
C1083 C1085 1.356 1_655 S
C1083 H1131 0.930 . S
C1084 N1081 1.279 1_655 S
C1084 C1083 1.358 . S
C1084 H1087 0.930 . S
C1085 C1082 1.348 . S
C1085 C1083 1.356 1_455 S
H1086 C1080 0.930 . S
H1087 C1084 0.930 . S
C1088 C1090 1.348 . S
C1088 C1091 1.356 . S
C1088 O1118 1.325 . S
N1089 C1092 1.314 . S
N1089 C1093 1.279 . S
C1090 C1088 1.348 . S
C1090 C1092 1.353 . S
C1090 H1132 0.929 . S
C1091 C1088 1.356 . S
C1091 C1093 1.358 . S
C1091 H1133 0.928 . S
C1092 N1089 1.314 . S
C1092 C1090 1.353 . S
C1092 H1134 0.930 . S
C1093 N1089 1.279 . S
C1093 C1091 1.358 . S
C1093 H1135 0.931 . S
C1094 C1095 1.348 . S
C1094 C1096 1.356 . S
C1094 O1119 1.325 . S
C1095 C1094 1.348 . S
C1095 C1097 1.353 . S
C1095 H1136 0.929 . S
C1096 C1094 1.356 . S
C1096 C1098 1.358 . S
C1096 H1137 0.930 . S
C1097 C1095 1.353 . S
C1097 N1099 1.314 . S
C1097 H1138 0.930 . S
C1098 C1096 1.358 . S
C1098 N1099 1.279 . S
C1098 H1139 0.930 . S
N1099 C1097 1.314 . S
N1099 C1098 1.279 . S
C1100 C1102 1.353 . S
C1100 N1103 1.314 . S
C1100 H1106 0.930 . S
C1101 N1103 1.279 . S
C1101 C1104 1.358 . S
C1101 H1107 0.930 . S
C1102 C1100 1.353 . S
C1102 C1105 1.348 . S
C1102 H1140 0.929 . S
N1103 Li1058 1.990 . S
N1103 C1100 1.314 . S
N1103 C1101 1.279 . S
C1104 C1101 1.358 . S
C1104 C1105 1.356 . S
C1104 H1141 0.930 . S
C1105 C1102 1.348 . S
C1105 C1104 1.356 . S
H1106 C1100 0.930 . S
H1107 C1101 0.930 . S
C1108 N1109 1.314 1_655 S
C1108 C1110 1.353 . S
C1108 H1114 0.930 . S
N1109 Li1059 1.990 . S
N1109 C1108 1.314 1_455 S
N1109 C1112 1.279 . S
C1110 C1108 1.353 . S
C1110 C1113 1.348 1_655 S
C1110 H1142 0.929 . S
C1111 C1112 1.358 . S
C1111 C1113 1.356 . S
C1111 H1143 0.930 . S
C1112 N1109 1.279 . S
C1112 C1111 1.358 . S
C1112 H1115 0.930 . S
C1113 C1110 1.348 1_455 S
C1113 C1111 1.356 . S
H1114 C1108 0.930 . S
H1115 C1112 0.930 . S
O1116 Li1056 1.956 1_455 S
O1116 Li1057 1.970 . S
O1116 Li1058 1.961 . S
O1116 C1060 1.325 . S
O1117 Li1056 1.970 . S
O1117 Li1057 1.956 1_655 S
O1117 Li1059 1.961 1_655 S
O1117 C1066 1.325 . S
O1118 Li1056 1.961 1_455 S
O1118 Li1058 1.956 . S
O1118 Li1059 1.970 . S
O1118 C1088 1.325 . S
O1119 Li1057 1.961 . S
O1119 Li1058 1.970 . S
O1119 Li1059 1.956 . S
O1119 C1094 1.325 . S
H1120 C1062 0.919 1_655 S
H1121 C1063 0.930 . S
H1122 C1064 0.921 1_655 S
H1123 C1065 0.930 . S
H1124 C1067 0.930 . S
H1125 C1069 0.929 . S
H1126 C1070 0.930 . S
H1127 C1071 0.930 . S
H1128 C1074 0.930 . S
H1129 C1077 0.929 . S
H1130 C1082 0.929 . S
H1131 C1083 0.930 . S
H1132 C1090 0.929 . S
H1133 C1091 0.928 . S
H1134 C1092 0.930 . S
H1135 C1093 0.931 . S
H1136 C1095 0.929 . S
H1137 C1096 0.930 . S
H1138 C1097 0.930 . S
H1139 C1098 0.930 . S
H1140 C1102 0.929 . S
H1141 C1104 0.930 . S
H1142 C1110 0.929 . S
H1143 C1111 0.930 . S
Li1144 N1161 1.990 . S
Li1144 O1204 1.956 . S
Li1144 O1205 1.970 . S
Li1144 O1206 1.961 1_455 S
Li1145 N1169 1.990 . S
Li1145 O1204 1.970 . S
Li1145 O1205 1.956 . S
Li1145 O1207 1.961 . S
Li1146 N1191 1.990 . S
Li1146 O1204 1.961 . S
Li1146 O1206 1.956 1_455 S
Li1146 O1207 1.970 . S
Li1147 N1197 1.990 . S
Li1147 O1205 1.961 1_655 S
Li1147 O1206 1.970 . S
Li1147 O1207 1.956 1_655 S
C1148 C1150 1.348 . S
C1148 C1151 1.356 . S
C1148 O1204 1.325 . S
N1149 C1152 1.314 . S
N1149 C1153 1.279 . S
C1150 C1148 1.348 . S
C1150 C1152 1.353 . S
C1150 H1208 0.929 . S
C1151 C1148 1.356 . S
C1151 C1153 1.358 . S
C1151 H1209 0.930 . S
C1152 N1149 1.314 . S
C1152 C1150 1.353 . S
C1152 H1210 0.930 . S
C1153 N1149 1.279 . S
C1153 C1151 1.358 . S
C1153 H1211 0.930 . S
C1154 C1157 1.348 . S
C1154 C1158 1.356 . S
C1154 O1205 1.325 . S
C1155 N1156 1.279 . S
C1155 C1158 1.358 . S
C1155 H1212 0.930 1_455 S
N1156 C1155 1.279 . S
N1156 C1159 1.314 . S
C1157 C1154 1.348 . S
C1157 C1159 1.353 . S
C1157 H1213 0.929 . S
C1158 C1154 1.356 . S
C1158 C1155 1.358 . S
C1158 H1214 0.930 1_455 S
C1159 N1156 1.314 . S
C1159 C1157 1.353 . S
C1159 H1215 0.930 . S
C1160 N1161 1.314 1_655 S
C1160 C1165 1.353 . S
C1160 H1166 0.930 . S
N1161 Li1144 1.990 . S
N1161 C1160 1.314 1_455 S
N1161 C1163 1.279 . S
C1162 C1163 1.358 . S
C1162 C1164 1.356 . S
C1162 H1216 0.930 . S
C1163 N1161 1.279 . S
C1163 C1162 1.358 . S
C1163 H1167 0.930 . S
C1164 C1162 1.356 . S
C1164 C1165 1.348 1_455 S
C1165 C1160 1.353 . S
C1165 C1164 1.348 1_655 S
C1165 H1217 0.929 . S
H1166 C1160 0.930 . S
H1167 C1163 0.930 . S
C1168 N1169 1.314 . S
C1168 C1170 1.353 . S
C1168 H1174 0.930 . S
N1169 Li1145 1.990 . S
N1169 C1168 1.314 . S
N1169 C1172 1.279 . S
C1170 C1168 1.353 . S
C1170 C1173 1.348 . S
C1170 H1218 0.929 . S
C1171 C1172 1.358 . S
C1171 C1173 1.356 . S
C1171 H1219 0.930 . S
C1172 N1169 1.279 . S
C1172 C1171 1.358 . S
C1172 H1175 0.930 . S
C1173 C1170 1.348 . S
C1173 C1171 1.356 . S
H1174 C1168 0.930 . S
H1175 C1172 0.930 . S
C1176 C1178 1.348 . S
C1176 C1179 1.356 . S
C1176 O1206 1.325 . S
N1177 C1180 1.314 . S
N1177 C1181 1.279 . S
C1178 C1176 1.348 . S
C1178 C1180 1.353 . S
C1178 H1220 0.929 . S
C1179 C1176 1.356 . S
C1179 C1181 1.358 . S
C1179 H1221 0.930 . S
C1180 N1177 1.314 . S
C1180 C1178 1.353 . S
C1180 H1222 0.930 . S
C1181 N1177 1.279 . S
C1181 C1179 1.358 . S
C1181 H1223 0.930 . S
C1182 C1183 1.340 1_455 S
C1182 C1184 1.356 . S
C1182 O1207 1.325 . S
C1183 C1182 1.340 1_655 S
C1183 C1185 1.353 . S
C1183 H1224 0.938 . S
C1184 C1182 1.356 . S
C1184 C1186 1.358 . S
C1184 H1225 0.930 . S
C1185 C1183 1.353 . S
C1185 N1187 1.309 1_655 S
C1185 H1226 0.936 . S
C1186 C1184 1.358 . S
C1186 N1187 1.279 . S
C1186 H1227 0.930 . S
N1187 C1185 1.309 1_455 S
N1187 C1186 1.279 . S
C1188 C1190 1.353 . S
C1188 N1191 1.314 . S
C1188 H1194 0.930 . S
C1189 N1191 1.279 1_655 S
C1189 C1192 1.358 . S
C1189 H1195 0.930 . S
C1190 C1188 1.353 . S
C1190 C1193 1.348 . S
C1190 H1228 0.929 . S
N1191 Li1146 1.990 . S
N1191 C1188 1.314 . S
N1191 C1189 1.279 1_455 S
C1192 C1189 1.358 . S
C1192 C1193 1.356 1_655 S
C1192 H1229 0.930 . S
C1193 C1190 1.348 . S
C1193 C1192 1.356 1_455 S
H1194 C1188 0.930 . S
H1195 C1189 0.930 . S
C1196 N1197 1.314 . S
C1196 C1198 1.353 . S
C1196 H1202 0.930 . S
N1197 Li1147 1.990 . S
N1197 C1196 1.314 . S
N1197 C1200 1.279 . S
C1198 C1196 1.353 . S
C1198 C1201 1.348 . S
C1198 H1230 0.929 . S
C1199 C1200 1.358 . S
C1199 C1201 1.356 . S
C1199 H1231 0.930 . S
C1200 N1197 1.279 . S
C1200 C1199 1.358 . S
C1200 H1203 0.930 . S
C1201 C1198 1.348 . S
C1201 C1199 1.356 . S
H1202 C1196 0.930 . S
H1203 C1200 0.930 . S
O1204 Li1144 1.956 . S
O1204 Li1145 1.970 . S
O1204 Li1146 1.961 . S
O1204 C1148 1.325 . S
O1205 Li1144 1.970 . S
O1205 Li1145 1.956 . S
O1205 Li1147 1.961 1_455 S
O1205 C1154 1.325 . S
O1206 Li1144 1.961 1_655 S
O1206 Li1146 1.956 1_655 S
O1206 Li1147 1.970 . S
O1206 C1176 1.325 . S
O1207 Li1145 1.961 . S
O1207 Li1146 1.970 . S
O1207 Li1147 1.956 1_455 S
O1207 C1182 1.325 . S
H1208 C1150 0.929 . S
H1209 C1151 0.930 . S
H1210 C1152 0.930 . S
H1211 C1153 0.930 . S
H1212 C1155 0.930 1_655 S
H1213 C1157 0.929 . S
H1214 C1158 0.930 1_655 S
H1215 C1159 0.930 . S
H1216 C1162 0.930 . S
H1217 C1165 0.929 . S
H1218 C1170 0.929 . S
H1219 C1171 0.930 . S
H1220 C1178 0.929 . S
H1221 C1179 0.930 . S
H1222 C1180 0.930 . S
H1223 C1181 0.930 . S
H1224 C1183 0.938 . S
H1225 C1184 0.930 . S
H1226 C1185 0.936 . S
H1227 C1186 0.930 . S
H1228 C1190 0.929 . S
H1229 C1192 0.930 . S
H1230 C1198 0.929 . S
H1231 C1199 0.930 . S
Li1232 N1249 1.990 . S
Li1232 O1292 1.956 . S
Li1232 O1293 1.970 . S
Li1232 O1294 1.961 . S
Li1233 N1257 1.990 . S
Li1233 O1292 1.970 . S
Li1233 O1293 1.956 . S
Li1233 O1295 1.961 . S
Li1234 N1279 1.990 . S
Li1234 O1292 1.961 . S
Li1234 O1294 1.956 . S
Li1234 O1295 1.970 . S
Li1235 N1285 1.990 . S
Li1235 O1293 1.961 . S
Li1235 O1294 1.970 . S
Li1235 O1295 1.956 . S
C1236 C1238 1.348 . S
C1236 C1239 1.356 . S
C1236 O1292 1.325 . S
N1237 C1240 1.314 . S
N1237 C1241 1.279 . S
C1238 C1236 1.348 . S
C1238 C1240 1.353 . S
C1238 H1296 0.929 . S
C1239 C1236 1.356 . S
C1239 C1241 1.358 . S
C1239 H1297 0.930 . S
C1240 N1237 1.314 . S
C1240 C1238 1.353 . S
C1240 H1298 0.930 . S
C1241 N1237 1.279 . S
C1241 C1239 1.358 . S
C1241 H1299 0.930 . S
C1242 C1245 1.348 . S
C1242 C1246 1.356 . S
C1242 O1293 1.325 . S
C1243 N1244 1.279 . S
C1243 C1246 1.358 . S
C1243 H1300 0.930 . S
N1244 C1243 1.279 . S
N1244 C1247 1.314 . S
C1245 C1242 1.348 . S
C1245 C1247 1.353 . S
C1245 H1301 0.929 . S
C1246 C1242 1.356 . S
C1246 C1243 1.358 . S
C1246 H1302 0.930 . S
C1247 N1244 1.314 . S
C1247 C1245 1.353 . S
C1247 H1303 0.930 . S
C1248 N1249 1.314 . S
C1248 C1253 1.353 . S
C1248 H1254 0.930 . S
N1249 Li1232 1.990 . S
N1249 C1248 1.314 . S
N1249 C1251 1.279 . S
C1250 C1251 1.358 . S
C1250 C1252 1.356 . S
C1250 H1304 0.930 . S
C1251 N1249 1.279 . S
C1251 C1250 1.358 . S
C1251 H1255 0.930 . S
C1252 C1250 1.356 . S
C1252 C1253 1.348 . S
C1253 C1248 1.353 . S
C1253 C1252 1.348 . S
C1253 H1305 0.929 . S
H1254 C1248 0.930 . S
H1255 C1251 0.930 . S
C1256 N1257 1.314 . S
C1256 C1258 1.353 . S
C1256 H1262 0.930 . S
N1257 Li1233 1.990 . S
N1257 C1256 1.314 . S
N1257 C1260 1.279 . S
C1258 C1256 1.353 . S
C1258 C1261 1.348 . S
C1258 H1306 0.929 . S
C1259 C1260 1.358 . S
C1259 C1261 1.356 . S
C1259 H1307 0.930 . S
C1260 N1257 1.279 . S
C1260 C1259 1.358 . S
C1260 H1263 0.930 . S
C1261 C1258 1.348 . S
C1261 C1259 1.356 . S
H1262 C1256 0.930 . S
H1263 C1260 0.930 . S
C1264 C1266 1.348 . S
C1264 C1267 1.356 . S
C1264 O1294 1.325 . S
N1265 C1268 1.314 . S
N1265 C1269 1.279 . S
C1266 C1264 1.348 . S
C1266 C1268 1.353 . S
C1266 H1308 0.929 . S
C1267 C1264 1.356 . S
C1267 C1269 1.358 . S
C1267 H1309 0.930 . S
C1268 N1265 1.314 . S
C1268 C1266 1.353 . S
C1268 H1310 0.930 . S
C1269 N1265 1.279 . S
C1269 C1267 1.358 . S
C1269 H1311 0.930 . S
C1270 C1271 1.348 . S
C1270 C1272 1.356 . S
C1270 O1295 1.325 . S
C1271 C1270 1.348 . S
C1271 C1273 1.353 . S
C1271 H1312 0.929 . S
C1272 C1270 1.356 . S
C1272 C1274 1.358 . S
C1272 H1313 0.930 . S
C1273 C1271 1.353 . S
C1273 N1275 1.314 . S
C1273 H1314 0.930 . S
C1274 C1272 1.358 . S
C1274 N1275 1.279 . S
C1274 H1315 0.930 . S
N1275 C1273 1.314 . S
N1275 C1274 1.279 . S
C1276 C1278 1.353 . S
C1276 N1279 1.314 . S
C1276 H1282 0.930 . S
C1277 N1279 1.279 . S
C1277 C1280 1.358 . S
C1277 H1283 0.930 . S
C1278 C1276 1.353 . S
C1278 C1281 1.348 . S
C1278 H1316 0.929 . S
N1279 Li1234 1.990 . S
N1279 C1276 1.314 . S
N1279 C1277 1.279 . S
C1280 C1277 1.358 . S
C1280 C1281 1.356 . S
C1280 H1317 0.930 . S
C1281 C1278 1.348 . S
C1281 C1280 1.356 . S
H1282 C1276 0.930 . S
H1283 C1277 0.930 . S
C1284 N1285 1.314 . S
C1284 C1286 1.353 . S
C1284 H1290 0.930 . S
N1285 Li1235 1.990 . S
N1285 C1284 1.314 . S
N1285 C1288 1.279 . S
C1286 C1284 1.353 . S
C1286 C1289 1.348 . S
C1286 H1318 0.929 . S
C1287 C1288 1.358 . S
C1287 C1289 1.356 . S
C1287 H1319 0.930 . S
C1288 N1285 1.279 . S
C1288 C1287 1.358 . S
C1288 H1291 0.930 . S
C1289 C1286 1.348 . S
C1289 C1287 1.356 . S
H1290 C1284 0.930 . S
H1291 C1288 0.930 . S
O1292 Li1232 1.956 . S
O1292 Li1233 1.970 . S
O1292 Li1234 1.961 . S
O1292 C1236 1.325 . S
O1293 Li1232 1.970 . S
O1293 Li1233 1.956 . S
O1293 Li1235 1.961 . S
O1293 C1242 1.325 . S
O1294 Li1232 1.961 . S
O1294 Li1234 1.956 . S
O1294 Li1235 1.970 . S
O1294 C1264 1.325 . S
O1295 Li1233 1.961 . S
O1295 Li1234 1.970 . S
O1295 Li1235 1.956 . S
O1295 C1270 1.325 . S
H1296 C1238 0.929 . S
H1297 C1239 0.930 . S
H1298 C1240 0.930 . S
H1299 C1241 0.930 . S
H1300 C1243 0.930 . S
H1301 C1245 0.929 . S
H1302 C1246 0.930 . S
H1303 C1247 0.930 . S
H1304 C1250 0.930 . S
H1305 C1253 0.929 . S
H1306 C1258 0.929 . S
H1307 C1259 0.930 . S
H1308 C1266 0.929 . S
H1309 C1267 0.930 . S
H1310 C1268 0.930 . S
H1311 C1269 0.930 . S
H1312 C1271 0.929 . S
H1313 C1272 0.930 . S
H1314 C1273 0.930 . S
H1315 C1274 0.930 . S
H1316 C1278 0.929 . S
H1317 C1280 0.930 . S
H1318 C1286 0.929 . S
H1319 C1287 0.930 . S
Li1320 N1337 1.990 . S
Li1320 O1380 1.956 . S
Li1320 O1381 1.970 . S
Li1320 O1382 1.961 . S
Li1321 N1345 1.990 . S
Li1321 O1380 1.970 . S
Li1321 O1381 1.956 . S
Li1321 O1383 1.961 . S
Li1322 N1367 1.990 . S
Li1322 O1380 1.961 . S
Li1322 O1382 1.956 . S
Li1322 O1383 1.970 . S
Li1323 N1373 1.990 . S
Li1323 O1381 1.961 . S
Li1323 O1382 1.970 . S
Li1323 O1383 1.956 . S
C1324 C1326 1.348 . S
C1324 C1327 1.356 . S
C1324 O1380 1.325 . S
N1325 C1328 1.314 . S
N1325 C1329 1.279 . S
C1326 C1324 1.348 . S
C1326 C1328 1.353 . S
C1326 H1384 0.929 . S
C1327 C1324 1.356 . S
C1327 C1329 1.358 . S
C1327 H1385 0.930 . S
C1328 N1325 1.314 . S
C1328 C1326 1.353 . S
C1328 H1386 0.930 . S
C1329 N1325 1.279 . S
C1329 C1327 1.358 . S
C1329 H1387 0.930 . S
C1330 C1333 1.348 . S
C1330 C1334 1.356 . S
C1330 O1381 1.325 . S
C1331 N1332 1.279 . S
C1331 C1334 1.358 . S
C1331 H1388 0.930 . S
N1332 C1331 1.279 . S
N1332 C1335 1.314 . S
C1333 C1330 1.348 . S
C1333 C1335 1.353 . S
C1333 H1389 0.929 . S
C1334 C1330 1.356 . S
C1334 C1331 1.358 . S
C1334 H1390 0.930 . S
C1335 N1332 1.314 . S
C1335 C1333 1.353 . S
C1335 H1391 0.930 . S
C1336 N1337 1.314 . S
C1336 C1341 1.353 . S
C1336 H1342 0.930 . S
N1337 Li1320 1.990 . S
N1337 C1336 1.314 . S
N1337 C1339 1.279 . S
C1338 C1339 1.358 . S
C1338 C1340 1.356 . S
C1338 H1392 0.930 . S
C1339 N1337 1.279 . S
C1339 C1338 1.358 . S
C1339 H1343 0.930 . S
C1340 C1338 1.356 . S
C1340 C1341 1.348 . S
C1341 C1336 1.353 . S
C1341 C1340 1.348 . S
C1341 H1393 0.929 . S
H1342 C1336 0.930 . S
H1343 C1339 0.930 . S
C1344 N1345 1.314 . S
C1344 C1346 1.353 . S
C1344 H1350 0.930 . S
N1345 Li1321 1.990 . S
N1345 C1344 1.314 . S
N1345 C1348 1.279 . S
C1346 C1344 1.353 . S
C1346 C1349 1.348 . S
C1346 H1394 0.929 . S
C1347 C1348 1.358 . S
C1347 C1349 1.356 . S
C1347 H1395 0.930 . S
C1348 N1345 1.279 . S
C1348 C1347 1.358 . S
C1348 H1351 0.930 . S
C1349 C1346 1.348 . S
C1349 C1347 1.356 . S
H1350 C1344 0.930 . S
H1351 C1348 0.930 . S
C1352 C1354 1.348 . S
C1352 C1355 1.356 . S
C1352 O1382 1.325 . S
N1353 C1356 1.314 . S
N1353 C1357 1.279 . S
C1354 C1352 1.348 . S
C1354 C1356 1.353 . S
C1354 H1396 0.929 . S
C1355 C1352 1.356 . S
C1355 C1357 1.358 . S
C1355 H1397 0.930 . S
C1356 N1353 1.314 . S
C1356 C1354 1.353 . S
C1356 H1398 0.930 . S
C1357 N1353 1.279 . S
C1357 C1355 1.358 . S
C1357 H1399 0.930 . S
C1358 C1359 1.348 . S
C1358 C1360 1.356 . S
C1358 O1383 1.325 . S
C1359 C1358 1.348 . S
C1359 C1361 1.353 . S
C1359 H1400 0.929 . S
C1360 C1358 1.356 . S
C1360 C1362 1.358 . S
C1360 H1401 0.930 . S
C1361 C1359 1.353 . S
C1361 N1363 1.314 . S
C1361 H1402 0.930 . S
C1362 C1360 1.358 . S
C1362 N1363 1.279 . S
C1362 H1403 0.930 . S
N1363 C1361 1.314 . S
N1363 C1362 1.279 . S
C1364 C1366 1.353 . S
C1364 N1367 1.314 . S
C1364 H1370 0.930 . S
C1365 N1367 1.279 . S
C1365 C1368 1.358 . S
C1365 H1371 0.930 . S
C1366 C1364 1.353 . S
C1366 C1369 1.348 . S
C1366 H1404 0.929 . S
N1367 Li1322 1.990 . S
N1367 C1364 1.314 . S
N1367 C1365 1.279 . S
C1368 C1365 1.358 . S
C1368 C1369 1.356 . S
C1368 H1405 0.930 . S
C1369 C1366 1.348 . S
C1369 C1368 1.356 . S
H1370 C1364 0.930 . S
H1371 C1365 0.930 . S
C1372 N1373 1.314 . S
C1372 C1374 1.353 . S
C1372 H1378 0.930 . S
N1373 Li1323 1.990 . S
N1373 C1372 1.314 . S
N1373 C1376 1.279 . S
C1374 C1372 1.353 . S
C1374 C1377 1.348 . S
C1374 H1406 0.929 . S
C1375 C1376 1.358 . S
C1375 C1377 1.356 . S
C1375 H1407 0.930 . S
C1376 N1373 1.279 . S
C1376 C1375 1.358 . S
C1376 H1379 0.930 . S
C1377 C1374 1.348 . S
C1377 C1375 1.356 . S
H1378 C1372 0.930 . S
H1379 C1376 0.930 . S
O1380 Li1320 1.956 . S
O1380 Li1321 1.970 . S
O1380 Li1322 1.961 . S
O1380 C1324 1.325 . S
O1381 Li1320 1.970 . S
O1381 Li1321 1.956 . S
O1381 Li1323 1.961 . S
O1381 C1330 1.325 . S
O1382 Li1320 1.961 . S
O1382 Li1322 1.956 . S
O1382 Li1323 1.970 . S
O1382 C1352 1.325 . S
O1383 Li1321 1.961 . S
O1383 Li1322 1.970 . S
O1383 Li1323 1.956 . S
O1383 C1358 1.325 . S
H1384 C1326 0.929 . S
H1385 C1327 0.930 . S
H1386 C1328 0.930 . S
H1387 C1329 0.930 . S
H1388 C1331 0.930 . S
H1389 C1333 0.929 . S
H1390 C1334 0.930 . S
H1391 C1335 0.930 . S
H1392 C1338 0.930 . S
H1393 C1341 0.929 . S
H1394 C1346 0.929 . S
H1395 C1347 0.930 . S
H1396 C1354 0.929 . S
H1397 C1355 0.930 . S
H1398 C1356 0.930 . S
H1399 C1357 0.930 . S
H1400 C1359 0.929 . S
H1401 C1360 0.930 . S
H1402 C1361 0.930 . S
H1403 C1362 0.930 . S
H1404 C1366 0.929 . S
H1405 C1368 0.930 . S
H1406 C1374 0.929 . S
H1407 C1375 0.930 . S
Li1408 N1425 1.991 . S
Li1408 O1468 1.956 1_545 S
Li1408 O1469 1.970 . S
Li1408 O1470 1.961 . S
Li1409 N1433 1.990 . S
Li1409 O1468 1.970 . S
Li1409 O1469 1.956 1_565 S
Li1409 O1471 1.926 1_565 S
Li1410 N1455 1.990 . S
Li1410 O1468 1.961 1_545 S
Li1410 O1470 1.956 . S
Li1410 O1471 1.973 . S
Li1411 N1461 1.990 . S
Li1411 O1469 1.961 . S
Li1411 O1470 1.970 . S
Li1411 O1471 1.994 . S
C1412 C1414 1.348 . S
C1412 C1415 1.356 . S
C1412 O1468 1.325 . S
N1413 C1416 1.314 . S
N1413 C1417 1.279 . S
C1414 C1412 1.348 . S
C1414 C1416 1.353 . S
C1414 H1472 0.929 . S
C1415 C1412 1.356 . S
C1415 C1417 1.358 . S
C1415 H1473 0.930 . S
C1416 N1413 1.314 . S
C1416 C1414 1.353 . S
C1416 H1474 0.930 . S
C1417 N1413 1.279 . S
C1417 C1415 1.358 . S
C1417 H1475 0.930 . S
C1418 C1421 1.348 1_545 S
C1418 C1422 1.356 . S
C1418 O1469 1.325 . S
C1419 N1420 1.283 . S
C1419 C1422 1.358 . S
C1419 H1476 0.930 . S
N1420 C1419 1.283 . S
N1420 C1423 1.311 1_545 S
C1421 C1418 1.348 1_565 S
C1421 C1423 1.353 . S
C1421 H1477 0.929 . S
C1422 C1418 1.356 . S
C1422 C1419 1.358 . S
C1422 H1478 0.930 . S
C1423 N1420 1.311 1_565 S
C1423 C1421 1.353 . S
C1423 H1479 0.930 . S
C1424 N1425 1.353 . S
C1424 C1429 1.353 . S
C1424 H1430 0.930 . S
N1425 Li1408 1.991 . S
N1425 C1424 1.353 . S
N1425 C1427 1.242 1_545 S
C1426 C1427 1.358 . S
C1426 C1428 1.356 1_565 S
C1426 H1480 0.930 . S
C1427 N1425 1.242 1_565 S
C1427 C1426 1.358 . S
C1427 H1431 0.930 . S
C1428 C1426 1.356 1_545 S
C1428 C1429 1.348 . S
C1429 C1424 1.353 . S
C1429 C1428 1.348 . S
C1429 H1481 0.929 . S
H1430 C1424 0.930 . S
H1431 C1427 0.930 . S
C1432 N1433 1.314 . S
C1432 C1434 1.353 . S
C1432 H1438 0.930 . S
N1433 Li1409 1.990 . S
N1433 C1432 1.314 . S
N1433 C1436 1.279 . S
C1434 C1432 1.353 . S
C1434 C1437 1.348 . S
C1434 H1482 0.929 . S
C1435 C1436 1.358 . S
C1435 C1437 1.356 . S
C1435 H1483 0.930 . S
C1436 N1433 1.279 . S
C1436 C1435 1.358 . S
C1436 H1439 0.930 . S
C1437 C1434 1.348 . S
C1437 C1435 1.356 . S
H1438 C1432 0.930 . S
H1439 C1436 0.930 . S
C1440 C1442 1.348 . S
C1440 C1443 1.356 . S
C1440 O1470 1.325 . S
N1441 C1444 1.314 . S
N1441 C1445 1.279 . S
C1442 C1440 1.348 . S
C1442 C1444 1.353 . S
C1442 H1484 0.929 . S
C1443 C1440 1.356 . S
C1443 C1445 1.358 . S
C1443 H1485 0.930 . S
C1444 N1441 1.314 . S
C1444 C1442 1.353 . S
C1444 H1486 0.930 . S
C1445 N1441 1.279 . S
C1445 C1443 1.358 . S
C1445 H1487 0.930 . S
C1446 C1447 1.348 . S
C1446 C1448 1.356 1_545 S
C1446 O1471 1.327 . S
C1447 C1446 1.348 . S
C1447 C1449 1.353 . S
C1447 H1488 0.929 . S
C1448 C1446 1.356 1_565 S
C1448 C1450 1.358 . S
C1448 H1489 0.930 . S
C1449 C1447 1.353 . S
C1449 N1451 1.314 . S
C1449 H1490 0.930 . S
C1450 C1448 1.358 . S
C1450 N1451 1.279 1_565 S
C1450 H1491 0.930 . S
N1451 C1449 1.314 . S
N1451 C1450 1.279 1_545 S
C1452 C1454 1.353 . S
C1452 N1455 1.314 1_565 S
C1452 H1458 0.930 . S
C1453 N1455 1.279 . S
C1453 C1456 1.358 . S
C1453 H1459 0.930 . S
C1454 C1452 1.353 . S
C1454 C1457 1.348 1_565 S
C1454 H1492 0.929 . S
N1455 Li1410 1.990 . S
N1455 C1452 1.314 1_545 S
N1455 C1453 1.279 . S
C1456 C1453 1.358 . S
C1456 C1457 1.356 . S
C1456 H1493 0.930 . S
C1457 C1454 1.348 1_545 S
C1457 C1456 1.356 . S
H1458 C1452 0.930 . S
H1459 C1453 0.930 . S
C1460 N1461 1.314 . S
C1460 C1462 1.353 . S
C1460 H1466 0.930 . S
N1461 Li1411 1.990 . S
N1461 C1460 1.314 . S
N1461 C1464 1.279 . S
C1462 C1460 1.353 . S
C1462 C1465 1.348 . S
C1462 H1494 0.929 . S
C1463 C1464 1.358 . S
C1463 C1465 1.356 . S
C1463 H1495 0.930 . S
C1464 N1461 1.279 . S
C1464 C1463 1.358 . S
C1464 H1467 0.930 . S
C1465 C1462 1.348 . S
C1465 C1463 1.356 . S
H1466 C1460 0.930 . S
H1467 C1464 0.930 . S
O1468 Li1408 1.956 1_565 S
O1468 Li1409 1.970 . S
O1468 Li1410 1.961 1_565 S
O1468 C1412 1.325 . S
O1469 Li1408 1.970 . S
O1469 Li1409 1.956 1_545 S
O1469 Li1411 1.961 . S
O1469 C1418 1.325 . S
O1470 Li1408 1.961 . S
O1470 Li1410 1.956 . S
O1470 Li1411 1.970 . S
O1470 C1440 1.325 . S
O1471 Li1409 1.926 1_545 S
O1471 Li1410 1.973 . S
O1471 Li1411 1.994 . S
O1471 C1446 1.327 . S
H1472 C1414 0.929 . S
H1473 C1415 0.930 . S
H1474 C1416 0.930 . S
H1475 C1417 0.930 . S
H1476 C1419 0.930 . S
H1477 C1421 0.929 . S
H1478 C1422 0.930 . S
H1479 C1423 0.930 . S
H1480 C1426 0.930 . S
H1481 C1429 0.929 . S
H1482 C1434 0.929 . S
H1483 C1435 0.930 . S
H1484 C1442 0.929 . S
H1485 C1443 0.930 . S
H1486 C1444 0.930 . S
H1487 C1445 0.930 . S
H1488 C1447 0.929 . S
H1489 C1448 0.930 . S
H1490 C1449 0.930 . S
H1491 C1450 0.930 . S
H1492 C1454 0.929 . S
H1493 C1456 0.930 . S
H1494 C1462 0.929 . S
H1495 C1463 0.930 . S
Li1496 N1513 1.990 . S
Li1496 O1556 1.956 . S
Li1496 O1557 1.970 . S
Li1496 O1558 1.961 . S
Li1497 N1521 1.990 . S
Li1497 O1556 1.970 . S
Li1497 O1557 1.956 . S
Li1497 O1559 1.961 . S
Li1498 N1543 1.990 . S
Li1498 O1556 1.961 . S
Li1498 O1558 1.956 . S
Li1498 O1559 1.970 . S
Li1499 N1549 1.990 . S
Li1499 O1557 1.961 . S
Li1499 O1558 1.970 . S
Li1499 O1559 1.956 . S
C1500 C1502 1.348 . S
C1500 C1503 1.356 . S
C1500 O1556 1.325 . S
N1501 C1504 1.314 . S
N1501 C1505 1.279 . S
C1502 C1500 1.348 . S
C1502 C1504 1.353 . S
C1502 H1560 0.929 . S
C1503 C1500 1.356 . S
C1503 C1505 1.358 . S
C1503 H1561 0.930 . S
C1504 N1501 1.314 . S
C1504 C1502 1.353 . S
C1504 H1562 0.930 . S
C1505 N1501 1.279 . S
C1505 C1503 1.358 . S
C1505 H1563 0.930 . S
C1506 C1509 1.348 . S
C1506 C1510 1.356 . S
C1506 O1557 1.325 . S
C1507 N1508 1.279 . S
C1507 C1510 1.358 . S
C1507 H1564 0.930 . S
N1508 C1507 1.279 . S
N1508 C1511 1.314 . S
C1509 C1506 1.348 . S
C1509 C1511 1.353 . S
C1509 H1565 0.929 . S
C1510 C1506 1.356 . S
C1510 C1507 1.358 . S
C1510 H1566 0.930 . S
C1511 N1508 1.314 . S
C1511 C1509 1.353 . S
C1511 H1567 0.930 . S
C1512 N1513 1.314 . S
C1512 C1517 1.353 . S
C1512 H1518 0.930 . S
N1513 Li1496 1.990 . S
N1513 C1512 1.314 . S
N1513 C1515 1.279 . S
C1514 C1515 1.358 . S
C1514 C1516 1.356 . S
C1514 H1568 0.930 . S
C1515 N1513 1.279 . S
C1515 C1514 1.358 . S
C1515 H1519 0.930 . S
C1516 C1514 1.356 . S
C1516 C1517 1.348 . S
C1517 C1512 1.353 . S
C1517 C1516 1.348 . S
C1517 H1569 0.929 . S
H1518 C1512 0.930 . S
H1519 C1515 0.930 . S
C1520 N1521 1.314 . S
C1520 C1522 1.353 . S
C1520 H1526 0.930 . S
N1521 Li1497 1.990 . S
N1521 C1520 1.314 . S
N1521 C1524 1.279 . S
C1522 C1520 1.353 . S
C1522 C1525 1.348 . S
C1522 H1570 0.929 . S
C1523 C1524 1.358 . S
C1523 C1525 1.356 . S
C1523 H1571 0.930 . S
C1524 N1521 1.279 . S
C1524 C1523 1.358 . S
C1524 H1527 0.930 . S
C1525 C1522 1.348 . S
C1525 C1523 1.356 . S
H1526 C1520 0.930 . S
H1527 C1524 0.930 . S
C1528 C1530 1.348 . S
C1528 C1531 1.356 . S
C1528 O1558 1.325 . S
N1529 C1532 1.314 . S
N1529 C1533 1.279 . S
C1530 C1528 1.348 . S
C1530 C1532 1.353 . S
C1530 H1572 0.929 . S
C1531 C1528 1.356 . S
C1531 C1533 1.358 . S
C1531 H1573 0.930 . S
C1532 N1529 1.314 . S
C1532 C1530 1.353 . S
C1532 H1574 0.930 . S
C1533 N1529 1.279 . S
C1533 C1531 1.358 . S
C1533 H1575 0.930 . S
C1534 C1535 1.348 . S
C1534 C1536 1.356 . S
C1534 O1559 1.325 . S
C1535 C1534 1.348 . S
C1535 C1537 1.353 . S
C1535 H1576 0.929 . S
C1536 C1534 1.356 . S
C1536 C1538 1.358 . S
C1536 H1577 0.930 . S
C1537 C1535 1.353 . S
C1537 N1539 1.314 . S
C1537 H1578 0.930 . S
C1538 C1536 1.358 . S
C1538 N1539 1.279 . S
C1538 H1579 0.930 . S
N1539 C1537 1.314 . S
N1539 C1538 1.279 . S
C1540 C1542 1.353 . S
C1540 N1543 1.314 . S
C1540 H1546 0.930 . S
C1541 N1543 1.279 . S
C1541 C1544 1.358 . S
C1541 H1547 0.930 . S
C1542 C1540 1.353 . S
C1542 C1545 1.348 . S
C1542 H1580 0.929 . S
N1543 Li1498 1.990 . S
N1543 C1540 1.314 . S
N1543 C1541 1.279 . S
C1544 C1541 1.358 . S
C1544 C1545 1.356 . S
C1544 H1581 0.930 . S
C1545 C1542 1.348 . S
C1545 C1544 1.356 . S
H1546 C1540 0.930 . S
H1547 C1541 0.930 . S
C1548 N1549 1.314 . S
C1548 C1550 1.353 . S
C1548 H1554 0.930 . S
N1549 Li1499 1.990 . S
N1549 C1548 1.314 . S
N1549 C1552 1.279 . S
C1550 C1548 1.353 . S
C1550 C1553 1.348 . S
C1550 H1582 0.929 . S
C1551 C1552 1.358 . S
C1551 C1553 1.356 . S
C1551 H1583 0.930 . S
C1552 N1549 1.279 . S
C1552 C1551 1.358 . S
C1552 H1555 0.930 . S
C1553 C1550 1.348 . S
C1553 C1551 1.356 . S
H1554 C1548 0.930 . S
H1555 C1552 0.930 . S
O1556 Li1496 1.956 . S
O1556 Li1497 1.970 . S
O1556 Li1498 1.961 . S
O1556 C1500 1.325 . S
O1557 Li1496 1.970 . S
O1557 Li1497 1.956 . S
O1557 Li1499 1.961 . S
O1557 C1506 1.325 . S
O1558 Li1496 1.961 . S
O1558 Li1498 1.956 . S
O1558 Li1499 1.970 . S
O1558 C1528 1.325 . S
O1559 Li1497 1.961 . S
O1559 Li1498 1.970 . S
O1559 Li1499 1.956 . S
O1559 C1534 1.325 . S
H1560 C1502 0.929 . S
H1561 C1503 0.930 . S
H1562 C1504 0.930 . S
H1563 C1505 0.930 . S
H1564 C1507 0.930 . S
H1565 C1509 0.929 . S
H1566 C1510 0.930 . S
H1567 C1511 0.930 . S
H1568 C1514 0.930 . S
H1569 C1517 0.929 . S
H1570 C1522 0.929 . S
H1571 C1523 0.930 . S
H1572 C1530 0.929 . S
H1573 C1531 0.930 . S
H1574 C1532 0.930 . S
H1575 C1533 0.930 . S
H1576 C1535 0.929 . S
H1577 C1536 0.930 . S
H1578 C1537 0.930 . S
H1579 C1538 0.930 . S
H1580 C1542 0.929 . S
H1581 C1544 0.930 . S
H1582 C1550 0.929 . S
H1583 C1551 0.930 . S
Li1584 N1601 1.990 . S
Li1584 O1644 1.956 . S
Li1584 O1645 1.970 . S
Li1584 O1646 1.961 1_545 S
Li1585 N1609 1.990 . S
Li1585 O1644 1.970 . S
Li1585 O1645 1.956 . S
Li1585 O1647 1.961 . S
Li1586 N1631 1.990 . S
Li1586 O1644 1.961 . S
Li1586 O1646 1.956 1_545 S
Li1586 O1647 1.970 . S
Li1587 N1637 1.990 . S
Li1587 O1645 1.961 1_565 S
Li1587 O1646 1.970 . S
Li1587 O1647 1.956 1_565 S
C1588 C1590 1.348 . S
C1588 C1591 1.356 . S
C1588 O1644 1.325 . S
N1589 C1592 1.314 . S
N1589 C1593 1.279 . S
C1590 C1588 1.348 . S
C1590 C1592 1.353 . S
C1590 H1648 0.929 . S
C1591 C1588 1.356 . S
C1591 C1593 1.358 . S
C1591 H1649 0.930 . S
C1592 N1589 1.314 . S
C1592 C1590 1.353 . S
C1592 H1650 0.930 . S
C1593 N1589 1.279 . S
C1593 C1591 1.358 . S
C1593 H1651 0.930 . S
C1594 C1597 1.348 . S
C1594 C1598 1.356 . S
C1594 O1645 1.325 . S
C1595 N1596 1.279 . S
C1595 C1598 1.358 . S
C1595 H1652 0.930 1_545 S
N1596 C1595 1.279 . S
N1596 C1599 1.314 . S
C1597 C1594 1.348 . S
C1597 C1599 1.353 . S
C1597 H1653 0.929 . S
C1598 C1594 1.356 . S
C1598 C1595 1.358 . S
C1598 H1654 0.930 1_545 S
C1599 N1596 1.314 . S
C1599 C1597 1.353 . S
C1599 H1655 0.930 . S
C1600 N1601 1.314 1_565 S
C1600 C1605 1.353 . S
C1600 H1606 0.930 . S
N1601 Li1584 1.990 . S
N1601 C1600 1.314 1_545 S
N1601 C1603 1.279 . S
C1602 C1603 1.358 . S
C1602 C1604 1.356 . S
C1602 H1656 0.930 . S
C1603 N1601 1.279 . S
C1603 C1602 1.358 . S
C1603 H1607 0.930 . S
C1604 C1602 1.356 . S
C1604 C1605 1.348 1_545 S
C1605 C1600 1.353 . S
C1605 C1604 1.348 1_565 S
C1605 H1657 0.929 . S
H1606 C1600 0.930 . S
H1607 C1603 0.930 . S
C1608 N1609 1.314 . S
C1608 C1610 1.353 . S
C1608 H1614 0.930 . S
N1609 Li1585 1.990 . S
N1609 C1608 1.314 . S
N1609 C1612 1.279 . S
C1610 C1608 1.353 . S
C1610 C1613 1.348 . S
C1610 H1658 0.929 . S
C1611 C1612 1.358 . S
C1611 C1613 1.356 . S
C1611 H1659 0.930 . S
C1612 N1609 1.279 . S
C1612 C1611 1.358 . S
C1612 H1615 0.930 . S
C1613 C1610 1.348 . S
C1613 C1611 1.356 . S
H1614 C1608 0.930 . S
H1615 C1612 0.930 . S
C1616 C1618 1.348 . S
C1616 C1619 1.356 . S
C1616 O1646 1.325 . S
N1617 C1620 1.314 . S
N1617 C1621 1.279 . S
C1618 C1616 1.348 . S
C1618 C1620 1.353 . S
C1618 H1660 0.929 . S
C1619 C1616 1.356 . S
C1619 C1621 1.358 . S
C1619 H1661 0.930 . S
C1620 N1617 1.314 . S
C1620 C1618 1.353 . S
C1620 H1662 0.930 . S
C1621 N1617 1.279 . S
C1621 C1619 1.358 . S
C1621 H1663 0.930 . S
C1622 C1623 1.348 1_545 S
C1622 C1624 1.356 . S
C1622 O1647 1.325 . S
C1623 C1622 1.348 1_565 S
C1623 C1625 1.353 . S
C1623 H1664 0.929 . S
C1624 C1622 1.356 . S
C1624 C1626 1.358 . S
C1624 H1665 0.930 . S
C1625 C1623 1.353 . S
C1625 N1627 1.314 1_565 S
C1625 H1666 0.930 . S
C1626 C1624 1.358 . S
C1626 N1627 1.279 . S
C1626 H1667 0.930 . S
N1627 C1625 1.314 1_545 S
N1627 C1626 1.279 . S
C1628 C1630 1.353 . S
C1628 N1631 1.314 . S
C1628 H1634 0.930 . S
C1629 N1631 1.279 1_565 S
C1629 C1632 1.358 . S
C1629 H1635 0.930 . S
C1630 C1628 1.353 . S
C1630 C1633 1.348 . S
C1630 H1668 0.929 . S
N1631 Li1586 1.990 . S
N1631 C1628 1.314 . S
N1631 C1629 1.279 1_545 S
C1632 C1629 1.358 . S
C1632 C1633 1.356 1_565 S
C1632 H1669 0.930 . S
C1633 C1630 1.348 . S
C1633 C1632 1.356 1_545 S
H1634 C1628 0.930 . S
H1635 C1629 0.930 . S
C1636 N1637 1.314 . S
C1636 C1638 1.353 . S
C1636 H1642 0.930 . S
N1637 Li1587 1.990 . S
N1637 C1636 1.314 . S
N1637 C1640 1.279 . S
C1638 C1636 1.353 . S
C1638 C1641 1.348 . S
C1638 H1670 0.929 . S
C1639 C1640 1.358 . S
C1639 C1641 1.356 . S
C1639 H1671 0.930 . S
C1640 N1637 1.279 . S
C1640 C1639 1.358 . S
C1640 H1643 0.930 . S
C1641 C1638 1.348 . S
C1641 C1639 1.356 . S
H1642 C1636 0.930 . S
H1643 C1640 0.930 . S
O1644 Li1584 1.956 . S
O1644 Li1585 1.970 . S
O1644 Li1586 1.961 . S
O1644 C1588 1.325 . S
O1645 Li1584 1.970 . S
O1645 Li1585 1.956 . S
O1645 Li1587 1.961 1_545 S
O1645 C1594 1.325 . S
O1646 Li1584 1.961 1_565 S
O1646 Li1586 1.956 1_565 S
O1646 Li1587 1.970 . S
O1646 C1616 1.325 . S
O1647 Li1585 1.961 . S
O1647 Li1586 1.970 . S
O1647 Li1587 1.956 1_545 S
O1647 C1622 1.325 . S
H1648 C1590 0.929 . S
H1649 C1591 0.930 . S
H1650 C1592 0.930 . S
H1651 C1593 0.930 . S
H1652 C1595 0.930 1_565 S
H1653 C1597 0.929 . S
H1654 C1598 0.930 1_565 S
H1655 C1599 0.930 . S
H1656 C1602 0.930 . S
H1657 C1605 0.929 . S
H1658 C1610 0.929 . S
H1659 C1611 0.930 . S
H1660 C1618 0.929 . S
H1661 C1619 0.930 . S
H1662 C1620 0.930 . S
H1663 C1621 0.930 . S
H1664 C1623 0.929 . S
H1665 C1624 0.930 . S
H1666 C1625 0.930 . S
H1667 C1626 0.930 . S
H1668 C1630 0.929 . S
H1669 C1632 0.930 . S
H1670 C1638 0.929 . S
H1671 C1639 0.930 . S
Li1672 N1689 1.990 . S
Li1672 O1732 1.956 . S
Li1672 O1733 1.970 . S
Li1672 O1734 1.961 1_554 S
Li1673 N1697 1.990 . S
Li1673 O1732 1.970 . S
Li1673 O1733 1.956 . S
Li1673 O1735 1.961 . S
Li1674 N1719 1.990 . S
Li1674 O1732 1.961 . S
Li1674 O1734 1.956 1_554 S
Li1674 O1735 1.970 . S
Li1675 N1725 1.990 . S
Li1675 O1733 1.961 1_556 S
Li1675 O1734 1.970 . S
Li1675 O1735 1.956 1_556 S
C1676 C1678 1.348 . S
C1676 C1679 1.356 . S
C1676 O1732 1.325 . S
N1677 C1680 1.314 . S
N1677 C1681 1.279 . S
C1678 C1676 1.348 . S
C1678 C1680 1.353 . S
C1678 H1736 0.929 . S
C1679 C1676 1.356 . S
C1679 C1681 1.358 . S
C1679 H1737 0.930 . S
C1680 N1677 1.314 . S
C1680 C1678 1.353 . S
C1680 H1738 0.930 . S
C1681 N1677 1.279 . S
C1681 C1679 1.358 . S
C1681 H1739 0.930 . S
C1682 C1685 1.348 . S
C1682 C1686 1.356 . S
C1682 O1733 1.325 . S
C1683 N1684 1.279 . S
C1683 C1686 1.358 . S
C1683 H1740 0.930 . S
N1684 C1683 1.279 . S
N1684 C1687 1.314 . S
C1685 C1682 1.348 . S
C1685 C1687 1.353 . S
C1685 H1741 0.929 . S
C1686 C1682 1.356 . S
C1686 C1683 1.358 . S
C1686 H1742 0.930 . S
C1687 N1684 1.314 . S
C1687 C1685 1.353 . S
C1687 H1743 0.930 . S
C1688 N1689 1.314 1_556 S
C1688 C1693 1.353 . S
C1688 H1694 0.930 . S
N1689 Li1672 1.990 . S
N1689 C1688 1.314 1_554 S
N1689 C1691 1.279 . S
C1690 C1691 1.358 . S
C1690 C1692 1.356 . S
C1690 H1744 0.930 . S
C1691 N1689 1.279 . S
C1691 C1690 1.358 . S
C1691 H1695 0.930 . S
C1692 C1690 1.356 . S
C1692 C1693 1.348 1_554 S
C1693 C1688 1.353 . S
C1693 C1692 1.348 1_556 S
C1693 H1745 0.929 . S
H1694 C1688 0.930 . S
H1695 C1691 0.930 . S
C1696 N1697 1.314 . S
C1696 C1698 1.353 . S
C1696 H1702 0.930 . S
N1697 Li1673 1.990 . S
N1697 C1696 1.314 . S
N1697 C1700 1.279 . S
C1698 C1696 1.353 . S
C1698 C1701 1.348 . S
C1698 H1746 0.929 . S
C1699 C1700 1.358 . S
C1699 C1701 1.356 . S
C1699 H1747 0.930 . S
C1700 N1697 1.279 . S
C1700 C1699 1.358 . S
C1700 H1703 0.930 . S
C1701 C1698 1.348 . S
C1701 C1699 1.356 . S
H1702 C1696 0.930 . S
H1703 C1700 0.930 . S
C1704 C1706 1.348 . S
C1704 C1707 1.356 . S
C1704 O1734 1.325 . S
N1705 C1708 1.314 . S
N1705 C1709 1.279 . S
C1706 C1704 1.348 . S
C1706 C1708 1.353 . S
C1706 H1748 0.929 . S
C1707 C1704 1.356 . S
C1707 C1709 1.358 . S
C1707 H1749 0.930 . S
C1708 N1705 1.314 . S
C1708 C1706 1.353 . S
C1708 H1750 0.930 . S
C1709 N1705 1.279 . S
C1709 C1707 1.358 . S
C1709 H1751 0.930 . S
C1710 C1711 1.348 . S
C1710 C1712 1.356 . S
C1710 O1735 1.325 . S
C1711 C1710 1.348 . S
C1711 C1713 1.353 . S
C1711 H1752 0.929 1_554 S
C1712 C1710 1.356 . S
C1712 C1714 1.358 . S
C1712 H1753 0.930 . S
C1713 C1711 1.353 . S
C1713 N1715 1.314 . S
C1713 H1754 0.930 1_554 S
C1714 C1712 1.358 . S
C1714 N1715 1.279 . S
C1714 H1755 0.930 . S
N1715 C1713 1.314 . S
N1715 C1714 1.279 . S
C1716 C1718 1.353 . S
C1716 N1719 1.314 . S
C1716 H1722 0.930 . S
C1717 N1719 1.279 1_556 S
C1717 C1720 1.358 . S
C1717 H1723 0.930 . S
C1718 C1716 1.353 . S
C1718 C1721 1.348 . S
C1718 H1756 0.929 . S
N1719 Li1674 1.990 . S
N1719 C1716 1.314 . S
N1719 C1717 1.279 1_554 S
C1720 C1717 1.358 . S
C1720 C1721 1.356 1_556 S
C1720 H1757 0.930 . S
C1721 C1718 1.348 . S
C1721 C1720 1.356 1_554 S
H1722 C1716 0.930 . S
H1723 C1717 0.930 . S
C1724 N1725 1.314 . S
C1724 C1726 1.353 . S
C1724 H1730 0.930 . S
N1725 Li1675 1.990 . S
N1725 C1724 1.314 . S
N1725 C1728 1.279 . S
C1726 C1724 1.353 . S
C1726 C1729 1.348 . S
C1726 H1758 0.929 . S
C1727 C1728 1.358 . S
C1727 C1729 1.356 . S
C1727 H1759 0.930 . S
C1728 N1725 1.279 . S
C1728 C1727 1.358 . S
C1728 H1731 0.930 . S
C1729 C1726 1.348 . S
C1729 C1727 1.356 . S
H1730 C1724 0.930 . S
H1731 C1728 0.930 . S
O1732 Li1672 1.956 . S
O1732 Li1673 1.970 . S
O1732 Li1674 1.961 . S
O1732 C1676 1.325 . S
O1733 Li1672 1.970 . S
O1733 Li1673 1.956 . S
O1733 Li1675 1.961 1_554 S
O1733 C1682 1.325 . S
O1734 Li1672 1.961 1_556 S
O1734 Li1674 1.956 1_556 S
O1734 Li1675 1.970 . S
O1734 C1704 1.325 . S
O1735 Li1673 1.961 . S
O1735 Li1674 1.970 . S
O1735 Li1675 1.956 1_554 S
O1735 C1710 1.325 . S
H1736 C1678 0.929 . S
H1737 C1679 0.930 . S
H1738 C1680 0.930 . S
H1739 C1681 0.930 . S
H1740 C1683 0.930 . S
H1741 C1685 0.929 . S
H1742 C1686 0.930 . S
H1743 C1687 0.930 . S
H1744 C1690 0.930 . S
H1745 C1693 0.929 . S
H1746 C1698 0.929 . S
H1747 C1699 0.930 . S
H1748 C1706 0.929 . S
H1749 C1707 0.930 . S
H1750 C1708 0.930 . S
H1751 C1709 0.930 . S
H1752 C1711 0.929 1_556 S
H1753 C1712 0.930 . S
H1754 C1713 0.930 1_556 S
H1755 C1714 0.930 . S
H1756 C1718 0.929 . S
H1757 C1720 0.930 . S
H1758 C1726 0.929 . S
H1759 C1727 0.930 . S
Li1760 N1777 1.990 . S
Li1760 O1820 1.956 . S
Li1760 O1821 1.970 . S
Li1760 O1822 1.961 . S
Li1761 N1785 1.990 . S
Li1761 O1820 1.970 . S
Li1761 O1821 1.956 . S
Li1761 O1823 1.961 1_554 S
Li1762 N1807 1.990 . S
Li1762 O1820 1.961 1_556 S
Li1762 O1822 1.956 1_556 S
Li1762 O1823 1.970 . S
Li1763 N1813 1.990 . S
Li1763 O1821 1.961 . S
Li1763 O1822 1.970 . S
Li1763 O1823 1.956 1_554 S
C1764 C1766 1.348 . S
C1764 C1767 1.347 1_554 S
C1764 O1820 1.325 . S
N1765 C1768 1.314 . S
N1765 C1769 1.275 1_554 S
C1766 C1764 1.348 . S
C1766 C1768 1.353 . S
C1766 H1824 0.929 . S
C1767 C1764 1.347 1_556 S
C1767 C1769 1.358 . S
C1767 H1825 0.944 . S
C1768 N1765 1.314 . S
C1768 C1766 1.353 . S
C1768 H1826 0.930 . S
C1769 N1765 1.275 1_556 S
C1769 C1767 1.358 . S
C1769 H1827 0.935 . S
C1770 C1773 1.348 . S
C1770 C1774 1.356 . S
C1770 O1821 1.325 . S
C1771 N1772 1.279 . S
C1771 C1774 1.358 . S
C1771 H1828 0.930 . S
N1772 C1771 1.279 . S
N1772 C1775 1.314 . S
C1773 C1770 1.348 . S
C1773 C1775 1.353 . S
C1773 H1829 0.929 . S
C1774 C1770 1.356 . S
C1774 C1771 1.358 . S
C1774 H1830 0.930 . S
C1775 N1772 1.314 . S
C1775 C1773 1.353 . S
C1775 H1831 0.930 . S
C1776 N1777 1.314 . S
C1776 C1781 1.353 . S
C1776 H1782 0.930 . S
N1777 Li1760 1.990 . S
N1777 C1776 1.314 . S
N1777 C1779 1.279 . S
C1778 C1779 1.358 . S
C1778 C1780 1.356 . S
C1778 H1832 0.930 . S
C1779 N1777 1.279 . S
C1779 C1778 1.358 . S
C1779 H1783 0.930 . S
C1780 C1778 1.356 . S
C1780 C1781 1.348 . S
C1781 C1776 1.353 . S
C1781 C1780 1.348 . S
C1781 H1833 0.929 . S
H1782 C1776 0.930 . S
H1783 C1779 0.930 . S
C1784 N1785 1.314 1_556 S
C1784 C1786 1.353 . S
C1784 H1790 0.930 . S
N1785 Li1761 1.990 . S
N1785 C1784 1.314 1_554 S
N1785 C1788 1.279 . S
C1786 C1784 1.353 . S
C1786 C1789 1.348 1_556 S
C1786 H1834 0.929 . S
C1787 C1788 1.358 . S
C1787 C1789 1.356 . S
C1787 H1835 0.930 . S
C1788 N1785 1.279 . S
C1788 C1787 1.358 . S
C1788 H1791 0.930 . S
C1789 C1786 1.348 1_554 S
C1789 C1787 1.356 . S
H1790 C1784 0.930 . S
H1791 C1788 0.930 . S
C1792 C1794 1.348 1_554 S
C1792 C1795 1.356 . S
C1792 O1822 1.325 . S
N1793 C1796 1.314 1_554 S
N1793 C1797 1.279 . S
C1794 C1792 1.348 1_556 S
C1794 C1796 1.353 . S
C1794 H1836 0.929 . S
C1795 C1792 1.356 . S
C1795 C1797 1.358 . S
C1795 H1837 0.930 . S
C1796 N1793 1.314 1_556 S
C1796 C1794 1.353 . S
C1796 H1838 0.930 . S
C1797 N1793 1.279 . S
C1797 C1795 1.358 . S
C1797 H1839 0.930 . S
C1798 C1799 1.348 . S
C1798 C1800 1.356 . S
C1798 O1823 1.325 . S
C1799 C1798 1.348 . S
C1799 C1801 1.353 . S
C1799 H1840 0.929 . S
C1800 C1798 1.356 . S
C1800 C1802 1.358 . S
C1800 H1841 0.930 . S
C1801 C1799 1.353 . S
C1801 N1803 1.314 . S
C1801 H1842 0.930 . S
C1802 C1800 1.358 . S
C1802 N1803 1.279 . S
C1802 H1843 0.930 . S
N1803 C1801 1.314 . S
N1803 C1802 1.279 . S
C1804 C1806 1.353 . S
C1804 N1807 1.314 . S
C1804 H1810 0.930 . S
C1805 N1807 1.279 . S
C1805 C1808 1.358 . S
C1805 H1811 0.930 . S
C1806 C1804 1.353 . S
C1806 C1809 1.348 . S
C1806 H1844 0.929 . S
N1807 Li1762 1.990 . S
N1807 C1804 1.314 . S
N1807 C1805 1.279 . S
C1808 C1805 1.358 . S
C1808 C1809 1.356 . S
C1808 H1845 0.930 . S
C1809 C1806 1.348 . S
C1809 C1808 1.356 . S
H1810 C1804 0.930 . S
H1811 C1805 0.930 . S
C1812 N1813 1.314 . S
C1812 C1814 1.353 . S
C1812 H1818 0.930 . S
N1813 Li1763 1.990 . S
N1813 C1812 1.314 . S
N1813 C1816 1.279 1_554 S
C1814 C1812 1.353 . S
C1814 C1817 1.348 . S
C1814 H1846 0.929 . S
C1815 C1816 1.358 . S
C1815 C1817 1.356 1_556 S
C1815 H1847 0.930 . S
C1816 N1813 1.279 1_556 S
C1816 C1815 1.358 . S
C1816 H1819 0.930 . S
C1817 C1814 1.348 . S
C1817 C1815 1.356 1_554 S
H1818 C1812 0.930 . S
H1819 C1816 0.930 . S
O1820 Li1760 1.956 . S
O1820 Li1761 1.970 . S
O1820 Li1762 1.961 1_554 S
O1820 C1764 1.325 . S
O1821 Li1760 1.970 . S
O1821 Li1761 1.956 . S
O1821 Li1763 1.961 . S
O1821 C1770 1.325 . S
O1822 Li1760 1.961 . S
O1822 Li1762 1.956 1_554 S
O1822 Li1763 1.970 . S
O1822 C1792 1.325 . S
O1823 Li1761 1.961 1_556 S
O1823 Li1762 1.970 . S
O1823 Li1763 1.956 1_556 S
O1823 C1798 1.325 . S
H1824 C1766 0.929 . S
H1825 C1767 0.944 . S
H1826 C1768 0.930 . S
H1827 C1769 0.935 . S
H1828 C1771 0.930 . S
H1829 C1773 0.929 . S
H1830 C1774 0.930 . S
H1831 C1775 0.930 . S
H1832 C1778 0.930 . S
H1833 C1781 0.929 . S
H1834 C1786 0.929 . S
H1835 C1787 0.930 . S
H1836 C1794 0.929 . S
H1837 C1795 0.930 . S
H1838 C1796 0.930 . S
H1839 C1797 0.930 . S
H1840 C1799 0.929 . S
H1841 C1800 0.930 . S
H1842 C1801 0.930 . S
H1843 C1802 0.930 . S
H1844 C1806 0.929 . S
H1845 C1808 0.930 . S
H1846 C1814 0.929 . S
H1847 C1815 0.930 . S
Li1848 N1865 1.990 . S
Li1848 O1908 1.956 . S
Li1848 O1909 1.970 . S
Li1848 O1910 1.961 . S
Li1849 N1873 1.990 . S
Li1849 O1908 1.970 . S
Li1849 O1909 1.956 . S
Li1849 O1911 1.961 . S
Li1850 N1895 1.990 . S
Li1850 O1908 1.961 . S
Li1850 O1910 1.956 . S
Li1850 O1911 1.970 . S
Li1851 N1901 1.990 . S
Li1851 O1909 1.961 . S
Li1851 O1910 1.970 . S
Li1851 O1911 1.956 . S
C1852 C1854 1.348 . S
C1852 C1855 1.356 . S
C1852 O1908 1.325 . S
N1853 C1856 1.314 . S
N1853 C1857 1.279 . S
C1854 C1852 1.348 . S
C1854 C1856 1.353 . S
C1854 H1912 0.929 . S
C1855 C1852 1.356 . S
C1855 C1857 1.358 . S
C1855 H1913 0.930 . S
C1856 N1853 1.314 . S
C1856 C1854 1.353 . S
C1856 H1914 0.930 . S
C1857 N1853 1.279 . S
C1857 C1855 1.358 . S
C1857 H1915 0.930 . S
C1858 C1861 1.348 . S
C1858 C1862 1.356 . S
C1858 O1909 1.325 . S
C1859 N1860 1.279 . S
C1859 C1862 1.358 . S
C1859 H1916 0.930 . S
N1860 C1859 1.279 . S
N1860 C1863 1.314 . S
C1861 C1858 1.348 . S
C1861 C1863 1.353 . S
C1861 H1917 0.929 . S
C1862 C1858 1.356 . S
C1862 C1859 1.358 . S
C1862 H1918 0.930 . S
C1863 N1860 1.314 . S
C1863 C1861 1.353 . S
C1863 H1919 0.930 . S
C1864 N1865 1.314 . S
C1864 C1869 1.353 . S
C1864 H1870 0.930 . S
N1865 Li1848 1.990 . S
N1865 C1864 1.314 . S
N1865 C1867 1.279 . S
C1866 C1867 1.358 . S
C1866 C1868 1.356 . S
C1866 H1920 0.930 . S
C1867 N1865 1.279 . S
C1867 C1866 1.358 . S
C1867 H1871 0.930 . S
C1868 C1866 1.356 . S
C1868 C1869 1.348 . S
C1869 C1864 1.353 . S
C1869 C1868 1.348 . S
C1869 H1921 0.929 . S
H1870 C1864 0.930 . S
H1871 C1867 0.930 . S
C1872 N1873 1.314 . S
C1872 C1874 1.353 . S
C1872 H1878 0.930 . S
N1873 Li1849 1.990 . S
N1873 C1872 1.314 . S
N1873 C1876 1.279 . S
C1874 C1872 1.353 . S
C1874 C1877 1.348 . S
C1874 H1922 0.929 . S
C1875 C1876 1.358 . S
C1875 C1877 1.356 . S
C1875 H1923 0.930 . S
C1876 N1873 1.279 . S
C1876 C1875 1.358 . S
C1876 H1879 0.930 . S
C1877 C1874 1.348 . S
C1877 C1875 1.356 . S
H1878 C1872 0.930 . S
H1879 C1876 0.930 . S
C1880 C1882 1.348 . S
C1880 C1883 1.356 . S
C1880 O1910 1.325 . S
N1881 C1884 1.314 . S
N1881 C1885 1.279 . S
C1882 C1880 1.348 . S
C1882 C1884 1.353 . S
C1882 H1924 0.929 . S
C1883 C1880 1.356 . S
C1883 C1885 1.358 . S
C1883 H1925 0.930 . S
C1884 N1881 1.314 . S
C1884 C1882 1.353 . S
C1884 H1926 0.930 . S
C1885 N1881 1.279 . S
C1885 C1883 1.358 . S
C1885 H1927 0.930 . S
C1886 C1887 1.348 . S
C1886 C1888 1.356 . S
C1886 O1911 1.325 . S
C1887 C1886 1.348 . S
C1887 C1889 1.353 . S
C1887 H1928 0.929 . S
C1888 C1886 1.356 . S
C1888 C1890 1.358 . S
C1888 H1929 0.930 . S
C1889 C1887 1.353 . S
C1889 N1891 1.314 . S
C1889 H1930 0.930 . S
C1890 C1888 1.358 . S
C1890 N1891 1.279 . S
C1890 H1931 0.930 . S
N1891 C1889 1.314 . S
N1891 C1890 1.279 . S
C1892 C1894 1.353 . S
C1892 N1895 1.314 . S
C1892 H1898 0.930 . S
C1893 N1895 1.279 . S
C1893 C1896 1.358 . S
C1893 H1899 0.930 . S
C1894 C1892 1.353 . S
C1894 C1897 1.348 . S
C1894 H1932 0.929 . S
N1895 Li1850 1.990 . S
N1895 C1892 1.314 . S
N1895 C1893 1.279 . S
C1896 C1893 1.358 . S
C1896 C1897 1.356 . S
C1896 H1933 0.930 . S
C1897 C1894 1.348 . S
C1897 C1896 1.356 . S
H1898 C1892 0.930 . S
H1899 C1893 0.930 . S
C1900 N1901 1.314 . S
C1900 C1902 1.353 . S
C1900 H1906 0.930 . S
N1901 Li1851 1.990 . S
N1901 C1900 1.314 . S
N1901 C1904 1.279 . S
C1902 C1900 1.353 . S
C1902 C1905 1.348 . S
C1902 H1934 0.929 . S
C1903 C1904 1.358 . S
C1903 C1905 1.356 . S
C1903 H1935 0.930 . S
C1904 N1901 1.279 . S
C1904 C1903 1.358 . S
C1904 H1907 0.930 . S
C1905 C1902 1.348 . S
C1905 C1903 1.356 . S
H1906 C1900 0.930 . S
H1907 C1904 0.930 . S
O1908 Li1848 1.956 . S
O1908 Li1849 1.970 . S
O1908 Li1850 1.961 . S
O1908 C1852 1.325 . S
O1909 Li1848 1.970 . S
O1909 Li1849 1.956 . S
O1909 Li1851 1.961 . S
O1909 C1858 1.325 . S
O1910 Li1848 1.961 . S
O1910 Li1850 1.956 . S
O1910 Li1851 1.970 . S
O1910 C1880 1.325 . S
O1911 Li1849 1.961 . S
O1911 Li1850 1.970 . S
O1911 Li1851 1.956 . S
O1911 C1886 1.325 . S
H1912 C1854 0.929 . S
H1913 C1855 0.930 . S
H1914 C1856 0.930 . S
H1915 C1857 0.930 . S
H1916 C1859 0.930 . S
H1917 C1861 0.929 . S
H1918 C1862 0.930 . S
H1919 C1863 0.930 . S
H1920 C1866 0.930 . S
H1921 C1869 0.929 . S
H1922 C1874 0.929 . S
H1923 C1875 0.930 . S
H1924 C1882 0.929 . S
H1925 C1883 0.930 . S
H1926 C1884 0.930 . S
H1927 C1885 0.930 . S
H1928 C1887 0.929 . S
H1929 C1888 0.930 . S
H1930 C1889 0.930 . S
H1931 C1890 0.930 . S
H1932 C1894 0.929 . S
H1933 C1896 0.930 . S
H1934 C1902 0.929 . S
H1935 C1903 0.930 . S
Li1936 N1953 1.990 . S
Li1936 O1996 1.956 . S
Li1936 O1997 1.970 . S
Li1936 O1998 1.961 . S
Li1937 N1961 1.990 . S
Li1937 O1996 1.970 . S
Li1937 O1997 1.956 . S
Li1937 O1999 1.961 . S
Li1938 N1983 1.990 . S
Li1938 O1996 1.961 . S
Li1938 O1998 1.956 . S
Li1938 O1999 1.970 . S
Li1939 N1989 1.990 . S
Li1939 O1997 1.961 . S
Li1939 O1998 1.970 . S
Li1939 O1999 1.956 . S
C1940 C1942 1.348 . S
C1940 C1943 1.356 . S
C1940 O1996 1.325 . S
N1941 C1944 1.314 . S
N1941 C1945 1.279 . S
C1942 C1940 1.348 . S
C1942 C1944 1.353 . S
C1942 H2000 0.929 . S
C1943 C1940 1.356 . S
C1943 C1945 1.358 . S
C1943 H2001 0.930 . S
C1944 N1941 1.314 . S
C1944 C1942 1.353 . S
C1944 H2002 0.930 . S
C1945 N1941 1.279 . S
C1945 C1943 1.358 . S
C1945 H2003 0.930 . S
C1946 C1949 1.348 . S
C1946 C1950 1.356 . S
C1946 O1997 1.325 . S
C1947 N1948 1.279 . S
C1947 C1950 1.358 . S
C1947 H2004 0.930 . S
N1948 C1947 1.279 . S
N1948 C1951 1.314 . S
C1949 C1946 1.348 . S
C1949 C1951 1.353 . S
C1949 H2005 0.929 . S
C1950 C1946 1.356 . S
C1950 C1947 1.358 . S
C1950 H2006 0.930 . S
C1951 N1948 1.314 . S
C1951 C1949 1.353 . S
C1951 H2007 0.930 . S
C1952 N1953 1.314 . S
C1952 C1957 1.353 . S
C1952 H1958 0.930 . S
N1953 Li1936 1.990 . S
N1953 C1952 1.314 . S
N1953 C1955 1.279 . S
C1954 C1955 1.358 . S
C1954 C1956 1.356 . S
C1954 H2008 0.930 . S
C1955 N1953 1.279 . S
C1955 C1954 1.358 . S
C1955 H1959 0.930 . S
C1956 C1954 1.356 . S
C1956 C1957 1.348 . S
C1957 C1952 1.353 . S
C1957 C1956 1.348 . S
C1957 H2009 0.929 . S
H1958 C1952 0.930 . S
H1959 C1955 0.930 . S
C1960 N1961 1.314 . S
C1960 C1962 1.353 . S
C1960 H1966 0.930 . S
N1961 Li1937 1.990 . S
N1961 C1960 1.314 . S
N1961 C1964 1.279 . S
C1962 C1960 1.353 . S
C1962 C1965 1.348 . S
C1962 H2010 0.929 . S
C1963 C1964 1.358 . S
C1963 C1965 1.356 . S
C1963 H2011 0.930 . S
C1964 N1961 1.279 . S
C1964 C1963 1.358 . S
C1964 H1967 0.930 . S
C1965 C1962 1.348 . S
C1965 C1963 1.356 . S
H1966 C1960 0.930 . S
H1967 C1964 0.930 . S
C1968 C1970 1.348 . S
C1968 C1971 1.356 . S
C1968 O1998 1.325 . S
N1969 C1972 1.314 . S
N1969 C1973 1.279 . S
C1970 C1968 1.348 . S
C1970 C1972 1.353 . S
C1970 H2012 0.929 . S
C1971 C1968 1.356 . S
C1971 C1973 1.358 . S
C1971 H2013 0.930 . S
C1972 N1969 1.314 . S
C1972 C1970 1.353 . S
C1972 H2014 0.930 . S
C1973 N1969 1.279 . S
C1973 C1971 1.358 . S
C1973 H2015 0.930 . S
C1974 C1975 1.348 . S
C1974 C1976 1.356 . S
C1974 O1999 1.325 . S
C1975 C1974 1.348 . S
C1975 C1977 1.353 . S
C1975 H2016 0.929 . S
C1976 C1974 1.356 . S
C1976 C1978 1.358 . S
C1976 H2017 0.930 . S
C1977 C1975 1.353 . S
C1977 N1979 1.314 . S
C1977 H2018 0.930 . S
C1978 C1976 1.358 . S
C1978 N1979 1.279 . S
C1978 H2019 0.930 . S
N1979 C1977 1.314 . S
N1979 C1978 1.279 . S
C1980 C1982 1.353 . S
C1980 N1983 1.314 . S
C1980 H1986 0.930 . S
C1981 N1983 1.279 . S
C1981 C1984 1.358 . S
C1981 H1987 0.930 . S
C1982 C1980 1.353 . S
C1982 C1985 1.348 . S
C1982 H2020 0.929 . S
N1983 Li1938 1.990 . S
N1983 C1980 1.314 . S
N1983 C1981 1.279 . S
C1984 C1981 1.358 . S
C1984 C1985 1.356 . S
C1984 H2021 0.930 . S
C1985 C1982 1.348 . S
C1985 C1984 1.356 . S
H1986 C1980 0.930 . S
H1987 C1981 0.930 . S
C1988 N1989 1.314 . S
C1988 C1990 1.353 . S
C1988 H1994 0.930 . S
N1989 Li1939 1.990 . S
N1989 C1988 1.314 . S
N1989 C1992 1.279 . S
C1990 C1988 1.353 . S
C1990 C1993 1.348 . S
C1990 H2022 0.929 . S
C1991 C1992 1.358 . S
C1991 C1993 1.356 . S
C1991 H2023 0.930 . S
C1992 N1989 1.279 . S
C1992 C1991 1.358 . S
C1992 H1995 0.930 . S
C1993 C1990 1.348 . S
C1993 C1991 1.356 . S
H1994 C1988 0.930 . S
H1995 C1992 0.930 . S
O1996 Li1936 1.956 . S
O1996 Li1937 1.970 . S
O1996 Li1938 1.961 . S
O1996 C1940 1.325 . S
O1997 Li1936 1.970 . S
O1997 Li1937 1.956 . S
O1997 Li1939 1.961 . S
O1997 C1946 1.325 . S
O1998 Li1936 1.961 . S
O1998 Li1938 1.956 . S
O1998 Li1939 1.970 . S
O1998 C1968 1.325 . S
O1999 Li1937 1.961 . S
O1999 Li1938 1.970 . S
O1999 Li1939 1.956 . S
O1999 C1974 1.325 . S
H2000 C1942 0.929 . S
H2001 C1943 0.930 . S
H2002 C1944 0.930 . S
H2003 C1945 0.930 . S
H2004 C1947 0.930 . S
H2005 C1949 0.929 . S
H2006 C1950 0.930 . S
H2007 C1951 0.930 . S
H2008 C1954 0.930 . S
H2009 C1957 0.929 . S
H2010 C1962 0.929 . S
H2011 C1963 0.930 . S
H2012 C1970 0.929 . S
H2013 C1971 0.930 . S
H2014 C1972 0.930 . S
H2015 C1973 0.930 . S
H2016 C1975 0.929 . S
H2017 C1976 0.930 . S
H2018 C1977 0.930 . S
H2019 C1978 0.930 . S
H2020 C1982 0.929 . S
H2021 C1984 0.930 . S
H2022 C1990 0.929 . S
H2023 C1991 0.930 . S
Li2024 N2041 1.990 . S
Li2024 O2084 1.956 . S
Li2024 O2085 1.970 . S
Li2024 O2086 1.961 . S
Li2025 N2049 1.990 . S
Li2025 O2084 1.970 . S
Li2025 O2085 1.956 . S
Li2025 O2087 1.961 . S
Li2026 N2071 1.990 . S
Li2026 O2084 1.961 . S
Li2026 O2086 1.956 . S
Li2026 O2087 1.970 . S
Li2027 N2077 1.990 . S
Li2027 O2085 1.961 . S
Li2027 O2086 1.970 . S
Li2027 O2087 1.956 . S
C2028 C2030 1.348 . S
C2028 C2031 1.356 . S
C2028 O2084 1.325 . S
N2029 C2032 1.314 . S
N2029 C2033 1.279 . S
C2030 C2028 1.348 . S
C2030 C2032 1.353 . S
C2030 H2088 0.929 . S
C2031 C2028 1.356 . S
C2031 C2033 1.358 . S
C2031 H2089 0.930 . S
C2032 N2029 1.314 . S
C2032 C2030 1.353 . S
C2032 H2090 0.930 . S
C2033 N2029 1.279 . S
C2033 C2031 1.358 . S
C2033 H2091 0.930 . S
C2034 C2037 1.348 . S
C2034 C2038 1.356 . S
C2034 O2085 1.325 . S
C2035 N2036 1.279 . S
C2035 C2038 1.358 . S
C2035 H2092 0.930 . S
N2036 C2035 1.279 . S
N2036 C2039 1.314 . S
C2037 C2034 1.348 . S
C2037 C2039 1.353 . S
C2037 H2093 0.929 . S
C2038 C2034 1.356 . S
C2038 C2035 1.358 . S
C2038 H2094 0.930 . S
C2039 N2036 1.314 . S
C2039 C2037 1.353 . S
C2039 H2095 0.930 . S
C2040 N2041 1.314 . S
C2040 C2045 1.353 . S
C2040 H2046 0.930 . S
N2041 Li2024 1.990 . S
N2041 C2040 1.314 . S
N2041 C2043 1.279 . S
C2042 C2043 1.358 . S
C2042 C2044 1.356 . S
C2042 H2096 0.930 . S
C2043 N2041 1.279 . S
C2043 C2042 1.358 . S
C2043 H2047 0.930 . S
C2044 C2042 1.356 . S
C2044 C2045 1.348 . S
C2045 C2040 1.353 . S
C2045 C2044 1.348 . S
C2045 H2097 0.929 . S
H2046 C2040 0.930 . S
H2047 C2043 0.930 . S
C2048 N2049 1.314 . S
C2048 C2050 1.353 . S
C2048 H2054 0.930 . S
N2049 Li2025 1.990 . S
N2049 C2048 1.314 . S
N2049 C2052 1.279 . S
C2050 C2048 1.353 . S
C2050 C2053 1.348 . S
C2050 H2098 0.929 . S
C2051 C2052 1.358 . S
C2051 C2053 1.356 . S
C2051 H2099 0.930 . S
C2052 N2049 1.279 . S
C2052 C2051 1.358 . S
C2052 H2055 0.930 . S
C2053 C2050 1.348 . S
C2053 C2051 1.356 . S
H2054 C2048 0.930 . S
H2055 C2052 0.930 . S
C2056 C2058 1.348 . S
C2056 C2059 1.356 . S
C2056 O2086 1.325 . S
N2057 C2060 1.314 . S
N2057 C2061 1.279 . S
C2058 C2056 1.348 . S
C2058 C2060 1.353 . S
C2058 H2100 0.929 . S
C2059 C2056 1.356 . S
C2059 C2061 1.358 . S
C2059 H2101 0.930 . S
C2060 N2057 1.314 . S
C2060 C2058 1.353 . S
C2060 H2102 0.930 . S
C2061 N2057 1.279 . S
C2061 C2059 1.358 . S
C2061 H2103 0.930 . S
C2062 C2063 1.348 . S
C2062 C2064 1.356 . S
C2062 O2087 1.325 . S
C2063 C2062 1.348 . S
C2063 C2065 1.353 . S
C2063 H2104 0.929 . S
C2064 C2062 1.356 . S
C2064 C2066 1.358 . S
C2064 H2105 0.930 . S
C2065 C2063 1.353 . S
C2065 N2067 1.314 . S
C2065 H2106 0.930 . S
C2066 C2064 1.358 . S
C2066 N2067 1.279 . S
C2066 H2107 0.930 . S
N2067 C2065 1.314 . S
N2067 C2066 1.279 . S
C2068 C2070 1.353 . S
C2068 N2071 1.314 . S
C2068 H2074 0.930 . S
C2069 N2071 1.279 . S
C2069 C2072 1.358 . S
C2069 H2075 0.930 . S
C2070 C2068 1.353 . S
C2070 C2073 1.348 . S
C2070 H2108 0.929 . S
N2071 Li2026 1.990 . S
N2071 C2068 1.314 . S
N2071 C2069 1.279 . S
C2072 C2069 1.358 . S
C2072 C2073 1.356 . S
C2072 H2109 0.930 . S
C2073 C2070 1.348 . S
C2073 C2072 1.356 . S
H2074 C2068 0.930 . S
H2075 C2069 0.930 . S
C2076 N2077 1.314 . S
C2076 C2078 1.353 . S
C2076 H2082 0.930 . S
N2077 Li2027 1.990 . S
N2077 C2076 1.314 . S
N2077 C2080 1.279 . S
C2078 C2076 1.353 . S
C2078 C2081 1.348 . S
C2078 H2110 0.929 . S
C2079 C2080 1.358 . S
C2079 C2081 1.356 . S
C2079 H2111 0.930 . S
C2080 N2077 1.279 . S
C2080 C2079 1.358 . S
C2080 H2083 0.930 . S
C2081 C2078 1.348 . S
C2081 C2079 1.356 . S
H2082 C2076 0.930 . S
H2083 C2080 0.930 . S
O2084 Li2024 1.956 . S
O2084 Li2025 1.970 . S
O2084 Li2026 1.961 . S
O2084 C2028 1.325 . S
O2085 Li2024 1.970 . S
O2085 Li2025 1.956 . S
O2085 Li2027 1.961 . S
O2085 C2034 1.325 . S
O2086 Li2024 1.961 . S
O2086 Li2026 1.956 . S
O2086 Li2027 1.970 . S
O2086 C2056 1.325 . S
O2087 Li2025 1.961 . S
O2087 Li2026 1.970 . S
O2087 Li2027 1.956 . S
O2087 C2062 1.325 . S
H2088 C2030 0.929 . S
H2089 C2031 0.930 . S
H2090 C2032 0.930 . S
H2091 C2033 0.930 . S
H2092 C2035 0.930 . S
H2093 C2037 0.929 . S
H2094 C2038 0.930 . S
H2095 C2039 0.930 . S
H2096 C2042 0.930 . S
H2097 C2045 0.929 . S
H2098 C2050 0.929 . S
H2099 C2051 0.930 . S
H2100 C2058 0.929 . S
H2101 C2059 0.930 . S
H2102 C2060 0.930 . S
H2103 C2061 0.930 . S
H2104 C2063 0.929 . S
H2105 C2064 0.930 . S
H2106 C2065 0.930 . S
H2107 C2066 0.930 . S
H2108 C2070 0.929 . S
H2109 C2072 0.930 . S
H2110 C2078 0.929 . S
H2111 C2079 0.930 . S
O2112 Mn2113 2.163 . S
O2112 C2126 1.244 . S
Mn2113 O2112 2.163 . S
Mn2113 O2116 2.160 1_445 S
Mn2113 O2117 2.221 1_455 S
Mn2113 O2119 2.163 1_454 S
Mn2113 O2121 2.160 1_545 S
Mn2113 O2131 2.221 1_545 S
O2114 Mn2115 2.061 1_556 S
O2114 C2126 1.257 1_566 S
Mn2115 O2114 2.061 1_554 S
Mn2115 O2122 2.089 . S
Mn2115 O2131 2.290 . S
Mn2115 O2132 2.251 1_554 S
O2116 Mn2113 2.160 1_665 S
O2116 C2127 1.239 . S
O2117 Mn2113 2.221 1_655 S
O2117 Mn2118 2.276 1_554 S
O2117 C2128 1.278 . S
Mn2118 O2117 2.276 1_556 S
Mn2118 O2120 2.085 1_556 S
Mn2118 O2123 2.247 1_556 S
Mn2118 O2124 2.113 . S
O2119 Mn2113 2.163 1_656 S
O2119 C2129 1.244 . S
O2120 Mn2118 2.085 1_554 S
O2120 C2127 1.256 1_545 S
O2121 Mn2113 2.160 1_565 S
O2121 C2130 1.239 . S
O2122 Mn2115 2.089 . S
O2122 C2130 1.256 . S
O2123 Mn2118 2.247 1_554 S
O2123 C2128 1.241 . S
O2124 Mn2118 2.113 . S
O2124 C2129 1.256 . S
C2125 O2131 1.278 1_556 S
C2125 O2132 1.241 . S
C2126 O2112 1.244 . S
C2126 O2114 1.257 1_544 S
C2127 O2116 1.239 . S
C2127 O2120 1.256 1_565 S
C2128 O2117 1.278 . S
C2128 O2123 1.241 . S
C2129 O2119 1.244 . S
C2129 O2124 1.256 . S
C2130 O2121 1.239 . S
C2130 O2122 1.256 . S
O2131 Mn2113 2.221 1_565 S
O2131 Mn2115 2.290 . S
O2131 C2125 1.278 1_554 S
O2132 Mn2115 2.251 1_556 S
O2132 C2125 1.241 . S
O2133 Mn2134 2.163 . S
O2133 C2147 1.244 . S
Mn2134 O2133 2.163 . S
Mn2134 O2137 2.160 . S
Mn2134 O2138 2.221 . S
Mn2134 O2140 2.163 . S
Mn2134 O2142 2.160 . S
Mn2134 O2152 2.221 . S
O2135 Mn2136 2.087 . S
O2135 C2147 1.256 . S
Mn2136 O2135 2.087 . S
Mn2136 O2143 2.089 . S
Mn2136 O2152 2.290 . S
Mn2136 O2153 2.251 . S
O2137 Mn2134 2.160 . S
O2137 C2148 1.239 . S
O2138 Mn2134 2.221 . S
O2138 Mn2139 2.290 . S
O2138 C2149 1.278 . S
Mn2139 O2138 2.290 . S
Mn2139 O2141 2.089 . S
Mn2139 O2144 2.251 . S
Mn2139 O2145 2.087 . S
O2140 Mn2134 2.163 . S
O2140 C2150 1.244 . S
O2141 Mn2139 2.089 . S
O2141 C2148 1.256 . S
O2142 Mn2134 2.160 . S
O2142 C2151 1.239 . S
O2143 Mn2136 2.089 . S
O2143 C2151 1.256 . S
O2144 Mn2139 2.251 . S
O2144 C2149 1.241 . S
O2145 Mn2139 2.087 . S
O2145 C2150 1.256 . S
C2146 O2152 1.278 . S
C2146 O2153 1.241 . S
C2147 O2133 1.244 . S
C2147 O2135 1.256 . S
C2148 O2137 1.239 . S
C2148 O2141 1.256 . S
C2149 O2138 1.278 . S
C2149 O2144 1.241 . S
C2150 O2140 1.244 . S
C2150 O2145 1.256 . S
C2151 O2142 1.239 . S
C2151 O2143 1.256 . S
O2152 Mn2134 2.221 . S
O2152 Mn2136 2.290 . S
O2152 C2146 1.278 . S
O2153 Mn2136 2.251 . S
O2153 C2146 1.241 . S
O2154 Mn2155 2.163 1_565 S
O2154 C2168 1.244 . S
Mn2155 O2154 2.163 1_545 S
Mn2155 O2158 2.160 . S
Mn2155 O2159 2.221 1_545 S
Mn2155 O2161 2.163 . S
Mn2155 O2163 2.160 . S
Mn2155 O2173 2.221 . S
O2156 Mn2157 2.087 . S
O2156 C2168 1.256 1_545 S
Mn2157 O2156 2.087 . S
Mn2157 O2164 2.089 . S
Mn2157 O2173 2.290 . S
Mn2157 O2174 2.251 . S
O2158 Mn2155 2.160 . S
O2158 C2169 1.239 . S
O2159 Mn2155 2.221 1_565 S
O2159 Mn2160 2.290 . S
O2159 C2170 1.278 . S
Mn2160 O2159 2.290 . S
Mn2160 O2162 2.089 1_565 S
Mn2160 O2165 2.251 . S
Mn2160 O2166 2.087 . S
O2161 Mn2155 2.163 . S
O2161 C2171 1.244 1_545 S
O2162 Mn2160 2.089 1_545 S
O2162 C2169 1.256 . S
O2163 Mn2155 2.160 . S
O2163 C2172 1.239 . S
O2164 Mn2157 2.089 . S
O2164 C2172 1.256 . S
O2165 Mn2160 2.251 . S
O2165 C2170 1.241 . S
O2166 Mn2160 2.087 . S
O2166 C2171 1.256 . S
C2167 O2173 1.278 . S
C2167 O2174 1.241 . S
C2168 O2154 1.244 . S
C2168 O2156 1.256 1_565 S
C2169 O2158 1.239 . S
C2169 O2162 1.256 . S
C2170 O2159 1.278 . S
C2170 O2165 1.241 . S
C2171 O2161 1.244 1_565 S
C2171 O2166 1.256 . S
C2172 O2163 1.239 . S
C2172 O2164 1.256 . S
O2173 Mn2155 2.221 . S
O2173 Mn2157 2.290 . S
O2173 C2167 1.278 . S
O2174 Mn2157 2.251 . S
O2174 C2167 1.241 . S
O2175 Mn2176 2.163 . S
O2175 C2189 1.244 . S
Mn2176 O2175 2.163 . S
Mn2176 O2179 2.160 . S
Mn2176 O2180 2.221 . S
Mn2176 O2182 2.163 . S
Mn2176 O2184 2.160 . S
Mn2176 O2194 2.221 . S
O2177 Mn2178 2.087 . S
O2177 C2189 1.256 . S
Mn2178 O2177 2.087 . S
Mn2178 O2185 2.089 . S
Mn2178 O2194 2.290 . S
Mn2178 O2195 2.251 . S
O2179 Mn2176 2.160 . S
O2179 C2190 1.239 . S
O2180 Mn2176 2.221 . S
O2180 Mn2181 2.290 . S
O2180 C2191 1.278 . S
Mn2181 O2180 2.290 . S
Mn2181 O2183 2.089 . S
Mn2181 O2186 2.251 . S
Mn2181 O2187 2.087 . S
O2182 Mn2176 2.163 . S
O2182 C2192 1.244 . S
O2183 Mn2181 2.089 . S
O2183 C2190 1.256 . S
O2184 Mn2176 2.160 . S
O2184 C2193 1.239 . S
O2185 Mn2178 2.089 . S
O2185 C2193 1.256 . S
O2186 Mn2181 2.251 . S
O2186 C2191 1.241 . S
O2187 Mn2181 2.087 . S
O2187 C2192 1.256 . S
C2188 O2194 1.278 . S
C2188 O2195 1.241 . S
C2189 O2175 1.244 . S
C2189 O2177 1.256 . S
C2190 O2179 1.239 . S
C2190 O2183 1.256 . S
C2191 O2180 1.278 . S
C2191 O2186 1.241 . S
C2192 O2182 1.244 . S
C2192 O2187 1.256 . S
C2193 O2184 1.239 . S
C2193 O2185 1.256 . S
O2194 Mn2176 2.221 . S
O2194 Mn2178 2.290 . S
O2194 C2188 1.278 . S
O2195 Mn2178 2.251 . S
O2195 C2188 1.241 . S
O2196 Mn2197 2.163 1_565 S
O2196 C2210 1.244 . S
Mn2197 O2196 2.163 1_545 S
Mn2197 O2200 2.160 . S
Mn2197 O2201 2.221 . S
Mn2197 O2203 2.163 1_455 S
Mn2197 O2205 2.160 1_545 S
Mn2197 O2215 2.221 1_545 S
O2198 Mn2199 2.089 . S
O2198 C2210 1.256 . S
Mn2199 O2198 2.089 . S
Mn2199 O2206 2.089 . S
Mn2199 O2215 2.290 . S
Mn2199 O2216 2.251 1_455 S
O2200 Mn2197 2.160 . S
O2200 C2211 1.239 . S
O2201 Mn2197 2.221 . S
O2201 Mn2202 2.314 . S
O2201 C2212 1.278 . S
Mn2202 O2201 2.314 . S
Mn2202 O2204 2.095 . S
Mn2202 O2207 2.260 . S
Mn2202 O2208 2.047 1_455 S
O2203 Mn2197 2.163 1_655 S
O2203 C2213 1.244 . S
O2204 Mn2202 2.095 . S
O2204 C2211 1.256 . S
O2205 Mn2197 2.160 1_565 S
O2205 C2214 1.239 . S
O2206 Mn2199 2.089 . S
O2206 C2214 1.256 . S
O2207 Mn2202 2.260 . S
O2207 C2212 1.241 . S
O2208 Mn2202 2.047 1_655 S
O2208 C2213 1.256 . S
C2209 O2215 1.278 1_655 S
C2209 O2216 1.241 . S
C2210 O2196 1.244 . S
C2210 O2198 1.256 . S
C2211 O2200 1.239 . S
C2211 O2204 1.256 . S
C2212 O2201 1.278 . S
C2212 O2207 1.241 . S
C2213 O2203 1.244 . S
C2213 O2208 1.256 . S
C2214 O2205 1.239 . S
C2214 O2206 1.256 . S
O2215 Mn2197 2.221 1_565 S
O2215 Mn2199 2.290 . S
O2215 C2209 1.278 1_455 S
O2216 Mn2199 2.251 1_655 S
O2216 C2209 1.241 . S
O2217 Mn2218 2.163 . S
O2217 C2231 1.244 . S
Mn2218 O2217 2.163 . S
Mn2218 O2221 2.160 . S
Mn2218 O2222 2.221 . S
Mn2218 O2224 2.163 . S
Mn2218 O2226 2.160 . S
Mn2218 O2236 2.221 . S
O2219 Mn2220 2.087 . S
O2219 C2231 1.256 . S
Mn2220 O2219 2.087 . S
Mn2220 O2227 2.089 . S
Mn2220 O2236 2.290 . S
Mn2220 O2237 2.251 . S
O2221 Mn2218 2.160 . S
O2221 C2232 1.239 . S
O2222 Mn2218 2.221 . S
O2222 Mn2223 2.290 . S
O2222 C2233 1.278 . S
Mn2223 O2222 2.290 . S
Mn2223 O2225 2.089 . S
Mn2223 O2228 2.251 . S
Mn2223 O2229 2.087 . S
O2224 Mn2218 2.163 . S
O2224 C2234 1.244 . S
O2225 Mn2223 2.089 . S
O2225 C2232 1.256 . S
O2226 Mn2218 2.160 . S
O2226 C2235 1.239 . S
O2227 Mn2220 2.089 . S
O2227 C2235 1.256 . S
O2228 Mn2223 2.251 . S
O2228 C2233 1.241 . S
O2229 Mn2223 2.087 . S
O2229 C2234 1.256 . S
C2230 O2236 1.278 . S
C2230 O2237 1.241 . S
C2231 O2217 1.244 . S
C2231 O2219 1.256 . S
C2232 O2221 1.239 . S
C2232 O2225 1.256 . S
C2233 O2222 1.278 . S
C2233 O2228 1.241 . S
C2234 O2224 1.244 . S
C2234 O2229 1.256 . S
C2235 O2226 1.239 . S
C2235 O2227 1.256 . S
O2236 Mn2218 2.221 . S
O2236 Mn2220 2.290 . S
O2236 C2230 1.278 . S
O2237 Mn2220 2.251 . S
O2237 C2230 1.241 . S
O2238 Mn2239 2.163 1_556 S
O2238 C2252 1.239 1_545 S
Mn2239 O2238 2.163 1_554 S
Mn2239 O2242 2.160 . S
Mn2239 O2243 2.221 . S
Mn2239 O2245 2.163 1_545 S
Mn2239 O2247 2.160 1_554 S
Mn2239 O2257 2.225 1_554 S
O2240 Mn2241 2.087 1_565 S
O2240 C2252 1.259 . S
Mn2241 O2240 2.087 1_545 S
Mn2241 O2248 2.089 . S
Mn2241 O2257 2.297 . S
Mn2241 O2258 2.251 1_545 S
O2242 Mn2239 2.160 . S
O2242 C2253 1.239 . S
O2243 Mn2239 2.221 . S
O2243 Mn2244 2.290 1_545 S
O2243 C2254 1.278 . S
Mn2244 O2243 2.290 1_565 S
Mn2244 O2246 2.089 1_565 S
Mn2244 O2249 2.251 1_565 S
Mn2244 O2250 2.087 . S
O2245 Mn2239 2.163 1_565 S
O2245 C2255 1.244 . S
O2246 Mn2244 2.089 1_545 S
O2246 C2253 1.256 . S
O2247 Mn2239 2.160 1_556 S
O2247 C2256 1.239 . S
O2248 Mn2241 2.089 . S
O2248 C2256 1.256 . S
O2249 Mn2244 2.251 1_545 S
O2249 C2254 1.241 . S
O2250 Mn2244 2.087 . S
O2250 C2255 1.256 . S
C2251 O2257 1.262 1_565 S
C2251 O2258 1.241 . S
C2252 O2238 1.239 1_565 S
C2252 O2240 1.259 . S
C2253 O2242 1.239 . S
C2253 O2246 1.256 . S
C2254 O2243 1.278 . S
C2254 O2249 1.241 . S
C2255 O2245 1.244 . S
C2255 O2250 1.256 . S
C2256 O2247 1.239 . S
C2256 O2248 1.256 . S
O2257 Mn2239 2.225 1_556 S
O2257 Mn2241 2.297 . S
O2257 C2251 1.262 1_545 S
O2258 Mn2241 2.251 1_565 S
O2258 C2251 1.241 . S
O2259 Mn2260 2.163 . S
O2259 C2273 1.244 . S
Mn2260 O2259 2.163 . S
Mn2260 O2263 2.160 . S
Mn2260 O2264 2.221 . S
Mn2260 O2266 2.163 . S
Mn2260 O2268 2.160 . S
Mn2260 O2278 2.221 . S
O2261 Mn2262 2.087 . S
O2261 C2273 1.256 . S
Mn2262 O2261 2.087 . S
Mn2262 O2269 2.089 . S
Mn2262 O2278 2.290 . S
Mn2262 O2279 2.251 . S
O2263 Mn2260 2.160 . S
O2263 C2274 1.239 . S
O2264 Mn2260 2.221 . S
O2264 Mn2265 2.290 . S
O2264 C2275 1.278 . S
Mn2265 O2264 2.290 . S
Mn2265 O2267 2.089 . S
Mn2265 O2270 2.251 . S
Mn2265 O2271 2.087 . S
O2266 Mn2260 2.163 . S
O2266 C2276 1.244 . S
O2267 Mn2265 2.089 . S
O2267 C2274 1.256 . S
O2268 Mn2260 2.160 . S
O2268 C2277 1.239 . S
O2269 Mn2262 2.089 . S
O2269 C2277 1.256 . S
O2270 Mn2265 2.251 . S
O2270 C2275 1.241 . S
O2271 Mn2265 2.087 . S
O2271 C2276 1.256 . S
C2272 O2278 1.278 . S
C2272 O2279 1.241 . S
C2273 O2259 1.244 . S
C2273 O2261 1.256 . S
C2274 O2263 1.239 . S
C2274 O2267 1.256 . S
C2275 O2264 1.278 . S
C2275 O2270 1.241 . S
C2276 O2266 1.244 . S
C2276 O2271 1.256 . S
C2277 O2268 1.239 . S
C2277 O2269 1.256 . S
O2278 Mn2260 2.221 . S
O2278 Mn2262 2.290 . S
O2278 C2272 1.278 . S
O2279 Mn2262 2.251 . S
O2279 C2272 1.241 . S
O2280 Mn2281 2.163 1_556 S
O2280 C2294 1.244 . S
Mn2281 O2280 2.163 1_554 S
Mn2281 O2284 2.160 . S
Mn2281 O2285 2.221 1_554 S
Mn2281 O2287 2.163 . S
Mn2281 O2289 2.160 . S
Mn2281 O2299 2.221 . S
O2282 Mn2283 2.087 . S
O2282 C2294 1.256 1_554 S
Mn2283 O2282 2.087 . S
Mn2283 O2290 2.089 . S
Mn2283 O2299 2.290 . S
Mn2283 O2300 2.251 . S
O2284 Mn2281 2.160 . S
O2284 C2295 1.239 . S
O2285 Mn2281 2.221 1_556 S
O2285 Mn2286 2.290 . S
O2285 C2296 1.278 . S
Mn2286 O2285 2.290 . S
Mn2286 O2288 2.089 1_556 S
Mn2286 O2291 2.251 . S
Mn2286 O2292 2.087 . S
O2287 Mn2281 2.163 . S
O2287 C2297 1.244 1_554 S
O2288 Mn2286 2.089 1_554 S
O2288 C2295 1.256 . S
O2289 Mn2281 2.160 . S
O2289 C2298 1.239 . S
O2290 Mn2283 2.089 . S
O2290 C2298 1.256 . S
O2291 Mn2286 2.251 . S
O2291 C2296 1.241 . S
O2292 Mn2286 2.087 . S
O2292 C2297 1.256 . S
C2293 O2299 1.278 . S
C2293 O2300 1.241 . S
C2294 O2280 1.244 . S
C2294 O2282 1.256 1_556 S
C2295 O2284 1.239 . S
C2295 O2288 1.256 . S
C2296 O2285 1.278 . S
C2296 O2291 1.241 . S
C2297 O2287 1.244 1_556 S
C2297 O2292 1.256 . S
C2298 O2289 1.239 . S
C2298 O2290 1.256 . S
O2299 Mn2281 2.221 . S
O2299 Mn2283 2.290 . S
O2299 C2293 1.278 . S
O2300 Mn2283 2.251 . S
O2300 C2293 1.241 . S
O2301 Mn2302 2.163 . S
O2301 C2315 1.244 . S
Mn2302 O2301 2.163 . S
Mn2302 O2305 2.160 . S
Mn2302 O2306 2.221 . S
Mn2302 O2308 2.163 . S
Mn2302 O2310 2.160 . S
Mn2302 O2320 2.221 . S
O2303 Mn2304 2.087 . S
O2303 C2315 1.256 . S
Mn2304 O2303 2.087 . S
Mn2304 O2311 2.089 . S
Mn2304 O2320 2.290 . S
Mn2304 O2321 2.251 . S
O2305 Mn2302 2.160 . S
O2305 C2316 1.239 . S
O2306 Mn2302 2.221 . S
O2306 Mn2307 2.290 . S
O2306 C2317 1.278 . S
Mn2307 O2306 2.290 . S
Mn2307 O2309 2.089 . S
Mn2307 O2312 2.251 . S
Mn2307 O2313 2.087 . S
O2308 Mn2302 2.163 . S
O2308 C2318 1.244 . S
O2309 Mn2307 2.089 . S
O2309 C2316 1.256 . S
O2310 Mn2302 2.160 . S
O2310 C2319 1.239 . S
O2311 Mn2304 2.089 . S
O2311 C2319 1.256 . S
O2312 Mn2307 2.251 . S
O2312 C2317 1.241 . S
O2313 Mn2307 2.087 . S
O2313 C2318 1.256 . S
C2314 O2320 1.278 . S
C2314 O2321 1.241 . S
C2315 O2301 1.244 . S
C2315 O2303 1.256 . S
C2316 O2305 1.239 . S
C2316 O2309 1.256 . S
C2317 O2306 1.278 . S
C2317 O2312 1.241 . S
C2318 O2308 1.244 . S
C2318 O2313 1.256 . S
C2319 O2310 1.239 . S
C2319 O2311 1.256 . S
O2320 Mn2302 2.221 . S
O2320 Mn2304 2.290 . S
O2320 C2314 1.278 . S
O2321 Mn2304 2.251 . S
O2321 C2314 1.241 . S
O2322 Mn2323 2.163 1_655 S
O2322 C2336 1.244 . S
Mn2323 O2322 2.163 1_455 S
Mn2323 O2326 2.160 . S
Mn2323 O2327 2.221 1_455 S
Mn2323 O2329 2.163 . S
Mn2323 O2331 2.160 . S
Mn2323 O2341 2.221 . S
O2324 Mn2325 2.087 . S
O2324 C2336 1.256 1_455 S
Mn2325 O2324 2.087 . S
Mn2325 O2332 2.089 . S
Mn2325 O2341 2.290 . S
Mn2325 O2342 2.251 . S
O2326 Mn2323 2.160 . S
O2326 C2337 1.239 . S
O2327 Mn2323 2.221 1_655 S
O2327 Mn2328 2.290 . S
O2327 C2338 1.278 . S
Mn2328 O2327 2.290 . S
Mn2328 O2330 2.089 1_655 S
Mn2328 O2333 2.251 . S
Mn2328 O2334 2.087 . S
O2329 Mn2323 2.163 . S
O2329 C2339 1.244 1_455 S
O2330 Mn2328 2.089 1_455 S
O2330 C2337 1.256 . S
O2331 Mn2323 2.160 . S
O2331 C2340 1.239 . S
O2332 Mn2325 2.089 . S
O2332 C2340 1.256 . S
O2333 Mn2328 2.251 . S
O2333 C2338 1.241 . S
O2334 Mn2328 2.087 . S
O2334 C2339 1.256 . S
C2335 O2341 1.278 . S
C2335 O2342 1.241 . S
C2336 O2322 1.244 . S
C2336 O2324 1.256 1_655 S
C2337 O2326 1.239 . S
C2337 O2330 1.256 . S
C2338 O2327 1.278 . S
C2338 O2333 1.241 . S
C2339 O2329 1.244 1_655 S
C2339 O2334 1.256 . S
C2340 O2331 1.239 . S
C2340 O2332 1.256 . S
O2341 Mn2323 2.221 . S
O2341 Mn2325 2.290 . S
O2341 C2335 1.278 . S
O2342 Mn2325 2.251 . S
O2342 C2335 1.241 . S
O2343 Mn2344 2.163 . S
O2343 C2357 1.244 . S
Mn2344 O2343 2.163 . S
Mn2344 O2347 2.160 . S
Mn2344 O2348 2.221 . S
Mn2344 O2350 2.163 . S
Mn2344 O2352 2.160 . S
Mn2344 O2362 2.221 . S
O2345 Mn2346 2.087 . S
O2345 C2357 1.256 . S
Mn2346 O2345 2.087 . S
Mn2346 O2353 2.089 . S
Mn2346 O2362 2.290 . S
Mn2346 O2363 2.251 . S
O2347 Mn2344 2.160 . S
O2347 C2358 1.239 . S
O2348 Mn2344 2.221 . S
O2348 Mn2349 2.290 . S
O2348 C2359 1.278 . S
Mn2349 O2348 2.290 . S
Mn2349 O2351 2.089 . S
Mn2349 O2354 2.251 . S
Mn2349 O2355 2.087 . S
O2350 Mn2344 2.163 . S
O2350 C2360 1.244 . S
O2351 Mn2349 2.089 . S
O2351 C2358 1.256 . S
O2352 Mn2344 2.160 . S
O2352 C2361 1.239 . S
O2353 Mn2346 2.089 . S
O2353 C2361 1.256 . S
O2354 Mn2349 2.251 . S
O2354 C2359 1.241 . S
O2355 Mn2349 2.087 . S
O2355 C2360 1.256 . S
C2356 O2362 1.278 . S
C2356 O2363 1.241 . S
C2357 O2343 1.244 . S
C2357 O2345 1.256 . S
C2358 O2347 1.239 . S
C2358 O2351 1.256 . S
C2359 O2348 1.278 . S
C2359 O2354 1.241 . S
C2360 O2350 1.244 . S
C2360 O2355 1.256 . S
C2361 O2352 1.239 . S
C2361 O2353 1.256 . S
O2362 Mn2344 2.221 . S
O2362 Mn2346 2.290 . S
O2362 C2356 1.278 . S
O2363 Mn2346 2.251 . S
O2363 C2356 1.241 . S
O2364 Mn2365 2.163 . S
O2364 C2378 1.244 . S
Mn2365 O2364 2.163 . S
Mn2365 O2368 2.160 . S
Mn2365 O2369 2.221 . S
Mn2365 O2371 2.163 . S
Mn2365 O2373 2.160 . S
Mn2365 O2383 2.221 . S
O2366 Mn2367 2.087 . S
O2366 C2378 1.256 . S
Mn2367 O2366 2.087 . S
Mn2367 O2374 2.089 . S
Mn2367 O2383 2.290 . S
Mn2367 O2384 2.251 . S
O2368 Mn2365 2.160 . S
O2368 C2379 1.239 . S
O2369 Mn2365 2.221 . S
O2369 Mn2370 2.290 . S
O2369 C2380 1.278 . S
Mn2370 O2369 2.290 . S
Mn2370 O2372 2.089 . S
Mn2370 O2375 2.251 . S
Mn2370 O2376 2.087 . S
O2371 Mn2365 2.163 . S
O2371 C2381 1.244 . S
O2372 Mn2370 2.089 . S
O2372 C2379 1.256 . S
O2373 Mn2365 2.160 . S
O2373 C2382 1.239 . S
O2374 Mn2367 2.089 . S
O2374 C2382 1.256 . S
O2375 Mn2370 2.251 . S
O2375 C2380 1.241 . S
O2376 Mn2370 2.087 . S
O2376 C2381 1.256 . S
C2377 O2383 1.278 . S
C2377 O2384 1.241 . S
C2378 O2364 1.244 . S
C2378 O2366 1.256 . S
C2379 O2368 1.239 . S
C2379 O2372 1.256 . S
C2380 O2369 1.278 . S
C2380 O2375 1.241 . S
C2381 O2371 1.244 . S
C2381 O2376 1.256 . S
C2382 O2373 1.239 . S
C2382 O2374 1.256 . S
O2383 Mn2365 2.221 . S
O2383 Mn2367 2.290 . S
O2383 C2377 1.278 . S
O2384 Mn2367 2.251 . S
O2384 C2377 1.241 . S
O2385 Mn2386 2.163 . S
O2385 C2399 1.244 . S
Mn2386 O2385 2.163 . S
Mn2386 O2389 2.160 . S
Mn2386 O2390 2.221 . S
Mn2386 O2392 2.163 . S
Mn2386 O2394 2.160 . S
Mn2386 O2404 2.221 . S
O2387 Mn2388 2.087 . S
O2387 C2399 1.256 . S
Mn2388 O2387 2.087 . S
Mn2388 O2395 2.089 . S
Mn2388 O2404 2.290 . S
Mn2388 O2405 2.251 . S
O2389 Mn2386 2.160 . S
O2389 C2400 1.239 . S
O2390 Mn2386 2.221 . S
O2390 Mn2391 2.290 . S
O2390 C2401 1.278 . S
Mn2391 O2390 2.290 . S
Mn2391 O2393 2.089 . S
Mn2391 O2396 2.251 . S
Mn2391 O2397 2.087 . S
O2392 Mn2386 2.163 . S
O2392 C2402 1.244 . S
O2393 Mn2391 2.089 . S
O2393 C2400 1.256 . S
O2394 Mn2386 2.160 . S
O2394 C2403 1.239 . S
O2395 Mn2388 2.089 . S
O2395 C2403 1.256 . S
O2396 Mn2391 2.251 . S
O2396 C2401 1.241 . S
O2397 Mn2391 2.087 . S
O2397 C2402 1.256 . S
C2398 O2404 1.278 . S
C2398 O2405 1.241 . S
C2399 O2385 1.244 . S
C2399 O2387 1.256 . S
C2400 O2389 1.239 . S
C2400 O2393 1.256 . S
C2401 O2390 1.278 . S
C2401 O2396 1.241 . S
C2402 O2392 1.244 . S
C2402 O2397 1.256 . S
C2403 O2394 1.239 . S
C2403 O2395 1.256 . S
O2404 Mn2386 2.221 . S
O2404 Mn2388 2.290 . S
O2404 C2398 1.278 . S
O2405 Mn2388 2.251 . S
O2405 C2398 1.241 . S
O2406 Mn2407 2.163 . S
O2406 C2420 1.244 . S
Mn2407 O2406 2.163 . S
Mn2407 O2410 2.160 . S
Mn2407 O2411 2.221 . S
Mn2407 O2413 2.163 . S
Mn2407 O2415 2.160 . S
Mn2407 O2425 2.221 . S
O2408 Mn2409 2.087 . S
O2408 C2420 1.256 . S
Mn2409 O2408 2.087 . S
Mn2409 O2416 2.089 . S
Mn2409 O2425 2.290 . S
Mn2409 O2426 2.251 . S
O2410 Mn2407 2.160 . S
O2410 C2421 1.239 . S
O2411 Mn2407 2.221 . S
O2411 Mn2412 2.290 . S
O2411 C2422 1.278 . S
Mn2412 O2411 2.290 . S
Mn2412 O2414 2.089 . S
Mn2412 O2417 2.251 . S
Mn2412 O2418 2.087 . S
O2413 Mn2407 2.163 . S
O2413 C2423 1.244 . S
O2414 Mn2412 2.089 . S
O2414 C2421 1.256 . S
O2415 Mn2407 2.160 . S
O2415 C2424 1.239 . S
O2416 Mn2409 2.089 . S
O2416 C2424 1.256 . S
O2417 Mn2412 2.251 . S
O2417 C2422 1.241 . S
O2418 Mn2412 2.087 . S
O2418 C2423 1.256 . S
C2419 O2425 1.278 . S
C2419 O2426 1.241 . S
C2420 O2406 1.244 . S
C2420 O2408 1.256 . S
C2421 O2410 1.239 . S
C2421 O2414 1.256 . S
C2422 O2411 1.278 . S
C2422 O2417 1.241 . S
C2423 O2413 1.244 . S
C2423 O2418 1.256 . S
C2424 O2415 1.239 . S
C2424 O2416 1.256 . S
O2425 Mn2407 2.221 . S
O2425 Mn2409 2.290 . S
O2425 C2419 1.278 . S
O2426 Mn2409 2.251 . S
O2426 C2419 1.241 . S
O2427 Mn2428 2.170 1_655 S
O2427 C2441 1.240 1_554 S
Mn2428 O2427 2.170 1_455 S
Mn2428 O2431 2.160 . S
Mn2428 O2432 2.221 . S
Mn2428 O2434 2.163 1_554 S
Mn2428 O2436 2.160 1_455 S
Mn2428 O2446 2.219 1_454 S
O2429 Mn2430 2.087 1_556 S
O2429 C2441 1.256 . S
Mn2430 O2429 2.087 1_554 S
Mn2430 O2437 2.089 . S
Mn2430 O2446 2.286 1_554 S
Mn2430 O2447 2.251 1_554 S
O2431 Mn2428 2.160 . S
O2431 C2442 1.239 . S
O2432 Mn2428 2.221 . S
O2432 Mn2433 2.290 1_554 S
O2432 C2443 1.278 . S
Mn2433 O2432 2.290 1_556 S
Mn2433 O2435 2.089 1_556 S
Mn2433 O2438 2.251 1_556 S
Mn2433 O2439 2.087 . S
O2434 Mn2428 2.163 1_556 S
O2434 C2444 1.244 . S
O2435 Mn2433 2.089 1_554 S
O2435 C2442 1.256 . S
O2436 Mn2428 2.160 1_655 S
O2436 C2445 1.239 . S
O2437 Mn2430 2.089 . S
O2437 C2445 1.256 . S
O2438 Mn2433 2.251 1_554 S
O2438 C2443 1.241 . S
O2439 Mn2433 2.087 . S
O2439 C2444 1.256 . S
C2440 O2446 1.286 . S
C2440 O2447 1.241 . S
C2441 O2427 1.240 1_556 S
C2441 O2429 1.256 . S
C2442 O2431 1.239 . S
C2442 O2435 1.256 . S
C2443 O2432 1.278 . S
C2443 O2438 1.241 . S
C2444 O2434 1.244 . S
C2444 O2439 1.256 . S
C2445 O2436 1.239 . S
C2445 O2437 1.256 . S
O2446 Mn2428 2.219 1_656 S
O2446 Mn2430 2.286 1_556 S
O2446 C2440 1.286 . S
O2447 Mn2430 2.251 1_556 S
O2447 C2440 1.241 . S
C2448 C2449 1.391 . S
C2448 C2450 1.394 . S
C2448 H2464 0.931 . S
C2449 C2448 1.391 . S
C2449 C2453 1.376 1_455 S
C2450 C2448 1.394 . S
C2450 C2451 1.350 1_455 S
C2450 C2454 1.531 . S
C2451 C2450 1.350 1_655 S
C2451 C2452 1.428 . S
C2451 C2459 1.503 . S
C2452 C2451 1.428 . S
C2452 C2453 1.392 . S
C2452 C2455 1.511 . S
C2453 C2449 1.376 1_655 S
C2453 C2452 1.392 . S
C2453 H2465 0.929 . S
C2454 C2450 1.531 . S
C2454 H2466 0.960 . S
C2454 H2467 0.962 . S
C2454 H2468 0.960 . S
C2455 C2452 1.511 . S
C2455 H2469 0.961 . S
C2455 H2470 0.961 . S
C2455 H2471 0.961 . S
C2456 C2457 1.370 1_455 S
C2456 C2458 1.363 . S
C2456 H2472 0.931 . S
C2457 C2456 1.370 1_655 S
C2457 C2461 1.408 . S
C2458 C2456 1.363 . S
C2458 C2459 1.349 1_455 S
C2458 C2462 1.524 . S
C2459 C2451 1.503 . S
C2459 C2458 1.349 1_655 S
C2459 C2460 1.427 . S
C2460 C2459 1.427 . S
C2460 C2461 1.404 . S
C2460 C2463 1.539 . S
C2461 C2457 1.408 . S
C2461 C2460 1.404 . S
C2461 H2473 0.930 . S
C2462 C2458 1.524 . S
C2462 H2474 0.956 . S
C2462 H2475 0.961 . S
C2462 H2476 0.961 1_554 S
C2463 C2460 1.539 . S
C2463 H2477 0.958 . S
C2463 H2478 0.961 . S
C2463 H2479 0.960 . S
H2464 C2448 0.931 . S
H2465 C2453 0.929 . S
H2466 C2454 0.960 . S
H2467 C2454 0.962 . S
H2468 C2454 0.960 . S
H2469 C2455 0.961 . S
H2470 C2455 0.961 . S
H2471 C2455 0.961 . S
H2472 C2456 0.931 . S
H2473 C2461 0.930 . S
H2474 C2462 0.956 . S
H2475 C2462 0.961 . S
H2476 C2462 0.961 1_556 S
H2477 C2463 0.958 . S
H2478 C2463 0.961 . S
H2479 C2463 0.960 . S
C2480 C2481 1.391 . S
C2480 C2482 1.394 . S
C2480 H2496 0.931 . S
C2481 C2480 1.391 . S
C2481 C2485 1.376 . S
C2482 C2480 1.394 . S
C2482 C2483 1.369 . S
C2482 C2486 1.531 . S
C2483 C2482 1.369 . S
C2483 C2484 1.410 . S
C2483 C2491 1.503 . S
C2484 C2483 1.410 . S
C2484 C2485 1.392 . S
C2484 C2487 1.511 . S
C2485 C2481 1.376 . S
C2485 C2484 1.392 . S
C2485 H2497 0.929 . S
C2486 C2482 1.531 . S
C2486 H2498 0.960 . S
C2486 H2499 0.962 . S
C2486 H2500 0.960 . S
C2487 C2484 1.511 . S
C2487 H2501 0.961 . S
C2487 H2502 0.961 . S
C2487 H2503 0.961 . S
C2488 C2489 1.370 . S
C2488 C2490 1.363 . S
C2488 H2504 0.931 . S
C2489 C2488 1.370 . S
C2489 C2493 1.408 . S
C2490 C2488 1.363 . S
C2490 C2491 1.370 . S
C2490 C2494 1.524 . S
C2491 C2483 1.503 . S
C2491 C2490 1.370 . S
C2491 C2492 1.403 . S
C2492 C2491 1.403 . S
C2492 C2493 1.404 . S
C2492 C2495 1.539 . S
C2493 C2489 1.408 . S
C2493 C2492 1.404 . S
C2493 H2505 0.930 . S
C2494 C2490 1.524 . S
C2494 H2506 0.956 . S
C2494 H2507 0.961 . S
C2494 H2508 0.961 . S
C2495 C2492 1.539 . S
C2495 H2509 0.958 . S
C2495 H2510 0.961 . S
C2495 H2511 0.960 . S
H2496 C2480 0.931 . S
H2497 C2485 0.929 . S
H2498 C2486 0.960 . S
H2499 C2486 0.962 . S
H2500 C2486 0.960 . S
H2501 C2487 0.961 . S
H2502 C2487 0.961 . S
H2503 C2487 0.961 . S
H2504 C2488 0.931 . S
H2505 C2493 0.930 . S
H2506 C2494 0.956 . S
H2507 C2494 0.961 . S
H2508 C2494 0.961 . S
H2509 C2495 0.958 . S
H2510 C2495 0.961 . S
H2511 C2495 0.960 . S
C2512 C2513 1.391 . S
C2512 C2514 1.394 . S
C2512 H2528 0.931 . S
C2513 C2512 1.391 . S
C2513 C2517 1.376 . S
C2514 C2512 1.394 . S
C2514 C2515 1.369 . S
C2514 C2518 1.531 . S
C2515 C2514 1.369 . S
C2515 C2516 1.410 . S
C2515 C2523 1.503 . S
C2516 C2515 1.410 . S
C2516 C2517 1.392 . S
C2516 C2519 1.511 . S
C2517 C2513 1.376 . S
C2517 C2516 1.392 . S
C2517 H2529 0.929 . S
C2518 C2514 1.531 . S
C2518 H2530 0.960 . S
C2518 H2531 0.962 . S
C2518 H2532 0.960 . S
C2519 C2516 1.511 . S
C2519 H2533 0.961 . S
C2519 H2534 0.961 . S
C2519 H2535 0.961 . S
C2520 C2521 1.370 . S
C2520 C2522 1.363 . S
C2520 H2536 0.931 . S
C2521 C2520 1.370 . S
C2521 C2525 1.408 . S
C2522 C2520 1.363 . S
C2522 C2523 1.370 . S
C2522 C2526 1.524 . S
C2523 C2515 1.503 . S
C2523 C2522 1.370 . S
C2523 C2524 1.403 . S
C2524 C2523 1.403 . S
C2524 C2525 1.404 . S
C2524 C2527 1.539 . S
C2525 C2521 1.408 . S
C2525 C2524 1.404 . S
C2525 H2537 0.930 . S
C2526 C2522 1.524 . S
C2526 H2538 0.956 . S
C2526 H2539 0.961 . S
C2526 H2540 0.961 . S
C2527 C2524 1.539 . S
C2527 H2541 0.958 . S
C2527 H2542 0.961 . S
C2527 H2543 0.960 . S
H2528 C2512 0.931 . S
H2529 C2517 0.929 . S
H2530 C2518 0.960 . S
H2531 C2518 0.962 . S
H2532 C2518 0.960 . S
H2533 C2519 0.961 . S
H2534 C2519 0.961 . S
H2535 C2519 0.961 . S
H2536 C2520 0.931 . S
H2537 C2525 0.930 . S
H2538 C2526 0.956 . S
H2539 C2526 0.961 . S
H2540 C2526 0.961 . S
H2541 C2527 0.958 . S
H2542 C2527 0.961 . S
H2543 C2527 0.960 . S
C2544 C2545 1.391 . S
C2544 C2546 1.394 . S
C2544 H2560 0.931 . S
C2545 C2544 1.391 . S
C2545 C2549 1.376 . S
C2546 C2544 1.394 . S
C2546 C2547 1.369 . S
C2546 C2550 1.531 . S
C2547 C2546 1.369 . S
C2547 C2548 1.410 . S
C2547 C2555 1.503 . S
C2548 C2547 1.410 . S
C2548 C2549 1.392 . S
C2548 C2551 1.511 . S
C2549 C2545 1.376 . S
C2549 C2548 1.392 . S
C2549 H2561 0.929 . S
C2550 C2546 1.531 . S
C2550 H2562 0.960 . S
C2550 H2563 0.962 . S
C2550 H2564 0.960 . S
C2551 C2548 1.511 . S
C2551 H2565 0.961 . S
C2551 H2566 0.961 . S
C2551 H2567 0.961 . S
C2552 C2553 1.370 . S
C2552 C2554 1.363 . S
C2552 H2568 0.931 . S
C2553 C2552 1.370 . S
C2553 C2557 1.408 . S
C2554 C2552 1.363 . S
C2554 C2555 1.370 . S
C2554 C2558 1.524 . S
C2555 C2547 1.503 . S
C2555 C2554 1.370 . S
C2555 C2556 1.403 . S
C2556 C2555 1.403 . S
C2556 C2557 1.404 . S
C2556 C2559 1.539 . S
C2557 C2553 1.408 . S
C2557 C2556 1.404 . S
C2557 H2569 0.930 . S
C2558 C2554 1.524 . S
C2558 H2570 0.956 . S
C2558 H2571 0.961 . S
C2558 H2572 0.961 . S
C2559 C2556 1.539 . S
C2559 H2573 0.958 . S
C2559 H2574 0.961 . S
C2559 H2575 0.960 . S
H2560 C2544 0.931 . S
H2561 C2549 0.929 . S
H2562 C2550 0.960 . S
H2563 C2550 0.962 . S
H2564 C2550 0.960 . S
H2565 C2551 0.961 . S
H2566 C2551 0.961 . S
H2567 C2551 0.961 . S
H2568 C2552 0.931 . S
H2569 C2557 0.930 . S
H2570 C2558 0.956 . S
H2571 C2558 0.961 . S
H2572 C2558 0.961 . S
H2573 C2559 0.958 . S
H2574 C2559 0.961 . S
H2575 C2559 0.960 . S
C2576 C2577 1.391 1_655 S
C2576 C2578 1.394 . S
C2576 H2592 0.931 . S
C2577 C2576 1.391 1_455 S
C2577 C2581 1.376 . S
C2578 C2576 1.394 . S
C2578 C2579 1.369 1_655 S
C2578 C2582 1.531 . S
C2579 C2578 1.369 1_455 S
C2579 C2580 1.410 . S
C2579 C2587 1.503 . S
C2580 C2579 1.410 . S
C2580 C2581 1.392 . S
C2580 C2583 1.511 . S
C2581 C2577 1.376 . S
C2581 C2580 1.392 . S
C2581 H2593 0.929 . S
C2582 C2578 1.531 . S
C2582 H2594 0.960 . S
C2582 H2595 0.962 . S
C2582 H2596 0.960 . S
C2583 C2580 1.511 . S
C2583 H2597 0.961 . S
C2583 H2598 0.961 . S
C2583 H2599 0.961 . S
C2584 C2585 1.370 1_655 S
C2584 C2586 1.363 . S
C2584 H2600 0.931 . S
C2585 C2584 1.370 1_455 S
C2585 C2589 1.408 . S
C2586 C2584 1.363 . S
C2586 C2587 1.370 1_655 S
C2586 C2590 1.524 . S
C2587 C2579 1.503 . S
C2587 C2586 1.370 1_455 S
C2587 C2588 1.403 . S
C2588 C2587 1.403 . S
C2588 C2589 1.404 . S
C2588 C2591 1.539 . S
C2589 C2585 1.408 . S
C2589 C2588 1.404 . S
C2589 H2601 0.930 . S
C2590 C2586 1.524 . S
C2590 H2602 0.956 . S
C2590 H2603 0.961 . S
C2590 H2604 0.961 . S
C2591 C2588 1.539 . S
C2591 H2605 0.958 . S
C2591 H2606 0.961 . S
C2591 H2607 0.960 . S
H2592 C2576 0.931 . S
H2593 C2581 0.929 . S
H2594 C2582 0.960 . S
H2595 C2582 0.962 . S
H2596 C2582 0.960 . S
H2597 C2583 0.961 . S
H2598 C2583 0.961 . S
H2599 C2583 0.961 . S
H2600 C2584 0.931 . S
H2601 C2589 0.930 . S
H2602 C2590 0.956 . S
H2603 C2590 0.961 . S
H2604 C2590 0.961 . S
H2605 C2591 0.958 . S
H2606 C2591 0.961 . S
H2607 C2591 0.960 . S
C2608 C2609 1.391 . S
C2608 C2610 1.394 . S
C2608 H2624 0.931 . S
C2609 C2608 1.391 . S
C2609 C2613 1.376 . S
C2610 C2608 1.394 . S
C2610 C2611 1.369 . S
C2610 C2614 1.531 . S
C2611 C2610 1.369 . S
C2611 C2612 1.410 . S
C2611 C2619 1.503 . S
C2612 C2611 1.410 . S
C2612 C2613 1.392 . S
C2612 C2615 1.511 . S
C2613 C2609 1.376 . S
C2613 C2612 1.392 . S
C2613 H2625 0.929 . S
C2614 C2610 1.531 . S
C2614 H2626 0.960 . S
C2614 H2627 0.962 . S
C2614 H2628 0.960 . S
C2615 C2612 1.511 . S
C2615 H2629 0.961 . S
C2615 H2630 0.961 . S
C2615 H2631 0.961 . S
C2616 C2617 1.370 . S
C2616 C2618 1.363 . S
C2616 H2632 0.931 . S
C2617 C2616 1.370 . S
C2617 C2621 1.408 . S
C2618 C2616 1.363 . S
C2618 C2619 1.370 . S
C2618 C2622 1.524 . S
C2619 C2611 1.503 . S
C2619 C2618 1.370 . S
C2619 C2620 1.403 . S
C2620 C2619 1.403 . S
C2620 C2621 1.404 . S
C2620 C2623 1.539 . S
C2621 C2617 1.408 . S
C2621 C2620 1.404 . S
C2621 H2633 0.930 . S
C2622 C2618 1.524 . S
C2622 H2634 0.956 . S
C2622 H2635 0.961 . S
C2622 H2636 0.961 . S
C2623 C2620 1.539 . S
C2623 H2637 0.958 . S
C2623 H2638 0.961 . S
C2623 H2639 0.960 . S
H2624 C2608 0.931 . S
H2625 C2613 0.929 . S
H2626 C2614 0.960 . S
H2627 C2614 0.962 . S
H2628 C2614 0.960 . S
H2629 C2615 0.961 . S
H2630 C2615 0.961 . S
H2631 C2615 0.961 . S
H2632 C2616 0.931 . S
H2633 C2621 0.930 . S
H2634 C2622 0.956 . S
H2635 C2622 0.961 . S
H2636 C2622 0.961 . S
H2637 C2623 0.958 . S
H2638 C2623 0.961 . S
H2639 C2623 0.960 . S
C2640 C2641 1.391 . S
C2640 C2642 1.394 . S
C2640 H2656 0.931 . S
C2641 C2640 1.391 . S
C2641 C2645 1.376 . S
C2642 C2640 1.394 . S
C2642 C2643 1.369 . S
C2642 C2646 1.531 . S
C2643 C2642 1.369 . S
C2643 C2644 1.410 . S
C2643 C2651 1.503 . S
C2644 C2643 1.410 . S
C2644 C2645 1.392 . S
C2644 C2647 1.511 . S
C2645 C2641 1.376 . S
C2645 C2644 1.392 . S
C2645 H2657 0.929 . S
C2646 C2642 1.531 . S
C2646 H2658 0.960 . S
C2646 H2659 0.962 . S
C2646 H2660 0.960 . S
C2647 C2644 1.511 . S
C2647 H2661 0.961 . S
C2647 H2662 0.961 . S
C2647 H2663 0.961 . S
C2648 C2649 1.370 . S
C2648 C2650 1.363 . S
C2648 H2664 0.931 . S
C2649 C2648 1.370 . S
C2649 C2653 1.408 . S
C2650 C2648 1.363 . S
C2650 C2651 1.370 . S
C2650 C2654 1.524 . S
C2651 C2643 1.503 . S
C2651 C2650 1.370 . S
C2651 C2652 1.403 . S
C2652 C2651 1.403 . S
C2652 C2653 1.404 . S
C2652 C2655 1.539 . S
C2653 C2649 1.408 . S
C2653 C2652 1.404 . S
C2653 H2665 0.930 . S
C2654 C2650 1.524 . S
C2654 H2666 0.956 . S
C2654 H2667 0.961 . S
C2654 H2668 0.961 . S
C2655 C2652 1.539 . S
C2655 H2669 0.958 . S
C2655 H2670 0.961 . S
C2655 H2671 0.960 . S
H2656 C2640 0.931 . S
H2657 C2645 0.929 . S
H2658 C2646 0.960 . S
H2659 C2646 0.962 . S
H2660 C2646 0.960 . S
H2661 C2647 0.961 . S
H2662 C2647 0.961 . S
H2663 C2647 0.961 . S
H2664 C2648 0.931 . S
H2665 C2653 0.930 . S
H2666 C2654 0.956 . S
H2667 C2654 0.961 . S
H2668 C2654 0.961 . S
H2669 C2655 0.958 . S
H2670 C2655 0.961 . S
H2671 C2655 0.960 . S
C2672 C2673 1.391 . S
C2672 C2674 1.394 . S
C2672 H2688 0.931 . S
C2673 C2672 1.391 . S
C2673 C2677 1.376 . S
C2674 C2672 1.394 . S
C2674 C2675 1.369 . S
C2674 C2678 1.531 . S
C2675 C2674 1.369 . S
C2675 C2676 1.410 . S
C2675 C2683 1.503 . S
C2676 C2675 1.410 . S
C2676 C2677 1.392 . S
C2676 C2679 1.511 . S
C2677 C2673 1.376 . S
C2677 C2676 1.392 . S
C2677 H2689 0.929 . S
C2678 C2674 1.531 . S
C2678 H2690 0.960 . S
C2678 H2691 0.962 . S
C2678 H2692 0.960 . S
C2679 C2676 1.511 . S
C2679 H2693 0.961 . S
C2679 H2694 0.961 . S
C2679 H2695 0.961 . S
C2680 C2681 1.370 . S
C2680 C2682 1.363 . S
C2680 H2696 0.931 . S
C2681 C2680 1.370 . S
C2681 C2685 1.408 . S
C2682 C2680 1.363 . S
C2682 C2683 1.370 . S
C2682 C2686 1.524 . S
C2683 C2675 1.503 . S
C2683 C2682 1.370 . S
C2683 C2684 1.403 . S
C2684 C2683 1.403 . S
C2684 C2685 1.404 . S
C2684 C2687 1.539 . S
C2685 C2681 1.408 . S
C2685 C2684 1.404 . S
C2685 H2697 0.930 . S
C2686 C2682 1.524 . S
C2686 H2698 0.956 . S
C2686 H2699 0.961 . S
C2686 H2700 0.961 . S
C2687 C2684 1.539 . S
C2687 H2701 0.958 . S
C2687 H2702 0.961 . S
C2687 H2703 0.960 . S
H2688 C2672 0.931 . S
H2689 C2677 0.929 . S
H2690 C2678 0.960 . S
H2691 C2678 0.962 . S
H2692 C2678 0.960 . S
H2693 C2679 0.961 . S
H2694 C2679 0.961 . S
H2695 C2679 0.961 . S
H2696 C2680 0.931 . S
H2697 C2685 0.930 . S
H2698 C2686 0.956 . S
H2699 C2686 0.961 . S
H2700 C2686 0.961 . S
H2701 C2687 0.958 . S
H2702 C2687 0.961 . S
H2703 C2687 0.960 . S
C2704 C2705 1.400 . S
C2704 C2706 1.394 . S
C2704 H2720 0.931 . S
C2705 C2704 1.400 . S
C2705 C2709 1.365 1_545 S
C2706 C2704 1.394 . S
C2706 C2707 1.369 1_545 S
C2706 C2710 1.531 . S
C2707 C2706 1.369 1_565 S
C2707 C2708 1.410 . S
C2707 C2715 1.503 . S
C2708 C2707 1.410 . S
C2708 C2709 1.392 . S
C2708 C2711 1.511 . S
C2709 C2705 1.365 1_565 S
C2709 C2708 1.392 . S
C2709 H2721 0.929 . S
C2710 C2706 1.531 . S
C2710 H2722 0.960 . S
C2710 H2723 0.962 . S
C2710 H2724 0.960 . S
C2711 C2708 1.511 . S
C2711 H2725 0.961 . S
C2711 H2726 0.961 . S
C2711 H2727 0.961 . S
C2712 C2713 1.370 1_545 S
C2712 C2714 1.363 . S
C2712 H2728 0.931 . S
C2713 C2712 1.370 1_565 S
C2713 C2717 1.408 . S
C2714 C2712 1.363 . S
C2714 C2715 1.370 1_545 S
C2714 C2718 1.524 . S
C2715 C2707 1.503 . S
C2715 C2714 1.370 1_565 S
C2715 C2716 1.403 . S
C2716 C2715 1.403 . S
C2716 C2717 1.404 . S
C2716 C2719 1.539 . S
C2717 C2713 1.408 . S
C2717 C2716 1.404 . S
C2717 H2729 0.930 . S
C2718 C2714 1.524 . S
C2718 H2730 0.956 . S
C2718 H2731 0.961 . S
C2718 H2732 0.961 . S
C2719 C2716 1.539 . S
C2719 H2733 0.958 . S
C2719 H2734 0.961 . S
C2719 H2735 0.960 . S
H2720 C2704 0.931 . S
H2721 C2709 0.929 . S
H2722 C2710 0.960 . S
H2723 C2710 0.962 . S
H2724 C2710 0.960 . S
H2725 C2711 0.961 . S
H2726 C2711 0.961 . S
H2727 C2711 0.961 . S
H2728 C2712 0.931 . S
H2729 C2717 0.930 . S
H2730 C2718 0.956 . S
H2731 C2718 0.961 . S
H2732 C2718 0.961 . S
H2733 C2719 0.958 . S
H2734 C2719 0.961 . S
H2735 C2719 0.960 . S
C2736 C2737 1.391 . S
C2736 C2738 1.394 . S
C2736 H2752 0.931 . S
C2737 C2736 1.391 . S
C2737 C2741 1.376 . S
C2738 C2736 1.394 . S
C2738 C2739 1.369 . S
C2738 C2742 1.531 . S
C2739 C2738 1.369 . S
C2739 C2740 1.410 . S
C2739 C2747 1.503 . S
C2740 C2739 1.410 . S
C2740 C2741 1.392 . S
C2740 C2743 1.511 . S
C2741 C2737 1.376 . S
C2741 C2740 1.392 . S
C2741 H2753 0.929 . S
C2742 C2738 1.531 . S
C2742 H2754 0.960 . S
C2742 H2755 0.962 . S
C2742 H2756 0.960 . S
C2743 C2740 1.511 . S
C2743 H2757 0.961 . S
C2743 H2758 0.961 . S
C2743 H2759 0.961 . S
C2744 C2745 1.370 . S
C2744 C2746 1.363 . S
C2744 H2760 0.931 . S
C2745 C2744 1.370 . S
C2745 C2749 1.408 . S
C2746 C2744 1.363 . S
C2746 C2747 1.370 . S
C2746 C2750 1.524 . S
C2747 C2739 1.503 . S
C2747 C2746 1.370 . S
C2747 C2748 1.403 . S
C2748 C2747 1.403 . S
C2748 C2749 1.404 . S
C2748 C2751 1.539 . S
C2749 C2745 1.408 . S
C2749 C2748 1.404 . S
C2749 H2761 0.930 . S
C2750 C2746 1.524 . S
C2750 H2762 0.956 . S
C2750 H2763 0.961 . S
C2750 H2764 0.961 . S
C2751 C2748 1.539 . S
C2751 H2765 0.958 . S
C2751 H2766 0.961 . S
C2751 H2767 0.960 . S
H2752 C2736 0.931 . S
H2753 C2741 0.929 . S
H2754 C2742 0.960 . S
H2755 C2742 0.962 . S
H2756 C2742 0.960 . S
H2757 C2743 0.961 . S
H2758 C2743 0.961 . S
H2759 C2743 0.961 . S
H2760 C2744 0.931 . S
H2761 C2749 0.930 . S
H2762 C2750 0.956 . S
H2763 C2750 0.961 . S
H2764 C2750 0.961 . S
H2765 C2751 0.958 . S
H2766 C2751 0.961 . S
H2767 C2751 0.960 . S
C2768 C2769 1.391 . S
C2768 C2770 1.394 . S
C2768 H2784 0.931 . S
C2769 C2768 1.391 . S
C2769 C2773 1.376 1_545 S
C2770 C2768 1.394 . S
C2770 C2771 1.369 . S
C2770 C2774 1.531 . S
C2771 C2770 1.369 . S
C2771 C2772 1.410 1_545 S
C2771 C2779 1.503 . S
C2772 C2771 1.410 1_565 S
C2772 C2773 1.392 . S
C2772 C2775 1.511 . S
C2773 C2769 1.376 1_565 S
C2773 C2772 1.392 . S
C2773 H2785 0.929 . S
C2774 C2770 1.531 . S
C2774 H2786 0.960 . S
C2774 H2787 0.962 . S
C2774 H2788 0.960 . S
C2775 C2772 1.511 . S
C2775 H2789 0.961 . S
C2775 H2790 0.961 . S
C2775 H2791 0.961 . S
C2776 C2777 1.370 . S
C2776 C2778 1.363 . S
C2776 H2792 0.931 . S
C2777 C2776 1.370 . S
C2777 C2781 1.408 . S
C2778 C2776 1.363 . S
C2778 C2779 1.370 . S
C2778 C2782 1.524 . S
C2779 C2771 1.503 . S
C2779 C2778 1.370 . S
C2779 C2780 1.403 . S
C2780 C2779 1.403 . S
C2780 C2781 1.404 . S
C2780 C2783 1.539 1_545 S
C2781 C2777 1.408 . S
C2781 C2780 1.404 . S
C2781 H2793 0.930 . S
C2782 C2778 1.524 . S
C2782 H2794 0.956 . S
C2782 H2795 0.961 . S
C2782 H2796 0.961 . S
C2783 C2780 1.539 1_565 S
C2783 H2797 0.958 1_565 S
C2783 H2798 0.961 . S
C2783 H2799 0.960 . S
H2784 C2768 0.931 . S
H2785 C2773 0.929 . S
H2786 C2774 0.960 . S
H2787 C2774 0.962 . S
H2788 C2774 0.960 . S
H2789 C2775 0.961 . S
H2790 C2775 0.961 . S
H2791 C2775 0.961 . S
H2792 C2776 0.931 . S
H2793 C2781 0.930 . S
H2794 C2782 0.956 . S
H2795 C2782 0.961 . S
H2796 C2782 0.961 . S
H2797 C2783 0.958 1_545 S
H2798 C2783 0.961 . S
H2799 C2783 0.960 . S
C2800 C2801 1.391 . S
C2800 C2802 1.394 . S
C2800 H2816 0.931 . S
C2801 C2800 1.391 . S
C2801 C2805 1.376 . S
C2802 C2800 1.394 . S
C2802 C2803 1.369 . S
C2802 C2806 1.531 . S
C2803 C2802 1.369 . S
C2803 C2804 1.410 . S
C2803 C2811 1.503 . S
C2804 C2803 1.410 . S
C2804 C2805 1.392 . S
C2804 C2807 1.511 . S
C2805 C2801 1.376 . S
C2805 C2804 1.392 . S
C2805 H2817 0.929 . S
C2806 C2802 1.531 . S
C2806 H2818 0.960 . S
C2806 H2819 0.962 . S
C2806 H2820 0.960 . S
C2807 C2804 1.511 . S
C2807 H2821 0.961 . S
C2807 H2822 0.961 . S
C2807 H2823 0.961 . S
C2808 C2809 1.370 . S
C2808 C2810 1.363 . S
C2808 H2824 0.931 . S
C2809 C2808 1.370 . S
C2809 C2813 1.408 . S
C2810 C2808 1.363 . S
C2810 C2811 1.370 . S
C2810 C2814 1.524 . S
C2811 C2803 1.503 . S
C2811 C2810 1.370 . S
C2811 C2812 1.403 . S
C2812 C2811 1.403 . S
C2812 C2813 1.404 . S
C2812 C2815 1.539 . S
C2813 C2809 1.408 . S
C2813 C2812 1.404 . S
C2813 H2825 0.930 . S
C2814 C2810 1.524 . S
C2814 H2826 0.956 . S
C2814 H2827 0.961 . S
C2814 H2828 0.961 . S
C2815 C2812 1.539 . S
C2815 H2829 0.958 . S
C2815 H2830 0.961 . S
C2815 H2831 0.960 . S
H2816 C2800 0.931 . S
H2817 C2805 0.929 . S
H2818 C2806 0.960 . S
H2819 C2806 0.962 . S
H2820 C2806 0.960 . S
H2821 C2807 0.961 . S
H2822 C2807 0.961 . S
H2823 C2807 0.961 . S
H2824 C2808 0.931 . S
H2825 C2813 0.930 . S
H2826 C2814 0.956 . S
H2827 C2814 0.961 . S
H2828 C2814 0.961 . S
H2829 C2815 0.958 . S
H2830 C2815 0.961 . S
H2831 C2815 0.960 . S
C2832 C2833 1.391 1_565 S
C2832 C2834 1.394 . S
C2832 H2848 0.931 . S
C2833 C2832 1.391 1_545 S
C2833 C2837 1.376 . S
C2834 C2832 1.394 . S
C2834 C2835 1.369 1_565 S
C2834 C2838 1.531 . S
C2835 C2834 1.369 1_545 S
C2835 C2836 1.410 . S
C2835 C2843 1.503 . S
C2836 C2835 1.410 . S
C2836 C2837 1.392 . S
C2836 C2839 1.511 . S
C2837 C2833 1.376 . S
C2837 C2836 1.392 . S
C2837 H2849 0.929 . S
C2838 C2834 1.531 . S
C2838 H2850 0.960 . S
C2838 H2851 0.962 . S
C2838 H2852 0.960 . S
C2839 C2836 1.511 . S
C2839 H2853 0.961 . S
C2839 H2854 0.961 . S
C2839 H2855 0.961 . S
C2840 C2841 1.370 . S
C2840 C2842 1.363 . S
C2840 H2856 0.931 1_545 S
C2841 C2840 1.370 . S
C2841 C2845 1.408 . S
C2842 C2840 1.363 . S
C2842 C2843 1.370 . S
C2842 C2846 1.524 1_545 S
C2843 C2835 1.503 . S
C2843 C2842 1.370 . S
C2843 C2844 1.403 . S
C2844 C2843 1.403 . S
C2844 C2845 1.404 . S
C2844 C2847 1.539 . S
C2845 C2841 1.408 . S
C2845 C2844 1.404 . S
C2845 H2857 0.930 . S
C2846 C2842 1.524 1_565 S
C2846 H2858 0.956 . S
C2846 H2859 0.961 1_565 S
C2846 H2860 0.961 . S
C2847 C2844 1.539 . S
C2847 H2861 0.958 . S
C2847 H2862 0.961 . S
C2847 H2863 0.960 . S
H2848 C2832 0.931 . S
H2849 C2837 0.929 . S
H2850 C2838 0.960 . S
H2851 C2838 0.962 . S
H2852 C2838 0.960 . S
H2853 C2839 0.961 . S
H2854 C2839 0.961 . S
H2855 C2839 0.961 . S
H2856 C2840 0.931 1_565 S
H2857 C2845 0.930 . S
H2858 C2846 0.956 . S
H2859 C2846 0.961 1_545 S
H2860 C2846 0.961 . S
H2861 C2847 0.958 . S
H2862 C2847 0.961 . S
H2863 C2847 0.960 . S
C2864 C2865 1.391 . S
C2864 C2866 1.394 . S
C2864 H2880 0.931 . S
C2865 C2864 1.391 . S
C2865 C2869 1.376 . S
C2866 C2864 1.394 . S
C2866 C2867 1.369 . S
C2866 C2870 1.531 . S
C2867 C2866 1.369 . S
C2867 C2868 1.410 . S
C2867 C2875 1.503 . S
C2868 C2867 1.410 . S
C2868 C2869 1.392 . S
C2868 C2871 1.511 . S
C2869 C2865 1.376 . S
C2869 C2868 1.392 . S
C2869 H2881 0.929 . S
C2870 C2866 1.531 . S
C2870 H2882 0.960 . S
C2870 H2883 0.962 . S
C2870 H2884 0.960 . S
C2871 C2868 1.511 . S
C2871 H2885 0.961 . S
C2871 H2886 0.961 . S
C2871 H2887 0.961 . S
C2872 C2873 1.370 . S
C2872 C2874 1.363 . S
C2872 H2888 0.931 . S
C2873 C2872 1.370 . S
C2873 C2877 1.408 . S
C2874 C2872 1.363 . S
C2874 C2875 1.370 . S
C2874 C2878 1.524 . S
C2875 C2867 1.503 . S
C2875 C2874 1.370 . S
C2875 C2876 1.403 . S
C2876 C2875 1.403 . S
C2876 C2877 1.404 . S
C2876 C2879 1.539 . S
C2877 C2873 1.408 . S
C2877 C2876 1.404 . S
C2877 H2889 0.930 . S
C2878 C2874 1.524 . S
C2878 H2890 0.956 . S
C2878 H2891 0.961 . S
C2878 H2892 0.961 . S
C2879 C2876 1.539 . S
C2879 H2893 0.958 . S
C2879 H2894 0.961 . S
C2879 H2895 0.960 . S
H2880 C2864 0.931 . S
H2881 C2869 0.929 . S
H2882 C2870 0.960 . S
H2883 C2870 0.962 . S
H2884 C2870 0.960 . S
H2885 C2871 0.961 . S
H2886 C2871 0.961 . S
H2887 C2871 0.961 . S
H2888 C2872 0.931 . S
H2889 C2877 0.930 . S
H2890 C2878 0.956 . S
H2891 C2878 0.961 . S
H2892 C2878 0.961 . S
H2893 C2879 0.958 . S
H2894 C2879 0.961 . S
H2895 C2879 0.960 . S
C2896 C2897 1.391 . S
C2896 C2898 1.394 . S
C2896 H2912 0.931 . S
C2897 C2896 1.391 . S
C2897 C2901 1.376 1_545 S
C2898 C2896 1.394 . S
C2898 C2899 1.369 . S
C2898 C2902 1.531 . S
C2899 C2898 1.369 . S
C2899 C2900 1.410 1_545 S
C2899 C2907 1.503 . S
C2900 C2899 1.410 1_565 S
C2900 C2901 1.392 . S
C2900 C2903 1.511 . S
C2901 C2897 1.376 1_565 S
C2901 C2900 1.392 . S
C2901 H2913 0.929 . S
C2902 C2898 1.531 . S
C2902 H2914 0.960 . S
C2902 H2915 0.962 . S
C2902 H2916 0.960 . S
C2903 C2900 1.511 . S
C2903 H2917 0.961 . S
C2903 H2918 0.961 . S
C2903 H2919 0.961 . S
C2904 C2905 1.389 . S
C2904 C2906 1.363 . S
C2904 H2920 0.931 . S
C2905 C2904 1.389 . S
C2905 C2909 1.384 1_565 S
C2906 C2904 1.363 . S
C2906 C2907 1.370 1_565 S
C2906 C2910 1.524 . S
C2907 C2899 1.503 . S
C2907 C2906 1.370 1_545 S
C2907 C2908 1.403 . S
C2908 C2907 1.403 . S
C2908 C2909 1.404 . S
C2908 C2911 1.539 . S
C2909 C2905 1.384 1_545 S
C2909 C2908 1.404 . S
C2909 H2921 0.930 . S
C2910 C2906 1.524 . S
C2910 H2922 0.956 . S
C2910 H2923 0.961 . S
C2910 H2924 0.961 . S
C2911 C2908 1.539 . S
C2911 H2925 0.958 . S
C2911 H2926 0.961 . S
C2911 H2927 0.960 . S
H2912 C2896 0.931 . S
H2913 C2901 0.929 . S
H2914 C2902 0.960 . S
H2915 C2902 0.962 . S
H2916 C2902 0.960 . S
H2917 C2903 0.961 . S
H2918 C2903 0.961 . S
H2919 C2903 0.961 . S
H2920 C2904 0.931 . S
H2921 C2909 0.930 . S
H2922 C2910 0.956 . S
H2923 C2910 0.961 . S
H2924 C2910 0.961 . S
H2925 C2911 0.958 . S
H2926 C2911 0.961 . S
H2927 C2911 0.960 . S
C2928 C2929 1.391 . S
C2928 C2930 1.394 . S
C2928 H2944 0.931 . S
C2929 C2928 1.391 . S
C2929 C2933 1.376 . S
C2930 C2928 1.394 . S
C2930 C2931 1.369 . S
C2930 C2934 1.531 . S
C2931 C2930 1.369 . S
C2931 C2932 1.410 . S
C2931 C2939 1.503 . S
C2932 C2931 1.410 . S
C2932 C2933 1.392 . S
C2932 C2935 1.511 . S
C2933 C2929 1.376 . S
C2933 C2932 1.392 . S
C2933 H2945 0.929 . S
C2934 C2930 1.531 . S
C2934 H2946 0.960 . S
C2934 H2947 0.962 . S
C2934 H2948 0.960 . S
C2935 C2932 1.511 . S
C2935 H2949 0.961 . S
C2935 H2950 0.961 . S
C2935 H2951 0.961 . S
C2936 C2937 1.370 . S
C2936 C2938 1.363 . S
C2936 H2952 0.931 . S
C2937 C2936 1.370 . S
C2937 C2941 1.408 . S
C2938 C2936 1.363 . S
C2938 C2939 1.370 . S
C2938 C2942 1.524 . S
C2939 C2931 1.503 . S
C2939 C2938 1.370 . S
C2939 C2940 1.403 . S
C2940 C2939 1.403 . S
C2940 C2941 1.404 . S
C2940 C2943 1.539 . S
C2941 C2937 1.408 . S
C2941 C2940 1.404 . S
C2941 H2953 0.930 . S
C2942 C2938 1.524 . S
C2942 H2954 0.956 . S
C2942 H2955 0.961 . S
C2942 H2956 0.961 . S
C2943 C2940 1.539 . S
C2943 H2957 0.958 . S
C2943 H2958 0.961 . S
C2943 H2959 0.960 . S
H2944 C2928 0.931 . S
H2945 C2933 0.929 . S
H2946 C2934 0.960 . S
H2947 C2934 0.962 . S
H2948 C2934 0.960 . S
H2949 C2935 0.961 . S
H2950 C2935 0.961 . S
H2951 C2935 0.961 . S
H2952 C2936 0.931 . S
H2953 C2941 0.930 . S
H2954 C2942 0.956 . S
H2955 C2942 0.961 . S
H2956 C2942 0.961 . S
H2957 C2943 0.958 . S
H2958 C2943 0.961 . S
H2959 C2943 0.960 . S
C2960 C2961 1.391 1_556 S
C2960 C2962 1.394 . S
C2960 H2976 0.931 . S
C2961 C2960 1.391 1_554 S
C2961 C2965 1.376 . S
C2962 C2960 1.394 . S
C2962 C2963 1.397 . S
C2962 C2966 1.531 . S
C2963 C2962 1.397 . S
C2963 C2964 1.378 1_556 S
C2963 C2971 1.503 . S
C2964 C2963 1.378 1_554 S
C2964 C2965 1.392 . S
C2964 C2967 1.511 . S
C2965 C2961 1.376 . S
C2965 C2964 1.392 . S
C2965 H2977 0.929 . S
C2966 C2962 1.531 . S
C2966 H2978 0.960 . S
C2966 H2979 0.962 . S
C2966 H2980 0.960 . S
C2967 C2964 1.511 . S
C2967 H2981 0.961 . S
C2967 H2982 0.961 . S
C2967 H2983 0.961 . S
C2968 C2969 1.339 1_554 S
C2968 C2970 1.363 . S
C2968 H2984 0.931 . S
C2969 C2968 1.339 1_556 S
C2969 C2973 1.442 . S
C2970 C2968 1.363 . S
C2970 C2971 1.332 1_554 S
C2970 C2974 1.524 . S
C2971 C2963 1.503 . S
C2971 C2970 1.332 1_556 S
C2971 C2972 1.443 . S
C2972 C2971 1.443 . S
C2972 C2973 1.404 . S
C2972 C2975 1.539 . S
C2973 C2969 1.442 . S
C2973 C2972 1.404 . S
C2973 H2985 0.930 . S
C2974 C2970 1.524 . S
C2974 H2986 0.956 . S
C2974 H2987 0.961 . S
C2974 H2988 0.961 . S
C2975 C2972 1.539 . S
C2975 H2989 0.958 . S
C2975 H2990 0.961 . S
C2975 H2991 0.960 . S
H2976 C2960 0.931 . S
H2977 C2965 0.929 . S
H2978 C2966 0.960 . S
H2979 C2966 0.962 . S
H2980 C2966 0.960 . S
H2981 C2967 0.961 . S
H2982 C2967 0.961 . S
H2983 C2967 0.961 . S
H2984 C2968 0.931 . S
H2985 C2973 0.930 . S
H2986 C2974 0.956 . S
H2987 C2974 0.961 . S
H2988 C2974 0.961 . S
H2989 C2975 0.958 . S
H2990 C2975 0.961 . S
H2991 C2975 0.960 . S
C2992 C2993 1.391 . S
C2992 C2994 1.394 . S
C2992 H3008 0.931 . S
C2993 C2992 1.391 . S
C2993 C2997 1.376 . S
C2994 C2992 1.394 . S
C2994 C2995 1.369 . S
C2994 C2998 1.531 . S
C2995 C2994 1.369 . S
C2995 C2996 1.410 . S
C2995 C3003 1.503 . S
C2996 C2995 1.410 . S
C2996 C2997 1.392 . S
C2996 C2999 1.511 . S
C2997 C2993 1.376 . S
C2997 C2996 1.392 . S
C2997 H3009 0.929 . S
C2998 C2994 1.531 . S
C2998 H3010 0.960 . S
C2998 H3011 0.962 . S
C2998 H3012 0.960 . S
C2999 C2996 1.511 . S
C2999 H3013 0.961 . S
C2999 H3014 0.961 . S
C2999 H3015 0.961 . S
C3000 C3001 1.370 1_556 S
C3000 C3002 1.363 . S
C3000 H3016 0.931 . S
C3001 C3000 1.370 1_554 S
C3001 C3005 1.408 . S
C3002 C3000 1.363 . S
C3002 C3003 1.370 1_556 S
C3002 C3006 1.524 . S
C3003 C2995 1.503 . S
C3003 C3002 1.370 1_554 S
C3003 C3004 1.403 . S
C3004 C3003 1.403 . S
C3004 C3005 1.404 . S
C3004 C3007 1.539 . S
C3005 C3001 1.408 . S
C3005 C3004 1.404 . S
C3005 H3017 0.930 . S
C3006 C3002 1.524 . S
C3006 H3018 0.956 . S
C3006 H3019 0.961 . S
C3006 H3020 0.961 . S
C3007 C3004 1.539 . S
C3007 H3021 0.958 . S
C3007 H3022 0.961 . S
C3007 H3023 0.960 . S
H3008 C2992 0.931 . S
H3009 C2997 0.929 . S
H3010 C2998 0.960 . S
H3011 C2998 0.962 . S
H3012 C2998 0.960 . S
H3013 C2999 0.961 . S
H3014 C2999 0.961 . S
H3015 C2999 0.961 . S
H3016 C3000 0.931 . S
H3017 C3005 0.930 . S
H3018 C3006 0.956 . S
H3019 C3006 0.961 . S
H3020 C3006 0.961 . S
H3021 C3007 0.958 . S
H3022 C3007 0.961 . S
H3023 C3007 0.960 . S
C3024 C3025 1.391 . S
C3024 C3026 1.394 . S
C3024 H3040 0.931 . S
C3025 C3024 1.391 . S
C3025 C3029 1.376 . S
C3026 C3024 1.394 . S
C3026 C3027 1.369 . S
C3026 C3030 1.531 . S
C3027 C3026 1.369 . S
C3027 C3028 1.410 . S
C3027 C3035 1.503 . S
C3028 C3027 1.410 . S
C3028 C3029 1.392 . S
C3028 C3031 1.511 . S
C3029 C3025 1.376 . S
C3029 C3028 1.392 . S
C3029 H3041 0.929 . S
C3030 C3026 1.531 . S
C3030 H3042 0.960 . S
C3030 H3043 0.962 . S
C3030 H3044 0.960 . S
C3031 C3028 1.511 . S
C3031 H3045 0.961 . S
C3031 H3046 0.961 . S
C3031 H3047 0.961 . S
C3032 C3033 1.370 . S
C3032 C3034 1.363 . S
C3032 H3048 0.931 . S
C3033 C3032 1.370 . S
C3033 C3037 1.408 . S
C3034 C3032 1.363 . S
C3034 C3035 1.370 . S
C3034 C3038 1.524 . S
C3035 C3027 1.503 . S
C3035 C3034 1.370 . S
C3035 C3036 1.403 . S
C3036 C3035 1.403 . S
C3036 C3037 1.404 . S
C3036 C3039 1.539 . S
C3037 C3033 1.408 . S
C3037 C3036 1.404 . S
C3037 H3049 0.930 . S
C3038 C3034 1.524 . S
C3038 H3050 0.956 . S
C3038 H3051 0.961 . S
C3038 H3052 0.961 . S
C3039 C3036 1.539 . S
C3039 H3053 0.958 . S
C3039 H3054 0.961 . S
C3039 H3055 0.960 . S
H3040 C3024 0.931 . S
H3041 C3029 0.929 . S
H3042 C3030 0.960 . S
H3043 C3030 0.962 . S
H3044 C3030 0.960 . S
H3045 C3031 0.961 . S
H3046 C3031 0.961 . S
H3047 C3031 0.961 . S
H3048 C3032 0.931 . S
H3049 C3037 0.930 . S
H3050 C3038 0.956 . S
H3051 C3038 0.961 . S
H3052 C3038 0.961 . S
H3053 C3039 0.958 . S
H3054 C3039 0.961 . S
H3055 C3039 0.960 . S
C3056 C3057 1.391 . S
C3056 C3058 1.394 . S
C3056 H3072 0.931 . S
C3057 C3056 1.391 . S
C3057 C3061 1.376 . S
C3058 C3056 1.394 . S
C3058 C3059 1.369 . S
C3058 C3062 1.531 . S
C3059 C3058 1.369 . S
C3059 C3060 1.410 . S
C3059 C3067 1.503 . S
C3060 C3059 1.410 . S
C3060 C3061 1.392 . S
C3060 C3063 1.511 . S
C3061 C3057 1.376 . S
C3061 C3060 1.392 . S
C3061 H3073 0.929 . S
C3062 C3058 1.531 . S
C3062 H3074 0.960 . S
C3062 H3075 0.962 . S
C3062 H3076 0.960 . S
C3063 C3060 1.511 . S
C3063 H3077 0.961 . S
C3063 H3078 0.961 . S
C3063 H3079 0.961 . S
C3064 C3065 1.370 . S
C3064 C3066 1.363 . S
C3064 H3080 0.931 . S
C3065 C3064 1.370 . S
C3065 C3069 1.408 . S
C3066 C3064 1.363 . S
C3066 C3067 1.370 . S
C3066 C3070 1.524 . S
C3067 C3059 1.503 . S
C3067 C3066 1.370 . S
C3067 C3068 1.403 . S
C3068 C3067 1.403 . S
C3068 C3069 1.404 . S
C3068 C3071 1.539 . S
C3069 C3065 1.408 . S
C3069 C3068 1.404 . S
C3069 H3081 0.930 . S
C3070 C3066 1.524 . S
C3070 H3082 0.956 . S
C3070 H3083 0.961 . S
C3070 H3084 0.961 . S
C3071 C3068 1.539 . S
C3071 H3085 0.958 . S
C3071 H3086 0.961 . S
C3071 H3087 0.960 . S
H3072 C3056 0.931 . S
H3073 C3061 0.929 . S
H3074 C3062 0.960 . S
H3075 C3062 0.962 . S
H3076 C3062 0.960 . S
H3077 C3063 0.961 . S
H3078 C3063 0.961 . S
H3079 C3063 0.961 . S
H3080 C3064 0.931 . S
H3081 C3069 0.930 . S
H3082 C3070 0.956 . S
H3083 C3070 0.961 . S
H3084 C3070 0.961 . S
H3085 C3071 0.958 . S
H3086 C3071 0.961 . S
H3087 C3071 0.960 . S
C3088 C3089 1.391 . S
C3088 C3090 1.394 . S
C3088 H3104 0.931 . S
C3089 C3088 1.391 . S
C3089 C3093 1.376 . S
C3090 C3088 1.394 . S
C3090 C3091 1.369 . S
C3090 C3094 1.531 . S
C3091 C3090 1.369 . S
C3091 C3092 1.410 . S
C3091 C3099 1.503 . S
C3092 C3091 1.410 . S
C3092 C3093 1.392 . S
C3092 C3095 1.511 . S
C3093 C3089 1.376 . S
C3093 C3092 1.392 . S
C3093 H3105 0.929 . S
C3094 C3090 1.531 . S
C3094 H3106 0.960 . S
C3094 H3107 0.962 . S
C3094 H3108 0.960 . S
C3095 C3092 1.511 . S
C3095 H3109 0.961 . S
C3095 H3110 0.961 . S
C3095 H3111 0.961 . S
C3096 C3097 1.370 . S
C3096 C3098 1.363 . S
C3096 H3112 0.931 . S
C3097 C3096 1.370 . S
C3097 C3101 1.408 . S
C3098 C3096 1.363 . S
C3098 C3099 1.370 . S
C3098 C3102 1.524 . S
C3099 C3091 1.503 . S
C3099 C3098 1.370 . S
C3099 C3100 1.403 . S
C3100 C3099 1.403 . S
C3100 C3101 1.404 . S
C3100 C3103 1.539 . S
C3101 C3097 1.408 . S
C3101 C3100 1.404 . S
C3101 H3113 0.930 . S
C3102 C3098 1.524 . S
C3102 H3114 0.956 . S
C3102 H3115 0.961 . S
C3102 H3116 0.961 . S
C3103 C3100 1.539 . S
C3103 H3117 0.958 . S
C3103 H3118 0.961 . S
C3103 H3119 0.960 . S
H3104 C3088 0.931 . S
H3105 C3093 0.929 . S
H3106 C3094 0.960 . S
H3107 C3094 0.962 . S
H3108 C3094 0.960 . S
H3109 C3095 0.961 . S
H3110 C3095 0.961 . S
H3111 C3095 0.961 . S
H3112 C3096 0.931 . S
H3113 C3101 0.930 . S
H3114 C3102 0.956 . S
H3115 C3102 0.961 . S
H3116 C3102 0.961 . S
H3117 C3103 0.958 . S
H3118 C3103 0.961 . S
H3119 C3103 0.960 . S
C3120 C3121 1.391 . S
C3120 C3122 1.394 . S
C3120 H3136 0.931 . S
C3121 C3120 1.391 . S
C3121 C3125 1.376 . S
C3122 C3120 1.394 . S
C3122 C3123 1.369 . S
C3122 C3126 1.531 . S
C3123 C3122 1.369 . S
C3123 C3124 1.410 . S
C3123 C3131 1.503 . S
C3124 C3123 1.410 . S
C3124 C3125 1.392 . S
C3124 C3127 1.511 . S
C3125 C3121 1.376 . S
C3125 C3124 1.392 . S
C3125 H3137 0.929 . S
C3126 C3122 1.531 . S
C3126 H3138 0.960 . S
C3126 H3139 0.962 . S
C3126 H3140 0.960 . S
C3127 C3124 1.511 . S
C3127 H3141 0.961 . S
C3127 H3142 0.961 . S
C3127 H3143 0.961 . S
C3128 C3129 1.370 . S
C3128 C3130 1.363 . S
C3128 H3144 0.956 . S
C3129 C3128 1.370 . S
C3129 C3133 1.408 . S
C3130 C3128 1.363 . S
C3130 C3131 1.370 . S
C3130 C3134 1.524 . S
C3131 C3123 1.503 . S
C3131 C3130 1.370 . S
C3131 C3132 1.403 . S
C3132 C3131 1.403 . S
C3132 C3133 1.404 . S
C3132 C3135 1.539 . S
C3133 C3129 1.408 . S
C3133 C3132 1.404 . S
C3133 H3145 0.930 . S
C3134 C3130 1.524 . S
C3134 H3146 0.956 . S
C3134 H3147 0.961 . S
C3134 H3148 0.961 1_565 S
C3135 C3132 1.539 . S
C3135 H3149 0.958 . S
C3135 H3150 0.961 . S
C3135 H3151 0.960 . S
H3136 C3120 0.931 . S
H3137 C3125 0.929 . S
H3138 C3126 0.960 . S
H3139 C3126 0.962 . S
H3140 C3126 0.960 . S
H3141 C3127 0.961 . S
H3142 C3127 0.961 . S
H3143 C3127 0.961 . S
H3144 C3128 0.956 . S
H3145 C3133 0.930 . S
H3146 C3134 0.956 . S
H3147 C3134 0.961 . S
H3148 C3134 0.961 1_545 S
H3149 C3135 0.958 . S
H3150 C3135 0.961 . S
H3151 C3135 0.960 . S
C3152 C3153 1.391 . S
C3152 C3154 1.394 . S
C3152 H3168 0.931 . S
C3153 C3152 1.391 . S
C3153 C3157 1.376 . S
C3154 C3152 1.394 . S
C3154 C3155 1.369 . S
C3154 C3158 1.531 . S
C3155 C3154 1.369 . S
C3155 C3156 1.410 . S
C3155 C3163 1.503 . S
C3156 C3155 1.410 . S
C3156 C3157 1.392 . S
C3156 C3159 1.511 . S
C3157 C3153 1.376 . S
C3157 C3156 1.392 . S
C3157 H3169 0.929 . S
C3158 C3154 1.531 . S
C3158 H3170 0.960 . S
C3158 H3171 0.962 . S
C3158 H3172 0.960 . S
C3159 C3156 1.511 . S
C3159 H3173 0.961 . S
C3159 H3174 0.961 . S
C3159 H3175 0.961 . S
C3160 C3161 1.370 . S
C3160 C3162 1.363 . S
C3160 H3176 0.931 . S
C3161 C3160 1.370 . S
C3161 C3165 1.408 . S
C3162 C3160 1.363 . S
C3162 C3163 1.370 . S
C3162 C3166 1.524 . S
C3163 C3155 1.503 . S
C3163 C3162 1.370 . S
C3163 C3164 1.403 . S
C3164 C3163 1.403 . S
C3164 C3165 1.404 . S
C3164 C3167 1.539 . S
C3165 C3161 1.408 . S
C3165 C3164 1.404 . S
C3165 H3177 0.930 . S
C3166 C3162 1.524 . S
C3166 H3178 0.956 . S
C3166 H3179 0.961 . S
C3166 H3180 0.961 . S
C3167 C3164 1.539 . S
C3167 H3181 0.958 . S
C3167 H3182 0.961 . S
C3167 H3183 0.960 . S
H3168 C3152 0.931 . S
H3169 C3157 0.929 . S
H3170 C3158 0.960 . S
H3171 C3158 0.962 . S
H3172 C3158 0.960 . S
H3173 C3159 0.961 . S
H3174 C3159 0.961 . S
H3175 C3159 0.961 . S
H3176 C3160 0.931 . S
H3177 C3165 0.930 . S
H3178 C3166 0.956 . S
H3179 C3166 0.961 . S
H3180 C3166 0.961 . S
H3181 C3167 0.958 . S
H3182 C3167 0.961 . S
H3183 C3167 0.960 . S
C3184 C3185 1.391 . S
C3184 C3186 1.394 . S
C3184 H3200 0.931 . S
C3185 C3184 1.391 . S
C3185 C3189 1.376 . S
C3186 C3184 1.394 . S
C3186 C3187 1.369 . S
C3186 C3190 1.531 . S
C3187 C3186 1.369 . S
C3187 C3188 1.410 . S
C3187 C3195 1.503 . S
C3188 C3187 1.410 . S
C3188 C3189 1.392 . S
C3188 C3191 1.511 . S
C3189 C3185 1.376 . S
C3189 C3188 1.392 . S
C3189 H3201 0.929 . S
C3190 C3186 1.531 . S
C3190 H3202 0.960 . S
C3190 H3203 0.962 . S
C3190 H3204 0.960 . S
C3191 C3188 1.511 . S
C3191 H3205 0.961 . S
C3191 H3206 0.961 . S
C3191 H3207 0.961 . S
C3192 C3193 1.370 . S
C3192 C3194 1.363 . S
C3192 H3208 0.931 . S
C3193 C3192 1.370 . S
C3193 C3197 1.408 . S
C3194 C3192 1.363 . S
C3194 C3195 1.370 . S
C3194 C3198 1.524 . S
C3195 C3187 1.503 . S
C3195 C3194 1.370 . S
C3195 C3196 1.403 . S
C3196 C3195 1.403 . S
C3196 C3197 1.404 . S
C3196 C3199 1.539 . S
C3197 C3193 1.408 . S
C3197 C3196 1.404 . S
C3197 H3209 0.930 . S
C3198 C3194 1.524 . S
C3198 H3210 0.956 . S
C3198 H3211 0.961 . S
C3198 H3212 0.961 . S
C3199 C3196 1.539 . S
C3199 H3213 0.958 . S
C3199 H3214 0.961 . S
C3199 H3215 0.960 . S
H3200 C3184 0.931 . S
H3201 C3189 0.929 . S
H3202 C3190 0.960 . S
H3203 C3190 0.962 . S
H3204 C3190 0.960 . S
H3205 C3191 0.961 . S
H3206 C3191 0.961 . S
H3207 C3191 0.961 . S
H3208 C3192 0.931 . S
H3209 C3197 0.930 . S
H3210 C3198 0.956 . S
H3211 C3198 0.961 . S
H3212 C3198 0.961 . S
H3213 C3199 0.958 . S
H3214 C3199 0.961 . S
H3215 C3199 0.960 . S
C3216 C3217 1.391 1_655 S
C3216 C3218 1.394 . S
C3216 H3232 0.931 . S
C3217 C3216 1.391 1_455 S
C3217 C3221 1.376 . S
C3218 C3216 1.394 . S
C3218 C3219 1.369 1_655 S
C3218 C3222 1.531 . S
C3219 C3218 1.369 1_455 S
C3219 C3220 1.410 . S
C3219 C3227 1.503 . S
C3220 C3219 1.410 . S
C3220 C3221 1.392 . S
C3220 C3223 1.511 . S
C3221 C3217 1.376 . S
C3221 C3220 1.392 . S
C3221 H3233 0.929 . S
C3222 C3218 1.531 . S
C3222 H3234 0.960 . S
C3222 H3235 0.962 1_655 S
C3222 H3236 0.960 . S
C3223 C3220 1.511 . S
C3223 H3237 0.961 . S
C3223 H3238 0.961 . S
C3223 H3239 0.931 1_556 S
C3224 C3225 1.370 . S
C3224 C3226 1.363 . S
C3224 H3240 0.931 . S
C3225 C3224 1.370 . S
C3225 C3229 1.408 1_455 S
C3226 C3224 1.363 . S
C3226 C3227 1.370 . S
C3226 C3230 1.524 . S
C3227 C3219 1.503 . S
C3227 C3226 1.370 . S
C3227 C3228 1.403 1_455 S
C3228 C3227 1.403 1_655 S
C3228 C3229 1.404 . S
C3228 C3231 1.539 . S
C3229 C3225 1.408 1_655 S
C3229 C3228 1.404 . S
C3229 H3241 0.930 . S
C3230 C3226 1.524 . S
C3230 H3242 0.956 . S
C3230 H3243 0.961 . S
C3230 H3244 0.961 . S
C3231 C3228 1.539 . S
C3231 H3245 0.958 . S
C3231 H3246 0.961 . S
C3231 H3247 0.960 . S
H3232 C3216 0.931 . S
H3233 C3221 0.929 . S
H3234 C3222 0.960 . S
H3235 C3222 0.962 1_455 S
H3236 C3222 0.960 . S
H3237 C3223 0.961 . S
H3238 C3223 0.961 . S
H3239 C3223 0.931 1_554 S
H3240 C3224 0.931 . S
H3241 C3229 0.930 . S
H3242 C3230 0.956 . S
H3243 C3230 0.961 . S
H3244 C3230 0.961 . S
H3245 C3231 0.958 . S
H3246 C3231 0.961 . S
H3247 C3231 0.960 . S
C3248 C3249 1.391 . S
C3248 C3250 1.394 . S
C3248 H3264 0.931 . S
C3249 C3248 1.391 . S
C3249 C3253 1.376 . S
C3250 C3248 1.394 . S
C3250 C3251 1.369 . S
C3250 C3254 1.531 . S
C3251 C3250 1.369 . S
C3251 C3252 1.410 . S
C3251 C3259 1.503 . S
C3252 C3251 1.410 . S
C3252 C3253 1.392 . S
C3252 C3255 1.511 . S
C3253 C3249 1.376 . S
C3253 C3252 1.392 . S
C3253 H3265 0.929 . S
C3254 C3250 1.531 . S
C3254 H3266 0.960 . S
C3254 H3267 0.962 . S
C3254 H3268 0.960 . S
C3255 C3252 1.511 . S
C3255 H3269 0.961 . S
C3255 H3270 0.961 . S
C3255 H3271 0.961 . S
C3256 C3257 1.370 . S
C3256 C3258 1.363 . S
C3256 H3272 0.931 . S
C3257 C3256 1.370 . S
C3257 C3261 1.408 . S
C3258 C3256 1.363 . S
C3258 C3259 1.370 . S
C3258 C3262 1.524 . S
C3259 C3251 1.503 . S
C3259 C3258 1.370 . S
C3259 C3260 1.403 . S
C3260 C3259 1.403 . S
C3260 C3261 1.404 . S
C3260 C3263 1.539 . S
C3261 C3257 1.408 . S
C3261 C3260 1.404 . S
C3261 H3273 0.930 . S
C3262 C3258 1.524 . S
C3262 H3274 0.956 . S
C3262 H3275 0.961 . S
C3262 H3276 0.961 . S
C3263 C3260 1.539 . S
C3263 H3277 0.958 . S
C3263 H3278 0.961 . S
C3263 H3279 0.960 . S
H3264 C3248 0.931 . S
H3265 C3253 0.929 . S
H3266 C3254 0.960 . S
H3267 C3254 0.962 . S
H3268 C3254 0.960 . S
H3269 C3255 0.961 . S
H3270 C3255 0.961 . S
H3271 C3255 0.961 . S
H3272 C3256 0.931 . S
H3273 C3261 0.930 . S
H3274 C3262 0.956 . S
H3275 C3262 0.961 . S
H3276 C3262 0.961 . S
H3277 C3263 0.958 . S
H3278 C3263 0.961 . S
H3279 C3263 0.960 . S
C3280 C3281 1.391 . S
C3280 C3282 1.394 . S
C3280 H3296 0.931 . S
C3281 C3280 1.391 . S
C3281 C3285 1.376 . S
C3282 C3280 1.394 . S
C3282 C3283 1.369 . S
C3282 C3286 1.531 . S
C3283 C3282 1.369 . S
C3283 C3284 1.410 . S
C3283 C3291 1.503 . S
C3284 C3283 1.410 . S
C3284 C3285 1.392 . S
C3284 C3287 1.511 . S
C3285 C3281 1.376 . S
C3285 C3284 1.392 . S
C3285 H3297 0.929 . S
C3286 C3282 1.531 . S
C3286 H3298 0.960 . S
C3286 H3299 0.962 . S
C3286 H3300 0.960 . S
C3287 C3284 1.511 . S
C3287 H3301 0.961 . S
C3287 H3302 0.961 . S
C3287 H3303 0.961 . S
C3288 C3289 1.370 . S
C3288 C3290 1.363 . S
C3288 H3304 0.931 . S
C3289 C3288 1.370 . S
C3289 C3293 1.408 . S
C3290 C3288 1.363 . S
C3290 C3291 1.370 . S
C3290 C3294 1.524 . S
C3291 C3283 1.503 . S
C3291 C3290 1.370 . S
C3291 C3292 1.403 . S
C3292 C3291 1.403 . S
C3292 C3293 1.404 . S
C3292 C3295 1.539 . S
C3293 C3289 1.408 . S
C3293 C3292 1.404 . S
C3293 H3305 0.930 . S
C3294 C3290 1.524 . S
C3294 H3306 0.956 . S
C3294 H3307 0.961 . S
C3294 H3308 0.961 . S
C3295 C3292 1.539 . S
C3295 H3309 0.958 . S
C3295 H3310 0.961 . S
C3295 H3311 0.960 . S
H3296 C3280 0.931 . S
H3297 C3285 0.929 . S
H3298 C3286 0.960 . S
H3299 C3286 0.962 . S
H3300 C3286 0.960 . S
H3301 C3287 0.961 . S
H3302 C3287 0.961 . S
H3303 C3287 0.961 . S
H3304 C3288 0.931 . S
H3305 C3293 0.930 . S
H3306 C3294 0.956 . S
H3307 C3294 0.961 . S
H3308 C3294 0.961 . S
H3309 C3295 0.958 . S
H3310 C3295 0.961 . S
H3311 C3295 0.960 . S
C3312 C3313 1.391 . S
C3312 C3314 1.394 . S
C3312 H3328 0.931 . S
C3313 C3312 1.391 . S
C3313 C3317 1.376 . S
C3314 C3312 1.394 . S
C3314 C3315 1.369 . S
C3314 C3318 1.531 . S
C3315 C3314 1.369 . S
C3315 C3316 1.410 . S
C3315 C3323 1.503 . S
C3316 C3315 1.410 . S
C3316 C3317 1.392 . S
C3316 C3319 1.511 . S
C3317 C3313 1.376 . S
C3317 C3316 1.392 . S
C3317 H3329 0.929 . S
C3318 C3314 1.531 . S
C3318 H3330 0.960 . S
C3318 H3331 0.962 . S
C3318 H3332 0.960 . S
C3319 C3316 1.511 . S
C3319 H3333 0.961 . S
C3319 H3334 0.961 . S
C3319 H3335 0.961 . S
C3320 C3321 1.370 . S
C3320 C3322 1.363 . S
C3320 H3336 0.931 . S
C3321 C3320 1.370 . S
C3321 C3325 1.408 . S
C3322 C3320 1.363 . S
C3322 C3323 1.370 . S
C3322 C3326 1.524 . S
C3323 C3315 1.503 . S
C3323 C3322 1.370 . S
C3323 C3324 1.403 . S
C3324 C3323 1.403 . S
C3324 C3325 1.404 . S
C3324 C3327 1.539 . S
C3325 C3321 1.408 . S
C3325 C3324 1.404 . S
C3325 H3337 0.930 . S
C3326 C3322 1.524 . S
C3326 H3338 0.956 . S
C3326 H3339 0.961 . S
C3326 H3340 0.961 . S
C3327 C3324 1.539 . S
C3327 H3341 0.958 . S
C3327 H3342 0.961 . S
C3327 H3343 0.960 . S
H3328 C3312 0.931 . S
H3329 C3317 0.929 . S
H3330 C3318 0.960 . S
H3331 C3318 0.962 . S
H3332 C3318 0.960 . S
H3333 C3319 0.961 . S
H3334 C3319 0.961 . S
H3335 C3319 0.961 . S
H3336 C3320 0.931 . S
H3337 C3325 0.930 . S
H3338 C3326 0.956 . S
H3339 C3326 0.961 . S
H3340 C3326 0.961 . S
H3341 C3327 0.958 . S
H3342 C3327 0.961 . S
H3343 C3327 0.960 . S
C3344 C3345 1.391 . S
C3344 C3346 1.394 . S
C3344 H3360 0.931 . S
C3345 C3344 1.391 . S
C3345 C3349 1.376 1_455 S
C3346 C3344 1.394 . S
C3346 C3347 1.369 . S
C3346 C3350 1.531 . S
C3347 C3346 1.369 . S
C3347 C3348 1.410 1_455 S
C3347 C3355 1.503 . S
C3348 C3347 1.410 1_655 S
C3348 C3349 1.392 . S
C3348 C3351 1.511 . S
C3349 C3345 1.376 1_655 S
C3349 C3348 1.392 . S
C3349 H3361 0.929 . S
C3350 C3346 1.531 . S
C3350 H3362 0.960 . S
C3350 H3363 0.962 . S
C3350 H3364 0.960 . S
C3351 C3348 1.511 . S
C3351 H3365 0.961 . S
C3351 H3366 0.961 . S
C3351 H3367 0.961 . S
C3352 C3353 1.370 . S
C3352 C3354 1.363 . S
C3352 H3368 0.931 . S
C3353 C3352 1.370 . S
C3353 C3357 1.408 . S
C3354 C3352 1.363 . S
C3354 C3355 1.370 . S
C3354 C3358 1.524 . S
C3355 C3347 1.503 . S
C3355 C3354 1.370 . S
C3355 C3356 1.403 . S
C3356 C3355 1.403 . S
C3356 C3357 1.404 . S
C3356 C3359 1.539 . S
C3357 C3353 1.408 . S
C3357 C3356 1.404 . S
C3357 H3369 0.930 . S
C3358 C3354 1.524 . S
C3358 H3370 0.956 . S
C3358 H3371 0.961 1_455 S
C3358 H3372 0.961 . S
C3359 C3356 1.539 . S
C3359 H3373 0.958 . S
C3359 H3374 0.961 . S
C3359 H3375 0.960 . S
H3360 C3344 0.931 . S
H3361 C3349 0.929 . S
H3362 C3350 0.960 . S
H3363 C3350 0.962 . S
H3364 C3350 0.960 . S
H3365 C3351 0.961 . S
H3366 C3351 0.961 . S
H3367 C3351 0.961 . S
H3368 C3352 0.931 . S
H3369 C3357 0.930 . S
H3370 C3358 0.956 . S
H3371 C3358 0.961 1_655 S
H3372 C3358 0.961 . S
H3373 C3359 0.958 . S
H3374 C3359 0.961 . S
H3375 C3359 0.960 . S
C3376 C3377 1.391 . S
C3376 C3378 1.394 . S
C3376 H3392 0.931 . S
C3377 C3376 1.391 . S
C3377 C3381 1.376 . S
C3378 C3376 1.394 . S
C3378 C3379 1.369 . S
C3378 C3382 1.531 . S
C3379 C3378 1.369 . S
C3379 C3380 1.410 . S
C3379 C3387 1.503 . S
C3380 C3379 1.410 . S
C3380 C3381 1.392 . S
C3380 C3383 1.511 . S
C3381 C3377 1.376 . S
C3381 C3380 1.392 . S
C3381 H3393 0.929 . S
C3382 C3378 1.531 . S
C3382 H3394 0.960 . S
C3382 H3395 0.962 . S
C3382 H3396 0.960 . S
C3383 C3380 1.511 . S
C3383 H3397 0.961 . S
C3383 H3398 0.961 . S
C3383 H3399 0.961 . S
C3384 C3385 1.370 . S
C3384 C3386 1.363 . S
C3384 H3400 0.931 . S
C3385 C3384 1.370 . S
C3385 C3389 1.408 . S
C3386 C3384 1.363 . S
C3386 C3387 1.370 . S
C3386 C3390 1.524 . S
C3387 C3379 1.503 . S
C3387 C3386 1.370 . S
C3387 C3388 1.403 . S
C3388 C3387 1.403 . S
C3388 C3389 1.404 . S
C3388 C3391 1.539 . S
C3389 C3385 1.408 . S
C3389 C3388 1.404 . S
C3389 H3401 0.930 . S
C3390 C3386 1.524 . S
C3390 H3402 0.956 . S
C3390 H3403 0.961 . S
C3390 H3404 0.961 . S
C3391 C3388 1.539 . S
C3391 H3405 0.958 . S
C3391 H3406 0.961 . S
C3391 H3407 0.960 . S
H3392 C3376 0.931 . S
H3393 C3381 0.929 . S
H3394 C3382 0.960 . S
H3395 C3382 0.962 . S
H3396 C3382 0.960 . S
H3397 C3383 0.961 . S
H3398 C3383 0.961 . S
H3399 C3383 0.961 . S
H3400 C3384 0.931 . S
H3401 C3389 0.930 . S
H3402 C3390 0.956 . S
H3403 C3390 0.961 . S
H3404 C3390 0.961 . S
H3405 C3391 0.958 . S
H3406 C3391 0.961 . S
H3407 C3391 0.960 . S
C3408 C3409 1.391 . S
C3408 C3410 1.394 . S
C3408 H3424 0.931 . S
C3409 C3408 1.391 . S
C3409 C3413 1.376 . S
C3410 C3408 1.394 . S
C3410 C3411 1.369 . S
C3410 C3414 1.531 . S
C3411 C3410 1.369 . S
C3411 C3412 1.410 . S
C3411 C3419 1.503 . S
C3412 C3411 1.410 . S
C3412 C3413 1.392 . S
C3412 C3415 1.511 . S
C3413 C3409 1.376 . S
C3413 C3412 1.392 . S
C3413 H3425 0.929 . S
C3414 C3410 1.531 . S
C3414 H3426 0.960 . S
C3414 H3427 0.962 . S
C3414 H3428 0.960 . S
C3415 C3412 1.511 . S
C3415 H3429 0.961 . S
C3415 H3430 0.961 . S
C3415 H3431 0.961 . S
C3416 C3417 1.370 . S
C3416 C3418 1.363 . S
C3416 H3432 0.931 . S
C3417 C3416 1.370 . S
C3417 C3421 1.408 . S
C3418 C3416 1.363 . S
C3418 C3419 1.370 . S
C3418 C3422 1.524 . S
C3419 C3411 1.503 . S
C3419 C3418 1.370 . S
C3419 C3420 1.403 . S
C3420 C3419 1.403 . S
C3420 C3421 1.404 . S
C3420 C3423 1.539 . S
C3421 C3417 1.408 . S
C3421 C3420 1.404 . S
C3421 H3433 0.930 . S
C3422 C3418 1.524 . S
C3422 H3434 0.956 . S
C3422 H3435 0.961 . S
C3422 H3436 0.961 . S
C3423 C3420 1.539 . S
C3423 H3437 0.958 1_554 S
C3423 H3438 0.961 1_554 S
C3423 H3439 0.960 . S
H3424 C3408 0.931 . S
H3425 C3413 0.929 . S
H3426 C3414 0.960 . S
H3427 C3414 0.962 . S
H3428 C3414 0.960 . S
H3429 C3415 0.961 . S
H3430 C3415 0.961 . S
H3431 C3415 0.961 . S
H3432 C3416 0.931 . S
H3433 C3421 0.930 . S
H3434 C3422 0.956 . S
H3435 C3422 0.961 . S
H3436 C3422 0.961 . S
H3437 C3423 0.958 1_556 S
H3438 C3423 0.961 1_556 S
H3439 C3423 0.960 . S
C3440 C3441 1.391 . S
C3440 C3442 1.394 . S
C3440 H3456 0.931 . S
C3441 C3440 1.391 . S
C3441 C3445 1.376 . S
C3442 C3440 1.394 . S
C3442 C3443 1.369 . S
C3442 C3446 1.531 . S
C3443 C3442 1.369 . S
C3443 C3444 1.410 . S
C3443 C3451 1.503 . S
C3444 C3443 1.410 . S
C3444 C3445 1.392 . S
C3444 C3447 1.511 . S
C3445 C3441 1.376 . S
C3445 C3444 1.392 . S
C3445 H3457 0.929 . S
C3446 C3442 1.531 . S
C3446 H3458 0.960 . S
C3446 H3459 0.962 . S
C3446 H3460 0.960 . S
C3447 C3444 1.511 . S
C3447 H3461 0.961 . S
C3447 H3462 0.961 . S
C3447 H3463 0.961 . S
C3448 C3449 1.370 . S
C3448 C3450 1.363 . S
C3448 H3464 0.931 . S
C3449 C3448 1.370 . S
C3449 C3453 1.408 . S
C3450 C3448 1.363 . S
C3450 C3451 1.370 . S
C3450 C3454 1.524 . S
C3451 C3443 1.503 . S
C3451 C3450 1.370 . S
C3451 C3452 1.403 . S
C3452 C3451 1.403 . S
C3452 C3453 1.404 . S
C3452 C3455 1.539 . S
C3453 C3449 1.408 . S
C3453 C3452 1.404 . S
C3453 H3465 0.930 . S
C3454 C3450 1.524 . S
C3454 H3466 0.956 . S
C3454 H3467 0.961 . S
C3454 H3468 0.961 . S
C3455 C3452 1.539 . S
C3455 H3469 0.958 . S
C3455 H3470 0.961 . S
C3455 H3471 0.960 . S
H3456 C3440 0.931 . S
H3457 C3445 0.929 . S
H3458 C3446 0.960 . S
H3459 C3446 0.962 . S
H3460 C3446 0.960 . S
H3461 C3447 0.961 . S
H3462 C3447 0.961 . S
H3463 C3447 0.961 . S
H3464 C3448 0.931 . S
H3465 C3453 0.930 . S
H3466 C3454 0.956 . S
H3467 C3454 0.961 . S
H3468 C3454 0.961 . S
H3469 C3455 0.958 . S
H3470 C3455 0.961 . S
H3471 C3455 0.960 . S
C3472 C3473 1.391 1_565 S
C3472 C3474 1.394 . S
C3472 H3488 0.931 . S
C3473 C3472 1.391 1_545 S
C3473 C3477 1.376 . S
C3474 C3472 1.394 . S
C3474 C3475 1.369 1_565 S
C3474 C3478 1.531 . S
C3475 C3474 1.369 1_545 S
C3475 C3476 1.410 . S
C3475 C3483 1.503 . S
C3476 C3475 1.410 . S
C3476 C3477 1.392 . S
C3476 C3479 1.511 . S
C3477 C3473 1.376 . S
C3477 C3476 1.392 . S
C3477 H3489 0.929 . S
C3478 C3474 1.531 . S
C3478 H3490 0.960 . S
C3478 H3491 0.962 . S
C3478 H3492 0.960 . S
C3479 C3476 1.511 . S
C3479 H3493 0.961 . S
C3479 H3494 0.961 . S
C3479 H3495 0.961 . S
C3480 C3481 1.370 . S
C3480 C3482 1.363 . S
C3480 H3496 0.931 . S
C3481 C3480 1.370 . S
C3481 C3485 1.408 1_545 S
C3482 C3480 1.363 . S
C3482 C3483 1.370 . S
C3482 C3486 1.524 . S
C3483 C3475 1.503 . S
C3483 C3482 1.370 . S
C3483 C3484 1.403 1_545 S
C3484 C3483 1.403 1_565 S
C3484 C3485 1.404 . S
C3484 C3487 1.561 . S
C3485 C3481 1.408 1_565 S
C3485 C3484 1.404 . S
C3485 H3497 0.930 1_655 S
C3486 C3482 1.524 . S
C3486 H3498 0.956 . S
C3486 H3499 0.961 . S
C3486 H3500 0.961 . S
C3487 C3484 1.561 . S
C3487 H3501 0.967 . S
C3487 H3502 0.928 1_655 S
C3487 H3503 0.964 . S
H3488 C3472 0.931 . S
H3489 C3477 0.929 . S
H3490 C3478 0.960 . S
H3491 C3478 0.962 . S
H3492 C3478 0.960 . S
H3493 C3479 0.961 . S
H3494 C3479 0.961 . S
H3495 C3479 0.961 . S
H3496 C3480 0.931 . S
H3497 C3485 0.930 1_455 S
H3498 C3486 0.956 . S
H3499 C3486 0.961 . S
H3500 C3486 0.961 . S
H3501 C3487 0.967 . S
H3502 C3487 0.928 1_455 S
H3503 C3487 0.964 . S
C3504 C3505 1.391 . S
C3504 C3506 1.394 . S
C3504 H3520 0.931 . S
C3505 C3504 1.391 . S
C3505 C3509 1.376 . S
C3506 C3504 1.394 . S
C3506 C3507 1.369 . S
C3506 C3510 1.531 . S
C3507 C3506 1.369 . S
C3507 C3508 1.410 . S
C3507 C3515 1.503 . S
C3508 C3507 1.410 . S
C3508 C3509 1.392 . S
C3508 C3511 1.511 . S
C3509 C3505 1.376 . S
C3509 C3508 1.392 . S
C3509 H3521 0.929 . S
C3510 C3506 1.531 . S
C3510 H3522 0.960 . S
C3510 H3523 0.962 . S
C3510 H3524 0.960 . S
C3511 C3508 1.511 . S
C3511 H3525 0.961 . S
C3511 H3526 0.961 . S
C3511 H3527 0.961 . S
C3512 C3513 1.370 . S
C3512 C3514 1.363 . S
C3512 H3528 0.931 . S
C3513 C3512 1.370 . S
C3513 C3517 1.408 . S
C3514 C3512 1.363 . S
C3514 C3515 1.370 . S
C3514 C3518 1.524 . S
C3515 C3507 1.503 . S
C3515 C3514 1.370 . S
C3515 C3516 1.403 . S
C3516 C3515 1.403 . S
C3516 C3517 1.404 . S
C3516 C3519 1.539 . S
C3517 C3513 1.408 . S
C3517 C3516 1.404 . S
C3517 H3529 0.930 . S
C3518 C3514 1.524 . S
C3518 H3530 0.956 . S
C3518 H3531 0.961 . S
C3518 H3532 0.961 . S
C3519 C3516 1.539 . S
C3519 H3533 0.958 . S
C3519 H3534 0.961 . S
C3519 H3535 0.960 . S
H3520 C3504 0.931 . S
H3521 C3509 0.929 . S
H3522 C3510 0.960 . S
H3523 C3510 0.962 . S
H3524 C3510 0.960 . S
H3525 C3511 0.961 . S
H3526 C3511 0.961 . S
H3527 C3511 0.961 . S
H3528 C3512 0.931 . S
H3529 C3517 0.930 . S
H3530 C3518 0.956 . S
H3531 C3518 0.961 . S
H3532 C3518 0.961 . S
H3533 C3519 0.958 . S
H3534 C3519 0.961 . S
H3535 C3519 0.960 . S
C3536 C3537 1.391 1_565 S
C3536 C3538 1.394 . S
C3536 H3552 0.931 . S
C3537 C3536 1.391 1_545 S
C3537 C3541 1.376 . S
C3538 C3536 1.394 . S
C3538 C3539 1.394 . S
C3538 C3542 1.531 . S
C3539 C3538 1.394 . S
C3539 C3540 1.381 1_565 S
C3539 C3547 1.503 . S
C3540 C3539 1.381 1_545 S
C3540 C3541 1.392 . S
C3540 C3543 1.511 . S
C3541 C3537 1.376 . S
C3541 C3540 1.392 . S
C3541 H3553 0.929 . S
C3542 C3538 1.531 . S
C3542 H3554 0.960 . S
C3542 H3555 0.962 . S
C3542 H3556 0.960 . S
C3543 C3540 1.511 . S
C3543 H3557 0.961 . S
C3543 H3558 0.961 . S
C3543 H3559 0.961 . S
C3544 C3545 1.350 1_545 S
C3544 C3546 1.363 . S
C3544 H3560 0.931 . S
C3545 C3544 1.350 1_565 S
C3545 C3549 1.430 . S
C3546 C3544 1.363 . S
C3546 C3547 1.340 1_545 S
C3546 C3550 1.524 . S
C3547 C3539 1.503 . S
C3547 C3546 1.340 1_565 S
C3547 C3548 1.435 . S
C3548 C3547 1.435 . S
C3548 C3549 1.404 . S
C3548 C3551 1.539 . S
C3549 C3545 1.430 . S
C3549 C3548 1.404 . S
C3549 H3561 0.930 . S
C3550 C3546 1.524 . S
C3550 H3562 0.956 . S
C3550 H3563 0.961 . S
C3550 H3564 0.961 . S
C3551 C3548 1.539 . S
C3551 H3565 0.958 . S
C3551 H3566 0.961 . S
C3551 H3567 0.960 . S
H3552 C3536 0.931 . S
H3553 C3541 0.929 . S
H3554 C3542 0.960 . S
H3555 C3542 0.962 . S
H3556 C3542 0.960 . S
H3557 C3543 0.961 . S
H3558 C3543 0.961 . S
H3559 C3543 0.961 . S
H3560 C3544 0.931 . S
H3561 C3549 0.930 . S
H3562 C3550 0.956 . S
H3563 C3550 0.961 . S
H3564 C3550 0.961 . S
H3565 C3551 0.958 . S
H3566 C3551 0.961 . S
H3567 C3551 0.960 . S
C3568 C3569 1.391 . S
C3568 C3570 1.394 . S
C3568 H3584 0.931 . S
C3569 C3568 1.391 . S
C3569 C3573 1.376 . S
C3570 C3568 1.394 . S
C3570 C3571 1.369 . S
C3570 C3574 1.531 . S
C3571 C3570 1.369 . S
C3571 C3572 1.410 . S
C3571 C3579 1.503 . S
C3572 C3571 1.410 . S
C3572 C3573 1.392 . S
C3572 C3575 1.511 . S
C3573 C3569 1.376 . S
C3573 C3572 1.392 . S
C3573 H3585 0.929 . S
C3574 C3570 1.531 . S
C3574 H3586 0.960 . S
C3574 H3587 0.962 . S
C3574 H3588 0.960 . S
C3575 C3572 1.511 . S
C3575 H3589 0.961 . S
C3575 H3590 0.961 . S
C3575 H3591 0.961 . S
C3576 C3577 1.370 . S
C3576 C3578 1.363 . S
C3576 H3592 0.931 . S
C3577 C3576 1.370 . S
C3577 C3581 1.408 . S
C3578 C3576 1.363 . S
C3578 C3579 1.370 . S
C3578 C3582 1.524 . S
C3579 C3571 1.503 . S
C3579 C3578 1.370 . S
C3579 C3580 1.403 . S
C3580 C3579 1.403 . S
C3580 C3581 1.404 . S
C3580 C3583 1.539 . S
C3581 C3577 1.408 . S
C3581 C3580 1.404 . S
C3581 H3593 0.930 . S
C3582 C3578 1.524 . S
C3582 H3594 0.956 . S
C3582 H3595 0.961 . S
C3582 H3596 0.961 . S
C3583 C3580 1.539 . S
C3583 H3597 0.958 . S
C3583 H3598 0.961 . S
C3583 H3599 0.960 . S
H3584 C3568 0.931 . S
H3585 C3573 0.929 . S
H3586 C3574 0.960 . S
H3587 C3574 0.962 . S
H3588 C3574 0.960 . S
H3589 C3575 0.961 . S
H3590 C3575 0.961 . S
H3591 C3575 0.961 . S
H3592 C3576 0.931 . S
H3593 C3581 0.930 . S
H3594 C3582 0.956 . S
H3595 C3582 0.961 . S
H3596 C3582 0.961 . S
H3597 C3583 0.958 . S
H3598 C3583 0.961 . S
H3599 C3583 0.960 . S
C3600 C3601 1.412 . S
C3600 C3602 1.394 . S
C3600 H3616 0.931 . S
C3601 C3600 1.412 . S
C3601 C3605 1.359 1_565 S
C3602 C3600 1.394 . S
C3602 C3603 1.369 . S
C3602 C3606 1.531 . S
C3603 C3602 1.369 . S
C3603 C3604 1.410 1_565 S
C3603 C3611 1.503 . S
C3604 C3603 1.410 1_545 S
C3604 C3605 1.392 . S
C3604 C3607 1.511 . S
C3605 C3601 1.359 1_545 S
C3605 C3604 1.392 . S
C3605 H3617 0.929 . S
C3606 C3602 1.531 . S
C3606 H3618 0.960 . S
C3606 H3619 0.962 . S
C3606 H3620 0.960 . S
C3607 C3604 1.511 . S
C3607 H3621 0.961 . S
C3607 H3622 0.961 . S
C3607 H3623 0.961 . S
C3608 C3609 1.370 1_545 S
C3608 C3610 1.363 . S
C3608 H3624 0.931 . S
C3609 C3608 1.370 1_565 S
C3609 C3613 1.408 . S
C3610 C3608 1.363 . S
C3610 C3611 1.370 1_545 S
C3610 C3614 1.524 . S
C3611 C3603 1.503 . S
C3611 C3610 1.370 1_565 S
C3611 C3612 1.403 . S
C3612 C3611 1.403 . S
C3612 C3613 1.404 . S
C3612 C3615 1.539 . S
C3613 C3609 1.408 . S
C3613 C3612 1.404 . S
C3613 H3625 0.930 . S
C3614 C3610 1.524 . S
C3614 H3626 0.956 . S
C3614 H3627 0.961 . S
C3614 H3628 0.963 . S
C3615 C3612 1.539 . S
C3615 H3629 0.958 . S
C3615 H3630 0.961 . S
C3615 H3631 0.960 . S
H3616 C3600 0.931 . S
H3617 C3605 0.929 . S
H3618 C3606 0.960 . S
H3619 C3606 0.962 . S
H3620 C3606 0.960 . S
H3621 C3607 0.961 . S
H3622 C3607 0.961 . S
H3623 C3607 0.961 . S
H3624 C3608 0.931 . S
H3625 C3613 0.930 . S
H3626 C3614 0.956 . S
H3627 C3614 0.961 . S
H3628 C3614 0.963 . S
H3629 C3615 0.958 . S
H3630 C3615 0.961 . S
H3631 C3615 0.960 . S
C3632 C3633 1.391 . S
C3632 C3634 1.394 . S
C3632 H3648 0.931 . S
C3633 C3632 1.391 . S
C3633 C3637 1.376 . S
C3634 C3632 1.394 . S
C3634 C3635 1.369 . S
C3634 C3638 1.531 . S
C3635 C3634 1.369 . S
C3635 C3636 1.410 . S
C3635 C3643 1.503 . S
C3636 C3635 1.410 . S
C3636 C3637 1.392 . S
C3636 C3639 1.511 . S
C3637 C3633 1.376 . S
C3637 C3636 1.392 . S
C3637 H3649 0.929 . S
C3638 C3634 1.531 . S
C3638 H3650 0.960 . S
C3638 H3651 0.962 . S
C3638 H3652 0.960 . S
C3639 C3636 1.511 . S
C3639 H3653 0.961 . S
C3639 H3654 0.961 . S
C3639 H3655 0.961 . S
C3640 C3641 1.370 . S
C3640 C3642 1.363 . S
C3640 H3656 0.931 . S
C3641 C3640 1.370 . S
C3641 C3645 1.408 . S
C3642 C3640 1.363 . S
C3642 C3643 1.370 . S
C3642 C3646 1.524 . S
C3643 C3635 1.503 . S
C3643 C3642 1.370 . S
C3643 C3644 1.403 . S
C3644 C3643 1.403 . S
C3644 C3645 1.404 . S
C3644 C3647 1.539 . S
C3645 C3641 1.408 . S
C3645 C3644 1.404 . S
C3645 H3657 0.930 . S
C3646 C3642 1.524 . S
C3646 H3658 0.956 . S
C3646 H3659 0.961 . S
C3646 H3660 0.961 . S
C3647 C3644 1.539 . S
C3647 H3661 0.958 . S
C3647 H3662 0.961 . S
C3647 H3663 0.960 . S
H3648 C3632 0.931 . S
H3649 C3637 0.929 . S
H3650 C3638 0.960 . S
H3651 C3638 0.962 . S
H3652 C3638 0.960 . S
H3653 C3639 0.961 . S
H3654 C3639 0.961 . S
H3655 C3639 0.961 . S
H3656 C3640 0.931 . S
H3657 C3645 0.930 . S
H3658 C3646 0.956 . S
H3659 C3646 0.961 . S
H3660 C3646 0.961 . S
H3661 C3647 0.958 . S
H3662 C3647 0.961 . S
H3663 C3647 0.960 . S
C3664 C3665 1.391 . S
C3664 C3666 1.394 . S
C3664 H3680 0.931 . S
C3665 C3664 1.391 . S
C3665 C3669 1.376 . S
C3666 C3664 1.394 . S
C3666 C3667 1.369 . S
C3666 C3670 1.531 . S
C3667 C3666 1.369 . S
C3667 C3668 1.410 . S
C3667 C3675 1.503 . S
C3668 C3667 1.410 . S
C3668 C3669 1.392 . S
C3668 C3671 1.511 . S
C3669 C3665 1.376 . S
C3669 C3668 1.392 . S
C3669 H3681 0.929 1_545 S
C3670 C3666 1.531 . S
C3670 H3682 0.960 . S
C3670 H3683 0.962 . S
C3670 H3684 0.960 . S
C3671 C3668 1.511 . S
C3671 H3685 0.961 1_545 S
C3671 H3686 0.961 1_545 S
C3671 H3687 0.961 . S
C3672 C3673 1.370 1_565 S
C3672 C3674 1.363 . S
C3672 H3688 0.931 . S
C3673 C3672 1.370 1_545 S
C3673 C3677 1.408 . S
C3674 C3672 1.363 . S
C3674 C3675 1.370 1_565 S
C3674 C3678 1.524 . S
C3675 C3667 1.503 . S
C3675 C3674 1.370 1_545 S
C3675 C3676 1.403 . S
C3676 C3675 1.403 . S
C3676 C3677 1.404 . S
C3676 C3679 1.539 . S
C3677 C3673 1.408 . S
C3677 C3676 1.404 . S
C3677 H3689 0.930 . S
C3678 C3674 1.524 . S
C3678 H3690 0.956 . S
C3678 H3691 0.961 . S
C3678 H3692 0.961 . S
C3679 C3676 1.539 . S
C3679 H3693 0.958 . S
C3679 H3694 0.961 . S
C3679 H3695 0.960 . S
H3680 C3664 0.931 . S
H3681 C3669 0.929 1_565 S
H3682 C3670 0.960 . S
H3683 C3670 0.962 . S
H3684 C3670 0.960 . S
H3685 C3671 0.961 1_565 S
H3686 C3671 0.961 1_565 S
H3687 C3671 0.961 . S
H3688 C3672 0.931 . S
H3689 C3677 0.930 . S
H3690 C3678 0.956 . S
H3691 C3678 0.961 . S
H3692 C3678 0.961 . S
H3693 C3679 0.958 . S
H3694 C3679 0.961 . S
H3695 C3679 0.960 . S
C3696 C3697 1.391 . S
C3696 C3698 1.394 . S
C3696 H3712 0.931 . S
C3697 C3696 1.391 . S
C3697 C3701 1.376 . S
C3698 C3696 1.394 . S
C3698 C3699 1.369 . S
C3698 C3702 1.531 . S
C3699 C3698 1.369 . S
C3699 C3700 1.410 . S
C3699 C3707 1.503 . S
C3700 C3699 1.410 . S
C3700 C3701 1.392 . S
C3700 C3703 1.511 . S
C3701 C3697 1.376 . S
C3701 C3700 1.392 . S
C3701 H3713 0.929 . S
C3702 C3698 1.531 . S
C3702 H3714 0.960 . S
C3702 H3715 0.962 . S
C3702 H3716 0.960 . S
C3703 C3700 1.511 . S
C3703 H3717 0.961 . S
C3703 H3718 0.961 . S
C3703 H3719 0.961 . S
C3704 C3705 1.370 . S
C3704 C3706 1.363 . S
C3704 H3720 0.931 . S
C3705 C3704 1.370 . S
C3705 C3709 1.408 . S
C3706 C3704 1.363 . S
C3706 C3707 1.370 . S
C3706 C3710 1.524 . S
C3707 C3699 1.503 . S
C3707 C3706 1.370 . S
C3707 C3708 1.403 . S
C3708 C3707 1.403 . S
C3708 C3709 1.404 . S
C3708 C3711 1.539 . S
C3709 C3705 1.408 . S
C3709 C3708 1.404 . S
C3709 H3721 0.930 . S
C3710 C3706 1.524 . S
C3710 H3722 0.956 . S
C3710 H3723 0.961 . S
C3710 H3724 0.961 . S
C3711 C3708 1.539 . S
C3711 H3725 0.958 . S
C3711 H3726 0.961 . S
C3711 H3727 0.960 . S
H3712 C3696 0.931 . S
H3713 C3701 0.929 . S
H3714 C3702 0.960 . S
H3715 C3702 0.962 . S
H3716 C3702 0.960 . S
H3717 C3703 0.961 . S
H3718 C3703 0.961 . S
H3719 C3703 0.961 . S
H3720 C3704 0.931 . S
H3721 C3709 0.930 . S
H3722 C3710 0.956 . S
H3723 C3710 0.961 . S
H3724 C3710 0.961 . S
H3725 C3711 0.958 . S
H3726 C3711 0.961 . S
H3727 C3711 0.960 . S
C3728 C3729 1.391 . S
C3728 C3730 1.394 . S
C3728 H3744 0.931 . S
C3729 C3728 1.391 . S
C3729 C3733 1.376 1_554 S
C3730 C3728 1.394 . S
C3730 C3731 1.369 . S
C3730 C3734 1.531 . S
C3731 C3730 1.369 . S
C3731 C3732 1.410 1_554 S
C3731 C3739 1.503 . S
C3732 C3731 1.410 1_556 S
C3732 C3733 1.392 . S
C3732 C3735 1.511 . S
C3733 C3729 1.376 1_556 S
C3733 C3732 1.392 . S
C3733 H3745 0.929 . S
C3734 C3730 1.531 . S
C3734 H3746 0.960 . S
C3734 H3747 0.962 . S
C3734 H3748 0.960 . S
C3735 C3732 1.511 . S
C3735 H3749 0.961 . S
C3735 H3750 0.961 . S
C3735 H3751 0.961 . S
C3736 C3737 1.370 . S
C3736 C3738 1.363 . S
C3736 H3752 0.931 1_565 S
C3737 C3736 1.370 . S
C3737 C3741 1.408 . S
C3738 C3736 1.363 . S
C3738 C3739 1.370 . S
C3738 C3742 1.538 . S
C3739 C3731 1.503 . S
C3739 C3738 1.370 . S
C3739 C3740 1.403 . S
C3740 C3739 1.403 . S
C3740 C3741 1.404 . S
C3740 C3743 1.539 . S
C3741 C3737 1.408 . S
C3741 C3740 1.404 . S
C3741 H3753 0.930 . S
C3742 C3738 1.538 . S
C3742 H3754 0.990 . S
C3742 H3755 0.928 1_554 S
C3742 H3756 0.947 1_564 S
C3743 C3740 1.539 . S
C3743 H3757 0.958 . S
C3743 H3758 0.961 . S
C3743 H3759 0.960 . S
H3744 C3728 0.931 . S
H3745 C3733 0.929 . S
H3746 C3734 0.960 . S
H3747 C3734 0.962 . S
H3748 C3734 0.960 . S
H3749 C3735 0.961 . S
H3750 C3735 0.961 . S
H3751 C3735 0.961 . S
H3752 C3736 0.931 1_545 S
H3753 C3741 0.930 . S
H3754 C3742 0.990 . S
H3755 C3742 0.928 1_556 S
H3756 C3742 0.947 1_546 S
H3757 C3743 0.958 . S
H3758 C3743 0.961 . S
H3759 C3743 0.960 . S
C3760 C3761 1.391 1_556 S
C3760 C3762 1.394 . S
C3760 H3776 0.931 . S
C3761 C3760 1.391 1_554 S
C3761 C3765 1.376 . S
C3762 C3760 1.394 . S
C3762 C3763 1.369 1_556 S
C3762 C3766 1.531 . S
C3763 C3762 1.369 1_554 S
C3763 C3764 1.410 . S
C3763 C3771 1.507 . S
C3764 C3763 1.410 . S
C3764 C3765 1.392 . S
C3764 C3767 1.511 . S
C3765 C3761 1.376 . S
C3765 C3764 1.392 . S
C3765 H3777 0.929 . S
C3766 C3762 1.531 . S
C3766 H3778 0.960 . S
C3766 H3779 0.962 . S
C3766 H3780 0.960 . S
C3767 C3764 1.511 . S
C3767 H3781 0.961 . S
C3767 H3782 0.961 . S
C3767 H3783 0.961 . S
C3768 C3769 1.370 . S
C3768 C3770 1.363 . S
C3768 H3784 0.931 . S
C3769 C3768 1.370 . S
C3769 C3773 1.408 1_556 S
C3770 C3768 1.363 . S
C3770 C3771 1.349 1_556 S
C3770 C3774 1.524 . S
C3771 C3763 1.507 . S
C3771 C3770 1.349 1_554 S
C3771 C3772 1.422 . S
C3772 C3771 1.422 . S
C3772 C3773 1.404 . S
C3772 C3775 1.539 . S
C3773 C3769 1.408 1_554 S
C3773 C3772 1.404 . S
C3773 H3785 0.930 . S
C3774 C3770 1.524 . S
C3774 H3786 0.956 . S
C3774 H3787 0.961 . S
C3774 H3788 0.961 . S
C3775 C3772 1.539 . S
C3775 H3789 0.958 . S
C3775 H3790 0.961 . S
C3775 H3791 0.960 . S
H3776 C3760 0.931 . S
H3777 C3765 0.929 . S
H3778 C3766 0.960 . S
H3779 C3766 0.962 . S
H3780 C3766 0.960 . S
H3781 C3767 0.961 . S
H3782 C3767 0.961 . S
H3783 C3767 0.961 . S
H3784 C3768 0.931 . S
H3785 C3773 0.930 . S
H3786 C3774 0.956 . S
H3787 C3774 0.961 . S
H3788 C3774 0.961 . S
H3789 C3775 0.958 . S
H3790 C3775 0.961 . S
H3791 C3775 0.960 . S
C3792 C3793 1.391 . S
C3792 C3794 1.394 . S
C3792 H3808 0.931 . S
C3793 C3792 1.391 . S
C3793 C3797 1.376 . S
C3794 C3792 1.394 . S
C3794 C3795 1.369 . S
C3794 C3798 1.531 . S
C3795 C3794 1.369 . S
C3795 C3796 1.410 . S
C3795 C3803 1.503 . S
C3796 C3795 1.410 . S
C3796 C3797 1.392 . S
C3796 C3799 1.511 . S
C3797 C3793 1.376 . S
C3797 C3796 1.392 . S
C3797 H3809 0.929 . S
C3798 C3794 1.531 . S
C3798 H3810 0.960 . S
C3798 H3811 0.962 . S
C3798 H3812 0.960 . S
C3799 C3796 1.511 . S
C3799 H3813 0.961 . S
C3799 H3814 0.961 . S
C3799 H3815 0.961 . S
C3800 C3801 1.370 . S
C3800 C3802 1.363 . S
C3800 H3816 0.931 . S
C3801 C3800 1.370 . S
C3801 C3805 1.408 . S
C3802 C3800 1.363 . S
C3802 C3803 1.370 . S
C3802 C3806 1.524 . S
C3803 C3795 1.503 . S
C3803 C3802 1.370 . S
C3803 C3804 1.403 . S
C3804 C3803 1.403 . S
C3804 C3805 1.404 . S
C3804 C3807 1.539 . S
C3805 C3801 1.408 . S
C3805 C3804 1.404 . S
C3805 H3817 0.930 . S
C3806 C3802 1.524 . S
C3806 H3818 0.956 . S
C3806 H3819 0.961 . S
C3806 H3820 0.961 . S
C3807 C3804 1.539 . S
C3807 H3821 0.958 . S
C3807 H3822 0.961 . S
C3807 H3823 0.960 . S
H3808 C3792 0.931 . S
H3809 C3797 0.929 . S
H3810 C3798 0.960 . S
H3811 C3798 0.962 . S
H3812 C3798 0.960 . S
H3813 C3799 0.961 . S
H3814 C3799 0.961 . S
H3815 C3799 0.961 . S
H3816 C3800 0.931 . S
H3817 C3805 0.930 . S
H3818 C3806 0.956 . S
H3819 C3806 0.961 . S
H3820 C3806 0.961 . S
H3821 C3807 0.958 . S
H3822 C3807 0.961 . S
H3823 C3807 0.960 . S
C3824 C3825 1.391 . S
C3824 C3826 1.394 . S
C3824 H3840 0.931 . S
C3825 C3824 1.391 . S
C3825 C3829 1.376 . S
C3826 C3824 1.394 . S
C3826 C3827 1.369 . S
C3826 C3830 1.531 . S
C3827 C3826 1.369 . S
C3827 C3828 1.410 . S
C3827 C3835 1.503 . S
C3828 C3827 1.410 . S
C3828 C3829 1.392 . S
C3828 C3831 1.511 . S
C3829 C3825 1.376 . S
C3829 C3828 1.392 . S
C3829 H3841 0.929 . S
C3830 C3826 1.531 . S
C3830 H3842 0.960 . S
C3830 H3843 0.962 . S
C3830 H3844 0.960 . S
C3831 C3828 1.511 . S
C3831 H3845 0.961 . S
C3831 H3846 0.961 . S
C3831 H3847 0.961 . S
C3832 C3833 1.370 . S
C3832 C3834 1.363 . S
C3832 H3848 0.931 . S
C3833 C3832 1.370 . S
C3833 C3837 1.408 . S
C3834 C3832 1.363 . S
C3834 C3835 1.370 . S
C3834 C3838 1.524 . S
C3835 C3827 1.503 . S
C3835 C3834 1.370 . S
C3835 C3836 1.403 . S
C3836 C3835 1.403 . S
C3836 C3837 1.404 . S
C3836 C3839 1.539 . S
C3837 C3833 1.408 . S
C3837 C3836 1.404 . S
C3837 H3849 0.930 . S
C3838 C3834 1.524 . S
C3838 H3850 0.956 . S
C3838 H3851 0.961 . S
C3838 H3852 0.961 . S
C3839 C3836 1.539 . S
C3839 H3853 0.958 . S
C3839 H3854 0.961 . S
C3839 H3855 0.960 . S
H3840 C3824 0.931 . S
H3841 C3829 0.929 . S
H3842 C3830 0.960 . S
H3843 C3830 0.962 . S
H3844 C3830 0.960 . S
H3845 C3831 0.961 . S
H3846 C3831 0.961 . S
H3847 C3831 0.961 . S
H3848 C3832 0.931 . S
H3849 C3837 0.930 . S
H3850 C3838 0.956 . S
H3851 C3838 0.961 . S
H3852 C3838 0.961 . S
H3853 C3839 0.958 . S
H3854 C3839 0.961 . S
H3855 C3839 0.960 . S
C3856 C3857 1.391 . S
C3856 C3858 1.394 . S
C3856 H3872 0.931 . S
C3857 C3856 1.391 . S
C3857 C3861 1.376 . S
C3858 C3856 1.394 . S
C3858 C3859 1.369 . S
C3858 C3862 1.531 . S
C3859 C3858 1.369 . S
C3859 C3860 1.410 . S
C3859 C3867 1.503 . S
C3860 C3859 1.410 . S
C3860 C3861 1.392 . S
C3860 C3863 1.511 . S
C3861 C3857 1.376 . S
C3861 C3860 1.392 . S
C3861 H3873 0.929 . S
C3862 C3858 1.531 . S
C3862 H3874 0.960 . S
C3862 H3875 0.962 . S
C3862 H3876 0.960 . S
C3863 C3860 1.511 . S
C3863 H3877 0.961 . S
C3863 H3878 0.961 . S
C3863 H3879 0.961 . S
C3864 C3865 1.370 . S
C3864 C3866 1.363 . S
C3864 H3880 0.931 . S
C3865 C3864 1.370 . S
C3865 C3869 1.408 . S
C3866 C3864 1.363 . S
C3866 C3867 1.370 . S
C3866 C3870 1.524 . S
C3867 C3859 1.503 . S
C3867 C3866 1.370 . S
C3867 C3868 1.403 . S
C3868 C3867 1.403 . S
C3868 C3869 1.404 . S
C3868 C3871 1.539 . S
C3869 C3865 1.408 . S
C3869 C3868 1.404 . S
C3869 H3881 0.930 . S
C3870 C3866 1.524 . S
C3870 H3882 0.956 . S
C3870 H3883 0.961 . S
C3870 H3884 0.961 . S
C3871 C3868 1.539 . S
C3871 H3885 0.958 . S
C3871 H3886 0.961 . S
C3871 H3887 0.960 . S
H3872 C3856 0.931 . S
H3873 C3861 0.929 . S
H3874 C3862 0.960 . S
H3875 C3862 0.962 . S
H3876 C3862 0.960 . S
H3877 C3863 0.961 . S
H3878 C3863 0.961 . S
H3879 C3863 0.961 . S
H3880 C3864 0.931 . S
H3881 C3869 0.930 . S
H3882 C3870 0.956 . S
H3883 C3870 0.961 . S
H3884 C3870 0.961 . S
H3885 C3871 0.958 . S
H3886 C3871 0.961 . S
H3887 C3871 0.960 . S
C3888 C3889 1.391 . S
C3888 C3890 1.394 . S
C3888 H3904 0.931 . S
C3889 C3888 1.391 . S
C3889 C3893 1.376 . S
C3890 C3888 1.394 . S
C3890 C3891 1.369 . S
C3890 C3894 1.531 . S
C3891 C3890 1.369 . S
C3891 C3892 1.410 . S
C3891 C3899 1.503 . S
C3892 C3891 1.410 . S
C3892 C3893 1.392 . S
C3892 C3895 1.511 . S
C3893 C3889 1.376 . S
C3893 C3892 1.392 . S
C3893 H3905 0.929 . S
C3894 C3890 1.531 . S
C3894 H3906 0.960 . S
C3894 H3907 0.962 . S
C3894 H3908 0.960 . S
C3895 C3892 1.511 . S
C3895 H3909 0.961 . S
C3895 H3910 0.961 . S
C3895 H3911 0.961 . S
C3896 C3897 1.370 . S
C3896 C3898 1.363 . S
C3896 H3912 0.931 . S
C3897 C3896 1.370 . S
C3897 C3901 1.408 . S
C3898 C3896 1.363 . S
C3898 C3899 1.370 . S
C3898 C3902 1.524 . S
C3899 C3891 1.503 . S
C3899 C3898 1.370 . S
C3899 C3900 1.403 . S
C3900 C3899 1.403 . S
C3900 C3901 1.404 . S
C3900 C3903 1.539 . S
C3901 C3897 1.408 . S
C3901 C3900 1.404 . S
C3901 H3913 0.930 . S
C3902 C3898 1.524 . S
C3902 H3914 0.956 . S
C3902 H3915 0.961 . S
C3902 H3916 0.961 . S
C3903 C3900 1.539 . S
C3903 H3917 0.958 . S
C3903 H3918 0.961 . S
C3903 H3919 0.960 . S
H3904 C3888 0.931 . S
H3905 C3893 0.929 . S
H3906 C3894 0.960 . S
H3907 C3894 0.962 . S
H3908 C3894 0.960 . S
H3909 C3895 0.961 . S
H3910 C3895 0.961 . S
H3911 C3895 0.961 . S
H3912 C3896 0.931 . S
H3913 C3901 0.930 . S
H3914 C3902 0.956 . S
H3915 C3902 0.961 . S
H3916 C3902 0.961 . S
H3917 C3903 0.958 . S
H3918 C3903 0.961 . S
H3919 C3903 0.960 . S
C3920 C3921 1.391 . S
C3920 C3922 1.394 . S
C3920 H3936 0.931 . S
C3921 C3920 1.391 . S
C3921 C3925 1.376 . S
C3922 C3920 1.394 . S
C3922 C3923 1.369 . S
C3922 C3926 1.531 . S
C3923 C3922 1.369 . S
C3923 C3924 1.410 . S
C3923 C3931 1.503 . S
C3924 C3923 1.410 . S
C3924 C3925 1.392 . S
C3924 C3927 1.511 . S
C3925 C3921 1.376 . S
C3925 C3924 1.392 . S
C3925 H3937 0.929 . S
C3926 C3922 1.531 . S
C3926 H3938 0.960 . S
C3926 H3939 0.962 . S
C3926 H3940 0.960 . S
C3927 C3924 1.511 . S
C3927 H3941 0.961 . S
C3927 H3942 0.961 . S
C3927 H3943 0.961 . S
C3928 C3929 1.370 . S
C3928 C3930 1.363 . S
C3928 H3944 0.931 . S
C3929 C3928 1.370 . S
C3929 C3933 1.408 . S
C3930 C3928 1.363 . S
C3930 C3931 1.370 . S
C3930 C3934 1.524 . S
C3931 C3923 1.503 . S
C3931 C3930 1.370 . S
C3931 C3932 1.403 . S
C3932 C3931 1.403 . S
C3932 C3933 1.404 . S
C3932 C3935 1.539 . S
C3933 C3929 1.408 . S
C3933 C3932 1.404 . S
C3933 H3945 0.930 . S
C3934 C3930 1.524 . S
C3934 H3946 0.956 . S
C3934 H3947 0.961 . S
C3934 H3948 0.961 . S
C3935 C3932 1.539 . S
C3935 H3949 0.958 . S
C3935 H3950 0.961 . S
C3935 H3951 0.960 . S
H3936 C3920 0.931 . S
H3937 C3925 0.929 . S
H3938 C3926 0.960 . S
H3939 C3926 0.962 . S
H3940 C3926 0.960 . S
H3941 C3927 0.961 . S
H3942 C3927 0.961 . S
H3943 C3927 0.961 . S
H3944 C3928 0.931 . S
H3945 C3933 0.930 . S
H3946 C3934 0.956 . S
H3947 C3934 0.961 . S
H3948 C3934 0.961 . S
H3949 C3935 0.958 . S
H3950 C3935 0.961 . S
H3951 C3935 0.960 . S
C3952 C3953 1.391 . S
C3952 C3954 1.394 . S
C3952 H3968 0.931 . S
C3953 C3952 1.391 . S
C3953 C3957 1.376 . S
C3954 C3952 1.394 . S
C3954 C3955 1.369 . S
C3954 C3958 1.531 . S
C3955 C3954 1.369 . S
C3955 C3956 1.410 . S
C3955 C3963 1.503 . S
C3956 C3955 1.410 . S
C3956 C3957 1.392 . S
C3956 C3959 1.511 . S
C3957 C3953 1.376 . S
C3957 C3956 1.392 . S
C3957 H3969 0.929 . S
C3958 C3954 1.531 . S
C3958 H3970 0.960 . S
C3958 H3971 0.962 . S
C3958 H3972 0.960 . S
C3959 C3956 1.511 . S
C3959 H3973 0.961 . S
C3959 H3974 0.961 . S
C3959 H3975 0.961 . S
C3960 C3961 1.370 . S
C3960 C3962 1.363 . S
C3960 H3976 0.931 . S
C3961 C3960 1.370 . S
C3961 C3965 1.408 . S
C3962 C3960 1.363 . S
C3962 C3963 1.370 . S
C3962 C3966 1.524 . S
C3963 C3955 1.503 . S
C3963 C3962 1.370 . S
C3963 C3964 1.403 . S
C3964 C3963 1.403 . S
C3964 C3965 1.404 . S
C3964 C3967 1.539 . S
C3965 C3961 1.408 . S
C3965 C3964 1.404 . S
C3965 H3977 0.930 . S
C3966 C3962 1.524 . S
C3966 H3978 0.956 . S
C3966 H3979 0.961 . S
C3966 H3980 0.961 . S
C3967 C3964 1.539 . S
C3967 H3981 0.958 . S
C3967 H3982 0.961 . S
C3967 H3983 0.960 . S
H3968 C3952 0.931 . S
H3969 C3957 0.929 . S
H3970 C3958 0.960 . S
H3971 C3958 0.962 . S
H3972 C3958 0.960 . S
H3973 C3959 0.961 . S
H3974 C3959 0.961 . S
H3975 C3959 0.961 . S
H3976 C3960 0.931 . S
H3977 C3965 0.930 . S
H3978 C3966 0.956 . S
H3979 C3966 0.961 . S
H3980 C3966 0.961 . S
H3981 C3967 0.958 . S
H3982 C3967 0.961 . S
H3983 C3967 0.960 . S
C3984 C3985 1.391 . S
C3984 C3986 1.394 . S
C3984 H4000 0.931 . S
C3985 C3984 1.391 . S
C3985 C3989 1.376 . S
C3986 C3984 1.394 . S
C3986 C3987 1.369 . S
C3986 C3990 1.531 . S
C3987 C3986 1.369 . S
C3987 C3988 1.410 . S
C3987 C3995 1.503 . S
C3988 C3987 1.410 . S
C3988 C3989 1.392 . S
C3988 C3991 1.511 . S
C3989 C3985 1.376 . S
C3989 C3988 1.392 . S
C3989 H4001 0.929 . S
C3990 C3986 1.531 . S
C3990 H4002 0.960 . S
C3990 H4003 0.962 . S
C3990 H4004 0.960 . S
C3991 C3988 1.511 . S
C3991 H4005 0.961 . S
C3991 H4006 0.961 . S
C3991 H4007 0.961 . S
C3992 C3993 1.370 . S
C3992 C3994 1.363 . S
C3992 H4008 0.931 . S
C3993 C3992 1.370 . S
C3993 C3997 1.408 . S
C3994 C3992 1.363 . S
C3994 C3995 1.370 . S
C3994 C3998 1.524 . S
C3995 C3987 1.503 . S
C3995 C3994 1.370 . S
C3995 C3996 1.403 . S
C3996 C3995 1.403 . S
C3996 C3997 1.404 . S
C3996 C3999 1.539 . S
C3997 C3993 1.408 . S
C3997 C3996 1.404 . S
C3997 H4009 0.930 . S
C3998 C3994 1.524 . S
C3998 H4010 0.956 . S
C3998 H4011 0.961 . S
C3998 H4012 0.961 . S
C3999 C3996 1.539 . S
C3999 H4013 0.958 . S
C3999 H4014 0.961 . S
C3999 H4015 0.960 . S
H4000 C3984 0.931 . S
H4001 C3989 0.929 . S
H4002 C3990 0.960 . S
H4003 C3990 0.962 . S
H4004 C3990 0.960 . S
H4005 C3991 0.961 . S
H4006 C3991 0.961 . S
H4007 C3991 0.961 . S
H4008 C3992 0.931 . S
H4009 C3997 0.930 . S
H4010 C3998 0.956 . S
H4011 C3998 0.961 . S
H4012 C3998 0.961 . S
H4013 C3999 0.958 . S
H4014 C3999 0.961 . S
H4015 C3999 0.960 . S
C4016 C4017 1.391 . S
C4016 C4018 1.394 . S
C4016 H4032 0.931 . S
C4017 C4016 1.391 . S
C4017 C4021 1.376 . S
C4018 C4016 1.394 . S
C4018 C4019 1.369 . S
C4018 C4022 1.531 . S
C4019 C4018 1.369 . S
C4019 C4020 1.410 . S
C4019 C4027 1.503 . S
C4020 C4019 1.410 . S
C4020 C4021 1.392 . S
C4020 C4023 1.511 . S
C4021 C4017 1.376 . S
C4021 C4020 1.392 . S
C4021 H4033 0.929 . S
C4022 C4018 1.531 . S
C4022 H4034 0.960 . S
C4022 H4035 0.962 . S
C4022 H4036 0.960 . S
C4023 C4020 1.511 . S
C4023 H4037 0.961 . S
C4023 H4038 0.961 . S
C4023 H4039 0.961 . S
C4024 C4025 1.370 . S
C4024 C4026 1.363 . S
C4024 H4040 0.931 . S
C4025 C4024 1.370 . S
C4025 C4029 1.408 . S
C4026 C4024 1.363 . S
C4026 C4027 1.370 . S
C4026 C4030 1.524 . S
C4027 C4019 1.503 . S
C4027 C4026 1.370 . S
C4027 C4028 1.403 . S
C4028 C4027 1.403 . S
C4028 C4029 1.404 . S
C4028 C4031 1.539 . S
C4029 C4025 1.408 . S
C4029 C4028 1.404 . S
C4029 H4041 0.930 . S
C4030 C4026 1.524 . S
C4030 H4042 0.956 . S
C4030 H4043 0.961 . S
C4030 H4044 0.961 . S
C4031 C4028 1.539 . S
C4031 H4045 0.958 . S
C4031 H4046 0.961 . S
C4031 H4047 0.960 . S
H4032 C4016 0.931 . S
H4033 C4021 0.929 . S
H4034 C4022 0.960 . S
H4035 C4022 0.962 . S
H4036 C4022 0.960 . S
H4037 C4023 0.961 . S
H4038 C4023 0.961 . S
H4039 C4023 0.961 . S
H4040 C4024 0.931 . S
H4041 C4029 0.930 . S
H4042 C4030 0.956 . S
H4043 C4030 0.961 . S
H4044 C4030 0.961 . S
H4045 C4031 0.958 . S
H4046 C4031 0.961 . S
H4047 C4031 0.960 . S
C4048 C4049 1.391 1_655 S
C4048 C4050 1.394 . S
C4048 H4064 0.931 . S
C4049 C4048 1.391 1_455 S
C4049 C4053 1.376 . S
C4050 C4048 1.394 . S
C4050 C4051 1.369 1_655 S
C4050 C4054 1.531 . S
C4051 C4050 1.369 1_455 S
C4051 C4052 1.410 . S
C4051 C4059 1.503 . S
C4052 C4051 1.410 . S
C4052 C4053 1.392 . S
C4052 C4055 1.511 . S
C4053 C4049 1.376 . S
C4053 C4052 1.392 . S
C4053 H4065 0.929 . S
C4054 C4050 1.531 . S
C4054 H4066 0.960 . S
C4054 H4067 0.962 . S
C4054 H4068 0.960 . S
C4055 C4052 1.511 . S
C4055 H4069 0.961 . S
C4055 H4070 0.961 . S
C4055 H4071 0.961 . S
C4056 C4057 1.370 . S
C4056 C4058 1.363 . S
C4056 H4072 0.931 1_554 S
C4057 C4056 1.370 . S
C4057 C4061 1.408 . S
C4058 C4056 1.363 . S
C4058 C4059 1.370 . S
C4058 C4062 1.524 . S
C4059 C4051 1.503 . S
C4059 C4058 1.370 . S
C4059 C4060 1.403 . S
C4060 C4059 1.403 . S
C4060 C4061 1.404 . S
C4060 C4063 1.539 . S
C4061 C4057 1.408 . S
C4061 C4060 1.404 . S
C4061 H4073 0.930 . S
C4062 C4058 1.524 . S
C4062 H4074 0.956 1_455 S
C4062 H4075 0.961 . S
C4062 H4076 0.961 1_554 S
C4063 C4060 1.539 . S
C4063 H4077 0.958 1_455 S
C4063 H4078 0.961 . S
C4063 H4079 0.960 . S
H4064 C4048 0.931 . S
H4065 C4053 0.929 . S
H4066 C4054 0.960 . S
H4067 C4054 0.962 . S
H4068 C4054 0.960 . S
H4069 C4055 0.961 . S
H4070 C4055 0.961 . S
H4071 C4055 0.961 . S
H4072 C4056 0.931 1_556 S
H4073 C4061 0.930 . S
H4074 C4062 0.956 1_655 S
H4075 C4062 0.961 . S
H4076 C4062 0.961 1_556 S
H4077 C4063 0.958 1_655 S
H4078 C4063 0.961 . S
H4079 C4063 0.960 . S
C4080 C4081 1.391 . S
C4080 C4082 1.394 . S
C4080 H4096 0.931 . S
C4081 C4080 1.391 . S
C4081 C4085 1.376 . S
C4082 C4080 1.394 . S
C4082 C4083 1.369 . S
C4082 C4086 1.531 . S
C4083 C4082 1.369 . S
C4083 C4084 1.410 . S
C4083 C4091 1.503 . S
C4084 C4083 1.410 . S
C4084 C4085 1.392 . S
C4084 C4087 1.511 . S
C4085 C4081 1.376 . S
C4085 C4084 1.392 . S
C4085 H4097 0.929 . S
C4086 C4082 1.531 . S
C4086 H4098 0.960 . S
C4086 H4099 0.962 . S
C4086 H4100 0.960 . S
C4087 C4084 1.511 . S
C4087 H4101 0.961 . S
C4087 H4102 0.961 . S
C4087 H4103 0.961 . S
C4088 C4089 1.370 . S
C4088 C4090 1.363 . S
C4088 H4104 0.931 . S
C4089 C4088 1.370 . S
C4089 C4093 1.408 . S
C4090 C4088 1.363 . S
C4090 C4091 1.370 . S
C4090 C4094 1.524 . S
C4091 C4083 1.503 . S
C4091 C4090 1.370 . S
C4091 C4092 1.403 . S
C4092 C4091 1.403 . S
C4092 C4093 1.404 . S
C4092 C4095 1.539 . S
C4093 C4089 1.408 . S
C4093 C4092 1.404 . S
C4093 H4105 0.930 . S
C4094 C4090 1.524 . S
C4094 H4106 0.956 . S
C4094 H4107 0.961 . S
C4094 H4108 0.961 . S
C4095 C4092 1.539 . S
C4095 H4109 0.958 . S
C4095 H4110 0.961 . S
C4095 H4111 0.960 . S
H4096 C4080 0.931 . S
H4097 C4085 0.929 . S
H4098 C4086 0.960 . S
H4099 C4086 0.962 . S
H4100 C4086 0.960 . S
H4101 C4087 0.961 . S
H4102 C4087 0.961 . S
H4103 C4087 0.961 . S
H4104 C4088 0.931 . S
H4105 C4093 0.930 . S
H4106 C4094 0.956 . S
H4107 C4094 0.961 . S
H4108 C4094 0.961 . S
H4109 C4095 0.958 . S
H4110 C4095 0.961 . S
H4111 C4095 0.960 . S
C4112 C4113 1.391 . S
C4112 C4114 1.394 . S
C4112 H4128 0.931 . S
C4113 C4112 1.391 . S
C4113 C4117 1.376 . S
C4114 C4112 1.394 . S
C4114 C4115 1.369 . S
C4114 C4118 1.531 . S
C4115 C4114 1.369 . S
C4115 C4116 1.410 . S
C4115 C4123 1.503 . S
C4116 C4115 1.410 . S
C4116 C4117 1.392 . S
C4116 C4119 1.511 . S
C4117 C4113 1.376 . S
C4117 C4116 1.392 . S
C4117 H4129 0.929 . S
C4118 C4114 1.531 . S
C4118 H4130 0.960 . S
C4118 H4131 0.962 . S
C4118 H4132 0.960 . S
C4119 C4116 1.511 . S
C4119 H4133 0.961 . S
C4119 H4134 0.961 . S
C4119 H4135 0.961 . S
C4120 C4121 1.370 . S
C4120 C4122 1.363 . S
C4120 H4136 0.931 . S
C4121 C4120 1.370 . S
C4121 C4125 1.408 . S
C4122 C4120 1.363 . S
C4122 C4123 1.370 . S
C4122 C4126 1.524 . S
C4123 C4115 1.503 . S
C4123 C4122 1.370 . S
C4123 C4124 1.403 . S
C4124 C4123 1.403 . S
C4124 C4125 1.404 . S
C4124 C4127 1.539 . S
C4125 C4121 1.408 . S
C4125 C4124 1.404 . S
C4125 H4137 0.930 1_556 S
C4126 C4122 1.524 . S
C4126 H4138 0.956 . S
C4126 H4139 0.961 . S
C4126 H4140 0.961 . S
C4127 C4124 1.539 . S
C4127 H4141 0.958 1_556 S
C4127 H4142 0.971 . S
C4127 H4143 0.960 . S
H4128 C4112 0.931 . S
H4129 C4117 0.929 . S
H4130 C4118 0.960 . S
H4131 C4118 0.962 . S
H4132 C4118 0.960 . S
H4133 C4119 0.961 . S
H4134 C4119 0.961 . S
H4135 C4119 0.961 . S
H4136 C4120 0.931 . S
H4137 C4125 0.930 1_554 S
H4138 C4126 0.956 . S
H4139 C4126 0.961 . S
H4140 C4126 0.961 . S
H4141 C4127 0.958 1_554 S
H4142 C4127 0.971 . S
H4143 C4127 0.960 . S
C4144 C4145 1.391 . S
C4144 C4146 1.394 . S
C4144 H4160 0.931 . S
C4145 C4144 1.391 . S
C4145 C4149 1.376 . S
C4146 C4144 1.394 . S
C4146 C4147 1.369 . S
C4146 C4150 1.531 . S
C4147 C4146 1.369 . S
C4147 C4148 1.410 . S
C4147 C4155 1.503 . S
C4148 C4147 1.410 . S
C4148 C4149 1.392 . S
C4148 C4151 1.511 . S
C4149 C4145 1.376 . S
C4149 C4148 1.392 . S
C4149 H4161 0.929 . S
C4150 C4146 1.531 . S
C4150 H4162 0.960 . S
C4150 H4163 0.962 . S
C4150 H4164 0.960 . S
C4151 C4148 1.511 . S
C4151 H4165 0.961 . S
C4151 H4166 0.961 . S
C4151 H4167 0.961 . S
C4152 C4153 1.370 . S
C4152 C4154 1.363 . S
C4152 H4168 0.931 . S
C4153 C4152 1.370 . S
C4153 C4157 1.408 . S
C4154 C4152 1.363 . S
C4154 C4155 1.370 . S
C4154 C4158 1.524 . S
C4155 C4147 1.503 . S
C4155 C4154 1.370 . S
C4155 C4156 1.403 . S
C4156 C4155 1.403 . S
C4156 C4157 1.404 . S
C4156 C4159 1.539 . S
C4157 C4153 1.408 . S
C4157 C4156 1.404 . S
C4157 H4169 0.930 . S
C4158 C4154 1.524 . S
C4158 H4170 0.956 . S
C4158 H4171 0.961 . S
C4158 H4172 0.961 . S
C4159 C4156 1.539 . S
C4159 H4173 0.958 . S
C4159 H4174 0.961 . S
C4159 H4175 0.960 . S
H4160 C4144 0.931 . S
H4161 C4149 0.929 . S
H4162 C4150 0.960 . S
H4163 C4150 0.962 . S
H4164 C4150 0.960 . S
H4165 C4151 0.961 . S
H4166 C4151 0.961 . S
H4167 C4151 0.961 . S
H4168 C4152 0.931 . S
H4169 C4157 0.930 . S
H4170 C4158 0.956 . S
H4171 C4158 0.961 . S
H4172 C4158 0.961 . S
H4173 C4159 0.958 . S
H4174 C4159 0.961 . S
H4175 C4159 0.960 . S
C4176 C4177 1.391 1_655 S
C4176 C4178 1.393 1_655 S
C4176 H4192 0.931 . S
C4177 C4176 1.391 1_455 S
C4177 C4181 1.376 . S
C4178 C4176 1.393 1_455 S
C4178 C4179 1.374 . S
C4178 C4182 1.526 1_455 S
C4179 C4178 1.374 . S
C4179 C4180 1.410 . S
C4179 C4187 1.503 . S
C4180 C4179 1.410 . S
C4180 C4181 1.392 . S
C4180 C4183 1.511 . S
C4181 C4177 1.376 . S
C4181 C4180 1.392 . S
C4181 H4193 0.929 . S
C4182 C4178 1.526 1_655 S
C4182 H4194 0.960 . S
C4182 H4195 0.962 . S
C4182 H4196 0.960 . S
C4183 C4180 1.511 . S
C4183 H4197 0.961 . S
C4183 H4198 0.961 . S
C4183 H4199 0.961 . S
C4184 C4185 1.351 1_655 S
C4184 C4186 1.363 . S
C4184 H4200 0.950 . S
C4185 C4184 1.351 1_455 S
C4185 C4189 1.408 . S
C4186 C4184 1.363 . S
C4186 C4187 1.341 1_655 S
C4186 C4190 1.555 . S
C4187 C4179 1.503 . S
C4187 C4186 1.341 1_455 S
C4187 C4188 1.403 . S
C4188 C4187 1.403 . S
C4188 C4189 1.404 . S
C4188 C4191 1.539 . S
C4189 C4185 1.408 . S
C4189 C4188 1.404 . S
C4189 H4201 0.930 . S
C4190 C4186 1.555 . S
C4190 H4202 0.956 . S
C4190 H4203 0.961 . S
C4190 H4204 0.961 . S
C4191 C4188 1.539 . S
C4191 H4205 0.958 . S
C4191 H4206 0.961 . S
C4191 H4207 0.960 . S
H4192 C4176 0.931 . S
H4193 C4181 0.929 . S
H4194 C4182 0.960 . S
H4195 C4182 0.962 . S
H4196 C4182 0.960 . S
H4197 C4183 0.961 . S
H4198 C4183 0.961 . S
H4199 C4183 0.961 . S
H4200 C4184 0.950 . S
H4201 C4189 0.930 . S
H4202 C4190 0.956 . S
H4203 C4190 0.961 . S
H4204 C4190 0.961 . S
H4205 C4191 0.958 . S
H4206 C4191 0.961 . S
H4207 C4191 0.960 . S
C4208 C4209 1.391 . S
C4208 C4210 1.394 . S
C4208 H4224 0.931 . S
C4209 C4208 1.391 . S
C4209 C4213 1.376 . S
C4210 C4208 1.394 . S
C4210 C4211 1.369 . S
C4210 C4214 1.531 . S
C4211 C4210 1.369 . S
C4211 C4212 1.410 . S
C4211 C4219 1.503 . S
C4212 C4211 1.410 . S
C4212 C4213 1.392 . S
C4212 C4215 1.511 . S
C4213 C4209 1.376 . S
C4213 C4212 1.392 . S
C4213 H4225 0.929 . S
C4214 C4210 1.531 . S
C4214 H4226 0.960 . S
C4214 H4227 0.962 . S
C4214 H4228 0.960 . S
C4215 C4212 1.511 . S
C4215 H4229 0.961 . S
C4215 H4230 0.961 . S
C4215 H4231 0.961 . S
C4216 C4217 1.370 . S
C4216 C4218 1.363 . S
C4216 H4232 0.931 . S
C4217 C4216 1.370 . S
C4217 C4221 1.408 . S
C4218 C4216 1.363 . S
C4218 C4219 1.370 . S
C4218 C4222 1.524 . S
C4219 C4211 1.503 . S
C4219 C4218 1.370 . S
C4219 C4220 1.403 . S
C4220 C4219 1.403 . S
C4220 C4221 1.404 . S
C4220 C4223 1.539 . S
C4221 C4217 1.408 . S
C4221 C4220 1.404 . S
C4221 H4233 0.930 . S
C4222 C4218 1.524 . S
C4222 H4234 0.956 . S
C4222 H4235 0.961 . S
C4222 H4236 0.961 . S
C4223 C4220 1.539 . S
C4223 H4237 0.958 . S
C4223 H4238 0.961 . S
C4223 H4239 0.960 . S
H4224 C4208 0.931 . S
H4225 C4213 0.929 . S
H4226 C4214 0.960 . S
H4227 C4214 0.962 . S
H4228 C4214 0.960 . S
H4229 C4215 0.961 . S
H4230 C4215 0.961 . S
H4231 C4215 0.961 . S
H4232 C4216 0.931 . S
H4233 C4221 0.930 . S
H4234 C4222 0.956 . S
H4235 C4222 0.961 . S
H4236 C4222 0.961 . S
H4237 C4223 0.958 . S
H4238 C4223 0.961 . S
H4239 C4223 0.960 . S
C4240 C4241 1.391 . S
C4240 C4242 1.394 . S
C4240 H4256 0.931 . S
C4241 C4240 1.391 . S
C4241 C4245 1.376 . S
C4242 C4240 1.394 . S
C4242 C4243 1.369 . S
C4242 C4246 1.531 . S
C4243 C4242 1.369 . S
C4243 C4244 1.410 . S
C4243 C4251 1.503 . S
C4244 C4243 1.410 . S
C4244 C4245 1.392 . S
C4244 C4247 1.511 . S
C4245 C4241 1.376 . S
C4245 C4244 1.392 . S
C4245 H4257 0.929 . S
C4246 C4242 1.531 . S
C4246 H4258 0.960 . S
C4246 H4259 0.962 . S
C4246 H4260 0.960 . S
C4247 C4244 1.511 . S
C4247 H4261 0.961 . S
C4247 H4262 0.961 . S
C4247 H4263 0.961 . S
C4248 C4249 1.370 . S
C4248 C4250 1.363 . S
C4248 H4264 0.931 . S
C4249 C4248 1.370 . S
C4249 C4253 1.408 . S
C4250 C4248 1.363 . S
C4250 C4251 1.370 . S
C4250 C4254 1.524 . S
C4251 C4243 1.503 . S
C4251 C4250 1.370 . S
C4251 C4252 1.403 . S
C4252 C4251 1.403 . S
C4252 C4253 1.404 . S
C4252 C4255 1.539 . S
C4253 C4249 1.408 . S
C4253 C4252 1.404 . S
C4253 H4265 0.930 . S
C4254 C4250 1.524 . S
C4254 H4266 0.956 . S
C4254 H4267 0.961 . S
C4254 H4268 0.961 . S
C4255 C4252 1.539 . S
C4255 H4269 0.958 . S
C4255 H4270 0.961 . S
C4255 H4271 0.960 . S
H4256 C4240 0.931 . S
H4257 C4245 0.929 . S
H4258 C4246 0.960 . S
H4259 C4246 0.962 . S
H4260 C4246 0.960 . S
H4261 C4247 0.961 . S
H4262 C4247 0.961 . S
H4263 C4247 0.961 . S
H4264 C4248 0.931 . S
H4265 C4253 0.930 . S
H4266 C4254 0.956 . S
H4267 C4254 0.961 . S
H4268 C4254 0.961 . S
H4269 C4255 0.958 . S
H4270 C4255 0.961 . S
H4271 C4255 0.960 . S
C4272 C4273 1.391 . S
C4272 C4274 1.394 . S
C4272 H4288 0.931 . S
C4273 C4272 1.391 . S
C4273 C4277 1.376 . S
C4274 C4272 1.394 . S
C4274 C4275 1.369 . S
C4274 C4278 1.531 . S
C4275 C4274 1.369 . S
C4275 C4276 1.410 . S
C4275 C4283 1.503 . S
C4276 C4275 1.410 . S
C4276 C4277 1.392 . S
C4276 C4279 1.511 . S
C4277 C4273 1.376 . S
C4277 C4276 1.392 . S
C4277 H4289 0.929 . S
C4278 C4274 1.531 . S
C4278 H4290 0.960 . S
C4278 H4291 0.962 . S
C4278 H4292 0.960 . S
C4279 C4276 1.511 . S
C4279 H4293 0.961 . S
C4279 H4294 0.961 . S
C4279 H4295 0.961 . S
C4280 C4281 1.370 . S
C4280 C4282 1.363 . S
C4280 H4296 0.931 . S
C4281 C4280 1.370 . S
C4281 C4285 1.408 . S
C4282 C4280 1.363 . S
C4282 C4283 1.370 . S
C4282 C4286 1.524 . S
C4283 C4275 1.503 . S
C4283 C4282 1.370 . S
C4283 C4284 1.403 . S
C4284 C4283 1.403 . S
C4284 C4285 1.404 . S
C4284 C4287 1.539 . S
C4285 C4281 1.408 . S
C4285 C4284 1.404 . S
C4285 H4297 0.930 . S
C4286 C4282 1.524 . S
C4286 H4298 0.956 . S
C4286 H4299 0.961 . S
C4286 H4300 0.961 . S
C4287 C4284 1.539 . S
C4287 H4301 0.958 . S
C4287 H4302 0.961 . S
C4287 H4303 0.960 . S
H4288 C4272 0.931 . S
H4289 C4277 0.929 . S
H4290 C4278 0.960 . S
H4291 C4278 0.962 . S
H4292 C4278 0.960 . S
H4293 C4279 0.961 . S
H4294 C4279 0.961 . S
H4295 C4279 0.961 . S
H4296 C4280 0.931 . S
H4297 C4285 0.930 . S
H4298 C4286 0.956 . S
H4299 C4286 0.961 . S
H4300 C4286 0.961 . S
H4301 C4287 0.958 . S
H4302 C4287 0.961 . S
H4303 C4287 0.960 . S
C4304 C4305 1.391 . S
C4304 C4306 1.394 . S
C4304 H4320 0.931 . S
C4305 C4304 1.391 . S
C4305 C4309 1.376 . S
C4306 C4304 1.394 . S
C4306 C4307 1.369 . S
C4306 C4310 1.531 . S
C4307 C4306 1.369 . S
C4307 C4308 1.410 . S
C4307 C4315 1.503 . S
C4308 C4307 1.410 . S
C4308 C4309 1.392 . S
C4308 C4311 1.511 . S
C4309 C4305 1.376 . S
C4309 C4308 1.392 . S
C4309 H4321 0.929 . S
C4310 C4306 1.531 . S
C4310 H4322 0.960 . S
C4310 H4323 0.962 . S
C4310 H4324 0.960 . S
C4311 C4308 1.511 . S
C4311 H4325 0.961 . S
C4311 H4326 0.961 . S
C4311 H4327 0.961 1_655 S
C4312 C4313 1.370 . S
C4312 C4314 1.363 . S
C4312 H4328 0.931 . S
C4313 C4312 1.370 . S
C4313 C4317 1.408 . S
C4314 C4312 1.363 . S
C4314 C4315 1.370 . S
C4314 C4318 1.524 . S
C4315 C4307 1.503 . S
C4315 C4314 1.370 . S
C4315 C4316 1.403 . S
C4316 C4315 1.403 . S
C4316 C4317 1.404 . S
C4316 C4319 1.539 . S
C4317 C4313 1.408 . S
C4317 C4316 1.404 . S
C4317 H4329 0.908 1_655 S
C4318 C4314 1.524 . S
C4318 H4330 0.956 . S
C4318 H4331 0.961 . S
C4318 H4332 0.961 . S
C4319 C4316 1.539 . S
C4319 H4333 0.958 . S
C4319 H4334 0.961 1_655 S
C4319 H4335 0.960 . S
H4320 C4304 0.931 . S
H4321 C4309 0.929 . S
H4322 C4310 0.960 . S
H4323 C4310 0.962 . S
H4324 C4310 0.960 . S
H4325 C4311 0.961 . S
H4326 C4311 0.961 . S
H4327 C4311 0.961 1_455 S
H4328 C4312 0.931 . S
H4329 C4317 0.908 1_455 S
H4330 C4318 0.956 . S
H4331 C4318 0.961 . S
H4332 C4318 0.961 . S
H4333 C4319 0.958 . S
H4334 C4319 0.961 1_455 S
H4335 C4319 0.960 . S
C4336 C4337 1.391 . S
C4336 C4338 1.394 . S
C4336 H4352 0.931 . S
C4337 C4336 1.391 . S
C4337 C4341 1.376 . S
C4338 C4336 1.394 . S
C4338 C4339 1.369 . S
C4338 C4342 1.531 . S
C4339 C4338 1.369 . S
C4339 C4340 1.410 . S
C4339 C4347 1.503 . S
C4340 C4339 1.410 . S
C4340 C4341 1.392 . S
C4340 C4343 1.511 . S
C4341 C4337 1.376 . S
C4341 C4340 1.392 . S
C4341 H4353 0.929 . S
C4342 C4338 1.531 . S
C4342 H4354 0.960 . S
C4342 H4355 0.962 . S
C4342 H4356 0.960 . S
C4343 C4340 1.511 . S
C4343 H4357 0.961 . S
C4343 H4358 0.961 . S
C4343 H4359 0.961 . S
C4344 C4345 1.370 . S
C4344 C4346 1.363 . S
C4344 H4360 0.931 . S
C4345 C4344 1.370 . S
C4345 C4349 1.408 . S
C4346 C4344 1.363 . S
C4346 C4347 1.370 . S
C4346 C4350 1.524 . S
C4347 C4339 1.503 . S
C4347 C4346 1.370 . S
C4347 C4348 1.403 . S
C4348 C4347 1.403 . S
C4348 C4349 1.404 . S
C4348 C4351 1.539 . S
C4349 C4345 1.408 . S
C4349 C4348 1.404 . S
C4349 H4361 0.930 . S
C4350 C4346 1.524 . S
C4350 H4362 0.956 . S
C4350 H4363 0.961 . S
C4350 H4364 0.961 . S
C4351 C4348 1.539 . S
C4351 H4365 0.958 . S
C4351 H4366 0.961 . S
C4351 H4367 0.960 . S
H4352 C4336 0.931 . S
H4353 C4341 0.929 . S
H4354 C4342 0.960 . S
H4355 C4342 0.962 . S
H4356 C4342 0.960 . S
H4357 C4343 0.961 . S
H4358 C4343 0.961 . S
H4359 C4343 0.961 . S
H4360 C4344 0.931 . S
H4361 C4349 0.930 . S
H4362 C4350 0.956 . S
H4363 C4350 0.961 . S
H4364 C4350 0.961 . S
H4365 C4351 0.958 . S
H4366 C4351 0.961 . S
H4367 C4351 0.960 . S
C4368 C4369 1.391 . S
C4368 C4370 1.394 . S
C4368 H4384 0.931 . S
C4369 C4368 1.391 . S
C4369 C4373 1.376 . S
C4370 C4368 1.394 . S
C4370 C4371 1.369 . S
C4370 C4374 1.531 . S
C4371 C4370 1.369 . S
C4371 C4372 1.410 . S
C4371 C4379 1.503 . S
C4372 C4371 1.410 . S
C4372 C4373 1.392 . S
C4372 C4375 1.511 . S
C4373 C4369 1.376 . S
C4373 C4372 1.392 . S
C4373 H4385 0.929 . S
C4374 C4370 1.531 . S
C4374 H4386 0.960 . S
C4374 H4387 0.962 . S
C4374 H4388 0.960 . S
C4375 C4372 1.511 . S
C4375 H4389 0.961 . S
C4375 H4390 0.961 . S
C4375 H4391 0.961 . S
C4376 C4377 1.370 . S
C4376 C4378 1.363 . S
C4376 H4392 0.931 . S
C4377 C4376 1.370 . S
C4377 C4381 1.408 . S
C4378 C4376 1.363 . S
C4378 C4379 1.370 . S
C4378 C4382 1.524 . S
C4379 C4371 1.503 . S
C4379 C4378 1.370 . S
C4379 C4380 1.403 . S
C4380 C4379 1.403 . S
C4380 C4381 1.404 . S
C4380 C4383 1.539 . S
C4381 C4377 1.408 . S
C4381 C4380 1.404 . S
C4381 H4393 0.930 . S
C4382 C4378 1.524 . S
C4382 H4394 0.956 . S
C4382 H4395 0.961 . S
C4382 H4396 0.961 . S
C4383 C4380 1.539 . S
C4383 H4397 0.958 . S
C4383 H4398 0.961 . S
C4383 H4399 0.960 . S
H4384 C4368 0.931 . S
H4385 C4373 0.929 . S
H4386 C4374 0.960 . S
H4387 C4374 0.962 . S
H4388 C4374 0.960 . S
H4389 C4375 0.961 . S
H4390 C4375 0.961 . S
H4391 C4375 0.961 . S
H4392 C4376 0.931 . S
H4393 C4381 0.930 . S
H4394 C4382 0.956 . S
H4395 C4382 0.961 . S
H4396 C4382 0.961 . S
H4397 C4383 0.958 . S
H4398 C4383 0.961 . S
H4399 C4383 0.960 . S
C4400 C4401 1.391 . S
C4400 C4402 1.394 . S
C4400 H4416 0.931 . S
C4401 C4400 1.391 . S
C4401 C4405 1.376 . S
C4402 C4400 1.394 . S
C4402 C4403 1.369 . S
C4402 C4406 1.531 . S
C4403 C4402 1.369 . S
C4403 C4404 1.410 . S
C4403 C4411 1.503 . S
C4404 C4403 1.410 . S
C4404 C4405 1.392 . S
C4404 C4407 1.511 . S
C4405 C4401 1.376 . S
C4405 C4404 1.392 . S
C4405 H4417 0.929 . S
C4406 C4402 1.531 . S
C4406 H4418 0.960 . S
C4406 H4419 0.962 . S
C4406 H4420 0.960 . S
C4407 C4404 1.511 . S
C4407 H4421 0.961 . S
C4407 H4422 0.961 . S
C4407 H4423 0.961 . S
C4408 C4409 1.370 . S
C4408 C4410 1.363 . S
C4408 H4424 0.931 . S
C4409 C4408 1.370 . S
C4409 C4413 1.408 . S
C4410 C4408 1.363 . S
C4410 C4411 1.370 . S
C4410 C4414 1.524 . S
C4411 C4403 1.503 . S
C4411 C4410 1.370 . S
C4411 C4412 1.403 . S
C4412 C4411 1.403 . S
C4412 C4413 1.404 . S
C4412 C4415 1.539 . S
C4413 C4409 1.408 . S
C4413 C4412 1.404 . S
C4413 H4425 0.930 . S
C4414 C4410 1.524 . S
C4414 H4426 0.956 . S
C4414 H4427 0.961 . S
C4414 H4428 0.961 . S
C4415 C4412 1.539 . S
C4415 H4429 0.958 . S
C4415 H4430 0.961 . S
C4415 H4431 0.960 . S
H4416 C4400 0.931 . S
H4417 C4405 0.929 . S
H4418 C4406 0.960 . S
H4419 C4406 0.962 . S
H4420 C4406 0.960 . S
H4421 C4407 0.961 . S
H4422 C4407 0.961 . S
H4423 C4407 0.961 . S
H4424 C4408 0.931 . S
H4425 C4413 0.930 . S
H4426 C4414 0.956 . S
H4427 C4414 0.961 . S
H4428 C4414 0.961 . S
H4429 C4415 0.958 . S
H4430 C4415 0.961 . S
H4431 C4415 0.960 . S
C4432 C4433 1.391 . S
C4432 C4434 1.394 . S
C4432 H4448 0.931 . S
C4433 C4432 1.391 . S
C4433 C4437 1.376 . S
C4434 C4432 1.394 . S
C4434 C4435 1.369 . S
C4434 C4438 1.531 . S
C4435 C4434 1.369 . S
C4435 C4436 1.410 . S
C4435 C4443 1.503 . S
C4436 C4435 1.410 . S
C4436 C4437 1.392 . S
C4436 C4439 1.511 . S
C4437 C4433 1.376 . S
C4437 C4436 1.392 . S
C4437 H4449 0.929 . S
C4438 C4434 1.531 . S
C4438 H4450 0.960 . S
C4438 H4451 0.962 . S
C4438 H4452 0.960 . S
C4439 C4436 1.511 . S
C4439 H4453 0.961 . S
C4439 H4454 0.961 . S
C4439 H4455 0.961 . S
C4440 C4441 1.370 . S
C4440 C4442 1.363 . S
C4440 H4456 0.931 1_655 S
C4441 C4440 1.370 . S
C4441 C4445 1.408 . S
C4442 C4440 1.363 . S
C4442 C4443 1.370 . S
C4442 C4446 1.524 . S
C4443 C4435 1.503 . S
C4443 C4442 1.370 . S
C4443 C4444 1.403 . S
C4444 C4443 1.403 . S
C4444 C4445 1.404 . S
C4444 C4447 1.539 . S
C4445 C4441 1.408 . S
C4445 C4444 1.404 . S
C4445 H4457 0.930 . S
C4446 C4442 1.524 . S
C4446 H4458 0.956 . S
C4446 H4459 0.961 . S
C4446 H4460 0.961 1_655 S
C4447 C4444 1.539 . S
C4447 H4461 0.958 . S
C4447 H4462 0.961 . S
C4447 H4463 0.960 . S
H4448 C4432 0.931 . S
H4449 C4437 0.929 . S
H4450 C4438 0.960 . S
H4451 C4438 0.962 . S
H4452 C4438 0.960 . S
H4453 C4439 0.961 . S
H4454 C4439 0.961 . S
H4455 C4439 0.961 . S
H4456 C4440 0.931 1_455 S
H4457 C4445 0.930 . S
H4458 C4446 0.956 . S
H4459 C4446 0.961 . S
H4460 C4446 0.961 1_455 S
H4461 C4447 0.958 . S
H4462 C4447 0.961 . S
H4463 C4447 0.960 . S
C4464 C4465 1.391 . S
C4464 C4466 1.394 . S
C4464 H4480 0.931 . S
C4465 C4464 1.391 . S
C4465 C4469 1.376 . S
C4466 C4464 1.394 . S
C4466 C4467 1.369 . S
C4466 C4470 1.531 . S
C4467 C4466 1.369 . S
C4467 C4468 1.410 . S
C4467 C4475 1.503 . S
C4468 C4467 1.410 . S
C4468 C4469 1.392 . S
C4468 C4471 1.511 . S
C4469 C4465 1.376 . S
C4469 C4468 1.392 . S
C4469 H4481 0.929 . S
C4470 C4466 1.531 . S
C4470 H4482 0.960 . S
C4470 H4483 0.962 . S
C4470 H4484 0.960 . S
C4471 C4468 1.511 . S
C4471 H4485 0.961 . S
C4471 H4486 0.961 . S
C4471 H4487 0.961 . S
C4472 C4473 1.370 . S
C4472 C4474 1.363 . S
C4472 H4488 0.931 . S
C4473 C4472 1.370 . S
C4473 C4477 1.408 . S
C4474 C4472 1.363 . S
C4474 C4475 1.370 . S
C4474 C4478 1.524 . S
C4475 C4467 1.503 . S
C4475 C4474 1.370 . S
C4475 C4476 1.403 . S
C4476 C4475 1.403 . S
C4476 C4477 1.404 . S
C4476 C4479 1.539 . S
C4477 C4473 1.408 . S
C4477 C4476 1.404 . S
C4477 H4489 0.930 . S
C4478 C4474 1.524 . S
C4478 H4490 0.956 . S
C4478 H4491 0.961 . S
C4478 H4492 0.961 . S
C4479 C4476 1.539 . S
C4479 H4493 0.958 . S
C4479 H4494 0.961 . S
C4479 H4495 0.960 . S
H4480 C4464 0.931 . S
H4481 C4469 0.929 . S
H4482 C4470 0.960 . S
H4483 C4470 0.962 . S
H4484 C4470 0.960 . S
H4485 C4471 0.961 . S
H4486 C4471 0.961 . S
H4487 C4471 0.961 . S
H4488 C4472 0.931 . S
H4489 C4477 0.930 . S
H4490 C4478 0.956 . S
H4491 C4478 0.961 . S
H4492 C4478 0.961 . S
H4493 C4479 0.958 . S
H4494 C4479 0.961 . S
H4495 C4479 0.960 . S
C4496 C4497 1.391 . S
C4496 C4498 1.394 . S
C4496 H4512 0.931 . S
C4497 C4496 1.391 . S
C4497 C4501 1.376 . S
C4498 C4496 1.394 . S
C4498 C4499 1.369 . S
C4498 C4502 1.531 . S
C4499 C4498 1.369 . S
C4499 C4500 1.410 . S
C4499 C4507 1.503 . S
C4500 C4499 1.410 . S
C4500 C4501 1.392 . S
C4500 C4503 1.511 . S
C4501 C4497 1.376 . S
C4501 C4500 1.392 . S
C4501 H4513 0.929 . S
C4502 C4498 1.531 . S
C4502 H4514 0.960 . S
C4502 H4515 0.962 . S
C4502 H4516 0.960 . S
C4503 C4500 1.511 . S
C4503 H4517 0.961 . S
C4503 H4518 0.961 . S
C4503 H4519 0.961 . S
C4504 C4505 1.370 . S
C4504 C4506 1.363 . S
C4504 H4520 0.931 . S
C4505 C4504 1.370 . S
C4505 C4509 1.408 . S
C4506 C4504 1.363 . S
C4506 C4507 1.370 . S
C4506 C4510 1.524 . S
C4507 C4499 1.503 . S
C4507 C4506 1.370 . S
C4507 C4508 1.403 . S
C4508 C4507 1.403 . S
C4508 C4509 1.404 . S
C4508 C4511 1.539 . S
C4509 C4505 1.408 . S
C4509 C4508 1.404 . S
C4509 H4521 0.930 . S
C4510 C4506 1.524 . S
C4510 H4522 0.956 . S
C4510 H4523 0.961 . S
C4510 H4524 0.961 . S
C4511 C4508 1.539 . S
C4511 H4525 0.958 . S
C4511 H4526 0.961 . S
C4511 H4527 0.960 . S
H4512 C4496 0.931 . S
H4513 C4501 0.929 . S
H4514 C4502 0.960 . S
H4515 C4502 0.962 . S
H4516 C4502 0.960 . S
H4517 C4503 0.961 . S
H4518 C4503 0.961 . S
H4519 C4503 0.961 . S
H4520 C4504 0.931 . S
H4521 C4509 0.930 . S
H4522 C4510 0.956 . S
H4523 C4510 0.961 . S
H4524 C4510 0.961 . S
H4525 C4511 0.958 . S
H4526 C4511 0.961 . S
H4527 C4511 0.960 . S
C4528 C4529 1.391 . S
C4528 C4530 1.394 . S
C4528 H4544 0.931 . S
C4529 C4528 1.391 . S
C4529 C4533 1.376 . S
C4530 C4528 1.394 . S
C4530 C4531 1.369 . S
C4530 C4534 1.531 . S
C4531 C4530 1.369 . S
C4531 C4532 1.410 . S
C4531 C4539 1.503 . S
C4532 C4531 1.410 . S
C4532 C4533 1.392 . S
C4532 C4535 1.511 . S
C4533 C4529 1.376 . S
C4533 C4532 1.392 . S
C4533 H4545 0.929 . S
C4534 C4530 1.531 . S
C4534 H4546 0.960 . S
C4534 H4547 0.962 . S
C4534 H4548 0.960 . S
C4535 C4532 1.511 . S
C4535 H4549 0.961 . S
C4535 H4550 0.961 . S
C4535 H4551 0.947 1_565 S
C4536 C4537 1.370 . S
C4536 C4538 1.363 . S
C4536 H4552 0.931 . S
C4537 C4536 1.370 . S
C4537 C4541 1.408 . S
C4538 C4536 1.363 . S
C4538 C4539 1.370 . S
C4538 C4542 1.524 . S
C4539 C4531 1.503 . S
C4539 C4538 1.370 . S
C4539 C4540 1.403 . S
C4540 C4539 1.403 . S
C4540 C4541 1.404 . S
C4540 C4543 1.539 . S
C4541 C4537 1.408 . S
C4541 C4540 1.404 . S
C4541 H4553 0.930 . S
C4542 C4538 1.524 . S
C4542 H4554 0.956 . S
C4542 H4555 0.961 . S
C4542 H4556 0.961 . S
C4543 C4540 1.539 . S
C4543 H4557 0.958 . S
C4543 H4558 0.961 . S
C4543 H4559 0.960 . S
H4544 C4528 0.931 . S
H4545 C4533 0.929 . S
H4546 C4534 0.960 . S
H4547 C4534 0.962 . S
H4548 C4534 0.960 . S
H4549 C4535 0.961 . S
H4550 C4535 0.961 . S
H4551 C4535 0.947 1_545 S
H4552 C4536 0.931 . S
H4553 C4541 0.930 . S
H4554 C4542 0.956 . S
H4555 C4542 0.961 . S
H4556 C4542 0.961 . S
H4557 C4543 0.958 . S
H4558 C4543 0.961 . S
H4559 C4543 0.960 . S
C4560 C4561 1.391 . S
C4560 C4562 1.394 . S
C4560 H4576 0.931 . S
C4561 C4560 1.391 . S
C4561 C4565 1.376 . S
C4562 C4560 1.394 . S
C4562 C4563 1.369 . S
C4562 C4566 1.531 . S
C4563 C4562 1.369 . S
C4563 C4564 1.410 . S
C4563 C4571 1.503 . S
C4564 C4563 1.410 . S
C4564 C4565 1.392 . S
C4564 C4567 1.511 . S
C4565 C4561 1.376 . S
C4565 C4564 1.392 . S
C4565 H4577 0.929 . S
C4566 C4562 1.531 . S
C4566 H4578 0.960 . S
C4566 H4579 0.962 . S
C4566 H4580 0.960 . S
C4567 C4564 1.511 . S
C4567 H4581 0.961 . S
C4567 H4582 0.961 . S
C4567 H4583 0.961 . S
C4568 C4569 1.370 . S
C4568 C4570 1.363 . S
C4568 H4584 0.931 . S
C4569 C4568 1.370 . S
C4569 C4573 1.408 . S
C4570 C4568 1.363 . S
C4570 C4571 1.370 . S
C4570 C4574 1.524 . S
C4571 C4563 1.503 . S
C4571 C4570 1.370 . S
C4571 C4572 1.403 . S
C4572 C4571 1.403 . S
C4572 C4573 1.404 . S
C4572 C4575 1.539 . S
C4573 C4569 1.408 . S
C4573 C4572 1.404 . S
C4573 H4585 0.930 . S
C4574 C4570 1.524 . S
C4574 H4586 0.956 . S
C4574 H4587 0.961 . S
C4574 H4588 0.961 . S
C4575 C4572 1.539 . S
C4575 H4589 0.958 . S
C4575 H4590 0.961 . S
C4575 H4591 0.960 . S
H4576 C4560 0.931 . S
H4577 C4565 0.929 . S
H4578 C4566 0.960 . S
H4579 C4566 0.962 . S
H4580 C4566 0.960 . S
H4581 C4567 0.961 . S
H4582 C4567 0.961 . S
H4583 C4567 0.961 . S
H4584 C4568 0.931 . S
H4585 C4573 0.930 . S
H4586 C4574 0.956 . S
H4587 C4574 0.961 . S
H4588 C4574 0.961 . S
H4589 C4575 0.958 . S
H4590 C4575 0.961 . S
H4591 C4575 0.960 . S
C4592 C4593 1.391 . S
C4592 C4594 1.394 . S
C4592 H4608 0.931 . S
C4593 C4592 1.391 . S
C4593 C4597 1.378 . S
C4594 C4592 1.394 . S
C4594 C4595 1.369 . S
C4594 C4598 1.531 . S
C4595 C4594 1.369 . S
C4595 C4596 1.407 1_554 S
C4595 C4603 1.503 . S
C4596 C4595 1.407 1_556 S
C4596 C4597 1.392 1_556 S
C4596 C4599 1.515 . S
C4597 C4593 1.378 . S
C4597 C4596 1.392 1_554 S
C4597 H4609 0.927 1_554 S
C4598 C4594 1.531 . S
C4598 H4610 0.960 . S
C4598 H4611 0.962 . S
C4598 H4612 0.960 . S
C4599 C4596 1.515 . S
C4599 H4613 0.959 1_556 S
C4599 H4614 0.961 1_556 S
C4599 H4615 0.961 . S
C4600 C4601 1.370 . S
C4600 C4602 1.363 . S
C4600 H4616 0.931 . S
C4601 C4600 1.370 . S
C4601 C4605 1.408 1_554 S
C4602 C4600 1.363 . S
C4602 C4603 1.370 . S
C4602 C4606 1.524 . S
C4603 C4595 1.503 . S
C4603 C4602 1.370 . S
C4603 C4604 1.403 1_554 S
C4604 C4603 1.403 1_556 S
C4604 C4605 1.404 . S
C4604 C4607 1.539 . S
C4605 C4601 1.408 1_556 S
C4605 C4604 1.404 . S
C4605 H4617 0.930 . S
C4606 C4602 1.524 . S
C4606 H4618 0.956 . S
C4606 H4619 0.961 . S
C4606 H4620 0.961 . S
C4607 C4604 1.539 . S
C4607 H4621 0.958 . S
C4607 H4622 0.961 . S
C4607 H4623 0.960 . S
H4608 C4592 0.931 . S
H4609 C4597 0.927 1_556 S
H4610 C4598 0.960 . S
H4611 C4598 0.962 . S
H4612 C4598 0.960 . S
H4613 C4599 0.959 1_554 S
H4614 C4599 0.961 1_554 S
H4615 C4599 0.961 . S
H4616 C4600 0.931 . S
H4617 C4605 0.930 . S
H4618 C4606 0.956 . S
H4619 C4606 0.961 . S
H4620 C4606 0.961 . S
H4621 C4607 0.958 . S
H4622 C4607 0.961 . S
H4623 C4607 0.960 . S
C4624 C4625 1.391 . S
C4624 C4626 1.394 . S
C4624 H4640 0.931 . S
C4625 C4624 1.391 . S
C4625 C4629 1.376 . S
C4626 C4624 1.394 . S
C4626 C4627 1.369 . S
C4626 C4630 1.531 . S
C4627 C4626 1.369 . S
C4627 C4628 1.410 . S
C4627 C4635 1.503 . S
C4628 C4627 1.410 . S
C4628 C4629 1.392 . S
C4628 C4631 1.511 . S
C4629 C4625 1.376 . S
C4629 C4628 1.392 . S
C4629 H4641 0.929 . S
C4630 C4626 1.531 . S
C4630 H4642 0.960 . S
C4630 H4643 0.962 . S
C4630 H4644 0.960 . S
C4631 C4628 1.511 . S
C4631 H4645 0.961 . S
C4631 H4646 0.961 . S
C4631 H4647 0.961 . S
C4632 C4633 1.370 . S
C4632 C4634 1.363 . S
C4632 H4648 0.931 . S
C4633 C4632 1.370 . S
C4633 C4637 1.408 . S
C4634 C4632 1.363 . S
C4634 C4635 1.370 . S
C4634 C4638 1.524 . S
C4635 C4627 1.503 . S
C4635 C4634 1.370 . S
C4635 C4636 1.403 . S
C4636 C4635 1.403 . S
C4636 C4637 1.404 . S
C4636 C4639 1.539 . S
C4637 C4633 1.408 . S
C4637 C4636 1.404 . S
C4637 H4649 0.930 . S
C4638 C4634 1.524 . S
C4638 H4650 0.956 . S
C4638 H4651 0.961 . S
C4638 H4652 0.961 . S
C4639 C4636 1.539 . S
C4639 H4653 0.958 . S
C4639 H4654 0.961 . S
C4639 H4655 0.960 . S
H4640 C4624 0.931 . S
H4641 C4629 0.929 . S
H4642 C4630 0.960 . S
H4643 C4630 0.962 . S
H4644 C4630 0.960 . S
H4645 C4631 0.961 . S
H4646 C4631 0.961 . S
H4647 C4631 0.961 . S
H4648 C4632 0.931 . S
H4649 C4637 0.930 . S
H4650 C4638 0.956 . S
H4651 C4638 0.961 . S
H4652 C4638 0.961 . S
H4653 C4639 0.958 . S
H4654 C4639 0.961 . S
H4655 C4639 0.960 . S
C4656 C4657 1.392 . S
C4656 C4658 1.392 1_554 S
C4656 H4672 0.930 . S
C4657 C4656 1.392 . S
C4657 C4661 1.376 . S
C4658 C4656 1.392 1_556 S
C4658 C4659 1.369 . S
C4658 C4662 1.531 . S
C4659 C4658 1.369 . S
C4659 C4660 1.410 . S
C4659 C4667 1.503 . S
C4660 C4659 1.410 . S
C4660 C4661 1.392 1_556 S
C4660 C4663 1.511 . S
C4661 C4657 1.376 . S
C4661 C4660 1.392 1_554 S
C4661 H4673 0.929 . S
C4662 C4658 1.531 . S
C4662 H4674 0.960 . S
C4662 H4675 0.962 1_556 S
C4662 H4676 0.960 . S
C4663 C4660 1.511 . S
C4663 H4677 0.961 1_556 S
C4663 H4678 0.961 1_556 S
C4663 H4679 0.961 . S
C4664 C4665 1.370 1_554 S
C4664 C4666 1.363 . S
C4664 H4680 0.931 . S
C4665 C4664 1.370 1_556 S
C4665 C4669 1.408 . S
C4666 C4664 1.363 . S
C4666 C4667 1.370 1_554 S
C4666 C4670 1.524 . S
C4667 C4659 1.503 . S
C4667 C4666 1.370 1_556 S
C4667 C4668 1.403 . S
C4668 C4667 1.403 . S
C4668 C4669 1.404 . S
C4668 C4671 1.539 . S
C4669 C4665 1.408 . S
C4669 C4668 1.404 . S
C4669 H4681 0.930 . S
C4670 C4666 1.524 . S
C4670 H4682 0.956 . S
C4670 H4683 0.961 . S
C4670 H4684 0.961 . S
C4671 C4668 1.539 . S
C4671 H4685 0.958 . S
C4671 H4686 0.961 . S
C4671 H4687 0.960 . S
H4672 C4656 0.930 . S
H4673 C4661 0.929 . S
H4674 C4662 0.960 . S
H4675 C4662 0.962 1_554 S
H4676 C4662 0.960 . S
H4677 C4663 0.961 1_554 S
H4678 C4663 0.961 1_554 S
H4679 C4663 0.961 . S
H4680 C4664 0.931 . S
H4681 C4669 0.930 . S
H4682 C4670 0.956 . S
H4683 C4670 0.961 . S
H4684 C4670 0.961 . S
H4685 C4671 0.958 . S
H4686 C4671 0.961 . S
H4687 C4671 0.960 . S
C4688 C4689 1.391 . S
C4688 C4690 1.394 . S
C4688 H4704 0.931 . S
C4689 C4688 1.391 . S
C4689 C4693 1.376 . S
C4690 C4688 1.394 . S
C4690 C4691 1.369 . S
C4690 C4694 1.531 . S
C4691 C4690 1.369 . S
C4691 C4692 1.410 . S
C4691 C4699 1.503 . S
C4692 C4691 1.410 . S
C4692 C4693 1.392 . S
C4692 C4695 1.511 . S
C4693 C4689 1.376 . S
C4693 C4692 1.392 . S
C4693 H4705 0.929 . S
C4694 C4690 1.531 . S
C4694 H4706 0.960 . S
C4694 H4707 0.962 . S
C4694 H4708 0.960 . S
C4695 C4692 1.511 . S
C4695 H4709 0.961 . S
C4695 H4710 0.961 . S
C4695 H4711 0.961 . S
C4696 C4697 1.370 . S
C4696 C4698 1.363 . S
C4696 H4712 0.931 . S
C4697 C4696 1.370 . S
C4697 C4701 1.408 . S
C4698 C4696 1.363 . S
C4698 C4699 1.370 . S
C4698 C4702 1.524 . S
C4699 C4691 1.503 . S
C4699 C4698 1.370 . S
C4699 C4700 1.403 . S
C4700 C4699 1.403 . S
C4700 C4701 1.404 . S
C4700 C4703 1.539 . S
C4701 C4697 1.408 . S
C4701 C4700 1.404 . S
C4701 H4713 0.930 . S
C4702 C4698 1.524 . S
C4702 H4714 0.956 . S
C4702 H4715 0.961 . S
C4702 H4716 0.961 . S
C4703 C4700 1.539 . S
C4703 H4717 0.958 . S
C4703 H4718 0.961 . S
C4703 H4719 0.960 . S
H4704 C4688 0.931 . S
H4705 C4693 0.929 . S
H4706 C4694 0.960 . S
H4707 C4694 0.962 . S
H4708 C4694 0.960 . S
H4709 C4695 0.961 . S
H4710 C4695 0.961 . S
H4711 C4695 0.961 . S
H4712 C4696 0.931 . S
H4713 C4701 0.930 . S
H4714 C4702 0.956 . S
H4715 C4702 0.961 . S
H4716 C4702 0.961 . S
H4717 C4703 0.958 . S
H4718 C4703 0.961 . S
H4719 C4703 0.960 . S
C4720 C4721 1.391 . S
C4720 C4722 1.394 . S
C4720 H4736 0.931 . S
C4721 C4720 1.391 . S
C4721 C4725 1.376 . S
C4722 C4720 1.394 . S
C4722 C4723 1.369 . S
C4722 C4726 1.531 . S
C4723 C4722 1.369 . S
C4723 C4724 1.410 . S
C4723 C4731 1.503 . S
C4724 C4723 1.410 . S
C4724 C4725 1.392 . S
C4724 C4727 1.511 . S
C4725 C4721 1.376 . S
C4725 C4724 1.392 . S
C4725 H4737 0.929 . S
C4726 C4722 1.531 . S
C4726 H4738 0.960 . S
C4726 H4739 0.962 . S
C4726 H4740 0.960 . S
C4727 C4724 1.511 . S
C4727 H4741 0.961 . S
C4727 H4742 0.961 . S
C4727 H4743 0.961 . S
C4728 C4729 1.370 . S
C4728 C4730 1.363 . S
C4728 H4744 0.931 . S
C4729 C4728 1.370 . S
C4729 C4733 1.408 . S
C4730 C4728 1.363 . S
C4730 C4731 1.370 . S
C4730 C4734 1.524 . S
C4731 C4723 1.503 . S
C4731 C4730 1.370 . S
C4731 C4732 1.403 . S
C4732 C4731 1.403 . S
C4732 C4733 1.404 . S
C4732 C4735 1.539 . S
C4733 C4729 1.408 . S
C4733 C4732 1.404 . S
C4733 H4745 0.930 . S
C4734 C4730 1.524 . S
C4734 H4746 0.956 . S
C4734 H4747 0.961 . S
C4734 H4748 0.961 . S
C4735 C4732 1.539 . S
C4735 H4749 0.958 . S
C4735 H4750 0.961 . S
C4735 H4751 0.960 . S
H4736 C4720 0.931 . S
H4737 C4725 0.929 . S
H4738 C4726 0.960 . S
H4739 C4726 0.962 . S
H4740 C4726 0.960 . S
H4741 C4727 0.961 . S
H4742 C4727 0.961 . S
H4743 C4727 0.961 . S
H4744 C4728 0.931 . S
H4745 C4733 0.930 . S
H4746 C4734 0.956 . S
H4747 C4734 0.961 . S
H4748 C4734 0.961 . S
H4749 C4735 0.958 . S
H4750 C4735 0.961 . S
H4751 C4735 0.960 . S
C4752 C4753 1.391 . S
C4752 C4754 1.394 . S
C4752 H4768 0.931 . S
C4753 C4752 1.391 . S
C4753 C4757 1.376 . S
C4754 C4752 1.394 . S
C4754 C4755 1.369 . S
C4754 C4758 1.531 . S
C4755 C4754 1.369 . S
C4755 C4756 1.410 . S
C4755 C4763 1.503 . S
C4756 C4755 1.410 . S
C4756 C4757 1.392 . S
C4756 C4759 1.511 . S
C4757 C4753 1.376 . S
C4757 C4756 1.392 . S
C4757 H4769 0.929 . S
C4758 C4754 1.531 . S
C4758 H4770 0.960 . S
C4758 H4771 0.962 . S
C4758 H4772 0.960 . S
C4759 C4756 1.511 . S
C4759 H4773 0.961 . S
C4759 H4774 0.961 . S
C4759 H4775 0.961 . S
C4760 C4761 1.370 . S
C4760 C4762 1.363 . S
C4760 H4776 0.931 . S
C4761 C4760 1.370 . S
C4761 C4765 1.408 . S
C4762 C4760 1.363 . S
C4762 C4763 1.370 . S
C4762 C4766 1.524 . S
C4763 C4755 1.503 . S
C4763 C4762 1.370 . S
C4763 C4764 1.403 . S
C4764 C4763 1.403 . S
C4764 C4765 1.404 . S
C4764 C4767 1.539 . S
C4765 C4761 1.408 . S
C4765 C4764 1.404 . S
C4765 H4777 0.930 . S
C4766 C4762 1.524 . S
C4766 H4778 0.956 . S
C4766 H4779 0.961 . S
C4766 H4780 0.961 . S
C4767 C4764 1.539 . S
C4767 H4781 0.958 . S
C4767 H4782 0.961 . S
C4767 H4783 0.960 . S
H4768 C4752 0.931 . S
H4769 C4757 0.929 . S
H4770 C4758 0.960 . S
H4771 C4758 0.962 . S
H4772 C4758 0.960 . S
H4773 C4759 0.961 . S
H4774 C4759 0.961 . S
H4775 C4759 0.961 . S
H4776 C4760 0.931 . S
H4777 C4765 0.930 . S
H4778 C4766 0.956 . S
H4779 C4766 0.961 . S
H4780 C4766 0.961 . S
H4781 C4767 0.958 . S
H4782 C4767 0.961 . S
H4783 C4767 0.960 . S
C4784 C4785 1.391 . S
C4784 C4786 1.394 . S
C4784 H4800 0.931 . S
C4785 C4784 1.391 . S
C4785 C4789 1.376 . S
C4786 C4784 1.394 . S
C4786 C4787 1.369 . S
C4786 C4790 1.531 . S
C4787 C4786 1.369 . S
C4787 C4788 1.410 . S
C4787 C4795 1.503 . S
C4788 C4787 1.410 . S
C4788 C4789 1.392 . S
C4788 C4791 1.511 . S
C4789 C4785 1.376 . S
C4789 C4788 1.392 . S
C4789 H4801 0.929 . S
C4790 C4786 1.531 . S
C4790 H4802 0.960 . S
C4790 H4803 0.962 . S
C4790 H4804 0.960 . S
C4791 C4788 1.511 . S
C4791 H4805 0.961 . S
C4791 H4806 0.961 . S
C4791 H4807 0.961 . S
C4792 C4793 1.370 . S
C4792 C4794 1.363 . S
C4792 H4808 0.931 . S
C4793 C4792 1.370 . S
C4793 C4797 1.408 . S
C4794 C4792 1.363 . S
C4794 C4795 1.370 . S
C4794 C4798 1.524 . S
C4795 C4787 1.503 . S
C4795 C4794 1.370 . S
C4795 C4796 1.403 . S
C4796 C4795 1.403 . S
C4796 C4797 1.404 . S
C4796 C4799 1.539 . S
C4797 C4793 1.408 . S
C4797 C4796 1.404 . S
C4797 H4809 0.930 . S
C4798 C4794 1.524 . S
C4798 H4810 0.956 . S
C4798 H4811 0.961 . S
C4798 H4812 0.961 . S
C4799 C4796 1.539 . S
C4799 H4813 0.958 . S
C4799 H4814 0.961 . S
C4799 H4815 0.960 . S
H4800 C4784 0.931 . S
H4801 C4789 0.929 . S
H4802 C4790 0.960 . S
H4803 C4790 0.962 . S
H4804 C4790 0.960 . S
H4805 C4791 0.961 . S
H4806 C4791 0.961 . S
H4807 C4791 0.961 . S
H4808 C4792 0.931 . S
H4809 C4797 0.930 . S
H4810 C4798 0.956 . S
H4811 C4798 0.961 . S
H4812 C4798 0.961 . S
H4813 C4799 0.958 . S
H4814 C4799 0.961 . S
H4815 C4799 0.960 . S
C4816 C4817 1.391 1_655 S
C4816 C4818 1.394 . S
C4816 H4832 0.931 . S
C4817 C4816 1.391 1_455 S
C4817 C4821 1.376 . S
C4818 C4816 1.394 . S
C4818 C4819 1.369 1_655 S
C4818 C4822 1.531 . S
C4819 C4818 1.369 1_455 S
C4819 C4820 1.410 . S
C4819 C4827 1.503 . S
C4820 C4819 1.410 . S
C4820 C4821 1.392 . S
C4820 C4823 1.511 . S
C4821 C4817 1.376 . S
C4821 C4820 1.392 . S
C4821 H4833 0.929 . S
C4822 C4818 1.531 . S
C4822 H4834 0.960 . S
C4822 H4835 0.962 . S
C4822 H4836 0.960 . S
C4823 C4820 1.511 . S
C4823 H4837 0.961 . S
C4823 H4838 0.961 . S
C4823 H4839 0.961 . S
C4824 C4825 1.370 . S
C4824 C4826 1.363 . S
C4824 H4840 0.931 . S
C4825 C4824 1.370 . S
C4825 C4829 1.408 1_655 S
C4826 C4824 1.363 . S
C4826 C4827 1.370 1_655 S
C4826 C4830 1.524 . S
C4827 C4819 1.503 . S
C4827 C4826 1.370 1_455 S
C4827 C4828 1.403 . S
C4828 C4827 1.403 . S
C4828 C4829 1.404 . S
C4828 C4831 1.539 . S
C4829 C4825 1.408 1_455 S
C4829 C4828 1.404 . S
C4829 H4841 0.930 . S
C4830 C4826 1.524 . S
C4830 H4842 0.956 . S
C4830 H4843 0.961 . S
C4830 H4844 0.950 1_556 S
C4831 C4828 1.539 . S
C4831 H4845 0.958 . S
C4831 H4846 0.961 . S
C4831 H4847 0.960 . S
H4832 C4816 0.931 . S
H4833 C4821 0.929 . S
H4834 C4822 0.960 . S
H4835 C4822 0.962 . S
H4836 C4822 0.960 . S
H4837 C4823 0.961 . S
H4838 C4823 0.961 . S
H4839 C4823 0.961 . S
H4840 C4824 0.931 . S
H4841 C4829 0.930 . S
H4842 C4830 0.956 . S
H4843 C4830 0.961 . S
H4844 C4830 0.950 1_554 S
H4845 C4831 0.958 . S
H4846 C4831 0.961 . S
H4847 C4831 0.960 . S
C4848 C4849 1.391 . S
C4848 C4850 1.394 . S
C4848 H4864 0.931 . S
C4849 C4848 1.391 . S
C4849 C4853 1.376 . S
C4850 C4848 1.394 . S
C4850 C4851 1.369 . S
C4850 C4854 1.531 . S
C4851 C4850 1.369 . S
C4851 C4852 1.410 . S
C4851 C4859 1.503 . S
C4852 C4851 1.410 . S
C4852 C4853 1.392 . S
C4852 C4855 1.511 . S
C4853 C4849 1.376 . S
C4853 C4852 1.392 . S
C4853 H4865 0.929 . S
C4854 C4850 1.531 . S
C4854 H4866 0.960 . S
C4854 H4867 0.962 . S
C4854 H4868 0.960 . S
C4855 C4852 1.511 . S
C4855 H4869 0.961 . S
C4855 H4870 0.961 . S
C4855 H4871 0.961 . S
C4856 C4857 1.370 . S
C4856 C4858 1.363 . S
C4856 H4872 0.931 . S
C4857 C4856 1.370 . S
C4857 C4861 1.408 . S
C4858 C4856 1.363 . S
C4858 C4859 1.370 . S
C4858 C4862 1.524 . S
C4859 C4851 1.503 . S
C4859 C4858 1.370 . S
C4859 C4860 1.403 . S
C4860 C4859 1.403 . S
C4860 C4861 1.404 . S
C4860 C4863 1.539 . S
C4861 C4857 1.408 . S
C4861 C4860 1.404 . S
C4861 H4873 0.930 . S
C4862 C4858 1.524 . S
C4862 H4874 0.956 . S
C4862 H4875 0.961 . S
C4862 H4876 0.961 . S
C4863 C4860 1.539 . S
C4863 H4877 0.958 . S
C4863 H4878 0.961 . S
C4863 H4879 0.960 . S
H4864 C4848 0.931 . S
H4865 C4853 0.929 . S
H4866 C4854 0.960 . S
H4867 C4854 0.962 . S
H4868 C4854 0.960 . S
H4869 C4855 0.961 . S
H4870 C4855 0.961 . S
H4871 C4855 0.961 . S
H4872 C4856 0.931 . S
H4873 C4861 0.930 . S
H4874 C4862 0.956 . S
H4875 C4862 0.961 . S
H4876 C4862 0.961 . S
H4877 C4863 0.958 . S
H4878 C4863 0.961 . S
H4879 C4863 0.960 . S
C4880 C4881 1.391 . S
C4880 C4882 1.394 . S
C4880 H4896 0.931 . S
C4881 C4880 1.391 . S
C4881 C4885 1.376 . S
C4882 C4880 1.394 . S
C4882 C4883 1.369 . S
C4882 C4886 1.531 . S
C4883 C4882 1.369 . S
C4883 C4884 1.410 . S
C4883 C4891 1.503 . S
C4884 C4883 1.410 . S
C4884 C4885 1.392 . S
C4884 C4887 1.511 . S
C4885 C4881 1.376 . S
C4885 C4884 1.392 . S
C4885 H4897 0.929 . S
C4886 C4882 1.531 . S
C4886 H4898 0.960 . S
C4886 H4899 0.962 . S
C4886 H4900 0.960 . S
C4887 C4884 1.511 . S
C4887 H4901 0.961 . S
C4887 H4902 0.961 . S
C4887 H4903 0.961 . S
C4888 C4889 1.370 . S
C4888 C4890 1.363 . S
C4888 H4904 0.931 . S
C4889 C4888 1.370 . S
C4889 C4893 1.408 . S
C4890 C4888 1.363 . S
C4890 C4891 1.370 . S
C4890 C4894 1.524 . S
C4891 C4883 1.503 . S
C4891 C4890 1.370 . S
C4891 C4892 1.403 . S
C4892 C4891 1.403 . S
C4892 C4893 1.404 . S
C4892 C4895 1.539 . S
C4893 C4889 1.408 . S
C4893 C4892 1.404 . S
C4893 H4905 0.930 . S
C4894 C4890 1.524 . S
C4894 H4906 0.956 . S
C4894 H4907 0.961 . S
C4894 H4908 0.961 1_554 S
C4895 C4892 1.539 . S
C4895 H4909 0.958 . S
C4895 H4910 0.961 . S
C4895 H4911 0.960 . S
H4896 C4880 0.931 . S
H4897 C4885 0.929 . S
H4898 C4886 0.960 . S
H4899 C4886 0.962 . S
H4900 C4886 0.960 . S
H4901 C4887 0.961 . S
H4902 C4887 0.961 . S
H4903 C4887 0.961 . S
H4904 C4888 0.931 . S
H4905 C4893 0.930 . S
H4906 C4894 0.956 . S
H4907 C4894 0.961 . S
H4908 C4894 0.961 1_556 S
H4909 C4895 0.958 . S
H4910 C4895 0.961 . S
H4911 C4895 0.960 . S
C4912 C4913 1.391 . S
C4912 C4914 1.394 . S
C4912 H4928 0.931 . S
C4913 C4912 1.391 . S
C4913 C4917 1.376 . S
C4914 C4912 1.394 . S
C4914 C4915 1.369 . S
C4914 C4918 1.531 . S
C4915 C4914 1.369 . S
C4915 C4916 1.410 . S
C4915 C4923 1.503 . S
C4916 C4915 1.410 . S
C4916 C4917 1.392 . S
C4916 C4919 1.511 . S
C4917 C4913 1.376 . S
C4917 C4916 1.392 . S
C4917 H4929 0.929 . S
C4918 C4914 1.531 . S
C4918 H4930 0.960 . S
C4918 H4931 0.962 . S
C4918 H4932 0.960 . S
C4919 C4916 1.511 . S
C4919 H4933 0.961 . S
C4919 H4934 0.961 . S
C4919 H4935 0.961 . S
C4920 C4921 1.370 . S
C4920 C4922 1.363 . S
C4920 H4936 0.931 . S
C4921 C4920 1.370 . S
C4921 C4925 1.408 . S
C4922 C4920 1.363 . S
C4922 C4923 1.370 . S
C4922 C4926 1.524 . S
C4923 C4915 1.503 . S
C4923 C4922 1.370 . S
C4923 C4924 1.403 . S
C4924 C4923 1.403 . S
C4924 C4925 1.404 . S
C4924 C4927 1.539 . S
C4925 C4921 1.408 . S
C4925 C4924 1.404 . S
C4925 H4937 0.930 . S
C4926 C4922 1.524 . S
C4926 H4938 0.956 . S
C4926 H4939 0.961 . S
C4926 H4940 0.961 . S
C4927 C4924 1.539 . S
C4927 H4941 0.958 . S
C4927 H4942 0.961 . S
C4927 H4943 0.960 . S
H4928 C4912 0.931 . S
H4929 C4917 0.929 . S
H4930 C4918 0.960 . S
H4931 C4918 0.962 . S
H4932 C4918 0.960 . S
H4933 C4919 0.961 . S
H4934 C4919 0.961 . S
H4935 C4919 0.961 . S
H4936 C4920 0.931 . S
H4937 C4925 0.930 . S
H4938 C4926 0.956 . S
H4939 C4926 0.961 . S
H4940 C4926 0.961 . S
H4941 C4927 0.958 . S
H4942 C4927 0.961 . S
H4943 C4927 0.960 . S
C4944 C4945 1.391 1_655 S
C4944 C4946 1.394 . S
C4944 H4960 0.931 . S
C4945 C4944 1.391 1_455 S
C4945 C4949 1.376 . S
C4946 C4944 1.394 . S
C4946 C4947 1.369 1_655 S
C4946 C4950 1.531 . S
C4947 C4946 1.369 1_455 S
C4947 C4948 1.410 . S
C4947 C4955 1.503 . S
C4948 C4947 1.410 . S
C4948 C4949 1.392 . S
C4948 C4951 1.511 . S
C4949 C4945 1.376 . S
C4949 C4948 1.392 . S
C4949 H4961 0.929 . S
C4950 C4946 1.531 . S
C4950 H4962 0.960 . S
C4950 H4963 0.962 . S
C4950 H4964 0.960 . S
C4951 C4948 1.511 . S
C4951 H4965 0.961 . S
C4951 H4966 0.961 . S
C4951 H4967 0.961 . S
C4952 C4953 1.370 . S
C4952 C4954 1.363 . S
C4952 H4968 0.931 . S
C4953 C4952 1.370 . S
C4953 C4957 1.408 1_655 S
C4954 C4952 1.363 . S
C4954 C4955 1.370 1_655 S
C4954 C4958 1.524 . S
C4955 C4947 1.503 . S
C4955 C4954 1.370 1_455 S
C4955 C4956 1.403 . S
C4956 C4955 1.403 . S
C4956 C4957 1.404 . S
C4956 C4959 1.539 . S
C4957 C4953 1.408 1_455 S
C4957 C4956 1.404 . S
C4957 H4969 0.930 . S
C4958 C4954 1.524 . S
C4958 H4970 0.956 . S
C4958 H4971 0.916 1_655 S
C4958 H4972 0.961 . S
C4959 C4956 1.539 . S
C4959 H4973 0.958 . S
C4959 H4974 0.961 . S
C4959 H4975 0.960 . S
H4960 C4944 0.931 . S
H4961 C4949 0.929 . S
H4962 C4950 0.960 . S
H4963 C4950 0.962 . S
H4964 C4950 0.960 . S
H4965 C4951 0.961 . S
H4966 C4951 0.961 . S
H4967 C4951 0.961 . S
H4968 C4952 0.931 . S
H4969 C4957 0.930 . S
H4970 C4958 0.956 . S
H4971 C4958 0.916 1_455 S
H4972 C4958 0.961 . S
H4973 C4959 0.958 . S
H4974 C4959 0.961 . S
H4975 C4959 0.960 . S
C4976 C4977 1.391 . S
C4976 C4978 1.394 . S
C4976 H4992 0.931 . S
C4977 C4976 1.391 . S
C4977 C4981 1.376 . S
C4978 C4976 1.394 . S
C4978 C4979 1.369 . S
C4978 C4982 1.531 . S
C4979 C4978 1.369 . S
C4979 C4980 1.410 . S
C4979 C4987 1.503 . S
C4980 C4979 1.410 . S
C4980 C4981 1.392 . S
C4980 C4983 1.511 . S
C4981 C4977 1.376 . S
C4981 C4980 1.392 . S
C4981 H4993 0.929 . S
C4982 C4978 1.531 . S
C4982 H4994 0.960 . S
C4982 H4995 0.962 . S
C4982 H4996 0.960 . S
C4983 C4980 1.511 . S
C4983 H4997 0.961 . S
C4983 H4998 0.961 . S
C4983 H4999 0.961 . S
C4984 C4985 1.370 . S
C4984 C4986 1.363 . S
C4984 H5000 0.931 . S
C4985 C4984 1.370 . S
C4985 C4989 1.408 . S
C4986 C4984 1.363 . S
C4986 C4987 1.370 . S
C4986 C4990 1.524 . S
C4987 C4979 1.503 . S
C4987 C4986 1.370 . S
C4987 C4988 1.403 . S
C4988 C4987 1.403 . S
C4988 C4989 1.404 . S
C4988 C4991 1.539 . S
C4989 C4985 1.408 . S
C4989 C4988 1.404 . S
C4989 H5001 0.930 . S
C4990 C4986 1.524 . S
C4990 H5002 0.956 . S
C4990 H5003 0.961 . S
C4990 H5004 0.961 . S
C4991 C4988 1.539 . S
C4991 H5005 0.958 . S
C4991 H5006 0.961 . S
C4991 H5007 0.960 . S
H4992 C4976 0.931 . S
H4993 C4981 0.929 . S
H4994 C4982 0.960 . S
H4995 C4982 0.962 . S
H4996 C4982 0.960 . S
H4997 C4983 0.961 . S
H4998 C4983 0.961 . S
H4999 C4983 0.961 . S
H5000 C4984 0.931 . S
H5001 C4989 0.930 . S
H5002 C4990 0.956 . S
H5003 C4990 0.961 . S
H5004 C4990 0.961 . S
H5005 C4991 0.958 . S
H5006 C4991 0.961 . S
H5007 C4991 0.960 . S
C5008 C5009 1.391 . S
C5008 C5010 1.394 . S
C5008 H5024 0.931 . S
C5009 C5008 1.391 . S
C5009 C5013 1.376 . S
C5010 C5008 1.394 . S
C5010 C5011 1.369 . S
C5010 C5014 1.531 . S
C5011 C5010 1.369 . S
C5011 C5012 1.410 . S
C5011 C5019 1.503 . S
C5012 C5011 1.410 . S
C5012 C5013 1.392 . S
C5012 C5015 1.511 . S
C5013 C5009 1.376 . S
C5013 C5012 1.392 . S
C5013 H5025 0.929 . S
C5014 C5010 1.531 . S
C5014 H5026 0.960 . S
C5014 H5027 0.962 . S
C5014 H5028 0.960 . S
C5015 C5012 1.511 . S
C5015 H5029 0.961 . S
C5015 H5030 0.961 . S
C5015 H5031 0.961 . S
C5016 C5017 1.370 . S
C5016 C5018 1.363 . S
C5016 H5032 0.931 . S
C5017 C5016 1.370 . S
C5017 C5021 1.408 . S
C5018 C5016 1.363 . S
C5018 C5019 1.370 . S
C5018 C5022 1.524 . S
C5019 C5011 1.503 . S
C5019 C5018 1.370 . S
C5019 C5020 1.403 . S
C5020 C5019 1.403 . S
C5020 C5021 1.404 . S
C5020 C5023 1.539 . S
C5021 C5017 1.408 . S
C5021 C5020 1.404 . S
C5021 H5033 0.930 . S
C5022 C5018 1.524 . S
C5022 H5034 0.956 . S
C5022 H5035 0.961 . S
C5022 H5036 0.961 . S
C5023 C5020 1.539 . S
C5023 H5037 0.958 . S
C5023 H5038 0.961 . S
C5023 H5039 0.960 . S
H5024 C5008 0.931 . S
H5025 C5013 0.929 . S
H5026 C5014 0.960 . S
H5027 C5014 0.962 . S
H5028 C5014 0.960 . S
H5029 C5015 0.961 . S
H5030 C5015 0.961 . S
H5031 C5015 0.961 . S
H5032 C5016 0.931 . S
H5033 C5021 0.930 . S
H5034 C5022 0.956 . S
H5035 C5022 0.961 . S
H5036 C5022 0.961 . S
H5037 C5023 0.958 . S
H5038 C5023 0.961 . S
H5039 C5023 0.960 . S
C5040 C5041 1.391 . S
C5040 C5042 1.394 . S
C5040 H5056 0.931 . S
C5041 C5040 1.391 . S
C5041 C5045 1.376 . S
C5042 C5040 1.394 . S
C5042 C5043 1.369 . S
C5042 C5046 1.531 . S
C5043 C5042 1.369 . S
C5043 C5044 1.410 . S
C5043 C5051 1.503 . S
C5044 C5043 1.410 . S
C5044 C5045 1.392 . S
C5044 C5047 1.511 . S
C5045 C5041 1.376 . S
C5045 C5044 1.392 . S
C5045 H5057 0.929 . S
C5046 C5042 1.531 . S
C5046 H5058 0.960 . S
C5046 H5059 0.962 . S
C5046 H5060 0.960 . S
C5047 C5044 1.511 . S
C5047 H5061 0.961 . S
C5047 H5062 0.961 . S
C5047 H5063 0.961 . S
C5048 C5049 1.370 . S
C5048 C5050 1.363 . S
C5048 H5064 0.931 . S
C5049 C5048 1.370 . S
C5049 C5053 1.408 . S
C5050 C5048 1.363 . S
C5050 C5051 1.370 . S
C5050 C5054 1.524 . S
C5051 C5043 1.503 . S
C5051 C5050 1.370 . S
C5051 C5052 1.403 . S
C5052 C5051 1.403 . S
C5052 C5053 1.404 . S
C5052 C5055 1.539 . S
C5053 C5049 1.408 . S
C5053 C5052 1.404 . S
C5053 H5065 0.930 . S
C5054 C5050 1.524 . S
C5054 H5066 0.956 . S
C5054 H5067 0.961 . S
C5054 H5068 0.961 . S
C5055 C5052 1.539 . S
C5055 H5069 0.958 . S
C5055 H5070 0.961 . S
C5055 H5071 0.960 . S
H5056 C5040 0.931 . S
H5057 C5045 0.929 . S
H5058 C5046 0.960 . S
H5059 C5046 0.962 . S
H5060 C5046 0.960 . S
H5061 C5047 0.961 . S
H5062 C5047 0.961 . S
H5063 C5047 0.961 . S
H5064 C5048 0.931 . S
H5065 C5053 0.930 . S
H5066 C5054 0.956 . S
H5067 C5054 0.961 . S
H5068 C5054 0.961 . S
H5069 C5055 0.958 . S
H5070 C5055 0.961 . S
H5071 C5055 0.960 . S
C5072 C5073 1.391 . S
C5072 C5074 1.394 . S
C5072 H5088 0.931 . S
C5073 C5072 1.391 . S
C5073 C5077 1.376 . S
C5074 C5072 1.394 . S
C5074 C5075 1.369 . S
C5074 C5078 1.531 . S
C5075 C5074 1.369 . S
C5075 C5076 1.410 . S
C5075 C5083 1.503 . S
C5076 C5075 1.410 . S
C5076 C5077 1.392 . S
C5076 C5079 1.511 . S
C5077 C5073 1.376 . S
C5077 C5076 1.392 . S
C5077 H5089 0.929 . S
C5078 C5074 1.531 . S
C5078 H5090 0.960 . S
C5078 H5091 0.962 . S
C5078 H5092 0.960 . S
C5079 C5076 1.511 . S
C5079 H5093 0.961 . S
C5079 H5094 0.961 . S
C5079 H5095 0.961 . S
C5080 C5081 1.370 . S
C5080 C5082 1.363 . S
C5080 H5096 0.931 . S
C5081 C5080 1.370 . S
C5081 C5085 1.408 . S
C5082 C5080 1.363 . S
C5082 C5083 1.370 . S
C5082 C5086 1.524 . S
C5083 C5075 1.503 . S
C5083 C5082 1.370 . S
C5083 C5084 1.403 . S
C5084 C5083 1.403 . S
C5084 C5085 1.404 . S
C5084 C5087 1.539 . S
C5085 C5081 1.408 . S
C5085 C5084 1.404 . S
C5085 H5097 0.930 . S
C5086 C5082 1.524 . S
C5086 H5098 0.956 . S
C5086 H5099 0.961 . S
C5086 H5100 0.961 . S
C5087 C5084 1.539 . S
C5087 H5101 0.958 . S
C5087 H5102 0.961 . S
C5087 H5103 0.960 . S
H5088 C5072 0.931 . S
H5089 C5077 0.929 . S
H5090 C5078 0.960 . S
H5091 C5078 0.962 . S
H5092 C5078 0.960 . S
H5093 C5079 0.961 . S
H5094 C5079 0.961 . S
H5095 C5079 0.961 . S
H5096 C5080 0.931 . S
H5097 C5085 0.930 . S
H5098 C5086 0.956 . S
H5099 C5086 0.961 . S
H5100 C5086 0.961 . S
H5101 C5087 0.958 . S
H5102 C5087 0.961 . S
H5103 C5087 0.960 . S
C5104 C5105 1.391 . S
C5104 C5106 1.394 . S
C5104 H5120 0.931 . S
C5105 C5104 1.391 . S
C5105 C5109 1.376 . S
C5106 C5104 1.394 . S
C5106 C5107 1.369 . S
C5106 C5110 1.531 . S
C5107 C5106 1.369 . S
C5107 C5108 1.410 . S
C5107 C5115 1.503 . S
C5108 C5107 1.410 . S
C5108 C5109 1.392 . S
C5108 C5111 1.511 . S
C5109 C5105 1.376 . S
C5109 C5108 1.392 . S
C5109 H5121 0.929 . S
C5110 C5106 1.531 . S
C5110 H5122 0.960 . S
C5110 H5123 0.962 . S
C5110 H5124 0.960 . S
C5111 C5108 1.511 . S
C5111 H5125 0.961 . S
C5111 H5126 0.961 . S
C5111 H5127 0.961 . S
C5112 C5113 1.370 . S
C5112 C5114 1.363 . S
C5112 H5128 0.931 . S
C5113 C5112 1.370 . S
C5113 C5117 1.408 . S
C5114 C5112 1.363 . S
C5114 C5115 1.370 . S
C5114 C5118 1.524 . S
C5115 C5107 1.503 . S
C5115 C5114 1.370 . S
C5115 C5116 1.403 . S
C5116 C5115 1.403 . S
C5116 C5117 1.404 . S
C5116 C5119 1.539 . S
C5117 C5113 1.408 . S
C5117 C5116 1.404 . S
C5117 H5129 0.930 . S
C5118 C5114 1.524 . S
C5118 H5130 0.956 . S
C5118 H5131 0.961 . S
C5118 H5132 0.961 . S
C5119 C5116 1.539 . S
C5119 H5133 0.958 . S
C5119 H5134 0.961 . S
C5119 H5135 0.960 . S
H5120 C5104 0.931 . S
H5121 C5109 0.929 . S
H5122 C5110 0.960 . S
H5123 C5110 0.962 . S
H5124 C5110 0.960 . S
H5125 C5111 0.961 . S
H5126 C5111 0.961 . S
H5127 C5111 0.961 . S
H5128 C5112 0.931 . S
H5129 C5117 0.930 . S
H5130 C5118 0.956 . S
H5131 C5118 0.961 . S
H5132 C5118 0.961 . S
H5133 C5119 0.958 . S
H5134 C5119 0.961 . S
H5135 C5119 0.960 . S
C5136 C5137 1.391 . S
C5136 C5138 1.394 . S
C5136 H5152 0.931 . S
C5137 C5136 1.391 . S
C5137 C5141 1.376 . S
C5138 C5136 1.394 . S
C5138 C5139 1.369 . S
C5138 C5142 1.531 . S
C5139 C5138 1.369 . S
C5139 C5140 1.410 . S
C5139 C5147 1.503 . S
C5140 C5139 1.410 . S
C5140 C5141 1.392 . S
C5140 C5143 1.511 . S
C5141 C5137 1.376 . S
C5141 C5140 1.392 . S
C5141 H5153 0.929 . S
C5142 C5138 1.531 . S
C5142 H5154 0.960 . S
C5142 H5155 0.962 . S
C5142 H5156 0.960 . S
C5143 C5140 1.511 . S
C5143 H5157 0.961 . S
C5143 H5158 0.961 . S
C5143 H5159 0.961 . S
C5144 C5145 1.370 . S
C5144 C5146 1.363 . S
C5144 H5160 0.931 . S
C5145 C5144 1.370 . S
C5145 C5149 1.408 . S
C5146 C5144 1.363 . S
C5146 C5147 1.370 . S
C5146 C5150 1.524 . S
C5147 C5139 1.503 . S
C5147 C5146 1.370 . S
C5147 C5148 1.403 . S
C5148 C5147 1.403 . S
C5148 C5149 1.404 . S
C5148 C5151 1.539 . S
C5149 C5145 1.408 . S
C5149 C5148 1.404 . S
C5149 H5161 0.930 . S
C5150 C5146 1.524 . S
C5150 H5162 0.956 . S
C5150 H5163 0.961 . S
C5150 H5164 0.961 . S
C5151 C5148 1.539 . S
C5151 H5165 0.958 . S
C5151 H5166 0.961 . S
C5151 H5167 0.960 . S
H5152 C5136 0.931 . S
H5153 C5141 0.929 . S
H5154 C5142 0.960 . S
H5155 C5142 0.962 . S
H5156 C5142 0.960 . S
H5157 C5143 0.961 . S
H5158 C5143 0.961 . S
H5159 C5143 0.961 . S
H5160 C5144 0.931 . S
H5161 C5149 0.930 . S
H5162 C5150 0.956 . S
H5163 C5150 0.961 . S
H5164 C5150 0.961 . S
H5165 C5151 0.958 . S
H5166 C5151 0.961 . S
H5167 C5151 0.960 . S
C5168 C5169 1.391 . S
C5168 C5170 1.394 . S
C5168 H5184 0.931 . S
C5169 C5168 1.391 . S
C5169 C5173 1.376 . S
C5170 C5168 1.394 . S
C5170 C5171 1.369 . S
C5170 C5174 1.531 . S
C5171 C5170 1.369 . S
C5171 C5172 1.410 . S
C5171 C5179 1.503 . S
C5172 C5171 1.410 . S
C5172 C5173 1.392 . S
C5172 C5175 1.511 . S
C5173 C5169 1.376 . S
C5173 C5172 1.392 . S
C5173 H5185 0.929 . S
C5174 C5170 1.531 . S
C5174 H5186 0.960 . S
C5174 H5187 0.962 . S
C5174 H5188 0.960 . S
C5175 C5172 1.511 . S
C5175 H5189 0.961 . S
C5175 H5190 0.961 . S
C5175 H5191 0.961 . S
C5176 C5177 1.370 . S
C5176 C5178 1.363 . S
C5176 H5192 0.931 . S
C5177 C5176 1.370 . S
C5177 C5181 1.408 . S
C5178 C5176 1.363 . S
C5178 C5179 1.370 . S
C5178 C5182 1.524 . S
C5179 C5171 1.503 . S
C5179 C5178 1.370 . S
C5179 C5180 1.403 . S
C5180 C5179 1.403 . S
C5180 C5181 1.404 . S
C5180 C5183 1.539 . S
C5181 C5177 1.408 . S
C5181 C5180 1.404 . S
C5181 H5193 0.930 . S
C5182 C5178 1.524 . S
C5182 H5194 0.956 . S
C5182 H5195 0.961 . S
C5182 H5196 0.961 . S
C5183 C5180 1.539 . S
C5183 H5197 0.958 . S
C5183 H5198 0.961 . S
C5183 H5199 0.960 . S
H5184 C5168 0.931 . S
H5185 C5173 0.929 . S
H5186 C5174 0.960 . S
H5187 C5174 0.962 . S
H5188 C5174 0.960 . S
H5189 C5175 0.961 . S
H5190 C5175 0.961 . S
H5191 C5175 0.961 . S
H5192 C5176 0.931 . S
H5193 C5181 0.930 . S
H5194 C5182 0.956 . S
H5195 C5182 0.961 . S
H5196 C5182 0.961 . S
H5197 C5183 0.958 . S
H5198 C5183 0.961 . S
H5199 C5183 0.960 . S
C5200 C5201 1.391 . S
C5200 C5202 1.394 . S
C5200 H5216 0.931 . S
C5201 C5200 1.391 . S
C5201 C5205 1.376 . S
C5202 C5200 1.394 . S
C5202 C5203 1.369 . S
C5202 C5206 1.531 . S
C5203 C5202 1.369 . S
C5203 C5204 1.410 . S
C5203 C5211 1.503 . S
C5204 C5203 1.410 . S
C5204 C5205 1.392 . S
C5204 C5207 1.511 . S
C5205 C5201 1.376 . S
C5205 C5204 1.392 . S
C5205 H5217 0.929 . S
C5206 C5202 1.531 . S
C5206 H5218 0.960 . S
C5206 H5219 0.962 . S
C5206 H5220 0.960 . S
C5207 C5204 1.511 . S
C5207 H5221 0.961 . S
C5207 H5222 0.961 . S
C5207 H5223 0.961 . S
C5208 C5209 1.370 . S
C5208 C5210 1.363 . S
C5208 H5224 0.931 . S
C5209 C5208 1.370 . S
C5209 C5213 1.408 . S
C5210 C5208 1.363 . S
C5210 C5211 1.370 . S
C5210 C5214 1.524 . S
C5211 C5203 1.503 . S
C5211 C5210 1.370 . S
C5211 C5212 1.403 . S
C5212 C5211 1.403 . S
C5212 C5213 1.404 . S
C5212 C5215 1.539 . S
C5213 C5209 1.408 . S
C5213 C5212 1.404 . S
C5213 H5225 0.930 . S
C5214 C5210 1.524 . S
C5214 H5226 0.956 . S
C5214 H5227 0.961 . S
C5214 H5228 0.961 . S
C5215 C5212 1.539 . S
C5215 H5229 0.958 . S
C5215 H5230 0.961 . S
C5215 H5231 0.960 . S
H5216 C5200 0.931 . S
H5217 C5205 0.929 . S
H5218 C5206 0.960 . S
H5219 C5206 0.962 . S
H5220 C5206 0.960 . S
H5221 C5207 0.961 . S
H5222 C5207 0.961 . S
H5223 C5207 0.961 . S
H5224 C5208 0.931 . S
H5225 C5213 0.930 . S
H5226 C5214 0.956 . S
H5227 C5214 0.961 . S
H5228 C5214 0.961 . S
H5229 C5215 0.958 . S
H5230 C5215 0.961 . S
H5231 C5215 0.960 . S
C5232 C5233 1.391 . S
C5232 C5234 1.394 . S
C5232 H5248 0.931 . S
C5233 C5232 1.391 . S
C5233 C5237 1.376 . S
C5234 C5232 1.394 . S
C5234 C5235 1.369 . S
C5234 C5238 1.531 . S
C5235 C5234 1.369 . S
C5235 C5236 1.410 . S
C5235 C5243 1.503 . S
C5236 C5235 1.410 . S
C5236 C5237 1.392 . S
C5236 C5239 1.511 . S
C5237 C5233 1.376 . S
C5237 C5236 1.392 . S
C5237 H5249 0.929 . S
C5238 C5234 1.531 . S
C5238 H5250 0.960 . S
C5238 H5251 0.962 . S
C5238 H5252 0.960 . S
C5239 C5236 1.511 . S
C5239 H5253 0.961 . S
C5239 H5254 0.961 . S
C5239 H5255 0.961 . S
C5240 C5241 1.370 . S
C5240 C5242 1.363 . S
C5240 H5256 0.931 . S
C5241 C5240 1.370 . S
C5241 C5245 1.408 . S
C5242 C5240 1.363 . S
C5242 C5243 1.370 . S
C5242 C5246 1.524 . S
C5243 C5235 1.503 . S
C5243 C5242 1.370 . S
C5243 C5244 1.403 . S
C5244 C5243 1.403 . S
C5244 C5245 1.404 . S
C5244 C5247 1.539 . S
C5245 C5241 1.408 . S
C5245 C5244 1.404 . S
C5245 H5257 0.930 . S
C5246 C5242 1.524 . S
C5246 H5258 0.956 . S
C5246 H5259 0.961 . S
C5246 H5260 0.961 . S
C5247 C5244 1.539 . S
C5247 H5261 0.958 . S
C5247 H5262 0.961 . S
C5247 H5263 0.960 . S
H5248 C5232 0.931 . S
H5249 C5237 0.929 . S
H5250 C5238 0.960 . S
H5251 C5238 0.962 . S
H5252 C5238 0.960 . S
H5253 C5239 0.961 . S
H5254 C5239 0.961 . S
H5255 C5239 0.961 . S
H5256 C5240 0.931 . S
H5257 C5245 0.930 . S
H5258 C5246 0.956 . S
H5259 C5246 0.961 . S
H5260 C5246 0.961 . S
H5261 C5247 0.958 . S
H5262 C5247 0.961 . S
H5263 C5247 0.960 . S
C5264 C5265 1.391 . S
C5264 C5266 1.394 . S
C5264 H5280 0.931 . S
C5265 C5264 1.391 . S
C5265 C5269 1.376 . S
C5266 C5264 1.394 . S
C5266 C5267 1.369 . S
C5266 C5270 1.531 . S
C5267 C5266 1.369 . S
C5267 C5268 1.410 . S
C5267 C5275 1.503 . S
C5268 C5267 1.410 . S
C5268 C5269 1.392 . S
C5268 C5271 1.511 . S
C5269 C5265 1.376 . S
C5269 C5268 1.392 . S
C5269 H5281 0.929 . S
C5270 C5266 1.531 . S
C5270 H5282 0.960 . S
C5270 H5283 0.962 . S
C5270 H5284 0.960 . S
C5271 C5268 1.511 . S
C5271 H5285 0.961 . S
C5271 H5286 0.961 . S
C5271 H5287 0.961 . S
C5272 C5273 1.370 . S
C5272 C5274 1.363 . S
C5272 H5288 0.931 . S
C5273 C5272 1.370 . S
C5273 C5277 1.408 . S
C5274 C5272 1.363 . S
C5274 C5275 1.370 . S
C5274 C5278 1.524 . S
C5275 C5267 1.503 . S
C5275 C5274 1.370 . S
C5275 C5276 1.403 . S
C5276 C5275 1.403 . S
C5276 C5277 1.404 . S
C5276 C5279 1.539 . S
C5277 C5273 1.408 . S
C5277 C5276 1.404 . S
C5277 H5289 0.930 . S
C5278 C5274 1.524 . S
C5278 H5290 0.956 . S
C5278 H5291 0.961 . S
C5278 H5292 0.961 . S
C5279 C5276 1.539 . S
C5279 H5293 0.958 . S
C5279 H5294 0.961 . S
C5279 H5295 0.960 . S
H5280 C5264 0.931 . S
H5281 C5269 0.929 . S
H5282 C5270 0.960 . S
H5283 C5270 0.962 . S
H5284 C5270 0.960 . S
H5285 C5271 0.961 . S
H5286 C5271 0.961 . S
H5287 C5271 0.961 . S
H5288 C5272 0.931 . S
H5289 C5277 0.930 . S
H5290 C5278 0.956 . S
H5291 C5278 0.961 . S
H5292 C5278 0.961 . S
H5293 C5279 0.958 . S
H5294 C5279 0.961 . S
H5295 C5279 0.960 . S
C5296 C5297 1.391 . S
C5296 C5298 1.394 . S
C5296 H5312 0.931 . S
C5297 C5296 1.391 . S
C5297 C5301 1.376 . S
C5298 C5296 1.394 . S
C5298 C5299 1.369 . S
C5298 C5302 1.531 . S
C5299 C5298 1.369 . S
C5299 C5300 1.410 . S
C5299 C5307 1.503 . S
C5300 C5299 1.410 . S
C5300 C5301 1.392 . S
C5300 C5303 1.511 . S
C5301 C5297 1.376 . S
C5301 C5300 1.392 . S
C5301 H5313 0.929 . S
C5302 C5298 1.531 . S
C5302 H5314 0.960 . S
C5302 H5315 0.962 . S
C5302 H5316 0.960 . S
C5303 C5300 1.511 . S
C5303 H5317 0.961 . S
C5303 H5318 0.961 . S
C5303 H5319 0.961 . S
C5304 C5305 1.370 . S
C5304 C5306 1.363 . S
C5304 H5320 0.931 . S
C5305 C5304 1.370 . S
C5305 C5309 1.408 . S
C5306 C5304 1.363 . S
C5306 C5307 1.370 . S
C5306 C5310 1.524 . S
C5307 C5299 1.503 . S
C5307 C5306 1.370 . S
C5307 C5308 1.403 . S
C5308 C5307 1.403 . S
C5308 C5309 1.404 . S
C5308 C5311 1.539 . S
C5309 C5305 1.408 . S
C5309 C5308 1.404 . S
C5309 H5321 0.930 . S
C5310 C5306 1.524 . S
C5310 H5322 0.956 . S
C5310 H5323 0.961 . S
C5310 H5324 0.961 . S
C5311 C5308 1.539 . S
C5311 H5325 0.958 . S
C5311 H5326 0.961 . S
C5311 H5327 0.960 . S
H5312 C5296 0.931 . S
H5313 C5301 0.929 . S
H5314 C5302 0.960 . S
H5315 C5302 0.962 . S
H5316 C5302 0.960 . S
H5317 C5303 0.961 . S
H5318 C5303 0.961 . S
H5319 C5303 0.961 . S
H5320 C5304 0.931 . S
H5321 C5309 0.930 . S
H5322 C5310 0.956 . S
H5323 C5310 0.961 . S
H5324 C5310 0.961 . S
H5325 C5311 0.958 . S
H5326 C5311 0.961 . S
H5327 C5311 0.960 . S
C5328 C5329 1.391 . S
C5328 C5330 1.394 . S
C5328 H5344 0.931 . S
C5329 C5328 1.391 . S
C5329 C5333 1.376 . S
C5330 C5328 1.394 . S
C5330 C5331 1.369 . S
C5330 C5334 1.531 . S
C5331 C5330 1.369 . S
C5331 C5332 1.410 . S
C5331 C5339 1.503 . S
C5332 C5331 1.410 . S
C5332 C5333 1.392 . S
C5332 C5335 1.511 . S
C5333 C5329 1.376 . S
C5333 C5332 1.392 . S
C5333 H5345 0.929 . S
C5334 C5330 1.531 . S
C5334 H5346 0.960 . S
C5334 H5347 0.962 . S
C5334 H5348 0.960 . S
C5335 C5332 1.511 . S
C5335 H5349 0.961 . S
C5335 H5350 0.961 . S
C5335 H5351 0.961 . S
C5336 C5337 1.370 . S
C5336 C5338 1.363 . S
C5336 H5352 0.931 . S
C5337 C5336 1.370 . S
C5337 C5341 1.408 . S
C5338 C5336 1.363 . S
C5338 C5339 1.370 . S
C5338 C5342 1.524 . S
C5339 C5331 1.503 . S
C5339 C5338 1.370 . S
C5339 C5340 1.403 . S
C5340 C5339 1.403 . S
C5340 C5341 1.404 . S
C5340 C5343 1.539 . S
C5341 C5337 1.408 . S
C5341 C5340 1.404 . S
C5341 H5353 0.930 . S
C5342 C5338 1.524 . S
C5342 H5354 0.956 . S
C5342 H5355 0.961 . S
C5342 H5356 0.961 . S
C5343 C5340 1.539 . S
C5343 H5357 0.958 . S
C5343 H5358 0.961 . S
C5343 H5359 0.960 . S
H5344 C5328 0.931 . S
H5345 C5333 0.929 . S
H5346 C5334 0.960 . S
H5347 C5334 0.962 . S
H5348 C5334 0.960 . S
H5349 C5335 0.961 . S
H5350 C5335 0.961 . S
H5351 C5335 0.961 . S
H5352 C5336 0.931 . S
H5353 C5341 0.930 . S
H5354 C5342 0.956 . S
H5355 C5342 0.961 . S
H5356 C5342 0.961 . S
H5357 C5343 0.958 . S
H5358 C5343 0.961 . S
H5359 C5343 0.960 . S
C5360 C5361 1.391 1_556 S
C5360 C5362 1.394 . S
C5360 H5376 0.931 . S
C5361 C5360 1.391 1_554 S
C5361 C5365 1.376 . S
C5362 C5360 1.394 . S
C5362 C5363 1.369 . S
C5362 C5366 1.531 . S
C5363 C5362 1.369 . S
C5363 C5364 1.410 1_556 S
C5363 C5371 1.503 . S
C5364 C5363 1.410 1_554 S
C5364 C5365 1.392 . S
C5364 C5367 1.511 . S
C5365 C5361 1.376 . S
C5365 C5364 1.392 . S
C5365 H5377 0.929 . S
C5366 C5362 1.531 . S
C5366 H5378 0.960 . S
C5366 H5379 0.962 . S
C5366 H5380 0.960 . S
C5367 C5364 1.511 . S
C5367 H5381 0.961 . S
C5367 H5382 0.961 . S
C5367 H5383 0.961 . S
C5368 C5369 1.370 1_554 S
C5368 C5370 1.363 . S
C5368 H5384 0.931 . S
C5369 C5368 1.370 1_556 S
C5369 C5373 1.408 . S
C5370 C5368 1.363 . S
C5370 C5371 1.370 1_554 S
C5370 C5374 1.524 . S
C5371 C5363 1.503 . S
C5371 C5370 1.370 1_556 S
C5371 C5372 1.403 . S
C5372 C5371 1.403 . S
C5372 C5373 1.404 . S
C5372 C5375 1.539 . S
C5373 C5369 1.408 . S
C5373 C5372 1.404 . S
C5373 H5385 0.930 . S
C5374 C5370 1.524 . S
C5374 H5386 0.956 . S
C5374 H5387 0.961 . S
C5374 H5388 0.961 . S
C5375 C5372 1.539 . S
C5375 H5389 0.958 . S
C5375 H5390 0.961 . S
C5375 H5391 0.960 . S
H5376 C5360 0.931 . S
H5377 C5365 0.929 . S
H5378 C5366 0.960 . S
H5379 C5366 0.962 . S
H5380 C5366 0.960 . S
H5381 C5367 0.961 . S
H5382 C5367 0.961 . S
H5383 C5367 0.961 . S
H5384 C5368 0.931 . S
H5385 C5373 0.930 . S
H5386 C5374 0.956 . S
H5387 C5374 0.961 . S
H5388 C5374 0.961 . S
H5389 C5375 0.958 . S
H5390 C5375 0.961 . S
H5391 C5375 0.960 . S
C5392 C5393 1.391 . S
C5392 C5394 1.394 . S
C5392 H5408 0.931 . S
C5393 C5392 1.391 . S
C5393 C5397 1.376 . S
C5394 C5392 1.394 . S
C5394 C5395 1.369 . S
C5394 C5398 1.531 . S
C5395 C5394 1.369 . S
C5395 C5396 1.410 . S
C5395 C5403 1.503 . S
C5396 C5395 1.410 . S
C5396 C5397 1.392 . S
C5396 C5399 1.511 . S
C5397 C5393 1.376 . S
C5397 C5396 1.392 . S
C5397 H5409 0.929 . S
C5398 C5394 1.531 . S
C5398 H5410 0.960 . S
C5398 H5411 0.962 . S
C5398 H5412 0.960 . S
C5399 C5396 1.511 . S
C5399 H5413 0.961 . S
C5399 H5414 0.961 . S
C5399 H5415 0.961 . S
C5400 C5401 1.370 . S
C5400 C5402 1.363 . S
C5400 H5416 0.931 . S
C5401 C5400 1.370 . S
C5401 C5405 1.408 . S
C5402 C5400 1.363 . S
C5402 C5403 1.370 . S
C5402 C5406 1.524 . S
C5403 C5395 1.503 . S
C5403 C5402 1.370 . S
C5403 C5404 1.403 . S
C5404 C5403 1.403 . S
C5404 C5405 1.404 . S
C5404 C5407 1.539 . S
C5405 C5401 1.408 . S
C5405 C5404 1.404 . S
C5405 H5417 0.930 . S
C5406 C5402 1.524 . S
C5406 H5418 0.956 . S
C5406 H5419 0.961 . S
C5406 H5420 0.961 . S
C5407 C5404 1.539 . S
C5407 H5421 0.958 . S
C5407 H5422 0.961 . S
C5407 H5423 0.960 . S
H5408 C5392 0.931 . S
H5409 C5397 0.929 . S
H5410 C5398 0.960 . S
H5411 C5398 0.962 . S
H5412 C5398 0.960 . S
H5413 C5399 0.961 . S
H5414 C5399 0.961 . S
H5415 C5399 0.961 . S
H5416 C5400 0.931 . S
H5417 C5405 0.930 . S
H5418 C5406 0.956 . S
H5419 C5406 0.961 . S
H5420 C5406 0.961 . S
H5421 C5407 0.958 . S
H5422 C5407 0.961 . S
H5423 C5407 0.960 . S
C5424 C5425 1.391 . S
C5424 C5426 1.394 . S
C5424 H5440 0.931 . S
C5425 C5424 1.391 . S
C5425 C5429 1.376 1_554 S
C5426 C5424 1.394 . S
C5426 C5427 1.369 . S
C5426 C5430 1.531 . S
C5427 C5426 1.369 . S
C5427 C5428 1.410 1_554 S
C5427 C5435 1.503 . S
C5428 C5427 1.410 1_556 S
C5428 C5429 1.392 . S
C5428 C5431 1.511 . S
C5429 C5425 1.376 1_556 S
C5429 C5428 1.392 . S
C5429 H5441 0.929 . S
C5430 C5426 1.531 . S
C5430 H5442 0.960 . S
C5430 H5443 0.962 . S
C5430 H5444 0.960 . S
C5431 C5428 1.511 . S
C5431 H5445 0.961 . S
C5431 H5446 0.961 . S
C5431 H5447 0.961 . S
C5432 C5433 1.370 . S
C5432 C5434 1.363 . S
C5432 H5448 0.931 . S
C5433 C5432 1.370 . S
C5433 C5437 1.408 1_554 S
C5434 C5432 1.363 . S
C5434 C5435 1.370 . S
C5434 C5438 1.524 . S
C5435 C5427 1.503 . S
C5435 C5434 1.370 . S
C5435 C5436 1.403 1_554 S
C5436 C5435 1.403 1_556 S
C5436 C5437 1.404 . S
C5436 C5439 1.539 . S
C5437 C5433 1.408 1_556 S
C5437 C5436 1.404 . S
C5437 H5449 0.930 . S
C5438 C5434 1.524 . S
C5438 H5450 0.956 . S
C5438 H5451 0.961 . S
C5438 H5452 0.961 . S
C5439 C5436 1.539 . S
C5439 H5453 0.958 . S
C5439 H5454 0.961 . S
C5439 H5455 0.960 . S
H5440 C5424 0.931 . S
H5441 C5429 0.929 . S
H5442 C5430 0.960 . S
H5443 C5430 0.962 . S
H5444 C5430 0.960 . S
H5445 C5431 0.961 . S
H5446 C5431 0.961 . S
H5447 C5431 0.961 . S
H5448 C5432 0.931 . S
H5449 C5437 0.930 . S
H5450 C5438 0.956 . S
H5451 C5438 0.961 . S
H5452 C5438 0.961 . S
H5453 C5439 0.958 . S
H5454 C5439 0.961 . S
H5455 C5439 0.960 . S
C5456 C5457 1.391 . S
C5456 C5458 1.394 . S
C5456 H5472 0.931 . S
C5457 C5456 1.391 . S
C5457 C5461 1.376 . S
C5458 C5456 1.394 . S
C5458 C5459 1.369 . S
C5458 C5462 1.531 . S
C5459 C5458 1.369 . S
C5459 C5460 1.410 . S
C5459 C5467 1.503 . S
C5460 C5459 1.410 . S
C5460 C5461 1.392 . S
C5460 C5463 1.511 . S
C5461 C5457 1.376 . S
C5461 C5460 1.392 . S
C5461 H5473 0.929 . S
C5462 C5458 1.531 . S
C5462 H5474 0.960 . S
C5462 H5475 0.962 . S
C5462 H5476 0.960 . S
C5463 C5460 1.511 . S
C5463 H5477 0.961 . S
C5463 H5478 0.961 . S
C5463 H5479 0.961 . S
C5464 C5465 1.370 . S
C5464 C5466 1.363 . S
C5464 H5480 0.931 . S
C5465 C5464 1.370 . S
C5465 C5469 1.408 . S
C5466 C5464 1.363 . S
C5466 C5467 1.370 . S
C5466 C5470 1.524 . S
C5467 C5459 1.503 . S
C5467 C5466 1.370 . S
C5467 C5468 1.403 . S
C5468 C5467 1.403 . S
C5468 C5469 1.404 . S
C5468 C5471 1.539 . S
C5469 C5465 1.408 . S
C5469 C5468 1.404 . S
C5469 H5481 0.930 . S
C5470 C5466 1.524 . S
C5470 H5482 0.956 . S
C5470 H5483 0.961 . S
C5470 H5484 0.961 . S
C5471 C5468 1.539 . S
C5471 H5485 0.958 . S
C5471 H5486 0.961 . S
C5471 H5487 0.960 . S
H5472 C5456 0.931 . S
H5473 C5461 0.929 . S
H5474 C5462 0.960 . S
H5475 C5462 0.962 . S
H5476 C5462 0.960 . S
H5477 C5463 0.961 . S
H5478 C5463 0.961 . S
H5479 C5463 0.961 . S
H5480 C5464 0.931 . S
H5481 C5469 0.930 . S
H5482 C5470 0.956 . S
H5483 C5470 0.961 . S
H5484 C5470 0.961 . S
H5485 C5471 0.958 . S
H5486 C5471 0.961 . S
H5487 C5471 0.960 . S
C5488 C5489 1.391 . S
C5488 C5490 1.394 . S
C5488 H5504 0.931 . S
C5489 C5488 1.391 . S
C5489 C5493 1.376 . S
C5490 C5488 1.394 . S
C5490 C5491 1.369 . S
C5490 C5494 1.531 . S
C5491 C5490 1.369 . S
C5491 C5492 1.410 . S
C5491 C5499 1.503 . S
C5492 C5491 1.410 . S
C5492 C5493 1.392 . S
C5492 C5495 1.511 . S
C5493 C5489 1.376 . S
C5493 C5492 1.392 . S
C5493 H5505 0.929 . S
C5494 C5490 1.531 . S
C5494 H5506 0.960 . S
C5494 H5507 0.962 . S
C5494 H5508 0.960 . S
C5495 C5492 1.511 . S
C5495 H5509 0.961 . S
C5495 H5510 0.961 . S
C5495 H5511 0.961 . S
C5496 C5497 1.370 . S
C5496 C5498 1.363 . S
C5496 H5512 0.931 . S
C5497 C5496 1.370 . S
C5497 C5501 1.408 . S
C5498 C5496 1.363 . S
C5498 C5499 1.370 . S
C5498 C5502 1.524 . S
C5499 C5491 1.503 . S
C5499 C5498 1.370 . S
C5499 C5500 1.403 . S
C5500 C5499 1.403 . S
C5500 C5501 1.404 . S
C5500 C5503 1.539 . S
C5501 C5497 1.408 . S
C5501 C5500 1.404 . S
C5501 H5513 0.930 . S
C5502 C5498 1.524 . S
C5502 H5514 0.956 . S
C5502 H5515 0.961 . S
C5502 H5516 0.961 . S
C5503 C5500 1.539 . S
C5503 H5517 0.958 . S
C5503 H5518 0.961 . S
C5503 H5519 0.960 . S
H5504 C5488 0.931 . S
H5505 C5493 0.929 . S
H5506 C5494 0.960 . S
H5507 C5494 0.962 . S
H5508 C5494 0.960 . S
H5509 C5495 0.961 . S
H5510 C5495 0.961 . S
H5511 C5495 0.961 . S
H5512 C5496 0.931 . S
H5513 C5501 0.930 . S
H5514 C5502 0.956 . S
H5515 C5502 0.961 . S
H5516 C5502 0.961 . S
H5517 C5503 0.958 . S
H5518 C5503 0.961 . S
H5519 C5503 0.960 . S
C2457 C2128 1.124 . S
C2449 C49 1.211 . S
C2481 C137 1.087 . S
C2489 C2148 1.075 . S
C2513 C205 1.177 . S
C2521 C2170 1.105 . S
C2553 C2189 1.211 . S
C2545 C284 1.281 . S
C2577 C117 1.248 . S
C2585 C2210 1.186 . S
C2617 C2233 1.170 . S
C2609 C225 1.260 . S
C2649 C2256 1.040 . S
C2641 C321 1.043 . S
C2673 C29 1.192 . S
C2681 C2274 1.180 . S
C2705 C401 1.180 . S
C2713 C2130 1.166 . S
C2737 C497 1.247 . S
C2745 C2150 1.239 . S
C2777 C2172 1.091 . S
C2769 C585 1.106 . S
C2809 C2191 1.160 . S
C2801 C665 1.250 . S
C2833 C372 1.238 . S
C2841 C2212 1.155 . S
C2873 C2235 1.052 . S
C2865 C469 1.067 . S
C2905 C2252 1.236 . S
C2897 C557 1.258 . S
C2937 C2276 1.184 . S
C2929 C636 1.187 . S
C2969 C2126 1.158 1_556 S
C2961 C673 1.209 . S
C3001 C2298 1.043 . S
C2993 C724 1.043 . S
C3025 C821 1.225 . S
C3033 C2315 1.212 . S
C3065 C2338 1.149 . S
C3057 C909 1.274 . S
C3089 C381 1.225 . S
C3097 C2272 1.104 . S
C3129 C2168 1.239 . S
C3121 C489 1.247 . S
C3153 C849 1.071 . S
C3161 C2361 1.054 . S
C3193 C2377 1.117 . S
C3185 C1017 1.180 . S
C3217 C1085 1.209 . S
C3225 C2125 1.118 . S
C3257 C2378 1.201 . S
C3249 C1201 1.210 . S
C3281 C1289 1.320 . S
C3289 C2167 1.185 . S
C3313 C1349 1.118 . S
C3321 C2358 1.046 . S
C3353 C2211 1.090 . S
C3345 C1193 1.094 . S
C3385 C2314 1.148 . S
C3377 C1281 1.274 . S
C3417 C2255 1.232 . S
C3409 C1340 1.246 . S
C3449 C2399 1.300 . S
C3441 C1076 1.311 . S
C3481 C2129 1.301 . S
C3473 C1428 1.310 . S
C3505 C1516 1.111 . S
C3513 C2382 1.082 . S
C3545 C2171 1.187 . S
C3537 C1604 1.183 . S
C3569 C1701 1.222 . S
C3577 C2356 1.167 . S
C3601 C1457 1.256 1_565 S
C3609 C2209 1.171 . S
C3633 C1545 1.246 . S
C3641 C2318 1.230 . S
C3673 C2253 1.083 . S
C3665 C1633 1.091 . S
C3697 C1729 1.173 . S
C3705 C2403 1.150 . S
C3729 C1721 1.161 . S
C3737 C2127 1.154 . S
C3761 C1789 1.219 . S
C3769 C2297 1.227 . S
C3793 C1868 1.114 . S
C3801 C2232 1.079 . S
C3825 C1956 1.218 . S
C3833 C2335 1.142 . S
C3865 C2401 1.111 . S
C3857 C1437 1.213 . S
C3897 C2169 1.065 . S
C3889 C1553 1.128 . S
C3929 C2192 1.219 . S
C3921 C1897 1.220 . S
C3961 C2149 1.212 . S
C3953 C2081 1.325 . S
C3985 C233 1.244 . S
C3993 C2422 1.128 . S
C4025 C2379 1.068 . S
C4017 C313 1.073 . S
C4057 C2443 1.112 . S
C4049 C20 1.178 . S
C4081 C108 1.266 . S
C4089 C2357 1.229 . S
C4113 C293 1.248 . S
C4121 C2294 1.187 . S
C4153 C2317 1.133 . S
C4145 C57 1.251 . S
C4185 C2340 1.040 . S
C4177 C145 1.043 . S
C4217 C2400 1.176 . S
C4209 C196 1.196 . S
C4249 C2424 1.185 . S
C4241 C1025 1.200 . S
C4273 C761 1.246 . S
C4281 C2381 1.242 . S
C4305 C841 1.094 . S
C4313 C2445 1.088 . S
C4345 C2359 1.162 . S
C4337 C929 1.250 . S
C4377 C2296 1.134 . S
C4369 C997 1.252 . S
C4401 C733 1.068 . S
C4409 C2319 1.054 . S
C4441 C2336 1.240 . S
C4433 C812 1.252 . S
C4465 C900 1.187 . S
C4473 C2402 1.186 . S
C4505 C2420 1.158 . S
C4497 C937 1.217 . S
C4537 C2214 1.047 . S
C4529 C460 1.048 . S
C4569 C2231 1.210 . S
C4561 C548 1.227 . S
C4593 C645 1.269 . S
C4601 C2254 1.183 . S
C4633 C2398 1.153 . S
C4625 C988 1.225 . S
C4657 C753 1.257 . S
C4665 C2441 1.228 . S
C4697 C2193 1.051 . S
C4689 C577 1.055 . S
C4729 C2146 1.103 . S
C4721 C409 1.209 . S
C4753 C1261 1.184 . S
C4761 C2419 1.128 . S
C4793 C2147 1.196 . S
C4785 C1377 1.191 . S
C4825 C2440 1.231 . S
C4817 C1113 1.300 . S
C4849 C1173 1.112 . S
C4857 C2190 1.048 . S
C4881 C1369 1.096 . S
C4889 C2295 1.086 . S
C4913 C1105 1.262 . S
C4921 C2230 1.162 . S
C4945 C1164 1.216 . S
C4953 C2339 1.225 . S
C4977 C1252 1.309 . S
C4985 C2273 1.302 . S
C5017 C2423 1.285 . S
C5009 C2044 1.282 . S
C5041 C1780 1.131 . S
C5049 C2151 1.077 . S
C5081 C2444 1.201 . S
C5073 C1877 1.208 . S
C5105 C1965 1.226 . S
C5113 C2188 1.168 . S
C5137 C2073 1.259 . S
C5145 C2293 1.169 . S
C5177 C2234 1.219 . S
C5169 C1809 1.229 . S
C5201 C1905 1.087 . S
C5209 C2337 1.085 . S
C5241 C2277 1.144 . S
C5233 C1993 1.164 . S
C5273 C2421 1.121 . S
C5265 C1985 1.185 . S
C5305 C2213 1.219 . S
C5297 C1525 1.230 . S
C5329 C1613 1.114 . S
C5337 C2316 1.063 . S
C5369 C2251 1.139 . S
C5361 C1692 1.219 . S
C5401 C2275 1.124 . S
C5393 C2053 1.183 . S
C5425 C1817 1.112 . S
C5433 C2442 1.081 . S
C5465 C2360 1.223 . S
C5457 C1641 1.233 . S
C5497 C2380 1.223 . S
C5489 C1465 1.317 . S
