# Generated by pormake.
# Topology nia, (6,6)-cn, num edge types: 1
# Building blocks:
#     Node 0, Type 0, BuildingBlock: BETFEN_clean_sbu_0, # of connection points: 6
#     Node 1, Type 0, BuildingBlock: BETFEN_clean_sbu_0, # of connection points: 6
#     Node 2, Type 1, BuildingBlock: MIDCAF_clean_sbu_0, # of connection points: 6
#     Node 3, Type 1, BuildingBlock: MIDCAF_clean_sbu_0, # of connection points: 6
#     Edge 4, Type (0, 1), BuildingBlock: KIFKEQ_clean_linker_1, # of connection points: 2
#     Edge 5, Type (0, 1), BuildingBlock: KIFKEQ_clean_linker_1, # of connection points: 2
#     Edge 6, Type (0, 1), BuildingBlock: KIFKEQ_clean_linker_1, # of connection points: 2
#     Edge 7, Type (0, 1), BuildingBlock: KIFKEQ_clean_linker_1, # of connection points: 2
#     Edge 8, Type (0, 1), BuildingBlock: KIFKEQ_clean_linker_1, # of connection points: 2
#     Edge 9, Type (0, 1), BuildingBlock: KIFKEQ_clean_linker_1, # of connection points: 2
#     Edge 10, Type (0, 1), BuildingBlock: KIFKEQ_clean_linker_1, # of connection points: 2
#     Edge 11, Type (0, 1), BuildingBlock: KIFKEQ_clean_linker_1, # of connection points: 2
#     Edge 12, Type (0, 1), BuildingBlock: KIFKEQ_clean_linker_1, # of connection points: 2
#     Edge 13, Type (0, 1), BuildingBlock: KIFKEQ_clean_linker_1, # of connection points: 2
#     Edge 14, Type (0, 1), BuildingBlock: KIFKEQ_clean_linker_1, # of connection points: 2
#     Edge 15, Type (0, 1), BuildingBlock: KIFKEQ_clean_linker_1, # of connection points: 2
# Relax obj value: 0.219
# Max RMSD: 0.278
# Mean RMSD: 0.217
data_MOF--net-nia--node1-BETFEN_clean_sbu_0--node2-MIDCAF_clean_sbu_0--edge1-KIFKEQ_clean_linker_1
_symmetry_space_group_name_H-M    P1
_symmetry_Int_Tables_number       1
_symmetry_cell_setting            triclinic
loop_
_symmetry_equiv_pos_as_xyz
'x, y, z'
_cell_length_a     28.905998
_cell_length_b     28.912014
_cell_length_c     32.020914
_cell_angle_alpha  89.621015
_cell_angle_beta   89.935393
_cell_angle_gamma 134.87766
loop_
_atom_site_label
_atom_site_type_symbol
_atom_site_fract_x
_atom_site_fract_y
_atom_site_fract_z
_atom_type_partial_charge
Pr0 Pr 0.9652 0.01723 1.03084 0.0
Pr1 Pr 0.03423 0.97545 0.06013 0.0
C2 C 0.89826 0.04915 1.01862 0.0
C3 C 0.88783 0.07967 0.98818 0.0
C4 C 0.93727 0.14691 0.97912 0.0
C5 C 0.92398 0.17646 0.95456 0.0
C6 C 0.86116 0.13945 0.93847 0.0
C7 C 0.81269 0.07172 0.94574 0.0
C8 C 0.82584 0.04219 0.97057 0.0
C9 C 0.08403 0.08265 0.99082 0.0
C10 C 0.04591 0.0722 0.12084 0.0
C11 C 0.10453 0.94681 0.06818 0.0
C12 C 0.12805 0.92887 0.09835 0.0
C13 C 0.09402 0.89535 0.13565 0.0
C14 C 0.1143 0.87345 0.16179 0.0
C15 C 0.16893 0.88486 0.151 0.0
C16 C 0.20392 0.92046 0.11423 0.0
C17 C 0.18365 0.94223 0.08823 0.0
C18 C 0.91598 0.90969 0.10067 0.0
C19 C 0.94663 0.91482 0.97347 0.0
O20 O 0.95462 0.087 1.03753 0.0
O21 O 0.87452 -0.00832 1.00973 0.0
O22 O 0.07209 0.06855 1.02911 0.0
O23 O 0.03516 0.06747 0.97195 0.0
O24 O 0.0771 0.05671 0.10848 0.0
O25 O -0.00503 0.05261 0.10035 0.0
O26 O 0.04181 0.90302 0.06071 0.0
O27 O 0.13081 0.00658 0.06919 0.0
O28 O 0.92772 0.9249 0.06248 0.0
O29 O 0.96385 0.92193 0.11874 0.0
O30 O 0.9148 0.92839 0.98812 0.0
O31 O 0.00091 0.93819 0.99102 0.0
H32 H 0.98566 0.1772 0.99207 0.0
H33 H 0.96238 0.22871 0.94915 0.0
H34 H 0.76367 0.04213 0.93409 0.0
H35 H 0.78679 -0.00964 0.97728 0.0
H36 H 0.05104 0.88485 0.14405 0.0
H37 H 0.08669 0.84678 0.19007 0.0
H38 H 0.24549 0.92923 0.10452 0.0
H39 H 0.21032 0.96785 0.05947 0.0
Pr40 Pr 0.97536 0.03479 0.56262 0.0
Pr41 Pr 0.02315 0.96015 0.53007 0.0
C42 C 0.96576 0.11988 0.57282 0.0
C43 C 0.94526 0.14052 0.60306 0.0
C44 C 0.91245 0.10523 0.64017 0.0
C45 C 0.88941 0.12347 0.66705 0.0
C46 C 0.89892 0.17726 0.65716 0.0
C47 C 0.9333 0.21315 0.62031 0.0
C48 C 0.95625 0.19493 0.5936 0.0
C49 C 0.90474 0.91142 0.59926 0.0
C50 C 0.91949 0.94922 0.47367 0.0
C51 C 0.03364 0.87566 0.52055 0.0
C52 C 0.05476 0.85492 0.49096 0.0
C53 C 0.09037 0.89136 0.45471 0.0
C54 C 0.11445 0.87329 0.42882 0.0
C55 C 0.10326 0.81853 0.43886 0.0
C56 C 0.066 0.78143 0.47475 0.0
C57 C 0.04199 0.79948 0.50048 0.0
C58 C 0.09243 0.0825 0.49246 0.0
C59 C 0.07824 0.04557 0.6192 0.0
O60 O 0.91918 0.06182 0.55661 0.0
O61 O 0.01913 0.13424 0.58128 0.0
O62 O 0.94925 0.94208 0.57244 0.0
O63 O 0.89231 0.94564 0.60862 0.0
O64 O 0.93927 0.92096 0.48419 0.0
O65 O 0.93501 -0.00208 0.49479 0.0
O66 O 0.07989 0.93389 0.53666 0.0
O67 O 0.98014 0.86086 0.51163 0.0
O68 O 0.04943 0.0529 0.5203 0.0
O69 O 0.10462 0.0481 0.483 0.0
O70 O 0.05953 0.07462 0.60829 0.0
O71 O 0.06247 -0.00342 0.59829 0.0
H72 H 0.9037 0.06304 0.64791 0.0
H73 H 0.86363 0.09512 0.69531 0.0
H74 H 0.94045 0.25399 0.61121 0.0
H75 H 0.98126 0.22248 0.56495 0.0
H76 H 0.10056 0.93437 0.44692 0.0
H77 H 0.14241 0.90256 0.40124 0.0
H78 H 0.05738 0.73974 0.48394 0.0
H79 H 0.01485 0.77104 0.5285 0.0
Zn80 Zn 0.34439 0.60648 0.21427 0.0
Zn81 Zn 0.38415 0.64749 0.37587 0.0
Zn82 Zn 0.36816 0.62544 0.29504 0.0
C83 C 0.50552 0.71014 0.34121 0.0
C84 C 0.29973 0.51301 0.36617 0.0
O85 O 0.32593 0.66247 0.2726 0.0
O86 O 0.29861 0.6337 0.20645 0.0
C87 C 0.47991 0.69174 0.22413 0.0
O88 O 0.47341 0.68986 0.30684 0.0
O89 O 0.47741 0.69668 0.37588 0.0
O90 O 0.32186 0.55494 0.394 0.0
O91 O 0.31283 0.53025 0.32731 0.0
O92 O 0.43701 0.66746 0.1965 0.0
O93 O 0.46373 0.68095 0.26317 0.0
O94 O 0.30418 0.5199 0.28392 0.0
O95 O 0.2941 0.5129 0.21507 0.0
C96 C 0.28236 0.48629 0.25018 0.0
O97 O 0.33067 0.66766 0.31655 0.0
O98 O 0.3584 0.69456 0.38285 0.0
C99 C 0.30142 0.66097 0.23832 0.0
C100 C 0.33184 0.69219 0.35059 0.0
Zn101 Zn 0.65759 0.39286 0.87341 0.0
Zn102 Zn 0.61022 0.33814 0.71219 0.0
Zn103 Zn 0.62882 0.36733 0.79341 0.0
C104 C 0.6874 0.47266 0.71864 0.0
C105 C 0.4881 0.26974 0.75056 0.0
O106 O 0.67487 0.33479 0.81692 0.0
O107 O 0.69375 0.35652 0.88449 0.0
C108 C 0.72492 0.51136 0.83289 0.0
O109 O 0.67871 0.45855 0.758 0.0
O110 O 0.66431 0.42916 0.69182 0.0
O111 O 0.51449 0.27783 0.71615 0.0
O112 O 0.52276 0.29935 0.78358 0.0
O113 O 0.72023 0.48817 0.86794 0.0
O114 O 0.693 0.47384 0.80121 0.0
O115 O 0.53464 0.31261 0.82675 0.0
O116 O 0.56751 0.34422 0.89194 0.0
C117 C 0.52204 0.31205 0.86552 0.0
O118 O 0.66797 0.32591 0.77376 0.0
O119 O 0.64491 0.29941 0.70699 0.0
C120 C 0.69577 0.3335 0.85208 0.0
C121 C 0.66982 0.3023 0.74041 0.0
H122 H 0.29136 0.94002 0.17071 0.0
H123 H 0.08684 0.76311 0.18697 0.0
H124 H 0.32041 0.88538 0.19987 0.0
H125 H 0.11599 0.70943 0.21802 0.0
H126 H 0.19324 0.6148 0.1986 0.0
H127 H 0.15897 0.67028 0.18686 0.0
H128 H 0.32277 0.83411 0.25888 0.0
H129 H 0.35811 0.77884 0.26931 0.0
C130 C 0.2526 0.8898 0.18119 0.0
C131 C 0.18676 0.85565 0.17579 0.0
C132 C 0.26928 0.85867 0.19842 0.0
C133 C 0.22049 0.79271 0.21079 0.0
C134 C 0.15474 0.75995 0.20809 0.0
C135 C 0.13804 0.79101 0.19072 0.0
C136 C 0.22142 0.66237 0.21226 0.0
C137 C 0.27784 0.69237 0.23516 0.0
C138 C 0.2015 0.69395 0.20594 0.0
C139 C 0.23794 0.75661 0.22209 0.0
C140 C 0.29386 0.7861 0.24577 0.0
C141 C 0.31381 0.75435 0.25206 0.0
H142 H 0.0897 0.97865 0.6704 0.0
H143 H 0.16664 0.1701 0.6487 0.0
H144 H 0.1765 0.02449 0.72018 0.0
H145 H 0.25527 0.21663 0.69697 0.0
H146 H 0.41852 0.29465 0.77986 0.0
H147 H 0.30422 0.23182 0.76343 0.0
H148 H 0.2869 0.08688 0.70288 0.0
H149 H 0.39912 0.14858 0.72003 0.0
C150 C 0.12474 0.03045 0.67675 0.0
C151 C 0.12248 0.07113 0.655 0.0
C152 C 0.17446 0.05674 0.70526 0.0
C153 C 0.22385 0.12449 0.71184 0.0
C154 C 0.21802 0.16424 0.69288 0.0
C155 C 0.16746 0.13767 0.6649 0.0
C156 C 0.38905 0.24809 0.76442 0.0
C157 C 0.41706 0.22616 0.75104 0.0
C158 C 0.32398 0.21242 0.75471 0.0
C159 C 0.28642 0.15457 0.73145 0.0
C160 C 0.31362 0.13056 0.72127 0.0
C161 C 0.37823 0.16612 0.7308 0.0
H162 H -0.0007 0.12098 0.15155 0.0
H163 H 0.15046 0.12548 0.17062 0.0
H164 H 0.05405 0.21156 0.199 0.0
H165 H 0.20444 0.21533 0.21925 0.0
H166 H 0.16158 0.38019 0.28224 0.0
H167 H 0.0976 0.26547 0.26632 0.0
H168 H 0.2644 0.32646 0.20066 0.0
H169 H 0.32711 0.43937 0.21695 0.0
C170 C 0.04331 0.14008 0.16673 0.0
C171 C 0.07147 0.11714 0.15635 0.0
C172 C 0.07442 0.19175 0.19441 0.0
C173 C 0.13426 0.22147 0.21246 0.0
C174 C 0.15903 0.19429 0.20521 0.0
C175 C 0.12805 0.14276 0.17734 0.0
C176 C 0.18465 0.36822 0.26567 0.0
C177 C 0.24877 0.41786 0.25057 0.0
C178 C 0.1482 0.30289 0.25636 0.0
C179 C 0.17566 0.28677 0.23187 0.0
C180 C 0.24174 0.33665 0.21998 0.0
C181 C 0.27769 0.40149 0.22902 0.0
H182 H 0.77842 0.0929 0.69507 0.0
H183 H 0.95197 0.29845 0.67778 0.0
H184 H 0.72337 0.11948 0.72749 0.0
H185 H 0.89583 0.32487 0.70809 0.0
H186 H 0.78759 0.36123 0.7734 0.0
H187 H 0.84405 0.32674 0.76625 0.0
H188 H 0.6808 0.1588 0.69627 0.0
H189 H 0.62406 0.19203 0.70513 0.0
C190 C 0.80534 0.14379 0.69889 0.0
C191 C 0.8693 0.19352 0.68311 0.0
C192 C 0.77348 0.15902 0.71709 0.0
C193 C 0.80469 0.22425 0.71969 0.0
C194 C 0.87025 0.2741 0.70674 0.0
C195 C 0.90221 0.2589 0.68877 0.0
C196 C 0.76328 0.31593 0.75769 0.0
C197 C 0.7013 0.27871 0.74031 0.0
C198 C 0.79576 0.29653 0.75315 0.0
C199 C 0.76703 0.23998 0.73065 0.0
C200 C 0.70401 0.20189 0.71447 0.0
C201 C 0.67168 0.22122 0.71911 0.0
H202 H 0.84835 0.94065 0.08642 0.0
H203 H 0.84998 0.8193 0.16366 0.0
H204 H 0.74907 0.89668 0.12077 0.0
H205 H 0.74703 0.77016 0.19603 0.0
H206 H 0.57651 0.71184 0.26467 0.0
H207 H 0.68668 0.77322 0.23963 0.0
H208 H 0.64051 0.80818 0.12241 0.0
H209 H 0.53469 0.75461 0.14986 0.0
C210 C 0.82649 0.90353 0.11038 0.0
C211 C 0.85598 0.8826 0.12205 0.0
C212 C 0.76917 0.87779 0.13005 0.0
C213 C 0.73846 0.82852 0.16091 0.0
C214 C 0.76907 0.80845 0.17295 0.0
C215 C 0.8278 0.83601 0.15413 0.0
C216 C 0.5915 0.73584 0.23459 0.0
C217 C 0.54782 0.73067 0.21013 0.0
C218 C 0.6541 0.7694 0.21947 0.0
C219 C 0.67357 0.79646 0.17877 0.0
C220 C 0.62902 0.79027 0.15428 0.0
C221 C 0.56753 0.75855 0.1699 0.0
H222 H 0.95038 0.85558 0.59757 0.0
H223 H 0.79197 0.82717 0.64495 0.0
H224 H 0.90183 0.75274 0.62936 0.0
H225 H 0.74089 0.72213 0.6751 0.0
H226 H 0.68656 0.55806 0.75214 0.0
H227 H 0.74427 0.66768 0.72718 0.0
H228 H 0.81609 0.64058 0.62132 0.0
H229 H 0.76366 0.53434 0.64913 0.0
C230 C 0.90465 0.82677 0.61447 0.0
C231 C 0.87461 0.84892 0.61862 0.0
C232 C 0.87651 0.76755 0.63257 0.0
C233 C 0.81695 0.72842 0.65467 0.0
C234 C 0.78721 0.75114 0.65895 0.0
C235 C 0.81608 0.81106 0.64139 0.0
C236 C 0.71756 0.57741 0.72488 0.0
C237 C 0.72318 0.53928 0.70381 0.0
C238 C 0.74902 0.6393 0.70966 0.0
C239 C 0.78542 0.66364 0.67217 0.0
C240 C 0.79006 0.6246 0.65078 0.0
C241 C 0.75947 0.56331 0.66648 0.0
H242 H 0.2262 0.90291 0.40448 0.0
H243 H 0.04992 0.69745 0.4174 0.0
H244 H 0.28138 0.87602 0.37283 0.0
H245 H 0.10606 0.67059 0.38779 0.0
H246 H 0.21442 0.63603 0.3186 0.0
H247 H 0.15853 0.67058 0.32915 0.0
H248 H 0.32135 0.83324 0.40234 0.0
H249 H 0.37754 0.79992 0.39033 0.0
C250 C 0.19879 0.852 0.39993 0.0
C251 C 0.13383 0.80233 0.41407 0.0
C252 C 0.23072 0.83658 0.38221 0.0
C253 C 0.19855 0.77115 0.37838 0.0
C254 C 0.13236 0.72151 0.39007 0.0
C255 C 0.10037 0.73693 0.40761 0.0
C256 C 0.23864 0.68002 0.33604 0.0
C257 C 0.30051 0.71588 0.35323 0.0
C258 C 0.2065 0.69949 0.34244 0.0
C259 C 0.23539 0.75473 0.36662 0.0
C260 C 0.29806 0.79123 0.38291 0.0
C261 C 0.33008 0.77185 0.37642 0.0
H262 H 0.19422 0.12963 1.02845 0.0
H263 H 0.11334 0.10342 0.90731 0.0
H264 H 0.29778 0.18181 0.99557 0.0
H265 H 0.21769 0.15615 0.8742 0.0
H266 H 0.49074 0.34656 0.92928 0.0
H267 H 0.38325 0.28847 0.95752 0.0
H268 H 0.29467 0.13972 0.86411 0.0
H269 H 0.40365 0.19746 0.83648 0.0
C270 C 0.1986 0.13494 0.99476 0.0
C271 C 0.14604 0.11308 0.97044 0.0
C272 C 0.25791 0.16496 0.97594 0.0
C273 C 0.26589 0.17344 0.93235 0.0
C274 C 0.21276 0.15 0.90784 0.0
C275 C 0.15336 0.12034 0.92678 0.0
C276 C 0.44843 0.30145 0.91468 0.0
C277 C 0.45553 0.27697 0.88023 0.0
C278 C 0.38686 0.26815 0.93093 0.0
C279 C 0.33062 0.20943 0.91318 0.0
C280 C 0.33726 0.18525 0.87817 0.0
C281 C 0.39941 0.2185 0.86209 0.0
H282 H 0.04476 0.13631 0.49467 0.0
H283 H 0.1992 0.16269 0.44117 0.0
H284 H 0.08733 0.23461 0.45911 0.0
H285 H 0.24451 0.26353 0.40707 0.0
H286 H 0.29078 0.42208 0.32841 0.0
H287 H 0.23382 0.31323 0.35459 0.0
H288 H 0.174 0.34711 0.46433 0.0
H289 H 0.22595 0.45267 0.43633 0.0
C290 C 0.08835 0.16371 0.47558 0.0
C291 C 0.11916 0.14245 0.47096 0.0
C292 C 0.113 0.22027 0.45524 0.0
C293 C 0.16988 0.2577 0.43039 0.0
C294 C 0.20016 0.23568 0.4254 0.0
C295 C 0.17471 0.1783 0.44526 0.0
C296 C 0.26295 0.40484 0.35714 0.0
C297 C 0.26126 0.4451 0.37966 0.0
C298 C 0.23163 0.3431 0.37276 0.0
C299 C 0.19913 0.32101 0.41171 0.0
C300 C 0.19714 0.36144 0.43388 0.0
C301 C 0.22753 0.42244 0.41799 0.0
H302 H 0.89004 0.24551 0.96639 0.0
H303 H 0.79269 0.10633 0.86614 0.0
H304 H 0.85452 0.29424 0.93869 0.0
H305 H 0.75874 0.15707 0.83688 0.0
H306 H 0.63837 0.2099 0.83654 0.0
H307 H 0.68408 0.16542 0.85099 0.0
H308 H 0.86656 0.35789 0.88613 0.0
H309 H 0.81897 0.40043 0.87417 0.0
C310 C 0.86241 0.22646 0.93768 0.0
C311 C 0.84438 0.17233 0.91834 0.0
C312 C 0.84213 0.2546 0.92157 0.0
C313 C 0.80394 0.22998 0.88528 0.0
C314 C 0.78733 0.17677 0.86518 0.0
C315 C 0.80699 0.14791 0.88175 0.0
C316 C 0.68835 0.2423 0.84707 0.0
C317 C 0.72516 0.3081 0.85488 0.0
C318 C 0.71483 0.21717 0.85504 0.0
C319 C 0.77877 0.2578 0.87053 0.0
C320 C 0.81658 0.32468 0.87553 0.0
C321 C 0.78965 0.34927 0.86846 0.0
H322 H 0.86635 0.84393 0.42482 0.0
H323 H 0.86948 -0.00564 0.44197 0.0
H324 H 0.77669 0.78931 0.37574 0.0
H325 H 0.77919 0.93897 0.39415 0.0
H326 H 0.61189 0.83136 0.30988 0.0
H327 H 0.72648 0.8955 0.32664 0.0
H328 H 0.66516 0.72901 0.39349 0.0
H329 H 0.55235 0.66603 0.37625 0.0
C330 C 0.84881 0.86601 0.41765 0.0
C331 C 0.87395 0.92256 0.43827 0.0
C332 C 0.7974 0.83468 0.3895 0.0
C333 C 0.76999 0.85913 0.38156 0.0
C334 C 0.79919 0.91885 0.39928 0.0
C335 C 0.85064 0.95026 0.42725 0.0
C336 C 0.62377 0.80843 0.32696 0.0
C337 C 0.57409 0.74428 0.34204 0.0
C338 C 0.689 0.84494 0.33671 0.0
C339 C 0.70496 0.81757 0.36173 0.0
C340 C 0.65506 0.75156 0.37376 0.0
C341 C 0.5903 0.7155 0.36421 0.0
H342 H 0.81896 0.81757 0.95272 0.0
H343 H 0.01173 0.90868 0.91578 0.0
H344 H 0.77097 0.73059 0.90372 0.0
H345 H 0.96417 0.82391 0.86402 0.0
H346 H 0.85448 0.60802 0.84443 0.0
H347 H 0.91364 0.71777 0.86658 0.0
H348 H 0.74411 0.68266 0.84024 0.0
H349 H 0.68345 0.57036 0.82268 0.0
C350 C 0.85113 0.81996 0.93304 0.0
C351 C 0.9189 0.86899 0.93857 0.0
C352 C 0.82364 0.77025 0.90441 0.0
C353 C 0.86343 0.76921 0.87987 0.0
C354 C 0.93173 0.82172 0.8831 0.0
C355 C 0.95913 0.87056 0.91261 0.0
C356 C 0.83095 0.62489 0.84196 0.0
C357 C 0.76515 0.58159 0.83077 0.0
C358 C 0.86487 0.68811 0.85456 0.0
C359 C 0.8336 0.70943 0.85602 0.0
C360 C 0.7695 0.66774 0.84064 0.0
C361 C 0.73506 0.60381 0.82929 0.0
loop_
_geom_bond_atom_site_label_1
_geom_bond_atom_site_label_2
_geom_bond_distance
_geom_bond_site_symmetry_2
_ccdc_geom_bond_type
Pr0 C2 2.880 . S
Pr0 O20 2.562 . S
Pr0 O21 2.490 . S
Pr0 O22 2.695 1_655 S
Pr0 O23 2.512 1_655 S
Pr0 O25 2.431 1_656 S
Pr0 O28 2.436 1_546 S
Pr0 O30 2.438 1_545 S
Pr1 C11 2.880 . S
Pr1 O22 2.436 1_564 S
Pr1 O24 2.438 1_565 S
Pr1 O26 2.562 . S
Pr1 O27 2.490 . S
Pr1 O28 2.695 1_455 S
Pr1 O29 2.512 1_455 S
Pr1 O31 2.437 1_455 S
C2 Pr0 2.880 . S
C2 C3 1.491 . S
C2 O20 1.254 . S
C2 O21 1.225 . S
C3 C2 1.491 . S
C3 C4 1.392 . S
C3 C8 1.356 . S
C4 C3 1.392 . S
C4 C5 1.368 . S
C4 H32 0.929 . S
C5 C4 1.368 . S
C5 C6 1.386 . S
C5 H33 0.929 . S
C6 C5 1.386 . S
C6 C7 1.373 . S
C7 C6 1.373 . S
C7 C8 1.409 . S
C7 H34 0.931 . S
C8 C3 1.356 . S
C8 C7 1.409 . S
C8 H35 0.930 . S
C9 O22 1.270 . S
C9 O23 1.248 . S
C10 O24 1.267 . S
C10 O25 1.289 . S
C11 Pr1 2.880 . S
C11 C12 1.491 . S
C11 O26 1.254 . S
C11 O27 1.225 . S
C12 C11 1.491 . S
C12 C13 1.392 . S
C12 C17 1.356 . S
C13 C12 1.392 . S
C13 C14 1.368 . S
C13 H36 0.929 . S
C14 C13 1.368 . S
C14 C15 1.386 . S
C14 H37 0.929 . S
C15 C14 1.386 . S
C15 C16 1.373 . S
C16 C15 1.373 . S
C16 C17 1.409 . S
C16 H38 0.931 . S
C17 C12 1.356 . S
C17 C16 1.409 . S
C17 H39 0.930 . S
C18 O28 1.270 . S
C18 O29 1.248 . S
C19 O30 1.267 . S
C19 O31 1.278 1_556 S
O20 Pr0 2.562 . S
O20 C2 1.254 . S
O21 Pr0 2.490 . S
O21 C2 1.225 . S
O22 Pr0 2.695 1_455 S
O22 Pr1 2.436 1_546 S
O22 C9 1.270 . S
O23 Pr0 2.512 1_455 S
O23 C9 1.248 . S
O24 Pr1 2.438 1_545 S
O24 C10 1.267 . S
O25 Pr0 2.431 1_454 S
O25 C10 1.289 . S
O26 Pr1 2.562 . S
O26 C11 1.254 . S
O27 Pr1 2.490 . S
O27 C11 1.225 . S
O28 Pr0 2.436 1_564 S
O28 Pr1 2.695 1_655 S
O28 C18 1.270 . S
O29 Pr1 2.512 1_655 S
O29 C18 1.248 . S
O30 Pr0 2.438 1_565 S
O30 C19 1.267 . S
O31 Pr1 2.437 1_655 S
O31 C19 1.278 1_554 S
H32 C4 0.929 . S
H33 C5 0.929 . S
H34 C7 0.931 . S
H35 C8 0.930 . S
H36 C13 0.929 . S
H37 C14 0.929 . S
H38 C16 0.931 . S
H39 C17 0.930 . S
Pr40 C42 2.880 1_455 S
Pr40 O60 2.562 1_455 S
Pr40 O61 2.490 1_455 S
Pr40 O62 2.695 1_445 S
Pr40 O63 2.512 1_445 S
Pr40 O65 2.437 1_445 S
Pr40 O68 2.436 . S
Pr40 O70 2.438 . S
Pr41 C51 2.880 . S
Pr41 O62 2.436 1_455 S
Pr41 O64 2.438 1_455 S
Pr41 O66 2.562 . S
Pr41 O67 2.490 . S
Pr41 O68 2.695 1_565 S
Pr41 O69 2.512 1_565 S
Pr41 O71 2.437 1_565 S
C42 Pr40 2.880 1_655 S
C42 C43 1.491 . S
C42 O60 1.254 . S
C42 O61 1.225 . S
C43 C42 1.491 . S
C43 C44 1.392 . S
C43 C48 1.356 . S
C44 C43 1.392 . S
C44 C45 1.368 . S
C44 H72 0.929 . S
C45 C44 1.368 . S
C45 C46 1.386 . S
C45 H73 0.929 . S
C46 C45 1.386 . S
C46 C47 1.373 . S
C47 C46 1.373 . S
C47 C48 1.409 . S
C47 H74 0.931 . S
C48 C43 1.356 . S
C48 C47 1.409 . S
C48 H75 0.930 . S
C49 O62 1.270 . S
C49 O63 1.248 . S
C50 O64 1.267 . S
C50 O65 1.278 . S
C51 Pr41 2.880 . S
C51 C52 1.491 . S
C51 O66 1.254 . S
C51 O67 1.225 . S
C52 C51 1.491 . S
C52 C53 1.392 . S
C52 C57 1.356 . S
C53 C52 1.392 . S
C53 C54 1.368 . S
C53 H76 0.929 1_565 S
C54 C53 1.368 . S
C54 C55 1.386 . S
C54 H77 0.929 . S
C55 C54 1.386 . S
C55 C56 1.373 . S
C56 C55 1.373 . S
C56 C57 1.409 . S
C56 H78 0.931 . S
C57 C52 1.356 . S
C57 C56 1.409 . S
C57 H79 0.930 . S
C58 O68 1.270 . S
C58 O69 1.248 . S
C59 O70 1.267 . S
C59 O71 1.278 . S
O60 Pr40 2.562 1_655 S
O60 C42 1.254 . S
O61 Pr40 2.490 1_655 S
O61 C42 1.225 . S
O62 Pr40 2.695 1_665 S
O62 Pr41 2.436 1_655 S
O62 C49 1.270 . S
O63 Pr40 2.512 1_665 S
O63 C49 1.248 . S
O64 Pr41 2.438 1_655 S
O64 C50 1.267 . S
O65 Pr40 2.437 1_665 S
O65 C50 1.278 . S
O66 Pr41 2.562 . S
O66 C51 1.254 . S
O67 Pr41 2.490 . S
O67 C51 1.225 . S
O68 Pr40 2.436 . S
O68 Pr41 2.695 1_545 S
O68 C58 1.270 . S
O69 Pr41 2.512 1_545 S
O69 C58 1.248 . S
O70 Pr40 2.438 . S
O70 C59 1.267 . S
O71 Pr41 2.437 1_545 S
O71 C59 1.278 . S
H72 C44 0.929 . S
H73 C45 0.929 . S
H74 C47 0.931 . S
H75 C48 0.930 . S
H76 C53 0.929 1_545 S
H77 C54 0.929 . S
H78 C56 0.931 . S
H79 C57 0.930 . S
Zn80 O86 1.920 . S
Zn80 O92 1.898 . S
Zn80 O95 1.905 . S
Zn81 O89 1.905 . S
Zn81 O90 1.898 . S
Zn81 O98 1.920 . S
Zn82 O85 2.080 . S
Zn82 O88 2.114 . S
Zn82 O91 2.120 . S
Zn82 O93 2.120 . S
Zn82 O94 2.114 . S
Zn82 O97 2.080 . S
C83 O88 1.166 . S
C83 O89 1.182 . S
C84 O90 1.167 . S
C84 O91 1.299 . S
O85 Zn82 2.080 . S
O85 C99 1.305 . S
O86 Zn80 1.920 . S
O86 C99 1.234 . S
C87 O92 1.167 . S
C87 O93 1.299 . S
O88 Zn82 2.114 . S
O88 C83 1.166 . S
O89 Zn81 1.905 . S
O89 C83 1.182 . S
O90 Zn81 1.898 . S
O90 C84 1.167 . S
O91 Zn82 2.120 . S
O91 C84 1.299 . S
O92 Zn80 1.898 . S
O92 C87 1.167 . S
O93 Zn82 2.120 . S
O93 C87 1.299 . S
O94 Zn82 2.114 . S
O94 C96 1.166 . S
O95 Zn80 1.905 . S
O95 C96 1.182 . S
C96 O94 1.166 . S
C96 O95 1.182 . S
O97 Zn82 2.080 . S
O97 C100 1.305 . S
O98 Zn81 1.920 . S
O98 C100 1.234 . S
C99 O85 1.305 . S
C99 O86 1.234 . S
C100 O97 1.305 . S
C100 O98 1.234 . S
Zn101 O107 1.920 . S
Zn101 O113 1.898 . S
Zn101 O116 1.905 . S
Zn102 O110 1.905 . S
Zn102 O111 1.898 . S
Zn102 O119 1.920 . S
Zn103 O106 2.080 . S
Zn103 O109 2.114 . S
Zn103 O112 2.120 . S
Zn103 O114 2.120 . S
Zn103 O115 2.114 . S
Zn103 O118 2.080 . S
C104 O109 1.166 . S
C104 O110 1.182 . S
C105 O111 1.167 . S
C105 O112 1.299 . S
O106 Zn103 2.080 . S
O106 C120 1.305 . S
O107 Zn101 1.920 . S
O107 C120 1.234 . S
C108 O113 1.167 . S
C108 O114 1.299 . S
O109 Zn103 2.114 . S
O109 C104 1.166 . S
O110 Zn102 1.905 . S
O110 C104 1.182 . S
O111 Zn102 1.898 . S
O111 C105 1.167 . S
O112 Zn103 2.120 . S
O112 C105 1.299 . S
O113 Zn101 1.898 . S
O113 C108 1.167 . S
O114 Zn103 2.120 . S
O114 C108 1.299 . S
O115 Zn103 2.114 . S
O115 C117 1.166 . S
O116 Zn101 1.905 . S
O116 C117 1.182 . S
C117 O115 1.166 . S
C117 O116 1.182 . S
O118 Zn103 2.080 . S
O118 C121 1.305 . S
O119 Zn102 1.920 . S
O119 C121 1.234 . S
C120 O106 1.305 . S
C120 O107 1.234 . S
C121 O118 1.305 . S
C121 O119 1.234 . S
H122 C130 0.950 . S
H123 C135 0.950 . S
H124 C132 0.950 . S
H125 C134 0.950 . S
H126 C136 0.950 . S
H127 C138 0.950 . S
H128 C140 0.950 . S
H129 C141 0.950 . S
C130 H122 0.950 . S
C130 C131 1.386 . S
C130 C132 1.391 . S
C131 C130 1.386 . S
C131 C135 1.393 . S
C132 H124 0.950 . S
C132 C130 1.391 . S
C132 C133 1.400 . S
C133 C132 1.400 . S
C133 C134 1.398 . S
C133 C139 1.491 . S
C134 H125 0.950 . S
C134 C133 1.398 . S
C134 C135 1.391 . S
C135 H123 0.950 . S
C135 C131 1.393 . S
C135 C134 1.391 . S
C136 H126 0.950 . S
C136 C137 1.386 . S
C136 C138 1.391 . S
C137 C136 1.386 . S
C137 C141 1.393 . S
C138 H127 0.950 . S
C138 C136 1.391 . S
C138 C139 1.400 . S
C139 C133 1.491 . S
C139 C138 1.400 . S
C139 C140 1.398 . S
C140 H128 0.950 . S
C140 C139 1.398 . S
C140 C141 1.391 . S
C141 H129 0.950 . S
C141 C137 1.393 . S
C141 C140 1.391 . S
H142 C150 0.950 . S
H143 C155 0.950 . S
H144 C152 0.950 . S
H145 C154 0.950 . S
H146 C156 0.950 . S
H147 C158 0.950 . S
H148 C160 0.950 . S
H149 C161 0.950 . S
C150 H142 0.950 . S
C150 C151 1.386 . S
C150 C152 1.391 . S
C151 C150 1.386 . S
C151 C155 1.393 . S
C152 H144 0.950 . S
C152 C150 1.391 . S
C152 C153 1.400 . S
C153 C152 1.400 . S
C153 C154 1.398 . S
C153 C159 1.491 . S
C154 H145 0.950 . S
C154 C153 1.398 . S
C154 C155 1.391 . S
C155 H143 0.950 . S
C155 C151 1.393 . S
C155 C154 1.391 . S
C156 H146 0.950 . S
C156 C157 1.386 . S
C156 C158 1.391 . S
C157 C156 1.386 . S
C157 C161 1.393 . S
C158 H147 0.950 . S
C158 C156 1.391 . S
C158 C159 1.400 . S
C159 C153 1.491 . S
C159 C158 1.400 . S
C159 C160 1.398 . S
C160 H148 0.950 . S
C160 C159 1.398 . S
C160 C161 1.391 . S
C161 H149 0.950 . S
C161 C157 1.393 . S
C161 C160 1.391 . S
H162 C170 0.950 . S
H163 C175 0.950 . S
H164 C172 0.950 . S
H165 C174 0.950 . S
H166 C176 0.950 . S
H167 C178 0.950 . S
H168 C180 0.950 . S
H169 C181 0.950 . S
C170 H162 0.950 . S
C170 C171 1.386 . S
C170 C172 1.391 . S
C171 C170 1.386 . S
C171 C175 1.393 . S
C172 H164 0.950 . S
C172 C170 1.391 . S
C172 C173 1.400 . S
C173 C172 1.400 . S
C173 C174 1.398 . S
C173 C179 1.491 . S
C174 H165 0.950 . S
C174 C173 1.398 . S
C174 C175 1.391 . S
C175 H163 0.950 . S
C175 C171 1.393 . S
C175 C174 1.391 . S
C176 H166 0.950 . S
C176 C177 1.386 . S
C176 C178 1.391 . S
C177 C176 1.386 . S
C177 C181 1.393 . S
C178 H167 0.950 . S
C178 C176 1.391 . S
C178 C179 1.400 . S
C179 C173 1.491 . S
C179 C178 1.400 . S
C179 C180 1.398 . S
C180 H168 0.950 . S
C180 C179 1.398 . S
C180 C181 1.391 . S
C181 H169 0.950 . S
C181 C177 1.393 . S
C181 C180 1.391 . S
H182 C190 0.950 . S
H183 C195 0.950 . S
H184 C192 0.950 . S
H185 C194 0.950 . S
H186 C196 0.950 . S
H187 C198 0.950 . S
H188 C200 0.950 . S
H189 C201 0.950 . S
C190 H182 0.950 . S
C190 C191 1.386 . S
C190 C192 1.391 . S
C191 C190 1.386 . S
C191 C195 1.393 . S
C192 H184 0.950 . S
C192 C190 1.391 . S
C192 C193 1.400 . S
C193 C192 1.400 . S
C193 C194 1.398 . S
C193 C199 1.491 . S
C194 H185 0.950 . S
C194 C193 1.398 . S
C194 C195 1.391 . S
C195 H183 0.950 . S
C195 C191 1.393 . S
C195 C194 1.391 . S
C196 H186 0.950 . S
C196 C197 1.386 . S
C196 C198 1.391 . S
C197 C196 1.386 . S
C197 C201 1.393 . S
C198 H187 0.950 . S
C198 C196 1.391 . S
C198 C199 1.400 . S
C199 C193 1.491 . S
C199 C198 1.400 . S
C199 C200 1.398 . S
C200 H188 0.950 . S
C200 C199 1.398 . S
C200 C201 1.391 . S
C201 H189 0.950 . S
C201 C197 1.393 . S
C201 C200 1.391 . S
H202 C210 0.950 . S
H203 C215 0.950 . S
H204 C212 0.950 . S
H205 C214 0.950 . S
H206 C216 0.950 . S
H207 C218 0.950 . S
H208 C220 0.950 . S
H209 C221 0.950 . S
C210 H202 0.950 . S
C210 C211 1.386 . S
C210 C212 1.391 . S
C211 C210 1.386 . S
C211 C215 1.393 . S
C212 H204 0.950 . S
C212 C210 1.391 . S
C212 C213 1.400 . S
C213 C212 1.400 . S
C213 C214 1.398 . S
C213 C219 1.491 . S
C214 H205 0.950 . S
C214 C213 1.398 . S
C214 C215 1.391 . S
C215 H203 0.950 . S
C215 C211 1.393 . S
C215 C214 1.391 . S
C216 H206 0.950 . S
C216 C217 1.386 . S
C216 C218 1.391 . S
C217 C216 1.386 . S
C217 C221 1.393 . S
C218 H207 0.950 . S
C218 C216 1.391 . S
C218 C219 1.400 . S
C219 C213 1.491 . S
C219 C218 1.400 . S
C219 C220 1.398 . S
C220 H208 0.950 . S
C220 C219 1.398 . S
C220 C221 1.391 . S
C221 H209 0.950 . S
C221 C217 1.393 . S
C221 C220 1.391 . S
H222 C230 0.950 . S
H223 C235 0.950 . S
H224 C232 0.950 . S
H225 C234 0.950 . S
H226 C236 0.950 . S
H227 C238 0.950 . S
H228 C240 0.950 . S
H229 C241 0.950 . S
C230 H222 0.950 . S
C230 C231 1.386 . S
C230 C232 1.391 . S
C231 C230 1.386 . S
C231 C235 1.393 . S
C232 H224 0.950 . S
C232 C230 1.391 . S
C232 C233 1.400 . S
C233 C232 1.400 . S
C233 C234 1.398 . S
C233 C239 1.491 . S
C234 H225 0.950 . S
C234 C233 1.398 . S
C234 C235 1.391 . S
C235 H223 0.950 . S
C235 C231 1.393 . S
C235 C234 1.391 . S
C236 H226 0.950 . S
C236 C237 1.386 . S
C236 C238 1.391 . S
C237 C236 1.386 . S
C237 C241 1.393 . S
C238 H227 0.950 . S
C238 C236 1.391 . S
C238 C239 1.400 . S
C239 C233 1.491 . S
C239 C238 1.400 . S
C239 C240 1.398 . S
C240 H228 0.950 . S
C240 C239 1.398 . S
C240 C241 1.391 . S
C241 H229 0.950 . S
C241 C237 1.393 . S
C241 C240 1.391 . S
H242 C250 0.950 . S
H243 C255 0.950 . S
H244 C252 0.950 . S
H245 C254 0.950 . S
H246 C256 0.950 . S
H247 C258 0.950 . S
H248 C260 0.950 . S
H249 C261 0.950 . S
C250 H242 0.950 . S
C250 C251 1.386 . S
C250 C252 1.391 . S
C251 C250 1.386 . S
C251 C255 1.393 . S
C252 H244 0.950 . S
C252 C250 1.391 . S
C252 C253 1.400 . S
C253 C252 1.400 . S
C253 C254 1.398 . S
C253 C259 1.491 . S
C254 H245 0.950 . S
C254 C253 1.398 . S
C254 C255 1.391 . S
C255 H243 0.950 . S
C255 C251 1.393 . S
C255 C254 1.391 . S
C256 H246 0.950 . S
C256 C257 1.386 . S
C256 C258 1.391 . S
C257 C256 1.386 . S
C257 C261 1.393 . S
C258 H247 0.950 . S
C258 C256 1.391 . S
C258 C259 1.400 . S
C259 C253 1.491 . S
C259 C258 1.400 . S
C259 C260 1.398 . S
C260 H248 0.950 . S
C260 C259 1.398 . S
C260 C261 1.391 . S
C261 H249 0.950 . S
C261 C257 1.393 . S
C261 C260 1.391 . S
H262 C270 0.950 . S
H263 C275 0.950 . S
H264 C272 0.950 . S
H265 C274 0.950 . S
H266 C276 0.950 . S
H267 C278 0.950 . S
H268 C280 0.950 . S
H269 C281 0.950 . S
C270 H262 0.950 . S
C270 C271 1.386 . S
C270 C272 1.391 . S
C271 C270 1.386 . S
C271 C275 1.393 . S
C272 H264 0.950 . S
C272 C270 1.391 . S
C272 C273 1.400 . S
C273 C272 1.400 . S
C273 C274 1.398 . S
C273 C279 1.491 . S
C274 H265 0.950 . S
C274 C273 1.398 . S
C274 C275 1.391 . S
C275 H263 0.950 . S
C275 C271 1.393 . S
C275 C274 1.391 . S
C276 H266 0.950 . S
C276 C277 1.386 . S
C276 C278 1.391 . S
C277 C276 1.386 . S
C277 C281 1.393 . S
C278 H267 0.950 . S
C278 C276 1.391 . S
C278 C279 1.400 . S
C279 C273 1.491 . S
C279 C278 1.400 . S
C279 C280 1.398 . S
C280 H268 0.950 . S
C280 C279 1.398 . S
C280 C281 1.391 . S
C281 H269 0.950 . S
C281 C277 1.393 . S
C281 C280 1.391 . S
H282 C290 0.950 . S
H283 C295 0.950 . S
H284 C292 0.950 . S
H285 C294 0.950 . S
H286 C296 0.950 . S
H287 C298 0.950 . S
H288 C300 0.950 . S
H289 C301 0.950 . S
C290 H282 0.950 . S
C290 C291 1.386 . S
C290 C292 1.391 . S
C291 C290 1.386 . S
C291 C295 1.393 . S
C292 H284 0.950 . S
C292 C290 1.391 . S
C292 C293 1.400 . S
C293 C292 1.400 . S
C293 C294 1.398 . S
C293 C299 1.491 . S
C294 H285 0.950 . S
C294 C293 1.398 . S
C294 C295 1.391 . S
C295 H283 0.950 . S
C295 C291 1.393 . S
C295 C294 1.391 . S
C296 H286 0.950 . S
C296 C297 1.386 . S
C296 C298 1.391 . S
C297 C296 1.386 . S
C297 C301 1.393 . S
C298 H287 0.950 . S
C298 C296 1.391 . S
C298 C299 1.400 . S
C299 C293 1.491 . S
C299 C298 1.400 . S
C299 C300 1.398 . S
C300 H288 0.950 . S
C300 C299 1.398 . S
C300 C301 1.391 . S
C301 H289 0.950 . S
C301 C297 1.393 . S
C301 C300 1.391 . S
H302 C310 0.950 . S
H303 C315 0.950 . S
H304 C312 0.950 . S
H305 C314 0.950 . S
H306 C316 0.950 . S
H307 C318 0.950 . S
H308 C320 0.950 . S
H309 C321 0.950 . S
C310 H302 0.950 . S
C310 C311 1.386 . S
C310 C312 1.391 . S
C311 C310 1.386 . S
C311 C315 1.393 . S
C312 H304 0.950 . S
C312 C310 1.391 . S
C312 C313 1.400 . S
C313 C312 1.400 . S
C313 C314 1.398 . S
C313 C319 1.491 . S
C314 H305 0.950 . S
C314 C313 1.398 . S
C314 C315 1.391 . S
C315 H303 0.950 . S
C315 C311 1.393 . S
C315 C314 1.391 . S
C316 H306 0.950 . S
C316 C317 1.386 . S
C316 C318 1.391 . S
C317 C316 1.386 . S
C317 C321 1.393 . S
C318 H307 0.950 . S
C318 C316 1.391 . S
C318 C319 1.400 . S
C319 C313 1.491 . S
C319 C318 1.400 . S
C319 C320 1.398 . S
C320 H308 0.950 . S
C320 C319 1.398 . S
C320 C321 1.391 . S
C321 H309 0.950 . S
C321 C317 1.393 . S
C321 C320 1.391 . S
H322 C330 0.950 . S
H323 C335 0.950 . S
H324 C332 0.950 . S
H325 C334 0.950 . S
H326 C336 0.950 . S
H327 C338 0.950 . S
H328 C340 0.950 . S
H329 C341 0.950 . S
C330 H322 0.950 . S
C330 C331 1.386 . S
C330 C332 1.391 . S
C331 C330 1.386 . S
C331 C335 1.393 . S
C332 H324 0.950 . S
C332 C330 1.391 . S
C332 C333 1.400 . S
C333 C332 1.400 . S
C333 C334 1.398 . S
C333 C339 1.491 . S
C334 H325 0.950 . S
C334 C333 1.398 . S
C334 C335 1.391 . S
C335 H323 0.950 . S
C335 C331 1.393 . S
C335 C334 1.391 . S
C336 H326 0.950 . S
C336 C337 1.386 . S
C336 C338 1.391 . S
C337 C336 1.386 . S
C337 C341 1.393 . S
C338 H327 0.950 . S
C338 C336 1.391 . S
C338 C339 1.400 . S
C339 C333 1.491 . S
C339 C338 1.400 . S
C339 C340 1.398 . S
C340 H328 0.950 . S
C340 C339 1.398 . S
C340 C341 1.391 . S
C341 H329 0.950 . S
C341 C337 1.393 . S
C341 C340 1.391 . S
H342 C350 0.950 . S
H343 C355 0.950 1_455 S
H344 C352 0.950 . S
H345 C354 0.950 . S
H346 C356 0.950 . S
H347 C358 0.950 . S
H348 C360 0.950 . S
H349 C361 0.950 . S
C350 H342 0.950 . S
C350 C351 1.386 . S
C350 C352 1.391 . S
C351 C350 1.386 . S
C351 C355 1.393 . S
C352 H344 0.950 . S
C352 C350 1.391 . S
C352 C353 1.400 . S
C353 C352 1.400 . S
C353 C354 1.398 . S
C353 C359 1.491 . S
C354 H345 0.950 . S
C354 C353 1.398 . S
C354 C355 1.391 . S
C355 H343 0.950 1_655 S
C355 C351 1.393 . S
C355 C354 1.391 . S
C356 H346 0.950 . S
C356 C357 1.386 . S
C356 C358 1.391 . S
C357 C356 1.386 . S
C357 C361 1.393 . S
C358 H347 0.950 . S
C358 C356 1.391 . S
C358 C359 1.400 . S
C359 C353 1.491 . S
C359 C358 1.400 . S
C359 C360 1.398 . S
C360 H348 0.950 . S
C360 C359 1.398 . S
C360 C361 1.391 . S
C361 H349 0.950 . S
C361 C357 1.393 . S
C361 C360 1.391 . S
C131 C15 1.371 . S
C137 C99 1.278 . S
C151 C59 1.233 . S
C157 C105 1.140 . S
C171 C10 1.337 . S
C177 C96 1.240 . S
C191 C46 1.447 . S
C197 C121 1.341 . S
C211 C18 1.882 . S
C217 C87 1.728 . S
C237 C104 1.820 . S
C231 C49 1.945 . S
C251 C55 1.384 . S
C257 C100 1.308 . S
C277 C117 1.828 . S
C271 C9 1.952 . S
C297 C84 1.751 . S
C291 C58 1.897 . S
C317 C120 1.345 . S
C311 C6 1.452 . S
C337 C83 1.236 . S
C331 C50 1.316 . S
C357 C108 1.086 . S
C351 C19 1.234 . S
