# Generated by pormake.
# Topology pth, (4,4)-cn, num edge types: 1
# Building blocks:
#     Node 0, Type 0, BuildingBlock: UXUYUI_clean_sbu_0, # of connection points: 4
#     Node 1, Type 0, BuildingBlock: UXUYUI_clean_sbu_0, # of connection points: 4
#     Node 2, Type 0, BuildingBlock: UXUYUI_clean_sbu_0, # of connection points: 4
#     Node 3, Type 1, BuildingBlock: KOZSID_clean_sbu_0, # of connection points: 4
#     Node 4, Type 1, BuildingBlock: KOZSID_clean_sbu_0, # of connection points: 4
#     Node 5, Type 1, BuildingBlock: KOZSID_clean_sbu_0, # of connection points: 4
#     Edge 6, Type (0, 1), BuildingBlock: TEMPAE_clean_linker_10, # of connection points: 2
#     Edge 7, Type (0, 1), BuildingBlock: TEMPAE_clean_linker_10, # of connection points: 2
#     Edge 8, Type (0, 1), BuildingBlock: TEMPAE_clean_linker_10, # of connection points: 2
#     Edge 9, Type (0, 1), BuildingBlock: TEMPAE_clean_linker_10, # of connection points: 2
#     Edge 10, Type (0, 1), BuildingBlock: TEMPAE_clean_linker_10, # of connection points: 2
#     Edge 11, Type (0, 1), BuildingBlock: TEMPAE_clean_linker_10, # of connection points: 2
#     Edge 12, Type (0, 1), BuildingBlock: TEMPAE_clean_linker_10, # of connection points: 2
#     Edge 13, Type (0, 1), BuildingBlock: TEMPAE_clean_linker_10, # of connection points: 2
#     Edge 14, Type (0, 1), BuildingBlock: TEMPAE_clean_linker_10, # of connection points: 2
#     Edge 15, Type (0, 1), BuildingBlock: TEMPAE_clean_linker_10, # of connection points: 2
#     Edge 16, Type (0, 1), BuildingBlock: TEMPAE_clean_linker_10, # of connection points: 2
#     Edge 17, Type (0, 1), BuildingBlock: TEMPAE_clean_linker_10, # of connection points: 2
# Relax obj value: 0.074
# Max RMSD: 0.212
# Mean RMSD: 0.112
data_MOF--net-pth--node1-UXUYUI_clean_sbu_0--node2-KOZSID_clean_sbu_0--edge1-TEMPAE_clean_linker_10
_symmetry_space_group_name_H-M    P1
_symmetry_Int_Tables_number       1
_symmetry_cell_setting            triclinic
loop_
_symmetry_equiv_pos_as_xyz
'x, y, z'
_cell_length_a     32.389391
_cell_length_b     32.381984
_cell_length_c     73.643225
_cell_angle_alpha  87.838444
_cell_angle_beta   87.819312
_cell_angle_gamma 119.98788
loop_
_atom_site_label
_atom_site_type_symbol
_atom_site_fract_x
_atom_site_fract_y
_atom_site_fract_z
_atom_type_partial_charge
Li0 Li 0.10222 0.0821 0.02115 0.0
Li1 Li 0.04215 0.07915 0.04285 0.0
Li2 Li 0.06514 0.01511 0.04386 0.0
Li3 Li 0.01581 0.01727 0.02005 0.0
C4 C 0.14966 0.11797 0.05112 0.0
N5 N 0.24226 0.1878 0.0564 0.0
C6 C 0.1596 0.16354 0.05549 0.0
C7 C 0.18669 0.1077 0.04973 0.0
C8 C 0.20668 0.19842 0.05803 0.0
C9 C 0.23331 0.14354 0.05236 0.0
C10 C 0.02128 0.10797 0.00806 0.0
C11 C 0.94742 0.10377 0.00062 0.0
N12 N 0.97259 0.14808 0.992 0.0
C13 C 0.04642 0.15317 0.99886 0.0
C14 C 0.97138 0.08281 0.00873 0.0
C15 C 0.02117 0.17297 0.99095 0.0
C16 C 0.18529 0.11871 0.99588 0.0
N17 N 0.15854 0.1291 0.00746 0.0
C18 C 0.20902 0.21272 0.99988 0.0
C19 C 0.16969 0.17494 0.00962 0.0
C20 C 0.23703 0.20337 0.98755 0.0
C21 C 0.22502 0.15557 0.98574 0.0
H22 H 0.17532 0.08188 0.99426 0.0
H23 H 0.14751 0.1821 0.0188 0.0
C24 C 0.01527 0.10763 0.07499 0.0
N25 N 0.02932 0.11993 0.05703 0.0
C26 C 0.01263 0.14021 0.08623 0.0
C27 C 0.03791 0.19696 0.06018 0.0
C28 C 0.04025 0.16344 0.0495 0.0
C29 C 0.02493 0.18596 0.0789 0.0
H30 H 0.00787 0.07315 0.08072 0.0
H31 H 0.05286 0.17303 0.03537 0.0
C32 C 0.0879 0.97931 0.01518 0.0
N33 N 0.11302 0.9098 0.01209 0.0
C34 C 0.05462 0.93395 0.01002 0.0
C35 C 0.13418 0.98955 0.01846 0.0
C36 C 0.06794 0.89923 0.00862 0.0
C37 C 0.14613 0.95387 0.01691 0.0
C38 C 0.95463 0.98735 0.05397 0.0
C39 C 0.93327 0.94205 0.06306 0.0
C40 C 0.92895 0.0114 0.05278 0.0
C41 C 0.88617 0.92103 0.07035 0.0
C42 C 0.88195 0.98924 0.06027 0.0
N43 N 0.86167 0.94485 0.0688 0.0
C44 C 0.10108 0.98179 0.07264 0.0
C45 C 0.03895 0.92292 0.05651 0.0
C46 C 0.10058 0.94636 0.08431 0.0
N47 N 0.07033 0.96942 0.05914 0.0
C48 C 0.03734 0.88649 0.06774 0.0
C49 C 0.06794 0.89792 0.08205 0.0
H50 H 0.12514 0.01909 0.07464 0.0
H51 H 0.01432 0.91414 0.04587 0.0
C52 C 0.96862 0.98786 0.98709 0.0
N53 N 0.96697 0.97567 0.00509 0.0
C54 C 0.93577 0.95504 0.97578 0.0
C55 C 0.89988 0.89819 0.0018 0.0
C56 C 0.93345 0.93191 0.01254 0.0
C57 C 0.90114 0.90918 0.98307 0.0
H58 H 0.99627 0.0226 0.98143 0.0
H59 H 0.93377 0.92247 0.02671 0.0
O60 O 0.10387 0.08354 0.04834 0.0
O61 O 0.04558 0.08796 0.01575 0.0
O62 O 0.07535 0.01361 0.01682 0.0
O63 O 0.00097 0.00861 0.04691 0.0
H64 H 0.13136 0.17205 0.05676 0.0
H65 H 0.17953 0.07244 0.04668 0.0
H66 H 0.21492 0.23394 0.06127 0.0
H67 H 0.26235 0.13614 0.05123 0.0
H68 H 0.90879 0.08468 0.00109 0.0
H69 H 0.08503 0.17291 0.9979 0.0
H70 H 0.95127 0.04719 0.01518 0.0
H71 H 0.0402 0.20807 0.98392 0.0
H72 H 0.21723 0.24892 0.00195 0.0
H73 H 0.24526 0.14666 0.97623 0.0
H74 H 0.00306 0.13038 0.10063 0.0
H75 H 0.04722 0.23155 0.05389 0.0
H76 H 0.01877 0.9255 0.00727 0.0
H77 H 0.1606 0.02465 0.02214 0.0
H78 H 0.04243 0.86387 0.00478 0.0
H79 H 0.18176 0.96124 0.01951 0.0
H80 H 0.95272 0.92313 0.06441 0.0
H81 H 0.94524 0.04709 0.0464 0.0
H82 H 0.86913 0.88584 0.07729 0.0
H83 H 0.86169 0.00746 0.05939 0.0
H84 H 0.12445 0.95682 0.09529 0.0
H85 H 0.01207 0.84972 0.06531 0.0
H86 H 0.93853 0.96491 0.96138 0.0
H87 H 0.87358 0.86359 0.0081 0.0
Li88 Li 0.02866 0.02143 0.35645 0.0
Li89 Li 0.08351 0.07489 0.37813 0.0
Li90 Li 0.99792 0.05087 0.38152 0.0
Li91 Li 0.04869 0.10603 0.35664 0.0
C92 C 0.99302 0.96444 0.38966 0.0
N93 N 0.92304 0.87356 0.40231 0.0
C94 C 1.0002 0.94185 0.40474 0.0
C95 C 0.95023 0.94089 0.38102 0.0
C96 C 0.96439 0.89586 0.41093 0.0
C97 C 0.9153 0.89494 0.38762 0.0
C98 C 0.1345 0.09583 0.34257 0.0
C99 C 0.21127 0.16007 0.33054 0.0
N100 N 0.22294 0.1275 0.32486 0.0
C101 C 0.147 0.06299 0.33638 0.0
C102 C 0.16664 0.14477 0.33944 0.0
C103 C 0.19198 0.07972 0.32755 0.0
C104 C 0.01188 0.97315 0.32386 0.0
N105 N 0.0202 0.97104 0.34172 0.0
C106 C 0.02724 0.90175 0.33799 0.0
C107 C 0.02791 0.93636 0.3489 0.0
C108 C 0.0192 0.9032 0.31943 0.0
C109 C 0.01107 0.93931 0.31241 0.0
H110 H 0.00733 0.00194 0.31838 0.0
H111 H 0.03625 0.93648 0.36298 0.0
C112 C 0.13946 0.10152 0.40855 0.0
N113 N 0.13636 0.08497 0.39167 0.0
C114 C 0.17433 0.10406 0.41981 0.0
C115 C 0.20259 0.07314 0.39599 0.0
C116 C 0.16693 0.0708 0.38528 0.0
C117 C 0.20617 0.0893 0.4136 0.0
H118 H 0.11396 0.11149 0.41347 0.0
H119 H 0.16259 0.05597 0.37216 0.0
C120 C 0.95604 0.06275 0.3478 0.0
N121 N 0.90104 0.096 0.33216 0.0
C122 C 0.94168 0.09003 0.35763 0.0
C123 C 0.94241 0.05238 0.33001 0.0
C124 C 0.9139 0.10652 0.34949 0.0
C125 C 0.91458 0.06951 0.32235 0.0
C126 C 0.0811 0.16152 0.38699 0.0
C127 C 0.05975 0.18393 0.39605 0.0
C128 C 0.13004 0.18704 0.38207 0.0
C129 C 0.08769 0.23188 0.39978 0.0
C130 C 0.15678 0.2349 0.38607 0.0
N131 N 0.13522 0.25617 0.39474 0.0
C132 C 0.96043 0.05913 0.41484 0.0
C133 C 0.90085 0.01308 0.39485 0.0
C134 C 0.92616 0.05813 0.42719 0.0
N135 N 0.9474 0.03779 0.39889 0.0
C136 C 0.86532 0.01132 0.40679 0.0
C137 C 0.87799 0.03514 0.42301 0.0
H138 H 0.99779 0.07851 0.41765 0.0
H139 H 0.89159 0.99674 0.38197 0.0
C140 C 0.07305 0.16356 0.32354 0.0
N141 N 0.05687 0.15878 0.34124 0.0
C142 C 0.07361 0.19843 0.31156 0.0
C143 C 0.04085 0.22265 0.33626 0.0
C144 C 0.04146 0.18781 0.34777 0.0
C145 C 0.05651 0.2279 0.31785 0.0
H146 H 0.08412 0.13932 0.3186 0.0
H147 H 0.0276 0.18259 0.36173 0.0
O148 O 0.02771 0.00954 0.38354 0.0
O149 O 0.09034 0.08003 0.35102 0.0
O150 O 0.98395 0.04695 0.35542 0.0
O151 O 0.05416 0.11461 0.38324 0.0
H152 H 0.03313 0.9597 0.41159 0.0
H153 H 0.94402 0.9578 0.36933 0.0
H154 H 0.96946 0.8779 0.42258 0.0
H155 H 0.88203 0.87628 0.38106 0.0
H156 H 0.23654 0.19784 0.32808 0.0
H157 H 0.12239 0.02498 0.33852 0.0
H158 H 0.1571 0.17072 0.34364 0.0
H159 H 0.20226 0.0547 0.32283 0.0
H160 H 0.03467 0.87519 0.34389 0.0
H161 H 0.00462 0.94166 0.29819 0.0
H162 H 0.17599 0.11682 0.4333 0.0
H163 H 0.22584 0.06057 0.39084 0.0
H164 H 0.95271 0.0993 0.37127 0.0
H165 H 0.95319 0.03138 0.32219 0.0
H166 H 0.90282 0.12792 0.35692 0.0
H167 H 0.90379 0.06176 0.30859 0.0
H168 H 0.02189 0.16458 0.4 0.0
H169 H 0.14727 0.16995 0.37542 0.0
H170 H 0.07158 0.24978 0.40668 0.0
H171 H 0.1947 0.2551 0.38232 0.0
H172 H 0.93743 0.07617 0.43967 0.0
H173 H 0.82872 0.99349 0.40295 0.0
H174 H 0.08554 0.20112 0.2974 0.0
H175 H 0.02761 0.24482 0.34164 0.0
Li176 Li 0.09055 0.04105 0.69029 0.0
Li177 Li 0.09101 0.09597 0.71145 0.0
Li178 Li 0.02784 0.01314 0.71461 0.0
Li179 Li 0.02993 0.06469 0.68991 0.0
C180 C 0.10426 0.00245 0.72275 0.0
N181 N 0.11811 0.92843 0.73442 0.0
C182 C 0.13313 0.00798 0.73715 0.0
C183 C 0.08236 0.95923 0.71431 0.0
C184 C 0.13973 0.97015 0.74284 0.0
C185 C 0.08982 0.92225 0.72041 0.0
C186 C 0.14643 0.13608 0.67871 0.0
C187 C 0.20574 0.19688 0.65727 0.0
N188 N 0.24078 0.19608 0.66662 0.0
C189 C 0.18303 0.13581 0.68811 0.0
C190 C 0.15781 0.16678 0.66316 0.0
C191 C 0.23049 0.16643 0.68178 0.0
C192 C 0.12853 0.03499 0.65651 0.0
N193 N 0.13235 0.03019 0.6747 0.0
C194 C 0.20338 0.02604 0.66913 0.0
C195 C 0.16878 0.02562 0.68116 0.0
C196 C 0.20118 0.03255 0.65033 0.0
C197 C 0.1629 0.03653 0.64401 0.0
H198 H 0.09992 0.03984 0.65177 0.0
H199 H 0.17257 0.02407 0.69562 0.0
C200 C 0.13562 0.13777 0.74261 0.0
N201 N 0.1312 0.14866 0.72506 0.0
C202 C 0.16773 0.17325 0.75321 0.0
C203 C 0.18959 0.23071 0.72756 0.0
C204 C 0.15643 0.19424 0.71754 0.0
C205 C 0.19588 0.22016 0.74555 0.0
H206 H 0.11498 0.10119 0.7482 0.0
H207 H 0.15181 0.20211 0.70362 0.0
C208 C 0.97511 0.96826 0.68438 0.0
N209 N 0.8826 0.90611 0.67587 0.0
C210 C 0.9366 0.9659 0.69457 0.0
C211 C 0.96661 0.93911 0.66985 0.0
C212 C 0.89009 0.93422 0.69006 0.0
C213 C 0.91956 0.90788 0.66576 0.0
C214 C 0.01423 0.10811 0.71923 0.0
C215 C 0.98395 0.1051 0.73389 0.0
C216 C 0.03687 0.1495 0.70755 0.0
C217 C 0.97683 0.1436 0.73664 0.0
C218 C 0.02884 0.18722 0.71077 0.0
N219 N 0.99924 0.18352 0.72513 0.0
C220 C 0.97805 0.97698 0.74835 0.0
C221 C 0.96387 0.91621 0.72836 0.0
C222 C 0.94447 0.9434 0.76139 0.0
N223 N 0.98643 0.96303 0.73212 0.0
C224 C 0.92983 0.88138 0.741 0.0
C225 C 0.91913 0.89492 0.75767 0.0
H226 H 0.99678 0.01447 0.75099 0.0
H227 H 0.97114 0.90604 0.71533 0.0
C228 C 0.00075 0.08337 0.65636 0.0
N229 N 0.98952 0.07532 0.6746 0.0
C230 C 0.96908 0.08603 0.64463 0.0
C231 C 0.91541 0.07283 0.67074 0.0
C232 C 0.94799 0.07037 0.68192 0.0
C233 C 0.92549 0.08024 0.65179 0.0
H234 H 0.03379 0.08657 0.6509 0.0
H235 H 0.9393 0.06286 0.69642 0.0
O236 O 0.09724 0.03914 0.71721 0.0
O237 O 0.09956 0.10574 0.68436 0.0
O238 O 0.02105 0.99942 0.68834 0.0
O239 O 0.02142 0.07056 0.71645 0.0
H240 H 0.15026 0.04119 0.74384 0.0
H241 H 0.06006 0.95429 0.7031 0.0
H242 H 0.16201 0.97395 0.75396 0.0
H243 H 0.07314 0.88865 0.71398 0.0
H244 H 0.21508 0.22083 0.64525 0.0
H245 H 0.17495 0.11218 0.70013 0.0
H246 H 0.12985 0.16719 0.65569 0.0
H247 H 0.25915 0.16657 0.68891 0.0
H248 H 0.23288 0.02371 0.67451 0.0
H249 H 0.16013 0.04169 0.62958 0.0
H250 H 0.17185 0.16376 0.76702 0.0
H251 H 0.21045 0.26663 0.72128 0.0
H252 H 0.94251 0.98835 0.70582 0.0
H253 H 0.9961 0.94071 0.66179 0.0
H254 H 0.85996 0.93204 0.69783 0.0
H255 H 0.91244 0.8851 0.65454 0.0
H256 H 0.96607 0.07327 0.74303 0.0
H257 H 0.06026 0.15254 0.69609 0.0
H258 H 0.95346 0.14173 0.74794 0.0
H259 H 0.04612 0.21943 0.70184 0.0
H260 H 0.93804 0.95537 0.77417 0.0
H261 H 0.9109 0.84452 0.73746 0.0
H262 H 0.97843 0.09216 0.63011 0.0
H263 H 0.88192 0.06729 0.67683 0.0
C264 C 0.089 0.63482 0.17068 0.0
C265 C 0.13336 0.66902 0.16276 0.0
C266 C 0.16656 0.66307 0.17151 0.0
C267 C 0.14068 0.62571 0.18417 0.0
N268 N 0.0929 0.60716 0.18399 0.0
Co269 Co 0.04215 0.55232 0.20003 0.0
N270 N 0.09125 0.54681 0.21409 0.0
C271 C 0.13925 0.57542 0.21187 0.0
C272 C 0.1639 0.56261 0.22331 0.0
C273 C 0.1297 0.52329 0.2334 0.0
C274 C 0.08587 0.51441 0.22755 0.0
N275 N 0.99142 0.49614 0.21556 0.0
C276 C 0.99551 0.46756 0.22845 0.0
C277 C 0.95112 0.43103 0.23542 0.0
C278 C 0.91778 0.43613 0.22638 0.0
C279 C 0.94356 0.47534 0.21448 0.0
N280 N 0.99308 0.55923 0.18645 0.0
C281 C 0.94503 0.53279 0.18945 0.0
C282 C 0.92067 0.5476 0.17868 0.0
C283 C 0.95521 0.58632 0.16836 0.0
C284 C 0.99877 0.59278 0.17345 0.0
N285 N 0.04213 0.50718 0.18246 0.0
C286 C 0.04041 0.43938 0.15911 0.0
C287 C 0.99892 0.44064 0.16377 0.0
C288 C 1.00054 0.4744 0.17538 0.0
C289 C 0.08302 0.47316 0.16608 0.0
C290 C 0.08315 0.50672 0.17753 0.0
N291 N 0.04187 0.59736 0.21756 0.0
C292 C 0.99797 0.62212 0.2373 0.0
C293 C 0.03958 0.6647 0.24019 0.0
C294 C 0.08271 0.67223 0.23205 0.0
C295 C 0.08307 0.63827 0.22093 0.0
C296 C 0.9999 0.58932 0.22607 0.0
H297 H 0.11699 0.64625 0.215 0.0
H298 H 0.96676 0.55799 0.22435 0.0
H299 H 0.96746 0.47276 0.17858 0.0
H300 H 0.1168 0.53171 0.1823 0.0
C301 C 0.16024 0.61055 0.1976 0.0
C302 C 0.0445 0.63182 0.16578 0.0
C303 C 0.04042 0.47322 0.2344 0.0
C304 C 0.92393 0.49401 0.20237 0.0
H305 H 0.141 0.69626 0.15209 0.0
H306 H 0.20503 0.68451 0.16934 0.0
H307 H 0.20224 0.57875 0.22374 0.0
H308 H 0.13654 0.50272 0.24351 0.0
H309 H 0.94363 0.40338 0.24589 0.0
H310 H 0.87933 0.4138 0.22821 0.0
H311 H 0.88238 0.53232 0.17847 0.0
H312 H 0.94911 0.60769 0.15834 0.0
H313 H 0.96498 0.41492 0.15881 0.0
H314 H 0.11622 0.47393 0.16262 0.0
H315 H 0.9638 0.61398 0.24366 0.0
H316 H 0.11599 0.70469 0.23386 0.0
C317 C 0.47234 0.02276 0.56454 0.0
C318 C 0.43884 0.97928 0.57333 0.0
C319 C 0.44336 0.94482 0.56492 0.0
C320 C 0.47955 0.96913 0.55168 0.0
N321 N 0.49885 0.01711 0.55127 0.0
Co322 Co 0.5536 0.06597 0.53474 0.0
N323 N 0.55655 0.01503 0.52107 0.0
C324 C 0.52637 0.96733 0.52346 0.0
C325 C 0.53703 0.94132 0.51188 0.0
C326 C 0.57667 0.97434 0.50157 0.0
C327 C 0.58806 0.0187 0.50759 0.0
N328 N 0.60998 0.1148 0.51873 0.0
C329 C 0.63779 0.10884 0.50608 0.0
C330 C 0.67575 0.1523 0.49905 0.0
C331 C 0.67206 0.18699 0.50768 0.0
C332 C 0.63241 0.16283 0.5195 0.0
N333 N 0.54897 0.11689 0.54789 0.0
C334 C 0.57635 0.1647 0.54434 0.0
C335 C 0.56216 0.19065 0.55442 0.0
C336 C 0.52282 0.15748 0.56483 0.0
C337 C 0.51552 0.11297 0.56061 0.0
N338 N 0.59884 0.06549 0.55211 0.0
C339 C 0.66873 0.06679 0.57416 0.0
C340 C 0.66786 0.10858 0.56963 0.0
C341 C 0.6329 0.10713 0.55874 0.0
C342 C 0.63295 0.02398 0.56798 0.0
C343 C 0.59855 0.02411 0.5571 0.0
N344 N 0.50859 0.06675 0.51732 0.0
C345 C 0.48643 0.11075 0.49646 0.0
C346 C 0.44241 0.07003 0.49432 0.0
C347 C 0.43264 0.02722 0.50354 0.0
C348 C 0.46606 0.02633 0.5148 0.0
C349 C 0.51855 0.10837 0.50793 0.0
H350 H 0.45643 0.99266 0.52152 0.0
H351 H 0.55103 0.14093 0.50906 0.0
H352 H 0.63465 0.14036 0.55571 0.0
H353 H 0.57259 0.99042 0.55264 0.0
C354 C 0.49235 0.94786 0.53815 0.0
C355 C 0.47534 0.06797 0.56846 0.0
C356 C 0.63065 0.06288 0.50083 0.0
C357 C 0.61492 0.18408 0.53133 0.0
H358 H 0.41278 0.97299 0.58431 0.0
H359 H 0.42162 0.90652 0.56765 0.0
H360 H 0.5193 0.90285 0.51149 0.0
H361 H 0.59592 0.96659 0.49118 0.0
H362 H 0.70362 0.15828 0.48893 0.0
H363 H 0.69579 0.22523 0.50574 0.0
H364 H 0.57796 0.2291 0.55398 0.0
H365 H 0.5015 0.16533 0.5742 0.0
H366 H 0.69412 0.14249 0.57445 0.0
H367 H 0.63211 0.99061 0.57113 0.0
H368 H 0.49631 0.14456 0.48929 0.0
H369 H 0.39896 0.99465 0.50241 0.0
C370 C 0.64746 0.59434 0.8402 0.0
C371 C 0.6815 0.58712 0.83114 0.0
C372 C 0.67026 0.5412 0.83601 0.0
C373 C 0.63014 0.52306 0.84767 0.0
N374 N 0.61551 0.55471 0.85042 0.0
Co375 Co 0.55943 0.54369 0.86613 0.0
N376 N 0.55734 0.48849 0.87975 0.0
C377 C 0.57934 0.46462 0.87432 0.0
C378 C 0.57107 0.42755 0.88638 0.0
C379 C 0.54137 0.42755 0.90012 0.0
C380 C 0.53293 0.46462 0.89559 0.0
N381 N 0.50278 0.53237 0.88165 0.0
C382 C 0.48244 0.50433 0.8972 0.0
C383 C 0.44186 0.50555 0.90318 0.0
C384 C 0.43628 0.53466 0.89076 0.0
C385 C 0.47359 0.54964 0.87793 0.0
N386 N 0.56199 0.59903 0.85247 0.0
C387 C 0.52645 0.60901 0.85173 0.0
C388 C 0.53943 0.65043 0.84142 0.0
C389 C 0.58603 0.6674 0.83528 0.0
C390 C 0.59873 0.63512 0.84216 0.0
N391 N 0.51691 0.5009 0.84867 0.0
C392 C 0.45254 0.44247 0.82406 0.0
C393 C 0.49259 0.48616 0.81799 0.0
C394 C 0.52464 0.51458 0.83048 0.0
C395 C 0.44588 0.42811 0.84259 0.0
C396 C 0.47821 0.45791 0.85466 0.0
N397 N 0.60182 0.58684 0.88345 0.0
C398 C 0.62463 0.65428 0.90161 0.0
C399 C 0.66636 0.65424 0.90588 0.0
C400 C 0.67454 0.61898 0.89903 0.0
C401 C 0.64167 0.58541 0.88796 0.0
C402 C 0.593 0.62046 0.89037 0.0
H403 H 0.64894 0.55885 0.88278 0.0
H404 H 0.5619 0.62228 0.88695 0.0
H405 H 0.5553 0.54799 0.82544 0.0
H406 H 0.47126 0.44637 0.86888 0.0
C407 C 0.61137 0.48112 0.85893 0.0
C408 C 0.64481 0.63806 0.83805 0.0
C409 C 0.49646 0.47135 0.90527 0.0
C410 C 0.48547 0.58401 0.86353 0.0
H411 H 0.71134 0.61239 0.82204 0.0
H412 H 0.69035 0.52401 0.8322 0.0
H413 H 0.58532 0.40372 0.88543 0.0
H414 H 0.52635 0.40215 0.91183 0.0
H415 H 0.418 0.48631 0.91502 0.0
H416 H 0.40869 0.54423 0.89119 0.0
H417 H 0.51841 0.66752 0.83935 0.0
H418 H 0.60807 0.69984 0.82679 0.0
H419 H 0.49912 0.49819 0.8037 0.0
H420 H 0.41513 0.39466 0.84781 0.0
H421 H 0.61709 0.68112 0.9065 0.0
H422 H 0.70608 0.61733 0.9022 0.0
C423 C 0.06431 0.27039 0.08815 0.0
C424 C 0.02673 0.22292 0.0908 0.0
C425 C 0.06692 0.3058 0.09924 0.0
C426 C 0.0313 0.29347 0.11345 0.0
C427 C 0.99343 0.24561 0.11631 0.0
C428 C 0.99155 0.21091 0.10493 0.0
C429 C 0.10786 0.35643 0.09575 0.0
C430 C 0.95484 0.2311 0.13136 0.0
C431 C 0.06164 0.37695 0.15197 0.0
C432 C 0.03885 0.40261 0.14726 0.0
C433 C 0.05912 0.34101 0.14118 0.0
C434 C 0.03358 0.33084 0.12522 0.0
C435 C 0.01082 0.3569 0.12033 0.0
C436 C 0.01358 0.39234 0.13145 0.0
C437 C 0.08353 0.31373 0.14692 0.0
C438 C 0.98375 0.34751 0.10329 0.0
H439 H 0.09222 0.27985 0.07753 0.0
H440 H 0.96219 0.17445 0.10697 0.0
H441 H 0.09386 0.38093 0.09299 0.0
H442 H 0.12865 0.36817 0.10801 0.0
H443 H 0.13241 0.36022 0.08403 0.0
H444 H 0.92832 0.19226 0.132 0.0
H445 H 0.97101 0.24016 0.14469 0.0
H446 H 0.93582 0.25126 0.12929 0.0
H447 H 0.08069 0.38438 0.16431 0.0
H448 H 0.99632 0.41243 0.12767 0.0
H449 H 0.11054 0.31829 0.13611 0.0
H450 H 0.05703 0.27499 0.14879 0.0
H451 H 0.10152 0.32566 0.15981 0.0
H452 H 0.00799 0.35353 0.09118 0.0
H453 H 0.96791 0.37079 0.10145 0.0
H454 H 0.95466 0.30966 0.10381 0.0
C455 C 0.79569 0.99922 0.43847 0.0
C456 C 0.84186 0.03858 0.43494 0.0
C457 C 0.76106 0.00281 0.44927 0.0
C458 C 0.77292 0.04679 0.45674 0.0
C459 C 0.81948 0.08654 0.45332 0.0
C460 C 0.8533 0.082 0.44243 0.0
C461 C 0.71175 0.95962 0.45265 0.0
C462 C 0.83348 0.13404 0.46103 0.0
C463 C 0.67281 0.07045 0.4707 0.0
C464 C 0.66812 0.06042 0.48954 0.0
C465 C 0.70681 0.0661 0.45982 0.0
C466 C 0.73658 0.05138 0.46807 0.0
C467 C 0.73191 0.04142 0.48718 0.0
C468 C 0.69753 0.04597 0.4977 0.0
C469 C 0.71069 0.07697 0.43951 0.0
C470 C 0.76308 0.02585 0.49649 0.0
H471 H 0.7867 0.96547 0.43287 0.0
H472 H 0.88858 0.11287 0.4395 0.0
H473 H 0.70329 0.95021 0.46749 0.0
H474 H 0.6847 0.96789 0.44757 0.0
H475 H 0.70826 0.92803 0.44589 0.0
H476 H 0.87141 0.16124 0.45734 0.0
H477 H 0.8105 0.14776 0.45593 0.0
H478 H 0.82779 0.12954 0.47609 0.0
H479 H 0.64954 0.08126 0.46452 0.0
H480 H 0.69337 0.03803 0.51231 0.0
H481 H 0.70409 0.045 0.43227 0.0
H482 H 0.74736 0.10596 0.43509 0.0
H483 H 0.68491 0.08803 0.43525 0.0
H484 H 0.75812 0.99239 0.49094 0.0
H485 H 0.755 0.01967 0.51146 0.0
H486 H 0.80125 0.05342 0.49372 0.0
C487 C 0.84843 0.87032 0.77963 0.0
C488 C 0.88034 0.85911 0.77072 0.0
C489 C 0.81042 0.83641 0.79142 0.0
C490 C 0.80393 0.79004 0.7943 0.0
C491 C 0.83635 0.77863 0.78557 0.0
C492 C 0.87419 0.81331 0.77391 0.0
C493 C 0.77659 0.84989 0.80047 0.0
C494 C 0.8306 0.72953 0.78833 0.0
C495 C 0.72662 0.70947 0.83523 0.0
C496 C 0.68391 0.6798 0.82728 0.0
C497 C 0.76585 0.74623 0.82473 0.0
C498 C 0.76212 0.75282 0.80586 0.0
C499 C 0.71864 0.72302 0.79787 0.0
C500 C 0.68004 0.6867 0.8087 0.0
C501 C 0.81152 0.7773 0.83374 0.0
C502 C 0.71328 0.72873 0.7778 0.0
H503 H 0.85241 0.90533 0.77705 0.0
H504 H 0.89902 0.80456 0.76727 0.0
H505 H 0.74023 0.82766 0.7957 0.0
H506 H 0.77409 0.84272 0.81544 0.0
H507 H 0.78793 0.88813 0.79751 0.0
H508 H 0.85966 0.72681 0.78098 0.0
H509 H 0.83017 0.72048 0.80304 0.0
H510 H 0.7959 0.7024 0.78345 0.0
H511 H 0.72948 0.70332 0.84959 0.0
H512 H 0.64709 0.66285 0.8026 0.0
H513 H 0.82249 0.81552 0.8312 0.0
H514 H 0.84066 0.77245 0.82776 0.0
H515 H 0.80788 0.76885 0.84868 0.0
H516 H 0.72182 0.76581 0.77407 0.0
H517 H 0.67661 0.70365 0.77385 0.0
H518 H 0.73892 0.72231 0.76972 0.0
C519 C 0.01975 0.82047 0.10076 0.0
C520 C 0.0646 0.85939 0.09478 0.0
C521 C 0.01572 0.78321 0.11243 0.0
C522 C 0.05753 0.78494 0.11839 0.0
C523 C 0.10292 0.82434 0.11261 0.0
C524 C 0.10592 0.86109 0.10086 0.0
C525 C 0.96668 0.74187 0.11833 0.0
C526 C 0.1483 0.82744 0.11872 0.0
C527 C 0.04614 0.70922 0.16106 0.0
C528 C 0.04617 0.67017 0.15361 0.0
C529 C 0.04986 0.74695 0.14974 0.0
C530 C 0.05369 0.74529 0.13058 0.0
C531 C 0.05341 0.70551 0.12306 0.0
C532 C 0.04969 0.66832 0.13472 0.0
C533 C 0.05 0.78868 0.15828 0.0
C534 C 0.05726 0.70235 0.10273 0.0
H535 H 0.98759 0.81928 0.09642 0.0
H536 H 0.14069 0.89077 0.09617 0.0
H537 H 0.96353 0.70796 0.11406 0.0
H538 H 0.96126 0.73865 0.13339 0.0
H539 H 0.93769 0.74594 0.11248 0.0
H540 H 0.18074 0.86085 0.11327 0.0
H541 H 0.14773 0.8258 0.13381 0.0
H542 H 0.15089 0.79648 0.11418 0.0
H543 H 0.04363 0.71031 0.17574 0.0
H544 H 0.04989 0.63792 0.12912 0.0
H545 H 0.02006 0.79277 0.15354 0.0
H546 H 0.0836 0.82221 0.15395 0.0
H547 H 0.04666 0.78441 0.17339 0.0
H548 H 0.02744 0.70386 0.09641 0.0
H549 H 0.05641 0.66896 0.09909 0.0
H550 H 0.09102 0.73333 0.09672 0.0
C551 C 0.28857 0.10519 0.41914 0.0
C552 C 0.24129 0.0883 0.42572 0.0
C553 C 0.32161 0.10274 0.43028 0.0
C554 C 0.30682 0.08244 0.44837 0.0
C555 C 0.25916 0.06548 0.4551 0.0
C556 C 0.22702 0.06881 0.44371 0.0
C557 C 0.3723 0.12179 0.4227 0.0
C558 C 0.24193 0.04321 0.47424 0.0
C559 C 0.37961 0.03558 0.47155 0.0
C560 C 0.40705 0.07266 0.4827 0.0
C561 C 0.34664 0.03815 0.46038 0.0
C562 C 0.34123 0.07894 0.46026 0.0
C563 C 0.36869 0.11642 0.47149 0.0
C564 C 0.401 0.1127 0.48264 0.0
C565 C 0.31776 0.99733 0.44866 0.0
C566 C 0.36403 0.16054 0.4717 0.0
H567 H 0.2998 0.12061 0.40528 0.0
H568 H 0.19031 0.05509 0.44877 0.0
H569 H 0.39755 0.14989 0.43124 0.0
H570 H 0.38106 0.09276 0.42307 0.0
H571 H 0.37825 0.1371 0.40845 0.0
H572 H 0.2038 0.03194 0.47742 0.0
H573 H 0.24637 0.01152 0.47613 0.0
H574 H 0.26377 0.06894 0.48422 0.0
H575 H 0.38441 0.0048 0.47132 0.0
H576 H 0.42132 0.14114 0.49146 0.0
H577 H 0.32551 0.01027 0.43409 0.0
H578 H 0.27905 0.98305 0.45186 0.0
H579 H 0.32546 0.96771 0.45061 0.0
H580 H 0.3719 0.17813 0.45778 0.0
H581 H 0.3885 0.18681 0.48102 0.0
H582 H 0.32681 0.15047 0.47602 0.0
C583 C 0.28053 0.2835 0.74852 0.0
C584 C 0.23338 0.25711 0.75603 0.0
C585 C 0.31736 0.31567 0.75883 0.0
C586 C 0.3065 0.32211 0.77694 0.0
C587 C 0.25862 0.29673 0.78435 0.0
C588 C 0.22266 0.26413 0.77386 0.0
C589 C 0.36806 0.34147 0.75055 0.0
C590 C 0.2455 0.30331 0.80349 0.0
C591 C 0.40216 0.36365 0.81106 0.0
C592 C 0.41702 0.41233 0.81129 0.0
C593 C 0.36694 0.33412 0.79963 0.0
C594 C 0.34546 0.35364 0.78844 0.0
C595 C 0.36058 0.40291 0.78855 0.0
C596 C 0.39656 0.43181 0.79987 0.0
C597 C 0.35242 0.28195 0.79965 0.0
C598 C 0.33794 0.42481 0.77705 0.0
H599 H 0.28887 0.27765 0.7348 0.0
H600 H 0.1861 0.24391 0.7796 0.0
H601 H 0.38405 0.3806 0.7514 0.0
H602 H 0.39005 0.3305 0.75835 0.0
H603 H 0.37024 0.33388 0.73607 0.0
H604 H 0.20627 0.2834 0.80676 0.0
H605 H 0.26241 0.2907 0.8134 0.0
H606 H 0.25925 0.34176 0.80537 0.0
H607 H 0.41826 0.34872 0.81982 0.0
H608 H 0.40776 0.4694 0.80021 0.0
H609 H 0.35622 0.2725 0.7856 0.0
H610 H 0.31428 0.25945 0.80448 0.0
H611 H 0.37415 0.27291 0.80852 0.0
H612 H 0.34143 0.41872 0.76249 0.0
H613 H 0.35429 0.46384 0.77848 0.0
H614 H 0.29918 0.40732 0.78104 0.0
C615 C 0.87993 0.05549 0.62363 0.0
C616 C 0.88975 0.08002 0.63964 0.0
C617 C 0.84454 0.05296 0.61252 0.0
C618 C 0.81833 0.07547 0.61755 0.0
C619 C 0.82847 0.10078 0.63356 0.0
C620 C 0.86406 0.10278 0.6444 0.0
C621 C 0.83473 0.02563 0.59554 0.0
C622 C 0.80146 0.12546 0.63933 0.0
C623 C 0.75456 0.10522 0.58157 0.0
C624 C 0.7071 0.06822 0.58506 0.0
C625 C 0.79116 0.10778 0.59192 0.0
C626 C 0.7801 0.07243 0.60612 0.0
C627 C 0.73239 0.03467 0.60959 0.0
C628 C 0.69646 0.033 0.59902 0.0
C629 C 0.84162 0.14847 0.58774 0.0
C630 C 0.7192 0.99635 0.62464 0.0
H631 H 0.89913 0.03723 0.61999 0.0
H632 H 0.87188 0.1223 0.65663 0.0
H633 H 0.7973 0.99555 0.59651 0.0
H634 H 0.83884 0.04918 0.58345 0.0
H635 H 0.85899 0.01105 0.59332 0.0
H636 H 0.81388 0.1439 0.65211 0.0
H637 H 0.80567 0.15214 0.62843 0.0
H638 H 0.76276 0.09902 0.64143 0.0
H639 H 0.76321 0.13211 0.5706 0.0
H640 H 0.65982 0.00458 0.60191 0.0
H641 H 0.8657 0.13423 0.58452 0.0
H642 H 0.85474 0.16963 0.59986 0.0
H643 H 0.84436 0.17274 0.5761 0.0
H644 H 0.74058 0.97856 0.6226 0.0
H645 H 0.68069 0.96877 0.6253 0.0
H646 H 0.72771 0.01269 0.63795 0.0
C647 C 0.85618 0.82454 0.97403 0.0
C648 C 0.86758 0.87233 0.97123 0.0
C649 C 0.824 0.78904 0.96328 0.0
C650 C 0.80294 0.80158 0.94921 0.0
C651 C 0.81477 0.8498 0.94609 0.0
C652 C 0.84684 0.88458 0.95716 0.0
C653 C 0.8123 0.73803 0.96706 0.0
C654 C 0.79318 0.86458 0.93116 0.0
C655 C 0.75036 0.71549 0.91175 0.0
C656 C 0.70146 0.69145 0.91711 0.0
C657 C 0.78376 0.75176 0.92196 0.0
C658 C 0.76791 0.76397 0.93799 0.0
C659 C 0.7186 0.73963 0.94351 0.0
C660 C 0.68596 0.70381 0.93297 0.0
C661 C 0.83598 0.77718 0.91554 0.0
C662 C 0.70033 0.75123 0.96063 0.0
H663 H 0.87276 0.81482 0.98459 0.0
H664 H 0.85507 0.92127 0.95499 0.0
H665 H 0.77338 0.7147 0.97041 0.0
H666 H 0.82148 0.72485 0.95473 0.0
H667 H 0.83177 0.73419 0.9785 0.0
H668 H 0.80724 0.90374 0.93011 0.0
H669 H 0.8006 0.85376 0.91787 0.0
H670 H 0.7538 0.84606 0.93374 0.0
H671 H 0.7624 0.70651 0.89937 0.0
H672 H 0.64824 0.68502 0.93724 0.0
H673 H 0.85697 0.7723 0.9261 0.0
H674 H 0.84974 0.81611 0.91341 0.0
H675 H 0.84238 0.76393 0.90264 0.0
H676 H 0.71695 0.74523 0.97259 0.0
H677 H 0.66088 0.7292 0.96297 0.0
H678 H 0.71056 0.78949 0.95981 0.0
C679 C 0.04582 0.88373 0.29016 0.0
C680 C 0.0213 0.86836 0.30739 0.0
C681 C 0.04962 0.85155 0.27891 0.0
C682 C 0.02829 0.8028 0.28502 0.0
C683 C 0.00319 0.78699 0.30234 0.0
C684 C 1.00005 0.81996 0.31331 0.0
C685 C 0.07682 0.86979 0.26056 0.0
C686 C 0.97965 0.73522 0.30928 0.0
C687 C 1.00001 0.7106 0.25002 0.0
C688 C 0.03753 0.70096 0.25144 0.0
C689 C 0.99669 0.74375 0.2608 0.0
C690 C 0.03192 0.7682 0.27326 0.0
C691 C 0.07027 0.7592 0.27461 0.0
C692 C 0.07258 0.72564 0.2637 0.0
C693 C 0.9553 0.75241 0.25894 0.0
C694 C 0.10858 0.78467 0.28772 0.0
H695 H 0.06295 0.9212 0.2856 0.0
H696 H 0.98063 0.80777 0.32653 0.0
H697 H 0.1071 0.86288 0.25986 0.0
H698 H 0.05326 0.85042 0.24963 0.0
H699 H 0.09107 0.9087 0.25778 0.0
H700 H 0.9615 0.72871 0.32306 0.0
H701 H 0.95293 0.71234 0.29978 0.0
H702 H 0.00671 0.72383 0.30984 0.0
H703 H 0.97325 0.69238 0.24034 0.0
H704 H 0.10141 0.71809 0.26503 0.0
H705 H 0.96881 0.79068 0.25507 0.0
H706 H 0.93442 0.74388 0.2722 0.0
H707 H 0.93096 0.73055 0.24857 0.0
H708 H 0.12569 0.8239 0.28495 0.0
H709 H 0.13666 0.77455 0.28679 0.0
H710 H 0.09238 0.77618 0.30188 0.0
C711 C 0.25576 0.0047 0.63829 0.0
C712 C 0.24026 0.03807 0.63752 0.0
C713 C 0.29386 0.01047 0.62663 0.0
C714 C 0.31759 0.05112 0.61418 0.0
C715 C 0.30212 0.085 0.6134 0.0
C716 C 0.26333 0.07783 0.62497 0.0
C717 C 0.30873 0.97311 0.62764 0.0
C718 C 0.32705 0.12919 0.60055 0.0
C719 C 0.44355 0.08539 0.59695 0.0
C720 C 0.43581 0.06723 0.57969 0.0
C721 C 0.40556 0.08165 0.60814 0.0
C722 C 0.35869 0.05814 0.60203 0.0
C723 C 0.3509 0.04004 0.5845 0.0
C724 C 0.38969 0.04516 0.57349 0.0
C725 C 0.41544 0.10207 0.6266 0.0
C726 C 0.30144 0.01413 0.5776 0.0
H727 H 0.23778 0.97388 0.64795 0.0
H728 H 0.25175 0.10399 0.62456 0.0
H729 H 0.30734 0.95885 0.61407 0.0
H730 H 0.34618 0.98942 0.63154 0.0
H731 H 0.28561 0.94286 0.63765 0.0
H732 H 0.31077 0.1522 0.60169 0.0
H733 H 0.36528 0.15042 0.60344 0.0
H734 H 0.32574 0.11896 0.58628 0.0
H735 H 0.47924 0.10193 0.60177 0.0
H736 H 0.38391 0.0309 0.56014 0.0
H737 H 0.39706 0.07284 0.63743 0.0
H738 H 0.40106 0.12658 0.62812 0.0
H739 H 0.45422 0.12191 0.62882 0.0
H740 H 0.27813 0.98185 0.5867 0.0
H741 H 0.30162 0.00298 0.56352 0.0
H742 H 0.28529 0.0373 0.57779 0.0
C743 C 0.27242 0.28102 0.96876 0.0
C744 C 0.27736 0.24332 0.97626 0.0
C745 C 0.30973 0.31891 0.95798 0.0
C746 C 0.35308 0.3191 0.95447 0.0
C747 C 0.35853 0.28139 0.96206 0.0
C748 C 0.32061 0.24394 0.97287 0.0
C749 C 0.30238 0.35831 0.95006 0.0
C750 C 0.40423 0.28036 0.95858 0.0
C751 C 0.42662 0.38948 0.91139 0.0
C752 C 0.46128 0.43201 0.9182 0.0
C753 C 0.3918 0.35212 0.9231 0.0
C754 C 0.39164 0.35759 0.94208 0.0
C755 C 0.42703 0.40049 0.94903 0.0
C756 C 0.46152 0.4374 0.93695 0.0
C757 C 0.35468 0.30714 0.91511 0.0
C758 C 0.42791 0.40764 0.96917 0.0
H759 H 0.2389 0.28049 0.97102 0.0
H760 H 0.32494 0.21528 0.97878 0.0
H761 H 0.33117 0.39356 0.95387 0.0
H762 H 0.30433 0.35875 0.93498 0.0
H763 H 0.26737 0.35401 0.95478 0.0
H764 H 0.4034 0.24936 0.96596 0.0
H765 H 0.41052 0.2786 0.94379 0.0
H766 H 0.43501 0.31371 0.96282 0.0
H767 H 0.42659 0.38577 0.89681 0.0
H768 H 0.48841 0.47057 0.94208 0.0
H769 H 0.31861 0.30222 0.91811 0.0
H770 H 0.35476 0.27554 0.92144 0.0
H771 H 0.36084 0.30799 0.90012 0.0
H772 H 0.39459 0.40663 0.9741 0.0
H773 H 0.45891 0.4422 0.97245 0.0
H774 H 0.42932 0.37819 0.97678 0.0
C775 C 0.09205 0.29403 0.29323 0.0
C776 C 0.05318 0.26273 0.30522 0.0
C777 C 0.08949 0.3279 0.28156 0.0
C778 C 0.0468 0.32998 0.28174 0.0
C779 C 0.00717 0.29785 0.29359 0.0
C780 C 0.01095 0.26479 0.30526 0.0
C781 C 0.13265 0.36192 0.26925 0.0
C782 C 0.96083 0.29846 0.29398 0.0
C783 C 0.05378 0.44563 0.26464 0.0
C784 C 0.04012 0.43583 0.24681 0.0
C785 C 0.05619 0.41148 0.27616 0.0
C786 C 0.04384 0.36629 0.26973 0.0
C787 C 0.02888 0.35594 0.25181 0.0
C788 C 0.02743 0.39103 0.24051 0.0
C789 C 0.07259 0.42399 0.29512 0.0
C790 C 0.01481 0.30799 0.24454 0.0
H791 H 0.12481 0.29265 0.29326 0.0
H792 H 0.98059 0.24013 0.31433 0.0
H793 H 0.12331 0.35832 0.25483 0.0
H794 H 0.14441 0.39931 0.27239 0.0
H795 H 0.16305 0.35551 0.2707 0.0
H796 H 0.93294 0.27016 0.30362 0.0
H797 H 0.96699 0.33367 0.29801 0.0
H798 H 0.94713 0.29343 0.28018 0.0
H799 H 0.06339 0.48039 0.26942 0.0
H800 H 0.01682 0.38374 0.22667 0.0
H801 H 0.10495 0.4211 0.29688 0.0
H802 H 0.04454 0.39835 0.30536 0.0
H803 H 0.08099 0.46073 0.29801 0.0
H804 H 0.0456 0.30189 0.24445 0.0
H805 H 0.00264 0.30518 0.2305 0.0
H806 H 0.98568 0.27903 0.25355 0.0
loop_
_geom_bond_atom_site_label_1
_geom_bond_atom_site_label_2
_geom_bond_distance
_geom_bond_site_symmetry_2
_ccdc_geom_bond_type
Li0 N17 1.990 . S
Li0 O60 1.956 . S
Li0 O61 1.970 . S
Li0 O62 1.961 . S
Li1 N25 1.990 . S
Li1 O60 1.970 . S
Li1 O61 1.956 . S
Li1 O63 1.961 . S
Li2 N47 1.990 1_545 S
Li2 O60 1.961 . S
Li2 O62 1.956 . S
Li2 O63 1.970 . S
Li3 N53 1.990 1_445 S
Li3 O61 1.961 . S
Li3 O62 1.970 . S
Li3 O63 1.956 . S
C4 C6 1.348 . S
C4 C7 1.356 . S
C4 O60 1.325 . S
N5 C8 1.314 . S
N5 C9 1.279 . S
C6 C4 1.348 . S
C6 C8 1.353 . S
C6 H64 0.929 . S
C7 C4 1.356 . S
C7 C9 1.358 . S
C7 H65 0.930 . S
C8 N5 1.314 . S
C8 C6 1.353 . S
C8 H66 0.930 . S
C9 N5 1.279 . S
C9 C7 1.358 . S
C9 H67 0.930 . S
C10 C13 1.354 . S
C10 C14 1.356 . S
C10 O61 1.325 . S
C11 N12 1.279 1_655 S
C11 C14 1.358 1_656 S
C11 H68 0.930 . S
N12 C11 1.279 1_455 S
N12 C15 1.314 . S
C13 C10 1.354 . S
C13 C15 1.344 1_554 S
C13 H69 0.932 . S
C14 C10 1.356 . S
C14 C11 1.358 1_454 S
C14 H70 0.930 1_455 S
C15 N12 1.314 . S
C15 C13 1.344 1_556 S
C15 H71 0.930 . S
C16 N17 1.314 1_556 S
C16 C21 1.353 . S
C16 H22 0.930 . S
N17 Li0 1.990 . S
N17 C16 1.314 1_554 S
N17 C19 1.279 . S
C18 C19 1.352 1_556 S
C18 C20 1.369 . S
C18 H72 0.924 1_556 S
C19 N17 1.279 . S
C19 C18 1.352 1_554 S
C19 H23 0.930 . S
C20 C18 1.369 . S
C20 C21 1.348 . S
C21 C16 1.353 . S
C21 C20 1.348 . S
C21 H73 0.929 . S
H22 C16 0.930 . S
H23 C19 0.930 . S
C24 N25 1.314 . S
C24 C26 1.353 . S
C24 H30 0.930 . S
N25 Li1 1.990 . S
N25 C24 1.314 . S
N25 C28 1.279 . S
C26 C24 1.353 . S
C26 C29 1.348 . S
C26 H74 0.930 . S
C27 C28 1.358 . S
C27 C29 1.356 . S
C27 H75 0.930 . S
C28 N25 1.279 . S
C28 C27 1.358 . S
C28 H31 0.930 . S
C29 C26 1.348 . S
C29 C27 1.356 . S
H30 C24 0.930 . S
H31 C28 0.930 . S
C32 C34 1.348 . S
C32 C35 1.356 . S
C32 O62 1.325 1_565 S
N33 C36 1.314 . S
N33 C37 1.279 . S
C34 C32 1.348 . S
C34 C36 1.353 1_554 S
C34 H76 0.929 . S
C35 C32 1.356 . S
C35 C37 1.358 1_554 S
C35 H77 0.930 1_565 S
C36 N33 1.314 . S
C36 C34 1.353 1_556 S
C36 H78 0.930 . S
C37 N33 1.279 . S
C37 C35 1.358 1_556 S
C37 H79 0.930 . S
C38 C39 1.348 . S
C38 C40 1.356 . S
C38 O63 1.325 1_665 S
C39 C38 1.348 . S
C39 C41 1.353 . S
C39 H80 0.929 . S
C40 C38 1.356 . S
C40 C42 1.358 . S
C40 H81 0.930 1_565 S
C41 C39 1.353 . S
C41 N43 1.314 . S
C41 H82 0.930 . S
C42 C40 1.358 . S
C42 N43 1.279 . S
C42 H83 0.930 . S
N43 C41 1.314 . S
N43 C42 1.279 . S
C44 C46 1.353 . S
C44 N47 1.314 . S
C44 H50 0.930 1_565 S
C45 N47 1.279 . S
C45 C48 1.358 . S
C45 H51 0.930 . S
C46 C44 1.353 . S
C46 C49 1.348 . S
C46 H84 0.929 . S
N47 Li2 1.990 1_565 S
N47 C44 1.314 . S
N47 C45 1.279 . S
C48 C45 1.358 . S
C48 C49 1.356 . S
C48 H85 0.930 . S
C49 C46 1.348 . S
C49 C48 1.356 . S
H50 C44 0.930 1_545 S
H51 C45 0.930 . S
C52 N53 1.314 1_556 S
C52 C54 1.353 . S
C52 H58 0.930 1_565 S
N53 Li3 1.990 1_665 S
N53 C52 1.314 1_554 S
N53 C56 1.279 . S
C54 C52 1.353 . S
C54 C57 1.348 . S
C54 H86 0.929 . S
C55 C56 1.358 . S
C55 C57 1.356 1_554 S
C55 H87 0.930 . S
C56 N53 1.279 . S
C56 C55 1.358 . S
C56 H59 0.930 . S
C57 C54 1.348 . S
C57 C55 1.356 1_556 S
H58 C52 0.930 1_545 S
H59 C56 0.930 . S
O60 Li0 1.956 . S
O60 Li1 1.970 . S
O60 Li2 1.961 . S
O60 C4 1.325 . S
O61 Li0 1.970 . S
O61 Li1 1.956 . S
O61 Li3 1.961 . S
O61 C10 1.325 . S
O62 Li0 1.961 . S
O62 Li2 1.956 . S
O62 Li3 1.970 . S
O62 C32 1.325 1_545 S
O63 Li1 1.961 . S
O63 Li2 1.970 . S
O63 Li3 1.956 . S
O63 C38 1.325 1_445 S
H64 C6 0.929 . S
H65 C7 0.930 . S
H66 C8 0.930 . S
H67 C9 0.930 . S
H68 C11 0.930 . S
H69 C13 0.932 . S
H70 C14 0.930 1_655 S
H71 C15 0.930 . S
H72 C18 0.924 1_554 S
H73 C21 0.929 . S
H74 C26 0.930 . S
H75 C27 0.930 . S
H76 C34 0.929 . S
H77 C35 0.930 1_545 S
H78 C36 0.930 . S
H79 C37 0.930 . S
H80 C39 0.929 . S
H81 C40 0.930 1_545 S
H82 C41 0.930 . S
H83 C42 0.930 . S
H84 C46 0.929 . S
H85 C48 0.930 . S
H86 C54 0.929 . S
H87 C55 0.930 . S
Li88 N105 1.990 1_545 S
Li88 O148 1.956 . S
Li88 O149 1.970 . S
Li88 O150 1.961 1_455 S
Li89 N113 1.990 . S
Li89 O148 1.970 . S
Li89 O149 1.956 . S
Li89 O151 1.961 . S
Li90 N135 1.990 . S
Li90 O148 1.961 1_655 S
Li90 O150 1.956 . S
Li90 O151 1.970 1_655 S
Li91 N141 1.990 . S
Li91 O149 1.961 . S
Li91 O150 1.970 1_455 S
Li91 O151 1.956 . S
C92 C94 1.348 . S
C92 C95 1.356 1_455 S
C92 O148 1.325 1_565 S
N93 C96 1.314 1_655 S
N93 C97 1.279 . S
C94 C92 1.348 . S
C94 C96 1.353 . S
C94 H152 0.927 1_565 S
C95 C92 1.356 1_655 S
C95 C97 1.358 . S
C95 H153 0.930 . S
C96 N93 1.314 1_455 S
C96 C94 1.353 . S
C96 H154 0.930 . S
C97 N93 1.279 . S
C97 C95 1.358 . S
C97 H155 0.930 . S
C98 C101 1.348 . S
C98 C102 1.356 . S
C98 O149 1.325 . S
C99 N100 1.279 . S
C99 C102 1.358 . S
C99 H156 0.930 . S
N100 C99 1.279 . S
N100 C103 1.314 . S
C101 C98 1.348 . S
C101 C103 1.353 . S
C101 H157 0.929 . S
C102 C98 1.356 . S
C102 C99 1.358 . S
C102 H158 0.930 . S
C103 N100 1.314 . S
C103 C101 1.353 . S
C103 H159 0.930 . S
C104 N105 1.314 1_655 S
C104 C109 1.353 . S
C104 H110 0.930 . S
N105 Li88 1.990 1_565 S
N105 C104 1.314 1_455 S
N105 C107 1.279 . S
C106 C107 1.358 1_655 S
C106 C108 1.356 . S
C106 H160 0.930 . S
C107 N105 1.279 . S
C107 C106 1.358 1_455 S
C107 H111 0.930 . S
C108 C106 1.356 . S
C108 C109 1.348 . S
C109 C104 1.353 . S
C109 C108 1.348 . S
C109 H161 0.929 . S
H110 C104 0.930 . S
H111 C107 0.930 . S
C112 N113 1.314 . S
C112 C114 1.353 . S
C112 H118 0.930 . S
N113 Li89 1.990 . S
N113 C112 1.314 . S
N113 C116 1.279 . S
C114 C112 1.353 . S
C114 C117 1.348 . S
C114 H162 0.929 . S
C115 C116 1.358 . S
C115 C117 1.356 . S
C115 H163 0.930 . S
C116 N113 1.279 . S
C116 C115 1.358 . S
C116 H119 0.930 . S
C117 C114 1.348 . S
C117 C115 1.356 . S
H118 C112 0.930 . S
H119 C116 0.930 . S
C120 C122 1.348 . S
C120 C123 1.356 . S
C120 O150 1.325 . S
N121 C124 1.314 . S
N121 C125 1.279 1_545 S
C122 C120 1.348 . S
C122 C124 1.353 . S
C122 H164 0.929 . S
C123 C120 1.356 . S
C123 C125 1.358 1_545 S
C123 H165 0.930 1_545 S
C124 N121 1.314 . S
C124 C122 1.353 . S
C124 H166 0.930 . S
C125 N121 1.279 1_565 S
C125 C123 1.358 1_565 S
C125 H167 0.930 . S
C126 C127 1.348 . S
C126 C128 1.356 . S
C126 O151 1.325 . S
C127 C126 1.348 . S
C127 C129 1.353 . S
C127 H168 0.929 1_455 S
C128 C126 1.356 . S
C128 C130 1.358 . S
C128 H169 0.930 . S
C129 C127 1.353 . S
C129 N131 1.314 . S
C129 H170 0.930 . S
C130 C128 1.358 . S
C130 N131 1.279 . S
C130 H171 0.930 . S
N131 C129 1.314 . S
N131 C130 1.279 . S
C132 C134 1.353 . S
C132 N135 1.314 . S
C132 H138 0.930 . S
C133 N135 1.279 . S
C133 C136 1.358 . S
C133 H139 0.930 . S
C134 C132 1.353 . S
C134 C137 1.348 . S
C134 H172 0.929 . S
N135 Li90 1.990 . S
N135 C132 1.314 . S
N135 C133 1.279 . S
C136 C133 1.358 . S
C136 C137 1.356 . S
C136 H173 0.930 . S
C137 C134 1.348 . S
C137 C136 1.356 . S
H138 C132 0.930 . S
H139 C133 0.930 . S
C140 N141 1.314 . S
C140 C142 1.353 . S
C140 H146 0.930 . S
N141 Li91 1.990 . S
N141 C140 1.314 . S
N141 C144 1.279 . S
C142 C140 1.353 . S
C142 C145 1.348 . S
C142 H174 0.929 . S
C143 C144 1.358 . S
C143 C145 1.356 . S
C143 H175 0.930 . S
C144 N141 1.279 . S
C144 C143 1.358 . S
C144 H147 0.930 . S
C145 C142 1.348 . S
C145 C143 1.356 . S
H146 C140 0.930 . S
H147 C144 0.930 . S
O148 Li88 1.956 . S
O148 Li89 1.970 . S
O148 Li90 1.961 1_455 S
O148 C92 1.325 1_545 S
O149 Li88 1.970 . S
O149 Li89 1.956 . S
O149 Li91 1.961 . S
O149 C98 1.325 . S
O150 Li88 1.961 1_655 S
O150 Li90 1.956 . S
O150 Li91 1.970 1_655 S
O150 C120 1.325 . S
O151 Li89 1.961 . S
O151 Li90 1.970 1_455 S
O151 Li91 1.956 . S
O151 C126 1.325 . S
H152 C94 0.927 1_545 S
H153 C95 0.930 . S
H154 C96 0.930 . S
H155 C97 0.930 . S
H156 C99 0.930 . S
H157 C101 0.929 . S
H158 C102 0.930 . S
H159 C103 0.930 . S
H160 C106 0.930 . S
H161 C109 0.929 . S
H162 C114 0.929 . S
H163 C115 0.930 . S
H164 C122 0.929 . S
H165 C123 0.930 1_565 S
H166 C124 0.930 . S
H167 C125 0.930 . S
H168 C127 0.929 1_655 S
H169 C128 0.930 . S
H170 C129 0.930 . S
H171 C130 0.930 . S
H172 C134 0.929 . S
H173 C136 0.930 . S
H174 C142 0.929 . S
H175 C143 0.930 . S
Li176 N193 1.990 . S
Li176 O236 1.956 . S
Li176 O237 1.970 . S
Li176 O238 1.961 1_545 S
Li177 N201 1.990 . S
Li177 O236 1.970 . S
Li177 O237 1.956 . S
Li177 O239 1.961 . S
Li178 N223 1.990 1_455 S
Li178 O236 1.961 1_565 S
Li178 O238 1.956 . S
Li178 O239 1.970 1_565 S
Li179 N229 1.990 1_455 S
Li179 O237 1.961 . S
Li179 O238 1.970 1_545 S
Li179 O239 1.956 . S
C180 C182 1.348 . S
C180 C183 1.356 1_545 S
C180 O236 1.325 . S
N181 C184 1.314 1_565 S
N181 C185 1.279 . S
C182 C180 1.348 . S
C182 C184 1.353 . S
C182 H240 0.929 . S
C183 C180 1.356 1_565 S
C183 C185 1.358 . S
C183 H241 0.930 . S
C184 N181 1.314 1_545 S
C184 C182 1.353 . S
C184 H242 0.930 . S
C185 N181 1.279 . S
C185 C183 1.358 . S
C185 H243 0.930 . S
C186 C189 1.348 . S
C186 C190 1.356 . S
C186 O237 1.325 . S
C187 N188 1.279 . S
C187 C190 1.358 . S
C187 H244 0.930 . S
N188 C187 1.279 . S
N188 C191 1.314 . S
C189 C186 1.348 . S
C189 C191 1.353 . S
C189 H245 0.929 . S
C190 C186 1.356 . S
C190 C187 1.358 . S
C190 H246 0.930 . S
C191 N188 1.314 . S
C191 C189 1.353 . S
C191 H247 0.930 . S
C192 N193 1.314 . S
C192 C197 1.353 1_545 S
C192 H198 0.930 . S
N193 Li176 1.990 . S
N193 C192 1.314 . S
N193 C195 1.279 . S
C194 C195 1.358 . S
C194 C196 1.357 . S
C194 H248 0.930 . S
C195 N193 1.279 . S
C195 C194 1.358 . S
C195 H199 0.930 . S
C196 C194 1.357 . S
C196 C197 1.352 1_545 S
C197 C192 1.353 1_565 S
C197 C196 1.352 1_565 S
C197 H249 0.929 . S
H198 C192 0.930 . S
H199 C195 0.930 . S
C200 N201 1.314 . S
C200 C202 1.353 . S
C200 H206 0.930 . S
N201 Li177 1.990 . S
N201 C200 1.314 . S
N201 C204 1.279 . S
C202 C200 1.353 . S
C202 C205 1.348 . S
C202 H250 0.929 . S
C203 C204 1.358 . S
C203 C205 1.356 . S
C203 H251 0.930 . S
C204 N201 1.279 . S
C204 C203 1.358 . S
C204 H207 0.930 . S
C205 C202 1.348 . S
C205 C203 1.356 . S
H206 C200 0.930 . S
H207 C204 0.930 . S
C208 C210 1.348 . S
C208 C211 1.356 1_655 S
C208 O238 1.325 1_655 S
N209 C212 1.314 . S
N209 C213 1.279 . S
C210 C208 1.348 . S
C210 C212 1.353 . S
C210 H252 0.929 . S
C211 C208 1.356 1_455 S
C211 C213 1.358 1_455 S
C211 H253 0.930 . S
C212 N209 1.314 . S
C212 C210 1.353 . S
C212 H254 0.930 . S
C213 N209 1.279 . S
C213 C211 1.358 1_655 S
C213 H255 0.930 . S
C214 C215 1.348 . S
C214 C216 1.356 1_655 S
C214 O239 1.325 1_655 S
C215 C214 1.348 . S
C215 C217 1.353 . S
C215 H256 0.929 1_545 S
C216 C214 1.356 1_455 S
C216 C218 1.358 1_455 S
C216 H257 0.930 . S
C217 C215 1.353 . S
C217 N219 1.314 . S
C217 H258 0.930 . S
C218 C216 1.358 1_655 S
C218 N219 1.279 . S
C218 H259 0.930 . S
N219 C217 1.314 . S
N219 C218 1.279 . S
C220 C222 1.353 . S
C220 N223 1.314 . S
C220 H226 0.930 1_655 S
C221 N223 1.279 . S
C221 C224 1.358 . S
C221 H227 0.930 . S
C222 C220 1.353 . S
C222 C225 1.348 . S
C222 H260 0.929 . S
N223 Li178 1.990 1_655 S
N223 C220 1.314 . S
N223 C221 1.279 . S
C224 C221 1.358 . S
C224 C225 1.356 . S
C224 H261 0.930 . S
C225 C222 1.348 . S
C225 C224 1.356 . S
H226 C220 0.930 1_455 S
H227 C221 0.930 . S
C228 N229 1.314 . S
C228 C230 1.353 . S
C228 H234 0.930 1_655 S
N229 Li179 1.990 1_655 S
N229 C228 1.314 . S
N229 C232 1.279 . S
C230 C228 1.353 . S
C230 C233 1.348 . S
C230 H262 0.929 . S
C231 C232 1.358 . S
C231 C233 1.356 . S
C231 H263 0.930 . S
C232 N229 1.279 . S
C232 C231 1.358 . S
C232 H235 0.930 . S
C233 C230 1.348 . S
C233 C231 1.356 . S
H234 C228 0.930 1_455 S
H235 C232 0.930 . S
O236 Li176 1.956 . S
O236 Li177 1.970 . S
O236 Li178 1.961 1_545 S
O236 C180 1.325 . S
O237 Li176 1.970 . S
O237 Li177 1.956 . S
O237 Li179 1.961 . S
O237 C186 1.325 . S
O238 Li176 1.961 1_565 S
O238 Li178 1.956 . S
O238 Li179 1.970 1_565 S
O238 C208 1.325 1_455 S
O239 Li177 1.961 . S
O239 Li178 1.970 1_545 S
O239 Li179 1.956 . S
O239 C214 1.325 1_455 S
H240 C182 0.929 . S
H241 C183 0.930 . S
H242 C184 0.930 . S
H243 C185 0.930 . S
H244 C187 0.930 . S
H245 C189 0.929 . S
H246 C190 0.930 . S
H247 C191 0.930 . S
H248 C194 0.930 . S
H249 C197 0.929 . S
H250 C202 0.929 . S
H251 C203 0.930 . S
H252 C210 0.929 . S
H253 C211 0.930 . S
H254 C212 0.930 . S
H255 C213 0.930 . S
H256 C215 0.929 1_565 S
H257 C216 0.930 . S
H258 C217 0.930 . S
H259 C218 0.930 . S
H260 C222 0.929 . S
H261 C224 0.930 . S
H262 C230 0.929 . S
H263 C231 0.930 . S
C264 C265 1.443 . S
C264 N268 1.376 . S
C264 C302 1.389 . S
C265 C264 1.443 . S
C265 C266 1.340 . S
C265 H305 0.951 . S
C266 C265 1.340 . S
C266 C267 1.439 . S
C266 H306 0.950 . S
C267 C266 1.439 . S
C267 N268 1.374 . S
C267 C301 1.395 . S
N268 C264 1.376 . S
N268 C267 1.374 . S
N268 Co269 2.008 . S
Co269 N268 2.008 . S
Co269 N270 1.995 . S
Co269 N275 2.008 1_455 S
Co269 N280 1.995 1_455 S
Co269 N285 2.282 . S
Co269 N291 2.282 . S
N270 Co269 1.995 . S
N270 C271 1.376 . S
N270 C274 1.383 . S
C271 N270 1.376 . S
C271 C272 1.446 . S
C271 C301 1.391 . S
C272 C271 1.446 . S
C272 C273 1.339 . S
C272 H307 0.949 . S
C273 C272 1.339 . S
C273 C274 1.439 . S
C273 H308 0.950 . S
C274 N270 1.383 . S
C274 C273 1.439 . S
C274 C303 1.392 . S
N275 Co269 2.008 1_655 S
N275 C276 1.376 . S
N275 C279 1.374 . S
C276 N275 1.376 . S
C276 C277 1.443 . S
C276 C303 1.389 1_655 S
C277 C276 1.443 . S
C277 C278 1.340 . S
C277 H309 0.951 . S
C278 C277 1.340 . S
C278 C279 1.439 . S
C278 H310 0.950 . S
C279 N275 1.374 . S
C279 C278 1.439 . S
C279 C304 1.395 . S
N280 Co269 1.995 1_655 S
N280 C281 1.376 . S
N280 C284 1.383 . S
C281 N280 1.376 . S
C281 C282 1.446 . S
C281 C304 1.391 . S
C282 C281 1.446 . S
C282 C283 1.339 . S
C282 H311 0.949 . S
C283 C282 1.339 . S
C283 C284 1.439 . S
C283 H312 0.950 . S
C284 N280 1.383 . S
C284 C283 1.439 . S
C284 C302 1.392 1_655 S
N285 Co269 2.282 . S
N285 C288 1.332 1_455 S
N285 C290 1.332 . S
C286 C287 1.386 1_455 S
C286 C289 1.388 . S
C287 C286 1.386 1_655 S
C287 C288 1.382 . S
C287 H313 0.950 . S
C288 N285 1.332 1_655 S
C288 C287 1.382 . S
C288 H299 0.952 . S
C289 C286 1.388 . S
C289 C290 1.382 . S
C289 H314 0.950 . S
C290 N285 1.332 . S
C290 C289 1.382 . S
C290 H300 0.948 . S
N291 Co269 2.282 . S
N291 C295 1.332 . S
N291 C296 1.332 1_455 S
C292 C293 1.388 1_655 S
C292 C296 1.382 . S
C292 H315 0.950 . S
C293 C292 1.388 1_455 S
C293 C294 1.386 . S
C294 C293 1.386 . S
C294 C295 1.382 . S
C294 H316 0.950 . S
C295 N291 1.332 . S
C295 C294 1.382 . S
C295 H297 0.952 . S
C296 N291 1.332 1_655 S
C296 C292 1.382 . S
C296 H298 0.948 . S
H297 C295 0.952 . S
H298 C296 0.948 . S
H299 C288 0.952 . S
H300 C290 0.948 . S
C301 C267 1.395 . S
C301 C271 1.391 . S
C302 C264 1.389 . S
C302 C284 1.392 1_455 S
C303 C274 1.392 . S
C303 C276 1.389 1_455 S
C304 C279 1.395 . S
C304 C281 1.391 . S
H305 C265 0.951 . S
H306 C266 0.950 . S
H307 C272 0.949 . S
H308 C273 0.950 . S
H309 C277 0.951 . S
H310 C278 0.950 . S
H311 C282 0.949 . S
H312 C283 0.950 . S
H313 C287 0.950 . S
H314 C289 0.950 . S
H315 C292 0.950 . S
H316 C294 0.950 . S
C317 C318 1.443 1_545 S
C317 N321 1.376 . S
C317 C355 1.389 . S
C318 C317 1.443 1_565 S
C318 C319 1.340 . S
C318 H358 0.951 . S
C319 C318 1.340 . S
C319 C320 1.439 . S
C319 H359 0.950 . S
C320 C319 1.439 . S
C320 N321 1.374 1_565 S
C320 C354 1.395 . S
N321 C317 1.376 . S
N321 C320 1.374 1_545 S
N321 Co322 2.008 . S
Co322 N321 2.008 . S
Co322 N323 1.995 . S
Co322 N328 2.008 . S
Co322 N333 1.995 . S
Co322 N338 2.282 . S
Co322 N344 2.282 . S
N323 Co322 1.995 . S
N323 C324 1.376 1_545 S
N323 C327 1.383 . S
C324 N323 1.376 1_565 S
C324 C325 1.446 . S
C324 C354 1.391 . S
C325 C324 1.446 . S
C325 C326 1.339 . S
C325 H360 0.949 . S
C326 C325 1.339 . S
C326 C327 1.439 1_565 S
C326 H361 0.950 . S
C327 N323 1.383 . S
C327 C326 1.439 1_545 S
C327 C356 1.392 . S
N328 Co322 2.008 . S
N328 C329 1.376 . S
N328 C332 1.374 . S
C329 N328 1.376 . S
C329 C330 1.443 . S
C329 C356 1.389 . S
C330 C329 1.443 . S
C330 C331 1.340 . S
C330 H362 0.951 . S
C331 C330 1.340 . S
C331 C332 1.439 . S
C331 H363 0.950 . S
C332 N328 1.374 . S
C332 C331 1.439 . S
C332 C357 1.395 . S
N333 Co322 1.995 . S
N333 C334 1.376 . S
N333 C337 1.383 . S
C334 N333 1.376 . S
C334 C335 1.446 . S
C334 C357 1.391 . S
C335 C334 1.446 . S
C335 C336 1.339 . S
C335 H364 0.949 . S
C336 C335 1.339 . S
C336 C337 1.439 . S
C336 H365 0.950 . S
C337 N333 1.383 . S
C337 C336 1.439 . S
C337 C355 1.392 . S
N338 Co322 2.282 . S
N338 C341 1.332 . S
N338 C343 1.332 . S
C339 C340 1.386 . S
C339 C342 1.388 . S
C340 C339 1.386 . S
C340 C341 1.382 . S
C340 H366 0.950 . S
C341 N338 1.332 . S
C341 C340 1.382 . S
C341 H352 0.952 . S
C342 C339 1.388 . S
C342 C343 1.382 . S
C342 H367 0.950 . S
C343 N338 1.332 . S
C343 C342 1.382 . S
C343 H353 0.948 . S
N344 Co322 2.282 . S
N344 C348 1.332 . S
N344 C349 1.332 . S
C345 C346 1.388 . S
C345 C349 1.382 . S
C345 H368 0.950 . S
C346 C345 1.388 . S
C346 C347 1.386 . S
C347 C346 1.386 . S
C347 C348 1.382 . S
C347 H369 0.950 . S
C348 N344 1.332 . S
C348 C347 1.382 . S
C348 H350 0.952 . S
C349 N344 1.332 . S
C349 C345 1.382 . S
C349 H351 0.948 . S
H350 C348 0.952 . S
H351 C349 0.948 . S
H352 C341 0.952 . S
H353 C343 0.948 . S
C354 C320 1.395 . S
C354 C324 1.391 . S
C355 C317 1.389 . S
C355 C337 1.392 . S
C356 C327 1.392 . S
C356 C329 1.389 . S
C357 C332 1.395 . S
C357 C334 1.391 . S
H358 C318 0.951 . S
H359 C319 0.950 . S
H360 C325 0.949 . S
H361 C326 0.950 . S
H362 C330 0.951 . S
H363 C331 0.950 . S
H364 C335 0.949 . S
H365 C336 0.950 . S
H366 C340 0.950 . S
H367 C342 0.950 . S
H368 C345 0.950 . S
H369 C347 0.950 . S
C370 C371 1.443 . S
C370 N374 1.376 . S
C370 C408 1.389 . S
C371 C370 1.443 . S
C371 C372 1.340 . S
C371 H411 0.951 . S
C372 C371 1.340 . S
C372 C373 1.439 . S
C372 H412 0.950 . S
C373 C372 1.439 . S
C373 N374 1.374 . S
C373 C407 1.395 . S
N374 C370 1.376 . S
N374 C373 1.374 . S
N374 Co375 2.008 . S
Co375 N374 2.008 . S
Co375 N376 1.995 . S
Co375 N381 2.008 . S
Co375 N386 1.995 . S
Co375 N391 2.282 . S
Co375 N397 2.282 . S
N376 Co375 1.995 . S
N376 C377 1.376 . S
N376 C380 1.383 . S
C377 N376 1.376 . S
C377 C378 1.446 . S
C377 C407 1.391 . S
C378 C377 1.446 . S
C378 C379 1.339 . S
C378 H413 0.949 . S
C379 C378 1.339 . S
C379 C380 1.439 . S
C379 H414 0.950 . S
C380 N376 1.383 . S
C380 C379 1.439 . S
C380 C409 1.392 . S
N381 Co375 2.008 . S
N381 C382 1.376 . S
N381 C385 1.374 . S
C382 N381 1.376 . S
C382 C383 1.443 . S
C382 C409 1.389 . S
C383 C382 1.443 . S
C383 C384 1.340 . S
C383 H415 0.951 . S
C384 C383 1.340 . S
C384 C385 1.439 . S
C384 H416 0.950 . S
C385 N381 1.374 . S
C385 C384 1.439 . S
C385 C410 1.395 . S
N386 Co375 1.995 . S
N386 C387 1.376 . S
N386 C390 1.383 . S
C387 N386 1.376 . S
C387 C388 1.446 . S
C387 C410 1.391 . S
C388 C387 1.446 . S
C388 C389 1.339 . S
C388 H417 0.949 . S
C389 C388 1.339 . S
C389 C390 1.439 . S
C389 H418 0.950 . S
C390 N386 1.383 . S
C390 C389 1.439 . S
C390 C408 1.392 . S
N391 Co375 2.282 . S
N391 C394 1.332 . S
N391 C396 1.332 . S
C392 C393 1.386 . S
C392 C395 1.388 . S
C393 C392 1.386 . S
C393 C394 1.382 . S
C393 H419 0.950 . S
C394 N391 1.332 . S
C394 C393 1.382 . S
C394 H405 0.952 . S
C395 C392 1.388 . S
C395 C396 1.382 . S
C395 H420 0.950 . S
C396 N391 1.332 . S
C396 C395 1.382 . S
C396 H406 0.948 . S
N397 Co375 2.282 . S
N397 C401 1.332 . S
N397 C402 1.332 . S
C398 C399 1.388 . S
C398 C402 1.382 . S
C398 H421 0.950 . S
C399 C398 1.388 . S
C399 C400 1.386 . S
C400 C399 1.386 . S
C400 C401 1.382 . S
C400 H422 0.950 . S
C401 N397 1.332 . S
C401 C400 1.382 . S
C401 H403 0.952 . S
C402 N397 1.332 . S
C402 C398 1.382 . S
C402 H404 0.948 . S
H403 C401 0.952 . S
H404 C402 0.948 . S
H405 C394 0.952 . S
H406 C396 0.948 . S
C407 C373 1.395 . S
C407 C377 1.391 . S
C408 C370 1.389 . S
C408 C390 1.392 . S
C409 C380 1.392 . S
C409 C382 1.389 . S
C410 C385 1.395 . S
C410 C387 1.391 . S
H411 C371 0.951 . S
H412 C372 0.950 . S
H413 C378 0.949 . S
H414 C379 0.950 . S
H415 C383 0.951 . S
H416 C384 0.950 . S
H417 C388 0.949 . S
H418 C389 0.950 . S
H419 C393 0.950 . S
H420 C395 0.950 . S
H421 C398 0.950 . S
H422 C400 0.950 . S
C423 C424 1.391 . S
C423 C425 1.394 . S
C423 H439 0.931 . S
C424 C423 1.391 . S
C424 C428 1.376 1_455 S
C425 C423 1.394 . S
C425 C426 1.369 . S
C425 C429 1.531 . S
C426 C425 1.369 . S
C426 C427 1.410 1_455 S
C426 C434 1.503 . S
C427 C426 1.410 1_655 S
C427 C428 1.392 . S
C427 C430 1.511 . S
C428 C424 1.376 1_655 S
C428 C427 1.392 . S
C428 H440 0.929 . S
C429 C425 1.531 . S
C429 H441 0.960 . S
C429 H442 0.962 . S
C429 H443 0.960 . S
C430 C427 1.511 . S
C430 H444 0.961 . S
C430 H445 0.961 . S
C430 H446 0.961 . S
C431 C432 1.370 . S
C431 C433 1.363 . S
C431 H447 0.931 . S
C432 C431 1.370 . S
C432 C436 1.408 . S
C433 C431 1.363 . S
C433 C434 1.370 . S
C433 C437 1.524 . S
C434 C426 1.503 . S
C434 C433 1.370 . S
C434 C435 1.403 . S
C435 C434 1.403 . S
C435 C436 1.404 . S
C435 C438 1.539 . S
C436 C432 1.408 . S
C436 C435 1.404 . S
C436 H448 0.930 . S
C437 C433 1.524 . S
C437 H449 0.956 . S
C437 H450 0.961 1_455 S
C437 H451 0.961 . S
C438 C435 1.539 . S
C438 H452 0.958 . S
C438 H453 0.961 . S
C438 H454 0.960 . S
H439 C423 0.931 . S
H440 C428 0.929 . S
H441 C429 0.960 . S
H442 C429 0.962 . S
H443 C429 0.960 . S
H444 C430 0.961 . S
H445 C430 0.961 . S
H446 C430 0.961 . S
H447 C431 0.931 . S
H448 C436 0.930 . S
H449 C437 0.956 . S
H450 C437 0.961 1_655 S
H451 C437 0.961 . S
H452 C438 0.958 . S
H453 C438 0.961 . S
H454 C438 0.960 . S
C455 C456 1.391 1_565 S
C455 C457 1.394 . S
C455 H471 0.931 . S
C456 C455 1.391 1_545 S
C456 C460 1.376 . S
C457 C455 1.394 . S
C457 C458 1.369 1_565 S
C457 C461 1.531 . S
C458 C457 1.369 1_545 S
C458 C459 1.410 . S
C458 C466 1.503 . S
C459 C458 1.410 . S
C459 C460 1.392 . S
C459 C462 1.511 . S
C460 C456 1.376 . S
C460 C459 1.392 . S
C460 H472 0.929 . S
C461 C457 1.531 . S
C461 H473 0.960 . S
C461 H474 0.962 . S
C461 H475 0.960 . S
C462 C459 1.511 . S
C462 H476 0.961 . S
C462 H477 0.961 . S
C462 H478 0.961 . S
C463 C464 1.370 . S
C463 C465 1.363 . S
C463 H479 0.931 . S
C464 C463 1.370 . S
C464 C468 1.408 . S
C465 C463 1.363 . S
C465 C466 1.370 . S
C465 C469 1.524 . S
C466 C458 1.503 . S
C466 C465 1.370 . S
C466 C467 1.403 . S
C467 C466 1.403 . S
C467 C468 1.404 . S
C467 C470 1.539 . S
C468 C464 1.408 . S
C468 C467 1.404 . S
C468 H480 0.930 . S
C469 C465 1.524 . S
C469 H481 0.956 . S
C469 H482 0.961 . S
C469 H483 0.961 . S
C470 C467 1.539 . S
C470 H484 0.958 1_545 S
C470 H485 0.961 . S
C470 H486 0.960 . S
H471 C455 0.931 . S
H472 C460 0.929 . S
H473 C461 0.960 . S
H474 C461 0.962 . S
H475 C461 0.960 . S
H476 C462 0.961 . S
H477 C462 0.961 . S
H478 C462 0.961 . S
H479 C463 0.931 . S
H480 C468 0.930 . S
H481 C469 0.956 . S
H482 C469 0.961 . S
H483 C469 0.961 . S
H484 C470 0.958 1_565 S
H485 C470 0.961 . S
H486 C470 0.960 . S
C487 C488 1.391 . S
C487 C489 1.394 . S
C487 H503 0.931 . S
C488 C487 1.391 . S
C488 C492 1.376 . S
C489 C487 1.394 . S
C489 C490 1.369 . S
C489 C493 1.531 . S
C490 C489 1.369 . S
C490 C491 1.410 . S
C490 C498 1.503 . S
C491 C490 1.410 . S
C491 C492 1.392 . S
C491 C494 1.511 . S
C492 C488 1.376 . S
C492 C491 1.392 . S
C492 H504 0.929 . S
C493 C489 1.531 . S
C493 H505 0.960 . S
C493 H506 0.962 . S
C493 H507 0.960 . S
C494 C491 1.511 . S
C494 H508 0.961 . S
C494 H509 0.961 . S
C494 H510 0.961 . S
C495 C496 1.370 . S
C495 C497 1.363 . S
C495 H511 0.931 . S
C496 C495 1.370 . S
C496 C500 1.408 . S
C497 C495 1.363 . S
C497 C498 1.370 . S
C497 C501 1.524 . S
C498 C490 1.503 . S
C498 C497 1.370 . S
C498 C499 1.403 . S
C499 C498 1.403 . S
C499 C500 1.404 . S
C499 C502 1.539 . S
C500 C496 1.408 . S
C500 C499 1.404 . S
C500 H512 0.930 . S
C501 C497 1.524 . S
C501 H513 0.956 . S
C501 H514 0.961 . S
C501 H515 0.961 . S
C502 C499 1.539 . S
C502 H516 0.958 . S
C502 H517 0.961 . S
C502 H518 0.960 . S
H503 C487 0.931 . S
H504 C492 0.929 . S
H505 C493 0.960 . S
H506 C493 0.962 . S
H507 C493 0.960 . S
H508 C494 0.961 . S
H509 C494 0.961 . S
H510 C494 0.961 . S
H511 C495 0.931 . S
H512 C500 0.930 . S
H513 C501 0.956 . S
H514 C501 0.961 . S
H515 C501 0.961 . S
H516 C502 0.958 . S
H517 C502 0.961 . S
H518 C502 0.960 . S
C519 C520 1.391 . S
C519 C521 1.394 . S
C519 H535 0.931 . S
C520 C519 1.391 . S
C520 C524 1.376 . S
C521 C519 1.394 . S
C521 C522 1.369 . S
C521 C525 1.531 . S
C522 C521 1.369 . S
C522 C523 1.410 . S
C522 C530 1.503 . S
C523 C522 1.410 . S
C523 C524 1.392 . S
C523 C526 1.511 . S
C524 C520 1.376 . S
C524 C523 1.392 . S
C524 H536 0.929 . S
C525 C521 1.531 . S
C525 H537 0.960 . S
C525 H538 0.962 1_455 S
C525 H539 0.960 . S
C526 C523 1.511 . S
C526 H540 0.961 . S
C526 H541 0.961 . S
C526 H542 0.961 . S
C527 C528 1.370 . S
C527 C529 1.363 . S
C527 H543 0.931 . S
C528 C527 1.370 . S
C528 C532 1.408 . S
C529 C527 1.363 . S
C529 C530 1.370 . S
C529 C533 1.524 . S
C530 C522 1.503 . S
C530 C529 1.370 . S
C530 C531 1.403 . S
C531 C530 1.403 . S
C531 C532 1.404 . S
C531 C534 1.539 . S
C532 C528 1.408 . S
C532 C531 1.404 . S
C532 H544 0.930 . S
C533 C529 1.524 . S
C533 H545 0.956 . S
C533 H546 0.961 . S
C533 H547 0.961 . S
C534 C531 1.539 . S
C534 H548 0.958 . S
C534 H549 0.961 . S
C534 H550 0.960 . S
H535 C519 0.931 . S
H536 C524 0.929 . S
H537 C525 0.960 . S
H538 C525 0.962 1_655 S
H539 C525 0.960 . S
H540 C526 0.961 . S
H541 C526 0.961 . S
H542 C526 0.961 . S
H543 C527 0.931 . S
H544 C532 0.930 . S
H545 C533 0.956 . S
H546 C533 0.961 . S
H547 C533 0.961 . S
H548 C534 0.958 . S
H549 C534 0.961 . S
H550 C534 0.960 . S
C551 C552 1.391 . S
C551 C553 1.394 . S
C551 H567 0.931 . S
C552 C551 1.391 . S
C552 C556 1.376 . S
C553 C551 1.394 . S
C553 C554 1.369 . S
C553 C557 1.531 . S
C554 C553 1.369 . S
C554 C555 1.410 . S
C554 C562 1.503 . S
C555 C554 1.410 . S
C555 C556 1.392 . S
C555 C558 1.511 . S
C556 C552 1.376 . S
C556 C555 1.392 . S
C556 H568 0.929 . S
C557 C553 1.531 . S
C557 H569 0.960 . S
C557 H570 0.962 . S
C557 H571 0.960 . S
C558 C555 1.511 . S
C558 H572 0.961 . S
C558 H573 0.961 . S
C558 H574 0.961 . S
C559 C560 1.370 . S
C559 C561 1.363 . S
C559 H575 0.931 . S
C560 C559 1.370 . S
C560 C564 1.408 . S
C561 C559 1.363 . S
C561 C562 1.370 . S
C561 C565 1.524 . S
C562 C554 1.503 . S
C562 C561 1.370 . S
C562 C563 1.403 . S
C563 C562 1.403 . S
C563 C564 1.404 . S
C563 C566 1.539 . S
C564 C560 1.408 . S
C564 C563 1.404 . S
C564 H576 0.930 . S
C565 C561 1.524 . S
C565 H577 0.956 . S
C565 H578 0.961 . S
C565 H579 0.961 . S
C566 C563 1.539 . S
C566 H580 0.958 . S
C566 H581 0.961 . S
C566 H582 0.960 . S
H567 C551 0.931 . S
H568 C556 0.929 . S
H569 C557 0.960 . S
H570 C557 0.962 . S
H571 C557 0.960 . S
H572 C558 0.961 . S
H573 C558 0.961 . S
H574 C558 0.961 . S
H575 C559 0.931 . S
H576 C564 0.930 . S
H577 C565 0.956 . S
H578 C565 0.961 . S
H579 C565 0.961 . S
H580 C566 0.958 . S
H581 C566 0.961 . S
H582 C566 0.960 . S
C583 C584 1.391 . S
C583 C585 1.394 . S
C583 H599 0.931 . S
C584 C583 1.391 . S
C584 C588 1.376 . S
C585 C583 1.394 . S
C585 C586 1.369 . S
C585 C589 1.531 . S
C586 C585 1.369 . S
C586 C587 1.410 . S
C586 C594 1.503 . S
C587 C586 1.410 . S
C587 C588 1.392 . S
C587 C590 1.511 . S
C588 C584 1.376 . S
C588 C587 1.392 . S
C588 H600 0.929 . S
C589 C585 1.531 . S
C589 H601 0.960 . S
C589 H602 0.962 . S
C589 H603 0.960 . S
C590 C587 1.511 . S
C590 H604 0.961 . S
C590 H605 0.961 . S
C590 H606 0.961 . S
C591 C592 1.370 . S
C591 C593 1.363 . S
C591 H607 0.931 . S
C592 C591 1.370 . S
C592 C596 1.408 . S
C593 C591 1.363 . S
C593 C594 1.370 . S
C593 C597 1.524 . S
C594 C586 1.503 . S
C594 C593 1.370 . S
C594 C595 1.403 . S
C595 C594 1.403 . S
C595 C596 1.404 . S
C595 C598 1.539 . S
C596 C592 1.408 . S
C596 C595 1.404 . S
C596 H608 0.930 . S
C597 C593 1.524 . S
C597 H609 0.956 . S
C597 H610 0.961 . S
C597 H611 0.961 . S
C598 C595 1.539 . S
C598 H612 0.958 . S
C598 H613 0.961 . S
C598 H614 0.960 . S
H599 C583 0.931 . S
H600 C588 0.929 . S
H601 C589 0.960 . S
H602 C589 0.962 . S
H603 C589 0.960 . S
H604 C590 0.961 . S
H605 C590 0.961 . S
H606 C590 0.961 . S
H607 C591 0.931 . S
H608 C596 0.930 . S
H609 C597 0.956 . S
H610 C597 0.961 . S
H611 C597 0.961 . S
H612 C598 0.958 . S
H613 C598 0.961 . S
H614 C598 0.960 . S
C615 C616 1.391 . S
C615 C617 1.394 . S
C615 H631 0.931 . S
C616 C615 1.391 . S
C616 C620 1.376 . S
C617 C615 1.394 . S
C617 C618 1.369 . S
C617 C621 1.531 . S
C618 C617 1.369 . S
C618 C619 1.410 . S
C618 C626 1.503 . S
C619 C618 1.410 . S
C619 C620 1.392 . S
C619 C622 1.511 . S
C620 C616 1.376 . S
C620 C619 1.392 . S
C620 H632 0.929 . S
C621 C617 1.531 . S
C621 H633 0.960 . S
C621 H634 0.962 . S
C621 H635 0.960 . S
C622 C619 1.511 . S
C622 H636 0.961 . S
C622 H637 0.961 . S
C622 H638 0.961 . S
C623 C624 1.370 . S
C623 C625 1.363 . S
C623 H639 0.931 . S
C624 C623 1.370 . S
C624 C628 1.408 . S
C625 C623 1.363 . S
C625 C626 1.370 . S
C625 C629 1.524 . S
C626 C618 1.503 . S
C626 C625 1.370 . S
C626 C627 1.403 . S
C627 C626 1.403 . S
C627 C628 1.404 . S
C627 C630 1.539 1_545 S
C628 C624 1.408 . S
C628 C627 1.404 . S
C628 H640 0.930 . S
C629 C625 1.524 . S
C629 H641 0.956 . S
C629 H642 0.961 . S
C629 H643 0.961 . S
C630 C627 1.539 1_565 S
C630 H644 0.958 . S
C630 H645 0.961 . S
C630 H646 0.960 . S
H631 C615 0.931 . S
H632 C620 0.929 . S
H633 C621 0.960 . S
H634 C621 0.962 . S
H635 C621 0.960 . S
H636 C622 0.961 . S
H637 C622 0.961 . S
H638 C622 0.961 . S
H639 C623 0.931 . S
H640 C628 0.930 . S
H641 C629 0.956 . S
H642 C629 0.961 . S
H643 C629 0.961 . S
H644 C630 0.958 . S
H645 C630 0.961 . S
H646 C630 0.960 . S
C647 C648 1.391 . S
C647 C649 1.394 . S
C647 H663 0.931 . S
C648 C647 1.391 . S
C648 C652 1.376 . S
C649 C647 1.394 . S
C649 C650 1.369 . S
C649 C653 1.531 . S
C650 C649 1.369 . S
C650 C651 1.410 . S
C650 C658 1.503 . S
C651 C650 1.410 . S
C651 C652 1.392 . S
C651 C654 1.511 . S
C652 C648 1.376 . S
C652 C651 1.392 . S
C652 H664 0.929 . S
C653 C649 1.531 . S
C653 H665 0.960 . S
C653 H666 0.962 . S
C653 H667 0.960 . S
C654 C651 1.511 . S
C654 H668 0.961 . S
C654 H669 0.961 . S
C654 H670 0.961 . S
C655 C656 1.370 . S
C655 C657 1.363 . S
C655 H671 0.931 . S
C656 C655 1.370 . S
C656 C660 1.408 . S
C657 C655 1.363 . S
C657 C658 1.370 . S
C657 C661 1.524 . S
C658 C650 1.503 . S
C658 C657 1.370 . S
C658 C659 1.403 . S
C659 C658 1.403 . S
C659 C660 1.404 . S
C659 C662 1.539 . S
C660 C656 1.408 . S
C660 C659 1.404 . S
C660 H672 0.930 . S
C661 C657 1.524 . S
C661 H673 0.956 . S
C661 H674 0.961 . S
C661 H675 0.961 . S
C662 C659 1.539 . S
C662 H676 0.958 . S
C662 H677 0.961 . S
C662 H678 0.960 . S
H663 C647 0.931 . S
H664 C652 0.929 . S
H665 C653 0.960 . S
H666 C653 0.962 . S
H667 C653 0.960 . S
H668 C654 0.961 . S
H669 C654 0.961 . S
H670 C654 0.961 . S
H671 C655 0.931 . S
H672 C660 0.930 . S
H673 C661 0.956 . S
H674 C661 0.961 . S
H675 C661 0.961 . S
H676 C662 0.958 . S
H677 C662 0.961 . S
H678 C662 0.960 . S
C679 C680 1.391 1_455 S
C679 C681 1.394 . S
C679 H695 0.931 . S
C680 C679 1.391 1_655 S
C680 C684 1.376 . S
C681 C679 1.394 . S
C681 C682 1.369 . S
C681 C685 1.531 . S
C682 C681 1.369 . S
C682 C683 1.410 1_455 S
C682 C690 1.503 . S
C683 C682 1.410 1_655 S
C683 C684 1.392 . S
C683 C686 1.511 . S
C684 C680 1.376 . S
C684 C683 1.392 . S
C684 H696 0.929 . S
C685 C681 1.531 . S
C685 H697 0.960 . S
C685 H698 0.962 . S
C685 H699 0.960 . S
C686 C683 1.511 . S
C686 H700 0.961 . S
C686 H701 0.961 . S
C686 H702 0.961 . S
C687 C688 1.370 1_655 S
C687 C689 1.363 . S
C687 H703 0.931 . S
C688 C687 1.370 1_455 S
C688 C692 1.408 . S
C689 C687 1.363 . S
C689 C690 1.370 1_655 S
C689 C693 1.524 . S
C690 C682 1.503 . S
C690 C689 1.370 1_455 S
C690 C691 1.403 . S
C691 C690 1.403 . S
C691 C692 1.404 . S
C691 C694 1.539 . S
C692 C688 1.408 . S
C692 C691 1.404 . S
C692 H704 0.930 . S
C693 C689 1.524 . S
C693 H705 0.956 . S
C693 H706 0.961 . S
C693 H707 0.961 . S
C694 C691 1.539 . S
C694 H708 0.958 . S
C694 H709 0.961 . S
C694 H710 0.960 . S
H695 C679 0.931 . S
H696 C684 0.929 . S
H697 C685 0.960 . S
H698 C685 0.962 . S
H699 C685 0.960 . S
H700 C686 0.961 . S
H701 C686 0.961 . S
H702 C686 0.961 . S
H703 C687 0.931 . S
H704 C692 0.930 . S
H705 C693 0.956 . S
H706 C693 0.961 . S
H707 C693 0.961 . S
H708 C694 0.958 . S
H709 C694 0.961 . S
H710 C694 0.960 . S
C711 C712 1.396 . S
C711 C713 1.394 . S
C711 H727 0.931 . S
C712 C711 1.396 . S
C712 C716 1.373 1_565 S
C713 C711 1.394 . S
C713 C714 1.369 1_565 S
C713 C717 1.531 . S
C714 C713 1.369 1_545 S
C714 C715 1.410 . S
C714 C722 1.503 . S
C715 C714 1.410 . S
C715 C716 1.392 . S
C715 C718 1.511 . S
C716 C712 1.373 1_545 S
C716 C715 1.392 . S
C716 H728 0.929 . S
C717 C713 1.531 . S
C717 H729 0.960 . S
C717 H730 0.962 1_565 S
C717 H731 0.960 . S
C718 C715 1.511 . S
C718 H732 0.961 . S
C718 H733 0.961 . S
C718 H734 0.961 . S
C719 C720 1.370 . S
C719 C721 1.363 . S
C719 H735 0.931 . S
C720 C719 1.370 . S
C720 C724 1.408 . S
C721 C719 1.363 . S
C721 C722 1.370 . S
C721 C725 1.524 . S
C722 C714 1.503 . S
C722 C721 1.370 . S
C722 C723 1.403 . S
C723 C722 1.403 . S
C723 C724 1.404 . S
C723 C726 1.539 1_545 S
C724 C720 1.408 . S
C724 C723 1.404 . S
C724 H736 0.930 . S
C725 C721 1.524 . S
C725 H737 0.956 . S
C725 H738 0.961 . S
C725 H739 0.961 . S
C726 C723 1.539 1_565 S
C726 H740 0.958 . S
C726 H741 0.961 . S
C726 H742 0.960 . S
H727 C711 0.931 . S
H728 C716 0.929 . S
H729 C717 0.960 . S
H730 C717 0.962 1_545 S
H731 C717 0.960 . S
H732 C718 0.961 . S
H733 C718 0.961 . S
H734 C718 0.961 . S
H735 C719 0.931 . S
H736 C724 0.930 . S
H737 C725 0.956 . S
H738 C725 0.961 . S
H739 C725 0.961 . S
H740 C726 0.958 . S
H741 C726 0.961 . S
H742 C726 0.960 . S
C743 C744 1.391 . S
C743 C745 1.394 . S
C743 H759 0.931 . S
C744 C743 1.391 . S
C744 C748 1.376 . S
C745 C743 1.394 . S
C745 C746 1.369 . S
C745 C749 1.531 . S
C746 C745 1.369 . S
C746 C747 1.410 . S
C746 C754 1.503 . S
C747 C746 1.410 . S
C747 C748 1.392 . S
C747 C750 1.511 . S
C748 C744 1.376 . S
C748 C747 1.392 . S
C748 H760 0.929 . S
C749 C745 1.531 . S
C749 H761 0.960 . S
C749 H762 0.962 . S
C749 H763 0.960 . S
C750 C747 1.511 . S
C750 H764 0.961 . S
C750 H765 0.961 . S
C750 H766 0.961 . S
C751 C752 1.370 . S
C751 C753 1.363 . S
C751 H767 0.931 . S
C752 C751 1.370 . S
C752 C756 1.408 . S
C753 C751 1.363 . S
C753 C754 1.370 . S
C753 C757 1.524 . S
C754 C746 1.503 . S
C754 C753 1.370 . S
C754 C755 1.403 . S
C755 C754 1.403 . S
C755 C756 1.404 . S
C755 C758 1.539 . S
C756 C752 1.408 . S
C756 C755 1.404 . S
C756 H768 0.930 . S
C757 C753 1.524 . S
C757 H769 0.956 . S
C757 H770 0.961 . S
C757 H771 0.961 . S
C758 C755 1.539 . S
C758 H772 0.958 . S
C758 H773 0.961 . S
C758 H774 0.960 . S
H759 C743 0.931 . S
H760 C748 0.929 . S
H761 C749 0.960 . S
H762 C749 0.962 . S
H763 C749 0.960 . S
H764 C750 0.961 . S
H765 C750 0.961 . S
H766 C750 0.961 . S
H767 C751 0.931 . S
H768 C756 0.930 . S
H769 C757 0.956 . S
H770 C757 0.961 . S
H771 C757 0.961 . S
H772 C758 0.958 . S
H773 C758 0.961 . S
H774 C758 0.960 . S
C775 C776 1.391 . S
C775 C777 1.394 . S
C775 H791 0.931 . S
C776 C775 1.391 . S
C776 C780 1.376 . S
C777 C775 1.394 . S
C777 C778 1.369 . S
C777 C781 1.531 . S
C778 C777 1.369 . S
C778 C779 1.410 . S
C778 C786 1.503 . S
C779 C778 1.410 . S
C779 C780 1.392 . S
C779 C782 1.511 . S
C780 C776 1.376 . S
C780 C779 1.392 . S
C780 H792 0.929 . S
C781 C777 1.531 . S
C781 H793 0.960 . S
C781 H794 0.962 . S
C781 H795 0.960 . S
C782 C779 1.511 . S
C782 H796 0.961 . S
C782 H797 0.961 . S
C782 H798 0.961 1_455 S
C783 C784 1.370 . S
C783 C785 1.363 . S
C783 H799 0.931 . S
C784 C783 1.370 . S
C784 C788 1.408 1_455 S
C785 C783 1.363 . S
C785 C786 1.370 . S
C785 C789 1.524 . S
C786 C778 1.503 . S
C786 C785 1.370 . S
C786 C787 1.403 . S
C787 C786 1.403 . S
C787 C788 1.404 1_455 S
C787 C790 1.539 1_455 S
C788 C784 1.408 1_655 S
C788 C787 1.404 1_655 S
C788 H800 0.930 . S
C789 C785 1.524 . S
C789 H801 0.956 . S
C789 H802 0.961 . S
C789 H803 0.961 . S
C790 C787 1.539 1_655 S
C790 H804 0.958 . S
C790 H805 0.961 . S
C790 H806 0.960 . S
H791 C775 0.931 . S
H792 C780 0.929 . S
H793 C781 0.960 . S
H794 C781 0.962 . S
H795 C781 0.960 . S
H796 C782 0.961 . S
H797 C782 0.961 . S
H798 C782 0.961 1_655 S
H799 C783 0.931 . S
H800 C788 0.930 . S
H801 C789 0.956 . S
H802 C789 0.961 . S
H803 C789 0.961 . S
H804 C790 0.958 . S
H805 C790 0.961 . S
H806 C790 0.960 . S
C432 C286 1.441 . S
C424 C29 1.425 . S
C456 C137 1.466 . S
C464 C356 1.484 . S
C488 C225 1.442 . S
C496 C408 1.491 . S
C520 C49 1.486 . S
C528 C302 1.489 . S
C560 C346 1.451 . S
C552 C117 1.447 . S
C584 C205 1.448 . S
C592 C392 1.444 . S
C624 C339 1.445 . S
C616 C233 1.407 . S
C648 C57 1.446 . S
C656 C399 1.441 . S
C688 C293 1.452 . S
C680 C108 1.416 . S
C720 C355 1.490 . S
C712 C196 1.488 1_565 S
C752 C409 1.487 . S
C744 C20 1.471 . S
C776 C145 1.437 . S
C784 C303 1.488 . S
