# Generated by pormake.
# Topology gar, (4,6)-cn, num edge types: 1
# Building blocks:
#     Node 0, Type 0, BuildingBlock: NAHDIM_clean_sbu_0, # of connection points: 4
#     Node 1, Type 0, BuildingBlock: NAHDIM_clean_sbu_0, # of connection points: 4
#     Node 2, Type 0, BuildingBlock: NAHDIM_clean_sbu_0, # of connection points: 4
#     Node 3, Type 0, BuildingBlock: NAHDIM_clean_sbu_0, # of connection points: 4
#     Node 4, Type 0, BuildingBlock: NAHDIM_clean_sbu_0, # of connection points: 4
#     Node 5, Type 0, BuildingBlock: NAHDIM_clean_sbu_0, # of connection points: 4
#     Node 6, Type 0, BuildingBlock: NAHDIM_clean_sbu_0, # of connection points: 4
#     Node 7, Type 0, BuildingBlock: NAHDIM_clean_sbu_0, # of connection points: 4
#     Node 8, Type 0, BuildingBlock: NAHDIM_clean_sbu_0, # of connection points: 4
#     Node 9, Type 0, BuildingBlock: NAHDIM_clean_sbu_0, # of connection points: 4
#     Node 10, Type 0, BuildingBlock: NAHDIM_clean_sbu_0, # of connection points: 4
#     Node 11, Type 0, BuildingBlock: NAHDIM_clean_sbu_0, # of connection points: 4
#     Node 12, Type 0, BuildingBlock: NAHDIM_clean_sbu_0, # of connection points: 4
#     Node 13, Type 0, BuildingBlock: NAHDIM_clean_sbu_0, # of connection points: 4
#     Node 14, Type 0, BuildingBlock: NAHDIM_clean_sbu_0, # of connection points: 4
#     Node 15, Type 0, BuildingBlock: NAHDIM_clean_sbu_0, # of connection points: 4
#     Node 16, Type 0, BuildingBlock: NAHDIM_clean_sbu_0, # of connection points: 4
#     Node 17, Type 0, BuildingBlock: NAHDIM_clean_sbu_0, # of connection points: 4
#     Node 18, Type 0, BuildingBlock: NAHDIM_clean_sbu_0, # of connection points: 4
#     Node 19, Type 0, BuildingBlock: NAHDIM_clean_sbu_0, # of connection points: 4
#     Node 20, Type 0, BuildingBlock: NAHDIM_clean_sbu_0, # of connection points: 4
#     Node 21, Type 0, BuildingBlock: NAHDIM_clean_sbu_0, # of connection points: 4
#     Node 22, Type 0, BuildingBlock: NAHDIM_clean_sbu_0, # of connection points: 4
#     Node 23, Type 0, BuildingBlock: NAHDIM_clean_sbu_0, # of connection points: 4
#     Node 24, Type 1, BuildingBlock: PAMTOO_clean_sbu_0, # of connection points: 6
#     Node 25, Type 1, BuildingBlock: PAMTOO_clean_sbu_0, # of connection points: 6
#     Node 26, Type 1, BuildingBlock: PAMTOO_clean_sbu_0, # of connection points: 6
#     Node 27, Type 1, BuildingBlock: PAMTOO_clean_sbu_0, # of connection points: 6
#     Node 28, Type 1, BuildingBlock: PAMTOO_clean_sbu_0, # of connection points: 6
#     Node 29, Type 1, BuildingBlock: PAMTOO_clean_sbu_0, # of connection points: 6
#     Node 30, Type 1, BuildingBlock: PAMTOO_clean_sbu_0, # of connection points: 6
#     Node 31, Type 1, BuildingBlock: PAMTOO_clean_sbu_0, # of connection points: 6
#     Node 32, Type 1, BuildingBlock: PAMTOO_clean_sbu_0, # of connection points: 6
#     Node 33, Type 1, BuildingBlock: PAMTOO_clean_sbu_0, # of connection points: 6
#     Node 34, Type 1, BuildingBlock: PAMTOO_clean_sbu_0, # of connection points: 6
#     Node 35, Type 1, BuildingBlock: PAMTOO_clean_sbu_0, # of connection points: 6
#     Node 36, Type 1, BuildingBlock: PAMTOO_clean_sbu_0, # of connection points: 6
#     Node 37, Type 1, BuildingBlock: PAMTOO_clean_sbu_0, # of connection points: 6
#     Node 38, Type 1, BuildingBlock: PAMTOO_clean_sbu_0, # of connection points: 6
#     Node 39, Type 1, BuildingBlock: PAMTOO_clean_sbu_0, # of connection points: 6
#     Edge 40, Type (0, 1), BuildingBlock: TEMPAE_clean_linker_10, # of connection points: 2
#     Edge 41, Type (0, 1), BuildingBlock: TEMPAE_clean_linker_10, # of connection points: 2
#     Edge 42, Type (0, 1), BuildingBlock: TEMPAE_clean_linker_10, # of connection points: 2
#     Edge 43, Type (0, 1), BuildingBlock: TEMPAE_clean_linker_10, # of connection points: 2
#     Edge 44, Type (0, 1), BuildingBlock: TEMPAE_clean_linker_10, # of connection points: 2
#     Edge 45, Type (0, 1), BuildingBlock: TEMPAE_clean_linker_10, # of connection points: 2
#     Edge 46, Type (0, 1), BuildingBlock: TEMPAE_clean_linker_10, # of connection points: 2
#     Edge 47, Type (0, 1), BuildingBlock: TEMPAE_clean_linker_10, # of connection points: 2
#     Edge 48, Type (0, 1), BuildingBlock: TEMPAE_clean_linker_10, # of connection points: 2
#     Edge 49, Type (0, 1), BuildingBlock: TEMPAE_clean_linker_10, # of connection points: 2
#     Edge 50, Type (0, 1), BuildingBlock: TEMPAE_clean_linker_10, # of connection points: 2
#     Edge 51, Type (0, 1), BuildingBlock: TEMPAE_clean_linker_10, # of connection points: 2
#     Edge 52, Type (0, 1), BuildingBlock: TEMPAE_clean_linker_10, # of connection points: 2
#     Edge 53, Type (0, 1), BuildingBlock: TEMPAE_clean_linker_10, # of connection points: 2
#     Edge 54, Type (0, 1), BuildingBlock: TEMPAE_clean_linker_10, # of connection points: 2
#     Edge 55, Type (0, 1), BuildingBlock: TEMPAE_clean_linker_10, # of connection points: 2
#     Edge 56, Type (0, 1), BuildingBlock: TEMPAE_clean_linker_10, # of connection points: 2
#     Edge 57, Type (0, 1), BuildingBlock: TEMPAE_clean_linker_10, # of connection points: 2
#     Edge 58, Type (0, 1), BuildingBlock: TEMPAE_clean_linker_10, # of connection points: 2
#     Edge 59, Type (0, 1), BuildingBlock: TEMPAE_clean_linker_10, # of connection points: 2
#     Edge 60, Type (0, 1), BuildingBlock: TEMPAE_clean_linker_10, # of connection points: 2
#     Edge 61, Type (0, 1), BuildingBlock: TEMPAE_clean_linker_10, # of connection points: 2
#     Edge 62, Type (0, 1), BuildingBlock: TEMPAE_clean_linker_10, # of connection points: 2
#     Edge 63, Type (0, 1), BuildingBlock: TEMPAE_clean_linker_10, # of connection points: 2
#     Edge 64, Type (0, 1), BuildingBlock: TEMPAE_clean_linker_10, # of connection points: 2
#     Edge 65, Type (0, 1), BuildingBlock: TEMPAE_clean_linker_10, # of connection points: 2
#     Edge 66, Type (0, 1), BuildingBlock: TEMPAE_clean_linker_10, # of connection points: 2
#     Edge 67, Type (0, 1), BuildingBlock: TEMPAE_clean_linker_10, # of connection points: 2
#     Edge 68, Type (0, 1), BuildingBlock: TEMPAE_clean_linker_10, # of connection points: 2
#     Edge 69, Type (0, 1), BuildingBlock: TEMPAE_clean_linker_10, # of connection points: 2
#     Edge 70, Type (0, 1), BuildingBlock: TEMPAE_clean_linker_10, # of connection points: 2
#     Edge 71, Type (0, 1), BuildingBlock: TEMPAE_clean_linker_10, # of connection points: 2
#     Edge 72, Type (0, 1), BuildingBlock: TEMPAE_clean_linker_10, # of connection points: 2
#     Edge 73, Type (0, 1), BuildingBlock: TEMPAE_clean_linker_10, # of connection points: 2
#     Edge 74, Type (0, 1), BuildingBlock: TEMPAE_clean_linker_10, # of connection points: 2
#     Edge 75, Type (0, 1), BuildingBlock: TEMPAE_clean_linker_10, # of connection points: 2
#     Edge 76, Type (0, 1), BuildingBlock: TEMPAE_clean_linker_10, # of connection points: 2
#     Edge 77, Type (0, 1), BuildingBlock: TEMPAE_clean_linker_10, # of connection points: 2
#     Edge 78, Type (0, 1), BuildingBlock: TEMPAE_clean_linker_10, # of connection points: 2
#     Edge 79, Type (0, 1), BuildingBlock: TEMPAE_clean_linker_10, # of connection points: 2
#     Edge 80, Type (0, 1), BuildingBlock: TEMPAE_clean_linker_10, # of connection points: 2
#     Edge 81, Type (0, 1), BuildingBlock: TEMPAE_clean_linker_10, # of connection points: 2
#     Edge 82, Type (0, 1), BuildingBlock: TEMPAE_clean_linker_10, # of connection points: 2
#     Edge 83, Type (0, 1), BuildingBlock: TEMPAE_clean_linker_10, # of connection points: 2
#     Edge 84, Type (0, 1), BuildingBlock: TEMPAE_clean_linker_10, # of connection points: 2
#     Edge 85, Type (0, 1), BuildingBlock: TEMPAE_clean_linker_10, # of connection points: 2
#     Edge 86, Type (0, 1), BuildingBlock: TEMPAE_clean_linker_10, # of connection points: 2
#     Edge 87, Type (0, 1), BuildingBlock: TEMPAE_clean_linker_10, # of connection points: 2
#     Edge 88, Type (0, 1), BuildingBlock: TEMPAE_clean_linker_10, # of connection points: 2
#     Edge 89, Type (0, 1), BuildingBlock: TEMPAE_clean_linker_10, # of connection points: 2
#     Edge 90, Type (0, 1), BuildingBlock: TEMPAE_clean_linker_10, # of connection points: 2
#     Edge 91, Type (0, 1), BuildingBlock: TEMPAE_clean_linker_10, # of connection points: 2
#     Edge 92, Type (0, 1), BuildingBlock: TEMPAE_clean_linker_10, # of connection points: 2
#     Edge 93, Type (0, 1), BuildingBlock: TEMPAE_clean_linker_10, # of connection points: 2
#     Edge 94, Type (0, 1), BuildingBlock: TEMPAE_clean_linker_10, # of connection points: 2
#     Edge 95, Type (0, 1), BuildingBlock: TEMPAE_clean_linker_10, # of connection points: 2
#     Edge 96, Type (0, 1), BuildingBlock: TEMPAE_clean_linker_10, # of connection points: 2
#     Edge 97, Type (0, 1), BuildingBlock: TEMPAE_clean_linker_10, # of connection points: 2
#     Edge 98, Type (0, 1), BuildingBlock: TEMPAE_clean_linker_10, # of connection points: 2
#     Edge 99, Type (0, 1), BuildingBlock: TEMPAE_clean_linker_10, # of connection points: 2
#     Edge 100, Type (0, 1), BuildingBlock: TEMPAE_clean_linker_10, # of connection points: 2
#     Edge 101, Type (0, 1), BuildingBlock: TEMPAE_clean_linker_10, # of connection points: 2
#     Edge 102, Type (0, 1), BuildingBlock: TEMPAE_clean_linker_10, # of connection points: 2
#     Edge 103, Type (0, 1), BuildingBlock: TEMPAE_clean_linker_10, # of connection points: 2
#     Edge 104, Type (0, 1), BuildingBlock: TEMPAE_clean_linker_10, # of connection points: 2
#     Edge 105, Type (0, 1), BuildingBlock: TEMPAE_clean_linker_10, # of connection points: 2
#     Edge 106, Type (0, 1), BuildingBlock: TEMPAE_clean_linker_10, # of connection points: 2
#     Edge 107, Type (0, 1), BuildingBlock: TEMPAE_clean_linker_10, # of connection points: 2
#     Edge 108, Type (0, 1), BuildingBlock: TEMPAE_clean_linker_10, # of connection points: 2
#     Edge 109, Type (0, 1), BuildingBlock: TEMPAE_clean_linker_10, # of connection points: 2
#     Edge 110, Type (0, 1), BuildingBlock: TEMPAE_clean_linker_10, # of connection points: 2
#     Edge 111, Type (0, 1), BuildingBlock: TEMPAE_clean_linker_10, # of connection points: 2
#     Edge 112, Type (0, 1), BuildingBlock: TEMPAE_clean_linker_10, # of connection points: 2
#     Edge 113, Type (0, 1), BuildingBlock: TEMPAE_clean_linker_10, # of connection points: 2
#     Edge 114, Type (0, 1), BuildingBlock: TEMPAE_clean_linker_10, # of connection points: 2
#     Edge 115, Type (0, 1), BuildingBlock: TEMPAE_clean_linker_10, # of connection points: 2
#     Edge 116, Type (0, 1), BuildingBlock: TEMPAE_clean_linker_10, # of connection points: 2
#     Edge 117, Type (0, 1), BuildingBlock: TEMPAE_clean_linker_10, # of connection points: 2
#     Edge 118, Type (0, 1), BuildingBlock: TEMPAE_clean_linker_10, # of connection points: 2
#     Edge 119, Type (0, 1), BuildingBlock: TEMPAE_clean_linker_10, # of connection points: 2
#     Edge 120, Type (0, 1), BuildingBlock: TEMPAE_clean_linker_10, # of connection points: 2
#     Edge 121, Type (0, 1), BuildingBlock: TEMPAE_clean_linker_10, # of connection points: 2
#     Edge 122, Type (0, 1), BuildingBlock: TEMPAE_clean_linker_10, # of connection points: 2
#     Edge 123, Type (0, 1), BuildingBlock: TEMPAE_clean_linker_10, # of connection points: 2
#     Edge 124, Type (0, 1), BuildingBlock: TEMPAE_clean_linker_10, # of connection points: 2
#     Edge 125, Type (0, 1), BuildingBlock: TEMPAE_clean_linker_10, # of connection points: 2
#     Edge 126, Type (0, 1), BuildingBlock: TEMPAE_clean_linker_10, # of connection points: 2
#     Edge 127, Type (0, 1), BuildingBlock: TEMPAE_clean_linker_10, # of connection points: 2
#     Edge 128, Type (0, 1), BuildingBlock: TEMPAE_clean_linker_10, # of connection points: 2
#     Edge 129, Type (0, 1), BuildingBlock: TEMPAE_clean_linker_10, # of connection points: 2
#     Edge 130, Type (0, 1), BuildingBlock: TEMPAE_clean_linker_10, # of connection points: 2
#     Edge 131, Type (0, 1), BuildingBlock: TEMPAE_clean_linker_10, # of connection points: 2
#     Edge 132, Type (0, 1), BuildingBlock: TEMPAE_clean_linker_10, # of connection points: 2
#     Edge 133, Type (0, 1), BuildingBlock: TEMPAE_clean_linker_10, # of connection points: 2
#     Edge 134, Type (0, 1), BuildingBlock: TEMPAE_clean_linker_10, # of connection points: 2
#     Edge 135, Type (0, 1), BuildingBlock: TEMPAE_clean_linker_10, # of connection points: 2
# Relax obj value: 0.157
# Max RMSD: 0.262
# Mean RMSD: 0.182
data_MOF--net-gar--node1-NAHDIM_clean_sbu_0--node2-PAMTOO_clean_sbu_0--edge1-TEMPAE_clean_linker_10
_symmetry_space_group_name_H-M    P1
_symmetry_Int_Tables_number       1
_symmetry_cell_setting            triclinic
loop_
_symmetry_equiv_pos_as_xyz
'x, y, z'
_cell_length_a     61.384258
_cell_length_b     60.315365
_cell_length_c     56.991734
_cell_angle_alpha  97.047475
_cell_angle_beta   96.381591
_cell_angle_gamma 106.07889
loop_
_atom_site_label
_atom_site_type_symbol
_atom_site_fract_x
_atom_site_fract_y
_atom_site_fract_z
_atom_type_partial_charge
C0 C 0.09577 0.33373 0.33592 0.0
O1 O 0.09497 0.35527 0.33591 0.0
O2 O 0.04539 0.29846 0.38142 0.0
Zn3 Zn 0.0507 0.3239 0.35984 0.0
O4 O 0.05786 0.35679 0.38097 0.0
C5 C 0.99998 0.30889 0.34556 0.0
O6 O 1.00179 0.29992 0.36529 0.0
O7 O 0.07951 0.31929 0.34356 0.0
C8 C 0.04291 0.36046 0.39368 0.0
O9 O 0.02434 0.34315 0.39342 0.0
C10 C 0.05135 0.30155 0.40401 0.0
O11 O 0.06177 0.3228 0.41546 0.0
O12 O 0.01857 0.31881 0.33782 0.0
C13 C 0.97991 0.77011 0.71504 0.0
O14 O 0.98143 0.77574 0.6936 0.0
O15 O 0.02209 0.73026 0.6871 0.0
Zn16 Zn 0.02489 0.76255 0.70666 0.0
O17 O 0.02619 0.78575 0.68302 0.0
C18 C 0.07392 0.77023 0.71482 0.0
O19 O 0.0683 0.76509 0.69144 0.0
O20 O 0.99622 0.76328 0.72505 0.0
C21 C 0.03841 0.80703 0.68833 0.0
O22 O 0.0511 0.81426 0.7095 0.0
C23 C 0.00904 0.71967 0.66761 0.0
O24 O 0.99334 0.72861 0.65865 0.0
O25 O 0.05786 0.77114 0.7272 0.0
C26 C 0.60281 0.82269 0.85311 0.0
O27 O 0.60395 0.82395 0.8764 0.0
O28 O 0.55027 0.79574 0.87883 0.0
Zn29 Zn 0.5549 0.82272 0.85928 0.0
O30 O 0.56086 0.85401 0.88251 0.0
C31 C 0.50417 0.80779 0.84483 0.0
O32 O 0.50544 0.79718 0.8635 0.0
O33 O 0.58371 0.82245 0.84109 0.0
C34 C 0.54542 0.85575 0.89533 0.0
O35 O 0.52768 0.83736 0.89428 0.0
C36 C 0.55933 0.79788 0.90054 0.0
O37 O 0.57258 0.81845 0.91143 0.0
O38 O 0.5229 0.81853 0.83788 0.0
C39 C 0.47212 0.26092 0.21111 0.0
O40 O 0.47148 0.26142 0.18806 0.0
O41 O 0.51243 0.22403 0.1834 0.0
Zn42 Zn 0.51845 0.2571 0.2034 0.0
O43 O 0.52004 0.2809 0.18034 0.0
C44 C 0.56757 0.26174 0.21035 0.0
O45 O 0.56147 0.25563 0.18712 0.0
O46 O 0.49052 0.25883 0.22264 0.0
C47 C 0.53159 0.30233 0.18657 0.0
O48 O 0.54293 0.30929 0.20841 0.0
C49 C 0.51593 0.22155 0.16166 0.0
O50 O 0.52117 0.2402 0.15126 0.0
O51 O 0.55208 0.2645 0.22289 0.0
C52 C 0.01723 0.80316 0.13654 0.0
O53 O 0.00979 0.79742 0.11345 0.0
O54 O 0.04874 0.77742 0.09898 0.0
Zn55 Zn 0.05969 0.81157 0.11788 0.0
O56 O 0.0549 0.83932 0.10008 0.0
C57 C 0.09496 0.80045 0.14698 0.0
O58 O 0.07653 0.78322 0.14758 0.0
O59 O 0.03881 0.81027 0.14355 0.0
C60 C 0.0696 0.85557 0.09272 0.0
O61 O 0.09095 0.85501 0.09431 0.0
C62 C 0.06063 0.76714 0.08708 0.0
O63 O 0.08082 0.77947 0.08325 0.0
O64 O 0.09274 0.81649 0.13501 0.0
C65 C 0.5356 0.77063 0.42948 0.0
O66 O 0.54036 0.76617 0.45114 0.0
O67 O 0.49413 0.74387 0.46584 0.0
Zn68 Zn 0.49237 0.77159 0.44617 0.0
O69 O 0.50074 0.80599 0.46493 0.0
C70 C 0.45655 0.78224 0.41588 0.0
O71 O 0.47289 0.80224 0.41954 0.0
O72 O 0.51604 0.77334 0.42311 0.0
C73 C 0.48973 0.81498 0.4793 0.0
O74 O 0.47173 0.80121 0.48608 0.0
C75 C 0.49428 0.72421 0.45433 0.0
O76 O 0.49242 0.72205 0.43091 0.0
O77 O 0.46044 0.76534 0.42547 0.0
C78 C 0.5213 0.29284 0.63675 0.0
O79 O 0.51565 0.2786 0.61624 0.0
O80 O 0.56093 0.2757 0.60137 0.0
Zn81 Zn 0.56543 0.30986 0.61906 0.0
O82 O 0.56115 0.33672 0.59938 0.0
C83 C 0.61583 0.31815 0.63415 0.0
O84 O 0.61676 0.31539 0.6111 0.0
O85 O 0.54135 0.30734 0.64175 0.0
C86 C 0.57627 0.35552 0.59699 0.0
O87 O 0.59782 0.35839 0.60549 0.0
C88 C 0.54754 0.26242 0.58315 0.0
O89 O 0.53349 0.27082 0.57035 0.0
O90 O 0.59674 0.31796 0.64116 0.0
C91 C 0.04211 0.28313 0.93158 0.0
O92 O 0.04833 0.28492 0.95472 0.0
O93 O 0.99682 0.24655 0.96124 0.0
Zn94 Zn 0.99804 0.27807 0.94743 0.0
O95 O 0.00948 0.3104 0.97022 0.0
C96 C 0.95241 0.26179 0.91373 0.0
O97 O 0.95584 0.2412 0.90969 0.0
O98 O 0.02103 0.28004 0.92374 0.0
C99 C 0.99603 0.32039 0.9798 0.0
O100 O 0.97435 0.30846 0.97833 0.0
C101 C 1.00153 0.24267 0.98256 0.0
O102 O 0.00709 0.26032 1.00026 0.0
O103 O 0.96714 0.27808 0.92852 0.0
C104 C 0.36973 0.06457 0.27937 0.0
O105 O 0.36237 0.05257 0.29614 0.0
O106 O 0.4343 0.04678 0.27119 0.0
Zn107 Zn 0.40641 0.04464 0.28696 0.0
O108 O 0.41684 0.05554 0.32212 0.0
C109 C 0.39614 0.99516 0.28473 0.0
O110 O 0.41842 1.00085 0.29141 0.0
O111 O 0.38866 0.06413 0.27269 0.0
C112 C 0.40746 0.04438 0.33764 0.0
O113 O 0.38873 0.02677 0.33072 0.0
C114 C 0.45356 0.04775 0.28282 0.0
O115 O 0.45548 0.04762 0.30598 0.0
O116 O 0.38692 0.01116 0.28135 0.0
C117 C 0.31733 0.18265 0.53923 0.0
O118 O 0.32512 0.20501 0.54817 0.0
O119 O 0.27733 0.21417 0.55597 0.0
Zn120 Zn 0.27582 0.19447 0.52405 0.0
O121 O 0.28384 0.21244 0.49687 0.0
C122 C 0.22732 0.17857 0.52431 0.0
O123 O 0.23169 0.19954 0.53675 0.0
O124 O 0.29692 0.17448 0.52816 0.0
C125 C 0.27311 0.22594 0.48902 0.0
O126 O 0.25644 0.22991 0.49986 0.0
C127 C 0.28681 0.23568 0.56424 0.0
O128 O 0.29893 0.2493 0.5511 0.0
O129 O 0.24354 0.17259 0.51582 0.0
C130 C 0.15917 0.01468 0.77645 0.0
O131 O 0.15619 0.02586 0.75853 0.0
O132 O 0.11465 0.04023 0.7648 0.0
Zn133 Zn 0.13396 0.04346 0.79697 0.0
O134 O 0.11551 0.04058 0.82457 0.0
C135 C 0.15463 0.094 0.80957 0.0
O136 O 0.13472 0.09389 0.81603 0.0
O137 O 0.15071 0.019 0.79527 0.0
C138 C 0.12549 0.05022 0.84562 0.0
O139 O 0.1474 0.06185 0.84895 0.0
C140 C 0.09985 0.05098 0.76061 0.0
O141 O 0.09491 0.06376 0.77845 0.0
O142 O 0.15796 0.07477 0.80164 0.0
C143 C 0.26989 0.97719 0.02627 0.0
O144 O 0.29055 0.98442 0.02054 0.0
O145 O 0.26999 0.90874 0.04644 0.0
Zn146 Zn 0.28081 0.93397 0.02703 0.0
O147 O 0.278 0.91871 0.99311 0.0
C148 C 0.32717 0.94259 0.05126 0.0
O149 O 0.31868 0.92224 0.05791 0.0
O150 O 0.26213 0.95616 0.02952 0.0
C151 C 0.2888 0.90367 0.98993 0.0
O152 O 0.30103 0.89967 0.00848 0.0
C153 C 0.25498 0.88948 0.0375 0.0
O154 O 0.245 0.88646 0.01525 0.0
O155 O 0.31405 0.95111 0.03871 0.0
C156 C 0.26437 0.42488 0.07048 0.0
O157 O 0.27985 0.42697 0.08914 0.0
O158 O 0.29027 0.37767 0.07684 0.0
Zn159 Zn 0.28921 0.39572 0.0491 0.0
O160 O 0.28334 0.37578 0.01644 0.0
C161 C 0.33547 0.42648 0.06858 0.0
O162 O 0.33249 0.41686 0.08791 0.0
O163 O 0.26484 0.41215 0.05114 0.0
C164 C 0.29345 0.36054 0.01087 0.0
O165 O 0.3072 0.35571 0.02754 0.0
C166 C 0.27223 0.36829 0.08532 0.0
O167 O 0.25231 0.36887 0.07473 0.0
O168 O 0.31949 0.42022 0.05077 0.0
C169 C 0.8045 0.12989 0.99593 0.0
O170 O 0.78594 0.12965 0.98185 0.0
O171 O 0.79401 0.17135 0.06206 0.0
Zn172 Zn 0.78916 0.16137 0.02657 0.0
O173 O 0.79484 0.19003 0.01108 0.0
C174 C 0.74618 0.13123 0.03185 0.0
O175 O 0.75827 0.13091 0.05225 0.0
O176 O 0.80954 0.1424 0.01653 0.0
C177 C 0.79089 0.20823 0.02112 0.0
O178 O 0.7834 0.20804 0.04183 0.0
C179 C 0.81255 0.18215 0.07596 0.0
O180 O 0.83204 0.1869 0.06741 0.0
O181 O 0.75601 0.14271 0.01677 0.0
C182 C 0.18069 0.49567 0.24319 0.0
O183 O 0.1803 0.49933 0.22091 0.0
O184 O 0.13195 0.50808 0.21025 0.0
Zn185 Zn 0.14753 0.52113 0.24383 0.0
O186 O 0.12371 0.52102 0.26503 0.0
C187 C 0.16205 0.56871 0.23368 0.0
O188 O 0.14533 0.56105 0.21548 0.0
O189 O 0.16764 0.50295 0.25595 0.0
C190 C 0.1072 0.5291 0.25917 0.0
O191 O 0.10538 0.5365 0.23851 0.0
C192 C 0.11411 0.49057 0.20675 0.0
O193 O 0.10773 0.48029 0.22495 0.0
O194 O 0.16631 0.55457 0.24702 0.0
C195 C 0.75638 0.92615 0.52716 0.0
O196 O 0.76779 0.92412 0.50922 0.0
O197 O 0.78272 0.88117 0.57389 0.0
Zn198 Zn 0.78446 0.89987 0.54639 0.0
O199 O 0.78018 0.87964 0.51424 0.0
C200 C 0.82994 0.93122 0.56881 0.0
O201 O 0.82504 0.92324 0.58863 0.0
O202 O 0.76052 0.91699 0.54544 0.0
C203 C 0.78975 0.86371 0.5099 0.0
O204 O 0.80209 0.85847 0.52754 0.0
C205 C 0.76959 0.88311 0.58932 0.0
O206 O 0.75663 0.897 0.58695 0.0
O207 O 0.8154 0.92374 0.54981 0.0
C208 C 0.92191 0.07917 0.2816 0.0
O209 O 0.94394 0.08874 0.28168 0.0
O210 O 0.95005 0.04348 0.24523 0.0
Zn211 Zn 0.93376 0.03584 0.27349 0.0
O212 O 0.95506 0.03916 0.30445 0.0
C213 C 0.91825 0.98589 0.27311 0.0
O214 O 0.93931 0.98947 0.28376 0.0
O215 O 0.91397 0.05704 0.27849 0.0
C216 C 0.94475 0.03305 0.32185 0.0
O217 O 0.9222 0.02617 0.31838 0.0
C218 C 0.96411 0.03333 0.23767 0.0
O219 O 0.96941 0.01755 0.24927 0.0
O220 O 0.91236 1.00293 0.26621 0.0
C221 C 0.33005 0.64509 0.54035 0.0
O222 O 0.33259 0.65215 0.56349 0.0
O223 O 0.30437 0.68284 0.57276 0.0
Zn224 Zn 0.29922 0.67377 0.5372 0.0
O225 O 0.30651 0.70253 0.5216 0.0
C226 C 0.25064 0.66614 0.53127 0.0
O227 O 0.25696 0.6883 0.54096 0.0
O228 O 0.3172 0.65248 0.52621 0.0
C229 C 0.30637 0.72243 0.53191 0.0
O230 O 0.30173 0.72467 0.55387 0.0
C231 C 0.32255 0.69705 0.5849 0.0
O232 O 0.34011 0.70563 0.57407 0.0
O233 O 0.26592 0.65619 0.52748 0.0
C234 C 0.42636 0.58275 0.78742 0.0
O235 O 0.44839 0.59117 0.79563 0.0
O236 O 0.45563 0.54725 0.74617 0.0
Zn237 Zn 0.43803 0.53998 0.77379 0.0
O238 O 0.45692 0.54242 0.80612 0.0
C239 C 0.42103 0.49092 0.77578 0.0
O240 O 0.44101 0.49527 0.78924 0.0
O241 O 0.41836 0.56155 0.77736 0.0
C242 C 0.47823 0.54581 0.81263 0.0
O243 O 0.49246 0.55 0.797 0.0
C244 C 0.46455 0.53313 0.73522 0.0
O245 O 0.46416 0.51352 0.74322 0.0
O246 O 0.41624 0.50724 0.76612 0.0
C247 C 0.71075 0.02354 0.75608 0.0
O248 O 0.71312 0.03986 0.74245 0.0
O249 O 0.64762 0.0242 0.73517 0.0
Zn250 Zn 0.67096 0.03715 0.76479 0.0
O251 O 0.65562 0.03726 0.79402 0.0
C252 C 0.67726 0.08425 0.75513 0.0
O253 O 0.65573 0.07592 0.74504 0.0
O254 O 0.69363 0.0191 0.76722 0.0
C255 C 0.66493 0.05328 0.81182 0.0
O256 O 0.68514 0.06791 0.81133 0.0
C257 C 0.62713 0.02489 0.73529 0.0
O258 O 0.62114 0.03276 0.75537 0.0
O259 O 0.68743 0.07066 0.76369 0.0
C260 C 0.8055 0.67457 0.00608 0.0
O261 O 0.79296 0.67482 0.98592 0.0
O262 O 0.7774 0.72062 0.05403 0.0
Zn263 Zn 0.77697 0.70058 0.02269 0.0
O264 O 0.7815 0.71889 0.99518 0.0
C265 C 0.72956 0.67934 0.02483 0.0
O266 O 0.73196 0.70034 0.03628 0.0
O267 O 0.80192 0.68488 0.02547 0.0
C268 C 0.76613 0.71534 0.97707 0.0
O269 O 0.74579 0.70066 0.9769 0.0
C270 C 0.79446 0.73358 0.06892 0.0
O271 O 0.8153 0.73604 0.06392 0.0
O272 O 0.74653 0.67519 0.01622 0.0
C273 C 0.89933 0.57646 0.78397 0.0
O274 O 0.90268 0.56094 0.76756 0.0
O275 O 0.95137 0.56286 0.78641 0.0
Zn276 Zn 0.9287 0.55748 0.80922 0.0
O277 O 0.9458 0.5615 0.84237 0.0
C278 C 0.91315 0.50856 0.78795 0.0
O279 O 0.93276 0.51353 0.77963 0.0
O280 O 0.90941 0.57896 0.80528 0.0
C281 C 0.95984 0.54951 0.84402 0.0
O282 O 0.96175 0.53627 0.82474 0.0
C283 C 0.97129 0.5774 0.79156 0.0
O284 O 0.97766 0.59039 0.81281 0.0
O285 O 0.90792 0.52453 0.80075 0.0
C286 C 0.74747 0.44796 0.52452 0.0
O287 O 0.73639 0.42571 0.51741 0.0
O288 O 0.78216 0.4073 0.52922 0.0
Zn289 Zn 0.78494 0.43323 0.51026 0.0
O290 O 0.77265 0.41872 0.47627 0.0
C291 C 0.83088 0.45565 0.53363 0.0
O292 O 0.82139 0.45183 0.55289 0.0
O293 O 0.76861 0.45529 0.52284 0.0
C294 C 0.78337 0.42594 0.45958 0.0
O295 O 0.80107 0.44483 0.46461 0.0
C296 C 0.79068 0.39131 0.52171 0.0
O297 O 0.79981 0.39246 0.50193 0.0
O298 O 0.81837 0.44968 0.51327 0.0
C299 C 0.66091 0.51232 0.27242 0.0
O300 O 0.65985 0.52662 0.25697 0.0
O301 O 0.61377 0.53464 0.26195 0.0
Zn302 Zn 0.63368 0.53771 0.29382 0.0
O303 O 0.61646 0.53413 0.3224 0.0
C304 C 0.65424 0.58809 0.308 0.0
O305 O 0.63472 0.5874 0.31574 0.0
O306 O 0.65058 0.5135 0.29046 0.0
C307 C 0.62779 0.54272 0.3432 0.0
O308 O 0.64985 0.55347 0.34533 0.0
C309 C 0.59988 0.5463 0.25731 0.0
O310 O 0.59588 0.56033 0.27474 0.0
O311 O 0.65739 0.56922 0.29862 0.0
Dy312 Dy 0.05564 0.0606 0.04735 0.0
Dy313 Dy 1.00495 0.03093 0.01992 0.0
C314 C 0.04745 0.04187 0.9926 0.0
O315 O 0.04238 0.08682 0.02963 0.0
O316 O 1.00374 0.06832 0.02296 0.0
O317 O 0.08706 0.08746 0.04678 0.0
O318 O 0.08322 0.06919 0.07713 0.0
O319 O 1.00464 0.0312 0.05916 0.0
O320 O 0.03189 0.0661 0.07281 0.0
O321 O 0.02219 1.00299 0.02599 0.0
O322 O 0.05114 0.02418 0.05615 0.0
O323 O 0.96872 0.01711 0.02025 0.0
O324 O 0.98286 0.00978 0.98806 0.0
C325 C 0.02112 0.08717 0.0237 0.0
O326 O 0.0597 0.04153 0.01278 0.0
O327 O 0.02666 0.04363 0.99248 0.0
C328 C 0.11854 0.07713 0.06298 0.0
C329 C 0.15856 0.06629 0.05324 0.0
C330 C 0.16005 0.08747 0.06768 0.0
C331 C 0.14007 0.09293 0.0724 0.0
C332 C 0.11706 0.05585 0.04895 0.0
C333 C 0.13688 0.05048 0.04411 0.0
C334 C 0.09741 0.08309 0.06612 0.0
C335 C 0.01446 0.04911 0.07617 0.0
C336 C 0.03843 0.00392 0.04367 0.0
C337 C 0.94675 0.01658 0.98416 0.0
C338 C 0.91101 0.03448 0.96833 0.0
C339 C 0.93383 0.04899 0.97341 0.0
C340 C 0.95154 0.04008 0.98117 0.0
C341 C 0.92437 1.00163 0.97753 0.0
C342 C 0.90661 0.01047 0.96947 0.0
C343 C 0.96426 0.00875 0.99748 0.0
H344 H 0.1766 0.09989 0.07494 0.0
H345 H 0.14141 0.10952 0.08311 0.0
H346 H 0.10052 0.04348 0.04152 0.0
H347 H 0.13523 0.03382 0.03336 0.0
H348 H 0.93789 0.06759 0.97306 0.0
H349 H 0.96877 0.05186 0.98626 0.0
H350 H 0.92043 0.98342 0.97976 0.0
H351 H 0.88929 0.99876 0.96529 0.0
Dy352 Dy 0.28658 0.77616 0.25202 0.0
Dy353 Dy 0.26466 0.79157 0.29854 0.0
C354 C 0.30004 0.82847 0.27655 0.0
O355 O 0.31466 0.78021 0.28261 0.0
O356 O 0.29382 0.77929 0.31392 0.0
O357 O 0.31196 0.78221 0.22825 0.0
O358 O 0.2834 0.75048 0.22096 0.0
O359 O 0.2435 0.7555 0.28114 0.0
O360 O 0.27348 0.74484 0.26875 0.0
O361 O 0.2448 0.80153 0.26828 0.0
O362 O 0.25112 0.77695 0.23762 0.0
O363 O 0.24613 0.78237 0.32759 0.0
O364 O 0.25691 0.81844 0.32195 0.0
C365 C 0.31277 0.77875 0.30526 0.0
O366 O 0.29255 0.81462 0.25597 0.0
O367 O 0.29562 0.82069 0.29649 0.0
C368 C 0.29208 0.77029 0.18922 0.0
C369 C 0.27359 0.78009 0.14571 0.0
C370 C 0.2702 0.79116 0.16755 0.0
C371 C 0.2794 0.78636 0.18903 0.0
C372 C 0.29557 0.75906 0.16755 0.0
C373 C 0.28651 0.7641 0.14582 0.0
C374 C 0.29971 0.76441 0.21227 0.0
C375 C 0.25265 0.73912 0.2739 0.0
C376 C 0.2397 0.79093 0.24596 0.0
C377 C 0.25867 0.81103 0.36145 0.0
C378 C 0.27562 0.81471 0.41002 0.0
C379 C 0.2898 0.81306 0.39251 0.0
C380 C 0.28138 0.8113 0.36841 0.0
C381 C 0.24509 0.81464 0.37883 0.0
C382 C 0.25358 0.81668 0.40303 0.0
C383 C 0.24849 0.8041 0.33625 0.0
H384 H 0.26083 0.80398 0.16809 0.0
H385 H 0.2765 0.79519 0.2056 0.0
H386 H 0.30511 0.7464 0.16744 0.0
H387 H 0.28946 0.75546 0.12918 0.0
H388 H 0.30674 0.81123 0.39716 0.0
H389 H 0.29211 0.80865 0.35511 0.0
H390 H 0.22756 0.81462 0.37366 0.0
H391 H 0.2424 0.81834 0.41614 0.0
Dy392 Dy 0.49866 0.03441 0.54476 0.0
Dy393 Dy 0.54754 0.04386 0.52436 0.0
C394 C 0.50256 0.0467 0.49305 0.0
O395 O 0.49809 0.99974 0.52368 0.0
O396 O 0.53685 0.00566 0.52744 0.0
O397 O 0.46174 0.02057 0.53806 0.0
O398 O 0.47911 0.03802 0.57349 0.0
O399 O 0.55516 0.04609 0.56399 0.0
O400 O 0.52098 0.02236 0.57055 0.0
O401 O 0.54204 0.07941 0.52995 0.0
O402 O 0.51766 0.07264 0.55772 0.0
O403 O 0.58387 0.06153 0.52808 0.0
O404 O 0.56686 0.03585 0.49681 0.0
C405 C 0.5158 0.99144 0.5227 0.0
O406 O 0.49495 0.05152 0.51297 0.0
O407 O 0.52028 0.03857 0.49288 0.0
C408 C 0.44523 0.04594 0.55898 0.0
C409 C 0.41745 0.07601 0.55625 0.0
C410 C 0.43987 0.08279 0.55072 0.0
C411 C 0.4536 0.06789 0.55203 0.0
C412 C 0.42302 0.03914 0.5648 0.0
C413 C 0.40922 0.05409 0.5635 0.0
C414 C 0.45955 0.03007 0.55917 0.0
C415 C 0.54295 0.03269 0.57722 0.0
C416 C 0.53152 0.08725 0.54661 0.0
C417 C 0.60424 0.03698 0.51221 0.0
C418 C 0.63787 0.0135 0.51725 0.0
C419 C 0.61695 0.00538 0.52583 0.0
C420 C 0.6003 0.01706 0.52338 0.0
C421 C 0.62512 0.04531 0.50383 0.0
C422 C 0.64185 0.03369 0.50638 0.0
C423 C 0.58645 0.0488 0.50898 0.0
H424 H 0.44685 0.09967 0.54542 0.0
H425 H 0.47072 0.07341 0.54742 0.0
H426 H 0.41628 0.0222 0.57006 0.0
H427 H 0.39195 0.04829 0.56765 0.0
H428 H 0.6135 0.99006 0.53456 0.0
H429 H 0.5843 0.01047 0.53009 0.0
H430 H 0.62839 0.06066 0.49515 0.0
H431 H 0.65771 0.04023 0.49941 0.0
Dy432 Dy 0.30878 0.2859 0.79028 0.0
Dy433 Dy 0.25993 0.3001 0.78441 0.0
C434 C 0.30768 0.33552 0.77878 0.0
O435 O 0.30675 0.30534 0.8258 0.0
O436 O 0.26763 0.29558 0.82238 0.0
O437 O 0.34518 0.296 0.80289 0.0
O438 O 0.32806 0.26128 0.78316 0.0
O439 O 0.25113 0.26126 0.78063 0.0
O440 O 0.2831 0.25746 0.80283 0.0
O441 O 0.26898 0.29686 0.74733 0.0
O442 O 0.29124 0.27233 0.75272 0.0
O443 O 0.2241 0.29293 0.76981 0.0
O444 O 0.24117 0.32397 0.79572 0.0
C445 C 0.28796 0.3031 0.83552 0.0
O446 O 0.31511 0.31757 0.77288 0.0
O447 O 0.28888 0.33323 0.78846 0.0
C448 C 0.36586 0.27943 0.7763 0.0
C449 C 0.40066 0.28375 0.74675 0.0
C450 C 0.39142 0.30233 0.75245 0.0
C451 C 0.37417 0.30016 0.76695 0.0
C452 C 0.37495 0.26086 0.77062 0.0
C453 C 0.39207 0.26294 0.75598 0.0
C454 C 0.34771 0.27681 0.7918 0.0
C455 C 0.26144 0.24908 0.79305 0.0
C456 C 0.27971 0.28227 0.73867 0.0
C457 C 0.20212 0.306 0.79716 0.0
C458 C 0.1656 0.29922 0.82446 0.0
C459 C 0.18257 0.28777 0.82794 0.0
C460 C 0.20068 0.29118 0.81447 0.0
C461 C 0.18514 0.31721 0.79341 0.0
C462 C 0.16708 0.31387 0.80689 0.0
C463 C 0.22166 0.31071 0.78365 0.0
H464 H 0.3977 0.31872 0.74598 0.0
H465 H 0.36741 0.31477 0.77088 0.0
H466 H 0.36872 0.24465 0.77745 0.0
H467 H 0.39835 0.24808 0.75166 0.0
H468 H 0.18216 0.27659 0.84148 0.0
H469 H 0.21373 0.28249 0.81777 0.0
H470 H 0.18596 0.32874 0.78017 0.0
H471 H 0.15421 0.32273 0.80348 0.0
Dy472 Dy 0.03639 0.02131 0.53611 0.0
Dy473 Dy 0.02562 0.07284 0.5429 0.0
C474 C 0.98785 0.02617 0.54888 0.0
O475 O 0.03045 0.02901 0.49878 0.0
O476 O 0.00932 0.05457 0.50617 0.0
O477 O 0.02758 0.98428 0.52256 0.0
O478 O 0.06021 1.00196 0.54487 0.0
O479 O 0.05502 0.07601 0.52275 0.0
O480 O 0.06954 0.04977 0.53955 0.0
O481 O 0.04467 0.06999 0.57795 0.0
O482 O 0.0337 0.03005 0.57452 0.0
O483 O 0.03904 0.11027 0.55419 0.0
O484 O 1.00343 0.0948 0.5383 0.0
C485 C 0.01668 0.04087 0.49128 0.0
O486 O 0.99883 0.01378 0.53693 0.0
O487 O 0.99676 0.04877 0.5565 0.0
C488 C 0.04314 0.96267 0.5489 0.0
C489 C 0.0394 0.92666 0.5773 0.0
C490 C 0.02061 0.93514 0.57135 0.0
C491 C 0.02248 0.95301 0.55737 0.0
C492 C 0.06183 0.95423 0.55473 0.0
C493 C 0.06004 0.93653 0.56879 0.0
C494 C 0.04596 0.98191 0.53458 0.0
C495 C 0.07231 0.06814 0.52878 0.0
C496 C 0.0419 0.05083 0.58759 0.0
C497 C 0.02283 0.13232 0.52921 0.0
C498 C 0.02823 0.16766 0.49979 0.0
C499 C 0.01 0.14682 0.49358 0.0
C500 C 0.00736 0.12933 0.50806 0.0
C501 C 0.04097 0.15319 0.53543 0.0
C502 C 0.04371 0.17057 0.52087 0.0
C503 C 0.02023 0.11414 0.54504 0.0
H504 H 1.00437 0.92787 0.57731 0.0
H505 H 0.0078 0.95928 0.55328 0.0
H506 H 0.078 0.96153 0.54858 0.0
H507 H 0.07504 0.93089 0.57334 0.0
H508 H 0.99789 0.14391 0.47736 0.0
H509 H 0.99318 0.11349 0.50264 0.0
H510 H 0.05307 0.15612 0.55168 0.0
H511 H 0.05777 0.18651 0.52636 0.0
Dy512 Dy 0.29573 0.82043 0.7736 0.0
Dy513 Dy 0.28438 0.77006 0.79326 0.0
C514 C 0.28719 0.81661 0.8272 0.0
O515 O 0.33059 0.81466 0.77938 0.0
O516 O 0.32263 0.78662 0.80387 0.0
O517 O 0.31203 0.85775 0.77846 0.0
O518 O 0.28892 0.84016 0.74597 0.0
O519 O 0.30069 0.76514 0.76101 0.0
O520 O 0.29208 0.79342 0.74174 0.0
O521 O 0.25066 0.7707 0.77327 0.0
O522 O 0.25818 0.81036 0.77706 0.0
O523 O 0.26894 0.73265 0.78653 0.0
O524 O 0.28725 0.74992 0.82167 0.0
C525 C 0.33741 0.80172 0.79404 0.0
O526 O 0.30012 0.82815 0.81326 0.0
O527 O 0.2756 0.7945 0.82065 0.0
C528 C 0.28676 0.87686 0.76225 0.0
C529 C 0.25924 0.90715 0.76634 0.0
C530 C 0.25469 0.88703 0.77726 0.0
C531 C 0.26838 0.87208 0.77531 0.0
C532 C 0.29158 0.89702 0.75154 0.0
C533 C 0.27797 0.91214 0.75365 0.0
C534 C 0.30012 0.86022 0.75907 0.0
C535 C 0.29865 0.7745 0.74169 0.0
C536 C 0.24345 0.78929 0.77245 0.0
C537 C 0.29311 0.71455 0.80619 0.0
C538 C 0.32155 0.6851 0.80287 0.0
C539 C 0.32774 0.70694 0.79513 0.0
C540 C 0.31362 0.72145 0.79669 0.0
C541 C 0.28686 0.69293 0.81414 0.0
C542 C 0.30098 0.67828 0.8125 0.0
C543 C 0.2784 0.73003 0.80729 0.0
H544 H 0.24057 0.88288 0.7874 0.0
H545 H 0.2645 0.85666 0.78383 0.0
H546 H 0.30565 0.9009 0.74132 0.0
H547 H 0.28177 0.92743 0.7449 0.0
H548 H 0.34361 0.71292 0.78798 0.0
H549 H 0.31868 0.7381 0.79041 0.0
H550 H 0.27102 0.68732 0.82142 0.0
H551 H 0.29563 0.66147 0.81841 0.0
Dy552 Dy 0.52523 0.04735 0.01296 0.0
Dy553 Dy 0.54736 0.0283 0.05799 0.0
C554 C 0.53958 0.99972 0.00486 0.0
O555 O 0.49625 0.01945 0.0213 0.0
O556 O 0.51005 0.02063 0.06072 0.0
O557 O 0.50817 0.04268 0.97661 0.0
O558 O 0.51902 0.07689 0.99853 0.0
O559 O 0.5471 0.06508 0.07118 0.0
O560 O 0.51603 0.06536 0.04544 0.0
O561 O 0.57448 0.03811 0.03523 0.0
O562 O 0.56247 0.06723 0.0217 0.0
O563 O 0.5764 0.03392 0.08533 0.0
O564 O 0.54673 1.00361 0.08255 0.0
C565 C 0.49312 0.01452 0.04271 0.0
O566 O 0.53841 0.01878 0.99637 0.0
O567 O 0.53924 0.99833 0.02771 0.0
C568 C 0.52747 0.07414 0.95917 0.0
C569 C 0.55938 0.08043 0.92703 0.0
C570 C 0.56607 0.09116 0.951 0.0
C571 C 0.55028 0.08805 0.96694 0.0
C572 C 0.52031 0.06508 0.93479 0.0
C573 C 0.53617 0.06826 0.91877 0.0
C574 C 0.51298 0.06519 0.97685 0.0
C575 C 0.53014 0.07382 0.0656 0.0
C576 C 0.57857 0.0572 0.02573 0.0
C577 C 0.56528 0.0222 0.12093 0.0
C578 C 0.55886 0.03086 0.16885 0.0
C579 C 0.55569 0.04625 0.15305 0.0
C580 C 0.55879 0.04191 0.12929 0.0
C581 C 0.56941 0.00729 0.13676 0.0
C582 C 0.5662 0.01158 0.16062 0.0
C583 C 0.56608 0.01643 0.0954 0.0
H584 H 0.58382 0.10086 0.95771 0.0
H585 H 0.55641 0.09522 0.98564 0.0
H586 H 0.50289 0.05414 0.92848 0.0
H587 H 0.53063 0.05972 0.90036 0.0
H588 H 0.54954 0.06096 0.15866 0.0
H589 H 0.55531 0.0535 0.11724 0.0
H590 H 0.57438 0.99197 0.1305 0.0
H591 H 0.56876 0.99946 0.17243 0.0
Dy592 Dy 0.27125 0.26519 0.27138 0.0
Dy593 Dy 0.30001 0.3171 0.2983 0.0
C594 C 0.28863 0.2757 0.32726 0.0
O595 O 0.24349 0.28278 0.27631 0.0
O596 O 0.26376 0.31294 0.30614 0.0
O597 O 0.25809 0.22856 0.27312 0.0
O598 O 0.25082 0.24133 0.24014 0.0
O599 O 0.28273 0.32108 0.26304 0.0
O600 O 0.28289 0.28616 0.2431 0.0
O601 O 0.32664 0.30414 0.28118 0.0
O602 O 0.30832 0.2647 0.27337 0.0
O603 O 0.32271 0.35138 0.29745 0.0
O604 O 0.31074 0.34277 0.33046 0.0
C605 C 0.24404 0.29985 0.29348 0.0
O606 O 0.27084 0.26597 0.31062 0.0
O607 O 0.30557 0.2928 0.32327 0.0
C608 C 0.25894 0.20518 0.23804 0.0
C609 C 0.28206 0.17179 0.22817 0.0
C610 C 0.2595 0.16489 0.23332 0.0
C611 C 0.24804 0.18154 0.23832 0.0
C612 C 0.28055 0.21179 0.23066 0.0
C613 C 0.29201 0.19518 0.22566 0.0
C614 C 0.25027 0.22299 0.25032 0.0
C615 C 0.28206 0.30759 0.24294 0.0
C616 C 0.32696 0.28249 0.27459 0.0
C617 C 0.31134 0.37991 0.32063 0.0
C618 C 0.28723 0.41247 0.31313 0.0
C619 C 0.30766 0.41393 0.30363 0.0
C620 C 0.31966 0.39781 0.30743 0.0
C621 C 0.29209 0.37982 0.33194 0.0
C622 C 0.28019 0.396 0.32825 0.0
C623 C 0.32019 0.35948 0.31896 0.0
H624 H 0.2515 0.14703 0.23558 0.0
H625 H 0.23148 0.17622 0.24426 0.0
H626 H 0.28931 0.23003 0.23053 0.0
H627 H 0.3093 0.2009 0.2215 0.0
H628 H 0.31347 0.42642 0.29186 0.0
H629 H 0.3345 0.39828 0.2986 0.0
H630 H 0.28529 0.36639 0.3424 0.0
H631 H 0.26475 0.39482 0.3362 0.0
Dy632 Dy 0.54 0.51677 0.03192 0.0
Dy633 Dy 0.52953 0.5684 0.03843 0.0
C634 C 0.49122 0.52186 0.0428 0.0
O635 O 0.53647 0.52525 0.99466 0.0
O636 O 0.51515 0.55081 0.00094 0.0
O637 O 0.53041 0.47955 0.01855 0.0
O638 O 0.56283 0.49667 0.04135 0.0
O639 O 0.56006 0.57222 0.02003 0.0
O640 O 0.5736 0.54485 0.03602 0.0
O641 O 0.54802 0.56549 0.07378 0.0
O642 O 0.53655 0.52556 0.07014 0.0
O643 O 0.54195 0.60564 0.05071 0.0
O644 O 0.50715 0.58999 0.0323 0.0
C645 C 0.52351 0.53763 0.98652 0.0
O646 O 0.50217 0.50984 0.03038 0.0
O647 O 0.50046 0.54419 0.05147 0.0
C648 C 0.54411 0.45795 0.04584 0.0
C649 C 0.53872 0.42241 0.07488 0.0
C650 C 0.54334 0.41836 0.05131 0.0
C651 C 0.54603 0.43595 0.03699 0.0
C652 C 0.53906 0.462 0.06915 0.0
C653 C 0.53642 0.44445 0.08352 0.0
C654 C 0.54833 0.47676 0.03103 0.0
C655 C 0.57695 0.56374 0.02598 0.0
C656 C 0.54487 0.54627 0.08335 0.0
C657 C 0.52683 0.62765 0.0246 0.0
C658 C 0.53251 0.66295 0.9951 0.0
C659 C 0.55116 0.6552 0.00348 0.0
C660 C 0.54835 0.63774 0.01795 0.0
C661 C 0.50818 0.63523 0.01618 0.0
C662 C 0.51094 0.65257 0.00156 0.0
C663 C 0.52354 0.60939 0.04028 0.0
H664 H 0.54486 0.40154 0.04388 0.0
H665 H 0.54985 0.43244 0.01904 0.0
H666 H 0.53755 0.47889 0.07639 0.0
H667 H 0.53315 0.44836 0.10162 0.0
H668 H 0.5681 0.66291 0.99923 0.0
H669 H 0.56311 0.63227 0.02404 0.0
H670 H 0.49139 0.6277 0.02092 0.0
H671 H 0.49607 0.65771 0.99517 0.0
Dy672 Dy 0.79119 0.31449 0.26093 0.0
Dy673 Dy 0.78125 0.26658 0.28494 0.0
C674 C 0.77881 0.31429 0.31293 0.0
O675 O 0.82533 0.3154 0.28177 0.0
O676 O 0.81866 0.27614 0.28136 0.0
O677 O 0.80636 0.3519 0.26627 0.0
O678 O 0.78775 0.33342 0.23161 0.0
O679 O 0.78174 0.25511 0.24632 0.0
O680 O 0.80097 0.2897 0.23501 0.0
O681 O 0.74612 0.27153 0.27729 0.0
O682 O 0.75322 0.29642 0.24966 0.0
O683 O 0.76367 0.2301 0.28447 0.0
O684 O 0.78948 0.24957 0.31444 0.0
C685 C 0.83303 0.2973 0.28426 0.0
O686 O 0.77404 0.32034 0.29223 0.0
O687 O 0.78697 0.29654 0.31459 0.0
C688 C 0.78228 0.36946 0.24575 0.0
C689 C 0.75529 0.40028 0.2497 0.0
C690 C 0.74719 0.37746 0.25478 0.0
C691 C 0.7606 0.36223 0.25289 0.0
C692 C 0.7904 0.39208 0.24044 0.0
C693 C 0.777 0.40741 0.2424 0.0
C694 C 0.79674 0.35372 0.24528 0.0
C695 C 0.79314 0.26681 0.23133 0.0
C696 C 0.73873 0.28248 0.26084 0.0
C697 C 0.78952 0.21155 0.30045 0.0
C698 C 0.81615 0.18039 0.29625 0.0
C699 C 0.81803 0.19782 0.28168 0.0
C700 C 0.80485 0.21325 0.28378 0.0
C701 C 0.78734 0.1941 0.31488 0.0
C702 C 0.80055 0.17859 0.31279 0.0
C703 C 0.777 0.22894 0.3035 0.0
H704 H 0.73071 0.37154 0.26077 0.0
H705 H 0.75419 0.34489 0.25739 0.0
H706 H 0.80716 0.39796 0.23505 0.0
H707 H 0.7836 0.42482 0.23818 0.0
H708 H 0.83012 0.19995 0.26905 0.0
H709 H 0.80693 0.2268 0.27265 0.0
H710 H 0.77565 0.19265 0.32791 0.0
H711 H 0.79856 0.16521 0.3241 0.0
Dy712 Dy 0.03413 0.56013 0.5069 0.0
Dy713 Dy 0.05202 0.53803 0.5521 0.0
C714 C 0.0474 0.51149 0.49891 0.0
O715 O 1.00459 0.54848 0.52624 0.0
O716 O 0.01496 0.51859 0.54033 0.0
O717 O 0.00708 0.55803 0.47848 0.0
O718 O 0.0386 0.58667 0.48407 0.0
O719 O 0.03769 0.56583 0.56818 0.0
O720 O 0.04156 0.58872 0.53875 0.0
O721 O 0.08091 0.56754 0.54617 0.0
O722 O 0.07131 0.56525 0.50603 0.0
O723 O 0.07857 0.54068 0.58149 0.0
O724 O 0.04745 0.51184 0.57532 0.0
C725 C 0.99926 0.52872 0.53455 0.0
O726 O 0.03361 0.52351 0.4918 0.0
O727 O 0.05944 0.51696 0.5205 0.0
C728 C 0.02133 0.571 0.44443 0.0
C729 C 0.02858 0.56321 0.39666 0.0
C730 C 0.026 0.54517 0.4105 0.0
C731 C 0.02252 0.54906 0.4342 0.0
C732 C 0.02328 0.58888 0.43055 0.0
C733 C 0.02694 0.58504 0.4068 0.0
C734 C 0.01944 0.5756 0.46988 0.0
C735 C 0.0385 0.58585 0.56085 0.0
C736 C 0.08664 0.57176 0.52534 0.0
C737 C 0.06164 0.53081 0.61474 0.0
C738 C 0.05646 0.5502 0.6604 0.0
C739 C 0.04073 0.54956 0.6403 0.0
C740 C 0.04327 0.53993 0.61773 0.0
C741 C 0.07725 0.53103 0.63476 0.0
C742 C 0.07455 0.5405 0.65758 0.0
C743 C 0.06565 0.52384 0.59044 0.0
H744 H 0.02764 0.52832 0.40332 0.0
H745 H 0.02133 0.5351 0.4447 0.0
H746 H 0.0225 0.60594 0.43823 0.0
H747 H 0.02888 0.59922 0.39649 0.0
H748 H 0.02631 0.5564 0.64205 0.0
H749 H 0.03104 0.53998 0.60251 0.0
H750 H 0.0917 0.52433 0.63268 0.0
H751 H 0.08677 0.54068 0.6729 0.0
Dy752 Dy 0.80594 0.7823 0.29148 0.0
Dy753 Dy 0.75703 0.79618 0.28563 0.0
C754 C 0.80448 0.83158 0.27947 0.0
O755 O 0.80403 0.80216 0.32681 0.0
O756 O 0.76494 0.79212 0.32364 0.0
O757 O 0.84239 0.793 0.30403 0.0
O758 O 0.82569 0.75815 0.28457 0.0
O759 O 0.74864 0.75736 0.28208 0.0
O760 O 0.78064 0.75391 0.3045 0.0
O761 O 0.76615 0.79277 0.24859 0.0
O762 O 0.78774 0.76768 0.25428 0.0
O763 O 0.72082 0.78796 0.27167 0.0
O764 O 0.73811 0.82014 0.29595 0.0
C765 C 0.78531 0.8 0.33663 0.0
O766 O 0.81173 0.81354 0.27341 0.0
O767 O 0.78588 0.82941 0.28949 0.0
C768 C 0.86315 0.77696 0.27778 0.0
C769 C 0.89811 0.78362 0.24856 0.0
C770 C 0.87888 0.79162 0.24339 0.0
C771 C 0.86157 0.78829 0.25783 0.0
C772 C 0.8822 0.76891 0.28301 0.0
C773 C 0.8995 0.77217 0.26854 0.0
C774 C 0.84521 0.77382 0.29334 0.0
C775 C 0.75901 0.74532 0.29464 0.0
C776 C 0.77625 0.77755 0.24009 0.0
C777 C 0.69936 0.80137 0.29962 0.0
C778 C 0.6625 0.79365 0.32655 0.0
C779 C 0.68539 0.80204 0.33808 0.0
C780 C 0.70361 0.80573 0.3248 0.0
C781 C 0.67654 0.79281 0.28809 0.0
C782 C 0.65831 0.78889 0.30139 0.0
C783 C 0.71842 0.80593 0.28523 0.0
H784 H 0.87706 0.80021 0.228 0.0
H785 H 0.84695 0.79459 0.25345 0.0
H786 H 0.88376 0.7602 0.29837 0.0
H787 H 0.91414 0.76601 0.27322 0.0
H788 H 0.68924 0.80556 0.35743 0.0
H789 H 0.72101 0.8121 0.33427 0.0
H790 H 0.6728 0.78929 0.26874 0.0
H791 H 0.6409 0.78256 0.29195 0.0
Dy792 Dy 0.79926 0.29091 0.75345 0.0
Dy793 Dy 0.7764 0.3082 0.79853 0.0
C794 C 0.81304 0.34334 0.77595 0.0
O795 O 0.82529 0.29495 0.78597 0.0
O796 O 0.80245 0.29276 0.8154 0.0
O797 O 0.82889 0.29344 0.7358 0.0
O798 O 0.79641 0.26785 0.72034 0.0
O799 O 0.75515 0.27176 0.78261 0.0
O800 O 0.78417 0.25955 0.76924 0.0
O801 O 0.75811 0.31799 0.76694 0.0
O802 O 0.76417 0.29174 0.73758 0.0
O803 O 0.7525 0.30116 0.8236 0.0
O804 O 0.77373 0.33648 0.82423 0.0
C805 C 0.82188 0.29217 0.80799 0.0
O806 O 0.80549 0.32923 0.75556 0.0
O807 O 0.80842 0.33591 0.79601 0.0
C808 C 0.81921 0.28642 0.69395 0.0
C809 C 0.81937 0.30119 0.64912 0.0
C810 C 0.82232 0.31736 0.67003 0.0
C811 C 0.82212 0.31003 0.69223 0.0
C812 C 0.81671 0.27025 0.6732 0.0
C813 C 0.81669 0.27758 0.65086 0.0
C814 C 0.81721 0.27843 0.7171 0.0
C815 C 0.76369 0.2549 0.77534 0.0
C816 C 0.75288 0.30625 0.74505 0.0
C817 C 0.76664 0.32416 0.86093 0.0
C818 C 0.77618 0.31711 0.9083 0.0
C819 C 0.79266 0.31788 0.8929 0.0
C820 C 0.7879 0.32136 0.86938 0.0
C821 C 0.75084 0.32516 0.87665 0.0
C822 C 0.75562 0.32177 0.90026 0.0
C823 C 0.75969 0.32245 0.83522 0.0
H824 H 0.82392 0.33558 0.66915 0.0
H825 H 0.82369 0.32276 0.70797 0.0
H826 H 0.81426 0.25193 0.67425 0.0
H827 H 0.81433 0.26481 0.63495 0.0
H828 H 0.8085 0.31402 0.8984 0.0
H829 H 0.80024 0.32042 0.85738 0.0
H830 H 0.73433 0.32725 0.87032 0.0
H831 H 0.74272 0.32148 0.91182 0.0
Dy832 Dy 0.77778 0.77077 0.76944 0.0
Dy833 Dy 0.80532 0.82349 0.79588 0.0
C834 C 0.79605 0.78147 0.8255 0.0
O835 O 0.75067 0.78283 0.78631 0.0
O836 O 0.76772 0.82253 0.7922 0.0
O837 O 0.75689 0.73573 0.77061 0.0
O838 O 0.76919 0.74447 0.73782 0.0
O839 O 0.80023 0.82524 0.75695 0.0
O840 O 0.76869 0.79356 0.74418 0.0
O841 O 0.83273 0.80505 0.7929 0.0
O842 O 0.81376 0.77752 0.76068 0.0
O843 O 0.83545 0.8532 0.79972 0.0
O844 O 0.80894 0.85444 0.82137 0.0
C845 C 0.74958 0.80434 0.79181 0.0
O846 O 0.79424 0.76736 0.80545 0.0
O847 O 0.79741 0.8035 0.82556 0.0
C848 C 0.7729 0.71 0.74975 0.0
C849 C 0.79833 0.67778 0.74986 0.0
C850 C 0.80763 0.70045 0.76286 0.0
C851 C 0.79505 0.71636 0.76279 0.0
C852 C 0.76334 0.68741 0.73678 0.0
C853 C 0.77599 0.67129 0.73692 0.0
C854 C 0.76072 0.72771 0.74963 0.0
C855 C 0.78257 0.81342 0.74083 0.0
C856 C 0.83301 0.78943 0.77468 0.0
C857 C 0.82593 0.88856 0.80633 0.0
C858 C 0.81479 0.92698 0.79037 0.0
C859 C 0.8209 0.91082 0.77445 0.0
C860 C 0.82632 0.89173 0.78233 0.0
C861 C 0.82144 0.90553 0.82259 0.0
C862 C 0.81588 0.92457 0.81469 0.0
C863 C 0.82721 0.86642 0.81386 0.0
H864 H 0.82458 0.70585 0.77338 0.0
H865 H 0.80268 0.73374 0.77296 0.0
H866 H 0.74628 0.68231 0.72655 0.0
H867 H 0.76846 0.6539 0.72672 0.0
H868 H 0.82052 0.91239 0.75569 0.0
H869 H 0.82978 0.87893 0.76937 0.0
H870 H 0.82097 0.90336 0.84114 0.0
H871 H 0.811 0.93654 0.82737 0.0
Dy872 Dy 0.55774 0.55741 0.54714 0.0
Dy873 Dy 0.50867 0.526 0.51769 0.0
C874 C 0.55328 0.53724 0.49276 0.0
O875 O 0.54427 0.58235 0.52734 0.0
O876 O 0.50584 0.56291 0.52144 0.0
O877 O 0.59148 0.5811 0.54766 0.0
O878 O 0.58071 0.57053 0.58053 0.0
O879 O 0.50416 0.52951 0.55629 0.0
O880 O 0.53238 0.56375 0.57019 0.0
O881 O 0.5283 0.49995 0.52366 0.0
O882 O 0.55271 0.5213 0.55707 0.0
O883 O 0.47671 0.4987 0.51515 0.0
O884 O 0.48481 0.5157 0.48472 0.0
C885 C 0.52276 0.58206 0.5215 0.0
O886 O 0.56527 0.53904 0.51377 0.0
O887 O 0.53176 0.53689 0.49095 0.0
C888 C 0.61878 0.57312 0.57481 0.0
C889 C 0.65613 0.55474 0.57475 0.0
C890 C 0.63629 0.54293 0.58336 0.0
C891 C 0.61772 0.55197 0.58328 0.0
C892 C 0.63918 0.58573 0.56777 0.0
C893 C 0.65772 0.57657 0.56766 0.0
C894 C 0.59792 0.58032 0.57006 0.0
C895 C 0.51411 0.54754 0.57313 0.0
C896 C 0.54252 0.50104 0.5432 0.0
C897 C 0.44668 0.50762 0.49195 0.0
C898 C 0.41057 0.52789 0.49108 0.0
C899 C 0.41686 0.51836 0.51114 0.0
C900 C 0.43477 0.50832 0.5116 0.0
C901 C 0.43895 0.51517 0.47108 0.0
C902 C 0.42112 0.52536 0.4707 0.0
C903 C 0.46881 0.5023 0.49421 0.0
H904 H 0.63449 0.52593 0.58863 0.0
H905 H 0.60212 0.54171 0.58861 0.0
H906 H 0.6403 0.60203 0.56112 0.0
H907 H 0.67293 0.58603 0.56106 0.0
H908 H 0.40908 0.52018 0.52715 0.0
H909 H 0.44015 0.50248 0.5279 0.0
H910 H 0.44765 0.51454 0.45559 0.0
H911 H 0.41635 0.53232 0.45491 0.0
Dy912 Dy 0.99786 0.53673 0.03346 0.0
Dy913 Dy 0.06022 0.54919 0.05252 0.0
C914 C 0.04275 0.54788 0.00512 0.0
O915 O 1.00543 0.50262 0.02311 0.0
O916 O 0.04429 0.50995 0.03954 0.0
O917 O 0.9778 0.53771 1.00025 0.0
O918 O 0.96117 0.52758 0.03092 0.0
O919 O 0.0333 0.55178 0.07522 0.0
O920 O 0.99969 0.52382 0.06815 0.0
O921 O 0.05226 0.58411 0.05461 0.0
O922 O 0.01185 0.57569 0.04766 0.0
O923 O 0.07944 0.54268 0.08352 0.0
O924 O 0.09704 0.56457 0.05973 0.0
C925 C 0.02402 0.49579 0.02839 0.0
O926 O 0.0308 0.54499 0.02227 0.0
O927 O 0.06408 0.55177 0.01361 0.0
C928 C 0.94492 0.54918 0.00649 0.0
C929 C 0.91661 0.57869 0.00399 0.0
C930 C 0.90975 0.55625 0.99009 0.0
C931 C 0.92381 0.54161 0.99136 0.0
C932 C 0.95218 0.57176 0.01985 0.0
C933 C 0.93817 0.58642 0.01859 0.0
C934 C 0.95868 0.53307 0.00941 0.0
C935 C 0.01947 0.53362 0.08176 0.0
C936 C 0.03304 0.59055 0.05303 0.0
C937 C 0.11593 0.54026 0.0774 0.0
C938 C 0.14797 0.51467 0.07726 0.0
C939 C 0.15418 0.53771 0.08963 0.0
C940 C 0.13824 0.55037 0.08974 0.0
C941 C 0.10965 0.51731 0.06496 0.0
C942 C 0.12551 0.50458 0.06499 0.0
C943 C 0.0992 0.55355 0.07782 0.0
H944 H 0.8934 0.54994 0.9784 0.0
H945 H 0.91801 0.52423 0.98089 0.0
H946 H 0.9684 0.5778 0.03173 0.0
H947 H 0.94387 0.60349 0.02968 0.0
H948 H 0.1713 0.54584 0.09943 0.0
H949 H 0.14331 0.56804 0.09951 0.0
H950 H 0.09245 0.50921 0.05533 0.0
H951 H 0.1203 0.48695 0.05513 0.0
C952 C 1.00155 0.20066 0.96922 0.0
C953 C 1.00204 0.21874 0.9876 0.0
C954 C 1.00357 0.17876 0.97421 0.0
C955 C 1.00589 0.17441 0.9982 0.0
C956 C 1.00579 0.1924 0.01673 0.0
C957 C 1.00403 0.21417 0.01127 0.0
C958 C 1.00378 0.16042 0.95378 0.0
C959 C 0.00792 0.18879 0.04253 0.0
C960 C 0.9946 0.11121 0.01167 0.0
C961 C 0.01692 0.10935 0.01708 0.0
C962 C 0.99072 0.13199 0.00534 0.0
C963 C 0.00953 0.15165 0.00413 0.0
C964 C 0.03206 0.14975 0.0093 0.0
C965 C 0.03544 0.12887 0.01573 0.0
C966 C 0.96639 0.13297 1.00016 0.0
C967 C 0.05274 0.1699 0.00811 0.0
H968 H 1.00013 0.2038 0.95087 0.0
H969 H 1.00435 0.22776 0.02574 0.0
H970 H 0.02052 0.15664 0.9558 0.0
H971 H 0.99032 0.14386 0.95411 0.0
H972 H 1.00092 0.16597 0.9361 0.0
H973 H 1.00631 0.20387 0.05478 0.0
H974 H 0.99451 0.17282 0.04465 0.0
H975 H 0.0248 0.18613 0.04806 0.0
H976 H 0.98005 0.09641 0.0125 0.0
H977 H 0.05279 0.12787 0.01964 0.0
H978 H 0.96315 0.1376 0.98212 0.0
H979 H 0.96374 0.14684 0.01325 0.0
H980 H 0.95358 0.1161 0.00106 0.0
H981 H 0.05151 0.17515 0.99014 0.0
H982 H 0.06909 0.16552 0.01182 0.0
H983 H 0.05326 0.18524 0.02131 0.0
C984 C 0.13802 0.81803 0.15972 0.0
C985 C 0.11753 0.80051 0.16012 0.0
C986 C 0.1591 0.81775 0.17241 0.0
C987 C 0.15977 0.79957 0.1859 0.0
C988 C 0.13917 0.78178 0.18611 0.0
C989 C 0.11848 0.78247 0.17331 0.0
C990 C 0.18064 0.83698 0.17153 0.0
C991 C 0.13891 0.76202 0.2001 0.0
C992 C 0.21494 0.78445 0.20571 0.0
C993 C 0.22016 0.79437 0.23006 0.0
C994 C 0.19593 0.78676 0.19089 0.0
C995 C 0.18165 0.7993 0.20053 0.0
C996 C 0.18725 0.80993 0.22489 0.0
C997 C 0.20634 0.80737 0.23928 0.0
C998 C 0.19083 0.77531 0.16502 0.0
C999 C 0.17262 0.82345 0.23603 0.0
H1000 H 0.1376 0.83199 0.14955 0.0
H1001 H 0.10289 0.76874 0.17378 0.0
H1002 H 0.18828 0.84635 0.18987 0.0
H1003 H 0.19353 0.82939 0.16433 0.0
H1004 H 0.17736 0.84982 0.16024 0.0
H1005 H 0.12159 0.74923 0.19803 0.0
H1006 H 0.15102 0.75264 0.19413 0.0
H1007 H 0.14471 0.76911 0.21938 0.0
H1008 H 0.22555 0.77459 0.19823 0.0
H1009 H 0.21016 0.81525 0.25797 0.0
H1010 H 0.19085 0.78866 0.15325 0.0
H1011 H 0.17348 0.76247 0.16127 0.0
H1012 H 0.20351 0.76615 0.16023 0.0
H1013 H 0.17041 0.83701 0.22525 0.0
H1014 H 0.18012 0.83206 0.25467 0.0
H1015 H 0.1553 0.81146 0.23618 0.0
C1016 C 0.50626 0.85654 0.47186 0.0
C1017 C 0.4955 0.84104 0.48649 0.0
C1018 C 0.50971 0.88094 0.47737 0.0
C1019 C 0.50283 0.8904 0.49842 0.0
C1020 C 0.49258 0.87486 0.51359 0.0
C1021 C 0.48876 0.85052 0.5073 0.0
C1022 C 0.5202 0.89654 0.4603 0.0
C1023 C 0.48552 0.88395 0.53652 0.0
C1024 C 0.52994 0.95587 0.5232 0.0
C1025 C 0.51225 0.96557 0.51654 0.0
C1026 C 0.52707 0.93162 0.51765 0.0
C1027 C 0.50616 0.91644 0.50449 0.0
C1028 C 0.48833 0.92618 0.49743 0.0
C1029 C 0.49146 0.95044 0.50378 0.0
C1030 C 0.54641 0.92223 0.52617 0.0
C1031 C 0.46594 0.91098 0.48293 0.0
H1032 H 0.51129 0.84952 0.45559 0.0
H1033 H 0.48046 0.83882 0.5188 0.0
H1034 H 0.50809 0.90589 0.45375 0.0
H1035 H 0.53604 0.91 0.46965 0.0
H1036 H 0.52451 0.88661 0.44464 0.0
H1037 H 0.47895 0.86986 0.54705 0.0
H1038 H 0.50034 0.89744 0.54774 0.0
H1039 H 0.47195 0.89241 0.53245 0.0
H1040 H 0.54606 0.96723 0.53317 0.0
H1041 H 0.47771 0.95763 0.49834 0.0
H1042 H 0.55205 0.91354 0.51068 0.0
H1043 H 0.54034 0.90883 0.5376 0.0
H1044 H 0.56143 0.93616 0.53655 0.0
H1045 H 0.46924 0.90158 0.46633 0.0
H1046 H 0.45413 0.92123 0.47796 0.0
H1047 H 0.45726 0.89757 0.49323 0.0
C1048 C 0.48341 0.27401 0.64913 0.0
C1049 C 0.50426 0.29202 0.65358 0.0
C1050 C 0.46691 0.27294 0.66455 0.0
C1051 C 0.47117 0.29042 0.68491 0.0
C1052 C 0.49217 0.30868 0.68953 0.0
C1053 C 0.50849 0.3092 0.6739 0.0
C1054 C 0.44488 0.25305 0.65902 0.0
C1055 C 0.49732 0.32776 0.71091 0.0
C1056 C 0.41893 0.29814 0.7117 0.0
C1057 C 0.41909 0.286 0.73122 0.0
C1058 C 0.43599 0.30012 0.69682 0.0
C1059 C 0.4536 0.28949 0.7013 0.0
C1060 C 0.45397 0.27733 0.72101 0.0
C1061 C 0.43685 0.27584 0.73576 0.0
C1062 C 0.43497 0.31335 0.67608 0.0
C1063 C 0.47233 0.26562 0.72638 0.0
H1064 H 0.47994 0.26059 0.63356 0.0
H1065 H 0.52449 0.32323 0.67748 0.0
H1066 H 0.44291 0.24321 0.67427 0.0
H1067 H 0.42999 0.26002 0.65656 0.0
H1068 H 0.44428 0.2407 0.64264 0.0
H1069 H 0.51437 0.34077 0.712 0.0
H1070 H 0.48399 0.33698 0.71003 0.0
H1071 H 0.49684 0.32006 0.72762 0.0
H1072 H 0.4052 0.30579 0.70772 0.0
H1073 H 0.4375 0.26679 0.75098 0.0
H1074 H 0.43243 0.30131 0.65899 0.0
H1075 H 0.45145 0.3272 0.67709 0.0
H1076 H 0.42085 0.32158 0.67568 0.0
H1077 H 0.47171 0.25223 0.71091 0.0
H1078 H 0.47039 0.25705 0.74252 0.0
H1079 H 0.48954 0.27865 0.72915 0.0
C1080 C 0.02111 0.81795 0.65089 0.0
C1081 C 0.038 0.82374 0.67121 0.0
C1082 C 0.02028 0.83399 0.63505 0.0
C1083 C 0.03689 0.85626 0.63942 0.0
C1084 C 0.05411 0.86208 0.65977 0.0
C1085 C 0.05437 0.84585 0.67545 0.0
C1086 C 1.00149 0.82717 0.61373 0.0
C1087 C 0.07233 0.88549 0.66498 0.0
C1088 C 0.04899 0.89076 0.58814 0.0
C1089 C 0.03774 0.90788 0.59256 0.0
C1090 C 0.04861 0.87374 0.60302 0.0
C1091 C 0.03644 0.87351 0.62273 0.0
C1092 C 0.02455 0.89032 0.62698 0.0
C1093 C 0.02543 0.90733 0.61196 0.0
C1094 C 0.06161 0.85623 0.59788 0.0
C1095 C 0.01122 0.89062 0.64768 0.0
H1096 H 0.00831 0.80098 0.64753 0.0
H1097 H 0.06755 0.85048 0.69102 0.0
H1098 H 0.99126 0.83973 0.61445 0.0
H1099 H 0.00907 0.82798 0.59696 0.0
H1100 H 0.98977 0.80928 0.61291 0.0
H1101 H 0.0847 0.88723 0.68138 0.0
H1102 H 0.08195 0.88798 0.64967 0.0
H1103 H 0.06421 0.89976 0.66726 0.0
H1104 H 0.05818 0.89064 0.57298 0.0
H1105 H 0.0169 0.92057 0.61582 0.0
H1106 H 0.04986 0.83818 0.5955 0.0
H1107 H 0.07508 0.85811 0.6133 0.0
H1108 H 0.06988 0.85844 0.5816 0.0
H1109 H 0.99872 0.8732 0.64698 0.0
H1110 H 1.00181 0.90392 0.64775 0.0
H1111 H 0.0231 0.89443 0.66481 0.0
C1112 C 0.47258 0.80495 0.81053 0.0
C1113 C 0.48118 0.80981 0.83507 0.0
C1114 C 0.44963 0.80411 0.80218 0.0
C1115 C 0.43506 0.80889 0.81867 0.0
C1116 C 0.44416 0.8148 0.84336 0.0
C1117 C 0.46679 0.8148 0.85119 0.0
C1118 C 0.44067 0.79718 0.77579 0.0
C1119 C 0.42983 0.82069 0.8617 0.0
C1120 C 0.37969 0.82412 0.79807 0.0
C1121 C 0.36248 0.80353 0.79934 0.0
C1122 C 0.40327 0.82605 0.80392 0.0
C1123 C 0.41007 0.80671 0.81055 0.0
C1124 C 0.39272 0.78563 0.81103 0.0
C1125 C 0.36932 0.78443 0.80582 0.0
C1126 C 0.42091 0.84909 0.80374 0.0
C1127 C 0.39883 0.76429 0.81735 0.0
H1128 H 0.48342 0.8008 0.79795 0.0
H1129 H 0.47327 0.81867 0.87019 0.0
H1130 H 0.42666 0.78043 0.77268 0.0
H1131 H 0.43329 0.81048 0.76918 0.0
H1132 H 0.45425 0.79501 0.76513 0.0
H1133 H 0.43996 0.82692 0.87989 0.0
H1134 H 0.42222 0.83441 0.85656 0.0
H1135 H 0.41545 0.805 0.86241 0.0
H1136 H 0.37472 0.83903 0.79317 0.0
H1137 H 0.35632 0.76832 0.80664 0.0
H1138 H 0.43363 0.84655 0.79209 0.0
H1139 H 0.43042 0.85619 0.82207 0.0
H1140 H 0.41305 0.86222 0.79738 0.0
H1141 H 0.41146 0.76033 0.80626 0.0
H1142 H 0.38357 0.74863 0.81472 0.0
H1143 H 0.40696 0.7677 0.83633 0.0
C1144 C 0.50946 0.17774 0.15803 0.0
C1145 C 0.5167 0.19867 0.14875 0.0
C1146 C 0.51095 0.15641 0.14592 0.0
C1147 C 0.52022 0.15597 0.12418 0.0
C1148 C 0.52765 0.17707 0.11487 0.0
C1149 C 0.52566 0.19797 0.1271 0.0
C1150 C 0.50253 0.13432 0.15634 0.0
C1151 C 0.53788 0.17763 0.09196 0.0
C1152 C 0.54429 0.1067 0.10078 0.0
C1153 C 0.52707 0.09385 0.08181 0.0
C1154 C 0.54204 0.1265 0.11516 0.0
C1155 C 0.52193 0.13356 0.11077 0.0
C1156 C 0.50414 0.1201 0.09223 0.0
C1157 C 0.50698 0.1006 0.07795 0.0
C1158 C 0.56155 0.14038 0.13452 0.0
C1159 C 0.48228 0.12666 0.08705 0.0
H1160 H 0.50255 0.17801 0.17471 0.0
H1161 H 0.53151 0.21395 0.11975 0.0
H1162 H 0.4889 0.12122 0.14325 0.0
H1163 H 0.51674 0.12658 0.15996 0.0
H1164 H 0.4956 0.13746 0.17322 0.0
H1165 H 0.54337 0.19552 0.08737 0.0
H1166 H 0.55295 0.17086 0.09357 0.0
H1167 H 0.52516 0.1661 0.07693 0.0
H1168 H 0.55987 0.10168 0.10402 0.0
H1169 H 0.49341 0.09072 0.06356 0.0
H1170 H 0.5552 0.14272 0.15186 0.0
H1171 H 0.569 0.15806 0.1301 0.0
H1172 H 0.57537 0.13185 0.13674 0.0
H1173 H 0.47475 0.12888 0.10368 0.0
H1174 H 0.4693 0.11334 0.07347 0.0
H1175 H 0.48611 0.14363 0.08037 0.0
C1176 C 0.12229 0.30755 0.33498 0.0
C1177 C 0.11639 0.32711 0.32833 0.0
C1178 C 0.14262 0.30254 0.32935 0.0
C1179 C 0.15752 0.31709 0.31629 0.0
C1180 C 0.15133 0.33653 0.30908 0.0
C1181 C 0.13119 0.34136 0.31531 0.0
C1182 C 0.14844 0.28188 0.33791 0.0
C1183 C 0.16614 0.35245 0.29484 0.0
C1184 C 0.22148 0.31925 0.32004 0.0
C1185 C 0.22185 0.30425 0.29917 0.0
C1186 C 0.20086 0.32323 0.32593 0.0
C1187 C 0.1797 0.31234 0.31051 0.0
C1188 C 0.17999 0.29735 0.28931 0.0
C1189 C 0.20081 0.29337 0.28404 0.0
C1190 C 0.20175 0.33913 0.34885 0.0
C1191 C 0.15823 0.28565 0.27193 0.0
H1192 H 0.11132 0.29644 0.34518 0.0
H1193 H 0.12704 0.35651 0.30992 0.0
H1194 H 0.15023 0.26973 0.32249 0.0
H1195 H 0.16518 0.28794 0.3499 0.0
H1196 H 0.13521 0.27213 0.34772 0.0
H1197 H 0.15867 0.36629 0.28973 0.0
H1198 H 0.18339 0.36095 0.30543 0.0
H1199 H 0.16851 0.34212 0.27833 0.0
H1200 H 0.23739 0.3278 0.33206 0.0
H1201 H 0.20061 0.28182 0.26783 0.0
H1202 H 0.18973 0.32972 0.36001 0.0
H1203 H 0.19615 0.3544 0.34477 0.0
H1204 H 0.21923 0.34561 0.35943 0.0
H1205 H 0.14528 0.27453 0.28101 0.0
H1206 H 0.16113 0.27463 0.25618 0.0
H1207 H 0.15085 0.29908 0.26556 0.0
C1208 C 0.98858 0.02692 0.20657 0.0
C1209 C 0.97304 0.03803 0.21503 0.0
C1210 C 0.99602 0.03007 0.18443 0.0
C1211 C 0.98764 0.04458 0.17033 0.0
C1212 C 0.97238 0.05627 0.17901 0.0
C1213 C 0.96531 0.05291 0.20126 0.0
C1214 C 0.01243 0.0174 0.17586 0.0
C1215 C 0.96301 0.07184 0.1645 0.0
C1216 C 0.01976 0.06538 0.11986 0.0
C1217 C 1.00691 0.04901 0.10003 0.0
C1218 C 0.01358 0.06434 0.14282 0.0
C1219 C 0.994 0.0466 0.14601 0.0
C1220 C 0.98066 0.03039 0.12598 0.0
C1221 C 0.9873 0.03176 0.10328 0.0
C1222 C 0.02827 0.0819 0.16374 0.0
C1223 C 0.95955 0.01133 0.12857 0.0
H1224 H 0.99473 0.01547 0.21708 0.0
H1225 H 0.95331 0.06159 0.20762 0.0
H1226 H 1.00397 0.00475 0.15937 0.0
H1227 H 0.02766 0.02999 0.17125 0.0
H1228 H 0.0183 0.00776 0.18948 0.0
H1229 H 0.95219 0.08059 0.17428 0.0
H1230 H 0.97727 0.08544 0.15959 0.0
H1231 H 0.95253 0.06133 0.14759 0.0
H1232 H 0.03498 0.07874 0.11757 0.0
H1233 H 0.97718 0.01908 0.08809 0.0
H1234 H 0.03568 0.07274 0.17679 0.0
H1235 H 0.01764 0.09115 0.17316 0.0
H1236 H 0.04251 0.09506 0.15817 0.0
H1237 H 0.96439 0.99965 0.14045 0.0
H1238 H 0.95061 1.0006 0.11111 0.0
H1239 H 0.94736 0.01908 0.13705 0.0
C1240 C 0.30561 0.76319 0.5286 0.0
C1241 C 0.30831 0.74196 0.51821 0.0
C1242 C 0.30367 0.78037 0.51467 0.0
C1243 C 0.30427 0.77604 0.48984 0.0
C1244 C 0.3089 0.7555 0.47969 0.0
C1245 C 0.31093 0.73873 0.49403 0.0
C1246 C 0.29935 0.80234 0.5262 0.0
C1247 C 0.3099 0.75034 0.45326 0.0
C1248 C 0.26611 0.79383 0.44424 0.0
C1249 C 0.28221 0.80987 0.43427 0.0
C1250 C 0.27292 0.78415 0.46383 0.0
C1251 C 0.29642 0.79067 0.47368 0.0
C1252 C 0.31242 0.80853 0.46527 0.0
C1253 C 0.30512 0.81792 0.44555 0.0
C1254 C 0.25524 0.76521 0.47236 0.0
C1255 C 0.33753 0.81634 0.4757 0.0
H1256 H 0.30395 0.76599 0.54739 0.0
H1257 H 0.3134 0.72255 0.48596 0.0
H1258 H 0.30913 0.81782 0.51912 0.0
H1259 H 0.28087 0.80084 0.52198 0.0
H1260 H 0.3041 0.80531 0.54596 0.0
H1261 H 0.31585 0.73477 0.44867 0.0
H1262 H 0.29257 0.74709 0.44295 0.0
H1263 H 0.32156 0.76553 0.44738 0.0
H1264 H 0.24843 0.78728 0.43556 0.0
H1265 H 0.31758 0.83063 0.43817 0.0
H1266 H 0.25681 0.76838 0.49213 0.0
H1267 H 0.25819 0.74806 0.46707 0.0
H1268 H 0.23744 0.76405 0.46466 0.0
H1269 H 0.33989 0.81704 0.49539 0.0
H1270 H 0.34641 0.8338 0.47153 0.0
H1271 H 0.3459 0.80362 0.468 0.0
C1272 C 0.61668 0.01015 0.69142 0.0
C1273 C 0.61174 0.02119 0.71243 0.0
C1274 C 0.60411 0.00948 0.66911 0.0
C1275 C 0.58652 0.02047 0.66783 0.0
C1276 C 0.58077 0.03069 0.68907 0.0
C1277 C 0.59334 0.03073 0.71117 0.0
C1278 C 0.61038 0.99798 0.64684 0.0
C1279 C 0.56227 0.04281 0.68839 0.0
C1280 C 0.57494 0.04541 0.6115 0.0
C1281 C 0.55419 0.02929 0.60018 0.0
C1282 C 0.58562 0.04269 0.63354 0.0
C1283 C 0.5755 0.02313 0.64425 0.0
C1284 C 0.55477 0.00654 0.63269 0.0
C1285 C 0.54422 0.00994 0.61085 0.0
C1286 C 0.60757 0.06093 0.64553 0.0
C1287 C 0.54376 0.98526 0.6434 0.0
H1288 H 0.63078 1.00257 0.69235 0.0
H1289 H 0.58947 0.03934 0.72734 0.0
H1290 H 0.59478 0.98607 0.63526 0.0
H1291 H 0.61847 0.01154 0.63637 0.0
H1292 H 0.62253 0.98788 0.65107 0.0
H1293 H 0.55873 0.04831 0.70654 0.0
H1294 H 0.56763 0.05854 0.67971 0.0
H1295 H 0.54612 0.03115 0.67755 0.0
H1296 H 0.58265 0.06043 0.60335 0.0
H1297 H 0.52829 0.9973 0.602 0.0
H1298 H 0.62154 0.05272 0.64834 0.0
H1299 H 0.60523 0.06873 0.6634 0.0
H1300 H 0.61309 0.07519 0.63489 0.0
H1301 H 0.55611 0.97516 0.64658 0.0
H1302 H 0.52807 0.97359 0.63169 0.0
H1303 H 0.53909 0.99072 0.66098 0.0
C1304 C 0.29924 0.33073 0.97926 0.0
C1305 C 0.29163 0.35027 0.98542 0.0
C1306 C 0.29873 0.32169 0.95518 0.0
C1307 C 0.29083 0.33271 0.93682 0.0
C1308 C 0.28303 0.35236 0.94295 0.0
C1309 C 0.28332 0.36075 0.96712 0.0
C1310 C 0.30674 0.30042 0.94937 0.0
C1311 C 0.27476 0.36482 0.92396 0.0
C1312 C 0.30945 0.32487 0.87551 0.0
C1313 C 0.28941 0.30945 0.86174 0.0
C1314 C 0.31027 0.33234 0.90005 0.0
C1315 C 0.29075 0.32383 0.91118 0.0
C1316 C 0.27075 0.30763 0.89751 0.0
C1317 C 0.27026 0.30082 0.87295 0.0
C1318 C 0.33179 0.34992 0.91391 0.0
C1319 C 0.24972 0.2978 0.90873 0.0
H1320 H 0.30561 0.32249 0.99328 0.0
H1321 H 0.27758 0.37596 0.97169 0.0
H1322 H 0.29299 0.28647 0.93725 0.0
H1323 H 0.32177 0.30487 0.93981 0.0
H1324 H 0.3116 0.29339 0.96564 0.0
H1325 H 0.26947 0.37999 0.93169 0.0
H1326 H 0.28856 0.37111 0.91322 0.0
H1327 H 0.25996 0.35255 0.91154 0.0
H1328 H 0.32426 0.3317 0.86695 0.0
H1329 H 0.25476 0.28874 0.86247 0.0
H1330 H 0.33811 0.34307 0.92966 0.0
H1331 H 0.32791 0.36623 0.92072 0.0
H1332 H 0.34571 0.35431 0.90283 0.0
H1333 H 0.25436 0.29008 0.92456 0.0
H1334 H 0.23614 0.28419 0.89602 0.0
H1335 H 0.24255 0.31204 0.91507 0.0
C1336 C 0.98135 0.04308 0.35093 0.0
C1337 C 0.95751 0.0329 0.34548 0.0
C1338 C 0.99317 0.04371 0.37375 0.0
C1339 C 0.98086 0.03379 0.39142 0.0
C1340 C 0.95694 0.02284 0.38571 0.0
C1341 C 0.94558 0.0226 0.3629 0.0
C1342 C 0.01867 0.05563 0.3792 0.0
C1343 C 0.94316 0.01197 0.40397 0.0
C1344 C 0.0101 0.02083 0.44854 0.0
C1345 C 0.00929 0.03952 0.46534 0.0
C1346 C 1.00163 0.01906 0.42417 0.0
C1347 C 0.99239 0.03652 0.41648 0.0
C1348 C 0.99247 0.0559 0.43325 0.0
C1349 C 1.0008 0.05709 0.45741 0.0
C1350 C 1.00176 0.99811 0.40681 0.0
C1351 C 0.98301 0.07504 0.42585 0.0
H1352 H 0.99071 0.051 0.33755 0.0
H1353 H 0.9272 0.01446 0.35881 0.0
H1354 H 0.02217 0.07157 0.39272 0.0
H1355 H 0.02765 0.04398 0.38698 0.0
H1356 H 0.02604 0.06075 0.36303 0.0
H1357 H 0.92502 1.00267 0.39619 0.0
H1358 H 0.95092 0.99942 0.41171 0.0
H1359 H 0.94338 0.02577 0.41886 0.0
H1360 H 0.01671 0.00724 0.45453 0.0
H1361 H 1.00046 0.07184 0.47018 0.0
H1362 H 0.00958 1.00378 0.39108 0.0
H1363 H 0.98387 0.98716 0.40012 0.0
H1364 H 0.01131 0.98716 0.41515 0.0
H1365 H 0.99101 0.08194 0.41068 0.0
H1366 H 0.98597 0.08979 0.44072 0.0
H1367 H 0.96428 0.06784 0.41965 0.0
C1368 C 0.30282 0.69781 0.62073 0.0
C1369 C 0.3222 0.70659 0.60994 0.0
C1370 C 0.30053 0.70863 0.64309 0.0
C1371 C 0.31812 0.72865 0.65502 0.0
C1372 C 0.33828 0.73691 0.64486 0.0
C1373 C 0.34008 0.72577 0.62235 0.0
C1374 C 0.27881 0.69926 0.65344 0.0
C1375 C 0.35749 0.75807 0.65727 0.0
C1376 C 0.29889 0.77024 0.69754 0.0
C1377 C 0.30449 0.76357 0.71958 0.0
C1378 C 0.30378 0.75938 0.67641 0.0
C1379 C 0.31469 0.7416 0.67745 0.0
C1380 C 0.32096 0.73524 0.69972 0.0
C1381 C 0.3157 0.74625 0.72052 0.0
C1382 C 0.29672 0.76648 0.6529 0.0
C1383 C 0.33277 0.71649 0.70152 0.0
H1384 H 0.28898 0.68288 0.61134 0.0
H1385 H 0.35513 0.7326 0.61415 0.0
H1386 H 0.28301 0.69597 0.67188 0.0
H1387 H 0.26928 0.71244 0.65452 0.0
H1388 H 0.26735 0.68277 0.64252 0.0
H1389 H 0.37285 0.76094 0.64809 0.0
H1390 H 0.35152 0.77386 0.65779 0.0
H1391 H 0.36254 0.75618 0.67606 0.0
H1392 H 0.29028 0.78364 0.69671 0.0
H1393 H 0.32033 0.74117 0.73754 0.0
H1394 H 0.28378 0.75141 0.64126 0.0
H1395 H 0.31171 0.77158 0.64338 0.0
H1396 H 0.28929 0.78129 0.65528 0.0
H1397 H 0.32118 0.69942 0.69203 0.0
H1398 H 0.33784 0.7147 0.72036 0.0
H1399 H 0.34833 0.72045 0.6927 0.0
C1400 C 0.65797 0.07932 0.84583 0.0
C1401 C 0.65181 0.0574 0.83121 0.0
C1402 C 0.64421 0.08441 0.86253 0.0
C1403 C 0.62406 0.06702 0.86487 0.0
C1404 C 0.61826 0.04456 0.85086 0.0
C1405 C 0.63213 0.04007 0.83403 0.0
C1406 C 0.65077 0.10862 0.87701 0.0
C1407 C 0.59713 0.02543 0.85327 0.0
C1408 C 0.59595 0.0723 0.92026 0.0
C1409 C 0.57698 0.07925 0.91162 0.0
C1410 C 0.61174 0.06873 0.90538 0.0
C1411 C 0.60856 0.07244 0.88138 0.0
C1412 C 0.58988 0.08025 0.87279 0.0
C1413 C 0.57415 0.08337 0.888 0.0
C1414 C 0.63133 0.06019 0.9151 0.0
C1415 C 0.5862 0.08475 0.84737 0.0
H1416 H 0.67311 0.09283 0.84361 0.0
H1417 H 0.62738 0.02307 0.82285 0.0
H1418 H 0.63737 0.11717 0.8724 0.0
H1419 H 0.65177 0.1076 0.89638 0.0
H1420 H 0.66749 0.11984 0.87377 0.0
H1421 H 0.5958 0.00854 0.84206 0.0
H1422 H 0.5973 0.02276 0.8722 0.0
H1423 H 0.58155 0.03061 0.84789 0.0
H1424 H 0.59797 0.06877 0.93845 0.0
H1425 H 0.55953 0.08885 0.88141 0.0
H1426 H 0.64795 0.07257 0.91328 0.0
H1427 H 0.6302 0.04305 0.90461 0.0
H1428 H 0.63135 0.05822 0.93423 0.0
H1429 H 0.60201 0.09691 0.84331 0.0
H1430 H 0.57177 0.09229 0.84401 0.0
H1431 H 0.58249 0.06815 0.83478 0.0
C1432 C 0.2952 0.36014 0.12079 0.0
C1433 C 0.27379 0.35854 0.10796 0.0
C1434 C 0.29688 0.35204 0.14284 0.0
C1435 C 0.27666 0.34204 0.15229 0.0
C1436 C 0.255 0.34017 0.13932 0.0
C1437 C 0.25383 0.34845 0.11735 0.0
C1438 C 0.32029 0.35435 0.15612 0.0
C1439 C 0.23305 0.32953 0.14871 0.0
C1440 C 0.27923 0.30179 0.19828 0.0
C1441 C 0.28059 0.31652 0.21982 0.0
C1442 C 0.27798 0.30988 0.17624 0.0
C1443 C 0.27814 0.33332 0.17563 0.0
C1444 C 0.27953 0.34831 0.19729 0.0
C1445 C 0.28072 0.33974 0.21912 0.0
C1446 C 0.27645 0.29331 0.15357 0.0
C1447 C 0.27977 0.37342 0.19741 0.0
H1448 H 0.31073 0.36797 0.11375 0.0
H1449 H 0.2372 0.34715 0.10762 0.0
H1450 H 0.32285 0.3651 0.17401 0.0
H1451 H 0.32161 0.33688 0.159 0.0
H1452 H 0.33434 0.36253 0.14636 0.0
H1453 H 0.21757 0.32925 0.13641 0.0
H1454 H 0.23189 0.31135 0.15141 0.0
H1455 H 0.23299 0.33955 0.16637 0.0
H1456 H 0.27911 0.28382 0.19858 0.0
H1457 H 0.28181 0.35128 0.23564 0.0
H1458 H 0.29106 0.30037 0.14409 0.0
H1459 H 0.26049 0.29162 0.14134 0.0
H1460 H 0.27655 0.27562 0.15709 0.0
H1461 H 0.29446 0.38277 0.18914 0.0
H1462 H 0.28108 0.38286 0.21576 0.0
H1463 H 0.2639 0.37411 0.18652 0.0
C1464 C 0.26412 0.01674 0.02625 0.0
C1465 C 0.25589 0.99338 0.02958 0.0
C1466 C 0.25088 0.03216 0.02965 0.0
C1467 C 0.22899 0.02393 0.03651 0.0
C1468 C 0.22063 1.00039 0.03992 0.0
C1469 C 0.23417 0.98542 0.0364 0.0
C1470 C 0.26023 0.05715 0.02582 0.0
C1471 C 0.19731 0.99094 0.04721 0.0
C1472 C 0.19686 0.06147 0.06675 0.0
C1473 C 0.17933 0.05992 0.04812 0.0
C1474 C 0.21441 0.05136 0.06282 0.0
C1475 C 0.21428 0.0395 0.03973 0.0
C1476 C 0.19769 0.03965 0.02047 0.0
C1477 C 0.18039 0.04989 0.02491 0.0
C1478 C 0.23194 0.0517 0.08376 0.0
C1479 C 0.19706 0.02734 0.99556 0.0
H1480 H 0.28091 0.023 0.021 0.0
H1481 H 0.22768 0.96741 0.03904 0.0
H1482 H 0.2487 0.06095 0.01145 0.0
H1483 H 0.2608 0.06927 0.04233 0.0
H1484 H 0.27773 0.06089 0.02085 0.0
H1485 H 0.19351 0.97227 0.0494 0.0
H1486 H 0.19627 1.00124 0.06435 0.0
H1487 H 0.18378 0.99266 0.03354 0.0
H1488 H 0.19605 0.06922 0.08471 0.0
H1489 H 0.16705 0.04911 0.01039 0.0
H1490 H 0.2494 0.05581 0.07874 0.0
H1491 H 0.22801 0.03413 0.08918 0.0
H1492 H 0.23196 0.06464 0.09942 0.0
H1493 H 0.21444 0.0317 0.99035 0.0
H1494 H 0.18528 0.03197 0.98204 0.0
H1495 H 0.19111 0.00815 0.99518 0.0
C1496 C 0.69151 0.66388 0.03774 0.0
C1497 C 0.70776 0.66058 0.02329 0.0
C1498 C 0.67094 0.64626 0.03711 0.0
C1499 C 0.66632 0.62488 0.02139 0.0
C1500 C 0.6826 0.6214 0.00668 0.0
C1501 C 0.70324 0.63927 0.00792 0.0
C1502 C 0.65411 0.65059 0.05325 0.0
C1503 C 0.67808 0.59895 0.98947 0.0
C1504 C 0.6197 0.57487 0.03642 0.0
C1505 C 0.60023 0.57684 0.02249 0.0
C1506 C 0.64161 0.58972 0.03546 0.0
C1507 C 0.64402 0.60664 0.01998 0.0
C1508 C 0.62457 0.60767 0.00483 0.0
C1509 C 0.6029 0.59288 0.00639 0.0
C1510 C 0.66194 0.58824 0.05204 0.0
C1511 C 0.62643 0.62523 0.98783 0.0
H1512 H 0.69495 0.68022 0.04982 0.0
H1513 H 0.71573 0.63663 0.99668 0.0
H1514 H 0.63775 0.64991 0.0423 0.0
H1515 H 0.65018 0.63671 0.06457 0.0
H1516 H 0.6607 0.66783 0.0651 0.0
H1517 H 0.69267 0.59882 0.97958 0.0
H1518 H 0.67474 0.58384 0.99925 0.0
H1519 H 0.6625 0.59642 0.97632 0.0
H1520 H 0.61771 0.56253 0.04891 0.0
H1521 H 0.58792 0.59429 0.99536 0.0
H1522 H 0.66807 0.60412 0.06589 0.0
H1523 H 0.67633 0.58762 0.04205 0.0
H1524 H 0.65764 0.57265 0.06113 0.0
H1525 H 0.63073 0.6431 0.99818 0.0
H1526 H 0.61021 0.62196 0.97537 0.0
H1527 H 0.64043 0.62483 0.97719 0.0
C1528 C 0.67707 0.48143 0.28629 0.0
C1529 C 0.67425 0.49543 0.26893 0.0
C1530 C 0.69006 0.46571 0.28329 0.0
C1531 C 0.70039 0.46388 0.2624 0.0
C1532 C 0.69744 0.47781 0.24474 0.0
C1533 C 0.68445 0.49343 0.24823 0.0
C1534 C 0.69287 0.45118 0.30255 0.0
C1535 C 0.70811 0.47628 0.22218 0.0
C1536 C 0.7515 0.43986 0.26391 0.0
C1537 C 0.74128 0.41669 0.25256 0.0
C1538 C 0.73837 0.45538 0.26731 0.0
C1539 C 0.71447 0.44756 0.25909 0.0
C1540 C 0.70406 0.42422 0.24753 0.0
C1541 C 0.71759 0.40906 0.24444 0.0
C1542 C 0.75007 0.4801 0.27982 0.0
C1543 C 0.67865 0.41527 0.23839 0.0
H1544 H 0.66927 0.48287 0.30234 0.0
H1545 H 0.68233 0.50412 0.23469 0.0
H1546 H 0.68638 0.43232 0.29492 0.0
H1547 H 0.71133 0.45498 0.30965 0.0
H1548 H 0.68362 0.45456 0.31764 0.0
H1549 H 0.70389 0.48805 0.21002 0.0
H1550 H 0.72703 0.48095 0.22679 0.0
H1551 H 0.70209 0.45808 0.21242 0.0
H1552 H 0.76974 0.44575 0.27054 0.0
H1553 H 0.70964 0.39124 0.23543 0.0
H1554 H 0.74236 0.48369 0.29605 0.0
H1555 H 0.74743 0.49267 0.26792 0.0
H1556 H 0.7688 0.48342 0.28518 0.0
H1557 H 0.66881 0.41721 0.25332 0.0
H1558 H 0.67319 0.39661 0.22992 0.0
H1559 H 0.67402 0.42581 0.22507 0.0
C1560 C 0.86965 0.47516 0.55771 0.0
C1561 C 0.85591 0.46599 0.53539 0.0
C1562 C 0.89344 0.48507 0.55944 0.0
C1563 C 0.90363 0.48561 0.53835 0.0
C1564 C 0.88989 0.47607 0.51581 0.0
C1565 C 0.86618 0.46646 0.5146 0.0
C1566 C 0.9076 0.4953 0.58374 0.0
C1567 C 0.90019 0.47623 0.49293 0.0
C1568 C 0.95956 0.53103 0.53601 0.0
C1569 C 0.97517 0.51792 0.53727 0.0
C1570 C 0.93635 0.52091 0.53724 0.0
C1571 C 0.92853 0.49703 0.53957 0.0
C1572 C 0.94428 0.48384 0.54152 0.0
C1573 C 0.9675 0.4945 0.54047 0.0
C1574 C 0.92008 0.5356 0.53534 0.0
C1575 C 0.93647 0.45829 0.54389 0.0
H1576 H 0.8618 0.47483 0.57384 0.0
H1577 H 0.85569 0.45925 0.49729 0.0
H1578 H 0.92154 0.4871 0.5868 0.0
H1579 H 0.91584 0.51429 0.58453 0.0
H1580 H 0.89715 0.49284 0.59845 0.0
H1581 H 0.88724 0.46723 0.47696 0.0
H1582 H 0.90817 0.49451 0.49045 0.0
H1583 H 0.91394 0.46754 0.49397 0.0
H1584 H 0.96542 0.54924 0.53384 0.0
H1585 H 0.97951 0.48431 0.54148 0.0
H1586 H 0.91012 0.53444 0.55046 0.0
H1587 H 0.90763 0.52885 0.5186 0.0
H1588 H 0.92918 0.55428 0.53529 0.0
H1589 H 0.92665 0.4558 0.55905 0.0
H1590 H 0.95107 0.4509 0.54674 0.0
H1591 H 0.92481 0.4482 0.52744 0.0
C1592 C 0.36193 0.08793 0.24784 0.0
C1593 C 0.35638 0.07871 0.26859 0.0
C1594 C 0.34991 0.10207 0.2379 0.0
C1595 C 0.33216 0.10733 0.24919 0.0
C1596 C 0.32616 0.09768 0.26985 0.0
C1597 C 0.33826 0.08336 0.27922 0.0
C1598 C 0.35656 0.11184 0.2157 0.0
C1599 C 0.30746 0.10312 0.28254 0.0
C1600 C 0.31774 0.16372 0.24472 0.0
C1601 C 0.2964 0.1558 0.2299 0.0
C1602 C 0.33012 0.14826 0.25016 0.0
C1603 C 0.32089 0.12424 0.24058 0.0
C1604 C 0.29996 0.11629 0.22455 0.0
C1605 C 0.28785 0.1322 0.21949 0.0
C1606 C 0.35234 0.15744 0.26741 0.0
C1607 C 0.28981 0.09084 0.21372 0.0
H1608 H 0.37579 0.08421 0.23941 0.0
H1609 H 0.33389 0.07627 0.29524 0.0
H1610 H 0.34119 0.10809 0.20192 0.0
H1611 H 0.36388 0.13112 0.22004 0.0
H1612 H 0.36941 0.10451 0.20796 0.0
H1613 H 0.3043 0.09349 0.29783 0.0
H1614 H 0.31226 0.12214 0.28934 0.0
H1615 H 0.29122 0.09859 0.26987 0.0
H1616 H 0.32414 0.18183 0.2533 0.0
H1617 H 0.27138 0.12607 0.20798 0.0
H1618 H 0.36606 0.15138 0.26007 0.0
H1619 H 0.34999 0.15055 0.28443 0.0
H1620 H 0.35819 0.17685 0.27142 0.0
H1621 H 0.30297 0.08395 0.20615 0.0
H1622 H 0.27502 0.08801 0.19941 0.0
H1623 H 0.28387 0.08051 0.22784 0.0
C1624 C 0.32353 0.14316 0.53268 0.0
C1625 C 0.33204 0.16707 0.54206 0.0
C1626 C 0.33723 0.12818 0.53518 0.0
C1627 C 0.36001 0.1373 0.54735 0.0
C1628 C 0.3687 0.16139 0.55692 0.0
C1629 C 0.35461 0.17599 0.55417 0.0
C1630 C 0.32735 0.10259 0.52471 0.0
C1631 C 0.39292 0.17176 0.56999 0.0
C1632 C 0.38907 0.09496 0.57162 0.0
C1633 C 0.40265 0.09166 0.55404 0.0
C1634 C 0.37517 0.10984 0.56973 0.0
C1635 C 0.37482 0.12167 0.54977 0.0
C1636 C 0.38847 0.11838 0.53195 0.0
C1637 C 0.40219 0.10342 0.53429 0.0
C1638 C 0.36089 0.11296 0.58912 0.0
C1639 C 0.38848 0.13058 0.51034 0.0
H1640 H 0.30611 0.13609 0.52331 0.0
H1641 H 0.36134 0.19443 0.56149 0.0
H1642 H 0.33771 0.09772 0.5113 0.0
H1643 H 0.32812 0.09172 0.53896 0.0
H1644 H 0.30926 0.09821 0.51596 0.0
H1645 H 0.39699 0.19077 0.57663 0.0
H1646 H 0.39553 0.16273 0.58542 0.0
H1647 H 0.40529 0.1691 0.55793 0.0
H1648 H 0.38955 0.08614 0.58705 0.0
H1649 H 0.41238 0.10068 0.52046 0.0
H1650 H 0.34247 0.10764 0.58133 0.0
H1651 H 0.36564 0.13166 0.59721 0.0
H1652 H 0.36312 0.10254 0.6035 0.0
H1653 H 0.37091 0.1255 0.5001 0.0
H1654 H 0.40025 0.12633 0.49822 0.0
H1655 H 0.39373 0.14979 0.5161 0.0
C1656 C 0.66979 0.6313 0.32147 0.0
C1657 C 0.67192 0.61071 0.30891 0.0
C1658 C 0.68556 0.65306 0.32102 0.0
C1659 C 0.70372 0.65423 0.30747 0.0
C1660 C 0.70642 0.63343 0.29544 0.0
C1661 C 0.69054 0.61189 0.2964 0.0
C1662 C 0.68228 0.67487 0.3343 0.0
C1663 C 0.72544 0.63398 0.28063 0.0
C1664 C 0.72503 0.71018 0.28222 0.0
C1665 C 0.74563 0.72163 0.29761 0.0
C1666 C 0.71146 0.68814 0.28509 0.0
C1667 C 0.71851 0.67732 0.30402 0.0
C1668 C 0.73939 0.68864 0.31954 0.0
C1669 C 0.75282 0.71066 0.31605 0.0
C1670 C 0.68947 0.6765 0.26795 0.0
C1671 C 0.7473 0.67769 0.34004 0.0
H1672 H 0.65557 0.6305 0.33137 0.0
H1673 H 0.69235 0.59605 0.28667 0.0
H1674 H 0.69856 0.68569 0.34559 0.0
H1675 H 0.67741 0.68558 0.3213 0.0
H1676 H 0.66873 0.67081 0.34587 0.0
H1677 H 0.7263 0.61619 0.274 0.0
H1678 H 0.72266 0.64271 0.26499 0.0
H1679 H 0.74224 0.64429 0.29124 0.0
H1680 H 0.71944 0.71846 0.26779 0.0
H1681 H 0.76866 0.71948 0.32808 0.0
H1682 H 0.67462 0.67376 0.27786 0.0
H1683 H 0.68963 0.65904 0.25929 0.0
H1684 H 0.68679 0.68698 0.25376 0.0
H1685 H 0.73445 0.67515 0.35247 0.0
H1686 H 0.76415 0.68856 0.35023 0.0
H1687 H 0.74871 0.66018 0.33326 0.0
C1688 C 0.90622 0.46562 0.77648 0.0
C1689 C 0.89782 0.48435 0.78363 0.0
C1690 C 0.89229 0.44245 0.77398 0.0
C1691 C 0.86935 0.438 0.77836 0.0
C1692 C 0.86053 0.45686 0.78472 0.0
C1693 C 0.87495 0.47984 0.78749 0.0
C1694 C 0.90235 0.42275 0.76746 0.0
C1695 C 0.83602 0.45277 0.78913 0.0
C1696 C 0.82805 0.37755 0.75551 0.0
C1697 C 0.82741 0.3675 0.77644 0.0
C1698 C 0.84154 0.40058 0.75585 0.0
C1699 C 0.85493 0.41364 0.77756 0.0
C1700 C 0.85452 0.40349 0.79868 0.0
C1701 C 0.8406 0.38059 0.7979 0.0
C1702 C 0.8413 0.41099 0.73308 0.0
C1703 C 0.86885 0.41678 0.82209 0.0
H1704 H 0.92392 0.46903 0.77355 0.0
H1705 H 0.86833 0.49429 0.7928 0.0
H1706 H 0.90238 0.4125 0.78235 0.0
H1707 H 0.89167 0.41064 0.75149 0.0
H1708 H 0.9202 0.42916 0.76368 0.0
H1709 H 0.83137 0.46932 0.79224 0.0
H1710 H 0.82409 0.44107 0.77364 0.0
H1711 H 0.83341 0.44393 0.805 0.0
H1712 H 0.81779 0.36751 0.7389 0.0
H1713 H 0.84028 0.37284 0.8141 0.0
H1714 H 0.85889 0.4165 0.7285 0.0
H1715 H 0.83548 0.42685 0.7357 0.0
H1716 H 0.82986 0.39852 0.71772 0.0
H1717 H 0.88722 0.42254 0.81994 0.0
H1718 H 0.86699 0.40614 0.83674 0.0
H1719 H 0.86378 0.43273 0.82748 0.0
C1720 C 0.07832 0.8909 0.07154 0.0
C1721 C 0.06337 0.87598 0.08385 0.0
C1722 C 0.07373 0.91098 0.06425 0.0
C1723 C 0.05381 0.91691 0.06963 0.0
C1724 C 0.03851 0.90182 0.08187 0.0
C1725 C 0.04334 0.88157 0.0886 0.0
C1726 C 0.09044 0.92603 0.05094 0.0
C1727 C 0.01725 0.90739 0.0884 0.0
C1728 C 0.05543 0.98159 0.07205 0.0
C1729 C 0.04229 0.98157 0.05015 0.0
C1730 C 0.05892 0.96081 0.0787 0.0
C1731 C 0.04943 0.93916 0.06302 0.0
C1732 C 0.03626 0.93904 0.04083 0.0
C1733 C 0.0327 0.96004 0.0348 0.0
C1734 C 0.0728 0.96205 0.10266 0.0
C1735 C 0.02609 0.91668 0.02324 0.0
H1736 H 0.09383 0.88693 0.0676 0.0
H1737 H 0.03167 0.87044 0.09821 0.0
H1738 H 0.08133 0.92825 0.03385 0.0
H1739 H 0.09816 0.94369 0.06169 0.0
H1740 H 0.10447 0.91851 0.04696 0.0
H1741 H 1.00683 0.89386 0.09751 0.0
H1742 H 0.02217 0.92449 0.10041 0.0
H1743 H 1.00645 0.90897 0.07212 0.0
H1744 H 0.06286 0.99791 0.08426 0.0
H1745 H 0.02257 0.9596 0.01782 0.0
H1746 H 0.08829 0.95655 0.10007 0.0
H1747 H 0.06258 0.94981 0.11315 0.0
H1748 H 0.0783 0.97992 0.11326 0.0
H1749 H 0.03994 0.90939 0.01815 0.0
H1750 H 0.0163 0.91934 0.00675 0.0
H1751 H 0.01446 0.90345 0.03164 0.0
C1752 C 0.91535 0.24815 0.88477 0.0
C1753 C 0.93217 0.26637 0.90014 0.0
C1754 C 0.89679 0.25231 0.87094 0.0
C1755 C 0.89491 0.27532 0.87222 0.0
C1756 C 0.91159 0.29374 0.88802 0.0
C1757 C 0.9299 0.28906 0.90179 0.0
C1758 C 0.8794 0.23208 0.85454 0.0
C1759 C 0.91041 0.31855 0.88996 0.0
C1760 C 0.86196 0.28914 0.81761 0.0
C1761 C 0.84059 0.28829 0.82477 0.0
C1762 C 0.87972 0.28527 0.83293 0.0
C1763 C 0.87621 0.28024 0.85612 0.0
C1764 C 0.85476 0.27953 0.86358 0.0
C1765 C 0.83729 0.2836 0.8479 0.0
C1766 C 0.90229 0.28644 0.82419 0.0
C1767 C 0.85014 0.27418 0.88807 0.0
H1768 H 0.91676 0.23053 0.88334 0.0
H1769 H 0.94272 0.30332 0.91355 0.0
H1770 H 0.86184 0.2312 0.85828 0.0
H1771 H 0.87994 0.23473 0.83567 0.0
H1772 H 0.88252 0.21506 0.8565 0.0
H1773 H 0.92402 0.33074 0.90383 0.0
H1774 H 0.91225 0.32467 0.8725 0.0
H1775 H 0.89346 0.31937 0.89431 0.0
H1776 H 0.86488 0.29283 0.7999 0.0
H1777 H 0.82094 0.28291 0.85375 0.0
H1778 H 0.90571 0.26929 0.82391 0.0
H1779 H 0.91651 0.29955 0.83662 0.0
H1780 H 0.90257 0.29115 0.80596 0.0
H1781 H 0.85134 0.25642 0.88981 0.0
H1782 H 0.83292 0.27506 0.89154 0.0
H1783 H 0.8633 0.28669 0.90208 0.0
C1784 C 0.56021 0.22713 0.59179 0.0
C1785 C 0.5464 0.23699 0.5775 0.0
C1786 C 0.55846 0.20304 0.58718 0.0
C1787 C 0.54249 0.18814 0.56779 0.0
C1788 C 0.52867 0.19804 0.55319 0.0
C1789 C 0.53078 0.22215 0.55818 0.0
C1790 C 0.57361 0.19347 0.60327 0.0
C1791 C 0.51141 0.18306 0.53232 0.0
C1792 C 0.55052 0.12931 0.54217 0.0
C1793 C 0.53479 0.11313 0.55253 0.0
C1794 C 0.55335 0.15359 0.54713 0.0
C1795 C 0.5401 0.16225 0.56282 0.0
C1796 C 0.52424 0.14602 0.57339 0.0
C1797 C 0.52181 0.12183 0.56819 0.0
C1798 C 0.57047 0.17003 0.53538 0.0
C1799 C 0.5096 0.15419 0.5901 0.0
H1800 H 0.57233 0.23822 0.60679 0.0
H1801 H 0.51993 0.22935 0.54695 0.0
H1802 H 0.56287 0.17987 0.61203 0.0
H1803 H 0.58397 0.18498 0.59253 0.0
H1804 H 0.58541 0.20726 0.61736 0.0
H1805 H 0.50212 0.19333 0.52247 0.0
H1806 H 0.52016 0.17437 0.51967 0.0
H1807 H 0.49868 0.16906 0.53874 0.0
H1808 H 0.56069 0.123 0.53005 0.0
H1809 H 0.50949 0.10969 0.57628 0.0
H1810 H 0.58316 0.18328 0.54921 0.0
H1811 H 0.56155 0.17957 0.52411 0.0
H1812 H 0.57981 0.16073 0.52402 0.0
H1813 H 0.52068 0.16696 0.60542 0.0
H1814 H 0.49827 0.13953 0.59713 0.0
H1815 H 0.49875 0.16329 0.58064 0.0
C1816 C 0.55082 0.78293 0.39229 0.0
C1817 C 0.55317 0.77305 0.41313 0.0
C1818 C 0.56797 0.78622 0.37743 0.0
C1819 C 0.58784 0.77919 0.38334 0.0
C1820 C 0.59005 0.76876 0.40409 0.0
C1821 C 0.57281 0.76596 0.41876 0.0
C1822 C 0.56502 0.79762 0.35562 0.0
C1823 C 0.61075 0.76072 0.41094 0.0
C1824 C 0.62442 0.76968 0.33518 0.0
C1825 C 0.64311 0.79008 0.34076 0.0
C1826 C 0.60627 0.76597 0.34874 0.0
C1827 C 0.6066 0.78317 0.36821 0.0
C1828 C 0.62526 0.80395 0.37369 0.0
C1829 C 0.6433 0.80708 0.36002 0.0
C1830 C 0.58691 0.74343 0.34246 0.0
C1831 C 0.62622 0.82288 0.39408 0.0
H1832 H 0.53578 0.78855 0.38781 0.0
H1833 H 0.57478 0.75817 0.43472 0.0
H1834 H 0.57921 0.81404 0.35713 0.0
H1835 H 0.5659 0.78596 0.33934 0.0
H1836 H 0.54845 0.80177 0.35325 0.0
H1837 H 0.60949 0.75211 0.4271 0.0
H1838 H 0.61282 0.74825 0.39595 0.0
H1839 H 0.62648 0.77587 0.4145 0.0
H1840 H 0.62423 0.75636 0.32048 0.0
H1841 H 0.65751 0.82302 0.36427 0.0
H1842 H 0.57028 0.74722 0.33887 0.0
H1843 H 0.58608 0.73372 0.35782 0.0
H1844 H 0.58895 0.732 0.32655 0.0
H1845 H 0.61055 0.82862 0.39168 0.0
H1846 H 0.64147 0.83835 0.3955 0.0
H1847 H 0.62671 0.81593 0.41122 0.0
C1848 C 0.0489 0.28516 0.4424 0.0
C1849 C 0.04694 0.28138 0.41735 0.0
C1850 C 0.04521 0.26639 0.45537 0.0
C1851 C 0.03977 0.24318 0.44311 0.0
C1852 C 0.03772 0.23923 0.41781 0.0
C1853 C 0.04114 0.25832 0.40524 0.0
C1854 C 0.04725 0.27143 0.48227 0.0
C1855 C 0.03223 0.21483 0.40404 0.0
C1856 C 0.05274 0.19794 0.47937 0.0
C1857 C 0.03102 0.18644 0.48453 0.0
C1858 C 0.05575 0.21608 0.46557 0.0
C1859 C 0.03661 0.22316 0.45685 0.0
C1860 C 0.01459 0.21148 0.46183 0.0
C1861 C 0.01205 0.19323 0.47547 0.0
C1862 C 0.07947 0.22779 0.46046 0.0
C1863 C 0.99377 0.2186 0.45313 0.0
H1864 H 0.05322 0.30286 0.45194 0.0
H1865 H 0.03966 0.25519 0.38591 0.0
H1866 H 0.03114 0.26169 0.4881 0.0
H1867 H 0.06125 0.26534 0.49069 0.0
H1868 H 0.05082 0.29034 0.48907 0.0
H1869 H 0.03109 0.21464 0.38443 0.0
H1870 H 0.04565 0.20673 0.40991 0.0
H1871 H 0.0157 0.20375 0.40782 0.0
H1872 H 0.06745 0.19262 0.48602 0.0
H1873 H 0.99524 0.18462 0.47956 0.0
H1874 H 0.08488 0.24657 0.46841 0.0
H1875 H 0.07934 0.22685 0.44088 0.0
H1876 H 0.09241 0.21968 0.46774 0.0
H1877 H 0.99613 0.23705 0.46089 0.0
H1878 H 0.97778 0.20747 0.45805 0.0
H1879 H 0.99165 0.21751 0.4334 0.0
C1880 C 0.60555 0.25447 0.20668 0.0
C1881 C 0.59212 0.26454 0.22063 0.0
C1882 C 0.62895 0.25742 0.21451 0.0
C1883 C 0.63983 0.27111 0.23694 0.0
C1884 C 0.62638 0.28116 0.25136 0.0
C1885 C 0.60273 0.27764 0.24316 0.0
C1886 C 0.64212 0.24598 0.19849 0.0
C1887 C 0.63714 0.29608 0.27527 0.0
C1888 C 0.69691 0.26202 0.26297 0.0
C1889 C 0.71341 0.27984 0.25532 0.0
C1890 C 0.67312 0.25934 0.25771 0.0
C1891 C 0.66528 0.27504 0.24473 0.0
C1892 C 0.68191 0.29344 0.23753 0.0
C1893 C 0.70555 0.29548 0.24269 0.0
C1894 C 0.65628 0.23927 0.26555 0.0
C1895 C 0.6747 0.31086 0.22396 0.0
H1896 H 0.59773 0.24412 0.18933 0.0
H1897 H 0.59273 0.28563 0.25412 0.0
H1898 H 0.65614 0.25955 0.19319 0.0
H1899 H 0.65017 0.23474 0.20828 0.0
H1900 H 0.63105 0.23511 0.18201 0.0
H1901 H 0.62446 0.30222 0.28468 0.0
H1902 H 0.64519 0.2861 0.28683 0.0
H1903 H 0.65095 0.31154 0.27274 0.0
H1904 H 0.70256 0.24981 0.27277 0.0
H1905 H 0.71793 0.30952 0.23685 0.0
H1906 H 0.64554 0.22716 0.2496 0.0
H1907 H 0.64457 0.24583 0.2761 0.0
H1908 H 0.66496 0.22928 0.27652 0.0
H1909 H 0.6652 0.3019 0.20607 0.0
H1910 H 0.6896 0.32536 0.22154 0.0
H1911 H 0.66294 0.31837 0.23351 0.0
C1912 C 0.56652 0.89675 0.91706 0.0
C1913 C 0.5463 0.87803 0.91067 0.0
C1914 C 0.56699 0.91739 0.93214 0.0
C1915 C 0.54669 0.91953 0.94074 0.0
C1916 C 0.52619 0.90082 0.93393 0.0
C1917 C 0.5263 0.88039 0.91921 0.0
C1918 C 0.58925 0.9368 0.93914 0.0
C1919 C 0.50405 0.90231 0.94228 0.0
C1920 C 0.54776 0.96092 0.99759 0.0
C1921 C 0.54227 0.97963 0.98844 0.0
C1922 C 0.55013 0.94176 0.98234 0.0
C1923 C 0.54668 0.94099 0.9572 0.0
C1924 C 0.54147 0.95998 0.94786 0.0
C1925 C 0.53945 0.97905 0.96354 0.0
C1926 C 0.55589 0.92207 0.99316 0.0
C1927 C 0.53737 0.95985 0.92123 0.0
H1928 H 0.58206 0.89514 0.91062 0.0
H1929 H 0.51048 0.8662 0.91425 0.0
H1930 H 0.58711 0.95323 0.93379 0.0
H1931 H 0.59417 0.94009 0.95887 0.0
H1932 H 0.60346 0.93264 0.9308 0.0
H1933 H 0.48941 0.88657 0.93476 0.0
H1934 H 0.50604 0.90433 0.96208 0.0
H1935 H 0.49981 0.91791 0.93704 0.0
H1936 H 0.5502 0.96118 0.01676 0.0
H1937 H 0.53525 0.99336 0.9562 0.0
H1938 H 0.57091 0.91841 0.98614 0.0
H1939 H 0.54126 0.90589 0.98801 0.0
H1940 H 0.55976 0.92606 0.01299 0.0
H1941 H 0.55208 0.95687 0.91302 0.0
H1942 H 0.53478 0.97646 0.91681 0.0
H1943 H 0.52195 0.94525 0.91293 0.0
C1944 C 0.94439 0.78349 0.71562 0.0
C1945 C 0.9593 0.77238 0.72655 0.0
C1946 C 0.92462 0.78578 0.725 0.0
C1947 C 0.91895 0.77664 0.74604 0.0
C1948 C 0.9339 0.76544 0.75734 0.0
C1949 C 0.95384 0.76354 0.7476 0.0
C1950 C 0.90962 0.79798 0.71216 0.0
C1951 C 0.92866 0.75519 0.77962 0.0
C1952 C 0.87672 0.80171 0.77851 0.0
C1953 C 0.85531 0.78537 0.76913 0.0
C1954 C 0.89749 0.79872 0.77188 0.0
C1955 C 0.89724 0.77871 0.75564 0.0
C1956 C 0.87574 0.76171 0.74691 0.0
C1957 C 0.85523 0.76531 0.75353 0.0
C1958 C 0.91973 0.81748 0.78167 0.0
C1959 C 0.87425 0.73988 0.72997 0.0
H1960 H 0.94817 0.79059 0.69946 0.0
H1961 H 0.96497 0.75485 0.75631 0.0
H1962 H 0.89215 0.78574 0.70611 0.0
H1963 H 0.90791 0.81289 0.72454 0.0
H1964 H 0.91655 0.80465 0.69634 0.0
H1965 H 0.94213 0.74769 0.78681 0.0
H1966 H 0.92696 0.76881 0.79366 0.0
H1967 H 0.912 0.74122 0.77567 0.0
H1968 H 0.87723 0.81729 0.79053 0.0
H1969 H 0.83899 0.75233 0.74626 0.0
H1970 H 0.92684 0.82604 0.76688 0.0
H1971 H 0.93256 0.80967 0.78969 0.0
H1972 H 0.91747 0.83108 0.79542 0.0
H1973 H 0.87933 0.74462 0.71274 0.0
H1974 H 0.85668 0.72741 0.72636 0.0
H1975 H 0.88633 0.73092 0.73744 0.0
C1976 C 0.09368 0.02934 0.86623 0.0
C1977 C 0.11282 0.04853 0.86629 0.0
C1978 C 0.08235 0.02715 0.88635 0.0
C1979 C 0.08995 0.04493 0.9067 0.0
C1980 C 0.10893 0.06462 0.90656 0.0
C1981 C 0.12032 0.06601 0.88651 0.0
C1982 C 0.06254 0.00563 0.88603 0.0
C1983 C 0.11722 0.08425 0.92761 0.0
C1984 C 0.04889 0.05054 0.95089 0.0
C1985 C 0.05759 0.04156 0.97021 0.0
C1986 C 0.05916 0.05161 0.93005 0.0
C1987 C 0.07824 0.04296 0.92825 0.0
C1988 C 0.08669 0.03328 0.94747 0.0
C1989 C 0.07645 0.03296 0.96833 0.0
C1990 C 0.05 0.06263 0.91026 0.0
C1991 C 0.1067 0.02345 0.94609 0.0
H1992 H 0.08795 0.01571 0.8507 0.0
H1993 H 0.135 0.08098 0.88655 0.0
H1994 H 0.06639 0.99641 0.90094 0.0
H1995 H 0.04685 0.01068 0.88883 0.0
H1996 H 0.05888 0.9933 0.86893 0.0
H1997 H 0.13154 0.09883 0.92423 0.0
H1998 H 0.10291 0.09123 0.93179 0.0
H1999 H 0.12313 0.07759 0.94368 0.0
H2000 H 0.03444 0.0574 0.95233 0.0
H2001 H 0.08317 0.02589 0.98317 0.0
H2002 H 0.04506 0.05013 0.89324 0.0
H2003 H 0.06361 0.0781 0.90738 0.0
H2004 H 0.03486 0.06825 0.9143 0.0
H2005 H 0.10329 0.01024 0.92971 0.0
H2006 H 0.11023 0.01517 0.9619 0.0
H2007 H 0.12235 0.03758 0.94489 0.0
C2008 C 0.80448 0.35727 0.52962 0.0
C2009 C 0.79259 0.37323 0.53638 0.0
C2010 C 0.80875 0.34186 0.54484 0.0
C2011 C 0.80098 0.34258 0.56728 0.0
C2012 C 0.7879 0.35776 0.57361 0.0
C2013 C 0.78384 0.37289 0.55805 0.0
C2014 C 0.82254 0.32571 0.53744 0.0
C2015 C 0.7792 0.35892 0.59739 0.0
C2016 C 0.79854 0.29728 0.60796 0.0
C2017 C 0.81735 0.30904 0.62565 0.0
C2018 C 0.79383 0.3072 0.5877 0.0
C2019 C 0.80827 0.32932 0.58529 0.0
C2020 C 0.8283 0.34029 0.60213 0.0
C2021 C 0.83261 0.32997 0.62213 0.0
C2022 C 0.77246 0.29488 0.56993 0.0
C2023 C 0.84424 0.36382 0.60006 0.0
H2024 H 0.81115 0.35731 0.51278 0.0
H2025 H 0.77445 0.38502 0.56329 0.0
H2026 H 0.83989 0.33196 0.54826 0.0
H2027 H 0.81436 0.30779 0.54084 0.0
H2028 H 0.82449 0.32489 0.51823 0.0
H2029 H 0.76793 0.37045 0.59882 0.0
H2030 H 0.76948 0.3412 0.6001 0.0
H2031 H 0.79395 0.36568 0.6121 0.0
H2032 H 0.78667 0.28112 0.61071 0.0
H2033 H 0.84736 0.33885 0.63567 0.0
H2034 H 0.77597 0.2957 0.55133 0.0
H2035 H 0.75912 0.30375 0.5727 0.0
H2036 H 0.76544 0.27627 0.57197 0.0
H2037 H 0.84878 0.36387 0.58177 0.0
H2038 H 0.86029 0.3687 0.61312 0.0
H2039 H 0.83544 0.37744 0.60334 0.0
C2040 C 0.41308 0.03215 0.37759 0.0
C2041 C 0.41996 0.04834 0.3622 0.0
C2042 C 0.42672 0.0336 0.39946 0.0
C2043 C 0.4476 0.0518 0.40617 0.0
C2044 C 0.45405 0.06892 0.39133 0.0
C2045 C 0.44018 0.06694 0.36945 0.0
C2046 C 0.41928 0.01504 0.41489 0.0
C2047 C 0.47604 0.08878 0.39811 0.0
C2048 C 0.47398 0.06226 0.47131 0.0
C2049 C 0.49011 0.04972 0.47054 0.0
C2050 C 0.46051 0.06373 0.45039 0.0
C2051 C 0.46313 0.05223 0.42821 0.0
C2052 C 0.47986 0.04015 0.4272 0.0
C2053 C 0.49327 0.03913 0.44842 0.0
C2054 C 0.44306 0.07704 0.45213 0.0
C2055 C 0.48305 0.02761 0.4038 0.0
H2056 H 0.39749 0.01774 0.37213 0.0
H2057 H 0.44555 0.07959 0.3577 0.0
H2058 H 0.43184 0.00491 0.41619 0.0
H2059 H 0.41893 0.02325 0.4333 0.0
H2060 H 0.40205 1.00271 0.40767 0.0
H2061 H 0.47759 0.10171 0.38561 0.0
H2062 H 0.47704 0.09792 0.41649 0.0
H2063 H 0.49094 0.08175 0.39804 0.0
H2064 H 0.4716 0.0707 0.48836 0.0
H2065 H 0.50568 0.0294 0.44773 0.0
H2066 H 0.42551 0.06479 0.44671 0.0
H2067 H 0.44539 0.09001 0.4397 0.0
H2068 H 0.44426 0.08632 0.47053 0.0
H2069 H 0.46709 0.01343 0.39612 0.0
H2070 H 0.49744 0.01984 0.40595 0.0
H2071 H 0.48638 0.03985 0.3907 0.0
C2072 C 0.80919 0.75759 0.10977 0.0
C2073 C 0.79069 0.74357 0.09275 0.0
C2074 C 0.80595 0.7651 0.13314 0.0
C2075 C 0.78373 0.75828 0.13968 0.0
C2076 C 0.76487 0.74497 0.1223 0.0
C2077 C 0.76855 0.73787 0.09906 0.0
C2078 C 0.82649 0.7795 0.15111 0.0
C2079 C 0.74093 0.73717 0.12855 0.0
C2080 C 0.78109 0.75163 0.20472 0.0
C2081 C 0.77615 0.77203 0.21401 0.0
C2082 C 0.78321 0.74686 0.18054 0.0
C2083 C 0.7806 0.763 0.16518 0.0
C2084 C 0.77522 0.78346 0.1743 0.0
C2085 C 0.77291 0.78768 0.19862 0.0
C2086 C 0.78861 0.72465 0.1715 0.0
C2087 C 0.77251 0.80116 0.15852 0.0
H2088 H 0.82631 0.76223 0.10505 0.0
H2089 H 0.75409 0.72711 0.08605 0.0
H2090 H 0.82291 0.79508 0.1604 0.0
H2091 H 0.83008 0.76898 0.16491 0.0
H2092 H 0.84211 0.78538 0.14264 0.0
H2093 H 0.72784 0.72869 0.11255 0.0
H2094 H 0.74023 0.72452 0.14125 0.0
H2095 H 0.73637 0.75227 0.13758 0.0
H2096 H 0.78349 0.73938 0.21647 0.0
H2097 H 0.76933 0.80359 0.20574 0.0
H2098 H 0.80536 0.72899 0.16488 0.0
H2099 H 0.77542 0.71431 0.15625 0.0
H2100 H 0.78934 0.71355 0.18558 0.0
H2101 H 0.78887 0.80849 0.15182 0.0
H2102 H 0.76757 0.81578 0.16812 0.0
H2103 H 0.75929 0.79263 0.14268 0.0
C2104 C 0.09971 0.04258 0.71644 0.0
C2105 C 0.08995 0.0508 0.73557 0.0
C2106 C 0.09144 0.04346 0.6927 0.0
C2107 C 0.0727 0.05245 0.68785 0.0
C2108 C 0.06255 0.06049 0.70703 0.0
C2109 C 0.07141 0.05973 0.73067 0.0
C2110 C 0.10289 0.03491 0.67279 0.0
C2111 C 0.0423 0.06981 0.70256 0.0
C2112 C 0.06443 0.07227 0.62735 0.0
C2113 C 0.04851 0.05225 0.61369 0.0
C2114 C 0.07218 0.07278 0.65166 0.0
C2115 C 0.06351 0.05293 0.66262 0.0
C2116 C 0.04679 0.03302 0.6491 0.0
C2117 C 0.03965 0.03286 0.62481 0.0
C2118 C 0.09023 0.09423 0.66538 0.0
C2119 C 0.03683 0.01164 0.66015 0.0
H2120 H 0.11415 0.03581 0.72003 0.0
H2121 H 0.06375 0.06609 0.74533 0.0
H2122 H 0.09033 0.02015 0.66039 0.0
H2123 H 0.10907 0.04907 0.66225 0.0
H2124 H 0.11765 0.02899 0.6796 0.0
H2125 H 0.03624 0.07521 0.71939 0.0
H2126 H 0.04695 0.08508 0.6931 0.0
H2127 H 0.0279 0.05626 0.69082 0.0
H2128 H 0.07143 0.08726 0.61885 0.0
H2129 H 0.02716 0.01739 0.61444 0.0
H2130 H 0.10611 0.08965 0.67108 0.0
H2131 H 0.08431 0.10075 0.68183 0.0
H2132 H 0.09451 0.10855 0.6546 0.0
H2133 H 0.05048 1.00365 0.6655 0.0
H2134 H 0.02285 0.99825 0.64767 0.0
H2135 H 0.02998 0.01661 0.67657 0.0
C2136 C 0.76061 0.3899 0.43128 0.0
C2137 C 0.77885 0.41068 0.43617 0.0
C2138 C 0.75821 0.37347 0.41079 0.0
C2139 C 0.77451 0.37793 0.39496 0.0
C2140 C 0.79232 0.39934 0.39919 0.0
C2141 C 0.79421 0.41553 0.41972 0.0
C2142 C 0.7388 0.35096 0.4066 0.0
C2143 C 0.80997 0.40472 0.38259 0.0
C2144 C 0.7866 0.32776 0.35712 0.0
C2145 C 0.77576 0.32866 0.33446 0.0
C2146 C 0.78575 0.34331 0.37719 0.0
C2147 C 0.7736 0.3599 0.37444 0.0
C2148 C 0.76175 0.36014 0.3518 0.0
C2149 C 0.76303 0.34456 0.33206 0.0
C2150 C 0.79863 0.34263 0.40114 0.0
C2151 C 0.74839 0.37739 0.34825 0.0
H2152 H 0.74859 0.3861 0.44386 0.0
H2153 H 0.80833 0.43155 0.42336 0.0
H2154 H 0.72935 0.34784 0.38818 0.0
H2155 H 0.74584 0.33607 0.40837 0.0
H2156 H 0.7265 0.35105 0.41949 0.0
H2157 H 0.82211 0.42259 0.38786 0.0
H2158 H 0.81992 0.39191 0.38259 0.0
H2159 H 0.80139 0.40302 0.364 0.0
H2160 H 0.79644 0.31551 0.35904 0.0
H2161 H 0.75438 0.34516 0.3146 0.0
H2162 H 0.78704 0.34107 0.41485 0.0
H2163 H 0.81267 0.35922 0.40701 0.0
H2164 H 0.80618 0.32786 0.40051 0.0
H2165 H 0.7362 0.37671 0.36132 0.0
H2166 H 0.73864 0.37401 0.3299 0.0
H2167 H 0.76033 0.3954 0.35149 0.0
C2168 C 0.47118 0.04874 0.24554 0.0
C2169 C 0.47313 0.04745 0.27002 0.0
C2170 C 0.48885 0.0469 0.23264 0.0
C2171 C 0.50899 0.04367 0.24452 0.0
C2172 C 0.51144 0.04309 0.26938 0.0
C2173 C 0.49342 0.04499 0.28189 0.0
C2174 C 0.48566 0.04778 0.20611 0.0
C2175 C 0.53273 0.03975 0.28258 0.0
C2176 C 0.53649 0.01398 0.19961 0.0
C2177 C 0.5513 0.03337 0.19254 0.0
C2178 C 0.52415 0.01688 0.21841 0.0
C2179 C 0.52671 0.03969 0.23026 0.0
C2180 C 0.54348 0.059 0.22494 0.0
C2181 C 0.55563 0.0556 0.20608 0.0
C2182 C 0.50657 0.9958 0.22373 0.0
C2183 C 0.54696 0.08355 0.23745 0.0
H2184 H 0.45563 0.05083 0.2363 0.0
H2185 H 0.49505 0.04403 0.30084 0.0
H2186 H 0.50004 0.06164 0.20176 0.0
H2187 H 0.48576 0.0309 0.19596 0.0
H2188 H 0.46931 0.05125 0.19982 0.0
H2189 H 0.53305 0.04232 0.30227 0.0
H2190 H 0.53353 0.02181 0.27667 0.0
H2191 H 0.54835 0.0521 0.27837 0.0
H2192 H 0.53301 0.99676 0.18918 0.0
H2193 H 0.56743 0.07056 0.20092 0.0
H2194 H 0.48918 0.99584 0.21597 0.0
H2195 H 0.50693 0.99634 0.24329 0.0
H2196 H 0.50939 0.97917 0.216 0.0
H2197 H 0.5328 0.09005 0.23014 0.0
H2198 H 0.56345 0.0957 0.2348 0.0
H2199 H 0.54661 0.08393 0.25691 0.0
C2200 C 0.75419 0.72475 0.93696 0.0
C2201 C 0.77171 0.72588 0.9555 0.0
C2202 C 0.75924 0.73373 0.91595 0.0
C2203 C 0.78239 0.74383 0.91326 0.0
C2204 C 0.80017 0.74497 0.93187 0.0
C2205 C 0.79462 0.73613 0.95283 0.0
C2206 C 0.73976 0.73248 0.89665 0.0
C2207 C 0.82506 0.75543 0.92958 0.0
C2208 C 0.79393 0.74886 0.84955 0.0
C2209 C 0.79483 0.7722 0.84843 0.0
C2210 C 0.7906 0.73954 0.87077 0.0
C2211 C 0.78786 0.75383 0.89124 0.0
C2212 C 0.78935 0.77753 0.89038 0.0
C2213 C 0.79294 0.78644 0.86907 0.0
C2214 C 0.78941 0.71425 0.87111 0.0
C2215 C 0.78635 0.79331 0.91172 0.0
H2216 H 0.73646 0.71688 0.93888 0.0
H2217 H 0.80828 0.73687 0.96698 0.0
H2218 H 0.74035 0.75034 0.89323 0.0
H2219 H 0.74159 0.72247 0.87968 0.0
H2220 H 0.72271 0.72406 0.9015 0.0
H2221 H 0.83687 0.7545 0.94544 0.0
H2222 H 0.82921 0.74614 0.91343 0.0
H2223 H 0.82829 0.77401 0.9273 0.0
H2224 H 0.79542 0.73773 0.83373 0.0
H2225 H 0.79354 0.80449 0.86845 0.0
H2226 H 0.77194 0.7043 0.87365 0.0
H2227 H 0.80155 0.7128 0.88637 0.0
H2228 H 0.79346 0.70595 0.8543 0.0
H2229 H 0.76884 0.78653 0.91621 0.0
H2230 H 0.7889 0.81157 0.90844 0.0
H2231 H 0.79867 0.79347 0.92758 0.0
C2232 C 0.84026 0.11797 0.00201 0.0
C2233 C 0.81916 0.11552 0.98812 0.0
C2234 C 0.85407 0.104 0.99536 0.0
C2235 C 0.84651 0.08705 0.97437 0.0
C2236 C 0.82545 0.08477 0.95999 0.0
C2237 C 0.81201 0.09911 0.96702 0.0
C2238 C 0.87655 0.10707 0.01108 0.0
C2239 C 0.81685 0.06681 0.93756 0.0
C2240 C 0.89385 0.06435 0.95339 0.0
C2241 C 0.89192 0.04507 0.96539 0.0
C2242 C 0.87827 0.07747 0.95487 0.0
C2243 C 0.86025 0.07097 0.96847 0.0
C2244 C 0.85712 0.05046 0.97896 0.0
C2245 C 0.87305 0.03783 0.9774 0.0
C2246 C 0.8821 0.09919 0.94334 0.0
C2247 C 0.83798 0.04284 0.99344 0.0
H2248 H 0.84598 0.13074 0.01825 0.0
H2249 H 0.79572 0.09714 0.95618 0.0
H2250 H 0.87602 0.09081 0.01853 0.0
H2251 H 0.89082 0.11033 0.00038 0.0
H2252 H 0.88041 0.12177 0.02618 0.0
H2253 H 0.80086 0.06829 0.92754 0.0
H2254 H 0.83013 0.06873 0.92562 0.0
H2255 H 0.81342 0.04899 0.9423 0.0
H2256 H 0.90814 0.06981 0.94371 0.0
H2257 H 0.87149 0.02316 0.98698 0.0
H2258 H 0.88878 0.11487 0.95741 0.0
H2259 H 0.86573 0.10013 0.93373 0.0
H2260 H 0.89462 0.09991 0.93059 0.0
H2261 H 0.84158 0.05518 0.0105 0.0
H2262 H 0.83609 0.02498 0.99769 0.0
H2263 H 0.82143 0.04317 0.98369 0.0
C2264 C 0.36035 0.4543 0.04652 0.0
C2265 C 0.35774 0.44328 0.06677 0.0
C2266 C 0.38173 0.46883 0.04356 0.0
C2267 C 0.40101 0.47237 0.06123 0.0
C2268 C 0.39834 0.462 0.08212 0.0
C2269 C 0.37671 0.44761 0.08467 0.0
C2270 C 0.38385 0.47968 0.02109 0.0
C2271 C 0.41852 0.46533 0.10133 0.0
C2272 C 0.45901 0.48525 0.04017 0.0
C2273 C 0.46805 0.50949 0.04754 0.0
C2274 C 0.43733 0.47301 0.04471 0.0
C2275 C 0.42423 0.48529 0.05687 0.0
C2276 C 0.43318 0.50974 0.0644 0.0
C2277 C 0.45503 0.52157 0.05968 0.0
C2278 C 0.42841 0.44691 0.03643 0.0
C2279 C 0.41965 0.52339 0.07735 0.0
H2280 H 0.34576 0.45122 0.03267 0.0
H2281 H 0.37484 0.43923 0.10041 0.0
H2282 H 0.39246 0.49876 0.02566 0.0
H2283 H 0.39464 0.47204 0.01013 0.0
H2284 H 0.36692 0.4768 0.01004 0.0
H2285 H 0.41328 0.45766 0.11732 0.0
H2286 H 0.43089 0.45696 0.09411 0.0
H2287 H 0.42768 0.48421 0.10698 0.0
H2288 H 0.46893 0.47568 0.03088 0.0
H2289 H 0.46186 0.54028 0.06548 0.0
H2290 H 0.41224 0.44261 0.0237 0.0
H2291 H 0.42444 0.43779 0.05189 0.0
H2292 H 0.44089 0.43994 0.02752 0.0
H2293 H 0.40316 0.52147 0.06594 0.0
H2294 H 0.42912 0.54229 0.08222 0.0
H2295 H 0.41544 0.51632 0.0939 0.0
C2296 C 0.38725 0.58827 0.78204 0.0
C2297 C 0.41091 0.59766 0.78997 0.0
C2298 C 0.37237 0.60211 0.78433 0.0
C2299 C 0.38137 0.62596 0.79474 0.0
C2300 C 0.40521 0.63555 0.80283 0.0
C2301 C 0.4197 0.62128 0.80038 0.0
C2302 C 0.34704 0.59125 0.77551 0.0
C2303 C 0.41543 0.66093 0.81396 0.0
C2304 C 0.3468 0.66719 0.7801 0.0
C2305 C 0.33652 0.66956 0.8007 0.0
C2306 C 0.36144 0.65309 0.77796 0.0
C2307 C 0.36585 0.64095 0.79682 0.0
C2308 C 0.35539 0.64308 0.81757 0.0
C2309 C 0.34086 0.65738 0.81928 0.0
C2310 C 0.37221 0.65122 0.7555 0.0
C2311 C 0.35967 0.63038 0.83804 0.0
H2312 H 0.38027 0.57003 0.77402 0.0
H2313 H 0.43794 0.62869 0.80656 0.0
H2314 H 0.33712 0.59323 0.79036 0.0
H2315 H 0.34135 0.60042 0.76138 0.0
H2316 H 0.34274 0.57237 0.76813 0.0
H2317 H 0.43427 0.66564 0.81959 0.0
H2318 H 0.41191 0.67228 0.80101 0.0
H2319 H 0.40733 0.6648 0.82981 0.0
H2320 H 0.34325 0.67624 0.76551 0.0
H2321 H 0.33321 0.65934 0.83536 0.0
H2322 H 0.36713 0.63272 0.74664 0.0
H2323 H 0.39118 0.65703 0.76011 0.0
H2324 H 0.36712 0.6619 0.74255 0.0
H2325 H 0.35463 0.61128 0.8316 0.0
H2326 H 0.35002 0.63367 0.85282 0.0
H2327 H 0.37824 0.63596 0.84526 0.0
C2328 C 0.20929 0.66322 0.5318 0.0
C2329 C 0.22612 0.65245 0.52671 0.0
C2330 C 0.1862 0.65009 0.52956 0.0
C2331 C 0.17983 0.62561 0.52208 0.0
C2332 C 0.19658 0.61475 0.51603 0.0
C2333 C 0.21954 0.62831 0.51839 0.0
C2334 C 0.16877 0.66227 0.53609 0.0
C2335 C 0.19041 0.58868 0.508 0.0
C2336 C 0.12745 0.58971 0.5442 0.0
C2337 C 0.11057 0.58487 0.52402 0.0
C2338 C 0.1501 0.6027 0.54365 0.0
C2339 C 0.15601 0.61117 0.52243 0.0
C2340 C 0.13916 0.60616 0.50189 0.0
C2341 C 0.11661 0.59298 0.5029 0.0
C2342 C 0.16765 0.60756 0.56589 0.0
C2343 C 0.1449 0.61498 0.47899 0.0
H2344 H 0.21421 0.68188 0.53811 0.0
H2345 H 0.23243 0.61986 0.51431 0.0
H2346 H 0.154 0.65763 0.52145 0.0
H2347 H 0.16203 0.65637 0.55227 0.0
H2348 H 0.17616 0.6816 0.53977 0.0
H2349 H 0.20508 0.58322 0.50214 0.0
H2350 H 0.18476 0.57942 0.52293 0.0
H2351 H 0.17588 0.58293 0.49303 0.0
H2352 H 0.12298 0.58339 0.56055 0.0
H2353 H 0.10365 0.58933 0.48724 0.0
H2354 H 0.17463 0.62669 0.57203 0.0
H2355 H 0.18224 0.60102 0.56186 0.0
H2356 H 0.16035 0.59927 0.58077 0.0
H2357 H 0.15094 0.63437 0.4822 0.0
H2358 H 0.12994 0.60909 0.46443 0.0
H2359 H 0.15907 0.60883 0.47288 0.0
C2360 C 0.72532 0.99365 0.77379 0.0
C2361 C 0.72804 0.01084 0.759 0.0
C2362 C 0.7416 0.98159 0.77712 0.0
C2363 C 0.7611 0.98685 0.76536 0.0
C2364 C 0.764 0.00414 0.75036 0.0
C2365 C 0.74739 0.01597 0.74734 0.0
C2366 C 0.73789 0.96319 0.79325 0.0
C2367 C 0.78458 0.0101 0.73753 0.0
C2368 C 0.80898 0.96671 0.79459 0.0
C2369 C 0.80444 0.94435 0.7813 0.0
C2370 C 0.79601 0.98158 0.78856 0.0
C2371 C 0.77815 0.97383 0.76877 0.0
C2372 C 0.7747 0.95204 0.7542 0.0
C2373 C 0.78785 0.93752 0.76069 0.0
C2374 C 0.80031 0.0048 0.8044 0.0
C2375 C 0.7559 0.9432 0.73288 0.0
H2376 H 0.71044 0.98958 0.78287 0.0
H2377 H 0.74961 0.02926 0.73589 0.0
H2378 H 0.73703 0.94602 0.78301 0.0
H2379 H 0.75255 0.96769 0.808 0.0
H2380 H 0.72186 0.96132 0.80117 0.0
H2381 H 0.78437 0.02411 0.72662 0.0
H2382 H 0.80059 0.01588 0.75068 0.0
H2383 H 0.78514 0.99433 0.72562 0.0
H2384 H 0.82205 0.97222 0.81029 0.0
H2385 H 0.78405 0.92017 0.75043 0.0
H2386 H 0.78613 0.00389 0.81509 0.0
H2387 H 0.80065 0.01887 0.79348 0.0
H2388 H 0.81672 0.00965 0.81692 0.0
H2389 H 0.73901 0.93819 0.73919 0.0
H2390 H 0.7577 0.9277 0.72144 0.0
H2391 H 0.75585 0.95709 0.72181 0.0
C2392 C 0.73307 0.94727 0.50506 0.0
C2393 C 0.739 0.93898 0.52607 0.0
C2394 C 0.71663 0.95943 0.5037 0.0
C2395 C 0.70595 0.96354 0.5239 0.0
C2396 C 0.7119 0.95529 0.5452 0.0
C2397 C 0.7283 0.94305 0.54601 0.0
C2398 C 0.71064 0.96784 0.48062 0.0
C2399 C 0.70094 0.95943 0.56713 0.0
C2400 C 0.67857 0.01293 0.52676 0.0
C2401 C 0.65531 1.00072 0.51932 0.0
C2402 C 0.69522 1.00103 0.52857 0.0
C2403 C 0.68845 0.97636 0.52265 0.0
C2404 C 0.66499 0.96393 0.51519 0.0
C2405 C 0.6487 0.97626 0.51367 0.0
C2406 C 0.72005 0.01487 0.53676 0.0
C2407 C 0.65712 0.93763 0.50856 0.0
H2408 H 0.74121 0.94417 0.48955 0.0
H2409 H 0.73282 0.93676 0.56234 0.0
H2410 H 0.69205 0.96014 0.47386 0.0
H2411 H 0.71418 0.98711 0.48384 0.0
H2412 H 0.72044 0.96315 0.46652 0.0
H2413 H 0.70761 0.95208 0.58237 0.0
H2414 H 0.70409 0.97846 0.57279 0.0
H2415 H 0.68209 0.95139 0.56291 0.0
H2416 H 0.68372 0.03181 0.53142 0.0
H2417 H 0.63078 0.96677 0.50763 0.0
H2418 H 0.73044 0.01188 0.52261 0.0
H2419 H 0.7269 0.00885 0.55287 0.0
H2420 H 0.72244 0.03394 0.54107 0.0
H2421 H 0.66537 0.93224 0.49338 0.0
H2422 H 0.63821 0.93058 0.50343 0.0
H2423 H 0.66243 0.92953 0.52382 0.0
C2424 C 0.40694 0.45233 0.78919 0.0
C2425 C 0.40359 0.46798 0.77386 0.0
C2426 C 0.39009 0.43111 0.78877 0.0
C2427 C 0.36949 0.42522 0.7724 0.0
C2428 C 0.36613 0.44073 0.75657 0.0
C2429 C 0.38319 0.46203 0.75759 0.0
C2430 C 0.39425 0.41509 0.80605 0.0
C2431 C 0.34452 0.43482 0.73863 0.0
C2432 C 0.33806 0.36045 0.75978 0.0
C2433 C 0.32155 0.35878 0.77518 0.0
C2434 C 0.35305 0.38214 0.75782 0.0
C2435 C 0.3517 0.40263 0.77182 0.0
C2436 C 0.3345 0.40117 0.78671 0.0
C2437 C 0.3195 0.37922 0.78809 0.0
C2438 C 0.37094 0.38298 0.7415 0.0
C2439 C 0.33268 0.42264 0.80206 0.0
H2440 H 0.42259 0.45685 0.80192 0.0
H2441 H 0.38052 0.47404 0.74567 0.0
H2442 H 0.38045 0.41181 0.81736 0.0
H2443 H 0.39378 0.39794 0.79605 0.0
H2444 H 0.41103 0.42245 0.81793 0.0
H2445 H 0.3447 0.44862 0.72734 0.0
H2446 H 0.34234 0.41806 0.72681 0.0
H2447 H 0.32936 0.43243 0.74804 0.0
H2448 H 0.33958 0.34472 0.74953 0.0
H2449 H 0.3068 0.37801 0.80004 0.0
H2450 H 0.38824 0.3882 0.75234 0.0
H2451 H 0.37071 0.39629 0.72972 0.0
H2452 H 0.36828 0.36583 0.73014 0.0
H2453 H 0.34819 0.42984 0.81583 0.0
H2454 H 0.31732 0.41881 0.81124 0.0
H2455 H 0.33191 0.43643 0.79106 0.0
C2456 C 0.18939 0.60248 0.26173 0.0
C2457 C 0.1749 0.59384 0.23973 0.0
C2458 C 0.20133 0.6263 0.26812 0.0
C2459 C 0.19893 0.64184 0.25201 0.0
C2460 C 0.18431 0.63328 0.22979 0.0
C2461 C 0.17236 0.60936 0.22396 0.0
C2462 C 0.21666 0.63482 0.29203 0.0
C2463 C 0.18156 0.64933 0.21205 0.0
C2464 C 0.21695 0.70705 0.27547 0.0
C2465 C 0.239 0.7142 0.26926 0.0
C2466 C 0.20366 0.68349 0.27005 0.0
C2467 C 0.21262 0.66684 0.25796 0.0
C2468 C 0.23488 0.67396 0.25172 0.0
C2469 C 0.24783 0.6975 0.25755 0.0
C2470 C 0.18005 0.67641 0.27719 0.0
C2471 C 0.24498 0.65674 0.2387 0.0
H2472 H 0.19131 0.59064 0.27413 0.0
H2473 H 0.16118 0.60281 0.20695 0.0
H2474 H 0.2347 0.64217 0.2893 0.0
H2475 H 0.21171 0.64904 0.30229 0.0
H2476 H 0.21584 0.62065 0.30296 0.0
H2477 H 0.16908 0.64003 0.19582 0.0
H2478 H 0.17571 0.66379 0.22051 0.0
H2479 H 0.19836 0.65734 0.20651 0.0
H2480 H 0.21003 0.71985 0.28451 0.0
H2481 H 0.26481 0.70286 0.25254 0.0
H2482 H 0.17895 0.66292 0.28897 0.0
H2483 H 0.16698 0.66852 0.26108 0.0
H2484 H 0.17569 0.69144 0.28671 0.0
H2485 H 0.24593 0.64286 0.24954 0.0
H2486 H 0.26245 0.66519 0.23488 0.0
H2487 H 0.23375 0.64807 0.22153 0.0
C2488 C 0.49868 0.68355 0.45211 0.0
C2489 C 0.49732 0.70388 0.46626 0.0
C2490 C 0.50204 0.66423 0.46214 0.0
C2491 C 0.50408 0.66468 0.48724 0.0
C2492 C 0.50246 0.68499 0.50173 0.0
C2493 C 0.49919 0.70427 0.49116 0.0
C2494 C 0.50373 0.64332 0.44573 0.0
C2495 C 0.50431 0.6864 0.5285 0.0
C2496 C 0.49513 0.60464 0.5084 0.0
C2497 C 0.51774 0.60368 0.51413 0.0
C2498 C 0.49043 0.62454 0.50055 0.0
C2499 C 0.50869 0.6442 0.49802 0.0
C2500 C 0.53152 0.64346 0.50417 0.0
C2501 C 0.53572 0.62345 0.51214 0.0
C2502 C 0.46579 0.62423 0.49442 0.0
C2503 C 0.55167 0.66364 0.50172 0.0
H2504 H 0.49731 0.68271 0.43288 0.0
H2505 H 0.49817 0.71967 0.50244 0.0
H2506 H 0.52071 0.64053 0.45037 0.0
H2507 H 0.49049 0.62733 0.44811 0.0
H2508 H 0.50147 0.64539 0.42659 0.0
H2509 H 0.50189 0.70285 0.53732 0.0
H2510 H 0.49128 0.67134 0.533 0.0
H2511 H 0.5214 0.68534 0.53598 0.0
H2512 H 0.48097 0.58968 0.50979 0.0
H2513 H 0.55329 0.62321 0.51641 0.0
H2514 H 0.46149 0.62318 0.47481 0.0
H2515 H 0.46318 0.64063 0.50306 0.0
H2516 H 0.45368 0.60915 0.50007 0.0
H2517 H 0.55137 0.66579 0.48264 0.0
H2518 H 0.56836 0.66107 0.50839 0.0
H2519 H 0.55049 0.68013 0.51173 0.0
C2520 C 0.6337 0.31117 0.67359 0.0
C2521 C 0.63629 0.31886 0.65149 0.0
C2522 C 0.65266 0.30949 0.68899 0.0
C2523 C 0.67496 0.31622 0.68252 0.0
C2524 C 0.67775 0.32476 0.6606 0.0
C2525 C 0.65842 0.32566 0.64527 0.0
C2526 C 0.6487 0.29982 0.71187 0.0
C2527 C 0.70117 0.33272 0.65318 0.0
C2528 C 0.72634 0.32933 0.73231 0.0
C2529 C 0.73336 0.30905 0.72866 0.0
C2530 C 0.70771 0.33206 0.71726 0.0
C2531 C 0.69524 0.31383 0.69839 0.0
C2532 C 0.70218 0.29325 0.69473 0.0
C2533 C 0.72127 0.29125 0.70965 0.0
C2534 C 0.70141 0.35455 0.72152 0.0
C2535 C 0.68921 0.27314 0.67523 0.0
H2536 H 0.61669 0.30563 0.67849 0.0
H2537 H 0.66066 0.33169 0.6283 0.0
H2538 H 0.65421 0.28377 0.7117 0.0
H2539 H 0.65921 0.31264 0.72744 0.0
H2540 H 0.63041 0.29549 0.71445 0.0
H2541 H 0.7007 0.34033 0.63641 0.0
H2542 H 0.71314 0.346 0.66756 0.0
H2543 H 0.70827 0.31774 0.65044 0.0
H2544 H 0.73562 0.34327 0.74682 0.0
H2545 H 0.72639 0.27543 0.70676 0.0
H2546 H 0.68372 0.35091 0.72586 0.0
H2547 H 0.70169 0.36259 0.70501 0.0
H2548 H 0.71327 0.36739 0.73635 0.0
H2549 H 0.67093 0.26709 0.67767 0.0
H2550 H 0.69637 0.25811 0.67503 0.0
H2551 H 0.68966 0.27895 0.65752 0.0
C2552 C 0.99138 0.35519 0.0059 0.0
C2553 C 1.00353 0.34606 0.98962 0.0
C2554 C 0.99621 0.3795 0.01329 0.0
C2555 C 0.01323 0.39544 0.00371 0.0
C2556 C 0.02593 0.38634 0.98765 0.0
C2557 C 0.02114 0.36186 0.98104 0.0
C2558 C 0.98263 0.38815 0.03095 0.0
C2559 C 0.04398 0.40248 0.97665 0.0
C2560 C 1.00549 0.45638 0.00245 0.0
C2561 C 0.02191 0.47034 0.02159 0.0
C2562 C 1.00298 0.43231 0.99612 0.0
C2563 C 0.01681 0.42149 0.00955 0.0
C2564 C 0.03345 0.43552 0.02891 0.0
C2565 C 0.03595 0.45969 0.0345 0.0
C2566 C 0.9854 0.41841 0.97501 0.0
C2567 C 0.04817 0.42489 0.04427 0.0
H2568 H 0.97777 0.34324 0.01272 0.0
H2569 H 0.03049 0.35512 0.96826 0.0
H2570 H 0.99439 0.4008 0.04594 0.0
H2571 H 0.97164 0.39746 0.02207 0.0
H2572 H 0.9715 0.37367 0.03839 0.0
H2573 H 0.05302 0.39284 0.96525 0.0
H2574 H 0.03587 0.41278 0.96555 0.0
H2575 H 0.05683 0.4151 0.99085 0.0
H2576 H 0.99465 0.46436 0.99219 0.0
H2577 H 0.04856 0.47016 0.04946 0.0
H2578 H 0.97199 0.40481 0.98111 0.0
H2579 H 0.99362 0.40929 0.96216 0.0
H2580 H 0.97696 0.42956 0.9655 0.0
H2581 H 0.03725 0.41322 0.05474 0.0
H2582 H 0.06191 0.43838 0.05692 0.0
H2583 H 0.05619 0.41404 0.03299 0.0
C2584 C 0.97687 0.79239 0.14543 0.0
C2585 C 1.00052 0.801 0.15382 0.0
C2586 C 0.96068 0.78992 0.16125 0.0
C2587 C 0.96819 0.79624 0.18621 0.0
C2588 C 0.99203 0.80504 0.19485 0.0
C2589 C 0.00791 0.80729 0.17858 0.0
C2590 C 0.93546 0.78042 0.15123 0.0
C2591 C 1.00076 0.81203 0.22131 0.0
C2592 C 0.92433 0.80833 0.22453 0.0
C2593 C 0.91657 0.78712 0.23314 0.0
C2594 C 0.94142 0.81171 0.20968 0.0
C2595 C 0.95101 0.79343 0.20314 0.0
C2596 C 0.94344 0.77208 0.21198 0.0
C2597 C 0.92637 0.7692 0.22685 0.0
C2598 C 0.94904 0.83477 0.20075 0.0
C2599 C 0.95306 0.75208 0.20534 0.0
H2600 H 0.97091 0.78745 0.12637 0.0
H2601 H 0.02611 0.81396 0.18527 0.0
H2602 H 0.92768 0.76426 0.15843 0.0
H2603 H 0.92642 0.79329 0.15687 0.0
H2604 H 0.9324 0.77635 0.13138 0.0
H2605 H 0.01977 0.81881 0.22517 0.0
H2606 H 0.99347 0.82571 0.22898 0.0
H2607 H 0.99503 0.79679 0.23059 0.0
H2608 H 0.91714 0.82241 0.22956 0.0
H2609 H 0.92033 0.75265 0.23315 0.0
H2610 H 0.94512 0.83196 0.18094 0.0
H2611 H 0.96789 0.84252 0.20566 0.0
H2612 H 0.94052 0.84752 0.20814 0.0
H2613 H 0.94903 0.74614 0.18572 0.0
H2614 H 0.94604 0.73695 0.21443 0.0
H2615 H 0.97202 0.75795 0.21009 0.0
C2616 C 0.519 0.31266 0.14676 0.0
C2617 C 0.5322 0.31939 0.16963 0.0
C2618 C 0.51939 0.3288 0.13079 0.0
C2619 C 0.53337 0.35226 0.13776 0.0
C2620 C 0.54676 0.35912 0.16077 0.0
C2621 C 0.54599 0.34267 0.17639 0.0
C2622 C 0.50482 0.32075 0.10645 0.0
C2623 C 0.56197 0.3839 0.16894 0.0
C2624 C 0.55174 0.38996 0.09018 0.0
C2625 C 0.53685 0.40395 0.09052 0.0
C2626 C 0.55056 0.37289 0.10515 0.0
C2627 C 0.53414 0.36966 0.121 0.0
C2628 C 0.51892 0.38356 0.12131 0.0
C2629 C 0.52045 0.40047 0.10611 0.0
C2630 C 0.56718 0.35856 0.10427 0.0
C2631 C 0.50113 0.38068 0.13788 0.0
H2632 H 0.50826 0.29476 0.14133 0.0
H2633 H 0.5563 0.34811 0.19396 0.0
H2634 H 0.49273 0.33128 0.10411 0.0
H2635 H 0.51585 0.32353 0.09228 0.0
H2636 H 0.49479 0.30199 0.10377 0.0
H2637 H 0.57136 0.38646 0.18735 0.0
H2638 H 0.57467 0.38856 0.15659 0.0
H2639 H 0.55152 0.39623 0.16845 0.0
H2640 H 0.56471 0.39267 0.07853 0.0
H2641 H 0.50864 0.41091 0.10633 0.0
H2642 H 0.55767 0.33965 0.10052 0.0
H2643 H 0.57817 0.36189 0.12191 0.0
H2644 H 0.5784 0.36261 0.0904 0.0
H2645 H 0.48991 0.36235 0.13459 0.0
H2646 H 0.49023 0.39245 0.13561 0.0
H2647 H 0.50968 0.38444 0.15674 0.0
C2648 C 0.95829 0.30416 0.34808 0.0
C2649 C 0.97638 0.30872 0.33446 0.0
C2650 C 0.93578 0.30349 0.33885 0.0
C2651 C 0.93059 0.30709 0.31502 0.0
C2652 C 0.94873 0.31181 0.30107 0.0
C2653 C 0.97137 0.3128 0.31097 0.0
C2654 C 0.91743 0.29877 0.35474 0.0
C2655 C 0.94411 0.31544 0.2755 0.0
C2656 C 0.86684 0.28093 0.28812 0.0
C2657 C 0.85836 0.3004 0.29061 0.0
C2658 C 0.8903 0.28306 0.29489 0.0
C2659 C 0.90605 0.30518 0.30488 0.0
C2660 C 0.8977 0.32499 0.30705 0.0
C2661 C 0.87415 0.32241 0.29976 0.0
C2662 C 0.89811 0.26138 0.29187 0.0
C2663 C 0.91354 0.34888 0.31791 0.0
H2664 H 0.96172 0.30122 0.36632 0.0
H2665 H 0.98502 0.31632 0.30017 0.0
H2666 H 0.90913 0.31295 0.35576 0.0
H2667 H 0.9039 0.28222 0.34704 0.0
H2668 H 0.92435 0.29738 0.37318 0.0
H2669 H 0.95991 0.31931 0.26704 0.0
H2670 H 0.93142 0.29954 0.26489 0.0
H2671 H 0.93652 0.33007 0.27468 0.0
H2672 H 0.85505 0.2638 0.28093 0.0
H2673 H 0.86799 0.33762 0.30188 0.0
H2674 H 0.90366 0.25744 0.30968 0.0
H2675 H 0.91311 0.26431 0.28217 0.0
H2676 H 0.88434 0.24588 0.28195 0.0
H2677 H 0.91982 0.34893 0.33695 0.0
H2678 H 0.90493 0.36277 0.31699 0.0
H2679 H 0.92877 0.35319 0.30863 0.0
C2680 C 0.034 0.69374 0.65831 0.0
C2681 C 0.01299 0.69869 0.65386 0.0
C2682 C 0.03865 0.6752 0.64411 0.0
C2683 C 0.02176 0.66083 0.62519 0.0
C2684 C 1.00025 0.66528 0.62115 0.0
C2685 C 0.99623 0.68422 0.6353 0.0
C2686 C 0.06192 0.67139 0.64895 0.0
C2687 C 0.98151 0.65018 0.6016 0.0
C2688 C 0.03922 0.62792 0.57204 0.0
C2689 C 0.0349 0.60521 0.57764 0.0
C2690 C 0.03546 0.64617 0.58753 0.0
C2691 C 0.02679 0.64169 0.6091 0.0
C2692 C 0.02253 0.61884 0.61494 0.0
C2693 C 0.02674 0.60099 0.59928 0.0
C2694 C 0.04072 0.67031 0.58074 0.0
C2695 C 0.01307 0.61307 0.63753 0.0
H2696 H 0.04717 0.70485 0.67246 0.0
H2697 H 0.97991 0.68776 0.63173 0.0
H2698 H 0.06001 0.65331 0.65246 0.0
H2699 H 0.07061 0.67346 0.63295 0.0
H2700 H 0.0731 0.68383 0.66448 0.0
H2701 H 0.96531 0.655 0.60163 0.0
H2702 H 0.98716 0.65187 0.58391 0.0
H2703 H 0.978 0.63153 0.60372 0.0
H2704 H 0.04564 0.63151 0.55552 0.0
H2705 H 0.02324 0.58356 0.60386 0.0
H2706 H 0.05282 0.6832 0.59533 0.0
H2707 H 0.02478 0.67558 0.57832 0.0
H2708 H 0.04834 0.67124 0.56396 0.0
H2709 H 0.02424 0.62496 0.65336 0.0
H2710 H 0.01152 0.59474 0.64002 0.0
H2711 H 0.99587 0.61577 0.63698 0.0
C2712 C 0.64353 0.82033 0.85667 0.0
C2713 C 0.62375 0.82102 0.84194 0.0
C2714 C 0.66344 0.81831 0.84739 0.0
C2715 C 0.66418 0.81699 0.82249 0.0
C2716 C 0.64441 0.8179 0.80741 0.0
C2717 C 0.62452 0.81984 0.81723 0.0
C2718 C 0.68372 0.8173 0.8644 0.0
C2719 C 0.64421 0.81667 0.78081 0.0
C2720 C 0.72479 0.83032 0.80413 0.0
C2721 C 0.72728 0.80788 0.79816 0.0
C2722 C 0.70424 0.83355 0.81118 0.0
C2723 C 0.68541 0.81394 0.81253 0.0
C2724 C 0.68769 0.79127 0.80606 0.0
C2725 C 0.70834 0.78855 0.799 0.0
C2726 C 0.70288 0.85807 0.81775 0.0
C2727 C 0.66844 0.76973 0.80724 0.0
H2728 H 0.64349 0.82119 0.87576 0.0
H2729 H 0.60957 0.82035 0.80551 0.0
H2730 H 0.68751 0.80051 0.85957 0.0
H2731 H 0.69918 0.83155 0.86292 0.0
H2732 H 0.68071 0.8189 0.88332 0.0
H2733 H 0.62801 0.81837 0.77151 0.0
H2734 H 0.65881 0.83075 0.77715 0.0
H2735 H 0.64645 0.79977 0.77313 0.0
H2736 H 0.73906 0.84549 0.80361 0.0
H2737 H 0.70973 0.77106 0.7945 0.0
H2738 H 0.70161 0.86147 0.83705 0.0
H2739 H 0.68721 0.8601 0.80765 0.0
H2740 H 0.71808 0.87146 0.81407 0.0
H2741 H 0.66547 0.76926 0.82605 0.0
H2742 H 0.67218 0.75335 0.80031 0.0
H2743 H 0.65229 0.77025 0.79678 0.0
C2744 C 0.48531 0.52359 0.70165 0.0
C2745 C 0.47313 0.5376 0.71234 0.0
C2746 C 0.49216 0.52655 0.67922 0.0
C2747 C 0.48647 0.54374 0.66698 0.0
C2748 C 0.47446 0.55816 0.67781 0.0
C2749 C 0.46808 0.55503 0.70041 0.0
C2750 C 0.50523 0.51102 0.66846 0.0
C2751 C 0.46787 0.57653 0.66527 0.0
C2752 C 0.52029 0.56272 0.61707 0.0
C2753 C 0.50597 0.54835 0.59673 0.0
C2754 C 0.51399 0.56173 0.63998 0.0
C2755 C 0.49271 0.54623 0.64263 0.0
C2756 C 0.47778 0.53237 0.62207 0.0
C2757 C 0.48466 0.53347 0.59941 0.0
C2758 C 0.53049 0.57664 0.66143 0.0
C2759 C 0.45478 0.5159 0.62406 0.0
H2760 H 0.48936 0.51014 0.71074 0.0
H2761 H 0.45857 0.56587 0.70843 0.0
H2762 H 0.49507 0.50022 0.65154 0.0
H2763 H 0.52157 0.52185 0.66401 0.0
H2764 H 0.50918 0.49919 0.68069 0.0
H2765 H 0.45903 0.5867 0.67633 0.0
H2766 H 0.48334 0.58881 0.66072 0.0
H2767 H 0.45634 0.56809 0.64821 0.0
H2768 H 0.53686 0.57417 0.61524 0.0
H2769 H 0.47344 0.52238 0.5838 0.0
H2770 H 0.53619 0.56524 0.6731 0.0
H2771 H 0.52186 0.58724 0.6722 0.0
H2772 H 0.54587 0.58858 0.65627 0.0
H2773 H 0.45731 0.50197 0.63414 0.0
H2774 H 0.44454 0.50754 0.60628 0.0
H2775 H 0.44478 0.52542 0.63417 0.0
C2776 C 0.79806 0.22758 0.98533 0.0
C2777 C 0.79262 0.22855 0.0086 0.0
C2778 C 0.79718 0.24549 0.97212 0.0
C2779 C 0.79086 0.26489 0.98252 0.0
C2780 C 0.78672 0.26669 0.0065 0.0
C2781 C 0.78757 0.24841 0.01926 0.0
C2782 C 0.80177 0.24297 0.94656 0.0
C2783 C 0.78029 0.28732 0.01825 0.0
C2784 C 0.8003 0.31361 0.94538 0.0
C2785 C 0.77888 0.30756 0.93082 0.0
C2786 C 0.80412 0.30093 0.96369 0.0
C2787 C 0.78613 0.28172 0.96725 0.0
C2788 C 0.76404 0.2767 0.95381 0.0
C2789 C 0.76068 0.28972 0.93577 0.0
C2790 C 0.82778 0.30705 0.97799 0.0
C2791 C 0.7444 0.25631 0.95704 0.0
H2792 H 0.80218 0.21239 0.97704 0.0
H2793 H 0.7836 0.2494 0.03735 0.0
H2794 H 0.78575 0.24084 0.93423 0.0
H2795 H 0.81465 0.25893 0.94358 0.0
H2796 H 0.80806 0.22767 0.94175 0.0
H2797 H 0.78098 0.28779 0.03787 0.0
H2798 H 0.79187 0.30395 0.01488 0.0
H2799 H 0.7626 0.28632 0.01045 0.0
H2800 H 0.81434 0.32758 0.94177 0.0
H2801 H 0.74417 0.28473 0.92441 0.0
H2802 H 0.83651 0.29415 0.97154 0.0
H2803 H 0.82678 0.30626 0.9972 0.0
H2804 H 0.83849 0.32475 0.97622 0.0
H2805 H 0.74791 0.23969 0.95063 0.0
H2806 H 0.72781 0.25628 0.94698 0.0
H2807 H 0.74264 0.25665 0.97623 0.0
C2808 C 0.07425 0.47933 0.18513 0.0
C2809 C 0.0979 0.48633 0.18446 0.0
C2810 C 0.05874 0.48171 0.16631 0.0
C2811 C 0.06717 0.49081 0.14626 0.0
C2812 C 0.09069 0.49499 0.14421 0.0
C2813 C 0.10588 0.49304 0.16356 0.0
C2814 C 0.03382 0.47716 0.16925 0.0
C2815 C 0.10023 0.50391 0.12273 0.0
C2816 C 0.0264 0.49764 0.09418 0.0
C2817 C 0.02867 0.52156 0.09943 0.0
C2818 C 0.03865 0.48708 0.10935 0.0
C2819 C 0.0528 0.50074 0.13043 0.0
C2820 C 0.05411 0.52465 0.13627 0.0
C2821 C 0.04229 0.53483 0.12046 0.0
C2822 C 0.03743 0.46179 0.10217 0.0
C2823 C 0.06864 0.53976 0.15883 0.0
H2824 H 0.06799 0.47407 0.20126 0.0
H2825 H 0.12416 0.49812 0.16289 0.0
H2826 H 0.03044 0.4941 0.1745 0.0
H2827 H 0.02242 0.46847 0.1522 0.0
H2828 H 0.02926 0.46616 0.18327 0.0
H2829 H 0.1173 0.50129 0.12137 0.0
H2830 H 0.08839 0.49506 0.10597 0.0
H2831 H 0.10221 0.52291 0.12428 0.0
H2832 H 0.01608 0.48753 0.07764 0.0
H2833 H 0.04404 0.55336 0.1243 0.0
H2834 H 0.03454 0.45211 0.11742 0.0
H2835 H 0.05404 0.46079 0.09689 0.0
H2836 H 0.02361 0.45292 0.08687 0.0
H2837 H 0.06441 0.53133 0.17465 0.0
H2838 H 0.06621 0.55742 0.16162 0.0
H2839 H 0.08704 0.54185 0.15786 0.0
C2840 C 0.78128 0.86294 0.46579 0.0
C2841 C 0.78861 0.85274 0.48485 0.0
C2842 C 0.78129 0.85364 0.44198 0.0
C2843 C 0.78842 0.83337 0.43702 0.0
C2844 C 0.79546 0.82273 0.45614 0.0
C2845 C 0.79566 0.83266 0.47984 0.0
C2846 C 0.7739 0.86568 0.42214 0.0
C2847 C 0.80278 0.80087 0.45153 0.0
C2848 C 0.76754 0.79958 0.37402 0.0
C2849 C 0.78687 0.80711 0.36275 0.0
C2850 C 0.76807 0.80734 0.39837 0.0
C2851 C 0.78833 0.82334 0.41175 0.0
C2852 C 0.80806 0.83066 0.40062 0.0
C2853 C 0.80716 0.8223 0.37627 0.0
C2854 C 0.74676 0.79883 0.40963 0.0
C2855 C 0.82988 0.84798 0.41419 0.0
H2856 H 0.77597 0.87856 0.46948 0.0
H2857 H 0.80129 0.82464 0.49447 0.0
H2858 H 0.78795 0.87086 0.41139 0.0
H2859 H 0.75892 0.85348 0.4099 0.0
H2860 H 0.76922 0.88151 0.42903 0.0
H2861 H 0.80732 0.79445 0.46832 0.0
H2862 H 0.78877 0.78682 0.43986 0.0
H2863 H 0.81784 0.80429 0.44194 0.0
H2864 H 0.75183 0.78769 0.36373 0.0
H2865 H 0.82212 0.82829 0.36766 0.0
H2866 H 0.74007 0.81367 0.41508 0.0
H2867 H 0.75091 0.79166 0.42601 0.0
H2868 H 0.73298 0.78512 0.39723 0.0
H2869 H 0.82663 0.86486 0.42004 0.0
H2870 H 0.84399 0.85119 0.40324 0.0
H2871 H 0.83561 0.8416 0.43054 0.0
C2872 C 0.50984 0.5516 0.84703 0.0
C2873 C 0.48645 0.54358 0.83751 0.0
C2874 C 0.51746 0.54989 0.8708 0.0
C2875 C 0.50132 0.53965 0.88527 0.0
C2876 C 0.47778 0.53094 0.8755 0.0
C2877 C 0.47063 0.53315 0.85187 0.0
C2878 C 0.54267 0.55964 0.88064 0.0
C2879 C 0.46001 0.51971 0.89018 0.0
C2880 C 0.52016 0.51991 0.94335 0.0
C2881 C 0.51883 0.53808 0.96049 0.0
C2882 C 0.51492 0.52031 0.91871 0.0
C2883 C 0.50864 0.53952 0.91111 0.0
C2884 C 0.50803 0.55823 0.92839 0.0
C2885 C 0.51295 0.55719 0.95277 0.0
C2886 C 0.5155 0.49992 0.90085 0.0
C2887 C 0.50177 0.57922 0.92115 0.0
H2888 H 0.52217 0.55963 0.83606 0.0
H2889 H 0.45254 0.52662 0.84462 0.0
H2890 H 0.54534 0.5745 0.89529 0.0
H2891 H 0.54898 0.54617 0.8884 0.0
H2892 H 0.55317 0.56585 0.86676 0.0
H2893 H 0.44264 0.51231 0.87944 0.0
H2894 H 0.46489 0.50551 0.89806 0.0
H2895 H 0.45915 0.53284 0.90522 0.0
H2896 H 0.52474 0.50513 0.94919 0.0
H2897 H 0.51226 0.57153 0.96586 0.0
H2898 H 0.5267 0.50614 0.88755 0.0
H2899 H 0.49802 0.4911 0.89088 0.0
H2900 H 0.5218 0.48687 0.90953 0.0
H2901 H 0.5128 0.58691 0.90828 0.0
H2902 H 0.50359 0.59299 0.93671 0.0
H2903 H 0.48376 0.57375 0.91201 0.0
C2904 C 0.83127 0.20412 0.11683 0.0
C2905 C 0.81133 0.19192 0.10074 0.0
C2906 C 0.8299 0.21532 0.13951 0.0
C2907 C 0.80811 0.21454 0.14598 0.0
C2908 C 0.78797 0.20158 0.13013 0.0
C2909 C 0.78983 0.1903 0.10781 0.0
C2910 C 0.85172 0.2286 0.15622 0.0
C2911 C 0.7644 0.20049 0.13627 0.0
C2912 C 0.79879 0.23074 0.20972 0.0
C2913 C 0.79777 0.25369 0.20982 0.0
C2914 C 0.80323 0.21809 0.18939 0.0
C2915 C 0.80614 0.22848 0.16855 0.0
C2916 C 0.80541 0.25176 0.16869 0.0
C2917 C 0.80148 0.26418 0.18944 0.0
C2918 C 0.80438 0.19349 0.19007 0.0
C2919 C 0.80802 0.2633 0.14667 0.0
H2920 H 0.84793 0.20531 0.11155 0.0
H2921 H 0.77429 0.18086 0.09555 0.0
H2922 H 0.85366 0.24761 0.15829 0.0
H2923 H 0.85098 0.22349 0.17423 0.0
H2924 H 0.86715 0.22552 0.14957 0.0
H2925 H 0.75046 0.18887 0.12235 0.0
H2926 H 0.76239 0.19412 0.15358 0.0
H2927 H 0.7623 0.21829 0.13832 0.0
H2928 H 0.79628 0.22271 0.2256 0.0
H2929 H 0.8007 0.28193 0.18949 0.0
H2930 H 0.82017 0.19132 0.18358 0.0
H2931 H 0.78954 0.18089 0.17797 0.0
H2932 H 0.80418 0.18889 0.20836 0.0
H2933 H 0.82434 0.26284 0.14029 0.0
H2934 H 0.80781 0.28177 0.15 0.0
H2935 H 0.79386 0.25354 0.13205 0.0
C2936 C 0.07441 0.54277 0.27096 0.0
C2937 C 0.09163 0.5322 0.27645 0.0
C2938 C 0.06103 0.54778 0.28815 0.0
C2939 C 0.06509 0.54217 0.3113 0.0
C2940 C 0.08184 0.53071 0.31663 0.0
C2941 C 0.09486 0.52581 0.29912 0.0
C2942 C 0.04313 0.55979 0.28181 0.0
C2943 C 0.08664 0.5244 0.34115 0.0
C2944 C 0.05397 0.57603 0.36664 0.0
C2945 C 0.03514 0.55967 0.3726 0.0
C2946 C 0.06306 0.57113 0.3458 0.0
C2947 C 0.05296 0.54941 0.33058 0.0
C2948 C 0.03295 0.53356 0.33563 0.0
C2949 C 0.02432 0.53884 0.35669 0.0
C2950 C 0.08447 0.58846 0.34104 0.0
C2951 C 0.02155 0.51038 0.31964 0.0
H2952 H 0.07174 0.54765 0.25342 0.0
H2953 H 0.10803 0.51753 0.30346 0.0
H2954 H 0.0265 0.5504 0.28687 0.0
H2955 H 0.04847 0.57779 0.29204 0.0
H2956 H 0.04051 0.56086 0.26243 0.0
H2957 H 0.09957 0.51466 0.34205 0.0
H2958 H 0.09305 0.54054 0.35465 0.0
H2959 H 0.07062 0.51355 0.34619 0.0
H2960 H 0.06249 0.59205 0.37901 0.0
H2961 H 0.00956 0.52632 0.36116 0.0
H2962 H 0.08247 0.59154 0.32224 0.0
H2963 H 0.09918 0.58125 0.34375 0.0
H2964 H 0.08868 0.6055 0.35309 0.0
H2965 H 0.01963 0.51271 0.30059 0.0
H2966 H 1.00439 0.50168 0.32407 0.0
H2967 H 0.03245 0.4986 0.32168 0.0
C2968 C 0.78447 0.85722 0.6141 0.0
C2969 C 0.76964 0.87089 0.61042 0.0
C2970 C 0.78549 0.84669 0.63471 0.0
C2971 C 0.77133 0.84987 0.65207 0.0
C2972 C 0.75592 0.86316 0.64817 0.0
C2973 C 0.75527 0.8735 0.62743 0.0
C2974 C 0.80218 0.83268 0.63824 0.0
C2975 C 0.74057 0.86701 0.66624 0.0
C2976 C 0.76281 0.80921 0.69868 0.0
C2977 C 0.77887 0.82274 0.71826 0.0
C2978 C 0.76007 0.81781 0.67702 0.0
C2979 C 0.77362 0.84049 0.67494 0.0
C2980 C 0.78956 0.85434 0.69477 0.0
C2981 C 0.792 0.84531 0.71611 0.0
C2982 C 0.74282 0.80258 0.65628 0.0
C2983 C 0.8042 0.8787 0.69344 0.0
H2984 H 0.79561 0.85507 0.60106 0.0
H2985 H 0.74369 0.88396 0.62476 0.0
H2986 H 0.81528 0.84136 0.65415 0.0
H2987 H 0.79311 0.81501 0.64167 0.0
H2988 H 0.81108 0.83077 0.6225 0.0
H2989 H 0.72849 0.87648 0.65984 0.0
H2990 H 0.7305 0.85002 0.67041 0.0
H2991 H 0.75118 0.8773 0.68319 0.0
H2992 H 0.7526 0.79177 0.70015 0.0
H2993 H 0.80434 0.85601 0.73114 0.0
H2994 H 0.75166 0.79925 0.64086 0.0
H2995 H 0.73026 0.81169 0.65042 0.0
H2996 H 0.73335 0.78552 0.66088 0.0
H2997 H 0.81483 0.87804 0.67899 0.0
H2998 H 0.81574 0.88722 0.7105 0.0
H2999 H 0.79311 0.88979 0.68895 0.0
C3000 C 0.74811 0.48745 0.54435 0.0
C3001 C 0.73556 0.46443 0.53412 0.0
C3002 C 0.73705 0.50352 0.55292 0.0
C3003 C 0.71288 0.49643 0.55101 0.0
C3004 C 0.70012 0.47313 0.54109 0.0
C3005 C 0.71165 0.45735 0.53284 0.0
C3006 C 0.75117 0.52818 0.56362 0.0
C3007 C 0.67426 0.46501 0.53868 0.0
C3008 C 0.68125 0.53062 0.58724 0.0
C3009 C 0.67352 0.54268 0.57016 0.0
C3010 C 0.69494 0.51618 0.58158 0.0
C3011 C 0.70073 0.51363 0.55825 0.0
C3012 C 0.69375 0.52652 0.54128 0.0
C3013 C 0.68028 0.54098 0.54749 0.0
C3014 C 0.7024 0.50293 0.60022 0.0
C3015 C 0.69946 0.52412 0.51616 0.0
H3016 H 0.76663 0.49298 0.54557 0.0
H3017 H 0.70187 0.43959 0.52499 0.0
H3018 H 0.7469 0.54062 0.55239 0.0
H3019 H 0.74704 0.53292 0.58167 0.0
H3020 H 0.7699 0.5305 0.5651 0.0
H3021 H 0.66697 0.44613 0.53122 0.0
H3022 H 0.66877 0.46817 0.55637 0.0
H3023 H 0.66685 0.47519 0.52679 0.0
H3024 H 0.67608 0.53203 0.60481 0.0
H3025 H 0.674 0.55 0.53414 0.0
H3026 H 0.72112 0.50537 0.60171 0.0
H3027 H 0.69361 0.48395 0.59477 0.0
H3028 H 0.69835 0.50855 0.61811 0.0
H3029 H 0.7182 0.5273 0.51662 0.0
H3030 H 0.69391 0.53643 0.5056 0.0
H3031 H 0.69089 0.50602 0.50675 0.0
C3032 C 0.19839 0.14007 0.50678 0.0
C3033 C 0.20439 0.16147 0.52232 0.0
C3034 C 0.17704 0.12336 0.50578 0.0
C3035 C 0.16153 0.12805 0.52093 0.0
C3036 C 0.16746 0.14967 0.53653 0.0
C3037 C 0.18872 0.16616 0.5369 0.0
C3038 C 0.17111 0.10066 0.48863 0.0
C3039 C 0.15146 0.15526 0.55313 0.0
C3040 C 0.09766 0.09723 0.50849 0.0
C3041 C 0.09538 0.08133 0.52473 0.0
C3042 C 0.11926 0.1117 0.50614 0.0
C3043 C 0.13903 0.1105 0.52066 0.0
C3044 C 0.13693 0.09385 0.53642 0.0
C3045 C 0.11511 0.07931 0.53814 0.0
C3046 C 0.12081 0.12895 0.48885 0.0
C3047 C 0.15759 0.09223 0.55238 0.0
H3048 H 0.2104 0.13637 0.49541 0.0
H3049 H 0.19326 0.18258 0.54907 0.0
H3050 H 0.16831 0.08575 0.4987 0.0
H3051 H 0.15486 0.09825 0.47656 0.0
H3052 H 0.18478 0.09997 0.47757 0.0
H3053 H 0.15878 0.17276 0.56437 0.0
H3054 H 0.13494 0.15471 0.54262 0.0
H3055 H 0.14764 0.14191 0.56507 0.0
H3056 H 0.08248 0.09869 0.49787 0.0
H3057 H 0.11344 0.06709 0.55075 0.0
H3058 H 0.13416 0.12786 0.4775 0.0
H3059 H 0.12592 0.14699 0.49895 0.0
H3060 H 0.10425 0.12595 0.47706 0.0
H3061 H 0.17124 0.09048 0.5417 0.0
H3062 H 0.15332 0.0772 0.56227 0.0
H3063 H 0.16475 0.10854 0.56557 0.0
C3064 C 0.18003 0.99147 0.75329 0.0
C3065 C 0.17293 0.99801 0.77498 0.0
C3066 C 0.19368 0.97629 0.75171 0.0
C3067 C 0.20056 0.96757 0.77235 0.0
C3068 C 0.19331 0.97395 0.79426 0.0
C3069 C 0.17949 0.98901 0.79529 0.0
C3070 C 0.20088 0.96972 0.72797 0.0
C3071 C 0.20041 0.9651 0.81668 0.0
C3072 C 0.22031 0.91309 0.76416 0.0
C3073 C 0.24425 0.92266 0.76795 0.0
C3074 C 0.20587 0.92748 0.76557 0.0
C3075 C 0.21562 0.95204 0.77106 0.0
C3076 C 0.23978 0.96181 0.77503 0.0
C3077 C 0.25381 0.947 0.77332 0.0
C3078 C 0.1802 0.91641 0.76098 0.0
C3079 C 0.25082 0.9879 0.78112 0.0
H3080 H 0.17497 0.99826 0.73748 0.0
H3081 H 0.17413 0.99402 0.81213 0.0
H3082 H 0.21985 0.97568 0.72955 0.0
H3083 H 0.19533 0.95043 0.72275 0.0
H3084 H 0.19356 0.97749 0.71346 0.0
H3085 H 0.19312 0.97149 0.83224 0.0
H3086 H 0.19475 0.94571 0.81368 0.0
H3087 H 0.21938 0.9708 0.82119 0.0
H3088 H 0.21284 0.89429 0.75972 0.0
H3089 H 0.2723 0.95444 0.77652 0.0
H3090 H 0.17253 0.92278 0.74557 0.0
H3091 H 0.17255 0.92159 0.77674 0.0
H3092 H 0.17537 0.89702 0.75714 0.0
H3093 H 0.2453 0.99661 0.76648 0.0
H3094 H 0.26986 0.99268 0.78404 0.0
H3095 H 0.24516 0.99491 0.79754 0.0
C3096 C 0.36088 0.97728 0.0521 0.0
C3097 C 0.35216 0.95401 0.05541 0.0
C3098 C 0.38449 0.98748 0.05296 0.0
C3099 C 0.39965 0.97392 0.05685 0.0
C3100 C 0.39107 0.95078 0.06135 0.0
C3101 C 0.36739 0.94113 0.06075 0.0
C3102 C 0.39306 0.01237 0.0485 0.0
C3103 C 0.4067 0.93573 0.06535 0.0
C3104 C 0.45289 0.99041 0.02739 0.0
C3105 C 0.46963 1.00297 0.04679 0.0
C3106 C 0.43019 0.98033 0.03061 0.0
C3107 C 0.42402 0.98319 0.05375 0.0
C3108 C 0.4409 0.99554 0.0735 0.0
C3109 C 0.46361 0.00515 0.0698 0.0
C3110 C 0.41273 0.96696 0.00915 0.0
C3111 C 0.43484 0.99918 0.09835 0.0
H3112 H 0.34918 0.98738 0.04821 0.0
H3113 H 0.36074 0.92311 0.0633 0.0
H3114 H 0.40778 0.02254 0.06233 0.0
H3115 H 0.3992 0.01249 0.03091 0.0
H3116 H 0.37948 0.02131 0.04847 0.0
H3117 H 0.39773 0.91902 0.07099 0.0
H3118 H 0.41335 0.93165 0.04853 0.0
H3119 H 0.4217 0.94521 0.07914 0.0
H3120 H 0.45752 0.9885 0.0096 0.0
H3121 H 0.47649 0.01497 0.08483 0.0
H3122 H 0.39943 0.97596 0.00599 0.0
H3123 H 0.40393 0.94918 0.01253 0.0
H3124 H 0.42059 0.96528 0.99263 0.0
H3125 H 0.42268 0.00978 0.09868 0.0
H3126 H 0.45017 0.00822 0.11197 0.0
H3127 H 0.42611 0.98215 0.10346 0.0
C3128 C 0.87911 0.60603 0.79521 0.0
C3129 C 0.88398 0.59053 0.77758 0.0
C3130 C 0.86451 0.61939 0.78926 0.0
C3131 C 0.85464 0.6172 0.7651 0.0
C3132 C 0.85944 0.60157 0.74724 0.0
C3133 C 0.87404 0.58839 0.75369 0.0
C3134 C 0.85974 0.63592 0.80879 0.0
C3135 C 0.84927 0.59888 0.7213 0.0
C3136 C 0.80218 0.63839 0.75507 0.0
C3137 C 0.812 0.66109 0.75066 0.0
C3138 C 0.81576 0.62355 0.75903 0.0
C3139 C 0.83965 0.6317 0.75857 0.0
C3140 C 0.84945 0.65422 0.75304 0.0
C3141 C 0.83547 0.66861 0.74905 0.0
C3142 C 0.80473 0.59955 0.76472 0.0
C3143 C 0.87484 0.66349 0.75225 0.0
H3144 H 0.88669 0.60774 0.81369 0.0
H3145 H 0.87774 0.57645 0.73995 0.0
H3146 H 0.86554 0.6541 0.80508 0.0
H3147 H 0.84102 0.63155 0.80921 0.0
H3148 H 0.86849 0.63529 0.82673 0.0
H3149 H 0.85447 0.5857 0.70963 0.0
H3150 H 0.83028 0.59361 0.71939 0.0
H3151 H 0.85478 0.61589 0.71482 0.0
H3152 H 0.78407 0.6326 0.75648 0.0
H3153 H 0.84303 0.68604 0.74524 0.0
H3154 H 0.8112 0.59867 0.78344 0.0
H3155 H 0.80939 0.58606 0.75296 0.0
H3156 H 0.78573 0.59519 0.76254 0.0
H3157 H 0.88461 0.66513 0.77029 0.0
H3158 H 0.87949 0.68087 0.74635 0.0
H3159 H 0.88037 0.65111 0.73994 0.0
C3160 C 0.83505 0.65964 0.0276 0.0
C3161 C 0.82305 0.66197 0.00606 0.0
C3162 C 0.85108 0.64693 0.02766 0.0
C3163 C 0.85524 0.6364 0.00567 0.0
C3164 C 0.84354 0.6391 0.98387 0.0
C3165 C 0.82757 0.65181 0.98433 0.0
C3166 C 0.86324 0.64439 0.05126 0.0
C3167 C 0.84758 0.62821 0.96006 0.0
C3168 C 0.90935 0.61764 0.00387 0.0
C3169 C 0.90094 0.59355 0.00408 0.0
C3170 C 0.89471 0.63187 0.00452 0.0
C3171 C 0.87113 0.62175 0.00541 0.0
C3172 C 0.86257 0.59746 0.00566 0.0
C3173 C 0.87757 0.58367 0.00501 0.0
C3174 C 0.90443 0.6577 0.00412 0.0
C3175 C 0.83754 0.58602 0.00669 0.0
H3176 H 0.83169 0.66746 0.04445 0.0
H3177 H 0.81847 0.65362 0.96759 0.0
H3178 H 0.85867 0.62569 0.05335 0.0
H3179 H 0.88209 0.65052 0.05168 0.0
H3180 H 0.85874 0.65439 0.06674 0.0
H3181 H 0.83781 0.63278 0.94471 0.0
H3182 H 0.8661 0.634 0.95856 0.0
H3183 H 0.84242 0.6089 0.95872 0.0
H3184 H 0.92736 0.62535 0.00296 0.0
H3185 H 0.87104 0.56514 0.00561 0.0
H3186 H 0.901 0.66795 0.02008 0.0
H3187 H 0.89588 0.66247 0.98813 0.0
H3188 H 0.92322 0.66291 0.00382 0.0
H3189 H 0.83253 0.59423 0.02293 0.0
H3190 H 0.83366 0.56695 0.00694 0.0
H3191 H 0.82674 0.58873 0.99099 0.0
C3192 C 0.19145 0.1168 0.79813 0.0
C3193 C 0.17255 0.11634 0.81005 0.0
C3194 C 0.20756 0.13801 0.79664 0.0
C3195 C 0.20485 0.15925 0.80757 0.0
C3196 C 0.18641 0.15885 0.82056 0.0
C3197 C 0.17038 0.13739 0.82151 0.0
C3198 C 0.22686 0.13775 0.78243 0.0
C3199 C 0.18313 0.18114 0.83271 0.0
C3200 C 0.2545 0.21512 0.81543 0.0
C3201 C 0.24783 0.22559 0.79632 0.0
C3202 C 0.24072 0.19345 0.81937 0.0
C3203 C 0.22004 0.18193 0.8036 0.0
C3204 C 0.21355 0.19221 0.78397 0.0
C3205 C 0.22744 0.21397 0.78068 0.0
C3206 C 0.24802 0.18311 0.84064 0.0
C3207 C 0.1918 0.18033 0.76654 0.0
H3208 H 0.19326 0.1006 0.78923 0.0
H3209 H 0.15595 0.13715 0.83094 0.0
H3210 H 0.22454 0.14595 0.7663 0.0
H3211 H 0.24358 0.14815 0.79315 0.0
H3212 H 0.22761 0.11974 0.77661 0.0
H3213 H 0.16928 0.17772 0.84397 0.0
H3214 H 0.1993 0.19211 0.8441 0.0
H3215 H 0.17871 0.19142 0.81902 0.0
H3216 H 0.27017 0.22412 0.82766 0.0
H3217 H 0.22227 0.22189 0.76576 0.0
H3218 H 0.24923 0.16533 0.83468 0.0
H3219 H 0.23492 0.18129 0.85278 0.0
H3220 H 0.26482 0.19401 0.85089 0.0
H3221 H 0.19187 0.16257 0.75872 0.0
H3222 H 0.18965 0.1903 0.75174 0.0
H3223 H 0.17671 0.17825 0.77602 0.0
C3224 C 0.3922 0.95282 0.28474 0.0
C3225 C 0.38187 0.97062 0.28238 0.0
C3226 C 0.37889 0.92955 0.2833 0.0
C3227 C 0.35468 0.92401 0.27955 0.0
C3228 C 0.34413 0.94184 0.27695 0.0
C3229 C 0.35786 0.96495 0.27834 0.0
C3230 C 0.39072 0.91094 0.28602 0.0
C3231 C 0.31835 0.93656 0.27302 0.0
C3232 C 0.31991 0.86106 0.25617 0.0
C3233 C 0.31377 0.85298 0.27727 0.0
C3234 C 0.33319 0.88418 0.25663 0.0
C3235 C 0.3404 0.89957 0.2787 0.0
C3236 C 0.33414 0.89158 0.30004 0.0
C3237 C 0.32093 0.86835 0.29907 0.0
C3238 C 0.33961 0.8921 0.23354 0.0
C3239 C 0.34147 0.90756 0.32389 0.0
H3240 H 0.41075 0.95706 0.2878 0.0
H3241 H 0.34975 0.97862 0.27656 0.0
H3242 H 0.38599 0.90261 0.30177 0.0
H3243 H 0.38496 0.89703 0.27009 0.0
H3244 H 0.4097 0.91807 0.28829 0.0
H3245 H 0.31284 0.95237 0.271 0.0
H3246 H 0.31077 0.92331 0.25676 0.0
H3247 H 0.31122 0.92905 0.28834 0.0
H3248 H 0.31447 0.84929 0.23925 0.0
H3249 H 0.31622 0.86226 0.31545 0.0
H3250 H 0.35855 0.89811 0.23474 0.0
H3251 H 0.33324 0.90717 0.23044 0.0
H3252 H 0.3325 0.87799 0.21786 0.0
H3253 H 0.36046 0.91399 0.32791 0.0
H3254 H 0.3349 0.8987 0.33877 0.0
H3255 H 0.33519 0.92307 0.32324 0.0
C3256 C 0.54795 0.37814 0.58653 0.0
C3257 C 0.5699 0.37517 0.58656 0.0
C3258 C 0.54284 0.398 0.57906 0.0
C3259 C 0.55983 0.41531 0.5708 0.0
C3260 C 0.58176 0.41195 0.57006 0.0
C3261 C 0.58655 0.39226 0.57814 0.0
C3262 C 0.51937 0.40083 0.58073 0.0
C3263 C 0.60038 0.42937 0.56097 0.0
C3264 C 0.54129 0.45825 0.53348 0.0
C3265 C 0.54692 0.47904 0.55008 0.0
C3266 C 0.54543 0.4376 0.53986 0.0
C3267 C 0.55501 0.43722 0.56365 0.0
C3268 C 0.56047 0.45809 0.58053 0.0
C3269 C 0.55664 0.47862 0.57354 0.0
C3270 C 0.53981 0.41619 0.52097 0.0
C3271 C 0.57031 0.45874 0.60616 0.0
H3272 H 0.53496 0.36534 0.59318 0.0
H3273 H 0.60356 0.39032 0.57795 0.0
H3274 H 0.521 0.41703 0.59323 0.0
H3275 H 0.51123 0.40271 0.56301 0.0
H3276 H 0.50788 0.38579 0.58707 0.0
H3277 H 0.61597 0.42357 0.55994 0.0
H3278 H 0.59399 0.43222 0.54293 0.0
H3279 H 0.60529 0.44647 0.57295 0.0
H3280 H 0.5339 0.45819 0.51529 0.0
H3281 H 0.56099 0.49436 0.58668 0.0
H3282 H 0.52717 0.40141 0.52641 0.0
H3283 H 0.5555 0.4108 0.5191 0.0
H3284 H 0.5327 0.41921 0.50325 0.0
H3285 H 0.55881 0.44484 0.61396 0.0
H3286 H 0.57268 0.47588 0.61743 0.0
H3287 H 0.58715 0.45522 0.6069 0.0
C3288 C 0.42983 0.80012 0.39366 0.0
C3289 C 0.43426 0.78003 0.40066 0.0
C3290 C 0.40949 0.79886 0.37876 0.0
C3291 C 0.39294 0.77692 0.37027 0.0
C3292 C 0.39712 0.75653 0.37744 0.0
C3293 C 0.41764 0.75833 0.3926 0.0
C3294 C 0.40584 0.82112 0.37189 0.0
C3295 C 0.38004 0.73277 0.3688 0.0
C3296 C 0.33246 0.77832 0.34656 0.0
C3297 C 0.33279 0.77691 0.32178 0.0
C3298 C 0.35158 0.77773 0.36244 0.0
C3299 C 0.37166 0.7755 0.35347 0.0
C3300 C 0.37189 0.77347 0.32843 0.0
C3301 C 0.35259 0.77429 0.31298 0.0
C3302 C 0.3505 0.78017 0.38894 0.0
C3303 C 0.39278 0.77096 0.31796 0.0
H3304 H 0.44237 0.81704 0.39981 0.0
H3305 H 0.4208 0.74268 0.39782 0.0
H3306 H 0.40454 0.82031 0.35221 0.0
H3307 H 0.38946 0.82309 0.37697 0.0
H3308 H 0.41997 0.83689 0.38058 0.0
H3309 H 0.38547 0.71868 0.37635 0.0
H3310 H 0.36304 0.73266 0.37376 0.0
H3311 H 0.37783 0.72882 0.34899 0.0
H3312 H 0.31737 0.78034 0.35371 0.0
H3313 H 0.35315 0.77306 0.29394 0.0
H3314 H 0.36323 0.79667 0.39828 0.0
H3315 H 0.35503 0.76561 0.39641 0.0
H3316 H 0.33324 0.78033 0.393 0.0
H3317 H 0.40737 0.78699 0.32436 0.0
H3318 H 0.38978 0.76805 0.29809 0.0
H3319 H 0.39793 0.75612 0.32407 0.0
C3320 C 0.03974 0.72654 0.09394 0.0
C3321 C 0.05344 0.74103 0.08035 0.0
C3322 C 0.03529 0.70197 0.08958 0.0
C3323 C 0.04418 0.69138 0.07071 0.0
C3324 C 0.05721 0.70591 0.05632 0.0
C3325 C 0.06195 0.73043 0.06152 0.0
C3326 C 0.02181 0.68743 0.10581 0.0
C3327 C 0.06656 0.69557 0.03562 0.0
C3328 C 0.05495 0.63183 0.07274 0.0
C3329 C 0.03549 0.61623 0.05804 0.0
C3330 C 0.05767 0.65607 0.07742 0.0
C3331 C 0.04084 0.66532 0.06669 0.0
C3332 C 0.02117 0.64966 0.05175 0.0
C3333 C 0.01862 0.6254 0.04785 0.0
C3334 C 0.07864 0.67181 0.09392 0.0
C3335 C 1.003 0.65858 0.03942 0.0
H3336 H 0.03331 0.73448 0.10873 0.0
H3337 H 0.07251 0.74139 0.05086 0.0
H3338 H 1.00696 0.67355 0.09514 0.0
H3339 H 0.03281 0.6786 0.11547 0.0
H3340 H 0.0154 0.69809 0.11916 0.0
H3341 H 0.07464 0.70891 0.0249 0.0
H3342 H 0.07958 0.68736 0.0424 0.0
H3343 H 0.05261 0.68164 0.0237 0.0
H3344 H 0.06804 0.62504 0.08089 0.0
H3345 H 1.00363 0.61366 0.03627 0.0
H3346 H 0.07344 0.68217 0.10857 0.0
H3347 H 0.08915 0.68438 0.08395 0.0
H3348 H 0.08951 0.66186 0.10192 0.0
H3349 H 0.99614 0.6687 0.05278 0.0
H3350 H 0.98851 0.6442 0.02877 0.0
H3351 H 0.0107 0.67063 0.02733 0.0
C3352 C 0.08283 0.28928 0.92441 0.0
C3353 C 0.05958 0.28488 0.91513 0.0
C3354 C 0.09971 0.29122 0.90937 0.0
C3355 C 0.09333 0.28864 0.88431 0.0
C3356 C 0.06989 0.28406 0.87476 0.0
C3357 C 0.05332 0.28227 0.89025 0.0
C3358 C 0.12447 0.2962 0.92037 0.0
C3359 C 0.06233 0.28113 0.84815 0.0
C3360 C 0.13983 0.31567 0.84829 0.0
C3361 C 0.14671 0.29632 0.83936 0.0
C3362 C 0.12234 0.31336 0.86262 0.0
C3363 C 0.11129 0.29113 0.86822 0.0
C3364 C 0.11799 0.27148 0.8591 0.0
C3365 C 0.13561 0.27431 0.84486 0.0
C3366 C 0.11592 0.33481 0.87211 0.0
C3367 C 0.10662 0.24746 0.86451 0.0
H3368 H 0.08793 0.29135 0.94357 0.0
H3369 H 0.03545 0.27884 0.88285 0.0
H3370 H 0.13141 0.28213 0.91297 0.0
H3371 H 0.13494 0.3128 0.91576 0.0
H3372 H 0.12662 0.29756 0.94016 0.0
H3373 H 0.04345 0.27721 0.84349 0.0
H3374 H 0.07076 0.29732 0.84132 0.0
H3375 H 0.06771 0.26676 0.83876 0.0
H3376 H 0.14848 0.3328 0.84447 0.0
H3377 H 0.14056 0.25921 0.83783 0.0
H3378 H 0.11929 0.33796 0.89195 0.0
H3379 H 0.09732 0.33206 0.86671 0.0
H3380 H 0.12565 0.3507 0.86558 0.0
H3381 H 0.10942 0.24752 0.88409 0.0
H3382 H 0.11331 0.23386 0.85554 0.0
H3383 H 0.08783 0.24261 0.85869 0.0
C3384 C 0.53802 0.75646 0.90387 0.0
C3385 C 0.55508 0.77747 0.91354 0.0
C3386 C 0.53372 0.73727 0.91631 0.0
C3387 C 0.54693 0.739 0.93887 0.0
C3388 C 0.56432 0.76008 0.94858 0.0
C3389 C 0.56808 0.77905 0.93589 0.0
C3390 C 0.51487 0.71522 0.90543 0.0
C3391 C 0.57897 0.76264 0.97243 0.0
C3392 C 0.52395 0.69893 0.98303 0.0
C3393 C 0.53564 0.682 0.98005 0.0
C3394 C 0.52709 0.71721 0.96942 0.0
C3395 C 0.5425 0.7189 0.95251 0.0
C3396 C 0.55422 0.70182 0.94925 0.0
C3397 C 0.55057 0.68357 0.96292 0.0
C3398 C 0.51414 0.73495 0.97341 0.0
C3399 C 0.57088 0.703 0.93151 0.0
H3400 H 0.52782 0.75507 0.88667 0.0
H3401 H 0.58137 0.79513 0.94351 0.0
H3402 H 0.52198 0.7002 0.9032 0.0
H3403 H 0.50187 0.71128 0.91759 0.0
H3404 H 0.50617 0.71661 0.88773 0.0
H3405 H 0.59208 0.78001 0.97731 0.0
H3406 H 0.568 0.76022 0.98668 0.0
H3407 H 0.58783 0.7489 0.97202 0.0
H3408 H 0.51265 0.69822 0.99641 0.0
H3409 H 0.5594 0.67043 0.96008 0.0
H3410 H 0.50446 0.73617 0.95622 0.0
H3411 H 0.5264 0.75248 0.98032 0.0
H3412 H 0.50192 0.73054 0.98631 0.0
H3413 H 0.56213 0.70286 0.91336 0.0
H3414 H 0.5784 0.68821 0.93083 0.0
H3415 H 0.58502 0.71962 0.93635 0.0
C3416 C 0.11516 0.77439 0.71028 0.0
C3417 C 0.09857 0.77414 0.72555 0.0
C3418 C 0.1383 0.77709 0.71908 0.0
C3419 C 0.14557 0.77962 0.74399 0.0
C3420 C 0.12904 0.7796 0.75966 0.0
C3421 C 0.10583 0.77691 0.75031 0.0
C3422 C 0.15501 0.77708 0.70152 0.0
C3423 C 0.13586 0.78224 0.78632 0.0
C3424 C 0.20166 0.76465 0.76161 0.0
C3425 C 0.2182 0.78673 0.76633 0.0
C3426 C 0.17803 0.76216 0.75519 0.0
C3427 C 0.17043 0.78218 0.75329 0.0
C3428 C 0.187 0.80453 0.75848 0.0
C3429 C 0.21048 0.80652 0.7649 0.0
C3430 C 0.16121 0.73795 0.74987 0.0
C3431 C 0.18002 0.82645 0.75667 0.0
H3432 H 0.11006 0.77235 0.69113 0.0
H3433 H 0.09335 0.77671 0.76238 0.0
H3434 H 0.16932 0.7936 0.70569 0.0
H3435 H 0.16258 0.76253 0.70309 0.0
H3436 H 0.1468 0.77519 0.68271 0.0
H3437 H 0.12124 0.78219 0.79621 0.0
H3438 H 0.14271 0.76776 0.7906 0.0
H3439 H 0.14976 0.79881 0.79282 0.0
H3440 H 0.20718 0.74917 0.76268 0.0
H3441 H 0.22288 0.82373 0.76851 0.0
H3442 H 0.15338 0.73405 0.73075 0.0
H3443 H 0.1471 0.73697 0.76066 0.0
H3444 H 0.16945 0.72427 0.75365 0.0
H3445 H 0.17296 0.82634 0.73786 0.0
H3446 H 0.19463 0.84259 0.76268 0.0
H3447 H 0.16627 0.82704 0.76761 0.0
C3448 C 0.02912 0.38575 0.42335 0.0
C3449 C 0.0456 0.38361 0.40861 0.0
C3450 C 0.03052 0.40715 0.43733 0.0
C3451 C 0.04886 0.42729 0.43674 0.0
C3452 C 0.06564 0.42536 0.42195 0.0
C3453 C 0.06385 0.40358 0.40812 0.0
C3454 C 0.01227 0.40815 0.45282 0.0
C3455 C 0.08543 0.44636 0.42067 0.0
C3456 C 0.0381 0.48548 0.45853 0.0
C3457 C 0.04898 0.49077 0.48243 0.0
C3458 C 0.03874 0.46549 0.4432 0.0
C3459 C 0.05035 0.45011 0.45189 0.0
C3460 C 0.0618 0.45565 0.47583 0.0
C3461 C 0.06105 0.47584 0.4907 0.0
C3462 C 0.02642 0.4605 0.41782 0.0
C3463 C 0.07426 0.4398 0.48602 0.0
H3464 H 0.01492 0.37056 0.42403 0.0
H3465 H 0.07665 0.40225 0.39681 0.0
H3466 H 0.02025 0.41406 0.47182 0.0
H3467 H 1.00354 0.42105 0.44765 0.0
H3468 H 0.99913 0.39095 0.45135 0.0
H3469 H 0.09699 0.44212 0.40829 0.0
H3470 H 0.07884 0.4604 0.4146 0.0
H3471 H 0.09557 0.45342 0.43872 0.0
H3472 H 0.02883 0.49684 0.45179 0.0
H3473 H 0.06958 0.47963 0.50906 0.0
H3474 H 0.01158 0.44452 0.41548 0.0
H3475 H 0.03798 0.45711 0.40509 0.0
H3476 H 0.02005 0.47516 0.41308 0.0
H3477 H 0.06179 0.42267 0.48661 0.0
H3478 H 0.0836 0.44727 0.50438 0.0
H3479 H 0.08671 0.43646 0.47437 0.0
C3480 C 0.43259 0.26657 0.20837 0.0
C3481 C 0.4514 0.26314 0.22252 0.0
C3482 C 0.41286 0.26897 0.21782 0.0
C3483 C 0.41127 0.2679 0.24231 0.0
C3484 C 0.43006 0.26426 0.25679 0.0
C3485 C 0.4498 0.26199 0.24683 0.0
C3486 C 0.39364 0.27287 0.20143 0.0
C3487 C 0.42935 0.26286 0.28293 0.0
C3488 C 0.36884 0.29718 0.26881 0.0
C3489 C 0.34891 0.27832 0.26772 0.0
C3490 C 0.38921 0.29394 0.26141 0.0
C3491 C 0.39019 0.27122 0.25253 0.0
C3492 C 0.37029 0.25203 0.25178 0.0
C3493 C 0.35009 0.25576 0.25932 0.0
C3494 C 0.40963 0.31509 0.26254 0.0
C3495 C 0.37021 0.22747 0.24258 0.0
H3496 H 0.43325 0.26755 0.18959 0.0
H3497 H 0.46397 0.25932 0.25811 0.0
H3498 H 0.37742 0.25896 0.20133 0.0
H3499 H 0.39088 0.2898 0.20808 0.0
H3500 H 0.39721 0.27298 0.18275 0.0
H3501 H 0.44493 0.25954 0.29181 0.0
H3502 H 0.42772 0.27944 0.2923 0.0
H3503 H 0.41405 0.24868 0.28498 0.0
H3504 H 0.36848 0.31473 0.27519 0.0
H3505 H 0.33505 0.24092 0.2583 0.0
H3506 H 0.41328 0.31726 0.24419 0.0
H3507 H 0.42508 0.31262 0.27263 0.0
H3508 H 0.4068 0.3314 0.27116 0.0
H3509 H 0.37387 0.22625 0.22391 0.0
H3510 H 0.35355 0.21439 0.24298 0.0
H3511 H 0.38396 0.22291 0.25353 0.0
C3512 C 0.62531 0.55865 0.385 0.0
C3513 C 0.61654 0.5412 0.36487 0.0
C3514 C 0.61511 0.55764 0.40587 0.0
C3515 C 0.59608 0.53832 0.40693 0.0
C3516 C 0.58738 0.52041 0.38677 0.0
C3517 C 0.59749 0.52226 0.36583 0.0
C3518 C 0.62447 0.57747 0.42662 0.0
C3519 C 0.5675 0.49925 0.3874 0.0
C3520 C 0.58293 0.52817 0.46931 0.0
C3521 C 0.56421 0.53703 0.47087 0.0
C3522 C 0.59311 0.52788 0.44837 0.0
C3523 C 0.58482 0.53735 0.42885 0.0
C3524 C 0.56609 0.54655 0.43052 0.0
C3525 C 0.55582 0.54596 0.45134 0.0
C3526 C 0.61269 0.5174 0.44708 0.0
C3527 C 0.55715 0.55747 0.4105 0.0
H3528 H 0.63995 0.57341 0.38427 0.0
H3529 H 0.59082 0.50863 0.35037 0.0
H3530 H 0.61077 0.58533 0.43095 0.0
H3531 H 0.63021 0.5708 0.44277 0.0
H3532 H 0.63915 0.5914 0.4228 0.0
H3533 H 0.56357 0.48629 0.37073 0.0
H3534 H 0.57137 0.49063 0.4028 0.0
H3535 H 0.55196 0.50466 0.38994 0.0
H3536 H 0.58936 0.52113 0.48432 0.0
H3537 H 0.5415 0.55306 0.45254 0.0
H3538 H 0.62846 0.53101 0.44511 0.0
H3539 H 0.60867 0.50362 0.43111 0.0
H3540 H 0.61632 0.50966 0.46325 0.0
H3541 H 0.57114 0.57217 0.4068 0.0
H3542 H 0.54268 0.56417 0.41476 0.0
H3543 H 0.55126 0.54448 0.39385 0.0
C3544 C 0.26013 0.87388 0.07544 0.0
C3545 C 0.25149 0.86975 0.05101 0.0
C3546 C 0.25996 0.85534 0.088 0.0
C3547 C 0.251 0.83207 0.07576 0.0
C3548 C 0.24112 0.82771 0.0514 0.0
C3549 C 0.24145 0.84667 0.03926 0.0
C3550 C 0.27034 0.86072 0.11413 0.0
C3551 C 0.23124 0.80312 0.0379 0.0
C3552 C 0.28017 0.79432 0.10714 0.0
C3553 C 0.26512 0.78711 0.12332 0.0
C3554 C 0.27466 0.80709 0.08961 0.0
C3555 C 0.25368 0.81272 0.08843 0.0
C3556 C 0.23737 0.80316 0.10292 0.0
C3557 C 0.2433 0.7904 0.12023 0.0
C3558 C 0.29238 0.8167 0.07418 0.0
C3559 C 0.21468 0.80845 0.10204 0.0
H3560 H 0.26768 0.89168 0.08466 0.0
H3561 H 0.23473 0.84338 0.02034 0.0
H3562 H 0.25797 0.8513 0.12495 0.0
H3563 H 0.28579 0.85462 0.11656 0.0
H3564 H 0.27538 0.87971 0.12126 0.0
H3565 H 0.22132 0.80262 0.0202 0.0
H3566 H 0.24538 0.79544 0.03497 0.0
H3567 H 0.21991 0.79191 0.0484 0.0
H3568 H 0.29704 0.79177 0.10946 0.0
H3569 H 0.23146 0.78439 0.13247 0.0
H3570 H 0.30067 0.83559 0.08087 0.0
H3571 H 0.28424 0.81497 0.05541 0.0
H3572 H 0.30592 0.8077 0.07444 0.0
H3573 H 0.21733 0.82596 0.11262 0.0
H3574 H 0.20203 0.79544 0.10976 0.0
H3575 H 0.20736 0.80878 0.08344 0.0
C3576 C 0.971 0.56296 0.88819 0.0
C3577 C 0.97375 0.55009 0.8671 0.0
C3578 C 0.98363 0.56282 0.91023 0.0
C3579 C 0.99938 0.54955 0.9111 0.0
C3580 C 1.00254 0.53688 0.88983 0.0
C3581 C 0.98968 0.5373 0.86808 0.0
C3582 C 0.9798 0.57648 0.93265 0.0
C3583 C 0.01912 0.52246 0.89011 0.0
C3584 C 0.044 0.56338 0.96673 0.0
C3585 C 0.0333 0.54674 0.98012 0.0
C3586 C 0.03334 0.56429 0.94391 0.0
C3587 C 0.01171 0.54799 0.93444 0.0
C3588 C 1.0015 0.53044 0.94754 0.0
C3589 C 0.01253 0.53 0.97024 0.0
C3590 C 0.04475 0.58317 0.93037 0.0
C3591 C 0.97858 0.51259 0.93797 0.0
H3592 H 0.95875 0.57289 0.88755 0.0
H3593 H 0.99198 0.52737 0.85185 0.0
H3594 H 0.97283 0.56434 0.94497 0.0
H3595 H 0.99634 0.58865 0.94217 0.0
H3596 H 0.96769 0.58672 0.92878 0.0
H3597 H 0.02031 0.51447 0.87185 0.0
H3598 H 0.03647 0.53347 0.89878 0.0
H3599 H 0.01359 0.50828 0.90081 0.0
H3600 H 0.06016 0.57627 0.97452 0.0
H3601 H 1.00472 0.51675 0.98047 0.0
H3602 H 0.03404 0.59511 0.9282 0.0
H3603 H 0.04624 0.57536 0.91217 0.0
H3604 H 0.06212 0.59363 0.93964 0.0
H3605 H 0.96508 0.52152 0.936 0.0
H3606 H 0.97365 0.49936 0.94989 0.0
H3607 H 0.97898 0.50344 0.91998 0.0
C3608 C 0.29766 0.26713 0.60045 0.0
C3609 C 0.28423 0.24487 0.58885 0.0
C3610 C 0.29617 0.27514 0.62431 0.0
C3611 C 0.28079 0.26059 0.63678 0.0
C3612 C 0.26657 0.2385 0.62482 0.0
C3613 C 0.2685 0.2309 0.60109 0.0
C3614 C 0.31168 0.29878 0.63647 0.0
C3615 C 0.24988 0.22246 0.63738 0.0
C3616 C 0.29483 0.26534 0.70405 0.0
C3617 C 0.27987 0.27728 0.71251 0.0
C3618 C 0.29563 0.26037 0.67954 0.0
C3619 C 0.28101 0.26734 0.66289 0.0
C3620 C 0.26603 0.27964 0.67122 0.0
C3621 C 0.26569 0.28455 0.69597 0.0
C3622 C 0.31196 0.24734 0.67149 0.0
C3623 C 0.25013 0.28727 0.65397 0.0
H3624 H 0.3098 0.27807 0.59112 0.0
H3625 H 0.25783 0.21377 0.59223 0.0
H3626 H 0.30158 0.30919 0.64514 0.0
H3627 H 0.32434 0.29649 0.65075 0.0
H3628 H 0.32115 0.30883 0.62378 0.0
H3629 H 0.2387 0.20674 0.62502 0.0
H3630 H 0.25947 0.21662 0.65188 0.0
H3631 H 0.23886 0.23189 0.64581 0.0
H3632 H 0.3061 0.25986 0.71661 0.0
H3633 H 0.25416 0.29385 0.70232 0.0
H3634 H 0.32326 0.2574 0.66014 0.0
H3635 H 0.30213 0.23028 0.66045 0.0
H3636 H 0.3229 0.24405 0.68677 0.0
H3637 H 0.26007 0.29804 0.64212 0.0
H3638 H 0.24023 0.29753 0.6633 0.0
H3639 H 0.23788 0.2717 0.64236 0.0
C3640 C 0.57198 0.55506 0.22672 0.0
C3641 C 0.59026 0.54588 0.2321 0.0
C3642 C 0.56349 0.55567 0.2029 0.0
C3643 C 0.5738 0.54731 0.18402 0.0
C3644 C 0.59228 0.53805 0.18937 0.0
C3645 C 0.60012 0.53725 0.21327 0.0
C3646 C 0.54346 0.56522 0.19792 0.0
C3647 C 0.60397 0.52923 0.16983 0.0
C3648 C 0.54181 0.5281 0.12044 0.0
C3649 C 0.55108 0.54751 0.10951 0.0
C3650 C 0.54849 0.52812 0.14482 0.0
C3651 C 0.56517 0.54789 0.15862 0.0
C3652 C 0.57431 0.56773 0.14781 0.0
C3653 C 0.567 0.56738 0.12342 0.0
C3654 C 0.53802 0.50675 0.15567 0.0
C3655 C 0.59238 0.58901 0.1618 0.0
H3656 H 0.56423 0.56172 0.24115 0.0
H3657 H 0.61439 0.53032 0.21723 0.0
H3658 H 0.54853 0.58052 0.18859 0.0
H3659 H 0.52917 0.5518 0.18589 0.0
H3660 H 0.53707 0.57064 0.21453 0.0
H3661 H 0.61844 0.52306 0.177 0.0
H3662 H 0.59144 0.51459 0.15726 0.0
H3663 H 0.61062 0.54333 0.15937 0.0
H3664 H 0.52934 0.51272 0.10988 0.0
H3665 H 0.57433 0.58238 0.11507 0.0
H3666 H 0.53081 0.51178 0.17181 0.0
H3667 H 0.55145 0.49863 0.16142 0.0
H3668 H 0.5242 0.49344 0.14292 0.0
H3669 H 0.58619 0.5957 0.17799 0.0
H3670 H 0.59718 0.6033 0.15105 0.0
H3671 H 0.608 0.58418 0.16795 0.0
C3672 C 0.30084 0.87534 0.96252 0.0
C3673 C 0.28724 0.89035 0.96597 0.0
C3674 C 0.29982 0.86267 0.93993 0.0
C3675 C 0.28473 0.86498 0.92036 0.0
C3676 C 0.27067 0.87979 0.92376 0.0
C3677 C 0.27215 0.89239 0.94656 0.0
C3678 C 0.3152 0.84715 0.93691 0.0
C3679 C 0.2543 0.88254 0.90327 0.0
C3680 C 0.30026 0.85188 0.85885 0.0
C3681 C 0.28603 0.82897 0.85086 0.0
C3682 C 0.29977 0.86387 0.88132 0.0
C3683 C 0.28457 0.85274 0.89612 0.0
C3684 C 0.2699 0.82976 0.88808 0.0
C3685 C 0.27085 0.81809 0.86553 0.0
C3686 C 0.31578 0.88833 0.88937 0.0
C3687 C 0.25338 0.81746 0.9034 0.0
H3688 H 0.31253 0.87366 0.97745 0.0
H3689 H 0.26149 0.90385 0.94916 0.0
H3690 H 0.30479 0.82904 0.92911 0.0
H3691 H 0.32716 0.85346 0.92429 0.0
H3692 H 0.32543 0.84673 0.95411 0.0
H3693 H 0.24377 0.89387 0.90914 0.0
H3694 H 0.26406 0.89028 0.88951 0.0
H3695 H 0.24266 0.86519 0.89459 0.0
H3696 H 0.31204 0.86045 0.84765 0.0
H3697 H 0.25971 0.80044 0.85942 0.0
H3698 H 0.32757 0.88879 0.90578 0.0
H3699 H 0.30583 0.90064 0.89394 0.0
H3700 H 0.3262 0.89467 0.87547 0.0
H3701 H 0.26303 0.81533 0.9202 0.0
H3702 H 0.24251 0.79995 0.89415 0.0
H3703 H 0.24206 0.82817 0.90849 0.0
C3704 C 0.97962 0.56584 0.75094 0.0
C3705 C 0.98754 0.5781 0.77424 0.0
C3706 C 0.99479 0.56462 0.73462 0.0
C3707 C 0.01853 0.5759 0.74178 0.0
C3708 C 0.02664 0.5889 0.76503 0.0
C3709 C 0.01099 0.58987 0.78106 0.0
C3710 C 0.9854 0.55078 0.70984 0.0
C3711 C 0.05183 0.60128 0.7731 0.0
C3712 C 0.0514 0.54671 0.70268 0.0
C3713 C 0.05285 0.56004 0.68416 0.0
C3714 C 0.04228 0.55306 0.72307 0.0
C3715 C 0.03455 0.57318 0.72479 0.0
C3716 C 0.03837 0.58804 0.70734 0.0
C3717 C 0.04745 0.58123 0.68714 0.0
C3718 C 0.03867 0.53688 0.74142 0.0
C3719 C 0.03068 0.6098 0.70859 0.0
H3720 H 0.9615 0.55687 0.74549 0.0
H3721 H 0.0172 0.59938 0.79907 0.0
H3722 H 0.99029 0.56203 0.69613 0.0
H3723 H 0.99288 0.53608 0.70687 0.0
H3724 H 0.96641 0.54351 0.707 0.0
H3725 H 0.05514 0.61203 0.79112 0.0
H3726 H 0.06148 0.58824 0.77361 0.0
H3727 H 0.05869 0.61275 0.76017 0.0
H3728 H 0.05562 0.53035 0.70037 0.0
H3729 H 0.04898 0.59176 0.67294 0.0
H3730 H 0.02029 0.52661 0.73892 0.0
H3731 H 0.04312 0.54696 0.75981 0.0
H3732 H 0.04905 0.52448 0.73977 0.0
H3733 H 0.01211 0.60486 0.70148 0.0
H3734 H 0.04005 0.62224 0.69769 0.0
H3735 H 0.03319 0.61883 0.72728 0.0
C3736 C 0.26668 0.25066 0.4581 0.0
C3737 C 0.27796 0.23525 0.46657 0.0
C3738 C 0.2698 0.25818 0.43599 0.0
C3739 C 0.28443 0.24997 0.42188 0.0
C3740 C 0.29633 0.2349 0.43059 0.0
C3741 C 0.29303 0.2278 0.45285 0.0
C3742 C 0.25696 0.27443 0.42743 0.0
C3743 C 0.31198 0.22565 0.41606 0.0
C3744 C 0.27185 0.24848 0.35475 0.0
C3745 C 0.28856 0.26851 0.35126 0.0
C3746 C 0.27059 0.24208 0.37754 0.0
C3747 C 0.28629 0.25615 0.39746 0.0
C3748 C 0.30342 0.27622 0.39404 0.0
C3749 C 0.30442 0.2821 0.37097 0.0
C3750 C 0.25221 0.22041 0.38035 0.0
C3751 C 0.3204 0.29172 0.41484 0.0
H3752 H 0.2551 0.25661 0.46859 0.0
H3753 H 0.30183 0.21589 0.45919 0.0
H3754 H 0.26905 0.28999 0.42259 0.0
H3755 H 0.24457 0.26541 0.41109 0.0
H3756 H 0.2474 0.2804 0.44114 0.0
H3757 H 0.32092 0.21509 0.42589 0.0
H3758 H 0.30186 0.21458 0.39924 0.0
H3759 H 0.32504 0.24032 0.41098 0.0
H3760 H 0.25958 0.23779 0.33963 0.0
H3761 H 0.31733 0.29767 0.36849 0.0
H3762 H 0.24057 0.22522 0.39228 0.0
H3763 H 0.26012 0.20834 0.38887 0.0
H3764 H 0.2418 0.21094 0.36297 0.0
H3765 H 0.31114 0.29913 0.42792 0.0
H3766 H 0.33303 0.30636 0.40912 0.0
H3767 H 0.32983 0.28134 0.42427 0.0
C3768 C 0.3335 0.61541 0.50753 0.0
C3769 C 0.34111 0.62782 0.53085 0.0
C3770 C 0.34327 0.59833 0.49855 0.0
C3771 C 0.36124 0.59386 0.51315 0.0
C3772 C 0.36925 0.6066 0.53655 0.0
C3773 C 0.35895 0.62333 0.54519 0.0
C3774 C 0.33428 0.58495 0.47356 0.0
C3775 C 0.38869 0.60254 0.55246 0.0
C3776 C 0.37564 0.5367 0.50339 0.0
C3777 C 0.39557 0.54321 0.49291 0.0
C3778 C 0.36354 0.55273 0.50898 0.0
C3779 C 0.37176 0.5758 0.50411 0.0
C3780 C 0.39115 0.58208 0.49234 0.0
C3781 C 0.40284 0.56566 0.48686 0.0
C3782 C 0.34269 0.54535 0.52119 0.0
C3783 C 0.40054 0.60654 0.48697 0.0
H3784 H 0.31962 0.61874 0.4964 0.0
H3785 H 0.36496 0.63299 0.56317 0.0
H3786 H 0.34833 0.58746 0.46257 0.0
H3787 H 0.32788 0.56597 0.4742 0.0
H3788 H 0.32015 0.59052 0.46452 0.0
H3789 H 0.39316 0.61424 0.57003 0.0
H3790 H 0.38395 0.58414 0.55565 0.0
H3791 H 0.40417 0.60544 0.54351 0.0
H3792 H 0.36996 0.51928 0.50792 0.0
H3793 H 0.41846 0.57087 0.47909 0.0
H3794 H 0.32817 0.55021 0.51205 0.0
H3795 H 0.34656 0.55464 0.5399 0.0
H3796 H 0.33721 0.52623 0.52149 0.0
H3797 H 0.38653 0.6132 0.47959 0.0
H3798 H 0.41293 0.60737 0.47407 0.0
H3799 H 0.40949 0.61842 0.5038 0.0
C3800 C 0.85705 0.95734 0.54718 0.0
C3801 C 0.85262 0.94788 0.56807 0.0
C3802 C 0.87884 0.97182 0.54544 0.0
C3803 C 0.89673 0.97693 0.56503 0.0
C3804 C 0.8922 0.96813 0.58648 0.0
C3805 C 0.87017 0.95373 0.58777 0.0
C3806 C 0.88294 0.98092 0.52228 0.0
C3807 C 0.91085 0.97319 0.60774 0.0
C3808 C 0.95673 0.98934 0.54895 0.0
C3809 C 0.9648 0.01385 0.55396 0.0
C3810 C 0.93484 0.97718 0.553 0.0
C3811 C 0.92052 0.98977 0.56224 0.0
C3812 C 0.92863 0.01448 0.56775 0.0
C3813 C 0.95072 0.02625 0.56359 0.0
C3814 C 0.9269 0.95081 0.54699 0.0
C3815 C 0.91381 0.02847 0.5776 0.0
H3816 H 0.84356 0.95309 0.53192 0.0
H3817 H 0.86689 0.94657 0.604 0.0
H3818 H 0.89099 1.00013 0.52579 0.0
H3819 H 0.895 0.97299 0.51376 0.0
H3820 H 0.86685 0.97687 0.50943 0.0
H3821 H 0.90412 0.96676 0.62374 0.0
H3822 H 0.92403 0.96465 0.6032 0.0
H3823 H 0.91953 0.99225 0.61234 0.0
H3824 H 0.96751 0.97953 0.54174 0.0
H3825 H 0.95681 0.04516 0.56756 0.0
H3826 H 0.91179 0.94515 0.53266 0.0
H3827 H 0.92145 0.94309 0.56285 0.0
H3828 H 0.94048 0.9436 0.54087 0.0
H3829 H 0.89833 0.02592 0.56431 0.0
H3830 H 0.92302 0.04746 0.58202 0.0
H3831 H 0.90783 0.02223 0.59395 0.0
C3832 C 0.88295 0.08351 0.28503 0.0
C3833 C 0.90636 0.09388 0.28463 0.0
C3834 C 0.86788 0.09712 0.28739 0.0
C3835 C 0.87641 0.12171 0.28936 0.0
C3836 C 0.90004 0.13233 0.28918 0.0
C3837 C 0.91475 0.11829 0.28684 0.0
C3838 C 0.84279 0.08517 0.28757 0.0
C3839 C 0.90975 0.15851 0.29122 0.0
C3840 C 0.83482 0.15538 0.27209 0.0
C3841 C 0.83088 0.16459 0.29451 0.0
C3842 C 0.84953 0.14134 0.27016 0.0
C3843 C 0.86052 0.1363 0.29117 0.0
C3844 C 0.85639 0.14527 0.31385 0.0
C3845 C 0.84164 0.15933 0.31525 0.0
C3846 C 0.85343 0.13202 0.24565 0.0
C3847 C 0.8678 0.14026 0.33664 0.0
H3848 H 0.8763 0.06467 0.28339 0.0
H3849 H 0.9328 0.12645 0.28656 0.0
H3850 H 0.83744 0.09212 0.30421 0.0
H3851 H 0.83222 0.08892 0.27233 0.0
H3852 H 0.83898 0.06592 0.28633 0.0
H3853 H 0.92859 0.16407 0.29123 0.0
H3854 H 0.9014 0.16466 0.27608 0.0
H3855 H 0.90606 0.16732 0.30793 0.0
H3856 H 0.82633 0.15912 0.25598 0.0
H3857 H 0.83892 0.16664 0.33264 0.0
H3858 H 0.84847 0.11265 0.24298 0.0
H3859 H 0.87192 0.13831 0.24412 0.0
H3860 H 0.8435 0.13748 0.23109 0.0
H3861 H 0.86365 0.12111 0.33635 0.0
H3862 H 0.8624 0.14813 0.35283 0.0
H3863 H 0.88671 0.14723 0.33805 0.0
C3864 C 0.70954 0.11532 0.04701 0.0
C3865 C 0.72115 0.1201 0.02756 0.0
C3866 C 0.68572 0.10551 0.04369 0.0
C3867 C 0.67322 0.09988 0.02026 0.0
C3868 C 0.68481 0.1045 0.00045 0.0
C3869 C 0.7087 0.1148 0.00437 0.0
C3870 C 0.67393 0.10115 0.06532 0.0
C3871 C 0.67206 0.09817 0.97519 0.0
C3872 C 0.6167 0.05397 0.01797 0.0
C3873 C 0.60184 0.06774 0.02055 0.0
C3874 C 0.63972 0.06403 0.01587 0.0
C3875 C 0.64811 0.08851 0.01684 0.0
C3876 C 0.63284 0.10231 0.01791 0.0
C3877 C 0.60974 0.09168 0.01953 0.0
C3878 C 0.65533 0.04865 0.01414 0.0
C3879 C 0.6412 0.12848 0.01907 0.0
H3880 H 0.71905 0.11963 0.06499 0.0
H3881 H 0.71768 0.11841 0.98928 0.0
H3882 H 0.66031 0.10999 0.06572 0.0
H3883 H 0.66554 0.08215 0.06427 0.0
H3884 H 0.68604 0.1075 0.08238 0.0
H3885 H 0.68331 0.10446 0.96192 0.0
H3886 H 0.66484 0.0789 0.97057 0.0
H3887 H 0.65743 0.1056 0.97361 0.0
H3888 H 0.61049 0.03534 0.01821 0.0
H3889 H 0.59821 0.10232 0.02131 0.0
H3890 H 0.66687 0.05174 0.0314 0.0
H3891 H 0.66629 0.05298 1.00014 0.0
H3892 H 0.64556 0.02979 0.01 0.0
H3893 H 0.65184 0.13654 0.03671 0.0
H3894 H 0.6268 0.13621 0.01675 0.0
H3895 H 0.65217 0.1331 0.00515 0.0
C3896 C 0.20009 0.48437 0.27862 0.0
C3897 C 0.19674 0.48408 0.25381 0.0
C3898 C 0.21536 0.47368 0.28915 0.0
C3899 C 0.22738 0.46223 0.27447 0.0
C3900 C 0.22414 0.46189 0.24943 0.0
C3901 C 0.2089 0.47295 0.23938 0.0
C3902 C 0.21852 0.4745 0.31594 0.0
C3903 C 0.23652 0.44958 0.23324 0.0
C3904 C 0.28066 0.44949 0.30259 0.0
C3905 C 0.27187 0.42593 0.30487 0.0
C3906 C 0.26632 0.46166 0.2929 0.0
C3907 C 0.24273 0.44988 0.28526 0.0
C3908 C 0.23372 0.42619 0.2878 0.0
C3909 C 0.24841 0.41451 0.2976 0.0
C3910 C 0.27642 0.48699 0.29058 0.0
C3911 C 0.20866 0.41305 0.27981 0.0
H3912 H 0.19087 0.4931 0.28991 0.0
H3913 H 0.20635 0.47265 0.2202 0.0
H3914 H 0.21312 0.4565 0.32021 0.0
H3915 H 0.23691 0.48225 0.32358 0.0
H3916 H 0.20848 0.48485 0.32489 0.0
H3917 H 0.2324 0.45129 0.21419 0.0
H3918 H 0.25533 0.45682 0.23885 0.0
H3919 H 0.23181 0.43073 0.23473 0.0
H3920 H 0.29877 0.45835 0.30828 0.0
H3921 H 0.24161 0.39616 0.29887 0.0
H3922 H 0.26726 0.49791 0.30014 0.0
H3923 H 0.27412 0.4891 0.27148 0.0
H3924 H 0.29499 0.49372 0.29787 0.0
H3925 H 0.19789 0.42158 0.28987 0.0
H3926 H 0.20454 0.39451 0.28255 0.0
H3927 H 0.20382 0.41348 0.26056 0.0
C3928 C 0.23165 0.43701 0.05135 0.0
C3929 C 0.24679 0.43742 0.07186 0.0
C3930 C 0.21528 0.44925 0.05231 0.0
C3931 C 0.21392 0.46211 0.07433 0.0
C3932 C 0.22895 0.46236 0.09516 0.0
C3933 C 0.24524 0.45007 0.09366 0.0
C3934 C 0.19961 0.44863 0.02969 0.0
C3935 C 0.22792 0.47577 0.11899 0.0
C3936 C 0.18722 0.51179 0.07257 0.0
C3937 C 0.16495 0.50129 0.07692 0.0
C3938 C 0.20333 0.49924 0.07172 0.0
C3939 C 0.19706 0.47567 0.07546 0.0
C3940 C 0.17465 0.46503 0.08007 0.0
C3941 C 0.15884 0.47795 0.08067 0.0
C3942 C 0.227 0.51115 0.06658 0.0
C3943 C 0.16739 0.43999 0.08435 0.0
H3944 H 0.23273 0.42729 0.03443 0.0
H3945 H 0.2568 0.45042 0.10962 0.0
H3946 H 0.18144 0.44181 0.03221 0.0
H3947 H 0.20218 0.4666 0.02558 0.0
H3948 H 0.20266 0.43755 0.01407 0.0
H3949 H 0.24039 0.47369 0.13363 0.0
H3950 H 0.23157 0.49464 0.11783 0.0
H3951 H 0.21042 0.46977 0.12373 0.0
H3952 H 0.19193 0.52974 0.06939 0.0
H3953 H 0.14171 0.46986 0.08431 0.0
H3954 H 0.23032 0.50159 0.05009 0.0
H3955 H 0.24016 0.51079 0.08142 0.0
H3956 H 0.2292 0.52961 0.06423 0.0
H3957 H 0.16896 0.42819 0.0685 0.0
H3958 H 0.14943 0.4344 0.08798 0.0
H3959 H 0.17888 0.43778 0.09977 0.0
C3960 C 0.90521 0.9468 0.28583 0.0
C3961 C 0.90088 0.96299 0.27168 0.0
C3962 C 0.88836 0.92572 0.28609 0.0
C3963 C 0.86677 0.92053 0.27153 0.0
C3964 C 0.86244 0.93657 0.25679 0.0
C3965 C 0.8795 0.95772 0.25719 0.0
C3966 C 0.89356 0.90915 0.30222 0.0
C3967 C 0.83978 0.93141 0.2407 0.0
C3968 C 0.83351 0.8562 0.25881 0.0
C3969 C 0.81835 0.85473 0.27565 0.0
C3970 C 0.84865 0.87769 0.25653 0.0
C3971 C 0.84889 0.89818 0.27171 0.0
C3972 C 0.83307 0.89695 0.28819 0.0
C3973 C 0.81781 0.87521 0.28982 0.0
C3974 C 0.86495 0.87833 0.23845 0.0
C3975 C 0.83301 0.9184 0.30486 0.0
H3976 H 0.92162 0.95084 0.29722 0.0
H3977 H 0.87607 0.97015 0.24616 0.0
H3978 H 0.88092 0.90599 0.31484 0.0
H3979 H 0.89198 0.89203 0.29142 0.0
H3980 H 0.91107 0.91597 0.31271 0.0
H3981 H 0.83932 0.94545 0.22991 0.0
H3982 H 0.83637 0.91468 0.22838 0.0
H3983 H 0.82565 0.92931 0.25159 0.0
H3984 H 0.83381 0.84042 0.24763 0.0
H3985 H 0.80619 0.87412 0.30291 0.0
H3986 H 0.8828 0.88291 0.24787 0.0
H3987 H 0.86414 0.89199 0.22728 0.0
H3988 H 0.86111 0.86127 0.22651 0.0
H3989 H 0.84946 0.92501 0.31733 0.0
H3990 H 0.81871 0.91477 0.31555 0.0
H3991 H 0.83159 0.93254 0.29459 0.0
C3992 C 0.68064 0.12377 0.74426 0.0
C3993 C 0.68907 0.1095 0.7582 0.0
C3994 C 0.69168 0.14784 0.7472 0.0
C3995 C 0.71134 0.15783 0.76478 0.0
C3996 C 0.71963 0.14357 0.77924 0.0
C3997 C 0.70851 0.11951 0.77562 0.0
C3998 C 0.68264 0.1625 0.73117 0.0
C3999 C 0.7404 0.15368 0.79837 0.0
C4000 C 0.75525 0.2133 0.75711 0.0
C4001 C 0.74984 0.23025 0.77259 0.0
C4002 C 0.7425 0.18975 0.75405 0.0
C4003 C 0.72414 0.18292 0.76711 0.0
C4004 C 0.71851 0.19993 0.78274 0.0
C4005 C 0.73134 0.22353 0.78513 0.0
C4006 C 0.74878 0.17215 0.73692 0.0
C4007 C 0.69923 0.19314 0.79721 0.0
H4008 H 0.6656 0.11606 0.73077 0.0
H4009 H 0.71491 0.10858 0.78666 0.0
H4010 H 0.67897 0.17719 0.74211 0.0
H4011 H 0.69585 0.17024 0.72031 0.0
H4012 H 0.66676 0.15217 0.71888 0.0
H4013 H 0.74375 0.14045 0.80908 0.0
H4014 H 0.75579 0.16088 0.79002 0.0
H4015 H 0.73804 0.16832 0.81063 0.0
H4016 H 0.76937 0.21847 0.74714 0.0
H4017 H 0.72718 0.23662 0.79715 0.0
H4018 H 0.73362 0.16222 0.72349 0.0
H4019 H 0.75418 0.15935 0.74681 0.0
H4020 H 0.76291 0.18051 0.72736 0.0
H4021 H 0.68292 0.18382 0.78517 0.0
H4022 H 0.69687 0.20853 0.80832 0.0
H4023 H 0.70279 0.18094 0.80915 0.0
loop_
_geom_bond_atom_site_label_1
_geom_bond_atom_site_label_2
_geom_bond_distance
_geom_bond_site_symmetry_2
_ccdc_geom_bond_type
C0 O1 1.160 . S
C0 O7 1.185 . S
O1 C0 1.160 . S
O2 Zn3 1.899 . S
O2 C10 1.284 . S
Zn3 O2 1.899 . S
Zn3 O4 2.032 . S
Zn3 O7 2.086 . S
Zn3 O12 1.977 . S
O4 Zn3 2.032 . S
O4 C8 1.278 . S
C5 O6 1.203 . S
C5 O12 1.267 1_655 S
O6 C5 1.203 . S
O7 C0 1.185 . S
O7 Zn3 2.086 . S
C8 O4 1.278 . S
C8 O9 1.211 . S
O9 C8 1.211 . S
C10 O2 1.284 . S
C10 O11 1.273 . S
O11 C10 1.273 . S
O12 Zn3 1.977 . S
O12 C5 1.267 1_455 S
C13 O14 1.160 . S
C13 O20 1.169 1_655 S
O14 C13 1.160 . S
O15 Zn16 1.899 . S
O15 C23 1.284 . S
Zn16 O15 1.899 . S
Zn16 O17 2.032 . S
Zn16 O20 2.100 . S
Zn16 O25 1.977 . S
O17 Zn16 2.032 . S
O17 C21 1.278 . S
C18 O19 1.203 . S
C18 O25 1.267 . S
O19 C18 1.203 . S
O20 C13 1.169 1_455 S
O20 Zn16 2.100 . S
C21 O17 1.278 . S
C21 O22 1.211 . S
O22 C21 1.211 . S
C23 O15 1.284 . S
C23 O24 1.273 . S
O24 C23 1.273 . S
O25 Zn16 1.977 . S
O25 C18 1.267 . S
C26 O27 1.160 . S
C26 O33 1.185 . S
O27 C26 1.160 . S
O28 Zn29 1.899 . S
O28 C36 1.284 . S
Zn29 O28 1.899 . S
Zn29 O30 2.032 . S
Zn29 O33 2.086 . S
Zn29 O38 1.977 . S
O30 Zn29 2.032 . S
O30 C34 1.278 . S
C31 O32 1.203 . S
C31 O38 1.267 . S
O32 C31 1.203 . S
O33 C26 1.185 . S
O33 Zn29 2.086 . S
C34 O30 1.278 . S
C34 O35 1.211 . S
O35 C34 1.211 . S
C36 O28 1.284 . S
C36 O37 1.273 . S
O37 C36 1.273 . S
O38 Zn29 1.977 . S
O38 C31 1.267 . S
C39 O40 1.160 . S
C39 O46 1.185 . S
O40 C39 1.160 . S
O41 Zn42 1.899 . S
O41 C49 1.284 . S
Zn42 O41 1.899 . S
Zn42 O43 2.032 . S
Zn42 O46 2.086 . S
Zn42 O51 1.977 . S
O43 Zn42 2.032 . S
O43 C47 1.278 . S
C44 O45 1.203 . S
C44 O51 1.267 . S
O45 C44 1.203 . S
O46 C39 1.185 . S
O46 Zn42 2.086 . S
C47 O43 1.278 . S
C47 O48 1.211 . S
O48 C47 1.211 . S
C49 O41 1.284 . S
C49 O50 1.273 . S
O50 C49 1.273 . S
O51 Zn42 1.977 . S
O51 C44 1.267 . S
C52 O53 1.160 . S
C52 O59 1.185 . S
O53 C52 1.160 . S
O54 Zn55 1.899 . S
O54 C62 1.284 . S
Zn55 O54 1.899 . S
Zn55 O56 2.032 . S
Zn55 O59 2.086 . S
Zn55 O64 1.977 . S
O56 Zn55 2.032 . S
O56 C60 1.278 . S
C57 O58 1.203 . S
C57 O64 1.267 . S
O58 C57 1.203 . S
O59 C52 1.185 . S
O59 Zn55 2.086 . S
C60 O56 1.278 . S
C60 O61 1.211 . S
O61 C60 1.211 . S
C62 O54 1.284 . S
C62 O63 1.273 . S
O63 C62 1.273 . S
O64 Zn55 1.977 . S
O64 C57 1.267 . S
C65 O66 1.160 . S
C65 O72 1.185 . S
O66 C65 1.160 . S
O67 Zn68 1.899 . S
O67 C75 1.284 . S
Zn68 O67 1.899 . S
Zn68 O69 2.032 . S
Zn68 O72 2.086 . S
Zn68 O77 1.977 . S
O69 Zn68 2.032 . S
O69 C73 1.278 . S
C70 O71 1.203 . S
C70 O77 1.267 . S
O71 C70 1.203 . S
O72 C65 1.185 . S
O72 Zn68 2.086 . S
C73 O69 1.278 . S
C73 O74 1.211 . S
O74 C73 1.211 . S
C75 O67 1.284 . S
C75 O76 1.273 . S
O76 C75 1.273 . S
O77 Zn68 1.977 . S
O77 C70 1.267 . S
C78 O79 1.160 . S
C78 O85 1.185 . S
O79 C78 1.160 . S
O80 Zn81 1.899 . S
O80 C88 1.284 . S
Zn81 O80 1.899 . S
Zn81 O82 2.032 . S
Zn81 O85 2.086 . S
Zn81 O90 1.977 . S
O82 Zn81 2.032 . S
O82 C86 1.278 . S
C83 O84 1.203 . S
C83 O90 1.267 . S
O84 C83 1.203 . S
O85 C78 1.185 . S
O85 Zn81 2.086 . S
C86 O82 1.278 . S
C86 O87 1.211 . S
O87 C86 1.211 . S
C88 O80 1.284 . S
C88 O89 1.273 . S
O89 C88 1.273 . S
O90 Zn81 1.977 . S
O90 C83 1.267 . S
C91 O92 1.160 . S
C91 O98 1.185 . S
O92 C91 1.160 . S
O93 Zn94 1.899 1_655 S
O93 C101 1.284 . S
Zn94 O93 1.899 1_455 S
Zn94 O95 2.032 . S
Zn94 O98 2.086 . S
Zn94 O103 1.977 1_455 S
O95 Zn94 2.032 . S
O95 C99 1.278 . S
C96 O97 1.203 . S
C96 O103 1.267 . S
O97 C96 1.203 . S
O98 C91 1.185 . S
O98 Zn94 2.086 . S
C99 O95 1.278 . S
C99 O100 1.211 1_455 S
O100 C99 1.211 1_655 S
C101 O93 1.284 . S
C101 O102 1.273 1_556 S
O102 C101 1.273 1_554 S
O103 Zn94 1.977 1_655 S
O103 C96 1.267 . S
C104 O105 1.160 . S
C104 O111 1.185 . S
O105 C104 1.160 . S
O106 Zn107 1.902 . S
O106 C114 1.292 . S
Zn107 O106 1.902 . S
Zn107 O108 2.039 . S
Zn107 O111 2.122 . S
Zn107 O116 1.945 1_545 S
O108 Zn107 2.039 . S
O108 C112 1.278 . S
C109 O110 1.203 . S
C109 O116 1.267 . S
O110 C109 1.203 . S
O111 C104 1.185 . S
O111 Zn107 2.122 . S
C112 O108 1.278 . S
C112 O113 1.211 1_545 S
O113 C112 1.211 1_565 S
C114 O106 1.292 . S
C114 O115 1.263 1_545 S
O115 C114 1.263 1_565 S
O116 Zn107 1.945 1_565 S
O116 C109 1.267 . S
C117 O118 1.160 . S
C117 O124 1.185 . S
O118 C117 1.160 . S
O119 Zn120 1.899 . S
O119 C127 1.284 . S
Zn120 O119 1.899 . S
Zn120 O121 2.032 . S
Zn120 O124 2.086 . S
Zn120 O129 1.977 . S
O121 Zn120 2.032 . S
O121 C125 1.278 . S
C122 O123 1.203 . S
C122 O129 1.267 . S
O123 C122 1.203 . S
O124 C117 1.185 . S
O124 Zn120 2.086 . S
C125 O121 1.278 . S
C125 O126 1.211 . S
O126 C125 1.211 . S
C127 O119 1.284 . S
C127 O128 1.273 . S
O128 C127 1.273 . S
O129 Zn120 1.977 . S
O129 C122 1.267 . S
C130 O131 1.160 1_545 S
C130 O137 1.185 . S
O131 C130 1.160 1_565 S
O132 Zn133 1.899 . S
O132 C140 1.284 . S
Zn133 O132 1.899 . S
Zn133 O134 2.032 . S
Zn133 O137 2.086 . S
Zn133 O142 1.977 . S
O134 Zn133 2.032 . S
O134 C138 1.278 . S
C135 O136 1.203 . S
C135 O142 1.267 . S
O136 C135 1.203 . S
O137 C130 1.185 . S
O137 Zn133 2.086 . S
C138 O134 1.278 . S
C138 O139 1.211 . S
O139 C138 1.211 . S
C140 O132 1.284 . S
C140 O141 1.273 . S
O141 C140 1.273 . S
O142 Zn133 1.977 . S
O142 C135 1.267 . S
C143 O144 1.160 . S
C143 O150 1.185 1_554 S
O144 C143 1.160 . S
O145 Zn146 1.899 . S
O145 C153 1.284 . S
Zn146 O145 1.899 . S
Zn146 O147 2.032 1_554 S
Zn146 O150 2.086 1_554 S
Zn146 O155 1.977 . S
O147 Zn146 2.032 1_556 S
O147 C151 1.278 . S
C148 O149 1.203 . S
C148 O155 1.267 . S
O149 C148 1.203 . S
O150 C143 1.185 1_556 S
O150 Zn146 2.086 1_556 S
C151 O147 1.278 . S
C151 O152 1.211 . S
O152 C151 1.211 . S
C153 O145 1.284 . S
C153 O154 1.273 . S
O154 C153 1.273 . S
O155 Zn146 1.977 . S
O155 C148 1.267 . S
C156 O157 1.160 . S
C156 O163 1.185 . S
O157 C156 1.160 . S
O158 Zn159 1.899 . S
O158 C166 1.284 . S
Zn159 O158 1.899 . S
Zn159 O160 2.032 . S
Zn159 O163 2.086 . S
Zn159 O168 1.977 . S
O160 Zn159 2.032 . S
O160 C164 1.278 1_554 S
C161 O162 1.203 . S
C161 O168 1.267 . S
O162 C161 1.203 . S
O163 C156 1.185 . S
O163 Zn159 2.086 . S
C164 O160 1.278 1_556 S
C164 O165 1.209 1_556 S
O165 C164 1.209 1_554 S
C166 O158 1.284 . S
C166 O167 1.273 . S
O167 C166 1.273 . S
O168 Zn159 1.977 . S
O168 C161 1.267 . S
C169 O170 1.160 . S
C169 O176 1.185 . S
O170 C169 1.160 . S
O171 Zn172 1.899 . S
O171 C179 1.284 . S
Zn172 O171 1.899 . S
Zn172 O173 2.032 . S
Zn172 O176 2.086 . S
Zn172 O181 1.977 . S
O173 Zn172 2.032 . S
O173 C177 1.278 . S
C174 O175 1.203 . S
C174 O181 1.267 . S
O175 C174 1.203 . S
O176 C169 1.185 . S
O176 Zn172 2.086 . S
C177 O173 1.278 . S
C177 O178 1.211 . S
O178 C177 1.211 . S
C179 O171 1.284 . S
C179 O180 1.273 . S
O180 C179 1.273 . S
O181 Zn172 1.977 . S
O181 C174 1.267 . S
C182 O183 1.160 . S
C182 O189 1.185 . S
O183 C182 1.160 . S
O184 Zn185 1.899 . S
O184 C192 1.284 . S
Zn185 O184 1.899 . S
Zn185 O186 2.032 . S
Zn185 O189 2.086 . S
Zn185 O194 1.977 . S
O186 Zn185 2.032 . S
O186 C190 1.278 . S
C187 O188 1.203 . S
C187 O194 1.267 . S
O188 C187 1.203 . S
O189 C182 1.185 . S
O189 Zn185 2.086 . S
C190 O186 1.278 . S
C190 O191 1.211 . S
O191 C190 1.211 . S
C192 O184 1.284 . S
C192 O193 1.273 . S
O193 C192 1.273 . S
O194 Zn185 1.977 . S
O194 C187 1.267 . S
C195 O196 1.160 . S
C195 O202 1.185 . S
O196 C195 1.160 . S
O197 Zn198 1.899 . S
O197 C205 1.284 . S
Zn198 O197 1.899 . S
Zn198 O199 2.032 . S
Zn198 O202 2.086 . S
Zn198 O207 1.977 . S
O199 Zn198 2.032 . S
O199 C203 1.278 . S
C200 O201 1.203 . S
C200 O207 1.267 . S
O201 C200 1.203 . S
O202 C195 1.185 . S
O202 Zn198 2.086 . S
C203 O199 1.278 . S
C203 O204 1.211 . S
O204 C203 1.211 . S
C205 O197 1.284 . S
C205 O206 1.273 . S
O206 C205 1.273 . S
O207 Zn198 1.977 . S
O207 C200 1.267 . S
C208 O209 1.160 . S
C208 O215 1.185 . S
O209 C208 1.160 . S
O210 Zn211 1.899 . S
O210 C218 1.284 . S
Zn211 O210 1.899 . S
Zn211 O212 2.032 . S
Zn211 O215 2.086 . S
Zn211 O220 1.977 . S
O212 Zn211 2.032 . S
O212 C216 1.278 . S
C213 O214 1.203 . S
C213 O220 1.267 1_565 S
O214 C213 1.203 . S
O215 C208 1.185 . S
O215 Zn211 2.086 . S
C216 O212 1.278 . S
C216 O217 1.211 . S
O217 C216 1.211 . S
C218 O210 1.284 . S
C218 O219 1.273 . S
O219 C218 1.273 . S
O220 Zn211 1.977 . S
O220 C213 1.267 1_545 S
C221 O222 1.160 . S
C221 O228 1.185 . S
O222 C221 1.160 . S
O223 Zn224 1.899 . S
O223 C231 1.284 . S
Zn224 O223 1.899 . S
Zn224 O225 2.032 . S
Zn224 O228 2.086 . S
Zn224 O233 1.977 . S
O225 Zn224 2.032 . S
O225 C229 1.278 . S
C226 O227 1.203 . S
C226 O233 1.267 . S
O227 C226 1.203 . S
O228 C221 1.185 . S
O228 Zn224 2.086 . S
C229 O225 1.278 . S
C229 O230 1.211 . S
O230 C229 1.211 . S
C231 O223 1.284 . S
C231 O232 1.273 . S
O232 C231 1.273 . S
O233 Zn224 1.977 . S
O233 C226 1.267 . S
C234 O235 1.160 . S
C234 O241 1.185 . S
O235 C234 1.160 . S
O236 Zn237 1.899 . S
O236 C244 1.284 . S
Zn237 O236 1.899 . S
Zn237 O238 2.032 . S
Zn237 O241 2.086 . S
Zn237 O246 1.977 . S
O238 Zn237 2.032 . S
O238 C242 1.278 . S
C239 O240 1.203 . S
C239 O246 1.267 . S
O240 C239 1.203 . S
O241 C234 1.185 . S
O241 Zn237 2.086 . S
C242 O238 1.278 . S
C242 O243 1.211 . S
O243 C242 1.211 . S
C244 O236 1.284 . S
C244 O245 1.273 . S
O245 C244 1.273 . S
O246 Zn237 1.977 . S
O246 C239 1.267 . S
C247 O248 1.160 . S
C247 O254 1.185 . S
O248 C247 1.160 . S
O249 Zn250 1.899 . S
O249 C257 1.284 . S
Zn250 O249 1.899 . S
Zn250 O251 2.032 . S
Zn250 O254 2.086 . S
Zn250 O259 1.977 . S
O251 Zn250 2.032 . S
O251 C255 1.278 . S
C252 O253 1.203 . S
C252 O259 1.267 . S
O253 C252 1.203 . S
O254 C247 1.185 . S
O254 Zn250 2.086 . S
C255 O251 1.278 . S
C255 O256 1.211 . S
O256 C255 1.211 . S
C257 O249 1.284 . S
C257 O258 1.273 . S
O258 C257 1.273 . S
O259 Zn250 1.977 . S
O259 C252 1.267 . S
C260 O261 1.160 . S
C260 O267 1.185 . S
O261 C260 1.160 . S
O262 Zn263 1.899 . S
O262 C270 1.284 . S
Zn263 O262 1.899 . S
Zn263 O264 2.032 . S
Zn263 O267 2.086 . S
Zn263 O272 1.977 . S
O264 Zn263 2.032 . S
O264 C268 1.278 1_554 S
C265 O266 1.203 . S
C265 O272 1.267 . S
O266 C265 1.203 . S
O267 C260 1.185 . S
O267 Zn263 2.086 . S
C268 O264 1.278 1_556 S
C268 O269 1.211 . S
O269 C268 1.211 . S
C270 O262 1.284 . S
C270 O271 1.273 . S
O271 C270 1.273 . S
O272 Zn263 1.977 . S
O272 C265 1.267 . S
C273 O274 1.160 . S
C273 O280 1.185 . S
O274 C273 1.160 . S
O275 Zn276 1.899 . S
O275 C283 1.284 . S
Zn276 O275 1.899 . S
Zn276 O277 2.032 . S
Zn276 O280 2.086 . S
Zn276 O285 1.977 . S
O277 Zn276 2.032 . S
O277 C281 1.278 . S
C278 O279 1.203 . S
C278 O285 1.267 . S
O279 C278 1.203 . S
O280 C273 1.185 . S
O280 Zn276 2.086 . S
C281 O277 1.278 . S
C281 O282 1.211 . S
O282 C281 1.211 . S
C283 O275 1.284 . S
C283 O284 1.273 . S
O284 C283 1.273 . S
O285 Zn276 1.977 . S
O285 C278 1.267 . S
C286 O287 1.160 . S
C286 O293 1.185 . S
O287 C286 1.160 . S
O288 Zn289 1.899 . S
O288 C296 1.284 . S
Zn289 O288 1.899 . S
Zn289 O290 2.032 . S
Zn289 O293 2.086 . S
Zn289 O298 1.977 . S
O290 Zn289 2.032 . S
O290 C294 1.278 . S
C291 O292 1.203 . S
C291 O298 1.267 . S
O292 C291 1.203 . S
O293 C286 1.185 . S
O293 Zn289 2.086 . S
C294 O290 1.278 . S
C294 O295 1.211 . S
O295 C294 1.211 . S
C296 O288 1.284 . S
C296 O297 1.273 . S
O297 C296 1.273 . S
O298 Zn289 1.977 . S
O298 C291 1.267 . S
C299 O300 1.160 . S
C299 O306 1.185 . S
O300 C299 1.160 . S
O301 Zn302 1.899 . S
O301 C309 1.284 . S
Zn302 O301 1.899 . S
Zn302 O303 2.032 . S
Zn302 O306 2.086 . S
Zn302 O311 1.977 . S
O303 Zn302 2.032 . S
O303 C307 1.278 . S
C304 O305 1.203 . S
C304 O311 1.267 . S
O305 C304 1.203 . S
O306 C299 1.185 . S
O306 Zn302 2.086 . S
C307 O303 1.278 . S
C307 O308 1.211 . S
O308 C307 1.211 . S
C309 O301 1.284 . S
C309 O310 1.273 . S
O310 C309 1.273 . S
O311 Zn302 1.977 . S
O311 C304 1.267 . S
Dy312 O315 2.307 . S
Dy312 O317 2.395 . S
Dy312 O318 2.379 . S
Dy312 O320 2.339 . S
Dy312 O322 2.298 . S
Dy312 O326 2.275 . S
Dy312 C334 2.738 . S
Dy313 O316 2.298 1_655 S
Dy313 O319 2.275 1_655 S
Dy313 O321 2.307 1_645 S
Dy313 O323 2.395 . S
Dy313 O324 2.379 1_554 S
Dy313 O327 2.339 1_654 S
Dy313 C343 2.738 . S
C314 O326 1.254 1_556 S
C314 O327 1.257 . S
O315 Dy312 2.307 . S
O315 C325 1.266 . S
O316 Dy313 2.298 1_455 S
O316 C325 1.236 . S
O317 Dy312 2.395 . S
O317 C334 1.255 . S
O318 Dy312 2.379 . S
O318 C334 1.249 . S
O319 Dy313 2.275 1_455 S
O319 C335 1.254 . S
O320 Dy312 2.339 . S
O320 C335 1.257 . S
O321 Dy313 2.307 1_465 S
O321 C336 1.266 . S
O322 Dy312 2.298 . S
O322 C336 1.236 1_545 S
O323 Dy313 2.395 . S
O323 C343 1.255 . S
O324 Dy313 2.379 1_556 S
O324 C343 1.249 1_556 S
C325 O315 1.266 . S
C325 O316 1.236 . S
O326 Dy312 2.275 . S
O326 C314 1.254 1_554 S
O327 Dy313 2.339 1_456 S
O327 C314 1.257 . S
C328 C331 1.344 . S
C328 C332 1.328 . S
C328 C334 1.516 . S
C329 C330 1.304 . S
C329 C333 1.323 . S
C330 C329 1.304 . S
C330 C331 1.371 . S
C330 H344 0.930 1_545 S
C331 C328 1.344 . S
C331 C330 1.371 . S
C331 H345 0.931 . S
C332 C328 1.328 . S
C332 C333 1.433 . S
C332 H346 0.931 . S
C333 C329 1.323 . S
C333 C332 1.433 . S
C333 H347 0.933 . S
C334 Dy312 2.738 . S
C334 O317 1.255 . S
C334 O318 1.249 . S
C334 C328 1.516 . S
C335 O319 1.254 . S
C335 O320 1.257 . S
C336 O321 1.266 . S
C336 O322 1.236 1_565 S
C337 C340 1.344 . S
C337 C341 1.328 1_554 S
C337 C343 1.516 . S
C338 C339 1.304 . S
C338 C342 1.323 1_554 S
C339 C338 1.304 . S
C339 C340 1.371 . S
C339 H348 0.930 . S
C340 C337 1.344 . S
C340 C339 1.371 . S
C340 H349 0.931 . S
C341 C337 1.328 1_556 S
C341 C342 1.433 . S
C341 H350 0.931 . S
C342 C338 1.323 1_556 S
C342 C341 1.433 . S
C342 H351 0.933 . S
C343 Dy313 2.738 . S
C343 O323 1.255 . S
C343 O324 1.249 1_554 S
C343 C337 1.516 . S
H344 C330 0.930 1_565 S
H345 C331 0.931 . S
H346 C332 0.931 . S
H347 C333 0.933 . S
H348 C339 0.930 . S
H349 C340 0.931 . S
H350 C341 0.931 . S
H351 C342 0.933 . S
Dy352 O355 2.307 . S
Dy352 O357 2.395 . S
Dy352 O358 2.379 . S
Dy352 O360 2.339 . S
Dy352 O362 2.298 . S
Dy352 O366 2.275 . S
Dy352 C374 2.738 . S
Dy353 O356 2.298 . S
Dy353 O359 2.275 . S
Dy353 O361 2.307 . S
Dy353 O363 2.395 . S
Dy353 O364 2.379 . S
Dy353 O367 2.339 . S
Dy353 C383 2.738 . S
C354 O366 1.254 . S
C354 O367 1.257 . S
O355 Dy352 2.307 . S
O355 C365 1.266 . S
O356 Dy353 2.298 . S
O356 C365 1.236 . S
O357 Dy352 2.395 . S
O357 C374 1.255 . S
O358 Dy352 2.379 . S
O358 C374 1.249 . S
O359 Dy353 2.275 . S
O359 C375 1.254 . S
O360 Dy352 2.339 . S
O360 C375 1.257 . S
O361 Dy353 2.307 . S
O361 C376 1.266 . S
O362 Dy352 2.298 . S
O362 C376 1.236 . S
O363 Dy353 2.395 . S
O363 C383 1.255 . S
O364 Dy353 2.379 . S
O364 C383 1.249 . S
C365 O355 1.266 . S
C365 O356 1.236 . S
O366 Dy352 2.275 . S
O366 C354 1.254 . S
O367 Dy353 2.339 . S
O367 C354 1.257 . S
C368 C371 1.344 . S
C368 C372 1.328 . S
C368 C374 1.516 . S
C369 C370 1.304 . S
C369 C373 1.323 . S
C370 C369 1.304 . S
C370 C371 1.371 . S
C370 H384 0.930 . S
C371 C368 1.344 . S
C371 C370 1.371 . S
C371 H385 0.931 . S
C372 C368 1.328 . S
C372 C373 1.433 . S
C372 H386 0.931 . S
C373 C369 1.323 . S
C373 C372 1.433 . S
C373 H387 0.933 . S
C374 Dy352 2.738 . S
C374 O357 1.255 . S
C374 O358 1.249 . S
C374 C368 1.516 . S
C375 O359 1.254 . S
C375 O360 1.257 . S
C376 O361 1.266 . S
C376 O362 1.236 . S
C377 C380 1.344 . S
C377 C381 1.328 . S
C377 C383 1.516 . S
C378 C379 1.304 . S
C378 C382 1.323 . S
C379 C378 1.304 . S
C379 C380 1.371 . S
C379 H388 0.930 . S
C380 C377 1.344 . S
C380 C379 1.371 . S
C380 H389 0.931 . S
C381 C377 1.328 . S
C381 C382 1.433 . S
C381 H390 0.931 . S
C382 C378 1.323 . S
C382 C381 1.433 . S
C382 H391 0.933 . S
C383 Dy353 2.738 . S
C383 O363 1.255 . S
C383 O364 1.249 . S
C383 C377 1.516 . S
H384 C370 0.930 . S
H385 C371 0.931 . S
H386 C372 0.931 . S
H387 C373 0.933 . S
H388 C379 0.930 . S
H389 C380 0.931 . S
H390 C381 0.931 . S
H391 C382 0.933 . S
Dy392 O395 2.307 . S
Dy392 O397 2.395 . S
Dy392 O398 2.379 . S
Dy392 O400 2.339 . S
Dy392 O402 2.298 . S
Dy392 O406 2.275 . S
Dy392 C414 2.738 . S
Dy393 O396 2.298 . S
Dy393 O399 2.275 . S
Dy393 O401 2.307 . S
Dy393 O403 2.395 . S
Dy393 O404 2.379 . S
Dy393 O407 2.339 . S
Dy393 C423 2.738 . S
C394 O406 1.254 . S
C394 O407 1.257 . S
O395 Dy392 2.307 . S
O395 C405 1.266 1_545 S
O396 Dy393 2.298 . S
O396 C405 1.236 1_545 S
O397 Dy392 2.395 . S
O397 C414 1.255 . S
O398 Dy392 2.379 . S
O398 C414 1.249 . S
O399 Dy393 2.275 . S
O399 C415 1.254 . S
O400 Dy392 2.339 . S
O400 C415 1.257 . S
O401 Dy393 2.307 . S
O401 C416 1.266 . S
O402 Dy392 2.298 . S
O402 C416 1.236 . S
O403 Dy393 2.395 . S
O403 C423 1.255 . S
O404 Dy393 2.379 . S
O404 C423 1.249 . S
C405 O395 1.266 1_565 S
C405 O396 1.236 1_565 S
O406 Dy392 2.275 . S
O406 C394 1.254 . S
O407 Dy393 2.339 . S
O407 C394 1.257 . S
C408 C411 1.344 . S
C408 C412 1.328 . S
C408 C414 1.516 . S
C409 C410 1.304 . S
C409 C413 1.323 . S
C410 C409 1.304 . S
C410 C411 1.371 . S
C410 H424 0.930 . S
C411 C408 1.344 . S
C411 C410 1.371 . S
C411 H425 0.931 . S
C412 C408 1.328 . S
C412 C413 1.433 . S
C412 H426 0.931 . S
C413 C409 1.323 . S
C413 C412 1.433 . S
C413 H427 0.933 . S
C414 Dy392 2.738 . S
C414 O397 1.255 . S
C414 O398 1.249 . S
C414 C408 1.516 . S
C415 O399 1.254 . S
C415 O400 1.257 . S
C416 O401 1.266 . S
C416 O402 1.236 . S
C417 C420 1.322 1_545 S
C417 C421 1.328 . S
C417 C423 1.516 . S
C418 C419 1.304 . S
C418 C422 1.323 . S
C419 C418 1.304 . S
C419 C420 1.394 . S
C419 H428 0.930 . S
C420 C417 1.322 1_565 S
C420 C419 1.394 . S
C420 H429 0.931 . S
C421 C417 1.328 . S
C421 C422 1.433 1_545 S
C421 H430 0.931 . S
C422 C418 1.323 . S
C422 C421 1.433 1_565 S
C422 H431 0.933 . S
C423 Dy393 2.738 . S
C423 O403 1.255 . S
C423 O404 1.249 . S
C423 C417 1.516 . S
H424 C410 0.930 . S
H425 C411 0.931 . S
H426 C412 0.931 . S
H427 C413 0.933 . S
H428 C419 0.930 . S
H429 C420 0.931 . S
H430 C421 0.931 . S
H431 C422 0.933 . S
Dy432 O435 2.307 . S
Dy432 O437 2.395 . S
Dy432 O438 2.379 . S
Dy432 O440 2.339 . S
Dy432 O442 2.298 . S
Dy432 O446 2.275 . S
Dy432 C454 2.738 . S
Dy433 O436 2.298 . S
Dy433 O439 2.275 . S
Dy433 O441 2.307 . S
Dy433 O443 2.395 . S
Dy433 O444 2.379 . S
Dy433 O447 2.339 . S
Dy433 C463 2.738 . S
C434 O446 1.254 . S
C434 O447 1.257 . S
O435 Dy432 2.307 . S
O435 C445 1.266 . S
O436 Dy433 2.298 . S
O436 C445 1.236 . S
O437 Dy432 2.395 . S
O437 C454 1.255 . S
O438 Dy432 2.379 . S
O438 C454 1.249 . S
O439 Dy433 2.275 . S
O439 C455 1.254 . S
O440 Dy432 2.339 . S
O440 C455 1.257 . S
O441 Dy433 2.307 . S
O441 C456 1.266 . S
O442 Dy432 2.298 . S
O442 C456 1.236 . S
O443 Dy433 2.395 . S
O443 C463 1.255 . S
O444 Dy433 2.379 . S
O444 C463 1.249 . S
C445 O435 1.266 . S
C445 O436 1.236 . S
O446 Dy432 2.275 . S
O446 C434 1.254 . S
O447 Dy433 2.339 . S
O447 C434 1.257 . S
C448 C451 1.344 . S
C448 C452 1.328 . S
C448 C454 1.516 . S
C449 C450 1.304 . S
C449 C453 1.323 . S
C450 C449 1.304 . S
C450 C451 1.371 . S
C450 H464 0.930 . S
C451 C448 1.344 . S
C451 C450 1.371 . S
C451 H465 0.931 . S
C452 C448 1.328 . S
C452 C453 1.433 . S
C452 H466 0.931 . S
C453 C449 1.323 . S
C453 C452 1.433 . S
C453 H467 0.933 . S
C454 Dy432 2.738 . S
C454 O437 1.255 . S
C454 O438 1.249 . S
C454 C448 1.516 . S
C455 O439 1.254 . S
C455 O440 1.257 . S
C456 O441 1.266 . S
C456 O442 1.236 . S
C457 C460 1.344 . S
C457 C461 1.328 . S
C457 C463 1.516 . S
C458 C459 1.304 . S
C458 C462 1.323 . S
C459 C458 1.304 . S
C459 C460 1.371 . S
C459 H468 0.930 . S
C460 C457 1.344 . S
C460 C459 1.371 . S
C460 H469 0.931 . S
C461 C457 1.328 . S
C461 C462 1.433 . S
C461 H470 0.931 . S
C462 C458 1.323 . S
C462 C461 1.433 . S
C462 H471 0.933 . S
C463 Dy433 2.738 . S
C463 O443 1.255 . S
C463 O444 1.249 . S
C463 C457 1.516 . S
H464 C450 0.930 . S
H465 C451 0.931 . S
H466 C452 0.931 . S
H467 C453 0.933 . S
H468 C459 0.930 . S
H469 C460 0.931 . S
H470 C461 0.931 . S
H471 C462 0.933 . S
Dy472 O475 2.307 . S
Dy472 O477 2.395 1_545 S
Dy472 O478 2.379 1_545 S
Dy472 O480 2.339 . S
Dy472 O482 2.298 . S
Dy472 O486 2.275 . S
Dy472 C494 2.738 1_545 S
Dy473 O476 2.298 . S
Dy473 O479 2.275 . S
Dy473 O481 2.307 . S
Dy473 O483 2.395 . S
Dy473 O484 2.379 1_455 S
Dy473 O487 2.339 1_455 S
Dy473 C503 2.738 . S
C474 O486 1.254 1_655 S
C474 O487 1.257 . S
O475 Dy472 2.307 . S
O475 C485 1.266 . S
O476 Dy473 2.298 . S
O476 C485 1.236 . S
O477 Dy472 2.395 1_565 S
O477 C494 1.255 . S
O478 Dy472 2.379 1_565 S
O478 C494 1.249 . S
O479 Dy473 2.275 . S
O479 C495 1.254 . S
O480 Dy472 2.339 . S
O480 C495 1.257 . S
O481 Dy473 2.307 . S
O481 C496 1.266 . S
O482 Dy472 2.298 . S
O482 C496 1.236 . S
O483 Dy473 2.395 . S
O483 C503 1.255 . S
O484 Dy473 2.379 1_655 S
O484 C503 1.249 1_655 S
C485 O475 1.266 . S
C485 O476 1.236 . S
O486 Dy472 2.275 . S
O486 C474 1.254 1_455 S
O487 Dy473 2.339 1_655 S
O487 C474 1.257 . S
C488 C491 1.344 . S
C488 C492 1.328 . S
C488 C494 1.516 . S
C489 C490 1.304 . S
C489 C493 1.323 . S
C490 C489 1.304 . S
C490 C491 1.371 . S
C490 H504 0.930 . S
C491 C488 1.344 . S
C491 C490 1.371 . S
C491 H505 0.931 . S
C492 C488 1.328 . S
C492 C493 1.433 . S
C492 H506 0.931 . S
C493 C489 1.323 . S
C493 C492 1.433 . S
C493 H507 0.933 . S
C494 Dy472 2.738 1_565 S
C494 O477 1.255 . S
C494 O478 1.249 . S
C494 C488 1.516 . S
C495 O479 1.254 . S
C495 O480 1.257 . S
C496 O481 1.266 . S
C496 O482 1.236 . S
C497 C500 1.344 . S
C497 C501 1.328 1_455 S
C497 C503 1.516 . S
C498 C499 1.304 . S
C498 C502 1.323 1_455 S
C499 C498 1.304 . S
C499 C500 1.371 . S
C499 H508 0.930 . S
C500 C497 1.344 . S
C500 C499 1.371 . S
C500 H509 0.931 . S
C501 C497 1.328 1_655 S
C501 C502 1.433 . S
C501 H510 0.931 . S
C502 C498 1.323 1_655 S
C502 C501 1.433 . S
C502 H511 0.933 . S
C503 Dy473 2.738 . S
C503 O483 1.255 . S
C503 O484 1.249 1_455 S
C503 C497 1.516 . S
H504 C490 0.930 . S
H505 C491 0.931 . S
H506 C492 0.931 . S
H507 C493 0.933 . S
H508 C499 0.930 . S
H509 C500 0.931 . S
H510 C501 0.931 . S
H511 C502 0.933 . S
Dy512 O515 2.307 . S
Dy512 O517 2.395 . S
Dy512 O518 2.379 . S
Dy512 O520 2.339 . S
Dy512 O522 2.298 . S
Dy512 O526 2.275 . S
Dy512 C534 2.738 . S
Dy513 O516 2.298 . S
Dy513 O519 2.275 . S
Dy513 O521 2.307 . S
Dy513 O523 2.395 . S
Dy513 O524 2.379 . S
Dy513 O527 2.339 . S
Dy513 C543 2.738 . S
C514 O526 1.254 . S
C514 O527 1.257 . S
O515 Dy512 2.307 . S
O515 C525 1.266 . S
O516 Dy513 2.298 . S
O516 C525 1.236 . S
O517 Dy512 2.395 . S
O517 C534 1.255 . S
O518 Dy512 2.379 . S
O518 C534 1.249 . S
O519 Dy513 2.275 . S
O519 C535 1.254 . S
O520 Dy512 2.339 . S
O520 C535 1.257 . S
O521 Dy513 2.307 . S
O521 C536 1.266 . S
O522 Dy512 2.298 . S
O522 C536 1.236 . S
O523 Dy513 2.395 . S
O523 C543 1.255 . S
O524 Dy513 2.379 . S
O524 C543 1.249 . S
C525 O515 1.266 . S
C525 O516 1.236 . S
O526 Dy512 2.275 . S
O526 C514 1.254 . S
O527 Dy513 2.339 . S
O527 C514 1.257 . S
C528 C531 1.344 . S
C528 C532 1.328 . S
C528 C534 1.516 . S
C529 C530 1.304 . S
C529 C533 1.323 . S
C530 C529 1.304 . S
C530 C531 1.371 . S
C530 H544 0.930 . S
C531 C528 1.344 . S
C531 C530 1.371 . S
C531 H545 0.931 . S
C532 C528 1.328 . S
C532 C533 1.433 . S
C532 H546 0.931 . S
C533 C529 1.323 . S
C533 C532 1.433 . S
C533 H547 0.933 . S
C534 Dy512 2.738 . S
C534 O517 1.255 . S
C534 O518 1.249 . S
C534 C528 1.516 . S
C535 O519 1.254 . S
C535 O520 1.257 . S
C536 O521 1.266 . S
C536 O522 1.236 . S
C537 C540 1.344 . S
C537 C541 1.328 . S
C537 C543 1.516 . S
C538 C539 1.304 . S
C538 C542 1.323 . S
C539 C538 1.304 . S
C539 C540 1.371 . S
C539 H548 0.930 . S
C540 C537 1.344 . S
C540 C539 1.371 . S
C540 H549 0.931 . S
C541 C537 1.328 . S
C541 C542 1.433 . S
C541 H550 0.931 . S
C542 C538 1.323 . S
C542 C541 1.433 . S
C542 H551 0.933 . S
C543 Dy513 2.738 . S
C543 O523 1.255 . S
C543 O524 1.249 . S
C543 C537 1.516 . S
H544 C530 0.930 . S
H545 C531 0.931 . S
H546 C532 0.931 . S
H547 C533 0.933 . S
H548 C539 0.930 . S
H549 C540 0.931 . S
H550 C541 0.931 . S
H551 C542 0.933 . S
Dy552 O555 2.307 . S
Dy552 O557 2.395 1_554 S
Dy552 O558 2.379 1_554 S
Dy552 O560 2.339 . S
Dy552 O562 2.298 . S
Dy552 O566 2.275 . S
Dy552 C574 2.738 1_554 S
Dy553 O556 2.298 . S
Dy553 O559 2.275 . S
Dy553 O561 2.307 . S
Dy553 O563 2.395 . S
Dy553 O564 2.379 1_545 S
Dy553 O567 2.339 1_545 S
Dy553 C583 2.738 . S
C554 O566 1.254 1_565 S
C554 O567 1.257 . S
O555 Dy552 2.307 . S
O555 C565 1.266 . S
O556 Dy553 2.298 . S
O556 C565 1.236 . S
O557 Dy552 2.395 1_556 S
O557 C574 1.255 . S
O558 Dy552 2.379 1_556 S
O558 C574 1.249 . S
O559 Dy553 2.275 . S
O559 C575 1.254 . S
O560 Dy552 2.339 . S
O560 C575 1.257 . S
O561 Dy553 2.307 . S
O561 C576 1.266 . S
O562 Dy552 2.298 . S
O562 C576 1.236 . S
O563 Dy553 2.395 . S
O563 C583 1.255 . S
O564 Dy553 2.379 1_565 S
O564 C583 1.249 1_565 S
C565 O555 1.266 . S
C565 O556 1.236 . S
O566 Dy552 2.275 . S
O566 C554 1.254 1_545 S
O567 Dy553 2.339 1_565 S
O567 C554 1.257 . S
C568 C571 1.344 . S
C568 C572 1.328 . S
C568 C574 1.516 . S
C569 C570 1.304 . S
C569 C573 1.323 . S
C570 C569 1.304 . S
C570 C571 1.371 . S
C570 H584 0.930 . S
C571 C568 1.344 . S
C571 C570 1.371 . S
C571 H585 0.931 . S
C572 C568 1.328 . S
C572 C573 1.433 . S
C572 H586 0.931 . S
C573 C569 1.323 . S
C573 C572 1.433 . S
C573 H587 0.933 . S
C574 Dy552 2.738 1_556 S
C574 O557 1.255 . S
C574 O558 1.249 . S
C574 C568 1.516 . S
C575 O559 1.254 . S
C575 O560 1.257 . S
C576 O561 1.266 . S
C576 O562 1.236 . S
C577 C580 1.344 . S
C577 C581 1.328 1_545 S
C577 C583 1.516 . S
C578 C579 1.304 1_565 S
C578 C582 1.323 . S
C579 C578 1.304 1_545 S
C579 C580 1.371 . S
C579 H588 0.930 . S
C580 C577 1.344 . S
C580 C579 1.371 . S
C580 H589 0.931 . S
C581 C577 1.328 1_565 S
C581 C582 1.433 . S
C581 H590 0.931 . S
C582 C578 1.323 . S
C582 C581 1.433 . S
C582 H591 0.933 . S
C583 Dy553 2.738 . S
C583 O563 1.255 . S
C583 O564 1.249 1_545 S
C583 C577 1.516 . S
H584 C570 0.930 . S
H585 C571 0.931 . S
H586 C572 0.931 . S
H587 C573 0.933 . S
H588 C579 0.930 . S
H589 C580 0.931 . S
H590 C581 0.931 . S
H591 C582 0.933 . S
Dy592 O595 2.307 . S
Dy592 O597 2.395 . S
Dy592 O598 2.379 . S
Dy592 O600 2.339 . S
Dy592 O602 2.298 . S
Dy592 O606 2.275 . S
Dy592 C614 2.738 . S
Dy593 O596 2.298 . S
Dy593 O599 2.275 . S
Dy593 O601 2.307 . S
Dy593 O603 2.395 . S
Dy593 O604 2.379 . S
Dy593 O607 2.339 . S
Dy593 C623 2.738 . S
C594 O606 1.254 . S
C594 O607 1.257 . S
O595 Dy592 2.307 . S
O595 C605 1.266 . S
O596 Dy593 2.298 . S
O596 C605 1.236 . S
O597 Dy592 2.395 . S
O597 C614 1.255 . S
O598 Dy592 2.379 . S
O598 C614 1.249 . S
O599 Dy593 2.275 . S
O599 C615 1.254 . S
O600 Dy592 2.339 . S
O600 C615 1.257 . S
O601 Dy593 2.307 . S
O601 C616 1.266 . S
O602 Dy592 2.298 . S
O602 C616 1.236 . S
O603 Dy593 2.395 . S
O603 C623 1.255 . S
O604 Dy593 2.379 . S
O604 C623 1.249 . S
C605 O595 1.266 . S
C605 O596 1.236 . S
O606 Dy592 2.275 . S
O606 C594 1.254 . S
O607 Dy593 2.339 . S
O607 C594 1.257 . S
C608 C611 1.344 . S
C608 C612 1.328 . S
C608 C614 1.516 . S
C609 C610 1.304 . S
C609 C613 1.323 . S
C610 C609 1.304 . S
C610 C611 1.371 . S
C610 H624 0.930 . S
C611 C608 1.344 . S
C611 C610 1.371 . S
C611 H625 0.931 . S
C612 C608 1.328 . S
C612 C613 1.433 . S
C612 H626 0.931 . S
C613 C609 1.323 . S
C613 C612 1.433 . S
C613 H627 0.933 . S
C614 Dy592 2.738 . S
C614 O597 1.255 . S
C614 O598 1.249 . S
C614 C608 1.516 . S
C615 O599 1.254 . S
C615 O600 1.257 . S
C616 O601 1.266 . S
C616 O602 1.236 . S
C617 C620 1.344 . S
C617 C621 1.328 . S
C617 C623 1.516 . S
C618 C619 1.304 . S
C618 C622 1.323 . S
C619 C618 1.304 . S
C619 C620 1.371 . S
C619 H628 0.930 . S
C620 C617 1.344 . S
C620 C619 1.371 . S
C620 H629 0.931 . S
C621 C617 1.328 . S
C621 C622 1.433 . S
C621 H630 0.931 . S
C622 C618 1.323 . S
C622 C621 1.433 . S
C622 H631 0.933 . S
C623 Dy593 2.738 . S
C623 O603 1.255 . S
C623 O604 1.249 . S
C623 C617 1.516 . S
H624 C610 0.930 . S
H625 C611 0.931 . S
H626 C612 0.931 . S
H627 C613 0.933 . S
H628 C619 0.930 . S
H629 C620 0.931 . S
H630 C621 0.931 . S
H631 C622 0.933 . S
Dy632 O635 2.307 1_554 S
Dy632 O637 2.395 . S
Dy632 O638 2.379 . S
Dy632 O640 2.339 . S
Dy632 O642 2.298 . S
Dy632 O646 2.275 . S
Dy632 C654 2.738 . S
Dy633 O636 2.255 1_554 S
Dy633 O639 2.275 . S
Dy633 O641 2.307 . S
Dy633 O643 2.395 . S
Dy633 O644 2.379 . S
Dy633 O647 2.339 . S
Dy633 C663 2.738 . S
C634 O646 1.254 . S
C634 O647 1.257 . S
O635 Dy632 2.307 1_556 S
O635 C645 1.266 . S
O636 Dy633 2.255 1_556 S
O636 C645 1.262 . S
O637 Dy632 2.395 . S
O637 C654 1.255 . S
O638 Dy632 2.379 . S
O638 C654 1.249 . S
O639 Dy633 2.275 . S
O639 C655 1.254 . S
O640 Dy632 2.339 . S
O640 C655 1.257 . S
O641 Dy633 2.307 . S
O641 C656 1.266 . S
O642 Dy632 2.298 . S
O642 C656 1.236 . S
O643 Dy633 2.395 . S
O643 C663 1.255 . S
O644 Dy633 2.379 . S
O644 C663 1.249 . S
C645 O635 1.266 . S
C645 O636 1.262 . S
O646 Dy632 2.275 . S
O646 C634 1.254 . S
O647 Dy633 2.339 . S
O647 C634 1.257 . S
C648 C651 1.344 . S
C648 C652 1.328 . S
C648 C654 1.516 . S
C649 C650 1.304 . S
C649 C653 1.323 . S
C650 C649 1.304 . S
C650 C651 1.371 . S
C650 H664 0.930 . S
C651 C648 1.344 . S
C651 C650 1.371 . S
C651 H665 0.931 . S
C652 C648 1.328 . S
C652 C653 1.433 . S
C652 H666 0.931 . S
C653 C649 1.323 . S
C653 C652 1.433 . S
C653 H667 0.933 . S
C654 Dy632 2.738 . S
C654 O637 1.255 . S
C654 O638 1.249 . S
C654 C648 1.516 . S
C655 O639 1.254 . S
C655 O640 1.257 . S
C656 O641 1.266 . S
C656 O642 1.236 . S
C657 C660 1.363 . S
C657 C661 1.326 . S
C657 C663 1.500 1_556 S
C658 C659 1.304 . S
C658 C662 1.323 . S
C659 C658 1.304 . S
C659 C660 1.371 . S
C659 H668 0.930 . S
C660 C657 1.363 . S
C660 C659 1.371 . S
C660 H669 0.931 . S
C661 C657 1.326 . S
C661 C662 1.434 . S
C661 H670 0.930 1_556 S
C662 C658 1.323 . S
C662 C661 1.434 . S
C662 H671 0.933 . S
C663 Dy633 2.738 . S
C663 O643 1.255 . S
C663 O644 1.249 . S
C663 C657 1.500 1_554 S
H664 C650 0.930 . S
H665 C651 0.931 . S
H666 C652 0.931 . S
H667 C653 0.933 . S
H668 C659 0.930 . S
H669 C660 0.931 . S
H670 C661 0.930 1_554 S
H671 C662 0.933 . S
Dy672 O675 2.307 . S
Dy672 O677 2.395 . S
Dy672 O678 2.379 . S
Dy672 O680 2.339 . S
Dy672 O682 2.298 . S
Dy672 O686 2.275 . S
Dy672 C694 2.738 . S
Dy673 O676 2.298 . S
Dy673 O679 2.275 . S
Dy673 O681 2.307 . S
Dy673 O683 2.395 . S
Dy673 O684 2.379 . S
Dy673 O687 2.339 . S
Dy673 C703 2.738 . S
C674 O686 1.254 . S
C674 O687 1.257 . S
O675 Dy672 2.307 . S
O675 C685 1.266 . S
O676 Dy673 2.298 . S
O676 C685 1.236 . S
O677 Dy672 2.395 . S
O677 C694 1.255 . S
O678 Dy672 2.379 . S
O678 C694 1.249 . S
O679 Dy673 2.275 . S
O679 C695 1.254 . S
O680 Dy672 2.339 . S
O680 C695 1.257 . S
O681 Dy673 2.307 . S
O681 C696 1.266 . S
O682 Dy672 2.298 . S
O682 C696 1.236 . S
O683 Dy673 2.395 . S
O683 C703 1.255 . S
O684 Dy673 2.379 . S
O684 C703 1.249 . S
C685 O675 1.266 . S
C685 O676 1.236 . S
O686 Dy672 2.275 . S
O686 C674 1.254 . S
O687 Dy673 2.339 . S
O687 C674 1.257 . S
C688 C691 1.344 . S
C688 C692 1.328 . S
C688 C694 1.516 . S
C689 C690 1.304 . S
C689 C693 1.323 . S
C690 C689 1.304 . S
C690 C691 1.371 . S
C690 H704 0.930 . S
C691 C688 1.344 . S
C691 C690 1.371 . S
C691 H705 0.931 . S
C692 C688 1.328 . S
C692 C693 1.433 . S
C692 H706 0.931 . S
C693 C689 1.323 . S
C693 C692 1.433 . S
C693 H707 0.933 . S
C694 Dy672 2.738 . S
C694 O677 1.255 . S
C694 O678 1.249 . S
C694 C688 1.516 . S
C695 O679 1.254 . S
C695 O680 1.257 . S
C696 O681 1.266 . S
C696 O682 1.236 . S
C697 C700 1.344 . S
C697 C701 1.328 . S
C697 C703 1.516 . S
C698 C699 1.304 . S
C698 C702 1.323 . S
C699 C698 1.304 . S
C699 C700 1.371 . S
C699 H708 0.930 . S
C700 C697 1.344 . S
C700 C699 1.371 . S
C700 H709 0.931 . S
C701 C697 1.328 . S
C701 C702 1.433 . S
C701 H710 0.931 . S
C702 C698 1.323 . S
C702 C701 1.433 . S
C702 H711 0.933 . S
C703 Dy673 2.738 . S
C703 O683 1.255 . S
C703 O684 1.249 . S
C703 C697 1.516 . S
H704 C690 0.930 . S
H705 C691 0.931 . S
H706 C692 0.931 . S
H707 C693 0.933 . S
H708 C699 0.930 . S
H709 C700 0.931 . S
H710 C701 0.931 . S
H711 C702 0.933 . S
Dy712 O715 2.307 1_455 S
Dy712 O717 2.395 . S
Dy712 O718 2.379 . S
Dy712 O720 2.339 . S
Dy712 O722 2.298 . S
Dy712 O726 2.275 . S
Dy712 C734 2.738 . S
Dy713 O716 2.298 1_455 S
Dy713 O719 2.275 . S
Dy713 O721 2.307 . S
Dy713 O723 2.395 . S
Dy713 O724 2.379 . S
Dy713 O727 2.339 . S
Dy713 C743 2.738 . S
C714 O726 1.254 . S
C714 O727 1.257 . S
O715 Dy712 2.307 1_655 S
O715 C725 1.266 . S
O716 Dy713 2.298 1_655 S
O716 C725 1.236 . S
O717 Dy712 2.395 . S
O717 C734 1.255 . S
O718 Dy712 2.379 . S
O718 C734 1.249 . S
O719 Dy713 2.275 . S
O719 C735 1.254 . S
O720 Dy712 2.339 . S
O720 C735 1.257 . S
O721 Dy713 2.307 . S
O721 C736 1.266 . S
O722 Dy712 2.298 . S
O722 C736 1.236 . S
O723 Dy713 2.395 . S
O723 C743 1.255 . S
O724 Dy713 2.379 . S
O724 C743 1.249 . S
C725 O715 1.266 . S
C725 O716 1.236 . S
O726 Dy712 2.275 . S
O726 C714 1.254 . S
O727 Dy713 2.339 . S
O727 C714 1.257 . S
C728 C731 1.344 . S
C728 C732 1.328 . S
C728 C734 1.516 . S
C729 C730 1.304 . S
C729 C733 1.323 . S
C730 C729 1.304 . S
C730 C731 1.371 . S
C730 H744 0.930 . S
C731 C728 1.344 . S
C731 C730 1.371 . S
C731 H745 0.931 . S
C732 C728 1.328 . S
C732 C733 1.433 . S
C732 H746 0.931 . S
C733 C729 1.323 . S
C733 C732 1.433 . S
C733 H747 0.933 . S
C734 Dy712 2.738 . S
C734 O717 1.255 . S
C734 O718 1.249 . S
C734 C728 1.516 . S
C735 O719 1.254 . S
C735 O720 1.257 . S
C736 O721 1.266 . S
C736 O722 1.236 . S
C737 C740 1.344 . S
C737 C741 1.328 . S
C737 C743 1.516 1_655 S
C738 C739 1.304 . S
C738 C742 1.323 . S
C739 C738 1.304 . S
C739 C740 1.371 . S
C739 H748 0.930 . S
C740 C737 1.344 . S
C740 C739 1.371 . S
C740 H749 0.931 . S
C741 C737 1.328 . S
C741 C742 1.433 . S
C741 H750 0.944 . S
C742 C738 1.323 . S
C742 C741 1.433 . S
C742 H751 0.933 . S
C743 Dy713 2.738 . S
C743 O723 1.255 . S
C743 O724 1.249 . S
C743 C737 1.516 1_455 S
H744 C730 0.930 . S
H745 C731 0.931 . S
H746 C732 0.931 . S
H747 C733 0.933 . S
H748 C739 0.930 . S
H749 C740 0.931 . S
H750 C741 0.944 . S
H751 C742 0.933 . S
Dy752 O755 2.307 . S
Dy752 O757 2.395 . S
Dy752 O758 2.379 . S
Dy752 O760 2.339 . S
Dy752 O762 2.298 . S
Dy752 O766 2.275 . S
Dy752 C774 2.738 . S
Dy753 O756 2.298 . S
Dy753 O759 2.275 . S
Dy753 O761 2.307 . S
Dy753 O763 2.395 . S
Dy753 O764 2.379 . S
Dy753 O767 2.339 . S
Dy753 C783 2.738 . S
C754 O766 1.254 . S
C754 O767 1.257 . S
O755 Dy752 2.307 . S
O755 C765 1.266 . S
O756 Dy753 2.298 . S
O756 C765 1.236 . S
O757 Dy752 2.395 . S
O757 C774 1.255 . S
O758 Dy752 2.379 . S
O758 C774 1.249 . S
O759 Dy753 2.275 . S
O759 C775 1.254 . S
O760 Dy752 2.339 . S
O760 C775 1.257 . S
O761 Dy753 2.307 . S
O761 C776 1.266 . S
O762 Dy752 2.298 . S
O762 C776 1.236 . S
O763 Dy753 2.395 . S
O763 C783 1.255 . S
O764 Dy753 2.379 . S
O764 C783 1.249 . S
C765 O755 1.266 . S
C765 O756 1.236 . S
O766 Dy752 2.275 . S
O766 C754 1.254 . S
O767 Dy753 2.339 . S
O767 C754 1.257 . S
C768 C771 1.344 . S
C768 C772 1.328 . S
C768 C774 1.516 . S
C769 C770 1.304 . S
C769 C773 1.323 . S
C770 C769 1.304 . S
C770 C771 1.371 . S
C770 H784 0.930 . S
C771 C768 1.344 . S
C771 C770 1.371 . S
C771 H785 0.931 . S
C772 C768 1.328 . S
C772 C773 1.433 . S
C772 H786 0.931 . S
C773 C769 1.323 . S
C773 C772 1.433 . S
C773 H787 0.933 . S
C774 Dy752 2.738 . S
C774 O757 1.255 . S
C774 O758 1.249 . S
C774 C768 1.516 . S
C775 O759 1.254 . S
C775 O760 1.257 . S
C776 O761 1.266 . S
C776 O762 1.236 . S
C777 C780 1.344 . S
C777 C781 1.328 . S
C777 C783 1.516 . S
C778 C779 1.304 . S
C778 C782 1.323 . S
C779 C778 1.304 . S
C779 C780 1.371 . S
C779 H788 0.930 . S
C780 C777 1.344 . S
C780 C779 1.371 . S
C780 H789 0.931 . S
C781 C777 1.328 . S
C781 C782 1.433 . S
C781 H790 0.931 . S
C782 C778 1.323 . S
C782 C781 1.433 . S
C782 H791 0.933 . S
C783 Dy753 2.738 . S
C783 O763 1.255 . S
C783 O764 1.249 . S
C783 C777 1.516 . S
H784 C770 0.930 . S
H785 C771 0.931 . S
H786 C772 0.931 . S
H787 C773 0.933 . S
H788 C779 0.930 . S
H789 C780 0.931 . S
H790 C781 0.931 . S
H791 C782 0.933 . S
Dy792 O795 2.307 . S
Dy792 O797 2.395 . S
Dy792 O798 2.379 . S
Dy792 O800 2.339 . S
Dy792 O802 2.298 . S
Dy792 O806 2.275 . S
Dy792 C814 2.738 . S
Dy793 O796 2.298 . S
Dy793 O799 2.275 . S
Dy793 O801 2.307 . S
Dy793 O803 2.395 . S
Dy793 O804 2.379 . S
Dy793 O807 2.339 . S
Dy793 C823 2.738 . S
C794 O806 1.254 . S
C794 O807 1.257 . S
O795 Dy792 2.307 . S
O795 C805 1.266 . S
O796 Dy793 2.298 . S
O796 C805 1.236 . S
O797 Dy792 2.395 . S
O797 C814 1.255 . S
O798 Dy792 2.379 . S
O798 C814 1.249 . S
O799 Dy793 2.275 . S
O799 C815 1.254 . S
O800 Dy792 2.339 . S
O800 C815 1.257 . S
O801 Dy793 2.307 . S
O801 C816 1.266 . S
O802 Dy792 2.298 . S
O802 C816 1.236 . S
O803 Dy793 2.395 . S
O803 C823 1.255 . S
O804 Dy793 2.379 . S
O804 C823 1.249 . S
C805 O795 1.266 . S
C805 O796 1.236 . S
O806 Dy792 2.275 . S
O806 C794 1.254 . S
O807 Dy793 2.339 . S
O807 C794 1.257 . S
C808 C811 1.344 . S
C808 C812 1.328 . S
C808 C814 1.516 . S
C809 C810 1.304 . S
C809 C813 1.323 . S
C810 C809 1.304 . S
C810 C811 1.371 . S
C810 H824 0.930 . S
C811 C808 1.344 . S
C811 C810 1.371 . S
C811 H825 0.931 . S
C812 C808 1.328 . S
C812 C813 1.433 . S
C812 H826 0.931 . S
C813 C809 1.323 . S
C813 C812 1.433 . S
C813 H827 0.933 . S
C814 Dy792 2.738 . S
C814 O797 1.255 . S
C814 O798 1.249 . S
C814 C808 1.516 . S
C815 O799 1.254 . S
C815 O800 1.257 . S
C816 O801 1.266 . S
C816 O802 1.236 . S
C817 C820 1.344 . S
C817 C821 1.328 . S
C817 C823 1.516 . S
C818 C819 1.304 . S
C818 C822 1.323 . S
C819 C818 1.304 . S
C819 C820 1.371 . S
C819 H828 0.930 . S
C820 C817 1.344 . S
C820 C819 1.371 . S
C820 H829 0.931 . S
C821 C817 1.328 . S
C821 C822 1.433 . S
C821 H830 0.931 . S
C822 C818 1.323 . S
C822 C821 1.433 . S
C822 H831 0.933 . S
C823 Dy793 2.738 . S
C823 O803 1.255 . S
C823 O804 1.249 . S
C823 C817 1.516 . S
H824 C810 0.930 . S
H825 C811 0.931 . S
H826 C812 0.931 . S
H827 C813 0.933 . S
H828 C819 0.930 . S
H829 C820 0.931 . S
H830 C821 0.931 . S
H831 C822 0.933 . S
Dy832 O835 2.307 . S
Dy832 O837 2.395 . S
Dy832 O838 2.379 . S
Dy832 O840 2.339 . S
Dy832 O842 2.298 . S
Dy832 O846 2.275 . S
Dy832 C854 2.738 . S
Dy833 O836 2.298 . S
Dy833 O839 2.275 . S
Dy833 O841 2.307 . S
Dy833 O843 2.395 . S
Dy833 O844 2.379 . S
Dy833 O847 2.339 . S
Dy833 C863 2.738 . S
C834 O846 1.254 . S
C834 O847 1.257 . S
O835 Dy832 2.307 . S
O835 C845 1.266 . S
O836 Dy833 2.298 . S
O836 C845 1.236 . S
O837 Dy832 2.395 . S
O837 C854 1.255 . S
O838 Dy832 2.379 . S
O838 C854 1.249 . S
O839 Dy833 2.275 . S
O839 C855 1.254 . S
O840 Dy832 2.339 . S
O840 C855 1.257 . S
O841 Dy833 2.307 . S
O841 C856 1.266 . S
O842 Dy832 2.298 . S
O842 C856 1.236 . S
O843 Dy833 2.395 . S
O843 C863 1.255 . S
O844 Dy833 2.379 . S
O844 C863 1.249 . S
C845 O835 1.266 . S
C845 O836 1.236 . S
O846 Dy832 2.275 . S
O846 C834 1.254 . S
O847 Dy833 2.339 . S
O847 C834 1.257 . S
C848 C851 1.344 . S
C848 C852 1.328 . S
C848 C854 1.516 . S
C849 C850 1.304 . S
C849 C853 1.323 . S
C850 C849 1.304 . S
C850 C851 1.371 . S
C850 H864 0.930 . S
C851 C848 1.344 . S
C851 C850 1.371 . S
C851 H865 0.931 . S
C852 C848 1.328 . S
C852 C853 1.433 . S
C852 H866 0.931 . S
C853 C849 1.323 . S
C853 C852 1.433 . S
C853 H867 0.933 . S
C854 Dy832 2.738 . S
C854 O837 1.255 . S
C854 O838 1.249 . S
C854 C848 1.516 . S
C855 O839 1.254 . S
C855 O840 1.257 . S
C856 O841 1.266 . S
C856 O842 1.236 . S
C857 C860 1.344 . S
C857 C861 1.328 . S
C857 C863 1.516 . S
C858 C859 1.304 . S
C858 C862 1.323 . S
C859 C858 1.304 . S
C859 C860 1.371 . S
C859 H868 0.930 . S
C860 C857 1.344 . S
C860 C859 1.371 . S
C860 H869 0.931 . S
C861 C857 1.328 . S
C861 C862 1.433 . S
C861 H870 0.931 . S
C862 C858 1.323 . S
C862 C861 1.433 . S
C862 H871 0.933 . S
C863 Dy833 2.738 . S
C863 O843 1.255 . S
C863 O844 1.249 . S
C863 C857 1.516 . S
H864 C850 0.930 . S
H865 C851 0.931 . S
H866 C852 0.931 . S
H867 C853 0.933 . S
H868 C859 0.930 . S
H869 C860 0.931 . S
H870 C861 0.931 . S
H871 C862 0.933 . S
Dy872 O875 2.307 . S
Dy872 O877 2.395 . S
Dy872 O878 2.379 . S
Dy872 O880 2.339 . S
Dy872 O882 2.298 . S
Dy872 O886 2.275 . S
Dy872 C894 2.738 . S
Dy873 O876 2.298 . S
Dy873 O879 2.275 . S
Dy873 O881 2.307 . S
Dy873 O883 2.395 . S
Dy873 O884 2.379 . S
Dy873 O887 2.339 . S
Dy873 C903 2.738 . S
C874 O886 1.254 . S
C874 O887 1.257 . S
O875 Dy872 2.307 . S
O875 C885 1.266 . S
O876 Dy873 2.298 . S
O876 C885 1.236 . S
O877 Dy872 2.395 . S
O877 C894 1.255 . S
O878 Dy872 2.379 . S
O878 C894 1.249 . S
O879 Dy873 2.275 . S
O879 C895 1.254 . S
O880 Dy872 2.339 . S
O880 C895 1.257 . S
O881 Dy873 2.307 . S
O881 C896 1.266 . S
O882 Dy872 2.298 . S
O882 C896 1.236 . S
O883 Dy873 2.395 . S
O883 C903 1.255 . S
O884 Dy873 2.379 . S
O884 C903 1.249 . S
C885 O875 1.266 . S
C885 O876 1.236 . S
O886 Dy872 2.275 . S
O886 C874 1.254 . S
O887 Dy873 2.339 . S
O887 C874 1.257 . S
C888 C891 1.344 . S
C888 C892 1.328 . S
C888 C894 1.516 . S
C889 C890 1.304 . S
C889 C893 1.323 . S
C890 C889 1.304 . S
C890 C891 1.371 . S
C890 H904 0.930 . S
C891 C888 1.344 . S
C891 C890 1.371 . S
C891 H905 0.931 . S
C892 C888 1.328 . S
C892 C893 1.433 . S
C892 H906 0.931 . S
C893 C889 1.323 . S
C893 C892 1.433 . S
C893 H907 0.933 . S
C894 Dy872 2.738 . S
C894 O877 1.255 . S
C894 O878 1.249 . S
C894 C888 1.516 . S
C895 O879 1.254 . S
C895 O880 1.257 . S
C896 O881 1.266 . S
C896 O882 1.236 . S
C897 C900 1.344 . S
C897 C901 1.328 . S
C897 C903 1.516 . S
C898 C899 1.304 . S
C898 C902 1.323 . S
C899 C898 1.304 . S
C899 C900 1.371 . S
C899 H908 0.930 . S
C900 C897 1.344 . S
C900 C899 1.371 . S
C900 H909 0.931 . S
C901 C897 1.328 . S
C901 C902 1.433 . S
C901 H910 0.931 . S
C902 C898 1.323 . S
C902 C901 1.433 . S
C902 H911 0.933 . S
C903 Dy873 2.738 . S
C903 O883 1.255 . S
C903 O884 1.249 . S
C903 C897 1.516 . S
H904 C890 0.930 . S
H905 C891 0.931 . S
H906 C892 0.931 . S
H907 C893 0.933 . S
H908 C899 0.930 . S
H909 C900 0.931 . S
H910 C901 0.931 . S
H911 C902 0.933 . S
Dy912 O915 2.307 . S
Dy912 O917 2.395 1_455 S
Dy912 O918 2.379 1_455 S
Dy912 O920 2.339 . S
Dy912 O922 2.298 . S
Dy912 O926 2.275 . S
Dy912 C934 2.738 1_455 S
Dy913 O916 2.298 . S
Dy913 O919 2.275 . S
Dy913 O921 2.307 . S
Dy913 O923 2.395 . S
Dy913 O924 2.379 1_554 S
Dy913 O927 2.339 1_554 S
Dy913 C943 2.738 . S
C914 O926 1.254 1_556 S
C914 O927 1.257 . S
O915 Dy912 2.307 . S
O915 C925 1.266 . S
O916 Dy913 2.298 . S
O916 C925 1.236 . S
O917 Dy912 2.395 1_655 S
O917 C934 1.255 . S
O918 Dy912 2.379 1_655 S
O918 C934 1.249 . S
O919 Dy913 2.275 . S
O919 C935 1.254 . S
O920 Dy912 2.339 . S
O920 C935 1.257 . S
O921 Dy913 2.307 . S
O921 C936 1.266 . S
O922 Dy912 2.298 . S
O922 C936 1.236 . S
O923 Dy913 2.395 . S
O923 C943 1.255 . S
O924 Dy913 2.379 1_556 S
O924 C943 1.249 1_556 S
C925 O915 1.266 . S
C925 O916 1.236 . S
O926 Dy912 2.275 . S
O926 C914 1.254 1_554 S
O927 Dy913 2.339 1_556 S
O927 C914 1.257 . S
C928 C931 1.344 . S
C928 C932 1.328 . S
C928 C934 1.516 . S
C929 C930 1.304 . S
C929 C933 1.323 . S
C930 C929 1.304 . S
C930 C931 1.371 . S
C930 H944 0.930 . S
C931 C928 1.344 . S
C931 C930 1.371 . S
C931 H945 0.931 . S
C932 C928 1.328 . S
C932 C933 1.433 . S
C932 H946 0.931 . S
C933 C929 1.323 . S
C933 C932 1.433 . S
C933 H947 0.933 . S
C934 Dy912 2.738 1_655 S
C934 O917 1.255 . S
C934 O918 1.249 . S
C934 C928 1.516 . S
C935 O919 1.254 . S
C935 O920 1.257 . S
C936 O921 1.266 . S
C936 O922 1.236 . S
C937 C940 1.344 . S
C937 C941 1.328 1_554 S
C937 C943 1.516 . S
C938 C939 1.304 1_556 S
C938 C942 1.323 . S
C939 C938 1.304 1_554 S
C939 C940 1.371 . S
C939 H948 0.930 . S
C940 C937 1.344 . S
C940 C939 1.371 . S
C940 H949 0.931 . S
C941 C937 1.328 1_556 S
C941 C942 1.433 . S
C941 H950 0.931 . S
C942 C938 1.323 . S
C942 C941 1.433 . S
C942 H951 0.933 . S
C943 Dy913 2.738 . S
C943 O923 1.255 . S
C943 O924 1.249 1_554 S
C943 C937 1.516 . S
H944 C930 0.930 . S
H945 C931 0.931 . S
H946 C932 0.931 . S
H947 C933 0.933 . S
H948 C939 0.930 . S
H949 C940 0.931 . S
H950 C941 0.931 . S
H951 C942 0.933 . S
C952 C953 1.411 . S
C952 C954 1.394 . S
C952 H968 0.931 . S
C953 C952 1.411 . S
C953 C957 1.336 1_656 S
C954 C952 1.394 . S
C954 C955 1.369 1_656 S
C954 C958 1.531 . S
C955 C954 1.369 1_454 S
C955 C956 1.410 . S
C955 C963 1.503 . S
C956 C955 1.410 . S
C956 C957 1.392 . S
C956 C959 1.511 . S
C957 C953 1.336 1_454 S
C957 C956 1.392 . S
C957 H969 0.929 . S
C958 C954 1.531 . S
C958 H970 0.960 . S
C958 H971 0.962 . S
C958 H972 0.960 . S
C959 C956 1.511 . S
C959 H973 0.961 . S
C959 H974 0.961 . S
C959 H975 0.961 . S
C960 C961 1.370 . S
C960 C962 1.363 . S
C960 H976 0.931 . S
C961 C960 1.370 . S
C961 C965 1.440 . S
C962 C960 1.363 . S
C962 C963 1.370 . S
C962 C966 1.535 . S
C963 C955 1.503 . S
C963 C962 1.370 . S
C963 C964 1.403 1_554 S
C964 C963 1.403 1_556 S
C964 C965 1.393 1_556 S
C964 C967 1.539 . S
C965 C961 1.440 . S
C965 C964 1.393 1_554 S
C965 H977 0.911 1_554 S
C966 C962 1.535 . S
C966 H978 0.939 1_455 S
C966 H979 0.967 . S
C966 H980 0.961 . S
C967 C964 1.539 . S
C967 H981 0.958 . S
C967 H982 0.961 . S
C967 H983 0.960 . S
H968 C952 0.931 . S
H969 C957 0.929 . S
H970 C958 0.960 . S
H971 C958 0.962 . S
H972 C958 0.960 . S
H973 C959 0.961 . S
H974 C959 0.961 . S
H975 C959 0.961 . S
H976 C960 0.931 . S
H977 C965 0.911 1_556 S
H978 C966 0.939 1_655 S
H979 C966 0.967 . S
H980 C966 0.961 . S
H981 C967 0.958 . S
H982 C967 0.961 . S
H983 C967 0.960 . S
C984 C985 1.391 . S
C984 C986 1.394 . S
C984 H1000 0.931 . S
C985 C984 1.391 . S
C985 C989 1.376 . S
C986 C984 1.394 . S
C986 C987 1.369 . S
C986 C990 1.531 . S
C987 C986 1.369 . S
C987 C988 1.410 . S
C987 C995 1.503 . S
C988 C987 1.410 . S
C988 C989 1.392 . S
C988 C991 1.511 . S
C989 C985 1.376 . S
C989 C988 1.392 . S
C989 H1001 0.929 . S
C990 C986 1.531 . S
C990 H1002 0.960 . S
C990 H1003 0.962 . S
C990 H1004 0.960 . S
C991 C988 1.511 . S
C991 H1005 0.961 . S
C991 H1006 0.961 . S
C991 H1007 0.961 . S
C992 C993 1.370 . S
C992 C994 1.363 . S
C992 H1008 0.931 . S
C993 C992 1.370 . S
C993 C997 1.408 . S
C994 C992 1.363 . S
C994 C995 1.370 . S
C994 C998 1.524 . S
C995 C987 1.503 . S
C995 C994 1.370 . S
C995 C996 1.403 . S
C996 C995 1.403 . S
C996 C997 1.404 . S
C996 C999 1.539 . S
C997 C993 1.408 . S
C997 C996 1.404 . S
C997 H1009 0.930 . S
C998 C994 1.524 . S
C998 H1010 0.956 . S
C998 H1011 0.961 . S
C998 H1012 0.961 . S
C999 C996 1.539 . S
C999 H1013 0.958 . S
C999 H1014 0.961 . S
C999 H1015 0.960 . S
H1000 C984 0.931 . S
H1001 C989 0.929 . S
H1002 C990 0.960 . S
H1003 C990 0.962 . S
H1004 C990 0.960 . S
H1005 C991 0.961 . S
H1006 C991 0.961 . S
H1007 C991 0.961 . S
H1008 C992 0.931 . S
H1009 C997 0.930 . S
H1010 C998 0.956 . S
H1011 C998 0.961 . S
H1012 C998 0.961 . S
H1013 C999 0.958 . S
H1014 C999 0.961 . S
H1015 C999 0.960 . S
C1016 C1017 1.391 . S
C1016 C1018 1.394 . S
C1016 H1032 0.931 . S
C1017 C1016 1.391 . S
C1017 C1021 1.376 . S
C1018 C1016 1.394 . S
C1018 C1019 1.369 . S
C1018 C1022 1.531 . S
C1019 C1018 1.369 . S
C1019 C1020 1.410 . S
C1019 C1027 1.503 . S
C1020 C1019 1.410 . S
C1020 C1021 1.392 . S
C1020 C1023 1.511 . S
C1021 C1017 1.376 . S
C1021 C1020 1.392 . S
C1021 H1033 0.929 . S
C1022 C1018 1.531 . S
C1022 H1034 0.960 . S
C1022 H1035 0.962 . S
C1022 H1036 0.960 . S
C1023 C1020 1.511 . S
C1023 H1037 0.961 . S
C1023 H1038 0.961 . S
C1023 H1039 0.961 . S
C1024 C1025 1.370 . S
C1024 C1026 1.363 . S
C1024 H1040 0.931 . S
C1025 C1024 1.370 . S
C1025 C1029 1.408 . S
C1026 C1024 1.363 . S
C1026 C1027 1.370 . S
C1026 C1030 1.524 . S
C1027 C1019 1.503 . S
C1027 C1026 1.370 . S
C1027 C1028 1.403 . S
C1028 C1027 1.403 . S
C1028 C1029 1.404 . S
C1028 C1031 1.539 . S
C1029 C1025 1.408 . S
C1029 C1028 1.404 . S
C1029 H1041 0.930 . S
C1030 C1026 1.524 . S
C1030 H1042 0.956 . S
C1030 H1043 0.961 . S
C1030 H1044 0.961 . S
C1031 C1028 1.539 . S
C1031 H1045 0.958 . S
C1031 H1046 0.961 . S
C1031 H1047 0.960 . S
H1032 C1016 0.931 . S
H1033 C1021 0.929 . S
H1034 C1022 0.960 . S
H1035 C1022 0.962 . S
H1036 C1022 0.960 . S
H1037 C1023 0.961 . S
H1038 C1023 0.961 . S
H1039 C1023 0.961 . S
H1040 C1024 0.931 . S
H1041 C1029 0.930 . S
H1042 C1030 0.956 . S
H1043 C1030 0.961 . S
H1044 C1030 0.961 . S
H1045 C1031 0.958 . S
H1046 C1031 0.961 . S
H1047 C1031 0.960 . S
C1048 C1049 1.391 . S
C1048 C1050 1.394 . S
C1048 H1064 0.931 . S
C1049 C1048 1.391 . S
C1049 C1053 1.376 . S
C1050 C1048 1.394 . S
C1050 C1051 1.369 . S
C1050 C1054 1.531 . S
C1051 C1050 1.369 . S
C1051 C1052 1.410 . S
C1051 C1059 1.503 . S
C1052 C1051 1.410 . S
C1052 C1053 1.392 . S
C1052 C1055 1.511 . S
C1053 C1049 1.376 . S
C1053 C1052 1.392 . S
C1053 H1065 0.929 . S
C1054 C1050 1.531 . S
C1054 H1066 0.960 . S
C1054 H1067 0.962 . S
C1054 H1068 0.960 . S
C1055 C1052 1.511 . S
C1055 H1069 0.961 . S
C1055 H1070 0.961 . S
C1055 H1071 0.961 . S
C1056 C1057 1.370 . S
C1056 C1058 1.363 . S
C1056 H1072 0.931 . S
C1057 C1056 1.370 . S
C1057 C1061 1.408 . S
C1058 C1056 1.363 . S
C1058 C1059 1.370 . S
C1058 C1062 1.524 . S
C1059 C1051 1.503 . S
C1059 C1058 1.370 . S
C1059 C1060 1.403 . S
C1060 C1059 1.403 . S
C1060 C1061 1.404 . S
C1060 C1063 1.539 . S
C1061 C1057 1.408 . S
C1061 C1060 1.404 . S
C1061 H1073 0.930 . S
C1062 C1058 1.524 . S
C1062 H1074 0.956 . S
C1062 H1075 0.961 . S
C1062 H1076 0.961 . S
C1063 C1060 1.539 . S
C1063 H1077 0.958 . S
C1063 H1078 0.961 . S
C1063 H1079 0.960 . S
H1064 C1048 0.931 . S
H1065 C1053 0.929 . S
H1066 C1054 0.960 . S
H1067 C1054 0.962 . S
H1068 C1054 0.960 . S
H1069 C1055 0.961 . S
H1070 C1055 0.961 . S
H1071 C1055 0.961 . S
H1072 C1056 0.931 . S
H1073 C1061 0.930 . S
H1074 C1062 0.956 . S
H1075 C1062 0.961 . S
H1076 C1062 0.961 . S
H1077 C1063 0.958 . S
H1078 C1063 0.961 . S
H1079 C1063 0.960 . S
C1080 C1081 1.391 . S
C1080 C1082 1.394 . S
C1080 H1096 0.931 1_455 S
C1081 C1080 1.391 . S
C1081 C1085 1.376 . S
C1082 C1080 1.394 . S
C1082 C1083 1.369 . S
C1082 C1086 1.531 1_455 S
C1083 C1082 1.369 . S
C1083 C1084 1.410 . S
C1083 C1091 1.503 . S
C1084 C1083 1.410 . S
C1084 C1085 1.392 . S
C1084 C1087 1.511 . S
C1085 C1081 1.376 . S
C1085 C1084 1.392 . S
C1085 H1097 0.929 . S
C1086 C1082 1.531 1_655 S
C1086 H1098 0.960 1_655 S
C1086 H1099 0.962 . S
C1086 H1100 0.960 . S
C1087 C1084 1.511 . S
C1087 H1101 0.961 . S
C1087 H1102 0.961 . S
C1087 H1103 0.961 . S
C1088 C1089 1.370 . S
C1088 C1090 1.363 . S
C1088 H1104 0.931 . S
C1089 C1088 1.370 . S
C1089 C1093 1.408 . S
C1090 C1088 1.363 . S
C1090 C1091 1.370 . S
C1090 C1094 1.524 . S
C1091 C1083 1.503 . S
C1091 C1090 1.370 . S
C1091 C1092 1.403 . S
C1092 C1091 1.403 . S
C1092 C1093 1.404 . S
C1092 C1095 1.539 . S
C1093 C1089 1.408 . S
C1093 C1092 1.404 . S
C1093 H1105 0.930 . S
C1094 C1090 1.524 . S
C1094 H1106 0.956 . S
C1094 H1107 0.961 . S
C1094 H1108 0.961 . S
C1095 C1092 1.539 . S
C1095 H1109 0.958 . S
C1095 H1110 0.961 . S
C1095 H1111 0.960 . S
H1096 C1080 0.931 1_655 S
H1097 C1085 0.929 . S
H1098 C1086 0.960 1_455 S
H1099 C1086 0.962 . S
H1100 C1086 0.960 . S
H1101 C1087 0.961 . S
H1102 C1087 0.961 . S
H1103 C1087 0.961 . S
H1104 C1088 0.931 . S
H1105 C1093 0.930 . S
H1106 C1094 0.956 . S
H1107 C1094 0.961 . S
H1108 C1094 0.961 . S
H1109 C1095 0.958 . S
H1110 C1095 0.961 . S
H1111 C1095 0.960 . S
C1112 C1113 1.391 . S
C1112 C1114 1.394 . S
C1112 H1128 0.931 . S
C1113 C1112 1.391 . S
C1113 C1117 1.376 . S
C1114 C1112 1.394 . S
C1114 C1115 1.369 . S
C1114 C1118 1.531 . S
C1115 C1114 1.369 . S
C1115 C1116 1.410 . S
C1115 C1123 1.503 . S
C1116 C1115 1.410 . S
C1116 C1117 1.392 . S
C1116 C1119 1.511 . S
C1117 C1113 1.376 . S
C1117 C1116 1.392 . S
C1117 H1129 0.929 . S
C1118 C1114 1.531 . S
C1118 H1130 0.960 . S
C1118 H1131 0.962 . S
C1118 H1132 0.960 . S
C1119 C1116 1.511 . S
C1119 H1133 0.961 . S
C1119 H1134 0.961 . S
C1119 H1135 0.961 . S
C1120 C1121 1.370 . S
C1120 C1122 1.363 . S
C1120 H1136 0.931 . S
C1121 C1120 1.370 . S
C1121 C1125 1.408 . S
C1122 C1120 1.363 . S
C1122 C1123 1.370 . S
C1122 C1126 1.524 . S
C1123 C1115 1.503 . S
C1123 C1122 1.370 . S
C1123 C1124 1.403 . S
C1124 C1123 1.403 . S
C1124 C1125 1.404 . S
C1124 C1127 1.539 . S
C1125 C1121 1.408 . S
C1125 C1124 1.404 . S
C1125 H1137 0.930 . S
C1126 C1122 1.524 . S
C1126 H1138 0.956 . S
C1126 H1139 0.961 . S
C1126 H1140 0.961 . S
C1127 C1124 1.539 . S
C1127 H1141 0.958 . S
C1127 H1142 0.961 . S
C1127 H1143 0.960 . S
H1128 C1112 0.931 . S
H1129 C1117 0.929 . S
H1130 C1118 0.960 . S
H1131 C1118 0.962 . S
H1132 C1118 0.960 . S
H1133 C1119 0.961 . S
H1134 C1119 0.961 . S
H1135 C1119 0.961 . S
H1136 C1120 0.931 . S
H1137 C1125 0.930 . S
H1138 C1126 0.956 . S
H1139 C1126 0.961 . S
H1140 C1126 0.961 . S
H1141 C1127 0.958 . S
H1142 C1127 0.961 . S
H1143 C1127 0.960 . S
C1144 C1145 1.391 . S
C1144 C1146 1.394 . S
C1144 H1160 0.931 . S
C1145 C1144 1.391 . S
C1145 C1149 1.376 . S
C1146 C1144 1.394 . S
C1146 C1147 1.369 . S
C1146 C1150 1.531 . S
C1147 C1146 1.369 . S
C1147 C1148 1.410 . S
C1147 C1155 1.503 . S
C1148 C1147 1.410 . S
C1148 C1149 1.392 . S
C1148 C1151 1.511 . S
C1149 C1145 1.376 . S
C1149 C1148 1.392 . S
C1149 H1161 0.929 . S
C1150 C1146 1.531 . S
C1150 H1162 0.960 . S
C1150 H1163 0.962 . S
C1150 H1164 0.960 . S
C1151 C1148 1.511 . S
C1151 H1165 0.961 . S
C1151 H1166 0.961 . S
C1151 H1167 0.961 . S
C1152 C1153 1.370 . S
C1152 C1154 1.363 . S
C1152 H1168 0.931 . S
C1153 C1152 1.370 . S
C1153 C1157 1.408 . S
C1154 C1152 1.363 . S
C1154 C1155 1.370 . S
C1154 C1158 1.524 . S
C1155 C1147 1.503 . S
C1155 C1154 1.370 . S
C1155 C1156 1.403 . S
C1156 C1155 1.403 . S
C1156 C1157 1.404 . S
C1156 C1159 1.539 . S
C1157 C1153 1.408 . S
C1157 C1156 1.404 . S
C1157 H1169 0.930 . S
C1158 C1154 1.524 . S
C1158 H1170 0.956 . S
C1158 H1171 0.961 . S
C1158 H1172 0.961 . S
C1159 C1156 1.539 . S
C1159 H1173 0.958 . S
C1159 H1174 0.961 . S
C1159 H1175 0.960 . S
H1160 C1144 0.931 . S
H1161 C1149 0.929 . S
H1162 C1150 0.960 . S
H1163 C1150 0.962 . S
H1164 C1150 0.960 . S
H1165 C1151 0.961 . S
H1166 C1151 0.961 . S
H1167 C1151 0.961 . S
H1168 C1152 0.931 . S
H1169 C1157 0.930 . S
H1170 C1158 0.956 . S
H1171 C1158 0.961 . S
H1172 C1158 0.961 . S
H1173 C1159 0.958 . S
H1174 C1159 0.961 . S
H1175 C1159 0.960 . S
C1176 C1177 1.391 . S
C1176 C1178 1.394 . S
C1176 H1192 0.931 . S
C1177 C1176 1.391 . S
C1177 C1181 1.376 . S
C1178 C1176 1.394 . S
C1178 C1179 1.369 . S
C1178 C1182 1.531 . S
C1179 C1178 1.369 . S
C1179 C1180 1.410 . S
C1179 C1187 1.503 . S
C1180 C1179 1.410 . S
C1180 C1181 1.392 . S
C1180 C1183 1.511 . S
C1181 C1177 1.376 . S
C1181 C1180 1.392 . S
C1181 H1193 0.929 . S
C1182 C1178 1.531 . S
C1182 H1194 0.960 . S
C1182 H1195 0.962 . S
C1182 H1196 0.960 . S
C1183 C1180 1.511 . S
C1183 H1197 0.961 . S
C1183 H1198 0.961 . S
C1183 H1199 0.961 . S
C1184 C1185 1.370 . S
C1184 C1186 1.363 . S
C1184 H1200 0.931 . S
C1185 C1184 1.370 . S
C1185 C1189 1.408 . S
C1186 C1184 1.363 . S
C1186 C1187 1.370 . S
C1186 C1190 1.524 . S
C1187 C1179 1.503 . S
C1187 C1186 1.370 . S
C1187 C1188 1.403 . S
C1188 C1187 1.403 . S
C1188 C1189 1.404 . S
C1188 C1191 1.539 . S
C1189 C1185 1.408 . S
C1189 C1188 1.404 . S
C1189 H1201 0.930 . S
C1190 C1186 1.524 . S
C1190 H1202 0.956 . S
C1190 H1203 0.961 . S
C1190 H1204 0.961 . S
C1191 C1188 1.539 . S
C1191 H1205 0.958 . S
C1191 H1206 0.961 . S
C1191 H1207 0.960 . S
H1192 C1176 0.931 . S
H1193 C1181 0.929 . S
H1194 C1182 0.960 . S
H1195 C1182 0.962 . S
H1196 C1182 0.960 . S
H1197 C1183 0.961 . S
H1198 C1183 0.961 . S
H1199 C1183 0.961 . S
H1200 C1184 0.931 . S
H1201 C1189 0.930 . S
H1202 C1190 0.956 . S
H1203 C1190 0.961 . S
H1204 C1190 0.961 . S
H1205 C1191 0.958 . S
H1206 C1191 0.961 . S
H1207 C1191 0.960 . S
C1208 C1209 1.391 . S
C1208 C1210 1.394 . S
C1208 H1224 0.924 1_655 S
C1209 C1208 1.391 . S
C1209 C1213 1.376 . S
C1210 C1208 1.394 . S
C1210 C1211 1.369 . S
C1210 C1214 1.531 1_655 S
C1211 C1210 1.369 . S
C1211 C1212 1.410 . S
C1211 C1219 1.503 . S
C1212 C1211 1.410 . S
C1212 C1213 1.392 . S
C1212 C1215 1.511 . S
C1213 C1209 1.376 . S
C1213 C1212 1.392 . S
C1213 H1225 0.929 . S
C1214 C1210 1.531 1_455 S
C1214 H1226 0.960 . S
C1214 H1227 0.962 . S
C1214 H1228 0.960 . S
C1215 C1212 1.511 . S
C1215 H1229 0.961 . S
C1215 H1230 0.961 . S
C1215 H1231 0.961 . S
C1216 C1217 1.370 . S
C1216 C1218 1.363 . S
C1216 H1232 0.931 . S
C1217 C1216 1.370 . S
C1217 C1221 1.408 1_455 S
C1218 C1216 1.363 . S
C1218 C1219 1.370 1_455 S
C1218 C1222 1.524 . S
C1219 C1211 1.503 . S
C1219 C1218 1.370 1_655 S
C1219 C1220 1.403 . S
C1220 C1219 1.403 . S
C1220 C1221 1.404 . S
C1220 C1223 1.539 1_545 S
C1221 C1217 1.408 1_655 S
C1221 C1220 1.404 . S
C1221 H1233 0.930 . S
C1222 C1218 1.524 . S
C1222 H1234 0.956 . S
C1222 H1235 0.961 . S
C1222 H1236 0.961 . S
C1223 C1220 1.539 1_565 S
C1223 H1237 0.958 . S
C1223 H1238 0.961 . S
C1223 H1239 0.960 . S
H1224 C1208 0.924 1_455 S
H1225 C1213 0.929 . S
H1226 C1214 0.960 . S
H1227 C1214 0.962 . S
H1228 C1214 0.960 . S
H1229 C1215 0.961 . S
H1230 C1215 0.961 . S
H1231 C1215 0.961 . S
H1232 C1216 0.931 . S
H1233 C1221 0.930 . S
H1234 C1222 0.956 . S
H1235 C1222 0.961 . S
H1236 C1222 0.961 . S
H1237 C1223 0.958 . S
H1238 C1223 0.961 . S
H1239 C1223 0.960 . S
C1240 C1241 1.391 . S
C1240 C1242 1.394 . S
C1240 H1256 0.931 . S
C1241 C1240 1.391 . S
C1241 C1245 1.376 . S
C1242 C1240 1.394 . S
C1242 C1243 1.369 . S
C1242 C1246 1.531 . S
C1243 C1242 1.369 . S
C1243 C1244 1.410 . S
C1243 C1251 1.503 . S
C1244 C1243 1.410 . S
C1244 C1245 1.392 . S
C1244 C1247 1.511 . S
C1245 C1241 1.376 . S
C1245 C1244 1.392 . S
C1245 H1257 0.929 . S
C1246 C1242 1.531 . S
C1246 H1258 0.960 . S
C1246 H1259 0.962 . S
C1246 H1260 0.960 . S
C1247 C1244 1.511 . S
C1247 H1261 0.961 . S
C1247 H1262 0.961 . S
C1247 H1263 0.961 . S
C1248 C1249 1.370 . S
C1248 C1250 1.363 . S
C1248 H1264 0.931 . S
C1249 C1248 1.370 . S
C1249 C1253 1.408 . S
C1250 C1248 1.363 . S
C1250 C1251 1.370 . S
C1250 C1254 1.524 . S
C1251 C1243 1.503 . S
C1251 C1250 1.370 . S
C1251 C1252 1.403 . S
C1252 C1251 1.403 . S
C1252 C1253 1.404 . S
C1252 C1255 1.539 . S
C1253 C1249 1.408 . S
C1253 C1252 1.404 . S
C1253 H1265 0.930 . S
C1254 C1250 1.524 . S
C1254 H1266 0.956 . S
C1254 H1267 0.961 . S
C1254 H1268 0.961 . S
C1255 C1252 1.539 . S
C1255 H1269 0.958 . S
C1255 H1270 0.961 . S
C1255 H1271 0.960 . S
H1256 C1240 0.931 . S
H1257 C1245 0.929 . S
H1258 C1246 0.960 . S
H1259 C1246 0.962 . S
H1260 C1246 0.960 . S
H1261 C1247 0.961 . S
H1262 C1247 0.961 . S
H1263 C1247 0.961 . S
H1264 C1248 0.931 . S
H1265 C1253 0.930 . S
H1266 C1254 0.956 . S
H1267 C1254 0.961 . S
H1268 C1254 0.961 . S
H1269 C1255 0.958 . S
H1270 C1255 0.961 . S
H1271 C1255 0.960 . S
C1272 C1273 1.391 . S
C1272 C1274 1.394 . S
C1272 H1288 0.931 . S
C1273 C1272 1.391 . S
C1273 C1277 1.376 . S
C1274 C1272 1.394 . S
C1274 C1275 1.369 . S
C1274 C1278 1.531 . S
C1275 C1274 1.369 . S
C1275 C1276 1.410 . S
C1275 C1283 1.503 . S
C1276 C1275 1.410 . S
C1276 C1277 1.392 . S
C1276 C1279 1.511 . S
C1277 C1273 1.376 . S
C1277 C1276 1.392 . S
C1277 H1289 0.929 . S
C1278 C1274 1.531 . S
C1278 H1290 0.960 . S
C1278 H1291 0.962 . S
C1278 H1292 0.960 . S
C1279 C1276 1.511 . S
C1279 H1293 0.961 . S
C1279 H1294 0.961 . S
C1279 H1295 0.961 . S
C1280 C1281 1.370 . S
C1280 C1282 1.363 . S
C1280 H1296 0.931 . S
C1281 C1280 1.370 . S
C1281 C1285 1.408 . S
C1282 C1280 1.363 . S
C1282 C1283 1.370 . S
C1282 C1286 1.524 . S
C1283 C1275 1.503 . S
C1283 C1282 1.370 . S
C1283 C1284 1.403 . S
C1284 C1283 1.403 . S
C1284 C1285 1.404 . S
C1284 C1287 1.539 . S
C1285 C1281 1.408 . S
C1285 C1284 1.404 . S
C1285 H1297 0.930 . S
C1286 C1282 1.524 . S
C1286 H1298 0.956 . S
C1286 H1299 0.961 . S
C1286 H1300 0.961 . S
C1287 C1284 1.539 . S
C1287 H1301 0.958 . S
C1287 H1302 0.961 . S
C1287 H1303 0.960 . S
H1288 C1272 0.931 . S
H1289 C1277 0.929 . S
H1290 C1278 0.960 . S
H1291 C1278 0.962 . S
H1292 C1278 0.960 . S
H1293 C1279 0.961 . S
H1294 C1279 0.961 . S
H1295 C1279 0.961 . S
H1296 C1280 0.931 . S
H1297 C1285 0.930 . S
H1298 C1286 0.956 . S
H1299 C1286 0.961 . S
H1300 C1286 0.961 . S
H1301 C1287 0.958 . S
H1302 C1287 0.961 . S
H1303 C1287 0.960 . S
C1304 C1305 1.391 . S
C1304 C1306 1.394 . S
C1304 H1320 0.931 . S
C1305 C1304 1.391 . S
C1305 C1309 1.376 . S
C1306 C1304 1.394 . S
C1306 C1307 1.369 . S
C1306 C1310 1.531 . S
C1307 C1306 1.369 . S
C1307 C1308 1.410 . S
C1307 C1315 1.503 . S
C1308 C1307 1.410 . S
C1308 C1309 1.392 . S
C1308 C1311 1.511 . S
C1309 C1305 1.376 . S
C1309 C1308 1.392 . S
C1309 H1321 0.929 . S
C1310 C1306 1.531 . S
C1310 H1322 0.960 . S
C1310 H1323 0.962 . S
C1310 H1324 0.960 . S
C1311 C1308 1.511 . S
C1311 H1325 0.961 . S
C1311 H1326 0.961 . S
C1311 H1327 0.961 . S
C1312 C1313 1.370 . S
C1312 C1314 1.363 . S
C1312 H1328 0.931 . S
C1313 C1312 1.370 . S
C1313 C1317 1.408 . S
C1314 C1312 1.363 . S
C1314 C1315 1.370 . S
C1314 C1318 1.524 . S
C1315 C1307 1.503 . S
C1315 C1314 1.370 . S
C1315 C1316 1.403 . S
C1316 C1315 1.403 . S
C1316 C1317 1.404 . S
C1316 C1319 1.539 . S
C1317 C1313 1.408 . S
C1317 C1316 1.404 . S
C1317 H1329 0.930 . S
C1318 C1314 1.524 . S
C1318 H1330 0.956 . S
C1318 H1331 0.961 . S
C1318 H1332 0.961 . S
C1319 C1316 1.539 . S
C1319 H1333 0.958 . S
C1319 H1334 0.961 . S
C1319 H1335 0.960 . S
H1320 C1304 0.931 . S
H1321 C1309 0.929 . S
H1322 C1310 0.960 . S
H1323 C1310 0.962 . S
H1324 C1310 0.960 . S
H1325 C1311 0.961 . S
H1326 C1311 0.961 . S
H1327 C1311 0.961 . S
H1328 C1312 0.931 . S
H1329 C1317 0.930 . S
H1330 C1318 0.956 . S
H1331 C1318 0.961 . S
H1332 C1318 0.961 . S
H1333 C1319 0.958 . S
H1334 C1319 0.961 . S
H1335 C1319 0.960 . S
C1336 C1337 1.391 . S
C1336 C1338 1.394 1_655 S
C1336 H1352 0.931 1_655 S
C1337 C1336 1.391 . S
C1337 C1341 1.376 . S
C1338 C1336 1.394 1_455 S
C1338 C1339 1.369 1_455 S
C1338 C1342 1.531 . S
C1339 C1338 1.369 1_655 S
C1339 C1340 1.410 . S
C1339 C1347 1.503 . S
C1340 C1339 1.410 . S
C1340 C1341 1.392 . S
C1340 C1343 1.511 . S
C1341 C1337 1.376 . S
C1341 C1340 1.392 . S
C1341 H1353 0.929 . S
C1342 C1338 1.531 . S
C1342 H1354 0.960 . S
C1342 H1355 0.962 . S
C1342 H1356 0.960 . S
C1343 C1340 1.511 . S
C1343 H1357 0.961 1_545 S
C1343 H1358 0.961 . S
C1343 H1359 0.961 . S
C1344 C1345 1.370 . S
C1344 C1346 1.363 . S
C1344 H1360 0.931 . S
C1345 C1344 1.370 . S
C1345 C1349 1.408 1_455 S
C1346 C1344 1.363 . S
C1346 C1347 1.370 1_455 S
C1346 C1350 1.524 . S
C1347 C1339 1.503 . S
C1347 C1346 1.370 1_655 S
C1347 C1348 1.403 . S
C1348 C1347 1.403 . S
C1348 C1349 1.404 . S
C1348 C1351 1.539 . S
C1349 C1345 1.408 1_655 S
C1349 C1348 1.404 . S
C1349 H1361 0.930 . S
C1350 C1346 1.524 . S
C1350 H1362 0.956 . S
C1350 H1363 0.961 . S
C1350 H1364 0.961 . S
C1351 C1348 1.539 . S
C1351 H1365 0.958 . S
C1351 H1366 0.961 . S
C1351 H1367 0.960 . S
H1352 C1336 0.931 1_455 S
H1353 C1341 0.929 . S
H1354 C1342 0.960 . S
H1355 C1342 0.962 . S
H1356 C1342 0.960 . S
H1357 C1343 0.961 1_565 S
H1358 C1343 0.961 . S
H1359 C1343 0.961 . S
H1360 C1344 0.931 . S
H1361 C1349 0.930 . S
H1362 C1350 0.956 . S
H1363 C1350 0.961 . S
H1364 C1350 0.961 . S
H1365 C1351 0.958 . S
H1366 C1351 0.961 . S
H1367 C1351 0.960 . S
C1368 C1369 1.391 . S
C1368 C1370 1.394 . S
C1368 H1384 0.931 . S
C1369 C1368 1.391 . S
C1369 C1373 1.376 . S
C1370 C1368 1.394 . S
C1370 C1371 1.369 . S
C1370 C1374 1.531 . S
C1371 C1370 1.369 . S
C1371 C1372 1.410 . S
C1371 C1379 1.503 . S
C1372 C1371 1.410 . S
C1372 C1373 1.392 . S
C1372 C1375 1.511 . S
C1373 C1369 1.376 . S
C1373 C1372 1.392 . S
C1373 H1385 0.929 . S
C1374 C1370 1.531 . S
C1374 H1386 0.960 . S
C1374 H1387 0.962 . S
C1374 H1388 0.960 . S
C1375 C1372 1.511 . S
C1375 H1389 0.961 . S
C1375 H1390 0.961 . S
C1375 H1391 0.961 . S
C1376 C1377 1.370 . S
C1376 C1378 1.363 . S
C1376 H1392 0.931 . S
C1377 C1376 1.370 . S
C1377 C1381 1.408 . S
C1378 C1376 1.363 . S
C1378 C1379 1.370 . S
C1378 C1382 1.524 . S
C1379 C1371 1.503 . S
C1379 C1378 1.370 . S
C1379 C1380 1.403 . S
C1380 C1379 1.403 . S
C1380 C1381 1.404 . S
C1380 C1383 1.539 . S
C1381 C1377 1.408 . S
C1381 C1380 1.404 . S
C1381 H1393 0.930 . S
C1382 C1378 1.524 . S
C1382 H1394 0.956 . S
C1382 H1395 0.961 . S
C1382 H1396 0.961 . S
C1383 C1380 1.539 . S
C1383 H1397 0.958 . S
C1383 H1398 0.961 . S
C1383 H1399 0.960 . S
H1384 C1368 0.931 . S
H1385 C1373 0.929 . S
H1386 C1374 0.960 . S
H1387 C1374 0.962 . S
H1388 C1374 0.960 . S
H1389 C1375 0.961 . S
H1390 C1375 0.961 . S
H1391 C1375 0.961 . S
H1392 C1376 0.931 . S
H1393 C1381 0.930 . S
H1394 C1382 0.956 . S
H1395 C1382 0.961 . S
H1396 C1382 0.961 . S
H1397 C1383 0.958 . S
H1398 C1383 0.961 . S
H1399 C1383 0.960 . S
C1400 C1401 1.391 . S
C1400 C1402 1.394 . S
C1400 H1416 0.931 . S
C1401 C1400 1.391 . S
C1401 C1405 1.376 . S
C1402 C1400 1.394 . S
C1402 C1403 1.369 . S
C1402 C1406 1.531 . S
C1403 C1402 1.369 . S
C1403 C1404 1.410 . S
C1403 C1411 1.503 . S
C1404 C1403 1.410 . S
C1404 C1405 1.392 . S
C1404 C1407 1.511 . S
C1405 C1401 1.376 . S
C1405 C1404 1.392 . S
C1405 H1417 0.929 . S
C1406 C1402 1.531 . S
C1406 H1418 0.960 . S
C1406 H1419 0.962 . S
C1406 H1420 0.960 . S
C1407 C1404 1.511 . S
C1407 H1421 0.961 . S
C1407 H1422 0.961 . S
C1407 H1423 0.961 . S
C1408 C1409 1.370 . S
C1408 C1410 1.363 . S
C1408 H1424 0.931 . S
C1409 C1408 1.370 . S
C1409 C1413 1.408 . S
C1410 C1408 1.363 . S
C1410 C1411 1.370 . S
C1410 C1414 1.524 . S
C1411 C1403 1.503 . S
C1411 C1410 1.370 . S
C1411 C1412 1.403 . S
C1412 C1411 1.403 . S
C1412 C1413 1.404 . S
C1412 C1415 1.539 . S
C1413 C1409 1.408 . S
C1413 C1412 1.404 . S
C1413 H1425 0.930 . S
C1414 C1410 1.524 . S
C1414 H1426 0.956 . S
C1414 H1427 0.961 . S
C1414 H1428 0.961 . S
C1415 C1412 1.539 . S
C1415 H1429 0.958 . S
C1415 H1430 0.961 . S
C1415 H1431 0.960 . S
H1416 C1400 0.931 . S
H1417 C1405 0.929 . S
H1418 C1406 0.960 . S
H1419 C1406 0.962 . S
H1420 C1406 0.960 . S
H1421 C1407 0.961 . S
H1422 C1407 0.961 . S
H1423 C1407 0.961 . S
H1424 C1408 0.931 . S
H1425 C1413 0.930 . S
H1426 C1414 0.956 . S
H1427 C1414 0.961 . S
H1428 C1414 0.961 . S
H1429 C1415 0.958 . S
H1430 C1415 0.961 . S
H1431 C1415 0.960 . S
C1432 C1433 1.391 . S
C1432 C1434 1.394 . S
C1432 H1448 0.931 . S
C1433 C1432 1.391 . S
C1433 C1437 1.376 . S
C1434 C1432 1.394 . S
C1434 C1435 1.369 . S
C1434 C1438 1.531 . S
C1435 C1434 1.369 . S
C1435 C1436 1.410 . S
C1435 C1443 1.503 . S
C1436 C1435 1.410 . S
C1436 C1437 1.392 . S
C1436 C1439 1.511 . S
C1437 C1433 1.376 . S
C1437 C1436 1.392 . S
C1437 H1449 0.929 . S
C1438 C1434 1.531 . S
C1438 H1450 0.960 . S
C1438 H1451 0.962 . S
C1438 H1452 0.960 . S
C1439 C1436 1.511 . S
C1439 H1453 0.961 . S
C1439 H1454 0.961 . S
C1439 H1455 0.961 . S
C1440 C1441 1.370 . S
C1440 C1442 1.363 . S
C1440 H1456 0.931 . S
C1441 C1440 1.370 . S
C1441 C1445 1.408 . S
C1442 C1440 1.363 . S
C1442 C1443 1.370 . S
C1442 C1446 1.524 . S
C1443 C1435 1.503 . S
C1443 C1442 1.370 . S
C1443 C1444 1.403 . S
C1444 C1443 1.403 . S
C1444 C1445 1.404 . S
C1444 C1447 1.539 . S
C1445 C1441 1.408 . S
C1445 C1444 1.404 . S
C1445 H1457 0.930 . S
C1446 C1442 1.524 . S
C1446 H1458 0.956 . S
C1446 H1459 0.961 . S
C1446 H1460 0.961 . S
C1447 C1444 1.539 . S
C1447 H1461 0.958 . S
C1447 H1462 0.961 . S
C1447 H1463 0.960 . S
H1448 C1432 0.931 . S
H1449 C1437 0.929 . S
H1450 C1438 0.960 . S
H1451 C1438 0.962 . S
H1452 C1438 0.960 . S
H1453 C1439 0.961 . S
H1454 C1439 0.961 . S
H1455 C1439 0.961 . S
H1456 C1440 0.931 . S
H1457 C1445 0.930 . S
H1458 C1446 0.956 . S
H1459 C1446 0.961 . S
H1460 C1446 0.961 . S
H1461 C1447 0.958 . S
H1462 C1447 0.961 . S
H1463 C1447 0.960 . S
C1464 C1465 1.401 . S
C1464 C1466 1.394 . S
C1464 H1480 0.931 . S
C1465 C1464 1.401 . S
C1465 C1469 1.358 1_556 S
C1466 C1464 1.394 . S
C1466 C1467 1.369 1_556 S
C1466 C1470 1.531 . S
C1467 C1466 1.369 1_554 S
C1467 C1468 1.410 . S
C1467 C1475 1.503 . S
C1468 C1467 1.410 . S
C1468 C1469 1.392 . S
C1468 C1471 1.511 . S
C1469 C1465 1.358 1_554 S
C1469 C1468 1.392 . S
C1469 H1481 0.929 . S
C1470 C1466 1.531 . S
C1470 H1482 0.960 . S
C1470 H1483 0.962 . S
C1470 H1484 0.960 . S
C1471 C1468 1.511 . S
C1471 H1485 0.961 . S
C1471 H1486 0.961 . S
C1471 H1487 0.961 . S
C1472 C1473 1.370 . S
C1472 C1474 1.363 . S
C1472 H1488 0.931 . S
C1473 C1472 1.370 . S
C1473 C1477 1.408 1_545 S
C1474 C1472 1.363 . S
C1474 C1475 1.370 1_545 S
C1474 C1478 1.524 . S
C1475 C1467 1.503 . S
C1475 C1474 1.370 1_565 S
C1475 C1476 1.403 . S
C1476 C1475 1.403 . S
C1476 C1477 1.404 . S
C1476 C1479 1.539 . S
C1477 C1473 1.408 1_565 S
C1477 C1476 1.404 . S
C1477 H1489 0.930 . S
C1478 C1474 1.524 . S
C1478 H1490 0.956 . S
C1478 H1491 0.961 . S
C1478 H1492 0.961 . S
C1479 C1476 1.539 . S
C1479 H1493 0.972 . S
C1479 H1494 0.961 . S
C1479 H1495 0.960 . S
H1480 C1464 0.931 . S
H1481 C1469 0.929 . S
H1482 C1470 0.960 . S
H1483 C1470 0.962 . S
H1484 C1470 0.960 . S
H1485 C1471 0.961 . S
H1486 C1471 0.961 . S
H1487 C1471 0.961 . S
H1488 C1472 0.931 . S
H1489 C1477 0.930 . S
H1490 C1478 0.956 . S
H1491 C1478 0.961 . S
H1492 C1478 0.961 . S
H1493 C1479 0.972 . S
H1494 C1479 0.961 . S
H1495 C1479 0.960 . S
C1496 C1497 1.391 . S
C1496 C1498 1.394 . S
C1496 H1512 0.931 . S
C1497 C1496 1.391 . S
C1497 C1501 1.376 . S
C1498 C1496 1.394 . S
C1498 C1499 1.369 . S
C1498 C1502 1.531 . S
C1499 C1498 1.369 . S
C1499 C1500 1.410 . S
C1499 C1507 1.503 . S
C1500 C1499 1.410 . S
C1500 C1501 1.392 . S
C1500 C1503 1.511 1_554 S
C1501 C1497 1.376 . S
C1501 C1500 1.392 . S
C1501 H1513 0.929 1_554 S
C1502 C1498 1.531 . S
C1502 H1514 0.960 . S
C1502 H1515 0.962 . S
C1502 H1516 0.960 . S
C1503 C1500 1.511 1_556 S
C1503 H1517 0.961 . S
C1503 H1518 0.961 . S
C1503 H1519 0.961 . S
C1504 C1505 1.370 . S
C1504 C1506 1.363 . S
C1504 H1520 0.931 . S
C1505 C1504 1.370 . S
C1505 C1509 1.408 . S
C1506 C1504 1.363 . S
C1506 C1507 1.370 . S
C1506 C1510 1.524 . S
C1507 C1499 1.503 . S
C1507 C1506 1.370 . S
C1507 C1508 1.403 . S
C1508 C1507 1.403 . S
C1508 C1509 1.404 . S
C1508 C1511 1.539 1_554 S
C1509 C1505 1.408 . S
C1509 C1508 1.404 . S
C1509 H1521 0.930 . S
C1510 C1506 1.524 . S
C1510 H1522 0.956 . S
C1510 H1523 0.961 . S
C1510 H1524 0.961 . S
C1511 C1508 1.539 1_556 S
C1511 H1525 0.961 . S
C1511 H1526 0.961 . S
C1511 H1527 0.960 . S
H1512 C1496 0.931 . S
H1513 C1501 0.929 1_556 S
H1514 C1502 0.960 . S
H1515 C1502 0.962 . S
H1516 C1502 0.960 . S
H1517 C1503 0.961 . S
H1518 C1503 0.961 . S
H1519 C1503 0.961 . S
H1520 C1504 0.931 . S
H1521 C1509 0.930 . S
H1522 C1510 0.956 . S
H1523 C1510 0.961 . S
H1524 C1510 0.961 . S
H1525 C1511 0.961 . S
H1526 C1511 0.961 . S
H1527 C1511 0.960 . S
C1528 C1529 1.391 . S
C1528 C1530 1.394 . S
C1528 H1544 0.931 . S
C1529 C1528 1.391 . S
C1529 C1533 1.376 . S
C1530 C1528 1.394 . S
C1530 C1531 1.369 . S
C1530 C1534 1.531 . S
C1531 C1530 1.369 . S
C1531 C1532 1.410 . S
C1531 C1539 1.503 . S
C1532 C1531 1.410 . S
C1532 C1533 1.392 . S
C1532 C1535 1.511 . S
C1533 C1529 1.376 . S
C1533 C1532 1.392 . S
C1533 H1545 0.929 . S
C1534 C1530 1.531 . S
C1534 H1546 0.960 . S
C1534 H1547 0.962 . S
C1534 H1548 0.960 . S
C1535 C1532 1.511 . S
C1535 H1549 0.961 . S
C1535 H1550 0.961 . S
C1535 H1551 0.961 . S
C1536 C1537 1.370 . S
C1536 C1538 1.363 . S
C1536 H1552 0.931 . S
C1537 C1536 1.370 . S
C1537 C1541 1.408 . S
C1538 C1536 1.363 . S
C1538 C1539 1.370 . S
C1538 C1542 1.524 . S
C1539 C1531 1.503 . S
C1539 C1538 1.370 . S
C1539 C1540 1.403 . S
C1540 C1539 1.403 . S
C1540 C1541 1.404 . S
C1540 C1543 1.539 . S
C1541 C1537 1.408 . S
C1541 C1540 1.404 . S
C1541 H1553 0.930 . S
C1542 C1538 1.524 . S
C1542 H1554 0.956 . S
C1542 H1555 0.961 . S
C1542 H1556 0.961 . S
C1543 C1540 1.539 . S
C1543 H1557 0.958 . S
C1543 H1558 0.961 . S
C1543 H1559 0.960 . S
H1544 C1528 0.931 . S
H1545 C1533 0.929 . S
H1546 C1534 0.960 . S
H1547 C1534 0.962 . S
H1548 C1534 0.960 . S
H1549 C1535 0.961 . S
H1550 C1535 0.961 . S
H1551 C1535 0.961 . S
H1552 C1536 0.931 . S
H1553 C1541 0.930 . S
H1554 C1542 0.956 . S
H1555 C1542 0.961 . S
H1556 C1542 0.961 . S
H1557 C1543 0.958 . S
H1558 C1543 0.961 . S
H1559 C1543 0.960 . S
C1560 C1561 1.391 . S
C1560 C1562 1.394 . S
C1560 H1576 0.931 . S
C1561 C1560 1.391 . S
C1561 C1565 1.376 . S
C1562 C1560 1.394 . S
C1562 C1563 1.369 . S
C1562 C1566 1.531 . S
C1563 C1562 1.369 . S
C1563 C1564 1.410 . S
C1563 C1571 1.503 . S
C1564 C1563 1.410 . S
C1564 C1565 1.392 . S
C1564 C1567 1.511 . S
C1565 C1561 1.376 . S
C1565 C1564 1.392 . S
C1565 H1577 0.929 . S
C1566 C1562 1.531 . S
C1566 H1578 0.960 . S
C1566 H1579 0.962 . S
C1566 H1580 0.960 . S
C1567 C1564 1.511 . S
C1567 H1581 0.961 . S
C1567 H1582 0.961 . S
C1567 H1583 0.961 . S
C1568 C1569 1.370 . S
C1568 C1570 1.363 . S
C1568 H1584 0.931 . S
C1569 C1568 1.370 . S
C1569 C1573 1.408 . S
C1570 C1568 1.363 . S
C1570 C1571 1.370 . S
C1570 C1574 1.524 . S
C1571 C1563 1.503 . S
C1571 C1570 1.370 . S
C1571 C1572 1.403 . S
C1572 C1571 1.403 . S
C1572 C1573 1.404 . S
C1572 C1575 1.539 . S
C1573 C1569 1.408 . S
C1573 C1572 1.404 . S
C1573 H1585 0.930 . S
C1574 C1570 1.524 . S
C1574 H1586 0.956 . S
C1574 H1587 0.961 . S
C1574 H1588 0.961 . S
C1575 C1572 1.539 . S
C1575 H1589 0.958 . S
C1575 H1590 0.961 . S
C1575 H1591 0.960 . S
H1576 C1560 0.931 . S
H1577 C1565 0.929 . S
H1578 C1566 0.960 . S
H1579 C1566 0.962 . S
H1580 C1566 0.960 . S
H1581 C1567 0.961 . S
H1582 C1567 0.961 . S
H1583 C1567 0.961 . S
H1584 C1568 0.931 . S
H1585 C1573 0.930 . S
H1586 C1574 0.956 . S
H1587 C1574 0.961 . S
H1588 C1574 0.961 . S
H1589 C1575 0.958 . S
H1590 C1575 0.961 . S
H1591 C1575 0.960 . S
C1592 C1593 1.391 . S
C1592 C1594 1.394 . S
C1592 H1608 0.931 . S
C1593 C1592 1.391 . S
C1593 C1597 1.376 . S
C1594 C1592 1.394 . S
C1594 C1595 1.369 . S
C1594 C1598 1.531 . S
C1595 C1594 1.369 . S
C1595 C1596 1.410 . S
C1595 C1603 1.503 . S
C1596 C1595 1.410 . S
C1596 C1597 1.392 . S
C1596 C1599 1.511 . S
C1597 C1593 1.376 . S
C1597 C1596 1.392 . S
C1597 H1609 0.929 . S
C1598 C1594 1.531 . S
C1598 H1610 0.960 . S
C1598 H1611 0.962 . S
C1598 H1612 0.960 . S
C1599 C1596 1.511 . S
C1599 H1613 0.961 . S
C1599 H1614 0.961 . S
C1599 H1615 0.961 . S
C1600 C1601 1.370 . S
C1600 C1602 1.363 . S
C1600 H1616 0.931 . S
C1601 C1600 1.370 . S
C1601 C1605 1.408 . S
C1602 C1600 1.363 . S
C1602 C1603 1.370 . S
C1602 C1606 1.524 . S
C1603 C1595 1.503 . S
C1603 C1602 1.370 . S
C1603 C1604 1.403 . S
C1604 C1603 1.403 . S
C1604 C1605 1.404 . S
C1604 C1607 1.539 . S
C1605 C1601 1.408 . S
C1605 C1604 1.404 . S
C1605 H1617 0.930 . S
C1606 C1602 1.524 . S
C1606 H1618 0.956 . S
C1606 H1619 0.961 . S
C1606 H1620 0.961 . S
C1607 C1604 1.539 . S
C1607 H1621 0.958 . S
C1607 H1622 0.961 . S
C1607 H1623 0.960 . S
H1608 C1592 0.931 . S
H1609 C1597 0.929 . S
H1610 C1598 0.960 . S
H1611 C1598 0.962 . S
H1612 C1598 0.960 . S
H1613 C1599 0.961 . S
H1614 C1599 0.961 . S
H1615 C1599 0.961 . S
H1616 C1600 0.931 . S
H1617 C1605 0.930 . S
H1618 C1606 0.956 . S
H1619 C1606 0.961 . S
H1620 C1606 0.961 . S
H1621 C1607 0.958 . S
H1622 C1607 0.961 . S
H1623 C1607 0.960 . S
C1624 C1625 1.391 . S
C1624 C1626 1.394 . S
C1624 H1640 0.931 . S
C1625 C1624 1.391 . S
C1625 C1629 1.376 . S
C1626 C1624 1.394 . S
C1626 C1627 1.369 . S
C1626 C1630 1.531 . S
C1627 C1626 1.369 . S
C1627 C1628 1.410 . S
C1627 C1635 1.503 . S
C1628 C1627 1.410 . S
C1628 C1629 1.392 . S
C1628 C1631 1.511 . S
C1629 C1625 1.376 . S
C1629 C1628 1.392 . S
C1629 H1641 0.929 . S
C1630 C1626 1.531 . S
C1630 H1642 0.960 . S
C1630 H1643 0.962 . S
C1630 H1644 0.960 . S
C1631 C1628 1.511 . S
C1631 H1645 0.961 . S
C1631 H1646 0.961 . S
C1631 H1647 0.961 . S
C1632 C1633 1.370 . S
C1632 C1634 1.363 . S
C1632 H1648 0.931 . S
C1633 C1632 1.370 . S
C1633 C1637 1.408 . S
C1634 C1632 1.363 . S
C1634 C1635 1.370 . S
C1634 C1638 1.524 . S
C1635 C1627 1.503 . S
C1635 C1634 1.370 . S
C1635 C1636 1.403 . S
C1636 C1635 1.403 . S
C1636 C1637 1.404 . S
C1636 C1639 1.539 . S
C1637 C1633 1.408 . S
C1637 C1636 1.404 . S
C1637 H1649 0.930 . S
C1638 C1634 1.524 . S
C1638 H1650 0.956 . S
C1638 H1651 0.961 . S
C1638 H1652 0.961 . S
C1639 C1636 1.539 . S
C1639 H1653 0.958 . S
C1639 H1654 0.961 . S
C1639 H1655 0.960 . S
H1640 C1624 0.931 . S
H1641 C1629 0.929 . S
H1642 C1630 0.960 . S
H1643 C1630 0.962 . S
H1644 C1630 0.960 . S
H1645 C1631 0.961 . S
H1646 C1631 0.961 . S
H1647 C1631 0.961 . S
H1648 C1632 0.931 . S
H1649 C1637 0.930 . S
H1650 C1638 0.956 . S
H1651 C1638 0.961 . S
H1652 C1638 0.961 . S
H1653 C1639 0.958 . S
H1654 C1639 0.961 . S
H1655 C1639 0.960 . S
C1656 C1657 1.391 . S
C1656 C1658 1.394 . S
C1656 H1672 0.931 . S
C1657 C1656 1.391 . S
C1657 C1661 1.376 . S
C1658 C1656 1.394 . S
C1658 C1659 1.369 . S
C1658 C1662 1.531 . S
C1659 C1658 1.369 . S
C1659 C1660 1.410 . S
C1659 C1667 1.503 . S
C1660 C1659 1.410 . S
C1660 C1661 1.392 . S
C1660 C1663 1.511 . S
C1661 C1657 1.376 . S
C1661 C1660 1.392 . S
C1661 H1673 0.929 . S
C1662 C1658 1.531 . S
C1662 H1674 0.960 . S
C1662 H1675 0.962 . S
C1662 H1676 0.960 . S
C1663 C1660 1.511 . S
C1663 H1677 0.961 . S
C1663 H1678 0.961 . S
C1663 H1679 0.961 . S
C1664 C1665 1.370 . S
C1664 C1666 1.363 . S
C1664 H1680 0.931 . S
C1665 C1664 1.370 . S
C1665 C1669 1.408 . S
C1666 C1664 1.363 . S
C1666 C1667 1.370 . S
C1666 C1670 1.524 . S
C1667 C1659 1.503 . S
C1667 C1666 1.370 . S
C1667 C1668 1.403 . S
C1668 C1667 1.403 . S
C1668 C1669 1.404 . S
C1668 C1671 1.539 . S
C1669 C1665 1.408 . S
C1669 C1668 1.404 . S
C1669 H1681 0.930 . S
C1670 C1666 1.524 . S
C1670 H1682 0.956 . S
C1670 H1683 0.961 . S
C1670 H1684 0.961 . S
C1671 C1668 1.539 . S
C1671 H1685 0.958 . S
C1671 H1686 0.961 . S
C1671 H1687 0.960 . S
H1672 C1656 0.931 . S
H1673 C1661 0.929 . S
H1674 C1662 0.960 . S
H1675 C1662 0.962 . S
H1676 C1662 0.960 . S
H1677 C1663 0.961 . S
H1678 C1663 0.961 . S
H1679 C1663 0.961 . S
H1680 C1664 0.931 . S
H1681 C1669 0.930 . S
H1682 C1670 0.956 . S
H1683 C1670 0.961 . S
H1684 C1670 0.961 . S
H1685 C1671 0.958 . S
H1686 C1671 0.961 . S
H1687 C1671 0.960 . S
C1688 C1689 1.391 . S
C1688 C1690 1.394 . S
C1688 H1704 0.931 . S
C1689 C1688 1.391 . S
C1689 C1693 1.376 . S
C1690 C1688 1.394 . S
C1690 C1691 1.369 . S
C1690 C1694 1.531 . S
C1691 C1690 1.369 . S
C1691 C1692 1.410 . S
C1691 C1699 1.503 . S
C1692 C1691 1.410 . S
C1692 C1693 1.392 . S
C1692 C1695 1.511 . S
C1693 C1689 1.376 . S
C1693 C1692 1.392 . S
C1693 H1705 0.929 . S
C1694 C1690 1.531 . S
C1694 H1706 0.960 . S
C1694 H1707 0.962 . S
C1694 H1708 0.960 . S
C1695 C1692 1.511 . S
C1695 H1709 0.961 . S
C1695 H1710 0.961 . S
C1695 H1711 0.961 . S
C1696 C1697 1.370 . S
C1696 C1698 1.363 . S
C1696 H1712 0.931 . S
C1697 C1696 1.370 . S
C1697 C1701 1.408 . S
C1698 C1696 1.363 . S
C1698 C1699 1.370 . S
C1698 C1702 1.524 . S
C1699 C1691 1.503 . S
C1699 C1698 1.370 . S
C1699 C1700 1.403 . S
C1700 C1699 1.403 . S
C1700 C1701 1.404 . S
C1700 C1703 1.539 . S
C1701 C1697 1.408 . S
C1701 C1700 1.404 . S
C1701 H1713 0.930 . S
C1702 C1698 1.524 . S
C1702 H1714 0.956 . S
C1702 H1715 0.961 . S
C1702 H1716 0.961 . S
C1703 C1700 1.539 . S
C1703 H1717 0.958 . S
C1703 H1718 0.961 . S
C1703 H1719 0.960 . S
H1704 C1688 0.931 . S
H1705 C1693 0.929 . S
H1706 C1694 0.960 . S
H1707 C1694 0.962 . S
H1708 C1694 0.960 . S
H1709 C1695 0.961 . S
H1710 C1695 0.961 . S
H1711 C1695 0.961 . S
H1712 C1696 0.931 . S
H1713 C1701 0.930 . S
H1714 C1702 0.956 . S
H1715 C1702 0.961 . S
H1716 C1702 0.961 . S
H1717 C1703 0.958 . S
H1718 C1703 0.961 . S
H1719 C1703 0.960 . S
C1720 C1721 1.391 . S
C1720 C1722 1.394 . S
C1720 H1736 0.931 . S
C1721 C1720 1.391 . S
C1721 C1725 1.376 . S
C1722 C1720 1.394 . S
C1722 C1723 1.369 . S
C1722 C1726 1.531 . S
C1723 C1722 1.369 . S
C1723 C1724 1.410 . S
C1723 C1731 1.503 . S
C1724 C1723 1.410 . S
C1724 C1725 1.392 . S
C1724 C1727 1.511 . S
C1725 C1721 1.376 . S
C1725 C1724 1.392 . S
C1725 H1737 0.929 . S
C1726 C1722 1.531 . S
C1726 H1738 0.960 . S
C1726 H1739 0.962 . S
C1726 H1740 0.960 1_554 S
C1727 C1724 1.511 . S
C1727 H1741 0.961 . S
C1727 H1742 0.961 . S
C1727 H1743 0.961 . S
C1728 C1729 1.370 . S
C1728 C1730 1.363 . S
C1728 H1744 0.931 . S
C1729 C1728 1.370 . S
C1729 C1733 1.408 . S
C1730 C1728 1.363 . S
C1730 C1731 1.370 . S
C1730 C1734 1.524 . S
C1731 C1723 1.503 . S
C1731 C1730 1.370 . S
C1731 C1732 1.403 . S
C1732 C1731 1.403 . S
C1732 C1733 1.404 . S
C1732 C1735 1.539 1_455 S
C1733 C1729 1.408 . S
C1733 C1732 1.404 . S
C1733 H1745 0.930 1_455 S
C1734 C1730 1.524 . S
C1734 H1746 0.956 . S
C1734 H1747 0.961 . S
C1734 H1748 0.961 . S
C1735 C1732 1.539 1_655 S
C1735 H1749 0.958 . S
C1735 H1750 0.961 . S
C1735 H1751 0.960 . S
H1736 C1720 0.931 . S
H1737 C1725 0.929 . S
H1738 C1726 0.960 . S
H1739 C1726 0.962 . S
H1740 C1726 0.960 1_556 S
H1741 C1727 0.961 . S
H1742 C1727 0.961 . S
H1743 C1727 0.961 . S
H1744 C1728 0.931 . S
H1745 C1733 0.930 1_655 S
H1746 C1734 0.956 . S
H1747 C1734 0.961 . S
H1748 C1734 0.961 . S
H1749 C1735 0.958 . S
H1750 C1735 0.961 . S
H1751 C1735 0.960 . S
C1752 C1753 1.391 . S
C1752 C1754 1.394 . S
C1752 H1768 0.931 . S
C1753 C1752 1.391 . S
C1753 C1757 1.376 . S
C1754 C1752 1.394 . S
C1754 C1755 1.369 . S
C1754 C1758 1.531 . S
C1755 C1754 1.369 . S
C1755 C1756 1.410 . S
C1755 C1763 1.503 . S
C1756 C1755 1.410 . S
C1756 C1757 1.392 . S
C1756 C1759 1.511 . S
C1757 C1753 1.376 . S
C1757 C1756 1.392 . S
C1757 H1769 0.929 . S
C1758 C1754 1.531 . S
C1758 H1770 0.960 . S
C1758 H1771 0.962 . S
C1758 H1772 0.960 . S
C1759 C1756 1.511 . S
C1759 H1773 0.961 . S
C1759 H1774 0.961 . S
C1759 H1775 0.961 . S
C1760 C1761 1.370 . S
C1760 C1762 1.363 . S
C1760 H1776 0.931 . S
C1761 C1760 1.370 . S
C1761 C1765 1.408 . S
C1762 C1760 1.363 . S
C1762 C1763 1.370 . S
C1762 C1766 1.524 . S
C1763 C1755 1.503 . S
C1763 C1762 1.370 . S
C1763 C1764 1.403 . S
C1764 C1763 1.403 . S
C1764 C1765 1.404 . S
C1764 C1767 1.539 . S
C1765 C1761 1.408 . S
C1765 C1764 1.404 . S
C1765 H1777 0.930 . S
C1766 C1762 1.524 . S
C1766 H1778 0.956 . S
C1766 H1779 0.961 . S
C1766 H1780 0.961 . S
C1767 C1764 1.539 . S
C1767 H1781 0.958 . S
C1767 H1782 0.961 . S
C1767 H1783 0.960 . S
H1768 C1752 0.931 . S
H1769 C1757 0.929 . S
H1770 C1758 0.960 . S
H1771 C1758 0.962 . S
H1772 C1758 0.960 . S
H1773 C1759 0.961 . S
H1774 C1759 0.961 . S
H1775 C1759 0.961 . S
H1776 C1760 0.931 . S
H1777 C1765 0.930 . S
H1778 C1766 0.956 . S
H1779 C1766 0.961 . S
H1780 C1766 0.961 . S
H1781 C1767 0.958 . S
H1782 C1767 0.961 . S
H1783 C1767 0.960 . S
C1784 C1785 1.391 . S
C1784 C1786 1.394 . S
C1784 H1800 0.931 . S
C1785 C1784 1.391 . S
C1785 C1789 1.376 . S
C1786 C1784 1.394 . S
C1786 C1787 1.369 . S
C1786 C1790 1.531 . S
C1787 C1786 1.369 . S
C1787 C1788 1.410 . S
C1787 C1795 1.503 . S
C1788 C1787 1.410 . S
C1788 C1789 1.392 . S
C1788 C1791 1.511 . S
C1789 C1785 1.376 . S
C1789 C1788 1.392 . S
C1789 H1801 0.929 . S
C1790 C1786 1.531 . S
C1790 H1802 0.960 . S
C1790 H1803 0.962 . S
C1790 H1804 0.960 . S
C1791 C1788 1.511 . S
C1791 H1805 0.961 . S
C1791 H1806 0.961 . S
C1791 H1807 0.961 . S
C1792 C1793 1.370 . S
C1792 C1794 1.363 . S
C1792 H1808 0.931 . S
C1793 C1792 1.370 . S
C1793 C1797 1.408 . S
C1794 C1792 1.363 . S
C1794 C1795 1.370 . S
C1794 C1798 1.524 . S
C1795 C1787 1.503 . S
C1795 C1794 1.370 . S
C1795 C1796 1.403 . S
C1796 C1795 1.403 . S
C1796 C1797 1.404 . S
C1796 C1799 1.539 . S
C1797 C1793 1.408 . S
C1797 C1796 1.404 . S
C1797 H1809 0.930 . S
C1798 C1794 1.524 . S
C1798 H1810 0.956 . S
C1798 H1811 0.961 . S
C1798 H1812 0.961 . S
C1799 C1796 1.539 . S
C1799 H1813 0.958 . S
C1799 H1814 0.961 . S
C1799 H1815 0.960 . S
H1800 C1784 0.931 . S
H1801 C1789 0.929 . S
H1802 C1790 0.960 . S
H1803 C1790 0.962 . S
H1804 C1790 0.960 . S
H1805 C1791 0.961 . S
H1806 C1791 0.961 . S
H1807 C1791 0.961 . S
H1808 C1792 0.931 . S
H1809 C1797 0.930 . S
H1810 C1798 0.956 . S
H1811 C1798 0.961 . S
H1812 C1798 0.961 . S
H1813 C1799 0.958 . S
H1814 C1799 0.961 . S
H1815 C1799 0.960 . S
C1816 C1817 1.391 . S
C1816 C1818 1.394 . S
C1816 H1832 0.931 . S
C1817 C1816 1.391 . S
C1817 C1821 1.376 . S
C1818 C1816 1.394 . S
C1818 C1819 1.369 . S
C1818 C1822 1.531 . S
C1819 C1818 1.369 . S
C1819 C1820 1.410 . S
C1819 C1827 1.503 . S
C1820 C1819 1.410 . S
C1820 C1821 1.392 . S
C1820 C1823 1.511 . S
C1821 C1817 1.376 . S
C1821 C1820 1.392 . S
C1821 H1833 0.929 . S
C1822 C1818 1.531 . S
C1822 H1834 0.960 . S
C1822 H1835 0.962 . S
C1822 H1836 0.960 . S
C1823 C1820 1.511 . S
C1823 H1837 0.961 . S
C1823 H1838 0.961 . S
C1823 H1839 0.961 . S
C1824 C1825 1.370 . S
C1824 C1826 1.363 . S
C1824 H1840 0.931 . S
C1825 C1824 1.370 . S
C1825 C1829 1.408 . S
C1826 C1824 1.363 . S
C1826 C1827 1.370 . S
C1826 C1830 1.524 . S
C1827 C1819 1.503 . S
C1827 C1826 1.370 . S
C1827 C1828 1.403 . S
C1828 C1827 1.403 . S
C1828 C1829 1.404 . S
C1828 C1831 1.539 . S
C1829 C1825 1.408 . S
C1829 C1828 1.404 . S
C1829 H1841 0.930 . S
C1830 C1826 1.524 . S
C1830 H1842 0.956 . S
C1830 H1843 0.961 . S
C1830 H1844 0.961 . S
C1831 C1828 1.539 . S
C1831 H1845 0.958 . S
C1831 H1846 0.961 . S
C1831 H1847 0.960 . S
H1832 C1816 0.931 . S
H1833 C1821 0.929 . S
H1834 C1822 0.960 . S
H1835 C1822 0.962 . S
H1836 C1822 0.960 . S
H1837 C1823 0.961 . S
H1838 C1823 0.961 . S
H1839 C1823 0.961 . S
H1840 C1824 0.931 . S
H1841 C1829 0.930 . S
H1842 C1830 0.956 . S
H1843 C1830 0.961 . S
H1844 C1830 0.961 . S
H1845 C1831 0.958 . S
H1846 C1831 0.961 . S
H1847 C1831 0.960 . S
C1848 C1849 1.391 . S
C1848 C1850 1.394 1_455 S
C1848 H1864 0.931 1_455 S
C1849 C1848 1.391 . S
C1849 C1853 1.376 . S
C1850 C1848 1.394 1_655 S
C1850 C1851 1.329 1_655 S
C1850 C1854 1.572 . S
C1851 C1850 1.329 1_455 S
C1851 C1852 1.410 . S
C1851 C1859 1.503 . S
C1852 C1851 1.410 . S
C1852 C1853 1.392 . S
C1852 C1855 1.511 . S
C1853 C1849 1.376 . S
C1853 C1852 1.392 . S
C1853 H1865 0.929 . S
C1854 C1850 1.572 . S
C1854 H1866 0.960 . S
C1854 H1867 0.962 . S
C1854 H1868 0.960 . S
C1855 C1852 1.511 . S
C1855 H1869 0.961 . S
C1855 H1870 0.961 . S
C1855 H1871 0.961 . S
C1856 C1857 1.370 . S
C1856 C1858 1.363 . S
C1856 H1872 0.931 . S
C1857 C1856 1.370 . S
C1857 C1861 1.408 . S
C1858 C1856 1.363 . S
C1858 C1859 1.370 . S
C1858 C1862 1.524 . S
C1859 C1851 1.503 . S
C1859 C1858 1.370 . S
C1859 C1860 1.403 . S
C1860 C1859 1.403 . S
C1860 C1861 1.404 . S
C1860 C1863 1.539 . S
C1861 C1857 1.408 . S
C1861 C1860 1.404 . S
C1861 H1873 0.930 . S
C1862 C1858 1.524 . S
C1862 H1874 0.956 . S
C1862 H1875 0.961 . S
C1862 H1876 0.961 . S
C1863 C1860 1.539 . S
C1863 H1877 0.958 1_455 S
C1863 H1878 0.961 . S
C1863 H1879 0.960 . S
H1864 C1848 0.931 1_655 S
H1865 C1853 0.929 . S
H1866 C1854 0.960 . S
H1867 C1854 0.962 . S
H1868 C1854 0.960 . S
H1869 C1855 0.961 . S
H1870 C1855 0.961 . S
H1871 C1855 0.961 . S
H1872 C1856 0.931 . S
H1873 C1861 0.930 . S
H1874 C1862 0.956 . S
H1875 C1862 0.961 . S
H1876 C1862 0.961 . S
H1877 C1863 0.958 1_655 S
H1878 C1863 0.961 . S
H1879 C1863 0.960 . S
C1880 C1881 1.391 . S
C1880 C1882 1.394 . S
C1880 H1896 0.931 . S
C1881 C1880 1.391 . S
C1881 C1885 1.376 . S
C1882 C1880 1.394 . S
C1882 C1883 1.369 . S
C1882 C1886 1.531 . S
C1883 C1882 1.369 . S
C1883 C1884 1.410 . S
C1883 C1891 1.503 . S
C1884 C1883 1.410 . S
C1884 C1885 1.392 . S
C1884 C1887 1.511 . S
C1885 C1881 1.376 . S
C1885 C1884 1.392 . S
C1885 H1897 0.929 . S
C1886 C1882 1.531 . S
C1886 H1898 0.960 . S
C1886 H1899 0.962 . S
C1886 H1900 0.960 . S
C1887 C1884 1.511 . S
C1887 H1901 0.961 . S
C1887 H1902 0.961 . S
C1887 H1903 0.961 . S
C1888 C1889 1.370 . S
C1888 C1890 1.363 . S
C1888 H1904 0.931 . S
C1889 C1888 1.370 . S
C1889 C1893 1.408 . S
C1890 C1888 1.363 . S
C1890 C1891 1.370 . S
C1890 C1894 1.524 . S
C1891 C1883 1.503 . S
C1891 C1890 1.370 . S
C1891 C1892 1.403 . S
C1892 C1891 1.403 . S
C1892 C1893 1.404 . S
C1892 C1895 1.539 . S
C1893 C1889 1.408 . S
C1893 C1892 1.404 . S
C1893 H1905 0.930 . S
C1894 C1890 1.524 . S
C1894 H1906 0.956 . S
C1894 H1907 0.961 . S
C1894 H1908 0.961 . S
C1895 C1892 1.539 . S
C1895 H1909 0.958 . S
C1895 H1910 0.961 . S
C1895 H1911 0.960 . S
H1896 C1880 0.931 . S
H1897 C1885 0.929 . S
H1898 C1886 0.960 . S
H1899 C1886 0.962 . S
H1900 C1886 0.960 . S
H1901 C1887 0.961 . S
H1902 C1887 0.961 . S
H1903 C1887 0.961 . S
H1904 C1888 0.931 . S
H1905 C1893 0.930 . S
H1906 C1894 0.956 . S
H1907 C1894 0.961 . S
H1908 C1894 0.961 . S
H1909 C1895 0.958 . S
H1910 C1895 0.961 . S
H1911 C1895 0.960 . S
C1912 C1913 1.391 . S
C1912 C1914 1.394 . S
C1912 H1928 0.931 . S
C1913 C1912 1.391 . S
C1913 C1917 1.376 . S
C1914 C1912 1.394 . S
C1914 C1915 1.369 . S
C1914 C1918 1.531 . S
C1915 C1914 1.369 . S
C1915 C1916 1.410 . S
C1915 C1923 1.503 . S
C1916 C1915 1.410 . S
C1916 C1917 1.392 . S
C1916 C1919 1.511 . S
C1917 C1913 1.376 . S
C1917 C1916 1.392 . S
C1917 H1929 0.929 . S
C1918 C1914 1.531 . S
C1918 H1930 0.960 . S
C1918 H1931 0.962 . S
C1918 H1932 0.960 . S
C1919 C1916 1.511 . S
C1919 H1933 0.961 . S
C1919 H1934 0.961 . S
C1919 H1935 0.961 . S
C1920 C1921 1.358 1_554 S
C1920 C1922 1.333 1_554 S
C1920 H1936 0.976 . S
C1921 C1920 1.358 1_556 S
C1921 C1925 1.408 . S
C1922 C1920 1.333 1_556 S
C1922 C1923 1.370 . S
C1922 C1926 1.524 . S
C1923 C1915 1.503 . S
C1923 C1922 1.370 . S
C1923 C1924 1.403 . S
C1924 C1923 1.403 . S
C1924 C1925 1.404 . S
C1924 C1927 1.539 . S
C1925 C1921 1.408 . S
C1925 C1924 1.404 . S
C1925 H1937 0.930 . S
C1926 C1922 1.524 . S
C1926 H1938 0.956 . S
C1926 H1939 0.961 . S
C1926 H1940 0.961 1_556 S
C1927 C1924 1.539 . S
C1927 H1941 0.958 . S
C1927 H1942 0.961 . S
C1927 H1943 0.960 . S
H1928 C1912 0.931 . S
H1929 C1917 0.929 . S
H1930 C1918 0.960 . S
H1931 C1918 0.962 . S
H1932 C1918 0.960 . S
H1933 C1919 0.961 . S
H1934 C1919 0.961 . S
H1935 C1919 0.961 . S
H1936 C1920 0.976 . S
H1937 C1925 0.930 . S
H1938 C1926 0.956 . S
H1939 C1926 0.961 . S
H1940 C1926 0.961 1_554 S
H1941 C1927 0.958 . S
H1942 C1927 0.961 . S
H1943 C1927 0.960 . S
C1944 C1945 1.391 . S
C1944 C1946 1.394 . S
C1944 H1960 0.931 . S
C1945 C1944 1.391 . S
C1945 C1949 1.376 . S
C1946 C1944 1.394 . S
C1946 C1947 1.369 . S
C1946 C1950 1.531 . S
C1947 C1946 1.369 . S
C1947 C1948 1.410 . S
C1947 C1955 1.503 . S
C1948 C1947 1.410 . S
C1948 C1949 1.392 . S
C1948 C1951 1.511 . S
C1949 C1945 1.376 . S
C1949 C1948 1.392 . S
C1949 H1961 0.929 . S
C1950 C1946 1.531 . S
C1950 H1962 0.960 . S
C1950 H1963 0.962 . S
C1950 H1964 0.960 . S
C1951 C1948 1.511 . S
C1951 H1965 0.961 . S
C1951 H1966 0.961 . S
C1951 H1967 0.961 . S
C1952 C1953 1.370 . S
C1952 C1954 1.363 . S
C1952 H1968 0.931 . S
C1953 C1952 1.370 . S
C1953 C1957 1.408 . S
C1954 C1952 1.363 . S
C1954 C1955 1.370 . S
C1954 C1958 1.524 . S
C1955 C1947 1.503 . S
C1955 C1954 1.370 . S
C1955 C1956 1.403 . S
C1956 C1955 1.403 . S
C1956 C1957 1.404 . S
C1956 C1959 1.539 . S
C1957 C1953 1.408 . S
C1957 C1956 1.404 . S
C1957 H1969 0.930 . S
C1958 C1954 1.524 . S
C1958 H1970 0.956 . S
C1958 H1971 0.961 . S
C1958 H1972 0.961 . S
C1959 C1956 1.539 . S
C1959 H1973 0.958 . S
C1959 H1974 0.961 . S
C1959 H1975 0.960 . S
H1960 C1944 0.931 . S
H1961 C1949 0.929 . S
H1962 C1950 0.960 . S
H1963 C1950 0.962 . S
H1964 C1950 0.960 . S
H1965 C1951 0.961 . S
H1966 C1951 0.961 . S
H1967 C1951 0.961 . S
H1968 C1952 0.931 . S
H1969 C1957 0.930 . S
H1970 C1958 0.956 . S
H1971 C1958 0.961 . S
H1972 C1958 0.961 . S
H1973 C1959 0.958 . S
H1974 C1959 0.961 . S
H1975 C1959 0.960 . S
C1976 C1977 1.391 . S
C1976 C1978 1.394 . S
C1976 H1992 0.931 . S
C1977 C1976 1.391 . S
C1977 C1981 1.376 . S
C1978 C1976 1.394 . S
C1978 C1979 1.369 . S
C1978 C1982 1.531 . S
C1979 C1978 1.369 . S
C1979 C1980 1.410 . S
C1979 C1987 1.503 . S
C1980 C1979 1.410 . S
C1980 C1981 1.392 . S
C1980 C1983 1.511 . S
C1981 C1977 1.376 . S
C1981 C1980 1.392 . S
C1981 H1993 0.929 . S
C1982 C1978 1.531 . S
C1982 H1994 0.960 . S
C1982 H1995 0.962 . S
C1982 H1996 0.960 . S
C1983 C1980 1.511 . S
C1983 H1997 0.961 . S
C1983 H1998 0.961 . S
C1983 H1999 0.961 . S
C1984 C1985 1.370 . S
C1984 C1986 1.363 . S
C1984 H2000 0.931 . S
C1985 C1984 1.370 . S
C1985 C1989 1.408 . S
C1986 C1984 1.363 . S
C1986 C1987 1.370 . S
C1986 C1990 1.524 . S
C1987 C1979 1.503 . S
C1987 C1986 1.370 . S
C1987 C1988 1.403 . S
C1988 C1987 1.403 . S
C1988 C1989 1.404 . S
C1988 C1991 1.539 . S
C1989 C1985 1.408 . S
C1989 C1988 1.404 . S
C1989 H2001 0.930 . S
C1990 C1986 1.524 . S
C1990 H2002 0.956 1_545 S
C1990 H2003 0.961 . S
C1990 H2004 0.961 1_545 S
C1991 C1988 1.539 . S
C1991 H2005 0.958 . S
C1991 H2006 0.961 . S
C1991 H2007 0.960 . S
H1992 C1976 0.931 . S
H1993 C1981 0.929 . S
H1994 C1982 0.960 . S
H1995 C1982 0.962 . S
H1996 C1982 0.960 . S
H1997 C1983 0.961 . S
H1998 C1983 0.961 . S
H1999 C1983 0.961 . S
H2000 C1984 0.931 . S
H2001 C1989 0.930 . S
H2002 C1990 0.956 1_565 S
H2003 C1990 0.961 . S
H2004 C1990 0.961 1_565 S
H2005 C1991 0.958 . S
H2006 C1991 0.961 . S
H2007 C1991 0.960 . S
C2008 C2009 1.391 . S
C2008 C2010 1.394 . S
C2008 H2024 0.931 . S
C2009 C2008 1.391 . S
C2009 C2013 1.376 . S
C2010 C2008 1.394 . S
C2010 C2011 1.369 . S
C2010 C2014 1.531 . S
C2011 C2010 1.369 . S
C2011 C2012 1.410 . S
C2011 C2019 1.503 . S
C2012 C2011 1.410 . S
C2012 C2013 1.392 . S
C2012 C2015 1.511 . S
C2013 C2009 1.376 . S
C2013 C2012 1.392 . S
C2013 H2025 0.929 . S
C2014 C2010 1.531 . S
C2014 H2026 0.960 . S
C2014 H2027 0.962 . S
C2014 H2028 0.960 . S
C2015 C2012 1.511 . S
C2015 H2029 0.961 . S
C2015 H2030 0.961 . S
C2015 H2031 0.961 . S
C2016 C2017 1.370 . S
C2016 C2018 1.363 . S
C2016 H2032 0.931 . S
C2017 C2016 1.370 . S
C2017 C2021 1.408 . S
C2018 C2016 1.363 . S
C2018 C2019 1.370 . S
C2018 C2022 1.524 . S
C2019 C2011 1.503 . S
C2019 C2018 1.370 . S
C2019 C2020 1.403 . S
C2020 C2019 1.403 . S
C2020 C2021 1.404 . S
C2020 C2023 1.539 . S
C2021 C2017 1.408 . S
C2021 C2020 1.404 . S
C2021 H2033 0.930 . S
C2022 C2018 1.524 . S
C2022 H2034 0.956 . S
C2022 H2035 0.961 . S
C2022 H2036 0.961 . S
C2023 C2020 1.539 . S
C2023 H2037 0.958 . S
C2023 H2038 0.961 . S
C2023 H2039 0.960 . S
H2024 C2008 0.931 . S
H2025 C2013 0.929 . S
H2026 C2014 0.960 . S
H2027 C2014 0.962 . S
H2028 C2014 0.960 . S
H2029 C2015 0.961 . S
H2030 C2015 0.961 . S
H2031 C2015 0.961 . S
H2032 C2016 0.931 . S
H2033 C2021 0.930 . S
H2034 C2022 0.956 . S
H2035 C2022 0.961 . S
H2036 C2022 0.961 . S
H2037 C2023 0.958 . S
H2038 C2023 0.961 . S
H2039 C2023 0.960 . S
C2040 C2041 1.391 1_565 S
C2040 C2042 1.394 1_565 S
C2040 H2056 0.931 . S
C2041 C2040 1.391 1_545 S
C2041 C2045 1.376 . S
C2042 C2040 1.394 1_545 S
C2042 C2043 1.369 . S
C2042 C2046 1.531 1_545 S
C2043 C2042 1.369 . S
C2043 C2044 1.410 . S
C2043 C2051 1.503 . S
C2044 C2043 1.410 . S
C2044 C2045 1.392 . S
C2044 C2047 1.511 . S
C2045 C2041 1.376 . S
C2045 C2044 1.392 . S
C2045 H2057 0.929 . S
C2046 C2042 1.531 1_565 S
C2046 H2058 0.960 . S
C2046 H2059 0.962 . S
C2046 H2060 0.960 . S
C2047 C2044 1.511 . S
C2047 H2061 0.961 . S
C2047 H2062 0.961 . S
C2047 H2063 0.961 . S
C2048 C2049 1.370 . S
C2048 C2050 1.363 . S
C2048 H2064 0.931 . S
C2049 C2048 1.370 . S
C2049 C2053 1.408 . S
C2050 C2048 1.363 . S
C2050 C2051 1.370 . S
C2050 C2054 1.524 . S
C2051 C2043 1.503 . S
C2051 C2050 1.370 . S
C2051 C2052 1.403 . S
C2052 C2051 1.403 . S
C2052 C2053 1.404 . S
C2052 C2055 1.539 1_545 S
C2053 C2049 1.408 . S
C2053 C2052 1.404 . S
C2053 H2065 0.930 . S
C2054 C2050 1.524 . S
C2054 H2066 0.956 . S
C2054 H2067 0.961 . S
C2054 H2068 0.961 . S
C2055 C2052 1.539 1_565 S
C2055 H2069 0.958 . S
C2055 H2070 0.961 . S
C2055 H2071 0.960 . S
H2056 C2040 0.931 . S
H2057 C2045 0.929 . S
H2058 C2046 0.960 . S
H2059 C2046 0.962 . S
H2060 C2046 0.960 . S
H2061 C2047 0.961 . S
H2062 C2047 0.961 . S
H2063 C2047 0.961 . S
H2064 C2048 0.931 . S
H2065 C2053 0.930 . S
H2066 C2054 0.956 . S
H2067 C2054 0.961 . S
H2068 C2054 0.961 . S
H2069 C2055 0.958 . S
H2070 C2055 0.961 . S
H2071 C2055 0.960 . S
C2072 C2073 1.391 . S
C2072 C2074 1.394 . S
C2072 H2088 0.931 . S
C2073 C2072 1.391 . S
C2073 C2077 1.376 . S
C2074 C2072 1.394 . S
C2074 C2075 1.369 . S
C2074 C2078 1.531 . S
C2075 C2074 1.369 . S
C2075 C2076 1.410 . S
C2075 C2083 1.503 . S
C2076 C2075 1.410 . S
C2076 C2077 1.392 . S
C2076 C2079 1.511 . S
C2077 C2073 1.376 . S
C2077 C2076 1.392 . S
C2077 H2089 0.929 . S
C2078 C2074 1.531 . S
C2078 H2090 0.960 . S
C2078 H2091 0.962 . S
C2078 H2092 0.960 . S
C2079 C2076 1.511 . S
C2079 H2093 0.961 . S
C2079 H2094 0.961 . S
C2079 H2095 0.961 . S
C2080 C2081 1.370 . S
C2080 C2082 1.363 . S
C2080 H2096 0.931 . S
C2081 C2080 1.370 . S
C2081 C2085 1.408 . S
C2082 C2080 1.363 . S
C2082 C2083 1.370 . S
C2082 C2086 1.524 . S
C2083 C2075 1.503 . S
C2083 C2082 1.370 . S
C2083 C2084 1.403 . S
C2084 C2083 1.403 . S
C2084 C2085 1.404 . S
C2084 C2087 1.539 . S
C2085 C2081 1.408 . S
C2085 C2084 1.404 . S
C2085 H2097 0.930 . S
C2086 C2082 1.524 . S
C2086 H2098 0.956 . S
C2086 H2099 0.961 . S
C2086 H2100 0.961 . S
C2087 C2084 1.539 . S
C2087 H2101 0.958 . S
C2087 H2102 0.961 . S
C2087 H2103 0.960 . S
H2088 C2072 0.931 . S
H2089 C2077 0.929 . S
H2090 C2078 0.960 . S
H2091 C2078 0.962 . S
H2092 C2078 0.960 . S
H2093 C2079 0.961 . S
H2094 C2079 0.961 . S
H2095 C2079 0.961 . S
H2096 C2080 0.931 . S
H2097 C2085 0.930 . S
H2098 C2086 0.956 . S
H2099 C2086 0.961 . S
H2100 C2086 0.961 . S
H2101 C2087 0.958 . S
H2102 C2087 0.961 . S
H2103 C2087 0.960 . S
C2104 C2105 1.391 . S
C2104 C2106 1.394 . S
C2104 H2120 0.931 . S
C2105 C2104 1.391 . S
C2105 C2109 1.376 . S
C2106 C2104 1.394 . S
C2106 C2107 1.369 . S
C2106 C2110 1.531 . S
C2107 C2106 1.369 . S
C2107 C2108 1.410 . S
C2107 C2115 1.503 . S
C2108 C2107 1.410 . S
C2108 C2109 1.392 . S
C2108 C2111 1.511 . S
C2109 C2105 1.376 . S
C2109 C2108 1.392 . S
C2109 H2121 0.929 . S
C2110 C2106 1.531 . S
C2110 H2122 0.960 . S
C2110 H2123 0.962 . S
C2110 H2124 0.960 . S
C2111 C2108 1.511 . S
C2111 H2125 0.961 . S
C2111 H2126 0.961 . S
C2111 H2127 0.961 . S
C2112 C2113 1.370 . S
C2112 C2114 1.363 . S
C2112 H2128 0.931 . S
C2113 C2112 1.370 . S
C2113 C2117 1.408 . S
C2114 C2112 1.363 . S
C2114 C2115 1.370 . S
C2114 C2118 1.524 . S
C2115 C2107 1.503 . S
C2115 C2114 1.370 . S
C2115 C2116 1.403 . S
C2116 C2115 1.403 . S
C2116 C2117 1.404 . S
C2116 C2119 1.539 1_545 S
C2117 C2113 1.408 . S
C2117 C2116 1.404 . S
C2117 H2129 0.930 . S
C2118 C2114 1.524 . S
C2118 H2130 0.956 . S
C2118 H2131 0.961 . S
C2118 H2132 0.961 . S
C2119 C2116 1.539 1_565 S
C2119 H2133 0.958 . S
C2119 H2134 0.961 . S
C2119 H2135 0.960 . S
H2120 C2104 0.931 . S
H2121 C2109 0.929 . S
H2122 C2110 0.960 . S
H2123 C2110 0.962 . S
H2124 C2110 0.960 . S
H2125 C2111 0.961 . S
H2126 C2111 0.961 . S
H2127 C2111 0.961 . S
H2128 C2112 0.931 . S
H2129 C2117 0.930 . S
H2130 C2118 0.956 . S
H2131 C2118 0.961 . S
H2132 C2118 0.961 . S
H2133 C2119 0.958 . S
H2134 C2119 0.961 . S
H2135 C2119 0.960 . S
C2136 C2137 1.391 . S
C2136 C2138 1.394 . S
C2136 H2152 0.931 . S
C2137 C2136 1.391 . S
C2137 C2141 1.376 . S
C2138 C2136 1.394 . S
C2138 C2139 1.369 . S
C2138 C2142 1.531 . S
C2139 C2138 1.369 . S
C2139 C2140 1.410 . S
C2139 C2147 1.503 . S
C2140 C2139 1.410 . S
C2140 C2141 1.392 . S
C2140 C2143 1.511 . S
C2141 C2137 1.376 . S
C2141 C2140 1.392 . S
C2141 H2153 0.929 . S
C2142 C2138 1.531 . S
C2142 H2154 0.960 . S
C2142 H2155 0.962 . S
C2142 H2156 0.960 . S
C2143 C2140 1.511 . S
C2143 H2157 0.961 . S
C2143 H2158 0.961 . S
C2143 H2159 0.961 . S
C2144 C2145 1.370 . S
C2144 C2146 1.363 . S
C2144 H2160 0.931 . S
C2145 C2144 1.370 . S
C2145 C2149 1.408 . S
C2146 C2144 1.363 . S
C2146 C2147 1.370 . S
C2146 C2150 1.524 . S
C2147 C2139 1.503 . S
C2147 C2146 1.370 . S
C2147 C2148 1.403 . S
C2148 C2147 1.403 . S
C2148 C2149 1.404 . S
C2148 C2151 1.539 . S
C2149 C2145 1.408 . S
C2149 C2148 1.404 . S
C2149 H2161 0.930 . S
C2150 C2146 1.524 . S
C2150 H2162 0.956 . S
C2150 H2163 0.961 . S
C2150 H2164 0.961 . S
C2151 C2148 1.539 . S
C2151 H2165 0.958 . S
C2151 H2166 0.961 . S
C2151 H2167 0.960 . S
H2152 C2136 0.931 . S
H2153 C2141 0.929 . S
H2154 C2142 0.960 . S
H2155 C2142 0.962 . S
H2156 C2142 0.960 . S
H2157 C2143 0.961 . S
H2158 C2143 0.961 . S
H2159 C2143 0.961 . S
H2160 C2144 0.931 . S
H2161 C2149 0.930 . S
H2162 C2150 0.956 . S
H2163 C2150 0.961 . S
H2164 C2150 0.961 . S
H2165 C2151 0.958 . S
H2166 C2151 0.961 . S
H2167 C2151 0.960 . S
C2168 C2169 1.391 . S
C2168 C2170 1.394 . S
C2168 H2184 0.931 . S
C2169 C2168 1.391 . S
C2169 C2173 1.363 1_545 S
C2170 C2168 1.394 . S
C2170 C2171 1.357 1_545 S
C2170 C2174 1.531 . S
C2171 C2170 1.357 1_565 S
C2171 C2172 1.418 . S
C2171 C2179 1.510 . S
C2172 C2171 1.418 . S
C2172 C2173 1.396 . S
C2172 C2175 1.511 . S
C2173 C2169 1.363 1_565 S
C2173 C2172 1.396 . S
C2173 H2185 0.939 . S
C2174 C2170 1.531 . S
C2174 H2186 0.960 . S
C2174 H2187 0.962 1_545 S
C2174 H2188 0.960 . S
C2175 C2172 1.511 . S
C2175 H2189 0.961 . S
C2175 H2190 0.961 . S
C2175 H2191 0.961 1_565 S
C2176 C2177 1.370 . S
C2176 C2178 1.363 . S
C2176 H2192 0.931 . S
C2177 C2176 1.370 . S
C2177 C2181 1.408 1_565 S
C2178 C2176 1.363 . S
C2178 C2179 1.370 . S
C2178 C2182 1.524 . S
C2179 C2171 1.510 . S
C2179 C2178 1.370 . S
C2179 C2180 1.403 1_565 S
C2180 C2179 1.403 1_545 S
C2180 C2181 1.404 . S
C2180 C2183 1.539 . S
C2181 C2177 1.408 1_545 S
C2181 C2180 1.404 . S
C2181 H2193 0.930 . S
C2182 C2178 1.524 . S
C2182 H2194 0.956 . S
C2182 H2195 0.961 . S
C2182 H2196 0.961 . S
C2183 C2180 1.539 . S
C2183 H2197 0.958 . S
C2183 H2198 0.961 . S
C2183 H2199 0.960 . S
H2184 C2168 0.931 . S
H2185 C2173 0.939 . S
H2186 C2174 0.960 . S
H2187 C2174 0.962 1_565 S
H2188 C2174 0.960 . S
H2189 C2175 0.961 . S
H2190 C2175 0.961 . S
H2191 C2175 0.961 1_545 S
H2192 C2176 0.931 . S
H2193 C2181 0.930 . S
H2194 C2182 0.956 . S
H2195 C2182 0.961 . S
H2196 C2182 0.961 . S
H2197 C2183 0.958 . S
H2198 C2183 0.961 . S
H2199 C2183 0.960 . S
C2200 C2201 1.391 . S
C2200 C2202 1.394 . S
C2200 H2216 0.931 . S
C2201 C2200 1.391 . S
C2201 C2205 1.376 . S
C2202 C2200 1.394 . S
C2202 C2203 1.369 . S
C2202 C2206 1.531 . S
C2203 C2202 1.369 . S
C2203 C2204 1.410 . S
C2203 C2211 1.503 . S
C2204 C2203 1.410 . S
C2204 C2205 1.392 . S
C2204 C2207 1.511 . S
C2205 C2201 1.376 . S
C2205 C2204 1.392 . S
C2205 H2217 0.929 . S
C2206 C2202 1.531 . S
C2206 H2218 0.960 . S
C2206 H2219 0.962 . S
C2206 H2220 0.960 . S
C2207 C2204 1.511 . S
C2207 H2221 0.961 . S
C2207 H2222 0.961 . S
C2207 H2223 0.961 . S
C2208 C2209 1.370 . S
C2208 C2210 1.363 . S
C2208 H2224 0.931 . S
C2209 C2208 1.370 . S
C2209 C2213 1.408 . S
C2210 C2208 1.363 . S
C2210 C2211 1.370 . S
C2210 C2214 1.524 . S
C2211 C2203 1.503 . S
C2211 C2210 1.370 . S
C2211 C2212 1.403 . S
C2212 C2211 1.403 . S
C2212 C2213 1.404 . S
C2212 C2215 1.539 . S
C2213 C2209 1.408 . S
C2213 C2212 1.404 . S
C2213 H2225 0.930 . S
C2214 C2210 1.524 . S
C2214 H2226 0.956 . S
C2214 H2227 0.961 . S
C2214 H2228 0.961 . S
C2215 C2212 1.539 . S
C2215 H2229 0.958 . S
C2215 H2230 0.961 . S
C2215 H2231 0.960 . S
H2216 C2200 0.931 . S
H2217 C2205 0.929 . S
H2218 C2206 0.960 . S
H2219 C2206 0.962 . S
H2220 C2206 0.960 . S
H2221 C2207 0.961 . S
H2222 C2207 0.961 . S
H2223 C2207 0.961 . S
H2224 C2208 0.931 . S
H2225 C2213 0.930 . S
H2226 C2214 0.956 . S
H2227 C2214 0.961 . S
H2228 C2214 0.961 . S
H2229 C2215 0.958 . S
H2230 C2215 0.961 . S
H2231 C2215 0.960 . S
C2232 C2233 1.391 . S
C2232 C2234 1.394 . S
C2232 H2248 0.931 . S
C2233 C2232 1.391 . S
C2233 C2237 1.376 . S
C2234 C2232 1.394 . S
C2234 C2235 1.369 . S
C2234 C2238 1.531 . S
C2235 C2234 1.369 . S
C2235 C2236 1.410 . S
C2235 C2243 1.503 . S
C2236 C2235 1.410 . S
C2236 C2237 1.392 . S
C2236 C2239 1.511 1_554 S
C2237 C2233 1.376 . S
C2237 C2236 1.392 . S
C2237 H2249 0.929 . S
C2238 C2234 1.531 . S
C2238 H2250 0.960 . S
C2238 H2251 0.962 . S
C2238 H2252 0.960 . S
C2239 C2236 1.511 1_556 S
C2239 H2253 0.961 . S
C2239 H2254 0.961 . S
C2239 H2255 0.961 . S
C2240 C2241 1.370 . S
C2240 C2242 1.363 . S
C2240 H2256 0.931 . S
C2241 C2240 1.370 . S
C2241 C2245 1.408 . S
C2242 C2240 1.363 . S
C2242 C2243 1.370 . S
C2242 C2246 1.524 . S
C2243 C2235 1.503 . S
C2243 C2242 1.370 . S
C2243 C2244 1.403 . S
C2244 C2243 1.403 . S
C2244 C2245 1.404 . S
C2244 C2247 1.539 . S
C2245 C2241 1.408 . S
C2245 C2244 1.404 . S
C2245 H2257 0.919 1_554 S
C2246 C2242 1.524 . S
C2246 H2258 0.956 . S
C2246 H2259 0.961 . S
C2246 H2260 0.961 . S
C2247 C2244 1.539 . S
C2247 H2261 0.958 . S
C2247 H2262 0.961 . S
C2247 H2263 0.960 . S
H2248 C2232 0.931 . S
H2249 C2237 0.929 . S
H2250 C2238 0.960 . S
H2251 C2238 0.962 . S
H2252 C2238 0.960 . S
H2253 C2239 0.961 . S
H2254 C2239 0.961 . S
H2255 C2239 0.961 . S
H2256 C2240 0.931 . S
H2257 C2245 0.919 1_556 S
H2258 C2246 0.956 . S
H2259 C2246 0.961 . S
H2260 C2246 0.961 . S
H2261 C2247 0.958 . S
H2262 C2247 0.961 . S
H2263 C2247 0.960 . S
C2264 C2265 1.391 . S
C2264 C2266 1.394 . S
C2264 H2280 0.931 . S
C2265 C2264 1.391 . S
C2265 C2269 1.376 . S
C2266 C2264 1.394 . S
C2266 C2267 1.369 . S
C2266 C2270 1.531 . S
C2267 C2266 1.369 . S
C2267 C2268 1.410 . S
C2267 C2275 1.503 . S
C2268 C2267 1.410 . S
C2268 C2269 1.392 . S
C2268 C2271 1.511 . S
C2269 C2265 1.376 . S
C2269 C2268 1.392 . S
C2269 H2281 0.929 . S
C2270 C2266 1.531 . S
C2270 H2282 0.960 . S
C2270 H2283 0.962 . S
C2270 H2284 0.960 . S
C2271 C2268 1.511 . S
C2271 H2285 0.961 . S
C2271 H2286 0.961 . S
C2271 H2287 0.961 . S
C2272 C2273 1.370 . S
C2272 C2274 1.363 . S
C2272 H2288 0.931 . S
C2273 C2272 1.370 . S
C2273 C2277 1.408 . S
C2274 C2272 1.363 . S
C2274 C2275 1.370 . S
C2274 C2278 1.524 . S
C2275 C2267 1.503 . S
C2275 C2274 1.370 . S
C2275 C2276 1.403 . S
C2276 C2275 1.403 . S
C2276 C2277 1.404 . S
C2276 C2279 1.539 . S
C2277 C2273 1.408 . S
C2277 C2276 1.404 . S
C2277 H2289 0.930 . S
C2278 C2274 1.524 . S
C2278 H2290 0.956 . S
C2278 H2291 0.964 . S
C2278 H2292 0.961 1_554 S
C2279 C2276 1.539 . S
C2279 H2293 0.958 . S
C2279 H2294 0.961 . S
C2279 H2295 0.960 . S
H2280 C2264 0.931 . S
H2281 C2269 0.929 . S
H2282 C2270 0.960 . S
H2283 C2270 0.962 . S
H2284 C2270 0.960 . S
H2285 C2271 0.961 . S
H2286 C2271 0.961 . S
H2287 C2271 0.961 . S
H2288 C2272 0.931 . S
H2289 C2277 0.930 . S
H2290 C2278 0.956 . S
H2291 C2278 0.964 . S
H2292 C2278 0.961 1_556 S
H2293 C2279 0.958 . S
H2294 C2279 0.961 . S
H2295 C2279 0.960 . S
C2296 C2297 1.391 . S
C2296 C2298 1.394 . S
C2296 H2312 0.931 . S
C2297 C2296 1.391 . S
C2297 C2301 1.376 . S
C2298 C2296 1.394 . S
C2298 C2299 1.369 . S
C2298 C2302 1.531 . S
C2299 C2298 1.369 . S
C2299 C2300 1.410 . S
C2299 C2307 1.503 . S
C2300 C2299 1.410 . S
C2300 C2301 1.392 . S
C2300 C2303 1.511 . S
C2301 C2297 1.376 . S
C2301 C2300 1.392 . S
C2301 H2313 0.929 . S
C2302 C2298 1.531 . S
C2302 H2314 0.960 . S
C2302 H2315 0.962 . S
C2302 H2316 0.960 . S
C2303 C2300 1.511 . S
C2303 H2317 0.961 . S
C2303 H2318 0.961 . S
C2303 H2319 0.961 . S
C2304 C2305 1.370 . S
C2304 C2306 1.363 . S
C2304 H2320 0.931 . S
C2305 C2304 1.370 . S
C2305 C2309 1.408 . S
C2306 C2304 1.363 . S
C2306 C2307 1.370 . S
C2306 C2310 1.524 . S
C2307 C2299 1.503 . S
C2307 C2306 1.370 . S
C2307 C2308 1.403 . S
C2308 C2307 1.403 . S
C2308 C2309 1.404 . S
C2308 C2311 1.539 . S
C2309 C2305 1.408 . S
C2309 C2308 1.404 . S
C2309 H2321 0.930 . S
C2310 C2306 1.524 . S
C2310 H2322 0.956 . S
C2310 H2323 0.961 . S
C2310 H2324 0.961 . S
C2311 C2308 1.539 . S
C2311 H2325 0.958 . S
C2311 H2326 0.961 . S
C2311 H2327 0.960 . S
H2312 C2296 0.931 . S
H2313 C2301 0.929 . S
H2314 C2302 0.960 . S
H2315 C2302 0.962 . S
H2316 C2302 0.960 . S
H2317 C2303 0.961 . S
H2318 C2303 0.961 . S
H2319 C2303 0.961 . S
H2320 C2304 0.931 . S
H2321 C2309 0.930 . S
H2322 C2310 0.956 . S
H2323 C2310 0.961 . S
H2324 C2310 0.961 . S
H2325 C2311 0.958 . S
H2326 C2311 0.961 . S
H2327 C2311 0.960 . S
C2328 C2329 1.391 . S
C2328 C2330 1.394 . S
C2328 H2344 0.931 . S
C2329 C2328 1.391 . S
C2329 C2333 1.376 . S
C2330 C2328 1.394 . S
C2330 C2331 1.369 . S
C2330 C2334 1.531 . S
C2331 C2330 1.369 . S
C2331 C2332 1.410 . S
C2331 C2339 1.503 . S
C2332 C2331 1.410 . S
C2332 C2333 1.392 . S
C2332 C2335 1.511 . S
C2333 C2329 1.376 . S
C2333 C2332 1.392 . S
C2333 H2345 0.929 . S
C2334 C2330 1.531 . S
C2334 H2346 0.960 . S
C2334 H2347 0.962 . S
C2334 H2348 0.960 . S
C2335 C2332 1.511 . S
C2335 H2349 0.961 . S
C2335 H2350 0.961 . S
C2335 H2351 0.961 . S
C2336 C2337 1.370 . S
C2336 C2338 1.363 . S
C2336 H2352 0.931 . S
C2337 C2336 1.370 . S
C2337 C2341 1.408 . S
C2338 C2336 1.363 . S
C2338 C2339 1.370 . S
C2338 C2342 1.524 . S
C2339 C2331 1.503 . S
C2339 C2338 1.370 . S
C2339 C2340 1.403 . S
C2340 C2339 1.403 . S
C2340 C2341 1.404 . S
C2340 C2343 1.539 . S
C2341 C2337 1.408 . S
C2341 C2340 1.404 . S
C2341 H2353 0.930 . S
C2342 C2338 1.524 . S
C2342 H2354 0.956 . S
C2342 H2355 0.961 . S
C2342 H2356 0.961 . S
C2343 C2340 1.539 . S
C2343 H2357 0.958 . S
C2343 H2358 0.961 . S
C2343 H2359 0.960 . S
H2344 C2328 0.931 . S
H2345 C2333 0.929 . S
H2346 C2334 0.960 . S
H2347 C2334 0.962 . S
H2348 C2334 0.960 . S
H2349 C2335 0.961 . S
H2350 C2335 0.961 . S
H2351 C2335 0.961 . S
H2352 C2336 0.931 . S
H2353 C2341 0.930 . S
H2354 C2342 0.956 . S
H2355 C2342 0.961 . S
H2356 C2342 0.961 . S
H2357 C2343 0.958 . S
H2358 C2343 0.961 . S
H2359 C2343 0.960 . S
C2360 C2361 1.391 . S
C2360 C2362 1.394 . S
C2360 H2376 0.931 . S
C2361 C2360 1.391 . S
C2361 C2365 1.376 . S
C2362 C2360 1.394 . S
C2362 C2363 1.369 1_545 S
C2362 C2366 1.531 . S
C2363 C2362 1.369 1_565 S
C2363 C2364 1.410 . S
C2363 C2371 1.503 . S
C2364 C2363 1.410 . S
C2364 C2365 1.392 1_565 S
C2364 C2367 1.511 . S
C2365 C2361 1.376 . S
C2365 C2364 1.392 1_545 S
C2365 H2377 0.929 . S
C2366 C2362 1.531 . S
C2366 H2378 0.960 . S
C2366 H2379 0.962 . S
C2366 H2380 0.960 . S
C2367 C2364 1.511 . S
C2367 H2381 0.961 . S
C2367 H2382 0.961 . S
C2367 H2383 0.961 . S
C2368 C2369 1.370 . S
C2368 C2370 1.363 . S
C2368 H2384 0.931 . S
C2369 C2368 1.370 . S
C2369 C2373 1.408 . S
C2370 C2368 1.363 . S
C2370 C2371 1.370 . S
C2370 C2374 1.514 1_565 S
C2371 C2363 1.503 . S
C2371 C2370 1.370 . S
C2371 C2372 1.403 . S
C2372 C2371 1.403 . S
C2372 C2373 1.404 . S
C2372 C2375 1.539 . S
C2373 C2369 1.408 . S
C2373 C2372 1.404 . S
C2373 H2385 0.930 . S
C2374 C2370 1.514 1_545 S
C2374 H2386 0.968 . S
C2374 H2387 0.963 . S
C2374 H2388 0.944 1_545 S
C2375 C2372 1.539 . S
C2375 H2389 0.958 . S
C2375 H2390 0.961 . S
C2375 H2391 0.960 . S
H2376 C2360 0.931 . S
H2377 C2365 0.929 . S
H2378 C2366 0.960 . S
H2379 C2366 0.962 . S
H2380 C2366 0.960 . S
H2381 C2367 0.961 . S
H2382 C2367 0.961 . S
H2383 C2367 0.961 . S
H2384 C2368 0.931 . S
H2385 C2373 0.930 . S
H2386 C2374 0.968 . S
H2387 C2374 0.963 . S
H2388 C2374 0.944 1_565 S
H2389 C2375 0.958 . S
H2390 C2375 0.961 . S
H2391 C2375 0.960 . S
C2392 C2393 1.391 . S
C2392 C2394 1.394 . S
C2392 H2408 0.931 . S
C2393 C2392 1.391 . S
C2393 C2397 1.376 . S
C2394 C2392 1.394 . S
C2394 C2395 1.369 . S
C2394 C2398 1.531 . S
C2395 C2394 1.369 . S
C2395 C2396 1.410 . S
C2395 C2403 1.503 . S
C2396 C2395 1.410 . S
C2396 C2397 1.392 . S
C2396 C2399 1.511 . S
C2397 C2393 1.376 . S
C2397 C2396 1.392 . S
C2397 H2409 0.929 . S
C2398 C2394 1.531 . S
C2398 H2410 0.960 . S
C2398 H2411 0.962 . S
C2398 H2412 0.960 . S
C2399 C2396 1.511 . S
C2399 H2413 0.961 . S
C2399 H2414 0.961 . S
C2399 H2415 0.961 . S
C2400 C2401 1.370 . S
C2400 C2402 1.363 . S
C2400 H2416 0.931 . S
C2401 C2400 1.370 . S
C2401 C2405 1.408 . S
C2402 C2400 1.363 . S
C2402 C2403 1.370 . S
C2402 C2406 1.524 . S
C2403 C2395 1.503 . S
C2403 C2402 1.370 . S
C2403 C2404 1.403 . S
C2404 C2403 1.403 . S
C2404 C2405 1.404 . S
C2404 C2407 1.539 . S
C2405 C2401 1.408 . S
C2405 C2404 1.404 . S
C2405 H2417 0.930 . S
C2406 C2402 1.524 . S
C2406 H2418 0.956 . S
C2406 H2419 0.961 . S
C2406 H2420 0.961 . S
C2407 C2404 1.539 . S
C2407 H2421 0.958 . S
C2407 H2422 0.961 . S
C2407 H2423 0.960 . S
H2408 C2392 0.931 . S
H2409 C2397 0.929 . S
H2410 C2398 0.960 . S
H2411 C2398 0.962 . S
H2412 C2398 0.960 . S
H2413 C2399 0.961 . S
H2414 C2399 0.961 . S
H2415 C2399 0.961 . S
H2416 C2400 0.931 . S
H2417 C2405 0.930 . S
H2418 C2406 0.956 . S
H2419 C2406 0.961 . S
H2420 C2406 0.961 . S
H2421 C2407 0.958 . S
H2422 C2407 0.961 . S
H2423 C2407 0.960 . S
C2424 C2425 1.391 . S
C2424 C2426 1.394 . S
C2424 H2440 0.931 . S
C2425 C2424 1.391 . S
C2425 C2429 1.376 . S
C2426 C2424 1.394 . S
C2426 C2427 1.369 . S
C2426 C2430 1.531 . S
C2427 C2426 1.369 . S
C2427 C2428 1.410 . S
C2427 C2435 1.503 . S
C2428 C2427 1.410 . S
C2428 C2429 1.392 . S
C2428 C2431 1.511 . S
C2429 C2425 1.376 . S
C2429 C2428 1.392 . S
C2429 H2441 0.929 . S
C2430 C2426 1.531 . S
C2430 H2442 0.960 . S
C2430 H2443 0.962 . S
C2430 H2444 0.960 . S
C2431 C2428 1.511 . S
C2431 H2445 0.961 . S
C2431 H2446 0.961 . S
C2431 H2447 0.961 . S
C2432 C2433 1.370 . S
C2432 C2434 1.363 . S
C2432 H2448 0.931 . S
C2433 C2432 1.370 . S
C2433 C2437 1.408 . S
C2434 C2432 1.363 . S
C2434 C2435 1.370 . S
C2434 C2438 1.524 . S
C2435 C2427 1.503 . S
C2435 C2434 1.370 . S
C2435 C2436 1.403 . S
C2436 C2435 1.403 . S
C2436 C2437 1.404 . S
C2436 C2439 1.539 . S
C2437 C2433 1.408 . S
C2437 C2436 1.404 . S
C2437 H2449 0.930 . S
C2438 C2434 1.524 . S
C2438 H2450 0.956 . S
C2438 H2451 0.961 . S
C2438 H2452 0.961 . S
C2439 C2436 1.539 . S
C2439 H2453 0.958 . S
C2439 H2454 0.961 . S
C2439 H2455 0.960 . S
H2440 C2424 0.931 . S
H2441 C2429 0.929 . S
H2442 C2430 0.960 . S
H2443 C2430 0.962 . S
H2444 C2430 0.960 . S
H2445 C2431 0.961 . S
H2446 C2431 0.961 . S
H2447 C2431 0.961 . S
H2448 C2432 0.931 . S
H2449 C2437 0.930 . S
H2450 C2438 0.956 . S
H2451 C2438 0.961 . S
H2452 C2438 0.961 . S
H2453 C2439 0.958 . S
H2454 C2439 0.961 . S
H2455 C2439 0.960 . S
C2456 C2457 1.391 . S
C2456 C2458 1.394 . S
C2456 H2472 0.931 . S
C2457 C2456 1.391 . S
C2457 C2461 1.376 . S
C2458 C2456 1.394 . S
C2458 C2459 1.369 . S
C2458 C2462 1.531 . S
C2459 C2458 1.369 . S
C2459 C2460 1.410 . S
C2459 C2467 1.503 . S
C2460 C2459 1.410 . S
C2460 C2461 1.392 . S
C2460 C2463 1.511 . S
C2461 C2457 1.376 . S
C2461 C2460 1.392 . S
C2461 H2473 0.929 . S
C2462 C2458 1.531 . S
C2462 H2474 0.960 . S
C2462 H2475 0.962 . S
C2462 H2476 0.960 . S
C2463 C2460 1.511 . S
C2463 H2477 0.961 . S
C2463 H2478 0.961 . S
C2463 H2479 0.961 . S
C2464 C2465 1.370 . S
C2464 C2466 1.363 . S
C2464 H2480 0.931 . S
C2465 C2464 1.370 . S
C2465 C2469 1.408 . S
C2466 C2464 1.363 . S
C2466 C2467 1.370 . S
C2466 C2470 1.524 . S
C2467 C2459 1.503 . S
C2467 C2466 1.370 . S
C2467 C2468 1.403 . S
C2468 C2467 1.403 . S
C2468 C2469 1.404 . S
C2468 C2471 1.539 . S
C2469 C2465 1.408 . S
C2469 C2468 1.404 . S
C2469 H2481 0.930 . S
C2470 C2466 1.524 . S
C2470 H2482 0.956 . S
C2470 H2483 0.961 . S
C2470 H2484 0.961 . S
C2471 C2468 1.539 . S
C2471 H2485 0.958 . S
C2471 H2486 0.961 . S
C2471 H2487 0.960 . S
H2472 C2456 0.931 . S
H2473 C2461 0.929 . S
H2474 C2462 0.960 . S
H2475 C2462 0.962 . S
H2476 C2462 0.960 . S
H2477 C2463 0.961 . S
H2478 C2463 0.961 . S
H2479 C2463 0.961 . S
H2480 C2464 0.931 . S
H2481 C2469 0.930 . S
H2482 C2470 0.956 . S
H2483 C2470 0.961 . S
H2484 C2470 0.961 . S
H2485 C2471 0.958 . S
H2486 C2471 0.961 . S
H2487 C2471 0.960 . S
C2488 C2489 1.391 . S
C2488 C2490 1.394 . S
C2488 H2504 0.931 . S
C2489 C2488 1.391 . S
C2489 C2493 1.376 . S
C2490 C2488 1.394 . S
C2490 C2491 1.369 . S
C2490 C2494 1.531 . S
C2491 C2490 1.369 . S
C2491 C2492 1.410 . S
C2491 C2499 1.503 . S
C2492 C2491 1.410 . S
C2492 C2493 1.392 . S
C2492 C2495 1.511 . S
C2493 C2489 1.376 . S
C2493 C2492 1.392 . S
C2493 H2505 0.929 . S
C2494 C2490 1.531 . S
C2494 H2506 0.960 . S
C2494 H2507 0.962 . S
C2494 H2508 0.960 . S
C2495 C2492 1.511 . S
C2495 H2509 0.961 . S
C2495 H2510 0.961 . S
C2495 H2511 0.961 . S
C2496 C2497 1.370 . S
C2496 C2498 1.363 . S
C2496 H2512 0.931 . S
C2497 C2496 1.370 . S
C2497 C2501 1.408 . S
C2498 C2496 1.363 . S
C2498 C2499 1.370 . S
C2498 C2502 1.524 . S
C2499 C2491 1.503 . S
C2499 C2498 1.370 . S
C2499 C2500 1.403 . S
C2500 C2499 1.403 . S
C2500 C2501 1.404 . S
C2500 C2503 1.539 . S
C2501 C2497 1.408 . S
C2501 C2500 1.404 . S
C2501 H2513 0.930 . S
C2502 C2498 1.524 . S
C2502 H2514 0.956 . S
C2502 H2515 0.961 . S
C2502 H2516 0.961 . S
C2503 C2500 1.539 . S
C2503 H2517 0.958 . S
C2503 H2518 0.961 . S
C2503 H2519 0.960 . S
H2504 C2488 0.931 . S
H2505 C2493 0.929 . S
H2506 C2494 0.960 . S
H2507 C2494 0.962 . S
H2508 C2494 0.960 . S
H2509 C2495 0.961 . S
H2510 C2495 0.961 . S
H2511 C2495 0.961 . S
H2512 C2496 0.931 . S
H2513 C2501 0.930 . S
H2514 C2502 0.956 . S
H2515 C2502 0.961 . S
H2516 C2502 0.961 . S
H2517 C2503 0.958 . S
H2518 C2503 0.961 . S
H2519 C2503 0.960 . S
C2520 C2521 1.391 . S
C2520 C2522 1.394 . S
C2520 H2536 0.931 . S
C2521 C2520 1.391 . S
C2521 C2525 1.376 . S
C2522 C2520 1.394 . S
C2522 C2523 1.369 . S
C2522 C2526 1.531 . S
C2523 C2522 1.369 . S
C2523 C2524 1.410 . S
C2523 C2531 1.503 . S
C2524 C2523 1.410 . S
C2524 C2525 1.392 . S
C2524 C2527 1.511 . S
C2525 C2521 1.376 . S
C2525 C2524 1.392 . S
C2525 H2537 0.929 . S
C2526 C2522 1.531 . S
C2526 H2538 0.960 . S
C2526 H2539 0.962 . S
C2526 H2540 0.960 . S
C2527 C2524 1.511 . S
C2527 H2541 0.961 . S
C2527 H2542 0.961 . S
C2527 H2543 0.961 . S
C2528 C2529 1.370 . S
C2528 C2530 1.363 . S
C2528 H2544 0.931 . S
C2529 C2528 1.370 . S
C2529 C2533 1.408 . S
C2530 C2528 1.363 . S
C2530 C2531 1.370 . S
C2530 C2534 1.524 . S
C2531 C2523 1.503 . S
C2531 C2530 1.370 . S
C2531 C2532 1.403 . S
C2532 C2531 1.403 . S
C2532 C2533 1.404 . S
C2532 C2535 1.539 . S
C2533 C2529 1.408 . S
C2533 C2532 1.404 . S
C2533 H2545 0.930 . S
C2534 C2530 1.524 . S
C2534 H2546 0.956 . S
C2534 H2547 0.961 . S
C2534 H2548 0.961 . S
C2535 C2532 1.539 . S
C2535 H2549 0.958 . S
C2535 H2550 0.961 . S
C2535 H2551 0.960 . S
H2536 C2520 0.931 . S
H2537 C2525 0.929 . S
H2538 C2526 0.960 . S
H2539 C2526 0.962 . S
H2540 C2526 0.960 . S
H2541 C2527 0.961 . S
H2542 C2527 0.961 . S
H2543 C2527 0.961 . S
H2544 C2528 0.931 . S
H2545 C2533 0.930 . S
H2546 C2534 0.956 . S
H2547 C2534 0.961 . S
H2548 C2534 0.961 . S
H2549 C2535 0.958 . S
H2550 C2535 0.961 . S
H2551 C2535 0.960 . S
C2552 C2553 1.432 . S
C2552 C2554 1.394 . S
C2552 H2568 0.931 . S
C2553 C2552 1.432 . S
C2553 C2557 1.338 1_554 S
C2554 C2552 1.394 . S
C2554 C2555 1.369 . S
C2554 C2558 1.531 . S
C2555 C2554 1.369 . S
C2555 C2556 1.410 1_554 S
C2555 C2563 1.503 . S
C2556 C2555 1.410 1_556 S
C2556 C2557 1.392 . S
C2556 C2559 1.511 . S
C2557 C2553 1.338 1_556 S
C2557 C2556 1.392 . S
C2557 H2569 0.929 . S
C2558 C2554 1.531 . S
C2558 H2570 0.960 . S
C2558 H2571 0.962 . S
C2558 H2572 0.960 . S
C2559 C2556 1.511 . S
C2559 H2573 0.961 . S
C2559 H2574 0.961 . S
C2559 H2575 0.961 . S
C2560 C2561 1.370 . S
C2560 C2562 1.363 . S
C2560 H2576 0.931 1_455 S
C2561 C2560 1.370 . S
C2561 C2565 1.408 . S
C2562 C2560 1.363 . S
C2562 C2563 1.370 . S
C2562 C2566 1.524 1_455 S
C2563 C2555 1.503 . S
C2563 C2562 1.370 . S
C2563 C2564 1.403 . S
C2564 C2563 1.403 . S
C2564 C2565 1.404 . S
C2564 C2567 1.539 . S
C2565 C2561 1.408 . S
C2565 C2564 1.404 . S
C2565 H2577 0.930 . S
C2566 C2562 1.524 1_655 S
C2566 H2578 0.956 . S
C2566 H2579 0.961 1_554 S
C2566 H2580 0.961 1_554 S
C2567 C2564 1.539 . S
C2567 H2581 0.958 . S
C2567 H2582 0.961 . S
C2567 H2583 0.960 . S
H2568 C2552 0.931 . S
H2569 C2557 0.929 . S
H2570 C2558 0.960 . S
H2571 C2558 0.962 . S
H2572 C2558 0.960 . S
H2573 C2559 0.961 . S
H2574 C2559 0.961 . S
H2575 C2559 0.961 . S
H2576 C2560 0.931 1_655 S
H2577 C2565 0.930 . S
H2578 C2566 0.956 . S
H2579 C2566 0.961 1_556 S
H2580 C2566 0.961 1_556 S
H2581 C2567 0.958 . S
H2582 C2567 0.961 . S
H2583 C2567 0.960 . S
C2584 C2585 1.418 . S
C2584 C2586 1.394 . S
C2584 H2600 0.931 . S
C2585 C2584 1.418 . S
C2585 C2589 1.375 1_655 S
C2586 C2584 1.394 . S
C2586 C2587 1.369 . S
C2586 C2590 1.531 . S
C2587 C2586 1.369 . S
C2587 C2588 1.410 . S
C2587 C2595 1.503 . S
C2588 C2587 1.410 . S
C2588 C2589 1.392 1_655 S
C2588 C2591 1.511 . S
C2589 C2585 1.375 1_455 S
C2589 C2588 1.392 1_455 S
C2589 H2601 0.929 . S
C2590 C2586 1.531 . S
C2590 H2602 0.960 . S
C2590 H2603 0.962 . S
C2590 H2604 0.960 . S
C2591 C2588 1.511 . S
C2591 H2605 0.961 1_655 S
C2591 H2606 0.961 . S
C2591 H2607 0.961 . S
C2592 C2593 1.370 . S
C2592 C2594 1.363 . S
C2592 H2608 0.931 . S
C2593 C2592 1.370 . S
C2593 C2597 1.408 . S
C2594 C2592 1.363 . S
C2594 C2595 1.370 . S
C2594 C2598 1.524 . S
C2595 C2587 1.503 . S
C2595 C2594 1.370 . S
C2595 C2596 1.403 . S
C2596 C2595 1.403 . S
C2596 C2597 1.404 . S
C2596 C2599 1.539 . S
C2597 C2593 1.408 . S
C2597 C2596 1.404 . S
C2597 H2609 0.930 . S
C2598 C2594 1.524 . S
C2598 H2610 0.956 . S
C2598 H2611 0.961 . S
C2598 H2612 0.961 . S
C2599 C2596 1.539 . S
C2599 H2613 0.958 . S
C2599 H2614 0.961 . S
C2599 H2615 0.960 . S
H2600 C2584 0.931 . S
H2601 C2589 0.929 . S
H2602 C2590 0.960 . S
H2603 C2590 0.962 . S
H2604 C2590 0.960 . S
H2605 C2591 0.961 1_455 S
H2606 C2591 0.961 . S
H2607 C2591 0.961 . S
H2608 C2592 0.931 . S
H2609 C2597 0.930 . S
H2610 C2598 0.956 . S
H2611 C2598 0.961 . S
H2612 C2598 0.961 . S
H2613 C2599 0.958 . S
H2614 C2599 0.961 . S
H2615 C2599 0.960 . S
C2616 C2617 1.391 . S
C2616 C2618 1.394 . S
C2616 H2632 0.931 . S
C2617 C2616 1.391 . S
C2617 C2621 1.376 . S
C2618 C2616 1.394 . S
C2618 C2619 1.369 . S
C2618 C2622 1.531 . S
C2619 C2618 1.369 . S
C2619 C2620 1.410 . S
C2619 C2627 1.503 . S
C2620 C2619 1.410 . S
C2620 C2621 1.392 . S
C2620 C2623 1.511 . S
C2621 C2617 1.376 . S
C2621 C2620 1.392 . S
C2621 H2633 0.929 . S
C2622 C2618 1.531 . S
C2622 H2634 0.960 . S
C2622 H2635 0.962 . S
C2622 H2636 0.960 . S
C2623 C2620 1.511 . S
C2623 H2637 0.961 . S
C2623 H2638 0.961 . S
C2623 H2639 0.961 . S
C2624 C2625 1.370 . S
C2624 C2626 1.363 . S
C2624 H2640 0.931 . S
C2625 C2624 1.370 . S
C2625 C2629 1.408 . S
C2626 C2624 1.363 . S
C2626 C2627 1.370 . S
C2626 C2630 1.524 . S
C2627 C2619 1.503 . S
C2627 C2626 1.370 . S
C2627 C2628 1.403 . S
C2628 C2627 1.403 . S
C2628 C2629 1.404 . S
C2628 C2631 1.539 . S
C2629 C2625 1.408 . S
C2629 C2628 1.404 . S
C2629 H2641 0.930 . S
C2630 C2626 1.524 . S
C2630 H2642 0.956 . S
C2630 H2643 0.961 . S
C2630 H2644 0.961 . S
C2631 C2628 1.539 . S
C2631 H2645 0.958 . S
C2631 H2646 0.961 . S
C2631 H2647 0.960 . S
H2632 C2616 0.931 . S
H2633 C2621 0.929 . S
H2634 C2622 0.960 . S
H2635 C2622 0.962 . S
H2636 C2622 0.960 . S
H2637 C2623 0.961 . S
H2638 C2623 0.961 . S
H2639 C2623 0.961 . S
H2640 C2624 0.931 . S
H2641 C2629 0.930 . S
H2642 C2630 0.956 . S
H2643 C2630 0.961 . S
H2644 C2630 0.961 . S
H2645 C2631 0.958 . S
H2646 C2631 0.961 . S
H2647 C2631 0.960 . S
C2648 C2649 1.391 . S
C2648 C2650 1.394 . S
C2648 H2664 0.931 . S
C2649 C2648 1.391 . S
C2649 C2653 1.376 . S
C2650 C2648 1.394 . S
C2650 C2651 1.369 . S
C2650 C2654 1.531 . S
C2651 C2650 1.369 . S
C2651 C2652 1.410 . S
C2651 C2659 1.503 . S
C2652 C2651 1.410 . S
C2652 C2653 1.392 . S
C2652 C2655 1.511 . S
C2653 C2649 1.376 . S
C2653 C2652 1.392 . S
C2653 H2665 0.929 . S
C2654 C2650 1.531 . S
C2654 H2666 0.960 . S
C2654 H2667 0.962 . S
C2654 H2668 0.960 . S
C2655 C2652 1.511 . S
C2655 H2669 0.961 . S
C2655 H2670 0.961 . S
C2655 H2671 0.961 . S
C2656 C2657 1.370 . S
C2656 C2658 1.363 . S
C2656 H2672 0.931 . S
C2657 C2656 1.370 . S
C2657 C2661 1.408 . S
C2658 C2656 1.363 . S
C2658 C2659 1.370 . S
C2658 C2662 1.524 . S
C2659 C2651 1.503 . S
C2659 C2658 1.370 . S
C2659 C2660 1.403 . S
C2660 C2659 1.403 . S
C2660 C2661 1.404 . S
C2660 C2663 1.539 . S
C2661 C2657 1.408 . S
C2661 C2660 1.404 . S
C2661 H2673 0.930 . S
C2662 C2658 1.524 . S
C2662 H2674 0.956 . S
C2662 H2675 0.961 . S
C2662 H2676 0.961 . S
C2663 C2660 1.539 . S
C2663 H2677 0.958 . S
C2663 H2678 0.961 . S
C2663 H2679 0.960 . S
H2664 C2648 0.931 . S
H2665 C2653 0.929 . S
H2666 C2654 0.960 . S
H2667 C2654 0.962 . S
H2668 C2654 0.960 . S
H2669 C2655 0.961 . S
H2670 C2655 0.961 . S
H2671 C2655 0.961 . S
H2672 C2656 0.931 . S
H2673 C2661 0.930 . S
H2674 C2662 0.956 . S
H2675 C2662 0.961 . S
H2676 C2662 0.961 . S
H2677 C2663 0.958 . S
H2678 C2663 0.961 . S
H2679 C2663 0.960 . S
C2680 C2681 1.391 . S
C2680 C2682 1.394 . S
C2680 H2696 0.931 . S
C2681 C2680 1.391 . S
C2681 C2685 1.376 1_455 S
C2682 C2680 1.394 . S
C2682 C2683 1.369 . S
C2682 C2686 1.531 . S
C2683 C2682 1.369 . S
C2683 C2684 1.410 1_455 S
C2683 C2691 1.503 . S
C2684 C2683 1.410 1_655 S
C2684 C2685 1.392 . S
C2684 C2687 1.511 . S
C2685 C2681 1.376 1_655 S
C2685 C2684 1.392 . S
C2685 H2697 0.929 . S
C2686 C2682 1.531 . S
C2686 H2698 0.960 . S
C2686 H2699 0.962 . S
C2686 H2700 0.960 . S
C2687 C2684 1.511 . S
C2687 H2701 0.961 . S
C2687 H2702 0.961 . S
C2687 H2703 0.961 . S
C2688 C2689 1.370 . S
C2688 C2690 1.363 . S
C2688 H2704 0.931 . S
C2689 C2688 1.370 . S
C2689 C2693 1.408 . S
C2690 C2688 1.363 . S
C2690 C2691 1.370 . S
C2690 C2694 1.524 . S
C2691 C2683 1.503 . S
C2691 C2690 1.370 . S
C2691 C2692 1.403 . S
C2692 C2691 1.403 . S
C2692 C2693 1.404 . S
C2692 C2695 1.539 . S
C2693 C2689 1.408 . S
C2693 C2692 1.404 . S
C2693 H2705 0.930 . S
C2694 C2690 1.524 . S
C2694 H2706 0.956 . S
C2694 H2707 0.961 . S
C2694 H2708 0.961 . S
C2695 C2692 1.539 . S
C2695 H2709 0.958 . S
C2695 H2710 0.961 1_455 S
C2695 H2711 0.960 1_455 S
H2696 C2680 0.931 . S
H2697 C2685 0.929 . S
H2698 C2686 0.960 . S
H2699 C2686 0.962 . S
H2700 C2686 0.960 . S
H2701 C2687 0.961 . S
H2702 C2687 0.961 . S
H2703 C2687 0.961 . S
H2704 C2688 0.931 . S
H2705 C2693 0.930 . S
H2706 C2694 0.956 . S
H2707 C2694 0.961 . S
H2708 C2694 0.961 . S
H2709 C2695 0.958 . S
H2710 C2695 0.961 1_655 S
H2711 C2695 0.960 1_655 S
C2712 C2713 1.391 . S
C2712 C2714 1.394 . S
C2712 H2728 0.931 . S
C2713 C2712 1.391 . S
C2713 C2717 1.376 . S
C2714 C2712 1.394 . S
C2714 C2715 1.369 . S
C2714 C2718 1.531 . S
C2715 C2714 1.369 . S
C2715 C2716 1.410 . S
C2715 C2723 1.503 . S
C2716 C2715 1.410 . S
C2716 C2717 1.392 . S
C2716 C2719 1.511 . S
C2717 C2713 1.376 . S
C2717 C2716 1.392 . S
C2717 H2729 0.929 . S
C2718 C2714 1.531 . S
C2718 H2730 0.960 . S
C2718 H2731 0.962 . S
C2718 H2732 0.960 . S
C2719 C2716 1.511 . S
C2719 H2733 0.961 . S
C2719 H2734 0.961 . S
C2719 H2735 0.961 . S
C2720 C2721 1.370 . S
C2720 C2722 1.363 . S
C2720 H2736 0.931 . S
C2721 C2720 1.370 . S
C2721 C2725 1.408 . S
C2722 C2720 1.363 . S
C2722 C2723 1.370 . S
C2722 C2726 1.524 . S
C2723 C2715 1.503 . S
C2723 C2722 1.370 . S
C2723 C2724 1.403 . S
C2724 C2723 1.403 . S
C2724 C2725 1.404 . S
C2724 C2727 1.539 . S
C2725 C2721 1.408 . S
C2725 C2724 1.404 . S
C2725 H2737 0.930 . S
C2726 C2722 1.524 . S
C2726 H2738 0.956 . S
C2726 H2739 0.961 . S
C2726 H2740 0.961 . S
C2727 C2724 1.539 . S
C2727 H2741 0.958 . S
C2727 H2742 0.961 . S
C2727 H2743 0.960 . S
H2728 C2712 0.931 . S
H2729 C2717 0.929 . S
H2730 C2718 0.960 . S
H2731 C2718 0.962 . S
H2732 C2718 0.960 . S
H2733 C2719 0.961 . S
H2734 C2719 0.961 . S
H2735 C2719 0.961 . S
H2736 C2720 0.931 . S
H2737 C2725 0.930 . S
H2738 C2726 0.956 . S
H2739 C2726 0.961 . S
H2740 C2726 0.961 . S
H2741 C2727 0.958 . S
H2742 C2727 0.961 . S
H2743 C2727 0.960 . S
C2744 C2745 1.391 . S
C2744 C2746 1.394 . S
C2744 H2760 0.931 . S
C2745 C2744 1.391 . S
C2745 C2749 1.376 . S
C2746 C2744 1.394 . S
C2746 C2747 1.369 . S
C2746 C2750 1.531 . S
C2747 C2746 1.369 . S
C2747 C2748 1.410 . S
C2747 C2755 1.503 . S
C2748 C2747 1.410 . S
C2748 C2749 1.392 . S
C2748 C2751 1.511 . S
C2749 C2745 1.376 . S
C2749 C2748 1.392 . S
C2749 H2761 0.929 . S
C2750 C2746 1.531 . S
C2750 H2762 0.960 . S
C2750 H2763 0.962 . S
C2750 H2764 0.960 . S
C2751 C2748 1.511 . S
C2751 H2765 0.961 . S
C2751 H2766 0.961 . S
C2751 H2767 0.961 . S
C2752 C2753 1.370 . S
C2752 C2754 1.363 . S
C2752 H2768 0.931 . S
C2753 C2752 1.370 . S
C2753 C2757 1.408 . S
C2754 C2752 1.363 . S
C2754 C2755 1.370 . S
C2754 C2758 1.524 . S
C2755 C2747 1.503 . S
C2755 C2754 1.370 . S
C2755 C2756 1.403 . S
C2756 C2755 1.403 . S
C2756 C2757 1.404 . S
C2756 C2759 1.539 . S
C2757 C2753 1.408 . S
C2757 C2756 1.404 . S
C2757 H2769 0.930 . S
C2758 C2754 1.524 . S
C2758 H2770 0.956 . S
C2758 H2771 0.961 . S
C2758 H2772 0.961 . S
C2759 C2756 1.539 . S
C2759 H2773 0.958 . S
C2759 H2774 0.961 . S
C2759 H2775 0.960 . S
H2760 C2744 0.931 . S
H2761 C2749 0.929 . S
H2762 C2750 0.960 . S
H2763 C2750 0.962 . S
H2764 C2750 0.960 . S
H2765 C2751 0.961 . S
H2766 C2751 0.961 . S
H2767 C2751 0.961 . S
H2768 C2752 0.931 . S
H2769 C2757 0.930 . S
H2770 C2758 0.956 . S
H2771 C2758 0.961 . S
H2772 C2758 0.961 . S
H2773 C2759 0.958 . S
H2774 C2759 0.961 . S
H2775 C2759 0.960 . S
C2776 C2777 1.383 1_556 S
C2776 C2778 1.401 . S
C2776 H2792 0.931 . S
C2777 C2776 1.383 1_554 S
C2777 C2781 1.376 . S
C2778 C2776 1.401 . S
C2778 C2779 1.369 . S
C2778 C2782 1.531 . S
C2779 C2778 1.369 . S
C2779 C2780 1.410 1_556 S
C2779 C2787 1.503 . S
C2780 C2779 1.410 1_554 S
C2780 C2781 1.392 . S
C2780 C2783 1.511 . S
C2781 C2777 1.376 . S
C2781 C2780 1.392 . S
C2781 H2793 0.929 . S
C2782 C2778 1.531 . S
C2782 H2794 0.960 . S
C2782 H2795 0.962 . S
C2782 H2796 0.960 . S
C2783 C2780 1.511 . S
C2783 H2797 0.961 . S
C2783 H2798 0.961 . S
C2783 H2799 0.961 . S
C2784 C2785 1.370 . S
C2784 C2786 1.363 . S
C2784 H2800 0.931 . S
C2785 C2784 1.370 . S
C2785 C2789 1.408 . S
C2786 C2784 1.363 . S
C2786 C2787 1.370 . S
C2786 C2790 1.524 . S
C2787 C2779 1.503 . S
C2787 C2786 1.370 . S
C2787 C2788 1.403 . S
C2788 C2787 1.403 . S
C2788 C2789 1.404 . S
C2788 C2791 1.539 . S
C2789 C2785 1.408 . S
C2789 C2788 1.404 . S
C2789 H2801 0.930 . S
C2790 C2786 1.524 . S
C2790 H2802 0.956 . S
C2790 H2803 0.961 . S
C2790 H2804 0.961 . S
C2791 C2788 1.539 . S
C2791 H2805 0.958 . S
C2791 H2806 0.961 . S
C2791 H2807 0.960 . S
H2792 C2776 0.931 . S
H2793 C2781 0.929 . S
H2794 C2782 0.960 . S
H2795 C2782 0.962 . S
H2796 C2782 0.960 . S
H2797 C2783 0.961 . S
H2798 C2783 0.961 . S
H2799 C2783 0.961 . S
H2800 C2784 0.931 . S
H2801 C2789 0.930 . S
H2802 C2790 0.956 . S
H2803 C2790 0.961 . S
H2804 C2790 0.961 . S
H2805 C2791 0.958 . S
H2806 C2791 0.961 . S
H2807 C2791 0.960 . S
C2808 C2809 1.391 . S
C2808 C2810 1.394 . S
C2808 H2824 0.931 . S
C2809 C2808 1.391 . S
C2809 C2813 1.376 . S
C2810 C2808 1.394 . S
C2810 C2811 1.369 . S
C2810 C2814 1.531 . S
C2811 C2810 1.369 . S
C2811 C2812 1.410 . S
C2811 C2819 1.503 . S
C2812 C2811 1.410 . S
C2812 C2813 1.392 . S
C2812 C2815 1.511 . S
C2813 C2809 1.376 . S
C2813 C2812 1.392 . S
C2813 H2825 0.929 . S
C2814 C2810 1.531 . S
C2814 H2826 0.960 . S
C2814 H2827 0.962 . S
C2814 H2828 0.960 . S
C2815 C2812 1.511 . S
C2815 H2829 0.961 . S
C2815 H2830 0.961 . S
C2815 H2831 0.961 . S
C2816 C2817 1.370 . S
C2816 C2818 1.363 . S
C2816 H2832 0.931 . S
C2817 C2816 1.370 . S
C2817 C2821 1.408 . S
C2818 C2816 1.363 . S
C2818 C2819 1.370 . S
C2818 C2822 1.524 . S
C2819 C2811 1.503 . S
C2819 C2818 1.370 . S
C2819 C2820 1.403 . S
C2820 C2819 1.403 . S
C2820 C2821 1.404 . S
C2820 C2823 1.539 . S
C2821 C2817 1.408 . S
C2821 C2820 1.404 . S
C2821 H2833 0.930 . S
C2822 C2818 1.524 . S
C2822 H2834 0.956 . S
C2822 H2835 0.961 . S
C2822 H2836 0.961 . S
C2823 C2820 1.539 . S
C2823 H2837 0.958 . S
C2823 H2838 0.961 . S
C2823 H2839 0.960 . S
H2824 C2808 0.931 . S
H2825 C2813 0.929 . S
H2826 C2814 0.960 . S
H2827 C2814 0.962 . S
H2828 C2814 0.960 . S
H2829 C2815 0.961 . S
H2830 C2815 0.961 . S
H2831 C2815 0.961 . S
H2832 C2816 0.931 . S
H2833 C2821 0.930 . S
H2834 C2822 0.956 . S
H2835 C2822 0.961 . S
H2836 C2822 0.961 . S
H2837 C2823 0.958 . S
H2838 C2823 0.961 . S
H2839 C2823 0.960 . S
C2840 C2841 1.391 . S
C2840 C2842 1.394 . S
C2840 H2856 0.931 . S
C2841 C2840 1.391 . S
C2841 C2845 1.376 . S
C2842 C2840 1.394 . S
C2842 C2843 1.369 . S
C2842 C2846 1.531 . S
C2843 C2842 1.369 . S
C2843 C2844 1.410 . S
C2843 C2851 1.503 . S
C2844 C2843 1.410 . S
C2844 C2845 1.392 . S
C2844 C2847 1.511 . S
C2845 C2841 1.376 . S
C2845 C2844 1.392 . S
C2845 H2857 0.929 . S
C2846 C2842 1.531 . S
C2846 H2858 0.960 . S
C2846 H2859 0.962 . S
C2846 H2860 0.960 . S
C2847 C2844 1.511 . S
C2847 H2861 0.961 . S
C2847 H2862 0.961 . S
C2847 H2863 0.961 . S
C2848 C2849 1.370 . S
C2848 C2850 1.363 . S
C2848 H2864 0.931 . S
C2849 C2848 1.370 . S
C2849 C2853 1.408 . S
C2850 C2848 1.363 . S
C2850 C2851 1.370 . S
C2850 C2854 1.524 . S
C2851 C2843 1.503 . S
C2851 C2850 1.370 . S
C2851 C2852 1.403 . S
C2852 C2851 1.403 . S
C2852 C2853 1.404 . S
C2852 C2855 1.539 . S
C2853 C2849 1.408 . S
C2853 C2852 1.404 . S
C2853 H2865 0.930 . S
C2854 C2850 1.524 . S
C2854 H2866 0.956 . S
C2854 H2867 0.961 . S
C2854 H2868 0.961 . S
C2855 C2852 1.539 . S
C2855 H2869 0.958 . S
C2855 H2870 0.961 . S
C2855 H2871 0.960 . S
H2856 C2840 0.931 . S
H2857 C2845 0.929 . S
H2858 C2846 0.960 . S
H2859 C2846 0.962 . S
H2860 C2846 0.960 . S
H2861 C2847 0.961 . S
H2862 C2847 0.961 . S
H2863 C2847 0.961 . S
H2864 C2848 0.931 . S
H2865 C2853 0.930 . S
H2866 C2854 0.956 . S
H2867 C2854 0.961 . S
H2868 C2854 0.961 . S
H2869 C2855 0.958 . S
H2870 C2855 0.961 . S
H2871 C2855 0.960 . S
C2872 C2873 1.391 . S
C2872 C2874 1.394 . S
C2872 H2888 0.931 . S
C2873 C2872 1.391 . S
C2873 C2877 1.376 . S
C2874 C2872 1.394 . S
C2874 C2875 1.369 . S
C2874 C2878 1.531 . S
C2875 C2874 1.369 . S
C2875 C2876 1.410 . S
C2875 C2883 1.503 . S
C2876 C2875 1.410 . S
C2876 C2877 1.392 . S
C2876 C2879 1.511 . S
C2877 C2873 1.376 . S
C2877 C2876 1.392 . S
C2877 H2889 0.929 . S
C2878 C2874 1.531 . S
C2878 H2890 0.960 . S
C2878 H2891 0.962 . S
C2878 H2892 0.960 . S
C2879 C2876 1.511 . S
C2879 H2893 0.961 . S
C2879 H2894 0.961 . S
C2879 H2895 0.961 . S
C2880 C2881 1.370 . S
C2880 C2882 1.363 . S
C2880 H2896 0.931 . S
C2881 C2880 1.370 . S
C2881 C2885 1.408 . S
C2882 C2880 1.363 . S
C2882 C2883 1.370 . S
C2882 C2886 1.524 . S
C2883 C2875 1.503 . S
C2883 C2882 1.370 . S
C2883 C2884 1.403 . S
C2884 C2883 1.403 . S
C2884 C2885 1.404 . S
C2884 C2887 1.539 . S
C2885 C2881 1.408 . S
C2885 C2884 1.404 . S
C2885 H2897 0.930 . S
C2886 C2882 1.524 . S
C2886 H2898 0.956 . S
C2886 H2899 0.961 . S
C2886 H2900 0.961 . S
C2887 C2884 1.539 . S
C2887 H2901 0.958 . S
C2887 H2902 0.961 . S
C2887 H2903 0.960 . S
H2888 C2872 0.931 . S
H2889 C2877 0.929 . S
H2890 C2878 0.960 . S
H2891 C2878 0.962 . S
H2892 C2878 0.960 . S
H2893 C2879 0.961 . S
H2894 C2879 0.961 . S
H2895 C2879 0.961 . S
H2896 C2880 0.931 . S
H2897 C2885 0.930 . S
H2898 C2886 0.956 . S
H2899 C2886 0.961 . S
H2900 C2886 0.961 . S
H2901 C2887 0.958 . S
H2902 C2887 0.961 . S
H2903 C2887 0.960 . S
C2904 C2905 1.391 . S
C2904 C2906 1.394 . S
C2904 H2920 0.931 . S
C2905 C2904 1.391 . S
C2905 C2909 1.376 . S
C2906 C2904 1.394 . S
C2906 C2907 1.369 . S
C2906 C2910 1.531 . S
C2907 C2906 1.369 . S
C2907 C2908 1.410 . S
C2907 C2915 1.503 . S
C2908 C2907 1.410 . S
C2908 C2909 1.392 . S
C2908 C2911 1.511 . S
C2909 C2905 1.376 . S
C2909 C2908 1.392 . S
C2909 H2921 0.929 . S
C2910 C2906 1.531 . S
C2910 H2922 0.960 . S
C2910 H2923 0.962 . S
C2910 H2924 0.960 . S
C2911 C2908 1.511 . S
C2911 H2925 0.961 . S
C2911 H2926 0.961 . S
C2911 H2927 0.961 . S
C2912 C2913 1.370 . S
C2912 C2914 1.363 . S
C2912 H2928 0.931 . S
C2913 C2912 1.370 . S
C2913 C2917 1.408 . S
C2914 C2912 1.363 . S
C2914 C2915 1.370 . S
C2914 C2918 1.524 . S
C2915 C2907 1.503 . S
C2915 C2914 1.370 . S
C2915 C2916 1.403 . S
C2916 C2915 1.403 . S
C2916 C2917 1.404 . S
C2916 C2919 1.539 . S
C2917 C2913 1.408 . S
C2917 C2916 1.404 . S
C2917 H2929 0.930 . S
C2918 C2914 1.524 . S
C2918 H2930 0.956 . S
C2918 H2931 0.961 . S
C2918 H2932 0.961 . S
C2919 C2916 1.539 . S
C2919 H2933 0.958 . S
C2919 H2934 0.961 . S
C2919 H2935 0.960 . S
H2920 C2904 0.931 . S
H2921 C2909 0.929 . S
H2922 C2910 0.960 . S
H2923 C2910 0.962 . S
H2924 C2910 0.960 . S
H2925 C2911 0.961 . S
H2926 C2911 0.961 . S
H2927 C2911 0.961 . S
H2928 C2912 0.931 . S
H2929 C2917 0.930 . S
H2930 C2918 0.956 . S
H2931 C2918 0.961 . S
H2932 C2918 0.961 . S
H2933 C2919 0.958 . S
H2934 C2919 0.961 . S
H2935 C2919 0.960 . S
C2936 C2937 1.391 . S
C2936 C2938 1.394 . S
C2936 H2952 0.931 . S
C2937 C2936 1.391 . S
C2937 C2941 1.376 . S
C2938 C2936 1.394 . S
C2938 C2939 1.369 . S
C2938 C2942 1.531 . S
C2939 C2938 1.369 . S
C2939 C2940 1.410 . S
C2939 C2947 1.503 . S
C2940 C2939 1.410 . S
C2940 C2941 1.392 . S
C2940 C2943 1.511 . S
C2941 C2937 1.376 . S
C2941 C2940 1.392 . S
C2941 H2953 0.929 . S
C2942 C2938 1.531 . S
C2942 H2954 0.960 . S
C2942 H2955 0.962 . S
C2942 H2956 0.960 . S
C2943 C2940 1.511 . S
C2943 H2957 0.961 . S
C2943 H2958 0.961 . S
C2943 H2959 0.961 . S
C2944 C2945 1.370 . S
C2944 C2946 1.363 . S
C2944 H2960 0.931 . S
C2945 C2944 1.370 . S
C2945 C2949 1.408 . S
C2946 C2944 1.363 . S
C2946 C2947 1.370 . S
C2946 C2950 1.524 . S
C2947 C2939 1.503 . S
C2947 C2946 1.370 . S
C2947 C2948 1.403 . S
C2948 C2947 1.403 . S
C2948 C2949 1.404 . S
C2948 C2951 1.539 . S
C2949 C2945 1.408 . S
C2949 C2948 1.404 . S
C2949 H2961 0.930 . S
C2950 C2946 1.524 . S
C2950 H2962 0.956 . S
C2950 H2963 0.961 . S
C2950 H2964 0.961 . S
C2951 C2948 1.539 . S
C2951 H2965 0.958 . S
C2951 H2966 0.961 . S
C2951 H2967 0.960 . S
H2952 C2936 0.931 . S
H2953 C2941 0.929 . S
H2954 C2942 0.960 . S
H2955 C2942 0.962 . S
H2956 C2942 0.960 . S
H2957 C2943 0.961 . S
H2958 C2943 0.961 . S
H2959 C2943 0.961 . S
H2960 C2944 0.931 . S
H2961 C2949 0.930 . S
H2962 C2950 0.956 . S
H2963 C2950 0.961 . S
H2964 C2950 0.961 . S
H2965 C2951 0.958 . S
H2966 C2951 0.961 . S
H2967 C2951 0.960 . S
C2968 C2969 1.391 . S
C2968 C2970 1.394 . S
C2968 H2984 0.931 . S
C2969 C2968 1.391 . S
C2969 C2973 1.376 . S
C2970 C2968 1.394 . S
C2970 C2971 1.369 . S
C2970 C2974 1.531 . S
C2971 C2970 1.369 . S
C2971 C2972 1.410 . S
C2971 C2979 1.503 . S
C2972 C2971 1.410 . S
C2972 C2973 1.392 . S
C2972 C2975 1.511 . S
C2973 C2969 1.376 . S
C2973 C2972 1.392 . S
C2973 H2985 0.929 . S
C2974 C2970 1.531 . S
C2974 H2986 0.960 . S
C2974 H2987 0.962 . S
C2974 H2988 0.960 . S
C2975 C2972 1.511 . S
C2975 H2989 0.961 . S
C2975 H2990 0.961 . S
C2975 H2991 0.961 . S
C2976 C2977 1.370 . S
C2976 C2978 1.363 . S
C2976 H2992 0.931 . S
C2977 C2976 1.370 . S
C2977 C2981 1.408 . S
C2978 C2976 1.363 . S
C2978 C2979 1.370 . S
C2978 C2982 1.524 . S
C2979 C2971 1.503 . S
C2979 C2978 1.370 . S
C2979 C2980 1.403 . S
C2980 C2979 1.403 . S
C2980 C2981 1.404 . S
C2980 C2983 1.539 . S
C2981 C2977 1.408 . S
C2981 C2980 1.404 . S
C2981 H2993 0.930 . S
C2982 C2978 1.524 . S
C2982 H2994 0.956 . S
C2982 H2995 0.961 . S
C2982 H2996 0.961 . S
C2983 C2980 1.539 . S
C2983 H2997 0.958 . S
C2983 H2998 0.961 . S
C2983 H2999 0.960 . S
H2984 C2968 0.931 . S
H2985 C2973 0.929 . S
H2986 C2974 0.960 . S
H2987 C2974 0.962 . S
H2988 C2974 0.960 . S
H2989 C2975 0.961 . S
H2990 C2975 0.961 . S
H2991 C2975 0.961 . S
H2992 C2976 0.931 . S
H2993 C2981 0.930 . S
H2994 C2982 0.956 . S
H2995 C2982 0.961 . S
H2996 C2982 0.961 . S
H2997 C2983 0.958 . S
H2998 C2983 0.961 . S
H2999 C2983 0.960 . S
C3000 C3001 1.391 . S
C3000 C3002 1.394 . S
C3000 H3016 0.931 . S
C3001 C3000 1.391 . S
C3001 C3005 1.376 . S
C3002 C3000 1.394 . S
C3002 C3003 1.369 . S
C3002 C3006 1.531 . S
C3003 C3002 1.369 . S
C3003 C3004 1.410 . S
C3003 C3011 1.503 . S
C3004 C3003 1.410 . S
C3004 C3005 1.392 . S
C3004 C3007 1.511 . S
C3005 C3001 1.376 . S
C3005 C3004 1.392 . S
C3005 H3017 0.929 . S
C3006 C3002 1.531 . S
C3006 H3018 0.960 . S
C3006 H3019 0.962 . S
C3006 H3020 0.960 . S
C3007 C3004 1.511 . S
C3007 H3021 0.961 . S
C3007 H3022 0.961 . S
C3007 H3023 0.961 . S
C3008 C3009 1.370 . S
C3008 C3010 1.363 . S
C3008 H3024 0.931 . S
C3009 C3008 1.370 . S
C3009 C3013 1.408 . S
C3010 C3008 1.363 . S
C3010 C3011 1.370 . S
C3010 C3014 1.524 . S
C3011 C3003 1.503 . S
C3011 C3010 1.370 . S
C3011 C3012 1.403 . S
C3012 C3011 1.403 . S
C3012 C3013 1.404 . S
C3012 C3015 1.539 . S
C3013 C3009 1.408 . S
C3013 C3012 1.404 . S
C3013 H3025 0.930 . S
C3014 C3010 1.524 . S
C3014 H3026 0.956 . S
C3014 H3027 0.961 . S
C3014 H3028 0.961 . S
C3015 C3012 1.539 . S
C3015 H3029 0.958 . S
C3015 H3030 0.961 . S
C3015 H3031 0.960 . S
H3016 C3000 0.931 . S
H3017 C3005 0.929 . S
H3018 C3006 0.960 . S
H3019 C3006 0.962 . S
H3020 C3006 0.960 . S
H3021 C3007 0.961 . S
H3022 C3007 0.961 . S
H3023 C3007 0.961 . S
H3024 C3008 0.931 . S
H3025 C3013 0.930 . S
H3026 C3014 0.956 . S
H3027 C3014 0.961 . S
H3028 C3014 0.961 . S
H3029 C3015 0.958 . S
H3030 C3015 0.961 . S
H3031 C3015 0.960 . S
C3032 C3033 1.391 . S
C3032 C3034 1.394 . S
C3032 H3048 0.931 . S
C3033 C3032 1.391 . S
C3033 C3037 1.376 . S
C3034 C3032 1.394 . S
C3034 C3035 1.369 . S
C3034 C3038 1.531 . S
C3035 C3034 1.369 . S
C3035 C3036 1.410 . S
C3035 C3043 1.503 . S
C3036 C3035 1.410 . S
C3036 C3037 1.392 . S
C3036 C3039 1.511 . S
C3037 C3033 1.376 . S
C3037 C3036 1.392 . S
C3037 H3049 0.929 . S
C3038 C3034 1.531 . S
C3038 H3050 0.960 . S
C3038 H3051 0.962 . S
C3038 H3052 0.960 . S
C3039 C3036 1.511 . S
C3039 H3053 0.961 . S
C3039 H3054 0.961 . S
C3039 H3055 0.961 . S
C3040 C3041 1.370 . S
C3040 C3042 1.363 . S
C3040 H3056 0.931 . S
C3041 C3040 1.370 . S
C3041 C3045 1.408 . S
C3042 C3040 1.363 . S
C3042 C3043 1.370 . S
C3042 C3046 1.524 . S
C3043 C3035 1.503 . S
C3043 C3042 1.370 . S
C3043 C3044 1.403 . S
C3044 C3043 1.403 . S
C3044 C3045 1.404 . S
C3044 C3047 1.539 . S
C3045 C3041 1.408 . S
C3045 C3044 1.404 . S
C3045 H3057 0.930 . S
C3046 C3042 1.524 . S
C3046 H3058 0.956 . S
C3046 H3059 0.961 . S
C3046 H3060 0.961 . S
C3047 C3044 1.539 . S
C3047 H3061 0.958 . S
C3047 H3062 0.961 . S
C3047 H3063 0.960 . S
H3048 C3032 0.931 . S
H3049 C3037 0.929 . S
H3050 C3038 0.960 . S
H3051 C3038 0.962 . S
H3052 C3038 0.960 . S
H3053 C3039 0.961 . S
H3054 C3039 0.961 . S
H3055 C3039 0.961 . S
H3056 C3040 0.931 . S
H3057 C3045 0.930 . S
H3058 C3046 0.956 . S
H3059 C3046 0.961 . S
H3060 C3046 0.961 . S
H3061 C3047 0.958 . S
H3062 C3047 0.961 . S
H3063 C3047 0.960 . S
C3064 C3065 1.391 . S
C3064 C3066 1.394 . S
C3064 H3080 0.931 . S
C3065 C3064 1.391 . S
C3065 C3069 1.376 1_565 S
C3066 C3064 1.394 . S
C3066 C3067 1.369 . S
C3066 C3070 1.531 . S
C3067 C3066 1.369 . S
C3067 C3068 1.410 . S
C3067 C3075 1.503 . S
C3068 C3067 1.410 . S
C3068 C3069 1.392 1_565 S
C3068 C3071 1.511 . S
C3069 C3065 1.376 1_545 S
C3069 C3068 1.392 1_545 S
C3069 H3081 0.929 . S
C3070 C3066 1.531 . S
C3070 H3082 0.960 . S
C3070 H3083 0.962 . S
C3070 H3084 0.960 . S
C3071 C3068 1.511 . S
C3071 H3085 0.961 1_565 S
C3071 H3086 0.961 . S
C3071 H3087 0.961 1_565 S
C3072 C3073 1.370 . S
C3072 C3074 1.363 . S
C3072 H3088 0.931 . S
C3073 C3072 1.370 . S
C3073 C3077 1.408 . S
C3074 C3072 1.363 . S
C3074 C3075 1.370 . S
C3074 C3078 1.524 . S
C3075 C3067 1.503 . S
C3075 C3074 1.370 . S
C3075 C3076 1.403 . S
C3076 C3075 1.403 . S
C3076 C3077 1.404 . S
C3076 C3079 1.539 . S
C3077 C3073 1.408 . S
C3077 C3076 1.404 . S
C3077 H3089 0.930 . S
C3078 C3074 1.524 . S
C3078 H3090 0.956 . S
C3078 H3091 0.961 . S
C3078 H3092 0.961 . S
C3079 C3076 1.539 . S
C3079 H3093 0.958 . S
C3079 H3094 0.961 . S
C3079 H3095 0.960 . S
H3080 C3064 0.931 . S
H3081 C3069 0.929 . S
H3082 C3070 0.960 . S
H3083 C3070 0.962 . S
H3084 C3070 0.960 . S
H3085 C3071 0.961 1_545 S
H3086 C3071 0.961 . S
H3087 C3071 0.961 1_545 S
H3088 C3072 0.931 . S
H3089 C3077 0.930 . S
H3090 C3078 0.956 . S
H3091 C3078 0.961 . S
H3092 C3078 0.961 . S
H3093 C3079 0.958 . S
H3094 C3079 0.961 . S
H3095 C3079 0.960 . S
C3096 C3097 1.391 . S
C3096 C3098 1.394 . S
C3096 H3112 0.931 . S
C3097 C3096 1.391 . S
C3097 C3101 1.376 . S
C3098 C3096 1.394 . S
C3098 C3099 1.369 . S
C3098 C3102 1.531 1_565 S
C3099 C3098 1.369 . S
C3099 C3100 1.410 . S
C3099 C3107 1.503 . S
C3100 C3099 1.410 . S
C3100 C3101 1.392 . S
C3100 C3103 1.511 . S
C3101 C3097 1.376 . S
C3101 C3100 1.392 . S
C3101 H3113 0.929 . S
C3102 C3098 1.531 1_545 S
C3102 H3114 0.960 . S
C3102 H3115 0.962 . S
C3102 H3116 0.960 . S
C3103 C3100 1.511 . S
C3103 H3117 0.961 . S
C3103 H3118 0.961 . S
C3103 H3119 0.961 . S
C3104 C3105 1.370 . S
C3104 C3106 1.356 1_545 S
C3104 H3120 0.931 1_554 S
C3105 C3104 1.370 . S
C3105 C3109 1.408 . S
C3106 C3104 1.356 1_565 S
C3106 C3107 1.376 . S
C3106 C3110 1.526 1_554 S
C3107 C3099 1.503 . S
C3107 C3106 1.376 . S
C3107 C3108 1.403 1_565 S
C3108 C3107 1.403 1_545 S
C3108 C3109 1.404 . S
C3108 C3111 1.539 1_545 S
C3109 C3105 1.408 . S
C3109 C3108 1.404 . S
C3109 H3121 0.930 . S
C3110 C3106 1.526 1_556 S
C3110 H3122 0.980 . S
C3110 H3123 0.961 . S
C3110 H3124 0.961 . S
C3111 C3108 1.539 1_565 S
C3111 H3125 0.958 1_565 S
C3111 H3126 0.961 . S
C3111 H3127 0.960 . S
H3112 C3096 0.931 . S
H3113 C3101 0.929 . S
H3114 C3102 0.960 . S
H3115 C3102 0.962 . S
H3116 C3102 0.960 . S
H3117 C3103 0.961 . S
H3118 C3103 0.961 . S
H3119 C3103 0.961 . S
H3120 C3104 0.931 1_556 S
H3121 C3109 0.930 . S
H3122 C3110 0.980 . S
H3123 C3110 0.961 . S
H3124 C3110 0.961 . S
H3125 C3111 0.958 1_545 S
H3126 C3111 0.961 . S
H3127 C3111 0.960 . S
C3128 C3129 1.391 . S
C3128 C3130 1.394 . S
C3128 H3144 0.931 . S
C3129 C3128 1.391 . S
C3129 C3133 1.376 . S
C3130 C3128 1.394 . S
C3130 C3131 1.369 . S
C3130 C3134 1.531 . S
C3131 C3130 1.369 . S
C3131 C3132 1.410 . S
C3131 C3139 1.503 . S
C3132 C3131 1.410 . S
C3132 C3133 1.392 . S
C3132 C3135 1.511 . S
C3133 C3129 1.376 . S
C3133 C3132 1.392 . S
C3133 H3145 0.929 . S
C3134 C3130 1.531 . S
C3134 H3146 0.960 . S
C3134 H3147 0.962 . S
C3134 H3148 0.960 . S
C3135 C3132 1.511 . S
C3135 H3149 0.961 . S
C3135 H3150 0.961 . S
C3135 H3151 0.961 . S
C3136 C3137 1.370 . S
C3136 C3138 1.363 . S
C3136 H3152 0.931 . S
C3137 C3136 1.370 . S
C3137 C3141 1.408 . S
C3138 C3136 1.363 . S
C3138 C3139 1.370 . S
C3138 C3142 1.524 . S
C3139 C3131 1.503 . S
C3139 C3138 1.370 . S
C3139 C3140 1.403 . S
C3140 C3139 1.403 . S
C3140 C3141 1.404 . S
C3140 C3143 1.539 . S
C3141 C3137 1.408 . S
C3141 C3140 1.404 . S
C3141 H3153 0.930 . S
C3142 C3138 1.524 . S
C3142 H3154 0.956 . S
C3142 H3155 0.961 . S
C3142 H3156 0.961 . S
C3143 C3140 1.539 . S
C3143 H3157 0.958 . S
C3143 H3158 0.961 . S
C3143 H3159 0.960 . S
H3144 C3128 0.931 . S
H3145 C3133 0.929 . S
H3146 C3134 0.960 . S
H3147 C3134 0.962 . S
H3148 C3134 0.960 . S
H3149 C3135 0.961 . S
H3150 C3135 0.961 . S
H3151 C3135 0.961 . S
H3152 C3136 0.931 . S
H3153 C3141 0.930 . S
H3154 C3142 0.956 . S
H3155 C3142 0.961 . S
H3156 C3142 0.961 . S
H3157 C3143 0.958 . S
H3158 C3143 0.961 . S
H3159 C3143 0.960 . S
C3160 C3161 1.391 . S
C3160 C3162 1.394 . S
C3160 H3176 0.931 . S
C3161 C3160 1.391 . S
C3161 C3165 1.376 . S
C3162 C3160 1.394 . S
C3162 C3163 1.369 . S
C3162 C3166 1.531 . S
C3163 C3162 1.369 . S
C3163 C3164 1.410 . S
C3163 C3171 1.503 . S
C3164 C3163 1.410 . S
C3164 C3165 1.392 . S
C3164 C3167 1.511 . S
C3165 C3161 1.376 . S
C3165 C3164 1.392 . S
C3165 H3177 0.929 . S
C3166 C3162 1.531 . S
C3166 H3178 0.960 . S
C3166 H3179 0.962 . S
C3166 H3180 0.960 . S
C3167 C3164 1.511 . S
C3167 H3181 0.961 . S
C3167 H3182 0.961 . S
C3167 H3183 0.961 1_554 S
C3168 C3169 1.370 . S
C3168 C3170 1.363 . S
C3168 H3184 0.931 . S
C3169 C3168 1.370 . S
C3169 C3173 1.408 . S
C3170 C3168 1.363 . S
C3170 C3171 1.370 . S
C3170 C3174 1.524 . S
C3171 C3163 1.503 . S
C3171 C3170 1.370 . S
C3171 C3172 1.403 . S
C3172 C3171 1.403 . S
C3172 C3173 1.404 . S
C3172 C3175 1.539 . S
C3173 C3169 1.408 . S
C3173 C3172 1.404 . S
C3173 H3185 0.930 . S
C3174 C3170 1.524 . S
C3174 H3186 0.956 . S
C3174 H3187 0.961 . S
C3174 H3188 0.961 . S
C3175 C3172 1.539 . S
C3175 H3189 0.958 . S
C3175 H3190 0.961 1_554 S
C3175 H3191 0.960 . S
H3176 C3160 0.931 . S
H3177 C3165 0.929 . S
H3178 C3166 0.960 . S
H3179 C3166 0.962 . S
H3180 C3166 0.960 . S
H3181 C3167 0.961 . S
H3182 C3167 0.961 . S
H3183 C3167 0.961 1_556 S
H3184 C3168 0.931 . S
H3185 C3173 0.930 . S
H3186 C3174 0.956 . S
H3187 C3174 0.961 . S
H3188 C3174 0.961 . S
H3189 C3175 0.958 . S
H3190 C3175 0.961 1_556 S
H3191 C3175 0.960 . S
C3192 C3193 1.391 . S
C3192 C3194 1.394 . S
C3192 H3208 0.931 . S
C3193 C3192 1.391 . S
C3193 C3197 1.376 . S
C3194 C3192 1.394 . S
C3194 C3195 1.369 . S
C3194 C3198 1.531 . S
C3195 C3194 1.369 . S
C3195 C3196 1.410 . S
C3195 C3203 1.503 . S
C3196 C3195 1.410 . S
C3196 C3197 1.392 . S
C3196 C3199 1.511 . S
C3197 C3193 1.376 . S
C3197 C3196 1.392 . S
C3197 H3209 0.929 . S
C3198 C3194 1.531 . S
C3198 H3210 0.960 . S
C3198 H3211 0.962 . S
C3198 H3212 0.960 . S
C3199 C3196 1.511 . S
C3199 H3213 0.961 . S
C3199 H3214 0.961 . S
C3199 H3215 0.961 . S
C3200 C3201 1.370 . S
C3200 C3202 1.363 . S
C3200 H3216 0.931 . S
C3201 C3200 1.370 . S
C3201 C3205 1.408 . S
C3202 C3200 1.363 . S
C3202 C3203 1.370 . S
C3202 C3206 1.524 . S
C3203 C3195 1.503 . S
C3203 C3202 1.370 . S
C3203 C3204 1.403 . S
C3204 C3203 1.403 . S
C3204 C3205 1.404 . S
C3204 C3207 1.539 . S
C3205 C3201 1.408 . S
C3205 C3204 1.404 . S
C3205 H3217 0.930 . S
C3206 C3202 1.524 . S
C3206 H3218 0.956 . S
C3206 H3219 0.961 . S
C3206 H3220 0.961 . S
C3207 C3204 1.539 . S
C3207 H3221 0.958 . S
C3207 H3222 0.961 . S
C3207 H3223 0.960 . S
H3208 C3192 0.931 . S
H3209 C3197 0.929 . S
H3210 C3198 0.960 . S
H3211 C3198 0.962 . S
H3212 C3198 0.960 . S
H3213 C3199 0.961 . S
H3214 C3199 0.961 . S
H3215 C3199 0.961 . S
H3216 C3200 0.931 . S
H3217 C3205 0.930 . S
H3218 C3206 0.956 . S
H3219 C3206 0.961 . S
H3220 C3206 0.961 . S
H3221 C3207 0.958 . S
H3222 C3207 0.961 . S
H3223 C3207 0.960 . S
C3224 C3225 1.391 . S
C3224 C3226 1.394 . S
C3224 H3240 0.931 . S
C3225 C3224 1.391 . S
C3225 C3229 1.376 . S
C3226 C3224 1.394 . S
C3226 C3227 1.369 . S
C3226 C3230 1.531 . S
C3227 C3226 1.369 . S
C3227 C3228 1.410 . S
C3227 C3235 1.503 . S
C3228 C3227 1.410 . S
C3228 C3229 1.392 . S
C3228 C3231 1.511 . S
C3229 C3225 1.376 . S
C3229 C3228 1.392 . S
C3229 H3241 0.929 . S
C3230 C3226 1.531 . S
C3230 H3242 0.960 . S
C3230 H3243 0.962 . S
C3230 H3244 0.960 . S
C3231 C3228 1.511 . S
C3231 H3245 0.961 . S
C3231 H3246 0.961 . S
C3231 H3247 0.961 . S
C3232 C3233 1.370 . S
C3232 C3234 1.363 . S
C3232 H3248 0.931 . S
C3233 C3232 1.370 . S
C3233 C3237 1.408 . S
C3234 C3232 1.363 . S
C3234 C3235 1.370 . S
C3234 C3238 1.524 . S
C3235 C3227 1.503 . S
C3235 C3234 1.370 . S
C3235 C3236 1.403 . S
C3236 C3235 1.403 . S
C3236 C3237 1.404 . S
C3236 C3239 1.539 . S
C3237 C3233 1.408 . S
C3237 C3236 1.404 . S
C3237 H3249 0.930 . S
C3238 C3234 1.524 . S
C3238 H3250 0.956 . S
C3238 H3251 0.961 . S
C3238 H3252 0.961 . S
C3239 C3236 1.539 . S
C3239 H3253 0.958 . S
C3239 H3254 0.961 . S
C3239 H3255 0.960 . S
H3240 C3224 0.931 . S
H3241 C3229 0.929 . S
H3242 C3230 0.960 . S
H3243 C3230 0.962 . S
H3244 C3230 0.960 . S
H3245 C3231 0.961 . S
H3246 C3231 0.961 . S
H3247 C3231 0.961 . S
H3248 C3232 0.931 . S
H3249 C3237 0.930 . S
H3250 C3238 0.956 . S
H3251 C3238 0.961 . S
H3252 C3238 0.961 . S
H3253 C3239 0.958 . S
H3254 C3239 0.961 . S
H3255 C3239 0.960 . S
C3256 C3257 1.391 . S
C3256 C3258 1.394 . S
C3256 H3272 0.931 . S
C3257 C3256 1.391 . S
C3257 C3261 1.376 . S
C3258 C3256 1.394 . S
C3258 C3259 1.369 . S
C3258 C3262 1.531 . S
C3259 C3258 1.369 . S
C3259 C3260 1.410 . S
C3259 C3267 1.503 . S
C3260 C3259 1.410 . S
C3260 C3261 1.392 . S
C3260 C3263 1.511 . S
C3261 C3257 1.376 . S
C3261 C3260 1.392 . S
C3261 H3273 0.929 . S
C3262 C3258 1.531 . S
C3262 H3274 0.960 . S
C3262 H3275 0.962 . S
C3262 H3276 0.960 . S
C3263 C3260 1.511 . S
C3263 H3277 0.961 . S
C3263 H3278 0.961 . S
C3263 H3279 0.961 . S
C3264 C3265 1.370 . S
C3264 C3266 1.363 . S
C3264 H3280 0.931 . S
C3265 C3264 1.370 . S
C3265 C3269 1.408 . S
C3266 C3264 1.363 . S
C3266 C3267 1.370 . S
C3266 C3270 1.524 . S
C3267 C3259 1.503 . S
C3267 C3266 1.370 . S
C3267 C3268 1.403 . S
C3268 C3267 1.403 . S
C3268 C3269 1.404 . S
C3268 C3271 1.539 . S
C3269 C3265 1.408 . S
C3269 C3268 1.404 . S
C3269 H3281 0.930 . S
C3270 C3266 1.524 . S
C3270 H3282 0.956 . S
C3270 H3283 0.961 . S
C3270 H3284 0.961 . S
C3271 C3268 1.539 . S
C3271 H3285 0.958 . S
C3271 H3286 0.961 . S
C3271 H3287 0.960 . S
H3272 C3256 0.931 . S
H3273 C3261 0.929 . S
H3274 C3262 0.960 . S
H3275 C3262 0.962 . S
H3276 C3262 0.960 . S
H3277 C3263 0.961 . S
H3278 C3263 0.961 . S
H3279 C3263 0.961 . S
H3280 C3264 0.931 . S
H3281 C3269 0.930 . S
H3282 C3270 0.956 . S
H3283 C3270 0.961 . S
H3284 C3270 0.961 . S
H3285 C3271 0.958 . S
H3286 C3271 0.961 . S
H3287 C3271 0.960 . S
C3288 C3289 1.391 . S
C3288 C3290 1.394 . S
C3288 H3304 0.931 . S
C3289 C3288 1.391 . S
C3289 C3293 1.376 . S
C3290 C3288 1.394 . S
C3290 C3291 1.369 . S
C3290 C3294 1.531 . S
C3291 C3290 1.369 . S
C3291 C3292 1.410 . S
C3291 C3299 1.503 . S
C3292 C3291 1.410 . S
C3292 C3293 1.392 . S
C3292 C3295 1.511 . S
C3293 C3289 1.376 . S
C3293 C3292 1.392 . S
C3293 H3305 0.929 . S
C3294 C3290 1.531 . S
C3294 H3306 0.960 . S
C3294 H3307 0.962 . S
C3294 H3308 0.960 . S
C3295 C3292 1.511 . S
C3295 H3309 0.961 . S
C3295 H3310 0.961 . S
C3295 H3311 0.961 . S
C3296 C3297 1.370 . S
C3296 C3298 1.363 . S
C3296 H3312 0.931 . S
C3297 C3296 1.370 . S
C3297 C3301 1.408 . S
C3298 C3296 1.363 . S
C3298 C3299 1.370 . S
C3298 C3302 1.524 . S
C3299 C3291 1.503 . S
C3299 C3298 1.370 . S
C3299 C3300 1.403 . S
C3300 C3299 1.403 . S
C3300 C3301 1.404 . S
C3300 C3303 1.539 . S
C3301 C3297 1.408 . S
C3301 C3300 1.404 . S
C3301 H3313 0.930 . S
C3302 C3298 1.524 . S
C3302 H3314 0.956 . S
C3302 H3315 0.961 . S
C3302 H3316 0.961 . S
C3303 C3300 1.539 . S
C3303 H3317 0.958 . S
C3303 H3318 0.961 . S
C3303 H3319 0.960 . S
H3304 C3288 0.931 . S
H3305 C3293 0.929 . S
H3306 C3294 0.960 . S
H3307 C3294 0.962 . S
H3308 C3294 0.960 . S
H3309 C3295 0.961 . S
H3310 C3295 0.961 . S
H3311 C3295 0.961 . S
H3312 C3296 0.931 . S
H3313 C3301 0.930 . S
H3314 C3302 0.956 . S
H3315 C3302 0.961 . S
H3316 C3302 0.961 . S
H3317 C3303 0.958 . S
H3318 C3303 0.961 . S
H3319 C3303 0.960 . S
C3320 C3321 1.391 . S
C3320 C3322 1.394 . S
C3320 H3336 0.931 . S
C3321 C3320 1.391 . S
C3321 C3325 1.376 . S
C3322 C3320 1.394 . S
C3322 C3323 1.369 . S
C3322 C3326 1.531 . S
C3323 C3322 1.369 . S
C3323 C3324 1.410 . S
C3323 C3331 1.503 . S
C3324 C3323 1.410 . S
C3324 C3325 1.392 . S
C3324 C3327 1.511 . S
C3325 C3321 1.376 . S
C3325 C3324 1.392 . S
C3325 H3337 0.929 . S
C3326 C3322 1.531 . S
C3326 H3338 0.960 . S
C3326 H3339 0.962 . S
C3326 H3340 0.960 . S
C3327 C3324 1.511 . S
C3327 H3341 0.961 . S
C3327 H3342 0.961 . S
C3327 H3343 0.961 1_554 S
C3328 C3329 1.370 . S
C3328 C3330 1.363 . S
C3328 H3344 0.931 . S
C3329 C3328 1.370 . S
C3329 C3333 1.408 . S
C3330 C3328 1.363 . S
C3330 C3331 1.370 . S
C3330 C3334 1.524 . S
C3331 C3323 1.503 . S
C3331 C3330 1.370 . S
C3331 C3332 1.403 . S
C3332 C3331 1.403 . S
C3332 C3333 1.404 . S
C3332 C3335 1.539 . S
C3333 C3329 1.408 . S
C3333 C3332 1.404 . S
C3333 H3345 0.930 . S
C3334 C3330 1.524 . S
C3334 H3346 0.956 . S
C3334 H3347 0.961 . S
C3334 H3348 0.961 . S
C3335 C3332 1.539 . S
C3335 H3349 0.958 1_455 S
C3335 H3350 0.961 1_454 S
C3335 H3351 0.960 . S
H3336 C3320 0.931 . S
H3337 C3325 0.929 . S
H3338 C3326 0.960 . S
H3339 C3326 0.962 . S
H3340 C3326 0.960 . S
H3341 C3327 0.961 . S
H3342 C3327 0.961 . S
H3343 C3327 0.961 1_556 S
H3344 C3328 0.931 . S
H3345 C3333 0.930 . S
H3346 C3334 0.956 . S
H3347 C3334 0.961 . S
H3348 C3334 0.961 . S
H3349 C3335 0.958 1_655 S
H3350 C3335 0.961 1_656 S
H3351 C3335 0.960 . S
C3352 C3353 1.391 . S
C3352 C3354 1.394 . S
C3352 H3368 0.931 . S
C3353 C3352 1.391 . S
C3353 C3357 1.376 . S
C3354 C3352 1.394 . S
C3354 C3355 1.369 . S
C3354 C3358 1.531 . S
C3355 C3354 1.369 . S
C3355 C3356 1.410 . S
C3355 C3363 1.503 . S
C3356 C3355 1.410 . S
C3356 C3357 1.392 . S
C3356 C3359 1.511 . S
C3357 C3353 1.376 . S
C3357 C3356 1.392 . S
C3357 H3369 0.929 . S
C3358 C3354 1.531 . S
C3358 H3370 0.960 . S
C3358 H3371 0.962 . S
C3358 H3372 0.960 . S
C3359 C3356 1.511 . S
C3359 H3373 0.961 . S
C3359 H3374 0.961 . S
C3359 H3375 0.961 . S
C3360 C3361 1.370 . S
C3360 C3362 1.363 . S
C3360 H3376 0.931 . S
C3361 C3360 1.370 . S
C3361 C3365 1.408 . S
C3362 C3360 1.363 . S
C3362 C3363 1.370 . S
C3362 C3366 1.524 . S
C3363 C3355 1.503 . S
C3363 C3362 1.370 . S
C3363 C3364 1.403 . S
C3364 C3363 1.403 . S
C3364 C3365 1.404 . S
C3364 C3367 1.539 . S
C3365 C3361 1.408 . S
C3365 C3364 1.404 . S
C3365 H3377 0.930 . S
C3366 C3362 1.524 . S
C3366 H3378 0.956 . S
C3366 H3379 0.961 . S
C3366 H3380 0.961 . S
C3367 C3364 1.539 . S
C3367 H3381 0.958 . S
C3367 H3382 0.961 . S
C3367 H3383 0.960 . S
H3368 C3352 0.931 . S
H3369 C3357 0.929 . S
H3370 C3358 0.960 . S
H3371 C3358 0.962 . S
H3372 C3358 0.960 . S
H3373 C3359 0.961 . S
H3374 C3359 0.961 . S
H3375 C3359 0.961 . S
H3376 C3360 0.931 . S
H3377 C3365 0.930 . S
H3378 C3366 0.956 . S
H3379 C3366 0.961 . S
H3380 C3366 0.961 . S
H3381 C3367 0.958 . S
H3382 C3367 0.961 . S
H3383 C3367 0.960 . S
C3384 C3385 1.391 . S
C3384 C3386 1.394 . S
C3384 H3400 0.931 . S
C3385 C3384 1.391 . S
C3385 C3389 1.376 . S
C3386 C3384 1.394 . S
C3386 C3387 1.369 . S
C3386 C3390 1.531 . S
C3387 C3386 1.369 . S
C3387 C3388 1.410 . S
C3387 C3395 1.503 . S
C3388 C3387 1.410 . S
C3388 C3389 1.392 . S
C3388 C3391 1.511 . S
C3389 C3385 1.376 . S
C3389 C3388 1.392 . S
C3389 H3401 0.929 . S
C3390 C3386 1.531 . S
C3390 H3402 0.960 . S
C3390 H3403 0.962 . S
C3390 H3404 0.960 . S
C3391 C3388 1.511 . S
C3391 H3405 0.961 . S
C3391 H3406 0.961 . S
C3391 H3407 0.961 . S
C3392 C3393 1.370 . S
C3392 C3394 1.363 . S
C3392 H3408 0.931 . S
C3393 C3392 1.370 . S
C3393 C3397 1.408 . S
C3394 C3392 1.363 . S
C3394 C3395 1.370 . S
C3394 C3398 1.524 . S
C3395 C3387 1.503 . S
C3395 C3394 1.370 . S
C3395 C3396 1.403 . S
C3396 C3395 1.403 . S
C3396 C3397 1.404 . S
C3396 C3399 1.539 . S
C3397 C3393 1.408 . S
C3397 C3396 1.404 . S
C3397 H3409 0.930 . S
C3398 C3394 1.524 . S
C3398 H3410 0.956 . S
C3398 H3411 0.961 . S
C3398 H3412 0.961 . S
C3399 C3396 1.539 . S
C3399 H3413 0.958 . S
C3399 H3414 0.961 . S
C3399 H3415 0.960 . S
H3400 C3384 0.931 . S
H3401 C3389 0.929 . S
H3402 C3390 0.960 . S
H3403 C3390 0.962 . S
H3404 C3390 0.960 . S
H3405 C3391 0.961 . S
H3406 C3391 0.961 . S
H3407 C3391 0.961 . S
H3408 C3392 0.931 . S
H3409 C3397 0.930 . S
H3410 C3398 0.956 . S
H3411 C3398 0.961 . S
H3412 C3398 0.961 . S
H3413 C3399 0.958 . S
H3414 C3399 0.961 . S
H3415 C3399 0.960 . S
C3416 C3417 1.391 . S
C3416 C3418 1.394 . S
C3416 H3432 0.931 . S
C3417 C3416 1.391 . S
C3417 C3421 1.376 . S
C3418 C3416 1.394 . S
C3418 C3419 1.369 . S
C3418 C3422 1.531 . S
C3419 C3418 1.369 . S
C3419 C3420 1.410 . S
C3419 C3427 1.503 . S
C3420 C3419 1.410 . S
C3420 C3421 1.392 . S
C3420 C3423 1.511 . S
C3421 C3417 1.376 . S
C3421 C3420 1.392 . S
C3421 H3433 0.929 . S
C3422 C3418 1.531 . S
C3422 H3434 0.960 . S
C3422 H3435 0.962 . S
C3422 H3436 0.960 . S
C3423 C3420 1.511 . S
C3423 H3437 0.961 . S
C3423 H3438 0.961 . S
C3423 H3439 0.961 . S
C3424 C3425 1.370 . S
C3424 C3426 1.363 . S
C3424 H3440 0.931 . S
C3425 C3424 1.370 . S
C3425 C3429 1.408 . S
C3426 C3424 1.363 . S
C3426 C3427 1.370 . S
C3426 C3430 1.524 . S
C3427 C3419 1.503 . S
C3427 C3426 1.370 . S
C3427 C3428 1.403 . S
C3428 C3427 1.403 . S
C3428 C3429 1.404 . S
C3428 C3431 1.539 . S
C3429 C3425 1.408 . S
C3429 C3428 1.404 . S
C3429 H3441 0.930 . S
C3430 C3426 1.524 . S
C3430 H3442 0.956 . S
C3430 H3443 0.961 . S
C3430 H3444 0.961 . S
C3431 C3428 1.539 . S
C3431 H3445 0.958 . S
C3431 H3446 0.961 . S
C3431 H3447 0.960 . S
H3432 C3416 0.931 . S
H3433 C3421 0.929 . S
H3434 C3422 0.960 . S
H3435 C3422 0.962 . S
H3436 C3422 0.960 . S
H3437 C3423 0.961 . S
H3438 C3423 0.961 . S
H3439 C3423 0.961 . S
H3440 C3424 0.931 . S
H3441 C3429 0.930 . S
H3442 C3430 0.956 . S
H3443 C3430 0.961 . S
H3444 C3430 0.961 . S
H3445 C3431 0.958 . S
H3446 C3431 0.961 . S
H3447 C3431 0.960 . S
C3448 C3449 1.391 . S
C3448 C3450 1.394 . S
C3448 H3464 0.931 . S
C3449 C3448 1.391 . S
C3449 C3453 1.376 . S
C3450 C3448 1.394 . S
C3450 C3451 1.369 . S
C3450 C3454 1.531 . S
C3451 C3450 1.369 . S
C3451 C3452 1.410 . S
C3451 C3459 1.503 . S
C3452 C3451 1.410 . S
C3452 C3453 1.392 . S
C3452 C3455 1.511 . S
C3453 C3449 1.376 . S
C3453 C3452 1.392 . S
C3453 H3465 0.929 . S
C3454 C3450 1.531 . S
C3454 H3466 0.960 . S
C3454 H3467 0.962 . S
C3454 H3468 0.960 . S
C3455 C3452 1.511 . S
C3455 H3469 0.961 . S
C3455 H3470 0.961 . S
C3455 H3471 0.961 . S
C3456 C3457 1.370 . S
C3456 C3458 1.363 . S
C3456 H3472 0.931 . S
C3457 C3456 1.370 . S
C3457 C3461 1.408 . S
C3458 C3456 1.363 . S
C3458 C3459 1.370 . S
C3458 C3462 1.524 . S
C3459 C3451 1.503 . S
C3459 C3458 1.370 . S
C3459 C3460 1.403 . S
C3460 C3459 1.403 . S
C3460 C3461 1.404 . S
C3460 C3463 1.539 . S
C3461 C3457 1.408 . S
C3461 C3460 1.404 . S
C3461 H3473 0.930 . S
C3462 C3458 1.524 . S
C3462 H3474 0.956 . S
C3462 H3475 0.961 . S
C3462 H3476 0.961 . S
C3463 C3460 1.539 . S
C3463 H3477 0.958 . S
C3463 H3478 0.961 . S
C3463 H3479 0.960 . S
H3464 C3448 0.931 . S
H3465 C3453 0.929 . S
H3466 C3454 0.960 . S
H3467 C3454 0.962 . S
H3468 C3454 0.960 . S
H3469 C3455 0.961 . S
H3470 C3455 0.961 . S
H3471 C3455 0.961 . S
H3472 C3456 0.931 . S
H3473 C3461 0.930 . S
H3474 C3462 0.956 . S
H3475 C3462 0.961 . S
H3476 C3462 0.961 . S
H3477 C3463 0.958 . S
H3478 C3463 0.961 . S
H3479 C3463 0.960 . S
C3480 C3481 1.391 . S
C3480 C3482 1.394 . S
C3480 H3496 0.931 . S
C3481 C3480 1.391 . S
C3481 C3485 1.376 . S
C3482 C3480 1.394 . S
C3482 C3483 1.369 . S
C3482 C3486 1.531 . S
C3483 C3482 1.369 . S
C3483 C3484 1.410 . S
C3483 C3491 1.503 . S
C3484 C3483 1.410 . S
C3484 C3485 1.392 . S
C3484 C3487 1.511 . S
C3485 C3481 1.376 . S
C3485 C3484 1.392 . S
C3485 H3497 0.929 . S
C3486 C3482 1.531 . S
C3486 H3498 0.960 . S
C3486 H3499 0.962 . S
C3486 H3500 0.960 . S
C3487 C3484 1.511 . S
C3487 H3501 0.961 . S
C3487 H3502 0.961 . S
C3487 H3503 0.961 . S
C3488 C3489 1.370 . S
C3488 C3490 1.363 . S
C3488 H3504 0.931 . S
C3489 C3488 1.370 . S
C3489 C3493 1.408 . S
C3490 C3488 1.363 . S
C3490 C3491 1.370 . S
C3490 C3494 1.524 . S
C3491 C3483 1.503 . S
C3491 C3490 1.370 . S
C3491 C3492 1.403 . S
C3492 C3491 1.403 . S
C3492 C3493 1.404 . S
C3492 C3495 1.539 . S
C3493 C3489 1.408 . S
C3493 C3492 1.404 . S
C3493 H3505 0.930 . S
C3494 C3490 1.524 . S
C3494 H3506 0.956 . S
C3494 H3507 0.961 . S
C3494 H3508 0.961 . S
C3495 C3492 1.539 . S
C3495 H3509 0.958 . S
C3495 H3510 0.961 . S
C3495 H3511 0.960 . S
H3496 C3480 0.931 . S
H3497 C3485 0.929 . S
H3498 C3486 0.960 . S
H3499 C3486 0.962 . S
H3500 C3486 0.960 . S
H3501 C3487 0.961 . S
H3502 C3487 0.961 . S
H3503 C3487 0.961 . S
H3504 C3488 0.931 . S
H3505 C3493 0.930 . S
H3506 C3494 0.956 . S
H3507 C3494 0.961 . S
H3508 C3494 0.961 . S
H3509 C3495 0.958 . S
H3510 C3495 0.961 . S
H3511 C3495 0.960 . S
C3512 C3513 1.391 . S
C3512 C3514 1.394 . S
C3512 H3528 0.931 . S
C3513 C3512 1.391 . S
C3513 C3517 1.376 . S
C3514 C3512 1.394 . S
C3514 C3515 1.369 . S
C3514 C3518 1.531 . S
C3515 C3514 1.369 . S
C3515 C3516 1.410 . S
C3515 C3523 1.503 . S
C3516 C3515 1.410 . S
C3516 C3517 1.392 . S
C3516 C3519 1.511 . S
C3517 C3513 1.376 . S
C3517 C3516 1.392 . S
C3517 H3529 0.929 . S
C3518 C3514 1.531 . S
C3518 H3530 0.960 . S
C3518 H3531 0.962 . S
C3518 H3532 0.960 . S
C3519 C3516 1.511 . S
C3519 H3533 0.961 . S
C3519 H3534 0.961 . S
C3519 H3535 0.961 . S
C3520 C3521 1.370 . S
C3520 C3522 1.363 . S
C3520 H3536 0.931 . S
C3521 C3520 1.370 . S
C3521 C3525 1.408 . S
C3522 C3520 1.363 . S
C3522 C3523 1.370 . S
C3522 C3526 1.524 . S
C3523 C3515 1.503 . S
C3523 C3522 1.370 . S
C3523 C3524 1.403 . S
C3524 C3523 1.403 . S
C3524 C3525 1.404 . S
C3524 C3527 1.539 . S
C3525 C3521 1.408 . S
C3525 C3524 1.404 . S
C3525 H3537 0.930 . S
C3526 C3522 1.524 . S
C3526 H3538 0.956 . S
C3526 H3539 0.961 . S
C3526 H3540 0.961 . S
C3527 C3524 1.539 . S
C3527 H3541 0.958 . S
C3527 H3542 0.961 . S
C3527 H3543 0.960 . S
H3528 C3512 0.931 . S
H3529 C3517 0.929 . S
H3530 C3518 0.960 . S
H3531 C3518 0.962 . S
H3532 C3518 0.960 . S
H3533 C3519 0.961 . S
H3534 C3519 0.961 . S
H3535 C3519 0.961 . S
H3536 C3520 0.931 . S
H3537 C3525 0.930 . S
H3538 C3526 0.956 . S
H3539 C3526 0.961 . S
H3540 C3526 0.961 . S
H3541 C3527 0.958 . S
H3542 C3527 0.961 . S
H3543 C3527 0.960 . S
C3544 C3545 1.391 . S
C3544 C3546 1.394 . S
C3544 H3560 0.931 . S
C3545 C3544 1.391 . S
C3545 C3549 1.376 . S
C3546 C3544 1.394 . S
C3546 C3547 1.369 . S
C3546 C3550 1.531 . S
C3547 C3546 1.369 . S
C3547 C3548 1.410 . S
C3547 C3555 1.503 . S
C3548 C3547 1.410 . S
C3548 C3549 1.392 . S
C3548 C3551 1.511 . S
C3549 C3545 1.376 . S
C3549 C3548 1.392 . S
C3549 H3561 0.929 . S
C3550 C3546 1.531 . S
C3550 H3562 0.960 . S
C3550 H3563 0.962 . S
C3550 H3564 0.960 . S
C3551 C3548 1.511 . S
C3551 H3565 0.961 . S
C3551 H3566 0.961 . S
C3551 H3567 0.961 . S
C3552 C3553 1.370 . S
C3552 C3554 1.363 . S
C3552 H3568 0.931 . S
C3553 C3552 1.370 . S
C3553 C3557 1.408 . S
C3554 C3552 1.363 . S
C3554 C3555 1.370 . S
C3554 C3558 1.524 . S
C3555 C3547 1.503 . S
C3555 C3554 1.370 . S
C3555 C3556 1.403 . S
C3556 C3555 1.403 . S
C3556 C3557 1.404 . S
C3556 C3559 1.539 . S
C3557 C3553 1.408 . S
C3557 C3556 1.404 . S
C3557 H3569 0.930 . S
C3558 C3554 1.524 . S
C3558 H3570 0.956 . S
C3558 H3571 0.961 . S
C3558 H3572 0.961 . S
C3559 C3556 1.539 . S
C3559 H3573 0.958 . S
C3559 H3574 0.961 . S
C3559 H3575 0.960 . S
H3560 C3544 0.931 . S
H3561 C3549 0.929 . S
H3562 C3550 0.960 . S
H3563 C3550 0.962 . S
H3564 C3550 0.960 . S
H3565 C3551 0.961 . S
H3566 C3551 0.961 . S
H3567 C3551 0.961 . S
H3568 C3552 0.931 . S
H3569 C3557 0.930 . S
H3570 C3558 0.956 . S
H3571 C3558 0.961 . S
H3572 C3558 0.961 . S
H3573 C3559 0.958 . S
H3574 C3559 0.961 . S
H3575 C3559 0.960 . S
C3576 C3577 1.391 . S
C3576 C3578 1.394 . S
C3576 H3592 0.931 . S
C3577 C3576 1.391 . S
C3577 C3581 1.376 . S
C3578 C3576 1.394 . S
C3578 C3579 1.369 . S
C3578 C3582 1.531 . S
C3579 C3578 1.369 . S
C3579 C3580 1.410 . S
C3579 C3587 1.503 . S
C3580 C3579 1.410 . S
C3580 C3581 1.392 . S
C3580 C3583 1.511 . S
C3581 C3577 1.376 . S
C3581 C3580 1.392 . S
C3581 H3593 0.929 . S
C3582 C3578 1.531 . S
C3582 H3594 0.960 . S
C3582 H3595 0.962 . S
C3582 H3596 0.960 . S
C3583 C3580 1.511 . S
C3583 H3597 0.961 . S
C3583 H3598 0.961 . S
C3583 H3599 0.961 . S
C3584 C3585 1.363 1_655 S
C3584 C3586 1.384 . S
C3584 H3600 0.919 1_655 S
C3585 C3584 1.363 1_455 S
C3585 C3589 1.408 1_455 S
C3586 C3584 1.384 . S
C3586 C3587 1.370 . S
C3586 C3590 1.524 . S
C3587 C3579 1.503 . S
C3587 C3586 1.370 . S
C3587 C3588 1.403 . S
C3588 C3587 1.403 . S
C3588 C3589 1.404 . S
C3588 C3591 1.539 . S
C3589 C3585 1.408 1_655 S
C3589 C3588 1.404 . S
C3589 H3601 0.930 . S
C3590 C3586 1.524 . S
C3590 H3602 0.956 . S
C3590 H3603 0.961 . S
C3590 H3604 0.961 . S
C3591 C3588 1.539 . S
C3591 H3605 0.958 . S
C3591 H3606 0.961 . S
C3591 H3607 0.960 . S
H3592 C3576 0.931 . S
H3593 C3581 0.929 . S
H3594 C3582 0.960 . S
H3595 C3582 0.962 . S
H3596 C3582 0.960 . S
H3597 C3583 0.961 . S
H3598 C3583 0.961 . S
H3599 C3583 0.961 . S
H3600 C3584 0.919 1_455 S
H3601 C3589 0.930 . S
H3602 C3590 0.956 . S
H3603 C3590 0.961 . S
H3604 C3590 0.961 . S
H3605 C3591 0.958 . S
H3606 C3591 0.961 . S
H3607 C3591 0.960 . S
C3608 C3609 1.391 . S
C3608 C3610 1.394 . S
C3608 H3624 0.931 . S
C3609 C3608 1.391 . S
C3609 C3613 1.376 . S
C3610 C3608 1.394 . S
C3610 C3611 1.369 . S
C3610 C3614 1.531 . S
C3611 C3610 1.369 . S
C3611 C3612 1.410 . S
C3611 C3619 1.503 . S
C3612 C3611 1.410 . S
C3612 C3613 1.392 . S
C3612 C3615 1.511 . S
C3613 C3609 1.376 . S
C3613 C3612 1.392 . S
C3613 H3625 0.929 . S
C3614 C3610 1.531 . S
C3614 H3626 0.960 . S
C3614 H3627 0.962 . S
C3614 H3628 0.960 . S
C3615 C3612 1.511 . S
C3615 H3629 0.961 . S
C3615 H3630 0.961 . S
C3615 H3631 0.961 . S
C3616 C3617 1.370 . S
C3616 C3618 1.363 . S
C3616 H3632 0.931 . S
C3617 C3616 1.370 . S
C3617 C3621 1.408 . S
C3618 C3616 1.363 . S
C3618 C3619 1.370 . S
C3618 C3622 1.524 . S
C3619 C3611 1.503 . S
C3619 C3618 1.370 . S
C3619 C3620 1.403 . S
C3620 C3619 1.403 . S
C3620 C3621 1.404 . S
C3620 C3623 1.539 . S
C3621 C3617 1.408 . S
C3621 C3620 1.404 . S
C3621 H3633 0.930 . S
C3622 C3618 1.524 . S
C3622 H3634 0.956 . S
C3622 H3635 0.961 . S
C3622 H3636 0.961 . S
C3623 C3620 1.539 . S
C3623 H3637 0.958 . S
C3623 H3638 0.961 . S
C3623 H3639 0.960 . S
H3624 C3608 0.931 . S
H3625 C3613 0.929 . S
H3626 C3614 0.960 . S
H3627 C3614 0.962 . S
H3628 C3614 0.960 . S
H3629 C3615 0.961 . S
H3630 C3615 0.961 . S
H3631 C3615 0.961 . S
H3632 C3616 0.931 . S
H3633 C3621 0.930 . S
H3634 C3622 0.956 . S
H3635 C3622 0.961 . S
H3636 C3622 0.961 . S
H3637 C3623 0.958 . S
H3638 C3623 0.961 . S
H3639 C3623 0.960 . S
C3640 C3641 1.391 . S
C3640 C3642 1.394 . S
C3640 H3656 0.931 . S
C3641 C3640 1.391 . S
C3641 C3645 1.376 . S
C3642 C3640 1.394 . S
C3642 C3643 1.369 . S
C3642 C3646 1.531 . S
C3643 C3642 1.369 . S
C3643 C3644 1.410 . S
C3643 C3651 1.503 . S
C3644 C3643 1.410 . S
C3644 C3645 1.392 . S
C3644 C3647 1.511 . S
C3645 C3641 1.376 . S
C3645 C3644 1.392 . S
C3645 H3657 0.929 . S
C3646 C3642 1.531 . S
C3646 H3658 0.960 . S
C3646 H3659 0.962 . S
C3646 H3660 0.960 . S
C3647 C3644 1.511 . S
C3647 H3661 0.961 . S
C3647 H3662 0.961 . S
C3647 H3663 0.961 . S
C3648 C3649 1.370 . S
C3648 C3650 1.363 . S
C3648 H3664 0.931 . S
C3649 C3648 1.370 . S
C3649 C3653 1.408 . S
C3650 C3648 1.363 . S
C3650 C3651 1.370 . S
C3650 C3654 1.524 . S
C3651 C3643 1.503 . S
C3651 C3650 1.370 . S
C3651 C3652 1.403 . S
C3652 C3651 1.403 . S
C3652 C3653 1.404 . S
C3652 C3655 1.539 . S
C3653 C3649 1.408 . S
C3653 C3652 1.404 . S
C3653 H3665 0.930 . S
C3654 C3650 1.524 . S
C3654 H3666 0.956 . S
C3654 H3667 0.961 . S
C3654 H3668 0.961 . S
C3655 C3652 1.539 . S
C3655 H3669 0.958 . S
C3655 H3670 0.961 . S
C3655 H3671 0.960 . S
H3656 C3640 0.931 . S
H3657 C3645 0.929 . S
H3658 C3646 0.960 . S
H3659 C3646 0.962 . S
H3660 C3646 0.960 . S
H3661 C3647 0.961 . S
H3662 C3647 0.961 . S
H3663 C3647 0.961 . S
H3664 C3648 0.931 . S
H3665 C3653 0.930 . S
H3666 C3654 0.956 . S
H3667 C3654 0.961 . S
H3668 C3654 0.961 . S
H3669 C3655 0.958 . S
H3670 C3655 0.961 . S
H3671 C3655 0.960 . S
C3672 C3673 1.391 . S
C3672 C3674 1.394 . S
C3672 H3688 0.931 . S
C3673 C3672 1.391 . S
C3673 C3677 1.376 . S
C3674 C3672 1.394 . S
C3674 C3675 1.369 . S
C3674 C3678 1.531 . S
C3675 C3674 1.369 . S
C3675 C3676 1.410 . S
C3675 C3683 1.503 . S
C3676 C3675 1.410 . S
C3676 C3677 1.392 . S
C3676 C3679 1.511 . S
C3677 C3673 1.376 . S
C3677 C3676 1.392 . S
C3677 H3689 0.929 . S
C3678 C3674 1.531 . S
C3678 H3690 0.960 . S
C3678 H3691 0.962 . S
C3678 H3692 0.960 . S
C3679 C3676 1.511 . S
C3679 H3693 0.961 . S
C3679 H3694 0.961 . S
C3679 H3695 0.961 . S
C3680 C3681 1.370 . S
C3680 C3682 1.363 . S
C3680 H3696 0.931 . S
C3681 C3680 1.370 . S
C3681 C3685 1.408 . S
C3682 C3680 1.363 . S
C3682 C3683 1.370 . S
C3682 C3686 1.524 . S
C3683 C3675 1.503 . S
C3683 C3682 1.370 . S
C3683 C3684 1.403 . S
C3684 C3683 1.403 . S
C3684 C3685 1.404 . S
C3684 C3687 1.539 . S
C3685 C3681 1.408 . S
C3685 C3684 1.404 . S
C3685 H3697 0.930 . S
C3686 C3682 1.524 . S
C3686 H3698 0.956 . S
C3686 H3699 0.961 . S
C3686 H3700 0.961 . S
C3687 C3684 1.539 . S
C3687 H3701 0.958 . S
C3687 H3702 0.961 . S
C3687 H3703 0.960 . S
H3688 C3672 0.931 . S
H3689 C3677 0.929 . S
H3690 C3678 0.960 . S
H3691 C3678 0.962 . S
H3692 C3678 0.960 . S
H3693 C3679 0.961 . S
H3694 C3679 0.961 . S
H3695 C3679 0.961 . S
H3696 C3680 0.931 . S
H3697 C3685 0.930 . S
H3698 C3686 0.956 . S
H3699 C3686 0.961 . S
H3700 C3686 0.961 . S
H3701 C3687 0.958 . S
H3702 C3687 0.961 . S
H3703 C3687 0.960 . S
C3704 C3705 1.391 . S
C3704 C3706 1.394 . S
C3704 H3720 0.931 . S
C3705 C3704 1.391 . S
C3705 C3709 1.376 . S
C3706 C3704 1.394 . S
C3706 C3707 1.369 . S
C3706 C3710 1.531 . S
C3707 C3706 1.369 . S
C3707 C3708 1.410 . S
C3707 C3715 1.503 . S
C3708 C3707 1.410 . S
C3708 C3709 1.392 . S
C3708 C3711 1.511 . S
C3709 C3705 1.376 . S
C3709 C3708 1.392 . S
C3709 H3721 0.929 . S
C3710 C3706 1.531 . S
C3710 H3722 0.960 . S
C3710 H3723 0.962 . S
C3710 H3724 0.960 . S
C3711 C3708 1.511 . S
C3711 H3725 0.961 . S
C3711 H3726 0.961 . S
C3711 H3727 0.961 . S
C3712 C3713 1.370 . S
C3712 C3714 1.363 . S
C3712 H3728 0.931 . S
C3713 C3712 1.370 . S
C3713 C3717 1.408 . S
C3714 C3712 1.363 . S
C3714 C3715 1.370 . S
C3714 C3718 1.524 . S
C3715 C3707 1.503 . S
C3715 C3714 1.370 . S
C3715 C3716 1.403 . S
C3716 C3715 1.403 . S
C3716 C3717 1.404 . S
C3716 C3719 1.539 . S
C3717 C3713 1.408 . S
C3717 C3716 1.404 . S
C3717 H3729 0.930 . S
C3718 C3714 1.524 . S
C3718 H3730 0.956 . S
C3718 H3731 0.961 . S
C3718 H3732 0.961 . S
C3719 C3716 1.539 . S
C3719 H3733 0.958 . S
C3719 H3734 0.961 . S
C3719 H3735 0.960 . S
H3720 C3704 0.931 . S
H3721 C3709 0.929 . S
H3722 C3710 0.960 . S
H3723 C3710 0.962 . S
H3724 C3710 0.960 . S
H3725 C3711 0.961 . S
H3726 C3711 0.961 . S
H3727 C3711 0.961 . S
H3728 C3712 0.931 . S
H3729 C3717 0.930 . S
H3730 C3718 0.956 . S
H3731 C3718 0.961 . S
H3732 C3718 0.961 . S
H3733 C3719 0.958 . S
H3734 C3719 0.961 . S
H3735 C3719 0.960 . S
C3736 C3737 1.391 . S
C3736 C3738 1.394 . S
C3736 H3752 0.931 . S
C3737 C3736 1.391 . S
C3737 C3741 1.376 . S
C3738 C3736 1.394 . S
C3738 C3739 1.369 . S
C3738 C3742 1.531 . S
C3739 C3738 1.369 . S
C3739 C3740 1.410 . S
C3739 C3747 1.503 . S
C3740 C3739 1.410 . S
C3740 C3741 1.392 . S
C3740 C3743 1.511 . S
C3741 C3737 1.376 . S
C3741 C3740 1.392 . S
C3741 H3753 0.929 . S
C3742 C3738 1.531 . S
C3742 H3754 0.960 . S
C3742 H3755 0.962 . S
C3742 H3756 0.960 . S
C3743 C3740 1.511 . S
C3743 H3757 0.961 . S
C3743 H3758 0.961 . S
C3743 H3759 0.961 . S
C3744 C3745 1.370 . S
C3744 C3746 1.363 . S
C3744 H3760 0.931 . S
C3745 C3744 1.370 . S
C3745 C3749 1.408 . S
C3746 C3744 1.363 . S
C3746 C3747 1.370 . S
C3746 C3750 1.524 . S
C3747 C3739 1.503 . S
C3747 C3746 1.370 . S
C3747 C3748 1.403 . S
C3748 C3747 1.403 . S
C3748 C3749 1.404 . S
C3748 C3751 1.539 . S
C3749 C3745 1.408 . S
C3749 C3748 1.404 . S
C3749 H3761 0.930 . S
C3750 C3746 1.524 . S
C3750 H3762 0.956 . S
C3750 H3763 0.961 . S
C3750 H3764 0.961 . S
C3751 C3748 1.539 . S
C3751 H3765 0.958 . S
C3751 H3766 0.961 . S
C3751 H3767 0.960 . S
H3752 C3736 0.931 . S
H3753 C3741 0.929 . S
H3754 C3742 0.960 . S
H3755 C3742 0.962 . S
H3756 C3742 0.960 . S
H3757 C3743 0.961 . S
H3758 C3743 0.961 . S
H3759 C3743 0.961 . S
H3760 C3744 0.931 . S
H3761 C3749 0.930 . S
H3762 C3750 0.956 . S
H3763 C3750 0.961 . S
H3764 C3750 0.961 . S
H3765 C3751 0.958 . S
H3766 C3751 0.961 . S
H3767 C3751 0.960 . S
C3768 C3769 1.391 . S
C3768 C3770 1.394 . S
C3768 H3784 0.931 . S
C3769 C3768 1.391 . S
C3769 C3773 1.376 . S
C3770 C3768 1.394 . S
C3770 C3771 1.369 . S
C3770 C3774 1.531 . S
C3771 C3770 1.369 . S
C3771 C3772 1.410 . S
C3771 C3779 1.503 . S
C3772 C3771 1.410 . S
C3772 C3773 1.392 . S
C3772 C3775 1.511 . S
C3773 C3769 1.376 . S
C3773 C3772 1.392 . S
C3773 H3785 0.929 . S
C3774 C3770 1.531 . S
C3774 H3786 0.960 . S
C3774 H3787 0.962 . S
C3774 H3788 0.960 . S
C3775 C3772 1.511 . S
C3775 H3789 0.961 . S
C3775 H3790 0.961 . S
C3775 H3791 0.961 . S
C3776 C3777 1.370 . S
C3776 C3778 1.363 . S
C3776 H3792 0.931 . S
C3777 C3776 1.370 . S
C3777 C3781 1.408 . S
C3778 C3776 1.363 . S
C3778 C3779 1.370 . S
C3778 C3782 1.524 . S
C3779 C3771 1.503 . S
C3779 C3778 1.370 . S
C3779 C3780 1.403 . S
C3780 C3779 1.403 . S
C3780 C3781 1.404 . S
C3780 C3783 1.539 . S
C3781 C3777 1.408 . S
C3781 C3780 1.404 . S
C3781 H3793 0.930 . S
C3782 C3778 1.524 . S
C3782 H3794 0.956 . S
C3782 H3795 0.961 . S
C3782 H3796 0.961 . S
C3783 C3780 1.539 . S
C3783 H3797 0.958 . S
C3783 H3798 0.961 . S
C3783 H3799 0.960 . S
H3784 C3768 0.931 . S
H3785 C3773 0.929 . S
H3786 C3774 0.960 . S
H3787 C3774 0.962 . S
H3788 C3774 0.960 . S
H3789 C3775 0.961 . S
H3790 C3775 0.961 . S
H3791 C3775 0.961 . S
H3792 C3776 0.931 . S
H3793 C3781 0.930 . S
H3794 C3782 0.956 . S
H3795 C3782 0.961 . S
H3796 C3782 0.961 . S
H3797 C3783 0.958 . S
H3798 C3783 0.961 . S
H3799 C3783 0.960 . S
C3800 C3801 1.391 . S
C3800 C3802 1.394 . S
C3800 H3816 0.931 . S
C3801 C3800 1.391 . S
C3801 C3805 1.376 . S
C3802 C3800 1.394 . S
C3802 C3803 1.369 . S
C3802 C3806 1.531 . S
C3803 C3802 1.369 . S
C3803 C3804 1.410 . S
C3803 C3811 1.503 . S
C3804 C3803 1.410 . S
C3804 C3805 1.392 . S
C3804 C3807 1.511 . S
C3805 C3801 1.376 . S
C3805 C3804 1.392 . S
C3805 H3817 0.929 . S
C3806 C3802 1.531 . S
C3806 H3818 0.964 . S
C3806 H3819 0.962 . S
C3806 H3820 0.960 . S
C3807 C3804 1.511 . S
C3807 H3821 0.961 . S
C3807 H3822 0.961 . S
C3807 H3823 0.961 . S
C3808 C3809 1.370 1_565 S
C3808 C3810 1.363 . S
C3808 H3824 0.931 . S
C3809 C3808 1.370 1_545 S
C3809 C3813 1.408 . S
C3810 C3808 1.363 . S
C3810 C3811 1.370 . S
C3810 C3814 1.524 . S
C3811 C3803 1.503 . S
C3811 C3810 1.370 . S
C3811 C3812 1.403 . S
C3812 C3811 1.403 . S
C3812 C3813 1.404 1_565 S
C3812 C3815 1.539 . S
C3813 C3809 1.408 . S
C3813 C3812 1.404 1_545 S
C3813 H3825 0.930 . S
C3814 C3810 1.524 . S
C3814 H3826 0.956 . S
C3814 H3827 0.961 . S
C3814 H3828 0.961 . S
C3815 C3812 1.539 . S
C3815 H3829 0.958 . S
C3815 H3830 0.961 . S
C3815 H3831 0.960 . S
H3816 C3800 0.931 . S
H3817 C3805 0.929 . S
H3818 C3806 0.964 . S
H3819 C3806 0.962 . S
H3820 C3806 0.960 . S
H3821 C3807 0.961 . S
H3822 C3807 0.961 . S
H3823 C3807 0.961 . S
H3824 C3808 0.931 . S
H3825 C3813 0.930 . S
H3826 C3814 0.956 . S
H3827 C3814 0.961 . S
H3828 C3814 0.961 . S
H3829 C3815 0.958 . S
H3830 C3815 0.961 . S
H3831 C3815 0.960 . S
C3832 C3833 1.391 . S
C3832 C3834 1.394 . S
C3832 H3848 0.931 . S
C3833 C3832 1.391 . S
C3833 C3837 1.376 . S
C3834 C3832 1.394 . S
C3834 C3835 1.369 . S
C3834 C3838 1.531 . S
C3835 C3834 1.369 . S
C3835 C3836 1.410 . S
C3835 C3843 1.503 . S
C3836 C3835 1.410 . S
C3836 C3837 1.392 . S
C3836 C3839 1.511 . S
C3837 C3833 1.376 . S
C3837 C3836 1.392 . S
C3837 H3849 0.929 . S
C3838 C3834 1.531 . S
C3838 H3850 0.960 . S
C3838 H3851 0.962 . S
C3838 H3852 0.960 . S
C3839 C3836 1.511 . S
C3839 H3853 0.961 . S
C3839 H3854 0.961 . S
C3839 H3855 0.961 . S
C3840 C3841 1.370 . S
C3840 C3842 1.363 . S
C3840 H3856 0.931 . S
C3841 C3840 1.370 . S
C3841 C3845 1.408 . S
C3842 C3840 1.363 . S
C3842 C3843 1.370 . S
C3842 C3846 1.524 . S
C3843 C3835 1.503 . S
C3843 C3842 1.370 . S
C3843 C3844 1.403 . S
C3844 C3843 1.403 . S
C3844 C3845 1.404 . S
C3844 C3847 1.539 . S
C3845 C3841 1.408 . S
C3845 C3844 1.404 . S
C3845 H3857 0.930 . S
C3846 C3842 1.524 . S
C3846 H3858 0.956 . S
C3846 H3859 0.961 . S
C3846 H3860 0.961 . S
C3847 C3844 1.539 . S
C3847 H3861 0.958 . S
C3847 H3862 0.961 . S
C3847 H3863 0.960 . S
H3848 C3832 0.931 . S
H3849 C3837 0.929 . S
H3850 C3838 0.960 . S
H3851 C3838 0.962 . S
H3852 C3838 0.960 . S
H3853 C3839 0.961 . S
H3854 C3839 0.961 . S
H3855 C3839 0.961 . S
H3856 C3840 0.931 . S
H3857 C3845 0.930 . S
H3858 C3846 0.956 . S
H3859 C3846 0.961 . S
H3860 C3846 0.961 . S
H3861 C3847 0.958 . S
H3862 C3847 0.961 . S
H3863 C3847 0.960 . S
C3864 C3865 1.391 . S
C3864 C3866 1.394 . S
C3864 H3880 0.931 . S
C3865 C3864 1.391 . S
C3865 C3869 1.376 . S
C3866 C3864 1.394 . S
C3866 C3867 1.369 . S
C3866 C3870 1.531 . S
C3867 C3866 1.369 . S
C3867 C3868 1.410 . S
C3867 C3875 1.503 . S
C3868 C3867 1.410 . S
C3868 C3869 1.392 . S
C3868 C3871 1.511 . S
C3869 C3865 1.376 . S
C3869 C3868 1.392 . S
C3869 H3881 0.929 . S
C3870 C3866 1.531 . S
C3870 H3882 0.960 . S
C3870 H3883 0.962 . S
C3870 H3884 0.960 . S
C3871 C3868 1.511 . S
C3871 H3885 0.961 . S
C3871 H3886 0.961 . S
C3871 H3887 0.961 . S
C3872 C3873 1.370 . S
C3872 C3874 1.363 . S
C3872 H3888 0.931 . S
C3873 C3872 1.370 . S
C3873 C3877 1.408 . S
C3874 C3872 1.363 . S
C3874 C3875 1.370 . S
C3874 C3878 1.524 . S
C3875 C3867 1.503 . S
C3875 C3874 1.370 . S
C3875 C3876 1.403 . S
C3876 C3875 1.403 . S
C3876 C3877 1.404 . S
C3876 C3879 1.539 . S
C3877 C3873 1.408 . S
C3877 C3876 1.404 . S
C3877 H3889 0.930 . S
C3878 C3874 1.524 . S
C3878 H3890 0.956 . S
C3878 H3891 0.961 . S
C3878 H3892 0.961 . S
C3879 C3876 1.539 . S
C3879 H3893 0.958 . S
C3879 H3894 0.961 1_554 S
C3879 H3895 0.960 . S
H3880 C3864 0.931 . S
H3881 C3869 0.929 . S
H3882 C3870 0.960 . S
H3883 C3870 0.962 . S
H3884 C3870 0.960 . S
H3885 C3871 0.961 . S
H3886 C3871 0.961 . S
H3887 C3871 0.961 . S
H3888 C3872 0.931 . S
H3889 C3877 0.930 . S
H3890 C3878 0.956 . S
H3891 C3878 0.961 . S
H3892 C3878 0.961 . S
H3893 C3879 0.958 . S
H3894 C3879 0.961 1_556 S
H3895 C3879 0.960 . S
C3896 C3897 1.391 . S
C3896 C3898 1.394 . S
C3896 H3912 0.931 . S
C3897 C3896 1.391 . S
C3897 C3901 1.376 . S
C3898 C3896 1.394 . S
C3898 C3899 1.369 . S
C3898 C3902 1.531 . S
C3899 C3898 1.369 . S
C3899 C3900 1.410 . S
C3899 C3907 1.503 . S
C3900 C3899 1.410 . S
C3900 C3901 1.392 . S
C3900 C3903 1.511 . S
C3901 C3897 1.376 . S
C3901 C3900 1.392 . S
C3901 H3913 0.929 . S
C3902 C3898 1.531 . S
C3902 H3914 0.960 . S
C3902 H3915 0.962 . S
C3902 H3916 0.960 . S
C3903 C3900 1.511 . S
C3903 H3917 0.961 . S
C3903 H3918 0.961 . S
C3903 H3919 0.961 . S
C3904 C3905 1.370 . S
C3904 C3906 1.363 . S
C3904 H3920 0.931 . S
C3905 C3904 1.370 . S
C3905 C3909 1.408 . S
C3906 C3904 1.363 . S
C3906 C3907 1.370 . S
C3906 C3910 1.524 . S
C3907 C3899 1.503 . S
C3907 C3906 1.370 . S
C3907 C3908 1.403 . S
C3908 C3907 1.403 . S
C3908 C3909 1.404 . S
C3908 C3911 1.539 . S
C3909 C3905 1.408 . S
C3909 C3908 1.404 . S
C3909 H3921 0.930 . S
C3910 C3906 1.524 . S
C3910 H3922 0.956 . S
C3910 H3923 0.961 . S
C3910 H3924 0.961 . S
C3911 C3908 1.539 . S
C3911 H3925 0.958 . S
C3911 H3926 0.961 . S
C3911 H3927 0.960 . S
H3912 C3896 0.931 . S
H3913 C3901 0.929 . S
H3914 C3902 0.960 . S
H3915 C3902 0.962 . S
H3916 C3902 0.960 . S
H3917 C3903 0.961 . S
H3918 C3903 0.961 . S
H3919 C3903 0.961 . S
H3920 C3904 0.931 . S
H3921 C3909 0.930 . S
H3922 C3910 0.956 . S
H3923 C3910 0.961 . S
H3924 C3910 0.961 . S
H3925 C3911 0.958 . S
H3926 C3911 0.961 . S
H3927 C3911 0.960 . S
C3928 C3929 1.391 . S
C3928 C3930 1.394 . S
C3928 H3944 0.931 . S
C3929 C3928 1.391 . S
C3929 C3933 1.376 . S
C3930 C3928 1.394 . S
C3930 C3931 1.369 . S
C3930 C3934 1.531 1_554 S
C3931 C3930 1.369 . S
C3931 C3932 1.410 . S
C3931 C3939 1.503 . S
C3932 C3931 1.410 . S
C3932 C3933 1.392 . S
C3932 C3935 1.511 . S
C3933 C3929 1.376 . S
C3933 C3932 1.392 . S
C3933 H3945 0.929 . S
C3934 C3930 1.531 1_556 S
C3934 H3946 0.960 . S
C3934 H3947 0.962 . S
C3934 H3948 0.960 . S
C3935 C3932 1.511 . S
C3935 H3949 0.961 . S
C3935 H3950 0.961 . S
C3935 H3951 0.961 . S
C3936 C3937 1.370 1_554 S
C3936 C3938 1.363 . S
C3936 H3952 0.931 . S
C3937 C3936 1.370 1_556 S
C3937 C3941 1.408 . S
C3938 C3936 1.363 . S
C3938 C3939 1.370 . S
C3938 C3942 1.524 . S
C3939 C3931 1.503 . S
C3939 C3938 1.370 . S
C3939 C3940 1.403 1_554 S
C3940 C3939 1.403 1_556 S
C3940 C3941 1.404 . S
C3940 C3943 1.539 . S
C3941 C3937 1.408 . S
C3941 C3940 1.404 . S
C3941 H3953 0.930 . S
C3942 C3938 1.524 . S
C3942 H3954 0.956 . S
C3942 H3955 0.961 . S
C3942 H3956 0.961 . S
C3943 C3940 1.539 . S
C3943 H3957 0.958 . S
C3943 H3958 0.961 . S
C3943 H3959 0.960 . S
H3944 C3928 0.931 . S
H3945 C3933 0.929 . S
H3946 C3934 0.960 . S
H3947 C3934 0.962 . S
H3948 C3934 0.960 . S
H3949 C3935 0.961 . S
H3950 C3935 0.961 . S
H3951 C3935 0.961 . S
H3952 C3936 0.931 . S
H3953 C3941 0.930 . S
H3954 C3942 0.956 . S
H3955 C3942 0.961 . S
H3956 C3942 0.961 . S
H3957 C3943 0.958 . S
H3958 C3943 0.961 . S
H3959 C3943 0.960 . S
C3960 C3961 1.391 . S
C3960 C3962 1.394 . S
C3960 H3976 0.931 . S
C3961 C3960 1.391 . S
C3961 C3965 1.376 . S
C3962 C3960 1.394 . S
C3962 C3963 1.369 . S
C3962 C3966 1.531 . S
C3963 C3962 1.369 . S
C3963 C3964 1.410 . S
C3963 C3971 1.503 . S
C3964 C3963 1.410 . S
C3964 C3965 1.392 . S
C3964 C3967 1.511 . S
C3965 C3961 1.376 . S
C3965 C3964 1.392 . S
C3965 H3977 0.929 . S
C3966 C3962 1.531 . S
C3966 H3978 0.960 . S
C3966 H3979 0.962 . S
C3966 H3980 0.960 . S
C3967 C3964 1.511 . S
C3967 H3981 0.961 . S
C3967 H3982 0.961 . S
C3967 H3983 0.961 . S
C3968 C3969 1.370 . S
C3968 C3970 1.363 . S
C3968 H3984 0.931 . S
C3969 C3968 1.370 . S
C3969 C3973 1.408 . S
C3970 C3968 1.363 . S
C3970 C3971 1.370 . S
C3970 C3974 1.524 . S
C3971 C3963 1.503 . S
C3971 C3970 1.370 . S
C3971 C3972 1.403 . S
C3972 C3971 1.403 . S
C3972 C3973 1.404 . S
C3972 C3975 1.539 . S
C3973 C3969 1.408 . S
C3973 C3972 1.404 . S
C3973 H3985 0.930 . S
C3974 C3970 1.524 . S
C3974 H3986 0.956 . S
C3974 H3987 0.961 . S
C3974 H3988 0.961 . S
C3975 C3972 1.539 . S
C3975 H3989 0.958 . S
C3975 H3990 0.961 . S
C3975 H3991 0.960 . S
H3976 C3960 0.931 . S
H3977 C3965 0.929 . S
H3978 C3966 0.960 . S
H3979 C3966 0.962 . S
H3980 C3966 0.960 . S
H3981 C3967 0.961 . S
H3982 C3967 0.961 . S
H3983 C3967 0.961 . S
H3984 C3968 0.931 . S
H3985 C3973 0.930 . S
H3986 C3974 0.956 . S
H3987 C3974 0.961 . S
H3988 C3974 0.961 . S
H3989 C3975 0.958 . S
H3990 C3975 0.961 . S
H3991 C3975 0.960 . S
C3992 C3993 1.391 . S
C3992 C3994 1.394 . S
C3992 H4008 0.931 . S
C3993 C3992 1.391 . S
C3993 C3997 1.376 . S
C3994 C3992 1.394 . S
C3994 C3995 1.369 . S
C3994 C3998 1.531 . S
C3995 C3994 1.369 . S
C3995 C3996 1.410 . S
C3995 C4003 1.503 . S
C3996 C3995 1.410 . S
C3996 C3997 1.392 . S
C3996 C3999 1.511 . S
C3997 C3993 1.376 . S
C3997 C3996 1.392 . S
C3997 H4009 0.929 . S
C3998 C3994 1.531 . S
C3998 H4010 0.960 . S
C3998 H4011 0.962 . S
C3998 H4012 0.960 . S
C3999 C3996 1.511 . S
C3999 H4013 0.961 . S
C3999 H4014 0.961 . S
C3999 H4015 0.961 . S
C4000 C4001 1.370 . S
C4000 C4002 1.363 . S
C4000 H4016 0.931 . S
C4001 C4000 1.370 . S
C4001 C4005 1.408 . S
C4002 C4000 1.363 . S
C4002 C4003 1.370 . S
C4002 C4006 1.524 . S
C4003 C3995 1.503 . S
C4003 C4002 1.370 . S
C4003 C4004 1.403 . S
C4004 C4003 1.403 . S
C4004 C4005 1.404 . S
C4004 C4007 1.539 . S
C4005 C4001 1.408 . S
C4005 C4004 1.404 . S
C4005 H4017 0.930 . S
C4006 C4002 1.524 . S
C4006 H4018 0.956 . S
C4006 H4019 0.961 . S
C4006 H4020 0.961 . S
C4007 C4004 1.539 . S
C4007 H4021 0.958 . S
C4007 H4022 0.961 . S
C4007 H4023 0.960 . S
H4008 C3992 0.931 . S
H4009 C3997 0.929 . S
H4010 C3998 0.960 . S
H4011 C3998 0.962 . S
H4012 C3998 0.960 . S
H4013 C3999 0.961 . S
H4014 C3999 0.961 . S
H4015 C3999 0.961 . S
H4016 C4000 0.931 . S
H4017 C4005 0.930 . S
H4018 C4006 0.956 . S
H4019 C4006 0.961 . S
H4020 C4006 0.961 . S
H4021 C4007 0.958 . S
H4022 C4007 0.961 . S
H4023 C4007 0.960 . S
C953 C101 2.265 . S
C961 C325 2.258 . S
C985 C57 2.048 . S
C993 C376 2.078 . S
C1017 C73 1.589 . S
C1025 C405 1.723 . S
C1057 C449 1.409 . S
C1049 C78 1.373 . S
C1081 C21 1.357 . S
C1089 C489 1.360 . S
C1121 C525 1.673 . S
C1113 C31 1.584 . S
C1153 C575 1.875 . S
C1145 C49 1.835 . S
C1177 C0 2.192 . S
C1185 C605 2.291 . S
C1217 C335 1.924 . S
C1209 C218 1.957 . S
C1241 C229 0.615 . S
C1249 C378 0.605 . S
C1281 C415 1.222 . S
C1273 C257 1.200 . S
C1313 C445 1.433 . S
C1305 C164 1.381 . S
C1337 C216 1.393 . S
C1345 C485 1.454 . S
C1377 C535 0.905 . S
C1369 C231 0.914 . S
C1409 C569 0.840 . S
C1401 C255 0.766 . S
C1441 C615 1.901 . S
C1433 C166 1.919 . S
C1473 C329 1.068 . S
C1465 C143 1.055 1_556 S
C1497 C265 1.687 . S
C1505 C655 1.712 . S
C1537 C689 1.346 . S
C1529 C299 1.370 . S
C1569 C725 0.829 . S
C1561 C291 0.783 . S
C1593 C104 1.270 . S
C1601 C609 1.268 . S
C1625 C117 1.450 . S
C1633 C409 1.434 . S
C1657 C304 1.572 . S
C1665 C775 1.572 . S
C1697 C794 0.194 . S
C1689 C278 0.305 . S
C1729 C336 2.206 . S
C1721 C60 2.210 . S
C1761 C805 1.975 . S
C1753 C96 1.989 . S
C1785 C88 1.605 . S
C1793 C416 1.597 . S
C1817 C65 1.393 . S
C1825 C778 1.339 . S
C1857 C498 1.294 . S
C1849 C10 1.350 . S
C1881 C44 1.503 . S
C1889 C696 1.573 . S
C1921 C554 1.795 1_556 S
C1913 C34 1.711 . S
C1953 C856 2.221 . S
C1945 C13 2.216 . S
C1985 C314 1.847 . S
C1977 C138 1.826 . S
C2017 C809 0.543 . S
C2009 C296 0.604 . S
C2041 C112 1.124 . S
C2049 C394 1.144 . S
C2073 C270 1.330 . S
C2081 C776 1.331 . S
C2105 C140 1.360 . S
C2113 C496 1.348 . S
C2145 C674 0.818 . S
C2137 C294 0.834 . S
C2169 C114 0.790 . S
C2177 C578 0.756 . S
C2201 C268 1.813 . S
C2209 C834 1.815 . S
C2233 C169 1.166 . S
C2241 C338 1.108 . S
C2265 C161 1.625 . S
C2273 C634 1.636 . S
C2297 C234 1.435 . S
C2305 C538 1.371 . S
C2329 C226 0.806 . S
C2337 C736 0.786 . S
C2369 C858 1.258 . S
C2361 C247 1.316 . S
C2393 C195 1.508 . S
C2401 C418 1.420 . S
C2433 C434 1.484 . S
C2425 C239 1.497 . S
C2465 C375 0.170 . S
C2457 C187 0.362 . S
C2489 C75 2.252 . S
C2497 C885 2.258 . S
C2529 C816 2.076 . S
C2521 C83 2.038 . S
C2553 C99 1.640 1_554 S
C2561 C925 1.727 . S
C2585 C52 1.344 1_655 S
C2593 C769 1.409 . S
C2617 C47 1.332 . S
C2625 C649 1.375 . S
C2657 C685 1.674 . S
C2649 C5 1.578 . S
C2689 C735 1.883 . S
C2681 C23 1.869 . S
C2721 C845 2.287 . S
C2713 C26 2.134 . S
C2753 C895 1.931 . S
C2745 C244 1.953 . S
C2777 C177 0.520 . S
C2785 C818 0.594 . S
C2817 C935 1.221 . S
C2809 C192 1.233 . S
C2849 C765 1.423 . S
C2841 C203 1.319 . S
C2881 C645 1.456 . S
C2873 C242 1.412 . S
C2905 C179 0.874 . S
C2913 C695 0.881 . S
C2945 C729 0.799 . S
C2937 C190 0.868 . S
C2969 C205 1.921 . S
C2977 C855 1.901 . S
C3009 C889 1.059 . S
C3001 C286 1.115 . S
C3033 C122 1.690 . S
C3041 C495 1.700 . S
C3073 C529 1.371 . S
C3065 C130 1.325 1_565 S
C3105 C565 0.844 . S
C3097 C148 0.813 . S
C3137 C849 1.268 . S
C3129 C273 1.223 . S
C3161 C260 1.459 . S
C3169 C929 1.429 . S
C3201 C455 1.570 . S
C3193 C135 1.532 . S
C3233 C354 0.174 . S
C3225 C109 0.395 . S
C3257 C86 2.186 . S
C3265 C896 2.196 . S
C3297 C365 1.974 . S
C3289 C70 1.993 . S
C3321 C62 1.616 . S
C3329 C936 1.606 . S
C3353 C91 1.391 . S
C3361 C458 1.352 . S
C3385 C36 1.350 . S
C3393 C658 1.292 . S
C3425 C536 1.576 . S
C3417 C18 1.515 . S
C3449 C8 1.746 . S
C3457 C714 1.796 . S
C3481 C39 2.218 . S
C3489 C616 2.222 . S
C3521 C874 1.842 . S
C3513 C307 1.840 . S
C3545 C153 0.607 . S
C3553 C369 0.532 . S
C3585 C914 1.144 . S
C3577 C281 1.123 . S
C3609 C127 1.326 . S
C3617 C456 1.329 . S
C3641 C309 1.345 . S
C3649 C656 1.346 . S
C3681 C514 0.812 . S
C3673 C151 0.847 . S
C3705 C283 0.781 . S
C3713 C738 0.761 . S
C3745 C594 1.823 . S
C3737 C125 1.833 . S
C3777 C898 1.111 . S
C3769 C221 1.155 . S
C3809 C474 1.636 . S
C3801 C200 1.628 . S
C3833 C208 1.435 . S
C3841 C698 1.374 . S
C3873 C576 0.770 . S
C3865 C174 0.760 . S
C3897 C182 1.320 . S
C3905 C618 1.271 . S
C3929 C156 1.514 . S
C3937 C938 1.439 . S
C3969 C754 1.484 . S
C3961 C213 1.495 . S
C4001 C815 0.248 . S
C3993 C252 0.444 . S
