# Generated by pormake.
# Topology ant, (3,6)-cn, num edge types: 1
# Building blocks:
#     Node 0, Type 0, BuildingBlock: WUSLED_clean_sbu_0, # of connection points: 3
#     Node 1, Type 0, BuildingBlock: WUSLED_clean_sbu_0, # of connection points: 3
#     Node 2, Type 0, BuildingBlock: WUSLED_clean_sbu_0, # of connection points: 3
#     Node 3, Type 0, BuildingBlock: WUSLED_clean_sbu_0, # of connection points: 3
#     Node 4, Type 0, BuildingBlock: WUSLED_clean_sbu_0, # of connection points: 3
#     Node 5, Type 0, BuildingBlock: WUSLED_clean_sbu_0, # of connection points: 3
#     Node 6, Type 0, BuildingBlock: WUSLED_clean_sbu_0, # of connection points: 3
#     Node 7, Type 0, BuildingBlock: WUSLED_clean_sbu_0, # of connection points: 3
#     Node 8, Type 1, BuildingBlock: MIDCAF_clean_sbu_0, # of connection points: 6
#     Node 9, Type 1, BuildingBlock: MIDCAF_clean_sbu_0, # of connection points: 6
#     Node 10, Type 1, BuildingBlock: MIDCAF_clean_sbu_0, # of connection points: 6
#     Node 11, Type 1, BuildingBlock: MIDCAF_clean_sbu_0, # of connection points: 6
#     Edge 12, Type (0, 1), BuildingBlock: TEMPAE_clean_linker_10, # of connection points: 2
#     Edge 13, Type (0, 1), BuildingBlock: TEMPAE_clean_linker_10, # of connection points: 2
#     Edge 14, Type (0, 1), BuildingBlock: TEMPAE_clean_linker_10, # of connection points: 2
#     Edge 15, Type (0, 1), BuildingBlock: TEMPAE_clean_linker_10, # of connection points: 2
#     Edge 16, Type (0, 1), BuildingBlock: TEMPAE_clean_linker_10, # of connection points: 2
#     Edge 17, Type (0, 1), BuildingBlock: TEMPAE_clean_linker_10, # of connection points: 2
#     Edge 18, Type (0, 1), BuildingBlock: TEMPAE_clean_linker_10, # of connection points: 2
#     Edge 19, Type (0, 1), BuildingBlock: TEMPAE_clean_linker_10, # of connection points: 2
#     Edge 20, Type (0, 1), BuildingBlock: TEMPAE_clean_linker_10, # of connection points: 2
#     Edge 21, Type (0, 1), BuildingBlock: TEMPAE_clean_linker_10, # of connection points: 2
#     Edge 22, Type (0, 1), BuildingBlock: TEMPAE_clean_linker_10, # of connection points: 2
#     Edge 23, Type (0, 1), BuildingBlock: TEMPAE_clean_linker_10, # of connection points: 2
#     Edge 24, Type (0, 1), BuildingBlock: TEMPAE_clean_linker_10, # of connection points: 2
#     Edge 25, Type (0, 1), BuildingBlock: TEMPAE_clean_linker_10, # of connection points: 2
#     Edge 26, Type (0, 1), BuildingBlock: TEMPAE_clean_linker_10, # of connection points: 2
#     Edge 27, Type (0, 1), BuildingBlock: TEMPAE_clean_linker_10, # of connection points: 2
#     Edge 28, Type (0, 1), BuildingBlock: TEMPAE_clean_linker_10, # of connection points: 2
#     Edge 29, Type (0, 1), BuildingBlock: TEMPAE_clean_linker_10, # of connection points: 2
#     Edge 30, Type (0, 1), BuildingBlock: TEMPAE_clean_linker_10, # of connection points: 2
#     Edge 31, Type (0, 1), BuildingBlock: TEMPAE_clean_linker_10, # of connection points: 2
#     Edge 32, Type (0, 1), BuildingBlock: TEMPAE_clean_linker_10, # of connection points: 2
#     Edge 33, Type (0, 1), BuildingBlock: TEMPAE_clean_linker_10, # of connection points: 2
#     Edge 34, Type (0, 1), BuildingBlock: TEMPAE_clean_linker_10, # of connection points: 2
#     Edge 35, Type (0, 1), BuildingBlock: TEMPAE_clean_linker_10, # of connection points: 2
# Relax obj value: 0.097
# Max RMSD: 0.155
# Mean RMSD: 0.100
data_MOF--net-ant--node1-WUSLED_clean_sbu_0--node2-MIDCAF_clean_sbu_0--edge1-TEMPAE_clean_linker_10
_symmetry_space_group_name_H-M    P1
_symmetry_Int_Tables_number       1
_symmetry_cell_setting            triclinic
loop_
_symmetry_equiv_pos_as_xyz
'x, y, z'
_cell_length_a     36.583202
_cell_length_b     36.351165
_cell_length_c     99.91657
_cell_angle_alpha  90.022201
_cell_angle_beta   94.510066
_cell_angle_gamma 89.902519
loop_
_atom_site_label
_atom_site_type_symbol
_atom_site_fract_x
_atom_site_fract_y
_atom_site_fract_z
_atom_type_partial_charge
C0 C 0.2269 0.15622 0.09481 0.0
C1 C 0.20847 0.12765 0.08764 0.0
C2 C 0.23606 0.08233 0.10335 0.0
C3 C 0.21283 0.09119 0.09191 0.0
C4 C 0.25524 0.11086 0.11034 0.0
C5 C 0.25054 0.14754 0.10613 0.0
U6 U 0.20568 0.22372 0.06655 0.0
O7 O 0.16971 0.2723 0.06452 0.0
O8 O 0.22847 0.27803 0.06199 0.0
C9 C 0.19684 0.29497 0.06265 0.0
C10 C 0.22184 0.19481 0.09036 0.0
C11 C 0.19708 0.33108 0.0697 0.0
C12 C 0.1645 0.37997 0.08061 0.0
C13 C 0.16587 0.34396 0.07565 0.0
C14 C 0.22568 0.39103 0.07397 0.0
C15 C 0.19422 0.40414 0.0797 0.0
C16 C 0.22701 0.35506 0.06899 0.0
C17 C 0.19013 0.18005 0.0312 0.0
C18 C 0.14999 0.19472 0.0113 0.0
C19 C 0.20844 0.16506 0.00893 0.0
C20 C 0.2155 0.16494 0.02289 0.0
C21 C 0.17563 0.17998 0.00298 0.0
C22 C 0.15719 0.19486 0.02527 0.0
C23 C 0.1982 0.17865 0.04593 0.0
O24 O 0.24687 0.20746 0.08281 0.0
O25 O 0.18827 0.20377 0.08582 0.0
O26 O 0.17132 0.18689 0.05341 0.0
O27 O 0.22992 0.1924 0.05056 0.0
H28 H 0.19054 0.13354 0.07875 0.0
H29 H 0.19815 0.06979 0.08618 0.0
H30 H 0.27325 0.10488 0.1192 0.0
H31 H 0.26524 0.16913 0.11174 0.0
H32 H 0.14003 0.38893 0.08512 0.0
H33 H 0.14205 0.32654 0.07622 0.0
H34 H 0.24891 0.40894 0.07295 0.0
H35 H 0.25114 0.34637 0.0642 0.0
H36 H 0.12469 0.20687 0.00699 0.0
H37 H 0.22859 0.15328 0.00279 0.0
H38 H 0.24089 0.15297 0.02721 0.0
H39 H 0.137 0.20663 0.0314 0.0
C40 C 0.18273 0.82668 0.34401 0.0
C41 C 0.20766 0.83853 0.33493 0.0
C42 C 0.25861 0.83122 0.35204 0.0
C43 C 0.24518 0.84092 0.33891 0.0
C44 C 0.23337 0.82 0.36116 0.0
C45 C 0.19582 0.81779 0.35718 0.0
U46 U 0.10771 0.81508 0.31591 0.0
O47 O 0.06093 0.77682 0.31342 0.0
O48 O 0.05142 0.83653 0.31283 0.0
C49 C 0.03668 0.80355 0.31211 0.0
C50 C 0.14353 0.82156 0.33963 0.0
C51 C 1.00202 0.79841 0.31844 0.0
C52 C 0.96289 0.80632 0.33683 0.0
C53 C 0.99738 0.80943 0.33166 0.0
C54 C 0.93777 0.78082 0.31567 0.0
C55 C 0.93256 0.79243 0.32881 0.0
C56 C 0.97211 0.78376 0.31058 0.0
C57 C 0.13463 0.81569 0.2798 0.0
C58 C 0.10222 0.78513 0.26072 0.0
C59 C 0.14565 0.8336 0.25706 0.0
C60 C 0.15246 0.83799 0.27093 0.0
C61 C 0.12108 0.80653 0.25177 0.0
C62 C 0.10881 0.78977 0.2746 0.0
C63 C 0.1441 0.8191 0.29437 0.0
O64 O 0.12727 0.84941 0.33318 0.0
O65 O 0.1354 0.78965 0.33398 0.0
O66 O 0.14151 0.7888 0.30141 0.0
O67 O 0.13095 0.8482 0.30016 0.0
H68 H 0.1982 0.84517 0.32467 0.0
H69 H 0.26383 0.8491 0.33156 0.0
H70 H 0.2427 0.81259 0.37136 0.0
H71 H 0.17707 0.80849 0.36434 0.0
H72 H 0.95972 0.81569 0.34696 0.0
H73 H 0.02013 0.82094 0.33788 0.0
H74 H 0.91522 0.7695 0.30931 0.0
H75 H 0.97517 0.7751 0.30034 0.0
H76 H 0.08338 0.76381 0.25704 0.0
H77 H 0.16012 0.85107 0.25047 0.0
H78 H 0.17217 0.85841 0.27474 0.0
H79 H 0.09439 0.77246 0.28126 0.0
C80 C 0.70613 0.6617 0.5925 0.0
C81 C 0.68746 0.63269 0.58568 0.0
C82 C 0.71787 0.58801 0.601 0.0
C83 C 0.69312 0.59635 0.58992 0.0
C84 C 0.73711 0.61704 0.60768 0.0
C85 C 0.73116 0.65361 0.60349 0.0
U86 U 0.67947 0.72569 0.56388 0.0
O87 O 0.6436 0.77439 0.56179 0.0
O88 O 0.70131 0.77881 0.55743 0.0
C89 C 0.66986 0.79598 0.55816 0.0
C90 C 0.70027 0.70001 0.58781 0.0
C91 C 0.67112 0.83356 0.5638 0.0
C92 C 0.67945 0.87685 0.58238 0.0
C93 C 0.6794 0.84056 0.57751 0.0
C94 C 0.66298 0.89929 0.5599 0.0
C95 C 0.67121 0.90674 0.57362 0.0
C96 C 0.66296 0.86317 0.55508 0.0
C97 C 0.6571 0.67732 0.52998 0.0
C98 C 0.65362 0.70782 0.50831 0.0
C99 C 0.6355 0.64397 0.50979 0.0
C100 C 0.6437 0.64501 0.52371 0.0
C101 C 0.64065 0.67529 0.50189 0.0
C102 C 0.66163 0.70886 0.52222 0.0
C103 C 0.66767 0.67717 0.54449 0.0
O104 O 0.72356 0.71177 0.5794 0.0
O105 O 0.66608 0.70879 0.58406 0.0
O106 O 0.64227 0.68762 0.55228 0.0
O107 O 0.7001 0.69103 0.54811 0.0
H108 H 0.66849 0.63812 0.57702 0.0
H109 H 0.67835 0.57463 0.5844 0.0
H110 H 0.75629 0.61152 0.61626 0.0
H111 H 0.74612 0.67554 0.60882 0.0
H112 H 0.68634 0.88152 0.59298 0.0
H113 H 0.68575 0.81806 0.58441 0.0
H114 H 0.65596 0.92135 0.55288 0.0
H115 H 0.65627 0.85832 0.54446 0.0
H116 H 0.65853 0.73231 0.50256 0.0
H117 H 0.62519 0.61863 0.50522 0.0
H118 H 0.64 0.6204 0.52956 0.0
H119 H 0.67202 0.73407 0.52689 0.0
C120 C 0.68304 0.32518 0.84128 0.0
C121 C 0.7091 0.32684 0.83172 0.0
C122 C 0.7587 0.32902 0.84952 0.0
C123 C 0.74653 0.32879 0.83579 0.0
C124 C 0.73234 0.32803 0.85906 0.0
C125 C 0.69486 0.32613 0.85496 0.0
U126 U 0.60807 0.31156 0.8134 0.0
O127 O 0.55967 0.27555 0.81178 0.0
O128 O 0.55282 0.33536 0.80975 0.0
C129 C 0.5365 0.30325 0.81035 0.0
C130 C 0.64379 0.32092 0.837 0.0
C131 C 0.50294 0.30156 0.81775 0.0
C132 C 0.45788 0.26591 0.82894 0.0
C133 C 0.49215 0.26863 0.82369 0.0
C134 C 0.44467 0.32907 0.82262 0.0
C135 C 0.43349 0.29594 0.82829 0.0
C136 C 0.47888 0.33179 0.81737 0.0
C137 C 0.63555 0.3051 0.77732 0.0
C138 C 0.60803 0.27002 0.75837 0.0
C139 C 0.64303 0.32494 0.75448 0.0
C140 C 0.64941 0.33009 0.76833 0.0
C141 C 0.62291 0.2944 0.74932 0.0
C142 C 0.61418 0.27536 0.77224 0.0
C143 C 0.64465 0.31002 0.79188 0.0
O144 O 0.62885 0.34818 0.82984 0.0
O145 O 0.63455 0.28841 0.83208 0.0
O146 O 0.64052 0.28107 0.7995 0.0
O147 O 0.63297 0.3407 0.79706 0.0
H148 H 0.70049 0.32591 0.82109 0.0
H149 H 0.76599 0.32889 0.82816 0.0
H150 H 0.74071 0.32849 0.8697 0.0
H151 H 0.67513 0.32487 0.86249 0.0
H152 H 0.45003 0.23987 0.83312 0.0
H153 H 0.50966 0.24455 0.82394 0.0
H154 H 0.42682 0.35292 0.82214 0.0
H155 H 0.48606 0.35736 0.81268 0.0
H156 H 0.59274 0.24602 0.75478 0.0
H157 H 0.65433 0.34464 0.74781 0.0
H158 H 0.66571 0.35336 0.77202 0.0
H159 H 0.60286 0.25576 0.77894 0.0
C160 C 0.0733 0.84593 0.91947 0.0
C161 C 0.04248 0.86921 0.91861 0.0
C162 C 0.08157 0.92341 0.91797 0.0
C163 C 0.04655 0.90742 0.91794 0.0
C164 C 0.11244 0.90014 0.91895 0.0
C165 C 0.10838 0.86189 0.91967 0.0
U166 U 0.07373 0.75503 0.93872 0.0
O167 O 0.03552 0.70803 0.93709 0.0
O168 O 0.09396 0.69985 0.93424 0.0
C169 C 0.06118 0.68489 0.93395 0.0
C170 C 0.06846 0.80531 0.91983 0.0
C171 C 0.05135 0.65771 0.92322 0.0
C172 C 0.06937 0.6183 0.90516 0.0
C173 C 0.07543 0.64926 0.91336 0.0
C174 C 0.01379 0.60505 0.91586 0.0
C175 C 0.03917 0.59513 0.90664 0.0
C176 C 0.01993 0.63593 0.9241 0.0
C177 C 0.09784 0.75821 0.97684 0.0
C178 C 0.12969 0.71518 0.99243 0.0
C179 C 0.08539 0.75798 1.00035 0.0
C180 C 0.07885 0.77207 0.9874 0.0
C181 C 0.11145 0.72991 0.00309 0.0
C182 C 0.12294 0.72919 0.97941 0.0
C183 C 0.09198 0.77564 0.9635 0.0
O184 O 0.09818 0.7854 0.9226 0.0
O185 O 0.04012 0.79337 0.92589 0.0
O186 O 0.05799 0.776 0.95814 0.0
O187 O 0.11614 0.76824 0.9548 0.0
H188 H 0.01507 0.85787 0.91837 0.0
H189 H 0.02216 0.92445 0.91733 0.0
H190 H 0.13979 0.91139 0.91877 0.0
H191 H 0.13278 0.84488 0.9202 0.0
H192 H 0.08919 0.61159 0.89802 0.0
H193 H 0.09992 0.66543 0.91239 0.0
H194 H 0.99045 0.58763 0.91733 0.0
H195 H 1.00112 0.64158 0.9317 0.0
H196 H 0.15002 0.69368 0.99422 0.0
H197 H 0.07029 0.76943 0.00827 0.0
H198 H 0.05926 0.79429 0.98566 0.0
H199 H 0.1379 0.71781 0.97143 0.0
C200 C 0.5996 0.82078 0.15987 0.0
C201 C 0.57388 0.82662 0.16937 0.0
C202 C 0.52375 0.82315 0.15179 0.0
C203 C 0.53635 0.82788 0.16537 0.0
C204 C 0.54977 0.818 0.14229 0.0
C205 C 0.58734 0.81684 0.1463 0.0
U206 U 0.675 0.81038 0.18784 0.0
O207 O 0.72363 0.77456 0.18997 0.0
O208 O 0.73015 0.83457 0.19107 0.0
C209 C 0.74663 0.80238 0.19104 0.0
C210 C 0.63894 0.81703 0.16417 0.0
C211 C 0.7806 0.79975 0.1839 0.0
C212 C 0.82529 0.76308 0.17284 0.0
C213 C 0.79057 0.76688 0.17769 0.0
C214 C 0.84051 0.8251 0.18008 0.0
C215 C 0.85092 0.79194 0.17419 0.0
C216 C 0.80586 0.82888 0.18492 0.0
C217 C 0.64814 0.80775 0.22398 0.0
C218 C 0.68044 0.77714 0.24309 0.0
C219 C 0.63773 0.82647 0.2467 0.0
C220 C 0.63073 0.83057 0.23283 0.0
C221 C 0.66208 0.79918 0.25202 0.0
C222 C 0.67364 0.78148 0.2292 0.0
C223 C 0.63863 0.81125 0.20942 0.0
O224 O 0.65381 0.84508 0.17089 0.0
O225 O 0.64846 0.7851 0.16956 0.0
O226 O 0.64285 0.78149 0.20221 0.0
O227 O 0.65013 0.84132 0.2038 0.0
H228 H 0.5828 0.82944 0.17992 0.0
H229 H 0.51714 0.83128 0.17299 0.0
H230 H 0.54107 0.81456 0.13175 0.0
H231 H 0.60678 0.81227 0.13883 0.0
H232 H 0.83249 0.73706 0.16847 0.0
H233 H 0.77207 0.74362 0.17693 0.0
H234 H 0.85931 0.8481 0.18108 0.0
H235 H 0.79925 0.85434 0.18983 0.0
H236 H 0.6991 0.75566 0.24681 0.0
H237 H 0.62364 0.84441 0.25327 0.0
H238 H 0.61125 0.85125 0.22901 0.0
H239 H 0.68774 0.76374 0.22257 0.0
C240 C 0.58697 0.33324 0.41547 0.0
C241 C 0.59901 0.35415 0.42679 0.0
C242 C 0.59832 0.40983 0.41313 0.0
C243 C 0.60458 0.39215 0.42564 0.0
C244 C 0.58634 0.38854 0.40185 0.0
C245 C 0.58076 0.35067 0.40302 0.0
U246 U 0.58711 0.24566 0.43628 0.0
O247 O 0.54616 0.2012 0.43658 0.0
O248 O 0.60264 0.18879 0.43193 0.0
C249 C 0.56932 0.17608 0.43295 0.0
C250 C 0.58012 0.29346 0.41655 0.0
C251 C 0.55532 0.14897 0.4228 0.0
C252 C 0.56098 0.11541 0.40198 0.0
C253 C 0.5701 0.14563 0.41029 0.0
C254 C 0.5205 0.09283 0.41815 0.0
C255 C 0.53701 0.08797 0.40603 0.0
C256 C 0.52961 0.12297 0.42644 0.0
C257 C 0.61964 0.25185 0.47365 0.0
C258 C 0.64006 0.20141 0.48847 0.0
C259 C 0.62138 0.25938 0.49779 0.0
C260 C 0.61398 0.27346 0.48489 0.0
C261 C 0.63497 0.22336 0.49978 0.0
C262 C 0.63241 0.21555 0.47549 0.0
C263 C 0.61207 0.26808 0.46022 0.0
O264 O 0.6094 0.27276 0.41898 0.0
O265 O 0.5531 0.28445 0.42383 0.0
O266 O 0.5773 0.27008 0.45585 0.0
O267 O 0.63349 0.25755 0.45097 0.0
H268 H 0.60394 0.3411 0.43652 0.0
H269 H 0.61403 0.40761 0.43451 0.0
H270 H 0.58057 0.40126 0.39211 0.0
H271 H 0.57127 0.33502 0.39419 0.0
H272 H 0.57383 0.11276 0.39262 0.0
H273 H 0.58987 0.16542 0.4072 0.0
H274 H 0.50232 0.07212 0.42169 0.0
H275 H 0.518 0.1249 0.43606 0.0
H276 H 0.65046 0.1736 0.48965 0.0
H277 H 0.61617 0.27676 0.50625 0.0
H278 H 0.60381 0.30139 0.48368 0.0
H279 H 0.6367 0.19826 0.46692 0.0
C280 C 0.09848 0.31684 0.6599 0.0
C281 C 0.07458 0.32958 0.66922 0.0
C282 C 0.02205 0.32199 0.65278 0.0
C283 C 0.03682 0.33224 0.66569 0.0
C284 C 0.04632 0.30991 0.6434 0.0
C285 C 0.0841 0.30736 0.64694 0.0
U286 U 0.17579 0.30833 0.68729 0.0
O287 O 0.22217 0.26945 0.69015 0.0
O288 O 0.23246 0.32893 0.68926 0.0
C289 C 0.24679 0.29581 0.69062 0.0
C290 C 0.13795 0.31154 0.66385 0.0
C291 C 0.28119 0.28873 0.68428 0.0
C292 C 0.32105 0.29519 0.66604 0.0
C293 C 0.28656 0.29965 0.67111 0.0
C294 C 0.34474 0.26849 0.68718 0.0
C295 C 0.35072 0.28009 0.67412 0.0
C296 C 0.31038 0.27272 0.69217 0.0
C297 C 0.15119 0.31599 0.72367 0.0
C298 C 0.18345 0.28786 0.74331 0.0
C299 C 0.14093 0.33795 0.74603 0.0
C300 C 0.13396 0.34021 0.7321 0.0
C301 C 0.16508 0.31115 0.75184 0.0
C302 C 0.17667 0.29035 0.72936 0.0
C303 C 0.14115 0.31698 0.70909 0.0
O304 O 0.15517 0.34004 0.66947 0.0
O305 O 0.14623 0.28047 0.67011 0.0
O306 O 0.14294 0.28543 0.70275 0.0
O307 O 0.15434 0.34468 0.70254 0.0
H308 H 0.08507 0.33693 0.67931 0.0
H309 H 0.01916 0.34207 0.67313 0.0
H310 H 0.03603 0.30121 0.63345 0.0
H311 H 0.10202 0.29721 0.63963 0.0
H312 H 0.32483 0.30459 0.65596 0.0
H313 H 0.26441 0.31223 0.66487 0.0
H314 H 0.36676 0.25629 0.69359 0.0
H315 H 0.3068 0.26416 0.70238 0.0
H316 H 0.20196 0.2667 0.7474 0.0
H317 H 0.12685 0.35681 0.75227 0.0
H318 H 0.11449 0.36042 0.7279 0.0
H319 H 0.1906 0.27155 0.72304 0.0
Zn320 Zn 0.20843 0.69641 0.14583 0.0
Zn321 Zn 0.13546 0.78359 0.11268 0.0
Zn322 Zn 0.17567 0.74177 0.12878 0.0
C323 C 0.14392 0.71894 0.09875 0.0
C324 C 0.20236 0.82002 0.11784 0.0
O325 O 0.14711 0.74107 0.14776 0.0
O326 O 0.18001 0.70407 0.16152 0.0
C327 C 0.1888 0.65358 0.12372 0.0
O328 O 0.16396 0.71106 0.10957 0.0
O329 O 0.12691 0.7491 0.09769 0.0
O330 O 0.17213 0.82261 0.1109 0.0
O331 O 0.20937 0.79167 0.12539 0.0
O332 O 0.20067 0.64993 0.13585 0.0
O333 O 0.18002 0.68585 0.11905 0.0
O334 O 0.23108 0.76599 0.13322 0.0
O335 O 0.25662 0.72176 0.14594 0.0
C336 C 0.25926 0.75233 0.14006 0.0
O337 O 0.12289 0.75679 0.13772 0.0
O338 O 0.0934 0.7942 0.12314 0.0
C339 C 0.1535 0.72608 0.15943 0.0
C340 C 0.09462 0.77691 0.1341 0.0
Zn341 Zn 0.57199 0.71024 0.35899 0.0
Zn342 Zn 0.64931 0.79638 0.39154 0.0
Zn343 Zn 0.60795 0.75473 0.37564 0.0
C344 C 0.58214 0.83303 0.38659 0.0
C345 C 0.68938 0.78811 0.36993 0.0
O346 O 0.60298 0.6998 0.38564 0.0
O347 O 0.57141 0.66607 0.37038 0.0
C348 C 0.52485 0.7698 0.36313 0.0
O349 O 0.57465 0.80468 0.37912 0.0
O350 O 0.61284 0.83567 0.39321 0.0
O351 O 0.6912 0.8058 0.38081 0.0
O352 O 0.66074 0.76841 0.36651 0.0
O353 O 0.52666 0.74004 0.3567 0.0
O354 O 0.55266 0.78058 0.37091 0.0
O355 O 0.63651 0.75103 0.3568 0.0
O356 O 0.60446 0.71083 0.34411 0.0
C357 C 0.63095 0.733 0.34569 0.0
O358 O 0.61965 0.72475 0.39501 0.0
O359 O 0.65708 0.76241 0.4068 0.0
C360 C 0.58786 0.66898 0.38191 0.0
C361 C 0.63945 0.7326 0.4059 0.0
Zn362 Zn 0.63046 0.28542 0.6102 0.0
Zn363 Zn 0.71152 0.19701 0.64013 0.0
Zn364 Zn 0.67331 0.24308 0.62496 0.0
C365 C 0.75905 0.25437 0.6337 0.0
C366 C 0.68926 0.15593 0.61803 0.0
O367 O 0.62168 0.25548 0.63523 0.0
O368 O 0.58953 0.29318 0.62151 0.0
C369 C 0.69628 0.32372 0.61478 0.0
O370 O 0.72892 0.26878 0.6285 0.0
O371 O 0.75878 0.22276 0.63892 0.0
O372 O 0.70504 0.15154 0.6296 0.0
O373 O 0.67676 0.18804 0.6144 0.0
O374 O 0.66512 0.32621 0.60848 0.0
O375 O 0.70518 0.29458 0.62168 0.0
O376 O 0.65958 0.21392 0.60556 0.0
O377 O 0.62142 0.25277 0.59466 0.0
C378 C 0.63869 0.22269 0.59503 0.0
O379 O 0.64794 0.23888 0.64435 0.0
O380 O 0.68549 0.20246 0.65668 0.0
C381 C 0.59257 0.27505 0.63229 0.0
C382 C 0.65751 0.22294 0.65562 0.0
Zn383 Zn 0.08063 0.21327 0.86034 0.0
Zn384 Zn 0.14584 0.31225 0.88922 0.0
Zn385 Zn 0.11006 0.2632 0.87586 0.0
C386 C 0.13369 0.25576 0.90718 0.0
C387 C 0.08085 0.34534 0.88028 0.0
O388 O 0.13858 0.26002 0.85684 0.0
O389 O 0.10707 0.21958 0.84411 0.0
C390 C 0.10387 0.17704 0.88378 0.0
O391 O 0.12338 0.23912 0.89612 0.0
O392 O 0.14247 0.2893 0.90701 0.0
O393 O 0.11295 0.3539 0.88467 0.0
O394 O 0.07281 0.31164 0.87727 0.0
O395 O 0.09314 0.1702 0.87174 0.0
O396 O 0.10974 0.21057 0.88764 0.0
O397 O 0.0528 0.28255 0.87079 0.0
O398 O 0.0302 0.23385 0.85984 0.0
C399 C 0.02544 0.26546 0.86469 0.0
O400 O 0.16262 0.27625 0.86661 0.0
O401 O 0.19358 0.31171 0.88142 0.0
C402 C 0.13251 0.24294 0.84554 0.0
C403 C 0.19224 0.29374 0.8706 0.0
C404 C 0.15997 0.46374 0.08215 0.0
C405 C 0.19225 0.44296 0.08456 0.0
C406 C 0.15744 0.49994 0.08702 0.0
C407 C 0.18785 0.51583 0.09453 0.0
C408 C 0.22081 0.49537 0.09668 0.0
C409 C 0.2226 0.4593 0.09168 0.0
C410 C 0.12187 0.52081 0.08443 0.0
C411 C 0.25386 0.51112 0.10469 0.0
C412 C 0.1945 0.61878 0.10218 0.0
C413 C 0.18446 0.61984 0.11541 0.0
C414 C 0.19435 0.58539 0.09498 0.0
C415 C 0.18432 0.55229 0.10126 0.0
C416 C 0.17304 0.55358 0.11449 0.0
C417 C 0.17335 0.58722 0.12138 0.0
C418 C 0.20633 0.58532 0.08087 0.0
C419 C 0.16193 0.51915 0.12159 0.0
H420 H 0.13657 0.45168 0.07644 0.0
H421 H 0.24756 0.44347 0.0937 0.0
H422 H 0.10934 0.52539 0.09405 0.0
H423 H 0.12703 0.54826 0.08012 0.0
H424 H 0.10186 0.50588 0.07748 0.0
H425 H 0.2782 0.49282 0.10465 0.0
H426 H 0.26097 0.53834 0.10062 0.0
H427 H 0.24741 0.5154 0.11525 0.0
H428 H 0.20435 0.64361 0.09775 0.0
H429 H 0.16555 0.5879 0.13162 0.0
H430 H 0.18555 0.57133 0.07397 0.0
H431 H 0.23233 0.56969 0.0806 0.0
H432 H 0.21063 0.61358 0.07707 0.0
H433 H 0.14007 0.50448 0.1154 0.0
H434 H 0.15185 0.52515 0.13157 0.0
H435 H 0.18574 0.50022 0.12304 0.0
C436 C 0.89075 0.77765 0.34687 0.0
C437 C 0.89538 0.79068 0.33391 0.0
C438 C 0.85579 0.776 0.35177 0.0
C439 C 0.82466 0.78795 0.34356 0.0
C440 C 0.8291 0.80084 0.33042 0.0
C441 C 0.86435 0.80199 0.32576 0.0
C442 C 0.85221 0.76189 0.36582 0.0
C443 C 0.79675 0.81433 0.32143 0.0
C444 C 0.73136 0.7585 0.35433 0.0
C445 C 0.72139 0.78922 0.36171 0.0
C446 C 0.7642 0.75818 0.34787 0.0
C447 C 0.7879 0.78903 0.34906 0.0
C448 C 0.7773 0.82053 0.35614 0.0
C449 C 0.74426 0.82021 0.36238 0.0
C450 C 0.77413 0.72433 0.34019 0.0
C451 C 0.80148 0.85417 0.35756 0.0
H452 H 0.9145 0.76845 0.35317 0.0
H453 H 0.86771 0.81252 0.31578 0.0
H454 H 0.84146 0.78404 0.37208 0.0
H455 H 0.83229 0.73887 0.36558 0.0
H456 H 0.8788 0.75217 0.37071 0.0
H457 H 0.80419 0.82009 0.31107 0.0
H458 H 0.77433 0.79377 0.32097 0.0
H459 H 0.78579 0.83996 0.32564 0.0
H460 H 0.7142 0.73421 0.35401 0.0
H461 H 0.73667 0.84407 0.36806 0.0
H462 H 0.79856 0.71097 0.34541 0.0
H463 H 0.78143 0.73199 0.32999 0.0
H464 H 0.75139 0.70405 0.33922 0.0
H465 H 0.82758 0.84712 0.36342 0.0
H466 H 0.78826 0.87719 0.36268 0.0
H467 H 0.80851 0.86375 0.34754 0.0
C468 C 0.75818 0.53404 0.60834 0.0
C469 C 0.72303 0.54906 0.60548 0.0
C470 C 0.76295 0.49637 0.61141 0.0
C471 C 0.73183 0.47328 0.61165 0.0
C472 C 0.6963 0.48877 0.60935 0.0
C473 C 0.69238 0.5263 0.60629 0.0
C474 C 0.80125 0.48105 0.61382 0.0
C475 C 0.66223 0.46543 0.60966 0.0
C476 C 0.72616 0.37263 0.60248 0.0
C477 C 0.71968 0.35671 0.61483 0.0
C478 C 0.73437 0.41019 0.6015 0.0
C479 C 0.73561 0.43248 0.61316 0.0
C480 C 0.73322 0.4156 0.62587 0.0
C481 C 0.72509 0.37781 0.62654 0.0
C482 C 0.73735 0.42668 0.58777 0.0
C483 C 0.73507 0.43805 0.63859 0.0
H484 H 0.78202 0.55143 0.6077 0.0
H485 H 0.66513 0.53785 0.60435 0.0
H486 H 0.80327 0.46242 0.62264 0.0
H487 H 0.80797 0.46461 0.60499 0.0
H488 H 0.82204 0.50317 0.61546 0.0
H489 H 0.63667 0.48204 0.60842 0.0
H490 H 0.66157 0.44471 0.60149 0.0
H491 H 0.66256 0.45027 0.61931 0.0
H492 H 0.72154 0.35639 0.59339 0.0
H493 H 0.71934 0.36574 0.63607 0.0
H494 H 0.76005 0.44689 0.58797 0.0
H495 H 0.71155 0.44148 0.58461 0.0
H496 H 0.74198 0.4053 0.58013 0.0
H497 H 0.75618 0.45988 0.63842 0.0
H498 H 0.74128 0.42055 0.64761 0.0
H499 H 0.70821 0.45167 0.63951 0.0
C500 C 0.82375 0.34876 0.84694 0.0
C501 C 0.79874 0.32798 0.85376 0.0
C502 C 0.8618 0.34448 0.84974 0.0
C503 C 0.87525 0.31867 0.85955 0.0
C504 C 0.85016 0.29932 0.86704 0.0
C505 C 0.81228 0.30419 0.86405 0.0
C506 C 0.88756 0.36597 0.84163 0.0
C507 C 0.86325 0.2715 0.87757 0.0
C508 C 0.9621 0.26627 0.85354 0.0
C509 C 0.988 0.28167 0.86304 0.0
C510 C 0.92574 0.27865 0.85219 0.0
C511 C 0.91467 0.30753 0.86047 0.0
C512 C 0.94082 0.32411 0.86983 0.0
C513 C 0.97717 0.31077 0.87107 0.0
C514 C 0.89893 0.2601 0.84206 0.0
C515 C 0.93022 0.3552 0.87876 0.0
H516 H 0.81357 0.36775 0.83915 0.0
H517 H 0.79329 0.28781 0.86933 0.0
H518 H 0.91035 0.37774 0.84826 0.0
H519 H 0.89986 0.34727 0.83443 0.0
H520 H 0.8733 0.38864 0.83587 0.0
H521 H 0.84081 0.26227 0.88364 0.0
H522 H 0.87446 0.24708 0.87261 0.0
H523 H 0.88564 0.28316 0.8844 0.0
H524 H 0.97012 0.24394 0.84719 0.0
H525 H 0.99669 0.32233 0.87859 0.0
H526 H 0.88607 0.28074 0.83499 0.0
H527 H 0.87664 0.24705 0.84729 0.0
H528 H 0.91216 0.23862 0.83616 0.0
H529 H 0.91504 0.37677 0.87275 0.0
H530 H 0.95447 0.36794 0.88432 0.0
H531 H 0.91167 0.34469 0.88614 0.0
C532 C 0.06794 0.53611 0.90024 0.0
C533 C 0.03672 0.55858 0.89991 0.0
C534 C 0.06612 0.50018 0.89516 0.0
C535 C 0.03224 0.48623 0.88944 0.0
C536 C 1.00076 0.50909 0.88868 0.0
C537 C 1.00328 0.54494 0.89406 0.0
C538 C 0.10043 0.47676 0.89631 0.0
C539 C 0.96438 0.49548 0.88245 0.0
C540 C 0.05401 0.40165 0.86984 0.0
C541 C 0.05339 0.37486 0.87987 0.0
C542 C 0.04221 0.43775 0.87213 0.0
C543 C 0.03041 0.44716 0.88486 0.0
C544 C 0.02537 0.41895 0.89433 0.0
C545 C 0.03703 0.38303 0.89171 0.0
C546 C 0.04701 0.46665 0.86159 0.0
C547 C 1.01262 0.42747 0.908 0.0
H548 H 0.09369 0.54618 0.90496 0.0
H549 H 0.97907 0.56225 0.89375 0.0
H550 H 0.09595 0.45202 0.90248 0.0
H551 H 0.10694 0.46716 0.88623 0.0
H552 H 0.12457 0.49185 0.90097 0.0
H553 H 0.94371 0.51789 0.8812 0.0
H554 H 0.96776 0.48291 0.8725 0.0
H555 H 0.95363 0.4738 0.88888 0.0
H556 H 0.06718 0.39539 0.86075 0.0
H557 H 0.03711 0.36236 0.89954 0.0
H558 H 0.07326 0.48136 0.86402 0.0
H559 H 0.02457 0.48726 0.86134 0.0
H560 H 0.0478 0.45422 0.85145 0.0
H561 H 0.03576 0.43938 0.91443 0.0
H562 H 1.00308 0.40234 0.91299 0.0
H563 H 0.9901 0.44797 0.90728 0.0
C564 C 0.9192 0.80111 0.17747 0.0
C565 C 0.88857 0.78739 0.16967 0.0
C566 C 0.95471 0.79818 0.17312 0.0
C567 C 0.95978 0.78118 0.16066 0.0
C568 C 0.92915 0.7664 0.15291 0.0
C569 C 0.89397 0.76968 0.15751 0.0
C570 C 0.98661 0.81431 0.18166 0.0
C571 C 0.93337 0.74818 0.13954 0.0
C572 C 0.03898 0.80978 0.14069 0.0
C573 C 0.06255 0.77933 0.14226 0.0
C574 C 1.00607 0.81115 0.14696 0.0
C575 C 0.99647 0.78146 0.15513 0.0
C576 C 0.02094 0.75138 0.15729 0.0
C577 C 0.05346 0.75041 0.15065 0.0
C578 C 0.9809 0.84382 0.14441 0.0
C579 C 1.01219 0.71967 0.16623 0.0
H580 H 0.91543 0.81425 0.187 0.0
H581 H 0.87051 0.75926 0.15137 0.0
H582 H 1.01001 0.79479 0.18252 0.0
H583 H 0.99617 0.83962 0.17683 0.0
H584 H 0.97909 0.82152 0.1919 0.0
H585 H 0.90722 0.73623 0.13511 0.0
H586 H 0.94318 0.76861 0.13239 0.0
H587 H 0.95424 0.72598 0.14068 0.0
H588 H 0.04587 0.83231 0.13424 0.0
H589 H 0.07111 0.72646 0.15169 0.0
H590 H 0.97407 0.85614 0.15406 0.0
H591 H 0.95478 0.83472 0.13903 0.0
H592 H 0.9932 0.86544 0.13833 0.0
H593 H 1.00412 0.72999 0.17602 0.0
H594 H 0.03582 0.70061 0.16808 0.0
H595 H 0.9886 0.70401 0.16147 0.0
C596 C 0.59091 0.475 0.42124 0.0
C597 C 0.60336 0.45036 0.41175 0.0
C598 C 0.59163 0.51329 0.41911 0.0
C599 C 0.60475 0.52719 0.40715 0.0
C600 C 0.61958 0.50258 0.398 0.0
C601 C 0.61881 0.46459 0.40043 0.0
C602 C 0.57637 0.53867 0.42926 0.0
C603 C 0.63429 0.51619 0.38519 0.0
C604 C 0.56178 0.60996 0.38918 0.0
C605 C 0.59014 0.63588 0.39058 0.0
C606 C 0.56538 0.57533 0.39528 0.0
C607 C 0.59814 0.56629 0.40308 0.0
C608 C 0.62579 0.59337 0.4054 0.0
C609 C 0.62172 0.62773 0.39892 0.0
C610 C 0.53501 0.54754 0.39258 0.0
C611 C 0.66062 0.58546 0.41401 0.0
H612 H 0.579 0.46437 0.43005 0.0
H613 H 0.62945 0.44587 0.39323 0.0
H614 H 0.59398 0.56333 0.43096 0.0
H615 H 0.54877 0.54834 0.42539 0.0
H616 H 0.57384 0.52469 0.43903 0.0
H617 H 0.64771 0.49395 0.37971 0.0
H618 H 0.61148 0.52772 0.37848 0.0
H619 H 0.65444 0.53856 0.38741 0.0
H620 H 0.53719 0.61624 0.38281 0.0
H621 H 0.64399 0.64739 0.39986 0.0
H622 H 0.52728 0.53532 0.40212 0.0
H623 H 0.54474 0.52483 0.38633 0.0
H624 H 0.51013 0.55986 0.38726 0.0
H625 H 0.65514 0.56828 0.4228 0.0
H626 H 0.67433 0.61126 0.41764 0.0
H627 H 0.67981 0.57006 0.40801 0.0
C628 C 0.9577 0.3093 0.65877 0.0
C629 C 0.98143 0.32165 0.64935 0.0
C630 C 0.91992 0.30512 0.65535 0.0
C631 C 0.90522 0.31329 0.64214 0.0
C632 C 0.92859 0.3277 0.63278 0.0
C633 C 0.96636 0.33164 0.63648 0.0
C634 C 0.89612 0.28973 0.66568 0.0
C635 C 0.91407 0.33715 0.61865 0.0
C636 C 0.82568 0.2509 0.63112 0.0
C637 C 0.79513 0.27271 0.63338 0.0
C638 C 0.86143 0.26463 0.63316 0.0
C639 C 0.86707 0.30122 0.63769 0.0
C640 C 0.83622 0.32425 0.63918 0.0
C641 C 0.80047 0.30965 0.63701 0.0
C642 C 0.89323 0.23907 0.63124 0.0
C643 C 0.84085 0.36353 0.64385 0.0
H644 H 0.96887 0.30114 0.6687 0.0
H645 H 0.98422 0.34192 0.62918 0.0
H646 H 0.87096 0.30661 0.66615 0.0
H647 H 0.88741 0.26143 0.66276 0.0
H648 H 0.91067 0.28866 0.67586 0.0
H649 H 0.93423 0.35304 0.61324 0.0
H650 H 0.90751 0.31145 0.61298 0.0
H651 H 0.88834 0.35333 0.61872 0.0
H652 H 0.82162 0.22236 0.62821 0.0
H653 H 0.77699 0.3264 0.63896 0.0
H654 H 0.90819 0.23324 0.6411 0.0
H655 H 0.91286 0.2522 0.62481 0.0
H656 H 0.88419 0.21251 0.62659 0.0
H657 H 0.84835 0.36384 0.65483 0.0
H658 H 0.81519 0.3797 0.64182 0.0
H659 H 0.86326 0.37724 0.6389 0.0
C660 C 0.41911 0.28787 0.67744 0.0
C661 C 0.38806 0.27731 0.66917 0.0
C662 C 0.45447 0.28621 0.67288 0.0
C663 C 0.45902 0.27365 0.65969 0.0
C664 C 0.42787 0.26218 0.6514 0.0
C665 C 0.3928 0.26433 0.65621 0.0
C666 C 0.48661 0.29945 0.68201 0.0
C667 C 0.43152 0.24832 0.63732 0.0
C668 C 0.53839 0.30681 0.6406 0.0
C669 C 0.56145 0.27589 0.64096 0.0
C670 C 0.50581 0.3069 0.64711 0.0
C671 C 0.49573 0.27515 0.65413 0.0
C672 C 0.51981 0.24446 0.65512 0.0
C673 C 0.55236 0.24511 0.64846 0.0
C674 C 0.48152 0.34057 0.64608 0.0
C675 C 0.51056 0.21054 0.66285 0.0
H676 H 0.4157 0.29841 0.68742 0.0
H677 H 0.36904 0.25569 0.64982 0.0
H678 H 0.51151 0.28279 0.68076 0.0
H679 H 0.4929 0.3283 0.67941 0.0
H680 H 0.48054 0.29869 0.69273 0.0
H681 H 0.40503 0.23836 0.63245 0.0
H682 H 0.44185 0.27071 0.63109 0.0
H683 H 0.45178 0.22554 0.63748 0.0
H684 H 0.54543 0.33083 0.63491 0.0
H685 H 0.56993 0.22105 0.6487 0.0
H686 H 0.47526 0.34979 0.65623 0.0
H687 H 0.45507 0.33374 0.64043 0.0
H688 H 0.49431 0.36377 0.64093 0.0
H689 H 0.50458 0.21814 0.67322 0.0
H690 H 0.53317 0.19002 0.6634 0.0
H691 H 0.48551 0.19755 0.65798 0.0
C692 C 0.46981 0.79362 0.13891 0.0
C693 C 0.48361 0.8211 0.14779 0.0
C694 C 0.43189 0.78815 0.13636 0.0
C695 C 0.407 0.8107 0.14282 0.0
C696 C 0.42067 0.84007 0.15107 0.0
C697 C 0.45878 0.84482 0.1535 0.0
C698 C 0.41856 0.75653 0.12748 0.0
C699 C 0.3951 0.86516 0.15795 0.0
C700 C 0.30538 0.79715 0.13186 0.0
C701 C 0.29544 0.77111 0.14126 0.0
C702 C 0.34115 0.81186 0.13253 0.0
C703 C 0.36766 0.79963 0.1427 0.0
C704 C 0.35726 0.77437 0.15247 0.0
C705 C 0.32142 0.76064 0.15166 0.0
C706 C 0.35082 0.83923 0.12203 0.0
C707 C 0.3844 0.76061 0.16354 0.0
H708 H 0.48866 0.77499 0.1345 0.0
H709 H 0.46916 0.86661 0.16016 0.0
H710 H 0.40709 0.73477 0.13371 0.0
H711 H 0.3963 0.76578 0.12006 0.0
H712 H 0.44091 0.74429 0.122 0.0
H713 H 0.40944 0.88985 0.16229 0.0
H714 H 0.37207 0.87421 0.15081 0.0
H715 H 0.38311 0.84999 0.16619 0.0
H716 H 0.2858 0.80495 0.12368 0.0
H717 H 0.31399 0.74084 0.15909 0.0
H718 H 0.36679 0.82515 0.11455 0.0
H719 H 0.36814 0.86166 0.1266 0.0
H720 H 0.32595 0.85152 0.11669 0.0
H721 H 0.40678 0.74526 0.15913 0.0
H722 H 0.3715 0.74218 0.17068 0.0
H723 H 0.39706 0.78412 0.16925 0.0
C724 C 0.39153 0.27437 0.84541 0.0
C725 C 0.39633 0.29267 0.83332 0.0
C726 C 0.35691 0.27242 0.85053 0.0
C727 C 0.32628 0.2892 0.84341 0.0
C728 C 0.33068 0.30674 0.831 0.0
C729 C 0.36562 0.30828 0.8261 0.0
C730 C 0.35337 0.25351 0.86382 0.0
C731 C 0.2987 0.3249 0.8231 0.0
C732 C 0.23192 0.26395 0.85421 0.0
C733 C 0.22505 0.29325 0.86279 0.0
C734 C 0.26411 0.26286 0.84738 0.0
C735 C 0.29051 0.29117 0.84954 0.0
C736 C 0.28347 0.32098 0.85808 0.0
C737 C 0.25084 0.32171 0.86454 0.0
C738 C 0.27023 0.23101 0.83813 0.0
C739 C 0.31081 0.35178 0.86066 0.0
H740 H 0.41508 0.26247 0.8511 0.0
H741 H 0.36891 0.32185 0.81662 0.0
H742 H 0.34577 0.27398 0.87137 0.0
H743 H 0.33118 0.2327 0.86282 0.0
H744 H 0.37921 0.23973 0.86766 0.0
H745 H 0.30564 0.33349 0.81294 0.0
H746 H 0.27485 0.30603 0.82206 0.0
H747 H 0.29007 0.34963 0.82856 0.0
H748 H 0.21264 0.2414 0.85308 0.0
H749 H 0.24571 0.34451 0.87114 0.0
H750 H 0.29343 0.21397 0.84245 0.0
H751 H 0.27772 0.24122 0.82824 0.0
H752 H 0.24556 0.21328 0.83651 0.0
H753 H 0.33688 0.34061 0.86546 0.0
H754 H 0.30068 0.37351 0.86727 0.0
H755 H 0.31711 0.36458 0.85103 0.0
C756 C 0.31471 0.80026 0.36296 0.0
C757 C 0.29894 0.83039 0.35585 0.0
C758 C 0.35293 0.79677 0.36533 0.0
C759 C 0.3762 0.82413 0.36055 0.0
C760 C 0.36044 0.85574 0.35411 0.0
C761 C 0.32205 0.85837 0.35175 0.0
C762 C 0.36845 0.76256 0.37223 0.0
C763 C 0.38417 0.88592 0.34912 0.0
C764 C 0.47744 0.81155 0.3723 0.0
C765 C 0.48952 0.79023 0.36181 0.0
C766 C 0.44119 0.8252 0.37171 0.0
C767 C 0.41641 0.81661 0.3605 0.0
C768 C 0.42932 0.79706 0.34956 0.0
C769 C 0.46559 0.78437 0.35033 0.0
C770 C 0.42901 0.84686 0.38345 0.0
C771 C 0.40418 0.78737 0.33733 0.0
H772 H 0.29722 0.77836 0.36609 0.0
H773 H 0.31012 0.88208 0.34646 0.0
H774 H 0.38242 0.74556 0.36493 0.0
H775 H 0.38921 0.77002 0.38046 0.0
H776 H 0.34689 0.74558 0.37644 0.0
H777 H 0.36805 0.91106 0.34632 0.0
H778 H 0.40634 0.8932 0.35689 0.0
H779 H 0.39743 0.87615 0.34016 0.0
H780 H 0.49552 0.81586 0.38127 0.0
H781 H 0.47481 0.76831 0.34208 0.0
H782 H 0.41401 0.82839 0.38995 0.0
H783 H 0.41011 0.86945 0.38001 0.0
H784 H 0.45274 0.85876 0.3896 0.0
H785 H 0.38272 0.76804 0.34024 0.0
H786 H 0.4191 0.77428 0.32931 0.0
H787 H 0.39008 0.81234 0.33315 0.0
C788 C 0.68532 0.97432 0.57128 0.0
C789 C 0.67113 0.94551 0.5787 0.0
C790 C 0.68612 1.01076 0.57607 0.0
C791 C 0.67261 0.01876 0.58865 0.0
C792 C 0.65731 0.99006 0.59601 0.0
C793 C 0.65678 0.95389 0.59097 0.0
C794 C 0.7026 0.04051 0.56789 0.0
C795 C 0.64239 0.99737 0.60942 0.0
C796 C 0.71381 0.09662 0.61017 0.0
C797 C 0.68611 0.12343 0.60902 0.0
C798 C 0.71022 0.06317 0.60321 0.0
C799 C 0.67801 0.05606 0.59483 0.0
C800 C 0.65054 0.08368 0.59312 0.0
C801 C 0.65479 0.11698 0.60034 0.0
C802 C 0.74042 0.03485 0.60526 0.0
C803 C 0.61601 0.07752 0.58414 0.0
H804 H 0.69677 0.96825 0.56184 0.0
H805 H 0.64506 0.93211 0.59666 0.0
H806 H 0.68379 0.06447 0.5667 0.0
H807 H 0.7285 0.05037 0.57321 0.0
H808 H 0.70862 0.03064 0.55777 0.0
H809 H 0.62905 0.97273 0.61344 0.0
H810 H 0.665 1.0061 0.61678 0.0
H811 H 0.62212 0.02014 0.60852 0.0
H812 H 0.73819 0.1015 0.61683 0.0
H813 H 0.63295 0.13721 0.59963 0.0
H814 H 0.74943 0.02581 0.59543 0.0
H815 H 0.72998 1.01022 0.61029 0.0
H816 H 0.76463 0.04549 0.61147 0.0
H817 H 0.62255 0.06588 0.57435 0.0
H818 H 0.60016 0.10338 0.5823 0.0
H819 H 0.5984 0.05733 0.58891 0.0
C820 C 0.27382 0.02709 0.11116 0.0
C821 C 0.23941 0.04341 0.10796 0.0
C822 C 0.27688 0.98939 0.1144 0.0
C823 C 0.24478 0.96768 0.11451 0.0
C824 C 0.20997 0.98454 0.11189 0.0
C825 C 0.20776 0.02203 0.10862 0.0
C826 C 0.31446 0.97254 0.11709 0.0
C827 C 0.17491 0.96269 0.11206 0.0
C828 C 0.23441 0.8674 0.10552 0.0
C829 C 0.22681 0.8522 0.11787 0.0
C830 C 0.24478 0.90436 0.10453 0.0
C831 C 0.24678 0.92683 0.11614 0.0
C832 C 0.24326 0.91044 0.12886 0.0
C833 C 0.23343 0.87307 0.12958 0.0
C834 C 0.24924 0.92026 0.0908 0.0
C835 C 0.24564 0.93316 0.14153 0.0
H836 H 0.2984 0.04347 0.11064 0.0
H837 H 0.18109 0.03464 0.1064 0.0
H838 H 0.31528 0.95399 0.12593 0.0
H839 H 0.32096 0.95568 0.10833 0.0
H840 H 0.33607 0.99382 0.11885 0.0
H841 H 0.1501 0.98038 0.11072 0.0
H842 H 0.1736 0.94197 0.10388 0.0
H843 H 0.17429 0.94761 0.12169 0.0
H844 H 0.22922 0.85119 0.09646 0.0
H845 H 0.22724 0.86138 0.13913 0.0
H846 H 0.27285 0.93943 0.09112 0.0
H847 H 0.22425 0.9361 0.08741 0.0
H848 H 0.25335 0.89844 0.08327 0.0
H849 H 0.2679 0.95382 0.14145 0.0
H850 H 0.25043 0.91567 0.15062 0.0
H851 H 0.21946 0.94826 0.14221 0.0
C852 C 0.49956 0.03324 0.39755 0.0
C853 C 0.53315 0.05216 0.39876 0.0
C854 C 0.49756 0.99647 0.39312 0.0
C855 C 0.52998 0.97811 0.39002 0.0
C856 C 0.56328 0.99804 0.39015 0.0
C857 C 0.56443 0.03473 0.39449 0.0
C858 C 0.4613 0.97666 0.39273 0.0
C859 C 0.59858 0.97971 0.38685 0.0
C860 C 0.55357 0.88069 0.39986 0.0
C861 C 0.55675 0.86435 0.38732 0.0
C862 C 0.54086 0.91681 0.4009 0.0
C863 C 0.53127 0.93718 0.38906 0.0
C864 C 0.53009 0.91922 0.37642 0.0
C865 C 0.54305 0.8828 0.37568 0.0
C866 C 0.54187 0.93438 0.41463 0.0
C867 C 0.51869 0.93944 0.3636 0.0
H868 H 0.47507 0.0467 0.40058 0.0
H869 H 0.59056 0.04886 0.39546 0.0
H870 H 0.45843 0.95675 0.38429 0.0
H871 H 0.45964 0.96102 0.40219 0.0
H872 H 0.43791 0.99627 0.39176 0.0
H873 H 0.62117 0.9998 0.3861 0.0
H874 H 0.60716 0.95948 0.39481 0.0
H875 H 0.59453 0.9645 0.37723 0.0
H876 H 0.56391 0.86617 0.40887 0.0
H877 H 0.54546 0.8701 0.36597 0.0
H878 H 0.51626 0.94998 0.41582 0.0
H879 H 0.56503 0.95412 0.41579 0.0
H880 H 0.5455 0.91372 0.42282 0.0
H881 H 0.49625 0.95926 0.36507 0.0
H882 H 0.50956 0.92005 0.35542 0.0
H883 H 0.54241 0.95519 0.36037 0.0
C884 C 0.06196 0.98297 0.90692 0.0
C885 C 0.08577 0.96393 0.91619 0.0
C886 C 0.06706 0.02041 0.90424 0.0
C887 C 0.0969 0.03954 0.91092 0.0
C888 C 0.12026 0.02095 0.92069 0.0
C889 C 0.11436 0.9834 0.92323 0.0
C890 C 0.04156 0.039 0.89368 0.0
C891 C 0.1519 0.04048 0.92823 0.0
C892 C 0.12871 0.11489 0.88862 0.0
C893 C 0.10948 0.14542 0.89296 0.0
C894 C 0.12738 0.08092 0.89517 0.0
C895 C 0.1059 0.07725 0.90628 0.0
C896 C 0.08891 0.10884 0.9114 0.0
C897 C 0.09068 0.14267 0.90459 0.0
C898 C 0.14652 0.04827 0.88948 0.0
C899 C 0.06669 0.10637 0.92345 0.0
H900 H 0.04007 0.96822 0.90129 0.0
H901 H 0.13245 0.96914 0.93062 0.0
H902 H 0.03081 0.06502 0.89766 0.0
H903 H 0.05688 0.04608 0.88488 0.0
H904 H 0.01799 0.02126 0.89021 0.0
H905 H 0.1693 0.02145 0.93468 0.0
H906 H 0.16932 0.05427 0.92114 0.0
H907 H 0.14116 0.06215 0.93468 0.0
H908 H 0.14326 0.11712 0.87961 0.0
H909 H 0.0756 0.16628 0.90789 0.0
H910 H 0.12578 0.02912 0.88471 0.0
H911 H 0.16246 0.03298 0.89759 0.0
H912 H 0.16537 0.05653 0.88182 0.0
H913 H 0.04032 0.09236 0.92055 0.0
H914 H 0.06066 0.13399 0.92751 0.0
H915 H 0.08136 0.08982 0.93151 0.0
C916 C 0.13456 0.17278 0.98176 0.0
C917 C 0.16893 0.18185 0.98812 0.0
C918 C 0.12707 0.17782 0.96786 0.0
C919 C 0.1544 0.19286 0.96021 0.0
C920 C 0.18972 0.20024 0.96648 0.0
C921 C 0.19657 0.19452 0.98034 0.0
C922 C 0.08933 0.16891 0.9615 0.0
C923 C 0.21957 0.21663 0.95874 0.0
C924 C 0.14636 0.20058 0.92203 0.0
C925 C 0.1348 0.23714 0.92034 0.0
C926 C 0.151 0.18479 0.93493 0.0
C927 C 0.14471 0.20649 0.94633 0.0
C928 C 0.13189 0.24306 0.94456 0.0
C929 C 0.12702 0.2578 0.93162 0.0
C930 C 0.16399 0.1455 0.9364 0.0
C931 C 0.12491 0.26732 0.95639 0.0
H932 H 0.11329 0.16235 0.9877 0.0
H933 H 0.22312 0.20176 0.9852 0.0
H934 H 0.07426 0.19483 0.95899 0.0
H935 H 0.09129 0.15349 0.952 0.0
H936 H 0.07309 0.15247 0.96829 0.0
H937 H 0.24651 0.21703 0.96471 0.0
H938 H 0.22249 0.20094 0.94937 0.0
H939 H 0.21211 0.24531 0.95584 0.0
H940 H 0.15334 0.18492 0.91337 0.0
H941 H 0.11792 0.28608 0.93034 0.0
H942 H 0.14635 0.12999 0.94295 0.0
H943 H 0.19229 0.14489 0.94127 0.0
H944 H 0.16388 0.13124 0.92655 0.0
H945 H 0.10558 0.25372 0.96282 0.0
H946 H 0.11339 0.29455 0.95324 0.0
H947 H 0.15095 0.27185 0.96264 0.0
C948 C 0.08335 0.78903 0.23048 0.0
C949 C 0.11731 0.79872 0.23707 0.0
C950 C 0.0805 0.77829 0.2169 0.0
C951 C 0.11236 0.77766 0.20971 0.0
C952 C 0.14641 0.78878 0.21619 0.0
C953 C 0.14847 0.79894 0.22975 0.0
C954 C 0.04326 0.76738 0.2106 0.0
C955 C 0.18118 0.78839 0.20896 0.0
C956 C 0.131 0.71261 0.18174 0.0
C957 C 0.13306 0.73707 0.17098 0.0
C958 C 0.12035 0.7248 0.19415 0.0
C959 C 0.11181 0.76238 0.19586 0.0
C960 C 0.10949 0.78613 0.1846 0.0
C961 C 0.1207 0.77334 0.17229 0.0
C962 C 0.12118 0.69813 0.20575 0.0
C963 C 0.09796 0.82573 0.18584 0.0
H964 H 0.05892 0.78939 0.23595 0.0
H965 H 0.17496 0.80573 0.23476 0.0
H966 H 0.02559 0.79223 0.20963 0.0
H967 H 0.04407 0.75458 0.20055 0.0
H968 H 0.03002 0.74791 0.21728 0.0
H969 H 0.20505 0.79957 0.21522 0.0
H970 H 0.18766 0.75977 0.20606 0.0
H971 H 0.1774 0.80487 0.19961 0.0
H972 H 0.13982 0.68433 0.18068 0.0
H973 H 0.12211 0.79238 0.16401 0.0
H974 H 0.0957 0.70069 0.21102 0.0
H975 H 0.14463 0.70479 0.21307 0.0
H976 H 0.12406 0.66917 0.20243 0.0
H977 H 0.07413 0.8279 0.19203 0.0
H978 H 0.09057 0.83834 0.17586 0.0
H979 H 0.12086 0.84166 0.19095 0.0
C980 C 0.64459 0.6434 0.47963 0.0
C981 C 0.63386 0.67404 0.48699 0.0
C982 C 0.64231 0.64396 0.46551 0.0
C983 C 0.62964 0.6761 0.45862 0.0
C984 C 0.61654 0.70608 0.46596 0.0
C985 C 0.61859 0.70456 0.48002 0.0
C986 C 0.65551 0.61102 0.45804 0.0
C987 C 0.60248 0.74081 0.45902 0.0
C988 C 0.66995 0.71124 0.42754 0.0
C989 C 0.63974 0.70933 0.41804 0.0
C990 C 0.66799 0.6976 0.44055 0.0
C991 C 0.63508 0.68119 0.44413 0.0
C992 C 0.60589 0.67552 0.43415 0.0
C993 C 0.60832 0.69023 0.42123 0.0
C994 C 0.7 0.70395 0.45079 0.0
C995 C 0.57099 0.65657 0.43735 0.0
H996 H 0.65639 0.6196 0.48489 0.0
H997 H 0.60919 0.72788 0.48558 0.0
H998 H 0.63769 0.6059 0.44871 0.0
H999 H 0.68362 0.61632 0.45508 0.0
H1000 H 0.6563 0.5858 0.46433 0.0
H1001 H 0.59088 0.76051 0.46607 0.0
H1002 H 0.62523 0.7546 0.45427 0.0
H1003 H 0.581 0.73413 0.45094 0.0
H1004 H 0.69448 0.7256 0.42505 0.0
H1005 H 0.58481 0.68875 0.41394 0.0
H1006 H 0.70701 0.67833 0.45644 0.0
H1007 H 0.6924 0.72499 0.45814 0.0
H1008 H 0.72479 0.71363 0.4461 0.0
H1009 H 0.57664 0.63394 0.44467 0.0
H1010 H 0.55612 0.64519 0.42814 0.0
H1011 H 0.55278 0.67675 0.44186 0.0
C1012 C 0.58743 0.27221 0.72819 0.0
C1013 C 0.61982 0.28659 0.73464 0.0
C1014 C 0.58556 0.26215 0.71456 0.0
C1015 C 0.61689 0.26643 0.70723 0.0
C1016 C 0.64922 0.28202 0.71359 0.0
C1017 C 0.65029 0.29178 0.72718 0.0
C1018 C 0.55041 0.24558 0.70836 0.0
C1019 C 0.68335 0.287 0.70619 0.0
C1020 C 0.64126 0.20606 0.67855 0.0
C1021 C 0.63863 0.23108 0.66785 0.0
C1022 C 0.63097 0.21618 0.69126 0.0
C1023 C 0.61775 0.25218 0.6933 0.0
C1024 C 0.61135 0.27617 0.6822 0.0
C1025 C 0.6225 0.26558 0.66962 0.0
C1026 C 0.63691 0.18931 0.70274 0.0
C1027 C 0.59536 0.31402 0.68381 0.0
H1028 H 0.56356 0.26844 0.73381 0.0
H1029 H 0.67565 0.30221 0.73209 0.0
H1030 H 0.52633 0.26009 0.71199 0.0
H1031 H 0.54837 0.24637 0.69724 0.0
H1032 H 0.54889 0.21643 0.71157 0.0
H1033 H 0.7057 0.30095 0.71242 0.0
H1034 H 0.69352 0.25976 0.70308 0.0
H1035 H 0.67696 0.30346 0.69695 0.0
H1036 H 0.65323 0.17915 0.67718 0.0
H1037 H 0.6207 0.28524 0.66146 0.0
H1038 H 0.61193 0.1876 0.70833 0.0
H1039 H 0.65966 0.19911 0.70985 0.0
H1040 H 0.64382 0.1613 0.69926 0.0
H1041 H 0.57323 0.3134 0.69079 0.0
H1042 H 0.5841 0.32546 0.67402 0.0
H1043 H 0.61712 0.33277 0.68811 0.0
C1044 C 0.12383 0.74396 0.02746 0.0
C1045 C 0.1206 0.71769 0.01717 0.0
C1046 C 0.13054 0.73355 0.0409 0.0
C1047 C 0.1347 0.69579 0.04423 0.0
C1048 C 0.13303 0.66909 0.03388 0.0
C1049 C 0.12577 0.68035 0.02044 0.0
C1050 C 0.13239 0.76316 0.05158 0.0
C1051 C 0.13772 0.62865 0.03696 0.0
C1052 C 0.17568 0.69421 0.07978 0.0
C1053 C 0.14372 0.69628 0.08657 0.0
C1054 C 0.17369 0.68815 0.06586 0.0
C1055 C 0.13888 0.68526 0.05867 0.0
C1056 C 0.10709 0.6822 0.06581 0.0
C1057 C 0.10992 0.68791 0.07973 0.0
C1058 C 0.20841 0.68994 0.05869 0.0
C1059 C 0.06949 0.67839 0.05859 0.0
H1060 H 0.12095 0.77291 0.025 0.0
H1061 H 0.12329 0.65986 0.01254 0.0
H1062 H 0.1107 0.75858 0.05856 0.0
H1063 H 0.15922 0.76203 0.05756 0.0
H1064 H 0.1288 0.79122 0.04726 0.0
H1065 H 0.14523 0.61295 0.02803 0.0
H1066 H 0.15901 0.62397 0.04533 0.0
H1067 H 0.11151 0.61745 0.04007 0.0
H1068 H 0.20179 0.7013 0.08503 0.0
H1069 H 0.08518 0.68981 0.085 0.0
H1070 H 0.21183 0.71823 0.05481 0.0
H1071 H 0.20713 0.6708 0.05002 0.0
H1072 H 0.23287 0.68315 0.06555 0.0
H1073 H 0.06077 0.70537 0.05421 0.0
H1074 H 0.04883 0.66949 0.06549 0.0
H1075 H 0.06987 0.65831 0.05025 0.0
C1076 C 0.63536 0.79309 0.2742 0.0
C1077 C 0.66625 0.79205 0.26675 0.0
C1078 C 0.6379 0.78434 0.28788 0.0
C1079 C 0.67219 0.77384 0.29437 0.0
C1080 C 0.70372 0.77329 0.28699 0.0
C1081 C 0.70038 0.78262 0.27329 0.0
C1082 C 0.60344 0.78509 0.2953 0.0
C1083 C 0.74114 0.76287 0.29329 0.0
C1084 C 0.66468 0.77675 0.33178 0.0
C1085 C 0.65198 0.74106 0.33399 0.0
C1086 C 0.67601 0.78691 0.31918 0.0
C1087 C 0.6734 0.76108 0.30855 0.0
C1088 C 0.66473 0.72404 0.31121 0.0
C1089 C 0.654 0.71447 0.32391 0.0
C1090 C 0.68766 0.82602 0.31694 0.0
C1091 C 0.66361 0.69524 0.30031 0.0
H1092 H 0.60875 0.79963 0.26922 0.0
H1093 H 0.72458 0.78228 0.26769 0.0
H1094 H 0.59736 0.75701 0.29886 0.0
H1095 H 0.60741 0.80313 0.30425 0.0
H1096 H 0.57924 0.79517 0.28892 0.0
H1097 H 0.7545 0.74315 0.28671 0.0
H1098 H 0.75854 0.78786 0.29407 0.0
H1099 H 0.74058 0.75053 0.30342 0.0
H1100 H 0.66329 0.79746 0.33952 0.0
H1101 H 0.64491 0.68664 0.32567 0.0
H1102 H 0.66453 0.84139 0.31169 0.0
H1103 H 0.71102 0.82679 0.31049 0.0
H1104 H 0.69578 0.84021 0.32657 0.0
H1105 H 0.63978 0.70052 0.29298 0.0
H1106 H 0.66111 0.66699 0.30438 0.0
H1107 H 0.68878 0.69673 0.29481 0.0
C1108 C 0.65923 0.23298 0.52359 0.0
C1109 C 0.6433 0.20934 0.5137 0.0
C1110 C 0.66149 0.22323 0.53717 0.0
C1111 C 0.64831 0.18845 0.54101 0.0
C1112 C 0.63593 0.16284 0.53098 0.0
C1113 C 0.63313 0.17374 0.51741 0.0
C1114 C 0.67532 0.25148 0.54746 0.0
C1115 C 0.6234 0.1248 0.53452 0.0
C1116 C 0.66863 0.18314 0.57845 0.0
C1117 C 0.63726 0.20076 0.58255 0.0
C1118 C 0.67083 0.17332 0.56491 0.0
C1119 C 0.64158 0.18265 0.55537 0.0
C1120 C 0.60813 0.19555 0.55986 0.0
C1121 C 0.60633 0.20415 0.57343 0.0
C1122 C 0.70581 0.15656 0.56068 0.0
C1123 C 0.57574 0.20496 0.55014 0.0
H1124 H 0.66851 0.25997 0.52074 0.0
H1125 H 0.62123 0.15501 0.50984 0.0
H1126 H 0.65276 0.25974 0.55364 0.0
H1127 H 0.69756 0.23961 0.55431 0.0
H1128 H 0.68597 0.27658 0.54276 0.0
H1129 H 0.62917 0.1048 0.52654 0.0
H1130 H 0.63685 0.1151 0.54423 0.0
H1131 H 0.59332 0.12508 0.5353 0.0
H1132 H 0.69248 0.17987 0.58551 0.0
H1133 H 0.58168 0.21687 0.57668 0.0
H1134 H 0.72456 0.17877 0.55792 0.0
H1135 H 0.70038 0.13837 0.55182 0.0
H1136 H 0.71996 0.14042 0.569 0.0
H1137 H 0.58235 0.22952 0.54419 0.0
H1138 H 0.55069 0.21103 0.55535 0.0
H1139 H 0.56966 0.18199 0.54303 0.0
C1140 C 0.20259 0.29615 0.77344 0.0
C1141 C 0.16876 0.30552 0.76666 0.0
C1142 C 0.20526 0.28727 0.78719 0.0
C1143 C 0.17338 0.28829 0.79437 0.0
C1144 C 0.13949 0.2992 0.78768 0.0
C1145 C 0.13759 0.30745 0.77395 0.0
C1146 C 0.24235 0.27685 0.7938 0.0
C1147 C 0.1047 0.30055 0.79489 0.0
C1148 C 0.15389 0.22687 0.82325 0.0
C1149 C 0.15241 0.25249 0.83369 0.0
C1150 C 0.16453 0.23747 0.81066 0.0
C1151 C 0.17366 0.27463 0.80843 0.0
C1152 C 0.17646 0.29954 0.81935 0.0
C1153 C 0.16537 0.28829 0.83188 0.0
C1154 C 0.16313 0.20956 0.79944 0.0
C1155 C 0.18845 0.33875 0.81754 0.0
H1156 H 0.22702 0.29531 0.76797 0.0
H1157 H 0.1112 0.31405 0.76881 0.0
H1158 H 0.25821 0.30238 0.79607 0.0
H1159 H 0.24072 0.26128 0.80327 0.0
H1160 H 0.25794 0.2602 0.78685 0.0
H1161 H 0.08109 0.31165 0.78845 0.0
H1162 H 0.09765 0.27245 0.79817 0.0
H1163 H 0.10879 0.31794 0.80401 0.0
H1164 H 0.14474 0.1989 0.8247 0.0
H1165 H 0.16465 0.30817 0.83994 0.0
H1166 H 0.18856 0.21094 0.79409 0.0
H1167 H 0.1397 0.21593 0.79206 0.0
H1168 H 0.15982 0.18105 0.80316 0.0
H1169 H 0.21233 0.33976 0.81135 0.0
H1170 H 0.19592 0.3524 0.82732 0.0
H1171 H 0.16576 0.35447 0.81217 0.0
loop_
_geom_bond_atom_site_label_1
_geom_bond_atom_site_label_2
_geom_bond_distance
_geom_bond_site_symmetry_2
_ccdc_geom_bond_type
C0 C1 1.264 . S
C0 C5 1.479 . S
C0 C10 1.465 . S
C1 C0 1.264 . S
C1 C3 1.339 . S
C1 H28 0.931 . S
C2 C3 1.395 . S
C2 C4 1.320 . S
C3 C1 1.339 . S
C3 C2 1.395 . S
C3 H29 0.929 . S
C4 C2 1.320 . S
C4 C5 1.405 . S
C4 H30 0.930 . S
C5 C0 1.479 . S
C5 C4 1.405 . S
C5 H31 0.931 . S
U6 O7 2.454 . S
U6 O8 2.458 . S
U6 C9 2.984 . S
U6 C10 2.847 . S
U6 C23 2.882 . S
U6 O24 2.441 . S
U6 O25 2.420 . S
U6 O26 2.455 . S
U6 O27 2.449 . S
O7 U6 2.454 . S
O7 C9 1.353 . S
O8 U6 2.458 . S
O8 C9 1.286 . S
C9 U6 2.984 . S
C9 O7 1.353 . S
C9 O8 1.286 . S
C9 C11 1.363 . S
C10 C0 1.465 . S
C10 U6 2.847 . S
C10 O24 1.249 . S
C10 O25 1.202 . S
C11 C9 1.363 . S
C11 C13 1.408 . S
C11 C16 1.342 . S
C12 C13 1.310 . S
C12 C15 1.461 . S
C12 H32 0.932 . S
C13 C11 1.408 . S
C13 C12 1.310 . S
C13 H33 0.930 . S
C14 C15 1.474 . S
C14 C16 1.285 . S
C14 H34 0.929 . S
C15 C12 1.461 . S
C15 C14 1.474 . S
C16 C11 1.342 . S
C16 C14 1.285 . S
C16 H35 0.930 . S
C17 C20 1.424 . S
C17 C22 1.245 . S
C17 C23 1.428 . S
C18 C21 1.255 1_554 S
C18 C22 1.477 . S
C18 H36 0.932 . S
C19 C20 1.384 . S
C19 C21 1.474 1_554 S
C19 H37 0.929 . S
C20 C17 1.424 . S
C20 C19 1.384 . S
C20 H38 0.928 . S
C21 C18 1.255 1_556 S
C21 C19 1.474 1_556 S
C22 C17 1.245 . S
C22 C18 1.477 . S
C22 H39 0.932 . S
C23 U6 2.882 . S
C23 C17 1.428 . S
C23 O26 1.301 . S
C23 O27 1.282 . S
O24 U6 2.441 . S
O24 C10 1.249 . S
O25 U6 2.420 . S
O25 C10 1.202 . S
O26 U6 2.455 . S
O26 C23 1.301 . S
O27 U6 2.449 . S
O27 C23 1.282 . S
H28 C1 0.931 . S
H29 C3 0.929 . S
H30 C4 0.930 . S
H31 C5 0.931 . S
H32 C12 0.932 . S
H33 C13 0.930 . S
H34 C14 0.929 . S
H35 C16 0.930 . S
H36 C18 0.932 . S
H37 C19 0.929 . S
H38 C20 0.928 . S
H39 C22 0.932 . S
C40 C41 1.264 . S
C40 C45 1.479 . S
C40 C50 1.465 . S
C41 C40 1.264 . S
C41 C43 1.339 . S
C41 H68 0.931 . S
C42 C43 1.395 . S
C42 C44 1.320 . S
C43 C41 1.339 . S
C43 C42 1.395 . S
C43 H69 0.929 . S
C44 C42 1.320 . S
C44 C45 1.405 . S
C44 H70 0.930 . S
C45 C40 1.479 . S
C45 C44 1.405 . S
C45 H71 0.931 . S
U46 O47 2.454 . S
U46 O48 2.458 . S
U46 C49 2.984 . S
U46 C50 2.847 . S
U46 C63 2.882 . S
U46 O64 2.441 . S
U46 O65 2.420 . S
U46 O66 2.455 . S
U46 O67 2.449 . S
O47 U46 2.454 . S
O47 C49 1.353 . S
O48 U46 2.458 . S
O48 C49 1.286 . S
C49 U46 2.984 . S
C49 O47 1.353 . S
C49 O48 1.286 . S
C49 C51 1.363 . S
C50 C40 1.465 . S
C50 U46 2.847 . S
C50 O64 1.249 . S
C50 O65 1.202 . S
C51 C49 1.363 . S
C51 C53 1.408 . S
C51 C56 1.342 1_455 S
C52 C53 1.310 1_655 S
C52 C55 1.461 . S
C52 H72 0.932 . S
C53 C51 1.408 . S
C53 C52 1.310 1_455 S
C53 H73 0.930 . S
C54 C55 1.474 . S
C54 C56 1.285 . S
C54 H74 0.929 . S
C55 C52 1.461 . S
C55 C54 1.474 . S
C56 C51 1.342 1_655 S
C56 C54 1.285 . S
C56 H75 0.930 . S
C57 C60 1.424 . S
C57 C62 1.245 . S
C57 C63 1.428 . S
C58 C61 1.260 . S
C58 C62 1.477 . S
C58 H76 0.932 . S
C59 C60 1.384 . S
C59 C61 1.479 . S
C59 H77 0.929 . S
C60 C57 1.424 . S
C60 C59 1.384 . S
C60 H78 0.928 . S
C61 C58 1.260 . S
C61 C59 1.479 . S
C62 C57 1.245 . S
C62 C58 1.477 . S
C62 H79 0.932 . S
C63 U46 2.882 . S
C63 C57 1.428 . S
C63 O66 1.301 . S
C63 O67 1.282 . S
O64 U46 2.441 . S
O64 C50 1.249 . S
O65 U46 2.420 . S
O65 C50 1.202 . S
O66 U46 2.455 . S
O66 C63 1.301 . S
O67 U46 2.449 . S
O67 C63 1.282 . S
H68 C41 0.931 . S
H69 C43 0.929 . S
H70 C44 0.930 . S
H71 C45 0.931 . S
H72 C52 0.932 . S
H73 C53 0.930 . S
H74 C54 0.929 . S
H75 C56 0.930 . S
H76 C58 0.932 . S
H77 C59 0.929 . S
H78 C60 0.928 . S
H79 C62 0.932 . S
C80 C81 1.264 . S
C80 C85 1.479 . S
C80 C90 1.465 . S
C81 C80 1.264 . S
C81 C83 1.339 . S
C81 H108 0.931 . S
C82 C83 1.395 . S
C82 C84 1.320 . S
C83 C81 1.339 . S
C83 C82 1.395 . S
C83 H109 0.929 . S
C84 C82 1.320 . S
C84 C85 1.405 . S
C84 H110 0.930 . S
C85 C80 1.479 . S
C85 C84 1.405 . S
C85 H111 0.931 . S
U86 O87 2.454 . S
U86 O88 2.458 . S
U86 C89 2.984 . S
U86 C90 2.847 . S
U86 C103 2.882 . S
U86 O104 2.441 . S
U86 O105 2.420 . S
U86 O106 2.455 . S
U86 O107 2.449 . S
O87 U86 2.454 . S
O87 C89 1.353 . S
O88 U86 2.458 . S
O88 C89 1.286 . S
C89 U86 2.984 . S
C89 O87 1.353 . S
C89 O88 1.286 . S
C89 C91 1.363 . S
C90 C80 1.465 . S
C90 U86 2.847 . S
C90 O104 1.249 . S
C90 O105 1.202 . S
C91 C89 1.363 . S
C91 C93 1.408 . S
C91 C96 1.342 . S
C92 C93 1.310 . S
C92 C95 1.461 . S
C92 H112 0.932 . S
C93 C91 1.408 . S
C93 C92 1.310 . S
C93 H113 0.930 . S
C94 C95 1.474 . S
C94 C96 1.285 . S
C94 H114 0.929 . S
C95 C92 1.461 . S
C95 C94 1.474 . S
C96 C91 1.342 . S
C96 C94 1.285 . S
C96 H115 0.930 . S
C97 C100 1.424 . S
C97 C102 1.245 . S
C97 C103 1.428 . S
C98 C101 1.260 . S
C98 C102 1.477 . S
C98 H116 0.932 . S
C99 C100 1.384 . S
C99 C101 1.479 . S
C99 H117 0.929 . S
C100 C97 1.424 . S
C100 C99 1.384 . S
C100 H118 0.928 . S
C101 C98 1.260 . S
C101 C99 1.479 . S
C102 C97 1.245 . S
C102 C98 1.477 . S
C102 H119 0.932 . S
C103 U86 2.882 . S
C103 C97 1.428 . S
C103 O106 1.301 . S
C103 O107 1.282 . S
O104 U86 2.441 . S
O104 C90 1.249 . S
O105 U86 2.420 . S
O105 C90 1.202 . S
O106 U86 2.455 . S
O106 C103 1.301 . S
O107 U86 2.449 . S
O107 C103 1.282 . S
H108 C81 0.931 . S
H109 C83 0.929 . S
H110 C84 0.930 . S
H111 C85 0.931 . S
H112 C92 0.932 . S
H113 C93 0.930 . S
H114 C94 0.929 . S
H115 C96 0.930 . S
H116 C98 0.932 . S
H117 C99 0.929 . S
H118 C100 0.928 . S
H119 C102 0.932 . S
C120 C121 1.264 . S
C120 C125 1.479 . S
C120 C130 1.465 . S
C121 C120 1.264 . S
C121 C123 1.339 . S
C121 H148 0.931 . S
C122 C123 1.395 . S
C122 C124 1.320 . S
C123 C121 1.339 . S
C123 C122 1.395 . S
C123 H149 0.929 . S
C124 C122 1.320 . S
C124 C125 1.405 . S
C124 H150 0.930 . S
C125 C120 1.479 . S
C125 C124 1.405 . S
C125 H151 0.931 . S
U126 O127 2.454 . S
U126 O128 2.458 . S
U126 C129 2.984 . S
U126 C130 2.847 . S
U126 C143 2.882 . S
U126 O144 2.441 . S
U126 O145 2.420 . S
U126 O146 2.455 . S
U126 O147 2.449 . S
O127 U126 2.454 . S
O127 C129 1.353 . S
O128 U126 2.458 . S
O128 C129 1.286 . S
C129 U126 2.984 . S
C129 O127 1.353 . S
C129 O128 1.286 . S
C129 C131 1.363 . S
C130 C120 1.465 . S
C130 U126 2.847 . S
C130 O144 1.249 . S
C130 O145 1.202 . S
C131 C129 1.363 . S
C131 C133 1.408 . S
C131 C136 1.342 . S
C132 C133 1.310 . S
C132 C135 1.461 . S
C132 H152 0.932 . S
C133 C131 1.408 . S
C133 C132 1.310 . S
C133 H153 0.930 . S
C134 C135 1.474 . S
C134 C136 1.285 . S
C134 H154 0.929 . S
C135 C132 1.461 . S
C135 C134 1.474 . S
C136 C131 1.342 . S
C136 C134 1.285 . S
C136 H155 0.930 . S
C137 C140 1.424 . S
C137 C142 1.245 . S
C137 C143 1.428 . S
C138 C141 1.260 . S
C138 C142 1.477 . S
C138 H156 0.932 . S
C139 C140 1.384 . S
C139 C141 1.479 . S
C139 H157 0.929 . S
C140 C137 1.424 . S
C140 C139 1.384 . S
C140 H158 0.928 . S
C141 C138 1.260 . S
C141 C139 1.479 . S
C142 C137 1.245 . S
C142 C138 1.477 . S
C142 H159 0.932 . S
C143 U126 2.882 . S
C143 C137 1.428 . S
C143 O146 1.301 . S
C143 O147 1.282 . S
O144 U126 2.441 . S
O144 C130 1.249 . S
O145 U126 2.420 . S
O145 C130 1.202 . S
O146 U126 2.455 . S
O146 C143 1.301 . S
O147 U126 2.449 . S
O147 C143 1.282 . S
H148 C121 0.931 . S
H149 C123 0.929 . S
H150 C124 0.930 . S
H151 C125 0.931 . S
H152 C132 0.932 . S
H153 C133 0.930 . S
H154 C134 0.929 . S
H155 C136 0.930 . S
H156 C138 0.932 . S
H157 C139 0.929 . S
H158 C140 0.928 . S
H159 C142 0.932 . S
C160 C161 1.264 . S
C160 C165 1.479 . S
C160 C170 1.465 . S
C161 C160 1.264 . S
C161 C163 1.339 . S
C161 H188 0.931 . S
C162 C163 1.395 . S
C162 C164 1.320 . S
C163 C161 1.339 . S
C163 C162 1.395 . S
C163 H189 0.929 . S
C164 C162 1.320 . S
C164 C165 1.405 . S
C164 H190 0.930 . S
C165 C160 1.479 . S
C165 C164 1.405 . S
C165 H191 0.931 . S
U166 O167 2.454 . S
U166 O168 2.458 . S
U166 C169 2.984 . S
U166 C170 2.847 . S
U166 C183 2.882 . S
U166 O184 2.441 . S
U166 O185 2.420 . S
U166 O186 2.455 . S
U166 O187 2.449 . S
O167 U166 2.454 . S
O167 C169 1.353 . S
O168 U166 2.458 . S
O168 C169 1.286 . S
C169 U166 2.984 . S
C169 O167 1.353 . S
C169 O168 1.286 . S
C169 C171 1.363 . S
C170 C160 1.465 . S
C170 U166 2.847 . S
C170 O184 1.249 . S
C170 O185 1.202 . S
C171 C169 1.363 . S
C171 C173 1.408 . S
C171 C176 1.342 . S
C172 C173 1.310 . S
C172 C175 1.461 . S
C172 H192 0.932 . S
C173 C171 1.408 . S
C173 C172 1.310 . S
C173 H193 0.930 . S
C174 C175 1.474 . S
C174 C176 1.285 . S
C174 H194 0.929 . S
C175 C172 1.461 . S
C175 C174 1.474 . S
C176 C171 1.342 . S
C176 C174 1.285 . S
C176 H195 0.930 . S
C177 C180 1.424 . S
C177 C182 1.245 . S
C177 C183 1.428 . S
C178 C181 1.260 . S
C178 C182 1.477 . S
C178 H196 0.932 . S
C179 C180 1.384 . S
C179 C181 1.479 . S
C179 H197 0.929 . S
C180 C177 1.424 . S
C180 C179 1.384 . S
C180 H198 0.928 . S
C181 C178 1.260 . S
C181 C179 1.479 . S
C182 C177 1.245 . S
C182 C178 1.477 . S
C182 H199 0.932 . S
C183 U166 2.882 . S
C183 C177 1.428 . S
C183 O186 1.301 . S
C183 O187 1.282 . S
O184 U166 2.441 . S
O184 C170 1.249 . S
O185 U166 2.420 . S
O185 C170 1.202 . S
O186 U166 2.455 . S
O186 C183 1.301 . S
O187 U166 2.449 . S
O187 C183 1.282 . S
H188 C161 0.931 . S
H189 C163 0.929 . S
H190 C164 0.930 . S
H191 C165 0.931 . S
H192 C172 0.932 . S
H193 C173 0.930 . S
H194 C174 0.929 . S
H195 C176 0.930 . S
H196 C178 0.932 . S
H197 C179 0.929 . S
H198 C180 0.928 . S
H199 C182 0.932 . S
C200 C201 1.264 . S
C200 C205 1.479 . S
C200 C210 1.465 . S
C201 C200 1.264 . S
C201 C203 1.339 . S
C201 H228 0.931 . S
C202 C203 1.395 . S
C202 C204 1.320 . S
C203 C201 1.339 . S
C203 C202 1.395 . S
C203 H229 0.929 . S
C204 C202 1.320 . S
C204 C205 1.405 . S
C204 H230 0.930 . S
C205 C200 1.479 . S
C205 C204 1.405 . S
C205 H231 0.931 . S
U206 O207 2.454 . S
U206 O208 2.458 . S
U206 C209 2.984 . S
U206 C210 2.847 . S
U206 C223 2.882 . S
U206 O224 2.441 . S
U206 O225 2.420 . S
U206 O226 2.455 . S
U206 O227 2.449 . S
O207 U206 2.454 . S
O207 C209 1.353 . S
O208 U206 2.458 . S
O208 C209 1.286 . S
C209 U206 2.984 . S
C209 O207 1.353 . S
C209 O208 1.286 . S
C209 C211 1.363 . S
C210 C200 1.465 . S
C210 U206 2.847 . S
C210 O224 1.249 . S
C210 O225 1.202 . S
C211 C209 1.363 . S
C211 C213 1.408 . S
C211 C216 1.342 . S
C212 C213 1.310 . S
C212 C215 1.461 . S
C212 H232 0.932 . S
C213 C211 1.408 . S
C213 C212 1.310 . S
C213 H233 0.930 . S
C214 C215 1.474 . S
C214 C216 1.285 . S
C214 H234 0.929 . S
C215 C212 1.461 . S
C215 C214 1.474 . S
C216 C211 1.342 . S
C216 C214 1.285 . S
C216 H235 0.930 . S
C217 C220 1.424 . S
C217 C222 1.245 . S
C217 C223 1.428 . S
C218 C221 1.260 . S
C218 C222 1.477 . S
C218 H236 0.932 . S
C219 C220 1.384 . S
C219 C221 1.479 . S
C219 H237 0.929 . S
C220 C217 1.424 . S
C220 C219 1.384 . S
C220 H238 0.928 . S
C221 C218 1.260 . S
C221 C219 1.479 . S
C222 C217 1.245 . S
C222 C218 1.477 . S
C222 H239 0.932 . S
C223 U206 2.882 . S
C223 C217 1.428 . S
C223 O226 1.301 . S
C223 O227 1.282 . S
O224 U206 2.441 . S
O224 C210 1.249 . S
O225 U206 2.420 . S
O225 C210 1.202 . S
O226 U206 2.455 . S
O226 C223 1.301 . S
O227 U206 2.449 . S
O227 C223 1.282 . S
H228 C201 0.931 . S
H229 C203 0.929 . S
H230 C204 0.930 . S
H231 C205 0.931 . S
H232 C212 0.932 . S
H233 C213 0.930 . S
H234 C214 0.929 . S
H235 C216 0.930 . S
H236 C218 0.932 . S
H237 C219 0.929 . S
H238 C220 0.928 . S
H239 C222 0.932 . S
C240 C241 1.264 . S
C240 C245 1.479 . S
C240 C250 1.465 . S
C241 C240 1.264 . S
C241 C243 1.339 . S
C241 H268 0.931 . S
C242 C243 1.395 . S
C242 C244 1.320 . S
C243 C241 1.339 . S
C243 C242 1.395 . S
C243 H269 0.929 . S
C244 C242 1.320 . S
C244 C245 1.405 . S
C244 H270 0.930 . S
C245 C240 1.479 . S
C245 C244 1.405 . S
C245 H271 0.931 . S
U246 O247 2.454 . S
U246 O248 2.458 . S
U246 C249 2.984 . S
U246 C250 2.847 . S
U246 C263 2.882 . S
U246 O264 2.441 . S
U246 O265 2.420 . S
U246 O266 2.455 . S
U246 O267 2.449 . S
O247 U246 2.454 . S
O247 C249 1.353 . S
O248 U246 2.458 . S
O248 C249 1.286 . S
C249 U246 2.984 . S
C249 O247 1.353 . S
C249 O248 1.286 . S
C249 C251 1.363 . S
C250 C240 1.465 . S
C250 U246 2.847 . S
C250 O264 1.249 . S
C250 O265 1.202 . S
C251 C249 1.363 . S
C251 C253 1.408 . S
C251 C256 1.342 . S
C252 C253 1.310 . S
C252 C255 1.461 . S
C252 H272 0.932 . S
C253 C251 1.408 . S
C253 C252 1.310 . S
C253 H273 0.930 . S
C254 C255 1.474 . S
C254 C256 1.285 . S
C254 H274 0.929 . S
C255 C252 1.461 . S
C255 C254 1.474 . S
C256 C251 1.342 . S
C256 C254 1.285 . S
C256 H275 0.930 . S
C257 C260 1.424 . S
C257 C262 1.245 . S
C257 C263 1.428 . S
C258 C261 1.260 . S
C258 C262 1.477 . S
C258 H276 0.932 . S
C259 C260 1.384 . S
C259 C261 1.479 . S
C259 H277 0.929 . S
C260 C257 1.424 . S
C260 C259 1.384 . S
C260 H278 0.928 . S
C261 C258 1.260 . S
C261 C259 1.479 . S
C262 C257 1.245 . S
C262 C258 1.477 . S
C262 H279 0.932 . S
C263 U246 2.882 . S
C263 C257 1.428 . S
C263 O266 1.301 . S
C263 O267 1.282 . S
O264 U246 2.441 . S
O264 C250 1.249 . S
O265 U246 2.420 . S
O265 C250 1.202 . S
O266 U246 2.455 . S
O266 C263 1.301 . S
O267 U246 2.449 . S
O267 C263 1.282 . S
H268 C241 0.931 . S
H269 C243 0.929 . S
H270 C244 0.930 . S
H271 C245 0.931 . S
H272 C252 0.932 . S
H273 C253 0.930 . S
H274 C254 0.929 . S
H275 C256 0.930 . S
H276 C258 0.932 . S
H277 C259 0.929 . S
H278 C260 0.928 . S
H279 C262 0.932 . S
C280 C281 1.264 . S
C280 C285 1.479 . S
C280 C290 1.465 . S
C281 C280 1.264 . S
C281 C283 1.339 1_455 S
C281 H308 0.931 . S
C282 C283 1.395 . S
C282 C284 1.320 1_655 S
C283 C281 1.339 1_655 S
C283 C282 1.395 . S
C283 H309 0.929 . S
C284 C282 1.320 1_455 S
C284 C285 1.405 . S
C284 H310 0.930 . S
C285 C280 1.479 . S
C285 C284 1.405 . S
C285 H311 0.931 . S
U286 O287 2.454 . S
U286 O288 2.458 . S
U286 C289 2.984 . S
U286 C290 2.847 . S
U286 C303 2.882 . S
U286 O304 2.441 . S
U286 O305 2.420 . S
U286 O306 2.455 . S
U286 O307 2.449 . S
O287 U286 2.454 . S
O287 C289 1.353 . S
O288 U286 2.458 . S
O288 C289 1.286 . S
C289 U286 2.984 . S
C289 O287 1.353 . S
C289 O288 1.286 . S
C289 C291 1.363 . S
C290 C280 1.465 . S
C290 U286 2.847 . S
C290 O304 1.249 . S
C290 O305 1.202 . S
C291 C289 1.363 . S
C291 C293 1.408 . S
C291 C296 1.342 . S
C292 C293 1.310 . S
C292 C295 1.461 . S
C292 H312 0.932 . S
C293 C291 1.408 . S
C293 C292 1.310 . S
C293 H313 0.930 . S
C294 C295 1.474 . S
C294 C296 1.285 . S
C294 H314 0.929 . S
C295 C292 1.461 . S
C295 C294 1.474 . S
C296 C291 1.342 . S
C296 C294 1.285 . S
C296 H315 0.930 . S
C297 C300 1.424 . S
C297 C302 1.245 . S
C297 C303 1.428 . S
C298 C301 1.260 . S
C298 C302 1.477 . S
C298 H316 0.932 . S
C299 C300 1.384 . S
C299 C301 1.479 . S
C299 H317 0.929 . S
C300 C297 1.424 . S
C300 C299 1.384 . S
C300 H318 0.928 . S
C301 C298 1.260 . S
C301 C299 1.479 . S
C302 C297 1.245 . S
C302 C298 1.477 . S
C302 H319 0.932 . S
C303 U286 2.882 . S
C303 C297 1.428 . S
C303 O306 1.301 . S
C303 O307 1.282 . S
O304 U286 2.441 . S
O304 C290 1.249 . S
O305 U286 2.420 . S
O305 C290 1.202 . S
O306 U286 2.455 . S
O306 C303 1.301 . S
O307 U286 2.449 . S
O307 C303 1.282 . S
H308 C281 0.931 . S
H309 C283 0.929 . S
H310 C284 0.930 . S
H311 C285 0.931 . S
H312 C292 0.932 . S
H313 C293 0.930 . S
H314 C294 0.929 . S
H315 C296 0.930 . S
H316 C298 0.932 . S
H317 C299 0.929 . S
H318 C300 0.928 . S
H319 C302 0.932 . S
Zn320 O326 1.920 . S
Zn320 O332 1.898 . S
Zn320 O335 1.905 . S
Zn321 O329 1.905 . S
Zn321 O330 1.898 . S
Zn321 O338 1.920 . S
Zn322 O325 2.080 . S
Zn322 O328 2.114 . S
Zn322 O331 2.120 . S
Zn322 O333 2.120 . S
Zn322 O334 2.114 . S
Zn322 O337 2.080 . S
C323 O328 1.166 . S
C323 O329 1.182 . S
C324 O330 1.167 . S
C324 O331 1.299 . S
O325 Zn322 2.080 . S
O325 C339 1.305 . S
O326 Zn320 1.920 . S
O326 C339 1.234 . S
C327 O332 1.167 . S
C327 O333 1.299 . S
O328 Zn322 2.114 . S
O328 C323 1.166 . S
O329 Zn321 1.905 . S
O329 C323 1.182 . S
O330 Zn321 1.898 . S
O330 C324 1.167 . S
O331 Zn322 2.120 . S
O331 C324 1.299 . S
O332 Zn320 1.898 . S
O332 C327 1.167 . S
O333 Zn322 2.120 . S
O333 C327 1.299 . S
O334 Zn322 2.114 . S
O334 C336 1.166 . S
O335 Zn320 1.905 . S
O335 C336 1.182 . S
C336 O334 1.166 . S
C336 O335 1.182 . S
O337 Zn322 2.080 . S
O337 C340 1.305 . S
O338 Zn321 1.920 . S
O338 C340 1.234 . S
C339 O325 1.305 . S
C339 O326 1.234 . S
C340 O337 1.305 . S
C340 O338 1.234 . S
Zn341 O347 1.920 . S
Zn341 O353 1.898 . S
Zn341 O356 1.905 . S
Zn342 O350 1.905 . S
Zn342 O351 1.898 . S
Zn342 O359 1.920 . S
Zn343 O346 2.080 . S
Zn343 O349 2.114 . S
Zn343 O352 2.120 . S
Zn343 O354 2.120 . S
Zn343 O355 2.114 . S
Zn343 O358 2.080 . S
C344 O349 1.166 . S
C344 O350 1.182 . S
C345 O351 1.167 . S
C345 O352 1.299 . S
O346 Zn343 2.080 . S
O346 C360 1.305 . S
O347 Zn341 1.920 . S
O347 C360 1.234 . S
C348 O353 1.167 . S
C348 O354 1.299 . S
O349 Zn343 2.114 . S
O349 C344 1.166 . S
O350 Zn342 1.905 . S
O350 C344 1.182 . S
O351 Zn342 1.898 . S
O351 C345 1.167 . S
O352 Zn343 2.120 . S
O352 C345 1.299 . S
O353 Zn341 1.898 . S
O353 C348 1.167 . S
O354 Zn343 2.120 . S
O354 C348 1.299 . S
O355 Zn343 2.114 . S
O355 C357 1.166 . S
O356 Zn341 1.905 . S
O356 C357 1.182 . S
C357 O355 1.166 . S
C357 O356 1.182 . S
O358 Zn343 2.080 . S
O358 C361 1.305 . S
O359 Zn342 1.920 . S
O359 C361 1.234 . S
C360 O346 1.305 . S
C360 O347 1.234 . S
C361 O358 1.305 . S
C361 O359 1.234 . S
Zn362 O368 1.920 . S
Zn362 O374 1.898 . S
Zn362 O377 1.905 . S
Zn363 O371 1.905 . S
Zn363 O372 1.898 . S
Zn363 O380 1.920 . S
Zn364 O367 2.080 . S
Zn364 O370 2.114 . S
Zn364 O373 2.120 . S
Zn364 O375 2.120 . S
Zn364 O376 2.114 . S
Zn364 O379 2.080 . S
C365 O370 1.166 . S
C365 O371 1.182 . S
C366 O372 1.167 . S
C366 O373 1.299 . S
O367 Zn364 2.080 . S
O367 C381 1.305 . S
O368 Zn362 1.920 . S
O368 C381 1.234 . S
C369 O374 1.167 . S
C369 O375 1.299 . S
O370 Zn364 2.114 . S
O370 C365 1.166 . S
O371 Zn363 1.905 . S
O371 C365 1.182 . S
O372 Zn363 1.898 . S
O372 C366 1.167 . S
O373 Zn364 2.120 . S
O373 C366 1.299 . S
O374 Zn362 1.898 . S
O374 C369 1.167 . S
O375 Zn364 2.120 . S
O375 C369 1.299 . S
O376 Zn364 2.114 . S
O376 C378 1.166 . S
O377 Zn362 1.905 . S
O377 C378 1.182 . S
C378 O376 1.166 . S
C378 O377 1.182 . S
O379 Zn364 2.080 . S
O379 C382 1.305 . S
O380 Zn363 1.920 . S
O380 C382 1.234 . S
C381 O367 1.305 . S
C381 O368 1.234 . S
C382 O379 1.305 . S
C382 O380 1.234 . S
Zn383 O389 1.920 . S
Zn383 O395 1.898 . S
Zn383 O398 1.905 . S
Zn384 O392 1.905 . S
Zn384 O393 1.898 . S
Zn384 O401 1.920 . S
Zn385 O388 2.080 . S
Zn385 O391 2.114 . S
Zn385 O394 2.120 . S
Zn385 O396 2.120 . S
Zn385 O397 2.114 . S
Zn385 O400 2.080 . S
C386 O391 1.166 . S
C386 O392 1.182 . S
C387 O393 1.167 . S
C387 O394 1.299 . S
O388 Zn385 2.080 . S
O388 C402 1.305 . S
O389 Zn383 1.920 . S
O389 C402 1.234 . S
C390 O395 1.167 . S
C390 O396 1.299 . S
O391 Zn385 2.114 . S
O391 C386 1.166 . S
O392 Zn384 1.905 . S
O392 C386 1.182 . S
O393 Zn384 1.898 . S
O393 C387 1.167 . S
O394 Zn385 2.120 . S
O394 C387 1.299 . S
O395 Zn383 1.898 . S
O395 C390 1.167 . S
O396 Zn385 2.120 . S
O396 C390 1.299 . S
O397 Zn385 2.114 . S
O397 C399 1.166 . S
O398 Zn383 1.905 . S
O398 C399 1.182 . S
C399 O397 1.166 . S
C399 O398 1.182 . S
O400 Zn385 2.080 . S
O400 C403 1.305 . S
O401 Zn384 1.920 . S
O401 C403 1.234 . S
C402 O388 1.305 . S
C402 O389 1.234 . S
C403 O400 1.305 . S
C403 O401 1.234 . S
C404 C405 1.391 . S
C404 C406 1.394 . S
C404 H420 0.931 . S
C405 C404 1.391 . S
C405 C409 1.376 . S
C406 C404 1.394 . S
C406 C407 1.369 . S
C406 C410 1.531 . S
C407 C406 1.369 . S
C407 C408 1.410 . S
C407 C415 1.503 . S
C408 C407 1.410 . S
C408 C409 1.392 . S
C408 C411 1.511 . S
C409 C405 1.376 . S
C409 C408 1.392 . S
C409 H421 0.929 . S
C410 C406 1.531 . S
C410 H422 0.960 . S
C410 H423 0.962 . S
C410 H424 0.960 . S
C411 C408 1.511 . S
C411 H425 0.961 . S
C411 H426 0.961 . S
C411 H427 0.961 . S
C412 C413 1.370 . S
C412 C414 1.363 . S
C412 H428 0.931 . S
C413 C412 1.370 . S
C413 C417 1.408 . S
C414 C412 1.363 . S
C414 C415 1.370 . S
C414 C418 1.524 . S
C415 C407 1.503 . S
C415 C414 1.370 . S
C415 C416 1.403 . S
C416 C415 1.403 . S
C416 C417 1.404 . S
C416 C419 1.539 . S
C417 C413 1.408 . S
C417 C416 1.404 . S
C417 H429 0.930 . S
C418 C414 1.524 . S
C418 H430 0.956 . S
C418 H431 0.961 . S
C418 H432 0.961 . S
C419 C416 1.539 . S
C419 H433 0.958 . S
C419 H434 0.961 . S
C419 H435 0.960 . S
H420 C404 0.931 . S
H421 C409 0.929 . S
H422 C410 0.960 . S
H423 C410 0.962 . S
H424 C410 0.960 . S
H425 C411 0.961 . S
H426 C411 0.961 . S
H427 C411 0.961 . S
H428 C412 0.931 . S
H429 C417 0.930 . S
H430 C418 0.956 . S
H431 C418 0.961 . S
H432 C418 0.961 . S
H433 C419 0.958 . S
H434 C419 0.961 . S
H435 C419 0.960 . S
C436 C437 1.391 . S
C436 C438 1.394 . S
C436 H452 0.931 . S
C437 C436 1.391 . S
C437 C441 1.376 . S
C438 C436 1.394 . S
C438 C439 1.369 . S
C438 C442 1.531 . S
C439 C438 1.369 . S
C439 C440 1.410 . S
C439 C447 1.503 . S
C440 C439 1.410 . S
C440 C441 1.392 . S
C440 C443 1.511 . S
C441 C437 1.376 . S
C441 C440 1.392 . S
C441 H453 0.929 . S
C442 C438 1.531 . S
C442 H454 0.960 . S
C442 H455 0.962 . S
C442 H456 0.960 . S
C443 C440 1.511 . S
C443 H457 0.961 . S
C443 H458 0.961 . S
C443 H459 0.961 . S
C444 C445 1.370 . S
C444 C446 1.363 . S
C444 H460 0.931 . S
C445 C444 1.370 . S
C445 C449 1.408 . S
C446 C444 1.363 . S
C446 C447 1.370 . S
C446 C450 1.524 . S
C447 C439 1.503 . S
C447 C446 1.370 . S
C447 C448 1.403 . S
C448 C447 1.403 . S
C448 C449 1.404 . S
C448 C451 1.539 . S
C449 C445 1.408 . S
C449 C448 1.404 . S
C449 H461 0.930 . S
C450 C446 1.524 . S
C450 H462 0.956 . S
C450 H463 0.961 . S
C450 H464 0.961 . S
C451 C448 1.539 . S
C451 H465 0.958 . S
C451 H466 0.961 . S
C451 H467 0.960 . S
H452 C436 0.931 . S
H453 C441 0.929 . S
H454 C442 0.960 . S
H455 C442 0.962 . S
H456 C442 0.960 . S
H457 C443 0.961 . S
H458 C443 0.961 . S
H459 C443 0.961 . S
H460 C444 0.931 . S
H461 C449 0.930 . S
H462 C450 0.956 . S
H463 C450 0.961 . S
H464 C450 0.961 . S
H465 C451 0.958 . S
H466 C451 0.961 . S
H467 C451 0.960 . S
C468 C469 1.391 . S
C468 C470 1.394 . S
C468 H484 0.931 . S
C469 C468 1.391 . S
C469 C473 1.376 . S
C470 C468 1.394 . S
C470 C471 1.369 . S
C470 C474 1.531 . S
C471 C470 1.369 . S
C471 C472 1.410 . S
C471 C479 1.503 . S
C472 C471 1.410 . S
C472 C473 1.392 . S
C472 C475 1.511 . S
C473 C469 1.376 . S
C473 C472 1.392 . S
C473 H485 0.929 . S
C474 C470 1.531 . S
C474 H486 0.960 . S
C474 H487 0.962 . S
C474 H488 0.960 . S
C475 C472 1.511 . S
C475 H489 0.961 . S
C475 H490 0.961 . S
C475 H491 0.961 . S
C476 C477 1.370 . S
C476 C478 1.363 . S
C476 H492 0.931 . S
C477 C476 1.370 . S
C477 C481 1.408 . S
C478 C476 1.363 . S
C478 C479 1.370 . S
C478 C482 1.524 . S
C479 C471 1.503 . S
C479 C478 1.370 . S
C479 C480 1.403 . S
C480 C479 1.403 . S
C480 C481 1.404 . S
C480 C483 1.539 . S
C481 C477 1.408 . S
C481 C480 1.404 . S
C481 H493 0.930 . S
C482 C478 1.524 . S
C482 H494 0.956 . S
C482 H495 0.961 . S
C482 H496 0.961 . S
C483 C480 1.539 . S
C483 H497 0.958 . S
C483 H498 0.961 . S
C483 H499 0.960 . S
H484 C468 0.931 . S
H485 C473 0.929 . S
H486 C474 0.960 . S
H487 C474 0.962 . S
H488 C474 0.960 . S
H489 C475 0.961 . S
H490 C475 0.961 . S
H491 C475 0.961 . S
H492 C476 0.931 . S
H493 C481 0.930 . S
H494 C482 0.956 . S
H495 C482 0.961 . S
H496 C482 0.961 . S
H497 C483 0.958 . S
H498 C483 0.961 . S
H499 C483 0.960 . S
C500 C501 1.391 . S
C500 C502 1.394 . S
C500 H516 0.931 . S
C501 C500 1.391 . S
C501 C505 1.376 . S
C502 C500 1.394 . S
C502 C503 1.369 . S
C502 C506 1.531 . S
C503 C502 1.369 . S
C503 C504 1.410 . S
C503 C511 1.503 . S
C504 C503 1.410 . S
C504 C505 1.392 . S
C504 C507 1.511 . S
C505 C501 1.376 . S
C505 C504 1.392 . S
C505 H517 0.929 . S
C506 C502 1.531 . S
C506 H518 0.960 . S
C506 H519 0.962 . S
C506 H520 0.960 . S
C507 C504 1.511 . S
C507 H521 0.961 . S
C507 H522 0.961 . S
C507 H523 0.961 . S
C508 C509 1.370 1_655 S
C508 C510 1.363 . S
C508 H524 0.920 1_655 S
C509 C508 1.370 1_455 S
C509 C513 1.408 1_455 S
C510 C508 1.363 . S
C510 C511 1.370 . S
C510 C514 1.524 . S
C511 C503 1.503 . S
C511 C510 1.370 . S
C511 C512 1.403 . S
C512 C511 1.403 . S
C512 C513 1.404 . S
C512 C515 1.539 . S
C513 C509 1.408 1_655 S
C513 C512 1.404 . S
C513 H525 0.930 1_655 S
C514 C510 1.524 . S
C514 H526 0.956 . S
C514 H527 0.961 . S
C514 H528 0.961 . S
C515 C512 1.539 . S
C515 H529 0.958 . S
C515 H530 0.961 . S
C515 H531 0.960 . S
H516 C500 0.931 . S
H517 C505 0.929 . S
H518 C506 0.960 . S
H519 C506 0.962 . S
H520 C506 0.960 . S
H521 C507 0.961 . S
H522 C507 0.961 . S
H523 C507 0.961 . S
H524 C508 0.920 1_455 S
H525 C513 0.930 1_455 S
H526 C514 0.956 . S
H527 C514 0.961 . S
H528 C514 0.961 . S
H529 C515 0.958 . S
H530 C515 0.961 . S
H531 C515 0.960 . S
C532 C533 1.391 . S
C532 C534 1.394 . S
C532 H548 0.931 . S
C533 C532 1.391 . S
C533 C537 1.376 . S
C534 C532 1.394 . S
C534 C535 1.369 . S
C534 C538 1.531 . S
C535 C534 1.369 . S
C535 C536 1.410 . S
C535 C543 1.503 . S
C536 C535 1.410 . S
C536 C537 1.392 . S
C536 C539 1.511 . S
C537 C533 1.376 . S
C537 C536 1.392 . S
C537 H549 0.929 . S
C538 C534 1.531 . S
C538 H550 0.960 . S
C538 H551 0.962 . S
C538 H552 0.960 . S
C539 C536 1.511 . S
C539 H553 0.961 . S
C539 H554 0.961 . S
C539 H555 0.961 . S
C540 C541 1.370 . S
C540 C542 1.363 . S
C540 H556 0.931 . S
C541 C540 1.370 . S
C541 C545 1.408 . S
C542 C540 1.363 . S
C542 C543 1.370 . S
C542 C546 1.524 . S
C543 C535 1.503 . S
C543 C542 1.370 . S
C543 C544 1.403 . S
C544 C543 1.403 . S
C544 C545 1.404 . S
C544 C547 1.539 . S
C545 C541 1.408 . S
C545 C544 1.404 . S
C545 H557 0.930 . S
C546 C542 1.524 . S
C546 H558 0.956 . S
C546 H559 0.961 . S
C546 H560 0.961 . S
C547 C544 1.539 . S
C547 H561 0.958 . S
C547 H562 0.961 . S
C547 H563 0.960 . S
H548 C532 0.931 . S
H549 C537 0.929 . S
H550 C538 0.960 . S
H551 C538 0.962 . S
H552 C538 0.960 . S
H553 C539 0.961 . S
H554 C539 0.961 . S
H555 C539 0.961 . S
H556 C540 0.931 . S
H557 C545 0.930 . S
H558 C546 0.956 . S
H559 C546 0.961 . S
H560 C546 0.961 . S
H561 C547 0.958 . S
H562 C547 0.961 . S
H563 C547 0.960 . S
C564 C565 1.391 . S
C564 C566 1.394 . S
C564 H580 0.931 . S
C565 C564 1.391 . S
C565 C569 1.376 . S
C566 C564 1.394 . S
C566 C567 1.369 . S
C566 C570 1.531 . S
C567 C566 1.369 . S
C567 C568 1.410 . S
C567 C575 1.503 . S
C568 C567 1.410 . S
C568 C569 1.392 . S
C568 C571 1.511 . S
C569 C565 1.376 . S
C569 C568 1.392 . S
C569 H581 0.929 . S
C570 C566 1.531 . S
C570 H582 0.960 . S
C570 H583 0.962 . S
C570 H584 0.960 . S
C571 C568 1.511 . S
C571 H585 0.961 . S
C571 H586 0.961 . S
C571 H587 0.961 . S
C572 C573 1.370 . S
C572 C574 1.363 1_455 S
C572 H588 0.931 . S
C573 C572 1.370 . S
C573 C577 1.408 1_455 S
C574 C572 1.363 1_655 S
C574 C575 1.370 . S
C574 C578 1.524 . S
C575 C567 1.503 . S
C575 C574 1.370 . S
C575 C576 1.403 . S
C576 C575 1.403 . S
C576 C577 1.404 . S
C576 C579 1.539 . S
C577 C573 1.408 1_655 S
C577 C576 1.404 . S
C577 H589 0.930 1_655 S
C578 C574 1.524 . S
C578 H590 0.956 . S
C578 H591 0.961 . S
C578 H592 0.961 . S
C579 C576 1.539 . S
C579 H593 0.958 . S
C579 H594 0.961 . S
C579 H595 0.960 . S
H580 C564 0.931 . S
H581 C569 0.929 . S
H582 C570 0.960 . S
H583 C570 0.962 . S
H584 C570 0.960 . S
H585 C571 0.961 . S
H586 C571 0.961 . S
H587 C571 0.961 . S
H588 C572 0.931 . S
H589 C577 0.930 1_455 S
H590 C578 0.956 . S
H591 C578 0.961 . S
H592 C578 0.961 . S
H593 C579 0.958 . S
H594 C579 0.961 . S
H595 C579 0.960 . S
C596 C597 1.391 . S
C596 C598 1.394 . S
C596 H612 0.931 . S
C597 C596 1.391 . S
C597 C601 1.376 . S
C598 C596 1.394 . S
C598 C599 1.369 . S
C598 C602 1.531 . S
C599 C598 1.369 . S
C599 C600 1.410 . S
C599 C607 1.503 . S
C600 C599 1.410 . S
C600 C601 1.392 . S
C600 C603 1.511 . S
C601 C597 1.376 . S
C601 C600 1.392 . S
C601 H613 0.929 . S
C602 C598 1.531 . S
C602 H614 0.960 . S
C602 H615 0.962 . S
C602 H616 0.960 . S
C603 C600 1.511 . S
C603 H617 0.961 . S
C603 H618 0.961 . S
C603 H619 0.961 . S
C604 C605 1.370 . S
C604 C606 1.363 . S
C604 H620 0.931 . S
C605 C604 1.370 . S
C605 C609 1.408 . S
C606 C604 1.363 . S
C606 C607 1.370 . S
C606 C610 1.524 . S
C607 C599 1.503 . S
C607 C606 1.370 . S
C607 C608 1.403 . S
C608 C607 1.403 . S
C608 C609 1.404 . S
C608 C611 1.539 . S
C609 C605 1.408 . S
C609 C608 1.404 . S
C609 H621 0.930 . S
C610 C606 1.524 . S
C610 H622 0.956 . S
C610 H623 0.961 . S
C610 H624 0.961 . S
C611 C608 1.539 . S
C611 H625 0.958 . S
C611 H626 0.961 . S
C611 H627 0.960 . S
H612 C596 0.931 . S
H613 C601 0.929 . S
H614 C602 0.960 . S
H615 C602 0.962 . S
H616 C602 0.960 . S
H617 C603 0.961 . S
H618 C603 0.961 . S
H619 C603 0.961 . S
H620 C604 0.931 . S
H621 C609 0.930 . S
H622 C610 0.956 . S
H623 C610 0.961 . S
H624 C610 0.961 . S
H625 C611 0.958 . S
H626 C611 0.961 . S
H627 C611 0.960 . S
C628 C629 1.391 . S
C628 C630 1.394 . S
C628 H644 0.931 . S
C629 C628 1.391 . S
C629 C633 1.376 . S
C630 C628 1.394 . S
C630 C631 1.369 . S
C630 C634 1.531 . S
C631 C630 1.369 . S
C631 C632 1.410 . S
C631 C639 1.503 . S
C632 C631 1.410 . S
C632 C633 1.392 . S
C632 C635 1.511 . S
C633 C629 1.376 . S
C633 C632 1.392 . S
C633 H645 0.929 . S
C634 C630 1.531 . S
C634 H646 0.960 . S
C634 H647 0.962 . S
C634 H648 0.960 . S
C635 C632 1.511 . S
C635 H649 0.961 . S
C635 H650 0.961 . S
C635 H651 0.961 . S
C636 C637 1.370 . S
C636 C638 1.363 . S
C636 H652 0.931 . S
C637 C636 1.370 . S
C637 C641 1.408 . S
C638 C636 1.363 . S
C638 C639 1.370 . S
C638 C642 1.524 . S
C639 C631 1.503 . S
C639 C638 1.370 . S
C639 C640 1.403 . S
C640 C639 1.403 . S
C640 C641 1.404 . S
C640 C643 1.539 . S
C641 C637 1.408 . S
C641 C640 1.404 . S
C641 H653 0.930 . S
C642 C638 1.524 . S
C642 H654 0.956 . S
C642 H655 0.961 . S
C642 H656 0.961 . S
C643 C640 1.539 . S
C643 H657 0.958 . S
C643 H658 0.961 . S
C643 H659 0.960 . S
H644 C628 0.931 . S
H645 C633 0.929 . S
H646 C634 0.960 . S
H647 C634 0.962 . S
H648 C634 0.960 . S
H649 C635 0.961 . S
H650 C635 0.961 . S
H651 C635 0.961 . S
H652 C636 0.931 . S
H653 C641 0.930 . S
H654 C642 0.956 . S
H655 C642 0.961 . S
H656 C642 0.961 . S
H657 C643 0.958 . S
H658 C643 0.961 . S
H659 C643 0.960 . S
C660 C661 1.391 . S
C660 C662 1.394 . S
C660 H676 0.931 . S
C661 C660 1.391 . S
C661 C665 1.376 . S
C662 C660 1.394 . S
C662 C663 1.369 . S
C662 C666 1.531 . S
C663 C662 1.369 . S
C663 C664 1.410 . S
C663 C671 1.503 . S
C664 C663 1.410 . S
C664 C665 1.392 . S
C664 C667 1.511 . S
C665 C661 1.376 . S
C665 C664 1.392 . S
C665 H677 0.929 . S
C666 C662 1.531 . S
C666 H678 0.960 . S
C666 H679 0.962 . S
C666 H680 0.960 . S
C667 C664 1.511 . S
C667 H681 0.961 . S
C667 H682 0.961 . S
C667 H683 0.961 . S
C668 C669 1.370 . S
C668 C670 1.363 . S
C668 H684 0.931 . S
C669 C668 1.370 . S
C669 C673 1.408 . S
C670 C668 1.363 . S
C670 C671 1.370 . S
C670 C674 1.524 . S
C671 C663 1.503 . S
C671 C670 1.370 . S
C671 C672 1.403 . S
C672 C671 1.403 . S
C672 C673 1.404 . S
C672 C675 1.539 . S
C673 C669 1.408 . S
C673 C672 1.404 . S
C673 H685 0.930 . S
C674 C670 1.524 . S
C674 H686 0.956 . S
C674 H687 0.961 . S
C674 H688 0.961 . S
C675 C672 1.539 . S
C675 H689 0.958 . S
C675 H690 0.961 . S
C675 H691 0.960 . S
H676 C660 0.931 . S
H677 C665 0.929 . S
H678 C666 0.960 . S
H679 C666 0.962 . S
H680 C666 0.960 . S
H681 C667 0.961 . S
H682 C667 0.961 . S
H683 C667 0.961 . S
H684 C668 0.931 . S
H685 C673 0.930 . S
H686 C674 0.956 . S
H687 C674 0.961 . S
H688 C674 0.961 . S
H689 C675 0.958 . S
H690 C675 0.961 . S
H691 C675 0.960 . S
C692 C693 1.391 . S
C692 C694 1.394 . S
C692 H708 0.931 . S
C693 C692 1.391 . S
C693 C697 1.376 . S
C694 C692 1.394 . S
C694 C695 1.369 . S
C694 C698 1.531 . S
C695 C694 1.369 . S
C695 C696 1.410 . S
C695 C703 1.503 . S
C696 C695 1.410 . S
C696 C697 1.392 . S
C696 C699 1.511 . S
C697 C693 1.376 . S
C697 C696 1.392 . S
C697 H709 0.929 . S
C698 C694 1.531 . S
C698 H710 0.960 . S
C698 H711 0.962 . S
C698 H712 0.960 . S
C699 C696 1.511 . S
C699 H713 0.961 . S
C699 H714 0.961 . S
C699 H715 0.961 . S
C700 C701 1.370 . S
C700 C702 1.363 . S
C700 H716 0.931 . S
C701 C700 1.370 . S
C701 C705 1.408 . S
C702 C700 1.363 . S
C702 C703 1.370 . S
C702 C706 1.524 . S
C703 C695 1.503 . S
C703 C702 1.370 . S
C703 C704 1.403 . S
C704 C703 1.403 . S
C704 C705 1.404 . S
C704 C707 1.539 . S
C705 C701 1.408 . S
C705 C704 1.404 . S
C705 H717 0.930 . S
C706 C702 1.524 . S
C706 H718 0.956 . S
C706 H719 0.961 . S
C706 H720 0.961 . S
C707 C704 1.539 . S
C707 H721 0.958 . S
C707 H722 0.961 . S
C707 H723 0.960 . S
H708 C692 0.931 . S
H709 C697 0.929 . S
H710 C698 0.960 . S
H711 C698 0.962 . S
H712 C698 0.960 . S
H713 C699 0.961 . S
H714 C699 0.961 . S
H715 C699 0.961 . S
H716 C700 0.931 . S
H717 C705 0.930 . S
H718 C706 0.956 . S
H719 C706 0.961 . S
H720 C706 0.961 . S
H721 C707 0.958 . S
H722 C707 0.961 . S
H723 C707 0.960 . S
C724 C725 1.391 . S
C724 C726 1.394 . S
C724 H740 0.931 . S
C725 C724 1.391 . S
C725 C729 1.376 . S
C726 C724 1.394 . S
C726 C727 1.369 . S
C726 C730 1.531 . S
C727 C726 1.369 . S
C727 C728 1.410 . S
C727 C735 1.503 . S
C728 C727 1.410 . S
C728 C729 1.392 . S
C728 C731 1.511 . S
C729 C725 1.376 . S
C729 C728 1.392 . S
C729 H741 0.929 . S
C730 C726 1.531 . S
C730 H742 0.960 . S
C730 H743 0.962 . S
C730 H744 0.960 . S
C731 C728 1.511 . S
C731 H745 0.961 . S
C731 H746 0.961 . S
C731 H747 0.961 . S
C732 C733 1.370 . S
C732 C734 1.363 . S
C732 H748 0.931 . S
C733 C732 1.370 . S
C733 C737 1.408 . S
C734 C732 1.363 . S
C734 C735 1.370 . S
C734 C738 1.524 . S
C735 C727 1.503 . S
C735 C734 1.370 . S
C735 C736 1.403 . S
C736 C735 1.403 . S
C736 C737 1.404 . S
C736 C739 1.539 . S
C737 C733 1.408 . S
C737 C736 1.404 . S
C737 H749 0.930 . S
C738 C734 1.524 . S
C738 H750 0.956 . S
C738 H751 0.961 . S
C738 H752 0.961 . S
C739 C736 1.539 . S
C739 H753 0.958 . S
C739 H754 0.961 . S
C739 H755 0.960 . S
H740 C724 0.931 . S
H741 C729 0.929 . S
H742 C730 0.960 . S
H743 C730 0.962 . S
H744 C730 0.960 . S
H745 C731 0.961 . S
H746 C731 0.961 . S
H747 C731 0.961 . S
H748 C732 0.931 . S
H749 C737 0.930 . S
H750 C738 0.956 . S
H751 C738 0.961 . S
H752 C738 0.961 . S
H753 C739 0.958 . S
H754 C739 0.961 . S
H755 C739 0.960 . S
C756 C757 1.391 . S
C756 C758 1.394 . S
C756 H772 0.931 . S
C757 C756 1.391 . S
C757 C761 1.376 . S
C758 C756 1.394 . S
C758 C759 1.369 . S
C758 C762 1.531 . S
C759 C758 1.369 . S
C759 C760 1.410 . S
C759 C767 1.503 . S
C760 C759 1.410 . S
C760 C761 1.392 . S
C760 C763 1.511 . S
C761 C757 1.376 . S
C761 C760 1.392 . S
C761 H773 0.929 . S
C762 C758 1.531 . S
C762 H774 0.960 . S
C762 H775 0.962 . S
C762 H776 0.960 . S
C763 C760 1.511 . S
C763 H777 0.961 . S
C763 H778 0.961 . S
C763 H779 0.961 . S
C764 C765 1.370 . S
C764 C766 1.363 . S
C764 H780 0.931 . S
C765 C764 1.370 . S
C765 C769 1.408 . S
C766 C764 1.363 . S
C766 C767 1.370 . S
C766 C770 1.524 . S
C767 C759 1.503 . S
C767 C766 1.370 . S
C767 C768 1.403 . S
C768 C767 1.403 . S
C768 C769 1.404 . S
C768 C771 1.539 . S
C769 C765 1.408 . S
C769 C768 1.404 . S
C769 H781 0.930 . S
C770 C766 1.524 . S
C770 H782 0.956 . S
C770 H783 0.961 . S
C770 H784 0.961 . S
C771 C768 1.539 . S
C771 H785 0.958 . S
C771 H786 0.961 . S
C771 H787 0.960 . S
H772 C756 0.931 . S
H773 C761 0.929 . S
H774 C762 0.960 . S
H775 C762 0.962 . S
H776 C762 0.960 . S
H777 C763 0.961 . S
H778 C763 0.961 . S
H779 C763 0.961 . S
H780 C764 0.931 . S
H781 C769 0.930 . S
H782 C770 0.956 . S
H783 C770 0.961 . S
H784 C770 0.961 . S
H785 C771 0.958 . S
H786 C771 0.961 . S
H787 C771 0.960 . S
C788 C789 1.391 . S
C788 C790 1.394 1_565 S
C788 H804 0.931 . S
C789 C788 1.391 . S
C789 C793 1.376 . S
C790 C788 1.394 1_545 S
C790 C791 1.369 . S
C790 C794 1.531 . S
C791 C790 1.369 . S
C791 C792 1.410 1_545 S
C791 C799 1.503 . S
C792 C791 1.410 1_565 S
C792 C793 1.392 . S
C792 C795 1.511 . S
C793 C789 1.376 . S
C793 C792 1.392 . S
C793 H805 0.929 . S
C794 C790 1.531 . S
C794 H806 0.960 . S
C794 H807 0.962 . S
C794 H808 0.960 . S
C795 C792 1.511 . S
C795 H809 0.961 . S
C795 H810 0.961 1_565 S
C795 H811 0.961 . S
C796 C797 1.370 . S
C796 C798 1.363 . S
C796 H812 0.931 . S
C797 C796 1.370 . S
C797 C801 1.408 . S
C798 C796 1.363 . S
C798 C799 1.370 . S
C798 C802 1.524 . S
C799 C791 1.503 . S
C799 C798 1.370 . S
C799 C800 1.403 . S
C800 C799 1.403 . S
C800 C801 1.404 . S
C800 C803 1.539 . S
C801 C797 1.408 . S
C801 C800 1.404 . S
C801 H813 0.930 . S
C802 C798 1.524 . S
C802 H814 0.956 . S
C802 H815 0.961 . S
C802 H816 0.961 . S
C803 C800 1.539 . S
C803 H817 0.958 . S
C803 H818 0.961 . S
C803 H819 0.960 . S
H804 C788 0.931 . S
H805 C793 0.929 . S
H806 C794 0.960 . S
H807 C794 0.962 . S
H808 C794 0.960 . S
H809 C795 0.961 . S
H810 C795 0.961 1_545 S
H811 C795 0.961 . S
H812 C796 0.931 . S
H813 C801 0.930 . S
H814 C802 0.956 . S
H815 C802 0.961 . S
H816 C802 0.961 . S
H817 C803 0.958 . S
H818 C803 0.961 . S
H819 C803 0.960 . S
C820 C821 1.391 . S
C820 C822 1.394 1_545 S
C820 H836 0.931 . S
C821 C820 1.391 . S
C821 C825 1.376 . S
C822 C820 1.394 1_565 S
C822 C823 1.369 . S
C822 C826 1.531 . S
C823 C822 1.369 . S
C823 C824 1.410 . S
C823 C831 1.503 . S
C824 C823 1.410 . S
C824 C825 1.392 1_565 S
C824 C827 1.511 . S
C825 C821 1.376 . S
C825 C824 1.392 1_545 S
C825 H837 0.929 . S
C826 C822 1.531 . S
C826 H838 0.960 . S
C826 H839 0.962 . S
C826 H840 0.960 . S
C827 C824 1.511 . S
C827 H841 0.961 1_565 S
C827 H842 0.961 . S
C827 H843 0.961 . S
C828 C829 1.370 . S
C828 C830 1.363 . S
C828 H844 0.931 . S
C829 C828 1.370 . S
C829 C833 1.408 . S
C830 C828 1.363 . S
C830 C831 1.370 . S
C830 C834 1.524 . S
C831 C823 1.503 . S
C831 C830 1.370 . S
C831 C832 1.403 . S
C832 C831 1.403 . S
C832 C833 1.404 . S
C832 C835 1.539 . S
C833 C829 1.408 . S
C833 C832 1.404 . S
C833 H845 0.930 . S
C834 C830 1.524 . S
C834 H846 0.956 . S
C834 H847 0.961 . S
C834 H848 0.961 . S
C835 C832 1.539 . S
C835 H849 0.958 . S
C835 H850 0.961 . S
C835 H851 0.960 . S
H836 C820 0.931 . S
H837 C825 0.929 . S
H838 C826 0.960 . S
H839 C826 0.962 . S
H840 C826 0.960 . S
H841 C827 0.961 1_545 S
H842 C827 0.961 . S
H843 C827 0.961 . S
H844 C828 0.931 . S
H845 C833 0.930 . S
H846 C834 0.956 . S
H847 C834 0.961 . S
H848 C834 0.961 . S
H849 C835 0.958 . S
H850 C835 0.961 . S
H851 C835 0.960 . S
C852 C853 1.391 . S
C852 C854 1.394 1_545 S
C852 H868 0.931 . S
C853 C852 1.391 . S
C853 C857 1.376 . S
C854 C852 1.394 1_565 S
C854 C855 1.369 . S
C854 C858 1.531 . S
C855 C854 1.369 . S
C855 C856 1.410 . S
C855 C863 1.503 . S
C856 C855 1.410 . S
C856 C857 1.392 1_565 S
C856 C859 1.511 . S
C857 C853 1.376 . S
C857 C856 1.392 1_545 S
C857 H869 0.929 . S
C858 C854 1.531 . S
C858 H870 0.960 . S
C858 H871 0.962 . S
C858 H872 0.960 . S
C859 C856 1.511 . S
C859 H873 0.961 . S
C859 H874 0.961 . S
C859 H875 0.961 . S
C860 C861 1.370 . S
C860 C862 1.363 . S
C860 H876 0.931 . S
C861 C860 1.370 . S
C861 C865 1.408 . S
C862 C860 1.363 . S
C862 C863 1.370 . S
C862 C866 1.524 . S
C863 C855 1.503 . S
C863 C862 1.370 . S
C863 C864 1.403 . S
C864 C863 1.403 . S
C864 C865 1.404 . S
C864 C867 1.539 . S
C865 C861 1.408 . S
C865 C864 1.404 . S
C865 H877 0.930 . S
C866 C862 1.524 . S
C866 H878 0.956 . S
C866 H879 0.961 . S
C866 H880 0.961 . S
C867 C864 1.539 . S
C867 H881 0.958 . S
C867 H882 0.961 . S
C867 H883 0.960 . S
H868 C852 0.931 . S
H869 C857 0.929 . S
H870 C858 0.960 . S
H871 C858 0.962 . S
H872 C858 0.960 . S
H873 C859 0.961 . S
H874 C859 0.961 . S
H875 C859 0.961 . S
H876 C860 0.931 . S
H877 C865 0.930 . S
H878 C866 0.956 . S
H879 C866 0.961 . S
H880 C866 0.961 . S
H881 C867 0.958 . S
H882 C867 0.961 . S
H883 C867 0.960 . S
C884 C885 1.391 . S
C884 C886 1.394 1_565 S
C884 H900 0.931 . S
C885 C884 1.391 . S
C885 C889 1.376 . S
C886 C884 1.394 1_545 S
C886 C887 1.369 . S
C886 C890 1.531 . S
C887 C886 1.369 . S
C887 C888 1.410 1_545 S
C887 C895 1.503 . S
C888 C887 1.410 1_565 S
C888 C889 1.392 . S
C888 C891 1.511 . S
C889 C885 1.376 . S
C889 C888 1.392 . S
C889 H901 0.929 . S
C890 C886 1.531 . S
C890 H902 0.960 . S
C890 H903 0.962 . S
C890 H904 0.960 1_455 S
C891 C888 1.511 . S
C891 H905 0.961 . S
C891 H906 0.961 1_565 S
C891 H907 0.961 1_565 S
C892 C893 1.370 . S
C892 C894 1.363 . S
C892 H908 0.931 . S
C893 C892 1.370 . S
C893 C897 1.408 . S
C894 C892 1.363 . S
C894 C895 1.370 . S
C894 C898 1.524 . S
C895 C887 1.503 . S
C895 C894 1.370 . S
C895 C896 1.403 . S
C896 C895 1.403 . S
C896 C897 1.404 . S
C896 C899 1.539 . S
C897 C893 1.408 . S
C897 C896 1.404 . S
C897 H909 0.930 . S
C898 C894 1.524 . S
C898 H910 0.956 . S
C898 H911 0.961 . S
C898 H912 0.961 . S
C899 C896 1.539 . S
C899 H913 0.958 . S
C899 H914 0.961 . S
C899 H915 0.960 . S
H900 C884 0.931 . S
H901 C889 0.929 . S
H902 C890 0.960 . S
H903 C890 0.962 . S
H904 C890 0.960 1_655 S
H905 C891 0.961 . S
H906 C891 0.961 1_545 S
H907 C891 0.961 1_545 S
H908 C892 0.931 . S
H909 C897 0.930 . S
H910 C898 0.956 . S
H911 C898 0.961 . S
H912 C898 0.961 . S
H913 C899 0.958 . S
H914 C899 0.961 . S
H915 C899 0.960 . S
C916 C917 1.391 . S
C916 C918 1.394 . S
C916 H932 0.931 . S
C917 C916 1.391 . S
C917 C921 1.376 . S
C918 C916 1.394 . S
C918 C919 1.369 . S
C918 C922 1.531 . S
C919 C918 1.369 . S
C919 C920 1.410 . S
C919 C927 1.503 . S
C920 C919 1.410 . S
C920 C921 1.392 . S
C920 C923 1.511 . S
C921 C917 1.376 . S
C921 C920 1.392 . S
C921 H933 0.929 . S
C922 C918 1.531 . S
C922 H934 0.960 . S
C922 H935 0.962 . S
C922 H936 0.960 . S
C923 C920 1.511 . S
C923 H937 0.961 . S
C923 H938 0.961 . S
C923 H939 0.961 . S
C924 C925 1.370 . S
C924 C926 1.363 . S
C924 H940 0.931 . S
C925 C924 1.370 . S
C925 C929 1.408 . S
C926 C924 1.363 . S
C926 C927 1.370 . S
C926 C930 1.524 . S
C927 C919 1.503 . S
C927 C926 1.370 . S
C927 C928 1.403 . S
C928 C927 1.403 . S
C928 C929 1.404 . S
C928 C931 1.539 . S
C929 C925 1.408 . S
C929 C928 1.404 . S
C929 H941 0.930 . S
C930 C926 1.524 . S
C930 H942 0.956 . S
C930 H943 0.961 . S
C930 H944 0.961 . S
C931 C928 1.539 . S
C931 H945 0.958 . S
C931 H946 0.961 . S
C931 H947 0.960 . S
H932 C916 0.931 . S
H933 C921 0.929 . S
H934 C922 0.960 . S
H935 C922 0.962 . S
H936 C922 0.960 . S
H937 C923 0.961 . S
H938 C923 0.961 . S
H939 C923 0.961 . S
H940 C924 0.931 . S
H941 C929 0.930 . S
H942 C930 0.956 . S
H943 C930 0.961 . S
H944 C930 0.961 . S
H945 C931 0.958 . S
H946 C931 0.961 . S
H947 C931 0.960 . S
C948 C949 1.391 . S
C948 C950 1.394 . S
C948 H964 0.931 . S
C949 C948 1.391 . S
C949 C953 1.376 . S
C950 C948 1.394 . S
C950 C951 1.369 . S
C950 C954 1.531 . S
C951 C950 1.369 . S
C951 C952 1.410 . S
C951 C959 1.503 . S
C952 C951 1.410 . S
C952 C953 1.392 . S
C952 C955 1.511 . S
C953 C949 1.376 . S
C953 C952 1.392 . S
C953 H965 0.929 . S
C954 C950 1.531 . S
C954 H966 0.960 . S
C954 H967 0.962 . S
C954 H968 0.960 . S
C955 C952 1.511 . S
C955 H969 0.961 . S
C955 H970 0.961 . S
C955 H971 0.961 . S
C956 C957 1.370 . S
C956 C958 1.363 . S
C956 H972 0.931 . S
C957 C956 1.370 . S
C957 C961 1.408 . S
C958 C956 1.363 . S
C958 C959 1.370 . S
C958 C962 1.524 . S
C959 C951 1.503 . S
C959 C958 1.370 . S
C959 C960 1.403 . S
C960 C959 1.403 . S
C960 C961 1.404 . S
C960 C963 1.539 . S
C961 C957 1.408 . S
C961 C960 1.404 . S
C961 H973 0.930 . S
C962 C958 1.524 . S
C962 H974 0.956 . S
C962 H975 0.961 . S
C962 H976 0.961 . S
C963 C960 1.539 . S
C963 H977 0.958 . S
C963 H978 0.961 . S
C963 H979 0.960 . S
H964 C948 0.931 . S
H965 C953 0.929 . S
H966 C954 0.960 . S
H967 C954 0.962 . S
H968 C954 0.960 . S
H969 C955 0.961 . S
H970 C955 0.961 . S
H971 C955 0.961 . S
H972 C956 0.931 . S
H973 C961 0.930 . S
H974 C962 0.956 . S
H975 C962 0.961 . S
H976 C962 0.961 . S
H977 C963 0.958 . S
H978 C963 0.961 . S
H979 C963 0.960 . S
C980 C981 1.391 . S
C980 C982 1.394 . S
C980 H996 0.931 . S
C981 C980 1.391 . S
C981 C985 1.376 . S
C982 C980 1.394 . S
C982 C983 1.369 . S
C982 C986 1.531 . S
C983 C982 1.369 . S
C983 C984 1.410 . S
C983 C991 1.503 . S
C984 C983 1.410 . S
C984 C985 1.392 . S
C984 C987 1.511 . S
C985 C981 1.376 . S
C985 C984 1.392 . S
C985 H997 0.929 . S
C986 C982 1.531 . S
C986 H998 0.960 . S
C986 H999 0.962 . S
C986 H1000 0.960 . S
C987 C984 1.511 . S
C987 H1001 0.961 . S
C987 H1002 0.961 . S
C987 H1003 0.961 . S
C988 C989 1.370 . S
C988 C990 1.363 . S
C988 H1004 0.931 . S
C989 C988 1.370 . S
C989 C993 1.408 . S
C990 C988 1.363 . S
C990 C991 1.370 . S
C990 C994 1.524 . S
C991 C983 1.503 . S
C991 C990 1.370 . S
C991 C992 1.403 . S
C992 C991 1.403 . S
C992 C993 1.404 . S
C992 C995 1.539 . S
C993 C989 1.408 . S
C993 C992 1.404 . S
C993 H1005 0.930 . S
C994 C990 1.524 . S
C994 H1006 0.956 . S
C994 H1007 0.961 . S
C994 H1008 0.961 . S
C995 C992 1.539 . S
C995 H1009 0.958 . S
C995 H1010 0.961 . S
C995 H1011 0.960 . S
H996 C980 0.931 . S
H997 C985 0.929 . S
H998 C986 0.960 . S
H999 C986 0.962 . S
H1000 C986 0.960 . S
H1001 C987 0.961 . S
H1002 C987 0.961 . S
H1003 C987 0.961 . S
H1004 C988 0.931 . S
H1005 C993 0.930 . S
H1006 C994 0.956 . S
H1007 C994 0.961 . S
H1008 C994 0.961 . S
H1009 C995 0.958 . S
H1010 C995 0.961 . S
H1011 C995 0.960 . S
C1012 C1013 1.391 . S
C1012 C1014 1.394 . S
C1012 H1028 0.931 . S
C1013 C1012 1.391 . S
C1013 C1017 1.376 . S
C1014 C1012 1.394 . S
C1014 C1015 1.369 . S
C1014 C1018 1.531 . S
C1015 C1014 1.369 . S
C1015 C1016 1.410 . S
C1015 C1023 1.503 . S
C1016 C1015 1.410 . S
C1016 C1017 1.392 . S
C1016 C1019 1.511 . S
C1017 C1013 1.376 . S
C1017 C1016 1.392 . S
C1017 H1029 0.929 . S
C1018 C1014 1.531 . S
C1018 H1030 0.960 . S
C1018 H1031 0.962 . S
C1018 H1032 0.960 . S
C1019 C1016 1.511 . S
C1019 H1033 0.961 . S
C1019 H1034 0.961 . S
C1019 H1035 0.961 . S
C1020 C1021 1.370 . S
C1020 C1022 1.363 . S
C1020 H1036 0.931 . S
C1021 C1020 1.370 . S
C1021 C1025 1.408 . S
C1022 C1020 1.363 . S
C1022 C1023 1.370 . S
C1022 C1026 1.524 . S
C1023 C1015 1.503 . S
C1023 C1022 1.370 . S
C1023 C1024 1.403 . S
C1024 C1023 1.403 . S
C1024 C1025 1.404 . S
C1024 C1027 1.539 . S
C1025 C1021 1.408 . S
C1025 C1024 1.404 . S
C1025 H1037 0.930 . S
C1026 C1022 1.524 . S
C1026 H1038 0.956 . S
C1026 H1039 0.961 . S
C1026 H1040 0.961 . S
C1027 C1024 1.539 . S
C1027 H1041 0.958 . S
C1027 H1042 0.961 . S
C1027 H1043 0.960 . S
H1028 C1012 0.931 . S
H1029 C1017 0.929 . S
H1030 C1018 0.960 . S
H1031 C1018 0.962 . S
H1032 C1018 0.960 . S
H1033 C1019 0.961 . S
H1034 C1019 0.961 . S
H1035 C1019 0.961 . S
H1036 C1020 0.931 . S
H1037 C1025 0.930 . S
H1038 C1026 0.956 . S
H1039 C1026 0.961 . S
H1040 C1026 0.961 . S
H1041 C1027 0.958 . S
H1042 C1027 0.961 . S
H1043 C1027 0.960 . S
C1044 C1045 1.391 . S
C1044 C1046 1.394 . S
C1044 H1060 0.931 . S
C1045 C1044 1.391 . S
C1045 C1049 1.376 . S
C1046 C1044 1.394 . S
C1046 C1047 1.369 . S
C1046 C1050 1.531 . S
C1047 C1046 1.369 . S
C1047 C1048 1.410 . S
C1047 C1055 1.503 . S
C1048 C1047 1.410 . S
C1048 C1049 1.392 . S
C1048 C1051 1.511 . S
C1049 C1045 1.376 . S
C1049 C1048 1.392 . S
C1049 H1061 0.929 . S
C1050 C1046 1.531 . S
C1050 H1062 0.960 . S
C1050 H1063 0.962 . S
C1050 H1064 0.960 . S
C1051 C1048 1.511 . S
C1051 H1065 0.950 1_455 S
C1051 H1066 0.961 . S
C1051 H1067 0.961 1_455 S
C1052 C1053 1.370 . S
C1052 C1054 1.363 . S
C1052 H1068 0.931 . S
C1053 C1052 1.370 . S
C1053 C1057 1.408 . S
C1054 C1052 1.363 . S
C1054 C1055 1.370 . S
C1054 C1058 1.524 . S
C1055 C1047 1.503 . S
C1055 C1054 1.370 . S
C1055 C1056 1.403 . S
C1056 C1055 1.403 . S
C1056 C1057 1.404 . S
C1056 C1059 1.539 . S
C1057 C1053 1.408 . S
C1057 C1056 1.404 . S
C1057 H1069 0.930 . S
C1058 C1054 1.524 . S
C1058 H1070 0.956 . S
C1058 H1071 0.961 . S
C1058 H1072 0.961 . S
C1059 C1056 1.539 . S
C1059 H1073 0.958 . S
C1059 H1074 0.961 . S
C1059 H1075 0.960 . S
H1060 C1044 0.931 . S
H1061 C1049 0.929 . S
H1062 C1050 0.960 . S
H1063 C1050 0.962 . S
H1064 C1050 0.960 . S
H1065 C1051 0.950 1_655 S
H1066 C1051 0.961 . S
H1067 C1051 0.961 1_655 S
H1068 C1052 0.931 . S
H1069 C1057 0.930 . S
H1070 C1058 0.956 . S
H1071 C1058 0.961 . S
H1072 C1058 0.961 . S
H1073 C1059 0.958 . S
H1074 C1059 0.961 . S
H1075 C1059 0.960 . S
C1076 C1077 1.391 . S
C1076 C1078 1.394 . S
C1076 H1092 0.931 . S
C1077 C1076 1.391 . S
C1077 C1081 1.376 . S
C1078 C1076 1.394 . S
C1078 C1079 1.369 . S
C1078 C1082 1.531 . S
C1079 C1078 1.369 . S
C1079 C1080 1.410 . S
C1079 C1087 1.503 . S
C1080 C1079 1.410 . S
C1080 C1081 1.392 . S
C1080 C1083 1.511 . S
C1081 C1077 1.376 . S
C1081 C1080 1.392 . S
C1081 H1093 0.929 . S
C1082 C1078 1.531 . S
C1082 H1094 0.960 . S
C1082 H1095 0.962 . S
C1082 H1096 0.960 . S
C1083 C1080 1.511 . S
C1083 H1097 0.961 . S
C1083 H1098 0.961 . S
C1083 H1099 0.961 . S
C1084 C1085 1.370 . S
C1084 C1086 1.363 . S
C1084 H1100 0.931 . S
C1085 C1084 1.370 . S
C1085 C1089 1.408 . S
C1086 C1084 1.363 . S
C1086 C1087 1.370 . S
C1086 C1090 1.524 . S
C1087 C1079 1.503 . S
C1087 C1086 1.370 . S
C1087 C1088 1.403 . S
C1088 C1087 1.403 . S
C1088 C1089 1.404 . S
C1088 C1091 1.539 . S
C1089 C1085 1.408 . S
C1089 C1088 1.404 . S
C1089 H1101 0.930 . S
C1090 C1086 1.524 . S
C1090 H1102 0.956 . S
C1090 H1103 0.961 . S
C1090 H1104 0.961 . S
C1091 C1088 1.539 . S
C1091 H1105 0.958 . S
C1091 H1106 0.961 . S
C1091 H1107 0.960 . S
H1092 C1076 0.931 . S
H1093 C1081 0.929 . S
H1094 C1082 0.960 . S
H1095 C1082 0.962 . S
H1096 C1082 0.960 . S
H1097 C1083 0.961 . S
H1098 C1083 0.961 . S
H1099 C1083 0.961 . S
H1100 C1084 0.931 . S
H1101 C1089 0.930 . S
H1102 C1090 0.956 . S
H1103 C1090 0.961 . S
H1104 C1090 0.961 . S
H1105 C1091 0.958 . S
H1106 C1091 0.961 . S
H1107 C1091 0.960 . S
C1108 C1109 1.391 . S
C1108 C1110 1.394 . S
C1108 H1124 0.931 . S
C1109 C1108 1.391 . S
C1109 C1113 1.376 . S
C1110 C1108 1.394 . S
C1110 C1111 1.369 . S
C1110 C1114 1.531 . S
C1111 C1110 1.369 . S
C1111 C1112 1.410 . S
C1111 C1119 1.503 . S
C1112 C1111 1.410 . S
C1112 C1113 1.392 . S
C1112 C1115 1.511 . S
C1113 C1109 1.376 . S
C1113 C1112 1.392 . S
C1113 H1125 0.929 . S
C1114 C1110 1.531 . S
C1114 H1126 0.960 . S
C1114 H1127 0.962 . S
C1114 H1128 0.960 . S
C1115 C1112 1.511 . S
C1115 H1129 0.961 . S
C1115 H1130 0.961 . S
C1115 H1131 0.961 . S
C1116 C1117 1.370 . S
C1116 C1118 1.363 . S
C1116 H1132 0.931 . S
C1117 C1116 1.370 . S
C1117 C1121 1.408 . S
C1118 C1116 1.363 . S
C1118 C1119 1.370 . S
C1118 C1122 1.524 . S
C1119 C1111 1.503 . S
C1119 C1118 1.370 . S
C1119 C1120 1.403 . S
C1120 C1119 1.403 . S
C1120 C1121 1.404 . S
C1120 C1123 1.539 . S
C1121 C1117 1.408 . S
C1121 C1120 1.404 . S
C1121 H1133 0.930 . S
C1122 C1118 1.524 . S
C1122 H1134 0.956 . S
C1122 H1135 0.961 . S
C1122 H1136 0.961 . S
C1123 C1120 1.539 . S
C1123 H1137 0.958 . S
C1123 H1138 0.961 . S
C1123 H1139 0.960 . S
H1124 C1108 0.931 . S
H1125 C1113 0.929 . S
H1126 C1114 0.960 . S
H1127 C1114 0.962 . S
H1128 C1114 0.960 . S
H1129 C1115 0.961 . S
H1130 C1115 0.961 . S
H1131 C1115 0.961 . S
H1132 C1116 0.931 . S
H1133 C1121 0.930 . S
H1134 C1122 0.956 . S
H1135 C1122 0.961 . S
H1136 C1122 0.961 . S
H1137 C1123 0.958 . S
H1138 C1123 0.961 . S
H1139 C1123 0.960 . S
C1140 C1141 1.391 . S
C1140 C1142 1.394 . S
C1140 H1156 0.931 . S
C1141 C1140 1.391 . S
C1141 C1145 1.376 . S
C1142 C1140 1.394 . S
C1142 C1143 1.369 . S
C1142 C1146 1.531 . S
C1143 C1142 1.369 . S
C1143 C1144 1.410 . S
C1143 C1151 1.503 . S
C1144 C1143 1.410 . S
C1144 C1145 1.392 . S
C1144 C1147 1.511 . S
C1145 C1141 1.376 . S
C1145 C1144 1.392 . S
C1145 H1157 0.929 . S
C1146 C1142 1.531 . S
C1146 H1158 0.960 . S
C1146 H1159 0.962 . S
C1146 H1160 0.960 . S
C1147 C1144 1.511 . S
C1147 H1161 0.961 . S
C1147 H1162 0.961 . S
C1147 H1163 0.961 . S
C1148 C1149 1.370 . S
C1148 C1150 1.363 . S
C1148 H1164 0.931 . S
C1149 C1148 1.370 . S
C1149 C1153 1.408 . S
C1150 C1148 1.363 . S
C1150 C1151 1.370 . S
C1150 C1154 1.524 . S
C1151 C1143 1.503 . S
C1151 C1150 1.370 . S
C1151 C1152 1.403 . S
C1152 C1151 1.403 . S
C1152 C1153 1.404 . S
C1152 C1155 1.539 . S
C1153 C1149 1.408 . S
C1153 C1152 1.404 . S
C1153 H1165 0.930 . S
C1154 C1150 1.524 . S
C1154 H1166 0.956 . S
C1154 H1167 0.961 . S
C1154 H1168 0.961 . S
C1155 C1152 1.539 . S
C1155 H1169 0.958 . S
C1155 H1170 0.961 . S
C1155 H1171 0.960 . S
H1156 C1140 0.931 . S
H1157 C1145 0.929 . S
H1158 C1146 0.960 . S
H1159 C1146 0.962 . S
H1160 C1146 0.960 . S
H1161 C1147 0.961 . S
H1162 C1147 0.961 . S
H1163 C1147 0.961 . S
H1164 C1148 0.931 . S
H1165 C1153 0.930 . S
H1166 C1154 0.956 . S
H1167 C1154 0.961 . S
H1168 C1154 0.961 . S
H1169 C1155 0.958 . S
H1170 C1155 0.961 . S
H1171 C1155 0.960 . S
C413 C327 1.536 . S
C405 C15 1.720 . S
C445 C345 1.296 . S
C437 C55 1.433 . S
C469 C82 1.406 . S
C477 C369 1.359 . S
C509 C399 1.381 . S
C501 C122 1.500 . S
C541 C387 1.359 . S
C533 C175 1.420 . S
C565 C215 1.434 . S
C573 C340 1.329 . S
C597 C242 1.693 . S
C605 C360 1.552 . S
C629 C282 1.477 . S
C637 C365 1.365 . S
C661 C295 1.402 . S
C669 C381 1.342 . S
C693 C202 1.454 . S
C701 C336 1.331 . S
C733 C403 1.320 . S
C725 C135 1.417 . S
C765 C348 1.335 . S
C757 C42 1.454 . S
C789 C95 1.677 . S
C797 C366 1.566 . S
C821 C2 1.417 . S
C829 C324 1.371 . S
C861 C344 1.378 . S
C853 C255 1.452 . S
C893 C390 1.557 . S
C885 C162 1.713 . S
C925 C386 1.315 . S
C917 C21 1.500 . S
C957 C339 1.358 . S
C949 C61 1.439 . S
C981 C101 1.440 . S
C989 C361 1.340 . S
C1013 C141 1.453 . S
C1021 C382 1.367 . S
C1053 C323 1.316 . S
C1045 C181 1.530 1_554 S
C1077 C221 1.449 . S
C1085 C357 1.411 . S
C1117 C378 1.328 . S
C1109 C261 1.542 . S
C1149 C402 1.360 . S
C1141 C301 1.437 . S
