# Generated by pormake.
# Topology ocu, (6,8)-cn, num edge types: 1
# Building blocks:
#     Node 0, Type 0, BuildingBlock: JUFBIX_clean_sbu_0, # of connection points: 6
#     Node 1, Type 0, BuildingBlock: JUFBIX_clean_sbu_0, # of connection points: 6
#     Node 2, Type 0, BuildingBlock: JUFBIX_clean_sbu_0, # of connection points: 6
#     Node 3, Type 0, BuildingBlock: JUFBIX_clean_sbu_0, # of connection points: 6
#     Node 4, Type 0, BuildingBlock: JUFBIX_clean_sbu_0, # of connection points: 6
#     Node 5, Type 0, BuildingBlock: JUFBIX_clean_sbu_0, # of connection points: 6
#     Node 6, Type 0, BuildingBlock: JUFBIX_clean_sbu_0, # of connection points: 6
#     Node 7, Type 0, BuildingBlock: JUFBIX_clean_sbu_0, # of connection points: 6
#     Node 8, Type 1, BuildingBlock: GIZVER_clean_sbu_0, # of connection points: 8
#     Node 9, Type 1, BuildingBlock: GIZVER_clean_sbu_0, # of connection points: 8
#     Node 10, Type 1, BuildingBlock: GIZVER_clean_sbu_0, # of connection points: 8
#     Node 11, Type 1, BuildingBlock: GIZVER_clean_sbu_0, # of connection points: 8
#     Node 12, Type 1, BuildingBlock: GIZVER_clean_sbu_0, # of connection points: 8
#     Node 13, Type 1, BuildingBlock: GIZVER_clean_sbu_0, # of connection points: 8
#     Edge 14, Type (0, 1), BuildingBlock: XUDNAN_clean_linker_2, # of connection points: 2
#     Edge 15, Type (0, 1), BuildingBlock: XUDNAN_clean_linker_2, # of connection points: 2
#     Edge 16, Type (0, 1), BuildingBlock: XUDNAN_clean_linker_2, # of connection points: 2
#     Edge 17, Type (0, 1), BuildingBlock: XUDNAN_clean_linker_2, # of connection points: 2
#     Edge 18, Type (0, 1), BuildingBlock: XUDNAN_clean_linker_2, # of connection points: 2
#     Edge 19, Type (0, 1), BuildingBlock: XUDNAN_clean_linker_2, # of connection points: 2
#     Edge 20, Type (0, 1), BuildingBlock: XUDNAN_clean_linker_2, # of connection points: 2
#     Edge 21, Type (0, 1), BuildingBlock: XUDNAN_clean_linker_2, # of connection points: 2
#     Edge 22, Type (0, 1), BuildingBlock: XUDNAN_clean_linker_2, # of connection points: 2
#     Edge 23, Type (0, 1), BuildingBlock: XUDNAN_clean_linker_2, # of connection points: 2
#     Edge 24, Type (0, 1), BuildingBlock: XUDNAN_clean_linker_2, # of connection points: 2
#     Edge 25, Type (0, 1), BuildingBlock: XUDNAN_clean_linker_2, # of connection points: 2
#     Edge 26, Type (0, 1), BuildingBlock: XUDNAN_clean_linker_2, # of connection points: 2
#     Edge 27, Type (0, 1), BuildingBlock: XUDNAN_clean_linker_2, # of connection points: 2
#     Edge 28, Type (0, 1), BuildingBlock: XUDNAN_clean_linker_2, # of connection points: 2
#     Edge 29, Type (0, 1), BuildingBlock: XUDNAN_clean_linker_2, # of connection points: 2
#     Edge 30, Type (0, 1), BuildingBlock: XUDNAN_clean_linker_2, # of connection points: 2
#     Edge 31, Type (0, 1), BuildingBlock: XUDNAN_clean_linker_2, # of connection points: 2
#     Edge 32, Type (0, 1), BuildingBlock: XUDNAN_clean_linker_2, # of connection points: 2
#     Edge 33, Type (0, 1), BuildingBlock: XUDNAN_clean_linker_2, # of connection points: 2
#     Edge 34, Type (0, 1), BuildingBlock: XUDNAN_clean_linker_2, # of connection points: 2
#     Edge 35, Type (0, 1), BuildingBlock: XUDNAN_clean_linker_2, # of connection points: 2
#     Edge 36, Type (0, 1), BuildingBlock: XUDNAN_clean_linker_2, # of connection points: 2
#     Edge 37, Type (0, 1), BuildingBlock: XUDNAN_clean_linker_2, # of connection points: 2
#     Edge 38, Type (0, 1), BuildingBlock: XUDNAN_clean_linker_2, # of connection points: 2
#     Edge 39, Type (0, 1), BuildingBlock: XUDNAN_clean_linker_2, # of connection points: 2
#     Edge 40, Type (0, 1), BuildingBlock: XUDNAN_clean_linker_2, # of connection points: 2
#     Edge 41, Type (0, 1), BuildingBlock: XUDNAN_clean_linker_2, # of connection points: 2
#     Edge 42, Type (0, 1), BuildingBlock: XUDNAN_clean_linker_2, # of connection points: 2
#     Edge 43, Type (0, 1), BuildingBlock: XUDNAN_clean_linker_2, # of connection points: 2
#     Edge 44, Type (0, 1), BuildingBlock: XUDNAN_clean_linker_2, # of connection points: 2
#     Edge 45, Type (0, 1), BuildingBlock: XUDNAN_clean_linker_2, # of connection points: 2
#     Edge 46, Type (0, 1), BuildingBlock: XUDNAN_clean_linker_2, # of connection points: 2
#     Edge 47, Type (0, 1), BuildingBlock: XUDNAN_clean_linker_2, # of connection points: 2
#     Edge 48, Type (0, 1), BuildingBlock: XUDNAN_clean_linker_2, # of connection points: 2
#     Edge 49, Type (0, 1), BuildingBlock: XUDNAN_clean_linker_2, # of connection points: 2
#     Edge 50, Type (0, 1), BuildingBlock: XUDNAN_clean_linker_2, # of connection points: 2
#     Edge 51, Type (0, 1), BuildingBlock: XUDNAN_clean_linker_2, # of connection points: 2
#     Edge 52, Type (0, 1), BuildingBlock: XUDNAN_clean_linker_2, # of connection points: 2
#     Edge 53, Type (0, 1), BuildingBlock: XUDNAN_clean_linker_2, # of connection points: 2
#     Edge 54, Type (0, 1), BuildingBlock: XUDNAN_clean_linker_2, # of connection points: 2
#     Edge 55, Type (0, 1), BuildingBlock: XUDNAN_clean_linker_2, # of connection points: 2
#     Edge 56, Type (0, 1), BuildingBlock: XUDNAN_clean_linker_2, # of connection points: 2
#     Edge 57, Type (0, 1), BuildingBlock: XUDNAN_clean_linker_2, # of connection points: 2
#     Edge 58, Type (0, 1), BuildingBlock: XUDNAN_clean_linker_2, # of connection points: 2
#     Edge 59, Type (0, 1), BuildingBlock: XUDNAN_clean_linker_2, # of connection points: 2
#     Edge 60, Type (0, 1), BuildingBlock: XUDNAN_clean_linker_2, # of connection points: 2
#     Edge 61, Type (0, 1), BuildingBlock: XUDNAN_clean_linker_2, # of connection points: 2
# Relax obj value: 0.259
# Max RMSD: 0.325
# Mean RMSD: 0.220
data_MOF--net-ocu--node1-JUFBIX_clean_sbu_0--node2-GIZVER_clean_sbu_0--edge1-XUDNAN_clean_linker_2
_symmetry_space_group_name_H-M    P1
_symmetry_Int_Tables_number       1
_symmetry_cell_setting            triclinic
loop_
_symmetry_equiv_pos_as_xyz
'x, y, z'
_cell_length_a     40.631886
_cell_length_b     42.906385
_cell_length_c     30.90184
_cell_angle_alpha  92.70535
_cell_angle_beta   94.082504
_cell_angle_gamma 100.50278
loop_
_atom_site_label
_atom_site_type_symbol
_atom_site_fract_x
_atom_site_fract_y
_atom_site_fract_z
_atom_type_partial_charge
Co0 Co 0.25876 0.25876 0.25876 0.0
C1 C 0.2541 0.31307 0.3116 0.0
Co2 Co 0.30232 0.29686 0.25719 0.0
C3 C 0.22135 0.1964 0.26699 0.0
C4 C 0.18946 0.22955 0.25117 0.0
N5 N 0.22191 0.22699 0.25848 0.0
N6 N 0.18977 0.17974 0.26577 0.0
C7 C 0.16964 0.20056 0.25566 0.0
H8 H 0.24368 0.18677 0.2751 0.0
H9 H 0.18075 0.25136 0.2446 0.0
C10 C 0.30672 0.24228 0.20449 0.0
N11 N 0.33944 0.3288 0.25786 0.0
C12 C 0.34047 0.35932 0.24838 0.0
C13 C 0.37145 0.32699 0.27073 0.0
N14 N 0.37171 0.37657 0.25556 0.0
C15 C 0.39133 0.3564 0.2695 0.0
C16 C 0.31151 0.2523 0.31934 0.0
O17 O 0.27789 0.2331 0.21809 0.0
O18 O 0.32206 0.27051 0.21596 0.0
O19 O 0.32441 0.27821 0.30388 0.0
O20 O 0.28145 0.23979 0.30587 0.0
O21 O 0.28305 0.3226 0.29842 0.0
H22 H 0.37994 0.30563 0.28014 0.0
H23 H 0.31883 0.36881 0.23654 0.0
O24 O 0.239 0.28492 0.2996 0.0
O25 O 0.23662 0.27713 0.212 0.0
O26 O 0.27946 0.31586 0.21015 0.0
C27 C 0.24946 0.30309 0.19652 0.0
H28 H 0.14249 0.19578 0.25438 0.0
H29 H 0.4183 0.36229 0.27658 0.0
Co30 Co 0.78855 0.27648 0.25072 0.0
C31 C 0.80208 0.32235 0.32028 0.0
Co32 Co 0.75111 0.27207 0.29917 0.0
C33 C 0.83647 0.31162 0.20123 0.0
C34 C 0.84136 0.26272 0.19951 0.0
N35 N 0.8214 0.28277 0.21223 0.0
N36 N 0.86556 0.31066 0.18362 0.0
C37 C 0.86892 0.28 0.18242 0.0
H38 H 0.82838 0.33347 0.21072 0.0
H39 H 0.83787 0.23786 0.2062 0.0
C40 C 0.73752 0.22583 0.2302 0.0
N41 N 0.71875 0.26696 0.33864 0.0
C42 C 0.71069 0.24139 0.36189 0.0
C43 C 0.69769 0.28643 0.34996 0.0
N44 N 0.6857 0.24403 0.38731 0.0
C45 C 0.67693 0.27211 0.37969 0.0
C46 C 0.73598 0.30924 0.23168 0.0
O47 O 0.76423 0.24081 0.21613 0.0
O48 O 0.72799 0.23528 0.26605 0.0
O49 O 0.72557 0.29694 0.2659 0.0
O50 O 0.76377 0.30416 0.21899 0.0
O51 O 0.77406 0.30862 0.33195 0.0
H52 H 0.69719 0.30938 0.33714 0.0
H53 H 0.72227 0.22062 0.35936 0.0
O54 O 0.81287 0.31193 0.286 0.0
O55 O 0.81288 0.24875 0.28234 0.0
O56 O 0.77727 0.24681 0.33241 0.0
C57 C 0.80343 0.23883 0.31842 0.0
H58 H 0.89092 0.27121 0.17314 0.0
H59 H 0.65713 0.28148 0.39453 0.0
Co60 Co 0.76765 0.76009 0.27812 0.0
C61 C 0.82543 0.8073 0.28384 0.0
Co62 Co 0.77562 0.78509 0.21854 0.0
C63 C 0.788 0.7288 0.34909 0.0
C64 C 0.73788 0.73562 0.35609 0.0
N65 N 0.76275 0.73997 0.32889 0.0
N66 N 0.78025 0.71745 0.38746 0.0
C67 C 0.74875 0.72161 0.39263 0.0
H68 H 0.81221 0.72944 0.33621 0.0
H69 H 0.71376 0.74258 0.35009 0.0
C70 C 0.71788 0.73769 0.2131 0.0
N71 N 0.78192 0.80547 0.16804 0.0
C72 C 0.75848 0.81451 0.14103 0.0
C73 C 0.81113 0.81421 0.14971 0.0
N74 N 0.77187 0.82872 0.10671 0.0
C75 C 0.80505 0.82891 0.11213 0.0
C76 C 0.80564 0.73134 0.21965 0.0
O77 O 0.72777 0.73442 0.2523 0.0
O78 O 0.73496 0.75884 0.19201 0.0
O79 O 0.80109 0.75453 0.19737 0.0
O80 O 0.79308 0.72901 0.25626 0.0
O81 O 0.81566 0.81073 0.24475 0.0
H82 H 0.83534 0.81056 0.1632 0.0
H83 H 0.73228 0.81191 0.14739 0.0
O84 O 0.80811 0.78627 0.3046 0.0
O85 O 0.74244 0.7902 0.29915 0.0
O86 O 0.75024 0.81651 0.24058 0.0
C87 C 0.73802 0.81371 0.27752 0.0
H88 H 0.73467 0.71466 0.42017 0.0
H89 H 0.82355 0.83958 0.09104 0.0
Co90 Co 0.25172 0.79112 0.24385 0.0
C91 C 0.29632 0.81375 0.3154 0.0
Co92 Co 0.28746 0.76023 0.25588 0.0
C93 C 0.20098 0.82756 0.25432 0.0
C94 C 0.21683 0.82864 0.18983 0.0
N95 N 0.22158 0.81605 0.2286 0.0
N96 N 0.1839 0.84716 0.23347 0.0
C97 C 0.19395 0.84845 0.19306 0.0
H98 H 0.2001 0.82331 0.28854 0.0
H99 H 0.23014 0.82466 0.16158 0.0
C100 C 0.24286 0.73782 0.18462 0.0
N101 N 0.31769 0.73507 0.26988 0.0
C102 C 0.33678 0.72293 0.24243 0.0
C103 C 0.32285 0.72171 0.30789 0.0
N104 N 0.35323 0.70206 0.26141 0.0
C105 C 0.34449 0.70087 0.30252 0.0
C106 C 0.22565 0.74005 0.29709 0.0
O107 O 0.23271 0.76314 0.1951 0.0
O108 O 0.26854 0.73157 0.20601 0.0
O109 O 0.25461 0.73375 0.29117 0.0
O110 O 0.21906 0.7654 0.28077 0.0
O111 O 0.3059 0.78792 0.30549 0.0
H112 H 0.31036 0.72565 0.33688 0.0
H113 H 0.33667 0.72749 0.20825 0.0
O114 O 0.27111 0.82034 0.29319 0.0
O115 O 0.28333 0.81632 0.20804 0.0
O116 O 0.32109 0.78726 0.21964 0.0
C117 C 0.31287 0.81174 0.20248 0.0
H118 H 0.18628 0.86346 0.16854 0.0
H119 H 0.35206 0.68514 0.32613 0.0
Co120 Co 0.29266 0.76757 0.72481 0.0
C121 C 0.31401 0.81896 0.78835 0.0
Co122 Co 0.26121 0.77089 0.77916 0.0
C123 C 0.33614 0.79581 0.66434 0.0
C124 C 0.33476 0.74574 0.66269 0.0
N125 N 0.32101 0.76904 0.68086 0.0
N126 N 0.35926 0.79053 0.6371 0.0
C127 C 0.35858 0.75899 0.63586 0.0
H128 H 0.33186 0.81912 0.67457 0.0
H129 H 0.32905 0.72105 0.67014 0.0
C130 C 0.23956 0.71944 0.71646 0.0
N131 N 0.23297 0.76785 0.82345 0.0
C132 C 0.22409 0.74059 0.84296 0.0
C133 C 0.21225 0.78682 0.83722 0.0
N134 N 0.19828 0.74116 0.86761 0.0
C135 C 0.19051 0.77023 0.86419 0.0
C136 C 0.24116 0.80357 0.70965 0.0
O137 O 0.26477 0.73114 0.69665 0.0
O138 O 0.2345 0.73302 0.7521 0.0
O139 O 0.23391 0.79571 0.74749 0.0
O140 O 0.26604 0.79417 0.69365 0.0
O141 O 0.2872 0.80822 0.80563 0.0
H142 H 0.21127 0.81012 0.82583 0.0
H143 H 0.234 0.71937 0.83546 0.0
O144 O 0.32114 0.80468 0.75417 0.0
O145 O 0.31848 0.74079 0.75543 0.0
O146 O 0.28936 0.7464 0.81107 0.0
C147 C 0.31261 0.73494 0.79432 0.0
H148 H 0.37484 0.74661 0.6181 0.0
H149 H 0.16945 0.77815 0.87791 0.0
Co150 Co 0.27273 0.23803 0.79713 0.0
C151 C 0.32685 0.28838 0.81343 0.0
Co152 Co 0.27699 0.27213 0.74614 0.0
C153 C 0.28972 0.20956 0.8757 0.0
C154 C 0.23762 0.19524 0.85517 0.0
N155 N 0.26671 0.21204 0.84315 0.0
N156 N 0.27619 0.19242 0.90747 0.0
C157 C 0.24357 0.18255 0.89446 0.0
H158 H 0.31615 0.21973 0.8761 0.0
H159 H 0.21341 0.19291 0.83718 0.0
C160 C 0.22224 0.22242 0.73104 0.0
N161 N 0.28232 0.29817 0.70037 0.0
C162 C 0.27527 0.32749 0.69894 0.0
C163 C 0.28911 0.29057 0.65945 0.0
N164 N 0.27601 0.33809 0.65863 0.0
C165 C 0.28519 0.31507 0.63371 0.0
C166 C 0.3106 0.2197 0.73278 0.0
O167 O 0.2342 0.21397 0.76666 0.0
O168 O 0.23719 0.24744 0.71516 0.0
O169 O 0.30366 0.24529 0.71866 0.0
O170 O 0.30028 0.21115 0.76922 0.0
O171 O 0.31649 0.29719 0.77703 0.0
H172 H 0.29397 0.2678 0.64797 0.0
H173 H 0.26632 0.33959 0.72591 0.0
O174 O 0.31142 0.26288 0.82737 0.0
O175 O 0.24535 0.26405 0.82452 0.0
O176 O 0.24934 0.29864 0.77479 0.0
C177 C 0.2379 0.28942 0.81027 0.0
H178 H 0.22556 0.1674 0.9121 0.0
H179 H 0.28614 0.31473 0.59877 0.0
Co180 Co 0.76596 0.27772 0.74605 0.0
C181 C 0.80983 0.30169 0.81824 0.0
Co182 Co 0.80431 0.24942 0.75902 0.0
C183 C 0.71418 0.31135 0.76145 0.0
C184 C 0.72765 0.31534 0.69599 0.0
N185 N 0.73388 0.30119 0.73301 0.0
N186 N 0.69633 0.33179 0.74417 0.0
C187 C 0.70483 0.33478 0.70309 0.0
H188 H 0.71522 0.30617 0.79544 0.0
H189 H 0.74043 0.31324 0.66676 0.0
C190 C 0.76037 0.22469 0.68729 0.0
N191 N 0.83626 0.22562 0.77352 0.0
C192 C 0.8327 0.19392 0.76742 0.0
C193 C 0.86622 0.23498 0.79644 0.0
N194 N 0.85932 0.18288 0.7851 0.0
C195 C 0.88041 0.2088 0.80366 0.0
C196 C 0.74364 0.22588 0.80033 0.0
O197 O 0.74727 0.24852 0.69723 0.0
O198 O 0.78737 0.2215 0.70871 0.0
O199 O 0.77333 0.22194 0.79387 0.0
O200 O 0.7345 0.25015 0.78375 0.0
O201 O 0.82073 0.27667 0.80876 0.0
H202 H 0.87717 0.25925 0.80715 0.0
H203 H 0.81137 0.17939 0.7488 0.0
O204 O 0.78463 0.30755 0.79535 0.0
O205 O 0.79737 0.30494 0.70908 0.0
O206 O 0.83603 0.27706 0.72383 0.0
C207 C 0.82754 0.30088 0.70533 0.0
H208 H 0.69674 0.35123 0.68096 0.0
H209 H 0.90495 0.20914 0.81993 0.0
Co210 Co 0.75412 0.74318 0.75481 0.0
C211 C 0.74723 0.79523 0.81025 0.0
Co212 Co 0.79734 0.7819 0.75782 0.0
C213 C 0.7182 0.67934 0.75404 0.0
C214 C 0.68545 0.7127 0.74417 0.0
N215 N 0.71802 0.71052 0.75111 0.0
N216 N 0.68691 0.66183 0.74941 0.0
C217 C 0.66626 0.68284 0.74318 0.0
H218 H 0.74085 0.6698 0.76029 0.0
H219 H 0.67624 0.73467 0.74104 0.0
C220 C 0.80455 0.73046 0.70207 0.0
N221 N 0.83295 0.81504 0.76126 0.0
C222 C 0.83109 0.84567 0.75619 0.0
C223 C 0.86592 0.81458 0.76851 0.0
N224 N 0.86161 0.86449 0.75927 0.0
C225 C 0.88365 0.84499 0.76717 0.0
C226 C 0.8057 0.736 0.81755 0.0
O227 O 0.77527 0.71977 0.71328 0.0
O228 O 0.81909 0.75819 0.71671 0.0
O229 O 0.81911 0.76268 0.80442 0.0
O230 O 0.77628 0.72336 0.80142 0.0
O231 O 0.77647 0.80523 0.79872 0.0
H232 H 0.87637 0.79339 0.77301 0.0
H233 H 0.80773 0.85388 0.74922 0.0
O234 O 0.73234 0.76739 0.79634 0.0
O235 O 0.73247 0.76212 0.70877 0.0
O236 O 0.77483 0.80157 0.71077 0.0
C237 C 0.74536 0.78866 0.69516 0.0
H238 H 0.63909 0.67734 0.74071 0.0
H239 H 0.91073 0.85182 0.76906 0.0
Co240 Co 0.05916 0.95629 0.50286 0.0
Co241 Co 0.06204 0.97939 0.57946 0.0
Co242 Co 1.01994 1.01797 0.5105 0.0
O243 O 0.05866 0.9973 0.52731 0.0
H244 H 0.07948 1.0118 0.52444 0.0
O245 O 0.98092 0.03825 0.49334 0.0
Co246 Co 0.97933 0.07591 0.52579 0.0
Co247 Co 0.97988 0.06329 0.44829 0.0
H248 H 0.96014 0.02301 0.49219 0.0
O249 O 0.10263 0.97345 0.60772 0.0
O250 O 0.06759 0.9386 0.56099 0.0
O251 O 1.02396 0.98229 0.61074 0.0
O252 O 0.992 0.99965 0.55802 0.0
O253 O 0.04142 0.05355 0.55249 0.0
O254 O 0.9742 0.1077 0.56053 0.0
O255 O 0.93687 0.06332 0.53687 0.0
O256 O 0.02515 0.09291 0.51957 0.0
O257 O 0.04772 0.03683 0.46304 0.0
O258 O 1.02073 0.06713 0.42062 0.0
O259 O 0.967 0.0992 0.47371 0.0
O260 O 0.94021 0.06679 0.41703 0.0
C261 C 0.09365 0.93804 0.47389 0.0
C262 C 0.99402 0.95289 0.47527 0.0
C263 C 0.99668 0.99017 0.59634 0.0
C264 C 0.09447 0.94529 0.5882 0.0
C265 C 0.94626 0.0879 0.5641 0.0
C266 C 0.0455 0.08291 0.54602 0.0
C267 C 0.04589 0.0542 0.43058 0.0
C268 C 0.94312 0.09256 0.44206 0.0
O269 O 0.06413 0.92064 0.47661 0.0
O270 O 0.10248 0.96526 0.49574 0.0
O271 O 0.99891 0.98228 0.46864 0.0
O272 O 1.01186 0.94273 0.50495 0.0
Co273 Co 0.56974 0.96046 0.96194 0.0
Co274 Co 0.56176 0.96388 0.04418 0.0
Co275 Co 0.52937 0.02053 1.00568 0.0
O276 O 0.5664 0.9952 1.00426 0.0
H277 H 0.58805 1.00894 0.01039 0.0
O278 O 0.49223 0.04611 1.00716 0.0
Co279 Co 0.48753 0.07965 0.05149 0.0
Co280 Co 0.49762 0.07896 0.96936 0.0
H281 H 0.47068 0.03248 0.99967 0.0
O282 O 0.59998 0.95855 0.07349 0.0
O283 O 0.5738 0.9326 0.01094 0.0
O284 O 0.51977 0.94914 0.06685 0.0
O285 O 0.49589 0.98803 0.04113 0.0
O286 O 0.5528 0.04374 0.06017 0.0
O287 O 0.47958 0.10989 0.09059 0.0
O288 O 0.44114 0.07411 0.05025 0.0
O289 O 0.53486 0.09019 0.0605 0.0
O290 O 0.56277 0.05288 0.96987 0.0
O291 O 0.53964 0.09285 0.94619 0.0
O292 O 0.48736 0.10986 1.00528 0.0
O293 O 0.4598 0.08777 0.94172 0.0
C294 C 0.60781 0.94089 0.93331 0.0
C295 C 0.50092 0.96669 0.94399 0.0
C296 C 0.49419 0.96191 0.06201 0.0
C297 C 0.59904 0.93806 0.04082 0.0
C298 C 0.44814 0.0986 0.0787 0.0
C299 C 0.55726 0.07365 0.06942 0.0
C300 C 0.56474 0.07928 0.94957 0.0
C301 C 0.46243 0.10753 0.97557 0.0
O302 O 0.57618 0.92892 0.92406 0.0
O303 O 0.61565 0.96648 0.95974 0.0
O304 O 0.50635 0.99691 0.9513 0.0
O305 O 0.52205 0.94956 0.95651 0.0
Co306 Co 0.064 0.45159 0.98254 0.0
Co307 Co 0.08306 0.48442 0.05598 0.0
Co308 Co 0.02543 0.51728 1.0072 0.0
O309 O 0.06671 0.4963 1.00225 0.0
H310 H 0.08454 0.50997 0.98942 0.0
O311 O 0.98387 0.53781 0.01088 0.0
Co312 Co 0.98229 0.579 0.03981 0.0
Co313 Co 0.97096 0.5569 0.96032 0.0
H314 H 0.96507 0.52218 0.01805 0.0
O315 O 0.12651 0.47599 0.06906 0.0
O316 O 0.0809 0.44089 0.04207 0.0
O317 O 0.05438 0.48785 0.10213 0.0
O318 O 1.00964 0.49322 0.05888 0.0
O319 O 0.05403 0.55302 0.04601 0.0
O320 O 0.97659 0.61522 0.06876 0.0
O321 O 0.93903 0.56983 0.05488 0.0
O322 O 0.02865 0.59381 0.02989 0.0
O323 O 0.04205 0.54143 0.95659 0.0
O324 O 1.00494 0.56516 0.92059 0.0
O325 O 0.96677 0.59679 0.98397 0.0
O326 O 0.92705 0.56205 0.94344 0.0
C327 C 0.09536 0.42357 0.95411 0.0
C328 C 0.99435 0.45235 0.97581 0.0
C329 C 1.02288 0.48591 0.09497 0.0
C330 C 0.11194 0.44672 0.05943 0.0
C331 C 0.9467 0.59884 0.07247 0.0
C332 C 0.0549 0.58284 0.04204 0.0
C333 C 0.03405 0.55859 0.92635 0.0
C334 C 0.93768 0.59051 0.96104 0.0
O335 O 0.06481 0.41191 0.96265 0.0
O336 O 0.10686 0.45391 0.96353 0.0
O337 O 0.9969 0.48179 0.96827 0.0
O338 O 1.01823 0.44244 0.99696 0.0
Co339 Co 0.56856 0.4557 1.00129 0.0
Co340 Co 0.57742 0.49103 0.07169 0.0
Co341 Co 0.52683 0.51642 0.99879 0.0
O342 O 0.56719 0.49814 0.01459 0.0
H343 H 0.58671 0.5118 1.00528 0.0
O344 O 0.48706 0.53606 0.98277 0.0
Co345 Co 0.48656 0.5777 1.0064 0.0
Co346 Co 0.48139 0.55327 0.93007 0.0
H347 H 0.46668 0.52143 0.98729 0.0
O348 O 0.61972 0.48359 0.09617 0.0
O349 O 0.57744 0.44757 0.06352 0.0
O350 O 0.54261 0.49951 0.10672 0.0
O351 O 0.50365 0.50277 0.05244 0.0
O352 O 0.551 0.55491 0.0337 0.0
O353 O 0.48154 0.61374 0.03227 0.0
O354 O 0.44399 0.56799 0.01757 0.0
O355 O 0.53276 0.59255 0.99895 0.0
O356 O 0.55012 0.52981 0.94535 0.0
O357 O 0.51862 0.55119 0.89636 0.0
O358 O 0.47526 0.59385 0.94844 0.0
O359 O 0.4397 0.55822 0.90344 0.0
C360 C 0.60399 0.43436 0.97832 0.0
C361 C 0.50022 0.44882 0.9794 0.0
C362 C 0.51282 0.50148 0.09284 0.0
C363 C 0.60641 0.45408 0.08593 0.0
C364 C 0.45261 0.596 0.03736 0.0
C365 C 0.55362 0.58399 0.02618 0.0
C366 C 0.54516 0.54093 0.90818 0.0
C367 C 0.44797 0.58661 0.92222 0.0
O368 O 0.57494 0.41715 0.9846 0.0
O369 O 0.61149 0.46385 0.99299 0.0
O370 O 0.50246 0.47653 0.96532 0.0
O371 O 0.52234 0.44284 1.00728 0.0
Co372 Co 0.09157 0.48587 0.51533 0.0
Co373 Co 0.07792 0.49172 0.43711 0.0
Co374 Co 0.02664 0.52116 0.50251 0.0
O375 O 0.04993 0.48618 0.48212 0.0
H376 H 0.03509 0.46572 0.47933 0.0
O377 O 1.00538 0.55715 0.52504 0.0
Co378 Co 0.96883 0.56928 0.49326 0.0
Co379 Co 0.97629 0.55084 0.56901 0.0
H380 H 1.02261 0.57556 0.53339 0.0
O381 O 0.0852 0.45614 0.4036 0.0
O382 O 0.11708 0.48037 0.46236 0.0
O383 O 0.08834 0.53516 0.42071 0.0
O384 O 0.05559 0.55644 0.46522 0.0
O385 O 0.99184 0.50792 0.45255 0.0
O386 O 0.93754 0.58333 0.46345 0.0
O387 O 0.98251 0.61171 0.50393 0.0
O388 O 0.95002 0.52697 0.47934 0.0
O389 O 0.99734 0.48591 0.53919 0.0
O390 O 0.96197 0.50666 0.5801 0.0
O391 O 0.94069 0.56755 0.54445 0.0
O392 O 0.97024 0.58479 0.60771 0.0
C393 C 0.112 0.45364 0.54629 0.0
C394 C 0.09094 0.54326 0.54714 0.0
C395 C 0.07811 0.55942 0.4362 0.0
C396 C 0.11185 0.45846 0.43026 0.0
C397 C 0.95506 0.61048 0.47886 0.0
C398 C 0.96073 0.50551 0.45803 0.0
C399 C 0.97308 0.4826 0.56573 0.0
C400 C 0.94519 0.58624 0.57982 0.0
O401 O 0.12691 0.48307 0.54787 0.0
O402 O 0.08445 0.44356 0.52134 0.0
O403 O 0.06029 0.53339 0.55276 0.0
O404 O 0.10403 0.53073 0.51624 0.0
Co405 Co 0.59252 0.97188 0.52871 0.0
Co406 Co 0.57078 0.97573 0.4496 0.0
Co407 Co 0.5277 1.01898 0.50686 0.0
O408 O 0.54977 0.97935 0.50091 0.0
H409 H 0.53298 0.96044 0.50254 0.0
O410 O 0.50421 0.05763 0.51248 0.0
Co411 Co 0.46166 0.06463 0.48095 0.0
Co412 Co 0.47688 0.05524 0.55831 0.0
H413 H 0.52056 0.07717 0.51566 0.0
O414 O 0.57411 0.93725 0.42116 0.0
O415 O 0.61204 0.9668 0.47068 0.0
O416 O 0.5826 1.01549 0.42512 0.0
O417 O 0.53854 0.03339 0.4474 0.0
O418 O 0.48517 0.9906 0.48106 0.0
O419 O 0.42565 0.0751 0.45137 0.0
O420 O 0.47203 0.10816 0.4804 0.0
O421 O 0.44424 0.01926 0.47468 0.0
O422 O 0.51694 1.00426 0.56607 0.0
O423 O 0.4662 1.01342 0.57699 0.0
O424 O 0.43862 0.06906 0.53682 0.0
O425 O 0.4746 0.08963 0.59494 0.0
C426 C 0.61255 0.93296 0.55039 0.0
C427 C 0.6015 0.04343 0.53796 0.0
C428 C 0.56715 0.03819 0.43159 0.0
C429 C 0.60422 0.94362 0.4404 0.0
C430 C 0.44252 0.10394 0.45854 0.0
C431 C 0.4544 0.99274 0.47252 0.0
C432 C 0.48754 0.99524 0.57847 0.0
C433 C 0.44634 0.08857 0.5718 0.0
O434 O 0.62965 0.96178 0.55546 0.0
O435 O 0.58223 0.92838 0.53061 0.0
O436 O 0.57094 0.04752 0.53305 0.0
O437 O 0.60943 1.01613 0.53304 0.0
H438 H 0.13125 0.13995 0.24316 0.0
H439 H 0.22377 0.15048 0.32571 0.0
H440 H 0.19888 0.10575 0.36684 0.0
H441 H 0.08242 0.13678 0.31987 0.0
H442 H 0.04717 0.10803 0.29559 0.0
H443 H 0.07511 0.13062 0.26156 0.0
H444 H 0.0867 0.07895 0.22382 0.0
H445 H 0.05812 0.05594 0.25745 0.0
H446 H 0.10053 0.04914 0.2561 0.0
H447 H 0.16028 0.07263 0.41167 0.0
H448 H 0.11215 0.05431 0.45456 0.0
H449 H 0.04364 0.06739 0.34577 0.0
C450 C 0.14662 0.13189 0.26877 0.0
C451 C 0.1792 0.14879 0.28141 0.0
C452 C 0.19881 0.13772 0.31504 0.0
C453 C 0.18483 0.11221 0.33865 0.0
C454 C 0.15145 0.09782 0.32784 0.0
C455 C 0.13274 0.1069 0.29299 0.0
C456 C 0.09587 0.09275 0.29331 0.0
C457 C 0.07392 0.11859 0.29261 0.0
C458 C 0.08466 0.0677 0.25542 0.0
C459 C 0.09625 0.07742 0.33626 0.0
C460 C 0.12861 0.0792 0.35477 0.0
C461 C 0.13489 0.07022 0.39696 0.0
C462 C 0.10746 0.06007 0.4212 0.0
C463 C 0.07437 0.05985 0.40341 0.0
C464 C 0.06879 0.06747 0.36001 0.0
H465 H 0.8406 0.19523 0.28919 0.0
H466 H 0.81002 0.23702 0.40675 0.0
H467 H 0.84286 0.20504 0.45104 0.0
H468 H 0.83399 0.11601 0.32828 0.0
H469 H 0.86933 0.10724 0.30108 0.0
H470 H 0.84475 0.13448 0.2787 0.0
H471 H 0.89845 0.17761 0.27941 0.0
H472 H 0.92319 0.15051 0.30183 0.0
H473 H 0.92443 0.18869 0.3295 0.0
H474 H 0.8819 0.17029 0.48289 0.0
H475 H 0.91843 0.13131 0.49935 0.0
H476 H 0.91901 0.10768 0.36149 0.0
C477 C 0.84097 0.19772 0.32427 0.0
C478 C 0.82297 0.21895 0.34452 0.0
C479 C 0.82361 0.22103 0.39049 0.0
C480 C 0.84231 0.203 0.41594 0.0
C481 C 0.85979 0.18232 0.39506 0.0
C482 C 0.85881 0.17918 0.35022 0.0
C483 C 0.87844 0.15403 0.33592 0.0
C484 C 0.85524 0.12629 0.30943 0.0
C485 C 0.90788 0.16859 0.31014 0.0
C486 C 0.89092 0.14381 0.37964 0.0
C487 C 0.88028 0.16077 0.41337 0.0
C488 C 0.88997 0.15661 0.45669 0.0
C489 C 0.91081 0.13445 0.46578 0.0
C490 C 0.92125 0.11612 0.43185 0.0
C491 C 0.91098 0.12092 0.38821 0.0
H492 H 0.85007 0.81124 0.37002 0.0
H493 H 0.86898 0.85188 0.24601 0.0
H494 H 0.9169 0.89018 0.28146 0.0
H495 H 0.86695 0.88325 0.43353 0.0
H496 H 0.88743 0.86843 0.47978 0.0
H497 H 0.85647 0.84185 0.44443 0.0
H498 H 0.89946 0.8053 0.43172 0.0
H499 H 0.9306 0.83173 0.46721 0.0
H500 H 0.93947 0.82169 0.41249 0.0
H501 H 0.95859 0.92699 0.32987 0.0
H502 H 0.99345 0.96027 0.38911 0.0
H503 H 0.95003 0.89624 0.48323 0.0
C504 C 0.86466 0.82786 0.35023 0.0
C505 C 0.85574 0.8285 0.30514 0.0
C506 C 0.87526 0.85086 0.28051 0.0
C507 C 0.90262 0.87269 0.30034 0.0
C508 C 0.91039 0.8718 0.34482 0.0
C509 C 0.89223 0.84991 0.36957 0.0
C510 C 0.90508 0.85539 0.41727 0.0
C511 C 0.87733 0.86267 0.4454 0.0
C512 C 0.91951 0.82683 0.4331 0.0
C513 C 0.93263 0.88436 0.4155 0.0
C514 C 0.93523 0.89314 0.37319 0.0
C515 C 0.95715 0.92015 0.36304 0.0
C516 C 0.97671 0.93897 0.39698 0.0
C517 C 0.97449 0.93074 0.44067 0.0
C518 C 0.95256 0.90275 0.45003 0.0
H519 H 0.13252 0.82878 0.28034 0.0
H520 H 0.19778 0.91088 0.23806 0.0
H521 H 0.18159 0.94442 0.29739 0.0
H522 H 0.0661 0.87173 0.32165 0.0
H523 H 0.06068 0.84588 0.36594 0.0
H524 H 0.07182 0.83117 0.31448 0.0
H525 H 0.12305 0.81382 0.35492 0.0
H526 H 0.11333 0.83013 0.40611 0.0
H527 H 0.15399 0.84318 0.38648 0.0
H528 H 0.16694 0.96563 0.36868 0.0
H529 H 0.14376 0.97698 0.43809 0.0
H530 H 0.08943 0.87968 0.43388 0.0
C531 C 0.14171 0.85418 0.28234 0.0
C532 C 0.1658 0.86768 0.25498 0.0
C533 C 0.17861 0.90065 0.25855 0.0
C534 C 0.16994 0.91961 0.29239 0.0
C535 C 0.14822 0.90493 0.32136 0.0
C536 C 0.13337 0.87318 0.31581 0.0
C537 C 0.11317 0.86242 0.35322 0.0
C538 C 0.07572 0.85222 0.33791 0.0
C539 C 0.12672 0.83583 0.37652 0.0
C540 C 0.11973 0.89285 0.38132 0.0
C541 C 0.14012 0.91705 0.36259 0.0
C542 C 0.15044 0.94708 0.38334 0.0
C543 C 0.13764 0.95309 0.42306 0.0
C544 C 0.11473 0.92913 0.44094 0.0
C545 C 0.10683 0.89838 0.42072 0.0
H546 H 0.2135 0.85456 0.73755 0.0
H547 H 0.2207 0.79456 0.62314 0.0
H548 H 0.18293 0.82297 0.58027 0.0
H549 H 0.12762 0.86348 0.71708 0.0
H550 H 0.13506 0.90485 0.73541 0.0
H551 H 0.16154 0.8791 0.75752 0.0
H552 H 0.21411 0.91662 0.73501 0.0
H553 H 0.18781 0.94257 0.71304 0.0
H554 H 0.21606 0.92688 0.67922 0.0
H555 H 0.14036 0.85562 0.55126 0.0
H556 H 0.10426 0.89485 0.53544 0.0
H557 H 0.13045 0.93869 0.6656 0.0
C558 C 0.2071 0.84746 0.70345 0.0
C559 C 0.21985 0.82208 0.68375 0.0
C560 C 0.21129 0.81387 0.6389 0.0
C561 C 0.18969 0.8298 0.61435 0.0
C562 C 0.17738 0.85458 0.63472 0.0
C563 C 0.1864 0.86387 0.67805 0.0
C564 C 0.17124 0.89246 0.6914 0.0
C565 C 0.14745 0.88448 0.72749 0.0
C566 C 0.19896 0.92134 0.70549 0.0
C567 C 0.15194 0.89755 0.64906 0.0
C568 C 0.15529 0.87504 0.617 0.0
C569 C 0.13816 0.87372 0.57593 0.0
C570 C 0.11761 0.89619 0.56718 0.0
C571 C 0.11493 0.92045 0.59877 0.0
C572 C 0.13239 0.92089 0.64035 0.0
H573 H 0.19842 0.21826 0.64423 0.0
H574 H 0.17527 0.18294 0.77008 0.0
H575 H 0.12471 0.14767 0.73629 0.0
H576 H 0.10958 0.2136 0.60002 0.0
H577 H 0.11771 0.20041 0.54624 0.0
H578 H 0.15043 0.22597 0.58053 0.0
H579 H 0.18941 0.18499 0.57157 0.0
H580 H 0.15684 0.15931 0.5374 0.0
H581 H 0.1753 0.14461 0.58525 0.0
H582 H 0.08067 0.11277 0.69016 0.0
H583 H 0.04415 0.07922 0.63244 0.0
H584 H 0.09324 0.13593 0.53461 0.0
C585 C 0.18227 0.20353 0.66462 0.0
C586 C 0.19079 0.20334 0.70981 0.0
C587 C 0.1694 0.18337 0.73541 0.0
C588 C 0.14045 0.16336 0.71658 0.0
C589 C 0.13306 0.16355 0.672 0.0
C590 C 0.15313 0.18306 0.64616 0.0
C591 C 0.14032 0.17658 0.59856 0.0
C592 C 0.12883 0.20589 0.58026 0.0
C593 C 0.16706 0.16572 0.57162 0.0
C594 C 0.11065 0.14976 0.60185 0.0
C595 C 0.10691 0.14302 0.64474 0.0
C596 C 0.08297 0.11803 0.65649 0.0
C597 C 0.06249 0.09904 0.62352 0.0
C598 C 0.06594 0.10518 0.57935 0.0
C599 C 0.08989 0.13119 0.56828 0.0
H600 H 0.9214 0.16903 0.78305 0.0
H601 H 0.8158 0.12781 0.75933 0.0
H602 H 0.82962 0.08752 0.70821 0.0
H603 H 0.93835 0.17455 0.68964 0.0
H604 H 0.97924 0.1638 0.69 0.0
H605 H 0.96543 0.17844 0.73927 0.0
H606 H 0.97371 0.128 0.77804 0.0
H607 H 0.98945 0.11355 0.72931 0.0
H608 H 0.95523 0.08933 0.7532 0.0
H609 H 0.85113 0.06732 0.64188 0.0
H610 H 0.88036 0.06267 0.57488 0.0
H611 H 0.97133 0.11885 0.64032 0.0
C612 C 0.90134 0.1504 0.76934 0.0
C613 C 0.86751 0.15249 0.77351 0.0
C614 C 0.84195 0.12742 0.75523 0.0
C615 C 0.84961 0.10417 0.72638 0.0
C616 C 0.883 0.10579 0.71758 0.0
C617 C 0.90876 0.12748 0.74006 0.0
C618 C 0.94134 0.12922 0.71871 0.0
C619 C 0.9569 0.1635 0.7088 0.0
C620 C 0.9664 0.1141 0.74646 0.0
C621 C 0.92869 0.1089 0.67774 0.0
C622 C 0.89548 0.09433 0.67838 0.0
C623 C 0.87747 0.07768 0.64162 0.0
C624 C 0.89399 0.07566 0.60355 0.0
C625 C 0.92774 0.09108 0.60247 0.0
C626 C 0.94528 0.10735 0.64017 0.0
H627 H 0.91707 0.90754 0.78523 0.0
H628 H 0.82462 0.89312 0.70207 0.0
H629 H 0.84621 0.94018 0.66364 0.0
H630 H 0.94138 1.0012 0.77295 0.0
H631 H 0.98472 0.99712 0.77254 0.0
H632 H 0.95728 0.97314 0.80652 0.0
H633 H 0.97295 0.92256 0.77092 0.0
H634 H 0.99976 0.94605 0.73671 0.0
H635 H 0.96635 0.91522 0.71268 0.0
H636 H 0.8829 0.97329 0.61833 0.0
H637 H 0.92997 0.98953 0.57331 0.0
H638 H 1.00039 0.98276 0.68309 0.0
C639 C 0.90096 0.91534 0.76025 0.0
C640 C 0.86954 0.89655 0.74635 0.0
C641 C 0.84877 0.90722 0.71365 0.0
C642 C 0.86086 0.93413 0.69159 0.0
C643 C 0.8935 0.95038 0.70302 0.0
C644 C 0.91303 0.9419 0.73758 0.0
C645 C 0.94936 0.95804 0.73737 0.0
C646 C 0.95872 0.98392 0.77455 0.0
C647 C 0.97344 0.93402 0.73945 0.0
C648 C 0.94806 0.97267 0.69391 0.0
C649 C 0.91543 0.96968 0.67573 0.0
C650 C 0.90845 0.97673 0.63278 0.0
C651 C 0.93536 0.98563 0.60725 0.0
C652 C 0.96872 0.98672 0.62465 0.0
C653 C 0.97504 0.98185 0.669 0.0
H654 H 0.37469 0.24246 0.19399 0.0
H655 H 0.27486 0.18801 0.15799 0.0
H656 H 0.29951 0.14627 0.12171 0.0
H657 H 0.41239 0.22127 0.09533 0.0
H658 H 0.45209 0.21785 0.12287 0.0
H659 H 0.42746 0.2448 0.14497 0.0
H660 H 0.42709 0.21814 0.21789 0.0
H661 H 0.45241 0.19133 0.19721 0.0
H662 H 0.41295 0.17584 0.21854 0.0
H663 H 0.33538 0.10851 0.0916 0.0
H664 H 0.37911 0.07953 0.06782 0.0
H665 H 0.45614 0.15694 0.12493 0.0
C666 C 0.35799 0.22205 0.17777 0.0
C667 C 0.32257 0.21898 0.17866 0.0
C668 C 0.30191 0.19131 0.15776 0.0
C669 C 0.31575 0.16729 0.13702 0.0
C670 C 0.3506 0.17072 0.13743 0.0
C671 C 0.37149 0.19747 0.15718 0.0
C672 C 0.40817 0.19466 0.15412 0.0
C673 C 0.4261 0.22121 0.12775 0.0
C674 C 0.42622 0.19501 0.19965 0.0
C675 C 0.40463 0.16221 0.12991 0.0
C676 C 0.37118 0.14885 0.12044 0.0
C677 C 0.36165 0.11892 0.09853 0.0
C678 C 0.38675 0.10244 0.0854 0.0
C679 C 0.42133 0.1155 0.09462 0.0
C680 C 0.43007 0.14588 0.11751 0.0
H681 H 0.86257 0.35968 0.13323 0.0
H682 H 0.92615 0.3226 0.22837 0.0
H683 H 0.97012 0.37072 0.22634 0.0
H684 H 0.9258 0.38744 0.06833 0.0
H685 H 0.91048 0.42254 0.05267 0.0
H686 H 0.88164 0.3885 0.0674 0.0
H687 H 0.86043 0.42273 0.1266 0.0
H688 H 0.889 0.45729 0.11222 0.0
H689 H 0.89 0.44569 0.16754 0.0
H690 H 1.00831 0.42001 0.20966 0.0
H691 H 0.04186 0.46231 0.17183 0.0
H692 H 0.95444 0.46646 0.08427 0.0
C693 C 0.88573 0.36209 0.15378 0.0
C694 C 0.89146 0.33775 0.1807 0.0
C695 C 0.92187 0.34108 0.20715 0.0
C696 C 0.94659 0.36845 0.20667 0.0
C697 C 0.94038 0.3921 0.17946 0.0
C698 C 0.91086 0.38904 0.15309 0.0
C699 C 0.91224 0.41582 0.12271 0.0
C700 C 0.90727 0.40282 0.07494 0.0
C701 C 0.88638 0.43662 0.1329 0.0
C702 C 0.94774 0.43358 0.13467 0.0
C703 C 0.96306 0.42013 0.16854 0.0
C704 C 0.99653 0.43097 0.1834 0.0
C705 C 1.01539 0.45509 0.16166 0.0
C706 C 1.00089 0.46766 0.12483 0.0
C707 C 0.96622 0.45766 0.11254 0.0
H708 H 0.7097 0.80949 0.06783 0.0
H709 H 0.79504 0.88698 0.08037 0.0
H710 H 0.76007 0.92214 0.04725 0.0
H711 H 0.66735 0.83871 0.96305 0.0
H712 H 0.62623 0.8253 0.98132 0.0
H713 H 0.65942 0.80335 0.99281 0.0
H714 H 0.65114 0.80793 0.07466 0.0
H715 H 0.61817 0.82991 0.06441 0.0
H716 H 0.65393 0.84666 0.1016 0.0
H717 H 0.7144 0.95139 0.04077 0.0
H718 H 0.66171 0.97175 0.04383 0.0
H719 H 0.60455 0.87581 0.02727 0.0
C720 C 0.72116 0.83346 0.06141 0.0
C721 C 0.75479 0.84575 0.0765 0.0
C722 C 0.76937 0.87718 0.06842 0.0
C723 C 0.74965 0.89727 0.04971 0.0
C724 C 0.71578 0.88515 0.03823 0.0
C725 C 0.70184 0.85362 0.04213 0.0
C726 C 0.66403 0.84763 0.03274 0.0
C727 C 0.65362 0.82754 0.98991 0.0
C728 C 0.64579 0.83215 0.07063 0.0
C729 C 0.65857 0.88129 0.02813 0.0
C730 C 0.68888 0.90247 0.03089 0.0
C731 C 0.69056 0.93511 0.03635 0.0
C732 C 0.6606 0.94641 0.03859 0.0
C733 C 0.62942 0.9252 0.03476 0.0
C734 C 0.62822 0.89234 0.02851 0.0
H735 H 0.2178 0.67405 0.19054 0.0
H736 H 0.2181 0.75137 0.10531 0.0
H737 H 0.17439 0.71744 0.0554 0.0
H738 H 0.19809 0.60687 0.10401 0.0
H739 H 0.17063 0.58224 0.13721 0.0
H740 H 0.20598 0.61046 0.16236 0.0
H741 H 0.16614 0.63563 0.20904 0.0
H742 H 0.13068 0.60773 0.1839 0.0
H743 H 0.13117 0.64977 0.1826 0.0
H744 H 0.1262 0.67792 0.01921 0.0
H745 H 0.07659 0.63581 0.99964 0.0
H746 H 0.10523 0.58313 0.10806 0.0
C747 C 0.20965 0.68326 0.16038 0.0
C748 C 0.22217 0.71509 0.15103 0.0
C749 C 0.20951 0.72689 0.1125 0.0
C750 C 0.18458 0.70777 0.08403 0.0
C751 C 0.17204 0.67684 0.09464 0.0
C752 C 0.18418 0.66452 0.13181 0.0
C753 C 0.1638 0.63168 0.13778 0.0
C754 C 0.18595 0.60631 0.13518 0.0
C755 C 0.14696 0.6312 0.18088 0.0
C756 C 0.1379 0.62784 0.09879 0.0
C757 C 0.14345 0.6541 0.07415 0.0
C758 C 0.12187 0.65714 0.03805 0.0
C759 C 0.09363 0.63311 0.02723 0.0
C760 C 0.087 0.60608 0.05212 0.0
C761 C 0.1099 0.60321 0.08795 0.0
H762 H 0.38246 0.83071 0.79122 0.0
H763 H 0.29783 0.8692 0.83386 0.0
H764 H 0.33688 0.91406 0.87369 0.0
H765 H 0.43052 0.84613 0.89126 0.0
H766 H 0.47048 0.85564 0.86844 0.0
H767 H 0.43614 0.82915 0.83842 0.0
H768 H 0.44158 0.86507 0.77317 0.0
H769 H 0.47609 0.89164 0.80295 0.0
H770 H 0.44 0.90662 0.78146 0.0
H771 H 0.38519 0.95357 0.91105 0.0
H772 H 0.43898 0.9823 0.94807 0.0
H773 H 0.49156 0.91528 0.88603 0.0
C774 C 0.37224 0.84901 0.80815 0.0
C775 C 0.33725 0.84689 0.80909 0.0
C776 C 0.32464 0.87064 0.83262 0.0
C777 C 0.34659 0.89621 0.85516 0.0
C778 C 0.38104 0.89737 0.85425 0.0
C779 C 0.3938 0.87427 0.83164 0.0
C780 C 0.43167 0.87935 0.83928 0.0
C781 C 0.44284 0.85088 0.86063 0.0
C782 C 0.44831 0.88608 0.79668 0.0
C783 C 0.43815 0.90859 0.8703 0.0
C784 C 0.40871 0.91904 0.87778 0.0
C785 C 0.40841 0.94565 0.90537 0.0
C786 C 0.43901 0.96184 0.92616 0.0
C787 C 0.46922 0.95087 0.91992 0.0
C788 C 0.46872 0.92401 0.89151 0.0
H789 H 0.22832 0.35301 0.80847 0.0
H790 H 0.19526 0.26427 0.86829 0.0
H791 H 0.15752 0.28957 0.91079 0.0
H792 H 0.22749 0.40396 0.90687 0.0
H793 H 0.21234 0.43511 0.87882 0.0
H794 H 0.2369 0.41043 0.8515 0.0
H795 H 0.18954 0.39554 0.78958 0.0
H796 H 0.16487 0.42022 0.81663 0.0
H797 H 0.14761 0.37895 0.80252 0.0
H798 H 0.12164 0.32238 0.945 0.0
H799 H 0.0906 0.36214 0.97211 0.0
H800 H 0.14734 0.4331 0.89698 0.0
C801 C 0.21302 0.33895 0.83042 0.0
C802 C 0.21495 0.30637 0.83471 0.0
C803 C 0.1946 0.28909 0.86422 0.0
C804 C 0.1729 0.30329 0.88863 0.0
C805 C 0.17171 0.3352 0.884 0.0
C806 C 0.19127 0.35307 0.85598 0.0
C807 C 0.18505 0.38724 0.85851 0.0
C808 C 0.21738 0.41057 0.8749 0.0
C809 C 0.17093 0.396 0.81417 0.0
C810 C 0.15878 0.38547 0.89194 0.0
C811 C 0.15155 0.35497 0.90571 0.0
C812 C 0.12735 0.34642 0.93483 0.0
C813 C 0.10981 0.36936 0.95018 0.0
C814 C 0.11662 0.40108 0.93748 0.0
C815 C 0.14184 0.40929 0.90806 0.0
H816 H 0.67443 0.22043 0.81908 0.0
H817 H 0.75994 0.1739 0.8396 0.0
H818 H 0.72563 0.1325 0.87835 0.0
H819 H 0.64046 0.20349 0.92433 0.0
H820 H 0.59719 0.19652 0.90274 0.0
H821 H 0.6285 0.22292 0.87681 0.0
H822 H 0.61106 0.18992 0.80399 0.0
H823 H 0.57977 0.16339 0.82975 0.0
H824 H 0.6112 0.14788 0.80149 0.0
H825 H 0.67991 0.09354 0.91668 0.0
H826 H 0.62963 0.06418 0.94857 0.0
H827 H 0.57318 0.13474 0.90394 0.0
C828 C 0.68612 0.20169 0.83185 0.0
C829 C 0.72075 0.20133 0.82565 0.0
C830 C 0.73403 0.17563 0.84329 0.0
C831 C 0.71446 0.15158 0.86566 0.0
C832 C 0.68073 0.15255 0.87104 0.0
C833 C 0.66668 0.1771 0.85459 0.0
C834 C 0.62969 0.17241 0.86475 0.0
C835 C 0.6236 0.20051 0.89388 0.0
C836 C 0.60656 0.16815 0.82248 0.0
C837 C 0.62516 0.14164 0.88918 0.0
C838 C 0.65492 0.13046 0.89257 0.0
C839 C 0.65659 0.10238 0.91393 0.0
C840 C 0.62762 0.08556 0.93212 0.0
C841 C 0.59652 0.09633 0.92934 0.0
C842 C 0.59599 0.12509 0.90717 0.0
H843 H 0.80266 0.67117 0.82274 0.0
H844 H 0.85536 0.76229 0.88025 0.0
H845 H 0.89205 0.7351 0.92664 0.0
H846 H 0.80774 0.62499 0.91943 0.0
H847 H 0.81537 0.59049 0.889 0.0
H848 H 0.7912 0.6169 0.86352 0.0
H849 H 0.83182 0.62411 0.80238 0.0
H850 H 0.85618 0.59783 0.82768 0.0
H851 H 0.87616 0.63735 0.81641 0.0
H852 H 0.92494 0.69754 0.96552 0.0
H853 H 0.95265 0.65381 0.98958 0.0
H854 H 0.88056 0.58695 0.90465 0.0
C855 C 0.82141 0.68535 0.84583 0.0
C856 C 0.82556 0.71901 0.84835 0.0
C857 C 0.85129 0.73659 0.87798 0.0
C858 C 0.87232 0.72128 0.90453 0.0
C859 C 0.86789 0.68817 0.90091 0.0
C860 C 0.84317 0.67042 0.87205 0.0
C861 C 0.84535 0.63535 0.87208 0.0
C862 C 0.81299 0.61578 0.88689 0.0
C863 C 0.85282 0.62294 0.82697 0.0
C864 C 0.87501 0.63609 0.90548 0.0
C865 C 0.88751 0.66678 0.922 0.0
C866 C 0.91525 0.67345 0.9527 0.0
C867 C 0.93089 0.64835 0.9663 0.0
C868 C 0.91905 0.61668 0.94927 0.0
C869 C 0.89036 0.61071 0.91872 0.0
H870 H 0.25654 0.36731 0.18041 0.0
H871 H 0.19209 0.27583 0.14714 0.0
H872 H 0.1519 0.30204 0.10561 0.0
H873 H 0.19063 0.40928 0.19752 0.0
H874 H 0.21018 0.44547 0.17517 0.0
H875 H 0.23575 0.41953 0.19882 0.0
H876 H 0.26475 0.41615 0.12731 0.0
H877 H 0.23944 0.44228 0.10346 0.0
H878 H 0.23949 0.40397 0.07693 0.0
H879 H 0.11609 0.3386 0.07165 0.0
H880 H 0.0884 0.38232 0.04783 0.0
H881 H 0.17532 0.45074 0.10215 0.0
C882 C 0.23441 0.35272 0.16343 0.0
C883 C 0.22792 0.31925 0.16671 0.0
C884 C 0.198 0.30133 0.14497 0.0
C885 C 0.17488 0.31608 0.12125 0.0
C886 C 0.18163 0.34903 0.11938 0.0
C887 C 0.21074 0.36718 0.13975 0.0
C888 C 0.2109 0.40237 0.13459 0.0
C889 C 0.21192 0.42021 0.17918 0.0
C890 C 0.2404 0.41706 0.10905 0.0
C891 C 0.17733 0.40115 0.10847 0.0
C892 C 0.1609 0.37011 0.09995 0.0
C893 C 0.12897 0.36297 0.07779 0.0
C894 C 0.11339 0.38806 0.0642 0.0
C895 C 0.12959 0.42018 0.07233 0.0
C896 C 0.16219 0.42656 0.09475 0.0
H897 H 0.13023 0.72571 0.86535 0.0
H898 H 0.22234 0.69285 0.90286 0.0
H899 H 0.18975 0.63973 0.91361 0.0
H900 H 0.07971 0.68053 0.94344 0.0
H901 H 0.0424 0.67296 0.90644 0.0
H902 H 0.07324 0.70853 0.90345 0.0
H903 H 0.07734 0.69349 0.82205 0.0
H904 H 0.04731 0.65731 0.82499 0.0
H905 H 0.08813 0.65581 0.80656 0.0
H906 H 0.14801 0.5898 0.91566 0.0
H907 H 0.09853 0.54868 0.92453 0.0
H908 H 0.03329 0.61417 0.88658 0.0
C909 C 0.14339 0.70759 0.87703 0.0
C910 C 0.17877 0.71321 0.88313 0.0
C911 C 0.19521 0.68879 0.89778 0.0
C912 C 0.17699 0.65857 0.90363 0.0
C913 C 0.14231 0.65328 0.89499 0.0
C914 C 0.12554 0.67725 0.88317 0.0
C915 C 0.08801 0.66532 0.87692 0.0
C916 C 0.06976 0.68286 0.90951 0.0
C917 C 0.07442 0.66816 0.82982 0.0
C918 C 0.0864 0.63091 0.887 0.0
C919 C 0.11805 0.62441 0.89673 0.0
C920 C 0.12302 0.59457 0.9083 0.0
C921 C 0.09474 0.57127 0.91283 0.0
C922 C 0.06199 0.57816 0.90635 0.0
C923 C 0.05789 0.6079 0.89116 0.0
H924 H 0.28076 0.13291 0.92134 0.0
H925 H 0.31664 0.23014 0.96867 0.0
H926 H 0.36452 0.2145 0.01035 0.0
H927 H 0.321 0.09118 0.01622 0.0
H928 H 0.3323 0.06313 0.97737 0.0
H929 H 0.29371 0.07783 0.96795 0.0
H930 H 0.31105 0.09594 0.89337 0.0
H931 H 0.34973 0.08193 0.90158 0.0
H932 H 0.35036 0.1228 0.88995 0.0
H933 H 0.41594 0.19298 0.02471 0.0
H934 H 0.46443 0.16632 0.01566 0.0
H935 H 0.39722 0.08397 0.95313 0.0
C936 C 0.29748 0.15018 0.94322 0.0
C937 C 0.2951 0.18235 0.94299 0.0
C938 C 0.31808 0.20522 0.96961 0.0
C939 C 0.34527 0.19648 0.99322 0.0
C940 C 0.34908 0.16486 0.98925 0.0
C941 C 0.32538 0.14183 0.96542 0.0
C942 C 0.33893 0.11179 0.95667 0.0
C943 C 0.32041 0.08437 0.98104 0.0
C944 C 0.33744 0.10266 0.90752 0.0
C945 C 0.37462 0.12248 0.97577 0.0
C946 C 0.37983 0.15266 0.99578 0.0
C947 C 0.41195 0.16895 0.0105 0.0
C948 C 0.43934 0.15393 1.00468 0.0
C949 C 0.43426 0.12344 0.98323 0.0
C950 C 0.40158 0.10744 0.96942 0.0
H951 H 0.83508 0.36599 0.81573 0.0
H952 H 0.8308 0.28657 0.89799 0.0
H953 H 0.87367 0.31881 0.95042 0.0
H954 H 0.92141 0.38977 0.82802 0.0
H955 H 0.92269 0.43201 0.82917 0.0
H956 H 0.88741 0.40526 0.80143 0.0
H957 H 0.84672 0.42931 0.84801 0.0
H958 H 0.88186 0.45652 0.87559 0.0
H959 H 0.85327 0.43103 0.90647 0.0
H960 H 0.92232 0.3557 0.98799 0.0
H961 H 0.97169 0.39672 0.01189 0.0
H962 H 0.94621 0.45436 0.90734 0.0
C963 C 0.84209 0.35602 0.84582 0.0
C964 C 0.82885 0.32399 0.85347 0.0
C965 C 0.83998 0.3112 0.89204 0.0
C966 C 0.86447 0.32933 0.92192 0.0
C967 C 0.87794 0.36037 0.91286 0.0
C968 C 0.86696 0.3739 0.87607 0.0
C969 C 0.88799 0.40686 0.87256 0.0
C970 C 0.90593 0.40855 0.83029 0.0
C971 C 0.86615 0.43245 0.87586 0.0
C972 C 0.91297 0.40924 0.91236 0.0
C973 C 0.90644 0.3821 0.93508 0.0
C974 C 0.92728 0.37732 0.97097 0.0
C975 C 0.95546 0.40079 0.9842 0.0
C976 C 0.96282 0.42906 0.96197 0.0
C977 C 0.94094 0.43339 0.92569 0.0
H978 H 0.6792 0.79876 0.81057 0.0
H979 H 0.77809 0.8436 0.86761 0.0
H980 H 0.75354 0.88519 0.90434 0.0
H981 H 0.65211 0.87302 0.79044 0.0
H982 H 0.6091 0.85893 0.80129 0.0
H983 H 0.63391 0.83148 0.78106 0.0
H984 H 0.62065 0.79741 0.84563 0.0
H985 H 0.59658 0.82478 0.86792 0.0
H986 H 0.63117 0.81435 0.90021 0.0
H987 H 0.71913 0.92495 0.93037 0.0
H988 H 0.67656 0.95653 0.94966 0.0
H989 H 0.59889 0.88576 0.87929 0.0
C990 C 0.69553 0.81689 0.83166 0.0
C991 C 0.7307 0.81744 0.83661 0.0
C992 C 0.75117 0.84233 0.86345 0.0
C993 C 0.73743 0.86623 0.88439 0.0
C994 C 0.70296 0.86548 0.87811 0.0
C995 C 0.68217 0.84137 0.85259 0.0
C996 C 0.64614 0.84716 0.84983 0.0
C997 C 0.63465 0.85299 0.80287 0.0
C998 C 0.62223 0.81931 0.86697 0.0
C999 C 0.64978 0.87746 0.87918 0.0
C1000 C 0.68296 0.88802 0.8942 0.0
C1001 C 0.693 0.91657 0.91934 0.0
C1002 C 0.66855 0.93442 0.93026 0.0
C1003 C 0.63408 0.92353 0.91719 0.0
C1004 C 0.62487 0.89473 0.89063 0.0
H1005 H 0.8529 0.73752 0.15857 0.0
H1006 H 0.80109 0.66968 0.24205 0.0
H1007 H 0.8298 0.62835 0.21199 0.0
H1008 H 0.85367 0.68366 0.06524 0.0
H1009 H 0.89551 0.70103 0.05295 0.0
H1010 H 0.87002 0.72509 0.0796 0.0
H1011 H 0.91656 0.7408 0.14257 0.0
H1012 H 0.94227 0.71697 0.11596 0.0
H1013 H 0.93229 0.71012 0.17104 0.0
H1014 H 0.86197 0.59308 0.16893 0.0
H1015 H 0.90074 0.5692 0.12493 0.0
H1016 H 0.93642 0.66089 0.07492 0.0
C1017 C 0.84753 0.71393 0.17046 0.0
C1018 C 0.82431 0.70687 0.20251 0.0
C1019 C 0.81857 0.67578 0.21756 0.0
C1020 C 0.83471 0.65205 0.20047 0.0
C1021 C 0.85718 0.6597 0.16872 0.0
C1022 C 0.8641 0.69008 0.15444 0.0
C1023 C 0.89069 0.69248 0.12175 0.0
C1024 C 0.87663 0.70108 0.07725 0.0
C1025 C 0.92233 0.71652 0.13886 0.0
C1026 C 0.89752 0.65873 0.11968 0.0
C1027 C 0.87743 0.64003 0.1464 0.0
C1028 C 0.87809 0.60767 0.14839 0.0
C1029 C 0.9001 0.59423 0.12309 0.0
C1030 C 0.92192 0.61312 0.09678 0.0
C1031 C 0.92041 0.64585 0.09514 0.0
H1032 H 0.38342 0.81871 0.18842 0.0
H1033 H 0.29655 0.86209 0.15974 0.0
H1034 H 0.33134 0.90396 0.12257 0.0
H1035 H 0.44402 0.89282 0.20833 0.0
H1036 H 0.47742 0.87844 0.18296 0.0
H1037 H 0.44576 0.8511 0.20695 0.0
H1038 H 0.43231 0.81754 0.13407 0.0
H1039 H 0.46403 0.84473 0.10994 0.0
H1040 H 0.42153 0.83628 0.08539 0.0
H1041 H 0.37741 0.94392 0.08714 0.0
H1042 H 0.42829 0.97472 0.05827 0.0
H1043 H 0.4861 0.90693 0.10876 0.0
C1044 C 0.37153 0.83681 0.17409 0.0
C1045 C 0.33636 0.83615 0.17765 0.0
C1046 C 0.32289 0.86111 0.15815 0.0
C1047 C 0.34271 0.88545 0.13665 0.0
C1048 C 0.37694 0.88556 0.13398 0.0
C1049 C 0.39127 0.86173 0.15213 0.0
C1050 C 0.42884 0.86765 0.14467 0.0
C1051 C 0.45028 0.8728 0.18833 0.0
C1052 C 0.43717 0.8399 0.11687 0.0
C1053 C 0.43332 0.89828 0.11988 0.0
C1054 C 0.40305 0.9083 0.11395 0.0
C1055 C 0.40116 0.93602 0.09186 0.0
C1056 C 0.43047 0.95367 0.07544 0.0
C1057 C 0.46211 0.9441 0.08077 0.0
C1058 C 0.46286 0.91568 0.10367 0.0
H1059 H 0.67011 0.2066 0.23036 0.0
H1060 H 0.75741 0.18462 0.17111 0.0
H1061 H 0.72105 0.1398 0.12716 0.0
H1062 H 0.62368 0.12597 0.23352 0.0
H1063 H 0.58379 0.13719 0.21961 0.0
H1064 H 0.61717 0.16528 0.24907 0.0
H1065 H 0.6129 0.20561 0.18992 0.0
H1066 H 0.57947 0.17772 0.1604 0.0
H1067 H 0.61642 0.19379 0.13392 0.0
H1068 H 0.67426 0.09749 0.08927 0.0
H1069 H 0.62084 0.06558 0.05494 0.0
H1070 H 0.56488 0.11889 0.13563 0.0
C1071 C 0.68167 0.19204 0.20863 0.0
C1072 C 0.71655 0.19867 0.20444 0.0
C1073 C 0.73068 0.17971 0.17484 0.0
C1074 C 0.71028 0.15418 0.14998 0.0
C1075 C 0.67585 0.14833 0.15482 0.0
C1076 C 0.66167 0.16703 0.18308 0.0
C1077 C 0.62383 0.1577 0.17983 0.0
C1078 C 0.6114 0.14583 0.22307 0.0
C1079 C 0.60719 0.18534 0.16513 0.0
C1080 C 0.61877 0.13095 0.14502 0.0
C1081 C 0.64903 0.12538 0.13155 0.0
C1082 C 0.65045 0.10166 0.09959 0.0
C1083 C 0.62011 0.08359 0.08045 0.0
C1084 C 0.589 0.08994 0.09277 0.0
C1085 C 0.58843 0.1137 0.12564 0.0
H1086 H 0.62903 0.62304 0.72079 0.0
H1087 H 0.72132 0.62749 0.80182 0.0
H1088 H 0.69593 0.58015 0.83717 0.0
H1089 H 0.58166 0.61862 0.79541 0.0
H1090 H 0.54512 0.5914 0.77127 0.0
H1091 H 0.57327 0.61339 0.73712 0.0
H1092 H 0.58193 0.56142 0.69734 0.0
H1093 H 0.55299 0.53897 0.7311 0.0
H1094 H 0.59457 0.53032 0.72812 0.0
H1095 H 0.6573 0.5483 0.8812 0.0
H1096 H 0.61049 0.53475 0.92723 0.0
H1097 H 0.54087 0.55249 0.82233 0.0
C1098 C 0.6442 0.61304 0.74463 0.0
C1099 C 0.67676 0.6292 0.75907 0.0
C1100 C 0.6963 0.61552 0.78998 0.0
C1101 C 0.682 0.58843 0.81028 0.0
C1102 C 0.64833 0.5752 0.79902 0.0
C1103 C 0.6298 0.58661 0.76595 0.0
C1104 C 0.59258 0.574 0.767 0.0
C1105 C 0.57203 0.60096 0.76784 0.0
C1106 C 0.57977 0.54972 0.72862 0.0
C1107 C 0.59277 0.55783 0.80936 0.0
C1108 C 0.62515 0.55705 0.82599 0.0
C1109 C 0.63183 0.54781 0.86789 0.0
C1110 C 0.60507 0.54046 0.89402 0.0
C1111 C 0.57215 0.5431 0.87841 0.0
C1112 C 0.56585 0.55039 0.83498 0.0
H1113 H 0.33772 0.68202 0.76764 0.0
H1114 H 0.33332 0.74468 0.88045 0.0
H1115 H 0.36788 0.71426 0.92487 0.0
H1116 H 0.3292 0.61022 0.82706 0.0
H1117 H 0.35665 0.59207 0.79476 0.0
H1118 H 0.33307 0.61968 0.77121 0.0
H1119 H 0.38813 0.65393 0.74985 0.0
H1120 H 0.41188 0.62644 0.77336 0.0
H1121 H 0.42193 0.66794 0.79111 0.0
H1122 H 0.40603 0.67884 0.95608 0.0
H1123 H 0.43885 0.63746 0.97399 0.0
H1124 H 0.41322 0.5933 0.8439 0.0
C1125 C 0.34422 0.68937 0.80166 0.0
C1126 C 0.33312 0.716 0.82051 0.0
C1127 C 0.34158 0.72446 0.86531 0.0
C1128 C 0.3613 0.70736 0.89078 0.0
C1129 C 0.37183 0.68125 0.87133 0.0
C1130 C 0.3631 0.67189 0.82797 0.0
C1131 C 0.37621 0.64187 0.81578 0.0
C1132 C 0.34704 0.61433 0.80136 0.0
C1133 C 0.40101 0.64792 0.78043 0.0
C1134 C 0.39398 0.63604 0.85887 0.0
C1135 C 0.39159 0.65937 0.89026 0.0
C1136 C 0.40755 0.66016 0.93191 0.0
C1137 C 0.42619 0.63646 0.94186 0.0
C1138 C 0.42814 0.61163 0.91082 0.0
C1139 C 0.41166 0.61153 0.86873 0.0
H1140 H 0.35738 0.35093 0.8055 0.0
H1141 H 0.35953 0.27046 0.88523 0.0
H1142 H 0.4025 0.30336 0.93628 0.0
H1143 H 0.44725 0.38368 0.82176 0.0
H1144 H 0.44146 0.42437 0.82399 0.0
H1145 H 0.41132 0.39432 0.79251 0.0
H1146 H 0.36378 0.41027 0.8353 0.0
H1147 H 0.39384 0.44013 0.86725 0.0
H1148 H 0.36692 0.41002 0.89377 0.0
H1149 H 0.44348 0.34429 0.97991 0.0
H1150 H 0.48371 0.39077 0.01205 0.0
H1151 H 0.4565 0.44614 0.90548 0.0
C1152 C 0.36725 0.34018 0.83339 0.0
C1153 C 0.35502 0.30803 0.84125 0.0
C1154 C 0.36835 0.29497 0.87842 0.0
C1155 C 0.39278 0.31349 0.90775 0.0
C1156 C 0.40376 0.34515 0.89963 0.0
C1157 C 0.39176 0.35846 0.8633 0.0
C1158 C 0.40799 0.39329 0.86289 0.0
C1159 C 0.42821 0.39926 0.82291 0.0
C1160 C 0.38155 0.41469 0.86493 0.0
C1161 C 0.43092 0.39729 0.90462 0.0
C1162 C 0.42783 0.36914 0.9252 0.0
C1163 C 0.44627 0.36647 0.96407 0.0
C1164 C 0.46907 0.3931 0.98209 0.0
C1165 C 0.47342 0.42218 0.96132 0.0
C1166 C 0.45365 0.42435 0.92229 0.0
H1167 H 0.64841 0.31458 0.79804 0.0
H1168 H 0.71233 0.39544 0.75007 0.0
H1169 H 0.69806 0.43024 0.80933 0.0
H1170 H 0.58278 0.35858 0.8325 0.0
H1171 H 0.57548 0.33515 0.87897 0.0
H1172 H 0.58878 0.31794 0.83045 0.0
H1173 H 0.6388 0.30301 0.87661 0.0
H1174 H 0.62648 0.32135 0.92497 0.0
H1175 H 0.66817 0.33377 0.90808 0.0
H1176 H 0.68324 0.45386 0.87834 0.0
H1177 H 0.65689 0.46939 0.94299 0.0
H1178 H 0.59978 0.37338 0.94435 0.0
C1179 C 0.65825 0.33986 0.79934 0.0
C1180 C 0.68102 0.35272 0.76973 0.0
C1181 C 0.69425 0.38561 0.77223 0.0
C1182 C 0.68672 0.4053 0.80603 0.0
C1183 C 0.66558 0.39152 0.83624 0.0
C1184 C 0.65057 0.35982 0.83241 0.0
C1185 C 0.62866 0.35105 0.86915 0.0
C1186 C 0.59174 0.34005 0.85172 0.0
C1187 C 0.6413 0.3258 0.89629 0.0
C1188 C 0.63405 0.38276 0.89455 0.0
C1189 C 0.65598 0.40553 0.87541 0.0
C1190 C 0.6656 0.43643 0.89331 0.0
C1191 C 0.65074 0.44486 0.93038 0.0
C1192 C 0.62605 0.42258 0.94843 0.0
C1193 C 0.61854 0.39086 0.93121 0.0
H1194 H 0.74867 0.37083 0.20482 0.0
H1195 H 0.67249 0.28541 0.19981 0.0
H1196 H 0.63273 0.31229 0.15834 0.0
H1197 H 0.69217 0.42419 0.22349 0.0
H1198 H 0.71262 0.45497 0.19154 0.0
H1199 H 0.73648 0.42834 0.21698 0.0
H1200 H 0.7561 0.4129 0.14236 0.0
H1201 H 0.73232 0.43954 0.11668 0.0
H1202 H 0.72525 0.3983 0.09775 0.0
H1203 H 0.60096 0.34804 0.11821 0.0
H1204 H 0.57713 0.39173 0.08739 0.0
H1205 H 0.67155 0.4565 0.12255 0.0
C1206 C 0.72378 0.35778 0.19426 0.0
C1207 C 0.7137 0.32586 0.20484 0.0
C1208 C 0.68069 0.30974 0.19166 0.0
C1209 C 0.65798 0.32481 0.16803 0.0
C1210 C 0.66839 0.35632 0.15836 0.0
C1211 C 0.70035 0.37283 0.17138 0.0
C1212 C 0.70402 0.40726 0.1594 0.0
C1213 C 0.71178 0.43003 0.20029 0.0
C1214 C 0.73103 0.41495 0.12713 0.0
C1215 C 0.66913 0.40747 0.13795 0.0
C1216 C 0.64928 0.37763 0.13713 0.0
C1217 C 0.61624 0.37154 0.11879 0.0
C1218 C 0.60292 0.39661 0.10126 0.0
C1219 C 0.62226 0.42774 0.10265 0.0
C1220 C 0.65598 0.43308 0.12113 0.0
H1221 H 0.69358 0.73139 0.12636 0.0
H1222 H 0.67465 0.69377 0.25219 0.0
H1223 H 0.62802 0.65366 0.21778 0.0
H1224 H 0.6039 0.71722 0.08239 0.0
H1225 H 0.6136 0.70618 0.02841 0.0
H1226 H 0.64368 0.73427 0.06312 0.0
H1227 H 0.68841 0.69913 0.05332 0.0
H1228 H 0.65848 0.67087 0.01884 0.0
H1229 H 0.67939 0.65809 0.06639 0.0
H1230 H 0.58812 0.61451 0.17066 0.0
H1231 H 0.55456 0.57887 0.11266 0.0
H1232 H 0.59631 0.64114 0.01561 0.0
C1233 C 0.67919 0.71508 0.14673 0.0
C1234 C 0.68785 0.71581 0.1921 0.0
C1235 C 0.66862 0.69379 0.21748 0.0
C1236 C 0.64197 0.6709 0.19824 0.0
C1237 C 0.63454 0.67036 0.15352 0.0
C1238 C 0.65226 0.69195 0.12796 0.0
C1239 C 0.63982 0.68484 0.08025 0.0
C1240 C 0.62433 0.71226 0.0625 0.0
C1241 C 0.66822 0.67781 0.05312 0.0
C1242 C 0.61315 0.65527 0.08305 0.0
C1243 C 0.61057 0.64764 0.12582 0.0
C1244 C 0.58951 0.62044 0.1371 0.0
C1245 C 0.57071 0.60025 0.10388 0.0
C1246 C 0.57281 0.60731 0.05973 0.0
C1247 C 0.59393 0.63548 0.04916 0.0
H1248 H 0.39944 0.71844 0.20534 0.0
H1249 H 0.34238 0.63832 0.26374 0.0
H1250 H 0.36077 0.60149 0.21027 0.0
H1251 H 0.38032 0.69046 0.09838 0.0
H1252 H 0.42105 0.70512 0.0799 0.0
H1253 H 0.40695 0.72504 0.12568 0.0
H1254 H 0.45973 0.71836 0.1741 0.0
H1255 H 0.47466 0.69947 0.12805 0.0
H1256 H 0.47022 0.67946 0.17789 0.0
H1257 H 0.37957 0.5747 0.14515 0.0
H1258 H 0.40661 0.5583 0.08101 0.0
H1259 H 0.45196 0.65662 0.06654 0.0
C1260 C 0.39183 0.69307 0.20751 0.0
C1261 C 0.36991 0.68089 0.23835 0.0
C1262 C 0.35976 0.64774 0.24053 0.0
C1263 C 0.36971 0.62683 0.21009 0.0
C1264 C 0.39003 0.63976 0.1785 0.0
C1265 C 0.40172 0.67205 0.17775 0.0
C1266 C 0.4226 0.68004 0.13994 0.0
C1267 C 0.40677 0.70143 0.10918 0.0
C1268 C 0.45896 0.69521 0.15596 0.0
C1269 C 0.4204 0.6472 0.11906 0.0
C1270 C 0.40122 0.62432 0.14145 0.0
C1271 C 0.39496 0.59232 0.12759 0.0
C1272 C 0.41003 0.58333 0.09088 0.0
C1273 C 0.43128 0.60632 0.06912 0.0
C1274 C 0.43584 0.63865 0.08276 0.0
H1275 H 0.35911 0.39965 0.17848 0.0
H1276 H 0.41292 0.42281 0.30479 0.0
H1277 H 0.44545 0.47124 0.2778 0.0
H1278 H 0.42299 0.40983 0.12374 0.0
H1279 H 0.40711 0.4272 0.07645 0.0
H1280 H 0.37848 0.40329 0.10831 0.0
H1281 H 0.34623 0.44946 0.11953 0.0
H1282 H 0.37473 0.47361 0.08693 0.0
H1283 H 0.36863 0.48788 0.14101 0.0
H1284 H 0.48291 0.50448 0.23455 0.0
H1285 H 0.52231 0.51969 0.17903 0.0
H1286 H 0.44638 0.47564 0.07806 0.0
C1287 C 0.37631 0.4162 0.20077 0.0
C1288 C 0.3834 0.40821 0.24365 0.0
C1289 C 0.40709 0.4291 0.27197 0.0
C1290 C 0.42543 0.45669 0.2569 0.0
C1291 C 0.41979 0.46288 0.21334 0.0
C1292 C 0.39536 0.44344 0.18566 0.0
C1293 C 0.39941 0.45088 0.13863 0.0
C1294 C 0.40221 0.42105 0.1102 0.0
C1295 C 0.37053 0.46639 0.12047 0.0
C1296 C 0.43213 0.47462 0.14387 0.0
C1297 C 0.44257 0.48235 0.18732 0.0
C1298 C 0.47454 0.49952 0.20048 0.0
C1299 C 0.49689 0.50778 0.16877 0.0
C1300 C 0.48722 0.49872 0.12446 0.0
C1301 C 0.45399 0.48338 0.11173 0.0
H1302 H 0.86992 0.72045 0.71344 0.0
H1303 H 0.77785 0.69209 0.63026 0.0
H1304 H 0.80458 0.6546 0.58765 0.0
H1305 H 0.92967 0.71271 0.63121 0.0
H1306 H 0.95752 0.69625 0.66792 0.0
H1307 H 0.93237 0.72321 0.68873 0.0
H1308 H 0.90747 0.68121 0.74094 0.0
H1309 H 0.93238 0.6541 0.72008 0.0
H1310 H 0.88742 0.64214 0.71904 0.0
H1311 H 0.84158 0.61916 0.55436 0.0
H1312 H 0.88342 0.58621 0.53709 0.0
H1313 H 0.95039 0.63408 0.6453 0.0
C1314 C 0.85567 0.70682 0.68565 0.0
C1315 C 0.82191 0.7098 0.67458 0.0
C1316 C 0.80378 0.6906 0.639 0.0
C1317 C 0.81882 0.66921 0.6146 0.0
C1318 C 0.85196 0.66654 0.62659 0.0
C1319 C 0.87008 0.68462 0.6616 0.0
C1320 C 0.90434 0.67533 0.6698 0.0
C1321 C 0.93265 0.70356 0.66407 0.0
C1322 C 0.90812 0.66243 0.71515 0.0
C1323 C 0.90272 0.64925 0.63405 0.0
C1324 C 0.87245 0.64486 0.60911 0.0
C1325 C 0.86523 0.62232 0.57397 0.0
C1326 C 0.88927 0.60362 0.56436 0.0
C1327 C 0.92031 0.6071 0.5899 0.0
C1328 C 0.92694 0.63048 0.62517 0.0
H1329 H 0.3478 0.84746 0.61431 0.0
H1330 H 0.42436 0.78915 0.62211 0.0
H1331 H 0.46686 0.83519 0.60502 0.0
H1332 H 0.37969 0.89705 0.52988 0.0
H1333 H 0.3699 0.93268 0.5549 0.0
H1334 H 0.34449 0.89461 0.56249 0.0
H1335 H 0.35437 0.90343 0.6457 0.0
H1336 H 0.37913 0.94203 0.63991 0.0
H1337 H 0.39665 0.9135 0.67083 0.0
H1338 H 0.50174 0.89017 0.59373 0.0
H1339 H 0.52438 0.94717 0.58562 0.0
H1340 H 0.42393 0.96764 0.59171 0.0
C1341 C 0.3734 0.84419 0.61182 0.0
C1342 C 0.38284 0.81487 0.61964 0.0
C1343 C 0.41654 0.8114 0.61568 0.0
C1344 C 0.44085 0.83746 0.60634 0.0
C1345 C 0.43086 0.86658 0.60109 0.0
C1346 C 0.39778 0.86984 0.60339 0.0
C1347 C 0.39343 0.90377 0.60007 0.0
C1348 C 0.37055 0.90726 0.55941 0.0
C1349 C 0.38013 0.91641 0.6416 0.0
C1350 C 0.42931 0.91934 0.59593 0.0
C1351 C 0.45068 0.89773 0.59623 0.0
C1352 C 0.48515 0.90725 0.5933 0.0
C1353 C 0.49782 0.93965 0.5891 0.0
C1354 C 0.476 0.96193 0.58845 0.0
C1355 C 0.44147 0.95142 0.59251 0.0
H1356 H 0.23816 0.33687 0.5821 0.0
H1357 H 0.27159 0.39234 0.7036 0.0
H1358 H 0.22669 0.4232 0.69073 0.0
H1359 H 0.21631 0.40409 0.52145 0.0
H1360 H 0.18135 0.37828 0.49128 0.0
H1361 H 0.21783 0.36283 0.50972 0.0
H1362 H 0.1783 0.31963 0.54743 0.0
H1363 H 0.14229 0.33662 0.53112 0.0
H1364 H 0.15239 0.33157 0.58781 0.0
H1365 H 0.17552 0.44302 0.67003 0.0
H1366 H 0.13043 0.46426 0.63086 0.0
H1367 H 0.13197 0.3988 0.52005 0.0
C1368 C 0.23696 0.35628 0.6052 0.0
C1369 C 0.25791 0.36189 0.64435 0.0
C1370 C 0.2553 0.3874 0.67385 0.0
C1371 C 0.22978 0.40479 0.66702 0.0
C1372 C 0.20781 0.3968 0.62997 0.0
C1373 C 0.21194 0.37422 0.59854 0.0
C1374 C 0.18526 0.37113 0.56099 0.0
C1375 C 0.20116 0.37963 0.51836 0.0
C1376 C 0.16327 0.33775 0.55661 0.0
C1377 C 0.16563 0.39572 0.57633 0.0
C1378 C 0.17863 0.40941 0.61686 0.0
C1379 C 0.16523 0.4328 0.63815 0.0
C1380 C 0.13945 0.44437 0.61596 0.0
C1381 C 0.12793 0.4328 0.57293 0.0
C1382 C 0.13995 0.40726 0.55341 0.0
H1383 H 0.69312 0.21204 0.65644 0.0
H1384 H 0.78655 0.17757 0.64751 0.0
H1385 H 0.75627 0.13061 0.60273 0.0
H1386 H 0.6429 0.13866 0.66994 0.0
H1387 H 0.60615 0.14502 0.63785 0.0
H1388 H 0.63533 0.1784 0.66385 0.0
H1389 H 0.64216 0.20331 0.58969 0.0
H1390 H 0.61319 0.16991 0.56303 0.0
H1391 H 0.6547 0.18086 0.54503 0.0
H1392 H 0.71603 0.0852 0.56532 0.0
H1393 H 0.66859 0.04355 0.53788 0.0
H1394 H 0.59904 0.10522 0.57053 0.0
C1395 C 0.70735 0.19508 0.64394 0.0
C1396 C 0.7425 0.19889 0.65513 0.0
C1397 C 0.75986 0.17553 0.63917 0.0
C1398 C 0.74281 0.1487 0.61361 0.0
C1399 C 0.7082 0.14529 0.60407 0.0
C1400 C 0.69056 0.16786 0.61846 0.0
C1401 C 0.653 0.15694 0.60619 0.0
C1402 C 0.63319 0.15462 0.64688 0.0
C1403 C 0.63999 0.17908 0.57408 0.0
C1404 C 0.65224 0.12424 0.58419 0.0
C1405 C 0.68454 0.11843 0.58282 0.0
C1406 C 0.69068 0.08962 0.56593 0.0
C1407 C 0.6633 0.06592 0.55057 0.0
C1408 C 0.62968 0.07069 0.55204 0.0
C1409 C 0.62425 0.10066 0.5686 0.0
H1410 H 0.86241 0.35838 0.30305 0.0
H1411 H 0.78844 0.34645 0.39881 0.0
H1412 H 0.82355 0.38966 0.44567 0.0
H1413 H 0.93623 0.37641 0.37986 0.0
H1414 H 0.9588 0.40578 0.34761 0.0
H1415 H 0.92857 0.37314 0.32147 0.0
H1416 H 0.89685 0.41249 0.28324 0.0
H1417 H 0.92696 0.44534 0.30892 0.0
H1418 H 0.88284 0.44303 0.31532 0.0
H1419 H 0.86467 0.43392 0.48116 0.0
H1420 H 0.90894 0.48014 0.50269 0.0
H1421 H 0.95785 0.46451 0.38518 0.0
C1422 C 0.85364 0.36485 0.33392 0.0
C1423 C 0.82268 0.34903 0.34736 0.0
C1424 C 0.812 0.35825 0.38784 0.0
C1425 C 0.83184 0.38264 0.41478 0.0
C1426 C 0.86224 0.39754 0.40076 0.0
C1427 C 0.87313 0.38925 0.36127 0.0
C1428 C 0.90642 0.41003 0.35362 0.0
C1429 C 0.93414 0.39014 0.35047 0.0
C1430 C 0.90304 0.42884 0.31287 0.0
C1431 C 0.91219 0.43162 0.39484 0.0
C1432 C 0.8864 0.42362 0.42154 0.0
C1433 C 0.88504 0.44043 0.46066 0.0
C1434 C 0.91029 0.46669 0.4725 0.0
C1435 C 0.93668 0.4759 0.44546 0.0
C1436 C 0.93809 0.45775 0.40653 0.0
H1437 H 0.68242 0.80467 0.32481 0.0
H1438 H 0.75574 0.87843 0.27642 0.0
H1439 H 0.73205 0.9193 0.31703 0.0
H1440 H 0.61342 0.84855 0.31513 0.0
H1441 H 0.59505 0.83288 0.36283 0.0
H1442 H 0.61867 0.8098 0.33124 0.0
H1443 H 0.65703 0.80514 0.40033 0.0
H1444 H 0.63386 0.82867 0.43199 0.0
H1445 H 0.67865 0.84071 0.43089 0.0
H1446 H 0.70254 0.95205 0.3684 0.0
H1447 H 0.6631 0.9745 0.41297 0.0
H1448 H 0.60454 0.88019 0.42076 0.0
C1449 C 0.69327 0.82948 0.32246 0.0
C1450 C 0.72104 0.83836 0.29738 0.0
C1451 C 0.73436 0.87106 0.29502 0.0
C1452 C 0.72122 0.89442 0.31837 0.0
C1453 C 0.69418 0.88486 0.34333 0.0
C1454 C 0.67975 0.85317 0.34449 0.0
C1455 C 0.64954 0.8493 0.37156 0.0
C1456 C 0.61726 0.83425 0.34351 0.0
C1457 C 0.65511 0.82979 0.41102 0.0
C1458 C 0.64927 0.88369 0.3857 0.0
C1459 C 0.67576 0.90378 0.37 0.0
C1460 C 0.68153 0.93649 0.38034 0.0
C1461 C 0.65917 0.94905 0.40608 0.0
C1462 C 0.63079 0.92917 0.42049 0.0
C1463 C 0.62604 0.89599 0.4103 0.0
H1464 H 0.22236 0.67542 0.31506 0.0
H1465 H 0.16862 0.75266 0.33429 0.0
H1466 H 0.12645 0.71731 0.37267 0.0
H1467 H 0.14768 0.61382 0.2936 0.0
H1468 H 0.16602 0.58386 0.32026 0.0
H1469 H 0.19245 0.61568 0.29617 0.0
H1470 H 0.22767 0.63044 0.36978 0.0
H1471 H 0.20131 0.59866 0.39403 0.0
H1472 H 0.20701 0.63869 0.41762 0.0
H1473 H 0.08854 0.67062 0.41277 0.0
H1474 H 0.06027 0.62037 0.44199 0.0
H1475 H 0.13672 0.57291 0.39292 0.0
C1476 C 0.2019 0.68514 0.32757 0.0
C1477 C 0.19975 0.71768 0.32145 0.0
C1478 C 0.17168 0.72838 0.33816 0.0
C1479 C 0.14732 0.70819 0.36032 0.0
C1480 C 0.15022 0.67643 0.36574 0.0
C1481 C 0.17686 0.66499 0.34924 0.0
C1482 C 0.17373 0.62964 0.3576 0.0
C1483 C 0.16974 0.60956 0.31435 0.0
C1484 C 0.20425 0.62403 0.38646 0.0
C1485 C 0.14156 0.62286 0.38159 0.0
C1486 C 0.12833 0.65014 0.38646 0.0
C1487 C 0.09896 0.64931 0.40853 0.0
C1488 C 0.08285 0.62037 0.42537 0.0
C1489 C 0.09539 0.59168 0.4201 0.0
C1490 C 0.12555 0.59373 0.39773 0.0
H1491 H 0.30241 0.18827 0.33679 0.0
H1492 H 0.37079 0.27815 0.36591 0.0
H1493 H 0.41057 0.25071 0.40616 0.0
H1494 H 0.32029 0.15256 0.44041 0.0
H1495 H 0.31785 0.11354 0.41467 0.0
H1496 H 0.29349 0.14058 0.39116 0.0
H1497 H 0.32019 0.1345 0.31839 0.0
H1498 H 0.34485 0.10769 0.34173 0.0
H1499 H 0.36526 0.14281 0.31766 0.0
H1500 H 0.44501 0.21278 0.44058 0.0
H1501 H 0.47008 0.16793 0.46662 0.0
H1502 H 0.38028 0.10225 0.41459 0.0
C1503 C 0.32538 0.20229 0.35252 0.0
C1504 C 0.33305 0.23565 0.34847 0.0
C1505 C 0.36397 0.25276 0.36868 0.0
C1506 C 0.38688 0.23731 0.39164 0.0
C1507 C 0.37892 0.20445 0.39427 0.0
C1508 C 0.34882 0.18712 0.37541 0.0
C1509 C 0.34714 0.15184 0.3814 0.0
C1510 C 0.31796 0.13887 0.40853 0.0
C1511 C 0.34419 0.13311 0.33716 0.0
C1512 C 0.38099 0.15203 0.40623 0.0
C1513 C 0.3989 0.18264 0.41349 0.0
C1514 C 0.43104 0.18874 0.43519 0.0
C1515 C 0.44518 0.16303 0.44988 0.0
C1516 C 0.42741 0.13133 0.44284 0.0
C1517 C 0.39476 0.12606 0.42067 0.0
H1518 H 0.75221 0.85314 0.68076 0.0
H1519 H 0.68939 0.7615 0.6431 0.0
H1520 H 0.6498 0.7878 0.60066 0.0
H1521 H 0.68502 0.89422 0.69548 0.0
H1522 H 0.70504 0.93081 0.67455 0.0
H1523 H 0.73019 0.90486 0.6991 0.0
H1524 H 0.76152 0.90251 0.62937 0.0
H1525 H 0.7367 0.92869 0.60462 0.0
H1526 H 0.7378 0.89071 0.5778 0.0
H1527 H 0.61461 0.82451 0.56508 0.0
H1528 H 0.58818 0.86842 0.53843 0.0
H1529 H 0.67302 0.9365 0.59918 0.0
C1530 C 0.73056 0.83856 0.66273 0.0
C1531 C 0.72434 0.80504 0.66503 0.0
C1532 C 0.69506 0.78709 0.64177 0.0
C1533 C 0.67227 0.80187 0.61753 0.0
C1534 C 0.67869 0.83488 0.61666 0.0
C1535 C 0.70723 0.85303 0.63848 0.0
C1536 C 0.70733 0.88822 0.63375 0.0
C1537 C 0.70687 0.90554 0.67837 0.0
C1538 C 0.73764 0.90343 0.60996 0.0
C1539 C 0.67446 0.88697 0.60608 0.0
C1540 C 0.65831 0.85596 0.59653 0.0
C1541 C 0.62719 0.84888 0.57224 0.0
C1542 C 0.61225 0.87403 0.55726 0.0
C1543 C 0.62829 0.90609 0.56646 0.0
C1544 C 0.65994 0.91236 0.59124 0.0
H1545 H 0.61937 0.22092 0.3909 0.0
H1546 H 0.71907 0.21183 0.44138 0.0
H1547 H 0.69624 0.16025 0.46922 0.0
H1548 H 0.57289 0.17287 0.48223 0.0
H1549 H 0.53854 0.15591 0.44305 0.0
H1550 H 0.56054 0.19601 0.43879 0.0
H1551 H 0.5718 0.18115 0.35976 0.0
H1552 H 0.551 0.14085 0.36405 0.0
H1553 H 0.59374 0.14896 0.34935 0.0
H1554 H 0.66892 0.10588 0.4653 0.0
H1555 H 0.63376 0.05327 0.45306 0.0
H1556 H 0.54755 0.09556 0.41511 0.0
C1557 C 0.63581 0.20876 0.41011 0.0
C1558 C 0.67087 0.21995 0.41414 0.0
C1559 C 0.69217 0.20331 0.43811 0.0
C1560 C 0.67941 0.17411 0.454 0.0
C1561 C 0.64516 0.1623 0.44637 0.0
C1562 C 0.6232 0.17947 0.42672 0.0
C1563 C 0.58819 0.15932 0.41842 0.0
C1564 C 0.56358 0.17177 0.44736 0.0
C1565 C 0.57548 0.15747 0.37003 0.0
C1566 C 0.59496 0.12751 0.43238 0.0
C1567 C 0.62808 0.13009 0.44836 0.0
C1568 C 0.64249 0.10365 0.45528 0.0
C1569 C 0.62231 0.07379 0.44743 0.0
C1570 C 0.58765 0.07038 0.43431 0.0
C1571 C 0.57371 0.09763 0.42663 0.0
H1572 H 0.80985 0.6716 0.35899 0.0
H1573 H 0.80133 0.73093 0.47305 0.0
H1574 H 0.85157 0.71433 0.50969 0.0
H1575 H 0.84137 0.608 0.41076 0.0
H1576 H 0.86845 0.6041 0.36787 0.0
H1577 H 0.82977 0.61795 0.35642 0.0
H1578 H 0.8638 0.6679 0.32498 0.0
H1579 H 0.90279 0.65506 0.33879 0.0
H1580 H 0.8966 0.69345 0.35913 0.0
H1581 H 0.90503 0.69123 0.53093 0.0
H1582 H 0.94994 0.65906 0.53773 0.0
H1583 H 0.92482 0.62258 0.4042 0.0
C1584 C 0.81806 0.68031 0.39221 0.0
C1585 C 0.80197 0.70207 0.41363 0.0
C1586 C 0.81329 0.71364 0.45673 0.0
C1587 C 0.84201 0.7048 0.47724 0.0
C1588 C 0.85889 0.68499 0.45352 0.0
C1589 C 0.84687 0.67274 0.41205 0.0
C1590 C 0.8696 0.65331 0.39181 0.0
C1591 C 0.85121 0.6188 0.38114 0.0
C1592 C 0.88404 0.66835 0.3513 0.0
C1593 C 0.89628 0.65576 0.42864 0.0
C1594 C 0.89006 0.67412 0.46413 0.0
C1595 C 0.91031 0.67719 0.50312 0.0
C1596 C 0.936 0.65924 0.50658 0.0
C1597 C 0.94049 0.63858 0.47132 0.0
C1598 C 0.92197 0.63859 0.43131 0.0
H1599 H 0.30148 0.87954 0.32695 0.0
H1600 H 0.33991 0.79999 0.37952 0.0
H1601 H 0.38117 0.83696 0.42848 0.0
H1602 H 0.37971 0.93026 0.32531 0.0
H1603 H 0.36593 0.96644 0.34124 0.0
H1604 H 0.33655 0.93395 0.31341 0.0
H1605 H 0.29759 0.93371 0.37616 0.0
H1606 H 0.32676 0.96641 0.40406 0.0
H1607 H 0.31418 0.93033 0.43107 0.0
H1608 H 0.42261 0.88208 0.46596 0.0
H1609 H 0.45928 0.93247 0.49277 0.0
H1610 H 0.39481 0.98456 0.41884 0.0
C1611 C 0.31792 0.86989 0.34967 0.0
C1612 C 0.31705 0.8366 0.34942 0.0
C1613 C 0.33977 0.82519 0.379 0.0
C1614 C 0.36343 0.84608 0.40705 0.0
C1615 C 0.36434 0.87864 0.40562 0.0
C1616 C 0.34198 0.8906 0.37812 0.0
C1617 C 0.34978 0.92684 0.3818 0.0
C1618 C 0.35851 0.94014 0.33782 0.0
C1619 C 0.32032 0.94011 0.39932 0.0
C1620 C 0.38037 0.93324 0.4148 0.0
C1621 C 0.38819 0.90497 0.42805 0.0
C1622 C 0.41644 0.90435 0.4562 0.0
C1623 C 0.43723 0.93323 0.47127 0.0
C1624 C 0.43 0.96272 0.45839 0.0
C1625 C 0.4008 0.96256 0.43006 0.0
H1626 H 0.18668 0.31801 0.309 0.0
H1627 H 0.28428 0.36034 0.37213 0.0
H1628 H 0.25853 0.4 0.41192 0.0
H1629 H 0.16005 0.39192 0.29234 0.0
H1630 H 0.11666 0.37741 0.30096 0.0
H1631 H 0.14204 0.35051 0.28072 0.0
H1632 H 0.12789 0.31454 0.34437 0.0
H1633 H 0.10233 0.34127 0.3647 0.0
H1634 H 0.13596 0.33139 0.39951 0.0
H1635 H 0.22145 0.43615 0.44498 0.0
H1636 H 0.17796 0.46694 0.4638 0.0
H1637 H 0.10499 0.4042 0.37497 0.0
C1638 C 0.20253 0.33524 0.33185 0.0
C1639 C 0.23761 0.33548 0.33796 0.0
C1640 C 0.25743 0.35926 0.36713 0.0
C1641 C 0.24294 0.38197 0.38994 0.0
C1642 C 0.20845 0.38133 0.38287 0.0
C1643 C 0.18853 0.35869 0.35418 0.0
C1644 C 0.15255 0.36457 0.35018 0.0
C1645 C 0.14222 0.37151 0.30327 0.0
C1646 C 0.12825 0.33625 0.36561 0.0
C1647 C 0.15526 0.39393 0.38103 0.0
C1648 C 0.18764 0.40301 0.39998 0.0
C1649 C 0.1961 0.42924 0.43 0.0
C1650 C 0.1711 0.44665 0.44064 0.0
C1651 C 0.13785 0.43846 0.4208 0.0
C1652 C 0.13008 0.41146 0.39069 0.0
H1653 H 0.36233 0.18578 0.75184 0.0
H1654 H 0.29526 0.2071 0.64647 0.0
H1655 H 0.32098 0.17514 0.5947 0.0
H1656 H 0.43479 0.19198 0.68902 0.0
H1657 H 0.4512 0.16037 0.71429 0.0
H1658 H 0.42614 0.18314 0.744 0.0
H1659 H 0.38538 0.13145 0.7579 0.0
H1660 H 0.41037 0.10852 0.72827 0.0
H1661 H 0.3662 0.10485 0.71246 0.0
H1662 H 0.35364 0.13983 0.55345 0.0
H1663 H 0.39335 0.10759 0.52603 0.0
H1664 H 0.4428 0.1122 0.65591 0.0
C1665 C 0.35287 0.18337 0.71797 0.0
C1666 C 0.32646 0.19887 0.70341 0.0
C1667 C 0.31539 0.19557 0.65854 0.0
C1668 C 0.32981 0.17732 0.62878 0.0
C1669 C 0.35593 0.16263 0.64385 0.0
C1670 C 0.36766 0.16569 0.68732 0.0
C1671 C 0.39736 0.1488 0.69427 0.0
C1672 C 0.42926 0.17249 0.71141 0.0
C1673 C 0.38934 0.1218 0.72505 0.0
C1674 C 0.4003 0.13577 0.64816 0.0
C1675 C 0.37586 0.14369 0.61965 0.0
C1676 C 0.37301 0.13369 0.57554 0.0
C1677 C 0.39572 0.11531 0.56014 0.0
C1678 C 0.42158 0.10745 0.58842 0.0
C1679 C 0.42366 0.11798 0.63311 0.0
H1680 H 0.82688 0.36409 0.68117 0.0
H1681 H 0.88731 0.29092 0.67404 0.0
H1682 H 0.92932 0.32678 0.63637 0.0
H1683 H 0.84521 0.39761 0.57653 0.0
H1684 H 0.84733 0.4381 0.59663 0.0
H1685 H 0.82133 0.40619 0.62115 0.0
H1686 H 0.85227 0.42534 0.69638 0.0
H1687 H 0.87835 0.45728 0.67207 0.0
H1688 H 0.89734 0.42983 0.70334 0.0
H1689 H 0.96664 0.37314 0.59629 0.0
H1690 H 0.99413 0.42324 0.56606 0.0
H1691 H 0.91155 0.46746 0.60239 0.0
C1692 C 0.84877 0.35535 0.6714 0.0
C1693 C 0.85286 0.32376 0.6808 0.0
C1694 C 0.88271 0.31441 0.6676 0.0
C1695 C 0.90703 0.33489 0.64586 0.0
C1696 C 0.90226 0.36567 0.63723 0.0
C1697 C 0.8738 0.37589 0.65008 0.0
C1698 C 0.87525 0.41054 0.63866 0.0
C1699 C 0.8455 0.41326 0.60633 0.0
C1700 C 0.87583 0.43202 0.68007 0.0
C1701 C 0.90863 0.41827 0.61738 0.0
C1702 C 0.92383 0.39201 0.61635 0.0
C1703 C 0.95466 0.39368 0.59744 0.0
C1704 C 0.9703 0.4225 0.57995 0.0
C1705 C 0.9558 0.45025 0.58144 0.0
C1706 C 0.92414 0.44733 0.60051 0.0
H1707 H 0.23825 0.68683 0.63701 0.0
H1708 H 0.18682 0.68737 0.75562 0.0
H1709 H 0.14527 0.64102 0.72583 0.0
H1710 H 0.1647 0.66636 0.5642 0.0
H1711 H 0.18212 0.64084 0.52775 0.0
H1712 H 0.20931 0.67324 0.5589 0.0
H1713 H 0.24475 0.63406 0.59092 0.0
H1714 H 0.21766 0.60153 0.55977 0.0
H1715 H 0.22437 0.60034 0.61792 0.0
H1716 H 0.10769 0.59739 0.68296 0.0
H1717 H 0.076 0.55706 0.62911 0.0
H1718 H 0.15134 0.58284 0.53764 0.0
C1719 C 0.21843 0.67697 0.65682 0.0
C1720 C 0.21579 0.69075 0.69864 0.0
C1721 C 0.18936 0.67731 0.72348 0.0
C1722 C 0.16564 0.65091 0.70691 0.0
C1723 C 0.16872 0.63812 0.66553 0.0
C1724 C 0.19441 0.6505 0.64075 0.0
C1725 C 0.19107 0.63252 0.59666 0.0
C1726 C 0.18652 0.65456 0.55971 0.0
C1727 C 0.22126 0.61614 0.59101 0.0
C1728 C 0.15925 0.60846 0.60052 0.0
C1729 C 0.14694 0.61223 0.64062 0.0
C1730 C 0.11718 0.59394 0.65158 0.0
C1731 C 0.09931 0.57117 0.62066 0.0
C1732 C 0.11132 0.56674 0.57929 0.0
C1733 C 0.14186 0.58546 0.56923 0.0
loop_
_geom_bond_atom_site_label_1
_geom_bond_atom_site_label_2
_geom_bond_distance
_geom_bond_site_symmetry_2
_ccdc_geom_bond_type
Co0 N5 2.057 . S
Co0 O17 2.021 . S
Co0 O20 2.062 . S
Co0 O24 2.117 . S
Co0 O25 2.020 . S
C1 O21 1.259 . S
C1 O24 1.258 . S
Co2 N11 2.057 . S
Co2 O18 2.117 . S
Co2 O19 2.020 . S
Co2 O21 2.021 . S
Co2 O26 2.062 . S
C3 N5 1.316 . S
C3 N6 1.347 . S
C3 H8 0.931 . S
C4 N5 1.375 . S
C4 C7 1.350 . S
C4 H9 0.930 . S
N5 Co0 2.057 . S
N5 C3 1.316 . S
N5 C4 1.375 . S
N6 C3 1.347 . S
N6 C7 1.373 . S
C7 C4 1.350 . S
C7 N6 1.373 . S
C7 H28 0.931 . S
H8 C3 0.931 . S
H9 C4 0.930 . S
C10 O17 1.259 . S
C10 O18 1.258 . S
N11 Co2 2.057 . S
N11 C12 1.316 . S
N11 C13 1.375 . S
C12 N11 1.316 . S
C12 N14 1.347 . S
C12 H23 0.931 . S
C13 N11 1.375 . S
C13 C15 1.350 . S
C13 H22 0.930 . S
N14 C12 1.347 . S
N14 C15 1.373 . S
C15 C13 1.350 . S
C15 N14 1.373 . S
C15 H29 0.931 . S
C16 O19 1.256 . S
C16 O20 1.255 . S
O17 Co0 2.021 . S
O17 C10 1.259 . S
O18 Co2 2.117 . S
O18 C10 1.258 . S
O19 Co2 2.020 . S
O19 C16 1.256 . S
O20 Co0 2.062 . S
O20 C16 1.255 . S
O21 C1 1.259 . S
O21 Co2 2.021 . S
H22 C13 0.930 . S
H23 C12 0.931 . S
O24 Co0 2.117 . S
O24 C1 1.258 . S
O25 Co0 2.020 . S
O25 C27 1.256 . S
O26 Co2 2.062 . S
O26 C27 1.255 . S
C27 O25 1.256 . S
C27 O26 1.255 . S
H28 C7 0.931 . S
H29 C15 0.931 . S
Co30 N35 2.057 . S
Co30 O47 2.021 . S
Co30 O50 2.062 . S
Co30 O54 2.117 . S
Co30 O55 2.020 . S
C31 O51 1.259 . S
C31 O54 1.258 . S
Co32 N41 2.057 . S
Co32 O48 2.117 . S
Co32 O49 2.020 . S
Co32 O51 2.021 . S
Co32 O56 2.062 . S
C33 N35 1.316 . S
C33 N36 1.347 . S
C33 H38 0.931 . S
C34 N35 1.375 . S
C34 C37 1.350 . S
C34 H39 0.930 . S
N35 Co30 2.057 . S
N35 C33 1.316 . S
N35 C34 1.375 . S
N36 C33 1.347 . S
N36 C37 1.373 . S
C37 C34 1.350 . S
C37 N36 1.373 . S
C37 H58 0.931 . S
H38 C33 0.931 . S
H39 C34 0.930 . S
C40 O47 1.259 . S
C40 O48 1.258 . S
N41 Co32 2.057 . S
N41 C42 1.316 . S
N41 C43 1.375 . S
C42 N41 1.316 . S
C42 N44 1.347 . S
C42 H53 0.931 . S
C43 N41 1.375 . S
C43 C45 1.350 . S
C43 H52 0.930 . S
N44 C42 1.347 . S
N44 C45 1.373 . S
C45 C43 1.350 . S
C45 N44 1.373 . S
C45 H59 0.931 . S
C46 O49 1.256 . S
C46 O50 1.255 . S
O47 Co30 2.021 . S
O47 C40 1.259 . S
O48 Co32 2.117 . S
O48 C40 1.258 . S
O49 Co32 2.020 . S
O49 C46 1.256 . S
O50 Co30 2.062 . S
O50 C46 1.255 . S
O51 C31 1.259 . S
O51 Co32 2.021 . S
H52 C43 0.930 . S
H53 C42 0.931 . S
O54 Co30 2.117 . S
O54 C31 1.258 . S
O55 Co30 2.020 . S
O55 C57 1.256 . S
O56 Co32 2.062 . S
O56 C57 1.255 . S
C57 O55 1.256 . S
C57 O56 1.255 . S
H58 C37 0.931 . S
H59 C45 0.931 . S
Co60 N65 2.057 . S
Co60 O77 2.021 . S
Co60 O80 2.062 . S
Co60 O84 2.117 . S
Co60 O85 2.020 . S
C61 O81 1.259 . S
C61 O84 1.258 . S
Co62 N71 2.057 . S
Co62 O78 2.117 . S
Co62 O79 2.020 . S
Co62 O81 2.021 . S
Co62 O86 2.062 . S
C63 N65 1.316 . S
C63 N66 1.347 . S
C63 H68 0.931 . S
C64 N65 1.375 . S
C64 C67 1.350 . S
C64 H69 0.930 . S
N65 Co60 2.057 . S
N65 C63 1.316 . S
N65 C64 1.375 . S
N66 C63 1.347 . S
N66 C67 1.373 . S
C67 C64 1.350 . S
C67 N66 1.373 . S
C67 H88 0.931 . S
H68 C63 0.931 . S
H69 C64 0.930 . S
C70 O77 1.259 . S
C70 O78 1.258 . S
N71 Co62 2.057 . S
N71 C72 1.316 . S
N71 C73 1.375 . S
C72 N71 1.316 . S
C72 N74 1.347 . S
C72 H83 0.931 . S
C73 N71 1.375 . S
C73 C75 1.350 . S
C73 H82 0.930 . S
N74 C72 1.347 . S
N74 C75 1.373 . S
C75 C73 1.350 . S
C75 N74 1.373 . S
C75 H89 0.931 . S
C76 O79 1.256 . S
C76 O80 1.255 . S
O77 Co60 2.021 . S
O77 C70 1.259 . S
O78 Co62 2.117 . S
O78 C70 1.258 . S
O79 Co62 2.020 . S
O79 C76 1.256 . S
O80 Co60 2.062 . S
O80 C76 1.255 . S
O81 C61 1.259 . S
O81 Co62 2.021 . S
H82 C73 0.930 . S
H83 C72 0.931 . S
O84 Co60 2.117 . S
O84 C61 1.258 . S
O85 Co60 2.020 . S
O85 C87 1.256 . S
O86 Co62 2.062 . S
O86 C87 1.255 . S
C87 O85 1.256 . S
C87 O86 1.255 . S
H88 C67 0.931 . S
H89 C75 0.931 . S
Co90 N95 2.057 . S
Co90 O107 2.021 . S
Co90 O110 2.062 . S
Co90 O114 2.117 . S
Co90 O115 2.020 . S
C91 O111 1.259 . S
C91 O114 1.258 . S
Co92 N101 2.057 . S
Co92 O108 2.117 . S
Co92 O109 2.020 . S
Co92 O111 2.021 . S
Co92 O116 2.062 . S
C93 N95 1.316 . S
C93 N96 1.347 . S
C93 H98 0.931 . S
C94 N95 1.375 . S
C94 C97 1.350 . S
C94 H99 0.930 . S
N95 Co90 2.057 . S
N95 C93 1.316 . S
N95 C94 1.375 . S
N96 C93 1.347 . S
N96 C97 1.373 . S
C97 C94 1.350 . S
C97 N96 1.373 . S
C97 H118 0.931 . S
H98 C93 0.931 . S
H99 C94 0.930 . S
C100 O107 1.259 . S
C100 O108 1.258 . S
N101 Co92 2.057 . S
N101 C102 1.316 . S
N101 C103 1.375 . S
C102 N101 1.316 . S
C102 N104 1.347 . S
C102 H113 0.931 . S
C103 N101 1.375 . S
C103 C105 1.350 . S
C103 H112 0.930 . S
N104 C102 1.347 . S
N104 C105 1.373 . S
C105 C103 1.350 . S
C105 N104 1.373 . S
C105 H119 0.931 . S
C106 O109 1.256 . S
C106 O110 1.255 . S
O107 Co90 2.021 . S
O107 C100 1.259 . S
O108 Co92 2.117 . S
O108 C100 1.258 . S
O109 Co92 2.020 . S
O109 C106 1.256 . S
O110 Co90 2.062 . S
O110 C106 1.255 . S
O111 C91 1.259 . S
O111 Co92 2.021 . S
H112 C103 0.930 . S
H113 C102 0.931 . S
O114 Co90 2.117 . S
O114 C91 1.258 . S
O115 Co90 2.020 . S
O115 C117 1.256 . S
O116 Co92 2.062 . S
O116 C117 1.255 . S
C117 O115 1.256 . S
C117 O116 1.255 . S
H118 C97 0.931 . S
H119 C105 0.931 . S
Co120 N125 2.057 . S
Co120 O137 2.021 . S
Co120 O140 2.062 . S
Co120 O144 2.117 . S
Co120 O145 2.020 . S
C121 O141 1.259 . S
C121 O144 1.258 . S
Co122 N131 2.057 . S
Co122 O138 2.117 . S
Co122 O139 2.020 . S
Co122 O141 2.021 . S
Co122 O146 2.062 . S
C123 N125 1.316 . S
C123 N126 1.347 . S
C123 H128 0.931 . S
C124 N125 1.375 . S
C124 C127 1.350 . S
C124 H129 0.930 . S
N125 Co120 2.057 . S
N125 C123 1.316 . S
N125 C124 1.375 . S
N126 C123 1.347 . S
N126 C127 1.373 . S
C127 C124 1.350 . S
C127 N126 1.373 . S
C127 H148 0.931 . S
H128 C123 0.931 . S
H129 C124 0.930 . S
C130 O137 1.259 . S
C130 O138 1.258 . S
N131 Co122 2.057 . S
N131 C132 1.316 . S
N131 C133 1.375 . S
C132 N131 1.316 . S
C132 N134 1.347 . S
C132 H143 0.931 . S
C133 N131 1.375 . S
C133 C135 1.350 . S
C133 H142 0.930 . S
N134 C132 1.347 . S
N134 C135 1.373 . S
C135 C133 1.350 . S
C135 N134 1.373 . S
C135 H149 0.931 . S
C136 O139 1.256 . S
C136 O140 1.255 . S
O137 Co120 2.021 . S
O137 C130 1.259 . S
O138 Co122 2.117 . S
O138 C130 1.258 . S
O139 Co122 2.020 . S
O139 C136 1.256 . S
O140 Co120 2.062 . S
O140 C136 1.255 . S
O141 C121 1.259 . S
O141 Co122 2.021 . S
H142 C133 0.930 . S
H143 C132 0.931 . S
O144 Co120 2.117 . S
O144 C121 1.258 . S
O145 Co120 2.020 . S
O145 C147 1.256 . S
O146 Co122 2.062 . S
O146 C147 1.255 . S
C147 O145 1.256 . S
C147 O146 1.255 . S
H148 C127 0.931 . S
H149 C135 0.931 . S
Co150 N155 2.057 . S
Co150 O167 2.021 . S
Co150 O170 2.062 . S
Co150 O174 2.117 . S
Co150 O175 2.020 . S
C151 O171 1.259 . S
C151 O174 1.258 . S
Co152 N161 2.057 . S
Co152 O168 2.117 . S
Co152 O169 2.020 . S
Co152 O171 2.021 . S
Co152 O176 2.062 . S
C153 N155 1.316 . S
C153 N156 1.347 . S
C153 H158 0.931 . S
C154 N155 1.375 . S
C154 C157 1.350 . S
C154 H159 0.930 . S
N155 Co150 2.057 . S
N155 C153 1.316 . S
N155 C154 1.375 . S
N156 C153 1.347 . S
N156 C157 1.373 . S
C157 C154 1.350 . S
C157 N156 1.373 . S
C157 H178 0.931 . S
H158 C153 0.931 . S
H159 C154 0.930 . S
C160 O167 1.259 . S
C160 O168 1.258 . S
N161 Co152 2.057 . S
N161 C162 1.316 . S
N161 C163 1.375 . S
C162 N161 1.316 . S
C162 N164 1.347 . S
C162 H173 0.931 . S
C163 N161 1.375 . S
C163 C165 1.350 . S
C163 H172 0.930 . S
N164 C162 1.347 . S
N164 C165 1.373 . S
C165 C163 1.350 . S
C165 N164 1.373 . S
C165 H179 0.931 . S
C166 O169 1.256 . S
C166 O170 1.255 . S
O167 Co150 2.021 . S
O167 C160 1.259 . S
O168 Co152 2.117 . S
O168 C160 1.258 . S
O169 Co152 2.020 . S
O169 C166 1.256 . S
O170 Co150 2.062 . S
O170 C166 1.255 . S
O171 C151 1.259 . S
O171 Co152 2.021 . S
H172 C163 0.930 . S
H173 C162 0.931 . S
O174 Co150 2.117 . S
O174 C151 1.258 . S
O175 Co150 2.020 . S
O175 C177 1.256 . S
O176 Co152 2.062 . S
O176 C177 1.255 . S
C177 O175 1.256 . S
C177 O176 1.255 . S
H178 C157 0.931 . S
H179 C165 0.931 . S
Co180 N185 2.057 . S
Co180 O197 2.021 . S
Co180 O200 2.062 . S
Co180 O204 2.117 . S
Co180 O205 2.020 . S
C181 O201 1.259 . S
C181 O204 1.258 . S
Co182 N191 2.057 . S
Co182 O198 2.117 . S
Co182 O199 2.020 . S
Co182 O201 2.021 . S
Co182 O206 2.062 . S
C183 N185 1.316 . S
C183 N186 1.347 . S
C183 H188 0.931 . S
C184 N185 1.375 . S
C184 C187 1.350 . S
C184 H189 0.930 . S
N185 Co180 2.057 . S
N185 C183 1.316 . S
N185 C184 1.375 . S
N186 C183 1.347 . S
N186 C187 1.373 . S
C187 C184 1.350 . S
C187 N186 1.373 . S
C187 H208 0.931 . S
H188 C183 0.931 . S
H189 C184 0.930 . S
C190 O197 1.259 . S
C190 O198 1.258 . S
N191 Co182 2.057 . S
N191 C192 1.316 . S
N191 C193 1.375 . S
C192 N191 1.316 . S
C192 N194 1.347 . S
C192 H203 0.931 . S
C193 N191 1.375 . S
C193 C195 1.350 . S
C193 H202 0.930 . S
N194 C192 1.347 . S
N194 C195 1.373 . S
C195 C193 1.350 . S
C195 N194 1.373 . S
C195 H209 0.931 . S
C196 O199 1.256 . S
C196 O200 1.255 . S
O197 Co180 2.021 . S
O197 C190 1.259 . S
O198 Co182 2.117 . S
O198 C190 1.258 . S
O199 Co182 2.020 . S
O199 C196 1.256 . S
O200 Co180 2.062 . S
O200 C196 1.255 . S
O201 C181 1.259 . S
O201 Co182 2.021 . S
H202 C193 0.930 . S
H203 C192 0.931 . S
O204 Co180 2.117 . S
O204 C181 1.258 . S
O205 Co180 2.020 . S
O205 C207 1.256 . S
O206 Co182 2.062 . S
O206 C207 1.255 . S
C207 O205 1.256 . S
C207 O206 1.255 . S
H208 C187 0.931 . S
H209 C195 0.931 . S
Co210 N215 2.057 . S
Co210 O227 2.021 . S
Co210 O230 2.062 . S
Co210 O234 2.117 . S
Co210 O235 2.020 . S
C211 O231 1.259 . S
C211 O234 1.258 . S
Co212 N221 2.057 . S
Co212 O228 2.117 . S
Co212 O229 2.020 . S
Co212 O231 2.021 . S
Co212 O236 2.062 . S
C213 N215 1.316 . S
C213 N216 1.347 . S
C213 H218 0.931 . S
C214 N215 1.375 . S
C214 C217 1.350 . S
C214 H219 0.930 . S
N215 Co210 2.057 . S
N215 C213 1.316 . S
N215 C214 1.375 . S
N216 C213 1.347 . S
N216 C217 1.373 . S
C217 C214 1.350 . S
C217 N216 1.373 . S
C217 H238 0.931 . S
H218 C213 0.931 . S
H219 C214 0.930 . S
C220 O227 1.259 . S
C220 O228 1.258 . S
N221 Co212 2.057 . S
N221 C222 1.316 . S
N221 C223 1.375 . S
C222 N221 1.316 . S
C222 N224 1.347 . S
C222 H233 0.931 . S
C223 N221 1.375 . S
C223 C225 1.350 . S
C223 H232 0.930 . S
N224 C222 1.347 . S
N224 C225 1.373 . S
C225 C223 1.350 . S
C225 N224 1.373 . S
C225 H239 0.931 . S
C226 O229 1.256 . S
C226 O230 1.255 . S
O227 Co210 2.021 . S
O227 C220 1.259 . S
O228 Co212 2.117 . S
O228 C220 1.258 . S
O229 Co212 2.020 . S
O229 C226 1.256 . S
O230 Co210 2.062 . S
O230 C226 1.255 . S
O231 C211 1.259 . S
O231 Co212 2.021 . S
H232 C223 0.930 . S
H233 C222 0.931 . S
O234 Co210 2.117 . S
O234 C211 1.258 . S
O235 Co210 2.020 . S
O235 C237 1.256 . S
O236 Co212 2.062 . S
O236 C237 1.255 . S
C237 O235 1.256 . S
C237 O236 1.255 . S
H238 C217 0.931 . S
H239 C225 0.931 . S
Co240 O243 2.042 . S
Co240 O250 2.264 . S
Co240 O269 2.286 . S
Co240 O270 2.069 . S
Co240 O272 2.015 1_455 S
Co241 O243 2.122 . S
Co241 O249 2.073 . S
Co241 O250 2.327 . S
Co241 O251 1.976 1_455 S
Co242 O243 2.078 1_545 S
Co242 O245 2.096 1_455 S
Co242 O252 2.107 1_445 S
Co242 O253 2.150 . S
Co242 O257 2.116 . S
Co242 O271 2.137 1_445 S
O243 Co240 2.042 . S
O243 Co241 2.122 . S
O243 Co242 2.078 1_565 S
O243 H244 0.980 . S
H244 O243 0.980 . S
O245 Co242 2.096 1_655 S
O245 Co246 2.042 . S
O245 Co247 2.122 . S
O245 H248 0.980 . S
Co246 O245 2.042 . S
Co246 O254 2.286 . S
Co246 O255 2.069 . S
Co246 O256 2.015 1_655 S
Co246 O259 2.264 . S
Co247 O245 2.122 . S
Co247 O258 1.976 1_655 S
Co247 O259 2.327 . S
Co247 O260 2.073 . S
H248 O245 0.980 . S
O249 Co241 2.073 . S
O249 C264 1.245 . S
O250 Co240 2.264 . S
O250 Co241 2.327 . S
O250 C264 1.257 . S
O251 Co241 1.976 1_655 S
O251 C263 1.251 . S
O252 Co242 2.107 1_665 S
O252 C263 1.274 . S
O253 Co242 2.150 . S
O253 C266 1.246 . S
O254 Co246 2.286 . S
O254 C265 1.259 . S
O255 Co246 2.069 . S
O255 C265 1.289 . S
O256 Co246 2.015 1_455 S
O256 C266 1.257 . S
O257 Co242 2.116 . S
O257 C267 1.274 . S
O258 Co247 1.976 1_455 S
O258 C267 1.251 . S
O259 Co246 2.264 . S
O259 Co247 2.327 . S
O259 C268 1.257 . S
O260 Co247 2.073 . S
O260 C268 1.245 . S
C261 O269 1.259 . S
C261 O270 1.289 . S
C262 O271 1.246 . S
C262 O272 1.257 . S
C263 O251 1.251 . S
C263 O252 1.274 . S
C264 O249 1.245 . S
C264 O250 1.257 . S
C265 O254 1.259 . S
C265 O255 1.289 . S
C266 O253 1.246 . S
C266 O256 1.257 . S
C267 O257 1.274 . S
C267 O258 1.251 . S
C268 O259 1.257 . S
C268 O260 1.245 . S
O269 Co240 2.286 . S
O269 C261 1.259 . S
O270 Co240 2.069 . S
O270 C261 1.289 . S
O271 Co242 2.137 1_665 S
O271 C262 1.246 . S
O272 Co240 2.015 1_655 S
O272 C262 1.257 . S
Co273 O276 2.042 1_556 S
Co273 O283 2.264 1_556 S
Co273 O302 2.286 . S
Co273 O303 2.069 . S
Co273 O305 2.015 . S
Co274 O276 2.122 . S
Co274 O282 2.073 . S
Co274 O283 2.327 . S
Co274 O284 1.976 . S
Co275 O276 2.077 1_545 S
Co275 O278 2.096 1_554 S
Co275 O285 2.107 1_545 S
Co275 O286 2.150 . S
Co275 O290 2.115 1_554 S
Co275 O304 2.137 1_544 S
O276 Co273 2.042 1_554 S
O276 Co274 2.122 . S
O276 Co275 2.077 1_565 S
O276 H277 0.980 . S
H277 O276 0.980 . S
O278 Co275 2.096 1_556 S
O278 Co279 2.042 1_556 S
O278 Co280 2.122 . S
O278 H281 0.980 . S
Co279 O278 2.042 1_554 S
Co279 O287 2.286 . S
Co279 O288 2.069 . S
Co279 O289 2.015 . S
Co279 O292 2.264 1_554 S
Co280 O278 2.122 . S
Co280 O291 1.976 . S
Co280 O292 2.327 . S
Co280 O293 2.073 . S
H281 O278 0.980 . S
O282 Co274 2.073 . S
O282 C297 1.245 . S
O283 Co273 2.264 1_554 S
O283 Co274 2.327 . S
O283 C297 1.257 . S
O284 Co274 1.976 . S
O284 C296 1.251 . S
O285 Co275 2.107 1_565 S
O285 C296 1.274 . S
O286 Co275 2.150 . S
O286 C299 1.246 . S
O287 Co279 2.286 . S
O287 C298 1.259 . S
O288 Co279 2.069 . S
O288 C298 1.289 . S
O289 Co279 2.015 . S
O289 C299 1.257 . S
O290 Co275 2.115 1_556 S
O290 C300 1.274 . S
O291 Co280 1.976 . S
O291 C300 1.251 . S
O292 Co279 2.264 1_556 S
O292 Co280 2.327 . S
O292 C301 1.257 . S
O293 Co280 2.073 . S
O293 C301 1.245 . S
C294 O302 1.259 . S
C294 O303 1.289 . S
C295 O304 1.246 . S
C295 O305 1.257 . S
C296 O284 1.251 . S
C296 O285 1.274 . S
C297 O282 1.245 . S
C297 O283 1.257 . S
C298 O287 1.259 . S
C298 O288 1.289 . S
C299 O286 1.246 . S
C299 O289 1.257 . S
C300 O290 1.274 . S
C300 O291 1.251 . S
C301 O292 1.257 . S
C301 O293 1.245 . S
O302 Co273 2.286 . S
O302 C294 1.259 . S
O303 Co273 2.069 . S
O303 C294 1.289 . S
O304 Co275 2.137 1_566 S
O304 C295 1.246 . S
O305 Co273 2.015 . S
O305 C295 1.257 . S
Co306 O309 2.042 1_556 S
Co306 O316 2.264 1_556 S
Co306 O335 2.286 . S
Co306 O336 2.069 . S
Co306 O338 2.015 1_455 S
Co307 O309 2.122 . S
Co307 O315 2.073 . S
Co307 O316 2.327 . S
Co307 O317 1.976 1_455 S
Co308 O309 2.087 . S
Co308 O311 2.086 1_454 S
Co308 O318 2.111 1_455 S
Co308 O319 2.144 . S
Co308 O323 2.112 1_554 S
Co308 O337 2.143 1_454 S
O309 Co306 2.042 1_554 S
O309 Co307 2.122 . S
O309 Co308 2.087 . S
O309 H310 0.980 . S
H310 O309 0.980 . S
O311 Co308 2.086 1_656 S
O311 Co312 2.042 1_556 S
O311 Co313 2.122 . S
O311 H314 0.980 . S
Co312 O311 2.042 1_554 S
Co312 O320 2.286 . S
Co312 O321 2.069 . S
Co312 O322 2.015 1_655 S
Co312 O325 2.264 1_554 S
Co313 O311 2.122 . S
Co313 O324 1.976 1_655 S
Co313 O325 2.327 . S
Co313 O326 2.073 . S
H314 O311 0.980 . S
O315 Co307 2.073 . S
O315 C330 1.245 . S
O316 Co306 2.264 1_554 S
O316 Co307 2.327 . S
O316 C330 1.257 . S
O317 Co307 1.976 1_655 S
O317 C329 1.251 . S
O318 Co308 2.111 1_655 S
O318 C329 1.274 . S
O319 Co308 2.144 . S
O319 C332 1.246 . S
O320 Co312 2.286 . S
O320 C331 1.259 . S
O321 Co312 2.069 . S
O321 C331 1.289 . S
O322 Co312 2.015 1_455 S
O322 C332 1.257 . S
O323 Co308 2.112 1_556 S
O323 C333 1.274 . S
O324 Co313 1.976 1_455 S
O324 C333 1.251 . S
O325 Co312 2.264 1_556 S
O325 Co313 2.327 . S
O325 C334 1.257 . S
O326 Co313 2.073 . S
O326 C334 1.245 . S
C327 O335 1.259 . S
C327 O336 1.289 . S
C328 O337 1.246 . S
C328 O338 1.257 . S
C329 O317 1.251 . S
C329 O318 1.274 . S
C330 O315 1.245 . S
C330 O316 1.257 . S
C331 O320 1.259 . S
C331 O321 1.289 . S
C332 O319 1.246 . S
C332 O322 1.257 . S
C333 O323 1.274 . S
C333 O324 1.251 . S
C334 O325 1.257 . S
C334 O326 1.245 . S
O335 Co306 2.286 . S
O335 C327 1.259 . S
O336 Co306 2.069 . S
O336 C327 1.289 . S
O337 Co308 2.143 1_656 S
O337 C328 1.246 . S
O338 Co306 2.015 1_655 S
O338 C328 1.257 . S
Co339 O342 2.042 1_556 S
Co339 O349 2.264 1_556 S
Co339 O368 2.286 . S
Co339 O369 2.069 . S
Co339 O371 2.015 . S
Co340 O342 2.122 . S
Co340 O348 2.073 . S
Co340 O349 2.327 . S
Co340 O350 1.976 . S
Co341 O342 2.087 . S
Co341 O344 2.087 1_554 S
Co341 O351 2.111 . S
Co341 O352 2.143 . S
Co341 O356 2.111 1_554 S
Co341 O370 2.143 1_554 S
O342 Co339 2.042 1_554 S
O342 Co340 2.122 . S
O342 Co341 2.087 . S
O342 H343 0.980 . S
H343 O342 0.980 . S
O344 Co341 2.087 1_556 S
O344 Co345 2.042 1_556 S
O344 Co346 2.122 . S
O344 H347 0.980 . S
Co345 O344 2.042 1_554 S
Co345 O353 2.286 . S
Co345 O354 2.069 . S
Co345 O355 2.015 . S
Co345 O358 2.264 1_554 S
Co346 O344 2.122 . S
Co346 O357 1.976 . S
Co346 O358 2.327 . S
Co346 O359 2.073 . S
H347 O344 0.980 . S
O348 Co340 2.073 . S
O348 C363 1.245 . S
O349 Co339 2.264 1_554 S
O349 Co340 2.327 . S
O349 C363 1.257 . S
O350 Co340 1.976 . S
O350 C362 1.251 . S
O351 Co341 2.111 . S
O351 C362 1.274 . S
O352 Co341 2.143 . S
O352 C365 1.246 . S
O353 Co345 2.286 . S
O353 C364 1.259 . S
O354 Co345 2.069 . S
O354 C364 1.289 . S
O355 Co345 2.015 . S
O355 C365 1.257 . S
O356 Co341 2.111 1_556 S
O356 C366 1.274 . S
O357 Co346 1.976 . S
O357 C366 1.251 . S
O358 Co345 2.264 1_556 S
O358 Co346 2.327 . S
O358 C367 1.257 . S
O359 Co346 2.073 . S
O359 C367 1.245 . S
C360 O368 1.259 . S
C360 O369 1.289 . S
C361 O370 1.246 . S
C361 O371 1.257 . S
C362 O350 1.251 . S
C362 O351 1.274 . S
C363 O348 1.245 . S
C363 O349 1.257 . S
C364 O353 1.259 . S
C364 O354 1.289 . S
C365 O352 1.246 . S
C365 O355 1.257 . S
C366 O356 1.274 . S
C366 O357 1.251 . S
C367 O358 1.257 . S
C367 O359 1.245 . S
O368 Co339 2.286 . S
O368 C360 1.259 . S
O369 Co339 2.069 . S
O369 C360 1.289 . S
O370 Co341 2.143 1_556 S
O370 C361 1.246 . S
O371 Co339 2.015 . S
O371 C361 1.257 . S
Co372 O375 2.042 . S
Co372 O382 2.264 . S
Co372 O401 2.286 . S
Co372 O402 2.069 . S
Co372 O404 2.015 . S
Co373 O375 2.122 . S
Co373 O381 2.073 . S
Co373 O382 2.327 . S
Co373 O383 1.976 . S
Co374 O375 2.087 . S
Co374 O377 2.086 1_455 S
Co374 O384 2.111 . S
Co374 O385 2.143 1_455 S
Co374 O389 2.111 1_455 S
Co374 O403 2.144 . S
O375 Co372 2.042 . S
O375 Co373 2.122 . S
O375 Co374 2.087 . S
O375 H376 0.980 . S
H376 O375 0.980 . S
O377 Co374 2.086 1_655 S
O377 Co378 2.042 . S
O377 Co379 2.122 . S
O377 H380 0.980 . S
Co378 O377 2.042 . S
Co378 O386 2.286 . S
Co378 O387 2.069 . S
Co378 O388 2.015 . S
Co378 O391 2.264 . S
Co379 O377 2.122 . S
Co379 O390 1.976 . S
Co379 O391 2.327 . S
Co379 O392 2.073 . S
H380 O377 0.980 . S
O381 Co373 2.073 . S
O381 C396 1.245 . S
O382 Co372 2.264 . S
O382 Co373 2.327 . S
O382 C396 1.257 . S
O383 Co373 1.976 . S
O383 C395 1.251 . S
O384 Co374 2.111 . S
O384 C395 1.274 . S
O385 Co374 2.143 1_655 S
O385 C398 1.246 . S
O386 Co378 2.286 . S
O386 C397 1.259 . S
O387 Co378 2.069 . S
O387 C397 1.289 . S
O388 Co378 2.015 . S
O388 C398 1.257 . S
O389 Co374 2.111 1_655 S
O389 C399 1.274 . S
O390 Co379 1.976 . S
O390 C399 1.251 . S
O391 Co378 2.264 . S
O391 Co379 2.327 . S
O391 C400 1.257 . S
O392 Co379 2.073 . S
O392 C400 1.245 . S
C393 O401 1.259 . S
C393 O402 1.289 . S
C394 O403 1.246 . S
C394 O404 1.257 . S
C395 O383 1.251 . S
C395 O384 1.274 . S
C396 O381 1.245 . S
C396 O382 1.257 . S
C397 O386 1.259 . S
C397 O387 1.289 . S
C398 O385 1.246 . S
C398 O388 1.257 . S
C399 O389 1.274 . S
C399 O390 1.251 . S
C400 O391 1.257 . S
C400 O392 1.245 . S
O401 Co372 2.286 . S
O401 C393 1.259 . S
O402 Co372 2.069 . S
O402 C393 1.289 . S
O403 Co374 2.144 . S
O403 C394 1.246 . S
O404 Co372 2.015 . S
O404 C394 1.257 . S
Co405 O408 2.042 . S
Co405 O415 2.264 . S
Co405 O434 2.286 . S
Co405 O435 2.069 . S
Co405 O437 2.015 1_565 S
Co406 O408 2.122 . S
Co406 O414 2.073 . S
Co406 O415 2.327 . S
Co406 O416 1.976 1_565 S
Co407 O408 2.077 1_545 S
Co407 O410 2.096 . S
Co407 O417 2.119 . S
Co407 O418 2.139 1_545 S
Co407 O422 2.104 1_545 S
Co407 O436 2.148 . S
O408 Co405 2.042 . S
O408 Co406 2.122 . S
O408 Co407 2.077 1_565 S
O408 H409 0.980 . S
H409 O408 0.980 . S
O410 Co407 2.096 . S
O410 Co411 2.042 . S
O410 Co412 2.122 . S
O410 H413 0.980 . S
Co411 O410 2.042 . S
Co411 O419 2.286 . S
Co411 O420 2.069 . S
Co411 O421 2.015 1_545 S
Co411 O424 2.264 . S
Co412 O410 2.122 . S
Co412 O423 1.976 1_545 S
Co412 O424 2.327 . S
Co412 O425 2.073 . S
H413 O410 0.980 . S
O414 Co406 2.073 . S
O414 C429 1.245 . S
O415 Co405 2.264 . S
O415 Co406 2.327 . S
O415 C429 1.257 . S
O416 Co406 1.976 1_545 S
O416 C428 1.251 . S
O417 Co407 2.119 . S
O417 C428 1.274 . S
O418 Co407 2.139 1_565 S
O418 C431 1.246 . S
O419 Co411 2.286 . S
O419 C430 1.259 . S
O420 Co411 2.069 . S
O420 C430 1.289 . S
O421 Co411 2.015 1_565 S
O421 C431 1.257 . S
O422 Co407 2.104 1_565 S
O422 C432 1.274 . S
O423 Co412 1.976 1_565 S
O423 C432 1.251 . S
O424 Co411 2.264 . S
O424 Co412 2.327 . S
O424 C433 1.257 . S
O425 Co412 2.073 . S
O425 C433 1.245 . S
C426 O434 1.259 . S
C426 O435 1.289 . S
C427 O436 1.246 . S
C427 O437 1.257 . S
C428 O416 1.251 . S
C428 O417 1.274 . S
C429 O414 1.245 . S
C429 O415 1.257 . S
C430 O419 1.259 . S
C430 O420 1.289 . S
C431 O418 1.246 . S
C431 O421 1.257 . S
C432 O422 1.274 . S
C432 O423 1.251 . S
C433 O424 1.257 . S
C433 O425 1.245 . S
O434 Co405 2.286 . S
O434 C426 1.259 . S
O435 Co405 2.069 . S
O435 C426 1.289 . S
O436 Co407 2.148 . S
O436 C427 1.246 . S
O437 Co405 2.015 1_545 S
O437 C427 1.257 . S
H438 C450 0.930 . S
H439 C452 0.930 . S
H440 C453 0.930 . S
H441 C457 0.959 . S
H442 C457 0.959 . S
H443 C457 0.961 . S
H444 C458 0.960 . S
H445 C458 0.961 . S
H446 C458 0.959 . S
H447 C461 0.929 . S
H448 C462 0.931 . S
H449 C464 0.930 . S
C450 H438 0.930 . S
C450 C451 1.399 . S
C450 C455 1.399 . S
C451 C450 1.399 . S
C451 C452 1.376 . S
C452 H439 0.930 . S
C452 C451 1.376 . S
C452 C453 1.388 . S
C453 H440 0.930 . S
C453 C452 1.388 . S
C453 C454 1.390 . S
C454 C453 1.390 . S
C454 C455 1.394 . S
C454 C460 1.465 . S
C455 C450 1.399 . S
C455 C454 1.394 . S
C455 C456 1.516 . S
C456 C455 1.516 . S
C456 C457 1.502 . S
C456 C458 1.561 . S
C456 C459 1.526 . S
C457 H441 0.959 . S
C457 H442 0.959 . S
C457 H443 0.961 . S
C457 C456 1.502 . S
C458 H444 0.960 . S
C458 H445 0.961 . S
C458 H446 0.959 . S
C458 C456 1.561 . S
C459 C456 1.526 . S
C459 C460 1.396 . S
C459 C464 1.390 . S
C460 C454 1.465 . S
C460 C459 1.396 . S
C460 C461 1.399 . S
C461 H447 0.929 . S
C461 C460 1.399 . S
C461 C462 1.385 . S
C462 H448 0.931 . S
C462 C461 1.385 . S
C462 C463 1.389 . S
C463 C462 1.389 . S
C463 C464 1.387 . S
C464 H449 0.930 . S
C464 C459 1.390 . S
C464 C463 1.387 . S
H465 C477 0.930 . S
H466 C479 0.930 . S
H467 C480 0.930 . S
H468 C484 0.959 . S
H469 C484 0.959 . S
H470 C484 0.961 . S
H471 C485 0.960 . S
H472 C485 0.961 . S
H473 C485 0.959 . S
H474 C488 0.929 . S
H475 C489 0.931 . S
H476 C491 0.930 . S
C477 H465 0.930 . S
C477 C478 1.399 . S
C477 C482 1.399 . S
C478 C477 1.399 . S
C478 C479 1.376 . S
C479 H466 0.930 . S
C479 C478 1.376 . S
C479 C480 1.388 . S
C480 H467 0.930 . S
C480 C479 1.388 . S
C480 C481 1.390 . S
C481 C480 1.390 . S
C481 C482 1.394 . S
C481 C487 1.465 . S
C482 C477 1.399 . S
C482 C481 1.394 . S
C482 C483 1.516 . S
C483 C482 1.516 . S
C483 C484 1.502 . S
C483 C485 1.561 . S
C483 C486 1.526 . S
C484 H468 0.959 . S
C484 H469 0.959 . S
C484 H470 0.961 . S
C484 C483 1.502 . S
C485 H471 0.960 . S
C485 H472 0.961 . S
C485 H473 0.959 . S
C485 C483 1.561 . S
C486 C483 1.526 . S
C486 C487 1.396 . S
C486 C491 1.390 . S
C487 C481 1.465 . S
C487 C486 1.396 . S
C487 C488 1.399 . S
C488 H474 0.929 . S
C488 C487 1.399 . S
C488 C489 1.385 . S
C489 H475 0.931 . S
C489 C488 1.385 . S
C489 C490 1.389 . S
C490 C489 1.389 . S
C490 C491 1.387 . S
C491 H476 0.930 . S
C491 C486 1.390 . S
C491 C490 1.387 . S
H492 C504 0.930 . S
H493 C506 0.930 . S
H494 C507 0.930 . S
H495 C511 0.959 . S
H496 C511 0.959 . S
H497 C511 0.961 . S
H498 C512 0.960 . S
H499 C512 0.961 . S
H500 C512 0.959 . S
H501 C515 0.929 . S
H502 C516 0.931 . S
H503 C518 0.930 . S
C504 H492 0.930 . S
C504 C505 1.399 . S
C504 C509 1.399 . S
C505 C504 1.399 . S
C505 C506 1.376 . S
C506 H493 0.930 . S
C506 C505 1.376 . S
C506 C507 1.388 . S
C507 H494 0.930 . S
C507 C506 1.388 . S
C507 C508 1.390 . S
C508 C507 1.390 . S
C508 C509 1.394 . S
C508 C514 1.465 . S
C509 C504 1.399 . S
C509 C508 1.394 . S
C509 C510 1.516 . S
C510 C509 1.516 . S
C510 C511 1.502 . S
C510 C512 1.561 . S
C510 C513 1.526 . S
C511 H495 0.959 . S
C511 H496 0.959 . S
C511 H497 0.961 . S
C511 C510 1.502 . S
C512 H498 0.960 . S
C512 H499 0.961 . S
C512 H500 0.959 . S
C512 C510 1.561 . S
C513 C510 1.526 . S
C513 C514 1.396 . S
C513 C518 1.390 . S
C514 C508 1.465 . S
C514 C513 1.396 . S
C514 C515 1.399 . S
C515 H501 0.929 . S
C515 C514 1.399 . S
C515 C516 1.385 . S
C516 H502 0.931 . S
C516 C515 1.385 . S
C516 C517 1.389 . S
C517 C516 1.389 . S
C517 C518 1.387 . S
C518 H503 0.930 . S
C518 C513 1.390 . S
C518 C517 1.387 . S
H519 C531 0.930 . S
H520 C533 0.930 . S
H521 C534 0.930 . S
H522 C538 0.959 . S
H523 C538 0.959 . S
H524 C538 0.961 . S
H525 C539 0.960 . S
H526 C539 0.961 . S
H527 C539 0.959 . S
H528 C542 0.929 . S
H529 C543 0.931 . S
H530 C545 0.930 . S
C531 H519 0.930 . S
C531 C532 1.399 . S
C531 C536 1.399 . S
C532 C531 1.399 . S
C532 C533 1.376 . S
C533 H520 0.930 . S
C533 C532 1.376 . S
C533 C534 1.388 . S
C534 H521 0.930 . S
C534 C533 1.388 . S
C534 C535 1.390 . S
C535 C534 1.390 . S
C535 C536 1.394 . S
C535 C541 1.465 . S
C536 C531 1.399 . S
C536 C535 1.394 . S
C536 C537 1.516 . S
C537 C536 1.516 . S
C537 C538 1.502 . S
C537 C539 1.561 . S
C537 C540 1.526 . S
C538 H522 0.959 . S
C538 H523 0.959 . S
C538 H524 0.961 . S
C538 C537 1.502 . S
C539 H525 0.960 . S
C539 H526 0.961 . S
C539 H527 0.959 . S
C539 C537 1.561 . S
C540 C537 1.526 . S
C540 C541 1.396 . S
C540 C545 1.390 . S
C541 C535 1.465 . S
C541 C540 1.396 . S
C541 C542 1.399 . S
C542 H528 0.929 . S
C542 C541 1.399 . S
C542 C543 1.385 . S
C543 H529 0.931 . S
C543 C542 1.385 . S
C543 C544 1.389 . S
C544 C543 1.389 . S
C544 C545 1.387 . S
C545 H530 0.930 . S
C545 C540 1.390 . S
C545 C544 1.387 . S
H546 C558 0.930 . S
H547 C560 0.930 . S
H548 C561 0.930 . S
H549 C565 0.959 . S
H550 C565 0.959 . S
H551 C565 0.961 . S
H552 C566 0.960 . S
H553 C566 0.961 . S
H554 C566 0.959 . S
H555 C569 0.929 . S
H556 C570 0.931 . S
H557 C572 0.930 . S
C558 H546 0.930 . S
C558 C559 1.399 . S
C558 C563 1.399 . S
C559 C558 1.399 . S
C559 C560 1.376 . S
C560 H547 0.930 . S
C560 C559 1.376 . S
C560 C561 1.388 . S
C561 H548 0.930 . S
C561 C560 1.388 . S
C561 C562 1.390 . S
C562 C561 1.390 . S
C562 C563 1.394 . S
C562 C568 1.465 . S
C563 C558 1.399 . S
C563 C562 1.394 . S
C563 C564 1.516 . S
C564 C563 1.516 . S
C564 C565 1.502 . S
C564 C566 1.561 . S
C564 C567 1.526 . S
C565 H549 0.959 . S
C565 H550 0.959 . S
C565 H551 0.961 . S
C565 C564 1.502 . S
C566 H552 0.960 . S
C566 H553 0.961 . S
C566 H554 0.959 . S
C566 C564 1.561 . S
C567 C564 1.526 . S
C567 C568 1.396 . S
C567 C572 1.390 . S
C568 C562 1.465 . S
C568 C567 1.396 . S
C568 C569 1.399 . S
C569 H555 0.929 . S
C569 C568 1.399 . S
C569 C570 1.385 . S
C570 H556 0.931 . S
C570 C569 1.385 . S
C570 C571 1.389 . S
C571 C570 1.389 . S
C571 C572 1.387 . S
C572 H557 0.930 . S
C572 C567 1.390 . S
C572 C571 1.387 . S
H573 C585 0.930 . S
H574 C587 0.930 . S
H575 C588 0.930 . S
H576 C592 0.959 . S
H577 C592 0.959 . S
H578 C592 0.961 . S
H579 C593 0.960 . S
H580 C593 0.961 . S
H581 C593 0.959 . S
H582 C596 0.929 . S
H583 C597 0.931 . S
H584 C599 0.930 . S
C585 H573 0.930 . S
C585 C586 1.399 . S
C585 C590 1.399 . S
C586 C585 1.399 . S
C586 C587 1.376 . S
C587 H574 0.930 . S
C587 C586 1.376 . S
C587 C588 1.388 . S
C588 H575 0.930 . S
C588 C587 1.388 . S
C588 C589 1.390 . S
C589 C588 1.390 . S
C589 C590 1.394 . S
C589 C595 1.465 . S
C590 C585 1.399 . S
C590 C589 1.394 . S
C590 C591 1.516 . S
C591 C590 1.516 . S
C591 C592 1.502 . S
C591 C593 1.561 . S
C591 C594 1.526 . S
C592 H576 0.959 . S
C592 H577 0.959 . S
C592 H578 0.961 . S
C592 C591 1.502 . S
C593 H579 0.960 . S
C593 H580 0.961 . S
C593 H581 0.959 . S
C593 C591 1.561 . S
C594 C591 1.526 . S
C594 C595 1.396 . S
C594 C599 1.390 . S
C595 C589 1.465 . S
C595 C594 1.396 . S
C595 C596 1.399 . S
C596 H582 0.929 . S
C596 C595 1.399 . S
C596 C597 1.385 . S
C597 H583 0.931 . S
C597 C596 1.385 . S
C597 C598 1.389 . S
C598 C597 1.389 . S
C598 C599 1.387 . S
C599 H584 0.930 . S
C599 C594 1.390 . S
C599 C598 1.387 . S
H600 C612 0.930 . S
H601 C614 0.930 . S
H602 C615 0.930 . S
H603 C619 0.959 . S
H604 C619 0.959 . S
H605 C619 0.961 . S
H606 C620 0.960 . S
H607 C620 0.961 . S
H608 C620 0.959 . S
H609 C623 0.929 . S
H610 C624 0.931 . S
H611 C626 0.930 . S
C612 H600 0.930 . S
C612 C613 1.399 . S
C612 C617 1.399 . S
C613 C612 1.399 . S
C613 C614 1.376 . S
C614 H601 0.930 . S
C614 C613 1.376 . S
C614 C615 1.388 . S
C615 H602 0.930 . S
C615 C614 1.388 . S
C615 C616 1.390 . S
C616 C615 1.390 . S
C616 C617 1.394 . S
C616 C622 1.465 . S
C617 C612 1.399 . S
C617 C616 1.394 . S
C617 C618 1.516 . S
C618 C617 1.516 . S
C618 C619 1.502 . S
C618 C620 1.561 . S
C618 C621 1.526 . S
C619 H603 0.959 . S
C619 H604 0.959 . S
C619 H605 0.961 . S
C619 C618 1.502 . S
C620 H606 0.960 . S
C620 H607 0.961 . S
C620 H608 0.959 . S
C620 C618 1.561 . S
C621 C618 1.526 . S
C621 C622 1.396 . S
C621 C626 1.390 . S
C622 C616 1.465 . S
C622 C621 1.396 . S
C622 C623 1.399 . S
C623 H609 0.929 . S
C623 C622 1.399 . S
C623 C624 1.385 . S
C624 H610 0.931 . S
C624 C623 1.385 . S
C624 C625 1.389 . S
C625 C624 1.389 . S
C625 C626 1.387 . S
C626 H611 0.930 . S
C626 C621 1.390 . S
C626 C625 1.387 . S
H627 C639 0.930 . S
H628 C641 0.930 . S
H629 C642 0.930 . S
H630 C646 0.959 . S
H631 C646 0.959 . S
H632 C646 0.961 . S
H633 C647 0.960 . S
H634 C647 0.961 . S
H635 C647 0.959 . S
H636 C650 0.929 . S
H637 C651 0.931 . S
H638 C653 0.930 . S
C639 H627 0.930 . S
C639 C640 1.399 . S
C639 C644 1.399 . S
C640 C639 1.399 . S
C640 C641 1.376 . S
C641 H628 0.930 . S
C641 C640 1.376 . S
C641 C642 1.388 . S
C642 H629 0.930 . S
C642 C641 1.388 . S
C642 C643 1.390 . S
C643 C642 1.390 . S
C643 C644 1.394 . S
C643 C649 1.465 . S
C644 C639 1.399 . S
C644 C643 1.394 . S
C644 C645 1.516 . S
C645 C644 1.516 . S
C645 C646 1.502 . S
C645 C647 1.561 . S
C645 C648 1.526 . S
C646 H630 0.959 . S
C646 H631 0.959 . S
C646 H632 0.961 . S
C646 C645 1.502 . S
C647 H633 0.960 . S
C647 H634 0.961 . S
C647 H635 0.959 . S
C647 C645 1.561 . S
C648 C645 1.526 . S
C648 C649 1.396 . S
C648 C653 1.390 . S
C649 C643 1.465 . S
C649 C648 1.396 . S
C649 C650 1.399 . S
C650 H636 0.929 . S
C650 C649 1.399 . S
C650 C651 1.385 . S
C651 H637 0.931 . S
C651 C650 1.385 . S
C651 C652 1.389 . S
C652 C651 1.389 . S
C652 C653 1.387 . S
C653 H638 0.930 . S
C653 C648 1.390 . S
C653 C652 1.387 . S
H654 C666 0.930 . S
H655 C668 0.930 . S
H656 C669 0.930 . S
H657 C673 0.959 . S
H658 C673 0.959 . S
H659 C673 0.961 . S
H660 C674 0.960 . S
H661 C674 0.961 . S
H662 C674 0.959 . S
H663 C677 0.929 . S
H664 C678 0.931 . S
H665 C680 0.930 . S
C666 H654 0.930 . S
C666 C667 1.399 . S
C666 C671 1.399 . S
C667 C666 1.399 . S
C667 C668 1.376 . S
C668 H655 0.930 . S
C668 C667 1.376 . S
C668 C669 1.388 . S
C669 H656 0.930 . S
C669 C668 1.388 . S
C669 C670 1.390 . S
C670 C669 1.390 . S
C670 C671 1.394 . S
C670 C676 1.465 . S
C671 C666 1.399 . S
C671 C670 1.394 . S
C671 C672 1.516 . S
C672 C671 1.516 . S
C672 C673 1.502 . S
C672 C674 1.561 . S
C672 C675 1.526 . S
C673 H657 0.959 . S
C673 H658 0.959 . S
C673 H659 0.961 . S
C673 C672 1.502 . S
C674 H660 0.960 . S
C674 H661 0.961 . S
C674 H662 0.959 . S
C674 C672 1.561 . S
C675 C672 1.526 . S
C675 C676 1.396 . S
C675 C680 1.390 . S
C676 C670 1.465 . S
C676 C675 1.396 . S
C676 C677 1.399 . S
C677 H663 0.929 . S
C677 C676 1.399 . S
C677 C678 1.385 . S
C678 H664 0.931 . S
C678 C677 1.385 . S
C678 C679 1.389 . S
C679 C678 1.389 . S
C679 C680 1.387 . S
C680 H665 0.930 . S
C680 C675 1.390 . S
C680 C679 1.387 . S
H681 C693 0.930 . S
H682 C695 0.930 . S
H683 C696 0.930 . S
H684 C700 0.959 . S
H685 C700 0.959 . S
H686 C700 0.961 . S
H687 C701 0.960 1_556 S
H688 C701 0.961 1_556 S
H689 C701 0.959 . S
H690 C704 0.929 . S
H691 C705 0.931 . S
H692 C707 0.930 . S
C693 H681 0.930 . S
C693 C694 1.399 . S
C693 C698 1.399 . S
C694 C693 1.399 . S
C694 C695 1.376 . S
C695 H682 0.930 . S
C695 C694 1.376 . S
C695 C696 1.388 . S
C696 H683 0.930 . S
C696 C695 1.388 . S
C696 C697 1.390 . S
C697 C696 1.390 . S
C697 C698 1.394 . S
C697 C703 1.465 . S
C698 C693 1.399 . S
C698 C697 1.394 . S
C698 C699 1.516 . S
C699 C698 1.516 . S
C699 C700 1.502 . S
C699 C701 1.561 . S
C699 C702 1.526 . S
C700 H684 0.959 . S
C700 H685 0.959 . S
C700 H686 0.961 . S
C700 C699 1.502 . S
C701 H687 0.960 1_554 S
C701 H688 0.961 1_554 S
C701 H689 0.959 . S
C701 C699 1.561 . S
C702 C699 1.526 . S
C702 C703 1.396 . S
C702 C707 1.390 . S
C703 C697 1.465 . S
C703 C702 1.396 . S
C703 C704 1.399 . S
C704 H690 0.929 . S
C704 C703 1.399 . S
C704 C705 1.385 . S
C705 H691 0.931 . S
C705 C704 1.385 . S
C705 C706 1.389 . S
C706 C705 1.389 . S
C706 C707 1.387 . S
C707 H692 0.930 . S
C707 C702 1.390 . S
C707 C706 1.387 . S
H708 C720 0.930 . S
H709 C722 0.930 . S
H710 C723 0.930 . S
H711 C727 0.959 . S
H712 C727 0.959 . S
H713 C727 0.961 . S
H714 C728 0.960 . S
H715 C728 0.961 . S
H716 C728 0.959 . S
H717 C731 0.929 . S
H718 C732 0.931 1_556 S
H719 C734 0.930 . S
C720 H708 0.930 . S
C720 C721 1.399 . S
C720 C725 1.399 . S
C721 C720 1.399 . S
C721 C722 1.376 . S
C722 H709 0.930 . S
C722 C721 1.376 . S
C722 C723 1.388 . S
C723 H710 0.930 . S
C723 C722 1.388 . S
C723 C724 1.390 . S
C724 C723 1.390 . S
C724 C725 1.394 . S
C724 C730 1.465 . S
C725 C720 1.399 . S
C725 C724 1.394 . S
C725 C726 1.516 . S
C726 C725 1.516 . S
C726 C727 1.502 . S
C726 C728 1.561 . S
C726 C729 1.526 . S
C727 H711 0.959 . S
C727 H712 0.959 . S
C727 H713 0.961 . S
C727 C726 1.502 . S
C728 H714 0.960 . S
C728 H715 0.961 . S
C728 H716 0.959 . S
C728 C726 1.561 . S
C729 C726 1.526 . S
C729 C730 1.396 . S
C729 C734 1.390 . S
C730 C724 1.465 . S
C730 C729 1.396 . S
C730 C731 1.399 . S
C731 H717 0.929 . S
C731 C730 1.399 . S
C731 C732 1.385 . S
C732 H718 0.931 1_554 S
C732 C731 1.385 . S
C732 C733 1.389 . S
C733 C732 1.389 . S
C733 C734 1.387 . S
C734 H719 0.930 . S
C734 C729 1.390 . S
C734 C733 1.387 . S
H735 C747 0.930 . S
H736 C749 0.930 . S
H737 C750 0.930 . S
H738 C754 0.959 . S
H739 C754 0.959 . S
H740 C754 0.961 . S
H741 C755 0.960 . S
H742 C755 0.961 . S
H743 C755 0.959 . S
H744 C758 0.929 . S
H745 C759 0.931 . S
H746 C761 0.930 . S
C747 H735 0.930 . S
C747 C748 1.399 . S
C747 C752 1.399 . S
C748 C747 1.399 . S
C748 C749 1.376 . S
C749 H736 0.930 . S
C749 C748 1.376 . S
C749 C750 1.388 . S
C750 H737 0.930 . S
C750 C749 1.388 . S
C750 C751 1.390 . S
C751 C750 1.390 . S
C751 C752 1.394 . S
C751 C757 1.465 . S
C752 C747 1.399 . S
C752 C751 1.394 . S
C752 C753 1.516 . S
C753 C752 1.516 . S
C753 C754 1.502 . S
C753 C755 1.561 . S
C753 C756 1.526 . S
C754 H738 0.959 . S
C754 H739 0.959 . S
C754 H740 0.961 . S
C754 C753 1.502 . S
C755 H741 0.960 . S
C755 H742 0.961 . S
C755 H743 0.959 . S
C755 C753 1.561 . S
C756 C753 1.526 . S
C756 C757 1.396 . S
C756 C761 1.390 . S
C757 C751 1.465 . S
C757 C756 1.396 . S
C757 C758 1.399 . S
C758 H744 0.929 . S
C758 C757 1.399 . S
C758 C759 1.385 . S
C759 H745 0.931 . S
C759 C758 1.385 . S
C759 C760 1.389 . S
C760 C759 1.389 . S
C760 C761 1.387 . S
C761 H746 0.930 . S
C761 C756 1.390 . S
C761 C760 1.387 . S
H762 C774 0.930 . S
H763 C776 0.930 . S
H764 C777 0.930 . S
H765 C781 0.959 . S
H766 C781 0.959 . S
H767 C781 0.961 . S
H768 C782 0.960 . S
H769 C782 0.961 . S
H770 C782 0.959 . S
H771 C785 0.929 . S
H772 C786 0.931 . S
H773 C788 0.930 . S
C774 H762 0.930 . S
C774 C775 1.399 . S
C774 C779 1.399 . S
C775 C774 1.399 . S
C775 C776 1.376 . S
C776 H763 0.930 . S
C776 C775 1.376 . S
C776 C777 1.388 . S
C777 H764 0.930 . S
C777 C776 1.388 . S
C777 C778 1.390 . S
C778 C777 1.390 . S
C778 C779 1.394 . S
C778 C784 1.465 . S
C779 C774 1.399 . S
C779 C778 1.394 . S
C779 C780 1.516 . S
C780 C779 1.516 . S
C780 C781 1.502 . S
C780 C782 1.561 . S
C780 C783 1.526 . S
C781 H765 0.959 . S
C781 H766 0.959 . S
C781 H767 0.961 . S
C781 C780 1.502 . S
C782 H768 0.960 . S
C782 H769 0.961 . S
C782 H770 0.959 . S
C782 C780 1.561 . S
C783 C780 1.526 . S
C783 C784 1.396 . S
C783 C788 1.390 . S
C784 C778 1.465 . S
C784 C783 1.396 . S
C784 C785 1.399 . S
C785 H771 0.929 . S
C785 C784 1.399 . S
C785 C786 1.385 . S
C786 H772 0.931 . S
C786 C785 1.385 . S
C786 C787 1.389 . S
C787 C786 1.389 . S
C787 C788 1.387 . S
C788 H773 0.930 . S
C788 C783 1.390 . S
C788 C787 1.387 . S
H789 C801 0.930 . S
H790 C803 0.930 . S
H791 C804 0.930 . S
H792 C808 0.959 . S
H793 C808 0.959 . S
H794 C808 0.961 . S
H795 C809 0.960 . S
H796 C809 0.961 . S
H797 C809 0.959 . S
H798 C812 0.929 . S
H799 C813 0.931 . S
H800 C815 0.930 . S
C801 H789 0.930 . S
C801 C802 1.399 . S
C801 C806 1.399 . S
C802 C801 1.399 . S
C802 C803 1.376 . S
C803 H790 0.930 . S
C803 C802 1.376 . S
C803 C804 1.388 . S
C804 H791 0.930 . S
C804 C803 1.388 . S
C804 C805 1.390 . S
C805 C804 1.390 . S
C805 C806 1.394 . S
C805 C811 1.465 . S
C806 C801 1.399 . S
C806 C805 1.394 . S
C806 C807 1.516 . S
C807 C806 1.516 . S
C807 C808 1.502 . S
C807 C809 1.561 . S
C807 C810 1.526 . S
C808 H792 0.959 . S
C808 H793 0.959 . S
C808 H794 0.961 . S
C808 C807 1.502 . S
C809 H795 0.960 . S
C809 H796 0.961 . S
C809 H797 0.959 . S
C809 C807 1.561 . S
C810 C807 1.526 . S
C810 C811 1.396 . S
C810 C815 1.390 . S
C811 C805 1.465 . S
C811 C810 1.396 . S
C811 C812 1.399 . S
C812 H798 0.929 . S
C812 C811 1.399 . S
C812 C813 1.385 . S
C813 H799 0.931 . S
C813 C812 1.385 . S
C813 C814 1.389 . S
C814 C813 1.389 . S
C814 C815 1.387 . S
C815 H800 0.930 . S
C815 C810 1.390 . S
C815 C814 1.387 . S
H816 C828 0.930 . S
H817 C830 0.930 . S
H818 C831 0.930 . S
H819 C835 0.959 . S
H820 C835 0.959 . S
H821 C835 0.961 . S
H822 C836 0.960 . S
H823 C836 0.961 . S
H824 C836 0.959 . S
H825 C839 0.929 . S
H826 C840 0.931 1_554 S
H827 C842 0.930 . S
C828 H816 0.930 . S
C828 C829 1.399 . S
C828 C833 1.399 . S
C829 C828 1.399 . S
C829 C830 1.376 . S
C830 H817 0.930 . S
C830 C829 1.376 . S
C830 C831 1.388 . S
C831 H818 0.930 . S
C831 C830 1.388 . S
C831 C832 1.390 . S
C832 C831 1.390 . S
C832 C833 1.394 . S
C832 C838 1.465 . S
C833 C828 1.399 . S
C833 C832 1.394 . S
C833 C834 1.516 . S
C834 C833 1.516 . S
C834 C835 1.502 . S
C834 C836 1.561 . S
C834 C837 1.526 . S
C835 H819 0.959 . S
C835 H820 0.959 . S
C835 H821 0.961 . S
C835 C834 1.502 . S
C836 H822 0.960 . S
C836 H823 0.961 . S
C836 H824 0.959 . S
C836 C834 1.561 . S
C837 C834 1.526 . S
C837 C838 1.396 . S
C837 C842 1.390 . S
C838 C832 1.465 . S
C838 C837 1.396 . S
C838 C839 1.399 . S
C839 H825 0.929 . S
C839 C838 1.399 . S
C839 C840 1.385 . S
C840 H826 0.931 1_556 S
C840 C839 1.385 . S
C840 C841 1.389 . S
C841 C840 1.389 . S
C841 C842 1.387 . S
C842 H827 0.930 . S
C842 C837 1.390 . S
C842 C841 1.387 . S
H843 C855 0.930 . S
H844 C857 0.930 . S
H845 C858 0.930 . S
H846 C862 0.959 . S
H847 C862 0.959 . S
H848 C862 0.961 . S
H849 C863 0.960 . S
H850 C863 0.961 . S
H851 C863 0.959 . S
H852 C866 0.929 . S
H853 C867 0.931 . S
H854 C869 0.930 . S
C855 H843 0.930 . S
C855 C856 1.399 . S
C855 C860 1.399 . S
C856 C855 1.399 . S
C856 C857 1.376 . S
C857 H844 0.930 . S
C857 C856 1.376 . S
C857 C858 1.388 . S
C858 H845 0.930 . S
C858 C857 1.388 . S
C858 C859 1.390 . S
C859 C858 1.390 . S
C859 C860 1.394 . S
C859 C865 1.465 . S
C860 C855 1.399 . S
C860 C859 1.394 . S
C860 C861 1.516 . S
C861 C860 1.516 . S
C861 C862 1.502 . S
C861 C863 1.561 . S
C861 C864 1.526 . S
C862 H846 0.959 . S
C862 H847 0.959 . S
C862 H848 0.961 . S
C862 C861 1.502 . S
C863 H849 0.960 . S
C863 H850 0.961 . S
C863 H851 0.959 . S
C863 C861 1.561 . S
C864 C861 1.526 . S
C864 C865 1.396 . S
C864 C869 1.390 . S
C865 C859 1.465 . S
C865 C864 1.396 . S
C865 C866 1.399 . S
C866 H852 0.929 . S
C866 C865 1.399 . S
C866 C867 1.385 . S
C867 H853 0.931 . S
C867 C866 1.385 . S
C867 C868 1.389 . S
C868 C867 1.389 . S
C868 C869 1.387 . S
C869 H854 0.930 . S
C869 C864 1.390 . S
C869 C868 1.387 . S
H870 C882 0.930 . S
H871 C884 0.930 . S
H872 C885 0.930 . S
H873 C889 0.959 . S
H874 C889 0.959 . S
H875 C889 0.961 . S
H876 C890 0.960 . S
H877 C890 0.961 . S
H878 C890 0.959 . S
H879 C893 0.929 . S
H880 C894 0.931 . S
H881 C896 0.930 . S
C882 H870 0.930 . S
C882 C883 1.399 . S
C882 C887 1.399 . S
C883 C882 1.399 . S
C883 C884 1.376 . S
C884 H871 0.930 . S
C884 C883 1.376 . S
C884 C885 1.388 . S
C885 H872 0.930 . S
C885 C884 1.388 . S
C885 C886 1.390 . S
C886 C885 1.390 . S
C886 C887 1.394 . S
C886 C892 1.465 . S
C887 C882 1.399 . S
C887 C886 1.394 . S
C887 C888 1.516 . S
C888 C887 1.516 . S
C888 C889 1.502 . S
C888 C890 1.561 . S
C888 C891 1.526 . S
C889 H873 0.959 . S
C889 H874 0.959 . S
C889 H875 0.961 . S
C889 C888 1.502 . S
C890 H876 0.960 . S
C890 H877 0.961 . S
C890 H878 0.959 . S
C890 C888 1.561 . S
C891 C888 1.526 . S
C891 C892 1.396 . S
C891 C896 1.390 . S
C892 C886 1.465 . S
C892 C891 1.396 . S
C892 C893 1.399 . S
C893 H879 0.929 . S
C893 C892 1.399 . S
C893 C894 1.385 . S
C894 H880 0.931 . S
C894 C893 1.385 . S
C894 C895 1.389 . S
C895 C894 1.389 . S
C895 C896 1.387 . S
C896 H881 0.930 . S
C896 C891 1.390 . S
C896 C895 1.387 . S
H897 C909 0.930 . S
H898 C911 0.930 . S
H899 C912 0.930 . S
H900 C916 0.959 . S
H901 C916 0.959 . S
H902 C916 0.961 . S
H903 C917 0.960 . S
H904 C917 0.961 . S
H905 C917 0.959 . S
H906 C920 0.929 1_554 S
H907 C921 0.931 1_554 S
H908 C923 0.930 . S
C909 H897 0.930 . S
C909 C910 1.399 . S
C909 C914 1.399 . S
C910 C909 1.399 . S
C910 C911 1.376 . S
C911 H898 0.930 . S
C911 C910 1.376 . S
C911 C912 1.388 . S
C912 H899 0.930 . S
C912 C911 1.388 . S
C912 C913 1.390 . S
C913 C912 1.390 . S
C913 C914 1.394 . S
C913 C919 1.465 . S
C914 C909 1.399 . S
C914 C913 1.394 . S
C914 C915 1.516 . S
C915 C914 1.516 . S
C915 C916 1.502 . S
C915 C917 1.561 . S
C915 C918 1.526 . S
C916 H900 0.959 . S
C916 H901 0.959 . S
C916 H902 0.961 . S
C916 C915 1.502 . S
C917 H903 0.960 . S
C917 H904 0.961 . S
C917 H905 0.959 . S
C917 C915 1.561 . S
C918 C915 1.526 . S
C918 C919 1.396 . S
C918 C923 1.390 . S
C919 C913 1.465 . S
C919 C918 1.396 . S
C919 C920 1.399 . S
C920 H906 0.929 1_556 S
C920 C919 1.399 . S
C920 C921 1.385 . S
C921 H907 0.931 1_556 S
C921 C920 1.385 . S
C921 C922 1.389 . S
C922 C921 1.389 . S
C922 C923 1.387 . S
C923 H908 0.930 . S
C923 C918 1.390 . S
C923 C922 1.387 . S
H924 C936 0.930 . S
H925 C938 0.930 . S
H926 C939 0.930 . S
H927 C943 0.959 . S
H928 C943 0.959 . S
H929 C943 0.961 . S
H930 C944 0.960 . S
H931 C944 0.961 . S
H932 C944 0.959 . S
H933 C947 0.929 . S
H934 C948 0.931 1_554 S
H935 C950 0.930 . S
C936 H924 0.930 . S
C936 C937 1.399 . S
C936 C941 1.399 . S
C937 C936 1.399 . S
C937 C938 1.376 . S
C938 H925 0.930 . S
C938 C937 1.376 . S
C938 C939 1.388 . S
C939 H926 0.930 . S
C939 C938 1.388 . S
C939 C940 1.390 . S
C940 C939 1.390 . S
C940 C941 1.394 . S
C940 C946 1.465 . S
C941 C936 1.399 . S
C941 C940 1.394 . S
C941 C942 1.516 . S
C942 C941 1.516 . S
C942 C943 1.502 . S
C942 C944 1.561 . S
C942 C945 1.526 . S
C943 H927 0.959 . S
C943 H928 0.959 . S
C943 H929 0.961 . S
C943 C942 1.502 . S
C944 H930 0.960 . S
C944 H931 0.961 . S
C944 H932 0.959 . S
C944 C942 1.561 . S
C945 C942 1.526 . S
C945 C946 1.396 . S
C945 C950 1.390 . S
C946 C940 1.465 . S
C946 C945 1.396 . S
C946 C947 1.399 . S
C947 H933 0.929 . S
C947 C946 1.399 . S
C947 C948 1.385 . S
C948 H934 0.931 1_556 S
C948 C947 1.385 . S
C948 C949 1.389 . S
C949 C948 1.389 . S
C949 C950 1.387 . S
C950 H935 0.930 . S
C950 C945 1.390 . S
C950 C949 1.387 . S
H951 C963 0.930 . S
H952 C965 0.930 . S
H953 C966 0.930 . S
H954 C970 0.959 . S
H955 C970 0.959 . S
H956 C970 0.961 . S
H957 C971 0.960 . S
H958 C971 0.961 . S
H959 C971 0.959 . S
H960 C974 0.929 . S
H961 C975 0.931 . S
H962 C977 0.930 . S
C963 H951 0.930 . S
C963 C964 1.399 . S
C963 C968 1.399 . S
C964 C963 1.399 . S
C964 C965 1.376 . S
C965 H952 0.930 . S
C965 C964 1.376 . S
C965 C966 1.388 . S
C966 H953 0.930 . S
C966 C965 1.388 . S
C966 C967 1.390 . S
C967 C966 1.390 . S
C967 C968 1.394 . S
C967 C973 1.465 . S
C968 C963 1.399 . S
C968 C967 1.394 . S
C968 C969 1.516 . S
C969 C968 1.516 . S
C969 C970 1.502 . S
C969 C971 1.561 . S
C969 C972 1.526 . S
C970 H954 0.959 . S
C970 H955 0.959 . S
C970 H956 0.961 . S
C970 C969 1.502 . S
C971 H957 0.960 . S
C971 H958 0.961 . S
C971 H959 0.959 . S
C971 C969 1.561 . S
C972 C969 1.526 . S
C972 C973 1.396 . S
C972 C977 1.390 . S
C973 C967 1.465 . S
C973 C972 1.396 . S
C973 C974 1.399 . S
C974 H960 0.929 . S
C974 C973 1.399 . S
C974 C975 1.385 . S
C975 H961 0.931 . S
C975 C974 1.385 . S
C975 C976 1.389 . S
C976 C975 1.389 . S
C976 C977 1.387 . S
C977 H962 0.930 . S
C977 C972 1.390 . S
C977 C976 1.387 . S
H978 C990 0.930 . S
H979 C992 0.930 . S
H980 C993 0.930 . S
H981 C997 0.959 . S
H982 C997 0.959 . S
H983 C997 0.961 . S
H984 C998 0.960 . S
H985 C998 0.961 . S
H986 C998 0.959 . S
H987 C1001 0.929 . S
H988 C1002 0.931 . S
H989 C1004 0.930 . S
C990 H978 0.930 . S
C990 C991 1.399 . S
C990 C995 1.399 . S
C991 C990 1.399 . S
C991 C992 1.376 . S
C992 H979 0.930 . S
C992 C991 1.376 . S
C992 C993 1.388 . S
C993 H980 0.930 . S
C993 C992 1.388 . S
C993 C994 1.390 . S
C994 C993 1.390 . S
C994 C995 1.394 . S
C994 C1000 1.465 . S
C995 C990 1.399 . S
C995 C994 1.394 . S
C995 C996 1.516 . S
C996 C995 1.516 . S
C996 C997 1.502 . S
C996 C998 1.561 . S
C996 C999 1.526 . S
C997 H981 0.959 . S
C997 H982 0.959 . S
C997 H983 0.961 . S
C997 C996 1.502 . S
C998 H984 0.960 . S
C998 H985 0.961 . S
C998 H986 0.959 . S
C998 C996 1.561 . S
C999 C996 1.526 . S
C999 C1000 1.396 . S
C999 C1004 1.390 . S
C1000 C994 1.465 . S
C1000 C999 1.396 . S
C1000 C1001 1.399 . S
C1001 H987 0.929 . S
C1001 C1000 1.399 . S
C1001 C1002 1.385 . S
C1002 H988 0.931 . S
C1002 C1001 1.385 . S
C1002 C1003 1.389 . S
C1003 C1002 1.389 . S
C1003 C1004 1.387 . S
C1004 H989 0.930 . S
C1004 C999 1.390 . S
C1004 C1003 1.387 . S
H1005 C1017 0.930 . S
H1006 C1019 0.930 . S
H1007 C1020 0.930 . S
H1008 C1024 0.959 . S
H1009 C1024 0.959 . S
H1010 C1024 0.961 . S
H1011 C1025 0.960 . S
H1012 C1025 0.961 . S
H1013 C1025 0.959 . S
H1014 C1028 0.929 . S
H1015 C1029 0.931 . S
H1016 C1031 0.930 . S
C1017 H1005 0.930 . S
C1017 C1018 1.399 . S
C1017 C1022 1.399 . S
C1018 C1017 1.399 . S
C1018 C1019 1.376 . S
C1019 H1006 0.930 . S
C1019 C1018 1.376 . S
C1019 C1020 1.388 . S
C1020 H1007 0.930 . S
C1020 C1019 1.388 . S
C1020 C1021 1.390 . S
C1021 C1020 1.390 . S
C1021 C1022 1.394 . S
C1021 C1027 1.465 . S
C1022 C1017 1.399 . S
C1022 C1021 1.394 . S
C1022 C1023 1.516 . S
C1023 C1022 1.516 . S
C1023 C1024 1.502 . S
C1023 C1025 1.561 . S
C1023 C1026 1.526 . S
C1024 H1008 0.959 . S
C1024 H1009 0.959 . S
C1024 H1010 0.961 . S
C1024 C1023 1.502 . S
C1025 H1011 0.960 . S
C1025 H1012 0.961 . S
C1025 H1013 0.959 . S
C1025 C1023 1.561 . S
C1026 C1023 1.526 . S
C1026 C1027 1.396 . S
C1026 C1031 1.390 . S
C1027 C1021 1.465 . S
C1027 C1026 1.396 . S
C1027 C1028 1.399 . S
C1028 H1014 0.929 . S
C1028 C1027 1.399 . S
C1028 C1029 1.385 . S
C1029 H1015 0.931 . S
C1029 C1028 1.385 . S
C1029 C1030 1.389 . S
C1030 C1029 1.389 . S
C1030 C1031 1.387 . S
C1031 H1016 0.930 . S
C1031 C1026 1.390 . S
C1031 C1030 1.387 . S
H1032 C1044 0.930 . S
H1033 C1046 0.930 . S
H1034 C1047 0.930 . S
H1035 C1051 0.959 . S
H1036 C1051 0.959 . S
H1037 C1051 0.961 . S
H1038 C1052 0.960 . S
H1039 C1052 0.961 . S
H1040 C1052 0.959 . S
H1041 C1055 0.929 . S
H1042 C1056 0.931 . S
H1043 C1058 0.930 . S
C1044 H1032 0.930 . S
C1044 C1045 1.399 . S
C1044 C1049 1.399 . S
C1045 C1044 1.399 . S
C1045 C1046 1.376 . S
C1046 H1033 0.930 . S
C1046 C1045 1.376 . S
C1046 C1047 1.388 . S
C1047 H1034 0.930 . S
C1047 C1046 1.388 . S
C1047 C1048 1.390 . S
C1048 C1047 1.390 . S
C1048 C1049 1.394 . S
C1048 C1054 1.465 . S
C1049 C1044 1.399 . S
C1049 C1048 1.394 . S
C1049 C1050 1.516 . S
C1050 C1049 1.516 . S
C1050 C1051 1.502 . S
C1050 C1052 1.561 . S
C1050 C1053 1.526 . S
C1051 H1035 0.959 . S
C1051 H1036 0.959 . S
C1051 H1037 0.961 . S
C1051 C1050 1.502 . S
C1052 H1038 0.960 . S
C1052 H1039 0.961 . S
C1052 H1040 0.959 . S
C1052 C1050 1.561 . S
C1053 C1050 1.526 . S
C1053 C1054 1.396 . S
C1053 C1058 1.390 . S
C1054 C1048 1.465 . S
C1054 C1053 1.396 . S
C1054 C1055 1.399 . S
C1055 H1041 0.929 . S
C1055 C1054 1.399 . S
C1055 C1056 1.385 . S
C1056 H1042 0.931 . S
C1056 C1055 1.385 . S
C1056 C1057 1.389 . S
C1057 C1056 1.389 . S
C1057 C1058 1.387 . S
C1058 H1043 0.930 . S
C1058 C1053 1.390 . S
C1058 C1057 1.387 . S
H1059 C1071 0.930 . S
H1060 C1073 0.930 . S
H1061 C1074 0.930 . S
H1062 C1078 0.959 . S
H1063 C1078 0.959 . S
H1064 C1078 0.961 . S
H1065 C1079 0.960 . S
H1066 C1079 0.961 . S
H1067 C1079 0.959 . S
H1068 C1082 0.929 . S
H1069 C1083 0.931 . S
H1070 C1085 0.930 . S
C1071 H1059 0.930 . S
C1071 C1072 1.399 . S
C1071 C1076 1.399 . S
C1072 C1071 1.399 . S
C1072 C1073 1.376 . S
C1073 H1060 0.930 . S
C1073 C1072 1.376 . S
C1073 C1074 1.388 . S
C1074 H1061 0.930 . S
C1074 C1073 1.388 . S
C1074 C1075 1.390 . S
C1075 C1074 1.390 . S
C1075 C1076 1.394 . S
C1075 C1081 1.465 . S
C1076 C1071 1.399 . S
C1076 C1075 1.394 . S
C1076 C1077 1.516 . S
C1077 C1076 1.516 . S
C1077 C1078 1.502 . S
C1077 C1079 1.561 . S
C1077 C1080 1.526 . S
C1078 H1062 0.959 . S
C1078 H1063 0.959 . S
C1078 H1064 0.961 . S
C1078 C1077 1.502 . S
C1079 H1065 0.960 . S
C1079 H1066 0.961 . S
C1079 H1067 0.959 . S
C1079 C1077 1.561 . S
C1080 C1077 1.526 . S
C1080 C1081 1.396 . S
C1080 C1085 1.390 . S
C1081 C1075 1.465 . S
C1081 C1080 1.396 . S
C1081 C1082 1.399 . S
C1082 H1068 0.929 . S
C1082 C1081 1.399 . S
C1082 C1083 1.385 . S
C1083 H1069 0.931 . S
C1083 C1082 1.385 . S
C1083 C1084 1.389 . S
C1084 C1083 1.389 . S
C1084 C1085 1.387 . S
C1085 H1070 0.930 . S
C1085 C1080 1.390 . S
C1085 C1084 1.387 . S
H1086 C1098 0.930 . S
H1087 C1100 0.930 . S
H1088 C1101 0.930 . S
H1089 C1105 0.959 . S
H1090 C1105 0.959 . S
H1091 C1105 0.961 . S
H1092 C1106 0.960 . S
H1093 C1106 0.961 . S
H1094 C1106 0.959 . S
H1095 C1109 0.929 . S
H1096 C1110 0.931 1_554 S
H1097 C1112 0.930 . S
C1098 H1086 0.930 . S
C1098 C1099 1.399 . S
C1098 C1103 1.399 . S
C1099 C1098 1.399 . S
C1099 C1100 1.376 . S
C1100 H1087 0.930 . S
C1100 C1099 1.376 . S
C1100 C1101 1.388 . S
C1101 H1088 0.930 . S
C1101 C1100 1.388 . S
C1101 C1102 1.390 . S
C1102 C1101 1.390 . S
C1102 C1103 1.394 . S
C1102 C1108 1.465 . S
C1103 C1098 1.399 . S
C1103 C1102 1.394 . S
C1103 C1104 1.516 . S
C1104 C1103 1.516 . S
C1104 C1105 1.502 . S
C1104 C1106 1.561 . S
C1104 C1107 1.526 . S
C1105 H1089 0.959 . S
C1105 H1090 0.959 . S
C1105 H1091 0.961 . S
C1105 C1104 1.502 . S
C1106 H1092 0.960 . S
C1106 H1093 0.961 . S
C1106 H1094 0.959 . S
C1106 C1104 1.561 . S
C1107 C1104 1.526 . S
C1107 C1108 1.396 . S
C1107 C1112 1.390 . S
C1108 C1102 1.465 . S
C1108 C1107 1.396 . S
C1108 C1109 1.399 . S
C1109 H1095 0.929 . S
C1109 C1108 1.399 . S
C1109 C1110 1.385 . S
C1110 H1096 0.931 1_556 S
C1110 C1109 1.385 . S
C1110 C1111 1.389 . S
C1111 C1110 1.389 . S
C1111 C1112 1.387 . S
C1112 H1097 0.930 . S
C1112 C1107 1.390 . S
C1112 C1111 1.387 . S
H1113 C1125 0.930 . S
H1114 C1127 0.930 . S
H1115 C1128 0.930 . S
H1116 C1132 0.959 . S
H1117 C1132 0.959 . S
H1118 C1132 0.961 . S
H1119 C1133 0.960 . S
H1120 C1133 0.961 . S
H1121 C1133 0.959 . S
H1122 C1136 0.929 . S
H1123 C1137 0.931 . S
H1124 C1139 0.930 . S
C1125 H1113 0.930 . S
C1125 C1126 1.399 . S
C1125 C1130 1.399 . S
C1126 C1125 1.399 . S
C1126 C1127 1.376 . S
C1127 H1114 0.930 . S
C1127 C1126 1.376 . S
C1127 C1128 1.388 . S
C1128 H1115 0.930 . S
C1128 C1127 1.388 . S
C1128 C1129 1.390 . S
C1129 C1128 1.390 . S
C1129 C1130 1.394 . S
C1129 C1135 1.465 . S
C1130 C1125 1.399 . S
C1130 C1129 1.394 . S
C1130 C1131 1.516 . S
C1131 C1130 1.516 . S
C1131 C1132 1.502 . S
C1131 C1133 1.561 . S
C1131 C1134 1.526 . S
C1132 H1116 0.959 . S
C1132 H1117 0.959 . S
C1132 H1118 0.961 . S
C1132 C1131 1.502 . S
C1133 H1119 0.960 . S
C1133 H1120 0.961 . S
C1133 H1121 0.959 . S
C1133 C1131 1.561 . S
C1134 C1131 1.526 . S
C1134 C1135 1.396 . S
C1134 C1139 1.390 . S
C1135 C1129 1.465 . S
C1135 C1134 1.396 . S
C1135 C1136 1.399 . S
C1136 H1122 0.929 . S
C1136 C1135 1.399 . S
C1136 C1137 1.385 . S
C1137 H1123 0.931 . S
C1137 C1136 1.385 . S
C1137 C1138 1.389 . S
C1138 C1137 1.389 . S
C1138 C1139 1.387 . S
C1139 H1124 0.930 . S
C1139 C1134 1.390 . S
C1139 C1138 1.387 . S
H1140 C1152 0.930 . S
H1141 C1154 0.930 . S
H1142 C1155 0.930 . S
H1143 C1159 0.959 . S
H1144 C1159 0.959 . S
H1145 C1159 0.961 . S
H1146 C1160 0.960 . S
H1147 C1160 0.961 . S
H1148 C1160 0.959 . S
H1149 C1163 0.929 . S
H1150 C1164 0.931 . S
H1151 C1166 0.930 . S
C1152 H1140 0.930 . S
C1152 C1153 1.399 . S
C1152 C1157 1.399 . S
C1153 C1152 1.399 . S
C1153 C1154 1.376 . S
C1154 H1141 0.930 . S
C1154 C1153 1.376 . S
C1154 C1155 1.388 . S
C1155 H1142 0.930 . S
C1155 C1154 1.388 . S
C1155 C1156 1.390 . S
C1156 C1155 1.390 . S
C1156 C1157 1.394 . S
C1156 C1162 1.465 . S
C1157 C1152 1.399 . S
C1157 C1156 1.394 . S
C1157 C1158 1.516 . S
C1158 C1157 1.516 . S
C1158 C1159 1.502 . S
C1158 C1160 1.561 . S
C1158 C1161 1.526 . S
C1159 H1143 0.959 . S
C1159 H1144 0.959 . S
C1159 H1145 0.961 . S
C1159 C1158 1.502 . S
C1160 H1146 0.960 . S
C1160 H1147 0.961 . S
C1160 H1148 0.959 . S
C1160 C1158 1.561 . S
C1161 C1158 1.526 . S
C1161 C1162 1.396 . S
C1161 C1166 1.390 . S
C1162 C1156 1.465 . S
C1162 C1161 1.396 . S
C1162 C1163 1.399 . S
C1163 H1149 0.929 . S
C1163 C1162 1.399 . S
C1163 C1164 1.385 . S
C1164 H1150 0.931 . S
C1164 C1163 1.385 . S
C1164 C1165 1.389 . S
C1165 C1164 1.389 . S
C1165 C1166 1.387 . S
C1166 H1151 0.930 . S
C1166 C1161 1.390 . S
C1166 C1165 1.387 . S
H1167 C1179 0.930 . S
H1168 C1181 0.930 . S
H1169 C1182 0.930 . S
H1170 C1186 0.959 . S
H1171 C1186 0.959 . S
H1172 C1186 0.961 . S
H1173 C1187 0.960 . S
H1174 C1187 0.961 . S
H1175 C1187 0.959 . S
H1176 C1190 0.929 . S
H1177 C1191 0.931 . S
H1178 C1193 0.930 . S
C1179 H1167 0.930 . S
C1179 C1180 1.399 . S
C1179 C1184 1.399 . S
C1180 C1179 1.399 . S
C1180 C1181 1.376 . S
C1181 H1168 0.930 . S
C1181 C1180 1.376 . S
C1181 C1182 1.388 . S
C1182 H1169 0.930 . S
C1182 C1181 1.388 . S
C1182 C1183 1.390 . S
C1183 C1182 1.390 . S
C1183 C1184 1.394 . S
C1183 C1189 1.465 . S
C1184 C1179 1.399 . S
C1184 C1183 1.394 . S
C1184 C1185 1.516 . S
C1185 C1184 1.516 . S
C1185 C1186 1.502 . S
C1185 C1187 1.561 . S
C1185 C1188 1.526 . S
C1186 H1170 0.959 . S
C1186 H1171 0.959 . S
C1186 H1172 0.961 . S
C1186 C1185 1.502 . S
C1187 H1173 0.960 . S
C1187 H1174 0.961 . S
C1187 H1175 0.959 . S
C1187 C1185 1.561 . S
C1188 C1185 1.526 . S
C1188 C1189 1.396 . S
C1188 C1193 1.390 . S
C1189 C1183 1.465 . S
C1189 C1188 1.396 . S
C1189 C1190 1.399 . S
C1190 H1176 0.929 . S
C1190 C1189 1.399 . S
C1190 C1191 1.385 . S
C1191 H1177 0.931 . S
C1191 C1190 1.385 . S
C1191 C1192 1.389 . S
C1192 C1191 1.389 . S
C1192 C1193 1.387 . S
C1193 H1178 0.930 . S
C1193 C1188 1.390 . S
C1193 C1192 1.387 . S
H1194 C1206 0.930 . S
H1195 C1208 0.930 . S
H1196 C1209 0.930 . S
H1197 C1213 0.959 . S
H1198 C1213 0.959 . S
H1199 C1213 0.961 . S
H1200 C1214 0.960 . S
H1201 C1214 0.961 . S
H1202 C1214 0.959 . S
H1203 C1217 0.929 . S
H1204 C1218 0.931 . S
H1205 C1220 0.930 . S
C1206 H1194 0.930 . S
C1206 C1207 1.399 . S
C1206 C1211 1.399 . S
C1207 C1206 1.399 . S
C1207 C1208 1.376 . S
C1208 H1195 0.930 . S
C1208 C1207 1.376 . S
C1208 C1209 1.388 . S
C1209 H1196 0.930 . S
C1209 C1208 1.388 . S
C1209 C1210 1.390 . S
C1210 C1209 1.390 . S
C1210 C1211 1.394 . S
C1210 C1216 1.465 . S
C1211 C1206 1.399 . S
C1211 C1210 1.394 . S
C1211 C1212 1.516 . S
C1212 C1211 1.516 . S
C1212 C1213 1.502 . S
C1212 C1214 1.561 . S
C1212 C1215 1.526 . S
C1213 H1197 0.959 . S
C1213 H1198 0.959 . S
C1213 H1199 0.961 . S
C1213 C1212 1.502 . S
C1214 H1200 0.960 . S
C1214 H1201 0.961 . S
C1214 H1202 0.959 . S
C1214 C1212 1.561 . S
C1215 C1212 1.526 . S
C1215 C1216 1.396 . S
C1215 C1220 1.390 . S
C1216 C1210 1.465 . S
C1216 C1215 1.396 . S
C1216 C1217 1.399 . S
C1217 H1203 0.929 . S
C1217 C1216 1.399 . S
C1217 C1218 1.385 . S
C1218 H1204 0.931 . S
C1218 C1217 1.385 . S
C1218 C1219 1.389 . S
C1219 C1218 1.389 . S
C1219 C1220 1.387 . S
C1220 H1205 0.930 . S
C1220 C1215 1.390 . S
C1220 C1219 1.387 . S
H1221 C1233 0.930 . S
H1222 C1235 0.930 . S
H1223 C1236 0.930 . S
H1224 C1240 0.959 . S
H1225 C1240 0.959 . S
H1226 C1240 0.961 . S
H1227 C1241 0.960 . S
H1228 C1241 0.961 . S
H1229 C1241 0.959 . S
H1230 C1244 0.929 . S
H1231 C1245 0.931 . S
H1232 C1247 0.930 . S
C1233 H1221 0.930 . S
C1233 C1234 1.399 . S
C1233 C1238 1.399 . S
C1234 C1233 1.399 . S
C1234 C1235 1.376 . S
C1235 H1222 0.930 . S
C1235 C1234 1.376 . S
C1235 C1236 1.388 . S
C1236 H1223 0.930 . S
C1236 C1235 1.388 . S
C1236 C1237 1.390 . S
C1237 C1236 1.390 . S
C1237 C1238 1.394 . S
C1237 C1243 1.465 . S
C1238 C1233 1.399 . S
C1238 C1237 1.394 . S
C1238 C1239 1.516 . S
C1239 C1238 1.516 . S
C1239 C1240 1.502 . S
C1239 C1241 1.561 . S
C1239 C1242 1.526 . S
C1240 H1224 0.959 . S
C1240 H1225 0.959 . S
C1240 H1226 0.961 . S
C1240 C1239 1.502 . S
C1241 H1227 0.960 . S
C1241 H1228 0.961 . S
C1241 H1229 0.959 . S
C1241 C1239 1.561 . S
C1242 C1239 1.526 . S
C1242 C1243 1.396 . S
C1242 C1247 1.390 . S
C1243 C1237 1.465 . S
C1243 C1242 1.396 . S
C1243 C1244 1.399 . S
C1244 H1230 0.929 . S
C1244 C1243 1.399 . S
C1244 C1245 1.385 . S
C1245 H1231 0.931 . S
C1245 C1244 1.385 . S
C1245 C1246 1.389 . S
C1246 C1245 1.389 . S
C1246 C1247 1.387 . S
C1247 H1232 0.930 . S
C1247 C1242 1.390 . S
C1247 C1246 1.387 . S
H1248 C1260 0.930 . S
H1249 C1262 0.930 . S
H1250 C1263 0.930 . S
H1251 C1267 0.959 . S
H1252 C1267 0.959 . S
H1253 C1267 0.961 . S
H1254 C1268 0.960 . S
H1255 C1268 0.961 . S
H1256 C1268 0.959 . S
H1257 C1271 0.929 . S
H1258 C1272 0.931 . S
H1259 C1274 0.930 . S
C1260 H1248 0.930 . S
C1260 C1261 1.399 . S
C1260 C1265 1.399 . S
C1261 C1260 1.399 . S
C1261 C1262 1.376 . S
C1262 H1249 0.930 . S
C1262 C1261 1.376 . S
C1262 C1263 1.388 . S
C1263 H1250 0.930 . S
C1263 C1262 1.388 . S
C1263 C1264 1.390 . S
C1264 C1263 1.390 . S
C1264 C1265 1.394 . S
C1264 C1270 1.465 . S
C1265 C1260 1.399 . S
C1265 C1264 1.394 . S
C1265 C1266 1.516 . S
C1266 C1265 1.516 . S
C1266 C1267 1.502 . S
C1266 C1268 1.561 . S
C1266 C1269 1.526 . S
C1267 H1251 0.959 . S
C1267 H1252 0.959 . S
C1267 H1253 0.961 . S
C1267 C1266 1.502 . S
C1268 H1254 0.960 . S
C1268 H1255 0.961 . S
C1268 H1256 0.959 . S
C1268 C1266 1.561 . S
C1269 C1266 1.526 . S
C1269 C1270 1.396 . S
C1269 C1274 1.390 . S
C1270 C1264 1.465 . S
C1270 C1269 1.396 . S
C1270 C1271 1.399 . S
C1271 H1257 0.929 . S
C1271 C1270 1.399 . S
C1271 C1272 1.385 . S
C1272 H1258 0.931 . S
C1272 C1271 1.385 . S
C1272 C1273 1.389 . S
C1273 C1272 1.389 . S
C1273 C1274 1.387 . S
C1274 H1259 0.930 . S
C1274 C1269 1.390 . S
C1274 C1273 1.387 . S
H1275 C1287 0.930 . S
H1276 C1289 0.930 . S
H1277 C1290 0.930 . S
H1278 C1294 0.959 . S
H1279 C1294 0.959 . S
H1280 C1294 0.961 . S
H1281 C1295 0.960 . S
H1282 C1295 0.961 . S
H1283 C1295 0.959 . S
H1284 C1298 0.929 . S
H1285 C1299 0.931 . S
H1286 C1301 0.930 . S
C1287 H1275 0.930 . S
C1287 C1288 1.399 . S
C1287 C1292 1.399 . S
C1288 C1287 1.399 . S
C1288 C1289 1.376 . S
C1289 H1276 0.930 . S
C1289 C1288 1.376 . S
C1289 C1290 1.388 . S
C1290 H1277 0.930 . S
C1290 C1289 1.388 . S
C1290 C1291 1.390 . S
C1291 C1290 1.390 . S
C1291 C1292 1.394 . S
C1291 C1297 1.465 . S
C1292 C1287 1.399 . S
C1292 C1291 1.394 . S
C1292 C1293 1.516 . S
C1293 C1292 1.516 . S
C1293 C1294 1.502 . S
C1293 C1295 1.561 . S
C1293 C1296 1.526 . S
C1294 H1278 0.959 . S
C1294 H1279 0.959 . S
C1294 H1280 0.961 . S
C1294 C1293 1.502 . S
C1295 H1281 0.960 . S
C1295 H1282 0.961 . S
C1295 H1283 0.959 . S
C1295 C1293 1.561 . S
C1296 C1293 1.526 . S
C1296 C1297 1.396 . S
C1296 C1301 1.390 . S
C1297 C1291 1.465 . S
C1297 C1296 1.396 . S
C1297 C1298 1.399 . S
C1298 H1284 0.929 . S
C1298 C1297 1.399 . S
C1298 C1299 1.385 . S
C1299 H1285 0.931 . S
C1299 C1298 1.385 . S
C1299 C1300 1.389 . S
C1300 C1299 1.389 . S
C1300 C1301 1.387 . S
C1301 H1286 0.930 . S
C1301 C1296 1.390 . S
C1301 C1300 1.387 . S
H1302 C1314 0.930 . S
H1303 C1316 0.930 . S
H1304 C1317 0.930 . S
H1305 C1321 0.959 . S
H1306 C1321 0.959 . S
H1307 C1321 0.961 . S
H1308 C1322 0.960 . S
H1309 C1322 0.961 . S
H1310 C1322 0.959 . S
H1311 C1325 0.929 . S
H1312 C1326 0.931 . S
H1313 C1328 0.930 . S
C1314 H1302 0.930 . S
C1314 C1315 1.399 . S
C1314 C1319 1.399 . S
C1315 C1314 1.399 . S
C1315 C1316 1.376 . S
C1316 H1303 0.930 . S
C1316 C1315 1.376 . S
C1316 C1317 1.388 . S
C1317 H1304 0.930 . S
C1317 C1316 1.388 . S
C1317 C1318 1.390 . S
C1318 C1317 1.390 . S
C1318 C1319 1.394 . S
C1318 C1324 1.465 . S
C1319 C1314 1.399 . S
C1319 C1318 1.394 . S
C1319 C1320 1.516 . S
C1320 C1319 1.516 . S
C1320 C1321 1.502 . S
C1320 C1322 1.561 . S
C1320 C1323 1.526 . S
C1321 H1305 0.959 . S
C1321 H1306 0.959 . S
C1321 H1307 0.961 . S
C1321 C1320 1.502 . S
C1322 H1308 0.960 . S
C1322 H1309 0.961 . S
C1322 H1310 0.959 . S
C1322 C1320 1.561 . S
C1323 C1320 1.526 . S
C1323 C1324 1.396 . S
C1323 C1328 1.390 . S
C1324 C1318 1.465 . S
C1324 C1323 1.396 . S
C1324 C1325 1.399 . S
C1325 H1311 0.929 . S
C1325 C1324 1.399 . S
C1325 C1326 1.385 . S
C1326 H1312 0.931 . S
C1326 C1325 1.385 . S
C1326 C1327 1.389 . S
C1327 C1326 1.389 . S
C1327 C1328 1.387 . S
C1328 H1313 0.930 . S
C1328 C1323 1.390 . S
C1328 C1327 1.387 . S
H1329 C1341 0.930 . S
H1330 C1343 0.930 . S
H1331 C1344 0.930 . S
H1332 C1348 0.959 . S
H1333 C1348 0.959 . S
H1334 C1348 0.961 . S
H1335 C1349 0.960 . S
H1336 C1349 0.961 . S
H1337 C1349 0.959 . S
H1338 C1352 0.929 . S
H1339 C1353 0.931 . S
H1340 C1355 0.930 . S
C1341 H1329 0.930 . S
C1341 C1342 1.399 . S
C1341 C1346 1.399 . S
C1342 C1341 1.399 . S
C1342 C1343 1.376 . S
C1343 H1330 0.930 . S
C1343 C1342 1.376 . S
C1343 C1344 1.388 . S
C1344 H1331 0.930 . S
C1344 C1343 1.388 . S
C1344 C1345 1.390 . S
C1345 C1344 1.390 . S
C1345 C1346 1.394 . S
C1345 C1351 1.465 . S
C1346 C1341 1.399 . S
C1346 C1345 1.394 . S
C1346 C1347 1.516 . S
C1347 C1346 1.516 . S
C1347 C1348 1.502 . S
C1347 C1349 1.561 . S
C1347 C1350 1.526 . S
C1348 H1332 0.959 . S
C1348 H1333 0.959 . S
C1348 H1334 0.961 . S
C1348 C1347 1.502 . S
C1349 H1335 0.960 . S
C1349 H1336 0.961 . S
C1349 H1337 0.959 . S
C1349 C1347 1.561 . S
C1350 C1347 1.526 . S
C1350 C1351 1.396 . S
C1350 C1355 1.390 . S
C1351 C1345 1.465 . S
C1351 C1350 1.396 . S
C1351 C1352 1.399 . S
C1352 H1338 0.929 . S
C1352 C1351 1.399 . S
C1352 C1353 1.385 . S
C1353 H1339 0.931 . S
C1353 C1352 1.385 . S
C1353 C1354 1.389 . S
C1354 C1353 1.389 . S
C1354 C1355 1.387 . S
C1355 H1340 0.930 . S
C1355 C1350 1.390 . S
C1355 C1354 1.387 . S
H1356 C1368 0.930 . S
H1357 C1370 0.930 . S
H1358 C1371 0.930 . S
H1359 C1375 0.959 . S
H1360 C1375 0.959 . S
H1361 C1375 0.961 . S
H1362 C1376 0.960 . S
H1363 C1376 0.961 . S
H1364 C1376 0.959 . S
H1365 C1379 0.929 . S
H1366 C1380 0.931 . S
H1367 C1382 0.930 . S
C1368 H1356 0.930 . S
C1368 C1369 1.399 . S
C1368 C1373 1.399 . S
C1369 C1368 1.399 . S
C1369 C1370 1.376 . S
C1370 H1357 0.930 . S
C1370 C1369 1.376 . S
C1370 C1371 1.388 . S
C1371 H1358 0.930 . S
C1371 C1370 1.388 . S
C1371 C1372 1.390 . S
C1372 C1371 1.390 . S
C1372 C1373 1.394 . S
C1372 C1378 1.465 . S
C1373 C1368 1.399 . S
C1373 C1372 1.394 . S
C1373 C1374 1.516 . S
C1374 C1373 1.516 . S
C1374 C1375 1.502 . S
C1374 C1376 1.561 . S
C1374 C1377 1.526 . S
C1375 H1359 0.959 . S
C1375 H1360 0.959 . S
C1375 H1361 0.961 . S
C1375 C1374 1.502 . S
C1376 H1362 0.960 . S
C1376 H1363 0.961 . S
C1376 H1364 0.959 . S
C1376 C1374 1.561 . S
C1377 C1374 1.526 . S
C1377 C1378 1.396 . S
C1377 C1382 1.390 . S
C1378 C1372 1.465 . S
C1378 C1377 1.396 . S
C1378 C1379 1.399 . S
C1379 H1365 0.929 . S
C1379 C1378 1.399 . S
C1379 C1380 1.385 . S
C1380 H1366 0.931 . S
C1380 C1379 1.385 . S
C1380 C1381 1.389 . S
C1381 C1380 1.389 . S
C1381 C1382 1.387 . S
C1382 H1367 0.930 . S
C1382 C1377 1.390 . S
C1382 C1381 1.387 . S
H1383 C1395 0.930 . S
H1384 C1397 0.930 . S
H1385 C1398 0.930 . S
H1386 C1402 0.959 . S
H1387 C1402 0.959 . S
H1388 C1402 0.961 . S
H1389 C1403 0.960 . S
H1390 C1403 0.961 . S
H1391 C1403 0.959 . S
H1392 C1406 0.929 . S
H1393 C1407 0.931 . S
H1394 C1409 0.930 . S
C1395 H1383 0.930 . S
C1395 C1396 1.399 . S
C1395 C1400 1.399 . S
C1396 C1395 1.399 . S
C1396 C1397 1.376 . S
C1397 H1384 0.930 . S
C1397 C1396 1.376 . S
C1397 C1398 1.388 . S
C1398 H1385 0.930 . S
C1398 C1397 1.388 . S
C1398 C1399 1.390 . S
C1399 C1398 1.390 . S
C1399 C1400 1.394 . S
C1399 C1405 1.465 . S
C1400 C1395 1.399 . S
C1400 C1399 1.394 . S
C1400 C1401 1.516 . S
C1401 C1400 1.516 . S
C1401 C1402 1.502 . S
C1401 C1403 1.561 . S
C1401 C1404 1.526 . S
C1402 H1386 0.959 . S
C1402 H1387 0.959 . S
C1402 H1388 0.961 . S
C1402 C1401 1.502 . S
C1403 H1389 0.960 . S
C1403 H1390 0.961 . S
C1403 H1391 0.959 . S
C1403 C1401 1.561 . S
C1404 C1401 1.526 . S
C1404 C1405 1.396 . S
C1404 C1409 1.390 . S
C1405 C1399 1.465 . S
C1405 C1404 1.396 . S
C1405 C1406 1.399 . S
C1406 H1392 0.929 . S
C1406 C1405 1.399 . S
C1406 C1407 1.385 . S
C1407 H1393 0.931 . S
C1407 C1406 1.385 . S
C1407 C1408 1.389 . S
C1408 C1407 1.389 . S
C1408 C1409 1.387 . S
C1409 H1394 0.930 . S
C1409 C1404 1.390 . S
C1409 C1408 1.387 . S
H1410 C1422 0.930 . S
H1411 C1424 0.930 . S
H1412 C1425 0.930 . S
H1413 C1429 0.959 . S
H1414 C1429 0.959 . S
H1415 C1429 0.961 . S
H1416 C1430 0.960 . S
H1417 C1430 0.961 . S
H1418 C1430 0.959 . S
H1419 C1433 0.929 . S
H1420 C1434 0.931 . S
H1421 C1436 0.930 . S
C1422 H1410 0.930 . S
C1422 C1423 1.399 . S
C1422 C1427 1.399 . S
C1423 C1422 1.399 . S
C1423 C1424 1.376 . S
C1424 H1411 0.930 . S
C1424 C1423 1.376 . S
C1424 C1425 1.388 . S
C1425 H1412 0.930 . S
C1425 C1424 1.388 . S
C1425 C1426 1.390 . S
C1426 C1425 1.390 . S
C1426 C1427 1.394 . S
C1426 C1432 1.465 . S
C1427 C1422 1.399 . S
C1427 C1426 1.394 . S
C1427 C1428 1.516 . S
C1428 C1427 1.516 . S
C1428 C1429 1.502 . S
C1428 C1430 1.561 . S
C1428 C1431 1.526 . S
C1429 H1413 0.959 . S
C1429 H1414 0.959 . S
C1429 H1415 0.961 . S
C1429 C1428 1.502 . S
C1430 H1416 0.960 . S
C1430 H1417 0.961 . S
C1430 H1418 0.959 . S
C1430 C1428 1.561 . S
C1431 C1428 1.526 . S
C1431 C1432 1.396 . S
C1431 C1436 1.390 . S
C1432 C1426 1.465 . S
C1432 C1431 1.396 . S
C1432 C1433 1.399 . S
C1433 H1419 0.929 . S
C1433 C1432 1.399 . S
C1433 C1434 1.385 . S
C1434 H1420 0.931 . S
C1434 C1433 1.385 . S
C1434 C1435 1.389 . S
C1435 C1434 1.389 . S
C1435 C1436 1.387 . S
C1436 H1421 0.930 . S
C1436 C1431 1.390 . S
C1436 C1435 1.387 . S
H1437 C1449 0.930 . S
H1438 C1451 0.930 . S
H1439 C1452 0.930 . S
H1440 C1456 0.959 . S
H1441 C1456 0.959 . S
H1442 C1456 0.961 . S
H1443 C1457 0.960 . S
H1444 C1457 0.961 . S
H1445 C1457 0.959 . S
H1446 C1460 0.929 . S
H1447 C1461 0.931 . S
H1448 C1463 0.930 . S
C1449 H1437 0.930 . S
C1449 C1450 1.399 . S
C1449 C1454 1.399 . S
C1450 C1449 1.399 . S
C1450 C1451 1.376 . S
C1451 H1438 0.930 . S
C1451 C1450 1.376 . S
C1451 C1452 1.388 . S
C1452 H1439 0.930 . S
C1452 C1451 1.388 . S
C1452 C1453 1.390 . S
C1453 C1452 1.390 . S
C1453 C1454 1.394 . S
C1453 C1459 1.465 . S
C1454 C1449 1.399 . S
C1454 C1453 1.394 . S
C1454 C1455 1.516 . S
C1455 C1454 1.516 . S
C1455 C1456 1.502 . S
C1455 C1457 1.561 . S
C1455 C1458 1.526 . S
C1456 H1440 0.959 . S
C1456 H1441 0.959 . S
C1456 H1442 0.961 . S
C1456 C1455 1.502 . S
C1457 H1443 0.960 . S
C1457 H1444 0.961 . S
C1457 H1445 0.959 . S
C1457 C1455 1.561 . S
C1458 C1455 1.526 . S
C1458 C1459 1.396 . S
C1458 C1463 1.390 . S
C1459 C1453 1.465 . S
C1459 C1458 1.396 . S
C1459 C1460 1.399 . S
C1460 H1446 0.929 . S
C1460 C1459 1.399 . S
C1460 C1461 1.385 . S
C1461 H1447 0.931 . S
C1461 C1460 1.385 . S
C1461 C1462 1.389 . S
C1462 C1461 1.389 . S
C1462 C1463 1.387 . S
C1463 H1448 0.930 . S
C1463 C1458 1.390 . S
C1463 C1462 1.387 . S
H1464 C1476 0.930 . S
H1465 C1478 0.930 . S
H1466 C1479 0.930 . S
H1467 C1483 0.959 . S
H1468 C1483 0.959 . S
H1469 C1483 0.961 . S
H1470 C1484 0.960 . S
H1471 C1484 0.961 . S
H1472 C1484 0.959 . S
H1473 C1487 0.929 . S
H1474 C1488 0.931 . S
H1475 C1490 0.930 . S
C1476 H1464 0.930 . S
C1476 C1477 1.399 . S
C1476 C1481 1.399 . S
C1477 C1476 1.399 . S
C1477 C1478 1.376 . S
C1478 H1465 0.930 . S
C1478 C1477 1.376 . S
C1478 C1479 1.388 . S
C1479 H1466 0.930 . S
C1479 C1478 1.388 . S
C1479 C1480 1.390 . S
C1480 C1479 1.390 . S
C1480 C1481 1.394 . S
C1480 C1486 1.465 . S
C1481 C1476 1.399 . S
C1481 C1480 1.394 . S
C1481 C1482 1.516 . S
C1482 C1481 1.516 . S
C1482 C1483 1.502 . S
C1482 C1484 1.561 . S
C1482 C1485 1.526 . S
C1483 H1467 0.959 . S
C1483 H1468 0.959 . S
C1483 H1469 0.961 . S
C1483 C1482 1.502 . S
C1484 H1470 0.960 . S
C1484 H1471 0.961 . S
C1484 H1472 0.959 . S
C1484 C1482 1.561 . S
C1485 C1482 1.526 . S
C1485 C1486 1.396 . S
C1485 C1490 1.390 . S
C1486 C1480 1.465 . S
C1486 C1485 1.396 . S
C1486 C1487 1.399 . S
C1487 H1473 0.929 . S
C1487 C1486 1.399 . S
C1487 C1488 1.385 . S
C1488 H1474 0.931 . S
C1488 C1487 1.385 . S
C1488 C1489 1.389 . S
C1489 C1488 1.389 . S
C1489 C1490 1.387 . S
C1490 H1475 0.930 . S
C1490 C1485 1.390 . S
C1490 C1489 1.387 . S
H1491 C1503 0.930 . S
H1492 C1505 0.930 . S
H1493 C1506 0.930 . S
H1494 C1510 0.959 . S
H1495 C1510 0.959 . S
H1496 C1510 0.961 . S
H1497 C1511 0.960 . S
H1498 C1511 0.961 . S
H1499 C1511 0.959 . S
H1500 C1514 0.929 . S
H1501 C1515 0.931 . S
H1502 C1517 0.930 . S
C1503 H1491 0.930 . S
C1503 C1504 1.399 . S
C1503 C1508 1.399 . S
C1504 C1503 1.399 . S
C1504 C1505 1.376 . S
C1505 H1492 0.930 . S
C1505 C1504 1.376 . S
C1505 C1506 1.388 . S
C1506 H1493 0.930 . S
C1506 C1505 1.388 . S
C1506 C1507 1.390 . S
C1507 C1506 1.390 . S
C1507 C1508 1.394 . S
C1507 C1513 1.465 . S
C1508 C1503 1.399 . S
C1508 C1507 1.394 . S
C1508 C1509 1.516 . S
C1509 C1508 1.516 . S
C1509 C1510 1.502 . S
C1509 C1511 1.561 . S
C1509 C1512 1.526 . S
C1510 H1494 0.959 . S
C1510 H1495 0.959 . S
C1510 H1496 0.961 . S
C1510 C1509 1.502 . S
C1511 H1497 0.960 . S
C1511 H1498 0.961 . S
C1511 H1499 0.959 . S
C1511 C1509 1.561 . S
C1512 C1509 1.526 . S
C1512 C1513 1.396 . S
C1512 C1517 1.390 . S
C1513 C1507 1.465 . S
C1513 C1512 1.396 . S
C1513 C1514 1.399 . S
C1514 H1500 0.929 . S
C1514 C1513 1.399 . S
C1514 C1515 1.385 . S
C1515 H1501 0.931 . S
C1515 C1514 1.385 . S
C1515 C1516 1.389 . S
C1516 C1515 1.389 . S
C1516 C1517 1.387 . S
C1517 H1502 0.930 . S
C1517 C1512 1.390 . S
C1517 C1516 1.387 . S
H1518 C1530 0.930 . S
H1519 C1532 0.930 . S
H1520 C1533 0.930 . S
H1521 C1537 0.959 . S
H1522 C1537 0.959 . S
H1523 C1537 0.961 . S
H1524 C1538 0.960 . S
H1525 C1538 0.961 . S
H1526 C1538 0.959 . S
H1527 C1541 0.929 . S
H1528 C1542 0.931 . S
H1529 C1544 0.930 . S
C1530 H1518 0.930 . S
C1530 C1531 1.399 . S
C1530 C1535 1.399 . S
C1531 C1530 1.399 . S
C1531 C1532 1.376 . S
C1532 H1519 0.930 . S
C1532 C1531 1.376 . S
C1532 C1533 1.388 . S
C1533 H1520 0.930 . S
C1533 C1532 1.388 . S
C1533 C1534 1.390 . S
C1534 C1533 1.390 . S
C1534 C1535 1.394 . S
C1534 C1540 1.465 . S
C1535 C1530 1.399 . S
C1535 C1534 1.394 . S
C1535 C1536 1.516 . S
C1536 C1535 1.516 . S
C1536 C1537 1.502 . S
C1536 C1538 1.561 . S
C1536 C1539 1.526 . S
C1537 H1521 0.959 . S
C1537 H1522 0.959 . S
C1537 H1523 0.961 . S
C1537 C1536 1.502 . S
C1538 H1524 0.960 . S
C1538 H1525 0.961 . S
C1538 H1526 0.959 . S
C1538 C1536 1.561 . S
C1539 C1536 1.526 . S
C1539 C1540 1.396 . S
C1539 C1544 1.390 . S
C1540 C1534 1.465 . S
C1540 C1539 1.396 . S
C1540 C1541 1.399 . S
C1541 H1527 0.929 . S
C1541 C1540 1.399 . S
C1541 C1542 1.385 . S
C1542 H1528 0.931 . S
C1542 C1541 1.385 . S
C1542 C1543 1.389 . S
C1543 C1542 1.389 . S
C1543 C1544 1.387 . S
C1544 H1529 0.930 . S
C1544 C1539 1.390 . S
C1544 C1543 1.387 . S
H1545 C1557 0.930 . S
H1546 C1559 0.930 . S
H1547 C1560 0.930 . S
H1548 C1564 0.959 . S
H1549 C1564 0.959 . S
H1550 C1564 0.961 . S
H1551 C1565 0.960 . S
H1552 C1565 0.961 . S
H1553 C1565 0.959 . S
H1554 C1568 0.929 . S
H1555 C1569 0.931 . S
H1556 C1571 0.930 . S
C1557 H1545 0.930 . S
C1557 C1558 1.399 . S
C1557 C1562 1.399 . S
C1558 C1557 1.399 . S
C1558 C1559 1.376 . S
C1559 H1546 0.930 . S
C1559 C1558 1.376 . S
C1559 C1560 1.388 . S
C1560 H1547 0.930 . S
C1560 C1559 1.388 . S
C1560 C1561 1.390 . S
C1561 C1560 1.390 . S
C1561 C1562 1.394 . S
C1561 C1567 1.465 . S
C1562 C1557 1.399 . S
C1562 C1561 1.394 . S
C1562 C1563 1.516 . S
C1563 C1562 1.516 . S
C1563 C1564 1.502 . S
C1563 C1565 1.561 . S
C1563 C1566 1.526 . S
C1564 H1548 0.959 . S
C1564 H1549 0.959 . S
C1564 H1550 0.961 . S
C1564 C1563 1.502 . S
C1565 H1551 0.960 . S
C1565 H1552 0.961 . S
C1565 H1553 0.959 . S
C1565 C1563 1.561 . S
C1566 C1563 1.526 . S
C1566 C1567 1.396 . S
C1566 C1571 1.390 . S
C1567 C1561 1.465 . S
C1567 C1566 1.396 . S
C1567 C1568 1.399 . S
C1568 H1554 0.929 . S
C1568 C1567 1.399 . S
C1568 C1569 1.385 . S
C1569 H1555 0.931 . S
C1569 C1568 1.385 . S
C1569 C1570 1.389 . S
C1570 C1569 1.389 . S
C1570 C1571 1.387 . S
C1571 H1556 0.930 . S
C1571 C1566 1.390 . S
C1571 C1570 1.387 . S
H1572 C1584 0.930 . S
H1573 C1586 0.930 . S
H1574 C1587 0.930 . S
H1575 C1591 0.959 . S
H1576 C1591 0.959 . S
H1577 C1591 0.961 . S
H1578 C1592 0.960 . S
H1579 C1592 0.961 . S
H1580 C1592 0.959 . S
H1581 C1595 0.929 . S
H1582 C1596 0.931 . S
H1583 C1598 0.930 . S
C1584 H1572 0.930 . S
C1584 C1585 1.399 . S
C1584 C1589 1.399 . S
C1585 C1584 1.399 . S
C1585 C1586 1.376 . S
C1586 H1573 0.930 . S
C1586 C1585 1.376 . S
C1586 C1587 1.388 . S
C1587 H1574 0.930 . S
C1587 C1586 1.388 . S
C1587 C1588 1.390 . S
C1588 C1587 1.390 . S
C1588 C1589 1.394 . S
C1588 C1594 1.465 . S
C1589 C1584 1.399 . S
C1589 C1588 1.394 . S
C1589 C1590 1.516 . S
C1590 C1589 1.516 . S
C1590 C1591 1.502 . S
C1590 C1592 1.561 . S
C1590 C1593 1.526 . S
C1591 H1575 0.959 . S
C1591 H1576 0.959 . S
C1591 H1577 0.961 . S
C1591 C1590 1.502 . S
C1592 H1578 0.960 . S
C1592 H1579 0.961 . S
C1592 H1580 0.959 . S
C1592 C1590 1.561 . S
C1593 C1590 1.526 . S
C1593 C1594 1.396 . S
C1593 C1598 1.390 . S
C1594 C1588 1.465 . S
C1594 C1593 1.396 . S
C1594 C1595 1.399 . S
C1595 H1581 0.929 . S
C1595 C1594 1.399 . S
C1595 C1596 1.385 . S
C1596 H1582 0.931 . S
C1596 C1595 1.385 . S
C1596 C1597 1.389 . S
C1597 C1596 1.389 . S
C1597 C1598 1.387 . S
C1598 H1583 0.930 . S
C1598 C1593 1.390 . S
C1598 C1597 1.387 . S
H1599 C1611 0.930 . S
H1600 C1613 0.930 . S
H1601 C1614 0.930 . S
H1602 C1618 0.959 . S
H1603 C1618 0.959 . S
H1604 C1618 0.961 . S
H1605 C1619 0.960 . S
H1606 C1619 0.961 . S
H1607 C1619 0.959 . S
H1608 C1622 0.929 . S
H1609 C1623 0.931 . S
H1610 C1625 0.930 . S
C1611 H1599 0.930 . S
C1611 C1612 1.399 . S
C1611 C1616 1.399 . S
C1612 C1611 1.399 . S
C1612 C1613 1.376 . S
C1613 H1600 0.930 . S
C1613 C1612 1.376 . S
C1613 C1614 1.388 . S
C1614 H1601 0.930 . S
C1614 C1613 1.388 . S
C1614 C1615 1.390 . S
C1615 C1614 1.390 . S
C1615 C1616 1.394 . S
C1615 C1621 1.465 . S
C1616 C1611 1.399 . S
C1616 C1615 1.394 . S
C1616 C1617 1.516 . S
C1617 C1616 1.516 . S
C1617 C1618 1.502 . S
C1617 C1619 1.561 . S
C1617 C1620 1.526 . S
C1618 H1602 0.959 . S
C1618 H1603 0.959 . S
C1618 H1604 0.961 . S
C1618 C1617 1.502 . S
C1619 H1605 0.960 . S
C1619 H1606 0.961 . S
C1619 H1607 0.959 . S
C1619 C1617 1.561 . S
C1620 C1617 1.526 . S
C1620 C1621 1.396 . S
C1620 C1625 1.390 . S
C1621 C1615 1.465 . S
C1621 C1620 1.396 . S
C1621 C1622 1.399 . S
C1622 H1608 0.929 . S
C1622 C1621 1.399 . S
C1622 C1623 1.385 . S
C1623 H1609 0.931 . S
C1623 C1622 1.385 . S
C1623 C1624 1.389 . S
C1624 C1623 1.389 . S
C1624 C1625 1.387 . S
C1625 H1610 0.930 . S
C1625 C1620 1.390 . S
C1625 C1624 1.387 . S
H1626 C1638 0.930 . S
H1627 C1640 0.930 . S
H1628 C1641 0.930 . S
H1629 C1645 0.959 . S
H1630 C1645 0.959 . S
H1631 C1645 0.961 . S
H1632 C1646 0.960 . S
H1633 C1646 0.961 . S
H1634 C1646 0.959 . S
H1635 C1649 0.929 . S
H1636 C1650 0.931 . S
H1637 C1652 0.930 . S
C1638 H1626 0.930 . S
C1638 C1639 1.399 . S
C1638 C1643 1.399 . S
C1639 C1638 1.399 . S
C1639 C1640 1.376 . S
C1640 H1627 0.930 . S
C1640 C1639 1.376 . S
C1640 C1641 1.388 . S
C1641 H1628 0.930 . S
C1641 C1640 1.388 . S
C1641 C1642 1.390 . S
C1642 C1641 1.390 . S
C1642 C1643 1.394 . S
C1642 C1648 1.465 . S
C1643 C1638 1.399 . S
C1643 C1642 1.394 . S
C1643 C1644 1.516 . S
C1644 C1643 1.516 . S
C1644 C1645 1.502 . S
C1644 C1646 1.561 . S
C1644 C1647 1.526 . S
C1645 H1629 0.959 . S
C1645 H1630 0.959 . S
C1645 H1631 0.961 . S
C1645 C1644 1.502 . S
C1646 H1632 0.960 . S
C1646 H1633 0.961 . S
C1646 H1634 0.959 . S
C1646 C1644 1.561 . S
C1647 C1644 1.526 . S
C1647 C1648 1.396 . S
C1647 C1652 1.390 . S
C1648 C1642 1.465 . S
C1648 C1647 1.396 . S
C1648 C1649 1.399 . S
C1649 H1635 0.929 . S
C1649 C1648 1.399 . S
C1649 C1650 1.385 . S
C1650 H1636 0.931 . S
C1650 C1649 1.385 . S
C1650 C1651 1.389 . S
C1651 C1650 1.389 . S
C1651 C1652 1.387 . S
C1652 H1637 0.930 . S
C1652 C1647 1.390 . S
C1652 C1651 1.387 . S
H1653 C1665 0.930 . S
H1654 C1667 0.930 . S
H1655 C1668 0.930 . S
H1656 C1672 0.959 . S
H1657 C1672 0.959 . S
H1658 C1672 0.961 . S
H1659 C1673 0.960 . S
H1660 C1673 0.961 . S
H1661 C1673 0.959 . S
H1662 C1676 0.929 . S
H1663 C1677 0.931 . S
H1664 C1679 0.930 . S
C1665 H1653 0.930 . S
C1665 C1666 1.399 . S
C1665 C1670 1.399 . S
C1666 C1665 1.399 . S
C1666 C1667 1.376 . S
C1667 H1654 0.930 . S
C1667 C1666 1.376 . S
C1667 C1668 1.388 . S
C1668 H1655 0.930 . S
C1668 C1667 1.388 . S
C1668 C1669 1.390 . S
C1669 C1668 1.390 . S
C1669 C1670 1.394 . S
C1669 C1675 1.465 . S
C1670 C1665 1.399 . S
C1670 C1669 1.394 . S
C1670 C1671 1.516 . S
C1671 C1670 1.516 . S
C1671 C1672 1.502 . S
C1671 C1673 1.561 . S
C1671 C1674 1.526 . S
C1672 H1656 0.959 . S
C1672 H1657 0.959 . S
C1672 H1658 0.961 . S
C1672 C1671 1.502 . S
C1673 H1659 0.960 . S
C1673 H1660 0.961 . S
C1673 H1661 0.959 . S
C1673 C1671 1.561 . S
C1674 C1671 1.526 . S
C1674 C1675 1.396 . S
C1674 C1679 1.390 . S
C1675 C1669 1.465 . S
C1675 C1674 1.396 . S
C1675 C1676 1.399 . S
C1676 H1662 0.929 . S
C1676 C1675 1.399 . S
C1676 C1677 1.385 . S
C1677 H1663 0.931 . S
C1677 C1676 1.385 . S
C1677 C1678 1.389 . S
C1678 C1677 1.389 . S
C1678 C1679 1.387 . S
C1679 H1664 0.930 . S
C1679 C1674 1.390 . S
C1679 C1678 1.387 . S
H1680 C1692 0.930 . S
H1681 C1694 0.930 . S
H1682 C1695 0.930 . S
H1683 C1699 0.959 . S
H1684 C1699 0.959 . S
H1685 C1699 0.961 . S
H1686 C1700 0.960 . S
H1687 C1700 0.961 . S
H1688 C1700 0.959 . S
H1689 C1703 0.929 . S
H1690 C1704 0.931 . S
H1691 C1706 0.930 . S
C1692 H1680 0.930 . S
C1692 C1693 1.399 . S
C1692 C1697 1.399 . S
C1693 C1692 1.399 . S
C1693 C1694 1.376 . S
C1694 H1681 0.930 . S
C1694 C1693 1.376 . S
C1694 C1695 1.388 . S
C1695 H1682 0.930 . S
C1695 C1694 1.388 . S
C1695 C1696 1.390 . S
C1696 C1695 1.390 . S
C1696 C1697 1.394 . S
C1696 C1702 1.465 . S
C1697 C1692 1.399 . S
C1697 C1696 1.394 . S
C1697 C1698 1.516 . S
C1698 C1697 1.516 . S
C1698 C1699 1.502 . S
C1698 C1700 1.561 . S
C1698 C1701 1.526 . S
C1699 H1683 0.959 . S
C1699 H1684 0.959 . S
C1699 H1685 0.961 . S
C1699 C1698 1.502 . S
C1700 H1686 0.960 . S
C1700 H1687 0.961 . S
C1700 H1688 0.959 . S
C1700 C1698 1.561 . S
C1701 C1698 1.526 . S
C1701 C1702 1.396 . S
C1701 C1706 1.390 . S
C1702 C1696 1.465 . S
C1702 C1701 1.396 . S
C1702 C1703 1.399 . S
C1703 H1689 0.929 . S
C1703 C1702 1.399 . S
C1703 C1704 1.385 . S
C1704 H1690 0.931 . S
C1704 C1703 1.385 . S
C1704 C1705 1.389 . S
C1705 C1704 1.389 . S
C1705 C1706 1.387 . S
C1706 H1691 0.930 . S
C1706 C1701 1.390 . S
C1706 C1705 1.387 . S
H1707 C1719 0.930 . S
H1708 C1721 0.930 . S
H1709 C1722 0.930 . S
H1710 C1726 0.959 . S
H1711 C1726 0.959 . S
H1712 C1726 0.961 . S
H1713 C1727 0.960 . S
H1714 C1727 0.961 . S
H1715 C1727 0.959 . S
H1716 C1730 0.929 . S
H1717 C1731 0.931 . S
H1718 C1733 0.930 . S
C1719 H1707 0.930 . S
C1719 C1720 1.399 . S
C1719 C1724 1.399 . S
C1720 C1719 1.399 . S
C1720 C1721 1.376 . S
C1721 H1708 0.930 . S
C1721 C1720 1.376 . S
C1721 C1722 1.388 . S
C1722 H1709 0.930 . S
C1722 C1721 1.388 . S
C1722 C1723 1.390 . S
C1723 C1722 1.390 . S
C1723 C1724 1.394 . S
C1723 C1729 1.465 . S
C1724 C1719 1.399 . S
C1724 C1723 1.394 . S
C1724 C1725 1.516 . S
C1725 C1724 1.516 . S
C1725 C1726 1.502 . S
C1725 C1727 1.561 . S
C1725 C1728 1.526 . S
C1726 H1710 0.959 . S
C1726 H1711 0.959 . S
C1726 H1712 0.961 . S
C1726 C1725 1.502 . S
C1727 H1713 0.960 . S
C1727 H1714 0.961 . S
C1727 H1715 0.959 . S
C1727 C1725 1.561 . S
C1728 C1725 1.526 . S
C1728 C1729 1.396 . S
C1728 C1733 1.390 . S
C1729 C1723 1.465 . S
C1729 C1728 1.396 . S
C1729 C1730 1.399 . S
C1730 H1716 0.929 . S
C1730 C1729 1.399 . S
C1730 C1731 1.385 . S
C1731 H1717 0.931 . S
C1731 C1730 1.385 . S
C1731 C1732 1.389 . S
C1732 C1731 1.389 . S
C1732 C1733 1.387 . S
C1733 H1718 0.930 . S
C1733 C1728 1.390 . S
C1733 C1732 1.387 . S
C463 C267 0.869 . S
C451 N6 0.764 . S
C490 C268 2.117 . S
C478 C57 2.251 . S
C517 C262 1.309 . S
C505 C61 1.379 . S
C532 N96 0.469 . S
C544 C261 0.426 . S
C559 C136 2.256 . S
C571 C264 2.091 . S
C598 C266 1.347 . S
C586 C160 1.383 . S
C613 N194 0.422 . S
C625 C265 0.526 . S
C640 N224 0.677 . S
C652 C263 0.828 . S
C679 C298 1.995 . S
C667 C10 1.959 . S
C694 N36 0.855 . S
C706 C329 0.927 . S
C733 C297 0.686 . S
C721 N74 0.718 . S
C760 C332 1.193 . S
C748 C100 1.276 . S
C775 C121 1.469 . S
C787 C295 1.466 . S
C814 C327 1.908 . S
C802 C177 1.918 . S
C829 C196 2.093 . S
C841 C300 2.050 . S
C856 C226 1.968 . S
C868 C334 1.914 . S
C883 C27 1.971 . S
C895 C330 1.919 . S
C910 N134 0.971 . S
C922 C333 0.976 . S
C949 C301 0.689 . S
C937 N156 0.553 . S
C976 C328 1.206 . S
C964 C181 1.271 . S
C991 C211 1.982 . S
C1003 C294 2.000 . S
C1018 C76 1.890 . S
C1030 C331 1.912 . S
C1057 C296 1.993 . S
C1045 C117 2.049 . S
C1072 C40 1.483 . S
C1084 C299 1.431 . S
C1099 N216 0.789 . S
C1111 C366 0.884 . S
C1126 C147 1.832 . S
C1138 C367 1.785 . S
C1165 C361 1.274 . S
C1153 C151 1.280 . S
C1192 C360 0.674 . S
C1180 N186 0.538 . S
C1207 C46 1.849 . S
C1219 C363 1.721 . S
C1246 C365 1.271 . S
C1234 C70 1.286 . S
C1261 N104 0.718 . S
C1273 C364 0.539 . S
C1288 N14 0.786 . S
C1300 C362 0.688 . S
C1315 C220 2.099 . S
C1327 C400 2.033 . S
C1354 C432 0.948 . S
C1342 N126 0.936 . S
C1369 N164 0.512 . S
C1381 C393 0.483 . S
C1396 C190 1.521 . S
C1408 C427 1.495 . S
C1435 C398 1.282 . S
C1423 C31 1.323 . S
C1450 C87 2.071 . S
C1462 C429 2.014 . S
C1489 C395 2.199 . S
C1477 C106 2.277 . S
C1516 C430 1.907 . S
C1504 C16 1.835 . S
C1543 C426 1.921 . S
C1531 C237 1.877 . S
C1558 N44 0.921 . S
C1570 C428 0.926 . S
C1585 N66 0.496 . S
C1597 C397 0.512 . S
C1624 C431 1.513 . S
C1612 C91 1.514 . S
C1639 C1 2.092 . S
C1651 C396 1.999 . S
C1666 C166 2.097 . S
C1678 C433 2.015 . S
C1705 C399 2.209 . S
C1693 C207 2.274 . S
C1732 C394 1.318 . S
C1720 C130 1.284 . S
