# Generated by pormake.
# Topology anh, (6,3)-cn, num edge types: 1
# Building blocks:
#     Node 0, Type 0, BuildingBlock: NUHQIS_clean_sbu_0, # of connection points: 6
#     Node 1, Type 0, BuildingBlock: NUHQIS_clean_sbu_0, # of connection points: 6
#     Node 2, Type 0, BuildingBlock: NUHQIS_clean_sbu_0, # of connection points: 6
#     Node 3, Type 1, BuildingBlock: WUSLED_clean_sbu_0, # of connection points: 3
#     Node 4, Type 1, BuildingBlock: WUSLED_clean_sbu_0, # of connection points: 3
#     Node 5, Type 1, BuildingBlock: WUSLED_clean_sbu_0, # of connection points: 3
#     Node 6, Type 1, BuildingBlock: WUSLED_clean_sbu_0, # of connection points: 3
#     Node 7, Type 1, BuildingBlock: WUSLED_clean_sbu_0, # of connection points: 3
#     Node 8, Type 1, BuildingBlock: WUSLED_clean_sbu_0, # of connection points: 3
#     Edge 9, Type (0, 1), BuildingBlock: AJUNOK_clean_linker_0, # of connection points: 2
#     Edge 10, Type (0, 1), BuildingBlock: AJUNOK_clean_linker_0, # of connection points: 2
#     Edge 11, Type (0, 1), BuildingBlock: AJUNOK_clean_linker_0, # of connection points: 2
#     Edge 12, Type (0, 1), BuildingBlock: AJUNOK_clean_linker_0, # of connection points: 2
#     Edge 13, Type (0, 1), BuildingBlock: AJUNOK_clean_linker_0, # of connection points: 2
#     Edge 14, Type (0, 1), BuildingBlock: AJUNOK_clean_linker_0, # of connection points: 2
#     Edge 15, Type (0, 1), BuildingBlock: AJUNOK_clean_linker_0, # of connection points: 2
#     Edge 16, Type (0, 1), BuildingBlock: AJUNOK_clean_linker_0, # of connection points: 2
#     Edge 17, Type (0, 1), BuildingBlock: AJUNOK_clean_linker_0, # of connection points: 2
#     Edge 18, Type (0, 1), BuildingBlock: AJUNOK_clean_linker_0, # of connection points: 2
#     Edge 19, Type (0, 1), BuildingBlock: AJUNOK_clean_linker_0, # of connection points: 2
#     Edge 20, Type (0, 1), BuildingBlock: AJUNOK_clean_linker_0, # of connection points: 2
#     Edge 21, Type (0, 1), BuildingBlock: AJUNOK_clean_linker_0, # of connection points: 2
#     Edge 22, Type (0, 1), BuildingBlock: AJUNOK_clean_linker_0, # of connection points: 2
#     Edge 23, Type (0, 1), BuildingBlock: AJUNOK_clean_linker_0, # of connection points: 2
#     Edge 24, Type (0, 1), BuildingBlock: AJUNOK_clean_linker_0, # of connection points: 2
#     Edge 25, Type (0, 1), BuildingBlock: AJUNOK_clean_linker_0, # of connection points: 2
#     Edge 26, Type (0, 1), BuildingBlock: AJUNOK_clean_linker_0, # of connection points: 2
# Relax obj value: 0.266
# Max RMSD: 0.189
# Mean RMSD: 0.155
data_MOF--net-anh--node1-NUHQIS_clean_sbu_0--node2-WUSLED_clean_sbu_0--edge1-AJUNOK_clean_linker_0
_symmetry_space_group_name_H-M    P1
_symmetry_Int_Tables_number       1
_symmetry_cell_setting            triclinic
loop_
_symmetry_equiv_pos_as_xyz
'x, y, z'
_cell_length_a     30.459082
_cell_length_b     30.493814
_cell_length_c     55.937294
_cell_angle_alpha  88.783174
_cell_angle_beta   93.878782
_cell_angle_gamma 119.85472
loop_
_atom_site_label
_atom_site_type_symbol
_atom_site_fract_x
_atom_site_fract_y
_atom_site_fract_z
_atom_type_partial_charge
Tb0 Tb 0.1915 0.5904 0.16915 0.0
Eu1 Eu 1.13311 0.65433 0.16469 0.0
C2 C 0.16157 0.62185 0.21431 0.0
C3 C 1.0689 0.53206 0.17094 0.0
C4 C 0.27893 0.54752 0.19068 0.0
C5 C 0.32958 0.51375 0.20895 0.0
C6 C 0.28205 0.50781 0.20208 0.0
C7 C 0.32199 0.5956 0.19039 0.0
C8 C 0.36933 0.60111 0.19662 0.0
C9 C 0.37343 0.55824 0.20283 0.0
C10 C 0.23252 0.53758 0.17699 0.0
O11 O 0.16663 0.58425 0.13108 0.0
O12 O 0.15596 0.65338 0.12754 0.0
O13 O 0.2149 0.71125 0.17499 0.0
O14 O 0.25671 0.66814 0.16829 0.0
C15 C 0.16057 0.6173 0.11783 0.0
O16 O 1.07752 0.67415 0.1496 0.0
O17 O 1.13127 0.71943 0.17866 0.0
O18 O 1.12462 0.62193 0.20122 0.0
O19 O 0.19953 0.62261 0.20445 0.0
O20 O 1.11261 0.53315 0.17354 0.0
O21 O 1.06675 0.57328 0.16544 0.0
C22 C 0.25738 0.71055 0.1735 0.0
O23 O 0.19719 0.53503 0.18969 0.0
O24 O 0.23833 0.56424 0.15762 0.0
C25 C 1.04605 0.69475 0.18159 0.0
C26 C 0.95188 0.63884 0.201 0.0
C27 C 0.95825 0.67232 0.18208 0.0
C28 C 1.00525 0.70005 0.17233 0.0
C29 C 1.04093 0.66594 0.20227 0.0
C30 C 0.99397 0.63771 0.2118 0.0
C31 C 1.08826 0.70708 0.16678 0.0
H32 H 0.33191 0.48081 0.21476 0.0
H33 H 0.2485 0.47104 0.20347 0.0
H34 H 0.31977 0.62743 0.18272 0.0
H35 H 0.40209 0.63661 0.19231 0.0
H36 H 0.92588 0.6731 0.17325 0.0
H37 H 1.00843 0.72165 0.15626 0.0
H38 H 1.07192 0.6613 0.2097 0.0
H39 H 0.98969 0.61192 0.22626 0.0
Tb40 Tb 0.74035 0.15686 0.506 0.0
Eu41 Eu 0.62274 0.11076 0.50516 0.0
C42 C 0.68706 0.12991 0.55216 0.0
C43 C 0.67285 1.0375 0.50649 0.0
C44 C 0.86854 0.25553 0.50857 0.0
C45 C 0.91146 0.3332 0.53202 0.0
C46 C 0.89655 0.28226 0.52943 0.0
C47 C 0.86066 0.28162 0.4893 0.0
C48 C 0.87626 0.33258 0.49175 0.0
C49 C 0.8993 0.35804 0.51358 0.0
C50 C 0.83514 0.20097 0.51005 0.0
O51 O 0.71873 0.16349 0.46846 0.0
O52 O 0.63615 0.09995 0.46721 0.0
O53 O 0.65088 0.19124 0.49496 0.0
O54 O 0.72833 0.2214 0.51453 0.0
C55 C 0.67674 0.13116 0.45615 0.0
O56 O 0.54516 1.08329 0.49045 0.0
O57 O 0.56244 1.09147 0.5289 0.0
O58 O 0.65979 0.14656 0.5409 0.0
O59 O 0.71394 0.11806 0.53948 0.0
O60 O 0.71428 1.0769 0.49933 0.0
O61 O 0.63373 1.04227 0.51168 0.0
C62 C 0.69073 0.22861 0.50606 0.0
O63 O 0.80696 0.18831 0.52825 0.0
O64 O 0.80882 0.1775 0.49041 0.0
C65 C 0.49368 1.01659 0.51536 0.0
C66 C 0.44456 0.9139 0.52653 0.0
C67 C 0.47029 0.93086 0.50543 0.0
C68 C 0.49462 0.98157 0.49992 0.0
C69 C 0.46921 1.00019 0.53684 0.0
C70 C 0.44468 0.94893 0.54243 0.0
C71 C 0.52735 1.07029 0.51166 0.0
H72 H 0.93024 0.35245 0.54884 0.0
H73 H 0.9026 0.26265 0.54456 0.0
H74 H 0.8391 0.26206 0.47296 0.0
H75 H 0.86881 0.35162 0.4768 0.0
H76 H 0.46975 0.90459 0.4925 0.0
H77 H 0.51474 0.99322 0.48366 0.0
H78 H 0.46992 1.02713 0.54941 0.0
H79 H 0.42468 0.93646 0.55869 0.0
Tb80 Tb 0.70301 0.67618 0.83899 0.0
Eu81 Eu 0.63118 0.55732 0.83951 0.0
C82 C 0.67588 0.62026 0.88581 0.0
C83 C 0.75441 0.60798 0.8422 0.0
C84 C 0.73885 0.80604 0.8356 0.0
C85 C 0.72006 0.86899 0.84968 0.0
C86 C 0.74989 0.84595 0.8513 0.0
C87 C 0.70018 0.79154 0.81735 0.0
C88 C 0.67045 0.81408 0.81586 0.0
C89 C 0.67898 0.85172 0.83248 0.0
C90 C 0.75601 0.7705 0.84214 0.0
O91 O 0.67528 0.65817 0.80145 0.0
O92 O 0.65199 0.57406 0.80106 0.0
O93 O 0.57516 0.58336 0.83132 0.0
O94 O 0.62623 0.66472 0.84513 0.0
C95 C 0.66318 0.61625 0.78975 0.0
O96 O 0.58011 0.48118 0.82527 0.0
O97 O 0.59613 0.49422 0.86367 0.0
O98 O 0.63216 0.59238 0.87436 0.0
O99 O 0.7145 0.64849 0.87336 0.0
O100 O 0.75607 0.64932 0.83378 0.0
O101 O 0.71094 0.56883 0.84769 0.0
C102 C 0.58049 0.62594 0.83922 0.0
O103 O 0.73247 0.74203 0.85989 0.0
O104 O 0.75772 0.7442 0.82448 0.0
C105 C 0.60387 0.42984 0.84795 0.0
C106 C 0.66302 0.38344 0.85526 0.0
C107 C 0.67041 0.41584 0.83583 0.0
C108 C 0.64135 0.43884 0.83228 0.0
C109 C 0.59762 0.39942 0.86802 0.0
C110 C 0.62712 0.37628 0.87168 0.0
C111 C 0.58042 0.46133 0.84621 0.0
H112 H 0.72772 0.89863 0.8624 0.0
H113 H 0.77895 0.85666 0.8658 0.0
H114 H 0.68993 0.75978 0.80548 0.0
H115 H 0.63861 0.79962 0.80263 0.0
H116 H 0.69645 0.42118 0.82233 0.0
H117 H 0.6486 0.46396 0.81721 0.0
H118 H 0.57038 0.39406 0.88089 0.0
H119 H 0.62042 0.35108 0.88666 0.0
C120 C 0.79278 0.24629 0.20221 0.0
C121 C 0.79776 0.29323 0.20847 0.0
C122 C 0.88336 0.33993 0.19336 0.0
C123 C 0.84246 0.33923 0.20428 0.0
C124 C 0.87758 0.29269 0.18692 0.0
C125 C 0.8336 0.247 0.19154 0.0
U126 U 0.67084 0.123 0.22638 0.0
O127 O 0.59502 1.08762 0.20705 0.0
O128 O 0.63669 1.04624 0.21018 0.0
C129 C 0.59468 1.04544 0.2022 0.0
C130 C 0.7435 0.19712 0.20269 0.0
C131 C 0.54495 0.99659 0.202 0.0
C132 C 0.45611 0.94898 0.18646 0.0
C133 C 0.50162 0.99493 0.19052 0.0
C134 C 0.49492 0.90414 0.20581 0.0
C135 C 0.45142 0.90255 0.19421 0.0
C136 C 0.54103 0.95035 0.2095 0.0
C137 C 0.67464 0.12809 0.30002 0.0
C138 C 0.64411 0.14321 0.33654 0.0
C139 C 0.7063 0.11581 0.3395 0.0
C140 C 0.70596 0.1149 0.31437 0.0
C141 C 0.67495 0.12944 0.35093 0.0
C142 C 0.64396 0.14255 0.31145 0.0
C143 C 0.67339 0.12619 0.27333 0.0
O144 O 0.74452 0.15618 0.20971 0.0
O145 O 0.70235 0.19713 0.20845 0.0
O146 O 0.65047 0.14514 0.25948 0.0
O147 O 0.69521 0.1057 0.26186 0.0
H148 H 0.76677 0.29457 0.21616 0.0
H149 H 0.84475 0.37433 0.2095 0.0
H150 H 0.90625 0.2906 0.17742 0.0
H151 H 0.8307 0.21192 0.18573 0.0
H152 H 0.42503 0.95005 0.17643 0.0
H153 H 0.50343 1.0293 0.18374 0.0
H154 H 0.49347 0.86959 0.21198 0.0
H155 H 0.57381 0.94964 0.21782 0.0
H156 H 0.62027 0.15491 0.3447 0.0
H157 H 0.73053 0.10502 0.35 0.0
H158 H 0.73019 0.10372 0.30619 0.0
H159 H 0.61949 0.1531 0.30099 0.0
C160 C 0.67408 0.75294 0.53728 0.0
C161 C 0.71452 0.79922 0.54643 0.0
C162 C 0.67324 0.8462 0.52963 0.0
C163 C 0.71376 0.84488 0.54298 0.0
C164 C 0.63213 0.79947 0.52127 0.0
C165 C 0.63258 0.75385 0.52503 0.0
U166 U 0.67936 0.62998 0.56089 0.0
O167 O 0.6406 0.55679 0.54105 0.0
O168 O 0.72353 0.59785 0.5463 0.0
C169 C 0.68299 0.55752 0.53711 0.0
C170 C 0.67716 0.70516 0.53694 0.0
C171 C 0.68244 0.50807 0.53562 0.0
C172 C 0.65779 0.43196 0.51167 0.0
C173 C 0.65626 0.47647 0.51566 0.0
C174 C 0.71068 0.44775 0.54812 0.0
C175 C 0.6841 0.41576 0.528 0.0
C176 C 0.71021 0.49342 0.55178 0.0
C177 C 0.67272 0.62486 0.63397 0.0
C178 C 0.65394 0.57706 0.67101 0.0
C179 C 0.68452 0.66694 0.67241 0.0
C180 C 0.68753 0.66894 0.64742 0.0
C181 C 0.66747 0.62089 0.68468 0.0
C182 C 0.65578 0.57893 0.64597 0.0
C183 C 0.67514 0.62676 0.60756 0.0
O184 O 0.71924 0.70635 0.54519 0.0
O185 O 0.6364 0.66209 0.54124 0.0
O186 O 0.63425 0.60415 0.59291 0.0
O187 O 0.71832 0.65091 0.59719 0.0
H188 H 0.7474 0.80047 0.55583 0.0
H189 H 0.74539 0.8792 0.55072 0.0
H190 H 0.60014 0.79813 0.51092 0.0
H191 H 0.60102 0.71924 0.5174 0.0
H192 H 0.63924 0.41118 0.4952 0.0
H193 H 0.63553 0.4871 0.50252 0.0
H194 H 0.73188 0.43757 0.56115 0.0
H195 H 0.73173 0.51729 0.56713 0.0
H196 H 0.64267 0.54121 0.6796 0.0
H197 H 0.69511 0.70155 0.68208 0.0
H198 H 0.7008 0.70488 0.63855 0.0
H199 H 0.64474 0.54451 0.63599 0.0
C200 C 1.04178 0.6074 0.87077 0.0
C201 C 1.03467 0.64361 0.88245 0.0
C202 C 0.94747 0.60733 0.86409 0.0
C203 C 0.988 0.64311 0.87944 0.0
C204 C 0.95471 0.57061 0.85292 0.0
C205 C 1.00088 0.57063 0.85626 0.0
U206 U 0.17452 0.61341 0.89158 0.0
O207 O 0.20384 0.57228 0.87178 0.0
O208 O 0.24406 0.65495 0.87187 0.0
C209 C 0.24395 0.61376 0.86527 0.0
C210 C 1.09231 0.61017 0.87052 0.0
C211 C 0.29353 0.6141 0.86608 0.0
C212 C 0.3426 0.57744 0.85151 0.0
C213 C 0.29592 0.57498 0.85442 0.0
C214 C 0.38622 0.65728 0.87295 0.0
C215 C 0.38889 0.61918 0.86021 0.0
C216 C 0.3394 0.65507 0.8756 0.0
C217 C 0.1816 0.61563 0.96381 0.0
C218 C 0.21621 0.63011 1.00525 0.0
C219 C 1.12631 0.59775 0.99656 0.0
C220 C 1.13306 0.59879 0.97182 0.0
C221 C 0.16792 0.61311 0.01356 0.0
C222 C 0.2229 0.63147 0.98074 0.0
C223 C 0.19157 0.6149 0.93835 0.0
O224 O 1.13404 0.65254 0.87684 0.0
O225 O 1.09544 0.56962 0.87599 0.0
O226 O 0.16502 0.57285 0.92567 0.0
O227 O 0.20654 0.65623 0.92572 0.0
H228 H 1.06534 0.67278 0.89364 0.0
H229 H 0.98398 0.67103 0.88919 0.0
H230 H 0.92518 0.54256 0.84086 0.0
H231 H 1.00522 0.54265 0.84667 0.0
H232 H 0.34234 0.54719 0.8416 0.0
H233 H 0.26153 0.54303 0.84669 0.0
H234 H 0.42035 0.68917 0.88083 0.0
H235 H 0.33933 0.686 0.88472 0.0
H236 H 0.24904 0.64256 0.01778 0.0
H237 H 1.08851 0.58395 1.00241 0.0
H238 H 1.10054 0.586 0.95908 0.0
H239 H 0.26064 0.64435 0.97497 0.0
C240 C 1.05214 0.63485 0.47326 0.0
C241 C 1.00571 0.60062 0.46153 0.0
C242 C 0.97384 0.56551 0.50002 0.0
C243 C 0.96649 0.56597 0.4749 0.0
C244 C 1.01675 0.60611 0.51164 0.0
C245 C 1.05625 0.64042 0.49822 0.0
U246 U 1.1254 0.64379 0.41869 0.0
O247 O 0.18872 0.62927 0.41677 0.0
O248 O 0.20107 0.70583 0.41054 0.0
C249 C 0.22184 0.67774 0.41613 0.0
C250 C 1.09848 0.65233 0.46103 0.0
C251 C 0.25791 0.69578 0.43707 0.0
C252 C 0.26935 0.69987 0.48047 0.0
C253 C 0.23954 0.67739 0.45968 0.0
C254 C 0.33792 0.75769 0.45645 0.0
C255 C 0.31808 0.74098 0.47898 0.0
C256 C 0.30772 0.73524 0.43546 0.0
C257 C 1.0824 0.59931 0.35781 0.0
C258 C 0.14866 0.63913 0.32998 0.0
C259 C 1.07355 0.55856 0.31968 0.0
C260 C 1.05468 0.55839 0.34185 0.0
C261 C 1.12014 0.59954 0.31358 0.0
C262 C 1.13022 0.63878 0.35201 0.0
C263 C 1.06452 0.60093 0.38125 0.0
O264 O 1.10617 0.61546 0.45483 0.0
O265 O 1.10777 0.68608 0.44424 0.0
O266 O 1.07722 0.64683 0.38846 0.0
O267 O 1.07341 0.57454 0.39781 0.0
H268 H 1.00223 0.59602 0.44221 0.0
H269 H 0.9341 0.53513 0.46529 0.0
H270 H 1.02297 0.60679 0.53096 0.0
H271 H 1.0921 0.66692 0.50745 0.0
H272 H 0.25336 0.68713 0.49769 0.0
H273 H 0.20107 0.64716 0.46138 0.0
H274 H 0.3754 0.79026 0.4551 0.0
H275 H 0.32217 0.75026 0.4182 0.0
H276 H 0.18439 0.67121 0.32537 0.0
H277 H 1.05097 0.528 0.30693 0.0
H278 H 1.01839 0.52706 0.34633 0.0
H279 H 0.15303 0.6701 0.36434 0.0
C280 C 0.51893 0.99176 0.80447 0.0
C281 C 0.49387 0.94378 0.79355 0.0
C282 C 0.52865 0.91409 0.82595 0.0
C283 C 0.4975 0.90428 0.8047 0.0
C284 C 0.54342 0.95851 0.8391 0.0
C285 C 0.53828 0.99737 0.82832 0.0
U286 U 0.56778 1.06061 0.74543 0.0
O287 O 0.58118 0.13664 0.73562 0.0
O288 O 0.64479 0.12198 0.73961 0.0
C289 C 0.63065 0.15621 0.7391 0.0
C290 C 0.54298 1.03645 0.78972 0.0
C291 C 0.65399 0.19225 0.75917 0.0
C292 C 0.66956 0.20306 0.80226 0.0
C293 C 0.65327 0.17238 0.78208 0.0
C294 C 0.6902 0.27565 0.77707 0.0
C295 C 0.68684 0.2546 0.80004 0.0
C296 C 0.67367 0.24436 0.75657 0.0
C297 C 0.5592 1.00904 0.68584 0.0
C298 C 0.57876 1.06669 0.6525 0.0
C299 C 0.61035 1.00769 0.65474 0.0
C300 C 0.58648 0.98865 0.67604 0.0
C301 C 0.60684 1.04707 0.6429 0.0
C302 C 0.5554 1.04808 0.67379 0.0
C303 C 0.54279 0.9964 0.71037 0.0
O304 O 0.5852 1.04294 0.78153 0.0
O305 O 0.51436 1.04449 0.77361 0.0
O306 O 0.51227 1.01232 0.71694 0.0
O307 O 0.57988 1.00543 0.72651 0.0
H308 H 0.47855 0.93883 0.77512 0.0
H309 H 0.48452 0.86959 0.79457 0.0
H310 H 0.567 0.9671 0.85564 0.0
H311 H 0.55752 1.03431 0.83701 0.0
H312 H 0.66603 0.18601 0.81974 0.0
H313 H 0.63866 0.13257 0.78455 0.0
H314 H 0.70253 0.31546 0.77508 0.0
H315 H 0.67444 0.26035 0.73902 0.0
H316 H 0.57517 0.09678 0.64362 0.0
H317 H 0.63258 0.99255 0.64788 0.0
H318 H 0.59105 0.9595 0.68535 0.0
H319 H 0.53576 1.06559 0.68115 0.0
C320 C 0.67086 0.47858 0.14746 0.0
C321 C 0.71369 0.47937 0.13934 0.0
C322 C 0.75021 0.4932 0.18024 0.0
C323 C 0.75328 0.48655 0.15571 0.0
C324 C 0.70399 0.48419 0.1885 0.0
C325 C 0.6645 0.47742 0.17207 0.0
U326 U 0.64134 0.52096 0.08669 0.0
O327 O 0.56799 0.51201 0.07236 0.0
O328 O 0.63388 0.58788 0.07877 0.0
C329 C 0.58424 0.56033 0.07612 0.0
C330 C 0.64124 0.49358 0.13139 0.0
C331 C 0.55833 0.57034 0.09452 0.0
C332 C 0.55548 0.58163 0.13704 0.0
C333 C 0.58215 0.58299 0.11775 0.0
C334 C 0.48105 0.55826 0.11015 0.0
C335 C 0.50467 0.56875 0.1335 0.0
C336 C 0.50778 0.55874 0.09069 0.0
C337 C 0.70083 0.53738 0.03101 0.0
C338 C 0.66617 0.57214 1.001 0.0
C339 C 0.73411 0.55673 0.99176 0.0
C340 C 0.73493 0.53903 0.01499 0.0
C341 C 0.69931 0.57292 0.98464 0.0
C342 C 0.66691 0.55447 0.02395 0.0
C343 C 0.69915 0.51855 0.05528 0.0
O344 O 0.66756 0.54046 0.12424 0.0
O345 O 0.61243 0.46167 0.11409 0.0
O346 O 0.65521 0.47883 0.05966 0.0
O347 O 0.71613 0.55425 0.07186 0.0
H348 H 0.71908 0.48061 0.12033 0.0
H349 H 0.78853 0.49339 0.14883 0.0
H350 H 0.70063 0.48843 0.20736 0.0
H351 H 0.63152 0.47695 0.17853 0.0
H352 H 0.57409 0.58842 0.15486 0.0
H353 H 0.62093 0.59145 0.12136 0.0
H354 H 0.44163 0.54828 0.10711 0.0
H355 H 0.48857 0.54804 0.07299 0.0
H356 H 0.63925 0.58467 0.99592 0.0
H357 H 0.75957 0.55652 0.97921 0.0
H358 H 0.76145 0.52615 0.0203 0.0
H359 H 0.64042 0.55354 0.03617 0.0
C360 C 0.39859 0.51433 0.17505 0.0
C361 C 0.41391 0.55374 0.19201 0.0
C362 C 0.42891 0.51909 0.15654 0.0
C363 C 0.47574 0.5631 0.15444 0.0
H364 H 0.36081 0.48165 0.17442 0.0
H365 H 0.41461 0.48899 0.14322 0.0
S366 S 0.53777 0.67238 0.19682 0.0
N367 N 0.48264 0.634 0.2079 0.0
N368 N 0.53939 0.6439 0.17239 0.0
C369 C 0.49395 0.60045 0.17256 0.0
C370 C 0.46323 0.59528 0.19165 0.0
C371 C 0.96208 0.44663 0.52502 0.0
C372 C 0.91271 0.41122 0.51649 0.0
C373 C 0.9798 0.49825 0.52277 0.0
C374 C 0.94865 0.51608 0.51188 0.0
H375 H 0.98869 0.43453 0.53142 0.0
H376 H 1.01982 0.52375 0.5271 0.0
S377 S 0.81305 0.43889 0.49175 0.0
N378 N 0.83023 0.39727 0.50059 0.0
N379 N 0.86379 0.49499 0.49676 0.0
C380 C 0.8974 0.48125 0.5062 0.0
C381 C 0.8794 0.42855 0.50825 0.0
C382 C 0.62625 0.881 0.80997 0.0
C383 C 0.64252 0.86999 0.83213 0.0
C384 C 0.58688 0.89166 0.80814 0.0
C385 C 0.56213 0.89198 0.82845 0.0
H386 H 0.64412 0.8813 0.7938 0.0
H387 H 0.57731 0.90177 0.79067 0.0
S388 S 0.58905 0.86334 0.89062 0.0
N389 N 0.63039 0.85839 0.87487 0.0
N390 N 0.55581 0.87912 0.87139 0.0
C391 C 0.57794 0.88098 0.85082 0.0
C392 C 0.61852 0.87021 0.85272 0.0
C393 C 0.88753 0.54801 0.19941 0.0
C394 C 0.90054 0.5979 0.20522 0.0
C395 C 0.83688 0.51111 0.19428 0.0
C396 C 0.79806 0.52318 0.19492 0.0
H397 H 0.91677 0.53881 0.19628 0.0
H398 H 0.82855 0.47457 0.18746 0.0
S399 S 0.81303 0.64626 0.21383 0.0
N400 N 0.87133 0.6555 0.21519 0.0
N401 N 0.77582 0.58668 0.2053 0.0
C402 C 0.81046 0.57133 0.20363 0.0
C403 C 0.86198 0.60871 0.20881 0.0
C404 C 0.4256 0.8261 0.52169 0.0
C405 C 0.40889 0.85953 0.52809 0.0
C406 C 0.39393 0.78361 0.50732 0.0
C407 C 0.34439 0.77251 0.5003 0.0
H408 H 0.46545 0.83737 0.52426 0.0
H409 H 0.40968 0.76242 0.49976 0.0
S410 S 0.27861 0.83938 0.5191 0.0
N411 N 0.33691 0.87232 0.53138 0.0
N412 N 0.27667 0.79134 0.50503 0.0
C413 C 0.32467 0.80026 0.51042 0.0
C414 C 0.35709 0.84383 0.52469 0.0
C415 C 0.64419 0.29631 0.85153 0.0
C416 C 0.68167 0.34752 0.85366 0.0
C417 C 0.64843 0.26478 0.83538 0.0
C418 C 0.69086 0.28333 0.82156 0.0
H419 H 0.60791 0.28248 0.85918 0.0
H420 H 0.61585 0.22753 0.83184 0.0
S421 S 0.80768 0.40796 0.82842 0.0
N422 N 0.76889 0.4105 0.84691 0.0
N423 N 0.77658 0.35095 0.81589 0.0
C424 C 0.73244 0.33128 0.82695 0.0
C425 C 0.72836 0.36316 0.84374 0.0
C426 C 0.62856 0.94382 0.51699 0.0
C427 C 0.67305 0.98851 0.51136 0.0
C428 C 0.62903 0.89869 0.52303 0.0
C429 C 0.67398 0.89559 0.52375 0.0
H430 H 0.59293 0.94369 0.51698 0.0
H431 H 0.59367 0.86603 0.52749 0.0
S432 S 0.80111 1.0016 0.51012 0.0
N433 N 0.76374 1.02636 0.5071 0.0
N434 N 0.7642 0.94211 0.5174 0.0
C435 C 0.71866 0.94001 0.51795 0.0
C436 C 0.71825 0.986 0.51198 0.0
C437 C 0.80503 0.56278 0.85068 0.0
C438 C 0.80367 0.6081 0.84762 0.0
C439 C 0.85115 0.56292 0.85616 0.0
C440 C 0.89833 0.60837 0.8591 0.0
H441 H 0.77021 0.52675 0.84868 0.0
H442 H 0.84958 0.52681 0.85834 0.0
S443 S 0.91547 0.73779 0.85395 0.0
N444 N 0.85383 0.69996 0.849 0.0
N445 N 0.93967 0.70023 0.85845 0.0
C446 C 0.89721 0.65396 0.85633 0.0
C447 C 0.85033 0.6538 0.85079 0.0
C448 C 0.35454 0.76239 0.17782 0.0
C449 C 0.30689 0.75937 0.17889 0.0
C450 C 0.40073 0.80807 0.18306 0.0
C451 C 0.40175 0.85313 0.18974 0.0
H452 H 0.35635 0.72926 0.17278 0.0
H453 H 0.43598 0.80817 0.18141 0.0
S454 S 0.28771 0.8651 0.19735 0.0
N455 N 0.26443 0.80617 0.1882 0.0
N456 N 0.34984 0.88983 0.19888 0.0
C457 C 0.3543 0.85009 0.19153 0.0
C458 C 0.3075 0.80403 0.18593 0.0
C459 C 0.72982 0.31776 0.52418 0.0
C460 C 0.68913 0.27632 0.51155 0.0
C461 C 0.72761 0.36173 0.52996 0.0
C462 C 0.68452 0.3667 0.5235 0.0
H463 H 0.76398 0.31647 0.52958 0.0
H464 H 0.76075 0.39263 0.53908 0.0
S465 S 0.56351 0.26502 0.49433 0.0
N466 N 0.60195 0.24151 0.49506 0.0
N467 N 0.59702 0.32163 0.5069 0.0
C468 C 0.64245 0.32409 0.51213 0.0
C469 C 0.64498 0.27986 0.50591 0.0
C470 C 0.48924 0.58072 0.85014 0.0
C471 C 0.53287 0.6264 0.84459 0.0
C472 C 0.44386 0.57899 0.8556 0.0
C473 C 0.43912 0.62275 0.85549 0.0
H474 H 0.49018 0.54566 0.85061 0.0
H475 H 0.41224 0.54276 0.86007 0.0
S476 S 0.54045 0.75112 0.84006 0.0
N477 N 0.56775 0.71624 0.83871 0.0
N478 N 0.48215 0.71294 0.84774 0.0
C479 C 0.48237 0.66863 0.84969 0.0
C480 C 0.52906 0.67046 0.84457 0.0
C481 C 0.97302 0.47842 0.17492 0.0
C482 C 1.02152 0.48279 0.17619 0.0
C483 C 0.92903 0.43285 0.18066 0.0
C484 C 0.93113 0.38921 0.18814 0.0
H485 H 0.96882 0.51048 0.16943 0.0
H486 H 0.89289 0.43178 0.17886 0.0
S487 S 1.04929 0.38126 0.19641 0.0
N488 N 1.06852 0.43878 0.18635 0.0
N489 N 0.9875 0.35552 0.19811 0.0
C490 C 0.97966 0.3936 0.19004 0.0
C491 C 1.02416 0.43952 0.18386 0.0
C492 C 0.18254 0.59039 0.08031 0.0
C493 C 0.15928 0.61412 0.09117 0.0
C494 C 0.1842 0.5894 0.05527 0.0
C495 C 0.16202 0.6114 0.03995 0.0
H496 H 0.20077 0.57349 0.09124 0.0
H497 H 0.20338 0.57149 0.04781 0.0
S498 S 1.09424 0.67614 0.05914 0.0
N499 N 1.11189 0.65867 0.08444 0.0
N500 N 1.115 0.65656 0.03753 0.0
C501 C 1.13745 0.63404 0.05051 0.0
C502 C 1.1362 0.63555 0.07603 0.0
C503 C 0.72058 0.15387 0.41735 0.0
C504 C 0.67519 0.13034 0.42931 0.0
C505 C 0.72022 0.15304 0.39216 0.0
C506 C 0.67446 0.12927 0.37773 0.0
H507 H 0.75689 0.17281 0.42752 0.0
H508 H 0.75616 0.17177 0.38388 0.0
S509 S 0.545 1.0614 0.39983 0.0
N510 N 0.58297 1.08203 0.42444 0.0
N511 N 0.58252 1.08061 0.37736 0.0
C512 C 0.62882 0.10558 0.38941 0.0
C513 C 0.62914 0.10602 0.41505 0.0
C514 C 0.70122 0.65814 0.75139 0.0
C515 C 0.66286 0.6169 0.76308 0.0
C516 C 0.70253 0.65895 0.72625 0.0
C517 C 0.66485 0.61904 0.71156 0.0
H518 H 0.73122 0.68961 0.7618 0.0
H519 H 0.73392 0.69094 0.71834 0.0
S520 S 0.55266 0.50489 0.73353 0.0
N521 N 0.58493 0.53635 0.75821 0.0
N522 N 0.58533 0.53892 0.71111 0.0
C523 C 0.62531 0.57826 0.72316 0.0
C524 C 0.62481 0.57696 0.74881 0.0
C525 C 0.67943 0.14068 0.59517 0.0
C526 C 0.67304 0.10884 0.57596 0.0
C527 C 0.65963 0.12043 0.61719 0.0
C528 C 0.63176 1.06772 0.62038 0.0
H529 H 0.699 0.18134 0.59301 0.0
H530 H 0.66517 0.14615 0.63165 0.0
S531 S 0.60095 0.96875 0.57462 0.0
N532 N 0.6362 1.02262 0.56111 0.0
N533 N 0.59677 0.98443 0.60208 0.0
C534 C 0.62517 1.03566 0.60121 0.0
C535 C 0.64627 1.05631 0.57903 0.0
C536 C 0.64086 0.57656 0.92363 0.0
C537 C 0.68275 0.61235 0.91152 0.0
C538 C 0.64675 0.56439 0.94734 0.0
C539 C 0.69468 0.58758 0.9598 0.0
H540 H 0.60329 0.55686 0.91464 0.0
H541 H 0.61365 0.53583 0.95584 0.0
S542 S 0.81563 0.68683 0.93713 0.0
N543 N 0.77343 0.67307 0.91428 0.0
N544 N 0.78407 0.6501 0.95916 0.0
C545 C 0.73663 0.62445 0.94827 0.0
C546 C 0.73073 0.637 0.92406 0.0
C547 C 1.13968 0.64788 0.25091 0.0
C548 C 0.15864 0.61994 0.24032 0.0
C549 C 1.12812 0.64121 0.27482 0.0
C550 C 1.13492 0.60619 0.28886 0.0
H551 H 1.133 0.6746 0.24053 0.0
H552 H 1.11271 0.66282 0.28229 0.0
S553 S 0.18795 0.52718 0.27036 0.0
N554 N 0.18724 0.55857 0.24601 0.0
N555 N 0.16507 0.54589 0.29143 0.0
C556 C 0.15589 0.5795 0.27894 0.0
C557 C 0.16815 0.58662 0.2545 0.0
loop_
_geom_bond_atom_site_label_1
_geom_bond_atom_site_label_2
_geom_bond_distance
_geom_bond_site_symmetry_2
_ccdc_geom_bond_type
Tb0 C10 2.825 . S
Tb0 O11 2.347 . S
Tb0 O14 2.366 . S
Tb0 O19 2.418 . S
Tb0 O20 2.384 1_455 S
Tb0 O23 2.479 . S
Tb0 O24 2.471 . S
Eu1 O12 2.418 . S
Eu1 O13 2.384 1_655 S
Eu1 O16 2.479 . S
Eu1 O17 2.471 . S
Eu1 O18 2.347 1_655 S
Eu1 O21 2.366 . S
Eu1 C31 2.825 . S
C2 O18 1.259 . S
C2 O19 1.265 . S
C3 O20 1.255 . S
C3 O21 1.265 . S
C4 C6 1.380 . S
C4 C7 1.374 . S
C4 C10 1.507 . S
C5 C6 1.384 . S
C5 C9 1.387 . S
C5 H32 0.930 . S
C6 C4 1.380 . S
C6 C5 1.384 . S
C6 H33 0.931 . S
C7 C4 1.374 . S
C7 C8 1.390 . S
C7 H34 0.930 . S
C8 C7 1.390 . S
C8 C9 1.391 . S
C8 H35 0.930 . S
C9 C5 1.387 . S
C9 C8 1.391 . S
C10 Tb0 2.825 . S
C10 C4 1.507 . S
C10 O23 1.238 . S
C10 O24 1.247 . S
O11 Tb0 2.347 . S
O11 C15 1.259 . S
O12 Eu1 2.418 . S
O12 C15 1.265 1_655 S
O13 Eu1 2.384 1_455 S
O13 C22 1.255 . S
O14 Tb0 2.366 . S
O14 C22 1.265 . S
C15 O11 1.259 . S
C15 O12 1.265 1_455 S
O16 Eu1 2.479 . S
O16 C31 1.238 . S
O17 Eu1 2.471 . S
O17 C31 1.247 . S
O18 Eu1 2.347 1_455 S
O18 C2 1.259 . S
O19 Tb0 2.418 . S
O19 C2 1.265 . S
O20 Tb0 2.384 1_655 S
O20 C3 1.255 . S
O21 Eu1 2.366 . S
O21 C3 1.265 . S
C22 O13 1.255 . S
C22 O14 1.265 . S
O23 Tb0 2.479 . S
O23 C10 1.238 . S
O24 Tb0 2.471 . S
O24 C10 1.247 . S
C25 C28 1.380 . S
C25 C29 1.374 . S
C25 C31 1.507 . S
C26 C27 1.387 . S
C26 C30 1.391 . S
C27 C26 1.387 . S
C27 C28 1.384 . S
C27 H36 0.930 . S
C28 C25 1.380 . S
C28 C27 1.384 . S
C28 H37 0.931 . S
C29 C25 1.374 . S
C29 C30 1.390 . S
C29 H38 0.930 . S
C30 C26 1.391 . S
C30 C29 1.390 . S
C30 H39 0.930 . S
C31 Eu1 2.825 . S
C31 O16 1.238 . S
C31 O17 1.247 . S
C31 C25 1.507 . S
H32 C5 0.930 . S
H33 C6 0.931 . S
H34 C7 0.930 . S
H35 C8 0.930 . S
H36 C27 0.930 . S
H37 C28 0.931 . S
H38 C29 0.930 . S
H39 C30 0.930 . S
Tb40 C50 2.825 . S
Tb40 O51 2.347 . S
Tb40 O54 2.366 . S
Tb40 O59 2.418 . S
Tb40 O60 2.384 1_545 S
Tb40 O63 2.479 . S
Tb40 O64 2.471 . S
Eu41 O52 2.418 . S
Eu41 O53 2.384 . S
Eu41 O56 2.479 1_545 S
Eu41 O57 2.471 1_545 S
Eu41 O58 2.347 . S
Eu41 O61 2.366 1_545 S
Eu41 C71 2.825 1_545 S
C42 O58 1.259 . S
C42 O59 1.265 . S
C43 O60 1.255 . S
C43 O61 1.265 . S
C44 C46 1.380 . S
C44 C47 1.374 . S
C44 C50 1.507 . S
C45 C46 1.384 . S
C45 C49 1.387 . S
C45 H72 0.930 . S
C46 C44 1.380 . S
C46 C45 1.384 . S
C46 H73 0.931 . S
C47 C44 1.374 . S
C47 C48 1.390 . S
C47 H74 0.930 . S
C48 C47 1.390 . S
C48 C49 1.391 . S
C48 H75 0.930 . S
C49 C45 1.387 . S
C49 C48 1.391 . S
C50 Tb40 2.825 . S
C50 C44 1.507 . S
C50 O63 1.238 . S
C50 O64 1.247 . S
O51 Tb40 2.347 . S
O51 C55 1.259 . S
O52 Eu41 2.418 . S
O52 C55 1.265 . S
O53 Eu41 2.384 . S
O53 C62 1.255 . S
O54 Tb40 2.366 . S
O54 C62 1.265 . S
C55 O51 1.259 . S
C55 O52 1.265 . S
O56 Eu41 2.479 1_565 S
O56 C71 1.238 . S
O57 Eu41 2.471 1_565 S
O57 C71 1.247 . S
O58 Eu41 2.347 . S
O58 C42 1.259 . S
O59 Tb40 2.418 . S
O59 C42 1.265 . S
O60 Tb40 2.384 1_565 S
O60 C43 1.255 . S
O61 Eu41 2.366 1_565 S
O61 C43 1.265 . S
C62 O53 1.255 . S
C62 O54 1.265 . S
O63 Tb40 2.479 . S
O63 C50 1.238 . S
O64 Tb40 2.471 . S
O64 C50 1.247 . S
C65 C68 1.380 . S
C65 C69 1.374 . S
C65 C71 1.507 . S
C66 C67 1.387 . S
C66 C70 1.391 . S
C67 C66 1.387 . S
C67 C68 1.384 . S
C67 H76 0.930 . S
C68 C65 1.380 . S
C68 C67 1.384 . S
C68 H77 0.931 . S
C69 C65 1.374 . S
C69 C70 1.390 . S
C69 H78 0.930 . S
C70 C66 1.391 . S
C70 C69 1.390 . S
C70 H79 0.930 . S
C71 Eu41 2.825 1_565 S
C71 O56 1.238 . S
C71 O57 1.247 . S
C71 C65 1.507 . S
H72 C45 0.930 . S
H73 C46 0.931 . S
H74 C47 0.930 . S
H75 C48 0.930 . S
H76 C67 0.930 . S
H77 C68 0.931 . S
H78 C69 0.930 . S
H79 C70 0.930 . S
Tb80 C90 2.825 . S
Tb80 O91 2.347 . S
Tb80 O94 2.366 . S
Tb80 O99 2.418 . S
Tb80 O100 2.384 . S
Tb80 O103 2.479 . S
Tb80 O104 2.471 . S
Eu81 O92 2.418 . S
Eu81 O93 2.384 . S
Eu81 O96 2.479 . S
Eu81 O97 2.471 . S
Eu81 O98 2.347 . S
Eu81 O101 2.366 . S
Eu81 C111 2.825 . S
C82 O98 1.259 . S
C82 O99 1.265 . S
C83 O100 1.255 . S
C83 O101 1.265 . S
C84 C86 1.380 . S
C84 C87 1.374 . S
C84 C90 1.507 . S
C85 C86 1.384 . S
C85 C89 1.387 . S
C85 H112 0.930 . S
C86 C84 1.380 . S
C86 C85 1.384 . S
C86 H113 0.931 . S
C87 C84 1.374 . S
C87 C88 1.390 . S
C87 H114 0.930 . S
C88 C87 1.390 . S
C88 C89 1.391 . S
C88 H115 0.930 . S
C89 C85 1.387 . S
C89 C88 1.391 . S
C90 Tb80 2.825 . S
C90 C84 1.507 . S
C90 O103 1.238 . S
C90 O104 1.247 . S
O91 Tb80 2.347 . S
O91 C95 1.259 . S
O92 Eu81 2.418 . S
O92 C95 1.265 . S
O93 Eu81 2.384 . S
O93 C102 1.255 . S
O94 Tb80 2.366 . S
O94 C102 1.265 . S
C95 O91 1.259 . S
C95 O92 1.265 . S
O96 Eu81 2.479 . S
O96 C111 1.238 . S
O97 Eu81 2.471 . S
O97 C111 1.247 . S
O98 Eu81 2.347 . S
O98 C82 1.259 . S
O99 Tb80 2.418 . S
O99 C82 1.265 . S
O100 Tb80 2.384 . S
O100 C83 1.255 . S
O101 Eu81 2.366 . S
O101 C83 1.265 . S
C102 O93 1.255 . S
C102 O94 1.265 . S
O103 Tb80 2.479 . S
O103 C90 1.238 . S
O104 Tb80 2.471 . S
O104 C90 1.247 . S
C105 C108 1.380 . S
C105 C109 1.374 . S
C105 C111 1.507 . S
C106 C107 1.387 . S
C106 C110 1.391 . S
C107 C106 1.387 . S
C107 C108 1.384 . S
C107 H116 0.930 . S
C108 C105 1.380 . S
C108 C107 1.384 . S
C108 H117 0.931 . S
C109 C105 1.374 . S
C109 C110 1.390 . S
C109 H118 0.930 . S
C110 C106 1.391 . S
C110 C109 1.390 . S
C110 H119 0.930 . S
C111 Eu81 2.825 . S
C111 O96 1.238 . S
C111 O97 1.247 . S
C111 C105 1.507 . S
H112 C85 0.930 . S
H113 C86 0.931 . S
H114 C87 0.930 . S
H115 C88 0.930 . S
H116 C107 0.930 . S
H117 C108 0.931 . S
H118 C109 0.930 . S
H119 C110 0.930 . S
C120 C121 1.264 . S
C120 C125 1.479 . S
C120 C130 1.465 . S
C121 C120 1.264 . S
C121 C123 1.339 . S
C121 H148 0.931 . S
C122 C123 1.395 . S
C122 C124 1.320 . S
C123 C121 1.339 . S
C123 C122 1.395 . S
C123 H149 0.929 . S
C124 C122 1.320 . S
C124 C125 1.405 . S
C124 H150 0.930 . S
C125 C120 1.479 . S
C125 C124 1.405 . S
C125 H151 0.931 . S
U126 O127 2.454 1_545 S
U126 O128 2.458 1_545 S
U126 C129 2.984 1_545 S
U126 C130 2.847 . S
U126 C143 2.882 . S
U126 O144 2.441 . S
U126 O145 2.420 . S
U126 O146 2.455 . S
U126 O147 2.449 . S
O127 U126 2.454 1_565 S
O127 C129 1.353 . S
O128 U126 2.458 1_565 S
O128 C129 1.286 . S
C129 U126 2.984 1_565 S
C129 O127 1.353 . S
C129 O128 1.286 . S
C129 C131 1.363 . S
C130 C120 1.465 . S
C130 U126 2.847 . S
C130 O144 1.249 . S
C130 O145 1.202 . S
C131 C129 1.363 . S
C131 C133 1.408 . S
C131 C136 1.342 . S
C132 C133 1.310 . S
C132 C135 1.461 . S
C132 H152 0.932 . S
C133 C131 1.408 . S
C133 C132 1.310 . S
C133 H153 0.930 . S
C134 C135 1.474 . S
C134 C136 1.285 . S
C134 H154 0.929 . S
C135 C132 1.461 . S
C135 C134 1.474 . S
C136 C131 1.342 . S
C136 C134 1.285 . S
C136 H155 0.930 . S
C137 C140 1.424 . S
C137 C142 1.245 . S
C137 C143 1.428 . S
C138 C141 1.260 . S
C138 C142 1.477 . S
C138 H156 0.932 1_545 S
C139 C140 1.384 . S
C139 C141 1.479 . S
C139 H157 0.929 . S
C140 C137 1.424 . S
C140 C139 1.384 . S
C140 H158 0.928 . S
C141 C138 1.260 . S
C141 C139 1.479 . S
C142 C137 1.245 . S
C142 C138 1.477 . S
C142 H159 0.932 1_545 S
C143 U126 2.882 . S
C143 C137 1.428 . S
C143 O146 1.301 . S
C143 O147 1.282 . S
O144 U126 2.441 . S
O144 C130 1.249 . S
O145 U126 2.420 . S
O145 C130 1.202 . S
O146 U126 2.455 . S
O146 C143 1.301 . S
O147 U126 2.449 . S
O147 C143 1.282 . S
H148 C121 0.931 . S
H149 C123 0.929 . S
H150 C124 0.930 . S
H151 C125 0.931 . S
H152 C132 0.932 . S
H153 C133 0.930 . S
H154 C134 0.929 . S
H155 C136 0.930 . S
H156 C138 0.932 1_565 S
H157 C139 0.929 . S
H158 C140 0.928 . S
H159 C142 0.932 1_565 S
C160 C161 1.264 . S
C160 C165 1.479 . S
C160 C170 1.465 . S
C161 C160 1.264 . S
C161 C163 1.339 . S
C161 H188 0.931 . S
C162 C163 1.395 . S
C162 C164 1.320 . S
C163 C161 1.339 . S
C163 C162 1.395 . S
C163 H189 0.929 . S
C164 C162 1.320 . S
C164 C165 1.405 . S
C164 H190 0.930 . S
C165 C160 1.479 . S
C165 C164 1.405 . S
C165 H191 0.931 . S
U166 O167 2.454 . S
U166 O168 2.458 . S
U166 C169 2.984 . S
U166 C170 2.847 . S
U166 C183 2.882 . S
U166 O184 2.441 . S
U166 O185 2.420 . S
U166 O186 2.455 . S
U166 O187 2.449 . S
O167 U166 2.454 . S
O167 C169 1.353 . S
O168 U166 2.458 . S
O168 C169 1.286 . S
C169 U166 2.984 . S
C169 O167 1.353 . S
C169 O168 1.286 . S
C169 C171 1.363 . S
C170 C160 1.465 . S
C170 U166 2.847 . S
C170 O184 1.249 . S
C170 O185 1.202 . S
C171 C169 1.363 . S
C171 C173 1.408 . S
C171 C176 1.342 . S
C172 C173 1.310 . S
C172 C175 1.461 . S
C172 H192 0.932 . S
C173 C171 1.408 . S
C173 C172 1.310 . S
C173 H193 0.930 . S
C174 C175 1.474 . S
C174 C176 1.285 . S
C174 H194 0.929 . S
C175 C172 1.461 . S
C175 C174 1.474 . S
C176 C171 1.342 . S
C176 C174 1.285 . S
C176 H195 0.930 . S
C177 C180 1.424 . S
C177 C182 1.245 . S
C177 C183 1.428 . S
C178 C181 1.260 . S
C178 C182 1.477 . S
C178 H196 0.932 . S
C179 C180 1.384 . S
C179 C181 1.479 . S
C179 H197 0.929 . S
C180 C177 1.424 . S
C180 C179 1.384 . S
C180 H198 0.928 . S
C181 C178 1.260 . S
C181 C179 1.479 . S
C182 C177 1.245 . S
C182 C178 1.477 . S
C182 H199 0.932 . S
C183 U166 2.882 . S
C183 C177 1.428 . S
C183 O186 1.301 . S
C183 O187 1.282 . S
O184 U166 2.441 . S
O184 C170 1.249 . S
O185 U166 2.420 . S
O185 C170 1.202 . S
O186 U166 2.455 . S
O186 C183 1.301 . S
O187 U166 2.449 . S
O187 C183 1.282 . S
H188 C161 0.931 . S
H189 C163 0.929 . S
H190 C164 0.930 . S
H191 C165 0.931 . S
H192 C172 0.932 . S
H193 C173 0.930 . S
H194 C174 0.929 . S
H195 C176 0.930 . S
H196 C178 0.932 . S
H197 C179 0.929 . S
H198 C180 0.928 . S
H199 C182 0.932 . S
C200 C201 1.264 . S
C200 C205 1.479 . S
C200 C210 1.465 . S
C201 C200 1.264 . S
C201 C203 1.339 . S
C201 H228 0.931 . S
C202 C203 1.395 . S
C202 C204 1.320 . S
C203 C201 1.339 . S
C203 C202 1.395 . S
C203 H229 0.929 . S
C204 C202 1.320 . S
C204 C205 1.405 . S
C204 H230 0.930 . S
C205 C200 1.479 . S
C205 C204 1.405 . S
C205 H231 0.931 . S
U206 O207 2.454 . S
U206 O208 2.458 . S
U206 C209 2.984 . S
U206 C210 2.847 1_455 S
U206 C223 2.882 . S
U206 O224 2.441 1_455 S
U206 O225 2.420 1_455 S
U206 O226 2.455 . S
U206 O227 2.449 1_455 S
O207 U206 2.454 . S
O207 C209 1.353 . S
O208 U206 2.458 . S
O208 C209 1.286 . S
C209 U206 2.984 . S
C209 O207 1.353 . S
C209 O208 1.286 . S
C209 C211 1.363 . S
C210 C200 1.465 . S
C210 U206 2.847 1_655 S
C210 O224 1.249 . S
C210 O225 1.202 . S
C211 C209 1.363 . S
C211 C213 1.408 . S
C211 C216 1.342 . S
C212 C213 1.310 . S
C212 C215 1.461 . S
C212 H232 0.932 . S
C213 C211 1.408 . S
C213 C212 1.310 . S
C213 H233 0.930 . S
C214 C215 1.474 . S
C214 C216 1.285 . S
C214 H234 0.929 . S
C215 C212 1.461 . S
C215 C214 1.474 . S
C216 C211 1.342 . S
C216 C214 1.285 . S
C216 H235 0.930 . S
C217 C220 1.424 1_455 S
C217 C222 1.245 . S
C217 C223 1.428 . S
C218 C221 1.274 . S
C218 C222 1.453 1_554 S
C218 H236 0.944 . S
C219 C220 1.384 . S
C219 C221 1.479 1_656 S
C219 H237 0.929 1_556 S
C220 C217 1.424 1_655 S
C220 C219 1.384 . S
C220 H238 0.928 . S
C221 C218 1.274 . S
C221 C219 1.479 1_454 S
C222 C217 1.245 . S
C222 C218 1.453 1_556 S
C222 H239 0.932 . S
C223 U206 2.882 . S
C223 C217 1.428 . S
C223 O226 1.301 . S
C223 O227 1.282 1_455 S
O224 U206 2.441 1_655 S
O224 C210 1.249 . S
O225 U206 2.420 1_655 S
O225 C210 1.202 . S
O226 U206 2.455 . S
O226 C223 1.301 . S
O227 U206 2.449 1_655 S
O227 C223 1.282 1_655 S
H228 C201 0.931 . S
H229 C203 0.929 . S
H230 C204 0.930 . S
H231 C205 0.931 . S
H232 C212 0.932 . S
H233 C213 0.930 . S
H234 C214 0.929 . S
H235 C216 0.930 . S
H236 C218 0.944 . S
H237 C219 0.929 1_554 S
H238 C220 0.928 . S
H239 C222 0.932 . S
C240 C241 1.264 . S
C240 C245 1.479 . S
C240 C250 1.465 . S
C241 C240 1.264 . S
C241 C243 1.339 . S
C241 H268 0.931 . S
C242 C243 1.395 . S
C242 C244 1.320 . S
C243 C241 1.339 . S
C243 C242 1.395 . S
C243 H269 0.929 . S
C244 C242 1.320 . S
C244 C245 1.405 . S
C244 H270 0.930 . S
C245 C240 1.479 . S
C245 C244 1.405 . S
C245 H271 0.931 . S
U246 O247 2.454 1_655 S
U246 O248 2.458 1_655 S
U246 C249 2.984 1_655 S
U246 C250 2.847 . S
U246 C263 2.882 . S
U246 O264 2.441 . S
U246 O265 2.420 . S
U246 O266 2.455 1_655 S
U246 O267 2.449 . S
O247 U246 2.454 1_455 S
O247 C249 1.353 . S
O248 U246 2.458 1_455 S
O248 C249 1.286 . S
C249 U246 2.984 1_455 S
C249 O247 1.353 . S
C249 O248 1.286 . S
C249 C251 1.363 . S
C250 C240 1.465 . S
C250 U246 2.847 . S
C250 O264 1.249 . S
C250 O265 1.202 . S
C251 C249 1.363 . S
C251 C253 1.408 . S
C251 C256 1.342 . S
C252 C253 1.310 . S
C252 C255 1.461 . S
C252 H272 0.932 . S
C253 C251 1.408 . S
C253 C252 1.310 . S
C253 H273 0.930 . S
C254 C255 1.474 . S
C254 C256 1.285 . S
C254 H274 0.929 . S
C255 C252 1.461 . S
C255 C254 1.474 . S
C256 C251 1.342 . S
C256 C254 1.285 . S
C256 H275 0.930 . S
C257 C260 1.424 . S
C257 C262 1.245 1_655 S
C257 C263 1.428 . S
C258 C261 1.260 1_455 S
C258 C262 1.477 . S
C258 H276 0.932 . S
C259 C260 1.384 . S
C259 C261 1.479 . S
C259 H277 0.929 . S
C260 C257 1.424 . S
C260 C259 1.384 . S
C260 H278 0.928 . S
C261 C258 1.260 1_655 S
C261 C259 1.479 . S
C262 C257 1.245 1_455 S
C262 C258 1.477 . S
C262 H279 0.932 . S
C263 U246 2.882 . S
C263 C257 1.428 . S
C263 O266 1.301 1_655 S
C263 O267 1.282 . S
O264 U246 2.441 . S
O264 C250 1.249 . S
O265 U246 2.420 . S
O265 C250 1.202 . S
O266 U246 2.455 1_455 S
O266 C263 1.301 1_455 S
O267 U246 2.449 . S
O267 C263 1.282 . S
H268 C241 0.931 . S
H269 C243 0.929 . S
H270 C244 0.930 . S
H271 C245 0.931 . S
H272 C252 0.932 . S
H273 C253 0.930 . S
H274 C254 0.929 . S
H275 C256 0.930 . S
H276 C258 0.932 . S
H277 C259 0.929 . S
H278 C260 0.928 . S
H279 C262 0.932 . S
C280 C281 1.264 . S
C280 C285 1.479 . S
C280 C290 1.465 . S
C281 C280 1.264 . S
C281 C283 1.339 . S
C281 H308 0.931 . S
C282 C283 1.395 . S
C282 C284 1.320 . S
C283 C281 1.339 . S
C283 C282 1.395 . S
C283 H309 0.929 . S
C284 C282 1.320 . S
C284 C285 1.405 . S
C284 H310 0.930 . S
C285 C280 1.479 . S
C285 C284 1.405 . S
C285 H311 0.931 . S
U286 O287 2.454 1_565 S
U286 O288 2.458 1_565 S
U286 C289 2.984 1_565 S
U286 C290 2.847 . S
U286 C303 2.882 . S
U286 O304 2.441 . S
U286 O305 2.420 . S
U286 O306 2.455 1_565 S
U286 O307 2.449 . S
O287 U286 2.454 1_545 S
O287 C289 1.353 . S
O288 U286 2.458 1_545 S
O288 C289 1.286 . S
C289 U286 2.984 1_545 S
C289 O287 1.353 . S
C289 O288 1.286 . S
C289 C291 1.363 . S
C290 C280 1.465 . S
C290 U286 2.847 . S
C290 O304 1.249 . S
C290 O305 1.202 . S
C291 C289 1.363 . S
C291 C293 1.408 . S
C291 C296 1.342 . S
C292 C293 1.310 . S
C292 C295 1.461 . S
C292 H312 0.932 . S
C293 C291 1.408 . S
C293 C292 1.310 . S
C293 H313 0.930 . S
C294 C295 1.474 . S
C294 C296 1.285 . S
C294 H314 0.929 . S
C295 C292 1.461 . S
C295 C294 1.474 . S
C296 C291 1.342 . S
C296 C294 1.285 . S
C296 H315 0.930 . S
C297 C300 1.424 . S
C297 C302 1.245 1_565 S
C297 C303 1.428 . S
C298 C301 1.260 1_545 S
C298 C302 1.477 . S
C298 H316 0.932 . S
C299 C300 1.384 . S
C299 C301 1.479 . S
C299 H317 0.929 . S
C300 C297 1.424 . S
C300 C299 1.384 . S
C300 H318 0.928 . S
C301 C298 1.260 1_565 S
C301 C299 1.479 . S
C302 C297 1.245 1_545 S
C302 C298 1.477 . S
C302 H319 0.932 . S
C303 U286 2.882 . S
C303 C297 1.428 . S
C303 O306 1.301 1_565 S
C303 O307 1.282 . S
O304 U286 2.441 . S
O304 C290 1.249 . S
O305 U286 2.420 . S
O305 C290 1.202 . S
O306 U286 2.455 1_545 S
O306 C303 1.301 1_545 S
O307 U286 2.449 . S
O307 C303 1.282 . S
H308 C281 0.931 . S
H309 C283 0.929 . S
H310 C284 0.930 . S
H311 C285 0.931 . S
H312 C292 0.932 . S
H313 C293 0.930 . S
H314 C294 0.929 . S
H315 C296 0.930 . S
H316 C298 0.932 . S
H317 C299 0.929 . S
H318 C300 0.928 . S
H319 C302 0.932 . S
C320 C321 1.264 . S
C320 C325 1.479 . S
C320 C330 1.465 . S
C321 C320 1.264 . S
C321 C323 1.339 . S
C321 H348 0.931 . S
C322 C323 1.395 . S
C322 C324 1.320 . S
C323 C321 1.339 . S
C323 C322 1.395 . S
C323 H349 0.929 . S
C324 C322 1.320 . S
C324 C325 1.405 . S
C324 H350 0.930 . S
C325 C320 1.479 . S
C325 C324 1.405 . S
C325 H351 0.931 . S
U326 O327 2.454 . S
U326 O328 2.458 . S
U326 C329 2.984 . S
U326 C330 2.847 . S
U326 C343 2.882 . S
U326 O344 2.441 . S
U326 O345 2.420 . S
U326 O346 2.455 . S
U326 O347 2.449 . S
O327 U326 2.454 . S
O327 C329 1.353 . S
O328 U326 2.458 . S
O328 C329 1.286 . S
C329 U326 2.984 . S
C329 O327 1.353 . S
C329 O328 1.286 . S
C329 C331 1.363 . S
C330 C320 1.465 . S
C330 U326 2.847 . S
C330 O344 1.249 . S
C330 O345 1.202 . S
C331 C329 1.363 . S
C331 C333 1.408 . S
C331 C336 1.342 . S
C332 C333 1.310 . S
C332 C335 1.461 . S
C332 H352 0.932 . S
C333 C331 1.408 . S
C333 C332 1.310 . S
C333 H353 0.930 . S
C334 C335 1.474 . S
C334 C336 1.285 . S
C334 H354 0.929 . S
C335 C332 1.461 . S
C335 C334 1.474 . S
C336 C331 1.342 . S
C336 C334 1.285 . S
C336 H355 0.930 . S
C337 C340 1.424 . S
C337 C342 1.245 . S
C337 C343 1.428 . S
C338 C341 1.260 . S
C338 C342 1.477 1_556 S
C338 H356 0.932 . S
C339 C340 1.384 1_556 S
C339 C341 1.479 . S
C339 H357 0.929 . S
C340 C337 1.424 . S
C340 C339 1.384 1_554 S
C340 H358 0.928 . S
C341 C338 1.260 . S
C341 C339 1.479 . S
C342 C337 1.245 . S
C342 C338 1.477 1_554 S
C342 H359 0.932 . S
C343 U326 2.882 . S
C343 C337 1.428 . S
C343 O346 1.301 . S
C343 O347 1.282 . S
O344 U326 2.441 . S
O344 C330 1.249 . S
O345 U326 2.420 . S
O345 C330 1.202 . S
O346 U326 2.455 . S
O346 C343 1.301 . S
O347 U326 2.449 . S
O347 C343 1.282 . S
H348 C321 0.931 . S
H349 C323 0.929 . S
H350 C324 0.930 . S
H351 C325 0.931 . S
H352 C332 0.932 . S
H353 C333 0.930 . S
H354 C334 0.929 . S
H355 C336 0.930 . S
H356 C338 0.932 . S
H357 C339 0.929 . S
H358 C340 0.928 . S
H359 C342 0.932 . S
C360 C361 1.369 . S
C360 C362 1.419 . S
C360 H364 0.930 . S
C361 C360 1.369 . S
C361 C370 1.429 . S
C362 C360 1.419 . S
C362 C363 1.363 . S
C362 H365 0.929 . S
C363 C362 1.363 . S
C363 C369 1.428 . S
H364 C360 0.930 . S
H365 C362 0.929 . S
S366 N367 1.613 . S
S366 N368 1.610 . S
N367 S366 1.613 . S
N367 C370 1.350 . S
N368 S366 1.610 . S
N368 C369 1.351 . S
C369 C363 1.428 . S
C369 N368 1.351 . S
C369 C370 1.434 . S
C370 C361 1.429 . S
C370 N367 1.350 . S
C370 C369 1.434 . S
C371 C372 1.369 . S
C371 C373 1.419 . S
C371 H375 0.930 . S
C372 C371 1.369 . S
C372 C381 1.429 . S
C373 C371 1.419 . S
C373 C374 1.363 . S
C373 H376 0.929 . S
C374 C373 1.363 . S
C374 C380 1.428 . S
H375 C371 0.930 . S
H376 C373 0.929 . S
S377 N378 1.613 . S
S377 N379 1.610 . S
N378 S377 1.613 . S
N378 C381 1.350 . S
N379 S377 1.610 . S
N379 C380 1.351 . S
C380 C374 1.428 . S
C380 N379 1.351 . S
C380 C381 1.434 . S
C381 C372 1.429 . S
C381 N378 1.350 . S
C381 C380 1.434 . S
C382 C383 1.369 . S
C382 C384 1.419 . S
C382 H386 0.930 . S
C383 C382 1.369 . S
C383 C392 1.429 . S
C384 C382 1.419 . S
C384 C385 1.363 . S
C384 H387 0.929 . S
C385 C384 1.363 . S
C385 C391 1.428 . S
H386 C382 0.930 . S
H387 C384 0.929 . S
S388 N389 1.613 . S
S388 N390 1.610 . S
N389 S388 1.613 . S
N389 C392 1.350 . S
N390 S388 1.610 . S
N390 C391 1.351 . S
C391 C385 1.428 . S
C391 N390 1.351 . S
C391 C392 1.434 . S
C392 C383 1.429 . S
C392 N389 1.350 . S
C392 C391 1.434 . S
C393 C394 1.369 . S
C393 C395 1.419 . S
C393 H397 0.930 . S
C394 C393 1.369 . S
C394 C403 1.429 . S
C395 C393 1.419 . S
C395 C396 1.363 . S
C395 H398 0.929 . S
C396 C395 1.363 . S
C396 C402 1.428 . S
H397 C393 0.930 . S
H398 C395 0.929 . S
S399 N400 1.613 . S
S399 N401 1.610 . S
N400 S399 1.613 . S
N400 C403 1.350 . S
N401 S399 1.610 . S
N401 C402 1.351 . S
C402 C396 1.428 . S
C402 N401 1.351 . S
C402 C403 1.434 . S
C403 C394 1.429 . S
C403 N400 1.350 . S
C403 C402 1.434 . S
C404 C405 1.369 . S
C404 C406 1.419 . S
C404 H408 0.930 . S
C405 C404 1.369 . S
C405 C414 1.429 . S
C406 C404 1.419 . S
C406 C407 1.363 . S
C406 H409 0.929 . S
C407 C406 1.363 . S
C407 C413 1.428 . S
H408 C404 0.930 . S
H409 C406 0.929 . S
S410 N411 1.613 . S
S410 N412 1.610 . S
N411 S410 1.613 . S
N411 C414 1.350 . S
N412 S410 1.610 . S
N412 C413 1.351 . S
C413 C407 1.428 . S
C413 N412 1.351 . S
C413 C414 1.434 . S
C414 C405 1.429 . S
C414 N411 1.350 . S
C414 C413 1.434 . S
C415 C416 1.369 . S
C415 C417 1.419 . S
C415 H419 0.930 . S
C416 C415 1.369 . S
C416 C425 1.429 . S
C417 C415 1.419 . S
C417 C418 1.363 . S
C417 H420 0.929 . S
C418 C417 1.363 . S
C418 C424 1.428 . S
H419 C415 0.930 . S
H420 C417 0.929 . S
S421 N422 1.613 . S
S421 N423 1.610 . S
N422 S421 1.613 . S
N422 C425 1.350 . S
N423 S421 1.610 . S
N423 C424 1.351 . S
C424 C418 1.428 . S
C424 N423 1.351 . S
C424 C425 1.434 . S
C425 C416 1.429 . S
C425 N422 1.350 . S
C425 C424 1.434 . S
C426 C427 1.369 . S
C426 C428 1.419 . S
C426 H430 0.930 . S
C427 C426 1.369 . S
C427 C436 1.429 . S
C428 C426 1.419 . S
C428 C429 1.363 . S
C428 H431 0.929 . S
C429 C428 1.363 . S
C429 C435 1.428 . S
H430 C426 0.930 . S
H431 C428 0.929 . S
S432 N433 1.613 . S
S432 N434 1.610 . S
N433 S432 1.613 . S
N433 C436 1.350 . S
N434 S432 1.610 . S
N434 C435 1.351 . S
C435 C429 1.428 . S
C435 N434 1.351 . S
C435 C436 1.434 . S
C436 C427 1.429 . S
C436 N433 1.350 . S
C436 C435 1.434 . S
C437 C438 1.369 . S
C437 C439 1.419 . S
C437 H441 0.930 . S
C438 C437 1.369 . S
C438 C447 1.429 . S
C439 C437 1.419 . S
C439 C440 1.363 . S
C439 H442 0.929 . S
C440 C439 1.363 . S
C440 C446 1.428 . S
H441 C437 0.930 . S
H442 C439 0.929 . S
S443 N444 1.613 . S
S443 N445 1.610 . S
N444 S443 1.613 . S
N444 C447 1.350 . S
N445 S443 1.610 . S
N445 C446 1.351 . S
C446 C440 1.428 . S
C446 N445 1.351 . S
C446 C447 1.434 . S
C447 C438 1.429 . S
C447 N444 1.350 . S
C447 C446 1.434 . S
C448 C449 1.369 . S
C448 C450 1.419 . S
C448 H452 0.930 . S
C449 C448 1.369 . S
C449 C458 1.429 . S
C450 C448 1.419 . S
C450 C451 1.363 . S
C450 H453 0.929 . S
C451 C450 1.363 . S
C451 C457 1.428 . S
H452 C448 0.930 . S
H453 C450 0.929 . S
S454 N455 1.613 . S
S454 N456 1.610 . S
N455 S454 1.613 . S
N455 C458 1.350 . S
N456 S454 1.610 . S
N456 C457 1.351 . S
C457 C451 1.428 . S
C457 N456 1.351 . S
C457 C458 1.434 . S
C458 C449 1.429 . S
C458 N455 1.350 . S
C458 C457 1.434 . S
C459 C460 1.369 . S
C459 C461 1.419 . S
C459 H463 0.930 . S
C460 C459 1.369 . S
C460 C469 1.429 . S
C461 C459 1.419 . S
C461 C462 1.363 . S
C461 H464 0.929 . S
C462 C461 1.363 . S
C462 C468 1.428 . S
H463 C459 0.930 . S
H464 C461 0.929 . S
S465 N466 1.613 . S
S465 N467 1.610 . S
N466 S465 1.613 . S
N466 C469 1.350 . S
N467 S465 1.610 . S
N467 C468 1.351 . S
C468 C462 1.428 . S
C468 N467 1.351 . S
C468 C469 1.434 . S
C469 C460 1.429 . S
C469 N466 1.350 . S
C469 C468 1.434 . S
C470 C471 1.369 . S
C470 C472 1.419 . S
C470 H474 0.930 . S
C471 C470 1.369 . S
C471 C480 1.429 . S
C472 C470 1.419 . S
C472 C473 1.363 . S
C472 H475 0.929 . S
C473 C472 1.363 . S
C473 C479 1.428 . S
H474 C470 0.930 . S
H475 C472 0.929 . S
S476 N477 1.613 . S
S476 N478 1.610 . S
N477 S476 1.613 . S
N477 C480 1.350 . S
N478 S476 1.610 . S
N478 C479 1.351 . S
C479 C473 1.428 . S
C479 N478 1.351 . S
C479 C480 1.434 . S
C480 C471 1.429 . S
C480 N477 1.350 . S
C480 C479 1.434 . S
C481 C482 1.369 . S
C481 C483 1.419 . S
C481 H485 0.930 . S
C482 C481 1.369 . S
C482 C491 1.429 . S
C483 C481 1.419 . S
C483 C484 1.363 . S
C483 H486 0.929 . S
C484 C483 1.363 . S
C484 C490 1.428 . S
H485 C481 0.930 . S
H486 C483 0.929 . S
S487 N488 1.613 . S
S487 N489 1.610 . S
N488 S487 1.613 . S
N488 C491 1.350 . S
N489 S487 1.610 . S
N489 C490 1.351 . S
C490 C484 1.428 . S
C490 N489 1.351 . S
C490 C491 1.434 . S
C491 C482 1.429 . S
C491 N488 1.350 . S
C491 C490 1.434 . S
C492 C493 1.369 . S
C492 C494 1.419 . S
C492 H496 0.930 . S
C493 C492 1.369 . S
C493 C502 1.429 . S
C494 C492 1.419 . S
C494 C495 1.363 . S
C494 H497 0.929 . S
C495 C494 1.363 . S
C495 C501 1.428 . S
H496 C492 0.930 . S
H497 C494 0.929 . S
S498 N499 1.613 . S
S498 N500 1.610 . S
N499 S498 1.613 . S
N499 C502 1.350 1_655 S
N500 S498 1.610 . S
N500 C501 1.351 1_655 S
C501 C495 1.428 . S
C501 N500 1.351 1_455 S
C501 C502 1.434 . S
C502 C493 1.429 . S
C502 N499 1.350 1_455 S
C502 C501 1.434 . S
C503 C504 1.369 . S
C503 C505 1.419 . S
C503 H507 0.930 . S
C504 C503 1.369 . S
C504 C513 1.429 . S
C505 C503 1.419 . S
C505 C506 1.363 . S
C505 H508 0.929 . S
C506 C505 1.363 . S
C506 C512 1.428 . S
H507 C503 0.930 . S
H508 C505 0.929 . S
S509 N510 1.613 . S
S509 N511 1.610 . S
N510 S509 1.613 . S
N510 C513 1.350 1_565 S
N511 S509 1.610 . S
N511 C512 1.351 1_565 S
C512 C506 1.428 . S
C512 N511 1.351 1_545 S
C512 C513 1.434 . S
C513 C504 1.429 . S
C513 N510 1.350 1_545 S
C513 C512 1.434 . S
C514 C515 1.369 . S
C514 C516 1.419 . S
C514 H518 0.930 . S
C515 C514 1.369 . S
C515 C524 1.429 . S
C516 C514 1.419 . S
C516 C517 1.363 . S
C516 H519 0.929 . S
C517 C516 1.363 . S
C517 C523 1.428 . S
H518 C514 0.930 . S
H519 C516 0.929 . S
S520 N521 1.613 . S
S520 N522 1.610 . S
N521 S520 1.613 . S
N521 C524 1.350 . S
N522 S520 1.610 . S
N522 C523 1.351 . S
C523 C517 1.428 . S
C523 N522 1.351 . S
C523 C524 1.434 . S
C524 C515 1.429 . S
C524 N521 1.350 . S
C524 C523 1.434 . S
C525 C526 1.369 . S
C525 C527 1.419 . S
C525 H529 0.930 . S
C526 C525 1.369 . S
C526 C535 1.429 1_545 S
C527 C525 1.419 . S
C527 C528 1.363 . S
C527 H530 0.929 . S
C528 C527 1.363 . S
C528 C534 1.428 1_545 S
H529 C525 0.930 . S
H530 C527 0.929 . S
S531 N532 1.613 . S
S531 N533 1.610 . S
N532 S531 1.613 . S
N532 C535 1.350 . S
N533 S531 1.610 . S
N533 C534 1.351 . S
C534 C528 1.428 1_565 S
C534 N533 1.351 . S
C534 C535 1.434 . S
C535 C526 1.429 1_565 S
C535 N532 1.350 . S
C535 C534 1.434 . S
C536 C537 1.369 . S
C536 C538 1.419 . S
C536 H540 0.930 . S
C537 C536 1.369 . S
C537 C546 1.429 . S
C538 C536 1.419 . S
C538 C539 1.363 . S
C538 H541 0.929 . S
C539 C538 1.363 . S
C539 C545 1.428 . S
H540 C536 0.930 . S
H541 C538 0.929 . S
S542 N543 1.613 . S
S542 N544 1.610 . S
N543 S542 1.613 . S
N543 C546 1.350 . S
N544 S542 1.610 . S
N544 C545 1.351 . S
C545 C539 1.428 . S
C545 N544 1.351 . S
C545 C546 1.434 . S
C546 C537 1.429 . S
C546 N543 1.350 . S
C546 C545 1.434 . S
C547 C548 1.369 . S
C547 C549 1.419 . S
C547 H551 0.930 . S
C548 C547 1.369 . S
C548 C557 1.429 . S
C549 C547 1.419 . S
C549 C550 1.363 1_455 S
C549 H552 0.912 1_455 S
C550 C549 1.363 1_655 S
C550 C556 1.429 1_655 S
H551 C547 0.930 . S
H552 C549 0.912 1_655 S
S553 N554 1.613 . S
S553 N555 1.610 . S
N554 S553 1.613 . S
N554 C557 1.350 . S
N555 S553 1.610 . S
N555 C556 1.351 . S
C556 C550 1.429 1_455 S
C556 N555 1.351 . S
C556 C557 1.434 . S
C557 C548 1.429 . S
C557 N554 1.350 . S
C557 C556 1.434 . S
C361 C9 0.729 . S
C363 C335 0.699 . S
C372 C49 0.382 . S
C374 C242 0.346 . S
C383 C89 0.408 . S
C385 C282 0.392 . S
C394 C26 0.567 . S
C396 C322 0.465 . S
C407 C255 0.655 . S
C405 C66 0.681 . S
C418 C295 0.704 . S
C416 C106 0.724 . S
C427 C43 3.104 . S
C429 C162 3.042 . S
C438 C83 3.250 . S
C440 C202 3.176 . S
C449 C22 3.324 . S
C451 C135 3.220 . S
C462 C175 3.219 . S
C460 C62 3.320 . S
C473 C215 3.085 . S
C471 C102 3.173 . S
C482 C3 3.101 . S
C484 C122 3.042 . S
C495 C221 1.784 . S
C493 C15 1.736 . S
C504 C55 1.756 . S
C506 C141 1.790 . S
C515 C95 1.749 . S
C517 C181 1.785 . S
C528 C301 1.105 1_545 S
C526 C42 1.101 . S
C539 C341 1.101 . S
C537 C82 1.098 . S
C548 C2 1.081 . S
C550 C261 1.088 . S
