# Generated by pormake.
# Topology nia, (6,6)-cn, num edge types: 1
# Building blocks:
#     Node 0, Type 0, BuildingBlock: HISSIN_clean_sbu_0, # of connection points: 6
#     Node 1, Type 0, BuildingBlock: HISSIN_clean_sbu_0, # of connection points: 6
#     Node 2, Type 1, BuildingBlock: MIDCAF_clean_sbu_0, # of connection points: 6
#     Node 3, Type 1, BuildingBlock: MIDCAF_clean_sbu_0, # of connection points: 6
#     Edge 4, Type (0, 1), BuildingBlock: XIVTED_clean_linker_0, # of connection points: 2
#     Edge 5, Type (0, 1), BuildingBlock: XIVTED_clean_linker_0, # of connection points: 2
#     Edge 6, Type (0, 1), BuildingBlock: XIVTED_clean_linker_0, # of connection points: 2
#     Edge 7, Type (0, 1), BuildingBlock: XIVTED_clean_linker_0, # of connection points: 2
#     Edge 8, Type (0, 1), BuildingBlock: XIVTED_clean_linker_0, # of connection points: 2
#     Edge 9, Type (0, 1), BuildingBlock: XIVTED_clean_linker_0, # of connection points: 2
#     Edge 10, Type (0, 1), BuildingBlock: XIVTED_clean_linker_0, # of connection points: 2
#     Edge 11, Type (0, 1), BuildingBlock: XIVTED_clean_linker_0, # of connection points: 2
#     Edge 12, Type (0, 1), BuildingBlock: XIVTED_clean_linker_0, # of connection points: 2
#     Edge 13, Type (0, 1), BuildingBlock: XIVTED_clean_linker_0, # of connection points: 2
#     Edge 14, Type (0, 1), BuildingBlock: XIVTED_clean_linker_0, # of connection points: 2
#     Edge 15, Type (0, 1), BuildingBlock: XIVTED_clean_linker_0, # of connection points: 2
# Relax obj value: 0.355
# Max RMSD: 0.265
# Mean RMSD: 0.253
data_MOF--net-nia--node1-HISSIN_clean_sbu_0--node2-MIDCAF_clean_sbu_0--edge1-XIVTED_clean_linker_0
_symmetry_space_group_name_H-M    P1
_symmetry_Int_Tables_number       1
_symmetry_cell_setting            triclinic
loop_
_symmetry_equiv_pos_as_xyz
'x, y, z'
_cell_length_a     25.776807
_cell_length_b     25.84536
_cell_length_c     33.340177
_cell_angle_alpha  80.525092
_cell_angle_beta   80.377178
_cell_angle_gamma 116.77956
loop_
_atom_site_label
_atom_site_type_symbol
_atom_site_fract_x
_atom_site_fract_y
_atom_site_fract_z
_atom_type_partial_charge
Eu0 Eu 0.01178 0.06394 0.0534 0.0
Eu1 Eu 0.98013 0.95711 1.00385 0.0
C2 C 0.11355 0.07311 0.97892 0.0
C3 C 0.04695 0.18491 0.12285 0.0
C4 C 0.10667 0.22891 0.1177 0.0
C5 C 0.01299 0.21933 0.18016 0.0
C6 C 0.11954 0.26754 0.14369 0.0
C7 C 8e-05 0.18065 0.154 0.0
C8 C 0.07299 0.2627 0.17553 0.0
C9 C 0.03425 0.14116 0.09771 0.0
O10 O -0.00307 0.91905 0.06337 0.0
O11 O 0.05008 0.00772 0.08001 0.0
C12 C 0.03259 0.95044 0.08451 0.0
O13 O 0.92244 0.98286 0.09285 0.0
O14 O 0.98705 0.93953 0.94232 0.0
O15 O 0.94278 0.86448 0.99955 0.0
O16 O 0.8904 0.93978 0.04078 0.0
C17 C 0.87888 0.9482 0.07814 0.0
O18 O 0.97521 0.09488 1.00342 0.0
O19 O 0.95207 0.01891 0.97025 0.0
O20 O 0.08116 0.01479 0.98512 0.0
O21 O 0.98114 0.11112 0.09171 0.0
O22 O 0.07565 0.13084 0.0786 0.0
O23 O 0.09059 0.1038 0.99509 0.0
C24 C 0.98787 0.85057 0.93656 0.0
C25 C 0.01477 0.82069 0.95606 0.0
C26 C -0.00263 0.81121 0.87645 0.0
C27 C 0.03021 0.78365 0.9365 0.0
C28 C 0.98211 0.84792 0.89591 0.0
C29 C 0.01832 0.77581 0.89749 0.0
C30 C 0.96125 0.88141 0.9582 0.0
C31 C 0.95321 0.06877 0.97495 0.0
H32 H 0.14354 0.23337 0.0937 0.0
H33 H 0.97626 0.2148 0.20433 0.0
H34 H 0.16604 0.30177 0.13847 0.0
H35 H 0.95365 0.14663 0.15872 0.0
H36 H 0.02091 0.82344 0.98715 0.0
H37 H 0.98696 0.80644 0.84668 0.0
H38 H 0.04746 0.75804 0.9532 0.0
H39 H 0.9621 0.87138 0.88019 0.0
Eu40 Eu 0.95286 -0.00067 0.50302 0.0
Eu41 Eu 0.05386 0.03808 0.55514 0.0
C42 C 0.94685 0.90072 0.57846 0.0
C43 C 0.84139 -0.00397 0.43884 0.0
C44 C 0.80474 0.0139 0.46206 0.0
C45 C 0.80244 0.00934 0.37914 0.0
C46 C 0.7645 0.02615 0.44448 0.0
C47 C 0.84219 -0.00308 0.39671 0.0
C48 C 0.76043 0.0203 0.40368 0.0
C49 C 0.87603 0.97214 0.45804 0.0
O50 O 0.0733 0.98025 0.51847 0.0
O51 O 0.03183 -0.00455 0.46535 0.0
C52 C 0.06627 0.97727 0.48071 0.0
O53 O 0.00037 0.10016 0.48451 0.0
O54 O 0.07508 0.04897 0.61478 0.0
O55 O 0.14697 0.07501 0.55811 0.0
O56 O 0.09043 0.11674 0.49686 0.0
C57 C 0.05807 0.13582 0.47903 0.0
O58 O 0.91171 0.01818 0.56066 0.0
O59 O -0.00028 0.08244 0.57312 0.0
O60 O 0.97941 0.94463 0.59375 0.0
O61 O 0.93439 0.00242 0.4417 0.0
O62 O 0.86013 0.95173 0.4992 0.0
O63 O 0.9397 0.91181 0.54057 0.0
C64 C 0.1587 0.03837 0.62417 0.0
C65 C 0.18702 0.00806 0.60761 0.0
C66 C 0.19508 0.03099 0.68601 0.0
C67 C 0.22233 -0.00739 0.62916 0.0
C68 C 0.1603 0.0467 0.66441 0.0
C69 C 0.22973 0.00751 0.66735 0.0
C70 C 0.13205 0.06662 0.59901 0.0
C71 C 0.94143 0.05965 0.57884 0.0
H72 H 0.80464 0.01502 0.49441 0.0
H73 H 0.8006 0.00397 0.34779 0.0
H74 H 0.73334 0.03541 0.46394 0.0
H75 H 0.87088 0.98407 0.37815 0.0
H76 H 0.18507 -0.00023 0.57694 0.0
H77 H 0.19973 0.0435 0.71518 0.0
H78 H 0.24778 0.97374 0.61429 0.0
H79 H 0.13805 0.0693 0.67792 0.0
Zn80 Zn 0.34059 0.76669 0.15873 0.0
Zn81 Zn 0.28469 0.67555 0.35471 0.0
Zn82 Zn 0.30711 0.711 0.27716 0.0
C83 C 0.40803 0.75513 0.32549 0.0
C84 C 0.23989 0.57102 0.33645 0.0
O85 O 0.25389 0.75415 0.25869 0.0
O86 O 0.28029 0.78848 0.18755 0.0
C87 C 0.44039 0.79039 0.20744 0.0
O88 O 0.39386 0.7616 0.29052 0.0
O89 O 0.36904 0.71459 0.35797 0.0
O90 O 0.2393 0.5876 0.36988 0.0
O91 O 0.26402 0.61057 0.30038 0.0
O92 O 0.41848 0.79287 0.17617 0.0
O93 O 0.40642 0.76329 0.24587 0.0
O94 O 0.30194 0.69185 0.22117 0.0
O95 O 0.29691 0.67787 0.15939 0.0
C96 C 0.28292 0.65575 0.19889 0.0
O97 O 0.25687 0.75489 0.30233 0.0
O98 O 0.2429 0.71971 0.37043 0.0
C99 C 0.24931 0.7809 0.2241 0.0
C100 C 0.23805 0.75332 0.34101 0.0
Zn101 Zn 0.6651 0.29201 0.85933 0.0
Zn102 Zn 0.71074 0.34629 0.70271 0.0
Zn103 Zn 0.69478 0.32404 0.77994 0.0
C104 C 0.76575 0.45917 0.71299 0.0
C105 C 0.58963 0.27547 0.73208 0.0
O106 O 0.73917 0.27198 0.80114 0.0
O107 O 0.6899 0.22967 0.86892 0.0
C108 C 0.75511 0.41592 0.83074 0.0
O109 O 0.74653 0.42685 0.75183 0.0
O110 O 0.75635 0.43332 0.68399 0.0
O111 O 0.62845 0.30802 0.6973 0.0
O112 O 0.60528 0.27724 0.76687 0.0
O113 O 0.72508 0.37148 0.86311 0.0
O114 O 0.74662 0.4099 0.79441 0.0
O115 O 0.59275 0.27948 0.8094 0.0
O116 O 0.5792 0.26804 0.87822 0.0
C117 C 0.55764 0.2641 0.84695 0.0
O118 O 0.74151 0.27533 0.75711 0.0
O119 O 0.75193 0.301 0.68861 0.0
C120 C 0.72941 0.23696 0.83722 0.0
C121 C 0.7584 0.2716 0.71961 0.0
H122 H 0.11143 0.00436 0.12947 0.0
H123 H 0.13526 0.71233 0.22101 0.0
H124 H 0.00897 0.83246 0.10548 0.0
H125 H 0.26163 0.89157 0.22154 0.0
H126 H 0.07397 0.75112 0.19265 0.0
H127 H 0.15396 0.95982 0.17465 0.0
C128 C 0.09741 0.95704 0.13385 0.0
C129 C 0.05641 0.92217 0.1134 0.0
C130 C 0.11414 0.78176 0.20009 0.0
C131 C 0.10526 0.87071 0.1657 0.0
C132 C 0.14846 0.75945 0.21703 0.0
C133 C 0.20274 0.79877 0.22437 0.0
C134 C 0.13457 0.84391 0.19027 0.0
C135 C 0.21934 0.85977 0.21708 0.0
C136 C 0.12185 0.93165 0.1598 0.0
C137 C 0.04035 0.86113 0.1205 0.0
N138 N 0.1857 0.88064 0.20004 0.0
N139 N 0.06497 0.83739 0.14595 0.0
H140 H 0.34393 0.05286 0.61763 0.0
H141 H 0.51466 0.16447 0.78818 0.0
H142 H 0.24042 0.98439 0.74868 0.0
H143 H 0.53437 0.27758 0.66983 0.0
H144 H 0.42763 0.08009 0.7768 0.0
H145 H 0.43444 0.11001 0.63861 0.0
C146 C 0.34038 0.04753 0.65105 0.0
C147 C 0.28394 0.01575 0.68135 0.0
C148 C 0.45089 0.12373 0.75376 0.0
C149 C 0.38731 0.08235 0.70516 0.0
C150 C 0.49914 0.17217 0.76081 0.0
C151 C 0.53039 0.22858 0.7307 0.0
C152 C 0.43596 0.13163 0.71552 0.0
C153 C 0.51127 0.2351 0.69412 0.0
C154 C 0.3921 0.08113 0.66287 0.0
C155 C 0.28286 0.0103 0.72421 0.0
N156 N 0.46585 0.18706 0.68734 0.0
N157 N 0.33369 0.04496 0.73492 0.0
H158 H 0.01416 0.32368 0.19804 0.0
H159 H 0.31312 0.57162 0.22719 0.0
H160 H 0.16541 0.29915 0.2129 0.0
H161 H 0.16232 0.59598 0.21172 0.0
H162 H 0.24767 0.4623 0.24453 0.0
H163 H 0.05366 0.41102 0.22613 0.0
C164 C 0.05485 0.33572 0.20825 0.0
C165 C 0.08776 0.30552 0.2018 0.0
C166 C 0.22839 0.49133 0.23826 0.0
C167 C 0.13385 0.40596 0.23299 0.0
C168 C 0.26573 0.55343 0.22842 0.0
C169 C 0.24257 0.59166 0.21761 0.0
C170 C 0.16829 0.46815 0.23607 0.0
C171 C 0.18133 0.5671 0.21956 0.0
C172 C 0.07757 0.38578 0.22414 0.0
C173 C 0.1399 0.32271 0.21592 0.0
N174 N 0.1463 0.50664 0.22789 0.0
N175 N 0.16213 0.37267 0.22996 0.0
H176 H 0.82507 0.03895 0.5895 0.0
H177 H 0.85373 0.25997 0.73858 0.0
H178 H 0.98574 0.13391 0.62902 0.0
H179 H 0.70896 0.18652 0.68027 0.0
H180 H 0.89595 0.20095 0.70918 0.0
H181 H 0.77561 0.08118 0.6319 0.0
C182 C 0.84981 0.06828 0.60731 0.0
C183 C 0.90968 0.08294 0.60553 0.0
C184 C 0.85441 0.19713 0.70344 0.0
C185 C 0.85329 0.13151 0.65436 0.0
C186 C 0.83016 0.23027 0.72055 0.0
C187 C 0.77818 0.22808 0.71151 0.0
C188 C 0.82591 0.16159 0.67759 0.0
C189 C 0.74944 0.18956 0.68766 0.0
C190 C 0.82159 0.09248 0.63154 0.0
C191 C 0.93958 0.12153 0.62923 0.0
N192 N 0.77382 0.15823 0.67133 0.0
N193 N 0.91117 0.14459 0.65254 0.0
H194 H 0.83126 0.92044 0.1643 0.0
H195 H 0.51959 0.88309 0.13995 0.0
H196 H 0.78101 0.91514 0.04728 0.0
H197 H 0.51408 0.7633 0.24946 0.0
H198 H 0.62649 0.91869 0.11257 0.0
H199 H 0.72439 0.88123 0.20225 0.0
C200 C 0.79783 0.91079 0.1467 0.0
C201 C 0.81499 0.92115 0.10259 0.0
C202 C 0.60213 0.88502 0.14279 0.0
C203 C 0.69419 0.87796 0.14538 0.0
C204 C 0.54103 0.86472 0.15866 0.0
C205 C 0.50732 0.81936 0.19685 0.0
C206 C 0.63082 0.86071 0.16529 0.0
C207 C 0.53829 0.79827 0.21988 0.0
C208 C 0.73713 0.88825 0.16835 0.0
C209 C 0.76996 0.90767 0.08126 0.0
N210 N 0.59865 0.81893 0.20355 0.0
N211 N 0.71197 0.88766 0.10276 0.0
H212 H 0.92873 0.85415 0.66371 0.0
H213 H 0.84272 0.5289 0.63682 0.0
H214 H 0.90466 0.80164 0.54886 0.0
H215 H 0.76598 0.5429 0.7573 0.0
H216 H 0.88666 0.63618 0.60787 0.0
H217 H 0.88649 0.74718 0.70173 0.0
C218 C 0.9145 0.82031 0.64655 0.0
C219 C 0.92021 0.83697 0.603 0.0
C220 C 0.86058 0.61617 0.64074 0.0
C221 C 0.87312 0.71559 0.64599 0.0
C222 C 0.83544 0.55464 0.65752 0.0
C223 C 0.79969 0.52625 0.69957 0.0
C224 C 0.8509 0.65091 0.66595 0.0
C225 C 0.79311 0.56281 0.72472 0.0
C226 C 0.89026 0.75948 0.6683 0.0
C227 C 0.90101 0.79127 0.58237 0.0
N228 N 0.81833 0.6236 0.70742 0.0
N229 N 0.87894 0.73309 0.60392 0.0
H230 H 0.15345 0.95088 0.49641 0.0
H231 H 0.15935 0.78732 0.31242 0.0
H232 H 0.04631 0.9422 0.40848 0.0
H233 H 0.2723 0.81491 0.39749 0.0
H234 H 0.12042 0.84837 0.34255 0.0
H235 H 0.19926 0.90363 0.45729 0.0
C236 C 0.1397 0.93928 0.4687 0.0
C237 C 0.09606 0.95079 0.45571 0.0
C238 C 0.15421 0.84142 0.35418 0.0
C239 C 0.14841 0.89587 0.41045 0.0
C240 C 0.1767 0.80712 0.33673 0.0
C241 C 0.21859 0.79574 0.35281 0.0
C242 C 0.17413 0.86415 0.38766 0.0
C243 C 0.23924 0.82177 0.38466 0.0
C244 C 0.16601 0.91226 0.44621 0.0
C245 C 0.08012 0.93454 0.41947 0.0
N246 N 0.21661 0.85421 0.40111 0.0
N247 N 0.10602 0.90755 0.3982 0.0
H248 H 0.17334 0.02359 0.93858 0.0
H249 H 0.4962 0.32424 0.86131 0.0
H250 H 0.20182 0.1912 0.96463 0.0
H251 H 0.47037 0.14877 0.85767 0.0
H252 H 0.38662 0.27975 0.89072 0.0
H253 H 0.27995 0.07185 0.90094 0.0
C254 C 0.20187 0.07072 0.93624 0.0
C255 C 0.1782 0.10343 0.95471 0.0
C256 C 0.40472 0.25122 0.88239 0.0
C257 C 0.30117 0.15917 0.91135 0.0
C258 C 0.46708 0.27671 0.86516 0.0
C259 C 0.49191 0.24054 0.85515 0.0
C260 C 0.36701 0.18892 0.88996 0.0
C261 C 0.45274 0.17875 0.86266 0.0
C262 C 0.26296 0.09825 0.91469 0.0
C263 C 0.21783 0.16432 0.95063 0.0
N264 N 0.39229 0.15491 0.87952 0.0
N265 N 0.27736 0.19019 0.92945 0.0
H266 H 0.00252 0.1907 0.44136 0.0
H267 H 0.30287 0.51173 0.3442 0.0
H268 H 0.17719 0.22533 0.45689 0.0
H269 H 0.12483 0.48353 0.34519 0.0
H270 H 0.2598 0.40339 0.37542 0.0
H271 H 0.04813 0.29434 0.39848 0.0
C272 C 0.0506 0.21996 0.43565 0.0
C273 C 0.08608 0.19894 0.45275 0.0
C274 C 0.23021 0.42054 0.36792 0.0
C275 C 0.13877 0.31829 0.40321 0.0
C276 C 0.25493 0.48221 0.34945 0.0
C277 C 0.21747 0.50622 0.34119 0.0
C278 C 0.16736 0.3826 0.37862 0.0
C279 C 0.15535 0.46649 0.35018 0.0
C280 C 0.0766 0.27929 0.41106 0.0
C281 C 0.14806 0.23935 0.44431 0.0
N282 N 0.13215 0.40668 0.36866 0.0
N283 N 0.17238 0.29703 0.42017 0.0
H284 H 0.86417 0.00824 0.93925 0.0
H285 H 0.85154 0.29598 0.82213 0.0
H286 H 0.97718 0.18615 0.95043 0.0
H287 H 0.69447 0.11956 0.87129 0.0
H288 H 0.91158 0.25573 0.8516 0.0
H289 H 0.81427 0.04859 0.89781 0.0
C290 C 0.87905 0.05598 0.93255 0.0
C291 C 0.92502 0.09398 0.9483 0.0
C292 C 0.86428 0.22569 0.85507 0.0
C293 C 0.86844 0.14034 0.90042 0.0
C294 C 0.83034 0.24833 0.83779 0.0
C295 C 0.76832 0.21064 0.84404 0.0
C296 C 0.83601 0.16483 0.87789 0.0
C297 C 0.74236 0.14971 0.86557 0.0
C298 C 0.85036 0.07882 0.90903 0.0
C299 C 0.94183 0.15531 0.93902 0.0
N300 N 0.77633 0.1286 0.88174 0.0
N301 N 0.91369 0.17672 0.91549 0.0
H302 H 0.74745 0.05471 0.32455 0.0
H303 H 0.45661 0.742 0.38982 0.0
H304 H 0.6448 0.95507 0.45399 0.0
H305 H 0.48922 0.86999 0.27454 0.0
H306 H 0.53651 0.82131 0.40851 0.0
H307 H 0.65864 -0.00548 0.30148 0.0
C308 C 0.70571 0.0218 0.3482 0.0
C309 C 0.70437 0.00815 0.39113 0.0
C310 C 0.52625 0.83222 0.3791 0.0
C311 C 0.60397 0.93929 0.365 0.0
C312 C 0.4812 0.78673 0.36807 0.0
C313 C 0.46569 0.79952 0.3308 0.0
C314 C 0.55694 0.89107 0.35247 0.0
C315 C 0.49981 0.85826 0.30359 0.0
C316 C 0.65531 0.98734 0.33496 0.0
C317 C 0.64871 0.96647 0.42049 0.0
N318 N 0.54409 0.90225 0.31502 0.0
N319 N 0.60129 0.93219 0.40678 0.0
H320 H 0.9786 0.66279 0.94754 0.0
H321 H 0.85443 0.51138 0.76969 0.0
H322 H 0.04212 0.76407 0.81629 0.0
H323 H 0.76921 0.44481 0.90414 0.0
H324 H 0.93957 0.59593 0.78244 0.0
H325 H 0.92674 0.57092 0.92719 0.0
C326 C 0.98363 0.6659 0.91419 0.0
C327 C 0.01227 0.72189 0.8838 0.0
C328 C 0.9021 0.56248 0.80897 0.0
C329 C 0.95027 0.6165 0.86063 0.0
C330 C 0.85302 0.51498 0.80166 0.0
C331 C 0.80392 0.47148 0.83577 0.0
C332 C 0.90232 0.56544 0.85068 0.0
C333 C 0.80569 0.47726 0.87674 0.0
C334 C 0.95285 0.61316 0.90266 0.0
C335 C 0.01779 0.72205 0.84103 0.0
N336 N 0.85393 0.52304 0.88296 0.0
N337 N 0.98512 0.67029 0.83073 0.0
loop_
_geom_bond_atom_site_label_1
_geom_bond_atom_site_label_2
_geom_bond_distance
_geom_bond_site_symmetry_2
_ccdc_geom_bond_type
Eu0 C9 2.828 . S
Eu0 O11 2.392 1_545 S
Eu0 O13 2.418 1_455 S
Eu0 O18 2.373 1_455 S
Eu0 O21 2.488 . S
Eu0 O22 2.471 . S
Eu0 O23 2.349 1_554 S
Eu1 O10 2.373 1_656 S
Eu1 O14 2.488 1_655 S
Eu1 O15 2.471 . S
Eu1 O16 2.349 1_556 S
Eu1 O19 2.392 1_565 S
Eu1 O20 2.418 1_665 S
Eu1 C30 2.828 . S
C2 O20 1.244 . S
C2 O23 1.265 . S
C3 C4 1.379 . S
C3 C7 1.373 . S
C3 C9 1.505 . S
C4 C3 1.379 . S
C4 C6 1.369 . S
C4 H32 0.930 . S
C5 C7 1.383 . S
C5 C8 1.382 . S
C5 H33 0.930 . S
C6 C4 1.369 . S
C6 C8 1.392 . S
C6 H34 0.930 . S
C7 C3 1.373 . S
C7 C5 1.383 . S
C7 H35 0.931 . S
C8 C5 1.382 . S
C8 C6 1.392 . S
C9 Eu0 2.828 . S
C9 C3 1.505 . S
C9 O21 1.249 . S
C9 O22 1.244 . S
O10 Eu1 2.373 1_454 S
O10 C12 1.258 . S
O11 Eu0 2.392 1_565 S
O11 C12 1.242 . S
C12 O10 1.258 . S
C12 O11 1.242 . S
O13 Eu0 2.418 1_655 S
O13 C17 1.244 1_545 S
O14 Eu1 2.488 1_455 S
O14 C30 1.249 1_455 S
O15 Eu1 2.471 . S
O15 C30 1.244 . S
O16 Eu1 2.349 1_554 S
O16 C17 1.265 . S
C17 O13 1.244 1_565 S
C17 O16 1.265 . S
O18 Eu0 2.373 1_655 S
O18 C31 1.258 1_554 S
O19 Eu1 2.392 1_545 S
O19 C31 1.242 . S
O20 Eu1 2.418 1_445 S
O20 C2 1.244 . S
O21 Eu0 2.488 . S
O21 C9 1.249 . S
O22 Eu0 2.471 . S
O22 C9 1.244 . S
O23 Eu0 2.349 1_556 S
O23 C2 1.265 . S
C24 C25 1.379 . S
C24 C28 1.373 . S
C24 C30 1.505 . S
C25 C24 1.379 . S
C25 C27 1.369 . S
C25 H36 0.930 1_556 S
C26 C28 1.383 . S
C26 C29 1.382 . S
C26 H37 0.930 . S
C27 C25 1.369 . S
C27 C29 1.392 . S
C27 H38 0.930 1_556 S
C28 C24 1.373 . S
C28 C26 1.383 . S
C28 H39 0.931 1_655 S
C29 C26 1.382 . S
C29 C27 1.392 . S
C30 Eu1 2.828 . S
C30 O14 1.249 1_655 S
C30 O15 1.244 . S
C30 C24 1.505 . S
C31 O18 1.258 1_556 S
C31 O19 1.242 . S
H32 C4 0.930 . S
H33 C5 0.930 . S
H34 C6 0.930 . S
H35 C7 0.931 . S
H36 C25 0.930 1_554 S
H37 C26 0.930 . S
H38 C27 0.930 1_554 S
H39 C28 0.931 1_455 S
Eu40 C49 2.828 . S
Eu40 O51 2.392 1_655 S
Eu40 O53 2.418 1_665 S
Eu40 O58 2.373 1_565 S
Eu40 O61 2.488 1_565 S
Eu40 O62 2.471 . S
Eu40 O63 2.349 . S
Eu41 O50 2.373 1_545 S
Eu41 O54 2.488 . S
Eu41 O55 2.471 . S
Eu41 O56 2.349 . S
Eu41 O59 2.392 1_455 S
Eu41 O60 2.418 1_445 S
Eu41 C70 2.828 . S
C42 O60 1.244 . S
C42 O63 1.265 . S
C43 C44 1.379 . S
C43 C47 1.373 . S
C43 C49 1.505 . S
C44 C43 1.379 . S
C44 C46 1.369 . S
C44 H72 0.930 . S
C45 C47 1.383 . S
C45 C48 1.382 . S
C45 H73 0.930 . S
C46 C44 1.369 . S
C46 C48 1.392 . S
C46 H74 0.930 . S
C47 C43 1.373 . S
C47 C45 1.383 . S
C47 H75 0.931 1_565 S
C48 C45 1.382 . S
C48 C46 1.392 . S
C49 Eu40 2.828 . S
C49 C43 1.505 . S
C49 O61 1.249 1_565 S
C49 O62 1.244 . S
O50 Eu41 2.373 1_565 S
O50 C52 1.258 . S
O51 Eu40 2.392 1_455 S
O51 C52 1.242 . S
C52 O50 1.258 . S
C52 O51 1.242 . S
O53 Eu40 2.418 1_445 S
O53 C57 1.244 . S
O54 Eu41 2.488 . S
O54 C70 1.249 . S
O55 Eu41 2.471 . S
O55 C70 1.244 . S
O56 Eu41 2.349 . S
O56 C57 1.265 . S
C57 O53 1.244 . S
C57 O56 1.265 . S
O58 Eu40 2.373 1_545 S
O58 C71 1.258 . S
O59 Eu41 2.392 1_655 S
O59 C71 1.242 . S
O60 Eu41 2.418 1_665 S
O60 C42 1.244 . S
O61 Eu40 2.488 1_545 S
O61 C49 1.249 1_545 S
O62 Eu40 2.471 . S
O62 C49 1.244 . S
O63 Eu40 2.349 . S
O63 C42 1.265 . S
C64 C65 1.379 . S
C64 C68 1.373 . S
C64 C70 1.505 . S
C65 C64 1.379 . S
C65 C67 1.369 . S
C65 H76 0.930 . S
C66 C68 1.383 . S
C66 C69 1.382 . S
C66 H77 0.930 . S
C67 C65 1.369 . S
C67 C69 1.392 . S
C67 H78 0.930 . S
C68 C64 1.373 . S
C68 C66 1.383 . S
C68 H79 0.931 . S
C69 C66 1.382 . S
C69 C67 1.392 . S
C70 Eu41 2.828 . S
C70 O54 1.249 . S
C70 O55 1.244 . S
C70 C64 1.505 . S
C71 O58 1.258 . S
C71 O59 1.242 . S
H72 C44 0.930 . S
H73 C45 0.930 . S
H74 C46 0.930 . S
H75 C47 0.931 1_545 S
H76 C65 0.930 . S
H77 C66 0.930 . S
H78 C67 0.930 . S
H79 C68 0.931 . S
Zn80 O86 1.920 . S
Zn80 O92 1.898 . S
Zn80 O95 1.905 . S
Zn81 O89 1.905 . S
Zn81 O90 1.898 . S
Zn81 O98 1.920 . S
Zn82 O85 2.080 . S
Zn82 O88 2.114 . S
Zn82 O91 2.120 . S
Zn82 O93 2.120 . S
Zn82 O94 2.114 . S
Zn82 O97 2.080 . S
C83 O88 1.166 . S
C83 O89 1.182 . S
C84 O90 1.167 . S
C84 O91 1.299 . S
O85 Zn82 2.080 . S
O85 C99 1.305 . S
O86 Zn80 1.920 . S
O86 C99 1.234 . S
C87 O92 1.167 . S
C87 O93 1.299 . S
O88 Zn82 2.114 . S
O88 C83 1.166 . S
O89 Zn81 1.905 . S
O89 C83 1.182 . S
O90 Zn81 1.898 . S
O90 C84 1.167 . S
O91 Zn82 2.120 . S
O91 C84 1.299 . S
O92 Zn80 1.898 . S
O92 C87 1.167 . S
O93 Zn82 2.120 . S
O93 C87 1.299 . S
O94 Zn82 2.114 . S
O94 C96 1.166 . S
O95 Zn80 1.905 . S
O95 C96 1.182 . S
C96 O94 1.166 . S
C96 O95 1.182 . S
O97 Zn82 2.080 . S
O97 C100 1.305 . S
O98 Zn81 1.920 . S
O98 C100 1.234 . S
C99 O85 1.305 . S
C99 O86 1.234 . S
C100 O97 1.305 . S
C100 O98 1.234 . S
Zn101 O107 1.920 . S
Zn101 O113 1.898 . S
Zn101 O116 1.905 . S
Zn102 O110 1.905 . S
Zn102 O111 1.898 . S
Zn102 O119 1.920 . S
Zn103 O106 2.080 . S
Zn103 O109 2.114 . S
Zn103 O112 2.120 . S
Zn103 O114 2.120 . S
Zn103 O115 2.114 . S
Zn103 O118 2.080 . S
C104 O109 1.166 . S
C104 O110 1.182 . S
C105 O111 1.167 . S
C105 O112 1.299 . S
O106 Zn103 2.080 . S
O106 C120 1.305 . S
O107 Zn101 1.920 . S
O107 C120 1.234 . S
C108 O113 1.167 . S
C108 O114 1.299 . S
O109 Zn103 2.114 . S
O109 C104 1.166 . S
O110 Zn102 1.905 . S
O110 C104 1.182 . S
O111 Zn102 1.898 . S
O111 C105 1.167 . S
O112 Zn103 2.120 . S
O112 C105 1.299 . S
O113 Zn101 1.898 . S
O113 C108 1.167 . S
O114 Zn103 2.120 . S
O114 C108 1.299 . S
O115 Zn103 2.114 . S
O115 C117 1.166 . S
O116 Zn101 1.905 . S
O116 C117 1.182 . S
C117 O115 1.166 . S
C117 O116 1.182 . S
O118 Zn103 2.080 . S
O118 C121 1.305 . S
O119 Zn102 1.920 . S
O119 C121 1.234 . S
C120 O106 1.305 . S
C120 O107 1.234 . S
C121 O118 1.305 . S
C121 O119 1.234 . S
H122 C128 0.930 . S
H123 C132 0.930 . S
H124 C137 0.929 1_655 S
H125 C135 0.929 . S
H126 C130 0.929 . S
H127 C136 0.929 . S
C128 H122 0.930 . S
C128 C129 1.367 . S
C128 C136 1.378 . S
C129 C128 1.367 . S
C129 C137 1.433 . S
C130 H126 0.929 . S
C130 C132 1.378 . S
C130 C134 1.350 . S
C131 C134 1.463 . S
C131 C136 1.350 . S
C131 N139 1.427 . S
C132 H123 0.930 . S
C132 C130 1.378 . S
C132 C133 1.367 . S
C133 C132 1.367 . S
C133 C135 1.433 . S
C134 C130 1.350 . S
C134 C131 1.463 . S
C134 N138 1.427 . S
C135 H125 0.929 . S
C135 C133 1.433 . S
C135 N138 1.384 . S
C136 H127 0.929 . S
C136 C128 1.378 . S
C136 C131 1.350 . S
C137 H124 0.929 1_455 S
C137 C129 1.433 . S
C137 N139 1.384 . S
N138 C134 1.427 . S
N138 C135 1.384 . S
N139 C131 1.427 . S
N139 C137 1.384 . S
H140 C146 0.930 . S
H141 C150 0.930 . S
H142 C155 0.929 . S
H143 C153 0.929 . S
H144 C148 0.929 . S
H145 C154 0.929 . S
C146 H140 0.930 . S
C146 C147 1.367 . S
C146 C154 1.378 . S
C147 C146 1.367 . S
C147 C155 1.433 . S
C148 H144 0.929 . S
C148 C150 1.378 . S
C148 C152 1.350 . S
C149 C152 1.463 . S
C149 C154 1.350 . S
C149 N157 1.427 . S
C150 H141 0.930 . S
C150 C148 1.378 . S
C150 C151 1.367 . S
C151 C150 1.367 . S
C151 C153 1.433 . S
C152 C148 1.350 . S
C152 C149 1.463 . S
C152 N156 1.427 . S
C153 H143 0.929 . S
C153 C151 1.433 . S
C153 N156 1.384 . S
C154 H145 0.929 . S
C154 C146 1.378 . S
C154 C149 1.350 . S
C155 H142 0.929 . S
C155 C147 1.433 . S
C155 N157 1.384 . S
N156 C152 1.427 . S
N156 C153 1.384 . S
N157 C149 1.427 . S
N157 C155 1.384 . S
H158 C164 0.930 . S
H159 C168 0.930 . S
H160 C173 0.929 . S
H161 C171 0.929 . S
H162 C166 0.929 . S
H163 C172 0.929 . S
C164 H158 0.930 . S
C164 C165 1.367 . S
C164 C172 1.378 . S
C165 C164 1.367 . S
C165 C173 1.433 . S
C166 H162 0.929 . S
C166 C168 1.378 . S
C166 C170 1.350 . S
C167 C170 1.463 . S
C167 C172 1.350 . S
C167 N175 1.427 . S
C168 H159 0.930 . S
C168 C166 1.378 . S
C168 C169 1.367 . S
C169 C168 1.367 . S
C169 C171 1.433 . S
C170 C166 1.350 . S
C170 C167 1.463 . S
C170 N174 1.427 . S
C171 H161 0.929 . S
C171 C169 1.433 . S
C171 N174 1.384 . S
C172 H163 0.929 . S
C172 C164 1.378 . S
C172 C167 1.350 . S
C173 H160 0.929 . S
C173 C165 1.433 . S
C173 N175 1.384 . S
N174 C170 1.427 . S
N174 C171 1.384 . S
N175 C167 1.427 . S
N175 C173 1.384 . S
H176 C182 0.930 . S
H177 C186 0.930 . S
H178 C191 0.929 . S
H179 C189 0.929 . S
H180 C184 0.929 . S
H181 C190 0.929 . S
C182 H176 0.930 . S
C182 C183 1.367 . S
C182 C190 1.378 . S
C183 C182 1.367 . S
C183 C191 1.433 . S
C184 H180 0.929 . S
C184 C186 1.378 . S
C184 C188 1.350 . S
C185 C188 1.463 . S
C185 C190 1.350 . S
C185 N193 1.427 . S
C186 H177 0.930 . S
C186 C184 1.378 . S
C186 C187 1.367 . S
C187 C186 1.367 . S
C187 C189 1.433 . S
C188 C184 1.350 . S
C188 C185 1.463 . S
C188 N192 1.427 . S
C189 H179 0.929 . S
C189 C187 1.433 . S
C189 N192 1.384 . S
C190 H181 0.929 . S
C190 C182 1.378 . S
C190 C185 1.350 . S
C191 H178 0.929 . S
C191 C183 1.433 . S
C191 N193 1.384 . S
N192 C188 1.427 . S
N192 C189 1.384 . S
N193 C185 1.427 . S
N193 C191 1.384 . S
H194 C200 0.930 . S
H195 C204 0.930 . S
H196 C209 0.929 . S
H197 C207 0.929 . S
H198 C202 0.929 . S
H199 C208 0.929 . S
C200 H194 0.930 . S
C200 C201 1.367 . S
C200 C208 1.378 . S
C201 C200 1.367 . S
C201 C209 1.433 . S
C202 H198 0.929 . S
C202 C204 1.378 . S
C202 C206 1.350 . S
C203 C206 1.463 . S
C203 C208 1.350 . S
C203 N211 1.427 . S
C204 H195 0.930 . S
C204 C202 1.378 . S
C204 C205 1.367 . S
C205 C204 1.367 . S
C205 C207 1.433 . S
C206 C202 1.350 . S
C206 C203 1.463 . S
C206 N210 1.427 . S
C207 H197 0.929 . S
C207 C205 1.433 . S
C207 N210 1.384 . S
C208 H199 0.929 . S
C208 C200 1.378 . S
C208 C203 1.350 . S
C209 H196 0.929 . S
C209 C201 1.433 . S
C209 N211 1.384 . S
N210 C206 1.427 . S
N210 C207 1.384 . S
N211 C203 1.427 . S
N211 C209 1.384 . S
H212 C218 0.930 . S
H213 C222 0.930 . S
H214 C227 0.929 . S
H215 C225 0.929 . S
H216 C220 0.929 . S
H217 C226 0.929 . S
C218 H212 0.930 . S
C218 C219 1.367 . S
C218 C226 1.378 . S
C219 C218 1.367 . S
C219 C227 1.433 . S
C220 H216 0.929 . S
C220 C222 1.378 . S
C220 C224 1.350 . S
C221 C224 1.463 . S
C221 C226 1.350 . S
C221 N229 1.427 . S
C222 H213 0.930 . S
C222 C220 1.378 . S
C222 C223 1.367 . S
C223 C222 1.367 . S
C223 C225 1.433 . S
C224 C220 1.350 . S
C224 C221 1.463 . S
C224 N228 1.427 . S
C225 H215 0.929 . S
C225 C223 1.433 . S
C225 N228 1.384 . S
C226 H217 0.929 . S
C226 C218 1.378 . S
C226 C221 1.350 . S
C227 H214 0.929 . S
C227 C219 1.433 . S
C227 N229 1.384 . S
N228 C224 1.427 . S
N228 C225 1.384 . S
N229 C221 1.427 . S
N229 C227 1.384 . S
H230 C236 0.930 . S
H231 C240 0.930 . S
H232 C245 0.929 1_545 S
H233 C243 0.929 . S
H234 C238 0.929 . S
H235 C244 0.929 . S
C236 H230 0.930 . S
C236 C237 1.367 . S
C236 C244 1.378 . S
C237 C236 1.367 . S
C237 C245 1.433 . S
C238 H234 0.929 . S
C238 C240 1.378 . S
C238 C242 1.350 . S
C239 C242 1.463 . S
C239 C244 1.350 . S
C239 N247 1.427 . S
C240 H231 0.930 . S
C240 C238 1.378 . S
C240 C241 1.367 . S
C241 C240 1.367 . S
C241 C243 1.433 . S
C242 C238 1.350 . S
C242 C239 1.463 . S
C242 N246 1.427 . S
C243 H233 0.929 . S
C243 C241 1.433 . S
C243 N246 1.384 . S
C244 H235 0.929 . S
C244 C236 1.378 . S
C244 C239 1.350 . S
C245 H232 0.929 1_565 S
C245 C237 1.433 . S
C245 N247 1.384 . S
N246 C242 1.427 . S
N246 C243 1.384 . S
N247 C239 1.427 . S
N247 C245 1.384 . S
H248 C254 0.930 . S
H249 C258 0.930 . S
H250 C263 0.929 . S
H251 C261 0.929 . S
H252 C256 0.929 . S
H253 C262 0.929 . S
C254 H248 0.930 . S
C254 C255 1.367 . S
C254 C262 1.378 . S
C255 C254 1.367 . S
C255 C263 1.433 . S
C256 H252 0.929 . S
C256 C258 1.378 . S
C256 C260 1.350 . S
C257 C260 1.463 . S
C257 C262 1.350 . S
C257 N265 1.427 . S
C258 H249 0.930 . S
C258 C256 1.378 . S
C258 C259 1.367 . S
C259 C258 1.367 . S
C259 C261 1.433 . S
C260 C256 1.350 . S
C260 C257 1.463 . S
C260 N264 1.427 . S
C261 H251 0.929 . S
C261 C259 1.433 . S
C261 N264 1.384 . S
C262 H253 0.929 . S
C262 C254 1.378 . S
C262 C257 1.350 . S
C263 H250 0.929 . S
C263 C255 1.433 . S
C263 N265 1.384 . S
N264 C260 1.427 . S
N264 C261 1.384 . S
N265 C257 1.427 . S
N265 C263 1.384 . S
H266 C272 0.930 . S
H267 C276 0.930 . S
H268 C281 0.929 . S
H269 C279 0.929 . S
H270 C274 0.929 . S
H271 C280 0.929 . S
C272 H266 0.930 . S
C272 C273 1.367 . S
C272 C280 1.378 . S
C273 C272 1.367 . S
C273 C281 1.433 . S
C274 H270 0.929 . S
C274 C276 1.378 . S
C274 C278 1.350 . S
C275 C278 1.463 . S
C275 C280 1.350 . S
C275 N283 1.427 . S
C276 H267 0.930 . S
C276 C274 1.378 . S
C276 C277 1.367 . S
C277 C276 1.367 . S
C277 C279 1.433 . S
C278 C274 1.350 . S
C278 C275 1.463 . S
C278 N282 1.427 . S
C279 H269 0.929 . S
C279 C277 1.433 . S
C279 N282 1.384 . S
C280 H271 0.929 . S
C280 C272 1.378 . S
C280 C275 1.350 . S
C281 H268 0.929 . S
C281 C273 1.433 . S
C281 N283 1.384 . S
N282 C278 1.427 . S
N282 C279 1.384 . S
N283 C275 1.427 . S
N283 C281 1.384 . S
H284 C290 0.930 . S
H285 C294 0.930 . S
H286 C299 0.929 1_455 S
H287 C297 0.929 . S
H288 C292 0.929 . S
H289 C298 0.929 . S
C290 H284 0.930 . S
C290 C291 1.367 . S
C290 C298 1.378 . S
C291 C290 1.367 . S
C291 C299 1.433 . S
C292 H288 0.929 . S
C292 C294 1.378 . S
C292 C296 1.350 . S
C293 C296 1.463 . S
C293 C298 1.350 . S
C293 N301 1.427 . S
C294 H285 0.930 . S
C294 C292 1.378 . S
C294 C295 1.367 . S
C295 C294 1.367 . S
C295 C297 1.433 . S
C296 C292 1.350 . S
C296 C293 1.463 . S
C296 N300 1.427 . S
C297 H287 0.929 . S
C297 C295 1.433 . S
C297 N300 1.384 . S
C298 H289 0.929 . S
C298 C290 1.378 . S
C298 C293 1.350 . S
C299 H286 0.929 1_655 S
C299 C291 1.433 . S
C299 N301 1.384 . S
N300 C296 1.427 . S
N300 C297 1.384 . S
N301 C293 1.427 . S
N301 C299 1.384 . S
H302 C308 0.930 . S
H303 C312 0.930 . S
H304 C317 0.929 . S
H305 C315 0.929 . S
H306 C310 0.929 . S
H307 C316 0.929 . S
C308 H302 0.930 . S
C308 C309 1.367 . S
C308 C316 1.378 . S
C309 C308 1.367 . S
C309 C317 1.433 . S
C310 H306 0.929 . S
C310 C312 1.378 . S
C310 C314 1.350 . S
C311 C314 1.463 . S
C311 C316 1.350 . S
C311 N319 1.427 . S
C312 H303 0.930 . S
C312 C310 1.378 . S
C312 C313 1.367 . S
C313 C312 1.367 . S
C313 C315 1.433 . S
C314 C310 1.350 . S
C314 C311 1.463 . S
C314 N318 1.427 . S
C315 H305 0.929 . S
C315 C313 1.433 . S
C315 N318 1.384 . S
C316 H307 0.929 . S
C316 C308 1.378 . S
C316 C311 1.350 . S
C317 H304 0.929 . S
C317 C309 1.433 . S
C317 N319 1.384 . S
N318 C314 1.427 . S
N318 C315 1.384 . S
N319 C311 1.427 . S
N319 C317 1.384 . S
H320 C326 0.930 . S
H321 C330 0.930 . S
H322 C335 0.929 . S
H323 C333 0.929 . S
H324 C328 0.929 . S
H325 C334 0.929 . S
C326 H320 0.930 . S
C326 C327 1.367 . S
C326 C334 1.378 . S
C327 C326 1.367 . S
C327 C335 1.433 . S
C328 H324 0.929 . S
C328 C330 1.378 . S
C328 C332 1.350 . S
C329 C332 1.463 . S
C329 C334 1.350 . S
C329 N337 1.427 . S
C330 H321 0.930 . S
C330 C328 1.378 . S
C330 C331 1.367 . S
C331 C330 1.367 . S
C331 C333 1.433 . S
C332 C328 1.350 . S
C332 C329 1.463 . S
C332 N336 1.427 . S
C333 H323 0.929 . S
C333 C331 1.433 . S
C333 N336 1.384 . S
C334 H325 0.929 . S
C334 C326 1.378 . S
C334 C329 1.350 . S
C335 H322 0.929 . S
C335 C327 1.433 . S
C335 N337 1.384 . S
N336 C332 1.427 . S
N336 C333 1.384 . S
N337 C329 1.427 . S
N337 C335 1.384 . S
C129 C12 1.615 . S
C133 C99 1.514 . S
C147 C69 0.985 . S
C151 C105 0.946 . S
C165 C8 1.095 . S
C169 C96 1.030 . S
C183 C71 1.913 . S
C187 C121 1.770 . S
C201 C17 2.343 . S
C205 C87 2.261 . S
C223 C104 2.064 . S
C219 C42 2.120 . S
C237 C52 1.617 . S
C241 C100 1.515 . S
C259 C117 2.069 . S
C255 C2 2.117 . S
C277 C84 2.258 . S
C273 C57 2.339 . S
C295 C120 1.757 . S
C291 C31 1.904 . S
C313 C83 1.034 . S
C309 C48 1.096 . S
C331 C108 0.955 . S
C327 C29 0.993 . S
