# Generated by pormake.
# Topology ctn, (3,4)-cn, num edge types: 1
# Building blocks:
#     Node 0, Type 0, BuildingBlock: WUSLED_clean_sbu_0, # of connection points: 3
#     Node 1, Type 0, BuildingBlock: WUSLED_clean_sbu_0, # of connection points: 3
#     Node 2, Type 0, BuildingBlock: WUSLED_clean_sbu_0, # of connection points: 3
#     Node 3, Type 0, BuildingBlock: WUSLED_clean_sbu_0, # of connection points: 3
#     Node 4, Type 0, BuildingBlock: WUSLED_clean_sbu_0, # of connection points: 3
#     Node 5, Type 0, BuildingBlock: WUSLED_clean_sbu_0, # of connection points: 3
#     Node 6, Type 0, BuildingBlock: WUSLED_clean_sbu_0, # of connection points: 3
#     Node 7, Type 0, BuildingBlock: WUSLED_clean_sbu_0, # of connection points: 3
#     Node 8, Type 0, BuildingBlock: WUSLED_clean_sbu_0, # of connection points: 3
#     Node 9, Type 0, BuildingBlock: WUSLED_clean_sbu_0, # of connection points: 3
#     Node 10, Type 0, BuildingBlock: WUSLED_clean_sbu_0, # of connection points: 3
#     Node 11, Type 0, BuildingBlock: WUSLED_clean_sbu_0, # of connection points: 3
#     Node 12, Type 0, BuildingBlock: WUSLED_clean_sbu_0, # of connection points: 3
#     Node 13, Type 0, BuildingBlock: WUSLED_clean_sbu_0, # of connection points: 3
#     Node 14, Type 0, BuildingBlock: WUSLED_clean_sbu_0, # of connection points: 3
#     Node 15, Type 0, BuildingBlock: WUSLED_clean_sbu_0, # of connection points: 3
#     Node 16, Type 1, BuildingBlock: TATPOV_clean_sbu_0, # of connection points: 4
#     Node 17, Type 1, BuildingBlock: TATPOV_clean_sbu_0, # of connection points: 4
#     Node 18, Type 1, BuildingBlock: TATPOV_clean_sbu_0, # of connection points: 4
#     Node 19, Type 1, BuildingBlock: TATPOV_clean_sbu_0, # of connection points: 4
#     Node 20, Type 1, BuildingBlock: TATPOV_clean_sbu_0, # of connection points: 4
#     Node 21, Type 1, BuildingBlock: TATPOV_clean_sbu_0, # of connection points: 4
#     Node 22, Type 1, BuildingBlock: TATPOV_clean_sbu_0, # of connection points: 4
#     Node 23, Type 1, BuildingBlock: TATPOV_clean_sbu_0, # of connection points: 4
#     Node 24, Type 1, BuildingBlock: TATPOV_clean_sbu_0, # of connection points: 4
#     Node 25, Type 1, BuildingBlock: TATPOV_clean_sbu_0, # of connection points: 4
#     Node 26, Type 1, BuildingBlock: TATPOV_clean_sbu_0, # of connection points: 4
#     Node 27, Type 1, BuildingBlock: TATPOV_clean_sbu_0, # of connection points: 4
#     Edge 28, Type (0, 1), BuildingBlock: AJUNOK_clean_linker_0, # of connection points: 2
#     Edge 29, Type (0, 1), BuildingBlock: AJUNOK_clean_linker_0, # of connection points: 2
#     Edge 30, Type (0, 1), BuildingBlock: AJUNOK_clean_linker_0, # of connection points: 2
#     Edge 31, Type (0, 1), BuildingBlock: AJUNOK_clean_linker_0, # of connection points: 2
#     Edge 32, Type (0, 1), BuildingBlock: AJUNOK_clean_linker_0, # of connection points: 2
#     Edge 33, Type (0, 1), BuildingBlock: AJUNOK_clean_linker_0, # of connection points: 2
#     Edge 34, Type (0, 1), BuildingBlock: AJUNOK_clean_linker_0, # of connection points: 2
#     Edge 35, Type (0, 1), BuildingBlock: AJUNOK_clean_linker_0, # of connection points: 2
#     Edge 36, Type (0, 1), BuildingBlock: AJUNOK_clean_linker_0, # of connection points: 2
#     Edge 37, Type (0, 1), BuildingBlock: AJUNOK_clean_linker_0, # of connection points: 2
#     Edge 38, Type (0, 1), BuildingBlock: AJUNOK_clean_linker_0, # of connection points: 2
#     Edge 39, Type (0, 1), BuildingBlock: AJUNOK_clean_linker_0, # of connection points: 2
#     Edge 40, Type (0, 1), BuildingBlock: AJUNOK_clean_linker_0, # of connection points: 2
#     Edge 41, Type (0, 1), BuildingBlock: AJUNOK_clean_linker_0, # of connection points: 2
#     Edge 42, Type (0, 1), BuildingBlock: AJUNOK_clean_linker_0, # of connection points: 2
#     Edge 43, Type (0, 1), BuildingBlock: AJUNOK_clean_linker_0, # of connection points: 2
#     Edge 44, Type (0, 1), BuildingBlock: AJUNOK_clean_linker_0, # of connection points: 2
#     Edge 45, Type (0, 1), BuildingBlock: AJUNOK_clean_linker_0, # of connection points: 2
#     Edge 46, Type (0, 1), BuildingBlock: AJUNOK_clean_linker_0, # of connection points: 2
#     Edge 47, Type (0, 1), BuildingBlock: AJUNOK_clean_linker_0, # of connection points: 2
#     Edge 48, Type (0, 1), BuildingBlock: AJUNOK_clean_linker_0, # of connection points: 2
#     Edge 49, Type (0, 1), BuildingBlock: AJUNOK_clean_linker_0, # of connection points: 2
#     Edge 50, Type (0, 1), BuildingBlock: AJUNOK_clean_linker_0, # of connection points: 2
#     Edge 51, Type (0, 1), BuildingBlock: AJUNOK_clean_linker_0, # of connection points: 2
#     Edge 52, Type (0, 1), BuildingBlock: AJUNOK_clean_linker_0, # of connection points: 2
#     Edge 53, Type (0, 1), BuildingBlock: AJUNOK_clean_linker_0, # of connection points: 2
#     Edge 54, Type (0, 1), BuildingBlock: AJUNOK_clean_linker_0, # of connection points: 2
#     Edge 55, Type (0, 1), BuildingBlock: AJUNOK_clean_linker_0, # of connection points: 2
#     Edge 56, Type (0, 1), BuildingBlock: AJUNOK_clean_linker_0, # of connection points: 2
#     Edge 57, Type (0, 1), BuildingBlock: AJUNOK_clean_linker_0, # of connection points: 2
#     Edge 58, Type (0, 1), BuildingBlock: AJUNOK_clean_linker_0, # of connection points: 2
#     Edge 59, Type (0, 1), BuildingBlock: AJUNOK_clean_linker_0, # of connection points: 2
#     Edge 60, Type (0, 1), BuildingBlock: AJUNOK_clean_linker_0, # of connection points: 2
#     Edge 61, Type (0, 1), BuildingBlock: AJUNOK_clean_linker_0, # of connection points: 2
#     Edge 62, Type (0, 1), BuildingBlock: AJUNOK_clean_linker_0, # of connection points: 2
#     Edge 63, Type (0, 1), BuildingBlock: AJUNOK_clean_linker_0, # of connection points: 2
#     Edge 64, Type (0, 1), BuildingBlock: AJUNOK_clean_linker_0, # of connection points: 2
#     Edge 65, Type (0, 1), BuildingBlock: AJUNOK_clean_linker_0, # of connection points: 2
#     Edge 66, Type (0, 1), BuildingBlock: AJUNOK_clean_linker_0, # of connection points: 2
#     Edge 67, Type (0, 1), BuildingBlock: AJUNOK_clean_linker_0, # of connection points: 2
#     Edge 68, Type (0, 1), BuildingBlock: AJUNOK_clean_linker_0, # of connection points: 2
#     Edge 69, Type (0, 1), BuildingBlock: AJUNOK_clean_linker_0, # of connection points: 2
#     Edge 70, Type (0, 1), BuildingBlock: AJUNOK_clean_linker_0, # of connection points: 2
#     Edge 71, Type (0, 1), BuildingBlock: AJUNOK_clean_linker_0, # of connection points: 2
#     Edge 72, Type (0, 1), BuildingBlock: AJUNOK_clean_linker_0, # of connection points: 2
#     Edge 73, Type (0, 1), BuildingBlock: AJUNOK_clean_linker_0, # of connection points: 2
#     Edge 74, Type (0, 1), BuildingBlock: AJUNOK_clean_linker_0, # of connection points: 2
#     Edge 75, Type (0, 1), BuildingBlock: AJUNOK_clean_linker_0, # of connection points: 2
# Relax obj value: 0.004
# Max RMSD: 0.048
# Mean RMSD: 0.023
data_MOF--net-ctn--node1-WUSLED_clean_sbu_0--node2-TATPOV_clean_sbu_0--edge1-AJUNOK_clean_linker_0
_symmetry_space_group_name_H-M    P1
_symmetry_Int_Tables_number       1
_symmetry_cell_setting            triclinic
loop_
_symmetry_equiv_pos_as_xyz
'x, y, z'
_cell_length_a     56.015667
_cell_length_b     56.320065
_cell_length_c     56.18889
_cell_angle_alpha  91.481551
_cell_angle_beta   90.858628
_cell_angle_gamma 90.770739
loop_
_atom_site_label
_atom_site_type_symbol
_atom_site_fract_x
_atom_site_fract_y
_atom_site_fract_z
_atom_type_partial_charge
C0 C 1.00146 0.05942 0.10005 0.0
C1 C 1.01058 0.04454 0.11763 0.0
C2 C 0.97256 0.04568 0.13863 0.0
C3 C 0.99625 0.03773 0.13675 0.0
C4 C 0.9636 0.06045 0.12085 0.0
C5 C 0.97787 0.06722 0.10188 0.0
U6 U 0.05302 0.05577 0.05395 0.0
O7 O 0.05124 0.06416 0.01591 0.0
O8 O 0.07483 0.0852 0.04004 0.0
C9 C 0.06593 0.08249 0.01834 0.0
C10 C 0.01592 0.06762 0.07987 0.0
C11 C 0.05961 0.1044 1.00555 0.0
C12 C 0.03117 0.12903 0.98427 0.0
C13 C 0.03599 0.10959 0.99876 0.0
C14 C 0.07334 0.13871 0.98365 0.0
C15 C 0.04986 0.14364 0.97624 0.0
C16 C 0.07812 0.1194 0.99811 0.0
C17 C 0.0972 1.00248 0.05482 0.0
C18 C 0.13792 0.99834 0.04044 0.0
C19 C 0.11473 0.96332 0.04967 0.0
C20 C 0.0955 0.97766 0.05602 0.0
C21 C 0.13632 0.97341 0.042 0.0
C22 C 0.11857 1.01274 0.04681 0.0
C23 C 0.07683 0.0169 0.06324 0.0
O24 O 0.03785 0.07506 0.08472 0.0
O25 O 0.01418 0.05491 0.05996 0.0
O26 O 0.05776 0.01707 0.04933 0.0
O27 O 0.0818 0.03777 0.0733 0.0
H28 H 0.02871 0.0382 0.11657 0.0
H29 H 1.0036 0.026 0.14986 0.0
H30 H 0.94555 0.06703 0.12176 0.0
H31 H 0.97045 0.07876 0.0886 0.0
H32 H 1.01292 0.13207 0.97864 0.0
H33 H 0.02133 0.09828 1.00409 0.0
H34 H 0.08814 0.14965 0.97795 0.0
H35 H 0.09648 0.11576 1.00297 0.0
H36 H 0.15408 1.0067 0.03416 0.0
H37 H 0.11286 0.94426 0.05122 0.0
H38 H 0.07929 0.96932 0.06225 0.0
H39 H 0.12038 0.03184 0.04563 0.0
C40 C 0.27157 0.75985 0.18106 0.0
C41 C 0.29065 0.76073 0.16511 0.0
C42 C 0.27302 0.79456 0.14527 0.0
C43 C 0.29127 0.77774 0.14738 0.0
C44 C 0.25394 0.79367 0.16122 0.0
C45 C 0.25324 0.77651 0.1789 0.0
U46 U 0.29609 0.72561 0.23468 0.0
O47 O 0.27744 0.71171 0.26582 0.0
O48 O 0.2956 0.68728 0.24123 0.0
C49 C 0.28201 0.68949 0.26001 0.0
C50 C 0.26989 0.7411 0.19915 0.0
C51 C 0.26206 0.67221 0.26189 0.0
C52 C 0.23091 0.6463 0.2444 0.0
C53 C 0.24876 0.6638 0.24191 0.0
C54 C 0.23933 0.64568 0.28676 0.0
C55 C 0.22597 0.63708 0.26689 0.0
C56 C 0.2571 0.66307 0.28427 0.0
C57 C 0.3577 0.74645 0.26152 0.0
C58 C 0.38413 0.72607 0.289 0.0
C59 C 0.39286 0.76664 0.27841 0.0
C60 C 0.37236 0.76672 0.26397 0.0
C61 C 0.39927 0.7462 0.29072 0.0
C62 C 0.36349 0.72614 0.27437 0.0
C63 C 0.33714 0.74712 0.24478 0.0
O64 O 0.28471 0.72326 0.19705 0.0
O65 O 0.26727 0.74841 0.22136 0.0
O66 O 0.31674 0.75401 0.25369 0.0
O67 O 0.33478 0.72937 0.22923 0.0
H68 H 0.305 0.74807 0.16605 0.0
H69 H 0.30588 0.77737 0.13498 0.0
H70 H 0.23957 0.80629 0.16008 0.0
H71 H 0.23821 0.77614 0.19081 0.0
H72 H 0.22094 0.64 0.22877 0.0
H73 H 0.25233 0.67054 0.22442 0.0
H74 H 0.23641 0.63858 0.30422 0.0
H75 H 0.2673 0.66911 0.29986 0.0
H76 H 0.3886 0.71014 0.29839 0.0
H77 H 0.40391 0.78256 0.27976 0.0
H78 H 0.36816 0.78261 0.25436 0.0
H79 H 0.35231 0.71032 0.27281 0.0
C80 C 0.96721 0.42664 1.00593 0.0
C81 C 0.99002 0.41663 1.00732 0.0
C82 C 0.9783 0.38632 0.97741 0.0
C83 C 0.99553 0.3966 0.99314 0.0
C84 C 0.9553 0.39603 0.97672 0.0
C85 C 0.94983 0.41596 0.99084 0.0
U86 U 0.97854 0.47441 0.05534 0.0
O87 O 0.97481 0.51318 0.05421 0.0
O88 O 0.95249 0.49265 0.07816 0.0
C89 C 0.95689 0.51349 0.06903 0.0
C90 C 0.96128 0.44866 0.01921 0.0
C91 C 0.93588 0.52667 0.06095 0.0
C92 C 0.9029 0.5316 0.03306 0.0
C93 C 0.92189 0.51818 0.04157 0.0
C94 C 0.91127 0.56189 0.06356 0.0
C95 C 0.89767 0.55381 0.04368 0.0
C96 C 0.93029 0.54844 0.07207 0.0
C97 C 0.0323 0.46948 0.09812 0.0
C98 C 0.03681 0.49006 0.13657 0.0
C99 C 0.06905 0.46619 0.12116 0.0
C100 C 0.0555 0.46081 0.1006 0.0
C101 C 0.05955 0.48024 0.13967 0.0
C102 C 0.02323 0.48468 0.11592 0.0
C103 C 0.01745 0.46115 0.07766 0.0
O104 O 0.95434 0.44607 0.04124 0.0
O105 O 0.97603 0.46676 0.0168 0.0
O106 O 0.0178 0.47446 0.0588 0.0
O107 O 0.99596 0.45334 0.08278 0.0
H108 H 1.00369 0.42463 0.01891 0.0
H109 H 0.01349 0.38976 0.9938 0.0
H110 H 0.94163 0.38846 0.96486 0.0
H111 H 0.93211 0.42336 0.98959 0.0
H112 H 0.89241 0.52471 0.01801 0.0
H113 H 0.92589 0.50136 0.03282 0.0
H114 H 0.90763 0.57891 0.07208 0.0
H115 H 0.94093 0.55525 0.08706 0.0
H116 H 0.02909 0.50089 0.1506 0.0
H117 H 0.08666 0.45866 0.123 0.0
H118 H 0.06286 0.4492 0.08697 0.0
H119 H 1.00538 0.49166 0.11424 0.0
C120 C 0.72826 0.74241 0.17701 0.0
C121 C 0.75015 0.74624 0.16576 0.0
C122 C 0.7401 0.71522 0.13597 0.0
C123 C 0.75605 0.73271 0.14542 0.0
C124 C 0.71811 0.71174 0.1472 0.0
C125 C 0.71226 0.72522 0.16748 0.0
U126 U 0.73532 0.79429 0.223 0.0
O127 O 0.70755 0.81395 0.2421 0.0
O128 O 0.73342 0.79313 0.2622 0.0
C129 C 0.7139 0.80581 0.26295 0.0
C130 C 0.72193 0.75551 0.19904 0.0
C131 C 0.69444 0.79694 0.27806 0.0
C132 C 0.65413 0.78109 0.28297 0.0
C133 C 0.67337 0.78664 0.26827 0.0
C134 C 0.6772 0.79488 0.31749 0.0
C135 C 0.6556 0.78581 0.30767 0.0
C136 C 0.69636 0.80044 0.30283 0.0
C137 C 0.78199 0.84403 0.21415 0.0
C138 C 0.79028 0.87588 0.24324 0.0
C139 C 0.80797 0.87728 0.20424 0.0
C140 C 0.79668 0.85561 0.19793 0.0
C141 C 0.80464 0.88784 0.22687 0.0
C142 C 0.77897 0.85425 0.23691 0.0
C143 C 0.76975 0.82156 0.20691 0.0
O144 O 0.73803 0.75578 0.21631 0.0
O145 O 0.71178 0.77618 0.19627 0.0
O146 O 0.74724 0.82342 0.2004 0.0
O147 O 0.77357 0.80336 0.22058 0.0
H148 H 0.76278 0.75942 0.1729 0.0
H149 H 0.77328 0.73556 0.13742 0.0
H150 H 0.7054 0.69854 0.14028 0.0
H151 H 0.69527 0.72203 0.1759 0.0
H152 H 0.63771 0.77416 0.27488 0.0
H153 H 0.67147 0.78361 0.24921 0.0
H154 H 0.67902 0.79835 0.33649 0.0
H155 H 0.71247 0.80823 0.31081 0.0
H156 H 0.78779 0.88326 0.26101 0.0
H157 H 0.81889 0.88603 0.19126 0.0
H158 H 0.79924 0.84797 0.18028 0.0
H159 H 0.76779 0.84555 0.24973 0.0
C160 C 1.00526 0.97028 0.42746 0.0
C161 C 1.00972 0.99144 0.41547 0.0
C162 C 0.97621 0.98263 0.38823 0.0
C163 C 0.99529 0.99757 0.39595 0.0
C164 C 0.97229 0.96122 0.40001 0.0
C165 C 0.98668 0.95512 0.41938 0.0
U166 U 0.05631 0.98042 0.47347 0.0
O167 O 0.05633 0.97614 0.51231 0.0
O168 O 0.0797 0.95424 0.49011 0.0
C169 C 0.07127 0.95836 0.51151 0.0
C170 C 0.01916 0.96387 0.4488 0.0
C171 C 0.06397 0.93729 0.52475 0.0
C172 C 0.0396 0.90159 0.5284 0.0
C173 C 0.04703 0.92101 0.51518 0.0
C174 C 0.06609 0.91438 0.56085 0.0
C175 C 0.04894 0.89812 0.55145 0.0
C176 C 0.07355 0.93377 0.54758 0.0
C177 C 0.09931 0.03369 0.46744 0.0
C178 C 0.13479 0.04072 0.49231 0.0
C179 C 0.12654 0.06618 0.45914 0.0
C180 C 0.1056 0.05325 0.45389 0.0
C181 C 0.14158 0.05981 0.47811 0.0
C182 C 0.11378 0.02768 0.48696 0.0
C183 C 0.07844 0.01909 0.45992 0.0
O184 O 0.04109 0.95681 0.44511 0.0
O185 O 0.01743 0.97835 0.4674 0.0
O186 O 0.06013 0.01942 0.47427 0.0
O187 O 0.08324 0.99773 0.4515 0.0
H188 H 0.02401 1.00339 0.42148 0.0
H189 H 0.99854 0.01432 0.38745 0.0
H190 H 0.95782 0.9493 0.39441 0.0
H191 H 0.98301 0.93868 0.42834 0.0
H192 H 0.02641 0.88934 0.52064 0.0
H193 H 0.03937 0.92347 0.49761 0.0
H194 H 0.07324 0.91252 0.57871 0.0
H195 H 0.08654 0.94626 0.55531 0.0
H196 H 0.14623 0.03525 0.50682 0.0
H197 H 0.13136 0.08082 0.44795 0.0
H198 H 0.09464 0.05814 0.43878 0.0
H199 H 0.10919 1.01253 0.49757 0.0
C200 C 0.21738 0.77862 0.84739 0.0
C201 C 0.22507 0.76541 0.86687 0.0
C202 C 0.22907 0.80165 0.89159 0.0
C203 C 0.23081 0.77681 0.88873 0.0
C204 C 0.22149 0.8148 0.87198 0.0
C205 C 0.21564 0.80338 0.85017 0.0
U206 U 0.22443 0.73169 0.79645 0.0
O207 O 0.19649 0.71131 0.77659 0.0
O208 O 0.21993 0.73577 0.75776 0.0
C209 C 0.20129 0.72136 0.75632 0.0
C210 C 0.2105 0.76705 0.82428 0.0
C211 C 0.18062 0.72977 0.74249 0.0
C212 C 0.145 0.75373 0.73838 0.0
C213 C 0.16461 0.74632 0.75203 0.0
C214 C 0.15737 0.72825 0.70558 0.0
C215 C 0.14113 0.74469 0.71501 0.0
C216 C 0.17687 0.72086 0.7192 0.0
C217 C 0.27465 0.68555 0.79903 0.0
C218 C 0.27645 0.64967 0.77403 0.0
C219 C 0.30903 0.65966 0.80143 0.0
C220 C 0.29714 0.68028 0.80869 0.0
C221 C 0.29858 0.64381 0.78443 0.0
C222 C 0.26458 0.67035 0.78128 0.0
C223 C 0.26161 0.70628 0.80856 0.0
O224 O 0.22545 0.76982 0.80672 0.0
O225 O 0.20159 0.74536 0.82506 0.0
O226 O 0.23981 0.70195 0.81582 0.0
O227 O 0.26332 0.72589 0.79649 0.0
H228 H 0.22661 0.74629 0.86524 0.0
H229 H 0.23659 0.76613 0.90345 0.0
H230 H 0.22055 0.83398 0.87332 0.0
H231 H 0.20979 0.81394 0.83538 0.0
H232 H 0.13306 0.76673 0.746 0.0
H233 H 0.16729 0.75351 0.76996 0.0
H234 H 0.15483 0.72087 0.68771 0.0
H235 H 0.18902 0.70806 0.71153 0.0
H236 H 0.26812 0.63801 0.76062 0.0
H237 H 0.32595 0.65561 0.80986 0.0
H238 H 0.30524 0.6918 0.82238 0.0
H239 H 0.24731 0.67418 0.77345 0.0
C240 C 0.96881 0.60478 0.53076 0.0
C241 C 0.98102 0.62261 0.51861 0.0
C242 C 0.98337 0.6472 0.5549 0.0
C243 C 0.98812 0.6437 0.53056 0.0
C244 C 0.97207 0.62889 0.56722 0.0
C245 C 0.96482 0.60787 0.55521 0.0
U246 U 0.96897 0.55926 0.47898 0.0
O247 O 0.96149 0.52083 0.47831 0.0
O248 O 0.93862 0.54436 0.45774 0.0
C249 C 0.94185 0.52278 0.46541 0.0
C250 C 0.95893 0.5836 0.51797 0.0
C251 C 0.92041 0.51047 0.47429 0.0
C252 C 0.8961 0.49656 0.50682 0.0
C253 C 0.91553 0.50989 0.49872 0.0
C254 C 0.88552 0.48516 0.46614 0.0
C255 C 0.88118 0.48365 0.49063 0.0
C256 C 0.90501 0.49837 0.45806 0.0
C257 C 0.01906 0.56433 0.43269 0.0
C258 C 0.02122 0.54127 0.39565 0.0
C259 C 0.0555 0.56461 0.40965 0.0
C260 C 0.04263 0.57223 0.42952 0.0
C261 C 0.04498 0.549 0.39248 0.0
C262 C 1.00838 0.54884 0.41559 0.0
C263 C 1.00633 0.57205 0.45424 0.0
O264 O 0.94896 0.58747 0.49712 0.0
O265 O 0.97234 0.56463 0.51793 0.0
O266 O 1.00753 0.55761 0.47221 0.0
O267 O 0.98491 0.58078 0.45098 0.0
H268 H 0.98444 0.62051 0.49975 0.0
H269 H 0.9968 0.65754 0.52067 0.0
H270 H 0.96783 0.63127 0.58587 0.0
H271 H 0.95541 0.59432 0.56487 0.0
H272 H 0.893 0.49595 0.52578 0.0
H273 H 0.92701 0.51932 0.51157 0.0
H274 H 0.87441 0.47531 0.45327 0.0
H275 H 0.9084 0.49867 0.43914 0.0
H276 H 1.01262 0.52924 0.38273 0.0
H277 H 0.0739 0.57043 0.40808 0.0
H278 H 0.05122 0.58406 0.44264 0.0
H279 H 0.99023 0.54247 0.41778 0.0
C280 C 0.78853 0.78631 0.86854 0.0
C281 C 0.80724 0.77002 0.86786 0.0
C282 C 0.7882 0.74697 0.8986 0.0
C283 C 0.80712 0.75055 0.88283 0.0
C284 C 0.76986 0.76374 0.8997 0.0
C285 C 0.77 0.78323 0.88472 0.0
U286 U 0.81349 0.81877 0.81551 0.0
O287 O 0.79485 0.83387 0.7848 0.0
O288 O 0.81654 0.85702 0.80876 0.0
C289 C 0.80138 0.85576 0.79067 0.0
C290 C 0.78768 0.80593 0.85179 0.0
C291 C 0.78194 0.87306 0.79121 0.0
C292 C 0.74614 0.88897 0.80916 0.0
C293 C 0.76515 0.87309 0.80948 0.0
C294 C 0.76062 0.90506 0.77241 0.0
C295 C 0.74362 0.90508 0.79058 0.0
C296 C 0.77964 0.8892 0.77277 0.0
C297 C 0.86884 0.79452 0.78463 0.0
C298 C 0.88582 0.81304 0.75004 0.0
C299 C 0.90142 0.77571 0.76356 0.0
C300 C 0.88502 0.7759 0.7821 0.0
C301 C 0.90194 0.79424 0.74725 0.0
C302 C 0.8694 0.81318 0.76858 0.0
C303 C 0.85094 0.79379 0.8035 0.0
O304 O 0.80532 0.82153 0.85369 0.0
O305 O 0.78258 0.79954 0.82962 0.0
O306 O 0.82909 0.7884 0.79621 0.0
O307 O 0.85186 0.81147 0.81924 0.0
H308 H 0.82173 0.77217 0.8555 0.0
H309 H 0.8217 0.73814 0.8819 0.0
H310 H 0.75505 0.76139 0.91164 0.0
H311 H 0.7554 0.79564 0.88545 0.0
H312 H 0.73332 0.88857 0.82339 0.0
H313 H 0.76661 0.86066 0.82382 0.0
H314 H 0.75888 0.91685 0.75758 0.0
H315 H 0.79234 0.88928 0.75842 0.0
H316 H 0.8858 0.82754 0.73775 0.0
H317 H 0.9132 0.76072 0.76157 0.0
H318 H 0.88469 0.76126 0.79424 0.0
H319 H 0.85696 0.82768 0.77022 0.0
C320 C 0.29166 0.2905 0.37369 0.0
C321 C 0.31209 0.28271 0.38594 0.0
C322 C 0.28855 0.25165 0.4043 0.0
C323 C 0.31049 0.26349 0.40126 0.0
C324 C 0.26811 0.25984 0.3925 0.0
C325 C 0.26965 0.27911 0.37742 0.0
U326 U 0.31835 0.32169 0.31977 0.0
O327 O 0.29959 0.33607 0.28875 0.0
O328 O 0.32141 0.35977 0.31212 0.0
C329 C 0.30618 0.35806 0.29408 0.0
C330 C 0.29266 0.3099 0.35649 0.0
C331 C 0.28691 0.37568 0.29322 0.0
C332 C 0.25964 0.40337 0.31227 0.0
C333 C 0.27869 0.38753 0.3138 0.0
C334 C 0.25703 0.39586 0.26966 0.0
C335 C 0.2484 0.40731 0.29023 0.0
C336 C 0.27613 0.38027 0.27115 0.0
C337 C 0.37146 0.29618 0.28622 0.0
C338 C 0.37877 0.29477 0.24362 0.0
C339 C 0.41216 0.29724 0.27144 0.0
C340 C 0.39625 0.29719 0.29047 0.0
C341 C 0.40357 0.29624 0.24779 0.0
C342 C 0.36291 0.29494 0.26256 0.0
C343 C 0.35482 0.29598 0.30648 0.0
O344 O 0.31098 0.32477 0.35815 0.0
O345 O 0.28701 0.30363 0.33442 0.0
O346 O 0.33249 0.29024 0.30124 0.0
O347 O 0.35686 0.31387 0.32194 0.0
H348 H 0.32931 0.29114 0.38336 0.0
H349 H 0.3265 0.25737 0.4101 0.0
H350 H 0.25098 0.25107 0.39469 0.0
H351 H 0.25366 0.28487 0.36828 0.0
H352 H 0.25315 0.41189 0.32837 0.0
H353 H 0.28666 0.38426 0.33107 0.0
H354 H 0.24868 0.39871 0.25246 0.0
H355 H 0.28224 0.37141 0.25505 0.0
H356 H 0.37156 0.29327 0.22564 0.0
H357 H 0.43117 0.29831 0.27522 0.0
H358 H 0.4033 0.29801 0.30854 0.0
H359 H 0.34394 0.29397 0.25858 0.0
C360 C 0.47008 0.92149 0.50951 0.0
C361 C 0.49422 0.91512 0.51078 0.0
C362 C 0.48645 0.8816 0.48326 0.0
C363 C 0.50234 0.89537 0.49773 0.0
C364 C 0.46212 0.8874 0.48294 0.0
C365 C 0.45404 0.90722 0.49588 0.0
U366 U 0.47554 0.97075 0.55776 0.0
O367 O 0.47022 1.00925 0.55574 0.0
O368 O 0.4476 0.98815 0.57894 0.0
C369 C 0.45184 1.00911 0.57 0.0
C370 C 0.46151 0.94335 0.52148 0.0
C371 C 0.43088 0.02219 0.56162 0.0
C372 C 0.39869 0.02784 0.53296 0.0
C373 C 0.41753 0.01424 0.54159 0.0
C374 C 0.40599 0.05719 0.5646 0.0
C375 C 0.39302 0.0497 0.5441 0.0
C376 C 0.42481 0.04357 0.57322 0.0
C377 C 0.52698 0.96987 0.60326 0.0
C378 C 0.52776 0.99363 0.64001 0.0
C379 C 0.56171 0.96943 0.62967 0.0
C380 C 0.55002 0.96195 0.60855 0.0
C381 C 0.55042 0.98483 0.6459 0.0
C382 C 0.51612 0.98622 0.61883 0.0
C383 C 0.51402 0.95993 0.58223 0.0
O384 O 0.45349 0.9409 0.54316 0.0
O385 O 0.47503 0.96242 0.51931 0.0
O386 O 0.5146 0.97276 0.56304 0.0
O387 O 0.49272 0.95103 0.58638 0.0
H388 H 0.50687 0.92574 0.5214 0.0
H389 H 0.52113 0.89114 0.49852 0.0
H390 H 0.44952 0.87719 0.47186 0.0
H391 H 0.43533 0.91178 0.49476 0.0
H392 H 0.38868 0.02137 0.51742 0.0
H393 H 0.42192 0.99773 0.53245 0.0
H394 H 0.40205 0.07393 0.57353 0.0
H395 H 0.43496 0.04998 0.58871 0.0
H396 H 0.51881 1.00574 0.65209 0.0
H397 H 0.5791 0.96232 0.63384 0.0
H398 H 0.55868 0.94939 0.5967 0.0
H399 H 0.4984 0.99268 0.61492 0.0
C400 C 0.22336 0.24277 0.67681 0.0
C401 C 0.24639 0.24372 0.66725 0.0
C402 C 0.23489 0.21379 0.63684 0.0
C403 C 0.25208 0.22939 0.64738 0.0
C404 C 0.21167 0.21356 0.64602 0.0
C405 C 0.20602 0.22784 0.66583 0.0
U406 U 0.23071 0.2946 0.72322 0.0
O407 O 0.20296 0.31423 0.74241 0.0
O408 O 0.2286 0.29302 0.76237 0.0
C409 C 0.20924 0.30593 0.76322 0.0
C410 C 0.21716 0.25615 0.69876 0.0
C411 C 0.18971 0.29729 0.77838 0.0
C412 C 0.1496 0.28097 0.7834 0.0
C413 C 0.16891 0.28634 0.76871 0.0
C414 C 0.17207 0.2963 0.8177 0.0
C415 C 0.15073 0.28654 0.80796 0.0
C416 C 0.1913 0.30167 0.80305 0.0
C417 C 0.27846 0.34366 0.71568 0.0
C418 C 0.2836 0.37765 0.74293 0.0
C419 C 0.31125 0.37189 0.71065 0.0
C420 C 0.29857 0.35132 0.70321 0.0
C421 C 0.30412 0.38513 0.73081 0.0
C422 C 0.27095 0.35707 0.7355 0.0
C423 C 0.26572 0.32163 0.70787 0.0
O424 O 0.23303 0.25612 0.71623 0.0
O425 O 0.20734 0.27698 0.69596 0.0
O426 O 0.24327 0.32402 0.70133 0.0
O427 O 0.26914 0.30308 0.72116 0.0
H428 H 0.26004 0.25521 0.6754 0.0
H429 H 0.27009 0.23002 0.64064 0.0
H430 H 0.19787 0.20222 0.63796 0.0
H431 H 0.18811 0.22693 0.67283 0.0
H432 H 0.13337 0.2735 0.77539 0.0
H433 H 0.16727 0.28267 0.74973 0.0
H434 H 0.17361 0.30047 0.83659 0.0
H435 H 0.2072 0.30998 0.81093 0.0
H436 H 0.27732 0.38774 0.75822 0.0
H437 H 0.32695 0.37716 0.70096 0.0
H438 H 0.3046 0.34123 0.68781 0.0
H439 H 0.25539 0.35156 0.74528 0.0
C440 C 0.76496 0.26281 0.68013 0.0
C441 C 0.78474 0.27821 0.67853 0.0
C442 C 0.7665 0.2971 0.64415 0.0
C443 C 0.7855 0.29518 0.6607 0.0
C444 C 0.74646 0.28203 0.64629 0.0
C445 C 0.74571 0.26508 0.66411 0.0
U446 U 0.79257 0.22764 0.73145 0.0
O447 O 0.77521 0.21112 0.76191 0.0
O448 O 0.79397 0.18891 0.73576 0.0
C449 C 0.78064 0.18945 0.7548 0.0
C450 C 0.76459 0.2435 0.69744 0.0
C451 C 0.7614 0.17134 0.75549 0.0
C452 C 0.72078 0.15737 0.74682 0.0
C453 C 0.73867 0.17498 0.74545 0.0
C454 C 0.74822 0.13239 0.76811 0.0
C455 C 0.72543 0.1358 0.75806 0.0
C456 C 0.766 0.14994 0.76678 0.0
C457 C 0.85414 0.24765 0.75787 0.0
C458 C 0.87533 0.22954 0.79088 0.0
C459 C 0.89373 0.26188 0.76995 0.0
C460 C 0.87362 0.26311 0.75507 0.0
C461 C 0.89493 0.24511 0.78805 0.0
C462 C 0.85507 0.2308 0.77587 0.0
C463 C 0.83331 0.2497 0.74168 0.0
O464 O 0.7804 0.22678 0.69402 0.0
O465 O 0.76268 0.24998 0.71997 0.0
O466 O 0.81299 0.25538 0.7516 0.0
O467 O 0.8309 0.23313 0.72489 0.0
H468 H 0.7998 0.27674 0.6907 0.0
H469 H 0.8012 0.30651 0.65955 0.0
H470 H 0.73178 0.28262 0.63357 0.0
H471 H 0.73034 0.25327 0.66497 0.0
H472 H 0.70338 0.16051 0.73894 0.0
H473 H 0.73476 0.19139 0.73664 0.0
H474 H 0.75222 0.11625 0.77737 0.0
H475 H 0.78338 0.14685 0.77476 0.0
H476 H 0.87577 0.21623 0.80444 0.0
H477 H 0.90833 0.27434 0.76743 0.0
H478 H 0.87325 0.27627 0.74133 0.0
H479 H 0.8402 0.21863 0.77826 0.0
C480 C 0.49735 0.55677 0.59829 0.0
C481 C 0.50703 0.54345 0.61684 0.0
C482 C 0.46853 0.54322 0.63699 0.0
C483 C 0.49274 0.53673 0.63601 0.0
C484 C 0.459 0.55636 0.61822 0.0
C485 C 0.47323 0.56306 0.59917 0.0
U486 U 0.5501 0.55382 0.55366 0.0
O487 O 0.54903 0.56067 0.51523 0.0
O488 O 0.57089 0.58361 0.53918 0.0
C489 C 0.56279 0.57972 0.51733 0.0
C490 C 0.5118 0.56495 0.57809 0.0
C491 C 0.55499 0.60074 0.50408 0.0
C492 C 0.52554 0.63054 0.49405 0.0
C493 C 0.53268 0.61121 0.50771 0.0
C494 C 0.56302 0.62934 0.47324 0.0
C495 C 0.54053 0.6397 0.47642 0.0
C496 C 0.57011 0.6101 0.48687 0.0
C497 C 0.59624 0.50217 0.55874 0.0
C498 C 0.6377 0.49844 0.54645 0.0
C499 C 0.61582 0.46379 0.55911 0.0
C500 C 0.5956 0.47768 0.56275 0.0
C501 C 0.63729 0.47404 0.55141 0.0
C502 C 0.61739 0.51243 0.5502 0.0
C503 C 0.5751 0.51641 0.56535 0.0
O504 O 0.53325 0.57361 0.58315 0.0
O505 O 0.51114 0.55146 0.55866 0.0
O506 O 0.5566 0.51526 0.55069 0.0
O507 O 0.57904 0.53783 0.57456 0.0
H508 H 0.52558 0.53828 0.61652 0.0
H509 H 0.50057 0.52624 0.64991 0.0
H510 H 0.44052 0.56178 0.61841 0.0
H511 H 0.46537 0.57338 0.58513 0.0
H512 H 0.50832 0.63838 0.49737 0.0
H513 H 0.52075 0.60436 0.52097 0.0
H514 H 0.57498 0.63581 0.45982 0.0
H515 H 0.5874 0.6023 0.48374 0.0
H516 H 0.65397 0.50683 0.54044 0.0
H517 H 0.61476 0.44499 0.56266 0.0
H518 H 0.57953 0.46933 0.56928 0.0
H519 H 0.61837 0.53129 0.54695 0.0
C520 C 0.50679 0.47513 0.9251 0.0
C521 C 0.50504 0.49948 0.9206 0.0
C522 C 0.47908 0.49067 0.88616 0.0
C523 C 0.49125 0.50718 0.90133 0.0
C524 C 0.48169 0.4663 0.89016 0.0
C525 C 0.49535 0.45862 0.9095 0.0
U526 U 0.55699 0.48081 0.97218 0.0
O527 O 0.55675 0.4748 1.01072 0.0
O528 O 0.57967 0.45332 0.98763 0.0
C529 C 0.57156 0.45695 1.00924 0.0
C530 C 0.51981 0.46661 0.94624 0.0
C531 C 0.56452 0.43566 0.02226 0.0
C532 C 0.53996 0.40017 0.02633 0.0
C533 C 0.54714 0.41965 1.01305 0.0
C534 C 0.56761 0.41234 0.05802 0.0
C535 C 0.54998 0.39638 0.04905 0.0
C536 C 0.57482 0.43178 0.04471 0.0
C537 C 0.60159 0.53262 0.97023 0.0
C538 C 0.63888 0.53363 0.99292 0.0
C539 C 0.62831 0.56684 0.96848 0.0
C540 C 0.60691 0.55525 0.96179 0.0
C541 C 0.64479 0.55586 0.9836 0.0
C542 C 0.61742 0.52209 0.98629 0.0
C543 C 0.58028 0.51966 0.96104 0.0
O544 O 0.54153 0.45895 0.94252 0.0
O545 O 0.51816 0.47975 0.96584 0.0
O546 O 0.56167 0.51972 0.97501 0.0
O547 O 0.58438 0.49868 0.95127 0.0
H548 H 0.51395 0.51255 0.93222 0.0
H549 H 0.48979 0.52605 0.89849 0.0
H550 H 0.47244 0.4532 0.87883 0.0
H551 H 0.49655 0.43976 0.91258 0.0
H552 H 0.52637 0.38815 0.01891 0.0
H553 H 0.53893 0.4224 0.99578 0.0
H554 H 0.5753 0.41026 0.07563 0.0
H555 H 0.58817 0.44406 0.05216 0.0
H556 H 0.65115 0.52492 1.00483 0.0
H557 H 0.63248 0.5839 0.96097 0.0
H558 H 0.59485 0.56365 0.94942 0.0
H559 H 0.61351 0.50467 0.99311 0.0
C560 C 0.72084 0.2812 0.34342 0.0
C561 C 0.74488 0.28655 0.34897 0.0
C562 C 0.73351 0.30555 0.38665 0.0
C563 C 0.75112 0.29863 0.37033 0.0
C564 C 0.70948 0.29994 0.38111 0.0
C565 C 0.70324 0.28798 0.35968 0.0
U566 U 0.72832 0.23371 0.29325 0.0
O567 O 0.70065 0.21158 0.27486 0.0
O568 O 0.72238 0.2364 0.25462 0.0
C569 C 0.70433 0.22123 0.25416 0.0
C570 C 0.71359 0.26893 0.32077 0.0
C571 C 0.68287 0.22844 0.2408 0.0
C572 C 0.65049 0.25583 0.23335 0.0
C573 C 0.67045 0.24916 0.2469 0.0
C574 C 0.65512 0.22107 0.20765 0.0
C575 C 0.64262 0.24185 0.21353 0.0
C576 C 0.67499 0.21444 0.22117 0.0
C577 C 0.78059 0.18987 0.29595 0.0
C578 C 0.78351 0.15408 0.27101 0.0
C579 C 0.81472 0.16388 0.30001 0.0
C580 C 0.80257 0.18454 0.30668 0.0
C581 C 0.80503 0.14808 0.28254 0.0
C582 C 0.77136 0.17477 0.27769 0.0
C583 C 0.76697 0.21036 0.30508 0.0
O584 O 0.72758 0.27192 0.30245 0.0
O585 O 0.7058 0.24694 0.32248 0.0
O586 O 0.74561 0.20535 0.31309 0.0
O587 O 0.76743 0.22954 0.29225 0.0
H588 H 0.75885 0.28146 0.33681 0.0
H589 H 0.76979 0.30269 0.37402 0.0
H590 H 0.69552 0.30444 0.39349 0.0
H591 H 0.68459 0.28395 0.35583 0.0
H592 H 0.6415 0.27214 0.23811 0.0
H593 H 0.67633 0.26026 0.26196 0.0
H594 H 0.64945 0.20986 0.1926 0.0
H595 H 0.68434 0.19838 0.21618 0.0
H596 H 0.77576 0.14244 0.25723 0.0
H597 H 0.83116 0.15972 0.30931 0.0
H598 H 0.81 0.19598 0.3208 0.0
H599 H 0.75447 0.17864 0.26907 0.0
C600 C 0.46749 0.10378 0.035 0.0
C601 C 0.48366 0.11926 0.02421 0.0
C602 C 0.48166 0.14672 0.0583 0.0
C603 C 0.49067 0.14058 0.03577 0.0
C604 C 0.46642 0.13061 0.06953 0.0
C605 C 0.45932 0.10933 0.05792 0.0
U606 U 0.46997 0.05909 0.98308 0.0
O607 O 0.46339 0.02047 0.98154 0.0
O608 O 0.44089 0.04387 0.9604 0.0
C609 C 0.44459 0.02213 0.96741 0.0
C610 C 0.45809 0.08252 0.02205 0.0
C611 C 0.42324 1.00835 0.97405 0.0
C612 C 0.39296 0.99697 1.00247 0.0
C613 C 0.41233 1.01155 0.99625 0.0
C614 C 0.39494 0.97644 0.96416 0.0
C615 C 0.38433 0.97899 0.98659 0.0
C616 C 0.41415 0.99098 0.95797 0.0
C617 C 0.52089 0.06574 0.93833 0.0
C618 C 0.52425 0.04162 0.90209 0.0
C619 C 0.55706 0.06756 0.91493 0.0
C620 C 0.54387 0.07503 0.93466 0.0
C621 C 0.54744 0.05069 0.89845 0.0
C622 C 0.5111 0.04905 0.92186 0.0
C623 C 0.50779 0.07316 0.95974 0.0
O624 O 0.44864 0.08647 1.00098 0.0
O625 O 0.47186 0.06382 0.02215 0.0
O626 O 0.50878 0.0585 0.97752 0.0
O627 O 0.4863 0.0816 0.95612 0.0
H628 H 0.4903 0.11516 1.00659 0.0
H629 H 0.50264 0.15259 0.02685 0.0
H630 H 0.45917 0.13498 0.08684 0.0
H631 H 0.44689 0.09755 0.06653 0.0
H632 H 0.38535 0.99914 0.01999 0.0
H633 H 0.41912 0.02491 1.00891 0.0
H634 H 0.38863 0.96282 0.95153 0.0
H635 H 0.42226 0.98829 0.94073 0.0
H636 H 0.51632 0.02863 0.88968 0.0
H637 H 0.57502 0.0745 0.91295 0.0
H638 H 0.55177 0.08782 0.94729 0.0
H639 H 0.49341 0.04162 0.92443 0.0
Zn640 Zn 0.29867 0.85861 0.01622 0.0
Zn641 Zn 0.26265 0.88684 0.02136 0.0
O642 O 0.26394 0.86723 0.05312 0.0
O643 O 0.29646 0.84605 0.04897 0.0
O644 O 0.23514 0.91033 0.02706 0.0
O645 O 0.32156 0.88497 1.01009 0.0
O646 O 0.29214 0.90982 0.01558 0.0
C647 C 0.2789 0.8524 0.06135 0.0
C648 C 0.26309 0.84881 0.98025 0.0
O649 O 0.25289 0.86634 0.99067 0.0
O650 O 0.28279 0.84154 0.98841 0.0
C651 C 0.21367 0.90732 0.01957 0.0
O652 O 0.20816 0.88786 1.00719 0.0
C653 C 0.31411 0.90606 1.01101 0.0
Zn654 Zn 0.11255 0.47183 0.28109 0.0
Zn655 Zn 0.13679 0.51125 0.27285 0.0
O656 O 0.11478 0.52009 0.30164 0.0
O657 O 0.0954 0.48682 0.30846 0.0
O658 O 0.15649 0.54144 0.26678 0.0
O659 O 0.14236 0.45351 0.28624 0.0
O660 O 0.16313 0.48599 0.27934 0.0
C661 C 0.09955 0.50849 0.31365 0.0
C662 C 0.10402 0.48788 0.23392 0.0
O663 O 0.11827 0.50472 0.24069 0.0
O664 O 0.09844 0.47179 0.2482 0.0
C665 C 0.15986 0.55795 0.28246 0.0
O666 O 0.1504 0.55561 0.30353 0.0
C667 C 0.16231 0.46389 0.28397 0.0
Zn668 Zn 0.78301 0.61317 0.9671 0.0
Zn669 Zn 0.77522 0.63959 1.00559 0.0
O670 O 0.80579 0.62058 0.01468 0.0
O671 O 0.81314 0.60079 0.98137 0.0
O672 O 0.76942 0.66111 0.03455 0.0
O673 O 0.78422 0.64172 0.94648 0.0
O674 O 0.77947 0.66403 0.97863 0.0
C675 C 0.81885 0.60634 1.00267 0.0
C676 C 0.73828 0.60165 0.98812 0.0
O677 O 0.74415 0.61889 1.00231 0.0
O678 O 0.75217 0.59539 0.97162 0.0
C679 C 0.76229 0.65322 0.05427 0.0
O680 O 0.75882 0.63022 0.05611 0.0
C681 C 0.78257 0.66213 0.95618 0.0
Zn682 Zn 0.85787 1.01084 0.29788 0.0
Zn683 Zn 0.88789 0.01734 0.26384 0.0
O684 O 0.86806 0.04923 0.26578 0.0
O685 O 0.84283 0.04232 0.29455 0.0
O686 O 0.91209 0.02341 0.23722 0.0
O687 O 0.88376 1.00595 0.32201 0.0
O688 O 0.90992 1.011 0.29378 0.0
C689 C 0.85062 0.05584 0.27875 0.0
C690 C 0.85007 0.97613 0.2612 0.0
O691 O 0.86779 0.98699 0.25201 0.0
O692 O 0.84235 0.98302 0.28119 0.0
C693 C 0.90663 0.0217 0.21511 0.0
O694 O 0.88462 0.01559 0.209 0.0
C695 C 0.90527 1.00673 0.31551 0.0
Zn696 Zn 0.28194 0.11613 0.4674 0.0
Zn697 Zn 0.27362 0.14016 0.50717 0.0
O698 O 0.30346 0.11979 0.51583 0.0
O699 O 0.31082 0.10127 0.48182 0.0
O700 O 0.26733 0.16007 0.53726 0.0
O701 O 0.28497 0.14566 0.44865 0.0
O702 O 0.279 0.16624 0.48177 0.0
C703 C 0.3162 0.10556 0.50346 0.0
C704 C 0.23576 0.10509 0.48541 0.0
O705 O 0.24213 0.12029 0.50164 0.0
O706 O 0.24995 0.09994 0.4688 0.0
C707 C 0.25755 0.15138 0.55546 0.0
O708 O 0.25179 0.12869 0.55492 0.0
C709 C 0.2828 0.16549 0.45939 0.0
Zn710 Zn 0.35822 0.50994 0.79998 0.0
Zn711 Zn 0.38555 0.51646 0.76375 0.0
O712 O 0.36419 0.54727 0.76562 0.0
O713 O 0.33881 0.5386 0.79374 0.0
O714 O 0.40848 0.52282 0.73611 0.0
O715 O 0.38539 0.51195 0.82349 0.0
O716 O 0.4093 0.51255 0.7928 0.0
C717 C 0.34591 0.55258 0.77801 0.0
C718 C 0.35305 0.47149 0.76632 0.0
O719 O 0.36688 0.48463 0.75416 0.0
O720 O 0.34725 0.47818 0.78707 0.0
C721 C 0.40342 0.51908 0.71412 0.0
O722 O 0.38216 0.51047 0.70826 0.0
C723 C 0.40628 0.51191 0.8153 0.0
Zn724 Zn 0.79869 0.36185 0.51401 0.0
Zn725 Zn 0.76072 0.38827 0.51908 0.0
O726 O 0.76222 0.36778 0.55029 0.0
O727 O 0.79424 0.34623 0.54504 0.0
O728 O 0.73094 0.40927 0.52302 0.0
O729 O 0.82042 0.39019 0.51264 0.0
O730 O 0.78892 0.41304 0.51529 0.0
C731 C 0.77668 0.35205 0.55771 0.0
C732 C 0.76505 0.35237 0.47624 0.0
O733 O 0.75329 0.36819 0.48767 0.0
O734 O 0.78537 0.3464 0.48399 0.0
C735 C 0.72289 0.41544 0.54334 0.0
O736 O 0.73419 0.40845 0.56252 0.0
C737 C 0.8115 0.41069 0.51333 0.0
Zn738 Zn 0.60923 0.97355 0.78407 0.0
Zn739 Zn 0.63442 1.01256 0.77538 0.0
O740 O 0.61488 0.02243 0.80549 0.0
O741 O 0.59591 0.98915 0.81334 0.0
O742 O 0.6564 0.04072 0.76885 0.0
O743 O 0.63858 0.9535 0.78638 0.0
O744 O 0.6594 0.98604 0.78039 0.0
C745 C 0.6006 1.01074 0.81849 0.0
C746 C 0.59716 0.99308 0.73875 0.0
O747 O 0.61371 1.00808 0.74444 0.0
O748 O 0.59175 0.97673 0.75282 0.0
C749 C 0.65189 0.06271 0.77147 0.0
O750 O 0.63078 0.069 0.7791 0.0
C751 C 0.65861 0.96381 0.78428 0.0
Zn752 Zn 1.0128 0.29889 0.85835 0.0
Zn753 Zn 0.01756 0.26394 0.88691 0.0
O754 O 0.05106 0.26681 0.86967 0.0
O755 O 0.0469 0.29941 0.84924 0.0
O756 O 0.02143 0.23641 0.91035 0.0
O757 O 1.00202 0.32101 0.88421 0.0
O758 O 1.00959 0.29304 0.90969 0.0
C759 C 0.05975 0.28256 0.85607 0.0
C760 C 0.97996 0.26226 0.84546 0.0
O761 O 0.98825 0.25347 0.86464 0.0
O762 O 0.98872 0.28136 0.83784 0.0
C763 C 0.03565 0.21914 0.90722 0.0
O764 O 0.04848 0.21844 0.88784 0.0
C765 C 1.00311 0.31425 0.90548 0.0
Zn766 Zn 0.51916 0.80008 0.362 0.0
Zn767 Zn 0.52328 0.76222 0.38762 0.0
O768 O 0.55637 0.76598 0.3699 0.0
O769 O 0.55241 0.79923 0.35049 0.0
O770 O 0.5291 0.73323 0.4087 0.0
O771 O 0.51243 0.82103 0.3901 0.0
O772 O 0.51594 0.78977 0.41262 0.0
C773 C 0.56501 0.78187 0.35644 0.0
C774 C 0.48483 0.76432 0.3475 0.0
O775 O 0.49395 0.7531 0.36488 0.0
O776 O 0.49285 0.78466 0.34249 0.0
C777 C 0.51324 0.7183 0.41503 0.0
O778 O 0.49109 0.72107 0.40772 0.0
C779 C 0.51237 0.81202 0.41046 0.0
Zn780 Zn 0.97145 0.78599 0.61377 0.0
Zn781 Zn 1.01066 0.77738 0.63902 0.0
O782 O 0.02044 0.80696 0.61931 0.0
O783 O 0.98711 0.81459 0.59992 0.0
O784 O 0.03954 0.77061 0.66017 0.0
O785 O 0.95169 0.7894 0.64322 0.0
O786 O 0.9843 0.78311 0.66418 0.0
C787 C 1.00876 0.81967 0.60476 0.0
C788 C 0.99051 0.74008 0.60253 0.0
O789 O 1.00583 0.74621 0.61868 0.0
O790 O 0.97411 0.75422 0.59688 0.0
C791 C 0.06109 0.77113 0.65336 0.0
O792 O 0.06548 0.77656 0.63123 0.0
C793 C 0.96198 0.78741 0.66325 0.0
Zn794 Zn 0.47255 0.28675 0.11494 0.0
Zn795 Zn 0.51178 0.2776 0.13963 0.0
O796 O 0.52165 0.30672 0.11906 0.0
O797 O 0.48826 0.31441 0.09981 0.0
O798 O 0.54108 0.27108 0.16033 0.0
O799 O 0.45352 0.29203 0.14451 0.0
O800 O 0.48592 0.28414 0.1653 0.0
C801 C 0.51001 0.31924 0.10429 0.0
C802 C 0.49042 0.24029 0.10396 0.0
O803 O 0.50617 0.24617 0.11979 0.0
O804 O 0.47405 0.2546 0.09871 0.0
C805 C 0.5616 0.26636 0.15218 0.0
O806 O 0.56445 0.26582 0.129 0.0
C807 C 0.46393 0.28979 0.16444 0.0
C808 C 0.25798 0.8073 0.92577 0.0
C809 C 0.23654 0.81378 0.91456 0.0
C810 C 0.26601 0.81857 0.94696 0.0
C811 C 0.25303 0.83697 0.95809 0.0
H812 H 0.26899 0.79363 0.91786 0.0
H813 H 0.28282 0.81284 0.9545 0.0
S814 S 0.19495 0.85991 0.93665 0.0
N815 N 0.2018 0.83918 0.91667 0.0
N816 N 0.21708 0.86065 0.95642 0.0
C817 C 0.23134 0.8435 0.94724 0.0
C818 C 0.2231 0.8319 0.92553 0.0
C819 C 0.05872 0.51505 0.36683 0.0
C820 C 0.05911 0.53957 0.37212 0.0
C821 C 0.07198 0.50539 0.34811 0.0
C822 C 0.08629 0.51978 0.3337 0.0
H823 H 0.04829 0.50309 0.37748 0.0
H824 H 0.07097 0.48633 0.34501 0.0
S825 S 0.09294 0.58537 0.33963 0.0
N826 N 0.07456 0.57827 0.36112 0.0
N827 N 0.09967 0.56009 0.32594 0.0
C828 C 0.08687 0.54441 0.33877 0.0
C829 C 0.07328 0.55428 0.35794 0.0
C830 C 0.78296 0.72693 0.93773 0.0
C831 C 0.78704 0.72526 0.91309 0.0
C832 C 0.78167 0.70651 0.95157 0.0
C833 C 0.7842 0.68361 0.94126 0.0
H834 H 0.78097 0.74417 0.94642 0.0
H835 H 0.7786 0.70875 0.97048 0.0
S836 S 0.79387 0.66976 0.87702 0.0
N837 N 0.79266 0.699 0.87876 0.0
N838 N 0.79042 0.66072 0.90447 0.0
C839 C 0.78806 0.6818 0.9165 0.0
C840 C 0.78945 0.70257 0.90252 0.0
C841 C 0.93449 0.98886 0.37377 0.0
C842 C 0.95907 0.98987 0.36928 0.0
C843 C 0.91759 0.99469 0.35639 0.0
C844 C 0.92436 1.00171 0.33349 0.0
H845 H 0.92819 0.98352 0.391 0.0
H846 H 0.89893 0.99338 0.36102 0.0
S847 S 0.98674 1.00748 0.31268 0.0
N848 N 0.9896 0.99867 0.3404 0.0
N849 N 0.95775 1.00963 0.30748 0.0
C850 C 0.94899 1.00307 0.32878 0.0
C851 C 0.96632 0.99723 0.3467 0.0
C852 C 0.25289 0.20622 0.59657 0.0
C853 C 0.24114 0.1975 0.61657 0.0
C854 C 0.25822 0.19122 0.57701 0.0
C855 C 0.25217 0.1668 0.5767 0.0
H856 H 0.25762 0.2249 0.59582 0.0
H857 H 0.26702 0.19892 0.56195 0.0
S858 S 0.22266 0.13488 0.6256 0.0
N859 N 0.22472 0.1627 0.63546 0.0
N860 N 0.2345 0.13457 0.59887 0.0
C861 C 0.24081 0.15781 0.59687 0.0
C862 C 0.23535 0.17311 0.61672 0.0
C863 C 0.42993 0.5267 0.65246 0.0
C864 C 0.45292 0.53627 0.65719 0.0
C865 C 0.41436 0.52102 0.67092 0.0
C866 C 0.42094 0.52473 0.69507 0.0
H867 H 0.42386 0.52354 0.63424 0.0
H868 H 0.39688 0.51381 0.66608 0.0
S869 S 0.47919 0.54961 0.71717 0.0
N870 N 0.48149 0.54936 0.6879 0.0
N871 N 0.4524 0.53859 0.72259 0.0
C872 C 0.44401 0.53411 0.70009 0.0
C873 C 0.45993 0.53985 0.68121 0.0
C874 C 0.78976 0.31233 0.60995 0.0
C875 C 0.76877 0.31292 0.62331 0.0
C876 C 0.79208 0.32542 0.58925 0.0
C877 C 0.77356 0.33988 0.58081 0.0
H878 H 0.80437 0.30105 0.61513 0.0
H879 H 0.80861 0.32383 0.57961 0.0
S880 S 0.71543 0.34914 0.6103 0.0
N881 N 0.72945 0.33023 0.62744 0.0
N882 N 0.73379 0.35487 0.58836 0.0
C883 C 0.75266 0.34126 0.59439 0.0
C884 C 0.75025 0.32774 0.61557 0.0
C885 C 0.58514 0.99795 0.67226 0.0
C886 C 0.56134 0.98972 0.66982 0.0
C887 C 0.59637 1.00029 0.69479 0.0
C888 C 0.58433 0.99394 0.71553 0.0
H889 H 0.59525 1.00219 0.65661 0.0
H890 H 0.61489 1.00606 0.69584 0.0
S891 S 0.52153 0.97251 0.71881 0.0
N892 N 0.5259 0.97616 0.69014 0.0
N893 N 0.54693 0.98032 0.73227 0.0
C894 C 0.56033 0.98639 0.71333 0.0
C895 C 0.54885 0.98434 0.69053 0.0
C896 C 0.93946 0.24604 0.79328 0.0
C897 C 0.91678 0.2444 0.80364 0.0
C898 C 0.96017 0.24983 0.80724 0.0
C899 C 0.9592 0.25171 0.8322 0.0
H900 H 0.94113 0.24548 0.77409 0.0
H901 H 0.977 0.25249 0.79835 0.0
S902 S 0.90471 0.24702 0.86844 0.0
N903 N 0.89484 0.24372 0.84067 0.0
N904 N 0.93401 0.25028 0.8669 0.0
C905 C 0.93696 0.24847 0.84298 0.0
C906 C 0.9157 0.2449 0.82871 0.0
C907 C 0.48491 0.83978 0.46592 0.0
C908 C 0.49541 0.8627 0.46678 0.0
C909 C 0.49156 0.82264 0.44862 0.0
C910 C 0.50853 0.82809 0.43131 0.0
H911 H 0.47111 0.83526 0.47839 0.0
H912 H 0.48251 0.80551 0.44802 0.0
S913 S 0.54193 0.88506 0.42641 0.0
N914 N 0.52431 0.88942 0.44935 0.0
N915 N 0.5365 0.85753 0.41684 0.0
C916 C 0.51964 0.85065 0.43251 0.0
C917 C 0.51317 0.86787 0.45023 0.0
C918 C 0.11538 0.26321 0.82316 0.0
C919 C 0.129 0.28446 0.82289 0.0
C920 C 0.0937 0.26192 0.83558 0.0
C921 C 0.08473 0.28199 0.84772 0.0
H922 H 0.12129 0.24765 0.81331 0.0
H923 H 0.08328 0.24558 0.83455 0.0
S924 S 0.11372 0.34153 0.85308 0.0
N925 N 0.1321 0.3257 0.83659 0.0
N926 N 0.09152 0.32333 0.85949 0.0
C927 C 0.09854 0.30303 0.84815 0.0
C928 C 0.12061 0.30427 0.83586 0.0
C929 C 0.54876 0.67881 0.45683 0.0
C930 C 0.53289 0.6598 0.46114 0.0
C931 C 0.5423 0.69752 0.44199 0.0
C932 C 0.51965 0.69814 0.43074 0.0
H933 H 0.56634 0.67933 0.46513 0.0
H934 H 0.5552 0.71169 0.43943 0.0
S935 S 0.47193 0.65196 0.43502 0.0
N936 N 0.49383 0.64232 0.45205 0.0
N937 N 0.48155 0.67742 0.42453 0.0
C938 C 0.50364 0.67916 0.43482 0.0
C939 C 0.51026 0.66008 0.4499 0.0
C940 C 0.90881 0.79699 0.70354 0.0
C941 C 0.91811 0.79323 0.72647 0.0
C942 C 0.92321 0.79526 0.68342 0.0
C943 C 0.94764 0.78974 0.68531 0.0
H944 H 0.89005 0.80085 0.70101 0.0
H945 H 0.91494 0.7981 0.66622 0.0
S946 S 0.98105 0.77944 0.74164 0.0
N947 N 0.95348 0.78465 0.75015 0.0
N948 N 0.98063 0.7812 0.71234 0.0
C949 C 0.9573 0.78629 0.70824 0.0
C950 C 0.94254 0.78803 0.72879 0.0
C951 C 0.01482 0.87455 0.56728 0.0
C952 C 0.0396 0.87837 0.56601 0.0
C953 C 1.00525 0.85592 0.58027 0.0
C954 C 0.01999 0.84016 0.59268 0.0
H955 H 1.00263 0.88613 0.55815 0.0
H956 H 0.986 0.85383 0.58041 0.0
S957 S 0.08624 0.84239 0.59509 0.0
N958 N 0.07886 0.86486 0.57828 0.0
N959 N 0.06083 0.82986 0.60296 0.0
C960 C 0.04486 0.84399 0.59194 0.0
C961 C 0.05466 0.86306 0.57858 0.0
C962 C 0.12398 0.75917 0.67656 0.0
C963 C 0.12042 0.75234 0.70018 0.0
C964 C 0.10478 0.76546 0.66178 0.0
C965 C 0.0811 0.76512 0.66991 0.0
H966 H 0.14182 0.75966 0.66939 0.0
H967 H 0.10861 0.77046 0.64374 0.0
S968 S 0.06211 0.74825 0.73038 0.0
N969 N 0.09141 0.74541 0.73102 0.0
N970 N 0.05531 0.75736 0.70345 0.0
C971 C 0.07731 0.7585 0.69363 0.0
C972 C 0.09693 0.75213 0.70869 0.0
C973 C 0.97817 0.6911 0.55623 0.0
C974 C 0.98769 0.67083 0.56667 0.0
C975 C 0.97976 0.71339 0.56778 0.0
C976 C 0.99119 0.71646 0.59017 0.0
H977 H 0.96865 0.6896 0.53931 0.0
H978 H 0.97163 0.72831 0.55915 0.0
S979 S 0.0206 0.66921 0.62436 0.0
N980 N 1.00997 0.65529 0.60013 0.0
N981 N 0.01325 0.69736 0.62185 0.0
C982 C 1.00162 0.69648 0.60045 0.0
C983 C 0.99972 0.67363 0.58875 0.0
C984 C 0.84022 0.916 0.22952 0.0
C985 C 0.81575 0.91142 0.23337 0.0
C986 C 0.85121 0.93756 0.23734 0.0
C987 C 0.8381 0.9552 0.24932 0.0
H988 H 0.85112 0.90249 0.22121 0.0
H989 H 0.87024 0.93995 0.23498 0.0
S990 S 0.77287 0.9536 0.26021 0.0
N991 N 0.77833 0.92765 0.24724 0.0
N992 N 0.79886 0.96771 0.26219 0.0
C993 C 0.81341 0.95132 0.25202 0.0
C994 C 0.80227 0.92957 0.24401 0.0
C995 C 0.84091 0.12248 0.27431 0.0
C996 C 0.81616 0.12445 0.27823 0.0
C997 C 0.85197 0.10013 0.2729 0.0
C998 C 0.83872 0.07904 0.27585 0.0
H999 H 0.85186 0.13835 0.27285 0.0
H1000 H 0.87113 0.09945 0.2707 0.0
S1001 S 0.77338 0.07435 0.28536 0.0
N1002 N 0.77878 0.10316 0.28408 0.0
N1003 N 0.79939 0.0615 0.28152 0.0
C1004 C 0.81389 0.08079 0.27893 0.0
C1005 C 0.80266 0.10338 0.28009 0.0
C1006 C 0.37078 0.93704 0.99101 0.0
C1007 C 0.36594 0.96133 0.99383 0.0
C1008 C 0.35398 0.91965 0.99687 0.0
C1009 C 0.33134 0.92564 1.00573 0.0
H1010 H 0.38784 0.93134 0.98422 0.0
H1011 H 0.35886 0.90125 0.99412 0.0
S1012 S 0.3098 0.98698 0.01661 0.0
N1013 N 0.33703 0.99075 1.00629 0.0
N1014 N 0.30516 0.95796 0.01727 0.0
C1015 C 0.32625 0.94996 1.00883 0.0
C1016 C 0.34361 0.96779 1.00298 0.0
C1017 C 0.22687 0.44601 0.29557 0.0
C1018 C 0.22653 0.42178 0.28876 0.0
C1019 C 0.20616 0.4598 0.29366 0.0
C1020 C 0.18437 0.44962 0.28541 0.0
H1021 H 0.24328 0.45438 0.30214 0.0
H1022 H 0.20713 0.47841 0.29899 0.0
S1023 S 0.1744 0.38679 0.26541 0.0
N1024 N 0.20286 0.38825 0.2734 0.0
N1025 N 0.16402 0.41378 0.27007 0.0
C1026 C 0.18394 0.42533 0.27866 0.0
C1027 C 0.205 0.41151 0.28028 0.0
C1028 C 0.18048 0.07245 0.46145 0.0
C1029 C 0.16539 0.07152 0.48114 0.0
C1030 C 0.20306 0.08325 0.46325 0.0
C1031 C 0.21156 0.09386 0.48478 0.0
H1032 H 0.17486 0.06453 0.44446 0.0
H1033 H 0.21385 0.0834 0.44741 0.0
S1034 S 0.17881 0.09634 0.54172 0.0
N1035 N 0.16033 0.08203 0.52296 0.0
N1036 N 0.2029 0.10269 0.52637 0.0
C1037 C 0.19661 0.09315 0.5047 0.0
C1038 C 0.17356 0.08183 0.50289 0.0
C1039 C 0.68376 0.1229 0.76843 0.0
C1040 C 0.70649 0.11707 0.7599 0.0
C1041 C 0.6662 0.1053 0.77182 0.0
C1042 C 0.67058 0.0811 0.76675 0.0
H1043 H 0.67971 0.14117 0.77311 0.0
H1044 H 0.64916 0.11074 0.77883 0.0
S1045 S 0.72665 0.05679 0.74196 0.0
N1046 N 0.73195 0.08562 0.74496 0.0
N1047 N 0.6992 0.05255 0.75142 0.0
C1048 C 0.69308 0.07514 0.75756 0.0
C1049 C 0.71094 0.09309 0.75414 0.0
C1050 C 0.35623 0.07473 0.54832 0.0
C1051 C 0.37419 0.06502 0.53386 0.0
C1052 C 0.3379 0.08855 0.53862 0.0
C1053 C 0.33688 0.09312 0.51411 0.0
H1054 H 0.356 0.07114 0.56716 0.0
H1055 H 0.32407 0.09506 0.55027 0.0
S1056 S 0.38156 0.07457 0.46931 0.0
N1057 N 0.39113 0.06303 0.49434 0.0
N1058 N 0.35681 0.08862 0.47607 0.0
C1059 C 0.35533 0.0843 0.49971 0.0
C1060 C 0.37392 0.07035 0.50958 0.0
C1061 C 0.67257 0.45838 0.5285 0.0
C1062 C 0.6593 0.45937 0.54959 0.0
C1063 C 0.6929 0.44397 0.52645 0.0
C1064 C 0.70103 0.4303 0.54557 0.0
H1065 H 0.66699 0.46854 0.51333 0.0
H1066 H 0.70242 0.44373 0.50981 0.0
S1067 S 0.67289 0.42726 0.60494 0.0
N1068 N 0.65603 0.44578 0.59009 0.0
N1069 N 0.694 0.41898 0.58641 0.0
C1070 C 0.68799 0.4314 0.56683 0.0
C1071 C 0.66723 0.44582 0.56879 0.0
C1072 C 0.75969 0.30914 0.42318 0.0
C1073 C 0.74045 0.31775 0.40973 0.0
C1074 C 0.76709 0.3203 0.44466 0.0
C1075 C 0.7556 0.34064 0.45383 0.0
H1076 H 0.76911 0.29348 0.41712 0.0
H1077 H 0.78208 0.31282 0.45413 0.0
S1078 S 0.70443 0.37067 0.42529 0.0
N1079 N 0.71017 0.34815 0.40694 0.0
N1080 N 0.72389 0.36897 0.44755 0.0
C1081 C 0.73613 0.34935 0.44071 0.0
C1082 C 0.72861 0.33796 0.41866 0.0
C1083 C 0.563 0.01676 0.87399 0.0
C1084 C 0.56191 0.04141 0.87829 0.0
C1085 C 0.57599 1.00725 0.85502 0.0
C1086 C 0.58855 0.0219 0.83937 0.0
H1087 H 0.55376 1.00464 0.88547 0.0
H1088 H 0.57599 0.9881 0.85258 0.0
S1089 S 0.59146 0.08779 0.84282 0.0
N1090 N 0.57452 0.08044 0.86536 0.0
N1091 N 0.59917 0.06251 0.8297 0.0
C1092 C 0.58797 0.04663 0.84366 0.0
C1093 C 0.57463 0.05637 0.86309 0.0
C1094 C 0.29341 0.23002 0.4427 0.0
C1095 C 0.28713 0.22974 0.41835 0.0
C1096 C 0.2916 0.2093 0.45611 0.0
C1097 C 0.28396 0.18754 0.44544 0.0
H1098 H 0.29949 0.24641 0.45147 0.0
H1099 H 0.29656 0.21026 0.47482 0.0
S1100 S 0.26561 0.17767 0.38206 0.0
N1101 N 0.27299 0.20612 0.38414 0.0
N1102 N 0.26984 0.16726 0.40897 0.0
C1103 C 0.27775 0.18716 0.42103 0.0
C1104 C 0.27927 0.20823 0.40758 0.0
C1105 C 0.46353 0.4896 0.84379 0.0
C1106 C 0.46222 0.49868 0.86734 0.0
C1107 C 0.44621 0.49517 0.82645 0.0
C1108 C 0.4267 0.5096 0.83223 0.0
H1109 H 0.47779 0.47772 0.83887 0.0
H1110 H 0.44746 0.48717 0.80878 0.0
S1111 S 0.41568 0.53874 0.89099 0.0
N1112 N 0.44041 0.52367 0.89512 0.0
N1113 N 0.40786 0.53389 0.86282 0.0
C1114 C 0.42568 0.5194 0.85549 0.0
C1115 C 0.44342 0.51401 0.87297 0.0
C1116 C 0.74323 0.6752 0.1157 0.0
C1117 C 0.74649 0.69999 0.11497 0.0
C1118 C 0.7486 0.66036 0.09613 0.0
C1119 C 0.75737 0.66962 0.07486 0.0
H1120 H 0.73658 0.66714 0.13165 0.0
H1121 H 0.74569 0.64142 0.09775 0.0
S1122 S 0.7686 0.73353 0.06358 0.0
N1123 N 0.7587 0.73326 0.09111 0.0
N1124 N 0.76895 0.70547 0.05433 0.0
C1125 C 0.76078 0.69444 0.0739 0.0
C1126 C 0.75534 0.70957 0.09392 0.0
C1127 C 0.93318 0.03076 0.15373 0.0
C1128 C 0.95679 0.03851 0.15864 0.0
C1129 C 0.91742 0.02513 0.17203 0.0
C1130 C 0.92442 0.02703 0.19623 0.0
H1131 H 0.92674 0.02905 0.13548 0.0
H1132 H 0.89946 0.01941 0.16704 0.0
S1133 S 0.98442 0.04654 0.21883 0.0
N1134 N 0.98645 0.04781 0.1896 0.0
N1135 N 0.95699 0.03709 0.224 0.0
C1136 C 0.94813 0.03448 0.20143 0.0
C1137 C 0.96424 0.04019 0.1827 0.0
C1138 C 0.25333 0.8163 0.11151 0.0
C1139 C 0.27369 0.81236 0.12594 0.0
C1140 C 0.25452 0.83076 0.09143 0.0
C1141 C 0.27614 0.84164 0.085 0.0
H1142 H 0.23664 0.80724 0.11508 0.0
H1143 H 0.23881 0.83227 0.08011 0.0
S1144 S 0.33342 0.84044 0.11889 0.0
N1145 N 0.3152 0.8234 0.13401 0.0
N1146 N 0.31757 0.84972 0.09602 0.0
C1147 C 0.29616 0.83903 0.10005 0.0
C1148 C 0.29491 0.82462 0.12055 0.0
C1149 C 0.07714 0.50471 0.17402 0.0
C1150 C 0.0722 0.48237 0.16306 0.0
C1151 C 0.08828 0.50659 0.19665 0.0
C1152 C 0.09427 0.48616 0.20924 0.0
H1153 H 0.07231 0.5208 0.16505 0.0
H1154 H 0.09153 0.52407 0.20463 0.0
S1155 S 0.08535 0.42359 0.18808 0.0
N1156 N 0.07445 0.43954 0.16634 0.0
N1157 N 0.09511 0.44296 0.20864 0.0
C1158 C 0.08964 0.46378 0.19826 0.0
C1159 C 0.07866 0.46191 0.17524 0.0
C1160 C 0.42277 0.74156 0.32911 0.0
C1161 C 0.4222 0.74623 0.30457 0.0
C1162 C 0.44375 0.74561 0.34297 0.0
C1163 C 0.46471 0.75448 0.33266 0.0
H1164 H 0.40659 0.73606 0.33787 0.0
H1165 H 0.44311 0.74327 0.36203 0.0
S1166 S 0.47357 0.76549 0.26856 0.0
N1167 N 0.44531 0.75704 0.27017 0.0
N1168 N 0.48433 0.76491 0.29605 0.0
C1169 C 0.46473 0.75748 0.3079 0.0
C1170 C 0.44359 0.75328 0.29389 0.0
C1171 C 0.97893 0.36979 0.9358 0.0
C1172 C 0.98462 0.36707 0.96 0.0
C1173 C 0.98482 0.3525 0.91865 0.0
C1174 C 0.9966 0.3315 0.92483 0.0
H1175 H 0.97013 0.38568 0.92994 0.0
H1176 H 0.98006 0.35576 0.90029 0.0
S1177 S 0.01487 0.31537 0.98604 0.0
N1178 N 1.00228 0.34158 0.98954 0.0
N1179 N 0.01338 0.30886 0.95721 0.0
C1180 C 1.00217 0.32835 0.94907 0.0
C1181 C 0.99627 0.34619 0.96663 0.0
C1182 C 0.61984 0.76267 0.32215 0.0
C1183 C 0.63398 0.78361 0.32271 0.0
C1184 C 0.5982 0.76136 0.33463 0.0
C1185 C 0.58983 0.78112 0.34769 0.0
H1186 H 0.6253 0.74738 0.31159 0.0
H1187 H 0.58739 0.7453 0.333 0.0
S1188 S 0.62029 0.83975 0.35546 0.0
N1189 N 0.63817 0.82419 0.33815 0.0
N1190 N 0.5977 0.82179 0.36122 0.0
C1191 C 0.60414 0.80182 0.34895 0.0
C1192 C 0.62616 0.80306 0.33657 0.0
C1193 C 0.05944 0.1647 0.93855 0.0
C1194 C 0.04538 0.16306 0.95902 0.0
C1195 C 0.05598 0.1827 0.92204 0.0
C1196 C 0.03836 0.20011 0.92522 0.0
H1197 H 0.0732 0.15177 0.9351 0.0
H1198 H 0.0674 0.18294 0.90667 0.0
S1199 S 0.99698 0.20417 0.97622 0.0
N1200 N 0.01326 0.18066 0.98175 0.0
N1201 N 1.00669 0.21449 0.95082 0.0
C1202 C 0.02413 0.19872 0.94567 0.0
C1203 C 0.02761 0.18022 0.96247 0.0
C1204 C 0.44019 0.28143 0.22685 0.0
C1205 C 0.42026 0.29644 0.22738 0.0
C1206 C 0.4549 0.27997 0.2068 0.0
C1207 C 0.45005 0.29333 0.1865 0.0
H1208 H 0.44398 0.27012 0.24171 0.0
H1209 H 0.46957 0.26764 0.20685 0.0
S1210 S 0.40232 0.33793 0.18028 0.0
N1211 N 0.3983 0.32698 0.20691 0.0
N1212 N 0.42541 0.32379 0.16914 0.0
C1213 C 0.43086 0.30918 0.18726 0.0
C1214 C 0.41611 0.31085 0.2077 0.0
C1215 C 0.516 0.3735 0.06597 0.0
C1216 C 0.54077 0.37679 0.06388 0.0
C1217 C 0.5065 0.35523 0.07948 0.0
C1218 C 0.52129 0.33931 0.09161 0.0
H1219 H 0.50375 0.38526 0.05715 0.0
H1220 H 0.48724 0.35357 0.08029 0.0
S1221 S 0.58755 0.3401 0.0918 0.0
N1222 N 0.5801 0.36256 0.075 0.0
N1223 N 0.56218 0.3282 0.10065 0.0
C1224 C 0.54617 0.34256 0.09 0.0
C1225 C 0.5559 0.36127 0.0761 0.0
C1226 C 0.62367 0.24878 0.17357 0.0
C1227 C 0.62182 0.24896 0.19852 0.0
C1228 C 0.60425 0.25468 0.15888 0.0
C1229 C 0.58202 0.2609 0.16847 0.0
H1230 H 0.64035 0.24411 0.16526 0.0
H1231 H 0.60674 0.25416 0.1398 0.0
S1232 S 0.56769 0.26368 0.23287 0.0
N1233 N 0.59591 0.25561 0.23225 0.0
N1234 N 0.55943 0.26682 0.20481 0.0
C1235 C 0.57995 0.26126 0.19348 0.0
C1236 C 0.59982 0.2553 0.20844 0.0
C1237 C 0.49493 0.17358 0.09266 0.0
C1238 C 0.48621 0.17074 0.0691 0.0
C1239 C 0.49741 0.19626 0.10361 0.0
C1240 C 0.49069 0.21676 0.09152 0.0
H1241 H 0.49956 0.15813 0.10277 0.0
H1242 H 0.50369 0.19766 0.12192 0.0
S1243 S 0.4677 0.2189 0.0293 0.0
N1244 N 0.47165 0.19037 0.03385 0.0
N1245 N 0.47601 0.23279 0.05436 0.0
C1246 C 0.4825 0.21412 0.06778 0.0
C1247 C 0.48033 0.19117 0.05659 0.0
C1248 C 0.32524 0.42432 0.72395 0.0
C1249 C 0.31829 0.40634 0.73957 0.0
C1250 C 0.33744 0.44502 0.73238 0.0
C1251 C 0.34305 0.44848 0.75674 0.0
H1252 H 0.32059 0.4227 0.7052 0.0
H1253 H 0.34168 0.45874 0.71991 0.0
S1254 S 0.33215 0.40515 0.80429 0.0
N1255 N 0.32045 0.39228 0.78003 0.0
N1256 N 0.34292 0.43098 0.79589 0.0
C1257 C 0.33721 0.43008 0.77227 0.0
C1258 C 0.32495 0.40911 0.7637 0.0
C1259 C 0.3344 0.6189 0.77414 0.0
C1260 C 0.30987 0.62038 0.77927 0.0
C1261 C 0.34582 0.5968 0.77204 0.0
C1262 C 0.33319 0.57542 0.77545 0.0
H1263 H 0.34496 0.63499 0.77232 0.0
H1264 H 0.36486 0.59654 0.76901 0.0
S1265 S 0.26849 0.56942 0.78788 0.0
N1266 N 0.27323 0.59834 0.78658 0.0
N1267 N 0.29454 0.55708 0.78274 0.0
C1268 C 0.3085 0.57666 0.77963 0.0
C1269 C 0.29688 0.59904 0.78151 0.0
C1270 C 0.83893 0.46748 0.48985 0.0
C1271 C 0.86244 0.46701 0.49915 0.0
C1272 C 0.82182 0.45012 0.49578 0.0
C1273 C 0.82783 0.43143 0.51079 0.0
H1274 H 0.8339 0.48104 0.47748 0.0
H1275 H 0.80422 0.45062 0.48757 0.0
S1276 S 0.88649 0.42282 0.54071 0.0
N1277 N 0.89035 0.44689 0.52499 0.0
N1278 N 0.85849 0.41429 0.53586 0.0
C1279 C 0.85099 0.4313 0.52083 0.0
C1280 C 0.86822 0.44908 0.51509 0.0
C1281 C 0.69954 0.9112 0.79263 0.0
C1282 C 0.7225 0.92083 0.78947 0.0
C1283 C 0.67918 0.92528 0.791 0.0
C1284 C 0.68086 0.9497 0.7862 0.0
H1285 H 0.69719 0.89246 0.79599 0.0
H1286 H 0.66197 0.9168 0.79341 0.0
S1287 S 0.73714 0.98384 0.77751 0.0
N1288 N 0.74595 0.95645 0.78211 0.0
N1289 N 0.70771 0.983 0.77886 0.0
C1290 C 0.7038 0.95965 0.78326 0.0
C1291 C 0.7246 0.94523 0.78489 0.0
C1292 C 0.67171 0.59048 0.99533 0.0
C1293 C 0.66893 0.56659 0.98762 0.0
C1294 C 0.69439 0.60149 0.99676 0.0
C1295 C 0.71497 0.58911 0.98999 0.0
H1296 H 0.65618 0.60083 0.99985 0.0
H1297 H 0.69569 0.62008 1.00214 0.0
S1298 S 0.7174 0.52594 0.96969 0.0
N1299 N 0.68878 0.5307 0.97412 0.0
N1300 N 0.73122 0.55131 0.9766 0.0
C1301 C 0.71245 0.56502 0.98299 0.0
C1302 C 0.68949 0.55378 0.98185 0.0
C1303 C 0.2074 0.59746 0.2549 0.0
C1304 C 0.20754 0.61799 0.26976 0.0
C1305 C 0.19155 0.57838 0.2587 0.0
C1306 C 0.17524 0.57903 0.27757 0.0
H1307 H 0.22016 0.5958 0.24067 0.0
H1308 H 0.19258 0.56273 0.24717 0.0
S1309 S 0.16629 0.63005 0.31958 0.0
N1310 N 0.18836 0.63875 0.30257 0.0
N1311 N 0.15887 0.60298 0.30993 0.0
C1312 C 0.17457 0.59989 0.29193 0.0
C1313 C 0.19062 0.61931 0.28799 0.0
C1314 C 0.86067 0.5785 0.04793 0.0
C1315 C 0.87859 0.56878 0.03343 0.0
C1316 C 0.8418 0.5915 0.0381 0.0
C1317 C 0.84021 0.5952 0.01343 0.0
H1318 H 0.86086 0.57543 0.06688 0.0
H1319 H 0.82796 0.59794 0.04976 0.0
S1320 S 0.88463 0.57649 0.96844 0.0
N1321 N 0.89494 0.56601 0.9937 0.0
N1322 N 0.85963 0.59012 0.97519 0.0
C1323 C 0.85869 0.58652 0.999 0.0
C1324 C 0.87781 0.57339 1.00899 0.0
C1325 C 0.15279 0.93707 0.02136 0.0
C1326 C 0.1568 0.95769 0.03567 0.0
C1327 C 0.17128 0.92125 0.01611 0.0
C1328 C 0.19474 0.92516 0.02497 0.0
H1329 H 0.13511 0.93308 0.01412 0.0
H1330 H 0.16699 0.90566 1.00509 0.0
S1331 S 0.2148 0.97648 0.06349 0.0
N1332 N 0.18609 0.98111 0.05876 0.0
N1333 N 0.22087 0.95158 0.04878 0.0
C1334 C 0.1991 0.94589 0.03911 0.0
C1335 C 0.18019 0.96206 0.04444 0.0
loop_
_geom_bond_atom_site_label_1
_geom_bond_atom_site_label_2
_geom_bond_distance
_geom_bond_site_symmetry_2
_ccdc_geom_bond_type
C0 C1 1.264 . S
C0 C5 1.479 . S
C0 C10 1.465 1_655 S
C1 C0 1.264 . S
C1 C3 1.339 . S
C1 H28 0.931 1_645 S
C2 C3 1.395 . S
C2 C4 1.320 . S
C3 C1 1.339 . S
C3 C2 1.395 . S
C3 H29 0.929 1_545 S
C4 C2 1.320 . S
C4 C5 1.405 . S
C4 H30 0.930 . S
C5 C0 1.479 . S
C5 C4 1.405 . S
C5 H31 0.931 . S
U6 O7 2.454 . S
U6 O8 2.458 . S
U6 C9 2.984 . S
U6 C10 2.847 . S
U6 C23 2.882 . S
U6 O24 2.450 . S
U6 O25 2.420 . S
U6 O26 2.455 . S
U6 O27 2.449 1_545 S
O7 U6 2.454 . S
O7 C9 1.353 . S
O8 U6 2.458 . S
O8 C9 1.286 . S
C9 U6 2.984 . S
C9 O7 1.353 . S
C9 O8 1.286 . S
C9 C11 1.363 1_554 S
C10 C0 1.465 1_455 S
C10 U6 2.847 . S
C10 O24 1.250 . S
C10 O25 1.202 . S
C11 C9 1.363 1_556 S
C11 C13 1.408 . S
C11 C16 1.342 . S
C12 C13 1.310 . S
C12 C15 1.461 . S
C12 H32 0.932 1_455 S
C13 C11 1.408 . S
C13 C12 1.310 . S
C13 H33 0.930 1_456 S
C14 C15 1.474 . S
C14 C16 1.285 . S
C14 H34 0.929 . S
C15 C12 1.461 . S
C15 C14 1.474 . S
C16 C11 1.342 . S
C16 C14 1.285 . S
C16 H35 0.930 . S
C17 C20 1.424 . S
C17 C22 1.245 . S
C17 C23 1.428 1_565 S
C18 C21 1.260 . S
C18 C22 1.477 . S
C18 H36 0.932 1_554 S
C19 C20 1.384 . S
C19 C21 1.479 . S
C19 H37 0.929 . S
C20 C17 1.424 . S
C20 C19 1.384 . S
C20 H38 0.928 . S
C21 C18 1.260 . S
C21 C19 1.479 . S
C22 C17 1.245 . S
C22 C18 1.477 . S
C22 H39 0.932 1_564 S
C23 U6 2.882 . S
C23 C17 1.428 1_545 S
C23 O26 1.301 . S
C23 O27 1.282 1_545 S
O24 U6 2.450 . S
O24 C10 1.250 . S
O25 U6 2.420 . S
O25 C10 1.202 . S
O26 U6 2.455 . S
O26 C23 1.301 . S
O27 U6 2.449 1_565 S
O27 C23 1.282 1_565 S
H28 C1 0.931 1_465 S
H29 C3 0.929 1_565 S
H30 C4 0.930 . S
H31 C5 0.931 . S
H32 C12 0.932 1_655 S
H33 C13 0.930 1_654 S
H34 C14 0.929 . S
H35 C16 0.930 . S
H36 C18 0.932 1_556 S
H37 C19 0.929 . S
H38 C20 0.928 . S
H39 C22 0.932 1_546 S
C40 C41 1.264 . S
C40 C45 1.479 . S
C40 C50 1.465 . S
C41 C40 1.264 . S
C41 C43 1.339 . S
C41 H68 0.931 . S
C42 C43 1.395 . S
C42 C44 1.320 . S
C43 C41 1.339 . S
C43 C42 1.395 . S
C43 H69 0.929 . S
C44 C42 1.320 . S
C44 C45 1.405 . S
C44 H70 0.930 . S
C45 C40 1.479 . S
C45 C44 1.405 . S
C45 H71 0.931 . S
U46 O47 2.454 . S
U46 O48 2.458 . S
U46 C49 2.984 . S
U46 C50 2.847 . S
U46 C63 2.882 . S
U46 O64 2.441 . S
U46 O65 2.420 . S
U46 O66 2.455 . S
U46 O67 2.449 . S
O47 U46 2.454 . S
O47 C49 1.353 . S
O48 U46 2.458 . S
O48 C49 1.286 . S
C49 U46 2.984 . S
C49 O47 1.353 . S
C49 O48 1.286 . S
C49 C51 1.363 . S
C50 C40 1.465 . S
C50 U46 2.847 . S
C50 O64 1.249 . S
C50 O65 1.202 . S
C51 C49 1.363 . S
C51 C53 1.408 . S
C51 C56 1.342 . S
C52 C53 1.310 . S
C52 C55 1.461 . S
C52 H72 0.932 . S
C53 C51 1.408 . S
C53 C52 1.310 . S
C53 H73 0.930 . S
C54 C55 1.474 . S
C54 C56 1.285 . S
C54 H74 0.929 . S
C55 C52 1.461 . S
C55 C54 1.474 . S
C56 C51 1.342 . S
C56 C54 1.285 . S
C56 H75 0.930 . S
C57 C60 1.424 . S
C57 C62 1.245 . S
C57 C63 1.428 . S
C58 C61 1.260 . S
C58 C62 1.477 . S
C58 H76 0.932 . S
C59 C60 1.384 . S
C59 C61 1.479 . S
C59 H77 0.929 . S
C60 C57 1.424 . S
C60 C59 1.384 . S
C60 H78 0.928 . S
C61 C58 1.260 . S
C61 C59 1.479 . S
C62 C57 1.245 . S
C62 C58 1.477 . S
C62 H79 0.932 . S
C63 U46 2.882 . S
C63 C57 1.428 . S
C63 O66 1.301 . S
C63 O67 1.282 . S
O64 U46 2.441 . S
O64 C50 1.249 . S
O65 U46 2.420 . S
O65 C50 1.202 . S
O66 U46 2.455 . S
O66 C63 1.301 . S
O67 U46 2.449 . S
O67 C63 1.282 . S
H68 C41 0.931 . S
H69 C43 0.929 . S
H70 C44 0.930 . S
H71 C45 0.931 . S
H72 C52 0.932 . S
H73 C53 0.930 . S
H74 C54 0.929 . S
H75 C56 0.930 . S
H76 C58 0.932 . S
H77 C59 0.929 . S
H78 C60 0.928 . S
H79 C62 0.932 . S
C80 C81 1.264 . S
C80 C85 1.479 1_554 S
C80 C90 1.465 . S
C81 C80 1.264 . S
C81 C83 1.339 1_554 S
C81 H108 0.931 . S
C82 C83 1.395 . S
C82 C84 1.320 . S
C83 C81 1.339 1_556 S
C83 C82 1.395 . S
C83 H109 0.896 1_655 S
C84 C82 1.320 . S
C84 C85 1.405 . S
C84 H110 0.930 . S
C85 C80 1.479 1_556 S
C85 C84 1.405 . S
C85 H111 0.931 . S
U86 O87 2.454 . S
U86 O88 2.458 . S
U86 C89 2.984 . S
U86 C90 2.847 . S
U86 C103 2.882 . S
U86 O104 2.441 . S
U86 O105 2.420 . S
U86 O106 2.455 . S
U86 O107 2.449 . S
O87 U86 2.454 . S
O87 C89 1.353 . S
O88 U86 2.458 . S
O88 C89 1.286 . S
C89 U86 2.984 . S
C89 O87 1.353 . S
C89 O88 1.286 . S
C89 C91 1.363 . S
C90 C80 1.465 . S
C90 U86 2.847 . S
C90 O104 1.249 . S
C90 O105 1.202 . S
C91 C89 1.363 . S
C91 C93 1.408 . S
C91 C96 1.342 . S
C92 C93 1.310 . S
C92 C95 1.461 . S
C92 H112 0.932 . S
C93 C91 1.408 . S
C93 C92 1.310 . S
C93 H113 0.930 . S
C94 C95 1.474 . S
C94 C96 1.285 . S
C94 H114 0.929 . S
C95 C92 1.461 . S
C95 C94 1.474 . S
C96 C91 1.342 . S
C96 C94 1.285 . S
C96 H115 0.930 . S
C97 C100 1.424 . S
C97 C102 1.245 1_455 S
C97 C103 1.428 1_455 S
C98 C101 1.260 . S
C98 C102 1.477 1_455 S
C98 H116 0.932 . S
C99 C100 1.384 . S
C99 C101 1.479 . S
C99 H117 0.929 . S
C100 C97 1.424 . S
C100 C99 1.384 . S
C100 H118 0.928 . S
C101 C98 1.260 . S
C101 C99 1.479 . S
C102 C97 1.245 1_655 S
C102 C98 1.477 1_655 S
C102 H119 0.932 . S
C103 U86 2.882 . S
C103 C97 1.428 1_655 S
C103 O106 1.301 . S
C103 O107 1.282 . S
O104 U86 2.441 . S
O104 C90 1.249 . S
O105 U86 2.420 . S
O105 C90 1.202 . S
O106 U86 2.455 . S
O106 C103 1.301 . S
O107 U86 2.449 . S
O107 C103 1.282 . S
H108 C81 0.931 . S
H109 C83 0.896 1_455 S
H110 C84 0.930 . S
H111 C85 0.931 . S
H112 C92 0.932 . S
H113 C93 0.930 . S
H114 C94 0.929 . S
H115 C96 0.930 . S
H116 C98 0.932 . S
H117 C99 0.929 . S
H118 C100 0.928 . S
H119 C102 0.932 . S
C120 C121 1.264 . S
C120 C125 1.479 . S
C120 C130 1.465 . S
C121 C120 1.264 . S
C121 C123 1.339 . S
C121 H148 0.931 . S
C122 C123 1.395 . S
C122 C124 1.320 . S
C123 C121 1.339 . S
C123 C122 1.395 . S
C123 H149 0.929 . S
C124 C122 1.320 . S
C124 C125 1.405 . S
C124 H150 0.930 . S
C125 C120 1.479 . S
C125 C124 1.405 . S
C125 H151 0.931 . S
U126 O127 2.454 . S
U126 O128 2.458 . S
U126 C129 2.984 . S
U126 C130 2.847 . S
U126 C143 2.882 . S
U126 O144 2.441 . S
U126 O145 2.420 . S
U126 O146 2.455 . S
U126 O147 2.449 . S
O127 U126 2.454 . S
O127 C129 1.353 . S
O128 U126 2.458 . S
O128 C129 1.286 . S
C129 U126 2.984 . S
C129 O127 1.353 . S
C129 O128 1.286 . S
C129 C131 1.363 . S
C130 C120 1.465 . S
C130 U126 2.847 . S
C130 O144 1.249 . S
C130 O145 1.202 . S
C131 C129 1.363 . S
C131 C133 1.408 . S
C131 C136 1.342 . S
C132 C133 1.310 . S
C132 C135 1.461 . S
C132 H152 0.932 . S
C133 C131 1.408 . S
C133 C132 1.310 . S
C133 H153 0.930 . S
C134 C135 1.474 . S
C134 C136 1.285 . S
C134 H154 0.929 . S
C135 C132 1.461 . S
C135 C134 1.474 . S
C136 C131 1.342 . S
C136 C134 1.285 . S
C136 H155 0.930 . S
C137 C140 1.424 . S
C137 C142 1.245 . S
C137 C143 1.428 . S
C138 C141 1.260 . S
C138 C142 1.477 . S
C138 H156 0.932 . S
C139 C140 1.384 . S
C139 C141 1.479 . S
C139 H157 0.929 . S
C140 C137 1.424 . S
C140 C139 1.384 . S
C140 H158 0.928 . S
C141 C138 1.260 . S
C141 C139 1.479 . S
C142 C137 1.245 . S
C142 C138 1.477 . S
C142 H159 0.932 . S
C143 U126 2.882 . S
C143 C137 1.428 . S
C143 O146 1.301 . S
C143 O147 1.282 . S
O144 U126 2.441 . S
O144 C130 1.249 . S
O145 U126 2.420 . S
O145 C130 1.202 . S
O146 U126 2.455 . S
O146 C143 1.301 . S
O147 U126 2.449 . S
O147 C143 1.282 . S
H148 C121 0.931 . S
H149 C123 0.929 . S
H150 C124 0.930 . S
H151 C125 0.931 . S
H152 C132 0.932 . S
H153 C133 0.930 . S
H154 C134 0.929 . S
H155 C136 0.930 . S
H156 C138 0.932 . S
H157 C139 0.929 . S
H158 C140 0.928 . S
H159 C142 0.932 . S
C160 C161 1.264 . S
C160 C165 1.479 1_455 S
C160 C170 1.465 . S
C161 C160 1.264 . S
C161 C163 1.339 1_455 S
C161 H188 0.931 . S
C162 C163 1.395 . S
C162 C164 1.320 . S
C163 C161 1.339 1_655 S
C163 C162 1.395 . S
C163 H189 0.929 . S
C164 C162 1.320 . S
C164 C165 1.405 . S
C164 H190 0.930 . S
C165 C160 1.479 1_655 S
C165 C164 1.405 . S
C165 H191 0.931 . S
U166 O167 2.454 . S
U166 O168 2.458 . S
U166 C169 2.984 . S
U166 C170 2.847 . S
U166 C183 2.882 . S
U166 O184 2.441 . S
U166 O185 2.420 . S
U166 O186 2.455 . S
U166 O187 2.449 . S
O167 U166 2.454 . S
O167 C169 1.353 . S
O168 U166 2.458 . S
O168 C169 1.286 . S
C169 U166 2.984 . S
C169 O167 1.353 . S
C169 O168 1.286 . S
C169 C171 1.363 . S
C170 C160 1.465 . S
C170 U166 2.847 . S
C170 O184 1.249 . S
C170 O185 1.202 . S
C171 C169 1.363 . S
C171 C173 1.408 . S
C171 C176 1.342 . S
C172 C173 1.310 . S
C172 C175 1.461 . S
C172 H192 0.932 . S
C173 C171 1.408 . S
C173 C172 1.310 . S
C173 H193 0.930 . S
C174 C175 1.474 . S
C174 C176 1.285 . S
C174 H194 0.929 . S
C175 C172 1.461 . S
C175 C174 1.474 . S
C176 C171 1.342 . S
C176 C174 1.285 . S
C176 H195 0.930 . S
C177 C180 1.424 . S
C177 C182 1.245 1_545 S
C177 C183 1.428 1_545 S
C178 C181 1.260 . S
C178 C182 1.477 1_545 S
C178 H196 0.932 . S
C179 C180 1.384 . S
C179 C181 1.479 . S
C179 H197 0.929 . S
C180 C177 1.424 . S
C180 C179 1.384 . S
C180 H198 0.928 . S
C181 C178 1.260 . S
C181 C179 1.479 . S
C182 C177 1.245 1_565 S
C182 C178 1.477 1_565 S
C182 H199 0.932 . S
C183 U166 2.882 . S
C183 C177 1.428 1_565 S
C183 O186 1.301 . S
C183 O187 1.282 . S
O184 U166 2.441 . S
O184 C170 1.249 . S
O185 U166 2.420 . S
O185 C170 1.202 . S
O186 U166 2.455 . S
O186 C183 1.301 . S
O187 U166 2.449 . S
O187 C183 1.282 . S
H188 C161 0.931 . S
H189 C163 0.929 . S
H190 C164 0.930 . S
H191 C165 0.931 . S
H192 C172 0.932 . S
H193 C173 0.930 . S
H194 C174 0.929 . S
H195 C176 0.930 . S
H196 C178 0.932 . S
H197 C179 0.929 . S
H198 C180 0.928 . S
H199 C182 0.932 . S
C200 C201 1.264 . S
C200 C205 1.479 . S
C200 C210 1.465 . S
C201 C200 1.264 . S
C201 C203 1.339 . S
C201 H228 0.931 . S
C202 C203 1.395 . S
C202 C204 1.320 . S
C203 C201 1.339 . S
C203 C202 1.395 . S
C203 H229 0.929 . S
C204 C202 1.320 . S
C204 C205 1.405 . S
C204 H230 0.930 . S
C205 C200 1.479 . S
C205 C204 1.405 . S
C205 H231 0.931 . S
U206 O207 2.454 . S
U206 O208 2.458 . S
U206 C209 2.984 . S
U206 C210 2.847 . S
U206 C223 2.882 . S
U206 O224 2.441 . S
U206 O225 2.420 . S
U206 O226 2.455 . S
U206 O227 2.449 . S
O207 U206 2.454 . S
O207 C209 1.353 . S
O208 U206 2.458 . S
O208 C209 1.286 . S
C209 U206 2.984 . S
C209 O207 1.353 . S
C209 O208 1.286 . S
C209 C211 1.363 . S
C210 C200 1.465 . S
C210 U206 2.847 . S
C210 O224 1.249 . S
C210 O225 1.202 . S
C211 C209 1.363 . S
C211 C213 1.408 . S
C211 C216 1.342 . S
C212 C213 1.310 . S
C212 C215 1.461 . S
C212 H232 0.932 . S
C213 C211 1.408 . S
C213 C212 1.310 . S
C213 H233 0.930 . S
C214 C215 1.474 . S
C214 C216 1.285 . S
C214 H234 0.929 . S
C215 C212 1.461 . S
C215 C214 1.474 . S
C216 C211 1.342 . S
C216 C214 1.285 . S
C216 H235 0.930 . S
C217 C220 1.424 . S
C217 C222 1.245 . S
C217 C223 1.428 . S
C218 C221 1.260 . S
C218 C222 1.477 . S
C218 H236 0.932 . S
C219 C220 1.384 . S
C219 C221 1.479 . S
C219 H237 0.929 . S
C220 C217 1.424 . S
C220 C219 1.384 . S
C220 H238 0.928 . S
C221 C218 1.260 . S
C221 C219 1.479 . S
C222 C217 1.245 . S
C222 C218 1.477 . S
C222 H239 0.932 . S
C223 U206 2.882 . S
C223 C217 1.428 . S
C223 O226 1.301 . S
C223 O227 1.282 . S
O224 U206 2.441 . S
O224 C210 1.249 . S
O225 U206 2.420 . S
O225 C210 1.202 . S
O226 U206 2.455 . S
O226 C223 1.301 . S
O227 U206 2.449 . S
O227 C223 1.282 . S
H228 C201 0.931 . S
H229 C203 0.929 . S
H230 C204 0.930 . S
H231 C205 0.931 . S
H232 C212 0.932 . S
H233 C213 0.930 . S
H234 C214 0.929 . S
H235 C216 0.930 . S
H236 C218 0.932 . S
H237 C219 0.929 . S
H238 C220 0.928 . S
H239 C222 0.932 . S
C240 C241 1.264 . S
C240 C245 1.479 . S
C240 C250 1.465 . S
C241 C240 1.264 . S
C241 C243 1.339 . S
C241 H268 0.931 1_655 S
C242 C243 1.395 . S
C242 C244 1.320 . S
C243 C241 1.339 . S
C243 C242 1.395 . S
C243 H269 0.929 1_655 S
C244 C242 1.320 . S
C244 C245 1.405 . S
C244 H270 0.930 . S
C245 C240 1.479 . S
C245 C244 1.405 . S
C245 H271 0.931 . S
U246 O247 2.454 . S
U246 O248 2.458 . S
U246 C249 2.984 . S
U246 C250 2.847 . S
U246 C263 2.882 . S
U246 O264 2.441 . S
U246 O265 2.420 . S
U246 O266 2.455 . S
U246 O267 2.435 1_655 S
O247 U246 2.454 . S
O247 C249 1.353 . S
O248 U246 2.458 . S
O248 C249 1.286 . S
C249 U246 2.984 . S
C249 O247 1.353 . S
C249 O248 1.286 . S
C249 C251 1.363 . S
C250 C240 1.465 . S
C250 U246 2.847 . S
C250 O264 1.249 . S
C250 O265 1.202 . S
C251 C249 1.363 . S
C251 C253 1.408 . S
C251 C256 1.342 . S
C252 C253 1.310 . S
C252 C255 1.461 . S
C252 H272 0.932 . S
C253 C251 1.408 . S
C253 C252 1.310 . S
C253 H273 0.930 . S
C254 C255 1.474 . S
C254 C256 1.285 . S
C254 H274 0.929 . S
C255 C252 1.461 . S
C255 C254 1.474 . S
C256 C251 1.342 . S
C256 C254 1.285 . S
C256 H275 0.930 . S
C257 C260 1.424 . S
C257 C262 1.245 . S
C257 C263 1.428 1_455 S
C258 C261 1.260 . S
C258 C262 1.477 . S
C258 H276 0.932 . S
C259 C260 1.384 . S
C259 C261 1.479 . S
C259 H277 0.929 . S
C260 C257 1.424 . S
C260 C259 1.384 . S
C260 H278 0.928 . S
C261 C258 1.260 . S
C261 C259 1.479 . S
C262 C257 1.245 . S
C262 C258 1.477 . S
C262 H279 0.932 1_455 S
C263 U246 2.882 . S
C263 C257 1.428 1_655 S
C263 O266 1.301 . S
C263 O267 1.279 1_655 S
O264 U246 2.441 . S
O264 C250 1.249 . S
O265 U246 2.420 . S
O265 C250 1.202 . S
O266 U246 2.455 . S
O266 C263 1.301 . S
O267 U246 2.435 1_455 S
O267 C263 1.279 1_455 S
H268 C241 0.931 1_455 S
H269 C243 0.929 1_455 S
H270 C244 0.930 . S
H271 C245 0.931 . S
H272 C252 0.932 . S
H273 C253 0.930 . S
H274 C254 0.929 . S
H275 C256 0.930 . S
H276 C258 0.932 . S
H277 C259 0.929 . S
H278 C260 0.928 . S
H279 C262 0.932 1_655 S
C280 C281 1.264 . S
C280 C285 1.479 . S
C280 C290 1.465 . S
C281 C280 1.264 . S
C281 C283 1.339 . S
C281 H308 0.931 . S
C282 C283 1.395 . S
C282 C284 1.320 . S
C283 C281 1.339 . S
C283 C282 1.395 . S
C283 H309 0.929 . S
C284 C282 1.320 . S
C284 C285 1.405 . S
C284 H310 0.930 . S
C285 C280 1.479 . S
C285 C284 1.405 . S
C285 H311 0.931 . S
U286 O287 2.454 . S
U286 O288 2.458 . S
U286 C289 2.984 . S
U286 C290 2.847 . S
U286 C303 2.882 . S
U286 O304 2.441 . S
U286 O305 2.420 . S
U286 O306 2.455 . S
U286 O307 2.449 . S
O287 U286 2.454 . S
O287 C289 1.353 . S
O288 U286 2.458 . S
O288 C289 1.286 . S
C289 U286 2.984 . S
C289 O287 1.353 . S
C289 O288 1.286 . S
C289 C291 1.363 . S
C290 C280 1.465 . S
C290 U286 2.847 . S
C290 O304 1.249 . S
C290 O305 1.202 . S
C291 C289 1.363 . S
C291 C293 1.408 . S
C291 C296 1.342 . S
C292 C293 1.310 . S
C292 C295 1.461 . S
C292 H312 0.932 . S
C293 C291 1.408 . S
C293 C292 1.310 . S
C293 H313 0.930 . S
C294 C295 1.474 . S
C294 C296 1.285 . S
C294 H314 0.929 . S
C295 C292 1.461 . S
C295 C294 1.474 . S
C296 C291 1.342 . S
C296 C294 1.285 . S
C296 H315 0.930 . S
C297 C300 1.424 . S
C297 C302 1.245 . S
C297 C303 1.428 . S
C298 C301 1.260 . S
C298 C302 1.477 . S
C298 H316 0.932 . S
C299 C300 1.384 . S
C299 C301 1.479 . S
C299 H317 0.929 . S
C300 C297 1.424 . S
C300 C299 1.384 . S
C300 H318 0.928 . S
C301 C298 1.260 . S
C301 C299 1.479 . S
C302 C297 1.245 . S
C302 C298 1.477 . S
C302 H319 0.932 . S
C303 U286 2.882 . S
C303 C297 1.428 . S
C303 O306 1.301 . S
C303 O307 1.282 . S
O304 U286 2.441 . S
O304 C290 1.249 . S
O305 U286 2.420 . S
O305 C290 1.202 . S
O306 U286 2.455 . S
O306 C303 1.301 . S
O307 U286 2.449 . S
O307 C303 1.282 . S
H308 C281 0.931 . S
H309 C283 0.929 . S
H310 C284 0.930 . S
H311 C285 0.931 . S
H312 C292 0.932 . S
H313 C293 0.930 . S
H314 C294 0.929 . S
H315 C296 0.930 . S
H316 C298 0.932 . S
H317 C299 0.929 . S
H318 C300 0.928 . S
H319 C302 0.932 . S
C320 C321 1.264 . S
C320 C325 1.479 . S
C320 C330 1.465 . S
C321 C320 1.264 . S
C321 C323 1.339 . S
C321 H348 0.931 . S
C322 C323 1.395 . S
C322 C324 1.320 . S
C323 C321 1.339 . S
C323 C322 1.395 . S
C323 H349 0.929 . S
C324 C322 1.320 . S
C324 C325 1.405 . S
C324 H350 0.930 . S
C325 C320 1.479 . S
C325 C324 1.405 . S
C325 H351 0.931 . S
U326 O327 2.454 . S
U326 O328 2.458 . S
U326 C329 2.984 . S
U326 C330 2.847 . S
U326 C343 2.882 . S
U326 O344 2.441 . S
U326 O345 2.420 . S
U326 O346 2.455 . S
U326 O347 2.449 . S
O327 U326 2.454 . S
O327 C329 1.353 . S
O328 U326 2.458 . S
O328 C329 1.286 . S
C329 U326 2.984 . S
C329 O327 1.353 . S
C329 O328 1.286 . S
C329 C331 1.363 . S
C330 C320 1.465 . S
C330 U326 2.847 . S
C330 O344 1.249 . S
C330 O345 1.202 . S
C331 C329 1.363 . S
C331 C333 1.408 . S
C331 C336 1.342 . S
C332 C333 1.310 . S
C332 C335 1.461 . S
C332 H352 0.932 . S
C333 C331 1.408 . S
C333 C332 1.310 . S
C333 H353 0.930 . S
C334 C335 1.474 . S
C334 C336 1.285 . S
C334 H354 0.929 . S
C335 C332 1.461 . S
C335 C334 1.474 . S
C336 C331 1.342 . S
C336 C334 1.285 . S
C336 H355 0.930 . S
C337 C340 1.424 . S
C337 C342 1.245 . S
C337 C343 1.428 . S
C338 C341 1.260 . S
C338 C342 1.477 . S
C338 H356 0.932 . S
C339 C340 1.384 . S
C339 C341 1.479 . S
C339 H357 0.929 . S
C340 C337 1.424 . S
C340 C339 1.384 . S
C340 H358 0.928 . S
C341 C338 1.260 . S
C341 C339 1.479 . S
C342 C337 1.245 . S
C342 C338 1.477 . S
C342 H359 0.932 . S
C343 U326 2.882 . S
C343 C337 1.428 . S
C343 O346 1.301 . S
C343 O347 1.282 . S
O344 U326 2.441 . S
O344 C330 1.249 . S
O345 U326 2.420 . S
O345 C330 1.202 . S
O346 U326 2.455 . S
O346 C343 1.301 . S
O347 U326 2.449 . S
O347 C343 1.282 . S
H348 C321 0.931 . S
H349 C323 0.929 . S
H350 C324 0.930 . S
H351 C325 0.931 . S
H352 C332 0.932 . S
H353 C333 0.930 . S
H354 C334 0.929 . S
H355 C336 0.930 . S
H356 C338 0.932 . S
H357 C339 0.929 . S
H358 C340 0.928 . S
H359 C342 0.932 . S
C360 C361 1.264 . S
C360 C365 1.479 . S
C360 C370 1.465 . S
C361 C360 1.264 . S
C361 C363 1.339 . S
C361 H388 0.931 . S
C362 C363 1.395 . S
C362 C364 1.320 . S
C363 C361 1.339 . S
C363 C362 1.395 . S
C363 H389 0.929 . S
C364 C362 1.320 . S
C364 C365 1.405 . S
C364 H390 0.930 . S
C365 C360 1.479 . S
C365 C364 1.405 . S
C365 H391 0.931 . S
U366 O367 2.454 . S
U366 O368 2.458 . S
U366 C369 2.984 . S
U366 C370 2.847 . S
U366 C383 2.882 . S
U366 O384 2.441 . S
U366 O385 2.420 . S
U366 O386 2.455 . S
U366 O387 2.449 . S
O367 U366 2.454 . S
O367 C369 1.353 . S
O368 U366 2.458 . S
O368 C369 1.286 . S
C369 U366 2.984 . S
C369 O367 1.353 . S
C369 O368 1.286 . S
C369 C371 1.363 1_565 S
C370 C360 1.465 . S
C370 U366 2.847 . S
C370 O384 1.249 . S
C370 O385 1.202 . S
C371 C369 1.363 1_545 S
C371 C373 1.408 . S
C371 C376 1.342 . S
C372 C373 1.310 . S
C372 C375 1.461 . S
C372 H392 0.932 . S
C373 C371 1.408 . S
C373 C372 1.310 . S
C373 H393 0.930 1_545 S
C374 C375 1.474 . S
C374 C376 1.285 . S
C374 H394 0.929 . S
C375 C372 1.461 . S
C375 C374 1.474 . S
C376 C371 1.342 . S
C376 C374 1.285 . S
C376 H395 0.930 . S
C377 C380 1.424 . S
C377 C382 1.245 . S
C377 C383 1.428 . S
C378 C381 1.260 . S
C378 C382 1.477 . S
C378 H396 0.932 1_565 S
C379 C380 1.384 . S
C379 C381 1.479 . S
C379 H397 0.929 . S
C380 C377 1.424 . S
C380 C379 1.384 . S
C380 H398 0.928 . S
C381 C378 1.260 . S
C381 C379 1.479 . S
C382 C377 1.245 . S
C382 C378 1.477 . S
C382 H399 0.932 1_565 S
C383 U366 2.882 . S
C383 C377 1.428 . S
C383 O386 1.301 . S
C383 O387 1.282 . S
O384 U366 2.441 . S
O384 C370 1.249 . S
O385 U366 2.420 . S
O385 C370 1.202 . S
O386 U366 2.455 . S
O386 C383 1.301 . S
O387 U366 2.449 . S
O387 C383 1.282 . S
H388 C361 0.931 . S
H389 C363 0.929 . S
H390 C364 0.930 . S
H391 C365 0.931 . S
H392 C372 0.932 . S
H393 C373 0.930 1_565 S
H394 C374 0.929 . S
H395 C376 0.930 . S
H396 C378 0.932 1_545 S
H397 C379 0.929 . S
H398 C380 0.928 . S
H399 C382 0.932 1_545 S
C400 C401 1.264 . S
C400 C405 1.479 . S
C400 C410 1.465 . S
C401 C400 1.264 . S
C401 C403 1.339 . S
C401 H428 0.931 . S
C402 C403 1.395 . S
C402 C404 1.320 . S
C403 C401 1.339 . S
C403 C402 1.395 . S
C403 H429 0.929 . S
C404 C402 1.320 . S
C404 C405 1.405 . S
C404 H430 0.930 . S
C405 C400 1.479 . S
C405 C404 1.405 . S
C405 H431 0.931 . S
U406 O407 2.454 . S
U406 O408 2.458 . S
U406 C409 2.984 . S
U406 C410 2.847 . S
U406 C423 2.882 . S
U406 O424 2.441 . S
U406 O425 2.420 . S
U406 O426 2.455 . S
U406 O427 2.449 . S
O407 U406 2.454 . S
O407 C409 1.353 . S
O408 U406 2.458 . S
O408 C409 1.286 . S
C409 U406 2.984 . S
C409 O407 1.353 . S
C409 O408 1.286 . S
C409 C411 1.363 . S
C410 C400 1.465 . S
C410 U406 2.847 . S
C410 O424 1.249 . S
C410 O425 1.202 . S
C411 C409 1.363 . S
C411 C413 1.408 . S
C411 C416 1.342 . S
C412 C413 1.310 . S
C412 C415 1.461 . S
C412 H432 0.932 . S
C413 C411 1.408 . S
C413 C412 1.310 . S
C413 H433 0.930 . S
C414 C415 1.474 . S
C414 C416 1.285 . S
C414 H434 0.929 . S
C415 C412 1.461 . S
C415 C414 1.474 . S
C416 C411 1.342 . S
C416 C414 1.285 . S
C416 H435 0.930 . S
C417 C420 1.424 . S
C417 C422 1.245 . S
C417 C423 1.428 . S
C418 C421 1.260 . S
C418 C422 1.477 . S
C418 H436 0.932 . S
C419 C420 1.384 . S
C419 C421 1.479 . S
C419 H437 0.929 . S
C420 C417 1.424 . S
C420 C419 1.384 . S
C420 H438 0.928 . S
C421 C418 1.260 . S
C421 C419 1.479 . S
C422 C417 1.245 . S
C422 C418 1.477 . S
C422 H439 0.932 . S
C423 U406 2.882 . S
C423 C417 1.428 . S
C423 O426 1.301 . S
C423 O427 1.282 . S
O424 U406 2.441 . S
O424 C410 1.249 . S
O425 U406 2.420 . S
O425 C410 1.202 . S
O426 U406 2.455 . S
O426 C423 1.301 . S
O427 U406 2.449 . S
O427 C423 1.282 . S
H428 C401 0.931 . S
H429 C403 0.929 . S
H430 C404 0.930 . S
H431 C405 0.931 . S
H432 C412 0.932 . S
H433 C413 0.930 . S
H434 C414 0.929 . S
H435 C416 0.930 . S
H436 C418 0.932 . S
H437 C419 0.929 . S
H438 C420 0.928 . S
H439 C422 0.932 . S
C440 C441 1.264 . S
C440 C445 1.479 . S
C440 C450 1.465 . S
C441 C440 1.264 . S
C441 C443 1.339 . S
C441 H468 0.931 . S
C442 C443 1.395 . S
C442 C444 1.320 . S
C443 C441 1.339 . S
C443 C442 1.395 . S
C443 H469 0.929 . S
C444 C442 1.320 . S
C444 C445 1.405 . S
C444 H470 0.930 . S
C445 C440 1.479 . S
C445 C444 1.405 . S
C445 H471 0.931 . S
U446 O447 2.454 . S
U446 O448 2.458 . S
U446 C449 2.984 . S
U446 C450 2.847 . S
U446 C463 2.882 . S
U446 O464 2.441 . S
U446 O465 2.420 . S
U446 O466 2.455 . S
U446 O467 2.449 . S
O447 U446 2.454 . S
O447 C449 1.353 . S
O448 U446 2.458 . S
O448 C449 1.286 . S
C449 U446 2.984 . S
C449 O447 1.353 . S
C449 O448 1.286 . S
C449 C451 1.363 . S
C450 C440 1.465 . S
C450 U446 2.847 . S
C450 O464 1.249 . S
C450 O465 1.202 . S
C451 C449 1.363 . S
C451 C453 1.408 . S
C451 C456 1.342 . S
C452 C453 1.310 . S
C452 C455 1.461 . S
C452 H472 0.932 . S
C453 C451 1.408 . S
C453 C452 1.310 . S
C453 H473 0.930 . S
C454 C455 1.474 . S
C454 C456 1.285 . S
C454 H474 0.929 . S
C455 C452 1.461 . S
C455 C454 1.474 . S
C456 C451 1.342 . S
C456 C454 1.285 . S
C456 H475 0.930 . S
C457 C460 1.424 . S
C457 C462 1.245 . S
C457 C463 1.428 . S
C458 C461 1.260 . S
C458 C462 1.477 . S
C458 H476 0.932 . S
C459 C460 1.384 . S
C459 C461 1.479 . S
C459 H477 0.929 . S
C460 C457 1.424 . S
C460 C459 1.384 . S
C460 H478 0.928 . S
C461 C458 1.260 . S
C461 C459 1.479 . S
C462 C457 1.245 . S
C462 C458 1.477 . S
C462 H479 0.932 . S
C463 U446 2.882 . S
C463 C457 1.428 . S
C463 O466 1.301 . S
C463 O467 1.282 . S
O464 U446 2.441 . S
O464 C450 1.249 . S
O465 U446 2.420 . S
O465 C450 1.202 . S
O466 U446 2.455 . S
O466 C463 1.301 . S
O467 U446 2.449 . S
O467 C463 1.282 . S
H468 C441 0.931 . S
H469 C443 0.929 . S
H470 C444 0.930 . S
H471 C445 0.931 . S
H472 C452 0.932 . S
H473 C453 0.930 . S
H474 C454 0.929 . S
H475 C456 0.930 . S
H476 C458 0.932 . S
H477 C459 0.929 . S
H478 C460 0.928 . S
H479 C462 0.932 . S
C480 C481 1.264 . S
C480 C485 1.479 . S
C480 C490 1.465 . S
C481 C480 1.264 . S
C481 C483 1.339 . S
C481 H508 0.931 . S
C482 C483 1.395 . S
C482 C484 1.320 . S
C483 C481 1.339 . S
C483 C482 1.395 . S
C483 H509 0.929 . S
C484 C482 1.320 . S
C484 C485 1.405 . S
C484 H510 0.930 . S
C485 C480 1.479 . S
C485 C484 1.405 . S
C485 H511 0.931 . S
U486 O487 2.454 . S
U486 O488 2.458 . S
U486 C489 2.984 . S
U486 C490 2.847 . S
U486 C503 2.882 . S
U486 O504 2.441 . S
U486 O505 2.420 . S
U486 O506 2.455 . S
U486 O507 2.449 . S
O487 U486 2.454 . S
O487 C489 1.353 . S
O488 U486 2.458 . S
O488 C489 1.286 . S
C489 U486 2.984 . S
C489 O487 1.353 . S
C489 O488 1.286 . S
C489 C491 1.363 . S
C490 C480 1.465 . S
C490 U486 2.847 . S
C490 O504 1.249 . S
C490 O505 1.202 . S
C491 C489 1.363 . S
C491 C493 1.408 . S
C491 C496 1.342 . S
C492 C493 1.310 . S
C492 C495 1.461 . S
C492 H512 0.932 . S
C493 C491 1.408 . S
C493 C492 1.310 . S
C493 H513 0.930 . S
C494 C495 1.474 . S
C494 C496 1.285 . S
C494 H514 0.929 . S
C495 C492 1.461 . S
C495 C494 1.474 . S
C496 C491 1.342 . S
C496 C494 1.285 . S
C496 H515 0.930 . S
C497 C500 1.424 . S
C497 C502 1.245 . S
C497 C503 1.428 . S
C498 C501 1.260 . S
C498 C502 1.477 . S
C498 H516 0.932 . S
C499 C500 1.384 . S
C499 C501 1.479 . S
C499 H517 0.929 . S
C500 C497 1.424 . S
C500 C499 1.384 . S
C500 H518 0.928 . S
C501 C498 1.260 . S
C501 C499 1.479 . S
C502 C497 1.245 . S
C502 C498 1.477 . S
C502 H519 0.932 . S
C503 U486 2.882 . S
C503 C497 1.428 . S
C503 O506 1.301 . S
C503 O507 1.282 . S
O504 U486 2.441 . S
O504 C490 1.249 . S
O505 U486 2.420 . S
O505 C490 1.202 . S
O506 U486 2.455 . S
O506 C503 1.301 . S
O507 U486 2.449 . S
O507 C503 1.282 . S
H508 C481 0.931 . S
H509 C483 0.929 . S
H510 C484 0.930 . S
H511 C485 0.931 . S
H512 C492 0.932 . S
H513 C493 0.930 . S
H514 C494 0.929 . S
H515 C496 0.930 . S
H516 C498 0.932 . S
H517 C499 0.929 . S
H518 C500 0.928 . S
H519 C502 0.932 . S
C520 C521 1.264 . S
C520 C525 1.479 . S
C520 C530 1.465 . S
C521 C520 1.264 . S
C521 C523 1.339 . S
C521 H548 0.931 . S
C522 C523 1.395 . S
C522 C524 1.320 . S
C523 C521 1.339 . S
C523 C522 1.395 . S
C523 H549 0.929 . S
C524 C522 1.320 . S
C524 C525 1.405 . S
C524 H550 0.930 . S
C525 C520 1.479 . S
C525 C524 1.405 . S
C525 H551 0.931 . S
U526 O527 2.454 . S
U526 O528 2.458 . S
U526 C529 2.984 . S
U526 C530 2.847 . S
U526 C543 2.882 . S
U526 O544 2.441 . S
U526 O545 2.420 . S
U526 O546 2.455 . S
U526 O547 2.449 . S
O527 U526 2.454 . S
O527 C529 1.353 . S
O528 U526 2.458 . S
O528 C529 1.286 . S
C529 U526 2.984 . S
C529 O527 1.353 . S
C529 O528 1.286 . S
C529 C531 1.363 1_556 S
C530 C520 1.465 . S
C530 U526 2.847 . S
C530 O544 1.249 . S
C530 O545 1.202 . S
C531 C529 1.363 1_554 S
C531 C533 1.408 . S
C531 C536 1.342 . S
C532 C533 1.310 . S
C532 C535 1.461 . S
C532 H552 0.932 . S
C533 C531 1.408 . S
C533 C532 1.310 . S
C533 H553 0.930 1_554 S
C534 C535 1.474 . S
C534 C536 1.285 . S
C534 H554 0.929 . S
C535 C532 1.461 . S
C535 C534 1.474 . S
C536 C531 1.342 . S
C536 C534 1.285 . S
C536 H555 0.930 . S
C537 C540 1.424 . S
C537 C542 1.245 . S
C537 C543 1.428 . S
C538 C541 1.260 . S
C538 C542 1.477 . S
C538 H556 0.932 1_556 S
C539 C540 1.384 . S
C539 C541 1.479 . S
C539 H557 0.929 . S
C540 C537 1.424 . S
C540 C539 1.384 . S
C540 H558 0.928 . S
C541 C538 1.260 . S
C541 C539 1.479 . S
C542 C537 1.245 . S
C542 C538 1.477 . S
C542 H559 0.932 1_556 S
C543 U526 2.882 . S
C543 C537 1.428 . S
C543 O546 1.301 . S
C543 O547 1.282 . S
O544 U526 2.441 . S
O544 C530 1.249 . S
O545 U526 2.420 . S
O545 C530 1.202 . S
O546 U526 2.455 . S
O546 C543 1.301 . S
O547 U526 2.449 . S
O547 C543 1.282 . S
H548 C521 0.931 . S
H549 C523 0.929 . S
H550 C524 0.930 . S
H551 C525 0.931 . S
H552 C532 0.932 . S
H553 C533 0.930 1_556 S
H554 C534 0.929 . S
H555 C536 0.930 . S
H556 C538 0.932 1_554 S
H557 C539 0.929 . S
H558 C540 0.928 . S
H559 C542 0.932 1_554 S
C560 C561 1.264 . S
C560 C565 1.479 . S
C560 C570 1.465 . S
C561 C560 1.264 . S
C561 C563 1.339 . S
C561 H588 0.931 . S
C562 C563 1.395 . S
C562 C564 1.320 . S
C563 C561 1.339 . S
C563 C562 1.395 . S
C563 H589 0.929 . S
C564 C562 1.320 . S
C564 C565 1.405 . S
C564 H590 0.930 . S
C565 C560 1.479 . S
C565 C564 1.405 . S
C565 H591 0.931 . S
U566 O567 2.454 . S
U566 O568 2.458 . S
U566 C569 2.984 . S
U566 C570 2.847 . S
U566 C583 2.882 . S
U566 O584 2.441 . S
U566 O585 2.420 . S
U566 O586 2.455 . S
U566 O587 2.449 . S
O567 U566 2.454 . S
O567 C569 1.353 . S
O568 U566 2.458 . S
O568 C569 1.286 . S
C569 U566 2.984 . S
C569 O567 1.353 . S
C569 O568 1.286 . S
C569 C571 1.363 . S
C570 C560 1.465 . S
C570 U566 2.847 . S
C570 O584 1.249 . S
C570 O585 1.202 . S
C571 C569 1.363 . S
C571 C573 1.408 . S
C571 C576 1.342 . S
C572 C573 1.310 . S
C572 C575 1.461 . S
C572 H592 0.932 . S
C573 C571 1.408 . S
C573 C572 1.310 . S
C573 H593 0.930 . S
C574 C575 1.474 . S
C574 C576 1.285 . S
C574 H594 0.929 . S
C575 C572 1.461 . S
C575 C574 1.474 . S
C576 C571 1.342 . S
C576 C574 1.285 . S
C576 H595 0.930 . S
C577 C580 1.424 . S
C577 C582 1.245 . S
C577 C583 1.428 . S
C578 C581 1.260 . S
C578 C582 1.477 . S
C578 H596 0.932 . S
C579 C580 1.384 . S
C579 C581 1.479 . S
C579 H597 0.929 . S
C580 C577 1.424 . S
C580 C579 1.384 . S
C580 H598 0.928 . S
C581 C578 1.260 . S
C581 C579 1.479 . S
C582 C577 1.245 . S
C582 C578 1.477 . S
C582 H599 0.932 . S
C583 U566 2.882 . S
C583 C577 1.428 . S
C583 O586 1.301 . S
C583 O587 1.282 . S
O584 U566 2.441 . S
O584 C570 1.249 . S
O585 U566 2.420 . S
O585 C570 1.202 . S
O586 U566 2.455 . S
O586 C583 1.301 . S
O587 U566 2.449 . S
O587 C583 1.282 . S
H588 C561 0.931 . S
H589 C563 0.929 . S
H590 C564 0.930 . S
H591 C565 0.931 . S
H592 C572 0.932 . S
H593 C573 0.930 . S
H594 C574 0.929 . S
H595 C576 0.930 . S
H596 C578 0.932 . S
H597 C579 0.929 . S
H598 C580 0.928 . S
H599 C582 0.932 . S
C600 C601 1.263 1_554 S
C600 C605 1.479 . S
C600 C610 1.465 1_554 S
C601 C600 1.263 1_556 S
C601 C603 1.337 1_556 S
C601 H628 0.933 . S
C602 C603 1.395 . S
C602 C604 1.320 . S
C603 C601 1.337 1_554 S
C603 C602 1.395 . S
C603 H629 0.929 . S
C604 C602 1.320 . S
C604 C605 1.405 . S
C604 H630 0.930 . S
C605 C600 1.479 . S
C605 C604 1.405 . S
C605 H631 0.931 . S
U606 O607 2.454 . S
U606 O608 2.458 . S
U606 C609 2.984 . S
U606 C610 2.847 . S
U606 C623 2.882 . S
U606 O624 2.441 . S
U606 O625 2.420 . S
U606 O626 2.455 . S
U606 O627 2.449 . S
O607 U606 2.454 . S
O607 C609 1.353 . S
O608 U606 2.458 . S
O608 C609 1.286 . S
C609 U606 2.984 . S
C609 O607 1.353 . S
C609 O608 1.286 . S
C609 C611 1.363 . S
C610 C600 1.465 1_556 S
C610 U606 2.847 . S
C610 O624 1.249 . S
C610 O625 1.202 . S
C611 C609 1.363 . S
C611 C613 1.408 . S
C611 C616 1.342 1_545 S
C612 C613 1.310 1_565 S
C612 C615 1.461 . S
C612 H632 0.932 . S
C613 C611 1.408 . S
C613 C612 1.310 1_545 S
C613 H633 0.930 . S
C614 C615 1.474 . S
C614 C616 1.285 . S
C614 H634 0.929 . S
C615 C612 1.461 . S
C615 C614 1.474 . S
C616 C611 1.342 1_565 S
C616 C614 1.285 . S
C616 H635 0.930 . S
C617 C620 1.424 . S
C617 C622 1.245 . S
C617 C623 1.428 . S
C618 C621 1.260 . S
C618 C622 1.477 . S
C618 H636 0.932 . S
C619 C620 1.384 . S
C619 C621 1.479 . S
C619 H637 0.929 . S
C620 C617 1.424 . S
C620 C619 1.384 . S
C620 H638 0.928 . S
C621 C618 1.260 . S
C621 C619 1.479 . S
C622 C617 1.245 . S
C622 C618 1.477 . S
C622 H639 0.932 . S
C623 U606 2.882 . S
C623 C617 1.428 . S
C623 O626 1.301 . S
C623 O627 1.282 . S
O624 U606 2.441 . S
O624 C610 1.249 . S
O625 U606 2.420 . S
O625 C610 1.202 . S
O626 U606 2.455 . S
O626 C623 1.301 . S
O627 U606 2.449 . S
O627 C623 1.282 . S
H628 C601 0.933 . S
H629 C603 0.929 . S
H630 C604 0.930 . S
H631 C605 0.931 . S
H632 C612 0.932 . S
H633 C613 0.930 . S
H634 C614 0.929 . S
H635 C616 0.930 . S
H636 C618 0.932 . S
H637 C619 0.929 . S
H638 C620 0.928 . S
H639 C622 0.932 . S
Zn640 O643 2.031 . S
Zn640 O645 2.049 1_554 S
Zn640 O650 2.067 1_554 S
Zn641 O642 1.962 . S
Zn641 O644 1.986 . S
Zn641 O646 1.996 . S
Zn641 O649 1.943 1_554 S
O642 Zn641 1.962 . S
O642 C647 1.254 . S
O643 Zn640 2.031 . S
O643 C647 1.269 . S
O644 Zn641 1.986 . S
O644 C651 1.262 . S
O645 Zn640 2.049 1_556 S
O645 C653 1.260 . S
O646 Zn641 1.996 . S
O646 C653 1.257 1_554 S
C647 O642 1.254 . S
C647 O643 1.269 . S
C648 O649 1.249 . S
C648 O650 1.270 . S
O649 Zn641 1.943 1_556 S
O649 C648 1.249 . S
O650 Zn640 2.067 1_556 S
O650 C648 1.270 . S
C651 O644 1.262 . S
C651 O652 1.232 . S
O652 C651 1.232 . S
C653 O645 1.260 . S
C653 O646 1.257 1_556 S
Zn654 O657 2.031 . S
Zn654 O659 2.049 . S
Zn654 O664 2.067 . S
Zn655 O656 1.962 . S
Zn655 O658 1.986 . S
Zn655 O660 1.996 . S
Zn655 O663 1.943 . S
O656 Zn655 1.962 . S
O656 C661 1.254 . S
O657 Zn654 2.031 . S
O657 C661 1.269 . S
O658 Zn655 1.986 . S
O658 C665 1.262 . S
O659 Zn654 2.049 . S
O659 C667 1.260 . S
O660 Zn655 1.996 . S
O660 C667 1.257 . S
C661 O656 1.254 . S
C661 O657 1.269 . S
C662 O663 1.249 . S
C662 O664 1.270 . S
O663 Zn655 1.943 . S
O663 C662 1.249 . S
O664 Zn654 2.067 . S
O664 C662 1.270 . S
C665 O658 1.262 . S
C665 O666 1.232 . S
O666 C665 1.232 . S
C667 O659 1.260 . S
C667 O660 1.257 . S
Zn668 O671 2.031 . S
Zn668 O673 2.049 . S
Zn668 O678 2.067 . S
Zn669 O670 1.962 . S
Zn669 O672 1.986 . S
Zn669 O674 1.996 1_554 S
Zn669 O677 1.943 . S
O670 Zn669 1.962 . S
O670 C675 1.254 . S
O671 Zn668 2.031 . S
O671 C675 1.269 1_556 S
O672 Zn669 1.986 . S
O672 C679 1.262 . S
O673 Zn668 2.049 . S
O673 C681 1.260 . S
O674 Zn669 1.996 1_556 S
O674 C681 1.257 . S
C675 O670 1.254 . S
C675 O671 1.269 1_554 S
C676 O677 1.249 1_556 S
C676 O678 1.270 . S
O677 Zn669 1.943 . S
O677 C676 1.249 1_554 S
O678 Zn668 2.067 . S
O678 C676 1.270 . S
C679 O672 1.262 . S
C679 O680 1.232 . S
O680 C679 1.232 . S
C681 O673 1.260 . S
C681 O674 1.257 . S
Zn682 O685 2.031 1_565 S
Zn682 O687 2.049 . S
Zn682 O692 2.067 . S
Zn683 O684 1.962 . S
Zn683 O686 1.986 . S
Zn683 O688 1.996 . S
Zn683 O691 1.943 1_545 S
O684 Zn683 1.962 . S
O684 C689 1.254 . S
O685 Zn682 2.031 1_545 S
O685 C689 1.269 . S
O686 Zn683 1.986 . S
O686 C693 1.262 . S
O687 Zn682 2.049 . S
O687 C695 1.260 . S
O688 Zn683 1.996 . S
O688 C695 1.257 1_545 S
C689 O684 1.254 . S
C689 O685 1.269 . S
C690 O691 1.249 . S
C690 O692 1.270 . S
O691 Zn683 1.943 1_565 S
O691 C690 1.249 . S
O692 Zn682 2.067 . S
O692 C690 1.270 . S
C693 O686 1.262 . S
C693 O694 1.232 . S
O694 C693 1.232 . S
C695 O687 1.260 . S
C695 O688 1.257 1_565 S
Zn696 O699 2.031 . S
Zn696 O701 2.049 . S
Zn696 O706 2.067 . S
Zn697 O698 1.962 . S
Zn697 O700 1.986 . S
Zn697 O702 1.996 . S
Zn697 O705 1.943 . S
O698 Zn697 1.962 . S
O698 C703 1.254 . S
O699 Zn696 2.031 . S
O699 C703 1.269 . S
O700 Zn697 1.986 . S
O700 C707 1.262 . S
O701 Zn696 2.049 . S
O701 C709 1.260 . S
O702 Zn697 1.996 . S
O702 C709 1.257 . S
C703 O698 1.254 . S
C703 O699 1.269 . S
C704 O705 1.249 . S
C704 O706 1.270 . S
O705 Zn697 1.943 . S
O705 C704 1.249 . S
O706 Zn696 2.067 . S
O706 C704 1.270 . S
C707 O700 1.262 . S
C707 O708 1.232 . S
O708 C707 1.232 . S
C709 O701 1.260 . S
C709 O702 1.257 . S
Zn710 O713 2.031 . S
Zn710 O715 2.049 . S
Zn710 O720 2.067 . S
Zn711 O712 1.962 . S
Zn711 O714 1.986 . S
Zn711 O716 1.996 . S
Zn711 O719 1.943 . S
O712 Zn711 1.962 . S
O712 C717 1.254 . S
O713 Zn710 2.031 . S
O713 C717 1.269 . S
O714 Zn711 1.986 . S
O714 C721 1.262 . S
O715 Zn710 2.049 . S
O715 C723 1.260 . S
O716 Zn711 1.996 . S
O716 C723 1.257 . S
C717 O712 1.254 . S
C717 O713 1.269 . S
C718 O719 1.249 . S
C718 O720 1.270 . S
O719 Zn711 1.943 . S
O719 C718 1.249 . S
O720 Zn710 2.067 . S
O720 C718 1.270 . S
C721 O714 1.262 . S
C721 O722 1.232 . S
O722 C721 1.232 . S
C723 O715 1.260 . S
C723 O716 1.257 . S
Zn724 O727 2.031 . S
Zn724 O729 2.049 . S
Zn724 O734 2.067 . S
Zn725 O726 1.962 . S
Zn725 O728 1.986 . S
Zn725 O730 1.996 . S
Zn725 O733 1.943 . S
O726 Zn725 1.962 . S
O726 C731 1.254 . S
O727 Zn724 2.031 . S
O727 C731 1.269 . S
O728 Zn725 1.986 . S
O728 C735 1.262 . S
O729 Zn724 2.049 . S
O729 C737 1.260 . S
O730 Zn725 1.996 . S
O730 C737 1.257 . S
C731 O726 1.254 . S
C731 O727 1.269 . S
C732 O733 1.249 . S
C732 O734 1.270 . S
O733 Zn725 1.943 . S
O733 C732 1.249 . S
O734 Zn724 2.067 . S
O734 C732 1.270 . S
C735 O728 1.262 . S
C735 O736 1.232 . S
O736 C735 1.232 . S
C737 O729 1.260 . S
C737 O730 1.257 . S
Zn738 O741 2.031 . S
Zn738 O743 2.049 . S
Zn738 O748 2.067 . S
Zn739 O740 1.962 . S
Zn739 O742 1.986 . S
Zn739 O744 1.996 1_545 S
Zn739 O747 1.943 . S
O740 Zn739 1.962 . S
O740 C745 1.254 . S
O741 Zn738 2.031 . S
O741 C745 1.269 1_565 S
O742 Zn739 1.986 . S
O742 C749 1.262 . S
O743 Zn738 2.049 . S
O743 C751 1.260 . S
O744 Zn739 1.996 1_565 S
O744 C751 1.257 . S
C745 O740 1.254 . S
C745 O741 1.269 1_545 S
C746 O747 1.249 1_565 S
C746 O748 1.270 . S
O747 Zn739 1.943 . S
O747 C746 1.249 1_545 S
O748 Zn738 2.067 . S
O748 C746 1.270 . S
C749 O742 1.262 . S
C749 O750 1.232 . S
O750 C749 1.232 . S
C751 O743 1.260 . S
C751 O744 1.257 . S
Zn752 O755 2.031 . S
Zn752 O757 2.049 1_455 S
Zn752 O762 2.067 1_455 S
Zn753 O754 1.962 . S
Zn753 O756 1.986 . S
Zn753 O758 1.996 . S
Zn753 O761 1.943 1_455 S
O754 Zn753 1.962 . S
O754 C759 1.254 . S
O755 Zn752 2.031 . S
O755 C759 1.269 . S
O756 Zn753 1.986 . S
O756 C763 1.262 . S
O757 Zn752 2.049 1_655 S
O757 C765 1.260 . S
O758 Zn753 1.996 . S
O758 C765 1.257 1_455 S
C759 O754 1.254 . S
C759 O755 1.269 . S
C760 O761 1.249 . S
C760 O762 1.270 . S
O761 Zn753 1.943 1_655 S
O761 C760 1.249 . S
O762 Zn752 2.067 1_655 S
O762 C760 1.270 . S
C763 O756 1.262 . S
C763 O764 1.232 . S
O764 C763 1.232 . S
C765 O757 1.260 . S
C765 O758 1.257 1_655 S
Zn766 O769 2.031 . S
Zn766 O771 2.049 . S
Zn766 O776 2.067 . S
Zn767 O768 1.962 . S
Zn767 O770 1.986 . S
Zn767 O772 1.996 . S
Zn767 O775 1.943 . S
O768 Zn767 1.962 . S
O768 C773 1.254 . S
O769 Zn766 2.031 . S
O769 C773 1.269 . S
O770 Zn767 1.986 . S
O770 C777 1.262 . S
O771 Zn766 2.049 . S
O771 C779 1.260 . S
O772 Zn767 1.996 . S
O772 C779 1.257 . S
C773 O768 1.254 . S
C773 O769 1.269 . S
C774 O775 1.249 . S
C774 O776 1.270 . S
O775 Zn767 1.943 . S
O775 C774 1.249 . S
O776 Zn766 2.067 . S
O776 C774 1.270 . S
C777 O770 1.262 . S
C777 O778 1.232 . S
O778 C777 1.232 . S
C779 O771 1.260 . S
C779 O772 1.257 . S
Zn780 O783 2.031 . S
Zn780 O785 2.049 . S
Zn780 O790 2.067 . S
Zn781 O782 1.962 . S
Zn781 O784 1.986 . S
Zn781 O786 1.996 1_455 S
Zn781 O789 1.943 . S
O782 Zn781 1.962 . S
O782 C787 1.254 . S
O783 Zn780 2.031 . S
O783 C787 1.269 1_655 S
O784 Zn781 1.986 . S
O784 C791 1.262 . S
O785 Zn780 2.049 . S
O785 C793 1.260 . S
O786 Zn781 1.996 1_655 S
O786 C793 1.257 . S
C787 O782 1.254 . S
C787 O783 1.269 1_455 S
C788 O789 1.249 1_655 S
C788 O790 1.270 . S
O789 Zn781 1.943 . S
O789 C788 1.249 1_455 S
O790 Zn780 2.067 . S
O790 C788 1.270 . S
C791 O784 1.262 . S
C791 O792 1.232 . S
O792 C791 1.232 . S
C793 O785 1.260 . S
C793 O786 1.257 . S
Zn794 O797 2.031 . S
Zn794 O799 2.049 . S
Zn794 O804 2.067 . S
Zn795 O796 1.962 . S
Zn795 O798 1.986 . S
Zn795 O800 1.996 . S
Zn795 O803 1.943 . S
O796 Zn795 1.962 . S
O796 C801 1.254 . S
O797 Zn794 2.031 . S
O797 C801 1.269 . S
O798 Zn795 1.986 . S
O798 C805 1.262 . S
O799 Zn794 2.049 . S
O799 C807 1.260 . S
O800 Zn795 1.996 . S
O800 C807 1.257 . S
C801 O796 1.254 . S
C801 O797 1.269 . S
C802 O803 1.249 . S
C802 O804 1.270 . S
O803 Zn795 1.943 . S
O803 C802 1.249 . S
O804 Zn794 2.067 . S
O804 C802 1.270 . S
C805 O798 1.262 . S
C805 O806 1.232 . S
O806 C805 1.232 . S
C807 O799 1.260 . S
C807 O800 1.257 . S
C808 C809 1.369 . S
C808 C810 1.419 . S
C808 H812 0.930 . S
C809 C808 1.369 . S
C809 C818 1.429 . S
C810 C808 1.419 . S
C810 C811 1.363 . S
C810 H813 0.929 . S
C811 C810 1.363 . S
C811 C817 1.428 . S
H812 C808 0.930 . S
H813 C810 0.929 . S
S814 N815 1.613 . S
S814 N816 1.610 . S
N815 S814 1.613 . S
N815 C818 1.350 . S
N816 S814 1.610 . S
N816 C817 1.351 . S
C817 C811 1.428 . S
C817 N816 1.351 . S
C817 C818 1.434 . S
C818 C809 1.429 . S
C818 N815 1.350 . S
C818 C817 1.434 . S
C819 C820 1.369 . S
C819 C821 1.419 . S
C819 H823 0.930 . S
C820 C819 1.369 . S
C820 C829 1.429 . S
C821 C819 1.419 . S
C821 C822 1.363 . S
C821 H824 0.929 . S
C822 C821 1.363 . S
C822 C828 1.428 . S
H823 C819 0.930 . S
H824 C821 0.929 . S
S825 N826 1.613 . S
S825 N827 1.610 . S
N826 S825 1.613 . S
N826 C829 1.350 . S
N827 S825 1.610 . S
N827 C828 1.351 . S
C828 C822 1.428 . S
C828 N827 1.351 . S
C828 C829 1.434 . S
C829 C820 1.429 . S
C829 N826 1.350 . S
C829 C828 1.434 . S
C830 C831 1.369 . S
C830 C832 1.419 . S
C830 H834 0.930 . S
C831 C830 1.369 . S
C831 C840 1.429 . S
C832 C830 1.419 . S
C832 C833 1.363 . S
C832 H835 0.929 . S
C833 C832 1.363 . S
C833 C839 1.428 . S
H834 C830 0.930 . S
H835 C832 0.929 . S
S836 N837 1.613 . S
S836 N838 1.610 . S
N837 S836 1.613 . S
N837 C840 1.350 . S
N838 S836 1.610 . S
N838 C839 1.351 . S
C839 C833 1.428 . S
C839 N838 1.351 . S
C839 C840 1.434 . S
C840 C831 1.429 . S
C840 N837 1.350 . S
C840 C839 1.434 . S
C841 C842 1.369 . S
C841 C843 1.419 . S
C841 H845 0.930 . S
C842 C841 1.369 . S
C842 C851 1.429 . S
C843 C841 1.419 . S
C843 C844 1.363 . S
C843 H846 0.929 . S
C844 C843 1.363 . S
C844 C850 1.428 . S
H845 C841 0.930 . S
H846 C843 0.929 . S
S847 N848 1.613 1_545 S
S847 N849 1.611 . S
N848 S847 1.613 1_565 S
N848 C851 1.350 . S
N849 S847 1.611 . S
N849 C850 1.345 1_545 S
C850 C844 1.428 . S
C850 N849 1.345 1_565 S
C850 C851 1.434 . S
C851 C842 1.429 . S
C851 N848 1.350 . S
C851 C850 1.434 . S
C852 C853 1.369 . S
C852 C854 1.419 . S
C852 H856 0.930 . S
C853 C852 1.369 . S
C853 C862 1.429 . S
C854 C852 1.419 . S
C854 C855 1.363 . S
C854 H857 0.929 . S
C855 C854 1.363 . S
C855 C861 1.428 . S
H856 C852 0.930 . S
H857 C854 0.929 . S
S858 N859 1.613 . S
S858 N860 1.610 . S
N859 S858 1.613 . S
N859 C862 1.350 . S
N860 S858 1.610 . S
N860 C861 1.351 . S
C861 C855 1.428 . S
C861 N860 1.351 . S
C861 C862 1.434 . S
C862 C853 1.429 . S
C862 N859 1.350 . S
C862 C861 1.434 . S
C863 C864 1.369 . S
C863 C865 1.419 . S
C863 H867 0.930 . S
C864 C863 1.369 . S
C864 C873 1.429 . S
C865 C863 1.419 . S
C865 C866 1.363 . S
C865 H868 0.929 . S
C866 C865 1.363 . S
C866 C872 1.428 . S
H867 C863 0.930 . S
H868 C865 0.929 . S
S869 N870 1.613 . S
S869 N871 1.610 . S
N870 S869 1.613 . S
N870 C873 1.350 . S
N871 S869 1.610 . S
N871 C872 1.351 . S
C872 C866 1.428 . S
C872 N871 1.351 . S
C872 C873 1.434 . S
C873 C864 1.429 . S
C873 N870 1.350 . S
C873 C872 1.434 . S
C874 C875 1.369 . S
C874 C876 1.419 . S
C874 H878 0.930 . S
C875 C874 1.369 . S
C875 C884 1.429 . S
C876 C874 1.419 . S
C876 C877 1.363 . S
C876 H879 0.929 . S
C877 C876 1.363 . S
C877 C883 1.428 . S
H878 C874 0.930 . S
H879 C876 0.929 . S
S880 N881 1.613 . S
S880 N882 1.610 . S
N881 S880 1.613 . S
N881 C884 1.350 . S
N882 S880 1.610 . S
N882 C883 1.351 . S
C883 C877 1.428 . S
C883 N882 1.351 . S
C883 C884 1.434 . S
C884 C875 1.429 . S
C884 N881 1.350 . S
C884 C883 1.434 . S
C885 C886 1.369 . S
C885 C887 1.419 . S
C885 H889 0.930 . S
C886 C885 1.369 . S
C886 C895 1.428 . S
C887 C885 1.419 . S
C887 C888 1.363 . S
C887 H890 0.929 . S
C888 C887 1.363 . S
C888 C894 1.428 1_565 S
H889 C885 0.930 . S
H890 C887 0.929 . S
S891 N892 1.613 . S
S891 N893 1.610 . S
N892 S891 1.613 . S
N892 C895 1.350 1_545 S
N893 S891 1.610 . S
N893 C894 1.351 . S
C894 C888 1.428 1_545 S
C894 N893 1.351 . S
C894 C895 1.434 1_545 S
C895 C886 1.428 . S
C895 N892 1.350 1_565 S
C895 C894 1.434 1_565 S
C896 C897 1.369 . S
C896 C898 1.419 . S
C896 H900 0.930 . S
C897 C896 1.369 . S
C897 C906 1.429 . S
C898 C896 1.419 . S
C898 C899 1.363 . S
C898 H901 0.929 . S
C899 C898 1.363 . S
C899 C905 1.428 . S
H900 C896 0.930 . S
H901 C898 0.929 . S
S902 N903 1.613 . S
S902 N904 1.610 . S
N903 S902 1.613 . S
N903 C906 1.350 . S
N904 S902 1.610 . S
N904 C905 1.351 . S
C905 C899 1.428 . S
C905 N904 1.351 . S
C905 C906 1.434 . S
C906 C897 1.429 . S
C906 N903 1.350 . S
C906 C905 1.434 . S
C907 C908 1.369 . S
C907 C909 1.419 . S
C907 H911 0.930 . S
C908 C907 1.369 . S
C908 C917 1.429 . S
C909 C907 1.419 . S
C909 C910 1.363 . S
C909 H912 0.929 . S
C910 C909 1.363 . S
C910 C916 1.428 . S
H911 C907 0.930 . S
H912 C909 0.929 . S
S913 N914 1.613 . S
S913 N915 1.610 . S
N914 S913 1.613 . S
N914 C917 1.350 . S
N915 S913 1.610 . S
N915 C916 1.351 . S
C916 C910 1.428 . S
C916 N915 1.351 . S
C916 C917 1.434 . S
C917 C908 1.429 . S
C917 N914 1.350 . S
C917 C916 1.434 . S
C918 C919 1.369 . S
C918 C920 1.419 . S
C918 H922 0.930 . S
C919 C918 1.369 . S
C919 C928 1.429 . S
C920 C918 1.419 . S
C920 C921 1.363 . S
C920 H923 0.929 . S
C921 C920 1.363 . S
C921 C927 1.428 . S
H922 C918 0.930 . S
H923 C920 0.929 . S
S924 N925 1.613 . S
S924 N926 1.610 . S
N925 S924 1.613 . S
N925 C928 1.350 . S
N926 S924 1.610 . S
N926 C927 1.351 . S
C927 C921 1.428 . S
C927 N926 1.351 . S
C927 C928 1.434 . S
C928 C919 1.429 . S
C928 N925 1.350 . S
C928 C927 1.434 . S
C929 C930 1.369 . S
C929 C931 1.419 . S
C929 H933 0.930 . S
C930 C929 1.369 . S
C930 C939 1.429 . S
C931 C929 1.419 . S
C931 C932 1.363 . S
C931 H934 0.929 . S
C932 C931 1.363 . S
C932 C938 1.428 . S
H933 C929 0.930 . S
H934 C931 0.929 . S
S935 N936 1.613 . S
S935 N937 1.610 . S
N936 S935 1.613 . S
N936 C939 1.350 . S
N937 S935 1.610 . S
N937 C938 1.351 . S
C938 C932 1.428 . S
C938 N937 1.351 . S
C938 C939 1.434 . S
C939 C930 1.429 . S
C939 N936 1.350 . S
C939 C938 1.434 . S
C940 C941 1.369 . S
C940 C942 1.419 . S
C940 H944 0.930 . S
C941 C940 1.369 . S
C941 C950 1.429 . S
C942 C940 1.419 . S
C942 C943 1.363 . S
C942 H945 0.929 . S
C943 C942 1.363 . S
C943 C949 1.428 . S
H944 C940 0.930 . S
H945 C942 0.929 . S
S946 N947 1.613 . S
S946 N948 1.610 . S
N947 S946 1.613 . S
N947 C950 1.350 . S
N948 S946 1.610 . S
N948 C949 1.351 . S
C949 C943 1.428 . S
C949 N948 1.351 . S
C949 C950 1.434 . S
C950 C941 1.429 . S
C950 N947 1.350 . S
C950 C949 1.434 . S
C951 C952 1.369 . S
C951 C953 1.419 . S
C951 H955 0.930 . S
C952 C951 1.369 . S
C952 C961 1.429 . S
C953 C951 1.419 . S
C953 C954 1.363 . S
C953 H956 0.929 . S
C954 C953 1.363 . S
C954 C960 1.428 . S
H955 C951 0.930 . S
H956 C953 0.929 . S
S957 N958 1.613 . S
S957 N959 1.610 . S
N958 S957 1.613 . S
N958 C961 1.350 . S
N959 S957 1.610 . S
N959 C960 1.351 . S
C960 C954 1.428 . S
C960 N959 1.351 . S
C960 C961 1.434 . S
C961 C952 1.429 . S
C961 N958 1.350 . S
C961 C960 1.434 . S
C962 C963 1.369 . S
C962 C964 1.419 . S
C962 H966 0.930 . S
C963 C962 1.369 . S
C963 C972 1.429 . S
C964 C962 1.419 . S
C964 C965 1.363 . S
C964 H967 0.929 . S
C965 C964 1.363 . S
C965 C971 1.428 . S
H966 C962 0.930 . S
H967 C964 0.929 . S
S968 N969 1.613 . S
S968 N970 1.610 . S
N969 S968 1.613 . S
N969 C972 1.350 . S
N970 S968 1.610 . S
N970 C971 1.351 . S
C971 C965 1.428 . S
C971 N970 1.351 . S
C971 C972 1.434 . S
C972 C963 1.429 . S
C972 N969 1.350 . S
C972 C971 1.434 . S
C973 C974 1.369 . S
C973 C975 1.419 . S
C973 H977 0.930 . S
C974 C973 1.369 . S
C974 C983 1.429 . S
C975 C973 1.419 . S
C975 C976 1.363 . S
C975 H978 0.929 . S
C976 C975 1.363 . S
C976 C982 1.428 . S
H977 C973 0.930 . S
H978 C975 0.929 . S
S979 N980 1.613 . S
S979 N981 1.610 . S
N980 S979 1.613 . S
N980 C983 1.350 . S
N981 S979 1.610 . S
N981 C982 1.351 . S
C982 C976 1.428 . S
C982 N981 1.351 . S
C982 C983 1.434 . S
C983 C974 1.429 . S
C983 N980 1.350 . S
C983 C982 1.434 . S
C984 C985 1.369 . S
C984 C986 1.419 . S
C984 H988 0.930 . S
C985 C984 1.369 . S
C985 C994 1.429 . S
C986 C984 1.419 . S
C986 C987 1.363 . S
C986 H989 0.929 . S
C987 C986 1.363 . S
C987 C993 1.428 . S
H988 C984 0.930 . S
H989 C986 0.929 . S
S990 N991 1.613 . S
S990 N992 1.610 . S
N991 S990 1.613 . S
N991 C994 1.350 . S
N992 S990 1.610 . S
N992 C993 1.351 . S
C993 C987 1.428 . S
C993 N992 1.351 . S
C993 C994 1.434 . S
C994 C985 1.429 . S
C994 N991 1.350 . S
C994 C993 1.434 . S
C995 C996 1.369 . S
C995 C997 1.419 . S
C995 H999 0.930 . S
C996 C995 1.369 . S
C996 C1005 1.429 . S
C997 C995 1.419 . S
C997 C998 1.363 . S
C997 H1000 0.929 . S
C998 C997 1.363 . S
C998 C1004 1.428 . S
H999 C995 0.930 . S
H1000 C997 0.929 . S
S1001 N1002 1.613 . S
S1001 N1003 1.610 . S
N1002 S1001 1.613 . S
N1002 C1005 1.350 . S
N1003 S1001 1.610 . S
N1003 C1004 1.351 . S
C1004 C998 1.428 . S
C1004 N1003 1.351 . S
C1004 C1005 1.434 . S
C1005 C996 1.429 . S
C1005 N1002 1.350 . S
C1005 C1004 1.434 . S
C1006 C1007 1.369 . S
C1006 C1008 1.419 . S
C1006 H1010 0.930 . S
C1007 C1006 1.369 . S
C1007 C1016 1.429 . S
C1008 C1006 1.419 . S
C1008 C1009 1.363 . S
C1008 H1011 0.929 . S
C1009 C1008 1.363 . S
C1009 C1015 1.417 1_556 S
H1010 C1006 0.930 . S
H1011 C1008 0.929 . S
S1012 N1013 1.613 . S
S1012 N1014 1.610 . S
N1013 S1012 1.613 . S
N1013 C1016 1.350 1_554 S
N1014 S1012 1.610 . S
N1014 C1015 1.372 . S
C1015 C1009 1.417 1_554 S
C1015 N1014 1.372 . S
C1015 C1016 1.425 1_554 S
C1016 C1007 1.429 . S
C1016 N1013 1.350 1_556 S
C1016 C1015 1.425 1_556 S
C1017 C1018 1.369 . S
C1017 C1019 1.419 . S
C1017 H1021 0.930 . S
C1018 C1017 1.369 . S
C1018 C1027 1.429 . S
C1019 C1017 1.419 . S
C1019 C1020 1.363 . S
C1019 H1022 0.929 . S
C1020 C1019 1.363 . S
C1020 C1026 1.428 . S
H1021 C1017 0.930 . S
H1022 C1019 0.929 . S
S1023 N1024 1.613 . S
S1023 N1025 1.610 . S
N1024 S1023 1.613 . S
N1024 C1027 1.350 . S
N1025 S1023 1.610 . S
N1025 C1026 1.351 . S
C1026 C1020 1.428 . S
C1026 N1025 1.351 . S
C1026 C1027 1.434 . S
C1027 C1018 1.429 . S
C1027 N1024 1.350 . S
C1027 C1026 1.434 . S
C1028 C1029 1.369 . S
C1028 C1030 1.419 . S
C1028 H1032 0.930 . S
C1029 C1028 1.369 . S
C1029 C1038 1.429 . S
C1030 C1028 1.419 . S
C1030 C1031 1.363 . S
C1030 H1033 0.929 . S
C1031 C1030 1.363 . S
C1031 C1037 1.428 . S
H1032 C1028 0.930 . S
H1033 C1030 0.929 . S
S1034 N1035 1.613 . S
S1034 N1036 1.610 . S
N1035 S1034 1.613 . S
N1035 C1038 1.350 . S
N1036 S1034 1.610 . S
N1036 C1037 1.351 . S
C1037 C1031 1.428 . S
C1037 N1036 1.351 . S
C1037 C1038 1.434 . S
C1038 C1029 1.429 . S
C1038 N1035 1.350 . S
C1038 C1037 1.434 . S
C1039 C1040 1.369 . S
C1039 C1041 1.419 . S
C1039 H1043 0.930 . S
C1040 C1039 1.369 . S
C1040 C1049 1.429 . S
C1041 C1039 1.419 . S
C1041 C1042 1.363 . S
C1041 H1044 0.929 . S
C1042 C1041 1.363 . S
C1042 C1048 1.428 . S
H1043 C1039 0.930 . S
H1044 C1041 0.929 . S
S1045 N1046 1.613 . S
S1045 N1047 1.610 . S
N1046 S1045 1.613 . S
N1046 C1049 1.350 . S
N1047 S1045 1.610 . S
N1047 C1048 1.351 . S
C1048 C1042 1.428 . S
C1048 N1047 1.351 . S
C1048 C1049 1.434 . S
C1049 C1040 1.429 . S
C1049 N1046 1.350 . S
C1049 C1048 1.434 . S
C1050 C1051 1.369 . S
C1050 C1052 1.419 . S
C1050 H1054 0.930 . S
C1051 C1050 1.369 . S
C1051 C1060 1.429 . S
C1052 C1050 1.419 . S
C1052 C1053 1.363 . S
C1052 H1055 0.929 . S
C1053 C1052 1.363 . S
C1053 C1059 1.428 . S
H1054 C1050 0.930 . S
H1055 C1052 0.929 . S
S1056 N1057 1.613 . S
S1056 N1058 1.610 . S
N1057 S1056 1.613 . S
N1057 C1060 1.350 . S
N1058 S1056 1.610 . S
N1058 C1059 1.351 . S
C1059 C1053 1.428 . S
C1059 N1058 1.351 . S
C1059 C1060 1.434 . S
C1060 C1051 1.429 . S
C1060 N1057 1.350 . S
C1060 C1059 1.434 . S
C1061 C1062 1.369 . S
C1061 C1063 1.419 . S
C1061 H1065 0.930 . S
C1062 C1061 1.369 . S
C1062 C1071 1.429 . S
C1063 C1061 1.419 . S
C1063 C1064 1.363 . S
C1063 H1066 0.929 . S
C1064 C1063 1.363 . S
C1064 C1070 1.428 . S
H1065 C1061 0.930 . S
H1066 C1063 0.929 . S
S1067 N1068 1.613 . S
S1067 N1069 1.610 . S
N1068 S1067 1.613 . S
N1068 C1071 1.350 . S
N1069 S1067 1.610 . S
N1069 C1070 1.351 . S
C1070 C1064 1.428 . S
C1070 N1069 1.351 . S
C1070 C1071 1.434 . S
C1071 C1062 1.429 . S
C1071 N1068 1.350 . S
C1071 C1070 1.434 . S
C1072 C1073 1.369 . S
C1072 C1074 1.419 . S
C1072 H1076 0.930 . S
C1073 C1072 1.369 . S
C1073 C1082 1.429 . S
C1074 C1072 1.419 . S
C1074 C1075 1.363 . S
C1074 H1077 0.929 . S
C1075 C1074 1.363 . S
C1075 C1081 1.428 . S
H1076 C1072 0.930 . S
H1077 C1074 0.929 . S
S1078 N1079 1.613 . S
S1078 N1080 1.610 . S
N1079 S1078 1.613 . S
N1079 C1082 1.350 . S
N1080 S1078 1.610 . S
N1080 C1081 1.351 . S
C1081 C1075 1.428 . S
C1081 N1080 1.351 . S
C1081 C1082 1.434 . S
C1082 C1073 1.429 . S
C1082 N1079 1.350 . S
C1082 C1081 1.434 . S
C1083 C1084 1.369 . S
C1083 C1085 1.419 . S
C1083 H1087 0.930 1_545 S
C1084 C1083 1.369 . S
C1084 C1093 1.429 . S
C1085 C1083 1.419 . S
C1085 C1086 1.363 . S
C1085 H1088 0.929 1_545 S
C1086 C1085 1.363 . S
C1086 C1092 1.428 . S
H1087 C1083 0.930 1_565 S
H1088 C1085 0.929 1_565 S
S1089 N1090 1.613 . S
S1089 N1091 1.610 . S
N1090 S1089 1.613 . S
N1090 C1093 1.350 . S
N1091 S1089 1.610 . S
N1091 C1092 1.351 . S
C1092 C1086 1.428 . S
C1092 N1091 1.351 . S
C1092 C1093 1.434 . S
C1093 C1084 1.429 . S
C1093 N1090 1.350 . S
C1093 C1092 1.434 . S
C1094 C1095 1.369 . S
C1094 C1096 1.419 . S
C1094 H1098 0.930 . S
C1095 C1094 1.369 . S
C1095 C1104 1.429 . S
C1096 C1094 1.419 . S
C1096 C1097 1.363 . S
C1096 H1099 0.929 . S
C1097 C1096 1.363 . S
C1097 C1103 1.428 . S
H1098 C1094 0.930 . S
H1099 C1096 0.929 . S
S1100 N1101 1.613 . S
S1100 N1102 1.610 . S
N1101 S1100 1.613 . S
N1101 C1104 1.350 . S
N1102 S1100 1.610 . S
N1102 C1103 1.351 . S
C1103 C1097 1.428 . S
C1103 N1102 1.351 . S
C1103 C1104 1.434 . S
C1104 C1095 1.429 . S
C1104 N1101 1.350 . S
C1104 C1103 1.434 . S
C1105 C1106 1.369 . S
C1105 C1107 1.419 . S
C1105 H1109 0.930 . S
C1106 C1105 1.369 . S
C1106 C1115 1.429 . S
C1107 C1105 1.419 . S
C1107 C1108 1.363 . S
C1107 H1110 0.929 . S
C1108 C1107 1.363 . S
C1108 C1114 1.428 . S
H1109 C1105 0.930 . S
H1110 C1107 0.929 . S
S1111 N1112 1.613 . S
S1111 N1113 1.610 . S
N1112 S1111 1.613 . S
N1112 C1115 1.350 . S
N1113 S1111 1.610 . S
N1113 C1114 1.351 . S
C1114 C1108 1.428 . S
C1114 N1113 1.351 . S
C1114 C1115 1.434 . S
C1115 C1106 1.429 . S
C1115 N1112 1.350 . S
C1115 C1114 1.434 . S
C1116 C1117 1.369 . S
C1116 C1118 1.419 . S
C1116 H1120 0.930 . S
C1117 C1116 1.369 . S
C1117 C1126 1.429 . S
C1118 C1116 1.419 . S
C1118 C1119 1.363 . S
C1118 H1121 0.929 . S
C1119 C1118 1.363 . S
C1119 C1125 1.428 . S
H1120 C1116 0.930 . S
H1121 C1118 0.929 . S
S1122 N1123 1.613 . S
S1122 N1124 1.610 . S
N1123 S1122 1.613 . S
N1123 C1126 1.350 . S
N1124 S1122 1.610 . S
N1124 C1125 1.351 . S
C1125 C1119 1.428 . S
C1125 N1124 1.351 . S
C1125 C1126 1.434 . S
C1126 C1117 1.429 . S
C1126 N1123 1.350 . S
C1126 C1125 1.434 . S
C1127 C1128 1.369 . S
C1127 C1129 1.419 . S
C1127 H1131 0.930 . S
C1128 C1127 1.369 . S
C1128 C1137 1.429 . S
C1129 C1127 1.419 . S
C1129 C1130 1.363 . S
C1129 H1132 0.929 . S
C1130 C1129 1.363 . S
C1130 C1136 1.428 . S
H1131 C1127 0.930 . S
H1132 C1129 0.929 . S
S1133 N1134 1.613 . S
S1133 N1135 1.610 . S
N1134 S1133 1.613 . S
N1134 C1137 1.350 . S
N1135 S1133 1.610 . S
N1135 C1136 1.351 . S
C1136 C1130 1.428 . S
C1136 N1135 1.351 . S
C1136 C1137 1.434 . S
C1137 C1128 1.429 . S
C1137 N1134 1.350 . S
C1137 C1136 1.434 . S
C1138 C1139 1.369 . S
C1138 C1140 1.419 . S
C1138 H1142 0.930 . S
C1139 C1138 1.369 . S
C1139 C1148 1.429 . S
C1140 C1138 1.419 . S
C1140 C1141 1.363 . S
C1140 H1143 0.929 . S
C1141 C1140 1.363 . S
C1141 C1147 1.428 . S
H1142 C1138 0.930 . S
H1143 C1140 0.929 . S
S1144 N1145 1.613 . S
S1144 N1146 1.610 . S
N1145 S1144 1.613 . S
N1145 C1148 1.350 . S
N1146 S1144 1.610 . S
N1146 C1147 1.351 . S
C1147 C1141 1.428 . S
C1147 N1146 1.351 . S
C1147 C1148 1.434 . S
C1148 C1139 1.429 . S
C1148 N1145 1.350 . S
C1148 C1147 1.434 . S
C1149 C1150 1.369 . S
C1149 C1151 1.419 . S
C1149 H1153 0.930 . S
C1150 C1149 1.369 . S
C1150 C1159 1.429 . S
C1151 C1149 1.419 . S
C1151 C1152 1.363 . S
C1151 H1154 0.929 . S
C1152 C1151 1.363 . S
C1152 C1158 1.428 . S
H1153 C1149 0.930 . S
H1154 C1151 0.929 . S
S1155 N1156 1.613 . S
S1155 N1157 1.610 . S
N1156 S1155 1.613 . S
N1156 C1159 1.350 . S
N1157 S1155 1.610 . S
N1157 C1158 1.351 . S
C1158 C1152 1.428 . S
C1158 N1157 1.351 . S
C1158 C1159 1.434 . S
C1159 C1150 1.429 . S
C1159 N1156 1.350 . S
C1159 C1158 1.434 . S
C1160 C1161 1.369 . S
C1160 C1162 1.419 . S
C1160 H1164 0.930 . S
C1161 C1160 1.369 . S
C1161 C1170 1.429 . S
C1162 C1160 1.419 . S
C1162 C1163 1.363 . S
C1162 H1165 0.929 . S
C1163 C1162 1.363 . S
C1163 C1169 1.428 . S
H1164 C1160 0.930 . S
H1165 C1162 0.929 . S
S1166 N1167 1.613 . S
S1166 N1168 1.610 . S
N1167 S1166 1.613 . S
N1167 C1170 1.350 . S
N1168 S1166 1.610 . S
N1168 C1169 1.351 . S
C1169 C1163 1.428 . S
C1169 N1168 1.351 . S
C1169 C1170 1.434 . S
C1170 C1161 1.429 . S
C1170 N1167 1.350 . S
C1170 C1169 1.434 . S
C1171 C1172 1.369 . S
C1171 C1173 1.419 . S
C1171 H1175 0.930 . S
C1172 C1171 1.369 . S
C1172 C1181 1.429 . S
C1173 C1171 1.419 . S
C1173 C1174 1.363 . S
C1173 H1176 0.929 . S
C1174 C1173 1.363 . S
C1174 C1180 1.428 . S
H1175 C1171 0.930 . S
H1176 C1173 0.929 . S
S1177 N1178 1.613 1_455 S
S1177 N1179 1.610 . S
N1178 S1177 1.613 1_655 S
N1178 C1181 1.350 . S
N1179 S1177 1.610 . S
N1179 C1180 1.351 1_455 S
C1180 C1174 1.428 . S
C1180 N1179 1.351 1_655 S
C1180 C1181 1.434 . S
C1181 C1172 1.429 . S
C1181 N1178 1.350 . S
C1181 C1180 1.434 . S
C1182 C1183 1.369 . S
C1182 C1184 1.419 . S
C1182 H1186 0.930 . S
C1183 C1182 1.369 . S
C1183 C1192 1.429 . S
C1184 C1182 1.419 . S
C1184 C1185 1.363 . S
C1184 H1187 0.929 . S
C1185 C1184 1.363 . S
C1185 C1191 1.428 . S
H1186 C1182 0.930 . S
H1187 C1184 0.929 . S
S1188 N1189 1.613 . S
S1188 N1190 1.610 . S
N1189 S1188 1.613 . S
N1189 C1192 1.350 . S
N1190 S1188 1.610 . S
N1190 C1191 1.351 . S
C1191 C1185 1.428 . S
C1191 N1190 1.351 . S
C1191 C1192 1.434 . S
C1192 C1183 1.429 . S
C1192 N1189 1.350 . S
C1192 C1191 1.434 . S
C1193 C1194 1.369 . S
C1193 C1195 1.419 . S
C1193 H1197 0.930 . S
C1194 C1193 1.369 . S
C1194 C1203 1.429 . S
C1195 C1193 1.419 . S
C1195 C1196 1.363 . S
C1195 H1198 0.929 . S
C1196 C1195 1.363 . S
C1196 C1202 1.428 . S
H1197 C1193 0.930 . S
H1198 C1195 0.929 . S
S1199 N1200 1.613 . S
S1199 N1201 1.610 . S
N1200 S1199 1.613 . S
N1200 C1203 1.350 1_655 S
N1201 S1199 1.610 . S
N1201 C1202 1.351 1_655 S
C1202 C1196 1.428 . S
C1202 N1201 1.351 1_455 S
C1202 C1203 1.434 . S
C1203 C1194 1.429 . S
C1203 N1200 1.350 1_455 S
C1203 C1202 1.434 . S
C1204 C1205 1.369 . S
C1204 C1206 1.419 . S
C1204 H1208 0.930 . S
C1205 C1204 1.369 . S
C1205 C1214 1.429 . S
C1206 C1204 1.419 . S
C1206 C1207 1.363 . S
C1206 H1209 0.929 . S
C1207 C1206 1.363 . S
C1207 C1213 1.428 . S
H1208 C1204 0.930 . S
H1209 C1206 0.929 . S
S1210 N1211 1.613 . S
S1210 N1212 1.610 . S
N1211 S1210 1.613 . S
N1211 C1214 1.350 . S
N1212 S1210 1.610 . S
N1212 C1213 1.351 . S
C1213 C1207 1.428 . S
C1213 N1212 1.351 . S
C1213 C1214 1.434 . S
C1214 C1205 1.429 . S
C1214 N1211 1.350 . S
C1214 C1213 1.434 . S
C1215 C1216 1.369 . S
C1215 C1217 1.419 . S
C1215 H1219 0.930 . S
C1216 C1215 1.369 . S
C1216 C1225 1.429 . S
C1217 C1215 1.419 . S
C1217 C1218 1.363 . S
C1217 H1220 0.929 . S
C1218 C1217 1.363 . S
C1218 C1224 1.428 . S
H1219 C1215 0.930 . S
H1220 C1217 0.929 . S
S1221 N1222 1.613 . S
S1221 N1223 1.610 . S
N1222 S1221 1.613 . S
N1222 C1225 1.350 . S
N1223 S1221 1.610 . S
N1223 C1224 1.351 . S
C1224 C1218 1.428 . S
C1224 N1223 1.351 . S
C1224 C1225 1.434 . S
C1225 C1216 1.429 . S
C1225 N1222 1.350 . S
C1225 C1224 1.434 . S
C1226 C1227 1.369 . S
C1226 C1228 1.419 . S
C1226 H1230 0.930 . S
C1227 C1226 1.369 . S
C1227 C1236 1.429 . S
C1228 C1226 1.419 . S
C1228 C1229 1.363 . S
C1228 H1231 0.929 . S
C1229 C1228 1.363 . S
C1229 C1235 1.428 . S
H1230 C1226 0.930 . S
H1231 C1228 0.929 . S
S1232 N1233 1.613 . S
S1232 N1234 1.610 . S
N1233 S1232 1.613 . S
N1233 C1236 1.350 . S
N1234 S1232 1.610 . S
N1234 C1235 1.351 . S
C1235 C1229 1.428 . S
C1235 N1234 1.351 . S
C1235 C1236 1.434 . S
C1236 C1227 1.429 . S
C1236 N1233 1.350 . S
C1236 C1235 1.434 . S
C1237 C1238 1.369 . S
C1237 C1239 1.419 . S
C1237 H1241 0.930 . S
C1238 C1237 1.369 . S
C1238 C1247 1.429 . S
C1239 C1237 1.419 . S
C1239 C1240 1.363 . S
C1239 H1242 0.929 . S
C1240 C1239 1.363 . S
C1240 C1246 1.428 . S
H1241 C1237 0.930 . S
H1242 C1239 0.929 . S
S1243 N1244 1.613 . S
S1243 N1245 1.610 . S
N1244 S1243 1.613 . S
N1244 C1247 1.350 . S
N1245 S1243 1.610 . S
N1245 C1246 1.351 . S
C1246 C1240 1.428 . S
C1246 N1245 1.351 . S
C1246 C1247 1.434 . S
C1247 C1238 1.429 . S
C1247 N1244 1.350 . S
C1247 C1246 1.434 . S
C1248 C1249 1.369 . S
C1248 C1250 1.419 . S
C1248 H1252 0.930 . S
C1249 C1248 1.369 . S
C1249 C1258 1.429 . S
C1250 C1248 1.419 . S
C1250 C1251 1.363 . S
C1250 H1253 0.929 . S
C1251 C1250 1.363 . S
C1251 C1257 1.428 . S
H1252 C1248 0.930 . S
H1253 C1250 0.929 . S
S1254 N1255 1.613 . S
S1254 N1256 1.610 . S
N1255 S1254 1.613 . S
N1255 C1258 1.350 . S
N1256 S1254 1.610 . S
N1256 C1257 1.351 . S
C1257 C1251 1.428 . S
C1257 N1256 1.351 . S
C1257 C1258 1.434 . S
C1258 C1249 1.429 . S
C1258 N1255 1.350 . S
C1258 C1257 1.434 . S
C1259 C1260 1.369 . S
C1259 C1261 1.419 . S
C1259 H1263 0.930 . S
C1260 C1259 1.369 . S
C1260 C1269 1.429 . S
C1261 C1259 1.419 . S
C1261 C1262 1.363 . S
C1261 H1264 0.929 . S
C1262 C1261 1.363 . S
C1262 C1268 1.428 . S
H1263 C1259 0.930 . S
H1264 C1261 0.929 . S
S1265 N1266 1.613 . S
S1265 N1267 1.610 . S
N1266 S1265 1.613 . S
N1266 C1269 1.350 . S
N1267 S1265 1.610 . S
N1267 C1268 1.351 . S
C1268 C1262 1.428 . S
C1268 N1267 1.351 . S
C1268 C1269 1.434 . S
C1269 C1260 1.429 . S
C1269 N1266 1.350 . S
C1269 C1268 1.434 . S
C1270 C1271 1.369 . S
C1270 C1272 1.419 . S
C1270 H1274 0.930 . S
C1271 C1270 1.369 . S
C1271 C1280 1.429 . S
C1272 C1270 1.419 . S
C1272 C1273 1.363 . S
C1272 H1275 0.929 . S
C1273 C1272 1.363 . S
C1273 C1279 1.428 . S
H1274 C1270 0.930 . S
H1275 C1272 0.929 . S
S1276 N1277 1.613 . S
S1276 N1278 1.610 . S
N1277 S1276 1.613 . S
N1277 C1280 1.350 . S
N1278 S1276 1.610 . S
N1278 C1279 1.351 . S
C1279 C1273 1.428 . S
C1279 N1278 1.351 . S
C1279 C1280 1.434 . S
C1280 C1271 1.429 . S
C1280 N1277 1.350 . S
C1280 C1279 1.434 . S
C1281 C1282 1.369 . S
C1281 C1283 1.419 . S
C1281 H1285 0.930 . S
C1282 C1281 1.369 . S
C1282 C1291 1.429 . S
C1283 C1281 1.419 . S
C1283 C1284 1.363 . S
C1283 H1286 0.929 . S
C1284 C1283 1.363 . S
C1284 C1290 1.428 . S
H1285 C1281 0.930 . S
H1286 C1283 0.929 . S
S1287 N1288 1.613 . S
S1287 N1289 1.610 . S
N1288 S1287 1.613 . S
N1288 C1291 1.350 . S
N1289 S1287 1.610 . S
N1289 C1290 1.351 . S
C1290 C1284 1.428 . S
C1290 N1289 1.351 . S
C1290 C1291 1.434 . S
C1291 C1282 1.429 . S
C1291 N1288 1.350 . S
C1291 C1290 1.434 . S
C1292 C1293 1.369 . S
C1292 C1294 1.419 . S
C1292 H1296 0.930 . S
C1293 C1292 1.369 . S
C1293 C1302 1.429 . S
C1294 C1292 1.419 . S
C1294 C1295 1.363 . S
C1294 H1297 0.916 1_556 S
C1295 C1294 1.363 . S
C1295 C1301 1.428 . S
H1296 C1292 0.930 . S
H1297 C1294 0.916 1_554 S
S1298 N1299 1.613 . S
S1298 N1300 1.610 . S
N1299 S1298 1.613 . S
N1299 C1302 1.350 . S
N1300 S1298 1.610 . S
N1300 C1301 1.351 . S
C1301 C1295 1.428 . S
C1301 N1300 1.351 . S
C1301 C1302 1.434 . S
C1302 C1293 1.429 . S
C1302 N1299 1.350 . S
C1302 C1301 1.434 . S
C1303 C1304 1.369 . S
C1303 C1305 1.419 . S
C1303 H1307 0.930 . S
C1304 C1303 1.369 . S
C1304 C1313 1.429 . S
C1305 C1303 1.419 . S
C1305 C1306 1.363 . S
C1305 H1308 0.929 . S
C1306 C1305 1.363 . S
C1306 C1312 1.428 . S
H1307 C1303 0.930 . S
H1308 C1305 0.929 . S
S1309 N1310 1.613 . S
S1309 N1311 1.610 . S
N1310 S1309 1.613 . S
N1310 C1313 1.350 . S
N1311 S1309 1.610 . S
N1311 C1312 1.351 . S
C1312 C1306 1.428 . S
C1312 N1311 1.351 . S
C1312 C1313 1.434 . S
C1313 C1304 1.429 . S
C1313 N1310 1.350 . S
C1313 C1312 1.434 . S
C1314 C1315 1.369 . S
C1314 C1316 1.419 . S
C1314 H1318 0.930 . S
C1315 C1314 1.369 . S
C1315 C1324 1.429 . S
C1316 C1314 1.419 . S
C1316 C1317 1.363 . S
C1316 H1319 0.929 . S
C1317 C1316 1.363 . S
C1317 C1323 1.423 1_554 S
H1318 C1314 0.930 . S
H1319 C1316 0.929 . S
S1320 N1321 1.613 . S
S1320 N1322 1.610 . S
N1321 S1320 1.613 . S
N1321 C1324 1.350 1_556 S
N1322 S1320 1.610 . S
N1322 C1323 1.358 . S
C1323 C1317 1.423 1_556 S
C1323 N1322 1.358 . S
C1323 C1324 1.432 1_556 S
C1324 C1315 1.429 . S
C1324 N1321 1.350 1_554 S
C1324 C1323 1.432 1_554 S
C1325 C1326 1.369 . S
C1325 C1327 1.419 . S
C1325 H1329 0.930 . S
C1326 C1325 1.369 . S
C1326 C1335 1.429 . S
C1327 C1325 1.419 . S
C1327 C1328 1.363 . S
C1327 H1330 0.929 . S
C1328 C1327 1.363 . S
C1328 C1334 1.428 . S
H1329 C1325 0.930 . S
H1330 C1327 0.929 . S
S1331 N1332 1.613 . S
S1331 N1333 1.610 . S
N1332 S1331 1.613 . S
N1332 C1335 1.350 . S
N1333 S1331 1.610 . S
N1333 C1334 1.351 . S
C1334 C1328 1.428 . S
C1334 N1333 1.351 . S
C1334 C1335 1.434 . S
C1335 C1326 1.429 . S
C1335 N1332 1.350 . S
C1335 C1334 1.434 . S
C811 C648 1.484 . S
C809 C202 1.495 . S
C822 C661 1.507 . S
C820 C261 1.486 . S
C831 C282 1.680 . S
C833 C681 1.532 . S
C844 C695 1.403 . S
C842 C162 1.432 . S
C855 C707 1.497 . S
C853 C402 1.492 . S
C866 C721 1.445 . S
C864 C482 1.439 . S
C875 C442 1.477 . S
C877 C731 1.489 . S
C888 C746 1.529 . S
C886 C381 1.534 . S
C897 C461 1.539 . S
C899 C760 1.523 . S
C910 C779 1.377 . S
C908 C362 1.401 . S
C919 C415 1.459 . S
C921 C759 1.442 . S
C932 C777 1.453 . S
C930 C495 1.457 . S
C941 C301 1.717 . S
C943 C793 1.579 . S
C952 C175 1.513 . S
C954 C787 1.512 . S
C963 C215 1.485 . S
C965 C791 1.484 . S
C974 C242 1.494 . S
C976 C788 1.506 . S
C985 C141 1.541 . S
C987 C690 1.524 . S
C996 C581 1.517 . S
C998 C689 1.514 . S
C1009 C653 1.370 . S
C1007 C615 1.419 . S
C1020 C667 1.530 . S
C1018 C335 1.655 . S
C1029 C181 1.570 . S
C1031 C704 1.570 . S
C1042 C749 1.498 . S
C1040 C455 1.502 . S
C1053 C703 1.458 . S
C1051 C375 1.453 . S
C1064 C735 1.485 . S
C1062 C501 1.483 . S
C1075 C732 1.483 . S
C1073 C562 1.496 . S
C1084 C621 1.485 . S
C1086 C745 1.507 . S
C1095 C322 1.678 . S
C1097 C709 1.536 . S
C1108 C723 1.397 . S
C1106 C522 1.427 . S
C1117 C122 1.491 . S
C1119 C679 1.498 . S
C1130 C693 1.445 . S
C1128 C2 1.439 . S
C1141 C647 1.487 . S
C1139 C42 1.479 . S
C1152 C662 1.524 . S
C1150 C101 1.536 . S
C1161 C61 1.542 . S
C1163 C774 1.525 . S
C1172 C82 1.407 . S
C1174 C765 1.382 . S
C1183 C135 1.459 . S
C1185 C773 1.442 . S
C1194 C15 1.456 . S
C1196 C763 1.454 . S
C1207 C807 1.575 . S
C1205 C341 1.717 . S
C1218 C801 1.512 . S
C1216 C535 1.513 . S
C1229 C805 1.484 . S
C1227 C575 1.485 . S
C1238 C602 1.502 . S
C1240 C802 1.506 . S
C1249 C421 1.544 . S
C1251 C718 1.522 . S
C1262 C717 1.514 . S
C1260 C221 1.517 . S
C1273 C737 1.365 . S
C1271 C255 1.420 . S
C1284 C751 1.534 . S
C1282 C295 1.651 . S
C1293 C541 1.575 . S
C1295 C676 1.567 . S
C1306 C665 1.497 . S
C1304 C55 1.501 . S
C1315 C95 1.452 . S
C1317 C675 1.457 . S
C1328 C651 1.486 . S
C1326 C21 1.484 . S
