# Generated by pormake.
# Topology ctn, (3,4)-cn, num edge types: 1
# Building blocks:
#     Node 0, Type 0, BuildingBlock: OLANEW_clean_sbu_2, # of connection points: 3
#     Node 1, Type 0, BuildingBlock: OLANEW_clean_sbu_2, # of connection points: 3
#     Node 2, Type 0, BuildingBlock: OLANEW_clean_sbu_2, # of connection points: 3
#     Node 3, Type 0, BuildingBlock: OLANEW_clean_sbu_2, # of connection points: 3
#     Node 4, Type 0, BuildingBlock: OLANEW_clean_sbu_2, # of connection points: 3
#     Node 5, Type 0, BuildingBlock: OLANEW_clean_sbu_2, # of connection points: 3
#     Node 6, Type 0, BuildingBlock: OLANEW_clean_sbu_2, # of connection points: 3
#     Node 7, Type 0, BuildingBlock: OLANEW_clean_sbu_2, # of connection points: 3
#     Node 8, Type 0, BuildingBlock: OLANEW_clean_sbu_2, # of connection points: 3
#     Node 9, Type 0, BuildingBlock: OLANEW_clean_sbu_2, # of connection points: 3
#     Node 10, Type 0, BuildingBlock: OLANEW_clean_sbu_2, # of connection points: 3
#     Node 11, Type 0, BuildingBlock: OLANEW_clean_sbu_2, # of connection points: 3
#     Node 12, Type 0, BuildingBlock: OLANEW_clean_sbu_2, # of connection points: 3
#     Node 13, Type 0, BuildingBlock: OLANEW_clean_sbu_2, # of connection points: 3
#     Node 14, Type 0, BuildingBlock: OLANEW_clean_sbu_2, # of connection points: 3
#     Node 15, Type 0, BuildingBlock: OLANEW_clean_sbu_2, # of connection points: 3
#     Node 16, Type 1, BuildingBlock: KUFVIS_clean_sbu_0, # of connection points: 4
#     Node 17, Type 1, BuildingBlock: KUFVIS_clean_sbu_0, # of connection points: 4
#     Node 18, Type 1, BuildingBlock: KUFVIS_clean_sbu_0, # of connection points: 4
#     Node 19, Type 1, BuildingBlock: KUFVIS_clean_sbu_0, # of connection points: 4
#     Node 20, Type 1, BuildingBlock: KUFVIS_clean_sbu_0, # of connection points: 4
#     Node 21, Type 1, BuildingBlock: KUFVIS_clean_sbu_0, # of connection points: 4
#     Node 22, Type 1, BuildingBlock: KUFVIS_clean_sbu_0, # of connection points: 4
#     Node 23, Type 1, BuildingBlock: KUFVIS_clean_sbu_0, # of connection points: 4
#     Node 24, Type 1, BuildingBlock: KUFVIS_clean_sbu_0, # of connection points: 4
#     Node 25, Type 1, BuildingBlock: KUFVIS_clean_sbu_0, # of connection points: 4
#     Node 26, Type 1, BuildingBlock: KUFVIS_clean_sbu_0, # of connection points: 4
#     Node 27, Type 1, BuildingBlock: KUFVIS_clean_sbu_0, # of connection points: 4
#     Edge 28, Type (0, 1), BuildingBlock: EZIPEK_clean_linker_0, # of connection points: 2
#     Edge 29, Type (0, 1), BuildingBlock: EZIPEK_clean_linker_0, # of connection points: 2
#     Edge 30, Type (0, 1), BuildingBlock: EZIPEK_clean_linker_0, # of connection points: 2
#     Edge 31, Type (0, 1), BuildingBlock: EZIPEK_clean_linker_0, # of connection points: 2
#     Edge 32, Type (0, 1), BuildingBlock: EZIPEK_clean_linker_0, # of connection points: 2
#     Edge 33, Type (0, 1), BuildingBlock: EZIPEK_clean_linker_0, # of connection points: 2
#     Edge 34, Type (0, 1), BuildingBlock: EZIPEK_clean_linker_0, # of connection points: 2
#     Edge 35, Type (0, 1), BuildingBlock: EZIPEK_clean_linker_0, # of connection points: 2
#     Edge 36, Type (0, 1), BuildingBlock: EZIPEK_clean_linker_0, # of connection points: 2
#     Edge 37, Type (0, 1), BuildingBlock: EZIPEK_clean_linker_0, # of connection points: 2
#     Edge 38, Type (0, 1), BuildingBlock: EZIPEK_clean_linker_0, # of connection points: 2
#     Edge 39, Type (0, 1), BuildingBlock: EZIPEK_clean_linker_0, # of connection points: 2
#     Edge 40, Type (0, 1), BuildingBlock: EZIPEK_clean_linker_0, # of connection points: 2
#     Edge 41, Type (0, 1), BuildingBlock: EZIPEK_clean_linker_0, # of connection points: 2
#     Edge 42, Type (0, 1), BuildingBlock: EZIPEK_clean_linker_0, # of connection points: 2
#     Edge 43, Type (0, 1), BuildingBlock: EZIPEK_clean_linker_0, # of connection points: 2
#     Edge 44, Type (0, 1), BuildingBlock: EZIPEK_clean_linker_0, # of connection points: 2
#     Edge 45, Type (0, 1), BuildingBlock: EZIPEK_clean_linker_0, # of connection points: 2
#     Edge 46, Type (0, 1), BuildingBlock: EZIPEK_clean_linker_0, # of connection points: 2
#     Edge 47, Type (0, 1), BuildingBlock: EZIPEK_clean_linker_0, # of connection points: 2
#     Edge 48, Type (0, 1), BuildingBlock: EZIPEK_clean_linker_0, # of connection points: 2
#     Edge 49, Type (0, 1), BuildingBlock: EZIPEK_clean_linker_0, # of connection points: 2
#     Edge 50, Type (0, 1), BuildingBlock: EZIPEK_clean_linker_0, # of connection points: 2
#     Edge 51, Type (0, 1), BuildingBlock: EZIPEK_clean_linker_0, # of connection points: 2
#     Edge 52, Type (0, 1), BuildingBlock: EZIPEK_clean_linker_0, # of connection points: 2
#     Edge 53, Type (0, 1), BuildingBlock: EZIPEK_clean_linker_0, # of connection points: 2
#     Edge 54, Type (0, 1), BuildingBlock: EZIPEK_clean_linker_0, # of connection points: 2
#     Edge 55, Type (0, 1), BuildingBlock: EZIPEK_clean_linker_0, # of connection points: 2
#     Edge 56, Type (0, 1), BuildingBlock: EZIPEK_clean_linker_0, # of connection points: 2
#     Edge 57, Type (0, 1), BuildingBlock: EZIPEK_clean_linker_0, # of connection points: 2
#     Edge 58, Type (0, 1), BuildingBlock: EZIPEK_clean_linker_0, # of connection points: 2
#     Edge 59, Type (0, 1), BuildingBlock: EZIPEK_clean_linker_0, # of connection points: 2
#     Edge 60, Type (0, 1), BuildingBlock: EZIPEK_clean_linker_0, # of connection points: 2
#     Edge 61, Type (0, 1), BuildingBlock: EZIPEK_clean_linker_0, # of connection points: 2
#     Edge 62, Type (0, 1), BuildingBlock: EZIPEK_clean_linker_0, # of connection points: 2
#     Edge 63, Type (0, 1), BuildingBlock: EZIPEK_clean_linker_0, # of connection points: 2
#     Edge 64, Type (0, 1), BuildingBlock: EZIPEK_clean_linker_0, # of connection points: 2
#     Edge 65, Type (0, 1), BuildingBlock: EZIPEK_clean_linker_0, # of connection points: 2
#     Edge 66, Type (0, 1), BuildingBlock: EZIPEK_clean_linker_0, # of connection points: 2
#     Edge 67, Type (0, 1), BuildingBlock: EZIPEK_clean_linker_0, # of connection points: 2
#     Edge 68, Type (0, 1), BuildingBlock: EZIPEK_clean_linker_0, # of connection points: 2
#     Edge 69, Type (0, 1), BuildingBlock: EZIPEK_clean_linker_0, # of connection points: 2
#     Edge 70, Type (0, 1), BuildingBlock: EZIPEK_clean_linker_0, # of connection points: 2
#     Edge 71, Type (0, 1), BuildingBlock: EZIPEK_clean_linker_0, # of connection points: 2
#     Edge 72, Type (0, 1), BuildingBlock: EZIPEK_clean_linker_0, # of connection points: 2
#     Edge 73, Type (0, 1), BuildingBlock: EZIPEK_clean_linker_0, # of connection points: 2
#     Edge 74, Type (0, 1), BuildingBlock: EZIPEK_clean_linker_0, # of connection points: 2
#     Edge 75, Type (0, 1), BuildingBlock: EZIPEK_clean_linker_0, # of connection points: 2
# Relax obj value: 0.067
# Max RMSD: 0.170
# Mean RMSD: 0.101
data_MOF--net-ctn--node1-OLANEW_clean_sbu_2--node2-KUFVIS_clean_sbu_0--edge1-EZIPEK_clean_linker_0
_symmetry_space_group_name_H-M    P1
_symmetry_Int_Tables_number       1
_symmetry_cell_setting            triclinic
loop_
_symmetry_equiv_pos_as_xyz
'x, y, z'
_cell_length_a     42.589877
_cell_length_b     43.601958
_cell_length_c     41.377031
_cell_angle_alpha  92.572064
_cell_angle_beta   95.163928
_cell_angle_gamma 98.438705
loop_
_atom_site_label
_atom_site_type_symbol
_atom_site_fract_x
_atom_site_fract_y
_atom_site_fract_z
_atom_type_partial_charge
O0 O 0.04956 0.09609 0.01828 0.0
Cd1 Cd 0.06677 0.05922 0.05721 0.0
O2 O 0.01548 0.11002 0.05124 0.0
Cd3 Cd 0.02073 0.07726 0.08882 0.0
O4 O 0.99608 0.05689 0.12848 0.0
C5 C 0.96595 0.05561 0.12487 0.0
O6 O 0.95243 0.06501 0.09806 0.0
C7 C 0.02884 0.11305 0.0251 0.0
C8 C 0.11208 0.02325 0.03816 0.0
O9 O 0.12064 0.05064 0.05158 0.0
O10 O 0.08215 0.0131 0.03293 0.0
O11 O 0.32815 0.75439 0.2627 0.0
Cd12 Cd 0.28835 0.75843 0.21735 0.0
O13 O 0.32488 0.70699 0.24209 0.0
Cd14 Cd 0.33184 0.65849 0.23831 0.0
O15 O 0.29751 0.61745 0.24426 0.0
C16 C 0.30266 0.59559 0.26232 0.0
O17 O 0.33139 0.59521 0.27665 0.0
C18 C 0.33782 0.72815 0.26331 0.0
C19 C 0.30048 0.81001 0.17976 0.0
O20 O 0.31822 0.78872 0.18028 0.0
O21 O 0.27782 0.80774 0.1983 0.0
O22 O 0.99076 0.51516 0.12703 0.0
Cd23 Cd 0.95576 0.50826 0.0757 0.0
O24 O 0.01813 0.47754 0.11447 0.0
Cd25 Cd 0.9945 0.45825 0.0674 0.0
O26 O 0.99025 0.41989 0.03041 0.0
C27 C 0.00947 0.40035 0.03474 0.0
O28 O 0.03076 0.40436 0.06017 0.0
C29 C 0.01288 0.49912 0.13404 0.0
C30 C 0.91346 0.55159 0.06678 0.0
O31 O 0.94172 0.55701 0.05791 0.0
O32 O 0.90543 0.52628 0.0806 0.0
O33 O 0.69778 0.87325 0.20065 0.0
Cd34 Cd 0.65786 0.83003 0.17774 0.0
O35 O 0.72531 0.84669 0.2339 0.0
Cd36 Cd 0.68609 0.8082 0.22931 0.0
O37 O 0.63969 0.78824 0.24344 0.0
C38 C 0.62823 0.8048 0.2641 0.0
O39 O 0.6466 0.83017 0.27668 0.0
C40 C 0.7219 0.8719 0.22068 0.0
C41 C 0.68376 0.79035 0.13594 0.0
O42 O 0.67882 0.81736 0.1278 0.0
O43 O 0.67669 0.78213 0.16406 0.0
O44 O 0.09293 0.02487 0.55523 0.0
Cd45 Cd 0.04188 0.99 0.54962 0.0
O46 O 0.0664 0.04276 0.51484 0.0
Cd47 Cd 0.05001 0.06751 0.47354 0.0
O48 O 0.01006 0.06119 0.43538 0.0
C49 C 0.01026 0.07151 0.40716 0.0
O50 O 0.03585 0.0888 0.39889 0.0
C51 C 0.09208 0.04447 0.53349 0.0
C52 C 0.03972 0.93328 0.57814 0.0
O53 O 0.05222 0.93778 0.55138 0.0
O54 O 0.02911 0.956 0.59205 0.0
O55 O 0.21564 0.72113 0.93856 0.0
Cd56 Cd 0.199 0.67268 0.90508 0.0
O57 O 0.17707 0.74238 0.91349 0.0
Cd58 Cd 0.1596 0.70412 0.87792 0.0
O59 O 0.13051 0.69437 0.83183 0.0
C60 C 0.14316 0.70027 0.80573 0.0
O61 O 0.17408 0.70913 0.80685 0.0
C62 C 0.20046 0.74402 0.93511 0.0
C63 C 0.24626 0.6465 0.87609 0.0
O64 O 0.2323 0.66714 0.86202 0.0
O65 O 0.23887 0.63909 0.90436 0.0
O66 O 1.00066 0.49045 0.45021 0.0
Cd67 Cd 0.97421 0.50502 0.49789 0.0
O68 O 0.01904 0.53958 0.45986 0.0
Cd69 Cd 0.04684 0.58477 0.45492 0.0
O70 O 0.05294 0.62809 0.48463 0.0
C71 C 0.03231 0.62825 0.50497 0.0
O72 O 0.01 0.60405 0.50524 0.0
C73 C 0.01874 0.51448 0.44302 0.0
C74 C 0.91296 0.47453 0.50336 0.0
O75 O 0.91745 0.49784 0.48562 0.0
O76 O 0.93741 0.46528 0.51795 0.0
O77 O 0.85957 0.77673 0.8821 0.0
Cd78 Cd 0.88269 0.81583 0.8466 0.0
O79 O 0.81639 0.79842 0.87647 0.0
Cd80 Cd 0.76792 0.80786 0.88223 0.0
O81 O 0.72784 0.83295 0.86915 0.0
C82 C 0.73338 0.85363 0.84881 0.0
O83 O 0.7614 0.85792 0.83741 0.0
C84 C 0.83127 0.77789 0.88899 0.0
C85 C 0.91316 0.79252 0.79613 0.0
O86 O 0.92825 0.80032 0.82419 0.0
O87 O 0.88353 0.79522 0.7919 0.0
O88 O 0.37004 0.28716 0.39876 0.0
Cd89 Cd 0.39062 0.32859 0.36447 0.0
O90 O 0.32638 0.30826 0.39668 0.0
Cd91 Cd 0.27759 0.31341 0.40608 0.0
O92 O 0.23456 0.33469 0.39543 0.0
C93 C 0.23742 0.35452 0.37388 0.0
O94 O 0.26429 0.35952 0.36031 0.0
C95 C 0.34203 0.28739 0.40693 0.0
C96 C 0.41556 0.30701 0.30933 0.0
O97 O 0.43318 0.31383 0.33621 0.0
O98 O 0.38606 0.31024 0.30838 0.0
O99 O 0.47555 0.99756 0.59919 0.0
Cd100 Cd 0.43963 0.99111 0.54862 0.0
O101 O 0.50756 0.964 0.58621 0.0
Cd102 Cd 0.48666 0.9423 0.53927 0.0
O103 O 0.48964 0.90202 0.50682 0.0
C104 C 0.51497 0.88969 0.50997 0.0
O105 O 0.53878 0.9024 0.531 0.0
C106 C 0.4997 0.98409 0.60592 0.0
C107 C 0.39688 0.03445 0.54525 0.0
O108 O 0.42466 0.04076 0.53541 0.0
O109 O 0.38933 0.00791 0.55689 0.0
O110 O 0.21062 0.37818 0.71546 0.0
Cd111 Cd 0.17561 0.32856 0.70396 0.0
O112 O 0.2408 0.35895 0.75312 0.0
Cd113 Cd 0.20521 0.31838 0.75586 0.0
O114 O 0.15859 0.30168 0.77127 0.0
C115 C 0.14637 0.32105 0.78819 0.0
O116 O 0.1644 0.34755 0.79773 0.0
C117 C 0.23537 0.38119 0.73564 0.0
C118 C 0.19995 0.28987 0.66022 0.0
O119 O 0.20853 0.29046 0.69076 0.0
O120 O 0.18016 0.30771 0.65031 0.0
O121 O 0.83099 0.21515 0.76005 0.0
Cd122 Cd 0.78957 0.21035 0.71438 0.0
O123 O 0.85711 0.18334 0.73388 0.0
Cd124 Cd 0.81478 0.16421 0.70208 0.0
O125 O 0.77314 0.12941 0.70488 0.0
C126 C 0.77886 0.10463 0.71772 0.0
O127 O 0.80853 0.10119 0.7264 0.0
C128 C 0.85568 0.20216 0.75789 0.0
C129 C 0.78971 0.26416 0.67949 0.0
O130 O 0.81263 0.24816 0.67953 0.0
O131 O 0.76702 0.2553 0.69688 0.0
O132 O 0.54702 0.57597 0.50876 0.0
Cd133 Cd 0.56288 0.53872 0.54839 0.0
O134 O 0.51523 0.59358 0.5422 0.0
Cd135 Cd 0.52146 0.56372 0.58248 0.0
O136 O 0.50246 0.54791 0.62721 0.0
C137 C 0.47644 0.55741 0.63239 0.0
O138 O 0.46369 0.57475 0.61126 0.0
C139 C 0.52728 0.59421 0.51518 0.0
C140 C 0.60952 0.50232 0.53335 0.0
O141 O 0.57985 0.493 0.52476 0.0
O142 O 0.61743 0.52925 0.54803 0.0
O143 O 0.59417 0.51007 0.03244 0.0
Cd144 Cd 0.53971 0.48158 0.02243 0.0
O145 O 0.57737 0.55549 0.03025 0.0
Cd146 Cd 0.52781 0.53735 0.01422 0.0
O147 O 0.49075 0.53187 0.97358 0.0
C148 C 0.49567 0.54988 0.95064 0.0
O149 O 0.52138 0.57087 0.95314 0.0
C150 C 0.6 0.53959 0.03403 0.0
C151 C 0.52816 0.42796 0.05678 0.0
O152 O 0.54152 0.42775 0.03024 0.0
O153 O 0.52052 0.45364 0.06745 0.0
O154 O 0.68567 0.19081 0.43344 0.0
Cd155 Cd 0.67117 0.14578 0.39478 0.0
O156 O 0.65449 0.21803 0.40508 0.0
Cd157 Cd 0.63873 0.18329 0.36559 0.0
O158 O 0.61398 0.18184 0.3174 0.0
C159 C 0.62675 0.20027 0.29779 0.0
O160 O 0.6549 0.21671 0.30638 0.0
C161 C 0.67395 0.21576 0.4296 0.0
C162 C 0.7216 0.12625 0.36497 0.0
O163 O 0.70664 0.14711 0.35273 0.0
O164 O 0.71348 0.11531 0.39174 0.0
O165 O 0.50001 0.00902 0.93418 0.0
Cd166 Cd 0.48077 0.03239 0.98231 0.0
O167 O 0.51089 0.05463 0.91348 0.0
Cd168 Cd 0.48978 0.08103 0.94929 0.0
O169 O 0.48546 0.11984 0.98253 0.0
C170 C 0.48749 0.11629 0.01285 0.0
O171 O 0.49086 0.08896 0.02358 0.0
C172 C 0.51188 0.02562 0.9125 0.0
C173 C 0.41621 0.01539 0.98899 0.0
O174 O 0.42605 0.03999 0.97473 0.0
O175 O 0.43676 0.99871 -0.00015 0.0
Mn176 Mn 0.25407 0.90665 0.03866 0.0
Mn177 Mn 0.2402 0.91056 0.95798 0.0
C178 C 0.22981 0.86289 0.00752 0.0
C179 C 0.28794 0.89644 0.08365 0.0
C180 C 0.20339 0.94148 0.00683 0.0
O181 O 0.28345 0.9458 0.02893 0.0
O182 O 0.27722 0.94242 0.97433 0.0
C183 C 0.2987 0.89127 0.93548 0.0
N184 N 0.26636 0.88664 0.93533 0.0
C185 C 0.26112 0.84367 0.89568 0.0
C186 C 0.29436 0.84807 0.89529 0.0
C187 C 0.31323 0.87189 0.91538 0.0
C188 C 0.24798 0.86376 0.91614 0.0
H189 H 0.31328 0.90967 0.95077 0.0
C190 C 0.2904 0.95582 0.00147 0.0
O191 O 0.26558 0.9134 0.08674 0.0
O192 O 0.29111 0.88692 0.05422 0.0
N193 N 0.20527 0.87998 0.93988 0.0
C194 C 0.17417 0.87625 0.94626 0.0
C195 C 0.15216 0.8526 0.92919 0.0
C196 C 0.16252 0.83244 0.90639 0.0
C197 C 0.19487 0.83591 0.90116 0.0
C198 C 0.21561 0.8602 0.91856 0.0
H199 H 0.16648 0.89035 0.96518 0.0
O200 O 0.22662 0.86529 0.03837 0.0
O201 O 0.24649 0.88661 0.99604 0.0
O202 O 0.21497 0.92906 0.03174 0.0
O203 O 0.21201 0.93667 0.9785 0.0
C204 C 0.20748 0.81572 0.87998 0.0
C205 C 0.24057 0.81969 0.87713 0.0
H206 H 0.30567 0.83306 0.87994 0.0
H207 H 0.33892 0.87533 0.91534 0.0
H208 H 0.12742 0.84946 0.93417 0.0
H209 H 0.14557 0.81391 0.89366 0.0
H210 H 0.19202 0.79676 0.86619 0.0
H211 H 0.25005 0.80375 0.86114 0.0
Mn212 Mn 0.14368 0.48297 0.29892 0.0
Mn213 Mn 0.14282 0.56034 0.29879 0.0
C214 C 0.18589 0.51508 0.28021 0.0
C215 C 0.15771 0.43983 0.32456 0.0
C216 C 0.10222 0.51357 0.2495 0.0
O217 O 0.11006 0.48968 0.32944 0.0
O218 O 0.11415 0.54196 0.33071 0.0
C219 C 0.17369 0.57784 0.36539 0.0
N220 N 0.17314 0.58078 0.33272 0.0
C221 C 0.22023 0.61928 0.33972 0.0
C222 C 0.22119 0.61683 0.37345 0.0
C223 C 0.1979 0.59589 0.38632 0.0
C224 C 0.19575 0.60045 0.32006 0.0
H225 H 0.15581 0.56183 0.37542 0.0
C226 C 0.1026 0.51536 0.34004 0.0
O227 O 0.13471 0.43691 0.30127 0.0
O228 O 0.17087 0.46777 0.33439 0.0
N229 N 0.16997 0.58136 0.26964 0.0
C230 C 0.16561 0.58123 0.23662 0.0
C231 C 0.18752 0.6001 0.21986 0.0
C232 C 0.21313 0.61972 0.23729 0.0
C233 C 0.21641 0.62046 0.27133 0.0
C234 C 0.19404 0.60081 0.28667 0.0
H235 H 0.14531 0.56722 0.22322 0.0
O236 O 0.18052 0.48562 0.27183 0.0
O237 O 0.16611 0.52479 0.29911 0.0
O238 O 0.11276 0.48946 0.2597 0.0
O239 O 0.11139 0.54101 0.26243 0.0
C240 C 0.24095 0.63999 0.29066 0.0
C241 C 0.24288 0.63937 0.32482 0.0
H242 H 0.23981 0.63074 0.38966 0.0
H243 H 0.19858 0.59372 0.41232 0.0
H244 H 0.18445 0.59978 0.1936 0.0
H245 H 0.22994 0.63434 0.2243 0.0
H246 H 0.25855 0.65544 0.27947 0.0
H247 H 0.26214 0.65406 0.33938 0.0
Mn248 Mn 0.76871 0.65143 0.03244 0.0
Mn249 Mn 0.70321 0.66322 0.98481 0.0
C250 C 0.72024 0.62011 0.03553 0.0
C251 C 0.81454 0.62818 0.04145 0.0
C252 C 0.72651 0.70101 0.04758 0.0
O253 O 0.78813 0.67914 0.99893 0.0
O254 O 0.74268 0.68705 0.97055 0.0
C255 C 0.71955 0.6307 0.92562 0.0
N256 N 0.69862 0.63419 0.94803 0.0
C257 C 0.65959 0.59384 0.92033 0.0
C258 C 0.68077 0.58979 0.89699 0.0
C259 C 0.71094 0.60822 0.89974 0.0
C260 C 0.6698 0.61612 0.94599 0.0
H261 H 0.74257 0.64504 0.9274 0.0
C262 C 0.77306 0.69162 0.97635 0.0
O263 O 0.81128 0.65347 0.0578 0.0
O264 O 0.79185 0.61712 0.01914 0.0
N265 N 0.66262 0.64244 0.99432 0.0
C266 C 0.6441 0.65094 0.01738 0.0
C267 C 0.6126 0.63587 0.01714 0.0
C268 C 0.60011 0.61292 0.99262 0.0
C269 C 0.61926 0.60512 0.96863 0.0
C270 C 0.65048 0.62096 0.97011 0.0
H271 H 0.6532 0.66926 0.03571 0.0
O272 O 0.74281 0.62227 0.0591 0.0
O273 O 0.72689 0.63562 0.01018 0.0
O274 O 0.75204 0.68909 0.05322 0.0
O275 O 0.70613 0.69245 0.02305 0.0
C276 C 0.60835 0.58274 0.94291 0.0
C277 C 0.62862 0.57688 0.91895 0.0
H278 H 0.67405 0.57272 0.87678 0.0
H279 H 0.72742 0.60529 0.88181 0.0
H280 H 0.59783 0.64226 0.03554 0.0
H281 H 0.5756 0.60182 0.99213 0.0
H282 H 0.58445 0.56988 0.94132 0.0
H283 H 0.62002 0.55954 0.89935 0.0
Mn284 Mn 0.84057 0.03118 0.27536 0.0
Mn285 Mn 0.87393 0.96531 0.27314 0.0
C286 C 0.81052 0.98501 0.25392 0.0
C287 C 0.81356 0.06529 0.3028 0.0
C288 C 0.88619 0.0161 0.22584 0.0
O289 O 0.88114 0.04259 0.30597 0.0
O290 O 0.8995 0.99662 0.30513 0.0
C291 C 0.86092 0.94756 0.3394 0.0
N292 N 0.85789 0.94053 0.30674 0.0
C293 C 0.82643 0.89102 0.31314 0.0
C294 C 0.82943 0.89763 0.34685 0.0
C295 C 0.84668 0.92606 0.36001 0.0
C296 C 0.84099 0.91343 0.2938 0.0
H297 H 0.87394 0.96948 0.34962 0.0
C298 C 0.90137 0.0251 0.31515 0.0
O299 O 0.83054 0.07441 0.27949 0.0
O300 O 0.81339 0.03697 0.31109 0.0
N301 N 0.85203 0.93232 0.24368 0.0
C302 C 0.85343 0.92852 0.21103 0.0
C303 C 0.83799 0.90101 0.1941 0.0
C304 C 0.82202 0.87727 0.21107 0.0
C305 C 0.82222 0.88104 0.24491 0.0
C306 C 0.83824 0.9089 0.26045 0.0
H307 H 0.86686 0.94601 0.19816 0.0
O308 O 0.80164 0.0114 0.24722 0.0
O309 O 0.83654 0.98652 0.27333 0.0
O310 O 0.86753 0.03367 0.23671 0.0
O311 O 0.89049 0.99004 0.23736 0.0
C312 C 0.80745 0.85812 0.26387 0.0
C313 C 0.80935 0.8632 0.29795 0.0
H314 H 0.81847 0.88111 0.36283 0.0
H315 H 0.84893 0.93142 0.38599 0.0
H316 H 0.83861 0.89802 0.16807 0.0
H317 H 0.81 0.85613 0.19793 0.0
H318 H 0.79459 0.83649 0.25249 0.0
H319 H 0.79775 0.84549 0.31226 0.0
Mn320 Mn 0.26417 0.15137 0.53523 0.0
Mn321 Mn 0.20494 0.18192 0.49388 0.0
C322 C 0.21171 0.1268 0.53346 0.0
C323 C 0.30426 0.12004 0.53715 0.0
C324 C 0.23361 0.20604 0.56142 0.0
O325 O 0.28867 0.18186 0.50738 0.0
O326 O 0.24737 0.20041 0.48113 0.0
C327 C 0.21297 0.15491 0.42871 0.0
N328 N 0.19423 0.1586 0.45314 0.0
C329 C 0.14914 0.12702 0.4229 0.0
C330 C 0.16799 0.1228 0.39745 0.0
C331 C 0.20009 0.13675 0.40042 0.0
C332 C 0.16344 0.145 0.45069 0.0
H333 H 0.2375 0.16579 0.43074 0.0
C334 C 0.2772 0.19934 0.48703 0.0
O335 O 0.3048 0.14289 0.5585 0.0
O336 O 0.28087 0.11577 0.51425 0.0
N337 N 0.1624 0.16673 0.50293 0.0
C338 C 0.14687 0.17473 0.52871 0.0
C339 C 0.11443 0.16301 0.52938 0.0
C340 C 0.09803 0.14412 0.50302 0.0
C341 C 0.11412 0.13757 0.47603 0.0
C342 C 0.14649 0.14965 0.47686 0.0
H343 H 0.15918 0.18975 0.54879 0.0
O344 O 0.2331 0.12137 0.55595 0.0
O345 O 0.22173 0.14611 0.51213 0.0
O346 O 0.25456 0.18787 0.56416 0.0
O347 O 0.21395 0.20588 0.53615 0.0
C348 C 0.09915 0.11992 0.44812 0.0
C349 C 0.11667 0.11432 0.42169 0.0
H350 H 0.15806 0.10899 0.3755 0.0
H351 H 0.21481 0.13367 0.38088 0.0
H352 H 0.10209 0.16864 0.55009 0.0
H353 H 0.07299 0.13514 0.50355 0.0
H354 H 0.07409 0.11088 0.44674 0.0
H355 H 0.10487 0.1005 0.40044 0.0
Mn356 Mn 0.356 0.53921 0.78696 0.0
Mn357 Mn 0.38489 0.47098 0.78365 0.0
C358 C 0.3243 0.4949 0.76223 0.0
C359 C 0.33012 0.57442 0.81429 0.0
C360 C 0.40417 0.52397 0.74066 0.0
O361 O 0.39445 0.54644 0.82099 0.0
O362 O 0.40833 0.4984 0.82028 0.0
C363 C 0.36424 0.44769 0.84569 0.0
N364 N 0.36409 0.44381 0.81281 0.0
C365 C 0.33109 0.39396 0.81183 0.0
C366 C 0.33097 0.39736 0.84568 0.0
C367 C 0.34754 0.4244 0.86265 0.0
C368 C 0.34786 0.4181 0.7962 0.0
H369 H 0.37689 0.46845 0.85886 0.0
C370 C 0.41101 0.52639 0.8321 0.0
O371 O 0.34899 0.58334 0.79247 0.0
O372 O 0.32691 0.54543 0.8209 0.0
N373 N 0.36398 0.44166 0.74981 0.0
C374 C 0.36706 0.44158 0.71733 0.0
C375 C 0.35221 0.41601 0.69688 0.0
C376 C 0.33502 0.3904 0.71013 0.0
C377 C 0.33288 0.3906 0.74375 0.0
C378 C 0.34814 0.41678 0.7629 0.0
H379 H 0.38128 0.46056 0.70716 0.0
O380 O 0.3178 0.5223 0.75588 0.0
O381 O 0.34916 0.49451 0.78271 0.0
O382 O 0.38537 0.5419 0.75033 0.0
O383 O 0.40676 0.49755 0.75209 0.0
C384 C 0.31634 0.36578 0.75901 0.0
C385 C 0.31517 0.36759 0.79299 0.0
H386 H 0.31819 0.37941 0.85886 0.0
H387 H 0.34745 0.42727 0.88876 0.0
H388 H 0.3543 0.4159 0.671 0.0
H389 H 0.32361 0.3707 0.6943 0.0
H390 H 0.30423 0.34529 0.74479 0.0
H391 H 0.30203 0.34852 0.8044 0.0
Mn392 Mn 0.73667 0.37046 0.54311 0.0
Mn393 Mn 0.73052 0.3775 0.46243 0.0
C394 C 0.7087 0.33006 0.50912 0.0
C395 C 0.76561 0.35511 0.58933 0.0
C396 C 0.69723 0.41475 0.50957 0.0
O397 O 0.77254 0.40544 0.53631 0.0
O398 O 0.77208 0.40103 0.48146 0.0
C399 C 0.78258 0.34645 0.43987 0.0
N400 N 0.75085 0.34796 0.43969 0.0
C401 C 0.73783 0.30619 0.39842 0.0
C402 C 0.77036 0.30408 0.39837 0.0
C403 C 0.79282 0.32424 0.41927 0.0
C404 C 0.72907 0.32883 0.41947 0.0
H405 H 0.79999 0.36231 0.45531 0.0
C406 C 0.7848 0.41167 0.5098 0.0
O407 O 0.746 0.37508 0.59174 0.0
O408 O 0.76836 0.34485 0.56008 0.0
N409 N 0.6913 0.35418 0.44242 0.0
C410 C 0.66073 0.35704 0.44769 0.0
C411 C 0.6353 0.33799 0.42932 0.0
C412 C 0.64153 0.31554 0.40634 0.0
C413 C 0.67316 0.31212 0.40223 0.0
C414 C 0.69753 0.33204 0.42098 0.0
H415 H 0.65574 0.37306 0.46645 0.0
O416 O 0.70343 0.33242 0.53949 0.0
O417 O 0.72932 0.35198 0.49983 0.0
O418 O 0.7029 0.39914 0.53432 0.0
O419 O 0.70852 0.40965 0.48264 0.0
C420 C 0.68143 0.2893 0.38073 0.0
C421 C 0.71375 0.2864 0.37875 0.0
H422 H 0.77833 0.28692 0.38257 0.0
H423 H 0.81798 0.32281 0.41934 0.0
H424 H 0.61095 0.34019 0.43333 0.0
H425 H 0.62186 0.3006 0.39252 0.0
H426 H 0.6631 0.27363 0.36588 0.0
H427 H 0.7198 0.26857 0.36237 0.0
Mn428 Mn 0.63511 0.98035 0.77037 0.0
Mn429 Mn 0.62569 0.05621 0.76954 0.0
C430 C 0.67275 0.0159 0.74925 0.0
C431 C 0.65419 0.93949 0.79641 0.0
C432 C 0.58979 0.00657 0.72038 0.0
O433 O 0.60121 0.9832 0.80155 0.0
O434 O 0.59789 0.03424 0.79997 0.0
C435 C 0.65412 0.07323 0.83711 0.0
N436 N 0.65371 0.07779 0.80472 0.0
C437 C 0.69812 0.11921 0.81417 0.0
C438 C 0.69888 0.11506 0.84761 0.0
C439 C 0.67687 0.09187 0.85911 0.0
C440 C 0.6752 0.09961 0.79336 0.0
H441 H 0.63728 0.05546 0.84611 0.0
C442 C 0.58989 0.00736 0.81051 0.0
O443 O 0.63097 0.93439 0.77332 0.0
O444 O 0.66513 0.96819 0.80551 0.0
N445 N 0.6512 0.08142 0.74196 0.0
C446 C 0.6456 0.08436 0.70942 0.0
C447 C 0.66553 0.10649 0.69399 0.0
C448 C 0.6901 0.12651 0.71246 0.0
C449 C 0.69405 0.1246 0.74626 0.0
C450 C 0.67366 0.10176 0.76017 0.0
H451 H 0.62542 0.07071 0.69558 0.0
O452 O 0.6709 0.98638 0.74216 0.0
O453 O 0.65297 0.0237 0.76926 0.0
O454 O 0.60218 0.98382 0.73176 0.0
O455 O 0.59697 0.03473 0.73213 0.0
C456 C 0.71712 0.14476 0.76673 0.0
C457 C 0.71924 0.14199 0.80066 0.0
H458 H 0.71629 0.12951 0.86468 0.0
H459 H 0.67738 0.08843 0.88488 0.0
H460 H 0.66153 0.10853 0.66803 0.0
H461 H 0.70531 0.14371 0.70054 0.0
H462 H 0.73337 0.16246 0.75663 0.0
H463 H 0.73721 0.15748 0.81614 0.0
Mn464 Mn 0.00546 0.24959 0.89195 0.0
Mn465 Mn 0.93313 0.24419 0.91996 0.0
C466 C 0.96072 0.22665 0.85902 0.0
C467 C 0.04578 0.2758 0.86511 0.0
C468 C 0.98362 0.20525 0.94331 0.0
O469 O 0.01234 0.28171 0.93046 0.0
O470 O 0.9615 0.28012 0.94316 0.0
C471 C 0.91292 0.3021 0.89663 0.0
N472 N 0.9078 0.27056 0.89717 0.0
C473 C 0.85906 0.26708 0.86204 0.0
C474 C 0.86379 0.29953 0.86113 0.0
C475 C 0.89086 0.31711 0.87848 0.0
C476 C 0.88183 0.25343 0.88059 0.0
H477 H 0.93377 0.31569 0.9098 0.0
C478 C 0.99112 0.29176 0.94634 0.0
O479 O 0.05165 0.25518 0.88557 0.0
O480 O 0.01704 0.28245 0.86158 0.0
N481 N 0.90348 0.2105 0.89853 0.0
C482 C 0.90392 0.17938 0.89933 0.0
C483 C 0.87832 0.1585 0.88353 0.0
C484 C 0.8529 0.16983 0.86634 0.0
C485 C 0.85356 0.20195 0.86473 0.0
C486 C 0.87932 0.22164 0.88167 0.0
H487 H 0.92405 0.17057 0.9111 0.0
O488 O 0.9887 0.22049 0.85343 0.0
O489 O 0.96002 0.24532 0.88417 0.0
O490 O 0.00302 0.21403 0.92262 0.0
O491 O 0.95741 0.21593 0.9451 0.0
C492 C 0.83006 0.21519 0.84636 0.0
C493 C 0.83289 0.24773 0.84488 0.0
H494 H 0.84692 0.31118 0.84702 0.0
H495 H 0.89475 0.34215 0.87779 0.0
H496 H 0.8785 0.13373 0.88405 0.0
H497 H 0.83348 0.15365 0.85368 0.0
H498 H 0.80999 0.20053 0.83283 0.0
H499 H 0.81493 0.25761 0.83027 0.0
Mn500 Mn 0.49748 0.72971 0.3787 0.0
Mn501 Mn 0.43481 0.73138 0.42299 0.0
C502 C 0.4455 0.71303 0.35495 0.0
C503 C 0.53328 0.75305 0.34449 0.0
C504 C 0.48302 0.68679 0.43322 0.0
O505 O 0.51517 0.76141 0.41634 0.0
O506 O 0.46966 0.76525 0.43971 0.0
C507 C 0.41588 0.79178 0.40587 0.0
N508 N 0.40873 0.76031 0.4062 0.0
C509 C 0.35609 0.76098 0.37997 0.0
C510 C 0.36309 0.79333 0.37892 0.0
C511 C 0.39311 0.8088 0.39197 0.0
C512 C 0.37986 0.74522 0.39382 0.0
H513 H 0.43879 0.80381 0.41607 0.0
C514 C 0.49916 0.7743 0.43637 0.0
O515 O 0.54024 0.73079 0.36226 0.0
O516 O 0.50601 0.76225 0.34706 0.0
N517 N 0.3995 0.70004 0.4079 0.0
C518 C 0.39635 0.66879 0.41112 0.0
C519 C 0.36723 0.65005 0.4004 0.0
C520 C 0.34159 0.66363 0.3867 0.0
C521 C 0.3453 0.69586 0.38389 0.0
C522 C 0.37479 0.71338 0.39523 0.0
H523 H 0.41586 0.65822 0.42187 0.0
O524 O 0.46954 0.7031 0.34288 0.0
O525 O 0.45286 0.73031 0.3815 0.0
O526 O 0.49809 0.69387 0.40874 0.0
O527 O 0.4599 0.70014 0.44152 0.0
C528 C 0.32094 0.71128 0.37013 0.0
C529 C 0.32643 0.74377 0.36788 0.0
H530 H 0.34554 0.80654 0.36831 0.0
H531 H 0.39867 0.83379 0.39142 0.0
H532 H 0.36456 0.6252 0.40268 0.0
H533 H 0.31923 0.64907 0.37828 0.0
H534 H 0.29796 0.6984 0.36099 0.0
H535 H 0.30759 0.75531 0.35701 0.0
Mn536 Mn 0.03187 0.76141 0.64711 0.0
Mn537 Mn 0.99432 0.68881 0.6563 0.0
C538 C 0.03414 0.72237 0.60826 0.0
C539 C 0.03058 0.81118 0.62986 0.0
C540 C 0.05785 0.71635 0.69332 0.0
O541 O 0.00322 0.76783 0.68276 0.0
O542 O 0.97666 0.71932 0.684 0.0
C543 C 0.9313 0.69798 0.62523 0.0
N544 N 0.95648 0.68194 0.62672 0.0
C545 C 0.93245 0.64778 0.58106 0.0
C546 C 0.90614 0.66376 0.5792 0.0
C547 C 0.90564 0.68906 0.6013 0.0
C548 C 0.95748 0.65796 0.6052 0.0
H549 H 0.93086 0.71752 0.64208 0.0
C550 C 0.98218 0.74808 0.69358 0.0
O551 O 0.05197 0.8056 0.65231 0.0
O552 O 0.00926 0.788 0.61821 0.0
N553 N 0.00792 0.65612 0.63114 0.0
C554 C 0.03397 0.64185 0.63758 0.0
C555 C 0.03798 0.61584 0.61798 0.0
C556 C 0.01459 0.60409 0.5926 0.0
C557 C 0.98713 0.61812 0.58748 0.0
C558 C 0.98451 0.644 0.60782 0.0
H559 H 0.05116 0.64982 0.65795 0.0
O560 O 0.05422 0.74794 0.60993 0.0
O561 O 0.01244 0.72094 0.62865 0.0
O562 O 0.06113 0.74203 0.67946 0.0
O563 O 0.03387 0.69475 0.68695 0.0
C564 C 0.96205 0.60721 0.56328 0.0
C565 C 0.93487 0.62221 0.55986 0.0
H566 H 0.88625 0.65688 0.56085 0.0
H567 H 0.8855 0.70164 0.59991 0.0
H568 H 0.05889 0.60469 0.62264 0.0
H569 H 0.01775 0.58404 0.57751 0.0
H570 H 0.96339 0.58726 0.54718 0.0
H571 H 0.91586 0.61375 0.541 0.0
Mn572 Mn 0.51017 0.26385 0.14272 0.0
Mn573 Mn 0.47182 0.19444 0.1624 0.0
C574 C 0.50489 0.22129 0.10626 0.0
C575 C 0.50951 0.31232 0.12148 0.0
C576 C 0.53963 0.22104 0.18934 0.0
O577 O 0.48772 0.27526 0.18198 0.0
O578 O 0.46 0.22853 0.19008 0.0
C579 C 0.40667 0.2046 0.13891 0.0
N580 N 0.43064 0.18711 0.13846 0.0
C581 C 0.39898 0.14935 0.09999 0.0
C582 C 0.37386 0.16683 0.10021 0.0
C583 C 0.37779 0.19465 0.11963 0.0
C584 C 0.42733 0.16064 0.11939 0.0
H585 H 0.40961 0.226 0.1538 0.0
C586 C 0.46804 0.25768 0.19706 0.0
O587 O 0.53271 0.30701 0.14198 0.0
O588 O 0.48589 0.28988 0.11444 0.0
N589 N 0.4801 0.15852 0.13812 0.0
C590 C 0.5059 0.14347 0.14205 0.0
C591 C 0.50586 0.11517 0.12444 0.0
C592 C 0.47877 0.10198 0.10389 0.0
C593 C 0.45182 0.11702 0.10151 0.0
C594 C 0.45337 0.14527 0.11955 0.0
H595 H 0.52607 0.15268 0.15894 0.0
O596 O 0.52587 0.24552 0.10342 0.0
O597 O 0.48671 0.22308 0.12975 0.0
O598 O 0.5422 0.24521 0.17289 0.0
O599 O 0.51458 0.20053 0.18749 0.0
C600 C 0.4234 0.10499 0.0821 0.0
C601 C 0.39706 0.12126 0.08118 0.0
H602 H 0.3515 0.15917 0.08549 0.0
H603 H 0.35857 0.20836 0.11981 0.0
H604 H 0.52651 0.10336 0.12704 0.0
H605 H 0.47875 0.08008 0.09045 0.0
H606 H 0.4216 0.08334 0.06766 0.0
H607 H 0.37544 0.11193 0.06595 0.0
C608 C 0.18563 0.78389 0.97397 0.0
C609 C 0.20924 0.77283 0.95637 0.0
C610 C 0.2477 0.81823 0.9773 0.0
C611 C 0.22264 0.83184 0.98997 0.0
N612 N 0.1674 0.82781 0.00051 0.0
N613 N 0.26221 0.78062 0.93872 0.0
C614 C 0.19154 0.81458 0.98863 0.0
C615 C 0.24024 0.79016 0.95753 0.0
N616 N 0.15801 0.76455 0.97768 0.0
N617 N 0.27879 0.83132 0.98519 0.0
H618 H 0.25761 0.76065 0.92323 0.0
H619 H 0.28414 0.79394 0.93621 0.0
H620 H 0.28562 0.85135 0.00033 0.0
H621 H 0.29807 0.82064 0.97946 0.0
H622 H 0.1412 0.77003 0.99289 0.0
H623 H 0.15331 0.74162 0.96811 0.0
H624 H 0.14352 0.81782 0.99688 0.0
H625 H 0.17072 0.85017 0.01154 0.0
C626 C 0.06646 0.49819 0.41953 0.0
C627 C 0.03924 0.51347 0.41598 0.0
C628 C 0.05212 0.52801 0.36149 0.0
C629 C 0.08062 0.51469 0.36604 0.0
N630 N 0.11852 0.49362 0.40232 0.0
N631 N 0.00763 0.5459 0.38551 0.0
C632 C 0.08869 0.50133 0.39578 0.0
C633 C 0.03256 0.52932 0.38753 0.0
N634 N 0.07129 0.48087 0.44576 0.0
N635 N 0.04313 0.53847 0.3319 0.0
H636 H 0.99148 0.5458 0.40303 0.0
H637 H 0.00395 0.56124 0.36747 0.0
H638 H 0.0571 0.53886 0.31249 0.0
H639 H 0.02081 0.54477 0.3257 0.0
H640 H 0.08848 0.46617 0.44764 0.0
H641 H 0.05666 0.47938 0.4647 0.0
H642 H 0.12706 0.48693 0.42489 0.0
H643 H 0.1361 0.49688 0.38628 0.0
C644 C 0.81404 0.72341 0.90464 0.0
C645 C 0.81654 0.75593 0.91175 0.0
C646 C 0.79229 0.74617 0.9627 0.0
C647 C 0.79115 0.71378 0.95614 0.0
N648 N 0.8072 0.67177 0.92505 0.0
N649 N 0.81374 0.7985 0.95024 0.0
C650 C 0.80405 0.70247 0.92841 0.0
C651 C 0.8071 0.76743 0.94149 0.0
N652 N 0.81969 0.71249 0.87454 0.0
N653 N 0.77915 0.75657 0.98927 0.0
H654 H 0.82494 0.8148 0.93567 0.0
H655 H 0.81059 0.80798 0.97304 0.0
H656 H 0.77085 0.7419 0.00689 0.0
H657 H 0.77521 0.77939 0.99319 0.0
H658 H 0.81501 0.68909 0.86672 0.0
H659 H 0.82621 0.72703 0.85615 0.0
H660 H 0.81934 0.66263 0.90705 0.0
H661 H 0.80026 0.6559 0.94215 0.0
C662 C 0.98685 0.04441 0.35381 0.0
C663 C 0.98263 0.06133 0.38279 0.0
C664 C 0.92475 0.05243 0.36867 0.0
C665 C 0.92926 0.03834 0.33818 0.0
N666 N 0.96538 0.02627 0.29915 0.0
N667 N 0.94835 0.08671 0.41494 0.0
C668 C 0.96055 0.03594 0.32996 0.0
C669 C 0.95178 0.06693 0.38937 0.0
N670 N 0.01549 0.03481 0.34975 0.0
N671 N 0.89485 0.05045 0.37872 0.0
H672 H 0.96766 0.0981 0.43038 0.0
H673 H 0.92677 0.09412 0.41891 0.0
H674 H 0.87453 0.03886 0.36491 0.0
H675 H 0.89054 0.05758 0.40207 0.0
H676 H 0.01874 0.01941 0.33078 0.0
H677 H 0.03526 0.03961 0.36695 0.0
H678 H 0.98793 0.02772 0.2909 0.0
H679 H 0.94695 0.01942 0.28083 0.0
C680 C 0.22593 0.28116 0.60918 0.0
C681 C 0.21236 0.26892 0.63681 0.0
C682 C 0.22296 0.21718 0.61956 0.0
C683 C 0.23089 0.22834 0.58905 0.0
N684 N 0.23822 0.27138 0.55412 0.0
N685 N 0.19298 0.22404 0.66557 0.0
C686 C 0.23191 0.26049 0.58368 0.0
C687 C 0.20983 0.23665 0.6415 0.0
N688 N 0.23423 0.31255 0.60782 0.0
N689 N 0.22764 0.18809 0.62784 0.0
H690 H 0.1818 0.23706 0.6815 0.0
H691 H 0.18721 0.20018 0.66757 0.0
H692 H 0.2369 0.17256 0.61293 0.0
H693 H 0.22531 0.18043 0.65113 0.0
H694 H 0.24718 0.32269 0.58984 0.0
H695 H 0.23121 0.32837 0.62655 0.0
H696 H 0.23526 0.29365 0.5476 0.0
H697 H 0.24459 0.25765 0.53528 0.0
C698 C 0.47163 0.55927 0.69259 0.0
C699 C 0.45924 0.54768 0.66064 0.0
C700 C 0.40954 0.52433 0.68096 0.0
C701 C 0.4228 0.53346 0.71321 0.0
N702 N 0.46625 0.55909 0.75059 0.0
N703 N 0.41911 0.51466 0.6249 0.0
C704 C 0.4539 0.55071 0.71929 0.0
C705 C 0.42893 0.52896 0.65497 0.0
N706 N 0.49956 0.57959 0.69715 0.0
N707 N 0.37797 0.51233 0.67505 0.0
H708 H 0.43287 0.51714 0.60529 0.0
H709 H 0.39878 0.49806 0.62016 0.0
H710 H 0.36311 0.50897 0.6936 0.0
H711 H 0.36595 0.50834 0.65185 0.0
H712 H 0.50835 0.59151 0.71921 0.0
H713 H 0.51324 0.58614 0.67823 0.0
H714 H 0.49004 0.56822 0.75729 0.0
H715 H 0.45266 0.5559 0.77024 0.0
C716 C 0.7773 0.31859 0.67126 0.0
C717 C 0.78905 0.29171 0.65931 0.0
C718 C 0.80144 0.31884 0.61062 0.0
C719 C 0.78088 0.34041 0.61768 0.0
N720 N 0.75468 0.36512 0.65894 0.0
N721 N 0.80813 0.26536 0.61354 0.0
C722 C 0.77048 0.34175 0.64937 0.0
C723 C 0.80049 0.29168 0.62806 0.0
N724 N 0.7744 0.32287 0.70372 0.0
N725 N 0.82192 0.32433 0.58728 0.0
H726 H 0.80449 0.24366 0.62324 0.0
H727 H 0.81421 0.26442 0.58968 0.0
H728 H 0.82474 0.34534 0.57593 0.0
H729 H 0.83875 0.30997 0.58268 0.0
H730 H 0.76851 0.34313 0.71429 0.0
H731 H 0.78149 0.30771 0.72075 0.0
H732 H 0.74193 0.36435 0.67931 0.0
H733 H 0.75503 0.38562 0.64695 0.0
C734 C 0.51298 0.97782 0.66536 0.0
C735 C 0.52047 0.99249 0.63651 0.0
C736 C 0.57429 0.01213 0.66129 0.0
C737 C 0.56619 1.00014 0.69123 0.0
N738 N 0.52778 0.97174 0.72254 0.0
N739 N 0.55578 0.02811 0.60858 0.0
C740 C 0.53545 0.983 0.69351 0.0
C741 C 0.55035 0.01113 0.63506 0.0
N742 N 0.48492 0.95804 0.66536 0.0
N743 N 0.60541 0.0223 0.65711 0.0
H744 H 0.53868 0.02788 0.58882 0.0
H745 H 0.57599 0.04458 0.60763 0.0
H746 H 0.62367 0.02149 0.67534 0.0
H747 H 0.61338 0.02832 0.63484 0.0
H748 H 0.47938 0.94375 0.68417 0.0
H749 H 0.46755 0.95469 0.64555 0.0
H750 H 0.50475 0.96256 0.7271 0.0
H751 H 0.54442 0.97261 0.74274 0.0
C752 C 0.89356 0.1834 0.79978 0.0
C753 C 0.88275 0.20848 0.78351 0.0
C754 C 0.92269 0.24554 0.81713 0.0
C755 C 0.93402 0.2203 0.83288 0.0
N756 N 0.93535 0.16522 0.83405 0.0
N757 N 0.89092 0.2625 0.7716 0.0
C758 C 0.92123 0.18923 0.82236 0.0
C759 C 0.89824 0.23936 0.79092 0.0
N760 N 0.87622 0.15427 0.79522 0.0
N761 N 0.93564 0.27549 0.82676 0.0
H762 H 0.87378 0.25879 0.75162 0.0
H763 H 0.90365 0.28488 0.77331 0.0
H764 H 0.95596 0.28144 0.84299 0.0
H765 H 0.92536 0.29471 0.81982 0.0
H766 H 0.881 0.13574 0.80892 0.0
H767 H 0.85498 0.14916 0.78007 0.0
H768 H 0.92947 0.14242 0.82437 0.0
H769 H 0.95435 0.16827 0.8522 0.0
C770 C 0.52251 0.83342 0.50581 0.0
C771 C 0.51741 0.86099 0.49032 0.0
C772 C 0.50873 0.83219 0.43728 0.0
C773 C 0.51307 0.80463 0.45296 0.0
N774 N 0.53447 0.78082 0.49931 0.0
N775 N 0.51503 0.88848 0.4411 0.0
C776 C 0.52347 0.80591 0.48639 0.0
C777 C 0.51353 0.86097 0.45591 0.0
N778 N 0.5244 0.83288 0.53893 0.0
N779 N 0.49858 0.83062 0.40487 0.0
H780 H 0.519 0.90998 0.45411 0.0
H781 H 0.51539 0.89019 0.41612 0.0
H782 H 0.49593 0.81011 0.39027 0.0
H783 H 0.49105 0.84912 0.39286 0.0
H784 H 0.52468 0.81258 0.55123 0.0
H785 H 0.52303 0.85222 0.55417 0.0
H786 H 0.54467 0.78084 0.52316 0.0
H787 H 0.53681 0.76129 0.48472 0.0
C788 C 0.10332 0.33259 0.82362 0.0
C789 C 0.11494 0.31192 0.80166 0.0
C790 C 0.07719 0.26873 0.81786 0.0
C791 C 0.06959 0.28837 0.84342 0.0
N792 N 0.07576 0.33869 0.87178 0.0
N793 N 0.09905 0.26596 0.76602 0.0
C794 C 0.08245 0.32033 0.84641 0.0
C795 C 0.09797 0.28144 0.79526 0.0
N796 N 0.10964 0.36389 0.82052 0.0
N797 N 0.06483 0.23785 0.81528 0.0
H798 H 0.10975 0.27666 0.7469 0.0
H799 H 0.08532 0.24458 0.7588 0.0
H800 H 0.04806 0.2278 0.83004 0.0
H801 H 0.07279 0.22173 0.79986 0.0
H802 H 0.09997 0.38011 0.83424 0.0
H803 H 0.12047 0.37331 0.80083 0.0
H804 H 0.08733 0.36129 0.87744 0.0
H805 H 0.06048 0.33049 0.88886 0.0
C806 C 0.50139 0.60831 0.46151 0.0
C807 C 0.5187 0.61764 0.4922 0.0
C808 C 0.50938 0.67134 0.48556 0.0
C809 C 0.49403 0.66261 0.45388 0.0
N810 N 0.4781 0.62353 0.41 0.0
N811 N 0.54543 0.65885 0.53004 0.0
C812 C 0.49108 0.63132 0.44125 0.0
C813 C 0.52446 0.64942 0.50322 0.0
N814 N 0.49329 0.57741 0.45249 0.0
N815 N 0.50922 0.70048 0.49911 0.0
H816 H 0.55761 0.64355 0.5431 0.0
H817 H 0.55331 0.68207 0.53737 0.0
H818 H 0.49906 0.71755 0.48696 0.0
H819 H 0.51677 0.707 0.52341 0.0
H820 H 0.47759 0.56887 0.43228 0.0
H821 H 0.50051 0.55995 0.46651 0.0
H822 H 0.4788 0.60217 0.39801 0.0
H823 H 0.46801 0.63905 0.3953 0.0
C824 C 0.9436 0.75313 0.77299 0.0
C825 C 0.92968 0.78052 0.7693 0.0
C826 C 0.94625 0.78391 0.71414 0.0
C827 C 0.96349 0.75877 0.71936 0.0
N828 N 0.98265 0.72235 0.75603 0.0
N829 N 0.92194 0.82499 0.73849 0.0
C830 C 0.96321 0.74407 0.74937 0.0
C831 C 0.93205 0.79672 0.74041 0.0
N832 N 0.93715 0.73509 0.79849 0.0
N833 N 0.94232 0.79476 0.68376 0.0
H834 H 0.91168 0.83536 0.75728 0.0
H835 H 0.92634 0.83942 0.7195 0.0
H836 H 0.95155 0.78542 0.66365 0.0
H837 H 0.92726 0.81086 0.67779 0.0
H838 H 0.94371 0.7131 0.80047 0.0
H839 H 0.92253 0.74069 0.8161 0.0
H840 H 0.98627 0.71379 0.77895 0.0
H841 H 0.99748 0.71479 0.73966 0.0
C842 C 0.02564 0.87521 0.57094 0.0
C843 C 0.03645 0.90215 0.59182 0.0
C844 C 0.03728 0.86938 0.63838 0.0
C845 C 0.03161 0.84244 0.61686 0.0
N846 N 0.02855 0.8208 0.56148 0.0
N847 N 0.0592 0.92387 0.64512 0.0
C848 C 0.02802 0.84557 0.58277 0.0
C849 C 0.04409 0.89903 0.62554 0.0
N850 N 0.01182 0.87762 0.54023 0.0
N851 N 0.03504 0.86689 0.67092 0.0
H852 H 0.06629 0.94565 0.63649 0.0
H853 H 0.06786 0.92189 0.66919 0.0
H854 H 0.02845 0.84575 0.68113 0.0
H855 H 0.03615 0.88613 0.68711 0.0
H856 H 0.00108 0.85832 0.52532 0.0
H857 H 0.00758 0.89869 0.53112 0.0
H858 H 0.02894 0.82296 0.53652 0.0
H859 H 0.03246 0.79901 0.56878 0.0
C860 C 0.12186 0.68575 0.74765 0.0
C861 C 0.12252 0.70494 0.77632 0.0
C862 C 0.08111 0.73169 0.75047 0.0
C863 C 0.08123 0.71327 0.72128 0.0
N864 N 0.10772 0.67922 0.68948 0.0
N865 N 0.10907 0.75124 0.8025 0.0
C866 C 0.10329 0.69204 0.7191 0.0
C867 C 0.10392 0.72937 0.77704 0.0
N868 N 0.13837 0.66113 0.74792 0.0
N869 N 0.05877 0.75096 0.75315 0.0
H870 H 0.12605 0.75084 0.82222 0.0
H871 H 0.09879 0.77149 0.80265 0.0
H872 H 0.04252 0.75463 0.73391 0.0
H873 H 0.0548 0.76167 0.77511 0.0
H874 H 0.13605 0.64434 0.72879 0.0
H875 H 0.15258 0.65617 0.76832 0.0
H876 H 0.12545 0.6657 0.6858 0.0
H877 H 0.09583 0.685 0.66804 0.0
C878 C 0.06039 0.65967 0.55418 0.0
C879 C 0.03429 0.65419 0.5297 0.0
C880 C 0.00851 0.69374 0.55655 0.0
C881 C 0.03425 0.69885 0.58136 0.0
N882 N 0.08814 0.69235 0.59992 0.0
N883 N 0.98402 0.66791 0.50671 0.0
C884 C 0.06136 0.6837 0.57884 0.0
C885 C 0.00872 0.67166 0.53057 0.0
N886 N 0.08309 0.64045 0.55531 0.0
N887 N 0.98385 0.71056 0.55705 0.0
H888 H 0.98224 0.65277 0.48614 0.0
H889 H 0.98224 0.65277 0.48614 0.0
H890 H 0.9829 0.72805 0.5748 0.0
H891 H 0.96439 0.70712 0.53935 0.0
H892 H 0.10031 0.64059 0.57486 0.0
H893 H 0.08323 0.62236 0.53801 0.0
H894 H 0.1099 0.68493 0.59697 0.0
H895 H 0.08943 0.70879 0.61924 0.0
C896 C 0.75045 0.91258 0.2622 0.0
C897 C 0.74524 0.90032 0.22946 0.0
C898 C 0.77961 0.94561 0.21239 0.0
C899 C 0.7881 0.95584 0.24548 0.0
N900 N 0.78136 0.94987 0.30236 0.0
N901 N 0.75825 0.90246 0.17398 0.0
C902 C 0.77353 0.93946 0.27055 0.0
C903 C 0.76056 0.91621 0.20465 0.0
N904 N 0.73194 0.89965 0.28493 0.0
N905 N 0.78945 0.96409 0.18829 0.0
H906 H 0.74535 0.88048 0.16755 0.0
H907 H 0.77171 0.91132 0.15578 0.0
H908 H 0.80378 0.9856 0.1929 0.0
H909 H 0.78122 0.95935 0.16385 0.0
H910 H 0.73204 0.90934 0.30838 0.0
H911 H 0.7142 0.88046 0.27971 0.0
H912 H 0.77517 0.93684 0.32191 0.0
H913 H 0.79562 0.971 0.30956 0.0
C914 C 0.77772 0.11495 0.3636 0.0
C915 C 0.74652 0.11372 0.34774 0.0
C916 C 0.76252 0.08728 0.29963 0.0
C917 C 0.79222 0.08497 0.31708 0.0
N918 N 0.82822 0.09508 0.36591 0.0
N919 N 0.70763 0.0948 0.30242 0.0
C920 C 0.79989 0.09844 0.34916 0.0
C921 C 0.73857 0.09919 0.31603 0.0
N922 N 0.78644 0.13281 0.39189 0.0
N923 N 0.75705 0.07781 0.26738 0.0
H924 H 0.68903 0.10234 0.31378 0.0
H925 H 0.6997 0.08115 0.28114 0.0
H926 H 0.77347 0.06787 0.25472 0.0
H927 H 0.73737 0.0822 0.25246 0.0
H928 H 0.80966 0.13713 0.40311 0.0
H929 H 0.77098 0.14566 0.40277 0.0
H930 H 0.83372 0.10092 0.39066 0.0
H931 H 0.84577 0.08495 0.35525 0.0
C932 C 0.35921 0.00086 0.96537 0.0
C933 C 0.38189 0.00649 0.9931 0.0
C934 C 0.33919 0.99214 0.02837 0.0
C935 C 0.31822 0.98129 0.00024 0.0
N936 N 0.30332 0.99394 0.9455 0.0
N937 N 0.39347 0.01096 0.05146 0.0
C938 C 0.32666 0.99143 0.96969 0.0
C939 C 0.37181 0.00339 0.02483 0.0
N940 N 0.36885 0.00241 0.93477 0.0
N941 N 0.32726 0.99445 0.05779 0.0
H942 H 0.41676 0.02183 0.04994 0.0
H943 H 0.38885 0.00555 0.07498 0.0
H944 H 0.30281 0.99131 0.05996 0.0
H945 H 0.34074 0.00369 0.07915 0.0
H946 H 0.35359 0.99495 0.91389 0.0
H947 H 0.39255 0.00851 0.9302 0.0
H948 H 0.27921 0.99063 0.94945 0.0
H949 H 0.30791 0.00354 0.92348 0.0
C950 C 0.20076 0.36926 0.32884 0.0
C951 C 0.21078 0.37106 0.36253 0.0
C952 C 0.17609 0.41023 0.37124 0.0
C953 C 0.1714 0.41281 0.33716 0.0
N954 N 0.18257 0.39665 0.28309 0.0
N955 N 0.20934 0.39454 0.41627 0.0
C956 C 0.1841 0.39247 0.31572 0.0
C957 C 0.19842 0.39152 0.38404 0.0
N958 N 0.20708 0.3452 0.30938 0.0
N959 N 0.15895 0.42551 0.39126 0.0
H960 H 0.22565 0.38133 0.42667 0.0
H961 H 0.20397 0.41172 0.43228 0.0
H962 H 0.14187 0.43868 0.3823 0.0
H963 H 0.15919 0.42253 0.41611 0.0
H964 H 0.19772 0.34101 0.28517 0.0
H965 H 0.21882 0.32752 0.31843 0.0
H966 H 0.19486 0.38481 0.26717 0.0
H967 H 0.17146 0.41376 0.27208 0.0
C968 C 0.13724 0.06897 0.50315 0.0
C969 C 0.12016 0.0687 0.53112 0.0
C970 C 0.16052 0.1104 0.55795 0.0
C971 C 0.17904 0.10864 0.53124 0.0
N972 N 0.18766 0.08301 0.48059 0.0
N973 N 0.11483 0.08894 0.58522 0.0
C974 C 0.16799 0.08727 0.50425 0.0
C975 C 0.13166 0.08939 0.55855 0.0
N976 N 0.12431 0.05151 0.4756 0.0
N977 N 0.16995 0.13323 0.58208 0.0
H978 H 0.09201 0.07642 0.58535 0.0
H979 H 0.12366 0.10007 0.60765 0.0
H980 H 0.19015 0.14973 0.58148 0.0
H981 H 0.15646 0.13801 0.6009 0.0
H982 H 0.1336 0.05374 0.45325 0.0
H983 H 0.10288 0.03634 0.47426 0.0
H984 H 0.18257 0.06536 0.46227 0.0
H985 H 0.21037 0.09568 0.48042 0.0
C986 C 0.74838 0.07546 0.75857 0.0
C987 C 0.75242 0.081 0.72552 0.0
C988 C 0.706 0.04164 0.70776 0.0
C989 C 0.70061 0.03766 0.74082 0.0
N990 N 0.72167 0.04338 0.79728 0.0
N991 N 0.7346 0.07145 0.66852 0.0
C992 C 0.72327 0.05246 0.76614 0.0
C993 C 0.73114 0.06459 0.70007 0.0
N994 N 0.76731 0.09359 0.78278 0.0
N995 N 0.68809 0.02245 0.68377 0.0
H996 H 0.754 0.08636 0.66164 0.0
H997 H 0.71745 0.06383 0.6492 0.0
H998 H 0.67 0.00489 0.68833 0.0
H999 H 0.69277 0.02187 0.65952 0.0
H1000 H 0.76341 0.09326 0.80723 0.0
H1001 H 0.78544 0.11128 0.7784 0.0
H1002 H 0.73926 0.0507 0.81627 0.0
H1003 H 0.7041 0.0262 0.80386 0.0
C1004 C 0.35996 0.06587 0.57153 0.0
C1005 C 0.374 0.05723 0.5433 0.0
C1006 C 0.3457 0.09337 0.51231 0.0
C1007 C 0.32874 0.09894 0.53945 0.0
N1008 N 0.31521 0.08531 0.59299 0.0
N1009 N 0.37555 0.05852 0.48514 0.0
C1010 C 0.33466 0.08384 0.56861 0.0
C1011 C 0.36568 0.06989 0.5132 0.0
N1012 N 0.37154 0.05795 0.6014 0.0
N1013 N 0.34368 0.11123 0.4861 0.0
H1014 H 0.3894 0.04072 0.48445 0.0
H1015 H 0.36738 0.06459 0.46215 0.0
H1016 H 0.32998 0.12918 0.48484 0.0
H1017 H 0.35807 0.11035 0.46711 0.0
H1018 H 0.36438 0.0664 0.62308 0.0
H1019 H 0.39067 0.04562 0.60479 0.0
H1020 H 0.31643 0.07202 0.61326 0.0
H1021 H 0.2957 0.09726 0.59154 0.0
C1022 C 0.63585 0.47136 0.49383 0.0
C1023 C 0.634 0.48244 0.5262 0.0
C1024 C 0.68018 0.45758 0.54381 0.0
C1025 C 0.67779 0.44089 0.51308 0.0
N1026 N 0.65251 0.43386 0.45726 0.0
N1027 N 0.65228 0.4827 0.58319 0.0
C1028 C 0.65562 0.44846 0.48752 0.0
C1029 C 0.65567 0.47475 0.55152 0.0
N1030 N 0.61996 0.48396 0.46872 0.0
N1031 N 0.70687 0.45863 0.56506 0.0
H1032 H 0.63425 0.49463 0.59016 0.0
H1033 H 0.66549 0.47473 0.60266 0.0
H1034 H 0.72681 0.44906 0.55911 0.0
H1035 H 0.71092 0.47257 0.58659 0.0
H1036 H 0.62332 0.47967 0.44439 0.0
H1037 H 0.60592 0.50129 0.47221 0.0
H1038 H 0.63269 0.43406 0.4406 0.0
H1039 H 0.669 0.42133 0.44828 0.0
C1040 C 0.65929 0.25637 0.46777 0.0
C1041 C 0.68329 0.24293 0.45301 0.0
C1042 C 0.7241 0.2834 0.4803 0.0
C1043 C 0.69973 0.29972 0.49042 0.0
N1044 N 0.64395 0.30184 0.49446 0.0
N1045 N 0.73843 0.24511 0.44246 0.0
C1046 C 0.66724 0.28607 0.48463 0.0
C1047 C 0.71572 0.25663 0.45878 0.0
N1048 N 0.62913 0.24016 0.46657 0.0
N1049 N 0.75524 0.29278 0.49206 0.0
H1050 H 0.7334 0.2262 0.42555 0.0
H1051 H 0.76198 0.25597 0.44341 0.0
H1052 H 0.76272 0.31201 0.50812 0.0
H1053 H 0.77339 0.27975 0.48848 0.0
H1054 H 0.61122 0.24716 0.47939 0.0
H1055 H 0.62275 0.21801 0.45516 0.0
H1056 H 0.61972 0.29485 0.48777 0.0
H1057 H 0.64886 0.32344 0.50723 0.0
C1058 C 0.51625 0.01651 0.85323 0.0
C1059 C 0.52748 0.01208 0.88576 0.0
C1060 C 0.57765 0.99921 0.86801 0.0
C1061 C 0.56709 0.00511 0.83564 0.0
N1062 N 0.52519 0.01488 0.79606 0.0
N1063 N 0.56487 0.99173 0.92331 0.0
C1064 C 0.53587 0.01219 0.82783 0.0
C1065 C 0.55673 1.00063 0.8928 0.0
N1066 N 0.48705 0.02574 0.847 0.0
N1067 N 0.60858 0.99486 0.87559 0.0
H1068 H 0.551 0.9936 0.94256 0.0
H1069 H 0.58402 0.97996 0.92901 0.0
H1070 H 0.62492 0.99412 0.85838 0.0
H1071 H 0.61902 0.99438 0.89925 0.0
H1072 H 0.47854 0.0331 0.82478 0.0
H1073 H 0.47116 0.02651 0.86471 0.0
H1074 H 0.50182 0.01697 0.78794 0.0
H1075 H 0.53957 0.01358 0.77714 0.0
C1076 C 0.32494 0.27328 0.46144 0.0
C1077 C 0.32822 0.26406 0.4287 0.0
C1078 C 0.30666 0.21025 0.43824 0.0
C1079 C 0.29927 0.22031 0.46927 0.0
N1080 N 0.30338 0.25995 0.51234 0.0
N1081 N 0.32087 0.22452 0.38487 0.0
C1082 C 0.30922 0.25144 0.48152 0.0
C1083 C 0.31907 0.23264 0.41688 0.0
N1084 N 0.33768 0.30266 0.47344 0.0
N1085 N 0.30244 0.17919 0.42961 0.0
H1086 H 0.32998 0.24024 0.36853 0.0
H1087 H 0.31126 0.20283 0.37386 0.0
H1088 H 0.29397 0.16236 0.44516 0.0
H1089 H 0.31004 0.16994 0.40856 0.0
H1090 H 0.33868 0.31032 0.49773 0.0
H1091 H 0.34928 0.3192 0.45936 0.0
H1092 H 0.30622 0.2828 0.52181 0.0
H1093 H 0.29492 0.24375 0.52853 0.0
C1094 C 0.48593 0.53478 0.89111 0.0
C1095 C 0.47434 0.54536 0.92004 0.0
C1096 C 0.42102 0.54294 0.89151 0.0
C1097 C 0.43317 0.53482 0.86192 0.0
N1098 N 0.478 0.52694 0.83246 0.0
N1099 N 0.4328 0.56504 0.94683 0.0
C1100 C 0.46591 0.53194 0.86141 0.0
C1101 C 0.44245 0.55111 0.91995 0.0
N1102 N 0.51553 0.52594 0.89228 0.0
N1103 N 0.38884 0.54098 0.89301 0.0
H1104 H 0.44782 0.5712 0.96819 0.0
H1105 H 0.41091 0.57298 0.94698 0.0
H1106 H 0.37211 0.53418 0.87307 0.0
H1107 H 0.37848 0.54332 0.91467 0.0
H1108 H 0.52389 0.51469 0.87282 0.0
H1109 H 0.53089 0.52738 0.91357 0.0
H1110 H 0.50229 0.52846 0.83003 0.0
H1111 H 0.46392 0.52354 0.81031 0.0
C1112 C 0.68708 0.76718 0.07945 0.0
C1113 C 0.69689 0.76903 0.11329 0.0
C1114 C 0.72593 0.72521 0.10494 0.0
C1115 C 0.71927 0.72594 0.07059 0.0
N1116 N 0.70264 0.75621 0.02614 0.0
N1117 N 0.73461 0.75599 0.15585 0.0
C1118 C 0.70279 0.74967 0.05813 0.0
C1119 C 0.71911 0.74999 0.12535 0.0
N1120 N 0.66161 0.78042 0.0675 0.0
N1121 N 0.73691 0.7004 0.11865 0.0
H1122 H 0.73203 0.77514 0.17085 0.0
H1123 H 0.75298 0.7442 0.16447 0.0
H1124 H 0.74048 0.68052 0.10555 0.0
H1125 H 0.73899 0.69811 0.1437 0.0
H1126 H 0.6523 0.77718 0.0432 0.0
H1127 H 0.6473 0.7911 0.08223 0.0
H1128 H 0.69296 0.77503 0.0169 0.0
H1129 H 0.71553 0.74549 0.0099 0.0
C1130 C 0.92149 0.01958 0.14479 0.0
C1131 C 0.94612 0.04535 0.15111 0.0
C1132 C 0.93133 0.05229 0.20664 0.0
C1133 C 0.9056 0.02752 0.1996 0.0
N1134 N 0.87102 0.9938 0.15952 0.0
N1135 N 0.97074 0.09014 0.18559 0.0
C1136 C 0.89923 0.01286 0.16797 0.0
C1137 C 0.95014 0.06276 0.18143 0.0
N1138 N 0.91991 0.00094 0.11705 0.0
N1139 N 0.93807 0.06559 0.23752 0.0
H1140 H 0.98473 0.09882 0.16767 0.0
H1141 H 0.97208 0.10564 0.20573 0.0
H1142 H 0.92372 0.06008 0.25618 0.0
H1143 H 0.95892 0.08074 0.24521 0.0
H1144 H 0.90448 0.98 0.1128 0.0
H1145 H 0.93605 0.0049 0.09961 0.0
H1146 H 0.86356 0.98471 0.13591 0.0
H1147 H 0.85355 0.9899 0.17554 0.0
C1148 C 0.30072 0.86654 0.16798 0.0
C1149 C 0.30515 0.836 0.1575 0.0
C1150 C 0.31853 0.85601 0.10548 0.0
C1151 C 0.30378 0.8823 0.11197 0.0
N1152 N 0.2888 0.91711 0.15265 0.0
N1153 N 0.31463 0.8014 0.11269 0.0
C1154 C 0.29741 0.8891 0.14438 0.0
C1155 C 0.31367 0.83065 0.12545 0.0
N1156 N 0.30109 0.8743 0.20039 0.0
N1157 N 0.33716 0.85524 0.08041 0.0
H1158 H 0.30784 0.78128 0.12452 0.0
H1159 H 0.31833 0.797 0.08844 0.0
H1160 H 0.34339 0.87478 0.06733 0.0
H1161 H 0.34979 0.83697 0.07598 0.0
H1162 H 0.3003 0.89671 0.20973 0.0
H1163 H 0.30572 0.85902 0.21828 0.0
H1164 H 0.27945 0.92196 0.17439 0.0
H1165 H 0.29138 0.93563 0.1375 0.0
C1166 C 0.0234 0.49857 0.19498 0.0
C1167 C 0.03442 0.50613 0.1645 0.0
C1168 C 0.08959 0.51488 0.18927 0.0
C1169 C 0.07872 0.50978 0.22023 0.0
N1170 N 0.03548 0.49792 0.25351 0.0
N1171 N 0.07696 0.52766 0.13377 0.0
C1172 C 0.04559 0.50209 0.22338 0.0
C1173 C 0.06723 0.51619 0.16205 0.0
N1174 N 0.99207 0.4866 0.19645 0.0
N1175 N 0.1213 0.5168 0.18552 0.0
H1176 H 0.06112 0.52938 0.1134 0.0
H1177 H 0.10016 0.5383 0.13156 0.0
H1178 H 0.13804 0.51483 0.20488 0.0
H1179 H 0.1305 0.51721 0.16303 0.0
H1180 H 0.98304 0.47739 0.21708 0.0
H1181 H 0.97516 0.48423 0.17629 0.0
H1182 H 0.01172 0.49608 0.25827 0.0
H1183 H 0.05124 0.49746 0.27421 0.0
C1184 C 0.36493 0.69558 0.30367 0.0
C1185 C 0.36492 0.72343 0.28705 0.0
C1186 C 0.41453 0.74575 0.31937 0.0
C1187 C 0.41687 0.71654 0.3328 0.0
N1188 N 0.39727 0.66169 0.33163 0.0
N1189 N 0.39616 0.77065 0.27203 0.0
C1190 C 0.39314 0.69071 0.32278 0.0
C1191 C 0.3915 0.74732 0.29292 0.0
N1192 N 0.33764 0.67468 0.30294 0.0
N1193 N 0.43407 0.77223 0.33141 0.0
H1194 H 0.38156 0.77147 0.25057 0.0
H1195 H 0.41691 0.78688 0.27376 0.0
H1196 H 0.45154 0.77314 0.35071 0.0
H1197 H 0.43047 0.79421 0.32434 0.0
H1198 H 0.33588 0.65498 0.3164 0.0
H1199 H 0.3159 0.67876 0.29162 0.0
H1200 H 0.38187 0.64174 0.32257 0.0
H1201 H 0.41732 0.65747 0.34618 0.0
C1202 C 0.01274 0.37586 0.97925 0.0
C1203 C 0.00704 0.37246 0.01227 0.0
C1204 C 0.9987 0.31575 0.00289 0.0
C1205 C 1.00044 0.3193 0.96921 0.0
N1206 N 0.0057 0.35248 0.92428 0.0
N1207 N 0.99062 0.33947 0.05495 0.0
C1208 C 0.00679 0.34929 0.95707 0.0
C1209 C 0.99922 0.34245 0.02405 0.0
N1210 N 0.02471 0.40434 0.96929 0.0
N1211 N 0.99694 0.28679 0.01464 0.0
H1212 H 0.9901 0.35841 0.07109 0.0
H1213 H 0.98129 0.31838 0.06373 0.0
H1214 H 0.99642 0.26677 0.99969 0.0
H1215 H 0.99894 0.28286 0.03933 0.0
H1216 H 0.03258 0.40773 0.94643 0.0
H1217 H 0.02942 0.4243 0.98487 0.0
H1218 H 0.00631 0.37379 0.91377 0.0
H1219 H 0.00191 0.3336 0.90726 0.0
C1220 C 0.58621 0.81282 0.30166 0.0
C1221 C 0.59756 0.79354 0.2782 0.0
C1222 C 0.56167 0.74865 0.29424 0.0
C1223 C 0.55501 0.76697 0.32135 0.0
N1224 N 0.5627 0.81608 0.35252 0.0
N1225 N 0.58232 0.74815 0.24154 0.0
C1226 C 0.5674 0.79905 0.3253 0.0
C1227 C 0.58147 0.7627 0.27132 0.0
N1228 N 0.59115 0.84431 0.29961 0.0
N1229 N 0.54922 0.71782 0.29047 0.0
H1230 H 0.59181 0.75977 0.22233 0.0
H1231 H 0.56947 0.72644 0.23408 0.0
H1232 H 0.53268 0.70718 0.30514 0.0
H1233 H 0.55656 0.70231 0.2739 0.0
H1234 H 0.58124 0.85949 0.31443 0.0
H1235 H 0.60106 0.85478 0.27993 0.0
H1236 H 0.57418 0.8387 0.35836 0.0
H1237 H 0.54974 0.80671 0.3709 0.0
C1238 C 0.03895 0.16348 0.99765 0.0
C1239 C 0.01837 0.13576 0.00236 0.0
C1240 C 0.97297 0.15643 0.97525 0.0
C1241 C 0.9939 0.18314 0.96759 0.0
N1242 N 0.04418 0.21658 0.9811 0.0
N1243 N 0.96783 0.10286 0.98973 0.0
C1244 C 0.02635 0.18779 0.98123 0.0
C1245 C 0.986 0.13143 0.98942 0.0
N1246 N 0.07057 0.16641 0.00864 0.0
N1247 N 0.94066 0.15558 0.97174 0.0
H1248 H 0.97667 0.08382 0.99952 0.0
H1249 H 0.94524 0.09713 0.97719 0.0
H1250 H 0.92959 0.17456 0.96608 0.0
H1251 H 0.92473 0.1376 0.97954 0.0
H1252 H 0.08779 0.18427 0.00289 0.0
H1253 H 0.08024 0.1497 0.02194 0.0
H1254 H 0.06705 0.22271 0.99276 0.0
H1255 H 0.0348 0.23572 0.9723 0.0
C1256 C 0.42788 0.31038 0.25108 0.0
C1257 C 0.42882 0.29464 0.28039 0.0
C1258 C 0.4588 0.25726 0.2561 0.0
C1259 C 0.45496 0.27098 0.22572 0.0
N1260 N 0.43076 0.30719 0.19281 0.0
N1261 N 0.43926 0.24941 0.30865 0.0
C1262 C 0.43815 0.29668 0.22277 0.0
C1263 C 0.44267 0.26707 0.28233 0.0
N1264 N 0.41826 0.33893 0.25055 0.0
N1265 N 0.47878 0.23561 0.26042 0.0
H1266 H 0.42698 0.25533 0.32815 0.0
H1267 H 0.44578 0.22733 0.30967 0.0
H1268 H 0.49138 0.22771 0.24212 0.0
H1269 H 0.48532 0.22769 0.28306 0.0
H1270 H 0.42036 0.35296 0.23091 0.0
H1271 H 0.41089 0.34989 0.27085 0.0
H1272 H 0.41568 0.32369 0.18882 0.0
H1273 H 0.43723 0.29738 0.1714 0.0
C1274 C 0.5064 0.37116 0.05614 0.0
C1275 C 0.52103 0.3989 0.07405 0.0
C1276 C 0.52073 0.37066 0.12402 0.0
C1277 C 0.51128 0.34219 0.10528 0.0
N1278 N 0.50175 0.31529 0.05196 0.0
N1279 N 0.54746 0.42362 0.12481 0.0
C1280 C 0.50574 0.34235 0.0709 0.0
C1281 C 0.52953 0.39837 0.10801 0.0
N1282 N 0.49218 0.37228 0.02535 0.0
N1283 N 0.5205 0.37146 0.15705 0.0
H1284 H 0.55574 0.44395 0.11392 0.0
H1285 H 0.55692 0.42318 0.14887 0.0
H1286 H 0.51297 0.35186 0.16952 0.0
H1287 H 0.52435 0.39209 0.17154 0.0
H1288 H 0.47862 0.35295 0.01253 0.0
H1289 H 0.49074 0.39303 0.01412 0.0
H1290 H 0.50089 0.31478 0.02668 0.0
H1291 H 0.50288 0.29363 0.06125 0.0
C1292 C 0.59287 0.23474 0.26923 0.0
C1293 C 0.60745 0.2075 0.26853 0.0
C1294 C 0.58402 0.19409 0.21265 0.0
C1295 C 0.56563 0.21854 0.21502 0.0
N1296 N 0.55167 0.26216 0.24583 0.0
N1297 N 0.61594 0.16005 0.24083 0.0
C1298 C 0.57014 0.23918 0.24321 0.0
C1299 C 0.60277 0.18681 0.24057 0.0
N1300 N 0.60063 0.25631 0.29485 0.0
N1301 N 0.58484 0.17899 0.18323 0.0
H1302 H 0.631 0.15465 0.26038 0.0
H1303 H 0.61034 0.14233 0.22259 0.0
H1304 H 0.57296 0.18546 0.16217 0.0
H1305 H 0.59989 0.16275 0.17908 0.0
H1306 H 0.59394 0.27833 0.29497 0.0
H1307 H 0.61569 0.25316 0.31533 0.0
H1308 H 0.55062 0.27515 0.26732 0.0
H1309 H 0.53558 0.26712 0.22705 0.0
C1310 C 0.52255 0.15347 0.05311 0.0
C1311 C 0.49214 0.14388 0.03576 0.0
C1312 C 0.4717 0.1877 0.06131 0.0
C1313 C 0.50076 0.19503 0.08158 0.0
N1314 N 0.55434 0.18563 0.09704 0.0
N1315 N 0.43778 0.15328 0.02229 0.0
C1316 C 0.52649 0.17836 0.07725 0.0
C1317 C 0.46695 0.16136 0.0393 0.0
N1318 N 0.54803 0.13975 0.04535 0.0
N1319 N 0.44822 0.20582 0.06292 0.0
H1320 H 0.43163 0.13385 0.00606 0.0
H1321 H 0.43163 0.13385 0.00606 0.0
H1322 H 0.45074 0.22607 0.07793 0.0
H1323 H 0.42644 0.20084 0.04857 0.0
H1324 H 0.57152 0.14776 0.05442 0.0
H1325 H 0.54624 0.12173 0.02752 0.0
H1326 H 0.57237 0.17189 0.09838 0.0
H1327 H 0.55877 0.20459 0.11389 0.0
C1328 C 0.26113 0.4258 0.77349 0.0
C1329 C 0.25612 0.41163 0.74154 0.0
C1330 C 0.2898 0.45612 0.72203 0.0
C1331 C 0.29949 0.46721 0.75471 0.0
N1332 N 0.293 0.46375 0.81202 0.0
N1333 N 0.26754 0.41177 0.68545 0.0
C1334 C 0.28475 0.45236 0.78059 0.0
C1335 C 0.27063 0.42653 0.71568 0.0
N1336 N 0.24197 0.41492 0.79662 0.0
N1337 N 0.29851 0.47393 0.69708 0.0
H1338 H 0.25439 0.38975 0.67997 0.0
H1339 H 0.28046 0.41999 0.6666 0.0
H1340 H 0.3117 0.49604 0.70089 0.0
H1341 H 0.28984 0.46826 0.67289 0.0
H1342 H 0.24214 0.4261 0.81941 0.0
H1343 H 0.22336 0.39641 0.79203 0.0
H1344 H 0.28686 0.45141 0.83206 0.0
H1345 H 0.30732 0.485 0.81839 0.0
C1346 C 0.25853 0.6135 0.82889 0.0
C1347 C 0.26891 0.6301 0.85924 0.0
C1348 C 0.32026 0.61064 0.85993 0.0
C1349 C 0.31041 0.59558 0.82884 0.0
N1350 N 0.27311 0.58742 0.78075 0.0
N1351 N 0.3115 0.64937 0.90081 0.0
C1352 C 0.28051 0.59866 0.81234 0.0
C1353 C 0.30033 0.63003 0.87403 0.0
N1354 N 0.22715 0.61014 0.81682 0.0
N1355 N 0.34843 0.60602 0.87615 0.0
H1356 H 0.29779 0.66431 0.91135 0.0
H1357 H 0.33513 0.65268 0.91088 0.0
H1358 H 0.36431 0.59334 0.86577 0.0
H1359 H 0.35524 0.61321 0.90043 0.0
H1360 H 0.21751 0.59538 0.79677 0.0
H1361 H 0.20987 0.61971 0.82851 0.0
H1362 H 0.25325 0.59204 0.76627 0.0
H1363 H 0.28825 0.57571 0.76803 0.0
C1364 C 0.87309 0.42579 0.50172 0.0
C1365 C 0.88026 0.45858 0.50687 0.0
C1366 C 0.8242 0.46097 0.51508 0.0
C1367 C 0.81781 0.42815 0.51192 0.0
N1368 N 0.83768 0.37913 0.51133 0.0
N1369 N 0.86433 0.50661 0.52619 0.0
C1370 C 0.84278 0.41051 0.50819 0.0
C1371 C 0.85627 0.47604 0.51573 0.0
N1372 N 0.89438 0.40931 0.48878 0.0
N1373 N 0.79961 0.4777 0.51685 0.0
H1374 H 0.88771 0.51819 0.52833 0.0
H1375 H 0.8484 0.51964 0.53585 0.0
H1376 H 0.77602 0.46726 0.51754 0.0
H1377 H 0.80232 0.50172 0.51547 0.0
H1378 H 0.88887 0.3858 0.48148 0.0
H1379 H 0.91629 0.41962 0.48203 0.0
H1380 H 0.85593 0.36559 0.51216 0.0
H1381 H 0.81572 0.36711 0.51622 0.0
C1382 C 0.70011 0.87084 0.80223 0.0
C1383 C 0.70841 0.87174 0.83625 0.0
C1384 C 0.67376 0.91124 0.84397 0.0
C1385 C 0.66996 0.91396 0.80984 0.0
N1386 N 0.68362 0.89911 0.7564 0.0
N1387 N 0.70531 0.89468 0.88985 0.0
C1388 C 0.68388 0.89425 0.78885 0.0
C1389 C 0.69552 0.89218 0.85734 0.0
N1390 N 0.70735 0.84725 0.78271 0.0
N1391 N 0.65608 0.92642 0.86352 0.0
H1392 H 0.72116 0.88119 0.90061 0.0
H1393 H 0.6996 0.91175 0.90576 0.0
H1394 H 0.63948 0.93997 0.85432 0.0
H1395 H 0.65551 0.92313 0.88825 0.0
H1396 H 0.6991 0.84364 0.75815 0.0
H1397 H 0.71871 0.82935 0.79181 0.0
H1398 H 0.69665 0.88772 0.74085 0.0
H1399 H 0.67294 0.91651 0.7454 0.0
C1400 C 0.64313 0.57851 0.06356 0.0
C1401 C 0.63324 0.55613 0.03736 0.0
C1402 C 0.68341 0.57201 0.01352 0.0
C1403 C 0.69064 0.59768 0.03666 0.0
N1404 N 0.67696 0.62653 0.08314 0.0
N1405 N 0.64265 0.53282 0.98567 0.0
C1406 C 0.67069 0.60095 0.06193 0.0
C1407 C 0.65323 0.55284 0.01209 0.0
N1408 N 0.62628 0.57796 0.09018 0.0
N1409 N 0.7056 0.5656 0.99329 0.0
H1410 H 0.62066 0.51846 0.98326 0.0
H1411 H 0.65454 0.53218 0.96479 0.0
H1412 H 0.72801 0.57903 0.99362 0.0
H1413 H 0.70299 0.54543 0.97823 0.0
H1414 H 0.63382 0.59167 0.11149 0.0
H1415 H 0.60617 0.56154 0.0921 0.0
H1416 H 0.66143 0.63212 0.09975 0.0
H1417 H 0.6964 0.64388 0.08215 0.0
C1418 C 0.25747 0.55473 0.24025 0.0
C1419 C 0.2756 0.5714 0.26761 0.0
C1420 C 0.23845 0.54561 0.30344 0.0
C1421 C 0.21739 0.53343 0.27571 0.0
N1422 N 0.20771 0.52411 0.21752 0.0
N1423 N 0.28304 0.58404 0.32554 0.0
C1424 C 0.22733 0.53706 0.24405 0.0
C1425 C 0.26631 0.56687 0.29937 0.0
N1426 N 0.26982 0.55482 0.21085 0.0
N1427 N 0.23237 0.5361 0.33361 0.0
H1428 H 0.30312 0.60044 0.3238 0.0
H1429 H 0.27555 0.58411 0.34879 0.0
H1430 H 0.21265 0.52011 0.33767 0.0
H1431 H 0.24841 0.5416 0.35427 0.0
H1432 H 0.25943 0.54085 0.19051 0.0
H1433 H 0.29227 0.56677 0.2075 0.0
H1434 H 0.21107 0.52972 0.19376 0.0
H1435 H 0.18714 0.50848 0.21933 0.0
C1436 C 0.87516 0.58509 0.087 0.0
C1437 C 0.89027 0.57366 0.06074 0.0
C1438 C 0.86039 0.60375 0.02343 0.0
C1439 C 0.84213 0.61145 0.04881 0.0
N1440 N 0.82875 0.60506 0.10392 0.0
N1441 N 0.89364 0.56835 0.00279 0.0
C1442 C 0.84872 0.60115 0.08047 0.0
C1443 C 0.88211 0.58215 0.02862 0.0
N1444 N 0.88661 0.58137 0.11828 0.0
N1445 N 0.85757 0.61768 0.99458 0.0
H1446 H 0.90894 0.55183 0.00525 0.0
H1447 H 0.88569 0.5711 0.9787 0.0
H1448 H 0.84237 0.63405 0.99015 0.0
H1449 H 0.87258 0.6154 0.97637 0.0
H1450 H 0.87864 0.59199 0.1384 0.0
H1451 H 0.90634 0.57031 0.12405 0.0
H1452 H 0.83042 0.59489 0.1262 0.0
H1453 H 0.80863 0.61595 0.10016 0.0
C1454 C 0.1342 0.99017 0.9969 0.0
C1455 C 0.13618 0.00376 0.02893 0.0
C1456 C 0.18648 0.98396 0.04154 0.0
C1457 C 0.18126 0.96492 0.0121 0.0
N1458 N 0.14819 0.95065 0.96083 0.0
N1459 N 0.1619 0.00882 0.08379 0.0
C1460 C 0.15468 0.96828 0.9894 0.0
C1461 C 0.16168 0.99936 0.05184 0.0
N1462 N 0.11396 0.99947 0.97298 0.0
N1463 N 0.21587 0.98913 0.0588 0.0
H1464 H 0.14365 0.01916 0.09282 0.0
H1465 H 0.17854 0.00333 0.10183 0.0
H1466 H 0.23581 0.98128 0.0504 0.0
H1467 H 0.22139 0.00483 0.07898 0.0
H1468 H 0.1141 0.99314 0.94841 0.0
H1469 H 0.0994 0.01621 0.97709 0.0
H1470 H 0.12624 0.94833 0.9469 0.0
H1471 H 0.16393 0.93784 0.95091 0.0
loop_
_geom_bond_atom_site_label_1
_geom_bond_atom_site_label_2
_geom_bond_distance
_geom_bond_site_symmetry_2
_ccdc_geom_bond_type
O0 Cd1 2.300 . S
O0 C7 1.275 . S
Cd1 O0 2.300 . S
Cd1 O9 2.377 1_545 S
Cd1 O10 2.378 1_545 S
O2 Cd3 2.385 . S
O2 C7 1.255 . S
Cd3 O2 2.385 . S
Cd3 O4 2.317 . S
O4 Cd3 2.317 . S
O4 C5 1.232 1_455 S
C5 O4 1.232 1_655 S
C5 O6 1.218 . S
O6 C5 1.218 . S
C7 O0 1.275 . S
C7 O2 1.255 . S
C8 O9 1.261 . S
C8 O10 1.256 . S
O9 Cd1 2.377 1_565 S
O9 C8 1.261 . S
O10 Cd1 2.378 1_565 S
O10 C8 1.256 . S
O11 Cd12 2.300 . S
O11 C18 1.275 . S
Cd12 O11 2.300 . S
Cd12 O20 2.381 . S
Cd12 O21 2.378 . S
O13 Cd14 2.385 . S
O13 C18 1.255 . S
Cd14 O13 2.385 . S
Cd14 O15 2.317 . S
O15 Cd14 2.317 . S
O15 C16 1.232 . S
C16 O15 1.232 . S
C16 O17 1.218 . S
O17 C16 1.218 . S
C18 O11 1.275 . S
C18 O13 1.255 . S
C19 O20 1.258 . S
C19 O21 1.256 . S
O20 Cd12 2.381 . S
O20 C19 1.258 . S
O21 Cd12 2.378 . S
O21 C19 1.256 . S
O22 Cd23 2.300 . S
O22 C29 1.275 . S
Cd23 O22 2.300 . S
Cd23 O31 2.381 . S
Cd23 O32 2.378 . S
O24 Cd25 2.385 . S
O24 C29 1.255 1_455 S
Cd25 O24 2.385 . S
Cd25 O26 2.317 1_455 S
O26 Cd25 2.317 1_655 S
O26 C27 1.232 . S
C27 O26 1.232 . S
C27 O28 1.218 1_655 S
O28 C27 1.218 1_455 S
C29 O22 1.275 . S
C29 O24 1.255 1_655 S
C30 O31 1.258 . S
C30 O32 1.256 . S
O31 Cd23 2.381 . S
O31 C30 1.258 . S
O32 Cd23 2.378 . S
O32 C30 1.256 . S
O33 Cd34 2.300 . S
O33 C40 1.275 . S
Cd34 O33 2.300 . S
Cd34 O42 2.381 . S
Cd34 O43 2.378 . S
O35 Cd36 2.385 . S
O35 C40 1.255 . S
Cd36 O35 2.385 . S
Cd36 O37 2.317 . S
O37 Cd36 2.317 . S
O37 C38 1.232 . S
C38 O37 1.232 . S
C38 O39 1.218 . S
O39 C38 1.218 . S
C40 O33 1.275 . S
C40 O35 1.255 . S
C41 O42 1.258 . S
C41 O43 1.256 . S
O42 Cd34 2.381 . S
O42 C41 1.258 . S
O43 Cd34 2.378 . S
O43 C41 1.256 . S
O44 Cd45 2.296 1_545 S
O44 C51 1.291 . S
Cd45 O44 2.296 1_565 S
Cd45 O53 2.381 . S
Cd45 O54 2.378 . S
O46 Cd47 2.385 . S
O46 C51 1.255 . S
Cd47 O46 2.385 . S
Cd47 O48 2.317 1_455 S
O48 Cd47 2.317 1_655 S
O48 C49 1.232 . S
C49 O48 1.232 . S
C49 O50 1.218 1_655 S
O50 C49 1.218 1_455 S
C51 O44 1.291 . S
C51 O46 1.255 . S
C52 O53 1.258 . S
C52 O54 1.256 . S
O53 Cd45 2.381 . S
O53 C52 1.258 . S
O54 Cd45 2.378 . S
O54 C52 1.256 . S
O55 Cd56 2.300 . S
O55 C62 1.275 . S
Cd56 O55 2.300 . S
Cd56 O64 2.381 . S
Cd56 O65 2.378 . S
O57 Cd58 2.385 . S
O57 C62 1.255 . S
Cd58 O57 2.385 . S
Cd58 O59 2.317 . S
O59 Cd58 2.317 . S
O59 C60 1.232 . S
C60 O59 1.232 . S
C60 O61 1.218 . S
O61 C60 1.218 . S
C62 O55 1.275 . S
C62 O57 1.255 . S
C63 O64 1.258 . S
C63 O65 1.256 . S
O64 Cd56 2.381 . S
O64 C63 1.258 . S
O65 Cd56 2.378 . S
O65 C63 1.256 . S
O66 Cd67 2.300 . S
O66 C73 1.275 1_655 S
Cd67 O66 2.300 . S
Cd67 O75 2.381 . S
Cd67 O76 2.378 . S
O68 Cd69 2.385 . S
O68 C73 1.255 . S
Cd69 O68 2.385 . S
Cd69 O70 2.317 . S
O70 Cd69 2.317 . S
O70 C71 1.232 . S
C71 O70 1.232 . S
C71 O72 1.218 . S
O72 C71 1.218 . S
C73 O66 1.275 1_455 S
C73 O68 1.255 . S
C74 O75 1.258 . S
C74 O76 1.256 . S
O75 Cd67 2.381 . S
O75 C74 1.258 . S
O76 Cd67 2.378 . S
O76 C74 1.256 . S
O77 Cd78 2.300 . S
O77 C84 1.275 . S
Cd78 O77 2.300 . S
Cd78 O86 2.381 . S
Cd78 O87 2.378 . S
O79 Cd80 2.385 . S
O79 C84 1.255 . S
Cd80 O79 2.385 . S
Cd80 O81 2.317 . S
O81 Cd80 2.317 . S
O81 C82 1.232 . S
C82 O81 1.232 . S
C82 O83 1.218 . S
O83 C82 1.218 . S
C84 O77 1.275 . S
C84 O79 1.255 . S
C85 O86 1.258 . S
C85 O87 1.256 . S
O86 Cd78 2.381 . S
O86 C85 1.258 . S
O87 Cd78 2.378 . S
O87 C85 1.256 . S
O88 Cd89 2.300 . S
O88 C95 1.275 . S
Cd89 O88 2.300 . S
Cd89 O97 2.381 . S
Cd89 O98 2.378 . S
O90 Cd91 2.385 . S
O90 C95 1.255 . S
Cd91 O90 2.385 . S
Cd91 O92 2.317 . S
O92 Cd91 2.317 . S
O92 C93 1.232 . S
C93 O92 1.232 . S
C93 O94 1.218 . S
O94 C93 1.218 . S
C95 O88 1.275 . S
C95 O90 1.255 . S
C96 O97 1.258 . S
C96 O98 1.256 . S
O97 Cd89 2.381 . S
O97 C96 1.258 . S
O98 Cd89 2.378 . S
O98 C96 1.256 . S
O99 Cd100 2.300 . S
O99 C106 1.275 1_545 S
Cd100 O99 2.300 . S
Cd100 O108 2.381 . S
Cd100 O109 2.378 . S
O101 Cd102 2.385 . S
O101 C106 1.255 . S
Cd102 O101 2.385 . S
Cd102 O103 2.317 . S
O103 Cd102 2.317 . S
O103 C104 1.232 . S
C104 O103 1.232 . S
C104 O105 1.218 . S
O105 C104 1.218 . S
C106 O99 1.275 1_565 S
C106 O101 1.255 . S
C107 O108 1.258 . S
C107 O109 1.256 . S
O108 Cd100 2.381 . S
O108 C107 1.258 . S
O109 Cd100 2.378 . S
O109 C107 1.256 . S
O110 Cd111 2.300 . S
O110 C117 1.275 . S
Cd111 O110 2.300 . S
Cd111 O119 2.381 . S
Cd111 O120 2.378 . S
O112 Cd113 2.385 . S
O112 C117 1.255 . S
Cd113 O112 2.385 . S
Cd113 O114 2.317 . S
O114 Cd113 2.317 . S
O114 C115 1.232 . S
C115 O114 1.232 . S
C115 O116 1.218 . S
O116 C115 1.218 . S
C117 O110 1.275 . S
C117 O112 1.255 . S
C118 O119 1.258 . S
C118 O120 1.256 . S
O119 Cd111 2.381 . S
O119 C118 1.258 . S
O120 Cd111 2.378 . S
O120 C118 1.256 . S
O121 Cd122 2.300 . S
O121 C128 1.275 . S
Cd122 O121 2.300 . S
Cd122 O130 2.381 . S
Cd122 O131 2.378 . S
O123 Cd124 2.385 . S
O123 C128 1.255 . S
Cd124 O123 2.385 . S
Cd124 O125 2.317 . S
O125 Cd124 2.317 . S
O125 C126 1.232 . S
C126 O125 1.232 . S
C126 O127 1.218 . S
O127 C126 1.218 . S
C128 O121 1.275 . S
C128 O123 1.255 . S
C129 O130 1.258 . S
C129 O131 1.256 . S
O130 Cd122 2.381 . S
O130 C129 1.258 . S
O131 Cd122 2.378 . S
O131 C129 1.256 . S
O132 Cd133 2.300 . S
O132 C139 1.275 . S
Cd133 O132 2.300 . S
Cd133 O141 2.381 . S
Cd133 O142 2.378 . S
O134 Cd135 2.385 . S
O134 C139 1.255 . S
Cd135 O134 2.385 . S
Cd135 O136 2.317 . S
O136 Cd135 2.317 . S
O136 C137 1.232 . S
C137 O136 1.232 . S
C137 O138 1.218 . S
O138 C137 1.218 . S
C139 O132 1.275 . S
C139 O134 1.255 . S
C140 O141 1.258 . S
C140 O142 1.256 . S
O141 Cd133 2.381 . S
O141 C140 1.258 . S
O142 Cd133 2.378 . S
O142 C140 1.256 . S
O143 Cd144 2.300 . S
O143 C150 1.275 1_554 S
Cd144 O143 2.300 . S
Cd144 O152 2.381 . S
Cd144 O153 2.378 . S
O145 Cd146 2.385 . S
O145 C150 1.255 . S
Cd146 O145 2.385 . S
Cd146 O147 2.317 . S
O147 Cd146 2.317 . S
O147 C148 1.232 . S
C148 O147 1.232 . S
C148 O149 1.218 . S
O149 C148 1.218 . S
C150 O143 1.275 1_556 S
C150 O145 1.255 . S
C151 O152 1.258 . S
C151 O153 1.256 . S
O152 Cd144 2.381 . S
O152 C151 1.258 . S
O153 Cd144 2.378 . S
O153 C151 1.256 . S
O154 Cd155 2.300 . S
O154 C161 1.275 . S
Cd155 O154 2.300 . S
Cd155 O163 2.381 . S
Cd155 O164 2.378 . S
O156 Cd157 2.385 . S
O156 C161 1.255 . S
Cd157 O156 2.385 . S
Cd157 O158 2.317 . S
O158 Cd157 2.317 . S
O158 C159 1.232 . S
C159 O158 1.232 . S
C159 O160 1.218 . S
O160 C159 1.218 . S
C161 O154 1.275 . S
C161 O156 1.255 . S
C162 O163 1.258 . S
C162 O164 1.256 . S
O163 Cd155 2.381 . S
O163 C162 1.258 . S
O164 Cd155 2.378 . S
O164 C162 1.256 . S
O165 Cd166 2.300 1_556 S
O165 C172 1.275 . S
Cd166 O165 2.300 1_554 S
Cd166 O174 2.381 1_544 S
Cd166 O175 2.378 1_545 S
O167 Cd168 2.385 1_556 S
O167 C172 1.255 . S
Cd168 O167 2.385 1_554 S
Cd168 O169 2.317 . S
O169 Cd168 2.317 . S
O169 C170 1.232 . S
C170 O169 1.232 . S
C170 O171 1.218 . S
O171 C170 1.218 . S
C172 O165 1.275 . S
C172 O167 1.255 . S
C173 O174 1.246 1_554 S
C173 O175 1.267 . S
O174 Cd166 2.381 1_566 S
O174 C173 1.246 1_556 S
O175 Cd166 2.378 1_565 S
O175 C173 1.267 . S
Mn176 O181 2.095 . S
Mn176 O191 2.162 . S
Mn176 O192 2.297 . S
Mn176 O200 2.385 1_554 S
Mn176 O201 2.209 1_554 S
Mn176 O202 2.094 . S
Mn177 O182 2.121 . S
Mn177 N184 2.257 . S
Mn177 N193 2.282 . S
Mn177 O201 2.215 . S
Mn177 O203 2.117 . S
C178 O200 1.234 . S
C178 O201 1.283 . S
C179 O191 1.281 . S
C179 O192 1.236 . S
C180 O202 1.240 . S
C180 O203 1.264 1_554 S
O181 Mn176 2.095 . S
O181 C190 1.250 . S
O182 Mn177 2.121 . S
O182 C190 1.258 1_556 S
C183 N184 1.326 . S
C183 C187 1.460 . S
C183 H189 0.929 . S
N184 Mn177 2.257 . S
N184 C183 1.326 . S
N184 C188 1.362 . S
C185 C186 1.258 . S
C185 C188 1.431 . S
C185 C205 1.449 . S
C186 C185 1.258 . S
C186 C187 1.477 . S
C186 H206 0.931 . S
C187 C183 1.460 . S
C187 C186 1.477 . S
C187 H207 0.930 . S
C188 N184 1.362 . S
C188 C185 1.431 . S
C188 C198 1.476 . S
H189 C183 0.929 . S
C190 O181 1.250 . S
C190 O182 1.258 1_554 S
O191 Mn176 2.162 . S
O191 C179 1.281 . S
O192 Mn176 2.297 . S
O192 C179 1.236 . S
N193 Mn177 2.282 . S
N193 C194 1.328 . S
N193 C198 1.318 . S
C194 N193 1.328 . S
C194 C195 1.457 . S
C194 H199 0.929 . S
C195 C194 1.457 . S
C195 C196 1.291 . S
C195 H208 0.931 . S
C196 C195 1.291 . S
C196 C197 1.373 . S
C196 H209 0.929 . S
C197 C196 1.373 . S
C197 C198 1.396 . S
C197 C204 1.403 . S
C198 C188 1.476 . S
C198 N193 1.318 . S
C198 C197 1.396 . S
H199 C194 0.929 . S
O200 Mn176 2.385 1_556 S
O200 C178 1.234 . S
O201 Mn176 2.209 1_556 S
O201 Mn177 2.215 . S
O201 C178 1.283 . S
O202 Mn176 2.094 . S
O202 C180 1.240 . S
O203 Mn177 2.117 . S
O203 C180 1.264 1_556 S
C204 C197 1.403 . S
C204 C205 1.399 . S
C204 H210 0.929 . S
C205 C185 1.449 . S
C205 C204 1.399 . S
C205 H211 0.930 . S
H206 C186 0.931 . S
H207 C187 0.930 . S
H208 C195 0.931 . S
H209 C196 0.929 . S
H210 C204 0.929 . S
H211 C205 0.930 . S
Mn212 O217 2.095 . S
Mn212 O227 2.162 . S
Mn212 O228 2.297 . S
Mn212 O236 2.385 . S
Mn212 O237 2.209 . S
Mn212 O238 2.094 . S
Mn213 O218 2.121 . S
Mn213 N220 2.257 . S
Mn213 N229 2.282 . S
Mn213 O237 2.215 . S
Mn213 O239 2.117 . S
C214 O236 1.234 . S
C214 O237 1.283 . S
C215 O227 1.281 . S
C215 O228 1.236 . S
C216 O238 1.240 . S
C216 O239 1.264 . S
O217 Mn212 2.095 . S
O217 C226 1.250 . S
O218 Mn213 2.121 . S
O218 C226 1.258 . S
C219 N220 1.326 . S
C219 C223 1.460 . S
C219 H225 0.929 . S
N220 Mn213 2.257 . S
N220 C219 1.326 . S
N220 C224 1.362 . S
C221 C222 1.258 . S
C221 C224 1.431 . S
C221 C241 1.449 . S
C222 C221 1.258 . S
C222 C223 1.477 . S
C222 H242 0.931 . S
C223 C219 1.460 . S
C223 C222 1.477 . S
C223 H243 0.930 . S
C224 N220 1.362 . S
C224 C221 1.431 . S
C224 C234 1.476 . S
H225 C219 0.929 . S
C226 O217 1.250 . S
C226 O218 1.258 . S
O227 Mn212 2.162 . S
O227 C215 1.281 . S
O228 Mn212 2.297 . S
O228 C215 1.236 . S
N229 Mn213 2.282 . S
N229 C230 1.328 . S
N229 C234 1.318 . S
C230 N229 1.328 . S
C230 C231 1.457 . S
C230 H235 0.929 . S
C231 C230 1.457 . S
C231 C232 1.291 . S
C231 H244 0.931 . S
C232 C231 1.291 . S
C232 C233 1.373 . S
C232 H245 0.929 . S
C233 C232 1.373 . S
C233 C234 1.396 . S
C233 C240 1.403 . S
C234 C224 1.476 . S
C234 N229 1.318 . S
C234 C233 1.396 . S
H235 C230 0.929 . S
O236 Mn212 2.385 . S
O236 C214 1.234 . S
O237 Mn212 2.209 . S
O237 Mn213 2.215 . S
O237 C214 1.283 . S
O238 Mn212 2.094 . S
O238 C216 1.240 . S
O239 Mn213 2.117 . S
O239 C216 1.264 . S
C240 C233 1.403 . S
C240 C241 1.399 . S
C240 H246 0.929 . S
C241 C221 1.449 . S
C241 C240 1.399 . S
C241 H247 0.930 . S
H242 C222 0.931 . S
H243 C223 0.930 . S
H244 C231 0.931 . S
H245 C232 0.929 . S
H246 C240 0.929 . S
H247 C241 0.930 . S
Mn248 O253 2.095 1_554 S
Mn248 O263 2.162 . S
Mn248 O264 2.297 1_554 S
Mn248 O272 2.385 . S
Mn248 O273 2.209 1_554 S
Mn248 O274 2.094 . S
Mn249 O254 2.121 . S
Mn249 N256 2.257 . S
Mn249 N265 2.282 . S
Mn249 O273 2.215 . S
Mn249 O275 2.117 1_556 S
C250 O272 1.234 1_556 S
C250 O273 1.283 . S
C251 O263 1.281 . S
C251 O264 1.236 1_554 S
C252 O274 1.240 . S
C252 O275 1.264 . S
O253 Mn248 2.095 1_556 S
O253 C262 1.250 . S
O254 Mn249 2.121 . S
O254 C262 1.258 . S
C255 N256 1.326 . S
C255 C259 1.460 . S
C255 H261 0.929 . S
N256 Mn249 2.257 . S
N256 C255 1.326 . S
N256 C260 1.362 . S
C257 C258 1.258 . S
C257 C260 1.431 . S
C257 C277 1.449 . S
C258 C257 1.258 . S
C258 C259 1.477 . S
C258 H278 0.931 . S
C259 C255 1.460 . S
C259 C258 1.477 . S
C259 H279 0.930 . S
C260 N256 1.362 . S
C260 C257 1.431 . S
C260 C270 1.476 . S
H261 C255 0.929 . S
C262 O253 1.250 . S
C262 O254 1.258 . S
O263 Mn248 2.162 . S
O263 C251 1.281 . S
O264 Mn248 2.297 1_556 S
O264 C251 1.236 1_556 S
N265 Mn249 2.282 . S
N265 C266 1.328 1_556 S
N265 C270 1.318 . S
C266 N265 1.328 1_554 S
C266 C267 1.457 . S
C266 H271 0.929 . S
C267 C266 1.457 . S
C267 C268 1.291 . S
C267 H280 0.931 . S
C268 C267 1.291 . S
C268 C269 1.373 1_554 S
C268 H281 0.929 . S
C269 C268 1.373 1_556 S
C269 C270 1.396 . S
C269 C276 1.403 . S
C270 C260 1.476 . S
C270 N265 1.318 . S
C270 C269 1.396 . S
H271 C266 0.929 . S
O272 Mn248 2.385 . S
O272 C250 1.234 1_554 S
O273 Mn248 2.209 1_556 S
O273 Mn249 2.215 . S
O273 C250 1.283 . S
O274 Mn248 2.094 . S
O274 C252 1.240 . S
O275 Mn249 2.117 1_554 S
O275 C252 1.264 . S
C276 C269 1.403 . S
C276 C277 1.399 . S
C276 H282 0.929 . S
C277 C257 1.449 . S
C277 C276 1.399 . S
C277 H283 0.930 . S
H278 C258 0.931 . S
H279 C259 0.930 . S
H280 C267 0.931 . S
H281 C268 0.929 . S
H282 C276 0.929 . S
H283 C277 0.930 . S
Mn284 O289 2.095 . S
Mn284 O299 2.162 . S
Mn284 O300 2.297 . S
Mn284 O308 2.385 . S
Mn284 O309 2.209 1_545 S
Mn284 O310 2.094 . S
Mn285 O290 2.121 . S
Mn285 N292 2.257 . S
Mn285 N301 2.282 . S
Mn285 O309 2.215 . S
Mn285 O311 2.117 . S
C286 O308 1.234 1_565 S
C286 O309 1.283 . S
C287 O299 1.281 . S
C287 O300 1.236 . S
C288 O310 1.240 . S
C288 O311 1.264 1_545 S
O289 Mn284 2.095 . S
O289 C298 1.250 . S
O290 Mn285 2.121 . S
O290 C298 1.258 1_565 S
C291 N292 1.326 . S
C291 C295 1.460 . S
C291 H297 0.929 . S
N292 Mn285 2.257 . S
N292 C291 1.326 . S
N292 C296 1.362 . S
C293 C294 1.258 . S
C293 C296 1.431 . S
C293 C313 1.449 . S
C294 C293 1.258 . S
C294 C295 1.477 . S
C294 H314 0.931 . S
C295 C291 1.460 . S
C295 C294 1.477 . S
C295 H315 0.930 . S
C296 N292 1.362 . S
C296 C293 1.431 . S
C296 C306 1.476 . S
H297 C291 0.929 . S
C298 O289 1.250 . S
C298 O290 1.258 1_545 S
O299 Mn284 2.162 . S
O299 C287 1.281 . S
O300 Mn284 2.297 . S
O300 C287 1.236 . S
N301 Mn285 2.282 . S
N301 C302 1.328 . S
N301 C306 1.318 . S
C302 N301 1.328 . S
C302 C303 1.457 . S
C302 H307 0.929 . S
C303 C302 1.457 . S
C303 C304 1.291 . S
C303 H316 0.931 . S
C304 C303 1.291 . S
C304 C305 1.373 . S
C304 H317 0.929 . S
C305 C304 1.373 . S
C305 C306 1.396 . S
C305 C312 1.403 . S
C306 C296 1.476 . S
C306 N301 1.318 . S
C306 C305 1.396 . S
H307 C302 0.929 . S
O308 Mn284 2.385 . S
O308 C286 1.234 1_545 S
O309 Mn284 2.209 1_565 S
O309 Mn285 2.215 . S
O309 C286 1.283 . S
O310 Mn284 2.094 . S
O310 C288 1.240 . S
O311 Mn285 2.117 . S
O311 C288 1.264 1_565 S
C312 C305 1.403 . S
C312 C313 1.399 . S
C312 H318 0.929 . S
C313 C293 1.449 . S
C313 C312 1.399 . S
C313 H319 0.930 . S
H314 C294 0.931 . S
H315 C295 0.930 . S
H316 C303 0.931 . S
H317 C304 0.929 . S
H318 C312 0.929 . S
H319 C313 0.930 . S
Mn320 O325 2.095 . S
Mn320 O335 2.162 . S
Mn320 O336 2.297 . S
Mn320 O344 2.385 . S
Mn320 O345 2.209 . S
Mn320 O346 2.094 . S
Mn321 O326 2.121 . S
Mn321 N328 2.257 . S
Mn321 N337 2.282 . S
Mn321 O345 2.215 . S
Mn321 O347 2.117 . S
C322 O344 1.234 . S
C322 O345 1.283 . S
C323 O335 1.281 . S
C323 O336 1.236 . S
C324 O346 1.240 . S
C324 O347 1.264 . S
O325 Mn320 2.095 . S
O325 C334 1.250 . S
O326 Mn321 2.121 . S
O326 C334 1.258 . S
C327 N328 1.326 . S
C327 C331 1.460 . S
C327 H333 0.929 . S
N328 Mn321 2.257 . S
N328 C327 1.326 . S
N328 C332 1.362 . S
C329 C330 1.258 . S
C329 C332 1.431 . S
C329 C349 1.449 . S
C330 C329 1.258 . S
C330 C331 1.477 . S
C330 H350 0.931 . S
C331 C327 1.460 . S
C331 C330 1.477 . S
C331 H351 0.930 . S
C332 N328 1.362 . S
C332 C329 1.431 . S
C332 C342 1.476 . S
H333 C327 0.929 . S
C334 O325 1.250 . S
C334 O326 1.258 . S
O335 Mn320 2.162 . S
O335 C323 1.281 . S
O336 Mn320 2.297 . S
O336 C323 1.236 . S
N337 Mn321 2.282 . S
N337 C338 1.328 . S
N337 C342 1.318 . S
C338 N337 1.328 . S
C338 C339 1.457 . S
C338 H343 0.929 . S
C339 C338 1.457 . S
C339 C340 1.291 . S
C339 H352 0.931 . S
C340 C339 1.291 . S
C340 C341 1.373 . S
C340 H353 0.929 . S
C341 C340 1.373 . S
C341 C342 1.396 . S
C341 C348 1.403 . S
C342 C332 1.476 . S
C342 N337 1.318 . S
C342 C341 1.396 . S
H343 C338 0.929 . S
O344 Mn320 2.385 . S
O344 C322 1.234 . S
O345 Mn320 2.209 . S
O345 Mn321 2.215 . S
O345 C322 1.283 . S
O346 Mn320 2.094 . S
O346 C324 1.240 . S
O347 Mn321 2.117 . S
O347 C324 1.264 . S
C348 C341 1.403 . S
C348 C349 1.399 . S
C348 H354 0.929 . S
C349 C329 1.449 . S
C349 C348 1.399 . S
C349 H355 0.930 . S
H350 C330 0.931 . S
H351 C331 0.930 . S
H352 C339 0.931 . S
H353 C340 0.929 . S
H354 C348 0.929 . S
H355 C349 0.930 . S
Mn356 O361 2.095 . S
Mn356 O371 2.162 . S
Mn356 O372 2.297 . S
Mn356 O380 2.385 . S
Mn356 O381 2.209 . S
Mn356 O382 2.094 . S
Mn357 O362 2.121 . S
Mn357 N364 2.257 . S
Mn357 N373 2.282 . S
Mn357 O381 2.215 . S
Mn357 O383 2.117 . S
C358 O380 1.234 . S
C358 O381 1.283 . S
C359 O371 1.281 . S
C359 O372 1.236 . S
C360 O382 1.240 . S
C360 O383 1.264 . S
O361 Mn356 2.095 . S
O361 C370 1.250 . S
O362 Mn357 2.121 . S
O362 C370 1.258 . S
C363 N364 1.326 . S
C363 C367 1.460 . S
C363 H369 0.929 . S
N364 Mn357 2.257 . S
N364 C363 1.326 . S
N364 C368 1.362 . S
C365 C366 1.258 . S
C365 C368 1.431 . S
C365 C385 1.449 . S
C366 C365 1.258 . S
C366 C367 1.477 . S
C366 H386 0.931 . S
C367 C363 1.460 . S
C367 C366 1.477 . S
C367 H387 0.930 . S
C368 N364 1.362 . S
C368 C365 1.431 . S
C368 C378 1.476 . S
H369 C363 0.929 . S
C370 O361 1.250 . S
C370 O362 1.258 . S
O371 Mn356 2.162 . S
O371 C359 1.281 . S
O372 Mn356 2.297 . S
O372 C359 1.236 . S
N373 Mn357 2.282 . S
N373 C374 1.328 . S
N373 C378 1.318 . S
C374 N373 1.328 . S
C374 C375 1.457 . S
C374 H379 0.929 . S
C375 C374 1.457 . S
C375 C376 1.291 . S
C375 H388 0.931 . S
C376 C375 1.291 . S
C376 C377 1.373 . S
C376 H389 0.929 . S
C377 C376 1.373 . S
C377 C378 1.396 . S
C377 C384 1.403 . S
C378 C368 1.476 . S
C378 N373 1.318 . S
C378 C377 1.396 . S
H379 C374 0.929 . S
O380 Mn356 2.385 . S
O380 C358 1.234 . S
O381 Mn356 2.209 . S
O381 Mn357 2.215 . S
O381 C358 1.283 . S
O382 Mn356 2.094 . S
O382 C360 1.240 . S
O383 Mn357 2.117 . S
O383 C360 1.264 . S
C384 C377 1.403 . S
C384 C385 1.399 . S
C384 H390 0.929 . S
C385 C365 1.449 . S
C385 C384 1.399 . S
C385 H391 0.930 . S
H386 C366 0.931 . S
H387 C367 0.930 . S
H388 C375 0.931 . S
H389 C376 0.929 . S
H390 C384 0.929 . S
H391 C385 0.930 . S
Mn392 O397 2.095 . S
Mn392 O407 2.162 . S
Mn392 O408 2.297 . S
Mn392 O416 2.385 . S
Mn392 O417 2.209 . S
Mn392 O418 2.094 . S
Mn393 O398 2.121 . S
Mn393 N400 2.257 . S
Mn393 N409 2.282 . S
Mn393 O417 2.215 . S
Mn393 O419 2.117 . S
C394 O416 1.234 . S
C394 O417 1.283 . S
C395 O407 1.281 . S
C395 O408 1.236 . S
C396 O418 1.240 . S
C396 O419 1.264 . S
O397 Mn392 2.095 . S
O397 C406 1.250 . S
O398 Mn393 2.121 . S
O398 C406 1.258 . S
C399 N400 1.326 . S
C399 C403 1.460 . S
C399 H405 0.929 . S
N400 Mn393 2.257 . S
N400 C399 1.326 . S
N400 C404 1.362 . S
C401 C402 1.258 . S
C401 C404 1.431 . S
C401 C421 1.449 . S
C402 C401 1.258 . S
C402 C403 1.477 . S
C402 H422 0.931 . S
C403 C399 1.460 . S
C403 C402 1.477 . S
C403 H423 0.930 . S
C404 N400 1.362 . S
C404 C401 1.431 . S
C404 C414 1.476 . S
H405 C399 0.929 . S
C406 O397 1.250 . S
C406 O398 1.258 . S
O407 Mn392 2.162 . S
O407 C395 1.281 . S
O408 Mn392 2.297 . S
O408 C395 1.236 . S
N409 Mn393 2.282 . S
N409 C410 1.328 . S
N409 C414 1.318 . S
C410 N409 1.328 . S
C410 C411 1.457 . S
C410 H415 0.929 . S
C411 C410 1.457 . S
C411 C412 1.291 . S
C411 H424 0.931 . S
C412 C411 1.291 . S
C412 C413 1.373 . S
C412 H425 0.929 . S
C413 C412 1.373 . S
C413 C414 1.396 . S
C413 C420 1.403 . S
C414 C404 1.476 . S
C414 N409 1.318 . S
C414 C413 1.396 . S
H415 C410 0.929 . S
O416 Mn392 2.385 . S
O416 C394 1.234 . S
O417 Mn392 2.209 . S
O417 Mn393 2.215 . S
O417 C394 1.283 . S
O418 Mn392 2.094 . S
O418 C396 1.240 . S
O419 Mn393 2.117 . S
O419 C396 1.264 . S
C420 C413 1.403 . S
C420 C421 1.399 . S
C420 H426 0.929 . S
C421 C401 1.449 . S
C421 C420 1.399 . S
C421 H427 0.930 . S
H422 C402 0.931 . S
H423 C403 0.930 . S
H424 C411 0.931 . S
H425 C412 0.929 . S
H426 C420 0.929 . S
H427 C421 0.930 . S
Mn428 O433 2.095 . S
Mn428 O443 2.162 . S
Mn428 O444 2.297 . S
Mn428 O452 2.385 1_565 S
Mn428 O453 2.209 1_565 S
Mn428 O454 2.094 . S
Mn429 O434 2.121 . S
Mn429 N436 2.257 . S
Mn429 N445 2.282 . S
Mn429 O453 2.215 . S
Mn429 O455 2.117 . S
C430 O452 1.234 . S
C430 O453 1.283 . S
C431 O443 1.281 . S
C431 O444 1.236 . S
C432 O454 1.240 1_545 S
C432 O455 1.264 . S
O433 Mn428 2.095 . S
O433 C442 1.250 1_565 S
O434 Mn429 2.121 . S
O434 C442 1.258 . S
C435 N436 1.326 . S
C435 C439 1.460 . S
C435 H441 0.929 . S
N436 Mn429 2.257 . S
N436 C435 1.326 . S
N436 C440 1.362 . S
C437 C438 1.258 . S
C437 C440 1.431 . S
C437 C457 1.449 . S
C438 C437 1.258 . S
C438 C439 1.477 . S
C438 H458 0.931 . S
C439 C435 1.460 . S
C439 C438 1.477 . S
C439 H459 0.930 . S
C440 N436 1.362 . S
C440 C437 1.431 . S
C440 C450 1.476 . S
H441 C435 0.929 . S
C442 O433 1.250 1_545 S
C442 O434 1.258 . S
O443 Mn428 2.162 . S
O443 C431 1.281 . S
O444 Mn428 2.297 . S
O444 C431 1.236 . S
N445 Mn429 2.282 . S
N445 C446 1.328 . S
N445 C450 1.318 . S
C446 N445 1.328 . S
C446 C447 1.457 . S
C446 H451 0.929 . S
C447 C446 1.457 . S
C447 C448 1.291 . S
C447 H460 0.931 . S
C448 C447 1.291 . S
C448 C449 1.373 . S
C448 H461 0.929 . S
C449 C448 1.373 . S
C449 C450 1.396 . S
C449 C456 1.403 . S
C450 C440 1.476 . S
C450 N445 1.318 . S
C450 C449 1.396 . S
H451 C446 0.929 . S
O452 Mn428 2.385 1_545 S
O452 C430 1.234 . S
O453 Mn428 2.209 1_545 S
O453 Mn429 2.215 . S
O453 C430 1.283 . S
O454 Mn428 2.094 . S
O454 C432 1.240 1_565 S
O455 Mn429 2.117 . S
O455 C432 1.264 . S
C456 C449 1.403 . S
C456 C457 1.399 . S
C456 H462 0.929 . S
C457 C437 1.449 . S
C457 C456 1.399 . S
C457 H463 0.930 . S
H458 C438 0.931 . S
H459 C439 0.930 . S
H460 C447 0.931 . S
H461 C448 0.929 . S
H462 C456 0.929 . S
H463 C457 0.930 . S
Mn464 O469 2.095 . S
Mn464 O479 2.162 . S
Mn464 O480 2.297 . S
Mn464 O488 2.385 1_455 S
Mn464 O489 2.209 1_455 S
Mn464 O490 2.094 . S
Mn465 O470 2.121 . S
Mn465 N472 2.257 . S
Mn465 N481 2.282 . S
Mn465 O489 2.215 . S
Mn465 O491 2.117 . S
C466 O488 1.234 . S
C466 O489 1.283 . S
C467 O479 1.281 . S
C467 O480 1.236 . S
C468 O490 1.240 . S
C468 O491 1.264 1_455 S
O469 Mn464 2.095 . S
O469 C478 1.266 . S
O470 Mn465 2.121 . S
O470 C478 1.240 1_655 S
C471 N472 1.326 . S
C471 C475 1.460 . S
C471 H477 0.929 . S
N472 Mn465 2.257 . S
N472 C471 1.326 . S
N472 C476 1.362 . S
C473 C474 1.258 . S
C473 C476 1.431 . S
C473 C493 1.449 . S
C474 C473 1.258 . S
C474 C475 1.477 . S
C474 H494 0.931 . S
C475 C471 1.460 . S
C475 C474 1.477 . S
C475 H495 0.930 . S
C476 N472 1.362 . S
C476 C473 1.431 . S
C476 C486 1.476 . S
H477 C471 0.929 . S
C478 O469 1.266 . S
C478 O470 1.240 1_455 S
O479 Mn464 2.162 . S
O479 C467 1.281 . S
O480 Mn464 2.297 . S
O480 C467 1.236 . S
N481 Mn465 2.282 . S
N481 C482 1.328 . S
N481 C486 1.318 . S
C482 N481 1.328 . S
C482 C483 1.457 . S
C482 H487 0.929 . S
C483 C482 1.457 . S
C483 C484 1.291 . S
C483 H496 0.931 . S
C484 C483 1.291 . S
C484 C485 1.373 . S
C484 H497 0.929 . S
C485 C484 1.373 . S
C485 C486 1.396 . S
C485 C492 1.403 . S
C486 C476 1.476 . S
C486 N481 1.318 . S
C486 C485 1.396 . S
H487 C482 0.929 . S
O488 Mn464 2.385 1_655 S
O488 C466 1.234 . S
O489 Mn464 2.209 1_655 S
O489 Mn465 2.215 . S
O489 C466 1.283 . S
O490 Mn464 2.094 . S
O490 C468 1.240 . S
O491 Mn465 2.117 . S
O491 C468 1.264 1_655 S
C492 C485 1.403 . S
C492 C493 1.399 . S
C492 H498 0.929 . S
C493 C473 1.449 . S
C493 C492 1.399 . S
C493 H499 0.930 . S
H494 C474 0.931 . S
H495 C475 0.930 . S
H496 C483 0.931 . S
H497 C484 0.929 . S
H498 C492 0.929 . S
H499 C493 0.930 . S
Mn500 O505 2.095 . S
Mn500 O515 2.162 . S
Mn500 O516 2.297 . S
Mn500 O524 2.385 . S
Mn500 O525 2.209 . S
Mn500 O526 2.094 . S
Mn501 O506 2.121 . S
Mn501 N508 2.257 . S
Mn501 N517 2.282 . S
Mn501 O525 2.215 . S
Mn501 O527 2.117 . S
C502 O524 1.234 . S
C502 O525 1.283 . S
C503 O515 1.281 . S
C503 O516 1.236 . S
C504 O526 1.240 . S
C504 O527 1.264 . S
O505 Mn500 2.095 . S
O505 C514 1.250 . S
O506 Mn501 2.121 . S
O506 C514 1.258 . S
C507 N508 1.326 . S
C507 C511 1.460 . S
C507 H513 0.929 . S
N508 Mn501 2.257 . S
N508 C507 1.326 . S
N508 C512 1.362 . S
C509 C510 1.258 . S
C509 C512 1.431 . S
C509 C529 1.449 . S
C510 C509 1.258 . S
C510 C511 1.477 . S
C510 H530 0.931 . S
C511 C507 1.460 . S
C511 C510 1.477 . S
C511 H531 0.930 . S
C512 N508 1.362 . S
C512 C509 1.431 . S
C512 C522 1.476 . S
H513 C507 0.929 . S
C514 O505 1.250 . S
C514 O506 1.258 . S
O515 Mn500 2.162 . S
O515 C503 1.281 . S
O516 Mn500 2.297 . S
O516 C503 1.236 . S
N517 Mn501 2.282 . S
N517 C518 1.328 . S
N517 C522 1.318 . S
C518 N517 1.328 . S
C518 C519 1.457 . S
C518 H523 0.929 . S
C519 C518 1.457 . S
C519 C520 1.291 . S
C519 H532 0.931 . S
C520 C519 1.291 . S
C520 C521 1.373 . S
C520 H533 0.929 . S
C521 C520 1.373 . S
C521 C522 1.396 . S
C521 C528 1.403 . S
C522 C512 1.476 . S
C522 N517 1.318 . S
C522 C521 1.396 . S
H523 C518 0.929 . S
O524 Mn500 2.385 . S
O524 C502 1.234 . S
O525 Mn500 2.209 . S
O525 Mn501 2.215 . S
O525 C502 1.283 . S
O526 Mn500 2.094 . S
O526 C504 1.240 . S
O527 Mn501 2.117 . S
O527 C504 1.264 . S
C528 C521 1.403 . S
C528 C529 1.399 . S
C528 H534 0.929 . S
C529 C509 1.449 . S
C529 C528 1.399 . S
C529 H535 0.930 . S
H530 C510 0.931 . S
H531 C511 0.930 . S
H532 C519 0.931 . S
H533 C520 0.929 . S
H534 C528 0.929 . S
H535 C529 0.930 . S
Mn536 O541 2.095 . S
Mn536 O551 2.162 . S
Mn536 O552 2.297 . S
Mn536 O560 2.385 . S
Mn536 O561 2.209 . S
Mn536 O562 2.094 . S
Mn537 O542 2.121 1_455 S
Mn537 N544 2.257 1_455 S
Mn537 N553 2.282 . S
Mn537 O561 2.215 . S
Mn537 O563 2.117 . S
C538 O560 1.234 . S
C538 O561 1.283 . S
C539 O551 1.281 . S
C539 O552 1.236 . S
C540 O562 1.240 . S
C540 O563 1.264 . S
O541 Mn536 2.095 . S
O541 C550 1.250 1_455 S
O542 Mn537 2.121 1_655 S
O542 C550 1.258 . S
C543 N544 1.326 . S
C543 C547 1.460 . S
C543 H549 0.929 . S
N544 Mn537 2.257 1_655 S
N544 C543 1.326 . S
N544 C548 1.362 . S
C545 C546 1.258 . S
C545 C548 1.431 . S
C545 C565 1.449 . S
C546 C545 1.258 . S
C546 C547 1.477 . S
C546 H566 0.931 . S
C547 C543 1.460 . S
C547 C546 1.477 . S
C547 H567 0.930 . S
C548 N544 1.362 . S
C548 C545 1.431 . S
C548 C558 1.476 . S
H549 C543 0.929 . S
C550 O541 1.250 1_655 S
C550 O542 1.258 . S
O551 Mn536 2.162 . S
O551 C539 1.281 . S
O552 Mn536 2.297 . S
O552 C539 1.236 . S
N553 Mn537 2.282 . S
N553 C554 1.328 . S
N553 C558 1.318 1_455 S
C554 N553 1.328 . S
C554 C555 1.457 . S
C554 H559 0.929 . S
C555 C554 1.457 . S
C555 C556 1.291 . S
C555 H568 0.931 . S
C556 C555 1.291 . S
C556 C557 1.373 . S
C556 H569 0.929 . S
C557 C556 1.373 . S
C557 C558 1.396 1_455 S
C557 C564 1.403 1_455 S
C558 C548 1.476 . S
C558 N553 1.318 1_655 S
C558 C557 1.396 1_655 S
H559 C554 0.929 . S
O560 Mn536 2.385 . S
O560 C538 1.234 . S
O561 Mn536 2.209 . S
O561 Mn537 2.215 . S
O561 C538 1.283 . S
O562 Mn536 2.094 . S
O562 C540 1.240 . S
O563 Mn537 2.117 . S
O563 C540 1.264 . S
C564 C557 1.403 1_655 S
C564 C565 1.399 . S
C564 H570 0.929 . S
C565 C545 1.449 . S
C565 C564 1.399 . S
C565 H571 0.930 . S
H566 C546 0.931 . S
H567 C547 0.930 . S
H568 C555 0.931 . S
H569 C556 0.929 . S
H570 C564 0.929 . S
H571 C565 0.930 . S
Mn572 O577 2.095 . S
Mn572 O587 2.162 . S
Mn572 O588 2.297 . S
Mn572 O596 2.385 . S
Mn572 O597 2.209 . S
Mn572 O598 2.094 . S
Mn573 O578 2.121 . S
Mn573 N580 2.257 . S
Mn573 N589 2.282 . S
Mn573 O597 2.215 . S
Mn573 O599 2.117 . S
C574 O596 1.234 . S
C574 O597 1.283 . S
C575 O587 1.281 . S
C575 O588 1.236 . S
C576 O598 1.240 . S
C576 O599 1.264 . S
O577 Mn572 2.095 . S
O577 C586 1.250 . S
O578 Mn573 2.121 . S
O578 C586 1.258 . S
C579 N580 1.326 . S
C579 C583 1.460 . S
C579 H585 0.929 . S
N580 Mn573 2.257 . S
N580 C579 1.326 . S
N580 C584 1.362 . S
C581 C582 1.258 . S
C581 C584 1.431 . S
C581 C601 1.449 . S
C582 C581 1.258 . S
C582 C583 1.477 . S
C582 H602 0.931 . S
C583 C579 1.460 . S
C583 C582 1.477 . S
C583 H603 0.930 . S
C584 N580 1.362 . S
C584 C581 1.431 . S
C584 C594 1.476 . S
H585 C579 0.929 . S
C586 O577 1.250 . S
C586 O578 1.258 . S
O587 Mn572 2.162 . S
O587 C575 1.281 . S
O588 Mn572 2.297 . S
O588 C575 1.236 . S
N589 Mn573 2.282 . S
N589 C590 1.328 . S
N589 C594 1.318 . S
C590 N589 1.328 . S
C590 C591 1.457 . S
C590 H595 0.929 . S
C591 C590 1.457 . S
C591 C592 1.291 . S
C591 H604 0.931 . S
C592 C591 1.291 . S
C592 C593 1.373 . S
C592 H605 0.929 . S
C593 C592 1.373 . S
C593 C594 1.396 . S
C593 C600 1.403 . S
C594 C584 1.476 . S
C594 N589 1.318 . S
C594 C593 1.396 . S
H595 C590 0.929 . S
O596 Mn572 2.385 . S
O596 C574 1.234 . S
O597 Mn572 2.209 . S
O597 Mn573 2.215 . S
O597 C574 1.283 . S
O598 Mn572 2.094 . S
O598 C576 1.240 . S
O599 Mn573 2.117 . S
O599 C576 1.264 . S
C600 C593 1.403 . S
C600 C601 1.399 . S
C600 H606 0.929 . S
C601 C581 1.449 . S
C601 C600 1.399 . S
C601 H607 0.930 . S
H602 C582 0.931 . S
H603 C583 0.930 . S
H604 C591 0.931 . S
H605 C592 0.929 . S
H606 C600 0.929 . S
H607 C601 0.930 . S
C608 C609 1.363 . S
C608 C614 1.379 . S
C608 N616 1.356 . S
C609 C608 1.363 . S
C609 C615 1.363 . S
C610 C611 1.363 . S
C610 C615 1.379 . S
C610 N617 1.356 . S
C611 C610 1.363 . S
C611 C614 1.363 . S
N612 C614 1.356 . S
N612 H624 0.984 . S
N612 H625 0.985 . S
N613 C615 1.356 . S
N613 H618 0.984 . S
N613 H619 0.985 . S
C614 C608 1.379 . S
C614 C611 1.363 . S
C614 N612 1.356 . S
C615 C609 1.363 . S
C615 C610 1.379 . S
C615 N613 1.356 . S
N616 C608 1.356 . S
N616 H622 0.984 . S
N616 H623 0.984 . S
N617 C610 1.356 . S
N617 H620 0.984 . S
N617 H621 0.985 . S
H618 N613 0.984 . S
H619 N613 0.985 . S
H620 N617 0.984 . S
H621 N617 0.985 . S
H622 N616 0.984 . S
H623 N616 0.984 . S
H624 N612 0.984 . S
H625 N612 0.985 . S
C626 C627 1.363 . S
C626 C632 1.379 . S
C626 N634 1.356 . S
C627 C626 1.363 . S
C627 C633 1.363 . S
C628 C629 1.363 . S
C628 C633 1.379 . S
C628 N635 1.356 . S
C629 C628 1.363 . S
C629 C632 1.363 . S
N630 C632 1.356 . S
N630 H642 0.984 . S
N630 H643 0.985 . S
N631 C633 1.356 1_655 S
N631 H636 0.984 . S
N631 H637 0.985 . S
C632 C626 1.379 . S
C632 C629 1.363 . S
C632 N630 1.356 . S
C633 C627 1.363 . S
C633 C628 1.379 . S
C633 N631 1.356 1_455 S
N634 C626 1.356 . S
N634 H640 0.984 . S
N634 H641 0.984 . S
N635 C628 1.356 . S
N635 H638 0.984 . S
N635 H639 0.985 . S
H636 N631 0.984 . S
H637 N631 0.985 . S
H638 N635 0.984 . S
H639 N635 0.985 . S
H640 N634 0.984 . S
H641 N634 0.984 . S
H642 N630 0.984 . S
H643 N630 0.985 . S
C644 C645 1.363 . S
C644 C650 1.379 . S
C644 N652 1.356 . S
C645 C644 1.363 . S
C645 C651 1.363 . S
C646 C647 1.363 . S
C646 C651 1.379 . S
C646 N653 1.356 . S
C647 C646 1.363 . S
C647 C650 1.363 . S
N648 C650 1.356 . S
N648 H660 0.984 . S
N648 H661 0.985 . S
N649 C651 1.356 . S
N649 H654 0.984 . S
N649 H655 0.985 . S
C650 C644 1.379 . S
C650 C647 1.363 . S
C650 N648 1.356 . S
C651 C645 1.363 . S
C651 C646 1.379 . S
C651 N649 1.356 . S
N652 C644 1.356 . S
N652 H658 0.984 . S
N652 H659 0.984 . S
N653 C646 1.356 . S
N653 H656 0.984 . S
N653 H657 0.963 1_556 S
H654 N649 0.984 . S
H655 N649 0.985 . S
H656 N653 0.984 . S
H657 N653 0.963 1_554 S
H658 N652 0.984 . S
H659 N652 0.984 . S
H660 N648 0.984 . S
H661 N648 0.985 . S
C662 C663 1.363 1_565 S
C662 C668 1.379 . S
C662 N670 1.356 . S
C663 C662 1.363 1_545 S
C663 C669 1.363 . S
C664 C665 1.363 . S
C664 C669 1.379 . S
C664 N671 1.356 . S
C665 C664 1.363 . S
C665 C668 1.363 1_545 S
N666 C668 1.356 . S
N666 H678 0.984 . S
N666 H679 0.985 . S
N667 C669 1.356 . S
N667 H672 1.002 . S
N667 H673 0.985 . S
C668 C662 1.379 . S
C668 C665 1.363 1_565 S
C668 N666 1.356 . S
C669 C663 1.363 . S
C669 C664 1.379 . S
C669 N667 1.356 . S
N670 C662 1.356 . S
N670 H676 0.984 . S
N670 H677 0.984 1_655 S
N671 C664 1.356 . S
N671 H674 0.984 . S
N671 H675 0.985 . S
H672 N667 1.002 . S
H673 N667 0.985 . S
H674 N671 0.984 . S
H675 N671 0.985 . S
H676 N670 0.984 . S
H677 N670 0.984 1_455 S
H678 N666 0.984 . S
H679 N666 0.985 . S
C680 C681 1.363 . S
C680 C686 1.379 . S
C680 N688 1.356 . S
C681 C680 1.363 . S
C681 C687 1.363 . S
C682 C683 1.363 . S
C682 C687 1.379 . S
C682 N689 1.356 . S
C683 C682 1.363 . S
C683 C686 1.363 . S
N684 C686 1.356 . S
N684 H696 0.984 . S
N684 H697 0.985 . S
N685 C687 1.356 . S
N685 H690 0.984 . S
N685 H691 0.985 . S
C686 C680 1.379 . S
C686 C683 1.363 . S
C686 N684 1.356 . S
C687 C681 1.363 . S
C687 C682 1.379 . S
C687 N685 1.356 . S
N688 C680 1.356 . S
N688 H694 0.984 . S
N688 H695 0.984 . S
N689 C682 1.356 . S
N689 H692 0.984 . S
N689 H693 0.985 . S
H690 N685 0.984 . S
H691 N685 0.985 . S
H692 N689 0.984 . S
H693 N689 0.985 . S
H694 N688 0.984 . S
H695 N688 0.984 . S
H696 N684 0.984 . S
H697 N684 0.985 . S
C698 C699 1.363 . S
C698 C704 1.379 . S
C698 N706 1.356 . S
C699 C698 1.363 . S
C699 C705 1.363 . S
C700 C701 1.363 . S
C700 C705 1.379 . S
C700 N707 1.356 . S
C701 C700 1.363 . S
C701 C704 1.363 . S
N702 C704 1.356 . S
N702 H714 0.984 . S
N702 H715 0.985 . S
N703 C705 1.356 . S
N703 H708 0.984 . S
N703 H709 0.985 . S
C704 C698 1.379 . S
C704 C701 1.363 . S
C704 N702 1.356 . S
C705 C699 1.363 . S
C705 C700 1.379 . S
C705 N703 1.356 . S
N706 C698 1.356 . S
N706 H712 0.984 . S
N706 H713 0.984 . S
N707 C700 1.356 . S
N707 H710 0.984 . S
N707 H711 0.985 . S
H708 N703 0.984 . S
H709 N703 0.985 . S
H710 N707 0.984 . S
H711 N707 0.985 . S
H712 N706 0.984 . S
H713 N706 0.984 . S
H714 N702 0.984 . S
H715 N702 0.985 . S
C716 C717 1.363 . S
C716 C722 1.379 . S
C716 N724 1.356 . S
C717 C716 1.363 . S
C717 C723 1.363 . S
C718 C719 1.363 . S
C718 C723 1.379 . S
C718 N725 1.356 . S
C719 C718 1.363 . S
C719 C722 1.363 . S
N720 C722 1.356 . S
N720 H732 0.984 . S
N720 H733 0.985 . S
N721 C723 1.356 . S
N721 H726 0.984 . S
N721 H727 0.985 . S
C722 C716 1.379 . S
C722 C719 1.363 . S
C722 N720 1.356 . S
C723 C717 1.363 . S
C723 C718 1.379 . S
C723 N721 1.356 . S
N724 C716 1.356 . S
N724 H730 0.984 . S
N724 H731 0.984 . S
N725 C718 1.356 . S
N725 H728 0.984 . S
N725 H729 0.985 . S
H726 N721 0.984 . S
H727 N721 0.985 . S
H728 N725 0.984 . S
H729 N725 0.985 . S
H730 N724 0.984 . S
H731 N724 0.984 . S
H732 N720 0.984 . S
H733 N720 0.985 . S
C734 C735 1.363 . S
C734 C740 1.379 . S
C734 N742 1.356 . S
C735 C734 1.363 . S
C735 C741 1.363 1_565 S
C736 C737 1.363 1_545 S
C736 C741 1.379 . S
C736 N743 1.356 . S
C737 C736 1.363 1_565 S
C737 C740 1.363 . S
N738 C740 1.356 . S
N738 H750 0.984 . S
N738 H751 0.985 . S
N739 C741 1.356 . S
N739 H744 0.984 . S
N739 H745 0.985 . S
C740 C734 1.379 . S
C740 C737 1.363 . S
C740 N738 1.356 . S
C741 C735 1.363 1_545 S
C741 C736 1.379 . S
C741 N739 1.356 . S
N742 C734 1.356 . S
N742 H748 0.984 . S
N742 H749 0.984 . S
N743 C736 1.356 . S
N743 H746 0.984 . S
N743 H747 0.985 . S
H744 N739 0.984 . S
H745 N739 0.985 . S
H746 N743 0.984 . S
H747 N743 0.985 . S
H748 N742 0.984 . S
H749 N742 0.984 . S
H750 N738 0.984 . S
H751 N738 0.985 . S
C752 C753 1.363 . S
C752 C758 1.379 . S
C752 N760 1.356 . S
C753 C752 1.363 . S
C753 C759 1.363 . S
C754 C755 1.363 . S
C754 C759 1.379 . S
C754 N761 1.356 . S
C755 C754 1.363 . S
C755 C758 1.363 . S
N756 C758 1.356 . S
N756 H768 0.984 . S
N756 H769 0.985 . S
N757 C759 1.356 . S
N757 H762 0.984 . S
N757 H763 0.985 . S
C758 C752 1.379 . S
C758 C755 1.363 . S
C758 N756 1.356 . S
C759 C753 1.363 . S
C759 C754 1.379 . S
C759 N757 1.356 . S
N760 C752 1.356 . S
N760 H766 0.984 . S
N760 H767 0.984 . S
N761 C754 1.356 . S
N761 H764 0.984 . S
N761 H765 0.985 . S
H762 N757 0.984 . S
H763 N757 0.985 . S
H764 N761 0.984 . S
H765 N761 0.985 . S
H766 N760 0.984 . S
H767 N760 0.984 . S
H768 N756 0.984 . S
H769 N756 0.985 . S
C770 C771 1.363 . S
C770 C776 1.379 . S
C770 N778 1.356 . S
C771 C770 1.363 . S
C771 C777 1.363 . S
C772 C773 1.363 . S
C772 C777 1.379 . S
C772 N779 1.356 . S
C773 C772 1.363 . S
C773 C776 1.363 . S
N774 C776 1.356 . S
N774 H786 0.984 . S
N774 H787 0.985 . S
N775 C777 1.356 . S
N775 H780 0.984 . S
N775 H781 0.985 . S
C776 C770 1.379 . S
C776 C773 1.363 . S
C776 N774 1.356 . S
C777 C771 1.363 . S
C777 C772 1.379 . S
C777 N775 1.356 . S
N778 C770 1.356 . S
N778 H784 0.984 . S
N778 H785 0.984 . S
N779 C772 1.356 . S
N779 H782 0.984 . S
N779 H783 0.985 . S
H780 N775 0.984 . S
H781 N775 0.985 . S
H782 N779 0.984 . S
H783 N779 0.985 . S
H784 N778 0.984 . S
H785 N778 0.984 . S
H786 N774 0.984 . S
H787 N774 0.985 . S
C788 C789 1.363 . S
C788 C794 1.379 . S
C788 N796 1.356 . S
C789 C788 1.363 . S
C789 C795 1.363 . S
C790 C791 1.363 . S
C790 C795 1.379 . S
C790 N797 1.356 . S
C791 C790 1.363 . S
C791 C794 1.363 . S
N792 C794 1.356 . S
N792 H804 0.984 . S
N792 H805 0.985 . S
N793 C795 1.356 . S
N793 H798 0.984 . S
N793 H799 0.985 . S
C794 C788 1.379 . S
C794 C791 1.363 . S
C794 N792 1.356 . S
C795 C789 1.363 . S
C795 C790 1.379 . S
C795 N793 1.356 . S
N796 C788 1.356 . S
N796 H802 0.984 . S
N796 H803 0.984 . S
N797 C790 1.356 . S
N797 H800 0.984 . S
N797 H801 0.985 . S
H798 N793 0.984 . S
H799 N793 0.985 . S
H800 N797 0.984 . S
H801 N797 0.985 . S
H802 N796 0.984 . S
H803 N796 0.984 . S
H804 N792 0.984 . S
H805 N792 0.985 . S
C806 C807 1.363 . S
C806 C812 1.379 . S
C806 N814 1.356 . S
C807 C806 1.363 . S
C807 C813 1.363 . S
C808 C809 1.363 . S
C808 C813 1.379 . S
C808 N815 1.356 . S
C809 C808 1.363 . S
C809 C812 1.363 . S
N810 C812 1.356 . S
N810 H822 0.984 . S
N810 H823 0.985 . S
N811 C813 1.356 . S
N811 H816 0.984 . S
N811 H817 0.985 . S
C812 C806 1.379 . S
C812 C809 1.363 . S
C812 N810 1.356 . S
C813 C807 1.363 . S
C813 C808 1.379 . S
C813 N811 1.356 . S
N814 C806 1.356 . S
N814 H820 0.984 . S
N814 H821 0.984 . S
N815 C808 1.356 . S
N815 H818 0.984 . S
N815 H819 0.985 . S
H816 N811 0.984 . S
H817 N811 0.985 . S
H818 N815 0.984 . S
H819 N815 0.985 . S
H820 N814 0.984 . S
H821 N814 0.984 . S
H822 N810 0.984 . S
H823 N810 0.985 . S
C824 C825 1.363 . S
C824 C830 1.379 . S
C824 N832 1.356 . S
C825 C824 1.363 . S
C825 C831 1.363 . S
C826 C827 1.363 . S
C826 C831 1.379 . S
C826 N833 1.356 . S
C827 C826 1.363 . S
C827 C830 1.363 . S
N828 C830 1.356 . S
N828 H840 0.984 . S
N828 H841 0.985 . S
N829 C831 1.356 . S
N829 H834 0.984 . S
N829 H835 0.985 . S
C830 C824 1.379 . S
C830 C827 1.363 . S
C830 N828 1.356 . S
C831 C825 1.363 . S
C831 C826 1.379 . S
C831 N829 1.356 . S
N832 C824 1.356 . S
N832 H838 0.984 . S
N832 H839 0.984 . S
N833 C826 1.356 . S
N833 H836 0.984 . S
N833 H837 0.985 . S
H834 N829 0.984 . S
H835 N829 0.985 . S
H836 N833 0.984 . S
H837 N833 0.985 . S
H838 N832 0.984 . S
H839 N832 0.984 . S
H840 N828 0.984 . S
H841 N828 0.985 . S
C842 C843 1.363 . S
C842 C848 1.379 . S
C842 N850 1.356 . S
C843 C842 1.363 . S
C843 C849 1.363 . S
C844 C845 1.363 . S
C844 C849 1.379 . S
C844 N851 1.356 . S
C845 C844 1.363 . S
C845 C848 1.363 . S
N846 C848 1.356 . S
N846 H858 0.984 1_455 S
N846 H859 0.985 . S
N847 C849 1.356 . S
N847 H852 0.984 . S
N847 H853 0.985 . S
C848 C842 1.379 . S
C848 C845 1.363 . S
C848 N846 1.356 . S
C849 C843 1.363 . S
C849 C844 1.379 . S
C849 N847 1.356 . S
N850 C842 1.356 . S
N850 H856 0.984 1_455 S
N850 H857 0.984 . S
N851 C844 1.356 . S
N851 H854 0.984 . S
N851 H855 0.985 . S
H852 N847 0.984 . S
H853 N847 0.985 . S
H854 N851 0.984 . S
H855 N851 0.985 . S
H856 N850 0.984 1_655 S
H857 N850 0.984 . S
H858 N846 0.984 1_655 S
H859 N846 0.985 . S
C860 C861 1.363 . S
C860 C866 1.379 . S
C860 N868 1.356 . S
C861 C860 1.363 . S
C861 C867 1.363 . S
C862 C863 1.363 . S
C862 C867 1.379 . S
C862 N869 1.356 . S
C863 C862 1.363 . S
C863 C866 1.363 . S
N864 C866 1.356 . S
N864 H876 0.984 . S
N864 H877 0.985 . S
N865 C867 1.356 . S
N865 H870 0.984 . S
N865 H871 0.985 . S
C866 C860 1.379 . S
C866 C863 1.363 . S
C866 N864 1.356 . S
C867 C861 1.363 . S
C867 C862 1.379 . S
C867 N865 1.356 . S
N868 C860 1.356 . S
N868 H874 0.984 . S
N868 H875 0.984 . S
N869 C862 1.356 . S
N869 H872 0.984 . S
N869 H873 0.985 . S
H870 N865 0.984 . S
H871 N865 0.985 . S
H872 N869 0.984 . S
H873 N869 0.985 . S
H874 N868 0.984 . S
H875 N868 0.984 . S
H876 N864 0.984 . S
H877 N864 0.985 . S
C878 C879 1.363 . S
C878 C884 1.379 . S
C878 N886 1.356 . S
C879 C878 1.363 . S
C879 C885 1.363 . S
C880 C881 1.363 . S
C880 C885 1.379 . S
C880 N887 1.356 . S
C881 C880 1.363 . S
C881 C884 1.363 . S
N882 C884 1.356 . S
N882 H894 0.984 . S
N882 H895 0.985 . S
N883 C885 1.356 . S
N883 H888 0.984 . S
N883 H889 0.985 . S
C884 C878 1.379 . S
C884 C881 1.363 . S
C884 N882 1.356 . S
C885 C879 1.363 . S
C885 C880 1.379 . S
C885 N883 1.356 . S
N886 C878 1.356 . S
N886 H892 0.984 . S
N886 H893 0.984 . S
N887 C880 1.356 . S
N887 H890 0.984 . S
N887 H891 0.985 . S
H888 N883 0.984 . S
H889 N883 0.985 . S
H890 N887 0.984 . S
H891 N887 0.985 . S
H892 N886 0.984 . S
H893 N886 0.984 . S
H894 N882 0.984 . S
H895 N882 0.985 . S
C896 C897 1.363 . S
C896 C902 1.379 . S
C896 N904 1.356 . S
C897 C896 1.363 . S
C897 C903 1.363 . S
C898 C899 1.363 . S
C898 C903 1.379 . S
C898 N905 1.356 . S
C899 C898 1.363 . S
C899 C902 1.363 . S
N900 C902 1.356 . S
N900 H912 0.984 . S
N900 H913 0.985 . S
N901 C903 1.356 . S
N901 H906 0.984 . S
N901 H907 0.985 . S
C902 C896 1.379 . S
C902 C899 1.363 . S
C902 N900 1.356 . S
C903 C897 1.363 . S
C903 C898 1.379 . S
C903 N901 1.356 . S
N904 C896 1.356 . S
N904 H910 0.984 . S
N904 H911 0.984 . S
N905 C898 1.356 . S
N905 H908 0.984 . S
N905 H909 0.985 . S
H906 N901 0.984 . S
H907 N901 0.985 . S
H908 N905 0.984 . S
H909 N905 0.985 . S
H910 N904 0.984 . S
H911 N904 0.984 . S
H912 N900 0.984 . S
H913 N900 0.985 . S
C914 C915 1.363 . S
C914 C920 1.379 . S
C914 N922 1.356 . S
C915 C914 1.363 . S
C915 C921 1.363 . S
C916 C917 1.363 . S
C916 C921 1.379 . S
C916 N923 1.356 . S
C917 C916 1.363 . S
C917 C920 1.363 . S
N918 C920 1.356 . S
N918 H930 0.984 . S
N918 H931 0.985 . S
N919 C921 1.356 . S
N919 H924 0.984 . S
N919 H925 0.985 . S
C920 C914 1.379 . S
C920 C917 1.363 . S
C920 N918 1.356 . S
C921 C915 1.363 . S
C921 C916 1.379 . S
C921 N919 1.356 . S
N922 C914 1.356 . S
N922 H928 0.984 . S
N922 H929 0.984 . S
N923 C916 1.356 . S
N923 H926 0.984 . S
N923 H927 0.985 . S
H924 N919 0.984 . S
H925 N919 0.985 . S
H926 N923 0.984 . S
H927 N923 0.985 . S
H928 N922 0.984 . S
H929 N922 0.984 . S
H930 N918 0.984 . S
H931 N918 0.985 . S
C932 C933 1.354 1_556 S
C932 C938 1.379 . S
C932 N940 1.356 . S
C933 C932 1.354 1_554 S
C933 C939 1.375 . S
C934 C935 1.363 . S
C934 C939 1.379 . S
C934 N941 1.356 . S
C935 C934 1.363 . S
C935 C938 1.363 1_554 S
N936 C938 1.356 . S
N936 H948 0.984 . S
N936 H949 0.985 . S
N937 C939 1.356 . S
N937 H942 0.984 . S
N937 H943 0.985 . S
C938 C932 1.379 . S
C938 C935 1.363 1_556 S
C938 N936 1.356 . S
C939 C933 1.375 . S
C939 C934 1.379 . S
C939 N937 1.356 . S
N940 C932 1.356 . S
N940 H946 0.984 . S
N940 H947 0.984 . S
N941 C934 1.356 . S
N941 H944 0.984 . S
N941 H945 0.985 . S
H942 N937 0.984 . S
H943 N937 0.985 . S
H944 N941 0.984 . S
H945 N941 0.985 . S
H946 N940 0.984 . S
H947 N940 0.984 . S
H948 N936 0.984 . S
H949 N936 0.985 . S
C950 C951 1.363 . S
C950 C956 1.379 . S
C950 N958 1.356 . S
C951 C950 1.363 . S
C951 C957 1.363 . S
C952 C953 1.363 . S
C952 C957 1.379 . S
C952 N959 1.356 . S
C953 C952 1.363 . S
C953 C956 1.363 . S
N954 C956 1.356 . S
N954 H966 0.984 . S
N954 H967 0.985 . S
N955 C957 1.356 . S
N955 H960 0.984 . S
N955 H961 0.985 . S
C956 C950 1.379 . S
C956 C953 1.363 . S
C956 N954 1.356 . S
C957 C951 1.363 . S
C957 C952 1.379 . S
C957 N955 1.356 . S
N958 C950 1.356 . S
N958 H964 0.984 . S
N958 H965 0.984 . S
N959 C952 1.356 . S
N959 H962 0.984 . S
N959 H963 0.985 . S
H960 N955 0.984 . S
H961 N955 0.985 . S
H962 N959 0.984 . S
H963 N959 0.985 . S
H964 N958 0.984 . S
H965 N958 0.984 . S
H966 N954 0.984 . S
H967 N954 0.985 . S
C968 C969 1.363 . S
C968 C974 1.379 . S
C968 N976 1.356 . S
C969 C968 1.363 . S
C969 C975 1.363 . S
C970 C971 1.363 . S
C970 C975 1.379 . S
C970 N977 1.356 . S
C971 C970 1.363 . S
C971 C974 1.363 . S
N972 C974 1.356 . S
N972 H984 0.984 . S
N972 H985 0.985 . S
N973 C975 1.356 . S
N973 H978 0.984 . S
N973 H979 0.985 . S
C974 C968 1.379 . S
C974 C971 1.363 . S
C974 N972 1.356 . S
C975 C969 1.363 . S
C975 C970 1.379 . S
C975 N973 1.356 . S
N976 C968 1.356 . S
N976 H982 0.984 . S
N976 H983 0.984 . S
N977 C970 1.356 . S
N977 H980 0.984 . S
N977 H981 0.985 . S
H978 N973 0.984 . S
H979 N973 0.985 . S
H980 N977 0.984 . S
H981 N977 0.985 . S
H982 N976 0.984 . S
H983 N976 0.984 . S
H984 N972 0.984 . S
H985 N972 0.985 . S
C986 C987 1.363 . S
C986 C992 1.379 . S
C986 N994 1.356 . S
C987 C986 1.363 . S
C987 C993 1.363 . S
C988 C989 1.363 . S
C988 C993 1.379 . S
C988 N995 1.356 . S
C989 C988 1.363 . S
C989 C992 1.363 . S
N990 C992 1.356 . S
N990 H1002 0.984 . S
N990 H1003 0.985 . S
N991 C993 1.356 . S
N991 H996 0.984 . S
N991 H997 0.985 . S
C992 C986 1.379 . S
C992 C989 1.363 . S
C992 N990 1.356 . S
C993 C987 1.363 . S
C993 C988 1.379 . S
C993 N991 1.356 . S
N994 C986 1.356 . S
N994 H1000 0.984 . S
N994 H1001 0.984 . S
N995 C988 1.356 . S
N995 H998 0.984 . S
N995 H999 0.985 . S
H996 N991 0.984 . S
H997 N991 0.985 . S
H998 N995 0.984 . S
H999 N995 0.985 . S
H1000 N994 0.984 . S
H1001 N994 0.984 . S
H1002 N990 0.984 . S
H1003 N990 0.985 . S
C1004 C1005 1.363 . S
C1004 C1010 1.379 . S
C1004 N1012 1.356 . S
C1005 C1004 1.363 . S
C1005 C1011 1.363 . S
C1006 C1007 1.363 . S
C1006 C1011 1.379 . S
C1006 N1013 1.356 . S
C1007 C1006 1.363 . S
C1007 C1010 1.363 . S
N1008 C1010 1.356 . S
N1008 H1020 0.984 . S
N1008 H1021 0.985 . S
N1009 C1011 1.356 . S
N1009 H1014 0.984 . S
N1009 H1015 0.985 . S
C1010 C1004 1.379 . S
C1010 C1007 1.363 . S
C1010 N1008 1.356 . S
C1011 C1005 1.363 . S
C1011 C1006 1.379 . S
C1011 N1009 1.356 . S
N1012 C1004 1.356 . S
N1012 H1018 0.984 . S
N1012 H1019 0.984 . S
N1013 C1006 1.356 . S
N1013 H1016 0.984 . S
N1013 H1017 0.985 . S
H1014 N1009 0.984 . S
H1015 N1009 0.985 . S
H1016 N1013 0.984 . S
H1017 N1013 0.985 . S
H1018 N1012 0.984 . S
H1019 N1012 0.984 . S
H1020 N1008 0.984 . S
H1021 N1008 0.985 . S
C1022 C1023 1.363 . S
C1022 C1028 1.379 . S
C1022 N1030 1.356 . S
C1023 C1022 1.363 . S
C1023 C1029 1.363 . S
C1024 C1025 1.363 . S
C1024 C1029 1.379 . S
C1024 N1031 1.356 . S
C1025 C1024 1.363 . S
C1025 C1028 1.363 . S
N1026 C1028 1.356 . S
N1026 H1038 0.984 . S
N1026 H1039 0.985 . S
N1027 C1029 1.356 . S
N1027 H1032 0.984 . S
N1027 H1033 0.985 . S
C1028 C1022 1.379 . S
C1028 C1025 1.363 . S
C1028 N1026 1.356 . S
C1029 C1023 1.363 . S
C1029 C1024 1.379 . S
C1029 N1027 1.356 . S
N1030 C1022 1.356 . S
N1030 H1036 0.984 . S
N1030 H1037 0.984 . S
N1031 C1024 1.356 . S
N1031 H1034 0.984 . S
N1031 H1035 0.985 . S
H1032 N1027 0.984 . S
H1033 N1027 0.985 . S
H1034 N1031 0.984 . S
H1035 N1031 0.985 . S
H1036 N1030 0.984 . S
H1037 N1030 0.984 . S
H1038 N1026 0.984 . S
H1039 N1026 0.985 . S
C1040 C1041 1.363 . S
C1040 C1046 1.379 . S
C1040 N1048 1.356 . S
C1041 C1040 1.363 . S
C1041 C1047 1.363 . S
C1042 C1043 1.363 . S
C1042 C1047 1.379 . S
C1042 N1049 1.356 . S
C1043 C1042 1.363 . S
C1043 C1046 1.363 . S
N1044 C1046 1.356 . S
N1044 H1056 0.984 . S
N1044 H1057 0.985 . S
N1045 C1047 1.356 . S
N1045 H1050 0.984 . S
N1045 H1051 0.985 . S
C1046 C1040 1.379 . S
C1046 C1043 1.363 . S
C1046 N1044 1.356 . S
C1047 C1041 1.363 . S
C1047 C1042 1.379 . S
C1047 N1045 1.356 . S
N1048 C1040 1.356 . S
N1048 H1054 0.984 . S
N1048 H1055 0.984 . S
N1049 C1042 1.356 . S
N1049 H1052 0.984 . S
N1049 H1053 0.985 . S
H1050 N1045 0.984 . S
H1051 N1045 0.985 . S
H1052 N1049 0.984 . S
H1053 N1049 0.985 . S
H1054 N1048 0.984 . S
H1055 N1048 0.984 . S
H1056 N1044 0.984 . S
H1057 N1044 0.985 . S
C1058 C1059 1.363 . S
C1058 C1064 1.379 . S
C1058 N1066 1.356 . S
C1059 C1058 1.363 . S
C1059 C1065 1.363 . S
C1060 C1061 1.363 . S
C1060 C1065 1.379 . S
C1060 N1067 1.356 1_545 S
C1061 C1060 1.363 . S
C1061 C1064 1.363 . S
N1062 C1064 1.356 . S
N1062 H1074 0.984 . S
N1062 H1075 0.985 . S
N1063 C1065 1.356 . S
N1063 H1068 0.984 . S
N1063 H1069 0.985 1_545 S
C1064 C1058 1.379 . S
C1064 C1061 1.363 . S
C1064 N1062 1.356 . S
C1065 C1059 1.363 . S
C1065 C1060 1.379 . S
C1065 N1063 1.356 . S
N1066 C1058 1.356 . S
N1066 H1072 0.984 . S
N1066 H1073 0.984 . S
N1067 C1060 1.356 1_565 S
N1067 H1070 0.984 . S
N1067 H1071 0.985 . S
H1068 N1063 0.984 . S
H1069 N1063 0.985 1_565 S
H1070 N1067 0.984 . S
H1071 N1067 0.985 . S
H1072 N1066 0.984 . S
H1073 N1066 0.984 . S
H1074 N1062 0.984 . S
H1075 N1062 0.985 . S
C1076 C1077 1.363 . S
C1076 C1082 1.379 . S
C1076 N1084 1.356 . S
C1077 C1076 1.363 . S
C1077 C1083 1.363 . S
C1078 C1079 1.363 . S
C1078 C1083 1.379 . S
C1078 N1085 1.356 . S
C1079 C1078 1.363 . S
C1079 C1082 1.363 . S
N1080 C1082 1.356 . S
N1080 H1092 0.984 . S
N1080 H1093 0.985 . S
N1081 C1083 1.356 . S
N1081 H1086 0.984 . S
N1081 H1087 0.985 . S
C1082 C1076 1.379 . S
C1082 C1079 1.363 . S
C1082 N1080 1.356 . S
C1083 C1077 1.363 . S
C1083 C1078 1.379 . S
C1083 N1081 1.356 . S
N1084 C1076 1.356 . S
N1084 H1090 0.984 . S
N1084 H1091 0.984 . S
N1085 C1078 1.356 . S
N1085 H1088 0.984 . S
N1085 H1089 0.985 . S
H1086 N1081 0.984 . S
H1087 N1081 0.985 . S
H1088 N1085 0.984 . S
H1089 N1085 0.985 . S
H1090 N1084 0.984 . S
H1091 N1084 0.984 . S
H1092 N1080 0.984 . S
H1093 N1080 0.985 . S
C1094 C1095 1.363 . S
C1094 C1100 1.379 . S
C1094 N1102 1.356 . S
C1095 C1094 1.363 . S
C1095 C1101 1.363 . S
C1096 C1097 1.363 . S
C1096 C1101 1.379 . S
C1096 N1103 1.356 . S
C1097 C1096 1.363 . S
C1097 C1100 1.363 . S
N1098 C1100 1.356 . S
N1098 H1110 0.984 . S
N1098 H1111 0.985 . S
N1099 C1101 1.356 . S
N1099 H1104 0.984 . S
N1099 H1105 0.985 . S
C1100 C1094 1.379 . S
C1100 C1097 1.363 . S
C1100 N1098 1.356 . S
C1101 C1095 1.363 . S
C1101 C1096 1.379 . S
C1101 N1099 1.356 . S
N1102 C1094 1.356 . S
N1102 H1108 0.984 . S
N1102 H1109 0.984 . S
N1103 C1096 1.356 . S
N1103 H1106 0.984 . S
N1103 H1107 0.985 . S
H1104 N1099 0.984 . S
H1105 N1099 0.985 . S
H1106 N1103 0.984 . S
H1107 N1103 0.985 . S
H1108 N1102 0.984 . S
H1109 N1102 0.984 . S
H1110 N1098 0.984 . S
H1111 N1098 0.985 . S
C1112 C1113 1.363 . S
C1112 C1118 1.379 . S
C1112 N1120 1.356 . S
C1113 C1112 1.363 . S
C1113 C1119 1.363 . S
C1114 C1115 1.363 . S
C1114 C1119 1.379 . S
C1114 N1121 1.356 . S
C1115 C1114 1.363 . S
C1115 C1118 1.363 . S
N1116 C1118 1.356 . S
N1116 H1128 0.984 . S
N1116 H1129 0.985 . S
N1117 C1119 1.356 . S
N1117 H1122 0.984 . S
N1117 H1123 0.985 . S
C1118 C1112 1.379 . S
C1118 C1115 1.363 . S
C1118 N1116 1.356 . S
C1119 C1113 1.363 . S
C1119 C1114 1.379 . S
C1119 N1117 1.356 . S
N1120 C1112 1.356 . S
N1120 H1126 0.984 . S
N1120 H1127 0.984 . S
N1121 C1114 1.356 . S
N1121 H1124 0.984 . S
N1121 H1125 0.985 . S
H1122 N1117 0.984 . S
H1123 N1117 0.985 . S
H1124 N1121 0.984 . S
H1125 N1121 0.985 . S
H1126 N1120 0.984 . S
H1127 N1120 0.984 . S
H1128 N1116 0.984 . S
H1129 N1116 0.985 . S
C1130 C1131 1.363 . S
C1130 C1136 1.379 . S
C1130 N1138 1.356 1_545 S
C1131 C1130 1.363 . S
C1131 C1137 1.363 . S
C1132 C1133 1.363 . S
C1132 C1137 1.379 . S
C1132 N1139 1.356 . S
C1133 C1132 1.363 . S
C1133 C1136 1.363 . S
N1134 C1136 1.356 1_565 S
N1134 H1146 0.984 . S
N1134 H1147 0.985 . S
N1135 C1137 1.356 . S
N1135 H1140 0.984 . S
N1135 H1141 0.985 . S
C1136 C1130 1.379 . S
C1136 C1133 1.363 . S
C1136 N1134 1.356 1_545 S
C1137 C1131 1.363 . S
C1137 C1132 1.379 . S
C1137 N1135 1.356 . S
N1138 C1130 1.356 1_565 S
N1138 H1144 0.984 . S
N1138 H1145 0.984 1_565 S
N1139 C1132 1.356 . S
N1139 H1142 0.984 . S
N1139 H1143 0.985 . S
H1140 N1135 0.984 . S
H1141 N1135 0.985 . S
H1142 N1139 0.984 . S
H1143 N1139 0.985 . S
H1144 N1138 0.984 . S
H1145 N1138 0.984 1_545 S
H1146 N1134 0.984 . S
H1147 N1134 0.985 . S
C1148 C1149 1.363 . S
C1148 C1154 1.379 . S
C1148 N1156 1.356 . S
C1149 C1148 1.363 . S
C1149 C1155 1.363 . S
C1150 C1151 1.363 . S
C1150 C1155 1.379 . S
C1150 N1157 1.356 . S
C1151 C1150 1.363 . S
C1151 C1154 1.363 . S
N1152 C1154 1.356 . S
N1152 H1164 0.984 . S
N1152 H1165 0.985 . S
N1153 C1155 1.356 . S
N1153 H1158 0.984 . S
N1153 H1159 0.985 . S
C1154 C1148 1.379 . S
C1154 C1151 1.363 . S
C1154 N1152 1.356 . S
C1155 C1149 1.363 . S
C1155 C1150 1.379 . S
C1155 N1153 1.356 . S
N1156 C1148 1.356 . S
N1156 H1162 0.984 . S
N1156 H1163 0.984 . S
N1157 C1150 1.356 . S
N1157 H1160 0.984 . S
N1157 H1161 0.985 . S
H1158 N1153 0.984 . S
H1159 N1153 0.985 . S
H1160 N1157 0.984 . S
H1161 N1157 0.985 . S
H1162 N1156 0.984 . S
H1163 N1156 0.984 . S
H1164 N1152 0.984 . S
H1165 N1152 0.985 . S
C1166 C1167 1.363 . S
C1166 C1172 1.379 . S
C1166 N1174 1.356 1_455 S
C1167 C1166 1.363 . S
C1167 C1173 1.363 . S
C1168 C1169 1.363 . S
C1168 C1173 1.379 . S
C1168 N1175 1.356 . S
C1169 C1168 1.363 . S
C1169 C1172 1.363 . S
N1170 C1172 1.356 . S
N1170 H1182 0.984 . S
N1170 H1183 0.985 . S
N1171 C1173 1.356 . S
N1171 H1176 0.984 . S
N1171 H1177 0.985 . S
C1172 C1166 1.379 . S
C1172 C1169 1.363 . S
C1172 N1170 1.356 . S
C1173 C1167 1.363 . S
C1173 C1168 1.379 . S
C1173 N1171 1.356 . S
N1174 C1166 1.356 1_655 S
N1174 H1180 0.984 . S
N1174 H1181 0.984 . S
N1175 C1168 1.356 . S
N1175 H1178 0.984 . S
N1175 H1179 0.985 . S
H1176 N1171 0.984 . S
H1177 N1171 0.985 . S
H1178 N1175 0.984 . S
H1179 N1175 0.985 . S
H1180 N1174 0.984 . S
H1181 N1174 0.984 . S
H1182 N1170 0.984 . S
H1183 N1170 0.985 . S
C1184 C1185 1.363 . S
C1184 C1190 1.379 . S
C1184 N1192 1.356 . S
C1185 C1184 1.363 . S
C1185 C1191 1.363 . S
C1186 C1187 1.363 . S
C1186 C1191 1.379 . S
C1186 N1193 1.356 . S
C1187 C1186 1.363 . S
C1187 C1190 1.363 . S
N1188 C1190 1.356 . S
N1188 H1200 0.984 . S
N1188 H1201 0.985 . S
N1189 C1191 1.356 . S
N1189 H1194 0.984 . S
N1189 H1195 0.985 . S
C1190 C1184 1.379 . S
C1190 C1187 1.363 . S
C1190 N1188 1.356 . S
C1191 C1185 1.363 . S
C1191 C1186 1.379 . S
C1191 N1189 1.356 . S
N1192 C1184 1.356 . S
N1192 H1198 0.984 . S
N1192 H1199 0.984 . S
N1193 C1186 1.356 . S
N1193 H1196 0.984 . S
N1193 H1197 0.985 . S
H1194 N1189 0.984 . S
H1195 N1189 0.985 . S
H1196 N1193 0.984 . S
H1197 N1193 0.985 . S
H1198 N1192 0.984 . S
H1199 N1192 0.984 . S
H1200 N1188 0.984 . S
H1201 N1188 0.985 . S
C1202 C1203 1.363 1_556 S
C1202 C1208 1.379 . S
C1202 N1210 1.356 . S
C1203 C1202 1.363 1_554 S
C1203 C1209 1.363 1_655 S
C1204 C1205 1.363 1_554 S
C1204 C1209 1.379 . S
C1204 N1211 1.356 . S
C1205 C1204 1.363 1_556 S
C1205 C1208 1.363 1_455 S
N1206 C1208 1.356 . S
N1206 H1218 0.984 . S
N1206 H1219 0.985 . S
N1207 C1209 1.356 . S
N1207 H1212 0.984 1_455 S
N1207 H1213 0.985 . S
C1208 C1202 1.379 . S
C1208 C1205 1.363 1_655 S
C1208 N1206 1.356 . S
C1209 C1203 1.363 1_455 S
C1209 C1204 1.379 . S
C1209 N1207 1.356 . S
N1210 C1202 1.356 . S
N1210 H1216 0.984 . S
N1210 H1217 1.007 . S
N1211 C1204 1.356 . S
N1211 H1214 0.984 . S
N1211 H1215 0.985 . S
H1212 N1207 0.984 1_655 S
H1213 N1207 0.985 . S
H1214 N1211 0.984 . S
H1215 N1211 0.985 . S
H1216 N1210 0.984 . S
H1217 N1210 1.007 . S
H1218 N1206 0.984 . S
H1219 N1206 0.985 . S
C1220 C1221 1.363 . S
C1220 C1226 1.379 . S
C1220 N1228 1.356 . S
C1221 C1220 1.363 . S
C1221 C1227 1.363 . S
C1222 C1223 1.363 . S
C1222 C1227 1.379 . S
C1222 N1229 1.356 . S
C1223 C1222 1.363 . S
C1223 C1226 1.363 . S
N1224 C1226 1.356 . S
N1224 H1236 0.984 . S
N1224 H1237 0.985 . S
N1225 C1227 1.356 . S
N1225 H1230 0.984 . S
N1225 H1231 0.985 . S
C1226 C1220 1.379 . S
C1226 C1223 1.363 . S
C1226 N1224 1.356 . S
C1227 C1221 1.363 . S
C1227 C1222 1.379 . S
C1227 N1225 1.356 . S
N1228 C1220 1.356 . S
N1228 H1234 0.984 . S
N1228 H1235 0.984 . S
N1229 C1222 1.356 . S
N1229 H1232 0.984 . S
N1229 H1233 0.985 . S
H1230 N1225 0.984 . S
H1231 N1225 0.985 . S
H1232 N1229 0.984 . S
H1233 N1229 0.985 . S
H1234 N1228 0.984 . S
H1235 N1228 0.984 . S
H1236 N1224 0.984 . S
H1237 N1224 0.985 . S
C1238 C1239 1.363 1_556 S
C1238 C1244 1.379 . S
C1238 N1246 1.356 . S
C1239 C1238 1.363 1_554 S
C1239 C1245 1.363 1_455 S
C1240 C1241 1.386 1_655 S
C1240 C1245 1.365 1_556 S
C1240 N1247 1.355 . S
C1241 C1240 1.386 1_455 S
C1241 C1244 1.363 . S
N1242 C1244 1.356 . S
N1242 H1254 0.984 . S
N1242 H1255 0.985 . S
N1243 C1245 1.356 . S
N1243 H1248 0.984 . S
N1243 H1249 0.985 . S
C1244 C1238 1.379 . S
C1244 C1241 1.363 . S
C1244 N1242 1.356 . S
C1245 C1239 1.363 1_655 S
C1245 C1240 1.365 1_554 S
C1245 N1243 1.356 . S
N1246 C1238 1.356 . S
N1246 H1252 0.984 . S
N1246 H1253 0.984 . S
N1247 C1240 1.355 . S
N1247 H1250 0.988 . S
N1247 H1251 0.980 1_556 S
H1248 N1243 0.984 . S
H1249 N1243 0.985 . S
H1250 N1247 0.988 . S
H1251 N1247 0.980 1_554 S
H1252 N1246 0.984 . S
H1253 N1246 0.984 . S
H1254 N1242 0.984 . S
H1255 N1242 0.985 . S
C1256 C1257 1.363 . S
C1256 C1262 1.379 . S
C1256 N1264 1.356 . S
C1257 C1256 1.363 . S
C1257 C1263 1.363 . S
C1258 C1259 1.363 . S
C1258 C1263 1.379 . S
C1258 N1265 1.356 . S
C1259 C1258 1.363 . S
C1259 C1262 1.363 . S
N1260 C1262 1.356 . S
N1260 H1272 0.984 . S
N1260 H1273 0.985 . S
N1261 C1263 1.356 . S
N1261 H1266 0.984 . S
N1261 H1267 0.985 . S
C1262 C1256 1.379 . S
C1262 C1259 1.363 . S
C1262 N1260 1.356 . S
C1263 C1257 1.363 . S
C1263 C1258 1.379 . S
C1263 N1261 1.356 . S
N1264 C1256 1.356 . S
N1264 H1270 0.984 . S
N1264 H1271 0.984 . S
N1265 C1258 1.356 . S
N1265 H1268 0.984 . S
N1265 H1269 0.985 . S
H1266 N1261 0.984 . S
H1267 N1261 0.985 . S
H1268 N1265 0.984 . S
H1269 N1265 0.985 . S
H1270 N1264 0.984 . S
H1271 N1264 0.984 . S
H1272 N1260 0.984 . S
H1273 N1260 0.985 . S
C1274 C1275 1.363 . S
C1274 C1280 1.379 . S
C1274 N1282 1.356 . S
C1275 C1274 1.363 . S
C1275 C1281 1.363 . S
C1276 C1277 1.363 . S
C1276 C1281 1.379 . S
C1276 N1283 1.356 . S
C1277 C1276 1.363 . S
C1277 C1280 1.363 . S
N1278 C1280 1.356 . S
N1278 H1290 0.984 . S
N1278 H1291 0.985 . S
N1279 C1281 1.356 . S
N1279 H1284 0.984 . S
N1279 H1285 0.985 . S
C1280 C1274 1.379 . S
C1280 C1277 1.363 . S
C1280 N1278 1.356 . S
C1281 C1275 1.363 . S
C1281 C1276 1.379 . S
C1281 N1279 1.356 . S
N1282 C1274 1.356 . S
N1282 H1288 0.984 . S
N1282 H1289 0.984 . S
N1283 C1276 1.356 . S
N1283 H1286 0.984 . S
N1283 H1287 0.985 . S
H1284 N1279 0.984 . S
H1285 N1279 0.985 . S
H1286 N1283 0.984 . S
H1287 N1283 0.985 . S
H1288 N1282 0.984 . S
H1289 N1282 0.984 . S
H1290 N1278 0.984 . S
H1291 N1278 0.985 . S
C1292 C1293 1.363 . S
C1292 C1298 1.379 . S
C1292 N1300 1.356 . S
C1293 C1292 1.363 . S
C1293 C1299 1.363 . S
C1294 C1295 1.363 . S
C1294 C1299 1.379 . S
C1294 N1301 1.356 . S
C1295 C1294 1.363 . S
C1295 C1298 1.363 . S
N1296 C1298 1.356 . S
N1296 H1308 0.984 . S
N1296 H1309 0.985 . S
N1297 C1299 1.356 . S
N1297 H1302 0.984 . S
N1297 H1303 0.985 . S
C1298 C1292 1.379 . S
C1298 C1295 1.363 . S
C1298 N1296 1.356 . S
C1299 C1293 1.363 . S
C1299 C1294 1.379 . S
C1299 N1297 1.356 . S
N1300 C1292 1.356 . S
N1300 H1306 0.984 . S
N1300 H1307 0.984 . S
N1301 C1294 1.356 . S
N1301 H1304 0.984 . S
N1301 H1305 0.985 . S
H1302 N1297 0.984 . S
H1303 N1297 0.985 . S
H1304 N1301 0.984 . S
H1305 N1301 0.985 . S
H1306 N1300 0.984 . S
H1307 N1300 0.984 . S
H1308 N1296 0.984 . S
H1309 N1296 0.985 . S
C1310 C1311 1.363 . S
C1310 C1316 1.379 . S
C1310 N1318 1.356 . S
C1311 C1310 1.363 . S
C1311 C1317 1.363 . S
C1312 C1313 1.363 . S
C1312 C1317 1.379 . S
C1312 N1319 1.356 . S
C1313 C1312 1.363 . S
C1313 C1316 1.363 . S
N1314 C1316 1.356 . S
N1314 H1326 0.984 . S
N1314 H1327 0.985 . S
N1315 C1317 1.356 . S
N1315 H1320 0.984 . S
N1315 H1321 0.985 . S
C1316 C1310 1.379 . S
C1316 C1313 1.363 . S
C1316 N1314 1.356 . S
C1317 C1311 1.363 . S
C1317 C1312 1.379 . S
C1317 N1315 1.356 . S
N1318 C1310 1.356 . S
N1318 H1324 0.984 . S
N1318 H1325 0.984 . S
N1319 C1312 1.356 . S
N1319 H1322 0.984 . S
N1319 H1323 0.985 . S
H1320 N1315 0.984 . S
H1321 N1315 0.985 . S
H1322 N1319 0.984 . S
H1323 N1319 0.985 . S
H1324 N1318 0.984 . S
H1325 N1318 0.984 . S
H1326 N1314 0.984 . S
H1327 N1314 0.985 . S
C1328 C1329 1.363 . S
C1328 C1334 1.379 . S
C1328 N1336 1.356 . S
C1329 C1328 1.363 . S
C1329 C1335 1.363 . S
C1330 C1331 1.363 . S
C1330 C1335 1.379 . S
C1330 N1337 1.356 . S
C1331 C1330 1.363 . S
C1331 C1334 1.363 . S
N1332 C1334 1.356 . S
N1332 H1344 0.984 . S
N1332 H1345 0.985 . S
N1333 C1335 1.356 . S
N1333 H1338 0.984 . S
N1333 H1339 0.985 . S
C1334 C1328 1.379 . S
C1334 C1331 1.363 . S
C1334 N1332 1.356 . S
C1335 C1329 1.363 . S
C1335 C1330 1.379 . S
C1335 N1333 1.356 . S
N1336 C1328 1.356 . S
N1336 H1342 0.984 . S
N1336 H1343 0.984 . S
N1337 C1330 1.356 . S
N1337 H1340 0.984 . S
N1337 H1341 0.985 . S
H1338 N1333 0.984 . S
H1339 N1333 0.985 . S
H1340 N1337 0.984 . S
H1341 N1337 0.985 . S
H1342 N1336 0.984 . S
H1343 N1336 0.984 . S
H1344 N1332 0.984 . S
H1345 N1332 0.985 . S
C1346 C1347 1.363 . S
C1346 C1352 1.379 . S
C1346 N1354 1.356 . S
C1347 C1346 1.363 . S
C1347 C1353 1.363 . S
C1348 C1349 1.363 . S
C1348 C1353 1.379 . S
C1348 N1355 1.356 . S
C1349 C1348 1.363 . S
C1349 C1352 1.363 . S
N1350 C1352 1.356 . S
N1350 H1362 0.984 . S
N1350 H1363 0.985 . S
N1351 C1353 1.356 . S
N1351 H1356 0.984 . S
N1351 H1357 0.985 . S
C1352 C1346 1.379 . S
C1352 C1349 1.363 . S
C1352 N1350 1.356 . S
C1353 C1347 1.363 . S
C1353 C1348 1.379 . S
C1353 N1351 1.356 . S
N1354 C1346 1.356 . S
N1354 H1360 0.984 . S
N1354 H1361 0.984 . S
N1355 C1348 1.356 . S
N1355 H1358 0.984 . S
N1355 H1359 0.985 . S
H1356 N1351 0.984 . S
H1357 N1351 0.985 . S
H1358 N1355 0.984 . S
H1359 N1355 0.985 . S
H1360 N1354 0.984 . S
H1361 N1354 0.984 . S
H1362 N1350 0.984 . S
H1363 N1350 0.985 . S
C1364 C1365 1.363 . S
C1364 C1370 1.379 . S
C1364 N1372 1.356 . S
C1365 C1364 1.363 . S
C1365 C1371 1.363 . S
C1366 C1367 1.363 . S
C1366 C1371 1.379 . S
C1366 N1373 1.356 . S
C1367 C1366 1.363 . S
C1367 C1370 1.363 . S
N1368 C1370 1.356 . S
N1368 H1380 0.984 . S
N1368 H1381 0.985 . S
N1369 C1371 1.356 . S
N1369 H1374 0.984 . S
N1369 H1375 0.985 . S
C1370 C1364 1.379 . S
C1370 C1367 1.363 . S
C1370 N1368 1.356 . S
C1371 C1365 1.363 . S
C1371 C1366 1.379 . S
C1371 N1369 1.356 . S
N1372 C1364 1.356 . S
N1372 H1378 0.984 . S
N1372 H1379 0.984 . S
N1373 C1366 1.356 . S
N1373 H1376 0.984 . S
N1373 H1377 0.985 . S
H1374 N1369 0.984 . S
H1375 N1369 0.985 . S
H1376 N1373 0.984 . S
H1377 N1373 0.985 . S
H1378 N1372 0.984 . S
H1379 N1372 0.984 . S
H1380 N1368 0.984 . S
H1381 N1368 0.985 . S
C1382 C1383 1.363 . S
C1382 C1388 1.379 . S
C1382 N1390 1.356 . S
C1383 C1382 1.363 . S
C1383 C1389 1.363 . S
C1384 C1385 1.363 . S
C1384 C1389 1.379 . S
C1384 N1391 1.356 . S
C1385 C1384 1.363 . S
C1385 C1388 1.363 . S
N1386 C1388 1.356 . S
N1386 H1398 0.984 . S
N1386 H1399 0.985 . S
N1387 C1389 1.356 . S
N1387 H1392 0.984 . S
N1387 H1393 0.985 . S
C1388 C1382 1.379 . S
C1388 C1385 1.363 . S
C1388 N1386 1.356 . S
C1389 C1383 1.363 . S
C1389 C1384 1.379 . S
C1389 N1387 1.356 . S
N1390 C1382 1.356 . S
N1390 H1396 0.984 . S
N1390 H1397 0.984 . S
N1391 C1384 1.356 . S
N1391 H1394 0.984 . S
N1391 H1395 0.985 . S
H1392 N1387 0.984 . S
H1393 N1387 0.985 . S
H1394 N1391 0.984 . S
H1395 N1391 0.985 . S
H1396 N1390 0.984 . S
H1397 N1390 0.984 . S
H1398 N1386 0.984 . S
H1399 N1386 0.985 . S
C1400 C1401 1.363 1_554 S
C1400 C1406 1.379 . S
C1400 N1408 1.356 . S
C1401 C1400 1.363 1_556 S
C1401 C1407 1.363 . S
C1402 C1403 1.363 . S
C1402 C1407 1.379 . S
C1402 N1409 1.356 . S
C1403 C1402 1.363 . S
C1403 C1406 1.363 1_556 S
N1404 C1406 1.356 . S
N1404 H1416 0.984 . S
N1404 H1417 0.985 . S
N1405 C1407 1.356 . S
N1405 H1410 0.984 . S
N1405 H1411 0.985 . S
C1406 C1400 1.379 . S
C1406 C1403 1.363 1_554 S
C1406 N1404 1.356 . S
C1407 C1401 1.363 . S
C1407 C1402 1.379 . S
C1407 N1405 1.356 . S
N1408 C1400 1.356 . S
N1408 H1414 0.984 . S
N1408 H1415 0.984 . S
N1409 C1402 1.356 . S
N1409 H1412 0.984 . S
N1409 H1413 0.985 . S
H1410 N1405 0.984 . S
H1411 N1405 0.985 . S
H1412 N1409 0.984 . S
H1413 N1409 0.985 . S
H1414 N1408 0.984 . S
H1415 N1408 0.984 . S
H1416 N1404 0.984 . S
H1417 N1404 0.985 . S
C1418 C1419 1.363 . S
C1418 C1424 1.379 . S
C1418 N1426 1.356 . S
C1419 C1418 1.363 . S
C1419 C1425 1.363 . S
C1420 C1421 1.363 . S
C1420 C1425 1.379 . S
C1420 N1427 1.356 . S
C1421 C1420 1.363 . S
C1421 C1424 1.363 . S
N1422 C1424 1.356 . S
N1422 H1434 0.984 . S
N1422 H1435 0.985 . S
N1423 C1425 1.356 . S
N1423 H1428 0.984 . S
N1423 H1429 0.985 . S
C1424 C1418 1.379 . S
C1424 C1421 1.363 . S
C1424 N1422 1.356 . S
C1425 C1419 1.363 . S
C1425 C1420 1.379 . S
C1425 N1423 1.356 . S
N1426 C1418 1.356 . S
N1426 H1432 0.984 . S
N1426 H1433 0.984 . S
N1427 C1420 1.356 . S
N1427 H1430 0.984 . S
N1427 H1431 0.985 . S
H1428 N1423 0.984 . S
H1429 N1423 0.985 . S
H1430 N1427 0.984 . S
H1431 N1427 0.985 . S
H1432 N1426 0.984 . S
H1433 N1426 0.984 . S
H1434 N1422 0.984 . S
H1435 N1422 0.985 . S
C1436 C1437 1.363 . S
C1436 C1442 1.379 . S
C1436 N1444 1.356 . S
C1437 C1436 1.363 . S
C1437 C1443 1.363 . S
C1438 C1439 1.363 . S
C1438 C1443 1.379 . S
C1438 N1445 1.356 1_554 S
C1439 C1438 1.363 . S
C1439 C1442 1.363 . S
N1440 C1442 1.356 . S
N1440 H1452 0.984 . S
N1440 H1453 0.985 . S
N1441 C1443 1.356 . S
N1441 H1446 0.984 . S
N1441 H1447 0.985 . S
C1442 C1436 1.379 . S
C1442 C1439 1.363 . S
C1442 N1440 1.356 . S
C1443 C1437 1.363 . S
C1443 C1438 1.379 . S
C1443 N1441 1.356 . S
N1444 C1436 1.356 . S
N1444 H1450 0.984 . S
N1444 H1451 0.984 . S
N1445 C1438 1.356 1_556 S
N1445 H1448 0.984 . S
N1445 H1449 0.985 . S
H1446 N1441 0.984 . S
H1447 N1441 0.985 . S
H1448 N1445 0.984 . S
H1449 N1445 0.985 . S
H1450 N1444 0.984 . S
H1451 N1444 0.984 . S
H1452 N1440 0.984 . S
H1453 N1440 0.985 . S
C1454 C1455 1.363 1_556 S
C1454 C1460 1.379 . S
C1454 N1462 1.356 . S
C1455 C1454 1.363 1_554 S
C1455 C1461 1.363 . S
C1456 C1457 1.363 . S
C1456 C1461 1.379 . S
C1456 N1463 1.356 . S
C1457 C1456 1.363 . S
C1457 C1460 1.363 1_554 S
N1458 C1460 1.356 . S
N1458 H1470 0.984 . S
N1458 H1471 0.985 . S
N1459 C1461 1.356 . S
N1459 H1464 0.984 . S
N1459 H1465 0.985 . S
C1460 C1454 1.379 . S
C1460 C1457 1.363 1_556 S
C1460 N1458 1.356 . S
C1461 C1455 1.363 . S
C1461 C1456 1.379 . S
C1461 N1459 1.356 . S
N1462 C1454 1.356 . S
N1462 H1468 0.984 . S
N1462 H1469 0.984 . S
N1463 C1456 1.356 . S
N1463 H1466 0.984 . S
N1463 H1467 0.985 . S
H1464 N1459 0.984 . S
H1465 N1459 0.985 . S
H1466 N1463 0.984 . S
H1467 N1463 0.985 . S
H1468 N1462 0.984 . S
H1469 N1462 0.984 . S
H1470 N1458 0.984 . S
H1471 N1458 0.985 . S
C611 C178 1.252 . S
C609 C62 1.282 . S
C629 C226 1.586 . S
C627 C73 1.588 . S
C645 C84 1.416 . S
C647 C262 1.438 . S
C665 C298 1.371 . S
C663 C49 1.260 . S
C683 C324 1.405 . S
C681 C118 1.369 . S
C701 C360 1.656 . S
C699 C137 1.405 . S
C717 C129 1.545 . S
C719 C395 1.547 . S
C737 C432 1.871 1_565 S
C735 C106 1.828 . S
C753 C128 1.700 . S
C755 C466 1.714 . S
C773 C514 1.630 . S
C771 C104 1.493 . S
C789 C115 1.416 . S
C791 C467 1.763 . S
C809 C504 1.800 . S
C807 C139 1.739 . S
C825 C85 1.525 . S
C827 C550 1.473 . S
C843 C52 1.328 . S
C845 C539 1.327 . S
C861 C60 1.217 . S
C863 C540 1.199 . S
C879 C71 1.573 . S
C881 C538 1.692 . S
C897 C40 1.538 . S
C899 C286 1.684 . S
C915 C162 1.303 . S
C917 C287 1.306 . S
C935 C190 1.295 . S
C933 C173 1.325 . S
C953 C215 1.685 . S
C951 C93 1.439 . S
C969 C51 1.502 . S
C971 C322 1.529 . S
C989 C430 1.516 . S
C987 C126 1.456 . S
C1007 C323 1.764 . S
C1005 C107 1.765 . S
C1025 C396 1.683 . S
C1023 C140 1.664 . S
C1043 C394 1.252 . S
C1041 C161 1.283 . S
C1059 C172 1.588 . S
C1061 C442 1.582 . S
C1077 C95 1.416 . S
C1079 C334 1.438 . S
C1097 C370 1.371 . S
C1095 C148 1.260 . S
C1113 C41 1.369 . S
C1115 C252 1.405 . S
C1133 C288 1.656 . S
C1131 C5 1.405 . S
C1151 C179 1.547 . S
C1149 C19 1.545 . S
C1169 C216 1.871 . S
C1167 C29 1.828 1_455 S
C1185 C18 1.700 . S
C1187 C502 1.714 . S
C1203 C27 1.493 . S
C1205 C478 1.627 . S
C1221 C38 1.416 . S
C1223 C503 1.763 . S
C1239 C7 1.739 . S
C1241 C468 1.800 . S
C1259 C586 1.473 . S
C1257 C96 1.525 . S
C1277 C575 1.327 . S
C1275 C151 1.327 . S
C1295 C576 1.199 . S
C1293 C159 1.217 . S
C1311 C170 1.573 . S
C1313 C574 1.695 . S
C1329 C117 1.538 . S
C1331 C358 1.684 . S
C1349 C359 1.306 . S
C1347 C63 1.303 . S
C1367 C406 1.295 . S
C1365 C74 1.324 . S
C1385 C431 1.685 . S
C1383 C82 1.439 . S
C1401 C150 1.502 . S
C1403 C250 1.529 . S
C1421 C214 1.516 . S
C1419 C16 1.456 . S
C1437 C30 1.765 . S
C1439 C251 1.764 . S
C1457 C180 1.683 . S
C1455 C8 1.664 . S
