# Generated by pormake.
# Topology rtl, (3,6)-cn, num edge types: 1
# Building blocks:
#     Node 0, Type 0, BuildingBlock: OLANEW_clean_sbu_2, # of connection points: 3
#     Node 1, Type 0, BuildingBlock: OLANEW_clean_sbu_2, # of connection points: 3
#     Node 2, Type 0, BuildingBlock: OLANEW_clean_sbu_2, # of connection points: 3
#     Node 3, Type 0, BuildingBlock: OLANEW_clean_sbu_2, # of connection points: 3
#     Node 4, Type 1, BuildingBlock: FUNLAD_clean_sbu_0, # of connection points: 6
#     Node 5, Type 1, BuildingBlock: FUNLAD_clean_sbu_0, # of connection points: 6
#     Edge 6, Type (0, 1), BuildingBlock: TEMPAE_clean_linker_10, # of connection points: 2
#     Edge 7, Type (0, 1), BuildingBlock: TEMPAE_clean_linker_10, # of connection points: 2
#     Edge 8, Type (0, 1), BuildingBlock: TEMPAE_clean_linker_10, # of connection points: 2
#     Edge 9, Type (0, 1), BuildingBlock: TEMPAE_clean_linker_10, # of connection points: 2
#     Edge 10, Type (0, 1), BuildingBlock: TEMPAE_clean_linker_10, # of connection points: 2
#     Edge 11, Type (0, 1), BuildingBlock: TEMPAE_clean_linker_10, # of connection points: 2
#     Edge 12, Type (0, 1), BuildingBlock: TEMPAE_clean_linker_10, # of connection points: 2
#     Edge 13, Type (0, 1), BuildingBlock: TEMPAE_clean_linker_10, # of connection points: 2
#     Edge 14, Type (0, 1), BuildingBlock: TEMPAE_clean_linker_10, # of connection points: 2
#     Edge 15, Type (0, 1), BuildingBlock: TEMPAE_clean_linker_10, # of connection points: 2
#     Edge 16, Type (0, 1), BuildingBlock: TEMPAE_clean_linker_10, # of connection points: 2
#     Edge 17, Type (0, 1), BuildingBlock: TEMPAE_clean_linker_10, # of connection points: 2
# Relax obj value: 0.013
# Max RMSD: 0.078
# Mean RMSD: 0.051
data_MOF--net-rtl--node1-OLANEW_clean_sbu_2--node2-FUNLAD_clean_sbu_0--edge1-TEMPAE_clean_linker_10
_symmetry_space_group_name_H-M    P1
_symmetry_Int_Tables_number       1
_symmetry_cell_setting            triclinic
loop_
_symmetry_equiv_pos_as_xyz
'x, y, z'
_cell_length_a     43.862264
_cell_length_b     41.312807
_cell_length_c     22.802828
_cell_angle_alpha  87.015852
_cell_angle_beta   93.81329
_cell_angle_gamma 90.031483
loop_
_atom_site_label
_atom_site_type_symbol
_atom_site_fract_x
_atom_site_fract_y
_atom_site_fract_z
_atom_type_partial_charge
O0 O 0.14153 0.81197 0.00087 0.0
Cd1 Cd 0.16886 0.78799 0.08997 0.0
O2 O 0.17907 0.84581 0.98388 0.0
Cd3 Cd 0.19421 0.8406 0.07689 0.0
O4 O 0.17428 0.85399 0.15764 0.0
C5 C 0.14755 0.86593 0.14852 0.0
O6 O 0.13534 0.86829 0.09425 0.0
C7 C 0.15374 0.83311 0.96732 0.0
C8 C 0.21697 0.7476 0.06468 0.0
O9 O 0.19074 0.73587 0.07538 0.0
O10 O 0.22044 0.77836 0.06566 0.0
O11 O 0.63757 0.71985 0.64451 0.0
Cd12 Cd 0.65007 0.75553 0.56046 0.0
O13 O 0.65473 0.67646 0.60527 0.0
Cd14 Cd 0.66485 0.70042 0.52164 0.0
O15 O 0.64667 0.68704 0.43521 0.0
C16 C 0.62366 0.66853 0.43927 0.0
O17 O 0.61388 0.66161 0.4917 0.0
C18 C 0.64249 0.68946 0.64721 0.0
C19 C 0.70827 0.78286 0.56863 0.0
O20 O 0.68562 0.79643 0.59044 0.0
O21 O 0.70352 0.75596 0.54401 0.0
O22 O 0.84012 0.17859 0.13616 0.0
Cd23 Cd 0.81575 0.20134 0.0433 0.0
O24 O 0.88499 0.19497 0.10868 0.0
Cd25 Cd 0.86913 0.20935 0.01871 0.0
O26 O 0.87702 0.18517 0.93854 0.0
C27 C 0.8909 0.15832 0.94976 0.0
O28 O 0.89757 0.14894 0.00508 0.0
C29 C 0.86883 0.18119 0.14692 0.0
C30 C 0.76998 0.24706 0.05347 0.0
O31 O 0.76339 0.21724 0.04611 0.0
O32 O 0.79824 0.25511 0.05732 0.0
O33 O 0.37218 0.29769 0.64598 0.0
Cd34 Cd 0.35801 0.262 0.56648 0.0
O35 O 0.357 0.34076 0.59096 0.0
Cd36 Cd 0.3426 0.31695 0.51096 0.0
O37 O 0.35216 0.34064 0.42697 0.0
C38 C 0.36445 0.32765 0.38513 0.0
O39 O 0.36983 0.2963 0.38859 0.0
C40 C 0.36882 0.32824 0.63922 0.0
C41 C 0.30215 0.23066 0.57597 0.0
O42 O 0.32687 0.21844 0.60095 0.0
O43 O 0.30379 0.25808 0.54735 0.0
C44 C 0.03632 0.96839 0.4653 0.0
N45 N 0.06338 0.0502 0.55747 0.0
C46 C 0.09222 0.03836 0.5556 0.0
C47 C 0.11723 0.05923 0.55761 0.0
C48 C 0.11259 0.09262 0.56195 0.0
C49 C 0.08262 0.1042 0.56419 0.0
C50 C 0.0582 0.08246 0.56165 0.0
Zn51 Zn 0.02762 0.01848 0.55407 0.0
C52 C 0.97797 0.04045 0.46681 0.0
N53 N 0.95391 0.95083 0.54577 0.0
C54 C 0.95851 0.91818 0.55003 0.0
C55 C 0.92522 0.96362 0.54173 0.0
C56 C 0.89975 0.94341 0.54194 0.0
C57 C 0.90378 0.90968 0.54704 0.0
C58 C 0.93361 0.89703 0.55111 0.0
Zn59 Zn 0.99003 0.98224 0.54848 0.0
O60 O 0.04764 0.9939 0.48675 0.0
C61 C 0.03957 0.96072 0.63657 0.0
O62 O 0.0114 0.95722 0.48339 0.0
H63 H 0.92202 0.98961 0.53911 0.0
H64 H 0.09586 0.01263 0.55266 0.0
H65 H 0.9815 0.90852 0.55317 0.0
O66 O 0.05095 0.98757 0.61928 0.0
O67 O 0.01365 0.95208 0.61455 0.0
H68 H 0.03509 0.09138 0.56291 0.0
O69 O 0.96917 0.00802 0.6144 0.0
O70 O 0.00725 0.04236 0.62006 0.0
O71 O 0.9672 0.01289 0.48168 0.0
O72 O 0.0035 0.04932 0.49024 0.0
C73 C 0.98161 0.03274 0.63681 0.0
H74 H 0.14002 0.04928 0.55654 0.0
H75 H 0.07807 0.12982 0.56706 0.0
H76 H 0.87713 0.95411 0.53951 0.0
H77 H 0.9376 0.87112 0.55479 0.0
C78 C 0.47323 0.47503 0.92849 0.0
N79 N 0.55634 0.4611 0.0291 0.0
C80 C 0.55002 0.42888 0.03539 0.0
C81 C 0.57363 0.40608 0.04123 0.0
C82 C 0.60399 0.41649 0.03941 0.0
C83 C 0.60996 0.44977 0.03225 0.0
C84 C 0.58566 0.47183 0.02773 0.0
Zn85 Zn 0.52074 0.49347 0.02138 0.0
C86 C 0.53122 0.54837 0.93528 0.0
N87 N 0.44518 0.55976 0.00393 0.0
C88 C 0.41613 0.54841 0.99573 0.0
C89 C 0.45062 0.59176 0.01168 0.0
C90 C 0.42634 0.61347 0.01351 0.0
C91 C 0.3962 0.60226 0.00623 0.0
C92 C 0.39119 0.56941 0.99618 0.0
Zn93 Zn 0.48113 0.52771 0.01038 0.0
O94 O 0.49911 0.46675 0.95315 0.0
C95 C 0.47081 0.47292 0.09657 0.0
O96 O 0.46034 0.50067 0.94305 0.0
H97 H 0.47384 0.60038 0.01779 0.0
H98 H 0.52659 0.42077 0.0357 0.0
H99 H 0.41222 0.52286 0.9903 0.0
O100 O 0.4976 0.46532 0.08428 0.0
O101 O 0.45824 0.49836 0.07234 0.0
H102 H 0.59024 0.49752 0.02307 0.0
O103 O 0.50278 0.55397 0.07903 0.0
O104 O 0.54162 0.52024 0.08908 0.0
O105 O 0.5045 0.55643 0.94768 0.0
O106 O 0.54335 0.52259 0.95916 0.0
C107 C 0.52848 0.54558 0.10431 0.0
H108 H 0.56821 0.38054 0.0461 0.0
H109 H 0.63318 0.4586 0.0309 0.0
H110 H 0.43104 0.63873 0.02096 0.0
H111 H 0.36823 0.55986 0.99088 0.0
C112 C 0.27109 0.18389 0.61236 0.0
C113 C 0.27284 0.21294 0.57808 0.0
C114 C 0.24408 0.16567 0.61175 0.0
C115 C 0.21824 0.17667 0.57572 0.0
C116 C 0.21957 0.20639 0.5422 0.0
C117 C 0.24685 0.22423 0.54392 0.0
C118 C 0.24345 0.13421 0.64847 0.0
C119 C 0.1925 0.21885 0.50315 0.0
C120 C 0.1623 0.11204 0.5256 0.0
C121 C 0.13898 0.1151 0.56414 0.0
C122 C 0.18794 0.13233 0.52829 0.0
C123 C 0.19041 0.15615 0.57078 0.0
C124 C 0.16675 0.15968 0.6093 0.0
C125 C 0.14124 0.13916 0.60539 0.0
C126 C 0.21255 0.12801 0.48604 0.0
C127 C 0.16868 0.18469 0.65538 0.0
H128 H 0.29102 0.17507 0.63911 0.0
H129 H 0.248 0.24667 0.51732 0.0
H130 H 0.22389 0.13409 0.67694 0.0
H131 H 0.24019 0.11365 0.61927 0.0
H132 H 0.26484 0.13003 0.67677 0.0
H133 H 0.19669 0.24324 0.48239 0.0
H134 H 0.18722 0.20182 0.46784 0.0
H135 H 0.17199 0.22014 0.52889 0.0
H136 H 0.16042 0.09379 0.49309 0.0
H137 H 0.12338 0.14141 0.63559 0.0
H138 H 0.2344 0.12122 0.51092 0.0
H139 H 0.2164 0.15118 0.46083 0.0
H140 H 0.20668 0.10903 0.45444 0.0
H141 H 0.18875 0.17952 0.6867 0.0
H142 H 0.14786 0.1851 0.68056 0.0
H143 H 0.17202 0.20916 0.63444 0.0
C144 C 0.26814 0.73907 0.02539 0.0
C145 C 0.2427 0.72625 0.05259 0.0
C146 C 0.29299 0.71924 0.01483 0.0
C147 C 0.29267 0.68596 0.03307 0.0
C148 C 0.267 0.67287 0.06039 0.0
C149 C 0.24217 0.69311 0.06925 0.0
C150 C 0.31967 0.73395 0.98451 0.0
C151 C 0.26603 0.63764 0.08144 0.0
C152 C 0.34587 0.62648 0.96859 0.0
C153 C 0.3701 0.62437 0.01189 0.0
C154 C 0.32075 0.6469 0.97432 0.0
C155 C 0.31958 0.66501 0.02521 0.0
C156 C 0.34399 0.66282 0.06914 0.0
C157 C 0.36911 0.64277 0.06164 0.0
C158 C 0.29549 0.64911 0.92596 0.0
C159 C 0.34336 0.68122 0.12456 0.0
H160 H 0.26857 0.76462 0.01203 0.0
H161 H 0.22264 0.68311 0.09055 0.0
H162 H 0.34059 0.73226 0.01464 0.0
H163 H 0.32414 0.72027 0.94536 0.0
H164 H 0.31568 0.75982 0.97028 0.0
H165 H 0.2443 0.63119 0.10152 0.0
H166 H 0.26882 0.6219 0.04422 0.0
H167 H 0.2853 0.6322 0.11453 0.0
H168 H 0.34675 0.61236 0.92996 0.0
H169 H 0.3877 0.64083 0.09544 0.0
H170 H 0.2921 0.67472 0.90965 0.0
H171 H 0.27368 0.64068 0.9434 0.0
H172 H 0.30039 0.63437 0.88829 0.0
H173 H 0.34162 0.70763 0.11328 0.0
H174 H 0.36404 0.67663 0.15468 0.0
H175 H 0.3229 0.67419 0.14834 0.0
C176 C 0.76205 0.78609 0.53807 0.0
C177 C 0.73868 0.79856 0.56959 0.0
C178 C 0.79019 0.80212 0.53502 0.0
C179 C 0.79513 0.83116 0.56451 0.0
C180 C 0.77199 0.8433 0.59792 0.0
C181 C 0.74401 0.82692 0.59988 0.0
C182 C 0.81427 0.78851 0.49876 0.0
C183 C 0.77649 0.87407 0.63039 0.0
C184 C 0.87578 0.86311 0.59322 0.0
C185 C 0.87684 0.88805 0.54929 0.0
C186 C 0.84948 0.84402 0.59829 0.0
C187 C 0.82383 0.84985 0.55805 0.0
C188 C 0.82515 0.8744 0.51259 0.0
C189 C 0.85158 0.8933 0.50896 0.0
C190 C 0.84882 0.81826 0.64764 0.0
C191 C 0.79843 0.88109 0.46837 0.0
H192 H 0.75811 0.76419 0.51452 0.0
H193 H 0.72614 0.83663 0.62455 0.0
H194 H 0.81847 0.80581 0.46132 0.0
H195 H 0.83618 0.78534 0.52566 0.0
H196 H 0.80749 0.76482 0.48105 0.0
H197 H 0.75699 0.87922 0.65719 0.0
H198 H 0.79768 0.87237 0.6598 0.0
H199 H 0.77922 0.89488 0.59843 0.0
H200 H 0.89519 0.85921 0.6248 0.0
H201 H 0.8525 0.91234 0.47456 0.0
H202 H 0.84274 0.79448 0.62975 0.0
H203 H 0.83097 0.82428 0.67762 0.0
H204 H 0.87109 0.81585 0.67369 0.0
H205 H 0.79171 0.85858 0.4464 0.0
H206 H 0.80365 0.90004 0.43415 0.0
H207 H 0.77843 0.88916 0.49122 0.0
C208 C 0.75208 0.30163 0.07955 0.0
C209 C 0.74565 0.27169 0.05527 0.0
C210 C 0.72941 0.32562 0.07965 0.0
C211 C 0.69985 0.31976 0.05359 0.0
C212 C 0.69324 0.28956 0.02906 0.0
C213 C 0.71614 0.26574 0.03082 0.0
C214 C 0.73712 0.35725 0.10739 0.0
C215 C 0.66217 0.28263 -0.00013 0.0
C216 C 0.63175 0.3695 0.09157 0.0
C217 C 0.62922 0.39256 0.04423 0.0
C218 C 0.6551 0.34612 0.09594 0.0
C219 C 0.67591 0.34538 0.05113 0.0
C220 C 0.67342 0.36869 0.00322 0.0
C221 C 0.65026 0.39227 0.00071 0.0
C222 C 0.65743 0.32214 0.14832 0.0
C223 C 0.69477 0.36829 0.95397 0.0
H224 H 0.77483 0.30627 0.09877 0.0
H225 H 0.71112 0.24272 0.01158 0.0
H226 H 0.73467 0.37756 0.07362 0.0
H227 H 0.72092 0.36189 0.1414 0.0
H228 H 0.76077 0.35744 0.12811 0.0
H229 H 0.66079 0.25799 0.98257 0.0
H230 H 0.64431 0.28492 0.03164 0.0
H231 H 0.65682 0.30071 0.96289 0.0
H232 H 0.61554 0.36995 0.12541 0.0
H233 H 0.64808 0.40998 0.96387 0.0
H234 H 0.68065 0.32292 0.17071 0.0
H235 H 0.65385 0.29719 0.1335 0.0
H236 H 0.64039 0.32699 0.18074 0.0
H237 H 0.71877 0.37063 0.97179 0.0
H238 H 0.68978 0.38814 0.91993 0.0
H239 H 0.69288 0.34477 0.93264 0.0
C240 C 0.14271 0.87497 0.25563 0.0
C241 C 0.13075 0.87835 0.19703 0.0
C242 C 0.12724 0.88784 0.30125 0.0
C243 C 0.09932 0.90469 0.28779 0.0
C244 C 0.08693 0.90771 0.22888 0.0
C245 C 0.10271 0.89441 0.18432 0.0
C246 C 0.14099 0.88389 0.36368 0.0
C247 C 0.05733 0.92569 0.21264 0.0
C248 C 0.04509 0.91987 0.40695 0.0
C249 C 0.05239 0.95185 0.4202 0.0
C250 C 0.06064 0.90391 0.36486 0.0
C251 C 0.08367 0.92052 0.33472 0.0
C252 C 0.09107 0.95282 0.34789 0.0
C253 C 0.07552 0.96799 0.39076 0.0
C254 C 0.05239 0.86933 0.35252 0.0
C255 C 0.11515 0.97154 0.31609 0.0
H256 H 0.16428 0.86247 0.26586 0.0
H257 H 0.09324 0.89713 0.13921 0.0
H258 H 0.14697 0.908 0.38032 0.0
H259 H 0.1241 0.87282 0.39276 0.0
H260 H 0.16191 0.86856 0.36727 0.0
H261 H 0.0503 0.92502 0.165 0.0
H262 H 0.03876 0.91508 0.23818 0.0
H263 H 0.05981 0.95138 0.22406 0.0
H264 H 0.02742 0.90718 0.42992 0.0
H265 H 0.08124 0.99274 0.40066 0.0
H266 H 0.07303 0.8537 0.35898 0.0
H267 H 0.0436 0.8679 0.30598 0.0
H268 H 0.03479 0.85942 0.38135 0.0
H269 H 0.13732 0.95849 0.32206 0.0
H270 H 0.1184 0.99637 0.33191 0.0
H271 H 0.10863 0.97347 0.26817 0.0
C272 C 0.6244 0.63577 0.68563 0.0
C273 C 0.63043 0.66854 0.69496 0.0
C274 C 0.60916 0.61632 0.72646 0.0
C275 C 0.60038 0.62972 0.77866 0.0
C276 C 0.60766 0.66235 0.78972 0.0
C277 C 0.62227 0.68154 0.74732 0.0
C278 C 0.60135 0.58182 0.71251 0.0
C279 C 0.59938 0.67718 0.84568 0.0
C280 C 0.53366 0.5904 0.85284 0.0
C281 C 0.54873 0.56941 0.89547 0.0
C282 C 0.55022 0.61029 0.81464 0.0
C283 C 0.58259 0.60977 0.82041 0.0
C284 C 0.59789 0.58918 0.86438 0.0
C285 C 0.58077 0.56891 0.90087 0.0
C286 C 0.53309 0.63136 0.76734 0.0
C287 C 0.63234 0.5885 0.87278 0.0
H288 H 0.63036 0.62561 0.64502 0.0
H289 H 0.62695 0.70681 0.75481 0.0
H290 H 0.61076 0.56478 0.74835 0.0
H291 H 0.57616 0.57873 0.70942 0.0
H292 H 0.61032 0.57491 0.67047 0.0
H293 H 0.60888 0.70195 0.84982 0.0
H294 H 0.57417 0.67857 0.84669 0.0
H295 H 0.60794 0.66171 0.88453 0.0
H296 H 0.50889 0.59077 0.84856 0.0
H297 H 0.5925 0.55299 0.93435 0.0
H298 H 0.53968 0.62473 0.72336 0.0
H299 H 0.53929 0.65716 0.77218 0.0
H300 H 0.50792 0.62895 0.76877 0.0
H301 H 0.64216 0.57978 0.83287 0.0
H302 H 0.64064 0.57253 0.91123 0.0
H303 H 0.64116 0.61335 0.87903 0.0
C304 C 0.86777 0.15426 0.24815 0.0
C305 C 0.88423 0.16473 0.20006 0.0
C306 C 0.88198 0.13566 0.29571 0.0
C307 C 0.91307 0.12667 0.29418 0.0
C308 C 0.9299 0.13776 0.24631 0.0
C309 C 0.91539 0.15697 0.2003 0.0
C310 C 0.86357 0.12502 0.34688 0.0
C311 C 0.96292 0.12819 0.24238 0.0
C312 C 0.96209 0.09599 0.42905 0.0
C313 C 0.96058 0.06237 0.42383 0.0
C314 C 0.94551 0.11721 0.38875 0.0
C315 C 0.92791 0.10448 0.34103 0.0
C316 C 0.92624 0.07048 0.33578 0.0
C317 C 0.94221 0.04979 0.3779 0.0
C318 C 0.94709 0.15322 0.39685 0.0
C319 C 0.90844 0.056 0.28459 0.0
H320 H 0.84372 0.16026 0.24828 0.0
H321 H 0.92825 0.16471 0.16309 0.0
H322 H 0.86054 0.09835 0.348 0.0
H323 H 0.8759 0.13099 0.389 0.0
H324 H 0.84063 0.13661 0.34409 0.0
H325 H 0.97287 0.13922 0.2025 0.0
H326 H 0.97686 0.13567 0.28172 0.0
H327 H 0.96477 0.10143 0.24149 0.0
H328 H 0.97595 0.10569 0.46517 0.0
H329 H 0.94109 0.02377 0.37391 0.0
H330 H 0.92371 0.16361 0.39547 0.0
H331 H 0.95893 0.16539 0.36032 0.0
H332 H 0.95945 0.15897 0.43914 0.0
H333 H 0.88427 0.06404 0.2826 0.0
H334 H 0.90906 0.02907 0.28749 0.0
H335 H 0.918 0.06465 0.24273 0.0
C336 C 0.38741 0.33841 0.74312 0.0
C337 C 0.38148 0.3498 0.6845 0.0
C338 C 0.40127 0.35852 0.78499 0.0
C339 C 0.41009 0.39036 0.76724 0.0
C340 C 0.40399 0.40197 0.7082 0.0
C341 C 0.38943 0.3817 0.66778 0.0
C342 C 0.40674 0.34565 0.84798 0.0
C343 C 0.41362 0.43551 0.68725 0.0
C344 C 0.42534 0.45499 0.87768 0.0
C345 C 0.45728 0.45383 0.88633 0.0
C346 C 0.4096 0.4338 0.84032 0.0
C347 C 0.42629 0.4115 0.80985 0.0
C348 C 0.45858 0.41041 0.81805 0.0
C349 C 0.47368 0.43135 0.85681 0.0
C350 C 0.37514 0.43524 0.83357 0.0
C351 C 0.47719 0.38746 0.78526 0.0
H352 H 0.38123 0.3138 0.75622 0.0
H353 H 0.38523 0.39056 0.62237 0.0
H354 H 0.43163 0.34445 0.86018 0.0
H355 H 0.39657 0.36232 0.878 0.0
H356 H 0.3969 0.32111 0.85536 0.0
H357 H 0.40721 0.44081 0.63977 0.0
H358 H 0.40295 0.45406 0.71284 0.0
H359 H 0.43875 0.43803 0.6947 0.0
H360 H 0.41255 0.47202 0.90113 0.0
H361 H 0.49837 0.43039 0.86348 0.0
H362 H 0.36547 0.41092 0.84383 0.0
H363 H 0.36751 0.44233 0.78735 0.0
H364 H 0.36553 0.4528 0.86274 0.0
H365 H 0.4702 0.36208 0.79531 0.0
H366 H 0.5021 0.38963 0.79663 0.0
H367 H 0.47285 0.39241 0.73712 0.0
C368 C 0.61967 0.65954 0.33103 0.0
C369 C 0.60917 0.65321 0.38725 0.0
C370 C 0.60686 0.64365 0.28229 0.0
C371 C 0.58316 0.62086 0.29021 0.0
C372 C 0.57217 0.61481 0.34665 0.0
C373 C 0.58525 0.63111 0.3944 0.0
C374 C 0.61896 0.65084 0.22256 0.0
C375 C 0.54698 0.59061 0.35689 0.0
C376 C 0.53063 0.5955 0.16191 0.0
C377 C 0.54303 0.56533 0.15059 0.0
C378 C 0.54401 0.61433 0.2061 0.0
C379 C 0.57025 0.60257 0.24004 0.0
C380 C 0.58313 0.57237 0.22827 0.0
C381 C 0.56943 0.55416 0.18352 0.0
C382 C 0.52977 0.64653 0.21715 0.0
C383 C 0.61098 0.55893 0.26388 0.0
H384 H 0.63811 0.67663 0.32517 0.0
H385 H 0.57695 0.62608 0.43765 0.0
H386 H 0.62921 0.6286 0.20686 0.0
H387 H 0.59999 0.65839 0.19012 0.0
H388 H 0.63653 0.67022 0.22331 0.0
H389 H 0.54062 0.5892 0.40331 0.0
H390 H 0.52635 0.59722 0.32799 0.0
H391 H 0.55434 0.56617 0.34537 0.0
H392 H 0.51038 0.60443 0.1363 0.0
H393 H 0.57919 0.53091 0.17493 0.0
H394 H 0.54716 0.66601 0.2154 0.0
H395 H 0.52119 0.64571 0.26189 0.0
H396 H 0.51047 0.65306 0.18465 0.0
H397 H 0.62998 0.57664 0.26263 0.0
H398 H 0.6189 0.53569 0.24761 0.0
H399 H 0.60572 0.55481 0.3106 0.0
C400 C 0.9199 0.1116 0.91626 0.0
C401 C 0.90103 0.13868 0.90219 0.0
C402 C 0.93132 0.0936 0.87212 0.0
C403 C 0.92349 0.10273 0.81238 0.0
C404 C 0.90373 0.12946 0.79778 0.0
C405 C 0.89281 0.14724 0.84293 0.0
C406 C 0.95251 0.06539 0.88946 0.0
C407 C 0.89472 0.13971 0.73448 0.0
C408 C 0.97993 0.07857 0.70365 0.0
C409 C 0.96629 0.05069 0.68109 0.0
C410 C 0.96591 0.09604 0.74554 0.0
C411 C 0.93753 0.0854 0.76545 0.0
C412 C 0.92343 0.05751 0.74244 0.0
C413 C 0.93799 0.04045 0.70048 0.0
C414 C 0.9817 0.12565 0.76912 0.0
C415 C 0.89316 0.04549 0.76271 0.0
H416 H 0.92637 0.10478 0.96193 0.0
H417 H 0.87811 0.16804 0.83176 0.0
H418 H 0.94379 0.04315 0.86896 0.0
H419 H 0.97538 0.07046 0.87305 0.0
H420 H 0.95522 0.06054 0.93791 0.0
H421 H 0.87759 0.15963 0.73059 0.0
H422 H 0.91523 0.14801 0.71204 0.0
H423 H 0.88516 0.11881 0.7108 0.0
H424 H 0.00172 0.08678 0.68871 0.0
H425 H 0.92725 0.01902 0.68306 0.0
H426 H 0.98707 0.12186 0.81723 0.0
H427 H 0.96635 0.14703 0.76224 0.0
H428 H 0.00326 0.13124 0.74775 0.0
H429 H 0.8955 0.03857 0.81047 0.0
H430 H 0.88462 0.02421 0.73875 0.0
H431 H 0.87581 0.06511 0.75633 0.0
C432 C 0.38001 0.38203 0.34525 0.0
C433 C 0.3766 0.34869 0.33768 0.0
C434 C 0.39435 0.40209 0.30411 0.0
C435 C 0.40496 0.38866 0.25341 0.0
C436 C 0.4005 0.3553 0.24417 0.0
C437 C 0.38664 0.33558 0.28684 0.0
C438 C 0.39917 0.43743 0.31608 0.0
C439 C 0.41092 0.34035 0.18988 0.0
C440 C 0.42208 0.4494 0.12942 0.0
C441 C 0.45398 0.45153 0.13673 0.0
C442 C 0.40586 0.42816 0.16583 0.0
C443 C 0.42191 0.40942 0.21163 0.0
C444 C 0.45414 0.4117 0.21939 0.0
C445 C 0.46984 0.4324 0.1812 0.0
C446 C 0.3716 0.42575 0.15533 0.0
C447 C 0.47197 0.39277 0.26873 0.0
H448 H 0.37248 0.39236 0.38457 0.0
H449 H 0.38393 0.30987 0.28065 0.0
H450 H 0.424 0.44277 0.32005 0.0
H451 H 0.38895 0.45304 0.27887 0.0
H452 H 0.38902 0.44419 0.3571 0.0
H453 H 0.40354 0.31472 0.18696 0.0
H454 H 0.40177 0.3544 0.14975 0.0
H455 H 0.43621 0.34119 0.19019 0.0
H456 H 0.40986 0.46387 0.0944 0.0
H457 H 0.49452 0.4341 0.18685 0.0
H458 H 0.36032 0.43409 0.19398 0.0
H459 H 0.36489 0.40011 0.14996 0.0
H460 H 0.36282 0.44049 0.11566 0.0
H461 H 0.46402 0.39941 0.31174 0.0
H462 H 0.49693 0.39731 0.26869 0.0
H463 H 0.46791 0.36643 0.26507 0.0
C464 C 0.15198 0.85686 0.86412 0.0
C465 C 0.13664 0.8463 0.91351 0.0
C466 C 0.13616 0.87283 0.8154 0.0
C467 C 0.10459 0.87956 0.81743 0.0
C468 C 0.08893 0.86838 0.86689 0.0
C469 C 0.10508 0.85133 0.91389 0.0
C470 C 0.15339 0.88333 0.76254 0.0
C471 C 0.05554 0.87601 0.87171 0.0
C472 C 0.07376 0.95387 0.72787 0.0
C473 C 0.05633 0.93989 0.6822 0.0
C474 C 0.08935 0.93446 0.77245 0.0
C475 C 0.08838 0.90027 0.76993 0.0
C476 C 0.07139 0.88606 0.72296 0.0
C477 C 0.05505 0.90608 0.68017 0.0
C478 C 0.10636 0.95055 0.82281 0.0
C479 C 0.07069 0.84979 0.71769 0.0
H480 H 0.17641 0.85288 0.86387 0.0
H481 H 0.0933 0.84358 0.95252 0.0
H482 H 0.1408 0.87606 0.72149 0.0
H483 H 0.15538 0.91012 0.75963 0.0
H484 H 0.17675 0.87276 0.7648 0.0
H485 H 0.04651 0.86457 0.91217 0.0
H486 H 0.05239 0.90265 0.87227 0.0
H487 H 0.04171 0.86766 0.83295 0.0
H488 H 0.07456 0.98004 0.72954 0.0
H489 H 0.04178 0.89532 0.64441 0.0
H490 H 0.131 0.94439 0.82414 0.0
H491 H 0.09772 0.94143 0.86524 0.0
H492 H 0.10393 0.97736 0.81922 0.0
H493 H 0.09434 0.84024 0.71786 0.0
H494 H 0.05769 0.8427 0.67689 0.0
H495 H 0.06009 0.83798 0.75608 0.0
loop_
_geom_bond_atom_site_label_1
_geom_bond_atom_site_label_2
_geom_bond_distance
_geom_bond_site_symmetry_2
_ccdc_geom_bond_type
O0 Cd1 2.300 1_556 S
O0 C7 1.275 . S
Cd1 O0 2.300 1_554 S
Cd1 O9 2.381 . S
Cd1 O10 2.378 . S
O2 Cd3 2.385 . S
O2 C7 1.255 1_554 S
Cd3 O2 2.385 . S
Cd3 O4 2.317 . S
O4 Cd3 2.317 . S
O4 C5 1.232 . S
C5 O4 1.232 . S
C5 O6 1.218 . S
O6 C5 1.218 . S
C7 O0 1.275 . S
C7 O2 1.255 1_556 S
C8 O9 1.258 . S
C8 O10 1.256 . S
O9 Cd1 2.381 . S
O9 C8 1.258 . S
O10 Cd1 2.378 . S
O10 C8 1.256 . S
O11 Cd12 2.300 . S
O11 C18 1.275 . S
Cd12 O11 2.300 . S
Cd12 O20 2.381 . S
Cd12 O21 2.378 . S
O13 Cd14 2.385 . S
O13 C18 1.255 . S
Cd14 O13 2.385 . S
Cd14 O15 2.317 . S
O15 Cd14 2.317 . S
O15 C16 1.232 . S
C16 O15 1.232 . S
C16 O17 1.218 . S
O17 C16 1.218 . S
C18 O11 1.275 . S
C18 O13 1.255 . S
C19 O20 1.258 . S
C19 O21 1.256 . S
O20 Cd12 2.381 . S
O20 C19 1.258 . S
O21 Cd12 2.378 . S
O21 C19 1.256 . S
O22 Cd23 2.300 . S
O22 C29 1.275 . S
Cd23 O22 2.300 . S
Cd23 O31 2.381 . S
Cd23 O32 2.378 . S
O24 Cd25 2.385 . S
O24 C29 1.255 . S
Cd25 O24 2.385 . S
Cd25 O26 2.317 1_554 S
O26 Cd25 2.317 1_556 S
O26 C27 1.232 . S
C27 O26 1.232 . S
C27 O28 1.218 . S
O28 C27 1.218 . S
C29 O22 1.275 . S
C29 O24 1.255 . S
C30 O31 1.258 . S
C30 O32 1.256 . S
O31 Cd23 2.381 . S
O31 C30 1.258 . S
O32 Cd23 2.378 . S
O32 C30 1.256 . S
O33 Cd34 2.300 . S
O33 C40 1.275 . S
Cd34 O33 2.300 . S
Cd34 O42 2.381 . S
Cd34 O43 2.378 . S
O35 Cd36 2.385 . S
O35 C40 1.255 . S
Cd36 O35 2.385 . S
Cd36 O37 2.317 . S
O37 Cd36 2.317 . S
O37 C38 1.232 . S
C38 O37 1.232 . S
C38 O39 1.218 . S
O39 C38 1.218 . S
C40 O33 1.275 . S
C40 O35 1.255 . S
C41 O42 1.258 . S
C41 O43 1.256 . S
O42 Cd34 2.381 . S
O42 C41 1.258 . S
O43 Cd34 2.378 . S
O43 C41 1.256 . S
C44 O60 1.251 . S
C44 O62 1.254 . S
N45 C46 1.333 . S
N45 C50 1.307 . S
N45 Zn51 2.020 . S
C46 N45 1.333 . S
C46 C47 1.379 . S
C46 H64 0.952 . S
C47 C46 1.379 . S
C47 C48 1.390 . S
C47 H74 0.949 . S
C48 C47 1.390 . S
C48 C49 1.357 . S
C49 C48 1.357 . S
C49 C50 1.370 . S
C49 H75 0.950 . S
C50 N45 1.307 . S
C50 C49 1.370 . S
C50 H68 0.948 . S
Zn51 N45 2.020 . S
Zn51 O60 2.039 1_545 S
Zn51 O66 2.034 1_545 S
Zn51 O70 2.042 . S
Zn51 O72 2.016 1_455 S
C52 O71 1.246 . S
C52 O72 1.263 . S
N53 C54 1.307 . S
N53 C55 1.333 . S
N53 Zn59 2.020 . S
C54 N53 1.307 . S
C54 C58 1.370 . S
C54 H65 0.948 . S
C55 N53 1.333 . S
C55 C56 1.379 . S
C55 H63 0.952 . S
C56 C55 1.379 . S
C56 C57 1.390 . S
C56 H76 0.949 . S
C57 C56 1.390 . S
C57 C58 1.357 . S
C58 C54 1.370 . S
C58 C57 1.357 . S
C58 H77 0.950 . S
Zn59 N53 2.020 . S
Zn59 O62 2.025 1_655 S
Zn59 O67 2.024 1_655 S
Zn59 O69 2.039 1_565 S
Zn59 O71 2.034 1_565 S
O60 C44 1.251 . S
O60 Zn51 2.039 1_565 S
C61 O66 1.246 . S
C61 O67 1.249 . S
O62 C44 1.254 . S
O62 Zn59 2.025 1_455 S
H63 C55 0.952 . S
H64 C46 0.952 . S
H65 C54 0.948 . S
O66 Zn51 2.034 1_565 S
O66 C61 1.246 . S
O67 Zn59 2.024 1_455 S
O67 C61 1.249 . S
H68 C50 0.948 . S
O69 Zn59 2.039 1_545 S
O69 C73 1.251 . S
O70 Zn51 2.042 . S
O70 C73 1.231 1_455 S
O71 C52 1.246 . S
O71 Zn59 2.034 1_545 S
O72 Zn51 2.016 1_655 S
O72 C52 1.263 . S
C73 O69 1.251 . S
C73 O70 1.231 1_655 S
H74 C47 0.949 . S
H75 C49 0.950 . S
H76 C56 0.949 . S
H77 C58 0.950 . S
C78 O94 1.251 . S
C78 O96 1.254 . S
N79 C80 1.333 . S
N79 C84 1.307 . S
N79 Zn85 2.020 . S
C80 N79 1.333 . S
C80 C81 1.379 . S
C80 H98 0.952 1_554 S
C81 C80 1.379 . S
C81 C82 1.390 . S
C81 H108 0.949 1_554 S
C82 C81 1.390 . S
C82 C83 1.357 . S
C83 C82 1.357 . S
C83 C84 1.370 . S
C83 H109 0.950 . S
C84 N79 1.307 . S
C84 C83 1.370 . S
C84 H102 0.948 . S
Zn85 N79 2.020 . S
Zn85 O94 2.039 1_554 S
Zn85 O100 2.034 . S
Zn85 O104 2.025 . S
Zn85 O106 2.024 1_554 S
C86 O105 1.246 . S
C86 O106 1.249 . S
N87 C88 1.305 1_554 S
N87 C89 1.333 . S
N87 Zn93 2.020 . S
C88 N87 1.305 1_556 S
C88 C92 1.369 . S
C88 H99 0.951 . S
C89 N87 1.333 . S
C89 C90 1.379 . S
C89 H97 0.952 . S
C90 C89 1.379 . S
C90 C91 1.390 . S
C90 H110 0.949 . S
C91 C90 1.390 . S
C91 C92 1.357 1_554 S
C92 C88 1.369 . S
C92 C91 1.357 1_556 S
C92 H111 0.950 . S
Zn93 N87 2.020 . S
Zn93 O96 2.025 1_554 S
Zn93 O101 2.024 . S
Zn93 O103 2.039 . S
Zn93 O105 2.034 1_554 S
O94 C78 1.251 . S
O94 Zn85 2.039 1_556 S
C95 O100 1.246 . S
C95 O101 1.249 . S
O96 C78 1.254 . S
O96 Zn93 2.025 1_556 S
H97 C89 0.952 . S
H98 C80 0.952 1_556 S
H99 C88 0.951 . S
O100 Zn85 2.034 . S
O100 C95 1.246 . S
O101 Zn93 2.024 . S
O101 C95 1.249 . S
H102 C84 0.948 . S
O103 Zn93 2.039 . S
O103 C107 1.251 . S
O104 Zn85 2.025 . S
O104 C107 1.254 . S
O105 C86 1.246 . S
O105 Zn93 2.034 1_556 S
O106 Zn85 2.024 1_556 S
O106 C86 1.249 . S
C107 O103 1.251 . S
C107 O104 1.254 . S
H108 C81 0.949 1_556 S
H109 C83 0.950 . S
H110 C90 0.949 . S
H111 C92 0.950 . S
C112 C113 1.391 . S
C112 C114 1.394 . S
C112 H128 0.931 . S
C113 C112 1.391 . S
C113 C117 1.376 . S
C114 C112 1.394 . S
C114 C115 1.369 . S
C114 C118 1.531 . S
C115 C114 1.369 . S
C115 C116 1.410 . S
C115 C123 1.503 . S
C116 C115 1.410 . S
C116 C117 1.392 . S
C116 C119 1.511 . S
C117 C113 1.376 . S
C117 C116 1.392 . S
C117 H129 0.929 . S
C118 C114 1.531 . S
C118 H130 0.960 . S
C118 H131 0.962 . S
C118 H132 0.960 . S
C119 C116 1.511 . S
C119 H133 0.961 . S
C119 H134 0.961 . S
C119 H135 0.961 . S
C120 C121 1.370 . S
C120 C122 1.363 . S
C120 H136 0.931 . S
C121 C120 1.370 . S
C121 C125 1.408 . S
C122 C120 1.363 . S
C122 C123 1.370 . S
C122 C126 1.524 . S
C123 C115 1.503 . S
C123 C122 1.370 . S
C123 C124 1.403 . S
C124 C123 1.403 . S
C124 C125 1.404 . S
C124 C127 1.539 . S
C125 C121 1.408 . S
C125 C124 1.404 . S
C125 H137 0.930 . S
C126 C122 1.524 . S
C126 H138 0.956 . S
C126 H139 0.961 . S
C126 H140 0.961 . S
C127 C124 1.539 . S
C127 H141 0.958 . S
C127 H142 0.961 . S
C127 H143 0.960 . S
H128 C112 0.931 . S
H129 C117 0.929 . S
H130 C118 0.960 . S
H131 C118 0.962 . S
H132 C118 0.960 . S
H133 C119 0.961 . S
H134 C119 0.961 . S
H135 C119 0.961 . S
H136 C120 0.931 . S
H137 C125 0.930 . S
H138 C126 0.956 . S
H139 C126 0.961 . S
H140 C126 0.961 . S
H141 C127 0.958 . S
H142 C127 0.961 . S
H143 C127 0.960 . S
C144 C145 1.391 . S
C144 C146 1.394 . S
C144 H160 0.931 . S
C145 C144 1.391 . S
C145 C149 1.376 . S
C146 C144 1.394 . S
C146 C147 1.369 . S
C146 C150 1.531 . S
C147 C146 1.369 . S
C147 C148 1.410 . S
C147 C155 1.503 . S
C148 C147 1.410 . S
C148 C149 1.392 . S
C148 C151 1.511 . S
C149 C145 1.376 . S
C149 C148 1.392 . S
C149 H161 0.929 . S
C150 C146 1.531 . S
C150 H162 0.960 . S
C150 H163 0.962 1_554 S
C150 H164 0.960 . S
C151 C148 1.511 . S
C151 H165 0.961 . S
C151 H166 0.961 . S
C151 H167 0.961 . S
C152 C153 1.370 1_556 S
C152 C154 1.363 . S
C152 H168 0.931 . S
C153 C152 1.370 1_554 S
C153 C157 1.408 . S
C154 C152 1.363 . S
C154 C155 1.370 1_556 S
C154 C158 1.524 . S
C155 C147 1.503 . S
C155 C154 1.370 1_554 S
C155 C156 1.403 . S
C156 C155 1.403 . S
C156 C157 1.404 . S
C156 C159 1.539 . S
C157 C153 1.408 . S
C157 C156 1.404 . S
C157 H169 0.930 . S
C158 C154 1.524 . S
C158 H170 0.956 . S
C158 H171 0.961 . S
C158 H172 0.961 . S
C159 C156 1.539 . S
C159 H173 0.958 . S
C159 H174 0.961 . S
C159 H175 0.960 . S
H160 C144 0.931 . S
H161 C149 0.929 . S
H162 C150 0.960 . S
H163 C150 0.962 1_556 S
H164 C150 0.960 . S
H165 C151 0.961 . S
H166 C151 0.961 . S
H167 C151 0.961 . S
H168 C152 0.931 . S
H169 C157 0.930 . S
H170 C158 0.956 . S
H171 C158 0.961 . S
H172 C158 0.961 . S
H173 C159 0.958 . S
H174 C159 0.961 . S
H175 C159 0.960 . S
C176 C177 1.391 . S
C176 C178 1.394 . S
C176 H192 0.931 . S
C177 C176 1.391 . S
C177 C181 1.376 . S
C178 C176 1.394 . S
C178 C179 1.369 . S
C178 C182 1.531 . S
C179 C178 1.369 . S
C179 C180 1.410 . S
C179 C187 1.503 . S
C180 C179 1.410 . S
C180 C181 1.392 . S
C180 C183 1.511 . S
C181 C177 1.376 . S
C181 C180 1.392 . S
C181 H193 0.929 . S
C182 C178 1.531 . S
C182 H194 0.960 . S
C182 H195 0.962 . S
C182 H196 0.960 . S
C183 C180 1.511 . S
C183 H197 0.961 . S
C183 H198 0.961 . S
C183 H199 0.961 . S
C184 C185 1.370 . S
C184 C186 1.363 . S
C184 H200 0.931 . S
C185 C184 1.370 . S
C185 C189 1.408 . S
C186 C184 1.363 . S
C186 C187 1.370 . S
C186 C190 1.524 . S
C187 C179 1.503 . S
C187 C186 1.370 . S
C187 C188 1.403 . S
C188 C187 1.403 . S
C188 C189 1.404 . S
C188 C191 1.539 . S
C189 C185 1.408 . S
C189 C188 1.404 . S
C189 H201 0.930 . S
C190 C186 1.524 . S
C190 H202 0.956 . S
C190 H203 0.961 . S
C190 H204 0.961 . S
C191 C188 1.539 . S
C191 H205 0.958 . S
C191 H206 0.961 . S
C191 H207 0.960 . S
H192 C176 0.931 . S
H193 C181 0.929 . S
H194 C182 0.960 . S
H195 C182 0.962 . S
H196 C182 0.960 . S
H197 C183 0.961 . S
H198 C183 0.961 . S
H199 C183 0.961 . S
H200 C184 0.931 . S
H201 C189 0.930 . S
H202 C190 0.956 . S
H203 C190 0.961 . S
H204 C190 0.961 . S
H205 C191 0.958 . S
H206 C191 0.961 . S
H207 C191 0.960 . S
C208 C209 1.391 . S
C208 C210 1.394 . S
C208 H224 0.931 . S
C209 C208 1.391 . S
C209 C213 1.376 . S
C210 C208 1.394 . S
C210 C211 1.369 . S
C210 C214 1.531 . S
C211 C210 1.369 . S
C211 C212 1.410 . S
C211 C219 1.503 . S
C212 C211 1.410 . S
C212 C213 1.392 . S
C212 C215 1.511 1_554 S
C213 C209 1.376 . S
C213 C212 1.392 . S
C213 H225 0.929 . S
C214 C210 1.531 . S
C214 H226 0.960 . S
C214 H227 0.962 . S
C214 H228 0.960 . S
C215 C212 1.511 1_556 S
C215 H229 0.961 . S
C215 H230 0.961 . S
C215 H231 0.961 . S
C216 C217 1.370 . S
C216 C218 1.363 . S
C216 H232 0.931 . S
C217 C216 1.370 . S
C217 C221 1.408 1_554 S
C218 C216 1.363 . S
C218 C219 1.370 . S
C218 C222 1.524 . S
C219 C211 1.503 . S
C219 C218 1.370 . S
C219 C220 1.403 1_554 S
C220 C219 1.403 1_556 S
C220 C221 1.404 . S
C220 C223 1.539 . S
C221 C217 1.408 1_556 S
C221 C220 1.404 . S
C221 H233 0.930 . S
C222 C218 1.524 . S
C222 H234 0.956 . S
C222 H235 0.961 . S
C222 H236 0.961 . S
C223 C220 1.539 . S
C223 H237 0.958 . S
C223 H238 0.961 . S
C223 H239 0.960 . S
H224 C208 0.931 . S
H225 C213 0.929 . S
H226 C214 0.960 . S
H227 C214 0.962 . S
H228 C214 0.960 . S
H229 C215 0.961 . S
H230 C215 0.961 . S
H231 C215 0.961 . S
H232 C216 0.931 . S
H233 C221 0.930 . S
H234 C222 0.956 . S
H235 C222 0.961 . S
H236 C222 0.961 . S
H237 C223 0.958 . S
H238 C223 0.961 . S
H239 C223 0.960 . S
C240 C241 1.391 . S
C240 C242 1.394 . S
C240 H256 0.931 . S
C241 C240 1.391 . S
C241 C245 1.376 . S
C242 C240 1.394 . S
C242 C243 1.369 . S
C242 C246 1.531 . S
C243 C242 1.369 . S
C243 C244 1.410 . S
C243 C251 1.503 . S
C244 C243 1.410 . S
C244 C245 1.392 . S
C244 C247 1.511 . S
C245 C241 1.376 . S
C245 C244 1.392 . S
C245 H257 0.929 . S
C246 C242 1.531 . S
C246 H258 0.960 . S
C246 H259 0.962 . S
C246 H260 0.960 . S
C247 C244 1.511 . S
C247 H261 0.961 . S
C247 H262 0.961 . S
C247 H263 0.961 . S
C248 C249 1.370 . S
C248 C250 1.363 . S
C248 H264 0.931 . S
C249 C248 1.370 . S
C249 C253 1.408 . S
C250 C248 1.363 . S
C250 C251 1.370 . S
C250 C254 1.524 . S
C251 C243 1.503 . S
C251 C250 1.370 . S
C251 C252 1.403 . S
C252 C251 1.403 . S
C252 C253 1.404 . S
C252 C255 1.539 . S
C253 C249 1.408 . S
C253 C252 1.404 . S
C253 H265 0.963 . S
C254 C250 1.524 . S
C254 H266 0.956 . S
C254 H267 0.961 . S
C254 H268 0.961 . S
C255 C252 1.539 . S
C255 H269 0.958 . S
C255 H270 0.961 1_565 S
C255 H271 0.960 . S
H256 C240 0.931 . S
H257 C245 0.929 . S
H258 C246 0.960 . S
H259 C246 0.962 . S
H260 C246 0.960 . S
H261 C247 0.961 . S
H262 C247 0.961 . S
H263 C247 0.961 . S
H264 C248 0.931 . S
H265 C253 0.963 . S
H266 C254 0.956 . S
H267 C254 0.961 . S
H268 C254 0.961 . S
H269 C255 0.958 . S
H270 C255 0.961 1_545 S
H271 C255 0.960 . S
C272 C273 1.391 . S
C272 C274 1.394 . S
C272 H288 0.931 . S
C273 C272 1.391 . S
C273 C277 1.376 . S
C274 C272 1.394 . S
C274 C275 1.369 . S
C274 C278 1.531 . S
C275 C274 1.369 . S
C275 C276 1.410 . S
C275 C283 1.503 . S
C276 C275 1.410 . S
C276 C277 1.392 . S
C276 C279 1.511 . S
C277 C273 1.376 . S
C277 C276 1.392 . S
C277 H289 0.929 . S
C278 C274 1.531 . S
C278 H290 0.960 . S
C278 H291 0.962 . S
C278 H292 0.960 . S
C279 C276 1.511 . S
C279 H293 0.961 . S
C279 H294 0.961 . S
C279 H295 0.961 . S
C280 C281 1.370 . S
C280 C282 1.363 . S
C280 H296 0.931 . S
C281 C280 1.370 . S
C281 C285 1.408 . S
C282 C280 1.363 . S
C282 C283 1.370 . S
C282 C286 1.524 . S
C283 C275 1.503 . S
C283 C282 1.370 . S
C283 C284 1.403 . S
C284 C283 1.403 . S
C284 C285 1.404 . S
C284 C287 1.539 . S
C285 C281 1.408 . S
C285 C284 1.404 . S
C285 H297 0.930 . S
C286 C282 1.524 . S
C286 H298 0.956 . S
C286 H299 0.961 . S
C286 H300 0.961 . S
C287 C284 1.539 . S
C287 H301 0.958 . S
C287 H302 0.961 . S
C287 H303 0.960 . S
H288 C272 0.931 . S
H289 C277 0.929 . S
H290 C278 0.960 . S
H291 C278 0.962 . S
H292 C278 0.960 . S
H293 C279 0.961 . S
H294 C279 0.961 . S
H295 C279 0.961 . S
H296 C280 0.931 . S
H297 C285 0.930 . S
H298 C286 0.956 . S
H299 C286 0.961 . S
H300 C286 0.961 . S
H301 C287 0.958 . S
H302 C287 0.961 . S
H303 C287 0.960 . S
C304 C305 1.391 . S
C304 C306 1.394 . S
C304 H320 0.931 . S
C305 C304 1.391 . S
C305 C309 1.376 . S
C306 C304 1.394 . S
C306 C307 1.369 . S
C306 C310 1.531 . S
C307 C306 1.369 . S
C307 C308 1.410 . S
C307 C315 1.503 . S
C308 C307 1.410 . S
C308 C309 1.392 . S
C308 C311 1.511 . S
C309 C305 1.376 . S
C309 C308 1.392 . S
C309 H321 0.929 . S
C310 C306 1.531 . S
C310 H322 0.960 . S
C310 H323 0.962 . S
C310 H324 0.960 . S
C311 C308 1.511 . S
C311 H325 0.961 . S
C311 H326 0.961 . S
C311 H327 0.961 . S
C312 C313 1.370 . S
C312 C314 1.363 . S
C312 H328 0.931 . S
C313 C312 1.370 . S
C313 C317 1.408 . S
C314 C312 1.363 . S
C314 C315 1.370 . S
C314 C318 1.524 . S
C315 C307 1.503 . S
C315 C314 1.370 . S
C315 C316 1.403 . S
C316 C315 1.403 . S
C316 C317 1.404 . S
C316 C319 1.539 . S
C317 C313 1.408 . S
C317 C316 1.404 . S
C317 H329 0.930 . S
C318 C314 1.524 . S
C318 H330 0.956 . S
C318 H331 0.961 . S
C318 H332 0.961 . S
C319 C316 1.539 . S
C319 H333 0.958 . S
C319 H334 0.961 . S
C319 H335 0.960 . S
H320 C304 0.931 . S
H321 C309 0.929 . S
H322 C310 0.960 . S
H323 C310 0.962 . S
H324 C310 0.960 . S
H325 C311 0.961 . S
H326 C311 0.961 . S
H327 C311 0.961 . S
H328 C312 0.931 . S
H329 C317 0.930 . S
H330 C318 0.956 . S
H331 C318 0.961 . S
H332 C318 0.961 . S
H333 C319 0.958 . S
H334 C319 0.961 . S
H335 C319 0.960 . S
C336 C337 1.391 . S
C336 C338 1.394 . S
C336 H352 0.931 . S
C337 C336 1.391 . S
C337 C341 1.376 . S
C338 C336 1.394 . S
C338 C339 1.369 . S
C338 C342 1.531 . S
C339 C338 1.369 . S
C339 C340 1.410 . S
C339 C347 1.503 . S
C340 C339 1.410 . S
C340 C341 1.392 . S
C340 C343 1.511 . S
C341 C337 1.376 . S
C341 C340 1.392 . S
C341 H353 0.929 . S
C342 C338 1.531 . S
C342 H354 0.960 . S
C342 H355 0.962 . S
C342 H356 0.960 . S
C343 C340 1.511 . S
C343 H357 0.961 . S
C343 H358 0.961 . S
C343 H359 0.961 . S
C344 C345 1.370 . S
C344 C346 1.363 . S
C344 H360 0.931 . S
C345 C344 1.370 . S
C345 C349 1.408 . S
C346 C344 1.363 . S
C346 C347 1.370 . S
C346 C350 1.524 . S
C347 C339 1.503 . S
C347 C346 1.370 . S
C347 C348 1.403 . S
C348 C347 1.403 . S
C348 C349 1.404 . S
C348 C351 1.539 . S
C349 C345 1.408 . S
C349 C348 1.404 . S
C349 H361 0.930 . S
C350 C346 1.524 . S
C350 H362 0.956 . S
C350 H363 0.961 . S
C350 H364 0.961 . S
C351 C348 1.539 . S
C351 H365 0.958 . S
C351 H366 0.961 . S
C351 H367 0.960 . S
H352 C336 0.931 . S
H353 C341 0.929 . S
H354 C342 0.960 . S
H355 C342 0.962 . S
H356 C342 0.960 . S
H357 C343 0.961 . S
H358 C343 0.961 . S
H359 C343 0.961 . S
H360 C344 0.931 . S
H361 C349 0.930 . S
H362 C350 0.956 . S
H363 C350 0.961 . S
H364 C350 0.961 . S
H365 C351 0.958 . S
H366 C351 0.961 . S
H367 C351 0.960 . S
C368 C369 1.391 . S
C368 C370 1.394 . S
C368 H384 0.931 . S
C369 C368 1.391 . S
C369 C373 1.376 . S
C370 C368 1.394 . S
C370 C371 1.369 . S
C370 C374 1.531 . S
C371 C370 1.369 . S
C371 C372 1.410 . S
C371 C379 1.503 . S
C372 C371 1.410 . S
C372 C373 1.392 . S
C372 C375 1.511 . S
C373 C369 1.376 . S
C373 C372 1.392 . S
C373 H385 0.929 . S
C374 C370 1.531 . S
C374 H386 0.960 . S
C374 H387 0.962 . S
C374 H388 0.960 . S
C375 C372 1.511 . S
C375 H389 0.961 . S
C375 H390 0.961 . S
C375 H391 0.961 . S
C376 C377 1.370 . S
C376 C378 1.363 . S
C376 H392 0.931 . S
C377 C376 1.370 . S
C377 C381 1.408 . S
C378 C376 1.363 . S
C378 C379 1.370 . S
C378 C382 1.524 . S
C379 C371 1.503 . S
C379 C378 1.370 . S
C379 C380 1.403 . S
C380 C379 1.403 . S
C380 C381 1.404 . S
C380 C383 1.539 . S
C381 C377 1.408 . S
C381 C380 1.404 . S
C381 H393 0.930 . S
C382 C378 1.524 . S
C382 H394 0.956 . S
C382 H395 0.961 . S
C382 H396 0.961 . S
C383 C380 1.539 . S
C383 H397 0.958 . S
C383 H398 0.961 . S
C383 H399 0.960 . S
H384 C368 0.931 . S
H385 C373 0.929 . S
H386 C374 0.960 . S
H387 C374 0.962 . S
H388 C374 0.960 . S
H389 C375 0.961 . S
H390 C375 0.961 . S
H391 C375 0.961 . S
H392 C376 0.931 . S
H393 C381 0.930 . S
H394 C382 0.956 . S
H395 C382 0.961 . S
H396 C382 0.961 . S
H397 C383 0.958 . S
H398 C383 0.961 . S
H399 C383 0.960 . S
C400 C401 1.391 . S
C400 C402 1.394 . S
C400 H416 0.931 . S
C401 C400 1.391 . S
C401 C405 1.376 . S
C402 C400 1.394 . S
C402 C403 1.369 . S
C402 C406 1.531 . S
C403 C402 1.369 . S
C403 C404 1.410 . S
C403 C411 1.503 . S
C404 C403 1.410 . S
C404 C405 1.392 . S
C404 C407 1.511 . S
C405 C401 1.376 . S
C405 C404 1.392 . S
C405 H417 0.929 . S
C406 C402 1.531 . S
C406 H418 0.960 . S
C406 H419 0.962 . S
C406 H420 0.960 . S
C407 C404 1.511 . S
C407 H421 0.961 . S
C407 H422 0.961 . S
C407 H423 0.961 . S
C408 C409 1.370 . S
C408 C410 1.363 . S
C408 H424 0.931 . S
C409 C408 1.370 . S
C409 C413 1.408 . S
C410 C408 1.363 . S
C410 C411 1.370 . S
C410 C414 1.524 . S
C411 C403 1.503 . S
C411 C410 1.370 . S
C411 C412 1.403 . S
C412 C411 1.403 . S
C412 C413 1.404 . S
C412 C415 1.539 . S
C413 C409 1.408 . S
C413 C412 1.404 . S
C413 H425 0.930 . S
C414 C410 1.524 . S
C414 H426 0.956 . S
C414 H427 0.961 . S
C414 H428 0.961 . S
C415 C412 1.539 . S
C415 H429 0.958 . S
C415 H430 0.961 . S
C415 H431 0.960 . S
H416 C400 0.931 . S
H417 C405 0.929 . S
H418 C406 0.960 . S
H419 C406 0.962 . S
H420 C406 0.960 . S
H421 C407 0.961 . S
H422 C407 0.961 . S
H423 C407 0.961 . S
H424 C408 0.931 . S
H425 C413 0.930 . S
H426 C414 0.956 . S
H427 C414 0.961 . S
H428 C414 0.961 . S
H429 C415 0.958 . S
H430 C415 0.961 . S
H431 C415 0.960 . S
C432 C433 1.391 . S
C432 C434 1.394 . S
C432 H448 0.931 . S
C433 C432 1.391 . S
C433 C437 1.376 . S
C434 C432 1.394 . S
C434 C435 1.369 . S
C434 C438 1.531 . S
C435 C434 1.369 . S
C435 C436 1.410 . S
C435 C443 1.503 . S
C436 C435 1.410 . S
C436 C437 1.392 . S
C436 C439 1.511 . S
C437 C433 1.376 . S
C437 C436 1.392 . S
C437 H449 0.929 . S
C438 C434 1.531 . S
C438 H450 0.960 . S
C438 H451 0.962 . S
C438 H452 0.960 . S
C439 C436 1.511 . S
C439 H453 0.961 . S
C439 H454 0.961 . S
C439 H455 0.961 . S
C440 C441 1.370 . S
C440 C442 1.363 . S
C440 H456 0.931 . S
C441 C440 1.370 . S
C441 C445 1.408 . S
C442 C440 1.363 . S
C442 C443 1.370 . S
C442 C446 1.524 . S
C443 C435 1.503 . S
C443 C442 1.370 . S
C443 C444 1.403 . S
C444 C443 1.403 . S
C444 C445 1.404 . S
C444 C447 1.539 . S
C445 C441 1.408 . S
C445 C444 1.404 . S
C445 H457 0.930 . S
C446 C442 1.524 . S
C446 H458 0.956 . S
C446 H459 0.961 . S
C446 H460 0.961 . S
C447 C444 1.539 . S
C447 H461 0.958 . S
C447 H462 0.961 . S
C447 H463 0.960 . S
H448 C432 0.931 . S
H449 C437 0.929 . S
H450 C438 0.960 . S
H451 C438 0.962 . S
H452 C438 0.960 . S
H453 C439 0.961 . S
H454 C439 0.961 . S
H455 C439 0.961 . S
H456 C440 0.931 . S
H457 C445 0.930 . S
H458 C446 0.956 . S
H459 C446 0.961 . S
H460 C446 0.961 . S
H461 C447 0.958 . S
H462 C447 0.961 . S
H463 C447 0.960 . S
C464 C465 1.391 . S
C464 C466 1.394 . S
C464 H480 0.931 . S
C465 C464 1.391 . S
C465 C469 1.376 . S
C466 C464 1.394 . S
C466 C467 1.369 . S
C466 C470 1.531 . S
C467 C466 1.369 . S
C467 C468 1.410 . S
C467 C475 1.503 . S
C468 C467 1.410 . S
C468 C469 1.392 . S
C468 C471 1.511 . S
C469 C465 1.376 . S
C469 C468 1.392 . S
C469 H481 0.929 . S
C470 C466 1.531 . S
C470 H482 0.960 . S
C470 H483 0.962 . S
C470 H484 0.960 . S
C471 C468 1.511 . S
C471 H485 0.961 . S
C471 H486 0.961 . S
C471 H487 0.961 . S
C472 C473 1.370 . S
C472 C474 1.363 . S
C472 H488 0.931 . S
C473 C472 1.370 . S
C473 C477 1.408 . S
C474 C472 1.363 . S
C474 C475 1.370 . S
C474 C478 1.524 . S
C475 C467 1.503 . S
C475 C474 1.370 . S
C475 C476 1.403 . S
C476 C475 1.403 . S
C476 C477 1.404 . S
C476 C479 1.539 . S
C477 C473 1.408 . S
C477 C476 1.404 . S
C477 H489 0.930 . S
C478 C474 1.524 . S
C478 H490 0.956 . S
C478 H491 0.961 . S
C478 H492 0.961 . S
C479 C476 1.539 . S
C479 H493 0.958 . S
C479 H494 0.961 . S
C479 H495 0.960 . S
H480 C464 0.931 . S
H481 C469 0.929 . S
H482 C470 0.960 . S
H483 C470 0.962 . S
H484 C470 0.960 . S
H485 C471 0.961 . S
H486 C471 0.961 . S
H487 C471 0.961 . S
H488 C472 0.931 . S
H489 C477 0.930 . S
H490 C478 0.956 . S
H491 C478 0.961 . S
H492 C478 0.961 . S
H493 C479 0.958 . S
H494 C479 0.961 . S
H495 C479 0.960 . S
C121 C48 1.525 . S
C113 C41 1.494 . S
C145 C8 1.494 . S
C153 C91 1.512 . S
C177 C19 1.514 . S
C185 C57 1.534 . S
C209 C30 1.499 . S
C217 C82 1.513 . S
C249 C44 1.576 . S
C241 C5 1.285 . S
C281 C86 1.650 . S
C273 C18 1.569 . S
C305 C29 1.570 . S
C313 C52 1.581 . S
C337 C40 1.618 . S
C345 C78 1.655 . S
C377 C107 1.398 . S
C369 C16 1.091 . S
C409 C73 1.414 . S
C401 C27 1.287 . S
C441 C95 1.392 . S
C433 C38 1.182 . S
C465 C7 1.378 . S
C473 C61 1.401 . S
