# Generated by pormake.
# Topology iac, (4,6)-cn, num edge types: 1
# Building blocks:
#     Node 0, Type 0, BuildingBlock: TATPOV_clean_sbu_0, # of connection points: 4
#     Node 1, Type 0, BuildingBlock: TATPOV_clean_sbu_0, # of connection points: 4
#     Node 2, Type 0, BuildingBlock: TATPOV_clean_sbu_0, # of connection points: 4
#     Node 3, Type 0, BuildingBlock: TATPOV_clean_sbu_0, # of connection points: 4
#     Node 4, Type 0, BuildingBlock: TATPOV_clean_sbu_0, # of connection points: 4
#     Node 5, Type 0, BuildingBlock: TATPOV_clean_sbu_0, # of connection points: 4
#     Node 6, Type 0, BuildingBlock: TATPOV_clean_sbu_0, # of connection points: 4
#     Node 7, Type 0, BuildingBlock: TATPOV_clean_sbu_0, # of connection points: 4
#     Node 8, Type 0, BuildingBlock: TATPOV_clean_sbu_0, # of connection points: 4
#     Node 9, Type 0, BuildingBlock: TATPOV_clean_sbu_0, # of connection points: 4
#     Node 10, Type 0, BuildingBlock: TATPOV_clean_sbu_0, # of connection points: 4
#     Node 11, Type 0, BuildingBlock: TATPOV_clean_sbu_0, # of connection points: 4
#     Node 12, Type 0, BuildingBlock: TATPOV_clean_sbu_0, # of connection points: 4
#     Node 13, Type 0, BuildingBlock: TATPOV_clean_sbu_0, # of connection points: 4
#     Node 14, Type 0, BuildingBlock: TATPOV_clean_sbu_0, # of connection points: 4
#     Node 15, Type 0, BuildingBlock: TATPOV_clean_sbu_0, # of connection points: 4
#     Node 16, Type 0, BuildingBlock: TATPOV_clean_sbu_0, # of connection points: 4
#     Node 17, Type 0, BuildingBlock: TATPOV_clean_sbu_0, # of connection points: 4
#     Node 18, Type 0, BuildingBlock: TATPOV_clean_sbu_0, # of connection points: 4
#     Node 19, Type 0, BuildingBlock: TATPOV_clean_sbu_0, # of connection points: 4
#     Node 20, Type 0, BuildingBlock: TATPOV_clean_sbu_0, # of connection points: 4
#     Node 21, Type 0, BuildingBlock: TATPOV_clean_sbu_0, # of connection points: 4
#     Node 22, Type 0, BuildingBlock: TATPOV_clean_sbu_0, # of connection points: 4
#     Node 23, Type 0, BuildingBlock: TATPOV_clean_sbu_0, # of connection points: 4
#     Node 24, Type 1, BuildingBlock: CIFDUS_clean_sbu_1, # of connection points: 6
#     Node 25, Type 1, BuildingBlock: CIFDUS_clean_sbu_1, # of connection points: 6
#     Node 26, Type 1, BuildingBlock: CIFDUS_clean_sbu_1, # of connection points: 6
#     Node 27, Type 1, BuildingBlock: CIFDUS_clean_sbu_1, # of connection points: 6
#     Node 28, Type 1, BuildingBlock: CIFDUS_clean_sbu_1, # of connection points: 6
#     Node 29, Type 1, BuildingBlock: CIFDUS_clean_sbu_1, # of connection points: 6
#     Node 30, Type 1, BuildingBlock: CIFDUS_clean_sbu_1, # of connection points: 6
#     Node 31, Type 1, BuildingBlock: CIFDUS_clean_sbu_1, # of connection points: 6
#     Node 32, Type 1, BuildingBlock: CIFDUS_clean_sbu_1, # of connection points: 6
#     Node 33, Type 1, BuildingBlock: CIFDUS_clean_sbu_1, # of connection points: 6
#     Node 34, Type 1, BuildingBlock: CIFDUS_clean_sbu_1, # of connection points: 6
#     Node 35, Type 1, BuildingBlock: CIFDUS_clean_sbu_1, # of connection points: 6
#     Node 36, Type 1, BuildingBlock: CIFDUS_clean_sbu_1, # of connection points: 6
#     Node 37, Type 1, BuildingBlock: CIFDUS_clean_sbu_1, # of connection points: 6
#     Node 38, Type 1, BuildingBlock: CIFDUS_clean_sbu_1, # of connection points: 6
#     Node 39, Type 1, BuildingBlock: CIFDUS_clean_sbu_1, # of connection points: 6
#     Edge 40, Type (0, 1), BuildingBlock: XIVTED_clean_linker_0, # of connection points: 2
#     Edge 41, Type (0, 1), BuildingBlock: XIVTED_clean_linker_0, # of connection points: 2
#     Edge 42, Type (0, 1), BuildingBlock: XIVTED_clean_linker_0, # of connection points: 2
#     Edge 43, Type (0, 1), BuildingBlock: XIVTED_clean_linker_0, # of connection points: 2
#     Edge 44, Type (0, 1), BuildingBlock: XIVTED_clean_linker_0, # of connection points: 2
#     Edge 45, Type (0, 1), BuildingBlock: XIVTED_clean_linker_0, # of connection points: 2
#     Edge 46, Type (0, 1), BuildingBlock: XIVTED_clean_linker_0, # of connection points: 2
#     Edge 47, Type (0, 1), BuildingBlock: XIVTED_clean_linker_0, # of connection points: 2
#     Edge 48, Type (0, 1), BuildingBlock: XIVTED_clean_linker_0, # of connection points: 2
#     Edge 49, Type (0, 1), BuildingBlock: XIVTED_clean_linker_0, # of connection points: 2
#     Edge 50, Type (0, 1), BuildingBlock: XIVTED_clean_linker_0, # of connection points: 2
#     Edge 51, Type (0, 1), BuildingBlock: XIVTED_clean_linker_0, # of connection points: 2
#     Edge 52, Type (0, 1), BuildingBlock: XIVTED_clean_linker_0, # of connection points: 2
#     Edge 53, Type (0, 1), BuildingBlock: XIVTED_clean_linker_0, # of connection points: 2
#     Edge 54, Type (0, 1), BuildingBlock: XIVTED_clean_linker_0, # of connection points: 2
#     Edge 55, Type (0, 1), BuildingBlock: XIVTED_clean_linker_0, # of connection points: 2
#     Edge 56, Type (0, 1), BuildingBlock: XIVTED_clean_linker_0, # of connection points: 2
#     Edge 57, Type (0, 1), BuildingBlock: XIVTED_clean_linker_0, # of connection points: 2
#     Edge 58, Type (0, 1), BuildingBlock: XIVTED_clean_linker_0, # of connection points: 2
#     Edge 59, Type (0, 1), BuildingBlock: XIVTED_clean_linker_0, # of connection points: 2
#     Edge 60, Type (0, 1), BuildingBlock: XIVTED_clean_linker_0, # of connection points: 2
#     Edge 61, Type (0, 1), BuildingBlock: XIVTED_clean_linker_0, # of connection points: 2
#     Edge 62, Type (0, 1), BuildingBlock: XIVTED_clean_linker_0, # of connection points: 2
#     Edge 63, Type (0, 1), BuildingBlock: XIVTED_clean_linker_0, # of connection points: 2
#     Edge 64, Type (0, 1), BuildingBlock: XIVTED_clean_linker_0, # of connection points: 2
#     Edge 65, Type (0, 1), BuildingBlock: XIVTED_clean_linker_0, # of connection points: 2
#     Edge 66, Type (0, 1), BuildingBlock: XIVTED_clean_linker_0, # of connection points: 2
#     Edge 67, Type (0, 1), BuildingBlock: XIVTED_clean_linker_0, # of connection points: 2
#     Edge 68, Type (0, 1), BuildingBlock: XIVTED_clean_linker_0, # of connection points: 2
#     Edge 69, Type (0, 1), BuildingBlock: XIVTED_clean_linker_0, # of connection points: 2
#     Edge 70, Type (0, 1), BuildingBlock: XIVTED_clean_linker_0, # of connection points: 2
#     Edge 71, Type (0, 1), BuildingBlock: XIVTED_clean_linker_0, # of connection points: 2
#     Edge 72, Type (0, 1), BuildingBlock: XIVTED_clean_linker_0, # of connection points: 2
#     Edge 73, Type (0, 1), BuildingBlock: XIVTED_clean_linker_0, # of connection points: 2
#     Edge 74, Type (0, 1), BuildingBlock: XIVTED_clean_linker_0, # of connection points: 2
#     Edge 75, Type (0, 1), BuildingBlock: XIVTED_clean_linker_0, # of connection points: 2
#     Edge 76, Type (0, 1), BuildingBlock: XIVTED_clean_linker_0, # of connection points: 2
#     Edge 77, Type (0, 1), BuildingBlock: XIVTED_clean_linker_0, # of connection points: 2
#     Edge 78, Type (0, 1), BuildingBlock: XIVTED_clean_linker_0, # of connection points: 2
#     Edge 79, Type (0, 1), BuildingBlock: XIVTED_clean_linker_0, # of connection points: 2
#     Edge 80, Type (0, 1), BuildingBlock: XIVTED_clean_linker_0, # of connection points: 2
#     Edge 81, Type (0, 1), BuildingBlock: XIVTED_clean_linker_0, # of connection points: 2
#     Edge 82, Type (0, 1), BuildingBlock: XIVTED_clean_linker_0, # of connection points: 2
#     Edge 83, Type (0, 1), BuildingBlock: XIVTED_clean_linker_0, # of connection points: 2
#     Edge 84, Type (0, 1), BuildingBlock: XIVTED_clean_linker_0, # of connection points: 2
#     Edge 85, Type (0, 1), BuildingBlock: XIVTED_clean_linker_0, # of connection points: 2
#     Edge 86, Type (0, 1), BuildingBlock: XIVTED_clean_linker_0, # of connection points: 2
#     Edge 87, Type (0, 1), BuildingBlock: XIVTED_clean_linker_0, # of connection points: 2
#     Edge 88, Type (0, 1), BuildingBlock: XIVTED_clean_linker_0, # of connection points: 2
#     Edge 89, Type (0, 1), BuildingBlock: XIVTED_clean_linker_0, # of connection points: 2
#     Edge 90, Type (0, 1), BuildingBlock: XIVTED_clean_linker_0, # of connection points: 2
#     Edge 91, Type (0, 1), BuildingBlock: XIVTED_clean_linker_0, # of connection points: 2
#     Edge 92, Type (0, 1), BuildingBlock: XIVTED_clean_linker_0, # of connection points: 2
#     Edge 93, Type (0, 1), BuildingBlock: XIVTED_clean_linker_0, # of connection points: 2
#     Edge 94, Type (0, 1), BuildingBlock: XIVTED_clean_linker_0, # of connection points: 2
#     Edge 95, Type (0, 1), BuildingBlock: XIVTED_clean_linker_0, # of connection points: 2
#     Edge 96, Type (0, 1), BuildingBlock: XIVTED_clean_linker_0, # of connection points: 2
#     Edge 97, Type (0, 1), BuildingBlock: XIVTED_clean_linker_0, # of connection points: 2
#     Edge 98, Type (0, 1), BuildingBlock: XIVTED_clean_linker_0, # of connection points: 2
#     Edge 99, Type (0, 1), BuildingBlock: XIVTED_clean_linker_0, # of connection points: 2
#     Edge 100, Type (0, 1), BuildingBlock: XIVTED_clean_linker_0, # of connection points: 2
#     Edge 101, Type (0, 1), BuildingBlock: XIVTED_clean_linker_0, # of connection points: 2
#     Edge 102, Type (0, 1), BuildingBlock: XIVTED_clean_linker_0, # of connection points: 2
#     Edge 103, Type (0, 1), BuildingBlock: XIVTED_clean_linker_0, # of connection points: 2
#     Edge 104, Type (0, 1), BuildingBlock: XIVTED_clean_linker_0, # of connection points: 2
#     Edge 105, Type (0, 1), BuildingBlock: XIVTED_clean_linker_0, # of connection points: 2
#     Edge 106, Type (0, 1), BuildingBlock: XIVTED_clean_linker_0, # of connection points: 2
#     Edge 107, Type (0, 1), BuildingBlock: XIVTED_clean_linker_0, # of connection points: 2
#     Edge 108, Type (0, 1), BuildingBlock: XIVTED_clean_linker_0, # of connection points: 2
#     Edge 109, Type (0, 1), BuildingBlock: XIVTED_clean_linker_0, # of connection points: 2
#     Edge 110, Type (0, 1), BuildingBlock: XIVTED_clean_linker_0, # of connection points: 2
#     Edge 111, Type (0, 1), BuildingBlock: XIVTED_clean_linker_0, # of connection points: 2
#     Edge 112, Type (0, 1), BuildingBlock: XIVTED_clean_linker_0, # of connection points: 2
#     Edge 113, Type (0, 1), BuildingBlock: XIVTED_clean_linker_0, # of connection points: 2
#     Edge 114, Type (0, 1), BuildingBlock: XIVTED_clean_linker_0, # of connection points: 2
#     Edge 115, Type (0, 1), BuildingBlock: XIVTED_clean_linker_0, # of connection points: 2
#     Edge 116, Type (0, 1), BuildingBlock: XIVTED_clean_linker_0, # of connection points: 2
#     Edge 117, Type (0, 1), BuildingBlock: XIVTED_clean_linker_0, # of connection points: 2
#     Edge 118, Type (0, 1), BuildingBlock: XIVTED_clean_linker_0, # of connection points: 2
#     Edge 119, Type (0, 1), BuildingBlock: XIVTED_clean_linker_0, # of connection points: 2
#     Edge 120, Type (0, 1), BuildingBlock: XIVTED_clean_linker_0, # of connection points: 2
#     Edge 121, Type (0, 1), BuildingBlock: XIVTED_clean_linker_0, # of connection points: 2
#     Edge 122, Type (0, 1), BuildingBlock: XIVTED_clean_linker_0, # of connection points: 2
#     Edge 123, Type (0, 1), BuildingBlock: XIVTED_clean_linker_0, # of connection points: 2
#     Edge 124, Type (0, 1), BuildingBlock: XIVTED_clean_linker_0, # of connection points: 2
#     Edge 125, Type (0, 1), BuildingBlock: XIVTED_clean_linker_0, # of connection points: 2
#     Edge 126, Type (0, 1), BuildingBlock: XIVTED_clean_linker_0, # of connection points: 2
#     Edge 127, Type (0, 1), BuildingBlock: XIVTED_clean_linker_0, # of connection points: 2
#     Edge 128, Type (0, 1), BuildingBlock: XIVTED_clean_linker_0, # of connection points: 2
#     Edge 129, Type (0, 1), BuildingBlock: XIVTED_clean_linker_0, # of connection points: 2
#     Edge 130, Type (0, 1), BuildingBlock: XIVTED_clean_linker_0, # of connection points: 2
#     Edge 131, Type (0, 1), BuildingBlock: XIVTED_clean_linker_0, # of connection points: 2
#     Edge 132, Type (0, 1), BuildingBlock: XIVTED_clean_linker_0, # of connection points: 2
#     Edge 133, Type (0, 1), BuildingBlock: XIVTED_clean_linker_0, # of connection points: 2
#     Edge 134, Type (0, 1), BuildingBlock: XIVTED_clean_linker_0, # of connection points: 2
#     Edge 135, Type (0, 1), BuildingBlock: XIVTED_clean_linker_0, # of connection points: 2
# Relax obj value: 0.110
# Max RMSD: 0.176
# Mean RMSD: 0.129
data_MOF--net-iac--node1-TATPOV_clean_sbu_0--node2-CIFDUS_clean_sbu_1--edge1-XIVTED_clean_linker_0
_symmetry_space_group_name_H-M    P1
_symmetry_Int_Tables_number       1
_symmetry_cell_setting            triclinic
loop_
_symmetry_equiv_pos_as_xyz
'x, y, z'
_cell_length_a     53.905306
_cell_length_b     53.584185
_cell_length_c     54.595284
_cell_angle_alpha  89.932751
_cell_angle_beta   90.207301
_cell_angle_gamma 91.51587
loop_
_atom_site_label
_atom_site_type_symbol
_atom_site_fract_x
_atom_site_fract_y
_atom_site_fract_z
_atom_type_partial_charge
Zn0 Zn 0.05443 0.25558 0.12749 0.0
Zn1 Zn 0.00671 0.25226 0.14032 0.0
O2 O 0.01142 0.28746 0.12529 0.0
O3 O 0.05124 0.29168 0.11728 0.0
O4 O 0.96963 0.25068 0.14521 0.0
O5 O 0.05072 0.22674 0.10379 0.0
O6 O 0.01303 0.22149 0.11863 0.0
C7 C 0.0298 0.30076 0.1178 0.0
C8 C 0.0452 0.24472 0.17933 0.0
O9 O 0.02233 0.24769 0.17448 0.0
O10 O 0.06148 0.24672 0.16271 0.0
C11 C 0.95819 0.26891 0.15437 0.0
O12 O 0.97095 0.28858 0.16217 0.0
C13 C 0.03071 0.21392 0.1053 0.0
Zn14 Zn 0.94733 0.74072 0.43215 0.0
Zn15 Zn 0.98909 0.73722 0.40534 0.0
O16 O 0.98897 0.77481 0.41028 0.0
O17 O 0.95279 0.77804 0.42859 0.0
O18 O 0.01911 0.73139 0.38454 0.0
O19 O 0.96188 0.7205 0.4595 0.0
O20 O 0.99427 0.71531 0.43579 0.0
C21 C 0.97179 0.78813 0.41869 0.0
C22 C 0.93779 0.72152 0.38494 0.0
O23 O 0.96083 0.72666 0.38262 0.0
O24 O 0.92735 0.72371 0.40552 0.0
C25 C 0.02188 0.74239 0.36403 0.0
O26 O 0.00523 0.7583 0.35679 0.0
C27 C 0.98259 0.7107 0.45563 0.0
Zn28 Zn 0.47606 0.69703 0.65786 0.0
Zn29 Zn 0.48675 0.73822 0.6306 0.0
O30 O 0.44967 0.74029 0.63808 0.0
O31 O 0.43975 0.70578 0.65804 0.0
O32 O 0.49162 0.77044 0.61153 0.0
O33 O 0.5005 0.70936 0.68362 0.0
O34 O 0.50994 0.74193 0.66037 0.0
C35 C 0.4335 0.72617 0.64836 0.0
C36 C 0.49764 0.6858 0.61094 0.0
O37 O 0.49715 0.70941 0.60762 0.0
O38 O 0.48959 0.67629 0.63071 0.0
C39 C 0.48754 0.79084 0.6226 0.0
O40 O 0.48214 0.79018 0.64605 0.0
C41 C 0.51331 0.72913 0.67975 0.0
Zn42 Zn 0.48291 0.26352 0.90983 0.0
Zn43 Zn 0.51309 0.26231 0.8709 0.0
O44 O 0.52083 0.2973 0.88492 0.0
O45 O 0.49293 0.2994 0.91429 0.0
O46 O 0.53548 0.26005 0.84125 0.0
O47 O 0.50086 0.23552 0.92586 0.0
O48 O 0.52274 0.23194 0.89214 0.0
C49 C 0.50985 0.30957 0.90143 0.0
C50 C 0.45627 0.25787 0.86538 0.0
O51 O 0.47798 0.26025 0.85632 0.0
O52 O 0.45336 0.25686 0.88835 0.0
C53 C 0.54164 0.27877 0.82799 0.0
O54 O 0.53316 0.30084 0.83339 0.0
C55 C 0.51685 0.22416 0.9135 0.0
Zn56 Zn 0.06904 0.02763 0.2619 0.0
Zn57 Zn 0.10514 0.99443 0.25526 0.0
O58 O 0.09021 0.98598 0.28896 0.0
O59 O 0.05775 0.00979 0.29235 0.0
O60 O 0.12729 0.96463 0.25005 0.0
O61 O 0.05267 0.01937 0.23005 0.0
O62 O 0.08157 0.99152 0.22531 0.0
C63 C 0.07113 0.99266 0.30064 0.0
C64 C 0.11925 0.0498 0.25827 0.0
O65 O 0.12622 0.02745 0.25472 0.0
O66 O 0.09662 0.05398 0.2625 0.0
C67 C 0.13795 0.95279 0.26723 0.0
O68 O 0.13766 0.9618 0.28959 0.0
C69 C 0.06224 0.00233 0.21752 0.0
Zn70 Zn 0.27942 0.82149 0.5072 0.0
Zn71 Zn 0.24585 0.85677 0.51054 0.0
O72 O 0.24436 0.84788 0.47393 0.0
O73 O 0.27473 0.82135 0.47082 0.0
O74 O 0.21789 0.88139 0.51371 0.0
O75 O 0.2613 0.79778 0.52958 0.0
O76 O 0.23633 0.82897 0.53549 0.0
C77 C 0.25823 0.83438 0.46091 0.0
C78 C 0.30061 0.86841 0.52218 0.0
O79 O 0.27866 0.87598 0.51832 0.0
O80 O 0.30519 0.84542 0.52055 0.0
C81 C 0.20624 0.88446 0.53367 0.0
O82 O 0.21361 0.87274 0.55343 0.0
C83 C 0.24321 0.80699 0.54076 0.0
Zn84 Zn 0.42634 0.98075 0.75865 0.0
Zn85 Zn 0.39317 0.01541 0.75165 0.0
O86 O 0.40016 0.01872 0.78879 0.0
O87 O 0.42506 0.9873 0.79465 0.0
O88 O 0.36891 0.04291 0.74468 0.0
O89 O 0.45131 0.99649 0.73609 0.0
O90 O 0.42175 0.02245 0.72683 0.0
C91 C 0.4123 0.00476 0.80313 0.0
C92 C 0.38007 0.96034 0.74221 0.0
O93 O 0.37341 0.98289 0.74448 0.0
O94 O 0.40247 0.95476 0.74566 0.0
C95 C 0.35194 0.04875 0.75963 0.0
O96 O 0.34965 0.03636 0.78031 0.0
C97 C 0.44335 0.01402 0.72295 0.0
Zn98 Zn 0.24274 0.18306 0.98851 0.0
Zn99 Zn 0.2723 0.14582 -0.00126 0.0
O100 O 0.28613 0.16178 0.96693 0.0
O101 O 0.26416 0.19523 0.96089 0.0
O102 O 0.29968 0.12191 0.00619 0.0
O103 O 0.24732 0.19805 0.02159 0.0
O104 O 0.27134 0.16683 0.03081 0.0
C105 C 0.28173 0.18143 0.95474 0.0
C106 C 0.21832 0.13376 0.98676 0.0
O107 O 0.23957 0.12583 -0.00695 0.0
O108 O 0.21536 0.15689 0.98328 0.0
C109 C 0.30969 0.10848 0.98996 0.0
O110 O 0.29991 0.10735 0.9679 0.0
C111 C 0.26065 0.18683 0.03694 0.0
Zn112 Zn 0.78947 0.34851 0.99179 0.0
Zn113 Zn 0.7551 0.38184 -0.00069 0.0
O114 O 0.75396 0.37681 0.96194 0.0
O115 O 0.78642 0.35358 0.9556 0.0
O116 O 0.72883 0.40755 0.0055 0.0
O117 O 0.76982 0.32191 0.00931 0.0
O118 O 0.74347 0.35083 0.01944 0.0
C119 C 0.76867 0.3661 0.94734 0.0
C120 C 0.80915 0.39117 0.01587 0.0
O121 O 0.78745 0.39917 0.01174 0.0
O122 O 0.81438 0.36903 0.01033 0.0
C123 C 0.72569 0.42584 0.99098 0.0
O124 O 0.73987 0.42819 0.97156 0.0
C125 C 0.75078 0.32839 0.02092 0.0
Zn126 Zn 0.92633 0.4469 0.24184 0.0
Zn127 Zn 0.89952 0.48715 0.23142 0.0
O128 O 0.90244 0.48957 0.2688 0.0
O129 O 0.92134 0.45467 0.27761 0.0
O130 O 0.8805 0.51782 0.22172 0.0
O131 O 0.95576 0.46012 0.223 0.0
O132 O 0.9326 0.49171 0.21259 0.0
C133 C 0.91081 0.47431 0.2845 0.0
C134 C 0.88044 0.43418 0.21854 0.0
O135 O 0.87684 0.45749 0.22077 0.0
O136 O 0.90096 0.42515 0.22483 0.0
C137 C 0.85939 0.52256 0.2307 0.0
O138 O 0.84939 0.507 0.2467 0.0
C139 C 0.95298 0.48018 0.2112 0.0
Zn140 Zn 0.7376 0.68967 0.46908 0.0
Zn141 Zn 0.76614 0.65117 0.48102 0.0
O142 O 0.78226 0.66673 0.45025 0.0
O143 O 0.76047 0.69976 0.44172 0.0
O144 O 0.79111 0.62511 0.49017 0.0
O145 O 0.74295 0.70497 0.50195 0.0
O146 O 0.76555 0.67298 0.51234 0.0
C147 C 0.77852 0.68592 0.43715 0.0
C148 C 0.71174 0.64127 0.46717 0.0
O149 O 0.73267 0.63282 0.47382 0.0
O150 O 0.70931 0.6645 0.46388 0.0
C151 C 0.80439 0.61422 0.47441 0.0
O152 O 0.80025 0.61799 0.45099 0.0
C153 C 0.7558 0.69369 0.51768 0.0
Zn154 Zn 0.56747 0.53506 0.73921 0.0
Zn155 Zn 0.60565 0.50385 0.73296 0.0
O156 O 0.59173 0.49655 0.76744 0.0
O157 O 0.5579 0.51829 0.77102 0.0
O158 O 0.63013 0.47558 0.72842 0.0
O159 O 0.55119 0.52457 0.70764 0.0
O160 O 0.58218 0.49905 0.70306 0.0
C161 C 0.57279 0.50267 0.77968 0.0
C162 C 0.61661 0.55989 0.73391 0.0
O163 O 0.62474 0.53787 0.73104 0.0
O164 O 0.59379 0.563 0.73828 0.0
C165 C 0.63916 0.46306 0.74609 0.0
O166 O 0.63465 0.46985 0.76871 0.0
C167 C 0.56206 0.5083 0.69516 0.0
Zn168 Zn 0.94752 0.74981 0.89331 0.0
Zn169 Zn 0.98881 0.75204 0.86644 0.0
O170 O 0.98941 0.78456 0.88658 0.0
O171 O 0.95836 0.78069 0.91249 0.0
O172 O 0.02247 0.75159 0.85085 0.0
O173 O 0.95431 0.7142 0.90426 0.0
O174 O 0.9894 0.71825 0.88417 0.0
C175 C 0.97659 0.79333 0.90401 0.0
C176 C 0.94022 0.75751 0.84041 0.0
O177 O 0.96347 0.75436 0.83838 0.0
O178 O 0.9299 0.75666 0.86124 0.0
C179 C 0.041 0.75003 0.86523 0.0
O180 O 0.03735 0.75049 0.889 0.0
C181 C 0.97478 0.70534 0.89766 0.0
Zn182 Zn 0.03827 0.24464 0.59254 0.0
Zn183 Zn 0.00055 0.24654 0.62172 0.0
O184 O 0.99173 0.26889 0.59164 0.0
O185 O 0.02152 0.26206 0.56522 0.0
O186 O 0.97147 0.24872 0.64509 0.0
O187 O 0.03757 0.20748 0.59598 0.0
O188 O 0.00196 0.20886 0.6155 0.0
C189 C 0.00142 0.27238 0.57051 0.0
C190 C 0.05308 0.26447 0.6373 0.0
O191 O 0.03086 0.25773 0.64248 0.0
O192 O 0.06049 0.26362 0.61538 0.0
C193 C 0.97101 0.26395 0.66295 0.0
O194 O 0.98959 0.28001 0.666 0.0
C195 C 0.01946 0.19641 0.60638 0.0
Zn196 Zn 0.46023 0.23917 0.3927 0.0
Zn197 Zn 0.50241 0.24494 0.36698 0.0
O198 O 0.49937 0.27806 0.38599 0.0
O199 O 0.46503 0.27351 0.40746 0.0
O200 O 0.53648 0.24712 0.35201 0.0
O201 O 0.47268 0.20819 0.40984 0.0
O202 O 0.50518 0.21171 0.38577 0.0
C203 C 0.48344 0.28691 0.40066 0.0
C204 C 0.45428 0.24159 0.33911 0.0
O205 O 0.47775 0.24467 0.33845 0.0
O206 O 0.44314 0.23797 0.35929 0.0
C207 C 0.54524 0.22792 0.34182 0.0
O208 O 0.53111 0.20769 0.33955 0.0
C209 C 0.49297 0.19986 0.40215 0.0
Zn210 Zn 0.49008 0.72359 0.18056 0.0
Zn211 Zn 0.49335 0.76186 0.15067 0.0
O212 O 0.46337 0.76686 0.17367 0.0
O213 O 0.46247 0.73636 0.2006 0.0
O214 O 0.49268 0.79356 0.13072 0.0
O215 O 0.52551 0.72885 0.19007 0.0
O216 O 0.52904 0.76038 0.16436 0.0
C217 C 0.45346 0.75617 0.19223 0.0
C218 C 0.48505 0.71005 0.12978 0.0
O219 O 0.48863 0.73337 0.12627 0.0
O220 O 0.48348 0.70145 0.15136 0.0
C221 C 0.49904 0.79642 0.10846 0.0
O222 O 0.50784 0.77748 0.09631 0.0
C223 C 0.53883 0.74537 0.1795 0.0
Zn224 Zn 0.9139 0.97993 0.73541 0.0
Zn225 Zn 0.88067 0.01474 0.74519 0.0
O226 O 0.90906 0.01965 0.7709 0.0
O227 O 0.93531 0.98977 0.76351 0.0
O228 O 0.85835 0.04446 0.75145 0.0
O229 O 0.92087 0.99513 0.70272 0.0
O230 O 0.89021 0.0207 0.70905 0.0
C231 C 0.92899 0.00832 0.77608 0.0
C232 C 0.86534 0.95903 0.74734 0.0
O233 O 0.85957 0.98183 0.75052 0.0
O234 O 0.88694 0.95385 0.74026 0.0
C235 C 0.86388 0.06555 0.74167 0.0
O236 O 0.88391 0.06768 0.72813 0.0
C237 C 0.90711 0.01235 0.69538 0.0
Zn238 Zn 0.71801 0.17636 0.48272 0.0
Zn239 Zn 0.75567 0.14596 0.48112 0.0
O240 O 0.76082 0.17237 0.45366 0.0
O241 O 0.73194 0.20023 0.458 0.0
O242 O 0.78651 0.12526 0.47764 0.0
O243 O 0.72357 0.18061 0.51872 0.0
O244 O 0.75739 0.15848 0.5167 0.0
C245 C 0.75089 0.19266 0.44697 0.0
C246 C 0.70259 0.12625 0.47254 0.0
O247 O 0.72542 0.12188 0.47656 0.0
O248 O 0.69521 0.14847 0.4721 0.0
C249 C 0.79159 0.10626 0.49056 0.0
O250 O 0.77564 0.09835 0.50716 0.0
C251 C 0.74216 0.17114 0.52904 0.0
Zn252 Zn 0.57697 0.00047 0.2382 0.0
Zn253 Zn 0.61723 0.97478 0.25012 0.0
O254 O 0.59068 0.96719 0.2768 0.0
O255 O 0.55792 0.98908 0.26783 0.0
O256 O 0.64403 0.95012 0.25841 0.0
O257 O 0.57387 0.98272 0.2057 0.0
O258 O 0.61051 0.96747 0.2137 0.0
C259 C 0.56886 0.97421 0.28196 0.0
C260 C 0.62223 0.03084 0.24751 0.0
O261 O 0.63208 0.01013 0.25295 0.0
O262 O 0.59976 0.03132 0.24057 0.0
C263 C 0.6617 0.94516 0.24393 0.0
O264 O 0.66411 0.95794 0.22348 0.0
C265 C 0.59267 0.97094 0.19889 0.0
Zn266 Zn 0.77849 0.83658 0.00722 0.0
Zn267 Zn 0.7479 0.87476 0.00169 0.0
O268 O 0.74234 0.85328 0.97044 0.0
O269 O 0.76753 0.82195 0.97535 0.0
O270 O 0.71987 0.89901 -0.00028 0.0
O271 O 0.76077 0.82478 0.03738 0.0
O272 O 0.73908 0.85889 0.03495 0.0
C273 C 0.75133 0.83295 0.96284 0.0
C274 C 0.80328 0.88586 0.00555 0.0
O275 O 0.78149 0.89408 0.00216 0.0
O276 O 0.8064 0.86268 0.00861 0.0
C277 C 0.69902 0.88736 0.00131 0.0
O278 O 0.69878 0.86285 0.00231 0.0
C279 C 0.74453 0.83888 0.04597 0.0
Zn280 Zn 0.22087 0.66666 -0.0029 0.0
Zn281 Zn 0.25972 0.64115 -0.00394 0.0
O282 O 0.26712 0.6735 0.97542 0.0
O283 O 0.23588 0.69773 0.98329 0.0
O284 O 0.29147 0.62176 -0.0058 0.0
O285 O 0.21724 0.66148 0.03303 0.0
O286 O 0.25422 0.6451 0.0334 0.0
C287 C 0.25644 0.6944 0.97294 0.0
C288 C 0.21139 0.62146 0.97289 0.0
O289 O 0.23298 0.61716 0.98127 0.0
O290 O 0.20262 0.643 0.97498 0.0
C291 C 0.29957 0.61377 0.97389 0.0
O292 O 0.28709 0.61839 0.95374 0.0
C293 C 0.23499 0.65212 0.04476 0.0
Zn294 Zn 0.07329 0.53932 0.74733 0.0
Zn295 Zn 0.10589 0.50405 0.75878 0.0
O296 O 0.07623 0.49822 0.78229 0.0
O297 O 0.04838 0.52547 0.7712 0.0
O298 O 0.12974 0.47659 0.76745 0.0
O299 O 0.07447 0.52863 0.71224 0.0
O300 O 0.09832 0.49743 0.72236 0.0
C301 C 0.05495 0.50777 0.78492 0.0
C302 C 0.11936 0.55977 0.76487 0.0
O303 O 0.12574 0.537 0.76512 0.0
O304 O 0.09755 0.56536 0.75875 0.0
C305 C 0.14745 0.4711 0.75321 0.0
O306 O 0.15066 0.48398 0.73292 0.0
C307 C 0.0864 0.50956 0.70631 0.0
Zn308 Zn 0.27717 0.34739 0.525 0.0
Zn309 Zn 0.24489 0.38203 0.51103 0.0
O310 O 0.2425 0.35507 0.48403 0.0
O311 O 0.26684 0.32535 0.49677 0.0
O312 O 0.2152 0.40334 0.50361 0.0
O313 O 0.26089 0.34299 0.55775 0.0
O314 O 0.235 0.37183 0.54611 0.0
C315 C 0.25185 0.33369 0.48105 0.0
C316 C 0.30008 0.396 0.51258 0.0
O317 O 0.2779 0.40291 0.50845 0.0
O318 O 0.30397 0.37394 0.5198 0.0
C319 C 0.19505 0.39032 0.50352 0.0
O320 O 0.19621 0.36602 0.50634 0.0
C321 C 0.24253 0.35647 0.56204 0.0
Zn322 Zn 0.40609 0.46837 0.21124 0.0
Zn323 Zn 0.37417 0.50394 0.2235 0.0
O324 O 0.40391 0.50876 0.24709 0.0
O325 O 0.4311 0.48092 0.23621 0.0
O326 O 0.35261 0.53344 0.23253 0.0
O327 O 0.40629 0.4803 0.17635 0.0
O328 O 0.38256 0.5113 0.18703 0.0
C329 C 0.42487 0.49862 0.25003 0.0
C330 C 0.36015 0.44781 0.23002 0.0
O331 O 0.35396 0.47071 0.23128 0.0
O332 O 0.38128 0.44235 0.22192 0.0
C333 C 0.33734 0.54376 0.21804 0.0
O334 O 0.33329 0.53397 0.1963 0.0
C335 C 0.39493 0.4999 0.17087 0.0
O336 O 0.04616 0.02644 0.98808 0.0
Mn337 Mn 0.01035 0.00983 0.9912 0.0
O338 O 0.07334 0.99544 0.98755 0.0
Mn339 Mn 0.05072 0.97092 -0.00323 0.0
O340 O 0.97443 0.99368 -0.00571 0.0
O341 O -0.00203 0.04342 0.00167 0.0
Mn342 Mn 0.97096 0.04997 0.9849 0.0
O343 O 0.00407 0.01786 0.95408 0.0
O344 O 0.94777 0.02526 -0.00747 0.0
O345 O 0.0165 0.00171 0.02821 0.0
O346 O 0.04285 0.96993 0.02961 0.0
O347 O 0.97595 0.07689 0.00512 0.0
O348 O 0.98032 0.05165 0.95254 0.0
C349 C 0.02582 0.95418 0.97128 0.0
C350 C 0.06842 0.01847 0.98605 0.0
C351 C 0.95226 0.00217 -0.005 0.0
C352 C 0.99512 0.06476 0.01226 0.0
C353 C 0.99328 0.03526 0.94214 0.0
C354 C 0.02862 0.98521 0.04007 0.0
O355 O 0.02276 0.97604 0.98085 0.0
O356 O 0.04585 0.94312 0.97789 0.0
O357 O 0.2645 0.75023 0.24109 0.0
Mn358 Mn 0.22887 0.7414 0.25328 0.0
O359 O 0.26115 0.77139 0.20577 0.0
Mn360 Mn 0.22715 0.76582 0.20253 0.0
O361 O 0.1932 0.73287 0.26641 0.0
O362 O 0.24351 0.71406 0.27386 0.0
Mn363 Mn 0.23251 0.71606 0.30404 0.0
O364 O 0.23383 0.768 0.28079 0.0
O365 O 0.19842 0.71134 0.30151 0.0
O366 O 0.22436 0.71457 0.22583 0.0
O367 O 0.21725 0.7349 0.19064 0.0
O368 O 0.25356 0.68949 0.30375 0.0
O369 O 0.24317 0.74706 0.31523 0.0
C370 C 0.203 0.78798 0.22365 0.0
C371 C 0.27411 0.76261 0.22321 0.0
C372 C 0.18459 0.72072 0.28503 0.0
C373 C 0.25597 0.69494 0.28078 0.0
C374 C 0.24074 0.76725 0.30324 0.0
C375 C 0.21893 0.71489 0.20298 0.0
O376 O 0.2145 0.76883 0.23224 0.0
O377 O 0.20648 0.79229 0.20055 0.0
O378 O 0.47158 0.97458 0.50478 0.0
Mn379 Mn 0.50678 0.99255 0.50387 0.0
O380 O 0.44325 0.00396 0.49893 0.0
Mn381 Mn 0.46482 0.03019 0.50553 0.0
O382 O 0.54189 0.01037 0.50289 0.0
O383 O 0.52093 0.96073 0.51732 0.0
Mn384 Mn 0.54902 0.95496 0.50217 0.0
O385 O 0.51176 0.98019 0.46785 0.0
O386 O 0.57054 0.98133 0.50896 0.0
O387 O 0.50197 0.00509 0.53992 0.0
O388 O 0.47313 0.03468 0.53815 0.0
O389 O 0.5446 0.92888 0.5236 0.0
O390 O 0.54099 0.95098 0.46935 0.0
C391 C 0.48927 0.04531 0.47882 0.0
C392 C 0.44903 0.98128 0.50155 0.0
C393 C 0.56451 0.00393 0.50608 0.0
C394 C 0.52425 0.93994 0.52888 0.0
C395 C 0.52538 0.96388 0.45752 0.0
C396 C 0.48877 0.0219 0.55003 0.0
O397 O 0.4928 0.02446 0.49025 0.0
O398 O 0.46876 0.05613 0.48406 0.0
O399 O 0.2862 0.26809 0.76858 0.0
Mn400 Mn 0.24992 0.26006 0.75691 0.0
O401 O 0.31026 0.26785 0.73479 0.0
Mn402 Mn 0.28628 0.25608 0.71309 0.0
O403 O 0.21406 0.25216 0.74479 0.0
O404 O 0.24057 0.24994 0.7907 0.0
Mn405 Mn 0.21172 0.26114 0.7998 0.0
O406 O 0.23963 0.29699 0.76403 0.0
O407 O 0.1888 0.24834 0.77739 0.0
O408 O 0.25974 0.2229 0.75039 0.0
O409 O 0.28022 0.22196 0.71462 0.0
O410 O 0.2239 0.24268 0.82587 0.0
O411 O 0.21598 0.2956 0.79812 0.0
C412 C 0.25756 0.28044 0.7017 0.0
C413 C 0.30737 0.27064 0.75783 0.0
C414 C 0.19263 0.2478 0.75435 0.0
C415 C 0.24272 0.23952 0.8117 0.0
C416 C 0.22691 0.30769 0.78088 0.0
C417 C 0.2705 0.21097 0.7331 0.0
O418 O 0.25883 0.26987 0.72278 0.0
O419 O 0.2755 0.27516 0.68708 0.0
O420 O 0.99155 0.97067 0.47561 0.0
Mn421 Mn -0.00073 0.99514 0.50433 0.0
O422 O 0.97702 0.93466 0.4925 0.0
Mn423 Mn 0.98589 0.94158 0.52462 0.0
O424 O 0.00691 0.01961 0.53315 0.0
O425 O 0.01831 0.01681 0.4815 0.0
Mn426 Mn 0.01405 0.04879 0.48542 0.0
O427 O 0.96723 0.01467 0.49652 0.0
O428 O 0.02527 0.0542 0.5171 0.0
O429 O 0.03153 0.97585 0.51231 0.0
O430 O 0.01981 0.94003 0.53136 0.0
O431 O 0.03542 0.04486 0.4588 0.0
O432 O 0.97979 0.05208 0.48114 0.0
C433 C 0.96439 0.96879 0.54401 0.0
C434 C 0.98203 0.94853 0.47405 0.0
C435 C 0.01838 0.0408 0.5353 0.0
C436 C 0.03211 0.02129 0.46299 0.0
C437 C 0.96269 0.03633 0.48756 0.0
C438 C 0.03655 0.95543 0.52353 0.0
O439 O 0.98009 0.9734 0.52706 0.0
O440 O 0.96195 0.9453 0.54904 0.0
O441 O 0.26247 0.79825 0.75698 0.0
Mn442 Mn 0.24598 0.76286 0.76201 0.0
O443 O 0.23214 0.82627 0.75626 0.0
Mn444 Mn 0.20661 0.80298 0.75263 0.0
O445 O 0.23006 0.72737 0.76698 0.0
O446 O 0.27778 0.74772 0.7517 0.0
Mn447 Mn 0.28704 0.72476 0.77256 0.0
O448 O 0.25734 0.76365 0.79896 0.0
O449 O 0.26146 0.70092 0.77255 0.0
O450 O 0.23458 0.76221 0.72539 0.0
O451 O 0.2035 0.78924 0.7216 0.0
O452 O 0.31054 0.72545 0.74807 0.0
O453 O 0.29212 0.74153 0.80165 0.0
C454 C 0.19308 0.78129 0.78286 0.0
C455 C 0.255 0.82085 0.75602 0.0
C456 C 0.23839 0.70535 0.7705 0.0
C457 C 0.29689 0.74258 0.73878 0.0
C458 C 0.27627 0.7559 0.81099 0.0
C459 C 0.21764 0.77282 0.71272 0.0
O460 O 0.21388 0.7779 0.77197 0.0
O461 O 0.18086 0.80001 0.77465 0.0
O462 O 0.47855 0.00804 0.98001 0.0
Mn463 Mn 0.50977 0.0088 0.00282 0.0
O464 O 0.49054 0.99292 0.94353 0.0
Mn465 Mn 0.52404 -0.00054 0.94821 0.0
O466 O 0.5412 0.00858 0.02529 0.0
O467 O 0.49002 0.02805 0.02713 0.0
Mn468 Mn 0.49849 0.01999 0.05712 0.0
O469 O 0.49835 0.97548 0.01949 0.0
O470 O 0.53192 0.02826 0.05997 0.0
O471 O 0.5216 0.04219 0.98665 0.0
O472 O 0.53331 0.03325 0.94806 0.0
O473 O 0.47397 0.04333 0.05996 0.0
O474 O 0.49094 0.98583 0.05891 0.0
C475 C 0.54566 0.97504 0.97075 0.0
C476 C 0.47386 -4e-05 0.95831 0.0
C477 C 0.54747 0.01783 0.04612 0.0
C478 C 0.47359 0.04239 0.03629 0.0
C479 C 0.49221 0.96975 0.04162 0.0
C480 C 0.53031 0.04869 0.9656 0.0
O481 O 0.52919 0.98992 0.97847 0.0
O482 O 0.54776 0.97486 0.94718 0.0
O483 O 0.28217 0.25365 0.26107 0.0
Mn484 Mn 0.24342 0.24752 0.26337 0.0
O485 O 0.29957 0.21928 0.27647 0.0
Mn486 Mn 0.27153 0.20761 0.29222 0.0
O487 O 0.20476 0.24064 0.26583 0.0
O488 O 0.23973 0.28462 0.256 0.0
Mn489 Mn 0.21348 0.28656 0.2367 0.0
O490 O 0.24298 0.23914 0.22604 0.0
O491 O 0.18622 0.27549 0.25402 0.0
O492 O 0.24391 0.25625 0.30054 0.0
O493 O 0.26227 0.22474 0.32017 0.0
O494 O 0.22423 0.31878 0.24059 0.0
O495 O 0.22112 0.26946 0.20827 0.0
C496 C 0.24441 0.18665 0.27205 0.0
C497 C 0.30107 0.24004 0.26521 0.0
C498 C 0.1854 0.25399 0.26371 0.0
C499 C 0.24143 0.30881 0.25369 0.0
C500 C 0.23393 0.2498 0.20701 0.0
C501 C 0.25117 0.2455 0.32024 0.0
O502 O 0.24715 0.21075 0.27096 0.0
O503 O 0.25995 0.17568 0.28631 0.0
O504 O 0.51656 0.49477 0.97061 0.0
Mn505 Mn 0.519 0.5288 0.98868 0.0
O506 O 0.52349 0.46584 -9e-05 0.0
Mn507 Mn 0.52594 0.48687 0.02692 0.0
O508 O 0.52168 0.56261 0.0072 0.0
O509 O 0.53024 0.54505 0.95794 0.0
Mn510 Mn 0.51748 0.57432 0.95277 0.0
O511 O 0.48205 0.53645 0.98011 0.0
O512 O 0.5273 0.59343 0.97955 0.0
O513 O 0.55653 0.52186 -0.00334 0.0
O514 O 0.55748 0.50017 0.03172 0.0
O515 O 0.5378 0.56745 0.92614 0.0
O516 O 0.48348 0.56716 0.9516 0.0
C517 C 0.49427 0.50713 0.0386 0.0
C518 C 0.51996 0.47221 0.9776 0.0
C519 C 0.52554 0.5857 0.00162 0.0
C520 C 0.54112 0.54645 0.93719 0.0
C521 C 0.47148 0.55156 0.96518 0.0
C522 C 0.5685 0.51204 0.01455 0.0
O523 O 0.50747 0.51238 0.01961 0.0
O524 O 0.50169 0.488 0.05079 0.0
O525 O 0.75798 0.27754 0.22105 0.0
Mn526 Mn 0.74125 0.24202 0.22476 0.0
O527 O 0.72755 0.30565 0.22064 0.0
Mn528 Mn 0.70169 0.28252 0.2173 0.0
O529 O 0.72397 0.20639 0.2283 0.0
O530 O 0.77346 0.22719 0.21389 0.0
Mn531 Mn 0.77987 0.20128 0.23245 0.0
O532 O 0.75252 0.24088 0.2614 0.0
O533 O 0.7543 0.1784 0.22816 0.0
O534 O 0.72997 0.2436 0.18806 0.0
O535 O 0.69764 0.26934 0.1862 0.0
O536 O 0.80581 0.20372 0.21093 0.0
O537 O 0.78346 0.21363 0.26394 0.0
C538 C 0.68987 0.26112 0.24836 0.0
C539 C 0.7504 0.30014 0.22042 0.0
C540 C 0.73146 0.18374 0.22872 0.0
C541 C 0.7945 0.22331 0.20336 0.0
C542 C 0.76946 0.22972 0.27354 0.0
C543 C 0.71252 0.25432 0.17617 0.0
O544 O 0.70954 0.25706 0.23581 0.0
O545 O 0.67718 0.27974 0.24068 0.0
O546 O 0.96585 0.4908 0.4694 0.0
Mn547 Mn 0.98738 0.48731 0.50098 0.0
O548 O 0.99201 0.50253 0.43904 0.0
Mn549 Mn 0.02055 0.50555 0.45784 0.0
O550 O 0.00918 0.4836 0.53213 0.0
O551 O 0.95705 0.49279 0.52156 0.0
Mn552 Mn 0.95461 0.46944 0.54419 0.0
O553 O 0.98057 0.44843 0.50009 0.0
O554 O 0.98358 0.47132 0.56262 0.0
O555 O 0.99415 0.52595 0.50228 0.0
O556 O 0.02407 0.53518 0.4749 0.0
O557 O 0.92859 0.49036 0.54954 0.0
O558 O 0.94988 0.44021 0.52692 0.0
C559 C 0.03867 0.47403 0.47322 0.0
C560 C 0.97038 0.4969 0.44706 0.0
C561 C 0.00512 0.47705 0.55439 0.0
C562 C 0.93721 0.50219 0.53057 0.0
C563 C 0.96436 0.43346 0.50994 0.0
C564 C 0.01 0.54125 0.49249 0.0
O565 O 0.01783 0.48245 0.48068 0.0
O566 O 0.04761 0.48545 0.4542 0.0
O567 O 0.79762 0.73874 0.25151 0.0
Mn568 Mn 0.76548 0.73527 0.23059 0.0
O569 O 0.82966 0.74863 0.2264 0.0
Mn570 Mn 0.81281 0.7418 0.1974 0.0
O571 O 0.73326 0.73138 0.20914 0.0
O572 O 0.74887 0.71884 0.25881 0.0
Mn573 Mn 0.71766 0.72591 0.26192 0.0
O574 O 0.75292 0.76974 0.24236 0.0
O575 O 0.7042 0.71326 0.23328 0.0
O576 O 0.7777 0.70061 0.21889 0.0
O577 O 0.80845 0.70764 0.19156 0.0
O578 O 0.72635 0.70673 0.28901 0.0
O579 O 0.71817 0.76079 0.26418 0.0
C580 C 0.78455 0.7672 0.18527 0.0
C581 C 0.82067 0.74403 0.24757 0.0
C582 C 0.71187 0.72072 0.21239 0.0
C583 C 0.74831 0.70792 0.27963 0.0
C584 C 0.73394 0.77639 0.25483 0.0
C585 C 0.79407 0.69285 0.20376 0.0
O586 O 0.78263 0.75172 0.20292 0.0
O587 O 0.80581 0.7667 0.17446 0.0
O588 O 0.79139 0.26508 0.7425 0.0
Mn589 Mn 0.75222 0.26546 0.74141 0.0
O590 O 0.80493 0.29785 0.72034 0.0
Mn591 Mn 0.77691 0.29726 0.70098 0.0
O592 O 0.71302 0.26634 0.73976 0.0
O593 O 0.75291 0.23325 0.76178 0.0
Mn594 Mn 0.72696 0.23602 0.78141 0.0
O595 O 0.7521 0.28725 0.77276 0.0
O596 O 0.69879 0.23466 0.76255 0.0
O597 O 0.75273 0.24419 0.70963 0.0
O598 O 0.77264 0.26877 0.68196 0.0
O599 O 0.74043 0.20689 0.7905 0.0
O600 O 0.73092 0.26441 0.80056 0.0
C601 C 0.7457 0.31834 0.71187 0.0
C602 C 0.8089 0.28004 0.73509 0.0
C603 C 0.69517 0.25191 0.7472 0.0
C604 C 0.75602 0.21199 0.77305 0.0
C605 C 0.74207 0.28452 0.79385 0.0
C606 C 0.76228 0.24807 0.68838 0.0
O607 O 0.75179 0.29721 0.72143 0.0
O608 O 0.76017 0.32598 0.69437 0.0
O609 O 0.7763 0.76787 0.74246 0.0
Mn610 Mn 0.73738 0.76329 0.74033 0.0
O611 O 0.79135 0.73164 0.75558 0.0
Mn612 Mn 0.7616 0.72113 0.7689 0.0
O613 O 0.69837 0.75907 0.73848 0.0
O614 O 0.7362 0.80067 0.734 0.0
Mn615 Mn 0.71416 0.80553 0.71064 0.0
O616 O 0.74057 0.75604 0.70299 0.0
O617 O 0.68398 0.7946 0.72262 0.0
O618 O 0.73456 0.77046 0.77766 0.0
O619 O 0.75141 0.73772 0.79681 0.0
O620 O 0.72602 0.83676 0.71866 0.0
O621 O 0.72584 0.78936 0.68315 0.0
C622 C 0.73486 0.70172 0.74731 0.0
C623 C 0.7945 0.75345 0.74687 0.0
C624 C 0.68047 0.77348 0.73279 0.0
C625 C 0.73983 0.82474 0.73383 0.0
C626 C 0.73613 0.76819 0.68324 0.0
C627 C 0.74053 0.7586 0.79718 0.0
O628 O 0.73843 0.72582 0.74662 0.0
O629 O 0.74936 0.68985 0.76195 0.0
O630 O 0.54362 0.52905 0.46115 0.0
Mn631 Mn 0.50842 0.51173 0.46644 0.0
O632 O 0.57164 0.49912 0.45846 0.0
Mn633 Mn 0.55079 0.47503 0.47176 0.0
O634 O 0.47275 0.49543 0.47207 0.0
O635 O 0.49594 0.54616 0.47381 0.0
Mn636 Mn 0.46831 0.55046 0.45715 0.0
O637 O 0.50107 0.51606 0.42877 0.0
O638 O 0.44575 0.52659 0.46832 0.0
O639 O 0.51628 0.50639 0.50396 0.0
O640 O 0.54569 0.47728 0.50504 0.0
O641 O 0.47392 0.5798 0.47363 0.0
O642 O 0.47622 0.54871 0.42446 0.0
C643 C 0.52416 0.455 0.45053 0.0
C644 C 0.56588 0.52192 0.45728 0.0
C645 C 0.45053 0.50387 0.47288 0.0
C646 C 0.49342 0.56876 0.48166 0.0
C647 C 0.48946 0.53177 0.41541 0.0
C648 C 0.53081 0.49177 0.51575 0.0
O649 O 0.52121 0.47757 0.45832 0.0
O650 O 0.54519 0.4453 0.45609 0.0
O651 O 0.9781 0.49084 0.01354 0.0
Mn652 Mn 0.01384 0.50273 0.00428 0.0
O653 O 0.95819 0.52439 0.02749 0.0
Mn654 Mn 0.98547 0.54626 0.02669 0.0
O655 O 0.04951 0.5148 -0.00518 0.0
O656 O 0.02516 0.46738 0.00817 0.0
Mn657 Mn 0.04334 0.45913 0.98288 0.0
O658 O 0.00548 0.49712 0.96703 0.0
O659 O 0.07041 0.48124 0.98247 0.0
O660 O 0.0222 0.5079 0.04158 0.0
O661 O 0.00677 0.5445 0.05305 0.0
O662 O 0.0427 0.43162 0.00303 0.0
O663 O 0.02242 0.46086 0.95619 0.0
C664 C -0.002 0.56032 -0.00763 0.0
C665 C 0.95867 0.5013 0.02189 0.0
C666 C 0.06926 0.50452 0.98703 0.0
C667 C 0.02914 0.44535 0.01678 0.0
C668 C 0.00899 0.47949 0.9515 0.0
C669 C 0.01931 0.52524 0.05753 0.0
O670 O 0.00259 0.53821 0.00052 0.0
O671 O 0.98533 0.57399 0.00702 0.0
H672 H 0.99628 0.17654 0.11374 0.0
H673 H 0.03765 0.09149 0.00476 0.0
H674 H 0.06145 0.19421 0.0707 0.0
H675 H 0.98694 0.06648 0.06084 0.0
H676 H 0.05095 0.12645 0.0309 0.0
H677 H 0.99467 0.13487 0.09582 0.0
C678 C 0.01018 0.17172 0.10039 0.0
C679 C 0.02885 0.18905 0.0935 0.0
C680 C 0.0376 0.11282 0.03794 0.0
C681 C 0.02728 0.1411 0.07304 0.0
C682 C 0.03045 0.09252 0.02321 0.0
C683 C 0.01151 0.07594 0.03088 0.0
C684 C 0.02519 0.11672 0.06015 0.0
C685 C 0.00187 0.07874 0.05447 0.0
C686 C 0.00944 0.14778 0.09038 0.0
C687 C 0.0466 0.18154 0.0764 0.0
N688 N 0.00836 0.09911 0.06806 0.0
N689 N 0.04523 0.15821 0.06657 0.0
H690 H 0.03757 0.76716 0.32258 0.0
H691 H 0.15872 0.68528 0.31072 0.0
H692 H 0.05556 0.70566 0.37001 0.0
H693 H 0.14922 0.75379 0.27056 0.0
H694 H 0.11667 0.68818 0.32632 0.0
H695 H 0.07459 0.75892 0.29822 0.0
C696 C 0.0492 0.75185 0.32779 0.0
C697 C 0.0436 0.73723 0.34852 0.0
C698 C 0.12359 0.70246 0.31387 0.0
C699 C 0.08574 0.72759 0.32062 0.0
C700 C 0.14759 0.70074 0.30484 0.0
C701 C 0.15759 0.7195 0.28958 0.0
C702 C 0.10947 0.72323 0.30783 0.0
C703 C 0.14222 0.73895 0.28233 0.0
C704 C 0.0703 0.74716 0.31386 0.0
C705 C 0.05927 0.71759 0.35435 0.0
N706 N 0.119 0.74055 0.29186 0.0
N707 N 0.07962 0.71342 0.34054 0.0
H708 H 0.48534 0.79842 0.57302 0.0
H709 H 0.5199 0.94158 0.5784 0.0
H710 H 0.48934 0.83812 0.6417 0.0
H711 H 0.49024 0.90578 0.51374 0.0
H712 H 0.50516 0.90585 0.60295 0.0
H713 H 0.48537 0.83837 0.55136 0.0
C714 C 0.48626 0.81555 0.58355 0.0
C715 C 0.4876 0.81491 0.6092 0.0
C716 C 0.50103 0.90618 0.58353 0.0
C717 C 0.48756 0.86081 0.58452 0.0
C718 C 0.50906 0.92679 0.56961 0.0
C719 C 0.50586 0.92672 0.54413 0.0
C720 C 0.49042 0.88518 0.57165 0.0
C721 C 0.49264 0.90667 0.53343 0.0
C722 C 0.48601 0.83838 0.57119 0.0
C723 C 0.48842 0.83773 0.6219 0.0
N724 N 0.48588 0.88644 0.54713 0.0
N725 N 0.48871 0.85975 0.60943 0.0
H726 H 0.40764 0.25915 0.87917 0.0
H727 H 0.35531 0.26521 0.74317 0.0
H728 H 0.4547 0.26009 0.81526 0.0
H729 H 0.31156 0.2832 0.80647 0.0
H730 H 0.39179 0.26283 0.76917 0.0
H731 H 0.37176 0.26548 0.85281 0.0
C732 C 0.41043 0.26047 0.85957 0.0
C733 C 0.43424 0.25908 0.84938 0.0
C734 C 0.37424 0.2674 0.77741 0.0
C735 C 0.39325 0.26663 0.81921 0.0
C736 C 0.35334 0.26891 0.76255 0.0
C737 C 0.33008 0.27368 0.77283 0.0
C738 C 0.3719 0.27054 0.80276 0.0
C739 C 0.32888 0.27848 0.79801 0.0
C740 C 0.38994 0.26433 0.84458 0.0
C741 C 0.4367 0.26103 0.82389 0.0
N742 N 0.34946 0.27646 0.81223 0.0
N743 N 0.41642 0.2647 0.80966 0.0
H744 H 0.933 0.81922 0.41639 0.0
H745 H 0.01916 0.93533 0.444 0.0
H746 H 0.01295 0.81896 0.41306 0.0
H747 H 0.9397 0.93251 0.45178 0.0
H748 H 0.01639 0.89859 0.41748 0.0
H749 H 0.93456 0.86457 0.4151 0.0
C750 C 0.95093 0.82878 0.41537 0.0
C751 C 0.97294 0.81543 0.41575 0.0
C752 C -0.00056 0.90659 0.42413 0.0
C753 C 0.97489 0.86744 0.4144 0.0
C754 C 0.00101 0.92777 0.43895 0.0
C755 C 0.97961 0.93651 0.45018 0.0
C756 C 0.97634 0.8942 0.421 0.0
C757 C 0.95658 0.92601 0.44352 0.0
C758 C 0.95181 0.85469 0.41436 0.0
C759 C 0.99559 0.82866 0.41344 0.0
N760 N 0.95557 0.90496 0.4298 0.0
N761 N 0.99604 0.85405 0.41346 0.0
H762 H 0.39162 0.69683 0.64738 0.0
H763 H 0.32366 0.78486 0.72905 0.0
H764 H 0.41683 0.77355 0.6542 0.0
H765 H 0.28692 0.72163 0.69501 0.0
H766 H 0.35291 0.78712 0.69505 0.0
H767 H 0.3498 0.70911 0.65795 0.0
C768 C 0.38818 0.71636 0.65076 0.0
C769 C 0.40767 0.73413 0.65045 0.0
C770 C 0.33772 0.7735 0.69429 0.0
C771 C 0.35999 0.74836 0.66311 0.0
C772 C 0.32075 0.77251 0.71357 0.0
C773 C 0.30299 0.75301 0.71475 0.0
C774 C 0.33714 0.75436 0.67668 0.0
C775 C 0.30041 0.73697 0.69465 0.0
C776 C 0.36426 0.72345 0.65661 0.0
C777 C 0.40225 0.75926 0.65455 0.0
N778 N 0.31784 0.73745 0.67677 0.0
N779 N 0.379 0.76556 0.66144 0.0
H780 H 0.54326 0.18875 0.88915 0.0
H781 H 0.52253 0.08852 -0.004 0.0
H782 H 0.51204 0.20535 0.95981 0.0
H783 H 0.5493 0.07034 0.92386 0.0
H784 H 0.52556 0.13272 0.98535 0.0
H785 H 0.55266 0.14687 0.90389 0.0
C786 C 0.53876 0.18376 0.90787 0.0
C787 C 0.52649 0.20046 0.92313 0.0
C788 C 0.53104 0.11907 0.97194 0.0
C789 C 0.537 0.15256 0.94005 0.0
C790 C 0.52936 0.09378 0.97803 0.0
C791 C 0.53531 0.07557 0.96069 0.0
C792 C 0.53865 0.12627 0.94832 0.0
C793 C 0.54419 0.08364 0.93775 0.0
C794 C 0.54404 0.15981 0.91626 0.0
C795 C 0.52118 0.19299 0.94727 0.0
N796 N 0.54532 0.10835 0.93214 0.0
N797 N 0.52621 0.16953 0.95487 0.0
H798 H 0.06303 0.2005 0.19351 0.0
H799 H 0.14663 0.27573 0.28612 0.0
H800 H 0.04859 0.27439 0.21981 0.0
H801 H 0.16698 0.20905 0.24802 0.0
H802 H 0.103 0.26615 0.27685 0.0
H803 H 0.09163 0.19454 0.22772 0.0
C804 C 0.06513 0.21506 0.20718 0.0
C805 C 0.05369 0.23799 0.20393 0.0
C806 C 0.11689 0.25303 0.27141 0.0
C807 C 0.08711 0.23183 0.24236 0.0
C808 C 0.14177 0.25839 0.27686 0.0
C809 C 0.16039 0.24314 0.26775 0.0
C810 C 0.11075 0.23254 0.25637 0.0
C811 C 0.15322 0.22103 0.25573 0.0
C812 C 0.08158 0.21174 0.22659 0.0
C813 C 0.05713 0.25643 0.22183 0.0
N814 N 0.12898 0.21671 0.24983 0.0
N815 N 0.07407 0.2532 0.24001 0.0
H816 H 0.02589 0.02663 0.19267 0.0
H817 H 0.04525 0.94863 0.07023 0.0
H818 H 0.07544 0.96495 0.18632 0.0
H819 H 0.00974 0.01996 0.07163 0.0
H820 H 0.04881 0.94984 0.11459 0.0
H821 H 0.01267 0.01981 0.15033 0.0
C822 C 0.03379 0.01145 0.18249 0.0
C823 C 0.05205 0.9965 0.19297 0.0
C824 C 0.04006 0.96514 0.10524 0.0
C825 C 0.03692 0.98866 0.14455 0.0
C826 C 0.03799 0.9645 0.07987 0.0
C827 C 0.02757 0.98447 0.06711 0.0
C828 C 0.03169 0.98591 0.11808 0.0
C829 C 0.0181 0.00427 0.08069 0.0
C830 C 0.02625 0.00764 0.1583 0.0
C831 C 0.06152 0.97708 0.17892 0.0
N832 N 0.02065 0.00463 0.10549 0.0
N833 N 0.05395 0.97382 0.15537 0.0
H834 H 0.29594 0.83011 0.42896 0.0
H835 H 0.20568 0.79878 0.31904 0.0
H836 H 0.21693 0.84037 0.43189 0.0
H837 H 0.28427 0.78642 0.31996 0.0
H838 H 0.21074 0.82622 0.35478 0.0
H839 H 0.29325 0.8261 0.38471 0.0
C840 C 0.27798 0.83158 0.42017 0.0
C841 C 0.2565 0.83479 0.43404 0.0
C842 C 0.22701 0.81825 0.34664 0.0
C843 C 0.25316 0.82988 0.38333 0.0
C844 C 0.22415 0.80284 0.32614 0.0
C845 C 0.24462 0.79038 0.31693 0.0
C846 C 0.25047 0.82082 0.35783 0.0
C847 C 0.2681 0.79575 0.32676 0.0
C848 C 0.27646 0.82948 0.39487 0.0
C849 C 0.23383 0.83741 0.42177 0.0
N850 N 0.27034 0.81025 0.34699 0.0
N851 N 0.23263 0.83429 0.39705 0.0
H852 H 0.48578 0.99382 0.7051 0.0
H853 H 0.47136 0.06126 0.57585 0.0
H854 H 0.43262 0.0507 0.68965 0.0
H855 H 0.50853 0.9915 0.58555 0.0
H856 H 0.46644 0.06429 0.62002 0.0
H857 H 0.50322 -0.00012 0.66425 0.0
C858 C 0.47808 0.00798 0.69336 0.0
C859 C 0.45737 0.0215 0.70072 0.0
C860 C 0.47595 0.04847 0.61253 0.0
C861 C 0.47731 0.02839 0.65389 0.0
C862 C 0.47879 0.04668 0.58728 0.0
C863 C 0.48995 0.02579 0.57688 0.0
C864 C 0.48426 0.02924 0.62765 0.0
C865 C 0.49962 0.0078 0.59272 0.0
C866 C 0.48802 0.01131 0.66998 0.0
C867 C 0.44836 0.03966 0.6847 0.0
N868 N 0.49623 0.00976 0.61735 0.0
N869 N 0.45821 0.04236 0.66193 0.0
H870 H 0.29194 0.14835 0.91849 0.0
H871 H 0.28313 0.26273 0.83022 0.0
H872 H 0.29871 0.22624 0.93756 0.0
H873 H 0.25038 0.18998 0.81709 0.0
H874 H 0.31048 0.24486 0.86096 0.0
H875 H 0.29797 0.15952 0.87526 0.0
C876 C 0.29584 0.16767 0.91368 0.0
C877 C 0.29424 0.18654 0.93133 0.0
C878 C 0.29822 0.23252 0.85052 0.0
C879 C 0.30107 0.19934 0.88234 0.0
C880 C 0.283 0.24268 0.83261 0.0
C881 C 0.26502 0.22768 0.82086 0.0
C882 C 0.29458 0.20739 0.85727 0.0
C883 C 0.2643 0.20203 0.82568 0.0
C884 C 0.29918 0.17404 0.88904 0.0
C885 C 0.29932 0.21126 0.9243 0.0
N886 N 0.27847 0.19271 0.84399 0.0
N887 N 0.30207 0.21702 0.90025 0.0
H888 H 0.02578 0.9831 0.32044 0.0
H889 H 0.07869 0.00978 0.44898 0.0
H890 H 0.10401 0.97952 0.33626 0.0
H891 H 0.00145 0.99278 0.43498 0.0
H892 H 0.0893 0.9891 0.41058 0.0
H893 H 0.01681 0.97632 0.36366 0.0
C894 C 0.04104 0.98034 0.33305 0.0
C895 C 0.06564 0.98242 0.32504 0.0
C896 C 0.0701 0.98895 0.41634 0.0
C897 C 0.05567 0.97552 0.37461 0.0
C898 C 0.06411 0.0007 0.43826 0.0
C899 C 0.03925 0.00256 0.44511 0.0
C900 C 0.05093 0.97994 0.40092 0.0
C901 C 0.02088 0.99107 0.43056 0.0
C902 C 0.03596 0.9764 0.35773 0.0
C903 C 0.08478 0.97832 0.3419 0.0
N904 N 0.02704 0.98067 0.40886 0.0
N905 N 0.07943 0.9758 0.3661 0.0
H906 H 0.25552 0.76118 0.55888 0.0
H907 H 0.24903 0.74619 0.68384 0.0
H908 H 0.20702 0.82257 0.57193 0.0
H909 H 0.18249 0.78912 0.68058 0.0
H910 H 0.25095 0.74682 0.63937 0.0
H911 H 0.24459 0.74404 0.59888 0.0
C912 C 0.24237 0.77095 0.57006 0.0
C913 C 0.23272 0.79377 0.56231 0.0
C914 C 0.23543 0.75542 0.64819 0.0
C915 C 0.22077 0.77467 0.60855 0.0
C916 C 0.23447 0.75519 0.67375 0.0
C917 C 0.21597 0.76812 0.68604 0.0
C918 C 0.21764 0.76865 0.63484 0.0
C919 C 0.19743 0.77932 0.67196 0.0
C920 C 0.23636 0.76127 0.59309 0.0
C921 C 0.21534 0.80524 0.57734 0.0
N922 N 0.19903 0.77973 0.64717 0.0
N923 N 0.21022 0.79576 0.59988 0.0
H924 H 0.40984 0.04689 0.83206 0.0
H925 H 0.44099 0.96307 0.94572 0.0
H926 H 0.40795 0.96645 0.83477 0.0
H927 H 0.45248 0.04285 0.9447 0.0
H928 H 0.41251 0.96638 0.91114 0.0
H929 H 0.41134 0.04776 0.87721 0.0
C930 C 0.4093 0.02949 0.84219 0.0
C931 C 0.40965 0.00658 0.82987 0.0
C932 C 0.42056 0.98334 0.9189 0.0
C933 C 0.41077 0.00734 0.88099 0.0
C934 C 0.43651 0.98142 0.93889 0.0
C935 C 0.44916 0.00268 0.94769 0.0
C936 C 0.41823 0.00655 0.90712 0.0
C937 C 0.44304 0.02604 0.93817 0.0
C938 C 0.41004 0.02996 0.86787 0.0
C939 C 0.40852 0.98452 0.84365 0.0
N940 N 0.42863 0.02733 0.91773 0.0
N941 N 0.4094 0.98545 0.8684 0.0
H942 H 0.27497 0.16243 0.07911 0.0
H943 H 0.22229 0.27064 0.16309 0.0
H944 H 0.24842 0.23289 0.05273 0.0
H945 H 0.25811 0.20672 0.1943 0.0
H946 H 0.23203 0.25585 0.12256 0.0
H947 H 0.2704 0.1775 0.12139 0.0
C948 C 0.26858 0.18115 0.08218 0.0
C949 C 0.2618 0.19633 0.06237 0.0
C950 C 0.23787 0.24497 0.13818 0.0
C951 C 0.2563 0.21346 0.11041 0.0
C952 C 0.23216 0.25338 0.16148 0.0
C953 C 0.23931 0.23991 0.18229 0.0
C954 C 0.25075 0.22275 0.13535 0.0
C955 C 0.2522 0.21771 0.17879 0.0
C956 C 0.26585 0.18968 0.10627 0.0
C957 C 0.25356 0.22039 0.06738 0.0
N958 N 0.25746 0.20974 0.15571 0.0
N959 N 0.25089 0.22807 0.09081 0.0
H960 H 0.21691 0.08256 0.99029 0.0
H961 H 0.06857 0.06994 0.98165 0.0
H962 H 0.16995 0.14547 0.97806 0.0
H963 H 0.11751 0.00745 0.98413 0.0
H964 H 0.10511 0.09827 0.98022 0.0
H965 H 0.18025 0.05481 0.9881 0.0
C966 C 0.19894 0.09054 0.98705 0.0
C967 C 0.19657 0.11639 0.98441 0.0
C968 C 0.10775 0.07832 0.98096 0.0
C969 C 0.15441 0.08475 0.982 0.0
C970 C 0.08689 0.06217 0.98184 0.0
C971 C 0.08983 0.03627 0.98328 0.0
C972 C 0.13169 0.06845 0.9816 0.0
C973 C 0.11413 0.02725 0.98318 0.0
C974 C 0.17798 0.07469 0.98578 0.0
C975 C 0.17272 0.12565 0.98021 0.0
N976 N 0.134 0.04327 0.98251 0.0
N977 N 0.15258 0.10987 0.97927 0.0
H978 H 0.70779 0.46108 0.95949 0.0
H979 H 0.60065 0.50068 0.05142 0.0
H980 H 0.6979 0.43144 0.03245 0.0
H981 H 0.59826 0.51564 0.97375 0.0
H982 H 0.64207 0.48419 0.04667 0.0
H983 H 0.67293 0.48865 0.9663 0.0
C984 C 0.69845 0.46051 0.97702 0.0
C985 C 0.70564 0.44371 -0.00465 0.0
C986 C 0.63267 0.49144 0.03072 0.0
C987 C 0.66591 0.47542 0.00329 0.0
C988 C 0.60907 0.50107 0.03343 0.0
C989 C 0.59574 0.50922 0.01289 0.0
C990 C 0.64313 0.48988 0.00729 0.0
C991 C 0.60776 0.50947 0.99009 0.0
C992 C 0.67856 0.47626 0.98086 0.0
C993 C 0.69287 0.44387 0.0177 0.0
N994 N 0.63064 0.49951 0.98782 0.0
N995 N 0.67361 0.45939 0.021 0.0
H996 H 0.88391 0.3878 0.19883 0.0
H997 H 0.74741 0.34738 0.23862 0.0
H998 H 0.83056 0.44062 0.22391 0.0
H999 H 0.79355 0.30076 0.19484 0.0
H1000 H 0.77743 0.38201 0.23318 0.0
H1001 H 0.85089 0.35592 0.19606 0.0
C1002 C 0.86511 0.39279 0.20332 0.0
C1003 C 0.85995 0.41678 0.21181 0.0
C1004 C 0.78106 0.36415 0.22483 0.0
C1005 C 0.8222 0.38028 0.20924 0.0
C1006 C 0.76404 0.34438 0.22806 0.0
C1007 C 0.76866 0.3209 0.21797 0.0
C1008 C 0.8028 0.36037 0.21139 0.0
C1009 C 0.79016 0.3181 0.20408 0.0
C1010 C 0.84628 0.37457 0.20179 0.0
C1011 C 0.8353 0.42232 0.21728 0.0
N1012 N 0.80657 0.33754 0.20133 0.0
N1013 N 0.81736 0.40404 0.21631 0.0
H1014 H 0.82098 0.60647 0.52115 0.0
H1015 H 0.93011 0.5164 0.48245 0.0
H1016 H 0.83699 0.58862 0.44584 0.0
H1017 H 0.91299 0.5363 0.5568 0.0
H1018 H 0.89972 0.54633 0.46788 0.0
H1019 H 0.85711 0.58336 0.53393 0.0
C1020 C 0.83203 0.5976 0.50727 0.0
C1021 C 0.82578 0.59936 0.48239 0.0
C1022 C 0.90298 0.54448 0.48737 0.0
C1023 C 0.8675 0.57288 0.49693 0.0
C1024 C 0.92062 0.52763 0.49565 0.0
C1025 C 0.92409 0.5239 0.52083 0.0
C1026 C 0.88878 0.55752 0.50449 0.0
C1027 C 0.91076 0.53852 0.5372 0.0
C1028 C 0.8528 0.58449 0.51458 0.0
C1029 C 0.84101 0.58763 0.46525 0.0
N1030 N 0.89357 0.55447 0.52878 0.0
N1031 N 0.8611 0.57479 0.47284 0.0
H1032 H 0.11019 0.09866 0.26823 0.0
H1033 H 0.24922 0.1468 0.24251 0.0
H1034 H 0.16859 0.05064 0.2447 0.0
H1035 H 0.19478 0.19079 0.27877 0.0
H1036 H 0.21758 0.11397 0.23535 0.0
H1037 H 0.13886 0.13442 0.26554 0.0
C1038 C 0.12907 0.09556 0.26248 0.0
C1039 C 0.13701 0.07143 0.25688 0.0
C1040 C 0.21232 0.13107 0.24427 0.0
C1041 C 0.16999 0.11267 0.25357 0.0
C1042 C 0.23026 0.14994 0.24802 0.0
C1043 C 0.2243 0.17177 0.26058 0.0
C1044 C 0.18831 0.13391 0.25354 0.0
C1045 C 0.19979 0.17465 0.26816 0.0
C1046 C 0.14542 0.1161 0.26089 0.0
C1047 C 0.16169 0.06879 0.24941 0.0
N1048 N 0.18269 0.1558 0.26475 0.0
N1049 N 0.17731 0.08915 0.24803 0.0
H1050 H 0.30114 0.91893 0.5143 0.0
H1051 H 0.44933 0.93363 0.52054 0.0
H1052 H 0.34853 0.85851 0.53465 0.0
H1053 H 0.40097 0.9875 0.48799 0.0
H1054 H 0.41293 0.90655 0.529 0.0
H1055 H 0.33787 0.94617 0.50991 0.0
C1056 C 0.3192 0.91151 0.51831 0.0
C1057 C 0.32176 0.88634 0.52457 0.0
C1058 C 0.41039 0.92427 0.5199 0.0
C1059 C 0.36393 0.91724 0.51909 0.0
C1060 C 0.43118 0.93957 0.51483 0.0
C1061 C 0.42824 0.96286 0.50357 0.0
C1062 C 0.38658 0.93245 0.51374 0.0
C1063 C 0.40418 0.96979 0.49685 0.0
C1064 C 0.34022 0.92699 0.51553 0.0
C1065 C 0.3457 0.87775 0.52951 0.0
N1066 N 0.38434 0.95475 0.50216 0.0
N1067 N 0.36589 0.89311 0.52645 0.0
H1068 H 0.81612 0.5405 0.2493 0.0
H1069 H 0.82627 0.6685 0.17378 0.0
H1070 H 0.87369 0.55783 0.19673 0.0
H1071 H 0.77363 0.65515 0.23211 0.0
H1072 H 0.83966 0.62558 0.17772 0.0
H1073 H 0.79677 0.58007 0.23946 0.0
C1074 C 0.82464 0.55253 0.23558 0.0
C1075 C 0.84671 0.54587 0.22397 0.0
C1076 C 0.82499 0.63194 0.18948 0.0
C1077 C 0.82455 0.59125 0.21257 0.0
C1078 C 0.81721 0.65648 0.18717 0.0
C1079 C 0.79892 0.66568 0.2028 0.0
C1080 C 0.81449 0.61636 0.20759 0.0
C1081 C 0.78785 0.64902 0.2197 0.0
C1082 C 0.81355 0.57514 0.22997 0.0
C1083 C 0.8568 0.56223 0.20629 0.0
N1084 N 0.79599 0.62528 0.22181 0.0
N1085 N 0.84571 0.58416 0.20122 0.0
H1086 H 0.64844 0.4409 0.70192 0.0
H1087 H 0.728 0.32971 0.75797 0.0
H1088 H 0.66078 0.4319 0.77955 0.0
H1089 H 0.71561 0.34223 0.68097 0.0
H1090 H 0.69928 0.36349 0.76724 0.0
H1091 H 0.66991 0.40213 0.69466 0.0
C1092 C 0.65575 0.43084 0.71746 0.0
C1093 C 0.65293 0.43987 0.74136 0.0
C1094 C 0.70254 0.35849 0.74833 0.0
C1095 C 0.67754 0.39508 0.7332 0.0
C1096 C 0.71866 0.33901 0.74309 0.0
C1097 C 0.72415 0.33327 0.71868 0.0
C1098 C 0.69199 0.37213 0.72897 0.0
C1099 C 0.71194 0.34619 0.70004 0.0
C1100 C 0.66792 0.40856 0.71333 0.0
C1101 C 0.66263 0.42577 0.76078 0.0
N1102 N 0.69667 0.36508 0.70555 0.0
N1103 N 0.67458 0.40415 0.75628 0.0
H1104 H 0.00907 0.82831 0.88494 0.0
H1105 H 0.98325 0.93087 0.98557 0.0
H1106 H 0.95381 0.81821 0.94139 0.0
H1107 H 0.03066 0.94342 0.92336 0.0
H1108 H 0.96692 0.89251 0.96649 0.0
H1109 H 0.01412 0.87202 0.89673 0.0
C1110 C -0.0019 0.83521 0.89995 0.0
C1111 C 0.98117 0.81941 0.91235 0.0
C1112 C 0.98024 0.90407 0.95654 0.0
C1113 C 0.98663 0.86977 0.92578 0.0
C1114 C 0.98905 0.92633 0.96719 0.0
C1115 C 0.00792 0.94049 0.95578 0.0
C1116 C 0.99081 0.89582 0.93458 0.0
C1117 C 0.01582 0.93313 0.93254 0.0
C1118 C 0.0008 0.86031 0.90651 0.0
C1119 C 0.96725 0.82961 0.93144 0.0
N1120 N 0.00763 0.91103 0.92291 0.0
N1121 N 0.9704 0.85408 0.93767 0.0
H1122 H 0.96087 0.29778 0.6989 0.0
H1123 H 0.82895 0.23418 0.73007 0.0
H1124 H 0.93273 0.22931 0.6663 0.0
H1125 H 0.84831 0.3114 0.74417 0.0
H1126 H 0.87198 0.22719 0.718 0.0
H1127 H 0.92439 0.29827 0.72538 0.0
C1128 C 0.94713 0.28274 0.69741 0.0
C1129 C 0.94969 0.26369 0.68004 0.0
C1130 C 0.86697 0.24549 0.72445 0.0
C1131 C 0.90801 0.26399 0.71056 0.0
C1132 C 0.84252 0.24937 0.73175 0.0
C1133 C 0.83511 0.27344 0.73798 0.0
C1134 C 0.88402 0.26579 0.72361 0.0
C1135 C 0.85333 0.29259 0.73938 0.0
C1136 C 0.92634 0.283 0.7126 0.0
C1137 C 0.93136 0.24457 0.67915 0.0
N1138 N 0.87685 0.28846 0.73186 0.0
N1139 N 0.91122 0.2453 0.69407 0.0
H1140 H 0.51409 0.16189 0.37681 0.0
H1141 H 0.52353 0.07765 0.49652 0.0
H1142 H 0.49262 0.18391 0.44946 0.0
H1143 H 0.49367 0.04764 0.42922 0.0
H1144 H 0.53358 0.1169 0.47544 0.0
H1145 H 0.52521 0.12065 0.39309 0.0
C1146 C 0.5122 0.15819 0.39623 0.0
C1147 C 0.50217 0.17609 0.41185 0.0
C1148 C 0.52591 0.10131 0.46501 0.0
C1149 C 0.51566 0.12976 0.43049 0.0
C1150 C 0.52062 0.07874 0.4769 0.0
C1151 C 0.50782 0.05941 0.46454 0.0
C1152 C 0.51846 0.10439 0.44059 0.0
C1153 C 0.50375 0.06208 0.4393 0.0
C1154 C 0.51856 0.13478 0.40543 0.0
C1155 C 0.5 0.17047 0.43682 0.0
N1156 N 0.5085 0.08446 0.42819 0.0
N1157 N 0.50671 0.1478 0.44538 0.0
H1158 H 0.56437 0.71072 0.20476 0.0
H1159 H 0.69793 0.7626 0.18867 0.0
H1160 H 0.57548 0.77533 0.15821 0.0
H1161 H 0.68035 0.68409 0.19633 0.0
H1162 H 0.65534 0.76942 0.17495 0.0
H1163 H 0.60836 0.70327 0.20315 0.0
C1164 C 0.57608 0.72359 0.19437 0.0
C1165 C 0.5661 0.74372 0.18157 0.0
C1166 C 0.66112 0.75057 0.1786 0.0
C1167 C 0.61687 0.73494 0.17946 0.0
C1168 C 0.68556 0.74657 0.18598 0.0
C1169 C 0.69254 0.72272 0.19361 0.0
C1170 C 0.6438 0.73059 0.17937 0.0
C1171 C 0.67557 0.70274 0.19066 0.0
C1172 C 0.60123 0.71904 0.19316 0.0
C1173 C 0.58241 0.75964 0.16842 0.0
N1174 N 0.65176 0.70722 0.18439 0.0
N1175 N 0.60716 0.75502 0.16783 0.0
H1176 H 0.05946 0.16704 0.60871 0.0
H1177 H 0.97949 0.05266 0.56337 0.0
H1178 H 0.97942 0.1637 0.60845 0.0
H1179 H 0.05915 0.0589 0.55937 0.0
H1180 H 0.97968 0.08573 0.59402 0.0
H1181 H 0.05988 0.12184 0.60472 0.0
C1182 C 0.04193 0.15667 0.60801 0.0
C1183 C 0.01936 0.16905 0.60801 0.0
C1184 C -0.00277 0.07924 0.58723 0.0
C1185 C 0.01969 0.11737 0.60311 0.0
C1186 C -0.00287 0.06 0.57009 0.0
C1187 C 0.01937 0.05298 0.5592 0.0
C1188 C 0.01968 0.09187 0.59283 0.0
C1189 C 0.04167 0.06391 0.56748 0.0
C1190 C 0.04218 0.13085 0.60592 0.0
C1191 C -0.00279 0.1548 0.60794 0.0
N1192 N 0.04124 0.08321 0.58349 0.0
N1193 N -0.00209 0.12965 0.60484 0.0
H1194 H 0.58225 0.26225 0.35201 0.0
H1195 H 0.66894 0.21462 0.24772 0.0
H1196 H 0.56761 0.19362 0.3126 0.0
H1197 H 0.68794 0.27614 0.29531 0.0
H1198 H 0.63688 0.20074 0.27669 0.0
H1199 H 0.62449 0.26326 0.33622 0.0
C1200 C 0.58795 0.24735 0.34005 0.0
C1201 C 0.57123 0.22809 0.33322 0.0
C1202 C 0.64865 0.21674 0.28132 0.0
C1203 C 0.6197 0.22907 0.31503 0.0
C1204 C 0.66729 0.22432 0.26498 0.0
C1205 C 0.68102 0.24641 0.26929 0.0
C1206 C 0.64361 0.23175 0.30174 0.0
C1207 C 0.67768 0.25893 0.29147 0.0
C1208 C 0.61218 0.2478 0.3312 0.0
C1209 C 0.5798 0.20901 0.31807 0.0
N1210 N 0.6589 0.25178 0.30663 0.0
N1211 N 0.60333 0.21019 0.30916 0.0
H1212 H 0.51341 0.81114 0.06216 0.0
H1213 H 0.46811 0.9508 0.08162 0.0
H1214 H 0.47756 0.83772 0.12736 0.0
H1215 H 0.50826 0.9281 0.01745 0.0
H1216 H 0.46748 0.90787 0.09612 0.0
H1217 H 0.50855 0.85238 0.04341 0.0
C1218 C 0.50447 0.82558 0.07251 0.0
C1219 C 0.49603 0.82098 0.09645 0.0
C1220 C 0.47627 0.91215 0.07876 0.0
C1221 C 0.49029 0.86806 0.07507 0.0
C1222 C 0.47657 0.93671 0.07041 0.0
C1223 C 0.48841 0.94314 0.04835 0.0
C1224 C 0.48807 0.89373 0.06511 0.0
C1225 C 0.49887 0.92398 0.03454 0.0
C1226 C 0.50168 0.84909 0.06178 0.0
C1227 C 0.48452 0.84038 0.10894 0.0
N1228 N 0.4987 0.90015 0.04329 0.0
N1229 N 0.48206 0.863 0.09814 0.0
H1230 H 0.94143 0.73789 0.79379 0.0
H1231 H 0.81114 0.79749 0.76601 0.0
H1232 H 0.90419 0.79138 0.8386 0.0
H1233 H 0.83611 0.73055 0.73136 0.0
H1234 H 0.85313 0.80597 0.78098 0.0
H1235 H 0.91051 0.74451 0.76118 0.0
C1236 C 0.92709 0.75139 0.7965 0.0
C1237 C 0.92487 0.76369 0.819 0.0
C1238 C 0.84968 0.78987 0.76936 0.0
C1239 C 0.89004 0.77165 0.78201 0.0
C1240 C 0.82576 0.78537 0.7603 0.0
C1241 C 0.82021 0.76342 0.74729 0.0
C1242 C 0.86795 0.77198 0.76581 0.0
C1243 C 0.83972 0.74765 0.74147 0.0
C1244 C 0.90952 0.75518 0.77797 0.0
C1245 C 0.90613 0.7811 0.82168 0.0
N1246 N 0.86266 0.7519 0.75127 0.0
N1247 N 0.88933 0.78439 0.80352 0.0
H1248 H 0.9685 0.9839 0.79512 0.0
H1249 H 0.98022 0.07294 0.91149 0.0
H1250 H 0.92432 0.04901 0.80618 0.0
H1251 H 0.0047 0.99682 0.91109 0.0
H1252 H 0.96979 0.06927 0.8682 0.0
H1253 H 0.99093 0.99339 0.83298 0.0
C1254 C 0.96367 0.00038 0.80535 0.0
C1255 C 0.94421 0.01553 0.79763 0.0
C1256 C 0.97778 0.0535 0.87749 0.0
C1257 C 0.97003 0.02646 0.84089 0.0
C1258 C 0.98384 0.05556 0.9022 0.0
C1259 C 0.99283 0.03493 0.91509 0.0
C1260 C 0.98078 0.03069 0.86552 0.0
C1261 C -0.00243 0.0131 0.90195 0.0
C1262 C 0.97651 0.00572 0.82696 0.0
C1263 C 0.93896 0.03667 0.81157 0.0
N1264 N 0.99111 0.01141 0.87789 0.0
N1265 N 0.9517 0.04143 0.83265 0.0
H1266 H 0.70607 0.17854 0.56249 0.0
H1267 H 0.72653 0.21109 0.68239 0.0
H1268 H 0.78529 0.17116 0.55593 0.0
H1269 H 0.79567 0.23967 0.65255 0.0
H1270 H 0.72191 0.18338 0.64676 0.0
H1271 H 0.71135 0.18865 0.60563 0.0
C1272 C 0.72459 0.17872 0.57028 0.0
C1273 C 0.74535 0.17446 0.55561 0.0
C1274 C 0.73814 0.19564 0.64816 0.0
C1275 C 0.75151 0.18561 0.60512 0.0
C1276 C 0.74087 0.21124 0.66852 0.0
C1277 C 0.76108 0.22817 0.66988 0.0
C1278 C 0.75584 0.19709 0.62929 0.0
C1279 C 0.77939 0.22741 0.65172 0.0
C1280 C 0.72755 0.1841 0.59504 0.0
C1281 C 0.76886 0.17456 0.56664 0.0
N1282 N 0.77621 0.21232 0.63202 0.0
N1283 N 0.77138 0.18069 0.5907 0.0
H1284 H 0.58423 0.93953 0.31534 0.0
H1285 H 0.50331 0.99388 0.42308 0.0
H1286 H 0.52782 0.99395 0.30321 0.0
H1287 H 0.54718 0.92794 0.43016 0.0
H1288 H 0.50945 0.99259 0.37865 0.0
H1289 H 0.56872 0.93325 0.35693 0.0
C1290 C 0.56838 0.94991 0.3213 0.0
C1291 C 0.55749 0.96745 0.30581 0.0
C1292 C 0.5174 0.9782 0.38994 0.0
C1293 C 0.53982 0.96065 0.35358 0.0
C1294 C 0.51383 0.97889 0.41531 0.0
C1295 C 0.52504 0.96122 0.43048 0.0
C1296 C 0.5324 0.95983 0.37974 0.0
C1297 C 0.53849 0.94222 0.41931 0.0
C1298 C 0.5595 0.94633 0.34507 0.0
C1299 C 0.53689 0.9803 0.31453 0.0
N1300 N 0.54206 0.94224 0.39473 0.0
N1301 N 0.52896 0.97692 0.33794 0.0
H1302 H 0.72405 0.79461 0.06022 0.0
H1303 H 0.78298 0.81755 0.18209 0.0
H1304 H 0.74106 0.86917 0.08574 0.0
H1305 H 0.74151 0.74993 0.16541 0.0
H1306 H 0.75702 0.84024 0.15338 0.0
H1307 H 0.71809 0.78102 0.10241 0.0
C1308 C 0.72583 0.80824 0.07482 0.0
C1309 C 0.73367 0.83278 0.06982 0.0
C1310 C 0.75279 0.82066 0.15669 0.0
C1311 C 0.72811 0.8173 0.11808 0.0
C1312 C 0.76764 0.80777 0.17309 0.0
C1313 C 0.76426 0.78197 0.17586 0.0
C1314 C 0.73541 0.80725 0.14223 0.0
C1315 C 0.74443 0.76992 0.16383 0.0
C1316 C 0.72238 0.80056 0.09894 0.0
C1317 C 0.7354 0.84993 0.0891 0.0
N1318 N 0.73111 0.78254 0.14698 0.0
N1319 N 0.73351 0.84167 0.11258 0.0
H1320 H 0.94768 0.0361 0.677 0.0
H1321 H 0.91513 0.97614 0.55021 0.0
H1322 H 0.87475 0.00801 0.65726 0.0
H1323 H 0.98767 0.0025 0.57305 0.0
H1324 H 0.89672 0.00045 0.58325 0.0
H1325 H 0.95858 0.0384 0.63369 0.0
C1326 C 0.93373 0.03121 0.66336 0.0
C1327 C 0.91048 0.02157 0.6704 0.0
C1328 C 0.9166 0.00167 0.5805 0.0
C1329 C 0.92309 0.02274 0.62114 0.0
C1330 C 0.92703 0.98784 0.56168 0.0
C1331 C 0.95282 0.98783 0.55887 0.0
C1332 C 0.93226 0.01481 0.59693 0.0
C1333 C 0.96765 0.00273 0.57427 0.0
C1334 C 0.93994 0.03235 0.63867 0.0
C1335 C 0.89294 0.01542 0.65231 0.0
N1336 N 0.95719 0.01531 0.59292 0.0
N1337 N 0.89984 0.01541 0.6284 0.0
H1338 H 0.79195 0.18344 0.41925 0.0
H1339 H 0.73677 0.25259 0.30432 0.0
H1340 H 0.72901 0.23145 0.42336 0.0
H1341 H 0.80671 0.21506 0.30392 0.0
H1342 H 0.73682 0.25062 0.34906 0.0
H1343 H 0.8011 0.20002 0.37854 0.0
C1344 C 0.78028 0.19776 0.41176 0.0
C1345 C 0.75941 0.2057 0.42454 0.0
C1346 C 0.75238 0.24323 0.33918 0.0
C1347 C 0.76953 0.22452 0.37779 0.0
C1348 C 0.75238 0.2444 0.31362 0.0
C1349 C 0.77148 0.23345 0.30032 0.0
C1350 C 0.77151 0.23088 0.35144 0.0
C1351 C 0.7913 0.22324 0.31338 0.0
C1352 C 0.78551 0.20725 0.38849 0.0
C1353 C 0.74511 0.22451 0.41404 0.0
N1354 N 0.79059 0.22183 0.33816 0.0
N1355 N 0.75016 0.23295 0.39109 0.0
H1356 H 0.56045 0.94901 0.16631 0.0
H1357 H 0.58079 0.04313 0.07538 0.0
H1358 H 0.63209 0.98626 0.17175 0.0
H1359 H 0.56199 0.97002 0.04696 0.0
H1360 H 0.60303 0.02356 0.10924 0.0
H1361 H 0.56152 0.95486 0.12177 0.0
C1362 C 0.57678 0.95757 0.15797 0.0
C1363 C 0.59622 0.96711 0.17251 0.0
C1364 C 0.59503 0.01185 0.09494 0.0
C1365 C 0.59706 0.97488 0.12211 0.0
C1366 C 0.58248 0.02303 0.07557 0.0
C1367 C 0.56951 0.00816 0.05848 0.0
C1368 C 0.59356 0.98579 0.09761 0.0
C1369 C 0.57187 0.98214 0.05975 0.0
C1370 C 0.57743 0.9609 0.13263 0.0
C1371 C 0.61684 0.97849 0.16099 0.0
N1372 N 0.58271 0.97169 0.07963 0.0
N1373 N 0.61635 0.98293 0.13647 0.0
H1374 H 0.7516 0.7841 0.95048 0.0
H1375 H 0.73 0.8074 0.80816 0.0
H1376 H 0.73323 0.85639 0.9218 0.0
H1377 H 0.73998 0.73517 0.84142 0.0
H1378 H 0.72706 0.82572 0.84922 0.0
H1379 H 0.7433 0.76579 0.91057 0.0
C1380 C 0.74564 0.79611 0.93572 0.0
C1381 C 0.7434 0.82183 0.93932 0.0
C1382 C 0.72957 0.80582 0.84744 0.0
C1383 C 0.73412 0.80101 0.89324 0.0
C1384 C 0.73122 0.79535 0.82404 0.0
C1385 C 0.73564 0.76977 0.82137 0.0
C1386 C 0.73235 0.79055 0.86816 0.0
C1387 C 0.73702 0.75504 0.84255 0.0
C1388 C 0.74083 0.78564 0.91289 0.0
C1389 C 0.73526 0.83646 0.91968 0.0
N1390 N 0.73559 0.76567 0.86497 0.0
N1391 N 0.73126 0.82589 0.89727 0.0
H1392 H 0.85186 0.87403 0.01278 0.0
H1393 H 0.90333 0.01337 0.9909 0.0
H1394 H 0.80522 0.93665 -0.00194 0.0
H1395 H 0.95108 0.95172 0.00603 0.0
H1396 H 0.86744 0.98546 -0.0054 0.0
H1397 H 0.88826 0.90199 0.01136 0.0
C1398 C 0.84922 0.89369 0.0093 0.0
C1399 C 0.82535 0.90297 0.00546 0.0
C1400 C 0.88572 0.97794 -0.00288 0.0
C1401 C 0.86716 0.93512 0.00381 0.0
C1402 C 0.90638 0.99391 -0.00496 0.0
C1403 C 0.93048 0.98489 -0.00205 0.0
C1404 C 0.88896 0.95259 0.00215 0.0
C1405 C 0.93296 0.95944 0.00329 0.0
C1406 C 0.87008 0.90963 0.0085 0.0
C1407 C 0.8232 0.92863 0.0011 0.0
N1408 N 0.91245 0.94415 0.00517 0.0
N1409 N 0.84383 0.94377 0.00034 0.0
H1410 H 0.32816 0.59725 0.01212 0.0
H1411 H 0.44158 0.56341 0.9268 0.0
H1412 H 0.32483 0.5992 0.93314 0.0
H1413 H 0.43941 0.54499 0.00367 0.0
H1414 H 0.398 0.57451 0.92861 0.0
H1415 H 0.36814 0.57674 0.0096 0.0
C1416 C 0.33576 0.59327 -0.00576 0.0
C1417 C 0.32318 0.60018 0.9728 0.0
C1418 C 0.40687 0.56765 0.94503 0.0
C1419 C 0.36898 0.57673 0.96981 0.0
C1420 C 0.43175 0.56125 0.94398 0.0
C1421 C 0.44413 0.55326 0.96512 0.0
C1422 C 0.3943 0.56659 0.96752 0.0
C1423 C 0.4305 0.55083 0.9869 0.0
C1424 C 0.35854 0.58146 -0.00717 0.0
C1425 C 0.33387 0.59437 0.95016 0.0
N1426 N 0.40641 0.55787 0.98764 0.0
N1427 N 0.35622 0.58322 0.94928 0.0
H1428 H 0.16999 0.55741 0.77111 0.0
H1429 H 0.18789 0.7055 0.76548 0.0
H1430 H 0.1097 0.60895 0.77057 0.0
H1431 H 0.24847 0.65619 0.77913 0.0
H1432 H 0.15899 0.66992 0.76789 0.0
H1433 H 0.19935 0.59295 0.77519 0.0
C1434 C 0.16292 0.57612 0.77213 0.0
C1435 C 0.1374 0.58024 0.77019 0.0
C1436 C 0.1786 0.66688 0.77053 0.0
C1437 C 0.1707 0.62078 0.77462 0.0
C1438 C 0.1951 0.68726 0.76919 0.0
C1439 C 0.22062 0.68394 0.7722 0.0
C1440 C 0.18769 0.64289 0.77462 0.0
C1441 C 0.22894 0.65969 0.77664 0.0
C1442 C 0.17965 0.59637 0.7744 0.0
C1443 C 0.12923 0.60486 0.77166 0.0
N1444 N 0.21252 0.64006 0.77758 0.0
N1445 N 0.14583 0.62416 0.77358 0.0
H1446 H 0.18299 0.43912 0.51213 0.0
H1447 H 0.0459 0.42529 0.46291 0.0
H1448 H 0.15088 0.36745 0.49179 0.0
H1449 H 0.06874 0.48482 0.51152 0.0
H1450 H 0.08342 0.40286 0.47387 0.0
H1451 H 0.14137 0.45666 0.51101 0.0
C1452 C 0.16723 0.42713 0.50731 0.0
C1453 C 0.17042 0.40184 0.50189 0.0
C1454 C 0.07989 0.42048 0.48273 0.0
C1455 C 0.12287 0.42167 0.50071 0.0
C1456 C 0.05831 0.43305 0.47675 0.0
C1457 C 0.05414 0.45661 0.48672 0.0
C1458 C 0.09774 0.43205 0.49809 0.0
C1459 C 0.07118 0.46641 0.50386 0.0
C1460 C 0.14348 0.43705 0.50696 0.0
C1461 C 0.1493 0.38707 0.49605 0.0
N1462 N 0.09255 0.45435 0.50863 0.0
N1463 N 0.12648 0.39724 0.49538 0.0
H1464 H 0.81635 0.96076 0.76204 0.0
H1465 H 0.78945 0.81738 0.73211 0.0
H1466 H 0.87318 0.90917 0.74244 0.0
H1467 H 0.73465 0.86544 0.76221 0.0
H1468 H 0.82168 0.84905 0.74148 0.0
H1469 H 0.78695 0.9253 0.7665 0.0
C1470 C 0.82269 0.94204 0.75881 0.0
C1471 C 0.84722 0.93807 0.75154 0.0
C1472 C 0.80273 0.85244 0.74676 0.0
C1473 C 0.81374 0.89737 0.75666 0.0
C1474 C 0.78445 0.83406 0.74191 0.0
C1475 C 0.75958 0.83857 0.74705 0.0
C1476 C 0.79586 0.87573 0.75618 0.0
C1477 C 0.75377 0.86117 0.75837 0.0
C1478 C 0.80594 0.92177 0.76146 0.0
C1479 C 0.85442 0.9133 0.74781 0.0
N1480 N 0.77169 0.87907 0.76221 0.0
N1481 N 0.83775 0.89401 0.75018 0.0
H1482 H 0.65521 0.12813 0.45539 0.0
H1483 H 0.61326 -0.00037 0.51903 0.0
H1484 H 0.70644 0.07857 0.49022 0.0
H1485 H 0.56252 0.05017 0.48498 0.0
H1486 H 0.64775 0.02772 0.50796 0.0
H1487 H 0.62146 0.09822 0.46359 0.0
C1488 C 0.65943 0.11072 0.4644 0.0
C1489 C 0.68363 0.10591 0.47233 0.0
C1490 C 0.62906 0.03276 0.50303 0.0
C1491 C 0.64494 0.0718 0.48226 0.0
C1492 C 0.60931 0.01682 0.5095 0.0
C1493 C 0.58489 0.02263 0.503 0.0
C1494 C 0.6244 0.05466 0.48989 0.0
C1495 C 0.58094 0.04512 0.49064 0.0
C1496 C 0.6401 0.09373 0.46924 0.0
C1497 C 0.68805 0.083 0.48377 0.0
N1498 N 0.60051 0.06026 0.48437 0.0
N1499 N 0.66879 0.06689 0.48868 0.0
H1500 H 0.18299 0.45079 0.724 0.0
H1501 H 0.2074 0.33769 0.81605 0.0
H1502 H 0.14806 0.44202 0.79462 0.0
H1503 H 0.2341 0.3395 0.7417 0.0
H1504 H 0.19155 0.37945 0.81064 0.0
H1505 H 0.20694 0.41348 0.73212 0.0
C1506 C 0.18047 0.44116 0.7413 0.0
C1507 C 0.16329 0.4495 0.75858 0.0
C1508 C 0.20109 0.37086 0.79553 0.0
C1509 C 0.19079 0.40676 0.76799 0.0
C1510 C 0.21028 0.34698 0.79862 0.0
C1511 C 0.22187 0.33479 0.77912 0.0
C1512 C 0.20337 0.38283 0.77275 0.0
C1513 C 0.22523 0.34805 0.75714 0.0
C1514 C 0.19417 0.41984 0.74589 0.0
C1515 C 0.16092 0.43624 0.78068 0.0
N1516 N 0.21575 0.37123 0.75442 0.0
N1517 N 0.17442 0.41552 0.78469 0.0
H1518 H 0.30004 0.56832 0.19421 0.0
H1519 H 0.30319 0.68237 0.2891 0.0
H1520 H 0.34861 0.57421 0.25706 0.0
H1521 H 0.24258 0.66971 0.2387 0.0
H1522 H 0.32448 0.64706 0.27141 0.0
H1523 H 0.2823 0.60851 0.20527 0.0
C1524 C 0.30698 0.57801 0.21034 0.0
C1525 C 0.32578 0.5677 0.22483 0.0
C1526 C 0.30676 0.65223 0.26379 0.0
C1527 C 0.30581 0.61394 0.23728 0.0
C1528 C 0.29476 0.67261 0.27368 0.0
C1529 C 0.27133 0.67922 0.26503 0.0
C1530 C 0.2951 0.63798 0.24528 0.0
C1531 C 0.26094 0.66564 0.24539 0.0
C1532 C 0.29686 0.60099 0.21657 0.0
C1533 C 0.33405 0.58122 0.24544 0.0
N1534 N 0.27278 0.64542 0.23632 0.0
N1535 N 0.32407 0.60357 0.25098 0.0
H1536 H 0.51169 0.69705 0.5636 0.0
H1537 H 0.50955 0.55415 0.5267 0.0
H1538 H 0.5058 0.63592 0.61503 0.0
H1539 H 0.51339 0.61482 0.47515 0.0
H1540 H 0.52065 0.5834 0.55973 0.0
H1541 H 0.52317 0.66741 0.53173 0.0
C1542 C 0.51305 0.67748 0.56826 0.0
C1543 C 0.50716 0.66892 0.59187 0.0
C1544 C 0.51988 0.59024 0.54107 0.0
C1545 C 0.52036 0.63489 0.55557 0.0
C1546 C 0.51395 0.57339 0.52224 0.0
C1547 C 0.51033 0.58222 0.49843 0.0
C1548 C 0.52193 0.61597 0.53582 0.0
C1549 C 0.51582 0.60743 0.49346 0.0
C1550 C 0.5197 0.66055 0.5501 0.0
C1551 C 0.50961 0.64335 0.59695 0.0
N1552 N 0.52078 0.62357 0.51207 0.0
N1553 N 0.51567 0.62724 0.5789 0.0
H1554 H 0.55572 0.23568 0.80584 0.0
H1555 H 0.67557 0.29846 0.74798 0.0
H1556 H 0.56861 0.31548 0.80413 0.0
H1557 H 0.65542 0.22043 0.74082 0.0
H1558 H 0.63302 0.30677 0.76061 0.0
H1559 H 0.5886 0.23094 0.77579 0.0
C1560 C 0.56535 0.25224 0.79898 0.0
C1561 C 0.55967 0.27597 0.80782 0.0
C1562 C 0.63766 0.28794 0.75551 0.0
C1563 C 0.59764 0.2707 0.77344 0.0
C1564 C 0.66189 0.28327 0.74792 0.0
C1565 C 0.66905 0.25866 0.74371 0.0
C1566 C 0.62072 0.26782 0.75896 0.0
C1567 C 0.65067 0.23963 0.7442 0.0
C1568 C 0.58407 0.24956 0.78168 0.0
C1569 C 0.57254 0.2968 0.79798 0.0
N1570 N 0.62753 0.24451 0.7523 0.0
N1571 N 0.59122 0.29366 0.78165 0.0
H1572 H 0.0647 0.33839 0.11478 0.0
H1573 H 0.98629 0.42 0.02698 0.0
H1574 H 0.98682 0.3224 0.10229 0.0
H1575 H 0.05554 0.44558 0.0587 0.0
H1576 H 0.9826 0.38798 0.05886 0.0
H1577 H 0.05958 0.38016 0.09813 0.0
C1578 C 0.04646 0.34374 0.10863 0.0
C1579 C 0.02625 0.32675 0.10954 0.0
C1580 C -0.00189 0.40122 0.05952 0.0
C1581 C 0.02022 0.37466 0.09025 0.0
C1582 C -5e-05 0.41982 0.04157 0.0
C1583 C 0.02097 0.43573 0.04061 0.0
C1584 C 0.01787 0.39815 0.07604 0.0
C1585 C 0.03883 0.4339 0.05914 0.0
C1586 C 0.04348 0.3677 0.0993 0.0
C1587 C 0.00295 0.33485 0.10169 0.0
N1588 N 0.03717 0.41509 0.0758 0.0
N1589 N 0.00066 0.35809 0.09194 0.0
H1590 H 0.8906 0.70166 0.38184 0.0
H1591 H 0.86269 0.77154 0.25872 0.0
H1592 H 0.94952 0.73484 0.33822 0.0
H1593 H 0.82008 0.70583 0.27961 0.0
H1594 H 0.89322 0.76193 0.29073 0.0
H1595 H 0.86239 0.70541 0.34684 0.0
C1596 C 0.89771 0.70922 0.36476 0.0
C1597 C 0.92234 0.71808 0.36291 0.0
C1598 C 0.87699 0.7498 0.28839 0.0
C1599 C 0.8902 0.72309 0.3234 0.0
C1600 C 0.85957 0.75541 0.2704 0.0
C1601 C 0.83829 0.74015 0.26759 0.0
C1602 C 0.87293 0.72884 0.30347 0.0
C1603 C 0.83541 0.71893 0.28243 0.0
C1604 C 0.88163 0.71143 0.3449 0.0
C1605 C 0.93065 0.72776 0.3404 0.0
N1606 N 0.85239 0.71402 0.3 0.0
N1607 N 0.91445 0.73049 0.32161 0.0
H1608 H 0.55463 0.33446 0.90693 0.0
H1609 H 0.4899 0.46336 0.93774 0.0
H1610 H 0.47578 0.34528 0.90255 0.0
H1611 H 0.5544 0.43674 0.97559 0.0
H1612 H 0.49074 0.42643 0.9109 0.0
H1613 H 0.56051 0.37874 0.9184 0.0
C1614 C 0.53871 0.34633 0.90785 0.0
C1615 C 0.5147 0.33641 0.90436 0.0
C1616 C 0.50495 0.42905 0.92481 0.0
C1617 C 0.52118 0.38647 0.91676 0.0
C1618 C 0.50444 0.44997 0.94004 0.0
C1619 C 0.5217 0.45252 0.95913 0.0
C1620 C 0.52315 0.4111 0.92857 0.0
C1621 C 0.54039 0.43495 0.96137 0.0
C1622 C 0.54202 0.37143 0.91435 0.0
C1623 C 0.49454 0.35234 0.90562 0.0
N1624 N 0.54053 0.41483 0.94638 0.0
N1625 N 0.4982 0.37661 0.91189 0.0
H1626 H 0.92563 0.23666 0.13137 0.0
H1627 H 0.81553 0.26678 0.21823 0.0
H1628 H 0.92832 0.29924 0.18109 0.0
H1629 H 0.80774 0.21805 0.15597 0.0
H1630 H 0.85372 0.28462 0.20073 0.0
H1631 H 0.88072 0.23362 0.13648 0.0
C1632 C 0.91675 0.24984 0.1433 0.0
C1633 C 0.9308 0.26794 0.15617 0.0
C1634 C 0.84323 0.27071 0.19035 0.0
C1635 C 0.87927 0.26457 0.16215 0.0
C1636 C 0.82116 0.26088 0.20014 0.0
C1637 C 0.80829 0.24136 0.18822 0.0
C1638 C 0.85287 0.26018 0.16894 0.0
C1639 C 0.81695 0.23346 0.16544 0.0
C1640 C 0.89104 0.24825 0.14605 0.0
C1641 C 0.91824 0.2848 0.17104 0.0
N1642 N 0.83902 0.24249 0.15678 0.0
N1643 N 0.89323 0.28245 0.17394 0.0
H1644 H 0.9571 0.68769 0.49307 0.0
H1645 H 0.04861 0.57472 0.48865 0.0
H1646 H 0.02766 0.68832 0.45585 0.0
H1647 H 0.97234 0.56828 0.51208 0.0
H1648 H 0.04616 0.62003 0.49013 0.0
H1649 H 0.9677 0.64849 0.51291 0.0
C1650 C 0.9751 0.67995 0.48953 0.0
C1651 C 0.99127 0.69094 0.47224 0.0
C1652 C 0.03009 0.60875 0.49544 0.0
C1653 C 0.00338 0.64611 0.49485 0.0
C1654 C 0.03148 0.58287 0.4946 0.0
C1655 C 0.01043 0.56779 0.4996 0.0
C1656 C 0.0074 0.61962 0.50097 0.0
C1657 C 0.98889 0.57928 0.50775 0.0
C1658 C 0.98107 0.65752 0.50084 0.0
C1659 C 0.0144 0.6802 0.46862 0.0
N1660 N 0.98773 0.6046 0.50762 0.0
N1661 N 0.01959 0.65816 0.4795 0.0
H1662 H 0.53958 0.69758 0.70861 0.0
H1663 H 0.64135 0.80221 0.74358 0.0
H1664 H 0.53532 0.775 0.68751 0.0
H1665 H 0.66009 0.72646 0.72684 0.0
H1666 H 0.59746 0.79096 0.73796 0.0
H1667 H 0.57889 0.70721 0.72976 0.0
C1668 C 0.54659 0.71672 0.70896 0.0
C1669 C 0.53435 0.73554 0.69611 0.0
C1670 C 0.61117 0.77665 0.73622 0.0
C1671 C 0.57891 0.74654 0.72042 0.0
C1672 C 0.63616 0.78298 0.73948 0.0
C1673 C 0.65437 0.76513 0.73575 0.0
C1674 C 0.60431 0.75228 0.72926 0.0
C1675 C 0.64666 0.74053 0.7305 0.0
C1676 C 0.56902 0.7221 0.72091 0.0
C1677 C 0.54431 0.75994 0.697 0.0
N1678 N 0.62214 0.73485 0.72708 0.0
N1679 N 0.5661 0.76474 0.70886 0.0
H1680 H 0.52307 0.52868 0.67033 0.0
H1681 H 0.56064 0.46419 0.54493 0.0
H1682 H 0.58021 0.47423 0.66295 0.0
H1683 H 0.50242 0.51791 0.54909 0.0
H1684 H 0.56449 0.46503 0.58892 0.0
H1685 H 0.51196 0.52237 0.62724 0.0
C1686 C 0.53307 0.51513 0.65978 0.0
C1687 C 0.55282 0.50213 0.67025 0.0
C1688 C 0.55084 0.47671 0.58035 0.0
C1689 C 0.54021 0.49498 0.62091 0.0
C1690 C 0.54858 0.4763 0.55503 0.0
C1691 C 0.53155 0.49156 0.54297 0.0
C1692 C 0.53611 0.4926 0.5941 0.0
C1693 C 0.51631 0.50643 0.55743 0.0
C1694 C 0.52673 0.51162 0.63515 0.0
C1695 C 0.56501 0.48482 0.65568 0.0
N1696 N 0.51912 0.50678 0.58227 0.0
N1697 N 0.55864 0.48192 0.63175 0.0
H1698 H 0.80275 0.36297 0.91104 0.0
H1699 H 0.70723 0.29681 0.82707 0.0
H1700 H 0.7241 0.36826 0.9235 0.0
H1701 H 0.77954 0.31943 0.80021 0.0
H1702 H 0.71173 0.32715 0.86013 0.0
H1703 H 0.79435 0.35229 0.86834 0.0
C1704 C 0.78372 0.36241 0.90458 0.0
C1705 C 0.76403 0.36591 0.92081 0.0
C1706 C 0.72644 0.3259 0.84676 0.0
C1707 C 0.75427 0.35323 0.87226 0.0
C1708 C 0.72397 0.30842 0.82805 0.0
C1709 C 0.74334 0.30527 0.81138 0.0
C1710 C 0.74873 0.33981 0.84919 0.0
C1711 C 0.76437 0.32111 0.81299 0.0
C1712 C 0.77893 0.35642 0.88019 0.0
C1713 C 0.73976 0.36539 0.91155 0.0
N1714 N 0.76681 0.33733 0.83203 0.0
N1715 N 0.73549 0.35843 0.88796 0.0
H1716 H 0.99093 0.45338 0.19235 0.0
H1717 H 0.02305 0.55931 0.09467 0.0
H1718 H 0.95944 0.5266 0.19081 0.0
H1719 H 0.02794 0.48051 0.08004 0.0
H1720 H 0.01582 0.54985 0.13782 0.0
H1721 H 0.01881 0.46598 0.15899 0.0
C1722 C 0.99024 0.47228 0.18538 0.0
C1723 C 0.97251 0.48886 0.19404 0.0
C1724 C 0.01922 0.53468 0.12526 0.0
C1725 C 0.00455 0.50336 0.15623 0.0
C1726 C 0.02349 0.54004 0.10064 0.0
C1727 C 0.0253 0.52057 0.08356 0.0
C1728 C 0.01686 0.50973 0.13282 0.0
C1729 C 0.02625 0.49604 0.09247 0.0
C1730 C 0.00616 0.47941 0.16637 0.0
C1731 C 0.97251 0.51311 0.18439 0.0
N1732 N 0.02138 0.49123 0.11646 0.0
N1733 N 0.98813 0.51957 0.16583 0.0
H1734 H 0.79944 0.65101 0.40777 0.0
H1735 H 0.77702 0.74416 0.29987 0.0
H1736 H 0.78853 0.73016 0.4142 0.0
H1737 H 0.76662 0.6643 0.29629 0.0
H1738 H 0.8017 0.73947 0.3372 0.0
H1739 H 0.80834 0.65671 0.36415 0.0
C1740 C 0.79989 0.66972 0.40022 0.0
C1741 C 0.79237 0.69006 0.41426 0.0
C1742 C 0.79485 0.72289 0.32777 0.0
C1743 C 0.80228 0.69661 0.36466 0.0
C1744 C 0.78095 0.72556 0.3064 0.0
C1745 C 0.77002 0.70453 0.29517 0.0
C1746 C 0.79713 0.69907 0.33818 0.0
C1747 C 0.775 0.68088 0.30451 0.0
C1748 C 0.80488 0.67294 0.37532 0.0
C1749 C 0.79349 0.7139 0.40371 0.0
N1750 N 0.78786 0.67877 0.32582 0.0
N1751 N 0.79775 0.71647 0.37938 0.0
H1752 H 0.52966 0.49416 0.80454 0.0
H1753 H 0.58803 0.54177 0.92051 0.0
H1754 H 0.60917 0.49317 0.81309 0.0
H1755 H 0.51607 0.50506 0.92178 0.0
H1756 H 0.59876 0.51721 0.88456 0.0
H1757 H 0.5252 0.49103 0.84893 0.0
C1758 C 0.54615 0.49265 0.81579 0.0
C1759 C 0.5698 0.49439 0.80528 0.0
C1760 C 0.58101 0.51363 0.89329 0.0
C1761 C 0.56494 0.49153 0.85605 0.0
C1762 C 0.57499 0.52757 0.9139 0.0
C1763 C 0.55123 0.52526 0.92401 0.0
C1764 C 0.56268 0.49822 0.88225 0.0
C1765 C 0.53471 0.50706 0.9146 0.0
C1766 C 0.54364 0.49074 0.84113 0.0
C1767 C 0.5906 0.49211 0.82057 0.0
N1768 N 0.54044 0.49474 0.89371 0.0
N1769 N 0.58773 0.49159 0.84531 0.0
H1770 H 0.70782 0.33352 0.04713 0.0
H1771 H 0.7484 0.23723 0.1452 0.0
H1772 H 0.76699 0.28242 0.03429 0.0
H1773 H 0.67595 0.26978 0.14528 0.0
H1774 H 0.75274 0.24845 0.10204 0.0
H1775 H 0.69298 0.30673 0.08053 0.0
C1776 C 0.71745 0.31649 0.05106 0.0
C1777 C 0.73895 0.31049 0.03821 0.0
C1778 C 0.73561 0.25257 0.11134 0.0
C1779 C 0.7223 0.27988 0.07657 0.0
C1780 C 0.73307 0.24601 0.136 0.0
C1781 C 0.7121 0.25324 0.1491 0.0
C1782 C 0.7172 0.26667 0.09993 0.0
C1783 C 0.69278 0.26447 0.1361 0.0
C1784 C 0.70893 0.30111 0.07008 0.0
C1785 C 0.75053 0.288 0.04393 0.0
N1786 N 0.69606 0.27142 0.11241 0.0
N1787 N 0.74237 0.27379 0.06301 0.0
H1788 H 0.90695 0.51966 0.30721 0.0
H1789 H 0.93563 0.46006 0.4379 0.0
H1790 H 0.91062 0.44068 0.32186 0.0
H1791 H 0.96009 0.53363 0.41497 0.0
H1792 H 0.91056 0.45628 0.40029 0.0
H1793 H 0.91097 0.52776 0.35131 0.0
C1794 C 0.9081 0.50403 0.31974 0.0
C1795 C 0.90913 0.47952 0.31093 0.0
C1796 C 0.92086 0.47352 0.4039 0.0
C1797 C 0.91334 0.48858 0.36107 0.0
C1798 C 0.93497 0.47571 0.42535 0.0
C1799 C 0.95013 0.49698 0.42907 0.0
C1800 C 0.92191 0.49286 0.38645 0.0
C1801 C 0.94886 0.51678 0.41237 0.0
C1802 C 0.91036 0.50865 0.34483 0.0
C1803 C 0.91039 0.45991 0.3279 0.0
N1804 N 0.93526 0.51412 0.39156 0.0
N1805 N 0.91275 0.46487 0.35216 0.0
H1806 H 0.76812 0.67035 0.56092 0.0
H1807 H 0.73818 0.79193 0.63916 0.0
H1808 H 0.7489 0.74181 0.53073 0.0
H1809 H 0.75014 0.72019 0.67278 0.0
H1810 H 0.74745 0.77422 0.59954 0.0
H1811 H 0.76708 0.68865 0.6022 0.0
C1812 C 0.76403 0.68992 0.56295 0.0
C1813 C 0.75831 0.70453 0.54243 0.0
C1814 C 0.74814 0.76227 0.61553 0.0
C1815 C 0.75706 0.72543 0.58927 0.0
C1816 C 0.74277 0.77239 0.63824 0.0
C1817 C 0.74306 0.75746 0.65935 0.0
C1818 C 0.75372 0.7369 0.61368 0.0
C1819 C 0.74956 0.73235 0.65695 0.0
C1820 C 0.76333 0.7003 0.58646 0.0
C1821 C 0.7531 0.72975 0.54604 0.0
N1822 N 0.75443 0.72276 0.63443 0.0
N1823 N 0.75249 0.73931 0.56895 0.0
H1824 H 0.66316 0.65382 0.46142 0.0
H1825 H 0.61387 0.51299 0.44496 0.0
H1826 H 0.71031 0.59 0.46465 0.0
H1827 H 0.56528 0.57323 0.46247 0.0
H1828 H 0.64904 0.54232 0.44547 0.0
H1829 H 0.62712 0.62572 0.45599 0.0
C1830 C 0.66599 0.6339 0.4609 0.0
C1831 C 0.68987 0.62426 0.46356 0.0
C1832 C 0.63069 0.54918 0.44906 0.0
C1833 C 0.64857 0.59202 0.45716 0.0
C1834 C 0.61049 0.53246 0.44867 0.0
C1835 C 0.58647 0.54055 0.45393 0.0
C1836 C 0.62704 0.57434 0.45462 0.0
C1837 C 0.58341 0.5661 0.45835 0.0
C1838 C 0.64535 0.61789 0.45784 0.0
C1839 C 0.69229 0.59827 0.46279 0.0
N1840 N 0.60351 0.58209 0.45875 0.0
N1841 N 0.67191 0.58308 0.45961 0.0
H1842 H 0.17223 0.88684 0.5706 0.0
H1843 H 0.07716 0.97184 0.49708 0.0
H1844 H 0.18694 0.91425 0.49756 0.0
H1845 H 0.05598 0.92333 0.55705 0.0
H1846 H 0.11989 0.95745 0.50074 0.0
H1847 H 0.1321 0.90693 0.56962 0.0
C1848 C 0.16717 0.8973 0.55443 0.0
C1849 C 0.18296 0.89867 0.53405 0.0
C1850 C 0.10588 0.95012 0.51317 0.0
C1851 C 0.1369 0.92178 0.53285 0.0
C1852 C 0.08153 0.95841 0.5112 0.0
C1853 C 0.0629 0.94867 0.52671 0.0
C1854 C 0.11171 0.93227 0.53102 0.0
C1855 C 0.06965 0.9312 0.54456 0.0
C1856 C 0.14418 0.90868 0.55386 0.0
C1857 C 0.17531 0.91255 0.51363 0.0
N1858 N 0.09344 0.92359 0.54623 0.0
N1859 N 0.15279 0.92351 0.51352 0.0
H1860 H 0.38839 0.91084 0.73499 0.0
H1861 H 0.24592 0.87061 0.75176 0.0
H1862 H 0.32936 0.96332 0.74199 0.0
H1863 H 0.30576 0.81854 0.75284 0.0
H1864 H 0.27584 0.90447 0.74442 0.0
H1865 H 0.35779 0.87661 0.7364 0.0
C1866 C 0.36894 0.9152 0.7365 0.0
C1867 C 0.36143 0.94 0.73869 0.0
C1868 C 0.28245 0.88565 0.74623 0.0
C1869 C 0.32637 0.90082 0.74058 0.0
C1870 C 0.26538 0.86624 0.75054 0.0
C1871 C 0.27333 0.84159 0.75293 0.0
C1872 C 0.30771 0.88047 0.74429 0.0
C1873 C 0.29879 0.8372 0.75107 0.0
C1874 C 0.3515 0.89561 0.73742 0.0
C1875 C 0.33599 0.9445 0.74038 0.0
N1876 N 0.31509 0.85647 0.74685 0.0
N1877 N 0.31937 0.92505 0.74154 0.0
H1878 H 0.33387 0.07299 0.96334 0.0
H1879 H 0.45884 0.08969 0.04145 0.0
H1880 H 0.34196 0.12018 0.02706 0.0
H1881 H 0.44132 0.02149 0.00273 0.0
H1882 H 0.41941 0.10651 0.02771 0.0
H1883 H 0.37615 0.05818 0.97034 0.0
C1884 C 0.34445 0.08014 0.97884 0.0
C1885 C 0.33429 0.09773 -0.00526 0.0
C1886 C 0.42447 0.08809 0.02167 0.0
C1887 C 0.38267 0.08146 0.00234 0.0
C1888 C 0.44707 0.07862 0.02926 0.0
C1889 C 0.45368 0.05449 0.02254 0.0
C1890 C 0.40821 0.0732 0.00743 0.0
C1891 C 0.43752 0.04061 0.00727 0.0
C1892 C 0.36854 0.07175 0.98274 0.0
C1893 C 0.34888 0.10645 0.01445 0.0
N1894 N 0.41537 0.05011 0.00032 0.0
N1895 N 0.37233 0.09837 0.01756 0.0
H1896 H 0.6652 0.56268 0.71829 0.0
H1897 H 0.68558 0.70504 0.75571 0.0
H1898 H 0.60604 0.60839 0.7443 0.0
H1899 H 0.73914 0.66406 0.71499 0.0
H1900 H 0.65468 0.67149 0.7482 0.0
H1901 H 0.69192 0.60023 0.71498 0.0
C1902 C 0.65782 0.58056 0.72331 0.0
C1903 C 0.63337 0.58227 0.73176 0.0
C1904 C 0.67294 0.67013 0.7402 0.0
C1905 C 0.66382 0.62542 0.72791 0.0
C1906 C 0.69036 0.68959 0.74401 0.0
C1907 C 0.71457 0.68765 0.7352 0.0
C1908 C 0.68014 0.64828 0.72812 0.0
C1909 C 0.72042 0.66646 0.72155 0.0
C1910 C 0.67302 0.60205 0.72124 0.0
C1911 C 0.62478 0.60606 0.73779 0.0
N1912 N 0.70347 0.64743 0.71873 0.0
N1913 N 0.64001 0.6266 0.73593 0.0
H1914 H 0.85441 0.37827 0.03321 0.0
H1915 H 0.91133 0.51713 0.02941 0.0
H1916 H 0.81009 0.44246 0.01786 0.0
H1917 H 0.95403 0.45046 0.02252 0.0
H1918 H 0.87368 0.49102 0.03403 0.0
H1919 H 0.89042 0.40585 0.03954 0.0
C1920 C 0.85216 0.39823 0.0315 0.0
C1921 C 0.82934 0.40808 0.0245 0.0
C1922 C 0.89135 0.48218 0.03167 0.0
C1923 C 0.8706 0.4397 0.03151 0.0
C1924 C 0.91283 0.49701 0.02902 0.0
C1925 C 0.93585 0.48591 0.02536 0.0
C1926 C 0.893 0.45613 0.03094 0.0
C1927 C 0.93669 0.4598 0.02507 0.0
C1928 C 0.87277 0.41394 0.03504 0.0
C1929 C 0.82742 0.4341 0.023 0.0
N1930 N 0.91557 0.4458 0.02778 0.0
N1931 N 0.84795 0.44907 0.02613 0.0
H1932 H 0.34789 0.07502 0.7168 0.0
H1933 H 0.26556 0.18159 0.77435 0.0
H1934 H 0.31914 0.07122 0.79043 0.0
H1935 H 0.28677 0.17867 0.69828 0.0
H1936 H 0.28169 0.13963 0.78011 0.0
H1937 H 0.32309 0.11169 0.70922 0.0
C1938 C 0.33627 0.08182 0.73136 0.0
C1939 C 0.33578 0.07011 0.75435 0.0
C1940 C 0.28246 0.14805 0.76208 0.0
C1941 C 0.3073 0.11231 0.74583 0.0
C1942 C 0.27311 0.17197 0.75876 0.0
C1943 C 0.2751 0.1839 0.7359 0.0
C1944 C 0.29395 0.13603 0.74241 0.0
C1945 C 0.28513 0.17045 0.71635 0.0
C1946 C 0.32202 0.10276 0.727 0.0
C1947 C 0.32019 0.0797 0.77245 0.0
N1948 N 0.29442 0.14746 0.72013 0.0
N1949 N 0.30676 0.10038 0.76789 0.0
H1950 H 0.13036 0.92347 0.22684 0.0
H1951 H 0.21607 0.8123 0.26646 0.0
H1952 H 0.16625 0.92376 0.29764 0.0
H1953 H 0.15871 0.80612 0.21151 0.0
H1954 H 0.19878 0.8521 0.2799 0.0
H1955 H 0.14282 0.88057 0.22086 0.0
C1956 C 0.14106 0.91459 0.24108 0.0
C1957 C 0.1473 0.92735 0.26275 0.0
C1958 C 0.18959 0.84165 0.26536 0.0
C1959 C 0.16157 0.87781 0.25608 0.0
C1960 C 0.1992 0.81871 0.258 0.0
C1961 C 0.18863 0.80584 0.23799 0.0
C1962 C 0.16964 0.85173 0.25227 0.0
C1963 C 0.16733 0.81545 0.22707 0.0
C1964 C 0.14796 0.88993 0.23777 0.0
C1965 C 0.16104 0.91465 0.28063 0.0
N1966 N 0.15881 0.83793 0.23405 0.0
N1967 N 0.16787 0.89062 0.27684 0.0
H1968 H 0.45208 0.31229 0.43067 0.0
H1969 H 0.48333 0.4328 0.47033 0.0
H1970 H 0.51715 0.32288 0.38559 0.0
H1971 H 0.52549 0.43918 0.40381 0.0
H1972 H 0.46759 0.39189 0.45726 0.0
H1973 H 0.4527 0.35695 0.43922 0.0
C1974 C 0.46673 0.32395 0.42284 0.0
C1975 C 0.48485 0.31366 0.40768 0.0
C1976 C 0.4793 0.40256 0.44483 0.0
C1977 C 0.48572 0.36505 0.41748 0.0
C1978 C 0.48793 0.42624 0.45219 0.0
C1979 C 0.50542 0.43942 0.43796 0.0
C1980 C 0.48852 0.39208 0.42315 0.0
C1981 C 0.51177 0.42963 0.41513 0.0
C1982 C 0.46706 0.34956 0.42775 0.0
C1983 C 0.50303 0.32983 0.39766 0.0
N1984 N 0.50381 0.40629 0.40869 0.0
N1985 N 0.50298 0.35464 0.40276 0.0
H1986 H 0.42295 0.79131 0.17281 0.0
H1987 H 0.3088 0.74426 0.25487 0.0
H1988 H 0.42902 0.73964 0.23316 0.0
H1989 H 0.30163 0.78994 0.19008 0.0
H1990 H 0.35383 0.74865 0.2517 0.0
H1991 H 0.37977 0.7979 0.18399 0.0
C1992 C 0.41538 0.78174 0.18871 0.0
C1993 C 0.42947 0.76452 0.20179 0.0
C1994 C 0.34239 0.75789 0.2383 0.0
C1995 C 0.38004 0.77173 0.21446 0.0
C1996 C 0.31665 0.75536 0.24007 0.0
C1997 C 0.30136 0.76644 0.22249 0.0
C1998 C 0.35296 0.77156 0.21882 0.0
C1999 C 0.31265 0.78078 0.20386 0.0
C2000 C 0.39068 0.7854 0.195 0.0
C2001 C 0.41872 0.75277 0.22231 0.0
N2002 N 0.33776 0.78274 0.2024 0.0
N2003 N 0.39455 0.75632 0.2278 0.0
H2004 H 0.0214 0.68667 0.90246 0.0
H2005 H 0.96905 0.55558 0.95236 0.0
H2006 H 0.94387 0.6661 0.90995 0.0
H2007 H 0.03738 0.58948 0.97848 0.0
H2008 H 0.96589 0.58884 0.9218 0.0
H2009 H 0.03227 0.64499 0.91731 0.0
C2010 C 0.00668 0.6733 0.90696 0.0
C2011 C 0.98168 0.67995 0.90536 0.0
C2012 C 0.9821 0.58844 0.93356 0.0
C2013 C 0.994 0.63223 0.92152 0.0
C2014 C 0.98417 0.56921 0.95065 0.0
C2015 C 0.00358 0.56978 0.96778 0.0
C2016 C -0.0004 0.60831 0.93372 0.0
C2017 C 0.02231 0.58826 0.96533 0.0
C2018 C 0.01292 0.64957 0.91532 0.0
C2019 C 0.96336 0.6619 0.9113 0.0
N2020 N 0.01962 0.60717 0.94894 0.0
N2021 N 0.96989 0.63889 0.91914 0.0
H2022 H 0.04727 0.25711 0.68678 0.0
H2023 H 0.19253 0.24372 0.70456 0.0
H2024 H 0.10175 0.27844 0.63226 0.0
H2025 H 0.14325 0.24917 0.76639 0.0
H2026 H 0.15773 0.25119 0.67718 0.0
H2027 H 0.08089 0.25177 0.71648 0.0
C2028 C 0.0662 0.26125 0.6812 0.0
C2029 C 0.07175 0.26784 0.65689 0.0
C2030 C 0.15452 0.25068 0.69675 0.0
C2031 C 0.11007 0.26106 0.69043 0.0
C2032 C 0.17435 0.24626 0.71236 0.0
C2033 C 0.17094 0.24636 0.7378 0.0
C2034 C 0.13099 0.25489 0.70661 0.0
C2035 C 0.1468 0.24912 0.74689 0.0
C2036 C 0.08536 0.25795 0.69809 0.0
C2037 C 0.09661 0.27297 0.65069 0.0
N2038 N 0.1277 0.25344 0.73127 0.0
N2039 N 0.11487 0.26907 0.66724 0.0
H2040 H 0.496 0.72057 0.08177 0.0
H2041 H 0.52027 0.57763 0.05084 0.0
H2042 H 0.47992 0.65927 0.13119 0.0
H2043 H 0.5258 0.63668 -0.00296 0.0
H2044 H 0.50846 0.60814 0.08141 0.0
H2045 H 0.50775 0.69057 0.05048 0.0
C2046 C 0.4945 0.70082 0.08591 0.0
C2047 C 0.48716 0.69243 0.10921 0.0
C2048 C 0.51238 0.61444 0.06294 0.0
C2049 C 0.50111 0.65813 0.07376 0.0
C2050 C 0.5193 0.59704 0.04551 0.0
C2051 C 0.52367 0.60449 0.02123 0.0
C2052 C 0.50995 0.63953 0.05609 0.0
C2053 C 0.52245 0.63 0.01548 0.0
C2054 C 0.50143 0.68372 0.06812 0.0
C2055 C 0.48564 0.66661 0.11356 0.0
N2056 N 0.5155 0.64659 0.03276 0.0
N2057 N 0.4928 0.6504 0.09608 0.0
H2058 H 0.05421 0.73572 0.81919 0.0
H2059 H 0.19138 0.78382 0.83248 0.0
H2060 H 0.0853 0.7575 0.88916 0.0
H2061 H 0.16434 0.7419 0.77031 0.0
H2062 H 0.15574 0.76833 0.85629 0.0
H2063 H 0.09606 0.73308 0.80277 0.0
C2064 C 0.06987 0.73989 0.83112 0.0
C2065 C 0.06628 0.74727 0.85543 0.0
C2066 C 0.15812 0.76161 0.83777 0.0
C2067 C 0.11435 0.74431 0.83678 0.0
C2068 C 0.17868 0.77016 0.82434 0.0
C2069 C 0.1809 0.76366 0.79963 0.0
C2070 C 0.13948 0.74714 0.82602 0.0
C2071 C 0.16355 0.7467 0.78955 0.0
C2072 C 0.09381 0.73814 0.82182 0.0
C2073 C 0.08726 0.75201 0.8702 0.0
N2074 N 0.14322 0.73947 0.80258 0.0
N2075 N 0.11042 0.75087 0.86053 0.0
H2076 H 0.0222 0.28928 0.52781 0.0
H2077 H 0.92676 0.39917 0.5162 0.0
H2078 H 0.95762 0.29742 0.57342 0.0
H2079 H 0.0035 0.40584 0.4943 0.0
H2080 H 0.93188 0.35466 0.52335 0.0
H2081 H 0.00923 0.32469 0.50318 0.0
C2082 C 0.00501 0.29816 0.5324 0.0
C2083 C 0.9912 0.29066 0.55308 0.0
C2084 C 0.94741 0.36574 0.51637 0.0
C2085 C 0.97627 0.33104 0.52469 0.0
C2086 C 0.94451 0.39111 0.51214 0.0
C2087 C 0.96496 0.40634 0.5053 0.0
C2088 C 0.97088 0.35552 0.51366 0.0
C2089 C 0.98734 0.39484 0.49986 0.0
C2090 C -0.00232 0.31838 0.51828 0.0
C2091 C 0.96902 0.30279 0.5579 0.0
N2092 N 0.9899 0.37012 0.50472 0.0
N2093 N 0.96238 0.32258 0.54396 0.0
H2094 H 0.43558 0.28563 0.32562 0.0
H2095 H 0.3367 0.21547 0.24123 0.0
H2096 H 0.4377 0.20834 0.30447 0.0
H2097 H 0.32338 0.28395 0.27963 0.0
H2098 H 0.38103 0.22074 0.24981 0.0
H2099 H 0.40223 0.29201 0.29575 0.0
C2100 C 0.42948 0.27022 0.31404 0.0
C2101 C 0.43919 0.24644 0.31733 0.0
C2102 C 0.36857 0.23511 0.25562 0.0
C2103 C 0.40103 0.25343 0.28358 0.0
C2104 C 0.34332 0.23228 0.25045 0.0
C2105 C 0.32645 0.24918 0.26 0.0
C2106 C 0.37686 0.25482 0.27069 0.0
C2107 C 0.33584 0.27054 0.27195 0.0
C2108 C 0.41046 0.27383 0.29711 0.0
C2109 C 0.43063 0.22694 0.30229 0.0
N2110 N 0.36044 0.27243 0.27758 0.0
N2111 N 0.41176 0.23078 0.28623 0.0
H2112 H 0.46269 0.47239 0.27047 0.0
H2113 H 0.479 0.56764 0.38197 0.0
H2114 H 0.42326 0.54106 0.27773 0.0
H2115 H 0.49813 0.4901 0.38738 0.0
H2116 H 0.46895 0.56156 0.33887 0.0
H2117 H 0.48515 0.48215 0.30853 0.0
C2118 C 0.45905 0.48973 0.27982 0.0
C2119 C 0.44088 0.50585 0.27104 0.0
C2120 C 0.47566 0.54594 0.34937 0.0
C2121 C 0.4666 0.51707 0.3144 0.0
C2122 C 0.48148 0.54938 0.37399 0.0
C2123 C 0.48895 0.5292 0.38844 0.0
C2124 C 0.47724 0.52213 0.339 0.0
C2125 C 0.49226 0.50611 0.37695 0.0
C2126 C 0.47182 0.49519 0.30157 0.0
C2127 C 0.43691 0.52799 0.28395 0.0
N2128 N 0.48599 0.50308 0.35291 0.0
N2129 N 0.44958 0.53288 0.30502 0.0
H2130 H 0.27218 0.64911 0.07936 0.0
H2131 H 0.17971 0.69297 0.17962 0.0
H2132 H 0.19255 0.64924 0.0711 0.0
H2133 H 0.25803 0.68625 0.19281 0.0
H2134 H 0.18298 0.66555 0.14422 0.0
H2135 H 0.26706 0.65227 0.12392 0.0
C2136 C 0.25366 0.64934 0.08696 0.0
C2137 C 0.2328 0.64976 0.07157 0.0
C2138 C 0.1994 0.66935 0.15521 0.0
C2139 C 0.22675 0.65322 0.12221 0.0
C2140 C 0.1974 0.68478 0.17557 0.0
C2141 C 0.21861 0.6917 0.18894 0.0
C2142 C 0.22299 0.66175 0.1477 0.0
C2143 C 0.24125 0.68107 0.18288 0.0
C2144 C 0.25071 0.65107 0.11236 0.0
C2145 C 0.20919 0.6497 0.08229 0.0
N2146 N 0.24303 0.66714 0.16221 0.0
N2147 N 0.20683 0.65181 0.10687 0.0
H2148 H 0.05521 0.46415 0.81105 0.0
H2149 H -0.00043 0.52274 0.92648 0.0
H2150 H 0.01878 0.53478 0.80649 0.0
H2151 H 0.00227 0.44287 0.9174 0.0
H2152 H 0.00205 0.52761 0.88197 0.0
H2153 H 0.03318 0.45527 0.84926 0.0
C2154 C 0.04229 0.4776 0.8179 0.0
C2155 C 0.03903 0.50032 0.80576 0.0
C2156 C 0.00133 0.50898 0.8897 0.0
C2157 C 0.0141 0.49054 0.84961 0.0
C2158 C -0.00029 0.5062 0.91512 0.0
C2159 C 0.00137 0.48242 0.92567 0.0
C2160 C 0.00496 0.48785 0.87501 0.0
C2161 C 0.0016 0.46161 0.91003 0.0
C2162 C 0.0296 0.47249 0.83963 0.0
C2163 C 0.02192 0.51705 0.81535 0.0
N2164 N 0.00412 0.46484 0.88553 0.0
N2165 N 0.0105 0.51209 0.83703 0.0
H2166 H 0.20542 0.3239 0.57458 0.0
H2167 H 0.25872 0.33048 0.70599 0.0
H2168 H 0.25267 0.38306 0.60318 0.0
H2169 H 0.21574 0.26877 0.67646 0.0
H2170 H 0.24057 0.35797 0.67556 0.0
H2171 H 0.19384 0.31219 0.61648 0.0
C2172 C 0.21267 0.3349 0.58977 0.0
C2173 C 0.23019 0.35416 0.58576 0.0
C2174 C 0.23413 0.33867 0.67637 0.0
C2175 C 0.21784 0.34055 0.63348 0.0
C2176 C 0.24419 0.32308 0.69408 0.0
C2177 C 0.23841 0.29749 0.69383 0.0
C2178 C 0.21911 0.32818 0.65774 0.0
C2179 C 0.22029 0.28853 0.67743 0.0
C2180 C 0.20613 0.32824 0.61365 0.0
C2181 C 0.23922 0.36792 0.60577 0.0
N2182 N 0.21178 0.30371 0.65953 0.0
N2183 N 0.23336 0.3605 0.62888 0.0
H2184 H 0.41006 0.54704 0.15759 0.0
H2185 H 0.44698 0.49346 0.02793 0.0
H2186 H 0.38809 0.47529 0.12799 0.0
H2187 H 0.49118 0.54714 0.06865 0.0
H2188 H 0.41222 0.50036 0.05562 0.0
H2189 H 0.42665 0.55918 0.11721 0.0
C2190 C 0.40785 0.53426 0.14233 0.0
C2191 C 0.39802 0.51007 0.14599 0.0
C2192 C 0.42916 0.51146 0.05787 0.0
C2193 C 0.41668 0.52373 0.10014 0.0
C2194 C 0.44887 0.50774 0.0419 0.0
C2195 C 0.47182 0.51985 0.04606 0.0
C2196 C 0.43273 0.52701 0.07835 0.0
C2197 C 0.47361 0.53772 0.06473 0.0
C2198 C 0.41739 0.54113 0.11939 0.0
C2199 C 0.39579 0.49403 0.12584 0.0
N2200 N 0.45449 0.54036 0.08063 0.0
N2201 N 0.40531 0.50104 0.10383 0.0
H2202 H 0.23445 0.73782 0.95968 0.0
H2203 H 0.31713 0.75078 0.84 0.0
H2204 H 0.29846 0.69363 0.9445 0.0
H2205 H 0.23976 0.76938 0.84314 0.0
H2206 H 0.31705 0.74427 0.8842 0.0
H2207 H 0.24347 0.76283 0.92328 0.0
C2208 C 0.25078 0.73371 0.94907 0.0
C2209 C 0.26541 0.71314 0.95486 0.0
C2210 C 0.30027 0.75036 0.87529 0.0
C2211 C 0.27579 0.74193 0.91328 0.0
C2212 C 0.30026 0.75416 0.85006 0.0
C2213 C 0.27818 0.75993 0.83774 0.0
C2214 C 0.27811 0.75247 0.88833 0.0
C2215 C 0.25709 0.76459 0.85182 0.0
C2216 C 0.25583 0.74802 0.92826 0.0
C2217 C 0.28646 0.70902 0.94054 0.0
N2218 N 0.25743 0.76024 0.87638 0.0
N2219 N 0.29082 0.72307 0.92018 0.0
H2220 H 0.08358 0.46165 0.68914 0.0
H2221 H 0.04625 0.50805 0.55542 0.0
H2222 H 0.08636 0.53854 0.66564 0.0
H2223 H 0.01128 0.44551 0.59275 0.0
H2224 H 0.07618 0.51217 0.58933 0.0
H2225 H 0.07245 0.44909 0.64712 0.0
C2226 C 0.08255 0.47577 0.67497 0.0
C2227 C 0.08528 0.50115 0.68075 0.0
C2228 C 0.0623 0.49719 0.5897 0.0
C2229 C 0.07305 0.48705 0.63312 0.0
C2230 C 0.04529 0.49484 0.57045 0.0
C2231 C 0.02598 0.47686 0.57177 0.0
C2232 C 0.06009 0.48116 0.61 0.0
C2233 C 0.02557 0.46003 0.59146 0.0
C2234 C 0.0762 0.46863 0.65112 0.0
C2235 C 0.08385 0.5188 0.66187 0.0
N2236 N 0.04222 0.46276 0.60999 0.0
N2237 N 0.07755 0.51144 0.63889 0.0
H2238 H 0.26239 0.28502 0.47235 0.0
H2239 H 0.23225 0.29187 0.32918 0.0
H2240 H 0.23018 0.34933 0.43823 0.0
H2241 H 0.26093 0.22721 0.36594 0.0
H2242 H 0.22833 0.31241 0.36898 0.0
H2243 H 0.25861 0.26262 0.43374 0.0
C2244 C 0.25432 0.29439 0.45675 0.0
C2245 C 0.24682 0.31919 0.45847 0.0
C2246 C 0.2353 0.29366 0.36829 0.0
C2247 C 0.24266 0.29365 0.41395 0.0
C2248 C 0.23756 0.28191 0.34557 0.0
C2249 C 0.24716 0.25782 0.34413 0.0
C2250 C 0.24271 0.28124 0.38967 0.0
C2251 C 0.25366 0.24585 0.36603 0.0
C2252 C 0.25217 0.28157 0.43466 0.0
C2253 C 0.23629 0.33026 0.43769 0.0
N2254 N 0.25144 0.25772 0.38781 0.0
N2255 N 0.23477 0.31749 0.41618 0.0
H2256 H 0.30109 0.44417 0.49456 0.0
H2257 H 0.45015 0.45546 0.49084 0.0
H2258 H 0.34908 0.38614 0.5198 0.0
H2259 H 0.40139 0.51424 0.46904 0.0
H2260 H 0.41352 0.42933 0.50116 0.0
H2261 H 0.3379 0.47017 0.48514 0.0
C2262 C 0.3193 0.43694 0.49825 0.0
C2263 C 0.32189 0.4129 0.50796 0.0
C2264 C 0.41092 0.44798 0.4941 0.0
C2265 C 0.3642 0.44246 0.49705 0.0
C2266 C 0.43185 0.46284 0.48811 0.0
C2267 C 0.42899 0.48711 0.47902 0.0
C2268 C 0.38699 0.45747 0.49095 0.0
C2269 C 0.40469 0.49573 0.47608 0.0
C2270 C 0.34036 0.45175 0.49281 0.0
C2271 C 0.34607 0.40452 0.51229 0.0
N2272 N 0.38476 0.48098 0.482 0.0
N2273 N 0.36621 0.41921 0.50675 0.0
H2274 H 0.83015 0.12009 0.46043 0.0
H2275 H 0.92112 0.01439 0.50849 0.0
H2276 H 0.8087 0.06495 0.51459 0.0
H2277 H 0.9444 0.07635 0.46263 0.0
H2278 H 0.87874 0.02977 0.50768 0.0
H2279 H 0.87088 0.10145 0.45782 0.0
C2280 C 0.83392 0.10398 0.4717 0.0
C2281 C 0.81593 0.09419 0.48787 0.0
C2282 C 0.89311 0.03989 0.49768 0.0
C2283 C 0.86276 0.07268 0.48496 0.0
C2284 C 0.91732 0.03106 0.49803 0.0
C2285 C 0.93647 0.04411 0.48567 0.0
C2286 C 0.88792 0.06186 0.48475 0.0
C2287 C 0.93035 0.06571 0.47257 0.0
C2288 C 0.85726 0.09335 0.47023 0.0
C2289 C 0.82199 0.07321 0.50195 0.0
N2290 N 0.90669 0.07388 0.4725 0.0
N2291 N 0.84489 0.06322 0.50022 0.0
H2292 H 0.67088 0.03749 0.26111 0.0
H2293 H 0.68056 0.18148 0.22079 0.0
H2294 H 0.60802 0.07771 0.23403 0.0
H2295 H 0.742 0.13733 0.24477 0.0
H2296 H 0.65257 0.1451 0.22779 0.0
H2297 H 0.69627 0.07559 0.25797 0.0
C2298 C 0.66236 0.05437 0.25465 0.0
C2299 C 0.63732 0.05431 0.24768 0.0
C2300 C 0.67221 0.14354 0.23153 0.0
C2301 C 0.6664 0.09814 0.24379 0.0
C2302 C 0.68812 0.16429 0.22762 0.0
C2303 C 0.71365 0.16251 0.23213 0.0
C2304 C 0.68201 0.12101 0.24006 0.0
C2305 C 0.72252 0.13965 0.24072 0.0
C2306 C 0.67689 0.07617 0.25279 0.0
C2307 C 0.62729 0.07685 0.23952 0.0
N2308 N 0.70678 0.11994 0.24436 0.0
N2309 N 0.6419 0.09784 0.23764 0.0
H2310 H 0.6525 0.86653 0.00375 0.0
H2311 H 0.58357 0.99642 -0.00344 0.0
H2312 H 0.69128 0.93807 0.00217 0.0
H2313 H 0.54985 0.92536 0.97733 0.0
H2314 H 0.62098 0.97501 0.01007 0.0
H2315 H 0.61318 0.88776 0.00447 0.0
C2316 C 0.65279 0.88675 0.00362 0.0
C2317 C 0.67528 0.90055 0.00251 0.0
C2318 C 0.60515 0.96406 0.00351 0.0
C2319 C 0.63008 0.92499 0.00353 0.0
C2320 C 0.58373 0.97621 -0.00382 0.0
C2321 C 0.56368 0.96246 0.98621 0.0
C2322 C 0.60637 0.93807 0.00064 0.0
C2323 C 0.56492 0.93646 0.98526 0.0
C2324 C 0.63027 0.89884 0.00412 0.0
C2325 C 0.67438 0.9267 0.0027 0.0
N2326 N 0.58602 0.92508 0.99218 0.0
N2327 N 0.65211 0.93812 0.00301 0.0
H2328 H 0.31377 0.44999 0.25143 0.0
H2329 H 0.29126 0.30219 0.2478 0.0
H2330 H 0.36889 0.39792 0.22853 0.0
H2331 H 0.23815 0.35332 0.27607 0.0
H2332 H 0.32253 0.33626 0.24703 0.0
H2333 H 0.28745 0.4146 0.26507 0.0
C2334 C 0.32035 0.4312 0.24927 0.0
C2335 C 0.34348 0.42703 0.23855 0.0
C2336 C 0.30423 0.33991 0.25406 0.0
C2337 C 0.31361 0.3864 0.25431 0.0
C2338 C 0.28655 0.32028 0.25498 0.0
C2339 C 0.26222 0.32496 0.26218 0.0
C2340 C 0.29727 0.36434 0.26007 0.0
C2341 C 0.25681 0.34901 0.27045 0.0
C2342 C 0.30541 0.41098 0.2572 0.0
C2343 C 0.35113 0.40218 0.23647 0.0
N2344 N 0.27401 0.36789 0.26875 0.0
N2345 N 0.33622 0.38291 0.2441 0.0
H2346 H 0.21578 0.57121 0.98126 0.0
H2347 H 0.07059 0.55446 0.97756 0.0
H2348 H 0.16759 0.62505 0.94839 0.0
H2349 H 0.11774 0.49081 0.98343 0.0
H2350 H 0.10676 0.58048 0.96706 0.0
H2351 H 0.18145 0.54033 0.98039 0.0
C2352 C 0.19825 0.57631 0.97316 0.0
C2353 C 0.19432 0.60088 0.96542 0.0
C2354 C 0.10921 0.56078 0.97048 0.0
C2355 C 0.15504 0.56603 0.96497 0.0
C2356 C 0.0886 0.546 0.97678 0.0
C2357 C 0.09122 0.52052 0.98161 0.0
C2358 C 0.13271 0.55012 0.96939 0.0
C2359 C 0.11495 0.51043 0.97993 0.0
C2360 C 0.17861 0.55875 0.97285 0.0
C2361 C 0.17126 0.60646 0.95507 0.0
N2362 N 0.13489 0.52534 0.97421 0.0
N2363 N 0.15233 0.58934 0.95564 0.0
H2364 H 0.69957 0.92761 0.21572 0.0
H2365 H 0.70442 0.79865 0.28854 0.0
H2366 H 0.65896 0.91203 0.28225 0.0
H2367 H 0.75064 0.81551 0.22598 0.0
H2368 H 0.69065 0.84158 0.2885 0.0
H2369 H 0.72129 0.88842 0.22098 0.0
C2370 C 0.6954 0.91612 0.2316 0.0
C2371 C 0.67719 0.92308 0.24844 0.0
C2372 C 0.70401 0.83605 0.27492 0.0
C2373 C 0.70194 0.87802 0.25447 0.0
C2374 C 0.71191 0.81147 0.27493 0.0
C2375 C 0.72858 0.80333 0.2571 0.0
C2376 C 0.71254 0.85272 0.25675 0.0
C2377 C 0.73777 0.82092 0.24007 0.0
C2378 C 0.70783 0.89371 0.23457 0.0
C2379 C 0.6727 0.90742 0.26869 0.0
N2380 N 0.72938 0.84469 0.24011 0.0
N2381 N 0.68479 0.88557 0.27098 0.0
H2382 H 0.82676 0.07141 0.7752 0.0
H2383 H 0.78559 0.20686 0.73142 0.0
H2384 H 0.86564 0.11027 0.71701 0.0
H2385 H 0.77055 0.17494 0.80265 0.0
H2386 H 0.81301 0.17155 0.72287 0.0
H2387 H 0.80244 0.10852 0.78212 0.0
C2388 C 0.83014 0.08771 0.76382 0.0
C2389 C 0.84837 0.08771 0.7456 0.0
C2390 C 0.80376 0.17255 0.7404 0.0
C2391 C 0.82049 0.13047 0.75338 0.0
C2392 C 0.78828 0.19273 0.74531 0.0
C2393 C 0.77552 0.19375 0.76766 0.0
C2394 C 0.80613 0.15336 0.75791 0.0
C2395 C 0.77962 0.17485 0.78499 0.0
C2396 C 0.81633 0.10899 0.76783 0.0
C2397 C 0.85188 0.10949 0.73139 0.0
N2398 N 0.79426 0.15548 0.77966 0.0
N2399 N 0.83802 0.12998 0.73551 0.0
loop_
_geom_bond_atom_site_label_1
_geom_bond_atom_site_label_2
_geom_bond_distance
_geom_bond_site_symmetry_2
_ccdc_geom_bond_type
Zn0 O3 2.031 . S
Zn0 O5 2.049 . S
Zn0 O10 2.067 . S
Zn1 O2 1.962 . S
Zn1 O4 1.986 . S
Zn1 O6 2.006 . S
Zn1 O9 1.943 1_655 S
O2 Zn1 1.962 . S
O2 C7 1.254 1_655 S
O3 Zn0 2.031 . S
O3 C7 1.269 . S
O4 Zn1 1.986 . S
O4 C11 1.262 . S
O5 Zn0 2.049 . S
O5 C13 1.260 . S
O6 Zn1 2.006 . S
O6 C13 1.239 1_655 S
C7 O2 1.254 1_455 S
C7 O3 1.269 . S
C8 O9 1.249 . S
C8 O10 1.270 . S
O9 Zn1 1.943 1_455 S
O9 C8 1.249 . S
O10 Zn0 2.067 . S
O10 C8 1.270 . S
C11 O4 1.262 . S
C11 O12 1.232 . S
O12 C11 1.232 . S
C13 O5 1.260 . S
C13 O6 1.239 1_455 S
Zn14 O17 2.031 . S
Zn14 O19 2.049 . S
Zn14 O24 2.067 . S
Zn15 O16 1.962 . S
Zn15 O18 1.986 . S
Zn15 O20 1.996 . S
Zn15 O23 1.943 1_455 S
O16 Zn15 1.962 . S
O16 C21 1.257 . S
O17 Zn14 2.031 . S
O17 C21 1.266 1_655 S
O18 Zn15 1.986 . S
O18 C25 1.262 . S
O19 Zn14 2.049 . S
O19 C27 1.260 . S
O20 Zn15 1.996 . S
O20 C27 1.257 1_455 S
C21 O16 1.257 . S
C21 O17 1.266 1_455 S
C22 O23 1.249 . S
C22 O24 1.270 . S
O23 Zn15 1.943 1_655 S
O23 C22 1.249 . S
O24 Zn14 2.067 . S
O24 C22 1.270 . S
C25 O18 1.262 . S
C25 O26 1.232 . S
O26 C25 1.232 . S
C27 O19 1.260 . S
C27 O20 1.257 1_655 S
Zn28 O31 2.031 . S
Zn28 O33 2.049 . S
Zn28 O38 2.067 . S
Zn29 O30 1.962 . S
Zn29 O32 1.986 . S
Zn29 O34 1.996 . S
Zn29 O37 1.943 . S
O30 Zn29 1.962 . S
O30 C35 1.254 . S
O31 Zn28 2.031 . S
O31 C35 1.269 . S
O32 Zn29 1.986 . S
O32 C39 1.262 . S
O33 Zn28 2.049 . S
O33 C41 1.260 . S
O34 Zn29 1.996 . S
O34 C41 1.257 . S
C35 O30 1.254 . S
C35 O31 1.269 . S
C36 O37 1.249 . S
C36 O38 1.270 . S
O37 Zn29 1.943 . S
O37 C36 1.249 . S
O38 Zn28 2.067 . S
O38 C36 1.270 . S
C39 O32 1.262 . S
C39 O40 1.232 . S
O40 C39 1.232 . S
C41 O33 1.260 . S
C41 O34 1.257 . S
Zn42 O45 2.031 . S
Zn42 O47 2.049 . S
Zn42 O52 2.067 . S
Zn43 O44 1.962 . S
Zn43 O46 1.986 . S
Zn43 O48 1.996 . S
Zn43 O51 1.943 . S
O44 Zn43 1.962 . S
O44 C49 1.254 . S
O45 Zn42 2.031 . S
O45 C49 1.269 . S
O46 Zn43 1.986 . S
O46 C53 1.262 . S
O47 Zn42 2.049 . S
O47 C55 1.260 . S
O48 Zn43 1.996 . S
O48 C55 1.257 . S
C49 O44 1.254 . S
C49 O45 1.269 . S
C50 O51 1.249 . S
C50 O52 1.270 . S
O51 Zn43 1.943 . S
O51 C50 1.249 . S
O52 Zn42 2.067 . S
O52 C50 1.270 . S
C53 O46 1.262 . S
C53 O54 1.232 . S
O54 C53 1.232 . S
C55 O47 1.260 . S
C55 O48 1.257 . S
Zn56 O59 2.031 . S
Zn56 O61 2.049 . S
Zn56 O66 2.067 . S
Zn57 O58 1.962 . S
Zn57 O60 1.986 . S
Zn57 O62 2.006 . S
Zn57 O65 1.943 1_565 S
O58 Zn57 1.962 . S
O58 C63 1.254 1_565 S
O59 Zn56 2.031 . S
O59 C63 1.269 . S
O60 Zn57 1.986 . S
O60 C67 1.262 . S
O61 Zn56 2.049 . S
O61 C69 1.260 . S
O62 Zn57 2.006 . S
O62 C69 1.237 1_565 S
C63 O58 1.254 1_545 S
C63 O59 1.269 . S
C64 O65 1.249 . S
C64 O66 1.270 . S
O65 Zn57 1.943 1_545 S
O65 C64 1.249 . S
O66 Zn56 2.067 . S
O66 C64 1.270 . S
C67 O60 1.262 . S
C67 O68 1.232 . S
O68 C67 1.232 . S
C69 O61 1.260 . S
C69 O62 1.237 1_545 S
Zn70 O73 2.031 . S
Zn70 O75 2.049 . S
Zn70 O80 2.067 . S
Zn71 O72 1.962 . S
Zn71 O74 1.986 . S
Zn71 O76 1.996 . S
Zn71 O79 1.943 . S
O72 Zn71 1.962 . S
O72 C77 1.254 . S
O73 Zn70 2.031 . S
O73 C77 1.269 . S
O74 Zn71 1.986 . S
O74 C81 1.262 . S
O75 Zn70 2.049 . S
O75 C83 1.260 . S
O76 Zn71 1.996 . S
O76 C83 1.257 . S
C77 O72 1.254 . S
C77 O73 1.269 . S
C78 O79 1.249 . S
C78 O80 1.270 . S
O79 Zn71 1.943 . S
O79 C78 1.249 . S
O80 Zn70 2.067 . S
O80 C78 1.270 . S
C81 O74 1.262 . S
C81 O82 1.232 . S
O82 C81 1.232 . S
C83 O75 1.260 . S
C83 O76 1.257 . S
Zn84 O87 2.031 . S
Zn84 O89 2.049 . S
Zn84 O94 2.067 . S
Zn85 O86 1.962 . S
Zn85 O88 1.986 . S
Zn85 O90 1.996 . S
Zn85 O93 1.943 1_545 S
O86 Zn85 1.962 . S
O86 C91 1.250 . S
O87 Zn84 2.031 . S
O87 C91 1.274 1_565 S
O88 Zn85 1.986 . S
O88 C95 1.262 . S
O89 Zn84 2.049 . S
O89 C97 1.260 . S
O90 Zn85 1.996 . S
O90 C97 1.257 1_545 S
C91 O86 1.250 . S
C91 O87 1.274 1_545 S
C92 O93 1.249 . S
C92 O94 1.270 . S
O93 Zn85 1.943 1_565 S
O93 C92 1.249 . S
O94 Zn84 2.067 . S
O94 C92 1.270 . S
C95 O88 1.262 . S
C95 O96 1.232 . S
O96 C95 1.232 . S
C97 O89 1.260 . S
C97 O90 1.257 1_565 S
Zn98 O101 2.031 1_554 S
Zn98 O103 2.049 . S
Zn98 O108 2.067 . S
Zn99 O100 1.962 1_554 S
Zn99 O102 1.986 . S
Zn99 O104 1.996 . S
Zn99 O107 1.943 . S
O100 Zn99 1.962 1_556 S
O100 C105 1.254 . S
O101 Zn98 2.031 1_556 S
O101 C105 1.269 . S
O102 Zn99 1.986 . S
O102 C109 1.262 . S
O103 Zn98 2.049 . S
O103 C111 1.260 . S
O104 Zn99 1.996 . S
O104 C111 1.257 . S
C105 O100 1.254 . S
C105 O101 1.269 . S
C106 O107 1.249 . S
C106 O108 1.270 . S
O107 Zn99 1.943 . S
O107 C106 1.249 . S
O108 Zn98 2.067 . S
O108 C106 1.270 . S
C109 O102 1.262 . S
C109 O110 1.232 1_554 S
O110 C109 1.232 1_556 S
C111 O103 1.260 . S
C111 O104 1.257 . S
Zn112 O115 2.031 1_554 S
Zn112 O117 2.049 . S
Zn112 O122 2.067 . S
Zn113 O114 1.962 1_554 S
Zn113 O116 1.986 . S
Zn113 O118 1.996 . S
Zn113 O121 1.943 . S
O114 Zn113 1.962 1_556 S
O114 C119 1.254 . S
O115 Zn112 2.031 1_556 S
O115 C119 1.269 . S
O116 Zn113 1.986 . S
O116 C123 1.262 . S
O117 Zn112 2.049 . S
O117 C125 1.260 . S
O118 Zn113 1.996 . S
O118 C125 1.257 . S
C119 O114 1.254 . S
C119 O115 1.269 . S
C120 O121 1.249 . S
C120 O122 1.270 . S
O121 Zn113 1.943 . S
O121 C120 1.249 . S
O122 Zn112 2.067 . S
O122 C120 1.270 . S
C123 O116 1.262 . S
C123 O124 1.232 1_554 S
O124 C123 1.232 1_556 S
C125 O117 1.260 . S
C125 O118 1.257 . S
Zn126 O129 2.031 . S
Zn126 O131 2.049 . S
Zn126 O136 2.067 . S
Zn127 O128 1.962 . S
Zn127 O130 1.986 . S
Zn127 O132 1.996 . S
Zn127 O135 1.943 . S
O128 Zn127 1.962 . S
O128 C133 1.254 . S
O129 Zn126 2.031 . S
O129 C133 1.269 . S
O130 Zn127 1.986 . S
O130 C137 1.262 . S
O131 Zn126 2.049 . S
O131 C139 1.260 . S
O132 Zn127 1.996 . S
O132 C139 1.257 . S
C133 O128 1.254 . S
C133 O129 1.269 . S
C134 O135 1.249 . S
C134 O136 1.270 . S
O135 Zn127 1.943 . S
O135 C134 1.249 . S
O136 Zn126 2.067 . S
O136 C134 1.270 . S
C137 O130 1.262 . S
C137 O138 1.232 . S
O138 C137 1.232 . S
C139 O131 1.260 . S
C139 O132 1.257 . S
Zn140 O143 2.031 . S
Zn140 O145 2.049 . S
Zn140 O150 2.067 . S
Zn141 O142 1.962 . S
Zn141 O144 1.986 . S
Zn141 O146 1.996 . S
Zn141 O149 1.943 . S
O142 Zn141 1.962 . S
O142 C147 1.254 . S
O143 Zn140 2.031 . S
O143 C147 1.269 . S
O144 Zn141 1.986 . S
O144 C151 1.262 . S
O145 Zn140 2.049 . S
O145 C153 1.260 . S
O146 Zn141 1.996 . S
O146 C153 1.257 . S
C147 O142 1.254 . S
C147 O143 1.269 . S
C148 O149 1.249 . S
C148 O150 1.270 . S
O149 Zn141 1.943 . S
O149 C148 1.249 . S
O150 Zn140 2.067 . S
O150 C148 1.270 . S
C151 O144 1.262 . S
C151 O152 1.232 . S
O152 C151 1.232 . S
C153 O145 1.260 . S
C153 O146 1.257 . S
Zn154 O157 2.031 . S
Zn154 O159 2.049 . S
Zn154 O164 2.067 . S
Zn155 O156 1.962 . S
Zn155 O158 1.986 . S
Zn155 O160 1.996 . S
Zn155 O163 1.943 . S
O156 Zn155 1.962 . S
O156 C161 1.254 . S
O157 Zn154 2.031 . S
O157 C161 1.269 . S
O158 Zn155 1.986 . S
O158 C165 1.262 . S
O159 Zn154 2.049 . S
O159 C167 1.260 . S
O160 Zn155 1.996 . S
O160 C167 1.257 . S
C161 O156 1.254 . S
C161 O157 1.269 . S
C162 O163 1.249 . S
C162 O164 1.270 . S
O163 Zn155 1.943 . S
O163 C162 1.249 . S
O164 Zn154 2.067 . S
O164 C162 1.270 . S
C165 O158 1.262 . S
C165 O166 1.232 . S
O166 C165 1.232 . S
C167 O159 1.260 . S
C167 O160 1.257 . S
Zn168 O171 2.031 . S
Zn168 O173 2.049 . S
Zn168 O178 2.067 . S
Zn169 O170 1.962 . S
Zn169 O172 1.986 . S
Zn169 O174 1.996 . S
Zn169 O177 1.943 1_455 S
O170 Zn169 1.962 . S
O170 C175 1.254 . S
O171 Zn168 2.031 . S
O171 C175 1.269 1_655 S
O172 Zn169 1.986 . S
O172 C179 1.262 . S
O173 Zn168 2.049 . S
O173 C181 1.260 . S
O174 Zn169 1.996 . S
O174 C181 1.257 1_455 S
C175 O170 1.254 . S
C175 O171 1.269 1_455 S
C176 O177 1.249 . S
C176 O178 1.270 . S
O177 Zn169 1.943 1_655 S
O177 C176 1.249 . S
O178 Zn168 2.067 . S
O178 C176 1.270 . S
C179 O172 1.262 . S
C179 O180 1.232 . S
O180 C179 1.232 . S
C181 O173 1.260 . S
C181 O174 1.257 1_655 S
Zn182 O185 2.031 . S
Zn182 O187 2.049 . S
Zn182 O192 2.067 . S
Zn183 O184 1.962 . S
Zn183 O186 1.986 . S
Zn183 O188 1.994 1_655 S
Zn183 O191 1.943 1_655 S
O184 Zn183 1.962 . S
O184 C189 1.254 1_655 S
O185 Zn182 2.031 . S
O185 C189 1.269 . S
O186 Zn183 1.986 . S
O186 C193 1.262 . S
O187 Zn182 2.049 . S
O187 C195 1.260 . S
O188 Zn183 1.994 1_455 S
O188 C195 1.260 . S
C189 O184 1.254 1_455 S
C189 O185 1.269 . S
C190 O191 1.249 . S
C190 O192 1.270 . S
O191 Zn183 1.943 1_455 S
O191 C190 1.249 . S
O192 Zn182 2.067 . S
O192 C190 1.270 . S
C193 O186 1.262 . S
C193 O194 1.232 . S
O194 C193 1.232 . S
C195 O187 1.260 . S
C195 O188 1.260 . S
Zn196 O199 2.031 . S
Zn196 O201 2.049 . S
Zn196 O206 2.067 . S
Zn197 O198 1.962 . S
Zn197 O200 1.986 . S
Zn197 O202 1.996 . S
Zn197 O205 1.943 . S
O198 Zn197 1.962 . S
O198 C203 1.254 . S
O199 Zn196 2.031 . S
O199 C203 1.269 . S
O200 Zn197 1.986 . S
O200 C207 1.262 . S
O201 Zn196 2.049 . S
O201 C209 1.260 . S
O202 Zn197 1.996 . S
O202 C209 1.257 . S
C203 O198 1.254 . S
C203 O199 1.269 . S
C204 O205 1.249 . S
C204 O206 1.270 . S
O205 Zn197 1.943 . S
O205 C204 1.249 . S
O206 Zn196 2.067 . S
O206 C204 1.270 . S
C207 O200 1.262 . S
C207 O208 1.232 . S
O208 C207 1.232 . S
C209 O201 1.260 . S
C209 O202 1.257 . S
Zn210 O213 2.031 . S
Zn210 O215 2.049 . S
Zn210 O220 2.067 . S
Zn211 O212 1.962 . S
Zn211 O214 1.986 . S
Zn211 O216 1.996 . S
Zn211 O219 1.943 . S
O212 Zn211 1.962 . S
O212 C217 1.254 . S
O213 Zn210 2.031 . S
O213 C217 1.269 . S
O214 Zn211 1.986 . S
O214 C221 1.262 . S
O215 Zn210 2.049 . S
O215 C223 1.260 . S
O216 Zn211 1.996 . S
O216 C223 1.257 . S
C217 O212 1.254 . S
C217 O213 1.269 . S
C218 O219 1.249 . S
C218 O220 1.270 . S
O219 Zn211 1.943 . S
O219 C218 1.249 . S
O220 Zn210 2.067 . S
O220 C218 1.270 . S
C221 O214 1.262 . S
C221 O222 1.232 . S
O222 C221 1.232 . S
C223 O215 1.260 . S
C223 O216 1.257 . S
Zn224 O227 2.031 . S
Zn224 O229 2.049 . S
Zn224 O234 2.067 . S
Zn225 O226 1.962 . S
Zn225 O228 1.986 . S
Zn225 O230 1.996 . S
Zn225 O233 1.943 1_545 S
O226 Zn225 1.962 . S
O226 C231 1.254 1_545 S
O227 Zn224 2.031 . S
O227 C231 1.269 . S
O228 Zn225 1.986 . S
O228 C235 1.262 . S
O229 Zn224 2.049 . S
O229 C237 1.260 . S
O230 Zn225 1.996 . S
O230 C237 1.257 1_545 S
C231 O226 1.254 1_565 S
C231 O227 1.269 . S
C232 O233 1.249 . S
C232 O234 1.270 . S
O233 Zn225 1.943 1_565 S
O233 C232 1.249 . S
O234 Zn224 2.067 . S
O234 C232 1.270 . S
C235 O228 1.262 . S
C235 O236 1.232 . S
O236 C235 1.232 . S
C237 O229 1.260 . S
C237 O230 1.257 1_565 S
Zn238 O241 2.031 . S
Zn238 O243 2.049 . S
Zn238 O248 2.067 . S
Zn239 O240 1.962 . S
Zn239 O242 1.986 . S
Zn239 O244 1.996 . S
Zn239 O247 1.943 . S
O240 Zn239 1.962 . S
O240 C245 1.254 . S
O241 Zn238 2.031 . S
O241 C245 1.269 . S
O242 Zn239 1.986 . S
O242 C249 1.262 . S
O243 Zn238 2.049 . S
O243 C251 1.260 . S
O244 Zn239 1.996 . S
O244 C251 1.257 . S
C245 O240 1.254 . S
C245 O241 1.269 . S
C246 O247 1.249 . S
C246 O248 1.270 . S
O247 Zn239 1.943 . S
O247 C246 1.249 . S
O248 Zn238 2.067 . S
O248 C246 1.270 . S
C249 O242 1.262 . S
C249 O250 1.232 . S
O250 C249 1.232 . S
C251 O243 1.260 . S
C251 O244 1.257 . S
Zn252 O255 2.031 . S
Zn252 O257 2.049 . S
Zn252 O262 2.067 . S
Zn253 O254 1.962 . S
Zn253 O256 1.986 . S
Zn253 O258 1.994 1_565 S
Zn253 O261 1.943 1_565 S
O254 Zn253 1.962 . S
O254 C259 1.254 1_565 S
O255 Zn252 2.031 . S
O255 C259 1.269 . S
O256 Zn253 1.986 . S
O256 C263 1.262 . S
O257 Zn252 2.049 . S
O257 C265 1.260 . S
O258 Zn253 1.994 1_545 S
O258 C265 1.262 . S
C259 O254 1.254 1_545 S
C259 O255 1.269 . S
C260 O261 1.249 . S
C260 O262 1.270 . S
O261 Zn253 1.943 1_545 S
O261 C260 1.249 . S
O262 Zn252 2.067 . S
O262 C260 1.270 . S
C263 O256 1.262 . S
C263 O264 1.232 . S
O264 C263 1.232 . S
C265 O257 1.260 . S
C265 O258 1.262 . S
Zn266 O269 2.031 1_554 S
Zn266 O271 2.049 . S
Zn266 O276 2.067 . S
Zn267 O268 1.962 1_554 S
Zn267 O270 1.986 . S
Zn267 O272 1.996 . S
Zn267 O275 1.943 . S
O268 Zn267 1.962 1_556 S
O268 C273 1.254 . S
O269 Zn266 2.031 1_556 S
O269 C273 1.269 . S
O270 Zn267 1.986 . S
O270 C277 1.262 . S
O271 Zn266 2.049 . S
O271 C279 1.260 . S
O272 Zn267 1.996 . S
O272 C279 1.257 . S
C273 O268 1.254 . S
C273 O269 1.269 . S
C274 O275 1.249 . S
C274 O276 1.270 . S
O275 Zn267 1.943 . S
O275 C274 1.249 . S
O276 Zn266 2.067 . S
O276 C274 1.270 . S
C277 O270 1.262 . S
C277 O278 1.232 1_554 S
O278 C277 1.232 1_556 S
C279 O271 1.260 . S
C279 O272 1.257 . S
Zn280 O283 2.031 1_554 S
Zn280 O285 2.049 . S
Zn280 O290 2.067 . S
Zn281 O282 1.935 1_554 S
Zn281 O284 2.001 . S
Zn281 O286 2.018 . S
Zn281 O289 1.945 . S
O282 Zn281 1.935 1_556 S
O282 C287 1.254 . S
O283 Zn280 2.031 1_556 S
O283 C287 1.269 . S
O284 Zn281 2.001 . S
O284 C291 1.289 . S
O285 Zn280 2.049 . S
O285 C293 1.260 . S
O286 Zn281 2.018 . S
O286 C293 1.257 . S
C287 O282 1.254 . S
C287 O283 1.269 . S
C288 O289 1.249 . S
C288 O290 1.270 . S
O289 Zn281 1.945 . S
O289 C288 1.249 . S
O290 Zn280 2.067 . S
O290 C288 1.270 . S
C291 O284 1.289 . S
C291 O292 1.200 1_554 S
O292 C291 1.200 1_556 S
C293 O285 1.260 . S
C293 O286 1.257 . S
Zn294 O297 2.031 . S
Zn294 O299 2.049 . S
Zn294 O304 2.067 . S
Zn295 O296 1.962 . S
Zn295 O298 1.986 . S
Zn295 O300 1.996 . S
Zn295 O303 1.943 . S
O296 Zn295 1.962 . S
O296 C301 1.254 . S
O297 Zn294 2.031 . S
O297 C301 1.269 . S
O298 Zn295 1.986 . S
O298 C305 1.262 . S
O299 Zn294 2.049 . S
O299 C307 1.260 . S
O300 Zn295 1.996 . S
O300 C307 1.257 . S
C301 O296 1.254 . S
C301 O297 1.269 . S
C302 O303 1.249 . S
C302 O304 1.270 . S
O303 Zn295 1.943 . S
O303 C302 1.249 . S
O304 Zn294 2.067 . S
O304 C302 1.270 . S
C305 O298 1.262 . S
C305 O306 1.232 . S
O306 C305 1.232 . S
C307 O299 1.260 . S
C307 O300 1.257 . S
Zn308 O311 2.031 . S
Zn308 O313 2.049 . S
Zn308 O318 2.067 . S
Zn309 O310 1.962 . S
Zn309 O312 1.986 . S
Zn309 O314 1.996 . S
Zn309 O317 1.943 . S
O310 Zn309 1.962 . S
O310 C315 1.254 . S
O311 Zn308 2.031 . S
O311 C315 1.269 . S
O312 Zn309 1.986 . S
O312 C319 1.262 . S
O313 Zn308 2.049 . S
O313 C321 1.260 . S
O314 Zn309 1.996 . S
O314 C321 1.257 . S
C315 O310 1.254 . S
C315 O311 1.269 . S
C316 O317 1.249 . S
C316 O318 1.270 . S
O317 Zn309 1.943 . S
O317 C316 1.249 . S
O318 Zn308 2.067 . S
O318 C316 1.270 . S
C319 O312 1.262 . S
C319 O320 1.232 . S
O320 C319 1.232 . S
C321 O313 1.260 . S
C321 O314 1.257 . S
Zn322 O325 2.031 . S
Zn322 O327 2.049 . S
Zn322 O332 2.067 . S
Zn323 O324 1.962 . S
Zn323 O326 1.986 . S
Zn323 O328 1.996 . S
Zn323 O331 1.943 . S
O324 Zn323 1.962 . S
O324 C329 1.254 . S
O325 Zn322 2.031 . S
O325 C329 1.269 . S
O326 Zn323 1.986 . S
O326 C333 1.262 . S
O327 Zn322 2.049 . S
O327 C335 1.260 . S
O328 Zn323 1.996 . S
O328 C335 1.257 . S
C329 O324 1.254 . S
C329 O325 1.269 . S
C330 O331 1.249 . S
C330 O332 1.270 . S
O331 Zn323 1.943 . S
O331 C330 1.249 . S
O332 Zn322 2.067 . S
O332 C330 1.270 . S
C333 O326 1.262 . S
C333 O334 1.232 . S
O334 C333 1.232 . S
C335 O327 1.260 . S
C335 O328 1.257 . S
O336 Mn337 2.187 1_556 S
O336 C350 1.246 . S
Mn337 O336 2.187 1_554 S
Mn337 O340 2.138 1_445 S
Mn337 O341 2.259 1_455 S
Mn337 O343 2.164 1_454 S
Mn337 O345 2.154 1_545 S
Mn337 O355 2.182 1_544 S
O338 Mn339 2.087 1_556 S
O338 C350 1.256 1_565 S
Mn339 O338 2.087 1_554 S
Mn339 O346 2.089 . S
Mn339 O355 2.290 1_554 S
Mn339 O356 2.251 1_554 S
O340 Mn337 2.138 1_665 S
O340 C351 1.239 . S
O341 Mn337 2.259 1_655 S
O341 Mn342 2.290 1_554 S
O341 C352 1.278 . S
Mn342 O341 2.290 1_556 S
Mn342 O344 2.088 1_556 S
Mn342 O347 2.251 1_556 S
Mn342 O348 2.087 . S
O343 Mn337 2.164 1_656 S
O343 C353 1.244 . S
O344 Mn342 2.088 1_554 S
O344 C351 1.259 1_545 S
O345 Mn337 2.154 1_565 S
O345 C354 1.239 . S
O346 Mn339 2.089 . S
O346 C354 1.256 . S
O347 Mn342 2.251 1_554 S
O347 C352 1.241 . S
O348 Mn342 2.087 . S
O348 C353 1.256 . S
C349 O355 1.278 . S
C349 O356 1.241 . S
C350 O336 1.246 . S
C350 O338 1.256 1_545 S
C351 O340 1.239 . S
C351 O344 1.259 1_565 S
C352 O341 1.278 . S
C352 O347 1.241 . S
C353 O343 1.244 . S
C353 O348 1.256 . S
C354 O345 1.239 . S
C354 O346 1.256 . S
O355 Mn337 2.182 1_566 S
O355 Mn339 2.290 1_556 S
O355 C349 1.278 . S
O356 Mn339 2.251 1_556 S
O356 C349 1.241 . S
O357 Mn358 2.163 . S
O357 C371 1.244 . S
Mn358 O357 2.163 . S
Mn358 O361 2.160 . S
Mn358 O362 2.221 . S
Mn358 O364 2.163 . S
Mn358 O366 2.160 . S
Mn358 O376 2.221 . S
O359 Mn360 2.087 . S
O359 C371 1.256 . S
Mn360 O359 2.087 . S
Mn360 O367 2.089 . S
Mn360 O376 2.290 . S
Mn360 O377 2.251 . S
O361 Mn358 2.160 . S
O361 C372 1.239 . S
O362 Mn358 2.221 . S
O362 Mn363 2.290 . S
O362 C373 1.278 . S
Mn363 O362 2.290 . S
Mn363 O365 2.089 . S
Mn363 O368 2.251 . S
Mn363 O369 2.087 . S
O364 Mn358 2.163 . S
O364 C374 1.244 . S
O365 Mn363 2.089 . S
O365 C372 1.256 . S
O366 Mn358 2.160 . S
O366 C375 1.239 . S
O367 Mn360 2.089 . S
O367 C375 1.256 . S
O368 Mn363 2.251 . S
O368 C373 1.241 . S
O369 Mn363 2.087 . S
O369 C374 1.256 . S
C370 O376 1.278 . S
C370 O377 1.241 . S
C371 O357 1.244 . S
C371 O359 1.256 . S
C372 O361 1.239 . S
C372 O365 1.256 . S
C373 O362 1.278 . S
C373 O368 1.241 . S
C374 O364 1.244 . S
C374 O369 1.256 . S
C375 O366 1.239 . S
C375 O367 1.256 . S
O376 Mn358 2.221 . S
O376 Mn360 2.290 . S
O376 C370 1.278 . S
O377 Mn360 2.251 . S
O377 C370 1.241 . S
O378 Mn379 2.163 1_565 S
O378 C392 1.244 . S
Mn379 O378 2.163 1_545 S
Mn379 O382 2.160 . S
Mn379 O383 2.221 1_545 S
Mn379 O385 2.163 . S
Mn379 O387 2.160 . S
Mn379 O397 2.221 . S
O380 Mn381 2.087 . S
O380 C392 1.256 1_545 S
Mn381 O380 2.087 . S
Mn381 O388 2.089 . S
Mn381 O397 2.290 . S
Mn381 O398 2.251 . S
O382 Mn379 2.160 . S
O382 C393 1.239 . S
O383 Mn379 2.221 1_565 S
O383 Mn384 2.290 . S
O383 C394 1.278 . S
Mn384 O383 2.290 . S
Mn384 O386 2.089 1_565 S
Mn384 O389 2.251 . S
Mn384 O390 2.087 . S
O385 Mn379 2.163 . S
O385 C395 1.244 1_545 S
O386 Mn384 2.089 1_545 S
O386 C393 1.256 . S
O387 Mn379 2.160 . S
O387 C396 1.239 . S
O388 Mn381 2.089 . S
O388 C396 1.256 . S
O389 Mn384 2.251 . S
O389 C394 1.241 . S
O390 Mn384 2.087 . S
O390 C395 1.256 . S
C391 O397 1.278 . S
C391 O398 1.241 . S
C392 O378 1.244 . S
C392 O380 1.256 1_565 S
C393 O382 1.239 . S
C393 O386 1.256 . S
C394 O383 1.278 . S
C394 O389 1.241 . S
C395 O385 1.244 1_565 S
C395 O390 1.256 . S
C396 O387 1.239 . S
C396 O388 1.256 . S
O397 Mn379 2.221 . S
O397 Mn381 2.290 . S
O397 C391 1.278 . S
O398 Mn381 2.251 . S
O398 C391 1.241 . S
O399 Mn400 2.163 . S
O399 C413 1.244 . S
Mn400 O399 2.163 . S
Mn400 O403 2.160 . S
Mn400 O404 2.221 . S
Mn400 O406 2.163 . S
Mn400 O408 2.160 . S
Mn400 O418 2.221 . S
O401 Mn402 2.087 . S
O401 C413 1.256 . S
Mn402 O401 2.087 . S
Mn402 O409 2.089 . S
Mn402 O418 2.290 . S
Mn402 O419 2.251 . S
O403 Mn400 2.160 . S
O403 C414 1.239 . S
O404 Mn400 2.221 . S
O404 Mn405 2.290 . S
O404 C415 1.278 . S
Mn405 O404 2.290 . S
Mn405 O407 2.089 . S
Mn405 O410 2.251 . S
Mn405 O411 2.087 . S
O406 Mn400 2.163 . S
O406 C416 1.244 . S
O407 Mn405 2.089 . S
O407 C414 1.256 . S
O408 Mn400 2.160 . S
O408 C417 1.239 . S
O409 Mn402 2.089 . S
O409 C417 1.256 . S
O410 Mn405 2.251 . S
O410 C415 1.241 . S
O411 Mn405 2.087 . S
O411 C416 1.256 . S
C412 O418 1.278 . S
C412 O419 1.241 . S
C413 O399 1.244 . S
C413 O401 1.256 . S
C414 O403 1.239 . S
C414 O407 1.256 . S
C415 O404 1.278 . S
C415 O410 1.241 . S
C416 O406 1.244 . S
C416 O411 1.256 . S
C417 O408 1.239 . S
C417 O409 1.256 . S
O418 Mn400 2.221 . S
O418 Mn402 2.290 . S
O418 C412 1.278 . S
O419 Mn402 2.251 . S
O419 C412 1.241 . S
O420 Mn421 2.163 1_665 S
O420 C434 1.244 . S
Mn421 O420 2.163 1_445 S
Mn421 O424 2.160 . S
Mn421 O425 2.221 . S
Mn421 O427 2.163 1_455 S
Mn421 O429 2.160 1_545 S
Mn421 O439 2.221 1_445 S
O422 Mn423 2.087 1_655 S
O422 C434 1.256 . S
Mn423 O422 2.087 1_455 S
Mn423 O430 2.089 . S
Mn423 O439 2.290 1_455 S
Mn423 O440 2.251 1_455 S
O424 Mn421 2.160 . S
O424 C435 1.239 . S
O425 Mn421 2.221 . S
O425 Mn426 2.290 1_455 S
O425 C436 1.278 . S
Mn426 O425 2.290 1_655 S
Mn426 O428 2.089 1_655 S
Mn426 O431 2.251 1_655 S
Mn426 O432 2.087 . S
O427 Mn421 2.163 1_655 S
O427 C437 1.244 . S
O428 Mn426 2.089 1_455 S
O428 C435 1.256 . S
O429 Mn421 2.160 1_565 S
O429 C438 1.239 . S
O430 Mn423 2.089 . S
O430 C438 1.256 . S
O431 Mn426 2.251 1_455 S
O431 C436 1.241 . S
O432 Mn426 2.087 . S
O432 C437 1.256 . S
C433 O439 1.278 . S
C433 O440 1.241 . S
C434 O420 1.244 . S
C434 O422 1.256 . S
C435 O424 1.239 . S
C435 O428 1.256 . S
C436 O425 1.278 . S
C436 O431 1.241 . S
C437 O427 1.244 . S
C437 O432 1.256 . S
C438 O429 1.239 . S
C438 O430 1.256 . S
O439 Mn421 2.221 1_665 S
O439 Mn423 2.290 1_655 S
O439 C433 1.278 . S
O440 Mn423 2.251 1_655 S
O440 C433 1.241 . S
O441 Mn442 2.163 . S
O441 C455 1.244 . S
Mn442 O441 2.163 . S
Mn442 O445 2.160 . S
Mn442 O446 2.221 . S
Mn442 O448 2.163 . S
Mn442 O450 2.160 . S
Mn442 O460 2.221 . S
O443 Mn444 2.087 . S
O443 C455 1.256 . S
Mn444 O443 2.087 . S
Mn444 O451 2.089 . S
Mn444 O460 2.290 . S
Mn444 O461 2.251 . S
O445 Mn442 2.160 . S
O445 C456 1.239 . S
O446 Mn442 2.221 . S
O446 Mn447 2.290 . S
O446 C457 1.278 . S
Mn447 O446 2.290 . S
Mn447 O449 2.089 . S
Mn447 O452 2.251 . S
Mn447 O453 2.087 . S
O448 Mn442 2.163 . S
O448 C458 1.244 . S
O449 Mn447 2.089 . S
O449 C456 1.256 . S
O450 Mn442 2.160 . S
O450 C459 1.239 . S
O451 Mn444 2.089 . S
O451 C459 1.256 . S
O452 Mn447 2.251 . S
O452 C457 1.241 . S
O453 Mn447 2.087 . S
O453 C458 1.256 . S
C454 O460 1.278 . S
C454 O461 1.241 . S
C455 O441 1.244 . S
C455 O443 1.256 . S
C456 O445 1.239 . S
C456 O449 1.256 . S
C457 O446 1.278 . S
C457 O452 1.241 . S
C458 O448 1.244 . S
C458 O453 1.256 . S
C459 O450 1.239 . S
C459 O451 1.256 . S
O460 Mn442 2.221 . S
O460 Mn444 2.290 . S
O460 C454 1.278 . S
O461 Mn444 2.251 . S
O461 C454 1.241 . S
O462 Mn463 2.163 1_566 S
O462 C476 1.244 . S
Mn463 O462 2.163 1_544 S
Mn463 O466 2.160 . S
Mn463 O467 2.221 . S
Mn463 O469 2.163 1_545 S
Mn463 O471 2.160 1_554 S
Mn463 O481 2.221 1_544 S
O464 Mn465 2.087 1_565 S
O464 C476 1.256 . S
Mn465 O464 2.087 1_545 S
Mn465 O472 2.089 . S
Mn465 O481 2.290 1_545 S
Mn465 O482 2.251 1_545 S
O466 Mn463 2.160 . S
O466 C477 1.239 . S
O467 Mn463 2.221 . S
O467 Mn468 2.290 1_545 S
O467 C478 1.278 . S
Mn468 O467 2.290 1_565 S
Mn468 O470 2.087 1_565 S
Mn468 O473 2.251 1_565 S
Mn468 O474 2.087 . S
O469 Mn463 2.163 1_565 S
O469 C479 1.244 . S
O470 Mn468 2.087 1_545 S
O470 C477 1.263 . S
O471 Mn463 2.160 1_556 S
O471 C480 1.239 . S
O472 Mn465 2.089 . S
O472 C480 1.256 . S
O473 Mn468 2.251 1_545 S
O473 C478 1.241 . S
O474 Mn468 2.087 . S
O474 C479 1.256 . S
C475 O481 1.278 . S
C475 O482 1.241 . S
C476 O462 1.244 . S
C476 O464 1.256 . S
C477 O466 1.239 . S
C477 O470 1.263 . S
C478 O467 1.278 . S
C478 O473 1.241 . S
C479 O469 1.244 . S
C479 O474 1.256 . S
C480 O471 1.239 . S
C480 O472 1.256 . S
O481 Mn463 2.221 1_566 S
O481 Mn465 2.290 1_565 S
O481 C475 1.278 . S
O482 Mn465 2.251 1_565 S
O482 C475 1.241 . S
O483 Mn484 2.163 . S
O483 C497 1.244 . S
Mn484 O483 2.163 . S
Mn484 O487 2.160 . S
Mn484 O488 2.221 . S
Mn484 O490 2.163 . S
Mn484 O492 2.160 . S
Mn484 O502 2.221 . S
O485 Mn486 2.087 . S
O485 C497 1.256 . S
Mn486 O485 2.087 . S
Mn486 O493 2.089 . S
Mn486 O502 2.290 . S
Mn486 O503 2.251 . S
O487 Mn484 2.160 . S
O487 C498 1.239 . S
O488 Mn484 2.221 . S
O488 Mn489 2.290 . S
O488 C499 1.278 . S
Mn489 O488 2.290 . S
Mn489 O491 2.089 . S
Mn489 O494 2.251 . S
Mn489 O495 2.087 . S
O490 Mn484 2.163 . S
O490 C500 1.244 . S
O491 Mn489 2.089 . S
O491 C498 1.256 . S
O492 Mn484 2.160 . S
O492 C501 1.239 . S
O493 Mn486 2.089 . S
O493 C501 1.256 . S
O494 Mn489 2.251 . S
O494 C499 1.241 . S
O495 Mn489 2.087 . S
O495 C500 1.256 . S
C496 O502 1.278 . S
C496 O503 1.241 . S
C497 O483 1.244 . S
C497 O485 1.256 . S
C498 O487 1.239 . S
C498 O491 1.256 . S
C499 O488 1.278 . S
C499 O494 1.241 . S
C500 O490 1.244 . S
C500 O495 1.256 . S
C501 O492 1.239 . S
C501 O493 1.256 . S
O502 Mn484 2.221 . S
O502 Mn486 2.290 . S
O502 C496 1.278 . S
O503 Mn486 2.251 . S
O503 C496 1.241 . S
O504 Mn505 2.163 1_556 S
O504 C518 1.244 . S
Mn505 O504 2.163 1_554 S
Mn505 O508 2.160 . S
Mn505 O509 2.221 1_554 S
Mn505 O511 2.163 . S
Mn505 O513 2.160 . S
Mn505 O523 2.221 . S
O506 Mn507 2.087 . S
O506 C518 1.256 1_554 S
Mn507 O506 2.087 . S
Mn507 O514 2.089 . S
Mn507 O523 2.290 . S
Mn507 O524 2.251 . S
O508 Mn505 2.160 . S
O508 C519 1.239 . S
O509 Mn505 2.221 1_556 S
O509 Mn510 2.290 . S
O509 C520 1.278 . S
Mn510 O509 2.290 . S
Mn510 O512 2.089 1_556 S
Mn510 O515 2.251 . S
Mn510 O516 2.087 . S
O511 Mn505 2.163 . S
O511 C521 1.244 1_554 S
O512 Mn510 2.089 1_554 S
O512 C519 1.256 . S
O513 Mn505 2.160 . S
O513 C522 1.239 . S
O514 Mn507 2.089 . S
O514 C522 1.256 . S
O515 Mn510 2.251 . S
O515 C520 1.241 . S
O516 Mn510 2.087 . S
O516 C521 1.256 . S
C517 O523 1.278 . S
C517 O524 1.241 . S
C518 O504 1.244 . S
C518 O506 1.256 1_556 S
C519 O508 1.239 . S
C519 O512 1.256 . S
C520 O509 1.278 . S
C520 O515 1.241 . S
C521 O511 1.244 1_556 S
C521 O516 1.256 . S
C522 O513 1.239 . S
C522 O514 1.256 . S
O523 Mn505 2.221 . S
O523 Mn507 2.290 . S
O523 C517 1.278 . S
O524 Mn507 2.251 . S
O524 C517 1.241 . S
O525 Mn526 2.163 . S
O525 C539 1.244 . S
Mn526 O525 2.163 . S
Mn526 O529 2.160 . S
Mn526 O530 2.221 . S
Mn526 O532 2.163 . S
Mn526 O534 2.160 . S
Mn526 O544 2.221 . S
O527 Mn528 2.087 . S
O527 C539 1.256 . S
Mn528 O527 2.087 . S
Mn528 O535 2.089 . S
Mn528 O544 2.290 . S
Mn528 O545 2.251 . S
O529 Mn526 2.160 . S
O529 C540 1.239 . S
O530 Mn526 2.221 . S
O530 Mn531 2.290 . S
O530 C541 1.278 . S
Mn531 O530 2.290 . S
Mn531 O533 2.089 . S
Mn531 O536 2.251 . S
Mn531 O537 2.087 . S
O532 Mn526 2.163 . S
O532 C542 1.244 . S
O533 Mn531 2.089 . S
O533 C540 1.256 . S
O534 Mn526 2.160 . S
O534 C543 1.239 . S
O535 Mn528 2.089 . S
O535 C543 1.256 . S
O536 Mn531 2.251 . S
O536 C541 1.241 . S
O537 Mn531 2.087 . S
O537 C542 1.256 . S
C538 O544 1.278 . S
C538 O545 1.241 . S
C539 O525 1.244 . S
C539 O527 1.256 . S
C540 O529 1.239 . S
C540 O533 1.256 . S
C541 O530 1.278 . S
C541 O536 1.241 . S
C542 O532 1.244 . S
C542 O537 1.256 . S
C543 O534 1.239 . S
C543 O535 1.256 . S
O544 Mn526 2.221 . S
O544 Mn528 2.290 . S
O544 C538 1.278 . S
O545 Mn528 2.251 . S
O545 C538 1.241 . S
O546 Mn547 2.163 1_655 S
O546 C560 1.244 . S
Mn547 O546 2.163 1_455 S
Mn547 O550 2.160 . S
Mn547 O551 2.221 1_455 S
Mn547 O553 2.164 . S
Mn547 O555 2.160 . S
Mn547 O565 2.221 . S
O548 Mn549 2.087 . S
O548 C560 1.256 1_455 S
Mn549 O548 2.087 . S
Mn549 O556 2.089 . S
Mn549 O565 2.290 . S
Mn549 O566 2.251 . S
O550 Mn547 2.160 . S
O550 C561 1.239 . S
O551 Mn547 2.221 1_655 S
O551 Mn552 2.290 . S
O551 C562 1.278 . S
Mn552 O551 2.290 . S
Mn552 O554 2.078 1_655 S
Mn552 O557 2.251 . S
Mn552 O558 2.087 . S
O553 Mn547 2.164 . S
O553 C563 1.225 1_455 S
O554 Mn552 2.078 1_455 S
O554 C561 1.264 . S
O555 Mn547 2.160 . S
O555 C564 1.239 . S
O556 Mn549 2.089 . S
O556 C564 1.256 . S
O557 Mn552 2.251 . S
O557 C562 1.241 . S
O558 Mn552 2.087 . S
O558 C563 1.256 . S
C559 O565 1.278 . S
C559 O566 1.241 . S
C560 O546 1.244 . S
C560 O548 1.256 1_655 S
C561 O550 1.239 . S
C561 O554 1.264 . S
C562 O551 1.278 . S
C562 O557 1.241 . S
C563 O553 1.225 1_655 S
C563 O558 1.256 . S
C564 O555 1.239 . S
C564 O556 1.256 . S
O565 Mn547 2.221 . S
O565 Mn549 2.290 . S
O565 C559 1.278 . S
O566 Mn549 2.251 . S
O566 C559 1.241 . S
O567 Mn568 2.163 . S
O567 C581 1.244 . S
Mn568 O567 2.163 . S
Mn568 O571 2.160 . S
Mn568 O572 2.221 . S
Mn568 O574 2.163 . S
Mn568 O576 2.160 . S
Mn568 O586 2.221 . S
O569 Mn570 2.087 . S
O569 C581 1.256 . S
Mn570 O569 2.087 . S
Mn570 O577 2.089 . S
Mn570 O586 2.290 . S
Mn570 O587 2.251 . S
O571 Mn568 2.160 . S
O571 C582 1.239 . S
O572 Mn568 2.221 . S
O572 Mn573 2.290 . S
O572 C583 1.278 . S
Mn573 O572 2.290 . S
Mn573 O575 2.089 . S
Mn573 O578 2.251 . S
Mn573 O579 2.087 . S
O574 Mn568 2.163 . S
O574 C584 1.244 . S
O575 Mn573 2.089 . S
O575 C582 1.256 . S
O576 Mn568 2.160 . S
O576 C585 1.239 . S
O577 Mn570 2.089 . S
O577 C585 1.256 . S
O578 Mn573 2.251 . S
O578 C583 1.241 . S
O579 Mn573 2.087 . S
O579 C584 1.256 . S
C580 O586 1.278 . S
C580 O587 1.241 . S
C581 O567 1.244 . S
C581 O569 1.256 . S
C582 O571 1.239 . S
C582 O575 1.256 . S
C583 O572 1.278 . S
C583 O578 1.241 . S
C584 O574 1.244 . S
C584 O579 1.256 . S
C585 O576 1.239 . S
C585 O577 1.256 . S
O586 Mn568 2.221 . S
O586 Mn570 2.290 . S
O586 C580 1.278 . S
O587 Mn570 2.251 . S
O587 C580 1.241 . S
O588 Mn589 2.163 . S
O588 C602 1.244 . S
Mn589 O588 2.163 . S
Mn589 O592 2.160 . S
Mn589 O593 2.221 . S
Mn589 O595 2.163 . S
Mn589 O597 2.160 . S
Mn589 O607 2.221 . S
O590 Mn591 2.087 . S
O590 C602 1.256 . S
Mn591 O590 2.087 . S
Mn591 O598 2.089 . S
Mn591 O607 2.290 . S
Mn591 O608 2.251 . S
O592 Mn589 2.160 . S
O592 C603 1.239 . S
O593 Mn589 2.221 . S
O593 Mn594 2.290 . S
O593 C604 1.278 . S
Mn594 O593 2.290 . S
Mn594 O596 2.089 . S
Mn594 O599 2.251 . S
Mn594 O600 2.087 . S
O595 Mn589 2.163 . S
O595 C605 1.244 . S
O596 Mn594 2.089 . S
O596 C603 1.256 . S
O597 Mn589 2.160 . S
O597 C606 1.239 . S
O598 Mn591 2.089 . S
O598 C606 1.256 . S
O599 Mn594 2.251 . S
O599 C604 1.241 . S
O600 Mn594 2.087 . S
O600 C605 1.256 . S
C601 O607 1.278 . S
C601 O608 1.241 . S
C602 O588 1.244 . S
C602 O590 1.256 . S
C603 O592 1.239 . S
C603 O596 1.256 . S
C604 O593 1.278 . S
C604 O599 1.241 . S
C605 O595 1.244 . S
C605 O600 1.256 . S
C606 O597 1.239 . S
C606 O598 1.256 . S
O607 Mn589 2.221 . S
O607 Mn591 2.290 . S
O607 C601 1.278 . S
O608 Mn591 2.251 . S
O608 C601 1.241 . S
O609 Mn610 2.163 . S
O609 C623 1.244 . S
Mn610 O609 2.163 . S
Mn610 O613 2.160 . S
Mn610 O614 2.221 . S
Mn610 O616 2.163 . S
Mn610 O618 2.160 . S
Mn610 O628 2.221 . S
O611 Mn612 2.087 . S
O611 C623 1.256 . S
Mn612 O611 2.087 . S
Mn612 O619 2.089 . S
Mn612 O628 2.290 . S
Mn612 O629 2.251 . S
O613 Mn610 2.160 . S
O613 C624 1.239 . S
O614 Mn610 2.221 . S
O614 Mn615 2.290 . S
O614 C625 1.278 . S
Mn615 O614 2.290 . S
Mn615 O617 2.089 . S
Mn615 O620 2.251 . S
Mn615 O621 2.087 . S
O616 Mn610 2.163 . S
O616 C626 1.244 . S
O617 Mn615 2.089 . S
O617 C624 1.256 . S
O618 Mn610 2.160 . S
O618 C627 1.239 . S
O619 Mn612 2.089 . S
O619 C627 1.256 . S
O620 Mn615 2.251 . S
O620 C625 1.241 . S
O621 Mn615 2.087 . S
O621 C626 1.256 . S
C622 O628 1.278 . S
C622 O629 1.241 . S
C623 O609 1.244 . S
C623 O611 1.256 . S
C624 O613 1.239 . S
C624 O617 1.256 . S
C625 O614 1.278 . S
C625 O620 1.241 . S
C626 O616 1.244 . S
C626 O621 1.256 . S
C627 O618 1.239 . S
C627 O619 1.256 . S
O628 Mn610 2.221 . S
O628 Mn612 2.290 . S
O628 C622 1.278 . S
O629 Mn612 2.251 . S
O629 C622 1.241 . S
O630 Mn631 2.163 . S
O630 C644 1.244 . S
Mn631 O630 2.163 . S
Mn631 O634 2.160 . S
Mn631 O635 2.221 . S
Mn631 O637 2.163 . S
Mn631 O639 2.160 . S
Mn631 O649 2.221 . S
O632 Mn633 2.087 . S
O632 C644 1.256 . S
Mn633 O632 2.087 . S
Mn633 O640 2.089 . S
Mn633 O649 2.290 . S
Mn633 O650 2.251 . S
O634 Mn631 2.160 . S
O634 C645 1.239 . S
O635 Mn631 2.221 . S
O635 Mn636 2.290 . S
O635 C646 1.278 . S
Mn636 O635 2.290 . S
Mn636 O638 2.089 . S
Mn636 O641 2.251 . S
Mn636 O642 2.087 . S
O637 Mn631 2.163 . S
O637 C647 1.244 . S
O638 Mn636 2.089 . S
O638 C645 1.256 . S
O639 Mn631 2.160 . S
O639 C648 1.239 . S
O640 Mn633 2.089 . S
O640 C648 1.256 . S
O641 Mn636 2.251 . S
O641 C646 1.241 . S
O642 Mn636 2.087 . S
O642 C647 1.256 . S
C643 O649 1.278 . S
C643 O650 1.241 . S
C644 O630 1.244 . S
C644 O632 1.256 . S
C645 O634 1.239 . S
C645 O638 1.256 . S
C646 O635 1.278 . S
C646 O641 1.241 . S
C647 O637 1.244 . S
C647 O642 1.256 . S
C648 O639 1.239 . S
C648 O640 1.256 . S
O649 Mn631 2.221 . S
O649 Mn633 2.290 . S
O649 C643 1.278 . S
O650 Mn633 2.251 . S
O650 C643 1.241 . S
O651 Mn652 2.160 1_656 S
O651 C665 1.246 . S
Mn652 O651 2.160 1_454 S
Mn652 O655 2.160 . S
Mn652 O656 2.221 . S
Mn652 O658 2.163 1_554 S
Mn652 O660 2.160 1_455 S
Mn652 O670 2.221 1_454 S
O653 Mn654 2.087 1_556 S
O653 C665 1.256 . S
Mn654 O653 2.087 1_554 S
Mn654 O661 2.089 . S
Mn654 O670 2.290 1_554 S
Mn654 O671 2.251 1_554 S
O655 Mn652 2.160 . S
O655 C666 1.239 . S
O656 Mn652 2.221 . S
O656 Mn657 2.290 1_554 S
O656 C667 1.278 . S
Mn657 O656 2.290 1_556 S
Mn657 O659 2.086 1_556 S
Mn657 O662 2.251 1_556 S
Mn657 O663 2.087 . S
O658 Mn652 2.163 1_556 S
O658 C668 1.244 . S
O659 Mn657 2.086 1_554 S
O659 C666 1.265 . S
O660 Mn652 2.160 1_655 S
O660 C669 1.239 . S
O661 Mn654 2.089 . S
O661 C669 1.256 . S
O662 Mn657 2.251 1_554 S
O662 C667 1.241 . S
O663 Mn657 2.087 . S
O663 C668 1.256 . S
C664 O670 1.278 . S
C664 O671 1.241 . S
C665 O651 1.246 . S
C665 O653 1.256 . S
C666 O655 1.239 . S
C666 O659 1.265 . S
C667 O656 1.278 . S
C667 O662 1.241 . S
C668 O658 1.244 . S
C668 O663 1.256 . S
C669 O660 1.239 . S
C669 O661 1.256 . S
O670 Mn652 2.221 1_656 S
O670 Mn654 2.290 1_556 S
O670 C664 1.278 . S
O671 Mn654 2.251 1_556 S
O671 C664 1.241 . S
H672 C678 0.930 . S
H673 C682 0.930 1_556 S
H674 C687 0.929 . S
H675 C685 0.929 . S
H676 C680 0.929 . S
H677 C686 0.929 . S
C678 H672 0.930 . S
C678 C679 1.367 1_655 S
C678 C686 1.378 . S
C679 C678 1.367 1_455 S
C679 C687 1.433 . S
C680 H676 0.929 . S
C680 C682 1.378 . S
C680 C684 1.350 1_455 S
C681 C684 1.462 . S
C681 C686 1.351 . S
C681 N689 1.427 1_655 S
C682 H673 0.930 1_554 S
C682 C680 1.378 . S
C682 C683 1.367 1_455 S
C683 C682 1.367 1_655 S
C683 C685 1.433 . S
C684 C680 1.350 1_655 S
C684 C681 1.462 . S
C684 N688 1.427 . S
C685 H675 0.929 . S
C685 C683 1.433 . S
C685 N688 1.384 . S
C686 H677 0.929 . S
C686 C678 1.378 . S
C686 C681 1.351 . S
C687 H674 0.929 . S
C687 C679 1.433 . S
C687 N689 1.384 . S
N688 C684 1.427 . S
N688 C685 1.384 . S
N689 C681 1.427 1_455 S
N689 C687 1.384 . S
H690 C696 0.930 . S
H691 C700 0.930 . S
H692 C705 0.929 . S
H693 C703 0.929 . S
H694 C698 0.929 . S
H695 C704 0.929 . S
C696 H690 0.930 . S
C696 C697 1.367 . S
C696 C704 1.378 . S
C697 C696 1.367 . S
C697 C705 1.433 . S
C698 H694 0.929 . S
C698 C700 1.378 . S
C698 C702 1.350 . S
C699 C702 1.463 . S
C699 C704 1.350 . S
C699 N707 1.427 . S
C700 H691 0.930 . S
C700 C698 1.378 . S
C700 C701 1.367 . S
C701 C700 1.367 . S
C701 C703 1.433 . S
C702 C698 1.350 . S
C702 C699 1.463 . S
C702 N706 1.427 . S
C703 H693 0.929 . S
C703 C701 1.433 . S
C703 N706 1.384 . S
C704 H695 0.929 . S
C704 C696 1.378 . S
C704 C699 1.350 . S
C705 H692 0.929 . S
C705 C697 1.433 . S
C705 N707 1.384 . S
N706 C702 1.427 . S
N706 C703 1.384 . S
N707 C699 1.427 . S
N707 C705 1.384 . S
H708 C714 0.930 . S
H709 C718 0.930 . S
H710 C723 0.929 . S
H711 C721 0.929 . S
H712 C716 0.929 . S
H713 C722 0.929 . S
C714 H708 0.930 . S
C714 C715 1.367 . S
C714 C722 1.378 . S
C715 C714 1.367 . S
C715 C723 1.433 . S
C716 H712 0.929 . S
C716 C718 1.378 . S
C716 C720 1.350 . S
C717 C720 1.463 . S
C717 C722 1.350 . S
C717 N725 1.427 . S
C718 H709 0.930 . S
C718 C716 1.378 . S
C718 C719 1.367 . S
C719 C718 1.367 . S
C719 C721 1.433 . S
C720 C716 1.350 . S
C720 C717 1.463 . S
C720 N724 1.427 . S
C721 H711 0.929 . S
C721 C719 1.433 . S
C721 N724 1.384 . S
C722 H713 0.929 . S
C722 C714 1.378 . S
C722 C717 1.350 . S
C723 H710 0.929 . S
C723 C715 1.433 . S
C723 N725 1.384 . S
N724 C720 1.427 . S
N724 C721 1.384 . S
N725 C717 1.427 . S
N725 C723 1.384 . S
H726 C732 0.930 . S
H727 C736 0.930 . S
H728 C741 0.929 . S
H729 C739 0.929 . S
H730 C734 0.929 . S
H731 C740 0.929 . S
C732 H726 0.930 . S
C732 C733 1.367 . S
C732 C740 1.378 . S
C733 C732 1.367 . S
C733 C741 1.433 . S
C734 H730 0.929 . S
C734 C736 1.378 . S
C734 C738 1.350 . S
C735 C738 1.463 . S
C735 C740 1.350 . S
C735 N743 1.427 . S
C736 H727 0.930 . S
C736 C734 1.378 . S
C736 C737 1.367 . S
C737 C736 1.367 . S
C737 C739 1.433 . S
C738 C734 1.350 . S
C738 C735 1.463 . S
C738 N742 1.427 . S
C739 H729 0.929 . S
C739 C737 1.433 . S
C739 N742 1.384 . S
C740 H731 0.929 . S
C740 C732 1.378 . S
C740 C735 1.350 . S
C741 H728 0.929 . S
C741 C733 1.433 . S
C741 N743 1.384 . S
N742 C738 1.427 . S
N742 C739 1.384 . S
N743 C735 1.427 . S
N743 C741 1.384 . S
H744 C750 0.930 . S
H745 C754 0.930 . S
H746 C759 0.929 . S
H747 C757 0.929 . S
H748 C752 0.929 . S
H749 C758 0.929 . S
C750 H744 0.930 . S
C750 C751 1.366 1_655 S
C750 C758 1.378 . S
C751 C750 1.366 1_455 S
C751 C759 1.434 . S
C752 H748 0.929 . S
C752 C754 1.378 . S
C752 C756 1.350 1_455 S
C753 C756 1.463 . S
C753 C758 1.350 . S
C753 N761 1.427 1_655 S
C754 H745 0.930 . S
C754 C752 1.378 . S
C754 C755 1.367 1_455 S
C755 C754 1.367 1_655 S
C755 C757 1.433 . S
C756 C752 1.350 1_655 S
C756 C753 1.463 . S
C756 N760 1.427 . S
C757 H747 0.929 . S
C757 C755 1.433 . S
C757 N760 1.384 . S
C758 H749 0.929 . S
C758 C750 1.378 . S
C758 C753 1.350 . S
C759 H746 0.929 . S
C759 C751 1.434 . S
C759 N761 1.384 . S
N760 C756 1.427 . S
N760 C757 1.384 . S
N761 C753 1.427 1_455 S
N761 C759 1.384 . S
H762 C768 0.930 . S
H763 C772 0.930 . S
H764 C777 0.929 . S
H765 C775 0.929 . S
H766 C770 0.929 . S
H767 C776 0.929 . S
C768 H762 0.930 . S
C768 C769 1.367 . S
C768 C776 1.378 . S
C769 C768 1.367 . S
C769 C777 1.433 . S
C770 H766 0.929 . S
C770 C772 1.378 . S
C770 C774 1.350 . S
C771 C774 1.463 . S
C771 C776 1.350 . S
C771 N779 1.427 . S
C772 H763 0.930 . S
C772 C770 1.378 . S
C772 C773 1.367 . S
C773 C772 1.367 . S
C773 C775 1.433 . S
C774 C770 1.350 . S
C774 C771 1.463 . S
C774 N778 1.427 . S
C775 H765 0.929 . S
C775 C773 1.433 . S
C775 N778 1.384 . S
C776 H767 0.929 . S
C776 C768 1.378 . S
C776 C771 1.350 . S
C777 H764 0.929 . S
C777 C769 1.433 . S
C777 N779 1.384 . S
N778 C774 1.427 . S
N778 C775 1.384 . S
N779 C771 1.427 . S
N779 C777 1.384 . S
H780 C786 0.930 . S
H781 C790 0.928 . S
H782 C795 0.929 . S
H783 C793 0.929 . S
H784 C788 0.929 . S
H785 C794 0.929 . S
C786 H780 0.930 . S
C786 C787 1.367 . S
C786 C794 1.378 . S
C787 C786 1.367 . S
C787 C795 1.433 . S
C788 H784 0.929 . S
C788 C790 1.378 . S
C788 C792 1.350 . S
C789 C792 1.463 . S
C789 C794 1.350 . S
C789 N797 1.427 . S
C790 H781 0.928 . S
C790 C788 1.378 . S
C790 C791 1.367 . S
C791 C790 1.367 . S
C791 C793 1.433 . S
C792 C788 1.350 . S
C792 C789 1.463 . S
C792 N796 1.427 . S
C793 H783 0.929 . S
C793 C791 1.433 . S
C793 N796 1.384 . S
C794 H785 0.929 . S
C794 C786 1.378 . S
C794 C789 1.350 . S
C795 H782 0.929 . S
C795 C787 1.433 . S
C795 N797 1.384 . S
N796 C792 1.427 . S
N796 C793 1.384 . S
N797 C789 1.427 . S
N797 C795 1.384 . S
H798 C804 0.930 . S
H799 C808 0.930 . S
H800 C813 0.929 . S
H801 C811 0.929 . S
H802 C806 0.929 . S
H803 C812 0.929 . S
C804 H798 0.930 . S
C804 C805 1.367 . S
C804 C812 1.378 . S
C805 C804 1.367 . S
C805 C813 1.433 . S
C806 H802 0.929 . S
C806 C808 1.378 . S
C806 C810 1.350 . S
C807 C810 1.463 . S
C807 C812 1.350 . S
C807 N815 1.427 . S
C808 H799 0.930 . S
C808 C806 1.378 . S
C808 C809 1.367 . S
C809 C808 1.367 . S
C809 C811 1.433 . S
C810 C806 1.350 . S
C810 C807 1.463 . S
C810 N814 1.427 . S
C811 H801 0.929 . S
C811 C809 1.433 . S
C811 N814 1.384 . S
C812 H803 0.929 . S
C812 C804 1.378 . S
C812 C807 1.350 . S
C813 H800 0.929 . S
C813 C805 1.433 . S
C813 N815 1.384 . S
N814 C810 1.427 . S
N814 C811 1.384 . S
N815 C807 1.427 . S
N815 C813 1.384 . S
H816 C822 0.930 . S
H817 C826 0.930 . S
H818 C831 0.929 . S
H819 C829 0.929 . S
H820 C824 0.929 . S
H821 C830 0.929 . S
C822 H816 0.930 . S
C822 C823 1.367 . S
C822 C830 1.378 . S
C823 C822 1.367 . S
C823 C831 1.433 1_545 S
C824 H820 0.929 . S
C824 C826 1.378 . S
C824 C828 1.350 . S
C825 C828 1.465 . S
C825 C830 1.333 1_565 S
C825 N833 1.444 . S
C826 H817 0.930 . S
C826 C824 1.378 . S
C826 C827 1.367 . S
C827 C826 1.367 . S
C827 C829 1.433 1_565 S
C828 C824 1.350 . S
C828 C825 1.465 . S
C828 N832 1.427 1_565 S
C829 H819 0.929 . S
C829 C827 1.433 1_545 S
C829 N832 1.384 . S
C830 H821 0.929 . S
C830 C822 1.378 . S
C830 C825 1.333 1_545 S
C831 H818 0.929 . S
C831 C823 1.433 1_565 S
C831 N833 1.384 . S
N832 C828 1.427 1_545 S
N832 C829 1.384 . S
N833 C825 1.444 . S
N833 C831 1.384 . S
H834 C840 0.930 . S
H835 C844 0.930 . S
H836 C849 0.929 . S
H837 C847 0.929 . S
H838 C842 0.929 . S
H839 C848 0.929 . S
C840 H834 0.930 . S
C840 C841 1.367 . S
C840 C848 1.378 . S
C841 C840 1.367 . S
C841 C849 1.433 . S
C842 H838 0.929 . S
C842 C844 1.378 . S
C842 C846 1.350 . S
C843 C846 1.463 . S
C843 C848 1.350 . S
C843 N851 1.427 . S
C844 H835 0.930 . S
C844 C842 1.378 . S
C844 C845 1.367 . S
C845 C844 1.367 . S
C845 C847 1.433 . S
C846 C842 1.350 . S
C846 C843 1.463 . S
C846 N850 1.427 . S
C847 H837 0.929 . S
C847 C845 1.433 . S
C847 N850 1.384 . S
C848 H839 0.929 . S
C848 C840 1.378 . S
C848 C843 1.350 . S
C849 H836 0.929 . S
C849 C841 1.433 . S
C849 N851 1.384 . S
N850 C846 1.427 . S
N850 C847 1.384 . S
N851 C843 1.427 . S
N851 C849 1.384 . S
H852 C858 0.930 . S
H853 C862 0.930 . S
H854 C867 0.929 . S
H855 C865 0.950 . S
H856 C860 0.929 . S
H857 C866 0.929 . S
C858 H852 0.930 . S
C858 C859 1.367 1_565 S
C858 C866 1.378 . S
C859 C858 1.367 1_545 S
C859 C867 1.433 . S
C860 H856 0.929 . S
C860 C862 1.378 . S
C860 C864 1.350 . S
C861 C864 1.463 . S
C861 C866 1.350 1_545 S
C861 N869 1.427 . S
C862 H853 0.930 . S
C862 C860 1.378 . S
C862 C863 1.367 . S
C863 C862 1.367 . S
C863 C865 1.410 1_545 S
C864 C860 1.350 . S
C864 C861 1.463 . S
C864 N868 1.427 1_545 S
C865 H855 0.950 . S
C865 C863 1.410 1_565 S
C865 N868 1.387 . S
C866 H857 0.929 . S
C866 C858 1.378 . S
C866 C861 1.350 1_565 S
C867 H854 0.929 . S
C867 C859 1.433 . S
C867 N869 1.384 . S
N868 C864 1.427 1_565 S
N868 C865 1.387 . S
N869 C861 1.427 . S
N869 C867 1.384 . S
H870 C876 0.930 . S
H871 C880 0.930 . S
H872 C885 0.929 . S
H873 C883 0.929 . S
H874 C878 0.929 . S
H875 C884 0.929 . S
C876 H870 0.930 . S
C876 C877 1.367 . S
C876 C884 1.378 . S
C877 C876 1.367 . S
C877 C885 1.433 . S
C878 H874 0.929 . S
C878 C880 1.378 . S
C878 C882 1.350 . S
C879 C882 1.463 . S
C879 C884 1.350 . S
C879 N887 1.427 . S
C880 H871 0.930 . S
C880 C878 1.378 . S
C880 C881 1.367 . S
C881 C880 1.367 . S
C881 C883 1.433 . S
C882 C878 1.350 . S
C882 C879 1.463 . S
C882 N886 1.427 . S
C883 H873 0.929 . S
C883 C881 1.433 . S
C883 N886 1.384 . S
C884 H875 0.929 . S
C884 C876 1.378 . S
C884 C879 1.350 . S
C885 H872 0.929 . S
C885 C877 1.433 . S
C885 N887 1.384 . S
N886 C882 1.427 . S
N886 C883 1.384 . S
N887 C879 1.427 . S
N887 C885 1.384 . S
H888 C894 0.930 . S
H889 C898 0.930 . S
H890 C903 0.929 . S
H891 C901 0.929 . S
H892 C896 0.929 . S
H893 C902 0.929 . S
C894 H888 0.930 . S
C894 C895 1.367 1_565 S
C894 C902 1.378 . S
C895 C894 1.367 1_545 S
C895 C903 1.433 . S
C896 H892 0.929 . S
C896 C898 1.378 . S
C896 C900 1.350 . S
C897 C900 1.463 . S
C897 C902 1.350 1_545 S
C897 N905 1.427 . S
C898 H889 0.930 . S
C898 C896 1.378 . S
C898 C899 1.367 . S
C899 C898 1.367 . S
C899 C901 1.433 1_545 S
C900 C896 1.350 . S
C900 C897 1.463 . S
C900 N904 1.427 1_545 S
C901 H891 0.929 . S
C901 C899 1.433 1_565 S
C901 N904 1.384 . S
C902 H893 0.929 . S
C902 C894 1.378 . S
C902 C897 1.350 1_565 S
C903 H890 0.929 . S
C903 C895 1.433 . S
C903 N905 1.384 . S
N904 C900 1.427 1_565 S
N904 C901 1.384 . S
N905 C897 1.427 . S
N905 C903 1.384 . S
H906 C912 0.930 . S
H907 C916 0.930 . S
H908 C921 0.929 . S
H909 C919 0.929 . S
H910 C914 0.929 . S
H911 C920 0.929 . S
C912 H906 0.930 . S
C912 C913 1.367 . S
C912 C920 1.378 . S
C913 C912 1.367 . S
C913 C921 1.433 . S
C914 H910 0.929 . S
C914 C916 1.378 . S
C914 C918 1.350 . S
C915 C918 1.463 . S
C915 C920 1.350 . S
C915 N923 1.427 . S
C916 H907 0.930 . S
C916 C914 1.378 . S
C916 C917 1.367 . S
C917 C916 1.367 . S
C917 C919 1.433 . S
C918 C914 1.350 . S
C918 C915 1.463 . S
C918 N922 1.427 . S
C919 H909 0.929 . S
C919 C917 1.433 . S
C919 N922 1.384 . S
C920 H911 0.929 . S
C920 C912 1.378 . S
C920 C915 1.350 . S
C921 H908 0.929 . S
C921 C913 1.433 . S
C921 N923 1.384 . S
N922 C918 1.427 . S
N922 C919 1.384 . S
N923 C915 1.427 . S
N923 C921 1.384 . S
H924 C930 0.930 . S
H925 C934 0.930 . S
H926 C939 0.929 . S
H927 C937 0.929 . S
H928 C932 0.929 . S
H929 C938 0.929 . S
C930 H924 0.930 . S
C930 C931 1.379 . S
C930 C938 1.378 . S
C931 C930 1.379 . S
C931 C939 1.420 1_545 S
C932 H928 0.929 . S
C932 C934 1.378 . S
C932 C936 1.350 . S
C933 C936 1.463 . S
C933 C938 1.350 1_565 S
C933 N941 1.427 . S
C934 H925 0.930 . S
C934 C932 1.378 . S
C934 C935 1.367 . S
C935 C934 1.367 . S
C935 C937 1.433 1_565 S
C936 C932 1.350 . S
C936 C933 1.463 . S
C936 N940 1.427 1_565 S
C937 H927 0.929 . S
C937 C935 1.433 1_545 S
C937 N940 1.384 . S
C938 H929 0.929 . S
C938 C930 1.378 . S
C938 C933 1.350 1_545 S
C939 H926 0.929 . S
C939 C931 1.420 1_565 S
C939 N941 1.384 . S
N940 C936 1.427 1_545 S
N940 C937 1.384 . S
N941 C933 1.427 . S
N941 C939 1.384 . S
H942 C948 0.930 . S
H943 C952 0.930 . S
H944 C957 0.929 . S
H945 C955 0.929 . S
H946 C950 0.929 . S
H947 C956 0.929 . S
C948 H942 0.930 . S
C948 C949 1.367 . S
C948 C956 1.378 . S
C949 C948 1.367 . S
C949 C957 1.433 . S
C950 H946 0.929 . S
C950 C952 1.378 . S
C950 C954 1.350 . S
C951 C954 1.463 . S
C951 C956 1.350 . S
C951 N959 1.427 . S
C952 H943 0.930 . S
C952 C950 1.378 . S
C952 C953 1.367 . S
C953 C952 1.367 . S
C953 C955 1.433 . S
C954 C950 1.350 . S
C954 C951 1.463 . S
C954 N958 1.427 . S
C955 H945 0.929 . S
C955 C953 1.433 . S
C955 N958 1.384 . S
C956 H947 0.929 . S
C956 C948 1.378 . S
C956 C951 1.350 . S
C957 H944 0.929 . S
C957 C949 1.433 . S
C957 N959 1.384 . S
N958 C954 1.427 . S
N958 C955 1.384 . S
N959 C951 1.427 . S
N959 C957 1.384 . S
H960 C966 0.930 . S
H961 C970 0.930 . S
H962 C975 0.929 . S
H963 C973 0.929 . S
H964 C968 0.929 . S
H965 C974 0.929 . S
C966 H960 0.930 . S
C966 C967 1.367 1_556 S
C966 C974 1.378 . S
C967 C966 1.367 1_554 S
C967 C975 1.433 . S
C968 H964 0.929 . S
C968 C970 1.378 . S
C968 C972 1.344 1_554 S
C969 C972 1.463 1_554 S
C969 C974 1.350 1_554 S
C969 N977 1.427 . S
C970 H961 0.930 . S
C970 C968 1.378 . S
C970 C971 1.367 1_554 S
C971 C970 1.367 1_556 S
C971 C973 1.433 . S
C972 C968 1.344 1_556 S
C972 C969 1.463 1_556 S
C972 N976 1.433 . S
C973 H963 0.929 . S
C973 C971 1.433 . S
C973 N976 1.384 . S
C974 H965 0.929 . S
C974 C966 1.378 . S
C974 C969 1.350 1_556 S
C975 H962 0.929 . S
C975 C967 1.433 . S
C975 N977 1.384 . S
N976 C972 1.433 . S
N976 C973 1.384 . S
N977 C969 1.427 . S
N977 C975 1.384 . S
H978 C984 0.930 . S
H979 C988 0.930 . S
H980 C993 0.929 . S
H981 C991 0.938 . S
H982 C986 0.929 . S
H983 C992 0.929 . S
C984 H978 0.930 . S
C984 C985 1.367 1_556 S
C984 C992 1.378 . S
C985 C984 1.367 1_554 S
C985 C993 1.433 . S
C986 H982 0.929 . S
C986 C988 1.378 . S
C986 C990 1.350 . S
C987 C990 1.463 . S
C987 C992 1.350 1_554 S
C987 N995 1.427 . S
C988 H979 0.930 . S
C988 C986 1.378 . S
C988 C989 1.367 . S
C989 C988 1.367 . S
C989 C991 1.423 1_554 S
C990 C986 1.350 . S
C990 C987 1.463 . S
C990 N994 1.427 1_554 S
C991 H981 0.938 . S
C991 C989 1.423 1_556 S
C991 N994 1.385 . S
C992 H983 0.929 . S
C992 C984 1.378 . S
C992 C987 1.350 1_556 S
C993 H980 0.929 . S
C993 C985 1.433 . S
C993 N995 1.384 . S
N994 C990 1.427 1_556 S
N994 C991 1.385 . S
N995 C987 1.427 . S
N995 C993 1.384 . S
H996 C1002 0.930 . S
H997 C1006 0.930 . S
H998 C1011 0.929 . S
H999 C1009 0.929 . S
H1000 C1004 0.929 . S
H1001 C1010 0.929 . S
C1002 H996 0.930 . S
C1002 C1003 1.367 . S
C1002 C1010 1.378 . S
C1003 C1002 1.367 . S
C1003 C1011 1.433 . S
C1004 H1000 0.929 . S
C1004 C1006 1.378 . S
C1004 C1008 1.350 . S
C1005 C1008 1.463 . S
C1005 C1010 1.350 . S
C1005 N1013 1.427 . S
C1006 H997 0.930 . S
C1006 C1004 1.378 . S
C1006 C1007 1.367 . S
C1007 C1006 1.367 . S
C1007 C1009 1.433 . S
C1008 C1004 1.350 . S
C1008 C1005 1.463 . S
C1008 N1012 1.427 . S
C1009 H999 0.929 . S
C1009 C1007 1.433 . S
C1009 N1012 1.384 . S
C1010 H1001 0.929 . S
C1010 C1002 1.378 . S
C1010 C1005 1.350 . S
C1011 H998 0.929 . S
C1011 C1003 1.433 . S
C1011 N1013 1.384 . S
N1012 C1008 1.427 . S
N1012 C1009 1.384 . S
N1013 C1005 1.427 . S
N1013 C1011 1.384 . S
H1014 C1020 0.930 . S
H1015 C1024 0.930 . S
H1016 C1029 0.929 . S
H1017 C1027 0.929 . S
H1018 C1022 0.929 . S
H1019 C1028 0.929 . S
C1020 H1014 0.930 . S
C1020 C1021 1.367 . S
C1020 C1028 1.378 . S
C1021 C1020 1.367 . S
C1021 C1029 1.433 . S
C1022 H1018 0.929 . S
C1022 C1024 1.378 . S
C1022 C1026 1.350 . S
C1023 C1026 1.463 . S
C1023 C1028 1.350 . S
C1023 N1031 1.427 . S
C1024 H1015 0.930 . S
C1024 C1022 1.378 . S
C1024 C1025 1.367 . S
C1025 C1024 1.367 . S
C1025 C1027 1.433 . S
C1026 C1022 1.350 . S
C1026 C1023 1.463 . S
C1026 N1030 1.427 . S
C1027 H1017 0.929 . S
C1027 C1025 1.433 . S
C1027 N1030 1.384 . S
C1028 H1019 0.929 . S
C1028 C1020 1.378 . S
C1028 C1023 1.350 . S
C1029 H1016 0.929 . S
C1029 C1021 1.433 . S
C1029 N1031 1.384 . S
N1030 C1026 1.427 . S
N1030 C1027 1.384 . S
N1031 C1023 1.427 . S
N1031 C1029 1.384 . S
H1032 C1038 0.930 . S
H1033 C1042 0.930 . S
H1034 C1047 0.929 . S
H1035 C1045 0.929 . S
H1036 C1040 0.929 . S
H1037 C1046 0.929 . S
C1038 H1032 0.930 . S
C1038 C1039 1.367 . S
C1038 C1046 1.378 . S
C1039 C1038 1.367 . S
C1039 C1047 1.433 . S
C1040 H1036 0.929 . S
C1040 C1042 1.378 . S
C1040 C1044 1.350 . S
C1041 C1044 1.463 . S
C1041 C1046 1.350 . S
C1041 N1049 1.427 . S
C1042 H1033 0.930 . S
C1042 C1040 1.378 . S
C1042 C1043 1.367 . S
C1043 C1042 1.367 . S
C1043 C1045 1.433 . S
C1044 C1040 1.350 . S
C1044 C1041 1.463 . S
C1044 N1048 1.427 . S
C1045 H1035 0.929 . S
C1045 C1043 1.433 . S
C1045 N1048 1.384 . S
C1046 H1037 0.929 . S
C1046 C1038 1.378 . S
C1046 C1041 1.350 . S
C1047 H1034 0.929 . S
C1047 C1039 1.433 . S
C1047 N1049 1.384 . S
N1048 C1044 1.427 . S
N1048 C1045 1.384 . S
N1049 C1041 1.427 . S
N1049 C1047 1.384 . S
H1050 C1056 0.930 . S
H1051 C1060 0.930 . S
H1052 C1065 0.929 . S
H1053 C1063 0.929 1_545 S
H1054 C1058 0.929 . S
H1055 C1064 0.929 . S
C1056 H1050 0.930 . S
C1056 C1057 1.367 . S
C1056 C1064 1.378 . S
C1057 C1056 1.367 . S
C1057 C1065 1.433 . S
C1058 H1054 0.929 . S
C1058 C1060 1.378 . S
C1058 C1062 1.350 . S
C1059 C1062 1.463 . S
C1059 C1064 1.350 . S
C1059 N1067 1.427 . S
C1060 H1051 0.930 . S
C1060 C1058 1.378 . S
C1060 C1061 1.367 . S
C1061 C1060 1.367 . S
C1061 C1063 1.433 . S
C1062 C1058 1.350 . S
C1062 C1059 1.463 . S
C1062 N1066 1.427 . S
C1063 H1053 0.929 1_565 S
C1063 C1061 1.433 . S
C1063 N1066 1.384 . S
C1064 H1055 0.929 . S
C1064 C1056 1.378 . S
C1064 C1059 1.350 . S
C1065 H1052 0.929 . S
C1065 C1057 1.433 . S
C1065 N1067 1.384 . S
N1066 C1062 1.427 . S
N1066 C1063 1.384 . S
N1067 C1059 1.427 . S
N1067 C1065 1.384 . S
H1068 C1074 0.930 . S
H1069 C1078 0.930 . S
H1070 C1083 0.929 . S
H1071 C1081 0.929 . S
H1072 C1076 0.929 . S
H1073 C1082 0.929 . S
C1074 H1068 0.930 . S
C1074 C1075 1.367 . S
C1074 C1082 1.378 . S
C1075 C1074 1.367 . S
C1075 C1083 1.433 . S
C1076 H1072 0.929 . S
C1076 C1078 1.378 . S
C1076 C1080 1.350 . S
C1077 C1080 1.463 . S
C1077 C1082 1.350 . S
C1077 N1085 1.427 . S
C1078 H1069 0.930 . S
C1078 C1076 1.378 . S
C1078 C1079 1.367 . S
C1079 C1078 1.367 . S
C1079 C1081 1.433 . S
C1080 C1076 1.350 . S
C1080 C1077 1.463 . S
C1080 N1084 1.427 . S
C1081 H1071 0.929 . S
C1081 C1079 1.433 . S
C1081 N1084 1.384 . S
C1082 H1073 0.929 . S
C1082 C1074 1.378 . S
C1082 C1077 1.350 . S
C1083 H1070 0.929 . S
C1083 C1075 1.433 . S
C1083 N1085 1.384 . S
N1084 C1080 1.427 . S
N1084 C1081 1.384 . S
N1085 C1077 1.427 . S
N1085 C1083 1.384 . S
H1086 C1092 0.930 . S
H1087 C1096 0.930 . S
H1088 C1101 0.929 . S
H1089 C1099 0.929 . S
H1090 C1094 0.929 . S
H1091 C1100 0.929 . S
C1092 H1086 0.930 . S
C1092 C1093 1.367 . S
C1092 C1100 1.378 . S
C1093 C1092 1.367 . S
C1093 C1101 1.433 . S
C1094 H1090 0.929 . S
C1094 C1096 1.378 . S
C1094 C1098 1.350 . S
C1095 C1098 1.463 . S
C1095 C1100 1.350 . S
C1095 N1103 1.427 . S
C1096 H1087 0.930 . S
C1096 C1094 1.378 . S
C1096 C1097 1.367 . S
C1097 C1096 1.367 . S
C1097 C1099 1.433 . S
C1098 C1094 1.350 . S
C1098 C1095 1.463 . S
C1098 N1102 1.427 . S
C1099 H1089 0.929 . S
C1099 C1097 1.433 . S
C1099 N1102 1.384 . S
C1100 H1091 0.929 . S
C1100 C1092 1.378 . S
C1100 C1095 1.350 . S
C1101 H1088 0.929 . S
C1101 C1093 1.433 . S
C1101 N1103 1.384 . S
N1102 C1098 1.427 . S
N1102 C1099 1.384 . S
N1103 C1095 1.427 . S
N1103 C1101 1.384 . S
H1104 C1110 0.930 . S
H1105 C1114 0.930 . S
H1106 C1119 0.929 . S
H1107 C1117 0.929 . S
H1108 C1112 0.929 . S
H1109 C1118 0.929 . S
C1110 H1104 0.930 . S
C1110 C1111 1.367 1_655 S
C1110 C1118 1.378 . S
C1111 C1110 1.367 1_455 S
C1111 C1119 1.433 . S
C1112 H1108 0.929 . S
C1112 C1114 1.378 . S
C1112 C1116 1.350 . S
C1113 C1116 1.463 . S
C1113 C1118 1.350 1_455 S
C1113 N1121 1.427 . S
C1114 H1105 0.930 . S
C1114 C1112 1.378 . S
C1114 C1115 1.367 . S
C1115 C1114 1.367 . S
C1115 C1117 1.433 1_455 S
C1116 C1112 1.350 . S
C1116 C1113 1.463 . S
C1116 N1120 1.427 1_455 S
C1117 H1107 0.929 . S
C1117 C1115 1.433 1_655 S
C1117 N1120 1.384 . S
C1118 H1109 0.929 . S
C1118 C1110 1.378 . S
C1118 C1113 1.350 1_655 S
C1119 H1106 0.929 . S
C1119 C1111 1.433 . S
C1119 N1121 1.384 . S
N1120 C1116 1.427 1_655 S
N1120 C1117 1.384 . S
N1121 C1113 1.427 . S
N1121 C1119 1.384 . S
H1122 C1128 0.930 . S
H1123 C1132 0.930 . S
H1124 C1137 0.929 . S
H1125 C1135 0.929 . S
H1126 C1130 0.929 . S
H1127 C1136 0.929 . S
C1128 H1122 0.930 . S
C1128 C1129 1.367 . S
C1128 C1136 1.378 . S
C1129 C1128 1.367 . S
C1129 C1137 1.433 . S
C1130 H1126 0.929 . S
C1130 C1132 1.378 . S
C1130 C1134 1.350 . S
C1131 C1134 1.463 . S
C1131 C1136 1.350 . S
C1131 N1139 1.427 . S
C1132 H1123 0.930 . S
C1132 C1130 1.378 . S
C1132 C1133 1.367 . S
C1133 C1132 1.367 . S
C1133 C1135 1.433 . S
C1134 C1130 1.350 . S
C1134 C1131 1.463 . S
C1134 N1138 1.427 . S
C1135 H1125 0.929 . S
C1135 C1133 1.433 . S
C1135 N1138 1.384 . S
C1136 H1127 0.929 . S
C1136 C1128 1.378 . S
C1136 C1131 1.350 . S
C1137 H1124 0.929 . S
C1137 C1129 1.433 . S
C1137 N1139 1.384 . S
N1138 C1134 1.427 . S
N1138 C1135 1.384 . S
N1139 C1131 1.427 . S
N1139 C1137 1.384 . S
H1140 C1146 0.930 . S
H1141 C1150 0.930 . S
H1142 C1155 0.929 . S
H1143 C1153 0.929 . S
H1144 C1148 0.929 . S
H1145 C1154 0.929 . S
C1146 H1140 0.930 . S
C1146 C1147 1.367 . S
C1146 C1154 1.378 . S
C1147 C1146 1.367 . S
C1147 C1155 1.433 . S
C1148 H1144 0.929 . S
C1148 C1150 1.378 . S
C1148 C1152 1.350 . S
C1149 C1152 1.463 . S
C1149 C1154 1.350 . S
C1149 N1157 1.427 . S
C1150 H1141 0.930 . S
C1150 C1148 1.378 . S
C1150 C1151 1.367 . S
C1151 C1150 1.367 . S
C1151 C1153 1.433 . S
C1152 C1148 1.350 . S
C1152 C1149 1.463 . S
C1152 N1156 1.427 . S
C1153 H1143 0.929 . S
C1153 C1151 1.433 . S
C1153 N1156 1.384 . S
C1154 H1145 0.929 . S
C1154 C1146 1.378 . S
C1154 C1149 1.350 . S
C1155 H1142 0.929 . S
C1155 C1147 1.433 . S
C1155 N1157 1.384 . S
N1156 C1152 1.427 . S
N1156 C1153 1.384 . S
N1157 C1149 1.427 . S
N1157 C1155 1.384 . S
H1158 C1164 0.930 . S
H1159 C1168 0.930 . S
H1160 C1173 0.929 . S
H1161 C1171 0.929 . S
H1162 C1166 0.929 . S
H1163 C1172 0.929 . S
C1164 H1158 0.930 . S
C1164 C1165 1.367 . S
C1164 C1172 1.378 . S
C1165 C1164 1.367 . S
C1165 C1173 1.433 . S
C1166 H1162 0.929 . S
C1166 C1168 1.378 . S
C1166 C1170 1.350 . S
C1167 C1170 1.463 . S
C1167 C1172 1.350 . S
C1167 N1175 1.427 . S
C1168 H1159 0.930 . S
C1168 C1166 1.378 . S
C1168 C1169 1.367 . S
C1169 C1168 1.367 . S
C1169 C1171 1.433 . S
C1170 C1166 1.350 . S
C1170 C1167 1.463 . S
C1170 N1174 1.427 . S
C1171 H1161 0.929 . S
C1171 C1169 1.433 . S
C1171 N1174 1.384 . S
C1172 H1163 0.929 . S
C1172 C1164 1.378 . S
C1172 C1167 1.350 . S
C1173 H1160 0.929 . S
C1173 C1165 1.433 . S
C1173 N1175 1.384 . S
N1174 C1170 1.427 . S
N1174 C1171 1.384 . S
N1175 C1167 1.427 . S
N1175 C1173 1.384 . S
H1176 C1182 0.930 . S
H1177 C1186 0.930 . S
H1178 C1191 0.929 . S
H1179 C1189 0.929 . S
H1180 C1184 0.929 . S
H1181 C1190 0.929 . S
C1182 H1176 0.930 . S
C1182 C1183 1.367 . S
C1182 C1190 1.378 . S
C1183 C1182 1.367 . S
C1183 C1191 1.433 1_455 S
C1184 H1180 0.929 . S
C1184 C1186 1.378 . S
C1184 C1188 1.350 1_655 S
C1185 C1188 1.463 . S
C1185 C1190 1.350 . S
C1185 N1193 1.427 1_455 S
C1186 H1177 0.930 . S
C1186 C1184 1.378 . S
C1186 C1187 1.367 1_655 S
C1187 C1186 1.367 1_455 S
C1187 C1189 1.433 . S
C1188 C1184 1.350 1_455 S
C1188 C1185 1.463 . S
C1188 N1192 1.427 . S
C1189 H1179 0.929 . S
C1189 C1187 1.433 . S
C1189 N1192 1.384 . S
C1190 H1181 0.929 . S
C1190 C1182 1.378 . S
C1190 C1185 1.350 . S
C1191 H1178 0.929 . S
C1191 C1183 1.433 1_655 S
C1191 N1193 1.384 . S
N1192 C1188 1.427 . S
N1192 C1189 1.384 . S
N1193 C1185 1.427 1_655 S
N1193 C1191 1.384 . S
H1194 C1200 0.930 . S
H1195 C1204 0.930 . S
H1196 C1209 0.929 . S
H1197 C1207 0.929 . S
H1198 C1202 0.929 . S
H1199 C1208 0.929 . S
C1200 H1194 0.930 . S
C1200 C1201 1.367 . S
C1200 C1208 1.378 . S
C1201 C1200 1.367 . S
C1201 C1209 1.433 . S
C1202 H1198 0.929 . S
C1202 C1204 1.378 . S
C1202 C1206 1.350 . S
C1203 C1206 1.463 . S
C1203 C1208 1.350 . S
C1203 N1211 1.427 . S
C1204 H1195 0.930 . S
C1204 C1202 1.378 . S
C1204 C1205 1.367 . S
C1205 C1204 1.367 . S
C1205 C1207 1.433 . S
C1206 C1202 1.350 . S
C1206 C1203 1.463 . S
C1206 N1210 1.427 . S
C1207 H1197 0.929 . S
C1207 C1205 1.433 . S
C1207 N1210 1.384 . S
C1208 H1199 0.929 . S
C1208 C1200 1.378 . S
C1208 C1203 1.350 . S
C1209 H1196 0.929 . S
C1209 C1201 1.433 . S
C1209 N1211 1.384 . S
N1210 C1206 1.427 . S
N1210 C1207 1.384 . S
N1211 C1203 1.427 . S
N1211 C1209 1.384 . S
H1212 C1218 0.930 . S
H1213 C1222 0.930 . S
H1214 C1227 0.929 . S
H1215 C1225 0.929 . S
H1216 C1220 0.929 . S
H1217 C1226 0.929 . S
C1218 H1212 0.930 . S
C1218 C1219 1.367 . S
C1218 C1226 1.378 . S
C1219 C1218 1.367 . S
C1219 C1227 1.433 . S
C1220 H1216 0.929 . S
C1220 C1222 1.378 . S
C1220 C1224 1.350 . S
C1221 C1224 1.463 . S
C1221 C1226 1.350 . S
C1221 N1229 1.427 . S
C1222 H1213 0.930 . S
C1222 C1220 1.378 . S
C1222 C1223 1.367 . S
C1223 C1222 1.367 . S
C1223 C1225 1.433 . S
C1224 C1220 1.350 . S
C1224 C1221 1.463 . S
C1224 N1228 1.427 . S
C1225 H1215 0.929 . S
C1225 C1223 1.433 . S
C1225 N1228 1.384 . S
C1226 H1217 0.929 . S
C1226 C1218 1.378 . S
C1226 C1221 1.350 . S
C1227 H1214 0.929 . S
C1227 C1219 1.433 . S
C1227 N1229 1.384 . S
N1228 C1224 1.427 . S
N1228 C1225 1.384 . S
N1229 C1221 1.427 . S
N1229 C1227 1.384 . S
H1230 C1236 0.930 . S
H1231 C1240 0.930 . S
H1232 C1245 0.929 . S
H1233 C1243 0.929 . S
H1234 C1238 0.929 . S
H1235 C1244 0.929 . S
C1236 H1230 0.930 . S
C1236 C1237 1.367 . S
C1236 C1244 1.378 . S
C1237 C1236 1.367 . S
C1237 C1245 1.433 . S
C1238 H1234 0.929 . S
C1238 C1240 1.378 . S
C1238 C1242 1.350 . S
C1239 C1242 1.463 . S
C1239 C1244 1.350 . S
C1239 N1247 1.427 . S
C1240 H1231 0.930 . S
C1240 C1238 1.378 . S
C1240 C1241 1.367 . S
C1241 C1240 1.367 . S
C1241 C1243 1.433 . S
C1242 C1238 1.350 . S
C1242 C1239 1.463 . S
C1242 N1246 1.427 . S
C1243 H1233 0.929 . S
C1243 C1241 1.433 . S
C1243 N1246 1.384 . S
C1244 H1235 0.929 . S
C1244 C1236 1.378 . S
C1244 C1239 1.350 . S
C1245 H1232 0.929 . S
C1245 C1237 1.433 . S
C1245 N1247 1.384 . S
N1246 C1242 1.427 . S
N1246 C1243 1.384 . S
N1247 C1239 1.427 . S
N1247 C1245 1.384 . S
H1248 C1254 0.930 . S
H1249 C1258 0.930 . S
H1250 C1263 0.929 . S
H1251 C1261 0.929 . S
H1252 C1256 0.929 . S
H1253 C1262 0.929 . S
C1254 H1248 0.930 . S
C1254 C1255 1.367 . S
C1254 C1262 1.378 . S
C1255 C1254 1.367 . S
C1255 C1263 1.433 1_565 S
C1256 H1252 0.929 . S
C1256 C1258 1.378 . S
C1256 C1260 1.350 . S
C1257 C1260 1.463 . S
C1257 C1262 1.350 1_545 S
C1257 N1265 1.427 . S
C1258 H1249 0.930 . S
C1258 C1256 1.378 . S
C1258 C1259 1.367 . S
C1259 C1258 1.367 . S
C1259 C1261 1.433 1_545 S
C1260 C1256 1.350 . S
C1260 C1257 1.463 . S
C1260 N1264 1.427 1_545 S
C1261 H1251 0.929 . S
C1261 C1259 1.433 1_565 S
C1261 N1264 1.384 . S
C1262 H1253 0.929 . S
C1262 C1254 1.378 . S
C1262 C1257 1.350 1_565 S
C1263 H1250 0.929 . S
C1263 C1255 1.433 1_545 S
C1263 N1265 1.384 . S
N1264 C1260 1.427 1_565 S
N1264 C1261 1.384 . S
N1265 C1257 1.427 . S
N1265 C1263 1.384 . S
H1266 C1272 0.930 . S
H1267 C1276 0.930 . S
H1268 C1281 0.929 . S
H1269 C1279 0.929 . S
H1270 C1274 0.929 . S
H1271 C1280 0.929 . S
C1272 H1266 0.930 . S
C1272 C1273 1.367 . S
C1272 C1280 1.378 . S
C1273 C1272 1.367 . S
C1273 C1281 1.433 . S
C1274 H1270 0.929 . S
C1274 C1276 1.378 . S
C1274 C1278 1.350 . S
C1275 C1278 1.463 . S
C1275 C1280 1.350 . S
C1275 N1283 1.427 . S
C1276 H1267 0.930 . S
C1276 C1274 1.378 . S
C1276 C1277 1.367 . S
C1277 C1276 1.367 . S
C1277 C1279 1.433 . S
C1278 C1274 1.350 . S
C1278 C1275 1.463 . S
C1278 N1282 1.427 . S
C1279 H1269 0.929 . S
C1279 C1277 1.433 . S
C1279 N1282 1.384 . S
C1280 H1271 0.929 . S
C1280 C1272 1.378 . S
C1280 C1275 1.350 . S
C1281 H1268 0.929 . S
C1281 C1273 1.433 . S
C1281 N1283 1.384 . S
N1282 C1278 1.427 . S
N1282 C1279 1.384 . S
N1283 C1275 1.427 . S
N1283 C1281 1.384 . S
H1284 C1290 0.930 . S
H1285 C1294 0.930 . S
H1286 C1299 0.929 . S
H1287 C1297 0.929 . S
H1288 C1292 0.929 . S
H1289 C1298 0.929 . S
C1290 H1284 0.930 . S
C1290 C1291 1.367 1_565 S
C1290 C1298 1.378 . S
C1291 C1290 1.367 1_545 S
C1291 C1299 1.433 . S
C1292 H1288 0.929 . S
C1292 C1294 1.378 . S
C1292 C1296 1.350 . S
C1293 C1296 1.463 . S
C1293 C1298 1.350 1_545 S
C1293 N1301 1.427 . S
C1294 H1285 0.930 . S
C1294 C1292 1.378 . S
C1294 C1295 1.367 . S
C1295 C1294 1.367 . S
C1295 C1297 1.433 1_545 S
C1296 C1292 1.350 . S
C1296 C1293 1.463 . S
C1296 N1300 1.427 1_545 S
C1297 H1287 0.929 . S
C1297 C1295 1.433 1_565 S
C1297 N1300 1.384 . S
C1298 H1289 0.929 . S
C1298 C1290 1.378 . S
C1298 C1293 1.350 1_565 S
C1299 H1286 0.929 . S
C1299 C1291 1.433 . S
C1299 N1301 1.384 . S
N1300 C1296 1.427 1_565 S
N1300 C1297 1.384 . S
N1301 C1293 1.427 . S
N1301 C1299 1.384 . S
H1302 C1308 0.930 . S
H1303 C1312 0.930 . S
H1304 C1317 0.929 . S
H1305 C1315 0.929 . S
H1306 C1310 0.929 . S
H1307 C1316 0.929 . S
C1308 H1302 0.930 . S
C1308 C1309 1.367 . S
C1308 C1316 1.378 . S
C1309 C1308 1.367 . S
C1309 C1317 1.433 . S
C1310 H1306 0.929 . S
C1310 C1312 1.378 . S
C1310 C1314 1.350 . S
C1311 C1314 1.463 . S
C1311 C1316 1.350 . S
C1311 N1319 1.427 . S
C1312 H1303 0.930 . S
C1312 C1310 1.378 . S
C1312 C1313 1.367 . S
C1313 C1312 1.367 . S
C1313 C1315 1.433 . S
C1314 C1310 1.350 . S
C1314 C1311 1.463 . S
C1314 N1318 1.427 . S
C1315 H1305 0.929 . S
C1315 C1313 1.433 . S
C1315 N1318 1.384 . S
C1316 H1307 0.929 . S
C1316 C1308 1.378 . S
C1316 C1311 1.350 . S
C1317 H1304 0.929 . S
C1317 C1309 1.433 . S
C1317 N1319 1.384 . S
N1318 C1314 1.427 . S
N1318 C1315 1.384 . S
N1319 C1311 1.427 . S
N1319 C1317 1.384 . S
H1320 C1326 0.930 . S
H1321 C1330 0.930 . S
H1322 C1335 0.929 . S
H1323 C1333 0.929 . S
H1324 C1328 0.929 . S
H1325 C1334 0.929 . S
C1326 H1320 0.930 . S
C1326 C1327 1.350 1_545 S
C1326 C1334 1.378 . S
C1327 C1326 1.350 1_565 S
C1327 C1335 1.453 . S
C1328 H1324 0.929 . S
C1328 C1330 1.378 . S
C1328 C1332 1.350 . S
C1329 C1332 1.463 . S
C1329 C1334 1.350 1_565 S
C1329 N1337 1.427 . S
C1330 H1321 0.930 . S
C1330 C1328 1.378 . S
C1330 C1331 1.367 . S
C1331 C1330 1.367 . S
C1331 C1333 1.433 1_565 S
C1332 C1328 1.350 . S
C1332 C1329 1.463 . S
C1332 N1336 1.427 1_565 S
C1333 H1323 0.929 . S
C1333 C1331 1.433 1_545 S
C1333 N1336 1.384 . S
C1334 H1325 0.929 . S
C1334 C1326 1.378 . S
C1334 C1329 1.350 1_545 S
C1335 H1322 0.929 . S
C1335 C1327 1.453 . S
C1335 N1337 1.384 . S
N1336 C1332 1.427 1_545 S
N1336 C1333 1.384 . S
N1337 C1329 1.427 . S
N1337 C1335 1.384 . S
H1338 C1344 0.930 . S
H1339 C1348 0.930 . S
H1340 C1353 0.929 . S
H1341 C1351 0.929 . S
H1342 C1346 0.929 . S
H1343 C1352 0.929 . S
C1344 H1338 0.930 . S
C1344 C1345 1.367 . S
C1344 C1352 1.378 . S
C1345 C1344 1.367 . S
C1345 C1353 1.433 . S
C1346 H1342 0.929 . S
C1346 C1348 1.378 . S
C1346 C1350 1.350 . S
C1347 C1350 1.463 . S
C1347 C1352 1.350 . S
C1347 N1355 1.427 . S
C1348 H1339 0.930 . S
C1348 C1346 1.378 . S
C1348 C1349 1.367 . S
C1349 C1348 1.367 . S
C1349 C1351 1.433 . S
C1350 C1346 1.350 . S
C1350 C1347 1.463 . S
C1350 N1354 1.427 . S
C1351 H1341 0.929 . S
C1351 C1349 1.433 . S
C1351 N1354 1.384 . S
C1352 H1343 0.929 . S
C1352 C1344 1.378 . S
C1352 C1347 1.350 . S
C1353 H1340 0.929 . S
C1353 C1345 1.433 . S
C1353 N1355 1.384 . S
N1354 C1350 1.427 . S
N1354 C1351 1.384 . S
N1355 C1347 1.427 . S
N1355 C1353 1.384 . S
H1356 C1362 0.930 . S
H1357 C1366 0.930 . S
H1358 C1371 0.929 . S
H1359 C1369 0.929 . S
H1360 C1364 0.929 . S
H1361 C1370 0.929 . S
C1362 H1356 0.930 . S
C1362 C1363 1.367 1_565 S
C1362 C1370 1.378 . S
C1363 C1362 1.367 1_545 S
C1363 C1371 1.433 . S
C1364 H1360 0.929 . S
C1364 C1366 1.378 . S
C1364 C1368 1.350 . S
C1365 C1368 1.463 . S
C1365 C1370 1.350 1_545 S
C1365 N1373 1.427 . S
C1366 H1357 0.930 . S
C1366 C1364 1.378 . S
C1366 C1367 1.367 . S
C1367 C1366 1.367 . S
C1367 C1369 1.433 1_545 S
C1368 C1364 1.350 . S
C1368 C1365 1.463 . S
C1368 N1372 1.427 1_545 S
C1369 H1359 0.929 . S
C1369 C1367 1.433 1_565 S
C1369 N1372 1.384 . S
C1370 H1361 0.929 . S
C1370 C1362 1.378 . S
C1370 C1365 1.350 1_565 S
C1371 H1358 0.929 . S
C1371 C1363 1.433 . S
C1371 N1373 1.384 . S
N1372 C1368 1.427 1_565 S
N1372 C1369 1.384 . S
N1373 C1365 1.427 . S
N1373 C1371 1.384 . S
H1374 C1380 0.930 . S
H1375 C1384 0.930 . S
H1376 C1389 0.929 . S
H1377 C1387 0.929 . S
H1378 C1382 0.929 . S
H1379 C1388 0.929 . S
C1380 H1374 0.930 . S
C1380 C1381 1.367 . S
C1380 C1388 1.378 . S
C1381 C1380 1.367 . S
C1381 C1389 1.433 . S
C1382 H1378 0.929 . S
C1382 C1384 1.378 . S
C1382 C1386 1.350 . S
C1383 C1386 1.463 . S
C1383 C1388 1.350 . S
C1383 N1391 1.427 . S
C1384 H1375 0.930 . S
C1384 C1382 1.378 . S
C1384 C1385 1.367 . S
C1385 C1384 1.367 . S
C1385 C1387 1.433 . S
C1386 C1382 1.350 . S
C1386 C1383 1.463 . S
C1386 N1390 1.427 . S
C1387 H1377 0.929 . S
C1387 C1385 1.433 . S
C1387 N1390 1.384 . S
C1388 H1379 0.929 . S
C1388 C1380 1.378 . S
C1388 C1383 1.350 . S
C1389 H1376 0.929 . S
C1389 C1381 1.433 . S
C1389 N1391 1.384 . S
N1390 C1386 1.427 . S
N1390 C1387 1.384 . S
N1391 C1383 1.427 . S
N1391 C1389 1.384 . S
H1392 C1398 0.930 . S
H1393 C1402 0.930 1_545 S
H1394 C1407 0.929 . S
H1395 C1405 0.929 . S
H1396 C1400 0.929 . S
H1397 C1406 0.929 . S
C1398 H1392 0.930 . S
C1398 C1399 1.367 . S
C1398 C1406 1.378 . S
C1399 C1398 1.367 . S
C1399 C1407 1.433 . S
C1400 H1396 0.929 . S
C1400 C1402 1.378 . S
C1400 C1404 1.350 . S
C1401 C1404 1.463 . S
C1401 C1406 1.350 . S
C1401 N1409 1.427 . S
C1402 H1393 0.930 1_565 S
C1402 C1400 1.378 . S
C1402 C1403 1.367 . S
C1403 C1402 1.367 . S
C1403 C1405 1.433 . S
C1404 C1400 1.350 . S
C1404 C1401 1.463 . S
C1404 N1408 1.427 . S
C1405 H1395 0.929 . S
C1405 C1403 1.433 . S
C1405 N1408 1.384 . S
C1406 H1397 0.929 . S
C1406 C1398 1.378 . S
C1406 C1401 1.350 . S
C1407 H1394 0.929 . S
C1407 C1399 1.433 . S
C1407 N1409 1.384 . S
N1408 C1404 1.427 . S
N1408 C1405 1.384 . S
N1409 C1401 1.427 . S
N1409 C1407 1.384 . S
H1410 C1416 0.930 . S
H1411 C1420 0.930 . S
H1412 C1425 0.929 . S
H1413 C1423 0.929 . S
H1414 C1418 0.929 . S
H1415 C1424 0.929 . S
C1416 H1410 0.930 . S
C1416 C1417 1.367 . S
C1416 C1424 1.378 . S
C1417 C1416 1.367 . S
C1417 C1425 1.433 1_554 S
C1418 H1414 0.929 . S
C1418 C1420 1.378 . S
C1418 C1422 1.350 . S
C1419 C1422 1.463 1_554 S
C1419 C1424 1.350 . S
C1419 N1427 1.427 1_554 S
C1420 H1411 0.930 . S
C1420 C1418 1.378 . S
C1420 C1421 1.367 . S
C1421 C1420 1.367 . S
C1421 C1423 1.433 1_556 S
C1422 C1418 1.350 . S
C1422 C1419 1.463 1_556 S
C1422 N1426 1.427 1_556 S
C1423 H1413 0.929 . S
C1423 C1421 1.433 1_554 S
C1423 N1426 1.384 . S
C1424 H1415 0.929 . S
C1424 C1416 1.378 . S
C1424 C1419 1.350 . S
C1425 H1412 0.929 . S
C1425 C1417 1.433 1_556 S
C1425 N1427 1.384 . S
N1426 C1422 1.427 1_554 S
N1426 C1423 1.384 . S
N1427 C1419 1.427 1_556 S
N1427 C1425 1.384 . S
H1428 C1434 0.930 . S
H1429 C1438 0.930 . S
H1430 C1443 0.929 . S
H1431 C1441 0.929 . S
H1432 C1436 0.929 . S
H1433 C1442 0.929 . S
C1434 H1428 0.930 . S
C1434 C1435 1.367 . S
C1434 C1442 1.378 . S
C1435 C1434 1.367 . S
C1435 C1443 1.433 . S
C1436 H1432 0.929 . S
C1436 C1438 1.378 . S
C1436 C1440 1.350 . S
C1437 C1440 1.463 . S
C1437 C1442 1.350 . S
C1437 N1445 1.427 . S
C1438 H1429 0.930 . S
C1438 C1436 1.378 . S
C1438 C1439 1.367 . S
C1439 C1438 1.367 . S
C1439 C1441 1.433 . S
C1440 C1436 1.350 . S
C1440 C1437 1.463 . S
C1440 N1444 1.427 . S
C1441 H1431 0.929 . S
C1441 C1439 1.433 . S
C1441 N1444 1.384 . S
C1442 H1433 0.929 . S
C1442 C1434 1.378 . S
C1442 C1437 1.350 . S
C1443 H1430 0.929 . S
C1443 C1435 1.433 . S
C1443 N1445 1.384 . S
N1444 C1440 1.427 . S
N1444 C1441 1.384 . S
N1445 C1437 1.427 . S
N1445 C1443 1.384 . S
H1446 C1452 0.930 . S
H1447 C1456 0.930 . S
H1448 C1461 0.929 . S
H1449 C1459 0.929 . S
H1450 C1454 0.929 . S
H1451 C1460 0.929 . S
C1452 H1446 0.930 . S
C1452 C1453 1.367 . S
C1452 C1460 1.378 . S
C1453 C1452 1.367 . S
C1453 C1461 1.433 . S
C1454 H1450 0.929 . S
C1454 C1456 1.378 . S
C1454 C1458 1.350 . S
C1455 C1458 1.463 . S
C1455 C1460 1.350 . S
C1455 N1463 1.427 . S
C1456 H1447 0.930 . S
C1456 C1454 1.378 . S
C1456 C1457 1.367 . S
C1457 C1456 1.367 . S
C1457 C1459 1.433 . S
C1458 C1454 1.350 . S
C1458 C1455 1.463 . S
C1458 N1462 1.427 . S
C1459 H1449 0.929 . S
C1459 C1457 1.433 . S
C1459 N1462 1.384 . S
C1460 H1451 0.929 . S
C1460 C1452 1.378 . S
C1460 C1455 1.350 . S
C1461 H1448 0.929 . S
C1461 C1453 1.433 . S
C1461 N1463 1.384 . S
N1462 C1458 1.427 . S
N1462 C1459 1.384 . S
N1463 C1455 1.427 . S
N1463 C1461 1.384 . S
H1464 C1470 0.930 . S
H1465 C1474 0.930 . S
H1466 C1479 0.929 . S
H1467 C1477 0.929 . S
H1468 C1472 0.929 . S
H1469 C1478 0.929 . S
C1470 H1464 0.930 . S
C1470 C1471 1.367 . S
C1470 C1478 1.378 . S
C1471 C1470 1.367 . S
C1471 C1479 1.433 . S
C1472 H1468 0.929 . S
C1472 C1474 1.378 . S
C1472 C1476 1.350 . S
C1473 C1476 1.463 . S
C1473 C1478 1.350 . S
C1473 N1481 1.427 . S
C1474 H1465 0.930 . S
C1474 C1472 1.378 . S
C1474 C1475 1.367 . S
C1475 C1474 1.367 . S
C1475 C1477 1.433 . S
C1476 C1472 1.350 . S
C1476 C1473 1.463 . S
C1476 N1480 1.427 . S
C1477 H1467 0.929 . S
C1477 C1475 1.433 . S
C1477 N1480 1.384 . S
C1478 H1469 0.929 . S
C1478 C1470 1.378 . S
C1478 C1473 1.350 . S
C1479 H1466 0.929 . S
C1479 C1471 1.433 . S
C1479 N1481 1.384 . S
N1480 C1476 1.427 . S
N1480 C1477 1.384 . S
N1481 C1473 1.427 . S
N1481 C1479 1.384 . S
H1482 C1488 0.930 . S
H1483 C1492 0.930 . S
H1484 C1497 0.929 . S
H1485 C1495 0.929 . S
H1486 C1490 0.929 . S
H1487 C1496 0.929 . S
C1488 H1482 0.930 . S
C1488 C1489 1.367 . S
C1488 C1496 1.378 . S
C1489 C1488 1.367 . S
C1489 C1497 1.433 . S
C1490 H1486 0.929 . S
C1490 C1492 1.378 . S
C1490 C1494 1.350 . S
C1491 C1494 1.463 . S
C1491 C1496 1.350 . S
C1491 N1499 1.427 . S
C1492 H1483 0.930 . S
C1492 C1490 1.378 . S
C1492 C1493 1.367 . S
C1493 C1492 1.367 . S
C1493 C1495 1.433 . S
C1494 C1490 1.350 . S
C1494 C1491 1.463 . S
C1494 N1498 1.427 . S
C1495 H1485 0.929 . S
C1495 C1493 1.433 . S
C1495 N1498 1.384 . S
C1496 H1487 0.929 . S
C1496 C1488 1.378 . S
C1496 C1491 1.350 . S
C1497 H1484 0.929 . S
C1497 C1489 1.433 . S
C1497 N1499 1.384 . S
N1498 C1494 1.427 . S
N1498 C1495 1.384 . S
N1499 C1491 1.427 . S
N1499 C1497 1.384 . S
H1500 C1506 0.930 . S
H1501 C1510 0.930 . S
H1502 C1515 0.929 . S
H1503 C1513 0.929 . S
H1504 C1508 0.929 . S
H1505 C1514 0.929 . S
C1506 H1500 0.930 . S
C1506 C1507 1.367 . S
C1506 C1514 1.378 . S
C1507 C1506 1.367 . S
C1507 C1515 1.433 . S
C1508 H1504 0.929 . S
C1508 C1510 1.378 . S
C1508 C1512 1.350 . S
C1509 C1512 1.463 . S
C1509 C1514 1.350 . S
C1509 N1517 1.427 . S
C1510 H1501 0.930 . S
C1510 C1508 1.378 . S
C1510 C1511 1.367 . S
C1511 C1510 1.367 . S
C1511 C1513 1.433 . S
C1512 C1508 1.350 . S
C1512 C1509 1.463 . S
C1512 N1516 1.427 . S
C1513 H1503 0.929 . S
C1513 C1511 1.433 . S
C1513 N1516 1.384 . S
C1514 H1505 0.929 . S
C1514 C1506 1.378 . S
C1514 C1509 1.350 . S
C1515 H1502 0.929 . S
C1515 C1507 1.433 . S
C1515 N1517 1.384 . S
N1516 C1512 1.427 . S
N1516 C1513 1.384 . S
N1517 C1509 1.427 . S
N1517 C1515 1.384 . S
H1518 C1524 0.930 . S
H1519 C1528 0.930 . S
H1520 C1533 0.929 . S
H1521 C1531 0.929 . S
H1522 C1526 0.929 . S
H1523 C1532 0.929 . S
C1524 H1518 0.930 . S
C1524 C1525 1.367 . S
C1524 C1532 1.378 . S
C1525 C1524 1.367 . S
C1525 C1533 1.433 . S
C1526 H1522 0.929 . S
C1526 C1528 1.378 . S
C1526 C1530 1.350 . S
C1527 C1530 1.463 . S
C1527 C1532 1.350 . S
C1527 N1535 1.427 . S
C1528 H1519 0.930 . S
C1528 C1526 1.378 . S
C1528 C1529 1.367 . S
C1529 C1528 1.367 . S
C1529 C1531 1.433 . S
C1530 C1526 1.350 . S
C1530 C1527 1.463 . S
C1530 N1534 1.427 . S
C1531 H1521 0.929 . S
C1531 C1529 1.433 . S
C1531 N1534 1.384 . S
C1532 H1523 0.929 . S
C1532 C1524 1.378 . S
C1532 C1527 1.350 . S
C1533 H1520 0.929 . S
C1533 C1525 1.433 . S
C1533 N1535 1.384 . S
N1534 C1530 1.427 . S
N1534 C1531 1.384 . S
N1535 C1527 1.427 . S
N1535 C1533 1.384 . S
H1536 C1542 0.930 . S
H1537 C1546 0.930 . S
H1538 C1551 0.929 . S
H1539 C1549 0.929 . S
H1540 C1544 0.929 . S
H1541 C1550 0.929 . S
C1542 H1536 0.930 . S
C1542 C1543 1.367 . S
C1542 C1550 1.378 . S
C1543 C1542 1.367 . S
C1543 C1551 1.433 . S
C1544 H1540 0.929 . S
C1544 C1546 1.378 . S
C1544 C1548 1.350 . S
C1545 C1548 1.463 . S
C1545 C1550 1.350 . S
C1545 N1553 1.427 . S
C1546 H1537 0.930 . S
C1546 C1544 1.378 . S
C1546 C1547 1.367 . S
C1547 C1546 1.367 . S
C1547 C1549 1.433 . S
C1548 C1544 1.350 . S
C1548 C1545 1.463 . S
C1548 N1552 1.427 . S
C1549 H1539 0.929 . S
C1549 C1547 1.433 . S
C1549 N1552 1.384 . S
C1550 H1541 0.929 . S
C1550 C1542 1.378 . S
C1550 C1545 1.350 . S
C1551 H1538 0.929 . S
C1551 C1543 1.433 . S
C1551 N1553 1.384 . S
N1552 C1548 1.427 . S
N1552 C1549 1.384 . S
N1553 C1545 1.427 . S
N1553 C1551 1.384 . S
H1554 C1560 0.930 . S
H1555 C1564 0.930 . S
H1556 C1569 0.929 . S
H1557 C1567 0.929 . S
H1558 C1562 0.929 . S
H1559 C1568 0.929 . S
C1560 H1554 0.930 . S
C1560 C1561 1.367 . S
C1560 C1568 1.378 . S
C1561 C1560 1.367 . S
C1561 C1569 1.433 . S
C1562 H1558 0.929 . S
C1562 C1564 1.378 . S
C1562 C1566 1.350 . S
C1563 C1566 1.463 . S
C1563 C1568 1.350 . S
C1563 N1571 1.427 . S
C1564 H1555 0.930 . S
C1564 C1562 1.378 . S
C1564 C1565 1.367 . S
C1565 C1564 1.367 . S
C1565 C1567 1.433 . S
C1566 C1562 1.350 . S
C1566 C1563 1.463 . S
C1566 N1570 1.427 . S
C1567 H1557 0.929 . S
C1567 C1565 1.433 . S
C1567 N1570 1.384 . S
C1568 H1559 0.929 . S
C1568 C1560 1.378 . S
C1568 C1563 1.350 . S
C1569 H1556 0.929 . S
C1569 C1561 1.433 . S
C1569 N1571 1.384 . S
N1570 C1566 1.427 . S
N1570 C1567 1.384 . S
N1571 C1563 1.427 . S
N1571 C1569 1.384 . S
H1572 C1578 0.930 . S
H1573 C1582 0.930 . S
H1574 C1587 0.929 . S
H1575 C1585 0.929 . S
H1576 C1580 0.929 . S
H1577 C1586 0.929 . S
C1578 H1572 0.930 . S
C1578 C1579 1.367 . S
C1578 C1586 1.378 . S
C1579 C1578 1.367 . S
C1579 C1587 1.433 1_455 S
C1580 H1576 0.929 . S
C1580 C1582 1.378 . S
C1580 C1584 1.350 1_655 S
C1581 C1584 1.463 . S
C1581 C1586 1.350 . S
C1581 N1589 1.427 1_455 S
C1582 H1573 0.930 . S
C1582 C1580 1.378 . S
C1582 C1583 1.367 1_655 S
C1583 C1582 1.367 1_455 S
C1583 C1585 1.433 . S
C1584 C1580 1.350 1_455 S
C1584 C1581 1.463 . S
C1584 N1588 1.427 . S
C1585 H1575 0.929 . S
C1585 C1583 1.433 . S
C1585 N1588 1.384 . S
C1586 H1577 0.929 . S
C1586 C1578 1.378 . S
C1586 C1581 1.350 . S
C1587 H1574 0.929 . S
C1587 C1579 1.433 1_655 S
C1587 N1589 1.384 . S
N1588 C1584 1.427 . S
N1588 C1585 1.384 . S
N1589 C1581 1.427 1_655 S
N1589 C1587 1.384 . S
H1590 C1596 0.930 . S
H1591 C1600 0.930 . S
H1592 C1605 0.929 . S
H1593 C1603 0.929 . S
H1594 C1598 0.929 . S
H1595 C1604 0.929 . S
C1596 H1590 0.930 . S
C1596 C1597 1.367 . S
C1596 C1604 1.378 . S
C1597 C1596 1.367 . S
C1597 C1605 1.433 . S
C1598 H1594 0.929 . S
C1598 C1600 1.378 . S
C1598 C1602 1.350 . S
C1599 C1602 1.463 . S
C1599 C1604 1.350 . S
C1599 N1607 1.427 . S
C1600 H1591 0.930 . S
C1600 C1598 1.378 . S
C1600 C1601 1.367 . S
C1601 C1600 1.367 . S
C1601 C1603 1.433 . S
C1602 C1598 1.350 . S
C1602 C1599 1.463 . S
C1602 N1606 1.427 . S
C1603 H1593 0.929 . S
C1603 C1601 1.433 . S
C1603 N1606 1.384 . S
C1604 H1595 0.929 . S
C1604 C1596 1.378 . S
C1604 C1599 1.350 . S
C1605 H1592 0.929 . S
C1605 C1597 1.433 . S
C1605 N1607 1.384 . S
N1606 C1602 1.427 . S
N1606 C1603 1.384 . S
N1607 C1599 1.427 . S
N1607 C1605 1.384 . S
H1608 C1614 0.930 . S
H1609 C1618 0.930 . S
H1610 C1623 0.929 . S
H1611 C1621 0.929 1_554 S
H1612 C1616 0.929 . S
H1613 C1622 0.929 . S
C1614 H1608 0.930 . S
C1614 C1615 1.367 . S
C1614 C1622 1.378 . S
C1615 C1614 1.367 . S
C1615 C1623 1.433 . S
C1616 H1612 0.929 . S
C1616 C1618 1.378 . S
C1616 C1620 1.350 . S
C1617 C1620 1.463 . S
C1617 C1622 1.350 . S
C1617 N1625 1.427 . S
C1618 H1609 0.930 . S
C1618 C1616 1.378 . S
C1618 C1619 1.367 . S
C1619 C1618 1.367 . S
C1619 C1621 1.433 . S
C1620 C1616 1.350 . S
C1620 C1617 1.463 . S
C1620 N1624 1.427 . S
C1621 H1611 0.929 1_556 S
C1621 C1619 1.433 . S
C1621 N1624 1.384 . S
C1622 H1613 0.929 . S
C1622 C1614 1.378 . S
C1622 C1617 1.350 . S
C1623 H1610 0.929 . S
C1623 C1615 1.433 . S
C1623 N1625 1.384 . S
N1624 C1620 1.427 . S
N1624 C1621 1.384 . S
N1625 C1617 1.427 . S
N1625 C1623 1.384 . S
H1626 C1632 0.930 . S
H1627 C1636 0.930 . S
H1628 C1641 0.929 . S
H1629 C1639 0.929 . S
H1630 C1634 0.929 . S
H1631 C1640 0.929 . S
C1632 H1626 0.930 . S
C1632 C1633 1.367 . S
C1632 C1640 1.378 . S
C1633 C1632 1.367 . S
C1633 C1641 1.433 . S
C1634 H1630 0.929 . S
C1634 C1636 1.378 . S
C1634 C1638 1.350 . S
C1635 C1638 1.463 . S
C1635 C1640 1.350 . S
C1635 N1643 1.427 . S
C1636 H1627 0.930 . S
C1636 C1634 1.378 . S
C1636 C1637 1.367 . S
C1637 C1636 1.367 . S
C1637 C1639 1.433 . S
C1638 C1634 1.350 . S
C1638 C1635 1.463 . S
C1638 N1642 1.427 . S
C1639 H1629 0.929 . S
C1639 C1637 1.433 . S
C1639 N1642 1.384 . S
C1640 H1631 0.929 . S
C1640 C1632 1.378 . S
C1640 C1635 1.350 . S
C1641 H1628 0.929 . S
C1641 C1633 1.433 . S
C1641 N1643 1.384 . S
N1642 C1638 1.427 . S
N1642 C1639 1.384 . S
N1643 C1635 1.427 . S
N1643 C1641 1.384 . S
H1644 C1650 0.924 1_655 S
H1645 C1654 0.930 . S
H1646 C1659 0.929 . S
H1647 C1657 0.929 . S
H1648 C1652 0.929 . S
H1649 C1658 0.929 . S
C1650 H1644 0.924 1_455 S
C1650 C1651 1.367 . S
C1650 C1658 1.378 . S
C1651 C1650 1.367 . S
C1651 C1659 1.433 . S
C1652 H1648 0.929 . S
C1652 C1654 1.378 . S
C1652 C1656 1.350 . S
C1653 C1656 1.463 . S
C1653 C1658 1.350 . S
C1653 N1661 1.427 . S
C1654 H1645 0.930 . S
C1654 C1652 1.378 . S
C1654 C1655 1.367 . S
C1655 C1654 1.367 . S
C1655 C1657 1.433 . S
C1656 C1652 1.350 . S
C1656 C1653 1.463 . S
C1656 N1660 1.427 . S
C1657 H1647 0.929 . S
C1657 C1655 1.433 . S
C1657 N1660 1.384 . S
C1658 H1649 0.929 . S
C1658 C1650 1.378 . S
C1658 C1653 1.350 . S
C1659 H1646 0.929 . S
C1659 C1651 1.433 . S
C1659 N1661 1.384 . S
N1660 C1656 1.427 . S
N1660 C1657 1.384 . S
N1661 C1653 1.427 . S
N1661 C1659 1.384 . S
H1662 C1668 0.930 . S
H1663 C1672 0.930 . S
H1664 C1677 0.929 . S
H1665 C1675 0.929 . S
H1666 C1670 0.929 . S
H1667 C1676 0.929 . S
C1668 H1662 0.930 . S
C1668 C1669 1.367 . S
C1668 C1676 1.378 . S
C1669 C1668 1.367 . S
C1669 C1677 1.433 . S
C1670 H1666 0.929 . S
C1670 C1672 1.378 . S
C1670 C1674 1.350 . S
C1671 C1674 1.463 . S
C1671 C1676 1.350 . S
C1671 N1679 1.427 . S
C1672 H1663 0.930 . S
C1672 C1670 1.378 . S
C1672 C1673 1.367 . S
C1673 C1672 1.367 . S
C1673 C1675 1.433 . S
C1674 C1670 1.350 . S
C1674 C1671 1.463 . S
C1674 N1678 1.427 . S
C1675 H1665 0.929 . S
C1675 C1673 1.433 . S
C1675 N1678 1.384 . S
C1676 H1667 0.929 . S
C1676 C1668 1.378 . S
C1676 C1671 1.350 . S
C1677 H1664 0.929 . S
C1677 C1669 1.433 . S
C1677 N1679 1.384 . S
N1678 C1674 1.427 . S
N1678 C1675 1.384 . S
N1679 C1671 1.427 . S
N1679 C1677 1.384 . S
H1680 C1686 0.930 . S
H1681 C1690 0.930 . S
H1682 C1695 0.929 . S
H1683 C1693 0.929 . S
H1684 C1688 0.929 . S
H1685 C1694 0.929 . S
C1686 H1680 0.930 . S
C1686 C1687 1.367 . S
C1686 C1694 1.378 . S
C1687 C1686 1.367 . S
C1687 C1695 1.433 . S
C1688 H1684 0.929 . S
C1688 C1690 1.378 . S
C1688 C1692 1.350 . S
C1689 C1692 1.463 . S
C1689 C1694 1.350 . S
C1689 N1697 1.427 . S
C1690 H1681 0.930 . S
C1690 C1688 1.378 . S
C1690 C1691 1.367 . S
C1691 C1690 1.367 . S
C1691 C1693 1.433 . S
C1692 C1688 1.350 . S
C1692 C1689 1.463 . S
C1692 N1696 1.427 . S
C1693 H1683 0.929 . S
C1693 C1691 1.433 . S
C1693 N1696 1.384 . S
C1694 H1685 0.929 . S
C1694 C1686 1.378 . S
C1694 C1689 1.350 . S
C1695 H1682 0.929 . S
C1695 C1687 1.433 . S
C1695 N1697 1.384 . S
N1696 C1692 1.427 . S
N1696 C1693 1.384 . S
N1697 C1689 1.427 . S
N1697 C1695 1.384 . S
H1698 C1704 0.930 . S
H1699 C1708 0.930 . S
H1700 C1713 0.929 . S
H1701 C1711 0.929 . S
H1702 C1706 0.929 . S
H1703 C1712 0.929 . S
C1704 H1698 0.930 . S
C1704 C1705 1.367 . S
C1704 C1712 1.378 . S
C1705 C1704 1.367 . S
C1705 C1713 1.433 . S
C1706 H1702 0.929 . S
C1706 C1708 1.378 . S
C1706 C1710 1.350 . S
C1707 C1710 1.463 . S
C1707 C1712 1.350 . S
C1707 N1715 1.427 . S
C1708 H1699 0.930 . S
C1708 C1706 1.378 . S
C1708 C1709 1.367 . S
C1709 C1708 1.367 . S
C1709 C1711 1.433 . S
C1710 C1706 1.350 . S
C1710 C1707 1.463 . S
C1710 N1714 1.427 . S
C1711 H1701 0.929 . S
C1711 C1709 1.433 . S
C1711 N1714 1.384 . S
C1712 H1703 0.929 . S
C1712 C1704 1.378 . S
C1712 C1707 1.350 . S
C1713 H1700 0.929 . S
C1713 C1705 1.433 . S
C1713 N1715 1.384 . S
N1714 C1710 1.427 . S
N1714 C1711 1.384 . S
N1715 C1707 1.427 . S
N1715 C1713 1.384 . S
H1716 C1722 0.930 . S
H1717 C1726 0.937 . S
H1718 C1731 0.929 . S
H1719 C1729 0.929 . S
H1720 C1724 0.929 . S
H1721 C1730 0.929 . S
C1722 H1716 0.930 . S
C1722 C1723 1.367 . S
C1722 C1730 1.378 . S
C1723 C1722 1.367 . S
C1723 C1731 1.433 . S
C1724 H1720 0.929 . S
C1724 C1726 1.378 . S
C1724 C1728 1.350 . S
C1725 C1728 1.463 . S
C1725 C1730 1.350 . S
C1725 N1733 1.427 . S
C1726 H1717 0.937 . S
C1726 C1724 1.378 . S
C1726 C1727 1.367 . S
C1727 C1726 1.367 . S
C1727 C1729 1.433 . S
C1728 C1724 1.350 . S
C1728 C1725 1.463 . S
C1728 N1732 1.427 . S
C1729 H1719 0.929 . S
C1729 C1727 1.433 . S
C1729 N1732 1.384 . S
C1730 H1721 0.929 . S
C1730 C1722 1.378 . S
C1730 C1725 1.350 . S
C1731 H1718 0.929 . S
C1731 C1723 1.433 . S
C1731 N1733 1.384 . S
N1732 C1728 1.427 . S
N1732 C1729 1.384 . S
N1733 C1725 1.427 . S
N1733 C1731 1.384 . S
H1734 C1740 0.930 . S
H1735 C1744 0.930 . S
H1736 C1749 0.929 . S
H1737 C1747 0.929 . S
H1738 C1742 0.929 . S
H1739 C1748 0.929 . S
C1740 H1734 0.930 . S
C1740 C1741 1.367 . S
C1740 C1748 1.378 . S
C1741 C1740 1.367 . S
C1741 C1749 1.433 . S
C1742 H1738 0.929 . S
C1742 C1744 1.378 . S
C1742 C1746 1.350 . S
C1743 C1746 1.463 . S
C1743 C1748 1.350 . S
C1743 N1751 1.427 . S
C1744 H1735 0.930 . S
C1744 C1742 1.378 . S
C1744 C1745 1.367 . S
C1745 C1744 1.367 . S
C1745 C1747 1.433 . S
C1746 C1742 1.350 . S
C1746 C1743 1.463 . S
C1746 N1750 1.427 . S
C1747 H1737 0.929 . S
C1747 C1745 1.433 . S
C1747 N1750 1.384 . S
C1748 H1739 0.929 . S
C1748 C1740 1.378 . S
C1748 C1743 1.350 . S
C1749 H1736 0.929 . S
C1749 C1741 1.433 . S
C1749 N1751 1.384 . S
N1750 C1746 1.427 . S
N1750 C1747 1.384 . S
N1751 C1743 1.427 . S
N1751 C1749 1.384 . S
H1752 C1758 0.930 . S
H1753 C1762 0.930 . S
H1754 C1767 0.929 . S
H1755 C1765 0.929 . S
H1756 C1760 0.929 . S
H1757 C1766 0.929 . S
C1758 H1752 0.930 . S
C1758 C1759 1.367 . S
C1758 C1766 1.378 . S
C1759 C1758 1.367 . S
C1759 C1767 1.433 . S
C1760 H1756 0.929 . S
C1760 C1762 1.378 . S
C1760 C1764 1.350 . S
C1761 C1764 1.463 . S
C1761 C1766 1.350 . S
C1761 N1769 1.427 . S
C1762 H1753 0.930 . S
C1762 C1760 1.378 . S
C1762 C1763 1.367 . S
C1763 C1762 1.367 . S
C1763 C1765 1.433 . S
C1764 C1760 1.350 . S
C1764 C1761 1.463 . S
C1764 N1768 1.427 . S
C1765 H1755 0.929 . S
C1765 C1763 1.433 . S
C1765 N1768 1.384 . S
C1766 H1757 0.929 . S
C1766 C1758 1.378 . S
C1766 C1761 1.350 . S
C1767 H1754 0.929 . S
C1767 C1759 1.433 . S
C1767 N1769 1.384 . S
N1768 C1764 1.427 . S
N1768 C1765 1.384 . S
N1769 C1761 1.427 . S
N1769 C1767 1.384 . S
H1770 C1776 0.930 . S
H1771 C1780 0.930 . S
H1772 C1785 0.929 . S
H1773 C1783 0.929 . S
H1774 C1778 0.929 . S
H1775 C1784 0.929 . S
C1776 H1770 0.930 . S
C1776 C1777 1.367 . S
C1776 C1784 1.378 . S
C1777 C1776 1.367 . S
C1777 C1785 1.433 . S
C1778 H1774 0.929 . S
C1778 C1780 1.378 . S
C1778 C1782 1.350 . S
C1779 C1782 1.463 . S
C1779 C1784 1.350 . S
C1779 N1787 1.427 . S
C1780 H1771 0.930 . S
C1780 C1778 1.378 . S
C1780 C1781 1.367 . S
C1781 C1780 1.367 . S
C1781 C1783 1.433 . S
C1782 C1778 1.350 . S
C1782 C1779 1.463 . S
C1782 N1786 1.427 . S
C1783 H1773 0.929 . S
C1783 C1781 1.433 . S
C1783 N1786 1.384 . S
C1784 H1775 0.929 . S
C1784 C1776 1.378 . S
C1784 C1779 1.350 . S
C1785 H1772 0.929 . S
C1785 C1777 1.433 . S
C1785 N1787 1.384 . S
N1786 C1782 1.427 . S
N1786 C1783 1.384 . S
N1787 C1779 1.427 . S
N1787 C1785 1.384 . S
H1788 C1794 0.930 . S
H1789 C1798 0.930 . S
H1790 C1803 0.929 . S
H1791 C1801 0.929 . S
H1792 C1796 0.929 . S
H1793 C1802 0.929 . S
C1794 H1788 0.930 . S
C1794 C1795 1.367 . S
C1794 C1802 1.378 . S
C1795 C1794 1.367 . S
C1795 C1803 1.433 . S
C1796 H1792 0.929 . S
C1796 C1798 1.378 . S
C1796 C1800 1.350 . S
C1797 C1800 1.463 . S
C1797 C1802 1.350 . S
C1797 N1805 1.427 . S
C1798 H1789 0.930 . S
C1798 C1796 1.378 . S
C1798 C1799 1.367 . S
C1799 C1798 1.367 . S
C1799 C1801 1.433 . S
C1800 C1796 1.350 . S
C1800 C1797 1.463 . S
C1800 N1804 1.427 . S
C1801 H1791 0.929 . S
C1801 C1799 1.433 . S
C1801 N1804 1.384 . S
C1802 H1793 0.929 . S
C1802 C1794 1.378 . S
C1802 C1797 1.350 . S
C1803 H1790 0.929 . S
C1803 C1795 1.433 . S
C1803 N1805 1.384 . S
N1804 C1800 1.427 . S
N1804 C1801 1.384 . S
N1805 C1797 1.427 . S
N1805 C1803 1.384 . S
H1806 C1812 0.930 . S
H1807 C1816 0.930 . S
H1808 C1821 0.929 . S
H1809 C1819 0.929 . S
H1810 C1814 0.929 . S
H1811 C1820 0.929 . S
C1812 H1806 0.930 . S
C1812 C1813 1.367 . S
C1812 C1820 1.378 . S
C1813 C1812 1.367 . S
C1813 C1821 1.433 . S
C1814 H1810 0.929 . S
C1814 C1816 1.378 . S
C1814 C1818 1.350 . S
C1815 C1818 1.463 . S
C1815 C1820 1.350 . S
C1815 N1823 1.427 . S
C1816 H1807 0.930 . S
C1816 C1814 1.378 . S
C1816 C1817 1.367 . S
C1817 C1816 1.367 . S
C1817 C1819 1.433 . S
C1818 C1814 1.350 . S
C1818 C1815 1.463 . S
C1818 N1822 1.427 . S
C1819 H1809 0.929 . S
C1819 C1817 1.433 . S
C1819 N1822 1.384 . S
C1820 H1811 0.929 . S
C1820 C1812 1.378 . S
C1820 C1815 1.350 . S
C1821 H1808 0.929 . S
C1821 C1813 1.433 . S
C1821 N1823 1.384 . S
N1822 C1818 1.427 . S
N1822 C1819 1.384 . S
N1823 C1815 1.427 . S
N1823 C1821 1.384 . S
H1824 C1830 0.930 . S
H1825 C1834 0.930 . S
H1826 C1839 0.929 . S
H1827 C1837 0.929 . S
H1828 C1832 0.929 . S
H1829 C1838 0.929 . S
C1830 H1824 0.930 . S
C1830 C1831 1.367 . S
C1830 C1838 1.378 . S
C1831 C1830 1.367 . S
C1831 C1839 1.433 . S
C1832 H1828 0.929 . S
C1832 C1834 1.378 . S
C1832 C1836 1.350 . S
C1833 C1836 1.463 . S
C1833 C1838 1.350 . S
C1833 N1841 1.427 . S
C1834 H1825 0.930 . S
C1834 C1832 1.378 . S
C1834 C1835 1.367 . S
C1835 C1834 1.367 . S
C1835 C1837 1.433 . S
C1836 C1832 1.350 . S
C1836 C1833 1.463 . S
C1836 N1840 1.427 . S
C1837 H1827 0.929 . S
C1837 C1835 1.433 . S
C1837 N1840 1.384 . S
C1838 H1829 0.929 . S
C1838 C1830 1.378 . S
C1838 C1833 1.350 . S
C1839 H1826 0.929 . S
C1839 C1831 1.433 . S
C1839 N1841 1.384 . S
N1840 C1836 1.427 . S
N1840 C1837 1.384 . S
N1841 C1833 1.427 . S
N1841 C1839 1.384 . S
H1842 C1848 0.930 . S
H1843 C1852 0.930 . S
H1844 C1857 0.929 . S
H1845 C1855 0.929 1_545 S
H1846 C1850 0.929 . S
H1847 C1856 0.929 . S
C1848 H1842 0.930 . S
C1848 C1849 1.367 . S
C1848 C1856 1.378 . S
C1849 C1848 1.367 . S
C1849 C1857 1.433 . S
C1850 H1846 0.929 . S
C1850 C1852 1.378 . S
C1850 C1854 1.350 . S
C1851 C1854 1.463 . S
C1851 C1856 1.350 . S
C1851 N1859 1.427 . S
C1852 H1843 0.930 . S
C1852 C1850 1.378 . S
C1852 C1853 1.367 . S
C1853 C1852 1.367 . S
C1853 C1855 1.433 . S
C1854 C1850 1.350 . S
C1854 C1851 1.463 . S
C1854 N1858 1.427 . S
C1855 H1845 0.929 1_565 S
C1855 C1853 1.433 . S
C1855 N1858 1.384 . S
C1856 H1847 0.929 . S
C1856 C1848 1.378 . S
C1856 C1851 1.350 . S
C1857 H1844 0.929 . S
C1857 C1849 1.433 . S
C1857 N1859 1.384 . S
N1858 C1854 1.427 . S
N1858 C1855 1.384 . S
N1859 C1851 1.427 . S
N1859 C1857 1.384 . S
H1860 C1866 0.930 . S
H1861 C1870 0.930 . S
H1862 C1875 0.929 . S
H1863 C1873 0.929 . S
H1864 C1868 0.929 . S
H1865 C1874 0.929 . S
C1866 H1860 0.930 . S
C1866 C1867 1.367 . S
C1866 C1874 1.378 . S
C1867 C1866 1.367 . S
C1867 C1875 1.433 . S
C1868 H1864 0.929 . S
C1868 C1870 1.378 . S
C1868 C1872 1.350 . S
C1869 C1872 1.463 . S
C1869 C1874 1.350 . S
C1869 N1877 1.427 . S
C1870 H1861 0.930 . S
C1870 C1868 1.378 . S
C1870 C1871 1.367 . S
C1871 C1870 1.367 . S
C1871 C1873 1.433 . S
C1872 C1868 1.350 . S
C1872 C1869 1.463 . S
C1872 N1876 1.427 . S
C1873 H1863 0.929 . S
C1873 C1871 1.433 . S
C1873 N1876 1.384 . S
C1874 H1865 0.929 . S
C1874 C1866 1.378 . S
C1874 C1869 1.350 . S
C1875 H1862 0.929 . S
C1875 C1867 1.433 . S
C1875 N1877 1.384 . S
N1876 C1872 1.427 . S
N1876 C1873 1.384 . S
N1877 C1869 1.427 . S
N1877 C1875 1.384 . S
H1878 C1884 0.930 . S
H1879 C1888 0.930 . S
H1880 C1893 0.929 . S
H1881 C1891 0.929 1_565 S
H1882 C1886 0.929 . S
H1883 C1892 0.929 . S
C1884 H1878 0.930 . S
C1884 C1885 1.367 . S
C1884 C1892 1.378 . S
C1885 C1884 1.367 . S
C1885 C1893 1.433 . S
C1886 H1882 0.929 . S
C1886 C1888 1.378 . S
C1886 C1890 1.350 . S
C1887 C1890 1.463 . S
C1887 C1892 1.350 . S
C1887 N1895 1.427 . S
C1888 H1879 0.930 . S
C1888 C1886 1.378 . S
C1888 C1889 1.367 . S
C1889 C1888 1.367 . S
C1889 C1891 1.433 . S
C1890 C1886 1.350 . S
C1890 C1887 1.463 . S
C1890 N1894 1.427 . S
C1891 H1881 0.929 1_545 S
C1891 C1889 1.433 . S
C1891 N1894 1.384 . S
C1892 H1883 0.929 . S
C1892 C1884 1.378 . S
C1892 C1887 1.350 . S
C1893 H1880 0.929 . S
C1893 C1885 1.433 . S
C1893 N1895 1.384 . S
N1894 C1890 1.427 . S
N1894 C1891 1.384 . S
N1895 C1887 1.427 . S
N1895 C1893 1.384 . S
H1896 C1902 0.930 . S
H1897 C1906 0.930 . S
H1898 C1911 0.929 . S
H1899 C1909 0.929 . S
H1900 C1904 0.929 . S
H1901 C1910 0.929 . S
C1902 H1896 0.930 . S
C1902 C1903 1.367 . S
C1902 C1910 1.378 . S
C1903 C1902 1.367 . S
C1903 C1911 1.433 . S
C1904 H1900 0.929 . S
C1904 C1906 1.378 . S
C1904 C1908 1.350 . S
C1905 C1908 1.463 . S
C1905 C1910 1.350 . S
C1905 N1913 1.427 . S
C1906 H1897 0.930 . S
C1906 C1904 1.378 . S
C1906 C1907 1.367 . S
C1907 C1906 1.367 . S
C1907 C1909 1.433 . S
C1908 C1904 1.350 . S
C1908 C1905 1.463 . S
C1908 N1912 1.427 . S
C1909 H1899 0.929 . S
C1909 C1907 1.433 . S
C1909 N1912 1.384 . S
C1910 H1901 0.929 . S
C1910 C1902 1.378 . S
C1910 C1905 1.350 . S
C1911 H1898 0.929 . S
C1911 C1903 1.433 . S
C1911 N1913 1.384 . S
N1912 C1908 1.427 . S
N1912 C1909 1.384 . S
N1913 C1905 1.427 . S
N1913 C1911 1.384 . S
H1914 C1920 0.930 . S
H1915 C1924 0.930 . S
H1916 C1929 0.929 . S
H1917 C1927 0.929 . S
H1918 C1922 0.929 . S
H1919 C1928 0.929 . S
C1920 H1914 0.930 . S
C1920 C1921 1.367 1_556 S
C1920 C1928 1.378 . S
C1921 C1920 1.367 1_554 S
C1921 C1929 1.433 . S
C1922 H1918 0.929 . S
C1922 C1924 1.378 . S
C1922 C1926 1.348 1_554 S
C1923 C1926 1.460 1_554 S
C1923 C1928 1.344 1_554 S
C1923 N1931 1.437 . S
C1924 H1915 0.930 . S
C1924 C1922 1.378 . S
C1924 C1925 1.367 1_554 S
C1925 C1924 1.367 1_556 S
C1925 C1927 1.433 . S
C1926 C1922 1.348 1_556 S
C1926 C1923 1.460 1_556 S
C1926 N1930 1.430 . S
C1927 H1917 0.929 . S
C1927 C1925 1.433 . S
C1927 N1930 1.384 . S
C1928 H1919 0.929 . S
C1928 C1920 1.378 . S
C1928 C1923 1.344 1_556 S
C1929 H1916 0.929 . S
C1929 C1921 1.433 . S
C1929 N1931 1.384 . S
N1930 C1926 1.430 . S
N1930 C1927 1.384 . S
N1931 C1923 1.437 . S
N1931 C1929 1.384 . S
H1932 C1938 0.930 . S
H1933 C1942 0.930 . S
H1934 C1947 0.929 . S
H1935 C1945 0.929 . S
H1936 C1940 0.929 . S
H1937 C1946 0.929 . S
C1938 H1932 0.930 . S
C1938 C1939 1.367 . S
C1938 C1946 1.378 . S
C1939 C1938 1.367 . S
C1939 C1947 1.433 . S
C1940 H1936 0.929 . S
C1940 C1942 1.378 . S
C1940 C1944 1.350 . S
C1941 C1944 1.463 . S
C1941 C1946 1.350 . S
C1941 N1949 1.427 . S
C1942 H1933 0.930 . S
C1942 C1940 1.378 . S
C1942 C1943 1.367 . S
C1943 C1942 1.367 . S
C1943 C1945 1.433 . S
C1944 C1940 1.350 . S
C1944 C1941 1.463 . S
C1944 N1948 1.427 . S
C1945 H1935 0.929 . S
C1945 C1943 1.433 . S
C1945 N1948 1.384 . S
C1946 H1937 0.929 . S
C1946 C1938 1.378 . S
C1946 C1941 1.350 . S
C1947 H1934 0.929 . S
C1947 C1939 1.433 . S
C1947 N1949 1.384 . S
N1948 C1944 1.427 . S
N1948 C1945 1.384 . S
N1949 C1941 1.427 . S
N1949 C1947 1.384 . S
H1950 C1956 0.930 . S
H1951 C1960 0.930 . S
H1952 C1965 0.929 . S
H1953 C1963 0.929 . S
H1954 C1958 0.929 . S
H1955 C1964 0.929 . S
C1956 H1950 0.930 . S
C1956 C1957 1.367 . S
C1956 C1964 1.378 . S
C1957 C1956 1.367 . S
C1957 C1965 1.433 . S
C1958 H1954 0.929 . S
C1958 C1960 1.378 . S
C1958 C1962 1.350 . S
C1959 C1962 1.463 . S
C1959 C1964 1.350 . S
C1959 N1967 1.427 . S
C1960 H1951 0.930 . S
C1960 C1958 1.378 . S
C1960 C1961 1.367 . S
C1961 C1960 1.367 . S
C1961 C1963 1.433 . S
C1962 C1958 1.350 . S
C1962 C1959 1.463 . S
C1962 N1966 1.427 . S
C1963 H1953 0.929 . S
C1963 C1961 1.433 . S
C1963 N1966 1.384 . S
C1964 H1955 0.929 . S
C1964 C1956 1.378 . S
C1964 C1959 1.350 . S
C1965 H1952 0.929 . S
C1965 C1957 1.433 . S
C1965 N1967 1.384 . S
N1966 C1962 1.427 . S
N1966 C1963 1.384 . S
N1967 C1959 1.427 . S
N1967 C1965 1.384 . S
H1968 C1974 0.930 . S
H1969 C1978 0.930 . S
H1970 C1983 0.929 . S
H1971 C1981 0.929 . S
H1972 C1976 0.929 . S
H1973 C1982 0.929 . S
C1974 H1968 0.930 . S
C1974 C1975 1.367 . S
C1974 C1982 1.378 . S
C1975 C1974 1.367 . S
C1975 C1983 1.433 . S
C1976 H1972 0.929 . S
C1976 C1978 1.378 . S
C1976 C1980 1.350 . S
C1977 C1980 1.463 . S
C1977 C1982 1.350 . S
C1977 N1985 1.427 . S
C1978 H1969 0.930 . S
C1978 C1976 1.378 . S
C1978 C1979 1.367 . S
C1979 C1978 1.367 . S
C1979 C1981 1.433 . S
C1980 C1976 1.350 . S
C1980 C1977 1.463 . S
C1980 N1984 1.427 . S
C1981 H1971 0.929 . S
C1981 C1979 1.433 . S
C1981 N1984 1.384 . S
C1982 H1973 0.929 . S
C1982 C1974 1.378 . S
C1982 C1977 1.350 . S
C1983 H1970 0.929 . S
C1983 C1975 1.433 . S
C1983 N1985 1.384 . S
N1984 C1980 1.427 . S
N1984 C1981 1.384 . S
N1985 C1977 1.427 . S
N1985 C1983 1.384 . S
H1986 C1992 0.930 . S
H1987 C1996 0.930 . S
H1988 C2001 0.929 . S
H1989 C1999 0.929 . S
H1990 C1994 0.929 . S
H1991 C2000 0.929 . S
C1992 H1986 0.930 . S
C1992 C1993 1.367 . S
C1992 C2000 1.378 . S
C1993 C1992 1.367 . S
C1993 C2001 1.433 . S
C1994 H1990 0.929 . S
C1994 C1996 1.378 . S
C1994 C1998 1.350 . S
C1995 C1998 1.463 . S
C1995 C2000 1.350 . S
C1995 N2003 1.427 . S
C1996 H1987 0.930 . S
C1996 C1994 1.378 . S
C1996 C1997 1.367 . S
C1997 C1996 1.367 . S
C1997 C1999 1.433 . S
C1998 C1994 1.350 . S
C1998 C1995 1.463 . S
C1998 N2002 1.427 . S
C1999 H1989 0.929 . S
C1999 C1997 1.433 . S
C1999 N2002 1.384 . S
C2000 H1991 0.929 . S
C2000 C1992 1.378 . S
C2000 C1995 1.350 . S
C2001 H1988 0.929 . S
C2001 C1993 1.433 . S
C2001 N2003 1.384 . S
N2002 C1998 1.427 . S
N2002 C1999 1.384 . S
N2003 C1995 1.427 . S
N2003 C2001 1.384 . S
H2004 C2010 0.930 . S
H2005 C2014 0.930 . S
H2006 C2019 0.929 . S
H2007 C2017 0.929 . S
H2008 C2012 0.929 . S
H2009 C2018 0.929 . S
C2010 H2004 0.930 . S
C2010 C2011 1.367 . S
C2010 C2018 1.378 . S
C2011 C2010 1.367 . S
C2011 C2019 1.433 1_455 S
C2012 H2008 0.929 . S
C2012 C2014 1.378 . S
C2012 C2016 1.350 . S
C2013 C2016 1.463 1_455 S
C2013 C2018 1.350 . S
C2013 N2021 1.427 1_455 S
C2014 H2005 0.930 . S
C2014 C2012 1.378 . S
C2014 C2015 1.367 . S
C2015 C2014 1.367 . S
C2015 C2017 1.433 1_655 S
C2016 C2012 1.350 . S
C2016 C2013 1.463 1_655 S
C2016 N2020 1.427 1_655 S
C2017 H2007 0.929 . S
C2017 C2015 1.433 1_455 S
C2017 N2020 1.384 . S
C2018 H2009 0.929 . S
C2018 C2010 1.378 . S
C2018 C2013 1.350 . S
C2019 H2006 0.929 . S
C2019 C2011 1.433 1_655 S
C2019 N2021 1.384 . S
N2020 C2016 1.427 1_455 S
N2020 C2017 1.384 . S
N2021 C2013 1.427 1_655 S
N2021 C2019 1.384 . S
H2022 C2028 0.930 . S
H2023 C2032 0.930 . S
H2024 C2037 0.929 . S
H2025 C2035 0.929 . S
H2026 C2030 0.929 . S
H2027 C2036 0.929 . S
C2028 H2022 0.930 . S
C2028 C2029 1.367 . S
C2028 C2036 1.378 . S
C2029 C2028 1.367 . S
C2029 C2037 1.433 . S
C2030 H2026 0.929 . S
C2030 C2032 1.378 . S
C2030 C2034 1.350 . S
C2031 C2034 1.463 . S
C2031 C2036 1.350 . S
C2031 N2039 1.427 . S
C2032 H2023 0.930 . S
C2032 C2030 1.378 . S
C2032 C2033 1.367 . S
C2033 C2032 1.367 . S
C2033 C2035 1.433 . S
C2034 C2030 1.350 . S
C2034 C2031 1.463 . S
C2034 N2038 1.427 . S
C2035 H2025 0.929 . S
C2035 C2033 1.433 . S
C2035 N2038 1.384 . S
C2036 H2027 0.929 . S
C2036 C2028 1.378 . S
C2036 C2031 1.350 . S
C2037 H2024 0.929 . S
C2037 C2029 1.433 . S
C2037 N2039 1.384 . S
N2038 C2034 1.427 . S
N2038 C2035 1.384 . S
N2039 C2031 1.427 . S
N2039 C2037 1.384 . S
H2040 C2046 0.930 . S
H2041 C2050 0.930 . S
H2042 C2055 0.929 . S
H2043 C2053 0.929 . S
H2044 C2048 0.929 . S
H2045 C2054 0.929 . S
C2046 H2040 0.930 . S
C2046 C2047 1.367 . S
C2046 C2054 1.378 . S
C2047 C2046 1.367 . S
C2047 C2055 1.433 . S
C2048 H2044 0.929 . S
C2048 C2050 1.378 . S
C2048 C2052 1.350 . S
C2049 C2052 1.463 . S
C2049 C2054 1.350 . S
C2049 N2057 1.427 . S
C2050 H2041 0.930 . S
C2050 C2048 1.378 . S
C2050 C2051 1.367 . S
C2051 C2050 1.367 . S
C2051 C2053 1.433 . S
C2052 C2048 1.350 . S
C2052 C2049 1.463 . S
C2052 N2056 1.427 . S
C2053 H2043 0.929 . S
C2053 C2051 1.433 . S
C2053 N2056 1.384 . S
C2054 H2045 0.929 . S
C2054 C2046 1.378 . S
C2054 C2049 1.350 . S
C2055 H2042 0.929 . S
C2055 C2047 1.433 . S
C2055 N2057 1.384 . S
N2056 C2052 1.427 . S
N2056 C2053 1.384 . S
N2057 C2049 1.427 . S
N2057 C2055 1.384 . S
H2058 C2064 0.930 . S
H2059 C2068 0.930 . S
H2060 C2073 0.929 . S
H2061 C2071 0.929 . S
H2062 C2066 0.929 . S
H2063 C2072 0.929 . S
C2064 H2058 0.930 . S
C2064 C2065 1.367 . S
C2064 C2072 1.378 . S
C2065 C2064 1.367 . S
C2065 C2073 1.433 . S
C2066 H2062 0.929 . S
C2066 C2068 1.378 . S
C2066 C2070 1.350 . S
C2067 C2070 1.463 . S
C2067 C2072 1.350 . S
C2067 N2075 1.427 . S
C2068 H2059 0.930 . S
C2068 C2066 1.378 . S
C2068 C2069 1.367 . S
C2069 C2068 1.367 . S
C2069 C2071 1.433 . S
C2070 C2066 1.350 . S
C2070 C2067 1.463 . S
C2070 N2074 1.427 . S
C2071 H2061 0.929 . S
C2071 C2069 1.433 . S
C2071 N2074 1.384 . S
C2072 H2063 0.929 . S
C2072 C2064 1.378 . S
C2072 C2067 1.350 . S
C2073 H2060 0.929 . S
C2073 C2065 1.433 . S
C2073 N2075 1.384 . S
N2074 C2070 1.427 . S
N2074 C2071 1.384 . S
N2075 C2067 1.427 . S
N2075 C2073 1.384 . S
H2076 C2082 0.930 . S
H2077 C2086 0.930 . S
H2078 C2091 0.929 . S
H2079 C2089 0.929 . S
H2080 C2084 0.929 . S
H2081 C2090 0.929 . S
C2082 H2076 0.930 . S
C2082 C2083 1.367 . S
C2082 C2090 1.378 . S
C2083 C2082 1.367 . S
C2083 C2091 1.433 1_455 S
C2084 H2080 0.929 . S
C2084 C2086 1.378 . S
C2084 C2088 1.350 . S
C2085 C2088 1.463 1_455 S
C2085 C2090 1.350 . S
C2085 N2093 1.427 1_455 S
C2086 H2077 0.930 . S
C2086 C2084 1.378 . S
C2086 C2087 1.367 . S
C2087 C2086 1.367 . S
C2087 C2089 1.433 1_655 S
C2088 C2084 1.350 . S
C2088 C2085 1.463 1_655 S
C2088 N2092 1.427 1_655 S
C2089 H2079 0.929 . S
C2089 C2087 1.433 1_455 S
C2089 N2092 1.384 . S
C2090 H2081 0.929 . S
C2090 C2082 1.378 . S
C2090 C2085 1.350 . S
C2091 H2078 0.929 . S
C2091 C2083 1.433 1_655 S
C2091 N2093 1.384 . S
N2092 C2088 1.427 1_455 S
N2092 C2089 1.384 . S
N2093 C2085 1.427 1_655 S
N2093 C2091 1.384 . S
H2094 C2100 0.930 . S
H2095 C2104 0.930 . S
H2096 C2109 0.929 . S
H2097 C2107 0.929 . S
H2098 C2102 0.929 . S
H2099 C2108 0.929 . S
C2100 H2094 0.930 . S
C2100 C2101 1.367 . S
C2100 C2108 1.378 . S
C2101 C2100 1.367 . S
C2101 C2109 1.433 . S
C2102 H2098 0.929 . S
C2102 C2104 1.378 . S
C2102 C2106 1.350 . S
C2103 C2106 1.463 . S
C2103 C2108 1.350 . S
C2103 N2111 1.427 . S
C2104 H2095 0.930 . S
C2104 C2102 1.378 . S
C2104 C2105 1.367 . S
C2105 C2104 1.367 . S
C2105 C2107 1.433 . S
C2106 C2102 1.350 . S
C2106 C2103 1.463 . S
C2106 N2110 1.427 . S
C2107 H2097 0.929 . S
C2107 C2105 1.433 . S
C2107 N2110 1.384 . S
C2108 H2099 0.929 . S
C2108 C2100 1.378 . S
C2108 C2103 1.350 . S
C2109 H2096 0.929 . S
C2109 C2101 1.433 . S
C2109 N2111 1.384 . S
N2110 C2106 1.427 . S
N2110 C2107 1.384 . S
N2111 C2103 1.427 . S
N2111 C2109 1.384 . S
H2112 C2118 0.930 . S
H2113 C2122 0.930 . S
H2114 C2127 0.929 . S
H2115 C2125 0.929 . S
H2116 C2120 0.929 . S
H2117 C2126 0.929 . S
C2118 H2112 0.930 . S
C2118 C2119 1.367 . S
C2118 C2126 1.378 . S
C2119 C2118 1.367 . S
C2119 C2127 1.433 . S
C2120 H2116 0.929 . S
C2120 C2122 1.378 . S
C2120 C2124 1.350 . S
C2121 C2124 1.463 . S
C2121 C2126 1.350 . S
C2121 N2129 1.427 . S
C2122 H2113 0.930 . S
C2122 C2120 1.378 . S
C2122 C2123 1.367 . S
C2123 C2122 1.367 . S
C2123 C2125 1.433 . S
C2124 C2120 1.350 . S
C2124 C2121 1.463 . S
C2124 N2128 1.427 . S
C2125 H2115 0.929 . S
C2125 C2123 1.433 . S
C2125 N2128 1.384 . S
C2126 H2117 0.929 . S
C2126 C2118 1.378 . S
C2126 C2121 1.350 . S
C2127 H2114 0.929 . S
C2127 C2119 1.433 . S
C2127 N2129 1.384 . S
N2128 C2124 1.427 . S
N2128 C2125 1.384 . S
N2129 C2121 1.427 . S
N2129 C2127 1.384 . S
H2130 C2136 0.930 . S
H2131 C2140 0.930 . S
H2132 C2145 0.929 . S
H2133 C2143 0.929 . S
H2134 C2138 0.929 . S
H2135 C2144 0.929 . S
C2136 H2130 0.930 . S
C2136 C2137 1.367 . S
C2136 C2144 1.378 . S
C2137 C2136 1.367 . S
C2137 C2145 1.433 . S
C2138 H2134 0.929 . S
C2138 C2140 1.378 . S
C2138 C2142 1.350 . S
C2139 C2142 1.463 . S
C2139 C2144 1.350 . S
C2139 N2147 1.427 . S
C2140 H2131 0.930 . S
C2140 C2138 1.378 . S
C2140 C2141 1.367 . S
C2141 C2140 1.367 . S
C2141 C2143 1.433 . S
C2142 C2138 1.350 . S
C2142 C2139 1.463 . S
C2142 N2146 1.427 . S
C2143 H2133 0.929 . S
C2143 C2141 1.433 . S
C2143 N2146 1.384 . S
C2144 H2135 0.929 . S
C2144 C2136 1.378 . S
C2144 C2139 1.350 . S
C2145 H2132 0.929 . S
C2145 C2137 1.433 . S
C2145 N2147 1.384 . S
N2146 C2142 1.427 . S
N2146 C2143 1.384 . S
N2147 C2139 1.427 . S
N2147 C2145 1.384 . S
H2148 C2154 0.930 . S
H2149 C2158 0.930 . S
H2150 C2163 0.929 . S
H2151 C2161 0.929 . S
H2152 C2156 0.929 . S
H2153 C2162 0.929 . S
C2154 H2148 0.930 . S
C2154 C2155 1.367 . S
C2154 C2162 1.378 . S
C2155 C2154 1.367 . S
C2155 C2163 1.433 . S
C2156 H2152 0.929 . S
C2156 C2158 1.378 . S
C2156 C2160 1.350 . S
C2157 C2160 1.463 . S
C2157 C2162 1.350 . S
C2157 N2165 1.427 . S
C2158 H2149 0.930 . S
C2158 C2156 1.378 . S
C2158 C2159 1.367 . S
C2159 C2158 1.367 . S
C2159 C2161 1.433 . S
C2160 C2156 1.350 . S
C2160 C2157 1.463 . S
C2160 N2164 1.427 . S
C2161 H2151 0.929 . S
C2161 C2159 1.433 . S
C2161 N2164 1.384 . S
C2162 H2153 0.929 . S
C2162 C2154 1.378 . S
C2162 C2157 1.350 . S
C2163 H2150 0.929 . S
C2163 C2155 1.433 . S
C2163 N2165 1.384 . S
N2164 C2160 1.427 . S
N2164 C2161 1.384 . S
N2165 C2157 1.427 . S
N2165 C2163 1.384 . S
H2166 C2172 0.930 . S
H2167 C2176 0.930 . S
H2168 C2181 0.929 . S
H2169 C2179 0.929 . S
H2170 C2174 0.929 . S
H2171 C2180 0.929 . S
C2172 H2166 0.930 . S
C2172 C2173 1.367 . S
C2172 C2180 1.378 . S
C2173 C2172 1.367 . S
C2173 C2181 1.433 . S
C2174 H2170 0.929 . S
C2174 C2176 1.378 . S
C2174 C2178 1.350 . S
C2175 C2178 1.463 . S
C2175 C2180 1.350 . S
C2175 N2183 1.427 . S
C2176 H2167 0.930 . S
C2176 C2174 1.378 . S
C2176 C2177 1.367 . S
C2177 C2176 1.367 . S
C2177 C2179 1.433 . S
C2178 C2174 1.350 . S
C2178 C2175 1.463 . S
C2178 N2182 1.427 . S
C2179 H2169 0.929 . S
C2179 C2177 1.433 . S
C2179 N2182 1.384 . S
C2180 H2171 0.929 . S
C2180 C2172 1.378 . S
C2180 C2175 1.350 . S
C2181 H2168 0.929 . S
C2181 C2173 1.433 . S
C2181 N2183 1.384 . S
N2182 C2178 1.427 . S
N2182 C2179 1.384 . S
N2183 C2175 1.427 . S
N2183 C2181 1.384 . S
H2184 C2190 0.930 . S
H2185 C2194 0.930 . S
H2186 C2199 0.929 . S
H2187 C2197 0.929 . S
H2188 C2192 0.929 . S
H2189 C2198 0.929 . S
C2190 H2184 0.930 . S
C2190 C2191 1.367 . S
C2190 C2198 1.378 . S
C2191 C2190 1.367 . S
C2191 C2199 1.433 . S
C2192 H2188 0.929 . S
C2192 C2194 1.378 . S
C2192 C2196 1.350 . S
C2193 C2196 1.463 . S
C2193 C2198 1.350 . S
C2193 N2201 1.427 . S
C2194 H2185 0.930 . S
C2194 C2192 1.378 . S
C2194 C2195 1.367 . S
C2195 C2194 1.367 . S
C2195 C2197 1.433 . S
C2196 C2192 1.350 . S
C2196 C2193 1.463 . S
C2196 N2200 1.427 . S
C2197 H2187 0.929 . S
C2197 C2195 1.433 . S
C2197 N2200 1.384 . S
C2198 H2189 0.929 . S
C2198 C2190 1.378 . S
C2198 C2193 1.350 . S
C2199 H2186 0.929 . S
C2199 C2191 1.433 . S
C2199 N2201 1.384 . S
N2200 C2196 1.427 . S
N2200 C2197 1.384 . S
N2201 C2193 1.427 . S
N2201 C2199 1.384 . S
H2202 C2208 0.930 . S
H2203 C2212 0.930 . S
H2204 C2217 0.929 . S
H2205 C2215 0.929 . S
H2206 C2210 0.929 . S
H2207 C2216 0.929 . S
C2208 H2202 0.930 . S
C2208 C2209 1.367 . S
C2208 C2216 1.378 . S
C2209 C2208 1.367 . S
C2209 C2217 1.433 . S
C2210 H2206 0.929 . S
C2210 C2212 1.378 . S
C2210 C2214 1.350 . S
C2211 C2214 1.463 . S
C2211 C2216 1.350 . S
C2211 N2219 1.427 . S
C2212 H2203 0.930 . S
C2212 C2210 1.378 . S
C2212 C2213 1.367 . S
C2213 C2212 1.367 . S
C2213 C2215 1.433 . S
C2214 C2210 1.350 . S
C2214 C2211 1.463 . S
C2214 N2218 1.427 . S
C2215 H2205 0.929 . S
C2215 C2213 1.433 . S
C2215 N2218 1.384 . S
C2216 H2207 0.929 . S
C2216 C2208 1.378 . S
C2216 C2211 1.350 . S
C2217 H2204 0.929 . S
C2217 C2209 1.433 . S
C2217 N2219 1.384 . S
N2218 C2214 1.427 . S
N2218 C2215 1.384 . S
N2219 C2211 1.427 . S
N2219 C2217 1.384 . S
H2220 C2226 0.930 . S
H2221 C2230 0.930 . S
H2222 C2235 0.929 . S
H2223 C2233 0.929 . S
H2224 C2228 0.929 . S
H2225 C2234 0.929 . S
C2226 H2220 0.930 . S
C2226 C2227 1.367 . S
C2226 C2234 1.378 . S
C2227 C2226 1.367 . S
C2227 C2235 1.433 . S
C2228 H2224 0.929 . S
C2228 C2230 1.378 . S
C2228 C2232 1.350 . S
C2229 C2232 1.463 . S
C2229 C2234 1.350 . S
C2229 N2237 1.427 . S
C2230 H2221 0.930 . S
C2230 C2228 1.378 . S
C2230 C2231 1.367 . S
C2231 C2230 1.367 . S
C2231 C2233 1.433 . S
C2232 C2228 1.350 . S
C2232 C2229 1.463 . S
C2232 N2236 1.427 . S
C2233 H2223 0.929 . S
C2233 C2231 1.433 . S
C2233 N2236 1.384 . S
C2234 H2225 0.929 . S
C2234 C2226 1.378 . S
C2234 C2229 1.350 . S
C2235 H2222 0.929 . S
C2235 C2227 1.433 . S
C2235 N2237 1.384 . S
N2236 C2232 1.427 . S
N2236 C2233 1.384 . S
N2237 C2229 1.427 . S
N2237 C2235 1.384 . S
H2238 C2244 0.930 . S
H2239 C2248 0.930 . S
H2240 C2253 0.929 . S
H2241 C2251 0.929 . S
H2242 C2246 0.929 . S
H2243 C2252 0.929 . S
C2244 H2238 0.930 . S
C2244 C2245 1.367 . S
C2244 C2252 1.378 . S
C2245 C2244 1.367 . S
C2245 C2253 1.433 . S
C2246 H2242 0.929 . S
C2246 C2248 1.378 . S
C2246 C2250 1.350 . S
C2247 C2250 1.463 . S
C2247 C2252 1.350 . S
C2247 N2255 1.427 . S
C2248 H2239 0.930 . S
C2248 C2246 1.378 . S
C2248 C2249 1.367 . S
C2249 C2248 1.367 . S
C2249 C2251 1.433 . S
C2250 C2246 1.350 . S
C2250 C2247 1.463 . S
C2250 N2254 1.427 . S
C2251 H2241 0.929 . S
C2251 C2249 1.433 . S
C2251 N2254 1.384 . S
C2252 H2243 0.929 . S
C2252 C2244 1.378 . S
C2252 C2247 1.350 . S
C2253 H2240 0.929 . S
C2253 C2245 1.433 . S
C2253 N2255 1.384 . S
N2254 C2250 1.427 . S
N2254 C2251 1.384 . S
N2255 C2247 1.427 . S
N2255 C2253 1.384 . S
H2256 C2262 0.930 . S
H2257 C2266 0.930 . S
H2258 C2271 0.929 . S
H2259 C2269 0.929 . S
H2260 C2264 0.929 . S
H2261 C2270 0.929 . S
C2262 H2256 0.930 . S
C2262 C2263 1.367 . S
C2262 C2270 1.378 . S
C2263 C2262 1.367 . S
C2263 C2271 1.433 . S
C2264 H2260 0.929 . S
C2264 C2266 1.378 . S
C2264 C2268 1.350 . S
C2265 C2268 1.463 . S
C2265 C2270 1.350 . S
C2265 N2273 1.427 . S
C2266 H2257 0.930 . S
C2266 C2264 1.378 . S
C2266 C2267 1.367 . S
C2267 C2266 1.367 . S
C2267 C2269 1.433 . S
C2268 C2264 1.350 . S
C2268 C2265 1.463 . S
C2268 N2272 1.427 . S
C2269 H2259 0.929 . S
C2269 C2267 1.433 . S
C2269 N2272 1.384 . S
C2270 H2261 0.929 . S
C2270 C2262 1.378 . S
C2270 C2265 1.350 . S
C2271 H2258 0.929 . S
C2271 C2263 1.433 . S
C2271 N2273 1.384 . S
N2272 C2268 1.427 . S
N2272 C2269 1.384 . S
N2273 C2265 1.427 . S
N2273 C2271 1.384 . S
H2274 C2280 0.930 . S
H2275 C2284 0.930 . S
H2276 C2289 0.929 . S
H2277 C2287 0.929 . S
H2278 C2282 0.929 . S
H2279 C2288 0.929 . S
C2280 H2274 0.930 . S
C2280 C2281 1.367 . S
C2280 C2288 1.378 . S
C2281 C2280 1.367 . S
C2281 C2289 1.433 . S
C2282 H2278 0.929 . S
C2282 C2284 1.378 . S
C2282 C2286 1.350 . S
C2283 C2286 1.463 . S
C2283 C2288 1.350 . S
C2283 N2291 1.427 . S
C2284 H2275 0.930 . S
C2284 C2282 1.378 . S
C2284 C2285 1.367 . S
C2285 C2284 1.367 . S
C2285 C2287 1.433 . S
C2286 C2282 1.350 . S
C2286 C2283 1.463 . S
C2286 N2290 1.427 . S
C2287 H2277 0.929 . S
C2287 C2285 1.433 . S
C2287 N2290 1.384 . S
C2288 H2279 0.929 . S
C2288 C2280 1.378 . S
C2288 C2283 1.350 . S
C2289 H2276 0.929 . S
C2289 C2281 1.433 . S
C2289 N2291 1.384 . S
N2290 C2286 1.427 . S
N2290 C2287 1.384 . S
N2291 C2283 1.427 . S
N2291 C2289 1.384 . S
H2292 C2298 0.930 . S
H2293 C2302 0.930 . S
H2294 C2307 0.929 . S
H2295 C2305 0.929 . S
H2296 C2300 0.929 . S
H2297 C2306 0.929 . S
C2298 H2292 0.930 . S
C2298 C2299 1.367 . S
C2298 C2306 1.378 . S
C2299 C2298 1.367 . S
C2299 C2307 1.433 . S
C2300 H2296 0.929 . S
C2300 C2302 1.378 . S
C2300 C2304 1.350 . S
C2301 C2304 1.463 . S
C2301 C2306 1.350 . S
C2301 N2309 1.427 . S
C2302 H2293 0.930 . S
C2302 C2300 1.378 . S
C2302 C2303 1.367 . S
C2303 C2302 1.367 . S
C2303 C2305 1.433 . S
C2304 C2300 1.350 . S
C2304 C2301 1.463 . S
C2304 N2308 1.427 . S
C2305 H2295 0.929 . S
C2305 C2303 1.433 . S
C2305 N2308 1.384 . S
C2306 H2297 0.929 . S
C2306 C2298 1.378 . S
C2306 C2301 1.350 . S
C2307 H2294 0.929 . S
C2307 C2299 1.433 . S
C2307 N2309 1.384 . S
N2308 C2304 1.427 . S
N2308 C2305 1.384 . S
N2309 C2301 1.427 . S
N2309 C2307 1.384 . S
H2310 C2316 0.930 . S
H2311 C2320 0.930 . S
H2312 C2325 0.929 . S
H2313 C2323 0.929 . S
H2314 C2318 0.929 . S
H2315 C2324 0.929 . S
C2316 H2310 0.930 . S
C2316 C2317 1.367 1_556 S
C2316 C2324 1.378 . S
C2317 C2316 1.367 1_554 S
C2317 C2325 1.433 . S
C2318 H2314 0.929 . S
C2318 C2320 1.378 . S
C2318 C2322 1.369 . S
C2319 C2322 1.465 . S
C2319 C2324 1.350 1_554 S
C2319 N2327 1.427 . S
C2320 H2311 0.930 . S
C2320 C2318 1.378 . S
C2320 C2321 1.367 1_554 S
C2321 C2320 1.367 1_556 S
C2321 C2323 1.433 . S
C2322 C2318 1.369 . S
C2322 C2319 1.465 . S
C2322 N2326 1.404 1_554 S
C2323 H2313 0.929 . S
C2323 C2321 1.433 . S
C2323 N2326 1.384 . S
C2324 H2315 0.929 . S
C2324 C2316 1.378 . S
C2324 C2319 1.350 1_556 S
C2325 H2312 0.929 . S
C2325 C2317 1.433 . S
C2325 N2327 1.384 . S
N2326 C2322 1.404 1_556 S
N2326 C2323 1.384 . S
N2327 C2319 1.427 . S
N2327 C2325 1.384 . S
H2328 C2334 0.930 . S
H2329 C2338 0.930 . S
H2330 C2343 0.929 . S
H2331 C2341 0.929 . S
H2332 C2336 0.929 . S
H2333 C2342 0.929 . S
C2334 H2328 0.930 . S
C2334 C2335 1.367 . S
C2334 C2342 1.378 . S
C2335 C2334 1.367 . S
C2335 C2343 1.433 . S
C2336 H2332 0.929 . S
C2336 C2338 1.378 . S
C2336 C2340 1.350 . S
C2337 C2340 1.463 . S
C2337 C2342 1.350 . S
C2337 N2345 1.427 . S
C2338 H2329 0.930 . S
C2338 C2336 1.378 . S
C2338 C2339 1.367 . S
C2339 C2338 1.367 . S
C2339 C2341 1.433 . S
C2340 C2336 1.350 . S
C2340 C2337 1.463 . S
C2340 N2344 1.427 . S
C2341 H2331 0.929 . S
C2341 C2339 1.433 . S
C2341 N2344 1.384 . S
C2342 H2333 0.929 . S
C2342 C2334 1.378 . S
C2342 C2337 1.350 . S
C2343 H2330 0.929 . S
C2343 C2335 1.433 . S
C2343 N2345 1.384 . S
N2344 C2340 1.427 . S
N2344 C2341 1.384 . S
N2345 C2337 1.427 . S
N2345 C2343 1.384 . S
H2346 C2352 0.930 . S
H2347 C2356 0.930 . S
H2348 C2361 0.929 . S
H2349 C2359 0.929 . S
H2350 C2354 0.929 . S
H2351 C2360 0.929 . S
C2352 H2346 0.930 . S
C2352 C2353 1.372 . S
C2352 C2360 1.378 . S
C2353 C2352 1.372 . S
C2353 C2361 1.429 1_554 S
C2354 H2350 0.929 . S
C2354 C2356 1.378 . S
C2354 C2358 1.350 1_556 S
C2355 C2358 1.463 . S
C2355 C2360 1.350 . S
C2355 N2363 1.427 1_554 S
C2356 H2347 0.930 . S
C2356 C2354 1.378 . S
C2356 C2357 1.367 1_556 S
C2357 C2356 1.367 1_554 S
C2357 C2359 1.433 . S
C2358 C2354 1.350 1_554 S
C2358 C2355 1.463 . S
C2358 N2362 1.427 . S
C2359 H2349 0.929 . S
C2359 C2357 1.433 . S
C2359 N2362 1.384 . S
C2360 H2351 0.929 . S
C2360 C2352 1.378 . S
C2360 C2355 1.350 . S
C2361 H2348 0.929 . S
C2361 C2353 1.429 1_556 S
C2361 N2363 1.384 . S
N2362 C2358 1.427 . S
N2362 C2359 1.384 . S
N2363 C2355 1.427 1_556 S
N2363 C2361 1.384 . S
H2364 C2370 0.930 . S
H2365 C2374 0.930 . S
H2366 C2379 0.929 . S
H2367 C2377 0.929 . S
H2368 C2372 0.929 . S
H2369 C2378 0.929 . S
C2370 H2364 0.930 . S
C2370 C2371 1.367 . S
C2370 C2378 1.378 . S
C2371 C2370 1.367 . S
C2371 C2379 1.433 . S
C2372 H2368 0.929 . S
C2372 C2374 1.378 . S
C2372 C2376 1.350 . S
C2373 C2376 1.463 . S
C2373 C2378 1.350 . S
C2373 N2381 1.427 . S
C2374 H2365 0.930 . S
C2374 C2372 1.378 . S
C2374 C2375 1.367 . S
C2375 C2374 1.367 . S
C2375 C2377 1.433 . S
C2376 C2372 1.350 . S
C2376 C2373 1.463 . S
C2376 N2380 1.427 . S
C2377 H2367 0.929 . S
C2377 C2375 1.433 . S
C2377 N2380 1.384 . S
C2378 H2369 0.929 . S
C2378 C2370 1.378 . S
C2378 C2373 1.350 . S
C2379 H2366 0.929 . S
C2379 C2371 1.433 . S
C2379 N2381 1.384 . S
N2380 C2376 1.427 . S
N2380 C2377 1.384 . S
N2381 C2373 1.427 . S
N2381 C2379 1.384 . S
H2382 C2388 0.930 . S
H2383 C2392 0.930 . S
H2384 C2397 0.929 . S
H2385 C2395 0.929 . S
H2386 C2390 0.929 . S
H2387 C2396 0.929 . S
C2388 H2382 0.930 . S
C2388 C2389 1.367 . S
C2388 C2396 1.378 . S
C2389 C2388 1.367 . S
C2389 C2397 1.433 . S
C2390 H2386 0.929 . S
C2390 C2392 1.378 . S
C2390 C2394 1.350 . S
C2391 C2394 1.463 . S
C2391 C2396 1.350 . S
C2391 N2399 1.427 . S
C2392 H2383 0.930 . S
C2392 C2390 1.378 . S
C2392 C2393 1.367 . S
C2393 C2392 1.367 . S
C2393 C2395 1.433 . S
C2394 C2390 1.350 . S
C2394 C2391 1.463 . S
C2394 N2398 1.427 . S
C2395 H2385 0.929 . S
C2395 C2393 1.433 . S
C2395 N2398 1.384 . S
C2396 H2387 0.929 . S
C2396 C2388 1.378 . S
C2396 C2391 1.350 . S
C2397 H2384 0.929 . S
C2397 C2389 1.433 . S
C2397 N2399 1.384 . S
N2398 C2394 1.427 . S
N2398 C2395 1.384 . S
N2399 C2391 1.427 . S
N2399 C2397 1.384 . S
C683 C352 1.192 . S
C679 C13 1.250 . S
C697 C25 1.138 . S
C701 C372 1.104 . S
C715 C39 1.252 . S
C719 C394 1.161 . S
C737 C413 1.408 . S
C733 C50 1.400 . S
C751 C21 1.304 . S
C755 C434 1.270 . S
C773 C457 1.259 . S
C769 C35 1.356 . S
C791 C480 1.145 . S
C787 C55 1.137 . S
C805 C8 1.351 . S
C809 C498 1.342 . S
C823 C69 1.204 . S
C827 C354 1.228 . S
C841 C77 1.348 . S
C845 C374 1.311 . S
C863 C396 1.182 . S
C859 C97 1.161 1_545 S
C881 C415 1.256 . S
C877 C105 1.383 . S
C895 C63 1.419 . S
C899 C436 1.296 . S
C917 C459 1.132 . S
C913 C83 1.121 . S
C935 C476 1.286 . S
C931 C91 1.330 . S
C953 C500 1.255 . S
C949 C111 1.244 . S
C971 C350 1.311 . S
C967 C106 1.309 . S
C989 C522 1.122 . S
C985 C123 1.151 . S
C1003 C134 1.322 . S
C1007 C539 1.331 . S
C1025 C562 1.219 . S
C1021 C151 1.311 . S
C1039 C64 1.347 . S
C1043 C496 1.264 . S
C1061 C392 1.351 . S
C1057 C78 1.342 . S
C1075 C137 1.114 . S
C1079 C585 1.078 . S
C1097 C601 1.159 . S
C1093 C165 1.257 . S
C1111 C175 1.242 . S
C1115 C349 1.126 . S
C1133 C602 1.103 . S
C1129 C193 1.114 . S
C1147 C209 1.215 . S
C1151 C391 1.148 . S
C1165 C223 1.043 . S
C1169 C582 1.084 . S
C1187 C435 1.091 . S
C1183 C195 1.051 . S
C1205 C538 1.090 . S
C1201 C207 1.182 . S
C1223 C479 1.123 . S
C1219 C221 1.134 . S
C1241 C623 1.327 . S
C1237 C176 1.306 . S
C1259 C353 1.240 . S
C1255 C231 1.261 . S
C1273 C251 1.105 . S
C1277 C606 1.114 . S
C1295 C395 1.204 1_545 S
C1291 C259 1.223 . S
C1309 C279 1.217 . S
C1313 C580 1.203 . S
C1327 C237 1.271 . S
C1331 C433 1.213 . S
C1345 C245 1.241 . S
C1349 C542 1.222 . S
C1367 C477 1.122 . S
C1363 C265 1.096 . S
C1381 C273 1.176 . S
C1385 C627 1.144 . S
C1399 C274 1.202 . S
C1403 C351 1.206 . S
C1417 C291 1.132 . S
C1421 C521 1.110 . S
C1435 C302 1.147 . S
C1439 C456 1.155 . S
C1453 C319 1.156 . S
C1457 C559 1.079 . S
C1475 C625 1.183 . S
C1471 C232 1.258 . S
C1493 C393 1.194 . S
C1489 C246 1.189 . S
C1511 C416 1.122 . S
C1507 C305 1.132 . S
C1529 C373 1.141 . S
C1525 C333 1.197 . S
C1543 C36 1.354 . S
C1547 C646 1.277 . S
C1565 C603 1.093 . S
C1561 C53 1.115 . S
C1583 C667 1.214 . S
C1579 C7 1.324 . S
C1597 C22 1.362 . S
C1601 C581 1.368 . S
C1615 C49 1.342 . S
C1619 C518 1.318 . S
C1637 C541 1.181 . S
C1633 C11 1.279 . S
C1655 C564 1.148 . S
C1651 C27 1.137 1_455 S
C1673 C624 1.261 . S
C1669 C41 1.233 . S
C1691 C648 1.233 . S
C1687 C167 1.219 . S
C1705 C119 1.357 . S
C1709 C605 1.320 . S
C1723 C139 1.170 . S
C1727 C669 1.190 . S
C1745 C583 1.272 . S
C1741 C147 1.391 . S
C1763 C520 1.290 . S
C1759 C161 1.410 . S
C1777 C125 1.128 . S
C1781 C543 1.139 . S
C1799 C560 1.280 . S
C1795 C133 1.322 . S
C1813 C153 1.232 . S
C1817 C626 1.236 . S
C1835 C644 1.342 . S
C1831 C148 1.331 . S
C1853 C438 1.093 . S
C1849 C81 1.127 . S
C1871 C455 1.357 . S
C1867 C92 1.352 . S
C1885 C109 1.292 . S
C1889 C478 1.194 . S
C1907 C622 1.258 . S
C1903 C162 1.324 . S
C1921 C120 1.367 . S
C1925 C665 1.371 . S
C1943 C417 1.108 . S
C1939 C95 1.141 . S
C1961 C370 1.188 . S
C1957 C67 1.280 . S
C1975 C203 1.254 . S
C1979 C643 1.137 . S
C1997 C371 1.228 . S
C1993 C217 1.246 . S
C2015 C664 1.152 . S
C2011 C181 1.208 1_455 S
C2029 C190 1.207 . S
C2033 C414 1.217 . S
C2047 C218 1.222 . S
C2051 C519 1.230 . S
C2065 C179 1.190 . S
C2069 C454 1.085 . S
C2083 C189 1.271 . S
C2087 C563 1.253 . S
C2101 C204 1.317 . S
C2105 C497 1.335 . S
C2123 C647 1.269 . S
C2119 C329 1.290 . S
C2137 C293 1.059 . S
C2141 C375 1.067 . S
C2159 C668 1.230 . S
C2155 C301 1.246 . S
C2173 C321 1.181 . S
C2177 C412 1.144 . S
C2191 C335 1.219 . S
C2195 C517 1.164 . S
C2213 C458 1.241 . S
C2209 C287 1.265 . S
C2227 C307 1.053 . S
C2231 C561 1.062 . S
C2249 C501 1.167 . S
C2245 C315 1.201 . S
C2267 C645 1.185 . S
C2263 C316 1.177 . S
C2285 C437 1.202 . S
C2281 C249 1.197 . S
C2299 C260 1.186 . S
C2303 C540 1.190 . S
C2321 C475 1.172 . S
C2317 C277 1.228 . S
C2339 C499 1.156 . S
C2335 C330 1.227 . S
C2353 C288 1.158 . S
C2357 C666 1.166 . S
C2375 C584 1.200 . S
C2371 C263 1.216 . S
C2393 C604 1.205 . S
C2389 C235 1.290 . S
