# Generated by pormake.
# Topology nia, (6,6)-cn, num edge types: 1
# Building blocks:
#     Node 0, Type 0, BuildingBlock: BETFEN_clean_sbu_0, # of connection points: 6
#     Node 1, Type 0, BuildingBlock: BETFEN_clean_sbu_0, # of connection points: 6
#     Node 2, Type 1, BuildingBlock: MIDCAF_clean_sbu_0, # of connection points: 6
#     Node 3, Type 1, BuildingBlock: MIDCAF_clean_sbu_0, # of connection points: 6
#     Edge 4, Type (0, 1), BuildingBlock: TEMPAE_clean_linker_10, # of connection points: 2
#     Edge 5, Type (0, 1), BuildingBlock: TEMPAE_clean_linker_10, # of connection points: 2
#     Edge 6, Type (0, 1), BuildingBlock: TEMPAE_clean_linker_10, # of connection points: 2
#     Edge 7, Type (0, 1), BuildingBlock: TEMPAE_clean_linker_10, # of connection points: 2
#     Edge 8, Type (0, 1), BuildingBlock: TEMPAE_clean_linker_10, # of connection points: 2
#     Edge 9, Type (0, 1), BuildingBlock: TEMPAE_clean_linker_10, # of connection points: 2
#     Edge 10, Type (0, 1), BuildingBlock: TEMPAE_clean_linker_10, # of connection points: 2
#     Edge 11, Type (0, 1), BuildingBlock: TEMPAE_clean_linker_10, # of connection points: 2
#     Edge 12, Type (0, 1), BuildingBlock: TEMPAE_clean_linker_10, # of connection points: 2
#     Edge 13, Type (0, 1), BuildingBlock: TEMPAE_clean_linker_10, # of connection points: 2
#     Edge 14, Type (0, 1), BuildingBlock: TEMPAE_clean_linker_10, # of connection points: 2
#     Edge 15, Type (0, 1), BuildingBlock: TEMPAE_clean_linker_10, # of connection points: 2
# Relax obj value: 0.219
# Max RMSD: 0.278
# Mean RMSD: 0.217
data_MOF--net-nia--node1-BETFEN_clean_sbu_0--node2-MIDCAF_clean_sbu_0--edge1-TEMPAE_clean_linker_10
_symmetry_space_group_name_H-M    P1
_symmetry_Int_Tables_number       1
_symmetry_cell_setting            triclinic
loop_
_symmetry_equiv_pos_as_xyz
'x, y, z'
_cell_length_a     28.847359
_cell_length_b     28.911803
_cell_length_c     34.219289
_cell_angle_alpha  89.77715
_cell_angle_beta   90.417379
_cell_angle_gamma 136.81196
loop_
_atom_site_label
_atom_site_type_symbol
_atom_site_fract_x
_atom_site_fract_y
_atom_site_fract_z
_atom_type_partial_charge
Pr0 Pr 0.96785 0.01808 0.98842 0.0
Pr1 Pr 0.04997 0.00221 0.02731 0.0
C2 C 0.88357 0.02725 0.96977 0.0
C3 C 0.87495 0.06698 0.95215 0.0
C4 C 0.92935 0.13131 0.93613 0.0
C5 C 0.91788 0.16577 0.91778 0.0
C6 C 0.8518 0.13577 0.91487 0.0
C7 C 0.79799 0.07187 0.93158 0.0
C8 C 0.80953 0.03794 0.95008 0.0
C9 C 0.08531 0.08071 0.94699 0.0
C10 C 0.0821 0.12825 0.05529 0.0
C11 C 0.12471 0.98263 0.04917 0.0
C12 C 0.12127 0.93697 0.07242 0.0
C13 C 0.12345 0.93932 0.11351 0.0
C14 C 0.12806 0.90142 0.13481 0.0
C15 C 0.13069 0.86053 0.1155 0.0
C16 C 0.1257 0.85617 0.07451 0.0
C17 C 0.12123 0.89412 0.05323 0.0
C18 C 0.93422 0.94248 0.06911 0.0
C19 C 0.94322 0.89835 0.9566 0.0
O20 O 0.91504 0.04702 1.00338 0.0
O21 O 0.89674 0.00261 0.94627 0.0
O22 O 0.08198 0.08142 0.98363 0.0
O23 O 0.02967 0.05422 0.93057 0.0
O24 O 0.11315 0.11211 0.04612 0.0
O25 O 0.02132 0.0934 0.04121 0.0
O26 O 0.08995 0.95901 0.01658 0.0
O27 O 0.12531 0.02234 0.06791 0.0
O28 O 0.93592 0.93894 0.03246 0.0
O29 O 0.99115 0.9722 0.08515 0.0
O30 O 0.90998 0.91197 0.96548 0.0
O31 O 0.00279 0.93239 0.97215 0.0
H32 H 0.98022 0.1543 0.93742 0.0
H33 H 0.9602 0.215 0.90511 0.0
H34 H 0.7468 0.04809 0.93036 0.0
H35 H 0.76703 0.98839 0.9624 0.0
H36 H 0.12355 0.97183 0.12924 0.0
H37 H 0.13129 0.90543 0.16639 0.0
H38 H 0.12871 0.82606 0.05868 0.0
H39 H 0.12016 0.89172 0.0216 0.0
Pr40 Pr 0.98472 0.04362 0.52249 0.0
Pr41 Pr 0.03975 0.98284 0.49438 0.0
C42 C 0.96317 0.11937 0.52991 0.0
C43 C 0.92744 0.12793 0.55328 0.0
C44 C 0.89549 0.09285 0.58843 0.0
C45 C 0.86349 0.10373 0.61061 0.0
C46 C 0.86279 0.14954 0.59776 0.0
C47 C 0.89467 0.18408 0.56236 0.0
C48 C 0.92668 0.17335 0.54037 0.0
C49 C 0.9131 0.91869 0.55936 0.0
C50 C 0.92237 0.94633 0.44335 0.0
C51 C 0.08451 0.92811 0.48814 0.0
C52 C 0.11355 0.91524 0.46148 0.0
C53 C 0.12672 0.93548 0.42222 0.0
C54 C 0.15713 0.92462 0.39807 0.0
C55 C 0.17507 0.89392 0.4131 0.0
C56 C 0.16099 0.87339 0.45241 0.0
C57 C 0.13061 0.88406 0.47633 0.0
C58 C 0.09115 0.09683 0.45385 0.0
C59 C 0.09454 0.07034 0.57775 0.0
O60 O 0.92611 0.0659 0.50735 0.0
O61 O 0.01352 0.13425 0.547 0.0
O62 O 0.95905 0.95021 0.5345 0.0
O63 O 0.89978 0.95233 0.56602 0.0
O64 O 0.94132 0.91931 0.45704 0.0
O65 O 0.94341 0.00106 0.4588 0.0
O66 O 0.12364 0.9913 0.49796 0.0
O67 O 0.02076 0.89313 0.48286 0.0
O68 O 0.0791 0.08644 0.49001 0.0
O69 O 0.08337 0.05065 0.43813 0.0
O70 O 0.07354 0.09632 0.56647 0.0
O71 O 0.07957 0.02112 0.55867 0.0
H72 H 0.89568 0.05751 0.59874 0.0
H73 H 0.83904 0.07616 0.63765 0.0
H74 H 0.89607 0.22054 0.552 0.0
H75 H 0.95152 0.2011 0.51339 0.0
H76 H 0.11399 0.95997 0.41044 0.0
H77 H 0.16741 0.94097 0.36791 0.0
H78 H 0.17275 0.84826 0.46465 0.0
H79 H 0.12066 0.86814 0.5066 0.0
Zn80 Zn 0.38525 0.66553 0.16176 0.0
Zn81 Zn 0.38616 0.66858 0.33511 0.0
Zn82 Zn 0.37767 0.65206 0.26147 0.0
C83 C 0.51769 0.75225 0.30732 0.0
C84 C 0.31225 0.53449 0.32777 0.0
O85 O 0.33408 0.68586 0.23401 0.0
O86 O 0.34995 0.70195 0.16923 0.0
C87 C 0.51122 0.73557 0.2002 0.0
O88 O 0.485 0.71996 0.27552 0.0
O89 O 0.4864 0.74336 0.33712 0.0
O90 O 0.34272 0.57938 0.35391 0.0
O91 O 0.31583 0.55028 0.29165 0.0
O92 O 0.48263 0.72696 0.1686 0.0
O93 O 0.47939 0.7107 0.2333 0.0
O94 O 0.31022 0.5453 0.25203 0.0
O95 O 0.33702 0.5873 0.19425 0.0
C96 C 0.3057 0.53649 0.21526 0.0
O97 O 0.34147 0.69615 0.27568 0.0
O98 O 0.33619 0.69097 0.3402 0.0
C99 C 0.32827 0.70323 0.20078 0.0
C100 C 0.32653 0.70487 0.30825 0.0
Zn101 Zn 0.6566 0.39129 0.82734 0.0
Zn102 Zn 0.62439 0.34463 0.68232 0.0
Zn103 Zn 0.64077 0.37185 0.75582 0.0
C104 C 0.69684 0.4807 0.68637 0.0
C105 C 0.49558 0.26205 0.71343 0.0
O106 O 0.6866 0.34013 0.78154 0.0
O107 O 0.67069 0.33767 0.84483 0.0
C108 C 0.74409 0.51675 0.79429 0.0
O109 O 0.6957 0.46926 0.72314 0.0
O110 O 0.66712 0.43305 0.66215 0.0
O111 O 0.52408 0.26892 0.68271 0.0
O112 O 0.5313 0.29824 0.74382 0.0
O113 O 0.73775 0.48954 0.82558 0.0
O114 O 0.70774 0.48021 0.76416 0.0
O115 O 0.53998 0.31404 0.78366 0.0
O116 O 0.57112 0.35961 0.84256 0.0
C117 C 0.52515 0.32057 0.81729 0.0
O118 O 0.68051 0.33041 0.74106 0.0
O119 O 0.67378 0.32189 0.67653 0.0
C120 C 0.68994 0.32675 0.81691 0.0
C121 C 0.6906 0.31607 0.70871 0.0
C122 C 0.19729 0.86549 0.16583 0.0
C123 C 0.14599 0.82837 0.13736 0.0
C124 C 0.22096 0.84123 0.18214 0.0
C125 C 0.19236 0.77782 0.16989 0.0
C126 C 0.13756 0.73817 0.14289 0.0
C127 C 0.11495 0.7639 0.12703 0.0
C128 C 0.28051 0.88714 0.2099 0.0
C129 C 0.10607 0.67079 0.12859 0.0
C130 C 0.32004 0.77338 0.16827 0.0
C131 C 0.2966 0.72636 0.19747 0.0
C132 C 0.28549 0.78891 0.15873 0.0
C133 C 0.22698 0.7587 0.17992 0.0
C134 C 0.20337 0.7118 0.21007 0.0
C135 C 0.23836 0.69582 0.21831 0.0
C136 C 0.31071 0.83616 0.12493 0.0
C137 C 0.13981 0.67547 0.23272 0.0
H138 H 0.22229 0.91575 0.17368 0.0
H139 H 0.0746 0.73462 0.10539 0.0
H140 H 0.29027 0.86114 0.22522 0.0
H141 H 0.3266 0.93048 0.19342 0.0
H142 H 0.27202 0.90849 0.23189 0.0
H143 H 0.06408 0.6464 0.10743 0.0
H144 H 0.14514 0.67759 0.11428 0.0
H145 H 0.08599 0.63615 0.15366 0.0
H146 H 0.36475 0.7967 0.15176 0.0
H147 H 0.21855 0.65757 0.23992 0.0
H148 H 0.3325 0.88475 0.1361 0.0
H149 H 0.26825 0.81422 0.10486 0.0
H150 H 0.35037 0.84695 0.10789 0.0
H151 H 0.1191 0.6955 0.22738 0.0
H152 H 0.14982 0.67832 0.26446 0.0
H153 H 0.10052 0.62113 0.2246 0.0
C154 C 0.20968 0.1626 0.60487 0.0
C155 C 0.14218 0.10094 0.61054 0.0
C156 C 0.25994 0.18523 0.63151 0.0
C157 C 0.24153 0.14586 0.66503 0.0
C158 C 0.17232 0.08681 0.67269 0.0
C159 C 0.12334 0.064 0.64472 0.0
C160 C 0.33326 0.24794 0.62184 0.0
C161 C 0.1504 0.04533 0.70895 0.0
C162 C 0.38131 0.16303 0.68644 0.0
C163 C 0.42255 0.2191 0.71146 0.0
C164 C 0.31798 0.13353 0.67425 0.0
C165 C 0.29559 0.16098 0.68756 0.0
C166 C 0.33354 0.21232 0.71647 0.0
C167 C 0.39714 0.24131 0.72788 0.0
C168 C 0.27904 0.07841 0.64361 0.0
C169 C 0.31081 0.24175 0.73237 0.0
H170 H 0.22382 0.19047 0.57807 0.0
H171 H 0.07077 0.01611 0.64885 0.0
H172 H 0.35956 0.28314 0.64708 0.0
H173 H 0.35933 0.23376 0.61556 0.0
H174 H 0.33874 0.27505 0.59606 0.0
H175 H 0.09629 0.0127 0.7156 0.0
H176 H 0.15674 0.01222 0.7045 0.0
H177 H 0.18186 0.07831 0.73453 0.0
H178 H 0.40085 0.14552 0.67402 0.0
H179 H 0.42925 0.28524 0.74684 0.0
H180 H 0.28224 0.0991 0.61512 0.0
H181 H 0.22474 0.03646 0.65136 0.0
H182 H 0.29919 0.0575 0.63983 0.0
H183 H 0.32818 0.28247 0.71266 0.0
H184 H 0.33305 0.26428 0.76178 0.0
H185 H 0.25479 0.20294 0.73415 0.0
C186 C 0.1798 0.22463 0.09705 0.0
C187 C 0.11378 0.18392 0.08296 0.0
C188 C 0.2099 0.27783 0.12313 0.0
C189 C 0.17285 0.2901 0.13532 0.0
C190 C 0.10559 0.24795 0.12211 0.0
C191 C 0.07692 0.19544 0.09603 0.0
C192 C 0.28229 0.32285 0.13619 0.0
C193 C 0.06497 0.26025 0.13409 0.0
C194 C 0.23866 0.41393 0.21765 0.0
C195 C 0.26977 0.47189 0.19628 0.0
C196 C 0.20686 0.35382 0.1983 0.0
C197 C 0.20735 0.35267 0.15692 0.0
C198 C 0.23915 0.41129 0.13539 0.0
C199 C 0.26945 0.46986 0.15528 0.0
C200 C 0.17287 0.29173 0.22196 0.0
C201 C 0.24096 0.41222 0.09121 0.0
H202 H 0.20844 0.21578 0.08721 0.0
H203 H 0.02564 0.16386 0.08558 0.0
H204 H 0.31522 0.37388 0.12328 0.0
H205 H 0.2866 0.32903 0.16842 0.0
H206 H 0.30181 0.30266 0.12729 0.0
H207 H 0.01121 0.21886 0.12449 0.0
H208 H 0.06656 0.2656 0.1663 0.0
H209 H 0.08747 0.30823 0.12103 0.0
H210 H 0.23957 0.41567 0.24923 0.0
H211 H 0.29351 0.51451 0.13839 0.0
H212 H 0.19765 0.27602 0.21633 0.0
H213 H 0.11904 0.24924 0.21289 0.0
H214 H 0.17505 0.30045 0.25381 0.0
H215 H 0.26465 0.39701 0.0808 0.0
H216 H 0.26965 0.46282 0.07902 0.0
H217 H 0.18863 0.37527 0.07926 0.0
C218 C 0.84282 0.17483 0.66171 0.0
C219 C 0.83083 0.16329 0.62136 0.0
C220 C 0.81899 0.19522 0.68345 0.0
C221 C 0.78264 0.20461 0.66431 0.0
C222 C 0.76735 0.18946 0.62395 0.0
C223 C 0.79169 0.16912 0.603 0.0
C224 C 0.83637 0.21028 0.72632 0.0
C225 C 0.72751 0.19733 0.60244 0.0
C226 C 0.67913 0.22246 0.71405 0.0
C227 C 0.72026 0.29111 0.70789 0.0
C228 C 0.70074 0.19391 0.70264 0.0
C229 C 0.76499 0.23539 0.685 0.0
C230 C 0.80882 0.30592 0.68209 0.0
C231 C 0.78546 0.33279 0.69303 0.0
C232 C 0.65276 0.11867 0.70648 0.0
C233 C 0.87884 0.3524 0.66513 0.0
H234 H 0.87338 0.17078 0.67606 0.0
H235 H 0.78113 0.15896 0.57195 0.0
H236 H 0.88334 0.26507 0.73 0.0
H237 H 0.79558 0.19752 0.74312 0.0
H238 H 0.84564 0.18207 0.73886 0.0
H239 H 0.71507 0.17809 0.57196 0.0
H240 H 0.67964 0.16996 0.61801 0.0
H241 H 0.75732 0.25154 0.60156 0.0
H242 H 0.6283 0.19028 0.72515 0.0
H243 H 0.81694 0.38589 0.68819 0.0
H244 H 0.67945 0.10748 0.71875 0.0
H245 H 0.63339 0.09492 0.6771 0.0
H246 H 0.60891 0.09506 0.72538 0.0
H247 H 0.90587 0.34233 0.67864 0.0
H248 H 0.90955 0.4065 0.66963 0.0
H249 H 0.87484 0.34283 0.63329 0.0
C250 C 0.81354 0.88154 0.0736 0.0
C251 C 0.87453 0.9135 0.09195 0.0
C252 C 0.75734 0.85463 0.09575 0.0
C253 C 0.76254 0.86006 0.13712 0.0
C254 C 0.82432 0.89287 0.15563 0.0
C255 C 0.8794 0.91901 0.13283 0.0
C256 C 0.6924 0.82038 0.07489 0.0
C257 C 0.83209 0.89939 0.19954 0.0
C258 C 0.63139 0.83995 0.18692 0.0
C259 C 0.58159 0.7712 0.19635 0.0
C260 C 0.69235 0.87059 0.16949 0.0
C261 C 0.7031 0.83109 0.16087 0.0
C262 C 0.65453 0.7625 0.17258 0.0
C263 C 0.59407 0.73325 0.19002 0.0
C264 C 0.74303 0.94399 0.15784 0.0
C265 C 0.66441 0.71887 0.16441 0.0
H266 H 0.80976 0.87764 0.042 0.0
H267 H 0.92654 0.94384 0.14718 0.0
H268 H 0.65068 0.76708 0.08462 0.0
H269 H 0.67792 0.8458 0.08244 0.0
H270 H 0.69682 0.82103 0.04262 0.0
H271 H 0.88582 0.93494 0.20895 0.0
H272 H 0.81146 0.91691 0.21176 0.0
H273 H 0.80294 0.84911 0.21232 0.0
H274 H 0.62065 0.86861 0.19078 0.0
H275 H 0.55453 0.67954 0.19627 0.0
H276 H 0.74489 0.94791 0.1255 0.0
H277 H 0.79448 0.97178 0.16825 0.0
H278 H 0.72999 0.96905 0.16975 0.0
H279 H 0.66232 0.71133 0.13241 0.0
H280 H 0.62511 0.66855 0.17856 0.0
H281 H 0.715 0.74421 0.17489 0.0
C282 C 0.916 0.83745 0.57979 0.0
C283 C 0.88387 0.85733 0.5805 0.0
C284 C 0.88897 0.77959 0.60005 0.0
C285 C 0.8274 0.73963 0.62075 0.0
C286 C 0.79535 0.76018 0.62188 0.0
C287 C 0.82431 0.81908 0.60207 0.0
C288 C 0.92578 0.76066 0.59883 0.0
C289 C 0.72956 0.71909 0.64329 0.0
C290 C 0.71849 0.55254 0.63193 0.0
C291 C 0.7306 0.54793 0.6709 0.0
C292 C 0.74939 0.61421 0.61556 0.0
C293 C 0.7939 0.67377 0.63854 0.0
C294 C 0.80623 0.66988 0.67801 0.0
C295 C 0.77478 0.60712 0.69353 0.0
C296 C 0.73423 0.61538 0.57345 0.0
C297 C 0.85364 0.7321 0.70363 0.0
H298 H 0.96262 0.86742 0.56357 0.0
H299 H 0.79953 0.83449 0.60283 0.0
H300 H 0.9348 0.75421 0.62897 0.0
H301 H 0.89408 0.71158 0.58352 0.0
H302 H 0.97521 0.79926 0.58364 0.0
H303 H 0.7124 0.7432 0.64266 0.0
H304 H 0.68957 0.66816 0.62983 0.0
H305 H 0.73524 0.71204 0.67419 0.0
H306 H 0.68444 0.50752 0.61386 0.0
H307 H 0.78578 0.60476 0.72305 0.0
H308 H 0.78164 0.64929 0.55624 0.0
H309 H 0.71329 0.6357 0.57152 0.0
H310 H 0.69747 0.56441 0.55977 0.0
H311 H 0.90662 0.76481 0.69422 0.0
H312 H 0.84951 0.71923 0.73491 0.0
H313 H 0.84326 0.76213 0.70076 0.0
C314 C 0.25883 0.89129 0.40311 0.0
C315 C 0.20642 0.88085 0.38812 0.0
C316 C 0.28123 0.86843 0.38295 0.0
C317 C 0.25096 0.83491 0.34663 0.0
C318 C 0.20204 0.82943 0.32983 0.0
C319 C 0.18011 0.85222 0.35088 0.0
C320 C 0.3337 0.87574 0.40201 0.0
C321 C 0.16883 0.79525 0.29104 0.0
C322 C 0.33789 0.79773 0.29568 0.0
C323 C 0.29975 0.73275 0.30977 0.0
C324 C 0.32084 0.83102 0.30563 0.0
C325 C 0.26378 0.79774 0.32959 0.0
C326 C 0.22251 0.73013 0.34128 0.0
C327 C 0.24147 0.69877 0.33156 0.0
C328 C 0.36742 0.90351 0.29321 0.0
C329 C 0.16092 0.69246 0.36646 0.0
H330 H 0.28052 0.91499 0.4315 0.0
H331 H 0.13961 0.84404 0.33904 0.0
H332 H 0.31039 0.825 0.40957 0.0
H333 H 0.3757 0.89941 0.38151 0.0
H334 H 0.35521 0.90677 0.42909 0.0
H335 H 0.15689 0.81914 0.27511 0.0
H336 H 0.20123 0.79696 0.27245 0.0
H337 H 0.1204 0.74154 0.29607 0.0
H338 H 0.38357 0.82423 0.27922 0.0
H339 H 0.21227 0.64849 0.34245 0.0
H340 H 0.4084 0.93717 0.31528 0.0
H341 H 0.34044 0.91744 0.29071 0.0
H342 H 0.39173 0.91316 0.26485 0.0
H343 H 0.17662 0.71832 0.39513 0.0
H344 H 0.13271 0.63926 0.37165 0.0
H345 H 0.12613 0.69242 0.35242 0.0
C346 C 0.20075 0.12874 0.94367 0.0
C347 C 0.14672 0.11224 0.92509 0.0
C348 C 0.25888 0.15829 0.92267 0.0
C349 C 0.26362 0.17296 0.88238 0.0
C350 C 0.20871 0.15563 0.86355 0.0
C351 C 0.15075 0.1249 0.88504 0.0
C352 C 0.31558 0.17448 0.94367 0.0
C353 C 0.21191 0.17149 0.82102 0.0
C354 C 0.4447 0.31725 0.84719 0.0
C355 C 0.45531 0.28305 0.82777 0.0
C356 C 0.38153 0.2822 0.86325 0.0
C357 C 0.32794 0.21076 0.86088 0.0
C358 C 0.33764 0.17601 0.83999 0.0
C359 C 0.40124 0.21278 0.82331 0.0
C360 C 0.37308 0.32167 0.88405 0.0
C361 C 0.28226 0.09989 0.83718 0.0
H362 H 0.19739 0.11815 0.97455 0.0
H363 H 0.10896 0.11201 0.87055 0.0
H364 H 0.32945 0.15278 0.92748 0.0
H365 H 0.36124 0.23002 0.94482 0.0
H366 H 0.30175 0.15466 0.97402 0.0
H367 H 0.16315 0.15037 0.81004 0.0
H368 H 0.25197 0.2271 0.81699 0.0
H369 H 0.22554 0.15109 0.80297 0.0
H370 H 0.48659 0.37168 0.85056 0.0
H371 H 0.40973 0.18632 0.80863 0.0
H372 H 0.36684 0.31095 0.91584 0.0
H373 H 0.32683 0.30599 0.87338 0.0
H374 H 0.41727 0.37706 0.87983 0.0
H375 H 0.27254 0.07815 0.86664 0.0
H376 H 0.29577 0.08101 0.8172 0.0
H377 H 0.23432 0.08094 0.82677 0.0
C378 C 0.11519 0.19958 0.44918 0.0
C379 C 0.11641 0.15633 0.43239 0.0
C380 C 0.14114 0.25712 0.42903 0.0
C381 C 0.17043 0.2726 0.39159 0.0
C382 C 0.17018 0.22799 0.37427 0.0
C383 C 0.14259 0.17018 0.39469 0.0
C384 C 0.13878 0.3023 0.44823 0.0
C385 C 0.20149 0.24259 0.33479 0.0
C386 C 0.20947 0.40779 0.32895 0.0
C387 C 0.27678 0.46576 0.33978 0.0
C388 C 0.17401 0.34414 0.3452 0.0
C389 C 0.20713 0.33854 0.37242 0.0
C390 C 0.27586 0.39685 0.38222 0.0
C391 C 0.30937 0.45955 0.36616 0.0
C392 C 0.10047 0.28353 0.33449 0.0
C393 C 0.31397 0.39344 0.41028 0.0
H394 H 0.09428 0.18866 0.47813 0.0
H395 H 0.14334 0.1367 0.38148 0.0
H396 H 0.19086 0.35128 0.45616 0.0
H397 H 0.11791 0.31327 0.42761 0.0
H398 H 0.10751 0.27934 0.47511 0.0
H399 H 0.19452 0.20136 0.32466 0.0
H400 H 0.1789 0.24985 0.31276 0.0
H401 H 0.25654 0.29021 0.33625 0.0
H402 H 0.18381 0.41269 0.30909 0.0
H403 H 0.36141 0.50437 0.37463 0.0
H404 H 0.06859 0.26595 0.36065 0.0
H405 H 0.09168 0.24109 0.32473 0.0
H406 H 0.08339 0.29511 0.31098 0.0
H407 H 0.29082 0.37848 0.43968 0.0
H408 H 0.36829 0.44257 0.41293 0.0
H409 H 0.31057 0.3545 0.40047 0.0
C410 C 0.78431 0.13389 0.86738 0.0
C411 C 0.83779 0.16995 0.89445 0.0
C412 C 0.76536 0.16256 0.85068 0.0
C413 C 0.79979 0.22842 0.862 0.0
C414 C 0.85604 0.26637 0.88786 0.0
C415 C 0.87466 0.23674 0.90364 0.0
C416 C 0.70656 0.12114 0.82222 0.0
C417 C 0.89471 0.33715 0.90008 0.0
C418 C 0.76853 0.31716 0.8045 0.0
C419 C 0.71625 0.29916 0.82613 0.0
C420 C 0.79697 0.29515 0.81581 0.0
C421 C 0.77264 0.25455 0.84964 0.0
C422 C 0.72045 0.23714 0.87175 0.0
C423 C 0.69277 0.2593 0.85963 0.0
C424 C 0.85505 0.31852 0.79238 0.0
C425 C 0.69468 0.19619 0.90879 0.0
H426 H 0.75645 0.08259 0.85972 0.0
H427 H 0.9161 0.2647 0.92451 0.0
H428 H 0.6612 0.10212 0.83707 0.0
H429 H 0.71784 0.15254 0.79719 0.0
H430 H 0.69393 0.07703 0.81085 0.0
H431 H 0.93793 0.36032 0.91986 0.0
H432 H 0.91444 0.36963 0.87389 0.0
H433 H 0.8603 0.33642 0.91525 0.0
H434 H 0.7891 0.35059 0.77967 0.0
H435 H 0.65292 0.24593 0.87678 0.0
H436 H 0.86309 0.2868 0.79696 0.0
H437 H 0.90215 0.37113 0.80101 0.0
H438 H 0.84677 0.31916 0.7608 0.0
H439 H 0.67163 0.14538 0.90203 0.0
H440 H 0.65627 0.18992 0.92367 0.0
H441 H 0.73748 0.22112 0.92935 0.0
C442 C 0.89004 0.95394 0.37829 0.0
C443 C 0.87462 0.91458 0.4104 0.0
C444 C 0.83991 0.92944 0.35083 0.0
C445 C 0.77248 0.86568 0.35694 0.0
C446 C 0.75806 0.82371 0.38768 0.0
C447 C 0.80985 0.84845 0.41382 0.0
C448 C 0.85801 0.97396 0.31718 0.0
C449 C 0.68662 0.75563 0.39546 0.0
C450 C 0.62789 0.8436 0.34088 0.0
C451 C 0.59012 0.79347 0.31193 0.0
C452 C 0.68988 0.87087 0.354 0.0
C453 C 0.71554 0.84856 0.33701 0.0
C454 C 0.68104 0.80316 0.30496 0.0
C455 C 0.61786 0.77508 0.29325 0.0
C456 C 0.72455 0.91882 0.3885 0.0
C457 C 0.7078 0.78002 0.28501 0.0
H458 H 0.94065 0.005 0.37559 0.0
H459 H 0.79824 0.81835 0.43884 0.0
H460 H 0.83012 0.94348 0.29029 0.0
H461 H 0.84347 -0.00057 0.32423 0.0
H462 H 0.91326 0.0135 0.31124 0.0
H463 H 0.68477 0.72685 0.41824 0.0
H464 H 0.65564 0.76284 0.40536 0.0
H465 H 0.66291 0.72494 0.36835 0.0
H466 H 0.60662 0.85813 0.35524 0.0
H467 H 0.58804 0.73496 0.27173 0.0
H468 H 0.77824 0.96543 0.3817 0.0
H469 H 0.72406 0.89458 0.41398 0.0
H470 H 0.69954 0.93344 0.39709 0.0
H471 H 0.76397 0.82083 0.28435 0.0
H472 H 0.68809 0.76303 0.25465 0.0
H473 H 0.69106 0.73662 0.3012 0.0
C474 C 0.90586 0.85969 0.88816 0.0
C475 C 0.91739 0.84972 0.92553 0.0
C476 C 0.88461 0.81565 0.85739 0.0
C477 C 0.87178 0.75904 0.86496 0.0
C478 C 0.88399 0.74934 0.9028 0.0
C479 C 0.90819 0.79589 0.93248 0.0
C480 C 0.87596 0.82959 0.81695 0.0
C481 C 0.86964 0.68877 0.91225 0.0
C482 C 0.73769 0.59285 0.81313 0.0
C483 C 0.7768 0.58547 0.79793 0.0
C484 C 0.76837 0.6522 0.83245 0.0
C485 C 0.83993 0.70617 0.83482 0.0
C486 C 0.87949 0.70215 0.81445 0.0
C487 C 0.84734 0.64056 0.79725 0.0
C488 C 0.72408 0.65299 0.85494 0.0
C489 C 0.95575 0.76039 0.81403 0.0
H490 H 0.91501 0.90282 0.88285 0.0
H491 H 0.91822 0.78928 0.96143 0.0
H492 H 0.90283 0.82746 0.79528 0.0
H493 H 0.82164 0.79025 0.80856 0.0
H494 H 0.8955 0.87976 0.81504 0.0
H495 H 0.87899 0.68725 0.94354 0.0
H496 H 0.81613 0.64146 0.90507 0.0
H497 H 0.9021 0.68964 0.89429 0.0
H498 H 0.68301 0.54931 0.81398 0.0
H499 H 0.87728 0.63427 0.78548 0.0
H500 H 0.74049 0.70119 0.85055 0.0
H501 H 0.7286 0.64844 0.88664 0.0
H502 H 0.66988 0.61065 0.84634 0.0
H503 H 0.97321 0.80958 0.81328 0.0
H504 H 0.97684 0.7572 0.78846 0.0
H505 H 0.97654 0.75915 0.84091 0.0
loop_
_geom_bond_atom_site_label_1
_geom_bond_atom_site_label_2
_geom_bond_distance
_geom_bond_site_symmetry_2
_ccdc_geom_bond_type
Pr0 C2 2.880 . S
Pr0 O20 2.562 . S
Pr0 O21 2.490 . S
Pr0 O22 2.695 1_655 S
Pr0 O23 2.512 1_655 S
Pr0 O25 2.428 1_656 S
Pr0 O28 2.436 1_546 S
Pr0 O30 2.438 1_545 S
Pr1 C11 2.880 . S
Pr1 O22 2.436 1_564 S
Pr1 O24 2.438 1_565 S
Pr1 O26 2.562 . S
Pr1 O27 2.490 . S
Pr1 O28 2.695 1_455 S
Pr1 O29 2.512 1_455 S
Pr1 O31 2.437 1_455 S
C2 Pr0 2.880 . S
C2 C3 1.491 . S
C2 O20 1.254 . S
C2 O21 1.225 . S
C3 C2 1.491 . S
C3 C4 1.392 . S
C3 C8 1.356 . S
C4 C3 1.392 . S
C4 C5 1.368 . S
C4 H32 0.929 . S
C5 C4 1.368 . S
C5 C6 1.386 . S
C5 H33 0.929 . S
C6 C5 1.386 . S
C6 C7 1.373 . S
C7 C6 1.373 . S
C7 C8 1.409 . S
C7 H34 0.931 . S
C8 C3 1.356 . S
C8 C7 1.409 . S
C8 H35 0.930 . S
C9 O22 1.270 . S
C9 O23 1.248 . S
C10 O24 1.267 . S
C10 O25 1.294 . S
C11 Pr1 2.880 . S
C11 C12 1.491 . S
C11 O26 1.254 . S
C11 O27 1.225 . S
C12 C11 1.491 . S
C12 C13 1.392 . S
C12 C17 1.356 . S
C13 C12 1.392 . S
C13 C14 1.368 . S
C13 H36 0.929 . S
C14 C13 1.368 . S
C14 C15 1.386 . S
C14 H37 0.929 . S
C15 C14 1.386 . S
C15 C16 1.373 . S
C16 C15 1.373 . S
C16 C17 1.409 . S
C16 H38 0.931 . S
C17 C12 1.356 . S
C17 C16 1.409 . S
C17 H39 0.930 . S
C18 O28 1.270 . S
C18 O29 1.248 . S
C19 O30 1.267 . S
C19 O31 1.278 1_556 S
O20 Pr0 2.562 . S
O20 C2 1.254 . S
O21 Pr0 2.490 . S
O21 C2 1.225 . S
O22 Pr0 2.695 1_455 S
O22 Pr1 2.436 1_546 S
O22 C9 1.270 . S
O23 Pr0 2.512 1_455 S
O23 C9 1.248 . S
O24 Pr1 2.438 1_545 S
O24 C10 1.267 . S
O25 Pr0 2.428 1_454 S
O25 C10 1.294 . S
O26 Pr1 2.562 . S
O26 C11 1.254 . S
O27 Pr1 2.490 . S
O27 C11 1.225 . S
O28 Pr0 2.436 1_564 S
O28 Pr1 2.695 1_655 S
O28 C18 1.270 . S
O29 Pr1 2.512 1_655 S
O29 C18 1.248 . S
O30 Pr0 2.438 1_565 S
O30 C19 1.267 . S
O31 Pr1 2.437 1_655 S
O31 C19 1.278 1_554 S
H32 C4 0.929 . S
H33 C5 0.929 . S
H34 C7 0.931 . S
H35 C8 0.930 . S
H36 C13 0.929 . S
H37 C14 0.929 . S
H38 C16 0.931 . S
H39 C17 0.930 . S
Pr40 C42 2.880 1_455 S
Pr40 O60 2.562 1_455 S
Pr40 O61 2.490 1_455 S
Pr40 O62 2.695 1_445 S
Pr40 O63 2.512 1_445 S
Pr40 O65 2.437 1_445 S
Pr40 O68 2.436 . S
Pr40 O70 2.438 . S
Pr41 C51 2.880 . S
Pr41 O62 2.436 1_455 S
Pr41 O64 2.438 1_455 S
Pr41 O66 2.562 . S
Pr41 O67 2.490 . S
Pr41 O68 2.695 1_565 S
Pr41 O69 2.512 1_565 S
Pr41 O71 2.437 1_565 S
C42 Pr40 2.880 1_655 S
C42 C43 1.491 . S
C42 O60 1.254 . S
C42 O61 1.225 . S
C43 C42 1.491 . S
C43 C44 1.392 . S
C43 C48 1.356 . S
C44 C43 1.392 . S
C44 C45 1.368 . S
C44 H72 0.929 . S
C45 C44 1.368 . S
C45 C46 1.386 . S
C45 H73 0.929 . S
C46 C45 1.386 . S
C46 C47 1.373 . S
C47 C46 1.373 . S
C47 C48 1.409 . S
C47 H74 0.931 . S
C48 C43 1.356 . S
C48 C47 1.409 . S
C48 H75 0.930 . S
C49 O62 1.270 . S
C49 O63 1.248 . S
C50 O64 1.267 . S
C50 O65 1.278 . S
C51 Pr41 2.880 . S
C51 C52 1.491 . S
C51 O66 1.254 . S
C51 O67 1.225 . S
C52 C51 1.491 . S
C52 C53 1.392 . S
C52 C57 1.356 . S
C53 C52 1.392 . S
C53 C54 1.368 . S
C53 H76 0.929 1_565 S
C54 C53 1.368 . S
C54 C55 1.386 . S
C54 H77 0.929 . S
C55 C54 1.386 . S
C55 C56 1.373 . S
C56 C55 1.373 . S
C56 C57 1.409 . S
C56 H78 0.931 . S
C57 C52 1.356 . S
C57 C56 1.409 . S
C57 H79 0.930 . S
C58 O68 1.270 . S
C58 O69 1.248 . S
C59 O70 1.267 . S
C59 O71 1.278 . S
O60 Pr40 2.562 1_655 S
O60 C42 1.254 . S
O61 Pr40 2.490 1_655 S
O61 C42 1.225 . S
O62 Pr40 2.695 1_665 S
O62 Pr41 2.436 1_655 S
O62 C49 1.270 . S
O63 Pr40 2.512 1_665 S
O63 C49 1.248 . S
O64 Pr41 2.438 1_655 S
O64 C50 1.267 . S
O65 Pr40 2.437 1_665 S
O65 C50 1.278 . S
O66 Pr41 2.562 . S
O66 C51 1.254 . S
O67 Pr41 2.490 . S
O67 C51 1.225 . S
O68 Pr40 2.436 . S
O68 Pr41 2.695 1_545 S
O68 C58 1.270 . S
O69 Pr41 2.512 1_545 S
O69 C58 1.248 . S
O70 Pr40 2.438 . S
O70 C59 1.267 . S
O71 Pr41 2.437 1_545 S
O71 C59 1.278 . S
H72 C44 0.929 . S
H73 C45 0.929 . S
H74 C47 0.931 . S
H75 C48 0.930 . S
H76 C53 0.929 1_545 S
H77 C54 0.929 . S
H78 C56 0.931 . S
H79 C57 0.930 . S
Zn80 O86 1.920 . S
Zn80 O92 1.898 . S
Zn80 O95 1.905 . S
Zn81 O89 1.905 . S
Zn81 O90 1.898 . S
Zn81 O98 1.920 . S
Zn82 O85 2.080 . S
Zn82 O88 2.114 . S
Zn82 O91 2.120 . S
Zn82 O93 2.120 . S
Zn82 O94 2.114 . S
Zn82 O97 2.080 . S
C83 O88 1.166 . S
C83 O89 1.182 . S
C84 O90 1.167 . S
C84 O91 1.299 . S
O85 Zn82 2.080 . S
O85 C99 1.305 . S
O86 Zn80 1.920 . S
O86 C99 1.234 . S
C87 O92 1.167 . S
C87 O93 1.299 . S
O88 Zn82 2.114 . S
O88 C83 1.166 . S
O89 Zn81 1.905 . S
O89 C83 1.182 . S
O90 Zn81 1.898 . S
O90 C84 1.167 . S
O91 Zn82 2.120 . S
O91 C84 1.299 . S
O92 Zn80 1.898 . S
O92 C87 1.167 . S
O93 Zn82 2.120 . S
O93 C87 1.299 . S
O94 Zn82 2.114 . S
O94 C96 1.166 . S
O95 Zn80 1.905 . S
O95 C96 1.182 . S
C96 O94 1.166 . S
C96 O95 1.182 . S
O97 Zn82 2.080 . S
O97 C100 1.305 . S
O98 Zn81 1.920 . S
O98 C100 1.234 . S
C99 O85 1.305 . S
C99 O86 1.234 . S
C100 O97 1.305 . S
C100 O98 1.234 . S
Zn101 O107 1.920 . S
Zn101 O113 1.898 . S
Zn101 O116 1.905 . S
Zn102 O110 1.905 . S
Zn102 O111 1.898 . S
Zn102 O119 1.920 . S
Zn103 O106 2.080 . S
Zn103 O109 2.114 . S
Zn103 O112 2.120 . S
Zn103 O114 2.120 . S
Zn103 O115 2.114 . S
Zn103 O118 2.080 . S
C104 O109 1.166 . S
C104 O110 1.182 . S
C105 O111 1.167 . S
C105 O112 1.299 . S
O106 Zn103 2.080 . S
O106 C120 1.305 . S
O107 Zn101 1.920 . S
O107 C120 1.234 . S
C108 O113 1.167 . S
C108 O114 1.299 . S
O109 Zn103 2.114 . S
O109 C104 1.166 . S
O110 Zn102 1.905 . S
O110 C104 1.182 . S
O111 Zn102 1.898 . S
O111 C105 1.167 . S
O112 Zn103 2.120 . S
O112 C105 1.299 . S
O113 Zn101 1.898 . S
O113 C108 1.167 . S
O114 Zn103 2.120 . S
O114 C108 1.299 . S
O115 Zn103 2.114 . S
O115 C117 1.166 . S
O116 Zn101 1.905 . S
O116 C117 1.182 . S
C117 O115 1.166 . S
C117 O116 1.182 . S
O118 Zn103 2.080 . S
O118 C121 1.305 . S
O119 Zn102 1.920 . S
O119 C121 1.234 . S
C120 O106 1.305 . S
C120 O107 1.234 . S
C121 O118 1.305 . S
C121 O119 1.234 . S
C122 C123 1.391 . S
C122 C124 1.394 . S
C122 H138 0.931 . S
C123 C122 1.391 . S
C123 C127 1.376 . S
C124 C122 1.394 . S
C124 C125 1.369 . S
C124 C128 1.531 . S
C125 C124 1.369 . S
C125 C126 1.410 . S
C125 C133 1.503 . S
C126 C125 1.410 . S
C126 C127 1.392 . S
C126 C129 1.511 . S
C127 C123 1.376 . S
C127 C126 1.392 . S
C127 H139 0.929 . S
C128 C124 1.531 . S
C128 H140 0.960 . S
C128 H141 0.962 . S
C128 H142 0.960 . S
C129 C126 1.511 . S
C129 H143 0.961 . S
C129 H144 0.961 . S
C129 H145 0.961 . S
C130 C131 1.370 . S
C130 C132 1.363 . S
C130 H146 0.931 . S
C131 C130 1.370 . S
C131 C135 1.408 . S
C132 C130 1.363 . S
C132 C133 1.370 . S
C132 C136 1.524 . S
C133 C125 1.503 . S
C133 C132 1.370 . S
C133 C134 1.403 . S
C134 C133 1.403 . S
C134 C135 1.404 . S
C134 C137 1.539 . S
C135 C131 1.408 . S
C135 C134 1.404 . S
C135 H147 0.930 . S
C136 C132 1.524 . S
C136 H148 0.956 . S
C136 H149 0.961 . S
C136 H150 0.961 . S
C137 C134 1.539 . S
C137 H151 0.958 . S
C137 H152 0.961 . S
C137 H153 0.960 . S
H138 C122 0.931 . S
H139 C127 0.929 . S
H140 C128 0.960 . S
H141 C128 0.962 . S
H142 C128 0.960 . S
H143 C129 0.961 . S
H144 C129 0.961 . S
H145 C129 0.961 . S
H146 C130 0.931 . S
H147 C135 0.930 . S
H148 C136 0.956 . S
H149 C136 0.961 . S
H150 C136 0.961 . S
H151 C137 0.958 . S
H152 C137 0.961 . S
H153 C137 0.960 . S
C154 C155 1.391 . S
C154 C156 1.394 . S
C154 H170 0.931 . S
C155 C154 1.391 . S
C155 C159 1.376 . S
C156 C154 1.394 . S
C156 C157 1.369 . S
C156 C160 1.531 . S
C157 C156 1.369 . S
C157 C158 1.410 . S
C157 C165 1.503 . S
C158 C157 1.410 . S
C158 C159 1.392 . S
C158 C161 1.511 . S
C159 C155 1.376 . S
C159 C158 1.392 . S
C159 H171 0.929 . S
C160 C156 1.531 . S
C160 H172 0.960 . S
C160 H173 0.962 . S
C160 H174 0.960 . S
C161 C158 1.511 . S
C161 H175 0.961 . S
C161 H176 0.961 . S
C161 H177 0.961 . S
C162 C163 1.370 . S
C162 C164 1.363 . S
C162 H178 0.931 . S
C163 C162 1.370 . S
C163 C167 1.408 . S
C164 C162 1.363 . S
C164 C165 1.370 . S
C164 C168 1.524 . S
C165 C157 1.503 . S
C165 C164 1.370 . S
C165 C166 1.403 . S
C166 C165 1.403 . S
C166 C167 1.404 . S
C166 C169 1.539 . S
C167 C163 1.408 . S
C167 C166 1.404 . S
C167 H179 0.930 . S
C168 C164 1.524 . S
C168 H180 0.956 . S
C168 H181 0.961 . S
C168 H182 0.961 . S
C169 C166 1.539 . S
C169 H183 0.958 . S
C169 H184 0.961 . S
C169 H185 0.960 . S
H170 C154 0.931 . S
H171 C159 0.929 . S
H172 C160 0.960 . S
H173 C160 0.962 . S
H174 C160 0.960 . S
H175 C161 0.961 . S
H176 C161 0.961 . S
H177 C161 0.961 . S
H178 C162 0.931 . S
H179 C167 0.930 . S
H180 C168 0.956 . S
H181 C168 0.961 . S
H182 C168 0.961 . S
H183 C169 0.958 . S
H184 C169 0.961 . S
H185 C169 0.960 . S
C186 C187 1.391 . S
C186 C188 1.394 . S
C186 H202 0.931 . S
C187 C186 1.391 . S
C187 C191 1.376 . S
C188 C186 1.394 . S
C188 C189 1.369 . S
C188 C192 1.531 . S
C189 C188 1.369 . S
C189 C190 1.410 . S
C189 C197 1.503 . S
C190 C189 1.410 . S
C190 C191 1.392 . S
C190 C193 1.511 . S
C191 C187 1.376 . S
C191 C190 1.392 . S
C191 H203 0.929 . S
C192 C188 1.531 . S
C192 H204 0.960 . S
C192 H205 0.962 . S
C192 H206 0.960 . S
C193 C190 1.511 . S
C193 H207 0.961 . S
C193 H208 0.961 . S
C193 H209 0.961 . S
C194 C195 1.370 . S
C194 C196 1.363 . S
C194 H210 0.931 . S
C195 C194 1.370 . S
C195 C199 1.408 . S
C196 C194 1.363 . S
C196 C197 1.370 . S
C196 C200 1.524 . S
C197 C189 1.503 . S
C197 C196 1.370 . S
C197 C198 1.403 . S
C198 C197 1.403 . S
C198 C199 1.404 . S
C198 C201 1.539 . S
C199 C195 1.408 . S
C199 C198 1.404 . S
C199 H211 0.930 . S
C200 C196 1.524 . S
C200 H212 0.956 . S
C200 H213 0.961 . S
C200 H214 0.961 . S
C201 C198 1.539 . S
C201 H215 0.958 . S
C201 H216 0.961 . S
C201 H217 0.960 . S
H202 C186 0.931 . S
H203 C191 0.929 . S
H204 C192 0.960 . S
H205 C192 0.962 . S
H206 C192 0.960 . S
H207 C193 0.961 . S
H208 C193 0.961 . S
H209 C193 0.961 . S
H210 C194 0.931 . S
H211 C199 0.930 . S
H212 C200 0.956 . S
H213 C200 0.961 . S
H214 C200 0.961 . S
H215 C201 0.958 . S
H216 C201 0.961 . S
H217 C201 0.960 . S
C218 C219 1.391 . S
C218 C220 1.394 . S
C218 H234 0.931 . S
C219 C218 1.391 . S
C219 C223 1.376 . S
C220 C218 1.394 . S
C220 C221 1.369 . S
C220 C224 1.531 . S
C221 C220 1.369 . S
C221 C222 1.410 . S
C221 C229 1.503 . S
C222 C221 1.410 . S
C222 C223 1.392 . S
C222 C225 1.511 . S
C223 C219 1.376 . S
C223 C222 1.392 . S
C223 H235 0.929 . S
C224 C220 1.531 . S
C224 H236 0.960 . S
C224 H237 0.962 . S
C224 H238 0.960 . S
C225 C222 1.511 . S
C225 H239 0.961 . S
C225 H240 0.961 . S
C225 H241 0.961 . S
C226 C227 1.370 . S
C226 C228 1.363 . S
C226 H242 0.931 . S
C227 C226 1.370 . S
C227 C231 1.408 . S
C228 C226 1.363 . S
C228 C229 1.370 . S
C228 C232 1.524 . S
C229 C221 1.503 . S
C229 C228 1.370 . S
C229 C230 1.403 . S
C230 C229 1.403 . S
C230 C231 1.404 . S
C230 C233 1.539 . S
C231 C227 1.408 . S
C231 C230 1.404 . S
C231 H243 0.930 . S
C232 C228 1.524 . S
C232 H244 0.956 . S
C232 H245 0.961 . S
C232 H246 0.961 . S
C233 C230 1.539 . S
C233 H247 0.958 . S
C233 H248 0.961 . S
C233 H249 0.960 . S
H234 C218 0.931 . S
H235 C223 0.929 . S
H236 C224 0.960 . S
H237 C224 0.962 . S
H238 C224 0.960 . S
H239 C225 0.961 . S
H240 C225 0.961 . S
H241 C225 0.961 . S
H242 C226 0.931 . S
H243 C231 0.930 . S
H244 C232 0.956 . S
H245 C232 0.961 . S
H246 C232 0.961 . S
H247 C233 0.958 . S
H248 C233 0.961 . S
H249 C233 0.960 . S
C250 C251 1.391 . S
C250 C252 1.394 . S
C250 H266 0.931 . S
C251 C250 1.391 . S
C251 C255 1.376 . S
C252 C250 1.394 . S
C252 C253 1.369 . S
C252 C256 1.531 . S
C253 C252 1.369 . S
C253 C254 1.410 . S
C253 C261 1.503 . S
C254 C253 1.410 . S
C254 C255 1.392 . S
C254 C257 1.511 . S
C255 C251 1.376 . S
C255 C254 1.392 . S
C255 H267 0.929 . S
C256 C252 1.531 . S
C256 H268 0.960 . S
C256 H269 0.962 . S
C256 H270 0.960 . S
C257 C254 1.511 . S
C257 H271 0.961 . S
C257 H272 0.961 . S
C257 H273 0.961 . S
C258 C259 1.370 . S
C258 C260 1.363 . S
C258 H274 0.931 . S
C259 C258 1.370 . S
C259 C263 1.408 . S
C260 C258 1.363 . S
C260 C261 1.370 . S
C260 C264 1.524 . S
C261 C253 1.503 . S
C261 C260 1.370 . S
C261 C262 1.403 . S
C262 C261 1.403 . S
C262 C263 1.404 . S
C262 C265 1.539 . S
C263 C259 1.408 . S
C263 C262 1.404 . S
C263 H275 0.930 . S
C264 C260 1.524 . S
C264 H276 0.956 . S
C264 H277 0.961 . S
C264 H278 0.961 . S
C265 C262 1.539 . S
C265 H279 0.958 . S
C265 H280 0.961 . S
C265 H281 0.960 . S
H266 C250 0.931 . S
H267 C255 0.929 . S
H268 C256 0.960 . S
H269 C256 0.962 . S
H270 C256 0.960 . S
H271 C257 0.961 . S
H272 C257 0.961 . S
H273 C257 0.961 . S
H274 C258 0.931 . S
H275 C263 0.930 . S
H276 C264 0.956 . S
H277 C264 0.961 . S
H278 C264 0.961 . S
H279 C265 0.958 . S
H280 C265 0.961 . S
H281 C265 0.960 . S
C282 C283 1.391 . S
C282 C284 1.394 . S
C282 H298 0.931 . S
C283 C282 1.391 . S
C283 C287 1.376 . S
C284 C282 1.394 . S
C284 C285 1.369 . S
C284 C288 1.531 . S
C285 C284 1.369 . S
C285 C286 1.410 . S
C285 C293 1.503 . S
C286 C285 1.410 . S
C286 C287 1.392 . S
C286 C289 1.511 . S
C287 C283 1.376 . S
C287 C286 1.392 . S
C287 H299 0.929 . S
C288 C284 1.531 . S
C288 H300 0.960 . S
C288 H301 0.962 . S
C288 H302 0.960 1_655 S
C289 C286 1.511 . S
C289 H303 0.961 . S
C289 H304 0.961 . S
C289 H305 0.961 . S
C290 C291 1.370 . S
C290 C292 1.363 . S
C290 H306 0.931 . S
C291 C290 1.370 . S
C291 C295 1.408 . S
C292 C290 1.363 . S
C292 C293 1.370 . S
C292 C296 1.524 . S
C293 C285 1.503 . S
C293 C292 1.370 . S
C293 C294 1.403 . S
C294 C293 1.403 . S
C294 C295 1.404 . S
C294 C297 1.539 . S
C295 C291 1.408 . S
C295 C294 1.404 . S
C295 H307 0.930 . S
C296 C292 1.524 . S
C296 H308 0.956 . S
C296 H309 0.961 . S
C296 H310 0.961 . S
C297 C294 1.539 . S
C297 H311 0.958 . S
C297 H312 0.961 . S
C297 H313 0.960 . S
H298 C282 0.931 . S
H299 C287 0.929 . S
H300 C288 0.960 . S
H301 C288 0.962 . S
H302 C288 0.960 1_455 S
H303 C289 0.961 . S
H304 C289 0.961 . S
H305 C289 0.961 . S
H306 C290 0.931 . S
H307 C295 0.930 . S
H308 C296 0.956 . S
H309 C296 0.961 . S
H310 C296 0.961 . S
H311 C297 0.958 . S
H312 C297 0.961 . S
H313 C297 0.960 . S
C314 C315 1.391 . S
C314 C316 1.394 . S
C314 H330 0.931 . S
C315 C314 1.391 . S
C315 C319 1.376 . S
C316 C314 1.394 . S
C316 C317 1.369 . S
C316 C320 1.531 . S
C317 C316 1.369 . S
C317 C318 1.410 . S
C317 C325 1.503 . S
C318 C317 1.410 . S
C318 C319 1.392 . S
C318 C321 1.511 . S
C319 C315 1.376 . S
C319 C318 1.392 . S
C319 H331 0.929 . S
C320 C316 1.531 . S
C320 H332 0.960 . S
C320 H333 0.962 . S
C320 H334 0.960 . S
C321 C318 1.511 . S
C321 H335 0.961 . S
C321 H336 0.961 . S
C321 H337 0.961 . S
C322 C323 1.370 . S
C322 C324 1.363 . S
C322 H338 0.931 . S
C323 C322 1.370 . S
C323 C327 1.408 . S
C324 C322 1.363 . S
C324 C325 1.370 . S
C324 C328 1.524 . S
C325 C317 1.503 . S
C325 C324 1.370 . S
C325 C326 1.403 . S
C326 C325 1.403 . S
C326 C327 1.404 . S
C326 C329 1.539 . S
C327 C323 1.408 . S
C327 C326 1.404 . S
C327 H339 0.930 . S
C328 C324 1.524 . S
C328 H340 0.956 . S
C328 H341 0.961 . S
C328 H342 0.961 . S
C329 C326 1.539 . S
C329 H343 0.958 . S
C329 H344 0.961 . S
C329 H345 0.960 . S
H330 C314 0.931 . S
H331 C319 0.929 . S
H332 C320 0.960 . S
H333 C320 0.962 . S
H334 C320 0.960 . S
H335 C321 0.961 . S
H336 C321 0.961 . S
H337 C321 0.961 . S
H338 C322 0.931 . S
H339 C327 0.930 . S
H340 C328 0.956 . S
H341 C328 0.961 . S
H342 C328 0.961 . S
H343 C329 0.958 . S
H344 C329 0.961 . S
H345 C329 0.960 . S
C346 C347 1.391 . S
C346 C348 1.394 . S
C346 H362 0.931 . S
C347 C346 1.391 . S
C347 C351 1.376 . S
C348 C346 1.394 . S
C348 C349 1.369 . S
C348 C352 1.531 . S
C349 C348 1.369 . S
C349 C350 1.410 . S
C349 C357 1.503 . S
C350 C349 1.410 . S
C350 C351 1.392 . S
C350 C353 1.511 . S
C351 C347 1.376 . S
C351 C350 1.392 . S
C351 H363 0.929 . S
C352 C348 1.531 . S
C352 H364 0.960 . S
C352 H365 0.962 . S
C352 H366 0.960 . S
C353 C350 1.511 . S
C353 H367 0.961 . S
C353 H368 0.961 . S
C353 H369 0.961 . S
C354 C355 1.370 . S
C354 C356 1.363 . S
C354 H370 0.931 . S
C355 C354 1.370 . S
C355 C359 1.408 . S
C356 C354 1.363 . S
C356 C357 1.370 . S
C356 C360 1.524 . S
C357 C349 1.503 . S
C357 C356 1.370 . S
C357 C358 1.403 . S
C358 C357 1.403 . S
C358 C359 1.404 . S
C358 C361 1.539 . S
C359 C355 1.408 . S
C359 C358 1.404 . S
C359 H371 0.930 . S
C360 C356 1.524 . S
C360 H372 0.956 . S
C360 H373 0.961 . S
C360 H374 0.961 . S
C361 C358 1.539 . S
C361 H375 0.958 . S
C361 H376 0.961 . S
C361 H377 0.960 . S
H362 C346 0.931 . S
H363 C351 0.929 . S
H364 C352 0.960 . S
H365 C352 0.962 . S
H366 C352 0.960 . S
H367 C353 0.961 . S
H368 C353 0.961 . S
H369 C353 0.961 . S
H370 C354 0.931 . S
H371 C359 0.930 . S
H372 C360 0.956 . S
H373 C360 0.961 . S
H374 C360 0.961 . S
H375 C361 0.958 . S
H376 C361 0.961 . S
H377 C361 0.960 . S
C378 C379 1.391 . S
C378 C380 1.394 . S
C378 H394 0.931 . S
C379 C378 1.391 . S
C379 C383 1.376 . S
C380 C378 1.394 . S
C380 C381 1.369 . S
C380 C384 1.531 . S
C381 C380 1.369 . S
C381 C382 1.410 . S
C381 C389 1.503 . S
C382 C381 1.410 . S
C382 C383 1.392 . S
C382 C385 1.511 . S
C383 C379 1.376 . S
C383 C382 1.392 . S
C383 H395 0.929 . S
C384 C380 1.531 . S
C384 H396 0.960 . S
C384 H397 0.962 . S
C384 H398 0.960 . S
C385 C382 1.511 . S
C385 H399 0.961 . S
C385 H400 0.961 . S
C385 H401 0.961 . S
C386 C387 1.370 . S
C386 C388 1.363 . S
C386 H402 0.931 . S
C387 C386 1.370 . S
C387 C391 1.408 . S
C388 C386 1.363 . S
C388 C389 1.370 . S
C388 C392 1.524 . S
C389 C381 1.503 . S
C389 C388 1.370 . S
C389 C390 1.403 . S
C390 C389 1.403 . S
C390 C391 1.404 . S
C390 C393 1.539 . S
C391 C387 1.408 . S
C391 C390 1.404 . S
C391 H403 0.930 . S
C392 C388 1.524 . S
C392 H404 0.956 . S
C392 H405 0.961 . S
C392 H406 0.961 . S
C393 C390 1.539 . S
C393 H407 0.958 . S
C393 H408 0.961 . S
C393 H409 0.960 . S
H394 C378 0.931 . S
H395 C383 0.929 . S
H396 C384 0.960 . S
H397 C384 0.962 . S
H398 C384 0.960 . S
H399 C385 0.961 . S
H400 C385 0.961 . S
H401 C385 0.961 . S
H402 C386 0.931 . S
H403 C391 0.930 . S
H404 C392 0.956 . S
H405 C392 0.961 . S
H406 C392 0.961 . S
H407 C393 0.958 . S
H408 C393 0.961 . S
H409 C393 0.960 . S
C410 C411 1.391 . S
C410 C412 1.394 . S
C410 H426 0.931 . S
C411 C410 1.391 . S
C411 C415 1.376 . S
C412 C410 1.394 . S
C412 C413 1.369 . S
C412 C416 1.531 . S
C413 C412 1.369 . S
C413 C414 1.410 . S
C413 C421 1.503 . S
C414 C413 1.410 . S
C414 C415 1.392 . S
C414 C417 1.511 . S
C415 C411 1.376 . S
C415 C414 1.392 . S
C415 H427 0.929 . S
C416 C412 1.531 . S
C416 H428 0.960 . S
C416 H429 0.962 . S
C416 H430 0.960 . S
C417 C414 1.511 . S
C417 H431 0.961 . S
C417 H432 0.961 . S
C417 H433 0.961 . S
C418 C419 1.370 . S
C418 C420 1.363 . S
C418 H434 0.931 . S
C419 C418 1.370 . S
C419 C423 1.408 . S
C420 C418 1.363 . S
C420 C421 1.370 . S
C420 C424 1.524 . S
C421 C413 1.503 . S
C421 C420 1.370 . S
C421 C422 1.403 . S
C422 C421 1.403 . S
C422 C423 1.404 . S
C422 C425 1.539 . S
C423 C419 1.408 . S
C423 C422 1.404 . S
C423 H435 0.930 . S
C424 C420 1.524 . S
C424 H436 0.956 . S
C424 H437 0.961 . S
C424 H438 0.961 . S
C425 C422 1.539 . S
C425 H439 0.958 . S
C425 H440 0.961 . S
C425 H441 0.960 . S
H426 C410 0.931 . S
H427 C415 0.929 . S
H428 C416 0.960 . S
H429 C416 0.962 . S
H430 C416 0.960 . S
H431 C417 0.961 . S
H432 C417 0.961 . S
H433 C417 0.961 . S
H434 C418 0.931 . S
H435 C423 0.930 . S
H436 C424 0.956 . S
H437 C424 0.961 . S
H438 C424 0.961 . S
H439 C425 0.958 . S
H440 C425 0.961 . S
H441 C425 0.960 . S
C442 C443 1.391 . S
C442 C444 1.394 . S
C442 H458 0.931 1_565 S
C443 C442 1.391 . S
C443 C447 1.376 . S
C444 C442 1.394 . S
C444 C445 1.369 . S
C444 C448 1.531 . S
C445 C444 1.369 . S
C445 C446 1.410 . S
C445 C453 1.503 . S
C446 C445 1.410 . S
C446 C447 1.392 . S
C446 C449 1.511 . S
C447 C443 1.376 . S
C447 C446 1.392 . S
C447 H459 0.929 . S
C448 C444 1.531 . S
C448 H460 0.960 . S
C448 H461 0.962 . S
C448 H462 0.960 . S
C449 C446 1.511 . S
C449 H463 0.961 . S
C449 H464 0.961 . S
C449 H465 0.961 . S
C450 C451 1.370 . S
C450 C452 1.363 . S
C450 H466 0.931 . S
C451 C450 1.370 . S
C451 C455 1.408 . S
C452 C450 1.363 . S
C452 C453 1.370 . S
C452 C456 1.524 . S
C453 C445 1.503 . S
C453 C452 1.370 . S
C453 C454 1.403 . S
C454 C453 1.403 . S
C454 C455 1.404 . S
C454 C457 1.539 . S
C455 C451 1.408 . S
C455 C454 1.404 . S
C455 H467 0.930 . S
C456 C452 1.524 . S
C456 H468 0.956 . S
C456 H469 0.961 . S
C456 H470 0.961 . S
C457 C454 1.539 . S
C457 H471 0.958 . S
C457 H472 0.961 . S
C457 H473 0.960 . S
H458 C442 0.931 1_545 S
H459 C447 0.929 . S
H460 C448 0.960 . S
H461 C448 0.962 . S
H462 C448 0.960 . S
H463 C449 0.961 . S
H464 C449 0.961 . S
H465 C449 0.961 . S
H466 C450 0.931 . S
H467 C455 0.930 . S
H468 C456 0.956 . S
H469 C456 0.961 . S
H470 C456 0.961 . S
H471 C457 0.958 . S
H472 C457 0.961 . S
H473 C457 0.960 . S
C474 C475 1.391 . S
C474 C476 1.394 . S
C474 H490 0.931 . S
C475 C474 1.391 . S
C475 C479 1.376 . S
C476 C474 1.394 . S
C476 C477 1.369 . S
C476 C480 1.531 . S
C477 C476 1.369 . S
C477 C478 1.410 . S
C477 C485 1.503 . S
C478 C477 1.410 . S
C478 C479 1.392 . S
C478 C481 1.511 . S
C479 C475 1.376 . S
C479 C478 1.392 . S
C479 H491 0.929 . S
C480 C476 1.531 . S
C480 H492 0.960 . S
C480 H493 0.962 . S
C480 H494 0.960 . S
C481 C478 1.511 . S
C481 H495 0.961 . S
C481 H496 0.961 . S
C481 H497 0.961 . S
C482 C483 1.370 . S
C482 C484 1.363 . S
C482 H498 0.931 . S
C483 C482 1.370 . S
C483 C487 1.408 . S
C484 C482 1.363 . S
C484 C485 1.370 . S
C484 C488 1.524 . S
C485 C477 1.503 . S
C485 C484 1.370 . S
C485 C486 1.403 . S
C486 C485 1.403 . S
C486 C487 1.404 . S
C486 C489 1.539 . S
C487 C483 1.408 . S
C487 C486 1.404 . S
C487 H499 0.930 . S
C488 C484 1.524 . S
C488 H500 0.956 . S
C488 H501 0.961 . S
C488 H502 0.961 . S
C489 C486 1.539 . S
C489 H503 0.958 . S
C489 H504 0.961 . S
C489 H505 0.960 . S
H490 C474 0.931 . S
H491 C479 0.929 . S
H492 C480 0.960 . S
H493 C480 0.962 . S
H494 C480 0.960 . S
H495 C481 0.961 . S
H496 C481 0.961 . S
H497 C481 0.961 . S
H498 C482 0.931 . S
H499 C487 0.930 . S
H500 C488 0.956 . S
H501 C488 0.961 . S
H502 C488 0.961 . S
H503 C489 0.958 . S
H504 C489 0.961 . S
H505 C489 0.960 . S
C123 C15 1.365 . S
C131 C99 1.318 . S
C155 C59 1.213 . S
C163 C105 1.114 . S
C187 C10 1.333 . S
C195 C96 1.205 . S
C219 C46 1.429 . S
C227 C121 1.373 . S
C251 C18 1.886 . S
C259 C87 1.725 . S
C291 C104 1.850 . S
C283 C49 1.928 . S
C315 C55 1.369 . S
C323 C100 1.284 . S
C355 C117 1.837 . S
C347 C9 1.953 . S
C387 C84 1.722 . S
C379 C58 1.892 . S
C419 C120 1.346 . S
C411 C6 1.464 . S
C451 C83 1.248 . S
C443 C50 1.296 . S
C483 C108 1.138 . S
C475 C19 1.242 . S
