# Generated by pormake.
# Topology myd, (4,6)-cn, num edge types: 1
# Building blocks:
#     Node 0, Type 0, BuildingBlock: KOZSID_clean_sbu_0, # of connection points: 4
#     Node 1, Type 0, BuildingBlock: KOZSID_clean_sbu_0, # of connection points: 4
#     Node 2, Type 0, BuildingBlock: KOZSID_clean_sbu_0, # of connection points: 4
#     Node 3, Type 0, BuildingBlock: KOZSID_clean_sbu_0, # of connection points: 4
#     Node 4, Type 0, BuildingBlock: KOZSID_clean_sbu_0, # of connection points: 4
#     Node 5, Type 0, BuildingBlock: KOZSID_clean_sbu_0, # of connection points: 4
#     Node 6, Type 0, BuildingBlock: KOZSID_clean_sbu_0, # of connection points: 4
#     Node 7, Type 0, BuildingBlock: KOZSID_clean_sbu_0, # of connection points: 4
#     Node 8, Type 0, BuildingBlock: KOZSID_clean_sbu_0, # of connection points: 4
#     Node 9, Type 0, BuildingBlock: KOZSID_clean_sbu_0, # of connection points: 4
#     Node 10, Type 0, BuildingBlock: KOZSID_clean_sbu_0, # of connection points: 4
#     Node 11, Type 0, BuildingBlock: KOZSID_clean_sbu_0, # of connection points: 4
#     Node 12, Type 1, BuildingBlock: VOLQOD_clean_sbu_1, # of connection points: 6
#     Node 13, Type 1, BuildingBlock: VOLQOD_clean_sbu_1, # of connection points: 6
#     Node 14, Type 1, BuildingBlock: VOLQOD_clean_sbu_1, # of connection points: 6
#     Node 15, Type 1, BuildingBlock: VOLQOD_clean_sbu_1, # of connection points: 6
#     Node 16, Type 1, BuildingBlock: VOLQOD_clean_sbu_1, # of connection points: 6
#     Node 17, Type 1, BuildingBlock: VOLQOD_clean_sbu_1, # of connection points: 6
#     Node 18, Type 1, BuildingBlock: VOLQOD_clean_sbu_1, # of connection points: 6
#     Node 19, Type 1, BuildingBlock: VOLQOD_clean_sbu_1, # of connection points: 6
#     Edge 20, Type (0, 1), BuildingBlock: AJUNOK_clean_linker_0, # of connection points: 2
#     Edge 21, Type (0, 1), BuildingBlock: AJUNOK_clean_linker_0, # of connection points: 2
#     Edge 22, Type (0, 1), BuildingBlock: AJUNOK_clean_linker_0, # of connection points: 2
#     Edge 23, Type (0, 1), BuildingBlock: AJUNOK_clean_linker_0, # of connection points: 2
#     Edge 24, Type (0, 1), BuildingBlock: AJUNOK_clean_linker_0, # of connection points: 2
#     Edge 25, Type (0, 1), BuildingBlock: AJUNOK_clean_linker_0, # of connection points: 2
#     Edge 26, Type (0, 1), BuildingBlock: AJUNOK_clean_linker_0, # of connection points: 2
#     Edge 27, Type (0, 1), BuildingBlock: AJUNOK_clean_linker_0, # of connection points: 2
#     Edge 28, Type (0, 1), BuildingBlock: AJUNOK_clean_linker_0, # of connection points: 2
#     Edge 29, Type (0, 1), BuildingBlock: AJUNOK_clean_linker_0, # of connection points: 2
#     Edge 30, Type (0, 1), BuildingBlock: AJUNOK_clean_linker_0, # of connection points: 2
#     Edge 31, Type (0, 1), BuildingBlock: AJUNOK_clean_linker_0, # of connection points: 2
#     Edge 32, Type (0, 1), BuildingBlock: AJUNOK_clean_linker_0, # of connection points: 2
#     Edge 33, Type (0, 1), BuildingBlock: AJUNOK_clean_linker_0, # of connection points: 2
#     Edge 34, Type (0, 1), BuildingBlock: AJUNOK_clean_linker_0, # of connection points: 2
#     Edge 35, Type (0, 1), BuildingBlock: AJUNOK_clean_linker_0, # of connection points: 2
#     Edge 36, Type (0, 1), BuildingBlock: AJUNOK_clean_linker_0, # of connection points: 2
#     Edge 37, Type (0, 1), BuildingBlock: AJUNOK_clean_linker_0, # of connection points: 2
#     Edge 38, Type (0, 1), BuildingBlock: AJUNOK_clean_linker_0, # of connection points: 2
#     Edge 39, Type (0, 1), BuildingBlock: AJUNOK_clean_linker_0, # of connection points: 2
#     Edge 40, Type (0, 1), BuildingBlock: AJUNOK_clean_linker_0, # of connection points: 2
#     Edge 41, Type (0, 1), BuildingBlock: AJUNOK_clean_linker_0, # of connection points: 2
#     Edge 42, Type (0, 1), BuildingBlock: AJUNOK_clean_linker_0, # of connection points: 2
#     Edge 43, Type (0, 1), BuildingBlock: AJUNOK_clean_linker_0, # of connection points: 2
#     Edge 44, Type (0, 1), BuildingBlock: AJUNOK_clean_linker_0, # of connection points: 2
#     Edge 45, Type (0, 1), BuildingBlock: AJUNOK_clean_linker_0, # of connection points: 2
#     Edge 46, Type (0, 1), BuildingBlock: AJUNOK_clean_linker_0, # of connection points: 2
#     Edge 47, Type (0, 1), BuildingBlock: AJUNOK_clean_linker_0, # of connection points: 2
#     Edge 48, Type (0, 1), BuildingBlock: AJUNOK_clean_linker_0, # of connection points: 2
#     Edge 49, Type (0, 1), BuildingBlock: AJUNOK_clean_linker_0, # of connection points: 2
#     Edge 50, Type (0, 1), BuildingBlock: AJUNOK_clean_linker_0, # of connection points: 2
#     Edge 51, Type (0, 1), BuildingBlock: AJUNOK_clean_linker_0, # of connection points: 2
#     Edge 52, Type (0, 1), BuildingBlock: AJUNOK_clean_linker_0, # of connection points: 2
#     Edge 53, Type (0, 1), BuildingBlock: AJUNOK_clean_linker_0, # of connection points: 2
#     Edge 54, Type (0, 1), BuildingBlock: AJUNOK_clean_linker_0, # of connection points: 2
#     Edge 55, Type (0, 1), BuildingBlock: AJUNOK_clean_linker_0, # of connection points: 2
#     Edge 56, Type (0, 1), BuildingBlock: AJUNOK_clean_linker_0, # of connection points: 2
#     Edge 57, Type (0, 1), BuildingBlock: AJUNOK_clean_linker_0, # of connection points: 2
#     Edge 58, Type (0, 1), BuildingBlock: AJUNOK_clean_linker_0, # of connection points: 2
#     Edge 59, Type (0, 1), BuildingBlock: AJUNOK_clean_linker_0, # of connection points: 2
#     Edge 60, Type (0, 1), BuildingBlock: AJUNOK_clean_linker_0, # of connection points: 2
#     Edge 61, Type (0, 1), BuildingBlock: AJUNOK_clean_linker_0, # of connection points: 2
#     Edge 62, Type (0, 1), BuildingBlock: AJUNOK_clean_linker_0, # of connection points: 2
#     Edge 63, Type (0, 1), BuildingBlock: AJUNOK_clean_linker_0, # of connection points: 2
#     Edge 64, Type (0, 1), BuildingBlock: AJUNOK_clean_linker_0, # of connection points: 2
#     Edge 65, Type (0, 1), BuildingBlock: AJUNOK_clean_linker_0, # of connection points: 2
#     Edge 66, Type (0, 1), BuildingBlock: AJUNOK_clean_linker_0, # of connection points: 2
#     Edge 67, Type (0, 1), BuildingBlock: AJUNOK_clean_linker_0, # of connection points: 2
# Relax obj value: 0.178
# Max RMSD: 0.169
# Mean RMSD: 0.130
data_MOF--net-myd--node1-KOZSID_clean_sbu_0--node2-VOLQOD_clean_sbu_1--edge1-AJUNOK_clean_linker_0
_symmetry_space_group_name_H-M    P1
_symmetry_Int_Tables_number       1
_symmetry_cell_setting            triclinic
loop_
_symmetry_equiv_pos_as_xyz
'x, y, z'
_cell_length_a     40.029584
_cell_length_b     40.210593
_cell_length_c     40.172064
_cell_angle_alpha  93.041435
_cell_angle_beta   90.549862
_cell_angle_gamma 93.598989
loop_
_atom_site_label
_atom_site_type_symbol
_atom_site_fract_x
_atom_site_fract_y
_atom_site_fract_z
_atom_type_partial_charge
C0 C 0.97966 0.29627 0.36047 0.0
C1 C 0.94727 0.29824 0.37187 0.0
C2 C 0.92942 0.26992 0.35914 0.0
C3 C 0.95191 0.25228 0.34075 0.0
N4 N 0.98264 0.26777 0.34144 0.0
Co5 Co 0.02196 0.25349 0.31622 0.0
N6 N 0.99366 0.22465 0.28426 0.0
C7 C 0.96184 0.21333 0.28958 0.0
C8 C 0.94888 0.19247 0.26383 0.0
C9 C 0.97426 0.19018 0.24124 0.0
C10 C 1.00147 0.2098 0.25451 0.0
N11 N 0.06179 0.24035 0.2909 0.0
C12 C 0.06385 0.22537 0.26002 0.0
C13 C 0.09696 0.22014 0.25229 0.0
C14 C 0.116 0.23174 0.27952 0.0
C15 C 0.09365 0.24343 0.30231 0.0
N16 N 0.04993 0.28194 0.34874 0.0
C17 C 0.0828 0.27986 0.35474 0.0
C18 C 0.0955 0.30437 0.37737 0.0
C19 C 0.06898 0.32306 0.38584 0.0
C20 C 0.04146 0.30874 0.36794 0.0
N21 N 0.0251 0.21449 0.34385 0.0
C22 C 0.01915 0.15431 0.37714 0.0
C23 C 0.0309 0.15518 0.34454 0.0
C24 C 0.03335 0.18498 0.32849 0.0
C25 C 0.01228 0.1849 0.39362 0.0
C26 C 0.01573 0.21479 0.37659 0.0
N27 N 0.01812 0.29121 0.28782 0.0
C28 C 0.04325 0.3353 0.25613 0.0
C29 C 0.01251 0.33891 0.24018 0.0
C30 C 0.98445 0.31951 0.24979 0.0
C31 C 0.9877 0.2961 0.27375 0.0
C32 C 0.04555 0.31116 0.2799 0.0
H33 H 0.96566 0.28114 0.28001 0.0
H34 H 0.06967 0.30783 0.29101 0.0
H35 H 0.04056 0.18341 0.30288 0.0
H36 H 0.00959 0.23785 0.38944 0.0
C37 C 0.94386 0.22626 0.31674 0.0
C38 C 0.0076 0.32077 0.36918 0.0
C39 C 0.03507 0.21103 0.23986 0.0
C40 C 0.10185 0.26087 0.33273 0.0
H41 H 0.93761 0.31819 0.38737 0.0
H42 H 0.9028 0.26405 0.3613 0.0
H43 H 0.92379 0.18083 0.26141 0.0
H44 H 0.97311 0.17525 0.21799 0.0
H45 H 0.10627 0.20812 0.2298 0.0
H46 H 0.14295 0.23197 0.28217 0.0
H47 H 0.12142 0.30966 0.38487 0.0
H48 H 0.07016 0.34512 0.4025 0.0
H49 H 0.03743 0.13258 0.33088 0.0
H50 H 1.00316 0.18565 0.4189 0.0
H51 H 0.06553 0.3499 0.24922 0.0
H52 H 0.96021 0.32182 0.23819 0.0
C53 C 0.98725 0.70436 0.11435 0.0
C54 C 0.9576 0.69371 0.09787 0.0
C55 C 0.93367 0.71348 0.11037 0.0
C56 C 0.9501 0.73487 0.1337 0.0
N57 N 0.98322 0.73047 0.13625 0.0
Co58 Co 0.01636 0.75373 0.16863 0.0
N59 N 0.98024 0.77824 0.19159 0.0
C60 C 0.9474 0.77718 0.18292 0.0
C61 C 0.9288 0.79694 0.20337 0.0
C62 C 0.95106 0.81154 0.22648 0.0
C63 C 0.98204 0.7997 0.21874 0.0
N64 N 0.04958 0.77662 0.20121 0.0
C65 C 0.04472 0.79815 0.22752 0.0
C66 C 0.07457 0.80797 0.24418 0.0
C67 C 0.0992 0.79217 0.2277 0.0
C68 C 0.08307 0.77359 0.2021 0.0
N69 N 0.05237 0.7292 0.14549 0.0
C70 C 0.0857 0.73247 0.15181 0.0
C71 C 0.1036 0.71045 0.13307 0.0
C72 C 0.08021 0.6915 0.11424 0.0
C73 C 0.04941 0.7032 0.12265 0.0
N74 N 0.02361 0.79147 0.13862 0.0
C75 C 0.03314 0.85406 0.11069 0.0
C76 C 0.06039 0.83697 0.1208 0.0
C77 C 0.05513 0.80579 0.13417 0.0
C78 C 1.00136 0.83785 0.11131 0.0
C79 C 0.99722 0.80659 0.12507 0.0
N80 N 0.00918 0.71679 0.19914 0.0
C81 C 0.03135 0.67917 0.23765 0.0
C82 C 0.99918 0.66989 0.24823 0.0
C83 C 0.972 0.683 0.23258 0.0
C84 C 0.97751 0.70601 0.208 0.0
C85 C 0.03578 0.7026 0.2133 0.0
H86 H 0.95586 0.71535 0.19697 0.0
H87 H 0.06096 0.70949 0.20686 0.0
H88 H 0.07694 0.79452 0.14193 0.0
H89 H 0.9723 0.7959 0.1256 0.0
C90 C 0.93462 0.75666 0.15601 0.0
C91 C 0.01782 0.68694 0.11086 0.0
C92 C 0.0124 0.80966 0.23785 0.0
C93 C 0.09867 0.75301 0.17863 0.0
H94 H 0.95353 0.67292 0.07974 0.0
H95 H 0.90716 0.71135 0.10444 0.0
H96 H 0.90221 0.80019 0.20179 0.0
H97 H 0.94518 0.82893 0.24675 0.0
H98 H 0.07819 0.82476 0.26606 0.0
H99 H 0.12569 0.79391 0.23373 0.0
H100 H 0.13022 0.70724 0.13441 0.0
H101 H 0.08499 0.6705 0.09734 0.0
H102 H 0.08565 0.84821 0.11958 0.0
H103 H 0.97962 0.84996 0.10291 0.0
H104 H 0.05306 0.66944 0.24909 0.0
H105 H 0.94661 0.67597 0.23975 0.0
C106 C 0.37291 0.96627 0.30308 0.0
C107 C 0.37998 0.93386 0.30933 0.0
C108 C 0.36728 0.91408 0.28289 0.0
C109 C 0.35322 0.93548 0.2621 0.0
N110 N 0.35698 0.96786 0.27324 0.0
Co111 Co 0.33691 0.00686 0.25327 0.0
N112 N 0.31135 0.97716 0.21883 0.0
C113 C 0.31313 0.94378 0.21365 0.0
C114 C 0.29297 0.93023 0.18801 0.0
C115 C 0.27739 0.95649 0.17605 0.0
C116 C 0.28892 0.98467 0.19523 0.0
N117 N 0.31624 0.04591 0.23403 0.0
C118 C 0.29313 0.04694 0.20922 0.0
C119 C 0.28504 0.07942 0.20432 0.0
C120 C 0.30383 0.09961 0.22663 0.0
C121 C 0.32213 0.07844 0.24395 0.0
N122 N 0.36263 0.03644 0.28767 0.0
C123 C 0.36454 0.07016 0.29022 0.0
C124 C 0.3822 0.08338 0.31775 0.0
C125 C 0.39143 0.0565 0.33422 0.0
C126 C 0.37883 0.02833 0.31567 0.0
N127 N 0.37465 0.01161 0.22115 0.0
C128 C 0.41333 0.01894 0.16339 0.0
C129 C 0.40676 0.04666 0.1841 0.0
C130 C 0.38769 0.04243 0.21284 0.0
C131 C 0.40335 0.98741 0.1738 0.0
C132 C 0.38497 0.98434 0.203 0.0
N133 N 0.29907 1.00204 0.28431 0.0
C134 C 0.26039 0.02574 0.32345 0.0
C135 C 0.24278 0.9948 0.32494 0.0
C136 C 0.2543 0.96744 0.30685 0.0
C137 C 0.28243 0.97152 0.28705 0.0
C138 C 0.28835 0.02885 0.30288 0.0
H139 H 0.28999 0.94969 0.27376 0.0
H140 H 0.30068 0.05314 0.3019 0.0
H141 H 0.3827 0.06459 0.22704 0.0
H142 H 0.37833 0.9596 0.20946 0.0
C143 C 0.33269 0.92566 0.23442 0.0
C144 C 0.3803 0.99454 0.32693 0.0
C145 C 0.27793 0.01797 0.18991 0.0
C146 C 0.34487 0.0883 0.26976 0.0
H147 H 0.392 0.92534 0.33129 0.0
H148 H 0.36671 0.88713 0.28008 0.0
H149 H 0.28967 0.90428 0.17929 0.0
H150 H 0.2595 0.95508 0.15557 0.0
H151 H 0.26731 0.08772 0.18654 0.0
H152 H 0.30399 0.12651 0.22996 0.0
H153 H 0.38596 0.10941 0.32605 0.0
H154 H 0.40453 0.05754 0.35797 0.0
H155 H 0.41465 0.0716 0.17718 0.0
H156 H 0.40879 0.9652 0.15888 0.0
H157 H 0.25204 0.0475 0.33726 0.0
H158 H 0.24132 0.94302 0.30766 0.0
C159 C 0.63582 0.47221 0.22024 0.0
C160 C 0.6201 0.44231 0.208 0.0
C161 C 0.63362 0.41775 0.22504 0.0
C162 C 0.65673 0.43406 0.2466 0.0
N163 N 0.65825 0.46758 0.24473 0.0
Co164 Co 0.68925 0.5011 0.26994 0.0
N165 N 0.71523 0.46503 0.28834 0.0
C166 C 0.70945 0.4317 0.28244 0.0
C167 C 0.73206 0.41322 0.29788 0.0
C168 C 0.75367 0.43611 0.31448 0.0
C169 C 0.74286 0.46733 0.30821 0.0
N170 N 0.71935 0.53482 0.29595 0.0
C171 C 0.74577 0.53044 0.31614 0.0
C172 C 0.75946 0.56066 0.33016 0.0
C173 C 0.74078 0.58492 0.31863 0.0
C174 C 0.71692 0.56827 0.29828 0.0
N175 N 0.66423 0.53709 0.25008 0.0
C176 C 0.66921 0.57042 0.25626 0.0
C177 C 0.65013 0.58881 0.23651 0.0
C178 C 0.63256 0.56585 0.21581 0.0
C179 C 0.64197 0.53481 0.22438 0.0
N180 N 0.65877 0.49988 0.30916 0.0
C181 C 0.62761 0.50025 0.37197 0.0
C182 C 0.63087 0.52916 0.35423 0.0
C183 C 0.64634 0.52842 0.32307 0.0
C184 C 0.63791 0.47073 0.35684 0.0
C185 C 0.65261 0.47097 0.32542 0.0
N186 N 0.72026 0.50215 0.23168 0.0
C187 C 0.76259 0.53166 0.19993 0.0
C188 C 0.77088 0.50188 0.18335 0.0
C189 C 0.75194 0.47264 0.18988 0.0
C190 C 0.72693 0.47331 0.21393 0.0
C191 C 0.73721 0.53127 0.22371 0.0
H192 H 0.71387 0.45004 0.21843 0.0
H193 H 0.73215 0.55466 0.23594 0.0
H194 H 0.64877 0.55152 0.31134 0.0
H195 H 0.65956 0.44748 0.31539 0.0
C196 C 0.68153 0.41861 0.26374 0.0
C197 C 0.63118 0.50403 0.20579 0.0
C198 C 0.75901 0.49837 0.32244 0.0
C199 C 0.69359 0.58356 0.27916 0.0
H200 H 0.60194 0.4386 0.18779 0.0
H201 H 0.62888 0.39108 0.22055 0.0
H202 H 0.73251 0.38631 0.29749 0.0
H203 H 0.77476 0.43049 0.32982 0.0
H204 H 0.7809 0.56483 0.34681 0.0
H205 H 0.74454 0.61157 0.32395 0.0
H206 H 0.65007 0.61571 0.23624 0.0
H207 H 0.61563 0.57124 0.19591 0.0
H208 H 0.62287 0.5526 0.36497 0.0
H209 H 0.6351 0.44758 0.36945 0.0
H210 H 0.77598 0.55509 0.19497 0.0
H211 H 0.75725 0.44903 0.17742 0.0
C212 C 0.32857 0.39181 0.9848 0.0
C213 C 0.335 0.40699 0.95518 0.0
C214 C 0.31027 0.39461 0.93299 0.0
C215 C 0.29024 0.37265 0.95035 0.0
N216 N 0.30089 0.37075 0.98196 0.0
Co217 Co 0.28171 0.3409 0.0154 0.0
N218 N 0.25925 0.31065 0.98044 0.0
C219 C 0.25295 0.31844 0.94886 0.0
C220 C 0.23609 0.29282 0.93048 0.0
C221 C 0.23112 0.26761 0.95197 0.0
C222 C 0.2452 0.27933 0.98245 0.0
N223 N 0.2631 0.31118 0.04937 0.0
C224 C 0.24947 0.27952 0.04566 0.0
C225 C 0.23891 0.26822 0.07619 0.0
C226 C 0.24577 0.29397 0.0995 0.0
C227 C 0.26011 0.3195 0.0821 0.0
N228 N 0.30399 0.37157 0.05002 0.0
C229 C 0.29628 0.37422 0.08249 0.0
C230 C 0.31766 0.39685 0.10032 0.0
C231 C 0.34018 0.40888 0.07755 0.0
C232 C 0.33114 0.39286 0.04712 0.0
N233 N 0.24117 0.3661 0.01785 0.0
C234 C 0.18092 0.39836 0.01475 0.0
C235 C 0.18099 0.36412 0.01912 0.0
C236 C 0.21094 0.34862 0.02014 0.0
C237 C 0.21205 0.41653 0.01319 0.0
C238 C 0.24195 0.39994 0.01517 0.0
N239 N 0.32135 0.31492 0.01245 0.0
C240 C 0.35952 0.27998 0.0384 0.0
C241 C 0.3697 0.26779 0.00705 0.0
C242 C 0.35709 0.2815 0.97861 0.0
C243 C 0.3329 0.30494 0.98183 0.0
C244 C 0.33552 0.30381 0.04057 0.0
H245 H 0.32236 0.3137 0.9594 0.0
H246 H 0.32728 0.31207 0.06493 0.0
H247 H 0.20925 0.3221 0.02197 0.0
H248 H 0.26559 0.41425 0.01369 0.0
C249 C 0.26702 0.34811 0.93636 0.0
C250 C 0.34815 0.3983 0.01567 0.0
C251 C 0.2414 0.26159 0.01342 0.0
C252 C 0.2749 0.34969 0.09608 0.0
H253 H 0.35557 0.4247 0.95013 0.0
H254 H 0.30846 0.39943 0.9068 0.0
H255 H 0.22885 0.29223 0.90442 0.0
H256 H 0.21798 0.24364 0.94611 0.0
H257 H 0.22655 0.24426 0.08097 0.0
H258 H 0.24131 0.29384 0.12603 0.0
H259 H 0.31829 0.40225 0.12701 0.0
H260 H 0.36113 0.4268 0.08278 0.0
H261 H 0.15786 0.34897 0.02138 0.0
H262 H 0.21341 0.44307 0.00961 0.0
H263 H 0.3692 0.27036 0.061 0.0
H264 H 0.3644 0.27276 0.95393 0.0
C265 C 0.20916 0.61661 0.46745 0.0
C266 C 0.20463 0.59722 0.43803 0.0
C267 C 0.23063 0.60669 0.41772 0.0
C268 C 0.24943 0.63124 0.43592 0.0
N269 N 0.23687 0.63742 0.46636 0.0
Co270 Co 0.25386 0.67182 0.50028 0.0
N271 N 0.27785 0.69758 0.46619 0.0
C272 C 0.28567 0.68584 0.43538 0.0
C273 C 0.30288 0.70935 0.41749 0.0
C274 C 0.30649 0.73738 0.43853 0.0
C275 C 0.29131 0.72934 0.46827 0.0
N276 N 0.27092 0.70576 0.53472 0.0
C277 C 0.28537 0.73664 0.53122 0.0
C278 C 0.29483 0.7517 0.56213 0.0
C279 C 0.2864 0.72911 0.58552 0.0
C280 C 0.27228 0.70159 0.56778 0.0
N281 N 0.22937 0.64582 0.53378 0.0
C282 C 0.23499 0.64751 0.56685 0.0
C283 C 0.21206 0.62768 0.58338 0.0
C284 C 0.19075 0.61287 0.55905 0.0
C285 C 0.20203 0.62455 0.52908 0.0
N286 N 0.29431 0.64726 0.50744 0.0
C287 C 0.35368 0.61692 0.52342 0.0
C288 C 0.32262 0.59832 0.52156 0.0
C289 C 0.29319 0.61396 0.51331 0.0
C290 C 0.35418 0.65045 0.51586 0.0
C291 C 0.32464 0.66497 0.50836 0.0
N292 N 0.21434 0.69742 0.49354 0.0
C293 C 0.17529 0.73537 0.5166 0.0
C294 C 0.16632 0.74422 0.48463 0.0
C295 C 0.18002 0.72729 0.45713 0.0
C296 C 0.20404 0.70403 0.46211 0.0
C297 C 0.19907 0.71179 0.5205 0.0
H298 H 0.21541 0.69257 0.44053 0.0
H299 H 0.20625 0.70639 0.54546 0.0
H300 H 0.26953 0.59943 0.51247 0.0
H301 H 0.32659 0.69106 0.5042 0.0
C302 C 0.27289 0.65426 0.42289 0.0
C303 C 0.1873 0.61483 0.49629 0.0
C304 C 0.29447 0.75057 0.49918 0.0
C305 C 0.25612 0.67351 0.58143 0.0
H306 H 0.18436 0.57879 0.43177 0.0
H307 H 0.23397 0.59836 0.39197 0.0
H308 H 0.31134 0.70665 0.39203 0.0
H309 H 0.31971 0.76071 0.43302 0.0
H310 H 0.30733 0.77612 0.5672 0.0
H311 H 0.28963 0.73261 0.61229 0.0
H312 H 0.20967 0.62591 0.61005 0.0
H313 H 0.1692 0.59597 0.56292 0.0
H314 H 0.32084 0.5723 0.52737 0.0
H315 H 0.3774 0.66584 0.51624 0.0
H316 H 0.16484 0.74746 0.53851 0.0
H317 H 0.1736 0.7333 0.43199 0.0
C318 C 0.79607 0.85308 0.46485 0.0
C319 C 0.79875 0.86344 0.4326 0.0
C320 C 0.77098 0.84941 0.4154 0.0
C321 C 0.75297 0.83138 0.43812 0.0
N322 N 0.7677 0.8335 0.46841 0.0
Co323 Co 0.75247 0.80973 0.50799 0.0
N324 N 0.72479 0.7761 0.48029 0.0
C325 C 0.7146 0.77964 0.44867 0.0
C326 C 0.69422 0.75305 0.43622 0.0
C327 C 0.69099 0.73178 0.46177 0.0
C328 C 0.70967 0.74663 0.48851 0.0
N329 N 0.73795 0.78626 0.54809 0.0
C330 C 0.72276 0.75547 0.55057 0.0
C331 C 0.71693 0.74898 0.58373 0.0
C332 C 0.72803 0.77709 0.60241 0.0
C333 C 0.74019 0.79905 0.57979 0.0
N334 N 0.78005 0.84373 0.53526 0.0
C335 C 0.77715 0.85115 0.56808 0.0
C336 C 0.8014 0.87458 0.58009 0.0
C337 C 0.8208 0.88208 0.55314 0.0
C338 C 0.80712 0.86282 0.52615 0.0
N339 N 0.71309 0.83692 0.51186 0.0
C340 C 0.65324 0.87047 0.50979 0.0
C341 C 0.65347 0.8377 0.51971 0.0
C342 C 0.68311 0.8215 0.5202 0.0
C343 C 0.68424 0.8868 0.50232 0.0
C344 C 0.71394 0.86966 0.50383 0.0
N345 N 0.79076 0.78166 0.50362 0.0
C346 C 0.83316 0.75037 0.52836 0.0
C347 C 0.84069 0.7359 0.49705 0.0
C348 C 0.82345 0.74553 0.46907 0.0
C349 C 0.79851 0.76814 0.47289 0.0
C350 C 0.80847 0.7736 0.53105 0.0
H351 H 0.78484 0.77393 0.45095 0.0
H352 H 0.80309 0.78437 0.55541 0.0
H353 H 0.68111 0.79586 0.52638 0.0
H354 H 0.73737 0.88249 0.49752 0.0
C355 C 0.7276 0.80636 0.4305 0.0
C356 C 0.81987 0.86296 0.4921 0.0
C357 C 0.70912 0.73406 0.52223 0.0
C358 C 0.75755 0.82989 0.58758 0.0
H359 H 0.81884 0.87902 0.42257 0.0
H360 H 0.76579 0.85046 0.389 0.0
H361 H 0.68331 0.74935 0.41144 0.0
H362 H 0.67589 0.70846 0.46109 0.0
H363 H 0.70494 0.72668 0.59337 0.0
H364 H 0.72775 0.78081 0.62928 0.0
H365 H 0.80601 0.88332 0.60577 0.0
H366 H 0.84287 0.89907 0.55355 0.0
H367 H 0.63057 0.8241 0.52659 0.0
H368 H 0.68552 0.91215 0.4944 0.0
H369 H 0.84603 0.74352 0.55059 0.0
H370 H 0.8283 0.73461 0.44448 0.0
C371 C 0.48828 0.8239 0.87699 0.0
C372 C 0.45706 0.83188 0.88843 0.0
C373 C 0.43528 0.8054 0.87909 0.0
C374 C 0.45437 0.78288 0.86248 0.0
N375 N 0.48718 0.79303 0.86134 0.0
Co376 Co 0.52302 0.77006 0.83618 0.0
N377 N 0.49013 0.73428 0.81691 0.0
C378 C 0.45746 0.72976 0.82484 0.0
C379 C 0.4413 0.70266 0.80816 0.0
C380 C 0.46509 0.68898 0.78851 0.0
C381 C 0.4945 0.70866 0.79427 0.0
N382 N 0.55878 0.74823 0.80982 0.0
C383 C 0.55658 0.72186 0.78721 0.0
C384 C 0.58755 0.71584 0.77362 0.0
C385 C 0.61011 0.73907 0.78825 0.0
C386 C 0.59173 0.75803 0.80967 0.0
N387 N 0.55605 0.80528 0.85621 0.0
C388 C 0.58968 0.80656 0.85301 0.0
C389 C 0.6057 0.83435 0.86857 0.0
C390 C 0.58079 0.85223 0.882 0.0
C391 C 0.55087 0.8342 0.87382 0.0
N392 N 0.53084 0.74094 0.87403 0.0
C393 C 0.53826 0.68446 0.91147 0.0
C394 C 0.56603 0.7013 0.8978 0.0
C395 C 0.56186 0.72956 0.87971 0.0
C396 C 0.50764 0.69905 0.91011 0.0
C397 C 0.50462 0.72742 0.89176 0.0
N398 N 0.51484 0.79803 0.7982 0.0
C399 C 0.53481 0.83403 0.75528 0.0
C400 C 0.50271 0.83322 0.74121 0.0
C401 C 0.47666 0.81574 0.75677 0.0
C402 C 0.48315 0.7987 0.78517 0.0
C403 C 0.54038 0.81612 0.78361 0.0
H404 H 0.4622 0.78583 0.79594 0.0
H405 H 0.56549 0.81675 0.79309 0.0
H406 H 0.58387 0.74071 0.86924 0.0
H407 H 0.48043 0.73684 0.89111 0.0
C408 C 0.44207 0.75314 0.84567 0.0
C409 C 0.51811 0.84676 0.88082 0.0
C410 C 0.52589 0.70195 0.77769 0.0
C411 C 0.60475 0.78462 0.8306 0.0
H412 H 0.45065 0.85479 0.90152 0.0
H413 H 0.40851 0.80334 0.8829 0.0
H414 H 0.41515 0.69425 0.80958 0.0
H415 H 0.46125 0.66711 0.77168 0.0
H416 H 0.59329 0.69663 0.75504 0.0
H417 H 0.63674 0.74182 0.7838 0.0
H418 H 0.63215 0.84181 0.86832 0.0
H419 H 0.58421 0.87648 0.89499 0.0
H420 H 0.59063 0.69166 0.89954 0.0
H421 H 0.48561 0.68745 0.92126 0.0
H422 H 0.5556 0.84758 0.74394 0.0
H423 H 0.45133 0.81505 0.74688 0.0
C424 C 0.54616 0.31283 0.65132 0.0
C425 C 0.57698 0.32377 0.63913 0.0
C426 C 0.59925 0.30133 0.64813 0.0
C427 C 0.5808 0.27804 0.66519 0.0
N428 N 0.54797 0.28395 0.66698 0.0
Co429 Co 0.51246 0.25822 0.69143 0.0
N430 N 0.54638 0.23099 0.71271 0.0
C431 C 0.57977 0.23249 0.70733 0.0
C432 C 0.59679 0.21157 0.72624 0.0
C433 C 0.57294 0.19601 0.74507 0.0
C434 C 0.5426 0.20841 0.73656 0.0
N435 N 0.47683 0.2321 0.71558 0.0
C436 C 0.47948 0.20873 0.73852 0.0
C437 C 0.44822 0.19696 0.74912 0.0
C438 C 0.42509 0.21335 0.73226 0.0
C439 C 0.44335 0.23425 0.71247 0.0
N440 N 0.47873 0.28637 0.67125 0.0
C441 C 0.44508 0.28331 0.67445 0.0
C442 C 0.42881 0.30819 0.66038 0.0
C443 C 0.45362 0.32892 0.64827 0.0
C444 C 0.48364 0.31528 0.65558 0.0
N445 N 0.50724 0.22461 0.65324 0.0
C446 C 0.49633 0.16507 0.61433 0.0
C447 C 0.47024 0.18579 0.62046 0.0
C448 C 0.47631 0.21551 0.63954 0.0
C449 C 0.5287 0.17679 0.62355 0.0
C450 C 0.53361 0.20682 0.64249 0.0
N451 N 0.51757 0.2911 0.72931 0.0
C452 C 0.49335 0.32522 0.77268 0.0
C453 C 0.52519 0.33603 0.78449 0.0
C454 C 0.55315 0.325 0.76794 0.0
C455 C 0.54879 0.30274 0.74037 0.0
C456 C 0.4901 0.30261 0.74518 0.0
H457 H 0.57095 0.29489 0.72862 0.0
H458 H 0.46524 0.29432 0.73744 0.0
H459 H 0.45517 0.22961 0.64407 0.0
H460 H 0.55875 0.21404 0.64939 0.0
C461 C 0.59437 0.25433 0.68478 0.0
C462 C 0.51631 0.33169 0.64937 0.0
C463 C 0.51093 0.19786 0.75181 0.0
C464 C 0.42999 0.2585 0.69346 0.0
H465 H 0.58292 0.34635 0.62629 0.0
H466 H 0.62606 0.30305 0.64458 0.0
H467 H 0.62342 0.20829 0.72656 0.0
H468 H 0.57736 0.17769 0.76314 0.0
H469 H 0.44264 0.17889 0.76761 0.0
H470 H 0.39817 0.21114 0.73498 0.0
H471 H 0.40223 0.31173 0.66036 0.0
H472 H 0.4501 0.35205 0.63649 0.0
H473 H 0.44488 0.17807 0.61241 0.0
H474 H 0.54979 0.1618 0.61829 0.0
H475 H 0.4712 0.3333 0.78525 0.0
H476 H 0.57822 0.33313 0.77659 0.0
C477 C 0.88446 0.47066 0.81068 0.0
C478 C 0.89215 0.43908 0.81924 0.0
C479 C 0.87429 0.41694 0.79783 0.0
C480 C 0.85678 0.43622 0.77748 0.0
N481 N 0.86311 0.46934 0.78414 0.0
Co482 Co 0.84092 0.5065 0.76321 0.0
N483 N 0.80716 0.47453 0.73927 0.0
C484 C 0.80562 0.44083 0.73962 0.0
C485 C 0.77891 0.42561 0.72191 0.0
C486 C 0.76222 0.4511 0.70979 0.0
C487 C 0.77984 0.48053 0.72077 0.0
N488 N 0.81909 0.54377 0.74207 0.0
C489 C 0.7911 0.54322 0.72267 0.0
C490 C 0.78478 0.5749 0.71307 0.0
C491 C 0.80956 0.59622 0.72702 0.0
C492 C 0.82958 0.57646 0.74425 0.0
N493 N 0.87378 0.53842 0.78839 0.0
C494 C 0.87724 0.5719 0.78627 0.0
C495 C 0.89939 0.58743 0.80927 0.0
C496 C 0.90993 0.56247 0.82784 0.0
C497 C 0.89362 0.53312 0.81493 0.0
N498 N 0.87148 0.50329 0.7241 0.0
C499 C 0.90209 0.50143 0.66106 0.0
C500 C 0.90421 0.53056 0.68162 0.0
C501 C 0.889 0.53089 0.71291 0.0
C502 C 0.88738 0.47256 0.67377 0.0
C503 C 0.87287 0.47393 0.70525 0.0
N504 N 0.81033 0.50963 0.80129 0.0
C505 C 0.77862 0.54241 0.84025 0.0
C506 C 0.76391 0.5134 0.85293 0.0
C507 C 0.77359 0.4826 0.84018 0.0
C508 C 0.7966 0.48128 0.81448 0.0
C509 C 0.80183 0.53998 0.81462 0.0
H510 H 0.80254 0.45704 0.80525 0.0
H511 H 0.81234 0.56283 0.80556 0.0
H512 H 0.89094 0.55407 0.72695 0.0
H513 H 0.86208 0.45099 0.7131 0.0
C514 C 0.82945 0.42432 0.75723 0.0
C515 C 0.8958 0.50111 0.83 0.0
C516 C 0.76953 0.51353 0.71312 0.0
C517 C 0.85633 0.5882 0.76525 0.0
H518 H 0.90775 0.43277 0.83986 0.0
H519 H 0.87231 0.39003 0.79873 0.0
H520 H 0.77218 0.39915 0.71851 0.0
H521 H 0.73956 0.44839 0.69472 0.0
H522 H 0.76412 0.58191 0.69792 0.0
H523 H 0.81213 0.62306 0.72557 0.0
H524 H 0.90562 0.61393 0.81331 0.0
H525 H 0.92666 0.56562 0.84926 0.0
H526 H 0.91607 0.55342 0.67295 0.0
H527 H 0.88617 0.44914 0.65902 0.0
H528 H 0.77199 0.56679 0.84982 0.0
H529 H 0.76262 0.45953 0.84927 0.0
C530 C 0.15645 0.03885 0.80709 0.0
C531 C 0.14862 0.071 0.81685 0.0
C532 C 0.16032 0.09113 0.7926 0.0
C533 C 0.1745 0.0702 0.76944 0.0
N534 N 0.17186 0.0378 0.77712 0.0
Co535 Co 0.19133 0.99931 0.75201 0.0
N536 N 0.2165 0.02969 0.72151 0.0
C537 C 0.21541 0.06325 0.72131 0.0
C538 C 0.23598 0.07748 0.6982 0.0
C539 C 0.25132 0.05152 0.68286 0.0
C540 C 0.23921 0.0228 0.69756 0.0
N541 N 0.21062 0.96069 0.72674 0.0
C542 C 0.23322 0.96017 0.7017 0.0
C543 C 0.23974 0.92774 0.6914 0.0
C544 C 0.22061 0.9071 0.71048 0.0
C545 C 0.20359 0.92792 0.73138 0.0
N546 N 0.16712 0.96908 0.7833 0.0
C547 C 0.16597 0.93534 0.782 0.0
C548 C 0.15026 0.92159 0.80865 0.0
C549 C 0.14166 0.94814 0.82867 0.0
C550 C 0.1525 0.97666 0.8129 0.0
N551 N 0.15241 0.99557 0.72043 0.0
C552 C 0.11212 0.98632 0.66283 0.0
C553 C 0.11636 0.95996 0.68331 0.0
C554 C 0.13609 0.96523 0.71212 0.0
C555 C 0.12421 0.0182 0.67398 0.0
C556 C 0.14385 0.02229 0.703 0.0
N557 N 0.22994 1.00299 0.78285 0.0
C558 C 0.26957 0.97754 0.81746 0.0
C559 C 0.28387 0.00892 0.82782 0.0
C560 C 0.27092 0.03722 0.81546 0.0
C561 C 0.24424 0.0337 0.79296 0.0
C562 C 0.24261 0.97514 0.79505 0.0
H563 H 0.23559 0.05614 0.78397 0.0
H564 H 0.23235 0.95063 0.78791 0.0
H565 H 0.13901 0.94399 0.72618 0.0
H566 H 0.15307 0.04704 0.70966 0.0
C567 C 0.19538 0.08072 0.74373 0.0
C568 C 0.15041 0.01039 0.82787 0.0
C569 C 0.24992 0.9896 0.68769 0.0
C570 C 0.18312 0.91759 0.7574 0.0
H571 H 0.13688 0.07917 0.83976 0.0
H572 H 0.1604 0.11807 0.79291 0.0
H573 H 0.23965 0.10366 0.6933 0.0
H574 H 0.26944 0.05348 0.66312 0.0
H575 H 0.25696 0.91977 0.67244 0.0
H576 H 0.21991 0.88012 0.70985 0.0
H577 H 0.14707 0.89544 0.81381 0.0
H578 H 0.12992 0.94664 0.85273 0.0
H579 H 0.10623 0.93497 0.67603 0.0
H580 H 0.12063 0.03949 0.65919 0.0
H581 H 0.27908 0.95506 0.82665 0.0
H582 H 0.28179 0.06196 0.82265 0.0
C583 C 0.72736 0.13954 0.96543 0.0
C584 C 0.7172 0.12633 0.93413 0.0
C585 C 0.73814 0.14104 0.91181 0.0
C586 C 0.75968 0.16231 0.93079 0.0
N587 N 0.7543 0.16144 0.96391 0.0
Co588 Co 0.77732 0.19014 1.00059 0.0
N589 N 0.80364 0.21648 0.96766 0.0
C590 C 0.80369 0.21099 0.93412 0.0
C591 C 0.82486 0.23287 0.91821 0.0
C592 C 0.83924 0.25357 0.94305 0.0
C593 C 0.82583 0.2431 0.97277 0.0
N594 N 0.79978 0.21915 0.03738 0.0
C595 C 0.82196 0.24584 0.03581 0.0
C596 C 0.83083 0.25957 0.06736 0.0
C597 C 0.81382 0.2407 0.08966 0.0
C598 C 0.79547 0.21675 0.07057 0.0
N599 N 0.75109 0.16347 0.03337 0.0
C600 C 0.75359 0.1662 0.06702 0.0
C601 C 0.73061 0.14578 0.08259 0.0
C602 C 0.71184 0.1296 0.05741 0.0
C603 C 0.7246 0.14117 0.02792 0.0
N604 N 0.81447 0.15924 1.00233 0.0
C605 C 0.87719 0.13127 0.00542 0.0
C606 C 0.85976 0.13905 0.0344 0.0
C607 C 0.82849 0.15241 0.03228 0.0
C608 C 0.86114 0.13411 0.97484 0.0
C609 C 0.82981 0.14782 0.97388 0.0
N610 N 0.7411 0.22163 0.99897 0.0
C611 C 0.70373 0.25837 0.02752 0.0
C612 C 0.69632 0.27293 0.99778 0.0
C613 C 0.70999 0.25993 0.96834 0.0
C614 C 0.73193 0.23425 0.96945 0.0
C615 C 0.7261 0.23297 0.02758 0.0
H616 H 0.74186 0.22547 0.94625 0.0
H617 H 0.7316 0.22346 0.05118 0.0
H618 H 0.81693 0.15827 0.05533 0.0
H619 H 0.81927 0.15011 0.9498 0.0
C620 C 0.78278 0.18577 0.91821 0.0
C621 C 0.70893 0.13287 0.99557 0.0
C622 C 0.83497 0.25923 0.00515 0.0
C623 C 0.77408 0.19168 0.08308 0.0
H624 H 0.69604 0.10889 0.92808 0.0
H625 H 0.73675 0.13787 0.8849 0.0
H626 H 0.82915 0.23381 0.89171 0.0
H627 H 0.8575 0.27409 0.93969 0.0
H628 H 0.84778 0.28105 0.07367 0.0
H629 H 0.81464 0.2441 0.11657 0.0
H630 H 0.72662 0.14438 0.10911 0.0
H631 H 0.69029 0.11242 0.06035 0.0
H632 H 0.87082 0.13605 0.0587 0.0
H633 H 0.87344 0.1275 0.95173 0.0
H634 H 0.69345 0.26751 0.05087 0.0
H635 H 0.70426 0.27 0.94461 0.0
O636 O 0.14044 0.0501 0.11387 0.0
Zn637 Zn 0.09455 0.0586 0.09736 0.0
O638 O 0.09683 0.07265 0.05199 0.0
Zn639 Zn 0.08314 0.11811 0.05204 0.0
Zn640 Zn 0.14254 0.07027 0.0355 0.0
Zn641 Zn 0.06619 0.04364 0.02357 0.0
O642 O 0.03848 0.11949 0.02902 0.0
O643 O 0.02244 0.06631 0.0169 0.0
O644 O 0.07521 0.09277 0.12971 0.0
O645 O 0.07445 0.13653 0.09862 0.0
O646 O 0.11908 0.1489 0.03327 0.0
O647 O 0.16226 0.11691 0.02944 0.0
O648 O 0.14199 0.04731 0.9887 0.0
O649 O 0.06961 0.01399 0.09834 0.0
O650 O 0.08787 0.03477 0.97846 0.0
O651 O 0.05619 0.99947 0.04559 0.0
C652 C 0.1685 0.04529 0.10038 0.0
C653 C 0.01612 0.0971 0.0191 0.0
C654 C 0.14996 0.14524 0.02759 0.0
C655 C 0.07031 0.12349 0.12659 0.0
C656 C 0.1182 0.03649 0.96871 0.0
C657 C 0.058 0.99242 0.07618 0.0
O658 O 0.17304 0.0498 0.06942 0.0
O659 O 0.91586 0.48641 0.1128 0.0
Zn660 Zn 0.96298 0.47985 0.09748 0.0
O661 O 0.96247 0.46117 0.05168 0.0
Zn662 Zn 0.98063 0.41743 0.05097 0.0
Zn663 Zn 0.91668 0.458 0.03442 0.0
Zn664 Zn 0.98995 0.48947 0.02341 0.0
O665 O 0.02597 0.418 0.02922 0.0
O666 O 0.03593 0.47114 0.01743 0.0
O667 O 0.98345 0.44971 0.13035 0.0
O668 O 0.98855 0.40407 0.09779 0.0
O669 O 0.94811 0.38197 0.02995 0.0
O670 O 0.90231 0.4099 0.02549 0.0
O671 O 0.91395 0.47824 0.9894 0.0
O672 O 0.98603 0.52567 0.09936 0.0
O673 O 0.96681 0.49308 0.97797 0.0
O674 O 0.99723 0.5352 0.04648 0.0
C675 C 0.88716 0.48535 0.09867 0.0
C676 C 0.04556 0.44168 0.01949 0.0
C677 C 0.91703 0.38276 0.02307 0.0
C678 C 0.99032 0.41922 0.12647 0.0
C679 C 0.93596 0.48905 0.96918 0.0
C680 C 0.99627 0.54521 0.07712 0.0
O681 O 0.88349 0.47642 0.06782 0.0
O682 O 0.10278 0.88719 0.46202 0.0
Zn683 Zn 0.08942 0.93421 0.45724 0.0
O684 O 0.04393 0.93486 0.44021 0.0
Zn685 Zn 0.04497 0.95413 0.39684 0.0
Zn686 Zn 0.02477 0.88889 0.43681 0.0
Zn687 Zn 0.01694 0.96236 0.46972 0.0
O688 O 0.02414 0.99871 0.39778 0.0
O689 O 0.01346 0.00902 0.45141 0.0
O690 O 0.12381 0.95668 0.4278 0.0
O691 O 0.09251 0.96434 0.38343 0.0
O692 O 0.02525 0.92154 0.36102 0.0
O693 O 0.01783 0.87532 0.38861 0.0
O694 O 0.9785 0.88609 0.45704 0.0
O695 O 0.09146 0.95441 0.50347 0.0
O696 O 0.97021 0.93852 0.47385 0.0
O697 O 0.03968 0.96781 0.51549 0.0
C698 C 0.08714 0.85863 0.46199 0.0
C699 C 0.01562 0.01854 0.4216 0.0
C700 C 0.01755 0.89033 0.36153 0.0
C701 C 0.12096 0.96551 0.39797 0.0
C702 C 0.9594 0.90798 0.46884 0.0
C703 C 0.07 0.96446 0.52424 0.0
O704 O 0.05593 0.8551 0.45477 0.0
O705 O 0.98547 0.60379 0.39237 0.0
Zn706 Zn 0.98172 0.59055 0.43966 0.0
O707 O 0.96194 0.54498 0.44033 0.0
Zn708 Zn 0.91802 0.54702 0.46075 0.0
Zn709 Zn 0.95763 0.52558 0.39456 0.0
Zn710 Zn 0.98995 0.51703 0.46609 0.0
O711 O 0.91741 0.52558 0.5046 0.0
O712 O 0.96933 0.5104 0.51202 0.0
O713 O 0.95276 0.62522 0.46162 0.0
O714 O 0.90618 0.59458 0.47102 0.0
O715 O 0.8817 0.52586 0.43025 0.0
O716 O 0.90903 0.5162 0.38333 0.0
O717 O 0.977 0.48019 0.38991 0.0
O718 O 0.02848 0.59297 0.45945 0.0
O719 O 0.99388 0.47098 0.4412 0.0
O720 O 0.03618 0.54109 0.47319 0.0
C721 C 0.98313 0.58887 0.36364 0.0
C722 C 0.93967 0.51378 0.52262 0.0
C723 C 0.88189 0.51615 0.39957 0.0
C724 C 0.92243 0.62284 0.4711 0.0
C725 C 0.98849 0.4608 0.41074 0.0
C726 C 0.04722 0.57136 0.47047 0.0
O727 O 0.97533 0.55762 0.36009 0.0
O728 O 0.39142 0.96563 0.61186 0.0
Zn729 Zn 0.43776 0.95978 0.5943 0.0
O730 O 0.43641 0.94212 0.54855 0.0
Zn731 Zn 0.45239 0.89742 0.54737 0.0
Zn732 Zn 0.39033 0.94269 0.53211 0.0
Zn733 Zn 0.46573 0.9694 0.52094 0.0
O734 O 0.49735 0.89562 0.52436 0.0
O735 O 0.51098 0.94875 0.51506 0.0
O736 O 0.46064 0.93053 0.62559 0.0
O737 O 0.46188 0.88369 0.59408 0.0
O738 O 0.41688 0.86435 0.527 0.0
O739 O 0.37325 0.89545 0.52236 0.0
O740 O 0.38906 0.96362 0.48688 0.0
O741 O 0.45947 0.0055 0.59592 0.0
O742 O 0.44289 0.97399 0.47573 0.0
O743 O 0.47363 0.01534 0.54379 0.0
C744 C 0.36268 0.96773 0.59859 0.0
C745 C 0.51869 0.91846 0.51585 0.0
C746 C 0.38606 0.86725 0.51999 0.0
C747 C 0.46629 0.89973 0.62215 0.0
C748 C 0.41207 0.97232 0.46666 0.0
C749 C 0.47056 0.02519 0.57425 0.0
O750 O 0.35826 0.96202 0.56716 0.0
O751 O 0.61817 0.53581 0.6549 0.0
Zn752 Zn 0.57018 0.54034 0.63958 0.0
O753 O 0.56881 0.55323 0.59338 0.0
Zn754 Zn 0.55387 0.59825 0.59114 0.0
Zn755 Zn 0.61357 0.55014 0.57514 0.0
Zn756 Zn 0.53812 0.52318 0.56629 0.0
O757 O 0.50754 0.59742 0.56944 0.0
O758 O 0.49333 0.54358 0.55887 0.0
O759 O 0.55082 0.57579 0.67124 0.0
O760 O 0.54715 0.61764 0.63766 0.0
O761 O 0.58878 0.62856 0.56842 0.0
O762 O 0.63101 0.59549 0.56347 0.0
O763 O 0.61282 0.52385 0.5308 0.0
O764 O 0.54758 0.49378 0.64202 0.0
O765 O 0.55832 0.51439 0.52058 0.0
O766 O 0.53107 0.47981 0.58979 0.0
C767 C 0.64563 0.5321 0.63973 0.0
C768 C 0.48595 0.57404 0.55982 0.0
C769 C 0.61895 0.62366 0.56027 0.0
C770 C 0.54478 0.60607 0.66653 0.0
C771 C 0.58861 0.51443 0.51096 0.0
C772 C 0.53518 0.47225 0.62001 0.0
O773 O 0.64715 0.53428 0.6082 0.0
O774 O 0.63368 0.41988 0.99826 0.0
Zn775 Zn 0.61924 0.46686 0.9982 0.0
O776 O 0.57413 0.46712 0.98089 0.0
Zn777 Zn 0.57584 0.48297 0.93644 0.0
Zn778 Zn 0.55503 0.42144 0.98036 0.0
Zn779 Zn 0.54693 0.49646 0.00787 0.0
O780 O 0.55569 0.5265 0.93406 0.0
O781 O 0.5439 0.54198 0.98614 0.0
O782 O 0.65312 0.491 0.96982 0.0
O783 O 0.6231 0.49317 0.92335 0.0
O784 O 0.55561 0.44954 0.90228 0.0
O785 O 0.5467 0.40575 0.93317 0.0
O786 O 0.50936 0.41961 1.00095 0.0
O787 O 0.62011 0.48544 0.0453 0.0
O788 O 0.50003 0.47309 0.01159 0.0
O789 O 0.569 0.50287 0.05408 0.0
C790 C 0.61846 0.39119 0.99912 0.0
C791 C 0.54701 0.54861 0.95544 0.0
C792 C 0.54695 0.41887 0.9051 0.0
C793 C 0.65075 0.49757 0.93926 0.0
C794 C 0.48965 0.44226 0.00941 0.0
C795 C 0.59846 0.49785 0.06455 0.0
O796 O 0.58659 0.38779 0.99713 0.0
O797 O 0.50638 0.13198 0.89776 0.0
Zn798 Zn 0.50199 0.11817 0.94513 0.0
O799 O 0.48202 0.07286 0.94644 0.0
Zn800 Zn 0.43815 0.07454 0.96684 0.0
Zn801 Zn 0.47857 0.05357 0.90074 0.0
Zn802 Zn 0.5093 0.04499 0.97278 0.0
O803 O 0.43685 0.05279 0.01068 0.0
O804 O 0.48898 0.03872 0.01887 0.0
O805 O 0.47371 0.15239 0.96824 0.0
O806 O 0.42688 0.12196 0.97741 0.0
O807 O 0.40231 0.0527 0.93642 0.0
O808 O 0.43064 0.04169 0.89028 0.0
O809 O 0.49883 0.0087 0.89623 0.0
O810 O 0.54837 0.11994 0.96475 0.0
O811 O 0.51219 0.99895 0.94842 0.0
O812 O 0.55563 0.06817 0.97917 0.0
C813 C 0.50347 0.11719 0.86897 0.0
C814 C 0.45915 0.04162 0.02911 0.0
C815 C 0.40343 0.0413 0.90631 0.0
C816 C 0.44357 0.15001 0.97824 0.0
C817 C 0.50825 0.98894 0.91778 0.0
C818 C 0.56684 0.09829 0.97601 0.0
O819 O 0.49455 0.08612 0.86579 0.0
C820 C 0.99918 0.09374 0.37212 0.0
C821 C 0.01337 0.12103 0.39214 0.0
C822 C 0.99846 0.06101 0.38265 0.0
C823 C 0.01114 0.05393 0.41407 0.0
H824 H 0.98957 0.09752 0.34739 0.0
H825 H 0.98874 0.0409 0.36555 0.0
S826 S 0.04849 0.11624 0.47747 0.0
N827 N 0.03885 0.13869 0.44587 0.0
N828 N 0.03643 0.07719 0.46614 0.0
C829 C 0.02338 0.08107 0.43536 0.0
C830 C 0.02466 0.11457 0.42435 0.0
C831 C 0.00775 0.36855 0.41291 0.0
C832 C 1.00183 0.35621 0.37981 0.0
C833 C 1.00389 0.40232 0.42258 0.0
C834 C 0.99372 0.42519 0.39957 0.0
H835 H 0.01551 0.35196 0.4315 0.0
H836 H 0.00874 0.41044 0.4484 0.0
S837 S 0.97407 0.40441 0.30974 0.0
N838 N 0.98476 0.36885 0.32418 0.0
N839 N 0.97719 0.43195 0.34178 0.0
C840 C 0.98734 0.41273 0.36634 0.0
C841 C 0.99134 0.37839 0.35666 0.0
C842 C 0.02747 0.9003 0.07154 0.0
C843 C 0.03785 0.88956 0.1025 0.0
C844 C 0.03341 0.93374 0.06335 0.0
C845 C 0.04945 0.9577 0.08607 0.0
H846 H 0.01543 0.88258 0.05326 0.0
H847 H 0.02571 0.94073 0.0389 0.0
S848 S 0.07906 0.942 0.17167 0.0
N849 N 0.06315 0.90537 0.1566 0.0
N850 N 0.07424 0.96792 0.14175 0.0
C851 C 0.0589 0.94718 0.11763 0.0
C852 C 0.05313 0.91321 0.12568 0.0
C853 C 0.01787 0.63795 0.06993 0.0
C854 C 0.01536 0.6506 0.10291 0.0
C855 C 0.01279 0.60363 0.06196 0.0
C856 C 0.0049 0.58091 0.08676 0.0
H857 H 0.02303 0.65477 0.05016 0.0
H858 H 0.01422 0.59505 0.03604 0.0
S859 S 0.99732 0.60267 0.17745 0.0
N860 N 0.00595 0.63874 0.16065 0.0
N861 N 0.99643 0.5742 0.14623 0.0
C862 C 1.00339 0.59358 0.12013 0.0
C863 C 0.00857 0.62847 0.12805 0.0
C864 C 0.40646 0.01352 0.10163 0.0
C865 C 0.427 0.02289 0.12955 0.0
C866 C 0.41748 0.01893 0.06922 0.0
C867 C 0.44978 0.0332 0.06343 0.0
H868 H 0.38126 1.0028 0.10494 0.0
H869 H 0.40042 0.01218 0.04851 0.0
S870 S 0.51355 0.06116 0.12825 0.0
N871 N 0.48113 0.04677 0.14956 0.0
N872 N 0.50241 0.05605 0.08849 0.0
C873 C 0.47095 0.04179 0.09115 0.0
C874 C 0.45938 0.03694 0.12426 0.0
C875 C 0.58949 0.5032 0.15874 0.0
C876 C 0.6229 0.50489 0.16988 0.0
C877 C 0.58169 0.50257 0.12455 0.0
C878 C 0.60711 0.50334 0.1005 0.0
H879 H 0.56936 0.50176 0.17654 0.0
H880 H 0.55558 0.5002 0.11692 0.0
S881 S 0.69874 0.51049 0.11806 0.0
N882 N 0.68149 0.50937 0.15517 0.0
N883 N 0.66728 0.50807 0.09095 0.0
C884 C 0.64072 0.5062 0.11175 0.0
C885 C 0.64849 0.50699 0.14646 0.0
C886 C 0.42104 0.99239 0.37488 0.0
C887 C 0.38796 0.989 0.36263 0.0
C888 C 0.42847 0.98748 0.40853 0.0
C889 C 0.40308 0.97893 0.43134 0.0
H890 H 0.44132 0.99884 0.35829 0.0
H891 H 0.45444 0.9902 0.41658 0.0
S892 S 0.31203 0.96749 0.41085 0.0
N893 N 0.32958 0.97696 0.37526 0.0
N894 N 0.34301 0.96761 0.43834 0.0
C895 C 0.36973 0.97565 0.41907 0.0
C896 C 0.36233 0.98064 0.3848 0.0
C897 C 0.63679 0.49221 0.43261 0.0
C898 C 0.61565 0.50125 0.40688 0.0
C899 C 0.62736 0.49544 0.46614 0.0
C900 C 0.59611 0.50714 0.47521 0.0
H901 H 0.66132 0.48366 0.42683 0.0
H902 H 0.64496 0.48925 0.48516 0.0
S903 S 0.53102 0.53252 0.41682 0.0
N904 N 0.56183 0.52144 0.39239 0.0
N905 N 0.5436 0.52684 0.45527 0.0
C906 C 0.57424 0.51511 0.44951 0.0
C907 C 0.58417 0.51242 0.4154 0.0
C908 C 0.12149 0.39574 0.99379 0.0
C909 C 0.14798 0.4137 0.01166 0.0
C910 C 0.08864 0.4058 0.99522 0.0
C911 C 0.08099 0.43492 0.01358 0.0
H912 H 0.1259 0.37283 0.97953 0.0
H913 H 0.0689 0.39017 0.98256 0.0
S914 S 0.1409 0.4926 0.06268 0.0
N915 N 0.1641 0.46305 0.04726 0.0
N916 N 0.1025 0.48286 0.0484 0.0
C917 C 0.10736 0.45446 0.02969 0.0
C918 C 0.14083 0.44374 0.02899 0.0
C919 C 0.12849 0.62574 0.48188 0.0
C920 C 0.15153 0.60332 0.49201 0.0
C921 C 0.09482 0.61525 0.47564 0.0
C922 C 0.08288 0.58181 0.4791 0.0
H923 H 0.13667 0.65152 0.47841 0.0
H924 H 0.07817 0.63356 0.46761 0.0
S925 S 0.13421 0.51355 0.50525 0.0
N926 N 0.16088 0.5466 0.50541 0.0
N927 N 0.09765 0.52648 0.49385 0.0
C928 C 0.10596 0.55925 0.48963 0.0
C929 C 0.14027 0.57009 0.496 0.0
C930 C 0.87934 0.8524 0.47859 0.0
C931 C 0.85495 0.87531 0.48546 0.0
C932 C 0.91292 0.86322 0.47362 0.0
C933 C 0.92357 0.89747 0.4754 0.0
H934 H 0.87242 0.82586 0.47733 0.0
H935 H 0.93068 0.84443 0.46842 0.0
S936 S 0.86837 0.9674 0.49163 0.0
N937 N 0.84295 0.93353 0.49289 0.0
N938 N 0.90592 0.95418 0.48393 0.0
C939 C 0.89905 0.92061 0.48209 0.0
C940 C 0.86482 0.90947 0.48695 0.0
C941 C 0.40754 0.62269 0.55639 0.0
C942 C 0.38573 0.6031 0.53436 0.0
C943 C 0.43953 0.61295 0.56436 0.0
C944 C 0.45128 0.5828 0.55116 0.0
H945 H 0.39999 0.64621 0.56735 0.0
H946 H 0.4552 0.62933 0.58113 0.0
S947 S 0.40399 0.52158 0.49312 0.0
N948 N 0.37819 0.55166 0.49981 0.0
N949 N 0.43804 0.53275 0.51559 0.0
C950 C 0.42941 0.56226 0.53 0.0
C951 C 0.39676 0.57247 0.5215 0.0
C952 C 0.52916 0.64124 0.95468 0.0
C953 C 0.54046 0.65007 0.92304 0.0
C954 C 0.53105 0.60843 0.96512 0.0
C955 C 0.54368 0.58312 0.94403 0.0
H956 H 0.5192 0.65992 0.97159 0.0
H957 H 0.52255 0.60291 0.98986 0.0
S958 S 0.57438 0.59354 0.85758 0.0
N959 N 0.56319 0.63085 0.87022 0.0
N960 N 0.56682 0.56973 0.88918 0.0
C961 C 0.55439 0.59182 0.91196 0.0
C962 C 0.55275 0.62509 0.90165 0.0
C963 C 0.52357 0.89619 0.92232 0.0
C964 C 0.51518 0.88296 0.89002 0.0
C965 C 0.52194 0.93047 0.93087 0.0
C966 C 0.51186 0.95294 0.90743 0.0
H967 H 0.53153 0.87988 0.94108 0.0
H968 H 0.52844 0.93931 0.95618 0.0
S969 S 0.48709 0.92986 0.81917 0.0
N970 N 0.49649 0.89428 0.83452 0.0
N971 N 0.49313 0.95847 0.85005 0.0
C972 C 0.50341 0.93965 0.87488 0.0
C973 C 0.50508 0.90477 0.86635 0.0
C974 C 0.51291 0.3785 0.61083 0.0
C975 C 0.51949 0.36778 0.64276 0.0
C976 C 0.51705 0.41241 0.60404 0.0
C977 C 0.52803 0.4369 0.62893 0.0
H978 H 0.50494 0.36047 0.59089 0.0
H979 H 0.51218 0.41929 0.57883 0.0
S980 S 0.54728 0.42074 0.71725 0.0
N981 N 0.53641 0.38351 0.69973 0.0
N982 N 0.54436 0.44725 0.68747 0.0
C983 C 0.53403 0.4262 0.66128 0.0
C984 C 0.52979 0.39164 0.66804 0.0
C985 C 0.50477 0.11558 0.5754 0.0
C986 C 0.48912 0.12979 0.60338 0.0
C987 C 0.49866 0.08163 0.56591 0.0
C988 C 0.47731 0.06081 0.5846 0.0
H989 H 0.52165 0.13084 0.56074 0.0
H990 H 0.51099 0.07157 0.54406 0.0
S991 S 0.43118 0.08642 0.66073 0.0
N992 N 0.45213 0.1208 0.65007 0.0
N993 N 0.4405 0.05725 0.63252 0.0
C994 C 0.46178 0.07493 0.61286 0.0
C995 C 0.46774 0.10937 0.62218 0.0
C996 C 0.9453 0.51207 0.6171 0.0
C997 C 0.91242 0.50174 0.62567 0.0
C998 C 0.95458 0.51409 0.58353 0.0
C999 C 0.93105 0.50662 0.55748 0.0
H1000 H 0.96384 0.51894 0.63649 0.0
H1001 H 0.97994 0.52295 0.57801 0.0
S1002 S 0.84186 0.47792 0.56696 0.0
N1003 N 0.85657 0.48323 0.60554 0.0
N1004 N 0.87369 0.48759 0.5427 0.0
C1005 C 0.89825 0.49574 0.56585 0.0
C1006 C 0.88902 0.49317 0.59987 0.0
C1007 C 0.07313 0.99601 0.61539 0.0
C1008 C 0.10024 0.97979 0.62805 0.0
C1009 C 0.0631 0.99078 0.58178 0.0
C1010 C 0.08044 0.96981 0.55971 0.0
H1011 H 0.05962 0.01274 0.63157 0.0
H1012 H 0.04202 0.00362 0.57294 0.0
S1013 S 0.15388 0.9224 0.58107 0.0
N1014 N 0.14457 0.94255 0.61625 0.0
N1015 N 0.12613 0.93265 0.55339 0.0
C1016 C 0.10777 0.95364 0.57231 0.0
C1017 C 0.11758 0.95867 0.6064 0.0
C1018 C 0.93989 0.49855 0.87494 0.0
C1019 C 0.90606 0.49972 0.86569 0.0
C1020 C 0.9495 0.49616 0.90853 0.0
C1021 C 0.92557 0.49466 0.9341 0.0
H1022 H 0.95898 0.49908 0.85601 0.0
H1023 H 0.97582 0.49466 0.91432 0.0
S1024 S 0.83374 0.49911 0.92234 0.0
N1025 N 0.84881 0.50079 0.88432 0.0
N1026 N 0.86635 0.49627 0.94726 0.0
C1027 C 0.89163 0.4966 0.92491 0.0
C1028 C 0.88202 0.49912 0.89079 0.0
C1029 C 0.16668 0.02663 0.8874 0.0
C1030 C 0.14169 0.01583 0.86379 0.0
C1031 C 0.15898 0.03246 0.92125 0.0
C1032 C 0.12589 0.02789 0.93288 0.0
H1033 H 0.19238 0.03072 0.87959 0.0
H1034 H 0.17919 0.04108 0.9383 0.0
S1035 S 0.05142 0.99981 0.88014 0.0
N1036 N 0.08279 1.00083 0.85377 0.0
N1037 N 0.06795 0.0115 0.91707 0.0
C1038 C 0.10072 0.01683 0.90919 0.0
C1039 C 0.10869 0.01094 0.87477 0.0
C1040 C 0.59211 0.86635 0.49394 0.0
C1041 C 0.62023 0.88599 0.5069 0.0
C1042 C 0.55967 0.87762 0.49569 0.0
C1043 C 0.55377 0.90946 0.50965 0.0
H1044 H 0.59499 0.84141 0.48324 0.0
H1045 H 0.53889 0.86087 0.48668 0.0
S1046 S 0.61848 0.97199 0.54503 0.0
N1047 N 0.63981 0.93969 0.53303 0.0
N1048 N 0.57897 0.9614 0.53505 0.0
C1049 C 0.58172 0.93029 0.52085 0.0
C1050 C 0.61487 0.9185 0.51968 0.0
C1051 C 0.65962 0.09136 0.99368 0.0
C1052 C 0.67246 0.12455 0.99313 0.0
C1053 C 0.62524 0.08318 0.98913 0.0
C1054 C 0.60265 0.10796 0.98367 0.0
H1055 H 0.67634 0.0716 0.99704 0.0
H1056 H 0.61651 0.05713 0.98905 0.0
S1057 S 0.62479 0.19917 0.98209 0.0
N1058 N 0.66081 0.18247 0.98826 0.0
N1059 N 0.5962 0.16765 0.97972 0.0
C1060 C 0.61549 0.14151 0.984 0.0
C1061 C 0.65043 0.14965 0.98868 0.0
C1062 C 0.4086 0.38734 0.01185 0.0
C1063 C 0.38392 0.41045 0.01523 0.0
C1064 C 0.44265 0.39792 0.01109 0.0
C1065 C 0.45341 0.43213 0.01365 0.0
H1066 H 0.40149 0.36084 0.00954 0.0
H1067 H 0.4606 0.37897 0.00796 0.0
S1068 S 0.39761 0.5024 0.0237 0.0
N1069 N 0.37176 0.46866 0.0218 0.0
N1070 N 0.43568 0.48899 0.02039 0.0
C1071 C 0.42863 0.45546 0.01762 0.0
C1072 C 0.39392 0.44452 0.01835 0.0
C1073 C 0.92368 0.09306 0.99326 0.0
C1074 C 0.91284 0.12321 0.00738 0.0
C1075 C 0.95724 0.08494 0.99654 0.0
C1076 C 0.98127 0.107 0.01347 0.0
H1077 H 0.90594 0.07532 0.98032 0.0
H1078 H 0.9643 0.0611 0.98596 0.0
S1079 S 0.96535 0.19021 0.05311 0.0
N1080 N 0.92865 0.17575 0.03759 0.0
N1081 N 0.99141 0.16104 0.04364 0.0
C1082 C 0.97066 0.13774 0.02681 0.0
C1083 C 0.93655 0.14568 0.0238 0.0
C1084 C 0.04679 0.20024 0.17915 0.0
C1085 C 0.04175 0.18793 0.21082 0.0
C1086 C 0.05556 0.17911 0.1521 0.0
C1087 C 0.0599 0.14486 0.15576 0.0
H1088 H 0.04435 0.22646 0.1754 0.0
H1089 H 0.05936 0.18993 0.1282 0.0
S1090 S 0.04931 0.10089 0.23446 0.0
N1091 N 0.04141 0.13987 0.24481 0.0
N1092 N 0.05792 0.09995 0.1943 0.0
C1093 C 0.05456 0.13234 0.18756 0.0
C1094 C 0.04553 0.15392 0.21498 0.0
C1095 C 0.99855 0.34549 0.18054 0.0
C1096 C 0.00966 0.36028 0.21146 0.0
C1097 C 0.99326 0.36479 0.15322 0.0
C1098 C 0.9983 0.39985 0.15578 0.0
H1099 H 0.99362 0.31868 0.17752 0.0
H1100 H 0.98427 0.35205 0.13012 0.0
S1101 S 0.02827 0.45057 0.23141 0.0
N1102 N 0.02669 0.41172 0.24309 0.0
N1103 N 0.01595 0.44844 0.19192 0.0
C1104 C 0.00986 0.41496 0.18658 0.0
C1105 C 0.01581 0.39508 0.21433 0.0
C1106 C 0.01987 0.86477 0.26943 0.0
C1107 C 0.0103 0.83061 0.26898 0.0
C1108 C 0.02053 0.88438 0.29932 0.0
C1109 C 0.01177 0.87033 0.32971 0.0
H1110 H 0.02771 0.87612 0.24667 0.0
H1111 H 0.0292 0.9104 0.29871 0.0
S1112 S 0.98228 0.78201 0.34029 0.0
N1113 N 0.99007 0.78366 0.30011 0.0
N1114 N 0.99093 0.82019 0.35656 0.0
C1115 C 1.00076 0.83626 0.32902 0.0
C1116 C 1.00014 0.81645 0.29856 0.0
C1117 C 0.00607 0.61657 0.27699 0.0
C1118 C 0.99419 0.64881 0.27719 0.0
C1119 C 1.00198 0.59685 0.30478 0.0
C1120 C 0.98682 0.6092 0.33399 0.0
H1121 H 0.01842 0.60651 0.25516 0.0
H1122 H 0.01132 0.57212 0.30365 0.0
S1123 S 0.9514 0.69202 0.34685 0.0
N1124 N 0.96633 0.69194 0.30869 0.0
N1125 N 0.95928 0.65548 0.36101 0.0
C1126 C 0.97493 0.64144 0.33437 0.0
C1127 C 0.97847 0.6611 0.30596 0.0
C1128 C 0.25639 0.03616 0.13505 0.0
C1129 C 0.25004 0.02234 0.16597 0.0
C1130 C 0.23001 0.04244 0.1133 0.0
C1131 C 0.19635 0.03535 0.1219 0.0
H1132 H 0.28191 0.04274 0.12797 0.0
H1133 H 0.236 0.05391 0.09012 0.0
S1134 S 0.16713 0.99648 0.19933 0.0
N1135 N 0.20829 1.00011 0.20346 0.0
N1136 N 0.15863 0.01158 0.16298 0.0
C1137 C 0.18996 0.02046 0.15246 0.0
C1138 C 0.21681 0.01403 0.17439 0.0
C1139 C 0.7971 0.484 0.12909 0.0
C1140 C 0.80019 0.50071 0.16077 0.0
C1141 C 0.82506 0.4803 0.1086 0.0
C1142 C 0.85736 0.49271 0.11919 0.0
H1143 H 0.7729 0.47333 0.12023 0.0
H1144 H 0.82145 0.46662 0.08474 0.0
S1145 S 0.8787 0.53919 0.19983 0.0
N1146 N 0.83794 0.53037 0.2015 0.0
N1147 N 0.89036 0.52358 0.16324 0.0
C1148 C 0.86059 0.51015 0.15058 0.0
C1149 C 0.83208 0.51412 0.17126 0.0
C1150 C 0.21155 0.99164 0.37846 0.0
C1151 C 0.21128 0.99086 0.34348 0.0
C1152 C 0.1821 0.984 0.39602 0.0
C1153 C 0.15139 0.9757 0.37914 0.0
H1154 H 0.23483 0.99712 0.39221 0.0
H1155 H 0.18355 0.98419 0.42297 0.0
S1156 S 0.13803 0.97168 0.28721 0.0
N1157 N 0.17833 0.98219 0.29249 0.0
N1158 N 0.1229 0.96822 0.32504 0.0
C1159 C 0.15091 0.97589 0.34402 0.0
C1160 C 0.18089 0.98333 0.32631 0.0
C1161 C 0.82059 0.49532 0.32791 0.0
C1162 C 0.78954 0.4978 0.34325 0.0
C1163 C 0.85029 0.49975 0.34668 0.0
C1164 C 0.8499 0.50708 0.38142 0.0
H1165 H 0.82193 0.49121 0.30109 0.0
H1166 H 0.87372 0.49865 0.33352 0.0
S1167 S 0.77378 0.51303 0.43317 0.0
N1168 N 0.75925 0.50545 0.39472 0.0
N1169 N 0.81498 0.51403 0.43048 0.0
C1170 C 0.81858 0.50793 0.39715 0.0
C1171 C 0.7884 0.50325 0.37791 0.0
C1172 C 0.22986 0.2 0.0171 0.0
C1173 C 0.21785 0.2316 0.01351 0.0
C1174 C 0.20764 0.17202 0.02052 0.0
C1175 C 0.17263 0.17479 0.0208 0.0
H1176 H 0.25657 0.19707 0.01802 0.0
H1177 H 0.21813 0.14823 0.0239 0.0
S1178 S 0.12917 0.25281 0.01108 0.0
N1179 N 0.16937 0.26448 0.00951 0.0
N1180 N 0.12739 0.21221 0.01592 0.0
C1181 C 0.16049 0.20645 0.01642 0.0
C1182 C 0.18316 0.23478 0.01283 0.0
C1183 C 0.11572 0.76954 0.46073 0.0
C1184 C 0.1453 0.77303 0.48019 0.0
C1185 C 0.09633 0.79701 0.45585 0.0
C1186 C 0.10623 0.82916 0.46963 0.0
H1187 H 0.10753 0.74539 0.44922 0.0
H1188 H 0.07394 0.79321 0.44041 0.0
S1189 S 0.18198 0.85137 0.52238 0.0
N1190 N 0.1835 0.81098 0.51333 0.0
N1191 N 0.14764 0.86246 0.504 0.0
C1192 C 0.13576 0.83279 0.48926 0.0
C1193 C 0.15512 0.80482 0.49456 0.0
C1194 C 0.85767 0.67875 0.5087 0.0
C1195 C 0.8645 0.70906 0.49344 0.0
C1196 C 0.87718 0.65136 0.5021 0.0
C1197 C 0.90469 0.65338 0.48048 0.0
H1198 H 0.83621 0.67575 0.52475 0.0
H1199 H 0.87025 0.62818 0.51358 0.0
S1200 S 0.93409 0.72814 0.43589 0.0
N1201 N 0.90121 0.7401 0.45682 0.0
N1202 N 0.93841 0.68901 0.44491 0.0
C1203 C 0.91258 0.68411 0.46617 0.0
C1204 C 0.89232 0.7118 0.47247 0.0
C1205 C 0.30662 0.81222 0.50245 0.0
C1206 C 0.31839 0.78017 0.50021 0.0
C1207 C 0.32892 0.84031 0.50757 0.0
C1208 C 0.36374 0.83721 0.51099 0.0
H1209 H 0.27998 0.81549 0.50116 0.0
H1210 H 0.31853 0.86454 0.50989 0.0
S1211 S 0.4066 0.75782 0.5054 0.0
N1212 N 0.36648 0.74635 0.50041 0.0
N1213 N 0.40866 0.79894 0.51016 0.0
C1214 C 0.37573 0.80503 0.50772 0.0
C1215 C 0.35297 0.77654 0.50235 0.0
C1216 C 0.54034 0.64517 0.75497 0.0
C1217 C 0.52671 0.67592 0.74992 0.0
C1218 C 0.54491 0.62205 0.7281 0.0
C1219 C 0.53628 0.62905 0.69519 0.0
H1220 H 0.54842 0.63943 0.77972 0.0
H1221 H 0.55642 0.59912 0.73304 0.0
S1222 S 0.49717 0.70547 0.66977 0.0
N1223 N 0.50291 0.71157 0.71045 0.0
N1224 N 0.51118 0.66851 0.65988 0.0
C1225 C 0.5214 0.65938 0.69026 0.0
C1226 C 0.51669 0.68271 0.71763 0.0
C1227 C 0.50005 0.88448 0.70872 0.0
C1228 C 0.49602 0.84963 0.70993 0.0
C1229 C 0.49068 0.90047 0.68012 0.0
C1230 C 0.4774 0.88211 0.65157 0.0
H1231 H 0.50957 0.8995 0.73034 0.0
H1232 H 0.49368 0.92744 0.68051 0.0
S1233 S 0.46346 0.7898 0.64222 0.0
N1234 N 0.47893 0.79707 0.68034 0.0
N1235 N 0.4617 0.82675 0.62645 0.0
C1236 C 0.47417 0.84705 0.65237 0.0
C1237 C 0.48335 0.83092 0.68159 0.0
C1238 C 0.52003 0.3897 0.81728 0.0
C1239 C 0.52948 0.35664 0.81555 0.0
C1240 C 0.52552 0.40989 0.84656 0.0
C1241 C 0.53991 0.39722 0.87496 0.0
H1242 H 0.50901 0.40011 0.79572 0.0
H1243 H 0.51846 0.43549 0.847 0.0
S1244 S 0.56878 0.31196 0.8824 0.0
N1245 N 0.55375 0.312 0.84398 0.0
N1246 N 0.56369 0.34959 0.89926 0.0
C1247 C 0.54896 0.36394 0.87346 0.0
C1248 C 0.54384 0.34371 0.84361 0.0
C1249 C 0.49884 0.14325 0.77892 0.0
C1250 C 0.51084 0.17692 0.78148 0.0
C1251 C 0.4975 0.12377 0.80704 0.0
C1252 C 0.50817 0.13724 0.83882 0.0
H1253 H 0.48996 0.13207 0.75507 0.0
H1254 H 0.48726 0.09821 0.80392 0.0
S1255 S 0.54395 0.2239 0.85769 0.0
N1256 N 0.53497 0.2226 0.81744 0.0
N1257 N 0.53299 0.18638 0.87024 0.0
C1258 C 0.52123 0.17077 0.84124 0.0
C1259 C 0.52247 0.19047 0.81262 0.0
C1260 C 0.73653 0.51578 0.65987 0.0
C1261 C 0.73745 0.51699 0.69485 0.0
C1262 C 0.70672 0.52028 0.64233 0.0
C1263 C 0.67663 0.52613 0.65912 0.0
H1264 H 0.75912 0.51165 0.64601 0.0
H1265 H 0.70742 0.51938 0.61535 0.0
S1266 S 0.66661 0.53124 0.75125 0.0
N1267 N 0.70644 0.52416 0.74589 0.0
N1268 N 0.65029 0.53253 0.71344 0.0
C1269 C 0.67745 0.52703 0.69435 0.0
C1270 C 0.70787 0.52251 0.71207 0.0
C1271 C 0.27347 0.97305 0.6314 0.0
C1272 C 0.27868 0.98583 0.66447 0.0
C1273 C 0.30057 0.96814 0.6099 0.0
C1274 C 0.33397 0.97571 0.6207 0.0
H1275 H 0.24825 0.96636 0.62228 0.0
H1276 H 0.29531 0.95756 0.5849 0.0
S1277 S 0.36038 0.01191 0.70479 0.0
N1278 N 0.31918 0.0073 0.70666 0.0
N1279 N 0.37008 0.99849 0.66675 0.0
C1280 C 0.33921 0.9894 0.65364 0.0
C1281 C 0.31162 0.99438 0.67535 0.0
C1282 C 0.73865 0.49617 0.90646 0.0
C1283 C 0.73694 0.5146 0.87776 0.0
C1284 C 0.71131 0.4928 0.92777 0.0
C1285 C 0.68109 0.50708 0.9206 0.0
H1286 H 0.76079 0.48318 0.91178 0.0
H1287 H 0.71321 0.47718 0.9488 0.0
S1288 S 0.66443 0.55926 0.84957 0.0
N1289 N 0.70332 0.54876 0.84424 0.0
N1290 N 0.65166 0.54205 0.88403 0.0
C1291 C 0.67953 0.52673 0.89276 0.0
C1292 C 0.70754 0.53059 0.87138 0.0
C1293 C 0.31266 0.03377 0.87917 0.0
C1294 C 0.31326 0.01267 0.8502 0.0
C1295 C 0.34171 0.04158 0.89831 0.0
C1296 C 0.37232 0.02893 0.88872 0.0
H1297 H 0.28979 0.04508 0.88647 0.0
H1298 H 0.34046 0.05889 0.91981 0.0
S1299 S 0.38615 0.97035 0.81627 0.0
N1300 N 0.34608 0.97758 0.81385 0.0
N1301 N 0.40089 0.99212 0.84983 0.0
C1302 C 0.37282 0.0065 0.86062 0.0
C1303 C 0.34317 0.99837 0.84134 0.0
C1304 C 0.65359 0.71106 0.54187 0.0
C1305 C 0.68549 0.7054 0.52922 0.0
C1306 C 0.6318 0.68447 0.55103 0.0
C1307 C 0.64118 0.65128 0.54782 0.0
H1308 H 0.64579 0.73632 0.54538 0.0
H1309 H 0.60782 0.69011 0.56146 0.0
S1310 S 0.72143 0.62378 0.51292 0.0
N1311 N 0.72486 0.66485 0.51197 0.0
N1312 N 0.68423 0.61452 0.52863 0.0
C1313 C 0.67276 0.64545 0.53389 0.0
C1314 C 0.69482 0.67261 0.52469 0.0
C1315 C 0.64418 0.30267 0.01161 0.0
C1316 C 0.6764 0.30296 0.99782 0.0
C1317 C 0.62542 0.33119 0.01199 0.0
C1318 C 0.63858 0.36125 0.99936 0.0
H1319 H 0.63328 0.28013 0.02182 0.0
H1320 H 0.60059 0.32975 0.0225 0.0
S1321 S 0.722 0.37479 0.96067 0.0
N1322 N 0.72063 0.33564 0.97127 0.0
N1323 N 0.68591 0.38911 0.97224 0.0
C1324 C 0.67093 0.36175 0.98571 0.0
C1325 C 0.68968 0.33267 0.98487 0.0
C1326 C 0.41944 0.2401 0.98359 0.0
C1327 C 0.39072 0.23873 1.00348 0.0
C1328 C 0.43735 0.21163 0.97679 0.0
C1329 C 0.42676 0.18058 0.9891 0.0
H1330 H 0.42771 0.26321 0.97265 0.0
H1331 H 0.45882 0.2137 0.96066 0.0
S1332 S 0.35361 0.1642 0.04339 0.0
N1333 N 0.35306 0.20422 0.03625 0.0
N1334 N 0.38643 0.15071 0.02343 0.0
C1335 C 0.39855 0.17918 0.00979 0.0
C1336 C 0.38062 0.20824 0.017 0.0
C1337 C 0.8899 0.29054 0.01755 0.0
C1338 C 0.85644 0.29055 0.00688 0.0
C1339 C 0.90984 0.3204 0.02142 0.0
C1340 C 0.89686 0.3512 0.01479 0.0
H1341 H 0.90039 0.26739 0.02365 0.0
H1342 H 0.93523 0.31939 0.03072 0.0
S1343 S 0.81106 0.36324 0.98331 0.0
N1344 N 0.81149 0.32271 0.98784 0.0
N1345 N 0.84877 0.37907 0.99461 0.0
C1346 C 0.86363 0.35106 1.00274 0.0
C1347 C 0.84345 0.32065 0.99891 0.0
loop_
_geom_bond_atom_site_label_1
_geom_bond_atom_site_label_2
_geom_bond_distance
_geom_bond_site_symmetry_2
_ccdc_geom_bond_type
C0 C1 1.443 . S
C0 N4 1.376 . S
C0 C38 1.389 . S
C1 C0 1.443 . S
C1 C2 1.340 . S
C1 H41 0.951 . S
C2 C1 1.340 . S
C2 C3 1.439 . S
C2 H42 0.950 . S
C3 C2 1.439 . S
C3 N4 1.374 . S
C3 C37 1.395 . S
N4 C0 1.376 . S
N4 C3 1.374 . S
N4 Co5 2.008 1_655 S
Co5 N4 2.008 1_455 S
Co5 N6 1.995 1_455 S
Co5 N11 2.008 . S
Co5 N16 1.995 . S
Co5 N21 2.282 . S
Co5 N27 2.282 1_455 S
N6 Co5 1.995 1_655 S
N6 C7 1.376 . S
N6 C10 1.383 . S
C7 N6 1.376 . S
C7 C8 1.446 . S
C7 C37 1.391 . S
C8 C7 1.446 . S
C8 C9 1.339 . S
C8 H43 0.949 . S
C9 C8 1.339 . S
C9 C10 1.439 . S
C9 H44 0.950 . S
C10 N6 1.383 . S
C10 C9 1.439 . S
C10 C39 1.392 1_655 S
N11 Co5 2.008 . S
N11 C12 1.376 . S
N11 C15 1.374 . S
C12 N11 1.376 . S
C12 C13 1.443 . S
C12 C39 1.389 . S
C13 C12 1.443 . S
C13 C14 1.340 . S
C13 H45 0.951 . S
C14 C13 1.340 . S
C14 C15 1.439 . S
C14 H46 0.950 . S
C15 N11 1.374 . S
C15 C14 1.439 . S
C15 C40 1.395 . S
N16 Co5 1.995 . S
N16 C17 1.376 . S
N16 C20 1.383 . S
C17 N16 1.376 . S
C17 C18 1.446 . S
C17 C40 1.391 . S
C18 C17 1.446 . S
C18 C19 1.339 . S
C18 H47 0.949 . S
C19 C18 1.339 . S
C19 C20 1.439 . S
C19 H48 0.950 . S
C20 N16 1.383 . S
C20 C19 1.439 . S
C20 C38 1.392 1_455 S
N21 Co5 2.282 . S
N21 C24 1.332 . S
N21 C26 1.332 1_455 S
C22 C23 1.386 . S
C22 C25 1.388 1_455 S
C23 C22 1.386 . S
C23 C24 1.382 . S
C23 H49 0.950 . S
C24 N21 1.332 . S
C24 C23 1.382 . S
C24 H35 0.952 . S
C25 C22 1.388 1_655 S
C25 C26 1.382 . S
C25 H50 0.950 . S
C26 N21 1.332 1_655 S
C26 C25 1.382 . S
C26 H36 0.948 . S
N27 Co5 2.282 1_655 S
N27 C31 1.332 . S
N27 C32 1.332 1_655 S
C28 C29 1.388 1_455 S
C28 C32 1.382 . S
C28 H51 0.950 . S
C29 C28 1.388 1_655 S
C29 C30 1.386 . S
C30 C29 1.386 . S
C30 C31 1.382 . S
C30 H52 0.950 . S
C31 N27 1.332 . S
C31 C30 1.382 . S
C31 H33 0.952 . S
C32 N27 1.332 1_455 S
C32 C28 1.382 . S
C32 H34 0.948 . S
H33 C31 0.952 . S
H34 C32 0.948 . S
H35 C24 0.952 . S
H36 C26 0.948 . S
C37 C3 1.395 . S
C37 C7 1.391 . S
C38 C0 1.389 . S
C38 C20 1.392 1_655 S
C39 C10 1.392 1_455 S
C39 C12 1.389 . S
C40 C15 1.395 . S
C40 C17 1.391 . S
H41 C1 0.951 . S
H42 C2 0.950 . S
H43 C8 0.949 . S
H44 C9 0.950 . S
H45 C13 0.951 . S
H46 C14 0.950 . S
H47 C18 0.949 . S
H48 C19 0.950 . S
H49 C23 0.950 . S
H50 C25 0.950 . S
H51 C28 0.950 . S
H52 C30 0.950 . S
C53 C54 1.443 . S
C53 N57 1.376 . S
C53 C91 1.389 1_655 S
C54 C53 1.443 . S
C54 C55 1.340 . S
C54 H94 0.951 . S
C55 C54 1.340 . S
C55 C56 1.439 . S
C55 H95 0.950 . S
C56 C55 1.439 . S
C56 N57 1.374 . S
C56 C90 1.395 . S
N57 C53 1.376 . S
N57 C56 1.374 . S
N57 Co58 2.008 1_655 S
Co58 N57 2.008 1_455 S
Co58 N59 1.995 1_455 S
Co58 N64 2.008 . S
Co58 N69 1.995 . S
Co58 N74 2.282 . S
Co58 N80 2.282 . S
N59 Co58 1.995 1_655 S
N59 C60 1.376 . S
N59 C63 1.383 1_655 S
C60 N59 1.376 . S
C60 C61 1.446 . S
C60 C90 1.391 . S
C61 C60 1.446 . S
C61 C62 1.339 . S
C61 H96 0.949 . S
C62 C61 1.339 . S
C62 C63 1.439 1_655 S
C62 H97 0.950 . S
C63 N59 1.383 1_455 S
C63 C62 1.439 1_455 S
C63 C92 1.392 . S
N64 Co58 2.008 . S
N64 C65 1.376 . S
N64 C68 1.374 . S
C65 N64 1.376 . S
C65 C66 1.443 . S
C65 C92 1.389 . S
C66 C65 1.443 . S
C66 C67 1.340 . S
C66 H98 0.951 . S
C67 C66 1.340 . S
C67 C68 1.439 . S
C67 H99 0.950 . S
C68 N64 1.374 . S
C68 C67 1.439 . S
C68 C93 1.395 . S
N69 Co58 1.995 . S
N69 C70 1.376 . S
N69 C73 1.383 . S
C70 N69 1.376 . S
C70 C71 1.446 . S
C70 C93 1.391 . S
C71 C70 1.446 . S
C71 C72 1.339 . S
C71 H100 0.949 . S
C72 C71 1.339 . S
C72 C73 1.439 . S
C72 H101 0.950 . S
C73 N69 1.383 . S
C73 C72 1.439 . S
C73 C91 1.392 . S
N74 Co58 2.282 . S
N74 C77 1.332 . S
N74 C79 1.332 . S
C75 C76 1.386 . S
C75 C78 1.388 . S
C76 C75 1.386 . S
C76 C77 1.382 . S
C76 H102 0.950 . S
C77 N74 1.332 . S
C77 C76 1.382 . S
C77 H88 0.952 . S
C78 C75 1.388 . S
C78 C79 1.382 . S
C78 H103 0.950 1_455 S
C79 N74 1.332 . S
C79 C78 1.382 . S
C79 H89 0.948 1_455 S
N80 Co58 2.282 . S
N80 C84 1.332 1_455 S
N80 C85 1.332 . S
C81 C82 1.388 1_455 S
C81 C85 1.382 . S
C81 H104 0.950 . S
C82 C81 1.388 1_655 S
C82 C83 1.386 . S
C83 C82 1.386 . S
C83 C84 1.382 . S
C83 H105 0.950 . S
C84 N80 1.332 1_655 S
C84 C83 1.382 . S
C84 H86 0.952 . S
C85 N80 1.332 . S
C85 C81 1.382 . S
C85 H87 0.948 . S
H86 C84 0.952 . S
H87 C85 0.948 . S
H88 C77 0.952 . S
H89 C79 0.948 1_655 S
C90 C56 1.395 . S
C90 C60 1.391 . S
C91 C53 1.389 1_455 S
C91 C73 1.392 . S
C92 C63 1.392 . S
C92 C65 1.389 . S
C93 C68 1.395 . S
C93 C70 1.391 . S
H94 C54 0.951 . S
H95 C55 0.950 . S
H96 C61 0.949 . S
H97 C62 0.950 . S
H98 C66 0.951 . S
H99 C67 0.950 . S
H100 C71 0.949 . S
H101 C72 0.950 . S
H102 C76 0.950 . S
H103 C78 0.950 1_655 S
H104 C81 0.950 . S
H105 C83 0.950 . S
C106 C107 1.443 . S
C106 N110 1.376 . S
C106 C144 1.389 . S
C107 C106 1.443 . S
C107 C108 1.340 . S
C107 H147 0.951 . S
C108 C107 1.340 . S
C108 C109 1.439 . S
C108 H148 0.950 . S
C109 C108 1.439 . S
C109 N110 1.374 . S
C109 C143 1.395 . S
N110 C106 1.376 . S
N110 C109 1.374 . S
N110 Co111 2.008 1_565 S
Co111 N110 2.008 1_545 S
Co111 N112 1.995 1_545 S
Co111 N117 2.008 . S
Co111 N122 1.995 . S
Co111 N127 2.282 . S
Co111 N133 2.282 1_545 S
N112 Co111 1.995 1_565 S
N112 C113 1.376 . S
N112 C116 1.383 . S
C113 N112 1.376 . S
C113 C114 1.446 . S
C113 C143 1.391 . S
C114 C113 1.446 . S
C114 C115 1.339 . S
C114 H149 0.949 . S
C115 C114 1.339 . S
C115 C116 1.439 . S
C115 H150 0.950 . S
C116 N112 1.383 . S
C116 C115 1.439 . S
C116 C145 1.392 1_565 S
N117 Co111 2.008 . S
N117 C118 1.376 . S
N117 C121 1.374 . S
C118 N117 1.376 . S
C118 C119 1.443 . S
C118 C145 1.389 . S
C119 C118 1.443 . S
C119 C120 1.340 . S
C119 H151 0.951 . S
C120 C119 1.340 . S
C120 C121 1.439 . S
C120 H152 0.950 . S
C121 N117 1.374 . S
C121 C120 1.439 . S
C121 C146 1.395 . S
N122 Co111 1.995 . S
N122 C123 1.376 . S
N122 C126 1.383 . S
C123 N122 1.376 . S
C123 C124 1.446 . S
C123 C146 1.391 . S
C124 C123 1.446 . S
C124 C125 1.339 . S
C124 H153 0.949 . S
C125 C124 1.339 . S
C125 C126 1.439 . S
C125 H154 0.950 . S
C126 N122 1.383 . S
C126 C125 1.439 . S
C126 C144 1.392 1_545 S
N127 Co111 2.282 . S
N127 C130 1.332 . S
N127 C132 1.332 1_545 S
C128 C129 1.386 . S
C128 C131 1.388 . S
C129 C128 1.386 . S
C129 C130 1.382 . S
C129 H155 0.950 . S
C130 N127 1.332 . S
C130 C129 1.382 . S
C130 H141 0.952 . S
C131 C128 1.388 . S
C131 C132 1.382 1_545 S
C131 H156 0.950 1_545 S
C132 N127 1.332 1_565 S
C132 C131 1.382 1_565 S
C132 H142 0.948 . S
N133 Co111 2.282 1_565 S
N133 C137 1.332 . S
N133 C138 1.332 1_565 S
C134 C135 1.388 1_545 S
C134 C138 1.382 . S
C134 H157 0.950 . S
C135 C134 1.388 1_565 S
C135 C136 1.386 . S
C136 C135 1.386 . S
C136 C137 1.382 . S
C136 H158 0.950 . S
C137 N133 1.332 . S
C137 C136 1.382 . S
C137 H139 0.952 . S
C138 N133 1.332 1_545 S
C138 C134 1.382 . S
C138 H140 0.948 . S
H139 C137 0.952 . S
H140 C138 0.948 . S
H141 C130 0.952 . S
H142 C132 0.948 . S
C143 C109 1.395 . S
C143 C113 1.391 . S
C144 C106 1.389 . S
C144 C126 1.392 1_565 S
C145 C116 1.392 1_545 S
C145 C118 1.389 . S
C146 C121 1.395 . S
C146 C123 1.391 . S
H147 C107 0.951 . S
H148 C108 0.950 . S
H149 C114 0.949 . S
H150 C115 0.950 . S
H151 C119 0.951 . S
H152 C120 0.950 . S
H153 C124 0.949 . S
H154 C125 0.950 . S
H155 C129 0.950 . S
H156 C131 0.950 1_565 S
H157 C134 0.950 . S
H158 C136 0.950 . S
C159 C160 1.443 . S
C159 N163 1.376 . S
C159 C197 1.389 . S
C160 C159 1.443 . S
C160 C161 1.340 . S
C160 H200 0.951 . S
C161 C160 1.340 . S
C161 C162 1.439 . S
C161 H201 0.950 . S
C162 C161 1.439 . S
C162 N163 1.374 . S
C162 C196 1.395 . S
N163 C159 1.376 . S
N163 C162 1.374 . S
N163 Co164 2.008 . S
Co164 N163 2.008 . S
Co164 N165 1.995 . S
Co164 N170 2.008 . S
Co164 N175 1.995 . S
Co164 N180 2.282 . S
Co164 N186 2.282 . S
N165 Co164 1.995 . S
N165 C166 1.376 . S
N165 C169 1.383 . S
C166 N165 1.376 . S
C166 C167 1.446 . S
C166 C196 1.391 . S
C167 C166 1.446 . S
C167 C168 1.339 . S
C167 H202 0.949 . S
C168 C167 1.339 . S
C168 C169 1.439 . S
C168 H203 0.950 . S
C169 N165 1.383 . S
C169 C168 1.439 . S
C169 C198 1.392 . S
N170 Co164 2.008 . S
N170 C171 1.376 . S
N170 C174 1.374 . S
C171 N170 1.376 . S
C171 C172 1.443 . S
C171 C198 1.389 . S
C172 C171 1.443 . S
C172 C173 1.340 . S
C172 H204 0.951 . S
C173 C172 1.340 . S
C173 C174 1.439 . S
C173 H205 0.950 . S
C174 N170 1.374 . S
C174 C173 1.439 . S
C174 C199 1.395 . S
N175 Co164 1.995 . S
N175 C176 1.376 . S
N175 C179 1.383 . S
C176 N175 1.376 . S
C176 C177 1.446 . S
C176 C199 1.391 . S
C177 C176 1.446 . S
C177 C178 1.339 . S
C177 H206 0.949 . S
C178 C177 1.339 . S
C178 C179 1.439 . S
C178 H207 0.950 . S
C179 N175 1.383 . S
C179 C178 1.439 . S
C179 C197 1.392 . S
N180 Co164 2.282 . S
N180 C183 1.332 . S
N180 C185 1.332 . S
C181 C182 1.386 . S
C181 C184 1.388 . S
C182 C181 1.386 . S
C182 C183 1.382 . S
C182 H208 0.950 . S
C183 N180 1.332 . S
C183 C182 1.382 . S
C183 H194 0.952 . S
C184 C181 1.388 . S
C184 C185 1.382 . S
C184 H209 0.950 . S
C185 N180 1.332 . S
C185 C184 1.382 . S
C185 H195 0.948 . S
N186 Co164 2.282 . S
N186 C190 1.332 . S
N186 C191 1.332 . S
C187 C188 1.388 . S
C187 C191 1.382 . S
C187 H210 0.950 . S
C188 C187 1.388 . S
C188 C189 1.386 . S
C189 C188 1.386 . S
C189 C190 1.382 . S
C189 H211 0.950 . S
C190 N186 1.332 . S
C190 C189 1.382 . S
C190 H192 0.952 . S
C191 N186 1.332 . S
C191 C187 1.382 . S
C191 H193 0.948 . S
H192 C190 0.952 . S
H193 C191 0.948 . S
H194 C183 0.952 . S
H195 C185 0.948 . S
C196 C162 1.395 . S
C196 C166 1.391 . S
C197 C159 1.389 . S
C197 C179 1.392 . S
C198 C169 1.392 . S
C198 C171 1.389 . S
C199 C174 1.395 . S
C199 C176 1.391 . S
H200 C160 0.951 . S
H201 C161 0.950 . S
H202 C167 0.949 . S
H203 C168 0.950 . S
H204 C172 0.951 . S
H205 C173 0.950 . S
H206 C177 0.949 . S
H207 C178 0.950 . S
H208 C182 0.950 . S
H209 C184 0.950 . S
H210 C187 0.950 . S
H211 C189 0.950 . S
C212 C213 1.443 . S
C212 N216 1.376 . S
C212 C250 1.389 1_556 S
C213 C212 1.443 . S
C213 C214 1.340 . S
C213 H253 0.951 . S
C214 C213 1.340 . S
C214 C215 1.439 . S
C214 H254 0.950 . S
C215 C214 1.439 . S
C215 N216 1.374 . S
C215 C249 1.395 . S
N216 C212 1.376 . S
N216 C215 1.374 . S
N216 Co217 2.008 1_556 S
Co217 N216 2.008 1_554 S
Co217 N218 1.995 1_554 S
Co217 N223 2.008 . S
Co217 N228 1.995 . S
Co217 N233 2.282 . S
Co217 N239 2.282 . S
N218 Co217 1.995 1_556 S
N218 C219 1.376 . S
N218 C222 1.377 1_556 S
C219 N218 1.376 . S
C219 C220 1.446 . S
C219 C249 1.391 . S
C220 C219 1.446 . S
C220 C221 1.339 . S
C220 H255 0.949 . S
C221 C220 1.339 . S
C221 C222 1.426 1_556 S
C221 H256 0.950 . S
C222 N218 1.377 1_554 S
C222 C221 1.426 1_554 S
C222 C251 1.408 . S
N223 Co217 2.008 . S
N223 C224 1.376 . S
N223 C227 1.374 . S
C224 N223 1.376 . S
C224 C225 1.443 . S
C224 C251 1.389 . S
C225 C224 1.443 . S
C225 C226 1.340 . S
C225 H257 0.951 . S
C226 C225 1.340 . S
C226 C227 1.439 . S
C226 H258 0.950 . S
C227 N223 1.374 . S
C227 C226 1.439 . S
C227 C252 1.395 . S
N228 Co217 1.995 . S
N228 C229 1.376 . S
N228 C232 1.383 . S
C229 N228 1.376 . S
C229 C230 1.446 . S
C229 C252 1.391 . S
C230 C229 1.446 . S
C230 C231 1.339 . S
C230 H259 0.949 . S
C231 C230 1.339 . S
C231 C232 1.439 . S
C231 H260 0.950 . S
C232 N228 1.383 . S
C232 C231 1.439 . S
C232 C250 1.392 . S
N233 Co217 2.282 . S
N233 C236 1.332 . S
N233 C238 1.332 . S
C234 C235 1.386 . S
C234 C237 1.388 . S
C235 C234 1.386 . S
C235 C236 1.382 . S
C235 H261 0.950 . S
C236 N233 1.332 . S
C236 C235 1.382 . S
C236 H247 0.952 . S
C237 C234 1.388 . S
C237 C238 1.382 . S
C237 H262 0.950 1_554 S
C238 N233 1.332 . S
C238 C237 1.382 . S
C238 H248 0.948 1_554 S
N239 Co217 2.282 . S
N239 C243 1.332 1_554 S
N239 C244 1.332 . S
C240 C241 1.365 1_554 S
C240 C244 1.382 . S
C240 H263 0.950 . S
C241 C240 1.365 1_556 S
C241 C242 1.404 . S
C242 C241 1.404 . S
C242 C243 1.382 . S
C242 H264 0.950 . S
C243 N239 1.332 1_556 S
C243 C242 1.382 . S
C243 H245 0.952 . S
C244 N239 1.332 . S
C244 C240 1.382 . S
C244 H246 0.948 . S
H245 C243 0.952 . S
H246 C244 0.948 . S
H247 C236 0.952 . S
H248 C238 0.948 1_556 S
C249 C215 1.395 . S
C249 C219 1.391 . S
C250 C212 1.389 1_554 S
C250 C232 1.392 . S
C251 C222 1.408 . S
C251 C224 1.389 . S
C252 C227 1.395 . S
C252 C229 1.391 . S
H253 C213 0.951 . S
H254 C214 0.950 . S
H255 C220 0.949 . S
H256 C221 0.950 . S
H257 C225 0.951 . S
H258 C226 0.950 . S
H259 C230 0.949 . S
H260 C231 0.950 . S
H261 C235 0.950 . S
H262 C237 0.950 1_556 S
H263 C240 0.950 . S
H264 C242 0.950 . S
C265 C266 1.443 . S
C265 N269 1.376 . S
C265 C303 1.389 . S
C266 C265 1.443 . S
C266 C267 1.340 . S
C266 H306 0.951 . S
C267 C266 1.340 . S
C267 C268 1.439 . S
C267 H307 0.950 . S
C268 C267 1.439 . S
C268 N269 1.374 . S
C268 C302 1.395 . S
N269 C265 1.376 . S
N269 C268 1.374 . S
N269 Co270 2.008 . S
Co270 N269 2.008 . S
Co270 N271 1.995 . S
Co270 N276 2.008 . S
Co270 N281 1.995 . S
Co270 N286 2.282 . S
Co270 N292 2.282 . S
N271 Co270 1.995 . S
N271 C272 1.376 . S
N271 C275 1.383 . S
C272 N271 1.376 . S
C272 C273 1.446 . S
C272 C302 1.391 . S
C273 C272 1.446 . S
C273 C274 1.339 . S
C273 H308 0.949 . S
C274 C273 1.339 . S
C274 C275 1.439 . S
C274 H309 0.950 . S
C275 N271 1.383 . S
C275 C274 1.439 . S
C275 C304 1.392 . S
N276 Co270 2.008 . S
N276 C277 1.376 . S
N276 C280 1.374 . S
C277 N276 1.376 . S
C277 C278 1.443 . S
C277 C304 1.389 . S
C278 C277 1.443 . S
C278 C279 1.340 . S
C278 H310 0.951 . S
C279 C278 1.340 . S
C279 C280 1.439 . S
C279 H311 0.950 . S
C280 N276 1.374 . S
C280 C279 1.439 . S
C280 C305 1.395 . S
N281 Co270 1.995 . S
N281 C282 1.376 . S
N281 C285 1.383 . S
C282 N281 1.376 . S
C282 C283 1.446 . S
C282 C305 1.391 . S
C283 C282 1.446 . S
C283 C284 1.339 . S
C283 H312 0.949 . S
C284 C283 1.339 . S
C284 C285 1.439 . S
C284 H313 0.950 . S
C285 N281 1.383 . S
C285 C284 1.439 . S
C285 C303 1.392 . S
N286 Co270 2.282 . S
N286 C289 1.332 . S
N286 C291 1.332 . S
C287 C288 1.386 . S
C287 C290 1.388 . S
C288 C287 1.386 . S
C288 C289 1.382 . S
C288 H314 0.950 . S
C289 N286 1.332 . S
C289 C288 1.382 . S
C289 H300 0.952 . S
C290 C287 1.388 . S
C290 C291 1.382 . S
C290 H315 0.950 . S
C291 N286 1.332 . S
C291 C290 1.382 . S
C291 H301 0.948 . S
N292 Co270 2.282 . S
N292 C296 1.332 . S
N292 C297 1.332 . S
C293 C294 1.388 . S
C293 C297 1.382 . S
C293 H316 0.950 . S
C294 C293 1.388 . S
C294 C295 1.386 . S
C295 C294 1.386 . S
C295 C296 1.382 . S
C295 H317 0.950 . S
C296 N292 1.332 . S
C296 C295 1.382 . S
C296 H298 0.952 . S
C297 N292 1.332 . S
C297 C293 1.382 . S
C297 H299 0.948 . S
H298 C296 0.952 . S
H299 C297 0.948 . S
H300 C289 0.952 . S
H301 C291 0.948 . S
C302 C268 1.395 . S
C302 C272 1.391 . S
C303 C265 1.389 . S
C303 C285 1.392 . S
C304 C275 1.392 . S
C304 C277 1.389 . S
C305 C280 1.395 . S
C305 C282 1.391 . S
H306 C266 0.951 . S
H307 C267 0.950 . S
H308 C273 0.949 . S
H309 C274 0.950 . S
H310 C278 0.951 . S
H311 C279 0.950 . S
H312 C283 0.949 . S
H313 C284 0.950 . S
H314 C288 0.950 . S
H315 C290 0.950 . S
H316 C293 0.950 . S
H317 C295 0.950 . S
C318 C319 1.443 . S
C318 N322 1.376 . S
C318 C356 1.389 . S
C319 C318 1.443 . S
C319 C320 1.340 . S
C319 H359 0.951 . S
C320 C319 1.340 . S
C320 C321 1.439 . S
C320 H360 0.950 . S
C321 C320 1.439 . S
C321 N322 1.374 . S
C321 C355 1.395 . S
N322 C318 1.376 . S
N322 C321 1.374 . S
N322 Co323 2.008 . S
Co323 N322 2.008 . S
Co323 N324 1.995 . S
Co323 N329 2.008 . S
Co323 N334 1.995 . S
Co323 N339 2.282 . S
Co323 N345 2.282 . S
N324 Co323 1.995 . S
N324 C325 1.376 . S
N324 C328 1.383 . S
C325 N324 1.376 . S
C325 C326 1.446 . S
C325 C355 1.391 . S
C326 C325 1.446 . S
C326 C327 1.339 . S
C326 H361 0.949 . S
C327 C326 1.339 . S
C327 C328 1.439 . S
C327 H362 0.950 . S
C328 N324 1.383 . S
C328 C327 1.439 . S
C328 C357 1.392 . S
N329 Co323 2.008 . S
N329 C330 1.376 . S
N329 C333 1.374 . S
C330 N329 1.376 . S
C330 C331 1.443 . S
C330 C357 1.389 . S
C331 C330 1.443 . S
C331 C332 1.340 . S
C331 H363 0.951 . S
C332 C331 1.340 . S
C332 C333 1.439 . S
C332 H364 0.950 . S
C333 N329 1.374 . S
C333 C332 1.439 . S
C333 C358 1.395 . S
N334 Co323 1.995 . S
N334 C335 1.376 . S
N334 C338 1.383 . S
C335 N334 1.376 . S
C335 C336 1.446 . S
C335 C358 1.391 . S
C336 C335 1.446 . S
C336 C337 1.339 . S
C336 H365 0.949 . S
C337 C336 1.339 . S
C337 C338 1.439 . S
C337 H366 0.950 . S
C338 N334 1.383 . S
C338 C337 1.439 . S
C338 C356 1.392 . S
N339 Co323 2.282 . S
N339 C342 1.332 . S
N339 C344 1.332 . S
C340 C341 1.386 . S
C340 C343 1.388 . S
C341 C340 1.386 . S
C341 C342 1.382 . S
C341 H367 0.950 . S
C342 N339 1.332 . S
C342 C341 1.382 . S
C342 H353 0.952 . S
C343 C340 1.388 . S
C343 C344 1.382 . S
C343 H368 0.950 . S
C344 N339 1.332 . S
C344 C343 1.382 . S
C344 H354 0.948 . S
N345 Co323 2.282 . S
N345 C349 1.332 . S
N345 C350 1.332 . S
C346 C347 1.388 . S
C346 C350 1.382 . S
C346 H369 0.950 . S
C347 C346 1.388 . S
C347 C348 1.386 . S
C348 C347 1.386 . S
C348 C349 1.382 . S
C348 H370 0.950 . S
C349 N345 1.332 . S
C349 C348 1.382 . S
C349 H351 0.952 . S
C350 N345 1.332 . S
C350 C346 1.382 . S
C350 H352 0.948 . S
H351 C349 0.952 . S
H352 C350 0.948 . S
H353 C342 0.952 . S
H354 C344 0.948 . S
C355 C321 1.395 . S
C355 C325 1.391 . S
C356 C318 1.389 . S
C356 C338 1.392 . S
C357 C328 1.392 . S
C357 C330 1.389 . S
C358 C333 1.395 . S
C358 C335 1.391 . S
H359 C319 0.951 . S
H360 C320 0.950 . S
H361 C326 0.949 . S
H362 C327 0.950 . S
H363 C331 0.951 . S
H364 C332 0.950 . S
H365 C336 0.949 . S
H366 C337 0.950 . S
H367 C341 0.950 . S
H368 C343 0.950 . S
H369 C346 0.950 . S
H370 C348 0.950 . S
C371 C372 1.443 . S
C371 N375 1.376 . S
C371 C409 1.389 . S
C372 C371 1.443 . S
C372 C373 1.340 . S
C372 H412 0.951 . S
C373 C372 1.340 . S
C373 C374 1.439 . S
C373 H413 0.950 . S
C374 C373 1.439 . S
C374 N375 1.374 . S
C374 C408 1.395 . S
N375 C371 1.376 . S
N375 C374 1.374 . S
N375 Co376 2.008 . S
Co376 N375 2.008 . S
Co376 N377 1.995 . S
Co376 N382 2.008 . S
Co376 N387 1.995 . S
Co376 N392 2.282 . S
Co376 N398 2.282 . S
N377 Co376 1.995 . S
N377 C378 1.376 . S
N377 C381 1.383 . S
C378 N377 1.376 . S
C378 C379 1.446 . S
C378 C408 1.391 . S
C379 C378 1.446 . S
C379 C380 1.339 . S
C379 H414 0.949 . S
C380 C379 1.339 . S
C380 C381 1.439 . S
C380 H415 0.950 . S
C381 N377 1.383 . S
C381 C380 1.439 . S
C381 C410 1.392 . S
N382 Co376 2.008 . S
N382 C383 1.376 . S
N382 C386 1.374 . S
C383 N382 1.376 . S
C383 C384 1.443 . S
C383 C410 1.389 . S
C384 C383 1.443 . S
C384 C385 1.340 . S
C384 H416 0.951 . S
C385 C384 1.340 . S
C385 C386 1.439 . S
C385 H417 0.950 . S
C386 N382 1.374 . S
C386 C385 1.439 . S
C386 C411 1.395 . S
N387 Co376 1.995 . S
N387 C388 1.376 . S
N387 C391 1.383 . S
C388 N387 1.376 . S
C388 C389 1.446 . S
C388 C411 1.391 . S
C389 C388 1.446 . S
C389 C390 1.339 . S
C389 H418 0.949 . S
C390 C389 1.339 . S
C390 C391 1.439 . S
C390 H419 0.950 . S
C391 N387 1.383 . S
C391 C390 1.439 . S
C391 C409 1.392 . S
N392 Co376 2.282 . S
N392 C395 1.332 . S
N392 C397 1.332 . S
C393 C394 1.386 . S
C393 C396 1.388 . S
C394 C393 1.386 . S
C394 C395 1.382 . S
C394 H420 0.950 . S
C395 N392 1.332 . S
C395 C394 1.382 . S
C395 H406 0.952 . S
C396 C393 1.388 . S
C396 C397 1.382 . S
C396 H421 0.950 . S
C397 N392 1.332 . S
C397 C396 1.382 . S
C397 H407 0.948 . S
N398 Co376 2.282 . S
N398 C402 1.332 . S
N398 C403 1.332 . S
C399 C400 1.388 . S
C399 C403 1.382 . S
C399 H422 0.950 . S
C400 C399 1.388 . S
C400 C401 1.386 . S
C401 C400 1.386 . S
C401 C402 1.382 . S
C401 H423 0.950 . S
C402 N398 1.332 . S
C402 C401 1.382 . S
C402 H404 0.952 . S
C403 N398 1.332 . S
C403 C399 1.382 . S
C403 H405 0.948 . S
H404 C402 0.952 . S
H405 C403 0.948 . S
H406 C395 0.952 . S
H407 C397 0.948 . S
C408 C374 1.395 . S
C408 C378 1.391 . S
C409 C371 1.389 . S
C409 C391 1.392 . S
C410 C381 1.392 . S
C410 C383 1.389 . S
C411 C386 1.395 . S
C411 C388 1.391 . S
H412 C372 0.951 . S
H413 C373 0.950 . S
H414 C379 0.949 . S
H415 C380 0.950 . S
H416 C384 0.951 . S
H417 C385 0.950 . S
H418 C389 0.949 . S
H419 C390 0.950 . S
H420 C394 0.950 . S
H421 C396 0.950 . S
H422 C399 0.950 . S
H423 C401 0.950 . S
C424 C425 1.443 . S
C424 N428 1.376 . S
C424 C462 1.389 . S
C425 C424 1.443 . S
C425 C426 1.340 . S
C425 H465 0.951 . S
C426 C425 1.340 . S
C426 C427 1.439 . S
C426 H466 0.950 . S
C427 C426 1.439 . S
C427 N428 1.374 . S
C427 C461 1.395 . S
N428 C424 1.376 . S
N428 C427 1.374 . S
N428 Co429 2.008 . S
Co429 N428 2.008 . S
Co429 N430 1.995 . S
Co429 N435 2.008 . S
Co429 N440 1.995 . S
Co429 N445 2.282 . S
Co429 N451 2.282 . S
N430 Co429 1.995 . S
N430 C431 1.376 . S
N430 C434 1.383 . S
C431 N430 1.376 . S
C431 C432 1.446 . S
C431 C461 1.391 . S
C432 C431 1.446 . S
C432 C433 1.339 . S
C432 H467 0.949 . S
C433 C432 1.339 . S
C433 C434 1.439 . S
C433 H468 0.950 . S
C434 N430 1.383 . S
C434 C433 1.439 . S
C434 C463 1.392 . S
N435 Co429 2.008 . S
N435 C436 1.376 . S
N435 C439 1.374 . S
C436 N435 1.376 . S
C436 C437 1.443 . S
C436 C463 1.389 . S
C437 C436 1.443 . S
C437 C438 1.340 . S
C437 H469 0.951 . S
C438 C437 1.340 . S
C438 C439 1.439 . S
C438 H470 0.950 . S
C439 N435 1.374 . S
C439 C438 1.439 . S
C439 C464 1.395 . S
N440 Co429 1.995 . S
N440 C441 1.376 . S
N440 C444 1.383 . S
C441 N440 1.376 . S
C441 C442 1.446 . S
C441 C464 1.391 . S
C442 C441 1.446 . S
C442 C443 1.339 . S
C442 H471 0.949 . S
C443 C442 1.339 . S
C443 C444 1.439 . S
C443 H472 0.950 . S
C444 N440 1.383 . S
C444 C443 1.439 . S
C444 C462 1.392 . S
N445 Co429 2.282 . S
N445 C448 1.332 . S
N445 C450 1.332 . S
C446 C447 1.386 . S
C446 C449 1.388 . S
C447 C446 1.386 . S
C447 C448 1.382 . S
C447 H473 0.950 . S
C448 N445 1.332 . S
C448 C447 1.382 . S
C448 H459 0.952 . S
C449 C446 1.388 . S
C449 C450 1.382 . S
C449 H474 0.950 . S
C450 N445 1.332 . S
C450 C449 1.382 . S
C450 H460 0.948 . S
N451 Co429 2.282 . S
N451 C455 1.332 . S
N451 C456 1.332 . S
C452 C453 1.388 . S
C452 C456 1.382 . S
C452 H475 0.950 . S
C453 C452 1.388 . S
C453 C454 1.386 . S
C454 C453 1.386 . S
C454 C455 1.382 . S
C454 H476 0.950 . S
C455 N451 1.332 . S
C455 C454 1.382 . S
C455 H457 0.952 . S
C456 N451 1.332 . S
C456 C452 1.382 . S
C456 H458 0.948 . S
H457 C455 0.952 . S
H458 C456 0.948 . S
H459 C448 0.952 . S
H460 C450 0.948 . S
C461 C427 1.395 . S
C461 C431 1.391 . S
C462 C424 1.389 . S
C462 C444 1.392 . S
C463 C434 1.392 . S
C463 C436 1.389 . S
C464 C439 1.395 . S
C464 C441 1.391 . S
H465 C425 0.951 . S
H466 C426 0.950 . S
H467 C432 0.949 . S
H468 C433 0.950 . S
H469 C437 0.951 . S
H470 C438 0.950 . S
H471 C442 0.949 . S
H472 C443 0.950 . S
H473 C447 0.950 . S
H474 C449 0.950 . S
H475 C452 0.950 . S
H476 C454 0.950 . S
C477 C478 1.443 . S
C477 N481 1.376 . S
C477 C515 1.389 . S
C478 C477 1.443 . S
C478 C479 1.340 . S
C478 H518 0.951 . S
C479 C478 1.340 . S
C479 C480 1.439 . S
C479 H519 0.950 . S
C480 C479 1.439 . S
C480 N481 1.374 . S
C480 C514 1.395 . S
N481 C477 1.376 . S
N481 C480 1.374 . S
N481 Co482 2.008 . S
Co482 N481 2.008 . S
Co482 N483 1.995 . S
Co482 N488 2.008 . S
Co482 N493 1.995 . S
Co482 N498 2.282 . S
Co482 N504 2.282 . S
N483 Co482 1.995 . S
N483 C484 1.376 . S
N483 C487 1.383 . S
C484 N483 1.376 . S
C484 C485 1.446 . S
C484 C514 1.391 . S
C485 C484 1.446 . S
C485 C486 1.339 . S
C485 H520 0.949 . S
C486 C485 1.339 . S
C486 C487 1.439 . S
C486 H521 0.950 . S
C487 N483 1.383 . S
C487 C486 1.439 . S
C487 C516 1.392 . S
N488 Co482 2.008 . S
N488 C489 1.376 . S
N488 C492 1.374 . S
C489 N488 1.376 . S
C489 C490 1.443 . S
C489 C516 1.389 . S
C490 C489 1.443 . S
C490 C491 1.340 . S
C490 H522 0.951 . S
C491 C490 1.340 . S
C491 C492 1.439 . S
C491 H523 0.950 . S
C492 N488 1.374 . S
C492 C491 1.439 . S
C492 C517 1.395 . S
N493 Co482 1.995 . S
N493 C494 1.376 . S
N493 C497 1.383 . S
C494 N493 1.376 . S
C494 C495 1.446 . S
C494 C517 1.391 . S
C495 C494 1.446 . S
C495 C496 1.339 . S
C495 H524 0.949 . S
C496 C495 1.339 . S
C496 C497 1.439 . S
C496 H525 0.950 . S
C497 N493 1.383 . S
C497 C496 1.439 . S
C497 C515 1.392 . S
N498 Co482 2.282 . S
N498 C501 1.332 . S
N498 C503 1.332 . S
C499 C500 1.386 . S
C499 C502 1.388 . S
C500 C499 1.386 . S
C500 C501 1.382 . S
C500 H526 0.950 . S
C501 N498 1.332 . S
C501 C500 1.382 . S
C501 H512 0.952 . S
C502 C499 1.388 . S
C502 C503 1.382 . S
C502 H527 0.950 . S
C503 N498 1.332 . S
C503 C502 1.382 . S
C503 H513 0.948 . S
N504 Co482 2.282 . S
N504 C508 1.332 . S
N504 C509 1.332 . S
C505 C506 1.388 . S
C505 C509 1.382 . S
C505 H528 0.950 . S
C506 C505 1.388 . S
C506 C507 1.386 . S
C507 C506 1.386 . S
C507 C508 1.382 . S
C507 H529 0.950 . S
C508 N504 1.332 . S
C508 C507 1.382 . S
C508 H510 0.952 . S
C509 N504 1.332 . S
C509 C505 1.382 . S
C509 H511 0.948 . S
H510 C508 0.952 . S
H511 C509 0.948 . S
H512 C501 0.952 . S
H513 C503 0.948 . S
C514 C480 1.395 . S
C514 C484 1.391 . S
C515 C477 1.389 . S
C515 C497 1.392 . S
C516 C487 1.392 . S
C516 C489 1.389 . S
C517 C492 1.395 . S
C517 C494 1.391 . S
H518 C478 0.951 . S
H519 C479 0.950 . S
H520 C485 0.949 . S
H521 C486 0.950 . S
H522 C490 0.951 . S
H523 C491 0.950 . S
H524 C495 0.949 . S
H525 C496 0.950 . S
H526 C500 0.950 . S
H527 C502 0.950 . S
H528 C505 0.950 . S
H529 C507 0.950 . S
C530 C531 1.443 . S
C530 N534 1.376 . S
C530 C568 1.389 . S
C531 C530 1.443 . S
C531 C532 1.340 . S
C531 H571 0.951 . S
C532 C531 1.340 . S
C532 C533 1.439 . S
C532 H572 0.950 . S
C533 C532 1.439 . S
C533 N534 1.374 . S
C533 C567 1.395 . S
N534 C530 1.376 . S
N534 C533 1.374 . S
N534 Co535 2.008 . S
Co535 N534 2.008 . S
Co535 N536 1.995 . S
Co535 N541 2.008 1_545 S
Co535 N546 1.995 1_545 S
Co535 N551 2.282 . S
Co535 N557 2.282 . S
N536 Co535 1.995 . S
N536 C537 1.376 . S
N536 C540 1.383 . S
C537 N536 1.376 . S
C537 C538 1.446 . S
C537 C567 1.391 . S
C538 C537 1.446 . S
C538 C539 1.339 . S
C538 H573 0.949 . S
C539 C538 1.339 . S
C539 C540 1.439 . S
C539 H574 0.950 . S
C540 N536 1.383 . S
C540 C539 1.439 . S
C540 C569 1.392 1_545 S
N541 Co535 2.008 1_565 S
N541 C542 1.376 . S
N541 C545 1.374 . S
C542 N541 1.376 . S
C542 C543 1.443 . S
C542 C569 1.389 . S
C543 C542 1.443 . S
C543 C544 1.340 . S
C543 H575 0.951 . S
C544 C543 1.340 . S
C544 C545 1.439 . S
C544 H576 0.950 . S
C545 N541 1.374 . S
C545 C544 1.439 . S
C545 C570 1.395 . S
N546 Co535 1.995 1_565 S
N546 C547 1.376 . S
N546 C550 1.383 . S
C547 N546 1.376 . S
C547 C548 1.446 . S
C547 C570 1.391 . S
C548 C547 1.446 . S
C548 C549 1.339 . S
C548 H577 0.949 . S
C549 C548 1.339 . S
C549 C550 1.439 . S
C549 H578 0.950 . S
C550 N546 1.383 . S
C550 C549 1.439 . S
C550 C568 1.392 1_565 S
N551 Co535 2.282 . S
N551 C554 1.332 1_545 S
N551 C556 1.332 . S
C552 C553 1.386 . S
C552 C555 1.388 1_565 S
C553 C552 1.386 . S
C553 C554 1.382 . S
C553 H579 0.950 . S
C554 N551 1.332 1_565 S
C554 C553 1.382 . S
C554 H565 0.952 . S
C555 C552 1.388 1_545 S
C555 C556 1.382 . S
C555 H580 0.950 . S
C556 N551 1.332 . S
C556 C555 1.382 . S
C556 H566 0.948 . S
N557 Co535 2.282 . S
N557 C561 1.332 . S
N557 C562 1.332 . S
C558 C559 1.388 . S
C558 C562 1.382 . S
C558 H581 0.950 1_545 S
C559 C558 1.388 . S
C559 C560 1.386 . S
C560 C559 1.386 . S
C560 C561 1.382 . S
C560 H582 0.950 . S
C561 N557 1.332 . S
C561 C560 1.382 . S
C561 H563 0.952 . S
C562 N557 1.332 . S
C562 C558 1.382 . S
C562 H564 0.948 1_545 S
H563 C561 0.952 . S
H564 C562 0.948 1_565 S
H565 C554 0.952 . S
H566 C556 0.948 . S
C567 C533 1.395 . S
C567 C537 1.391 . S
C568 C530 1.389 . S
C568 C550 1.392 1_545 S
C569 C540 1.392 1_565 S
C569 C542 1.389 . S
C570 C545 1.395 . S
C570 C547 1.391 . S
H571 C531 0.951 . S
H572 C532 0.950 . S
H573 C538 0.949 . S
H574 C539 0.950 . S
H575 C543 0.951 . S
H576 C544 0.950 . S
H577 C548 0.949 . S
H578 C549 0.950 . S
H579 C553 0.950 . S
H580 C555 0.950 . S
H581 C558 0.950 1_565 S
H582 C560 0.950 . S
C583 C584 1.443 . S
C583 N587 1.376 . S
C583 C621 1.389 . S
C584 C583 1.443 . S
C584 C585 1.340 . S
C584 H624 0.951 . S
C585 C584 1.340 . S
C585 C586 1.439 . S
C585 H625 0.950 . S
C586 C585 1.439 . S
C586 N587 1.374 . S
C586 C620 1.395 . S
N587 C583 1.376 . S
N587 C586 1.374 . S
N587 Co588 2.008 1_556 S
Co588 N587 2.008 1_554 S
Co588 N589 1.995 1_554 S
Co588 N594 2.008 . S
Co588 N599 1.995 . S
Co588 N604 2.282 . S
Co588 N610 2.282 1_554 S
N589 Co588 1.995 1_556 S
N589 C590 1.376 . S
N589 C593 1.383 . S
C590 N589 1.376 . S
C590 C591 1.446 . S
C590 C620 1.391 . S
C591 C590 1.446 . S
C591 C592 1.339 . S
C591 H626 0.949 . S
C592 C591 1.339 . S
C592 C593 1.439 . S
C592 H627 0.950 . S
C593 N589 1.383 . S
C593 C592 1.439 . S
C593 C622 1.392 1_556 S
N594 Co588 2.008 . S
N594 C595 1.376 . S
N594 C598 1.374 . S
C595 N594 1.376 . S
C595 C596 1.443 . S
C595 C622 1.389 . S
C596 C595 1.443 . S
C596 C597 1.340 . S
C596 H628 0.951 . S
C597 C596 1.340 . S
C597 C598 1.439 . S
C597 H629 0.950 . S
C598 N594 1.374 . S
C598 C597 1.439 . S
C598 C623 1.395 . S
N599 Co588 1.995 . S
N599 C600 1.376 . S
N599 C603 1.383 . S
C600 N599 1.376 . S
C600 C601 1.446 . S
C600 C623 1.391 . S
C601 C600 1.446 . S
C601 C602 1.339 . S
C601 H630 0.949 . S
C602 C601 1.339 . S
C602 C603 1.439 . S
C602 H631 0.950 . S
C603 N599 1.383 . S
C603 C602 1.439 . S
C603 C621 1.392 1_554 S
N604 Co588 2.282 . S
N604 C607 1.332 . S
N604 C609 1.332 1_554 S
C605 C606 1.386 . S
C605 C608 1.388 1_554 S
C606 C605 1.386 . S
C606 C607 1.382 . S
C606 H632 0.950 . S
C607 N604 1.332 . S
C607 C606 1.382 . S
C607 H618 0.952 . S
C608 C605 1.388 1_556 S
C608 C609 1.382 . S
C608 H633 0.950 . S
C609 N604 1.332 1_556 S
C609 C608 1.382 . S
C609 H619 0.948 . S
N610 Co588 2.282 1_556 S
N610 C614 1.332 . S
N610 C615 1.332 1_556 S
C611 C612 1.388 1_554 S
C611 C615 1.382 . S
C611 H634 0.950 . S
C612 C611 1.388 1_556 S
C612 C613 1.386 . S
C613 C612 1.386 . S
C613 C614 1.382 . S
C613 H635 0.950 . S
C614 N610 1.332 . S
C614 C613 1.382 . S
C614 H616 0.952 . S
C615 N610 1.332 1_554 S
C615 C611 1.382 . S
C615 H617 0.948 . S
H616 C614 0.952 . S
H617 C615 0.948 . S
H618 C607 0.952 . S
H619 C609 0.948 . S
C620 C586 1.395 . S
C620 C590 1.391 . S
C621 C583 1.389 . S
C621 C603 1.392 1_556 S
C622 C593 1.392 1_554 S
C622 C595 1.389 . S
C623 C598 1.395 . S
C623 C600 1.391 . S
H624 C584 0.951 . S
H625 C585 0.950 . S
H626 C591 0.949 . S
H627 C592 0.950 . S
H628 C596 0.951 . S
H629 C597 0.950 . S
H630 C601 0.949 . S
H631 C602 0.950 . S
H632 C606 0.950 . S
H633 C608 0.950 . S
H634 C611 0.950 . S
H635 C613 0.950 . S
O636 Zn637 1.953 . S
O636 C652 1.225 . S
Zn637 O636 1.953 . S
Zn637 O638 1.949 . S
Zn637 O644 1.919 . S
Zn637 O649 1.924 . S
O638 Zn637 1.949 . S
O638 Zn639 1.923 . S
O638 Zn640 1.950 . S
O638 Zn641 1.945 . S
Zn639 O638 1.923 . S
Zn639 O642 1.933 . S
Zn639 O645 1.941 . S
Zn639 O646 1.965 . S
Zn640 O638 1.950 . S
Zn640 O647 1.938 . S
Zn640 O648 1.906 1_554 S
Zn640 O658 1.953 . S
Zn641 O638 1.945 . S
Zn641 O643 1.932 . S
Zn641 O650 1.977 1_554 S
Zn641 O651 1.910 1_545 S
O642 Zn639 1.933 . S
O642 C653 1.226 . S
O643 Zn641 1.932 . S
O643 C653 1.307 . S
O644 Zn637 1.919 . S
O644 C655 1.253 . S
O645 Zn639 1.941 . S
O645 C655 1.283 . S
O646 Zn639 1.965 . S
O646 C654 1.303 . S
O647 Zn640 1.938 . S
O647 C654 1.247 . S
O648 Zn640 1.906 1_556 S
O648 C656 1.304 . S
O649 Zn637 1.924 . S
O649 C657 1.311 1_545 S
O650 Zn641 1.977 1_556 S
O650 C656 1.272 . S
O651 Zn641 1.910 1_565 S
O651 C657 1.231 . S
C652 O636 1.225 . S
C652 O658 1.298 . S
C653 O642 1.226 . S
C653 O643 1.307 . S
C654 O646 1.303 . S
C654 O647 1.247 . S
C655 O644 1.253 . S
C655 O645 1.283 . S
C656 O648 1.304 . S
C656 O650 1.272 . S
C657 O649 1.311 1_565 S
C657 O651 1.231 . S
O658 Zn640 1.953 . S
O658 C652 1.298 . S
O659 Zn660 1.953 . S
O659 C675 1.225 . S
Zn660 O659 1.953 . S
Zn660 O661 1.949 . S
Zn660 O667 1.919 . S
Zn660 O672 1.924 . S
O661 Zn660 1.949 . S
O661 Zn662 1.923 . S
O661 Zn663 1.950 . S
O661 Zn664 1.945 . S
Zn662 O661 1.923 . S
Zn662 O665 1.933 1_655 S
Zn662 O668 1.941 . S
Zn662 O669 1.965 . S
Zn663 O661 1.950 . S
Zn663 O670 1.938 . S
Zn663 O671 1.906 1_554 S
Zn663 O681 1.953 . S
Zn664 O661 1.945 . S
Zn664 O666 1.932 1_655 S
Zn664 O673 1.977 1_554 S
Zn664 O674 1.910 . S
O665 Zn662 1.933 1_455 S
O665 C676 1.226 . S
O666 Zn664 1.932 1_455 S
O666 C676 1.307 . S
O667 Zn660 1.919 . S
O667 C678 1.253 . S
O668 Zn662 1.941 . S
O668 C678 1.283 . S
O669 Zn662 1.965 . S
O669 C677 1.303 . S
O670 Zn663 1.938 . S
O670 C677 1.247 . S
O671 Zn663 1.906 1_556 S
O671 C679 1.304 . S
O672 Zn660 1.924 . S
O672 C680 1.311 . S
O673 Zn664 1.977 1_556 S
O673 C679 1.272 . S
O674 Zn664 1.910 . S
O674 C680 1.231 . S
C675 O659 1.225 . S
C675 O681 1.298 . S
C676 O665 1.226 . S
C676 O666 1.307 . S
C677 O669 1.303 . S
C677 O670 1.247 . S
C678 O667 1.253 . S
C678 O668 1.283 . S
C679 O671 1.304 . S
C679 O673 1.272 . S
C680 O672 1.311 . S
C680 O674 1.231 . S
O681 Zn663 1.953 . S
O681 C675 1.298 . S
O682 Zn683 1.953 . S
O682 C698 1.225 . S
Zn683 O682 1.953 . S
Zn683 O684 1.949 . S
Zn683 O690 1.919 . S
Zn683 O695 1.924 . S
O684 Zn683 1.949 . S
O684 Zn685 1.923 . S
O684 Zn686 1.950 . S
O684 Zn687 1.945 . S
Zn685 O684 1.923 . S
Zn685 O688 1.933 . S
Zn685 O691 1.941 . S
Zn685 O692 1.965 . S
Zn686 O684 1.950 . S
Zn686 O693 1.938 . S
Zn686 O694 1.906 1_455 S
Zn686 O704 1.953 . S
Zn687 O684 1.945 . S
Zn687 O689 1.932 . S
Zn687 O696 1.977 1_455 S
Zn687 O697 1.910 . S
O688 Zn685 1.933 . S
O688 C699 1.226 1_565 S
O689 Zn687 1.932 . S
O689 C699 1.307 1_565 S
O690 Zn683 1.919 . S
O690 C701 1.253 . S
O691 Zn685 1.941 . S
O691 C701 1.283 . S
O692 Zn685 1.965 . S
O692 C700 1.303 . S
O693 Zn686 1.938 . S
O693 C700 1.247 . S
O694 Zn686 1.906 1_655 S
O694 C702 1.304 . S
O695 Zn683 1.924 . S
O695 C703 1.311 . S
O696 Zn687 1.977 1_655 S
O696 C702 1.272 . S
O697 Zn687 1.910 . S
O697 C703 1.231 . S
C698 O682 1.225 . S
C698 O704 1.298 . S
C699 O688 1.226 1_545 S
C699 O689 1.307 1_545 S
C700 O692 1.303 . S
C700 O693 1.247 . S
C701 O690 1.253 . S
C701 O691 1.283 . S
C702 O694 1.304 . S
C702 O696 1.272 . S
C703 O695 1.311 . S
C703 O697 1.231 . S
O704 Zn686 1.953 . S
O704 C698 1.298 . S
O705 Zn706 1.953 . S
O705 C721 1.225 . S
Zn706 O705 1.953 . S
Zn706 O707 1.949 . S
Zn706 O713 1.919 . S
Zn706 O718 1.924 1_655 S
O707 Zn706 1.949 . S
O707 Zn708 1.923 . S
O707 Zn709 1.950 . S
O707 Zn710 1.945 . S
Zn708 O707 1.923 . S
Zn708 O711 1.933 . S
Zn708 O714 1.941 . S
Zn708 O715 1.965 . S
Zn709 O707 1.950 . S
Zn709 O716 1.938 . S
Zn709 O717 1.906 . S
Zn709 O727 1.953 . S
Zn710 O707 1.945 . S
Zn710 O712 1.932 . S
Zn710 O719 1.977 . S
Zn710 O720 1.910 1_655 S
O711 Zn708 1.933 . S
O711 C722 1.226 . S
O712 Zn710 1.932 . S
O712 C722 1.307 . S
O713 Zn706 1.919 . S
O713 C724 1.253 . S
O714 Zn708 1.941 . S
O714 C724 1.283 . S
O715 Zn708 1.965 . S
O715 C723 1.303 . S
O716 Zn709 1.938 . S
O716 C723 1.247 . S
O717 Zn709 1.906 . S
O717 C725 1.304 . S
O718 Zn706 1.924 1_455 S
O718 C726 1.311 . S
O719 Zn710 1.977 . S
O719 C725 1.272 . S
O720 Zn710 1.910 1_455 S
O720 C726 1.231 . S
C721 O705 1.225 . S
C721 O727 1.298 . S
C722 O711 1.226 . S
C722 O712 1.307 . S
C723 O715 1.303 . S
C723 O716 1.247 . S
C724 O713 1.253 . S
C724 O714 1.283 . S
C725 O717 1.304 . S
C725 O719 1.272 . S
C726 O718 1.311 . S
C726 O720 1.231 . S
O727 Zn709 1.953 . S
O727 C721 1.298 . S
O728 Zn729 1.953 . S
O728 C744 1.225 . S
Zn729 O728 1.953 . S
Zn729 O730 1.949 . S
Zn729 O736 1.919 . S
Zn729 O741 1.924 . S
O730 Zn729 1.949 . S
O730 Zn731 1.923 . S
O730 Zn732 1.950 . S
O730 Zn733 1.945 . S
Zn731 O730 1.923 . S
Zn731 O734 1.933 . S
Zn731 O737 1.941 . S
Zn731 O738 1.965 . S
Zn732 O730 1.950 . S
Zn732 O739 1.938 . S
Zn732 O740 1.906 . S
Zn732 O750 1.953 . S
Zn733 O730 1.945 . S
Zn733 O735 1.932 . S
Zn733 O742 1.977 . S
Zn733 O743 1.910 1_565 S
O734 Zn731 1.933 . S
O734 C745 1.226 . S
O735 Zn733 1.932 . S
O735 C745 1.307 . S
O736 Zn729 1.919 . S
O736 C747 1.253 . S
O737 Zn731 1.941 . S
O737 C747 1.283 . S
O738 Zn731 1.965 . S
O738 C746 1.303 . S
O739 Zn732 1.938 . S
O739 C746 1.247 . S
O740 Zn732 1.906 . S
O740 C748 1.304 . S
O741 Zn729 1.924 . S
O741 C749 1.311 1_565 S
O742 Zn733 1.977 . S
O742 C748 1.272 . S
O743 Zn733 1.910 1_545 S
O743 C749 1.231 . S
C744 O728 1.225 . S
C744 O750 1.298 . S
C745 O734 1.226 . S
C745 O735 1.307 . S
C746 O738 1.303 . S
C746 O739 1.247 . S
C747 O736 1.253 . S
C747 O737 1.283 . S
C748 O740 1.304 . S
C748 O742 1.272 . S
C749 O741 1.311 1_545 S
C749 O743 1.231 . S
O750 Zn732 1.953 . S
O750 C744 1.298 . S
O751 Zn752 1.953 . S
O751 C767 1.225 . S
Zn752 O751 1.953 . S
Zn752 O753 1.949 . S
Zn752 O759 1.919 . S
Zn752 O764 1.924 . S
O753 Zn752 1.949 . S
O753 Zn754 1.923 . S
O753 Zn755 1.950 . S
O753 Zn756 1.945 . S
Zn754 O753 1.923 . S
Zn754 O757 1.933 . S
Zn754 O760 1.941 . S
Zn754 O761 1.965 . S
Zn755 O753 1.950 . S
Zn755 O762 1.938 . S
Zn755 O763 1.906 . S
Zn755 O773 1.953 . S
Zn756 O753 1.945 . S
Zn756 O758 1.932 . S
Zn756 O765 1.977 . S
Zn756 O766 1.910 . S
O757 Zn754 1.933 . S
O757 C768 1.226 . S
O758 Zn756 1.932 . S
O758 C768 1.307 . S
O759 Zn752 1.919 . S
O759 C770 1.253 . S
O760 Zn754 1.941 . S
O760 C770 1.283 . S
O761 Zn754 1.965 . S
O761 C769 1.303 . S
O762 Zn755 1.938 . S
O762 C769 1.247 . S
O763 Zn755 1.906 . S
O763 C771 1.304 . S
O764 Zn752 1.924 . S
O764 C772 1.311 . S
O765 Zn756 1.977 . S
O765 C771 1.272 . S
O766 Zn756 1.910 . S
O766 C772 1.231 . S
C767 O751 1.225 . S
C767 O773 1.298 . S
C768 O757 1.226 . S
C768 O758 1.307 . S
C769 O761 1.303 . S
C769 O762 1.247 . S
C770 O759 1.253 . S
C770 O760 1.283 . S
C771 O763 1.304 . S
C771 O765 1.272 . S
C772 O764 1.311 . S
C772 O766 1.231 . S
O773 Zn755 1.953 . S
O773 C767 1.298 . S
O774 Zn775 1.953 . S
O774 C790 1.225 . S
Zn775 O774 1.953 . S
Zn775 O776 1.949 . S
Zn775 O782 1.919 . S
Zn775 O787 1.924 1_556 S
O776 Zn775 1.949 . S
O776 Zn777 1.923 . S
O776 Zn778 1.950 . S
O776 Zn779 1.941 1_556 S
Zn777 O776 1.923 . S
Zn777 O780 1.933 . S
Zn777 O783 1.941 . S
Zn777 O784 1.965 . S
Zn778 O776 1.950 . S
Zn778 O785 1.938 . S
Zn778 O786 1.906 . S
Zn778 O796 1.953 . S
Zn779 O776 1.941 1_554 S
Zn779 O781 1.929 1_554 S
Zn779 O788 1.979 . S
Zn779 O789 1.916 . S
O780 Zn777 1.933 . S
O780 C791 1.226 . S
O781 Zn779 1.929 1_556 S
O781 C791 1.307 . S
O782 Zn775 1.919 . S
O782 C793 1.253 . S
O783 Zn777 1.941 . S
O783 C793 1.283 . S
O784 Zn777 1.965 . S
O784 C792 1.303 . S
O785 Zn778 1.938 . S
O785 C792 1.247 . S
O786 Zn778 1.906 . S
O786 C794 1.304 1_556 S
O787 Zn775 1.924 1_554 S
O787 C795 1.311 . S
O788 Zn779 1.979 . S
O788 C794 1.272 . S
O789 Zn779 1.916 . S
O789 C795 1.231 . S
C790 O774 1.225 . S
C790 O796 1.298 . S
C791 O780 1.226 . S
C791 O781 1.307 . S
C792 O784 1.303 . S
C792 O785 1.247 . S
C793 O782 1.253 . S
C793 O783 1.283 . S
C794 O786 1.304 1_554 S
C794 O788 1.272 . S
C795 O787 1.311 . S
C795 O789 1.231 . S
O796 Zn778 1.953 . S
O796 C790 1.298 . S
O797 Zn798 1.953 . S
O797 C813 1.225 . S
Zn798 O797 1.953 . S
Zn798 O799 1.949 . S
Zn798 O805 1.919 . S
Zn798 O810 1.924 . S
O799 Zn798 1.949 . S
O799 Zn800 1.923 . S
O799 Zn801 1.950 . S
O799 Zn802 1.945 . S
Zn800 O799 1.923 . S
Zn800 O803 1.933 . S
Zn800 O806 1.941 . S
Zn800 O807 1.965 . S
Zn801 O799 1.950 . S
Zn801 O808 1.938 . S
Zn801 O809 1.906 1_545 S
Zn801 O819 1.953 . S
Zn802 O799 1.945 . S
Zn802 O804 1.932 1_556 S
Zn802 O811 1.977 . S
Zn802 O812 1.910 . S
O803 Zn800 1.933 . S
O803 C814 1.226 1_556 S
O804 Zn802 1.932 1_554 S
O804 C814 1.307 . S
O805 Zn798 1.919 . S
O805 C816 1.253 . S
O806 Zn800 1.941 . S
O806 C816 1.283 . S
O807 Zn800 1.965 . S
O807 C815 1.303 . S
O808 Zn801 1.938 . S
O808 C815 1.247 . S
O809 Zn801 1.906 1_565 S
O809 C817 1.304 . S
O810 Zn798 1.924 . S
O810 C818 1.311 . S
O811 Zn802 1.977 . S
O811 C817 1.272 1_545 S
O812 Zn802 1.910 . S
O812 C818 1.231 . S
C813 O797 1.225 . S
C813 O819 1.298 . S
C814 O803 1.226 1_554 S
C814 O804 1.307 . S
C815 O807 1.303 . S
C815 O808 1.247 . S
C816 O805 1.253 . S
C816 O806 1.283 . S
C817 O809 1.304 . S
C817 O811 1.272 1_565 S
C818 O810 1.311 . S
C818 O812 1.231 . S
O819 Zn801 1.953 . S
O819 C813 1.298 . S
C820 C821 1.369 . S
C820 C822 1.419 . S
C820 H824 0.930 . S
C821 C820 1.369 . S
C821 C830 1.429 . S
C822 C820 1.419 . S
C822 C823 1.363 . S
C822 H825 0.929 . S
C823 C822 1.363 . S
C823 C829 1.428 . S
H824 C820 0.930 . S
H825 C822 0.929 . S
S826 N827 1.613 . S
S826 N828 1.610 . S
N827 S826 1.613 . S
N827 C830 1.350 . S
N828 S826 1.610 . S
N828 C829 1.351 . S
C829 C823 1.428 . S
C829 N828 1.351 . S
C829 C830 1.434 . S
C830 C821 1.429 . S
C830 N827 1.350 . S
C830 C829 1.434 . S
C831 C832 1.369 . S
C831 C833 1.419 . S
C831 H835 0.930 . S
C832 C831 1.369 . S
C832 C841 1.429 . S
C833 C831 1.419 . S
C833 C834 1.363 . S
C833 H836 0.929 . S
C834 C833 1.363 . S
C834 C840 1.428 . S
H835 C831 0.930 . S
H836 C833 0.929 . S
S837 N838 1.613 . S
S837 N839 1.610 . S
N838 S837 1.613 . S
N838 C841 1.350 . S
N839 S837 1.610 . S
N839 C840 1.351 . S
C840 C834 1.428 . S
C840 N839 1.351 . S
C840 C841 1.434 . S
C841 C832 1.429 . S
C841 N838 1.350 . S
C841 C840 1.434 . S
C842 C843 1.369 . S
C842 C844 1.419 . S
C842 H846 0.930 . S
C843 C842 1.369 . S
C843 C852 1.429 . S
C844 C842 1.419 . S
C844 C845 1.363 . S
C844 H847 0.929 . S
C845 C844 1.363 . S
C845 C851 1.428 . S
H846 C842 0.930 . S
H847 C844 0.929 . S
S848 N849 1.613 . S
S848 N850 1.610 . S
N849 S848 1.613 . S
N849 C852 1.350 . S
N850 S848 1.610 . S
N850 C851 1.351 . S
C851 C845 1.428 . S
C851 N850 1.351 . S
C851 C852 1.434 . S
C852 C843 1.429 . S
C852 N849 1.350 . S
C852 C851 1.434 . S
C853 C854 1.387 . S
C853 C855 1.419 . S
C853 H857 0.930 . S
C854 C853 1.387 . S
C854 C863 1.408 1_455 S
C855 C853 1.419 . S
C855 C856 1.363 1_455 S
C855 H858 0.929 . S
C856 C855 1.363 1_655 S
C856 C862 1.428 . S
H857 C853 0.930 . S
H858 C855 0.929 . S
S859 N860 1.613 . S
S859 N861 1.610 . S
N860 S859 1.613 . S
N860 C863 1.350 . S
N861 S859 1.610 . S
N861 C862 1.351 . S
C862 C856 1.428 . S
C862 N861 1.351 . S
C862 C863 1.434 . S
C863 C854 1.408 1_655 S
C863 N860 1.350 . S
C863 C862 1.434 . S
C864 C865 1.369 . S
C864 C866 1.419 . S
C864 H868 0.930 1_545 S
C865 C864 1.369 . S
C865 C874 1.429 . S
C866 C864 1.419 . S
C866 C867 1.363 . S
C866 H869 0.929 1_545 S
C867 C866 1.363 . S
C867 C873 1.428 . S
H868 C864 0.930 1_565 S
H869 C866 0.929 1_565 S
S870 N871 1.613 . S
S870 N872 1.610 . S
N871 S870 1.613 . S
N871 C874 1.350 . S
N872 S870 1.610 . S
N872 C873 1.351 . S
C873 C867 1.428 . S
C873 N872 1.351 . S
C873 C874 1.434 . S
C874 C865 1.429 . S
C874 N871 1.350 . S
C874 C873 1.434 . S
C875 C876 1.369 . S
C875 C877 1.419 . S
C875 H879 0.930 . S
C876 C875 1.369 . S
C876 C885 1.429 . S
C877 C875 1.419 . S
C877 C878 1.363 . S
C877 H880 0.929 . S
C878 C877 1.363 . S
C878 C884 1.428 . S
H879 C875 0.930 . S
H880 C877 0.929 . S
S881 N882 1.613 . S
S881 N883 1.610 . S
N882 S881 1.613 . S
N882 C885 1.350 . S
N883 S881 1.610 . S
N883 C884 1.351 . S
C884 C878 1.428 . S
C884 N883 1.351 . S
C884 C885 1.434 . S
C885 C876 1.429 . S
C885 N882 1.350 . S
C885 C884 1.434 . S
C886 C887 1.369 . S
C886 C888 1.419 . S
C886 H890 0.930 . S
C887 C886 1.369 . S
C887 C896 1.429 1_565 S
C888 C886 1.419 . S
C888 C889 1.363 . S
C888 H891 0.929 . S
C889 C888 1.363 . S
C889 C895 1.428 . S
H890 C886 0.930 . S
H891 C888 0.929 . S
S892 N893 1.613 . S
S892 N894 1.610 . S
N893 S892 1.613 . S
N893 C896 1.350 . S
N894 S892 1.610 . S
N894 C895 1.351 1_545 S
C895 C889 1.428 . S
C895 N894 1.351 1_565 S
C895 C896 1.434 1_565 S
C896 C887 1.429 1_545 S
C896 N893 1.350 . S
C896 C895 1.434 1_545 S
C897 C898 1.369 . S
C897 C899 1.419 . S
C897 H901 0.930 . S
C898 C897 1.369 . S
C898 C907 1.429 . S
C899 C897 1.419 . S
C899 C900 1.363 . S
C899 H902 0.929 . S
C900 C899 1.363 . S
C900 C906 1.428 . S
H901 C897 0.930 . S
H902 C899 0.929 . S
S903 N904 1.613 . S
S903 N905 1.610 . S
N904 S903 1.613 . S
N904 C907 1.350 . S
N905 S903 1.610 . S
N905 C906 1.351 . S
C906 C900 1.428 . S
C906 N905 1.351 . S
C906 C907 1.434 . S
C907 C898 1.429 . S
C907 N904 1.350 . S
C907 C906 1.434 . S
C908 C909 1.369 . S
C908 C910 1.419 . S
C908 H912 0.930 . S
C909 C908 1.369 . S
C909 C918 1.429 . S
C910 C908 1.419 . S
C910 C911 1.363 . S
C910 H913 0.929 . S
C911 C910 1.363 . S
C911 C917 1.428 . S
H912 C908 0.930 . S
H913 C910 0.929 . S
S914 N915 1.613 1_556 S
S914 N916 1.610 . S
N915 S914 1.613 1_554 S
N915 C918 1.350 . S
N916 S914 1.610 . S
N916 C917 1.351 1_556 S
C917 C911 1.428 . S
C917 N916 1.351 1_554 S
C917 C918 1.434 . S
C918 C909 1.429 . S
C918 N915 1.350 . S
C918 C917 1.434 . S
C919 C920 1.369 . S
C919 C921 1.419 . S
C919 H923 0.930 . S
C920 C919 1.369 . S
C920 C929 1.429 . S
C921 C919 1.419 . S
C921 C922 1.363 . S
C921 H924 0.929 . S
C922 C921 1.363 . S
C922 C928 1.428 . S
H923 C919 0.930 . S
H924 C921 0.929 . S
S925 N926 1.613 . S
S925 N927 1.610 . S
N926 S925 1.613 . S
N926 C929 1.350 . S
N927 S925 1.610 . S
N927 C928 1.351 . S
C928 C922 1.428 . S
C928 N927 1.351 . S
C928 C929 1.434 . S
C929 C920 1.429 . S
C929 N926 1.350 . S
C929 C928 1.434 . S
C930 C931 1.369 . S
C930 C932 1.419 . S
C930 H934 0.930 . S
C931 C930 1.369 . S
C931 C940 1.429 . S
C932 C930 1.419 . S
C932 C933 1.363 . S
C932 H935 0.929 . S
C933 C932 1.363 . S
C933 C939 1.428 . S
H934 C930 0.930 . S
H935 C932 0.929 . S
S936 N937 1.613 . S
S936 N938 1.610 . S
N937 S936 1.613 . S
N937 C940 1.350 . S
N938 S936 1.610 . S
N938 C939 1.351 . S
C939 C933 1.428 . S
C939 N938 1.351 . S
C939 C940 1.434 . S
C940 C931 1.429 . S
C940 N937 1.350 . S
C940 C939 1.434 . S
C941 C942 1.369 . S
C941 C943 1.419 . S
C941 H945 0.930 . S
C942 C941 1.369 . S
C942 C951 1.429 . S
C943 C941 1.419 . S
C943 C944 1.363 . S
C943 H946 0.929 . S
C944 C943 1.363 . S
C944 C950 1.428 . S
H945 C941 0.930 . S
H946 C943 0.929 . S
S947 N948 1.613 . S
S947 N949 1.610 . S
N948 S947 1.613 . S
N948 C951 1.350 . S
N949 S947 1.610 . S
N949 C950 1.351 . S
C950 C944 1.428 . S
C950 N949 1.351 . S
C950 C951 1.434 . S
C951 C942 1.429 . S
C951 N948 1.350 . S
C951 C950 1.434 . S
C952 C953 1.369 . S
C952 C954 1.419 . S
C952 H956 0.930 . S
C953 C952 1.369 . S
C953 C962 1.429 . S
C954 C952 1.419 . S
C954 C955 1.363 . S
C954 H957 0.929 . S
C955 C954 1.363 . S
C955 C961 1.428 . S
H956 C952 0.930 . S
H957 C954 0.929 . S
S958 N959 1.613 . S
S958 N960 1.610 . S
N959 S958 1.613 . S
N959 C962 1.350 . S
N960 S958 1.610 . S
N960 C961 1.351 . S
C961 C955 1.428 . S
C961 N960 1.351 . S
C961 C962 1.434 . S
C962 C953 1.429 . S
C962 N959 1.350 . S
C962 C961 1.434 . S
C963 C964 1.369 . S
C963 C965 1.419 . S
C963 H967 0.930 . S
C964 C963 1.369 . S
C964 C973 1.429 . S
C965 C963 1.419 . S
C965 C966 1.363 . S
C965 H968 0.929 . S
C966 C965 1.363 . S
C966 C972 1.428 . S
H967 C963 0.930 . S
H968 C965 0.929 . S
S969 N970 1.613 . S
S969 N971 1.610 . S
N970 S969 1.613 . S
N970 C973 1.350 . S
N971 S969 1.610 . S
N971 C972 1.351 . S
C972 C966 1.428 . S
C972 N971 1.351 . S
C972 C973 1.434 . S
C973 C964 1.429 . S
C973 N970 1.350 . S
C973 C972 1.434 . S
C974 C975 1.369 . S
C974 C976 1.419 . S
C974 H978 0.930 . S
C975 C974 1.369 . S
C975 C984 1.429 . S
C976 C974 1.419 . S
C976 C977 1.363 . S
C976 H979 0.929 . S
C977 C976 1.363 . S
C977 C983 1.428 . S
H978 C974 0.930 . S
H979 C976 0.929 . S
S980 N981 1.613 . S
S980 N982 1.610 . S
N981 S980 1.613 . S
N981 C984 1.350 . S
N982 S980 1.610 . S
N982 C983 1.351 . S
C983 C977 1.428 . S
C983 N982 1.351 . S
C983 C984 1.434 . S
C984 C975 1.429 . S
C984 N981 1.350 . S
C984 C983 1.434 . S
C985 C986 1.369 . S
C985 C987 1.419 . S
C985 H989 0.930 . S
C986 C985 1.369 . S
C986 C995 1.429 . S
C987 C985 1.419 . S
C987 C988 1.363 . S
C987 H990 0.929 . S
C988 C987 1.363 . S
C988 C994 1.428 . S
H989 C985 0.930 . S
H990 C987 0.929 . S
S991 N992 1.613 . S
S991 N993 1.610 . S
N992 S991 1.613 . S
N992 C995 1.350 . S
N993 S991 1.610 . S
N993 C994 1.351 . S
C994 C988 1.428 . S
C994 N993 1.351 . S
C994 C995 1.434 . S
C995 C986 1.429 . S
C995 N992 1.350 . S
C995 C994 1.434 . S
C996 C997 1.369 . S
C996 C998 1.419 . S
C996 H1000 0.930 . S
C997 C996 1.369 . S
C997 C1006 1.429 . S
C998 C996 1.419 . S
C998 C999 1.363 . S
C998 H1001 0.929 . S
C999 C998 1.363 . S
C999 C1005 1.428 . S
H1000 C996 0.930 . S
H1001 C998 0.929 . S
S1002 N1003 1.613 . S
S1002 N1004 1.610 . S
N1003 S1002 1.613 . S
N1003 C1006 1.350 . S
N1004 S1002 1.610 . S
N1004 C1005 1.351 . S
C1005 C999 1.428 . S
C1005 N1004 1.351 . S
C1005 C1006 1.434 . S
C1006 C997 1.429 . S
C1006 N1003 1.350 . S
C1006 C1005 1.434 . S
C1007 C1008 1.369 . S
C1007 C1009 1.419 . S
C1007 H1011 0.930 . S
C1008 C1007 1.369 . S
C1008 C1017 1.429 . S
C1009 C1007 1.419 . S
C1009 C1010 1.363 . S
C1009 H1012 0.929 . S
C1010 C1009 1.363 . S
C1010 C1016 1.428 . S
H1011 C1007 0.930 . S
H1012 C1009 0.929 . S
S1013 N1014 1.613 . S
S1013 N1015 1.610 . S
N1014 S1013 1.613 . S
N1014 C1017 1.350 . S
N1015 S1013 1.610 . S
N1015 C1016 1.351 . S
C1016 C1010 1.428 . S
C1016 N1015 1.351 . S
C1016 C1017 1.434 . S
C1017 C1008 1.429 . S
C1017 N1014 1.350 . S
C1017 C1016 1.434 . S
C1018 C1019 1.369 . S
C1018 C1020 1.419 . S
C1018 H1022 0.930 . S
C1019 C1018 1.369 . S
C1019 C1028 1.429 . S
C1020 C1018 1.419 . S
C1020 C1021 1.363 . S
C1020 H1023 0.929 . S
C1021 C1020 1.363 . S
C1021 C1027 1.428 . S
H1022 C1018 0.930 . S
H1023 C1020 0.929 . S
S1024 N1025 1.613 . S
S1024 N1026 1.610 . S
N1025 S1024 1.613 . S
N1025 C1028 1.350 . S
N1026 S1024 1.610 . S
N1026 C1027 1.351 . S
C1027 C1021 1.428 . S
C1027 N1026 1.351 . S
C1027 C1028 1.434 . S
C1028 C1019 1.429 . S
C1028 N1025 1.350 . S
C1028 C1027 1.434 . S
C1029 C1030 1.369 . S
C1029 C1031 1.419 . S
C1029 H1033 0.930 . S
C1030 C1029 1.369 . S
C1030 C1039 1.429 . S
C1031 C1029 1.419 . S
C1031 C1032 1.363 . S
C1031 H1034 0.929 . S
C1032 C1031 1.363 . S
C1032 C1038 1.428 . S
H1033 C1029 0.930 . S
H1034 C1031 0.929 . S
S1035 N1036 1.613 . S
S1035 N1037 1.610 . S
N1036 S1035 1.613 . S
N1036 C1039 1.350 1_565 S
N1037 S1035 1.610 . S
N1037 C1038 1.351 1_565 S
C1038 C1032 1.428 . S
C1038 N1037 1.351 1_545 S
C1038 C1039 1.434 . S
C1039 C1030 1.429 . S
C1039 N1036 1.350 1_545 S
C1039 C1038 1.434 . S
C1040 C1041 1.369 . S
C1040 C1042 1.419 . S
C1040 H1044 0.930 . S
C1041 C1040 1.369 . S
C1041 C1050 1.429 . S
C1042 C1040 1.419 . S
C1042 C1043 1.363 . S
C1042 H1045 0.929 . S
C1043 C1042 1.363 . S
C1043 C1049 1.428 . S
H1044 C1040 0.930 . S
H1045 C1042 0.929 . S
S1046 N1047 1.613 . S
S1046 N1048 1.610 . S
N1047 S1046 1.613 . S
N1047 C1050 1.350 . S
N1048 S1046 1.610 . S
N1048 C1049 1.351 . S
C1049 C1043 1.428 . S
C1049 N1048 1.351 . S
C1049 C1050 1.434 . S
C1050 C1041 1.429 . S
C1050 N1047 1.350 . S
C1050 C1049 1.434 . S
C1051 C1052 1.369 . S
C1051 C1053 1.419 . S
C1051 H1055 0.930 . S
C1052 C1051 1.369 . S
C1052 C1061 1.429 . S
C1053 C1051 1.419 . S
C1053 C1054 1.363 . S
C1053 H1056 0.929 . S
C1054 C1053 1.363 . S
C1054 C1060 1.428 . S
H1055 C1051 0.930 . S
H1056 C1053 0.929 . S
S1057 N1058 1.613 . S
S1057 N1059 1.610 1_554 S
N1058 S1057 1.613 . S
N1058 C1061 1.350 1_554 S
N1059 S1057 1.610 1_556 S
N1059 C1060 1.351 . S
C1060 C1054 1.428 . S
C1060 N1059 1.351 . S
C1060 C1061 1.434 . S
C1061 C1052 1.429 . S
C1061 N1058 1.350 1_556 S
C1061 C1060 1.434 . S
C1062 C1063 1.369 1_556 S
C1062 C1064 1.419 . S
C1062 H1066 0.930 . S
C1063 C1062 1.369 1_554 S
C1063 C1072 1.429 . S
C1064 C1062 1.419 . S
C1064 C1065 1.363 1_556 S
C1064 H1067 0.929 . S
C1065 C1064 1.363 1_554 S
C1065 C1071 1.428 . S
H1066 C1062 0.930 . S
H1067 C1064 0.929 . S
S1068 N1069 1.613 . S
S1068 N1070 1.610 . S
N1069 S1068 1.613 . S
N1069 C1072 1.350 . S
N1070 S1068 1.610 . S
N1070 C1071 1.351 . S
C1071 C1065 1.428 . S
C1071 N1070 1.351 . S
C1071 C1072 1.434 . S
C1072 C1063 1.429 . S
C1072 N1069 1.350 . S
C1072 C1071 1.434 . S
C1073 C1074 1.369 1_556 S
C1073 C1075 1.419 . S
C1073 H1077 0.930 . S
C1074 C1073 1.369 1_554 S
C1074 C1083 1.429 . S
C1075 C1073 1.419 . S
C1075 C1076 1.363 1_556 S
C1075 H1078 0.929 . S
C1076 C1075 1.363 1_554 S
C1076 C1082 1.428 . S
H1077 C1073 0.930 . S
H1078 C1075 0.929 . S
S1079 N1080 1.613 . S
S1079 N1081 1.610 . S
N1080 S1079 1.613 . S
N1080 C1083 1.350 . S
N1081 S1079 1.610 . S
N1081 C1082 1.351 . S
C1082 C1076 1.428 . S
C1082 N1081 1.351 . S
C1082 C1083 1.434 . S
C1083 C1074 1.429 . S
C1083 N1080 1.350 . S
C1083 C1082 1.434 . S
C1084 C1085 1.369 . S
C1084 C1086 1.419 . S
C1084 H1088 0.930 . S
C1085 C1084 1.369 . S
C1085 C1094 1.429 . S
C1086 C1084 1.419 . S
C1086 C1087 1.363 . S
C1086 H1089 0.929 . S
C1087 C1086 1.363 . S
C1087 C1093 1.428 . S
H1088 C1084 0.930 . S
H1089 C1086 0.929 . S
S1090 N1091 1.613 . S
S1090 N1092 1.610 . S
N1091 S1090 1.613 . S
N1091 C1094 1.350 1_655 S
N1092 S1090 1.610 . S
N1092 C1093 1.351 1_655 S
C1093 C1087 1.428 . S
C1093 N1092 1.351 1_455 S
C1093 C1094 1.434 . S
C1094 C1085 1.429 . S
C1094 N1091 1.350 1_455 S
C1094 C1093 1.434 . S
C1095 C1096 1.369 . S
C1095 C1097 1.419 . S
C1095 H1099 0.930 . S
C1096 C1095 1.369 . S
C1096 C1105 1.429 1_655 S
C1097 C1095 1.419 . S
C1097 C1098 1.363 . S
C1097 H1100 0.929 . S
C1098 C1097 1.363 . S
C1098 C1104 1.428 1_655 S
H1099 C1095 0.930 . S
H1100 C1097 0.929 . S
S1101 N1102 1.613 . S
S1101 N1103 1.610 . S
N1102 S1101 1.613 . S
N1102 C1105 1.350 . S
N1103 S1101 1.610 . S
N1103 C1104 1.351 . S
C1104 C1098 1.428 1_455 S
C1104 N1103 1.351 . S
C1104 C1105 1.434 . S
C1105 C1096 1.429 1_455 S
C1105 N1102 1.350 . S
C1105 C1104 1.434 . S
C1106 C1107 1.369 . S
C1106 C1108 1.419 . S
C1106 H1110 0.926 1_455 S
C1107 C1106 1.369 . S
C1107 C1116 1.429 . S
C1108 C1106 1.419 . S
C1108 C1109 1.363 . S
C1108 H1111 0.929 1_455 S
C1109 C1108 1.363 . S
C1109 C1115 1.428 . S
H1110 C1106 0.926 1_655 S
H1111 C1108 0.929 1_655 S
S1112 N1113 1.613 . S
S1112 N1114 1.610 . S
N1113 S1112 1.613 . S
N1113 C1116 1.350 . S
N1114 S1112 1.610 . S
N1114 C1115 1.351 . S
C1115 C1109 1.428 . S
C1115 N1114 1.351 . S
C1115 C1116 1.434 . S
C1116 C1107 1.429 . S
C1116 N1113 1.350 . S
C1116 C1115 1.434 . S
C1117 C1118 1.369 1_455 S
C1117 C1119 1.419 . S
C1117 H1121 0.930 . S
C1118 C1117 1.369 1_655 S
C1118 C1127 1.429 . S
C1119 C1117 1.419 . S
C1119 C1120 1.363 1_455 S
C1119 H1122 0.929 . S
C1120 C1119 1.363 1_655 S
C1120 C1126 1.428 . S
H1121 C1117 0.930 . S
H1122 C1119 0.929 . S
S1123 N1124 1.613 . S
S1123 N1125 1.610 . S
N1124 S1123 1.613 . S
N1124 C1127 1.350 . S
N1125 S1123 1.610 . S
N1125 C1126 1.351 . S
C1126 C1120 1.428 . S
C1126 N1125 1.351 . S
C1126 C1127 1.434 . S
C1127 C1118 1.429 . S
C1127 N1124 1.350 . S
C1127 C1126 1.434 . S
C1128 C1129 1.369 . S
C1128 C1130 1.419 . S
C1128 H1132 0.930 . S
C1129 C1128 1.369 . S
C1129 C1138 1.429 . S
C1130 C1128 1.419 . S
C1130 C1131 1.363 . S
C1130 H1133 0.929 . S
C1131 C1130 1.363 . S
C1131 C1137 1.428 . S
H1132 C1128 0.930 . S
H1133 C1130 0.929 . S
S1134 N1135 1.613 . S
S1134 N1136 1.610 . S
N1135 S1134 1.613 . S
N1135 C1138 1.350 . S
N1136 S1134 1.610 . S
N1136 C1137 1.351 . S
C1137 C1131 1.428 . S
C1137 N1136 1.351 . S
C1137 C1138 1.434 . S
C1138 C1129 1.429 . S
C1138 N1135 1.350 . S
C1138 C1137 1.434 . S
C1139 C1140 1.369 . S
C1139 C1141 1.419 . S
C1139 H1143 0.930 . S
C1140 C1139 1.369 . S
C1140 C1149 1.429 . S
C1141 C1139 1.419 . S
C1141 C1142 1.363 . S
C1141 H1144 0.929 . S
C1142 C1141 1.363 . S
C1142 C1148 1.428 . S
H1143 C1139 0.930 . S
H1144 C1141 0.929 . S
S1145 N1146 1.613 . S
S1145 N1147 1.610 . S
N1146 S1145 1.613 . S
N1146 C1149 1.350 . S
N1147 S1145 1.610 . S
N1147 C1148 1.351 . S
C1148 C1142 1.428 . S
C1148 N1147 1.351 . S
C1148 C1149 1.434 . S
C1149 C1140 1.429 . S
C1149 N1146 1.350 . S
C1149 C1148 1.434 . S
C1150 C1151 1.369 . S
C1150 C1152 1.419 . S
C1150 H1154 0.930 1_565 S
C1151 C1150 1.369 . S
C1151 C1160 1.429 . S
C1152 C1150 1.419 . S
C1152 C1153 1.363 . S
C1152 H1155 0.929 1_565 S
C1153 C1152 1.363 . S
C1153 C1159 1.428 . S
H1154 C1150 0.930 1_545 S
H1155 C1152 0.929 1_545 S
S1156 N1157 1.613 . S
S1156 N1158 1.610 . S
N1157 S1156 1.613 . S
N1157 C1160 1.350 . S
N1158 S1156 1.610 . S
N1158 C1159 1.351 . S
C1159 C1153 1.428 . S
C1159 N1158 1.351 . S
C1159 C1160 1.434 . S
C1160 C1151 1.429 . S
C1160 N1157 1.350 . S
C1160 C1159 1.434 . S
C1161 C1162 1.369 . S
C1161 C1163 1.419 . S
C1161 H1165 0.930 . S
C1162 C1161 1.369 . S
C1162 C1171 1.429 . S
C1163 C1161 1.419 . S
C1163 C1164 1.363 . S
C1163 H1166 0.929 . S
C1164 C1163 1.363 . S
C1164 C1170 1.428 . S
H1165 C1161 0.930 . S
H1166 C1163 0.929 . S
S1167 N1168 1.613 . S
S1167 N1169 1.610 . S
N1168 S1167 1.613 . S
N1168 C1171 1.350 . S
N1169 S1167 1.610 . S
N1169 C1170 1.351 . S
C1170 C1164 1.428 . S
C1170 N1169 1.351 . S
C1170 C1171 1.434 . S
C1171 C1162 1.429 . S
C1171 N1168 1.350 . S
C1171 C1170 1.434 . S
C1172 C1173 1.369 . S
C1172 C1174 1.419 . S
C1172 H1176 0.926 1_554 S
C1173 C1172 1.369 . S
C1173 C1182 1.429 . S
C1174 C1172 1.419 . S
C1174 C1175 1.363 . S
C1174 H1177 0.929 . S
C1175 C1174 1.363 . S
C1175 C1181 1.428 . S
H1176 C1172 0.926 1_556 S
H1177 C1174 0.929 . S
S1178 N1179 1.613 . S
S1178 N1180 1.610 . S
N1179 S1178 1.613 . S
N1179 C1182 1.350 . S
N1180 S1178 1.610 . S
N1180 C1181 1.351 . S
C1181 C1175 1.428 . S
C1181 N1180 1.351 . S
C1181 C1182 1.434 . S
C1182 C1173 1.429 . S
C1182 N1179 1.350 . S
C1182 C1181 1.434 . S
C1183 C1184 1.369 . S
C1183 C1185 1.419 . S
C1183 H1187 0.930 . S
C1184 C1183 1.369 . S
C1184 C1193 1.429 . S
C1185 C1183 1.419 . S
C1185 C1186 1.363 . S
C1185 H1188 0.929 . S
C1186 C1185 1.363 . S
C1186 C1192 1.428 . S
H1187 C1183 0.930 . S
H1188 C1185 0.929 . S
S1189 N1190 1.613 . S
S1189 N1191 1.610 . S
N1190 S1189 1.613 . S
N1190 C1193 1.350 . S
N1191 S1189 1.610 . S
N1191 C1192 1.351 . S
C1192 C1186 1.428 . S
C1192 N1191 1.351 . S
C1192 C1193 1.434 . S
C1193 C1184 1.429 . S
C1193 N1190 1.350 . S
C1193 C1192 1.434 . S
C1194 C1195 1.369 . S
C1194 C1196 1.419 . S
C1194 H1198 0.930 . S
C1195 C1194 1.369 . S
C1195 C1204 1.429 . S
C1196 C1194 1.419 . S
C1196 C1197 1.363 . S
C1196 H1199 0.929 . S
C1197 C1196 1.363 . S
C1197 C1203 1.428 . S
H1198 C1194 0.930 . S
H1199 C1196 0.929 . S
S1200 N1201 1.613 . S
S1200 N1202 1.610 . S
N1201 S1200 1.613 . S
N1201 C1204 1.350 . S
N1202 S1200 1.610 . S
N1202 C1203 1.351 . S
C1203 C1197 1.428 . S
C1203 N1202 1.351 . S
C1203 C1204 1.434 . S
C1204 C1195 1.429 . S
C1204 N1201 1.350 . S
C1204 C1203 1.434 . S
C1205 C1206 1.369 . S
C1205 C1207 1.419 . S
C1205 H1209 0.930 . S
C1206 C1205 1.369 . S
C1206 C1215 1.429 . S
C1207 C1205 1.419 . S
C1207 C1208 1.363 . S
C1207 H1210 0.929 . S
C1208 C1207 1.363 . S
C1208 C1214 1.428 . S
H1209 C1205 0.930 . S
H1210 C1207 0.929 . S
S1211 N1212 1.613 . S
S1211 N1213 1.610 . S
N1212 S1211 1.613 . S
N1212 C1215 1.350 . S
N1213 S1211 1.610 . S
N1213 C1214 1.351 . S
C1214 C1208 1.428 . S
C1214 N1213 1.351 . S
C1214 C1215 1.434 . S
C1215 C1206 1.429 . S
C1215 N1212 1.350 . S
C1215 C1214 1.434 . S
C1216 C1217 1.369 . S
C1216 C1218 1.419 . S
C1216 H1220 0.930 . S
C1217 C1216 1.369 . S
C1217 C1226 1.429 . S
C1218 C1216 1.419 . S
C1218 C1219 1.363 . S
C1218 H1221 0.929 . S
C1219 C1218 1.363 . S
C1219 C1225 1.428 . S
H1220 C1216 0.930 . S
H1221 C1218 0.929 . S
S1222 N1223 1.613 . S
S1222 N1224 1.610 . S
N1223 S1222 1.613 . S
N1223 C1226 1.350 . S
N1224 S1222 1.610 . S
N1224 C1225 1.351 . S
C1225 C1219 1.428 . S
C1225 N1224 1.351 . S
C1225 C1226 1.434 . S
C1226 C1217 1.429 . S
C1226 N1223 1.350 . S
C1226 C1225 1.434 . S
C1227 C1228 1.369 . S
C1227 C1229 1.419 . S
C1227 H1231 0.930 . S
C1228 C1227 1.369 . S
C1228 C1237 1.429 . S
C1229 C1227 1.419 . S
C1229 C1230 1.363 . S
C1229 H1232 0.929 . S
C1230 C1229 1.363 . S
C1230 C1236 1.428 . S
H1231 C1227 0.930 . S
H1232 C1229 0.929 . S
S1233 N1234 1.613 . S
S1233 N1235 1.610 . S
N1234 S1233 1.613 . S
N1234 C1237 1.350 . S
N1235 S1233 1.610 . S
N1235 C1236 1.351 . S
C1236 C1230 1.428 . S
C1236 N1235 1.351 . S
C1236 C1237 1.434 . S
C1237 C1228 1.429 . S
C1237 N1234 1.350 . S
C1237 C1236 1.434 . S
C1238 C1239 1.369 . S
C1238 C1240 1.419 . S
C1238 H1242 0.930 . S
C1239 C1238 1.369 . S
C1239 C1248 1.429 . S
C1240 C1238 1.419 . S
C1240 C1241 1.363 . S
C1240 H1243 0.929 . S
C1241 C1240 1.363 . S
C1241 C1247 1.428 . S
H1242 C1238 0.930 . S
H1243 C1240 0.929 . S
S1244 N1245 1.613 . S
S1244 N1246 1.610 . S
N1245 S1244 1.613 . S
N1245 C1248 1.350 . S
N1246 S1244 1.610 . S
N1246 C1247 1.351 . S
C1247 C1241 1.428 . S
C1247 N1246 1.351 . S
C1247 C1248 1.434 . S
C1248 C1239 1.429 . S
C1248 N1245 1.350 . S
C1248 C1247 1.434 . S
C1249 C1250 1.369 . S
C1249 C1251 1.419 . S
C1249 H1253 0.930 . S
C1250 C1249 1.369 . S
C1250 C1259 1.429 . S
C1251 C1249 1.419 . S
C1251 C1252 1.363 . S
C1251 H1254 0.929 . S
C1252 C1251 1.363 . S
C1252 C1258 1.428 . S
H1253 C1249 0.930 . S
H1254 C1251 0.929 . S
S1255 N1256 1.613 . S
S1255 N1257 1.610 . S
N1256 S1255 1.613 . S
N1256 C1259 1.350 . S
N1257 S1255 1.610 . S
N1257 C1258 1.351 . S
C1258 C1252 1.428 . S
C1258 N1257 1.351 . S
C1258 C1259 1.434 . S
C1259 C1250 1.429 . S
C1259 N1256 1.350 . S
C1259 C1258 1.434 . S
C1260 C1261 1.369 . S
C1260 C1262 1.419 . S
C1260 H1264 0.930 . S
C1261 C1260 1.369 . S
C1261 C1270 1.429 . S
C1262 C1260 1.419 . S
C1262 C1263 1.363 . S
C1262 H1265 0.929 . S
C1263 C1262 1.363 . S
C1263 C1269 1.428 . S
H1264 C1260 0.930 . S
H1265 C1262 0.929 . S
S1266 N1267 1.613 . S
S1266 N1268 1.610 . S
N1267 S1266 1.613 . S
N1267 C1270 1.350 . S
N1268 S1266 1.610 . S
N1268 C1269 1.351 . S
C1269 C1263 1.428 . S
C1269 N1268 1.351 . S
C1269 C1270 1.434 . S
C1270 C1261 1.429 . S
C1270 N1267 1.350 . S
C1270 C1269 1.434 . S
C1271 C1272 1.369 . S
C1271 C1273 1.419 . S
C1271 H1275 0.930 . S
C1272 C1271 1.369 . S
C1272 C1281 1.429 . S
C1273 C1271 1.419 . S
C1273 C1274 1.363 . S
C1273 H1276 0.929 . S
C1274 C1273 1.363 . S
C1274 C1280 1.428 . S
H1275 C1271 0.930 . S
H1276 C1273 0.929 . S
S1277 N1278 1.613 . S
S1277 N1279 1.610 . S
N1278 S1277 1.613 . S
N1278 C1281 1.350 . S
N1279 S1277 1.610 . S
N1279 C1280 1.351 . S
C1280 C1274 1.428 . S
C1280 N1279 1.351 . S
C1280 C1281 1.434 . S
C1281 C1272 1.429 . S
C1281 N1278 1.350 . S
C1281 C1280 1.434 . S
C1282 C1283 1.369 . S
C1282 C1284 1.419 . S
C1282 H1286 0.930 . S
C1283 C1282 1.369 . S
C1283 C1292 1.429 . S
C1284 C1282 1.419 . S
C1284 C1285 1.363 . S
C1284 H1287 0.929 . S
C1285 C1284 1.363 . S
C1285 C1291 1.428 . S
H1286 C1282 0.930 . S
H1287 C1284 0.929 . S
S1288 N1289 1.613 . S
S1288 N1290 1.610 . S
N1289 S1288 1.613 . S
N1289 C1292 1.350 . S
N1290 S1288 1.610 . S
N1290 C1291 1.351 . S
C1291 C1285 1.428 . S
C1291 N1290 1.351 . S
C1291 C1292 1.434 . S
C1292 C1283 1.429 . S
C1292 N1289 1.350 . S
C1292 C1291 1.434 . S
C1293 C1294 1.369 . S
C1293 C1295 1.419 . S
C1293 H1297 0.930 . S
C1294 C1293 1.369 . S
C1294 C1303 1.429 . S
C1295 C1293 1.419 . S
C1295 C1296 1.363 . S
C1295 H1298 0.929 . S
C1296 C1295 1.363 . S
C1296 C1302 1.428 . S
H1297 C1293 0.930 . S
H1298 C1295 0.929 . S
S1299 N1300 1.613 . S
S1299 N1301 1.610 . S
N1300 S1299 1.613 . S
N1300 C1303 1.350 1_565 S
N1301 S1299 1.610 . S
N1301 C1302 1.351 1_565 S
C1302 C1296 1.428 . S
C1302 N1301 1.351 1_545 S
C1302 C1303 1.434 . S
C1303 C1294 1.429 . S
C1303 N1300 1.350 1_545 S
C1303 C1302 1.434 . S
C1304 C1305 1.369 . S
C1304 C1306 1.419 . S
C1304 H1308 0.930 . S
C1305 C1304 1.369 . S
C1305 C1314 1.429 . S
C1306 C1304 1.419 . S
C1306 C1307 1.363 . S
C1306 H1309 0.929 . S
C1307 C1306 1.363 . S
C1307 C1313 1.428 . S
H1308 C1304 0.930 . S
H1309 C1306 0.929 . S
S1310 N1311 1.613 . S
S1310 N1312 1.610 . S
N1311 S1310 1.613 . S
N1311 C1314 1.350 . S
N1312 S1310 1.610 . S
N1312 C1313 1.351 . S
C1313 C1307 1.428 . S
C1313 N1312 1.351 . S
C1313 C1314 1.434 . S
C1314 C1305 1.429 . S
C1314 N1311 1.350 . S
C1314 C1313 1.434 . S
C1315 C1316 1.369 . S
C1315 C1317 1.419 1_556 S
C1315 H1319 0.936 . S
C1316 C1315 1.369 . S
C1316 C1325 1.429 . S
C1317 C1315 1.419 1_554 S
C1317 C1318 1.363 1_554 S
C1317 H1320 0.929 . S
C1318 C1317 1.363 1_556 S
C1318 C1324 1.428 . S
H1319 C1315 0.936 . S
H1320 C1317 0.929 . S
S1321 N1322 1.613 . S
S1321 N1323 1.610 . S
N1322 S1321 1.613 . S
N1322 C1325 1.350 . S
N1323 S1321 1.610 . S
N1323 C1324 1.351 . S
C1324 C1318 1.428 . S
C1324 N1323 1.351 . S
C1324 C1325 1.434 . S
C1325 C1316 1.429 . S
C1325 N1322 1.350 . S
C1325 C1324 1.434 . S
C1326 C1327 1.369 . S
C1326 C1328 1.419 . S
C1326 H1330 0.930 . S
C1327 C1326 1.369 . S
C1327 C1336 1.429 1_556 S
C1328 C1326 1.419 . S
C1328 C1329 1.363 . S
C1328 H1331 0.929 . S
C1329 C1328 1.363 . S
C1329 C1335 1.428 1_556 S
H1330 C1326 0.930 . S
H1331 C1328 0.929 . S
S1332 N1333 1.613 . S
S1332 N1334 1.610 . S
N1333 S1332 1.613 . S
N1333 C1336 1.350 . S
N1334 S1332 1.610 . S
N1334 C1335 1.351 . S
C1335 C1329 1.428 1_554 S
C1335 N1334 1.351 . S
C1335 C1336 1.434 . S
C1336 C1327 1.429 1_554 S
C1336 N1333 1.350 . S
C1336 C1335 1.434 . S
C1337 C1338 1.369 . S
C1337 C1339 1.419 . S
C1337 H1341 0.930 . S
C1338 C1337 1.369 . S
C1338 C1347 1.429 1_554 S
C1339 C1337 1.419 . S
C1339 C1340 1.363 . S
C1339 H1342 0.929 . S
C1340 C1339 1.363 . S
C1340 C1346 1.428 1_554 S
H1341 C1337 0.930 . S
H1342 C1339 0.929 . S
S1343 N1344 1.613 . S
S1343 N1345 1.610 . S
N1344 S1343 1.613 . S
N1344 C1347 1.350 . S
N1345 S1343 1.610 . S
N1345 C1346 1.351 . S
C1346 C1340 1.428 1_556 S
C1346 N1345 1.351 . S
C1346 C1347 1.434 . S
C1347 C1338 1.429 1_556 S
C1347 N1344 1.350 . S
C1347 C1346 1.434 . S
C821 C22 1.693 . S
C823 C699 1.692 . S
C834 C725 1.786 . S
C832 C38 1.803 . S
C845 C657 1.759 . S
C843 C75 1.712 . S
C854 C91 1.553 . S
C856 C680 1.576 . S
C865 C128 1.667 . S
C867 C814 1.681 . S
C876 C197 1.479 . S
C878 C795 1.511 . S
C889 C748 1.821 . S
C887 C144 1.831 . S
C898 C181 1.753 . S
C900 C771 1.768 . S
C911 C676 1.855 . S
C909 C234 1.869 . S
C922 C726 1.626 . S
C920 C303 1.601 . S
C931 C356 1.696 . S
C933 C702 1.671 . S
C942 C287 1.801 . S
C944 C768 1.819 . S
C955 C791 1.625 . S
C953 C393 1.620 . S
C966 C817 1.870 . S
C964 C409 1.858 . S
C975 C462 1.915 . S
C977 C772 1.951 . S
C988 C749 1.485 . S
C986 C446 1.457 . S
C997 C499 1.705 . S
C999 C722 1.708 . S
C1008 C552 1.459 . S
C1010 C703 1.501 . S
C1021 C679 1.685 . S
C1019 C515 1.720 . S
C1030 C568 1.986 . S
C1032 C656 2.000 . S
C1043 C745 1.925 . S
C1041 C340 1.923 . S
C1054 C818 1.510 . S
C1052 C621 1.491 . S
C1063 C250 1.626 . S
C1065 C794 1.602 . S
C1074 C605 1.764 . S
C1076 C653 1.760 1_655 S
C1087 C655 1.526 . S
C1085 C39 1.537 . S
C1096 C29 1.360 . S
C1098 C678 1.303 . S
C1109 C700 1.506 . S
C1107 C92 1.444 . S
C1120 C721 1.308 . S
C1118 C82 1.269 . S
C1129 C145 1.605 . S
C1131 C652 1.619 . S
C1140 C188 1.311 . S
C1142 C675 1.347 . S
C1153 C701 1.399 . S
C1151 C135 1.423 . S
C1162 C198 1.545 . S
C1164 C723 1.594 . S
C1173 C251 1.450 . S
C1175 C654 1.475 . S
C1186 C698 1.318 . S
C1184 C294 1.277 . S
C1195 C347 1.397 . S
C1197 C724 1.374 . S
C1206 C304 1.498 . S
C1208 C746 1.531 . S
C1219 C770 1.518 . S
C1217 C410 1.552 . S
C1228 C400 1.359 . S
C1230 C747 1.344 . S
C1239 C453 1.195 . S
C1241 C792 1.262 . S
C1250 C463 1.583 . S
C1252 C813 1.593 . S
C1261 C516 1.576 . S
C1263 C767 1.612 . S
C1274 C744 1.630 . S
C1272 C569 1.623 . S
C1283 C506 1.376 . S
C1285 C793 1.319 . S
C1296 C815 1.383 . S
C1294 C559 1.335 . S
C1307 C769 1.444 . S
C1305 C357 1.443 . S
C1318 C790 1.351 . S
C1316 C612 1.315 . S
C1329 C816 1.342 . S
C1327 C241 1.359 . S
C1338 C622 1.385 . S
C1340 C677 1.431 . S
