# Generated by pormake.
# Topology gar, (4,6)-cn, num edge types: 1
# Building blocks:
#     Node 0, Type 0, BuildingBlock: TATPOV_clean_sbu_0, # of connection points: 4
#     Node 1, Type 0, BuildingBlock: TATPOV_clean_sbu_0, # of connection points: 4
#     Node 2, Type 0, BuildingBlock: TATPOV_clean_sbu_0, # of connection points: 4
#     Node 3, Type 0, BuildingBlock: TATPOV_clean_sbu_0, # of connection points: 4
#     Node 4, Type 0, BuildingBlock: TATPOV_clean_sbu_0, # of connection points: 4
#     Node 5, Type 0, BuildingBlock: TATPOV_clean_sbu_0, # of connection points: 4
#     Node 6, Type 0, BuildingBlock: TATPOV_clean_sbu_0, # of connection points: 4
#     Node 7, Type 0, BuildingBlock: TATPOV_clean_sbu_0, # of connection points: 4
#     Node 8, Type 0, BuildingBlock: TATPOV_clean_sbu_0, # of connection points: 4
#     Node 9, Type 0, BuildingBlock: TATPOV_clean_sbu_0, # of connection points: 4
#     Node 10, Type 0, BuildingBlock: TATPOV_clean_sbu_0, # of connection points: 4
#     Node 11, Type 0, BuildingBlock: TATPOV_clean_sbu_0, # of connection points: 4
#     Node 12, Type 0, BuildingBlock: TATPOV_clean_sbu_0, # of connection points: 4
#     Node 13, Type 0, BuildingBlock: TATPOV_clean_sbu_0, # of connection points: 4
#     Node 14, Type 0, BuildingBlock: TATPOV_clean_sbu_0, # of connection points: 4
#     Node 15, Type 0, BuildingBlock: TATPOV_clean_sbu_0, # of connection points: 4
#     Node 16, Type 0, BuildingBlock: TATPOV_clean_sbu_0, # of connection points: 4
#     Node 17, Type 0, BuildingBlock: TATPOV_clean_sbu_0, # of connection points: 4
#     Node 18, Type 0, BuildingBlock: TATPOV_clean_sbu_0, # of connection points: 4
#     Node 19, Type 0, BuildingBlock: TATPOV_clean_sbu_0, # of connection points: 4
#     Node 20, Type 0, BuildingBlock: TATPOV_clean_sbu_0, # of connection points: 4
#     Node 21, Type 0, BuildingBlock: TATPOV_clean_sbu_0, # of connection points: 4
#     Node 22, Type 0, BuildingBlock: TATPOV_clean_sbu_0, # of connection points: 4
#     Node 23, Type 0, BuildingBlock: TATPOV_clean_sbu_0, # of connection points: 4
#     Node 24, Type 1, BuildingBlock: BETFAJ_clean_sbu_0, # of connection points: 6
#     Node 25, Type 1, BuildingBlock: BETFAJ_clean_sbu_0, # of connection points: 6
#     Node 26, Type 1, BuildingBlock: BETFAJ_clean_sbu_0, # of connection points: 6
#     Node 27, Type 1, BuildingBlock: BETFAJ_clean_sbu_0, # of connection points: 6
#     Node 28, Type 1, BuildingBlock: BETFAJ_clean_sbu_0, # of connection points: 6
#     Node 29, Type 1, BuildingBlock: BETFAJ_clean_sbu_0, # of connection points: 6
#     Node 30, Type 1, BuildingBlock: BETFAJ_clean_sbu_0, # of connection points: 6
#     Node 31, Type 1, BuildingBlock: BETFAJ_clean_sbu_0, # of connection points: 6
#     Node 32, Type 1, BuildingBlock: BETFAJ_clean_sbu_0, # of connection points: 6
#     Node 33, Type 1, BuildingBlock: BETFAJ_clean_sbu_0, # of connection points: 6
#     Node 34, Type 1, BuildingBlock: BETFAJ_clean_sbu_0, # of connection points: 6
#     Node 35, Type 1, BuildingBlock: BETFAJ_clean_sbu_0, # of connection points: 6
#     Node 36, Type 1, BuildingBlock: BETFAJ_clean_sbu_0, # of connection points: 6
#     Node 37, Type 1, BuildingBlock: BETFAJ_clean_sbu_0, # of connection points: 6
#     Node 38, Type 1, BuildingBlock: BETFAJ_clean_sbu_0, # of connection points: 6
#     Node 39, Type 1, BuildingBlock: BETFAJ_clean_sbu_0, # of connection points: 6
#     Edge 40, Type (0, 1), BuildingBlock: MIFKUJ_clean_linker_0, # of connection points: 2
#     Edge 41, Type (0, 1), BuildingBlock: MIFKUJ_clean_linker_0, # of connection points: 2
#     Edge 42, Type (0, 1), BuildingBlock: MIFKUJ_clean_linker_0, # of connection points: 2
#     Edge 43, Type (0, 1), BuildingBlock: MIFKUJ_clean_linker_0, # of connection points: 2
#     Edge 44, Type (0, 1), BuildingBlock: MIFKUJ_clean_linker_0, # of connection points: 2
#     Edge 45, Type (0, 1), BuildingBlock: MIFKUJ_clean_linker_0, # of connection points: 2
#     Edge 46, Type (0, 1), BuildingBlock: MIFKUJ_clean_linker_0, # of connection points: 2
#     Edge 47, Type (0, 1), BuildingBlock: MIFKUJ_clean_linker_0, # of connection points: 2
#     Edge 48, Type (0, 1), BuildingBlock: MIFKUJ_clean_linker_0, # of connection points: 2
#     Edge 49, Type (0, 1), BuildingBlock: MIFKUJ_clean_linker_0, # of connection points: 2
#     Edge 50, Type (0, 1), BuildingBlock: MIFKUJ_clean_linker_0, # of connection points: 2
#     Edge 51, Type (0, 1), BuildingBlock: MIFKUJ_clean_linker_0, # of connection points: 2
#     Edge 52, Type (0, 1), BuildingBlock: MIFKUJ_clean_linker_0, # of connection points: 2
#     Edge 53, Type (0, 1), BuildingBlock: MIFKUJ_clean_linker_0, # of connection points: 2
#     Edge 54, Type (0, 1), BuildingBlock: MIFKUJ_clean_linker_0, # of connection points: 2
#     Edge 55, Type (0, 1), BuildingBlock: MIFKUJ_clean_linker_0, # of connection points: 2
#     Edge 56, Type (0, 1), BuildingBlock: MIFKUJ_clean_linker_0, # of connection points: 2
#     Edge 57, Type (0, 1), BuildingBlock: MIFKUJ_clean_linker_0, # of connection points: 2
#     Edge 58, Type (0, 1), BuildingBlock: MIFKUJ_clean_linker_0, # of connection points: 2
#     Edge 59, Type (0, 1), BuildingBlock: MIFKUJ_clean_linker_0, # of connection points: 2
#     Edge 60, Type (0, 1), BuildingBlock: MIFKUJ_clean_linker_0, # of connection points: 2
#     Edge 61, Type (0, 1), BuildingBlock: MIFKUJ_clean_linker_0, # of connection points: 2
#     Edge 62, Type (0, 1), BuildingBlock: MIFKUJ_clean_linker_0, # of connection points: 2
#     Edge 63, Type (0, 1), BuildingBlock: MIFKUJ_clean_linker_0, # of connection points: 2
#     Edge 64, Type (0, 1), BuildingBlock: MIFKUJ_clean_linker_0, # of connection points: 2
#     Edge 65, Type (0, 1), BuildingBlock: MIFKUJ_clean_linker_0, # of connection points: 2
#     Edge 66, Type (0, 1), BuildingBlock: MIFKUJ_clean_linker_0, # of connection points: 2
#     Edge 67, Type (0, 1), BuildingBlock: MIFKUJ_clean_linker_0, # of connection points: 2
#     Edge 68, Type (0, 1), BuildingBlock: MIFKUJ_clean_linker_0, # of connection points: 2
#     Edge 69, Type (0, 1), BuildingBlock: MIFKUJ_clean_linker_0, # of connection points: 2
#     Edge 70, Type (0, 1), BuildingBlock: MIFKUJ_clean_linker_0, # of connection points: 2
#     Edge 71, Type (0, 1), BuildingBlock: MIFKUJ_clean_linker_0, # of connection points: 2
#     Edge 72, Type (0, 1), BuildingBlock: MIFKUJ_clean_linker_0, # of connection points: 2
#     Edge 73, Type (0, 1), BuildingBlock: MIFKUJ_clean_linker_0, # of connection points: 2
#     Edge 74, Type (0, 1), BuildingBlock: MIFKUJ_clean_linker_0, # of connection points: 2
#     Edge 75, Type (0, 1), BuildingBlock: MIFKUJ_clean_linker_0, # of connection points: 2
#     Edge 76, Type (0, 1), BuildingBlock: MIFKUJ_clean_linker_0, # of connection points: 2
#     Edge 77, Type (0, 1), BuildingBlock: MIFKUJ_clean_linker_0, # of connection points: 2
#     Edge 78, Type (0, 1), BuildingBlock: MIFKUJ_clean_linker_0, # of connection points: 2
#     Edge 79, Type (0, 1), BuildingBlock: MIFKUJ_clean_linker_0, # of connection points: 2
#     Edge 80, Type (0, 1), BuildingBlock: MIFKUJ_clean_linker_0, # of connection points: 2
#     Edge 81, Type (0, 1), BuildingBlock: MIFKUJ_clean_linker_0, # of connection points: 2
#     Edge 82, Type (0, 1), BuildingBlock: MIFKUJ_clean_linker_0, # of connection points: 2
#     Edge 83, Type (0, 1), BuildingBlock: MIFKUJ_clean_linker_0, # of connection points: 2
#     Edge 84, Type (0, 1), BuildingBlock: MIFKUJ_clean_linker_0, # of connection points: 2
#     Edge 85, Type (0, 1), BuildingBlock: MIFKUJ_clean_linker_0, # of connection points: 2
#     Edge 86, Type (0, 1), BuildingBlock: MIFKUJ_clean_linker_0, # of connection points: 2
#     Edge 87, Type (0, 1), BuildingBlock: MIFKUJ_clean_linker_0, # of connection points: 2
#     Edge 88, Type (0, 1), BuildingBlock: MIFKUJ_clean_linker_0, # of connection points: 2
#     Edge 89, Type (0, 1), BuildingBlock: MIFKUJ_clean_linker_0, # of connection points: 2
#     Edge 90, Type (0, 1), BuildingBlock: MIFKUJ_clean_linker_0, # of connection points: 2
#     Edge 91, Type (0, 1), BuildingBlock: MIFKUJ_clean_linker_0, # of connection points: 2
#     Edge 92, Type (0, 1), BuildingBlock: MIFKUJ_clean_linker_0, # of connection points: 2
#     Edge 93, Type (0, 1), BuildingBlock: MIFKUJ_clean_linker_0, # of connection points: 2
#     Edge 94, Type (0, 1), BuildingBlock: MIFKUJ_clean_linker_0, # of connection points: 2
#     Edge 95, Type (0, 1), BuildingBlock: MIFKUJ_clean_linker_0, # of connection points: 2
#     Edge 96, Type (0, 1), BuildingBlock: MIFKUJ_clean_linker_0, # of connection points: 2
#     Edge 97, Type (0, 1), BuildingBlock: MIFKUJ_clean_linker_0, # of connection points: 2
#     Edge 98, Type (0, 1), BuildingBlock: MIFKUJ_clean_linker_0, # of connection points: 2
#     Edge 99, Type (0, 1), BuildingBlock: MIFKUJ_clean_linker_0, # of connection points: 2
#     Edge 100, Type (0, 1), BuildingBlock: MIFKUJ_clean_linker_0, # of connection points: 2
#     Edge 101, Type (0, 1), BuildingBlock: MIFKUJ_clean_linker_0, # of connection points: 2
#     Edge 102, Type (0, 1), BuildingBlock: MIFKUJ_clean_linker_0, # of connection points: 2
#     Edge 103, Type (0, 1), BuildingBlock: MIFKUJ_clean_linker_0, # of connection points: 2
#     Edge 104, Type (0, 1), BuildingBlock: MIFKUJ_clean_linker_0, # of connection points: 2
#     Edge 105, Type (0, 1), BuildingBlock: MIFKUJ_clean_linker_0, # of connection points: 2
#     Edge 106, Type (0, 1), BuildingBlock: MIFKUJ_clean_linker_0, # of connection points: 2
#     Edge 107, Type (0, 1), BuildingBlock: MIFKUJ_clean_linker_0, # of connection points: 2
#     Edge 108, Type (0, 1), BuildingBlock: MIFKUJ_clean_linker_0, # of connection points: 2
#     Edge 109, Type (0, 1), BuildingBlock: MIFKUJ_clean_linker_0, # of connection points: 2
#     Edge 110, Type (0, 1), BuildingBlock: MIFKUJ_clean_linker_0, # of connection points: 2
#     Edge 111, Type (0, 1), BuildingBlock: MIFKUJ_clean_linker_0, # of connection points: 2
#     Edge 112, Type (0, 1), BuildingBlock: MIFKUJ_clean_linker_0, # of connection points: 2
#     Edge 113, Type (0, 1), BuildingBlock: MIFKUJ_clean_linker_0, # of connection points: 2
#     Edge 114, Type (0, 1), BuildingBlock: MIFKUJ_clean_linker_0, # of connection points: 2
#     Edge 115, Type (0, 1), BuildingBlock: MIFKUJ_clean_linker_0, # of connection points: 2
#     Edge 116, Type (0, 1), BuildingBlock: MIFKUJ_clean_linker_0, # of connection points: 2
#     Edge 117, Type (0, 1), BuildingBlock: MIFKUJ_clean_linker_0, # of connection points: 2
#     Edge 118, Type (0, 1), BuildingBlock: MIFKUJ_clean_linker_0, # of connection points: 2
#     Edge 119, Type (0, 1), BuildingBlock: MIFKUJ_clean_linker_0, # of connection points: 2
#     Edge 120, Type (0, 1), BuildingBlock: MIFKUJ_clean_linker_0, # of connection points: 2
#     Edge 121, Type (0, 1), BuildingBlock: MIFKUJ_clean_linker_0, # of connection points: 2
#     Edge 122, Type (0, 1), BuildingBlock: MIFKUJ_clean_linker_0, # of connection points: 2
#     Edge 123, Type (0, 1), BuildingBlock: MIFKUJ_clean_linker_0, # of connection points: 2
#     Edge 124, Type (0, 1), BuildingBlock: MIFKUJ_clean_linker_0, # of connection points: 2
#     Edge 125, Type (0, 1), BuildingBlock: MIFKUJ_clean_linker_0, # of connection points: 2
#     Edge 126, Type (0, 1), BuildingBlock: MIFKUJ_clean_linker_0, # of connection points: 2
#     Edge 127, Type (0, 1), BuildingBlock: MIFKUJ_clean_linker_0, # of connection points: 2
#     Edge 128, Type (0, 1), BuildingBlock: MIFKUJ_clean_linker_0, # of connection points: 2
#     Edge 129, Type (0, 1), BuildingBlock: MIFKUJ_clean_linker_0, # of connection points: 2
#     Edge 130, Type (0, 1), BuildingBlock: MIFKUJ_clean_linker_0, # of connection points: 2
#     Edge 131, Type (0, 1), BuildingBlock: MIFKUJ_clean_linker_0, # of connection points: 2
#     Edge 132, Type (0, 1), BuildingBlock: MIFKUJ_clean_linker_0, # of connection points: 2
#     Edge 133, Type (0, 1), BuildingBlock: MIFKUJ_clean_linker_0, # of connection points: 2
#     Edge 134, Type (0, 1), BuildingBlock: MIFKUJ_clean_linker_0, # of connection points: 2
#     Edge 135, Type (0, 1), BuildingBlock: MIFKUJ_clean_linker_0, # of connection points: 2
# Relax obj value: 0.180
# Max RMSD: 0.290
# Mean RMSD: 0.171
data_MOF--net-gar--node1-TATPOV_clean_sbu_0--node2-BETFAJ_clean_sbu_0--edge1-MIFKUJ_clean_linker_0
_symmetry_space_group_name_H-M    P1
_symmetry_Int_Tables_number       1
_symmetry_cell_setting            triclinic
loop_
_symmetry_equiv_pos_as_xyz
'x, y, z'
_cell_length_a     78.2677
_cell_length_b     73.447042
_cell_length_c     73.928904
_cell_angle_alpha  98.787923
_cell_angle_beta   95.728491
_cell_angle_gamma 104.67571
loop_
_atom_site_label
_atom_site_type_symbol
_atom_site_fract_x
_atom_site_fract_y
_atom_site_fract_z
_atom_type_partial_charge
Zn0 Zn 0.06621 0.31162 0.39602 0.0
Zn1 Zn 0.09336 0.31895 0.38541 0.0
O2 O 0.09473 0.34494 0.40065 0.0
O3 O 0.06565 0.33797 0.39381 0.0
O4 O 0.11545 0.32074 0.37473 0.0
O5 O 0.07606 0.30648 0.41998 0.0
O6 O 0.09081 0.29622 0.39897 0.0
C7 C 0.0805 0.3503 0.39926 0.0
C8 C 0.06031 0.29972 0.36078 0.0
O9 O 0.07407 0.31384 0.36321 0.0
O10 O 0.05777 0.29035 0.37369 0.0
C11 C 0.11826 0.32897 0.36103 0.0
O12 O 0.10734 0.33855 0.35534 0.0
C13 C 0.08424 0.29463 0.4139 0.0
Zn14 Zn 0.98515 0.71851 0.66296 0.0
Zn15 Zn 0.99095 0.7508 0.64574 0.0
O16 O 0.97017 0.75209 0.65877 0.0
O17 O 0.9664 0.72769 0.67374 0.0
O18 O 0.99731 0.77416 0.63478 0.0
O19 O 0.01047 0.72877 0.67546 0.0
O20 O 0.01343 0.75411 0.66218 0.0
C21 C 0.96218 0.74214 0.66955 0.0
C22 C 0.98194 0.71108 0.62334 0.0
O23 O 0.98693 0.72911 0.6247 0.0
O24 O 0.97941 0.70342 0.63739 0.0
C25 C 0.99129 0.77543 0.61861 0.0
O26 O 0.97877 0.76107 0.60843 0.0
C27 C 0.01972 0.74471 0.67283 0.0
Zn28 Zn 0.56681 0.81069 0.89668 0.0
Zn29 Zn 0.59383 0.81975 0.88551 0.0
O30 O 0.59322 0.84506 0.90106 0.0
O31 O 0.56398 0.83616 0.89467 0.0
O32 O 0.61614 0.82332 0.87438 0.0
O33 O 0.57921 0.80786 0.92064 0.0
O34 O 0.59236 0.79672 0.89877 0.0
C35 C 0.57832 0.84915 0.90061 0.0
C36 C 0.56039 0.79885 0.86152 0.0
O37 O 0.57369 0.81344 0.86381 0.0
O38 O 0.55859 0.78929 0.87437 0.0
C39 C 0.61597 0.82798 0.85856 0.0
O40 O 0.60225 0.83304 0.85137 0.0
C41 C 0.5866 0.79546 0.91414 0.0
Zn42 Zn 0.48445 0.21931 0.16319 0.0
Zn43 Zn 0.49202 0.25047 0.14525 0.0
O44 O 0.47153 0.25444 0.15765 0.0
O45 O 0.46736 0.23143 0.17433 0.0
O46 O 0.50039 0.27261 0.13307 0.0
O47 O 0.51005 0.22708 0.17476 0.0
O48 O 0.51395 0.2529 0.16223 0.0
C49 C 0.46369 0.24587 0.1694 0.0
C50 C 0.48056 0.20992 0.12394 0.0
O51 O 0.48666 0.22783 0.12496 0.0
O52 O 0.47718 0.20294 0.13822 0.0
C53 C 0.49077 0.27978 0.12305 0.0
O54 O 0.47335 0.27261 0.12023 0.0
C55 C 0.51987 0.24287 0.17246 0.0
Zn56 Zn 0.09327 0.80538 0.09368 0.0
Zn57 Zn 0.06753 0.80013 0.11461 0.0
O58 O 0.06577 0.82398 0.10241 0.0
O59 O 0.08561 0.8262 0.0831 0.0
O60 O 0.04469 0.79409 0.12675 0.0
O61 O 0.0843 0.77841 0.07994 0.0
O62 O 0.06222 0.77459 0.09645 0.0
C63 C 0.07324 0.83187 0.08986 0.0
C64 C 0.10707 0.80663 0.13192 0.0
O65 O 0.09049 0.80273 0.13396 0.0
O66 O 0.11154 0.80992 0.11646 0.0
C67 C 0.04173 0.8006 0.14274 0.0
O68 O 0.05478 0.81312 0.15427 0.0
C69 C 0.07026 0.76792 0.084 0.0
Zn70 Zn 0.48463 0.75778 0.4302 0.0
Zn71 Zn 0.5079 0.76127 0.40493 0.0
O72 O 0.51401 0.78679 0.42316 0.0
O73 O 0.49739 0.78347 0.44542 0.0
O74 O 0.52854 0.76552 0.38889 0.0
O75 O 0.49136 0.73487 0.43733 0.0
O76 O 0.51075 0.73789 0.4175 0.0
C77 C 0.50969 0.79347 0.43839 0.0
C78 C 0.46836 0.75893 0.39269 0.0
O79 O 0.48377 0.75919 0.38803 0.0
O80 O 0.46566 0.75768 0.40916 0.0
C81 C 0.54311 0.77864 0.39493 0.0
O82 O 0.54447 0.78998 0.41086 0.0
C83 C 0.50364 0.72954 0.43 0.0
Zn84 Zn 0.5938 0.30346 0.5937 0.0
Zn85 Zn 0.56722 0.29955 0.61475 0.0
O86 O 0.56534 0.32311 0.60222 0.0
O87 O 0.58771 0.32671 0.58604 0.0
O88 O 0.54512 0.29309 0.62764 0.0
O89 O 0.58208 0.27708 0.57802 0.0
O90 O 0.56188 0.2742 0.5968 0.0
C91 C 0.57446 0.33198 0.5912 0.0
C92 C 0.60607 0.30401 0.6325 0.0
O93 O 0.58965 0.30221 0.63428 0.0
O94 O 0.61121 0.30525 0.61689 0.0
C95 C 0.54027 0.30353 0.64036 0.0
O96 O 0.5504 0.32098 0.64696 0.0
C97 C 0.56833 0.26714 0.58316 0.0
Zn98 Zn 0.98505 0.25702 0.92847 0.0
Zn99 Zn 0.00882 0.26079 0.9055 0.0
O100 O 0.01625 0.28653 0.92316 0.0
O101 O 0.99761 0.28295 0.94361 0.0
O102 O 0.03001 0.26316 0.89035 0.0
O103 O 0.98896 0.23328 0.93603 0.0
O104 O 0.01076 0.2378 0.91911 0.0
C105 C 0.01069 0.29308 0.93767 0.0
C106 C 0.96892 0.25881 0.89229 0.0
O107 O 0.9847 0.25991 0.88818 0.0
O108 O 0.96578 0.2565 0.90838 0.0
C109 C 0.03972 0.27929 0.88818 0.0
O110 O 0.03501 0.29487 0.89401 0.0
C111 C 0.0022 0.2286 0.93029 0.0
Zn112 Zn 0.43707 0.00625 0.26915 0.0
Zn113 Zn 0.42529 0.03401 0.27617 0.0
O114 O 0.43653 0.03326 0.30093 0.0
O115 O 0.43322 0.0022 0.29474 0.0
O116 O 0.41521 0.05565 0.27833 0.0
O117 O 0.46034 0.02275 0.2652 0.0
O118 O 0.44082 0.03734 0.25641 0.0
C119 C 0.43593 0.01757 0.3063 0.0
C120 C 0.4032 0.99797 0.25442 0.0
O121 O 0.40451 0.01115 0.26809 0.0
O122 O 0.41705 0.99666 0.24759 0.0
C123 C 0.39928 0.05311 0.28155 0.0
O124 O 0.39094 0.03712 0.28646 0.0
C125 C 0.45508 0.03255 0.25432 0.0
Zn126 Zn 0.26527 0.20958 0.49722 0.0
Zn127 Zn 0.28439 0.18477 0.49547 0.0
O128 O 0.28766 0.19808 0.47206 0.0
O129 O 0.27306 0.22009 0.47527 0.0
O130 O 0.30493 0.17192 0.49685 0.0
O131 O 0.27653 0.22408 0.52246 0.0
O132 O 0.28975 0.20095 0.52201 0.0
C133 C 0.28275 0.21181 0.46632 0.0
C134 C 0.24449 0.16898 0.49355 0.0
O135 O 0.25948 0.16496 0.4933 0.0
O136 O 0.24394 0.18625 0.4947 0.0
C137 C 0.30414 0.1546 0.49794 0.0
O138 O 0.28843 0.14238 0.49697 0.0
C139 C 0.28637 0.21575 0.53065 0.0
Zn140 Zn 0.13277 0.02412 0.76522 0.0
Zn141 Zn 0.15386 0.00241 0.76596 0.0
O142 O 0.13902 0.00196 0.79204 0.0
O143 O 0.12241 0.02157 0.78882 0.0
O144 O 0.16665 0.9768 0.763 0.0
O145 O 0.11721 0.01361 0.74054 0.0
O146 O 0.13835 0.99901 0.73745 0.0
C147 C 0.12762 0.01068 0.7985 0.0
C148 C 0.16965 0.04728 0.76649 0.0
O149 O 0.17346 0.03131 0.76814 0.0
O150 O 0.15339 0.04736 0.765 0.0
C151 C 0.18239 0.97452 0.76792 0.0
O152 O 0.1947 0.98966 0.77714 0.0
C153 C 0.12474 0.00383 0.7301 0.0
Zn154 Zn 0.32014 0.90559 0.01305 0.0
Zn155 Zn 0.29237 0.91254 0.00322 0.0
O156 O 0.29637 0.89631 0.98041 0.0
O157 O 0.32565 0.90681 0.98713 0.0
O158 O 0.26975 0.91923 0.99955 0.0
O159 O 0.30643 0.8805 0.01817 0.0
O160 O 0.29021 0.89994 0.02546 0.0
C161 C 0.31181 0.89854 0.97556 0.0
C162 C 0.32263 0.94195 0.02331 0.0
O163 O 0.31131 0.93744 0.00877 0.0
O164 O 0.32316 0.92921 0.03281 0.0
C165 C 0.26956 0.93566 0.99639 0.0
O166 O 0.28327 0.94615 0.99037 0.0
C167 C 0.29567 0.88561 0.02816 0.0
Zn168 Zn 0.31283 0.35944 0.02852 0.0
Zn169 Zn 0.29253 0.38053 0.0272 0.0
O170 O 0.28684 0.36272 0.0012 0.0
O171 O 0.30351 0.34312 0.00413 0.0
O172 O 0.27183 0.39354 0.02538 0.0
O173 O 0.30691 0.34868 0.05049 0.0
O174 O 0.28846 0.36683 0.05092 0.0
C175 C 0.29245 0.34869 0.99428 0.0
C176 C 0.3332 0.39746 0.0281 0.0
O177 O 0.31788 0.4009 0.02798 0.0
O178 O 0.33441 0.38082 0.02926 0.0
C179 C 0.269 0.40328 0.01305 0.0
O180 O 0.28056 0.40685 0.00146 0.0
C181 C 0.29497 0.35458 0.05785 0.0
Zn182 Zn 0.74598 0.17612 0.02766 0.0
Zn183 Zn 0.78892 0.14555 0.02771 0.0
O184 O 0.78976 0.15976 0.00591 0.0
O185 O 0.76868 0.16868 0.01845 0.0
O186 O 0.80695 0.13207 0.02538 0.0
O187 O 0.76988 0.16958 0.03889 0.0
O188 O 0.793 0.16326 0.05264 0.0
C189 C 0.77754 0.16817 0.00484 0.0
C190 C 0.75234 0.13391 0.02243 0.0
O191 O 0.76466 0.12568 0.02354 0.0
O192 O 0.75682 0.15215 0.02695 0.0
C193 C 0.80269 0.11754 0.01249 0.0
O194 O 0.78654 0.11167 0.00313 0.0
C195 C 0.78118 0.17228 0.05353 0.0
Zn196 Zn 0.14483 0.56772 0.25239 0.0
Zn197 Zn 0.15532 0.52897 0.23637 0.0
O198 O 0.14737 0.53041 0.2612 0.0
O199 O 0.16269 0.56001 0.26977 0.0
O200 O 0.16776 0.50938 0.23514 0.0
O201 O 0.12929 0.54997 0.22823 0.0
O202 O 0.1344 0.52216 0.21802 0.0
C203 C 0.15414 0.54468 0.27405 0.0
C204 C 0.16838 0.56761 0.23003 0.0
O205 O 0.17276 0.55268 0.23259 0.0
O206 O 0.15192 0.56631 0.22672 0.0
C207 C 0.18302 0.51548 0.24488 0.0
O208 O 0.18914 0.53365 0.25258 0.0
C209 C 0.12537 0.5341 0.21679 0.0
Zn210 Zn 0.81666 0.86006 0.52674 0.0
Zn211 Zn 0.79391 0.88145 0.52723 0.0
O212 O 0.7883 0.86349 0.50163 0.0
O213 O 0.80469 0.84327 0.50253 0.0
O214 O 0.77438 0.8964 0.52555 0.0
O215 O 0.81087 0.85156 0.55013 0.0
O216 O 0.79057 0.86753 0.55087 0.0
C217 C 0.79297 0.84912 0.49394 0.0
C218 C 0.83441 0.89954 0.52724 0.0
O219 O 0.81873 0.90169 0.52796 0.0
O220 O 0.83704 0.88319 0.52683 0.0
C221 C 0.76052 0.89023 0.51321 0.0
O222 O 0.75865 0.87423 0.50156 0.0
C223 C 0.79861 0.85642 0.55788 0.0
Zn224 Zn 0.94362 0.03778 0.25247 0.0
Zn225 Zn 0.92309 0.06075 0.2538 0.0
O226 O 0.9392 0.06595 0.28176 0.0
O227 O 0.95673 0.0468 0.27837 0.0
O228 O 0.90812 0.08433 0.25401 0.0
O229 O 0.95631 0.04365 0.2308 0.0
O230 O 0.93805 0.06175 0.22803 0.0
C231 C 0.95143 0.05892 0.28876 0.0
C232 C 0.90741 0.01476 0.25122 0.0
O233 O 0.90433 0.03151 0.25296 0.0
O234 O 0.92309 0.01375 0.2494 0.0
C235 C 0.90553 0.09657 0.26756 0.0
O236 O 0.91201 0.09557 0.28436 0.0
C237 C 0.95041 0.05454 0.22166 0.0
Zn238 Zn 0.25874 0.65709 0.52556 0.0
Zn239 Zn 0.28407 0.64596 0.52634 0.0
O240 O 0.28656 0.66141 0.50563 0.0
O241 O 0.25781 0.65017 0.49802 0.0
O242 O 0.3036 0.63411 0.52627 0.0
O243 O 0.27393 0.68268 0.53883 0.0
O244 O 0.28567 0.66247 0.55105 0.0
C245 C 0.27276 0.65772 0.49371 0.0
C246 C 0.24903 0.62222 0.5291 0.0
O247 O 0.26208 0.62339 0.52013 0.0
O248 O 0.24907 0.63683 0.54056 0.0
C249 C 0.30227 0.62353 0.51067 0.0
O250 O 0.28893 0.62206 0.49775 0.0
C251 C 0.28225 0.67861 0.55247 0.0
Zn252 Zn 0.44304 0.53649 0.75248 0.0
Zn253 Zn 0.4239 0.56144 0.75432 0.0
O254 O 0.44022 0.56588 0.7819 0.0
O255 O 0.45751 0.54653 0.77792 0.0
O256 O 0.4108 0.58668 0.75519 0.0
O257 O 0.4537 0.54026 0.72911 0.0
O258 O 0.43873 0.56187 0.72852 0.0
C259 C 0.45252 0.55876 0.78854 0.0
C260 C 0.40653 0.51551 0.75252 0.0
O261 O 0.4042 0.53258 0.75343 0.0
O262 O 0.42197 0.51348 0.75123 0.0
C263 C 0.39987 0.59268 0.76538 0.0
O264 O 0.3943 0.5827 0.778 0.0
C265 C 0.44931 0.55269 0.72097 0.0
Zn266 Zn 0.62683 0.07177 0.74358 0.0
Zn267 Zn 0.65648 0.0269 0.73582 0.0
O268 O 0.64615 0.02595 0.76003 0.0
O269 O 0.63597 0.04788 0.74966 0.0
O270 O 0.66992 0.00859 0.73373 0.0
O271 O 0.63243 0.04615 0.7297 0.0
O272 O 0.63781 0.02119 0.71378 0.0
C273 C 0.63831 0.03899 0.76287 0.0
C274 C 0.66645 0.06652 0.7418 0.0
O275 O 0.67387 0.05324 0.73833 0.0
O276 O 0.64943 0.06169 0.7395 0.0
C277 C 0.68483 0.0142 0.74405 0.0
O278 O 0.6905 0.03178 0.75344 0.0
C279 C 0.62912 0.03359 0.71478 0.0
Zn280 Zn 0.76199 0.70718 0.99751 0.0
Zn281 Zn 0.78412 0.68513 0.99697 0.0
O282 O 0.78798 0.69789 0.9729 0.0
O283 O 0.7691 0.71559 0.97431 0.0
O284 O 0.80338 0.67092 0.00129 0.0
O285 O 0.77333 0.7234 0.0223 0.0
O286 O 0.78955 0.70298 0.02262 0.0
C287 C 0.7806 0.70959 0.9661 0.0
C288 C 0.74377 0.66714 0.99534 0.0
O289 O 0.75942 0.66485 0.99511 0.0
O290 O 0.7414 0.68366 0.99623 0.0
C291 C 0.81423 0.66666 0.99072 0.0
O292 O 0.81316 0.67056 0.97395 0.0
C293 C 0.78486 0.71716 0.03072 0.0
Zn294 Zn 0.95717 0.49952 0.78622 0.0
Zn295 Zn 0.9291 0.53165 0.77537 0.0
O296 O 0.92684 0.53263 0.80268 0.0
O297 O 0.9352 0.50785 0.7923 0.0
O298 O 0.92091 0.55289 0.7675 0.0
O299 O 0.97415 0.51548 0.77068 0.0
O300 O 0.95419 0.53042 0.77465 0.0
C301 C 0.93295 0.51892 0.80603 0.0
C302 C 0.91628 0.49028 0.76146 0.0
O303 O 0.91345 0.50658 0.76134 0.0
O304 O 0.93038 0.48846 0.77072 0.0
C305 C 0.90483 0.55038 0.77046 0.0
O306 O 0.89731 0.53557 0.77766 0.0
C307 C 0.96452 0.52515 0.76412 0.0
Zn308 Zn 0.81628 0.39437 0.51212 0.0
Zn309 Zn 0.79204 0.41008 0.5039 0.0
O310 O 0.79266 0.39428 0.47963 0.0
O311 O 0.82113 0.39571 0.48591 0.0
O312 O 0.77288 0.42266 0.50167 0.0
O313 O 0.79772 0.37239 0.51769 0.0
O314 O 0.78694 0.3967 0.52489 0.0
C315 C 0.80728 0.39285 0.47432 0.0
C316 C 0.82566 0.43224 0.52539 0.0
O317 O 0.81444 0.43083 0.51135 0.0
O318 O 0.82536 0.41764 0.53253 0.0
C319 C 0.77579 0.4407 0.50568 0.0
O320 O 0.79215 0.45185 0.50794 0.0
C321 C 0.78945 0.38112 0.52825 0.0
Zn322 Zn 0.63318 0.52431 0.26698 0.0
Zn323 Zn 0.65448 0.5029 0.26697 0.0
O324 O 0.63978 0.50222 0.29311 0.0
O325 O 0.62231 0.52105 0.29008 0.0
O326 O 0.66746 0.47737 0.26413 0.0
O327 O 0.61773 0.51441 0.24238 0.0
O328 O 0.6387 0.49965 0.2386 0.0
C329 C 0.62793 0.51027 0.29957 0.0
C330 C 0.66987 0.54784 0.26803 0.0
O331 O 0.67389 0.53185 0.26907 0.0
O332 O 0.65361 0.5478 0.26722 0.0
C333 C 0.68347 0.47573 0.26897 0.0
O334 O 0.69548 0.49142 0.27759 0.0
C335 C 0.62508 0.50474 0.23163 0.0
Sm336 Sm 0.02313 0.02343 0.00125 0.0
Sm337 Sm 0.05947 0.04223 0.02244 0.0
C338 C 0.98812 0.01398 0.99211 0.0
C339 C 0.97541 0.02544 0.99023 0.0
C340 C 0.97763 0.04292 0.0023 0.0
C341 C 0.9654 0.05364 5e-05 0.0
C342 C 0.9509 0.04699 0.98571 0.0
C343 C 0.94928 0.03002 0.97318 0.0
C344 C 0.96144 0.01933 0.97544 0.0
C345 C 0.04625 0.02207 0.97428 0.0
C346 C 0.03905 0.07023 0.00518 0.0
C347 C 0.09456 0.05135 0.03118 0.0
C348 C 0.1075 0.03999 0.0328 0.0
C349 C 0.10865 0.02612 0.01794 0.0
C350 C 0.12123 0.01577 0.01976 0.0
C351 C 0.13259 0.0189 0.03652 0.0
C352 C 0.13092 0.03208 0.05161 0.0
C353 C 0.11852 0.04264 0.04972 0.0
C354 C 0.03663 0.04449 0.04938 0.0
C355 C 0.04277 0.99559 0.0198 0.0
O356 O 0.99584 0.01466 0.00881 0.0
O357 O 0.99911 0.01484 0.97995 0.0
O358 O 0.05099 0.02932 0.9916 0.0
O359 O 0.02909 0.01514 0.97138 0.0
O360 O 0.02509 0.05512 0.00101 0.0
O361 O 0.05459 0.06915 0.01295 0.0
O362 O 0.08666 0.05088 0.01461 0.0
O363 O 0.08371 0.05048 0.04348 0.0
O364 O 0.03152 0.03684 0.03215 0.0
O365 O 0.05373 0.05199 0.05185 0.0
O366 O 0.05671 0.0107 0.02464 0.0
O367 O 0.02778 0.99645 0.0106 0.0
H368 H 0.98862 0.04813 0.01357 0.0
H369 H 0.96684 0.06665 0.00993 0.0
H370 H 0.93829 0.02478 0.9619 0.0
H371 H 0.95982 0.00616 0.96574 0.0
H372 H 0.10006 0.02344 0.00484 0.0
H373 H 0.12236 0.00559 0.00798 0.0
H374 H 0.1397 0.03476 0.06459 0.0
H375 H 0.11769 0.05308 0.06142 0.0
Sm376 Sm 0.29105 0.78537 0.24901 0.0
Sm377 Sm 0.27902 0.78825 0.29033 0.0
C378 C 0.29513 0.787 0.21468 0.0
C379 C 0.30784 0.80175 0.20771 0.0
C380 C 0.30416 0.81929 0.20649 0.0
C381 C 0.31582 0.83316 0.19956 0.0
C382 C 0.33134 0.82974 0.19345 0.0
C383 C 0.33584 0.81292 0.19614 0.0
C384 C 0.32411 0.79895 0.20316 0.0
C385 C 0.32029 0.7901 0.27627 0.0
C386 C 0.29211 0.82589 0.27402 0.0
C387 C 0.27835 0.79081 0.32594 0.0
C388 C 0.2667 0.78039 0.33724 0.0
C389 C 0.27468 0.77437 0.35213 0.0
C390 C 0.26423 0.76198 0.36155 0.0
C391 C 0.24569 0.75556 0.35626 0.0
C392 C 0.2375 0.7618 0.34163 0.0
C393 C 0.24805 0.77424 0.33205 0.0
C394 C 0.24996 0.784 0.26274 0.0
C395 C 0.2765 0.74748 0.26507 0.0
O396 O 0.2826 0.7927 0.22243 0.0
O397 O 0.30192 0.77583 0.22371 0.0
O398 O 0.30446 0.79007 0.27836 0.0
O399 O 0.32112 0.78866 0.25873 0.0
O400 O 0.28948 0.81566 0.25723 0.0
O401 O 0.29276 0.81872 0.28917 0.0
O402 O 0.28743 0.78071 0.31686 0.0
O403 O 0.27176 0.80165 0.31626 0.0
O404 O 0.26592 0.78441 0.26107 0.0
O405 O 0.24861 0.7847 0.2802 0.0
O406 O 0.27902 0.75731 0.28204 0.0
O407 O 0.277 0.75492 0.24999 0.0
H408 H 0.29192 0.82214 0.21024 0.0
H409 H 0.31174 0.84581 0.19744 0.0
H410 H 0.34777 0.81001 0.19158 0.0
H411 H 0.3275 0.78574 0.20445 0.0
H412 H 0.28906 0.77864 0.35597 0.0
H413 H 0.27067 0.75688 0.37266 0.0
H414 H 0.2232 0.75669 0.33738 0.0
H415 H 0.24174 0.7785 0.32029 0.0
Sm416 Sm 0.55581 0.03019 0.51034 0.0
Sm417 Sm 0.51456 0.0279 0.5122 0.0
C418 C 0.58802 0.02434 0.51438 0.0
C419 C 0.59785 0.01 0.50835 0.0
C420 C 0.59797 0.99464 0.51765 0.0
C421 C 0.60909 0.98273 0.51349 0.0
C422 C 0.62052 0.98605 0.50012 0.0
C423 C 0.61991 1.00087 0.49031 0.0
C424 C 0.60866 0.01264 0.49431 0.0
C425 C 0.53628 0.0297 0.47792 0.0
C426 C 0.52479 0.98849 0.50451 0.0
C427 C 0.48211 0.03303 0.51284 0.0
C428 C 0.47276 0.04796 0.5181 0.0
C429 C 0.47248 0.06234 0.50759 0.0
C430 C 0.46184 0.07484 0.51122 0.0
C431 C 0.45112 0.07329 0.52542 0.0
C432 C 0.45197 0.05941 0.53643 0.0
C433 C 0.46265 0.0469 0.5328 0.0
C434 C 0.53549 0.02804 0.54367 0.0
C435 C 0.54508 0.06962 0.51762 0.0
O436 O 0.57653 0.02034 0.52593 0.0
O437 O 0.58284 0.03363 0.50205 0.0
O438 O 0.53065 0.02032 0.48999 0.0
O439 O 0.55323 0.03821 0.48172 0.0
O440 O 0.54146 0.99876 0.51057 0.0
O441 O 0.51171 0.99636 0.5007 0.0
O442 O 0.49055 0.034 0.49845 0.0
O443 O 0.49047 0.02732 0.52616 0.0
O444 O 0.53977 0.03821 0.53194 0.0
O445 O 0.51924 0.01719 0.53954 0.0
O446 O 0.52834 0.05957 0.51156 0.0
O447 O 0.55805 0.06162 0.52137 0.0
H448 H 0.58995 0.9922 0.52862 0.0
H449 H 0.60942 0.97153 0.5214 0.0
H450 H 0.62853 0.00369 0.47989 0.0
H451 H 0.60895 0.02429 0.48686 0.0
H452 H 0.48004 0.0636 0.49613 0.0
H453 H 0.46142 0.08518 0.50231 0.0
H454 H 0.44412 0.05796 0.54765 0.0
H455 H 0.46256 0.03601 0.54118 0.0
Sm456 Sm 0.27021 0.286 0.76047 0.0
Sm457 Sm 0.3093 0.27697 0.7643 0.0
C458 C 0.23636 0.28338 0.76472 0.0
C459 C 0.22548 0.28775 0.77943 0.0
C460 C 0.22558 0.27963 0.79552 0.0
C461 C 0.21358 0.28196 0.80804 0.0
C462 C 0.20115 0.29247 0.80485 0.0
C463 C 0.20173 0.30135 0.78922 0.0
C464 C 0.2137 0.29899 0.7767 0.0
C465 C 0.29808 0.31999 0.76172 0.0
C466 C 0.29378 0.29091 0.80165 0.0
C467 C 0.34316 0.27839 0.76095 0.0
C468 C 0.35465 0.27591 0.74628 0.0
C469 C 0.3619 0.2911 0.73736 0.0
C470 C 0.37424 0.28944 0.72512 0.0
C471 C 0.37969 0.27255 0.7214 0.0
C472 C 0.37185 0.25704 0.72964 0.0
C473 C 0.35958 0.25874 0.74202 0.0
C474 C 0.28188 0.24313 0.76406 0.0
C475 C 0.28518 0.27201 0.7233 0.0
O476 O 0.24387 0.26951 0.76583 0.0
O477 O 0.24642 0.29771 0.75873 0.0
O478 O 0.29929 0.3031 0.76256 0.0
O479 O 0.28114 0.31893 0.75996 0.0
O480 O 0.27861 0.28926 0.79122 0.0
O481 O 0.30826 0.28823 0.79496 0.0
O482 O 0.33708 0.29353 0.76281 0.0
O483 O 0.33152 0.26311 0.76353 0.0
O484 O 0.28025 0.25976 0.76252 0.0
O485 O 0.29888 0.24468 0.76627 0.0
O486 O 0.30096 0.27475 0.73318 0.0
O487 O 0.27062 0.27337 0.73041 0.0
H488 H 0.23461 0.27104 0.79822 0.0
H489 H 0.21388 0.27524 0.82009 0.0
H490 H 0.19236 0.30944 0.78612 0.0
H491 H 0.21329 0.30543 0.76448 0.0
H492 H 0.35846 0.30453 0.74021 0.0
H493 H 0.37986 0.30159 0.71884 0.0
H494 H 0.37584 0.24389 0.72721 0.0
H495 H 0.35437 0.24678 0.7487 0.0
Sm496 Sm 0.03707 0.05164 0.51654 0.0
Sm497 Sm 0.04076 0.01149 0.5013 0.0
C498 C 0.03572 0.08748 0.52071 0.0
C499 C 0.03348 0.09993 0.50736 0.0
C500 C 0.04387 0.10167 0.49295 0.0
C501 C 0.04156 0.11363 0.48047 0.0
C502 C 0.02871 0.12391 0.48208 0.0
C503 C 0.01771 0.12131 0.49592 0.0
C504 C 0.02014 0.10951 0.50849 0.0
C505 C 0.00826 0.02148 0.51801 0.0
C506 C 0.0281 0.0348 0.47039 0.0
C507 C 0.03468 0.97411 0.49756 0.0
C508 C 0.03848 0.96198 0.51085 0.0
C509 C 0.02954 0.96076 0.52643 0.0
C510 C 0.03237 0.94855 0.53841 0.0
C511 C 0.04427 0.93745 0.53517 0.0
C512 C 0.0539 0.93926 0.52023 0.0
C513 C 0.05103 0.95148 0.50813 0.0
C514 C 0.07367 0.03788 0.50299 0.0
C515 C 0.05294 0.03009 0.54671 0.0
O516 O 0.05078 0.08274 0.52227 0.0
O517 O 0.02178 0.0732 0.5206 0.0
O518 O 0.01696 0.02323 0.50457 0.0
O519 O 0.01496 0.03589 0.53158 0.0
O520 O 0.03186 0.04963 0.48434 0.0
O521 O 0.02945 0.01772 0.47319 0.0
O522 O 0.02255 0.98304 0.5011 0.0
O523 O 0.04839 0.98472 0.49173 0.0
O524 O 0.05953 0.04124 0.50753 0.0
O525 O 0.07061 0.01968 0.49685 0.0
O526 O 0.04651 0.01455 0.53363 0.0
O527 O 0.05299 0.04725 0.5431 0.0
H528 H 0.05398 0.09406 0.49147 0.0
H529 H 0.05037 0.11542 0.47008 0.0
H530 H 0.00747 0.12877 0.49731 0.0
H531 H 0.01169 0.10798 0.51923 0.0
H532 H 0.01993 0.96881 0.52915 0.0
H533 H 0.02462 0.94708 0.54973 0.0
H534 H 0.06292 0.93051 0.51739 0.0
H535 H 0.05823 0.9523 0.49637 0.0
Sm536 Sm 0.30938 0.80087 0.76584 0.0
Sm537 Sm 0.27556 0.76925 0.7621 0.0
C538 C 0.34115 0.82412 0.77857 0.0
C539 C 0.35884 0.82075 0.78094 0.0
C540 C 0.36881 0.82572 0.79862 0.0
C541 C 0.38466 0.82068 0.8018 0.0
C542 C 0.39086 0.81063 0.7873 0.0
C543 C 0.38104 0.8059 0.76948 0.0
C544 C 0.36506 0.81083 0.76633 0.0
C545 C 0.29656 0.78247 0.7308 0.0
C546 C 0.31239 0.75478 0.76669 0.0
C547 C 0.24405 0.74511 0.75017 0.0
C548 C 0.22624 0.74799 0.74742 0.0
C549 C 0.21737 0.74466 0.72932 0.0
C550 C 0.20199 0.75043 0.72585 0.0
C551 C 0.19516 0.75943 0.74048 0.0
C552 C 0.20356 0.76205 0.7587 0.0
C553 C 0.21911 0.75646 0.76216 0.0
C554 C 0.28839 0.78806 0.79732 0.0
C555 C 0.27228 0.81475 0.75909 0.0
O556 O 0.33028 0.81634 0.78938 0.0
O557 O 0.33348 0.82228 0.76155 0.0
O558 O 0.29716 0.77474 0.74475 0.0
O559 O 0.30411 0.80081 0.73471 0.0
O560 O 0.32072 0.77361 0.76948 0.0
O561 O 0.2947 0.74923 0.76264 0.0
O562 O 0.2547 0.75264 0.73908 0.0
O563 O 0.25182 0.7479 0.76728 0.0
O564 O 0.28763 0.79562 0.78325 0.0
O565 O 0.28142 0.76962 0.79333 0.0
O566 O 0.26412 0.79592 0.75673 0.0
O567 O 0.28996 0.82064 0.76378 0.0
H568 H 0.36411 0.83316 0.81009 0.0
H569 H 0.39213 0.82477 0.81561 0.0
H570 H 0.38552 0.79807 0.7581 0.0
H571 H 0.35744 0.80651 0.75258 0.0
H572 H 0.22272 0.73825 0.71777 0.0
H573 H 0.19545 0.74791 0.71172 0.0
H574 H 0.19839 0.76889 0.77015 0.0
H575 H 0.2258 0.75936 0.77627 0.0
Sm576 Sm 0.53983 0.04091 0.02505 0.0
Sm577 Sm 0.53203 0.03776 0.98449 0.0
C578 C 0.5367 0.04322 0.06004 0.0
C579 C 0.52304 0.03032 0.06785 0.0
C580 C 0.50991 0.03735 0.07568 0.0
C581 C 0.49601 0.02506 0.0818 0.0
C582 C 0.49506 0.00549 0.08034 0.0
C583 C 0.50781 0.99827 0.07184 0.0
C584 C 0.52168 0.01058 0.06557 0.0
C585 C 0.5432 0.00787 0.00526 0.0
C586 C 0.49921 0.02243 0.00237 0.0
C587 C 0.53449 0.03844 0.94984 0.0
C588 C 0.54729 0.05323 0.94308 0.0
C589 C 0.5658 0.05603 0.94755 0.0
C590 C 0.57769 0.06916 0.93991 0.0
C591 C 0.57112 0.07919 0.92743 0.0
C592 C 0.55304 0.0788 0.92552 0.0
C593 C 0.5411 0.06562 0.93309 0.0
C594 C 0.52918 0.07084 0.00475 0.0
C595 C 0.57259 0.05493 0.00621 0.0
O596 O 0.53066 0.05404 0.04994 0.0
O597 O 0.54854 0.03577 0.05278 0.0
O598 O 0.5307 0.01522 0.00196 0.0
O599 O 0.55446 0.01773 0.01954 0.0
O600 O 0.50937 0.03328 0.01743 0.0
O601 O 0.5059 0.01805 0.98728 0.0
O602 O 0.54111 0.02694 0.95857 0.0
O603 O 0.52224 0.04441 0.95783 0.0
O604 O 0.54164 0.06338 0.00755 0.0
O605 O 0.5172 0.06066 0.99123 0.0
O606 O 0.56233 0.0443 0.99121 0.0
O607 O 0.56635 0.05956 0.02153 0.0
H608 H 0.51045 0.05241 0.07717 0.0
H609 H 0.48661 0.03118 0.08867 0.0
H610 H 0.5074 0.98327 0.07066 0.0
H611 H 0.53134 0.0046 0.05905 0.0
H612 H 0.57108 0.04732 0.95598 0.0
H613 H 0.59165 0.06931 0.9415 0.0
H614 H 0.54782 0.08653 0.91592 0.0
H615 H 0.52695 0.06434 0.93022 0.0
Sm616 Sm 0.29096 0.30034 0.2649 0.0
Sm617 Sm 0.27641 0.25282 0.25189 0.0
C618 C 0.29723 0.33729 0.26614 0.0
C619 C 0.28635 0.3502 0.27163 0.0
C620 C 0.26919 0.34742 0.262 0.0
C621 C 0.25896 0.35969 0.26733 0.0
C622 C 0.26568 0.37486 0.2824 0.0
C623 C 0.28242 0.37706 0.29259 0.0
C624 C 0.29273 0.36483 0.28719 0.0
C625 C 0.29068 0.28199 0.29513 0.0
C626 C 0.24841 0.27705 0.26234 0.0
C627 C 0.27175 0.21587 0.24997 0.0
C628 C 0.28357 0.20377 0.24483 0.0
C629 C 0.2989 0.20472 0.25702 0.0
C630 C 0.3103 0.19368 0.252 0.0
C631 C 0.30666 0.18144 0.2347 0.0
C632 C 0.29158 0.18076 0.22234 0.0
C633 C 0.28011 0.19183 0.22737 0.0
C634 C 0.2785 0.27199 0.22193 0.0
C635 C 0.3185 0.27572 0.25438 0.0
O636 O 0.29089 0.32474 0.25085 0.0
O637 O 0.30394 0.33017 0.27947 0.0
O638 O 0.28602 0.27443 0.27823 0.0
O639 O 0.29574 0.30043 0.29637 0.0
O640 O 0.26052 0.29342 0.2625 0.0
O641 O 0.25154 0.26004 0.26035 0.0
O642 O 0.27727 0.22828 0.26543 0.0
O643 O 0.26481 0.22289 0.23669 0.0
O644 O 0.282 0.27879 0.23897 0.0
O645 O 0.27347 0.25349 0.22012 0.0
O646 O 0.30658 0.25963 0.25512 0.0
O647 O 0.31556 0.29276 0.2561 0.0
H648 H 0.26374 0.33599 0.25015 0.0
H649 H 0.24619 0.35789 0.25908 0.0
H650 H 0.28778 0.38864 0.30433 0.0
H651 H 0.30576 0.36694 0.29502 0.0
H652 H 0.30207 0.21385 0.27055 0.0
H653 H 0.32161 0.19421 0.26199 0.0
H654 H 0.28853 0.17146 0.20889 0.0
H655 H 0.26851 0.19099 0.21765 0.0
Sm656 Sm 0.53777 0.55154 0.0169 0.0
Sm657 Sm 0.5412 0.51133 0.00106 0.0
C658 C 0.54273 0.5889 0.02177 0.0
C659 C 0.53959 0.60122 0.00844 0.0
C660 C 0.54813 0.60136 0.99258 0.0
C661 C 0.54595 0.61366 0.98049 0.0
C662 C 0.5351 0.62598 0.98389 0.0
C663 C 0.52558 0.62502 0.99899 0.0
C664 C 0.52787 0.61274 0.01125 0.0
C665 C 0.5047 0.5251 0.01512 0.0
C666 C 0.52686 0.53455 0.97128 0.0
C667 C 0.54095 0.47485 0.99485 0.0
C668 C 0.54193 0.46079 0.0068 0.0
C669 C 0.53412 0.46126 0.02309 0.0
C670 C 0.53512 0.44784 0.03432 0.0
C671 C 0.54405 0.43383 0.02953 0.0
C672 C 0.55245 0.43383 0.01363 0.0
C673 C 0.55133 0.4472 0.00229 0.0
C674 C 0.5701 0.54143 0.99961 0.0
C675 C 0.55134 0.52822 0.04734 0.0
O676 O 0.55561 0.58076 0.01941 0.0
O677 O 0.52857 0.57741 0.02593 0.0
O678 O 0.51877 0.5217 0.01039 0.0
O679 O 0.50811 0.5432 0.02184 0.0
O680 O 0.53316 0.54973 0.98474 0.0
O681 O 0.52626 0.51714 0.97454 0.0
O682 O 0.52638 0.48055 0.99383 0.0
O683 O 0.55545 0.48883 0.99633 0.0
O684 O 0.56144 0.53962 0.01308 0.0
O685 O 0.56347 0.52694 0.9861 0.0
O686 O 0.5474 0.5133 0.03339 0.0
O687 O 0.5497 0.54522 0.04465 0.0
H688 H 0.55689 0.59232 0.98967 0.0
H689 H 0.55329 0.61408 0.96882 0.0
H690 H 0.51716 0.63445 0.00185 0.0
H691 H 0.52086 0.61259 0.02316 0.0
H692 H 0.5271 0.47187 0.02704 0.0
H693 H 0.52868 0.44824 0.04663 0.0
H694 H 0.55931 0.42309 0.00962 0.0
H695 H 0.55764 0.44683 0.98989 0.0
Sm696 Sm 0.80886 0.29948 0.2646 0.0
Sm697 Sm 0.77516 0.26757 0.25996 0.0
C698 C 0.84073 0.323 0.27669 0.0
C699 C 0.8586 0.32017 0.27922 0.0
C700 C 0.8686 0.32587 0.29689 0.0
C701 C 0.88467 0.32135 0.30035 0.0
C702 C 0.89104 0.31104 0.28617 0.0
C703 C 0.88117 0.30561 0.26834 0.0
C704 C 0.865 0.31007 0.2649 0.0
C705 C 0.79603 0.28174 0.2293 0.0
C706 C 0.81178 0.25337 0.26547 0.0
C707 C 0.74362 0.24413 0.2471 0.0
C708 C 0.72619 0.24812 0.24487 0.0
C709 C 0.71901 0.25022 0.2274 0.0
C710 C 0.70411 0.2571 0.22548 0.0
C711 C 0.69599 0.26173 0.24095 0.0
C712 C 0.70273 0.25907 0.25834 0.0
C713 C 0.71778 0.25233 0.26032 0.0
C714 C 0.78773 0.28553 0.29538 0.0
C715 C 0.77177 0.31362 0.2595 0.0
O716 O 0.83011 0.31524 0.28768 0.0
O717 O 0.83289 0.32062 0.25965 0.0
O718 O 0.79708 0.27367 0.24294 0.0
O719 O 0.80248 0.30022 0.23365 0.0
O720 O 0.81993 0.27226 0.26925 0.0
O721 O 0.79428 0.24758 0.26003 0.0
O722 O 0.75466 0.2517 0.23633 0.0
O723 O 0.75124 0.24584 0.26412 0.0
O724 O 0.78703 0.29339 0.28156 0.0
O725 O 0.78049 0.26714 0.29116 0.0
O726 O 0.7637 0.29468 0.25581 0.0
O727 O 0.78941 0.31937 0.26457 0.0
H728 H 0.86376 0.33346 0.30815 0.0
H729 H 0.89215 0.32602 0.31415 0.0
H730 H 0.88573 0.29755 0.2572 0.0
H731 H 0.85735 0.30523 0.25119 0.0
H732 H 0.72523 0.24705 0.21528 0.0
H733 H 0.69879 0.25857 0.21183 0.0
H734 H 0.69647 0.26239 0.27039 0.0
H735 H 0.72304 0.25092 0.27399 0.0
Sm736 Sm 0.03771 0.54022 0.52461 0.0
Sm737 Sm 0.02921 0.5366 0.48263 0.0
C738 C 0.03598 0.54338 0.56025 0.0
C739 C 0.02366 0.53221 0.57093 0.0
C740 C 0.00885 0.53824 0.57587 0.0
C741 C 0.9969 0.52757 0.58556 0.0
C742 C 0.99958 0.51073 0.59063 0.0
C743 C 0.01429 0.50456 0.58563 0.0
C744 C 0.02622 0.51519 0.5758 0.0
C745 C 0.04356 0.50892 0.50415 0.0
C746 C 0.99767 0.51964 0.50169 0.0
C747 C 0.03106 0.53502 0.44747 0.0
C748 C 0.04459 0.54777 0.43928 0.0
C749 C 0.05997 0.54241 0.43541 0.0
C750 C 0.07339 0.55466 0.42869 0.0
C751 C 0.07183 0.57269 0.42581 0.0
C752 C 0.05685 0.57851 0.43051 0.0
C753 C 0.04328 0.56612 0.43714 0.0
C754 C 0.02419 0.56815 0.50342 0.0
C755 C 0.06947 0.55784 0.50491 0.0
O756 O 0.02931 0.55363 0.54991 0.0
O757 O 0.04658 0.53468 0.5521 0.0
O758 O 0.03031 0.5152 0.50095 0.0
O759 O 0.05396 0.51855 0.51912 0.0
O760 O 0.00732 0.53077 0.51687 0.0
O761 O 0.00436 0.51562 0.48653 0.0
O762 O 0.03692 0.5235 0.45686 0.0
O763 O 0.01991 0.54291 0.45561 0.0
O764 O 0.0372 0.56148 0.50609 0.0
O765 O 0.01285 0.55825 0.48916 0.0
O766 O 0.05962 0.54756 0.48946 0.0
O767 O 0.06331 0.5603 0.52071 0.0
H768 H 0.00654 0.55131 0.5724 0.0
H769 H 0.9859 0.5329 0.58968 0.0
H770 H 0.01667 0.49169 0.58954 0.0
H771 H 0.0375 0.51013 0.57216 0.0
H772 H 0.06166 0.52871 0.43758 0.0
H773 H 0.08455 0.54949 0.42484 0.0
H774 H 0.05535 0.59234 0.42844 0.0
H775 H 0.03179 0.57091 0.44049 0.0
Sm776 Sm 0.77061 0.78596 0.26193 0.0
Sm777 Sm 0.80976 0.7777 0.26387 0.0
C778 C 0.73642 0.78087 0.26586 0.0
C779 C 0.72457 0.78556 0.27944 0.0
C780 C 0.71912 0.77333 0.29197 0.0
C781 C 0.70649 0.77637 0.3034 0.0
C782 C 0.69887 0.79164 0.30255 0.0
C783 C 0.70451 0.80413 0.29033 0.0
C784 C 0.71725 0.80116 0.27894 0.0
C785 C 0.79735 0.82051 0.26288 0.0
C786 C 0.79626 0.79325 0.30215 0.0
C787 C 0.84388 0.7816 0.26029 0.0
C788 C 0.85538 0.77769 0.24612 0.0
C789 C 0.86535 0.793 0.23893 0.0
C790 C 0.87769 0.79022 0.22711 0.0
C791 C 0.88034 0.77204 0.22208 0.0
C792 C 0.86992 0.75648 0.22856 0.0
C793 C 0.8576 0.75929 0.24058 0.0
C794 C 0.78314 0.74326 0.26373 0.0
C795 C 0.78492 0.77207 0.22356 0.0
O796 O 0.74566 0.76901 0.26964 0.0
O797 O 0.74516 0.79442 0.25788 0.0
O798 O 0.79926 0.80373 0.26305 0.0
O799 O 0.78037 0.81902 0.26238 0.0
O800 O 0.78056 0.792 0.29291 0.0
O801 O 0.80982 0.78935 0.29451 0.0
O802 O 0.83579 0.79491 0.25845 0.0
O803 O 0.8341 0.76718 0.26638 0.0
O804 O 0.78107 0.75987 0.26287 0.0
O805 O 0.8002 0.74508 0.26497 0.0
O806 O 0.8006 0.77349 0.2329 0.0
O807 O 0.77094 0.77476 0.23119 0.0
H808 H 0.72423 0.76102 0.29262 0.0
H809 H 0.70224 0.76639 0.31251 0.0
H810 H 0.69882 0.81601 0.28939 0.0
H811 H 0.72099 0.81077 0.26938 0.0
H812 H 0.86401 0.80734 0.24292 0.0
H813 H 0.88555 0.80242 0.22224 0.0
H814 H 0.87185 0.74235 0.22497 0.0
H815 H 0.85022 0.74717 0.2459 0.0
Sm816 Sm 0.79143 0.28588 0.751 0.0
Sm817 Sm 0.77895 0.29045 0.78879 0.0
C818 C 0.79574 0.28722 0.71648 0.0
C819 C 0.80798 0.30163 0.70854 0.0
C820 C 0.80465 0.31945 0.70783 0.0
C821 C 0.81571 0.33282 0.69975 0.0
C822 C 0.83026 0.32865 0.69201 0.0
C823 C 0.83433 0.31139 0.69377 0.0
C824 C 0.82323 0.29793 0.70196 0.0
C825 C 0.82155 0.29304 0.77778 0.0
C826 C 0.79057 0.32719 0.77271 0.0
C827 C 0.77097 0.28964 0.82245 0.0
C828 C 0.75921 0.27517 0.83027 0.0
C829 C 0.7552 0.25578 0.82205 0.0
C830 C 0.74635 0.24182 0.83115 0.0
C831 C 0.74155 0.24724 0.84852 0.0
C832 C 0.74341 0.26665 0.85544 0.0
C833 C 0.75238 0.28062 0.84635 0.0
C834 C 0.75288 0.28825 0.75972 0.0
C835 C 0.77756 0.24793 0.76635 0.0
O836 O 0.78311 0.29285 0.72411 0.0
O837 O 0.80301 0.27677 0.72601 0.0
O838 O 0.80578 0.29215 0.78063 0.0
O839 O 0.82187 0.29136 0.76019 0.0
O840 O 0.78706 0.31534 0.7568 0.0
O841 O 0.79297 0.32126 0.78837 0.0
O842 O 0.78518 0.28539 0.81716 0.0
O843 O 0.7629 0.29721 0.8106 0.0
O844 O 0.76363 0.27786 0.75949 0.0
O845 O 0.75552 0.29957 0.77554 0.0
O846 O 0.77716 0.25861 0.78222 0.0
O847 O 0.7806 0.25471 0.75127 0.0
H848 H 0.79314 0.32291 0.71293 0.0
H849 H 0.81194 0.3458 0.69826 0.0
H850 H 0.84546 0.30786 0.68784 0.0
H851 H 0.82625 0.28443 0.70263 0.0
H852 H 0.75994 0.25138 0.80929 0.0
H853 H 0.74493 0.22688 0.8256 0.0
H854 H 0.73981 0.2711 0.86885 0.0
H855 H 0.75499 0.2956 0.85251 0.0
Sm856 Sm 0.79105 0.80114 0.76645 0.0
Sm857 Sm 0.7766 0.7534 0.75168 0.0
C858 C 0.79791 0.83778 0.76555 0.0
C859 C 0.7911 0.85394 0.77232 0.0
C860 C 0.78513 0.86376 0.75932 0.0
C861 C 0.77815 0.87889 0.76495 0.0
C862 C 0.77708 0.88448 0.78371 0.0
C863 C 0.78266 0.87449 0.79679 0.0
C864 C 0.78976 0.85926 0.79112 0.0
C865 C 0.79142 0.78103 0.79522 0.0
C866 C 0.74904 0.77705 0.76608 0.0
C867 C 0.77232 0.7165 0.7494 0.0
C868 C 0.78397 0.70426 0.74409 0.0
C869 C 0.80084 0.70722 0.75443 0.0
C870 C 0.81163 0.69538 0.74953 0.0
C871 C 0.80584 0.68038 0.73414 0.0
C872 C 0.78932 0.67793 0.72333 0.0
C873 C 0.77847 0.68978 0.72829 0.0
C874 C 0.7785 0.7744 0.72311 0.0
C875 C 0.81839 0.77669 0.75364 0.0
O876 O 0.78693 0.82452 0.75268 0.0
O877 O 0.8068 0.83104 0.77773 0.0
O878 O 0.78717 0.77455 0.7781 0.0
O879 O 0.79575 0.79968 0.79783 0.0
O880 O 0.76112 0.79381 0.76787 0.0
O881 O 0.75165 0.76005 0.76081 0.0
O882 O 0.77776 0.72875 0.76508 0.0
O883 O 0.7655 0.72363 0.73611 0.0
O884 O 0.7817 0.78014 0.74029 0.0
O885 O 0.77377 0.7558 0.72016 0.0
O886 O 0.80671 0.76037 0.75418 0.0
O887 O 0.81526 0.79366 0.75626 0.0
H888 H 0.78571 0.85958 0.74474 0.0
H889 H 0.77337 0.88613 0.7546 0.0
H890 H 0.78162 0.87853 0.81128 0.0
H891 H 0.79405 0.85164 0.80136 0.0
H892 H 0.80564 0.71847 0.76653 0.0
H893 H 0.82417 0.69747 0.75829 0.0
H894 H 0.78465 0.66661 0.71129 0.0
H895 H 0.76567 0.68746 0.71991 0.0
Sm896 Sm 0.52221 0.52294 0.50129 0.0
Sm897 Sm 0.55907 0.54204 0.52216 0.0
C898 C 0.48705 0.51304 0.49246 0.0
C899 C 0.47376 0.52394 0.49165 0.0
C900 C 0.47671 0.5418 0.50325 0.0
C901 C 0.4641 0.55218 0.50205 0.0
C902 C 0.44842 0.5449 0.48917 0.0
C903 C 0.44584 0.52735 0.47717 0.0
C904 C 0.45843 0.51695 0.47843 0.0
C905 C 0.54513 0.52108 0.4742 0.0
C906 C 0.53867 0.56963 0.50392 0.0
C907 C 0.59416 0.55174 0.53135 0.0
C908 C 0.60743 0.5409 0.5333 0.0
C909 C 0.60588 0.52364 0.52119 0.0
C910 C 0.61847 0.51337 0.52368 0.0
C911 C 0.6327 0.52019 0.53835 0.0
C912 C 0.6338 0.53709 0.55077 0.0
C913 C 0.62128 0.54735 0.54824 0.0
C914 C 0.53608 0.54448 0.54906 0.0
C915 C 0.54253 0.49524 0.51928 0.0
O916 O 0.49504 0.51306 0.50887 0.0
O917 O 0.49799 0.51533 0.48031 0.0
O918 O 0.55006 0.52858 0.49145 0.0
O919 O 0.52803 0.51361 0.47167 0.0
O920 O 0.52457 0.55461 0.50004 0.0
O921 O 0.55414 0.5687 0.51207 0.0
O922 O 0.58639 0.55099 0.51465 0.0
O923 O 0.58309 0.55035 0.54343 0.0
O924 O 0.53122 0.53678 0.53186 0.0
O925 O 0.55312 0.55226 0.55157 0.0
O926 O 0.55676 0.51014 0.52295 0.0
O927 O 0.52701 0.49647 0.51165 0.0
H928 H 0.48871 0.54768 0.51326 0.0
H929 H 0.46655 0.56585 0.51124 0.0
H930 H 0.43385 0.5214 0.46717 0.0
H931 H 0.45614 0.50337 0.46915 0.0
H932 H 0.59505 0.51817 0.50977 0.0
H933 H 0.61737 0.50044 0.51384 0.0
H934 H 0.64447 0.54248 0.56235 0.0
H935 H 0.62242 0.56038 0.55796 0.0
Sm936 Sm 0.0555 0.53081 0.00912 0.0
Sm937 Sm 0.01411 0.52651 0.01118 0.0
C938 C 0.08819 0.52595 0.01201 0.0
C939 C 0.09801 0.51123 0.00718 0.0
C940 C 0.09888 0.49731 0.01816 0.0
C941 C 0.10979 0.48499 0.0147 0.0
C942 C 0.12029 0.48633 0.00028 0.0
C943 C 0.11889 0.49978 0.98891 0.0
C944 C 0.10795 0.51205 0.99233 0.0
C945 C 0.03481 0.5302 0.97731 0.0
C946 C 0.02578 0.4882 0.00399 0.0
C947 C 0.98156 0.53137 0.01023 0.0
C948 C 0.97266 0.54684 0.01491 0.0
C949 C 0.97444 0.5621 0.0052 0.0
C950 C 0.96443 0.57533 0.0084 0.0
C951 C 0.95228 0.57365 0.02132 0.0
C952 C 0.95131 0.55903 0.03179 0.0
C953 C 0.96134 0.54578 0.02858 0.0
C954 C 0.03535 0.5275 0.04267 0.0
C955 C 0.04323 0.56918 0.01702 0.0
O956 O 0.07805 0.52398 0.02507 0.0
O957 O 0.08145 0.53282 0.99848 0.0
O958 O 0.03031 0.51988 0.98899 0.0
O959 O 0.0513 0.54052 0.98136 0.0
O960 O 0.04228 0.49912 0.00975 0.0
O961 O 0.01218 0.4953 0.00028 0.0
O962 O 0.99027 0.53161 0.99595 0.0
O963 O 0.98948 0.52592 0.02405 0.0
O964 O 0.03929 0.5378 0.03097 0.0
O965 O 0.01922 0.51629 0.03871 0.0
O966 O 0.02694 0.5582 0.01032 0.0
O967 O 0.05685 0.56197 0.02048 0.0
H968 H 0.09154 0.49628 0.0298 0.0
H969 H 0.1106 0.47499 0.02389 0.0
H970 H 0.12653 0.50109 0.97751 0.0
H971 H 0.10768 0.52258 0.9836 0.0
H972 H 0.98321 0.56357 0.99476 0.0
H973 H 0.96589 0.58663 0.00035 0.0
H974 H 0.94212 0.55719 0.04182 0.0
H975 H 0.95975 0.53426 0.03637 0.0
H976 H 0.03608 0.22842 0.94362 0.0
H977 H 0.04478 0.20466 0.95978 0.0
H978 H 0.98999 0.17009 0.94956 0.0
H979 H 0.98122 0.19456 0.93484 0.0
H980 H 0.00164 0.1687 0.98157 0.0
H981 H 0.0275 0.16169 0.92469 0.0
H982 H 0.0467 0.17371 0.90216 0.0
H983 H 0.09265 0.18999 0.94411 0.0
H984 H 0.07367 0.1783 0.96695 0.0
H985 H 0.00875 0.07686 0.98928 0.0
H986 H 0.00511 0.10577 0.97924 0.0
H987 H 0.06048 0.13449 -0.00023 0.0
H988 H 0.06443 0.10509 0.00945 0.0
H989 H 0.05184 0.14205 0.96671 0.0
H990 H 0.02515 0.14431 0.02238 0.0
H991 H 0.00513 0.13162 0.04398 0.0
H992 H 0.95956 0.12298 0.00295 0.0
H993 H 0.97929 0.13531 0.981 0.0
C994 C 0.02599 0.21558 0.94461 0.0
C995 C 0.00802 0.21313 0.93767 0.0
C996 C 0.03096 0.20194 0.95386 0.0
C997 C 0.01815 0.18519 0.95568 0.0
C998 C 1.00022 0.18277 0.94846 0.0
C999 C 0.9952 0.19667 0.93983 0.0
C1000 C 0.02309 0.1702 0.9652 0.0
C1001 C 0.01251 0.16277 0.9781 0.0
C1002 C 0.0377 0.16278 0.96139 0.0
C1003 C 0.04915 0.16929 0.94754 0.0
C1004 C 0.04169 0.16788 0.92911 0.0
C1005 C 0.05253 0.17465 0.91629 0.0
C1006 C 0.07087 0.18266 0.92171 0.0
C1007 C 0.07843 0.18382 0.93994 0.0
C1008 C 0.06765 0.17712 0.95282 0.0
C1009 C 0.02021 0.0893 0.99183 0.0
C1010 C 0.03691 0.08856 0.00027 0.0
C1011 C 0.01805 0.10596 0.98615 0.0
C1012 C 0.03241 0.12255 0.98901 0.0
C1013 C 0.04913 0.12195 0.99749 0.0
C1014 C 0.05136 0.10514 0.0031 0.0
C1015 C 0.02993 0.1401 0.98243 0.0
C1016 C 0.04104 0.14809 0.97022 0.0
C1017 C 0.01565 0.14787 0.98669 0.0
C1018 C 0.00374 0.14067 0.0 0.0
C1019 C 0.01087 0.13961 0.01793 0.0
C1020 C 0.99956 0.13247 0.03023 0.0
C1021 C 0.98109 0.12645 0.02482 0.0
C1022 C 0.97387 0.12762 0.00711 0.0
C1023 C 0.98511 0.13471 0.99475 0.0
H1024 H 0.97236 0.12091 0.03435 0.0
H1025 H 0.07923 0.18793 0.91178 0.0
H1026 H 0.10376 0.79392 0.16528 0.0
H1027 H 0.12754 0.78943 0.1871 0.0
H1028 H 0.16655 0.81179 0.15311 0.0
H1029 H 0.14308 0.81609 0.13138 0.0
H1030 H 0.17342 0.78149 0.16355 0.0
H1031 H 0.16146 0.83813 0.1945 0.0
H1032 H 0.14164 0.85667 0.20693 0.0
H1033 H 0.12755 0.81823 0.24472 0.0
H1034 H 0.14707 0.79924 0.23227 0.0
H1035 H 0.25239 0.7942 0.22826 0.0
H1036 H 0.22861 0.79807 0.20622 0.0
H1037 H 0.19049 0.78057 0.2428 0.0
H1038 H 0.21438 0.77723 0.26493 0.0
H1039 H 0.18283 0.80831 0.23062 0.0
H1040 H 0.19539 0.7516 0.1991 0.0
H1041 H 0.21336 0.732 0.18439 0.0
H1042 H 0.22577 0.77045 0.1463 0.0
H1043 H 0.20809 0.79044 0.16094 0.0
C1044 C 0.11742 0.79813 0.16259 0.0
C1045 C 0.12137 0.80556 0.14656 0.0
C1046 C 0.13108 0.7955 0.17508 0.0
C1047 C 0.14905 0.80034 0.17193 0.0
C1048 C 0.15292 0.80783 0.15598 0.0
C1049 C 0.13937 0.81044 0.14357 0.0
C1050 C 0.1639 0.79773 0.18511 0.0
C1051 C 0.17559 0.78755 0.1782 0.0
C1052 C 0.16674 0.80533 0.20431 0.0
C1053 C 0.15564 0.81719 0.21238 0.0
C1054 C 0.15411 0.8336 0.20544 0.0
C1055 C 0.14291 0.84418 0.21246 0.0
C1056 C 0.13332 0.83861 0.22659 0.0
C1057 C 0.13498 0.82251 0.23377 0.0
C1058 C 0.14612 0.81185 0.22675 0.0
C1059 C 0.23893 0.7908 0.23143 0.0
C1060 C 0.2354 0.78502 0.2483 0.0
C1061 C 0.22519 0.79306 0.21877 0.0
C1062 C 0.20739 0.78934 0.22246 0.0
C1063 C 0.20393 0.78356 0.23936 0.0
C1064 C 0.21767 0.78151 0.25204 0.0
C1065 C 0.19245 0.79187 0.20915 0.0
C1066 C 0.18074 0.80216 0.21601 0.0
C1067 C 0.18965 0.78444 0.18983 0.0
C1068 C 0.2006 0.77265 0.18129 0.0
C1069 C 0.20211 0.75599 0.18772 0.0
C1070 C 0.21221 0.74479 0.17936 0.0
C1071 C 0.22074 0.75001 0.16446 0.0
C1072 C 0.21919 0.76645 0.15787 0.0
C1073 C 0.20914 0.77772 0.1662 0.0
H1074 H 0.22852 0.74129 0.15799 0.0
H1075 H 0.12462 0.84679 0.23198 0.0
H1076 H 0.53873 0.81448 0.46356 0.0
H1077 H 0.54607 0.84924 0.47569 0.0
H1078 H 0.50008 0.85253 0.44015 0.0
H1079 H 0.49301 0.81826 0.42807 0.0
H1080 H 0.52942 0.88227 0.44072 0.0
H1081 H 0.49852 0.84711 0.48566 0.0
H1082 H 0.49654 0.82606 0.50884 0.0
H1083 H 0.54623 0.86196 0.53956 0.0
H1084 H 0.54856 0.88309 0.51645 0.0
H1085 H 0.50073 0.96257 0.47713 0.0
H1086 H 0.50135 0.92946 0.46604 0.0
H1087 H 0.54416 0.93558 0.51012 0.0
H1088 H 0.54314 0.96801 0.52149 0.0
H1089 H 0.52278 0.90254 0.50613 0.0
H1090 H 0.55009 0.94215 0.46651 0.0
H1091 H 0.55458 0.96377 0.44401 0.0
H1092 H 0.51726 0.92078 0.40271 0.0
H1093 H 0.51129 0.89956 0.42534 0.0
C1094 C 0.53043 0.82284 0.45832 0.0
C1095 C 0.51534 0.81406 0.44504 0.0
C1096 C 0.53457 0.84253 0.46519 0.0
C1097 C 0.52353 0.85332 0.45882 0.0
C1098 C 0.5088 0.84445 0.44513 0.0
C1099 C 0.50473 0.82495 0.43832 0.0
C1100 C 0.52624 0.8736 0.46692 0.0
C1101 C 0.52789 0.88686 0.45498 0.0
C1102 C 0.52509 0.87953 0.48572 0.0
C1103 C 0.52384 0.86648 0.49922 0.0
C1104 C 0.50911 0.85037 0.49725 0.0
C1105 C 0.5079 0.83846 0.5104 0.0
C1106 C 0.52128 0.84263 0.52563 0.0
C1107 C 0.5359 0.85871 0.52774 0.0
C1108 C 0.53718 0.87064 0.51462 0.0
C1109 C 0.50984 0.95655 0.48471 0.0
C1110 C 0.52196 0.96775 0.50006 0.0
C1111 C 0.5104 0.93783 0.47822 0.0
C1112 C 0.52312 0.93032 0.48702 0.0
C1113 C 0.53436 0.94116 0.50304 0.0
C1114 C 0.53375 0.95967 0.50953 0.0
C1115 C 0.52501 0.91122 0.47967 0.0
C1116 C 0.52443 0.89824 0.49183 0.0
C1117 C 0.52746 0.90575 0.4611 0.0
C1118 C 0.53002 0.91927 0.44785 0.0
C1119 C 0.54238 0.93748 0.45283 0.0
C1120 C 0.54516 0.94974 0.44003 0.0
C1121 C 0.53606 0.94376 0.42199 0.0
C1122 C 0.52408 0.92556 0.41677 0.0
C1123 C 0.52085 0.91349 0.42965 0.0
H1124 H 0.53839 0.95317 0.41203 0.0
H1125 H 0.52029 0.83343 0.53582 0.0
H1126 H 0.52755 0.3205 0.66969 0.0
H1127 H 0.49948 0.3086 0.68128 0.0
H1128 H 0.48602 0.25787 0.63892 0.0
H1129 H 0.51422 0.26971 0.62717 0.0
H1130 H 0.45801 0.27394 0.64208 0.0
H1131 H 0.49643 0.25272 0.68233 0.0
H1132 H 0.52421 0.25573 0.70287 0.0
H1133 H 0.51369 0.30083 0.74057 0.0
H1134 H 0.48592 0.29823 0.72015 0.0
H1135 H 0.38215 0.24405 0.69333 0.0
H1136 H 0.40781 0.24334 0.6766 0.0
H1137 H 0.43678 0.29868 0.70859 0.0
H1138 H 0.41141 0.29957 0.72501 0.0
H1139 H 0.45603 0.2713 0.70846 0.0
H1140 H 0.42108 0.29612 0.6656 0.0
H1141 H 0.39914 0.29943 0.64085 0.0
H1142 H 0.40512 0.24948 0.60636 0.0
H1143 H 0.42682 0.24563 0.63103 0.0
C1144 C 0.5187 0.30677 0.66286 0.0
C1145 C 0.52323 0.29607 0.64753 0.0
C1146 C 0.50267 0.29991 0.66958 0.0
C1147 C 0.49072 0.28219 0.66117 0.0
C1148 C 0.49507 0.27151 0.64574 0.0
C1149 C 0.51122 0.27831 0.63906 0.0
C1150 C 0.47344 0.27546 0.66822 0.0
C1151 C 0.45746 0.27276 0.65648 0.0
C1152 C 0.47277 0.2741 0.68702 0.0
C1153 C 0.48912 0.2753 0.69969 0.0
C1154 C 0.50006 0.2633 0.69499 0.0
C1155 C 0.5158 0.26494 0.70661 0.0
C1156 C 0.52072 0.27847 0.72301 0.0
C1157 C 0.50985 0.29033 0.72787 0.0
C1158 C 0.49407 0.28875 0.71631 0.0
C1159 C 0.39398 0.2561 0.69667 0.0
C1160 C 0.39468 0.27194 0.71045 0.0
C1161 C 0.40859 0.25571 0.68705 0.0
C1162 C 0.42425 0.27099 0.69131 0.0
C1163 C 0.42487 0.28674 0.70501 0.0
C1164 C 0.41028 0.28728 0.71434 0.0
C1165 C 0.44051 0.27058 0.68245 0.0
C1166 C 0.45639 0.2718 0.69391 0.0
C1167 C 0.44102 0.27048 0.66332 0.0
C1168 C 0.42539 0.27043 0.65028 0.0
C1169 C 0.41727 0.28546 0.653 0.0
C1170 C 0.40502 0.28755 0.6389 0.0
C1171 C 0.40092 0.2748 0.622 0.0
C1172 C 0.40839 0.2594 0.61943 0.0
C1173 C 0.42058 0.25719 0.6335 0.0
H1174 H 0.39214 0.27697 0.61079 0.0
H1175 H 0.53295 0.27976 0.73196 0.0
H1176 H 0.97925 0.78643 0.58714 0.0
H1177 H 0.99392 0.81418 0.57434 0.0
H1178 H 0.03742 0.82954 0.61946 0.0
H1179 H 0.02263 0.80228 0.63262 0.0
H1180 H 0.02634 0.85961 0.61365 0.0
H1181 H 0.04296 0.80957 0.57541 0.0
H1182 H 0.03625 0.77776 0.5554 0.0
H1183 H 1.00126 0.79446 0.51661 0.0
H1184 H 0.00765 0.8263 0.53645 0.0
H1185 H 0.06741 0.93506 0.56478 0.0
H1186 H 0.06426 0.90786 0.5814 0.0
H1187 H 0.01601 0.87734 0.54402 0.0
H1188 H 0.01928 0.90407 0.52759 0.0
H1189 H 0.03701 0.85479 0.54836 0.0
H1190 H 0.01785 0.90325 0.58639 0.0
H1191 H 0.01866 0.93241 0.60821 0.0
H1192 H 0.05287 0.91735 0.64906 0.0
H1193 H 0.05314 0.88863 0.62712 0.0
C1194 C 0.99193 0.79573 0.5943 0.0
C1195 C 0.99976 0.79224 0.61087 0.0
C1196 C 1.00037 0.81146 0.58692 0.0
C1197 C 0.01692 0.82367 0.5958 0.0
C1198 C 0.02471 0.82023 0.61237 0.0
C1199 C 0.01619 0.80468 0.61987 0.0
C1200 C 0.02565 0.8406 0.58828 0.0
C1201 C 0.02917 0.85869 0.59951 0.0
C1202 C 0.02898 0.83914 0.56978 0.0
C1203 C 0.02579 0.82031 0.55742 0.0
C1204 C 0.03385 0.80645 0.5626 0.0
C1205 C 0.03009 0.78841 0.5513 0.0
C1206 C 0.01833 0.78409 0.53475 0.0
C1207 C 0.01039 0.79784 0.52941 0.0
C1208 C 0.01413 0.81591 0.54065 0.0
C1209 C 0.0563 0.92238 0.56016 0.0
C1210 C 0.0436 0.92138 0.54495 0.0
C1211 C 0.05445 0.90699 0.56966 0.0
C1212 C 0.03989 0.89061 0.56393 0.0
C1213 C 0.02741 0.88976 0.5486 0.0
C1214 C 0.02924 0.90499 0.53924 0.0
C1215 C 0.0371 0.87408 0.57354 0.0
C1216 C 0.03481 0.85591 0.5627 0.0
C1217 C 0.03462 0.87555 0.5924 0.0
C1218 C 0.03592 0.89395 0.60482 0.0
C1219 C 0.02606 0.90642 0.59976 0.0
C1220 C 0.02623 0.92286 0.61223 0.0
C1221 C 0.03585 0.92677 0.62999 0.0
C1222 C 0.04543 0.91432 0.63529 0.0
C1223 C 0.04559 0.89808 0.62276 0.0
H1224 H 0.03586 0.93943 0.63965 0.0
H1225 H 0.01537 0.77009 0.52607 0.0
H1226 H 0.53023 0.80022 0.87475 0.0
H1227 H 0.5031 0.80382 0.85856 0.0
H1228 H 0.52656 0.80425 0.80816 0.0
H1229 H 0.55461 0.8017 0.82488 0.0
H1230 H 0.50375 0.8307 0.81585 0.0
H1231 H 0.50216 0.76303 0.81451 0.0
H1232 H 0.50725 0.7381 0.83162 0.0
H1233 H 0.46895 0.74863 0.86673 0.0
H1234 H 0.46383 0.77381 0.85001 0.0
H1235 H 0.41793 0.81437 0.76633 0.0
H1236 H 0.44767 0.81055 0.77477 0.0
H1237 H 0.43195 0.79308 0.82525 0.0
H1238 H 0.40201 0.7957 0.81631 0.0
H1239 H 0.45239 0.77418 0.81398 0.0
H1240 H 0.45419 0.84021 0.8223 0.0
H1241 H 0.45024 0.87019 0.81374 0.0
H1242 H 0.48761 0.86865 0.77517 0.0
H1243 H 0.49153 0.83843 0.78324 0.0
C1244 C 0.52958 0.80086 0.86016 0.0
C1245 C 0.54407 0.79971 0.85071 0.0
C1246 C 0.5142 0.80322 0.85103 0.0
C1247 C 0.51277 0.80377 0.83214 0.0
C1248 C 0.52749 0.80361 0.82275 0.0
C1249 C 0.54327 0.80182 0.83213 0.0
C1250 C 0.49519 0.80245 0.82215 0.0
C1251 C 0.49253 0.81821 0.81492 0.0
C1252 C 0.48056 0.78648 0.82197 0.0
C1253 C 0.48255 0.77022 0.83093 0.0
C1254 C 0.49474 0.75993 0.8258 0.0
C1255 C 0.49769 0.74582 0.83548 0.0
C1256 C 0.48841 0.74177 0.85023 0.0
C1257 C 0.47609 0.75174 0.85527 0.0
C1258 C 0.47312 0.76589 0.84566 0.0
C1259 C 0.42073 0.80924 0.77898 0.0
C1260 C 0.40785 0.80572 0.79089 0.0
C1261 C 0.43776 0.8073 0.78389 0.0
C1262 C 0.44217 0.80212 0.8009 0.0
C1263 C 0.42892 0.79734 0.81217 0.0
C1264 C 0.41187 0.799 0.80714 0.0
C1265 C 0.4607 0.80248 0.80749 0.0
C1266 C 0.46357 0.78653 0.81428 0.0
C1267 C 0.47532 0.8187 0.80808 0.0
C1268 C 0.47293 0.83686 0.80315 0.0
C1269 C 0.46142 0.84614 0.81185 0.0
C1270 C 0.45921 0.8632 0.8071 0.0
C1271 C 0.46861 0.87127 0.79386 0.0
C1272 C 0.48028 0.86233 0.78537 0.0
C1273 C 0.48249 0.84523 0.79001 0.0
H1274 H 0.46689 0.88449 0.79022 0.0
H1275 H 0.49079 0.73091 0.85777 0.0
H1276 H 0.4637 0.17204 0.11323 0.0
H1277 H 0.47544 0.1492 0.09412 0.0
H1278 H 0.51512 0.196 0.08086 0.0
H1279 H 0.50314 0.21883 0.09928 0.0
H1280 H 0.50191 0.169 0.05215 0.0
H1281 H 0.52682 0.17206 0.11466 0.0
H1282 H 0.52727 0.17105 0.1479 0.0
H1283 H 0.49442 0.11296 0.13477 0.0
H1284 H 0.49368 0.11366 0.10145 0.0
H1285 H 0.55223 0.10512 0.01915 0.0
H1286 H 0.54669 0.13055 0.04166 0.0
H1287 H 0.49463 0.09385 0.04419 0.0
H1288 H 0.49974 0.06888 0.02101 0.0
H1289 H 0.51921 0.118 0.08052 0.0
H1290 H 0.49004 0.11809 0.01867 0.0
H1291 H 0.48904 0.11949 0.9855 0.0
H1292 H 0.52998 0.17291 0.99843 0.0
H1293 H 0.53148 0.17156 0.03171 0.0
C1294 C 0.4745 0.17739 0.10567 0.0
C1295 C 0.48266 0.19707 0.10781 0.0
C1296 C 0.48141 0.16441 0.09516 0.0
C1297 C 0.49655 0.17108 0.08689 0.0
C1298 C 0.50361 0.19071 0.08752 0.0
C1299 C 0.49655 0.20369 0.09778 0.0
C1300 C 0.50476 0.15753 0.07709 0.0
C1301 C 0.50608 0.15813 0.05848 0.0
C1302 C 0.50997 0.14332 0.08548 0.0
C1303 C 0.51008 0.14298 0.10553 0.0
C1304 C 0.51956 0.15913 0.11885 0.0
C1305 C 0.51991 0.15859 0.13771 0.0
C1306 C 0.51085 0.14197 0.14344 0.0
C1307 C 0.50143 0.12583 0.13032 0.0
C1308 C 0.50107 0.12628 0.11144 0.0
C1309 C 0.53966 0.10265 0.02461 0.0
C1310 C 0.52618 0.08556 0.01832 0.0
C1311 C 0.53662 0.11694 0.03746 0.0
C1312 C 0.52034 0.11378 0.04439 0.0
C1313 C 0.50727 0.09627 0.03887 0.0
C1314 C 0.51007 0.08225 0.02557 0.0
C1315 C 0.51596 0.12946 0.05568 0.0
C1316 C 0.51541 0.12923 0.07448 0.0
C1317 C 0.51149 0.1441 0.04758 0.0
C1318 C 0.51118 0.14449 0.02759 0.0
C1319 C 0.4991 0.12991 0.01441 0.0
C1320 C 0.49837 0.13075 0.9956 0.0
C1321 C 0.50952 0.14622 0.98985 0.0
C1322 C 0.52143 0.16088 0.0029 0.0
C1323 C 0.52226 0.16006 0.02173 0.0
H1324 H 0.50886 0.1469 0.97528 0.0
H1325 H 0.51114 0.14157 0.15804 0.0
H1326 H 0.13556 0.30176 0.36395 0.0
H1327 H 0.15558 0.29207 0.34394 0.0
H1328 H 0.15137 0.33609 0.31253 0.0
H1329 H 0.13044 0.34553 0.33228 0.0
H1330 H 0.14939 0.30216 0.29029 0.0
H1331 H 0.18801 0.34259 0.34342 0.0
H1332 H 0.19817 0.35425 0.37682 0.0
H1333 H 0.20681 0.29982 0.38246 0.0
H1334 H 0.19643 0.28772 0.34913 0.0
H1335 H 0.23123 0.30312 0.25423 0.0
H1336 H 0.20591 0.30982 0.26814 0.0
H1337 H 0.202 0.26134 0.2955 0.0
H1338 H 0.22718 0.25439 0.28147 0.0
H1339 H 0.2082 0.29823 0.31889 0.0
H1340 H 0.16929 0.25792 0.26559 0.0
H1341 H 0.16074 0.24712 0.23189 0.0
H1342 H 0.15448 0.30252 0.22639 0.0
H1343 H 0.16326 0.31376 0.26006 0.0
C1344 C 0.13896 0.30957 0.35293 0.0
C1345 C 0.13161 0.32458 0.34978 0.0
C1346 C 0.15039 0.30396 0.34149 0.0
C1347 C 0.15511 0.31359 0.32702 0.0
C1348 C 0.14784 0.32858 0.32374 0.0
C1349 C 0.13607 0.33404 0.33506 0.0
C1350 C 0.1678 0.30785 0.31557 0.0
C1351 C 0.16236 0.30157 0.29647 0.0
C1352 C 0.18455 0.3068 0.3238 0.0
C1353 C 0.19132 0.31421 0.34378 0.0
C1354 C 0.192 0.33308 0.35179 0.0
C1355 C 0.1978 0.33976 0.37071 0.0
C1356 C 0.2031 0.32777 0.38176 0.0
C1357 C 0.20269 0.30909 0.37388 0.0
C1358 C 0.19688 0.30232 0.35497 0.0
C1359 C 0.2246 0.29359 0.26278 0.0
C1360 C 0.23107 0.27835 0.26693 0.0
C1361 C 0.2102 0.29739 0.27065 0.0
C1362 C 0.20233 0.28607 0.28281 0.0
C1363 C 0.20803 0.27012 0.28606 0.0
C1364 C 0.22226 0.26613 0.27797 0.0
C1365 C 0.18965 0.29232 0.29378 0.0
C1366 C 0.1952 0.29881 0.31277 0.0
C1367 C 0.17315 0.29368 0.28542 0.0
C1368 C 0.16699 0.2867 0.26533 0.0
C1369 C 0.16612 0.26782 0.25719 0.0
C1370 C 0.16125 0.26161 0.23809 0.0
C1371 C 0.15709 0.27413 0.227 0.0
C1372 C 0.1577 0.29284 0.23501 0.0
C1373 C 0.16258 0.29912 0.2541 0.0
H1374 H 0.15338 0.26932 0.21221 0.0
H1375 H 0.20754 0.33296 0.39641 0.0
H1376 H 0.98501 0.05778 0.21574 0.0
H1377 H 0.99816 0.05723 0.18717 0.0
H1378 H 0.94792 0.05639 0.15704 0.0
H1379 H 0.93459 0.05702 0.18604 0.0
H1380 H 0.96203 0.03063 0.13707 0.0
H1381 H 0.98797 0.09705 0.16629 0.0
H1382 H 0.00511 0.12368 0.19116 0.0
H1383 H 0.05092 0.1017 0.18966 0.0
H1384 H 0.03401 0.07481 0.16494 0.0
H1385 H 0.99916 0.03737 0.05084 0.0
H1386 H 0.98398 0.04048 0.0784 0.0
H1387 H 0.03471 0.05545 0.11351 0.0
H1388 H 0.04966 0.05324 0.0863 0.0
H1389 H 0.01946 0.07509 0.13087 0.0
H1390 H 0.9966 0.00878 0.10635 0.0
H1391 H 0.98176 0.97937 0.08355 0.0
H1392 H 0.93345 0.99698 0.07872 0.0
H1393 H 0.94808 0.02662 0.10136 0.0
C1394 C 0.97668 0.05791 0.20318 0.0
C1395 C 0.95857 0.0578 0.2038 0.0
C1396 C 0.98437 0.05757 0.18654 0.0
C1397 C 0.97441 0.05689 0.16929 0.0
C1398 C 0.95629 0.05696 0.1698 0.0
C1399 C 0.9486 0.05758 0.18664 0.0
C1400 C 0.98276 0.05546 0.15104 0.0
C1401 C 0.97444 0.04067 0.13572 0.0
C1402 C 0.99953 0.06771 0.14887 0.0
C1403 C 0.00965 0.0838 0.16386 0.0
C1404 C 0.00165 0.0978 0.17137 0.0
C1405 C 0.01134 0.11297 0.18542 0.0
C1406 C 0.02907 0.11436 0.19202 0.0
C1407 C 0.03718 0.1006 0.18455 0.0
C1408 C 0.02755 0.0854 0.17051 0.0
C1409 C 0.0071 0.04124 0.06441 0.0
C1410 C 0.02589 0.045 0.06585 0.0
C1411 C 0.99832 0.04293 0.08049 0.0
C1412 C 0.00781 0.0481 0.09886 0.0
C1413 C 0.02655 0.05164 0.10006 0.0
C1414 C 0.03526 0.05022 0.08414 0.0
C1415 C 0.99874 0.0502 0.1167 0.0
C1416 C 0.00699 0.06507 0.13204 0.0
C1417 C 0.98226 0.03761 0.11915 0.0
C1418 C 0.9735 0.02002 0.10534 0.0
C1419 C 0.98286 0.00646 0.10029 0.0
C1420 C 0.97448 0.98974 0.08743 0.0
C1421 C 0.95669 0.98635 0.07964 0.0
C1422 C 0.94724 0.99966 0.08473 0.0
C1423 C 0.95556 0.01641 0.09758 0.0
H1424 H 0.95021 0.97338 0.0697 0.0
H1425 H 0.03655 0.12612 0.20288 0.0
H1426 H 0.26321 0.68981 0.49472 0.0
H1427 H 0.25266 0.70177 0.46789 0.0
H1428 H 0.26935 0.65962 0.4318 0.0
H1429 H 0.27935 0.64701 0.45886 0.0
H1430 H 0.28045 0.7019 0.42909 0.0
H1431 H 0.22958 0.6491 0.42976 0.0
H1432 H 0.205 0.62907 0.44238 0.0
H1433 H 0.18361 0.6771 0.45521 0.0
H1434 H 0.20825 0.69752 0.44301 0.0
H1435 H 0.23833 0.7174 0.34626 0.0
H1436 H 0.24019 0.69731 0.36949 0.0
H1437 H 0.23341 0.74172 0.41133 0.0
H1438 H 0.23278 0.76231 0.38828 0.0
H1439 H 0.21633 0.69563 0.40965 0.0
H1440 H 0.26799 0.74961 0.41745 0.0
H1441 H 0.29512 0.77311 0.41298 0.0
H1442 H 0.31665 0.72755 0.39102 0.0
H1443 H 0.28935 0.70371 0.39483 0.0
C1444 C 0.26508 0.68351 0.48106 0.0
C1445 C 0.27237 0.6679 0.47858 0.0
C1446 C 0.25872 0.69002 0.46585 0.0
C1447 C 0.25982 0.68109 0.4481 0.0
C1448 C 0.26816 0.66627 0.44557 0.0
C1449 C 0.2742 0.65943 0.46087 0.0
C1450 C 0.25347 0.68852 0.43236 0.0
C1451 C 0.26642 0.70013 0.42437 0.0
C1452 C 0.23517 0.68691 0.42734 0.0
C1453 C 0.22091 0.6749 0.43564 0.0
C1454 C 0.21983 0.65549 0.43556 0.0
C1455 C 0.20583 0.64404 0.44257 0.0
C1456 C 0.19278 0.65182 0.44963 0.0
C1457 C 0.19374 0.67109 0.44977 0.0
C1458 C 0.20773 0.68261 0.44282 0.0
C1459 C 0.23638 0.72243 0.36023 0.0
C1460 C 0.23578 0.74134 0.36576 0.0
C1461 C 0.23766 0.71112 0.37346 0.0
C1462 C 0.23756 0.71852 0.39201 0.0
C1463 C 0.23381 0.7361 0.39699 0.0
C1464 C 0.23307 0.74764 0.38383 0.0
C1465 C 0.24335 0.70887 0.40627 0.0
C1466 C 0.23032 0.697 0.41404 0.0
C1467 C 0.26166 0.71075 0.41163 0.0
C1468 C 0.27631 0.72485 0.40588 0.0
C1469 C 0.27813 0.74456 0.41093 0.0
C1470 C 0.29366 0.75796 0.40876 0.0
C1471 C 0.30758 0.75181 0.40177 0.0
C1472 C 0.30581 0.73228 0.39639 0.0
C1473 C 0.29026 0.71882 0.39842 0.0
H1474 H 0.31981 0.7622 0.40073 0.0
H1475 H 0.1819 0.6429 0.45494 0.0
H1476 H 0.60907 0.00509 0.68821 0.0
H1477 H 0.59754 0.0085 0.65741 0.0
H1478 H 0.61617 0.07012 0.6734 0.0
H1479 H 0.6272 0.06674 0.70457 0.0
H1480 H 0.58295 0.0576 0.65479 0.0
H1481 H 0.63963 0.04816 0.64572 0.0
H1482 H 0.66455 0.03337 0.64828 0.0
H1483 H 0.6302 0.97967 0.61845 0.0
H1484 H 0.60503 0.99407 0.61585 0.0
H1485 H 0.56172 0.0589 0.55992 0.0
H1486 H 0.58167 0.06248 0.58848 0.0
H1487 H 0.5568 0.0039 0.59249 0.0
H1488 H 0.53628 1.0003 0.56387 0.0
H1489 H 0.59856 0.02079 0.59971 0.0
H1490 H 0.54139 0.02799 0.61572 0.0
H1491 H 0.51554 0.04141 0.61448 0.0
H1492 H 0.55053 0.09815 0.63271 0.0
H1493 H 0.57664 0.08504 0.63369 0.0
C1494 C 0.61029 0.01931 0.68518 0.0
C1495 C 0.61882 0.03566 0.69841 0.0
C1496 C 0.60408 0.02125 0.66764 0.0
C1497 C 0.60678 0.03953 0.66321 0.0
C1498 C 0.6144 0.05595 0.67672 0.0
C1499 C 0.62037 0.05401 0.69443 0.0
C1500 C 0.60041 0.04118 0.64462 0.0
C1501 C 0.58671 0.05008 0.64267 0.0
C1502 C 0.6053 0.03099 0.62908 0.0
C1503 C 0.62043 0.02222 0.63061 0.0
C1504 C 0.63736 0.03318 0.63979 0.0
C1505 C 0.65154 0.02486 0.64123 0.0
C1506 C 0.64896 0.0056 0.63354 0.0
C1507 C 0.6322 0.99461 0.62437 0.0
C1508 C 0.61798 0.00285 0.62286 0.0
C1509 C 0.56063 0.04674 0.56683 0.0
C1510 C 0.5475 0.02941 0.56016 0.0
C1511 C 0.57201 0.0488 0.58295 0.0
C1512 C 0.57045 0.03344 0.59222 0.0
C1513 C 0.55795 0.01577 0.58518 0.0
C1514 C 0.54624 0.01381 0.56916 0.0
C1515 C 0.5808 0.03654 0.61021 0.0
C1516 C 0.59525 0.02873 0.61186 0.0
C1517 C 0.57658 0.04761 0.62555 0.0
C1518 C 0.56097 0.05558 0.62439 0.0
C1519 C 0.5436 0.04335 0.61912 0.0
C1520 C 0.52889 0.05089 0.61856 0.0
C1521 C 0.53139 0.07063 0.62342 0.0
C1522 C 0.54861 0.08287 0.62886 0.0
C1523 C 0.56337 0.07539 0.6294 0.0
H1524 H 0.51999 0.07644 0.62305 0.0
H1525 H 0.65996 0.99919 0.63467 0.0
H1526 H 0.30872 0.32502 0.9754 0.0
H1527 H 0.30687 0.31614 0.94219 0.0
H1528 H 0.26627 0.34544 0.93389 0.0
H1529 H 0.26841 0.35515 0.96766 0.0
H1530 H 0.26115 0.30488 0.91136 0.0
H1531 H 0.29933 0.36803 0.92462 0.0
H1532 H 0.32377 0.39619 0.93997 0.0
H1533 H 0.36218 0.36506 0.92807 0.0
H1534 H 0.33793 0.33657 0.91292 0.0
H1535 H 0.26915 0.30511 0.8177 0.0
H1536 H 0.2671 0.31284 0.8501 0.0
H1537 H 0.3154 0.29676 0.8641 0.0
H1538 H 0.31774 0.28883 0.83096 0.0
H1539 H 0.31497 0.33167 0.88344 0.0
H1540 H 0.27443 0.26802 0.86896 0.0
H1541 H 0.249 0.24235 0.85101 0.0
H1542 H 0.21359 0.27727 0.86298 0.0
H1543 H 0.23883 0.30321 0.88087 0.0
C1544 C 0.29917 0.32945 0.96666 0.0
C1545 C 0.28873 0.34088 0.97422 0.0
C1546 C 0.29825 0.32442 0.94765 0.0
C1547 C 0.28665 0.33039 0.93574 0.0
C1548 C 0.27541 0.34088 0.94303 0.0
C1549 C 0.27659 0.34632 0.96224 0.0
C1550 C 0.28683 0.3256 0.91572 0.0
C1551 C 0.27274 0.31093 0.90509 0.0
C1552 C 0.30216 0.33333 0.90783 0.0
C1553 C 0.31675 0.35003 0.9179 0.0
C1554 C 0.31295 0.36704 0.92559 0.0
C1555 C 0.32679 0.38311 0.93417 0.0
C1556 C 0.34451 0.38239 0.93507 0.0
C1557 C 0.34843 0.36558 0.92742 0.0
C1558 C 0.33464 0.34946 0.91885 0.0
C1559 C 0.27939 0.30298 0.82751 0.0
C1560 C 0.29362 0.29618 0.82169 0.0
C1561 C 0.27804 0.30732 0.84611 0.0
C1562 C 0.2908 0.3049 0.85943 0.0
C1563 C 0.30528 0.29844 0.85388 0.0
C1564 C 0.30667 0.29405 0.83504 0.0
C1565 C 0.28949 0.31062 0.87912 0.0
C1566 C 0.30339 0.32553 0.88969 0.0
C1567 C 0.27382 0.30333 0.88678 0.0
C1568 C 0.25858 0.28763 0.87615 0.0
C1569 C 0.26125 0.27027 0.86767 0.0
C1570 C 0.24685 0.25566 0.85753 0.0
C1571 C 0.2297 0.25819 0.85582 0.0
C1572 C 0.22688 0.27532 0.86431 0.0
C1573 C 0.24123 0.28997 0.87449 0.0
H1574 H 0.21859 0.24687 0.84793 0.0
H1575 H 0.35521 0.39488 0.94163 0.0
H1576 H 0.98015 0.08574 0.31161 0.0
H1577 H 0.99344 0.08374 0.34261 0.0
H1578 H 0.95121 0.03278 0.34212 0.0
H1579 H 0.9376 0.03552 0.31181 0.0
H1580 H 0.95809 0.04816 0.37481 0.0
H1581 H 0.99895 0.03678 0.33246 0.0
H1582 H 0.01987 0.04378 0.30997 0.0
H1583 H 0.0528 0.09233 0.34913 0.0
H1584 H 0.03193 0.0858 0.37175 0.0
H1585 H 0.00434 0.00875 0.4421 0.0
H1586 H 0.99161 0.01445 0.41234 0.0
H1587 H 0.02404 0.07294 0.42532 0.0
H1588 H 0.03628 0.06749 0.45531 0.0
H1589 H 0.023 0.05495 0.38745 0.0
H1590 H 0.98274 0.06516 0.42995 0.0
H1591 H 0.96305 0.05664 0.45314 0.0
H1592 H 0.92968 0.00876 0.41353 0.0
H1593 H 0.94941 0.01676 0.39018 0.0
C1594 C 0.97335 0.07455 0.31844 0.0
C1595 C 0.95736 0.0612 0.30929 0.0
C1596 C 0.98123 0.07307 0.33614 0.0
C1597 C 0.9738 0.05775 0.34506 0.0
C1598 C 0.95751 0.04482 0.33604 0.0
C1599 C 0.94953 0.04649 0.31858 0.0
C1600 C 0.98278 0.05478 0.36342 0.0
C1601 C 0.97227 0.04944 0.37724 0.0
C1602 C 0.00147 0.05674 0.36747 0.0
C1603 C 0.01373 0.06096 0.35369 0.0
C1604 C 0.01055 0.04907 0.33619 0.0
C1605 C 0.02242 0.05294 0.32344 0.0
C1606 C 0.03762 0.06853 0.32809 0.0
C1607 C 0.04099 0.0803 0.34552 0.0
C1608 C 0.02914 0.07653 0.3583 0.0
C1609 C 0.00891 0.02279 0.43859 0.0
C1610 C 0.02144 0.03762 0.45131 0.0
C1611 C 0.00153 0.02609 0.4215 0.0
C1612 C 0.00671 0.04421 0.41631 0.0
C1613 C 0.01969 0.05882 0.42874 0.0
C1614 C 0.0267 0.05567 0.44601 0.0
C1615 C 0.99822 0.04813 0.39836 0.0
C1616 C 0.00882 0.05366 0.38477 0.0
C1617 C 0.97965 0.0462 0.39444 0.0
C1618 C 0.96768 0.04143 0.40837 0.0
C1619 C 0.97131 0.0527 0.42622 0.0
C1620 C 0.96013 0.04798 0.4394 0.0
C1621 C 0.94516 0.03213 0.43483 0.0
C1622 C 0.94131 0.021 0.41706 0.0
C1623 C 0.95249 0.02562 0.40385 0.0
H1624 H 0.93651 0.02851 0.44504 0.0
H1625 H 0.04681 0.07147 0.31822 0.0
H1626 H 0.26971 0.6631 0.58059 0.0
H1627 H 0.26603 0.68021 0.61039 0.0
H1628 H 0.28883 0.73415 0.59408 0.0
H1629 H 0.29207 0.71702 0.5639 0.0
H1630 H 0.30657 0.72346 0.62679 0.0
H1631 H 0.24893 0.72688 0.59848 0.0
H1632 H 0.21827 0.71354 0.58186 0.0
H1633 H 0.20428 0.6804 0.62392 0.0
H1634 H 0.23493 0.69337 0.64069 0.0
H1635 H 0.3018 0.79474 0.69844 0.0
H1636 H 0.29569 0.77454 0.66764 0.0
H1637 H 0.27312 0.72486 0.69083 0.0
H1638 H 0.27989 0.74467 0.72165 0.0
H1639 H 0.25337 0.73005 0.65576 0.0
H1640 H 0.30849 0.7247 0.68411 0.0
H1641 H 0.33903 0.73441 0.70117 0.0
H1642 H 0.35783 0.76612 0.65951 0.0
H1643 H 0.32731 0.75699 0.64241 0.0
C1644 C 0.27408 0.67862 0.58352 0.0
C1645 C 0.28181 0.68896 0.57056 0.0
C1646 C 0.27158 0.68827 0.60022 0.0
C1647 C 0.277 0.70825 0.60405 0.0
C1648 C 0.2844 0.71864 0.59099 0.0
C1649 C 0.28655 0.70897 0.57408 0.0
C1650 C 0.27797 0.7181 0.62282 0.0
C1651 C 0.295 0.72528 0.63308 0.0
C1652 C 0.26264 0.71904 0.63102 0.0
C1653 C 0.24431 0.71093 0.62072 0.0
C1654 C 0.23939 0.71656 0.60407 0.0
C1655 C 0.22199 0.70913 0.59466 0.0
C1656 C 0.20935 0.69609 0.6018 0.0
C1657 C 0.21409 0.69048 0.61838 0.0
C1658 C 0.23147 0.69789 0.62786 0.0
C1659 C 0.29533 0.77958 0.69688 0.0
C1660 C 0.2912 0.77119 0.71223 0.0
C1661 C 0.29188 0.76814 0.67943 0.0
C1662 C 0.28404 0.74841 0.6773 0.0
C1663 C 0.27911 0.74014 0.69244 0.0
C1664 C 0.28293 0.75147 0.70992 0.0
C1665 C 0.28207 0.73633 0.65934 0.0
C1666 C 0.26492 0.72836 0.64939 0.0
C1667 C 0.29726 0.73416 0.65146 0.0
C1668 C 0.31551 0.74047 0.66217 0.0
C1669 C 0.31905 0.73408 0.67877 0.0
C1670 C 0.33639 0.7394 0.68841 0.0
C1671 C 0.35035 0.75096 0.68148 0.0
C1672 C 0.34699 0.75724 0.66491 0.0
C1673 C 0.32967 0.75202 0.65526 0.0
H1674 H 0.36378 0.75499 0.68891 0.0
H1675 H 0.19588 0.69038 0.59451 0.0
H1676 H 0.62611 0.01777 0.78821 0.0
H1677 H 0.61744 0.02992 0.8178 0.0
H1678 H 0.63478 0.08773 0.80789 0.0
H1679 H 0.64297 0.07571 0.77825 0.0
H1680 H 0.64307 0.07849 0.84758 0.0
H1681 H 0.59631 0.07297 0.79496 0.0
H1682 H 0.57687 0.05403 0.76644 0.0
H1683 H 0.55467 0.00986 0.79612 0.0
H1684 H 0.57419 0.02844 0.82477 0.0
H1685 H 0.59347 0.11036 0.91711 0.0
H1686 H 0.60659 0.10956 0.88796 0.0
H1687 H 0.57996 0.04903 0.87225 0.0
H1688 H 0.56688 0.04996 0.90057 0.0
H1689 H 0.57727 0.06571 0.84383 0.0
H1690 H 0.62262 0.06431 0.89308 0.0
H1691 H 0.64178 0.07796 0.92316 0.0
H1692 H 0.66648 0.12808 0.90206 0.0
H1693 H 0.64731 0.11479 0.872 0.0
C1694 C 0.62823 0.03305 0.79258 0.0
C1695 C 0.63471 0.04586 0.78108 0.0
C1696 C 0.62344 0.03992 0.80936 0.0
C1697 C 0.62555 0.05961 0.81469 0.0
C1698 C 0.63319 0.07251 0.80379 0.0
C1699 C 0.63759 0.06563 0.78689 0.0
C1700 C 0.6176 0.0665 0.83034 0.0
C1701 C 0.62873 0.07606 0.84681 0.0
C1702 C 0.59892 0.06289 0.82904 0.0
C1703 C 0.58676 0.05205 0.81196 0.0
C1704 C 0.58734 0.05918 0.79538 0.0
C1705 C 0.57631 0.04852 0.77919 0.0
C1706 C 0.56456 0.03075 0.77946 0.0
C1707 C 0.56377 0.02364 0.79594 0.0
C1708 C 0.5748 0.03424 0.81215 0.0
C1709 C 0.59049 0.09708 0.90722 0.0
C1710 C 0.57943 0.08019 0.91078 0.0
C1711 C 0.59783 0.09661 0.89073 0.0
C1712 C 0.59408 0.07924 0.87806 0.0
C1713 C 0.58279 0.06259 0.88173 0.0
C1714 C 0.57552 0.06308 0.89793 0.0
C1715 C 0.60267 0.07742 0.86146 0.0
C1716 C 0.59166 0.06876 0.8446 0.0
C1717 C 0.6214 0.08111 0.86264 0.0
C1718 C 0.63341 0.08872 0.88044 0.0
C1719 C 0.63212 0.07827 0.89492 0.0
C1720 C 0.64297 0.08593 0.91196 0.0
C1721 C 0.65528 0.10393 0.91458 0.0
C1722 C 0.65691 0.11418 0.90009 0.0
C1723 C 0.64606 0.10659 0.88304 0.0
H1724 H 0.66353 0.1099 0.92785 0.0
H1725 H 0.55604 0.0225 0.76692 0.0
H1726 H 0.29543 0.3198 0.06538 0.0
H1727 H 0.28946 0.30723 0.09335 0.0
H1728 H 0.27509 0.35814 0.11571 0.0
H1729 H 0.28116 0.371 0.08734 0.0
H1730 H 0.29956 0.34895 0.14013 0.0
H1731 H 0.24338 0.31523 0.10281 0.0
H1732 H 0.22367 0.29499 0.07503 0.0
H1733 H 0.24672 0.24887 0.08192 0.0
H1734 H 0.26677 0.26891 0.10959 0.0
H1735 H 0.27534 0.3083 0.22001 0.0
H1736 H 0.27658 0.32402 0.19298 0.0
H1737 H 0.28507 0.27391 0.16051 0.0
H1738 H 0.28414 0.25848 0.18756 0.0
H1739 H 0.26086 0.2845 0.14173 0.0
H1740 H 0.31862 0.31678 0.17515 0.0
H1741 H 0.34165 0.3363 0.20079 0.0
H1742 H 0.31918 0.38378 0.19951 0.0
H1743 H 0.29581 0.36442 0.17405 0.0
C1744 C 0.29078 0.32832 0.07612 0.0
C1745 C 0.28887 0.34651 0.07414 0.0
C1746 C 0.28726 0.321 0.09212 0.0
C1747 C 0.28171 0.33162 0.10668 0.0
C1748 C 0.27931 0.34963 0.10463 0.0
C1749 C 0.28268 0.35693 0.0884 0.0
C1750 C 0.27972 0.32428 0.12436 0.0
C1751 C 0.29075 0.33507 0.14062 0.0
C1752 C 0.26881 0.30578 0.12484 0.0
C1753 C 0.25667 0.29364 0.10824 0.0
C1754 C 0.24434 0.30082 0.09834 0.0
C1755 C 0.23309 0.28937 0.08262 0.0
C1756 C 0.23396 0.27067 0.0767 0.0
C1757 C 0.24606 0.26336 0.08652 0.0
C1758 C 0.25736 0.27475 0.10224 0.0
C1759 C 0.27813 0.30098 0.20733 0.0
C1760 C 0.28017 0.28239 0.20613 0.0
C1761 C 0.27862 0.30987 0.19174 0.0
C1762 C 0.28108 0.30028 0.17459 0.0
C1763 C 0.28314 0.28169 0.17348 0.0
C1764 C 0.28266 0.27288 0.18901 0.0
C1765 C 0.28083 0.30912 0.15759 0.0
C1766 C 0.26944 0.29855 0.14141 0.0
C1767 C 0.29171 0.32765 0.15708 0.0
C1768 C 0.30527 0.33903 0.17291 0.0
C1769 C 0.31841 0.33128 0.18053 0.0
C1770 C 0.33157 0.34234 0.19498 0.0
C1771 C 0.33183 0.36124 0.20183 0.0
C1772 C 0.31892 0.36911 0.19424 0.0
C1773 C 0.3057 0.3581 0.17982 0.0
H1774 H 0.34208 0.36981 0.21297 0.0
H1775 H 0.22524 0.26183 0.06453 0.0
H1776 H 0.251 0.92508 0.02388 0.0
H1777 H 0.23079 0.94066 0.03882 0.0
H1778 H 0.23914 0.98227 0.0029 0.0
H1779 H 0.26013 0.96713 0.98828 0.0
H1780 H 0.23688 0.99821 0.03836 0.0
H1781 H 0.20442 0.94253 0.99189 0.0
H1782 H 0.19845 0.90823 0.97868 0.0
H1783 H 0.18129 0.89342 0.0292 0.0
H1784 H 0.18749 0.92771 0.04284 0.0
H1785 H 0.1595 0.02434 0.01636 0.0
H1786 H 0.18498 0.01085 0.01775 0.0
H1787 H 0.16491 0.98045 0.06017 0.0
H1788 H 0.1393 0.99435 0.05898 0.0
H1789 H 0.17431 0.95773 0.03012 0.0
H1790 H 0.20127 0.01526 0.07361 0.0
H1791 H 0.20971 0.04984 0.08652 0.0
H1792 H 0.23786 0.0616 0.0408 0.0
H1793 H 0.22942 0.02713 0.02749 0.0
C1794 C 0.24847 0.93749 0.01904 0.0
C1795 C 0.25669 0.94463 0.00453 0.0
C1796 C 0.23709 0.94647 0.02776 0.0
C1797 C 0.23332 0.96238 0.02174 0.0
C1798 C 0.24193 0.96995 0.00768 0.0
C1799 C 0.25366 0.96118 0.99918 0.0
C1800 C 0.21912 0.96999 0.02881 0.0
C1801 C 0.22318 0.98945 0.03659 0.0
C1802 C 0.20144 0.95824 0.02703 0.0
C1803 C 0.19648 0.93765 0.01841 0.0
C1804 C 0.19933 0.93195 0.00016 0.0
C1805 C 0.19597 0.91253 0.99262 0.0
C1806 C 0.18952 0.89865 0.0031 0.0
C1807 C 0.1863 0.90419 0.0211 0.0
C1808 C 0.18972 0.92362 0.02875 0.0
C1809 C 0.16057 0.0148 0.02599 0.0
C1810 C 0.14756 0.01024 0.0375 0.0
C1811 C 0.17516 0.00727 0.02691 0.0
C1812 C 0.1769 0.99494 0.03927 0.0
C1813 C 0.16382 0.99015 0.05072 0.0
C1814 C 0.14928 0.998 0.05001 0.0
C1815 C 0.19191 0.98624 0.03898 0.0
C1816 C 0.18805 0.96648 0.03244 0.0
C1817 C 0.20976 0.99778 0.04173 0.0
C1818 C 0.21463 0.01859 0.04951 0.0
C1819 C 0.20913 0.02523 0.06622 0.0
C1820 C 0.21395 0.04482 0.07363 0.0
C1821 C 0.2243 0.05791 0.06448 0.0
C1822 C 0.22985 0.05145 0.04788 0.0
C1823 C 0.22508 0.03188 0.04042 0.0
H1824 H 0.22803 0.07306 0.07025 0.0
H1825 H 0.187 0.88362 0.99727 0.0
H1826 H 0.71745 0.6484 0.96694 0.0
H1827 H 0.68861 0.62637 0.96884 0.0
H1828 H 0.70508 0.62946 0.02696 0.0
H1829 H 0.73422 0.65091 0.02478 0.0
H1830 H 0.68563 0.59452 0.01265 0.0
H1831 H 0.67783 0.65678 0.01109 0.0
H1832 H 0.68051 0.68655 0.9987 0.0
H1833 H 0.64847 0.6544 0.94777 0.0
H1834 H 0.64578 0.6244 0.95978 0.0
H1835 H 0.59457 0.5603 0.03038 0.0
H1836 H 0.62488 0.58105 0.03116 0.0
H1837 H 0.61599 0.57445 0.97173 0.0
H1838 H 0.58601 0.55338 0.97089 0.0
H1839 H 0.63169 0.61231 0.98903 0.0
H1840 H 0.64022 0.54995 0.9911 0.0
H1841 H 0.63953 0.52034 0.00319 0.0
H1842 H 0.67112 0.55339 0.05401 0.0
H1843 H 0.67175 0.58324 0.04233 0.0
C1844 C 0.71505 0.64388 0.97996 0.0
C1845 C 0.72811 0.65101 0.99562 0.0
C1846 C 0.69848 0.63152 0.98114 0.0
C1847 C 0.69439 0.62652 0.99817 0.0
C1848 C 0.70779 0.63306 0.01367 0.0
C1849 C 0.72449 0.64522 0.01241 0.0
C1850 C 0.67598 0.61516 -9e-05 0.0
C1851 C 0.67386 0.59862 0.00777 0.0
C1852 C 0.66049 0.62028 0.9934 0.0
C1853 C 0.6617 0.63833 0.9863 0.0
C1854 C 0.67141 0.65605 0.99723 0.0
C1855 C 0.67293 0.67297 0.99027 0.0
C1856 C 0.66469 0.67236 0.97244 0.0
C1857 C 0.65485 0.65485 0.96157 0.0
C1858 C 0.65329 0.63789 0.96846 0.0
C1859 C 0.59907 0.56341 0.01751 0.0
C1860 C 0.5879 0.55522 0.00054 0.0
C1861 C 0.61643 0.57518 0.01796 0.0
C1862 C 0.62283 0.57927 0.00148 0.0
C1863 C 0.61144 0.57152 0.98463 0.0
C1864 C 0.59429 0.55946 0.98415 0.0
C1865 C 0.64133 0.59154 0.00156 0.0
C1866 C 0.64346 0.60832 0.99409 0.0
C1867 C 0.65681 0.58672 0.00861 0.0
C1868 C 0.65576 0.56885 0.01596 0.0
C1869 C 0.64676 0.55093 0.00497 0.0
C1870 C 0.64645 0.53409 0.01172 0.0
C1871 C 0.65521 0.53498 0.02939 0.0
C1872 C 0.66428 0.55272 0.04036 0.0
C1873 C 0.66461 0.5696 0.03368 0.0
H1874 H 0.65502 0.52193 0.03455 0.0
H1875 H 0.66592 0.68547 0.96707 0.0
H1876 H 0.71794 0.47258 0.27101 0.0
H1877 H 0.72992 0.44501 0.26738 0.0
H1878 H 0.67667 0.40735 0.25501 0.0
H1879 H 0.66437 0.43548 0.25872 0.0
H1880 H 0.69568 0.38954 0.27471 0.0
H1881 H 0.70728 0.41348 0.22095 0.0
H1882 H 0.71692 0.43652 0.20052 0.0
H1883 H 0.77078 0.45079 0.22817 0.0
H1884 H 0.76143 0.42793 0.24891 0.0
H1885 H 0.7345 0.30925 0.2523 0.0
H1886 H 0.71809 0.33366 0.25157 0.0
H1887 H 0.76772 0.37803 0.26439 0.0
H1888 H 0.78408 0.35367 0.26488 0.0
H1889 H 0.74785 0.39041 0.24167 0.0
H1890 H 0.73178 0.36552 0.29746 0.0
H1891 H 0.71939 0.33949 0.31401 0.0
H1892 H 0.67043 0.32318 0.27623 0.0
H1893 H 0.68253 0.34921 0.25958 0.0
C1894 C 0.70847 0.45855 0.26739 0.0
C1895 C 0.68986 0.45704 0.2652 0.0
C1896 C 0.71556 0.44239 0.26515 0.0
C1897 C 0.70464 0.42328 0.26063 0.0
C1898 C 0.68591 0.42152 0.25847 0.0
C1899 C 0.67871 0.4379 0.26051 0.0
C1900 C 0.71303 0.40582 0.25858 0.0
C1901 C 0.70695 0.38987 0.26723 0.0
C1902 C 0.72786 0.40515 0.24882 0.0
C1903 C 0.73361 0.41915 0.23664 0.0
C1904 C 0.72115 0.42166 0.2228 0.0
C1905 C 0.72657 0.43465 0.21113 0.0
C1906 C 0.74444 0.44516 0.21309 0.0
C1907 C 0.75693 0.44266 0.2267 0.0
C1908 C 0.75159 0.42967 0.2384 0.0
C1909 C 0.74208 0.32418 0.25502 0.0
C1910 C 0.76101 0.3289 0.25873 0.0
C1911 C 0.73249 0.33848 0.25477 0.0
C1912 C 0.74117 0.35851 0.25828 0.0
C1913 C 0.7601 0.36312 0.26166 0.0
C1914 C 0.76966 0.34887 0.26198 0.0
C1915 C 0.73094 0.37448 0.25836 0.0
C1916 C 0.73667 0.39017 0.24926 0.0
C1917 C 0.71545 0.37458 0.26718 0.0
C1918 C 0.70809 0.35918 0.27727 0.0
C1919 C 0.7184 0.35633 0.29271 0.0
C1920 C 0.71143 0.34161 0.3021 0.0
C1921 C 0.69417 0.32965 0.29613 0.0
C1922 C 0.6838 0.33246 0.28084 0.0
C1923 C 0.69067 0.34724 0.27147 0.0
H1924 H 0.68881 0.31823 0.30339 0.0
H1925 H 0.74861 0.45521 0.20404 0.0
H1926 H 0.83698 0.47115 0.53615 0.0
H1927 H 0.86563 0.49153 0.53041 0.0
H1928 H 0.87929 0.44085 0.50563 0.0
H1929 H 0.85173 0.42084 0.51216 0.0
H1930 H 0.90336 0.46511 0.53606 0.0
H1931 H 0.8707 0.46259 0.47641 0.0
H1932 H 0.8491 0.46761 0.45231 0.0
H1933 H 0.86545 0.52809 0.47372 0.0
H1934 H 0.8871 0.52337 0.498 0.0
H1935 H 0.97652 0.4844 0.48694 0.0
H1936 H 0.94486 0.47268 0.49015 0.0
H1937 H 0.94575 0.5291 0.51824 0.0
H1938 H 0.9773 0.54064 0.51555 0.0
H1939 H 0.9147 0.50672 0.48917 0.0
H1940 H 0.95508 0.50283 0.54308 0.0
H1941 H 0.97926 0.49115 0.5568 0.0
H1942 H 0.94777 0.43304 0.53795 0.0
H1943 H 0.92377 0.44429 0.52305 0.0
C1944 C 0.84646 0.46463 0.52992 0.0
C1945 C 0.84292 0.44472 0.52526 0.0
C1946 C 0.86238 0.47611 0.5263 0.0
C1947 C 0.87413 0.46742 0.51757 0.0
C1948 C 0.8702 0.44756 0.51246 0.0
C1949 C 0.85477 0.43624 0.51651 0.0
C1950 C 0.89171 0.47835 0.51571 0.0
C1951 C 0.90594 0.47441 0.52597 0.0
C1952 C 0.89463 0.49002 0.50228 0.0
C1953 C 0.8801 0.49256 0.48936 0.0
C1954 C 0.86932 0.47688 0.4763 0.0
C1955 C 0.85721 0.47969 0.46248 0.0
C1956 C 0.8558 0.49814 0.46158 0.0
C1957 C 0.86645 0.51379 0.47453 0.0
C1958 C 0.87861 0.51106 0.48833 0.0
C1959 C 0.96972 0.4942 0.4935 0.0
C1960 C 0.97889 0.51312 0.50137 0.0
C1961 C 0.9519 0.48761 0.49526 0.0
C1962 C 0.94355 0.50019 0.50456 0.0
C1963 C 0.95238 0.51944 0.51111 0.0
C1964 C 0.9702 0.52589 0.50971 0.0
C1965 C 0.92606 0.49299 0.50912 0.0
C1966 C 0.91206 0.49786 0.49961 0.0
C1967 C 0.92322 0.48112 0.52241 0.0
C1968 C 0.93766 0.47446 0.53172 0.0
C1969 C 0.95338 0.48756 0.54158 0.0
C1970 C 0.96706 0.48101 0.54962 0.0
C1971 C 0.96503 0.46139 0.54838 0.0
C1972 C 0.94934 0.44825 0.53893 0.0
C1973 C 0.93573 0.45471 0.53058 0.0
H1974 H 0.97562 0.45638 0.55473 0.0
H1975 H 0.84654 0.50031 0.45077 0.0
H1976 H 0.36416 0.04325 0.26704 0.0
H1977 H 0.34882 0.06303 0.25131 0.0
H1978 H 0.39699 0.10973 0.26369 0.0
H1979 H 0.41239 0.09018 0.27933 0.0
H1980 H 0.36412 0.11511 0.27694 0.0
H1981 H 0.38799 0.09202 0.22296 0.0
H1982 H 0.39249 0.06722 0.19886 0.0
H1983 H 0.33601 0.04763 0.18054 0.0
H1984 H 0.33113 0.07216 0.20473 0.0
H1985 H 0.34297 0.18872 0.24113 0.0
H1986 H 0.35949 0.16475 0.24282 0.0
H1987 H 0.31123 0.11969 0.22135 0.0
H1988 H 0.29455 0.14345 0.2199 0.0
H1989 H 0.34276 0.11106 0.21055 0.0
H1990 H 0.31878 0.13277 0.26491 0.0
H1991 H 0.31355 0.15497 0.29102 0.0
H1992 H 0.36988 0.17476 0.31021 0.0
H1993 H 0.37548 0.15297 0.28402 0.0
C1994 C 0.37135 0.05783 0.26659 0.0
C1995 C 0.3893 0.06544 0.27461 0.0
C1996 C 0.36274 0.06885 0.25727 0.0
C1997 C 0.37203 0.08751 0.2561 0.0
C1998 C 0.38985 0.09515 0.26425 0.0
C1999 C 0.39848 0.08415 0.27339 0.0
C2000 C 0.36254 0.10029 0.24917 0.0
C2001 C 0.35967 0.11446 0.2624 0.0
C2002 C 0.35627 0.09866 0.23026 0.0
C2003 C 0.35917 0.08379 0.21583 0.0
C2004 C 0.3765 0.08228 0.21396 0.0
C2005 C 0.37913 0.06831 0.20023 0.0
C2006 C 0.36454 0.05581 0.18822 0.0
C2007 C 0.34729 0.0573 0.18988 0.0
C2008 C 0.34459 0.07124 0.20359 0.0
C2009 C 0.33599 0.17373 0.23631 0.0
C2010 C 0.31743 0.16788 0.23075 0.0
C2011 C 0.34544 0.16011 0.23719 0.0
C2012 C 0.33641 0.14057 0.2325 0.0
C2013 C 0.31833 0.13476 0.225 0.0
C2014 C 0.30885 0.14836 0.22417 0.0
C2015 C 0.34501 0.12645 0.23836 0.0
C2016 C 0.3474 0.11184 0.22504 0.0
C2017 C 0.35087 0.1275 0.25731 0.0
C2018 C 0.34756 0.14152 0.27229 0.0
C2019 C 0.33007 0.14213 0.27448 0.0
C2020 C 0.32704 0.15457 0.28934 0.0
C2021 C 0.34139 0.16631 0.30218 0.0
C2022 C 0.3588 0.16572 0.30018 0.0
C2023 C 0.36191 0.15337 0.28532 0.0
H2024 H 0.33905 0.17581 0.31374 0.0
H2025 H 0.3666 0.04502 0.17759 0.0
H2026 H 0.33916 0.17624 0.5017 0.0
H2027 H 0.36628 0.16636 0.50945 0.0
H2028 H 0.33406 0.10963 0.51077 0.0
H2029 H 0.30701 0.11931 0.50305 0.0
H2030 H 0.3602 0.12343 0.54096 0.0
H2031 H 0.35573 0.11953 0.47447 0.0
H2032 H 0.35501 0.13169 0.44519 0.0
H2033 H 0.40632 0.17177 0.46475 0.0
H2034 H 0.4072 0.16009 0.4943 0.0
H2035 H 0.41651 0.06186 0.53208 0.0
H2036 H 0.3942 0.07974 0.53169 0.0
H2037 H 0.43379 0.1294 0.52339 0.0
H2038 H 0.45616 0.1114 0.5235 0.0
H2039 H 0.40651 0.12422 0.49979 0.0
H2040 H 0.41331 0.12703 0.56458 0.0
H2041 H 0.41506 0.11619 0.59451 0.0
H2042 H 0.36123 0.08047 0.57989 0.0
H2043 H 0.35921 0.09084 0.54976 0.0
C2044 C 0.33784 0.16161 0.50352 0.0
C2045 C 0.32081 0.14857 0.50171 0.0
C2046 C 0.35339 0.15599 0.50795 0.0
C2047 C 0.35227 0.13721 0.5107 0.0
C2048 C 0.33531 0.12421 0.50882 0.0
C2049 C 0.31981 0.12977 0.5043 0.0
C2050 C 0.36859 0.1309 0.5156 0.0
C2051 C 0.37028 0.12345 0.5319 0.0
C2052 C 0.38221 0.13173 0.50425 0.0
C2053 C 0.38138 0.13915 0.48672 0.0
C2054 C 0.36673 0.13113 0.47265 0.0
C2055 C 0.36633 0.1379 0.45597 0.0
C2056 C 0.38057 0.15255 0.45314 0.0
C2057 C 0.39526 0.16048 0.46699 0.0
C2058 C 0.39571 0.15381 0.48371 0.0
C2059 C 0.42062 0.07672 0.5306 0.0
C2060 C 0.43817 0.0851 0.52769 0.0
C2061 C 0.40779 0.08702 0.53043 0.0
C2062 C 0.4122 0.10607 0.52761 0.0
C2063 C 0.42993 0.11472 0.5255 0.0
C2064 C 0.44273 0.10438 0.52552 0.0
C2065 C 0.39797 0.11617 0.52496 0.0
C2066 C 0.39665 0.1244 0.50908 0.0
C2067 C 0.38484 0.1163 0.53687 0.0
C2068 C 0.38617 0.1096 0.5548 0.0
C2069 C 0.4019 0.1167 0.56765 0.0
C2070 C 0.40293 0.11067 0.58468 0.0
C2071 C 0.38828 0.09762 0.58908 0.0
C2072 C 0.37257 0.09056 0.57646 0.0
C2073 C 0.37148 0.09652 0.5594 0.0
H2074 H 0.38909 0.09301 0.60229 0.0
H2075 H 0.38026 0.15771 0.44019 0.0
H2076 H 0.70693 0.56368 0.28156 0.0
H2077 H 0.72564 0.59618 0.28085 0.0
H2078 H 0.68096 0.60814 0.25079 0.0
H2079 H 0.66258 0.57622 0.25139 0.0
H2080 H 0.7086 0.62423 0.23685 0.0
H2081 H 0.6963 0.62646 0.29885 0.0
H2082 H 0.69539 0.61594 0.32894 0.0
H2083 H 0.75251 0.62782 0.33725 0.0
H2084 H 0.75374 0.63818 0.30706 0.0
H2085 H 0.7459 0.72831 0.25065 0.0
H2086 H 0.72669 0.69587 0.25088 0.0
H2087 H 0.77112 0.68229 0.27962 0.0
H2088 H 0.79007 0.71411 0.27919 0.0
H2089 H 0.74302 0.66707 0.29429 0.0
H2090 H 0.75453 0.66547 0.23149 0.0
H2091 H 0.75427 0.67416 0.20056 0.0
H2092 H 0.69704 0.66048 0.19341 0.0
H2093 H 0.69698 0.652 0.22444 0.0
C2094 C 0.70113 0.57312 0.27463 0.0
C2095 C 0.68298 0.56689 0.26663 0.0
C2096 C 0.71186 0.59198 0.27435 0.0
C2097 C 0.70493 0.6053 0.26593 0.0
C2098 C 0.68701 0.59869 0.25744 0.0
C2099 C 0.67636 0.58014 0.25789 0.0
C2100 C 0.71583 0.62605 0.26605 0.0
C2101 C 0.71593 0.63357 0.24954 0.0
C2102 C 0.72573 0.63877 0.28235 0.0
C2103 C 0.72511 0.63292 0.30063 0.0
C2104 C 0.70866 0.62674 0.30706 0.0
C2105 C 0.70808 0.62081 0.32413 0.0
C2106 C 0.72388 0.62117 0.33498 0.0
C2107 C 0.74029 0.62753 0.32881 0.0
C2108 C 0.74094 0.63344 0.31173 0.0
C2109 C 0.75154 0.71852 0.25721 0.0
C2110 C 0.76978 0.72429 0.26497 0.0
C2111 C 0.74051 0.69969 0.2572 0.0
C2112 C 0.74719 0.68595 0.26516 0.0
C2113 C 0.76523 0.69208 0.27334 0.0
C2114 C 0.77621 0.71058 0.27306 0.0
C2115 C 0.73591 0.6653 0.26503 0.0
C2116 C 0.73569 0.65778 0.28158 0.0
C2117 C 0.72574 0.65264 0.24877 0.0
C2118 C 0.72578 0.65839 0.23041 0.0
C2119 C 0.74191 0.66457 0.22343 0.0
C2120 C 0.74181 0.6694 0.20586 0.0
C2121 C 0.72565 0.66795 0.19506 0.0
C2122 C 0.70955 0.66167 0.20182 0.0
C2123 C 0.70957 0.65687 0.2194 0.0
H2124 H 0.7256 0.67162 0.18142 0.0
H2125 H 0.72341 0.61655 0.34819 0.0
H2126 H 0.89201 0.48331 0.78368 0.0
H2127 H 0.86844 0.45373 0.78144 0.0
H2128 H 0.88252 0.43109 0.72929 0.0
H2129 H 0.90678 0.46086 0.73188 0.0
H2130 H 0.84272 0.42946 0.7347 0.0
H2131 H 0.89534 0.41347 0.75739 0.0
H2132 H 0.92404 0.41844 0.77706 0.0
H2133 H 0.89783 0.41863 0.82536 0.0
H2134 H 0.86906 0.4144 0.80612 0.0
H2135 H 0.78474 0.34203 0.74237 0.0
H2136 H 0.80498 0.36998 0.73685 0.0
H2137 H 0.82226 0.389 0.79579 0.0
H2138 H 0.80472 0.35807 0.80091 0.0
H2139 H 0.84891 0.38882 0.78138 0.0
H2140 H 0.79903 0.41373 0.76159 0.0
H2141 H 0.76902 0.40738 0.7439 0.0
H2142 H 0.78903 0.39133 0.69356 0.0
H2143 H 0.81915 0.39759 0.71096 0.0
C2144 C 0.88984 0.47209 0.77162 0.0
C2145 C 0.90085 0.47397 0.75786 0.0
C2146 C 0.87659 0.4553 0.77044 0.0
C2147 C 0.87419 0.44041 0.75539 0.0
C2148 C 0.88455 0.44257 0.74106 0.0
C2149 C 0.89817 0.45938 0.74245 0.0
C2150 C 0.86057 0.42278 0.75515 0.0
C2151 C 0.84401 0.42029 0.74467 0.0
C2152 C 0.86255 0.41138 0.76854 0.0
C2153 C 0.87996 0.41384 0.78022 0.0
C2154 C 0.89568 0.41487 0.77222 0.0
C2155 C 0.91199 0.41753 0.78332 0.0
C2156 C 0.91277 0.41891 0.80245 0.0
C2157 C 0.89722 0.41761 0.81053 0.0
C2158 C 0.88091 0.41511 0.79952 0.0
C2159 C 0.79264 0.35225 0.75428 0.0
C2160 C 0.79434 0.34743 0.77187 0.0
C2161 C 0.80396 0.36872 0.75109 0.0
C2162 C 0.8153 0.38182 0.76587 0.0
C2163 C 0.81394 0.3788 0.7841 0.0
C2164 C 0.80373 0.36134 0.7871 0.0
C2165 C 0.83049 0.39649 0.76209 0.0
C2166 C 0.84743 0.39806 0.77154 0.0
C2167 C 0.82878 0.40752 0.74823 0.0
C2168 C 0.81132 0.40624 0.73756 0.0
C2169 C 0.79706 0.40914 0.74671 0.0
C2170 C 0.78003 0.40546 0.73675 0.0
C2171 C 0.77713 0.39898 0.71762 0.0
C2172 C 0.79132 0.39646 0.70836 0.0
C2173 C 0.8084 0.40021 0.71824 0.0
H2174 H 0.76388 0.39589 0.70997 0.0
H2175 H 0.9254 0.42094 0.81101 0.0
H2176 H 0.05945 0.83107 0.05451 0.0
H2177 H 0.05173 0.85707 0.04136 0.0
H2178 H 0.06805 0.894 0.09502 0.0
H2179 H 0.0743 0.86737 0.10834 0.0
H2180 H 0.04206 0.90235 0.08112 0.0
H2181 H 0.09393 0.8938 0.05476 0.0
H2182 H 0.1123 0.87685 0.03721 0.0
H2183 H 0.07356 0.86469 0.98847 0.0
H2184 H 0.05485 0.88136 0.00579 0.0
H2185 H 0.06263 0.99211 0.05071 0.0
H2186 H 0.06488 0.96281 0.06144 0.0
H2187 H 0.02837 0.92889 0.01358 0.0
H2188 H 0.02561 0.95837 0.00296 0.0
H2189 H 0.06228 0.91809 0.02251 0.0
H2190 H 0.01202 0.92986 0.05039 0.0
H2191 H 0.99601 0.94907 0.06892 0.0
H2192 H 0.03568 0.95799 0.11631 0.0
H2193 H 0.05206 0.93906 0.09798 0.0
C2194 C 0.06111 0.84471 0.0635 0.0
C2195 C 0.06732 0.84723 0.08246 0.0
C2196 C 0.05696 0.8597 0.05592 0.0
C2197 C 0.05972 0.87788 0.06698 0.0
C2198 C 0.06574 0.88023 0.08605 0.0
C2199 C 0.06932 0.86502 0.09373 0.0
C2200 C 0.05614 0.89435 0.05889 0.0
C2201 C 0.04676 0.90583 0.06842 0.0
C2202 C 0.06176 0.89889 0.042 0.0
C2203 C 0.07288 0.88861 0.03165 0.0
C2204 C 0.08925 0.88736 0.04035 0.0
C2205 C 0.09974 0.87783 0.03043 0.0
C2206 C 0.09407 0.86964 0.01176 0.0
C2207 C 0.07792 0.871 0.00295 0.0
C2208 C 0.06737 0.88048 0.01281 0.0
C2209 C 0.05508 0.97842 0.04242 0.0
C2210 C 0.04401 0.97755 0.02592 0.0
C2211 C 0.05632 0.96169 0.04863 0.0
C2212 C 0.04678 0.94366 0.03835 0.0
C2213 C 0.03583 0.94267 0.02175 0.0
C2214 C 0.03423 0.95949 0.01572 0.0
C2215 C 0.04861 0.92599 0.04497 0.0
C2216 C 0.05762 0.91439 0.03516 0.0
C2217 C 0.04307 0.9216 0.0618 0.0
C2218 C 0.03335 0.93319 0.07275 0.0
C2219 C 0.01743 0.93609 0.0647 0.0
C2220 C 0.00826 0.94689 0.07519 0.0
C2221 C 0.01485 0.95479 0.09377 0.0
C2222 C 0.0306 0.95189 0.10191 0.0
C2223 C 0.03982 0.94111 0.09148 0.0
H2224 H 0.00772 0.96312 0.10186 0.0
H2225 H 0.10222 0.86229 0.0041 0.0
H2226 H 0.93619 0.26101 0.9002 0.0
H2227 H 0.91241 0.26796 0.88136 0.0
H2228 H 0.94346 0.27122 0.8364 0.0
H2229 H 0.9681 0.26482 0.85576 0.0
H2230 H 0.92606 0.2994 0.83961 0.0
H2231 H 0.90831 0.23148 0.83592 0.0
H2232 H 0.90429 0.20259 0.84994 0.0
H2233 H 0.86582 0.21991 0.88115 0.0
H2234 H 0.8698 0.24908 0.86748 0.0
H2235 H 0.85495 0.29366 0.77081 0.0
H2236 H 0.87924 0.28786 0.79023 0.0
H2237 H 0.84709 0.28218 0.83421 0.0
H2238 H 0.82221 0.28748 0.81429 0.0
H2239 H 0.86507 0.25537 0.83198 0.0
H2240 H 0.88262 0.32326 0.83498 0.0
H2241 H 0.88834 0.35308 0.82233 0.0
H2242 H 0.92812 0.33617 0.79296 0.0
H2243 H 0.92246 0.30613 0.80522 0.0
C2244 C 0.93813 0.26302 0.88626 0.0
C2245 C 0.95418 0.26196 0.8795 0.0
C2246 C 0.92434 0.26702 0.87542 0.0
C2247 C 0.92578 0.26974 0.85721 0.0
C2248 C 0.94186 0.26904 0.85036 0.0
C2249 C 0.95592 0.2652 0.86138 0.0
C2250 C 0.9103 0.27305 0.84557 0.0
C2251 C 0.91281 0.28959 0.83769 0.0
C2252 C 0.89276 0.26063 0.84343 0.0
C2253 C 0.88938 0.24248 0.8507 0.0
C2254 C 0.89895 0.2291 0.84573 0.0
C2255 C 0.89672 0.2127 0.85365 0.0
C2256 C 0.88482 0.20942 0.86644 0.0
C2257 C 0.87502 0.22247 0.87122 0.0
C2258 C 0.87722 0.23892 0.86336 0.0
C2259 C 0.85302 0.29141 0.78469 0.0
C2260 C 0.83663 0.29136 0.79101 0.0
C2261 C 0.86704 0.28811 0.79588 0.0
C2262 C 0.86537 0.28493 0.81397 0.0
C2263 C 0.84893 0.28474 0.82039 0.0
C2264 C 0.83472 0.28796 0.80906 0.0
C2265 C 0.88083 0.28171 0.82582 0.0
C2266 C 0.87831 0.26519 0.83383 0.0
C2267 C 0.89839 0.29416 0.82805 0.0
C2268 C 0.90204 0.31238 0.82093 0.0
C2269 C 0.89253 0.32586 0.82576 0.0
C2270 C 0.89576 0.34281 0.81866 0.0
C2271 C 0.90856 0.3465 0.80683 0.0
C2272 C 0.9182 0.33329 0.80212 0.0
C2273 C 0.91501 0.31631 0.80916 0.0
H2274 H 0.91103 0.35962 0.80133 0.0
H2275 H 0.88317 0.19676 0.87263 0.0
H2276 H 0.57212 0.24881 0.54928 0.0
H2277 H 0.56377 0.21415 0.53789 0.0
H2278 H 0.54061 0.20456 0.58731 0.0
H2279 H 0.54845 0.23912 0.59859 0.0
H2280 H 0.56789 0.18586 0.57988 0.0
H2281 H 0.51311 0.19165 0.55189 0.0
H2282 H 0.49178 0.20349 0.53332 0.0
H2283 H 0.51403 0.1878 0.48441 0.0
H2284 H 0.5357 0.17612 0.50274 0.0
H2285 H 0.53869 0.08464 0.55058 0.0
H2286 H 0.53992 0.11812 0.5619 0.0
H2287 H 0.55853 0.13322 0.51168 0.0
H2288 H 0.55692 0.09943 0.50019 0.0
H2289 H 0.53093 0.14821 0.52117 0.0
H2290 H 0.58759 0.14439 0.55174 0.0
H2291 H 0.60533 0.12885 0.57065 0.0
H2292 H 0.57608 0.13843 0.61568 0.0
H2293 H 0.55808 0.15392 0.59697 0.0
C2294 C 0.56491 0.23933 0.55752 0.0
C2295 C 0.56104 0.24665 0.57486 0.0
C2296 C 0.5601 0.21958 0.55098 0.0
C2297 C 0.55164 0.20692 0.56183 0.0
C2298 C 0.54711 0.21418 0.57877 0.0
C2299 C 0.55157 0.23392 0.58514 0.0
C2300 C 0.54938 0.18619 0.55634 0.0
C2301 C 0.55961 0.17755 0.56717 0.0
C2302 C 0.53867 0.17548 0.53973 0.0
C2303 C 0.52623 0.18328 0.52876 0.0
C2304 C 0.51367 0.19101 0.53723 0.0
C2305 C 0.50145 0.19761 0.52673 0.0
C2306 C 0.50159 0.19647 0.50771 0.0
C2307 C 0.51397 0.18873 0.49916 0.0
C2308 C 0.52622 0.18212 0.5096 0.0
C2309 C 0.54327 0.09525 0.54215 0.0
C2310 C 0.54796 0.08986 0.52473 0.0
C2311 C 0.54395 0.11426 0.54857 0.0
C2312 C 0.54947 0.12809 0.53767 0.0
C2313 C 0.55429 0.12268 0.52025 0.0
C2314 C 0.55353 0.10357 0.51379 0.0
C2315 C 0.54988 0.14817 0.54434 0.0
C2316 C 0.53923 0.15661 0.53382 0.0
C2317 C 0.56003 0.15863 0.56134 0.0
C2318 C 0.57147 0.15026 0.57294 0.0
C2319 C 0.58497 0.1432 0.56569 0.0
C2320 C 0.59505 0.13439 0.57636 0.0
C2321 C 0.59182 0.13264 0.59435 0.0
C2322 C 0.57858 0.13982 0.60175 0.0
C2323 C 0.56847 0.14867 0.59114 0.0
H2324 H 0.59958 0.12573 0.60256 0.0
H2325 H 0.49208 0.20152 0.49959 0.0
H2326 H 0.57765 0.79184 0.41085 0.0
H2327 H 0.60446 0.79516 0.39625 0.0
H2328 H 0.5721 0.77414 0.34267 0.0
H2329 H 0.54499 0.76953 0.35758 0.0
H2330 H 0.59805 0.75957 0.34285 0.0
H2331 H 0.5968 0.82517 0.36246 0.0
H2332 H 0.59553 0.85315 0.38494 0.0
H2333 H 0.64355 0.85135 0.41736 0.0
H2334 H 0.64499 0.82322 0.3952 0.0
H2335 H 0.66566 0.79321 0.28935 0.0
H2336 H 0.64013 0.79254 0.30621 0.0
H2337 H 0.67307 0.79358 0.35689 0.0
H2338 H 0.69861 0.79373 0.33992 0.0
H2339 H 0.64814 0.81894 0.35901 0.0
H2340 H 0.64954 0.75414 0.34068 0.0
H2341 H 0.65154 0.72595 0.31904 0.0
H2342 H 0.60375 0.72632 0.28524 0.0
H2343 H 0.60167 0.75478 0.30653 0.0
C2344 C 0.57619 0.78792 0.39593 0.0
C2345 C 0.55914 0.78047 0.38537 0.0
C2346 C 0.59162 0.79004 0.38754 0.0
C2347 C 0.59052 0.7855 0.36822 0.0
C2348 C 0.57344 0.7779 0.35759 0.0
C2349 C 0.55791 0.77526 0.3661 0.0
C2350 C 0.60714 0.78804 0.35925 0.0
C2351 C 0.60879 0.77274 0.3462 0.0
C2352 C 0.62167 0.80492 0.36402 0.0
C2353 C 0.62091 0.82199 0.37723 0.0
C2354 C 0.60704 0.83068 0.37443 0.0
C2355 C 0.60629 0.84658 0.38711 0.0
C2356 C 0.61942 0.85399 0.40259 0.0
C2357 C 0.63337 0.84558 0.40538 0.0
C2358 C 0.63417 0.82968 0.39275 0.0
C2359 C 0.66752 0.79359 0.30413 0.0
C2360 C 0.6841 0.7935 0.31332 0.0
C2361 C 0.65292 0.79314 0.31374 0.0
C2362 C 0.65466 0.79295 0.33279 0.0
C2363 C 0.67143 0.79375 0.3422 0.0
C2364 C 0.68597 0.79377 0.3325 0.0
C2365 C 0.63865 0.79067 0.34248 0.0
C2366 C 0.63723 0.80592 0.35566 0.0
C2367 C 0.62435 0.77378 0.33794 0.0
C2368 C 0.62558 0.75673 0.32507 0.0
C2369 C 0.63958 0.74835 0.32852 0.0
C2370 C 0.64071 0.7323 0.31634 0.0
C2371 C 0.62781 0.72438 0.30074 0.0
C2372 C 0.61375 0.7325 0.29731 0.0
C2373 C 0.61259 0.74859 0.30942 0.0
H2374 H 0.62869 0.71193 0.29134 0.0
H2375 H 0.61881 0.86628 0.4124 0.0
H2376 H 0.07191 0.28703 0.44569 0.0
H2377 H 0.05868 0.25547 0.45245 0.0
H2378 H 0.07327 0.22879 0.40238 0.0
H2379 H 0.08638 0.26041 0.39526 0.0
H2380 H 0.03605 0.2121 0.41042 0.0
H2381 H 0.09825 0.22839 0.43672 0.0
H2382 H 0.12518 0.2528 0.45351 0.0
H2383 H 0.09877 0.25959 0.5013 0.0
H2384 H 0.07158 0.23537 0.48466 0.0
H2385 H 0.03208 0.12284 0.44521 0.0
H2386 H 0.0378 0.15034 0.42934 0.0
H2387 H 0.03034 0.18639 0.47801 0.0
H2388 H 0.02511 0.15942 0.49404 0.0
H2389 H 0.06427 0.19694 0.46733 0.0
H2390 H 0.00229 0.17962 0.44149 0.0
H2391 H 0.97382 0.15924 0.42359 0.0
H2392 H 0.99842 0.15579 0.37427 0.0
H2393 H 0.02715 0.17591 0.39194 0.0
C2394 C 0.07259 0.27448 0.43627 0.0
C2395 C 0.08035 0.27617 0.42007 0.0
C2396 C 0.06478 0.25651 0.43999 0.0
C2397 C 0.06484 0.23998 0.42773 0.0
C2398 C 0.07293 0.24151 0.41179 0.0
C2399 C 0.08076 0.25954 0.40802 0.0
C2400 C 0.05795 0.22122 0.43278 0.0
C2401 C 0.04231 0.20844 0.42261 0.0
C2402 C 0.06612 0.21691 0.44883 0.0
C2403 C 0.08294 0.23002 0.4595 0.0
C2404 C 0.09825 0.23499 0.45086 0.0
C2405 C 0.11352 0.24885 0.46031 0.0
C2406 C 0.11369 0.25772 0.47847 0.0
C2407 C 0.09863 0.25264 0.48726 0.0
C2408 C 0.0833 0.23881 0.47785 0.0
C2409 C 0.03133 0.13656 0.45238 0.0
C2410 C 0.02836 0.13901 0.47096 0.0
C2411 C 0.03442 0.15216 0.44324 0.0
C2412 C 0.03454 0.1703 0.45261 0.0
C2413 C 0.03024 0.17243 0.4706 0.0
C2414 C 0.02716 0.15694 0.4797 0.0
C2415 C 0.04206 0.18758 0.44513 0.0
C2416 C 0.05802 0.20021 0.45491 0.0
C2417 C 0.03413 0.19156 0.42867 0.0
C2418 C 0.01698 0.17902 0.41813 0.0
C2419 C 0.00173 0.17427 0.42689 0.0
C2420 C 0.98551 0.16283 0.41677 0.0
C2421 C 0.98433 0.15615 0.39782 0.0
C2422 C 0.99937 0.16092 0.38896 0.0
C2423 C 0.01562 0.17234 0.39903 0.0
H2424 H 0.97176 0.14733 0.39 0.0
H2425 H 0.12549 0.26855 0.48573 0.0
H2426 H 0.53705 0.22649 0.19646 0.0
H2427 H 0.5687 0.23697 0.20922 0.0
H2428 H 0.57652 0.28399 0.17957 0.0
H2429 H 0.54494 0.27378 0.16674 0.0
H2430 H 0.60133 0.25904 0.17668 0.0
H2431 H 0.57793 0.29826 0.22139 0.0
H2432 H 0.55512 0.30206 0.24131 0.0
H2433 H 0.56715 0.25976 0.27083 0.0
H2434 H 0.58998 0.25565 0.251 0.0
H2435 H 0.69002 0.28931 0.22241 0.0
H2436 H 0.66076 0.29359 0.21214 0.0
H2437 H 0.63601 0.25133 0.24313 0.0
H2438 H 0.66505 0.24694 0.25328 0.0
H2439 H 0.62055 0.28054 0.24436 0.0
H2440 H 0.63959 0.23741 0.20001 0.0
H2441 H 0.65814 0.22647 0.17796 0.0
H2442 H 0.65137 0.26898 0.14605 0.0
H2443 H 0.633 0.28039 0.16811 0.0
C2444 C 0.54548 0.23911 0.19275 0.0
C2445 C 0.53859 0.24939 0.18074 0.0
C2446 C 0.56345 0.24503 0.2 0.0
C2447 C 0.57461 0.26124 0.19529 0.0
C2448 C 0.56789 0.27148 0.18326 0.0
C2449 C 0.5499 0.26565 0.17608 0.0
C2450 C 0.59341 0.26733 0.20305 0.0
C2451 C 0.60579 0.26433 0.19137 0.0
C2452 C 0.59869 0.27359 0.22223 0.0
C2453 C 0.58568 0.27672 0.23479 0.0
C2454 C 0.57573 0.28982 0.23218 0.0
C2455 C 0.56279 0.29201 0.24343 0.0
C2456 C 0.5597 0.28118 0.25735 0.0
C2457 C 0.56961 0.26819 0.26009 0.0
C2458 C 0.5826 0.26599 0.2489 0.0
C2459 C 0.67832 0.2813 0.22731 0.0
C2460 C 0.67956 0.26764 0.23839 0.0
C2461 C 0.66174 0.28375 0.22148 0.0
C2462 C 0.6464 0.27254 0.22672 0.0
C2463 C 0.64782 0.26009 0.23903 0.0
C2464 C 0.66436 0.25764 0.24485 0.0
C2465 C 0.62869 0.27214 0.21803 0.0
C2466 C 0.6164 0.27606 0.22955 0.0
C2467 C 0.62341 0.26623 0.19868 0.0
C2468 C 0.63526 0.26006 0.18596 0.0
C2469 C 0.64233 0.24468 0.1885 0.0
C2470 C 0.65274 0.23832 0.17594 0.0
C2471 C 0.65602 0.2471 0.16067 0.0
C2472 C 0.6489 0.26227 0.15794 0.0
C2473 C 0.63852 0.26871 0.17049 0.0
H2474 H 0.664 0.24209 0.15091 0.0
H2475 H 0.54962 0.28283 0.266 0.0
H2476 H 0.54991 0.85614 0.91473 0.0
H2477 H 0.54632 0.88653 0.92889 0.0
H2478 H 0.59937 0.91513 0.91996 0.0
H2479 H 0.6034 0.88404 0.906 0.0
H2480 H 0.59113 0.92526 0.95551 0.0
H2481 H 0.5633 0.91912 0.89224 0.0
H2482 H 0.54317 0.90027 0.86409 0.0
H2483 H 0.49872 0.89268 0.89451 0.0
H2484 H 0.51859 0.91133 0.92287 0.0
H2485 H 0.57472 0.01048 0.99293 0.0
H2486 H 0.58189 0.98702 0.9699 0.0
H2487 H 0.52814 0.9504 0.96455 0.0
H2488 H 0.52059 0.97474 0.98652 0.0
H2489 H 0.53921 0.9471 0.93277 0.0
H2490 H 0.56248 0.94461 0.99422 0.0
H2491 H 0.57907 0.95822 0.02555 0.0
H2492 H 0.62763 0.97564 0.0026 0.0
H2493 H 0.61125 0.96235 0.9711 0.0
C2494 C 0.56083 0.86886 0.91557 0.0
C2495 C 0.57687 0.86789 0.90903 0.0
C2496 C 0.55869 0.88621 0.9236 0.0
C2497 C 0.57235 0.90299 0.92483 0.0
C2498 C 0.58861 0.90219 0.91873 0.0
C2499 C 0.5909 0.88458 0.91085 0.0
C2500 C 0.56957 0.9211 0.93345 0.0
C2501 C 0.58017 0.93049 0.95029 0.0
C2502 C 0.55459 0.92701 0.92698 0.0
C2503 C 0.54245 0.91671 0.90967 0.0
C2504 C 0.54922 0.91348 0.89291 0.0
C2505 C 0.53786 0.9028 0.87692 0.0
C2506 C 0.51968 0.8953 0.87751 0.0
C2507 C 0.5128 0.89855 0.89406 0.0
C2508 C 0.52409 0.90925 0.91007 0.0
C2509 C 0.56448 0.99744 0.98669 0.0
C2510 C 0.54731 0.9939 0.99161 0.0
C2511 C 0.56853 0.98415 0.97357 0.0
C2512 C 0.55567 0.96683 0.96598 0.0
C2513 C 0.53824 0.96369 0.97035 0.0
C2514 C 0.534 0.97737 0.98298 0.0
C2515 C 0.56086 0.95137 0.95481 0.0
C2516 C 0.55058 0.94234 0.93767 0.0
C2517 C 0.57564 0.94517 0.96137 0.0
C2518 C 0.58563 0.95265 0.98031 0.0
C2519 C 0.57669 0.9514 0.99586 0.0
C2520 C 0.58605 0.95906 0.01364 0.0
C2521 C 0.60439 0.96783 0.01606 0.0
C2522 C 0.61342 0.96887 0.0007 0.0
C2523 C 0.60412 0.96125 0.98288 0.0
H2524 H 0.61161 0.97379 0.02983 0.0
H2525 H 0.51093 0.88696 0.86514 0.0
H2526 H 0.96565 0.76912 0.69932 0.0
H2527 H 0.94125 0.77601 0.71507 0.0
H2528 H 0.90297 0.73302 0.67378 0.0
H2529 H 0.92743 0.72621 0.65806 0.0
H2530 H 0.89494 0.76707 0.68026 0.0
H2531 H 0.91074 0.72223 0.71361 0.0
H2532 H 0.93072 0.70778 0.73097 0.0
H2533 H 0.94564 0.75758 0.77409 0.0
H2534 H 0.92594 0.77248 0.75685 0.0
H2535 H 0.82055 0.7495 0.72639 0.0
H2536 H 0.84678 0.74716 0.7122 0.0
H2537 H 0.87846 0.79819 0.7498 0.0
H2538 H 0.85183 0.80088 0.76406 0.0
H2539 H 0.89074 0.76217 0.746 0.0
H2540 H 0.87037 0.80461 0.70975 0.0
H2541 H 0.84873 0.81501 0.69 0.0
H2542 H 0.83906 0.76311 0.65019 0.0
H2543 H 0.86041 0.75225 0.66981 0.0
C2544 C 0.95196 0.76144 0.69363 0.0
C2545 C 0.94795 0.74747 0.6776 0.0
C2546 C 0.9382 0.76515 0.70263 0.0
C2547 C 0.92058 0.75481 0.69553 0.0
C2548 C 0.91662 0.74098 0.67931 0.0
C2549 C 0.9304 0.73722 0.67038 0.0
C2550 C 0.90618 0.75909 0.70466 0.0
C2551 C 0.89386 0.76588 0.69458 0.0
C2552 C 0.9052 0.75754 0.72332 0.0
C2553 C 0.91703 0.7486 0.73381 0.0
C2554 C 0.91842 0.7302 0.7267 0.0
C2555 C 0.92966 0.7219 0.73654 0.0
C2556 C 0.9395 0.73179 0.75359 0.0
C2557 C 0.93805 0.74996 0.76087 0.0
C2558 C 0.92683 0.75833 0.75107 0.0
C2559 C 0.83316 0.7601 0.73178 0.0
C2560 C 0.83451 0.77518 0.74642 0.0
C2561 C 0.84796 0.75888 0.72354 0.0
C2562 C 0.8642 0.77264 0.72998 0.0
C2563 C 0.86577 0.78765 0.74475 0.0
C2564 C 0.85076 0.7891 0.75284 0.0
C2565 C 0.87963 0.77039 0.72163 0.0
C2566 C 0.89206 0.76372 0.73179 0.0
C2567 C 0.88031 0.77135 0.7028 0.0
C2568 C 0.86694 0.77758 0.69133 0.0
C2569 C 0.86347 0.7953 0.6969 0.0
C2570 C 0.85129 0.80131 0.68569 0.0
C2571 C 0.84256 0.78975 0.66883 0.0
C2572 C 0.84586 0.77207 0.66323 0.0
C2573 C 0.858 0.76599 0.67438 0.0
H2574 H 0.8333 0.79451 0.66007 0.0
H2575 H 0.94821 0.72535 0.76119 0.0
H2576 H 0.1316 0.98838 0.82687 0.0
H2577 H 0.11896 0.98914 0.85633 0.0
H2578 H 0.09355 0.03167 0.84235 0.0
H2579 H 0.10586 0.03104 0.81361 0.0
H2580 H 0.10427 0.04287 0.87602 0.0
H2581 H 0.07049 0.98207 0.84354 0.0
H2582 H 0.06358 0.94904 0.82614 0.0
H2583 H 0.08964 0.93227 0.87219 0.0
H2584 H 0.09692 0.9653 0.88981 0.0
H2585 H 0.04148 0.03677 0.94267 0.0
H2586 H 0.05573 0.03421 0.91461 0.0
H2587 H 0.08926 0.00376 0.93936 0.0
H2588 H 0.07531 0.00695 0.96787 0.0
H2589 H 0.07505 0.98598 0.90115 0.0
H2590 H 0.10648 0.04987 0.93352 0.0
H2591 H 0.10938 0.08296 0.94894 0.0
H2592 H 0.08246 0.09355 0.89974 0.0
H2593 H 0.07916 0.06042 0.88411 0.0
C2594 C 0.12331 0.99789 0.82998 0.0
C2595 C 0.12012 0.00967 0.8172 0.0
C2596 C 0.11587 0.99829 0.84705 0.0
C2597 C 0.10498 0.01056 0.8523 0.0
C2598 C 0.10185 0.02212 0.83944 0.0
C2599 C 0.10905 0.02163 0.82256 0.0
C2600 C 0.09711 0.01204 0.87093 0.0
C2601 C 0.0978 0.03023 0.88122 0.0
C2602 C 0.0884 0.99597 0.87855 0.0
C2603 C 0.08452 0.97624 0.86788 0.0
C2604 C 0.07496 0.9714 0.84988 0.0
C2605 C 0.07092 0.95266 0.83999 0.0
C2606 C 0.07625 0.93859 0.84802 0.0
C2607 C 0.08559 0.94321 0.86597 0.0
C2608 C 0.08968 0.96194 0.87591 0.0
C2609 C 0.05221 0.02992 0.94244 0.0
C2610 C 0.05741 0.02265 0.95819 0.0
C2611 C 0.06038 0.02831 0.9261 0.0
C2612 C 0.07391 0.01877 0.92424 0.0
C2613 C 0.07902 0.01127 0.93992 0.0
C2614 C 0.07112 0.01333 0.95654 0.0
C2615 C 0.0825 0.01676 0.90617 0.0
C2616 C 0.08175 0.99853 0.89595 0.0
C2617 C 0.09067 0.03277 0.89826 0.0
C2618 C 0.09242 0.0526 0.90771 0.0
C2619 C 0.10101 0.05919 0.92605 0.0
C2620 C 0.10276 0.07797 0.93481 0.0
C2621 C 0.09607 0.09034 0.92534 0.0
C2622 C 0.08761 0.08395 0.90707 0.0
C2623 C 0.08581 0.06517 0.89825 0.0
H2624 H 0.09747 0.10488 0.93214 0.0
H2625 H 0.07308 0.92408 0.84036 0.0
H2626 H 0.79715 0.41009 0.55793 0.0
H2627 H 0.80937 0.40883 0.58921 0.0
H2628 H 0.80028 0.3477 0.57351 0.0
H2629 H 0.78829 0.34882 0.54204 0.0
H2630 H 0.78795 0.35943 0.60518 0.0
H2631 H 0.83884 0.37709 0.57375 0.0
H2632 H 0.86207 0.39662 0.55925 0.0
H2633 H 0.87877 0.43841 0.60946 0.0
H2634 H 0.85516 0.41948 0.6241 0.0
H2635 H 0.8347 0.3147 0.65734 0.0
H2636 H 0.832 0.33104 0.63146 0.0
H2637 H 0.83828 0.38397 0.66921 0.0
H2638 H 0.84126 0.36772 0.69544 0.0
H2639 H 0.85203 0.38498 0.63138 0.0
H2640 H 0.79686 0.35924 0.65979 0.0
H2641 H 0.7729 0.33461 0.66828 0.0
H2642 H 0.76694 0.2992 0.61491 0.0
H2643 H 0.79117 0.32351 0.60624 0.0
C2644 C 0.79723 0.39625 0.56127 0.0
C2645 C 0.79159 0.37939 0.54766 0.0
C2646 C 0.80457 0.39572 0.57902 0.0
C2647 C 0.80604 0.37831 0.58332 0.0
C2648 C 0.79942 0.36132 0.57014 0.0
C2649 C 0.79233 0.36187 0.55235 0.0
C2650 C 0.81344 0.37706 0.60183 0.0
C2651 C 0.80198 0.3651 0.61095 0.0
C2652 C 0.83169 0.38489 0.60932 0.0
C2653 C 0.84483 0.39706 0.5999 0.0
C2654 C 0.84705 0.39071 0.58156 0.0
C2655 C 0.8604 0.40162 0.57334 0.0
C2656 C 0.87182 0.4188 0.58338 0.0
C2657 C 0.86983 0.42517 0.60164 0.0
C2658 C 0.8564 0.4144 0.60987 0.0
C2659 C 0.83662 0.33005 0.66024 0.0
C2660 C 0.83768 0.33988 0.67835 0.0
C2661 C 0.83484 0.33929 0.64541 0.0
C2662 C 0.83436 0.35841 0.64864 0.0
C2663 C 0.83837 0.36907 0.66664 0.0
C2664 C 0.84016 0.35982 0.68154 0.0
C2665 C 0.82673 0.36605 0.63362 0.0
C2666 C 0.83799 0.37966 0.62567 0.0
C2667 C 0.80851 0.35865 0.62614 0.0
C2668 C 0.79597 0.34306 0.63252 0.0
C2669 C 0.79073 0.34601 0.65006 0.0
C2670 C 0.77696 0.33214 0.65483 0.0
C2671 C 0.7683 0.31533 0.64217 0.0
C2672 C 0.77363 0.31218 0.62476 0.0
C2673 C 0.78743 0.32595 0.61995 0.0
H2674 H 0.75746 0.30478 0.64584 0.0
H2675 H 0.88228 0.42711 0.57706 0.0
H2676 H 0.4233 0.02619 0.33848 0.0
H2677 H 0.43977 0.03015 0.36968 0.0
H2678 H 0.48413 0.0168 0.34526 0.0
H2679 H 0.4674 0.01179 0.31453 0.0
H2680 H 0.47439 0.99624 0.37045 0.0
H2681 H 0.48628 0.06343 0.36456 0.0
H2682 H 0.47717 0.09225 0.35943 0.0
H2683 H 0.44793 0.08898 0.40553 0.0
H2684 H 0.45684 0.0601 0.41089 0.0
H2685 H 0.54778 0.03592 0.44546 0.0
H2686 H 0.52888 0.03408 0.41627 0.0
H2687 H 0.48196 0.02111 0.4432 0.0
H2688 H 0.50055 0.02061 0.47151 0.0
H2689 H 0.49118 0.0553 0.41849 0.0
H2690 H 0.47765 0.98791 0.42318 0.0
H2691 H 0.48193 0.95621 0.42543 0.0
H2692 H 0.51176 0.95852 0.37976 0.0
H2693 H 0.50802 0.99054 0.37753 0.0
C2694 C 0.43646 0.02388 0.34006 0.0
C2695 C 0.4442 0.01836 0.32463 0.0
C2696 C 0.44587 0.0264 0.35764 0.0
C2697 C 0.4631 0.02393 0.35949 0.0
C2698 C 0.47078 0.01866 0.34392 0.0
C2699 C 0.46125 0.01565 0.32653 0.0
C2700 C 0.47292 0.02534 0.37757 0.0
C2701 C 0.47828 0.00925 0.38088 0.0
C2702 C 0.47732 0.04213 0.39116 0.0
C2703 C 0.47211 0.05956 0.38804 0.0
C2704 C 0.47784 0.06882 0.37354 0.0
C2705 C 0.47274 0.08518 0.37061 0.0
C2706 C 0.46195 0.09242 0.38212 0.0
C2707 C 0.45629 0.08336 0.39663 0.0
C2708 C 0.4614 0.06703 0.39965 0.0
C2709 C 0.53344 0.03272 0.44504 0.0
C2710 C 0.52544 0.02903 0.46071 0.0
C2711 C 0.52278 0.03172 0.42855 0.0
C2712 C 0.50427 0.02771 0.42803 0.0
C2713 C 0.49632 0.02436 0.44369 0.0
C2714 C 0.50688 0.02439 0.45982 0.0
C2715 C 0.49306 0.02641 0.41091 0.0
C2716 C 0.48737 0.04243 0.40792 0.0
C2717 C 0.48835 0.00957 0.39747 0.0
C2718 C 0.49289 0.99179 0.40048 0.0
C2719 C 0.48564 0.98198 0.41403 0.0
C2720 C 0.48782 0.96388 0.41519 0.0
C2721 C 0.49705 0.95538 0.40271 0.0
C2722 C 0.50462 0.96517 0.38941 0.0
C2723 C 0.50254 0.98332 0.38825 0.0
H2724 H 0.49803 0.94107 0.40317 0.0
H2725 H 0.45799 0.10506 0.37982 0.0
H2726 H 0.79161 0.69656 0.05679 0.0
H2727 H 0.79425 0.70632 0.09039 0.0
H2728 H 0.7931 0.76326 0.08357 0.0
H2729 H 0.78978 0.75341 0.04985 0.0
H2730 H 0.81936 0.75862 0.11553 0.0
H2731 H 0.75706 0.73871 0.08643 0.0
H2732 H 0.7298 0.71656 0.06771 0.0
H2733 H 0.7323 0.67467 0.10182 0.0
H2734 H 0.7598 0.69644 0.12051 0.0
H2735 H 0.79245 0.79583 0.19916 0.0
H2736 H 0.79592 0.78662 0.16664 0.0
H2737 H 0.77964 0.72699 0.17136 0.0
H2738 H 0.77593 0.73628 0.20372 0.0
H2739 H 0.76376 0.73199 0.14064 0.0
H2740 H 0.82313 0.74958 0.171 0.0
H2741 H 0.85116 0.7688 0.19053 0.0
H2742 H 0.85606 0.81133 0.15603 0.0
H2743 H 0.82784 0.79252 0.13645 0.0
C2744 C 0.79241 0.7113 0.06248 0.0
C2745 C 0.79046 0.72425 0.05076 0.0
C2746 C 0.79383 0.7168 0.08163 0.0
C2747 C 0.79375 0.73544 0.08934 0.0
C2748 C 0.79318 0.74881 0.0778 0.0
C2749 C 0.79128 0.74318 0.0586 0.0
C2750 C 0.79246 0.74042 0.10919 0.0
C2751 C 0.80718 0.75303 0.12108 0.0
C2752 C 0.77676 0.73245 0.11641 0.0
C2753 C 0.76069 0.71907 0.10464 0.0
C2754 C 0.752 0.72464 0.08972 0.0
C2755 C 0.73645 0.71218 0.07917 0.0
C2756 C 0.72937 0.69418 0.08351 0.0
C2757 C 0.73784 0.68858 0.09841 0.0
C2758 C 0.75342 0.70096 0.10896 0.0
C2759 C 0.78917 0.78078 0.19298 0.0
C2760 C 0.78342 0.76667 0.20352 0.0
C2761 C 0.79148 0.77554 0.1746 0.0
C2762 C 0.78829 0.75613 0.16667 0.0
C2763 C 0.78217 0.74205 0.1772 0.0
C2764 C 0.77985 0.7473 0.19555 0.0
C2765 C 0.79061 0.75041 0.14717 0.0
C2766 C 0.77604 0.73762 0.13526 0.0
C2767 C 0.80662 0.75787 0.14013 0.0
C2768 C 0.82319 0.76972 0.15236 0.0
C2769 C 0.83001 0.76317 0.16772 0.0
C2770 C 0.84599 0.77397 0.17877 0.0
C2771 C 0.85538 0.7913 0.17456 0.0
C2772 C 0.84876 0.79792 0.15931 0.0
C2773 C 0.83276 0.78719 0.14823 0.0
H2774 H 0.8678 0.79958 0.18307 0.0
H2775 H 0.71728 0.6846 0.07538 0.0
H2776 H 0.09262 0.98308 0.70862 0.0
H2777 H 0.08109 0.98586 0.67717 0.0
H2778 H 0.13132 0.02526 0.674 0.0
H2779 H 0.14309 0.02176 0.70502 0.0
H2780 H 0.10054 0.03926 0.66536 0.0
H2781 H 0.12059 0.98397 0.65032 0.0
H2782 H 0.12413 0.95138 0.64551 0.0
H2783 H 0.07148 0.92984 0.61481 0.0
H2784 H 0.0666 0.96176 0.62141 0.0
H2785 H 0.08088 0.05458 0.57211 0.0
H2786 H 0.09367 0.04948 0.60193 0.0
H2787 H 0.05325 0.9957 0.59529 0.0
H2788 H 0.04149 1.00016 0.56486 0.0
H2789 H 0.08011 0.98929 0.6089 0.0
H2790 H 0.05823 0.04408 0.62926 0.0
H2791 H 0.05611 0.07708 0.62948 0.0
H2792 H 0.11282 0.09878 0.64565 0.0
H2793 H 0.11528 0.06591 0.64539 0.0
C2794 C 0.1015 0.9917 0.70094 0.0
C2795 C 0.11915 0.00156 0.70936 0.0
C2796 C 0.09478 0.99347 0.68289 0.0
C2797 C 0.10519 0.0058 0.67279 0.0
C2798 C 0.12286 0.01554 0.68114 0.0
C2799 C 0.12974 0.01331 0.69893 0.0
C2800 C 0.09748 0.00959 0.65428 0.0
C2801 C 0.09607 0.02819 0.65307 0.0
C2802 C 0.09126 0.99531 0.63792 0.0
C2803 C 0.0931 0.97548 0.63679 0.0
C2804 C 0.10935 0.97222 0.64343 0.0
C2805 C 0.11157 0.95374 0.6404 0.0
C2806 C 0.09787 0.93844 0.63023 0.0
C2807 C 0.08183 0.94154 0.62327 0.0
C2808 C 0.07925 0.9598 0.62688 0.0
C2809 C 0.07463 0.04172 0.57707 0.0
C2810 C 0.06005 0.02784 0.56587 0.0
C2811 C 0.0819 0.03883 0.59441 0.0
C2812 C 0.07444 0.02228 0.60166 0.0
C2813 C 0.05961 0.00861 0.59048 0.0
C2814 C 0.05273 0.01122 0.57292 0.0
C2815 C 0.08232 0.01856 0.62021 0.0
C2816 C 0.08398 1.00009 0.6214 0.0
C2817 C 0.08851 0.03278 0.63659 0.0
C2818 C 0.08694 0.05254 0.63719 0.0
C2819 C 0.07024 0.0559 0.63284 0.0
C2820 C 0.06898 0.07457 0.63296 0.0
C2821 C 0.08432 0.09001 0.63754 0.0
C2822 C 0.10094 0.08681 0.6421 0.0
C2823 C 0.10227 0.06817 0.64201 0.0
H2824 H 0.08333 0.10445 0.63757 0.0
H2825 H 0.09977 0.92424 0.62749 0.0
H2826 H 0.78583 0.35952 0.45607 0.0
H2827 H 0.78725 0.34328 0.42506 0.0
H2828 H 0.83023 0.39111 0.41909 0.0
H2829 H 0.8293 0.4072 0.45067 0.0
H2830 H 0.79694 0.37423 0.38873 0.0
H2831 H 0.84431 0.35878 0.4249 0.0
H2832 H 0.85753 0.34784 0.45149 0.0
H2833 H 0.818 0.29348 0.43669 0.0
H2834 H 0.80433 0.30423 0.41021 0.0
H2835 H 0.80541 0.32288 0.30444 0.0
H2836 H 0.8132 0.34278 0.33496 0.0
H2837 H 0.78801 0.2943 0.35865 0.0
H2838 H 0.78165 0.27371 0.32799 0.0
H2839 H 0.81643 0.31458 0.3803 0.0
H2840 H 0.76717 0.32863 0.34683 0.0
H2841 H 0.75074 0.33832 0.32145 0.0
H2842 H 0.78879 0.39367 0.33244 0.0
H2843 H 0.80581 0.38411 0.3575 0.0
C2844 C 0.79543 0.36657 0.44802 0.0
C2845 C 0.80738 0.38445 0.45536 0.0
C2846 C 0.79632 0.35731 0.43051 0.0
C2847 C 0.80895 0.36606 0.42016 0.0
C2848 C 0.82056 0.38426 0.42718 0.0
C2849 C 0.81999 0.39335 0.445 0.0
C2850 C 0.80957 0.35588 0.40185 0.0
C2851 C 0.8016 0.36144 0.38665 0.0
C2852 C 0.81501 0.33888 0.3997 0.0
C2853 C 0.82322 0.33238 0.41564 0.0
C2854 C 0.83832 0.34457 0.42742 0.0
C2855 C 0.84592 0.33839 0.44246 0.0
C2856 C 0.83859 0.31999 0.44579 0.0
C2857 C 0.82366 0.30773 0.43409 0.0
C2858 C 0.81599 0.31386 0.41906 0.0
C2859 C 0.80205 0.31629 0.31621 0.0
C2860 C 0.79317 0.29676 0.31402 0.0
C2861 C 0.80624 0.32776 0.33358 0.0
C2862 C 0.80077 0.32009 0.3489 0.0
C2863 C 0.79226 0.30044 0.34688 0.0
C2864 C 0.78861 0.28874 0.32946 0.0
C2865 C 0.80355 0.33272 0.36694 0.0
C2866 C 0.81207 0.32756 0.38215 0.0
C2867 C 0.79813 0.34986 0.36915 0.0
C2868 C 0.78794 0.35553 0.3539 0.0
C2869 C 0.77217 0.34279 0.34371 0.0
C2870 C 0.76273 0.34827 0.32938 0.0
C2871 C 0.76873 0.36658 0.32531 0.0
C2872 C 0.78419 0.37946 0.33557 0.0
C2873 C 0.79377 0.37399 0.3498 0.0
H2874 H 0.76143 0.37082 0.31422 0.0
H2875 H 0.84451 0.31522 0.45743 0.0
H2876 H 0.47753 0.01269 0.24082 0.0
H2877 H 0.47773 1.00079 0.20829 0.0
H2878 H 0.44204 0.03364 0.19256 0.0
H2879 H 0.4416 0.04569 0.22511 0.0
H2880 H 0.43436 0.99215 0.17166 0.0
H2881 H 0.47875 0.05359 0.18894 0.0
H2882 H 0.50175 0.07566 0.21323 0.0
H2883 H 0.53336 0.03557 0.20999 0.0
H2884 H 0.51031 0.01307 0.18592 0.0
H2885 H 0.45995 0.00307 0.08269 0.0
H2886 H 0.44797 1.0008 0.11164 0.0
H2887 H 0.49169 0.98007 0.13211 0.0
H2888 H 0.50423 0.98332 0.10367 0.0
H2889 H 0.49305 0.01531 0.15061 0.0
H2890 H 0.44843 0.95402 0.13249 0.0
H2891 H 0.42514 0.9322 0.10832 0.0
H2892 H 0.39391 0.97263 0.11228 0.0
H2893 H 0.41712 0.99478 0.13645 0.0
C2894 C 0.47001 0.01774 0.2305 0.0
C2895 C 0.4596 0.03019 0.23554 0.0
C2896 C 0.46978 0.01054 0.21199 0.0
C2897 C 0.45947 0.016 0.1983 0.0
C2898 C 0.44964 0.02896 0.20312 0.0
C2899 C 0.44984 0.03619 0.22166 0.0
C2900 C 0.46133 0.01037 0.17897 0.0
C2901 C 0.44707 0.99725 0.16688 0.0
C2902 C 0.47793 0.0172 0.17305 0.0
C2903 C 0.49286 0.03168 0.18558 0.0
C2904 C 0.4907 0.04957 0.19328 0.0
C2905 C 0.50368 0.0621 0.20709 0.0
C2906 C 0.51902 0.05702 0.21314 0.0
C2907 C 0.52148 0.03949 0.20524 0.0
C2908 C 0.50849 0.02686 0.19148 0.0
C2909 C 0.46649 0.99712 0.09302 0.0
C2910 C 0.48337 0.99421 0.09138 0.0
C2911 C 0.45963 0.99579 0.10955 0.0
C2912 C 0.4693 0.99079 0.12411 0.0
C2913 C 0.48428 0.98427 0.12104 0.0
C2914 C 0.4913 0.98591 0.10465 0.0
C2915 C 0.46626 0.99641 0.14319 0.0
C2916 C 0.48031 0.00996 0.15526 0.0
C2917 C 0.44943 0.99012 0.14891 0.0
C2918 C 0.43446 0.97599 0.13627 0.0
C2919 C 0.43649 0.95814 0.12835 0.0
C2920 C 0.42336 0.94577 0.11461 0.0
C2921 C 0.4081 0.95105 0.10875 0.0
C2922 C 0.40574 0.96856 0.11688 0.0
C2923 C 0.41884 0.981 0.13067 0.0
H2924 H 0.39818 0.94157 0.09784 0.0
H2925 H 0.52898 0.06666 0.22396 0.0
H2926 H 0.7649 0.73259 0.94881 0.0
H2927 H 0.7689 0.74223 0.91928 0.0
H2928 H 0.80868 0.71149 0.91262 0.0
H2929 H 0.80472 0.70152 0.94273 0.0
H2930 H 0.8174 0.74901 0.90184 0.0
H2931 H 0.76859 0.6915 0.88942 0.0
H2932 H 0.74004 0.67073 0.89452 0.0
H2933 H 0.71355 0.71328 0.88356 0.0
H2934 H 0.74201 0.73443 0.87867 0.0
H2935 H 0.81197 0.75804 0.80524 0.0
H2936 H 0.81257 0.74447 0.83377 0.0
H2937 H 0.76893 0.76687 0.84854 0.0
H2938 H 0.76868 0.78072 0.82041 0.0
H2939 H 0.76375 0.73052 0.85411 0.0
H2940 H 0.8102 0.78876 0.86889 0.0
H2941 H 0.83802 0.81286 0.86706 0.0
H2942 H 0.86817 0.77287 0.87606 0.0
H2943 H 0.84047 0.74837 0.87759 0.0
C2944 C 0.77461 0.72781 0.94126 0.0
C2945 C 0.78437 0.71603 0.94825 0.0
C2946 C 0.77684 0.73339 0.92423 0.0
C2947 C 0.78887 0.72739 0.9135 0.0
C2948 C 0.7992 0.71621 0.9206 0.0
C2949 C 0.7969 0.71046 0.93778 0.0
C2950 C 0.78994 0.73252 0.89472 0.0
C2951 C 0.80582 0.74456 0.89118 0.0
C2952 C 0.77464 0.72739 0.88106 0.0
C2953 C 0.75746 0.71459 0.88378 0.0
C2954 C 0.7567 0.69648 0.88821 0.0
C2955 C 0.74053 0.68463 0.89105 0.0
C2956 C 0.725 0.69069 0.88939 0.0
C2957 C 0.7256 0.7086 0.88484 0.0
C2958 C 0.74174 0.72051 0.88201 0.0
C2959 C 0.80231 0.75968 0.81445 0.0
C2960 C 0.79003 0.77007 0.8105 0.0
C2961 C 0.8028 0.75215 0.83085 0.0
C2962 C 0.79086 0.75471 0.84345 0.0
C2963 C 0.77828 0.76465 0.83912 0.0
C2964 C 0.77805 0.77247 0.82298 0.0
C2965 C 0.79123 0.74704 0.86111 0.0
C2966 C 0.77551 0.73463 0.86451 0.0
C2967 C 0.8066 0.75216 0.87474 0.0
C2968 C 0.82319 0.76658 0.87299 0.0
C2969 C 0.82271 0.78497 0.87014 0.0
C2970 C 0.83848 0.79874 0.86925 0.0
C2971 C 0.85484 0.79437 0.87135 0.0
C2972 C 0.85547 0.77621 0.87434 0.0
C2973 C 0.83974 0.76237 0.8752 0.0
H2974 H 0.86704 0.80508 0.87074 0.0
H2975 H 0.71249 0.6815 0.8916 0.0
H2976 H 0.83391 0.13837 0.00579 0.0
H2977 H 0.85885 0.12659 0.99655 0.0
H2978 H 0.82793 0.06851 0.99513 0.0
H2979 H 0.80259 0.08031 0.00397 0.0
H2980 H 0.86299 0.08376 0.01959 0.0
H2981 H 0.83528 0.07667 0.95672 0.0
H2982 H 0.82026 0.08969 0.93287 0.0
H2983 H 0.86761 0.13585 0.93675 0.0
H2984 H 0.88286 0.12322 0.96085 0.0
H2985 H 0.91603 0.02944 0.98399 0.0
H2986 H 0.89141 0.04401 0.9854 0.0
H2987 H 0.92771 0.09971 0.98804 0.0
H2988 H 0.9528 0.08507 0.98675 0.0
H2989 H 0.89098 0.08832 0.96243 0.0
H2990 H 0.91889 0.09618 0.02469 0.0
H2991 H 0.93252 0.08787 0.0527 0.0
H2992 H 0.88425 0.04431 0.05311 0.0
H2993 H 0.87045 0.0521 0.02487 0.0
C2994 C 0.83246 0.12308 0.00331 0.0
C2995 C 0.81672 0.1101 0.00577 0.0
C2996 C 0.84654 0.11642 0.99792 0.0
C2997 C 0.845 0.0968 0.9952 0.0
C2998 C 0.82909 0.08372 0.99713 0.0
C2999 C 0.81479 0.09038 0.00216 0.0
C3000 C 0.86078 0.09033 0.99225 0.0
C3001 C 0.86899 0.08435 0.00699 0.0
C3002 C 0.86878 0.09226 0.97614 0.0
C3003 C 0.86023 0.09898 0.96057 0.0
C3004 C 0.84252 0.08955 0.95244 0.0
C3005 C 0.83395 0.09689 0.93892 0.0
C3006 C 0.84298 0.11359 0.9333 0.0
C3007 C 0.86066 0.12289 0.94109 0.0
C3008 C 0.86929 0.11561 0.95464 0.0
C3009 C 0.91876 0.04474 0.98452 0.0
C3010 C 0.93622 0.05616 0.98517 0.0
C3011 C 0.90472 0.05302 0.98536 0.0
C3012 C 0.90788 0.07283 0.9868 0.0
C3013 C 0.92518 0.08435 0.98685 0.0
C3014 C 0.93939 0.07604 0.98623 0.0
C3015 C 0.89303 0.08117 0.98969 0.0
C3016 C 0.88499 0.08763 0.975 0.0
C3017 C 0.88518 0.07994 0.00603 0.0
C3018 C 0.89375 0.07452 0.02246 0.0
C3019 C 0.9113 0.08458 0.03053 0.0
C3020 C 0.91903 0.08003 0.04651 0.0
C3021 C 0.90929 0.06552 0.05463 0.0
C3022 C 0.89181 0.0555 0.04677 0.0
C3023 C 0.88403 0.05997 0.03076 0.0
H3024 H 0.91527 0.06208 0.06706 0.0
H3025 H 0.83629 0.11932 0.92291 0.0
H3026 H 0.36206 0.38922 0.01528 0.0
H3027 H 0.38985 0.41065 0.01111 0.0
H3028 H 0.37053 0.45931 0.02954 0.0
H3029 H 0.34189 0.4375 0.03339 0.0
H3030 H 0.38963 0.46434 0.0002 0.0
H3031 H 0.39989 0.44537 0.05887 0.0
H3032 H 0.39809 0.42132 0.07903 0.0
H3033 H 0.43076 0.39442 0.04685 0.0
H3034 H 0.43256 0.41818 0.02634 0.0
H3035 H 0.47364 0.53332 0.02095 0.0
H3036 H 0.44439 0.51148 0.0206 0.0
H3037 H 0.46566 0.46325 0.00662 0.0
H3038 H 0.49531 0.48536 0.0071 0.0
H3039 H 0.44541 0.45711 0.03282 0.0
H3040 H 0.43602 0.47572 0.97455 0.0
H3041 H 0.43379 0.49539 0.95064 0.0
H3042 H 0.39824 0.52078 0.97968 0.0
H3043 H 0.40044 0.5015 0.00389 0.0
C3044 C 0.36357 0.40448 0.01859 0.0
C3045 C 0.34973 0.41158 0.02514 0.0
C3046 C 0.37962 0.41677 0.01616 0.0
C3047 C 0.38264 0.43667 0.0205 0.0
C3048 C 0.36864 0.44398 0.02631 0.0
C3049 C 0.35228 0.43153 0.02857 0.0
C3050 C 0.40061 0.44949 0.01922 0.0
C3051 C 0.40182 0.46307 0.00764 0.0
C3052 C 0.41664 0.44727 0.02824 0.0
C3053 C 0.4163 0.43351 0.04104 0.0
C3054 C 0.40668 0.43432 0.05609 0.0
C3055 C 0.40564 0.42072 0.06756 0.0
C3056 C 0.41429 0.40634 0.06421 0.0
C3057 C 0.42408 0.40558 0.04943 0.0
C3058 C 0.42515 0.41913 0.0379 0.0
C3059 C 0.47214 0.51806 0.01767 0.0
C3060 C 0.48688 0.51113 0.01403 0.0
C3061 C 0.45527 0.50552 0.01733 0.0
C3062 C 0.45254 0.48558 0.01332 0.0
C3063 C 0.46728 0.47854 0.00965 0.0
C3064 C 0.48424 0.49118 0.00988 0.0
C3065 C 0.43454 0.47239 0.014 0.0
C3066 C 0.43329 0.45859 0.02544 0.0
C3067 C 0.41847 0.47436 0.00474 0.0
C3068 C 0.41847 0.48722 0.9911 0.0
C3069 C 0.42797 0.48573 0.97601 0.0
C3070 C 0.42664 0.49675 0.96235 0.0
C3071 C 0.41579 0.50922 0.9636 0.0
C3072 C 0.40658 0.51105 0.9787 0.0
C3073 C 0.40787 0.5001 0.9924 0.0
H3074 H 0.41436 0.51734 0.9528 0.0
H3075 H 0.41342 0.39579 0.07307 0.0
H3076 H 0.3673 0.59745 0.77277 0.0
H3077 H 0.35486 0.62478 0.77303 0.0
H3078 H 0.40243 0.65688 0.75577 0.0
H3079 H 0.41497 0.62899 0.75512 0.0
H3080 H 0.38958 0.68105 0.78404 0.0
H3081 H 0.36343 0.64028 0.72517 0.0
H3082 H 0.34757 0.60947 0.70486 0.0
H3083 H 0.3026 0.60568 0.73436 0.0
H3084 H 0.31829 0.6364 0.75497 0.0
H3085 H 0.3494 0.75793 0.7686 0.0
H3086 H 0.36508 0.73285 0.76786 0.0
H3087 H 0.31508 0.69054 0.76555 0.0
H3088 H 0.29943 0.71543 0.76542 0.0
H3089 H 0.33076 0.67207 0.74696 0.0
H3090 H 0.35508 0.71052 0.80635 0.0
H3091 H 0.36985 0.74011 0.82895 0.0
H3092 H 0.4167 0.74741 0.80217 0.0
H3093 H 0.40214 0.7179 0.77929 0.0
C3094 C 0.37526 0.61014 0.76877 0.0
C3095 C 0.3923 0.61022 0.7636 0.0
C3096 C 0.36797 0.62611 0.76898 0.0
C3097 C 0.37731 0.64359 0.7644 0.0
C3098 C 0.39452 0.64396 0.75943 0.0
C3099 C 0.40175 0.62767 0.75885 0.0
C3100 C 0.36873 0.66074 0.76442 0.0
C3101 C 0.37686 0.67903 0.77562 0.0
C3102 C 0.35166 0.65879 0.75422 0.0
C3103 C 0.34206 0.64055 0.74166 0.0
C3104 C 0.35018 0.63283 0.72736 0.0
C3105 C 0.34123 0.61539 0.7158 0.0
C3106 C 0.3241 0.6056 0.71834 0.0
C3107 C 0.31587 0.61328 0.73241 0.0
C3108 C 0.32477 0.63072 0.74401 0.0
C3109 C 0.34163 0.74333 0.76804 0.0
C3110 C 0.32281 0.73928 0.76717 0.0
C3111 C 0.35079 0.72866 0.76777 0.0
C3112 C 0.34178 0.70901 0.767 0.0
C3113 C 0.32296 0.70509 0.76613 0.0
C3114 C 0.31381 0.71967 0.76616 0.0
C3115 C 0.3515 0.69262 0.76661 0.0
C3116 C 0.34352 0.67432 0.75538 0.0
C3117 C 0.36851 0.69452 0.77714 0.0
C3118 C 0.37744 0.71211 0.79098 0.0
C3119 C 0.3685 0.71848 0.80523 0.0
C3120 C 0.37684 0.73523 0.8181 0.0
C3121 C 0.39418 0.74566 0.81696 0.0
C3122 C 0.40326 0.73932 0.80301 0.0
C3123 C 0.39498 0.72256 0.7901 0.0
H3124 H 0.40061 0.75865 0.8269 0.0
H3125 H 0.3172 0.59209 0.70939 0.0
H3126 H 0.22917 0.58548 0.52845 0.0
H3127 H 0.19804 0.57173 0.5133 0.0
H3128 H 0.20075 0.62242 0.48954 0.0
H3129 H 0.22997 0.63694 0.50669 0.0
H3130 H 0.17874 0.61899 0.51365 0.0
H3131 H 0.1879 0.5785 0.46 0.0
H3132 H 0.20039 0.5545 0.44297 0.0
H3133 H 0.17622 0.51309 0.47462 0.0
H3134 H 0.16361 0.53686 0.49184 0.0
H3135 H 0.08327 0.58196 0.48308 0.0
H3136 H 0.11498 0.59232 0.47952 0.0
H3137 H 0.1277 0.56019 0.52084 0.0
H3138 H 0.0962 0.55052 0.52498 0.0
H3139 H 0.14048 0.55538 0.48116 0.0
H3140 H 0.13934 0.59778 0.53944 0.0
H3141 H 0.1258 0.62023 0.55731 0.0
H3142 H 0.13515 0.65731 0.51758 0.0
H3143 H 0.14851 0.63486 0.49932 0.0
C3144 C 0.22307 0.59333 0.51967 0.0
C3145 C 0.23189 0.61204 0.51838 0.0
C3146 C 0.20558 0.58541 0.51074 0.0
C3147 C 0.19739 0.59612 0.5002 0.0
C3148 C 0.20704 0.61392 0.49739 0.0
C3149 C 0.22387 0.62214 0.50706 0.0
C3150 C 0.17804 0.59174 0.49693 0.0
C3151 C 0.17038 0.6053 0.506 0.0
C3152 C 0.16731 0.57375 0.48747 0.0
C3153 C 0.17489 0.55946 0.47723 0.0
C3154 C 0.18534 0.5643 0.46338 0.0
C3155 C 0.1924 0.55073 0.45367 0.0
C3156 C 0.18912 0.53229 0.45772 0.0
C3157 C 0.17873 0.52737 0.47147 0.0
C3158 C 0.17157 0.54085 0.48116 0.0
C3159 C 0.09303 0.57751 0.49154 0.0
C3160 C 0.08792 0.56586 0.50443 0.0
C3161 C 0.11083 0.58316 0.48938 0.0
C3162 C 0.12314 0.57662 0.49976 0.0
C3163 C 0.11801 0.56505 0.51271 0.0
C3164 C 0.10032 0.55985 0.51524 0.0
C3165 C 0.1417 0.58254 0.49785 0.0
C3166 C 0.14903 0.5693 0.48804 0.0
C3167 C 0.15222 0.60076 0.50673 0.0
C3168 C 0.14471 0.61457 0.51793 0.0
C3169 C 0.13839 0.61066 0.53446 0.0
C3170 C 0.13077 0.62338 0.54466 0.0
C3171 C 0.12956 0.64016 0.53855 0.0
C3172 C 0.13606 0.64429 0.52227 0.0
C3173 C 0.14366 0.63157 0.51199 0.0
H3174 H 0.12363 0.64998 0.54645 0.0
H3175 H 0.19461 0.52181 0.45021 0.0
H3176 H 0.72006 0.01741 0.75092 0.0
H3177 H 0.73341 0.99315 0.76112 0.0
H3178 H 0.68083 0.95583 0.76045 0.0
H3179 H 0.66746 0.97967 0.74981 0.0
H3180 H 0.70828 0.96241 0.79382 0.0
H3181 H 0.69554 0.9423 0.72856 0.0
H3182 H 0.6944 0.94878 0.6968 0.0
H3183 H 0.75162 0.96814 0.70397 0.0
H3184 H 0.7531 0.96225 0.73601 0.0
H3185 H 0.74728 0.88364 0.79986 0.0
H3186 H 0.72886 0.90558 0.7969 0.0
H3187 H 0.77159 0.94342 0.77678 0.0
H3188 H 0.78937 0.92069 0.77845 0.0
H3189 H 0.74308 0.93188 0.75211 0.0
H3190 H 0.75457 0.9544 0.81934 0.0
H3191 H 0.75386 0.95188 0.85216 0.0
H3192 H 0.69693 0.92842 0.84122 0.0
H3193 H 0.69734 0.93054 0.80829 0.0
C3194 C 0.7115 0.00394 0.75284 0.0
C3195 C 0.69294 0.99995 0.7493 0.0
C3196 C 0.71901 0.9903 0.75869 0.0
C3197 C 0.7079 0.97297 0.76133 0.0
C3198 C 0.68938 0.96922 0.75833 0.0
C3199 C 0.68188 0.98264 0.75209 0.0
C3200 C 0.71583 0.95848 0.76664 0.0
C3201 C 0.71571 0.95536 0.78476 0.0
C3202 C 0.72515 0.94951 0.75444 0.0
C3203 C 0.72443 0.95192 0.73476 0.0
C3204 C 0.70789 0.94801 0.72341 0.0
C3205 C 0.70718 0.9516 0.70536 0.0
C3206 C 0.72293 0.95889 0.69838 0.0
C3207 C 0.73943 0.96249 0.70941 0.0
C3208 C 0.74021 0.95901 0.72752 0.0
C3209 C 0.75284 0.89687 0.79534 0.0
C3210 C 0.7694 0.90036 0.78892 0.0
C3211 C 0.74239 0.90946 0.79376 0.0
C3212 C 0.74883 0.92592 0.78636 0.0
C3213 C 0.76636 0.93061 0.7823 0.0
C3214 C 0.77654 0.91777 0.78339 0.0
C3215 C 0.73669 0.93662 0.78 0.0
C3216 C 0.73563 0.93869 0.76133 0.0
C3217 C 0.72607 0.94442 0.7917 0.0
C3218 C 0.72604 0.94235 0.81131 0.0
C3219 C 0.74195 0.94843 0.82388 0.0
C3220 C 0.74158 0.94714 0.84252 0.0
C3221 C 0.72537 0.93992 0.84876 0.0
C3222 C 0.70948 0.93394 0.83637 0.0
C3223 C 0.70978 0.93517 0.81772 0.0
H3224 H 0.72512 0.93902 0.86321 0.0
H3225 H 0.72236 0.96172 0.68442 0.0
H3226 H 0.72648 0.87535 0.49553 0.0
H3227 H 0.70286 0.89108 0.49196 0.0
H3228 H 0.73829 0.94405 0.52293 0.0
H3229 H 0.76196 0.92792 0.52735 0.0
H3230 H 0.70727 0.94088 0.53278 0.0
H3231 H 0.72577 0.93331 0.47249 0.0
H3232 H 0.73268 0.9154 0.4444 0.0
H3233 H 0.67883 0.87935 0.43311 0.0
H3234 H 0.67165 0.89691 0.46125 0.0
H3235 H 0.65643 1.00123 0.50426 0.0
H3236 H 0.67971 0.98434 0.50427 0.0
H3237 H 0.6394 0.93017 0.49092 0.0
H3238 H 0.61594 0.94713 0.49145 0.0
H3239 H 0.67221 0.93388 0.47112 0.0
H3240 H 0.65394 0.94062 0.53125 0.0
H3241 H 0.64634 0.95892 0.55864 0.0
H3242 H 0.69957 0.99646 0.56959 0.0
H3243 H 0.70737 0.9786 0.54198 0.0
C3244 C 0.72934 0.89037 0.50164 0.0
C3245 C 0.74624 0.90035 0.51169 0.0
C3246 C 0.71577 0.89945 0.49941 0.0
C3247 C 0.71875 0.919 0.50668 0.0
C3248 C 0.73556 0.929 0.51701 0.0
C3249 C 0.74913 0.91977 0.51956 0.0
C3250 C 0.70422 0.92874 0.50379 0.0
C3251 C 0.69988 0.93953 0.5192 0.0
C3252 C 0.69401 0.9267 0.48618 0.0
C3253 C 0.69822 0.91634 0.46907 0.0
C3254 C 0.71542 0.92152 0.46406 0.0
C3255 C 0.71939 0.91143 0.44813 0.0
C3256 C 0.70622 0.89622 0.43701 0.0
C3257 C 0.68903 0.89112 0.44175 0.0
C3258 C 0.68499 0.90116 0.45767 0.0
C3259 C 0.65253 0.98573 0.50104 0.0
C3260 C 0.63438 0.9755 0.49792 0.0
C3261 C 0.66584 0.97608 0.50106 0.0
C3262 C 0.66133 0.95598 0.49763 0.0
C3263 C 0.6432 0.94568 0.49356 0.0
C3264 C 0.62982 0.95536 0.49396 0.0
C3265 C 0.67557 0.94596 0.50004 0.0
C3266 C 0.67976 0.93518 0.4846 0.0
C3267 C 0.68565 0.94795 0.51757 0.0
C3268 C 0.68119 0.95839 0.53446 0.0
C3269 C 0.66399 0.95287 0.53942 0.0
C3270 C 0.65964 0.96315 0.55498 0.0
C3271 C 0.67245 0.97887 0.56582 0.0
C3272 C 0.68965 0.98429 0.56115 0.0
C3273 C 0.69405 0.97409 0.54555 0.0
H3274 H 0.66906 0.98682 0.57787 0.0
H3275 H 0.70932 0.88841 0.4247 0.0
H3276 H 0.3905 0.50424 0.78252 0.0
H3277 H 0.37364 0.4718 0.7854 0.0
H3278 H 0.37536 0.45164 0.72795 0.0
H3279 H 0.39215 0.48391 0.72521 0.0
H3280 H 0.34423 0.43412 0.73437 0.0
H3281 H 0.40249 0.44312 0.76684 0.0
H3282 H 0.42902 0.45824 0.79031 0.0
H3283 H 0.39702 0.44847 0.83362 0.0
H3284 H 0.37022 0.43354 0.8104 0.0
H3285 H 0.31541 0.33295 0.73315 0.0
H3286 H 0.33366 0.36537 0.73226 0.0
H3287 H 0.33055 0.38307 0.78982 0.0
H3288 H 0.3123 0.35062 0.79062 0.0
H3289 H 0.3626 0.40212 0.78433 0.0
H3290 H 0.30443 0.39419 0.75191 0.0
H3291 H 0.27768 0.38035 0.72845 0.0
H3292 H 0.30988 0.38907 0.68512 0.0
H3293 H 0.33686 0.40272 0.70833 0.0
C3294 C 0.38672 0.49308 0.77031 0.0
C3295 C 0.39215 0.49728 0.75336 0.0
C3296 C 0.37732 0.47419 0.77205 0.0
C3297 C 0.37303 0.45856 0.75696 0.0
C3298 C 0.37814 0.46297 0.73997 0.0
C3299 C 0.38766 0.48172 0.7383 0.0
C3300 C 0.3633 0.43781 0.75855 0.0
C3301 C 0.34856 0.42718 0.74521 0.0
C3302 C 0.36823 0.42824 0.77285 0.0
C3303 C 0.38428 0.43743 0.78686 0.0
C3304 C 0.40106 0.44437 0.78136 0.0
C3305 C 0.41616 0.45287 0.79462 0.0
C3306 C 0.41469 0.45437 0.81344 0.0
C3307 C 0.39813 0.44734 0.81904 0.0
C3308 C 0.38297 0.43886 0.80583 0.0
C3309 C 0.31899 0.34355 0.74579 0.0
C3310 C 0.31259 0.33861 0.76211 0.0
C3311 C 0.32932 0.36244 0.74523 0.0
C3312 C 0.33363 0.37746 0.7609 0.0
C3313 C 0.32773 0.37227 0.77737 0.0
C3314 C 0.31727 0.35343 0.77788 0.0
C3315 C 0.34359 0.3984 0.75999 0.0
C3316 C 0.35833 0.40906 0.77346 0.0
C3317 C 0.33873 0.40809 0.74581 0.0
C3318 C 0.32268 0.39922 0.73184 0.0
C3319 C 0.30583 0.39292 0.73737 0.0
C3320 C 0.29062 0.38517 0.72412 0.0
C3321 C 0.29209 0.38377 0.70531 0.0
C3322 C 0.30877 0.39011 0.6997 0.0
C3323 C 0.32402 0.39784 0.71289 0.0
H3324 H 0.28029 0.37783 0.69508 0.0
H3325 H 0.4264 0.46094 0.82368 0.0
H3326 H 0.15852 0.59939 0.24408 0.0
H3327 H 0.17753 0.62862 0.26334 0.0
H3328 H 0.22252 0.60483 0.26266 0.0
H3329 H 0.20349 0.575 0.24399 0.0
H3330 H 0.2244 0.64049 0.29382 0.0
H3331 H 0.21483 0.61494 0.22424 0.0
H3332 H 0.19476 0.60049 0.1948 0.0
H3333 H 0.16597 0.64279 0.20477 0.0
H3334 H 0.18568 0.65719 0.23444 0.0
H3335 H 0.29059 0.71876 0.2718 0.0
H3336 H 0.27292 0.68603 0.2728 0.0
H3337 H 0.22449 0.70164 0.25727 0.0
H3338 H 0.24204 0.73346 0.25514 0.0
H3339 H 0.22588 0.66954 0.2373 0.0
H3340 H 0.23935 0.70148 0.30073 0.0
H3341 H 0.26161 0.71999 0.32739 0.0
H3342 H 0.28158 0.67114 0.33076 0.0
H3343 H 0.26021 0.65266 0.3033 0.0
C3344 C 0.17235 0.60011 0.24838 0.0
C3345 C 0.17973 0.5852 0.24189 0.0
C3346 C 0.183 0.61657 0.25994 0.0
C3347 C 0.2013 0.6187 0.26414 0.0
C3348 C 0.20833 0.60319 0.25955 0.0
C3349 C 0.19759 0.58649 0.24834 0.0
C3350 C 0.21318 0.63764 0.2653 0.0
C3351 C 0.22478 0.64705 0.28163 0.0
C3352 C 0.21351 0.64586 0.24923 0.0
C3353 C 0.20145 0.63685 0.23164 0.0
C3354 C 0.20406 0.62096 0.22024 0.0
C3355 C 0.19278 0.61282 0.20351 0.0
C3356 C 0.17904 0.62066 0.19796 0.0
C3357 C 0.17655 0.63666 0.20913 0.0
C3358 C 0.18773 0.64477 0.22591 0.0
C3359 C 0.2762 0.71472 0.26814 0.0
C3360 C 0.26736 0.72782 0.26296 0.0
C3361 C 0.26624 0.69642 0.26899 0.0
C3362 C 0.24759 0.69185 0.2653 0.0
C3363 C 0.23893 0.70512 0.26006 0.0
C3364 C 0.24884 0.72304 0.25867 0.0
C3365 C 0.23669 0.67299 0.26597 0.0
C3366 C 0.22546 0.66329 0.24972 0.0
C3367 C 0.23647 0.66515 0.28228 0.0
C3368 C 0.24823 0.67567 0.2998 0.0
C3369 C 0.24852 0.69466 0.30707 0.0
C3370 C 0.26104 0.70519 0.3223 0.0
C3371 C 0.2729 0.69671 0.33086 0.0
C3372 C 0.27234 0.67768 0.32414 0.0
C3373 C 0.2601 0.6672 0.30866 0.0
H3374 H 0.28255 0.70488 0.34268 0.0
H3375 H 0.17037 0.61438 0.18497 0.0
H3376 H 0.52064 0.73277 0.46457 0.0
H3377 H 0.52933 0.70768 0.47876 0.0
H3378 H 0.50981 0.66778 0.42724 0.0
H3379 H 0.50156 0.69307 0.41289 0.0
H3380 H 0.49593 0.65575 0.45989 0.0
H3381 H 0.55304 0.68423 0.44066 0.0
H3382 H 0.5793 0.71118 0.44074 0.0
H3383 H 0.59185 0.71792 0.49967 0.0
H3384 H 0.56546 0.6912 0.5 0.0
H3385 H 0.51718 0.57254 0.47407 0.0
H3386 H 0.51365 0.6012 0.46335 0.0
H3387 H 0.5519 0.63634 0.50954 0.0
H3388 H 0.55638 0.60726 0.51964 0.0
H3389 H 0.55688 0.65368 0.48336 0.0
H3390 H 0.50362 0.62946 0.50612 0.0
H3391 H 0.47572 0.60796 0.51185 0.0
H3392 H 0.45443 0.59828 0.45434 0.0
H3393 H 0.4823 0.6195 0.44816 0.0
C3394 C 0.51857 0.71872 0.45619 0.0
C3395 C 0.51065 0.71487 0.43757 0.0
C3396 C 0.52353 0.70442 0.46431 0.0
C3397 C 0.52034 0.68584 0.45406 0.0
C3398 C 0.51254 0.68204 0.43539 0.0
C3399 C 0.50791 0.69648 0.42715 0.0
C3400 C 0.52389 0.67003 0.46306 0.0
C3401 C 0.50927 0.65509 0.46473 0.0
C3402 C 0.54121 0.66989 0.47063 0.0
C3403 C 0.55715 0.68583 0.47036 0.0
C3404 C 0.56129 0.69156 0.45366 0.0
C3405 C 0.57622 0.70678 0.45363 0.0
C3406 C 0.58721 0.71629 0.4702 0.0
C3407 C 0.58331 0.71056 0.48685 0.0
C3408 C 0.56838 0.69537 0.48696 0.0
C3409 C 0.52483 0.58636 0.48202 0.0
C3410 C 0.53689 0.58758 0.49787 0.0
C3411 C 0.52268 0.60285 0.47594 0.0
C3412 C 0.532 0.62119 0.48589 0.0
C3413 C 0.54437 0.62248 0.5016 0.0
C3414 C 0.54691 0.60584 0.50743 0.0
C3415 C 0.52885 0.63873 0.47951 0.0
C3416 C 0.54349 0.65415 0.4785 0.0
C3417 C 0.51142 0.63982 0.47331 0.0
C3418 C 0.4951 0.62603 0.47667 0.0
C3419 C 0.49309 0.62255 0.49464 0.0
C3420 C 0.47727 0.61046 0.49798 0.0
C3421 C 0.46332 0.60186 0.48348 0.0
C3422 C 0.46525 0.60502 0.46555 0.0
C3423 C 0.48105 0.61708 0.46212 0.0
H3424 H 0.45097 0.59292 0.4862 0.0
H3425 H 0.59876 0.72807 0.47015 0.0
H3426 H 0.6115 0.27125 0.64127 0.0
H3427 H 0.63596 0.2677 0.66261 0.0
H3428 H 0.65494 0.32918 0.679 0.0
H3429 H 0.63081 0.3326 0.65691 0.0
H3430 H 0.68189 0.31716 0.67471 0.0
H3431 H 0.63356 0.29688 0.70747 0.0
H3432 H 0.60389 0.27846 0.71231 0.0
H3433 H 0.61914 0.22616 0.70072 0.0
H3434 H 0.64883 0.24423 0.69547 0.0
H3435 H 0.74264 0.31897 0.75292 0.0
H3436 H 0.71744 0.32056 0.73174 0.0
H3437 H 0.70534 0.2598 0.7113 0.0
H3438 H 0.73081 0.25814 0.7331 0.0
H3439 H 0.67499 0.27072 0.71742 0.0
H3440 H 0.72577 0.29503 0.68735 0.0
H3441 H 0.75545 0.31647 0.68709 0.0
H3442 H 0.73476 0.36539 0.69713 0.0
H3443 H 0.70509 0.34424 0.69842 0.0
C3444 C 0.62068 0.28397 0.64977 0.0
C3445 C 0.61902 0.30219 0.64777 0.0
C3446 C 0.63471 0.28195 0.66202 0.0
C3447 C 0.64736 0.29813 0.67283 0.0
C3448 C 0.64546 0.31639 0.67097 0.0
C3449 C 0.63154 0.31839 0.6585 0.0
C3450 C 0.663 0.29605 0.68524 0.0
C3451 C 0.68026 0.30715 0.6842 0.0
C3452 C 0.66117 0.28282 0.69757 0.0
C3453 C 0.64338 0.2719 0.70087 0.0
C3454 C 0.63055 0.28143 0.7058 0.0
C3455 C 0.61373 0.27105 0.70863 0.0
C3456 C 0.60961 0.25115 0.70677 0.0
C3457 C 0.62234 0.24158 0.70212 0.0
C3458 C 0.63917 0.25189 0.69922 0.0
C3459 C 0.73477 0.30592 0.74378 0.0
C3460 C 0.73887 0.28849 0.7446 0.0
C3461 C 0.72031 0.30686 0.73158 0.0
C3462 C 0.70944 0.29039 0.7196 0.0
C3463 C 0.71353 0.2728 0.72025 0.0
C3464 C 0.72822 0.27187 0.73255 0.0
C3465 C 0.69379 0.29179 0.70678 0.0
C3466 C 0.67655 0.2806 0.70781 0.0
C3467 C 0.69556 0.30536 0.69481 0.0
C3468 C 0.71321 0.31802 0.69315 0.0
C3469 C 0.72755 0.31036 0.68961 0.0
C3470 C 0.74441 0.3225 0.68932 0.0
C3471 C 0.74701 0.34233 0.69205 0.0
C3472 C 0.73274 0.35004 0.69505 0.0
C3473 C 0.71591 0.33798 0.69564 0.0
H3474 H 0.76009 0.35175 0.6919 0.0
H3475 H 0.59658 0.24313 0.70897 0.0
H3476 H 0.04118 0.3159 0.95973 0.0
H3477 H 0.04767 0.35074 0.97106 0.0
H3478 H 0.99764 0.35067 0.94054 0.0
H3479 H 0.99115 0.31622 0.92957 0.0
H3480 H 0.02554 0.38179 0.93789 0.0
H3481 H 0.99919 0.34721 0.98427 0.0
H3482 H 0.9975 0.32624 0.00747 0.0
H3483 H 0.04811 0.3613 0.03685 0.0
H3484 H 0.05019 0.38233 0.01365 0.0
H3485 H 0.99965 0.46145 0.9795 0.0
H3486 H 0.99979 0.42835 0.96811 0.0
H3487 H 0.04755 0.43611 0.00648 0.0
H3488 H 0.04717 0.46874 0.01825 0.0
H3489 H 0.02547 0.40256 0.00498 0.0
H3490 H 0.05 0.44001 0.96144 0.0
H3491 H 0.05032 0.46276 0.94009 0.0
H3492 H 0.00367 0.42402 0.9062 0.0
H3493 H 0.00291 0.40113 0.9275 0.0
C3494 C 0.03175 0.32351 0.95547 0.0
C3495 C 0.01563 0.3137 0.94408 0.0
C3496 C 0.03544 0.34325 0.96182 0.0
C3497 C 0.02308 0.35311 0.95658 0.0
C3498 C 0.00734 0.34328 0.94461 0.0
C3499 C 0.00359 0.32368 0.93851 0.0
C3500 C 0.02549 0.37333 0.96457 0.0
C3501 C 0.02561 0.38642 0.95256 0.0
C3502 C 0.02584 0.37931 0.98372 0.0
C3503 C 0.025 0.3661 0.99706 0.0
C3504 C 0.01009 0.35025 0.9955 0.0
C3505 C 0.00903 0.33841 0.0087 0.0
C3506 C 0.02273 0.34237 0.02357 0.0
C3507 C 0.03755 0.35818 0.02527 0.0
C3508 C 0.03869 0.37005 0.0121 0.0
C3509 C 0.00988 0.45587 0.98578 0.0
C3510 C 0.0235 0.46758 0.99957 0.0
C3511 C 0.0101 0.43714 0.97911 0.0
C3512 C 0.02398 0.4301 0.98616 0.0
C3513 C 0.03687 0.44142 0.00075 0.0
C3514 C 0.03662 0.46002 0.00744 0.0
C3515 C 0.02528 0.41098 0.97833 0.0
C3516 C 0.02584 0.39812 0.99036 0.0
C3517 C 0.02568 0.40534 0.95925 0.0
C3518 C 0.02632 0.4189 0.94616 0.0
C3519 C 0.03975 0.43637 0.94949 0.0
C3520 C 0.04002 0.4493 0.93739 0.0
C3521 C 0.027 0.44486 0.92181 0.0
C3522 C 0.01374 0.42744 0.91827 0.0
C3523 C 0.0134 0.41447 0.93035 0.0
H3524 H 0.02722 0.45489 0.91248 0.0
H3525 H 0.02184 0.33324 0.03383 0.0
H3526 H 0.03167 0.80929 0.17668 0.0
H3527 H 0.00228 0.79877 0.18607 0.0
H3528 H 0.98114 0.76672 0.13105 0.0
H3529 H 0.01069 0.77725 0.12146 0.0
H3530 H 0.95815 0.78693 0.14529 0.0
H3531 H 0.98673 0.74171 0.16379 0.0
H3532 H 0.01101 0.73016 0.17769 0.0
H3533 H 0.00972 0.76259 0.23079 0.0
H3534 H 0.98553 0.77447 0.21717 0.0
H3535 H 0.87871 0.75142 0.18724 0.0
H3536 H 0.90388 0.75046 0.1698 0.0
H3537 H 0.94042 0.78726 0.21637 0.0
H3538 H 0.91546 0.78837 0.23353 0.0
H3539 H 0.9528 0.75715 0.2011 0.0
H3540 H 0.92568 0.8047 0.1804 0.0
H3541 H 0.90046 0.81449 0.166 0.0
H3542 H 0.8981 0.77545 0.11566 0.0
H3543 H 0.92308 0.76511 0.12992 0.0
C3544 C 0.02083 0.79999 0.16653 0.0
C3545 C 0.02366 0.7941 0.14833 0.0
C3546 C 0.00399 0.79391 0.17194 0.0
C3547 C 0.98946 0.78177 0.15934 0.0
C3548 C 0.99211 0.77605 0.14105 0.0
C3549 C 0.00905 0.78204 0.13562 0.0
C3550 C 0.97169 0.77526 0.16559 0.0
C3551 C 0.95687 0.78005 0.15725 0.0
C3552 C 0.96986 0.76617 0.18112 0.0
C3553 C 0.98439 0.75906 0.18943 0.0
C3554 C 0.9917 0.74647 0.17841 0.0
C3555 C 0.00543 0.73984 0.18624 0.0
C3556 C 0.01193 0.74566 0.2051 0.0
C3557 C 0.00467 0.75809 0.21618 0.0
C3558 C 0.99092 0.76474 0.20842 0.0
C3559 C 0.89217 0.75912 0.19371 0.0
C3560 C 0.89522 0.77003 0.21168 0.0
C3561 C 0.9065 0.75863 0.18375 0.0
C3562 C 0.92408 0.76887 0.19175 0.0
C3563 C 0.92704 0.77923 0.20991 0.0
C3564 C 0.91278 0.77993 0.21968 0.0
C3565 C 0.93955 0.7696 0.18135 0.0
C3566 C 0.95395 0.76367 0.1889 0.0
C3567 C 0.94085 0.77742 0.16499 0.0
C3568 C 0.9261 0.78395 0.15631 0.0
C3569 C 0.91969 0.79809 0.16631 0.0
C3570 C 0.90544 0.80374 0.15817 0.0
C3571 C 0.89764 0.79555 0.13995 0.0
C3572 C 0.90413 0.78174 0.1298 0.0
C3573 C 0.91832 0.77597 0.13791 0.0
H3574 H 0.88661 0.79995 0.13368 0.0
H3575 H 0.02256 0.74053 0.21114 0.0
H3576 H 0.47508 0.30239 0.10484 0.0
H3577 H 0.4898 0.32811 0.0896 0.0
H3578 H 0.5408 0.31833 0.10566 0.0
H3579 H 0.5263 0.29303 0.12142 0.0
H3580 H 0.54377 0.35589 0.10952 0.0
H3581 H 0.51978 0.30112 0.06142 0.0
H3582 H 0.49629 0.27283 0.04439 0.0
H3583 H 0.46319 0.30888 0.03117 0.0
H3584 H 0.48639 0.33736 0.04827 0.0
H3585 H 0.57129 0.42017 0.04355 0.0
H3586 H 0.56851 0.39347 0.06066 0.0
H3587 H 0.51171 0.3864 0.05666 0.0
H3588 H 0.51434 0.41231 0.03935 0.0
H3589 H 0.51937 0.35361 0.04444 0.0
H3590 H 0.54118 0.40677 0.09932 0.0
H3591 H 0.56355 0.43359 0.12032 0.0
H3592 H 0.60107 0.40008 0.12074 0.0
H3593 H 0.57889 0.3729 0.10021 0.0
C3594 C 0.48942 0.30575 0.10516 0.0
C3595 C 0.49949 0.29561 0.11417 0.0
C3596 C 0.49781 0.32039 0.09642 0.0
C3597 C 0.51634 0.32481 0.09621 0.0
C3598 C 0.52649 0.31505 0.1056 0.0
C3599 C 0.51814 0.30057 0.11453 0.0
C3600 C 0.52493 0.3394 0.0858 0.0
C3601 C 0.53868 0.3553 0.09518 0.0
C3602 C 0.51851 0.33839 0.06704 0.0
C3603 C 0.50482 0.32136 0.05613 0.0
C3604 C 0.50749 0.303 0.05487 0.0
C3605 C 0.49421 0.28693 0.04522 0.0
C3606 C 0.47825 0.28905 0.0367 0.0
C3607 C 0.47557 0.30726 0.03774 0.0
C3608 C 0.48879 0.32337 0.04736 0.0
C3609 C 0.55827 0.4128 0.04636 0.0
C3610 C 0.54301 0.41823 0.04017 0.0
C3611 C 0.55673 0.39777 0.05628 0.0
C3612 C 0.53991 0.38804 0.05995 0.0
C3613 C 0.52482 0.39373 0.05397 0.0
C3614 C 0.52632 0.40854 0.0441 0.0
C3615 C 0.53717 0.37086 0.06857 0.0
C3616 C 0.52475 0.35412 0.05867 0.0
C3617 C 0.54488 0.37116 0.08679 0.0
C3618 C 0.55852 0.38798 0.09793 0.0
C3619 C 0.5543 0.40525 0.10365 0.0
C3620 C 0.56689 0.42046 0.11552 0.0
C3621 C 0.58375 0.41865 0.12157 0.0
C3622 C 0.58805 0.40153 0.11592 0.0
C3623 C 0.57547 0.3862 0.10424 0.0
H3624 H 0.59342 0.43044 0.13078 0.0
H3625 H 0.46797 0.27659 0.02929 0.0
H3626 H 0.03175 0.30597 0.37441 0.0
H3627 H 0.0046 0.30905 0.35769 0.0
H3628 H 0.02596 0.30134 0.30631 0.0
H3629 H 0.05392 0.29898 0.32339 0.0
H3630 H 0.00435 0.3302 0.31216 0.0
H3631 H 0.00182 0.2634 0.31707 0.0
H3632 H 0.00664 0.24023 0.33658 0.0
H3633 H 0.96936 0.25528 0.37092 0.0
H3634 H 0.96457 0.27879 0.35182 0.0
H3635 H 0.91766 0.313 0.26461 0.0
H3636 H 0.94732 0.30906 0.27304 0.0
H3637 H 0.93293 0.2961 0.32549 0.0
H3638 H 0.90296 0.2985 0.31653 0.0
H3639 H 0.95254 0.27603 0.31548 0.0
H3640 H 0.95578 0.34203 0.31875 0.0
H3641 H 0.95233 0.37124 0.30801 0.0
H3642 H 0.98803 0.36488 0.26849 0.0
H3643 H 0.99142 0.33539 0.27875 0.0
C3644 C 0.03064 0.30485 0.35952 0.0
C3645 C 0.04441 0.30136 0.34991 0.0
C3646 C 0.01528 0.30688 0.35008 0.0
C3647 C 0.01326 0.30494 0.33083 0.0
C3648 C 0.02739 0.30264 0.32121 0.0
C3649 C 0.04311 0.30104 0.33082 0.0
C3650 C 0.99558 0.3032 0.32096 0.0
C3651 C 0.99301 0.31817 0.31235 0.0
C3652 C 0.98085 0.28796 0.32233 0.0
C3653 C 0.98279 0.2728 0.33296 0.0
C3654 C 0.99461 0.26172 0.32874 0.0
C3655 C 0.99738 0.24857 0.33977 0.0
C3656 C 0.98829 0.24627 0.35497 0.0
C3657 C 0.97635 0.25704 0.35912 0.0
C3658 C 0.97357 0.27024 0.34817 0.0
C3659 C 0.9207 0.30881 0.27771 0.0
C3660 C 0.90815 0.30644 0.2901 0.0
C3661 C 0.93771 0.30681 0.28261 0.0
C3662 C 0.94248 0.30285 0.3001 0.0
C3663 C 0.92961 0.29936 0.31198 0.0
C3664 C 0.91255 0.30096 0.30695 0.0
C3665 C 0.96103 0.3031 0.30649 0.0
C3666 C 0.96381 0.28787 0.31465 0.0
C3667 C 0.97579 0.31867 0.30562 0.0
C3668 C 0.97362 0.33631 0.2993 0.0
C3669 C 0.96273 0.34672 0.30762 0.0
C3670 C 0.96081 0.36335 0.30164 0.0
C3671 C 0.96989 0.36986 0.28752 0.0
C3672 C 0.98094 0.35977 0.27937 0.0
C3673 C 0.98286 0.34309 0.28525 0.0
H3674 H 0.96841 0.38276 0.28293 0.0
H3675 H 0.99051 0.23614 0.36353 0.0
H3676 H 0.96141 0.67577 0.60692 0.0
H3677 H 0.97229 0.65203 0.58789 0.0
H3678 H 0.02105 0.69546 0.58704 0.0
H3679 H 0.00971 0.71931 0.60485 0.0
H3680 H 0.01204 0.67381 0.55607 0.0
H3681 H 0.01891 0.663 0.61761 0.0
H3682 H 0.0109 0.65749 0.64813 0.0
H3683 H 0.97217 0.60476 0.62257 0.0
H3684 H 0.97976 0.61005 0.59186 0.0
H3685 H 0.04983 0.59694 0.52482 0.0
H3686 H 0.04563 0.62262 0.54781 0.0
H3687 H 0.98852 0.59855 0.53523 0.0
H3688 H 0.99262 0.57329 0.51159 0.0
H3689 H 0.00821 0.61188 0.57681 0.0
H3690 H 0.99868 0.62876 0.51501 0.0
H3691 H 0.00815 0.63524 0.48527 0.0
H3692 H 0.05481 0.67841 0.5141 0.0
H3693 H 0.04578 0.67183 0.54404 0.0
C3694 C 0.97406 0.68027 0.60188 0.0
C3695 C 0.98473 0.69917 0.60709 0.0
C3696 C 0.98046 0.66673 0.59151 0.0
C3697 C 0.99774 0.67197 0.58686 0.0
C3698 C 0.00777 0.69118 0.59077 0.0
C3699 C 1.00115 0.70481 0.60063 0.0
C3700 C 0.00519 0.65744 0.57748 0.0
C3701 C 0.01157 0.66047 0.56088 0.0
C3702 C 0.00466 0.64013 0.5839 0.0
C3703 C 0.99983 0.63701 0.60237 0.0
C3704 C 0.00857 0.65031 0.61846 0.0
C3705 C 0.00413 0.6472 0.63581 0.0
C3706 C 0.99101 0.6308 0.63728 0.0
C3707 C 0.98232 0.61746 0.62141 0.0
C3708 C 0.98671 0.6205 0.60403 0.0
C3709 C 0.03641 0.59724 0.52699 0.0
C3710 C 0.02147 0.58352 0.51651 0.0
C3711 C 0.03408 0.61168 0.54014 0.0
C3712 C 0.01683 0.6121 0.54307 0.0
C3713 C 0.0019 0.59809 0.53303 0.0
C3714 C 0.00421 0.58395 0.5195 0.0
C3715 C 0.01419 0.62822 0.55532 0.0
C3716 C 0.00897 0.62549 0.57246 0.0
C3717 C 0.01609 0.64598 0.54966 0.0
C3718 C 0.02176 0.64951 0.53171 0.0
C3719 C 0.01113 0.63936 0.51499 0.0
C3720 C 0.01638 0.64311 0.49811 0.0
C3721 C 0.03213 0.65715 0.49779 0.0
C3722 C 0.04267 0.66747 0.51436 0.0
C3723 C 0.03751 0.66371 0.53129 0.0
H3724 H 0.03613 0.6601 0.4847 0.0
H3725 H 0.9876 0.62842 0.65072 0.0
H3726 H 0.60779 0.81026 0.82278 0.0
H3727 H 0.62723 0.79668 0.80398 0.0
H3728 H 0.67086 0.81892 0.84889 0.0
H3729 H 0.65128 0.83195 0.86806 0.0
H3730 H 0.67525 0.82771 0.80992 0.0
H3731 H 0.65657 0.77785 0.84578 0.0
H3732 H 0.63563 0.75256 0.85726 0.0
H3733 H 0.61633 0.72227 0.80157 0.0
H3734 H 0.63692 0.7476 0.78974 0.0
H3735 H 0.74652 0.79354 0.79987 0.0
H3736 H 0.71944 0.79663 0.81217 0.0
H3737 H 0.68764 0.76529 0.76041 0.0
H3738 H 0.715 0.76108 0.74834 0.0
H3739 H 0.67342 0.75876 0.79708 0.0
H3740 H 0.68847 0.81272 0.76141 0.0
H3741 H 0.71282 0.8349 0.75028 0.0
H3742 H 0.74098 0.85318 0.80572 0.0
H3743 H 0.71628 0.83218 0.81719 0.0
C3744 C 0.6216 0.81246 0.82851 0.0
C3745 C 0.62825 0.82234 0.84667 0.0
C3746 C 0.63253 0.80449 0.8179 0.0
C3747 C 0.65024 0.80669 0.82526 0.0
C3748 C 0.65708 0.81701 0.84319 0.0
C3749 C 0.64603 0.82455 0.854 0.0
C3750 C 0.66204 0.79931 0.81384 0.0
C3751 C 0.6747 0.81262 0.80698 0.0
C3752 C 0.66099 0.77956 0.80974 0.0
C3753 C 0.64798 0.76488 0.81685 0.0
C3754 C 0.64758 0.76604 0.83595 0.0
C3755 C 0.63585 0.75162 0.84253 0.0
C3756 C 0.62457 0.73588 0.83015 0.0
C3757 C 0.625 0.73452 0.81115 0.0
C3758 C 0.63667 0.74892 0.8045 0.0
C3759 C 0.73371 0.78711 0.79124 0.0
C3760 C 0.73256 0.77751 0.77314 0.0
C3761 C 0.71835 0.78879 0.79824 0.0
C3762 C 0.70179 0.78156 0.78695 0.0
C3763 C 0.70044 0.77101 0.76915 0.0
C3764 C 0.71592 0.76878 0.76228 0.0
C3765 C 0.68654 0.78718 0.79345 0.0
C3766 C 0.67334 0.77369 0.79943 0.0
C3767 C 0.68686 0.80669 0.79665 0.0
C3768 C 0.70054 0.82108 0.79013 0.0
C3769 C 0.69969 0.82187 0.77122 0.0
C3770 C 0.7135 0.8343 0.76487 0.0
C3771 C 0.72837 0.84566 0.77728 0.0
C3772 C 0.7293 0.84482 0.79611 0.0
C3773 C 0.71529 0.83286 0.8026 0.0
H3774 H 0.73922 0.85496 0.77227 0.0
H3775 H 0.61556 0.72469 0.83528 0.0
H3776 H 0.46833 0.58486 0.70716 0.0
H3777 H 0.48308 0.5849 0.67922 0.0
H3778 H 0.46098 0.52375 0.66398 0.0
H3779 H 0.44719 0.52373 0.69215 0.0
H3780 H 0.49071 0.5283 0.65464 0.0
H3781 H 0.44889 0.56547 0.64152 0.0
H3782 H 0.43594 0.59271 0.64803 0.0
H3783 H 0.4873 0.63212 0.64972 0.0
H3784 H 0.50057 0.60511 0.64343 0.0
H3785 H 0.50702 0.51729 0.55823 0.0
H3786 H 0.49287 0.51941 0.58669 0.0
H3787 H 0.52617 0.57698 0.60555 0.0
H3788 H 0.54064 0.57462 0.5777 0.0
H3789 H 0.49244 0.57568 0.61341 0.0
H3790 H 0.53432 0.54148 0.62541 0.0
H3791 H 0.55029 0.51653 0.62179 0.0
H3792 H 0.50224 0.47374 0.62461 0.0
H3793 H 0.48588 0.49842 0.62795 0.0
C3794 C 0.46618 0.57147 0.69763 0.0
C3795 C 0.45587 0.55435 0.70209 0.0
C3796 C 0.47478 0.57143 0.68136 0.0
C3797 C 0.47326 0.5543 0.66849 0.0
C3798 C 0.46279 0.53735 0.67305 0.0
C3799 C 0.45454 0.53737 0.68934 0.0
C3800 C 0.48258 0.55352 0.65073 0.0
C3801 C 0.49059 0.53854 0.64554 0.0
C3802 C 0.48373 0.56712 0.63865 0.0
C3803 C 0.47573 0.58329 0.64218 0.0
C3804 C 0.45741 0.57995 0.64335 0.0
C3805 C 0.45003 0.59534 0.64701 0.0
C3806 C 0.4608 0.61413 0.64934 0.0
C3807 C 0.47897 0.61756 0.64794 0.0
C3808 C 0.48643 0.60222 0.64433 0.0
C3809 C 0.51115 0.53054 0.56824 0.0
C3810 C 0.52493 0.54591 0.56506 0.0
C3811 C 0.50312 0.53172 0.58483 0.0
C3812 C 0.50817 0.54845 0.59886 0.0
C3813 C 0.52163 0.56387 0.59537 0.0
C3814 C 0.52996 0.56249 0.57915 0.0
C3815 C 0.49973 0.55001 0.61702 0.0
C3816 C 0.49217 0.56524 0.62236 0.0
C3817 C 0.49922 0.5368 0.62938 0.0
C3818 C 0.50878 0.52177 0.62661 0.0
C3819 C 0.52707 0.52671 0.62495 0.0
C3820 C 0.53622 0.51263 0.62303 0.0
C3821 C 0.52727 0.49354 0.62288 0.0
C3822 C 0.50914 0.48852 0.62466 0.0
C3823 C 0.49992 0.50255 0.62655 0.0
H3824 H 0.53439 0.48267 0.62147 0.0
H3825 H 0.45506 0.62603 0.65218 0.0
H3826 H 0.74724 0.17864 0.9961 0.0
H3827 H 0.7375 0.18777 0.96731 0.0
H3828 H 0.78494 0.17975 0.946 0.0
H3829 H 0.79474 0.17028 0.97475 0.0
H3830 H 0.77922 0.21651 0.94722 0.0
H3831 H 0.74793 0.14989 0.9217 0.0
H3832 H 0.72751 0.11819 0.92178 0.0
H3833 H 0.68533 0.14436 0.93223 0.0
H3834 H 0.70541 0.17609 0.93173 0.0
H3835 H 0.76542 0.22813 0.85631 0.0
H3836 H 0.76879 0.21358 0.88334 0.0
H3837 H 0.71964 0.22358 0.89849 0.0
H3838 H 0.71622 0.23853 0.8712 0.0
H3839 H 0.72433 0.18693 0.90175 0.0
H3840 H 0.75579 0.2533 0.92074 0.0
H3841 H 0.77702 0.28461 0.92118 0.0
H3842 H 0.82068 0.25917 0.92429 0.0
H3843 H 0.79972 0.22766 0.92358 0.0
C3844 C 0.75556 0.1787 0.98528 0.0
C3845 C 0.77187 0.17402 0.98771 0.0
C3846 C 0.74985 0.18366 0.96879 0.0
C3847 C 0.76046 0.18417 0.95465 0.0
C3848 C 0.77658 0.17921 0.95684 0.0
C3849 C 0.78221 0.17402 0.97327 0.0
C3850 C 0.75597 0.19249 0.93872 0.0
C3851 C 0.7674 0.20996 0.93704 0.0
C3852 C 0.74013 0.1842 0.92616 0.0
C3853 C 0.72817 0.1653 0.92689 0.0
C3854 C 0.73431 0.14884 0.9241 0.0
C3855 C 0.72277 0.13087 0.92408 0.0
C3856 C 0.70512 0.12924 0.92699 0.0
C3857 C 0.69896 0.14559 0.92986 0.0
C3858 C 0.71038 0.16355 0.92964 0.0
C3859 C 0.75498 0.22663 0.86501 0.0
C3860 C 0.74043 0.23419 0.86168 0.0
C3861 C 0.75712 0.21866 0.88059 0.0
C3862 C 0.74468 0.21804 0.89295 0.0
C3863 C 0.72944 0.22429 0.88906 0.0
C3864 C 0.72741 0.23257 0.87351 0.0
C3865 C 0.74787 0.21076 0.90989 0.0
C3866 C 0.73614 0.19357 0.91191 0.0
C3867 C 0.76359 0.2193 0.92273 0.0
C3868 C 0.77611 0.23803 0.92187 0.0
C3869 C 0.76987 0.2543 0.92118 0.0
C3870 C 0.78188 0.27212 0.92158 0.0
C3871 C 0.80018 0.27387 0.92271 0.0
C3872 C 0.8065 0.2578 0.92337 0.0
C3873 C 0.79456 0.23995 0.92296 0.0
H3874 H 0.80946 0.2877 0.92313 0.0
H3875 H 0.69625 0.11531 0.92702 0.0
H3876 H 0.11207 0.56179 0.20551 0.0
H3877 H 0.10128 0.56276 0.1739 0.0
H3878 H 0.10367 0.50473 0.15642 0.0
H3879 H 0.11522 0.50375 0.18812 0.0
H3880 H 0.11795 0.53063 0.13296 0.0
H3881 H 0.06568 0.5109 0.16282 0.0
H3882 H 0.04862 0.51455 0.1888 0.0
H3883 H 0.0464 0.57001 0.17871 0.0
H3884 H 0.06375 0.56682 0.15286 0.0
H3885 H 0.04528 0.49909 0.05634 0.0
H3886 H 0.0666 0.50319 0.08447 0.0
H3887 H 0.07362 0.56429 0.09329 0.0
H3888 H 0.05296 0.56033 0.06494 0.0
H3889 H 0.05747 0.53991 0.12053 0.0
H3890 H 0.10636 0.55742 0.08747 0.0
H3891 H 0.12362 0.55366 0.06173 0.0
H3892 H 0.13239 0.5024 0.0772 0.0
H3893 H 0.11471 0.50552 0.10276 0.0
C3894 C 0.11003 0.54907 0.19507 0.0
C3895 C 0.11447 0.53265 0.19923 0.0
C3896 C 0.10415 0.5498 0.17702 0.0
C3897 C 0.10201 0.5339 0.16307 0.0
C3898 C 0.10562 0.51718 0.16718 0.0
C3899 C 0.1118 0.51652 0.18525 0.0
C3900 C 0.09448 0.5343 0.14444 0.0
C3901 C 0.10468 0.53245 0.13005 0.0
C3902 C 0.0774 0.53719 0.14115 0.0
C3903 C 0.06609 0.53867 0.15599 0.0
C3904 C 0.06156 0.52388 0.16616 0.0
C3905 C 0.05188 0.52588 0.18088 0.0
C3906 C 0.04645 0.54252 0.18542 0.0
C3907 C 0.05061 0.55713 0.17517 0.0
C3908 C 0.06036 0.55523 0.16047 0.0
C3909 C 0.05152 0.51331 0.06436 0.0
C3910 C 0.04745 0.52939 0.05917 0.0
C3911 C 0.06382 0.51567 0.08001 0.0
C3912 C 0.07162 0.53404 0.09048 0.0
C3913 C 0.06783 0.55013 0.08498 0.0
C3914 C 0.05595 0.54782 0.06912 0.0
C3915 C 0.08078 0.53595 0.10892 0.0
C3916 C 0.07082 0.53822 0.12336 0.0
C3917 C 0.09796 0.53333 0.11207 0.0
C3918 C 0.10892 0.53155 0.09691 0.0
C3919 C 0.11173 0.54518 0.08526 0.0
C3920 C 0.12164 0.54319 0.07071 0.0
C3921 C 0.12903 0.52775 0.06778 0.0
C3922 C 0.1266 0.51432 0.07946 0.0
C3923 C 0.11662 0.51619 0.09398 0.0
H3924 H 0.13668 0.52622 0.05649 0.0
H3925 H 0.039 0.54407 0.19686 0.0
H3926 H 0.78887 0.81263 0.47621 0.0
H3927 H 0.78615 0.80172 0.44284 0.0
H3928 H 0.78273 0.85742 0.43363 0.0
H3929 H 0.78444 0.86801 0.46693 0.0
H3930 H 0.76398 0.83165 0.40582 0.0
H3931 H 0.82377 0.84543 0.43795 0.0
H3932 H 0.84788 0.8428 0.46074 0.0
H3933 H 0.83664 0.78273 0.43869 0.0
H3934 H 0.81235 0.78499 0.41588 0.0
H3935 H 0.7969 0.82821 0.32006 0.0
H3936 H 0.79441 0.83725 0.3528 0.0
H3937 H 0.79549 0.7806 0.3612 0.0
H3938 H 0.79874 0.77191 0.32856 0.0
H3939 H 0.8147 0.80668 0.38907 0.0
H3940 H 0.75586 0.79428 0.355 0.0
H3941 H 0.73375 0.79861 0.33112 0.0
H3942 H 0.74446 0.85786 0.35599 0.0
H3943 H 0.76695 0.85399 0.3799 0.0
C3944 C 0.78702 0.82234 0.467 0.0
C3945 C 0.78709 0.84121 0.4741 0.0
C3946 C 0.78561 0.81617 0.44797 0.0
C3947 C 0.78492 0.82898 0.4358 0.0
C3948 C 0.78345 0.84733 0.44277 0.0
C3949 C 0.7844 0.85336 0.4618 0.0
C3950 C 0.78735 0.82388 0.41621 0.0
C3951 C 0.77514 0.82633 0.40215 0.0
C3952 C 0.80185 0.8168 0.41137 0.0
C3953 C 0.81614 0.81534 0.42537 0.0
C3954 C 0.82634 0.83163 0.43809 0.0
C3955 C 0.84006 0.83022 0.45097 0.0
C3956 C 0.84376 0.8126 0.45119 0.0
C3957 C 0.83374 0.79636 0.43853 0.0
C3958 C 0.82001 0.7977 0.42562 0.0
C3959 C 0.79706 0.81794 0.32911 0.0
C3960 C 0.79827 0.79953 0.32212 0.0
C3961 C 0.79538 0.82297 0.34767 0.0
C3962 C 0.79432 0.80944 0.35931 0.0
C3963 C 0.7962 0.79123 0.35242 0.0
C3964 C 0.7982 0.78631 0.3339 0.0
C3965 C 0.79125 0.81421 0.37869 0.0
C3966 C 0.80343 0.81183 0.39271 0.0
C3967 C 0.77685 0.82153 0.38342 0.0
C3968 C 0.76319 0.82386 0.36917 0.0
C3969 C 0.75359 0.80826 0.35533 0.0
C3970 C 0.74097 0.81063 0.34178 0.0
C3971 C 0.73766 0.82848 0.342 0.0
C3972 C 0.74701 0.84403 0.35582 0.0
C3973 C 0.75971 0.84175 0.36938 0.0
H3974 H 0.72786 0.83025 0.3315 0.0
H3975 H 0.85442 0.81154 0.46115 0.0
H3976 H 0.48266 0.58416 0.81047 0.0
H3977 H 0.49576 0.58231 0.84158 0.0
H3978 H 0.45118 0.53423 0.84296 0.0
H3979 H 0.43778 0.53689 0.81248 0.0
H3980 H 0.45939 0.55105 0.87561 0.0
H3981 H 0.4981 0.53404 0.83243 0.0
H3982 H 0.51856 0.53911 0.80922 0.0
H3983 H 0.55396 0.5872 0.84702 0.0
H3984 H 0.53359 0.5826 0.87034 0.0
H3985 H 0.50182 0.50934 0.94341 0.0
H3986 H 0.49003 0.5152 0.91335 0.0
H3987 H 0.52564 0.57218 0.92519 0.0
H3988 H 0.537 0.56665 0.95549 0.0
H3989 H 0.52321 0.55224 0.88694 0.0
H3990 H 0.48633 0.57053 0.92922 0.0
H3991 H 0.46796 0.56632 0.95424 0.0
H3992 H 0.43074 0.51733 0.91935 0.0
H3993 H 0.44912 0.52107 0.89414 0.0
C3994 C 0.47536 0.57364 0.8177 0.0
C3995 C 0.45878 0.56109 0.80902 0.0
C3996 C 0.4831 0.57223 0.83548 0.0
C3997 C 0.47491 0.55772 0.84497 0.0
C3998 C 0.45807 0.54561 0.83641 0.0
C3999 C 0.45023 0.54724 0.81886 0.0
C4000 C 0.4837 0.55474 0.86342 0.0
C4001 C 0.4733 0.55106 0.87774 0.0
C4002 C 0.5021 0.55523 0.86715 0.0
C4003 C 0.5142 0.55811 0.85303 0.0
C4004 C 0.51017 0.54579 0.83572 0.0
C4005 C 0.52177 0.54858 0.82255 0.0
C4006 C 0.53752 0.56351 0.82662 0.0
C4007 C 0.54173 0.57568 0.84386 0.0
C4008 C 0.53016 0.57299 0.85705 0.0
C4009 C 0.50725 0.5231 0.93963 0.0
C4010 C 0.52039 0.5375 0.95215 0.0
C4011 C 0.50045 0.52647 0.92233 0.0
C4012 C 0.50684 0.5442 0.91669 0.0
C4013 C 0.5204 0.55836 0.92893 0.0
C4014 C 0.52687 0.55517 0.94641 0.0
C4015 C 0.49877 0.54825 0.89859 0.0
C4016 C 0.50928 0.55214 0.88453 0.0
C4017 C 0.48058 0.5481 0.89509 0.0
C4018 C 0.46917 0.54597 0.90988 0.0
C4019 C 0.47429 0.55878 0.92691 0.0
C4020 C 0.46389 0.55649 0.94112 0.0
C4021 C 0.44823 0.54156 0.93839 0.0
C4022 C 0.4429 0.52889 0.92142 0.0
C4023 C 0.4533 0.53109 0.90716 0.0
H4024 H 0.44026 0.53994 0.94944 0.0
H4025 H 0.54649 0.56562 0.81642 0.0
H4026 H 0.80056 0.17649 0.08713 0.0
H4027 H 0.79614 0.19361 0.11647 0.0
H4028 H 0.7526 0.20967 0.08859 0.0
H4029 H 0.75698 0.19267 0.05908 0.0
H4030 H 0.7798 0.23991 0.11186 0.0
H4031 H 0.74132 0.17764 0.11486 0.0
H4032 H 0.73478 0.14255 0.11187 0.0
H4033 H 0.77927 0.14934 0.15371 0.0
H4034 H 0.78613 0.18446 0.15688 0.0
H4035 H 0.77472 0.28803 0.20099 0.0
H4036 H 0.76507 0.26761 0.17019 0.0
H4037 H 0.79753 0.23114 0.18547 0.0
H4038 H 0.80611 0.25072 0.21634 0.0
H4039 H 0.76822 0.20995 0.16682 0.0
H4040 H 0.81186 0.26677 0.16011 0.0
H4041 H 0.82492 0.30151 0.16266 0.0
H4042 H 0.77898 0.30482 0.12771 0.0
H4043 H 0.76554 0.2701 0.12516 0.0
C4044 C 0.79006 0.18367 0.08724 0.0
C4045 C 0.77912 0.18331 0.07091 0.0
C4046 C 0.78743 0.19322 0.10397 0.0
C4047 C 0.77383 0.20245 0.10452 0.0
C4048 C 0.763 0.20234 0.08827 0.0
C4049 C 0.76559 0.19274 0.0715 0.0
C4050 C 0.77204 0.2135 0.12203 0.0
C4051 C 0.77673 0.23344 0.12382 0.0
C4052 C 0.76871 0.20481 0.13753 0.0
C4053 C 0.7642 0.18369 0.13613 0.0
C4054 C 0.7497 0.17164 0.12343 0.0
C4055 C 0.74594 0.15175 0.1217 0.0
C4056 C 0.7566 0.14372 0.1326 0.0
C4057 C 0.77099 0.15558 0.14532 0.0
C4058 C 0.77478 0.17548 0.14713 0.0
C4059 C 0.77974 0.27567 0.19756 0.0
C4060 C 0.79124 0.27088 0.21061 0.0
C4061 C 0.77422 0.26402 0.18015 0.0
C4062 C 0.7807 0.24798 0.1756 0.0
C4063 C 0.79222 0.24333 0.18878 0.0
C4064 C 0.79728 0.25459 0.20627 0.0
C4065 C 0.77645 0.23651 0.15683 0.0
C4066 C 0.77065 0.21649 0.15478 0.0
C4067 C 0.77956 0.24511 0.14118 0.0
C4068 C 0.78759 0.26594 0.14268 0.0
C4069 C 0.80449 0.27495 0.1531 0.0
C4070 C 0.81197 0.29462 0.15452 0.0
C4071 C 0.80275 0.30538 0.14542 0.0
C4072 C 0.78607 0.29647 0.13481 0.0
C4073 C 0.77851 0.27681 0.13337 0.0
H4074 H 0.80856 0.32061 0.14653 0.0
H4075 H 0.7537 0.12832 0.1312 0.0
H4076 H 0.16305 0.54277 0.30979 0.0
H4077 H 0.14738 0.55179 0.33549 0.0
H4078 H 0.10746 0.56258 0.29702 0.0
H4079 H 0.12275 0.55296 0.27134 0.0
H4080 H 0.12457 0.59347 0.32912 0.0
H4081 H 0.09177 0.52842 0.31249 0.0
H4082 H 0.08856 0.49403 0.3022 0.0
H4083 H 0.11906 0.49252 0.35328 0.0
H4084 H 0.1227 0.52703 0.36378 0.0
H4085 H 0.06254 0.58876 0.39693 0.0
H4086 H 0.07833 0.59045 0.3703 0.0
H4087 H 0.1235 0.58011 0.40126 0.0
H4088 H 0.10807 0.57919 0.42838 0.0
H4089 H 0.10023 0.54889 0.37028 0.0
H4090 H 0.13388 0.61633 0.38475 0.0
H4091 H 0.13547 0.65058 0.39331 0.0
H4092 H 0.09939 0.64648 0.34417 0.0
H4093 H 0.0975 0.61213 0.33541 0.0
C4094 C 0.15071 0.54662 0.30694 0.0
C4095 C 0.14381 0.54703 0.28891 0.0
C4096 C 0.14191 0.55189 0.32146 0.0
C4097 C 0.12644 0.55788 0.31791 0.0
C4098 C 0.11943 0.55803 0.29983 0.0
C4099 C 0.12803 0.55242 0.28531 0.0
C4100 C 0.11785 0.56422 0.33336 0.0
C4101 C 0.11897 0.58375 0.33803 0.0
C4102 C 0.1105 0.55134 0.34462 0.0
C4103 C 0.1076 0.53036 0.33889 0.0
C4104 C 0.09784 0.52077 0.32152 0.0
C4105 C 0.09595 0.50126 0.31564 0.0
C4106 C 0.10363 0.4911 0.32707 0.0
C4107 C 0.11311 0.50042 0.34445 0.0
C4108 C 0.11506 0.51996 0.3504 0.0
C4109 C 0.07626 0.58809 0.39854 0.0
C4110 C 0.08387 0.58307 0.41444 0.0
C4111 C 0.08519 0.58889 0.38321 0.0
C4112 C 0.10172 0.58481 0.38386 0.0
C4113 C 0.11057 0.583 0.40062 0.0
C4114 C 0.10177 0.58252 0.41605 0.0
C4115 C 0.10776 0.57834 0.36657 0.0
C4116 C 0.10581 0.55863 0.36138 0.0
C4117 C 0.11389 0.59098 0.35462 0.0
C4118 C 0.11548 0.6117 0.35949 0.0
C4119 C 0.12625 0.62274 0.37581 0.0
C4120 C 0.12721 0.64216 0.38069 0.0
C4121 C 0.11751 0.65069 0.3693 0.0
C4122 C 0.1069 0.63985 0.35296 0.0
C4123 C 0.10592 0.62042 0.34801 0.0
H4124 H 0.11822 0.66572 0.37314 0.0
H4125 H 0.10222 0.47601 0.32247 0.0
H4126 H 0.81793 0.83849 0.57795 0.0
H4127 H 0.81156 0.82479 0.60508 0.0
H4128 H 0.76285 0.84212 0.60425 0.0
H4129 H 0.76945 0.8565 0.57678 0.0
H4130 H 0.77934 0.84921 0.63864 0.0
H4131 H 0.76294 0.79338 0.59146 0.0
H4132 H 0.76602 0.77081 0.56443 0.0
H4133 H 0.81245 0.76252 0.59447 0.0
H4134 H 0.80977 0.78517 0.62163 0.0
H4135 H 0.75724 0.79588 0.71144 0.0
H4136 H 0.75785 0.80997 0.68337 0.0
H4137 H 0.80535 0.79282 0.67319 0.0
H4138 H 0.80409 0.77789 0.70066 0.0
H4139 H 0.78496 0.7842 0.64283 0.0
H4140 H 0.80275 0.84261 0.68895 0.0
H4141 H 0.79961 0.86555 0.71564 0.0
H4142 H 0.75017 0.86882 0.68724 0.0
H4143 H 0.75297 0.8458 0.66042 0.0
C4144 C 0.80577 0.83945 0.58336 0.0
C4145 C 0.79419 0.84867 0.57498 0.0
C4146 C 0.80206 0.83136 0.59893 0.0
C4147 C 0.78649 0.8319 0.60664 0.0
C4148 C 0.77491 0.84132 0.59854 0.0
C4149 C 0.7787 0.84961 0.58285 0.0
C4150 C 0.78306 0.82335 0.6236 0.0
C4151 C 0.78022 0.83484 0.63942 0.0
C4152 C 0.78449 0.80469 0.62492 0.0
C4153 C 0.78621 0.79111 0.60855 0.0
C4154 C 0.77388 0.78686 0.59226 0.0
C4155 C 0.77554 0.77402 0.57693 0.0
C4156 C 0.78944 0.76527 0.57772 0.0
C4157 C 0.80169 0.76931 0.59387 0.0
C4158 C 0.80009 0.78212 0.60925 0.0
C4159 C 0.76802 0.79554 0.70338 0.0
C4160 C 0.78078 0.78607 0.70836 0.0
C4161 C 0.7684 0.80363 0.68729 0.0
C4162 C 0.7818 0.80279 0.67602 0.0
C4163 C 0.79484 0.79375 0.68145 0.0
C4164 C 0.79423 0.78535 0.69728 0.0
C4165 C 0.78186 0.8103 0.65813 0.0
C4166 C 0.78398 0.79854 0.64207 0.0
C4167 C 0.77973 0.82868 0.6566 0.0
C4168 C 0.77796 0.84232 0.6728 0.0
C4169 C 0.79113 0.8481 0.68847 0.0
C4170 C 0.78943 0.86114 0.70361 0.0
C4171 C 0.77465 0.86856 0.70319 0.0
C4172 C 0.76158 0.86302 0.68758 0.0
C4173 C 0.76323 0.85 0.67241 0.0
H4174 H 0.77336 0.87864 0.71493 0.0
H4175 H 0.7907 0.75534 0.56584 0.0
H4176 H 0.77603 0.47833 0.51449 0.0
H4177 H 0.75201 0.49067 0.52587 0.0
H4178 H 0.71981 0.43282 0.52295 0.0
H4179 H 0.74328 0.42042 0.51121 0.0
H4180 H 0.70302 0.45335 0.50482 0.0
H4181 H 0.73701 0.46111 0.56458 0.0
H4182 H 0.76452 0.47236 0.58724 0.0
H4183 H 0.76714 0.53064 0.58304 0.0
H4184 H 0.73973 0.51972 0.56019 0.0
H4185 H 0.62979 0.48177 0.53545 0.0
H4186 H 0.65418 0.46639 0.53511 0.0
H4187 H 0.69244 0.52191 0.54356 0.0
H4188 H 0.66832 0.53723 0.54437 0.0
H4189 H 0.706 0.50032 0.56167 0.0
H4190 H 0.67511 0.49291 0.49968 0.0
H4191 H 0.6507 0.48214 0.47335 0.0
H4192 H 0.64477 0.42363 0.47904 0.0
H4193 H 0.66894 0.43409 0.50559 0.0
C4194 C 0.76378 0.4683 0.51622 0.0
C4195 C 0.76136 0.44845 0.51165 0.0
C4196 C 0.75024 0.47534 0.52296 0.0
C4197 C 0.73431 0.46258 0.52539 0.0
C4198 C 0.73207 0.44283 0.52117 0.0
C4199 C 0.74543 0.4358 0.51428 0.0
C4200 C 0.7191 0.46959 0.53025 0.0
C4201 C 0.70348 0.46329 0.51746 0.0
C4202 C 0.72011 0.48294 0.54648 0.0
C4203 C 0.73634 0.48959 0.5606 0.0
C4204 C 0.74348 0.47632 0.56843 0.0
C4205 C 0.75905 0.48264 0.58132 0.0
C4206 C 0.76758 0.5022 0.58656 0.0
C4207 C 0.76051 0.51549 0.57898 0.0
C4208 C 0.74493 0.50925 0.56609 0.0
C4209 C 0.64344 0.49064 0.53741 0.0
C4210 C 0.64719 0.51068 0.53982 0.0
C4211 C 0.65733 0.48187 0.53722 0.0
C4212 C 0.6751 0.49302 0.53901 0.0
C4213 C 0.67885 0.51303 0.54221 0.0
C4214 C 0.66504 0.52177 0.54265 0.0
C4215 C 0.68976 0.48404 0.53614 0.0
C4216 C 0.70536 0.49004 0.54923 0.0
C4217 C 0.68886 0.47045 0.52003 0.0
C4218 C 0.67357 0.46432 0.50485 0.0
C4219 C 0.66838 0.47779 0.49552 0.0
C4220 C 0.65464 0.47173 0.48051 0.0
C4221 C 0.64612 0.45222 0.47459 0.0
C4222 C 0.6513 0.43874 0.4837 0.0
C4223 C 0.66498 0.44472 0.49875 0.0
H4224 H 0.63557 0.44756 0.46289 0.0
H4225 H 0.77966 0.50706 0.59651 0.0
H4226 H 0.23954 0.13267 0.5019 0.0
H4227 H 0.21114 0.11026 0.50483 0.0
H4228 H 0.18267 0.14956 0.48819 0.0
H4229 H 0.21074 0.17196 0.48568 0.0
H4230 H 0.17002 0.13694 0.51652 0.0
H4231 H 0.18402 0.10725 0.45901 0.0
H4232 H 0.20317 0.0934 0.43966 0.0
H4233 H 0.20245 0.05055 0.47333 0.0
H4234 H 0.18351 0.06433 0.49306 0.0
H4235 H 0.08056 0.07588 0.4999 0.0
H4236 H 0.1096 0.09798 0.49869 0.0
H4237 H 0.13547 0.05416 0.50818 0.0
H4238 H 0.1064 0.03182 0.5079 0.0
H4239 H 0.15032 0.06918 0.48449 0.0
H4240 H 0.13593 0.09845 0.54201 0.0
H4241 H 0.11822 0.11336 0.56246 0.0
H4242 H 0.12056 0.15751 0.53008 0.0
H4243 H 0.13807 0.14273 0.5093 0.0
C4244 C 0.22719 0.13639 0.49864 0.0
C4245 C 0.22748 0.15412 0.4935 0.0
C4246 C 0.21093 0.12357 0.50035 0.0
C4247 C 0.19461 0.12811 0.49668 0.0
C4248 C 0.19496 0.14568 0.49124 0.0
C4249 C 0.21111 0.15847 0.4897 0.0
C4250 C 0.17708 0.11489 0.49859 0.0
C4251 C 0.16563 0.12215 0.50938 0.0
C4252 C 0.17142 0.09545 0.48969 0.0
C4253 C 0.18248 0.08692 0.4776 0.0
C4254 C 0.18802 0.09493 0.46234 0.0
C4255 C 0.19884 0.0871 0.45131 0.0
C4256 C 0.20406 0.07113 0.45529 0.0
C4257 C 0.19841 0.06293 0.47028 0.0
C4258 C 0.18763 0.07074 0.48138 0.0
C4259 C 0.0925 0.07109 0.50186 0.0
C4260 C 0.09121 0.05212 0.504 0.0
C4261 C 0.1092 0.08379 0.50131 0.0
C4262 C 0.12507 0.07803 0.50362 0.0
C4263 C 0.12364 0.05914 0.50623 0.0
C4264 C 0.10696 0.04633 0.50618 0.0
C4265 C 0.14305 0.09114 0.50253 0.0
C4266 C 0.15463 0.0839 0.49181 0.0
C4267 C 0.14887 0.11061 0.5116 0.0
C4268 C 0.13814 0.11935 0.52398 0.0
C4269 C 0.13253 0.11124 0.53916 0.0
C4270 C 0.12256 0.11969 0.55083 0.0
C4271 C 0.11822 0.13634 0.54754 0.0
C4272 C 0.12389 0.14459 0.5326 0.0
C4273 C 0.13384 0.13619 0.52087 0.0
H4274 H 0.11052 0.14286 0.55661 0.0
H4275 H 0.21244 0.0651 0.44674 0.0
H4276 H 0.21426 0.97093 0.75733 0.0
H4277 H 0.22678 0.94359 0.75322 0.0
H4278 H 0.17796 0.90729 0.76423 0.0
H4279 H 0.16517 0.93502 0.76816 0.0
H4280 H 0.20354 0.89558 0.78077 0.0
H4281 H 0.19407 0.90311 0.71919 0.0
H4282 H 0.19419 0.91795 0.69145 0.0
H4283 H 0.2515 0.93493 0.70006 0.0
H4284 H 0.25173 0.92033 0.72799 0.0
H4285 H 0.23516 0.81072 0.75623 0.0
H4286 H 0.21861 0.83498 0.75464 0.0
H4287 H 0.26777 0.87792 0.75558 0.0
H4288 H 0.28435 0.85378 0.75737 0.0
H4289 H 0.24 0.88435 0.73127 0.0
H4290 H 0.24641 0.87145 0.79281 0.0
H4291 H 0.24249 0.84715 0.81248 0.0
H4292 H 0.18554 0.83582 0.80074 0.0
H4293 H 0.18912 0.85845 0.77902 0.0
C4294 C 0.20586 0.95712 0.75859 0.0
C4295 C 0.18834 0.95579 0.76288 0.0
C4296 C 0.2132 0.94113 0.75616 0.0
C4297 C 0.20369 0.92254 0.75818 0.0
C4298 C 0.18605 0.92103 0.76243 0.0
C4299 C 0.17851 0.93712 0.76453 0.0
C4300 C 0.21249 0.90541 0.75646 0.0
C4301 C 0.21128 0.89321 0.76972 0.0
C4302 C 0.22288 0.90137 0.74219 0.0
C4303 C 0.22292 0.91086 0.72586 0.0
C4304 C 0.20671 0.91023 0.71532 0.0
C4305 C 0.20671 0.91853 0.69951 0.0
C4306 C 0.22284 0.92744 0.69404 0.0
C4307 C 0.23901 0.92806 0.70435 0.0
C4308 C 0.23909 0.91976 0.72017 0.0
C4309 C 0.2426 0.82527 0.75603 0.0
C4310 C 0.26148 0.82977 0.75712 0.0
C4311 C 0.23296 0.83941 0.7551 0.0
C4312 C 0.24154 0.85898 0.75508 0.0
C4313 C 0.26032 0.86332 0.75555 0.0
C4314 C 0.26998 0.84924 0.7567 0.0
C4315 C 0.23132 0.87491 0.75576 0.0
C4316 C 0.23232 0.88688 0.74235 0.0
C4317 C 0.22029 0.87834 0.76953 0.0
C4318 C 0.21804 0.86647 0.78406 0.0
C4319 C 0.23302 0.86371 0.79429 0.0
C4320 C 0.23086 0.85009 0.80571 0.0
C4321 C 0.21376 0.84011 0.80814 0.0
C4322 C 0.19878 0.84356 0.79887 0.0
C4323 C 0.20087 0.85657 0.78673 0.0
H4324 H 0.21214 0.82968 0.81716 0.0
H4325 H 0.22282 0.93382 0.68177 0.0
H4326 H 0.33728 0.94731 0.99258 0.0
H4327 H 0.36902 0.9578 0.99149 0.0
H4328 H 0.37922 0.97546 0.05084 0.0
H4329 H 0.3471 0.96354 0.05231 0.0
H4330 H 0.38995 0.00228 0.02057 0.0
H4331 H 0.39526 0.94681 0.04483 0.0
H4332 H 0.39025 0.91306 0.04809 0.0
H4333 H 0.40365 0.89901 0.99374 0.0
H4334 H 0.40835 0.93259 0.98995 0.0
H4335 H 0.48148 0.03184 0.03014 0.0
H4336 H 0.45058 0.01768 0.03263 0.0
H4337 H 0.44331 0.9823 0.97859 0.0
H4338 H 0.47472 0.99623 0.976 0.0
H4339 H 0.43171 0.96281 0.00722 0.0
H4340 H 0.42418 0.01619 0.98116 0.0
H4341 H 0.43186 0.05003 0.97764 0.0
H4342 H 0.42292 0.06687 0.03335 0.0
H4343 H 0.4154 0.03314 0.03728 0.0
C4344 C 0.34615 0.95381 0.00543 0.0
C4345 C 0.33982 0.95487 0.02258 0.0
C4346 C 0.36425 0.9592 0.00478 0.0
C4347 C 0.37615 0.96645 0.02116 0.0
C4348 C 0.36997 0.9691 0.03822 0.0
C4349 C 0.35177 0.96296 0.03897 0.0
C4350 C 0.39464 0.97449 0.01956 0.0
C4351 C 0.39928 0.99379 0.01803 0.0
C4352 C 0.40606 0.96282 0.0153 0.0
C4353 C 0.40182 0.94227 0.01697 0.0
C4354 C 0.39671 0.93648 0.03338 0.0
C4355 C 0.39405 0.91737 0.03538 0.0
C4356 C 0.39654 0.90388 0.0211 0.0
C4357 C 0.40164 0.90945 0.00476 0.0
C4358 C 0.40428 0.92853 0.00268 0.0
C4359 C 0.47335 0.02112 0.01871 0.0
C4360 C 0.48038 0.01492 0.00294 0.0
C4361 C 0.45574 0.01317 0.02013 0.0
C4362 C 0.44495 0.9992 0.00571 0.0
C4363 C 0.4517 0.99318 0.98973 0.0
C4364 C 0.46948 1.00113 0.98829 0.0
C4365 C 0.4268 0.99045 0.00812 0.0
C4366 C 0.42225 0.97115 0.00969 0.0
C4367 C 0.41517 0.00188 0.01197 0.0
C4368 C 0.41931 0.02215 0.00954 0.0
C4369 C 0.42393 0.02712 0.99268 0.0
C4370 C 0.42825 0.04628 0.99061 0.0
C4371 C 0.4279 0.06059 0.00527 0.0
C4372 C 0.42317 0.05577 0.022 0.0
C4373 C 0.41884 0.03663 0.02415 0.0
H4374 H 0.43129 0.07543 0.00365 0.0
H4375 H 0.3946 0.88912 0.02273 0.0
H4376 H 0.91731 0.5867 0.76421 0.0
H4377 H 0.89947 0.60792 0.75564 0.0
H4378 H 0.85111 0.56419 0.75658 0.0
H4379 H 0.86877 0.54302 0.76544 0.0
H4380 H 0.85247 0.58197 0.72392 0.0
H4381 H 0.85908 0.59664 0.78959 0.0
H4382 H 0.87574 0.60432 0.82114 0.0
H4383 H 0.90779 0.65686 0.80962 0.0
H4384 H 0.89145 0.64935 0.77787 0.0
H4385 H 0.79279 0.64159 0.72618 0.0
H4386 H 0.80973 0.61817 0.72809 0.0
H4387 H 0.85895 0.66337 0.7374 0.0
H4388 H 0.84201 0.68697 0.7355 0.0
H4389 H 0.85631 0.64347 0.76488 0.0
H4390 H 0.84755 0.62741 0.69791 0.0
H4391 H 0.83068 0.61719 0.66639 0.0
H4392 H 0.80088 0.56525 0.68108 0.0
H4393 H 0.81746 0.57523 0.71273 0.0
C4394 C 0.90289 0.58164 0.76256 0.0
C4395 C 0.89438 0.56327 0.76541 0.0
C4396 C 0.89277 0.59373 0.75774 0.0
C4397 C 0.87408 0.58747 0.7555 0.0
C4398 C 0.86555 0.56912 0.75822 0.0
C4399 C 0.87564 0.55715 0.76334 0.0
C4400 C 0.86349 0.6002 0.75033 0.0
C4401 C 0.85308 0.59535 0.73288 0.0
C4402 C 0.86452 0.61755 0.76212 0.0
C4403 C 0.87417 0.62235 0.7813 0.0
C4404 C 0.86977 0.60977 0.79374 0.0
C4405 C 0.87913 0.6141 0.81166 0.0
C4406 C 0.89285 0.63104 0.81736 0.0
C4407 C 0.89717 0.64373 0.80517 0.0
C4408 C 0.88784 0.63946 0.78721 0.0
C4409 C 0.80722 0.64648 0.72795 0.0
C4410 C 0.81609 0.66612 0.73092 0.0
C4411 C 0.81689 0.63306 0.72905 0.0
C4412 C 0.83557 0.63907 0.73296 0.0
C4413 C 0.84451 0.6585 0.73447 0.0
C4414 C 0.83484 0.67194 0.73343 0.0
C4415 C 0.84556 0.62562 0.73807 0.0
C4416 C 0.85574 0.63021 0.75574 0.0
C4417 C 0.84402 0.60786 0.72656 0.0
C4418 C 0.83363 0.60217 0.70773 0.0
C4419 C 0.83725 0.61392 0.69448 0.0
C4420 C 0.82779 0.60813 0.67657 0.0
C4421 C 0.81469 0.59061 0.67175 0.0
C4422 C 0.81101 0.57883 0.68483 0.0
C4423 C 0.82046 0.58453 0.70275 0.0
H4424 H 0.80741 0.58613 0.65786 0.0
H4425 H 0.9001 0.63436 0.83124 0.0
H4426 H 0.83636 0.65138 0.97049 0.0
H4427 H 0.85946 0.63697 0.98121 0.0
H4428 H 0.84776 0.64779 0.03695 0.0
H4429 H 0.82445 0.66231 0.02628 0.0
H4430 H 0.88494 0.65556 0.03555 0.0
H4431 H 0.833 0.60393 0.01461 0.0
H4432 H 0.80594 0.58444 0.99357 0.0
H4433 H 0.83781 0.57348 0.9513 0.0
H4434 H 0.86504 0.59315 0.97199 0.0
H4435 H 0.93973 0.58955 0.05215 0.0
H4436 H 0.91646 0.60668 0.05263 0.0
H4437 H 0.91268 0.60227 0.99346 0.0
H4438 H 0.93522 0.58487 0.99278 0.0
H4439 H 0.88064 0.58975 0.00359 0.0
H4440 H 0.93296 0.64449 0.02578 0.0
H4441 H 0.9591 0.66397 0.04811 0.0
H4442 H 0.92565 0.66816 0.09033 0.0
H4443 H 0.89934 0.64841 0.06833 0.0
C4444 C 0.83865 0.65075 0.98504 0.0
C4445 C 0.82836 0.65788 0.99744 0.0
C4446 C 0.85191 0.64248 0.99118 0.0
C4447 C 0.85532 0.64112 0.00989 0.0
C4448 C 0.8454 0.64864 0.02246 0.0
C4449 C 0.83198 0.65681 0.01628 0.0
C4450 C 0.86875 0.63108 0.01582 0.0
C4451 C 0.8839 0.64105 0.0288 0.0
C4452 C 0.86737 0.61208 0.00727 0.0
C4453 C 0.85105 0.60012 0.99481 0.0
C4454 C 0.83423 0.59748 0.00078 0.0
C4455 C 0.81886 0.58638 0.98893 0.0
C4456 C 0.82016 0.57776 0.9711 0.0
C4457 C 0.83683 0.58018 0.96511 0.0
C4458 C 0.85224 0.59128 0.9769 0.0
C4459 C 0.93397 0.59231 0.03925 0.0
C4460 C 0.93947 0.58578 0.0224 0.0
C4461 C 0.92076 0.60226 0.03958 0.0
C4462 C 0.91276 0.60583 0.02306 0.0
C4463 C 0.91859 0.59975 0.00641 0.0
C4464 C 0.93169 0.5899 0.00607 0.0
C4465 C 0.89745 0.61459 0.02239 0.0
C4466 C 0.8817 0.6042 0.01053 0.0
C4467 C 0.8983 0.63306 0.03221 0.0
C4468 C 0.91421 0.64471 0.04546 0.0
C4469 C 0.9312 0.64935 0.03988 0.0
C4470 C 0.94605 0.66049 0.05247 0.0
C4471 C 0.94405 0.66723 0.07065 0.0
C4472 C 0.92719 0.66288 0.07626 0.0
C4473 C 0.91231 0.6517 0.06374 0.0
H4474 H 0.95556 0.67589 0.08036 0.0
H4475 H 0.80824 0.56918 0.96194 0.0
H4476 H 0.16412 0.07374 0.74616 0.0
H4477 H 0.18239 0.10581 0.7458 0.0
H4478 H 0.22391 0.09753 0.78382 0.0
H4479 H 0.2053 0.06485 0.78423 0.0
H4480 H 0.21985 0.13345 0.79422 0.0
H4481 H 0.22774 0.09944 0.73669 0.0
H4482 H 0.21825 0.07802 0.70627 0.0
H4483 H 0.18922 0.11567 0.68762 0.0
H4484 H 0.19834 0.13721 0.71803 0.0
H4485 H 0.28685 0.2166 0.78441 0.0
H4486 H 0.26809 0.18467 0.78474 0.0
H4487 H 0.22716 0.1936 0.74644 0.0
H4488 H 0.24618 0.22618 0.74626 0.0
H4489 H 0.23052 0.15736 0.736 0.0
H4490 H 0.22236 0.19132 0.79305 0.0
H4491 H 0.23031 0.21219 0.82382 0.0
H4492 H 0.25862 0.17443 0.84357 0.0
H4493 H 0.25107 0.15348 0.81284 0.0
C4494 C 0.17724 0.07846 0.75435 0.0
C4495 C 0.18303 0.06615 0.76513 0.0
C4496 C 0.18785 0.09709 0.75407 0.0
C4497 C 0.20491 0.10466 0.76464 0.0
C4498 C 0.21092 0.09241 0.7754 0.0
C4499 C 0.20028 0.07346 0.77551 0.0
C4500 C 0.21592 0.12533 0.76462 0.0
C4501 C 0.22242 0.13845 0.78143 0.0
C4502 C 0.21899 0.13268 0.74807 0.0
C4503 C 0.2136 0.11986 0.72971 0.0
C4504 C 0.21923 0.1031 0.72614 0.0
C4505 C 0.21393 0.09094 0.7089 0.0
C4506 C 0.20311 0.09545 0.69503 0.0
C4507 C 0.1976 0.11218 0.69838 0.0
C4508 C 0.20284 0.12439 0.71561 0.0
C4509 C 0.27372 0.21208 0.77625 0.0
C4510 C 0.26818 0.22453 0.76555 0.0
C4511 C 0.26284 0.19352 0.77646 0.0
C4512 C 0.24582 0.18613 0.76575 0.0
C4513 C 0.2401 0.19855 0.75499 0.0
C4514 C 0.25098 0.21745 0.75503 0.0
C4515 C 0.2346 0.16549 0.76565 0.0
C4516 C 0.22802 0.15237 0.74881 0.0
C4517 C 0.23139 0.15815 0.78218 0.0
C4518 C 0.23633 0.17094 0.80056 0.0
C4519 C 0.23047 0.18758 0.80389 0.0
C4520 C 0.23485 0.1994 0.82134 0.0
C4521 C 0.24501 0.19467 0.83563 0.0
C4522 C 0.25079 0.1781 0.83249 0.0
C4523 C 0.24645 0.16625 0.81505 0.0
H4524 H 0.24836 0.20382 0.84914 0.0
H4525 H 0.19901 0.08602 0.68169 0.0
H4526 H 0.37965 0.97529 0.22503 0.0
H4527 H 0.36045 0.94292 0.22514 0.0
H4528 H 0.38108 0.94812 0.28263 0.0
H4529 H 0.39901 0.98047 0.28298 0.0
H4530 H 0.37689 0.9097 0.25295 0.0
H4531 H 0.35039 0.95499 0.28792 0.0
H4532 H 0.33801 0.98261 0.29438 0.0
H4533 H 0.30231 0.9626 0.24308 0.0
H4534 H 0.31482 0.93504 0.23619 0.0
H4535 H 0.31854 0.84966 0.29936 0.0
H4536 H 0.33882 0.87795 0.29207 0.0
H4537 H 0.30201 0.87438 0.24318 0.0
H4538 H 0.28143 0.84669 0.25078 0.0
H4539 H 0.31525 0.90934 0.26396 0.0
H4540 H 0.33777 0.85648 0.23795 0.0
H4541 H 0.34882 0.82807 0.23963 0.0
H4542 H 0.39178 0.86143 0.28182 0.0
H4543 H 0.38095 0.89003 0.28047 0.0
C4544 C 0.37968 0.96947 0.23764 0.0
C4545 C 0.39016 0.98018 0.2541 0.0
C4546 C 0.36917 0.9511 0.23761 0.0
C4547 C 0.36989 0.94346 0.25381 0.0
C4548 C 0.38076 0.95397 0.27003 0.0
C4549 C 0.3906 0.97244 0.27028 0.0
C4550 C 0.35734 0.92576 0.25496 0.0
C4551 C 0.36329 0.90931 0.25506 0.0
C4552 C 0.34 0.92587 0.25824 0.0
C4553 C 0.33399 0.94345 0.26121 0.0
C4554 C 0.34032 0.95685 0.27775 0.0
C4555 C 0.33317 0.97237 0.28158 0.0
C4556 C 0.31951 0.97447 0.26906 0.0
C4557 C 0.31303 0.96108 0.25266 0.0
C4558 C 0.3202 0.94556 0.24874 0.0
C4559 C 0.31446 0.85556 0.28761 0.0
C4560 C 0.29884 0.84611 0.2753 0.0
C4561 C 0.32623 0.87116 0.28316 0.0
C4562 C 0.32208 0.87716 0.26662 0.0
C4563 C 0.30545 0.86924 0.25567 0.0
C4564 C 0.29363 0.85388 0.26023 0.0
C4565 C 0.3344 0.89293 0.26142 0.0
C4566 C 0.32854 0.90924 0.26095 0.0
C4567 C 0.35187 0.89262 0.25843 0.0
C4568 C 0.35849 0.87541 0.25915 0.0
C4569 C 0.34953 0.85775 0.24765 0.0
C4570 C 0.35578 0.84161 0.24851 0.0
C4571 C 0.37099 0.84294 0.26083 0.0
C4572 C 0.38002 0.86043 0.27227 0.0
C4573 C 0.37386 0.87662 0.27141 0.0
H4574 H 0.37578 0.83043 0.26151 0.0
H4575 H 0.31384 0.98639 0.27214 0.0
H4576 H 0.59402 0.35634 0.57172 0.0
H4577 H 0.58642 0.38231 0.55875 0.0
H4578 H 0.53627 0.37038 0.58005 0.0
H4579 H 0.5438 0.34405 0.59318 0.0
H4580 H 0.53351 0.37787 0.54295 0.0
H4581 H 0.56945 0.40711 0.60242 0.0
H4582 H 0.59607 0.41329 0.62573 0.0
H4583 H 0.62957 0.43666 0.5876 0.0
H4584 H 0.60317 0.43035 0.56397 0.0
H4585 H 0.51626 0.46621 0.52745 0.0
H4586 H 0.5197 0.4376 0.53894 0.0
H4587 H 0.57578 0.45379 0.53385 0.0
H4588 H 0.57254 0.48286 0.52345 0.0
H4589 H 0.57395 0.44338 0.56384 0.0
H4590 H 0.54092 0.41415 0.50401 0.0
H4591 H 0.51619 0.40614 0.47818 0.0
H4592 H 0.47946 0.38137 0.51295 0.0
H4593 H 0.50393 0.3895 0.53908 0.0
C4594 C 0.58135 0.35916 0.57375 0.0
C4595 C 0.56962 0.34813 0.58375 0.0
C4596 C 0.57702 0.37409 0.56626 0.0
C4597 C 0.56084 0.3785 0.56852 0.0
C4598 C 0.54886 0.36731 0.57814 0.0
C4599 C 0.55325 0.35235 0.58579 0.0
C4600 C 0.55692 0.39524 0.56136 0.0
C4601 C 0.54216 0.39228 0.54769 0.0
C4602 C 0.56853 0.41395 0.56704 0.0
C4603 C 0.58435 0.41814 0.5814 0.0
C4604 C 0.5825 0.41348 0.59899 0.0
C4605 C 0.59755 0.41701 0.61225 0.0
C4606 C 0.61451 0.42533 0.60814 0.0
C4607 C 0.61644 0.4302 0.59077 0.0
C4608 C 0.60143 0.42668 0.57744 0.0
C4609 C 0.52928 0.46354 0.52861 0.0
C4610 C 0.54413 0.47686 0.52452 0.0
C4611 C 0.53124 0.44706 0.53511 0.0
C4612 C 0.548 0.44318 0.53717 0.0
C4613 C 0.5627 0.45631 0.53258 0.0
C4614 C 0.56083 0.47297 0.52652 0.0
C4615 C 0.55061 0.42618 0.54503 0.0
C4616 C 0.56516 0.42907 0.55897 0.0
C4617 C 0.53903 0.40736 0.53921 0.0
C4618 C 0.52424 0.40265 0.52358 0.0
C4619 C 0.52754 0.40717 0.50621 0.0
C4620 C 0.51357 0.40257 0.4915 0.0
C4621 C 0.49625 0.39331 0.49394 0.0
C4622 C 0.49287 0.38859 0.51109 0.0
C4623 C 0.50679 0.39319 0.52586 0.0
H4624 H 0.48546 0.38974 0.48253 0.0
H4625 H 0.62614 0.42803 0.61843 0.0
H4626 H 0.46015 0.74917 0.35432 0.0
H4627 H 0.43551 0.75503 0.33473 0.0
H4628 H 0.4205 0.78464 0.38306 0.0
H4629 H 0.44412 0.77775 0.40249 0.0
H4630 H 0.39213 0.76478 0.36451 0.0
H4631 H 0.44305 0.80719 0.34604 0.0
H4632 H 0.47169 0.81539 0.3338 0.0
H4633 H 0.44835 0.77529 0.28344 0.0
H4634 H 0.41961 0.76679 0.29543 0.0
H4635 H 0.32815 0.80145 0.31475 0.0
H4636 H 0.35384 0.79812 0.33488 0.0
H4637 H 0.37016 0.76821 0.28763 0.0
H4638 H 0.34554 0.77262 0.26769 0.0
H4639 H 0.39826 0.7894 0.30606 0.0
H4640 H 0.34847 0.74517 0.32529 0.0
H4641 H 0.31919 0.73788 0.33638 0.0
H4642 H 0.34051 0.7818 0.38457 0.0
H4643 H 0.3699 0.78914 0.37385 0.0
C4644 C 0.45154 0.75688 0.36069 0.0
C4645 C 0.45399 0.76269 0.38003 0.0
C4646 C 0.43749 0.76044 0.34946 0.0
C4647 C 0.42596 0.7705 0.35722 0.0
C4648 C 0.42885 0.77667 0.37652 0.0
C4649 C 0.44247 0.77269 0.38769 0.0
C4650 C 0.41049 0.77412 0.34571 0.0
C4651 C 0.39367 0.7704 0.35185 0.0
C4652 C 0.41197 0.7811 0.32889 0.0
C4653 C 0.42924 0.78625 0.32169 0.0
C4654 C 0.44407 0.80006 0.3324 0.0
C4655 C 0.4603 0.80478 0.32549 0.0
C4656 C 0.46185 0.79584 0.30787 0.0
C4657 C 0.44714 0.7822 0.29709 0.0
C4658 C 0.43087 0.77746 0.30392 0.0
C4659 C 0.33721 0.79411 0.30877 0.0
C4660 C 0.33472 0.78732 0.28958 0.0
C4661 C 0.35192 0.79207 0.3203 0.0
C4662 C 0.36413 0.78264 0.31299 0.0
C4663 C 0.36129 0.77568 0.29384 0.0
C4664 C 0.34701 0.77813 0.28238 0.0
C4665 C 0.37994 0.77995 0.32483 0.0
C4666 C 0.3968 0.78382 0.31875 0.0
C4667 C 0.37853 0.77306 0.34167 0.0
C4668 C 0.36126 0.7678 0.3487 0.0
C4669 C 0.34689 0.75316 0.3383 0.0
C4670 C 0.33029 0.74901 0.34452 0.0
C4671 C 0.32796 0.75941 0.36111 0.0
C4672 C 0.34231 0.77371 0.37173 0.0
C4673 C 0.35896 0.77782 0.36564 0.0
H4674 H 0.31498 0.75642 0.36564 0.0
H4675 H 0.47443 0.7995 0.30256 0.0
H4676 H 0.0916 0.74682 0.07129 0.0
H4677 H 0.08398 0.71252 0.06051 0.0
H4678 H 0.02909 0.70777 0.06787 0.0
H4679 H 0.03697 0.74249 0.07981 0.0
H4680 H 0.03959 0.67882 0.07915 0.0
H4681 H 0.04084 0.70439 0.02382 0.0
H4682 H 0.0522 0.72592 0.00257 0.0
H4683 H 0.09968 0.70671 0.00323 0.0
H4684 H 0.08867 0.6852 0.0246 0.0
H4685 H 0.01646 0.5863 0.02028 0.0
H4686 H 0.01907 0.61956 0.03295 0.0
H4687 H 0.07646 0.63161 0.04137 0.0
H4688 H 0.07407 0.59799 0.02884 0.0
H4689 H 0.06063 0.65584 0.02097 0.0
H4690 H 0.0579 0.63008 0.07757 0.0
H4691 H 0.04392 0.60658 0.09595 0.0
H4692 H 0.99575 0.6243 0.08988 0.0
H4693 H 0.00938 0.64776 0.07124 0.0
C4694 C 0.07784 0.73858 0.07043 0.0
C4695 C 0.0648 0.74734 0.07607 0.0
C4696 C 0.0735 0.71894 0.06427 0.0
C4697 C 0.05589 0.70767 0.06295 0.0
C4698 C 0.04275 0.71628 0.06867 0.0
C4699 C 0.04721 0.73605 0.07534 0.0
C4700 C 0.05164 0.68695 0.0555 0.0
C4701 C 0.04389 0.67376 0.06627 0.0
C4702 C 0.05727 0.68034 0.03871 0.0
C4703 C 0.06396 0.69327 0.02587 0.0
C4704 C 0.05375 0.70485 0.01951 0.0
C4705 C 0.06011 0.71702 0.00742 0.0
C4706 C 0.07666 0.7177 0.00157 0.0
C4707 C 0.08686 0.70617 0.00776 0.0
C4708 C 0.08055 0.69395 0.01983 0.0
C4709 C 0.0297 0.59596 0.02471 0.0
C4710 C 0.04514 0.58959 0.02343 0.0
C4711 C 0.0311 0.6149 0.03213 0.0
C4712 C 0.0479 0.62777 0.03822 0.0
C4713 C 0.06338 0.62164 0.0368 0.0
C4714 C 0.06201 0.60256 0.02957 0.0
C4715 C 0.04928 0.64798 0.04489 0.0
C4716 C 0.0563 0.66098 0.03381 0.0
C4717 C 0.0426 0.6542 0.0611 0.0
C4718 C 0.03463 0.64061 0.07291 0.0
C4719 C 0.0443 0.62893 0.08009 0.0
C4720 C 0.03645 0.61561 0.09056 0.0
C4721 C 0.01895 0.61393 0.09406 0.0
C4722 C 0.00931 0.62563 0.08717 0.0
C4723 C 0.01711 0.63897 0.07668 0.0
H4724 H 0.01287 0.60358 0.10213 0.0
H4725 H 0.08157 0.72714 0.99222 0.0
H4726 H 0.06112 0.31097 0.87862 0.0
H4727 H 0.08974 0.3145 0.86714 0.0
H4728 H 0.08648 0.25539 0.86917 0.0
H4729 H 0.05768 0.25173 0.88078 0.0
H4730 H 0.12079 0.27953 0.88263 0.0
H4731 H 0.07706 0.26804 0.82848 0.0
H4732 H 0.05188 0.27393 0.80963 0.0
H4733 H 0.08295 0.33136 0.8102 0.0
H4734 H 0.10825 0.32589 0.82928 0.0
H4735 H 0.18279 0.26385 0.82139 0.0
H4736 H 0.1575 0.26364 0.83823 0.0
H4737 H 0.16108 0.32189 0.83223 0.0
H4738 H 0.18667 0.32237 0.8156 0.0
H4739 H 0.12737 0.29984 0.82211 0.0
H4740 H 0.17175 0.31141 0.87435 0.0
H4741 H 0.19725 0.30634 0.8934 0.0
H4742 H 0.1658 0.25028 0.89713 0.0
H4743 H 0.14019 0.25489 0.87784 0.0
C4744 C 0.06639 0.29864 0.87658 0.0
C4745 C 0.05689 0.28098 0.88046 0.0
C4746 C 0.08284 0.30071 0.87001 0.0
C4747 C 0.09031 0.28519 0.86712 0.0
C4748 C 0.08103 0.2676 0.87125 0.0
C4749 C 0.06446 0.26547 0.87774 0.0
C4750 C 0.10748 0.28726 0.85924 0.0
C4751 C 0.12216 0.28373 0.86929 0.0
C4752 C 0.10956 0.29335 0.84211 0.0
C4753 C 0.09448 0.29661 0.83044 0.0
C4754 C 0.07848 0.28196 0.82468 0.0
C4755 C 0.06419 0.28522 0.81395 0.0
C4756 C 0.0658 0.30302 0.80876 0.0
C4757 C 0.08172 0.31759 0.81425 0.0
C4758 C 0.09604 0.31441 0.82501 0.0
C4759 C 0.17854 0.27681 0.82397 0.0
C4760 C 0.18685 0.29309 0.81692 0.0
C4761 C 0.16395 0.27664 0.83362 0.0
C4762 C 0.15727 0.29274 0.83656 0.0
C4763 C 0.16584 0.30921 0.83005 0.0
C4764 C 0.18048 0.30943 0.82045 0.0
C4765 C 0.1407 0.29191 0.84536 0.0
C4766 C 0.12609 0.29571 0.83549 0.0
C4767 C 0.13878 0.2862 0.8627 0.0
C4768 C 0.15409 0.28342 0.87448 0.0
C4769 C 0.17031 0.29794 0.87911 0.0
C4770 C 0.18478 0.29516 0.88997 0.0
C4771 C 0.18316 0.27798 0.89642 0.0
C4772 C 0.16704 0.26357 0.89209 0.0
C4773 C 0.15253 0.26627 0.8812 0.0
H4774 H 0.19438 0.27584 0.90481 0.0
H4775 H 0.05472 0.30552 0.80045 0.0
H4776 H 0.55243 0.77561 0.90616 0.0
H4777 H 0.53857 0.74399 0.91245 0.0
H4778 H 0.58998 0.74096 0.93704 0.0
H4779 H 0.60408 0.77259 0.92996 0.0
H4780 H 0.57076 0.70766 0.91477 0.0
H4781 H 0.55891 0.75471 0.96304 0.0
H4782 H 0.5466 0.78183 0.97281 0.0
H4783 H 0.49444 0.74843 0.94601 0.0
H4784 H 0.5065 0.7212 0.93585 0.0
H4785 H 0.56484 0.65201 0.98027 0.0
H4786 H 0.56776 0.67798 0.96301 0.0
H4787 H 0.51071 0.66153 0.94633 0.0
H4788 H 0.50767 0.63538 0.96427 0.0
H4789 H 0.52512 0.70099 0.9572 0.0
H4790 H 0.53595 0.65215 0.91354 0.0
H4791 H 0.54822 0.62539 0.90233 0.0
H4792 H 0.60153 0.66207 0.91891 0.0
H4793 H 0.5896 0.68898 0.93035 0.0
C4794 C 0.56076 0.76807 0.9128 0.0
C4795 C 0.57923 0.77634 0.91779 0.0
C4796 C 0.55283 0.75012 0.91644 0.0
C4797 C 0.5632 0.74038 0.92551 0.0
C4798 C 0.58179 0.74842 0.93009 0.0
C4799 C 0.58982 0.76637 0.92615 0.0
C4800 C 0.55469 0.72192 0.93053 0.0
C4801 C 0.56083 0.70618 0.92409 0.0
C4802 C 0.54097 0.71984 0.94181 0.0
C4803 C 0.53363 0.73596 0.94858 0.0
C4804 C 0.54482 0.75317 0.9592 0.0
C4805 C 0.5379 0.76856 0.96479 0.0
C4806 C 0.51976 0.76687 0.96 0.0
C4807 C 0.50849 0.74973 0.9497 0.0
C4808 C 0.51536 0.7343 0.94404 0.0
C4809 C 0.55292 0.65382 0.97282 0.0
C4810 C 0.53608 0.6416 0.97332 0.0
C4811 C 0.55459 0.66861 0.96293 0.0
C4812 C 0.53951 0.67134 0.953 0.0
C4813 C 0.52251 0.65947 0.95376 0.0
C4814 C 0.5208 0.64463 0.96395 0.0
C4815 C 0.54208 0.68704 0.94237 0.0
C4816 C 0.53472 0.70228 0.94753 0.0
C4817 C 0.5546 0.68869 0.92974 0.0
C4818 C 0.56186 0.67256 0.92282 0.0
C4819 C 0.55029 0.65447 0.91486 0.0
C4820 C 0.55718 0.63929 0.90845 0.0
C4821 C 0.57564 0.64203 0.90991 0.0
C4822 C 0.58724 0.65997 0.91775 0.0
C4823 C 0.58041 0.67521 0.92415 0.0
H4824 H 0.58095 0.63025 0.90496 0.0
H4825 H 0.51443 0.77881 0.96431 0.0
H4826 H 0.03502 0.73797 0.70478 0.0
H4827 H 0.06684 0.74846 0.71721 0.0
H4828 H 0.07797 0.77749 0.67141 0.0
H4829 H 0.04618 0.76746 0.65908 0.0
H4830 H 0.09677 0.74795 0.67868 0.0
H4831 H 0.08578 0.80636 0.70674 0.0
H4832 H 0.06822 0.82479 0.72381 0.0
H4833 H 0.07646 0.79858 0.77085 0.0
H4834 H 0.09397 0.77985 0.75397 0.0
H4835 H 0.1882 0.77981 0.71436 0.0
H4836 H 0.15909 0.78406 0.70366 0.0
H4837 H 0.13674 0.75691 0.74703 0.0
H4838 H 0.1657 0.7522 0.75755 0.0
H4839 H 0.12466 0.78998 0.7391 0.0
H4840 H 0.13208 0.72927 0.71079 0.0
H4841 H 0.14585 0.70691 0.69318 0.0
H4842 H 0.14147 0.73404 0.6461 0.0
H4843 H 0.12796 0.75682 0.66356 0.0
C4844 C 0.04426 0.74679 0.69754 0.0
C4845 C 0.03835 0.75194 0.68106 0.0
C4846 C 0.06228 0.75282 0.70465 0.0
C4847 C 0.07442 0.76377 0.69517 0.0
C4848 C 0.06856 0.76917 0.67886 0.0
C4849 C 0.05052 0.76346 0.67192 0.0
C4850 C 0.09342 0.76804 0.70158 0.0
C4851 C 0.10314 0.75756 0.69159 0.0
C4852 C 0.10116 0.7801 0.71866 0.0
C4853 C 0.09115 0.79171 0.7291 0.0
C4854 C 0.08381 0.8045 0.72072 0.0
C4855 C 0.07388 0.815 0.73035 0.0
C4856 C 0.07123 0.81285 0.7484 0.0
C4857 C 0.07856 0.80025 0.75687 0.0
C4858 C 0.08854 0.78974 0.74731 0.0
C4859 C 0.1771 0.77503 0.72174 0.0
C4860 C 0.17893 0.76541 0.73652 0.0
C4861 C 0.16063 0.77754 0.7157 0.0
C4862 C 0.14598 0.77058 0.72452 0.0
C4863 C 0.14808 0.76238 0.7402 0.0
C4864 C 0.16454 0.75973 0.74617 0.0
C4865 C 0.12811 0.7699 0.71617 0.0
C4866 C 0.11855 0.78087 0.72588 0.0
C4867 C 0.12041 0.75809 0.69884 0.0
C4868 C 0.12939 0.74504 0.68864 0.0
C4869 C 0.13439 0.73074 0.69682 0.0
C4870 C 0.14206 0.71791 0.68682 0.0
C4871 C 0.14463 0.71912 0.66857 0.0
C4872 C 0.13956 0.73318 0.66027 0.0
C4873 C 0.13193 0.74607 0.67022 0.0
H4874 H 0.15048 0.70912 0.66082 0.0
H4875 H 0.06349 0.82096 0.75582 0.0
H4876 H 0.1057 0.37824 0.42393 0.0
H4877 H 0.10102 0.40796 0.44013 0.0
H4878 H 0.04929 0.39483 0.40683 0.0
H4879 H 0.05437 0.36625 0.39004 0.0
H4880 H 0.06206 0.42966 0.41186 0.0
H4881 H 0.05598 0.38317 0.45116 0.0
H4882 H 0.06402 0.36063 0.46979 0.0
H4883 H 0.10579 0.40645 0.50339 0.0
H4884 H 0.0982 0.4292 0.48478 0.0
H4885 H 0.02129 0.48381 0.47549 0.0
H4886 H 0.02852 0.45844 0.45465 0.0
H4887 H 0.08283 0.4766 0.48269 0.0
H4888 H 0.0755 0.50142 0.50389 0.0
H4889 H 0.06818 0.4393 0.48027 0.0
H4890 H 0.07171 0.48443 0.43495 0.0
H4891 H 0.05933 0.50297 0.4144 0.0
H4892 H 0.01441 0.45434 0.39317 0.0
H4893 H 0.02691 0.43526 0.41295 0.0
C4894 C 0.09366 0.38216 0.41973 0.0
C4895 C 0.08025 0.36993 0.40603 0.0
C4896 C 0.09087 0.39889 0.42914 0.0
C4897 C 0.0746 0.40322 0.425 0.0
C4898 C 0.0619 0.3917 0.41033 0.0
C4899 C 0.06479 0.37533 0.40079 0.0
C4900 C 0.07021 0.41926 0.43617 0.0
C4901 C 0.06336 0.43169 0.42684 0.0
C4902 C 0.07164 0.4217 0.45567 0.0
C4903 C 0.07672 0.40784 0.46635 0.0
C4904 C 0.06706 0.38839 0.46234 0.0
C4905 C 0.07149 0.37558 0.47295 0.0
C4906 C 0.08546 0.38209 0.48771 0.0
C4907 C 0.09503 0.40141 0.4919 0.0
C4908 C 0.09068 0.41426 0.48132 0.0
C4909 C 0.03476 0.48235 0.47707 0.0
C4910 C 0.04784 0.49423 0.4913 0.0
C4911 C 0.03891 0.46806 0.46509 0.0
C4912 C 0.05624 0.46589 0.4671 0.0
C4913 C 0.06938 0.47815 0.48101 0.0
C4914 C 0.06518 0.49219 0.49312 0.0
C4915 C 0.06051 0.44984 0.45592 0.0
C4916 C 0.06713 0.43728 0.4653 0.0
C4917 C 0.05808 0.44669 0.43645 0.0
C4918 C 0.0501 0.45857 0.42559 0.0
C4919 C 0.0591 0.4778 0.42606 0.0
C4920 C 0.05209 0.48837 0.41451 0.0
C4921 C 0.03595 0.47998 0.40277 0.0
C4922 C 0.02685 0.46089 0.40237 0.0
C4923 C 0.03395 0.45015 0.41362 0.0
H4924 H 0.03058 0.48821 0.39387 0.0
H4925 H 0.08882 0.37217 0.49595 0.0
H4926 H 0.42908 0.23165 0.15652 0.0
H4927 H 0.40448 0.23798 0.17217 0.0
H4928 H 0.44242 0.27918 0.21514 0.0
H4929 H 0.46706 0.27245 0.19961 0.0
H4930 H 0.41644 0.25221 0.22786 0.0
H4931 H 0.4203 0.29457 0.18251 0.0
H4932 H 0.42141 0.29972 0.1504 0.0
H4933 H 0.36986 0.25939 0.13319 0.0
H4934 H 0.36856 0.25379 0.16516 0.0
H4935 H 0.35285 0.29641 0.26725 0.0
H4936 H 0.37924 0.29254 0.25306 0.0
H4937 H 0.34522 0.24729 0.21056 0.0
H4938 H 0.31922 0.25067 0.22483 0.0
H4939 H 0.36968 0.27726 0.19809 0.0
H4940 H 0.36435 0.23266 0.23902 0.0
H4941 H 0.36178 0.22143 0.26862 0.0
H4942 H 0.41352 0.25903 0.2916 0.0
H4943 H 0.41621 0.27087 0.26223 0.0
C4944 C 0.43197 0.24232 0.1691 0.0
C4945 C 0.44953 0.252 0.1769 0.0
C4946 C 0.41809 0.24581 0.17801 0.0
C4947 C 0.42188 0.25914 0.19458 0.0
C4948 C 0.43949 0.26894 0.20226 0.0
C4949 C 0.45338 0.26534 0.19338 0.0
C4950 C 0.40736 0.26272 0.204 0.0
C4951 C 0.40638 0.25808 0.22162 0.0
C4952 C 0.39404 0.26951 0.19521 0.0
C4953 C 0.39435 0.27376 0.17622 0.0
C4954 C 0.40919 0.28683 0.17188 0.0
C4955 C 0.40987 0.28979 0.1537 0.0
C4956 C 0.39571 0.27988 0.13976 0.0
C4957 C 0.3808 0.26707 0.14401 0.0
C4958 C 0.38007 0.26403 0.16216 0.0
C4959 C 0.35125 0.28558 0.25502 0.0
C4960 C 0.33441 0.27354 0.24718 0.0
C4961 C 0.36611 0.28342 0.24699 0.0
C4962 C 0.36385 0.26962 0.23096 0.0
C4963 C 0.34697 0.25791 0.22301 0.0
C4964 C 0.3323 0.25973 0.23122 0.0
C4965 C 0.37903 0.26727 0.22217 0.0
C4966 C 0.37998 0.27186 0.20455 0.0
C4967 C 0.39201 0.25988 0.23073 0.0
C4968 C 0.39033 0.25297 0.24852 0.0
C4969 C 0.37505 0.23881 0.25047 0.0
C4970 C 0.37359 0.23226 0.26719 0.0
C4971 C 0.38743 0.23959 0.28202 0.0
C4972 C 0.40277 0.25344 0.28013 0.0
C4973 C 0.40426 0.2601 0.26345 0.0
H4974 H 0.38631 0.23447 0.29494 0.0
H4975 H 0.3963 0.28214 0.12568 0.0
H4976 H 0.64058 0.4991 0.33289 0.0
H4977 H 0.62826 0.50054 0.36246 0.0
H4978 H 0.5848 0.51883 0.33778 0.0
H4979 H 0.59699 0.51769 0.30886 0.0
H4980 H 0.59182 0.53865 0.36896 0.0
H4981 H 0.58139 0.47171 0.35226 0.0
H4982 H 0.5881 0.4409 0.34277 0.0
H4983 H 0.62516 0.45179 0.39265 0.0
H4984 H 0.6188 0.48279 0.40236 0.0
H4985 H 0.53343 0.52188 0.43827 0.0
H4986 H 0.54815 0.51996 0.41066 0.0
H4987 H 0.59583 0.51781 0.44365 0.0
H4988 H 0.58109 0.52031 0.47175 0.0
H4989 H 0.5877 0.49028 0.4094 0.0
H4990 H 0.59369 0.55814 0.4256 0.0
H4991 H 0.58327 0.58709 0.43267 0.0
H4992 H 0.54921 0.57133 0.38032 0.0
H4993 H 0.55924 0.54214 0.37303 0.0
C4994 C 0.62827 0.50316 0.33361 0.0
C4995 C 0.62007 0.50826 0.31789 0.0
C4996 C 0.62107 0.50402 0.35079 0.0
C4997 C 0.60526 0.50991 0.3531 0.0
C4998 C 0.597 0.5145 0.3372 0.0
C4999 C 0.60411 0.51369 0.32026 0.0
C5000 C 0.59742 0.51188 0.37171 0.0
C5001 C 0.59088 0.52781 0.37754 0.0
C5002 C 0.59583 0.49817 0.38368 0.0
C5003 C 0.59982 0.47968 0.37791 0.0
C5004 C 0.5911 0.46761 0.36113 0.0
C5005 C 0.5948 0.4501 0.35572 0.0
C5006 C 0.6071 0.44443 0.36706 0.0
C5007 C 0.61567 0.45623 0.38386 0.0
C5008 C 0.61201 0.47377 0.38933 0.0
C5009 C 0.54716 0.52123 0.4399 0.0
C5010 C 0.55588 0.52147 0.45774 0.0
C5011 C 0.55569 0.52011 0.42381 0.0
C5012 C 0.57341 0.51873 0.42444 0.0
C5013 C 0.58223 0.51885 0.44227 0.0
C5014 C 0.57377 0.52045 0.45858 0.0
C5015 C 0.58235 0.51708 0.40659 0.0
C5016 C 0.58888 0.50115 0.40084 0.0
C5017 C 0.58339 0.53048 0.39435 0.0
C5018 C 0.5771 0.54785 0.39886 0.0
C5019 C 0.58384 0.56074 0.41568 0.0
C5020 C 0.57803 0.57722 0.4197 0.0
C5021 C 0.56556 0.58102 0.40697 0.0
C5022 C 0.55886 0.56835 0.39018 0.0
C5023 C 0.56461 0.55184 0.38609 0.0
H5024 H 0.56111 0.59381 0.4101 0.0
H5025 H 0.60995 0.43086 0.36286 0.0
H5026 H 0.29371 0.90792 0.06023 0.0
H5027 H 0.30275 0.90289 0.09126 0.0
H5028 H 0.30809 0.84735 0.068 0.0
H5029 H 0.29912 0.85225 0.03695 0.0
H5030 H 0.29056 0.84794 0.09817 0.0
H5031 H 0.34305 0.88539 0.07761 0.0
H5032 H 0.36049 0.91402 0.06745 0.0
H5033 H 0.35887 0.94886 0.11912 0.0
H5034 H 0.34102 0.92051 0.12943 0.0
H5035 H 0.33882 0.81515 0.16028 0.0
H5036 H 0.33504 0.82916 0.13305 0.0
H5037 H 0.33577 0.88243 0.16749 0.0
H5038 H 0.34019 0.86863 0.19511 0.0
H5039 H 0.34835 0.88735 0.13458 0.0
H5040 H 0.29488 0.84899 0.15406 0.0
H5041 H 0.27261 0.8213 0.16077 0.0
H5042 H 0.27551 0.7877 0.10885 0.0
H5043 H 0.29782 0.81509 0.10191 0.0
C5044 C 0.29618 0.89434 0.0618 0.0
C5045 C 0.29563 0.88032 0.04631 0.0
C5046 C 0.30165 0.89171 0.07945 0.0
C5047 C 0.30639 0.875 0.08164 0.0
C5048 C 0.30461 0.86043 0.06635 0.0
C5049 C 0.29931 0.86311 0.04873 0.0
C5050 C 0.3131 0.87222 0.09983 0.0
C5051 C 0.30327 0.85643 0.10612 0.0
C5052 C 0.32936 0.88391 0.11026 0.0
C5053 C 0.34032 0.90088 0.10412 0.0
C5054 C 0.34617 0.89919 0.08671 0.0
C5055 C 0.35616 0.91537 0.08093 0.0
C5056 C 0.36053 0.93328 0.09252 0.0
C5057 C 0.35526 0.93501 0.11006 0.0
C5058 C 0.3452 0.91889 0.11587 0.0
C5059 C 0.33933 0.83021 0.16223 0.0
C5060 C 0.33912 0.84065 0.17976 0.0
C5061 C 0.33679 0.83806 0.14659 0.0
C5062 C 0.33422 0.85638 0.14843 0.0
C5063 C 0.33728 0.86803 0.16594 0.0
C5064 C 0.33997 0.86021 0.18166 0.0
C5065 C 0.32624 0.8623 0.13235 0.0
C5066 C 0.33565 0.87887 0.12667 0.0
C5067 C 0.30962 0.85115 0.12217 0.0
C5068 C 0.29823 0.834 0.12763 0.0
C5069 C 0.29107 0.83556 0.14429 0.0
C5070 C 0.27833 0.81996 0.14806 0.0
C5071 C 0.27268 0.80274 0.13528 0.0
C5072 C 0.27992 0.801 0.11879 0.0
C5073 C 0.29263 0.81653 0.11495 0.0
H5074 H 0.26266 0.79078 0.13812 0.0
H5075 H 0.36813 0.9458 0.08796 0.0
H5076 H 0.95706 0.5494 0.82781 0.0
H5077 H 0.97542 0.54896 0.8566 0.0
H5078 H 0.94889 0.489 0.85254 0.0
H5079 H 0.93097 0.48922 0.8234 0.0
H5080 H 0.94919 0.5179 0.88687 0.0
H5081 H 0.98572 0.49318 0.84681 0.0
H5082 H 0.00398 0.49153 0.82161 0.0
H5083 H 0.03996 0.54596 0.84736 0.0
H5084 H 0.02175 0.5481 0.87255 0.0
H5085 H 0.00327 0.50423 0.96381 0.0
H5086 H 0.98438 0.50227 0.93493 0.0
H5087 H 0.02001 0.55458 0.92603 0.0
H5088 H 0.03936 0.55619 0.95469 0.0
H5089 H 0.01458 0.5266 0.89737 0.0
H5090 H 0.9778 0.5525 0.93668 0.0
H5091 H 0.95985 0.55456 0.96211 0.0
H5092 H 0.92456 0.49922 0.93804 0.0
H5093 H 0.94245 0.49669 0.9126 0.0
C5094 C 0.95512 0.53625 0.83324 0.0
C5095 C 0.94253 0.51945 0.82394 0.0
C5096 C 0.96572 0.53592 0.84936 0.0
C5097 C 0.96346 0.51889 0.85629 0.0
C5098 C 0.95078 0.50213 0.84707 0.0
C5099 C 0.94052 0.50234 0.83072 0.0
C5100 C 0.97303 0.51927 0.87428 0.0
C5101 C 0.96345 0.51949 0.88927 0.0
C5102 C 0.99161 0.52182 0.87701 0.0
C5103 C 0.00217 0.52094 0.86144 0.0
C5104 C 0.99734 0.50496 0.84694 0.0
C5105 C 0.00774 0.50389 0.8327 0.0
C5106 C 0.02308 0.51867 0.83285 0.0
C5107 C 0.02805 0.53455 0.84723 0.0
C5108 C 0.01768 0.53569 0.86149 0.0
C5109 C 0.00693 0.5154 0.95576 0.0
C5110 C 0.02279 0.5302 0.96109 0.0
C5111 C 0.99608 0.51436 0.93942 0.0
C5112 C 1.00085 0.52833 0.92854 0.0
C5113 C 0.01625 0.54366 0.93435 0.0
C5114 C 0.02726 0.54455 0.95057 0.0
C5115 C 0.99086 0.52584 0.91016 0.0
C5116 C 1.00032 0.52505 0.89505 0.0
C5117 C 0.97219 0.52296 0.90733 0.0
C5118 C 0.96161 0.52431 0.92284 0.0
C5119 C 0.96634 0.54066 0.93692 0.0
C5120 C 0.95615 0.54194 0.95132 0.0
C5121 C 0.94112 0.527 0.95173 0.0
C5122 C 0.93623 0.51076 0.93773 0.0
C5123 C 0.94639 0.50941 0.92332 0.0
H5124 H 0.93323 0.52803 0.96287 0.0
H5125 H 0.03115 0.51778 0.82184 0.0
H5126 H 0.29874 0.25156 0.55164 0.0
H5127 H 0.29997 0.26005 0.58532 0.0
H5128 H 0.283 0.20015 0.58849 0.0
H5129 H 0.28256 0.19159 0.55502 0.0
H5130 H 0.26142 0.23015 0.60356 0.0
H5131 H 0.31728 0.21252 0.60807 0.0
H5132 H 0.34692 0.21382 0.59882 0.0
H5133 H 0.36312 0.27491 0.61695 0.0
H5134 H 0.33365 0.27389 0.62617 0.0
H5135 H 0.26429 0.23974 0.70102 0.0
H5136 H 0.26582 0.22898 0.66832 0.0
H5137 H 0.30529 0.2821 0.6682 0.0
H5138 H 0.30455 0.29221 0.7012 0.0
H5139 H 0.31528 0.25399 0.65117 0.0
H5140 H 0.25987 0.27186 0.64779 0.0
H5141 H 0.23028 0.27093 0.65704 0.0
H5142 H 0.21252 0.21027 0.63664 0.0
H5143 H 0.24209 0.21083 0.62745 0.0
C5144 C 0.29581 0.24026 0.55966 0.0
C5145 C 0.29075 0.22096 0.55089 0.0
C5146 C 0.29639 0.24509 0.57878 0.0
C5147 C 0.2914 0.23068 0.5892 0.0
C5148 C 0.28688 0.2114 0.58058 0.0
C5149 C 0.28683 0.20656 0.56156 0.0
C5150 C 0.29 0.23584 0.60895 0.0
C5151 C 0.27312 0.23514 0.61407 0.0
C5152 C 0.3053 0.24263 0.62243 0.0
C5153 C 0.32325 0.24316 0.61759 0.0
C5154 C 0.32719 0.22621 0.60999 0.0
C5155 C 0.34398 0.22688 0.60479 0.0
C5156 C 0.35693 0.24441 0.60721 0.0
C5157 C 0.35318 0.26129 0.61505 0.0
C5158 C 0.33643 0.26068 0.6203 0.0
C5159 C 0.27302 0.24916 0.69382 0.0
C5160 C 0.28411 0.26684 0.70329 0.0
C5161 C 0.27393 0.24305 0.67521 0.0
C5162 C 0.28548 0.25487 0.66572 0.0
C5163 C 0.2963 0.27275 0.67522 0.0
C5164 C 0.29577 0.27859 0.69395 0.0
C5165 C 0.28662 0.24846 0.64599 0.0
C5166 C 0.30348 0.24897 0.64079 0.0
C5167 C 0.27124 0.24155 0.63243 0.0
C5168 C 0.25319 0.24137 0.637 0.0
C5169 C 0.24964 0.25833 0.64526 0.0
C5170 C 0.23289 0.25787 0.65052 0.0
C5171 C 0.21954 0.24055 0.64745 0.0
C5172 C 0.22287 0.22368 0.639 0.0
C5173 C 0.2396 0.22407 0.63371 0.0
H5174 H 0.2066 0.2402 0.65161 0.0
H5175 H 0.36981 0.24484 0.60294 0.0
H5176 H 0.64337 0.52029 0.20505 0.0
H5177 H 0.63087 0.52398 0.17433 0.0
H5178 H 0.57938 0.48952 0.18113 0.0
H5179 H 0.59175 0.48638 0.21204 0.0
H5180 H 0.58493 0.48069 0.14524 0.0
H5181 H 0.58691 0.53671 0.18674 0.0
H5182 H 0.59929 0.56561 0.21081 0.0
H5183 H 0.6356 0.59005 0.17551 0.0
H5184 H 0.62362 0.56111 0.15129 0.0
H5185 H 0.53586 0.50232 0.06826 0.0
H5186 H 0.5469 0.49836 0.09907 0.0
H5187 H 0.59493 0.54331 0.10008 0.0
H5188 H 0.58269 0.5487 0.07006 0.0
H5189 H 0.59072 0.5462 0.13266 0.0
H5190 H 0.58762 0.48415 0.09179 0.0
H5191 H 0.57035 0.45547 0.06902 0.0
H5192 H 0.53078 0.44367 0.10506 0.0
H5193 H 0.54798 0.47198 0.12815 0.0
C5194 C 0.62953 0.51292 0.19978 0.0
C5195 C 0.61884 0.50242 0.21104 0.0
C5196 C 0.62224 0.51532 0.18219 0.0
C5197 C 0.60397 0.50716 0.17502 0.0
C5198 C 0.59346 0.496 0.18595 0.0
C5199 C 0.60065 0.494 0.2037 0.0
C5200 C 0.59574 0.51068 0.15659 0.0
C5201 C 0.58628 0.49508 0.14261 0.0
C5202 C 0.597 0.52934 0.1527 0.0
C5203 C 0.60457 0.5466 0.16732 0.0
C5204 C 0.59771 0.54813 0.1842 0.0
C5205 C 0.60461 0.56454 0.19785 0.0
C5206 C 0.61828 0.57962 0.19473 0.0
C5207 C 0.62505 0.57832 0.17793 0.0
C5208 C 0.61821 0.56191 0.16423 0.0
C5209 C 0.54875 0.51142 0.07508 0.0
C5210 C 0.55833 0.52578 0.06645 0.0
C5211 C 0.55539 0.50888 0.09279 0.0
C5212 C 0.57246 0.51976 0.10221 0.0
C5213 C 0.58188 0.53436 0.09355 0.0
C5214 C 0.57486 0.53746 0.07618 0.0
C5215 C 0.58042 0.51617 0.12087 0.0
C5216 C 0.58974 0.53179 0.13505 0.0
C5217 C 0.57874 0.49753 0.12512 0.0
C5218 C 0.56905 0.48008 0.11164 0.0
C5219 C 0.57531 0.47531 0.09487 0.0
C5220 C 0.56554 0.45915 0.08193 0.0
C5221 C 0.5495 0.44781 0.08565 0.0
C5222 C 0.54319 0.45251 0.10225 0.0
C5223 C 0.55303 0.46845 0.11533 0.0
H5224 H 0.54193 0.43532 0.07578 0.0
H5225 H 0.62358 0.59234 0.2053 0.0
H5226 H 0.30273 0.86056 0.96492 0.0
H5227 H 0.30459 0.84262 0.93478 0.0
H5228 H 0.32707 0.89571 0.91675 0.0
H5229 H 0.32561 0.91371 0.94726 0.0
H5230 H 0.29445 0.8711 0.8961 0.0
H5231 H 0.35238 0.86767 0.92069 0.0
H5232 H 0.37349 0.86121 0.94428 0.0
H5233 H 0.34326 0.80215 0.93452 0.0
H5234 H 0.32175 0.80833 0.91112 0.0
H5235 H 0.29947 0.82663 0.80666 0.0
H5236 H 0.30582 0.846 0.83762 0.0
H5237 H 0.29383 0.79466 0.8611 0.0
H5238 H 0.28748 0.77506 0.82994 0.0
H5239 H 0.32367 0.81963 0.87919 0.0
H5240 H 0.26433 0.82079 0.86232 0.0
H5241 H 0.23589 0.82589 0.84972 0.0
H5242 H 0.26214 0.88497 0.85057 0.0
H5243 H 0.29079 0.88019 0.86301 0.0
C5244 C 0.30824 0.86828 0.95451 0.0
C5245 C 0.31377 0.8883 0.95792 0.0
C5246 C 0.30953 0.8581 0.93752 0.0
C5247 C 0.31617 0.86794 0.92381 0.0
C5248 C 0.32217 0.88801 0.9274 0.0
C5249 C 0.3212 0.8982 0.9446 0.0
C5250 C 0.31408 0.85731 0.90496 0.0
C5251 C 0.30125 0.86026 0.89207 0.0
C5252 C 0.32215 0.84239 0.90054 0.0
C5253 C 0.3354 0.83849 0.91418 0.0
C5254 C 0.35018 0.85332 0.92363 0.0
C5255 C 0.36222 0.84971 0.93698 0.0
C5256 C 0.35971 0.83128 0.94091 0.0
C5257 C 0.34519 0.81641 0.93145 0.0
C5258 C 0.33308 0.81996 0.91812 0.0
C5259 C 0.2982 0.81946 0.81842 0.0
C5260 C 0.29295 0.79939 0.81603 0.0
C5261 C 0.30169 0.83054 0.83605 0.0
C5262 C 0.30001 0.82171 0.85152 0.0
C5263 C 0.29509 0.80166 0.84922 0.0
C5264 C 0.29151 0.79052 0.83152 0.0
C5265 C 0.30406 0.83359 0.87009 0.0
C5266 C 0.31719 0.83081 0.88295 0.0
C5267 C 0.29574 0.84827 0.87483 0.0
C5268 C 0.27973 0.85009 0.86351 0.0
C5269 C 0.26416 0.83472 0.85932 0.0
C5270 C 0.24795 0.83763 0.85245 0.0
C5271 C 0.24718 0.85584 0.84977 0.0
C5272 C 0.26274 0.87094 0.85294 0.0
C5273 C 0.27897 0.86813 0.85981 0.0
H5274 H 0.23452 0.85824 0.84513 0.0
H5275 H 0.36903 0.82852 0.95127 0.0
H5276 H 0.93354 0.52463 0.74189 0.0
H5277 H 0.92761 0.51632 0.70785 0.0
H5278 H 0.98153 0.51218 0.70701 0.0
H5279 H 0.98731 0.51984 0.74052 0.0
H5280 H 0.96931 0.53875 0.6865 0.0
H5281 H 0.95015 0.47433 0.70215 0.0
H5282 H 0.92934 0.44723 0.71131 0.0
H5283 H 0.88924 0.44664 0.66696 0.0
H5284 H 0.90969 0.47408 0.65779 0.0
H5285 H 0.01067 0.50057 0.62254 0.0
H5286 H 0.99363 0.49691 0.64821 0.0
H5287 H 0.94617 0.49715 0.61332 0.0
H5288 H 0.96315 0.50063 0.58738 0.0
H5289 H 0.94266 0.47491 0.64664 0.0
H5290 H 0.96761 0.53725 0.62908 0.0
H5291 H 0.99192 0.56174 0.62065 0.0
H5292 H 0.02511 0.56366 0.67117 0.0
H5293 H 1.00122 0.53885 0.67966 0.0
C5294 C 0.944 0.52174 0.7344 0.0
C5295 C 0.96082 0.52257 0.74384 0.0
C5296 C 0.94055 0.5169 0.71502 0.0
C5297 C 0.95404 0.51329 0.70508 0.0
C5298 C 0.97086 0.51457 0.71454 0.0
C5299 C 0.9742 0.51912 0.73366 0.0
C5300 C 0.95217 0.5104 0.6848 0.0
C5301 C 0.96315 0.52492 0.67763 0.0
C5302 C 0.94381 0.49242 0.67326 0.0
C5303 C 0.93131 0.47667 0.67961 0.0
C5304 C 0.93677 0.46879 0.69463 0.0
C5305 C 0.92506 0.45325 0.69974 0.0
C5306 C 0.90792 0.44532 0.68983 0.0
C5307 C 0.90246 0.45289 0.67474 0.0
C5308 C 0.91409 0.46847 0.66961 0.0
C5309 C 0.99642 0.4988 0.62003 0.0
C5310 C 0.98827 0.50136 0.60318 0.0
C5311 C 0.98671 0.49675 0.63471 0.0
C5312 C 0.96884 0.49726 0.63262 0.0
C5313 C 0.96001 0.4969 0.61511 0.0
C5314 C 0.96973 0.49899 0.60038 0.0
C5315 C 0.96111 0.50273 0.64922 0.0
C5316 C 0.94818 0.48894 0.6553 0.0
C5317 C 0.96825 0.52118 0.66023 0.0
C5318 C 0.98261 0.53609 0.65494 0.0
C5319 C 0.98015 0.54274 0.63829 0.0
C5320 C 0.99386 0.5567 0.63351 0.0
C5321 C 0.01005 0.56424 0.64536 0.0
C5322 C 0.01258 0.55781 0.66199 0.0
C5323 C 0.99896 0.5438 0.66678 0.0
H5324 H 0.02062 0.57509 0.64167 0.0
H5325 H 0.89892 0.43325 0.69378 0.0
H5326 H 0.29126 0.248 0.45959 0.0
H5327 H 0.2942 0.25812 0.42986 0.0
H5328 H 0.28593 0.19937 0.40332 0.0
H5329 H 0.28403 0.18934 0.43347 0.0
H5330 H 0.30846 0.22096 0.38715 0.0
H5331 H 0.25126 0.22399 0.40385 0.0
H5332 H 0.23034 0.23381 0.4236 0.0
H5333 H 0.25536 0.29292 0.4231 0.0
H5334 H 0.27657 0.28347 0.40356 0.0
H5335 H 0.28321 0.24332 0.29722 0.0
H5336 H 0.28364 0.22928 0.3253 0.0
H5337 H 0.29924 0.28597 0.35863 0.0
H5338 H 0.2989 0.29985 0.3308 0.0
H5339 H 0.27122 0.26283 0.36987 0.0
H5340 H 0.32885 0.25968 0.35378 0.0
H5341 H 0.35038 0.24975 0.33498 0.0
H5342 H 0.32419 0.19068 0.33447 0.0
H5343 H 0.3024 0.20023 0.35287 0.0
C5344 C 0.29039 0.23728 0.44745 0.0
C5345 C 0.28734 0.21787 0.4488 0.0
C5346 C 0.29185 0.24305 0.4304 0.0
C5347 C 0.28961 0.22947 0.41413 0.0
C5348 C 0.2875 0.21014 0.41559 0.0
C5349 C 0.28649 0.2044 0.43282 0.0
C5350 C 0.28908 0.23546 0.39568 0.0
C5351 C 0.30007 0.22985 0.38326 0.0
C5352 C 0.27836 0.24733 0.39059 0.0
C5353 C 0.26559 0.25301 0.40236 0.0
C5354 C 0.25237 0.23908 0.40805 0.0
C5355 C 0.24045 0.24459 0.4192 0.0
C5356 C 0.24154 0.26398 0.42463 0.0
C5357 C 0.25454 0.27791 0.4189 0.0
C5358 C 0.2665 0.27248 0.40777 0.0
C5359 C 0.28679 0.25271 0.31045 0.0
C5360 C 0.29091 0.27265 0.31163 0.0
C5361 C 0.28714 0.24471 0.32656 0.0
C5362 C 0.29152 0.25658 0.34414 0.0
C5363 C 0.29579 0.27648 0.34527 0.0
C5364 C 0.29556 0.2844 0.32928 0.0
C5365 C 0.29079 0.24858 0.3615 0.0
C5366 C 0.27948 0.25379 0.3737 0.0
C5367 C 0.30115 0.23632 0.36631 0.0
C5368 C 0.31381 0.23066 0.35446 0.0
C5369 C 0.32752 0.24456 0.34937 0.0
C5370 C 0.33983 0.239 0.33882 0.0
C5371 C 0.33864 0.21958 0.3334 0.0
C5372 C 0.32512 0.20571 0.33851 0.0
C5373 C 0.31277 0.21119 0.349 0.0
H5374 H 0.34823 0.2153 0.32531 0.0
H5375 H 0.2323 0.26821 0.43326 0.0
H5376 H 0.32564 0.61477 0.53519 0.0
H5377 H 0.35097 0.60254 0.52829 0.0
H5378 H 0.33634 0.60098 0.47005 0.0
H5379 H 0.31054 0.6124 0.47679 0.0
H5380 H 0.34615 0.57052 0.47548 0.0
H5381 H 0.36983 0.63794 0.49627 0.0
H5382 H 0.37326 0.66818 0.51784 0.0
H5383 H 0.39818 0.64676 0.56126 0.0
H5384 H 0.39465 0.61625 0.54003 0.0
H5385 H 0.42919 0.55193 0.45921 0.0
H5386 H 0.40484 0.56738 0.45943 0.0
H5387 H 0.41132 0.57537 0.51905 0.0
H5388 H 0.43574 0.5604 0.51892 0.0
H5389 H 0.40644 0.6061 0.5087 0.0
H5390 H 0.37864 0.53739 0.48877 0.0
H5391 H 0.37016 0.50556 0.46856 0.0
H5392 H 0.35038 0.52914 0.42379 0.0
H5393 H 0.35901 0.56116 0.44363 0.0
C5394 C 0.3278 0.61166 0.52092 0.0
C5395 C 0.3164 0.61467 0.5065 0.0
C5396 C 0.34227 0.60482 0.51702 0.0
C5397 C 0.34573 0.60146 0.49874 0.0
C5398 C 0.33392 0.60372 0.48426 0.0
C5399 C 0.31924 0.61019 0.48812 0.0
C5400 C 0.36172 0.59557 0.49476 0.0
C5401 C 0.35944 0.57846 0.48239 0.0
C5402 C 0.37889 0.60602 0.50399 0.0
C5403 C 0.38197 0.62478 0.51653 0.0
C5404 C 0.37607 0.63968 0.51041 0.0
C5405 C 0.37799 0.65685 0.52259 0.0
C5406 C 0.38593 0.65939 0.54091 0.0
C5407 C 0.39206 0.64478 0.54706 0.0
C5408 C 0.39013 0.62756 0.53494 0.0
C5409 C 0.42536 0.55699 0.47233 0.0
C5410 C 0.43428 0.55494 0.48906 0.0
C5411 C 0.4115 0.5658 0.47244 0.0
C5412 C 0.40617 0.5723 0.48925 0.0
C5413 C 0.41529 0.57054 0.50593 0.0
C5414 C 0.42924 0.56199 0.50584 0.0
C5415 C 0.39085 0.58056 0.48977 0.0
C5416 C 0.39326 0.5983 0.50143 0.0
C5417 C 0.37375 0.5707 0.4798 0.0
C5418 C 0.36982 0.55173 0.46757 0.0
C5419 C 0.37281 0.53586 0.47451 0.0
C5420 C 0.36789 0.51776 0.46315 0.0
C5421 C 0.35983 0.51535 0.44488 0.0
C5422 C 0.35672 0.53104 0.4379 0.0
C5423 C 0.36166 0.54916 0.44919 0.0
H5424 H 0.35592 0.50131 0.43614 0.0
H5425 H 0.38735 0.67267 0.55034 0.0
H5426 H 0.86264 0.91829 0.55357 0.0
H5427 H 0.89094 0.93973 0.54924 0.0
H5428 H 0.87012 0.93621 0.49218 0.0
H5429 H 0.84162 0.9149 0.49667 0.0
H5430 H 0.90457 0.93046 0.49674 0.0
H5431 H 0.87569 0.97707 0.52027 0.0
H5432 H 0.85816 0.99073 0.54186 0.0
H5433 H 0.89959 0.99759 0.58709 0.0
H5434 H 0.91728 0.98375 0.56578 0.0
H5435 H 0.98456 1.0014 0.48707 0.0
H5436 H 0.9539 0.98172 0.48591 0.0
H5437 H 0.96118 0.99047 0.54558 0.0
H5438 H 0.99129 0.01103 0.54667 0.0
H5439 H 0.93124 0.99454 0.53601 0.0
H5440 H 0.95958 0.94594 0.51223 0.0
H5441 H 0.97571 0.93001 0.49065 0.0
H5442 H 0.93478 0.92539 0.4456 0.0
H5443 H 0.91856 0.94157 0.46686 0.0
C5444 C 0.86394 0.92261 0.54029 0.0
C5445 C 0.84978 0.91548 0.52564 0.0
C5446 C 0.88016 0.93471 0.53775 0.0
C5447 C 0.88273 0.93968 0.52038 0.0
C5448 C 0.8685 0.93265 0.50571 0.0
C5449 C 0.85214 0.92074 0.50835 0.0
C5450 C 0.90039 0.95198 0.5177 0.0
C5451 C 0.91035 0.94461 0.5051 0.0
C5452 C 0.90804 0.97034 0.5287 0.0
C5453 C 0.89777 0.97931 0.54145 0.0
C5454 C 0.88104 0.98146 0.53483 0.0
C5455 C 0.87108 0.98922 0.54702 0.0
C5456 C 0.87775 0.995 0.56584 0.0
C5457 C 0.89445 0.99312 0.5725 0.0
C5458 C 0.90447 0.98535 0.56037 0.0
C5459 C 0.97962 0.99895 0.49991 0.0
C5460 C 0.99036 0.00779 0.51699 0.0
C5461 C 0.96206 0.98756 0.49926 0.0
C5462 C 0.955 0.98427 0.51567 0.0
C5463 C 0.96604 0.99275 0.53267 0.0
C5464 C 0.98337 0.00446 0.53331 0.0
C5465 C 0.93602 0.97283 0.51549 0.0
C5466 C 0.92564 0.98043 0.52752 0.0
C5467 C 0.92805 0.95466 0.50391 0.0
C5468 C 0.93798 0.9452 0.49111 0.0
C5469 C 0.95412 0.9417 0.49769 0.0
C5470 C 0.96326 0.9326 0.48552 0.0
C5471 C 0.9563 0.92675 0.46676 0.0
C5472 C 0.94018 0.92998 0.46013 0.0
C5473 C 0.93102 0.93912 0.47223 0.0
H5474 H 0.96338 0.91967 0.45737 0.0
H5475 H 0.86999 1.00096 0.57527 0.0
H5476 H 0.89459 0.11222 0.23637 0.0
H5477 H 0.87973 0.13814 0.23572 0.0
H5478 H 0.87866 0.14328 0.29431 0.0
H5479 H 0.89327 0.11777 0.29499 0.0
H5480 H 0.84948 0.14878 0.2827 0.0
H5481 H 0.90731 0.17858 0.27137 0.0
H5482 H 0.9346 0.18482 0.25663 0.0
H5483 H 0.90392 0.18698 0.20589 0.0
H5484 H 0.87641 0.18055 0.22028 0.0
H5485 H 0.82492 0.23915 0.29559 0.0
H5486 H 0.84 0.2135 0.29594 0.0
H5487 H 0.83746 0.20623 0.23676 0.0
H5488 H 0.82232 0.23177 0.23651 0.0
H5489 H 0.86845 0.20196 0.2489 0.0
H5490 H 0.81001 0.17287 0.26346 0.0
H5491 H 0.78467 0.16877 0.28123 0.0
H5492 H 0.81933 0.16795 0.32975 0.0
H5493 H 0.84491 0.17225 0.31233 0.0
C5494 C 0.89116 0.11873 0.24916 0.0
C5495 C 0.89542 0.11222 0.26572 0.0
C5496 C 0.88265 0.13396 0.24884 0.0
C5497 C 0.87776 0.1435 0.26503 0.0
C5498 C 0.88186 0.13674 0.28141 0.0
C5499 C 0.89047 0.12181 0.28176 0.0
C5500 C 0.86835 0.16006 0.26519 0.0
C5501 C 0.85394 0.16042 0.27537 0.0
C5502 C 0.87346 0.17581 0.2558 0.0
C5503 C 0.88976 0.17876 0.2468 0.0
C5504 C 0.90635 0.1801 0.25699 0.0
C5505 C 0.92187 0.18376 0.24872 0.0
C5506 C 0.92098 0.18621 0.23031 0.0
C5507 C 0.90458 0.18501 0.22013 0.0
C5508 C 0.88901 0.18135 0.22833 0.0
C5509 C 0.82764 0.23224 0.28261 0.0
C5510 C 0.82235 0.23814 0.26604 0.0
C5511 C 0.83624 0.21716 0.28275 0.0
C5512 C 0.8401 0.20707 0.26633 0.0
C5513 C 0.83498 0.21325 0.24983 0.0
C5514 C 0.8262 0.22812 0.24967 0.0
C5515 C 0.84947 0.19052 0.26617 0.0
C5516 C 0.86393 0.19022 0.25609 0.0
C5517 C 0.84466 0.17506 0.27601 0.0
C5518 C 0.82941 0.17311 0.28664 0.0
C5519 C 0.81226 0.17203 0.27797 0.0
C5520 C 0.79785 0.16961 0.28797 0.0
C5521 C 0.8004 0.16816 0.30662 0.0
C5522 C 0.81738 0.16912 0.31532 0.0
C5523 C 0.83183 0.17154 0.30539 0.0
H5524 H 0.78921 0.16623 0.31432 0.0
H5525 H 0.93302 0.1891 0.22395 0.0
H5526 H 0.72963 0.148 0.00278 0.0
H5527 H 0.69855 0.13215 0.99037 0.0
H5528 H 0.70364 0.08078 0.00938 0.0
H5529 H 0.73518 0.09654 0.02149 0.0
H5530 H 0.67831 0.07393 0.9766 0.0
H5531 H 0.69409 0.11019 0.03833 0.0
H5532 H 0.70745 0.13745 0.06394 0.0
H5533 H 0.67815 0.17146 0.03876 0.0
H5534 H 0.66495 0.14452 0.01273 0.0
H5535 H 0.6002 0.04134 0.01535 0.0
H5536 H 0.63069 0.05368 0.00875 0.0
H5537 H 0.61494 0.09857 0.98557 0.0
H5538 H 0.58448 0.0862 0.99222 0.0
H5539 H 0.64428 0.10943 0.01495 0.0
H5540 H 0.62375 0.06736 0.95612 0.0
H5541 H 0.60645 0.03598 0.93782 0.0
H5542 H 0.64187 0.00876 0.96434 0.0
H5543 H 0.65926 0.03999 0.98299 0.0
C5544 C 0.72419 0.13326 0.00411 0.0
C5545 C 0.73437 0.12359 0.01364 0.0
C5546 C 0.70661 0.12417 0.99673 0.0
C5547 C 0.699 0.10553 0.99927 0.0
C5548 C 0.70952 0.09521 0.00733 0.0
C5549 C 0.72731 0.10425 0.01446 0.0
C5550 C 0.67968 0.09864 0.99729 0.0
C5551 C 0.67079 0.08167 0.98484 0.0
C5552 C 0.67012 0.10886 0.00826 0.0
C5553 C 0.67889 0.12548 0.02333 0.0
C5554 C 0.69081 0.12361 0.03802 0.0
C5555 C 0.69828 0.13898 0.05268 0.0
C5556 C 0.69375 0.15622 0.05292 0.0
C5557 C 0.68175 0.15814 0.03849 0.0
C5558 C 0.67432 0.14285 0.02375 0.0
C5559 C 0.6035 0.05395 0.00906 0.0
C5560 C 0.5907 0.06334 0.0046 0.0
C5561 C 0.62058 0.06069 0.00499 0.0
C5562 C 0.62461 0.07667 0.99638 0.0
C5563 C 0.61172 0.08605 0.99199 0.0
C5564 C 0.59465 0.07927 0.99601 0.0
C5565 C 0.64293 0.08495 0.99422 0.0
C5566 C 0.65171 0.10212 0.00611 0.0
C5567 C 0.65227 0.07458 0.98325 0.0
C5568 C 0.64285 0.05604 0.97091 0.0
C5569 C 0.6279 0.0547 0.95798 0.0
C5570 C 0.61805 0.03693 0.94758 0.0
C5571 C 0.62306 0.02038 0.9499 0.0
C5572 C 0.63804 0.02161 0.96251 0.0
C5573 C 0.64795 0.03936 0.97295 0.0
H5574 H 0.61534 0.00661 0.94194 0.0
H5575 H 0.69945 0.16805 0.06434 0.0
H5576 H 0.16711 0.47976 0.24939 0.0
H5577 H 0.18158 0.45746 0.26147 0.0
H5578 H 0.23302 0.49837 0.26613 0.0
H5579 H 0.21853 0.52112 0.25442 0.0
H5580 H 0.22644 0.45891 0.24424 0.0
H5581 H 0.22195 0.49353 0.30345 0.0
H5582 H 0.20569 0.50808 0.32587 0.0
H5583 H 0.16991 0.45281 0.32491 0.0
H5584 H 0.18581 0.43796 0.30225 0.0
H5585 H 0.28081 0.41282 0.28666 0.0
H5586 H 0.26546 0.43749 0.28438 0.0
H5587 H 0.21473 0.39594 0.28141 0.0
H5588 H 0.2301 0.37089 0.28377 0.0
H5589 H 0.21998 0.43571 0.30355 0.0
H5590 H 0.2225 0.40111 0.24395 0.0
H5591 H 0.23501 0.38623 0.21813 0.0
H5592 H 0.27118 0.44069 0.21698 0.0
H5593 H 0.25913 0.45583 0.24306 0.0
C5594 C 0.18151 0.48393 0.25289 0.0
C5595 C 0.19187 0.50189 0.25081 0.0
C5596 C 0.18966 0.47137 0.26001 0.0
C5597 C 0.20818 0.4766 0.26481 0.0
C5598 C 0.21862 0.49443 0.26262 0.0
C5599 C 0.21043 0.50721 0.25585 0.0
C5600 C 0.21668 0.4625 0.27035 0.0
C5601 C 0.22544 0.45406 0.25735 0.0
C5602 C 0.21434 0.45585 0.28708 0.0
C5603 C 0.205 0.46465 0.30105 0.0
C5604 C 0.21054 0.48449 0.30792 0.0
C5605 C 0.2014 0.49279 0.32069 0.0
C5606 C 0.18675 0.48138 0.32678 0.0
C5607 C 0.18126 0.46163 0.32017 0.0
C5608 C 0.19035 0.45326 0.30739 0.0
C5609 C 0.26645 0.40904 0.28624 0.0
C5610 C 0.25659 0.39002 0.28537 0.0
C5611 C 0.25773 0.42309 0.28479 0.0
C5612 C 0.23909 0.41829 0.28255 0.0
C5613 C 0.22918 0.39969 0.28314 0.0
C5614 C 0.23792 0.3855 0.28443 0.0
C5615 C 0.23018 0.43238 0.27757 0.0
C5616 C 0.22118 0.44069 0.29054 0.0
C5617 C 0.23206 0.43882 0.26062 0.0
C5618 C 0.24015 0.42952 0.24574 0.0
C5619 C 0.23339 0.40984 0.23848 0.0
C5620 C 0.24033 0.40138 0.22371 0.0
C5621 C 0.25395 0.41249 0.21598 0.0
C5622 C 0.26069 0.43208 0.22304 0.0
C5623 C 0.25383 0.44059 0.23783 0.0
H5624 H 0.25923 0.40594 0.20448 0.0
H5625 H 0.17968 0.48783 0.33665 0.0
H5626 H 0.23511 0.38561 0.0192 0.0
H5627 H 0.20795 0.39649 0.0144 0.0
H5628 H 0.23869 0.44721 0.99798 0.0
H5629 H 0.26559 0.4361 0.00204 0.0
H5630 H 0.21628 0.45348 0.02635 0.0
H5631 H 0.21412 0.41624 0.96645 0.0
H5632 H 0.21281 0.38746 0.94375 0.0
H5633 H 0.16302 0.35833 0.959 0.0
H5634 H 0.16421 0.38681 0.98214 0.0
H5635 H 0.15445 0.49831 0.99252 0.0
H5636 H 0.17737 0.48113 0.99218 0.0
H5637 H 0.13991 0.43134 0.00308 0.0
H5638 H 0.11667 0.44844 0.00322 0.0
H5639 H 0.16402 0.42223 0.97792 0.0
H5640 H 0.1659 0.45872 0.03764 0.0
H5641 H 0.16626 0.48767 0.05966 0.0
H5642 H 0.21608 0.51747 0.0449 0.0
H5643 H 0.21579 0.48882 0.02243 0.0
C5644 C 0.23606 0.3991 0.01462 0.0
C5645 C 0.25257 0.41007 0.01114 0.0
C5646 C 0.2205 0.40523 0.01174 0.0
C5647 C 0.22122 0.42267 0.00575 0.0
C5648 C 0.23774 0.4337 0.00252 0.0
C5649 C 0.25314 0.42734 0.0049 0.0
C5650 C 0.20507 0.42999 0.0036 0.0
C5651 C 0.20494 0.44668 0.01566 0.0
C5652 C 0.18998 0.42089 0.98995 0.0
C5653 C 0.18943 0.40358 0.97631 0.0
C5654 C 0.20304 0.40361 0.96522 0.0
C5655 C 0.20228 0.38736 0.95221 0.0
C5656 C 0.18789 0.37104 0.94999 0.0
C5657 C 0.1742 0.37095 0.96078 0.0
C5658 C 0.17492 0.38714 0.97387 0.0
C5659 C 0.15087 0.48357 0.99444 0.0
C5660 C 0.13365 0.47489 0.99807 0.0
C5661 C 0.16408 0.47376 0.99432 0.0
C5662 C 0.1605 0.45496 0.9978 0.0
C5663 C 0.14307 0.44582 0.0004 0.0
C5664 C 0.12982 0.45571 0.00067 0.0
C5665 C 0.17544 0.44584 0.00054 0.0
C5666 C 0.17532 0.42887 0.98868 0.0
C5667 C 0.19032 0.45454 0.01447 0.0
C5668 C 0.19074 0.47168 0.02823 0.0
C5669 C 0.17686 0.4715 0.03898 0.0
C5670 C 0.17705 0.48785 0.05154 0.0
C5671 C 0.19117 0.50441 0.05365 0.0
C5672 C 0.20514 0.50463 0.04323 0.0
C5673 C 0.20497 0.48834 0.03057 0.0
H5674 H 0.1913 0.51706 0.0634 0.0
H5675 H 0.1873 0.3585 0.93987 0.0
H5676 H 0.88131 0.00594 0.27472 0.0
H5677 H 0.86393 0.97384 0.27833 0.0
H5678 H 0.88647 0.94803 0.2337 0.0
H5679 H 0.90365 0.97969 0.2302 0.0
H5680 H 0.85373 0.92878 0.22942 0.0
H5681 H 0.89901 0.94826 0.28173 0.0
H5682 H 0.917 0.96783 0.31073 0.0
H5683 H 0.87027 0.9594 0.33772 0.0
H5684 H 0.85191 0.94003 0.30878 0.0
H5685 H 0.82661 0.83014 0.2434 0.0
H5686 H 0.84513 0.86248 0.24194 0.0
H5687 H 0.81773 0.8873 0.28254 0.0
H5688 H 0.79899 0.85529 0.28353 0.0
H5689 H 0.85321 0.90706 0.28961 0.0
H5690 H 0.80826 0.88796 0.23613 0.0
H5691 H 0.79104 0.8688 0.20659 0.0
H5692 H 0.83902 0.87665 0.18165 0.0
H5693 H 0.85657 0.89561 0.21115 0.0
C5694 C 0.88222 0.99347 0.26535 0.0
C5695 C 0.89377 0.99583 0.25181 0.0
C5696 C 0.87243 0.97488 0.26764 0.0
C5697 C 0.87369 0.95787 0.25642 0.0
C5698 C 0.88489 0.96043 0.24265 0.0
C5699 C 0.89476 0.97882 0.24056 0.0
C5700 C 0.86346 0.9375 0.25851 0.0
C5701 C 0.85394 0.92413 0.24266 0.0
C5702 C 0.86312 0.93082 0.27567 0.0
C5703 C 0.87402 0.94292 0.29297 0.0
C5704 C 0.89251 0.95079 0.29376 0.0
C5705 C 0.90279 0.9618 0.31022 0.0
C5706 C 0.89477 0.96493 0.32604 0.0
C5707 C 0.87645 0.95703 0.32544 0.0
C5708 C 0.8661 0.94604 0.309 0.0
C5709 C 0.82473 0.84242 0.25229 0.0
C5710 C 0.81123 0.83971 0.26378 0.0
C5711 C 0.83529 0.86115 0.25132 0.0
C5712 C 0.83305 0.87795 0.26204 0.0
C5713 C 0.82006 0.87504 0.27403 0.0
C5714 C 0.80926 0.85649 0.27463 0.0
C5715 C 0.84357 0.8984 0.26047 0.0
C5716 C 0.85309 0.91176 0.27641 0.0
C5717 C 0.84413 0.90508 0.24337 0.0
C5718 C 0.83376 0.89293 0.22592 0.0
C5719 C 0.81518 0.88534 0.22443 0.0
C5720 C 0.80535 0.87458 0.20767 0.0
C5721 C 0.81394 0.87144 0.19227 0.0
C5722 C 0.83239 0.87903 0.19361 0.0
C5723 C 0.84228 0.88976 0.21034 0.0
H5724 H 0.80629 0.86319 0.17928 0.0
H5725 H 0.90276 0.97341 0.33877 0.0
H5726 H 0.70113 0.07709 0.75734 0.0
H5727 H 0.71923 0.10939 0.77074 0.0
H5728 H 0.67309 0.13077 0.76221 0.0
H5729 H 0.65478 0.09839 0.74874 0.0
H5730 H 0.69925 0.13953 0.73908 0.0
H5731 H 0.69492 0.14249 0.80322 0.0
H5732 H 0.69629 0.13402 0.83423 0.0
H5733 H 0.75212 0.13816 0.83543 0.0
H5734 H 0.75104 0.14631 0.8043 0.0
H5735 H 0.74303 0.23551 0.75674 0.0
H5736 H 0.72431 0.20364 0.75681 0.0
H5737 H 0.77129 0.18491 0.7708 0.0
H5738 H 0.79021 0.21764 0.77168 0.0
H5739 H 0.74504 0.17528 0.79255 0.0
H5740 H 0.74915 0.17083 0.72785 0.0
H5741 H 0.74875 0.18317 0.69866 0.0
H5742 H 0.69386 0.18275 0.69924 0.0
H5743 H 0.69399 0.17068 0.72859 0.0
C5744 C 0.69477 0.08863 0.75861 0.0
C5745 C 0.67679 0.08554 0.75136 0.0
C5746 C 0.70501 0.10693 0.76671 0.0
C5747 C 0.69737 0.12223 0.76742 0.0
C5748 C 0.67903 0.11891 0.76188 0.0
C5749 C 0.66873 0.10057 0.75386 0.0
C5750 C 0.70916 0.14111 0.7678 0.0
C5751 C 0.70905 0.14756 0.7509 0.0
C5752 C 0.72239 0.1508 0.78298 0.0
C5753 C 0.72282 0.14477 0.80127 0.0
C5754 C 0.70742 0.14126 0.80993 0.0
C5755 C 0.70817 0.13661 0.82759 0.0
C5756 C 0.72426 0.1355 0.83677 0.0
C5757 C 0.73964 0.13898 0.82829 0.0
C5758 C 0.73897 0.14361 0.81064 0.0
C5759 C 0.74928 0.22441 0.75951 0.0
C5760 C 0.76774 0.22837 0.76396 0.0
C5761 C 0.73869 0.20638 0.75954 0.0
C5762 C 0.7466 0.1921 0.76347 0.0
C5763 C 0.76519 0.19596 0.76762 0.0
C5764 C 0.77587 0.21432 0.76796 0.0
C5765 C 0.73502 0.17342 0.76393 0.0
C5766 C 0.73525 0.16704 0.78081 0.0
C5767 C 0.72199 0.16356 0.74868 0.0
C5768 C 0.72159 0.16985 0.73046 0.0
C5769 C 0.73699 0.17336 0.72176 0.0
C5770 C 0.73682 0.18034 0.70519 0.0
C5771 C 0.72129 0.18375 0.6971 0.0
C5772 C 0.70587 0.18008 0.70551 0.0
C5773 C 0.70597 0.17312 0.72209 0.0
H5774 H 0.72121 0.18922 0.68432 0.0
H5775 H 0.72483 0.13199 0.85048 0.0
loop_
_geom_bond_atom_site_label_1
_geom_bond_atom_site_label_2
_geom_bond_distance
_geom_bond_site_symmetry_2
_ccdc_geom_bond_type
Zn0 O3 2.031 . S
Zn0 O5 2.049 . S
Zn0 O10 2.067 . S
Zn1 O2 1.962 . S
Zn1 O4 1.986 . S
Zn1 O6 1.996 . S
Zn1 O9 1.943 . S
O2 Zn1 1.962 . S
O2 C7 1.254 . S
O3 Zn0 2.031 . S
O3 C7 1.269 . S
O4 Zn1 1.986 . S
O4 C11 1.262 . S
O5 Zn0 2.049 . S
O5 C13 1.260 . S
O6 Zn1 1.996 . S
O6 C13 1.257 . S
C7 O2 1.254 . S
C7 O3 1.269 . S
C8 O9 1.249 . S
C8 O10 1.270 . S
O9 Zn1 1.943 . S
O9 C8 1.249 . S
O10 Zn0 2.067 . S
O10 C8 1.270 . S
C11 O4 1.262 . S
C11 O12 1.232 . S
O12 C11 1.232 . S
C13 O5 1.260 . S
C13 O6 1.257 . S
Zn14 O17 2.031 1_455 S
Zn14 O19 2.049 . S
Zn14 O24 2.067 . S
Zn15 O16 1.949 1_455 S
Zn15 O18 1.991 . S
Zn15 O20 2.006 . S
Zn15 O23 1.946 1_455 S
O16 Zn15 1.949 1_655 S
O16 C21 1.254 . S
O17 Zn14 2.031 1_655 S
O17 C21 1.269 . S
O18 Zn15 1.991 . S
O18 C25 1.262 . S
O19 Zn14 2.049 . S
O19 C27 1.260 . S
O20 Zn15 2.006 . S
O20 C27 1.257 . S
C21 O16 1.254 . S
C21 O17 1.269 . S
C22 O23 1.249 . S
C22 O24 1.270 1_655 S
O23 Zn15 1.946 1_655 S
O23 C22 1.249 . S
O24 Zn14 2.067 . S
O24 C22 1.270 1_455 S
C25 O18 1.262 . S
C25 O26 1.232 1_455 S
O26 C25 1.232 1_655 S
C27 O19 1.260 . S
C27 O20 1.257 . S
Zn28 O31 2.031 . S
Zn28 O33 2.049 . S
Zn28 O38 2.067 . S
Zn29 O30 1.962 . S
Zn29 O32 1.986 . S
Zn29 O34 1.996 . S
Zn29 O37 1.943 . S
O30 Zn29 1.962 . S
O30 C35 1.254 . S
O31 Zn28 2.031 . S
O31 C35 1.269 . S
O32 Zn29 1.986 . S
O32 C39 1.262 . S
O33 Zn28 2.049 . S
O33 C41 1.260 . S
O34 Zn29 1.996 . S
O34 C41 1.257 . S
C35 O30 1.254 . S
C35 O31 1.269 . S
C36 O37 1.249 . S
C36 O38 1.270 . S
O37 Zn29 1.943 . S
O37 C36 1.249 . S
O38 Zn28 2.067 . S
O38 C36 1.270 . S
C39 O32 1.262 . S
C39 O40 1.232 . S
O40 C39 1.232 . S
C41 O33 1.260 . S
C41 O34 1.257 . S
Zn42 O45 2.031 . S
Zn42 O47 2.049 . S
Zn42 O52 2.067 . S
Zn43 O44 1.962 . S
Zn43 O46 1.986 . S
Zn43 O48 1.996 . S
Zn43 O51 1.943 . S
O44 Zn43 1.962 . S
O44 C49 1.254 . S
O45 Zn42 2.031 . S
O45 C49 1.269 . S
O46 Zn43 1.986 . S
O46 C53 1.262 . S
O47 Zn42 2.049 . S
O47 C55 1.260 . S
O48 Zn43 1.996 . S
O48 C55 1.257 . S
C49 O44 1.254 . S
C49 O45 1.269 . S
C50 O51 1.249 . S
C50 O52 1.270 . S
O51 Zn43 1.943 . S
O51 C50 1.249 . S
O52 Zn42 2.067 . S
O52 C50 1.270 . S
C53 O46 1.262 . S
C53 O54 1.232 . S
O54 C53 1.232 . S
C55 O47 1.260 . S
C55 O48 1.257 . S
Zn56 O59 2.031 . S
Zn56 O61 2.049 . S
Zn56 O66 2.067 . S
Zn57 O58 1.962 . S
Zn57 O60 1.986 . S
Zn57 O62 1.996 . S
Zn57 O65 1.943 . S
O58 Zn57 1.962 . S
O58 C63 1.254 . S
O59 Zn56 2.031 . S
O59 C63 1.269 . S
O60 Zn57 1.986 . S
O60 C67 1.262 . S
O61 Zn56 2.049 . S
O61 C69 1.260 . S
O62 Zn57 1.996 . S
O62 C69 1.257 . S
C63 O58 1.254 . S
C63 O59 1.269 . S
C64 O65 1.249 . S
C64 O66 1.270 . S
O65 Zn57 1.943 . S
O65 C64 1.249 . S
O66 Zn56 2.067 . S
O66 C64 1.270 . S
C67 O60 1.262 . S
C67 O68 1.232 . S
O68 C67 1.232 . S
C69 O61 1.260 . S
C69 O62 1.257 . S
Zn70 O73 2.031 . S
Zn70 O75 2.049 . S
Zn70 O80 2.067 . S
Zn71 O72 1.962 . S
Zn71 O74 1.986 . S
Zn71 O76 1.996 . S
Zn71 O79 1.943 . S
O72 Zn71 1.962 . S
O72 C77 1.254 . S
O73 Zn70 2.031 . S
O73 C77 1.269 . S
O74 Zn71 1.986 . S
O74 C81 1.262 . S
O75 Zn70 2.049 . S
O75 C83 1.260 . S
O76 Zn71 1.996 . S
O76 C83 1.257 . S
C77 O72 1.254 . S
C77 O73 1.269 . S
C78 O79 1.249 . S
C78 O80 1.270 . S
O79 Zn71 1.943 . S
O79 C78 1.249 . S
O80 Zn70 2.067 . S
O80 C78 1.270 . S
C81 O74 1.262 . S
C81 O82 1.232 . S
O82 C81 1.232 . S
C83 O75 1.260 . S
C83 O76 1.257 . S
Zn84 O87 2.031 . S
Zn84 O89 2.049 . S
Zn84 O94 2.067 . S
Zn85 O86 1.962 . S
Zn85 O88 1.986 . S
Zn85 O90 1.996 . S
Zn85 O93 1.943 . S
O86 Zn85 1.962 . S
O86 C91 1.254 . S
O87 Zn84 2.031 . S
O87 C91 1.269 . S
O88 Zn85 1.986 . S
O88 C95 1.262 . S
O89 Zn84 2.049 . S
O89 C97 1.260 . S
O90 Zn85 1.996 . S
O90 C97 1.257 . S
C91 O86 1.254 . S
C91 O87 1.269 . S
C92 O93 1.249 . S
C92 O94 1.270 . S
O93 Zn85 1.943 . S
O93 C92 1.249 . S
O94 Zn84 2.067 . S
O94 C92 1.270 . S
C95 O88 1.262 . S
C95 O96 1.232 . S
O96 C95 1.232 . S
C97 O89 1.260 . S
C97 O90 1.257 . S
Zn98 O101 2.031 . S
Zn98 O103 2.049 . S
Zn98 O108 2.067 . S
Zn99 O100 1.962 . S
Zn99 O102 1.986 . S
Zn99 O104 1.996 . S
Zn99 O107 1.911 1_455 S
O100 Zn99 1.962 . S
O100 C105 1.254 . S
O101 Zn98 2.031 . S
O101 C105 1.269 1_655 S
O102 Zn99 1.986 . S
O102 C109 1.262 . S
O103 Zn98 2.049 . S
O103 C111 1.260 1_655 S
O104 Zn99 1.996 . S
O104 C111 1.257 . S
C105 O100 1.254 . S
C105 O101 1.269 1_455 S
C106 O107 1.290 . S
C106 O108 1.270 . S
O107 Zn99 1.911 1_655 S
O107 C106 1.290 . S
O108 Zn98 2.067 . S
O108 C106 1.270 . S
C109 O102 1.262 . S
C109 O110 1.232 . S
O110 C109 1.232 . S
C111 O103 1.260 1_455 S
C111 O104 1.257 . S
Zn112 O115 2.031 . S
Zn112 O117 2.049 . S
Zn112 O122 2.067 . S
Zn113 O114 1.962 . S
Zn113 O116 1.986 . S
Zn113 O118 1.996 . S
Zn113 O121 1.943 1_545 S
O114 Zn113 1.962 . S
O114 C119 1.254 . S
O115 Zn112 2.031 . S
O115 C119 1.269 1_565 S
O116 Zn113 1.986 . S
O116 C123 1.262 . S
O117 Zn112 2.049 . S
O117 C125 1.260 1_565 S
O118 Zn113 1.996 . S
O118 C125 1.257 . S
C119 O114 1.254 . S
C119 O115 1.269 1_545 S
C120 O121 1.249 . S
C120 O122 1.270 . S
O121 Zn113 1.943 1_565 S
O121 C120 1.249 . S
O122 Zn112 2.067 . S
O122 C120 1.270 . S
C123 O116 1.262 . S
C123 O124 1.232 . S
O124 C123 1.232 . S
C125 O117 1.260 1_545 S
C125 O118 1.257 . S
Zn126 O129 2.031 . S
Zn126 O131 2.049 . S
Zn126 O136 2.067 . S
Zn127 O128 1.962 . S
Zn127 O130 1.986 . S
Zn127 O132 1.996 . S
Zn127 O135 1.943 . S
O128 Zn127 1.962 . S
O128 C133 1.254 . S
O129 Zn126 2.031 . S
O129 C133 1.269 . S
O130 Zn127 1.986 . S
O130 C137 1.262 . S
O131 Zn126 2.049 . S
O131 C139 1.260 . S
O132 Zn127 1.996 . S
O132 C139 1.257 . S
C133 O128 1.254 . S
C133 O129 1.269 . S
C134 O135 1.249 . S
C134 O136 1.270 . S
O135 Zn127 1.943 . S
O135 C134 1.249 . S
O136 Zn126 2.067 . S
O136 C134 1.270 . S
C137 O130 1.262 . S
C137 O138 1.232 . S
O138 C137 1.232 . S
C139 O131 1.260 . S
C139 O132 1.257 . S
Zn140 O143 2.031 . S
Zn140 O145 2.049 . S
Zn140 O150 2.067 . S
Zn141 O142 1.962 . S
Zn141 O144 1.986 . S
Zn141 O146 1.996 . S
Zn141 O149 1.943 1_565 S
O142 Zn141 1.962 . S
O142 C147 1.254 1_565 S
O143 Zn140 2.031 . S
O143 C147 1.269 . S
O144 Zn141 1.986 . S
O144 C151 1.262 . S
O145 Zn140 2.049 . S
O145 C153 1.203 1_545 S
O146 Zn141 1.996 . S
O146 C153 1.292 . S
C147 O142 1.254 1_545 S
C147 O143 1.269 . S
C148 O149 1.249 . S
C148 O150 1.270 . S
O149 Zn141 1.943 1_545 S
O149 C148 1.249 . S
O150 Zn140 2.067 . S
O150 C148 1.270 . S
C151 O144 1.262 . S
C151 O152 1.232 . S
O152 C151 1.232 . S
C153 O145 1.203 1_565 S
C153 O146 1.292 . S
Zn154 O157 2.031 1_554 S
Zn154 O159 2.049 . S
Zn154 O164 2.067 . S
Zn155 O156 1.962 1_554 S
Zn155 O158 1.986 . S
Zn155 O160 1.996 . S
Zn155 O163 1.943 . S
O156 Zn155 1.962 1_556 S
O156 C161 1.254 . S
O157 Zn154 2.031 1_556 S
O157 C161 1.269 . S
O158 Zn155 1.986 . S
O158 C165 1.262 . S
O159 Zn154 2.049 . S
O159 C167 1.260 . S
O160 Zn155 1.996 . S
O160 C167 1.257 . S
C161 O156 1.254 . S
C161 O157 1.269 . S
C162 O163 1.249 . S
C162 O164 1.270 . S
O163 Zn155 1.943 . S
O163 C162 1.249 . S
O164 Zn154 2.067 . S
O164 C162 1.270 . S
C165 O158 1.262 . S
C165 O166 1.186 1_554 S
O166 C165 1.186 1_556 S
C167 O159 1.260 . S
C167 O160 1.257 . S
Zn168 O171 2.031 1_554 S
Zn168 O173 2.049 . S
Zn168 O178 2.067 . S
Zn169 O170 1.962 1_554 S
Zn169 O172 1.986 . S
Zn169 O174 1.996 . S
Zn169 O177 1.943 . S
O170 Zn169 1.962 1_556 S
O170 C175 1.254 . S
O171 Zn168 2.031 1_556 S
O171 C175 1.269 . S
O172 Zn169 1.986 . S
O172 C179 1.262 . S
O173 Zn168 2.049 . S
O173 C181 1.260 . S
O174 Zn169 1.996 . S
O174 C181 1.257 . S
C175 O170 1.254 . S
C175 O171 1.269 . S
C176 O177 1.249 . S
C176 O178 1.270 . S
O177 Zn169 1.943 . S
O177 C176 1.249 . S
O178 Zn168 2.067 . S
O178 C176 1.270 . S
C179 O172 1.262 . S
C179 O180 1.256 . S
O180 C179 1.256 . S
C181 O173 1.260 . S
C181 O174 1.257 . S
Zn182 O185 2.031 1_554 S
Zn182 O187 2.049 . S
Zn182 O192 2.067 . S
Zn183 O184 1.962 1_554 S
Zn183 O186 1.986 . S
Zn183 O188 1.996 . S
Zn183 O191 1.943 . S
O184 Zn183 1.962 1_556 S
O184 C189 1.254 . S
O185 Zn182 2.031 1_556 S
O185 C189 1.269 . S
O186 Zn183 1.986 . S
O186 C193 1.262 . S
O187 Zn182 2.049 . S
O187 C195 1.260 . S
O188 Zn183 1.996 . S
O188 C195 1.257 . S
C189 O184 1.254 . S
C189 O185 1.269 . S
C190 O191 1.249 . S
C190 O192 1.270 . S
O191 Zn183 1.943 . S
O191 C190 1.249 . S
O192 Zn182 2.067 . S
O192 C190 1.270 . S
C193 O186 1.262 . S
C193 O194 1.232 1_554 S
O194 C193 1.232 1_556 S
C195 O187 1.260 . S
C195 O188 1.257 . S
Zn196 O199 2.031 . S
Zn196 O201 2.049 . S
Zn196 O206 2.067 . S
Zn197 O198 1.962 . S
Zn197 O200 1.986 . S
Zn197 O202 1.996 . S
Zn197 O205 1.943 . S
O198 Zn197 1.962 . S
O198 C203 1.254 . S
O199 Zn196 2.031 . S
O199 C203 1.269 . S
O200 Zn197 1.986 . S
O200 C207 1.262 . S
O201 Zn196 2.049 . S
O201 C209 1.260 . S
O202 Zn197 1.996 . S
O202 C209 1.257 . S
C203 O198 1.254 . S
C203 O199 1.269 . S
C204 O205 1.249 . S
C204 O206 1.270 . S
O205 Zn197 1.943 . S
O205 C204 1.249 . S
O206 Zn196 2.067 . S
O206 C204 1.270 . S
C207 O200 1.262 . S
C207 O208 1.232 . S
O208 C207 1.232 . S
C209 O201 1.260 . S
C209 O202 1.257 . S
Zn210 O213 2.031 . S
Zn210 O215 2.049 . S
Zn210 O220 2.067 . S
Zn211 O212 1.962 . S
Zn211 O214 1.986 . S
Zn211 O216 1.996 . S
Zn211 O219 1.943 . S
O212 Zn211 1.962 . S
O212 C217 1.254 . S
O213 Zn210 2.031 . S
O213 C217 1.269 . S
O214 Zn211 1.986 . S
O214 C221 1.262 . S
O215 Zn210 2.049 . S
O215 C223 1.260 . S
O216 Zn211 1.996 . S
O216 C223 1.257 . S
C217 O212 1.254 . S
C217 O213 1.269 . S
C218 O219 1.249 . S
C218 O220 1.270 . S
O219 Zn211 1.943 . S
O219 C218 1.249 . S
O220 Zn210 2.067 . S
O220 C218 1.270 . S
C221 O214 1.262 . S
C221 O222 1.232 . S
O222 C221 1.232 . S
C223 O215 1.260 . S
C223 O216 1.257 . S
Zn224 O227 2.031 . S
Zn224 O229 2.049 . S
Zn224 O234 2.067 . S
Zn225 O226 1.962 . S
Zn225 O228 1.986 . S
Zn225 O230 1.996 . S
Zn225 O233 1.943 . S
O226 Zn225 1.962 . S
O226 C231 1.254 . S
O227 Zn224 2.031 . S
O227 C231 1.269 . S
O228 Zn225 1.986 . S
O228 C235 1.262 . S
O229 Zn224 2.049 . S
O229 C237 1.260 . S
O230 Zn225 1.996 . S
O230 C237 1.257 . S
C231 O226 1.254 . S
C231 O227 1.269 . S
C232 O233 1.249 . S
C232 O234 1.270 . S
O233 Zn225 1.943 . S
O233 C232 1.249 . S
O234 Zn224 2.067 . S
O234 C232 1.270 . S
C235 O228 1.262 . S
C235 O236 1.232 . S
O236 C235 1.232 . S
C237 O229 1.260 . S
C237 O230 1.257 . S
Zn238 O241 2.031 . S
Zn238 O243 2.049 . S
Zn238 O248 2.067 . S
Zn239 O240 1.962 . S
Zn239 O242 1.986 . S
Zn239 O244 1.996 . S
Zn239 O247 1.943 . S
O240 Zn239 1.962 . S
O240 C245 1.254 . S
O241 Zn238 2.031 . S
O241 C245 1.269 . S
O242 Zn239 1.986 . S
O242 C249 1.262 . S
O243 Zn238 2.049 . S
O243 C251 1.260 . S
O244 Zn239 1.996 . S
O244 C251 1.257 . S
C245 O240 1.254 . S
C245 O241 1.269 . S
C246 O247 1.249 . S
C246 O248 1.270 . S
O247 Zn239 1.943 . S
O247 C246 1.249 . S
O248 Zn238 2.067 . S
O248 C246 1.270 . S
C249 O242 1.262 . S
C249 O250 1.232 . S
O250 C249 1.232 . S
C251 O243 1.260 . S
C251 O244 1.257 . S
Zn252 O255 2.031 . S
Zn252 O257 2.049 . S
Zn252 O262 2.067 . S
Zn253 O254 1.962 . S
Zn253 O256 1.986 . S
Zn253 O258 1.996 . S
Zn253 O261 1.943 . S
O254 Zn253 1.962 . S
O254 C259 1.254 . S
O255 Zn252 2.031 . S
O255 C259 1.269 . S
O256 Zn253 1.986 . S
O256 C263 1.262 . S
O257 Zn252 2.049 . S
O257 C265 1.260 . S
O258 Zn253 1.996 . S
O258 C265 1.257 . S
C259 O254 1.254 . S
C259 O255 1.269 . S
C260 O261 1.249 . S
C260 O262 1.270 . S
O261 Zn253 1.943 . S
O261 C260 1.249 . S
O262 Zn252 2.067 . S
O262 C260 1.270 . S
C263 O256 1.262 . S
C263 O264 1.232 . S
O264 C263 1.232 . S
C265 O257 1.260 . S
C265 O258 1.257 . S
Zn266 O269 2.031 . S
Zn266 O271 2.049 . S
Zn266 O276 2.067 . S
Zn267 O268 1.962 . S
Zn267 O270 1.986 . S
Zn267 O272 1.996 . S
Zn267 O275 1.943 . S
O268 Zn267 1.962 . S
O268 C273 1.254 . S
O269 Zn266 2.031 . S
O269 C273 1.269 . S
O270 Zn267 1.986 . S
O270 C277 1.262 . S
O271 Zn266 2.049 . S
O271 C279 1.260 . S
O272 Zn267 1.996 . S
O272 C279 1.257 . S
C273 O268 1.254 . S
C273 O269 1.269 . S
C274 O275 1.249 . S
C274 O276 1.270 . S
O275 Zn267 1.943 . S
O275 C274 1.249 . S
O276 Zn266 2.067 . S
O276 C274 1.270 . S
C277 O270 1.262 . S
C277 O278 1.232 . S
O278 C277 1.232 . S
C279 O271 1.260 . S
C279 O272 1.257 . S
Zn280 O283 2.031 1_554 S
Zn280 O285 2.049 . S
Zn280 O290 2.067 . S
Zn281 O282 1.962 1_554 S
Zn281 O284 1.986 . S
Zn281 O286 1.996 . S
Zn281 O289 1.943 . S
O282 Zn281 1.962 1_556 S
O282 C287 1.254 . S
O283 Zn280 2.031 1_556 S
O283 C287 1.269 . S
O284 Zn281 1.986 . S
O284 C291 1.262 . S
O285 Zn280 2.049 . S
O285 C293 1.260 . S
O286 Zn281 1.996 . S
O286 C293 1.257 . S
C287 O282 1.254 . S
C287 O283 1.269 . S
C288 O289 1.249 . S
C288 O290 1.270 . S
O289 Zn281 1.943 . S
O289 C288 1.249 . S
O290 Zn280 2.067 . S
O290 C288 1.270 . S
C291 O284 1.262 . S
C291 O292 1.232 1_554 S
O292 C291 1.232 1_556 S
C293 O285 1.260 . S
C293 O286 1.257 . S
Zn294 O297 2.031 . S
Zn294 O299 2.049 . S
Zn294 O304 2.067 . S
Zn295 O296 1.962 . S
Zn295 O298 1.986 . S
Zn295 O300 1.996 . S
Zn295 O303 1.943 . S
O296 Zn295 1.962 . S
O296 C301 1.254 . S
O297 Zn294 2.031 . S
O297 C301 1.269 . S
O298 Zn295 1.986 . S
O298 C305 1.262 . S
O299 Zn294 2.049 . S
O299 C307 1.260 . S
O300 Zn295 1.996 . S
O300 C307 1.257 . S
C301 O296 1.254 . S
C301 O297 1.269 . S
C302 O303 1.249 . S
C302 O304 1.270 . S
O303 Zn295 1.943 . S
O303 C302 1.249 . S
O304 Zn294 2.067 . S
O304 C302 1.270 . S
C305 O298 1.262 . S
C305 O306 1.232 . S
O306 C305 1.232 . S
C307 O299 1.260 . S
C307 O300 1.257 . S
Zn308 O311 2.031 . S
Zn308 O313 2.049 . S
Zn308 O318 2.067 . S
Zn309 O310 1.962 . S
Zn309 O312 1.986 . S
Zn309 O314 1.996 . S
Zn309 O317 1.943 . S
O310 Zn309 1.962 . S
O310 C315 1.254 . S
O311 Zn308 2.031 . S
O311 C315 1.269 . S
O312 Zn309 1.986 . S
O312 C319 1.262 . S
O313 Zn308 2.049 . S
O313 C321 1.260 . S
O314 Zn309 1.996 . S
O314 C321 1.257 . S
C315 O310 1.254 . S
C315 O311 1.269 . S
C316 O317 1.249 . S
C316 O318 1.270 . S
O317 Zn309 1.943 . S
O317 C316 1.249 . S
O318 Zn308 2.067 . S
O318 C316 1.270 . S
C319 O312 1.262 . S
C319 O320 1.232 . S
O320 C319 1.232 . S
C321 O313 1.260 . S
C321 O314 1.257 . S
Zn322 O325 2.031 . S
Zn322 O327 2.049 . S
Zn322 O332 2.067 . S
Zn323 O324 1.962 . S
Zn323 O326 1.986 . S
Zn323 O328 1.996 . S
Zn323 O331 1.943 . S
O324 Zn323 1.962 . S
O324 C329 1.254 . S
O325 Zn322 2.031 . S
O325 C329 1.269 . S
O326 Zn323 1.986 . S
O326 C333 1.262 . S
O327 Zn322 2.049 . S
O327 C335 1.260 . S
O328 Zn323 1.996 . S
O328 C335 1.257 . S
C329 O324 1.254 . S
C329 O325 1.269 . S
C330 O331 1.249 . S
C330 O332 1.270 . S
O331 Zn323 1.943 . S
O331 C330 1.249 . S
O332 Zn322 2.067 . S
O332 C330 1.270 . S
C333 O326 1.262 . S
C333 O334 1.232 . S
O334 C333 1.232 . S
C335 O327 1.260 . S
C335 O328 1.257 . S
Sm336 C338 2.846 1_454 S
Sm336 O356 2.543 1_455 S
Sm336 O357 2.450 1_454 S
Sm336 O358 2.681 1_554 S
Sm336 O359 2.464 1_554 S
Sm336 O360 2.396 1_554 S
Sm336 O364 2.386 . S
Sm336 O367 2.408 1_545 S
Sm337 C347 2.846 . S
Sm337 O358 2.386 1_554 S
Sm337 O361 2.408 . S
Sm337 O362 2.543 . S
Sm337 O363 2.450 . S
Sm337 O364 2.681 . S
Sm337 O365 2.464 . S
Sm337 O366 2.396 . S
C338 Sm336 2.846 1_656 S
C338 C339 1.506 . S
C338 O356 1.261 1_556 S
C338 O357 1.242 . S
C339 C338 1.506 . S
C339 C340 1.358 1_556 S
C339 C344 1.382 . S
C340 C339 1.358 1_554 S
C340 C341 1.376 1_554 S
C340 H368 0.930 . S
C341 C340 1.376 1_556 S
C341 C342 1.438 . S
C341 H369 0.898 1_556 S
C342 C341 1.438 . S
C342 C343 1.335 . S
C343 C342 1.335 . S
C343 C344 1.398 . S
C343 H370 0.930 . S
C344 C339 1.382 . S
C344 C343 1.398 . S
C344 H371 0.929 . S
C345 O358 1.271 . S
C345 O359 1.251 . S
C346 O360 1.252 1_554 S
C346 O361 1.272 . S
C347 Sm337 2.846 . S
C347 C348 1.506 . S
C347 O362 1.261 . S
C347 O363 1.242 . S
C348 C347 1.506 . S
C348 C349 1.358 . S
C348 C353 1.382 . S
C349 C348 1.358 . S
C349 C350 1.389 . S
C349 H372 0.930 . S
C350 C349 1.389 . S
C350 C351 1.395 . S
C350 H373 0.925 1_545 S
C351 C350 1.395 . S
C351 C352 1.335 . S
C352 C351 1.335 . S
C352 C353 1.398 . S
C352 H374 0.930 . S
C353 C348 1.382 . S
C353 C352 1.398 . S
C353 H375 0.929 . S
C354 O364 1.271 . S
C354 O365 1.251 . S
C355 O366 1.252 1_565 S
C355 O367 1.272 . S
O356 Sm336 2.543 1_655 S
O356 C338 1.261 1_554 S
O357 Sm336 2.450 1_656 S
O357 C338 1.242 . S
O358 Sm336 2.681 1_556 S
O358 Sm337 2.386 1_556 S
O358 C345 1.271 . S
O359 Sm336 2.464 1_556 S
O359 C345 1.251 . S
O360 Sm336 2.396 1_556 S
O360 C346 1.252 1_556 S
O361 Sm337 2.408 . S
O361 C346 1.272 . S
O362 Sm337 2.543 . S
O362 C347 1.261 . S
O363 Sm337 2.450 . S
O363 C347 1.242 . S
O364 Sm336 2.386 . S
O364 Sm337 2.681 . S
O364 C354 1.271 . S
O365 Sm337 2.464 . S
O365 C354 1.251 . S
O366 Sm337 2.396 . S
O366 C355 1.252 1_545 S
O367 Sm336 2.408 1_565 S
O367 C355 1.272 . S
H368 C340 0.930 . S
H369 C341 0.898 1_554 S
H370 C343 0.930 . S
H371 C344 0.929 . S
H372 C349 0.930 . S
H373 C350 0.925 1_565 S
H374 C352 0.930 . S
H375 C353 0.929 . S
Sm376 C378 2.846 . S
Sm376 O396 2.543 . S
Sm376 O397 2.450 . S
Sm376 O398 2.681 . S
Sm376 O399 2.464 . S
Sm376 O400 2.396 . S
Sm376 O404 2.386 . S
Sm376 O407 2.408 . S
Sm377 C387 2.846 . S
Sm377 O398 2.386 . S
Sm377 O401 2.408 . S
Sm377 O402 2.543 . S
Sm377 O403 2.450 . S
Sm377 O404 2.681 . S
Sm377 O405 2.464 . S
Sm377 O406 2.396 . S
C378 Sm376 2.846 . S
C378 C379 1.506 . S
C378 O396 1.261 . S
C378 O397 1.242 . S
C379 C378 1.506 . S
C379 C380 1.358 . S
C379 C384 1.382 . S
C380 C379 1.358 . S
C380 C381 1.385 . S
C380 H408 0.930 . S
C381 C380 1.385 . S
C381 C382 1.395 . S
C381 H409 0.929 . S
C382 C381 1.395 . S
C382 C383 1.335 . S
C383 C382 1.335 . S
C383 C384 1.398 . S
C383 H410 0.930 . S
C384 C379 1.382 . S
C384 C383 1.398 . S
C384 H411 0.929 . S
C385 O398 1.271 . S
C385 O399 1.251 . S
C386 O400 1.252 . S
C386 O401 1.272 . S
C387 Sm377 2.846 . S
C387 C388 1.506 . S
C387 O402 1.261 . S
C387 O403 1.242 . S
C388 C387 1.506 . S
C388 C389 1.358 . S
C388 C393 1.382 . S
C389 C388 1.358 . S
C389 C390 1.385 . S
C389 H412 0.930 . S
C390 C389 1.385 . S
C390 C391 1.395 . S
C390 H413 0.929 . S
C391 C390 1.395 . S
C391 C392 1.335 . S
C392 C391 1.335 . S
C392 C393 1.398 . S
C392 H414 0.930 . S
C393 C388 1.382 . S
C393 C392 1.398 . S
C393 H415 0.929 . S
C394 O404 1.271 . S
C394 O405 1.251 . S
C395 O406 1.252 . S
C395 O407 1.272 . S
O396 Sm376 2.543 . S
O396 C378 1.261 . S
O397 Sm376 2.450 . S
O397 C378 1.242 . S
O398 Sm376 2.681 . S
O398 Sm377 2.386 . S
O398 C385 1.271 . S
O399 Sm376 2.464 . S
O399 C385 1.251 . S
O400 Sm376 2.396 . S
O400 C386 1.252 . S
O401 Sm377 2.408 . S
O401 C386 1.272 . S
O402 Sm377 2.543 . S
O402 C387 1.261 . S
O403 Sm377 2.450 . S
O403 C387 1.242 . S
O404 Sm376 2.386 . S
O404 Sm377 2.681 . S
O404 C394 1.271 . S
O405 Sm377 2.464 . S
O405 C394 1.251 . S
O406 Sm377 2.396 . S
O406 C395 1.252 . S
O407 Sm376 2.408 . S
O407 C395 1.272 . S
H408 C380 0.930 . S
H409 C381 0.929 . S
H410 C383 0.930 . S
H411 C384 0.929 . S
H412 C389 0.930 . S
H413 C390 0.929 . S
H414 C392 0.930 . S
H415 C393 0.929 . S
Sm416 C418 2.846 . S
Sm416 O436 2.543 . S
Sm416 O437 2.450 . S
Sm416 O438 2.681 . S
Sm416 O439 2.464 . S
Sm416 O440 2.359 1_545 S
Sm416 O444 2.386 . S
Sm416 O447 2.408 . S
Sm417 C427 2.846 . S
Sm417 O438 2.386 . S
Sm417 O441 2.408 1_545 S
Sm417 O442 2.543 . S
Sm417 O443 2.450 . S
Sm417 O444 2.681 . S
Sm417 O445 2.464 . S
Sm417 O446 2.396 . S
C418 Sm416 2.846 . S
C418 C419 1.506 1_545 S
C418 O436 1.261 . S
C418 O437 1.242 . S
C419 C418 1.506 1_565 S
C419 C420 1.358 . S
C419 C424 1.382 . S
C420 C419 1.358 . S
C420 C421 1.385 . S
C420 H448 0.930 . S
C421 C420 1.385 . S
C421 C422 1.395 . S
C421 H449 0.929 . S
C422 C421 1.395 . S
C422 C423 1.335 . S
C423 C422 1.335 . S
C423 C424 1.398 . S
C423 H450 0.930 . S
C424 C419 1.382 . S
C424 C423 1.398 . S
C424 H451 0.929 1_565 S
C425 O438 1.271 . S
C425 O439 1.251 . S
C426 O440 1.275 . S
C426 O441 1.272 . S
C427 Sm417 2.846 . S
C427 C428 1.506 . S
C427 O442 1.261 . S
C427 O443 1.242 . S
C428 C427 1.506 . S
C428 C429 1.358 . S
C428 C433 1.382 . S
C429 C428 1.358 . S
C429 C430 1.385 . S
C429 H452 0.930 . S
C430 C429 1.385 . S
C430 C431 1.395 . S
C430 H453 0.929 . S
C431 C430 1.395 . S
C431 C432 1.335 . S
C432 C431 1.335 . S
C432 C433 1.398 . S
C432 H454 0.930 . S
C433 C428 1.382 . S
C433 C432 1.398 . S
C433 H455 0.929 . S
C434 O444 1.271 . S
C434 O445 1.251 . S
C435 O446 1.252 . S
C435 O447 1.272 . S
O436 Sm416 2.543 . S
O436 C418 1.261 . S
O437 Sm416 2.450 . S
O437 C418 1.242 . S
O438 Sm416 2.681 . S
O438 Sm417 2.386 . S
O438 C425 1.271 . S
O439 Sm416 2.464 . S
O439 C425 1.251 . S
O440 Sm416 2.359 1_565 S
O440 C426 1.275 . S
O441 Sm417 2.408 1_565 S
O441 C426 1.272 . S
O442 Sm417 2.543 . S
O442 C427 1.261 . S
O443 Sm417 2.450 . S
O443 C427 1.242 . S
O444 Sm416 2.386 . S
O444 Sm417 2.681 . S
O444 C434 1.271 . S
O445 Sm417 2.464 . S
O445 C434 1.251 . S
O446 Sm417 2.396 . S
O446 C435 1.252 . S
O447 Sm416 2.408 . S
O447 C435 1.272 . S
H448 C420 0.930 . S
H449 C421 0.929 . S
H450 C423 0.930 . S
H451 C424 0.929 1_545 S
H452 C429 0.930 . S
H453 C430 0.929 . S
H454 C432 0.930 . S
H455 C433 0.929 . S
Sm456 C458 2.846 . S
Sm456 O476 2.543 . S
Sm456 O477 2.450 . S
Sm456 O478 2.681 . S
Sm456 O479 2.464 . S
Sm456 O480 2.396 . S
Sm456 O484 2.386 . S
Sm456 O487 2.408 . S
Sm457 C467 2.846 . S
Sm457 O478 2.386 . S
Sm457 O481 2.408 . S
Sm457 O482 2.543 . S
Sm457 O483 2.450 . S
Sm457 O484 2.681 . S
Sm457 O485 2.464 . S
Sm457 O486 2.396 . S
C458 Sm456 2.846 . S
C458 C459 1.506 . S
C458 O476 1.261 . S
C458 O477 1.242 . S
C459 C458 1.506 . S
C459 C460 1.358 . S
C459 C464 1.382 . S
C460 C459 1.358 . S
C460 C461 1.385 . S
C460 H488 0.930 . S
C461 C460 1.385 . S
C461 C462 1.395 . S
C461 H489 0.929 . S
C462 C461 1.395 . S
C462 C463 1.335 . S
C463 C462 1.335 . S
C463 C464 1.398 . S
C463 H490 0.930 . S
C464 C459 1.382 . S
C464 C463 1.398 . S
C464 H491 0.929 . S
C465 O478 1.271 . S
C465 O479 1.251 . S
C466 O480 1.252 . S
C466 O481 1.272 . S
C467 Sm457 2.846 . S
C467 C468 1.506 . S
C467 O482 1.261 . S
C467 O483 1.242 . S
C468 C467 1.506 . S
C468 C469 1.358 . S
C468 C473 1.382 . S
C469 C468 1.358 . S
C469 C470 1.385 . S
C469 H492 0.930 . S
C470 C469 1.385 . S
C470 C471 1.395 . S
C470 H493 0.929 . S
C471 C470 1.395 . S
C471 C472 1.335 . S
C472 C471 1.335 . S
C472 C473 1.398 . S
C472 H494 0.930 . S
C473 C468 1.382 . S
C473 C472 1.398 . S
C473 H495 0.929 . S
C474 O484 1.271 . S
C474 O485 1.251 . S
C475 O486 1.252 . S
C475 O487 1.272 . S
O476 Sm456 2.543 . S
O476 C458 1.261 . S
O477 Sm456 2.450 . S
O477 C458 1.242 . S
O478 Sm456 2.681 . S
O478 Sm457 2.386 . S
O478 C465 1.271 . S
O479 Sm456 2.464 . S
O479 C465 1.251 . S
O480 Sm456 2.396 . S
O480 C466 1.252 . S
O481 Sm457 2.408 . S
O481 C466 1.272 . S
O482 Sm457 2.543 . S
O482 C467 1.261 . S
O483 Sm457 2.450 . S
O483 C467 1.242 . S
O484 Sm456 2.386 . S
O484 Sm457 2.681 . S
O484 C474 1.271 . S
O485 Sm457 2.464 . S
O485 C474 1.251 . S
O486 Sm457 2.396 . S
O486 C475 1.252 . S
O487 Sm456 2.408 . S
O487 C475 1.272 . S
H488 C460 0.930 . S
H489 C461 0.929 . S
H490 C463 0.930 . S
H491 C464 0.929 . S
H492 C469 0.930 . S
H493 C470 0.929 . S
H494 C472 0.930 . S
H495 C473 0.929 . S
Sm496 C498 2.846 . S
Sm496 O516 2.543 . S
Sm496 O517 2.450 . S
Sm496 O518 2.681 . S
Sm496 O519 2.464 . S
Sm496 O520 2.396 . S
Sm496 O524 2.386 . S
Sm496 O527 2.408 . S
Sm497 C507 2.846 1_545 S
Sm497 O518 2.386 . S
Sm497 O521 2.408 . S
Sm497 O522 2.543 1_545 S
Sm497 O523 2.450 1_545 S
Sm497 O524 2.681 . S
Sm497 O525 2.464 . S
Sm497 O526 2.396 . S
C498 Sm496 2.846 . S
C498 C499 1.506 . S
C498 O516 1.261 . S
C498 O517 1.242 . S
C499 C498 1.506 . S
C499 C500 1.358 . S
C499 C504 1.382 . S
C500 C499 1.358 . S
C500 C501 1.385 . S
C500 H528 0.930 . S
C501 C500 1.385 . S
C501 C502 1.395 . S
C501 H529 0.929 . S
C502 C501 1.395 . S
C502 C503 1.335 . S
C503 C502 1.335 . S
C503 C504 1.398 . S
C503 H530 0.930 . S
C504 C499 1.382 . S
C504 C503 1.398 . S
C504 H531 0.929 . S
C505 O518 1.271 . S
C505 O519 1.251 . S
C506 O520 1.252 . S
C506 O521 1.272 . S
C507 Sm497 2.846 1_565 S
C507 C508 1.506 . S
C507 O522 1.261 . S
C507 O523 1.242 . S
C508 C507 1.506 . S
C508 C509 1.358 . S
C508 C513 1.382 . S
C509 C508 1.358 . S
C509 C510 1.385 . S
C509 H532 0.930 . S
C510 C509 1.385 . S
C510 C511 1.395 . S
C510 H533 0.929 . S
C511 C510 1.395 . S
C511 C512 1.335 . S
C512 C511 1.335 . S
C512 C513 1.398 . S
C512 H534 0.930 . S
C513 C508 1.382 . S
C513 C512 1.398 . S
C513 H535 0.929 . S
C514 O524 1.271 . S
C514 O525 1.251 . S
C515 O526 1.252 . S
C515 O527 1.272 . S
O516 Sm496 2.543 . S
O516 C498 1.261 . S
O517 Sm496 2.450 . S
O517 C498 1.242 . S
O518 Sm496 2.681 . S
O518 Sm497 2.386 . S
O518 C505 1.271 . S
O519 Sm496 2.464 . S
O519 C505 1.251 . S
O520 Sm496 2.396 . S
O520 C506 1.252 . S
O521 Sm497 2.408 . S
O521 C506 1.272 . S
O522 Sm497 2.543 1_565 S
O522 C507 1.261 . S
O523 Sm497 2.450 1_565 S
O523 C507 1.242 . S
O524 Sm496 2.386 . S
O524 Sm497 2.681 . S
O524 C514 1.271 . S
O525 Sm497 2.464 . S
O525 C514 1.251 . S
O526 Sm497 2.396 . S
O526 C515 1.252 . S
O527 Sm496 2.408 . S
O527 C515 1.272 . S
H528 C500 0.930 . S
H529 C501 0.929 . S
H530 C503 0.930 . S
H531 C504 0.929 . S
H532 C509 0.930 . S
H533 C510 0.929 . S
H534 C512 0.930 . S
H535 C513 0.929 . S
Sm536 C538 2.846 . S
Sm536 O556 2.543 . S
Sm536 O557 2.450 . S
Sm536 O558 2.681 . S
Sm536 O559 2.464 . S
Sm536 O560 2.396 . S
Sm536 O564 2.386 . S
Sm536 O567 2.408 . S
Sm537 C547 2.846 . S
Sm537 O558 2.386 . S
Sm537 O561 2.408 . S
Sm537 O562 2.543 . S
Sm537 O563 2.450 . S
Sm537 O564 2.681 . S
Sm537 O565 2.464 . S
Sm537 O566 2.396 . S
C538 Sm536 2.846 . S
C538 C539 1.506 . S
C538 O556 1.261 . S
C538 O557 1.242 . S
C539 C538 1.506 . S
C539 C540 1.358 . S
C539 C544 1.382 . S
C540 C539 1.358 . S
C540 C541 1.385 . S
C540 H568 0.930 . S
C541 C540 1.385 . S
C541 C542 1.395 . S
C541 H569 0.929 . S
C542 C541 1.395 . S
C542 C543 1.335 . S
C543 C542 1.335 . S
C543 C544 1.398 . S
C543 H570 0.930 . S
C544 C539 1.382 . S
C544 C543 1.398 . S
C544 H571 0.929 . S
C545 O558 1.271 . S
C545 O559 1.251 . S
C546 O560 1.252 . S
C546 O561 1.272 . S
C547 Sm537 2.846 . S
C547 C548 1.506 . S
C547 O562 1.261 . S
C547 O563 1.242 . S
C548 C547 1.506 . S
C548 C549 1.358 . S
C548 C553 1.382 . S
C549 C548 1.358 . S
C549 C550 1.385 . S
C549 H572 0.930 . S
C550 C549 1.385 . S
C550 C551 1.395 . S
C550 H573 0.929 . S
C551 C550 1.395 . S
C551 C552 1.335 . S
C552 C551 1.335 . S
C552 C553 1.398 . S
C552 H574 0.930 . S
C553 C548 1.382 . S
C553 C552 1.398 . S
C553 H575 0.929 . S
C554 O564 1.271 . S
C554 O565 1.251 . S
C555 O566 1.252 . S
C555 O567 1.272 . S
O556 Sm536 2.543 . S
O556 C538 1.261 . S
O557 Sm536 2.450 . S
O557 C538 1.242 . S
O558 Sm536 2.681 . S
O558 Sm537 2.386 . S
O558 C545 1.271 . S
O559 Sm536 2.464 . S
O559 C545 1.251 . S
O560 Sm536 2.396 . S
O560 C546 1.252 . S
O561 Sm537 2.408 . S
O561 C546 1.272 . S
O562 Sm537 2.543 . S
O562 C547 1.261 . S
O563 Sm537 2.450 . S
O563 C547 1.242 . S
O564 Sm536 2.386 . S
O564 Sm537 2.681 . S
O564 C554 1.271 . S
O565 Sm537 2.464 . S
O565 C554 1.251 . S
O566 Sm537 2.396 . S
O566 C555 1.252 . S
O567 Sm536 2.408 . S
O567 C555 1.272 . S
H568 C540 0.930 . S
H569 C541 0.929 . S
H570 C543 0.930 . S
H571 C544 0.929 . S
H572 C549 0.930 . S
H573 C550 0.929 . S
H574 C552 0.930 . S
H575 C553 0.929 . S
Sm576 C578 2.846 . S
Sm576 O596 2.543 . S
Sm576 O597 2.450 . S
Sm576 O598 2.681 1_554 S
Sm576 O599 2.451 1_545 S
Sm576 O600 2.396 . S
Sm576 O604 2.386 . S
Sm576 O607 2.408 . S
Sm577 C587 2.846 . S
Sm577 O598 2.386 . S
Sm577 O601 2.408 . S
Sm577 O602 2.543 . S
Sm577 O603 2.450 . S
Sm577 O604 2.681 1_556 S
Sm577 O605 2.464 . S
Sm577 O606 2.396 . S
C578 Sm576 2.846 . S
C578 C579 1.506 . S
C578 O596 1.261 . S
C578 O597 1.242 . S
C579 C578 1.506 . S
C579 C580 1.358 . S
C579 C584 1.382 1_545 S
C580 C579 1.358 . S
C580 C581 1.385 . S
C580 H608 0.930 . S
C581 C580 1.385 . S
C581 C582 1.395 . S
C581 H609 0.929 . S
C582 C581 1.395 . S
C582 C583 1.335 1_545 S
C583 C582 1.335 1_565 S
C583 C584 1.398 . S
C583 H610 0.930 . S
C584 C579 1.382 1_565 S
C584 C583 1.398 . S
C584 H611 0.929 . S
C585 O598 1.271 . S
C585 O599 1.246 1_546 S
C586 O600 1.252 . S
C586 O601 1.272 1_554 S
C587 Sm577 2.846 . S
C587 C588 1.506 . S
C587 O602 1.261 . S
C587 O603 1.242 . S
C588 C587 1.506 . S
C588 C589 1.358 . S
C588 C593 1.382 . S
C589 C588 1.358 . S
C589 C590 1.385 . S
C589 H612 0.930 . S
C590 C589 1.385 . S
C590 C591 1.395 . S
C590 H613 0.929 . S
C591 C590 1.395 . S
C591 C592 1.335 . S
C592 C591 1.335 . S
C592 C593 1.398 . S
C592 H614 0.930 . S
C593 C588 1.382 . S
C593 C592 1.398 . S
C593 H615 0.929 . S
C594 O604 1.271 . S
C594 O605 1.251 1_554 S
C595 O606 1.252 1_554 S
C595 O607 1.272 . S
O596 Sm576 2.543 . S
O596 C578 1.261 . S
O597 Sm576 2.450 . S
O597 C578 1.242 . S
O598 Sm576 2.681 1_556 S
O598 Sm577 2.386 . S
O598 C585 1.271 . S
O599 Sm576 2.451 1_565 S
O599 C585 1.246 1_564 S
O600 Sm576 2.396 . S
O600 C586 1.252 . S
O601 Sm577 2.408 . S
O601 C586 1.272 1_556 S
O602 Sm577 2.543 . S
O602 C587 1.261 . S
O603 Sm577 2.450 . S
O603 C587 1.242 . S
O604 Sm576 2.386 . S
O604 Sm577 2.681 1_554 S
O604 C594 1.271 . S
O605 Sm577 2.464 . S
O605 C594 1.251 1_556 S
O606 Sm577 2.396 . S
O606 C595 1.252 1_556 S
O607 Sm576 2.408 . S
O607 C595 1.272 . S
H608 C580 0.930 . S
H609 C581 0.929 . S
H610 C583 0.930 . S
H611 C584 0.929 . S
H612 C589 0.930 . S
H613 C590 0.929 . S
H614 C592 0.930 . S
H615 C593 0.929 . S
Sm616 C618 2.846 . S
Sm616 O636 2.543 . S
Sm616 O637 2.450 . S
Sm616 O638 2.681 . S
Sm616 O639 2.464 . S
Sm616 O640 2.396 . S
Sm616 O644 2.386 . S
Sm616 O647 2.408 . S
Sm617 C627 2.846 . S
Sm617 O638 2.386 . S
Sm617 O641 2.408 . S
Sm617 O642 2.543 . S
Sm617 O643 2.450 . S
Sm617 O644 2.681 . S
Sm617 O645 2.464 . S
Sm617 O646 2.396 . S
C618 Sm616 2.846 . S
C618 C619 1.506 . S
C618 O636 1.261 . S
C618 O637 1.242 . S
C619 C618 1.506 . S
C619 C620 1.358 . S
C619 C624 1.382 . S
C620 C619 1.358 . S
C620 C621 1.385 . S
C620 H648 0.930 . S
C621 C620 1.385 . S
C621 C622 1.395 . S
C621 H649 0.929 . S
C622 C621 1.395 . S
C622 C623 1.335 . S
C623 C622 1.335 . S
C623 C624 1.398 . S
C623 H650 0.930 . S
C624 C619 1.382 . S
C624 C623 1.398 . S
C624 H651 0.929 . S
C625 O638 1.271 . S
C625 O639 1.251 . S
C626 O640 1.252 . S
C626 O641 1.272 . S
C627 Sm617 2.846 . S
C627 C628 1.506 . S
C627 O642 1.261 . S
C627 O643 1.242 . S
C628 C627 1.506 . S
C628 C629 1.358 . S
C628 C633 1.382 . S
C629 C628 1.358 . S
C629 C630 1.385 . S
C629 H652 0.930 . S
C630 C629 1.385 . S
C630 C631 1.395 . S
C630 H653 0.929 . S
C631 C630 1.395 . S
C631 C632 1.335 . S
C632 C631 1.335 . S
C632 C633 1.398 . S
C632 H654 0.930 . S
C633 C628 1.382 . S
C633 C632 1.398 . S
C633 H655 0.929 . S
C634 O644 1.271 . S
C634 O645 1.251 . S
C635 O646 1.252 . S
C635 O647 1.272 . S
O636 Sm616 2.543 . S
O636 C618 1.261 . S
O637 Sm616 2.450 . S
O637 C618 1.242 . S
O638 Sm616 2.681 . S
O638 Sm617 2.386 . S
O638 C625 1.271 . S
O639 Sm616 2.464 . S
O639 C625 1.251 . S
O640 Sm616 2.396 . S
O640 C626 1.252 . S
O641 Sm617 2.408 . S
O641 C626 1.272 . S
O642 Sm617 2.543 . S
O642 C627 1.261 . S
O643 Sm617 2.450 . S
O643 C627 1.242 . S
O644 Sm616 2.386 . S
O644 Sm617 2.681 . S
O644 C634 1.271 . S
O645 Sm617 2.464 . S
O645 C634 1.251 . S
O646 Sm617 2.396 . S
O646 C635 1.252 . S
O647 Sm616 2.408 . S
O647 C635 1.272 . S
H648 C620 0.930 . S
H649 C621 0.929 . S
H650 C623 0.930 . S
H651 C624 0.929 . S
H652 C629 0.930 . S
H653 C630 0.929 . S
H654 C632 0.930 . S
H655 C633 0.929 . S
Sm656 C658 2.846 1_554 S
Sm656 O676 2.543 1_554 S
Sm656 O677 2.450 . S
Sm656 O678 2.681 . S
Sm656 O679 2.464 . S
Sm656 O680 2.396 1_554 S
Sm656 O684 2.386 . S
Sm656 O687 2.408 . S
Sm657 C667 2.846 1_556 S
Sm657 O678 2.386 1_556 S
Sm657 O681 2.408 . S
Sm657 O682 2.543 1_556 S
Sm657 O683 2.450 1_556 S
Sm657 O684 2.681 1_556 S
Sm657 O685 2.454 . S
Sm657 O686 2.396 1_556 S
C658 Sm656 2.846 1_556 S
C658 C659 1.506 . S
C658 O676 1.261 . S
C658 O677 1.242 1_556 S
C659 C658 1.506 . S
C659 C660 1.358 . S
C659 C664 1.382 . S
C660 C659 1.358 . S
C660 C661 1.385 . S
C660 H688 0.930 . S
C661 C660 1.385 . S
C661 C662 1.395 . S
C661 H689 0.929 . S
C662 C661 1.395 . S
C662 C663 1.335 . S
C663 C662 1.335 . S
C663 C664 1.398 . S
C663 H690 0.930 . S
C664 C659 1.382 . S
C664 C663 1.398 . S
C664 H691 0.929 . S
C665 O678 1.271 . S
C665 O679 1.251 . S
C666 O680 1.252 . S
C666 O681 1.272 . S
C667 Sm657 2.846 1_554 S
C667 C668 1.506 . S
C667 O682 1.261 . S
C667 O683 1.242 . S
C668 C667 1.506 . S
C668 C669 1.358 . S
C668 C673 1.382 . S
C669 C668 1.358 . S
C669 C670 1.385 . S
C669 H692 0.930 . S
C670 C669 1.385 . S
C670 C671 1.395 . S
C670 H693 0.929 . S
C671 C670 1.395 . S
C671 C672 1.335 . S
C672 C671 1.335 . S
C672 C673 1.398 . S
C672 H694 0.930 . S
C673 C668 1.382 . S
C673 C672 1.398 . S
C673 H695 0.929 . S
C674 O684 1.271 . S
C674 O685 1.252 1_554 S
C675 O686 1.252 . S
C675 O687 1.272 . S
O676 Sm656 2.543 1_556 S
O676 C658 1.261 . S
O677 Sm656 2.450 . S
O677 C658 1.242 1_554 S
O678 Sm656 2.681 . S
O678 Sm657 2.386 1_554 S
O678 C665 1.271 . S
O679 Sm656 2.464 . S
O679 C665 1.251 . S
O680 Sm656 2.396 1_556 S
O680 C666 1.252 . S
O681 Sm657 2.408 . S
O681 C666 1.272 . S
O682 Sm657 2.543 1_554 S
O682 C667 1.261 . S
O683 Sm657 2.450 1_554 S
O683 C667 1.242 . S
O684 Sm656 2.386 . S
O684 Sm657 2.681 1_554 S
O684 C674 1.271 . S
O685 Sm657 2.454 . S
O685 C674 1.252 1_556 S
O686 Sm657 2.396 1_554 S
O686 C675 1.252 . S
O687 Sm656 2.408 . S
O687 C675 1.272 . S
H688 C660 0.930 . S
H689 C661 0.929 . S
H690 C663 0.930 . S
H691 C664 0.929 . S
H692 C669 0.930 . S
H693 C670 0.929 . S
H694 C672 0.930 . S
H695 C673 0.929 . S
Sm696 C698 2.846 . S
Sm696 O716 2.543 . S
Sm696 O717 2.450 . S
Sm696 O718 2.681 . S
Sm696 O719 2.464 . S
Sm696 O720 2.396 . S
Sm696 O724 2.386 . S
Sm696 O727 2.408 . S
Sm697 C707 2.846 . S
Sm697 O718 2.386 . S
Sm697 O721 2.408 . S
Sm697 O722 2.543 . S
Sm697 O723 2.450 . S
Sm697 O724 2.681 . S
Sm697 O725 2.464 . S
Sm697 O726 2.396 . S
C698 Sm696 2.846 . S
C698 C699 1.506 . S
C698 O716 1.261 . S
C698 O717 1.242 . S
C699 C698 1.506 . S
C699 C700 1.358 . S
C699 C704 1.382 . S
C700 C699 1.358 . S
C700 C701 1.385 . S
C700 H728 0.930 . S
C701 C700 1.385 . S
C701 C702 1.395 . S
C701 H729 0.929 . S
C702 C701 1.395 . S
C702 C703 1.335 . S
C703 C702 1.335 . S
C703 C704 1.398 . S
C703 H730 0.930 . S
C704 C699 1.382 . S
C704 C703 1.398 . S
C704 H731 0.929 . S
C705 O718 1.271 . S
C705 O719 1.251 . S
C706 O720 1.252 . S
C706 O721 1.272 . S
C707 Sm697 2.846 . S
C707 C708 1.506 . S
C707 O722 1.261 . S
C707 O723 1.242 . S
C708 C707 1.506 . S
C708 C709 1.358 . S
C708 C713 1.382 . S
C709 C708 1.358 . S
C709 C710 1.385 . S
C709 H732 0.930 . S
C710 C709 1.385 . S
C710 C711 1.395 . S
C710 H733 0.929 . S
C711 C710 1.395 . S
C711 C712 1.335 . S
C712 C711 1.335 . S
C712 C713 1.398 . S
C712 H734 0.930 . S
C713 C708 1.382 . S
C713 C712 1.398 . S
C713 H735 0.929 . S
C714 O724 1.271 . S
C714 O725 1.251 . S
C715 O726 1.252 . S
C715 O727 1.272 . S
O716 Sm696 2.543 . S
O716 C698 1.261 . S
O717 Sm696 2.450 . S
O717 C698 1.242 . S
O718 Sm696 2.681 . S
O718 Sm697 2.386 . S
O718 C705 1.271 . S
O719 Sm696 2.464 . S
O719 C705 1.251 . S
O720 Sm696 2.396 . S
O720 C706 1.252 . S
O721 Sm697 2.408 . S
O721 C706 1.272 . S
O722 Sm697 2.543 . S
O722 C707 1.261 . S
O723 Sm697 2.450 . S
O723 C707 1.242 . S
O724 Sm696 2.386 . S
O724 Sm697 2.681 . S
O724 C714 1.271 . S
O725 Sm697 2.464 . S
O725 C714 1.251 . S
O726 Sm697 2.396 . S
O726 C715 1.252 . S
O727 Sm696 2.408 . S
O727 C715 1.272 . S
H728 C700 0.930 . S
H729 C701 0.929 . S
H730 C703 0.930 . S
H731 C704 0.929 . S
H732 C709 0.930 . S
H733 C710 0.929 . S
H734 C712 0.930 . S
H735 C713 0.929 . S
Sm736 C738 2.846 . S
Sm736 O756 2.543 . S
Sm736 O757 2.450 . S
Sm736 O758 2.681 . S
Sm736 O759 2.464 . S
Sm736 O760 2.396 . S
Sm736 O764 2.386 . S
Sm736 O767 2.408 . S
Sm737 C747 2.846 . S
Sm737 O758 2.386 . S
Sm737 O761 2.408 1_455 S
Sm737 O762 2.543 . S
Sm737 O763 2.450 . S
Sm737 O764 2.681 . S
Sm737 O765 2.464 . S
Sm737 O766 2.396 . S
C738 Sm736 2.846 . S
C738 C739 1.506 . S
C738 O756 1.261 . S
C738 O757 1.242 . S
C739 C738 1.506 . S
C739 C740 1.358 1_455 S
C739 C744 1.382 . S
C740 C739 1.358 1_655 S
C740 C741 1.385 . S
C740 H768 0.930 . S
C741 C740 1.385 . S
C741 C742 1.395 . S
C741 H769 0.929 . S
C742 C741 1.395 . S
C742 C743 1.335 . S
C743 C742 1.335 . S
C743 C744 1.398 1_655 S
C743 H770 0.930 . S
C744 C739 1.382 . S
C744 C743 1.398 1_455 S
C744 H771 0.929 . S
C745 O758 1.271 . S
C745 O759 1.251 . S
C746 O760 1.252 1_655 S
C746 O761 1.272 . S
C747 Sm737 2.846 . S
C747 C748 1.506 . S
C747 O762 1.261 . S
C747 O763 1.242 . S
C748 C747 1.506 . S
C748 C749 1.358 . S
C748 C753 1.382 . S
C749 C748 1.358 . S
C749 C750 1.385 . S
C749 H772 0.930 . S
C750 C749 1.385 . S
C750 C751 1.395 . S
C750 H773 0.929 . S
C751 C750 1.395 . S
C751 C752 1.335 . S
C752 C751 1.335 . S
C752 C753 1.398 . S
C752 H774 0.930 . S
C753 C748 1.382 . S
C753 C752 1.398 . S
C753 H775 0.929 . S
C754 O764 1.271 . S
C754 O765 1.251 . S
C755 O766 1.252 . S
C755 O767 1.272 . S
O756 Sm736 2.543 . S
O756 C738 1.261 . S
O757 Sm736 2.450 . S
O757 C738 1.242 . S
O758 Sm736 2.681 . S
O758 Sm737 2.386 . S
O758 C745 1.271 . S
O759 Sm736 2.464 . S
O759 C745 1.251 . S
O760 Sm736 2.396 . S
O760 C746 1.252 1_455 S
O761 Sm737 2.408 1_655 S
O761 C746 1.272 . S
O762 Sm737 2.543 . S
O762 C747 1.261 . S
O763 Sm737 2.450 . S
O763 C747 1.242 . S
O764 Sm736 2.386 . S
O764 Sm737 2.681 . S
O764 C754 1.271 . S
O765 Sm737 2.464 . S
O765 C754 1.251 . S
O766 Sm737 2.396 . S
O766 C755 1.252 . S
O767 Sm736 2.408 . S
O767 C755 1.272 . S
H768 C740 0.930 . S
H769 C741 0.929 . S
H770 C743 0.930 . S
H771 C744 0.929 . S
H772 C749 0.930 . S
H773 C750 0.929 . S
H774 C752 0.930 . S
H775 C753 0.929 . S
Sm776 C778 2.846 . S
Sm776 O796 2.543 . S
Sm776 O797 2.450 . S
Sm776 O798 2.681 . S
Sm776 O799 2.464 . S
Sm776 O800 2.396 . S
Sm776 O804 2.386 . S
Sm776 O807 2.408 . S
Sm777 C787 2.846 . S
Sm777 O798 2.386 . S
Sm777 O801 2.408 . S
Sm777 O802 2.543 . S
Sm777 O803 2.450 . S
Sm777 O804 2.681 . S
Sm777 O805 2.464 . S
Sm777 O806 2.396 . S
C778 Sm776 2.846 . S
C778 C779 1.506 . S
C778 O796 1.261 . S
C778 O797 1.242 . S
C779 C778 1.506 . S
C779 C780 1.358 . S
C779 C784 1.382 . S
C780 C779 1.358 . S
C780 C781 1.385 . S
C780 H808 0.930 . S
C781 C780 1.385 . S
C781 C782 1.395 . S
C781 H809 0.929 . S
C782 C781 1.395 . S
C782 C783 1.335 . S
C783 C782 1.335 . S
C783 C784 1.398 . S
C783 H810 0.930 . S
C784 C779 1.382 . S
C784 C783 1.398 . S
C784 H811 0.929 . S
C785 O798 1.271 . S
C785 O799 1.251 . S
C786 O800 1.252 . S
C786 O801 1.272 . S
C787 Sm777 2.846 . S
C787 C788 1.506 . S
C787 O802 1.261 . S
C787 O803 1.242 . S
C788 C787 1.506 . S
C788 C789 1.358 . S
C788 C793 1.382 . S
C789 C788 1.358 . S
C789 C790 1.385 . S
C789 H812 0.930 . S
C790 C789 1.385 . S
C790 C791 1.395 . S
C790 H813 0.929 . S
C791 C790 1.395 . S
C791 C792 1.335 . S
C792 C791 1.335 . S
C792 C793 1.398 . S
C792 H814 0.930 . S
C793 C788 1.382 . S
C793 C792 1.398 . S
C793 H815 0.929 . S
C794 O804 1.271 . S
C794 O805 1.251 . S
C795 O806 1.252 . S
C795 O807 1.272 . S
O796 Sm776 2.543 . S
O796 C778 1.261 . S
O797 Sm776 2.450 . S
O797 C778 1.242 . S
O798 Sm776 2.681 . S
O798 Sm777 2.386 . S
O798 C785 1.271 . S
O799 Sm776 2.464 . S
O799 C785 1.251 . S
O800 Sm776 2.396 . S
O800 C786 1.252 . S
O801 Sm777 2.408 . S
O801 C786 1.272 . S
O802 Sm777 2.543 . S
O802 C787 1.261 . S
O803 Sm777 2.450 . S
O803 C787 1.242 . S
O804 Sm776 2.386 . S
O804 Sm777 2.681 . S
O804 C794 1.271 . S
O805 Sm777 2.464 . S
O805 C794 1.251 . S
O806 Sm777 2.396 . S
O806 C795 1.252 . S
O807 Sm776 2.408 . S
O807 C795 1.272 . S
H808 C780 0.930 . S
H809 C781 0.929 . S
H810 C783 0.930 . S
H811 C784 0.929 . S
H812 C789 0.930 . S
H813 C790 0.929 . S
H814 C792 0.930 . S
H815 C793 0.929 . S
Sm816 C818 2.846 . S
Sm816 O836 2.543 . S
Sm816 O837 2.450 . S
Sm816 O838 2.681 . S
Sm816 O839 2.464 . S
Sm816 O840 2.396 . S
Sm816 O844 2.386 . S
Sm816 O847 2.408 . S
Sm817 C827 2.846 . S
Sm817 O838 2.386 . S
Sm817 O841 2.408 . S
Sm817 O842 2.543 . S
Sm817 O843 2.450 . S
Sm817 O844 2.681 . S
Sm817 O845 2.464 . S
Sm817 O846 2.396 . S
C818 Sm816 2.846 . S
C818 C819 1.506 . S
C818 O836 1.261 . S
C818 O837 1.242 . S
C819 C818 1.506 . S
C819 C820 1.358 . S
C819 C824 1.382 . S
C820 C819 1.358 . S
C820 C821 1.385 . S
C820 H848 0.930 . S
C821 C820 1.385 . S
C821 C822 1.395 . S
C821 H849 0.929 . S
C822 C821 1.395 . S
C822 C823 1.335 . S
C823 C822 1.335 . S
C823 C824 1.398 . S
C823 H850 0.930 . S
C824 C819 1.382 . S
C824 C823 1.398 . S
C824 H851 0.929 . S
C825 O838 1.271 . S
C825 O839 1.251 . S
C826 O840 1.252 . S
C826 O841 1.272 . S
C827 Sm817 2.846 . S
C827 C828 1.506 . S
C827 O842 1.261 . S
C827 O843 1.242 . S
C828 C827 1.506 . S
C828 C829 1.358 . S
C828 C833 1.382 . S
C829 C828 1.358 . S
C829 C830 1.385 . S
C829 H852 0.930 . S
C830 C829 1.385 . S
C830 C831 1.395 . S
C830 H853 0.929 . S
C831 C830 1.395 . S
C831 C832 1.335 . S
C832 C831 1.335 . S
C832 C833 1.398 . S
C832 H854 0.930 . S
C833 C828 1.382 . S
C833 C832 1.398 . S
C833 H855 0.929 . S
C834 O844 1.271 . S
C834 O845 1.251 . S
C835 O846 1.252 . S
C835 O847 1.272 . S
O836 Sm816 2.543 . S
O836 C818 1.261 . S
O837 Sm816 2.450 . S
O837 C818 1.242 . S
O838 Sm816 2.681 . S
O838 Sm817 2.386 . S
O838 C825 1.271 . S
O839 Sm816 2.464 . S
O839 C825 1.251 . S
O840 Sm816 2.396 . S
O840 C826 1.252 . S
O841 Sm817 2.408 . S
O841 C826 1.272 . S
O842 Sm817 2.543 . S
O842 C827 1.261 . S
O843 Sm817 2.450 . S
O843 C827 1.242 . S
O844 Sm816 2.386 . S
O844 Sm817 2.681 . S
O844 C834 1.271 . S
O845 Sm817 2.464 . S
O845 C834 1.251 . S
O846 Sm817 2.396 . S
O846 C835 1.252 . S
O847 Sm816 2.408 . S
O847 C835 1.272 . S
H848 C820 0.930 . S
H849 C821 0.929 . S
H850 C823 0.930 . S
H851 C824 0.929 . S
H852 C829 0.930 . S
H853 C830 0.929 . S
H854 C832 0.930 . S
H855 C833 0.929 . S
Sm856 C858 2.846 . S
Sm856 O876 2.543 . S
Sm856 O877 2.450 . S
Sm856 O878 2.681 . S
Sm856 O879 2.464 . S
Sm856 O880 2.396 . S
Sm856 O884 2.386 . S
Sm856 O887 2.408 . S
Sm857 C867 2.846 . S
Sm857 O878 2.386 . S
Sm857 O881 2.408 . S
Sm857 O882 2.543 . S
Sm857 O883 2.450 . S
Sm857 O884 2.681 . S
Sm857 O885 2.464 . S
Sm857 O886 2.396 . S
C858 Sm856 2.846 . S
C858 C859 1.506 . S
C858 O876 1.261 . S
C858 O877 1.242 . S
C859 C858 1.506 . S
C859 C860 1.358 . S
C859 C864 1.382 . S
C860 C859 1.358 . S
C860 C861 1.385 . S
C860 H888 0.930 . S
C861 C860 1.385 . S
C861 C862 1.395 . S
C861 H889 0.929 . S
C862 C861 1.395 . S
C862 C863 1.335 . S
C863 C862 1.335 . S
C863 C864 1.398 . S
C863 H890 0.930 . S
C864 C859 1.382 . S
C864 C863 1.398 . S
C864 H891 0.929 . S
C865 O878 1.271 . S
C865 O879 1.251 . S
C866 O880 1.252 . S
C866 O881 1.272 . S
C867 Sm857 2.846 . S
C867 C868 1.506 . S
C867 O882 1.261 . S
C867 O883 1.242 . S
C868 C867 1.506 . S
C868 C869 1.358 . S
C868 C873 1.382 . S
C869 C868 1.358 . S
C869 C870 1.385 . S
C869 H892 0.930 . S
C870 C869 1.385 . S
C870 C871 1.395 . S
C870 H893 0.929 . S
C871 C870 1.395 . S
C871 C872 1.335 . S
C872 C871 1.335 . S
C872 C873 1.398 . S
C872 H894 0.930 . S
C873 C868 1.382 . S
C873 C872 1.398 . S
C873 H895 0.929 . S
C874 O884 1.271 . S
C874 O885 1.251 . S
C875 O886 1.252 . S
C875 O887 1.272 . S
O876 Sm856 2.543 . S
O876 C858 1.261 . S
O877 Sm856 2.450 . S
O877 C858 1.242 . S
O878 Sm856 2.681 . S
O878 Sm857 2.386 . S
O878 C865 1.271 . S
O879 Sm856 2.464 . S
O879 C865 1.251 . S
O880 Sm856 2.396 . S
O880 C866 1.252 . S
O881 Sm857 2.408 . S
O881 C866 1.272 . S
O882 Sm857 2.543 . S
O882 C867 1.261 . S
O883 Sm857 2.450 . S
O883 C867 1.242 . S
O884 Sm856 2.386 . S
O884 Sm857 2.681 . S
O884 C874 1.271 . S
O885 Sm857 2.464 . S
O885 C874 1.251 . S
O886 Sm857 2.396 . S
O886 C875 1.252 . S
O887 Sm856 2.408 . S
O887 C875 1.272 . S
H888 C860 0.930 . S
H889 C861 0.929 . S
H890 C863 0.930 . S
H891 C864 0.929 . S
H892 C869 0.930 . S
H893 C870 0.929 . S
H894 C872 0.930 . S
H895 C873 0.929 . S
Sm896 C898 2.846 . S
Sm896 O916 2.543 . S
Sm896 O917 2.450 . S
Sm896 O918 2.681 . S
Sm896 O919 2.464 . S
Sm896 O920 2.396 . S
Sm896 O924 2.386 . S
Sm896 O927 2.408 . S
Sm897 C907 2.846 . S
Sm897 O918 2.386 . S
Sm897 O921 2.408 . S
Sm897 O922 2.543 . S
Sm897 O923 2.450 . S
Sm897 O924 2.681 . S
Sm897 O925 2.464 . S
Sm897 O926 2.396 . S
C898 Sm896 2.846 . S
C898 C899 1.506 . S
C898 O916 1.261 . S
C898 O917 1.242 . S
C899 C898 1.506 . S
C899 C900 1.358 . S
C899 C904 1.382 . S
C900 C899 1.358 . S
C900 C901 1.385 . S
C900 H928 0.930 . S
C901 C900 1.385 . S
C901 C902 1.395 . S
C901 H929 0.929 . S
C902 C901 1.395 . S
C902 C903 1.335 . S
C903 C902 1.335 . S
C903 C904 1.398 . S
C903 H930 0.930 . S
C904 C899 1.382 . S
C904 C903 1.398 . S
C904 H931 0.929 . S
C905 O918 1.271 . S
C905 O919 1.251 . S
C906 O920 1.252 . S
C906 O921 1.272 . S
C907 Sm897 2.846 . S
C907 C908 1.506 . S
C907 O922 1.261 . S
C907 O923 1.242 . S
C908 C907 1.506 . S
C908 C909 1.358 . S
C908 C913 1.382 . S
C909 C908 1.358 . S
C909 C910 1.385 . S
C909 H932 0.930 . S
C910 C909 1.385 . S
C910 C911 1.395 . S
C910 H933 0.929 . S
C911 C910 1.395 . S
C911 C912 1.335 . S
C912 C911 1.335 . S
C912 C913 1.398 . S
C912 H934 0.930 . S
C913 C908 1.382 . S
C913 C912 1.398 . S
C913 H935 0.929 . S
C914 O924 1.271 . S
C914 O925 1.251 . S
C915 O926 1.252 . S
C915 O927 1.272 . S
O916 Sm896 2.543 . S
O916 C898 1.261 . S
O917 Sm896 2.450 . S
O917 C898 1.242 . S
O918 Sm896 2.681 . S
O918 Sm897 2.386 . S
O918 C905 1.271 . S
O919 Sm896 2.464 . S
O919 C905 1.251 . S
O920 Sm896 2.396 . S
O920 C906 1.252 . S
O921 Sm897 2.408 . S
O921 C906 1.272 . S
O922 Sm897 2.543 . S
O922 C907 1.261 . S
O923 Sm897 2.450 . S
O923 C907 1.242 . S
O924 Sm896 2.386 . S
O924 Sm897 2.681 . S
O924 C914 1.271 . S
O925 Sm897 2.464 . S
O925 C914 1.251 . S
O926 Sm897 2.396 . S
O926 C915 1.252 . S
O927 Sm896 2.408 . S
O927 C915 1.272 . S
H928 C900 0.930 . S
H929 C901 0.929 . S
H930 C903 0.930 . S
H931 C904 0.929 . S
H932 C909 0.930 . S
H933 C910 0.929 . S
H934 C912 0.930 . S
H935 C913 0.929 . S
Sm936 C938 2.846 1_554 S
Sm936 O956 2.543 . S
Sm936 O957 2.450 1_554 S
Sm936 O958 2.681 1_554 S
Sm936 O959 2.464 1_554 S
Sm936 O960 2.396 1_554 S
Sm936 O964 2.386 . S
Sm936 O967 2.408 . S
Sm937 C947 2.846 1_455 S
Sm937 O958 2.386 1_554 S
Sm937 O961 2.408 . S
Sm937 O962 2.543 1_455 S
Sm937 O963 2.450 1_455 S
Sm937 O964 2.681 . S
Sm937 O965 2.464 . S
Sm937 O966 2.396 . S
C938 Sm936 2.846 1_556 S
C938 C939 1.506 . S
C938 O956 1.261 1_556 S
C938 O957 1.242 . S
C939 C938 1.506 . S
C939 C940 1.358 1_556 S
C939 C944 1.382 . S
C940 C939 1.358 1_554 S
C940 C941 1.385 . S
C940 H968 0.930 . S
C941 C940 1.385 . S
C941 C942 1.395 1_554 S
C941 H969 0.929 . S
C942 C941 1.395 1_556 S
C942 C943 1.335 . S
C943 C942 1.335 . S
C943 C944 1.398 . S
C943 H970 0.930 . S
C944 C939 1.382 . S
C944 C943 1.398 . S
C944 H971 0.929 . S
C945 O958 1.271 . S
C945 O959 1.251 . S
C946 O960 1.252 1_554 S
C946 O961 1.272 . S
C947 Sm937 2.846 1_655 S
C947 C948 1.506 . S
C947 O962 1.261 . S
C947 O963 1.242 . S
C948 C947 1.506 . S
C948 C949 1.358 . S
C948 C953 1.382 . S
C949 C948 1.358 . S
C949 C950 1.385 . S
C949 H972 0.930 . S
C950 C949 1.385 . S
C950 C951 1.395 . S
C950 H973 0.929 . S
C951 C950 1.395 . S
C951 C952 1.335 . S
C952 C951 1.335 . S
C952 C953 1.398 . S
C952 H974 0.930 . S
C953 C948 1.382 . S
C953 C952 1.398 . S
C953 H975 0.929 . S
C954 O964 1.271 . S
C954 O965 1.251 . S
C955 O966 1.252 . S
C955 O967 1.272 . S
O956 Sm936 2.543 . S
O956 C938 1.261 1_554 S
O957 Sm936 2.450 1_556 S
O957 C938 1.242 . S
O958 Sm936 2.681 1_556 S
O958 Sm937 2.386 1_556 S
O958 C945 1.271 . S
O959 Sm936 2.464 1_556 S
O959 C945 1.251 . S
O960 Sm936 2.396 1_556 S
O960 C946 1.252 1_556 S
O961 Sm937 2.408 . S
O961 C946 1.272 . S
O962 Sm937 2.543 1_655 S
O962 C947 1.261 . S
O963 Sm937 2.450 1_655 S
O963 C947 1.242 . S
O964 Sm936 2.386 . S
O964 Sm937 2.681 . S
O964 C954 1.271 . S
O965 Sm937 2.464 . S
O965 C954 1.251 . S
O966 Sm937 2.396 . S
O966 C955 1.252 . S
O967 Sm936 2.408 . S
O967 C955 1.272 . S
H968 C940 0.930 . S
H969 C941 0.929 . S
H970 C943 0.930 . S
H971 C944 0.929 . S
H972 C949 0.930 . S
H973 C950 0.929 . S
H974 C952 0.930 . S
H975 C953 0.929 . S
H976 C994 0.951 . S
H977 C996 0.951 . S
H978 C998 0.957 . S
H979 C999 0.950 . S
H980 C1001 0.950 1_655 S
H981 C1004 0.950 . S
H982 C1005 0.950 . S
H983 C1007 0.950 . S
H984 C1008 0.950 . S
H985 C1009 0.951 . S
H986 C1011 0.951 . S
H987 C1013 0.950 . S
H988 C1014 0.950 . S
H989 C1016 0.950 . S
H990 C1019 0.950 . S
H991 C1020 0.930 1_455 S
H992 C1022 0.950 . S
H993 C1023 0.950 . S
C994 H976 0.951 . S
C994 C995 1.366 . S
C994 C996 1.388 . S
C995 C994 1.366 . S
C995 C999 1.385 1_455 S
C996 H977 0.951 . S
C996 C994 1.388 . S
C996 C997 1.366 . S
C997 C996 1.366 . S
C997 C998 1.403 1_455 S
C997 C1000 1.499 . S
C998 H978 0.957 . S
C998 C997 1.403 1_655 S
C998 C999 1.378 . S
C999 H979 0.950 . S
C999 C995 1.385 1_655 S
C999 C998 1.378 . S
C1000 C997 1.499 . S
C1000 C1001 1.373 . S
C1000 C1002 1.389 . S
C1001 H980 0.950 1_455 S
C1001 C1000 1.373 . S
C1001 C1017 1.377 . S
C1002 C1000 1.389 . S
C1002 C1003 1.524 . S
C1002 C1016 1.377 . S
C1003 C1002 1.524 . S
C1003 C1004 1.397 . S
C1003 C1008 1.363 . S
C1004 H981 0.950 . S
C1004 C1003 1.397 . S
C1004 C1005 1.334 . S
C1005 H982 0.950 . S
C1005 C1004 1.334 . S
C1005 C1006 1.287 . S
C1006 C1005 1.287 . S
C1006 C1007 1.524 . S
C1006 H1025 0.913 . S
C1007 H983 0.950 . S
C1007 C1006 1.524 . S
C1007 C1008 1.415 . S
C1008 H984 0.950 . S
C1008 C1003 1.363 . S
C1008 C1007 1.415 . S
C1009 H985 0.951 . S
C1009 C1010 1.350 1_556 S
C1009 C1011 1.388 . S
C1010 C1009 1.350 1_554 S
C1010 C1014 1.381 . S
C1011 H986 0.951 . S
C1011 C1009 1.388 . S
C1011 C1012 1.366 . S
C1012 C1011 1.366 . S
C1012 C1013 1.414 . S
C1012 C1015 1.499 . S
C1013 H987 0.950 . S
C1013 C1012 1.414 . S
C1013 C1014 1.374 1_556 S
C1014 H988 0.950 . S
C1014 C1010 1.381 . S
C1014 C1013 1.374 1_554 S
C1015 C1012 1.499 . S
C1015 C1016 1.373 . S
C1015 C1017 1.389 . S
C1016 H989 0.950 . S
C1016 C1002 1.377 . S
C1016 C1015 1.373 . S
C1017 C1001 1.377 . S
C1017 C1015 1.389 . S
C1017 C1018 1.524 1_455 S
C1018 C1017 1.524 1_655 S
C1018 C1019 1.397 1_656 S
C1018 C1023 1.363 . S
C1019 H990 0.950 . S
C1019 C1018 1.397 1_454 S
C1019 C1020 1.334 1_455 S
C1020 H991 0.930 1_655 S
C1020 C1019 1.334 1_655 S
C1020 C1021 1.287 . S
C1021 C1020 1.287 . S
C1021 C1022 1.524 . S
C1021 H1024 0.999 . S
C1022 H992 0.950 . S
C1022 C1021 1.524 . S
C1022 C1023 1.415 1_554 S
C1023 H993 0.950 . S
C1023 C1018 1.363 . S
C1023 C1022 1.415 1_556 S
H1024 C1021 0.999 . S
H1025 C1006 0.913 . S
H1026 C1044 0.951 . S
H1027 C1046 0.951 . S
H1028 C1048 0.950 . S
H1029 C1049 0.950 . S
H1030 C1051 0.950 . S
H1031 C1054 0.950 . S
H1032 C1055 0.950 . S
H1033 C1057 0.950 . S
H1034 C1058 0.950 . S
H1035 C1059 0.951 . S
H1036 C1061 0.951 . S
H1037 C1063 0.950 . S
H1038 C1064 0.950 . S
H1039 C1066 0.950 . S
H1040 C1069 0.950 . S
H1041 C1070 0.950 . S
H1042 C1072 0.950 . S
H1043 C1073 0.950 . S
C1044 H1026 0.951 . S
C1044 C1045 1.366 . S
C1044 C1046 1.388 . S
C1045 C1044 1.366 . S
C1045 C1049 1.385 . S
C1046 H1027 0.951 . S
C1046 C1044 1.388 . S
C1046 C1047 1.366 . S
C1047 C1046 1.366 . S
C1047 C1048 1.414 . S
C1047 C1050 1.499 . S
C1048 H1028 0.950 . S
C1048 C1047 1.414 . S
C1048 C1049 1.374 . S
C1049 H1029 0.950 . S
C1049 C1045 1.385 . S
C1049 C1048 1.374 . S
C1050 C1047 1.499 . S
C1050 C1051 1.373 . S
C1050 C1052 1.389 . S
C1051 H1030 0.950 . S
C1051 C1050 1.373 . S
C1051 C1067 1.377 . S
C1052 C1050 1.389 . S
C1052 C1053 1.524 . S
C1052 C1066 1.377 . S
C1053 C1052 1.524 . S
C1053 C1054 1.397 . S
C1053 C1058 1.363 . S
C1054 H1031 0.950 . S
C1054 C1053 1.397 . S
C1054 C1055 1.334 . S
C1055 H1032 0.950 . S
C1055 C1054 1.334 . S
C1055 C1056 1.287 . S
C1056 C1055 1.287 . S
C1056 C1057 1.524 . S
C1056 H1075 0.913 . S
C1057 H1033 0.950 . S
C1057 C1056 1.524 . S
C1057 C1058 1.415 . S
C1058 H1034 0.950 . S
C1058 C1053 1.363 . S
C1058 C1057 1.415 . S
C1059 H1035 0.951 . S
C1059 C1060 1.366 . S
C1059 C1061 1.388 . S
C1060 C1059 1.366 . S
C1060 C1064 1.385 . S
C1061 H1036 0.951 . S
C1061 C1059 1.388 . S
C1061 C1062 1.366 . S
C1062 C1061 1.366 . S
C1062 C1063 1.414 . S
C1062 C1065 1.499 . S
C1063 H1037 0.950 . S
C1063 C1062 1.414 . S
C1063 C1064 1.374 . S
C1064 H1038 0.950 . S
C1064 C1060 1.385 . S
C1064 C1063 1.374 . S
C1065 C1062 1.499 . S
C1065 C1066 1.373 . S
C1065 C1067 1.389 . S
C1066 H1039 0.950 . S
C1066 C1052 1.377 . S
C1066 C1065 1.373 . S
C1067 C1051 1.377 . S
C1067 C1065 1.389 . S
C1067 C1068 1.524 . S
C1068 C1067 1.524 . S
C1068 C1069 1.397 . S
C1068 C1073 1.363 . S
C1069 H1040 0.950 . S
C1069 C1068 1.397 . S
C1069 C1070 1.334 . S
C1070 H1041 0.950 . S
C1070 C1069 1.334 . S
C1070 C1071 1.287 . S
C1071 C1070 1.287 . S
C1071 C1072 1.524 . S
C1071 H1074 0.999 . S
C1072 H1042 0.950 . S
C1072 C1071 1.524 . S
C1072 C1073 1.415 . S
C1073 H1043 0.950 . S
C1073 C1068 1.363 . S
C1073 C1072 1.415 . S
H1074 C1071 0.999 . S
H1075 C1056 0.913 . S
H1076 C1094 0.951 . S
H1077 C1096 0.951 . S
H1078 C1098 0.950 . S
H1079 C1099 0.950 . S
H1080 C1101 0.950 . S
H1081 C1104 0.950 . S
H1082 C1105 0.950 . S
H1083 C1107 0.950 . S
H1084 C1108 0.950 . S
H1085 C1109 0.951 . S
H1086 C1111 0.951 . S
H1087 C1113 0.950 . S
H1088 C1114 0.950 . S
H1089 C1116 0.950 . S
H1090 C1119 0.950 . S
H1091 C1120 0.950 . S
H1092 C1122 0.950 . S
H1093 C1123 0.950 . S
C1094 H1076 0.951 . S
C1094 C1095 1.366 . S
C1094 C1096 1.388 . S
C1095 C1094 1.366 . S
C1095 C1099 1.385 . S
C1096 H1077 0.951 . S
C1096 C1094 1.388 . S
C1096 C1097 1.366 . S
C1097 C1096 1.366 . S
C1097 C1098 1.414 . S
C1097 C1100 1.499 . S
C1098 H1078 0.950 . S
C1098 C1097 1.414 . S
C1098 C1099 1.374 . S
C1099 H1079 0.950 . S
C1099 C1095 1.385 . S
C1099 C1098 1.374 . S
C1100 C1097 1.499 . S
C1100 C1101 1.373 . S
C1100 C1102 1.389 . S
C1101 H1080 0.950 . S
C1101 C1100 1.373 . S
C1101 C1117 1.377 . S
C1102 C1100 1.389 . S
C1102 C1103 1.524 . S
C1102 C1116 1.377 . S
C1103 C1102 1.524 . S
C1103 C1104 1.397 . S
C1103 C1108 1.363 . S
C1104 H1081 0.950 . S
C1104 C1103 1.397 . S
C1104 C1105 1.334 . S
C1105 H1082 0.950 . S
C1105 C1104 1.334 . S
C1105 C1106 1.287 . S
C1106 C1105 1.287 . S
C1106 C1107 1.524 . S
C1106 H1125 0.913 . S
C1107 H1083 0.950 . S
C1107 C1106 1.524 . S
C1107 C1108 1.415 . S
C1108 H1084 0.950 . S
C1108 C1103 1.363 . S
C1108 C1107 1.415 . S
C1109 H1085 0.951 . S
C1109 C1110 1.366 . S
C1109 C1111 1.388 . S
C1110 C1109 1.366 . S
C1110 C1114 1.385 . S
C1111 H1086 0.951 . S
C1111 C1109 1.388 . S
C1111 C1112 1.366 . S
C1112 C1111 1.366 . S
C1112 C1113 1.414 . S
C1112 C1115 1.499 . S
C1113 H1087 0.950 . S
C1113 C1112 1.414 . S
C1113 C1114 1.374 . S
C1114 H1088 0.950 . S
C1114 C1110 1.385 . S
C1114 C1113 1.374 . S
C1115 C1112 1.499 . S
C1115 C1116 1.373 . S
C1115 C1117 1.389 . S
C1116 H1089 0.950 . S
C1116 C1102 1.377 . S
C1116 C1115 1.373 . S
C1117 C1101 1.377 . S
C1117 C1115 1.389 . S
C1117 C1118 1.524 . S
C1118 C1117 1.524 . S
C1118 C1119 1.397 . S
C1118 C1123 1.363 . S
C1119 H1090 0.950 . S
C1119 C1118 1.397 . S
C1119 C1120 1.334 . S
C1120 H1091 0.950 . S
C1120 C1119 1.334 . S
C1120 C1121 1.287 . S
C1121 C1120 1.287 . S
C1121 C1122 1.524 . S
C1121 H1124 0.999 . S
C1122 H1092 0.950 . S
C1122 C1121 1.524 . S
C1122 C1123 1.415 . S
C1123 H1093 0.950 . S
C1123 C1118 1.363 . S
C1123 C1122 1.415 . S
H1124 C1121 0.999 . S
H1125 C1106 0.913 . S
H1126 C1144 0.951 . S
H1127 C1146 0.951 . S
H1128 C1148 0.950 . S
H1129 C1149 0.950 . S
H1130 C1151 0.950 . S
H1131 C1154 0.950 . S
H1132 C1155 0.950 . S
H1133 C1157 0.950 . S
H1134 C1158 0.950 . S
H1135 C1159 0.951 . S
H1136 C1161 0.951 . S
H1137 C1163 0.950 . S
H1138 C1164 0.950 . S
H1139 C1166 0.950 . S
H1140 C1169 0.950 . S
H1141 C1170 0.950 . S
H1142 C1172 0.950 . S
H1143 C1173 0.950 . S
C1144 H1126 0.951 . S
C1144 C1145 1.366 . S
C1144 C1146 1.388 . S
C1145 C1144 1.366 . S
C1145 C1149 1.385 . S
C1146 H1127 0.951 . S
C1146 C1144 1.388 . S
C1146 C1147 1.366 . S
C1147 C1146 1.366 . S
C1147 C1148 1.414 . S
C1147 C1150 1.499 . S
C1148 H1128 0.950 . S
C1148 C1147 1.414 . S
C1148 C1149 1.374 . S
C1149 H1129 0.950 . S
C1149 C1145 1.385 . S
C1149 C1148 1.374 . S
C1150 C1147 1.499 . S
C1150 C1151 1.373 . S
C1150 C1152 1.389 . S
C1151 H1130 0.950 . S
C1151 C1150 1.373 . S
C1151 C1167 1.377 . S
C1152 C1150 1.389 . S
C1152 C1153 1.524 . S
C1152 C1166 1.377 . S
C1153 C1152 1.524 . S
C1153 C1154 1.397 . S
C1153 C1158 1.363 . S
C1154 H1131 0.950 . S
C1154 C1153 1.397 . S
C1154 C1155 1.334 . S
C1155 H1132 0.950 . S
C1155 C1154 1.334 . S
C1155 C1156 1.287 . S
C1156 C1155 1.287 . S
C1156 C1157 1.524 . S
C1156 H1175 0.913 . S
C1157 H1133 0.950 . S
C1157 C1156 1.524 . S
C1157 C1158 1.415 . S
C1158 H1134 0.950 . S
C1158 C1153 1.363 . S
C1158 C1157 1.415 . S
C1159 H1135 0.951 . S
C1159 C1160 1.366 . S
C1159 C1161 1.388 . S
C1160 C1159 1.366 . S
C1160 C1164 1.385 . S
C1161 H1136 0.951 . S
C1161 C1159 1.388 . S
C1161 C1162 1.366 . S
C1162 C1161 1.366 . S
C1162 C1163 1.414 . S
C1162 C1165 1.499 . S
C1163 H1137 0.950 . S
C1163 C1162 1.414 . S
C1163 C1164 1.374 . S
C1164 H1138 0.950 . S
C1164 C1160 1.385 . S
C1164 C1163 1.374 . S
C1165 C1162 1.499 . S
C1165 C1166 1.373 . S
C1165 C1167 1.389 . S
C1166 H1139 0.950 . S
C1166 C1152 1.377 . S
C1166 C1165 1.373 . S
C1167 C1151 1.377 . S
C1167 C1165 1.389 . S
C1167 C1168 1.524 . S
C1168 C1167 1.524 . S
C1168 C1169 1.397 . S
C1168 C1173 1.363 . S
C1169 H1140 0.950 . S
C1169 C1168 1.397 . S
C1169 C1170 1.334 . S
C1170 H1141 0.950 . S
C1170 C1169 1.334 . S
C1170 C1171 1.287 . S
C1171 C1170 1.287 . S
C1171 C1172 1.524 . S
C1171 H1174 0.999 . S
C1172 H1142 0.950 . S
C1172 C1171 1.524 . S
C1172 C1173 1.415 . S
C1173 H1143 0.950 . S
C1173 C1168 1.363 . S
C1173 C1172 1.415 . S
H1174 C1171 0.999 . S
H1175 C1156 0.913 . S
H1176 C1194 0.951 . S
H1177 C1196 0.951 1_655 S
H1178 C1198 0.950 . S
H1179 C1199 0.950 . S
H1180 C1201 0.950 . S
H1181 C1204 0.950 . S
H1182 C1205 0.950 . S
H1183 C1207 0.950 1_655 S
H1184 C1208 0.950 . S
H1185 C1209 0.951 . S
H1186 C1211 0.951 . S
H1187 C1213 0.950 . S
H1188 C1214 0.950 . S
H1189 C1216 0.950 . S
H1190 C1219 0.950 . S
H1191 C1220 0.950 . S
H1192 C1222 0.950 . S
H1193 C1223 0.950 . S
C1194 H1176 0.951 . S
C1194 C1195 1.366 1_655 S
C1194 C1196 1.388 1_655 S
C1195 C1194 1.366 1_455 S
C1195 C1199 1.385 . S
C1196 H1177 0.951 1_455 S
C1196 C1194 1.388 1_455 S
C1196 C1197 1.366 . S
C1197 C1196 1.366 . S
C1197 C1198 1.414 . S
C1197 C1200 1.499 . S
C1198 H1178 0.950 . S
C1198 C1197 1.414 . S
C1198 C1199 1.374 . S
C1199 H1179 0.950 . S
C1199 C1195 1.385 . S
C1199 C1198 1.374 . S
C1200 C1197 1.499 . S
C1200 C1201 1.373 . S
C1200 C1202 1.389 . S
C1201 H1180 0.950 . S
C1201 C1200 1.373 . S
C1201 C1217 1.377 . S
C1202 C1200 1.389 . S
C1202 C1203 1.524 . S
C1202 C1216 1.377 . S
C1203 C1202 1.524 . S
C1203 C1204 1.397 . S
C1203 C1208 1.363 . S
C1204 H1181 0.950 . S
C1204 C1203 1.397 . S
C1204 C1205 1.334 . S
C1205 H1182 0.950 . S
C1205 C1204 1.334 . S
C1205 C1206 1.287 . S
C1206 C1205 1.287 . S
C1206 C1207 1.524 . S
C1206 H1225 0.913 . S
C1207 H1183 0.950 1_455 S
C1207 C1206 1.524 . S
C1207 C1208 1.415 . S
C1208 H1184 0.950 . S
C1208 C1203 1.363 . S
C1208 C1207 1.415 . S
C1209 H1185 0.951 . S
C1209 C1210 1.366 . S
C1209 C1211 1.388 . S
C1210 C1209 1.366 . S
C1210 C1214 1.385 . S
C1211 H1186 0.951 . S
C1211 C1209 1.388 . S
C1211 C1212 1.366 . S
C1212 C1211 1.366 . S
C1212 C1213 1.414 . S
C1212 C1215 1.499 . S
C1213 H1187 0.950 . S
C1213 C1212 1.414 . S
C1213 C1214 1.374 . S
C1214 H1188 0.950 . S
C1214 C1210 1.385 . S
C1214 C1213 1.374 . S
C1215 C1212 1.499 . S
C1215 C1216 1.373 . S
C1215 C1217 1.389 . S
C1216 H1189 0.950 . S
C1216 C1202 1.377 . S
C1216 C1215 1.373 . S
C1217 C1201 1.377 . S
C1217 C1215 1.389 . S
C1217 C1218 1.524 . S
C1218 C1217 1.524 . S
C1218 C1219 1.397 . S
C1218 C1223 1.363 . S
C1219 H1190 0.950 . S
C1219 C1218 1.397 . S
C1219 C1220 1.334 . S
C1220 H1191 0.950 . S
C1220 C1219 1.334 . S
C1220 C1221 1.287 . S
C1221 C1220 1.287 . S
C1221 C1222 1.524 . S
C1221 H1224 0.999 . S
C1222 H1192 0.950 . S
C1222 C1221 1.524 . S
C1222 C1223 1.415 . S
C1223 H1193 0.950 . S
C1223 C1218 1.363 . S
C1223 C1222 1.415 . S
H1224 C1221 0.999 . S
H1225 C1206 0.913 . S
H1226 C1244 0.951 . S
H1227 C1246 0.951 . S
H1228 C1248 0.950 . S
H1229 C1249 0.950 . S
H1230 C1251 0.950 . S
H1231 C1254 0.950 . S
H1232 C1255 0.950 . S
H1233 C1257 0.950 . S
H1234 C1258 0.950 . S
H1235 C1259 0.951 . S
H1236 C1261 0.951 . S
H1237 C1263 0.950 . S
H1238 C1264 0.950 . S
H1239 C1266 0.950 . S
H1240 C1269 0.950 . S
H1241 C1270 0.950 . S
H1242 C1272 0.950 . S
H1243 C1273 0.950 . S
C1244 H1226 0.951 . S
C1244 C1245 1.366 . S
C1244 C1246 1.388 . S
C1245 C1244 1.366 . S
C1245 C1249 1.385 . S
C1246 H1227 0.951 . S
C1246 C1244 1.388 . S
C1246 C1247 1.366 . S
C1247 C1246 1.366 . S
C1247 C1248 1.414 . S
C1247 C1250 1.499 . S
C1248 H1228 0.950 . S
C1248 C1247 1.414 . S
C1248 C1249 1.374 . S
C1249 H1229 0.950 . S
C1249 C1245 1.385 . S
C1249 C1248 1.374 . S
C1250 C1247 1.499 . S
C1250 C1251 1.373 . S
C1250 C1252 1.389 . S
C1251 H1230 0.950 . S
C1251 C1250 1.373 . S
C1251 C1267 1.377 . S
C1252 C1250 1.389 . S
C1252 C1253 1.524 . S
C1252 C1266 1.377 . S
C1253 C1252 1.524 . S
C1253 C1254 1.397 . S
C1253 C1258 1.363 . S
C1254 H1231 0.950 . S
C1254 C1253 1.397 . S
C1254 C1255 1.334 . S
C1255 H1232 0.950 . S
C1255 C1254 1.334 . S
C1255 C1256 1.287 . S
C1256 C1255 1.287 . S
C1256 C1257 1.524 . S
C1256 H1275 0.913 . S
C1257 H1233 0.950 . S
C1257 C1256 1.524 . S
C1257 C1258 1.415 . S
C1258 H1234 0.950 . S
C1258 C1253 1.363 . S
C1258 C1257 1.415 . S
C1259 H1235 0.951 . S
C1259 C1260 1.366 . S
C1259 C1261 1.388 . S
C1260 C1259 1.366 . S
C1260 C1264 1.385 . S
C1261 H1236 0.951 . S
C1261 C1259 1.388 . S
C1261 C1262 1.366 . S
C1262 C1261 1.366 . S
C1262 C1263 1.414 . S
C1262 C1265 1.499 . S
C1263 H1237 0.950 . S
C1263 C1262 1.414 . S
C1263 C1264 1.374 . S
C1264 H1238 0.950 . S
C1264 C1260 1.385 . S
C1264 C1263 1.374 . S
C1265 C1262 1.499 . S
C1265 C1266 1.373 . S
C1265 C1267 1.389 . S
C1266 H1239 0.950 . S
C1266 C1252 1.377 . S
C1266 C1265 1.373 . S
C1267 C1251 1.377 . S
C1267 C1265 1.389 . S
C1267 C1268 1.524 . S
C1268 C1267 1.524 . S
C1268 C1269 1.397 . S
C1268 C1273 1.363 . S
C1269 H1240 0.950 . S
C1269 C1268 1.397 . S
C1269 C1270 1.334 . S
C1270 H1241 0.950 . S
C1270 C1269 1.334 . S
C1270 C1271 1.287 . S
C1271 C1270 1.287 . S
C1271 C1272 1.524 . S
C1271 H1274 0.999 . S
C1272 H1242 0.950 . S
C1272 C1271 1.524 . S
C1272 C1273 1.415 . S
C1273 H1243 0.950 . S
C1273 C1268 1.363 . S
C1273 C1272 1.415 . S
H1274 C1271 0.999 . S
H1275 C1256 0.913 . S
H1276 C1294 0.951 . S
H1277 C1296 0.951 . S
H1278 C1298 0.950 . S
H1279 C1299 0.950 . S
H1280 C1301 0.950 . S
H1281 C1304 0.950 . S
H1282 C1305 0.950 . S
H1283 C1307 0.950 . S
H1284 C1308 0.950 . S
H1285 C1309 0.951 . S
H1286 C1311 0.951 . S
H1287 C1313 0.950 . S
H1288 C1314 0.950 . S
H1289 C1316 0.950 . S
H1290 C1319 0.950 . S
H1291 C1320 0.950 1_556 S
H1292 C1322 0.950 . S
H1293 C1323 0.950 . S
C1294 H1276 0.951 . S
C1294 C1295 1.366 . S
C1294 C1296 1.388 . S
C1295 C1294 1.366 . S
C1295 C1299 1.385 . S
C1296 H1277 0.951 . S
C1296 C1294 1.388 . S
C1296 C1297 1.366 . S
C1297 C1296 1.366 . S
C1297 C1298 1.414 . S
C1297 C1300 1.499 . S
C1298 H1278 0.950 . S
C1298 C1297 1.414 . S
C1298 C1299 1.374 . S
C1299 H1279 0.950 . S
C1299 C1295 1.385 . S
C1299 C1298 1.374 . S
C1300 C1297 1.499 . S
C1300 C1301 1.373 . S
C1300 C1302 1.389 . S
C1301 H1280 0.950 . S
C1301 C1300 1.373 . S
C1301 C1317 1.377 . S
C1302 C1300 1.389 . S
C1302 C1303 1.524 . S
C1302 C1316 1.377 . S
C1303 C1302 1.524 . S
C1303 C1304 1.397 . S
C1303 C1308 1.363 . S
C1304 H1281 0.950 . S
C1304 C1303 1.397 . S
C1304 C1305 1.334 . S
C1305 H1282 0.950 . S
C1305 C1304 1.334 . S
C1305 C1306 1.287 . S
C1306 C1305 1.287 . S
C1306 C1307 1.524 . S
C1306 H1325 0.913 . S
C1307 H1283 0.950 . S
C1307 C1306 1.524 . S
C1307 C1308 1.415 . S
C1308 H1284 0.950 . S
C1308 C1303 1.363 . S
C1308 C1307 1.415 . S
C1309 H1285 0.951 . S
C1309 C1310 1.366 . S
C1309 C1311 1.388 . S
C1310 C1309 1.366 . S
C1310 C1314 1.385 . S
C1311 H1286 0.951 . S
C1311 C1309 1.388 . S
C1311 C1312 1.366 . S
C1312 C1311 1.366 . S
C1312 C1313 1.414 . S
C1312 C1315 1.499 . S
C1313 H1287 0.950 . S
C1313 C1312 1.414 . S
C1313 C1314 1.374 . S
C1314 H1288 0.950 . S
C1314 C1310 1.385 . S
C1314 C1313 1.374 . S
C1315 C1312 1.499 . S
C1315 C1316 1.373 . S
C1315 C1317 1.389 . S
C1316 H1289 0.950 . S
C1316 C1302 1.377 . S
C1316 C1315 1.373 . S
C1317 C1301 1.377 . S
C1317 C1315 1.389 . S
C1317 C1318 1.524 . S
C1318 C1317 1.524 . S
C1318 C1319 1.397 . S
C1318 C1323 1.363 . S
C1319 H1290 0.950 . S
C1319 C1318 1.397 . S
C1319 C1320 1.334 . S
C1320 H1291 0.950 1_554 S
C1320 C1319 1.334 . S
C1320 C1321 1.287 1_554 S
C1321 C1320 1.287 1_556 S
C1321 C1322 1.524 1_556 S
C1321 H1324 0.999 . S
C1322 H1292 0.950 . S
C1322 C1321 1.524 1_554 S
C1322 C1323 1.415 . S
C1323 H1293 0.950 . S
C1323 C1318 1.363 . S
C1323 C1322 1.415 . S
H1324 C1321 0.999 . S
H1325 C1306 0.913 . S
H1326 C1344 0.951 . S
H1327 C1346 0.951 . S
H1328 C1348 0.950 . S
H1329 C1349 0.950 . S
H1330 C1351 0.950 . S
H1331 C1354 0.950 . S
H1332 C1355 0.950 . S
H1333 C1357 0.950 . S
H1334 C1358 0.950 . S
H1335 C1359 0.951 . S
H1336 C1361 0.951 . S
H1337 C1363 0.950 . S
H1338 C1364 0.950 . S
H1339 C1366 0.950 . S
H1340 C1369 0.950 . S
H1341 C1370 0.950 . S
H1342 C1372 0.950 . S
H1343 C1373 0.950 . S
C1344 H1326 0.951 . S
C1344 C1345 1.366 . S
C1344 C1346 1.388 . S
C1345 C1344 1.366 . S
C1345 C1349 1.385 . S
C1346 H1327 0.951 . S
C1346 C1344 1.388 . S
C1346 C1347 1.366 . S
C1347 C1346 1.366 . S
C1347 C1348 1.414 . S
C1347 C1350 1.499 . S
C1348 H1328 0.950 . S
C1348 C1347 1.414 . S
C1348 C1349 1.374 . S
C1349 H1329 0.950 . S
C1349 C1345 1.385 . S
C1349 C1348 1.374 . S
C1350 C1347 1.499 . S
C1350 C1351 1.373 . S
C1350 C1352 1.389 . S
C1351 H1330 0.950 . S
C1351 C1350 1.373 . S
C1351 C1367 1.377 . S
C1352 C1350 1.389 . S
C1352 C1353 1.524 . S
C1352 C1366 1.377 . S
C1353 C1352 1.524 . S
C1353 C1354 1.397 . S
C1353 C1358 1.363 . S
C1354 H1331 0.950 . S
C1354 C1353 1.397 . S
C1354 C1355 1.334 . S
C1355 H1332 0.950 . S
C1355 C1354 1.334 . S
C1355 C1356 1.287 . S
C1356 C1355 1.287 . S
C1356 C1357 1.524 . S
C1356 H1375 0.913 . S
C1357 H1333 0.950 . S
C1357 C1356 1.524 . S
C1357 C1358 1.415 . S
C1358 H1334 0.950 . S
C1358 C1353 1.363 . S
C1358 C1357 1.415 . S
C1359 H1335 0.951 . S
C1359 C1360 1.366 . S
C1359 C1361 1.388 . S
C1360 C1359 1.366 . S
C1360 C1364 1.385 . S
C1361 H1336 0.951 . S
C1361 C1359 1.388 . S
C1361 C1362 1.366 . S
C1362 C1361 1.366 . S
C1362 C1363 1.414 . S
C1362 C1365 1.499 . S
C1363 H1337 0.950 . S
C1363 C1362 1.414 . S
C1363 C1364 1.374 . S
C1364 H1338 0.950 . S
C1364 C1360 1.385 . S
C1364 C1363 1.374 . S
C1365 C1362 1.499 . S
C1365 C1366 1.373 . S
C1365 C1367 1.389 . S
C1366 H1339 0.950 . S
C1366 C1352 1.377 . S
C1366 C1365 1.373 . S
C1367 C1351 1.377 . S
C1367 C1365 1.389 . S
C1367 C1368 1.524 . S
C1368 C1367 1.524 . S
C1368 C1369 1.397 . S
C1368 C1373 1.363 . S
C1369 H1340 0.950 . S
C1369 C1368 1.397 . S
C1369 C1370 1.334 . S
C1370 H1341 0.950 . S
C1370 C1369 1.334 . S
C1370 C1371 1.287 . S
C1371 C1370 1.287 . S
C1371 C1372 1.524 . S
C1371 H1374 0.999 . S
C1372 H1342 0.950 . S
C1372 C1371 1.524 . S
C1372 C1373 1.415 . S
C1373 H1343 0.950 . S
C1373 C1368 1.363 . S
C1373 C1372 1.415 . S
H1374 C1371 0.999 . S
H1375 C1356 0.913 . S
H1376 C1394 0.951 . S
H1377 C1396 0.993 . S
H1378 C1398 0.950 . S
H1379 C1399 0.950 . S
H1380 C1401 0.950 . S
H1381 C1404 0.950 1_655 S
H1382 C1405 0.950 . S
H1383 C1407 0.950 . S
H1384 C1408 0.950 . S
H1385 C1409 0.951 1_655 S
H1386 C1411 0.951 . S
H1387 C1413 0.950 . S
H1388 C1414 0.950 . S
H1389 C1416 0.950 . S
H1390 C1419 0.950 . S
H1391 C1420 0.950 . S
H1392 C1422 0.950 1_565 S
H1393 C1423 0.950 . S
C1394 H1376 0.951 . S
C1394 C1395 1.366 . S
C1394 C1396 1.388 . S
C1395 C1394 1.366 . S
C1395 C1399 1.385 . S
C1396 H1377 0.993 . S
C1396 C1394 1.388 . S
C1396 C1397 1.366 . S
C1397 C1396 1.366 . S
C1397 C1398 1.414 . S
C1397 C1400 1.499 . S
C1398 H1378 0.950 . S
C1398 C1397 1.414 . S
C1398 C1399 1.374 . S
C1399 H1379 0.950 . S
C1399 C1395 1.385 . S
C1399 C1398 1.374 . S
C1400 C1397 1.499 . S
C1400 C1401 1.373 . S
C1400 C1402 1.389 1_655 S
C1401 H1380 0.950 . S
C1401 C1400 1.373 . S
C1401 C1417 1.377 . S
C1402 C1400 1.389 1_455 S
C1402 C1403 1.524 . S
C1402 C1416 1.377 . S
C1403 C1402 1.524 . S
C1403 C1404 1.397 . S
C1403 C1408 1.363 . S
C1404 H1381 0.950 1_455 S
C1404 C1403 1.397 . S
C1404 C1405 1.334 . S
C1405 H1382 0.950 . S
C1405 C1404 1.334 . S
C1405 C1406 1.287 . S
C1406 C1405 1.287 . S
C1406 C1407 1.524 . S
C1406 H1425 0.913 . S
C1407 H1383 0.950 . S
C1407 C1406 1.524 . S
C1407 C1408 1.415 . S
C1408 H1384 0.950 . S
C1408 C1403 1.363 . S
C1408 C1407 1.415 . S
C1409 H1385 0.951 1_455 S
C1409 C1410 1.366 . S
C1409 C1411 1.388 1_455 S
C1410 C1409 1.366 . S
C1410 C1414 1.385 . S
C1411 H1386 0.951 . S
C1411 C1409 1.388 1_655 S
C1411 C1412 1.366 1_655 S
C1412 C1411 1.366 1_455 S
C1412 C1413 1.414 . S
C1412 C1415 1.509 . S
C1413 H1387 0.950 . S
C1413 C1412 1.414 . S
C1413 C1414 1.374 . S
C1414 H1388 0.950 . S
C1414 C1410 1.385 . S
C1414 C1413 1.374 . S
C1415 C1412 1.509 . S
C1415 C1416 1.378 . S
C1415 C1417 1.373 1_455 S
C1416 H1389 0.950 . S
C1416 C1402 1.377 . S
C1416 C1415 1.378 . S
C1417 C1401 1.377 . S
C1417 C1415 1.373 1_655 S
C1417 C1418 1.524 . S
C1418 C1417 1.524 . S
C1418 C1419 1.397 . S
C1418 C1423 1.363 . S
C1419 H1390 0.950 . S
C1419 C1418 1.397 . S
C1419 C1420 1.334 1_545 S
C1420 H1391 0.950 . S
C1420 C1419 1.334 1_565 S
C1420 C1421 1.287 . S
C1421 C1420 1.287 . S
C1421 C1422 1.524 1_565 S
C1421 H1424 0.999 . S
C1422 H1392 0.950 1_545 S
C1422 C1421 1.524 1_545 S
C1422 C1423 1.415 . S
C1423 H1393 0.950 . S
C1423 C1418 1.363 . S
C1423 C1422 1.415 . S
H1424 C1421 0.999 . S
H1425 C1406 0.913 . S
H1426 C1444 0.951 . S
H1427 C1446 0.951 . S
H1428 C1448 0.950 . S
H1429 C1449 0.950 . S
H1430 C1451 0.950 . S
H1431 C1454 0.950 . S
H1432 C1455 0.950 . S
H1433 C1457 0.950 . S
H1434 C1458 0.950 . S
H1435 C1459 0.951 . S
H1436 C1461 0.951 . S
H1437 C1463 0.950 . S
H1438 C1464 0.950 . S
H1439 C1466 0.950 . S
H1440 C1469 0.950 . S
H1441 C1470 0.950 . S
H1442 C1472 0.950 . S
H1443 C1473 0.950 . S
C1444 H1426 0.951 . S
C1444 C1445 1.366 . S
C1444 C1446 1.388 . S
C1445 C1444 1.366 . S
C1445 C1449 1.385 . S
C1446 H1427 0.951 . S
C1446 C1444 1.388 . S
C1446 C1447 1.366 . S
C1447 C1446 1.366 . S
C1447 C1448 1.414 . S
C1447 C1450 1.499 . S
C1448 H1428 0.950 . S
C1448 C1447 1.414 . S
C1448 C1449 1.374 . S
C1449 H1429 0.950 . S
C1449 C1445 1.385 . S
C1449 C1448 1.374 . S
C1450 C1447 1.499 . S
C1450 C1451 1.373 . S
C1450 C1452 1.389 . S
C1451 H1430 0.950 . S
C1451 C1450 1.373 . S
C1451 C1467 1.377 . S
C1452 C1450 1.389 . S
C1452 C1453 1.524 . S
C1452 C1466 1.377 . S
C1453 C1452 1.524 . S
C1453 C1454 1.397 . S
C1453 C1458 1.363 . S
C1454 H1431 0.950 . S
C1454 C1453 1.397 . S
C1454 C1455 1.334 . S
C1455 H1432 0.950 . S
C1455 C1454 1.334 . S
C1455 C1456 1.287 . S
C1456 C1455 1.287 . S
C1456 C1457 1.524 . S
C1456 H1475 0.913 . S
C1457 H1433 0.950 . S
C1457 C1456 1.524 . S
C1457 C1458 1.415 . S
C1458 H1434 0.950 . S
C1458 C1453 1.363 . S
C1458 C1457 1.415 . S
C1459 H1435 0.951 . S
C1459 C1460 1.366 . S
C1459 C1461 1.388 . S
C1460 C1459 1.366 . S
C1460 C1464 1.385 . S
C1461 H1436 0.951 . S
C1461 C1459 1.388 . S
C1461 C1462 1.366 . S
C1462 C1461 1.366 . S
C1462 C1463 1.414 . S
C1462 C1465 1.499 . S
C1463 H1437 0.950 . S
C1463 C1462 1.414 . S
C1463 C1464 1.374 . S
C1464 H1438 0.950 . S
C1464 C1460 1.385 . S
C1464 C1463 1.374 . S
C1465 C1462 1.499 . S
C1465 C1466 1.373 . S
C1465 C1467 1.389 . S
C1466 H1439 0.950 . S
C1466 C1452 1.377 . S
C1466 C1465 1.373 . S
C1467 C1451 1.377 . S
C1467 C1465 1.389 . S
C1467 C1468 1.524 . S
C1468 C1467 1.524 . S
C1468 C1469 1.397 . S
C1468 C1473 1.363 . S
C1469 H1440 0.950 . S
C1469 C1468 1.397 . S
C1469 C1470 1.334 . S
C1470 H1441 0.950 . S
C1470 C1469 1.334 . S
C1470 C1471 1.287 . S
C1471 C1470 1.287 . S
C1471 C1472 1.524 . S
C1471 H1474 0.999 . S
C1472 H1442 0.950 . S
C1472 C1471 1.524 . S
C1472 C1473 1.415 . S
C1473 H1443 0.950 . S
C1473 C1468 1.363 . S
C1473 C1472 1.415 . S
H1474 C1471 0.999 . S
H1475 C1456 0.913 . S
H1476 C1494 0.951 . S
H1477 C1496 0.951 . S
H1478 C1498 0.950 . S
H1479 C1499 0.950 . S
H1480 C1501 0.950 . S
H1481 C1504 0.950 . S
H1482 C1505 0.950 . S
H1483 C1507 0.950 . S
H1484 C1508 0.950 . S
H1485 C1509 0.951 . S
H1486 C1511 0.951 . S
H1487 C1513 0.950 . S
H1488 C1514 0.950 1_565 S
H1489 C1516 0.950 . S
H1490 C1519 0.950 . S
H1491 C1520 0.950 . S
H1492 C1522 0.950 . S
H1493 C1523 0.950 . S
C1494 H1476 0.951 . S
C1494 C1495 1.366 . S
C1494 C1496 1.388 . S
C1495 C1494 1.366 . S
C1495 C1499 1.385 . S
C1496 H1477 0.951 . S
C1496 C1494 1.388 . S
C1496 C1497 1.366 . S
C1497 C1496 1.366 . S
C1497 C1498 1.414 . S
C1497 C1500 1.499 . S
C1498 H1478 0.950 . S
C1498 C1497 1.414 . S
C1498 C1499 1.374 . S
C1499 H1479 0.950 . S
C1499 C1495 1.385 . S
C1499 C1498 1.374 . S
C1500 C1497 1.499 . S
C1500 C1501 1.373 . S
C1500 C1502 1.389 . S
C1501 H1480 0.950 . S
C1501 C1500 1.373 . S
C1501 C1517 1.377 . S
C1502 C1500 1.389 . S
C1502 C1503 1.524 . S
C1502 C1516 1.377 . S
C1503 C1502 1.524 . S
C1503 C1504 1.397 . S
C1503 C1508 1.363 1_545 S
C1504 H1481 0.950 . S
C1504 C1503 1.397 . S
C1504 C1505 1.334 . S
C1505 H1482 0.950 . S
C1505 C1504 1.334 . S
C1505 C1506 1.287 . S
C1506 C1505 1.287 . S
C1506 C1507 1.524 1_545 S
C1506 H1525 0.912 . S
C1507 H1483 0.950 . S
C1507 C1506 1.524 1_565 S
C1507 C1508 1.415 . S
C1508 H1484 0.950 . S
C1508 C1503 1.363 1_565 S
C1508 C1507 1.415 . S
C1509 H1485 0.951 . S
C1509 C1510 1.366 . S
C1509 C1511 1.388 . S
C1510 C1509 1.366 . S
C1510 C1514 1.385 . S
C1511 H1486 0.951 . S
C1511 C1509 1.388 . S
C1511 C1512 1.366 . S
C1512 C1511 1.366 . S
C1512 C1513 1.414 . S
C1512 C1515 1.499 . S
C1513 H1487 0.950 . S
C1513 C1512 1.414 . S
C1513 C1514 1.374 . S
C1514 H1488 0.950 1_545 S
C1514 C1510 1.385 . S
C1514 C1513 1.374 . S
C1515 C1512 1.499 . S
C1515 C1516 1.373 . S
C1515 C1517 1.389 . S
C1516 H1489 0.950 . S
C1516 C1502 1.377 . S
C1516 C1515 1.373 . S
C1517 C1501 1.377 . S
C1517 C1515 1.389 . S
C1517 C1518 1.524 . S
C1518 C1517 1.524 . S
C1518 C1519 1.397 . S
C1518 C1523 1.363 . S
C1519 H1490 0.950 . S
C1519 C1518 1.397 . S
C1519 C1520 1.334 . S
C1520 H1491 0.950 . S
C1520 C1519 1.334 . S
C1520 C1521 1.287 . S
C1521 C1520 1.287 . S
C1521 C1522 1.524 . S
C1521 H1524 0.999 . S
C1522 H1492 0.950 . S
C1522 C1521 1.524 . S
C1522 C1523 1.415 . S
C1523 H1493 0.950 . S
C1523 C1518 1.363 . S
C1523 C1522 1.415 . S
H1524 C1521 0.999 . S
H1525 C1506 0.912 . S
H1526 C1544 0.951 . S
H1527 C1546 0.951 . S
H1528 C1548 0.950 . S
H1529 C1549 0.950 . S
H1530 C1551 0.950 . S
H1531 C1554 0.950 . S
H1532 C1555 0.950 . S
H1533 C1557 0.950 . S
H1534 C1558 0.950 . S
H1535 C1559 0.951 . S
H1536 C1561 0.951 . S
H1537 C1563 0.950 . S
H1538 C1564 0.950 . S
H1539 C1566 0.950 . S
H1540 C1569 0.950 . S
H1541 C1570 0.950 . S
H1542 C1572 0.950 . S
H1543 C1573 0.950 . S
C1544 H1526 0.951 . S
C1544 C1545 1.366 . S
C1544 C1546 1.388 . S
C1545 C1544 1.366 . S
C1545 C1549 1.385 . S
C1546 H1527 0.951 . S
C1546 C1544 1.388 . S
C1546 C1547 1.366 . S
C1547 C1546 1.366 . S
C1547 C1548 1.414 . S
C1547 C1550 1.499 . S
C1548 H1528 0.950 . S
C1548 C1547 1.414 . S
C1548 C1549 1.374 . S
C1549 H1529 0.950 . S
C1549 C1545 1.385 . S
C1549 C1548 1.374 . S
C1550 C1547 1.499 . S
C1550 C1551 1.373 . S
C1550 C1552 1.389 . S
C1551 H1530 0.950 . S
C1551 C1550 1.373 . S
C1551 C1567 1.377 . S
C1552 C1550 1.389 . S
C1552 C1553 1.524 . S
C1552 C1566 1.377 . S
C1553 C1552 1.524 . S
C1553 C1554 1.397 . S
C1553 C1558 1.363 . S
C1554 H1531 0.950 . S
C1554 C1553 1.397 . S
C1554 C1555 1.334 . S
C1555 H1532 0.950 . S
C1555 C1554 1.334 . S
C1555 C1556 1.287 . S
C1556 C1555 1.287 . S
C1556 C1557 1.524 . S
C1556 H1575 0.913 . S
C1557 H1533 0.950 . S
C1557 C1556 1.524 . S
C1557 C1558 1.415 . S
C1558 H1534 0.950 . S
C1558 C1553 1.363 . S
C1558 C1557 1.415 . S
C1559 H1535 0.951 . S
C1559 C1560 1.366 . S
C1559 C1561 1.388 . S
C1560 C1559 1.366 . S
C1560 C1564 1.385 . S
C1561 H1536 0.951 . S
C1561 C1559 1.388 . S
C1561 C1562 1.366 . S
C1562 C1561 1.366 . S
C1562 C1563 1.414 . S
C1562 C1565 1.499 . S
C1563 H1537 0.950 . S
C1563 C1562 1.414 . S
C1563 C1564 1.374 . S
C1564 H1538 0.950 . S
C1564 C1560 1.385 . S
C1564 C1563 1.374 . S
C1565 C1562 1.499 . S
C1565 C1566 1.373 . S
C1565 C1567 1.389 . S
C1566 H1539 0.950 . S
C1566 C1552 1.377 . S
C1566 C1565 1.373 . S
C1567 C1551 1.377 . S
C1567 C1565 1.389 . S
C1567 C1568 1.524 . S
C1568 C1567 1.524 . S
C1568 C1569 1.397 . S
C1568 C1573 1.363 . S
C1569 H1540 0.950 . S
C1569 C1568 1.397 . S
C1569 C1570 1.334 . S
C1570 H1541 0.950 . S
C1570 C1569 1.334 . S
C1570 C1571 1.287 . S
C1571 C1570 1.287 . S
C1571 C1572 1.524 . S
C1571 H1574 0.999 . S
C1572 H1542 0.950 . S
C1572 C1571 1.524 . S
C1572 C1573 1.415 . S
C1573 H1543 0.950 . S
C1573 C1568 1.363 . S
C1573 C1572 1.415 . S
H1574 C1571 0.999 . S
H1575 C1556 0.913 . S
H1576 C1594 0.951 . S
H1577 C1596 0.951 . S
H1578 C1598 0.950 . S
H1579 C1599 0.950 . S
H1580 C1601 0.950 . S
H1581 C1604 0.950 . S
H1582 C1605 0.950 . S
H1583 C1607 0.950 . S
H1584 C1608 0.950 . S
H1585 C1609 0.951 . S
H1586 C1611 0.940 1_655 S
H1587 C1613 0.950 . S
H1588 C1614 0.950 . S
H1589 C1616 0.950 . S
H1590 C1619 0.950 . S
H1591 C1620 0.950 . S
H1592 C1622 0.950 . S
H1593 C1623 0.950 . S
C1594 H1576 0.951 . S
C1594 C1595 1.366 . S
C1594 C1596 1.388 . S
C1595 C1594 1.366 . S
C1595 C1599 1.385 . S
C1596 H1577 0.951 . S
C1596 C1594 1.388 . S
C1596 C1597 1.366 . S
C1597 C1596 1.366 . S
C1597 C1598 1.414 . S
C1597 C1600 1.499 . S
C1598 H1578 0.950 . S
C1598 C1597 1.414 . S
C1598 C1599 1.374 . S
C1599 H1579 0.950 . S
C1599 C1595 1.385 . S
C1599 C1598 1.374 . S
C1600 C1597 1.499 . S
C1600 C1601 1.373 . S
C1600 C1602 1.389 1_655 S
C1601 H1580 0.950 . S
C1601 C1600 1.373 . S
C1601 C1617 1.377 . S
C1602 C1600 1.389 1_455 S
C1602 C1603 1.524 . S
C1602 C1616 1.377 . S
C1603 C1602 1.524 . S
C1603 C1604 1.397 . S
C1603 C1608 1.363 . S
C1604 H1581 0.950 . S
C1604 C1603 1.397 . S
C1604 C1605 1.334 . S
C1605 H1582 0.950 . S
C1605 C1604 1.334 . S
C1605 C1606 1.287 . S
C1606 C1605 1.287 . S
C1606 C1607 1.524 . S
C1606 H1625 0.913 . S
C1607 H1583 0.950 . S
C1607 C1606 1.524 . S
C1607 C1608 1.415 . S
C1608 H1584 0.950 . S
C1608 C1603 1.363 . S
C1608 C1607 1.415 . S
C1609 H1585 0.951 . S
C1609 C1610 1.366 . S
C1609 C1611 1.395 . S
C1610 C1609 1.366 . S
C1610 C1614 1.385 . S
C1611 H1586 0.940 1_455 S
C1611 C1609 1.395 . S
C1611 C1612 1.369 . S
C1612 C1611 1.369 . S
C1612 C1613 1.414 . S
C1612 C1615 1.476 1_455 S
C1613 H1587 0.950 . S
C1613 C1612 1.414 . S
C1613 C1614 1.374 . S
C1614 H1588 0.950 . S
C1614 C1610 1.385 . S
C1614 C1613 1.374 . S
C1615 C1612 1.476 1_655 S
C1615 C1616 1.334 1_655 S
C1615 C1617 1.452 . S
C1616 H1589 0.950 . S
C1616 C1602 1.377 . S
C1616 C1615 1.334 1_455 S
C1617 C1601 1.377 . S
C1617 C1615 1.452 . S
C1617 C1618 1.524 . S
C1618 C1617 1.524 . S
C1618 C1619 1.397 . S
C1618 C1623 1.363 . S
C1619 H1590 0.950 . S
C1619 C1618 1.397 . S
C1619 C1620 1.334 . S
C1620 H1591 0.950 . S
C1620 C1619 1.334 . S
C1620 C1621 1.287 . S
C1621 C1620 1.287 . S
C1621 C1622 1.524 . S
C1621 H1624 0.999 . S
C1622 H1592 0.950 . S
C1622 C1621 1.524 . S
C1622 C1623 1.415 . S
C1623 H1593 0.950 . S
C1623 C1618 1.363 . S
C1623 C1622 1.415 . S
H1624 C1621 0.999 . S
H1625 C1606 0.913 . S
H1626 C1644 0.951 . S
H1627 C1646 0.951 . S
H1628 C1648 0.950 . S
H1629 C1649 0.950 . S
H1630 C1651 0.950 . S
H1631 C1654 0.950 . S
H1632 C1655 0.950 . S
H1633 C1657 0.950 . S
H1634 C1658 0.950 . S
H1635 C1659 0.951 . S
H1636 C1661 0.951 . S
H1637 C1663 0.950 . S
H1638 C1664 0.950 . S
H1639 C1666 0.950 . S
H1640 C1669 0.950 . S
H1641 C1670 0.950 . S
H1642 C1672 0.950 . S
H1643 C1673 0.950 . S
C1644 H1626 0.951 . S
C1644 C1645 1.366 . S
C1644 C1646 1.388 . S
C1645 C1644 1.366 . S
C1645 C1649 1.385 . S
C1646 H1627 0.951 . S
C1646 C1644 1.388 . S
C1646 C1647 1.366 . S
C1647 C1646 1.366 . S
C1647 C1648 1.414 . S
C1647 C1650 1.499 . S
C1648 H1628 0.950 . S
C1648 C1647 1.414 . S
C1648 C1649 1.374 . S
C1649 H1629 0.950 . S
C1649 C1645 1.385 . S
C1649 C1648 1.374 . S
C1650 C1647 1.499 . S
C1650 C1651 1.373 . S
C1650 C1652 1.389 . S
C1651 H1630 0.950 . S
C1651 C1650 1.373 . S
C1651 C1667 1.377 . S
C1652 C1650 1.389 . S
C1652 C1653 1.524 . S
C1652 C1666 1.377 . S
C1653 C1652 1.524 . S
C1653 C1654 1.397 . S
C1653 C1658 1.363 . S
C1654 H1631 0.950 . S
C1654 C1653 1.397 . S
C1654 C1655 1.334 . S
C1655 H1632 0.950 . S
C1655 C1654 1.334 . S
C1655 C1656 1.287 . S
C1656 C1655 1.287 . S
C1656 C1657 1.524 . S
C1656 H1675 0.913 . S
C1657 H1633 0.950 . S
C1657 C1656 1.524 . S
C1657 C1658 1.415 . S
C1658 H1634 0.950 . S
C1658 C1653 1.363 . S
C1658 C1657 1.415 . S
C1659 H1635 0.951 . S
C1659 C1660 1.366 . S
C1659 C1661 1.388 . S
C1660 C1659 1.366 . S
C1660 C1664 1.385 . S
C1661 H1636 0.951 . S
C1661 C1659 1.388 . S
C1661 C1662 1.366 . S
C1662 C1661 1.366 . S
C1662 C1663 1.414 . S
C1662 C1665 1.499 . S
C1663 H1637 0.950 . S
C1663 C1662 1.414 . S
C1663 C1664 1.374 . S
C1664 H1638 0.950 . S
C1664 C1660 1.385 . S
C1664 C1663 1.374 . S
C1665 C1662 1.499 . S
C1665 C1666 1.373 . S
C1665 C1667 1.389 . S
C1666 H1639 0.950 . S
C1666 C1652 1.377 . S
C1666 C1665 1.373 . S
C1667 C1651 1.377 . S
C1667 C1665 1.389 . S
C1667 C1668 1.524 . S
C1668 C1667 1.524 . S
C1668 C1669 1.397 . S
C1668 C1673 1.363 . S
C1669 H1640 0.950 . S
C1669 C1668 1.397 . S
C1669 C1670 1.334 . S
C1670 H1641 0.950 . S
C1670 C1669 1.334 . S
C1670 C1671 1.287 . S
C1671 C1670 1.287 . S
C1671 C1672 1.524 . S
C1671 H1674 0.999 . S
C1672 H1642 0.950 . S
C1672 C1671 1.524 . S
C1672 C1673 1.415 . S
C1673 H1643 0.950 . S
C1673 C1668 1.363 . S
C1673 C1672 1.415 . S
H1674 C1671 0.999 . S
H1675 C1656 0.913 . S
H1676 C1694 0.951 . S
H1677 C1696 0.951 . S
H1678 C1698 0.950 . S
H1679 C1699 0.950 . S
H1680 C1701 0.950 . S
H1681 C1704 0.950 . S
H1682 C1705 0.950 . S
H1683 C1707 0.950 . S
H1684 C1708 0.950 . S
H1685 C1709 0.951 . S
H1686 C1711 0.951 . S
H1687 C1713 0.950 . S
H1688 C1714 0.950 . S
H1689 C1716 0.950 . S
H1690 C1719 0.950 . S
H1691 C1720 0.950 . S
H1692 C1722 0.950 . S
H1693 C1723 0.950 . S
C1694 H1676 0.951 . S
C1694 C1695 1.366 . S
C1694 C1696 1.388 . S
C1695 C1694 1.366 . S
C1695 C1699 1.385 . S
C1696 H1677 0.951 . S
C1696 C1694 1.388 . S
C1696 C1697 1.366 . S
C1697 C1696 1.366 . S
C1697 C1698 1.414 . S
C1697 C1700 1.499 . S
C1698 H1678 0.950 . S
C1698 C1697 1.414 . S
C1698 C1699 1.374 . S
C1699 H1679 0.950 . S
C1699 C1695 1.385 . S
C1699 C1698 1.374 . S
C1700 C1697 1.499 . S
C1700 C1701 1.373 . S
C1700 C1702 1.389 . S
C1701 H1680 0.950 . S
C1701 C1700 1.373 . S
C1701 C1717 1.377 . S
C1702 C1700 1.389 . S
C1702 C1703 1.524 . S
C1702 C1716 1.377 . S
C1703 C1702 1.524 . S
C1703 C1704 1.397 . S
C1703 C1708 1.363 . S
C1704 H1681 0.950 . S
C1704 C1703 1.397 . S
C1704 C1705 1.334 . S
C1705 H1682 0.950 . S
C1705 C1704 1.334 . S
C1705 C1706 1.287 . S
C1706 C1705 1.287 . S
C1706 C1707 1.524 . S
C1706 H1725 0.913 . S
C1707 H1683 0.950 . S
C1707 C1706 1.524 . S
C1707 C1708 1.415 . S
C1708 H1684 0.950 . S
C1708 C1703 1.363 . S
C1708 C1707 1.415 . S
C1709 H1685 0.951 . S
C1709 C1710 1.366 . S
C1709 C1711 1.388 . S
C1710 C1709 1.366 . S
C1710 C1714 1.385 . S
C1711 H1686 0.951 . S
C1711 C1709 1.388 . S
C1711 C1712 1.366 . S
C1712 C1711 1.366 . S
C1712 C1713 1.414 . S
C1712 C1715 1.499 . S
C1713 H1687 0.950 . S
C1713 C1712 1.414 . S
C1713 C1714 1.374 . S
C1714 H1688 0.950 . S
C1714 C1710 1.385 . S
C1714 C1713 1.374 . S
C1715 C1712 1.499 . S
C1715 C1716 1.373 . S
C1715 C1717 1.389 . S
C1716 H1689 0.950 . S
C1716 C1702 1.377 . S
C1716 C1715 1.373 . S
C1717 C1701 1.377 . S
C1717 C1715 1.389 . S
C1717 C1718 1.524 . S
C1718 C1717 1.524 . S
C1718 C1719 1.397 . S
C1718 C1723 1.363 . S
C1719 H1690 0.950 . S
C1719 C1718 1.397 . S
C1719 C1720 1.334 . S
C1720 H1691 0.950 . S
C1720 C1719 1.334 . S
C1720 C1721 1.287 . S
C1721 C1720 1.287 . S
C1721 C1722 1.524 . S
C1721 H1724 0.999 . S
C1722 H1692 0.950 . S
C1722 C1721 1.524 . S
C1722 C1723 1.415 . S
C1723 H1693 0.950 . S
C1723 C1718 1.363 . S
C1723 C1722 1.415 . S
H1724 C1721 0.999 . S
H1725 C1706 0.913 . S
H1726 C1744 0.951 . S
H1727 C1746 0.951 . S
H1728 C1748 0.950 . S
H1729 C1749 0.950 . S
H1730 C1751 0.950 . S
H1731 C1754 0.950 . S
H1732 C1755 0.950 . S
H1733 C1757 0.950 . S
H1734 C1758 0.950 . S
H1735 C1759 0.951 . S
H1736 C1761 0.951 . S
H1737 C1763 0.950 . S
H1738 C1764 0.950 . S
H1739 C1766 0.950 . S
H1740 C1769 0.950 . S
H1741 C1770 0.950 . S
H1742 C1772 0.950 . S
H1743 C1773 0.950 . S
C1744 H1726 0.951 . S
C1744 C1745 1.366 . S
C1744 C1746 1.388 . S
C1745 C1744 1.366 . S
C1745 C1749 1.385 . S
C1746 H1727 0.951 . S
C1746 C1744 1.388 . S
C1746 C1747 1.366 . S
C1747 C1746 1.366 . S
C1747 C1748 1.414 . S
C1747 C1750 1.499 . S
C1748 H1728 0.950 . S
C1748 C1747 1.414 . S
C1748 C1749 1.374 . S
C1749 H1729 0.950 . S
C1749 C1745 1.385 . S
C1749 C1748 1.374 . S
C1750 C1747 1.499 . S
C1750 C1751 1.373 . S
C1750 C1752 1.389 . S
C1751 H1730 0.950 . S
C1751 C1750 1.373 . S
C1751 C1767 1.377 . S
C1752 C1750 1.389 . S
C1752 C1753 1.524 . S
C1752 C1766 1.377 . S
C1753 C1752 1.524 . S
C1753 C1754 1.397 . S
C1753 C1758 1.363 . S
C1754 H1731 0.950 . S
C1754 C1753 1.397 . S
C1754 C1755 1.334 . S
C1755 H1732 0.950 . S
C1755 C1754 1.334 . S
C1755 C1756 1.287 . S
C1756 C1755 1.287 . S
C1756 C1757 1.524 . S
C1756 H1775 0.913 . S
C1757 H1733 0.950 . S
C1757 C1756 1.524 . S
C1757 C1758 1.415 . S
C1758 H1734 0.950 . S
C1758 C1753 1.363 . S
C1758 C1757 1.415 . S
C1759 H1735 0.951 . S
C1759 C1760 1.366 . S
C1759 C1761 1.388 . S
C1760 C1759 1.366 . S
C1760 C1764 1.385 . S
C1761 H1736 0.951 . S
C1761 C1759 1.388 . S
C1761 C1762 1.366 . S
C1762 C1761 1.366 . S
C1762 C1763 1.414 . S
C1762 C1765 1.499 . S
C1763 H1737 0.950 . S
C1763 C1762 1.414 . S
C1763 C1764 1.374 . S
C1764 H1738 0.950 . S
C1764 C1760 1.385 . S
C1764 C1763 1.374 . S
C1765 C1762 1.499 . S
C1765 C1766 1.373 . S
C1765 C1767 1.389 . S
C1766 H1739 0.950 . S
C1766 C1752 1.377 . S
C1766 C1765 1.373 . S
C1767 C1751 1.377 . S
C1767 C1765 1.389 . S
C1767 C1768 1.524 . S
C1768 C1767 1.524 . S
C1768 C1769 1.397 . S
C1768 C1773 1.363 . S
C1769 H1740 0.950 . S
C1769 C1768 1.397 . S
C1769 C1770 1.334 . S
C1770 H1741 0.950 . S
C1770 C1769 1.334 . S
C1770 C1771 1.287 . S
C1771 C1770 1.287 . S
C1771 C1772 1.524 . S
C1771 H1774 0.999 . S
C1772 H1742 0.950 . S
C1772 C1771 1.524 . S
C1772 C1773 1.415 . S
C1773 H1743 0.950 . S
C1773 C1768 1.363 . S
C1773 C1772 1.415 . S
H1774 C1771 0.999 . S
H1775 C1756 0.913 . S
H1776 C1794 0.951 . S
H1777 C1796 0.951 . S
H1778 C1798 0.950 . S
H1779 C1799 0.970 . S
H1780 C1801 0.950 . S
H1781 C1804 0.941 1_556 S
H1782 C1805 0.950 . S
H1783 C1807 0.950 . S
H1784 C1808 0.950 . S
H1785 C1809 0.951 . S
H1786 C1811 0.951 . S
H1787 C1813 0.950 . S
H1788 C1814 0.950 . S
H1789 C1816 0.950 . S
H1790 C1819 0.950 . S
H1791 C1820 0.950 . S
H1792 C1822 0.950 . S
H1793 C1823 0.950 . S
C1794 H1776 0.951 . S
C1794 C1795 1.366 . S
C1794 C1796 1.388 . S
C1795 C1794 1.366 . S
C1795 C1799 1.385 . S
C1796 H1777 0.951 . S
C1796 C1794 1.388 . S
C1796 C1797 1.366 . S
C1797 C1796 1.366 . S
C1797 C1798 1.414 . S
C1797 C1800 1.499 . S
C1798 H1778 0.950 . S
C1798 C1797 1.414 . S
C1798 C1799 1.374 . S
C1799 H1779 0.970 . S
C1799 C1795 1.385 . S
C1799 C1798 1.374 . S
C1800 C1797 1.499 . S
C1800 C1801 1.373 . S
C1800 C1802 1.389 . S
C1801 H1780 0.950 . S
C1801 C1800 1.373 . S
C1801 C1817 1.377 . S
C1802 C1800 1.389 . S
C1802 C1803 1.524 . S
C1802 C1816 1.377 . S
C1803 C1802 1.524 . S
C1803 C1804 1.409 . S
C1803 C1808 1.363 . S
C1804 H1781 0.941 1_554 S
C1804 C1803 1.409 . S
C1804 C1805 1.331 1_554 S
C1805 H1782 0.950 . S
C1805 C1804 1.331 1_556 S
C1805 C1806 1.271 1_556 S
C1806 C1805 1.271 1_554 S
C1806 C1807 1.547 . S
C1806 H1825 0.907 1_554 S
C1807 H1783 0.950 . S
C1807 C1806 1.547 . S
C1807 C1808 1.415 . S
C1808 H1784 0.950 . S
C1808 C1803 1.363 . S
C1808 C1807 1.415 . S
C1809 H1785 0.951 . S
C1809 C1810 1.366 1_545 S
C1809 C1811 1.388 . S
C1810 C1809 1.366 1_565 S
C1810 C1814 1.384 . S
C1811 H1786 0.951 . S
C1811 C1809 1.388 . S
C1811 C1812 1.366 1_545 S
C1812 C1811 1.366 1_565 S
C1812 C1813 1.414 . S
C1812 C1815 1.499 . S
C1813 H1787 0.950 . S
C1813 C1812 1.414 . S
C1813 C1814 1.374 . S
C1814 H1788 0.950 . S
C1814 C1810 1.384 . S
C1814 C1813 1.374 . S
C1815 C1812 1.499 . S
C1815 C1816 1.373 . S
C1815 C1817 1.389 . S
C1816 H1789 0.950 . S
C1816 C1802 1.377 . S
C1816 C1815 1.373 . S
C1817 C1801 1.377 . S
C1817 C1815 1.389 . S
C1817 C1818 1.524 1_565 S
C1818 C1817 1.524 1_545 S
C1818 C1819 1.397 . S
C1818 C1823 1.363 . S
C1819 H1790 0.950 . S
C1819 C1818 1.397 . S
C1819 C1820 1.334 . S
C1820 H1791 0.950 . S
C1820 C1819 1.334 . S
C1820 C1821 1.287 . S
C1821 C1820 1.287 . S
C1821 C1822 1.524 . S
C1821 H1824 0.999 . S
C1822 H1792 0.950 . S
C1822 C1821 1.524 . S
C1822 C1823 1.415 . S
C1823 H1793 0.950 . S
C1823 C1818 1.363 . S
C1823 C1822 1.415 . S
H1824 C1821 0.999 . S
H1825 C1806 0.907 1_556 S
H1826 C1844 0.951 . S
H1827 C1846 0.951 . S
H1828 C1848 0.950 . S
H1829 C1849 0.950 . S
H1830 C1851 0.950 . S
H1831 C1854 0.950 1_554 S
H1832 C1855 0.972 . S
H1833 C1857 0.950 . S
H1834 C1858 0.950 . S
H1835 C1859 0.951 . S
H1836 C1861 0.951 . S
H1837 C1863 0.950 . S
H1838 C1864 0.950 . S
H1839 C1866 0.950 . S
H1840 C1869 0.950 1_556 S
H1841 C1870 0.950 . S
H1842 C1872 0.950 . S
H1843 C1873 0.950 . S
C1844 H1826 0.951 . S
C1844 C1845 1.368 . S
C1844 C1846 1.388 . S
C1845 C1844 1.368 . S
C1845 C1849 1.382 1_556 S
C1846 H1827 0.951 . S
C1846 C1844 1.388 . S
C1846 C1847 1.329 1_556 S
C1847 C1846 1.329 1_554 S
C1847 C1848 1.442 . S
C1847 C1850 1.508 . S
C1848 H1828 0.950 . S
C1848 C1847 1.442 . S
C1848 C1849 1.374 . S
C1849 H1829 0.950 . S
C1849 C1845 1.382 1_554 S
C1849 C1848 1.374 . S
C1850 C1847 1.508 . S
C1850 C1851 1.373 . S
C1850 C1852 1.389 1_554 S
C1851 H1830 0.950 . S
C1851 C1850 1.373 . S
C1851 C1867 1.377 . S
C1852 C1850 1.389 1_556 S
C1852 C1853 1.524 . S
C1852 C1866 1.377 . S
C1853 C1852 1.524 . S
C1853 C1854 1.397 . S
C1853 C1858 1.363 . S
C1854 H1831 0.950 1_556 S
C1854 C1853 1.397 . S
C1854 C1855 1.334 . S
C1855 H1832 0.972 . S
C1855 C1854 1.334 . S
C1855 C1856 1.287 . S
C1856 C1855 1.287 . S
C1856 C1857 1.524 . S
C1856 H1875 0.913 . S
C1857 H1833 0.950 . S
C1857 C1856 1.524 . S
C1857 C1858 1.415 . S
C1858 H1834 0.950 . S
C1858 C1853 1.363 . S
C1858 C1857 1.415 . S
C1859 H1835 0.951 . S
C1859 C1860 1.366 . S
C1859 C1861 1.388 . S
C1860 C1859 1.366 . S
C1860 C1864 1.385 1_554 S
C1861 H1836 0.951 . S
C1861 C1859 1.388 . S
C1861 C1862 1.366 . S
C1862 C1861 1.366 . S
C1862 C1863 1.414 1_554 S
C1862 C1865 1.504 . S
C1863 H1837 0.950 . S
C1863 C1862 1.414 1_556 S
C1863 C1864 1.374 . S
C1864 H1838 0.950 . S
C1864 C1860 1.385 1_556 S
C1864 C1863 1.374 . S
C1865 C1862 1.504 . S
C1865 C1866 1.361 1_554 S
C1865 C1867 1.398 . S
C1866 H1839 0.950 . S
C1866 C1852 1.377 . S
C1866 C1865 1.361 1_556 S
C1867 C1851 1.377 . S
C1867 C1865 1.398 . S
C1867 C1868 1.524 . S
C1868 C1867 1.524 . S
C1868 C1869 1.397 . S
C1868 C1873 1.363 . S
C1869 H1840 0.950 1_554 S
C1869 C1868 1.397 . S
C1869 C1870 1.334 . S
C1870 H1841 0.950 . S
C1870 C1869 1.334 . S
C1870 C1871 1.287 . S
C1871 C1870 1.287 . S
C1871 C1872 1.524 . S
C1871 H1874 0.999 . S
C1872 H1842 0.950 . S
C1872 C1871 1.524 . S
C1872 C1873 1.415 . S
C1873 H1843 0.950 . S
C1873 C1868 1.363 . S
C1873 C1872 1.415 . S
H1874 C1871 0.999 . S
H1875 C1856 0.913 . S
H1876 C1894 0.951 . S
H1877 C1896 0.951 . S
H1878 C1898 0.950 . S
H1879 C1899 0.950 . S
H1880 C1901 0.950 . S
H1881 C1904 0.950 . S
H1882 C1905 0.950 . S
H1883 C1907 0.950 . S
H1884 C1908 0.950 . S
H1885 C1909 0.951 . S
H1886 C1911 0.951 . S
H1887 C1913 0.950 . S
H1888 C1914 0.950 . S
H1889 C1916 0.950 . S
H1890 C1919 0.950 . S
H1891 C1920 0.950 . S
H1892 C1922 0.950 . S
H1893 C1923 0.950 . S
C1894 H1876 0.951 . S
C1894 C1895 1.366 . S
C1894 C1896 1.388 . S
C1895 C1894 1.366 . S
C1895 C1899 1.385 . S
C1896 H1877 0.951 . S
C1896 C1894 1.388 . S
C1896 C1897 1.366 . S
C1897 C1896 1.366 . S
C1897 C1898 1.414 . S
C1897 C1900 1.499 . S
C1898 H1878 0.950 . S
C1898 C1897 1.414 . S
C1898 C1899 1.374 . S
C1899 H1879 0.950 . S
C1899 C1895 1.385 . S
C1899 C1898 1.374 . S
C1900 C1897 1.499 . S
C1900 C1901 1.373 . S
C1900 C1902 1.389 . S
C1901 H1880 0.950 . S
C1901 C1900 1.373 . S
C1901 C1917 1.377 . S
C1902 C1900 1.389 . S
C1902 C1903 1.524 . S
C1902 C1916 1.377 . S
C1903 C1902 1.524 . S
C1903 C1904 1.397 . S
C1903 C1908 1.363 . S
C1904 H1881 0.950 . S
C1904 C1903 1.397 . S
C1904 C1905 1.334 . S
C1905 H1882 0.950 . S
C1905 C1904 1.334 . S
C1905 C1906 1.287 . S
C1906 C1905 1.287 . S
C1906 C1907 1.524 . S
C1906 H1925 0.913 . S
C1907 H1883 0.950 . S
C1907 C1906 1.524 . S
C1907 C1908 1.415 . S
C1908 H1884 0.950 . S
C1908 C1903 1.363 . S
C1908 C1907 1.415 . S
C1909 H1885 0.951 . S
C1909 C1910 1.366 . S
C1909 C1911 1.388 . S
C1910 C1909 1.366 . S
C1910 C1914 1.385 . S
C1911 H1886 0.951 . S
C1911 C1909 1.388 . S
C1911 C1912 1.366 . S
C1912 C1911 1.366 . S
C1912 C1913 1.414 . S
C1912 C1915 1.499 . S
C1913 H1887 0.950 . S
C1913 C1912 1.414 . S
C1913 C1914 1.374 . S
C1914 H1888 0.950 . S
C1914 C1910 1.385 . S
C1914 C1913 1.374 . S
C1915 C1912 1.499 . S
C1915 C1916 1.373 . S
C1915 C1917 1.389 . S
C1916 H1889 0.950 . S
C1916 C1902 1.377 . S
C1916 C1915 1.373 . S
C1917 C1901 1.377 . S
C1917 C1915 1.389 . S
C1917 C1918 1.524 . S
C1918 C1917 1.524 . S
C1918 C1919 1.397 . S
C1918 C1923 1.363 . S
C1919 H1890 0.950 . S
C1919 C1918 1.397 . S
C1919 C1920 1.334 . S
C1920 H1891 0.950 . S
C1920 C1919 1.334 . S
C1920 C1921 1.287 . S
C1921 C1920 1.287 . S
C1921 C1922 1.524 . S
C1921 H1924 0.999 . S
C1922 H1892 0.950 . S
C1922 C1921 1.524 . S
C1922 C1923 1.415 . S
C1923 H1893 0.950 . S
C1923 C1918 1.363 . S
C1923 C1922 1.415 . S
H1924 C1921 0.999 . S
H1925 C1906 0.913 . S
H1926 C1944 0.951 . S
H1927 C1946 0.951 . S
H1928 C1948 0.950 . S
H1929 C1949 0.950 . S
H1930 C1951 0.950 . S
H1931 C1954 0.950 . S
H1932 C1955 0.950 . S
H1933 C1957 0.950 . S
H1934 C1958 0.950 . S
H1935 C1959 0.951 . S
H1936 C1961 0.951 . S
H1937 C1963 0.950 . S
H1938 C1964 0.950 . S
H1939 C1966 0.950 . S
H1940 C1969 0.950 . S
H1941 C1970 0.950 . S
H1942 C1972 0.950 . S
H1943 C1973 0.950 . S
C1944 H1926 0.951 . S
C1944 C1945 1.366 . S
C1944 C1946 1.388 . S
C1945 C1944 1.366 . S
C1945 C1949 1.385 . S
C1946 H1927 0.951 . S
C1946 C1944 1.388 . S
C1946 C1947 1.366 . S
C1947 C1946 1.366 . S
C1947 C1948 1.414 . S
C1947 C1950 1.499 . S
C1948 H1928 0.950 . S
C1948 C1947 1.414 . S
C1948 C1949 1.374 . S
C1949 H1929 0.950 . S
C1949 C1945 1.385 . S
C1949 C1948 1.374 . S
C1950 C1947 1.499 . S
C1950 C1951 1.373 . S
C1950 C1952 1.389 . S
C1951 H1930 0.950 . S
C1951 C1950 1.373 . S
C1951 C1967 1.377 . S
C1952 C1950 1.389 . S
C1952 C1953 1.524 . S
C1952 C1966 1.377 . S
C1953 C1952 1.524 . S
C1953 C1954 1.397 . S
C1953 C1958 1.363 . S
C1954 H1931 0.950 . S
C1954 C1953 1.397 . S
C1954 C1955 1.334 . S
C1955 H1932 0.950 . S
C1955 C1954 1.334 . S
C1955 C1956 1.287 . S
C1956 C1955 1.287 . S
C1956 C1957 1.524 . S
C1956 H1975 0.913 . S
C1957 H1933 0.950 . S
C1957 C1956 1.524 . S
C1957 C1958 1.415 . S
C1958 H1934 0.950 . S
C1958 C1953 1.363 . S
C1958 C1957 1.415 . S
C1959 H1935 0.951 . S
C1959 C1960 1.366 . S
C1959 C1961 1.388 . S
C1960 C1959 1.366 . S
C1960 C1964 1.385 . S
C1961 H1936 0.951 . S
C1961 C1959 1.388 . S
C1961 C1962 1.366 . S
C1962 C1961 1.366 . S
C1962 C1963 1.414 . S
C1962 C1965 1.499 . S
C1963 H1937 0.950 . S
C1963 C1962 1.414 . S
C1963 C1964 1.374 . S
C1964 H1938 0.950 . S
C1964 C1960 1.385 . S
C1964 C1963 1.374 . S
C1965 C1962 1.499 . S
C1965 C1966 1.373 . S
C1965 C1967 1.389 . S
C1966 H1939 0.950 . S
C1966 C1952 1.377 . S
C1966 C1965 1.373 . S
C1967 C1951 1.377 . S
C1967 C1965 1.389 . S
C1967 C1968 1.524 . S
C1968 C1967 1.524 . S
C1968 C1969 1.397 . S
C1968 C1973 1.363 . S
C1969 H1940 0.950 . S
C1969 C1968 1.397 . S
C1969 C1970 1.334 . S
C1970 H1941 0.950 . S
C1970 C1969 1.334 . S
C1970 C1971 1.287 . S
C1971 C1970 1.287 . S
C1971 C1972 1.524 . S
C1971 H1974 0.999 . S
C1972 H1942 0.950 . S
C1972 C1971 1.524 . S
C1972 C1973 1.415 . S
C1973 H1943 0.950 . S
C1973 C1968 1.363 . S
C1973 C1972 1.415 . S
H1974 C1971 0.999 . S
H1975 C1956 0.913 . S
H1976 C1994 0.951 . S
H1977 C1996 0.951 . S
H1978 C1998 0.950 . S
H1979 C1999 0.950 . S
H1980 C2001 0.950 . S
H1981 C2004 0.950 . S
H1982 C2005 0.950 . S
H1983 C2007 0.950 . S
H1984 C2008 0.950 . S
H1985 C2009 0.951 . S
H1986 C2011 0.951 . S
H1987 C2013 0.950 . S
H1988 C2014 0.950 . S
H1989 C2016 0.950 . S
H1990 C2019 0.950 . S
H1991 C2020 0.950 . S
H1992 C2022 0.950 . S
H1993 C2023 0.950 . S
C1994 H1976 0.951 . S
C1994 C1995 1.366 . S
C1994 C1996 1.388 . S
C1995 C1994 1.366 . S
C1995 C1999 1.385 . S
C1996 H1977 0.951 . S
C1996 C1994 1.388 . S
C1996 C1997 1.366 . S
C1997 C1996 1.366 . S
C1997 C1998 1.414 . S
C1997 C2000 1.499 . S
C1998 H1978 0.950 . S
C1998 C1997 1.414 . S
C1998 C1999 1.374 . S
C1999 H1979 0.950 . S
C1999 C1995 1.385 . S
C1999 C1998 1.374 . S
C2000 C1997 1.499 . S
C2000 C2001 1.373 . S
C2000 C2002 1.389 . S
C2001 H1980 0.950 . S
C2001 C2000 1.373 . S
C2001 C2017 1.377 . S
C2002 C2000 1.389 . S
C2002 C2003 1.524 . S
C2002 C2016 1.377 . S
C2003 C2002 1.524 . S
C2003 C2004 1.397 . S
C2003 C2008 1.363 . S
C2004 H1981 0.950 . S
C2004 C2003 1.397 . S
C2004 C2005 1.334 . S
C2005 H1982 0.950 . S
C2005 C2004 1.334 . S
C2005 C2006 1.287 . S
C2006 C2005 1.287 . S
C2006 C2007 1.524 . S
C2006 H2025 0.913 . S
C2007 H1983 0.950 . S
C2007 C2006 1.524 . S
C2007 C2008 1.415 . S
C2008 H1984 0.950 . S
C2008 C2003 1.363 . S
C2008 C2007 1.415 . S
C2009 H1985 0.951 . S
C2009 C2010 1.366 . S
C2009 C2011 1.388 . S
C2010 C2009 1.366 . S
C2010 C2014 1.385 . S
C2011 H1986 0.951 . S
C2011 C2009 1.388 . S
C2011 C2012 1.366 . S
C2012 C2011 1.366 . S
C2012 C2013 1.414 . S
C2012 C2015 1.499 . S
C2013 H1987 0.950 . S
C2013 C2012 1.414 . S
C2013 C2014 1.374 . S
C2014 H1988 0.950 . S
C2014 C2010 1.385 . S
C2014 C2013 1.374 . S
C2015 C2012 1.499 . S
C2015 C2016 1.373 . S
C2015 C2017 1.389 . S
C2016 H1989 0.950 . S
C2016 C2002 1.377 . S
C2016 C2015 1.373 . S
C2017 C2001 1.377 . S
C2017 C2015 1.389 . S
C2017 C2018 1.524 . S
C2018 C2017 1.524 . S
C2018 C2019 1.397 . S
C2018 C2023 1.363 . S
C2019 H1990 0.950 . S
C2019 C2018 1.397 . S
C2019 C2020 1.334 . S
C2020 H1991 0.950 . S
C2020 C2019 1.334 . S
C2020 C2021 1.287 . S
C2021 C2020 1.287 . S
C2021 C2022 1.524 . S
C2021 H2024 0.999 . S
C2022 H1992 0.950 . S
C2022 C2021 1.524 . S
C2022 C2023 1.415 . S
C2023 H1993 0.950 . S
C2023 C2018 1.363 . S
C2023 C2022 1.415 . S
H2024 C2021 0.999 . S
H2025 C2006 0.913 . S
H2026 C2044 0.951 . S
H2027 C2046 0.951 . S
H2028 C2048 0.950 . S
H2029 C2049 0.950 . S
H2030 C2051 0.950 . S
H2031 C2054 0.950 . S
H2032 C2055 0.950 . S
H2033 C2057 0.950 . S
H2034 C2058 0.950 . S
H2035 C2059 0.951 . S
H2036 C2061 0.951 . S
H2037 C2063 0.950 . S
H2038 C2064 0.950 . S
H2039 C2066 0.950 . S
H2040 C2069 0.950 . S
H2041 C2070 0.950 . S
H2042 C2072 0.950 . S
H2043 C2073 0.950 . S
C2044 H2026 0.951 . S
C2044 C2045 1.366 . S
C2044 C2046 1.388 . S
C2045 C2044 1.366 . S
C2045 C2049 1.385 . S
C2046 H2027 0.951 . S
C2046 C2044 1.388 . S
C2046 C2047 1.366 . S
C2047 C2046 1.366 . S
C2047 C2048 1.414 . S
C2047 C2050 1.499 . S
C2048 H2028 0.950 . S
C2048 C2047 1.414 . S
C2048 C2049 1.374 . S
C2049 H2029 0.950 . S
C2049 C2045 1.385 . S
C2049 C2048 1.374 . S
C2050 C2047 1.499 . S
C2050 C2051 1.373 . S
C2050 C2052 1.389 . S
C2051 H2030 0.950 . S
C2051 C2050 1.373 . S
C2051 C2067 1.377 . S
C2052 C2050 1.389 . S
C2052 C2053 1.524 . S
C2052 C2066 1.377 . S
C2053 C2052 1.524 . S
C2053 C2054 1.397 . S
C2053 C2058 1.363 . S
C2054 H2031 0.950 . S
C2054 C2053 1.397 . S
C2054 C2055 1.334 . S
C2055 H2032 0.950 . S
C2055 C2054 1.334 . S
C2055 C2056 1.287 . S
C2056 C2055 1.287 . S
C2056 C2057 1.524 . S
C2056 H2075 0.913 . S
C2057 H2033 0.950 . S
C2057 C2056 1.524 . S
C2057 C2058 1.415 . S
C2058 H2034 0.950 . S
C2058 C2053 1.363 . S
C2058 C2057 1.415 . S
C2059 H2035 0.951 . S
C2059 C2060 1.366 . S
C2059 C2061 1.388 . S
C2060 C2059 1.366 . S
C2060 C2064 1.385 . S
C2061 H2036 0.951 . S
C2061 C2059 1.388 . S
C2061 C2062 1.366 . S
C2062 C2061 1.366 . S
C2062 C2063 1.414 . S
C2062 C2065 1.499 . S
C2063 H2037 0.950 . S
C2063 C2062 1.414 . S
C2063 C2064 1.374 . S
C2064 H2038 0.950 . S
C2064 C2060 1.385 . S
C2064 C2063 1.374 . S
C2065 C2062 1.499 . S
C2065 C2066 1.373 . S
C2065 C2067 1.389 . S
C2066 H2039 0.950 . S
C2066 C2052 1.377 . S
C2066 C2065 1.373 . S
C2067 C2051 1.377 . S
C2067 C2065 1.389 . S
C2067 C2068 1.524 . S
C2068 C2067 1.524 . S
C2068 C2069 1.397 . S
C2068 C2073 1.363 . S
C2069 H2040 0.950 . S
C2069 C2068 1.397 . S
C2069 C2070 1.334 . S
C2070 H2041 0.950 . S
C2070 C2069 1.334 . S
C2070 C2071 1.287 . S
C2071 C2070 1.287 . S
C2071 C2072 1.524 . S
C2071 H2074 0.999 . S
C2072 H2042 0.950 . S
C2072 C2071 1.524 . S
C2072 C2073 1.415 . S
C2073 H2043 0.950 . S
C2073 C2068 1.363 . S
C2073 C2072 1.415 . S
H2074 C2071 0.999 . S
H2075 C2056 0.913 . S
H2076 C2094 0.951 . S
H2077 C2096 0.951 . S
H2078 C2098 0.950 . S
H2079 C2099 0.950 . S
H2080 C2101 0.950 . S
H2081 C2104 0.950 . S
H2082 C2105 0.950 . S
H2083 C2107 0.950 . S
H2084 C2108 0.950 . S
H2085 C2109 0.951 . S
H2086 C2111 0.951 . S
H2087 C2113 0.950 . S
H2088 C2114 0.950 . S
H2089 C2116 0.950 . S
H2090 C2119 0.950 . S
H2091 C2120 0.950 . S
H2092 C2122 0.950 . S
H2093 C2123 0.950 . S
C2094 H2076 0.951 . S
C2094 C2095 1.366 . S
C2094 C2096 1.388 . S
C2095 C2094 1.366 . S
C2095 C2099 1.385 . S
C2096 H2077 0.951 . S
C2096 C2094 1.388 . S
C2096 C2097 1.366 . S
C2097 C2096 1.366 . S
C2097 C2098 1.414 . S
C2097 C2100 1.499 . S
C2098 H2078 0.950 . S
C2098 C2097 1.414 . S
C2098 C2099 1.374 . S
C2099 H2079 0.950 . S
C2099 C2095 1.385 . S
C2099 C2098 1.374 . S
C2100 C2097 1.499 . S
C2100 C2101 1.373 . S
C2100 C2102 1.389 . S
C2101 H2080 0.950 . S
C2101 C2100 1.373 . S
C2101 C2117 1.377 . S
C2102 C2100 1.389 . S
C2102 C2103 1.524 . S
C2102 C2116 1.377 . S
C2103 C2102 1.524 . S
C2103 C2104 1.397 . S
C2103 C2108 1.363 . S
C2104 H2081 0.950 . S
C2104 C2103 1.397 . S
C2104 C2105 1.334 . S
C2105 H2082 0.950 . S
C2105 C2104 1.334 . S
C2105 C2106 1.287 . S
C2106 C2105 1.287 . S
C2106 C2107 1.524 . S
C2106 H2125 0.913 . S
C2107 H2083 0.950 . S
C2107 C2106 1.524 . S
C2107 C2108 1.415 . S
C2108 H2084 0.950 . S
C2108 C2103 1.363 . S
C2108 C2107 1.415 . S
C2109 H2085 0.951 . S
C2109 C2110 1.366 . S
C2109 C2111 1.388 . S
C2110 C2109 1.366 . S
C2110 C2114 1.385 . S
C2111 H2086 0.951 . S
C2111 C2109 1.388 . S
C2111 C2112 1.366 . S
C2112 C2111 1.366 . S
C2112 C2113 1.414 . S
C2112 C2115 1.499 . S
C2113 H2087 0.950 . S
C2113 C2112 1.414 . S
C2113 C2114 1.374 . S
C2114 H2088 0.950 . S
C2114 C2110 1.385 . S
C2114 C2113 1.374 . S
C2115 C2112 1.499 . S
C2115 C2116 1.373 . S
C2115 C2117 1.389 . S
C2116 H2089 0.950 . S
C2116 C2102 1.377 . S
C2116 C2115 1.373 . S
C2117 C2101 1.377 . S
C2117 C2115 1.389 . S
C2117 C2118 1.524 . S
C2118 C2117 1.524 . S
C2118 C2119 1.397 . S
C2118 C2123 1.363 . S
C2119 H2090 0.950 . S
C2119 C2118 1.397 . S
C2119 C2120 1.334 . S
C2120 H2091 0.950 . S
C2120 C2119 1.334 . S
C2120 C2121 1.287 . S
C2121 C2120 1.287 . S
C2121 C2122 1.524 . S
C2121 H2124 0.999 . S
C2122 H2092 0.950 . S
C2122 C2121 1.524 . S
C2122 C2123 1.415 . S
C2123 H2093 0.950 . S
C2123 C2118 1.363 . S
C2123 C2122 1.415 . S
H2124 C2121 0.999 . S
H2125 C2106 0.913 . S
H2126 C2144 0.951 . S
H2127 C2146 0.951 . S
H2128 C2148 0.950 . S
H2129 C2149 0.950 . S
H2130 C2151 0.950 . S
H2131 C2154 0.950 . S
H2132 C2155 0.950 . S
H2133 C2157 0.950 . S
H2134 C2158 0.950 . S
H2135 C2159 0.951 . S
H2136 C2161 0.951 . S
H2137 C2163 0.950 . S
H2138 C2164 0.950 . S
H2139 C2166 0.950 . S
H2140 C2169 0.950 . S
H2141 C2170 0.950 . S
H2142 C2172 0.950 . S
H2143 C2173 0.950 . S
C2144 H2126 0.951 . S
C2144 C2145 1.366 . S
C2144 C2146 1.388 . S
C2145 C2144 1.366 . S
C2145 C2149 1.385 . S
C2146 H2127 0.951 . S
C2146 C2144 1.388 . S
C2146 C2147 1.366 . S
C2147 C2146 1.366 . S
C2147 C2148 1.414 . S
C2147 C2150 1.499 . S
C2148 H2128 0.950 . S
C2148 C2147 1.414 . S
C2148 C2149 1.374 . S
C2149 H2129 0.950 . S
C2149 C2145 1.385 . S
C2149 C2148 1.374 . S
C2150 C2147 1.499 . S
C2150 C2151 1.373 . S
C2150 C2152 1.389 . S
C2151 H2130 0.950 . S
C2151 C2150 1.373 . S
C2151 C2167 1.377 . S
C2152 C2150 1.389 . S
C2152 C2153 1.524 . S
C2152 C2166 1.377 . S
C2153 C2152 1.524 . S
C2153 C2154 1.397 . S
C2153 C2158 1.363 . S
C2154 H2131 0.950 . S
C2154 C2153 1.397 . S
C2154 C2155 1.334 . S
C2155 H2132 0.950 . S
C2155 C2154 1.334 . S
C2155 C2156 1.287 . S
C2156 C2155 1.287 . S
C2156 C2157 1.524 . S
C2156 H2175 0.913 . S
C2157 H2133 0.950 . S
C2157 C2156 1.524 . S
C2157 C2158 1.415 . S
C2158 H2134 0.950 . S
C2158 C2153 1.363 . S
C2158 C2157 1.415 . S
C2159 H2135 0.951 . S
C2159 C2160 1.366 . S
C2159 C2161 1.388 . S
C2160 C2159 1.366 . S
C2160 C2164 1.385 . S
C2161 H2136 0.951 . S
C2161 C2159 1.388 . S
C2161 C2162 1.366 . S
C2162 C2161 1.366 . S
C2162 C2163 1.414 . S
C2162 C2165 1.499 . S
C2163 H2137 0.950 . S
C2163 C2162 1.414 . S
C2163 C2164 1.374 . S
C2164 H2138 0.950 . S
C2164 C2160 1.385 . S
C2164 C2163 1.374 . S
C2165 C2162 1.499 . S
C2165 C2166 1.373 . S
C2165 C2167 1.389 . S
C2166 H2139 0.950 . S
C2166 C2152 1.377 . S
C2166 C2165 1.373 . S
C2167 C2151 1.377 . S
C2167 C2165 1.389 . S
C2167 C2168 1.524 . S
C2168 C2167 1.524 . S
C2168 C2169 1.397 . S
C2168 C2173 1.363 . S
C2169 H2140 0.950 . S
C2169 C2168 1.397 . S
C2169 C2170 1.334 . S
C2170 H2141 0.950 . S
C2170 C2169 1.334 . S
C2170 C2171 1.287 . S
C2171 C2170 1.287 . S
C2171 C2172 1.524 . S
C2171 H2174 0.999 . S
C2172 H2142 0.950 . S
C2172 C2171 1.524 . S
C2172 C2173 1.415 . S
C2173 H2143 0.950 . S
C2173 C2168 1.363 . S
C2173 C2172 1.415 . S
H2174 C2171 0.999 . S
H2175 C2156 0.913 . S
H2176 C2194 0.951 . S
H2177 C2196 0.951 . S
H2178 C2198 0.950 . S
H2179 C2199 0.950 . S
H2180 C2201 0.950 . S
H2181 C2204 0.950 . S
H2182 C2205 0.950 . S
H2183 C2207 0.950 1_556 S
H2184 C2208 0.950 . S
H2185 C2209 0.951 . S
H2186 C2211 0.951 . S
H2187 C2213 0.950 . S
H2188 C2214 0.950 . S
H2189 C2216 0.950 . S
H2190 C2219 0.950 . S
H2191 C2220 0.985 . S
H2192 C2222 0.950 . S
H2193 C2223 0.950 . S
C2194 H2176 0.951 . S
C2194 C2195 1.366 . S
C2194 C2196 1.388 . S
C2195 C2194 1.366 . S
C2195 C2199 1.385 . S
C2196 H2177 0.951 . S
C2196 C2194 1.388 . S
C2196 C2197 1.366 . S
C2197 C2196 1.366 . S
C2197 C2198 1.414 . S
C2197 C2200 1.499 . S
C2198 H2178 0.950 . S
C2198 C2197 1.414 . S
C2198 C2199 1.374 . S
C2199 H2179 0.950 . S
C2199 C2195 1.385 . S
C2199 C2198 1.374 . S
C2200 C2197 1.499 . S
C2200 C2201 1.373 . S
C2200 C2202 1.389 . S
C2201 H2180 0.950 . S
C2201 C2200 1.373 . S
C2201 C2217 1.377 . S
C2202 C2200 1.389 . S
C2202 C2203 1.524 . S
C2202 C2216 1.377 . S
C2203 C2202 1.524 . S
C2203 C2204 1.397 . S
C2203 C2208 1.363 . S
C2204 H2181 0.950 . S
C2204 C2203 1.397 . S
C2204 C2205 1.334 . S
C2205 H2182 0.950 . S
C2205 C2204 1.334 . S
C2205 C2206 1.287 . S
C2206 C2205 1.287 . S
C2206 C2207 1.524 . S
C2206 H2225 0.913 . S
C2207 H2183 0.950 1_554 S
C2207 C2206 1.524 . S
C2207 C2208 1.415 . S
C2208 H2184 0.950 . S
C2208 C2203 1.363 . S
C2208 C2207 1.415 . S
C2209 H2185 0.951 . S
C2209 C2210 1.366 . S
C2209 C2211 1.388 . S
C2210 C2209 1.366 . S
C2210 C2214 1.385 . S
C2211 H2186 0.951 . S
C2211 C2209 1.388 . S
C2211 C2212 1.366 . S
C2212 C2211 1.366 . S
C2212 C2213 1.414 . S
C2212 C2215 1.499 . S
C2213 H2187 0.950 . S
C2213 C2212 1.414 . S
C2213 C2214 1.374 . S
C2214 H2188 0.950 . S
C2214 C2210 1.385 . S
C2214 C2213 1.374 . S
C2215 C2212 1.499 . S
C2215 C2216 1.373 . S
C2215 C2217 1.389 . S
C2216 H2189 0.950 . S
C2216 C2202 1.377 . S
C2216 C2215 1.373 . S
C2217 C2201 1.377 . S
C2217 C2215 1.389 . S
C2217 C2218 1.524 . S
C2218 C2217 1.524 . S
C2218 C2219 1.397 . S
C2218 C2223 1.363 . S
C2219 H2190 0.950 . S
C2219 C2218 1.397 . S
C2219 C2220 1.334 . S
C2220 H2191 0.985 . S
C2220 C2219 1.334 . S
C2220 C2221 1.287 . S
C2221 C2220 1.287 . S
C2221 C2222 1.524 . S
C2221 H2224 0.999 . S
C2222 H2192 0.950 . S
C2222 C2221 1.524 . S
C2222 C2223 1.415 . S
C2223 H2193 0.950 . S
C2223 C2218 1.363 . S
C2223 C2222 1.415 . S
H2224 C2221 0.999 . S
H2225 C2206 0.913 . S
H2226 C2244 0.951 . S
H2227 C2246 0.951 . S
H2228 C2248 0.950 . S
H2229 C2249 0.950 . S
H2230 C2251 0.950 . S
H2231 C2254 0.950 . S
H2232 C2255 0.950 . S
H2233 C2257 0.950 . S
H2234 C2258 0.950 . S
H2235 C2259 0.951 . S
H2236 C2261 0.951 . S
H2237 C2263 0.950 . S
H2238 C2264 0.950 . S
H2239 C2266 0.950 . S
H2240 C2269 0.950 . S
H2241 C2270 0.950 . S
H2242 C2272 0.950 . S
H2243 C2273 0.950 . S
C2244 H2226 0.951 . S
C2244 C2245 1.366 . S
C2244 C2246 1.388 . S
C2245 C2244 1.366 . S
C2245 C2249 1.385 . S
C2246 H2227 0.951 . S
C2246 C2244 1.388 . S
C2246 C2247 1.366 . S
C2247 C2246 1.366 . S
C2247 C2248 1.414 . S
C2247 C2250 1.499 . S
C2248 H2228 0.950 . S
C2248 C2247 1.414 . S
C2248 C2249 1.374 . S
C2249 H2229 0.950 . S
C2249 C2245 1.385 . S
C2249 C2248 1.374 . S
C2250 C2247 1.499 . S
C2250 C2251 1.373 . S
C2250 C2252 1.389 . S
C2251 H2230 0.950 . S
C2251 C2250 1.373 . S
C2251 C2267 1.377 . S
C2252 C2250 1.389 . S
C2252 C2253 1.524 . S
C2252 C2266 1.377 . S
C2253 C2252 1.524 . S
C2253 C2254 1.397 . S
C2253 C2258 1.363 . S
C2254 H2231 0.950 . S
C2254 C2253 1.397 . S
C2254 C2255 1.334 . S
C2255 H2232 0.950 . S
C2255 C2254 1.334 . S
C2255 C2256 1.287 . S
C2256 C2255 1.287 . S
C2256 C2257 1.524 . S
C2256 H2275 0.913 . S
C2257 H2233 0.950 . S
C2257 C2256 1.524 . S
C2257 C2258 1.415 . S
C2258 H2234 0.950 . S
C2258 C2253 1.363 . S
C2258 C2257 1.415 . S
C2259 H2235 0.951 . S
C2259 C2260 1.366 . S
C2259 C2261 1.388 . S
C2260 C2259 1.366 . S
C2260 C2264 1.385 . S
C2261 H2236 0.951 . S
C2261 C2259 1.388 . S
C2261 C2262 1.366 . S
C2262 C2261 1.366 . S
C2262 C2263 1.414 . S
C2262 C2265 1.499 . S
C2263 H2237 0.950 . S
C2263 C2262 1.414 . S
C2263 C2264 1.374 . S
C2264 H2238 0.950 . S
C2264 C2260 1.385 . S
C2264 C2263 1.374 . S
C2265 C2262 1.499 . S
C2265 C2266 1.373 . S
C2265 C2267 1.389 . S
C2266 H2239 0.950 . S
C2266 C2252 1.377 . S
C2266 C2265 1.373 . S
C2267 C2251 1.377 . S
C2267 C2265 1.389 . S
C2267 C2268 1.524 . S
C2268 C2267 1.524 . S
C2268 C2269 1.397 . S
C2268 C2273 1.363 . S
C2269 H2240 0.950 . S
C2269 C2268 1.397 . S
C2269 C2270 1.334 . S
C2270 H2241 0.950 . S
C2270 C2269 1.334 . S
C2270 C2271 1.287 . S
C2271 C2270 1.287 . S
C2271 C2272 1.524 . S
C2271 H2274 0.999 . S
C2272 H2242 0.950 . S
C2272 C2271 1.524 . S
C2272 C2273 1.415 . S
C2273 H2243 0.950 . S
C2273 C2268 1.363 . S
C2273 C2272 1.415 . S
H2274 C2271 0.999 . S
H2275 C2256 0.913 . S
H2276 C2294 0.951 . S
H2277 C2296 0.951 . S
H2278 C2298 0.950 . S
H2279 C2299 0.950 . S
H2280 C2301 0.950 . S
H2281 C2304 0.950 . S
H2282 C2305 0.950 . S
H2283 C2307 0.950 . S
H2284 C2308 0.950 . S
H2285 C2309 0.951 . S
H2286 C2311 0.951 . S
H2287 C2313 0.950 . S
H2288 C2314 0.950 . S
H2289 C2316 0.950 . S
H2290 C2319 0.950 . S
H2291 C2320 0.950 . S
H2292 C2322 0.950 . S
H2293 C2323 0.950 . S
C2294 H2276 0.951 . S
C2294 C2295 1.366 . S
C2294 C2296 1.388 . S
C2295 C2294 1.366 . S
C2295 C2299 1.385 . S
C2296 H2277 0.951 . S
C2296 C2294 1.388 . S
C2296 C2297 1.366 . S
C2297 C2296 1.366 . S
C2297 C2298 1.414 . S
C2297 C2300 1.499 . S
C2298 H2278 0.950 . S
C2298 C2297 1.414 . S
C2298 C2299 1.374 . S
C2299 H2279 0.950 . S
C2299 C2295 1.385 . S
C2299 C2298 1.374 . S
C2300 C2297 1.499 . S
C2300 C2301 1.373 . S
C2300 C2302 1.389 . S
C2301 H2280 0.950 . S
C2301 C2300 1.373 . S
C2301 C2317 1.377 . S
C2302 C2300 1.389 . S
C2302 C2303 1.524 . S
C2302 C2316 1.377 . S
C2303 C2302 1.524 . S
C2303 C2304 1.397 . S
C2303 C2308 1.363 . S
C2304 H2281 0.950 . S
C2304 C2303 1.397 . S
C2304 C2305 1.334 . S
C2305 H2282 0.950 . S
C2305 C2304 1.334 . S
C2305 C2306 1.287 . S
C2306 C2305 1.287 . S
C2306 C2307 1.524 . S
C2306 H2325 0.913 . S
C2307 H2283 0.950 . S
C2307 C2306 1.524 . S
C2307 C2308 1.415 . S
C2308 H2284 0.950 . S
C2308 C2303 1.363 . S
C2308 C2307 1.415 . S
C2309 H2285 0.951 . S
C2309 C2310 1.366 . S
C2309 C2311 1.388 . S
C2310 C2309 1.366 . S
C2310 C2314 1.385 . S
C2311 H2286 0.951 . S
C2311 C2309 1.388 . S
C2311 C2312 1.366 . S
C2312 C2311 1.366 . S
C2312 C2313 1.414 . S
C2312 C2315 1.499 . S
C2313 H2287 0.950 . S
C2313 C2312 1.414 . S
C2313 C2314 1.374 . S
C2314 H2288 0.950 . S
C2314 C2310 1.385 . S
C2314 C2313 1.374 . S
C2315 C2312 1.499 . S
C2315 C2316 1.373 . S
C2315 C2317 1.389 . S
C2316 H2289 0.950 . S
C2316 C2302 1.377 . S
C2316 C2315 1.373 . S
C2317 C2301 1.377 . S
C2317 C2315 1.389 . S
C2317 C2318 1.524 . S
C2318 C2317 1.524 . S
C2318 C2319 1.397 . S
C2318 C2323 1.363 . S
C2319 H2290 0.950 . S
C2319 C2318 1.397 . S
C2319 C2320 1.334 . S
C2320 H2291 0.950 . S
C2320 C2319 1.334 . S
C2320 C2321 1.287 . S
C2321 C2320 1.287 . S
C2321 C2322 1.524 . S
C2321 H2324 0.999 . S
C2322 H2292 0.950 . S
C2322 C2321 1.524 . S
C2322 C2323 1.415 . S
C2323 H2293 0.950 . S
C2323 C2318 1.363 . S
C2323 C2322 1.415 . S
H2324 C2321 0.999 . S
H2325 C2306 0.913 . S
H2326 C2344 0.951 . S
H2327 C2346 0.951 . S
H2328 C2348 0.950 . S
H2329 C2349 0.950 . S
H2330 C2351 0.950 . S
H2331 C2354 0.950 . S
H2332 C2355 0.950 . S
H2333 C2357 0.950 . S
H2334 C2358 0.950 . S
H2335 C2359 0.951 . S
H2336 C2361 0.951 . S
H2337 C2363 0.950 . S
H2338 C2364 0.950 . S
H2339 C2366 0.950 . S
H2340 C2369 0.950 . S
H2341 C2370 0.950 . S
H2342 C2372 0.950 . S
H2343 C2373 0.950 . S
C2344 H2326 0.951 . S
C2344 C2345 1.366 . S
C2344 C2346 1.388 . S
C2345 C2344 1.366 . S
C2345 C2349 1.385 . S
C2346 H2327 0.951 . S
C2346 C2344 1.388 . S
C2346 C2347 1.366 . S
C2347 C2346 1.366 . S
C2347 C2348 1.414 . S
C2347 C2350 1.499 . S
C2348 H2328 0.950 . S
C2348 C2347 1.414 . S
C2348 C2349 1.374 . S
C2349 H2329 0.950 . S
C2349 C2345 1.385 . S
C2349 C2348 1.374 . S
C2350 C2347 1.499 . S
C2350 C2351 1.373 . S
C2350 C2352 1.389 . S
C2351 H2330 0.950 . S
C2351 C2350 1.373 . S
C2351 C2367 1.377 . S
C2352 C2350 1.389 . S
C2352 C2353 1.524 . S
C2352 C2366 1.377 . S
C2353 C2352 1.524 . S
C2353 C2354 1.397 . S
C2353 C2358 1.363 . S
C2354 H2331 0.950 . S
C2354 C2353 1.397 . S
C2354 C2355 1.334 . S
C2355 H2332 0.950 . S
C2355 C2354 1.334 . S
C2355 C2356 1.287 . S
C2356 C2355 1.287 . S
C2356 C2357 1.524 . S
C2356 H2375 0.913 . S
C2357 H2333 0.950 . S
C2357 C2356 1.524 . S
C2357 C2358 1.415 . S
C2358 H2334 0.950 . S
C2358 C2353 1.363 . S
C2358 C2357 1.415 . S
C2359 H2335 0.951 . S
C2359 C2360 1.366 . S
C2359 C2361 1.388 . S
C2360 C2359 1.366 . S
C2360 C2364 1.385 . S
C2361 H2336 0.951 . S
C2361 C2359 1.388 . S
C2361 C2362 1.366 . S
C2362 C2361 1.366 . S
C2362 C2363 1.414 . S
C2362 C2365 1.499 . S
C2363 H2337 0.950 . S
C2363 C2362 1.414 . S
C2363 C2364 1.374 . S
C2364 H2338 0.950 . S
C2364 C2360 1.385 . S
C2364 C2363 1.374 . S
C2365 C2362 1.499 . S
C2365 C2366 1.373 . S
C2365 C2367 1.389 . S
C2366 H2339 0.950 . S
C2366 C2352 1.377 . S
C2366 C2365 1.373 . S
C2367 C2351 1.377 . S
C2367 C2365 1.389 . S
C2367 C2368 1.524 . S
C2368 C2367 1.524 . S
C2368 C2369 1.397 . S
C2368 C2373 1.363 . S
C2369 H2340 0.950 . S
C2369 C2368 1.397 . S
C2369 C2370 1.334 . S
C2370 H2341 0.950 . S
C2370 C2369 1.334 . S
C2370 C2371 1.287 . S
C2371 C2370 1.287 . S
C2371 C2372 1.524 . S
C2371 H2374 0.999 . S
C2372 H2342 0.950 . S
C2372 C2371 1.524 . S
C2372 C2373 1.415 . S
C2373 H2343 0.950 . S
C2373 C2368 1.363 . S
C2373 C2372 1.415 . S
H2374 C2371 0.999 . S
H2375 C2356 0.913 . S
H2376 C2394 0.951 . S
H2377 C2396 0.951 . S
H2378 C2398 0.950 . S
H2379 C2399 0.950 . S
H2380 C2401 0.950 . S
H2381 C2404 0.950 . S
H2382 C2405 0.950 . S
H2383 C2407 0.950 . S
H2384 C2408 0.950 . S
H2385 C2409 0.951 . S
H2386 C2411 0.951 . S
H2387 C2413 0.950 . S
H2388 C2414 0.950 . S
H2389 C2416 0.950 . S
H2390 C2419 0.950 . S
H2391 C2420 0.950 . S
H2392 C2422 0.950 . S
H2393 C2423 0.950 . S
C2394 H2376 0.951 . S
C2394 C2395 1.366 . S
C2394 C2396 1.388 . S
C2395 C2394 1.366 . S
C2395 C2399 1.385 . S
C2396 H2377 0.951 . S
C2396 C2394 1.388 . S
C2396 C2397 1.366 . S
C2397 C2396 1.366 . S
C2397 C2398 1.414 . S
C2397 C2400 1.499 . S
C2398 H2378 0.950 . S
C2398 C2397 1.414 . S
C2398 C2399 1.374 . S
C2399 H2379 0.950 . S
C2399 C2395 1.385 . S
C2399 C2398 1.374 . S
C2400 C2397 1.499 . S
C2400 C2401 1.373 . S
C2400 C2402 1.389 . S
C2401 H2380 0.950 . S
C2401 C2400 1.373 . S
C2401 C2417 1.377 . S
C2402 C2400 1.389 . S
C2402 C2403 1.524 . S
C2402 C2416 1.377 . S
C2403 C2402 1.524 . S
C2403 C2404 1.397 . S
C2403 C2408 1.363 . S
C2404 H2381 0.950 . S
C2404 C2403 1.397 . S
C2404 C2405 1.334 . S
C2405 H2382 0.950 . S
C2405 C2404 1.334 . S
C2405 C2406 1.287 . S
C2406 C2405 1.287 . S
C2406 C2407 1.524 . S
C2406 H2425 0.913 . S
C2407 H2383 0.950 . S
C2407 C2406 1.524 . S
C2407 C2408 1.415 . S
C2408 H2384 0.950 . S
C2408 C2403 1.363 . S
C2408 C2407 1.415 . S
C2409 H2385 0.951 . S
C2409 C2410 1.366 . S
C2409 C2411 1.388 . S
C2410 C2409 1.366 . S
C2410 C2414 1.385 . S
C2411 H2386 0.951 . S
C2411 C2409 1.388 . S
C2411 C2412 1.366 . S
C2412 C2411 1.366 . S
C2412 C2413 1.414 . S
C2412 C2415 1.499 . S
C2413 H2387 0.950 . S
C2413 C2412 1.414 . S
C2413 C2414 1.374 . S
C2414 H2388 0.950 . S
C2414 C2410 1.385 . S
C2414 C2413 1.374 . S
C2415 C2412 1.499 . S
C2415 C2416 1.373 . S
C2415 C2417 1.389 . S
C2416 H2389 0.950 . S
C2416 C2402 1.377 . S
C2416 C2415 1.373 . S
C2417 C2401 1.377 . S
C2417 C2415 1.389 . S
C2417 C2418 1.524 . S
C2418 C2417 1.524 . S
C2418 C2419 1.397 . S
C2418 C2423 1.363 . S
C2419 H2390 0.950 . S
C2419 C2418 1.397 . S
C2419 C2420 1.334 1_455 S
C2420 H2391 0.950 . S
C2420 C2419 1.334 1_655 S
C2420 C2421 1.287 . S
C2421 C2420 1.287 . S
C2421 C2422 1.524 . S
C2421 H2424 0.999 . S
C2422 H2392 0.950 . S
C2422 C2421 1.524 . S
C2422 C2423 1.415 1_655 S
C2423 H2393 0.950 . S
C2423 C2418 1.363 . S
C2423 C2422 1.415 1_455 S
H2424 C2421 0.999 . S
H2425 C2406 0.913 . S
H2426 C2444 0.951 . S
H2427 C2446 0.951 . S
H2428 C2448 0.950 . S
H2429 C2449 0.950 . S
H2430 C2451 0.950 . S
H2431 C2454 0.950 . S
H2432 C2455 0.950 . S
H2433 C2457 0.950 . S
H2434 C2458 0.950 . S
H2435 C2459 0.951 . S
H2436 C2461 0.951 . S
H2437 C2463 0.950 . S
H2438 C2464 0.950 . S
H2439 C2466 0.950 . S
H2440 C2469 0.950 . S
H2441 C2470 0.950 . S
H2442 C2472 0.950 . S
H2443 C2473 0.950 . S
C2444 H2426 0.951 . S
C2444 C2445 1.366 . S
C2444 C2446 1.388 . S
C2445 C2444 1.366 . S
C2445 C2449 1.385 . S
C2446 H2427 0.951 . S
C2446 C2444 1.388 . S
C2446 C2447 1.366 . S
C2447 C2446 1.366 . S
C2447 C2448 1.414 . S
C2447 C2450 1.499 . S
C2448 H2428 0.950 . S
C2448 C2447 1.414 . S
C2448 C2449 1.374 . S
C2449 H2429 0.950 . S
C2449 C2445 1.385 . S
C2449 C2448 1.374 . S
C2450 C2447 1.499 . S
C2450 C2451 1.373 . S
C2450 C2452 1.389 . S
C2451 H2430 0.950 . S
C2451 C2450 1.373 . S
C2451 C2467 1.377 . S
C2452 C2450 1.389 . S
C2452 C2453 1.524 . S
C2452 C2466 1.377 . S
C2453 C2452 1.524 . S
C2453 C2454 1.397 . S
C2453 C2458 1.363 . S
C2454 H2431 0.950 . S
C2454 C2453 1.397 . S
C2454 C2455 1.334 . S
C2455 H2432 0.950 . S
C2455 C2454 1.334 . S
C2455 C2456 1.287 . S
C2456 C2455 1.287 . S
C2456 C2457 1.524 . S
C2456 H2475 0.913 . S
C2457 H2433 0.950 . S
C2457 C2456 1.524 . S
C2457 C2458 1.415 . S
C2458 H2434 0.950 . S
C2458 C2453 1.363 . S
C2458 C2457 1.415 . S
C2459 H2435 0.951 . S
C2459 C2460 1.366 . S
C2459 C2461 1.388 . S
C2460 C2459 1.366 . S
C2460 C2464 1.385 . S
C2461 H2436 0.951 . S
C2461 C2459 1.388 . S
C2461 C2462 1.366 . S
C2462 C2461 1.366 . S
C2462 C2463 1.414 . S
C2462 C2465 1.499 . S
C2463 H2437 0.950 . S
C2463 C2462 1.414 . S
C2463 C2464 1.374 . S
C2464 H2438 0.950 . S
C2464 C2460 1.385 . S
C2464 C2463 1.374 . S
C2465 C2462 1.499 . S
C2465 C2466 1.373 . S
C2465 C2467 1.389 . S
C2466 H2439 0.950 . S
C2466 C2452 1.377 . S
C2466 C2465 1.373 . S
C2467 C2451 1.377 . S
C2467 C2465 1.389 . S
C2467 C2468 1.524 . S
C2468 C2467 1.524 . S
C2468 C2469 1.397 . S
C2468 C2473 1.363 . S
C2469 H2440 0.950 . S
C2469 C2468 1.397 . S
C2469 C2470 1.334 . S
C2470 H2441 0.950 . S
C2470 C2469 1.334 . S
C2470 C2471 1.287 . S
C2471 C2470 1.287 . S
C2471 C2472 1.524 . S
C2471 H2474 0.999 . S
C2472 H2442 0.950 . S
C2472 C2471 1.524 . S
C2472 C2473 1.415 . S
C2473 H2443 0.950 . S
C2473 C2468 1.363 . S
C2473 C2472 1.415 . S
H2474 C2471 0.999 . S
H2475 C2456 0.913 . S
H2476 C2494 0.951 . S
H2477 C2496 0.951 . S
H2478 C2498 0.950 . S
H2479 C2499 0.950 . S
H2480 C2501 0.950 . S
H2481 C2504 0.950 . S
H2482 C2505 0.950 . S
H2483 C2507 0.950 . S
H2484 C2508 0.950 . S
H2485 C2509 0.951 1_545 S
H2486 C2511 0.951 . S
H2487 C2513 0.950 . S
H2488 C2514 0.950 . S
H2489 C2516 0.950 . S
H2490 C2519 0.950 . S
H2491 C2520 0.950 . S
H2492 C2522 0.949 1_554 S
H2493 C2523 0.950 . S
C2494 H2476 0.951 . S
C2494 C2495 1.366 . S
C2494 C2496 1.388 . S
C2495 C2494 1.366 . S
C2495 C2499 1.385 . S
C2496 H2477 0.951 . S
C2496 C2494 1.388 . S
C2496 C2497 1.366 . S
C2497 C2496 1.366 . S
C2497 C2498 1.414 . S
C2497 C2500 1.499 . S
C2498 H2478 0.950 . S
C2498 C2497 1.414 . S
C2498 C2499 1.374 . S
C2499 H2479 0.950 . S
C2499 C2495 1.385 . S
C2499 C2498 1.374 . S
C2500 C2497 1.499 . S
C2500 C2501 1.373 . S
C2500 C2502 1.389 . S
C2501 H2480 0.950 . S
C2501 C2500 1.373 . S
C2501 C2517 1.377 . S
C2502 C2500 1.389 . S
C2502 C2503 1.524 . S
C2502 C2516 1.377 . S
C2503 C2502 1.524 . S
C2503 C2504 1.397 . S
C2503 C2508 1.363 . S
C2504 H2481 0.950 . S
C2504 C2503 1.397 . S
C2504 C2505 1.334 . S
C2505 H2482 0.950 . S
C2505 C2504 1.334 . S
C2505 C2506 1.287 . S
C2506 C2505 1.287 . S
C2506 C2507 1.524 . S
C2506 H2525 0.913 . S
C2507 H2483 0.950 . S
C2507 C2506 1.524 . S
C2507 C2508 1.415 . S
C2508 H2484 0.950 . S
C2508 C2503 1.363 . S
C2508 C2507 1.415 . S
C2509 H2485 0.951 1_565 S
C2509 C2510 1.366 . S
C2509 C2511 1.388 . S
C2510 C2509 1.366 . S
C2510 C2514 1.385 . S
C2511 H2486 0.951 . S
C2511 C2509 1.388 . S
C2511 C2512 1.366 . S
C2512 C2511 1.366 . S
C2512 C2513 1.414 . S
C2512 C2515 1.499 . S
C2513 H2487 0.950 . S
C2513 C2512 1.414 . S
C2513 C2514 1.374 . S
C2514 H2488 0.950 . S
C2514 C2510 1.385 . S
C2514 C2513 1.374 . S
C2515 C2512 1.499 . S
C2515 C2516 1.373 . S
C2515 C2517 1.389 . S
C2516 H2489 0.950 . S
C2516 C2502 1.377 . S
C2516 C2515 1.373 . S
C2517 C2501 1.377 . S
C2517 C2515 1.389 . S
C2517 C2518 1.524 . S
C2518 C2517 1.524 . S
C2518 C2519 1.397 . S
C2518 C2523 1.363 . S
C2519 H2490 0.950 . S
C2519 C2518 1.397 . S
C2519 C2520 1.334 1_556 S
C2520 H2491 0.950 . S
C2520 C2519 1.334 1_554 S
C2520 C2521 1.287 . S
C2521 C2520 1.287 . S
C2521 C2522 1.524 1_554 S
C2521 H2524 0.999 . S
C2522 H2492 0.949 1_556 S
C2522 C2521 1.524 1_556 S
C2522 C2523 1.415 . S
C2523 H2493 0.950 . S
C2523 C2518 1.363 . S
C2523 C2522 1.415 . S
H2524 C2521 0.999 . S
H2525 C2506 0.913 . S
H2526 C2544 0.951 . S
H2527 C2546 0.951 . S
H2528 C2548 0.950 . S
H2529 C2549 0.950 . S
H2530 C2551 0.950 . S
H2531 C2554 0.950 . S
H2532 C2555 0.950 . S
H2533 C2557 0.950 . S
H2534 C2558 0.950 . S
H2535 C2559 0.951 . S
H2536 C2561 0.951 . S
H2537 C2563 0.950 . S
H2538 C2564 0.950 . S
H2539 C2566 0.950 . S
H2540 C2569 0.950 . S
H2541 C2570 0.950 . S
H2542 C2572 0.950 . S
H2543 C2573 0.950 . S
C2544 H2526 0.951 . S
C2544 C2545 1.366 . S
C2544 C2546 1.388 . S
C2545 C2544 1.366 . S
C2545 C2549 1.385 . S
C2546 H2527 0.951 . S
C2546 C2544 1.388 . S
C2546 C2547 1.366 . S
C2547 C2546 1.366 . S
C2547 C2548 1.414 . S
C2547 C2550 1.499 . S
C2548 H2528 0.950 . S
C2548 C2547 1.414 . S
C2548 C2549 1.374 . S
C2549 H2529 0.950 . S
C2549 C2545 1.385 . S
C2549 C2548 1.374 . S
C2550 C2547 1.499 . S
C2550 C2551 1.373 . S
C2550 C2552 1.389 . S
C2551 H2530 0.950 . S
C2551 C2550 1.373 . S
C2551 C2567 1.377 . S
C2552 C2550 1.389 . S
C2552 C2553 1.524 . S
C2552 C2566 1.377 . S
C2553 C2552 1.524 . S
C2553 C2554 1.397 . S
C2553 C2558 1.363 . S
C2554 H2531 0.950 . S
C2554 C2553 1.397 . S
C2554 C2555 1.334 . S
C2555 H2532 0.950 . S
C2555 C2554 1.334 . S
C2555 C2556 1.287 . S
C2556 C2555 1.287 . S
C2556 C2557 1.524 . S
C2556 H2575 0.913 . S
C2557 H2533 0.950 . S
C2557 C2556 1.524 . S
C2557 C2558 1.415 . S
C2558 H2534 0.950 . S
C2558 C2553 1.363 . S
C2558 C2557 1.415 . S
C2559 H2535 0.951 . S
C2559 C2560 1.366 . S
C2559 C2561 1.388 . S
C2560 C2559 1.366 . S
C2560 C2564 1.385 . S
C2561 H2536 0.951 . S
C2561 C2559 1.388 . S
C2561 C2562 1.366 . S
C2562 C2561 1.366 . S
C2562 C2563 1.414 . S
C2562 C2565 1.499 . S
C2563 H2537 0.950 . S
C2563 C2562 1.414 . S
C2563 C2564 1.374 . S
C2564 H2538 0.950 . S
C2564 C2560 1.385 . S
C2564 C2563 1.374 . S
C2565 C2562 1.499 . S
C2565 C2566 1.373 . S
C2565 C2567 1.389 . S
C2566 H2539 0.950 . S
C2566 C2552 1.377 . S
C2566 C2565 1.373 . S
C2567 C2551 1.377 . S
C2567 C2565 1.389 . S
C2567 C2568 1.524 . S
C2568 C2567 1.524 . S
C2568 C2569 1.397 . S
C2568 C2573 1.363 . S
C2569 H2540 0.950 . S
C2569 C2568 1.397 . S
C2569 C2570 1.334 . S
C2570 H2541 0.950 . S
C2570 C2569 1.334 . S
C2570 C2571 1.287 . S
C2571 C2570 1.287 . S
C2571 C2572 1.524 . S
C2571 H2574 0.999 . S
C2572 H2542 0.950 . S
C2572 C2571 1.524 . S
C2572 C2573 1.415 . S
C2573 H2543 0.950 . S
C2573 C2568 1.363 . S
C2573 C2572 1.415 . S
H2574 C2571 0.999 . S
H2575 C2556 0.913 . S
H2576 C2594 0.951 . S
H2577 C2596 0.951 . S
H2578 C2598 0.950 . S
H2579 C2599 0.950 . S
H2580 C2601 0.950 . S
H2581 C2604 0.950 . S
H2582 C2605 0.950 . S
H2583 C2607 0.950 . S
H2584 C2608 0.950 . S
H2585 C2609 0.951 . S
H2586 C2611 0.951 . S
H2587 C2613 0.916 1_565 S
H2588 C2614 0.950 . S
H2589 C2616 0.950 . S
H2590 C2619 0.950 . S
H2591 C2620 0.950 . S
H2592 C2622 0.950 . S
H2593 C2623 0.950 . S
C2594 H2576 0.951 . S
C2594 C2595 1.366 1_565 S
C2594 C2596 1.388 . S
C2595 C2594 1.366 1_545 S
C2595 C2599 1.385 . S
C2596 H2577 0.951 . S
C2596 C2594 1.388 . S
C2596 C2597 1.366 1_565 S
C2597 C2596 1.366 1_545 S
C2597 C2598 1.414 . S
C2597 C2600 1.499 . S
C2598 H2578 0.950 . S
C2598 C2597 1.414 . S
C2598 C2599 1.374 . S
C2599 H2579 0.950 . S
C2599 C2595 1.385 . S
C2599 C2598 1.374 . S
C2600 C2597 1.499 . S
C2600 C2601 1.373 . S
C2600 C2602 1.389 1_545 S
C2601 H2580 0.950 . S
C2601 C2600 1.373 . S
C2601 C2617 1.377 . S
C2602 C2600 1.389 1_565 S
C2602 C2603 1.524 . S
C2602 C2616 1.377 . S
C2603 C2602 1.524 . S
C2603 C2604 1.397 . S
C2603 C2608 1.363 . S
C2604 H2581 0.950 . S
C2604 C2603 1.397 . S
C2604 C2605 1.334 . S
C2605 H2582 0.950 . S
C2605 C2604 1.334 . S
C2605 C2606 1.287 . S
C2606 C2605 1.287 . S
C2606 C2607 1.524 . S
C2606 H2625 0.913 . S
C2607 H2583 0.950 . S
C2607 C2606 1.524 . S
C2607 C2608 1.415 . S
C2608 H2584 0.950 . S
C2608 C2603 1.363 . S
C2608 C2607 1.415 . S
C2609 H2585 0.951 . S
C2609 C2610 1.366 . S
C2609 C2611 1.388 . S
C2610 C2609 1.366 . S
C2610 C2614 1.385 . S
C2611 H2586 0.951 . S
C2611 C2609 1.388 . S
C2611 C2612 1.366 . S
C2612 C2611 1.366 . S
C2612 C2613 1.414 . S
C2612 C2615 1.499 . S
C2613 H2587 0.916 1_545 S
C2613 C2612 1.414 . S
C2613 C2614 1.374 . S
C2614 H2588 0.950 . S
C2614 C2610 1.385 . S
C2614 C2613 1.374 . S
C2615 C2612 1.499 . S
C2615 C2616 1.373 1_545 S
C2615 C2617 1.389 . S
C2616 H2589 0.950 . S
C2616 C2602 1.377 . S
C2616 C2615 1.373 1_565 S
C2617 C2601 1.377 . S
C2617 C2615 1.389 . S
C2617 C2618 1.524 . S
C2618 C2617 1.524 . S
C2618 C2619 1.397 . S
C2618 C2623 1.363 . S
C2619 H2590 0.950 . S
C2619 C2618 1.397 . S
C2619 C2620 1.334 . S
C2620 H2591 0.950 . S
C2620 C2619 1.334 . S
C2620 C2621 1.287 . S
C2621 C2620 1.287 . S
C2621 C2622 1.524 . S
C2621 H2624 0.999 . S
C2622 H2592 0.950 . S
C2622 C2621 1.524 . S
C2622 C2623 1.415 . S
C2623 H2593 0.950 . S
C2623 C2618 1.363 . S
C2623 C2622 1.415 . S
H2624 C2621 0.999 . S
H2625 C2606 0.913 . S
H2626 C2644 0.951 . S
H2627 C2646 0.951 . S
H2628 C2648 0.950 . S
H2629 C2649 0.950 . S
H2630 C2651 0.950 . S
H2631 C2654 0.950 . S
H2632 C2655 0.950 . S
H2633 C2657 0.950 . S
H2634 C2658 0.950 . S
H2635 C2659 0.951 . S
H2636 C2661 0.951 . S
H2637 C2663 0.950 . S
H2638 C2664 0.950 . S
H2639 C2666 0.950 . S
H2640 C2669 0.950 . S
H2641 C2670 0.950 . S
H2642 C2672 0.950 . S
H2643 C2673 0.950 . S
C2644 H2626 0.951 . S
C2644 C2645 1.366 . S
C2644 C2646 1.388 . S
C2645 C2644 1.366 . S
C2645 C2649 1.385 . S
C2646 H2627 0.951 . S
C2646 C2644 1.388 . S
C2646 C2647 1.366 . S
C2647 C2646 1.366 . S
C2647 C2648 1.414 . S
C2647 C2650 1.499 . S
C2648 H2628 0.950 . S
C2648 C2647 1.414 . S
C2648 C2649 1.374 . S
C2649 H2629 0.950 . S
C2649 C2645 1.385 . S
C2649 C2648 1.374 . S
C2650 C2647 1.499 . S
C2650 C2651 1.373 . S
C2650 C2652 1.389 . S
C2651 H2630 0.950 . S
C2651 C2650 1.373 . S
C2651 C2667 1.377 . S
C2652 C2650 1.389 . S
C2652 C2653 1.524 . S
C2652 C2666 1.377 . S
C2653 C2652 1.524 . S
C2653 C2654 1.397 . S
C2653 C2658 1.363 . S
C2654 H2631 0.950 . S
C2654 C2653 1.397 . S
C2654 C2655 1.334 . S
C2655 H2632 0.950 . S
C2655 C2654 1.334 . S
C2655 C2656 1.287 . S
C2656 C2655 1.287 . S
C2656 C2657 1.524 . S
C2656 H2675 0.913 . S
C2657 H2633 0.950 . S
C2657 C2656 1.524 . S
C2657 C2658 1.415 . S
C2658 H2634 0.950 . S
C2658 C2653 1.363 . S
C2658 C2657 1.415 . S
C2659 H2635 0.951 . S
C2659 C2660 1.366 . S
C2659 C2661 1.388 . S
C2660 C2659 1.366 . S
C2660 C2664 1.385 . S
C2661 H2636 0.951 . S
C2661 C2659 1.388 . S
C2661 C2662 1.366 . S
C2662 C2661 1.366 . S
C2662 C2663 1.414 . S
C2662 C2665 1.499 . S
C2663 H2637 0.950 . S
C2663 C2662 1.414 . S
C2663 C2664 1.374 . S
C2664 H2638 0.950 . S
C2664 C2660 1.385 . S
C2664 C2663 1.374 . S
C2665 C2662 1.499 . S
C2665 C2666 1.373 . S
C2665 C2667 1.389 . S
C2666 H2639 0.950 . S
C2666 C2652 1.377 . S
C2666 C2665 1.373 . S
C2667 C2651 1.377 . S
C2667 C2665 1.389 . S
C2667 C2668 1.524 . S
C2668 C2667 1.524 . S
C2668 C2669 1.397 . S
C2668 C2673 1.363 . S
C2669 H2640 0.950 . S
C2669 C2668 1.397 . S
C2669 C2670 1.334 . S
C2670 H2641 0.950 . S
C2670 C2669 1.334 . S
C2670 C2671 1.287 . S
C2671 C2670 1.287 . S
C2671 C2672 1.524 . S
C2671 H2674 0.999 . S
C2672 H2642 0.950 . S
C2672 C2671 1.524 . S
C2672 C2673 1.415 . S
C2673 H2643 0.950 . S
C2673 C2668 1.363 . S
C2673 C2672 1.415 . S
H2674 C2671 0.999 . S
H2675 C2656 0.913 . S
H2676 C2694 0.951 . S
H2677 C2696 0.951 . S
H2678 C2698 0.950 . S
H2679 C2699 0.950 . S
H2680 C2701 0.950 1_565 S
H2681 C2704 0.950 . S
H2682 C2705 0.950 . S
H2683 C2707 0.950 . S
H2684 C2708 0.950 . S
H2685 C2709 0.951 . S
H2686 C2711 0.951 . S
H2687 C2713 0.950 . S
H2688 C2714 0.950 . S
H2689 C2716 0.950 . S
H2690 C2719 0.950 . S
H2691 C2720 0.950 . S
H2692 C2722 0.950 . S
H2693 C2723 0.950 . S
C2694 H2676 0.951 . S
C2694 C2695 1.366 . S
C2694 C2696 1.388 . S
C2695 C2694 1.366 . S
C2695 C2699 1.385 . S
C2696 H2677 0.951 . S
C2696 C2694 1.388 . S
C2696 C2697 1.366 . S
C2697 C2696 1.366 . S
C2697 C2698 1.414 . S
C2697 C2700 1.499 . S
C2698 H2678 0.950 . S
C2698 C2697 1.414 . S
C2698 C2699 1.374 . S
C2699 H2679 0.950 . S
C2699 C2695 1.385 . S
C2699 C2698 1.374 . S
C2700 C2697 1.499 . S
C2700 C2701 1.373 . S
C2700 C2702 1.389 . S
C2701 H2680 0.950 1_545 S
C2701 C2700 1.373 . S
C2701 C2717 1.377 . S
C2702 C2700 1.389 . S
C2702 C2703 1.524 . S
C2702 C2716 1.377 . S
C2703 C2702 1.524 . S
C2703 C2704 1.397 . S
C2703 C2708 1.363 . S
C2704 H2681 0.950 . S
C2704 C2703 1.397 . S
C2704 C2705 1.334 . S
C2705 H2682 0.950 . S
C2705 C2704 1.334 . S
C2705 C2706 1.287 . S
C2706 C2705 1.287 . S
C2706 C2707 1.524 . S
C2706 H2725 0.913 . S
C2707 H2683 0.950 . S
C2707 C2706 1.524 . S
C2707 C2708 1.415 . S
C2708 H2684 0.950 . S
C2708 C2703 1.363 . S
C2708 C2707 1.415 . S
C2709 H2685 0.951 . S
C2709 C2710 1.366 . S
C2709 C2711 1.388 . S
C2710 C2709 1.366 . S
C2710 C2714 1.385 . S
C2711 H2686 0.951 . S
C2711 C2709 1.388 . S
C2711 C2712 1.366 . S
C2712 C2711 1.366 . S
C2712 C2713 1.414 . S
C2712 C2715 1.499 . S
C2713 H2687 0.950 . S
C2713 C2712 1.414 . S
C2713 C2714 1.374 . S
C2714 H2688 0.950 . S
C2714 C2710 1.385 . S
C2714 C2713 1.374 . S
C2715 C2712 1.499 . S
C2715 C2716 1.373 . S
C2715 C2717 1.389 . S
C2716 H2689 0.950 . S
C2716 C2702 1.377 . S
C2716 C2715 1.373 . S
C2717 C2701 1.377 . S
C2717 C2715 1.389 . S
C2717 C2718 1.524 1_545 S
C2718 C2717 1.524 1_565 S
C2718 C2719 1.397 . S
C2718 C2723 1.363 . S
C2719 H2690 0.950 . S
C2719 C2718 1.397 . S
C2719 C2720 1.334 . S
C2720 H2691 0.950 . S
C2720 C2719 1.334 . S
C2720 C2721 1.287 . S
C2721 C2720 1.287 . S
C2721 C2722 1.524 . S
C2721 H2724 0.999 . S
C2722 H2692 0.950 . S
C2722 C2721 1.524 . S
C2722 C2723 1.415 . S
C2723 H2693 0.950 . S
C2723 C2718 1.363 . S
C2723 C2722 1.415 . S
H2724 C2721 0.999 . S
H2725 C2706 0.913 . S
H2726 C2744 0.951 . S
H2727 C2746 0.951 . S
H2728 C2748 0.950 . S
H2729 C2749 0.950 . S
H2730 C2751 0.950 . S
H2731 C2754 0.950 . S
H2732 C2755 0.950 . S
H2733 C2757 0.950 . S
H2734 C2758 0.950 . S
H2735 C2759 0.951 . S
H2736 C2761 0.951 . S
H2737 C2763 0.950 . S
H2738 C2764 0.950 . S
H2739 C2766 0.950 . S
H2740 C2769 0.950 . S
H2741 C2770 0.950 . S
H2742 C2772 0.950 . S
H2743 C2773 0.950 . S
C2744 H2726 0.951 . S
C2744 C2745 1.366 . S
C2744 C2746 1.388 . S
C2745 C2744 1.366 . S
C2745 C2749 1.385 . S
C2746 H2727 0.951 . S
C2746 C2744 1.388 . S
C2746 C2747 1.366 . S
C2747 C2746 1.366 . S
C2747 C2748 1.414 . S
C2747 C2750 1.499 . S
C2748 H2728 0.950 . S
C2748 C2747 1.414 . S
C2748 C2749 1.374 . S
C2749 H2729 0.950 . S
C2749 C2745 1.385 . S
C2749 C2748 1.374 . S
C2750 C2747 1.499 . S
C2750 C2751 1.373 . S
C2750 C2752 1.389 . S
C2751 H2730 0.950 . S
C2751 C2750 1.373 . S
C2751 C2767 1.377 . S
C2752 C2750 1.389 . S
C2752 C2753 1.524 . S
C2752 C2766 1.377 . S
C2753 C2752 1.524 . S
C2753 C2754 1.397 . S
C2753 C2758 1.363 . S
C2754 H2731 0.950 . S
C2754 C2753 1.397 . S
C2754 C2755 1.334 . S
C2755 H2732 0.950 . S
C2755 C2754 1.334 . S
C2755 C2756 1.287 . S
C2756 C2755 1.287 . S
C2756 C2757 1.524 . S
C2756 H2775 0.913 . S
C2757 H2733 0.950 . S
C2757 C2756 1.524 . S
C2757 C2758 1.415 . S
C2758 H2734 0.950 . S
C2758 C2753 1.363 . S
C2758 C2757 1.415 . S
C2759 H2735 0.951 . S
C2759 C2760 1.366 . S
C2759 C2761 1.388 . S
C2760 C2759 1.366 . S
C2760 C2764 1.385 . S
C2761 H2736 0.951 . S
C2761 C2759 1.388 . S
C2761 C2762 1.366 . S
C2762 C2761 1.366 . S
C2762 C2763 1.414 . S
C2762 C2765 1.499 . S
C2763 H2737 0.950 . S
C2763 C2762 1.414 . S
C2763 C2764 1.374 . S
C2764 H2738 0.950 . S
C2764 C2760 1.385 . S
C2764 C2763 1.374 . S
C2765 C2762 1.499 . S
C2765 C2766 1.373 . S
C2765 C2767 1.389 . S
C2766 H2739 0.950 . S
C2766 C2752 1.377 . S
C2766 C2765 1.373 . S
C2767 C2751 1.377 . S
C2767 C2765 1.389 . S
C2767 C2768 1.524 . S
C2768 C2767 1.524 . S
C2768 C2769 1.397 . S
C2768 C2773 1.363 . S
C2769 H2740 0.950 . S
C2769 C2768 1.397 . S
C2769 C2770 1.334 . S
C2770 H2741 0.950 . S
C2770 C2769 1.334 . S
C2770 C2771 1.287 . S
C2771 C2770 1.287 . S
C2771 C2772 1.524 . S
C2771 H2774 0.999 . S
C2772 H2742 0.950 . S
C2772 C2771 1.524 . S
C2772 C2773 1.415 . S
C2773 H2743 0.950 . S
C2773 C2768 1.363 . S
C2773 C2772 1.415 . S
H2774 C2771 0.999 . S
H2775 C2756 0.913 . S
H2776 C2794 0.951 . S
H2777 C2796 0.951 . S
H2778 C2798 0.950 . S
H2779 C2799 0.950 . S
H2780 C2801 0.950 . S
H2781 C2804 0.950 . S
H2782 C2805 0.950 . S
H2783 C2807 0.950 . S
H2784 C2808 0.950 . S
H2785 C2809 0.951 . S
H2786 C2811 0.951 . S
H2787 C2813 0.950 1_565 S
H2788 C2814 0.950 . S
H2789 C2816 0.950 . S
H2790 C2819 0.950 . S
H2791 C2820 0.950 . S
H2792 C2822 0.950 . S
H2793 C2823 0.950 . S
C2794 H2776 0.951 . S
C2794 C2795 1.366 . S
C2794 C2796 1.388 . S
C2795 C2794 1.366 . S
C2795 C2799 1.385 1_565 S
C2796 H2777 0.951 . S
C2796 C2794 1.388 . S
C2796 C2797 1.366 1_565 S
C2797 C2796 1.366 1_545 S
C2797 C2798 1.414 . S
C2797 C2800 1.499 . S
C2798 H2778 0.950 . S
C2798 C2797 1.414 . S
C2798 C2799 1.374 . S
C2799 H2779 0.950 . S
C2799 C2795 1.385 1_545 S
C2799 C2798 1.374 . S
C2800 C2797 1.499 . S
C2800 C2801 1.373 . S
C2800 C2802 1.389 1_545 S
C2801 H2780 0.950 . S
C2801 C2800 1.373 . S
C2801 C2817 1.377 . S
C2802 C2800 1.389 1_565 S
C2802 C2803 1.524 . S
C2802 C2816 1.377 . S
C2803 C2802 1.524 . S
C2803 C2804 1.397 . S
C2803 C2808 1.363 . S
C2804 H2781 0.950 . S
C2804 C2803 1.397 . S
C2804 C2805 1.334 . S
C2805 H2782 0.950 . S
C2805 C2804 1.334 . S
C2805 C2806 1.287 . S
C2806 C2805 1.287 . S
C2806 C2807 1.524 . S
C2806 H2825 0.913 . S
C2807 H2783 0.950 . S
C2807 C2806 1.524 . S
C2807 C2808 1.415 . S
C2808 H2784 0.950 . S
C2808 C2803 1.363 . S
C2808 C2807 1.415 . S
C2809 H2785 0.951 . S
C2809 C2810 1.366 . S
C2809 C2811 1.388 . S
C2810 C2809 1.366 . S
C2810 C2814 1.385 . S
C2811 H2786 0.951 . S
C2811 C2809 1.388 . S
C2811 C2812 1.366 . S
C2812 C2811 1.366 . S
C2812 C2813 1.414 . S
C2812 C2815 1.499 . S
C2813 H2787 0.950 1_545 S
C2813 C2812 1.414 . S
C2813 C2814 1.374 . S
C2814 H2788 0.950 . S
C2814 C2810 1.385 . S
C2814 C2813 1.374 . S
C2815 C2812 1.499 . S
C2815 C2816 1.373 1_545 S
C2815 C2817 1.389 . S
C2816 H2789 0.950 . S
C2816 C2802 1.377 . S
C2816 C2815 1.373 1_565 S
C2817 C2801 1.377 . S
C2817 C2815 1.389 . S
C2817 C2818 1.524 . S
C2818 C2817 1.524 . S
C2818 C2819 1.397 . S
C2818 C2823 1.363 . S
C2819 H2790 0.950 . S
C2819 C2818 1.397 . S
C2819 C2820 1.334 . S
C2820 H2791 0.950 . S
C2820 C2819 1.334 . S
C2820 C2821 1.287 . S
C2821 C2820 1.287 . S
C2821 C2822 1.524 . S
C2821 H2824 0.999 . S
C2822 H2792 0.950 . S
C2822 C2821 1.524 . S
C2822 C2823 1.415 . S
C2823 H2793 0.950 . S
C2823 C2818 1.363 . S
C2823 C2822 1.415 . S
H2824 C2821 0.999 . S
H2825 C2806 0.913 . S
H2826 C2844 0.951 . S
H2827 C2846 0.951 . S
H2828 C2848 0.950 . S
H2829 C2849 0.950 . S
H2830 C2851 0.950 . S
H2831 C2854 0.950 . S
H2832 C2855 0.950 . S
H2833 C2857 0.950 . S
H2834 C2858 0.950 . S
H2835 C2859 0.951 . S
H2836 C2861 0.951 . S
H2837 C2863 0.950 . S
H2838 C2864 0.950 . S
H2839 C2866 0.950 . S
H2840 C2869 0.950 . S
H2841 C2870 0.950 . S
H2842 C2872 0.950 . S
H2843 C2873 0.950 . S
C2844 H2826 0.951 . S
C2844 C2845 1.366 . S
C2844 C2846 1.388 . S
C2845 C2844 1.366 . S
C2845 C2849 1.385 . S
C2846 H2827 0.951 . S
C2846 C2844 1.388 . S
C2846 C2847 1.366 . S
C2847 C2846 1.366 . S
C2847 C2848 1.414 . S
C2847 C2850 1.499 . S
C2848 H2828 0.950 . S
C2848 C2847 1.414 . S
C2848 C2849 1.374 . S
C2849 H2829 0.950 . S
C2849 C2845 1.385 . S
C2849 C2848 1.374 . S
C2850 C2847 1.499 . S
C2850 C2851 1.373 . S
C2850 C2852 1.389 . S
C2851 H2830 0.950 . S
C2851 C2850 1.373 . S
C2851 C2867 1.377 . S
C2852 C2850 1.389 . S
C2852 C2853 1.524 . S
C2852 C2866 1.377 . S
C2853 C2852 1.524 . S
C2853 C2854 1.397 . S
C2853 C2858 1.363 . S
C2854 H2831 0.950 . S
C2854 C2853 1.397 . S
C2854 C2855 1.334 . S
C2855 H2832 0.950 . S
C2855 C2854 1.334 . S
C2855 C2856 1.287 . S
C2856 C2855 1.287 . S
C2856 C2857 1.524 . S
C2856 H2875 0.913 . S
C2857 H2833 0.950 . S
C2857 C2856 1.524 . S
C2857 C2858 1.415 . S
C2858 H2834 0.950 . S
C2858 C2853 1.363 . S
C2858 C2857 1.415 . S
C2859 H2835 0.951 . S
C2859 C2860 1.366 . S
C2859 C2861 1.388 . S
C2860 C2859 1.366 . S
C2860 C2864 1.385 . S
C2861 H2836 0.951 . S
C2861 C2859 1.388 . S
C2861 C2862 1.366 . S
C2862 C2861 1.366 . S
C2862 C2863 1.414 . S
C2862 C2865 1.499 . S
C2863 H2837 0.950 . S
C2863 C2862 1.414 . S
C2863 C2864 1.374 . S
C2864 H2838 0.950 . S
C2864 C2860 1.385 . S
C2864 C2863 1.374 . S
C2865 C2862 1.499 . S
C2865 C2866 1.373 . S
C2865 C2867 1.389 . S
C2866 H2839 0.950 . S
C2866 C2852 1.377 . S
C2866 C2865 1.373 . S
C2867 C2851 1.377 . S
C2867 C2865 1.389 . S
C2867 C2868 1.524 . S
C2868 C2867 1.524 . S
C2868 C2869 1.397 . S
C2868 C2873 1.363 . S
C2869 H2840 0.950 . S
C2869 C2868 1.397 . S
C2869 C2870 1.334 . S
C2870 H2841 0.950 . S
C2870 C2869 1.334 . S
C2870 C2871 1.287 . S
C2871 C2870 1.287 . S
C2871 C2872 1.524 . S
C2871 H2874 0.999 . S
C2872 H2842 0.950 . S
C2872 C2871 1.524 . S
C2872 C2873 1.415 . S
C2873 H2843 0.950 . S
C2873 C2868 1.363 . S
C2873 C2872 1.415 . S
H2874 C2871 0.999 . S
H2875 C2856 0.913 . S
H2876 C2894 0.932 1_565 S
H2877 C2896 0.951 1_565 S
H2878 C2898 0.950 . S
H2879 C2899 0.950 . S
H2880 C2901 0.950 . S
H2881 C2904 0.950 . S
H2882 C2905 0.950 . S
H2883 C2907 0.950 . S
H2884 C2908 0.950 . S
H2885 C2909 0.951 . S
H2886 C2911 0.951 . S
H2887 C2913 0.950 . S
H2888 C2914 0.950 . S
H2889 C2916 0.950 . S
H2890 C2919 0.950 . S
H2891 C2920 0.950 . S
H2892 C2922 0.950 . S
H2893 C2923 0.950 . S
C2894 H2876 0.932 1_545 S
C2894 C2895 1.366 . S
C2894 C2896 1.388 . S
C2895 C2894 1.366 . S
C2895 C2899 1.385 . S
C2896 H2877 0.951 1_545 S
C2896 C2894 1.388 . S
C2896 C2897 1.366 . S
C2897 C2896 1.366 . S
C2897 C2898 1.414 . S
C2897 C2900 1.499 . S
C2898 H2878 0.950 . S
C2898 C2897 1.414 . S
C2898 C2899 1.374 . S
C2899 H2879 0.950 . S
C2899 C2895 1.385 . S
C2899 C2898 1.374 . S
C2900 C2897 1.499 . S
C2900 C2901 1.373 1_545 S
C2900 C2902 1.389 . S
C2901 H2880 0.950 . S
C2901 C2900 1.373 1_565 S
C2901 C2917 1.377 . S
C2902 C2900 1.389 . S
C2902 C2903 1.524 . S
C2902 C2916 1.377 . S
C2903 C2902 1.524 . S
C2903 C2904 1.397 . S
C2903 C2908 1.363 . S
C2904 H2881 0.950 . S
C2904 C2903 1.397 . S
C2904 C2905 1.334 . S
C2905 H2882 0.950 . S
C2905 C2904 1.334 . S
C2905 C2906 1.287 . S
C2906 C2905 1.287 . S
C2906 C2907 1.524 . S
C2906 H2925 0.913 . S
C2907 H2883 0.950 . S
C2907 C2906 1.524 . S
C2907 C2908 1.415 . S
C2908 H2884 0.950 . S
C2908 C2903 1.363 . S
C2908 C2907 1.415 . S
C2909 H2885 0.951 . S
C2909 C2910 1.366 1_545 S
C2909 C2911 1.388 . S
C2910 C2909 1.366 1_565 S
C2910 C2914 1.385 . S
C2911 H2886 0.951 . S
C2911 C2909 1.388 . S
C2911 C2912 1.348 1_545 S
C2912 C2911 1.348 1_565 S
C2912 C2913 1.431 . S
C2912 C2915 1.500 1_565 S
C2913 H2887 0.950 . S
C2913 C2912 1.431 . S
C2913 C2914 1.374 . S
C2914 H2888 0.950 . S
C2914 C2910 1.385 . S
C2914 C2913 1.374 . S
C2915 C2912 1.500 1_545 S
C2915 C2916 1.383 . S
C2915 C2917 1.384 1_545 S
C2916 H2889 0.950 . S
C2916 C2902 1.377 . S
C2916 C2915 1.383 . S
C2917 C2901 1.377 . S
C2917 C2915 1.384 1_565 S
C2917 C2918 1.524 . S
C2918 C2917 1.524 . S
C2918 C2919 1.397 . S
C2918 C2923 1.363 . S
C2919 H2890 0.950 . S
C2919 C2918 1.397 . S
C2919 C2920 1.334 . S
C2920 H2891 0.950 . S
C2920 C2919 1.334 . S
C2920 C2921 1.287 . S
C2921 C2920 1.287 . S
C2921 C2922 1.524 . S
C2921 H2924 0.999 . S
C2922 H2892 0.950 . S
C2922 C2921 1.524 . S
C2922 C2923 1.415 . S
C2923 H2893 0.950 . S
C2923 C2918 1.363 . S
C2923 C2922 1.415 . S
H2924 C2921 0.999 . S
H2925 C2906 0.913 . S
H2926 C2944 0.951 . S
H2927 C2946 0.951 . S
H2928 C2948 0.950 . S
H2929 C2949 0.950 . S
H2930 C2951 0.950 . S
H2931 C2954 0.950 . S
H2932 C2955 0.950 . S
H2933 C2957 0.950 . S
H2934 C2958 0.950 . S
H2935 C2959 0.951 . S
H2936 C2961 0.951 . S
H2937 C2963 0.950 . S
H2938 C2964 0.950 . S
H2939 C2966 0.950 . S
H2940 C2969 0.950 . S
H2941 C2970 0.950 . S
H2942 C2972 0.950 . S
H2943 C2973 0.950 . S
C2944 H2926 0.951 . S
C2944 C2945 1.366 . S
C2944 C2946 1.388 . S
C2945 C2944 1.366 . S
C2945 C2949 1.385 . S
C2946 H2927 0.951 . S
C2946 C2944 1.388 . S
C2946 C2947 1.366 . S
C2947 C2946 1.366 . S
C2947 C2948 1.414 . S
C2947 C2950 1.499 . S
C2948 H2928 0.950 . S
C2948 C2947 1.414 . S
C2948 C2949 1.374 . S
C2949 H2929 0.950 . S
C2949 C2945 1.385 . S
C2949 C2948 1.374 . S
C2950 C2947 1.499 . S
C2950 C2951 1.373 . S
C2950 C2952 1.389 . S
C2951 H2930 0.950 . S
C2951 C2950 1.373 . S
C2951 C2967 1.377 . S
C2952 C2950 1.389 . S
C2952 C2953 1.524 . S
C2952 C2966 1.377 . S
C2953 C2952 1.524 . S
C2953 C2954 1.397 . S
C2953 C2958 1.363 . S
C2954 H2931 0.950 . S
C2954 C2953 1.397 . S
C2954 C2955 1.334 . S
C2955 H2932 0.950 . S
C2955 C2954 1.334 . S
C2955 C2956 1.287 . S
C2956 C2955 1.287 . S
C2956 C2957 1.524 . S
C2956 H2975 0.913 . S
C2957 H2933 0.950 . S
C2957 C2956 1.524 . S
C2957 C2958 1.415 . S
C2958 H2934 0.950 . S
C2958 C2953 1.363 . S
C2958 C2957 1.415 . S
C2959 H2935 0.951 . S
C2959 C2960 1.366 . S
C2959 C2961 1.388 . S
C2960 C2959 1.366 . S
C2960 C2964 1.385 . S
C2961 H2936 0.951 . S
C2961 C2959 1.388 . S
C2961 C2962 1.366 . S
C2962 C2961 1.366 . S
C2962 C2963 1.414 . S
C2962 C2965 1.499 . S
C2963 H2937 0.950 . S
C2963 C2962 1.414 . S
C2963 C2964 1.374 . S
C2964 H2938 0.950 . S
C2964 C2960 1.385 . S
C2964 C2963 1.374 . S
C2965 C2962 1.499 . S
C2965 C2966 1.373 . S
C2965 C2967 1.389 . S
C2966 H2939 0.950 . S
C2966 C2952 1.377 . S
C2966 C2965 1.373 . S
C2967 C2951 1.377 . S
C2967 C2965 1.389 . S
C2967 C2968 1.524 . S
C2968 C2967 1.524 . S
C2968 C2969 1.397 . S
C2968 C2973 1.363 . S
C2969 H2940 0.950 . S
C2969 C2968 1.397 . S
C2969 C2970 1.334 . S
C2970 H2941 0.950 . S
C2970 C2969 1.334 . S
C2970 C2971 1.287 . S
C2971 C2970 1.287 . S
C2971 C2972 1.524 . S
C2971 H2974 0.999 . S
C2972 H2942 0.950 . S
C2972 C2971 1.524 . S
C2972 C2973 1.415 . S
C2973 H2943 0.950 . S
C2973 C2968 1.363 . S
C2973 C2972 1.415 . S
H2974 C2971 0.999 . S
H2975 C2956 0.913 . S
H2976 C2994 0.951 . S
H2977 C2996 0.933 1_556 S
H2978 C2998 0.950 . S
H2979 C2999 0.950 . S
H2980 C3001 0.950 . S
H2981 C3004 0.950 . S
H2982 C3005 0.950 . S
H2983 C3007 0.950 . S
H2984 C3008 0.950 . S
H2985 C3009 0.951 . S
H2986 C3011 0.951 . S
H2987 C3013 0.950 . S
H2988 C3014 0.950 . S
H2989 C3016 0.950 . S
H2990 C3019 0.950 . S
H2991 C3020 0.950 . S
H2992 C3022 0.950 . S
H2993 C3023 0.950 . S
C2994 H2976 0.951 . S
C2994 C2995 1.366 . S
C2994 C2996 1.397 . S
C2995 C2994 1.366 . S
C2995 C2999 1.385 . S
C2996 H2977 0.933 1_554 S
C2996 C2994 1.397 . S
C2996 C2997 1.375 . S
C2997 C2996 1.375 . S
C2997 C2998 1.414 . S
C2997 C3000 1.499 1_554 S
C2998 H2978 0.950 . S
C2998 C2997 1.414 . S
C2998 C2999 1.374 . S
C2999 H2979 0.950 . S
C2999 C2995 1.385 . S
C2999 C2998 1.374 . S
C3000 C2997 1.499 1_556 S
C3000 C3001 1.373 1_556 S
C3000 C3002 1.389 . S
C3001 H2980 0.950 . S
C3001 C3000 1.373 1_554 S
C3001 C3017 1.377 . S
C3002 C3000 1.389 . S
C3002 C3003 1.524 . S
C3002 C3016 1.377 . S
C3003 C3002 1.524 . S
C3003 C3004 1.397 . S
C3003 C3008 1.363 . S
C3004 H2981 0.950 . S
C3004 C3003 1.397 . S
C3004 C3005 1.334 . S
C3005 H2982 0.950 . S
C3005 C3004 1.334 . S
C3005 C3006 1.287 . S
C3006 C3005 1.287 . S
C3006 C3007 1.524 . S
C3006 H3025 0.913 . S
C3007 H2983 0.950 . S
C3007 C3006 1.524 . S
C3007 C3008 1.415 . S
C3008 H2984 0.950 . S
C3008 C3003 1.363 . S
C3008 C3007 1.415 . S
C3009 H2985 0.951 . S
C3009 C3010 1.366 . S
C3009 C3011 1.388 . S
C3010 C3009 1.366 . S
C3010 C3014 1.385 . S
C3011 H2986 0.951 . S
C3011 C3009 1.388 . S
C3011 C3012 1.366 . S
C3012 C3011 1.366 . S
C3012 C3013 1.414 . S
C3012 C3015 1.499 . S
C3013 H2987 0.950 . S
C3013 C3012 1.414 . S
C3013 C3014 1.374 . S
C3014 H2988 0.950 . S
C3014 C3010 1.385 . S
C3014 C3013 1.374 . S
C3015 C3012 1.499 . S
C3015 C3016 1.373 . S
C3015 C3017 1.389 1_556 S
C3016 H2989 0.950 . S
C3016 C3002 1.377 . S
C3016 C3015 1.373 . S
C3017 C3001 1.377 . S
C3017 C3015 1.389 1_554 S
C3017 C3018 1.524 . S
C3018 C3017 1.524 . S
C3018 C3019 1.397 . S
C3018 C3023 1.363 . S
C3019 H2990 0.950 . S
C3019 C3018 1.397 . S
C3019 C3020 1.334 . S
C3020 H2991 0.950 . S
C3020 C3019 1.334 . S
C3020 C3021 1.287 . S
C3021 C3020 1.287 . S
C3021 C3022 1.524 . S
C3021 H3024 0.999 . S
C3022 H2992 0.950 . S
C3022 C3021 1.524 . S
C3022 C3023 1.415 . S
C3023 H2993 0.950 . S
C3023 C3018 1.363 . S
C3023 C3022 1.415 . S
H3024 C3021 0.999 . S
H3025 C3006 0.913 . S
H3026 C3044 0.951 . S
H3027 C3046 0.951 . S
H3028 C3048 0.950 . S
H3029 C3049 0.950 . S
H3030 C3051 0.972 . S
H3031 C3054 0.950 . S
H3032 C3055 0.950 . S
H3033 C3057 0.950 . S
H3034 C3058 0.950 . S
H3035 C3059 0.951 . S
H3036 C3061 0.951 . S
H3037 C3063 0.950 . S
H3038 C3064 0.950 . S
H3039 C3066 0.950 . S
H3040 C3069 0.950 . S
H3041 C3070 0.950 . S
H3042 C3072 0.950 . S
H3043 C3073 0.950 1_554 S
C3044 H3026 0.951 . S
C3044 C3045 1.366 . S
C3044 C3046 1.388 . S
C3045 C3044 1.366 . S
C3045 C3049 1.385 . S
C3046 H3027 0.951 . S
C3046 C3044 1.388 . S
C3046 C3047 1.366 . S
C3047 C3046 1.366 . S
C3047 C3048 1.414 . S
C3047 C3050 1.499 . S
C3048 H3028 0.950 . S
C3048 C3047 1.414 . S
C3048 C3049 1.374 . S
C3049 H3029 0.950 . S
C3049 C3045 1.385 . S
C3049 C3048 1.374 . S
C3050 C3047 1.499 . S
C3050 C3051 1.373 . S
C3050 C3052 1.389 . S
C3051 H3030 0.972 . S
C3051 C3050 1.373 . S
C3051 C3067 1.377 . S
C3052 C3050 1.389 . S
C3052 C3053 1.524 . S
C3052 C3066 1.377 . S
C3053 C3052 1.524 . S
C3053 C3054 1.397 . S
C3053 C3058 1.363 . S
C3054 H3031 0.950 . S
C3054 C3053 1.397 . S
C3054 C3055 1.334 . S
C3055 H3032 0.950 . S
C3055 C3054 1.334 . S
C3055 C3056 1.287 . S
C3056 C3055 1.287 . S
C3056 C3057 1.524 . S
C3056 H3075 0.913 . S
C3057 H3033 0.950 . S
C3057 C3056 1.524 . S
C3057 C3058 1.415 . S
C3058 H3034 0.950 . S
C3058 C3053 1.363 . S
C3058 C3057 1.415 . S
C3059 H3035 0.951 . S
C3059 C3060 1.366 . S
C3059 C3061 1.388 . S
C3060 C3059 1.366 . S
C3060 C3064 1.385 . S
C3061 H3036 0.951 . S
C3061 C3059 1.388 . S
C3061 C3062 1.366 . S
C3062 C3061 1.366 . S
C3062 C3063 1.414 . S
C3062 C3065 1.499 . S
C3063 H3037 0.950 . S
C3063 C3062 1.414 . S
C3063 C3064 1.374 . S
C3064 H3038 0.950 . S
C3064 C3060 1.385 . S
C3064 C3063 1.374 . S
C3065 C3062 1.499 . S
C3065 C3066 1.373 . S
C3065 C3067 1.389 . S
C3066 H3039 0.950 . S
C3066 C3052 1.377 . S
C3066 C3065 1.373 . S
C3067 C3051 1.377 . S
C3067 C3065 1.389 . S
C3067 C3068 1.524 1_554 S
C3068 C3067 1.524 1_556 S
C3068 C3069 1.397 . S
C3068 C3073 1.363 . S
C3069 H3040 0.950 . S
C3069 C3068 1.397 . S
C3069 C3070 1.334 . S
C3070 H3041 0.950 . S
C3070 C3069 1.334 . S
C3070 C3071 1.287 . S
C3071 C3070 1.287 . S
C3071 C3072 1.524 . S
C3071 H3074 0.999 . S
C3072 H3042 0.950 . S
C3072 C3071 1.524 . S
C3072 C3073 1.415 . S
C3073 H3043 0.950 1_556 S
C3073 C3068 1.363 . S
C3073 C3072 1.415 . S
H3074 C3071 0.999 . S
H3075 C3056 0.913 . S
H3076 C3094 0.951 . S
H3077 C3096 0.951 . S
H3078 C3098 0.950 . S
H3079 C3099 0.950 . S
H3080 C3101 0.950 . S
H3081 C3104 0.950 . S
H3082 C3105 0.950 . S
H3083 C3107 0.950 . S
H3084 C3108 0.950 . S
H3085 C3109 0.951 . S
H3086 C3111 0.951 . S
H3087 C3113 0.950 . S
H3088 C3114 0.950 . S
H3089 C3116 0.950 . S
H3090 C3119 0.950 . S
H3091 C3120 0.950 . S
H3092 C3122 0.950 . S
H3093 C3123 0.950 . S
C3094 H3076 0.951 . S
C3094 C3095 1.366 . S
C3094 C3096 1.388 . S
C3095 C3094 1.366 . S
C3095 C3099 1.385 . S
C3096 H3077 0.951 . S
C3096 C3094 1.388 . S
C3096 C3097 1.366 . S
C3097 C3096 1.366 . S
C3097 C3098 1.414 . S
C3097 C3100 1.499 . S
C3098 H3078 0.950 . S
C3098 C3097 1.414 . S
C3098 C3099 1.374 . S
C3099 H3079 0.950 . S
C3099 C3095 1.385 . S
C3099 C3098 1.374 . S
C3100 C3097 1.499 . S
C3100 C3101 1.373 . S
C3100 C3102 1.389 . S
C3101 H3080 0.950 . S
C3101 C3100 1.373 . S
C3101 C3117 1.377 . S
C3102 C3100 1.389 . S
C3102 C3103 1.524 . S
C3102 C3116 1.377 . S
C3103 C3102 1.524 . S
C3103 C3104 1.397 . S
C3103 C3108 1.363 . S
C3104 H3081 0.950 . S
C3104 C3103 1.397 . S
C3104 C3105 1.334 . S
C3105 H3082 0.950 . S
C3105 C3104 1.334 . S
C3105 C3106 1.287 . S
C3106 C3105 1.287 . S
C3106 C3107 1.524 . S
C3106 H3125 0.913 . S
C3107 H3083 0.950 . S
C3107 C3106 1.524 . S
C3107 C3108 1.415 . S
C3108 H3084 0.950 . S
C3108 C3103 1.363 . S
C3108 C3107 1.415 . S
C3109 H3085 0.951 . S
C3109 C3110 1.366 . S
C3109 C3111 1.388 . S
C3110 C3109 1.366 . S
C3110 C3114 1.385 . S
C3111 H3086 0.951 . S
C3111 C3109 1.388 . S
C3111 C3112 1.366 . S
C3112 C3111 1.366 . S
C3112 C3113 1.414 . S
C3112 C3115 1.499 . S
C3113 H3087 0.950 . S
C3113 C3112 1.414 . S
C3113 C3114 1.374 . S
C3114 H3088 0.950 . S
C3114 C3110 1.385 . S
C3114 C3113 1.374 . S
C3115 C3112 1.499 . S
C3115 C3116 1.373 . S
C3115 C3117 1.389 . S
C3116 H3089 0.950 . S
C3116 C3102 1.377 . S
C3116 C3115 1.373 . S
C3117 C3101 1.377 . S
C3117 C3115 1.389 . S
C3117 C3118 1.524 . S
C3118 C3117 1.524 . S
C3118 C3119 1.397 . S
C3118 C3123 1.363 . S
C3119 H3090 0.950 . S
C3119 C3118 1.397 . S
C3119 C3120 1.334 . S
C3120 H3091 0.950 . S
C3120 C3119 1.334 . S
C3120 C3121 1.287 . S
C3121 C3120 1.287 . S
C3121 C3122 1.524 . S
C3121 H3124 0.999 . S
C3122 H3092 0.950 . S
C3122 C3121 1.524 . S
C3122 C3123 1.415 . S
C3123 H3093 0.950 . S
C3123 C3118 1.363 . S
C3123 C3122 1.415 . S
H3124 C3121 0.999 . S
H3125 C3106 0.913 . S
H3126 C3144 0.951 . S
H3127 C3146 0.951 . S
H3128 C3148 0.950 . S
H3129 C3149 0.950 . S
H3130 C3151 0.950 . S
H3131 C3154 0.950 . S
H3132 C3155 0.950 . S
H3133 C3157 0.950 . S
H3134 C3158 0.950 . S
H3135 C3159 0.951 . S
H3136 C3161 0.951 . S
H3137 C3163 0.950 . S
H3138 C3164 0.950 . S
H3139 C3166 0.950 . S
H3140 C3169 0.950 . S
H3141 C3170 0.950 . S
H3142 C3172 0.950 . S
H3143 C3173 0.950 . S
C3144 H3126 0.951 . S
C3144 C3145 1.366 . S
C3144 C3146 1.388 . S
C3145 C3144 1.366 . S
C3145 C3149 1.385 . S
C3146 H3127 0.951 . S
C3146 C3144 1.388 . S
C3146 C3147 1.366 . S
C3147 C3146 1.366 . S
C3147 C3148 1.414 . S
C3147 C3150 1.499 . S
C3148 H3128 0.950 . S
C3148 C3147 1.414 . S
C3148 C3149 1.374 . S
C3149 H3129 0.950 . S
C3149 C3145 1.385 . S
C3149 C3148 1.374 . S
C3150 C3147 1.499 . S
C3150 C3151 1.373 . S
C3150 C3152 1.389 . S
C3151 H3130 0.950 . S
C3151 C3150 1.373 . S
C3151 C3167 1.377 . S
C3152 C3150 1.389 . S
C3152 C3153 1.524 . S
C3152 C3166 1.377 . S
C3153 C3152 1.524 . S
C3153 C3154 1.397 . S
C3153 C3158 1.363 . S
C3154 H3131 0.950 . S
C3154 C3153 1.397 . S
C3154 C3155 1.334 . S
C3155 H3132 0.950 . S
C3155 C3154 1.334 . S
C3155 C3156 1.287 . S
C3156 C3155 1.287 . S
C3156 C3157 1.524 . S
C3156 H3175 0.913 . S
C3157 H3133 0.950 . S
C3157 C3156 1.524 . S
C3157 C3158 1.415 . S
C3158 H3134 0.950 . S
C3158 C3153 1.363 . S
C3158 C3157 1.415 . S
C3159 H3135 0.951 . S
C3159 C3160 1.366 . S
C3159 C3161 1.388 . S
C3160 C3159 1.366 . S
C3160 C3164 1.385 . S
C3161 H3136 0.951 . S
C3161 C3159 1.388 . S
C3161 C3162 1.366 . S
C3162 C3161 1.366 . S
C3162 C3163 1.414 . S
C3162 C3165 1.499 . S
C3163 H3137 0.950 . S
C3163 C3162 1.414 . S
C3163 C3164 1.374 . S
C3164 H3138 0.950 . S
C3164 C3160 1.385 . S
C3164 C3163 1.374 . S
C3165 C3162 1.499 . S
C3165 C3166 1.373 . S
C3165 C3167 1.389 . S
C3166 H3139 0.950 . S
C3166 C3152 1.377 . S
C3166 C3165 1.373 . S
C3167 C3151 1.377 . S
C3167 C3165 1.389 . S
C3167 C3168 1.524 . S
C3168 C3167 1.524 . S
C3168 C3169 1.397 . S
C3168 C3173 1.363 . S
C3169 H3140 0.950 . S
C3169 C3168 1.397 . S
C3169 C3170 1.334 . S
C3170 H3141 0.950 . S
C3170 C3169 1.334 . S
C3170 C3171 1.287 . S
C3171 C3170 1.287 . S
C3171 C3172 1.524 . S
C3171 H3174 0.999 . S
C3172 H3142 0.950 . S
C3172 C3171 1.524 . S
C3172 C3173 1.415 . S
C3173 H3143 0.950 . S
C3173 C3168 1.363 . S
C3173 C3172 1.415 . S
H3174 C3171 0.999 . S
H3175 C3156 0.913 . S
H3176 C3194 0.951 . S
H3177 C3196 0.951 . S
H3178 C3198 0.950 . S
H3179 C3199 0.950 . S
H3180 C3201 0.950 . S
H3181 C3204 0.950 . S
H3182 C3205 0.950 . S
H3183 C3207 0.950 . S
H3184 C3208 0.950 . S
H3185 C3209 0.951 . S
H3186 C3211 0.951 . S
H3187 C3213 0.950 . S
H3188 C3214 0.950 . S
H3189 C3216 0.950 . S
H3190 C3219 0.950 . S
H3191 C3220 0.950 . S
H3192 C3222 0.950 . S
H3193 C3223 0.950 . S
C3194 H3176 0.951 . S
C3194 C3195 1.366 . S
C3194 C3196 1.388 1_545 S
C3195 C3194 1.366 . S
C3195 C3199 1.385 1_545 S
C3196 H3177 0.951 . S
C3196 C3194 1.388 1_565 S
C3196 C3197 1.366 . S
C3197 C3196 1.366 . S
C3197 C3198 1.414 . S
C3197 C3200 1.499 . S
C3198 H3178 0.950 . S
C3198 C3197 1.414 . S
C3198 C3199 1.374 . S
C3199 H3179 0.950 . S
C3199 C3195 1.385 1_565 S
C3199 C3198 1.374 . S
C3200 C3197 1.499 . S
C3200 C3201 1.373 . S
C3200 C3202 1.389 . S
C3201 H3180 0.950 . S
C3201 C3200 1.373 . S
C3201 C3217 1.377 . S
C3202 C3200 1.389 . S
C3202 C3203 1.524 . S
C3202 C3216 1.377 . S
C3203 C3202 1.524 . S
C3203 C3204 1.397 . S
C3203 C3208 1.363 . S
C3204 H3181 0.950 . S
C3204 C3203 1.397 . S
C3204 C3205 1.334 . S
C3205 H3182 0.950 . S
C3205 C3204 1.334 . S
C3205 C3206 1.287 . S
C3206 C3205 1.287 . S
C3206 C3207 1.524 . S
C3206 H3225 0.913 . S
C3207 H3183 0.950 . S
C3207 C3206 1.524 . S
C3207 C3208 1.415 . S
C3208 H3184 0.950 . S
C3208 C3203 1.363 . S
C3208 C3207 1.415 . S
C3209 H3185 0.951 . S
C3209 C3210 1.366 . S
C3209 C3211 1.388 . S
C3210 C3209 1.366 . S
C3210 C3214 1.385 . S
C3211 H3186 0.951 . S
C3211 C3209 1.388 . S
C3211 C3212 1.366 . S
C3212 C3211 1.366 . S
C3212 C3213 1.414 . S
C3212 C3215 1.499 . S
C3213 H3187 0.950 . S
C3213 C3212 1.414 . S
C3213 C3214 1.374 . S
C3214 H3188 0.950 . S
C3214 C3210 1.385 . S
C3214 C3213 1.374 . S
C3215 C3212 1.499 . S
C3215 C3216 1.373 . S
C3215 C3217 1.389 . S
C3216 H3189 0.950 . S
C3216 C3202 1.377 . S
C3216 C3215 1.373 . S
C3217 C3201 1.377 . S
C3217 C3215 1.389 . S
C3217 C3218 1.524 . S
C3218 C3217 1.524 . S
C3218 C3219 1.397 . S
C3218 C3223 1.363 . S
C3219 H3190 0.950 . S
C3219 C3218 1.397 . S
C3219 C3220 1.334 . S
C3220 H3191 0.950 . S
C3220 C3219 1.334 . S
C3220 C3221 1.287 . S
C3221 C3220 1.287 . S
C3221 C3222 1.524 . S
C3221 H3224 0.999 . S
C3222 H3192 0.950 . S
C3222 C3221 1.524 . S
C3222 C3223 1.415 . S
C3223 H3193 0.950 . S
C3223 C3218 1.363 . S
C3223 C3222 1.415 . S
H3224 C3221 0.999 . S
H3225 C3206 0.913 . S
H3226 C3244 0.951 . S
H3227 C3246 0.951 . S
H3228 C3248 0.950 . S
H3229 C3249 0.950 . S
H3230 C3251 0.950 . S
H3231 C3254 0.950 . S
H3232 C3255 0.950 . S
H3233 C3257 0.950 . S
H3234 C3258 0.950 . S
H3235 C3259 0.951 . S
H3236 C3261 0.951 . S
H3237 C3263 0.950 . S
H3238 C3264 0.950 . S
H3239 C3266 0.950 . S
H3240 C3269 0.950 . S
H3241 C3270 0.950 . S
H3242 C3272 0.950 . S
H3243 C3273 0.950 . S
C3244 H3226 0.951 . S
C3244 C3245 1.366 . S
C3244 C3246 1.388 . S
C3245 C3244 1.366 . S
C3245 C3249 1.385 . S
C3246 H3227 0.951 . S
C3246 C3244 1.388 . S
C3246 C3247 1.366 . S
C3247 C3246 1.366 . S
C3247 C3248 1.414 . S
C3247 C3250 1.499 . S
C3248 H3228 0.950 . S
C3248 C3247 1.414 . S
C3248 C3249 1.374 . S
C3249 H3229 0.950 . S
C3249 C3245 1.385 . S
C3249 C3248 1.374 . S
C3250 C3247 1.499 . S
C3250 C3251 1.373 . S
C3250 C3252 1.389 . S
C3251 H3230 0.950 . S
C3251 C3250 1.373 . S
C3251 C3267 1.377 . S
C3252 C3250 1.389 . S
C3252 C3253 1.524 . S
C3252 C3266 1.377 . S
C3253 C3252 1.524 . S
C3253 C3254 1.397 . S
C3253 C3258 1.363 . S
C3254 H3231 0.950 . S
C3254 C3253 1.397 . S
C3254 C3255 1.334 . S
C3255 H3232 0.950 . S
C3255 C3254 1.334 . S
C3255 C3256 1.287 . S
C3256 C3255 1.287 . S
C3256 C3257 1.524 . S
C3256 H3275 0.913 . S
C3257 H3233 0.950 . S
C3257 C3256 1.524 . S
C3257 C3258 1.415 . S
C3258 H3234 0.950 . S
C3258 C3253 1.363 . S
C3258 C3257 1.415 . S
C3259 H3235 0.951 . S
C3259 C3260 1.366 . S
C3259 C3261 1.388 . S
C3260 C3259 1.366 . S
C3260 C3264 1.385 . S
C3261 H3236 0.951 . S
C3261 C3259 1.388 . S
C3261 C3262 1.366 . S
C3262 C3261 1.366 . S
C3262 C3263 1.414 . S
C3262 C3265 1.499 . S
C3263 H3237 0.950 . S
C3263 C3262 1.414 . S
C3263 C3264 1.374 . S
C3264 H3238 0.950 . S
C3264 C3260 1.385 . S
C3264 C3263 1.374 . S
C3265 C3262 1.499 . S
C3265 C3266 1.373 . S
C3265 C3267 1.389 . S
C3266 H3239 0.950 . S
C3266 C3252 1.377 . S
C3266 C3265 1.373 . S
C3267 C3251 1.377 . S
C3267 C3265 1.389 . S
C3267 C3268 1.524 . S
C3268 C3267 1.524 . S
C3268 C3269 1.397 . S
C3268 C3273 1.363 . S
C3269 H3240 0.950 . S
C3269 C3268 1.397 . S
C3269 C3270 1.334 . S
C3270 H3241 0.950 . S
C3270 C3269 1.334 . S
C3270 C3271 1.287 . S
C3271 C3270 1.287 . S
C3271 C3272 1.524 . S
C3271 H3274 0.999 . S
C3272 H3242 0.950 . S
C3272 C3271 1.524 . S
C3272 C3273 1.415 . S
C3273 H3243 0.950 . S
C3273 C3268 1.363 . S
C3273 C3272 1.415 . S
H3274 C3271 0.999 . S
H3275 C3256 0.913 . S
H3276 C3294 0.951 . S
H3277 C3296 0.951 . S
H3278 C3298 0.950 . S
H3279 C3299 0.950 . S
H3280 C3301 0.950 . S
H3281 C3304 0.950 . S
H3282 C3305 0.950 . S
H3283 C3307 0.950 . S
H3284 C3308 0.950 . S
H3285 C3309 0.951 . S
H3286 C3311 0.951 . S
H3287 C3313 0.950 . S
H3288 C3314 0.950 . S
H3289 C3316 0.950 . S
H3290 C3319 0.950 . S
H3291 C3320 0.950 . S
H3292 C3322 0.950 . S
H3293 C3323 0.950 . S
C3294 H3276 0.951 . S
C3294 C3295 1.366 . S
C3294 C3296 1.388 . S
C3295 C3294 1.366 . S
C3295 C3299 1.385 . S
C3296 H3277 0.951 . S
C3296 C3294 1.388 . S
C3296 C3297 1.366 . S
C3297 C3296 1.366 . S
C3297 C3298 1.414 . S
C3297 C3300 1.499 . S
C3298 H3278 0.950 . S
C3298 C3297 1.414 . S
C3298 C3299 1.374 . S
C3299 H3279 0.950 . S
C3299 C3295 1.385 . S
C3299 C3298 1.374 . S
C3300 C3297 1.499 . S
C3300 C3301 1.373 . S
C3300 C3302 1.389 . S
C3301 H3280 0.950 . S
C3301 C3300 1.373 . S
C3301 C3317 1.377 . S
C3302 C3300 1.389 . S
C3302 C3303 1.524 . S
C3302 C3316 1.377 . S
C3303 C3302 1.524 . S
C3303 C3304 1.397 . S
C3303 C3308 1.363 . S
C3304 H3281 0.950 . S
C3304 C3303 1.397 . S
C3304 C3305 1.334 . S
C3305 H3282 0.950 . S
C3305 C3304 1.334 . S
C3305 C3306 1.287 . S
C3306 C3305 1.287 . S
C3306 C3307 1.524 . S
C3306 H3325 0.913 . S
C3307 H3283 0.950 . S
C3307 C3306 1.524 . S
C3307 C3308 1.415 . S
C3308 H3284 0.950 . S
C3308 C3303 1.363 . S
C3308 C3307 1.415 . S
C3309 H3285 0.951 . S
C3309 C3310 1.366 . S
C3309 C3311 1.388 . S
C3310 C3309 1.366 . S
C3310 C3314 1.385 . S
C3311 H3286 0.951 . S
C3311 C3309 1.388 . S
C3311 C3312 1.366 . S
C3312 C3311 1.366 . S
C3312 C3313 1.414 . S
C3312 C3315 1.499 . S
C3313 H3287 0.950 . S
C3313 C3312 1.414 . S
C3313 C3314 1.374 . S
C3314 H3288 0.950 . S
C3314 C3310 1.385 . S
C3314 C3313 1.374 . S
C3315 C3312 1.499 . S
C3315 C3316 1.373 . S
C3315 C3317 1.389 . S
C3316 H3289 0.950 . S
C3316 C3302 1.377 . S
C3316 C3315 1.373 . S
C3317 C3301 1.377 . S
C3317 C3315 1.389 . S
C3317 C3318 1.524 . S
C3318 C3317 1.524 . S
C3318 C3319 1.397 . S
C3318 C3323 1.363 . S
C3319 H3290 0.950 . S
C3319 C3318 1.397 . S
C3319 C3320 1.334 . S
C3320 H3291 0.950 . S
C3320 C3319 1.334 . S
C3320 C3321 1.287 . S
C3321 C3320 1.287 . S
C3321 C3322 1.524 . S
C3321 H3324 0.999 . S
C3322 H3292 0.950 . S
C3322 C3321 1.524 . S
C3322 C3323 1.415 . S
C3323 H3293 0.950 . S
C3323 C3318 1.363 . S
C3323 C3322 1.415 . S
H3324 C3321 0.999 . S
H3325 C3306 0.913 . S
H3326 C3344 0.951 . S
H3327 C3346 0.951 . S
H3328 C3348 0.950 . S
H3329 C3349 0.950 . S
H3330 C3351 0.950 . S
H3331 C3354 0.950 . S
H3332 C3355 0.950 . S
H3333 C3357 0.950 . S
H3334 C3358 0.950 . S
H3335 C3359 0.951 . S
H3336 C3361 0.951 . S
H3337 C3363 0.950 . S
H3338 C3364 0.950 . S
H3339 C3366 0.950 . S
H3340 C3369 0.950 . S
H3341 C3370 0.950 . S
H3342 C3372 0.950 . S
H3343 C3373 0.950 . S
C3344 H3326 0.951 . S
C3344 C3345 1.366 . S
C3344 C3346 1.388 . S
C3345 C3344 1.366 . S
C3345 C3349 1.385 . S
C3346 H3327 0.951 . S
C3346 C3344 1.388 . S
C3346 C3347 1.366 . S
C3347 C3346 1.366 . S
C3347 C3348 1.414 . S
C3347 C3350 1.499 . S
C3348 H3328 0.950 . S
C3348 C3347 1.414 . S
C3348 C3349 1.374 . S
C3349 H3329 0.950 . S
C3349 C3345 1.385 . S
C3349 C3348 1.374 . S
C3350 C3347 1.499 . S
C3350 C3351 1.373 . S
C3350 C3352 1.389 . S
C3351 H3330 0.950 . S
C3351 C3350 1.373 . S
C3351 C3367 1.377 . S
C3352 C3350 1.389 . S
C3352 C3353 1.524 . S
C3352 C3366 1.377 . S
C3353 C3352 1.524 . S
C3353 C3354 1.397 . S
C3353 C3358 1.363 . S
C3354 H3331 0.950 . S
C3354 C3353 1.397 . S
C3354 C3355 1.334 . S
C3355 H3332 0.950 . S
C3355 C3354 1.334 . S
C3355 C3356 1.287 . S
C3356 C3355 1.287 . S
C3356 C3357 1.524 . S
C3356 H3375 0.913 . S
C3357 H3333 0.950 . S
C3357 C3356 1.524 . S
C3357 C3358 1.415 . S
C3358 H3334 0.950 . S
C3358 C3353 1.363 . S
C3358 C3357 1.415 . S
C3359 H3335 0.951 . S
C3359 C3360 1.366 . S
C3359 C3361 1.388 . S
C3360 C3359 1.366 . S
C3360 C3364 1.385 . S
C3361 H3336 0.951 . S
C3361 C3359 1.388 . S
C3361 C3362 1.366 . S
C3362 C3361 1.366 . S
C3362 C3363 1.414 . S
C3362 C3365 1.499 . S
C3363 H3337 0.950 . S
C3363 C3362 1.414 . S
C3363 C3364 1.374 . S
C3364 H3338 0.950 . S
C3364 C3360 1.385 . S
C3364 C3363 1.374 . S
C3365 C3362 1.499 . S
C3365 C3366 1.373 . S
C3365 C3367 1.389 . S
C3366 H3339 0.950 . S
C3366 C3352 1.377 . S
C3366 C3365 1.373 . S
C3367 C3351 1.377 . S
C3367 C3365 1.389 . S
C3367 C3368 1.524 . S
C3368 C3367 1.524 . S
C3368 C3369 1.397 . S
C3368 C3373 1.363 . S
C3369 H3340 0.950 . S
C3369 C3368 1.397 . S
C3369 C3370 1.334 . S
C3370 H3341 0.950 . S
C3370 C3369 1.334 . S
C3370 C3371 1.287 . S
C3371 C3370 1.287 . S
C3371 C3372 1.524 . S
C3371 H3374 0.999 . S
C3372 H3342 0.950 . S
C3372 C3371 1.524 . S
C3372 C3373 1.415 . S
C3373 H3343 0.950 . S
C3373 C3368 1.363 . S
C3373 C3372 1.415 . S
H3374 C3371 0.999 . S
H3375 C3356 0.913 . S
H3376 C3394 0.951 . S
H3377 C3396 0.951 . S
H3378 C3398 0.950 . S
H3379 C3399 0.950 . S
H3380 C3401 0.950 . S
H3381 C3404 0.950 . S
H3382 C3405 0.950 . S
H3383 C3407 0.950 . S
H3384 C3408 0.950 . S
H3385 C3409 0.951 . S
H3386 C3411 0.951 . S
H3387 C3413 0.950 . S
H3388 C3414 0.950 . S
H3389 C3416 0.950 . S
H3390 C3419 0.950 . S
H3391 C3420 0.950 . S
H3392 C3422 0.950 . S
H3393 C3423 0.950 . S
C3394 H3376 0.951 . S
C3394 C3395 1.366 . S
C3394 C3396 1.388 . S
C3395 C3394 1.366 . S
C3395 C3399 1.385 . S
C3396 H3377 0.951 . S
C3396 C3394 1.388 . S
C3396 C3397 1.366 . S
C3397 C3396 1.366 . S
C3397 C3398 1.414 . S
C3397 C3400 1.499 . S
C3398 H3378 0.950 . S
C3398 C3397 1.414 . S
C3398 C3399 1.374 . S
C3399 H3379 0.950 . S
C3399 C3395 1.385 . S
C3399 C3398 1.374 . S
C3400 C3397 1.499 . S
C3400 C3401 1.373 . S
C3400 C3402 1.389 . S
C3401 H3380 0.950 . S
C3401 C3400 1.373 . S
C3401 C3417 1.377 . S
C3402 C3400 1.389 . S
C3402 C3403 1.524 . S
C3402 C3416 1.377 . S
C3403 C3402 1.524 . S
C3403 C3404 1.397 . S
C3403 C3408 1.363 . S
C3404 H3381 0.950 . S
C3404 C3403 1.397 . S
C3404 C3405 1.334 . S
C3405 H3382 0.950 . S
C3405 C3404 1.334 . S
C3405 C3406 1.287 . S
C3406 C3405 1.287 . S
C3406 C3407 1.524 . S
C3406 H3425 0.913 . S
C3407 H3383 0.950 . S
C3407 C3406 1.524 . S
C3407 C3408 1.415 . S
C3408 H3384 0.950 . S
C3408 C3403 1.363 . S
C3408 C3407 1.415 . S
C3409 H3385 0.951 . S
C3409 C3410 1.366 . S
C3409 C3411 1.388 . S
C3410 C3409 1.366 . S
C3410 C3414 1.385 . S
C3411 H3386 0.951 . S
C3411 C3409 1.388 . S
C3411 C3412 1.366 . S
C3412 C3411 1.366 . S
C3412 C3413 1.414 . S
C3412 C3415 1.499 . S
C3413 H3387 0.950 . S
C3413 C3412 1.414 . S
C3413 C3414 1.374 . S
C3414 H3388 0.950 . S
C3414 C3410 1.385 . S
C3414 C3413 1.374 . S
C3415 C3412 1.499 . S
C3415 C3416 1.373 . S
C3415 C3417 1.389 . S
C3416 H3389 0.950 . S
C3416 C3402 1.377 . S
C3416 C3415 1.373 . S
C3417 C3401 1.377 . S
C3417 C3415 1.389 . S
C3417 C3418 1.524 . S
C3418 C3417 1.524 . S
C3418 C3419 1.397 . S
C3418 C3423 1.363 . S
C3419 H3390 0.950 . S
C3419 C3418 1.397 . S
C3419 C3420 1.334 . S
C3420 H3391 0.950 . S
C3420 C3419 1.334 . S
C3420 C3421 1.287 . S
C3421 C3420 1.287 . S
C3421 C3422 1.524 . S
C3421 H3424 0.999 . S
C3422 H3392 0.950 . S
C3422 C3421 1.524 . S
C3422 C3423 1.415 . S
C3423 H3393 0.950 . S
C3423 C3418 1.363 . S
C3423 C3422 1.415 . S
H3424 C3421 0.999 . S
H3425 C3406 0.913 . S
H3426 C3444 0.951 . S
H3427 C3446 0.951 . S
H3428 C3448 0.950 . S
H3429 C3449 0.950 . S
H3430 C3451 0.950 . S
H3431 C3454 0.950 . S
H3432 C3455 0.950 . S
H3433 C3457 0.950 . S
H3434 C3458 0.950 . S
H3435 C3459 0.951 . S
H3436 C3461 0.951 . S
H3437 C3463 0.950 . S
H3438 C3464 0.950 . S
H3439 C3466 0.950 . S
H3440 C3469 0.950 . S
H3441 C3470 0.950 . S
H3442 C3472 0.950 . S
H3443 C3473 0.950 . S
C3444 H3426 0.951 . S
C3444 C3445 1.366 . S
C3444 C3446 1.388 . S
C3445 C3444 1.366 . S
C3445 C3449 1.385 . S
C3446 H3427 0.951 . S
C3446 C3444 1.388 . S
C3446 C3447 1.366 . S
C3447 C3446 1.366 . S
C3447 C3448 1.414 . S
C3447 C3450 1.499 . S
C3448 H3428 0.950 . S
C3448 C3447 1.414 . S
C3448 C3449 1.374 . S
C3449 H3429 0.950 . S
C3449 C3445 1.385 . S
C3449 C3448 1.374 . S
C3450 C3447 1.499 . S
C3450 C3451 1.373 . S
C3450 C3452 1.389 . S
C3451 H3430 0.950 . S
C3451 C3450 1.373 . S
C3451 C3467 1.377 . S
C3452 C3450 1.389 . S
C3452 C3453 1.524 . S
C3452 C3466 1.377 . S
C3453 C3452 1.524 . S
C3453 C3454 1.397 . S
C3453 C3458 1.363 . S
C3454 H3431 0.950 . S
C3454 C3453 1.397 . S
C3454 C3455 1.334 . S
C3455 H3432 0.950 . S
C3455 C3454 1.334 . S
C3455 C3456 1.287 . S
C3456 C3455 1.287 . S
C3456 C3457 1.524 . S
C3456 H3475 0.913 . S
C3457 H3433 0.950 . S
C3457 C3456 1.524 . S
C3457 C3458 1.415 . S
C3458 H3434 0.950 . S
C3458 C3453 1.363 . S
C3458 C3457 1.415 . S
C3459 H3435 0.951 . S
C3459 C3460 1.366 . S
C3459 C3461 1.388 . S
C3460 C3459 1.366 . S
C3460 C3464 1.385 . S
C3461 H3436 0.951 . S
C3461 C3459 1.388 . S
C3461 C3462 1.366 . S
C3462 C3461 1.366 . S
C3462 C3463 1.414 . S
C3462 C3465 1.499 . S
C3463 H3437 0.950 . S
C3463 C3462 1.414 . S
C3463 C3464 1.374 . S
C3464 H3438 0.950 . S
C3464 C3460 1.385 . S
C3464 C3463 1.374 . S
C3465 C3462 1.499 . S
C3465 C3466 1.373 . S
C3465 C3467 1.389 . S
C3466 H3439 0.950 . S
C3466 C3452 1.377 . S
C3466 C3465 1.373 . S
C3467 C3451 1.377 . S
C3467 C3465 1.389 . S
C3467 C3468 1.524 . S
C3468 C3467 1.524 . S
C3468 C3469 1.397 . S
C3468 C3473 1.363 . S
C3469 H3440 0.950 . S
C3469 C3468 1.397 . S
C3469 C3470 1.334 . S
C3470 H3441 0.950 . S
C3470 C3469 1.334 . S
C3470 C3471 1.287 . S
C3471 C3470 1.287 . S
C3471 C3472 1.524 . S
C3471 H3474 0.999 . S
C3472 H3442 0.950 . S
C3472 C3471 1.524 . S
C3472 C3473 1.415 . S
C3473 H3443 0.950 . S
C3473 C3468 1.363 . S
C3473 C3472 1.415 . S
H3474 C3471 0.999 . S
H3475 C3456 0.913 . S
H3476 C3494 0.951 . S
H3477 C3496 0.951 . S
H3478 C3498 0.950 1_655 S
H3479 C3499 0.950 1_655 S
H3480 C3501 0.950 . S
H3481 C3504 0.925 1_655 S
H3482 C3505 0.950 1_655 S
H3483 C3507 0.950 . S
H3484 C3508 0.950 . S
H3485 C3509 0.951 . S
H3486 C3511 0.951 . S
H3487 C3513 0.975 . S
H3488 C3514 0.950 . S
H3489 C3516 0.950 1_554 S
H3490 C3519 0.950 . S
H3491 C3520 0.950 . S
H3492 C3522 0.983 . S
H3493 C3523 0.932 1_655 S
C3494 H3476 0.951 . S
C3494 C3495 1.366 . S
C3494 C3496 1.388 . S
C3495 C3494 1.366 . S
C3495 C3499 1.385 . S
C3496 H3477 0.951 . S
C3496 C3494 1.388 . S
C3496 C3497 1.366 . S
C3497 C3496 1.366 . S
C3497 C3498 1.414 . S
C3497 C3500 1.499 . S
C3498 H3478 0.950 1_455 S
C3498 C3497 1.414 . S
C3498 C3499 1.374 . S
C3499 H3479 0.950 1_455 S
C3499 C3495 1.385 . S
C3499 C3498 1.374 . S
C3500 C3497 1.499 . S
C3500 C3501 1.373 . S
C3500 C3502 1.389 . S
C3501 H3480 0.950 . S
C3501 C3500 1.373 . S
C3501 C3517 1.377 . S
C3502 C3500 1.389 . S
C3502 C3503 1.559 . S
C3502 C3516 1.377 . S
C3503 C3502 1.559 . S
C3503 C3504 1.391 . S
C3503 C3508 1.334 1_556 S
C3504 H3481 0.925 1_455 S
C3504 C3503 1.391 . S
C3504 C3505 1.334 1_556 S
C3505 H3482 0.950 1_455 S
C3505 C3504 1.334 1_554 S
C3505 C3506 1.287 . S
C3506 C3505 1.287 . S
C3506 C3507 1.524 . S
C3506 H3525 0.913 . S
C3507 H3483 0.950 . S
C3507 C3506 1.524 . S
C3507 C3508 1.415 . S
C3508 H3484 0.950 . S
C3508 C3503 1.334 1_554 S
C3508 C3507 1.415 . S
C3509 H3485 0.951 . S
C3509 C3510 1.366 1_556 S
C3509 C3511 1.388 . S
C3510 C3509 1.366 1_554 S
C3510 C3514 1.385 . S
C3511 H3486 0.951 . S
C3511 C3509 1.388 . S
C3511 C3512 1.366 . S
C3512 C3511 1.366 . S
C3512 C3513 1.379 1_556 S
C3512 C3515 1.499 . S
C3513 H3487 0.975 . S
C3513 C3512 1.379 1_554 S
C3513 C3514 1.389 . S
C3514 H3488 0.950 . S
C3514 C3510 1.385 . S
C3514 C3513 1.389 . S
C3515 C3512 1.499 . S
C3515 C3516 1.373 . S
C3515 C3517 1.389 . S
C3516 H3489 0.950 1_556 S
C3516 C3502 1.377 . S
C3516 C3515 1.373 . S
C3517 C3501 1.377 . S
C3517 C3515 1.389 . S
C3517 C3518 1.524 . S
C3518 C3517 1.524 . S
C3518 C3519 1.397 . S
C3518 C3523 1.363 . S
C3519 H3490 0.950 . S
C3519 C3518 1.397 . S
C3519 C3520 1.334 . S
C3520 H3491 0.950 . S
C3520 C3519 1.334 . S
C3520 C3521 1.287 . S
C3521 C3520 1.287 . S
C3521 C3522 1.524 . S
C3521 H3524 0.999 . S
C3522 H3492 0.983 . S
C3522 C3521 1.524 . S
C3522 C3523 1.415 . S
C3523 H3493 0.932 1_455 S
C3523 C3518 1.363 . S
C3523 C3522 1.415 . S
H3524 C3521 0.999 . S
H3525 C3506 0.913 . S
H3526 C3544 0.951 . S
H3527 C3546 0.951 . S
H3528 C3548 0.950 . S
H3529 C3549 0.958 1_655 S
H3530 C3551 0.950 . S
H3531 C3554 0.950 . S
H3532 C3555 0.950 . S
H3533 C3557 0.950 . S
H3534 C3558 0.950 . S
H3535 C3559 0.951 . S
H3536 C3561 0.951 . S
H3537 C3563 0.950 . S
H3538 C3564 0.950 . S
H3539 C3566 0.950 . S
H3540 C3569 0.950 . S
H3541 C3570 0.950 . S
H3542 C3572 0.950 . S
H3543 C3573 0.950 . S
C3544 H3526 0.951 . S
C3544 C3545 1.366 . S
C3544 C3546 1.388 . S
C3545 C3544 1.366 . S
C3545 C3549 1.405 . S
C3546 H3527 0.951 . S
C3546 C3544 1.388 . S
C3546 C3547 1.366 1_455 S
C3547 C3546 1.366 1_655 S
C3547 C3548 1.414 . S
C3547 C3550 1.499 . S
C3548 H3528 0.950 . S
C3548 C3547 1.414 . S
C3548 C3549 1.350 1_655 S
C3549 H3529 0.958 1_455 S
C3549 C3545 1.405 . S
C3549 C3548 1.350 1_455 S
C3550 C3547 1.499 . S
C3550 C3551 1.373 . S
C3550 C3552 1.389 . S
C3551 H3530 0.950 . S
C3551 C3550 1.373 . S
C3551 C3567 1.377 . S
C3552 C3550 1.389 . S
C3552 C3553 1.524 . S
C3552 C3566 1.377 . S
C3553 C3552 1.524 . S
C3553 C3554 1.397 . S
C3553 C3558 1.363 . S
C3554 H3531 0.950 . S
C3554 C3553 1.397 . S
C3554 C3555 1.334 1_655 S
C3555 H3532 0.950 . S
C3555 C3554 1.334 1_455 S
C3555 C3556 1.287 . S
C3556 C3555 1.287 . S
C3556 C3557 1.524 . S
C3556 H3575 0.913 . S
C3557 H3533 0.950 . S
C3557 C3556 1.524 . S
C3557 C3558 1.415 1_455 S
C3558 H3534 0.950 . S
C3558 C3553 1.363 . S
C3558 C3557 1.415 1_655 S
C3559 H3535 0.951 . S
C3559 C3560 1.366 . S
C3559 C3561 1.388 . S
C3560 C3559 1.366 . S
C3560 C3564 1.385 . S
C3561 H3536 0.951 . S
C3561 C3559 1.388 . S
C3561 C3562 1.366 . S
C3562 C3561 1.366 . S
C3562 C3563 1.414 . S
C3562 C3565 1.499 . S
C3563 H3537 0.950 . S
C3563 C3562 1.414 . S
C3563 C3564 1.374 . S
C3564 H3538 0.950 . S
C3564 C3560 1.385 . S
C3564 C3563 1.374 . S
C3565 C3562 1.499 . S
C3565 C3566 1.373 . S
C3565 C3567 1.389 . S
C3566 H3539 0.950 . S
C3566 C3552 1.377 . S
C3566 C3565 1.373 . S
C3567 C3551 1.377 . S
C3567 C3565 1.389 . S
C3567 C3568 1.524 . S
C3568 C3567 1.524 . S
C3568 C3569 1.397 . S
C3568 C3573 1.363 . S
C3569 H3540 0.950 . S
C3569 C3568 1.397 . S
C3569 C3570 1.334 . S
C3570 H3541 0.950 . S
C3570 C3569 1.334 . S
C3570 C3571 1.287 . S
C3571 C3570 1.287 . S
C3571 C3572 1.524 . S
C3571 H3574 0.999 . S
C3572 H3542 0.950 . S
C3572 C3571 1.524 . S
C3572 C3573 1.415 . S
C3573 H3543 0.950 . S
C3573 C3568 1.363 . S
C3573 C3572 1.415 . S
H3574 C3571 0.999 . S
H3575 C3556 0.913 . S
H3576 C3594 0.951 . S
H3577 C3596 0.951 . S
H3578 C3598 0.950 . S
H3579 C3599 0.950 . S
H3580 C3601 0.950 . S
H3581 C3604 0.950 . S
H3582 C3605 0.950 . S
H3583 C3607 0.950 . S
H3584 C3608 0.950 . S
H3585 C3609 0.951 . S
H3586 C3611 0.951 . S
H3587 C3613 0.950 . S
H3588 C3614 0.950 . S
H3589 C3616 0.950 . S
H3590 C3619 0.950 . S
H3591 C3620 0.950 . S
H3592 C3622 0.950 . S
H3593 C3623 0.950 . S
C3594 H3576 0.951 . S
C3594 C3595 1.366 . S
C3594 C3596 1.388 . S
C3595 C3594 1.366 . S
C3595 C3599 1.385 . S
C3596 H3577 0.951 . S
C3596 C3594 1.388 . S
C3596 C3597 1.366 . S
C3597 C3596 1.366 . S
C3597 C3598 1.414 . S
C3597 C3600 1.499 . S
C3598 H3578 0.950 . S
C3598 C3597 1.414 . S
C3598 C3599 1.374 . S
C3599 H3579 0.950 . S
C3599 C3595 1.385 . S
C3599 C3598 1.374 . S
C3600 C3597 1.499 . S
C3600 C3601 1.373 . S
C3600 C3602 1.389 . S
C3601 H3580 0.950 . S
C3601 C3600 1.373 . S
C3601 C3617 1.377 . S
C3602 C3600 1.389 . S
C3602 C3603 1.524 . S
C3602 C3616 1.377 . S
C3603 C3602 1.524 . S
C3603 C3604 1.397 . S
C3603 C3608 1.363 . S
C3604 H3581 0.950 . S
C3604 C3603 1.397 . S
C3604 C3605 1.334 . S
C3605 H3582 0.950 . S
C3605 C3604 1.334 . S
C3605 C3606 1.287 . S
C3606 C3605 1.287 . S
C3606 C3607 1.524 . S
C3606 H3625 0.913 . S
C3607 H3583 0.950 . S
C3607 C3606 1.524 . S
C3607 C3608 1.415 . S
C3608 H3584 0.950 . S
C3608 C3603 1.363 . S
C3608 C3607 1.415 . S
C3609 H3585 0.951 . S
C3609 C3610 1.366 . S
C3609 C3611 1.388 . S
C3610 C3609 1.366 . S
C3610 C3614 1.385 . S
C3611 H3586 0.951 . S
C3611 C3609 1.388 . S
C3611 C3612 1.366 . S
C3612 C3611 1.366 . S
C3612 C3613 1.414 . S
C3612 C3615 1.499 . S
C3613 H3587 0.950 . S
C3613 C3612 1.414 . S
C3613 C3614 1.374 . S
C3614 H3588 0.950 . S
C3614 C3610 1.385 . S
C3614 C3613 1.374 . S
C3615 C3612 1.499 . S
C3615 C3616 1.373 . S
C3615 C3617 1.389 . S
C3616 H3589 0.950 . S
C3616 C3602 1.377 . S
C3616 C3615 1.373 . S
C3617 C3601 1.377 . S
C3617 C3615 1.389 . S
C3617 C3618 1.524 . S
C3618 C3617 1.524 . S
C3618 C3619 1.397 . S
C3618 C3623 1.363 . S
C3619 H3590 0.950 . S
C3619 C3618 1.397 . S
C3619 C3620 1.334 . S
C3620 H3591 0.950 . S
C3620 C3619 1.334 . S
C3620 C3621 1.287 . S
C3621 C3620 1.287 . S
C3621 C3622 1.524 . S
C3621 H3624 0.999 . S
C3622 H3592 0.950 . S
C3622 C3621 1.524 . S
C3622 C3623 1.415 . S
C3623 H3593 0.950 . S
C3623 C3618 1.363 . S
C3623 C3622 1.415 . S
H3624 C3621 0.999 . S
H3625 C3606 0.913 . S
H3626 C3644 0.951 . S
H3627 C3646 0.951 . S
H3628 C3648 0.950 . S
H3629 C3649 0.950 . S
H3630 C3651 0.950 1_455 S
H3631 C3654 0.950 . S
H3632 C3655 0.950 1_455 S
H3633 C3657 0.950 . S
H3634 C3658 0.950 . S
H3635 C3659 0.951 . S
H3636 C3661 0.951 . S
H3637 C3663 0.950 . S
H3638 C3664 0.950 . S
H3639 C3666 0.950 . S
H3640 C3669 0.950 . S
H3641 C3670 0.950 . S
H3642 C3672 0.950 . S
H3643 C3673 0.950 . S
C3644 H3626 0.951 . S
C3644 C3645 1.366 . S
C3644 C3646 1.388 . S
C3645 C3644 1.366 . S
C3645 C3649 1.385 . S
C3646 H3627 0.951 . S
C3646 C3644 1.388 . S
C3646 C3647 1.366 . S
C3647 C3646 1.366 . S
C3647 C3648 1.414 . S
C3647 C3650 1.499 1_455 S
C3648 H3628 0.950 . S
C3648 C3647 1.414 . S
C3648 C3649 1.374 . S
C3649 H3629 0.950 . S
C3649 C3645 1.385 . S
C3649 C3648 1.374 . S
C3650 C3647 1.499 1_655 S
C3650 C3651 1.373 . S
C3650 C3652 1.389 . S
C3651 H3630 0.950 1_655 S
C3651 C3650 1.373 . S
C3651 C3667 1.377 . S
C3652 C3650 1.389 . S
C3652 C3653 1.524 . S
C3652 C3666 1.377 . S
C3653 C3652 1.524 . S
C3653 C3654 1.397 . S
C3653 C3658 1.363 . S
C3654 H3631 0.950 . S
C3654 C3653 1.397 . S
C3654 C3655 1.334 . S
C3655 H3632 0.950 1_655 S
C3655 C3654 1.334 . S
C3655 C3656 1.287 . S
C3656 C3655 1.287 . S
C3656 C3657 1.524 . S
C3656 H3675 0.913 . S
C3657 H3633 0.950 . S
C3657 C3656 1.524 . S
C3657 C3658 1.415 . S
C3658 H3634 0.950 . S
C3658 C3653 1.363 . S
C3658 C3657 1.415 . S
C3659 H3635 0.951 . S
C3659 C3660 1.366 . S
C3659 C3661 1.388 . S
C3660 C3659 1.366 . S
C3660 C3664 1.385 . S
C3661 H3636 0.951 . S
C3661 C3659 1.388 . S
C3661 C3662 1.366 . S
C3662 C3661 1.366 . S
C3662 C3663 1.414 . S
C3662 C3665 1.499 . S
C3663 H3637 0.950 . S
C3663 C3662 1.414 . S
C3663 C3664 1.374 . S
C3664 H3638 0.950 . S
C3664 C3660 1.385 . S
C3664 C3663 1.374 . S
C3665 C3662 1.499 . S
C3665 C3666 1.373 . S
C3665 C3667 1.389 . S
C3666 H3639 0.950 . S
C3666 C3652 1.377 . S
C3666 C3665 1.373 . S
C3667 C3651 1.377 . S
C3667 C3665 1.389 . S
C3667 C3668 1.524 . S
C3668 C3667 1.524 . S
C3668 C3669 1.397 . S
C3668 C3673 1.363 . S
C3669 H3640 0.950 . S
C3669 C3668 1.397 . S
C3669 C3670 1.334 . S
C3670 H3641 0.950 . S
C3670 C3669 1.334 . S
C3670 C3671 1.287 . S
C3671 C3670 1.287 . S
C3671 C3672 1.524 . S
C3671 H3674 0.999 . S
C3672 H3642 0.950 . S
C3672 C3671 1.524 . S
C3672 C3673 1.415 . S
C3673 H3643 0.950 . S
C3673 C3668 1.363 . S
C3673 C3672 1.415 . S
H3674 C3671 0.999 . S
H3675 C3656 0.913 . S
H3676 C3694 0.951 . S
H3677 C3696 0.951 . S
H3678 C3698 0.950 . S
H3679 C3699 0.950 . S
H3680 C3701 0.950 . S
H3681 C3704 0.950 . S
H3682 C3705 0.950 . S
H3683 C3707 0.950 . S
H3684 C3708 0.950 . S
H3685 C3709 0.951 . S
H3686 C3711 0.951 . S
H3687 C3713 0.950 1_655 S
H3688 C3714 0.925 1_655 S
H3689 C3716 0.950 . S
H3690 C3719 0.937 1_655 S
H3691 C3720 0.950 . S
H3692 C3722 0.950 . S
H3693 C3723 0.950 . S
C3694 H3676 0.951 . S
C3694 C3695 1.366 . S
C3694 C3696 1.388 . S
C3695 C3694 1.366 . S
C3695 C3699 1.385 1_655 S
C3696 H3677 0.951 . S
C3696 C3694 1.388 . S
C3696 C3697 1.320 1_655 S
C3697 C3696 1.320 1_455 S
C3697 C3698 1.435 . S
C3697 C3700 1.524 . S
C3698 H3678 0.950 . S
C3698 C3697 1.435 . S
C3698 C3699 1.374 . S
C3699 H3679 0.950 . S
C3699 C3695 1.385 1_455 S
C3699 C3698 1.374 . S
C3700 C3697 1.524 . S
C3700 C3701 1.373 . S
C3700 C3702 1.389 . S
C3701 H3680 0.950 . S
C3701 C3700 1.373 . S
C3701 C3717 1.377 . S
C3702 C3700 1.389 . S
C3702 C3703 1.524 1_455 S
C3702 C3716 1.377 . S
C3703 C3702 1.524 1_655 S
C3703 C3704 1.397 1_655 S
C3703 C3708 1.363 . S
C3704 H3681 0.950 . S
C3704 C3703 1.397 1_455 S
C3704 C3705 1.334 . S
C3705 H3682 0.950 . S
C3705 C3704 1.334 . S
C3705 C3706 1.287 1_455 S
C3706 C3705 1.287 1_655 S
C3706 C3707 1.524 . S
C3706 H3725 0.913 . S
C3707 H3683 0.950 . S
C3707 C3706 1.524 . S
C3707 C3708 1.415 . S
C3708 H3684 0.950 . S
C3708 C3703 1.363 . S
C3708 C3707 1.415 . S
C3709 H3685 0.951 . S
C3709 C3710 1.366 . S
C3709 C3711 1.388 . S
C3710 C3709 1.366 . S
C3710 C3714 1.385 . S
C3711 H3686 0.951 . S
C3711 C3709 1.388 . S
C3711 C3712 1.366 . S
C3712 C3711 1.366 . S
C3712 C3713 1.414 . S
C3712 C3715 1.499 . S
C3713 H3687 0.950 1_455 S
C3713 C3712 1.414 . S
C3713 C3714 1.374 . S
C3714 H3688 0.925 1_455 S
C3714 C3710 1.385 . S
C3714 C3713 1.374 . S
C3715 C3712 1.499 . S
C3715 C3716 1.373 . S
C3715 C3717 1.389 . S
C3716 H3689 0.950 . S
C3716 C3702 1.377 . S
C3716 C3715 1.373 . S
C3717 C3701 1.377 . S
C3717 C3715 1.389 . S
C3717 C3718 1.524 . S
C3718 C3717 1.524 . S
C3718 C3719 1.397 . S
C3718 C3723 1.363 . S
C3719 H3690 0.937 1_455 S
C3719 C3718 1.397 . S
C3719 C3720 1.334 . S
C3720 H3691 0.950 . S
C3720 C3719 1.334 . S
C3720 C3721 1.287 . S
C3721 C3720 1.287 . S
C3721 C3722 1.524 . S
C3721 H3724 0.999 . S
C3722 H3692 0.950 . S
C3722 C3721 1.524 . S
C3722 C3723 1.415 . S
C3723 H3693 0.950 . S
C3723 C3718 1.363 . S
C3723 C3722 1.415 . S
H3724 C3721 0.999 . S
H3725 C3706 0.913 . S
H3726 C3744 0.951 . S
H3727 C3746 0.951 . S
H3728 C3748 0.950 . S
H3729 C3749 0.950 . S
H3730 C3751 0.950 . S
H3731 C3754 0.950 . S
H3732 C3755 0.950 . S
H3733 C3757 0.950 . S
H3734 C3758 0.950 . S
H3735 C3759 0.951 . S
H3736 C3761 0.951 . S
H3737 C3763 0.950 . S
H3738 C3764 0.950 . S
H3739 C3766 0.950 . S
H3740 C3769 0.950 . S
H3741 C3770 0.950 . S
H3742 C3772 0.950 . S
H3743 C3773 0.950 . S
C3744 H3726 0.951 . S
C3744 C3745 1.366 . S
C3744 C3746 1.388 . S
C3745 C3744 1.366 . S
C3745 C3749 1.385 . S
C3746 H3727 0.951 . S
C3746 C3744 1.388 . S
C3746 C3747 1.366 . S
C3747 C3746 1.366 . S
C3747 C3748 1.414 . S
C3747 C3750 1.499 . S
C3748 H3728 0.950 . S
C3748 C3747 1.414 . S
C3748 C3749 1.374 . S
C3749 H3729 0.950 . S
C3749 C3745 1.385 . S
C3749 C3748 1.374 . S
C3750 C3747 1.499 . S
C3750 C3751 1.373 . S
C3750 C3752 1.389 . S
C3751 H3730 0.950 . S
C3751 C3750 1.373 . S
C3751 C3767 1.377 . S
C3752 C3750 1.389 . S
C3752 C3753 1.524 . S
C3752 C3766 1.377 . S
C3753 C3752 1.524 . S
C3753 C3754 1.397 . S
C3753 C3758 1.363 . S
C3754 H3731 0.950 . S
C3754 C3753 1.397 . S
C3754 C3755 1.334 . S
C3755 H3732 0.950 . S
C3755 C3754 1.334 . S
C3755 C3756 1.287 . S
C3756 C3755 1.287 . S
C3756 C3757 1.524 . S
C3756 H3775 0.913 . S
C3757 H3733 0.950 . S
C3757 C3756 1.524 . S
C3757 C3758 1.415 . S
C3758 H3734 0.950 . S
C3758 C3753 1.363 . S
C3758 C3757 1.415 . S
C3759 H3735 0.951 . S
C3759 C3760 1.366 . S
C3759 C3761 1.388 . S
C3760 C3759 1.366 . S
C3760 C3764 1.385 . S
C3761 H3736 0.951 . S
C3761 C3759 1.388 . S
C3761 C3762 1.366 . S
C3762 C3761 1.366 . S
C3762 C3763 1.414 . S
C3762 C3765 1.499 . S
C3763 H3737 0.950 . S
C3763 C3762 1.414 . S
C3763 C3764 1.374 . S
C3764 H3738 0.950 . S
C3764 C3760 1.385 . S
C3764 C3763 1.374 . S
C3765 C3762 1.499 . S
C3765 C3766 1.373 . S
C3765 C3767 1.389 . S
C3766 H3739 0.950 . S
C3766 C3752 1.377 . S
C3766 C3765 1.373 . S
C3767 C3751 1.377 . S
C3767 C3765 1.389 . S
C3767 C3768 1.524 . S
C3768 C3767 1.524 . S
C3768 C3769 1.397 . S
C3768 C3773 1.363 . S
C3769 H3740 0.950 . S
C3769 C3768 1.397 . S
C3769 C3770 1.334 . S
C3770 H3741 0.950 . S
C3770 C3769 1.334 . S
C3770 C3771 1.287 . S
C3771 C3770 1.287 . S
C3771 C3772 1.524 . S
C3771 H3774 0.999 . S
C3772 H3742 0.950 . S
C3772 C3771 1.524 . S
C3772 C3773 1.415 . S
C3773 H3743 0.950 . S
C3773 C3768 1.363 . S
C3773 C3772 1.415 . S
H3774 C3771 0.999 . S
H3775 C3756 0.913 . S
H3776 C3794 0.951 . S
H3777 C3796 0.951 . S
H3778 C3798 0.950 . S
H3779 C3799 0.950 . S
H3780 C3801 0.950 . S
H3781 C3804 0.950 . S
H3782 C3805 0.950 . S
H3783 C3807 0.950 . S
H3784 C3808 0.950 . S
H3785 C3809 0.951 . S
H3786 C3811 0.951 . S
H3787 C3813 0.950 . S
H3788 C3814 0.950 . S
H3789 C3816 0.950 . S
H3790 C3819 0.950 . S
H3791 C3820 0.950 . S
H3792 C3822 0.950 . S
H3793 C3823 0.950 . S
C3794 H3776 0.951 . S
C3794 C3795 1.366 . S
C3794 C3796 1.388 . S
C3795 C3794 1.366 . S
C3795 C3799 1.385 . S
C3796 H3777 0.951 . S
C3796 C3794 1.388 . S
C3796 C3797 1.366 . S
C3797 C3796 1.366 . S
C3797 C3798 1.414 . S
C3797 C3800 1.499 . S
C3798 H3778 0.950 . S
C3798 C3797 1.414 . S
C3798 C3799 1.374 . S
C3799 H3779 0.950 . S
C3799 C3795 1.385 . S
C3799 C3798 1.374 . S
C3800 C3797 1.499 . S
C3800 C3801 1.373 . S
C3800 C3802 1.389 . S
C3801 H3780 0.950 . S
C3801 C3800 1.373 . S
C3801 C3817 1.377 . S
C3802 C3800 1.389 . S
C3802 C3803 1.524 . S
C3802 C3816 1.377 . S
C3803 C3802 1.524 . S
C3803 C3804 1.397 . S
C3803 C3808 1.363 . S
C3804 H3781 0.950 . S
C3804 C3803 1.397 . S
C3804 C3805 1.334 . S
C3805 H3782 0.950 . S
C3805 C3804 1.334 . S
C3805 C3806 1.287 . S
C3806 C3805 1.287 . S
C3806 C3807 1.524 . S
C3806 H3825 0.913 . S
C3807 H3783 0.950 . S
C3807 C3806 1.524 . S
C3807 C3808 1.415 . S
C3808 H3784 0.950 . S
C3808 C3803 1.363 . S
C3808 C3807 1.415 . S
C3809 H3785 0.951 . S
C3809 C3810 1.366 . S
C3809 C3811 1.388 . S
C3810 C3809 1.366 . S
C3810 C3814 1.385 . S
C3811 H3786 0.951 . S
C3811 C3809 1.388 . S
C3811 C3812 1.366 . S
C3812 C3811 1.366 . S
C3812 C3813 1.414 . S
C3812 C3815 1.499 . S
C3813 H3787 0.950 . S
C3813 C3812 1.414 . S
C3813 C3814 1.374 . S
C3814 H3788 0.950 . S
C3814 C3810 1.385 . S
C3814 C3813 1.374 . S
C3815 C3812 1.499 . S
C3815 C3816 1.373 . S
C3815 C3817 1.389 . S
C3816 H3789 0.950 . S
C3816 C3802 1.377 . S
C3816 C3815 1.373 . S
C3817 C3801 1.377 . S
C3817 C3815 1.389 . S
C3817 C3818 1.524 . S
C3818 C3817 1.524 . S
C3818 C3819 1.397 . S
C3818 C3823 1.363 . S
C3819 H3790 0.950 . S
C3819 C3818 1.397 . S
C3819 C3820 1.334 . S
C3820 H3791 0.950 . S
C3820 C3819 1.334 . S
C3820 C3821 1.287 . S
C3821 C3820 1.287 . S
C3821 C3822 1.524 . S
C3821 H3824 0.999 . S
C3822 H3792 0.950 . S
C3822 C3821 1.524 . S
C3822 C3823 1.415 . S
C3823 H3793 0.950 . S
C3823 C3818 1.363 . S
C3823 C3822 1.415 . S
H3824 C3821 0.999 . S
H3825 C3806 0.913 . S
H3826 C3844 0.951 . S
H3827 C3846 0.951 . S
H3828 C3848 0.950 . S
H3829 C3849 0.950 . S
H3830 C3851 0.950 . S
H3831 C3854 0.950 . S
H3832 C3855 0.950 . S
H3833 C3857 0.950 . S
H3834 C3858 0.950 . S
H3835 C3859 0.951 . S
H3836 C3861 0.951 . S
H3837 C3863 0.950 . S
H3838 C3864 0.950 . S
H3839 C3866 0.950 . S
H3840 C3869 0.950 . S
H3841 C3870 0.950 . S
H3842 C3872 0.950 . S
H3843 C3873 0.950 . S
C3844 H3826 0.951 . S
C3844 C3845 1.366 . S
C3844 C3846 1.388 . S
C3845 C3844 1.366 . S
C3845 C3849 1.385 . S
C3846 H3827 0.951 . S
C3846 C3844 1.388 . S
C3846 C3847 1.366 . S
C3847 C3846 1.366 . S
C3847 C3848 1.414 . S
C3847 C3850 1.499 . S
C3848 H3828 0.950 . S
C3848 C3847 1.414 . S
C3848 C3849 1.374 . S
C3849 H3829 0.950 . S
C3849 C3845 1.385 . S
C3849 C3848 1.374 . S
C3850 C3847 1.499 . S
C3850 C3851 1.373 . S
C3850 C3852 1.389 . S
C3851 H3830 0.950 . S
C3851 C3850 1.373 . S
C3851 C3867 1.377 . S
C3852 C3850 1.389 . S
C3852 C3853 1.524 . S
C3852 C3866 1.377 . S
C3853 C3852 1.524 . S
C3853 C3854 1.397 . S
C3853 C3858 1.363 . S
C3854 H3831 0.950 . S
C3854 C3853 1.397 . S
C3854 C3855 1.334 . S
C3855 H3832 0.950 . S
C3855 C3854 1.334 . S
C3855 C3856 1.287 . S
C3856 C3855 1.287 . S
C3856 C3857 1.524 . S
C3856 H3875 0.913 . S
C3857 H3833 0.950 . S
C3857 C3856 1.524 . S
C3857 C3858 1.415 . S
C3858 H3834 0.950 . S
C3858 C3853 1.363 . S
C3858 C3857 1.415 . S
C3859 H3835 0.951 . S
C3859 C3860 1.366 . S
C3859 C3861 1.388 . S
C3860 C3859 1.366 . S
C3860 C3864 1.385 . S
C3861 H3836 0.951 . S
C3861 C3859 1.388 . S
C3861 C3862 1.366 . S
C3862 C3861 1.366 . S
C3862 C3863 1.414 . S
C3862 C3865 1.499 . S
C3863 H3837 0.950 . S
C3863 C3862 1.414 . S
C3863 C3864 1.374 . S
C3864 H3838 0.950 . S
C3864 C3860 1.385 . S
C3864 C3863 1.374 . S
C3865 C3862 1.499 . S
C3865 C3866 1.373 . S
C3865 C3867 1.389 . S
C3866 H3839 0.950 . S
C3866 C3852 1.377 . S
C3866 C3865 1.373 . S
C3867 C3851 1.377 . S
C3867 C3865 1.389 . S
C3867 C3868 1.524 . S
C3868 C3867 1.524 . S
C3868 C3869 1.397 . S
C3868 C3873 1.363 . S
C3869 H3840 0.950 . S
C3869 C3868 1.397 . S
C3869 C3870 1.334 . S
C3870 H3841 0.950 . S
C3870 C3869 1.334 . S
C3870 C3871 1.287 . S
C3871 C3870 1.287 . S
C3871 C3872 1.524 . S
C3871 H3874 0.999 . S
C3872 H3842 0.950 . S
C3872 C3871 1.524 . S
C3872 C3873 1.415 . S
C3873 H3843 0.950 . S
C3873 C3868 1.363 . S
C3873 C3872 1.415 . S
H3874 C3871 0.999 . S
H3875 C3856 0.913 . S
H3876 C3894 0.951 . S
H3877 C3896 0.951 . S
H3878 C3898 0.950 . S
H3879 C3899 0.950 . S
H3880 C3901 0.950 . S
H3881 C3904 0.950 . S
H3882 C3905 0.950 . S
H3883 C3907 0.950 . S
H3884 C3908 0.950 . S
H3885 C3909 0.951 . S
H3886 C3911 0.951 . S
H3887 C3913 0.950 . S
H3888 C3914 0.950 . S
H3889 C3916 0.950 . S
H3890 C3919 0.950 . S
H3891 C3920 0.950 . S
H3892 C3922 0.950 . S
H3893 C3923 0.950 . S
C3894 H3876 0.951 . S
C3894 C3895 1.366 . S
C3894 C3896 1.388 . S
C3895 C3894 1.366 . S
C3895 C3899 1.385 . S
C3896 H3877 0.951 . S
C3896 C3894 1.388 . S
C3896 C3897 1.366 . S
C3897 C3896 1.366 . S
C3897 C3898 1.414 . S
C3897 C3900 1.499 . S
C3898 H3878 0.950 . S
C3898 C3897 1.414 . S
C3898 C3899 1.374 . S
C3899 H3879 0.950 . S
C3899 C3895 1.385 . S
C3899 C3898 1.374 . S
C3900 C3897 1.499 . S
C3900 C3901 1.373 . S
C3900 C3902 1.389 . S
C3901 H3880 0.950 . S
C3901 C3900 1.373 . S
C3901 C3917 1.377 . S
C3902 C3900 1.389 . S
C3902 C3903 1.524 . S
C3902 C3916 1.377 . S
C3903 C3902 1.524 . S
C3903 C3904 1.397 . S
C3903 C3908 1.363 . S
C3904 H3881 0.950 . S
C3904 C3903 1.397 . S
C3904 C3905 1.334 . S
C3905 H3882 0.950 . S
C3905 C3904 1.334 . S
C3905 C3906 1.287 . S
C3906 C3905 1.287 . S
C3906 C3907 1.524 . S
C3906 H3925 0.913 . S
C3907 H3883 0.950 . S
C3907 C3906 1.524 . S
C3907 C3908 1.415 . S
C3908 H3884 0.950 . S
C3908 C3903 1.363 . S
C3908 C3907 1.415 . S
C3909 H3885 0.951 . S
C3909 C3910 1.366 . S
C3909 C3911 1.388 . S
C3910 C3909 1.366 . S
C3910 C3914 1.385 . S
C3911 H3886 0.951 . S
C3911 C3909 1.388 . S
C3911 C3912 1.366 . S
C3912 C3911 1.366 . S
C3912 C3913 1.414 . S
C3912 C3915 1.499 . S
C3913 H3887 0.950 . S
C3913 C3912 1.414 . S
C3913 C3914 1.374 . S
C3914 H3888 0.950 . S
C3914 C3910 1.385 . S
C3914 C3913 1.374 . S
C3915 C3912 1.499 . S
C3915 C3916 1.373 . S
C3915 C3917 1.389 . S
C3916 H3889 0.950 . S
C3916 C3902 1.377 . S
C3916 C3915 1.373 . S
C3917 C3901 1.377 . S
C3917 C3915 1.389 . S
C3917 C3918 1.524 . S
C3918 C3917 1.524 . S
C3918 C3919 1.397 . S
C3918 C3923 1.363 . S
C3919 H3890 0.950 . S
C3919 C3918 1.397 . S
C3919 C3920 1.334 . S
C3920 H3891 0.950 . S
C3920 C3919 1.334 . S
C3920 C3921 1.287 . S
C3921 C3920 1.287 . S
C3921 C3922 1.524 . S
C3921 H3924 0.999 . S
C3922 H3892 0.950 . S
C3922 C3921 1.524 . S
C3922 C3923 1.415 . S
C3923 H3893 0.950 . S
C3923 C3918 1.363 . S
C3923 C3922 1.415 . S
H3924 C3921 0.999 . S
H3925 C3906 0.913 . S
H3926 C3944 0.951 . S
H3927 C3946 0.951 . S
H3928 C3948 0.950 . S
H3929 C3949 0.950 . S
H3930 C3951 0.950 . S
H3931 C3954 0.950 . S
H3932 C3955 0.950 . S
H3933 C3957 0.950 . S
H3934 C3958 0.950 . S
H3935 C3959 0.951 . S
H3936 C3961 0.951 . S
H3937 C3963 0.950 . S
H3938 C3964 0.950 . S
H3939 C3966 0.950 . S
H3940 C3969 0.950 . S
H3941 C3970 0.950 . S
H3942 C3972 0.950 . S
H3943 C3973 0.950 . S
C3944 H3926 0.951 . S
C3944 C3945 1.366 . S
C3944 C3946 1.388 . S
C3945 C3944 1.366 . S
C3945 C3949 1.385 . S
C3946 H3927 0.951 . S
C3946 C3944 1.388 . S
C3946 C3947 1.366 . S
C3947 C3946 1.366 . S
C3947 C3948 1.414 . S
C3947 C3950 1.499 . S
C3948 H3928 0.950 . S
C3948 C3947 1.414 . S
C3948 C3949 1.374 . S
C3949 H3929 0.950 . S
C3949 C3945 1.385 . S
C3949 C3948 1.374 . S
C3950 C3947 1.499 . S
C3950 C3951 1.373 . S
C3950 C3952 1.389 . S
C3951 H3930 0.950 . S
C3951 C3950 1.373 . S
C3951 C3967 1.377 . S
C3952 C3950 1.389 . S
C3952 C3953 1.524 . S
C3952 C3966 1.377 . S
C3953 C3952 1.524 . S
C3953 C3954 1.397 . S
C3953 C3958 1.363 . S
C3954 H3931 0.950 . S
C3954 C3953 1.397 . S
C3954 C3955 1.334 . S
C3955 H3932 0.950 . S
C3955 C3954 1.334 . S
C3955 C3956 1.287 . S
C3956 C3955 1.287 . S
C3956 C3957 1.524 . S
C3956 H3975 0.913 . S
C3957 H3933 0.950 . S
C3957 C3956 1.524 . S
C3957 C3958 1.415 . S
C3958 H3934 0.950 . S
C3958 C3953 1.363 . S
C3958 C3957 1.415 . S
C3959 H3935 0.951 . S
C3959 C3960 1.366 . S
C3959 C3961 1.388 . S
C3960 C3959 1.366 . S
C3960 C3964 1.385 . S
C3961 H3936 0.951 . S
C3961 C3959 1.388 . S
C3961 C3962 1.366 . S
C3962 C3961 1.366 . S
C3962 C3963 1.414 . S
C3962 C3965 1.499 . S
C3963 H3937 0.950 . S
C3963 C3962 1.414 . S
C3963 C3964 1.374 . S
C3964 H3938 0.950 . S
C3964 C3960 1.385 . S
C3964 C3963 1.374 . S
C3965 C3962 1.499 . S
C3965 C3966 1.373 . S
C3965 C3967 1.389 . S
C3966 H3939 0.950 . S
C3966 C3952 1.377 . S
C3966 C3965 1.373 . S
C3967 C3951 1.377 . S
C3967 C3965 1.389 . S
C3967 C3968 1.524 . S
C3968 C3967 1.524 . S
C3968 C3969 1.397 . S
C3968 C3973 1.363 . S
C3969 H3940 0.950 . S
C3969 C3968 1.397 . S
C3969 C3970 1.334 . S
C3970 H3941 0.950 . S
C3970 C3969 1.334 . S
C3970 C3971 1.287 . S
C3971 C3970 1.287 . S
C3971 C3972 1.524 . S
C3971 H3974 0.999 . S
C3972 H3942 0.950 . S
C3972 C3971 1.524 . S
C3972 C3973 1.415 . S
C3973 H3943 0.950 . S
C3973 C3968 1.363 . S
C3973 C3972 1.415 . S
H3974 C3971 0.999 . S
H3975 C3956 0.913 . S
H3976 C3994 0.951 . S
H3977 C3996 0.951 . S
H3978 C3998 0.950 . S
H3979 C3999 0.950 . S
H3980 C4001 0.950 . S
H3981 C4004 0.950 . S
H3982 C4005 0.950 . S
H3983 C4007 0.950 . S
H3984 C4008 0.950 . S
H3985 C4009 0.951 . S
H3986 C4011 0.951 . S
H3987 C4013 0.950 . S
H3988 C4014 0.950 . S
H3989 C4016 0.950 . S
H3990 C4019 0.950 . S
H3991 C4020 0.950 . S
H3992 C4022 0.950 . S
H3993 C4023 0.950 . S
C3994 H3976 0.951 . S
C3994 C3995 1.366 . S
C3994 C3996 1.388 . S
C3995 C3994 1.366 . S
C3995 C3999 1.385 . S
C3996 H3977 0.951 . S
C3996 C3994 1.388 . S
C3996 C3997 1.366 . S
C3997 C3996 1.366 . S
C3997 C3998 1.414 . S
C3997 C4000 1.499 . S
C3998 H3978 0.950 . S
C3998 C3997 1.414 . S
C3998 C3999 1.374 . S
C3999 H3979 0.950 . S
C3999 C3995 1.385 . S
C3999 C3998 1.374 . S
C4000 C3997 1.499 . S
C4000 C4001 1.373 . S
C4000 C4002 1.389 . S
C4001 H3980 0.950 . S
C4001 C4000 1.373 . S
C4001 C4017 1.377 . S
C4002 C4000 1.389 . S
C4002 C4003 1.524 . S
C4002 C4016 1.377 . S
C4003 C4002 1.524 . S
C4003 C4004 1.397 . S
C4003 C4008 1.363 . S
C4004 H3981 0.950 . S
C4004 C4003 1.397 . S
C4004 C4005 1.334 . S
C4005 H3982 0.950 . S
C4005 C4004 1.334 . S
C4005 C4006 1.287 . S
C4006 C4005 1.287 . S
C4006 C4007 1.524 . S
C4006 H4025 0.913 . S
C4007 H3983 0.950 . S
C4007 C4006 1.524 . S
C4007 C4008 1.415 . S
C4008 H3984 0.950 . S
C4008 C4003 1.363 . S
C4008 C4007 1.415 . S
C4009 H3985 0.951 . S
C4009 C4010 1.366 . S
C4009 C4011 1.388 . S
C4010 C4009 1.366 . S
C4010 C4014 1.385 . S
C4011 H3986 0.951 . S
C4011 C4009 1.388 . S
C4011 C4012 1.366 . S
C4012 C4011 1.366 . S
C4012 C4013 1.414 . S
C4012 C4015 1.499 . S
C4013 H3987 0.950 . S
C4013 C4012 1.414 . S
C4013 C4014 1.374 . S
C4014 H3988 0.950 . S
C4014 C4010 1.385 . S
C4014 C4013 1.374 . S
C4015 C4012 1.499 . S
C4015 C4016 1.373 . S
C4015 C4017 1.389 . S
C4016 H3989 0.950 . S
C4016 C4002 1.377 . S
C4016 C4015 1.373 . S
C4017 C4001 1.377 . S
C4017 C4015 1.389 . S
C4017 C4018 1.524 . S
C4018 C4017 1.524 . S
C4018 C4019 1.397 . S
C4018 C4023 1.363 . S
C4019 H3990 0.950 . S
C4019 C4018 1.397 . S
C4019 C4020 1.334 . S
C4020 H3991 0.950 . S
C4020 C4019 1.334 . S
C4020 C4021 1.287 . S
C4021 C4020 1.287 . S
C4021 C4022 1.524 . S
C4021 H4024 0.999 . S
C4022 H3992 0.950 . S
C4022 C4021 1.524 . S
C4022 C4023 1.415 . S
C4023 H3993 0.950 . S
C4023 C4018 1.363 . S
C4023 C4022 1.415 . S
H4024 C4021 0.999 . S
H4025 C4006 0.913 . S
H4026 C4044 0.951 . S
H4027 C4046 0.951 . S
H4028 C4048 0.950 . S
H4029 C4049 0.950 . S
H4030 C4051 0.950 . S
H4031 C4054 0.950 . S
H4032 C4055 0.950 . S
H4033 C4057 0.950 . S
H4034 C4058 0.950 . S
H4035 C4059 0.951 . S
H4036 C4061 0.951 . S
H4037 C4063 0.950 . S
H4038 C4064 0.950 . S
H4039 C4066 0.950 . S
H4040 C4069 0.950 . S
H4041 C4070 0.950 . S
H4042 C4072 0.950 . S
H4043 C4073 0.950 . S
C4044 H4026 0.951 . S
C4044 C4045 1.366 . S
C4044 C4046 1.388 . S
C4045 C4044 1.366 . S
C4045 C4049 1.385 . S
C4046 H4027 0.951 . S
C4046 C4044 1.388 . S
C4046 C4047 1.366 . S
C4047 C4046 1.366 . S
C4047 C4048 1.414 . S
C4047 C4050 1.499 . S
C4048 H4028 0.950 . S
C4048 C4047 1.414 . S
C4048 C4049 1.374 . S
C4049 H4029 0.950 . S
C4049 C4045 1.385 . S
C4049 C4048 1.374 . S
C4050 C4047 1.499 . S
C4050 C4051 1.373 . S
C4050 C4052 1.389 . S
C4051 H4030 0.950 . S
C4051 C4050 1.373 . S
C4051 C4067 1.377 . S
C4052 C4050 1.389 . S
C4052 C4053 1.524 . S
C4052 C4066 1.377 . S
C4053 C4052 1.524 . S
C4053 C4054 1.397 . S
C4053 C4058 1.363 . S
C4054 H4031 0.950 . S
C4054 C4053 1.397 . S
C4054 C4055 1.334 . S
C4055 H4032 0.950 . S
C4055 C4054 1.334 . S
C4055 C4056 1.287 . S
C4056 C4055 1.287 . S
C4056 C4057 1.524 . S
C4056 H4075 0.913 . S
C4057 H4033 0.950 . S
C4057 C4056 1.524 . S
C4057 C4058 1.415 . S
C4058 H4034 0.950 . S
C4058 C4053 1.363 . S
C4058 C4057 1.415 . S
C4059 H4035 0.951 . S
C4059 C4060 1.366 . S
C4059 C4061 1.388 . S
C4060 C4059 1.366 . S
C4060 C4064 1.385 . S
C4061 H4036 0.951 . S
C4061 C4059 1.388 . S
C4061 C4062 1.366 . S
C4062 C4061 1.366 . S
C4062 C4063 1.414 . S
C4062 C4065 1.499 . S
C4063 H4037 0.950 . S
C4063 C4062 1.414 . S
C4063 C4064 1.374 . S
C4064 H4038 0.950 . S
C4064 C4060 1.385 . S
C4064 C4063 1.374 . S
C4065 C4062 1.499 . S
C4065 C4066 1.373 . S
C4065 C4067 1.389 . S
C4066 H4039 0.950 . S
C4066 C4052 1.377 . S
C4066 C4065 1.373 . S
C4067 C4051 1.377 . S
C4067 C4065 1.389 . S
C4067 C4068 1.524 . S
C4068 C4067 1.524 . S
C4068 C4069 1.397 . S
C4068 C4073 1.363 . S
C4069 H4040 0.950 . S
C4069 C4068 1.397 . S
C4069 C4070 1.334 . S
C4070 H4041 0.950 . S
C4070 C4069 1.334 . S
C4070 C4071 1.287 . S
C4071 C4070 1.287 . S
C4071 C4072 1.524 . S
C4071 H4074 0.999 . S
C4072 H4042 0.950 . S
C4072 C4071 1.524 . S
C4072 C4073 1.415 . S
C4073 H4043 0.950 . S
C4073 C4068 1.363 . S
C4073 C4072 1.415 . S
H4074 C4071 0.999 . S
H4075 C4056 0.913 . S
H4076 C4094 0.951 . S
H4077 C4096 0.951 . S
H4078 C4098 0.950 . S
H4079 C4099 0.950 . S
H4080 C4101 0.950 . S
H4081 C4104 0.950 . S
H4082 C4105 0.950 . S
H4083 C4107 0.950 . S
H4084 C4108 0.950 . S
H4085 C4109 0.951 . S
H4086 C4111 0.951 . S
H4087 C4113 0.950 . S
H4088 C4114 0.950 . S
H4089 C4116 0.950 . S
H4090 C4119 0.950 . S
H4091 C4120 0.950 . S
H4092 C4122 0.950 . S
H4093 C4123 0.950 . S
C4094 H4076 0.951 . S
C4094 C4095 1.366 . S
C4094 C4096 1.388 . S
C4095 C4094 1.366 . S
C4095 C4099 1.385 . S
C4096 H4077 0.951 . S
C4096 C4094 1.388 . S
C4096 C4097 1.366 . S
C4097 C4096 1.366 . S
C4097 C4098 1.414 . S
C4097 C4100 1.499 . S
C4098 H4078 0.950 . S
C4098 C4097 1.414 . S
C4098 C4099 1.374 . S
C4099 H4079 0.950 . S
C4099 C4095 1.385 . S
C4099 C4098 1.374 . S
C4100 C4097 1.499 . S
C4100 C4101 1.373 . S
C4100 C4102 1.389 . S
C4101 H4080 0.950 . S
C4101 C4100 1.373 . S
C4101 C4117 1.377 . S
C4102 C4100 1.389 . S
C4102 C4103 1.524 . S
C4102 C4116 1.377 . S
C4103 C4102 1.524 . S
C4103 C4104 1.397 . S
C4103 C4108 1.363 . S
C4104 H4081 0.950 . S
C4104 C4103 1.397 . S
C4104 C4105 1.334 . S
C4105 H4082 0.950 . S
C4105 C4104 1.334 . S
C4105 C4106 1.287 . S
C4106 C4105 1.287 . S
C4106 C4107 1.524 . S
C4106 H4125 0.913 . S
C4107 H4083 0.950 . S
C4107 C4106 1.524 . S
C4107 C4108 1.415 . S
C4108 H4084 0.950 . S
C4108 C4103 1.363 . S
C4108 C4107 1.415 . S
C4109 H4085 0.951 . S
C4109 C4110 1.366 . S
C4109 C4111 1.388 . S
C4110 C4109 1.366 . S
C4110 C4114 1.385 . S
C4111 H4086 0.951 . S
C4111 C4109 1.388 . S
C4111 C4112 1.366 . S
C4112 C4111 1.366 . S
C4112 C4113 1.414 . S
C4112 C4115 1.499 . S
C4113 H4087 0.950 . S
C4113 C4112 1.414 . S
C4113 C4114 1.374 . S
C4114 H4088 0.950 . S
C4114 C4110 1.385 . S
C4114 C4113 1.374 . S
C4115 C4112 1.499 . S
C4115 C4116 1.373 . S
C4115 C4117 1.389 . S
C4116 H4089 0.950 . S
C4116 C4102 1.377 . S
C4116 C4115 1.373 . S
C4117 C4101 1.377 . S
C4117 C4115 1.389 . S
C4117 C4118 1.524 . S
C4118 C4117 1.524 . S
C4118 C4119 1.397 . S
C4118 C4123 1.363 . S
C4119 H4090 0.950 . S
C4119 C4118 1.397 . S
C4119 C4120 1.334 . S
C4120 H4091 0.950 . S
C4120 C4119 1.334 . S
C4120 C4121 1.287 . S
C4121 C4120 1.287 . S
C4121 C4122 1.524 . S
C4121 H4124 0.999 . S
C4122 H4092 0.950 . S
C4122 C4121 1.524 . S
C4122 C4123 1.415 . S
C4123 H4093 0.950 . S
C4123 C4118 1.363 . S
C4123 C4122 1.415 . S
H4124 C4121 0.999 . S
H4125 C4106 0.913 . S
H4126 C4144 0.951 . S
H4127 C4146 0.951 . S
H4128 C4148 0.950 . S
H4129 C4149 0.950 . S
H4130 C4151 0.950 . S
H4131 C4154 0.950 . S
H4132 C4155 0.950 . S
H4133 C4157 0.950 . S
H4134 C4158 0.950 . S
H4135 C4159 0.951 . S
H4136 C4161 0.951 . S
H4137 C4163 0.950 . S
H4138 C4164 0.950 . S
H4139 C4166 0.950 . S
H4140 C4169 0.950 . S
H4141 C4170 0.950 . S
H4142 C4172 0.950 . S
H4143 C4173 0.950 . S
C4144 H4126 0.951 . S
C4144 C4145 1.366 . S
C4144 C4146 1.388 . S
C4145 C4144 1.366 . S
C4145 C4149 1.385 . S
C4146 H4127 0.951 . S
C4146 C4144 1.388 . S
C4146 C4147 1.366 . S
C4147 C4146 1.366 . S
C4147 C4148 1.414 . S
C4147 C4150 1.499 . S
C4148 H4128 0.950 . S
C4148 C4147 1.414 . S
C4148 C4149 1.374 . S
C4149 H4129 0.950 . S
C4149 C4145 1.385 . S
C4149 C4148 1.374 . S
C4150 C4147 1.499 . S
C4150 C4151 1.373 . S
C4150 C4152 1.389 . S
C4151 H4130 0.950 . S
C4151 C4150 1.373 . S
C4151 C4167 1.377 . S
C4152 C4150 1.389 . S
C4152 C4153 1.524 . S
C4152 C4166 1.377 . S
C4153 C4152 1.524 . S
C4153 C4154 1.397 . S
C4153 C4158 1.363 . S
C4154 H4131 0.950 . S
C4154 C4153 1.397 . S
C4154 C4155 1.334 . S
C4155 H4132 0.950 . S
C4155 C4154 1.334 . S
C4155 C4156 1.287 . S
C4156 C4155 1.287 . S
C4156 C4157 1.524 . S
C4156 H4175 0.913 . S
C4157 H4133 0.950 . S
C4157 C4156 1.524 . S
C4157 C4158 1.415 . S
C4158 H4134 0.950 . S
C4158 C4153 1.363 . S
C4158 C4157 1.415 . S
C4159 H4135 0.951 . S
C4159 C4160 1.366 . S
C4159 C4161 1.388 . S
C4160 C4159 1.366 . S
C4160 C4164 1.385 . S
C4161 H4136 0.951 . S
C4161 C4159 1.388 . S
C4161 C4162 1.366 . S
C4162 C4161 1.366 . S
C4162 C4163 1.414 . S
C4162 C4165 1.499 . S
C4163 H4137 0.950 . S
C4163 C4162 1.414 . S
C4163 C4164 1.374 . S
C4164 H4138 0.950 . S
C4164 C4160 1.385 . S
C4164 C4163 1.374 . S
C4165 C4162 1.499 . S
C4165 C4166 1.373 . S
C4165 C4167 1.389 . S
C4166 H4139 0.950 . S
C4166 C4152 1.377 . S
C4166 C4165 1.373 . S
C4167 C4151 1.377 . S
C4167 C4165 1.389 . S
C4167 C4168 1.524 . S
C4168 C4167 1.524 . S
C4168 C4169 1.397 . S
C4168 C4173 1.363 . S
C4169 H4140 0.950 . S
C4169 C4168 1.397 . S
C4169 C4170 1.334 . S
C4170 H4141 0.950 . S
C4170 C4169 1.334 . S
C4170 C4171 1.287 . S
C4171 C4170 1.287 . S
C4171 C4172 1.524 . S
C4171 H4174 0.999 . S
C4172 H4142 0.950 . S
C4172 C4171 1.524 . S
C4172 C4173 1.415 . S
C4173 H4143 0.950 . S
C4173 C4168 1.363 . S
C4173 C4172 1.415 . S
H4174 C4171 0.999 . S
H4175 C4156 0.913 . S
H4176 C4194 0.951 . S
H4177 C4196 0.951 . S
H4178 C4198 0.950 . S
H4179 C4199 0.950 . S
H4180 C4201 0.950 . S
H4181 C4204 0.950 . S
H4182 C4205 0.950 . S
H4183 C4207 0.950 . S
H4184 C4208 0.950 . S
H4185 C4209 0.951 . S
H4186 C4211 0.951 . S
H4187 C4213 0.950 . S
H4188 C4214 0.950 . S
H4189 C4216 0.950 . S
H4190 C4219 0.950 . S
H4191 C4220 0.950 . S
H4192 C4222 0.950 . S
H4193 C4223 0.950 . S
C4194 H4176 0.951 . S
C4194 C4195 1.366 . S
C4194 C4196 1.388 . S
C4195 C4194 1.366 . S
C4195 C4199 1.385 . S
C4196 H4177 0.951 . S
C4196 C4194 1.388 . S
C4196 C4197 1.366 . S
C4197 C4196 1.366 . S
C4197 C4198 1.414 . S
C4197 C4200 1.499 . S
C4198 H4178 0.950 . S
C4198 C4197 1.414 . S
C4198 C4199 1.374 . S
C4199 H4179 0.950 . S
C4199 C4195 1.385 . S
C4199 C4198 1.374 . S
C4200 C4197 1.499 . S
C4200 C4201 1.373 . S
C4200 C4202 1.389 . S
C4201 H4180 0.950 . S
C4201 C4200 1.373 . S
C4201 C4217 1.377 . S
C4202 C4200 1.389 . S
C4202 C4203 1.524 . S
C4202 C4216 1.377 . S
C4203 C4202 1.524 . S
C4203 C4204 1.397 . S
C4203 C4208 1.363 . S
C4204 H4181 0.950 . S
C4204 C4203 1.397 . S
C4204 C4205 1.334 . S
C4205 H4182 0.950 . S
C4205 C4204 1.334 . S
C4205 C4206 1.287 . S
C4206 C4205 1.287 . S
C4206 C4207 1.524 . S
C4206 H4225 0.913 . S
C4207 H4183 0.950 . S
C4207 C4206 1.524 . S
C4207 C4208 1.415 . S
C4208 H4184 0.950 . S
C4208 C4203 1.363 . S
C4208 C4207 1.415 . S
C4209 H4185 0.951 . S
C4209 C4210 1.366 . S
C4209 C4211 1.388 . S
C4210 C4209 1.366 . S
C4210 C4214 1.385 . S
C4211 H4186 0.951 . S
C4211 C4209 1.388 . S
C4211 C4212 1.366 . S
C4212 C4211 1.366 . S
C4212 C4213 1.414 . S
C4212 C4215 1.499 . S
C4213 H4187 0.950 . S
C4213 C4212 1.414 . S
C4213 C4214 1.374 . S
C4214 H4188 0.950 . S
C4214 C4210 1.385 . S
C4214 C4213 1.374 . S
C4215 C4212 1.499 . S
C4215 C4216 1.373 . S
C4215 C4217 1.389 . S
C4216 H4189 0.950 . S
C4216 C4202 1.377 . S
C4216 C4215 1.373 . S
C4217 C4201 1.377 . S
C4217 C4215 1.389 . S
C4217 C4218 1.524 . S
C4218 C4217 1.524 . S
C4218 C4219 1.397 . S
C4218 C4223 1.363 . S
C4219 H4190 0.950 . S
C4219 C4218 1.397 . S
C4219 C4220 1.334 . S
C4220 H4191 0.950 . S
C4220 C4219 1.334 . S
C4220 C4221 1.287 . S
C4221 C4220 1.287 . S
C4221 C4222 1.524 . S
C4221 H4224 0.999 . S
C4222 H4192 0.950 . S
C4222 C4221 1.524 . S
C4222 C4223 1.415 . S
C4223 H4193 0.950 . S
C4223 C4218 1.363 . S
C4223 C4222 1.415 . S
H4224 C4221 0.999 . S
H4225 C4206 0.913 . S
H4226 C4244 0.951 . S
H4227 C4246 0.951 . S
H4228 C4248 0.950 . S
H4229 C4249 0.950 . S
H4230 C4251 0.950 . S
H4231 C4254 0.950 . S
H4232 C4255 0.950 . S
H4233 C4257 0.950 . S
H4234 C4258 0.950 . S
H4235 C4259 0.951 . S
H4236 C4261 0.951 . S
H4237 C4263 0.950 . S
H4238 C4264 0.950 . S
H4239 C4266 0.950 . S
H4240 C4269 0.950 . S
H4241 C4270 0.950 . S
H4242 C4272 0.950 . S
H4243 C4273 0.950 . S
C4244 H4226 0.951 . S
C4244 C4245 1.366 . S
C4244 C4246 1.388 . S
C4245 C4244 1.366 . S
C4245 C4249 1.385 . S
C4246 H4227 0.951 . S
C4246 C4244 1.388 . S
C4246 C4247 1.366 . S
C4247 C4246 1.366 . S
C4247 C4248 1.414 . S
C4247 C4250 1.499 . S
C4248 H4228 0.950 . S
C4248 C4247 1.414 . S
C4248 C4249 1.374 . S
C4249 H4229 0.950 . S
C4249 C4245 1.385 . S
C4249 C4248 1.374 . S
C4250 C4247 1.499 . S
C4250 C4251 1.373 . S
C4250 C4252 1.389 . S
C4251 H4230 0.950 . S
C4251 C4250 1.373 . S
C4251 C4267 1.377 . S
C4252 C4250 1.389 . S
C4252 C4253 1.524 . S
C4252 C4266 1.377 . S
C4253 C4252 1.524 . S
C4253 C4254 1.397 . S
C4253 C4258 1.363 . S
C4254 H4231 0.950 . S
C4254 C4253 1.397 . S
C4254 C4255 1.334 . S
C4255 H4232 0.950 . S
C4255 C4254 1.334 . S
C4255 C4256 1.287 . S
C4256 C4255 1.287 . S
C4256 C4257 1.524 . S
C4256 H4275 0.913 . S
C4257 H4233 0.950 . S
C4257 C4256 1.524 . S
C4257 C4258 1.415 . S
C4258 H4234 0.950 . S
C4258 C4253 1.363 . S
C4258 C4257 1.415 . S
C4259 H4235 0.951 . S
C4259 C4260 1.366 . S
C4259 C4261 1.388 . S
C4260 C4259 1.366 . S
C4260 C4264 1.385 . S
C4261 H4236 0.951 . S
C4261 C4259 1.388 . S
C4261 C4262 1.366 . S
C4262 C4261 1.366 . S
C4262 C4263 1.414 . S
C4262 C4265 1.499 . S
C4263 H4237 0.950 . S
C4263 C4262 1.414 . S
C4263 C4264 1.374 . S
C4264 H4238 0.950 . S
C4264 C4260 1.385 . S
C4264 C4263 1.374 . S
C4265 C4262 1.499 . S
C4265 C4266 1.373 . S
C4265 C4267 1.389 . S
C4266 H4239 0.950 . S
C4266 C4252 1.377 . S
C4266 C4265 1.373 . S
C4267 C4251 1.377 . S
C4267 C4265 1.389 . S
C4267 C4268 1.524 . S
C4268 C4267 1.524 . S
C4268 C4269 1.397 . S
C4268 C4273 1.363 . S
C4269 H4240 0.950 . S
C4269 C4268 1.397 . S
C4269 C4270 1.334 . S
C4270 H4241 0.950 . S
C4270 C4269 1.334 . S
C4270 C4271 1.287 . S
C4271 C4270 1.287 . S
C4271 C4272 1.524 . S
C4271 H4274 0.999 . S
C4272 H4242 0.950 . S
C4272 C4271 1.524 . S
C4272 C4273 1.415 . S
C4273 H4243 0.950 . S
C4273 C4268 1.363 . S
C4273 C4272 1.415 . S
H4274 C4271 0.999 . S
H4275 C4256 0.913 . S
H4276 C4294 0.951 . S
H4277 C4296 0.951 . S
H4278 C4298 0.950 . S
H4279 C4299 0.950 . S
H4280 C4301 0.950 . S
H4281 C4304 0.950 . S
H4282 C4305 0.950 . S
H4283 C4307 0.950 . S
H4284 C4308 0.950 . S
H4285 C4309 0.951 . S
H4286 C4311 0.951 . S
H4287 C4313 0.950 . S
H4288 C4314 0.950 . S
H4289 C4316 0.950 . S
H4290 C4319 0.950 . S
H4291 C4320 0.950 . S
H4292 C4322 0.950 . S
H4293 C4323 0.950 . S
C4294 H4276 0.951 . S
C4294 C4295 1.366 . S
C4294 C4296 1.388 . S
C4295 C4294 1.366 . S
C4295 C4299 1.385 . S
C4296 H4277 0.951 . S
C4296 C4294 1.388 . S
C4296 C4297 1.366 . S
C4297 C4296 1.366 . S
C4297 C4298 1.414 . S
C4297 C4300 1.499 . S
C4298 H4278 0.950 . S
C4298 C4297 1.414 . S
C4298 C4299 1.374 . S
C4299 H4279 0.950 . S
C4299 C4295 1.385 . S
C4299 C4298 1.374 . S
C4300 C4297 1.499 . S
C4300 C4301 1.373 . S
C4300 C4302 1.389 . S
C4301 H4280 0.950 . S
C4301 C4300 1.373 . S
C4301 C4317 1.377 . S
C4302 C4300 1.389 . S
C4302 C4303 1.524 . S
C4302 C4316 1.377 . S
C4303 C4302 1.524 . S
C4303 C4304 1.397 . S
C4303 C4308 1.363 . S
C4304 H4281 0.950 . S
C4304 C4303 1.397 . S
C4304 C4305 1.334 . S
C4305 H4282 0.950 . S
C4305 C4304 1.334 . S
C4305 C4306 1.287 . S
C4306 C4305 1.287 . S
C4306 C4307 1.524 . S
C4306 H4325 0.913 . S
C4307 H4283 0.950 . S
C4307 C4306 1.524 . S
C4307 C4308 1.415 . S
C4308 H4284 0.950 . S
C4308 C4303 1.363 . S
C4308 C4307 1.415 . S
C4309 H4285 0.951 . S
C4309 C4310 1.366 . S
C4309 C4311 1.388 . S
C4310 C4309 1.366 . S
C4310 C4314 1.385 . S
C4311 H4286 0.951 . S
C4311 C4309 1.388 . S
C4311 C4312 1.366 . S
C4312 C4311 1.366 . S
C4312 C4313 1.414 . S
C4312 C4315 1.499 . S
C4313 H4287 0.950 . S
C4313 C4312 1.414 . S
C4313 C4314 1.374 . S
C4314 H4288 0.950 . S
C4314 C4310 1.385 . S
C4314 C4313 1.374 . S
C4315 C4312 1.499 . S
C4315 C4316 1.373 . S
C4315 C4317 1.389 . S
C4316 H4289 0.950 . S
C4316 C4302 1.377 . S
C4316 C4315 1.373 . S
C4317 C4301 1.377 . S
C4317 C4315 1.389 . S
C4317 C4318 1.524 . S
C4318 C4317 1.524 . S
C4318 C4319 1.397 . S
C4318 C4323 1.363 . S
C4319 H4290 0.950 . S
C4319 C4318 1.397 . S
C4319 C4320 1.334 . S
C4320 H4291 0.950 . S
C4320 C4319 1.334 . S
C4320 C4321 1.287 . S
C4321 C4320 1.287 . S
C4321 C4322 1.524 . S
C4321 H4324 0.999 . S
C4322 H4292 0.950 . S
C4322 C4321 1.524 . S
C4322 C4323 1.415 . S
C4323 H4293 0.950 . S
C4323 C4318 1.363 . S
C4323 C4322 1.415 . S
H4324 C4321 0.999 . S
H4325 C4306 0.913 . S
H4326 C4344 0.951 1_556 S
H4327 C4346 0.951 1_556 S
H4328 C4348 0.950 . S
H4329 C4349 0.950 . S
H4330 C4351 0.950 . S
H4331 C4354 0.950 . S
H4332 C4355 0.950 . S
H4333 C4357 0.937 1_556 S
H4334 C4358 1.006 . S
H4335 C4359 0.951 . S
H4336 C4361 0.951 . S
H4337 C4363 0.950 . S
H4338 C4364 0.950 1_565 S
H4339 C4366 0.950 . S
H4340 C4369 0.950 . S
H4341 C4370 0.950 . S
H4342 C4372 0.950 . S
H4343 C4373 0.950 . S
C4344 H4326 0.951 1_554 S
C4344 C4345 1.366 . S
C4344 C4346 1.388 . S
C4345 C4344 1.366 . S
C4345 C4349 1.385 . S
C4346 H4327 0.951 1_554 S
C4346 C4344 1.388 . S
C4346 C4347 1.366 . S
C4347 C4346 1.366 . S
C4347 C4348 1.414 . S
C4347 C4350 1.499 . S
C4348 H4328 0.950 . S
C4348 C4347 1.414 . S
C4348 C4349 1.374 . S
C4349 H4329 0.950 . S
C4349 C4345 1.385 . S
C4349 C4348 1.374 . S
C4350 C4347 1.499 . S
C4350 C4351 1.373 . S
C4350 C4352 1.389 . S
C4351 H4330 0.950 . S
C4351 C4350 1.373 . S
C4351 C4367 1.382 . S
C4352 C4350 1.389 . S
C4352 C4353 1.524 . S
C4352 C4366 1.377 . S
C4353 C4352 1.524 . S
C4353 C4354 1.397 . S
C4353 C4358 1.324 1_554 S
C4354 H4331 0.950 . S
C4354 C4353 1.397 . S
C4354 C4355 1.334 . S
C4355 H4332 0.950 . S
C4355 C4354 1.334 . S
C4355 C4356 1.287 . S
C4356 C4355 1.287 . S
C4356 C4357 1.544 . S
C4356 H4375 0.913 . S
C4357 H4333 0.937 1_554 S
C4357 C4356 1.544 . S
C4357 C4358 1.397 1_554 S
C4358 H4334 1.006 . S
C4358 C4353 1.324 1_556 S
C4358 C4357 1.397 1_556 S
C4359 H4335 0.951 . S
C4359 C4360 1.366 . S
C4359 C4361 1.388 . S
C4360 C4359 1.366 . S
C4360 C4364 1.385 1_554 S
C4361 H4336 0.951 . S
C4361 C4359 1.388 . S
C4361 C4362 1.393 . S
C4362 C4361 1.393 . S
C4362 C4363 1.397 1_544 S
C4362 C4365 1.487 1_545 S
C4363 H4337 0.950 . S
C4363 C4362 1.397 1_566 S
C4363 C4364 1.374 1_565 S
C4364 H4338 0.950 1_545 S
C4364 C4360 1.385 1_556 S
C4364 C4363 1.374 1_545 S
C4365 C4362 1.487 1_565 S
C4365 C4366 1.373 . S
C4365 C4367 1.402 . S
C4366 H4339 0.950 . S
C4366 C4352 1.377 . S
C4366 C4365 1.373 . S
C4367 C4351 1.382 . S
C4367 C4365 1.402 . S
C4367 C4368 1.507 1_565 S
C4368 C4367 1.507 1_545 S
C4368 C4369 1.397 1_554 S
C4368 C4373 1.363 . S
C4369 H4340 0.950 . S
C4369 C4368 1.397 1_556 S
C4369 C4370 1.334 . S
C4370 H4341 0.950 . S
C4370 C4369 1.334 . S
C4370 C4371 1.287 1_556 S
C4371 C4370 1.287 1_554 S
C4371 C4372 1.524 . S
C4371 H4374 0.999 . S
C4372 H4342 0.950 . S
C4372 C4371 1.524 . S
C4372 C4373 1.415 . S
C4373 H4343 0.950 . S
C4373 C4368 1.363 . S
C4373 C4372 1.415 . S
H4374 C4371 0.999 . S
H4375 C4356 0.913 . S
H4376 C4394 0.951 . S
H4377 C4396 0.951 . S
H4378 C4398 0.950 . S
H4379 C4399 0.950 . S
H4380 C4401 0.950 . S
H4381 C4404 0.950 . S
H4382 C4405 0.950 . S
H4383 C4407 0.950 . S
H4384 C4408 0.950 . S
H4385 C4409 0.951 . S
H4386 C4411 0.951 . S
H4387 C4413 0.950 . S
H4388 C4414 0.950 . S
H4389 C4416 0.950 . S
H4390 C4419 0.950 . S
H4391 C4420 0.950 . S
H4392 C4422 0.950 . S
H4393 C4423 0.950 . S
C4394 H4376 0.951 . S
C4394 C4395 1.366 . S
C4394 C4396 1.388 . S
C4395 C4394 1.366 . S
C4395 C4399 1.385 . S
C4396 H4377 0.951 . S
C4396 C4394 1.388 . S
C4396 C4397 1.366 . S
C4397 C4396 1.366 . S
C4397 C4398 1.414 . S
C4397 C4400 1.499 . S
C4398 H4378 0.950 . S
C4398 C4397 1.414 . S
C4398 C4399 1.374 . S
C4399 H4379 0.950 . S
C4399 C4395 1.385 . S
C4399 C4398 1.374 . S
C4400 C4397 1.499 . S
C4400 C4401 1.373 . S
C4400 C4402 1.389 . S
C4401 H4380 0.950 . S
C4401 C4400 1.373 . S
C4401 C4417 1.377 . S
C4402 C4400 1.389 . S
C4402 C4403 1.524 . S
C4402 C4416 1.377 . S
C4403 C4402 1.524 . S
C4403 C4404 1.397 . S
C4403 C4408 1.363 . S
C4404 H4381 0.950 . S
C4404 C4403 1.397 . S
C4404 C4405 1.334 . S
C4405 H4382 0.950 . S
C4405 C4404 1.334 . S
C4405 C4406 1.287 . S
C4406 C4405 1.287 . S
C4406 C4407 1.524 . S
C4406 H4425 0.913 . S
C4407 H4383 0.950 . S
C4407 C4406 1.524 . S
C4407 C4408 1.415 . S
C4408 H4384 0.950 . S
C4408 C4403 1.363 . S
C4408 C4407 1.415 . S
C4409 H4385 0.951 . S
C4409 C4410 1.366 . S
C4409 C4411 1.388 . S
C4410 C4409 1.366 . S
C4410 C4414 1.385 . S
C4411 H4386 0.951 . S
C4411 C4409 1.388 . S
C4411 C4412 1.366 . S
C4412 C4411 1.366 . S
C4412 C4413 1.414 . S
C4412 C4415 1.499 . S
C4413 H4387 0.950 . S
C4413 C4412 1.414 . S
C4413 C4414 1.374 . S
C4414 H4388 0.950 . S
C4414 C4410 1.385 . S
C4414 C4413 1.374 . S
C4415 C4412 1.499 . S
C4415 C4416 1.373 . S
C4415 C4417 1.389 . S
C4416 H4389 0.950 . S
C4416 C4402 1.377 . S
C4416 C4415 1.373 . S
C4417 C4401 1.377 . S
C4417 C4415 1.389 . S
C4417 C4418 1.524 . S
C4418 C4417 1.524 . S
C4418 C4419 1.397 . S
C4418 C4423 1.363 . S
C4419 H4390 0.950 . S
C4419 C4418 1.397 . S
C4419 C4420 1.334 . S
C4420 H4391 0.950 . S
C4420 C4419 1.334 . S
C4420 C4421 1.287 . S
C4421 C4420 1.287 . S
C4421 C4422 1.524 . S
C4421 H4424 0.999 . S
C4422 H4392 0.950 . S
C4422 C4421 1.524 . S
C4422 C4423 1.415 . S
C4423 H4393 0.950 . S
C4423 C4418 1.363 . S
C4423 C4422 1.415 . S
H4424 C4421 0.999 . S
H4425 C4406 0.913 . S
H4426 C4444 0.951 . S
H4427 C4446 0.951 . S
H4428 C4448 0.950 . S
H4429 C4449 0.950 . S
H4430 C4451 0.950 . S
H4431 C4454 0.950 . S
H4432 C4455 0.950 . S
H4433 C4457 0.950 . S
H4434 C4458 0.950 . S
H4435 C4459 0.951 . S
H4436 C4461 0.951 . S
H4437 C4463 0.950 . S
H4438 C4464 0.950 . S
H4439 C4466 0.950 . S
H4440 C4469 0.950 . S
H4441 C4470 0.950 . S
H4442 C4472 0.950 . S
H4443 C4473 0.950 . S
C4444 H4426 0.951 . S
C4444 C4445 1.366 1_556 S
C4444 C4446 1.388 . S
C4445 C4444 1.366 1_554 S
C4445 C4449 1.385 . S
C4446 H4427 0.951 . S
C4446 C4444 1.388 . S
C4446 C4447 1.366 1_556 S
C4447 C4446 1.366 1_554 S
C4447 C4448 1.414 . S
C4447 C4450 1.499 . S
C4448 H4428 0.950 . S
C4448 C4447 1.414 . S
C4448 C4449 1.374 . S
C4449 H4429 0.950 . S
C4449 C4445 1.385 . S
C4449 C4448 1.374 . S
C4450 C4447 1.499 . S
C4450 C4451 1.373 . S
C4450 C4452 1.389 . S
C4451 H4430 0.950 . S
C4451 C4450 1.373 . S
C4451 C4467 1.377 . S
C4452 C4450 1.389 . S
C4452 C4453 1.524 1_554 S
C4452 C4466 1.377 . S
C4453 C4452 1.524 1_556 S
C4453 C4454 1.397 1_556 S
C4453 C4458 1.363 . S
C4454 H4431 0.950 . S
C4454 C4453 1.397 1_554 S
C4454 C4455 1.334 1_554 S
C4455 H4432 0.950 . S
C4455 C4454 1.334 1_556 S
C4455 C4456 1.287 . S
C4456 C4455 1.287 . S
C4456 C4457 1.524 . S
C4456 H4475 0.913 . S
C4457 H4433 0.950 . S
C4457 C4456 1.524 . S
C4457 C4458 1.415 . S
C4458 H4434 0.950 . S
C4458 C4453 1.363 . S
C4458 C4457 1.415 . S
C4459 H4435 0.951 . S
C4459 C4460 1.366 . S
C4459 C4461 1.388 . S
C4460 C4459 1.366 . S
C4460 C4464 1.385 . S
C4461 H4436 0.951 . S
C4461 C4459 1.388 . S
C4461 C4462 1.366 . S
C4462 C4461 1.366 . S
C4462 C4463 1.414 . S
C4462 C4465 1.499 . S
C4463 H4437 0.950 . S
C4463 C4462 1.414 . S
C4463 C4464 1.374 . S
C4464 H4438 0.950 . S
C4464 C4460 1.385 . S
C4464 C4463 1.374 . S
C4465 C4462 1.499 . S
C4465 C4466 1.373 . S
C4465 C4467 1.389 . S
C4466 H4439 0.950 . S
C4466 C4452 1.377 . S
C4466 C4465 1.373 . S
C4467 C4451 1.377 . S
C4467 C4465 1.389 . S
C4467 C4468 1.524 . S
C4468 C4467 1.524 . S
C4468 C4469 1.397 . S
C4468 C4473 1.363 . S
C4469 H4440 0.950 . S
C4469 C4468 1.397 . S
C4469 C4470 1.334 . S
C4470 H4441 0.950 . S
C4470 C4469 1.334 . S
C4470 C4471 1.287 . S
C4471 C4470 1.287 . S
C4471 C4472 1.524 . S
C4471 H4474 0.999 . S
C4472 H4442 0.950 . S
C4472 C4471 1.524 . S
C4472 C4473 1.415 . S
C4473 H4443 0.950 . S
C4473 C4468 1.363 . S
C4473 C4472 1.415 . S
H4474 C4471 0.999 . S
H4475 C4456 0.913 . S
H4476 C4494 0.951 . S
H4477 C4496 0.951 . S
H4478 C4498 0.950 . S
H4479 C4499 0.950 . S
H4480 C4501 0.950 . S
H4481 C4504 0.950 . S
H4482 C4505 0.950 . S
H4483 C4507 0.950 . S
H4484 C4508 0.950 . S
H4485 C4509 0.951 . S
H4486 C4511 0.951 . S
H4487 C4513 0.950 . S
H4488 C4514 0.950 . S
H4489 C4516 0.950 . S
H4490 C4519 0.950 . S
H4491 C4520 0.950 . S
H4492 C4522 0.950 . S
H4493 C4523 0.950 . S
C4494 H4476 0.951 . S
C4494 C4495 1.366 . S
C4494 C4496 1.388 . S
C4495 C4494 1.366 . S
C4495 C4499 1.385 . S
C4496 H4477 0.951 . S
C4496 C4494 1.388 . S
C4496 C4497 1.366 . S
C4497 C4496 1.366 . S
C4497 C4498 1.414 . S
C4497 C4500 1.499 . S
C4498 H4478 0.950 . S
C4498 C4497 1.414 . S
C4498 C4499 1.374 . S
C4499 H4479 0.950 . S
C4499 C4495 1.385 . S
C4499 C4498 1.374 . S
C4500 C4497 1.499 . S
C4500 C4501 1.373 . S
C4500 C4502 1.389 . S
C4501 H4480 0.950 . S
C4501 C4500 1.373 . S
C4501 C4517 1.377 . S
C4502 C4500 1.389 . S
C4502 C4503 1.524 . S
C4502 C4516 1.377 . S
C4503 C4502 1.524 . S
C4503 C4504 1.397 . S
C4503 C4508 1.363 . S
C4504 H4481 0.950 . S
C4504 C4503 1.397 . S
C4504 C4505 1.334 . S
C4505 H4482 0.950 . S
C4505 C4504 1.334 . S
C4505 C4506 1.287 . S
C4506 C4505 1.287 . S
C4506 C4507 1.524 . S
C4506 H4525 0.913 . S
C4507 H4483 0.950 . S
C4507 C4506 1.524 . S
C4507 C4508 1.415 . S
C4508 H4484 0.950 . S
C4508 C4503 1.363 . S
C4508 C4507 1.415 . S
C4509 H4485 0.951 . S
C4509 C4510 1.366 . S
C4509 C4511 1.388 . S
C4510 C4509 1.366 . S
C4510 C4514 1.385 . S
C4511 H4486 0.951 . S
C4511 C4509 1.388 . S
C4511 C4512 1.366 . S
C4512 C4511 1.366 . S
C4512 C4513 1.414 . S
C4512 C4515 1.499 . S
C4513 H4487 0.950 . S
C4513 C4512 1.414 . S
C4513 C4514 1.374 . S
C4514 H4488 0.950 . S
C4514 C4510 1.385 . S
C4514 C4513 1.374 . S
C4515 C4512 1.499 . S
C4515 C4516 1.373 . S
C4515 C4517 1.389 . S
C4516 H4489 0.950 . S
C4516 C4502 1.377 . S
C4516 C4515 1.373 . S
C4517 C4501 1.377 . S
C4517 C4515 1.389 . S
C4517 C4518 1.524 . S
C4518 C4517 1.524 . S
C4518 C4519 1.397 . S
C4518 C4523 1.363 . S
C4519 H4490 0.950 . S
C4519 C4518 1.397 . S
C4519 C4520 1.334 . S
C4520 H4491 0.950 . S
C4520 C4519 1.334 . S
C4520 C4521 1.287 . S
C4521 C4520 1.287 . S
C4521 C4522 1.524 . S
C4521 H4524 0.999 . S
C4522 H4492 0.950 . S
C4522 C4521 1.524 . S
C4522 C4523 1.415 . S
C4523 H4493 0.950 . S
C4523 C4518 1.363 . S
C4523 C4522 1.415 . S
H4524 C4521 0.999 . S
H4525 C4506 0.913 . S
H4526 C4544 0.951 . S
H4527 C4546 0.951 . S
H4528 C4548 0.950 . S
H4529 C4549 0.950 . S
H4530 C4551 0.950 . S
H4531 C4554 0.950 . S
H4532 C4555 0.950 . S
H4533 C4557 0.950 . S
H4534 C4558 0.950 . S
H4535 C4559 0.951 . S
H4536 C4561 0.951 . S
H4537 C4563 0.950 . S
H4538 C4564 0.950 . S
H4539 C4566 0.950 . S
H4540 C4569 0.950 . S
H4541 C4570 0.950 . S
H4542 C4572 0.950 . S
H4543 C4573 0.950 . S
C4544 H4526 0.951 . S
C4544 C4545 1.366 . S
C4544 C4546 1.388 . S
C4545 C4544 1.366 . S
C4545 C4549 1.385 . S
C4546 H4527 0.951 . S
C4546 C4544 1.388 . S
C4546 C4547 1.366 . S
C4547 C4546 1.366 . S
C4547 C4548 1.414 . S
C4547 C4550 1.499 . S
C4548 H4528 0.950 . S
C4548 C4547 1.414 . S
C4548 C4549 1.374 . S
C4549 H4529 0.950 . S
C4549 C4545 1.385 . S
C4549 C4548 1.374 . S
C4550 C4547 1.499 . S
C4550 C4551 1.373 . S
C4550 C4552 1.389 . S
C4551 H4530 0.950 . S
C4551 C4550 1.373 . S
C4551 C4567 1.377 . S
C4552 C4550 1.389 . S
C4552 C4553 1.524 . S
C4552 C4566 1.377 . S
C4553 C4552 1.524 . S
C4553 C4554 1.397 . S
C4553 C4558 1.363 . S
C4554 H4531 0.950 . S
C4554 C4553 1.397 . S
C4554 C4555 1.334 . S
C4555 H4532 0.950 . S
C4555 C4554 1.334 . S
C4555 C4556 1.287 . S
C4556 C4555 1.287 . S
C4556 C4557 1.524 . S
C4556 H4575 0.913 . S
C4557 H4533 0.950 . S
C4557 C4556 1.524 . S
C4557 C4558 1.415 . S
C4558 H4534 0.950 . S
C4558 C4553 1.363 . S
C4558 C4557 1.415 . S
C4559 H4535 0.951 . S
C4559 C4560 1.366 . S
C4559 C4561 1.388 . S
C4560 C4559 1.366 . S
C4560 C4564 1.385 . S
C4561 H4536 0.951 . S
C4561 C4559 1.388 . S
C4561 C4562 1.366 . S
C4562 C4561 1.366 . S
C4562 C4563 1.414 . S
C4562 C4565 1.499 . S
C4563 H4537 0.950 . S
C4563 C4562 1.414 . S
C4563 C4564 1.374 . S
C4564 H4538 0.950 . S
C4564 C4560 1.385 . S
C4564 C4563 1.374 . S
C4565 C4562 1.499 . S
C4565 C4566 1.373 . S
C4565 C4567 1.389 . S
C4566 H4539 0.950 . S
C4566 C4552 1.377 . S
C4566 C4565 1.373 . S
C4567 C4551 1.377 . S
C4567 C4565 1.389 . S
C4567 C4568 1.524 . S
C4568 C4567 1.524 . S
C4568 C4569 1.397 . S
C4568 C4573 1.363 . S
C4569 H4540 0.950 . S
C4569 C4568 1.397 . S
C4569 C4570 1.334 . S
C4570 H4541 0.950 . S
C4570 C4569 1.334 . S
C4570 C4571 1.287 . S
C4571 C4570 1.287 . S
C4571 C4572 1.524 . S
C4571 H4574 0.999 . S
C4572 H4542 0.950 . S
C4572 C4571 1.524 . S
C4572 C4573 1.415 . S
C4573 H4543 0.950 . S
C4573 C4568 1.363 . S
C4573 C4572 1.415 . S
H4574 C4571 0.999 . S
H4575 C4556 0.913 . S
H4576 C4594 0.951 . S
H4577 C4596 0.951 . S
H4578 C4598 0.950 . S
H4579 C4599 0.950 . S
H4580 C4601 0.950 . S
H4581 C4604 0.950 . S
H4582 C4605 0.950 . S
H4583 C4607 0.950 . S
H4584 C4608 0.950 . S
H4585 C4609 0.951 . S
H4586 C4611 0.951 . S
H4587 C4613 0.950 . S
H4588 C4614 0.950 . S
H4589 C4616 0.950 . S
H4590 C4619 0.950 . S
H4591 C4620 0.950 . S
H4592 C4622 0.950 . S
H4593 C4623 0.950 . S
C4594 H4576 0.951 . S
C4594 C4595 1.366 . S
C4594 C4596 1.388 . S
C4595 C4594 1.366 . S
C4595 C4599 1.385 . S
C4596 H4577 0.951 . S
C4596 C4594 1.388 . S
C4596 C4597 1.366 . S
C4597 C4596 1.366 . S
C4597 C4598 1.414 . S
C4597 C4600 1.499 . S
C4598 H4578 0.950 . S
C4598 C4597 1.414 . S
C4598 C4599 1.374 . S
C4599 H4579 0.950 . S
C4599 C4595 1.385 . S
C4599 C4598 1.374 . S
C4600 C4597 1.499 . S
C4600 C4601 1.373 . S
C4600 C4602 1.389 . S
C4601 H4580 0.950 . S
C4601 C4600 1.373 . S
C4601 C4617 1.377 . S
C4602 C4600 1.389 . S
C4602 C4603 1.524 . S
C4602 C4616 1.377 . S
C4603 C4602 1.524 . S
C4603 C4604 1.397 . S
C4603 C4608 1.363 . S
C4604 H4581 0.950 . S
C4604 C4603 1.397 . S
C4604 C4605 1.334 . S
C4605 H4582 0.950 . S
C4605 C4604 1.334 . S
C4605 C4606 1.287 . S
C4606 C4605 1.287 . S
C4606 C4607 1.524 . S
C4606 H4625 0.913 . S
C4607 H4583 0.950 . S
C4607 C4606 1.524 . S
C4607 C4608 1.415 . S
C4608 H4584 0.950 . S
C4608 C4603 1.363 . S
C4608 C4607 1.415 . S
C4609 H4585 0.951 . S
C4609 C4610 1.366 . S
C4609 C4611 1.388 . S
C4610 C4609 1.366 . S
C4610 C4614 1.385 . S
C4611 H4586 0.951 . S
C4611 C4609 1.388 . S
C4611 C4612 1.366 . S
C4612 C4611 1.366 . S
C4612 C4613 1.414 . S
C4612 C4615 1.499 . S
C4613 H4587 0.950 . S
C4613 C4612 1.414 . S
C4613 C4614 1.374 . S
C4614 H4588 0.950 . S
C4614 C4610 1.385 . S
C4614 C4613 1.374 . S
C4615 C4612 1.499 . S
C4615 C4616 1.373 . S
C4615 C4617 1.389 . S
C4616 H4589 0.950 . S
C4616 C4602 1.377 . S
C4616 C4615 1.373 . S
C4617 C4601 1.377 . S
C4617 C4615 1.389 . S
C4617 C4618 1.524 . S
C4618 C4617 1.524 . S
C4618 C4619 1.397 . S
C4618 C4623 1.363 . S
C4619 H4590 0.950 . S
C4619 C4618 1.397 . S
C4619 C4620 1.334 . S
C4620 H4591 0.950 . S
C4620 C4619 1.334 . S
C4620 C4621 1.287 . S
C4621 C4620 1.287 . S
C4621 C4622 1.524 . S
C4621 H4624 0.999 . S
C4622 H4592 0.950 . S
C4622 C4621 1.524 . S
C4622 C4623 1.415 . S
C4623 H4593 0.950 . S
C4623 C4618 1.363 . S
C4623 C4622 1.415 . S
H4624 C4621 0.999 . S
H4625 C4606 0.913 . S
H4626 C4644 0.951 . S
H4627 C4646 0.951 . S
H4628 C4648 0.950 . S
H4629 C4649 0.950 . S
H4630 C4651 0.950 . S
H4631 C4654 0.950 . S
H4632 C4655 0.950 . S
H4633 C4657 0.950 . S
H4634 C4658 0.950 . S
H4635 C4659 0.951 . S
H4636 C4661 0.951 . S
H4637 C4663 0.950 . S
H4638 C4664 0.950 . S
H4639 C4666 0.950 . S
H4640 C4669 0.950 . S
H4641 C4670 0.950 . S
H4642 C4672 0.950 . S
H4643 C4673 0.950 . S
C4644 H4626 0.951 . S
C4644 C4645 1.366 . S
C4644 C4646 1.388 . S
C4645 C4644 1.366 . S
C4645 C4649 1.385 . S
C4646 H4627 0.951 . S
C4646 C4644 1.388 . S
C4646 C4647 1.366 . S
C4647 C4646 1.366 . S
C4647 C4648 1.414 . S
C4647 C4650 1.499 . S
C4648 H4628 0.950 . S
C4648 C4647 1.414 . S
C4648 C4649 1.374 . S
C4649 H4629 0.950 . S
C4649 C4645 1.385 . S
C4649 C4648 1.374 . S
C4650 C4647 1.499 . S
C4650 C4651 1.373 . S
C4650 C4652 1.389 . S
C4651 H4630 0.950 . S
C4651 C4650 1.373 . S
C4651 C4667 1.377 . S
C4652 C4650 1.389 . S
C4652 C4653 1.524 . S
C4652 C4666 1.377 . S
C4653 C4652 1.524 . S
C4653 C4654 1.397 . S
C4653 C4658 1.363 . S
C4654 H4631 0.950 . S
C4654 C4653 1.397 . S
C4654 C4655 1.334 . S
C4655 H4632 0.950 . S
C4655 C4654 1.334 . S
C4655 C4656 1.287 . S
C4656 C4655 1.287 . S
C4656 C4657 1.524 . S
C4656 H4675 0.913 . S
C4657 H4633 0.950 . S
C4657 C4656 1.524 . S
C4657 C4658 1.415 . S
C4658 H4634 0.950 . S
C4658 C4653 1.363 . S
C4658 C4657 1.415 . S
C4659 H4635 0.951 . S
C4659 C4660 1.366 . S
C4659 C4661 1.388 . S
C4660 C4659 1.366 . S
C4660 C4664 1.385 . S
C4661 H4636 0.951 . S
C4661 C4659 1.388 . S
C4661 C4662 1.366 . S
C4662 C4661 1.366 . S
C4662 C4663 1.414 . S
C4662 C4665 1.499 . S
C4663 H4637 0.950 . S
C4663 C4662 1.414 . S
C4663 C4664 1.374 . S
C4664 H4638 0.950 . S
C4664 C4660 1.385 . S
C4664 C4663 1.374 . S
C4665 C4662 1.499 . S
C4665 C4666 1.373 . S
C4665 C4667 1.389 . S
C4666 H4639 0.950 . S
C4666 C4652 1.377 . S
C4666 C4665 1.373 . S
C4667 C4651 1.377 . S
C4667 C4665 1.389 . S
C4667 C4668 1.524 . S
C4668 C4667 1.524 . S
C4668 C4669 1.397 . S
C4668 C4673 1.363 . S
C4669 H4640 0.950 . S
C4669 C4668 1.397 . S
C4669 C4670 1.334 . S
C4670 H4641 0.950 . S
C4670 C4669 1.334 . S
C4670 C4671 1.287 . S
C4671 C4670 1.287 . S
C4671 C4672 1.524 . S
C4671 H4674 0.999 . S
C4672 H4642 0.950 . S
C4672 C4671 1.524 . S
C4672 C4673 1.415 . S
C4673 H4643 0.950 . S
C4673 C4668 1.363 . S
C4673 C4672 1.415 . S
H4674 C4671 0.999 . S
H4675 C4656 0.913 . S
H4676 C4694 0.951 . S
H4677 C4696 0.951 . S
H4678 C4698 0.950 . S
H4679 C4699 0.950 . S
H4680 C4701 0.950 . S
H4681 C4704 0.950 . S
H4682 C4705 0.950 . S
H4683 C4707 0.950 . S
H4684 C4708 0.950 . S
H4685 C4709 0.951 . S
H4686 C4711 0.951 . S
H4687 C4713 0.950 . S
H4688 C4714 0.950 . S
H4689 C4716 0.950 . S
H4690 C4719 0.950 . S
H4691 C4720 0.950 . S
H4692 C4722 0.950 1_655 S
H4693 C4723 0.950 . S
C4694 H4676 0.951 . S
C4694 C4695 1.366 . S
C4694 C4696 1.388 . S
C4695 C4694 1.366 . S
C4695 C4699 1.385 . S
C4696 H4677 0.951 . S
C4696 C4694 1.388 . S
C4696 C4697 1.366 . S
C4697 C4696 1.366 . S
C4697 C4698 1.414 . S
C4697 C4700 1.499 . S
C4698 H4678 0.950 . S
C4698 C4697 1.414 . S
C4698 C4699 1.374 . S
C4699 H4679 0.950 . S
C4699 C4695 1.385 . S
C4699 C4698 1.374 . S
C4700 C4697 1.499 . S
C4700 C4701 1.373 . S
C4700 C4702 1.389 . S
C4701 H4680 0.950 . S
C4701 C4700 1.373 . S
C4701 C4717 1.377 . S
C4702 C4700 1.389 . S
C4702 C4703 1.524 . S
C4702 C4716 1.377 . S
C4703 C4702 1.524 . S
C4703 C4704 1.397 . S
C4703 C4708 1.363 . S
C4704 H4681 0.950 . S
C4704 C4703 1.397 . S
C4704 C4705 1.334 . S
C4705 H4682 0.950 . S
C4705 C4704 1.334 . S
C4705 C4706 1.287 . S
C4706 C4705 1.287 . S
C4706 C4707 1.524 . S
C4706 H4725 0.913 1_554 S
C4707 H4683 0.950 . S
C4707 C4706 1.524 . S
C4707 C4708 1.415 . S
C4708 H4684 0.950 . S
C4708 C4703 1.363 . S
C4708 C4707 1.415 . S
C4709 H4685 0.951 . S
C4709 C4710 1.366 . S
C4709 C4711 1.388 . S
C4710 C4709 1.366 . S
C4710 C4714 1.385 . S
C4711 H4686 0.951 . S
C4711 C4709 1.388 . S
C4711 C4712 1.366 . S
C4712 C4711 1.366 . S
C4712 C4713 1.414 . S
C4712 C4715 1.499 . S
C4713 H4687 0.950 . S
C4713 C4712 1.414 . S
C4713 C4714 1.374 . S
C4714 H4688 0.950 . S
C4714 C4710 1.385 . S
C4714 C4713 1.374 . S
C4715 C4712 1.499 . S
C4715 C4716 1.373 . S
C4715 C4717 1.389 . S
C4716 H4689 0.950 . S
C4716 C4702 1.377 . S
C4716 C4715 1.373 . S
C4717 C4701 1.377 . S
C4717 C4715 1.389 . S
C4717 C4718 1.524 . S
C4718 C4717 1.524 . S
C4718 C4719 1.397 . S
C4718 C4723 1.363 . S
C4719 H4690 0.950 . S
C4719 C4718 1.397 . S
C4719 C4720 1.334 . S
C4720 H4691 0.950 . S
C4720 C4719 1.334 . S
C4720 C4721 1.287 . S
C4721 C4720 1.287 . S
C4721 C4722 1.524 . S
C4721 H4724 0.999 . S
C4722 H4692 0.950 1_455 S
C4722 C4721 1.524 . S
C4722 C4723 1.415 . S
C4723 H4693 0.950 . S
C4723 C4718 1.363 . S
C4723 C4722 1.415 . S
H4724 C4721 0.999 . S
H4725 C4706 0.913 1_556 S
H4726 C4744 0.951 . S
H4727 C4746 0.951 . S
H4728 C4748 0.950 . S
H4729 C4749 0.950 . S
H4730 C4751 0.950 . S
H4731 C4754 0.950 . S
H4732 C4755 0.950 . S
H4733 C4757 0.950 . S
H4734 C4758 0.950 . S
H4735 C4759 0.951 . S
H4736 C4761 0.951 . S
H4737 C4763 0.950 . S
H4738 C4764 0.950 . S
H4739 C4766 0.950 . S
H4740 C4769 0.950 . S
H4741 C4770 0.950 . S
H4742 C4772 0.950 . S
H4743 C4773 0.950 . S
C4744 H4726 0.951 . S
C4744 C4745 1.366 . S
C4744 C4746 1.388 . S
C4745 C4744 1.366 . S
C4745 C4749 1.385 . S
C4746 H4727 0.951 . S
C4746 C4744 1.388 . S
C4746 C4747 1.366 . S
C4747 C4746 1.366 . S
C4747 C4748 1.414 . S
C4747 C4750 1.499 . S
C4748 H4728 0.950 . S
C4748 C4747 1.414 . S
C4748 C4749 1.374 . S
C4749 H4729 0.950 . S
C4749 C4745 1.385 . S
C4749 C4748 1.374 . S
C4750 C4747 1.499 . S
C4750 C4751 1.373 . S
C4750 C4752 1.389 . S
C4751 H4730 0.950 . S
C4751 C4750 1.373 . S
C4751 C4767 1.377 . S
C4752 C4750 1.389 . S
C4752 C4753 1.524 . S
C4752 C4766 1.377 . S
C4753 C4752 1.524 . S
C4753 C4754 1.397 . S
C4753 C4758 1.363 . S
C4754 H4731 0.950 . S
C4754 C4753 1.397 . S
C4754 C4755 1.334 . S
C4755 H4732 0.950 . S
C4755 C4754 1.334 . S
C4755 C4756 1.287 . S
C4756 C4755 1.287 . S
C4756 C4757 1.524 . S
C4756 H4775 0.913 . S
C4757 H4733 0.950 . S
C4757 C4756 1.524 . S
C4757 C4758 1.415 . S
C4758 H4734 0.950 . S
C4758 C4753 1.363 . S
C4758 C4757 1.415 . S
C4759 H4735 0.951 . S
C4759 C4760 1.366 . S
C4759 C4761 1.388 . S
C4760 C4759 1.366 . S
C4760 C4764 1.385 . S
C4761 H4736 0.951 . S
C4761 C4759 1.388 . S
C4761 C4762 1.366 . S
C4762 C4761 1.366 . S
C4762 C4763 1.414 . S
C4762 C4765 1.499 . S
C4763 H4737 0.950 . S
C4763 C4762 1.414 . S
C4763 C4764 1.374 . S
C4764 H4738 0.950 . S
C4764 C4760 1.385 . S
C4764 C4763 1.374 . S
C4765 C4762 1.499 . S
C4765 C4766 1.373 . S
C4765 C4767 1.389 . S
C4766 H4739 0.950 . S
C4766 C4752 1.377 . S
C4766 C4765 1.373 . S
C4767 C4751 1.377 . S
C4767 C4765 1.389 . S
C4767 C4768 1.524 . S
C4768 C4767 1.524 . S
C4768 C4769 1.397 . S
C4768 C4773 1.363 . S
C4769 H4740 0.950 . S
C4769 C4768 1.397 . S
C4769 C4770 1.334 . S
C4770 H4741 0.950 . S
C4770 C4769 1.334 . S
C4770 C4771 1.287 . S
C4771 C4770 1.287 . S
C4771 C4772 1.524 . S
C4771 H4774 0.999 . S
C4772 H4742 0.950 . S
C4772 C4771 1.524 . S
C4772 C4773 1.415 . S
C4773 H4743 0.950 . S
C4773 C4768 1.363 . S
C4773 C4772 1.415 . S
H4774 C4771 0.999 . S
H4775 C4756 0.913 . S
H4776 C4794 0.951 . S
H4777 C4796 0.951 . S
H4778 C4798 0.950 . S
H4779 C4799 0.950 . S
H4780 C4801 0.950 . S
H4781 C4804 0.950 . S
H4782 C4805 0.950 . S
H4783 C4807 0.950 . S
H4784 C4808 0.950 . S
H4785 C4809 0.951 . S
H4786 C4811 0.951 . S
H4787 C4813 0.950 . S
H4788 C4814 0.950 . S
H4789 C4816 0.950 . S
H4790 C4819 0.950 . S
H4791 C4820 0.950 . S
H4792 C4822 0.950 . S
H4793 C4823 0.950 . S
C4794 H4776 0.951 . S
C4794 C4795 1.366 . S
C4794 C4796 1.388 . S
C4795 C4794 1.366 . S
C4795 C4799 1.385 . S
C4796 H4777 0.951 . S
C4796 C4794 1.388 . S
C4796 C4797 1.366 . S
C4797 C4796 1.366 . S
C4797 C4798 1.414 . S
C4797 C4800 1.499 . S
C4798 H4778 0.950 . S
C4798 C4797 1.414 . S
C4798 C4799 1.374 . S
C4799 H4779 0.950 . S
C4799 C4795 1.385 . S
C4799 C4798 1.374 . S
C4800 C4797 1.499 . S
C4800 C4801 1.373 . S
C4800 C4802 1.389 . S
C4801 H4780 0.950 . S
C4801 C4800 1.373 . S
C4801 C4817 1.377 . S
C4802 C4800 1.389 . S
C4802 C4803 1.524 . S
C4802 C4816 1.377 . S
C4803 C4802 1.524 . S
C4803 C4804 1.397 . S
C4803 C4808 1.363 . S
C4804 H4781 0.950 . S
C4804 C4803 1.397 . S
C4804 C4805 1.334 . S
C4805 H4782 0.950 . S
C4805 C4804 1.334 . S
C4805 C4806 1.287 . S
C4806 C4805 1.287 . S
C4806 C4807 1.524 . S
C4806 H4825 0.913 . S
C4807 H4783 0.950 . S
C4807 C4806 1.524 . S
C4807 C4808 1.415 . S
C4808 H4784 0.950 . S
C4808 C4803 1.363 . S
C4808 C4807 1.415 . S
C4809 H4785 0.951 . S
C4809 C4810 1.366 . S
C4809 C4811 1.388 . S
C4810 C4809 1.366 . S
C4810 C4814 1.385 . S
C4811 H4786 0.951 . S
C4811 C4809 1.388 . S
C4811 C4812 1.366 . S
C4812 C4811 1.366 . S
C4812 C4813 1.414 . S
C4812 C4815 1.499 . S
C4813 H4787 0.950 . S
C4813 C4812 1.414 . S
C4813 C4814 1.374 . S
C4814 H4788 0.950 . S
C4814 C4810 1.385 . S
C4814 C4813 1.374 . S
C4815 C4812 1.499 . S
C4815 C4816 1.373 . S
C4815 C4817 1.389 . S
C4816 H4789 0.950 . S
C4816 C4802 1.377 . S
C4816 C4815 1.373 . S
C4817 C4801 1.377 . S
C4817 C4815 1.389 . S
C4817 C4818 1.524 . S
C4818 C4817 1.524 . S
C4818 C4819 1.397 . S
C4818 C4823 1.363 . S
C4819 H4790 0.950 . S
C4819 C4818 1.397 . S
C4819 C4820 1.334 . S
C4820 H4791 0.950 . S
C4820 C4819 1.334 . S
C4820 C4821 1.287 . S
C4821 C4820 1.287 . S
C4821 C4822 1.524 . S
C4821 H4824 0.999 . S
C4822 H4792 0.950 . S
C4822 C4821 1.524 . S
C4822 C4823 1.415 . S
C4823 H4793 0.950 . S
C4823 C4818 1.363 . S
C4823 C4822 1.415 . S
H4824 C4821 0.999 . S
H4825 C4806 0.913 . S
H4826 C4844 0.951 . S
H4827 C4846 0.951 . S
H4828 C4848 0.950 . S
H4829 C4849 0.950 . S
H4830 C4851 0.950 . S
H4831 C4854 0.950 . S
H4832 C4855 0.950 . S
H4833 C4857 0.950 . S
H4834 C4858 0.950 . S
H4835 C4859 0.951 . S
H4836 C4861 0.951 . S
H4837 C4863 0.950 . S
H4838 C4864 0.950 . S
H4839 C4866 0.950 . S
H4840 C4869 0.950 . S
H4841 C4870 0.950 . S
H4842 C4872 0.950 . S
H4843 C4873 0.950 . S
C4844 H4826 0.951 . S
C4844 C4845 1.366 . S
C4844 C4846 1.388 . S
C4845 C4844 1.366 . S
C4845 C4849 1.385 . S
C4846 H4827 0.951 . S
C4846 C4844 1.388 . S
C4846 C4847 1.366 . S
C4847 C4846 1.366 . S
C4847 C4848 1.414 . S
C4847 C4850 1.499 . S
C4848 H4828 0.950 . S
C4848 C4847 1.414 . S
C4848 C4849 1.374 . S
C4849 H4829 0.950 . S
C4849 C4845 1.385 . S
C4849 C4848 1.374 . S
C4850 C4847 1.499 . S
C4850 C4851 1.373 . S
C4850 C4852 1.389 . S
C4851 H4830 0.950 . S
C4851 C4850 1.373 . S
C4851 C4867 1.377 . S
C4852 C4850 1.389 . S
C4852 C4853 1.524 . S
C4852 C4866 1.377 . S
C4853 C4852 1.524 . S
C4853 C4854 1.397 . S
C4853 C4858 1.363 . S
C4854 H4831 0.950 . S
C4854 C4853 1.397 . S
C4854 C4855 1.334 . S
C4855 H4832 0.950 . S
C4855 C4854 1.334 . S
C4855 C4856 1.287 . S
C4856 C4855 1.287 . S
C4856 C4857 1.524 . S
C4856 H4875 0.913 . S
C4857 H4833 0.950 . S
C4857 C4856 1.524 . S
C4857 C4858 1.415 . S
C4858 H4834 0.950 . S
C4858 C4853 1.363 . S
C4858 C4857 1.415 . S
C4859 H4835 0.951 . S
C4859 C4860 1.366 . S
C4859 C4861 1.388 . S
C4860 C4859 1.366 . S
C4860 C4864 1.385 . S
C4861 H4836 0.951 . S
C4861 C4859 1.388 . S
C4861 C4862 1.366 . S
C4862 C4861 1.366 . S
C4862 C4863 1.414 . S
C4862 C4865 1.499 . S
C4863 H4837 0.950 . S
C4863 C4862 1.414 . S
C4863 C4864 1.374 . S
C4864 H4838 0.950 . S
C4864 C4860 1.385 . S
C4864 C4863 1.374 . S
C4865 C4862 1.499 . S
C4865 C4866 1.373 . S
C4865 C4867 1.389 . S
C4866 H4839 0.950 . S
C4866 C4852 1.377 . S
C4866 C4865 1.373 . S
C4867 C4851 1.377 . S
C4867 C4865 1.389 . S
C4867 C4868 1.524 . S
C4868 C4867 1.524 . S
C4868 C4869 1.397 . S
C4868 C4873 1.363 . S
C4869 H4840 0.950 . S
C4869 C4868 1.397 . S
C4869 C4870 1.334 . S
C4870 H4841 0.950 . S
C4870 C4869 1.334 . S
C4870 C4871 1.287 . S
C4871 C4870 1.287 . S
C4871 C4872 1.524 . S
C4871 H4874 0.999 . S
C4872 H4842 0.950 . S
C4872 C4871 1.524 . S
C4872 C4873 1.415 . S
C4873 H4843 0.950 . S
C4873 C4868 1.363 . S
C4873 C4872 1.415 . S
H4874 C4871 0.999 . S
H4875 C4856 0.913 . S
H4876 C4894 0.951 . S
H4877 C4896 0.951 . S
H4878 C4898 0.950 . S
H4879 C4899 0.950 . S
H4880 C4901 0.950 . S
H4881 C4904 0.950 . S
H4882 C4905 0.950 . S
H4883 C4907 0.950 . S
H4884 C4908 0.950 . S
H4885 C4909 0.951 . S
H4886 C4911 0.951 . S
H4887 C4913 0.950 . S
H4888 C4914 0.950 . S
H4889 C4916 0.950 . S
H4890 C4919 0.950 . S
H4891 C4920 0.950 . S
H4892 C4922 0.950 . S
H4893 C4923 0.950 . S
C4894 H4876 0.951 . S
C4894 C4895 1.366 . S
C4894 C4896 1.388 . S
C4895 C4894 1.366 . S
C4895 C4899 1.385 . S
C4896 H4877 0.951 . S
C4896 C4894 1.388 . S
C4896 C4897 1.366 . S
C4897 C4896 1.366 . S
C4897 C4898 1.414 . S
C4897 C4900 1.499 . S
C4898 H4878 0.950 . S
C4898 C4897 1.414 . S
C4898 C4899 1.374 . S
C4899 H4879 0.950 . S
C4899 C4895 1.385 . S
C4899 C4898 1.374 . S
C4900 C4897 1.499 . S
C4900 C4901 1.373 . S
C4900 C4902 1.389 . S
C4901 H4880 0.950 . S
C4901 C4900 1.373 . S
C4901 C4917 1.377 . S
C4902 C4900 1.389 . S
C4902 C4903 1.524 . S
C4902 C4916 1.377 . S
C4903 C4902 1.524 . S
C4903 C4904 1.397 . S
C4903 C4908 1.363 . S
C4904 H4881 0.950 . S
C4904 C4903 1.397 . S
C4904 C4905 1.334 . S
C4905 H4882 0.950 . S
C4905 C4904 1.334 . S
C4905 C4906 1.287 . S
C4906 C4905 1.287 . S
C4906 C4907 1.524 . S
C4906 H4925 0.913 . S
C4907 H4883 0.950 . S
C4907 C4906 1.524 . S
C4907 C4908 1.415 . S
C4908 H4884 0.950 . S
C4908 C4903 1.363 . S
C4908 C4907 1.415 . S
C4909 H4885 0.951 . S
C4909 C4910 1.366 . S
C4909 C4911 1.388 . S
C4910 C4909 1.366 . S
C4910 C4914 1.385 . S
C4911 H4886 0.951 . S
C4911 C4909 1.388 . S
C4911 C4912 1.366 . S
C4912 C4911 1.366 . S
C4912 C4913 1.414 . S
C4912 C4915 1.499 . S
C4913 H4887 0.950 . S
C4913 C4912 1.414 . S
C4913 C4914 1.374 . S
C4914 H4888 0.950 . S
C4914 C4910 1.385 . S
C4914 C4913 1.374 . S
C4915 C4912 1.499 . S
C4915 C4916 1.373 . S
C4915 C4917 1.389 . S
C4916 H4889 0.950 . S
C4916 C4902 1.377 . S
C4916 C4915 1.373 . S
C4917 C4901 1.377 . S
C4917 C4915 1.389 . S
C4917 C4918 1.524 . S
C4918 C4917 1.524 . S
C4918 C4919 1.397 . S
C4918 C4923 1.363 . S
C4919 H4890 0.950 . S
C4919 C4918 1.397 . S
C4919 C4920 1.334 . S
C4920 H4891 0.950 . S
C4920 C4919 1.334 . S
C4920 C4921 1.287 . S
C4921 C4920 1.287 . S
C4921 C4922 1.524 . S
C4921 H4924 0.999 . S
C4922 H4892 0.950 . S
C4922 C4921 1.524 . S
C4922 C4923 1.415 . S
C4923 H4893 0.950 . S
C4923 C4918 1.363 . S
C4923 C4922 1.415 . S
H4924 C4921 0.999 . S
H4925 C4906 0.913 . S
H4926 C4944 0.951 . S
H4927 C4946 0.951 . S
H4928 C4948 0.950 . S
H4929 C4949 0.950 . S
H4930 C4951 0.950 . S
H4931 C4954 0.950 . S
H4932 C4955 0.950 . S
H4933 C4957 0.950 . S
H4934 C4958 0.950 . S
H4935 C4959 0.951 . S
H4936 C4961 0.951 . S
H4937 C4963 0.950 . S
H4938 C4964 0.950 . S
H4939 C4966 0.950 . S
H4940 C4969 0.950 . S
H4941 C4970 0.950 . S
H4942 C4972 0.950 . S
H4943 C4973 0.950 . S
C4944 H4926 0.951 . S
C4944 C4945 1.366 . S
C4944 C4946 1.388 . S
C4945 C4944 1.366 . S
C4945 C4949 1.385 . S
C4946 H4927 0.951 . S
C4946 C4944 1.388 . S
C4946 C4947 1.366 . S
C4947 C4946 1.366 . S
C4947 C4948 1.414 . S
C4947 C4950 1.499 . S
C4948 H4928 0.950 . S
C4948 C4947 1.414 . S
C4948 C4949 1.374 . S
C4949 H4929 0.950 . S
C4949 C4945 1.385 . S
C4949 C4948 1.374 . S
C4950 C4947 1.499 . S
C4950 C4951 1.373 . S
C4950 C4952 1.389 . S
C4951 H4930 0.950 . S
C4951 C4950 1.373 . S
C4951 C4967 1.377 . S
C4952 C4950 1.389 . S
C4952 C4953 1.524 . S
C4952 C4966 1.377 . S
C4953 C4952 1.524 . S
C4953 C4954 1.397 . S
C4953 C4958 1.363 . S
C4954 H4931 0.950 . S
C4954 C4953 1.397 . S
C4954 C4955 1.334 . S
C4955 H4932 0.950 . S
C4955 C4954 1.334 . S
C4955 C4956 1.287 . S
C4956 C4955 1.287 . S
C4956 C4957 1.524 . S
C4956 H4975 0.913 . S
C4957 H4933 0.950 . S
C4957 C4956 1.524 . S
C4957 C4958 1.415 . S
C4958 H4934 0.950 . S
C4958 C4953 1.363 . S
C4958 C4957 1.415 . S
C4959 H4935 0.951 . S
C4959 C4960 1.366 . S
C4959 C4961 1.388 . S
C4960 C4959 1.366 . S
C4960 C4964 1.385 . S
C4961 H4936 0.951 . S
C4961 C4959 1.388 . S
C4961 C4962 1.366 . S
C4962 C4961 1.366 . S
C4962 C4963 1.414 . S
C4962 C4965 1.499 . S
C4963 H4937 0.950 . S
C4963 C4962 1.414 . S
C4963 C4964 1.374 . S
C4964 H4938 0.950 . S
C4964 C4960 1.385 . S
C4964 C4963 1.374 . S
C4965 C4962 1.499 . S
C4965 C4966 1.373 . S
C4965 C4967 1.389 . S
C4966 H4939 0.950 . S
C4966 C4952 1.377 . S
C4966 C4965 1.373 . S
C4967 C4951 1.377 . S
C4967 C4965 1.389 . S
C4967 C4968 1.524 . S
C4968 C4967 1.524 . S
C4968 C4969 1.397 . S
C4968 C4973 1.363 . S
C4969 H4940 0.950 . S
C4969 C4968 1.397 . S
C4969 C4970 1.334 . S
C4970 H4941 0.950 . S
C4970 C4969 1.334 . S
C4970 C4971 1.287 . S
C4971 C4970 1.287 . S
C4971 C4972 1.524 . S
C4971 H4974 0.999 . S
C4972 H4942 0.950 . S
C4972 C4971 1.524 . S
C4972 C4973 1.415 . S
C4973 H4943 0.950 . S
C4973 C4968 1.363 . S
C4973 C4972 1.415 . S
H4974 C4971 0.999 . S
H4975 C4956 0.913 . S
H4976 C4994 0.951 . S
H4977 C4996 0.951 . S
H4978 C4998 0.950 . S
H4979 C4999 0.950 . S
H4980 C5001 0.950 . S
H4981 C5004 0.950 . S
H4982 C5005 0.950 . S
H4983 C5007 0.950 . S
H4984 C5008 0.950 . S
H4985 C5009 0.951 . S
H4986 C5011 0.951 . S
H4987 C5013 0.950 . S
H4988 C5014 0.950 . S
H4989 C5016 0.950 . S
H4990 C5019 0.950 . S
H4991 C5020 0.950 . S
H4992 C5022 0.950 . S
H4993 C5023 0.950 . S
C4994 H4976 0.951 . S
C4994 C4995 1.366 . S
C4994 C4996 1.388 . S
C4995 C4994 1.366 . S
C4995 C4999 1.385 . S
C4996 H4977 0.951 . S
C4996 C4994 1.388 . S
C4996 C4997 1.366 . S
C4997 C4996 1.366 . S
C4997 C4998 1.414 . S
C4997 C5000 1.499 . S
C4998 H4978 0.950 . S
C4998 C4997 1.414 . S
C4998 C4999 1.374 . S
C4999 H4979 0.950 . S
C4999 C4995 1.385 . S
C4999 C4998 1.374 . S
C5000 C4997 1.499 . S
C5000 C5001 1.373 . S
C5000 C5002 1.389 . S
C5001 H4980 0.950 . S
C5001 C5000 1.373 . S
C5001 C5017 1.377 . S
C5002 C5000 1.389 . S
C5002 C5003 1.524 . S
C5002 C5016 1.377 . S
C5003 C5002 1.524 . S
C5003 C5004 1.397 . S
C5003 C5008 1.363 . S
C5004 H4981 0.950 . S
C5004 C5003 1.397 . S
C5004 C5005 1.334 . S
C5005 H4982 0.950 . S
C5005 C5004 1.334 . S
C5005 C5006 1.287 . S
C5006 C5005 1.287 . S
C5006 C5007 1.524 . S
C5006 H5025 0.913 . S
C5007 H4983 0.950 . S
C5007 C5006 1.524 . S
C5007 C5008 1.415 . S
C5008 H4984 0.950 . S
C5008 C5003 1.363 . S
C5008 C5007 1.415 . S
C5009 H4985 0.951 . S
C5009 C5010 1.366 . S
C5009 C5011 1.388 . S
C5010 C5009 1.366 . S
C5010 C5014 1.385 . S
C5011 H4986 0.951 . S
C5011 C5009 1.388 . S
C5011 C5012 1.366 . S
C5012 C5011 1.366 . S
C5012 C5013 1.414 . S
C5012 C5015 1.499 . S
C5013 H4987 0.950 . S
C5013 C5012 1.414 . S
C5013 C5014 1.374 . S
C5014 H4988 0.950 . S
C5014 C5010 1.385 . S
C5014 C5013 1.374 . S
C5015 C5012 1.499 . S
C5015 C5016 1.373 . S
C5015 C5017 1.389 . S
C5016 H4989 0.950 . S
C5016 C5002 1.377 . S
C5016 C5015 1.373 . S
C5017 C5001 1.377 . S
C5017 C5015 1.389 . S
C5017 C5018 1.524 . S
C5018 C5017 1.524 . S
C5018 C5019 1.397 . S
C5018 C5023 1.363 . S
C5019 H4990 0.950 . S
C5019 C5018 1.397 . S
C5019 C5020 1.334 . S
C5020 H4991 0.950 . S
C5020 C5019 1.334 . S
C5020 C5021 1.287 . S
C5021 C5020 1.287 . S
C5021 C5022 1.524 . S
C5021 H5024 0.999 . S
C5022 H4992 0.950 . S
C5022 C5021 1.524 . S
C5022 C5023 1.415 . S
C5023 H4993 0.950 . S
C5023 C5018 1.363 . S
C5023 C5022 1.415 . S
H5024 C5021 0.999 . S
H5025 C5006 0.913 . S
H5026 C5044 0.951 . S
H5027 C5046 0.951 . S
H5028 C5048 0.950 . S
H5029 C5049 0.950 . S
H5030 C5051 0.950 . S
H5031 C5054 0.950 . S
H5032 C5055 0.950 . S
H5033 C5057 0.950 . S
H5034 C5058 0.950 . S
H5035 C5059 0.951 . S
H5036 C5061 0.951 . S
H5037 C5063 0.950 . S
H5038 C5064 0.950 . S
H5039 C5066 0.950 . S
H5040 C5069 0.950 . S
H5041 C5070 0.950 . S
H5042 C5072 0.950 . S
H5043 C5073 0.950 . S
C5044 H5026 0.951 . S
C5044 C5045 1.366 . S
C5044 C5046 1.388 . S
C5045 C5044 1.366 . S
C5045 C5049 1.385 . S
C5046 H5027 0.951 . S
C5046 C5044 1.388 . S
C5046 C5047 1.366 . S
C5047 C5046 1.366 . S
C5047 C5048 1.414 . S
C5047 C5050 1.499 . S
C5048 H5028 0.950 . S
C5048 C5047 1.414 . S
C5048 C5049 1.374 . S
C5049 H5029 0.950 . S
C5049 C5045 1.385 . S
C5049 C5048 1.374 . S
C5050 C5047 1.499 . S
C5050 C5051 1.373 . S
C5050 C5052 1.389 . S
C5051 H5030 0.950 . S
C5051 C5050 1.373 . S
C5051 C5067 1.377 . S
C5052 C5050 1.389 . S
C5052 C5053 1.524 . S
C5052 C5066 1.377 . S
C5053 C5052 1.524 . S
C5053 C5054 1.397 . S
C5053 C5058 1.363 . S
C5054 H5031 0.950 . S
C5054 C5053 1.397 . S
C5054 C5055 1.334 . S
C5055 H5032 0.950 . S
C5055 C5054 1.334 . S
C5055 C5056 1.287 . S
C5056 C5055 1.287 . S
C5056 C5057 1.524 . S
C5056 H5075 0.913 . S
C5057 H5033 0.950 . S
C5057 C5056 1.524 . S
C5057 C5058 1.415 . S
C5058 H5034 0.950 . S
C5058 C5053 1.363 . S
C5058 C5057 1.415 . S
C5059 H5035 0.951 . S
C5059 C5060 1.366 . S
C5059 C5061 1.388 . S
C5060 C5059 1.366 . S
C5060 C5064 1.385 . S
C5061 H5036 0.951 . S
C5061 C5059 1.388 . S
C5061 C5062 1.366 . S
C5062 C5061 1.366 . S
C5062 C5063 1.414 . S
C5062 C5065 1.499 . S
C5063 H5037 0.950 . S
C5063 C5062 1.414 . S
C5063 C5064 1.374 . S
C5064 H5038 0.950 . S
C5064 C5060 1.385 . S
C5064 C5063 1.374 . S
C5065 C5062 1.499 . S
C5065 C5066 1.373 . S
C5065 C5067 1.389 . S
C5066 H5039 0.950 . S
C5066 C5052 1.377 . S
C5066 C5065 1.373 . S
C5067 C5051 1.377 . S
C5067 C5065 1.389 . S
C5067 C5068 1.524 . S
C5068 C5067 1.524 . S
C5068 C5069 1.397 . S
C5068 C5073 1.363 . S
C5069 H5040 0.950 . S
C5069 C5068 1.397 . S
C5069 C5070 1.334 . S
C5070 H5041 0.950 . S
C5070 C5069 1.334 . S
C5070 C5071 1.287 . S
C5071 C5070 1.287 . S
C5071 C5072 1.524 . S
C5071 H5074 0.999 . S
C5072 H5042 0.950 . S
C5072 C5071 1.524 . S
C5072 C5073 1.415 . S
C5073 H5043 0.950 . S
C5073 C5068 1.363 . S
C5073 C5072 1.415 . S
H5074 C5071 0.999 . S
H5075 C5056 0.913 . S
H5076 C5094 0.951 . S
H5077 C5096 0.951 . S
H5078 C5098 0.950 . S
H5079 C5099 0.950 . S
H5080 C5101 0.950 . S
H5081 C5104 0.950 . S
H5082 C5105 0.950 . S
H5083 C5107 0.950 . S
H5084 C5108 0.950 . S
H5085 C5109 0.951 1_655 S
H5086 C5111 0.951 . S
H5087 C5113 0.950 . S
H5088 C5114 0.950 . S
H5089 C5116 0.889 1_455 S
H5090 C5119 0.950 . S
H5091 C5120 0.950 . S
H5092 C5122 0.950 . S
H5093 C5123 0.950 . S
C5094 H5076 0.951 . S
C5094 C5095 1.366 . S
C5094 C5096 1.388 . S
C5095 C5094 1.366 . S
C5095 C5099 1.385 . S
C5096 H5077 0.951 . S
C5096 C5094 1.388 . S
C5096 C5097 1.366 . S
C5097 C5096 1.366 . S
C5097 C5098 1.414 . S
C5097 C5100 1.499 . S
C5098 H5078 0.950 . S
C5098 C5097 1.414 . S
C5098 C5099 1.374 . S
C5099 H5079 0.950 . S
C5099 C5095 1.385 . S
C5099 C5098 1.374 . S
C5100 C5097 1.499 . S
C5100 C5101 1.373 . S
C5100 C5102 1.389 . S
C5101 H5080 0.950 . S
C5101 C5100 1.373 . S
C5101 C5117 1.377 . S
C5102 C5100 1.389 . S
C5102 C5103 1.524 1_655 S
C5102 C5116 1.400 . S
C5103 C5102 1.524 1_455 S
C5103 C5104 1.397 1_455 S
C5103 C5108 1.363 . S
C5104 H5081 0.950 . S
C5104 C5103 1.397 1_655 S
C5104 C5105 1.334 1_655 S
C5105 H5082 0.950 . S
C5105 C5104 1.334 1_455 S
C5105 C5106 1.287 . S
C5106 C5105 1.287 . S
C5106 C5107 1.524 . S
C5106 H5125 0.913 . S
C5107 H5083 0.950 . S
C5107 C5106 1.524 . S
C5107 C5108 1.415 . S
C5108 H5084 0.950 . S
C5108 C5103 1.363 . S
C5108 C5107 1.415 . S
C5109 H5085 0.951 1_455 S
C5109 C5110 1.366 . S
C5109 C5111 1.388 1_455 S
C5110 C5109 1.366 . S
C5110 C5114 1.385 . S
C5111 H5086 0.951 . S
C5111 C5109 1.388 1_655 S
C5111 C5112 1.366 . S
C5112 C5111 1.366 . S
C5112 C5113 1.414 1_655 S
C5112 C5115 1.499 . S
C5113 H5087 0.950 . S
C5113 C5112 1.414 1_455 S
C5113 C5114 1.374 . S
C5114 H5088 0.950 . S
C5114 C5110 1.385 . S
C5114 C5113 1.374 . S
C5115 C5112 1.499 . S
C5115 C5116 1.413 . S
C5115 C5117 1.389 . S
C5116 H5089 0.889 1_655 S
C5116 C5102 1.400 . S
C5116 C5115 1.413 . S
C5117 C5101 1.377 . S
C5117 C5115 1.389 . S
C5117 C5118 1.524 . S
C5118 C5117 1.524 . S
C5118 C5119 1.397 . S
C5118 C5123 1.363 . S
C5119 H5090 0.950 . S
C5119 C5118 1.397 . S
C5119 C5120 1.334 . S
C5120 H5091 0.950 . S
C5120 C5119 1.334 . S
C5120 C5121 1.287 . S
C5121 C5120 1.287 . S
C5121 C5122 1.524 . S
C5121 H5124 0.999 . S
C5122 H5092 0.950 . S
C5122 C5121 1.524 . S
C5122 C5123 1.415 . S
C5123 H5093 0.950 . S
C5123 C5118 1.363 . S
C5123 C5122 1.415 . S
H5124 C5121 0.999 . S
H5125 C5106 0.913 . S
H5126 C5144 0.951 . S
H5127 C5146 0.951 . S
H5128 C5148 0.950 . S
H5129 C5149 0.950 . S
H5130 C5151 0.950 . S
H5131 C5154 0.950 . S
H5132 C5155 0.950 . S
H5133 C5157 0.950 . S
H5134 C5158 0.950 . S
H5135 C5159 0.951 . S
H5136 C5161 0.951 . S
H5137 C5163 0.950 . S
H5138 C5164 0.950 . S
H5139 C5166 0.950 . S
H5140 C5169 0.950 . S
H5141 C5170 0.950 . S
H5142 C5172 0.950 . S
H5143 C5173 0.950 . S
C5144 H5126 0.951 . S
C5144 C5145 1.366 . S
C5144 C5146 1.388 . S
C5145 C5144 1.366 . S
C5145 C5149 1.385 . S
C5146 H5127 0.951 . S
C5146 C5144 1.388 . S
C5146 C5147 1.366 . S
C5147 C5146 1.366 . S
C5147 C5148 1.414 . S
C5147 C5150 1.499 . S
C5148 H5128 0.950 . S
C5148 C5147 1.414 . S
C5148 C5149 1.374 . S
C5149 H5129 0.950 . S
C5149 C5145 1.385 . S
C5149 C5148 1.374 . S
C5150 C5147 1.499 . S
C5150 C5151 1.373 . S
C5150 C5152 1.389 . S
C5151 H5130 0.950 . S
C5151 C5150 1.373 . S
C5151 C5167 1.377 . S
C5152 C5150 1.389 . S
C5152 C5153 1.524 . S
C5152 C5166 1.377 . S
C5153 C5152 1.524 . S
C5153 C5154 1.397 . S
C5153 C5158 1.363 . S
C5154 H5131 0.950 . S
C5154 C5153 1.397 . S
C5154 C5155 1.334 . S
C5155 H5132 0.950 . S
C5155 C5154 1.334 . S
C5155 C5156 1.287 . S
C5156 C5155 1.287 . S
C5156 C5157 1.524 . S
C5156 H5175 0.913 . S
C5157 H5133 0.950 . S
C5157 C5156 1.524 . S
C5157 C5158 1.415 . S
C5158 H5134 0.950 . S
C5158 C5153 1.363 . S
C5158 C5157 1.415 . S
C5159 H5135 0.951 . S
C5159 C5160 1.366 . S
C5159 C5161 1.388 . S
C5160 C5159 1.366 . S
C5160 C5164 1.385 . S
C5161 H5136 0.951 . S
C5161 C5159 1.388 . S
C5161 C5162 1.366 . S
C5162 C5161 1.366 . S
C5162 C5163 1.414 . S
C5162 C5165 1.499 . S
C5163 H5137 0.950 . S
C5163 C5162 1.414 . S
C5163 C5164 1.374 . S
C5164 H5138 0.950 . S
C5164 C5160 1.385 . S
C5164 C5163 1.374 . S
C5165 C5162 1.499 . S
C5165 C5166 1.373 . S
C5165 C5167 1.389 . S
C5166 H5139 0.950 . S
C5166 C5152 1.377 . S
C5166 C5165 1.373 . S
C5167 C5151 1.377 . S
C5167 C5165 1.389 . S
C5167 C5168 1.524 . S
C5168 C5167 1.524 . S
C5168 C5169 1.397 . S
C5168 C5173 1.363 . S
C5169 H5140 0.950 . S
C5169 C5168 1.397 . S
C5169 C5170 1.334 . S
C5170 H5141 0.950 . S
C5170 C5169 1.334 . S
C5170 C5171 1.287 . S
C5171 C5170 1.287 . S
C5171 C5172 1.524 . S
C5171 H5174 0.999 . S
C5172 H5142 0.950 . S
C5172 C5171 1.524 . S
C5172 C5173 1.415 . S
C5173 H5143 0.950 . S
C5173 C5168 1.363 . S
C5173 C5172 1.415 . S
H5174 C5171 0.999 . S
H5175 C5156 0.913 . S
H5176 C5194 0.951 . S
H5177 C5196 0.951 . S
H5178 C5198 0.950 . S
H5179 C5199 0.950 . S
H5180 C5201 0.950 . S
H5181 C5204 0.950 . S
H5182 C5205 0.950 . S
H5183 C5207 0.950 . S
H5184 C5208 0.950 . S
H5185 C5209 0.951 . S
H5186 C5211 0.951 . S
H5187 C5213 0.950 . S
H5188 C5214 0.950 . S
H5189 C5216 0.950 . S
H5190 C5219 0.950 . S
H5191 C5220 0.950 . S
H5192 C5222 0.950 . S
H5193 C5223 0.950 . S
C5194 H5176 0.951 . S
C5194 C5195 1.366 . S
C5194 C5196 1.388 . S
C5195 C5194 1.366 . S
C5195 C5199 1.385 . S
C5196 H5177 0.951 . S
C5196 C5194 1.388 . S
C5196 C5197 1.366 . S
C5197 C5196 1.366 . S
C5197 C5198 1.414 . S
C5197 C5200 1.499 . S
C5198 H5178 0.950 . S
C5198 C5197 1.414 . S
C5198 C5199 1.374 . S
C5199 H5179 0.950 . S
C5199 C5195 1.385 . S
C5199 C5198 1.374 . S
C5200 C5197 1.499 . S
C5200 C5201 1.373 . S
C5200 C5202 1.389 . S
C5201 H5180 0.950 . S
C5201 C5200 1.373 . S
C5201 C5217 1.377 . S
C5202 C5200 1.389 . S
C5202 C5203 1.524 . S
C5202 C5216 1.377 . S
C5203 C5202 1.524 . S
C5203 C5204 1.397 . S
C5203 C5208 1.363 . S
C5204 H5181 0.950 . S
C5204 C5203 1.397 . S
C5204 C5205 1.334 . S
C5205 H5182 0.950 . S
C5205 C5204 1.334 . S
C5205 C5206 1.287 . S
C5206 C5205 1.287 . S
C5206 C5207 1.524 . S
C5206 H5225 0.913 . S
C5207 H5183 0.950 . S
C5207 C5206 1.524 . S
C5207 C5208 1.415 . S
C5208 H5184 0.950 . S
C5208 C5203 1.363 . S
C5208 C5207 1.415 . S
C5209 H5185 0.951 . S
C5209 C5210 1.366 . S
C5209 C5211 1.388 . S
C5210 C5209 1.366 . S
C5210 C5214 1.385 . S
C5211 H5186 0.951 . S
C5211 C5209 1.388 . S
C5211 C5212 1.366 . S
C5212 C5211 1.366 . S
C5212 C5213 1.414 . S
C5212 C5215 1.499 . S
C5213 H5187 0.950 . S
C5213 C5212 1.414 . S
C5213 C5214 1.374 . S
C5214 H5188 0.950 . S
C5214 C5210 1.385 . S
C5214 C5213 1.374 . S
C5215 C5212 1.499 . S
C5215 C5216 1.373 . S
C5215 C5217 1.389 . S
C5216 H5189 0.950 . S
C5216 C5202 1.377 . S
C5216 C5215 1.373 . S
C5217 C5201 1.377 . S
C5217 C5215 1.389 . S
C5217 C5218 1.524 . S
C5218 C5217 1.524 . S
C5218 C5219 1.397 . S
C5218 C5223 1.363 . S
C5219 H5190 0.950 . S
C5219 C5218 1.397 . S
C5219 C5220 1.334 . S
C5220 H5191 0.950 . S
C5220 C5219 1.334 . S
C5220 C5221 1.287 . S
C5221 C5220 1.287 . S
C5221 C5222 1.524 . S
C5221 H5224 0.999 . S
C5222 H5192 0.950 . S
C5222 C5221 1.524 . S
C5222 C5223 1.415 . S
C5223 H5193 0.950 . S
C5223 C5218 1.363 . S
C5223 C5222 1.415 . S
H5224 C5221 0.999 . S
H5225 C5206 0.913 . S
H5226 C5244 0.951 . S
H5227 C5246 0.951 . S
H5228 C5248 0.950 . S
H5229 C5249 0.950 . S
H5230 C5251 0.950 . S
H5231 C5254 0.950 . S
H5232 C5255 0.950 . S
H5233 C5257 0.950 . S
H5234 C5258 0.950 . S
H5235 C5259 0.951 . S
H5236 C5261 0.951 . S
H5237 C5263 0.950 . S
H5238 C5264 0.950 . S
H5239 C5266 0.950 . S
H5240 C5269 0.950 . S
H5241 C5270 0.950 . S
H5242 C5272 0.950 . S
H5243 C5273 0.950 . S
C5244 H5226 0.951 . S
C5244 C5245 1.366 . S
C5244 C5246 1.388 . S
C5245 C5244 1.366 . S
C5245 C5249 1.385 . S
C5246 H5227 0.951 . S
C5246 C5244 1.388 . S
C5246 C5247 1.366 . S
C5247 C5246 1.366 . S
C5247 C5248 1.414 . S
C5247 C5250 1.499 . S
C5248 H5228 0.950 . S
C5248 C5247 1.414 . S
C5248 C5249 1.374 . S
C5249 H5229 0.950 . S
C5249 C5245 1.385 . S
C5249 C5248 1.374 . S
C5250 C5247 1.499 . S
C5250 C5251 1.373 . S
C5250 C5252 1.389 . S
C5251 H5230 0.950 . S
C5251 C5250 1.373 . S
C5251 C5267 1.377 . S
C5252 C5250 1.389 . S
C5252 C5253 1.524 . S
C5252 C5266 1.377 . S
C5253 C5252 1.524 . S
C5253 C5254 1.397 . S
C5253 C5258 1.363 . S
C5254 H5231 0.950 . S
C5254 C5253 1.397 . S
C5254 C5255 1.334 . S
C5255 H5232 0.950 . S
C5255 C5254 1.334 . S
C5255 C5256 1.287 . S
C5256 C5255 1.287 . S
C5256 C5257 1.524 . S
C5256 H5275 0.913 . S
C5257 H5233 0.950 . S
C5257 C5256 1.524 . S
C5257 C5258 1.415 . S
C5258 H5234 0.950 . S
C5258 C5253 1.363 . S
C5258 C5257 1.415 . S
C5259 H5235 0.951 . S
C5259 C5260 1.366 . S
C5259 C5261 1.388 . S
C5260 C5259 1.366 . S
C5260 C5264 1.385 . S
C5261 H5236 0.951 . S
C5261 C5259 1.388 . S
C5261 C5262 1.366 . S
C5262 C5261 1.366 . S
C5262 C5263 1.414 . S
C5262 C5265 1.499 . S
C5263 H5237 0.950 . S
C5263 C5262 1.414 . S
C5263 C5264 1.374 . S
C5264 H5238 0.950 . S
C5264 C5260 1.385 . S
C5264 C5263 1.374 . S
C5265 C5262 1.499 . S
C5265 C5266 1.373 . S
C5265 C5267 1.389 . S
C5266 H5239 0.950 . S
C5266 C5252 1.377 . S
C5266 C5265 1.373 . S
C5267 C5251 1.377 . S
C5267 C5265 1.389 . S
C5267 C5268 1.524 . S
C5268 C5267 1.524 . S
C5268 C5269 1.397 . S
C5268 C5273 1.363 . S
C5269 H5240 0.950 . S
C5269 C5268 1.397 . S
C5269 C5270 1.334 . S
C5270 H5241 0.950 . S
C5270 C5269 1.334 . S
C5270 C5271 1.287 . S
C5271 C5270 1.287 . S
C5271 C5272 1.524 . S
C5271 H5274 0.999 . S
C5272 H5242 0.950 . S
C5272 C5271 1.524 . S
C5272 C5273 1.415 . S
C5273 H5243 0.950 . S
C5273 C5268 1.363 . S
C5273 C5272 1.415 . S
H5274 C5271 0.999 . S
H5275 C5256 0.913 . S
H5276 C5294 0.951 . S
H5277 C5296 0.951 . S
H5278 C5298 0.950 . S
H5279 C5299 0.950 . S
H5280 C5301 0.950 . S
H5281 C5304 0.950 . S
H5282 C5305 0.950 . S
H5283 C5307 0.950 . S
H5284 C5308 0.950 . S
H5285 C5309 0.951 1_455 S
H5286 C5311 0.951 . S
H5287 C5313 0.950 . S
H5288 C5314 0.950 . S
H5289 C5316 0.950 . S
H5290 C5319 0.950 . S
H5291 C5320 0.950 . S
H5292 C5322 0.950 . S
H5293 C5323 0.950 . S
C5294 H5276 0.951 . S
C5294 C5295 1.366 . S
C5294 C5296 1.388 . S
C5295 C5294 1.366 . S
C5295 C5299 1.385 . S
C5296 H5277 0.951 . S
C5296 C5294 1.388 . S
C5296 C5297 1.366 . S
C5297 C5296 1.366 . S
C5297 C5298 1.414 . S
C5297 C5300 1.499 . S
C5298 H5278 0.950 . S
C5298 C5297 1.414 . S
C5298 C5299 1.374 . S
C5299 H5279 0.950 . S
C5299 C5295 1.385 . S
C5299 C5298 1.374 . S
C5300 C5297 1.499 . S
C5300 C5301 1.373 . S
C5300 C5302 1.389 . S
C5301 H5280 0.950 . S
C5301 C5300 1.373 . S
C5301 C5317 1.377 . S
C5302 C5300 1.389 . S
C5302 C5303 1.524 . S
C5302 C5316 1.377 . S
C5303 C5302 1.524 . S
C5303 C5304 1.397 . S
C5303 C5308 1.363 . S
C5304 H5281 0.950 . S
C5304 C5303 1.397 . S
C5304 C5305 1.334 . S
C5305 H5282 0.950 . S
C5305 C5304 1.334 . S
C5305 C5306 1.287 . S
C5306 C5305 1.287 . S
C5306 C5307 1.524 . S
C5306 H5325 0.913 . S
C5307 H5283 0.950 . S
C5307 C5306 1.524 . S
C5307 C5308 1.415 . S
C5308 H5284 0.950 . S
C5308 C5303 1.363 . S
C5308 C5307 1.415 . S
C5309 H5285 0.951 1_655 S
C5309 C5310 1.366 . S
C5309 C5311 1.388 . S
C5310 C5309 1.366 . S
C5310 C5314 1.385 . S
C5311 H5286 0.951 . S
C5311 C5309 1.388 . S
C5311 C5312 1.366 . S
C5312 C5311 1.366 . S
C5312 C5313 1.414 . S
C5312 C5315 1.499 . S
C5313 H5287 0.950 . S
C5313 C5312 1.414 . S
C5313 C5314 1.374 . S
C5314 H5288 0.950 . S
C5314 C5310 1.385 . S
C5314 C5313 1.374 . S
C5315 C5312 1.499 . S
C5315 C5316 1.373 . S
C5315 C5317 1.389 . S
C5316 H5289 0.950 . S
C5316 C5302 1.377 . S
C5316 C5315 1.373 . S
C5317 C5301 1.377 . S
C5317 C5315 1.389 . S
C5317 C5318 1.524 . S
C5318 C5317 1.524 . S
C5318 C5319 1.397 . S
C5318 C5323 1.363 1_655 S
C5319 H5290 0.950 . S
C5319 C5318 1.397 . S
C5319 C5320 1.334 . S
C5320 H5291 0.950 . S
C5320 C5319 1.334 . S
C5320 C5321 1.287 1_655 S
C5321 C5320 1.287 1_455 S
C5321 C5322 1.524 . S
C5321 H5324 0.999 . S
C5322 H5292 0.950 . S
C5322 C5321 1.524 . S
C5322 C5323 1.415 . S
C5323 H5293 0.950 . S
C5323 C5318 1.363 1_455 S
C5323 C5322 1.415 . S
H5324 C5321 0.999 . S
H5325 C5306 0.913 . S
H5326 C5344 0.951 . S
H5327 C5346 0.951 . S
H5328 C5348 0.950 . S
H5329 C5349 0.950 . S
H5330 C5351 0.950 . S
H5331 C5354 0.950 . S
H5332 C5355 0.950 . S
H5333 C5357 0.950 . S
H5334 C5358 0.950 . S
H5335 C5359 0.951 . S
H5336 C5361 0.951 . S
H5337 C5363 0.950 . S
H5338 C5364 0.950 . S
H5339 C5366 0.950 . S
H5340 C5369 0.950 . S
H5341 C5370 0.950 . S
H5342 C5372 0.950 . S
H5343 C5373 0.950 . S
C5344 H5326 0.951 . S
C5344 C5345 1.366 . S
C5344 C5346 1.388 . S
C5345 C5344 1.366 . S
C5345 C5349 1.385 . S
C5346 H5327 0.951 . S
C5346 C5344 1.388 . S
C5346 C5347 1.366 . S
C5347 C5346 1.366 . S
C5347 C5348 1.414 . S
C5347 C5350 1.499 . S
C5348 H5328 0.950 . S
C5348 C5347 1.414 . S
C5348 C5349 1.374 . S
C5349 H5329 0.950 . S
C5349 C5345 1.385 . S
C5349 C5348 1.374 . S
C5350 C5347 1.499 . S
C5350 C5351 1.373 . S
C5350 C5352 1.389 . S
C5351 H5330 0.950 . S
C5351 C5350 1.373 . S
C5351 C5367 1.377 . S
C5352 C5350 1.389 . S
C5352 C5353 1.524 . S
C5352 C5366 1.377 . S
C5353 C5352 1.524 . S
C5353 C5354 1.397 . S
C5353 C5358 1.363 . S
C5354 H5331 0.950 . S
C5354 C5353 1.397 . S
C5354 C5355 1.334 . S
C5355 H5332 0.950 . S
C5355 C5354 1.334 . S
C5355 C5356 1.287 . S
C5356 C5355 1.287 . S
C5356 C5357 1.524 . S
C5356 H5375 0.913 . S
C5357 H5333 0.950 . S
C5357 C5356 1.524 . S
C5357 C5358 1.415 . S
C5358 H5334 0.950 . S
C5358 C5353 1.363 . S
C5358 C5357 1.415 . S
C5359 H5335 0.951 . S
C5359 C5360 1.366 . S
C5359 C5361 1.388 . S
C5360 C5359 1.366 . S
C5360 C5364 1.385 . S
C5361 H5336 0.951 . S
C5361 C5359 1.388 . S
C5361 C5362 1.366 . S
C5362 C5361 1.366 . S
C5362 C5363 1.414 . S
C5362 C5365 1.499 . S
C5363 H5337 0.950 . S
C5363 C5362 1.414 . S
C5363 C5364 1.374 . S
C5364 H5338 0.950 . S
C5364 C5360 1.385 . S
C5364 C5363 1.374 . S
C5365 C5362 1.499 . S
C5365 C5366 1.373 . S
C5365 C5367 1.389 . S
C5366 H5339 0.950 . S
C5366 C5352 1.377 . S
C5366 C5365 1.373 . S
C5367 C5351 1.377 . S
C5367 C5365 1.389 . S
C5367 C5368 1.524 . S
C5368 C5367 1.524 . S
C5368 C5369 1.397 . S
C5368 C5373 1.363 . S
C5369 H5340 0.950 . S
C5369 C5368 1.397 . S
C5369 C5370 1.334 . S
C5370 H5341 0.950 . S
C5370 C5369 1.334 . S
C5370 C5371 1.287 . S
C5371 C5370 1.287 . S
C5371 C5372 1.524 . S
C5371 H5374 0.999 . S
C5372 H5342 0.950 . S
C5372 C5371 1.524 . S
C5372 C5373 1.415 . S
C5373 H5343 0.950 . S
C5373 C5368 1.363 . S
C5373 C5372 1.415 . S
H5374 C5371 0.999 . S
H5375 C5356 0.913 . S
H5376 C5394 0.951 . S
H5377 C5396 0.951 . S
H5378 C5398 0.950 . S
H5379 C5399 0.950 . S
H5380 C5401 0.950 . S
H5381 C5404 0.950 . S
H5382 C5405 0.950 . S
H5383 C5407 0.950 . S
H5384 C5408 0.950 . S
H5385 C5409 0.951 . S
H5386 C5411 0.951 . S
H5387 C5413 0.950 . S
H5388 C5414 0.950 . S
H5389 C5416 0.950 . S
H5390 C5419 0.950 . S
H5391 C5420 0.950 . S
H5392 C5422 0.950 . S
H5393 C5423 0.950 . S
C5394 H5376 0.951 . S
C5394 C5395 1.366 . S
C5394 C5396 1.388 . S
C5395 C5394 1.366 . S
C5395 C5399 1.385 . S
C5396 H5377 0.951 . S
C5396 C5394 1.388 . S
C5396 C5397 1.366 . S
C5397 C5396 1.366 . S
C5397 C5398 1.414 . S
C5397 C5400 1.499 . S
C5398 H5378 0.950 . S
C5398 C5397 1.414 . S
C5398 C5399 1.374 . S
C5399 H5379 0.950 . S
C5399 C5395 1.385 . S
C5399 C5398 1.374 . S
C5400 C5397 1.499 . S
C5400 C5401 1.373 . S
C5400 C5402 1.389 . S
C5401 H5380 0.950 . S
C5401 C5400 1.373 . S
C5401 C5417 1.377 . S
C5402 C5400 1.389 . S
C5402 C5403 1.524 . S
C5402 C5416 1.377 . S
C5403 C5402 1.524 . S
C5403 C5404 1.397 . S
C5403 C5408 1.363 . S
C5404 H5381 0.950 . S
C5404 C5403 1.397 . S
C5404 C5405 1.334 . S
C5405 H5382 0.950 . S
C5405 C5404 1.334 . S
C5405 C5406 1.287 . S
C5406 C5405 1.287 . S
C5406 C5407 1.524 . S
C5406 H5425 0.913 . S
C5407 H5383 0.950 . S
C5407 C5406 1.524 . S
C5407 C5408 1.415 . S
C5408 H5384 0.950 . S
C5408 C5403 1.363 . S
C5408 C5407 1.415 . S
C5409 H5385 0.951 . S
C5409 C5410 1.366 . S
C5409 C5411 1.388 . S
C5410 C5409 1.366 . S
C5410 C5414 1.385 . S
C5411 H5386 0.951 . S
C5411 C5409 1.388 . S
C5411 C5412 1.366 . S
C5412 C5411 1.366 . S
C5412 C5413 1.414 . S
C5412 C5415 1.499 . S
C5413 H5387 0.950 . S
C5413 C5412 1.414 . S
C5413 C5414 1.374 . S
C5414 H5388 0.950 . S
C5414 C5410 1.385 . S
C5414 C5413 1.374 . S
C5415 C5412 1.499 . S
C5415 C5416 1.373 . S
C5415 C5417 1.389 . S
C5416 H5389 0.950 . S
C5416 C5402 1.377 . S
C5416 C5415 1.373 . S
C5417 C5401 1.377 . S
C5417 C5415 1.389 . S
C5417 C5418 1.524 . S
C5418 C5417 1.524 . S
C5418 C5419 1.397 . S
C5418 C5423 1.363 . S
C5419 H5390 0.950 . S
C5419 C5418 1.397 . S
C5419 C5420 1.334 . S
C5420 H5391 0.950 . S
C5420 C5419 1.334 . S
C5420 C5421 1.287 . S
C5421 C5420 1.287 . S
C5421 C5422 1.524 . S
C5421 H5424 0.999 . S
C5422 H5392 0.950 . S
C5422 C5421 1.524 . S
C5422 C5423 1.415 . S
C5423 H5393 0.950 . S
C5423 C5418 1.363 . S
C5423 C5422 1.415 . S
H5424 C5421 0.999 . S
H5425 C5406 0.913 . S
H5426 C5444 0.951 . S
H5427 C5446 0.951 . S
H5428 C5448 0.950 . S
H5429 C5449 0.950 . S
H5430 C5451 0.950 . S
H5431 C5454 0.950 . S
H5432 C5455 0.950 . S
H5433 C5457 0.950 . S
H5434 C5458 0.950 . S
H5435 C5459 0.951 . S
H5436 C5461 0.951 . S
H5437 C5463 0.950 . S
H5438 C5464 0.950 1_545 S
H5439 C5466 0.950 . S
H5440 C5469 0.950 . S
H5441 C5470 0.950 . S
H5442 C5472 0.950 . S
H5443 C5473 0.950 . S
C5444 H5426 0.951 . S
C5444 C5445 1.366 . S
C5444 C5446 1.388 . S
C5445 C5444 1.366 . S
C5445 C5449 1.385 . S
C5446 H5427 0.951 . S
C5446 C5444 1.388 . S
C5446 C5447 1.366 . S
C5447 C5446 1.366 . S
C5447 C5448 1.414 . S
C5447 C5450 1.499 . S
C5448 H5428 0.950 . S
C5448 C5447 1.414 . S
C5448 C5449 1.374 . S
C5449 H5429 0.950 . S
C5449 C5445 1.385 . S
C5449 C5448 1.374 . S
C5450 C5447 1.499 . S
C5450 C5451 1.373 . S
C5450 C5452 1.389 . S
C5451 H5430 0.950 . S
C5451 C5450 1.373 . S
C5451 C5467 1.377 . S
C5452 C5450 1.389 . S
C5452 C5453 1.524 . S
C5452 C5466 1.377 . S
C5453 C5452 1.524 . S
C5453 C5454 1.397 . S
C5453 C5458 1.363 . S
C5454 H5431 0.950 . S
C5454 C5453 1.397 . S
C5454 C5455 1.334 . S
C5455 H5432 0.950 . S
C5455 C5454 1.334 . S
C5455 C5456 1.287 . S
C5456 C5455 1.287 . S
C5456 C5457 1.524 . S
C5456 H5475 0.913 . S
C5457 H5433 0.950 . S
C5457 C5456 1.524 . S
C5457 C5458 1.415 . S
C5458 H5434 0.950 . S
C5458 C5453 1.363 . S
C5458 C5457 1.415 . S
C5459 H5435 0.951 . S
C5459 C5460 1.366 1_565 S
C5459 C5461 1.388 . S
C5460 C5459 1.366 1_545 S
C5460 C5464 1.385 1_545 S
C5461 H5436 0.951 . S
C5461 C5459 1.388 . S
C5461 C5462 1.366 . S
C5462 C5461 1.366 . S
C5462 C5463 1.414 . S
C5462 C5465 1.499 . S
C5463 H5437 0.950 . S
C5463 C5462 1.414 . S
C5463 C5464 1.374 . S
C5464 H5438 0.950 1_565 S
C5464 C5460 1.385 1_565 S
C5464 C5463 1.374 . S
C5465 C5462 1.499 . S
C5465 C5466 1.373 . S
C5465 C5467 1.389 . S
C5466 H5439 0.950 . S
C5466 C5452 1.377 . S
C5466 C5465 1.373 . S
C5467 C5451 1.377 . S
C5467 C5465 1.389 . S
C5467 C5468 1.524 . S
C5468 C5467 1.524 . S
C5468 C5469 1.397 . S
C5468 C5473 1.363 . S
C5469 H5440 0.950 . S
C5469 C5468 1.397 . S
C5469 C5470 1.334 . S
C5470 H5441 0.950 . S
C5470 C5469 1.334 . S
C5470 C5471 1.287 . S
C5471 C5470 1.287 . S
C5471 C5472 1.524 . S
C5471 H5474 0.999 . S
C5472 H5442 0.950 . S
C5472 C5471 1.524 . S
C5472 C5473 1.415 . S
C5473 H5443 0.950 . S
C5473 C5468 1.363 . S
C5473 C5472 1.415 . S
H5474 C5471 0.999 . S
H5475 C5456 0.913 . S
H5476 C5494 0.951 . S
H5477 C5496 0.951 . S
H5478 C5498 0.950 . S
H5479 C5499 0.950 . S
H5480 C5501 0.950 . S
H5481 C5504 0.950 . S
H5482 C5505 0.950 . S
H5483 C5507 0.950 . S
H5484 C5508 0.950 . S
H5485 C5509 0.951 . S
H5486 C5511 0.951 . S
H5487 C5513 0.950 . S
H5488 C5514 0.950 . S
H5489 C5516 0.950 . S
H5490 C5519 0.950 . S
H5491 C5520 0.950 . S
H5492 C5522 0.950 . S
H5493 C5523 0.950 . S
C5494 H5476 0.951 . S
C5494 C5495 1.366 . S
C5494 C5496 1.388 . S
C5495 C5494 1.366 . S
C5495 C5499 1.385 . S
C5496 H5477 0.951 . S
C5496 C5494 1.388 . S
C5496 C5497 1.366 . S
C5497 C5496 1.366 . S
C5497 C5498 1.414 . S
C5497 C5500 1.499 . S
C5498 H5478 0.950 . S
C5498 C5497 1.414 . S
C5498 C5499 1.374 . S
C5499 H5479 0.950 . S
C5499 C5495 1.385 . S
C5499 C5498 1.374 . S
C5500 C5497 1.499 . S
C5500 C5501 1.373 . S
C5500 C5502 1.389 . S
C5501 H5480 0.950 . S
C5501 C5500 1.373 . S
C5501 C5517 1.377 . S
C5502 C5500 1.389 . S
C5502 C5503 1.524 . S
C5502 C5516 1.377 . S
C5503 C5502 1.524 . S
C5503 C5504 1.397 . S
C5503 C5508 1.363 . S
C5504 H5481 0.950 . S
C5504 C5503 1.397 . S
C5504 C5505 1.334 . S
C5505 H5482 0.950 . S
C5505 C5504 1.334 . S
C5505 C5506 1.287 . S
C5506 C5505 1.287 . S
C5506 C5507 1.524 . S
C5506 H5525 0.913 . S
C5507 H5483 0.950 . S
C5507 C5506 1.524 . S
C5507 C5508 1.415 . S
C5508 H5484 0.950 . S
C5508 C5503 1.363 . S
C5508 C5507 1.415 . S
C5509 H5485 0.951 . S
C5509 C5510 1.366 . S
C5509 C5511 1.388 . S
C5510 C5509 1.366 . S
C5510 C5514 1.385 . S
C5511 H5486 0.951 . S
C5511 C5509 1.388 . S
C5511 C5512 1.366 . S
C5512 C5511 1.366 . S
C5512 C5513 1.414 . S
C5512 C5515 1.499 . S
C5513 H5487 0.950 . S
C5513 C5512 1.414 . S
C5513 C5514 1.374 . S
C5514 H5488 0.950 . S
C5514 C5510 1.385 . S
C5514 C5513 1.374 . S
C5515 C5512 1.499 . S
C5515 C5516 1.373 . S
C5515 C5517 1.389 . S
C5516 H5489 0.950 . S
C5516 C5502 1.377 . S
C5516 C5515 1.373 . S
C5517 C5501 1.377 . S
C5517 C5515 1.389 . S
C5517 C5518 1.524 . S
C5518 C5517 1.524 . S
C5518 C5519 1.397 . S
C5518 C5523 1.363 . S
C5519 H5490 0.950 . S
C5519 C5518 1.397 . S
C5519 C5520 1.334 . S
C5520 H5491 0.950 . S
C5520 C5519 1.334 . S
C5520 C5521 1.287 . S
C5521 C5520 1.287 . S
C5521 C5522 1.524 . S
C5521 H5524 0.999 . S
C5522 H5492 0.950 . S
C5522 C5521 1.524 . S
C5522 C5523 1.415 . S
C5523 H5493 0.950 . S
C5523 C5518 1.363 . S
C5523 C5522 1.415 . S
H5524 C5521 0.999 . S
H5525 C5506 0.913 . S
H5526 C5544 0.951 . S
H5527 C5546 0.951 . S
H5528 C5548 0.950 . S
H5529 C5549 0.950 . S
H5530 C5551 0.950 . S
H5531 C5554 0.950 . S
H5532 C5555 0.950 . S
H5533 C5557 0.950 . S
H5534 C5558 0.950 . S
H5535 C5559 0.951 . S
H5536 C5561 0.951 . S
H5537 C5563 0.942 1_556 S
H5538 C5564 0.944 1_556 S
H5539 C5566 0.950 . S
H5540 C5569 0.950 . S
H5541 C5570 0.950 . S
H5542 C5572 0.950 . S
H5543 C5573 0.950 . S
C5544 H5526 0.951 . S
C5544 C5545 1.366 . S
C5544 C5546 1.388 . S
C5545 C5544 1.366 . S
C5545 C5549 1.385 . S
C5546 H5527 0.951 . S
C5546 C5544 1.388 . S
C5546 C5547 1.366 . S
C5547 C5546 1.366 . S
C5547 C5548 1.414 . S
C5547 C5550 1.499 . S
C5548 H5528 0.950 . S
C5548 C5547 1.414 . S
C5548 C5549 1.374 . S
C5549 H5529 0.950 . S
C5549 C5545 1.385 . S
C5549 C5548 1.374 . S
C5550 C5547 1.499 . S
C5550 C5551 1.373 1_554 S
C5550 C5552 1.389 . S
C5551 H5530 0.950 . S
C5551 C5550 1.373 1_556 S
C5551 C5567 1.377 . S
C5552 C5550 1.389 . S
C5552 C5553 1.524 . S
C5552 C5566 1.377 . S
C5553 C5552 1.524 . S
C5553 C5554 1.397 . S
C5553 C5558 1.363 . S
C5554 H5531 0.950 . S
C5554 C5553 1.397 . S
C5554 C5555 1.334 . S
C5555 H5532 0.950 . S
C5555 C5554 1.334 . S
C5555 C5556 1.287 . S
C5556 C5555 1.287 . S
C5556 C5557 1.524 . S
C5556 H5575 0.913 . S
C5557 H5533 0.950 . S
C5557 C5556 1.524 . S
C5557 C5558 1.415 . S
C5558 H5534 0.950 . S
C5558 C5553 1.363 . S
C5558 C5557 1.415 . S
C5559 H5535 0.951 . S
C5559 C5560 1.366 . S
C5559 C5561 1.388 . S
C5560 C5559 1.366 . S
C5560 C5564 1.385 . S
C5561 H5536 0.951 . S
C5561 C5559 1.388 . S
C5561 C5562 1.366 . S
C5562 C5561 1.366 . S
C5562 C5563 1.414 . S
C5562 C5565 1.499 . S
C5563 H5537 0.942 1_554 S
C5563 C5562 1.414 . S
C5563 C5564 1.374 . S
C5564 H5538 0.944 1_554 S
C5564 C5560 1.385 . S
C5564 C5563 1.374 . S
C5565 C5562 1.499 . S
C5565 C5566 1.373 . S
C5565 C5567 1.389 1_554 S
C5566 H5539 0.950 . S
C5566 C5552 1.377 . S
C5566 C5565 1.373 . S
C5567 C5551 1.377 . S
C5567 C5565 1.389 1_556 S
C5567 C5568 1.524 . S
C5568 C5567 1.524 . S
C5568 C5569 1.397 . S
C5568 C5573 1.363 . S
C5569 H5540 0.950 . S
C5569 C5568 1.397 . S
C5569 C5570 1.334 . S
C5570 H5541 0.950 . S
C5570 C5569 1.334 . S
C5570 C5571 1.287 . S
C5571 C5570 1.287 . S
C5571 C5572 1.524 . S
C5571 H5574 0.999 . S
C5572 H5542 0.950 . S
C5572 C5571 1.524 . S
C5572 C5573 1.415 . S
C5573 H5543 0.950 . S
C5573 C5568 1.363 . S
C5573 C5572 1.415 . S
H5574 C5571 0.999 . S
H5575 C5556 0.913 . S
H5576 C5594 0.951 . S
H5577 C5596 0.951 . S
H5578 C5598 0.950 . S
H5579 C5599 0.950 . S
H5580 C5601 0.950 . S
H5581 C5604 0.950 . S
H5582 C5605 0.950 . S
H5583 C5607 0.950 . S
H5584 C5608 0.950 . S
H5585 C5609 0.951 . S
H5586 C5611 0.951 . S
H5587 C5613 0.950 . S
H5588 C5614 0.950 . S
H5589 C5616 0.950 . S
H5590 C5619 0.950 . S
H5591 C5620 0.950 . S
H5592 C5622 0.950 . S
H5593 C5623 0.950 . S
C5594 H5576 0.951 . S
C5594 C5595 1.366 . S
C5594 C5596 1.388 . S
C5595 C5594 1.366 . S
C5595 C5599 1.385 . S
C5596 H5577 0.951 . S
C5596 C5594 1.388 . S
C5596 C5597 1.366 . S
C5597 C5596 1.366 . S
C5597 C5598 1.414 . S
C5597 C5600 1.499 . S
C5598 H5578 0.950 . S
C5598 C5597 1.414 . S
C5598 C5599 1.374 . S
C5599 H5579 0.950 . S
C5599 C5595 1.385 . S
C5599 C5598 1.374 . S
C5600 C5597 1.499 . S
C5600 C5601 1.373 . S
C5600 C5602 1.389 . S
C5601 H5580 0.950 . S
C5601 C5600 1.373 . S
C5601 C5617 1.377 . S
C5602 C5600 1.389 . S
C5602 C5603 1.524 . S
C5602 C5616 1.377 . S
C5603 C5602 1.524 . S
C5603 C5604 1.397 . S
C5603 C5608 1.363 . S
C5604 H5581 0.950 . S
C5604 C5603 1.397 . S
C5604 C5605 1.334 . S
C5605 H5582 0.950 . S
C5605 C5604 1.334 . S
C5605 C5606 1.287 . S
C5606 C5605 1.287 . S
C5606 C5607 1.524 . S
C5606 H5625 0.913 . S
C5607 H5583 0.950 . S
C5607 C5606 1.524 . S
C5607 C5608 1.415 . S
C5608 H5584 0.950 . S
C5608 C5603 1.363 . S
C5608 C5607 1.415 . S
C5609 H5585 0.951 . S
C5609 C5610 1.366 . S
C5609 C5611 1.388 . S
C5610 C5609 1.366 . S
C5610 C5614 1.385 . S
C5611 H5586 0.951 . S
C5611 C5609 1.388 . S
C5611 C5612 1.366 . S
C5612 C5611 1.366 . S
C5612 C5613 1.414 . S
C5612 C5615 1.499 . S
C5613 H5587 0.950 . S
C5613 C5612 1.414 . S
C5613 C5614 1.374 . S
C5614 H5588 0.950 . S
C5614 C5610 1.385 . S
C5614 C5613 1.374 . S
C5615 C5612 1.499 . S
C5615 C5616 1.373 . S
C5615 C5617 1.389 . S
C5616 H5589 0.950 . S
C5616 C5602 1.377 . S
C5616 C5615 1.373 . S
C5617 C5601 1.377 . S
C5617 C5615 1.389 . S
C5617 C5618 1.524 . S
C5618 C5617 1.524 . S
C5618 C5619 1.397 . S
C5618 C5623 1.363 . S
C5619 H5590 0.950 . S
C5619 C5618 1.397 . S
C5619 C5620 1.334 . S
C5620 H5591 0.950 . S
C5620 C5619 1.334 . S
C5620 C5621 1.287 . S
C5621 C5620 1.287 . S
C5621 C5622 1.524 . S
C5621 H5624 0.999 . S
C5622 H5592 0.950 . S
C5622 C5621 1.524 . S
C5622 C5623 1.415 . S
C5623 H5593 0.950 . S
C5623 C5618 1.363 . S
C5623 C5622 1.415 . S
H5624 C5621 0.999 . S
H5625 C5606 0.913 . S
H5626 C5644 0.951 . S
H5627 C5646 0.951 . S
H5628 C5648 0.950 . S
H5629 C5649 0.950 . S
H5630 C5651 0.950 . S
H5631 C5654 0.950 . S
H5632 C5655 0.950 . S
H5633 C5657 0.950 . S
H5634 C5658 0.950 . S
H5635 C5659 0.951 . S
H5636 C5661 0.951 . S
H5637 C5663 0.950 . S
H5638 C5664 0.950 . S
H5639 C5666 0.950 . S
H5640 C5669 0.950 . S
H5641 C5670 0.950 . S
H5642 C5672 0.950 . S
H5643 C5673 0.950 . S
C5644 H5626 0.951 . S
C5644 C5645 1.366 . S
C5644 C5646 1.388 . S
C5645 C5644 1.366 . S
C5645 C5649 1.385 . S
C5646 H5627 0.951 . S
C5646 C5644 1.388 . S
C5646 C5647 1.366 . S
C5647 C5646 1.366 . S
C5647 C5648 1.414 . S
C5647 C5650 1.499 . S
C5648 H5628 0.950 . S
C5648 C5647 1.414 . S
C5648 C5649 1.374 . S
C5649 H5629 0.950 . S
C5649 C5645 1.385 . S
C5649 C5648 1.374 . S
C5650 C5647 1.499 . S
C5650 C5651 1.373 . S
C5650 C5652 1.389 1_554 S
C5651 H5630 0.950 . S
C5651 C5650 1.373 . S
C5651 C5667 1.377 . S
C5652 C5650 1.389 1_556 S
C5652 C5653 1.524 . S
C5652 C5666 1.377 . S
C5653 C5652 1.524 . S
C5653 C5654 1.397 . S
C5653 C5658 1.363 . S
C5654 H5631 0.950 . S
C5654 C5653 1.397 . S
C5654 C5655 1.334 . S
C5655 H5632 0.950 . S
C5655 C5654 1.334 . S
C5655 C5656 1.287 . S
C5656 C5655 1.287 . S
C5656 C5657 1.524 . S
C5656 H5675 0.913 . S
C5657 H5633 0.950 . S
C5657 C5656 1.524 . S
C5657 C5658 1.415 . S
C5658 H5634 0.950 . S
C5658 C5653 1.363 . S
C5658 C5657 1.415 . S
C5659 H5635 0.951 . S
C5659 C5660 1.366 . S
C5659 C5661 1.388 . S
C5660 C5659 1.366 . S
C5660 C5664 1.385 . S
C5661 H5636 0.951 . S
C5661 C5659 1.388 . S
C5661 C5662 1.366 . S
C5662 C5661 1.366 . S
C5662 C5663 1.414 . S
C5662 C5665 1.499 . S
C5663 H5637 0.950 . S
C5663 C5662 1.414 . S
C5663 C5664 1.374 . S
C5664 H5638 0.950 . S
C5664 C5660 1.385 . S
C5664 C5663 1.374 . S
C5665 C5662 1.499 . S
C5665 C5666 1.373 . S
C5665 C5667 1.389 1_556 S
C5666 H5639 0.950 . S
C5666 C5652 1.377 . S
C5666 C5665 1.373 . S
C5667 C5651 1.377 . S
C5667 C5665 1.389 1_554 S
C5667 C5668 1.524 . S
C5668 C5667 1.524 . S
C5668 C5669 1.397 . S
C5668 C5673 1.363 . S
C5669 H5640 0.950 . S
C5669 C5668 1.397 . S
C5669 C5670 1.334 . S
C5670 H5641 0.950 . S
C5670 C5669 1.334 . S
C5670 C5671 1.287 . S
C5671 C5670 1.287 . S
C5671 C5672 1.524 . S
C5671 H5674 0.999 . S
C5672 H5642 0.950 . S
C5672 C5671 1.524 . S
C5672 C5673 1.415 . S
C5673 H5643 0.950 . S
C5673 C5668 1.363 . S
C5673 C5672 1.415 . S
H5674 C5671 0.999 . S
H5675 C5656 0.913 . S
H5676 C5694 0.951 1_545 S
H5677 C5696 0.951 . S
H5678 C5698 0.950 . S
H5679 C5699 0.950 . S
H5680 C5701 0.950 . S
H5681 C5704 0.950 . S
H5682 C5705 0.950 . S
H5683 C5707 0.950 . S
H5684 C5708 0.950 . S
H5685 C5709 0.951 . S
H5686 C5711 0.951 . S
H5687 C5713 0.950 . S
H5688 C5714 0.950 . S
H5689 C5716 0.950 . S
H5690 C5719 0.950 . S
H5691 C5720 0.950 . S
H5692 C5722 0.950 . S
H5693 C5723 0.950 . S
C5694 H5676 0.951 1_565 S
C5694 C5695 1.366 . S
C5694 C5696 1.388 . S
C5695 C5694 1.366 . S
C5695 C5699 1.385 . S
C5696 H5677 0.951 . S
C5696 C5694 1.388 . S
C5696 C5697 1.366 . S
C5697 C5696 1.366 . S
C5697 C5698 1.414 . S
C5697 C5700 1.499 . S
C5698 H5678 0.950 . S
C5698 C5697 1.414 . S
C5698 C5699 1.374 . S
C5699 H5679 0.950 . S
C5699 C5695 1.385 . S
C5699 C5698 1.374 . S
C5700 C5697 1.499 . S
C5700 C5701 1.373 . S
C5700 C5702 1.389 . S
C5701 H5680 0.950 . S
C5701 C5700 1.373 . S
C5701 C5717 1.377 . S
C5702 C5700 1.389 . S
C5702 C5703 1.524 . S
C5702 C5716 1.377 . S
C5703 C5702 1.524 . S
C5703 C5704 1.397 . S
C5703 C5708 1.363 . S
C5704 H5681 0.950 . S
C5704 C5703 1.397 . S
C5704 C5705 1.334 . S
C5705 H5682 0.950 . S
C5705 C5704 1.334 . S
C5705 C5706 1.287 . S
C5706 C5705 1.287 . S
C5706 C5707 1.524 . S
C5706 H5725 0.913 . S
C5707 H5683 0.950 . S
C5707 C5706 1.524 . S
C5707 C5708 1.415 . S
C5708 H5684 0.950 . S
C5708 C5703 1.363 . S
C5708 C5707 1.415 . S
C5709 H5685 0.951 . S
C5709 C5710 1.366 . S
C5709 C5711 1.388 . S
C5710 C5709 1.366 . S
C5710 C5714 1.385 . S
C5711 H5686 0.951 . S
C5711 C5709 1.388 . S
C5711 C5712 1.366 . S
C5712 C5711 1.366 . S
C5712 C5713 1.414 . S
C5712 C5715 1.499 . S
C5713 H5687 0.950 . S
C5713 C5712 1.414 . S
C5713 C5714 1.374 . S
C5714 H5688 0.950 . S
C5714 C5710 1.385 . S
C5714 C5713 1.374 . S
C5715 C5712 1.499 . S
C5715 C5716 1.373 . S
C5715 C5717 1.389 . S
C5716 H5689 0.950 . S
C5716 C5702 1.377 . S
C5716 C5715 1.373 . S
C5717 C5701 1.377 . S
C5717 C5715 1.389 . S
C5717 C5718 1.524 . S
C5718 C5717 1.524 . S
C5718 C5719 1.397 . S
C5718 C5723 1.363 . S
C5719 H5690 0.950 . S
C5719 C5718 1.397 . S
C5719 C5720 1.334 . S
C5720 H5691 0.950 . S
C5720 C5719 1.334 . S
C5720 C5721 1.287 . S
C5721 C5720 1.287 . S
C5721 C5722 1.524 . S
C5721 H5724 0.999 . S
C5722 H5692 0.950 . S
C5722 C5721 1.524 . S
C5722 C5723 1.415 . S
C5723 H5693 0.950 . S
C5723 C5718 1.363 . S
C5723 C5722 1.415 . S
H5724 C5721 0.999 . S
H5725 C5706 0.913 . S
H5726 C5744 0.951 . S
H5727 C5746 0.951 . S
H5728 C5748 0.950 . S
H5729 C5749 0.950 . S
H5730 C5751 0.950 . S
H5731 C5754 0.950 . S
H5732 C5755 0.950 . S
H5733 C5757 0.950 . S
H5734 C5758 0.950 . S
H5735 C5759 0.951 . S
H5736 C5761 0.951 . S
H5737 C5763 0.950 . S
H5738 C5764 0.950 . S
H5739 C5766 0.950 . S
H5740 C5769 0.950 . S
H5741 C5770 0.950 . S
H5742 C5772 0.950 . S
H5743 C5773 0.950 . S
C5744 H5726 0.951 . S
C5744 C5745 1.366 . S
C5744 C5746 1.388 . S
C5745 C5744 1.366 . S
C5745 C5749 1.385 . S
C5746 H5727 0.951 . S
C5746 C5744 1.388 . S
C5746 C5747 1.366 . S
C5747 C5746 1.366 . S
C5747 C5748 1.414 . S
C5747 C5750 1.499 . S
C5748 H5728 0.950 . S
C5748 C5747 1.414 . S
C5748 C5749 1.374 . S
C5749 H5729 0.950 . S
C5749 C5745 1.385 . S
C5749 C5748 1.374 . S
C5750 C5747 1.499 . S
C5750 C5751 1.373 . S
C5750 C5752 1.389 . S
C5751 H5730 0.950 . S
C5751 C5750 1.373 . S
C5751 C5767 1.377 . S
C5752 C5750 1.389 . S
C5752 C5753 1.524 . S
C5752 C5766 1.377 . S
C5753 C5752 1.524 . S
C5753 C5754 1.397 . S
C5753 C5758 1.363 . S
C5754 H5731 0.950 . S
C5754 C5753 1.397 . S
C5754 C5755 1.334 . S
C5755 H5732 0.950 . S
C5755 C5754 1.334 . S
C5755 C5756 1.287 . S
C5756 C5755 1.287 . S
C5756 C5757 1.524 . S
C5756 H5775 0.913 . S
C5757 H5733 0.950 . S
C5757 C5756 1.524 . S
C5757 C5758 1.415 . S
C5758 H5734 0.950 . S
C5758 C5753 1.363 . S
C5758 C5757 1.415 . S
C5759 H5735 0.951 . S
C5759 C5760 1.366 . S
C5759 C5761 1.388 . S
C5760 C5759 1.366 . S
C5760 C5764 1.385 . S
C5761 H5736 0.951 . S
C5761 C5759 1.388 . S
C5761 C5762 1.366 . S
C5762 C5761 1.366 . S
C5762 C5763 1.414 . S
C5762 C5765 1.499 . S
C5763 H5737 0.950 . S
C5763 C5762 1.414 . S
C5763 C5764 1.374 . S
C5764 H5738 0.950 . S
C5764 C5760 1.385 . S
C5764 C5763 1.374 . S
C5765 C5762 1.499 . S
C5765 C5766 1.373 . S
C5765 C5767 1.389 . S
C5766 H5739 0.950 . S
C5766 C5752 1.377 . S
C5766 C5765 1.373 . S
C5767 C5751 1.377 . S
C5767 C5765 1.389 . S
C5767 C5768 1.524 . S
C5768 C5767 1.524 . S
C5768 C5769 1.397 . S
C5768 C5773 1.363 . S
C5769 H5740 0.950 . S
C5769 C5768 1.397 . S
C5769 C5770 1.334 . S
C5770 H5741 0.950 . S
C5770 C5769 1.334 . S
C5770 C5771 1.287 . S
C5771 C5770 1.287 . S
C5771 C5772 1.524 . S
C5771 H5774 0.999 . S
C5772 H5742 0.950 . S
C5772 C5771 1.524 . S
C5772 C5773 1.415 . S
C5773 H5743 0.950 . S
C5773 C5768 1.363 . S
C5773 C5772 1.415 . S
H5774 C5771 0.999 . S
H5775 C5756 0.913 . S
C995 C111 2.101 . S
C1010 C346 2.119 . S
C1045 C64 2.016 . S
C1060 C394 2.083 . S
C1095 C77 0.887 . S
C1110 C426 0.879 . S
C1160 C471 1.177 . S
C1145 C95 1.182 . S
C1195 C25 0.965 . S
C1210 C511 0.950 . S
C1260 C542 0.264 . S
C1245 C36 0.387 . S
C1310 C594 1.155 . S
C1295 C50 1.094 . S
C1345 C11 1.621 . S
C1360 C626 1.556 . S
C1410 C354 2.358 . S
C1395 C237 2.248 . S
C1445 C245 0.247 . S
C1460 C391 0.348 . S
C1510 C434 1.221 . S
C1495 C279 1.158 . S
C1560 C466 1.061 . S
C1545 C175 1.070 . S
C1595 C231 1.566 . S
C1610 C506 1.560 . S
C1660 C545 1.376 . S
C1645 C251 1.319 . S
C1710 C591 0.309 . S
C1695 C273 0.173 . S
C1760 C634 1.924 . S
C1745 C181 1.876 . S
C1810 C351 1.304 1_565 S
C1795 C165 1.326 . S
C1845 C288 1.919 1_556 S
C1860 C674 1.975 . S
C1910 C715 2.519 . S
C1895 C333 2.573 . S
C1960 C746 0.450 . S
C1945 C316 0.484 . S
C1995 C123 1.213 . S
C2010 C631 1.182 . S
C2045 C137 1.393 . S
C2060 C431 1.371 . S
C2095 C330 2.214 . S
C2110 C794 2.271 . S
C2160 C826 0.433 . S
C2145 C302 0.386 . S
C2210 C355 2.241 . S
C2195 C63 2.277 . S
C2260 C825 2.131 . S
C2245 C106 2.127 . S
C2295 C97 0.993 . S
C2310 C435 1.014 . S
C2345 C81 1.262 . S
C2360 C782 1.266 . S
C2410 C502 1.084 . S
C2395 C13 1.020 . S
C2445 C55 0.484 . S
C2460 C711 0.262 . S
C2510 C585 1.192 1_565 S
C2495 C35 1.175 . S
C2560 C875 1.763 . S
C2545 C21 1.821 . S
C2610 C345 2.491 . S
C2595 C147 2.506 . S
C2660 C822 0.314 . S
C2645 C321 0.516 . S
C2695 C119 1.320 . S
C2710 C425 1.305 . S
C2745 C293 1.192 . S
C2760 C795 1.237 . S
C2795 C153 1.644 . S
C2810 C515 1.785 . S
C2860 C714 1.421 . S
C2845 C315 1.447 . S
C2895 C125 0.468 . S
C2910 C582 0.252 1_565 S
C2945 C287 2.080 . S
C2960 C865 2.050 . S
C2995 C193 1.367 . S
C3010 C342 1.371 . S
C3045 C176 1.997 . S
C3060 C665 2.015 . S
C3095 C263 2.528 . S
C3110 C546 2.470 . S
C3145 C246 0.711 . S
C3160 C755 0.703 . S
C3210 C862 1.242 . S
C3195 C277 1.242 . S
C3245 C221 1.405 . S
C3260 C422 1.408 . S
C3310 C465 2.340 . S
C3295 C260 2.319 . S
C3360 C395 0.562 . S
C3345 C204 0.575 . S
C3395 C83 2.102 . S
C3410 C906 2.103 . S
C3460 C834 2.083 . S
C3445 C92 2.017 . S
C3495 C105 0.887 . S
C3510 C946 0.879 . S
C3545 C67 1.182 . S
C3560 C791 1.178 . S
C3595 C53 0.964 . S
C3610 C671 0.948 . S
C3660 C702 0.264 . S
C3645 C8 0.387 . S
C3710 C754 1.155 . S
C3695 C22 1.093 . S
C3760 C866 1.556 . S
C3745 C39 1.620 . S
C3810 C914 2.359 . S
C3795 C265 2.248 . S
C3845 C189 0.246 . S
C3860 C831 0.347 . S
C3910 C954 1.220 . S
C3895 C209 1.159 . S
C3960 C786 1.062 . S
C3945 C217 1.071 . S
C4010 C666 1.560 . S
C3995 C259 1.566 . S
C4045 C195 1.318 . S
C4060 C705 1.375 . S
C4110 C751 0.307 . S
C4095 C203 0.170 . S
C4145 C223 1.876 . S
C4160 C874 1.924 . S
C4210 C911 1.305 . S
C4195 C319 1.326 . S
C4245 C134 1.918 . S
C4260 C514 1.974 . S
C4310 C555 2.520 . S
C4295 C151 2.580 . S
C4360 C586 0.449 . S
C4345 C162 0.487 . S
C4410 C871 1.180 . S
C4395 C305 1.212 . S
C4445 C291 1.393 . S
C4460 C951 1.370 . S
C4510 C474 2.269 . S
C4495 C148 2.207 . S
C4560 C386 0.437 . S
C4545 C120 0.384 . S
C4595 C91 2.276 . S
C4610 C915 2.240 . S
C4660 C385 2.130 . S
C4645 C78 2.127 . S
C4695 C69 0.993 . S
C4710 C955 1.014 . S
C4745 C109 1.262 . S
C4760 C462 1.265 . S
C4795 C41 1.022 . S
C4810 C662 1.085 . S
C4860 C551 0.262 . S
C4845 C27 0.481 . S
C4895 C7 1.176 . S
C4910 C745 1.191 . S
C4945 C49 1.814 . S
C4960 C635 1.762 . S
C5010 C905 2.491 . S
C4995 C329 2.507 . S
C5045 C167 0.516 . S
C5060 C382 0.314 . S
C5110 C945 1.305 . S
C5095 C301 1.320 . S
C5145 C139 1.190 . S
C5160 C475 1.238 . S
C5195 C335 1.650 . S
C5210 C675 1.788 . S
C5260 C554 1.420 . S
C5245 C161 1.446 . S
C5295 C307 0.470 . S
C5310 C742 0.256 . S
C5360 C625 2.049 . S
C5345 C133 2.079 . S
C5410 C902 1.370 . S
C5395 C249 1.367 . S
C5460 C505 2.015 1_655 S
C5445 C218 1.997 . S
C5495 C235 2.529 . S
C5510 C706 2.470 . S
C5560 C595 0.702 . S
C5545 C190 0.714 . S
C5595 C207 1.243 . S
C5610 C622 1.243 . S
C5645 C179 1.405 . S
C5660 C942 1.408 . S
C5710 C785 2.341 . S
C5695 C232 2.319 1_565 S
C5760 C835 0.563 . S
C5745 C274 0.573 . S
