# Generated by pormake.
# Topology gar, (4,6)-cn, num edge types: 1
# Building blocks:
#     Node 0, Type 0, BuildingBlock: CEKHIL_clean_sbu_0, # of connection points: 4
#     Node 1, Type 0, BuildingBlock: CEKHIL_clean_sbu_0, # of connection points: 4
#     Node 2, Type 0, BuildingBlock: CEKHIL_clean_sbu_0, # of connection points: 4
#     Node 3, Type 0, BuildingBlock: CEKHIL_clean_sbu_0, # of connection points: 4
#     Node 4, Type 0, BuildingBlock: CEKHIL_clean_sbu_0, # of connection points: 4
#     Node 5, Type 0, BuildingBlock: CEKHIL_clean_sbu_0, # of connection points: 4
#     Node 6, Type 0, BuildingBlock: CEKHIL_clean_sbu_0, # of connection points: 4
#     Node 7, Type 0, BuildingBlock: CEKHIL_clean_sbu_0, # of connection points: 4
#     Node 8, Type 0, BuildingBlock: CEKHIL_clean_sbu_0, # of connection points: 4
#     Node 9, Type 0, BuildingBlock: CEKHIL_clean_sbu_0, # of connection points: 4
#     Node 10, Type 0, BuildingBlock: CEKHIL_clean_sbu_0, # of connection points: 4
#     Node 11, Type 0, BuildingBlock: CEKHIL_clean_sbu_0, # of connection points: 4
#     Node 12, Type 0, BuildingBlock: CEKHIL_clean_sbu_0, # of connection points: 4
#     Node 13, Type 0, BuildingBlock: CEKHIL_clean_sbu_0, # of connection points: 4
#     Node 14, Type 0, BuildingBlock: CEKHIL_clean_sbu_0, # of connection points: 4
#     Node 15, Type 0, BuildingBlock: CEKHIL_clean_sbu_0, # of connection points: 4
#     Node 16, Type 0, BuildingBlock: CEKHIL_clean_sbu_0, # of connection points: 4
#     Node 17, Type 0, BuildingBlock: CEKHIL_clean_sbu_0, # of connection points: 4
#     Node 18, Type 0, BuildingBlock: CEKHIL_clean_sbu_0, # of connection points: 4
#     Node 19, Type 0, BuildingBlock: CEKHIL_clean_sbu_0, # of connection points: 4
#     Node 20, Type 0, BuildingBlock: CEKHIL_clean_sbu_0, # of connection points: 4
#     Node 21, Type 0, BuildingBlock: CEKHIL_clean_sbu_0, # of connection points: 4
#     Node 22, Type 0, BuildingBlock: CEKHIL_clean_sbu_0, # of connection points: 4
#     Node 23, Type 0, BuildingBlock: CEKHIL_clean_sbu_0, # of connection points: 4
#     Node 24, Type 1, BuildingBlock: PAMTOO_clean_sbu_0, # of connection points: 6
#     Node 25, Type 1, BuildingBlock: PAMTOO_clean_sbu_0, # of connection points: 6
#     Node 26, Type 1, BuildingBlock: PAMTOO_clean_sbu_0, # of connection points: 6
#     Node 27, Type 1, BuildingBlock: PAMTOO_clean_sbu_0, # of connection points: 6
#     Node 28, Type 1, BuildingBlock: PAMTOO_clean_sbu_0, # of connection points: 6
#     Node 29, Type 1, BuildingBlock: PAMTOO_clean_sbu_0, # of connection points: 6
#     Node 30, Type 1, BuildingBlock: PAMTOO_clean_sbu_0, # of connection points: 6
#     Node 31, Type 1, BuildingBlock: PAMTOO_clean_sbu_0, # of connection points: 6
#     Node 32, Type 1, BuildingBlock: PAMTOO_clean_sbu_0, # of connection points: 6
#     Node 33, Type 1, BuildingBlock: PAMTOO_clean_sbu_0, # of connection points: 6
#     Node 34, Type 1, BuildingBlock: PAMTOO_clean_sbu_0, # of connection points: 6
#     Node 35, Type 1, BuildingBlock: PAMTOO_clean_sbu_0, # of connection points: 6
#     Node 36, Type 1, BuildingBlock: PAMTOO_clean_sbu_0, # of connection points: 6
#     Node 37, Type 1, BuildingBlock: PAMTOO_clean_sbu_0, # of connection points: 6
#     Node 38, Type 1, BuildingBlock: PAMTOO_clean_sbu_0, # of connection points: 6
#     Node 39, Type 1, BuildingBlock: PAMTOO_clean_sbu_0, # of connection points: 6
#     Edge 40, Type (0, 1), BuildingBlock: XUDNAN_clean_linker_2, # of connection points: 2
#     Edge 41, Type (0, 1), BuildingBlock: XUDNAN_clean_linker_2, # of connection points: 2
#     Edge 42, Type (0, 1), BuildingBlock: XUDNAN_clean_linker_2, # of connection points: 2
#     Edge 43, Type (0, 1), BuildingBlock: XUDNAN_clean_linker_2, # of connection points: 2
#     Edge 44, Type (0, 1), BuildingBlock: XUDNAN_clean_linker_2, # of connection points: 2
#     Edge 45, Type (0, 1), BuildingBlock: XUDNAN_clean_linker_2, # of connection points: 2
#     Edge 46, Type (0, 1), BuildingBlock: XUDNAN_clean_linker_2, # of connection points: 2
#     Edge 47, Type (0, 1), BuildingBlock: XUDNAN_clean_linker_2, # of connection points: 2
#     Edge 48, Type (0, 1), BuildingBlock: XUDNAN_clean_linker_2, # of connection points: 2
#     Edge 49, Type (0, 1), BuildingBlock: XUDNAN_clean_linker_2, # of connection points: 2
#     Edge 50, Type (0, 1), BuildingBlock: XUDNAN_clean_linker_2, # of connection points: 2
#     Edge 51, Type (0, 1), BuildingBlock: XUDNAN_clean_linker_2, # of connection points: 2
#     Edge 52, Type (0, 1), BuildingBlock: XUDNAN_clean_linker_2, # of connection points: 2
#     Edge 53, Type (0, 1), BuildingBlock: XUDNAN_clean_linker_2, # of connection points: 2
#     Edge 54, Type (0, 1), BuildingBlock: XUDNAN_clean_linker_2, # of connection points: 2
#     Edge 55, Type (0, 1), BuildingBlock: XUDNAN_clean_linker_2, # of connection points: 2
#     Edge 56, Type (0, 1), BuildingBlock: XUDNAN_clean_linker_2, # of connection points: 2
#     Edge 57, Type (0, 1), BuildingBlock: XUDNAN_clean_linker_2, # of connection points: 2
#     Edge 58, Type (0, 1), BuildingBlock: XUDNAN_clean_linker_2, # of connection points: 2
#     Edge 59, Type (0, 1), BuildingBlock: XUDNAN_clean_linker_2, # of connection points: 2
#     Edge 60, Type (0, 1), BuildingBlock: XUDNAN_clean_linker_2, # of connection points: 2
#     Edge 61, Type (0, 1), BuildingBlock: XUDNAN_clean_linker_2, # of connection points: 2
#     Edge 62, Type (0, 1), BuildingBlock: XUDNAN_clean_linker_2, # of connection points: 2
#     Edge 63, Type (0, 1), BuildingBlock: XUDNAN_clean_linker_2, # of connection points: 2
#     Edge 64, Type (0, 1), BuildingBlock: XUDNAN_clean_linker_2, # of connection points: 2
#     Edge 65, Type (0, 1), BuildingBlock: XUDNAN_clean_linker_2, # of connection points: 2
#     Edge 66, Type (0, 1), BuildingBlock: XUDNAN_clean_linker_2, # of connection points: 2
#     Edge 67, Type (0, 1), BuildingBlock: XUDNAN_clean_linker_2, # of connection points: 2
#     Edge 68, Type (0, 1), BuildingBlock: XUDNAN_clean_linker_2, # of connection points: 2
#     Edge 69, Type (0, 1), BuildingBlock: XUDNAN_clean_linker_2, # of connection points: 2
#     Edge 70, Type (0, 1), BuildingBlock: XUDNAN_clean_linker_2, # of connection points: 2
#     Edge 71, Type (0, 1), BuildingBlock: XUDNAN_clean_linker_2, # of connection points: 2
#     Edge 72, Type (0, 1), BuildingBlock: XUDNAN_clean_linker_2, # of connection points: 2
#     Edge 73, Type (0, 1), BuildingBlock: XUDNAN_clean_linker_2, # of connection points: 2
#     Edge 74, Type (0, 1), BuildingBlock: XUDNAN_clean_linker_2, # of connection points: 2
#     Edge 75, Type (0, 1), BuildingBlock: XUDNAN_clean_linker_2, # of connection points: 2
#     Edge 76, Type (0, 1), BuildingBlock: XUDNAN_clean_linker_2, # of connection points: 2
#     Edge 77, Type (0, 1), BuildingBlock: XUDNAN_clean_linker_2, # of connection points: 2
#     Edge 78, Type (0, 1), BuildingBlock: XUDNAN_clean_linker_2, # of connection points: 2
#     Edge 79, Type (0, 1), BuildingBlock: XUDNAN_clean_linker_2, # of connection points: 2
#     Edge 80, Type (0, 1), BuildingBlock: XUDNAN_clean_linker_2, # of connection points: 2
#     Edge 81, Type (0, 1), BuildingBlock: XUDNAN_clean_linker_2, # of connection points: 2
#     Edge 82, Type (0, 1), BuildingBlock: XUDNAN_clean_linker_2, # of connection points: 2
#     Edge 83, Type (0, 1), BuildingBlock: XUDNAN_clean_linker_2, # of connection points: 2
#     Edge 84, Type (0, 1), BuildingBlock: XUDNAN_clean_linker_2, # of connection points: 2
#     Edge 85, Type (0, 1), BuildingBlock: XUDNAN_clean_linker_2, # of connection points: 2
#     Edge 86, Type (0, 1), BuildingBlock: XUDNAN_clean_linker_2, # of connection points: 2
#     Edge 87, Type (0, 1), BuildingBlock: XUDNAN_clean_linker_2, # of connection points: 2
#     Edge 88, Type (0, 1), BuildingBlock: XUDNAN_clean_linker_2, # of connection points: 2
#     Edge 89, Type (0, 1), BuildingBlock: XUDNAN_clean_linker_2, # of connection points: 2
#     Edge 90, Type (0, 1), BuildingBlock: XUDNAN_clean_linker_2, # of connection points: 2
#     Edge 91, Type (0, 1), BuildingBlock: XUDNAN_clean_linker_2, # of connection points: 2
#     Edge 92, Type (0, 1), BuildingBlock: XUDNAN_clean_linker_2, # of connection points: 2
#     Edge 93, Type (0, 1), BuildingBlock: XUDNAN_clean_linker_2, # of connection points: 2
#     Edge 94, Type (0, 1), BuildingBlock: XUDNAN_clean_linker_2, # of connection points: 2
#     Edge 95, Type (0, 1), BuildingBlock: XUDNAN_clean_linker_2, # of connection points: 2
#     Edge 96, Type (0, 1), BuildingBlock: XUDNAN_clean_linker_2, # of connection points: 2
#     Edge 97, Type (0, 1), BuildingBlock: XUDNAN_clean_linker_2, # of connection points: 2
#     Edge 98, Type (0, 1), BuildingBlock: XUDNAN_clean_linker_2, # of connection points: 2
#     Edge 99, Type (0, 1), BuildingBlock: XUDNAN_clean_linker_2, # of connection points: 2
#     Edge 100, Type (0, 1), BuildingBlock: XUDNAN_clean_linker_2, # of connection points: 2
#     Edge 101, Type (0, 1), BuildingBlock: XUDNAN_clean_linker_2, # of connection points: 2
#     Edge 102, Type (0, 1), BuildingBlock: XUDNAN_clean_linker_2, # of connection points: 2
#     Edge 103, Type (0, 1), BuildingBlock: XUDNAN_clean_linker_2, # of connection points: 2
#     Edge 104, Type (0, 1), BuildingBlock: XUDNAN_clean_linker_2, # of connection points: 2
#     Edge 105, Type (0, 1), BuildingBlock: XUDNAN_clean_linker_2, # of connection points: 2
#     Edge 106, Type (0, 1), BuildingBlock: XUDNAN_clean_linker_2, # of connection points: 2
#     Edge 107, Type (0, 1), BuildingBlock: XUDNAN_clean_linker_2, # of connection points: 2
#     Edge 108, Type (0, 1), BuildingBlock: XUDNAN_clean_linker_2, # of connection points: 2
#     Edge 109, Type (0, 1), BuildingBlock: XUDNAN_clean_linker_2, # of connection points: 2
#     Edge 110, Type (0, 1), BuildingBlock: XUDNAN_clean_linker_2, # of connection points: 2
#     Edge 111, Type (0, 1), BuildingBlock: XUDNAN_clean_linker_2, # of connection points: 2
#     Edge 112, Type (0, 1), BuildingBlock: XUDNAN_clean_linker_2, # of connection points: 2
#     Edge 113, Type (0, 1), BuildingBlock: XUDNAN_clean_linker_2, # of connection points: 2
#     Edge 114, Type (0, 1), BuildingBlock: XUDNAN_clean_linker_2, # of connection points: 2
#     Edge 115, Type (0, 1), BuildingBlock: XUDNAN_clean_linker_2, # of connection points: 2
#     Edge 116, Type (0, 1), BuildingBlock: XUDNAN_clean_linker_2, # of connection points: 2
#     Edge 117, Type (0, 1), BuildingBlock: XUDNAN_clean_linker_2, # of connection points: 2
#     Edge 118, Type (0, 1), BuildingBlock: XUDNAN_clean_linker_2, # of connection points: 2
#     Edge 119, Type (0, 1), BuildingBlock: XUDNAN_clean_linker_2, # of connection points: 2
#     Edge 120, Type (0, 1), BuildingBlock: XUDNAN_clean_linker_2, # of connection points: 2
#     Edge 121, Type (0, 1), BuildingBlock: XUDNAN_clean_linker_2, # of connection points: 2
#     Edge 122, Type (0, 1), BuildingBlock: XUDNAN_clean_linker_2, # of connection points: 2
#     Edge 123, Type (0, 1), BuildingBlock: XUDNAN_clean_linker_2, # of connection points: 2
#     Edge 124, Type (0, 1), BuildingBlock: XUDNAN_clean_linker_2, # of connection points: 2
#     Edge 125, Type (0, 1), BuildingBlock: XUDNAN_clean_linker_2, # of connection points: 2
#     Edge 126, Type (0, 1), BuildingBlock: XUDNAN_clean_linker_2, # of connection points: 2
#     Edge 127, Type (0, 1), BuildingBlock: XUDNAN_clean_linker_2, # of connection points: 2
#     Edge 128, Type (0, 1), BuildingBlock: XUDNAN_clean_linker_2, # of connection points: 2
#     Edge 129, Type (0, 1), BuildingBlock: XUDNAN_clean_linker_2, # of connection points: 2
#     Edge 130, Type (0, 1), BuildingBlock: XUDNAN_clean_linker_2, # of connection points: 2
#     Edge 131, Type (0, 1), BuildingBlock: XUDNAN_clean_linker_2, # of connection points: 2
#     Edge 132, Type (0, 1), BuildingBlock: XUDNAN_clean_linker_2, # of connection points: 2
#     Edge 133, Type (0, 1), BuildingBlock: XUDNAN_clean_linker_2, # of connection points: 2
#     Edge 134, Type (0, 1), BuildingBlock: XUDNAN_clean_linker_2, # of connection points: 2
#     Edge 135, Type (0, 1), BuildingBlock: XUDNAN_clean_linker_2, # of connection points: 2
# Relax obj value: 0.144
# Max RMSD: 0.267
# Mean RMSD: 0.156
data_MOF--net-gar--node1-CEKHIL_clean_sbu_0--node2-PAMTOO_clean_sbu_0--edge1-XUDNAN_clean_linker_2
_symmetry_space_group_name_H-M    P1
_symmetry_Int_Tables_number       1
_symmetry_cell_setting            triclinic
loop_
_symmetry_equiv_pos_as_xyz
'x, y, z'
_cell_length_a     59.993135
_cell_length_b     59.568439
_cell_length_c     56.663784
_cell_angle_alpha  96.709616
_cell_angle_beta   95.995566
_cell_angle_gamma 104.75617
loop_
_atom_site_label
_atom_site_type_symbol
_atom_site_fract_x
_atom_site_fract_y
_atom_site_fract_z
_atom_type_partial_charge
Co0 Co 0.0672 0.33758 0.36585 0.0
O1 O 0.10164 0.3406 0.37047 0.0
O2 O 0.0792 0.32495 0.33702 0.0
C3 C 0.06832 0.37499 0.38456 0.0
O4 O 0.03127 0.33218 0.35244 0.0
Co5 Co 0.03773 0.34097 0.40745 0.0
O6 O 1.01047 0.33689 0.38273 0.0
C7 C 0.05614 0.29984 0.39842 0.0
C8 C 0.10023 0.33033 0.34862 0.0
C9 C 1.01159 0.33276 0.36038 0.0
O10 O 0.06106 0.30551 0.37777 0.0
O11 O 0.04917 0.3132 0.41364 0.0
O12 O 0.07266 0.37151 0.36254 0.0
O13 O 0.06546 0.35654 0.39486 0.0
Co14 Co 0.02126 0.76547 0.70084 0.0
O15 O 0.98725 0.76352 0.69544 0.0
O16 O 1.00403 0.75764 0.72877 0.0
C17 C 0.03133 0.80139 0.68728 0.0
O18 O 0.05671 0.76781 0.71426 0.0
Co19 Co 0.05272 0.77098 0.66069 0.0
O20 O 0.07953 0.77996 0.68654 0.0
C21 C 0.02254 0.72327 0.66378 0.0
C22 C 0.98495 0.75994 0.71723 0.0
C23 C 0.0774 0.77494 0.70756 0.0
O24 O 0.01614 0.73083 0.684 0.0
O25 O 0.03519 0.73718 0.65183 0.0
O26 O 0.02754 0.79995 0.70923 0.0
O27 O 0.02843 0.78146 0.6742 0.0
Co28 Co 0.56597 0.83733 0.86711 0.0
O29 O 0.60036 0.83995 0.87177 0.0
O30 O 0.57771 0.82372 0.83859 0.0
C31 C 0.56739 0.87532 0.88449 0.0
O32 O 0.53012 0.8322 0.85355 0.0
Co33 Co 0.5366 0.84255 0.9086 0.0
O34 O 0.50983 0.8393 0.88365 0.0
C35 C 0.55222 0.79947 0.89981 0.0
C36 C 0.59878 0.82919 0.85008 0.0
C37 C 0.51073 0.83405 0.8614 0.0
O38 O 0.55945 0.80562 0.88007 0.0
O39 O 0.54444 0.8128 0.91426 0.0
O40 O 0.57199 0.87105 0.86268 0.0
O41 O 0.5643 0.85729 0.8955 0.0
Co42 Co 0.52179 0.26423 0.20015 0.0
O43 O 0.48783 0.26339 0.19568 0.0
O44 O 0.50514 0.25672 0.22841 0.0
C45 C 0.53272 0.29988 0.18629 0.0
O46 O 0.55712 0.26526 0.21328 0.0
Co47 Co 0.55321 0.26785 0.16033 0.0
O48 O 0.58029 0.27718 0.18586 0.0
C49 C 0.52273 0.22082 0.16429 0.0
C50 C 0.4861 0.25979 0.2176 0.0
C51 C 0.57796 0.27205 0.20679 0.0
O52 O 0.5151 0.22948 0.18322 0.0
O53 O 0.53702 0.23353 0.15278 0.0
O54 O 0.52927 0.29871 0.2084 0.0
O55 O 0.52921 0.2798 0.17318 0.0
Co56 Co 0.07976 0.81786 0.1247 0.0
O57 O 0.04595 0.81159 0.11816 0.0
O58 O 0.06445 0.80855 0.15248 0.0
C59 C 0.08515 0.85488 0.1091 0.0
O60 O 0.11426 0.82334 0.14143 0.0
Co61 Co 0.1105 0.82189 0.08944 0.0
O62 O 0.1382 0.82867 0.11406 0.0
C63 C 0.08638 0.77326 0.09401 0.0
C64 C 0.04473 0.80752 0.14002 0.0
C65 C 0.13512 0.82697 0.13568 0.0
O66 O 0.07762 0.78242 0.11165 0.0
O67 O 0.09908 0.7867 0.08173 0.0
O68 O 0.08226 0.85238 0.13107 0.0
O69 O 0.08473 0.83498 0.09654 0.0
Co70 Co 0.51117 0.78527 0.45688 0.0
O71 O 0.54504 0.79387 0.46367 0.0
O72 O 0.52532 0.77848 0.42812 0.0
C73 C 0.50719 0.82098 0.47588 0.0
O74 O 0.4763 0.77645 0.44056 0.0
Co75 Co 0.48097 0.7763 0.49306 0.0
O76 O 0.45489 0.7791 0.47003 0.0
C77 C 0.50322 0.73913 0.48235 0.0
C78 C 0.54553 0.78697 0.44118 0.0
C79 C 0.45666 0.77734 0.44778 0.0
O80 O 0.51083 0.75162 0.46591 0.0
O81 O 0.49053 0.74634 0.49662 0.0
O82 O 0.51202 0.81809 0.45418 0.0
O83 O 0.50646 0.80266 0.48685 0.0
Co84 Co 0.57784 0.31587 0.62393 0.0
O85 O 0.54405 0.30908 0.61713 0.0
O86 O 0.56263 0.30669 0.65173 0.0
C87 C 0.58241 0.35215 0.60729 0.0
O88 O 0.6124 0.32206 0.6409 0.0
Co89 Co 0.6093 0.31982 0.5892 0.0
O90 O 0.63695 0.32868 0.61419 0.0
C91 C 0.58467 0.27117 0.59379 0.0
C92 C 0.54287 0.30511 0.63903 0.0
C93 C 0.63349 0.32679 0.63567 0.0
O94 O 0.57603 0.28043 0.61144 0.0
O95 O 0.59756 0.28457 0.5816 0.0
O96 O 0.57981 0.35044 0.62949 0.0
O97 O 0.58279 0.33218 0.59541 0.0
Co98 Co 0.01935 0.28846 0.95333 0.0
O99 O 0.05317 0.29865 0.96212 0.0
O100 O 0.03523 0.2823 0.92603 0.0
C101 C 1.01312 0.32354 0.97117 0.0
O102 O 0.98582 0.2781 0.93406 0.0
Co103 Co 0.98482 0.27746 0.98391 0.0
O104 O 0.96112 0.28314 0.95927 0.0
C105 C 1.01063 0.24217 0.97821 0.0
C106 C 0.0548 0.29178 0.93986 0.0
C107 C 0.96565 0.28074 0.93789 0.0
O108 O 0.01974 0.25525 0.96287 0.0
O109 O 0.99542 0.2482 0.98989 0.0
O110 O 0.01933 0.32089 0.95005 0.0
O111 O 1.01147 0.3051 0.98221 0.0
Co112 Co 0.42071 0.05656 0.31321 0.0
O113 O 0.42683 0.08462 0.29824 0.0
O114 O 0.39228 0.0592 0.29613 0.0
C115 C 0.44129 0.07301 0.34944 0.0
O116 O 0.40683 0.02641 0.32612 0.0
Co117 Co 0.45988 0.03496 0.33313 0.0
O118 O 0.43432 0.01146 0.34318 0.0
C119 C 0.44163 0.0254 0.28118 0.0
C120 C 0.40462 0.07863 0.29055 0.0
C121 C 0.41312 0.01087 0.3371 0.0
O122 O 0.42702 0.03766 0.28403 0.0
O123 O 0.45656 0.02334 0.29807 0.0
O124 O 0.42035 0.075 0.34399 0.0
O125 O 0.44971 0.06316 0.33233 0.0
Co126 Co 0.29184 0.19788 0.52384 0.0
O127 O 0.32569 0.20744 0.52993 0.0
O128 O 0.30357 0.17353 0.53619 0.0
C129 C 0.28851 0.20847 0.48598 0.0
O130 O 0.25755 0.17965 0.51886 0.0
Co131 Co 0.26162 0.23039 0.51884 0.0
O132 O 0.23396 0.20244 0.51219 0.0
C133 C 0.28254 0.22901 0.56739 0.0
C134 C 0.32437 0.187 0.53654 0.0
C135 C 0.23706 0.18236 0.51424 0.0
O136 O 0.28971 0.21174 0.5581 0.0
O137 O 0.27238 0.24067 0.55443 0.0
O138 O 0.29274 0.18886 0.48997 0.0
O139 O 0.28806 0.22253 0.50527 0.0
Co140 Co 0.1404 0.05476 0.79751 0.0
O141 O 0.13182 0.02081 0.78879 0.0
O142 O 0.16607 0.04429 0.78609 0.0
C143 C 0.12526 0.05358 0.83347 0.0
O144 O 0.15761 0.08993 0.80533 0.0
Co145 Co 0.10667 0.08461 0.80692 0.0
O146 O 0.13461 0.11087 0.81984 0.0
C147 C 0.11109 0.06779 0.75637 0.0
C148 C 0.15285 0.02297 0.78376 0.0
C149 C 0.15442 0.1094 0.8148 0.0
O150 O 0.12777 0.05889 0.76351 0.0
O151 O 0.09994 0.07711 0.77103 0.0
O152 O 0.146 0.05113 0.83192 0.0
O153 O 0.11431 0.05613 0.81355 0.0
Co154 Co 0.28265 0.91743 0.01814 0.0
O155 O 0.25545 0.91174 0.03441 0.0
O156 O 0.28211 0.94581 0.0379 0.0
C157 C 0.26442 0.89905 0.98154 0.0
O158 O 0.31236 0.93087 0.00445 0.0
Co159 Co 0.30128 0.87818 0.99224 0.0
O160 O 0.32061 0.90399 0.97806 0.0
C161 C 0.31334 0.89302 0.04504 0.0
C162 C 0.2626 0.93384 0.04353 0.0
C163 C 0.32437 0.92498 0.98849 0.0
O164 O 0.30146 0.90823 0.04499 0.0
O165 O 0.31457 0.87925 0.02638 0.0
O166 O 0.26388 0.9204 0.98888 0.0
O167 O 0.27419 0.8891 0.99706 0.0
Co168 Co 0.29951 0.38933 0.04418 0.0
O169 O 0.2656 0.3793 0.03757 0.0
O170 O 0.28649 0.41531 0.05226 0.0
C171 C 0.30594 0.37125 0.00845 0.0
O172 O 0.3337 0.40854 0.05185 0.0
Co173 Co 0.33217 0.35805 0.04871 0.0
O174 O 0.35732 0.38576 0.04468 0.0
C175 C 0.30681 0.36626 0.08946 0.0
C176 C 0.26609 0.40104 0.04469 0.0
C177 C 0.35398 0.40599 0.04901 0.0
O178 O 0.2985 0.38072 0.07819 0.0
O179 O 0.32006 0.35483 0.08039 0.0
O180 O 0.30099 0.39134 0.01003 0.0
O181 O 0.30563 0.36195 0.02805 0.0
Co182 Co 0.78844 0.15526 0.05401 0.0
O183 O 0.81892 0.15297 0.04888 0.0
O184 O 0.79413 0.12852 0.06689 0.0
C185 C 0.77793 0.16204 0.01692 0.0
O186 O 0.75555 0.15079 0.06145 0.0
Co187 Co 0.7719 0.20018 0.04909 0.0
O188 O 0.74037 0.17852 0.04816 0.0
C189 C 0.80642 0.19901 0.08986 0.0
C190 C 0.81409 0.13415 0.05901 0.0
C191 C 0.7382 0.15906 0.05618 0.0
O192 O 0.80159 0.17647 0.08538 0.0
O193 O 0.79834 0.21154 0.0761 0.0
O194 O 0.77608 0.14057 0.02071 0.0
O195 O 0.78722 0.17816 0.03494 0.0
Co196 Co 0.17374 0.54306 0.27038 0.0
O197 O 0.16757 0.51284 0.28099 0.0
O198 O 0.19962 0.52989 0.26667 0.0
C199 C 0.16283 0.56238 0.30173 0.0
O200 O 0.18701 0.57449 0.25938 0.0
Co201 Co 0.13348 0.56628 0.25909 0.0
O202 O 0.15969 0.59431 0.25883 0.0
C203 C 0.13652 0.52491 0.2276 0.0
C204 C 0.18809 0.5123 0.27598 0.0
C205 C 0.18059 0.59339 0.25794 0.0
O206 O 0.15786 0.52808 0.23681 0.0
O207 O 0.12309 0.53636 0.23615 0.0
O208 O 0.18331 0.55863 0.30375 0.0
O209 O 0.14912 0.55216 0.28229 0.0
Co210 Co 0.79893 0.89482 0.54845 0.0
O211 O 0.76507 0.89053 0.54292 0.0
O212 O 0.79094 0.92233 0.56216 0.0
C213 C 0.80273 0.88032 0.51022 0.0
O214 O 0.83403 0.90934 0.55633 0.0
Co215 Co 0.82636 0.85829 0.5443 0.0
O216 O 0.85413 0.88481 0.54316 0.0
C217 C 0.80115 0.86217 0.58631 0.0
C218 C 0.76936 0.91197 0.55395 0.0
C219 C 0.85311 0.9054 0.55091 0.0
O220 O 0.79677 0.88109 0.58021 0.0
O221 O 0.81116 0.84977 0.5733 0.0
O222 O 0.80103 0.90159 0.51547 0.0
O223 O 0.80097 0.868 0.52764 0.0
Co224 Co 0.95231 0.04585 0.27887 0.0
O225 O 0.96184 0.08017 0.28225 0.0
O226 O 0.92648 0.05795 0.26844 0.0
C227 C 0.96947 0.04289 0.3163 0.0
O228 O 0.93335 0.01139 0.27428 0.0
Co229 Co 0.98392 0.01245 0.28123 0.0
O230 O 0.95539 0.98793 0.28447 0.0
C231 C 0.97754 0.03335 0.23654 0.0
C232 C 0.94016 0.07892 0.27492 0.0
C233 C 0.93554 0.99126 0.27876 0.0
O234 O 0.96185 0.04252 0.24472 0.0
O235 O 0.989 0.02247 0.24921 0.0
O236 O 0.94976 0.0482 0.31358 0.0
O237 O 0.97886 0.04106 0.29691 0.0
Co238 Co 0.29396 0.66235 0.55333 0.0
O239 O 0.32591 0.66708 0.5471 0.0
O240 O 0.30397 0.63535 0.55874 0.0
C241 C 0.27959 0.67551 0.5211 0.0
O242 O 0.26111 0.64923 0.55983 0.0
Co243 Co 0.26961 0.70174 0.56345 0.0
O244 O 0.24105 0.67609 0.56406 0.0
C245 C 0.30783 0.69783 0.59778 0.0
C246 C 0.32381 0.64623 0.55305 0.0
C247 C 0.24226 0.65496 0.56257 0.0
O248 O 0.30512 0.67658 0.58798 0.0
O249 O 0.29734 0.71174 0.5889 0.0
O250 O 0.28267 0.65456 0.51888 0.0
O251 O 0.28755 0.68843 0.54167 0.0
Co252 Co 0.44364 0.54415 0.78443 0.0
O253 O 0.44635 0.57788 0.78743 0.0
O254 O 0.41422 0.54981 0.77352 0.0
C255 C 0.46342 0.54442 0.82154 0.0
O256 O 0.4317 0.50821 0.78032 0.0
Co257 Co 0.48455 0.5217 0.78498 0.0
O258 O 0.46141 0.49438 0.79329 0.0
C259 C 0.47086 0.54035 0.74125 0.0
C260 C 0.42428 0.57209 0.77905 0.0
C261 C 0.43968 0.49175 0.78766 0.0
O262 O 0.45271 0.54368 0.75026 0.0
O263 O 0.48639 0.53316 0.75308 0.0
O264 O 0.44184 0.54522 0.81922 0.0
O265 O 0.47274 0.5455 0.80198 0.0
Co266 Co 0.67668 0.05531 0.77957 0.0
O267 O 0.66811 0.02533 0.79082 0.0
O268 O 0.70076 0.03987 0.77615 0.0
C269 C 0.66729 0.07686 0.81023 0.0
O270 O 0.69254 0.0853 0.76771 0.0
Co271 Co 0.64063 0.08302 0.76672 0.0
O272 O 0.66827 0.108 0.76231 0.0
C273 C 0.64029 0.03975 0.73593 0.0
C274 C 0.68804 0.02301 0.78545 0.0
C275 C 0.68836 0.10444 0.76271 0.0
O276 O 0.66066 0.04048 0.7462 0.0
O277 O 0.62832 0.05342 0.74331 0.0
O278 O 0.68687 0.07123 0.81266 0.0
O279 O 0.65327 0.06733 0.79077 0.0
Co280 Co 0.79024 0.70305 0.02611 0.0
O281 O 0.82416 0.71237 0.03179 0.0
O282 O 0.80209 0.67702 0.03373 0.0
C283 C 0.78718 0.71994 0.99164 0.0
O284 O 0.75594 0.68479 0.02068 0.0
Co285 Co 0.7588 0.73539 0.02615 0.0
O286 O 0.73144 0.7072 0.01777 0.0
C287 C 0.78174 0.72972 0.07268 0.0
C288 C 0.82288 0.69086 0.0352 0.0
C289 C 0.73515 0.68709 0.01763 0.0
O290 O 0.78854 0.71291 0.06167 0.0
O291 O 0.77133 0.74242 0.06146 0.0
O292 O 0.79088 0.69934 0.99118 0.0
O293 O 0.78624 0.73021 0.01288 0.0
Co294 Co 0.92196 0.55419 0.80939 0.0
O295 O 0.92724 0.5814 0.79313 0.0
O296 O 0.89263 0.5582 0.79604 0.0
C297 C 0.94757 0.57124 0.8425 0.0
O298 O 0.90891 0.52534 0.82473 0.0
Co299 Co 0.9604 0.53007 0.82442 0.0
O300 O 0.93688 0.51083 0.84119 0.0
C301 C 0.93608 0.51964 0.77436 0.0
C302 C 0.90471 0.57652 0.78823 0.0
C303 C 0.91559 0.51069 0.83681 0.0
O304 O 0.9233 0.53352 0.77907 0.0
O305 O 0.95204 0.51669 0.78956 0.0
O306 O 0.9267 0.57408 0.84057 0.0
O307 O 0.95263 0.55962 0.82415 0.0
Co308 Co 0.78675 0.4413 0.49975 0.0
O309 O 0.7598 0.44466 0.51398 0.0
O310 O 0.79235 0.47298 0.51501 0.0
C311 C 0.76927 0.4212 0.46386 0.0
O312 O 0.81745 0.44559 0.48699 0.0
Co313 Co 0.79642 0.39317 0.48476 0.0
O314 O 0.82428 0.41157 0.47255 0.0
C315 C 0.80203 0.41283 0.53585 0.0
C316 C 0.77169 0.46641 0.52111 0.0
C317 C 0.8298 0.43392 0.47651 0.0
O318 O 0.80006 0.43257 0.53025 0.0
O319 O 0.79875 0.3944 0.52043 0.0
O320 O 0.77235 0.44382 0.46812 0.0
O321 O 0.77384 0.41135 0.48219 0.0
Co322 Co 0.64077 0.55412 0.30521 0.0
O323 O 0.6312 0.51985 0.2995 0.0
O324 O 0.66617 0.54182 0.29666 0.0
C325 C 0.62475 0.55769 0.3403 0.0
O326 O 0.65945 0.58854 0.31038 0.0
Co327 Co 0.61015 0.58701 0.30671 0.0
O328 O 0.63834 0.61404 0.31581 0.0
C329 C 0.6149 0.56413 0.25921 0.0
C330 C 0.65238 0.52094 0.29537 0.0
C331 C 0.6579 0.60972 0.31463 0.0
O332 O 0.63006 0.55523 0.26986 0.0
O333 O 0.60395 0.57648 0.27094 0.0
O334 O 0.64508 0.55377 0.34011 0.0
O335 O 0.61433 0.55882 0.31936 0.0
Dy336 Dy 0.07971 0.05956 0.04815 0.0
Dy337 Dy 0.02613 0.03611 0.02633 0.0
C338 C 0.06554 0.04155 0.99081 0.0
O339 O 0.06662 0.09155 0.03956 0.0
O340 O 0.02944 0.07416 0.02037 0.0
O341 O 0.11599 0.06836 0.04412 0.0
O342 O 0.10562 0.07917 0.07813 0.0
O343 O 0.02525 0.05473 0.06292 0.0
O344 O 0.05951 0.04979 0.07873 0.0
O345 O 0.03802 1.00579 0.04053 0.0
O346 O 0.07754 0.02061 0.04976 0.0
O347 O 0.99326 0.01309 0.03099 0.0
O348 O 0.9968 0.02841 0.99833 0.0
C349 C 0.04691 0.09324 0.0275 0.0
O350 O 0.08078 0.0552 0.00828 0.0
O351 O 0.04485 0.02992 0.99484 0.0
C352 C 0.14029 0.0663 0.07808 0.0
C353 C 0.1697 0.03773 0.08992 0.0
C354 C 0.14932 0.03665 0.10064 0.0
C355 C 0.1346 0.05056 0.09452 0.0
C356 C 0.1615 0.06889 0.06901 0.0
C357 C 0.17594 0.05469 0.07466 0.0
C358 C 0.12289 0.07675 0.0667 0.0
C359 C 0.03898 0.05283 0.08165 0.0
C360 C 0.05866 1.00282 0.04807 0.0
C361 C 0.96242 0.02617 0.01507 0.0
C362 C 0.925 0.04355 0.0265 0.0
C363 C 0.94751 0.05875 0.02887 0.0
C364 C 0.96605 0.05012 0.02326 0.0
C365 C 0.94001 0.0109 0.0124 0.0
C366 C 0.92134 0.01955 0.0181 0.0
C367 C 0.98246 0.01715 0.01146 0.0
H368 H 0.14412 0.02431 0.11294 0.0
H369 H 0.11824 0.04808 0.10169 0.0
H370 H 0.16611 0.08074 0.05608 0.0
H371 H 0.19115 0.05601 0.06563 0.0
H372 H 0.95093 0.07724 0.03571 0.0
H373 H 0.98335 0.06207 0.02585 0.0
H374 H 0.93705 0.99231 0.00634 0.0
H375 H 0.90411 0.00752 0.01601 0.0
Dy376 Dy 0.31268 0.80282 0.2782 0.0
Dy377 Dy 0.27461 0.80401 0.31496 0.0
C378 C 0.30995 0.8518 0.30603 0.0
O379 O 0.33302 0.80463 0.3144 0.0
O380 O 0.30237 0.78951 0.33379 0.0
O381 O 0.34812 0.81265 0.27104 0.0
O382 O 0.32115 0.78982 0.24398 0.0
O383 O 0.26352 0.76861 0.29311 0.0
O384 O 0.29868 0.76557 0.28344 0.0
O385 O 0.25813 0.81613 0.28271 0.0
O386 O 0.28031 0.80538 0.25494 0.0
O387 O 0.23922 0.79467 0.32266 0.0
O388 O 0.26728 0.81338 0.35076 0.0
C389 C 0.32502 0.79506 0.33261 0.0
O390 O 0.31512 0.84078 0.28684 0.0
O391 O 0.29671 0.8409 0.32044 0.0
C392 C 0.35029 0.81801 0.23107 0.0
C393 C 0.3598 0.84566 0.19464 0.0
C394 C 0.35325 0.85491 0.21595 0.0
C395 C 0.34842 0.84115 0.23399 0.0
C396 C 0.35787 0.80905 0.21036 0.0
C397 C 0.36263 0.8228 0.19223 0.0
C398 C 0.34265 0.80273 0.24872 0.0
C399 C 0.27696 0.75591 0.28563 0.0
C400 C 0.26194 0.81244 0.26024 0.0
C401 C 0.23728 0.78443 0.36146 0.0
C402 C 0.22813 0.75244 0.39435 0.0
C403 C 0.22942 0.74447 0.37032 0.0
C404 C 0.23411 0.76035 0.35403 0.0
C405 C 0.23493 0.79231 0.38507 0.0
C406 C 0.23047 0.77649 0.40141 0.0
C407 C 0.24542 0.80168 0.34561 0.0
H408 H 0.35113 0.87253 0.21833 0.0
H409 H 0.34254 0.84836 0.24988 0.0
H410 H 0.35926 0.79117 0.20785 0.0
H411 H 0.36731 0.8151 0.17583 0.0
H412 H 0.22746 0.72605 0.36425 0.0
H413 H 0.23602 0.75388 0.33588 0.0
H414 H 0.23757 0.81086 0.39115 0.0
H415 H 0.23003 0.78334 0.41987 0.0
Dy416 Dy 0.51648 0.0429 0.55605 0.0
Dy417 Dy 0.56486 0.04419 0.53098 0.0
C418 C 0.52131 0.05629 0.50218 0.0
O419 O 0.51167 1.00427 0.54073 0.0
O420 O 0.54664 1.00528 0.52672 0.0
O421 O 0.47885 0.03385 0.55217 0.0
O422 O 0.49932 0.05261 0.58583 0.0
O423 O 0.57296 0.0421 0.56987 0.0
O424 O 0.53692 0.02652 0.58028 0.0
O425 O 0.56462 0.08264 0.53885 0.0
O426 O 0.53867 0.08101 0.5662 0.0
O427 O 0.60242 0.05727 0.53407 0.0
O428 O 0.5835 0.03105 0.50418 0.0
C429 C 0.52604 0.99339 0.53096 0.0
O430 O 0.51085 0.05531 0.52131 0.0
O431 O 0.54108 0.05076 0.50089 0.0
C432 C 0.46519 0.06375 0.57221 0.0
C433 C 0.43939 0.09734 0.56731 0.0
C434 C 0.46313 0.1044 0.57711 0.0
C435 C 0.47588 0.08786 0.5794 0.0
C436 C 0.44143 0.05659 0.56294 0.0
C437 C 0.4287 0.07313 0.56045 0.0
C438 C 0.47878 0.0461 0.57283 0.0
C439 C 0.5596 0.03067 0.58387 0.0
C440 C 0.55452 0.09341 0.55475 0.0
C441 C 0.62086 0.0282 0.52064 0.0
C442 C 0.65398 1.00296 0.53195 0.0
C443 C 0.63012 0.99126 0.52619 0.0
C444 C 0.61371 1.00375 0.52074 0.0
C445 C 0.64471 0.03971 0.52571 0.0
C446 C 0.66103 0.02731 0.53133 0.0
C447 C 0.60391 0.04216 0.51609 0.0
H448 H 0.47198 0.12276 0.58302 0.0
H449 H 0.49421 0.09405 0.5865 0.0
H450 H 0.43279 0.03815 0.55708 0.0
H451 H 0.41062 0.06691 0.55248 0.0
H452 H 0.62406 0.97258 0.52667 0.0
H453 H 0.59542 0.99434 0.51702 0.0
H454 H 0.65073 0.05847 0.52567 0.0
H455 H 0.67926 0.03687 0.53538 0.0
Dy456 Dy 0.3212 0.28461 0.7891 0.0
Dy457 Dy 0.27502 0.30598 0.79011 0.0
C458 C 0.32516 0.33989 0.78869 0.0
O459 O 0.31796 0.29103 0.82884 0.0
O460 O 0.2948 0.31661 0.82719 0.0
O461 O 0.35821 0.2879 0.79793 0.0
O462 O 0.33641 0.25811 0.77341 0.0
O463 O 0.2684 0.27471 0.80905 0.0
O464 O 0.29047 0.25366 0.79069 0.0
O465 O 0.27232 0.28482 0.75349 0.0
O466 O 0.31114 0.29188 0.75204 0.0
O467 O 0.23757 0.2985 0.78139 0.0
O468 O 0.25735 0.33253 0.80016 0.0
C469 C 0.30858 0.30675 0.83948 0.0
O470 O 0.33404 0.32356 0.79621 0.0
O471 O 0.30288 0.33545 0.78014 0.0
C472 C 0.37529 0.27353 0.76498 0.0
C473 C 0.40917 0.28036 0.73258 0.0
C474 C 0.38526 0.27038 0.72416 0.0
C475 C 0.36863 0.26712 0.74003 0.0
C476 C 0.39913 0.28317 0.77353 0.0
C477 C 0.41582 0.28658 0.75761 0.0
C478 C 0.35772 0.26996 0.78211 0.0
C479 C 0.27304 0.25468 0.80277 0.0
C480 C 0.28971 0.28512 0.74107 0.0
C481 C 0.21973 0.31636 0.8116 0.0
C482 C 0.18735 0.31313 0.84554 0.0
C483 C 0.18453 0.29497 0.82624 0.0
C484 C 0.20043 0.29658 0.80954 0.0
C485 C 0.22242 0.33463 0.83071 0.0
C486 C 0.20654 0.33303 0.84741 0.0
C487 C 0.23664 0.31807 0.79373 0.0
H488 H 0.37926 0.26483 0.70517 0.0
H489 H 0.35049 0.25953 0.73266 0.0
H490 H 0.40489 0.28823 0.79263 0.0
H491 H 0.4339 0.29452 0.76495 0.0
H492 H 0.17021 0.27926 0.82421 0.0
H493 H 0.19761 0.28219 0.79501 0.0
H494 H 0.23684 0.35029 0.8328 0.0
H495 H 0.2092 0.34762 0.86167 0.0
Dy496 Dy 0.05315 0.01799 0.53205 0.0
Dy497 Dy 0.03779 0.069 0.5325 0.0
C498 C 1.0018 0.02104 0.54185 0.0
O499 O 0.03619 0.01704 0.49401 0.0
O500 O 0.03815 0.05621 0.49408 0.0
O501 O 0.04395 0.98002 0.52402 0.0
O502 O 0.07802 0.99891 0.54257 0.0
O503 O 0.07619 0.07787 0.53246 0.0
O504 O 0.08239 0.04244 0.51813 0.0
O505 O 0.04348 0.06474 0.5714 0.0
O506 O 0.06505 0.03771 0.56944 0.0
O507 O 0.04539 0.10665 0.54312 0.0
O508 O 1.01411 0.08808 0.5191 0.0
C509 C 0.03366 0.03471 0.4828 0.0
O510 O 0.01905 0.01159 0.54606 0.0
O511 O 1.00469 0.04154 0.53424 0.0
C512 C 0.06038 0.96221 0.55429 0.0
C513 C 0.0555 0.93119 0.5893 0.0
C514 C 0.04641 0.95088 0.5913 0.0
C515 C 0.04884 0.96618 0.57406 0.0
C516 C 0.06939 0.94261 0.55209 0.0
C517 C 0.06698 0.92729 0.56934 0.0
C518 C 0.0631 0.97838 0.53601 0.0
C519 C 0.0893 0.06556 0.52315 0.0
C520 C 0.05713 0.0534 0.58178 0.0
C521 C 0.03284 0.12637 0.51229 0.0
C522 C 0.04129 0.1603 0.4805 0.0
C523 C 0.05012 0.14047 0.47778 0.0
C524 C 0.04595 0.12372 0.4935 0.0
C525 C 0.02403 0.14603 0.5151 0.0
C526 C 0.02817 0.16276 0.49944 0.0
C527 C 0.02778 0.10856 0.52867 0.0
H528 H 0.03713 0.95442 0.60609 0.0
H529 H 0.04168 0.98114 0.57616 0.0
H530 H 0.07841 0.93918 0.53705 0.0
H531 H 0.07452 0.91261 0.5672 0.0
H532 H 0.06049 0.13799 0.46367 0.0
H533 H 0.05294 0.10867 0.49095 0.0
H534 H 1.01373 0.14837 0.52934 0.0
H535 H 0.02071 0.17747 0.50197 0.0
Dy536 Dy 0.29601 0.82775 0.7719 0.0
Dy537 Dy 0.29176 0.77838 0.7961 0.0
C538 C 0.28144 0.82325 0.82555 0.0
O539 O 0.33371 0.83154 0.78781 0.0
O540 O 0.33066 0.79559 0.80058 0.0
O541 O 0.30529 0.86573 0.77589 0.0
O542 O 0.28763 0.84503 0.74193 0.0
O543 O 0.29291 0.77097 0.7569 0.0
O544 O 0.31333 0.80652 0.74894 0.0
O545 O 0.25419 0.78042 0.78871 0.0
O546 O 0.25864 0.80524 0.76031 0.0
O547 O 0.27794 0.74063 0.79194 0.0
O548 O 0.30399 0.75856 0.82207 0.0
C549 C 0.34341 0.81625 0.79717 0.0
O550 O 0.28327 0.83394 0.80664 0.0
O551 O 0.28573 0.80274 0.82645 0.0
C552 C 0.2767 0.88002 0.75482 0.0
C553 C 0.2437 0.90694 0.75739 0.0
C554 C 0.23718 0.88361 0.74545 0.0
C555 C 0.25338 0.87031 0.74428 0.0
C556 C 0.28341 0.90345 0.76625 0.0
C557 C 0.26716 0.9167 0.76759 0.0
C558 C 0.29392 0.86583 0.75496 0.0
C559 C 0.30724 0.78357 0.74456 0.0
C560 C 0.245 0.79055 0.77195 0.0
C561 C 0.30703 0.72175 0.80356 0.0
C562 C 0.33363 0.68956 0.79242 0.0
C563 C 0.32682 0.70261 0.77514 0.0
C564 C 0.31381 0.71856 0.78066 0.0
C565 C 0.31419 0.70916 0.82103 0.0
C566 C 0.32741 0.69331 0.81557 0.0
C567 C 0.29285 0.73835 0.80939 0.0
H568 H 0.21948 0.8755 0.73693 0.0
H569 H 0.24751 0.85233 0.73531 0.0
H570 H 0.30122 0.91142 0.77459 0.0
H571 H 0.27294 0.93442 0.77722 0.0
H572 H 0.33159 0.70051 0.75726 0.0
H573 H 0.30894 0.7283 0.76692 0.0
H574 H 0.30938 0.71143 0.83888 0.0
H575 H 0.3322 0.6835 0.82928 0.0
Dy576 Dy 0.52825 0.06343 0.99876 0.0
Dy577 Dy 0.52975 0.02927 0.03872 0.0
C578 C 0.54093 0.01396 0.98517 0.0
O579 O 0.49491 0.03556 0.99018 0.0
O580 O 0.49226 0.02774 0.02832 0.0
O581 O 0.52201 0.06984 0.96218 0.0
O582 O 0.53177 0.09879 0.99141 0.0
O583 O 0.53075 0.06464 0.05952 0.0
O584 O 0.51119 0.07707 0.02924 0.0
O585 O 0.5669 0.04306 0.03413 0.0
O586 O 0.5636 0.07656 0.01977 0.0
O587 O 0.54358 0.02179 0.0727 0.0
O588 O 0.51561 0.99556 0.04955 0.0
C589 C 0.48266 0.02635 0.00613 0.0
O590 O 0.54462 0.03615 0.98177 0.0
O591 O 0.53219 1.00706 0.00435 0.0
C592 C 0.54709 0.10496 0.9554 0.0
C593 C 0.58264 0.12269 0.92841 0.0
C594 C 0.58803 0.12154 0.95288 0.0
C595 C 0.57041 0.11264 0.96625 0.0
C596 C 0.54152 0.10725 0.93136 0.0
C597 C 0.55914 0.11604 0.91794 0.0
C598 C 0.52885 0.09256 0.96825 0.0
C599 C 0.51904 0.0791 0.05223 0.0
C600 C 0.57623 0.06425 0.02966 0.0
C601 C 0.51436 0.99812 0.09088 0.0
C602 C 0.48645 0.9908 0.12769 0.0
C603 C 0.49872 0.01364 0.12497 0.0
C604 C 0.51238 0.01728 0.10664 0.0
C605 C 0.50225 0.9753 0.09352 0.0
C606 C 0.48834 0.97165 0.11174 0.0
C607 C 0.52781 1.00176 0.07081 0.0
H608 H 0.60593 0.12677 0.96144 0.0
H609 H 0.5751 0.11101 0.98481 0.0
H610 H 0.52363 0.10129 0.92268 0.0
H611 H 0.55441 0.11633 0.89903 0.0
H612 H 0.49812 0.02876 0.13726 0.0
H613 H 0.52135 0.03511 0.10483 0.0
H614 H 0.50337 0.96033 0.08131 0.0
H615 H 0.47897 0.95386 0.11324 0.0
Dy616 Dy 0.28086 0.26656 0.27149 0.0
Dy617 Dy 0.30655 0.31601 0.30294 0.0
C618 C 0.29666 0.26987 0.32914 0.0
O619 O 0.25007 0.27716 0.28568 0.0
O620 O 0.26786 0.31548 0.30199 0.0
O621 O 0.26047 0.23038 0.26763 0.0
O622 O 0.27404 0.24451 0.23705 0.0
O623 O 0.30506 0.32118 0.26389 0.0
O624 O 0.27207 0.29252 0.24906 0.0
O625 O 0.33658 0.29921 0.29778 0.0
O626 O 0.31881 0.27369 0.26394 0.0
O627 O 0.33083 0.35016 0.30465 0.0
O628 O 0.31238 0.34207 0.33454 0.0
C629 C 0.24874 0.29775 0.29635 0.0
O630 O 0.29188 0.25727 0.30761 0.0
O631 O 0.3016 0.29288 0.33175 0.0
C632 C 0.27677 0.20638 0.242 0.0
C633 C 0.30556 0.17552 0.23954 0.0
C634 C 0.2907 0.17513 0.2572 0.0
C635 C 0.27643 0.19033 0.25839 0.0
C636 C 0.29043 0.20562 0.22334 0.0
C637 C 0.30474 0.19043 0.22219 0.0
C638 C 0.26527 0.22552 0.246 0.0
C639 C 0.28759 0.31173 0.24672 0.0
C640 C 0.33813 0.28507 0.27844 0.0
C641 C 0.31468 0.3791 0.32293 0.0
C642 C 0.28717 0.4108 0.3186 0.0
C643 C 0.29662 0.4026 0.29873 0.0
C644 C 0.31016 0.38685 0.30084 0.0
C645 C 0.30664 0.38862 0.34316 0.0
C646 C 0.29292 0.40424 0.341 0.0
C647 C 0.32427 0.35865 0.32418 0.0
H648 H 0.29099 0.16398 0.27096 0.0
H649 H 0.26599 0.19029 0.27288 0.0
H650 H 0.29089 0.21751 0.21021 0.0
H651 H 0.31567 0.19084 0.2081 0.0
H652 H 0.29238 0.40723 0.28121 0.0
H653 H 0.31598 0.37981 0.28482 0.0
H654 H 0.30988 0.38296 0.36039 0.0
H655 H 0.28614 0.41057 0.35669 0.0
Dy656 Dy 0.55257 0.51986 0.03406 0.0
Dy657 Dy 0.53966 0.57173 0.03874 0.0
C658 C 0.50179 0.52444 0.04385 0.0
O659 O 0.54666 0.52634 0.99564 0.0
O660 O 0.52484 0.55279 1.00149 0.0
O661 O 0.54254 0.48172 0.02523 0.0
O662 O 0.57695 0.49995 0.04325 0.0
O663 O 0.57135 0.57596 0.02056 0.0
O664 O 0.58621 0.54773 0.03512 0.0
O665 O 0.55897 0.57047 0.07524 0.0
O666 O 0.55019 0.53045 0.07253 0.0
O667 O 0.55134 0.6096 0.0485 0.0
O668 O 0.51634 0.59319 0.03084 0.0
C669 C 0.53242 0.53816 0.98719 0.0
O670 O 0.51404 0.51272 0.03208 0.0
O671 O 0.51003 0.54709 0.05203 0.0
C672 C 0.55928 0.4628 0.055 0.0
C673 C 0.55506 0.43051 0.08901 0.0
C674 C 0.54024 0.42505 0.06691 0.0
C675 C 0.5423 0.44098 0.05019 0.0
C676 C 0.57432 0.46806 0.07691 0.0
C677 C 0.57218 0.45225 0.09363 0.0
C678 C 0.5616 0.47964 0.03704 0.0
C679 C 0.58903 0.56751 0.0261 0.0
C680 C 0.55875 0.55139 0.08512 0.0
C681 C 0.53574 0.63002 0.02023 0.0
C682 C 0.54271 0.66339 0.98752 0.0
C683 C 0.54378 0.64013 0.98078 0.0
C684 C 0.54037 0.6237 0.99691 0.0
C685 C 0.53467 0.6531 0.02706 0.0
C686 C 0.5381 0.66954 0.01098 0.0
C687 C 0.53245 0.61293 0.03763 0.0
H688 H 0.52673 0.40863 0.06268 0.0
H689 H 0.53053 0.43621 0.03346 0.0
H690 H 0.5879 0.48441 0.08123 0.0
H691 H 0.58424 0.45703 0.11016 0.0
H692 H 0.54698 0.63447 0.96289 0.0
H693 H 0.54134 0.60602 0.99117 0.0
H694 H 0.5313 0.65849 0.04497 0.0
H695 H 0.53751 0.68725 0.01716 0.0
Dy696 Dy 0.79516 0.32322 0.27348 0.0
Dy697 Dy 0.79308 0.27248 0.29384 0.0
C698 C 0.78664 0.31664 0.32583 0.0
O699 O 0.83269 0.32721 0.29085 0.0
O700 O 0.83169 0.28898 0.29534 0.0
O701 O 0.80329 0.36097 0.28271 0.0
O702 O 0.78662 0.34418 0.24694 0.0
O703 O 0.79716 0.26748 0.25508 0.0
O704 O 0.81182 0.30497 0.24708 0.0
O705 O 0.7549 0.27381 0.28665 0.0
O706 O 0.75879 0.29975 0.2593 0.0
O707 O 0.78237 0.23439 0.28689 0.0
O708 O 0.80284 0.25212 0.32052 0.0
C709 C 0.84348 0.31107 0.29607 0.0
O710 O 0.77739 0.32096 0.30566 0.0
O711 O 0.79689 0.2997 0.3261 0.0
C712 C 0.7747 0.37713 0.26442 0.0
C713 C 0.74148 0.40342 0.26963 0.0
C714 C 0.76438 0.41199 0.28178 0.0
C715 C 0.78074 0.39906 0.27915 0.0
C716 C 0.75184 0.36848 0.25223 0.0
C717 C 0.7355 0.38147 0.25475 0.0
C718 C 0.79224 0.36345 0.26249 0.0
C719 C 0.80829 0.28221 0.242 0.0
C720 C 0.74533 0.28414 0.27019 0.0
C721 C 0.81233 0.21847 0.30232 0.0
C722 C 0.84575 0.19264 0.29556 0.0
C723 C 0.84854 0.21487 0.28817 0.0
C724 C 0.83204 0.22755 0.29144 0.0
C725 C 0.80928 0.19624 0.30953 0.0
C726 C 0.82574 0.18344 0.30613 0.0
C727 C 0.79514 0.23223 0.30612 0.0
H728 H 0.76965 0.42856 0.29372 0.0
H729 H 0.79816 0.40614 0.28888 0.0
H730 H 0.74648 0.35162 0.24077 0.0
H731 H 0.7182 0.37435 0.24481 0.0
H732 H 0.86343 0.22246 0.27962 0.0
H733 H 0.83472 0.24453 0.28546 0.0
H734 H 0.79423 0.18882 0.31793 0.0
H735 H 0.82302 0.16652 0.31226 0.0
Dy736 Dy 0.03711 0.56218 0.50902 0.0
Dy737 Dy 0.03532 0.52508 0.54695 0.0
C738 C 0.04481 0.5105 0.49274 0.0
O739 O 0.99938 0.54856 0.51112 0.0
O740 O 1.0011 0.51388 0.52369 0.0
O741 O 0.02659 0.57245 0.47521 0.0
O742 O 0.05172 0.59745 0.50239 0.0
O743 O 0.02034 0.55317 0.56475 0.0
O744 O 0.03739 0.58293 0.54504 0.0
O745 O 0.07113 0.54919 0.55426 0.0
O746 O 0.07314 0.55891 0.51657 0.0
O747 O 0.0431 0.51773 0.58287 0.0
O748 O 0.02538 0.48945 0.55438 0.0
C749 C 0.98941 0.52686 0.51359 0.0
O750 O 0.0368 0.52801 0.48649 0.0
O751 O 0.04952 0.50864 0.51563 0.0
C752 C 0.05783 0.59874 0.46269 0.0
C753 C 0.0901 0.61027 0.43055 0.0
C754 C 0.08648 0.58873 0.43944 0.0
C755 C 0.07056 0.58307 0.45545 0.0
C756 C 0.06152 0.62036 0.45424 0.0
C757 C 0.07755 0.62611 0.43822 0.0
C758 C 0.04179 0.59299 0.48016 0.0
C759 C 0.02678 0.57579 0.56308 0.0
C760 C 0.08313 0.5575 0.53775 0.0
C761 C 1.01316 0.48794 0.59215 0.0
C762 C 0.97989 0.47779 0.62352 0.0
C763 C 0.97541 0.48858 0.60345 0.0
C764 C 0.99195 0.49365 0.5879 0.0
C765 C 0.01734 0.4763 0.61151 0.0
C766 C 1.00078 0.4712 0.6271 0.0
C767 C 0.03145 0.49572 0.57742 0.0
H768 H 0.09544 0.5759 0.4335 0.0
H769 H 0.06807 0.56638 0.46209 0.0
H770 H 0.05203 0.63277 0.46002 0.0
H771 H 0.08006 0.64286 0.43175 0.0
H772 H 0.95942 0.49372 0.60019 0.0
H773 H 0.98851 0.50271 0.57298 0.0
H774 H 0.0337 0.47191 0.61505 0.0
H775 H 1.00488 0.46322 0.64263 0.0
Dy776 Dy 0.82309 0.79217 0.29344 0.0
Dy777 Dy 0.77116 0.80499 0.29442 0.0
C778 C 0.81756 0.8435 0.28649 0.0
O779 O 0.8212 0.80079 0.33316 0.0
O780 O 0.78997 0.81728 0.33174 0.0
O781 O 0.86099 0.80115 0.30055 0.0
O782 O 0.8418 0.76797 0.27966 0.0
O783 O 0.76902 0.77371 0.31284 0.0
O784 O 0.79611 0.75858 0.29572 0.0
O785 O 0.77051 0.78339 0.25856 0.0
O786 O 0.80938 0.79493 0.25581 0.0
O787 O 0.73345 0.79249 0.28663 0.0
O788 O 0.74972 0.82829 0.30319 0.0
C789 C 0.80775 0.81233 0.34363 0.0
O790 O 0.83018 0.83077 0.29564 0.0
O791 O 0.79469 0.83556 0.28085 0.0
C792 C 0.87926 0.78583 0.26896 0.0
C793 C 0.91239 0.79059 0.23563 0.0
C794 C 0.88839 0.78014 0.22794 0.0
C795 C 0.87213 0.77788 0.24427 0.0
C796 C 0.90313 0.79621 0.27676 0.0
C797 C 0.91943 0.7986 0.26039 0.0
C798 C 0.86231 0.78254 0.28678 0.0
C799 C 0.77729 0.75593 0.30638 0.0
C800 C 0.78785 0.78512 0.24575 0.0
C801 C 0.7131 0.80915 0.31528 0.0
C802 C 0.67956 0.80473 0.34815 0.0
C803 C 0.67579 0.78866 0.32684 0.0
C804 C 0.69228 0.79086 0.31068 0.0
C805 C 0.71684 0.82527 0.3365 0.0
C806 C 0.70038 0.8231 0.35262 0.0
C807 C 0.73022 0.8117 0.29755 0.0
H808 H 0.88205 0.77329 0.20922 0.0
H809 H 0.85394 0.76969 0.2375 0.0
H810 H 0.90924 0.80246 0.29565 0.0
H811 H 0.93756 0.80703 0.26719 0.0
H812 H 0.66023 0.77412 0.32275 0.0
H813 H 0.6887 0.77817 0.29448 0.0
H814 H 0.73247 0.83975 0.34068 0.0
H815 H 0.70393 0.83614 0.36851 0.0
Dy816 Dy 0.81803 0.30942 0.76698 0.0
Dy817 Dy 0.78341 0.30377 0.80662 0.0
C818 C 0.8163 0.35322 0.80432 0.0
O819 O 0.83495 0.29232 0.79447 0.0
O820 O 0.81876 0.30378 0.82703 0.0
O821 O 0.85265 0.32312 0.75844 0.0
O822 O 0.82517 0.30241 0.73073 0.0
O823 O 0.78772 0.26825 0.79561 0.0
O824 O 0.79449 0.27315 0.75751 0.0
O825 O 0.76073 0.3045 0.77181 0.0
O826 O 0.78935 0.32479 0.75285 0.0
O827 O 0.74971 0.28579 0.81469 0.0
O828 O 0.77356 0.3127 0.84133 0.0
C829 C 0.83546 0.29611 0.81794 0.0
O830 O 0.82954 0.34215 0.79353 0.0
O831 O 0.79488 0.34238 0.80643 0.0
C832 C 0.85183 0.3341 0.72008 0.0
C833 C 0.85372 0.36473 0.68601 0.0
C834 C 0.8473 0.37078 0.7085 0.0
C835 C 0.84623 0.35546 0.72542 0.0
C836 C 0.85993 0.32888 0.6984 0.0
C837 C 0.8609 0.34413 0.68144 0.0
C838 C 0.84632 0.31606 0.73553 0.0
C839 C 0.78801 0.25958 0.77344 0.0
C840 C 0.767 0.31674 0.75447 0.0
C841 C 0.75158 0.27876 0.85432 0.0
C842 C 0.74614 0.24427 0.88457 0.0
C843 C 0.76846 0.25678 0.88106 0.0
C844 C 0.77117 0.27377 0.86595 0.0
C845 C 0.7292 0.2661 0.85753 0.0
C846 C 0.72647 0.24882 0.87256 0.0
C847 C 0.75446 0.29547 0.83711 0.0
H848 H 0.84144 0.38643 0.71229 0.0
H849 H 0.83975 0.35963 0.74208 0.0
H850 H 0.86424 0.31242 0.69406 0.0
H851 H 0.86598 0.3392 0.6642 0.0
H852 H 0.78386 0.25335 0.89001 0.0
H853 H 0.78859 0.28286 0.86324 0.0
H854 H 0.71391 0.26945 0.84828 0.0
H855 H 0.70913 0.23937 0.87515 0.0
Dy856 Dy 0.78077 0.76424 0.77777 0.0
Dy857 Dy 0.80416 0.81841 0.79992 0.0
C858 C 0.79765 0.77952 0.83463 0.0
O859 O 0.74873 0.77777 0.78314 0.0
O860 O 0.76614 0.81339 0.80638 0.0
O861 O 0.77308 0.72846 0.78447 0.0
O862 O 0.76193 0.73595 0.74943 0.0
O863 O 0.79039 0.82069 0.76187 0.0
O864 O 0.78417 0.7823 0.74515 0.0
O865 O 0.83505 0.80715 0.78679 0.0
O866 O 0.81954 0.76752 0.77509 0.0
O867 O 0.82455 0.85344 0.79745 0.0
O868 O 0.8108 0.8459 0.83026 0.0
C869 C 0.74704 0.79674 0.79696 0.0
O870 O 0.78162 0.76595 0.81784 0.0
O871 O 0.81201 0.79843 0.82961 0.0
C872 C 0.77523 0.70173 0.75197 0.0
C873 C 0.80316 0.67123 0.74121 0.0
C874 C 0.78683 0.6663 0.75735 0.0
C875 C 0.77293 0.68127 0.76248 0.0
C876 C 0.79044 0.70611 0.73479 0.0
C877 C 0.80407 0.69084 0.72924 0.0
C878 C 0.76471 0.71977 0.76223 0.0
C879 C 0.78617 0.80444 0.74291 0.0
C880 C 0.83756 0.78639 0.77808 0.0
C881 C 0.80815 0.8813 0.81738 0.0
C882 C 0.77898 0.91158 0.81534 0.0
C883 C 0.7875 0.9038 0.79462 0.0
C884 C 0.8019 0.88878 0.7956 0.0
C885 C 0.80062 0.89008 0.83833 0.0
C886 C 0.78606 0.90498 0.83731 0.0
C887 C 0.81971 0.86221 0.81786 0.0
H888 H 0.78574 0.65177 0.76738 0.0
H889 H 0.76148 0.67769 0.77598 0.0
H890 H 0.79266 0.72189 0.72651 0.0
H891 H 0.81599 0.69501 0.71631 0.0
H892 H 0.78223 0.9085 0.77742 0.0
H893 H 0.8073 0.8823 0.77907 0.0
H894 H 0.80522 0.88463 0.85535 0.0
H895 H 0.78002 0.91103 0.85361 0.0
Dy896 Dy 0.56834 0.55774 0.55334 0.0
Dy897 Dy 0.5176 0.53042 0.52481 0.0
C898 C 0.56148 0.53994 0.49544 0.0
O899 O 0.55329 0.58807 0.54484 0.0
O900 O 0.52049 0.56851 0.51859 0.0
O901 O 0.60204 0.58238 0.55505 0.0
O902 O 0.59276 0.56634 0.58604 0.0
O903 O 0.50942 0.54577 0.55983 0.0
O904 O 0.54513 0.55398 0.58236 0.0
O905 O 0.5306 0.5006 0.53905 0.0
O906 O 0.56871 0.5193 0.55415 0.0
O907 O 0.48302 0.50776 0.52424 0.0
O908 O 0.49354 0.52067 0.49187 0.0
C909 C 0.5354 0.58849 0.52916 0.0
O910 O 0.57478 0.55354 0.5144 0.0
O911 O 0.54072 0.52676 0.49711 0.0
C912 C 0.63066 0.57077 0.57773 0.0
C913 C 0.67051 0.55424 0.58045 0.0
C914 C 0.65064 0.5423 0.56401 0.0
C915 C 0.63089 0.55045 0.56274 0.0
C916 C 0.65035 0.5829 0.59415 0.0
C917 C 0.67028 0.57471 0.59547 0.0
C918 C 0.60948 0.57862 0.57623 0.0
C919 C 0.52252 0.55087 0.58078 0.0
C920 C 0.55129 0.49985 0.54942 0.0
C921 C 0.45657 0.52203 0.50119 0.0
C922 C 0.42361 0.54659 0.5113 0.0
C923 C 0.44419 0.5579 0.50303 0.0
C924 C 0.46053 0.54573 0.49803 0.0
C925 C 0.43518 0.51017 0.5074 0.0
C926 C 0.41875 0.52235 0.51235 0.0
C927 C 0.47612 0.51136 0.50275 0.0
H928 H 0.65046 0.52685 0.55175 0.0
H929 H 0.6158 0.54092 0.54991 0.0
H930 H 0.65029 0.59859 0.6059 0.0
H931 H 0.68539 0.58423 0.60825 0.0
H932 H 0.44852 0.57656 0.50216 0.0
H933 H 0.47692 0.5554 0.49331 0.0
H934 H 0.43183 0.49194 0.50999 0.0
H935 H 0.40279 0.5131 0.51824 0.0
Dy936 Dy 0.01799 0.54521 0.04702 0.0
Dy937 Dy 0.07034 0.54721 0.03065 0.0
C938 C 0.03045 0.55802 0.99452 0.0
O939 O 0.01466 0.50647 0.03377 0.0
O940 O 0.05127 0.50821 0.02353 0.0
O941 O 0.98045 0.53732 0.03888 0.0
O942 O 0.99784 0.55433 0.07433 0.0
O943 O 0.07233 0.54769 0.06997 0.0
O944 O 0.03539 0.52747 0.07313 0.0
O945 O 0.07098 0.58584 0.0381 0.0
O946 O 0.03924 0.58359 0.05831 0.0
O947 O 0.1076 0.55533 0.04162 0.0
O948 O 0.0927 0.53807 0.00571 0.0
C949 C 0.03005 0.49595 0.0257 0.0
O950 O 0.01531 0.55322 0.0096 0.0
O951 O 0.05215 0.55728 0.99903 0.0
C952 C 0.96496 0.5663 0.05831 0.0
C953 C 0.93888 0.59987 0.05467 0.0
C954 C 0.96235 0.60673 0.06543 0.0
C955 C 0.97523 0.59021 0.06712 0.0
C956 C 0.94154 0.55935 0.04777 0.0
C957 C 0.92869 0.57588 0.04591 0.0
C958 C 0.97843 0.54854 0.05942 0.0
C959 C 0.05779 0.53335 0.08059 0.0
C960 C 0.05798 0.59623 0.0508 0.0
C961 C 0.12453 0.52609 0.02432 0.0
C962 C 0.15018 0.49221 0.02865 0.0
C963 C 0.15285 0.51094 0.04729 0.0
C964 C 0.1402 0.52764 0.04516 0.0
C965 C 0.12203 0.50747 0.00563 0.0
C966 C 0.1346 0.49077 0.00779 0.0
C967 C 0.11112 0.54389 0.0219 0.0
H968 H 0.97083 0.62489 0.07275 0.0
H969 H 0.99328 0.59622 0.07528 0.0
H970 H 0.93321 0.54108 0.0407 0.0
H971 H 0.91085 0.56984 0.03715 0.0
H972 H 0.1645 0.51254 0.06371 0.0
H973 H 0.14269 0.54176 0.05989 0.0
H974 H 0.11037 0.50579 0.98919 0.0
H975 H 0.13232 0.47687 0.99288 0.0
H976 H 0.98734 0.19942 0.99429 0.0
H977 H 0.05405 0.23499 0.9753 0.0
H978 H 0.07 0.20269 0.98651 0.0
H979 H 1.00851 0.17381 0.04442 0.0
H980 H 0.98674 0.14598 0.03721 0.0
H981 H 0.98037 0.17206 0.02844 0.0
H982 H 0.96957 0.15194 0.98437 0.0
H983 H 0.9758 0.12577 0.99307 0.0
H984 H 0.99022 0.13969 0.97012 0.0
H985 H 0.08016 0.16665 1.00302 0.0
H986 H 0.08177 0.12917 0.01688 0.0
H987 H 1.0078 0.11269 0.02114 0.0
C988 C 1.00531 0.20045 0.99235 0.0
C989 C 0.01928 0.22054 0.98375 0.0
C990 C 0.04265 0.22036 0.98156 0.0
C991 C 0.052 0.20188 0.98811 0.0
C992 C 0.03795 0.18265 0.99655 0.0
C993 C 0.01486 0.18152 0.99817 0.0
C994 C 1.00328 0.15812 0.00665 0.0
C995 C 0.99418 0.16277 0.0306 0.0
C996 C 0.98354 0.14298 0.98741 0.0
C997 C 0.0234 0.14644 0.00987 0.0
C998 C 0.04335 0.16122 0.00432 0.0
C999 C 0.06444 0.155 0.00702 0.0
C1000 C 0.06523 0.13344 0.01513 0.0
C1001 C 0.04508 0.1172 0.02025 0.0
C1002 C 0.02374 0.12416 0.01737 0.0
H1003 H 0.13964 0.81973 0.18504 0.0
H1004 H 0.18008 0.8356 0.12682 0.0
H1005 H 0.21513 0.83403 0.15198 0.0
H1006 H 0.18668 0.85463 0.23342 0.0
H1007 H 0.17994 0.83413 0.25435 0.0
H1008 H 0.15727 0.83678 0.23218 0.0
H1009 H 0.1473 0.79226 0.21707 0.0
H1010 H 0.16998 0.7895 0.23913 0.0
H1011 H 0.16985 0.7796 0.20781 0.0
H1012 H 0.24626 0.82854 0.1819 0.0
H1013 H 0.2718 0.82226 0.21598 0.0
H1014 H 0.2143 0.81189 0.25773 0.0
C1015 C 0.1559 0.82315 0.17766 0.0
C1016 C 0.15649 0.82778 0.15344 0.0
C1017 C 0.17849 0.83197 0.14494 0.0
C1018 C 0.19881 0.8311 0.15921 0.0
C1019 C 0.19759 0.82621 0.18255 0.0
C1020 C 0.17684 0.82258 0.19199 0.0
C1021 C 0.18098 0.81782 0.21795 0.0
C1022 C 0.17591 0.83698 0.23552 0.0
C1023 C 0.16614 0.79334 0.22065 0.0
C1024 C 0.20705 0.81903 0.22129 0.0
C1025 C 0.21609 0.8238 0.20043 0.0
C1026 C 0.23937 0.82501 0.19839 0.0
C1027 C 0.25385 0.82133 0.21799 0.0
C1028 C 0.24548 0.81668 0.23993 0.0
C1029 C 0.22157 0.81567 0.24147 0.0
H1030 H 0.5295 0.86497 0.46505 0.0
H1031 H 0.48559 0.83296 0.51475 0.0
H1032 H 0.48458 0.87257 0.53328 0.0
H1033 H 0.56397 0.91517 0.50867 0.0
H1034 H 0.56708 0.93534 0.4871 0.0
H1035 H 0.56366 0.90458 0.47747 0.0
H1036 H 0.52817 0.90322 0.44668 0.0
H1037 H 0.53142 0.93394 0.45629 0.0
H1038 H 0.50409 0.91273 0.45679 0.0
H1039 H 0.48693 0.91736 0.54521 0.0
H1040 H 0.49593 0.9608 0.55211 0.0
H1041 H 0.54139 0.96428 0.49727 0.0
C1042 C 0.51964 0.8662 0.47986 0.0
C1043 C 0.50743 0.84534 0.48818 0.0
C1044 C 0.4951 0.84826 0.50787 0.0
C1045 C 0.49438 0.87088 0.51849 0.0
C1046 C 0.50647 0.89096 0.50975 0.0
C1047 C 0.51925 0.88876 0.49109 0.0
C1048 C 0.53158 0.91308 0.48564 0.0
C1049 C 0.55815 0.91729 0.48998 0.0
C1050 C 0.52332 0.9159 0.45981 0.0
C1051 C 0.52365 0.92941 0.50387 0.0
C1052 C 0.50888 0.91631 0.51741 0.0
C1053 C 0.49868 0.92756 0.53474 0.0
C1054 C 0.50383 0.95246 0.5385 0.0
C1055 C 0.51948 0.96652 0.52543 0.0
C1056 C 0.52946 0.95445 0.50783 0.0
H1057 H 0.53337 0.29249 0.68358 0.0
H1058 H 0.50113 0.3083 0.61762 0.0
H1059 H 0.46418 0.30375 0.63429 0.0
H1060 H 0.48182 0.24802 0.69383 0.0
H1061 H 0.48714 0.25624 0.72596 0.0
H1062 H 0.51118 0.26043 0.70885 0.0
H1063 H 0.5246 0.30444 0.72699 0.0
H1064 H 0.50052 0.30042 0.74403 0.0
H1065 H 0.50449 0.32221 0.72416 0.0
H1066 H 0.43104 0.29939 0.65856 0.0
H1067 H 0.40329 0.2932 0.6877 0.0
H1068 H 0.45545 0.278 0.73789 0.0
C1069 C 0.51849 0.29484 0.6726 0.0
C1070 C 0.52031 0.30078 0.64917 0.0
C1071 C 0.50032 0.30367 0.63549 0.0
C1072 C 0.47919 0.30119 0.64486 0.0
C1073 C 0.47801 0.29556 0.66798 0.0
C1074 C 0.49702 0.29216 0.68163 0.0
C1075 C 0.4908 0.28596 0.70591 0.0
C1076 C 0.49286 0.26119 0.70881 0.0
C1077 C 0.50601 0.30436 0.72649 0.0
C1078 C 0.46549 0.28679 0.70388 0.0
C1079 C 0.45856 0.29239 0.68182 0.0
C1080 C 0.4362 0.29466 0.67577 0.0
C1081 C 0.42042 0.2909 0.6925 0.0
C1082 C 0.42675 0.28469 0.71522 0.0
C1083 C 0.44982 0.28278 0.72087 0.0
H1084 H 0.03552 0.80778 0.64038 0.0
H1085 H 0.03981 0.84624 0.71133 0.0
H1086 H 0.04732 0.88348 0.69433 0.0
H1087 H 0.08058 0.85125 0.61921 0.0
H1088 H 0.06533 0.84618 0.58912 0.0
H1089 H 0.06132 0.82277 0.60706 0.0
H1090 H 0.01679 0.81742 0.60068 0.0
H1091 H 0.02067 0.84083 0.58277 0.0
H1092 H 1.00558 0.84223 0.60856 0.0
H1093 H 0.05348 0.91672 0.66908 0.0
H1094 H 0.05779 0.94291 0.63823 0.0
H1095 H 0.04832 0.88269 0.58331 0.0
C1096 C 0.03827 0.82405 0.65242 0.0
C1097 C 0.03718 0.82401 0.67731 0.0
C1098 C 0.04065 0.84574 0.69229 0.0
C1099 C 0.04491 0.86701 0.68275 0.0
C1100 C 0.04564 0.86639 0.65812 0.0
C1101 C 0.04244 0.84545 0.64316 0.0
C1102 C 0.04346 0.84951 0.61724 0.0
C1103 C 0.06389 0.84198 0.60759 0.0
C1104 C 0.02024 0.83674 0.60138 0.0
C1105 C 0.0476 0.87599 0.61987 0.0
C1106 C 0.04888 0.88541 0.64361 0.0
C1107 C 0.05243 0.90946 0.65045 0.0
C1108 C 0.05468 0.92423 0.63266 0.0
C1109 C 0.05328 0.91508 0.60809 0.0
C1110 C 0.04976 0.8905 0.60183 0.0
H1111 H 0.46649 0.80894 0.86704 0.0
H1112 H 0.50254 0.85291 0.81962 0.0
H1113 H 0.46437 0.85362 0.79826 0.0
H1114 H 0.41778 0.77414 0.82039 0.0
H1115 H 0.39682 0.77161 0.84119 0.0
H1116 H 0.42687 0.77401 0.85171 0.0
H1117 H 0.42805 0.8099 0.88276 0.0
H1118 H 0.39813 0.80782 0.87213 0.0
H1119 H 0.42028 0.83485 0.87266 0.0
H1120 H 0.42047 0.85263 0.78472 0.0
H1121 H 0.37758 0.84547 0.77692 0.0
H1122 H 0.36992 0.79927 0.83092 0.0
C1123 C 0.46642 0.81828 0.85176 0.0
C1124 C 0.48794 0.83064 0.84496 0.0
C1125 C 0.48667 0.84286 0.82503 0.0
C1126 C 0.46488 0.84355 0.81293 0.0
C1127 C 0.44409 0.83158 0.82048 0.0
C1128 C 0.4448 0.81865 0.83913 0.0
C1129 C 0.42011 0.80697 0.84369 0.0
C1130 C 0.4151 0.78009 0.83897 0.0
C1131 C 0.41644 0.81539 0.86934 0.0
C1132 C 0.40524 0.81566 0.82514 0.0
C1133 C 0.41937 0.83008 0.81206 0.0
C1134 C 0.40948 0.84106 0.79475 0.0
C1135 C 0.3849 0.837 0.7905 0.0
C1136 C 0.36987 0.8217 0.8031 0.0
C1137 C 0.38056 0.81094 0.82069 0.0
H1138 H 0.55025 0.19089 0.15741 0.0
H1139 H 0.47889 0.19404 0.1437 0.0
H1140 H 0.46954 0.1571 0.11483 0.0
H1141 H 0.55671 0.17139 0.09933 0.0
H1142 H 0.57404 0.15181 0.10655 0.0
H1143 H 0.57446 0.17663 0.12818 0.0
H1144 H 0.56228 0.14927 0.15953 0.0
H1145 H 0.56223 0.12435 0.13814 0.0
H1146 H 0.53659 0.12484 0.15195 0.0
H1147 H 0.47001 0.12291 0.08196 0.0
H1148 H 0.47843 0.09213 0.05363 0.0
H1149 H 0.54875 0.10885 0.09086 0.0
C1150 C 0.53237 0.1832 0.14919 0.0
C1151 C 0.51511 0.19519 0.15361 0.0
C1152 C 0.49222 0.18495 0.14151 0.0
C1153 C 0.48687 0.16405 0.12473 0.0
C1154 C 0.50449 0.15317 0.12026 0.0
C1155 C 0.52667 0.16211 0.13273 0.0
C1156 C 0.54273 0.14757 0.1242 0.0
C1157 C 0.56319 0.16276 0.11396 0.0
C1158 C 0.55147 0.13581 0.14467 0.0
C1159 C 0.5264 0.12937 0.10452 0.0
C1160 C 0.50444 0.13304 0.10234 0.0
C1161 C 0.487 0.11968 0.08403 0.0
C1162 C 0.49198 0.1022 0.06787 0.0
C1163 C 0.51411 0.09759 0.07008 0.0
C1164 C 0.53146 0.11142 0.0889 0.0
H1165 H 0.14981 0.34723 0.36275 0.0
H1166 H 0.09798 0.29787 0.30926 0.0
H1167 H 0.12915 0.28497 0.29116 0.0
H1168 H 0.19315 0.36351 0.32119 0.0
H1169 H 0.21798 0.36622 0.34324 0.0
H1170 H 0.19177 0.37167 0.35255 0.0
H1171 H 0.19035 0.34076 0.3812 0.0
H1172 H 0.21651 0.33525 0.37181 0.0
H1173 H 0.19057 0.31137 0.36945 0.0
H1174 H 0.16643 0.27545 0.27921 0.0
H1175 H 0.20567 0.27251 0.27278 0.0
H1176 H 0.23594 0.32965 0.3312 0.0
C1177 C 0.14495 0.33372 0.3472 0.0
C1178 C 0.12074 0.32363 0.33773 0.0
C1179 C 0.11586 0.30612 0.31716 0.0
C1180 C 0.13368 0.29855 0.30666 0.0
C1181 C 0.15707 0.30868 0.31632 0.0
C1182 C 0.16285 0.32618 0.33599 0.0
C1183 C 0.18963 0.33449 0.34223 0.0
C1184 C 0.19866 0.36052 0.33965 0.0
C1185 C 0.19721 0.33022 0.36769 0.0
C1186 C 0.19792 0.31883 0.32328 0.0
C1187 C 0.17866 0.30394 0.3087 0.0
C1188 C 0.18149 0.28727 0.29048 0.0
C1189 C 0.20416 0.28568 0.28695 0.0
C1190 C 0.22461 0.30082 0.30111 0.0
C1191 C 0.22109 0.31782 0.31961 0.0
H1192 H 0.98318 0.0685 0.20586 0.0
H1193 H 0.98306 0.99598 0.20898 0.0
H1194 H 0.99771 0.99362 0.17029 0.0
H1195 H 0.96546 0.0594 0.13872 0.0
H1196 H 0.98371 0.08761 0.13522 0.0
H1197 H 0.97152 0.08373 0.16272 0.0
H1198 H 1.01284 0.09898 0.18678 0.0
H1199 H 0.02518 0.10264 0.15935 0.0
H1200 H 0.03499 0.0848 0.17956 0.0
H1201 H 0.01698 0.99957 0.13439 0.0
H1202 H 0.03464 0.0121 0.09905 0.0
H1203 H 0.02041 0.07973 0.11451 0.0
C1204 C 0.98561 0.05198 0.19802 0.0
C1205 C 0.98192 0.0324 0.2108 0.0
C1206 C 0.9858 0.01128 0.19988 0.0
C1207 C 0.9942 0.00972 0.17779 0.0
C1208 C 0.99854 0.02934 0.16615 0.0
C1209 C 0.99394 0.04997 0.17542 0.0
C1210 C 1.00061 0.0683 0.15871 0.0
C1211 C 0.97904 0.07517 0.14822 0.0
C1212 C 0.01953 0.08997 0.17189 0.0
C1213 C 1.01008 0.05482 0.13918 0.0
C1214 C 1.00882 0.03243 0.14418 0.0
C1215 C 0.01768 0.01692 0.13002 0.0
C1216 C 0.02784 0.02424 0.11003 0.0
C1217 C 0.02884 0.04677 0.10386 0.0
C1218 C 0.01969 0.06229 0.11863 0.0
H1219 H 0.28005 0.67112 0.47249 0.0
H1220 H 0.24668 0.69826 0.52931 0.0
H1221 H 0.22369 0.71378 0.50035 0.0
H1222 H 0.28914 0.72106 0.44624 0.0
H1223 H 0.28469 0.70693 0.41555 0.0
H1224 H 0.29426 0.69263 0.43932 0.0
H1225 H 0.25904 0.65618 0.42491 0.0
H1226 H 0.24929 0.67053 0.40109 0.0
H1227 H 0.22995 0.65969 0.42199 0.0
H1228 H 0.20779 0.73049 0.46711 0.0
H1229 H 0.20373 0.75158 0.43272 0.0
H1230 H 0.25019 0.71764 0.39779 0.0
C1231 C 0.26727 0.67962 0.47853 0.0
C1232 C 0.26465 0.68292 0.50303 0.0
C1233 C 0.24864 0.69506 0.51063 0.0
C1234 C 0.23534 0.70386 0.49423 0.0
C1235 C 0.23855 0.70078 0.47026 0.0
C1236 C 0.25432 0.68922 0.46238 0.0
C1237 C 0.25733 0.69198 0.43656 0.0
C1238 C 0.28286 0.70386 0.43431 0.0
C1239 C 0.24836 0.66817 0.42017 0.0
C1240 C 0.24171 0.70781 0.43171 0.0
C1241 C 0.23042 0.71193 0.45111 0.0
C1242 C 0.21632 0.72724 0.45165 0.0
C1243 C 0.21428 0.73929 0.43213 0.0
C1244 C 0.22672 0.73638 0.4126 0.0
C1245 C 0.24003 0.71988 0.41216 0.0
H1246 H 0.65564 0.04654 0.69378 0.0
H1247 H 0.60222 1.00258 0.72652 0.0
H1248 H 0.57828 0.98829 0.6869 0.0
H1249 H 0.62127 0.06829 0.66187 0.0
H1250 H 0.63486 0.07004 0.63498 0.0
H1251 H 0.65183 0.07001 0.66294 0.0
H1252 H 0.66424 0.03387 0.64489 0.0
H1253 H 0.64779 0.03411 0.61644 0.0
H1254 H 0.64237 0.00784 0.63026 0.0
H1255 H 0.5561 0.98803 0.64798 0.0
H1256 H 0.53832 0.99921 0.61154 0.0
H1257 H 0.60549 0.04439 0.60348 0.0
C1258 C 0.63965 0.03264 0.69214 0.0
C1259 C 0.63094 0.02497 0.71279 0.0
C1260 C 0.60933 0.00798 0.71063 0.0
C1261 C 0.59564 0.99987 0.68821 0.0
C1262 C 0.60385 0.00907 0.66826 0.0
C1263 C 0.62563 0.02476 0.66988 0.0
C1264 C 0.62847 0.03551 0.64703 0.0
C1265 C 0.63444 0.06254 0.65203 0.0
C1266 C 0.6468 0.02734 0.63387 0.0
C1267 C 0.60432 0.02501 0.63326 0.0
C1268 C 0.5906 0.00931 0.6455 0.0
C1269 C 0.56685 0.99971 0.63786 0.0
C1270 C 0.55684 1.00641 0.6173 0.0
C1271 C 0.57053 0.0227 0.60471 0.0
C1272 C 0.59465 0.03165 0.61255 0.0
H1273 H 0.29666 0.38133 0.96275 0.0
H1274 H 0.32367 0.33305 1.00137 0.0
H1275 H 0.32899 0.31201 0.96286 0.0
H1276 H 0.26409 0.33823 0.91346 0.0
H1277 H 0.2697 0.35764 0.89135 0.0
H1278 H 0.26924 0.36944 0.92198 0.0
H1279 H 0.31076 0.39678 0.92359 0.0
H1280 H 0.31133 0.38504 0.89295 0.0
H1281 H 0.33398 0.38428 0.91616 0.0
H1282 H 0.3309 0.29574 0.91881 0.0
H1283 H 0.3274 0.28528 0.87458 0.0
H1284 H 0.29806 0.3437 0.86544 0.0
C1285 C 0.30391 0.36647 0.96317 0.0
C1286 C 0.30991 0.35901 0.98525 0.0
C1287 C 0.319 0.33921 0.9848 0.0
C1288 C 0.32211 0.32714 0.96294 0.0
C1289 C 0.3159 0.33488 0.94148 0.0
C1290 C 0.30686 0.35406 0.9415 0.0
C1291 C 0.30063 0.35835 0.91605 0.0
C1292 C 0.27436 0.35576 0.91038 0.0
C1293 C 0.31504 0.38255 0.91195 0.0
C1294 C 0.30757 0.33867 0.90168 0.0
C1295 C 0.3165 0.32534 0.91656 0.0
C1296 C 0.32393 0.30614 0.90707 0.0
C1297 C 0.32196 0.30034 0.88187 0.0
C1298 C 0.31245 0.31354 0.86628 0.0
C1299 C 0.30538 0.33306 0.87661 0.0
H1300 H 0.96946 0.06363 0.36264 0.0
H1301 H 0.9934 0.01008 0.32232 0.0
H1302 H 1.01098 1.00082 0.36015 0.0
H1303 H 0.02186 0.08462 0.40565 0.0
H1304 H 1.00692 0.09106 0.43051 0.0
H1305 H 0.99476 0.09231 0.40041 0.0
H1306 H 0.95633 0.06273 0.40573 0.0
H1307 H 0.9684 0.0614 0.43585 0.0
H1308 H 0.95714 0.03483 0.41462 0.0
H1309 H 0.02534 0.99662 0.40337 0.0
H1310 H 0.0386 1.00107 0.44711 0.0
H1311 H 1.00872 0.05982 0.45883 0.0
C1312 C 0.9782 0.0498 0.36183 0.0
C1313 C 0.9797 0.03734 0.33942 0.0
C1314 C 0.99183 0.01978 0.33917 0.0
C1315 C 1.00187 0.01434 0.36064 0.0
C1316 C 1.00018 0.02697 0.38242 0.0
C1317 C 0.98896 0.04463 0.38313 0.0
C1318 C 0.99095 0.05662 0.40877 0.0
C1319 C 1.00442 0.08269 0.41149 0.0
C1320 C 0.96677 0.05371 0.41671 0.0
C1321 C 1.00479 0.04285 0.42233 0.0
C1322 C 1.00969 0.02558 0.40691 0.0
C1323 C 0.02174 0.01026 0.41554 0.0
C1324 C 0.02916 0.01283 0.44045 0.0
C1325 C 0.02497 0.0309 0.45649 0.0
C1326 C 1.01252 0.04598 0.4471 0.0
H1327 H 0.29646 0.68307 0.6391 0.0
H1328 H 0.34673 0.73376 0.60937 0.0
H1329 H 0.35894 0.75823 0.64907 0.0
H1330 H 0.27446 0.71935 0.66687 0.0
H1331 H 0.26932 0.70697 0.694 0.0
H1332 H 0.27118 0.68846 0.66743 0.0
H1333 H 0.30447 0.67522 0.68966 0.0
H1334 H 0.30207 0.69308 0.71676 0.0
H1335 H 0.32976 0.69696 0.70584 0.0
H1336 H 0.35638 0.78236 0.6861 0.0
H1337 H 0.34237 0.80261 0.7196 0.0
H1338 H 0.2927 0.7371 0.7257 0.0
C1339 C 0.31121 0.69845 0.64157 0.0
C1340 C 0.32117 0.7064 0.62164 0.0
C1341 C 0.33945 0.72724 0.62476 0.0
C1342 C 0.34641 0.74124 0.64724 0.0
C1343 C 0.33484 0.73407 0.66629 0.0
C1344 C 0.318 0.71279 0.66391 0.0
C1345 C 0.30492 0.71138 0.68543 0.0
C1346 C 0.27843 0.70627 0.67796 0.0
C1347 C 0.31067 0.69308 0.7003 0.0
C1348 C 0.31526 0.73597 0.69882 0.0
C1349 C 0.33302 0.74852 0.68797 0.0
C1350 C 0.34305 0.7725 0.69525 0.0
C1351 C 0.33475 0.78394 0.71406 0.0
C1352 C 0.31641 0.77143 0.72519 0.0
C1353 C 0.30694 0.74707 0.71772 0.0
H1354 H 0.67258 0.07918 0.85882 0.0
H1355 H 0.6474 0.11147 0.80074 0.0
H1356 H 0.63134 0.13549 0.82905 0.0
H1357 H 0.62386 0.06926 0.88307 0.0
H1358 H 0.63631 0.07459 0.91424 0.0
H1359 H 0.65252 0.06594 0.89165 0.0
H1360 H 0.68668 0.10305 0.90727 0.0
H1361 H 0.67041 0.11188 0.92999 0.0
H1362 H 0.68144 0.13165 0.90954 0.0
H1363 H 0.61095 0.14919 0.86048 0.0
H1364 H 0.58535 0.14914 0.89178 0.0
H1365 H 0.62121 0.10636 0.92954 0.0
C1366 C 0.66465 0.09218 0.85244 0.0
C1367 C 0.66156 0.0939 0.8278 0.0
C1368 C 0.65017 0.11016 0.81963 0.0
C1369 C 0.64116 0.12404 0.83564 0.0
C1370 C 0.6435 0.12128 0.85976 0.0
C1371 C 0.655 0.10574 0.86821 0.0
C1372 C 0.65101 0.10258 0.89373 0.0
C1373 C 0.64027 0.07657 0.89576 0.0
C1374 C 0.67374 0.11291 0.91116 0.0
C1375 C 0.63396 0.11714 0.89746 0.0
C1376 C 0.63067 0.12858 0.87806 0.0
C1377 C 0.61374 0.14078 0.87604 0.0
C1378 C 0.59915 0.14051 0.89379 0.0
C1379 C 0.60132 0.12776 0.91307 0.0
C1380 C 0.61956 0.11678 0.91536 0.0
H1381 H 0.33375 0.35737 0.12794 0.0
H1382 H 0.26467 0.36386 0.10542 0.0
H1383 H 0.25227 0.35147 0.14338 0.0
H1384 H 0.31788 0.30751 0.15707 0.0
H1385 H 0.34134 0.31768 0.18167 0.0
H1386 H 0.34487 0.32754 0.1531 0.0
H1387 H 0.35522 0.37079 0.17357 0.0
H1388 H 0.35187 0.36104 0.20225 0.0
H1389 H 0.33547 0.3803 0.19177 0.0
H1390 H 0.24641 0.33378 0.18232 0.0
H1391 H 0.24904 0.31802 0.22084 0.0
H1392 H 0.32296 0.32732 0.22028 0.0
C1393 C 0.31608 0.35646 0.13113 0.0
C1394 C 0.30015 0.36156 0.11355 0.0
C1395 C 0.27723 0.36024 0.11856 0.0
C1396 C 0.27001 0.35306 0.14007 0.0
C1397 C 0.28604 0.34779 0.15682 0.0
C1398 C 0.30878 0.34998 0.15282 0.0
C1399 C 0.32276 0.34381 0.17393 0.0
C1400 C 0.33226 0.32289 0.16596 0.0
C1401 C 0.3425 0.36527 0.1861 0.0
C1402 C 0.30424 0.3372 0.19018 0.0
C1403 C 0.28308 0.33934 0.17987 0.0
C1404 C 0.26302 0.33255 0.19071 0.0
C1405 C 0.26464 0.32354 0.21259 0.0
C1406 C 0.28624 0.32184 0.22384 0.0
C1407 C 0.3063 0.32894 0.21244 0.0
H1408 H 0.27047 0.98077 0.05909 0.0
H1409 H 0.22177 0.91306 0.05932 0.0
H1410 H 0.1952 0.93288 0.07818 0.0
H1411 H 0.25769 0.01135 0.11622 0.0
H1412 H 0.26047 0.03833 0.1039 0.0
H1413 H 0.27754 0.01878 0.09478 0.0
H1414 H 0.26125 0.01742 0.05029 0.0
H1415 H 0.24408 0.03679 0.05923 0.0
H1416 H 0.23018 0.00869 0.04124 0.0
H1417 H 0.17163 0.9599 0.091 0.0
H1418 H 0.15224 0.99149 0.09518 0.0
H1419 H 0.21668 0.04215 0.08825 0.0
C1420 C 0.25456 0.97007 0.06381 0.0
C1421 C 0.24826 0.94535 0.0579 0.0
C1422 C 0.22703 0.932 0.06383 0.0
C1423 C 0.21186 0.94312 0.07465 0.0
C1424 C 0.21829 0.96757 0.07961 0.0
C1425 C 0.23922 0.98089 0.07454 0.0
C1426 C 0.24084 1.00688 0.07908 0.0
C1427 C 0.26029 0.01958 0.09973 0.0
C1428 C 0.24428 0.01808 0.05609 0.0
C1429 C 0.21706 1.00604 0.08628 0.0
C1430 C 0.20453 0.98325 0.08696 0.0
C1431 C 0.1814 0.97786 0.09098 0.0
C1432 C 0.17055 0.99608 0.09352 0.0
C1433 C 0.18272 0.01953 0.092 0.0
C1434 C 0.20661 0.02451 0.08925 0.0
H1435 H 0.68772 0.68355 0.01388 0.0
H1436 H 0.73731 0.64174 0.01788 0.0
H1437 H 0.7054 0.6066 0.01876 0.0
H1438 H 0.65187 0.65573 0.05369 0.0
H1439 H 0.62478 0.65661 0.03724 0.0
H1440 H 0.65127 0.67844 0.03539 0.0
H1441 H 0.64449 0.66776 0.98908 0.0
H1442 H 0.61791 0.64596 0.99084 0.0
H1443 H 0.64025 0.63772 0.97571 0.0
H1444 H 0.6685 0.57625 0.02245 0.0
H1445 H 0.62898 0.55285 0.02645 0.0
H1446 H 0.6029 0.61361 0.01876 0.0
C1447 C 0.69186 0.66696 0.01457 0.0
C1448 C 0.71521 0.66561 0.01577 0.0
C1449 C 0.7197 0.64344 0.01688 0.0
C1450 C 0.70164 0.62327 0.01741 0.0
C1451 C 0.67896 0.62529 0.01663 0.0
C1452 C 0.67394 0.6465 0.01498 0.0
C1453 C 0.64807 0.64389 0.01499 0.0
C1454 C 0.64375 0.6596 0.03662 0.0
C1455 C 0.63703 0.64914 0.99124 0.0
C1456 C 0.63948 0.61804 0.0173 0.0
C1457 C 0.65759 0.60763 0.01824 0.0
C1458 C 0.65413 0.58416 0.02144 0.0
C1459 C 0.6316 0.57099 0.02375 0.0
C1460 C 0.6127 0.58121 0.02271 0.0
C1461 C 0.61684 0.60507 0.01929 0.0
H1462 H 0.69683 0.51939 0.28965 0.0
H1463 H 0.62752 0.47444 0.29003 0.0
H1464 H 0.64244 0.43943 0.28295 0.0
H1465 H 0.71361 0.48266 0.24325 0.0
H1466 H 0.74332 0.48923 0.25747 0.0
H1467 H 0.72695 0.51048 0.26201 0.0
H1468 H 0.7354 0.51191 0.30802 0.0
H1469 H 0.75172 0.4906 0.30363 0.0
H1470 H 0.72771 0.48509 0.32075 0.0
H1471 H 0.6656 0.40919 0.27662 0.0
H1472 H 0.69446 0.3866 0.27158 0.0
H1473 H 0.74848 0.45163 0.27477 0.0
C1474 C 0.6847 0.5022 0.2881 0.0
C1475 C 0.66092 0.49971 0.29033 0.0
C1476 C 0.64576 0.47684 0.28835 0.0
C1477 C 0.65411 0.45684 0.28434 0.0
C1478 C 0.67769 0.45996 0.28238 0.0
C1479 C 0.69274 0.48211 0.28419 0.0
C1480 C 0.71737 0.4808 0.28184 0.0
C1481 C 0.7258 0.49142 0.25983 0.0
C1482 C 0.73403 0.49281 0.30494 0.0
C1483 C 0.71389 0.45445 0.27838 0.0
C1484 C 0.6909 0.44271 0.27875 0.0
C1485 C 0.6836 0.41826 0.27616 0.0
C1486 C 0.70017 0.40554 0.27313 0.0
C1487 C 0.72391 0.41717 0.27265 0.0
C1488 C 0.73064 0.44204 0.2753 0.0
H1489 H 0.87148 0.4251 0.48761 0.0
H1490 H 0.83894 0.47432 0.45727 0.0
H1491 H 0.87753 0.50258 0.45965 0.0
H1492 H 0.90831 0.46533 0.53066 0.0
H1493 H 0.93289 0.45315 0.53042 0.0
H1494 H 0.90392 0.4344 0.52102 0.0
H1495 H 0.91519 0.4206 0.47994 0.0
H1496 H 0.94447 0.43885 0.48943 0.0
H1497 H 0.92829 0.44209 0.46198 0.0
H1498 H 0.91836 0.5277 0.47151 0.0
H1499 H 0.95905 0.54698 0.4897 0.0
H1500 H 0.96429 0.48177 0.51405 0.0
C1501 C 0.8727 0.44132 0.48032 0.0
C1502 C 0.8525 0.44747 0.47176 0.0
C1503 C 0.85442 0.46929 0.46349 0.0
C1504 C 0.87621 0.48542 0.46483 0.0
C1505 C 0.89578 0.47942 0.47462 0.0
C1506 C 0.89428 0.45778 0.48198 0.0
C1507 C 0.91739 0.45685 0.49475 0.0
C1508 C 0.91549 0.45216 0.52074 0.0
C1509 C 0.9269 0.43851 0.48068 0.0
C1510 C 0.93184 0.48152 0.49409 0.0
C1511 C 0.91921 0.4942 0.48216 0.0
C1512 C 0.92858 0.51783 0.48053 0.0
C1513 C 0.95162 0.52868 0.49108 0.0
C1514 C 0.96487 0.51591 0.50328 0.0
C1515 C 0.95471 0.49205 0.50476 0.0
H1516 H 0.35813 0.07423 0.27977 0.0
H1517 H 0.42619 0.11788 0.27229 0.0
H1518 H 0.40757 0.14529 0.25364 0.0
H1519 H 0.32608 0.08441 0.22411 0.0
H1520 H 0.30068 0.08504 0.23832 0.0
H1521 H 0.31916 0.06726 0.24786 0.0
H1522 H 0.32419 0.08827 0.29157 0.0
H1523 H 0.30585 0.10613 0.28217 0.0
H1524 H 0.3348 0.11983 0.29772 0.0
H1525 H 0.38183 0.16988 0.23975 0.0
H1526 H 0.35129 0.19032 0.23298 0.0
H1527 H 0.30002 0.13054 0.24961 0.0
C1528 C 0.36911 0.08926 0.2737 0.0
C1529 C 0.3936 0.09386 0.27731 0.0
C1530 C 0.40738 0.11397 0.26958 0.0
C1531 C 0.39696 0.12958 0.2589 0.0
C1532 C 0.37275 0.12477 0.25604 0.0
C1533 C 0.359 0.10505 0.26318 0.0
C1534 C 0.3336 0.10495 0.26014 0.0
C1535 C 0.31902 0.08418 0.24149 0.0
C1536 C 0.32407 0.1048 0.28434 0.0
C1537 C 0.33527 0.12807 0.25091 0.0
C1538 C 0.35794 0.13906 0.24828 0.0
C1539 C 0.36396 0.16126 0.24135 0.0
C1540 C 0.34645 0.17268 0.23741 0.0
C1541 C 0.3232 0.16197 0.24061 0.0
C1542 C 0.31759 0.13918 0.24701 0.0
H1543 H 0.32625 0.1458 0.55299 0.0
H1544 H 0.36988 0.20907 0.5335 0.0
H1545 H 0.40426 0.19375 0.54065 0.0
H1546 H 0.36909 0.13829 0.60043 0.0
H1547 H 0.36027 0.10673 0.59324 0.0
H1548 H 0.33944 0.12329 0.5878 0.0
H1549 H 0.33028 0.10388 0.54326 0.0
H1550 H 0.35117 0.0874 0.54852 0.0
H1551 H 0.35365 0.10586 0.52535 0.0
H1552 H 0.43348 0.17019 0.54736 0.0
H1553 H 0.45537 0.14121 0.55439 0.0
H1554 H 0.39293 0.09385 0.57114 0.0
C1555 C 0.34307 0.15658 0.55048 0.0
C1556 C 0.34534 0.1787 0.5427 0.0
C1557 C 0.36769 0.19215 0.53955 0.0
C1558 C 0.38732 0.18356 0.54353 0.0
C1559 C 0.38441 0.16154 0.55085 0.0
C1560 C 0.36286 0.14833 0.55451 0.0
C1561 C 0.36433 0.12502 0.56195 0.0
C1562 C 0.35791 0.12324 0.58737 0.0
C1563 C 0.34895 0.10432 0.54368 0.0
C1564 C 0.38998 0.12696 0.56145 0.0
C1565 C 0.40127 0.14818 0.55508 0.0
C1566 C 0.42486 0.15366 0.55269 0.0
C1567 C 0.43721 0.13706 0.55691 0.0
C1568 C 0.42609 0.11513 0.56356 0.0
C1569 C 0.40208 0.11025 0.56592 0.0
H1570 H 0.66255 0.65769 0.32088 0.0
H1571 H 0.70229 0.60645 0.31161 0.0
H1572 H 0.73748 0.63825 0.31063 0.0
H1573 H 0.68936 0.69466 0.28161 0.0
H1574 H 0.68948 0.72173 0.29962 0.0
H1575 H 0.66762 0.69513 0.30122 0.0
H1576 H 0.67961 0.70053 0.34724 0.0
H1577 H 0.70147 0.72721 0.3457 0.0
H1578 H 0.70954 0.7039 0.35909 0.0
H1579 H 0.76795 0.67541 0.30726 0.0
H1580 H 0.79138 0.71527 0.30367 0.0
H1581 H 0.73241 0.74248 0.31641 0.0
C1582 C 0.67871 0.65314 0.31902 0.0
C1583 C 0.67948 0.6294 0.31636 0.0
C1584 C 0.70107 0.62438 0.31374 0.0
C1585 C 0.72126 0.64237 0.31315 0.0
C1586 C 0.7198 0.66547 0.3154 0.0
C1587 C 0.69914 0.67095 0.31851 0.0
C1588 C 0.70219 0.69718 0.31979 0.0
C1589 C 0.68622 0.70248 0.29934 0.0
C1590 C 0.69795 0.70783 0.34443 0.0
C1591 C 0.72762 0.70546 0.31647 0.0
C1592 C 0.7375 0.68692 0.31398 0.0
C1593 C 0.76047 0.69011 0.30951 0.0
C1594 C 0.77366 0.71283 0.30746 0.0
C1595 C 0.76392 0.73213 0.31001 0.0
C1596 C 0.74061 0.72825 0.31477 0.0
H1597 H 0.92051 0.46724 0.84114 0.0
H1598 H 0.86971 0.50759 0.84082 0.0
H1599 H 0.83821 0.47102 0.83845 0.0
H1600 H 0.89 0.42508 0.79672 0.0
H1601 H 0.89827 0.40082 0.80788 0.0
H1602 H 0.91717 0.43002 0.81606 0.0
H1603 H 0.91669 0.42661 0.8612 0.0
H1604 H 0.89809 0.39709 0.8532 0.0
H1605 H 0.88924 0.41847 0.87258 0.0
H1606 H 0.81191 0.42946 0.82957 0.0
H1607 H 0.79364 0.38722 0.81455 0.0
H1608 H 0.8621 0.37506 0.81812 0.0
C1609 C 0.9029 0.46855 0.84175 0.0
C1610 C 0.89759 0.49028 0.84156 0.0
C1611 C 0.87418 0.49112 0.84129 0.0
C1612 C 0.85618 0.47044 0.83995 0.0
C1613 C 0.86192 0.4491 0.83883 0.0
C1614 C 0.88479 0.4481 0.83989 0.0
C1615 C 0.8863 0.4231 0.83464 0.0
C1616 C 0.89865 0.41957 0.81252 0.0
C1617 C 0.89828 0.4159 0.85673 0.0
C1618 C 0.86073 0.41024 0.82957 0.0
C1619 C 0.84686 0.42537 0.83259 0.0
C1620 C 0.82262 0.41743 0.82751 0.0
C1621 C 0.8124 0.39348 0.81895 0.0
C1622 C 0.82649 0.37799 0.81508 0.0
C1623 C 0.85088 0.38652 0.82082 0.0
H1624 H 0.11153 0.90202 0.10685 0.0
H1625 H 0.04281 0.85418 0.08535 0.0
H1626 H 0.0294 0.88556 0.06811 0.0
H1627 H 0.09408 0.95486 0.12234 0.0
H1628 H 0.11605 0.97446 0.10956 0.0
H1629 H 0.12177 0.94875 0.12001 0.0
H1630 H 0.13138 0.93428 0.07898 0.0
H1631 H 0.1263 0.95976 0.06731 0.0
H1632 H 0.11074 0.93081 0.05246 0.0
H1633 H 0.02253 0.92328 0.05365 0.0
H1634 H 0.02318 0.96201 0.04221 0.0
H1635 H 0.09654 0.98746 0.07076 0.0
C1636 C 0.09366 0.89807 0.09843 0.0
C1637 C 0.0783 0.87498 0.09765 0.0
C1638 C 0.05512 0.87119 0.08628 0.0
C1639 C 0.04727 0.88916 0.0764 0.0
C1640 C 0.06265 0.91149 0.07745 0.0
C1641 C 0.0855 0.91599 0.08798 0.0
C1642 C 0.09848 0.94152 0.08595 0.0
C1643 C 0.1082 0.95574 0.11095 0.0
C1644 C 0.11792 0.94162 0.07029 0.0
C1645 C 0.07934 0.95088 0.07339 0.0
C1646 C 0.05883 0.93305 0.06861 0.0
C1647 C 0.03864 0.93715 0.05731 0.0
C1648 C 0.03922 0.95958 0.05078 0.0
C1649 C 0.05983 0.97861 0.05515 0.0
C1650 C 0.0803 0.97376 0.06675 0.0
H1651 H 0.92279 0.29213 0.93834 0.0
H1652 H 0.96669 0.26958 0.88956 0.0
H1653 H 0.93822 0.27038 0.85517 0.0
H1654 H 0.86666 0.2594 0.90291 0.0
H1655 H 0.85254 0.28227 0.90953 0.0
H1656 H 0.87586 0.27936 0.93073 0.0
H1657 H 0.89821 0.32252 0.93017 0.0
H1658 H 0.87497 0.32556 0.90898 0.0
H1659 H 0.90434 0.33216 0.90195 0.0
H1660 H 0.90526 0.27378 0.8255 0.0
H1661 H 0.87113 0.28028 0.80259 0.0
H1662 H 0.84691 0.30177 0.869 0.0
C1663 C 0.92637 0.28715 0.92043 0.0
C1664 C 0.94731 0.28057 0.91702 0.0
C1665 C 0.95107 0.27456 0.89305 0.0
C1666 C 0.93486 0.27498 0.87325 0.0
C1667 C 0.91463 0.28158 0.87724 0.0
C1668 C 0.91027 0.28763 0.90023 0.0
C1669 C 0.88726 0.29459 0.89921 0.0
C1670 C 0.86953 0.27791 0.91132 0.0
C1671 C 0.89145 0.32023 0.91077 0.0
C1672 C 0.87942 0.29155 0.8721 0.0
C1673 C 0.89558 0.28391 0.85994 0.0
C1674 C 0.89257 0.27977 0.83494 0.0
C1675 C 0.87285 0.28356 0.82198 0.0
C1676 C 0.85579 0.29163 0.83357 0.0
C1677 C 0.85931 0.29559 0.85926 0.0
H1678 H 0.55599 0.22964 0.60979 0.0
H1679 H 0.60601 0.25069 0.56078 0.0
H1680 H 0.60337 0.20977 0.54714 0.0
H1681 H 0.5765 0.17904 0.62512 0.0
H1682 H 0.54799 0.15988 0.62554 0.0
H1683 H 0.55306 0.19125 0.63246 0.0
H1684 H 0.51962 0.18977 0.59919 0.0
H1685 H 0.51447 0.1584 0.5922 0.0
H1686 H 0.5201 0.17656 0.56902 0.0
H1687 H 0.59672 0.16659 0.53776 0.0
H1688 H 0.58548 0.12357 0.533 0.0
H1689 H 0.53876 0.12573 0.58633 0.0
C1690 C 0.56639 0.22569 0.5962 0.0
C1691 C 0.58131 0.24447 0.58665 0.0
C1692 C 0.59436 0.23762 0.56878 0.0
C1693 C 0.59306 0.21401 0.56071 0.0
C1694 C 0.57848 0.19627 0.57026 0.0
C1695 C 0.56522 0.20156 0.58756 0.0
C1696 C 0.55093 0.17827 0.59428 0.0
C1697 C 0.55751 0.17704 0.62094 0.0
C1698 C 0.52472 0.1756 0.58832 0.0
C1699 C 0.55842 0.1595 0.57814 0.0
C1700 C 0.57441 0.17063 0.56455 0.0
C1701 C 0.58419 0.15773 0.54836 0.0
C1702 C 0.57762 0.13298 0.54578 0.0
C1703 C 0.56117 0.12046 0.55916 0.0
C1704 C 0.55144 0.13429 0.5757 0.0
H1705 H 0.55288 0.77889 0.39349 0.0
H1706 H 0.5895 0.8012 0.46601 0.0
H1707 H 0.62704 0.80711 0.45027 0.0
H1708 H 0.5936 0.74796 0.37087 0.0
H1709 H 0.59129 0.75717 0.34173 0.0
H1710 H 0.56708 0.75386 0.35858 0.0
H1711 H 0.56651 0.79673 0.35548 0.0
H1712 H 0.59071 0.80016 0.33863 0.0
H1713 H 0.59265 0.82018 0.36568 0.0
H1714 H 0.66094 0.81131 0.42681 0.0
H1715 H 0.68865 0.8138 0.39747 0.0
H1716 H 0.63089 0.78985 0.33942 0.0
C1717 C 0.56879 0.78483 0.40607 0.0
C1718 C 0.56806 0.78948 0.43112 0.0
C1719 C 0.58941 0.79745 0.44683 0.0
C1720 C 0.61091 0.80086 0.43803 0.0
C1721 C 0.61104 0.7963 0.41334 0.0
C1722 C 0.59056 0.78844 0.39753 0.0
C1723 C 0.59576 0.78536 0.37176 0.0
C1724 C 0.58637 0.75955 0.36004 0.0
C1725 C 0.58582 0.80158 0.35702 0.0
C1726 C 0.6223 0.79288 0.37557 0.0
C1727 C 0.63069 0.79901 0.39974 0.0
C1728 C 0.65452 0.80663 0.40783 0.0
C1729 C 0.6702 0.80818 0.3909 0.0
C1730 C 0.66224 0.8023 0.36588 0.0
C1731 C 0.63779 0.79436 0.35829 0.0
H1732 H 0.05888 0.28847 0.44371 0.0
H1733 H 0.05577 0.25857 0.36948 0.0
H1734 H 0.05336 0.21956 0.38225 0.0
H1735 H 0.09347 0.25311 0.47047 0.0
H1736 H 0.07808 0.25116 0.49614 0.0
H1737 H 0.08131 0.27653 0.481 0.0
H1738 H 0.03655 0.26974 0.4751 0.0
H1739 H 0.03314 0.24425 0.49 0.0
H1740 H 0.0181 0.24177 0.46017 0.0
H1741 H 0.04823 0.18277 0.40393 0.0
H1742 H 0.04237 0.15315 0.43152 0.0
H1743 H 0.04966 0.20841 0.49122 0.0
C1744 C 0.05794 0.27385 0.43001 0.0
C1745 C 0.05745 0.27671 0.40547 0.0
C1746 C 0.05633 0.25696 0.38835 0.0
C1747 C 0.05485 0.2347 0.39549 0.0
C1748 C 0.05478 0.2325 0.41983 0.0
C1749 C 0.05657 0.25173 0.4368 0.0
C1750 C 0.05551 0.24501 0.46173 0.0
C1751 C 0.07846 0.25717 0.47831 0.0
C1752 C 0.03458 0.25052 0.47236 0.0
C1753 C 0.05231 0.2188 0.45627 0.0
C1754 C 0.05205 0.21182 0.43207 0.0
C1755 C 0.04868 0.18822 0.42291 0.0
C1756 C 0.04547 0.17147 0.43881 0.0
C1757 C 0.04554 0.17826 0.46372 0.0
C1758 C 0.0492 0.20239 0.47235 0.0
H1759 H 0.62315 0.29579 0.20206 0.0
H1760 H 0.58558 0.2491 0.24647 0.0
H1761 H 0.62341 0.24692 0.26745 0.0
H1762 H 0.66833 0.26815 0.19449 0.0
H1763 H 0.69088 0.29505 0.19583 0.0
H1764 H 0.6611 0.29375 0.18544 0.0
H1765 H 0.66297 0.32898 0.21768 0.0
H1766 H 0.69284 0.3305 0.22797 0.0
H1767 H 0.67188 0.32768 0.24876 0.0
H1768 H 0.66767 0.24855 0.2824 0.0
H1769 H 0.71049 0.2555 0.29062 0.0
H1770 H 0.71891 0.30174 0.23665 0.0
C1771 C 0.62265 0.28524 0.21641 0.0
C1772 C 0.60074 0.27265 0.22241 0.0
C1773 C 0.60163 0.25917 0.24141 0.0
C1774 C 0.62327 0.25772 0.25339 0.0
C1775 C 0.64438 0.27001 0.24657 0.0
C1776 C 0.64407 0.28379 0.22863 0.0
C1777 C 0.66892 0.29533 0.22435 0.0
C1778 C 0.67251 0.2876 0.19849 0.0
C1779 C 0.67447 0.32222 0.23003 0.0
C1780 C 0.68349 0.28573 0.24236 0.0
C1781 C 0.66909 0.27113 0.25508 0.0
C1782 C 0.67882 0.26008 0.27246 0.0
C1783 C 0.70342 0.2641 0.27701 0.0
C1784 C 0.71874 0.27916 0.2644 0.0
C1785 C 0.70818 0.29004 0.24677 0.0
H1786 H 0.55351 0.88664 0.9287 0.0
H1787 H 0.57499 0.91725 0.86621 0.0
H1788 H 0.57101 0.95555 0.88487 0.0
H1789 H 0.51037 0.91838 0.93916 0.0
H1790 H 0.51662 0.92177 0.97139 0.0
H1791 H 0.52137 0.89697 0.9532 0.0
H1792 H 0.56421 0.90818 0.9734 0.0
H1793 H 0.5596 0.93304 0.99161 0.0
H1794 H 0.58258 0.93724 0.97312 0.0
H1795 H 0.56496 0.99148 0.91128 0.0
H1796 H 0.55648 0.02044 0.94158 0.0
H1797 H 0.53814 0.96657 0.9869 0.0
C1798 C 0.55739 0.90137 0.91887 0.0
C1799 C 0.56466 0.89866 0.89578 0.0
C1800 C 0.56942 0.9186 0.88377 0.0
C1801 C 0.56721 0.94054 0.89432 0.0
C1802 C 0.56008 0.94259 0.91706 0.0
C1803 C 0.55514 0.92344 0.92913 0.0
C1804 C 0.54755 0.93021 0.95326 0.0
C1805 C 0.52249 0.91598 0.95431 0.0
C1806 C 0.5645 0.92697 0.97408 0.0
C1807 C 0.54901 0.95614 0.95299 0.0
C1808 C 0.55635 0.96298 0.93196 0.0
C1809 C 0.55916 0.98615 0.92773 0.0
C1810 C 0.5543 1.0026 0.94518 0.0
C1811 C 0.54655 0.99614 0.96691 0.0
C1812 C 0.54396 0.97239 0.97064 0.0
H1813 H 0.93779 0.73289 0.71826 0.0
H1814 H 0.98599 0.80115 0.74398 0.0
H1815 H 0.95475 0.81444 0.76168 0.0
H1816 H 0.88561 0.75129 0.70403 0.0
H1817 H 0.86621 0.72814 0.71572 0.0
H1818 H 0.89215 0.72347 0.70498 0.0
H1819 H 0.90428 0.7118 0.74548 0.0
H1820 H 0.87934 0.71762 0.75767 0.0
H1821 H 0.90819 0.73222 0.77265 0.0
H1822 H 0.91739 0.82162 0.77555 0.0
H1823 H 0.87866 0.82144 0.7862 0.0
H1824 H 0.85244 0.74824 0.75424 0.0
C1825 C 0.94186 0.75057 0.72783 0.0
C1826 C 0.96501 0.76587 0.72967 0.0
C1827 C 0.96895 0.78886 0.74235 0.0
C1828 C 0.95107 0.79666 0.75245 0.0
C1829 C 0.92868 0.78139 0.75033 0.0
C1830 C 0.92401 0.75864 0.73861 0.0
C1831 C 0.89841 0.74575 0.7399 0.0
C1832 C 0.88479 0.73662 0.71465 0.0
C1833 C 0.89749 0.72562 0.75477 0.0
C1834 C 0.8892 0.76501 0.75302 0.0
C1835 C 0.9072 0.78536 0.75898 0.0
C1836 C 0.90334 0.80565 0.77099 0.0
C1837 C 0.88092 0.80535 0.77704 0.0
C1838 C 0.8617 0.78493 0.77143 0.0
C1839 C 0.8663 0.76433 0.75915 0.0
H1840 H 0.14402 0.06163 0.88232 0.0
H1841 H 0.07881 0.03814 0.83406 0.0
H1842 H 0.05738 0.03126 0.86843 0.0
H1843 H 0.12861 0.02192 0.92581 0.0
H1844 H 0.14251 0.04339 0.95172 0.0
H1845 H 0.15334 0.04574 0.92336 0.0
H1846 H 0.14873 0.0879 0.92518 0.0
H1847 H 0.13798 0.0857 0.95359 0.0
H1848 H 0.12087 0.09297 0.92902 0.0
H1849 H 0.04257 0.02555 0.90759 0.0
H1850 H 0.03491 0.02539 0.94942 0.0
H1851 H 0.10871 0.05535 0.9743 0.0
C1852 C 0.12525 0.05498 0.87905 0.0
C1853 C 0.11318 0.0503 0.85525 0.0
C1854 C 0.08855 0.04192 0.85192 0.0
C1855 C 0.07616 0.03784 0.87141 0.0
C1856 C 0.08843 0.04256 0.89451 0.0
C1857 C 0.11239 0.05129 0.89857 0.0
C1858 C 0.12094 0.05595 0.92551 0.0
C1859 C 0.13732 0.04085 0.93198 0.0
C1860 C 0.13283 0.08219 0.93381 0.0
C1861 C 0.0981 0.04827 0.93579 0.0
C1862 C 0.07965 0.04034 0.91744 0.0
C1863 C 0.05689 0.03186 0.92211 0.0
C1864 C 0.05271 0.03174 0.94606 0.0
C1865 C 0.07109 0.04034 0.96545 0.0
C1866 C 0.09417 0.04867 0.96005 0.0
H1867 H 0.79665 0.3733 0.55663 0.0
H1868 H 0.8248 0.44901 0.57182 0.0
H1869 H 0.84095 0.44551 0.61285 0.0
H1870 H 0.78147 0.36548 0.61666 0.0
H1871 H 0.78891 0.33794 0.6154 0.0
H1872 H 0.77822 0.34706 0.58822 0.0
H1873 H 0.81503 0.34251 0.57 0.0
H1874 H 0.82602 0.33377 0.59722 0.0
H1875 H 0.84343 0.35835 0.58569 0.0
H1876 H 0.85598 0.43292 0.65165 0.0
H1877 H 0.86685 0.41238 0.68499 0.0
H1878 H 0.82879 0.34552 0.64278 0.0
C1879 C 0.80601 0.38921 0.56862 0.0
C1880 C 0.80959 0.4114 0.56107 0.0
C1881 C 0.82178 0.43181 0.57735 0.0
C1882 C 0.83107 0.43 0.60062 0.0
C1883 C 0.82771 0.40769 0.60725 0.0
C1884 C 0.8152 0.38773 0.59176 0.0
C1885 C 0.81436 0.36575 0.60279 0.0
C1886 C 0.78925 0.35334 0.60596 0.0
C1887 C 0.82538 0.34914 0.58805 0.0
C1888 C 0.82906 0.37634 0.62663 0.0
C1889 C 0.83644 0.40055 0.62913 0.0
C1890 C 0.85024 0.41397 0.64989 0.0
C1891 C 0.85639 0.40224 0.66863 0.0
C1892 C 0.84897 0.37744 0.66613 0.0
C1893 C 0.83517 0.36448 0.64488 0.0
H1894 H 0.48209 0.06379 0.36538 0.0
H1895 H 0.4266 0.09113 0.38981 0.0
H1896 H 0.44418 0.09389 0.43185 0.0
H1897 H 0.48336 0.0269 0.40778 0.0
H1898 H 0.51444 0.03116 0.41185 0.0
H1899 H 0.49988 0.03491 0.38378 0.0
H1900 H 0.52693 0.07707 0.38743 0.0
H1901 H 0.54175 0.07342 0.41549 0.0
H1902 H 0.5292 0.09777 0.41403 0.0
H1903 H 0.46503 0.08981 0.47048 0.0
H1904 H 0.48721 0.07875 0.50384 0.0
H1905 H 0.52887 0.05254 0.4546 0.0
C1906 C 0.47386 0.07081 0.37953 0.0
C1907 C 0.45299 0.07731 0.37438 0.0
C1908 C 0.44265 0.08618 0.3934 0.0
C1909 C 0.45254 0.08785 0.41729 0.0
C1910 C 0.47278 0.08067 0.42173 0.0
C1911 C 0.48339 0.0724 0.40342 0.0
C1912 C 0.50377 0.06379 0.41305 0.0
C1913 C 0.50013 0.03764 0.40355 0.0
C1914 C 0.52678 0.07892 0.40715 0.0
C1915 C 0.50243 0.06768 0.43968 0.0
C1916 C 0.48467 0.07783 0.44422 0.0
C1917 C 0.47912 0.08209 0.46719 0.0
C1918 C 0.49181 0.07555 0.48602 0.0
C1919 C 0.50978 0.06459 0.48185 0.0
C1920 C 0.51541 0.06101 0.45838 0.0
H1921 H 0.8069 0.76762 0.1064 0.0
H1922 H 0.75759 0.69913 0.09882 0.0
H1923 H 0.75324 0.70608 0.14186 0.0
H1924 H 0.83514 0.76471 0.16741 0.0
H1925 H 0.84003 0.79567 0.1772 0.0
H1926 H 0.83961 0.78502 0.14601 0.0
H1927 H 0.80755 0.80535 0.13441 0.0
H1928 H 0.80762 0.81576 0.16558 0.0
H1929 H 0.78091 0.79853 0.14745 0.0
H1930 H 0.7509 0.72253 0.18477 0.0
H1931 H 0.756 0.7439 0.22599 0.0
H1932 H 0.81024 0.79995 0.20768 0.0
C1933 C 0.79562 0.75391 0.114 0.0
C1934 C 0.78272 0.73268 0.0993 0.0
C1935 C 0.76789 0.71531 0.10981 0.0
C1936 C 0.76518 0.71921 0.13421 0.0
C1937 C 0.7778 0.74045 0.14816 0.0
C1938 C 0.79327 0.75724 0.13863 0.0
C1939 C 0.8052 0.77826 0.1578 0.0
C1940 C 0.83156 0.78108 0.16237 0.0
C1941 C 0.8 0.80081 0.15089 0.0
C1942 C 0.7936 0.77093 0.17939 0.0
C1943 C 0.77758 0.74921 0.17331 0.0
C1944 C 0.76369 0.73937 0.18979 0.0
C1945 C 0.76656 0.75174 0.21315 0.0
C1946 C 0.78354 0.77357 0.22018 0.0
C1947 C 0.79722 0.78322 0.20294 0.0
H1948 H 0.11168 0.03735 0.71422 0.0
H1949 H 0.09553 0.10232 0.73956 0.0
H1950 H 0.08071 0.10535 0.6985 0.0
H1951 H 0.1295 0.05509 0.65693 0.0
H1952 H 0.11655 0.02637 0.63982 0.0
H1953 H 0.12711 0.02928 0.6713 0.0
H1954 H 0.08657 1.0053 0.6785 0.0
H1955 H 0.07587 1.00248 0.64708 0.0
H1956 H 0.06123 0.01486 0.66933 0.0
H1957 H 0.06531 0.10105 0.65567 0.0
H1958 H 0.05252 0.09066 0.61215 0.0
H1959 H 0.07853 0.02892 0.61199 0.0
C1960 C 0.10535 0.05236 0.71101 0.0
C1961 C 0.10473 0.06952 0.73044 0.0
C1962 C 0.09605 0.08875 0.72529 0.0
C1963 C 0.08756 0.09072 0.7019 0.0
C1964 C 0.08778 0.07338 0.68335 0.0
C1965 C 0.0966 0.05464 0.6874 0.0
C1966 C 0.09423 0.03842 0.66377 0.0
C1967 C 0.11828 0.03722 0.65759 0.0
C1968 C 0.07854 0.0138 0.66474 0.0
C1969 C 0.08263 0.051 0.64617 0.0
C1970 C 0.07906 0.07108 0.65803 0.0
C1971 C 0.06815 0.08544 0.64609 0.0
C1972 C 0.06083 0.07932 0.62129 0.0
C1973 C 0.06449 0.05903 0.60838 0.0
C1974 C 0.07557 0.04467 0.62117 0.0
H1975 H 0.75604 0.37409 0.44833 0.0
H1976 H 0.78482 0.44147 0.42582 0.0
H1977 H 0.79427 0.42125 0.38922 0.0
H1978 H 0.79707 0.34622 0.42931 0.0
H1979 H 0.77691 0.31792 0.41842 0.0
H1980 H 0.77054 0.3372 0.44215 0.0
H1981 H 0.73117 0.33562 0.41743 0.0
H1982 H 0.73706 0.31574 0.39391 0.0
H1983 H 0.73068 0.3425 0.38726 0.0
H1984 H 0.8044 0.39462 0.35798 0.0
H1985 H 0.80758 0.36227 0.32848 0.0
H1986 H 0.77054 0.31141 0.36942 0.0
C1987 C 0.76374 0.38451 0.43532 0.0
C1988 C 0.76961 0.4093 0.43974 0.0
C1989 C 0.77987 0.42246 0.42256 0.0
C1990 C 0.78556 0.41114 0.4019 0.0
C1991 C 0.78052 0.38673 0.39863 0.0
C1992 C 0.76923 0.37348 0.41443 0.0
C1993 C 0.76569 0.34744 0.40645 0.0
C1994 C 0.77831 0.33657 0.42521 0.0
C1995 C 0.7396 0.33457 0.40092 0.0
C1996 C 0.7771 0.34817 0.38383 0.0
C1997 C 0.78578 0.37111 0.37997 0.0
C1998 C 0.7974 0.3766 0.3606 0.0
C1999 C 0.79919 0.35813 0.34402 0.0
C2000 C 0.78924 0.33452 0.34675 0.0
C2001 C 0.77856 0.32936 0.3672 0.0
H2002 H 0.43368 0.03914 0.23736 0.0
H2003 H 0.44969 0.98279 0.27187 0.0
H2004 H 0.45497 0.96313 0.23298 0.0
H2005 H 0.40561 1.00188 0.17663 0.0
H2006 H 0.41874 0.02535 0.16088 0.0
H2007 H 0.41031 0.032 0.18997 0.0
H2008 H 0.45231 0.05767 0.20539 0.0
H2009 H 0.46089 0.05102 0.17655 0.0
H2010 H 0.47636 0.04491 0.20299 0.0
H2011 H 0.46635 0.95398 0.1935 0.0
H2012 H 0.48354 0.95623 0.15602 0.0
H2013 H 0.4595 0.01773 0.14576 0.0
C2014 C 0.4374 0.02222 0.23643 0.0
C2015 C 0.44125 0.01239 0.25741 0.0
C2016 C 0.44677 0.99059 0.25588 0.0
C2017 C 0.44957 0.97918 0.23386 0.0
C2018 C 0.44667 0.98976 0.21356 0.0
C2019 C 0.44052 0.01071 0.21454 0.0
C2020 C 0.44198 0.02009 0.19089 0.0
C2021 C 0.41771 0.0198 0.17888 0.0
C2022 C 0.4589 0.04487 0.19417 0.0
C2023 C 0.45143 1.00204 0.17715 0.0
C2024 C 0.45339 0.98436 0.1903 0.0
C2025 C 0.46426 0.96729 0.18264 0.0
C2026 C 0.47395 0.96868 0.16127 0.0
C2027 C 0.47283 0.98712 0.14791 0.0
C2028 C 0.46067 1.00345 0.15561 0.0
H2029 H 0.77893 0.70167 0.94291 0.0
H2030 H 0.79917 0.76738 0.99178 0.0
H2031 H 0.80486 0.78923 0.95745 0.0
H2032 H 0.81787 0.71858 0.90007 0.0
H2033 H 0.79724 0.70374 0.87402 0.0
H2034 H 0.79495 0.69295 0.90233 0.0
H2035 H 0.75248 0.69578 0.90021 0.0
H2036 H 0.75459 0.7064 0.87181 0.0
H2037 H 0.74627 0.72327 0.89623 0.0
H2038 H 0.81108 0.80416 0.91782 0.0
H2039 H 0.81212 0.81124 0.87579 0.0
H2040 H 0.78433 0.73652 0.85134 0.0
C2041 C 0.78444 0.72066 0.94636 0.0
C2042 C 0.78869 0.73274 0.97026 0.0
C2043 C 0.79571 0.75763 0.97381 0.0
C2044 C 0.79912 0.77024 0.95435 0.0
C2045 C 0.79504 0.75788 0.93112 0.0
C2046 C 0.78738 0.73364 0.92696 0.0
C2047 C 0.78339 0.72478 0.90006 0.0
C2048 C 0.79931 0.70908 0.89375 0.0
C2049 C 0.75765 0.71179 0.89158 0.0
C2050 C 0.79027 0.74776 0.88982 0.0
C2051 C 0.79727 0.7666 0.90814 0.0
C2052 C 0.80537 0.78953 0.90336 0.0
C2053 C 0.80603 0.79339 0.87934 0.0
C2054 C 0.79825 0.77454 0.86007 0.0
C2055 C 0.79025 0.75138 0.86556 0.0
H2056 H 0.85338 0.13842 0.03789 0.0
H2057 H 0.8094 0.09454 0.0803 0.0
H2058 H 0.83317 0.06627 0.07681 0.0
H2059 H 0.85975 0.09231 0.99678 0.0
H2060 H 0.88957 0.10619 0.99395 0.0
H2061 H 0.87033 0.12388 1.0014 0.0
H2062 H 0.89888 0.14504 0.03975 0.0
H2063 H 0.91838 0.12764 0.03222 0.0
H2064 H 0.90821 0.1279 0.06105 0.0
H2065 H 0.86061 0.04189 0.06677 0.0
H2066 H 0.89109 0.02442 0.05285 0.0
H2067 H 0.91568 0.08401 0.01604 0.0
C2068 C 0.84897 0.12309 0.04683 0.0
C2069 C 0.82965 0.11867 0.05944 0.0
C2070 C 0.82423 0.09826 0.07061 0.0
C2071 C 0.83758 0.0821 0.06868 0.0
C2072 C 0.85617 0.0867 0.05554 0.0
C2073 C 0.86196 0.10679 0.04496 0.0
C2074 C 0.88219 0.10726 0.03106 0.0
C2075 C 0.87502 0.10741 0.00421 0.0
C2076 C 0.90315 0.1282 0.04167 0.0
C2077 C 0.88684 0.08424 0.0354 0.0
C2078 C 0.87169 0.0726 0.04954 0.0
C2079 C 0.87262 0.05087 0.05574 0.0
C2080 C 0.8898 0.04099 0.04759 0.0
C2081 C 0.90571 0.05292 0.03345 0.0
C2082 C 0.90392 0.07465 0.02709 0.0
H2083 H 0.39769 0.40839 0.03684 0.0
H2084 H 0.35586 0.45194 0.06545 0.0
H2085 H 0.38902 0.48715 0.06809 0.0
H2086 H 0.45239 0.44012 0.07256 0.0
H2087 H 0.46919 0.43644 0.04852 0.0
H2088 H 0.44233 0.41479 0.04957 0.0
H2089 H 0.42682 0.41992 0.00664 0.0
H2090 H 0.45363 0.44159 0.00549 0.0
H2091 H 0.42626 0.44876 1.00032 0.0
H2092 H 0.42769 0.51813 0.06744 0.0
H2093 H 0.46718 0.54127 0.06243 0.0
H2094 H 0.4825 0.47695 0.03356 0.0
C2095 C 0.39547 0.42528 0.04384 0.0
C2096 C 0.37408 0.42725 0.05106 0.0
C2097 C 0.37201 0.44985 0.05981 0.0
C2098 C 0.3908 0.47 0.06142 0.0
C2099 C 0.4116 0.4674 0.05408 0.0
C2100 C 0.41395 0.44556 0.04539 0.0
C2101 C 0.43784 0.44742 0.03804 0.0
C2102 C 0.45122 0.4339 0.05307 0.0
C2103 C 0.43602 0.43893 0.01102 0.0
C2104 C 0.44864 0.47368 0.04402 0.0
C2105 C 0.43336 0.48501 0.05333 0.0
C2106 C 0.43974 0.50937 0.06013 0.0
C2107 C 0.46223 0.52241 0.05725 0.0
C2108 C 0.47805 0.51108 0.04751 0.0
C2109 C 0.47095 0.48635 0.04095 0.0
H2110 H 0.42617 0.61286 0.80933 0.0
H2111 H 0.39089 0.56995 0.74216 0.0
H2112 H 0.36548 0.59636 0.73751 0.0
H2113 H 0.37454 0.62263 0.82962 0.0
H2114 H 0.38793 0.65233 0.8441 0.0
H2115 H 0.40514 0.63167 0.84118 0.0
H2116 H 0.43368 0.65981 0.81955 0.0
H2117 H 0.41662 0.68063 0.82252 0.0
H2118 H 0.42262 0.6702 0.79333 0.0
H2119 H 0.34316 0.62661 0.74039 0.0
H2120 H 0.32386 0.65742 0.7516 0.0
H2121 H 0.37139 0.68006 0.81832 0.0
C2122 C 0.41341 0.60939 0.79343 0.0
C2123 C 0.41076 0.58955 0.77585 0.0
C2124 C 0.39336 0.58513 0.7557 0.0
C2125 C 0.37885 0.60006 0.7529 0.0
C2126 C 0.3816 0.61924 0.77064 0.0
C2127 C 0.39831 0.6239 0.79063 0.0
C2128 C 0.39632 0.64474 0.80782 0.0
C2129 C 0.39064 0.63739 0.83212 0.0
C2130 C 0.41864 0.66505 0.81098 0.0
C2131 C 0.37591 0.65096 0.79438 0.0
C2132 C 0.36792 0.63616 0.77284 0.0
C2133 C 0.3493 0.63833 0.7572 0.0
C2134 C 0.33849 0.65601 0.7637 0.0
C2135 C 0.34604 0.67131 0.78582 0.0
C2136 C 0.36506 0.66862 0.80135 0.0
H2137 H 0.20079 0.65722 0.57819 0.0
H2138 H 0.23533 0.6093 0.54343 0.0
H2139 H 0.19881 0.57781 0.53675 0.0
H2140 H 0.1621 0.61176 0.60717 0.0
H2141 H 0.13817 0.62472 0.60302 0.0
H2142 H 0.16772 0.643 0.60747 0.0
H2143 H 0.15951 0.65913 0.56784 0.0
H2144 H 0.13005 0.64086 0.56322 0.0
H2145 H 0.14854 0.63887 0.54039 0.0
H2146 H 0.1579 0.55351 0.52826 0.0
H2147 H 0.11506 0.53672 0.52193 0.0
H2148 H 0.10721 0.59879 0.56451 0.0
C2149 C 0.20074 0.63997 0.56963 0.0
C2150 C 0.2209 0.63573 0.56139 0.0
C2151 C 0.22016 0.61294 0.55013 0.0
C2152 C 0.19949 0.5949 0.54621 0.0
C2153 C 0.17981 0.59975 0.55409 0.0
C2154 C 0.18029 0.62155 0.56595 0.0
C2155 C 0.15638 0.62228 0.57169 0.0
C2156 C 0.15608 0.62564 0.59896 0.0
C2157 C 0.14815 0.64141 0.56008 0.0
C2158 C 0.14227 0.5979 0.56011 0.0
C2159 C 0.15617 0.58514 0.55017 0.0
C2160 C 0.14687 0.56299 0.53654 0.0
C2161 C 0.12266 0.55364 0.53299 0.0
C2162 C 0.10833 0.56638 0.54325 0.0
C2163 C 0.11815 0.5886 0.55714 0.0
H2164 H 0.72712 0.0126 0.77248 0.0
H2165 H 0.66868 0.98814 0.81074 0.0
H2166 H 0.68529 0.95632 0.82229 0.0
H2167 H 0.73315 0.95488 0.75014 0.0
H2168 H 0.76446 0.96501 0.75359 0.0
H2169 H 0.74717 0.98488 0.74744 0.0
H2170 H 0.7695 0.01366 0.78539 0.0
H2171 H 0.7867 0.9938 0.79178 0.0
H2172 H 0.77043 1.00339 0.81409 0.0
H2173 H 0.7097 0.92859 0.83145 0.0
H2174 H 0.73875 0.90585 0.83555 0.0
H2175 H 0.78086 0.94901 0.79123 0.0
C2176 C 0.71765 1.00042 0.78308 0.0
C2177 C 0.69663 1.0028 0.79075 0.0
C2178 C 0.68479 0.98654 0.80462 0.0
C2179 C 0.69411 0.96847 0.8113 0.0
C2180 C 0.71514 0.96692 0.80379 0.0
C2181 C 0.72662 0.98233 0.78979 0.0
C2182 C 0.74914 0.97724 0.78439 0.0
C2183 C 0.74842 0.97007 0.75728 0.0
C2184 C 0.77018 0.99827 0.79453 0.0
C2185 C 0.74877 0.95675 0.79785 0.0
C2186 C 0.72904 0.951 0.80892 0.0
C2187 C 0.72516 0.93289 0.82278 0.0
C2188 C 0.74182 0.92022 0.82516 0.0
C2189 C 0.76202 0.92573 0.81372 0.0
C2190 C 0.76547 0.94428 0.79998 0.0
H2191 H 0.72657 0.90552 0.52547 0.0
H2192 H 0.77223 0.94916 0.58748 0.0
H2193 H 0.74649 0.97527 0.58963 0.0
H2194 H 0.7141 0.95201 0.49804 0.0
H2195 H 0.6839 0.93754 0.48722 0.0
H2196 H 0.70435 0.92041 0.49164 0.0
H2197 H 0.67892 0.8974 0.51976 0.0
H2198 H 0.65829 0.91437 0.51528 0.0
H2199 H 0.671 0.91323 0.54522 0.0
H2200 H 0.71836 0.99873 0.58357 0.0
H2201 H 0.6882 0.01765 0.57031 0.0
H2202 H 0.65949 0.95995 0.51199 0.0
C2203 C 0.73075 0.92022 0.53985 0.0
C2204 C 0.75142 0.92513 0.55645 0.0
C2205 C 0.75654 0.94492 0.57462 0.0
C2206 C 0.74199 0.95991 0.57601 0.0
C2207 C 0.72217 0.95504 0.55912 0.0
C2208 C 0.71631 0.93562 0.54146 0.0
C2209 C 0.69449 0.9354 0.52488 0.0
C2210 C 0.69953 0.9364 0.49891 0.0
C2211 C 0.67449 0.91381 0.52638 0.0
C2212 C 0.68947 0.95796 0.53572 0.0
C2213 C 0.70567 0.96884 0.55554 0.0
C2214 C 0.70546 0.99029 0.56817 0.0
C2215 C 0.68832 1.00101 0.56038 0.0
C2216 C 0.67147 0.99044 0.54004 0.0
C2217 C 0.67197 0.96841 0.52773 0.0
H2218 H 0.3972 0.46638 0.76057 0.0
H2219 H 0.44516 0.46697 0.82371 0.0
H2220 H 0.41894 0.43055 0.83192 0.0
H2221 H 0.34293 0.44122 0.78417 0.0
H2222 H 0.32888 0.42266 0.75641 0.0
H2223 H 0.35032 0.44995 0.75594 0.0
H2224 H 0.37406 0.42776 0.73111 0.0
H2225 H 0.35263 0.40045 0.73139 0.0
H2226 H 0.38278 0.40371 0.74228 0.0
H2227 H 0.38893 0.39463 0.83364 0.0
H2228 H 0.35814 0.35766 0.8267 0.0
H2229 H 0.32878 0.37679 0.76108 0.0
C2230 C 0.402 0.45885 0.77619 0.0
C2231 C 0.42327 0.46959 0.79158 0.0
C2232 C 0.42911 0.45904 0.81162 0.0
C2233 C 0.41422 0.43843 0.81654 0.0
C2234 C 0.39354 0.42822 0.80111 0.0
C2235 C 0.38743 0.43775 0.78114 0.0
C2236 C 0.36483 0.42189 0.76673 0.0
C2237 C 0.3456 0.4347 0.76576 0.0
C2238 C 0.36882 0.41292 0.74137 0.0
C2239 C 0.35941 0.40198 0.7817 0.0
C2240 C 0.37619 0.40644 0.80161 0.0
C2241 C 0.37573 0.39088 0.8181 0.0
C2242 C 0.35811 0.36984 0.81392 0.0
C2243 C 0.34105 0.36413 0.79327 0.0
C2244 C 0.3414 0.38072 0.77714 0.0
H2245 H 0.17577 0.63769 0.2668 0.0
H2246 H 0.22605 0.59945 0.24942 0.0
H2247 H 0.25647 0.63714 0.25323 0.0
H2248 H 0.19746 0.68779 0.23679 0.0
H2249 H 0.19185 0.70811 0.26008 0.0
H2250 H 0.174 0.67823 0.25389 0.0
H2251 H 0.18351 0.67369 0.29853 0.0
H2252 H 0.2016 0.70345 0.3048 0.0
H2253 H 0.21348 0.67972 0.31176 0.0
H2254 H 0.28177 0.67959 0.26095 0.0
H2255 H 0.29932 0.72248 0.27168 0.0
H2256 H 0.23187 0.73133 0.28505 0.0
C2257 C 0.19302 0.63712 0.26326 0.0
C2258 C 0.19844 0.61559 0.25753 0.0
C2259 C 0.22144 0.61575 0.25366 0.0
C2260 C 0.23883 0.63706 0.2558 0.0
C2261 C 0.23291 0.65795 0.26196 0.0
C2262 C 0.21051 0.65805 0.2656 0.0
C2263 C 0.20871 0.68257 0.27338 0.0
C2264 C 0.19202 0.68958 0.25493 0.0
C2265 C 0.2014 0.68498 0.29861 0.0
C2266 C 0.2336 0.69635 0.27356 0.0
C2267 C 0.24737 0.68198 0.26687 0.0
C2268 C 0.2711 0.691 0.26611 0.0
C2269 C 0.28092 0.71535 0.27226 0.0
C2270 C 0.26698 0.73027 0.27919 0.0
C2271 C 0.24306 0.72049 0.27982 0.0
H2272 H 0.47774 0.69465 0.49262 0.0
H2273 H 0.54714 0.73285 0.48281 0.0
H2274 H 0.5621 0.69994 0.49411 0.0
H2275 H 0.49258 0.66564 0.54203 0.0
H2276 H 0.47179 0.63767 0.53116 0.0
H2277 H 0.46619 0.66418 0.52276 0.0
H2278 H 0.46127 0.6469 0.47805 0.0
H2279 H 0.46675 0.62029 0.48638 0.0
H2280 H 0.48418 0.63625 0.46654 0.0
H2281 H 0.57065 0.66362 0.51049 0.0
H2282 H 0.57113 0.62558 0.52347 0.0
H2283 H 0.49586 0.6064 0.51788 0.0
C2284 C 0.49608 0.69604 0.49258 0.0
C2285 C 0.51117 0.71699 0.48665 0.0
C2286 C 0.53498 0.71744 0.48692 0.0
C2287 C 0.54373 0.69867 0.49356 0.0
C2288 C 0.52858 0.67857 0.49944 0.0
C2289 C 0.50506 0.6768 0.49834 0.0
C2290 C 0.49244 0.6525 0.50425 0.0
C2291 C 0.48002 0.65517 0.52637 0.0
C2292 C 0.47513 0.63813 0.48251 0.0
C2293 C 0.51255 0.6412 0.50953 0.0
C2294 C 0.53327 0.65686 0.50695 0.0
C2295 C 0.55439 0.65124 0.51209 0.0
C2296 C 0.55451 0.62937 0.51965 0.0
C2297 C 0.53368 0.61227 0.52174 0.0
C2298 C 0.51227 0.61857 0.51636 0.0
H2299 H 0.63922 0.30592 0.67808 0.0
H2300 H 0.67718 0.35397 0.63494 0.0
H2301 H 0.71375 0.35694 0.66062 0.0
H2302 H 0.67555 0.33399 0.73659 0.0
H2303 H 0.67476 0.30656 0.74741 0.0
H2304 H 0.65085 0.30888 0.72662 0.0
H2305 H 0.65543 0.2739 0.69778 0.0
H2306 H 0.67942 0.27155 0.71842 0.0
H2307 H 0.68322 0.2751 0.68781 0.0
H2308 H 0.7472 0.35376 0.68945 0.0
H2309 H 0.77494 0.34541 0.72006 0.0
H2310 H 0.71764 0.29924 0.74653 0.0
C2311 C 0.65515 0.31745 0.67435 0.0
C2312 C 0.65485 0.32991 0.65422 0.0
C2313 C 0.67649 0.34426 0.64999 0.0
C2314 C 0.69756 0.34608 0.66458 0.0
C2315 C 0.69737 0.33338 0.68378 0.0
C2316 C 0.67677 0.31938 0.68888 0.0
C2317 C 0.68204 0.30713 0.7104 0.0
C2318 C 0.67008 0.31458 0.73151 0.0
C2319 C 0.67458 0.28032 0.70317 0.0
C2320 C 0.70867 0.31636 0.71637 0.0
C2321 C 0.71697 0.33151 0.70065 0.0
C2322 C 0.7408 0.34202 0.70192 0.0
C2323 C 0.75657 0.33708 0.71953 0.0
C2324 C 0.74893 0.32169 0.73618 0.0
C2325 C 0.72437 0.31124 0.73441 0.0
H2326 H 0.03784 0.36776 0.96269 0.0
H2327 H 0.98797 0.33531 0.00701 0.0
H2328 H 0.98608 0.37485 0.02478 0.0
H2329 H 0.0692 0.41733 0.00903 0.0
H2330 H 0.07506 0.4379 0.98804 0.0
H2331 H 0.07193 0.40718 0.9785 0.0
H2332 H 0.03955 0.40662 0.94435 0.0
H2333 H 0.04251 0.4373 0.95386 0.0
H2334 H 0.01455 0.41623 0.95148 0.0
H2335 H 0.9882 0.41956 0.03629 0.0
H2336 H 0.99728 0.46297 0.04356 0.0
H2337 H 0.0487 0.46713 0.99476 0.0
C2338 C 0.0265 0.36889 0.97618 0.0
C2339 C 1.01287 0.3479 0.98317 0.0
C2340 C 0.99861 0.35068 1.00117 0.0
C2341 C 0.99738 0.37327 0.01135 0.0
C2342 C 1.0109 0.39348 0.00393 0.0
C2343 C 0.02557 0.39142 0.98702 0.0
C2344 C 0.03908 0.41587 0.98284 0.0
C2345 C 0.06538 0.4198 0.99003 0.0
C2346 C 0.0336 0.41919 0.95657 0.0
C2347 C 0.02959 0.43209 0.99969 0.0
C2348 C 1.01309 0.41881 0.01148 0.0
C2349 C 1.00128 0.4299 0.02722 0.0
C2350 C 1.00651 0.4548 0.0312 0.0
C2351 C 0.02382 0.46907 0.01995 0.0
C2352 C 0.03546 0.45716 0.00393 0.0
H2353 H 0.03591 0.79853 0.18594 0.0
H2354 H 1.00248 0.80863 0.11779 0.0
H2355 H 0.96576 0.80535 0.13468 0.0
H2356 H 0.98512 0.75568 0.20019 0.0
H2357 H 0.99085 0.76669 0.23185 0.0
H2358 H 0.01458 0.76933 0.21439 0.0
H2359 H 0.02762 0.81419 0.22851 0.0
H2360 H 1.00384 0.81171 0.24588 0.0
H2361 H 1.00715 0.83129 0.22375 0.0
H2362 H 0.93285 0.80283 0.15927 0.0
H2363 H 0.90561 0.79923 0.18902 0.0
H2364 H 0.95892 0.7889 0.24149 0.0
C2365 C 0.02081 0.79984 0.17451 0.0
C2366 C 0.02226 0.80381 0.15038 0.0
C2367 C 1.00199 0.80551 0.1362 0.0
C2368 C 0.98097 0.80373 0.14569 0.0
C2369 C 0.98017 0.80008 0.16949 0.0
C2370 C 0.99947 0.79794 0.18371 0.0
C2371 C 0.9937 0.79402 0.20876 0.0
C2372 C 0.99622 0.77 0.21411 0.0
C2373 C 1.00899 0.814 0.22785 0.0
C2374 C 0.9683 0.79458 0.20643 0.0
C2375 C 0.96092 0.79813 0.1836 0.0
C2376 C 0.93838 0.79974 0.17712 0.0
C2377 C 0.92288 0.79746 0.19424 0.0
C2378 C 0.92967 0.7934 0.2178 0.0
C2379 C 0.95292 0.79209 0.22383 0.0
H2380 H 0.53371 0.30609 0.13878 0.0
H2381 H 0.54362 0.34482 0.21054 0.0
H2382 H 0.55063 0.38206 0.19361 0.0
H2383 H 0.57736 0.34838 0.11471 0.0
H2384 H 0.56025 0.34382 0.08559 0.0
H2385 H 0.55686 0.32035 0.10342 0.0
H2386 H 0.51267 0.31661 0.10047 0.0
H2387 H 0.51594 0.34016 0.08274 0.0
H2388 H 0.50293 0.34205 0.10992 0.0
H2389 H 0.55585 0.4153 0.16863 0.0
H2390 H 0.55897 0.44172 0.138 0.0
H2391 H 0.54534 0.38167 0.08203 0.0
C2392 C 0.53758 0.32242 0.15098 0.0
C2393 C 0.53824 0.32244 0.17612 0.0
C2394 C 0.5431 0.34425 0.19131 0.0
C2395 C 0.54708 0.36553 0.18182 0.0
C2396 C 0.54606 0.36487 0.15699 0.0
C2397 C 0.54144 0.34386 0.14177 0.0
C2398 C 0.54083 0.34799 0.11571 0.0
C2399 C 0.55997 0.33964 0.10418 0.0
C2400 C 0.51666 0.33599 0.10137 0.0
C2401 C 0.54581 0.3746 0.11862 0.0
C2402 C 0.54884 0.38397 0.14261 0.0
C2403 C 0.55362 0.4081 0.14982 0.0
C2404 C 0.55549 0.42304 0.13221 0.0
C2405 C 0.55258 0.414 0.10742 0.0
C2406 C 0.54752 0.3893 0.1007 0.0
H2407 H 0.96818 0.30231 0.3613 0.0
H2408 H 1.0026 0.35753 0.32368 0.0
H2409 H 0.96409 0.35839 0.30341 0.0
H2410 H 0.92182 0.27182 0.30985 0.0
H2411 H 0.90013 0.26345 0.32924 0.0
H2412 H 0.93035 0.26668 0.33976 0.0
H2413 H 0.92832 0.29623 0.37618 0.0
H2414 H 0.8982 0.29335 0.36563 0.0
H2415 H 0.91886 0.32191 0.37122 0.0
H2416 H 0.91988 0.356 0.29057 0.0
H2417 H 0.87683 0.34661 0.28199 0.0
H2418 H 0.87092 0.29017 0.3247 0.0
C2419 C 0.96771 0.31414 0.34825 0.0
C2420 C 0.98888 0.3296 0.3439 0.0
C2421 C 0.98705 0.34509 0.32702 0.0
C2422 C 0.96504 0.34585 0.31559 0.0
C2423 C 0.94457 0.3307 0.32065 0.0
C2424 C 0.94584 0.31463 0.33613 0.0
C2425 C 0.92135 0.29995 0.33829 0.0
C2426 C 0.91823 0.27393 0.32872 0.0
C2427 C 0.9164 0.30305 0.36438 0.0
C2428 C 0.90597 0.31056 0.32217 0.0
C2429 C 0.91966 0.32849 0.31234 0.0
C2430 C 0.90923 0.3417 0.29795 0.0
C2431 C 0.88456 0.33631 0.29323 0.0
C2432 C 0.86999 0.3175 0.30238 0.0
C2433 C 0.88122 0.30452 0.31708 0.0
H2434 H 0.02525 0.70577 0.61762 0.0
H2435 H 1.00841 0.68188 0.68465 0.0
H2436 H 1.0058 0.64095 0.66624 0.0
H2437 H 0.98923 0.65504 0.57666 0.0
H2438 H 1.01055 0.65683 0.55628 0.0
H2439 H 1.00861 0.68306 0.57432 0.0
H2440 H 0.05228 0.69225 0.59125 0.0
H2441 H 0.05433 0.66599 0.57343 0.0
H2442 H 0.06274 0.67064 0.60547 0.0
H2443 H 1.00734 0.60144 0.63886 0.0
H2444 H 1.01288 0.57075 0.60808 0.0
H2445 H 0.03085 0.62276 0.56084 0.0
C2446 C 0.0207 0.69207 0.62865 0.0
C2447 C 0.01695 0.69752 0.65287 0.0
C2448 C 1.01108 0.67854 0.66611 0.0
C2449 C 1.00974 0.65514 0.65572 0.0
C2450 C 1.01432 0.65077 0.63199 0.0
C2451 C 0.0196 0.66897 0.61874 0.0
C2452 C 0.025 0.66061 0.59412 0.0
C2453 C 1.00729 0.66409 0.57417 0.0
C2454 C 0.05007 0.67312 0.59089 0.0
C2455 C 0.0222 0.63474 0.59528 0.0
C2456 C 0.01581 0.62911 0.61709 0.0
C2457 C 1.01232 0.60597 0.62185 0.0
C2458 C 0.0155 0.58851 0.60414 0.0
C2459 C 0.02241 0.59404 0.58179 0.0
C2460 C 0.02567 0.61764 0.57759 0.0
H2461 H 0.64834 0.84516 0.86459 0.0
H2462 H 0.59632 0.79731 0.81011 0.0
H2463 H 0.62732 0.78443 0.79166 0.0
H2464 H 0.69205 0.86202 0.82371 0.0
H2465 H 0.71671 0.86391 0.84567 0.0
H2466 H 0.6906 0.86943 0.85518 0.0
H2467 H 0.68843 0.83759 0.8828 0.0
H2468 H 0.71451 0.83199 0.87329 0.0
H2469 H 0.68831 0.8083 0.87027 0.0
H2470 H 0.66461 0.77503 0.77912 0.0
H2471 H 0.70385 0.77208 0.77251 0.0
H2472 H 0.73407 0.82726 0.83278 0.0
C2473 C 0.6434 0.83197 0.84876 0.0
C2474 C 0.61919 0.82233 0.83912 0.0
C2475 C 0.61421 0.80521 0.81818 0.0
C2476 C 0.63193 0.79766 0.80746 0.0
C2477 C 0.65534 0.80736 0.8173 0.0
C2478 C 0.6612 0.82441 0.83738 0.0
C2479 C 0.68796 0.8323 0.84383 0.0
C2480 C 0.69738 0.85847 0.84199 0.0
C2481 C 0.69523 0.82725 0.86905 0.0
C2482 C 0.69613 0.81693 0.82452 0.0
C2483 C 0.67687 0.80257 0.80953 0.0
C2484 C 0.67968 0.7864 0.79077 0.0
C2485 C 0.70234 0.7848 0.78712 0.0
C2486 C 0.72278 0.79937 0.80179 0.0
C2487 C 0.71924 0.81581 0.82085 0.0
H2488 H 0.51021 0.54204 0.71954 0.0
H2489 H 0.43948 0.54762 0.70522 0.0
H2490 H 0.44523 0.55221 0.66313 0.0
H2491 H 0.53591 0.5849 0.68257 0.0
H2492 H 0.55582 0.56878 0.6729 0.0
H2493 H 0.54616 0.56649 0.7018 0.0
H2494 H 0.53163 0.52129 0.69048 0.0
H2495 H 0.54123 0.52343 0.66156 0.0
H2496 H 0.51139 0.50876 0.66352 0.0
H2497 H 0.45859 0.55409 0.62133 0.0
H2498 H 0.47825 0.55455 0.58508 0.0
H2499 H 0.54071 0.54906 0.62736 0.0
C2500 C 0.49584 0.54432 0.70768 0.0
C2501 C 0.47426 0.54437 0.71596 0.0
C2502 C 0.45616 0.54754 0.69957 0.0
C2503 C 0.45929 0.55013 0.67554 0.0
C2504 C 0.48072 0.54976 0.66804 0.0
C2505 C 0.49874 0.54711 0.68377 0.0
C2506 C 0.52007 0.54717 0.67139 0.0
C2507 C 0.54071 0.56808 0.68285 0.0
C2508 C 0.52645 0.52377 0.67176 0.0
C2509 C 0.51127 0.55 0.64607 0.0
C2510 C 0.48851 0.55141 0.64445 0.0
C2511 C 0.47646 0.55321 0.62259 0.0
C2512 C 0.48783 0.55345 0.60201 0.0
C2513 C 0.51121 0.55208 0.60319 0.0
C2514 C 0.523 0.55051 0.62573 0.0
H2515 H 0.78626 0.2056 0.00571 0.0
H2516 H 0.74877 0.13341 0.97754 0.0
H2517 H 0.73322 0.14668 0.94068 0.0
H2518 H 0.74308 0.23277 0.98355 0.0
H2519 H 0.76456 0.25783 0.97735 0.0
H2520 H 0.77145 0.24231 1.00133 0.0
H2521 H 0.80737 0.23589 0.98246 0.0
H2522 H 0.80073 0.25153 0.95857 0.0
H2523 H 0.80352 0.22215 0.95168 0.0
H2524 H 0.72307 0.16917 0.90624 0.0
H2525 H 0.72171 0.19755 0.8775 0.0
H2526 H 0.76621 0.25366 0.93051 0.0
C2527 C 0.77465 0.19245 0.99194 0.0
C2528 C 0.7686 0.16851 0.99443 0.0
C2529 C 0.7536 0.15189 0.97585 0.0
C2530 C 0.74463 0.15929 0.95501 0.0
C2531 C 0.75094 0.18326 0.9533 0.0
C2532 C 0.76573 0.19946 0.97136 0.0
C2533 C 0.77098 0.22403 0.96532 0.0
C2534 C 0.76197 0.24017 0.98293 0.0
C2535 C 0.79719 0.23396 0.96445 0.0
C2536 C 0.75708 0.21932 0.94077 0.0
C2537 C 0.74538 0.19583 0.93401 0.0
C2538 C 0.73208 0.18758 0.91146 0.0
C2539 C 0.7313 0.20374 0.89534 0.0
C2540 C 0.74395 0.22761 0.90197 0.0
C2541 C 0.75647 0.23544 0.92508 0.0
H2542 H 0.15298 0.53316 0.18621 0.0
H2543 H 0.09794 0.48842 0.21628 0.0
H2544 H 0.07311 0.47912 0.17706 0.0
H2545 H 0.12166 0.5609 0.15998 0.0
H2546 H 0.13421 0.56428 0.13262 0.0
H2547 H 0.15137 0.56007 0.15872 0.0
H2548 H 0.15953 0.52362 0.13552 0.0
H2549 H 0.14308 0.52816 0.10882 0.0
H2550 H 0.13561 0.50018 0.11941 0.0
H2551 H 0.05064 0.48489 0.14024 0.0
H2552 H 0.03404 0.50098 0.10637 0.0
H2553 H 0.10327 0.54307 0.10032 0.0
C2554 C 0.13642 0.51995 0.18387 0.0
C2555 C 0.12748 0.51099 0.20389 0.0
C2556 C 0.10521 0.49487 0.20086 0.0
C2557 C 0.09094 0.48965 0.17866 0.0
C2558 C 0.09931 0.50064 0.15972 0.0
C2559 C 0.12186 0.51494 0.16184 0.0
C2560 C 0.12516 0.5281 0.14056 0.0
C2561 C 0.13357 0.5549 0.14847 0.0
C2562 C 0.14183 0.51949 0.12516 0.0
C2563 C 0.10055 0.5207 0.1275 0.0
C2564 C 0.08601 0.50438 0.13839 0.0
C2565 C 0.06199 0.49709 0.13109 0.0
C2566 C 0.05266 0.50655 0.11205 0.0
C2567 C 0.06732 0.52335 0.10076 0.0
C2568 C 0.09157 0.53017 0.10848 0.0
H2569 H 0.77303 0.8507 0.47253 0.0
H2570 H 0.84505 0.8901 0.49428 0.0
H2571 H 0.85495 0.87475 0.45525 0.0
H2572 H 0.78357 0.79959 0.43835 0.0
H2573 H 0.75943 0.79589 0.41515 0.0
H2574 H 0.75831 0.80881 0.44524 0.0
H2575 H 0.75053 0.84549 0.42924 0.0
H2576 H 0.75143 0.83257 0.39913 0.0
H2577 H 0.77038 0.86123 0.41119 0.0
H2578 H 0.85697 0.85396 0.41337 0.0
H2579 H 0.85 0.83421 0.37113 0.0
H2580 H 0.77618 0.81112 0.37546 0.0
C2581 C 0.79088 0.85598 0.46904 0.0
C2582 C 0.80837 0.87139 0.48652 0.0
C2583 C 0.83147 0.87817 0.48123 0.0
C2584 C 0.83723 0.86947 0.4591 0.0
C2585 C 0.81964 0.85418 0.44221 0.0
C2586 C 0.79684 0.84778 0.44681 0.0
C2587 C 0.78097 0.83214 0.42518 0.0
C2588 C 0.76992 0.80766 0.43135 0.0
C2589 C 0.76223 0.84355 0.41562 0.0
C2590 C 0.79828 0.831 0.40758 0.0
C2591 C 0.8206 0.84335 0.4179 0.0
C2592 C 0.83952 0.84433 0.40517 0.0
C2593 C 0.83546 0.8329 0.38122 0.0
C2594 C 0.8126 0.82105 0.36997 0.0
C2595 C 0.79388 0.82001 0.38355 0.0
H2596 H 0.45461 0.55385 0.86835 0.0
H2597 H 0.5015 0.52721 0.82665 0.0
H2598 H 0.52312 0.52119 0.86384 0.0
H2599 H 0.49925 0.58614 0.91702 0.0
H2600 H 0.48088 0.58037 0.94004 0.0
H2601 H 0.46823 0.58138 0.91005 0.0
H2602 H 0.44091 0.53967 0.90842 0.0
H2603 H 0.45352 0.53853 0.93839 0.0
H2604 H 0.45323 0.5159 0.9142 0.0
H2605 H 0.53974 0.51757 0.90616 0.0
H2606 H 0.55151 0.5197 0.94977 0.0
H2607 H 0.49557 0.55099 0.9644 0.0
C2608 C 0.46932 0.54658 0.86704 0.0
C2609 C 0.47614 0.54079 0.84438 0.0
C2610 C 0.49578 0.53171 0.84363 0.0
C2611 C 0.5082 0.52817 0.86474 0.0
C2612 C 0.50111 0.5341 0.88676 0.0
C2613 C 0.48227 0.54338 0.88809 0.0
C2614 C 0.47904 0.54939 0.91414 0.0
C2615 C 0.48203 0.57589 0.92069 0.0
C2616 C 0.45526 0.53501 0.91907 0.0
C2617 C 0.49885 0.54195 0.92718 0.0
C2618 C 0.51125 0.53295 0.91107 0.0
C2619 C 0.53016 0.52469 0.91891 0.0
C2620 C 0.5367 0.52588 0.94378 0.0
C2621 C 0.52461 0.53554 0.96073 0.0
C2622 C 0.50535 0.54357 0.95207 0.0
H2623 H 0.80164 0.18525 0.13344 0.0
H2624 H 0.83824 0.24148 0.09827 0.0
H2625 H 0.84988 0.26758 0.13706 0.0
H2626 H 0.77538 0.21629 0.16534 0.0
H2627 H 0.77653 0.20368 0.19271 0.0
H2628 H 0.778 0.18674 0.16489 0.0
H2629 H 0.81712 0.18022 0.18231 0.0
H2630 H 0.81556 0.19671 0.2106 0.0
H2631 H 0.84092 0.20511 0.19578 0.0
H2632 H 0.84807 0.29002 0.17564 0.0
H2633 H 0.83583 0.30643 0.21254 0.0
H2634 H 0.79977 0.23603 0.22308 0.0
C2635 C 0.81332 0.20259 0.13429 0.0
C2636 C 0.81934 0.21138 0.11313 0.0
C2637 C 0.83372 0.23447 0.11447 0.0
C2638 C 0.84044 0.24938 0.13642 0.0
C2639 C 0.83271 0.24085 0.15681 0.0
C2640 C 0.81987 0.2178 0.15609 0.0
C2641 C 0.81021 0.21421 0.17944 0.0
C2642 C 0.78346 0.20469 0.17532 0.0
C2643 C 0.82164 0.19811 0.19283 0.0
C2644 C 0.81791 0.23915 0.19244 0.0
C2645 C 0.83141 0.25413 0.1794 0.0
C2646 C 0.83814 0.27839 0.1864 0.0
C2647 C 0.83087 0.28758 0.20723 0.0
C2648 C 0.81681 0.27252 0.22065 0.0
C2649 C 0.8107 0.248 0.21334 0.0
H2650 H 0.1755 0.57132 0.35037 0.0
H2651 H 0.13374 0.58953 0.2923 0.0
H2652 H 0.11864 0.61361 0.32111 0.0
H2653 H 0.13293 0.55945 0.38393 0.0
H2654 H 0.14994 0.57051 0.41306 0.0
H2655 H 0.16356 0.56115 0.38842 0.0
H2656 H 0.19371 0.60195 0.39489 0.0
H2657 H 0.18007 0.61146 0.41968 0.0
H2658 H 0.18377 0.62809 0.39509 0.0
H2659 H 0.10164 0.62818 0.35454 0.0
H2660 H 0.08138 0.62892 0.38997 0.0
H2661 H 0.13228 0.60083 0.42795 0.0
C2662 C 0.16394 0.58124 0.34385 0.0
C2663 C 0.15619 0.57898 0.31912 0.0
C2664 C 0.14027 0.59128 0.31109 0.0
C2665 C 0.13169 0.60523 0.32738 0.0
C2666 C 0.13893 0.6065 0.35173 0.0
C2667 C 0.15466 0.59478 0.36005 0.0
C2668 C 0.15589 0.59515 0.38695 0.0
C2669 C 0.15022 0.57008 0.39344 0.0
C2670 C 0.17978 0.61006 0.39991 0.0
C2671 C 0.13699 0.60707 0.39195 0.0
C2672 C 0.1282 0.61438 0.37157 0.0
C2673 C 0.10877 0.62318 0.37084 0.0
C2674 C 0.09737 0.62359 0.39111 0.0
C2675 C 0.10528 0.61496 0.41171 0.0
C2676 C 0.12592 0.60759 0.41243 0.0
H2677 H 0.81117 0.88236 0.63498 0.0
H2678 H 0.77354 0.81895 0.58674 0.0
H2679 H 0.76374 0.79873 0.62133 0.0
H2680 H 0.83628 0.85372 0.6778 0.0
H2681 H 0.83411 0.87285 0.70405 0.0
H2682 H 0.83624 0.88369 0.67577 0.0
H2683 H 0.79815 0.89602 0.67856 0.0
H2684 H 0.79598 0.88533 0.70696 0.0
H2685 H 0.77217 0.87459 0.68277 0.0
H2686 H 0.76086 0.78381 0.66038 0.0
H2687 H 0.76388 0.77535 0.70188 0.0
H2688 H 0.80302 0.84774 0.72704 0.0
C2689 C 0.80027 0.86446 0.6318 0.0
C2690 C 0.79272 0.85237 0.60797 0.0
C2691 C 0.77923 0.82868 0.60467 0.0
C2692 C 0.77361 0.81699 0.62427 0.0
C2693 C 0.78166 0.82906 0.64743 0.0
C2694 C 0.79457 0.85231 0.65143 0.0
C2695 C 0.80207 0.86046 0.67838 0.0
C2696 C 0.82876 0.86813 0.68434 0.0
C2697 C 0.79146 0.88028 0.68719 0.0
C2698 C 0.79168 0.83809 0.68869 0.0
C2699 C 0.77994 0.82029 0.67036 0.0
C2700 C 0.76978 0.7977 0.67489 0.0
C2701 C 0.77166 0.79303 0.69866 0.0
C2702 C 0.78353 0.8108 0.71801 0.0
C2703 C 0.7935 0.83378 0.71282 0.0
H2704 H 0.73063 0.45712 0.53966 0.0
H2705 H 0.79155 0.51337 0.53493 0.0
H2706 H 0.77476 0.54182 0.55692 0.0
H2707 H 0.69026 0.48702 0.5279 0.0
H2708 H 0.67106 0.47477 0.54835 0.0
H2709 H 0.68958 0.45847 0.53595 0.0
H2710 H 0.7071 0.45539 0.57891 0.0
H2711 H 0.68862 0.47186 0.59144 0.0
H2712 H 0.71971 0.48174 0.60016 0.0
H2713 H 0.74896 0.56471 0.57343 0.0
H2714 H 0.71564 0.58009 0.58197 0.0
H2715 H 0.67247 0.50888 0.57808 0.0
C2716 C 0.74064 0.47534 0.5437 0.0
C2717 C 0.76233 0.48307 0.53561 0.0
C2718 C 0.77487 0.50708 0.54102 0.0
C2719 C 0.76556 0.52335 0.55365 0.0
C2720 C 0.74392 0.51524 0.56105 0.0
C2721 C 0.73168 0.49176 0.55643 0.0
C2722 C 0.70781 0.48789 0.56414 0.0
C2723 C 0.68856 0.47638 0.54281 0.0
C2724 C 0.70569 0.47336 0.5849 0.0
C2725 C 0.70802 0.51298 0.5725 0.0
C2726 C 0.72915 0.5285 0.57107 0.0
C2727 C 0.73253 0.55275 0.57525 0.0
C2728 C 0.71355 0.56134 0.58018 0.0
C2729 C 0.69155 0.54564 0.58066 0.0
C2730 C 0.68914 0.52126 0.57781 0.0
H2731 H 0.19115 0.18114 0.518 0.0
H2732 H 0.23672 0.13601 0.50646 0.0
H2733 H 0.20373 0.10115 0.50548 0.0
H2734 H 0.15922 0.14826 0.55775 0.0
H2735 H 0.13171 0.15297 0.54683 0.0
H2736 H 0.15845 0.17432 0.54475 0.0
H2737 H 0.14642 0.17085 0.49892 0.0
H2738 H 0.1196 0.14949 0.50089 0.0
H2739 H 0.13888 0.14242 0.4806 0.0
H2740 H 0.16562 0.07083 0.50706 0.0
H2741 H 0.12615 0.04817 0.5124 0.0
H2742 H 0.1059 0.11313 0.524 0.0
C2743 C 0.19413 0.16392 0.51489 0.0
C2744 C 0.21661 0.16142 0.51215 0.0
C2745 C 0.21974 0.1385 0.50858 0.0
C2746 C 0.20105 0.11852 0.50794 0.0
C2747 C 0.17922 0.12161 0.51101 0.0
C2748 C 0.17568 0.14375 0.51445 0.0
C2749 C 0.15078 0.1423 0.51852 0.0
C2750 C 0.15001 0.15523 0.54344 0.0
C2751 C 0.13818 0.15183 0.49854 0.0
C2752 C 0.14096 0.11596 0.51704 0.0
C2753 C 0.15754 0.10427 0.51247 0.0
C2754 C 0.15249 0.07984 0.51058 0.0
C2755 C 0.12999 0.06708 0.51362 0.0
C2756 C 0.11283 0.07875 0.51872 0.0
C2757 C 0.11854 0.10355 0.52024 0.0
H2758 H 0.19659 0.02224 0.77301 0.0
H2759 H 0.12963 0.97653 0.78086 0.0
H2760 H 0.14512 0.94206 0.77371 0.0
H2761 H 0.21012 0.98219 0.72555 0.0
H2762 H 0.24071 0.99026 0.737 0.0
H2763 H 0.22401 0.01124 0.74151 0.0
H2764 H 0.23696 0.01679 0.78736 0.0
H2765 H 0.25356 0.99573 0.783 0.0
H2766 H 0.23169 0.99154 0.8028 0.0
H2767 H 0.16861 0.91263 0.76818 0.0
H2768 H 0.1977 0.89043 0.76342 0.0
H2769 H 0.24935 0.95484 0.75765 0.0
C2770 C 0.18508 1.00496 0.77293 0.0
C2771 C 0.1618 1.00216 0.77746 0.0
C2772 C 0.14745 0.9792 0.77735 0.0
C2773 C 0.15612 0.95947 0.77333 0.0
C2774 C 0.17921 0.96286 0.76928 0.0
C2775 C 0.19345 0.98501 0.76884 0.0
C2776 C 0.21774 0.9838 0.76452 0.0
C2777 C 0.22348 0.99238 0.74073 0.0
C2778 C 0.23606 0.9978 0.78568 0.0
C2779 C 0.21505 0.95759 0.76306 0.0
C2780 C 0.19266 0.94584 0.76577 0.0
C2781 C 0.18612 0.92164 0.76572 0.0
C2782 C 0.20283 0.90912 0.76283 0.0
C2783 C 0.22598 0.92065 0.7599 0.0
C2784 C 0.23198 0.94532 0.75999 0.0
H2785 H 0.35491 0.95592 0.0233 0.0
H2786 H 0.34255 0.93169 0.94671 0.0
H2787 H 0.38078 0.95808 0.94253 0.0
H2788 H 0.38822 0.01693 0.02267 0.0
H2789 H 0.40811 0.01716 0.0489 0.0
H2790 H 0.37851 0.99914 0.04521 0.0
H2791 H 0.39352 0.96255 0.04992 0.0
H2792 H 0.42312 0.9804 0.05347 0.0
H2793 H 0.41327 0.95516 0.03037 0.0
H2794 H 0.42091 0.98549 0.9472 0.0
H2795 H 0.46125 0.00955 0.96032 0.0
H2796 H 0.44854 0.01327 0.03454 0.0
C2797 C 0.35998 0.95675 0.00555 0.0
C2798 C 0.34568 0.94233 0.98518 0.0
C2799 C 0.35322 0.94297 0.9624 0.0
C2800 C 0.37482 0.95788 0.9599 0.0
C2801 C 0.38872 0.97163 0.98045 0.0
C2802 C 0.38168 0.97102 1.00288 0.0
C2803 C 0.40083 0.98544 0.02243 0.0
C2804 C 0.39347 1.00589 0.03557 0.0
C2805 C 0.40811 0.96996 0.04008 0.0
C2806 C 0.41985 0.99419 0.00752 0.0
C2807 C 0.41236 0.98633 0.98334 0.0
C2808 C 0.42693 0.99182 0.96607 0.0
C2809 C 0.44981 1.00554 0.97372 0.0
C2810 C 0.45802 0.01329 0.99846 0.0
C2811 C 0.44275 0.0076 0.01552 0.0
H2812 H 0.85801 0.57029 0.77579 0.0
H2813 H 0.92558 0.61689 0.77146 0.0
H2814 H 0.90629 0.64365 0.7526 0.0
H2815 H 0.82735 0.58074 0.71887 0.0
H2816 H 0.80093 0.57953 0.7318 0.0
H2817 H 0.82 0.56241 0.74162 0.0
H2818 H 0.82243 0.58166 0.78561 0.0
H2819 H 0.80344 0.59878 0.77596 0.0
H2820 H 0.83161 0.61321 0.79294 0.0
H2821 H 0.87987 0.66763 0.73934 0.0
H2822 H 0.84885 0.68745 0.7341 0.0
H2823 H 0.79817 0.62438 0.74509 0.0
C2824 C 0.86876 0.58587 0.77039 0.0
C2825 C 0.89329 0.5915 0.77504 0.0
C2826 C 0.90675 0.61219 0.76799 0.0
C2827 C 0.89595 0.62744 0.75716 0.0
C2828 C 0.8717 0.62158 0.75323 0.0
C2829 C 0.85827 0.6012 0.75949 0.0
C2830 C 0.83262 0.59998 0.75535 0.0
C2831 C 0.81945 0.57944 0.73574 0.0
C2832 C 0.82192 0.59832 0.77886 0.0
C2833 C 0.83377 0.62336 0.74686 0.0
C2834 C 0.85642 0.63539 0.74537 0.0
C2835 C 0.86202 0.65821 0.74001 0.0
C2836 C 0.84415 0.66932 0.73694 0.0
C2837 C 0.8209 0.6577 0.7394 0.0
C2838 C 0.81569 0.63402 0.74342 0.0
H2839 H 0.82483 0.64748 0.04592 0.0
H2840 H 0.86844 0.71407 0.03351 0.0
H2841 H 0.90291 0.69848 0.03794 0.0
H2842 H 0.86709 0.63577 0.09072 0.0
H2843 H 0.8586 0.60462 0.08033 0.0
H2844 H 0.83764 0.62136 0.07696 0.0
H2845 H 0.82934 0.60632 0.03128 0.0
H2846 H 0.85036 0.58966 0.03449 0.0
H2847 H 0.85309 0.61065 0.01376 0.0
H2848 H 0.93243 0.67467 0.04175 0.0
H2849 H 0.95465 0.64546 0.04594 0.0
H2850 H 0.89197 0.59479 0.05749 0.0
C2851 C 0.84165 0.65889 0.04432 0.0
C2852 C 0.84388 0.68207 0.03937 0.0
C2853 C 0.86625 0.69632 0.03738 0.0
C2854 C 0.88594 0.68758 0.03983 0.0
C2855 C 0.88307 0.66457 0.04444 0.0
C2856 C 0.8615 0.65049 0.04686 0.0
C2857 C 0.86306 0.62633 0.05162 0.0
C2858 C 0.85619 0.62176 0.07638 0.0
C2859 C 0.84807 0.60711 0.03159 0.0
C2860 C 0.88882 0.62886 0.05114 0.0
C2861 C 0.90007 0.65106 0.04701 0.0
C2862 C 0.9238 0.65734 0.04527 0.0
C2863 C 0.93635 0.64058 0.04785 0.0
C2864 C 0.92528 0.61767 0.05224 0.0
C2865 C 0.9011 0.61195 0.05393 0.0
H2866 H 0.19076 0.12233 0.78827 0.0
H2867 H 0.16164 0.14654 0.85019 0.0
H2868 H 0.19144 0.18455 0.85567 0.0
H2869 H 0.25274 0.15387 0.81034 0.0
H2870 H 0.25882 0.16113 0.78124 0.0
H2871 H 0.23697 0.13466 0.78356 0.0
H2872 H 0.20658 0.14783 0.75661 0.0
H2873 H 0.22829 0.1743 0.75423 0.0
H2874 H 0.20146 0.17604 0.76501 0.0
H2875 H 0.22195 0.22063 0.85308 0.0
H2876 H 0.25069 0.25361 0.84187 0.0
H2877 H 0.26076 0.20786 0.78078 0.0
C2878 C 0.19106 0.13546 0.80331 0.0
C2879 C 0.17397 0.1313 0.81902 0.0
C2880 C 0.17454 0.14921 0.83803 0.0
C2881 C 0.19148 0.17087 0.84133 0.0
C2882 C 0.20777 0.17458 0.82537 0.0
C2883 C 0.20776 0.15747 0.80668 0.0
C2884 C 0.22618 0.16693 0.79104 0.0
C2885 C 0.24478 0.15334 0.79158 0.0
C2886 C 0.21495 0.16623 0.76519 0.0
C2887 C 0.23623 0.1921 0.80368 0.0
C2888 C 0.22542 0.19589 0.82359 0.0
C2889 C 0.23067 0.21781 0.83766 0.0
C2890 C 0.24705 0.2365 0.83107 0.0
C2891 C 0.25816 0.23342 0.81049 0.0
C2892 C 0.25293 0.21072 0.79684 0.0
H2893 H 0.41403 0.96739 0.31934 0.0
H2894 H 0.37156 1.00581 0.3549 0.0
H2895 H 0.34002 0.96876 0.35159 0.0
H2896 H 0.36766 0.93224 0.27621 0.0
H2897 H 0.37853 0.90663 0.27475 0.0
H2898 H 0.39849 0.93546 0.28249 0.0
H2899 H 0.41516 0.92401 0.32205 0.0
H2900 H 0.39549 0.89503 0.31427 0.0
H2901 H 0.39565 0.91247 0.34254 0.0
H2902 H 0.31346 0.92684 0.34425 0.0
H2903 H 0.29324 0.88466 0.33129 0.0
H2904 H 0.35216 0.8758 0.29655 0.0
C2905 C 0.39831 0.96784 0.32702 0.0
C2906 C 0.39531 0.98909 0.33808 0.0
C2907 C 0.37419 0.98943 0.34689 0.0
C2908 C 0.35626 0.96856 0.34499 0.0
C2909 C 0.35965 0.94783 0.33362 0.0
C2910 C 0.3801 0.94744 0.32456 0.0
C2911 C 0.37885 0.92352 0.31133 0.0
C2912 C 0.38101 0.92453 0.28462 0.0
C2913 C 0.39738 0.91315 0.32327 0.0
C2914 C 0.35461 0.91029 0.31463 0.0
C2915 C 0.34384 0.92445 0.32774 0.0
C2916 C 0.32165 0.91567 0.33378 0.0
C2917 C 0.31031 0.89176 0.32636 0.0
C2918 C 0.32104 0.87717 0.31265 0.0
C2919 C 0.34335 0.88668 0.30659 0.0
H2920 H 0.5903 0.40122 0.62512 0.0
H2921 H 0.56287 0.35059 0.56069 0.0
H2922 H 0.55216 0.38147 0.54011 0.0
H2923 H 0.54845 0.43582 0.61936 0.0
H2924 H 0.5693 0.46393 0.62922 0.0
H2925 H 0.57449 0.43794 0.63949 0.0
H2926 H 0.61417 0.44651 0.62365 0.0
H2927 H 0.60911 0.47257 0.61341 0.0
H2928 H 0.6154 0.4504 0.59269 0.0
H2929 H 0.54133 0.41826 0.52657 0.0
H2930 H 0.53629 0.45715 0.52014 0.0
H2931 H 0.57441 0.48706 0.59076 0.0
C2932 C 0.58213 0.39657 0.60663 0.0
C2933 C 0.57749 0.37271 0.59486 0.0
C2934 C 0.56687 0.36818 0.5705 0.0
C2935 C 0.56055 0.38584 0.55854 0.0
C2936 C 0.5652 0.40887 0.57056 0.0
C2937 C 0.57623 0.41443 0.59399 0.0
C2938 C 0.58011 0.44097 0.60228 0.0
C2939 C 0.56733 0.44489 0.62388 0.0
C2940 C 0.60625 0.45335 0.60838 0.0
C2941 C 0.56932 0.44936 0.58012 0.0
C2942 C 0.5605 0.43033 0.56217 0.0
C2943 C 0.54858 0.43318 0.54052 0.0
C2944 C 0.54572 0.4556 0.53698 0.0
C2945 C 0.5551 0.47591 0.55451 0.0
C2946 C 0.56724 0.47238 0.57652 0.0
H2947 H 0.45088 0.79341 0.40276 0.0
H2948 H 0.41206 0.75802 0.45448 0.0
H2949 H 0.37533 0.75826 0.43094 0.0
H2950 H 0.41387 0.83124 0.39204 0.0
H2951 H 0.41542 0.82997 0.36033 0.0
H2952 H 0.43911 0.82593 0.38019 0.0
H2953 H 0.43571 0.78593 0.35474 0.0
H2954 H 0.41211 0.78994 0.33471 0.0
H2955 H 0.40809 0.76393 0.34892 0.0
H2956 H 0.34202 0.76371 0.40291 0.0
H2957 H 0.31507 0.77294 0.37186 0.0
H2958 H 0.37379 0.80511 0.33714 0.0
C2959 C 0.43464 0.78527 0.40885 0.0
C2960 C 0.43474 0.77548 0.43068 0.0
C2961 C 0.41284 0.76559 0.43801 0.0
C2962 C 0.39169 0.76565 0.42468 0.0
C2963 C 0.39215 0.77578 0.40371 0.0
C2964 C 0.41302 0.78533 0.39566 0.0
C2965 C 0.40827 0.79573 0.37276 0.0
C2966 C 0.41986 0.82229 0.37656 0.0
C2967 C 0.41654 0.78313 0.35152 0.0
C2968 C 0.38166 0.79057 0.36937 0.0
C2969 C 0.37279 0.77902 0.3875 0.0
C2970 C 0.34884 0.77266 0.38858 0.0
C2971 C 0.33355 0.77805 0.37076 0.0
C2972 C 0.34192 0.78978 0.35173 0.0
C2973 C 0.36652 0.79608 0.35125 0.0
H2974 H 0.05346 0.73096 0.10385 0.0
H2975 H 0.11467 0.7541 0.06881 0.0
H2976 H 0.1135 0.71346 0.05533 0.0
H2977 H 0.06904 0.67865 0.1229 0.0
H2978 H 0.03975 0.65975 0.11707 0.0
H2979 H 0.04471 0.69101 0.12499 0.0
H2980 H 0.01819 0.69183 0.08633 0.0
H2981 H 1.01321 0.66058 0.07831 0.0
H2982 H 0.02436 0.6801 0.05769 0.0
H2983 H 0.10686 0.67038 0.04441 0.0
H2984 H 0.09469 0.6273 0.03696 0.0
H2985 H 0.03716 0.62753 0.07751 0.0
C2986 C 0.06668 0.72752 0.09346 0.0
C2987 C 0.08416 0.74674 0.08755 0.0
C2988 C 0.10086 0.74059 0.07372 0.0
C2989 C 0.10047 0.71718 0.06586 0.0
C2990 C 0.0832 0.69898 0.07161 0.0
C2991 C 0.06652 0.70361 0.0851 0.0
C2992 C 0.04992 0.67996 0.08821 0.0
C2993 C 0.05091 0.67718 0.11488 0.0
C2994 C 0.02493 0.678 0.07697 0.0
C2995 C 0.05995 0.66173 0.07435 0.0
C2996 C 0.07924 0.67343 0.06507 0.0
C2997 C 0.09177 0.66107 0.05165 0.0
C2998 C 0.08462 0.63629 0.04748 0.0
C2999 C 0.06488 0.62323 0.05649 0.0
C3000 C 0.05238 0.63651 0.07023 0.0
H3001 H 0.06271 0.28066 0.89333 0.0
H3002 H 0.09862 0.31206 0.96462 0.0
H3003 H 0.13619 0.32027 0.94854 0.0
H3004 H 0.1072 0.25342 0.87456 0.0
H3005 H 0.10304 0.25914 0.8441 0.0
H3006 H 0.07911 0.25509 0.86135 0.0
H3007 H 0.07345 0.29536 0.85342 0.0
H3008 H 0.09737 0.29955 0.83619 0.0
H3009 H 0.09766 0.32126 0.86129 0.0
H3010 H 0.17005 0.32594 0.92427 0.0
H3011 H 0.19722 0.32821 0.89429 0.0
H3012 H 0.13933 0.29373 0.83842 0.0
C3013 C 0.07849 0.28909 0.90563 0.0
C3014 C 0.07761 0.29562 0.93035 0.0
C3015 C 0.09874 0.30678 0.94569 0.0
C3016 C 0.12021 0.31154 0.93669 0.0
C3017 C 0.12042 0.30505 0.91223 0.0
C3018 C 0.10009 0.29399 0.89692 0.0
C3019 C 0.10506 0.28916 0.87131 0.0
C3020 C 0.09819 0.26263 0.86231 0.0
C3021 C 0.09265 0.30211 0.85457 0.0
C3022 C 0.13132 0.29938 0.87453 0.0
C3023 C 0.13983 0.30842 0.89828 0.0
C3024 C 0.16351 0.31894 0.90563 0.0
C3025 C 0.17884 0.32031 0.88834 0.0
C3026 C 0.17063 0.31129 0.86376 0.0
C3027 C 0.14641 0.30061 0.85697 0.0
H3028 H 0.52663 0.77661 0.93133 0.0
H3029 H 0.57877 0.76943 0.88555 0.0
H3030 H 0.58136 0.733 0.90179 0.0
H3031 H 0.55169 0.75892 0.98225 0.0
H3032 H 0.52436 0.74346 0.99053 0.0
H3033 H 0.52567 0.76773 0.97407 0.0
H3034 H 0.49371 0.74122 0.94092 0.0
H3035 H 0.49214 0.71688 0.95738 0.0
H3036 H 0.4977 0.71411 0.92667 0.0
H3037 H 0.57965 0.69812 0.92602 0.0
H3038 H 0.57304 0.66858 0.9536 0.0
H3039 H 0.52124 0.69897 0.9824 0.0
C3040 C 0.53852 0.76737 0.92445 0.0
C3041 C 0.55258 0.77611 0.90709 0.0
C3042 C 0.56771 0.76316 0.89866 0.0
C3043 C 0.56935 0.74246 0.90791 0.0
C3044 C 0.55555 0.73474 0.92542 0.0
C3045 C 0.54024 0.74678 0.93333 0.0
C3046 C 0.52752 0.73537 0.9525 0.0
C3047 C 0.53263 0.75238 0.97624 0.0
C3048 C 0.50121 0.72636 0.94385 0.0
C3049 C 0.53835 0.7152 0.95469 0.0
C3050 C 0.55441 0.71496 0.93889 0.0
C3051 C 0.56691 0.69813 0.9382 0.0
C3052 C 0.56291 0.68125 0.95394 0.0
C3053 C 0.54652 0.68115 0.97036 0.0
C3054 C 0.53409 0.69848 0.97044 0.0
H3055 H 0.12235 0.79721 0.70076 0.0
H3056 H 0.08558 0.75532 0.74949 0.0
H3057 H 0.12368 0.75474 0.77121 0.0
H3058 H 0.16741 0.76859 0.69628 0.0
H3059 H 0.18982 0.79497 0.6951 0.0
H3060 H 0.15993 0.7929 0.68438 0.0
H3061 H 0.16211 0.83067 0.71325 0.0
H3062 H 0.19209 0.83291 0.72383 0.0
H3063 H 0.17146 0.83236 0.74485 0.0
H3064 H 0.16782 0.75747 0.78661 0.0
H3065 H 0.21061 0.76469 0.79479 0.0
H3066 H 0.21839 0.80538 0.73609 0.0
C3067 C 0.12207 0.78802 0.71616 0.0
C3068 C 0.10034 0.77631 0.7232 0.0
C3069 C 0.1015 0.76463 0.74358 0.0
C3070 C 0.12327 0.76412 0.756 0.0
C3071 C 0.14418 0.77551 0.74818 0.0
C3072 C 0.1436 0.78747 0.72878 0.0
C3073 C 0.16829 0.79821 0.72357 0.0
C3074 C 0.17155 0.78806 0.69834 0.0
C3075 C 0.1738 0.82514 0.72656 0.0
C3076 C 0.1831 0.7904 0.7429 0.0
C3077 C 0.16892 0.77724 0.75693 0.0
C3078 C 0.17881 0.76785 0.77564 0.0
C3079 C 0.20339 0.77203 0.78016 0.0
C3080 C 0.21849 0.78564 0.76622 0.0
C3081 C 0.20779 0.79489 0.74728 0.0
H3082 H 0.07008 0.38975 0.43326 0.0
H3083 H 0.05907 0.41194 0.36382 0.0
H3084 H 0.05218 0.44844 0.38368 0.0
H3085 H 0.02763 0.41215 0.46116 0.0
H3086 H 0.04528 0.42206 0.49009 0.0
H3087 H 0.04942 0.3978 0.47052 0.0
H3088 H 0.093 0.41945 0.47273 0.0
H3089 H 0.08901 0.44377 0.49236 0.0
H3090 H 0.10108 0.44866 0.46499 0.0
H3091 H 0.04513 0.48249 0.4115 0.0
H3092 H 0.04031 0.51137 0.44409 0.0
H3093 H 0.05737 0.46847 0.4964 0.0
C3094 C 0.06627 0.40231 0.42219 0.0
C3095 C 0.06509 0.39772 0.39675 0.0
C3096 C 0.06021 0.41486 0.38318 0.0
C3097 C 0.05619 0.43571 0.39439 0.0
C3098 C 0.05743 0.43963 0.41941 0.0
C3099 C 0.06262 0.42349 0.43319 0.0
C3100 C 0.06346 0.43223 0.45983 0.0
C3101 C 0.04537 0.41503 0.47105 0.0
C3102 C 0.0881 0.43626 0.47327 0.0
C3103 C 0.05728 0.45549 0.45894 0.0
C3104 C 0.05394 0.45942 0.43541 0.0
C3105 C 0.04786 0.47953 0.42994 0.0
C3106 C 0.04512 0.49595 0.44875 0.0
C3107 C 0.04845 0.49258 0.47316 0.0
C3108 C 0.05473 0.47189 0.47812 0.0
H3109 H 0.43902 0.25719 0.19885 0.0
H3110 H 0.48476 0.26892 0.26615 0.0
H3111 H 0.45329 0.27663 0.28801 0.0
H3112 H 0.40783 0.30031 0.21401 0.0
H3113 H 0.37962 0.28248 0.19966 0.0
H3114 H 0.40558 0.2779 0.18889 0.0
H3115 H 0.39264 0.23424 0.19433 0.0
H3116 H 0.36661 0.23865 0.20511 0.0
H3117 H 0.38596 0.22667 0.22316 0.0
H3118 H 0.41661 0.28615 0.30325 0.0
H3119 H 0.37827 0.29178 0.31025 0.0
H3120 H 0.35325 0.27055 0.23432 0.0
C3121 C 0.44243 0.26118 0.21822 0.0
C3122 C 0.46507 0.26234 0.23048 0.0
C3123 C 0.46807 0.26766 0.25594 0.0
C3124 C 0.45009 0.27224 0.26866 0.0
C3125 C 0.4283 0.27115 0.25615 0.0
C3126 C 0.42421 0.26526 0.23144 0.0
C3127 C 0.39876 0.26446 0.22255 0.0
C3128 C 0.3979 0.28235 0.20524 0.0
C3129 C 0.38519 0.23953 0.21057 0.0
C3130 C 0.38937 0.2713 0.24589 0.0
C3131 C 0.40689 0.27529 0.26504 0.0
C3132 C 0.40286 0.28273 0.28826 0.0
C3133 C 0.38077 0.28599 0.29213 0.0
C3134 C 0.362 0.28157 0.27315 0.0
C3135 C 0.36673 0.27396 0.24957 0.0
H3136 H 0.64269 0.56358 0.38906 0.0
H3137 H 0.57789 0.54686 0.34046 0.0
H3138 H 0.55585 0.54007 0.37444 0.0
H3139 H 0.62418 0.52226 0.42934 0.0
H3140 H 0.63884 0.54162 0.45644 0.0
H3141 H 0.65014 0.54527 0.42847 0.0
H3142 H 0.64845 0.58849 0.43359 0.0
H3143 H 0.63732 0.58503 0.46167 0.0
H3144 H 0.62141 0.59513 0.43825 0.0
H3145 H 0.54046 0.53228 0.41261 0.0
H3146 H 0.53202 0.52892 0.45361 0.0
H3147 H 0.60592 0.55387 0.48038 0.0
C3148 C 0.62386 0.55865 0.38564 0.0
C3149 C 0.61208 0.55569 0.36183 0.0
C3150 C 0.58742 0.54935 0.35831 0.0
C3151 C 0.57469 0.54532 0.37758 0.0
C3152 C 0.5867 0.54809 0.40063 0.0
C3153 C 0.61072 0.55508 0.40496 0.0
C3154 C 0.619 0.55752 0.43186 0.0
C3155 C 0.63393 0.54066 0.43681 0.0
C3156 C 0.63234 0.58306 0.44194 0.0
C3157 C 0.59589 0.5504 0.44181 0.0
C3158 C 0.57761 0.5448 0.42324 0.0
C3159 C 0.55464 0.53686 0.4273 0.0
C3160 C 0.55004 0.53485 0.45084 0.0
C3161 C 0.56819 0.54105 0.4706 0.0
C3162 C 0.59156 0.54902 0.46587 0.0
H3163 H 0.30129 0.89694 0.09023 0.0
H3164 H 0.35575 0.88466 0.04997 0.0
H3165 H 0.37733 0.87775 0.08665 0.0
H3166 H 0.33929 0.92357 0.14917 0.0
H3167 H 0.31766 0.90854 0.16591 0.0
H3168 H 0.3088 0.91732 0.1378 0.0
H3169 H 0.28514 0.87437 0.12171 0.0
H3170 H 0.29388 0.86553 0.14968 0.0
H3171 H 0.29957 0.85127 0.12198 0.0
H3172 H 0.39006 0.86663 0.12542 0.0
H3173 H 0.39226 0.85052 0.16359 0.0
H3174 H 0.329 0.86873 0.17835 0.0
C3175 C 0.31811 0.89355 0.08943 0.0
C3176 C 0.32701 0.89146 0.0675 0.0
C3177 C 0.34871 0.88629 0.06674 0.0
C3178 C 0.36118 0.88256 0.08748 0.0
C3179 C 0.35166 0.88404 0.10877 0.0
C3180 C 0.33062 0.8894 0.10994 0.0
C3181 C 0.32272 0.88669 0.13418 0.0
C3182 C 0.32209 0.91045 0.14755 0.0
C3183 C 0.29894 0.86837 0.13173 0.0
C3184 C 0.3421 0.87806 0.14601 0.0
C3185 C 0.35888 0.87715 0.13127 0.0
C3186 C 0.37731 0.86769 0.13738 0.0
C3187 C 0.37835 0.85846 0.15896 0.0
C3188 C 0.36094 0.85862 0.17395 0.0
C3189 C 0.34294 0.86904 0.16759 0.0
H3190 H 0.93693 0.56727 0.88795 0.0
H3191 H 0.99433 0.58675 0.84724 0.0
H3192 H 0.02228 0.58957 0.88335 0.0
H3193 H 0.96734 0.60268 0.94746 0.0
H3194 H 0.95397 0.57972 0.9637 0.0
H3195 H 0.93871 0.58374 0.93604 0.0
H3196 H 0.934 0.54025 0.91897 0.0
H3197 H 0.94951 0.53617 0.94636 0.0
H3198 H 0.95951 0.52959 0.91811 0.0
H3199 H 0.04354 0.58497 0.92163 0.0
H3200 H 0.057 0.57444 0.96039 0.0
H3201 H 0.98583 0.55681 0.97629 0.0
C3202 C 0.95541 0.5731 0.88703 0.0
C3203 C 0.96363 0.57727 0.86509 0.0
C3204 C 0.98784 0.58381 0.86408 0.0
C3205 C 1.00381 0.58547 0.88446 0.0
C3206 C 0.99524 0.58037 0.90567 0.0
C3207 C 0.97163 0.57448 0.90721 0.0
C3208 C 0.96697 0.56723 0.93138 0.0
C3209 C 0.95611 0.58437 0.94548 0.0
C3210 C 0.9516 0.54181 0.92852 0.0
C3211 C 0.99155 0.56933 0.9428 0.0
C3212 C 1.00759 0.57719 0.92778 0.0
C3213 C 0.03121 0.57915 0.93376 0.0
C3214 C 0.03866 0.57297 0.95575 0.0
C3215 C 0.02252 0.56482 0.97145 0.0
C3216 C 0.99868 0.56317 0.96484 0.0
H3217 H 0.29887 0.27122 0.59875 0.0
H3218 H 0.26719 0.19683 0.59633 0.0
H3219 H 0.26424 0.20345 0.63968 0.0
H3220 H 0.33407 0.27799 0.65784 0.0
H3221 H 0.33165 0.30717 0.66707 0.0
H3222 H 0.33066 0.29673 0.63571 0.0
H3223 H 0.29107 0.30608 0.62652 0.0
H3224 H 0.29184 0.31628 0.65789 0.0
H3225 H 0.26728 0.29339 0.64205 0.0
H3226 H 0.26167 0.21865 0.68277 0.0
H3227 H 0.26603 0.23998 0.72392 0.0
H3228 H 0.30404 0.30381 0.70069 0.0
C3229 C 0.29148 0.25635 0.60745 0.0
C3230 C 0.28315 0.23344 0.59405 0.0
C3231 C 0.27377 0.21445 0.60616 0.0
C3232 C 0.27189 0.21808 0.63079 0.0
C3233 C 0.28001 0.24081 0.64345 0.0
C3234 C 0.29022 0.25956 0.63237 0.0
C3235 C 0.29876 0.28196 0.65059 0.0
C3236 C 0.32537 0.29152 0.65294 0.0
C3237 C 0.28651 0.30052 0.64385 0.0
C3238 C 0.29137 0.27297 0.67347 0.0
C3239 C 0.28017 0.24924 0.66877 0.0
C3240 C 0.27069 0.23716 0.68666 0.0
C3241 C 0.27309 0.24945 0.70998 0.0
C3242 C 0.28531 0.27352 0.71555 0.0
C3243 C 0.29461 0.28539 0.69698 0.0
H3244 H 0.59088 0.5868 0.22955 0.0
H3245 H 0.62684 0.53204 0.22741 0.0
H3246 H 0.6173 0.52429 0.18325 0.0
H3247 H 0.54433 0.55812 0.18206 0.0
H3248 H 0.54334 0.58447 0.16976 0.0
H3249 H 0.5532 0.58614 0.20121 0.0
H3250 H 0.59176 0.61603 0.19701 0.0
H3251 H 0.58202 0.61445 0.16552 0.0
H3252 H 0.6093 0.6085 0.17499 0.0
H3253 H 0.60229 0.52091 0.1396 0.0
H3254 H 0.58443 0.52307 0.09916 0.0
H3255 H 0.55919 0.58124 0.12784 0.0
C3256 C 0.59683 0.57319 0.21983 0.0
C3257 C 0.60966 0.55997 0.23225 0.0
C3258 C 0.61711 0.54246 0.21859 0.0
C3259 C 0.61172 0.53791 0.1934 0.0
C3260 C 0.59903 0.55115 0.18184 0.0
C3261 C 0.59182 0.56858 0.19454 0.0
C3262 C 0.57845 0.58025 0.17754 0.0
C3263 C 0.55334 0.57705 0.18297 0.0
C3264 C 0.59114 0.60636 0.17885 0.0
C3265 C 0.57899 0.56644 0.15328 0.0
C3266 C 0.59093 0.5497 0.15637 0.0
C3267 C 0.5931 0.53409 0.13703 0.0
C3268 C 0.58277 0.53542 0.11405 0.0
C3269 C 0.57041 0.55235 0.1101 0.0
C3270 C 0.56876 0.56832 0.1301 0.0
H3271 H 0.26876 0.85656 0.96252 0.0
H3272 H 0.2507 0.91864 0.94286 0.0
H3273 H 0.24901 0.90337 0.89999 0.0
H3274 H 0.30747 0.85479 0.92218 0.0
H3275 H 0.30046 0.82325 0.91536 0.0
H3276 H 0.2962 0.83678 0.94399 0.0
H3277 H 0.25283 0.81289 0.93683 0.0
H3278 H 0.25698 0.79903 0.90821 0.0
H3279 H 0.23458 0.81414 0.9099 0.0
H3280 H 0.25384 0.88382 0.86028 0.0
H3281 H 0.2645 0.86164 0.82606 0.0
H3282 H 0.28104 0.81269 0.87178 0.0
C3283 C 0.26391 0.86674 0.94922 0.0
C3284 C 0.25979 0.88878 0.95597 0.0
C3285 C 0.25374 0.90164 0.93804 0.0
C3286 C 0.25275 0.8931 0.91369 0.0
C3287 C 0.25777 0.87168 0.90773 0.0
C3288 C 0.2631 0.85861 0.92497 0.0
C3289 C 0.27004 0.83734 0.91411 0.0
C3290 C 0.29502 0.83811 0.92453 0.0
C3291 C 0.25256 0.8145 0.91746 0.0
C3292 C 0.26847 0.84084 0.88805 0.0
C3293 C 0.26104 0.86057 0.88477 0.0
C3294 C 0.2594 0.8682 0.86258 0.0
C3295 C 0.26567 0.85546 0.84327 0.0
C3296 C 0.27372 0.83535 0.84621 0.0
C3297 C 0.27481 0.82782 0.86889 0.0
H3298 H 0.93351 0.53639 0.73179 0.0
H3299 H 0.93289 0.47345 0.76325 0.0
H3300 H 0.9351 0.45248 0.72373 0.0
H3301 H 0.90354 0.50597 0.66851 0.0
H3302 H 0.92266 0.52789 0.6551 0.0
H3303 H 0.91391 0.53577 0.68373 0.0
H3304 H 0.95727 0.55221 0.70226 0.0
H3305 H 0.96609 0.54432 0.67388 0.0
H3306 H 0.97648 0.53341 0.70007 0.0
H3307 H 0.94587 0.4412 0.68424 0.0
H3308 H 0.96534 0.44078 0.64795 0.0
H3309 H 0.96063 0.51141 0.64215 0.0
C3310 C 0.93271 0.51788 0.72995 0.0
C3311 C 0.93267 0.50631 0.75022 0.0
C3312 C 0.93268 0.48242 0.74769 0.0
C3313 C 0.93378 0.47036 0.72532 0.0
C3314 C 0.93494 0.48252 0.70573 0.0
C3315 C 0.93428 0.50574 0.70776 0.0
C3316 C 0.94002 0.51598 0.6852 0.0
C3317 C 0.91876 0.52174 0.67238 0.0
C3318 C 0.96122 0.53774 0.6907 0.0
C3319 C 0.94557 0.49545 0.67093 0.0
C3320 C 0.94181 0.47608 0.68274 0.0
C3321 C 0.94832 0.45601 0.67448 0.0
C3322 C 0.95952 0.45598 0.65399 0.0
C3323 C 0.96428 0.47598 0.64218 0.0
C3324 C 0.95655 0.49561 0.65039 0.0
H3325 H 0.29367 0.25251 0.46971 0.0
H3326 H 0.28128 0.17806 0.44483 0.0
H3327 H 0.28241 0.18594 0.40335 0.0
H3328 H 0.25899 0.26477 0.41735 0.0
H3329 H 0.27879 0.29296 0.41646 0.0
H3330 H 0.27628 0.28181 0.44458 0.0
H3331 H 0.32066 0.2866 0.45108 0.0
H3332 H 0.32327 0.29761 0.42291 0.0
H3333 H 0.33374 0.27263 0.42841 0.0
H3334 H 0.28598 0.20115 0.36441 0.0
H3335 H 0.29011 0.22281 0.33004 0.0
H3336 H 0.30034 0.28822 0.37788 0.0
C3337 C 0.2909 0.23788 0.45548 0.0
C3338 C 0.28735 0.21454 0.46085 0.0
C3339 C 0.28408 0.19605 0.44152 0.0
C3340 C 0.2847 0.20034 0.41772 0.0
C3341 C 0.28863 0.22335 0.41305 0.0
C3342 C 0.29154 0.24189 0.43126 0.0
C3343 C 0.29577 0.26495 0.42083 0.0
C3344 C 0.2763 0.27683 0.42506 0.0
C3345 C 0.31979 0.28142 0.43145 0.0
C3346 C 0.29488 0.25637 0.39412 0.0
C3347 C 0.29073 0.23226 0.3902 0.0
C3348 C 0.28917 0.22005 0.36727 0.0
C3349 C 0.29161 0.23261 0.34774 0.0
C3350 C 0.29565 0.25738 0.35089 0.0
C3351 C 0.29741 0.26936 0.37463 0.0
H3352 H 0.35485 0.64529 0.52079 0.0
H3353 H 0.33384 0.62003 0.58599 0.0
H3354 H 0.35957 0.59383 0.58369 0.0
H3355 H 0.35359 0.59171 0.49046 0.0
H3356 H 0.37872 0.60109 0.47553 0.0
H3357 H 0.36245 0.62147 0.48427 0.0
H3358 H 0.39978 0.65028 0.50872 0.0
H3359 H 0.41631 0.63016 0.49968 0.0
H3360 H 0.41685 0.64005 0.53107 0.0
H3361 H 0.38257 0.56694 0.57194 0.0
H3362 H 0.40471 0.54221 0.55271 0.0
H3363 H 0.41023 0.58325 0.49398 0.0
C3364 C 0.3565 0.63491 0.53502 0.0
C3365 C 0.34269 0.63473 0.55371 0.0
C3366 C 0.34448 0.62039 0.57163 0.0
C3367 C 0.35903 0.60551 0.5705 0.0
C3368 C 0.37164 0.60519 0.5513 0.0
C3369 C 0.37087 0.61967 0.53401 0.0
C3370 C 0.38453 0.61404 0.51409 0.0
C3371 C 0.36888 0.60663 0.48965 0.0
C3372 C 0.40562 0.63487 0.51335 0.0
C3373 C 0.39216 0.59358 0.52249 0.0
C3374 C 0.38475 0.58903 0.54414 0.0
C3375 C 0.38872 0.57043 0.5551 0.0
C3376 C 0.40099 0.55626 0.54384 0.0
C3377 C 0.40898 0.56064 0.52173 0.0
C3378 C 0.40444 0.57956 0.51094 0.0
H3379 H 0.89871 0.90561 0.54535 0.0
H3380 H 0.85486 0.95195 0.56026 0.0
H3381 H 0.88801 0.98623 0.56042 0.0
H3382 H 0.95147 0.94334 0.58299 0.0
H3383 H 0.97061 0.93625 0.56254 0.0
H3384 H 0.94356 0.91512 0.56424 0.0
H3385 H 0.93166 0.91245 0.51851 0.0
H3386 H 0.95861 0.93363 0.5167 0.0
H3387 H 0.93128 0.93884 0.506 0.0
H3388 H 0.92518 0.01576 0.55609 0.0
H3389 H 0.96464 0.03823 0.55064 0.0
H3390 H 0.98524 0.97338 0.54073 0.0
C3391 C 0.89612 0.92296 0.54892 0.0
C3392 C 0.87401 0.92589 0.55283 0.0
C3393 C 0.87152 0.94903 0.55732 0.0
C3394 C 0.89028 0.96873 0.55739 0.0
C3395 C 0.91168 0.96522 0.5532 0.0
C3396 C 0.91483 0.94294 0.54934 0.0
C3397 C 0.9397 0.94416 0.54521 0.0
C3398 C 0.95206 0.93412 0.56492 0.0
C3399 C 0.94034 0.93152 0.52011 0.0
C3400 C 0.94989 0.97053 0.54709 0.0
C3401 C 0.93338 0.98234 0.55154 0.0
C3402 C 0.93835 1.00671 0.55289 0.0
C3403 C 0.96079 0.01934 0.5497 0.0
C3404 C 0.97814 0.00767 0.54552 0.0
C3405 C 0.97251 0.98291 0.54431 0.0
H3406 H 0.89424 0.07942 0.26863 0.0
H3407 H 0.96423 0.12578 0.28579 0.0
H3408 H 0.94786 0.15992 0.29189 0.0
H3409 H 0.86791 0.11861 0.23739 0.0
H3410 H 0.8409 0.10981 0.24944 0.0
H3411 H 0.85824 0.08944 0.24493 0.0
H3412 H 0.85905 0.08374 0.2896 0.0
H3413 H 0.84187 0.10422 0.29429 0.0
H3414 H 0.86956 0.109 0.31263 0.0
H3415 H 0.92335 0.18907 0.29759 0.0
H3416 H 0.89342 0.2104 0.30243 0.0
H3417 H 0.83931 0.1448 0.28215 0.0
C3418 C 0.9062 0.09678 0.27328 0.0
C3419 C 0.93064 0.09986 0.27647 0.0
C3420 C 0.94552 0.12291 0.28303 0.0
C3421 C 0.93634 0.14242 0.28658 0.0
C3422 C 0.91217 0.13869 0.28364 0.0
C3423 C 0.89732 0.11639 0.2771 0.0
C3424 C 0.87204 0.11694 0.276 0.0
C3425 C 0.859 0.10818 0.25042 0.0
C3426 C 0.85992 0.10263 0.29422 0.0
C3427 C 0.87489 0.14301 0.28307 0.0
C3428 C 0.89817 0.15528 0.28728 0.0
C3429 C 0.90509 0.17957 0.29418 0.0
C3430 C 0.88789 0.19159 0.29677 0.0
C3431 C 0.86384 0.17944 0.2926 0.0
C3432 C 0.85744 0.15472 0.28569 0.0
H3433 H 0.69634 0.16058 0.03293 0.0
H3434 H 0.72748 0.12367 0.08311 0.0
H3435 H 0.68921 0.09556 0.0823 0.0
H3436 H 0.64013 0.15259 0.05539 0.0
H3437 H 0.62424 0.14817 0.02565 0.0
H3438 H 0.65374 0.1665 0.03198 0.0
H3439 H 0.66465 0.14115 0.99707 0.0
H3440 H 0.63548 0.1221 0.99108 0.0
H3441 H 0.65973 0.11002 0.99721 0.0
H3442 H 0.64821 0.06979 0.07377 0.0
H3443 H 0.6066 0.0498 0.06012 0.0
H3444 H 0.60264 0.10357 0.01552 0.0
C3445 C 0.695 0.14696 0.04422 0.0
C3446 C 0.71483 0.14439 0.05819 0.0
C3447 C 0.71248 0.12597 0.07228 0.0
C3448 C 0.69083 0.10991 0.07194 0.0
C3449 C 0.67175 0.1125 0.05741 0.0
C3450 C 0.67357 0.13067 0.04397 0.0
C3451 C 0.65065 0.1288 0.02892 0.0
C3452 C 0.64166 0.15029 0.03592 0.0
C3453 C 0.65277 0.12532 1.00198 0.0
C3454 C 0.63567 0.10686 0.03613 0.0
C3455 C 0.64817 0.09762 0.05246 0.0
C3456 C 0.63816 0.07697 0.06114 0.0
C3457 C 0.61458 0.06567 0.05318 0.0
C3458 C 0.60137 0.07519 0.03684 0.0
C3459 C 0.6122 0.09595 0.02816 0.0
H3460 H 0.23027 0.50582 0.26683 0.0
H3461 H 0.1698 0.47687 0.30068 0.0
H3462 H 0.18875 0.44799 0.31542 0.0
H3463 H 0.2426 0.44977 0.24839 0.0
H3464 H 0.2737 0.46228 0.25409 0.0
H3465 H 0.25493 0.48006 0.24538 0.0
H3466 H 0.27319 0.51044 0.28348 0.0
H3467 H 0.29182 0.49263 0.29243 0.0
H3468 H 0.27297 0.50098 0.31256 0.0
H3469 H 0.21501 0.42382 0.32845 0.0
H3470 H 0.24567 0.40368 0.33608 0.0
H3471 H 0.2889 0.4478 0.29332 0.0
C3472 C 0.2209 0.49322 0.27708 0.0
C3473 C 0.19855 0.49359 0.2826 0.0
C3474 C 0.1869 0.47686 0.29615 0.0
C3475 C 0.19754 0.46044 0.30468 0.0
C3476 C 0.21977 0.46086 0.29935 0.0
C3477 C 0.23122 0.47659 0.28562 0.0
C3478 C 0.25506 0.47335 0.28259 0.0
C3479 C 0.25666 0.46592 0.25603 0.0
C3480 C 0.2744 0.49568 0.29342 0.0
C3481 C 0.25532 0.45355 0.29704 0.0
C3482 C 0.23482 0.44667 0.30662 0.0
C3483 C 0.2311 0.42899 0.32098 0.0
C3484 C 0.24869 0.4178 0.32538 0.0
C3485 C 0.26967 0.42424 0.31537 0.0
C3486 C 0.27299 0.44244 0.3011 0.0
H3487 H 0.26312 0.44599 0.05773 0.0
H3488 H 0.22109 0.37605 0.02666 0.0
H3489 H 0.18656 0.39137 0.02061 0.0
H3490 H 0.21835 0.4639 0.08857 0.0
H3491 H 0.2274 0.49369 0.08256 0.0
H3492 H 0.24836 0.47691 0.08567 0.0
H3493 H 0.2596 0.4847 0.04387 0.0
H3494 H 0.23864 0.50142 0.0406 0.0
H3495 H 0.23728 0.47686 0.01814 0.0
H3496 H 0.15693 0.41501 0.01605 0.0
H3497 H 0.13464 0.4445 0.0141 0.0
H3498 H 0.19619 0.49914 0.04788 0.0
C3499 C 0.2466 0.43379 0.04993 0.0
C3500 C 0.24485 0.40972 0.04277 0.0
C3501 C 0.22289 0.39448 0.03243 0.0
C3502 C 0.20317 0.40306 0.02889 0.0
C3503 C 0.2056 0.42694 0.03586 0.0
C3504 C 0.22676 0.44205 0.0463 0.0
C3505 C 0.22492 0.46706 0.05158 0.0
C3506 C 0.23006 0.47591 0.07871 0.0
C3507 C 0.24106 0.48347 0.03771 0.0
C3508 C 0.1995 0.46377 0.04216 0.0
C3509 C 0.18863 0.44048 0.03325 0.0
C3510 C 0.16529 0.43326 0.02306 0.0
C3511 C 0.1528 0.45022 0.02189 0.0
C3512 C 0.16357 0.47427 0.03078 0.0
C3513 C 0.18726 0.48094 0.0412 0.0
H3514 H 0.9328 0.9464 0.28809 0.0
H3515 H 0.88969 0.99092 0.26631 0.0
H3516 H 0.85444 0.95812 0.26494 0.0
H3517 H 0.89812 0.89267 0.2514 0.0
H3518 H 0.90303 0.87467 0.2738 0.0
H3519 H 0.92462 0.90154 0.27237 0.0
H3520 H 0.92313 0.91603 0.317 0.0
H3521 H 0.90152 0.88922 0.31852 0.0
H3522 H 0.89561 0.91711 0.32649 0.0
H3523 H 0.82323 0.9194 0.26673 0.0
H3524 H 0.80026 0.8796 0.27185 0.0
H3525 H 0.86471 0.86187 0.29244 0.0
C3526 C 0.91601 0.94932 0.28289 0.0
C3527 C 0.91418 0.97137 0.27726 0.0
C3528 C 0.89169 0.97425 0.27068 0.0
C3529 C 0.8715 0.95568 0.26984 0.0
C3530 C 0.87397 0.93422 0.27561 0.0
C3531 C 0.89574 0.93104 0.28198 0.0
C3532 C 0.89389 0.90654 0.28778 0.0
C3533 C 0.9056 0.89307 0.27029 0.0
C3534 C 0.90414 0.90728 0.31401 0.0
C3535 C 0.86771 0.89641 0.28383 0.0
C3536 C 0.85637 0.91246 0.27674 0.0
C3537 C 0.83203 0.90672 0.27225 0.0
C3538 C 0.81909 0.88406 0.27518 0.0
C3539 C 0.83051 0.86746 0.28263 0.0
C3540 C 0.85518 0.87396 0.28683 0.0
H3541 H 0.68668 0.14408 0.74324 0.0
H3542 H 0.73469 0.10874 0.77496 0.0
H3543 H 0.76732 0.14348 0.77482 0.0
H3544 H 0.72863 0.17792 0.70592 0.0
H3545 H 0.71734 0.2031 0.711 0.0
H3546 H 0.69841 0.17394 0.70941 0.0
H3547 H 0.68728 0.18572 0.75118 0.0
H3548 H 0.70618 0.21476 0.75294 0.0
H3549 H 0.70996 0.19746 0.77636 0.0
H3550 H 0.79286 0.18406 0.77928 0.0
H3551 H 0.80997 0.22715 0.78511 0.0
H3552 H 0.74645 0.23568 0.74821 0.0
C3553 C 0.70414 0.14341 0.74952 0.0
C3554 C 0.70813 0.12372 0.75912 0.0
C3555 C 0.73121 0.12356 0.76735 0.0
C3556 C 0.74989 0.1432 0.76731 0.0
C3557 C 0.74527 0.16264 0.75848 0.0
C3558 C 0.72302 0.16275 0.7493 0.0
C3559 C 0.72242 0.18658 0.74293 0.0
C3560 C 0.71634 0.1853 0.71569 0.0
C3561 C 0.70547 0.19671 0.75669 0.0
C3562 C 0.74747 0.20023 0.75144 0.0
C3563 C 0.76047 0.18602 0.76005 0.0
C3564 C 0.78319 0.19523 0.77179 0.0
C3565 C 0.79274 0.21961 0.77507 0.0
C3566 C 0.77962 0.23424 0.7664 0.0
C3567 C 0.75698 0.2245 0.75407 0.0
loop_
_geom_bond_atom_site_label_1
_geom_bond_atom_site_label_2
_geom_bond_distance
_geom_bond_site_symmetry_2
_ccdc_geom_bond_type
Co0 O1 2.216 . S
Co0 O2 2.091 . S
Co0 O4 2.004 . S
Co0 O10 2.021 . S
Co0 O12 2.137 . S
Co0 O13 2.244 . S
O1 Co0 2.216 . S
O1 C8 1.247 . S
O2 Co0 2.091 . S
O2 C8 1.261 . S
C3 O12 1.247 . S
C3 O13 1.272 . S
O4 Co0 2.004 . S
O4 C9 1.259 1_455 S
Co5 O6 2.061 1_455 S
Co5 O11 2.052 . S
Co5 O13 2.135 . S
O6 Co5 2.061 1_655 S
O6 C9 1.235 . S
C7 O10 1.238 . S
C7 O11 1.241 . S
C8 O1 1.247 . S
C8 O2 1.261 . S
C9 O4 1.259 1_655 S
C9 O6 1.235 . S
O10 Co0 2.021 . S
O10 C7 1.238 . S
O11 Co5 2.052 . S
O11 C7 1.241 . S
O12 Co0 2.137 . S
O12 C3 1.247 . S
O13 Co0 2.244 . S
O13 C3 1.272 . S
O13 Co5 2.135 . S
Co14 O15 2.216 1_455 S
Co14 O16 2.116 . S
Co14 O18 2.004 . S
Co14 O24 2.021 . S
Co14 O26 2.137 . S
Co14 O27 2.244 . S
O15 Co14 2.216 1_655 S
O15 C22 1.247 . S
O16 Co14 2.116 . S
O16 C22 1.234 1_455 S
C17 O26 1.247 . S
C17 O27 1.272 . S
O18 Co14 2.004 . S
O18 C23 1.259 . S
Co19 O20 2.061 . S
Co19 O25 2.052 . S
Co19 O27 2.135 . S
O20 Co19 2.061 . S
O20 C23 1.235 . S
C21 O24 1.238 . S
C21 O25 1.241 . S
C22 O15 1.247 . S
C22 O16 1.234 1_655 S
C23 O18 1.259 . S
C23 O20 1.235 . S
O24 Co14 2.021 . S
O24 C21 1.238 . S
O25 Co19 2.052 . S
O25 C21 1.241 . S
O26 Co14 2.137 . S
O26 C17 1.247 . S
O27 Co14 2.244 . S
O27 C17 1.272 . S
O27 Co19 2.135 . S
Co28 O29 2.216 . S
Co28 O30 2.091 . S
Co28 O32 2.004 . S
Co28 O38 2.021 . S
Co28 O40 2.137 . S
Co28 O41 2.244 . S
O29 Co28 2.216 . S
O29 C36 1.247 . S
O30 Co28 2.091 . S
O30 C36 1.261 . S
C31 O40 1.247 . S
C31 O41 1.272 . S
O32 Co28 2.004 . S
O32 C37 1.259 . S
Co33 O34 2.061 . S
Co33 O39 2.052 . S
Co33 O41 2.135 . S
O34 Co33 2.061 . S
O34 C37 1.235 . S
C35 O38 1.238 . S
C35 O39 1.241 . S
C36 O29 1.247 . S
C36 O30 1.261 . S
C37 O32 1.259 . S
C37 O34 1.235 . S
O38 Co28 2.021 . S
O38 C35 1.238 . S
O39 Co33 2.052 . S
O39 C35 1.241 . S
O40 Co28 2.137 . S
O40 C31 1.247 . S
O41 Co28 2.244 . S
O41 C31 1.272 . S
O41 Co33 2.135 . S
Co42 O43 2.216 . S
Co42 O44 2.091 . S
Co42 O46 2.004 . S
Co42 O52 2.021 . S
Co42 O54 2.137 . S
Co42 O55 2.244 . S
O43 Co42 2.216 . S
O43 C50 1.247 . S
O44 Co42 2.091 . S
O44 C50 1.261 . S
C45 O54 1.247 . S
C45 O55 1.272 . S
O46 Co42 2.004 . S
O46 C51 1.259 . S
Co47 O48 2.061 . S
Co47 O53 2.052 . S
Co47 O55 2.135 . S
O48 Co47 2.061 . S
O48 C51 1.235 . S
C49 O52 1.238 . S
C49 O53 1.241 . S
C50 O43 1.247 . S
C50 O44 1.261 . S
C51 O46 1.259 . S
C51 O48 1.235 . S
O52 Co42 2.021 . S
O52 C49 1.238 . S
O53 Co47 2.052 . S
O53 C49 1.241 . S
O54 Co42 2.137 . S
O54 C45 1.247 . S
O55 Co42 2.244 . S
O55 C45 1.272 . S
O55 Co47 2.135 . S
Co56 O57 2.216 . S
Co56 O58 2.091 . S
Co56 O60 2.004 . S
Co56 O66 2.021 . S
Co56 O68 2.137 . S
Co56 O69 2.244 . S
O57 Co56 2.216 . S
O57 C64 1.247 . S
O58 Co56 2.091 . S
O58 C64 1.261 . S
C59 O68 1.247 . S
C59 O69 1.272 . S
O60 Co56 2.004 . S
O60 C65 1.259 . S
Co61 O62 2.061 . S
Co61 O67 2.052 . S
Co61 O69 2.135 . S
O62 Co61 2.061 . S
O62 C65 1.235 . S
C63 O66 1.238 . S
C63 O67 1.241 . S
C64 O57 1.247 . S
C64 O58 1.261 . S
C65 O60 1.259 . S
C65 O62 1.235 . S
O66 Co56 2.021 . S
O66 C63 1.238 . S
O67 Co61 2.052 . S
O67 C63 1.241 . S
O68 Co56 2.137 . S
O68 C59 1.247 . S
O69 Co56 2.244 . S
O69 C59 1.272 . S
O69 Co61 2.135 . S
Co70 O71 2.216 . S
Co70 O72 2.091 . S
Co70 O74 2.004 . S
Co70 O80 2.021 . S
Co70 O82 2.137 . S
Co70 O83 2.244 . S
O71 Co70 2.216 . S
O71 C78 1.247 . S
O72 Co70 2.091 . S
O72 C78 1.261 . S
C73 O82 1.247 . S
C73 O83 1.272 . S
O74 Co70 2.004 . S
O74 C79 1.259 . S
Co75 O76 2.061 . S
Co75 O81 2.052 . S
Co75 O83 2.135 . S
O76 Co75 2.061 . S
O76 C79 1.235 . S
C77 O80 1.238 . S
C77 O81 1.241 . S
C78 O71 1.247 . S
C78 O72 1.261 . S
C79 O74 1.259 . S
C79 O76 1.235 . S
O80 Co70 2.021 . S
O80 C77 1.238 . S
O81 Co75 2.052 . S
O81 C77 1.241 . S
O82 Co70 2.137 . S
O82 C73 1.247 . S
O83 Co70 2.244 . S
O83 C73 1.272 . S
O83 Co75 2.135 . S
Co84 O85 2.216 . S
Co84 O86 2.091 . S
Co84 O88 2.004 . S
Co84 O94 2.021 . S
Co84 O96 2.137 . S
Co84 O97 2.244 . S
O85 Co84 2.216 . S
O85 C92 1.247 . S
O86 Co84 2.091 . S
O86 C92 1.261 . S
C87 O96 1.247 . S
C87 O97 1.272 . S
O88 Co84 2.004 . S
O88 C93 1.259 . S
Co89 O90 2.061 . S
Co89 O95 2.052 . S
Co89 O97 2.135 . S
O90 Co89 2.061 . S
O90 C93 1.235 . S
C91 O94 1.238 . S
C91 O95 1.241 . S
C92 O85 1.247 . S
C92 O86 1.261 . S
C93 O88 1.259 . S
C93 O90 1.235 . S
O94 Co84 2.021 . S
O94 C91 1.238 . S
O95 Co89 2.052 . S
O95 C91 1.241 . S
O96 Co84 2.137 . S
O96 C87 1.247 . S
O97 Co84 2.244 . S
O97 C87 1.272 . S
O97 Co89 2.135 . S
Co98 O99 2.216 . S
Co98 O100 2.091 . S
Co98 O102 2.004 1_455 S
Co98 O108 2.021 1_455 S
Co98 O110 2.137 . S
Co98 O111 2.234 1_455 S
O99 Co98 2.216 . S
O99 C106 1.247 . S
O100 Co98 2.091 . S
O100 C106 1.261 . S
C101 O110 1.247 . S
C101 O111 1.267 1_455 S
O102 Co98 2.004 1_655 S
O102 C107 1.259 . S
Co103 O104 2.026 1_554 S
Co103 O109 2.053 1_554 S
Co103 O111 2.136 1_554 S
O104 Co103 2.026 1_556 S
O104 C107 1.235 . S
C105 O108 1.238 . S
C105 O109 1.270 . S
C106 O99 1.247 . S
C106 O100 1.261 . S
C107 O102 1.259 . S
C107 O104 1.235 . S
O108 Co98 2.021 1_655 S
O108 C105 1.238 . S
O109 Co103 2.053 1_556 S
O109 C105 1.270 . S
O110 Co98 2.137 . S
O110 C101 1.247 . S
O111 Co98 2.234 1_655 S
O111 C101 1.267 1_655 S
O111 Co103 2.136 1_556 S
Co112 O113 2.216 . S
Co112 O114 2.091 . S
Co112 O116 2.004 1_545 S
Co112 O122 2.021 . S
Co112 O124 2.137 . S
Co112 O125 2.249 . S
O113 Co112 2.216 . S
O113 C120 1.247 . S
O114 Co112 2.091 . S
O114 C120 1.261 . S
C115 O124 1.247 . S
C115 O125 1.275 . S
O116 Co112 2.004 1_565 S
O116 C121 1.259 . S
Co117 O118 2.061 . S
Co117 O123 2.052 . S
Co117 O125 2.125 1_565 S
O118 Co117 2.061 . S
O118 C121 1.235 . S
C119 O122 1.238 1_565 S
C119 O123 1.241 . S
C120 O113 1.247 . S
C120 O114 1.261 . S
C121 O116 1.259 . S
C121 O118 1.235 . S
O122 Co112 2.021 . S
O122 C119 1.238 1_545 S
O123 Co117 2.052 . S
O123 C119 1.241 . S
O124 Co112 2.137 . S
O124 C115 1.247 . S
O125 Co112 2.249 . S
O125 C115 1.275 . S
O125 Co117 2.125 1_545 S
Co126 O127 2.216 . S
Co126 O128 2.091 . S
Co126 O130 2.004 . S
Co126 O136 2.021 . S
Co126 O138 2.137 . S
Co126 O139 2.244 . S
O127 Co126 2.216 . S
O127 C134 1.247 . S
O128 Co126 2.091 . S
O128 C134 1.261 . S
C129 O138 1.247 . S
C129 O139 1.272 . S
O130 Co126 2.004 . S
O130 C135 1.259 . S
Co131 O132 2.061 . S
Co131 O137 2.052 . S
Co131 O139 2.135 . S
O132 Co131 2.061 . S
O132 C135 1.235 . S
C133 O136 1.238 . S
C133 O137 1.241 . S
C134 O127 1.247 . S
C134 O128 1.261 . S
C135 O130 1.259 . S
C135 O132 1.235 . S
O136 Co126 2.021 . S
O136 C133 1.238 . S
O137 Co131 2.052 . S
O137 C133 1.241 . S
O138 Co126 2.137 . S
O138 C129 1.247 . S
O139 Co126 2.244 . S
O139 C129 1.272 . S
O139 Co131 2.135 . S
Co140 O141 2.216 . S
Co140 O142 2.091 . S
Co140 O144 2.004 . S
Co140 O150 2.021 . S
Co140 O152 2.137 . S
Co140 O153 2.244 . S
O141 Co140 2.216 . S
O141 C148 1.247 . S
O142 Co140 2.091 . S
O142 C148 1.261 . S
C143 O152 1.247 . S
C143 O153 1.272 . S
O144 Co140 2.004 . S
O144 C149 1.259 . S
Co145 O146 2.061 . S
Co145 O151 2.052 . S
Co145 O153 2.135 . S
O146 Co145 2.061 . S
O146 C149 1.235 . S
C147 O150 1.238 . S
C147 O151 1.241 . S
C148 O141 1.247 . S
C148 O142 1.261 . S
C149 O144 1.259 . S
C149 O146 1.235 . S
O150 Co140 2.021 . S
O150 C147 1.238 . S
O151 Co145 2.052 . S
O151 C147 1.241 . S
O152 Co140 2.137 . S
O152 C143 1.247 . S
O153 Co140 2.244 . S
O153 C143 1.272 . S
O153 Co145 2.135 . S
Co154 O155 2.216 . S
Co154 O156 2.091 1_556 S
Co154 O158 2.004 . S
Co154 O164 2.021 1_556 S
Co154 O166 2.137 . S
Co154 O167 2.244 . S
O155 Co154 2.216 . S
O155 C162 1.250 . S
O156 Co154 2.091 1_554 S
O156 C162 1.265 1_554 S
C157 O166 1.247 . S
C157 O167 1.272 . S
O158 Co154 2.004 . S
O158 C163 1.258 1_556 S
Co159 O160 2.061 1_556 S
Co159 O165 2.052 1_556 S
Co159 O167 2.135 . S
O160 Co159 2.061 1_554 S
O160 C163 1.235 . S
C161 O164 1.238 . S
C161 O165 1.241 . S
C162 O155 1.250 . S
C162 O156 1.265 1_556 S
C163 O158 1.258 1_554 S
C163 O160 1.235 . S
O164 Co154 2.021 1_554 S
O164 C161 1.238 . S
O165 Co159 2.052 1_554 S
O165 C161 1.241 . S
O166 Co154 2.137 . S
O166 C157 1.247 . S
O167 Co154 2.244 . S
O167 C157 1.272 . S
O167 Co159 2.135 . S
Co168 O169 2.216 . S
Co168 O170 2.091 . S
Co168 O172 2.004 . S
Co168 O178 2.021 . S
Co168 O180 2.137 1_554 S
Co168 O181 2.244 . S
O169 Co168 2.216 . S
O169 C176 1.247 . S
O170 Co168 2.091 . S
O170 C176 1.261 . S
C171 O180 1.247 . S
C171 O181 1.272 1_556 S
O172 Co168 2.004 . S
O172 C177 1.259 . S
Co173 O174 2.061 . S
Co173 O179 2.052 . S
Co173 O181 2.135 . S
O174 Co173 2.061 . S
O174 C177 1.235 . S
C175 O178 1.238 . S
C175 O179 1.241 . S
C176 O169 1.247 . S
C176 O170 1.261 . S
C177 O172 1.259 . S
C177 O174 1.235 . S
O178 Co168 2.021 . S
O178 C175 1.238 . S
O179 Co173 2.052 . S
O179 C175 1.241 . S
O180 Co168 2.137 1_556 S
O180 C171 1.247 . S
O181 Co168 2.244 . S
O181 C171 1.272 1_554 S
O181 Co173 2.135 . S
Co182 O183 2.216 . S
Co182 O184 2.091 . S
Co182 O186 2.004 . S
Co182 O192 2.021 . S
Co182 O194 2.137 . S
Co182 O195 2.244 . S
O183 Co182 2.216 . S
O183 C190 1.247 . S
O184 Co182 2.091 . S
O184 C190 1.261 . S
C185 O194 1.247 . S
C185 O195 1.272 . S
O186 Co182 2.004 . S
O186 C191 1.259 . S
Co187 O188 2.061 . S
Co187 O193 2.052 . S
Co187 O195 2.135 . S
O188 Co187 2.061 . S
O188 C191 1.235 . S
C189 O192 1.238 . S
C189 O193 1.241 . S
C190 O183 1.247 . S
C190 O184 1.261 . S
C191 O186 1.259 . S
C191 O188 1.235 . S
O192 Co182 2.021 . S
O192 C189 1.238 . S
O193 Co187 2.052 . S
O193 C189 1.241 . S
O194 Co182 2.137 . S
O194 C185 1.247 . S
O195 Co182 2.244 . S
O195 C185 1.272 . S
O195 Co187 2.135 . S
Co196 O197 2.216 . S
Co196 O198 2.091 . S
Co196 O200 2.004 . S
Co196 O206 2.021 . S
Co196 O208 2.137 . S
Co196 O209 2.244 . S
O197 Co196 2.216 . S
O197 C204 1.247 . S
O198 Co196 2.091 . S
O198 C204 1.261 . S
C199 O208 1.247 . S
C199 O209 1.272 . S
O200 Co196 2.004 . S
O200 C205 1.259 . S
Co201 O202 2.061 . S
Co201 O207 2.052 . S
Co201 O209 2.135 . S
O202 Co201 2.061 . S
O202 C205 1.235 . S
C203 O206 1.238 . S
C203 O207 1.241 . S
C204 O197 1.247 . S
C204 O198 1.261 . S
C205 O200 1.259 . S
C205 O202 1.235 . S
O206 Co196 2.021 . S
O206 C203 1.238 . S
O207 Co201 2.052 . S
O207 C203 1.241 . S
O208 Co196 2.137 . S
O208 C199 1.247 . S
O209 Co196 2.244 . S
O209 C199 1.272 . S
O209 Co201 2.135 . S
Co210 O211 2.216 . S
Co210 O212 2.091 . S
Co210 O214 2.004 . S
Co210 O220 2.021 . S
Co210 O222 2.137 . S
Co210 O223 2.244 . S
O211 Co210 2.216 . S
O211 C218 1.247 . S
O212 Co210 2.091 . S
O212 C218 1.261 . S
C213 O222 1.247 . S
C213 O223 1.272 . S
O214 Co210 2.004 . S
O214 C219 1.259 . S
Co215 O216 2.061 . S
Co215 O221 2.052 . S
Co215 O223 2.135 . S
O216 Co215 2.061 . S
O216 C219 1.235 . S
C217 O220 1.238 . S
C217 O221 1.241 . S
C218 O211 1.247 . S
C218 O212 1.261 . S
C219 O214 1.259 . S
C219 O216 1.235 . S
O220 Co210 2.021 . S
O220 C217 1.238 . S
O221 Co215 2.052 . S
O221 C217 1.241 . S
O222 Co210 2.137 . S
O222 C213 1.247 . S
O223 Co210 2.244 . S
O223 C213 1.272 . S
O223 Co215 2.135 . S
Co224 O225 2.216 . S
Co224 O226 2.091 . S
Co224 O228 1.983 1_545 S
Co224 O234 2.021 . S
Co224 O236 2.137 . S
Co224 O237 2.244 . S
O225 Co224 2.216 . S
O225 C232 1.247 . S
O226 Co224 2.091 . S
O226 C232 1.261 . S
C227 O236 1.247 . S
C227 O237 1.272 . S
O228 Co224 1.983 1_565 S
O228 C233 1.284 . S
Co229 O230 2.061 1_545 S
Co229 O235 2.052 . S
Co229 O237 2.135 . S
O230 Co229 2.061 1_565 S
O230 C233 1.235 . S
C231 O234 1.238 . S
C231 O235 1.241 . S
C232 O225 1.247 . S
C232 O226 1.261 . S
C233 O228 1.284 . S
C233 O230 1.235 . S
O234 Co224 2.021 . S
O234 C231 1.238 . S
O235 Co229 2.052 . S
O235 C231 1.241 . S
O236 Co224 2.137 . S
O236 C227 1.247 . S
O237 Co224 2.244 . S
O237 C227 1.272 . S
O237 Co229 2.135 . S
Co238 O239 2.216 . S
Co238 O240 2.091 . S
Co238 O242 2.004 . S
Co238 O248 2.021 . S
Co238 O250 2.137 . S
Co238 O251 2.244 . S
O239 Co238 2.216 . S
O239 C246 1.247 . S
O240 Co238 2.091 . S
O240 C246 1.261 . S
C241 O250 1.247 . S
C241 O251 1.272 . S
O242 Co238 2.004 . S
O242 C247 1.259 . S
Co243 O244 2.061 . S
Co243 O249 2.052 . S
Co243 O251 2.135 . S
O244 Co243 2.061 . S
O244 C247 1.235 . S
C245 O248 1.238 . S
C245 O249 1.241 . S
C246 O239 1.247 . S
C246 O240 1.261 . S
C247 O242 1.259 . S
C247 O244 1.235 . S
O248 Co238 2.021 . S
O248 C245 1.238 . S
O249 Co243 2.052 . S
O249 C245 1.241 . S
O250 Co238 2.137 . S
O250 C241 1.247 . S
O251 Co238 2.244 . S
O251 C241 1.272 . S
O251 Co243 2.135 . S
Co252 O253 2.216 . S
Co252 O254 2.091 . S
Co252 O256 2.004 . S
Co252 O262 2.021 . S
Co252 O264 2.137 . S
Co252 O265 2.244 . S
O253 Co252 2.216 . S
O253 C260 1.247 . S
O254 Co252 2.091 . S
O254 C260 1.261 . S
C255 O264 1.247 . S
C255 O265 1.272 . S
O256 Co252 2.004 . S
O256 C261 1.259 . S
Co257 O258 2.061 . S
Co257 O263 2.052 . S
Co257 O265 2.135 . S
O258 Co257 2.061 . S
O258 C261 1.235 . S
C259 O262 1.238 . S
C259 O263 1.241 . S
C260 O253 1.247 . S
C260 O254 1.261 . S
C261 O256 1.259 . S
C261 O258 1.235 . S
O262 Co252 2.021 . S
O262 C259 1.238 . S
O263 Co257 2.052 . S
O263 C259 1.241 . S
O264 Co252 2.137 . S
O264 C255 1.247 . S
O265 Co252 2.244 . S
O265 C255 1.272 . S
O265 Co257 2.135 . S
Co266 O267 2.216 . S
Co266 O268 2.091 . S
Co266 O270 2.004 . S
Co266 O276 2.021 . S
Co266 O278 2.137 . S
Co266 O279 2.244 . S
O267 Co266 2.216 . S
O267 C274 1.247 . S
O268 Co266 2.091 . S
O268 C274 1.261 . S
C269 O278 1.247 . S
C269 O279 1.272 . S
O270 Co266 2.004 . S
O270 C275 1.259 . S
Co271 O272 2.061 . S
Co271 O277 2.052 . S
Co271 O279 2.135 . S
O272 Co271 2.061 . S
O272 C275 1.235 . S
C273 O276 1.238 . S
C273 O277 1.241 . S
C274 O267 1.247 . S
C274 O268 1.261 . S
C275 O270 1.259 . S
C275 O272 1.235 . S
O276 Co266 2.021 . S
O276 C273 1.238 . S
O277 Co271 2.052 . S
O277 C273 1.241 . S
O278 Co266 2.137 . S
O278 C269 1.247 . S
O279 Co266 2.244 . S
O279 C269 1.272 . S
O279 Co271 2.135 . S
Co280 O281 2.216 . S
Co280 O282 2.091 . S
Co280 O284 2.004 . S
Co280 O290 2.021 . S
Co280 O292 2.137 1_554 S
Co280 O293 2.244 . S
O281 Co280 2.216 . S
O281 C288 1.247 . S
O282 Co280 2.091 . S
O282 C288 1.261 . S
C283 O292 1.247 . S
C283 O293 1.272 1_556 S
O284 Co280 2.004 . S
O284 C289 1.259 . S
Co285 O286 2.061 . S
Co285 O291 2.052 . S
Co285 O293 2.135 . S
O286 Co285 2.061 . S
O286 C289 1.235 . S
C287 O290 1.238 . S
C287 O291 1.241 . S
C288 O281 1.247 . S
C288 O282 1.261 . S
C289 O284 1.259 . S
C289 O286 1.235 . S
O290 Co280 2.021 . S
O290 C287 1.238 . S
O291 Co285 2.052 . S
O291 C287 1.241 . S
O292 Co280 2.137 1_556 S
O292 C283 1.247 . S
O293 Co280 2.244 . S
O293 C283 1.272 1_554 S
O293 Co285 2.135 . S
Co294 O295 2.216 . S
Co294 O296 2.091 . S
Co294 O298 2.004 . S
Co294 O304 2.021 . S
Co294 O306 2.137 . S
Co294 O307 2.244 . S
O295 Co294 2.216 . S
O295 C302 1.247 . S
O296 Co294 2.091 . S
O296 C302 1.261 . S
C297 O306 1.247 . S
C297 O307 1.272 . S
O298 Co294 2.004 . S
O298 C303 1.259 . S
Co299 O300 2.061 . S
Co299 O305 2.052 . S
Co299 O307 2.135 . S
O300 Co299 2.061 . S
O300 C303 1.235 . S
C301 O304 1.238 . S
C301 O305 1.241 . S
C302 O295 1.247 . S
C302 O296 1.261 . S
C303 O298 1.259 . S
C303 O300 1.235 . S
O304 Co294 2.021 . S
O304 C301 1.238 . S
O305 Co299 2.052 . S
O305 C301 1.241 . S
O306 Co294 2.137 . S
O306 C297 1.247 . S
O307 Co294 2.244 . S
O307 C297 1.272 . S
O307 Co299 2.135 . S
Co308 O309 2.216 . S
Co308 O310 2.091 . S
Co308 O312 2.004 . S
Co308 O318 2.021 . S
Co308 O320 2.137 . S
Co308 O321 2.244 . S
O309 Co308 2.216 . S
O309 C316 1.247 . S
O310 Co308 2.091 . S
O310 C316 1.261 . S
C311 O320 1.247 . S
C311 O321 1.272 . S
O312 Co308 2.004 . S
O312 C317 1.259 . S
Co313 O314 2.061 . S
Co313 O319 2.052 . S
Co313 O321 2.135 . S
O314 Co313 2.061 . S
O314 C317 1.235 . S
C315 O318 1.238 . S
C315 O319 1.241 . S
C316 O309 1.247 . S
C316 O310 1.261 . S
C317 O312 1.259 . S
C317 O314 1.235 . S
O318 Co308 2.021 . S
O318 C315 1.238 . S
O319 Co313 2.052 . S
O319 C315 1.241 . S
O320 Co308 2.137 . S
O320 C311 1.247 . S
O321 Co308 2.244 . S
O321 C311 1.272 . S
O321 Co313 2.135 . S
Co322 O323 2.216 . S
Co322 O324 2.091 . S
Co322 O326 2.004 . S
Co322 O332 2.021 . S
Co322 O334 2.137 . S
Co322 O335 2.244 . S
O323 Co322 2.216 . S
O323 C330 1.247 . S
O324 Co322 2.091 . S
O324 C330 1.261 . S
C325 O334 1.247 . S
C325 O335 1.272 . S
O326 Co322 2.004 . S
O326 C331 1.259 . S
Co327 O328 2.061 . S
Co327 O333 2.052 . S
Co327 O335 2.135 . S
O328 Co327 2.061 . S
O328 C331 1.235 . S
C329 O332 1.238 . S
C329 O333 1.241 . S
C330 O323 1.247 . S
C330 O324 1.261 . S
C331 O326 1.259 . S
C331 O328 1.235 . S
O332 Co322 2.021 . S
O332 C329 1.238 . S
O333 Co327 2.052 . S
O333 C329 1.241 . S
O334 Co322 2.137 . S
O334 C325 1.247 . S
O335 Co322 2.244 . S
O335 C325 1.272 . S
O335 Co327 2.135 . S
Dy336 O339 2.307 . S
Dy336 O341 2.395 . S
Dy336 O342 2.379 . S
Dy336 O344 2.339 . S
Dy336 O346 2.298 . S
Dy336 O350 2.275 . S
Dy336 C358 2.738 . S
Dy337 O340 2.298 1_655 S
Dy337 O343 2.275 1_655 S
Dy337 O345 2.307 1_655 S
Dy337 O347 2.395 . S
Dy337 O348 2.385 . S
Dy337 O351 2.339 1_654 S
Dy337 C367 2.738 . S
C338 O350 1.254 1_556 S
C338 O351 1.257 . S
O339 Dy336 2.307 . S
O339 C349 1.266 . S
O340 Dy337 2.298 1_455 S
O340 C349 1.236 . S
O341 Dy336 2.395 . S
O341 C358 1.255 . S
O342 Dy336 2.379 . S
O342 C358 1.249 . S
O343 Dy337 2.275 1_455 S
O343 C359 1.254 . S
O344 Dy336 2.339 . S
O344 C359 1.257 . S
O345 Dy337 2.307 1_455 S
O345 C360 1.266 1_545 S
O346 Dy336 2.298 . S
O346 C360 1.236 1_545 S
O347 Dy337 2.395 . S
O347 C367 1.255 . S
O348 Dy337 2.385 . S
O348 C367 1.260 . S
C349 O339 1.266 . S
C349 O340 1.236 . S
O350 Dy336 2.275 . S
O350 C338 1.254 1_554 S
O351 Dy337 2.339 1_456 S
O351 C338 1.257 . S
C352 C355 1.344 . S
C352 C356 1.328 . S
C352 C358 1.516 . S
C353 C354 1.304 . S
C353 C357 1.323 . S
C354 C353 1.304 . S
C354 C355 1.371 . S
C354 H368 0.930 1_545 S
C355 C352 1.344 . S
C355 C354 1.371 . S
C355 H369 0.931 . S
C356 C352 1.328 . S
C356 C357 1.433 . S
C356 H370 0.931 . S
C357 C353 1.323 . S
C357 C356 1.433 . S
C357 H371 0.933 . S
C358 Dy336 2.738 . S
C358 O341 1.255 . S
C358 O342 1.249 . S
C358 C352 1.516 . S
C359 O343 1.254 . S
C359 O344 1.257 . S
C360 O345 1.266 1_565 S
C360 O346 1.236 1_565 S
C361 C364 1.344 . S
C361 C365 1.328 1_554 S
C361 C367 1.516 . S
C362 C363 1.304 . S
C362 C366 1.323 1_554 S
C363 C362 1.304 . S
C363 C364 1.371 . S
C363 H372 0.930 . S
C364 C361 1.344 . S
C364 C363 1.371 . S
C364 H373 0.931 . S
C365 C361 1.328 1_556 S
C365 C366 1.433 . S
C365 H374 0.931 . S
C366 C362 1.323 1_556 S
C366 C365 1.433 . S
C366 H375 0.933 . S
C367 Dy337 2.738 . S
C367 O347 1.255 . S
C367 O348 1.260 . S
C367 C361 1.516 . S
H368 C354 0.930 1_565 S
H369 C355 0.931 . S
H370 C356 0.931 . S
H371 C357 0.933 . S
H372 C363 0.930 . S
H373 C364 0.931 . S
H374 C365 0.931 . S
H375 C366 0.933 . S
Dy376 O379 2.307 . S
Dy376 O381 2.395 . S
Dy376 O382 2.379 . S
Dy376 O384 2.339 . S
Dy376 O386 2.298 . S
Dy376 O390 2.275 . S
Dy376 C398 2.738 . S
Dy377 O380 2.298 . S
Dy377 O383 2.275 . S
Dy377 O385 2.307 . S
Dy377 O387 2.395 . S
Dy377 O388 2.379 . S
Dy377 O391 2.339 . S
Dy377 C407 2.738 . S
C378 O390 1.254 . S
C378 O391 1.257 . S
O379 Dy376 2.307 . S
O379 C389 1.266 . S
O380 Dy377 2.298 . S
O380 C389 1.236 . S
O381 Dy376 2.395 . S
O381 C398 1.255 . S
O382 Dy376 2.379 . S
O382 C398 1.249 . S
O383 Dy377 2.275 . S
O383 C399 1.254 . S
O384 Dy376 2.339 . S
O384 C399 1.257 . S
O385 Dy377 2.307 . S
O385 C400 1.266 . S
O386 Dy376 2.298 . S
O386 C400 1.236 . S
O387 Dy377 2.395 . S
O387 C407 1.255 . S
O388 Dy377 2.379 . S
O388 C407 1.249 . S
C389 O379 1.266 . S
C389 O380 1.236 . S
O390 Dy376 2.275 . S
O390 C378 1.254 . S
O391 Dy377 2.339 . S
O391 C378 1.257 . S
C392 C395 1.344 . S
C392 C396 1.328 . S
C392 C398 1.516 . S
C393 C394 1.304 . S
C393 C397 1.323 . S
C394 C393 1.304 . S
C394 C395 1.371 . S
C394 H408 0.930 . S
C395 C392 1.344 . S
C395 C394 1.371 . S
C395 H409 0.931 . S
C396 C392 1.328 . S
C396 C397 1.433 . S
C396 H410 0.931 . S
C397 C393 1.323 . S
C397 C396 1.433 . S
C397 H411 0.933 . S
C398 Dy376 2.738 . S
C398 O381 1.255 . S
C398 O382 1.249 . S
C398 C392 1.516 . S
C399 O383 1.254 . S
C399 O384 1.257 . S
C400 O385 1.266 . S
C400 O386 1.236 . S
C401 C404 1.344 . S
C401 C405 1.328 . S
C401 C407 1.516 . S
C402 C403 1.304 . S
C402 C406 1.323 . S
C403 C402 1.304 . S
C403 C404 1.371 . S
C403 H412 0.930 . S
C404 C401 1.344 . S
C404 C403 1.371 . S
C404 H413 0.931 . S
C405 C401 1.328 . S
C405 C406 1.433 . S
C405 H414 0.931 . S
C406 C402 1.323 . S
C406 C405 1.433 . S
C406 H415 0.933 . S
C407 Dy377 2.738 . S
C407 O387 1.255 . S
C407 O388 1.249 . S
C407 C401 1.516 . S
H408 C394 0.930 . S
H409 C395 0.931 . S
H410 C396 0.931 . S
H411 C397 0.933 . S
H412 C403 0.930 . S
H413 C404 0.931 . S
H414 C405 0.931 . S
H415 C406 0.933 . S
Dy416 O419 2.307 . S
Dy416 O421 2.395 . S
Dy416 O422 2.379 . S
Dy416 O424 2.339 . S
Dy416 O426 2.298 . S
Dy416 O430 2.275 . S
Dy416 C438 2.738 . S
Dy417 O420 2.298 . S
Dy417 O423 2.275 . S
Dy417 O425 2.307 . S
Dy417 O427 2.395 . S
Dy417 O428 2.379 . S
Dy417 O431 2.339 . S
Dy417 C447 2.738 . S
C418 O430 1.254 . S
C418 O431 1.257 . S
O419 Dy416 2.307 . S
O419 C429 1.266 1_545 S
O420 Dy417 2.298 . S
O420 C429 1.236 1_545 S
O421 Dy416 2.395 . S
O421 C438 1.255 . S
O422 Dy416 2.379 . S
O422 C438 1.249 . S
O423 Dy417 2.275 . S
O423 C439 1.254 . S
O424 Dy416 2.339 . S
O424 C439 1.257 . S
O425 Dy417 2.307 . S
O425 C440 1.266 . S
O426 Dy416 2.298 . S
O426 C440 1.236 . S
O427 Dy417 2.395 . S
O427 C447 1.255 . S
O428 Dy417 2.379 . S
O428 C447 1.249 . S
C429 O419 1.266 1_565 S
C429 O420 1.236 1_565 S
O430 Dy416 2.275 . S
O430 C418 1.254 . S
O431 Dy417 2.339 . S
O431 C418 1.257 . S
C432 C435 1.344 . S
C432 C436 1.328 . S
C432 C438 1.516 . S
C433 C434 1.304 . S
C433 C437 1.323 . S
C434 C433 1.304 . S
C434 C435 1.371 . S
C434 H448 0.930 . S
C435 C432 1.344 . S
C435 C434 1.371 . S
C435 H449 0.931 . S
C436 C432 1.328 . S
C436 C437 1.433 . S
C436 H450 0.931 . S
C437 C433 1.323 . S
C437 C436 1.433 . S
C437 H451 0.933 . S
C438 Dy416 2.738 . S
C438 O421 1.255 . S
C438 O422 1.249 . S
C438 C432 1.516 . S
C439 O423 1.254 . S
C439 O424 1.257 . S
C440 O425 1.266 . S
C440 O426 1.236 . S
C441 C444 1.344 1_545 S
C441 C445 1.328 . S
C441 C447 1.516 . S
C442 C443 1.304 . S
C442 C446 1.323 . S
C443 C442 1.304 . S
C443 C444 1.371 . S
C443 H452 0.930 . S
C444 C441 1.344 1_565 S
C444 C443 1.371 . S
C444 H453 0.931 . S
C445 C441 1.328 . S
C445 C446 1.433 1_545 S
C445 H454 0.931 . S
C446 C442 1.323 . S
C446 C445 1.433 1_565 S
C446 H455 0.933 . S
C447 Dy417 2.738 . S
C447 O427 1.255 . S
C447 O428 1.249 . S
C447 C441 1.516 . S
H448 C434 0.930 . S
H449 C435 0.931 . S
H450 C436 0.931 . S
H451 C437 0.933 . S
H452 C443 0.930 . S
H453 C444 0.931 . S
H454 C445 0.931 . S
H455 C446 0.933 . S
Dy456 O459 2.307 . S
Dy456 O461 2.395 . S
Dy456 O462 2.379 . S
Dy456 O464 2.339 . S
Dy456 O466 2.298 . S
Dy456 O470 2.275 . S
Dy456 C478 2.738 . S
Dy457 O460 2.298 . S
Dy457 O463 2.275 . S
Dy457 O465 2.307 . S
Dy457 O467 2.395 . S
Dy457 O468 2.379 . S
Dy457 O471 2.339 . S
Dy457 C487 2.738 . S
C458 O470 1.254 . S
C458 O471 1.257 . S
O459 Dy456 2.307 . S
O459 C469 1.266 . S
O460 Dy457 2.298 . S
O460 C469 1.236 . S
O461 Dy456 2.395 . S
O461 C478 1.255 . S
O462 Dy456 2.379 . S
O462 C478 1.249 . S
O463 Dy457 2.275 . S
O463 C479 1.254 . S
O464 Dy456 2.339 . S
O464 C479 1.257 . S
O465 Dy457 2.307 . S
O465 C480 1.266 . S
O466 Dy456 2.298 . S
O466 C480 1.236 . S
O467 Dy457 2.395 . S
O467 C487 1.255 . S
O468 Dy457 2.379 . S
O468 C487 1.249 . S
C469 O459 1.266 . S
C469 O460 1.236 . S
O470 Dy456 2.275 . S
O470 C458 1.254 . S
O471 Dy457 2.339 . S
O471 C458 1.257 . S
C472 C475 1.344 . S
C472 C476 1.328 . S
C472 C478 1.516 . S
C473 C474 1.304 . S
C473 C477 1.323 . S
C474 C473 1.304 . S
C474 C475 1.371 . S
C474 H488 0.930 . S
C475 C472 1.344 . S
C475 C474 1.371 . S
C475 H489 0.931 . S
C476 C472 1.328 . S
C476 C477 1.433 . S
C476 H490 0.931 . S
C477 C473 1.323 . S
C477 C476 1.433 . S
C477 H491 0.933 . S
C478 Dy456 2.738 . S
C478 O461 1.255 . S
C478 O462 1.249 . S
C478 C472 1.516 . S
C479 O463 1.254 . S
C479 O464 1.257 . S
C480 O465 1.266 . S
C480 O466 1.236 . S
C481 C484 1.344 . S
C481 C485 1.328 . S
C481 C487 1.516 . S
C482 C483 1.304 . S
C482 C486 1.323 . S
C483 C482 1.304 . S
C483 C484 1.371 . S
C483 H492 0.930 . S
C484 C481 1.344 . S
C484 C483 1.371 . S
C484 H493 0.931 . S
C485 C481 1.328 . S
C485 C486 1.433 . S
C485 H494 0.931 . S
C486 C482 1.323 . S
C486 C485 1.433 . S
C486 H495 0.933 . S
C487 Dy457 2.738 . S
C487 O467 1.255 . S
C487 O468 1.249 . S
C487 C481 1.516 . S
H488 C474 0.930 . S
H489 C475 0.931 . S
H490 C476 0.931 . S
H491 C477 0.933 . S
H492 C483 0.930 . S
H493 C484 0.931 . S
H494 C485 0.931 . S
H495 C486 0.933 . S
Dy496 O499 2.307 . S
Dy496 O501 2.395 1_545 S
Dy496 O502 2.379 1_545 S
Dy496 O504 2.339 . S
Dy496 O506 2.298 . S
Dy496 O510 2.275 . S
Dy496 C518 2.738 1_545 S
Dy497 O500 2.298 . S
Dy497 O503 2.275 . S
Dy497 O505 2.307 . S
Dy497 O507 2.395 . S
Dy497 O508 2.386 . S
Dy497 O511 2.339 1_455 S
Dy497 C527 2.738 . S
C498 O510 1.254 1_655 S
C498 O511 1.257 . S
O499 Dy496 2.307 . S
O499 C509 1.266 . S
O500 Dy497 2.298 . S
O500 C509 1.236 . S
O501 Dy496 2.395 1_565 S
O501 C518 1.255 . S
O502 Dy496 2.379 1_565 S
O502 C518 1.249 . S
O503 Dy497 2.275 . S
O503 C519 1.254 . S
O504 Dy496 2.339 . S
O504 C519 1.257 . S
O505 Dy497 2.307 . S
O505 C520 1.266 . S
O506 Dy496 2.298 . S
O506 C520 1.236 . S
O507 Dy497 2.395 . S
O507 C527 1.255 . S
O508 Dy497 2.386 . S
O508 C527 1.257 . S
C509 O499 1.266 . S
C509 O500 1.236 . S
O510 Dy496 2.275 . S
O510 C498 1.254 1_455 S
O511 Dy497 2.339 1_655 S
O511 C498 1.257 . S
C512 C515 1.344 . S
C512 C516 1.328 . S
C512 C518 1.516 . S
C513 C514 1.304 . S
C513 C517 1.323 . S
C514 C513 1.304 . S
C514 C515 1.371 . S
C514 H528 0.930 . S
C515 C512 1.344 . S
C515 C514 1.371 . S
C515 H529 0.931 . S
C516 C512 1.328 . S
C516 C517 1.433 . S
C516 H530 0.931 . S
C517 C513 1.323 . S
C517 C516 1.433 . S
C517 H531 0.933 . S
C518 Dy496 2.738 1_565 S
C518 O501 1.255 . S
C518 O502 1.249 . S
C518 C512 1.516 . S
C519 O503 1.254 . S
C519 O504 1.257 . S
C520 O505 1.266 . S
C520 O506 1.236 . S
C521 C524 1.344 . S
C521 C525 1.328 1_455 S
C521 C527 1.516 . S
C522 C523 1.304 . S
C522 C526 1.323 1_455 S
C523 C522 1.304 . S
C523 C524 1.371 . S
C523 H532 0.930 . S
C524 C521 1.344 . S
C524 C523 1.371 . S
C524 H533 0.931 . S
C525 C521 1.328 1_655 S
C525 C526 1.433 . S
C525 H534 0.931 . S
C526 C522 1.323 1_655 S
C526 C525 1.433 . S
C526 H535 0.933 . S
C527 Dy497 2.738 . S
C527 O507 1.255 . S
C527 O508 1.257 . S
C527 C521 1.516 . S
H528 C514 0.930 . S
H529 C515 0.931 . S
H530 C516 0.931 . S
H531 C517 0.933 . S
H532 C523 0.930 . S
H533 C524 0.931 . S
H534 C525 0.931 . S
H535 C526 0.933 . S
Dy536 O539 2.307 . S
Dy536 O541 2.395 . S
Dy536 O542 2.379 . S
Dy536 O544 2.339 . S
Dy536 O546 2.298 . S
Dy536 O550 2.275 . S
Dy536 C558 2.738 . S
Dy537 O540 2.298 . S
Dy537 O543 2.275 . S
Dy537 O545 2.307 . S
Dy537 O547 2.395 . S
Dy537 O548 2.379 . S
Dy537 O551 2.339 . S
Dy537 C567 2.738 . S
C538 O550 1.254 . S
C538 O551 1.257 . S
O539 Dy536 2.307 . S
O539 C549 1.266 . S
O540 Dy537 2.298 . S
O540 C549 1.236 . S
O541 Dy536 2.395 . S
O541 C558 1.255 . S
O542 Dy536 2.379 . S
O542 C558 1.249 . S
O543 Dy537 2.275 . S
O543 C559 1.254 . S
O544 Dy536 2.339 . S
O544 C559 1.257 . S
O545 Dy537 2.307 . S
O545 C560 1.266 . S
O546 Dy536 2.298 . S
O546 C560 1.236 . S
O547 Dy537 2.395 . S
O547 C567 1.255 . S
O548 Dy537 2.379 . S
O548 C567 1.249 . S
C549 O539 1.266 . S
C549 O540 1.236 . S
O550 Dy536 2.275 . S
O550 C538 1.254 . S
O551 Dy537 2.339 . S
O551 C538 1.257 . S
C552 C555 1.344 . S
C552 C556 1.328 . S
C552 C558 1.516 . S
C553 C554 1.304 . S
C553 C557 1.323 . S
C554 C553 1.304 . S
C554 C555 1.371 . S
C554 H568 0.930 . S
C555 C552 1.344 . S
C555 C554 1.371 . S
C555 H569 0.931 . S
C556 C552 1.328 . S
C556 C557 1.433 . S
C556 H570 0.931 . S
C557 C553 1.323 . S
C557 C556 1.433 . S
C557 H571 0.933 . S
C558 Dy536 2.738 . S
C558 O541 1.255 . S
C558 O542 1.249 . S
C558 C552 1.516 . S
C559 O543 1.254 . S
C559 O544 1.257 . S
C560 O545 1.266 . S
C560 O546 1.236 . S
C561 C564 1.344 . S
C561 C565 1.328 . S
C561 C567 1.516 . S
C562 C563 1.304 . S
C562 C566 1.323 . S
C563 C562 1.304 . S
C563 C564 1.371 . S
C563 H572 0.930 . S
C564 C561 1.344 . S
C564 C563 1.371 . S
C564 H573 0.931 . S
C565 C561 1.328 . S
C565 C566 1.433 . S
C565 H574 0.931 . S
C566 C562 1.323 . S
C566 C565 1.433 . S
C566 H575 0.933 . S
C567 Dy537 2.738 . S
C567 O547 1.255 . S
C567 O548 1.249 . S
C567 C561 1.516 . S
H568 C554 0.930 . S
H569 C555 0.931 . S
H570 C556 0.931 . S
H571 C557 0.933 . S
H572 C563 0.930 . S
H573 C564 0.931 . S
H574 C565 0.931 . S
H575 C566 0.933 . S
Dy576 O579 2.307 . S
Dy576 O581 2.395 1_554 S
Dy576 O582 2.379 1_554 S
Dy576 O584 2.339 . S
Dy576 O586 2.298 . S
Dy576 O590 2.275 . S
Dy576 C598 2.738 1_554 S
Dy577 O580 2.298 . S
Dy577 O583 2.275 . S
Dy577 O585 2.307 . S
Dy577 O587 2.395 . S
Dy577 O588 2.379 . S
Dy577 O591 2.339 1_545 S
Dy577 C607 2.738 . S
C578 O590 1.254 . S
C578 O591 1.257 1_545 S
O579 Dy576 2.307 . S
O579 C589 1.266 . S
O580 Dy577 2.298 . S
O580 C589 1.236 . S
O581 Dy576 2.395 1_556 S
O581 C598 1.255 . S
O582 Dy576 2.379 1_556 S
O582 C598 1.249 . S
O583 Dy577 2.275 . S
O583 C599 1.254 . S
O584 Dy576 2.339 . S
O584 C599 1.257 . S
O585 Dy577 2.307 . S
O585 C600 1.266 . S
O586 Dy576 2.298 . S
O586 C600 1.236 . S
O587 Dy577 2.395 . S
O587 C607 1.255 . S
O588 Dy577 2.379 . S
O588 C607 1.249 . S
C589 O579 1.266 . S
C589 O580 1.236 . S
O590 Dy576 2.275 . S
O590 C578 1.254 . S
O591 Dy577 2.339 1_565 S
O591 C578 1.257 1_565 S
C592 C595 1.344 . S
C592 C596 1.328 . S
C592 C598 1.516 . S
C593 C594 1.304 . S
C593 C597 1.323 . S
C594 C593 1.304 . S
C594 C595 1.371 . S
C594 H608 0.930 . S
C595 C592 1.344 . S
C595 C594 1.371 . S
C595 H609 0.931 . S
C596 C592 1.328 . S
C596 C597 1.433 . S
C596 H610 0.931 . S
C597 C593 1.323 . S
C597 C596 1.433 . S
C597 H611 0.933 . S
C598 Dy576 2.738 1_556 S
C598 O581 1.255 . S
C598 O582 1.249 . S
C598 C592 1.516 . S
C599 O583 1.254 . S
C599 O584 1.257 . S
C600 O585 1.266 . S
C600 O586 1.236 . S
C601 C604 1.344 . S
C601 C605 1.328 1_545 S
C601 C607 1.516 . S
C602 C603 1.304 1_565 S
C602 C606 1.323 . S
C603 C602 1.304 1_545 S
C603 C604 1.371 . S
C603 H612 0.930 . S
C604 C601 1.344 . S
C604 C603 1.371 . S
C604 H613 0.931 . S
C605 C601 1.328 1_565 S
C605 C606 1.433 . S
C605 H614 0.931 . S
C606 C602 1.323 . S
C606 C605 1.433 . S
C606 H615 0.933 . S
C607 Dy577 2.738 . S
C607 O587 1.255 . S
C607 O588 1.249 . S
C607 C601 1.516 . S
H608 C594 0.930 . S
H609 C595 0.931 . S
H610 C596 0.931 . S
H611 C597 0.933 . S
H612 C603 0.930 . S
H613 C604 0.931 . S
H614 C605 0.931 . S
H615 C606 0.933 . S
Dy616 O619 2.307 . S
Dy616 O621 2.395 . S
Dy616 O622 2.379 . S
Dy616 O624 2.339 . S
Dy616 O626 2.298 . S
Dy616 O630 2.275 . S
Dy616 C638 2.738 . S
Dy617 O620 2.298 . S
Dy617 O623 2.275 . S
Dy617 O625 2.307 . S
Dy617 O627 2.395 . S
Dy617 O628 2.379 . S
Dy617 O631 2.339 . S
Dy617 C647 2.738 . S
C618 O630 1.254 . S
C618 O631 1.257 . S
O619 Dy616 2.307 . S
O619 C629 1.266 . S
O620 Dy617 2.298 . S
O620 C629 1.236 . S
O621 Dy616 2.395 . S
O621 C638 1.255 . S
O622 Dy616 2.379 . S
O622 C638 1.249 . S
O623 Dy617 2.275 . S
O623 C639 1.254 . S
O624 Dy616 2.339 . S
O624 C639 1.257 . S
O625 Dy617 2.307 . S
O625 C640 1.266 . S
O626 Dy616 2.298 . S
O626 C640 1.236 . S
O627 Dy617 2.395 . S
O627 C647 1.255 . S
O628 Dy617 2.379 . S
O628 C647 1.249 . S
C629 O619 1.266 . S
C629 O620 1.236 . S
O630 Dy616 2.275 . S
O630 C618 1.254 . S
O631 Dy617 2.339 . S
O631 C618 1.257 . S
C632 C635 1.344 . S
C632 C636 1.328 . S
C632 C638 1.516 . S
C633 C634 1.304 . S
C633 C637 1.323 . S
C634 C633 1.304 . S
C634 C635 1.371 . S
C634 H648 0.930 . S
C635 C632 1.344 . S
C635 C634 1.371 . S
C635 H649 0.931 . S
C636 C632 1.328 . S
C636 C637 1.433 . S
C636 H650 0.931 . S
C637 C633 1.323 . S
C637 C636 1.433 . S
C637 H651 0.933 . S
C638 Dy616 2.738 . S
C638 O621 1.255 . S
C638 O622 1.249 . S
C638 C632 1.516 . S
C639 O623 1.254 . S
C639 O624 1.257 . S
C640 O625 1.266 . S
C640 O626 1.236 . S
C641 C644 1.344 . S
C641 C645 1.328 . S
C641 C647 1.516 . S
C642 C643 1.304 . S
C642 C646 1.323 . S
C643 C642 1.304 . S
C643 C644 1.371 . S
C643 H652 0.930 . S
C644 C641 1.344 . S
C644 C643 1.371 . S
C644 H653 0.931 . S
C645 C641 1.328 . S
C645 C646 1.433 . S
C645 H654 0.931 . S
C646 C642 1.323 . S
C646 C645 1.433 . S
C646 H655 0.933 . S
C647 Dy617 2.738 . S
C647 O627 1.255 . S
C647 O628 1.249 . S
C647 C641 1.516 . S
H648 C634 0.930 . S
H649 C635 0.931 . S
H650 C636 0.931 . S
H651 C637 0.933 . S
H652 C643 0.930 . S
H653 C644 0.931 . S
H654 C645 0.931 . S
H655 C646 0.933 . S
Dy656 O659 2.307 1_554 S
Dy656 O661 2.395 . S
Dy656 O662 2.379 . S
Dy656 O664 2.339 . S
Dy656 O666 2.298 . S
Dy656 O670 2.275 . S
Dy656 C678 2.738 . S
Dy657 O660 2.298 1_554 S
Dy657 O663 2.275 . S
Dy657 O665 2.307 . S
Dy657 O667 2.395 . S
Dy657 O668 2.379 . S
Dy657 O671 2.339 . S
Dy657 C687 2.738 . S
C658 O670 1.254 . S
C658 O671 1.257 . S
O659 Dy656 2.307 1_556 S
O659 C669 1.266 . S
O660 Dy657 2.298 1_556 S
O660 C669 1.236 . S
O661 Dy656 2.395 . S
O661 C678 1.255 . S
O662 Dy656 2.379 . S
O662 C678 1.249 . S
O663 Dy657 2.275 . S
O663 C679 1.254 . S
O664 Dy656 2.339 . S
O664 C679 1.257 . S
O665 Dy657 2.307 . S
O665 C680 1.266 . S
O666 Dy656 2.298 . S
O666 C680 1.236 . S
O667 Dy657 2.395 . S
O667 C687 1.255 . S
O668 Dy657 2.379 . S
O668 C687 1.249 . S
C669 O659 1.266 . S
C669 O660 1.236 . S
O670 Dy656 2.275 . S
O670 C658 1.254 . S
O671 Dy657 2.339 . S
O671 C658 1.257 . S
C672 C675 1.344 . S
C672 C676 1.328 . S
C672 C678 1.516 . S
C673 C674 1.304 . S
C673 C677 1.323 . S
C674 C673 1.304 . S
C674 C675 1.371 . S
C674 H688 0.930 . S
C675 C672 1.344 . S
C675 C674 1.371 . S
C675 H689 0.931 . S
C676 C672 1.328 . S
C676 C677 1.433 . S
C676 H690 0.931 . S
C677 C673 1.323 . S
C677 C676 1.433 . S
C677 H691 0.933 . S
C678 Dy656 2.738 . S
C678 O661 1.255 . S
C678 O662 1.249 . S
C678 C672 1.516 . S
C679 O663 1.254 . S
C679 O664 1.257 . S
C680 O665 1.266 . S
C680 O666 1.236 . S
C681 C684 1.344 . S
C681 C685 1.328 . S
C681 C687 1.516 1_556 S
C682 C683 1.304 . S
C682 C686 1.323 . S
C683 C682 1.304 . S
C683 C684 1.371 . S
C683 H692 0.930 . S
C684 C681 1.344 . S
C684 C683 1.371 . S
C684 H693 0.931 . S
C685 C681 1.328 . S
C685 C686 1.433 . S
C685 H694 0.931 1_556 S
C686 C682 1.323 . S
C686 C685 1.433 . S
C686 H695 0.933 . S
C687 Dy657 2.738 . S
C687 O667 1.255 . S
C687 O668 1.249 . S
C687 C681 1.516 1_554 S
H688 C674 0.930 . S
H689 C675 0.931 . S
H690 C676 0.931 . S
H691 C677 0.933 . S
H692 C683 0.930 . S
H693 C684 0.931 . S
H694 C685 0.931 1_554 S
H695 C686 0.933 . S
Dy696 O699 2.307 . S
Dy696 O701 2.395 . S
Dy696 O702 2.379 . S
Dy696 O704 2.339 . S
Dy696 O706 2.298 . S
Dy696 O710 2.275 . S
Dy696 C718 2.738 . S
Dy697 O700 2.298 . S
Dy697 O703 2.275 . S
Dy697 O705 2.307 . S
Dy697 O707 2.395 . S
Dy697 O708 2.379 . S
Dy697 O711 2.339 . S
Dy697 C727 2.738 . S
C698 O710 1.254 . S
C698 O711 1.257 . S
O699 Dy696 2.307 . S
O699 C709 1.266 . S
O700 Dy697 2.298 . S
O700 C709 1.236 . S
O701 Dy696 2.395 . S
O701 C718 1.255 . S
O702 Dy696 2.379 . S
O702 C718 1.249 . S
O703 Dy697 2.275 . S
O703 C719 1.254 . S
O704 Dy696 2.339 . S
O704 C719 1.257 . S
O705 Dy697 2.307 . S
O705 C720 1.266 . S
O706 Dy696 2.298 . S
O706 C720 1.236 . S
O707 Dy697 2.395 . S
O707 C727 1.255 . S
O708 Dy697 2.379 . S
O708 C727 1.249 . S
C709 O699 1.266 . S
C709 O700 1.236 . S
O710 Dy696 2.275 . S
O710 C698 1.254 . S
O711 Dy697 2.339 . S
O711 C698 1.257 . S
C712 C715 1.344 . S
C712 C716 1.328 . S
C712 C718 1.516 . S
C713 C714 1.304 . S
C713 C717 1.323 . S
C714 C713 1.304 . S
C714 C715 1.371 . S
C714 H728 0.930 . S
C715 C712 1.344 . S
C715 C714 1.371 . S
C715 H729 0.931 . S
C716 C712 1.328 . S
C716 C717 1.433 . S
C716 H730 0.931 . S
C717 C713 1.323 . S
C717 C716 1.433 . S
C717 H731 0.933 . S
C718 Dy696 2.738 . S
C718 O701 1.255 . S
C718 O702 1.249 . S
C718 C712 1.516 . S
C719 O703 1.254 . S
C719 O704 1.257 . S
C720 O705 1.266 . S
C720 O706 1.236 . S
C721 C724 1.344 . S
C721 C725 1.328 . S
C721 C727 1.516 . S
C722 C723 1.304 . S
C722 C726 1.323 . S
C723 C722 1.304 . S
C723 C724 1.371 . S
C723 H732 0.930 . S
C724 C721 1.344 . S
C724 C723 1.371 . S
C724 H733 0.931 . S
C725 C721 1.328 . S
C725 C726 1.433 . S
C725 H734 0.931 . S
C726 C722 1.323 . S
C726 C725 1.433 . S
C726 H735 0.933 . S
C727 Dy697 2.738 . S
C727 O707 1.255 . S
C727 O708 1.249 . S
C727 C721 1.516 . S
H728 C714 0.930 . S
H729 C715 0.931 . S
H730 C716 0.931 . S
H731 C717 0.933 . S
H732 C723 0.930 . S
H733 C724 0.931 . S
H734 C725 0.931 . S
H735 C726 0.933 . S
Dy736 O739 2.307 1_455 S
Dy736 O741 2.395 . S
Dy736 O742 2.379 . S
Dy736 O744 2.339 . S
Dy736 O746 2.298 . S
Dy736 O750 2.275 . S
Dy736 C758 2.738 . S
Dy737 O740 2.298 1_455 S
Dy737 O743 2.275 . S
Dy737 O745 2.307 . S
Dy737 O747 2.395 . S
Dy737 O748 2.379 . S
Dy737 O751 2.339 . S
Dy737 C767 2.738 . S
C738 O750 1.254 . S
C738 O751 1.257 . S
O739 Dy736 2.307 1_655 S
O739 C749 1.266 . S
O740 Dy737 2.298 1_655 S
O740 C749 1.236 . S
O741 Dy736 2.395 . S
O741 C758 1.255 . S
O742 Dy736 2.379 . S
O742 C758 1.249 . S
O743 Dy737 2.275 . S
O743 C759 1.254 . S
O744 Dy736 2.339 . S
O744 C759 1.257 . S
O745 Dy737 2.307 . S
O745 C760 1.266 . S
O746 Dy736 2.298 . S
O746 C760 1.236 . S
O747 Dy737 2.395 . S
O747 C767 1.255 . S
O748 Dy737 2.379 . S
O748 C767 1.249 . S
C749 O739 1.266 . S
C749 O740 1.236 . S
O750 Dy736 2.275 . S
O750 C738 1.254 . S
O751 Dy737 2.339 . S
O751 C738 1.257 . S
C752 C755 1.344 . S
C752 C756 1.328 . S
C752 C758 1.516 . S
C753 C754 1.304 . S
C753 C757 1.323 . S
C754 C753 1.304 . S
C754 C755 1.371 . S
C754 H768 0.930 . S
C755 C752 1.344 . S
C755 C754 1.371 . S
C755 H769 0.931 . S
C756 C752 1.328 . S
C756 C757 1.433 . S
C756 H770 0.931 . S
C757 C753 1.323 . S
C757 C756 1.433 . S
C757 H771 0.933 . S
C758 Dy736 2.738 . S
C758 O741 1.255 . S
C758 O742 1.249 . S
C758 C752 1.516 . S
C759 O743 1.254 . S
C759 O744 1.257 . S
C760 O745 1.266 . S
C760 O746 1.236 . S
C761 C764 1.344 . S
C761 C765 1.328 . S
C761 C767 1.516 1_655 S
C762 C763 1.304 . S
C762 C766 1.323 . S
C763 C762 1.304 . S
C763 C764 1.371 . S
C763 H772 0.930 . S
C764 C761 1.344 . S
C764 C763 1.371 . S
C764 H773 0.931 . S
C765 C761 1.328 . S
C765 C766 1.433 . S
C765 H774 0.931 . S
C766 C762 1.323 . S
C766 C765 1.433 . S
C766 H775 0.933 . S
C767 Dy737 2.738 . S
C767 O747 1.255 . S
C767 O748 1.249 . S
C767 C761 1.516 1_455 S
H768 C754 0.930 . S
H769 C755 0.931 . S
H770 C756 0.931 . S
H771 C757 0.933 . S
H772 C763 0.930 . S
H773 C764 0.931 . S
H774 C765 0.931 . S
H775 C766 0.933 . S
Dy776 O779 2.307 . S
Dy776 O781 2.395 . S
Dy776 O782 2.379 . S
Dy776 O784 2.339 . S
Dy776 O786 2.298 . S
Dy776 O790 2.275 . S
Dy776 C798 2.738 . S
Dy777 O780 2.298 . S
Dy777 O783 2.275 . S
Dy777 O785 2.307 . S
Dy777 O787 2.395 . S
Dy777 O788 2.379 . S
Dy777 O791 2.339 . S
Dy777 C807 2.738 . S
C778 O790 1.254 . S
C778 O791 1.257 . S
O779 Dy776 2.307 . S
O779 C789 1.266 . S
O780 Dy777 2.298 . S
O780 C789 1.236 . S
O781 Dy776 2.395 . S
O781 C798 1.255 . S
O782 Dy776 2.379 . S
O782 C798 1.249 . S
O783 Dy777 2.275 . S
O783 C799 1.254 . S
O784 Dy776 2.339 . S
O784 C799 1.257 . S
O785 Dy777 2.307 . S
O785 C800 1.266 . S
O786 Dy776 2.298 . S
O786 C800 1.236 . S
O787 Dy777 2.395 . S
O787 C807 1.255 . S
O788 Dy777 2.379 . S
O788 C807 1.249 . S
C789 O779 1.266 . S
C789 O780 1.236 . S
O790 Dy776 2.275 . S
O790 C778 1.254 . S
O791 Dy777 2.339 . S
O791 C778 1.257 . S
C792 C795 1.344 . S
C792 C796 1.328 . S
C792 C798 1.516 . S
C793 C794 1.304 . S
C793 C797 1.323 . S
C794 C793 1.304 . S
C794 C795 1.371 . S
C794 H808 0.930 . S
C795 C792 1.344 . S
C795 C794 1.371 . S
C795 H809 0.931 . S
C796 C792 1.328 . S
C796 C797 1.433 . S
C796 H810 0.931 . S
C797 C793 1.323 . S
C797 C796 1.433 . S
C797 H811 0.933 . S
C798 Dy776 2.738 . S
C798 O781 1.255 . S
C798 O782 1.249 . S
C798 C792 1.516 . S
C799 O783 1.254 . S
C799 O784 1.257 . S
C800 O785 1.266 . S
C800 O786 1.236 . S
C801 C804 1.344 . S
C801 C805 1.328 . S
C801 C807 1.516 . S
C802 C803 1.304 . S
C802 C806 1.323 . S
C803 C802 1.304 . S
C803 C804 1.371 . S
C803 H812 0.930 . S
C804 C801 1.344 . S
C804 C803 1.371 . S
C804 H813 0.931 . S
C805 C801 1.328 . S
C805 C806 1.433 . S
C805 H814 0.931 . S
C806 C802 1.323 . S
C806 C805 1.433 . S
C806 H815 0.933 . S
C807 Dy777 2.738 . S
C807 O787 1.255 . S
C807 O788 1.249 . S
C807 C801 1.516 . S
H808 C794 0.930 . S
H809 C795 0.931 . S
H810 C796 0.931 . S
H811 C797 0.933 . S
H812 C803 0.930 . S
H813 C804 0.931 . S
H814 C805 0.931 . S
H815 C806 0.933 . S
Dy816 O819 2.307 . S
Dy816 O821 2.395 . S
Dy816 O822 2.379 . S
Dy816 O824 2.339 . S
Dy816 O826 2.298 . S
Dy816 O830 2.275 . S
Dy816 C838 2.738 . S
Dy817 O820 2.298 . S
Dy817 O823 2.275 . S
Dy817 O825 2.307 . S
Dy817 O827 2.395 . S
Dy817 O828 2.379 . S
Dy817 O831 2.339 . S
Dy817 C847 2.738 . S
C818 O830 1.254 . S
C818 O831 1.257 . S
O819 Dy816 2.307 . S
O819 C829 1.266 . S
O820 Dy817 2.298 . S
O820 C829 1.236 . S
O821 Dy816 2.395 . S
O821 C838 1.255 . S
O822 Dy816 2.379 . S
O822 C838 1.249 . S
O823 Dy817 2.275 . S
O823 C839 1.254 . S
O824 Dy816 2.339 . S
O824 C839 1.257 . S
O825 Dy817 2.307 . S
O825 C840 1.266 . S
O826 Dy816 2.298 . S
O826 C840 1.236 . S
O827 Dy817 2.395 . S
O827 C847 1.255 . S
O828 Dy817 2.379 . S
O828 C847 1.249 . S
C829 O819 1.266 . S
C829 O820 1.236 . S
O830 Dy816 2.275 . S
O830 C818 1.254 . S
O831 Dy817 2.339 . S
O831 C818 1.257 . S
C832 C835 1.344 . S
C832 C836 1.328 . S
C832 C838 1.516 . S
C833 C834 1.304 . S
C833 C837 1.323 . S
C834 C833 1.304 . S
C834 C835 1.371 . S
C834 H848 0.930 . S
C835 C832 1.344 . S
C835 C834 1.371 . S
C835 H849 0.931 . S
C836 C832 1.328 . S
C836 C837 1.433 . S
C836 H850 0.931 . S
C837 C833 1.323 . S
C837 C836 1.433 . S
C837 H851 0.933 . S
C838 Dy816 2.738 . S
C838 O821 1.255 . S
C838 O822 1.249 . S
C838 C832 1.516 . S
C839 O823 1.254 . S
C839 O824 1.257 . S
C840 O825 1.266 . S
C840 O826 1.236 . S
C841 C844 1.344 . S
C841 C845 1.328 . S
C841 C847 1.516 . S
C842 C843 1.304 . S
C842 C846 1.323 . S
C843 C842 1.304 . S
C843 C844 1.371 . S
C843 H852 0.930 . S
C844 C841 1.344 . S
C844 C843 1.371 . S
C844 H853 0.931 . S
C845 C841 1.328 . S
C845 C846 1.433 . S
C845 H854 0.931 . S
C846 C842 1.323 . S
C846 C845 1.433 . S
C846 H855 0.933 . S
C847 Dy817 2.738 . S
C847 O827 1.255 . S
C847 O828 1.249 . S
C847 C841 1.516 . S
H848 C834 0.930 . S
H849 C835 0.931 . S
H850 C836 0.931 . S
H851 C837 0.933 . S
H852 C843 0.930 . S
H853 C844 0.931 . S
H854 C845 0.931 . S
H855 C846 0.933 . S
Dy856 O859 2.307 . S
Dy856 O861 2.395 . S
Dy856 O862 2.379 . S
Dy856 O864 2.339 . S
Dy856 O866 2.298 . S
Dy856 O870 2.275 . S
Dy856 C878 2.738 . S
Dy857 O860 2.298 . S
Dy857 O863 2.275 . S
Dy857 O865 2.307 . S
Dy857 O867 2.395 . S
Dy857 O868 2.379 . S
Dy857 O871 2.339 . S
Dy857 C887 2.738 . S
C858 O870 1.254 . S
C858 O871 1.257 . S
O859 Dy856 2.307 . S
O859 C869 1.266 . S
O860 Dy857 2.298 . S
O860 C869 1.236 . S
O861 Dy856 2.395 . S
O861 C878 1.255 . S
O862 Dy856 2.379 . S
O862 C878 1.249 . S
O863 Dy857 2.275 . S
O863 C879 1.254 . S
O864 Dy856 2.339 . S
O864 C879 1.257 . S
O865 Dy857 2.307 . S
O865 C880 1.266 . S
O866 Dy856 2.298 . S
O866 C880 1.236 . S
O867 Dy857 2.395 . S
O867 C887 1.255 . S
O868 Dy857 2.379 . S
O868 C887 1.249 . S
C869 O859 1.266 . S
C869 O860 1.236 . S
O870 Dy856 2.275 . S
O870 C858 1.254 . S
O871 Dy857 2.339 . S
O871 C858 1.257 . S
C872 C875 1.344 . S
C872 C876 1.328 . S
C872 C878 1.516 . S
C873 C874 1.304 . S
C873 C877 1.323 . S
C874 C873 1.304 . S
C874 C875 1.371 . S
C874 H888 0.930 . S
C875 C872 1.344 . S
C875 C874 1.371 . S
C875 H889 0.931 . S
C876 C872 1.328 . S
C876 C877 1.433 . S
C876 H890 0.931 . S
C877 C873 1.323 . S
C877 C876 1.433 . S
C877 H891 0.933 . S
C878 Dy856 2.738 . S
C878 O861 1.255 . S
C878 O862 1.249 . S
C878 C872 1.516 . S
C879 O863 1.254 . S
C879 O864 1.257 . S
C880 O865 1.266 . S
C880 O866 1.236 . S
C881 C884 1.344 . S
C881 C885 1.328 . S
C881 C887 1.516 . S
C882 C883 1.304 . S
C882 C886 1.323 . S
C883 C882 1.304 . S
C883 C884 1.371 . S
C883 H892 0.930 . S
C884 C881 1.344 . S
C884 C883 1.371 . S
C884 H893 0.931 . S
C885 C881 1.328 . S
C885 C886 1.433 . S
C885 H894 0.931 . S
C886 C882 1.323 . S
C886 C885 1.433 . S
C886 H895 0.933 . S
C887 Dy857 2.738 . S
C887 O867 1.255 . S
C887 O868 1.249 . S
C887 C881 1.516 . S
H888 C874 0.930 . S
H889 C875 0.931 . S
H890 C876 0.931 . S
H891 C877 0.933 . S
H892 C883 0.930 . S
H893 C884 0.931 . S
H894 C885 0.931 . S
H895 C886 0.933 . S
Dy896 O899 2.307 . S
Dy896 O901 2.395 . S
Dy896 O902 2.379 . S
Dy896 O904 2.339 . S
Dy896 O906 2.298 . S
Dy896 O910 2.275 . S
Dy896 C918 2.738 . S
Dy897 O900 2.298 . S
Dy897 O903 2.275 . S
Dy897 O905 2.307 . S
Dy897 O907 2.395 . S
Dy897 O908 2.379 . S
Dy897 O911 2.339 . S
Dy897 C927 2.738 . S
C898 O910 1.254 . S
C898 O911 1.257 . S
O899 Dy896 2.307 . S
O899 C909 1.266 . S
O900 Dy897 2.298 . S
O900 C909 1.236 . S
O901 Dy896 2.395 . S
O901 C918 1.255 . S
O902 Dy896 2.379 . S
O902 C918 1.249 . S
O903 Dy897 2.275 . S
O903 C919 1.254 . S
O904 Dy896 2.339 . S
O904 C919 1.257 . S
O905 Dy897 2.307 . S
O905 C920 1.266 . S
O906 Dy896 2.298 . S
O906 C920 1.236 . S
O907 Dy897 2.395 . S
O907 C927 1.255 . S
O908 Dy897 2.379 . S
O908 C927 1.249 . S
C909 O899 1.266 . S
C909 O900 1.236 . S
O910 Dy896 2.275 . S
O910 C898 1.254 . S
O911 Dy897 2.339 . S
O911 C898 1.257 . S
C912 C915 1.344 . S
C912 C916 1.328 . S
C912 C918 1.516 . S
C913 C914 1.304 . S
C913 C917 1.323 . S
C914 C913 1.304 . S
C914 C915 1.371 . S
C914 H928 0.930 . S
C915 C912 1.344 . S
C915 C914 1.371 . S
C915 H929 0.931 . S
C916 C912 1.328 . S
C916 C917 1.433 . S
C916 H930 0.931 . S
C917 C913 1.323 . S
C917 C916 1.433 . S
C917 H931 0.933 . S
C918 Dy896 2.738 . S
C918 O901 1.255 . S
C918 O902 1.249 . S
C918 C912 1.516 . S
C919 O903 1.254 . S
C919 O904 1.257 . S
C920 O905 1.266 . S
C920 O906 1.236 . S
C921 C924 1.344 . S
C921 C925 1.328 . S
C921 C927 1.516 . S
C922 C923 1.304 . S
C922 C926 1.323 . S
C923 C922 1.304 . S
C923 C924 1.371 . S
C923 H932 0.930 . S
C924 C921 1.344 . S
C924 C923 1.371 . S
C924 H933 0.931 . S
C925 C921 1.328 . S
C925 C926 1.433 . S
C925 H934 0.931 . S
C926 C922 1.323 . S
C926 C925 1.433 . S
C926 H935 0.933 . S
C927 Dy897 2.738 . S
C927 O907 1.255 . S
C927 O908 1.249 . S
C927 C921 1.516 . S
H928 C914 0.930 . S
H929 C915 0.931 . S
H930 C916 0.931 . S
H931 C917 0.933 . S
H932 C923 0.930 . S
H933 C924 0.931 . S
H934 C925 0.931 . S
H935 C926 0.933 . S
Dy936 O939 2.314 . S
Dy936 O941 2.383 1_455 S
Dy936 O942 2.368 1_455 S
Dy936 O944 2.346 . S
Dy936 O946 2.302 . S
Dy936 O950 2.281 . S
Dy936 C958 2.726 1_455 S
Dy937 O940 2.298 . S
Dy937 O943 2.275 . S
Dy937 O945 2.307 . S
Dy937 O947 2.395 . S
Dy937 O948 2.379 1_554 S
Dy937 O951 2.339 1_554 S
Dy937 C967 2.738 . S
C938 O950 1.254 1_556 S
C938 O951 1.257 . S
O939 Dy936 2.314 . S
O939 C949 1.266 . S
O940 Dy937 2.298 . S
O940 C949 1.236 . S
O941 Dy936 2.383 1_655 S
O941 C958 1.255 . S
O942 Dy936 2.368 1_655 S
O942 C958 1.249 . S
O943 Dy937 2.275 . S
O943 C959 1.254 . S
O944 Dy936 2.346 . S
O944 C959 1.257 . S
O945 Dy937 2.307 . S
O945 C960 1.266 . S
O946 Dy936 2.302 . S
O946 C960 1.236 . S
O947 Dy937 2.395 . S
O947 C967 1.255 . S
O948 Dy937 2.379 1_556 S
O948 C967 1.249 1_556 S
C949 O939 1.266 . S
C949 O940 1.236 . S
O950 Dy936 2.281 . S
O950 C938 1.254 1_554 S
O951 Dy937 2.339 1_556 S
O951 C938 1.257 . S
C952 C955 1.344 . S
C952 C956 1.328 . S
C952 C958 1.516 . S
C953 C954 1.304 . S
C953 C957 1.323 . S
C954 C953 1.304 . S
C954 C955 1.371 . S
C954 H968 0.930 . S
C955 C952 1.344 . S
C955 C954 1.371 . S
C955 H969 0.931 . S
C956 C952 1.328 . S
C956 C957 1.433 . S
C956 H970 0.931 . S
C957 C953 1.323 . S
C957 C956 1.433 . S
C957 H971 0.933 . S
C958 Dy936 2.726 1_655 S
C958 O941 1.255 . S
C958 O942 1.249 . S
C958 C952 1.516 . S
C959 O943 1.254 . S
C959 O944 1.257 . S
C960 O945 1.266 . S
C960 O946 1.236 . S
C961 C964 1.344 . S
C961 C965 1.328 1_554 S
C961 C967 1.516 . S
C962 C963 1.304 . S
C962 C966 1.323 1_554 S
C963 C962 1.304 . S
C963 C964 1.371 . S
C963 H972 0.930 . S
C964 C961 1.344 . S
C964 C963 1.371 . S
C964 H973 0.931 . S
C965 C961 1.328 1_556 S
C965 C966 1.433 . S
C965 H974 0.931 . S
C966 C962 1.323 1_556 S
C966 C965 1.433 . S
C966 H975 0.933 . S
C967 Dy937 2.738 . S
C967 O947 1.255 . S
C967 O948 1.249 1_554 S
C967 C961 1.516 . S
H968 C954 0.930 . S
H969 C955 0.931 . S
H970 C956 0.931 . S
H971 C957 0.933 . S
H972 C963 0.930 . S
H973 C964 0.931 . S
H974 C965 0.931 . S
H975 C966 0.933 . S
H976 C988 0.943 . S
H977 C990 0.930 . S
H978 C991 0.930 . S
H979 C995 0.959 . S
H980 C995 0.959 . S
H981 C995 0.961 . S
H982 C996 0.960 . S
H983 C996 0.945 1_554 S
H984 C996 0.959 . S
H985 C999 0.929 . S
H986 C1000 0.931 . S
H987 C1002 0.930 1_655 S
C988 H976 0.943 . S
C988 C989 1.376 1_654 S
C988 C993 1.410 . S
C989 C988 1.376 1_456 S
C989 C990 1.376 . S
C990 H977 0.930 . S
C990 C989 1.376 . S
C990 C991 1.388 . S
C991 H978 0.930 . S
C991 C990 1.388 . S
C991 C992 1.390 1_556 S
C992 C991 1.390 1_554 S
C992 C993 1.394 1_455 S
C992 C998 1.465 . S
C993 C988 1.410 . S
C993 C992 1.394 1_655 S
C993 C994 1.516 . S
C994 C993 1.516 . S
C994 C995 1.502 . S
C994 C996 1.561 1_554 S
C994 C997 1.526 1_655 S
C995 H979 0.959 . S
C995 H980 0.959 . S
C995 H981 0.961 . S
C995 C994 1.502 . S
C996 H982 0.960 . S
C996 H983 0.945 1_556 S
C996 H984 0.959 . S
C996 C994 1.561 1_556 S
C997 C994 1.526 1_455 S
C997 C998 1.396 . S
C997 C1002 1.390 . S
C998 C992 1.465 . S
C998 C997 1.396 . S
C998 C999 1.399 . S
C999 H985 0.929 . S
C999 C998 1.399 . S
C999 C1000 1.385 . S
C1000 H986 0.931 . S
C1000 C999 1.385 . S
C1000 C1001 1.389 . S
C1001 C1000 1.389 . S
C1001 C1002 1.387 . S
C1002 H987 0.930 1_455 S
C1002 C997 1.390 . S
C1002 C1001 1.387 . S
H1003 C1015 0.930 . S
H1004 C1017 0.930 . S
H1005 C1018 0.930 . S
H1006 C1022 0.959 . S
H1007 C1022 0.959 . S
H1008 C1022 0.961 . S
H1009 C1023 0.960 . S
H1010 C1023 0.961 . S
H1011 C1023 0.959 . S
H1012 C1026 0.929 . S
H1013 C1027 0.931 . S
H1014 C1029 0.930 . S
C1015 H1003 0.930 . S
C1015 C1016 1.399 . S
C1015 C1020 1.399 . S
C1016 C1015 1.399 . S
C1016 C1017 1.376 . S
C1017 H1004 0.930 . S
C1017 C1016 1.376 . S
C1017 C1018 1.388 . S
C1018 H1005 0.930 . S
C1018 C1017 1.388 . S
C1018 C1019 1.390 . S
C1019 C1018 1.390 . S
C1019 C1020 1.394 . S
C1019 C1025 1.465 . S
C1020 C1015 1.399 . S
C1020 C1019 1.394 . S
C1020 C1021 1.516 . S
C1021 C1020 1.516 . S
C1021 C1022 1.502 . S
C1021 C1023 1.561 . S
C1021 C1024 1.526 . S
C1022 H1006 0.959 . S
C1022 H1007 0.959 . S
C1022 H1008 0.961 . S
C1022 C1021 1.502 . S
C1023 H1009 0.960 . S
C1023 H1010 0.961 . S
C1023 H1011 0.959 . S
C1023 C1021 1.561 . S
C1024 C1021 1.526 . S
C1024 C1025 1.396 . S
C1024 C1029 1.390 . S
C1025 C1019 1.465 . S
C1025 C1024 1.396 . S
C1025 C1026 1.399 . S
C1026 H1012 0.929 . S
C1026 C1025 1.399 . S
C1026 C1027 1.385 . S
C1027 H1013 0.931 . S
C1027 C1026 1.385 . S
C1027 C1028 1.389 . S
C1028 C1027 1.389 . S
C1028 C1029 1.387 . S
C1029 H1014 0.930 . S
C1029 C1024 1.390 . S
C1029 C1028 1.387 . S
H1030 C1042 0.930 . S
H1031 C1044 0.930 . S
H1032 C1045 0.930 . S
H1033 C1049 0.959 . S
H1034 C1049 0.959 . S
H1035 C1049 0.961 . S
H1036 C1050 0.960 . S
H1037 C1050 0.961 . S
H1038 C1050 0.959 . S
H1039 C1053 0.929 . S
H1040 C1054 0.931 . S
H1041 C1056 0.930 . S
C1042 H1030 0.930 . S
C1042 C1043 1.399 . S
C1042 C1047 1.399 . S
C1043 C1042 1.399 . S
C1043 C1044 1.376 . S
C1044 H1031 0.930 . S
C1044 C1043 1.376 . S
C1044 C1045 1.388 . S
C1045 H1032 0.930 . S
C1045 C1044 1.388 . S
C1045 C1046 1.390 . S
C1046 C1045 1.390 . S
C1046 C1047 1.394 . S
C1046 C1052 1.465 . S
C1047 C1042 1.399 . S
C1047 C1046 1.394 . S
C1047 C1048 1.516 . S
C1048 C1047 1.516 . S
C1048 C1049 1.502 . S
C1048 C1050 1.561 . S
C1048 C1051 1.526 . S
C1049 H1033 0.959 . S
C1049 H1034 0.959 . S
C1049 H1035 0.961 . S
C1049 C1048 1.502 . S
C1050 H1036 0.960 . S
C1050 H1037 0.961 . S
C1050 H1038 0.959 . S
C1050 C1048 1.561 . S
C1051 C1048 1.526 . S
C1051 C1052 1.396 . S
C1051 C1056 1.390 . S
C1052 C1046 1.465 . S
C1052 C1051 1.396 . S
C1052 C1053 1.399 . S
C1053 H1039 0.929 . S
C1053 C1052 1.399 . S
C1053 C1054 1.385 . S
C1054 H1040 0.931 . S
C1054 C1053 1.385 . S
C1054 C1055 1.389 . S
C1055 C1054 1.389 . S
C1055 C1056 1.387 . S
C1056 H1041 0.930 . S
C1056 C1051 1.390 . S
C1056 C1055 1.387 . S
H1057 C1069 0.930 . S
H1058 C1071 0.930 . S
H1059 C1072 0.930 . S
H1060 C1076 0.959 . S
H1061 C1076 0.959 . S
H1062 C1076 0.961 . S
H1063 C1077 0.960 . S
H1064 C1077 0.961 . S
H1065 C1077 0.959 . S
H1066 C1080 0.929 . S
H1067 C1081 0.931 . S
H1068 C1083 0.930 . S
C1069 H1057 0.930 . S
C1069 C1070 1.399 . S
C1069 C1074 1.399 . S
C1070 C1069 1.399 . S
C1070 C1071 1.376 . S
C1071 H1058 0.930 . S
C1071 C1070 1.376 . S
C1071 C1072 1.388 . S
C1072 H1059 0.930 . S
C1072 C1071 1.388 . S
C1072 C1073 1.390 . S
C1073 C1072 1.390 . S
C1073 C1074 1.394 . S
C1073 C1079 1.465 . S
C1074 C1069 1.399 . S
C1074 C1073 1.394 . S
C1074 C1075 1.516 . S
C1075 C1074 1.516 . S
C1075 C1076 1.502 . S
C1075 C1077 1.561 . S
C1075 C1078 1.526 . S
C1076 H1060 0.959 . S
C1076 H1061 0.959 . S
C1076 H1062 0.961 . S
C1076 C1075 1.502 . S
C1077 H1063 0.960 . S
C1077 H1064 0.961 . S
C1077 H1065 0.959 . S
C1077 C1075 1.561 . S
C1078 C1075 1.526 . S
C1078 C1079 1.396 . S
C1078 C1083 1.390 . S
C1079 C1073 1.465 . S
C1079 C1078 1.396 . S
C1079 C1080 1.399 . S
C1080 H1066 0.929 . S
C1080 C1079 1.399 . S
C1080 C1081 1.385 . S
C1081 H1067 0.931 . S
C1081 C1080 1.385 . S
C1081 C1082 1.389 . S
C1082 C1081 1.389 . S
C1082 C1083 1.387 . S
C1083 H1068 0.930 . S
C1083 C1078 1.390 . S
C1083 C1082 1.387 . S
H1084 C1096 0.930 . S
H1085 C1098 0.930 . S
H1086 C1099 0.930 . S
H1087 C1103 0.959 . S
H1088 C1103 0.959 . S
H1089 C1103 0.961 . S
H1090 C1104 0.960 . S
H1091 C1104 0.961 . S
H1092 C1104 0.959 . S
H1093 C1107 0.929 . S
H1094 C1108 0.931 . S
H1095 C1110 0.930 . S
C1096 H1084 0.930 . S
C1096 C1097 1.399 . S
C1096 C1101 1.399 . S
C1097 C1096 1.399 . S
C1097 C1098 1.376 . S
C1098 H1085 0.930 . S
C1098 C1097 1.376 . S
C1098 C1099 1.388 . S
C1099 H1086 0.930 . S
C1099 C1098 1.388 . S
C1099 C1100 1.390 . S
C1100 C1099 1.390 . S
C1100 C1101 1.394 . S
C1100 C1106 1.465 . S
C1101 C1096 1.399 . S
C1101 C1100 1.394 . S
C1101 C1102 1.516 . S
C1102 C1101 1.516 . S
C1102 C1103 1.502 . S
C1102 C1104 1.561 . S
C1102 C1105 1.526 . S
C1103 H1087 0.959 . S
C1103 H1088 0.959 . S
C1103 H1089 0.961 . S
C1103 C1102 1.502 . S
C1104 H1090 0.960 . S
C1104 H1091 0.961 . S
C1104 H1092 0.959 . S
C1104 C1102 1.561 . S
C1105 C1102 1.526 . S
C1105 C1106 1.396 . S
C1105 C1110 1.390 . S
C1106 C1100 1.465 . S
C1106 C1105 1.396 . S
C1106 C1107 1.399 . S
C1107 H1093 0.929 . S
C1107 C1106 1.399 . S
C1107 C1108 1.385 . S
C1108 H1094 0.931 . S
C1108 C1107 1.385 . S
C1108 C1109 1.389 . S
C1109 C1108 1.389 . S
C1109 C1110 1.387 . S
C1110 H1095 0.930 . S
C1110 C1105 1.390 . S
C1110 C1109 1.387 . S
H1111 C1123 0.930 . S
H1112 C1125 0.930 . S
H1113 C1126 0.930 . S
H1114 C1130 0.959 . S
H1115 C1130 0.959 . S
H1116 C1130 0.961 . S
H1117 C1131 0.960 . S
H1118 C1131 0.961 . S
H1119 C1131 0.959 . S
H1120 C1134 0.929 . S
H1121 C1135 0.931 . S
H1122 C1137 0.930 . S
C1123 H1111 0.930 . S
C1123 C1124 1.399 . S
C1123 C1128 1.399 . S
C1124 C1123 1.399 . S
C1124 C1125 1.376 . S
C1125 H1112 0.930 . S
C1125 C1124 1.376 . S
C1125 C1126 1.388 . S
C1126 H1113 0.930 . S
C1126 C1125 1.388 . S
C1126 C1127 1.390 . S
C1127 C1126 1.390 . S
C1127 C1128 1.394 . S
C1127 C1133 1.465 . S
C1128 C1123 1.399 . S
C1128 C1127 1.394 . S
C1128 C1129 1.516 . S
C1129 C1128 1.516 . S
C1129 C1130 1.502 . S
C1129 C1131 1.561 . S
C1129 C1132 1.526 . S
C1130 H1114 0.959 . S
C1130 H1115 0.959 . S
C1130 H1116 0.961 . S
C1130 C1129 1.502 . S
C1131 H1117 0.960 . S
C1131 H1118 0.961 . S
C1131 H1119 0.959 . S
C1131 C1129 1.561 . S
C1132 C1129 1.526 . S
C1132 C1133 1.396 . S
C1132 C1137 1.390 . S
C1133 C1127 1.465 . S
C1133 C1132 1.396 . S
C1133 C1134 1.399 . S
C1134 H1120 0.929 . S
C1134 C1133 1.399 . S
C1134 C1135 1.385 . S
C1135 H1121 0.931 . S
C1135 C1134 1.385 . S
C1135 C1136 1.389 . S
C1136 C1135 1.389 . S
C1136 C1137 1.387 . S
C1137 H1122 0.930 . S
C1137 C1132 1.390 . S
C1137 C1136 1.387 . S
H1138 C1150 0.930 . S
H1139 C1152 0.930 . S
H1140 C1153 0.930 . S
H1141 C1157 0.959 . S
H1142 C1157 0.959 . S
H1143 C1157 0.961 . S
H1144 C1158 0.960 . S
H1145 C1158 0.961 . S
H1146 C1158 0.959 . S
H1147 C1161 0.929 . S
H1148 C1162 0.931 . S
H1149 C1164 0.930 . S
C1150 H1138 0.930 . S
C1150 C1151 1.399 . S
C1150 C1155 1.399 . S
C1151 C1150 1.399 . S
C1151 C1152 1.376 . S
C1152 H1139 0.930 . S
C1152 C1151 1.376 . S
C1152 C1153 1.388 . S
C1153 H1140 0.930 . S
C1153 C1152 1.388 . S
C1153 C1154 1.390 . S
C1154 C1153 1.390 . S
C1154 C1155 1.394 . S
C1154 C1160 1.465 . S
C1155 C1150 1.399 . S
C1155 C1154 1.394 . S
C1155 C1156 1.516 . S
C1156 C1155 1.516 . S
C1156 C1157 1.502 . S
C1156 C1158 1.561 . S
C1156 C1159 1.526 . S
C1157 H1141 0.959 . S
C1157 H1142 0.959 . S
C1157 H1143 0.961 . S
C1157 C1156 1.502 . S
C1158 H1144 0.960 . S
C1158 H1145 0.961 . S
C1158 H1146 0.959 . S
C1158 C1156 1.561 . S
C1159 C1156 1.526 . S
C1159 C1160 1.396 . S
C1159 C1164 1.390 . S
C1160 C1154 1.465 . S
C1160 C1159 1.396 . S
C1160 C1161 1.399 . S
C1161 H1147 0.929 . S
C1161 C1160 1.399 . S
C1161 C1162 1.385 . S
C1162 H1148 0.931 . S
C1162 C1161 1.385 . S
C1162 C1163 1.389 . S
C1163 C1162 1.389 . S
C1163 C1164 1.387 . S
C1164 H1149 0.930 . S
C1164 C1159 1.390 . S
C1164 C1163 1.387 . S
H1165 C1177 0.930 . S
H1166 C1179 0.930 . S
H1167 C1180 0.930 . S
H1168 C1184 0.959 . S
H1169 C1184 0.959 . S
H1170 C1184 0.961 . S
H1171 C1185 0.960 . S
H1172 C1185 0.961 . S
H1173 C1185 0.959 . S
H1174 C1188 0.929 . S
H1175 C1189 0.931 . S
H1176 C1191 0.930 . S
C1177 H1165 0.930 . S
C1177 C1178 1.399 . S
C1177 C1182 1.399 . S
C1178 C1177 1.399 . S
C1178 C1179 1.376 . S
C1179 H1166 0.930 . S
C1179 C1178 1.376 . S
C1179 C1180 1.388 . S
C1180 H1167 0.930 . S
C1180 C1179 1.388 . S
C1180 C1181 1.390 . S
C1181 C1180 1.390 . S
C1181 C1182 1.394 . S
C1181 C1187 1.465 . S
C1182 C1177 1.399 . S
C1182 C1181 1.394 . S
C1182 C1183 1.516 . S
C1183 C1182 1.516 . S
C1183 C1184 1.502 . S
C1183 C1185 1.561 . S
C1183 C1186 1.526 . S
C1184 H1168 0.959 . S
C1184 H1169 0.959 . S
C1184 H1170 0.961 . S
C1184 C1183 1.502 . S
C1185 H1171 0.960 . S
C1185 H1172 0.961 . S
C1185 H1173 0.959 . S
C1185 C1183 1.561 . S
C1186 C1183 1.526 . S
C1186 C1187 1.396 . S
C1186 C1191 1.390 . S
C1187 C1181 1.465 . S
C1187 C1186 1.396 . S
C1187 C1188 1.399 . S
C1188 H1174 0.929 . S
C1188 C1187 1.399 . S
C1188 C1189 1.385 . S
C1189 H1175 0.931 . S
C1189 C1188 1.385 . S
C1189 C1190 1.389 . S
C1190 C1189 1.389 . S
C1190 C1191 1.387 . S
C1191 H1176 0.930 . S
C1191 C1186 1.390 . S
C1191 C1190 1.387 . S
H1192 C1204 0.930 . S
H1193 C1206 0.930 . S
H1194 C1207 0.929 . S
H1195 C1211 0.959 . S
H1196 C1211 0.959 . S
H1197 C1211 0.961 . S
H1198 C1212 0.982 . S
H1199 C1212 0.961 . S
H1200 C1212 0.959 . S
H1201 C1215 0.929 . S
H1202 C1216 0.931 . S
H1203 C1218 0.930 . S
C1204 H1192 0.930 . S
C1204 C1205 1.399 . S
C1204 C1209 1.399 . S
C1205 C1204 1.399 . S
C1205 C1206 1.376 . S
C1206 H1193 0.930 . S
C1206 C1205 1.376 . S
C1206 C1207 1.388 . S
C1207 H1194 0.929 . S
C1207 C1206 1.388 . S
C1207 C1208 1.390 . S
C1208 C1207 1.390 . S
C1208 C1209 1.394 . S
C1208 C1214 1.465 1_655 S
C1209 C1204 1.399 . S
C1209 C1208 1.394 . S
C1209 C1210 1.516 . S
C1210 C1209 1.516 . S
C1210 C1211 1.502 . S
C1210 C1212 1.561 1_655 S
C1210 C1213 1.554 . S
C1211 H1195 0.959 . S
C1211 H1196 0.959 . S
C1211 H1197 0.961 . S
C1211 C1210 1.502 . S
C1212 H1198 0.982 . S
C1212 H1199 0.961 . S
C1212 H1200 0.959 . S
C1212 C1210 1.561 1_455 S
C1213 C1210 1.554 . S
C1213 C1214 1.383 1_655 S
C1213 C1218 1.375 1_655 S
C1214 C1208 1.465 1_455 S
C1214 C1213 1.383 1_455 S
C1214 C1215 1.399 . S
C1215 H1201 0.929 . S
C1215 C1214 1.399 . S
C1215 C1216 1.385 . S
C1216 H1202 0.931 . S
C1216 C1215 1.385 . S
C1216 C1217 1.389 . S
C1217 C1216 1.389 . S
C1217 C1218 1.387 . S
C1218 H1203 0.930 . S
C1218 C1213 1.375 1_455 S
C1218 C1217 1.387 . S
H1219 C1231 0.930 . S
H1220 C1233 0.930 . S
H1221 C1234 0.930 . S
H1222 C1238 0.959 . S
H1223 C1238 0.959 . S
H1224 C1238 0.961 . S
H1225 C1239 0.960 . S
H1226 C1239 0.961 . S
H1227 C1239 0.959 . S
H1228 C1242 0.929 . S
H1229 C1243 0.931 . S
H1230 C1245 0.930 . S
C1231 H1219 0.930 . S
C1231 C1232 1.399 . S
C1231 C1236 1.399 . S
C1232 C1231 1.399 . S
C1232 C1233 1.376 . S
C1233 H1220 0.930 . S
C1233 C1232 1.376 . S
C1233 C1234 1.388 . S
C1234 H1221 0.930 . S
C1234 C1233 1.388 . S
C1234 C1235 1.390 . S
C1235 C1234 1.390 . S
C1235 C1236 1.394 . S
C1235 C1241 1.465 . S
C1236 C1231 1.399 . S
C1236 C1235 1.394 . S
C1236 C1237 1.516 . S
C1237 C1236 1.516 . S
C1237 C1238 1.502 . S
C1237 C1239 1.561 . S
C1237 C1240 1.526 . S
C1238 H1222 0.959 . S
C1238 H1223 0.959 . S
C1238 H1224 0.961 . S
C1238 C1237 1.502 . S
C1239 H1225 0.960 . S
C1239 H1226 0.961 . S
C1239 H1227 0.959 . S
C1239 C1237 1.561 . S
C1240 C1237 1.526 . S
C1240 C1241 1.396 . S
C1240 C1245 1.390 . S
C1241 C1235 1.465 . S
C1241 C1240 1.396 . S
C1241 C1242 1.399 . S
C1242 H1228 0.929 . S
C1242 C1241 1.399 . S
C1242 C1243 1.385 . S
C1243 H1229 0.931 . S
C1243 C1242 1.385 . S
C1243 C1244 1.389 . S
C1244 C1243 1.389 . S
C1244 C1245 1.387 . S
C1245 H1230 0.930 . S
C1245 C1240 1.390 . S
C1245 C1244 1.387 . S
H1246 C1258 0.930 . S
H1247 C1260 0.930 . S
H1248 C1261 0.930 . S
H1249 C1265 0.959 . S
H1250 C1265 0.959 . S
H1251 C1265 0.961 . S
H1252 C1266 0.960 . S
H1253 C1266 0.961 . S
H1254 C1266 0.959 . S
H1255 C1269 0.929 . S
H1256 C1270 0.931 . S
H1257 C1272 0.930 . S
C1258 H1246 0.930 . S
C1258 C1259 1.399 . S
C1258 C1263 1.399 . S
C1259 C1258 1.399 . S
C1259 C1260 1.376 . S
C1260 H1247 0.930 . S
C1260 C1259 1.376 . S
C1260 C1261 1.388 . S
C1261 H1248 0.930 . S
C1261 C1260 1.388 . S
C1261 C1262 1.390 . S
C1262 C1261 1.390 . S
C1262 C1263 1.394 . S
C1262 C1268 1.465 . S
C1263 C1258 1.399 . S
C1263 C1262 1.394 . S
C1263 C1264 1.516 . S
C1264 C1263 1.516 . S
C1264 C1265 1.502 . S
C1264 C1266 1.561 . S
C1264 C1267 1.526 . S
C1265 H1249 0.959 . S
C1265 H1250 0.959 . S
C1265 H1251 0.961 . S
C1265 C1264 1.502 . S
C1266 H1252 0.960 . S
C1266 H1253 0.961 . S
C1266 H1254 0.959 . S
C1266 C1264 1.561 . S
C1267 C1264 1.526 . S
C1267 C1268 1.396 . S
C1267 C1272 1.390 . S
C1268 C1262 1.465 . S
C1268 C1267 1.396 . S
C1268 C1269 1.399 . S
C1269 H1255 0.929 . S
C1269 C1268 1.399 . S
C1269 C1270 1.385 . S
C1270 H1256 0.931 . S
C1270 C1269 1.385 . S
C1270 C1271 1.389 . S
C1271 C1270 1.389 . S
C1271 C1272 1.387 . S
C1272 H1257 0.930 . S
C1272 C1267 1.390 . S
C1272 C1271 1.387 . S
H1273 C1285 0.930 . S
H1274 C1287 0.930 . S
H1275 C1288 0.930 . S
H1276 C1292 0.959 . S
H1277 C1292 0.959 . S
H1278 C1292 0.961 . S
H1279 C1293 0.960 . S
H1280 C1293 0.961 . S
H1281 C1293 0.959 . S
H1282 C1296 0.929 . S
H1283 C1297 0.931 . S
H1284 C1299 0.930 . S
C1285 H1273 0.930 . S
C1285 C1286 1.399 . S
C1285 C1290 1.399 . S
C1286 C1285 1.399 . S
C1286 C1287 1.376 . S
C1287 H1274 0.930 . S
C1287 C1286 1.376 . S
C1287 C1288 1.388 . S
C1288 H1275 0.930 . S
C1288 C1287 1.388 . S
C1288 C1289 1.390 . S
C1289 C1288 1.390 . S
C1289 C1290 1.394 . S
C1289 C1295 1.465 . S
C1290 C1285 1.399 . S
C1290 C1289 1.394 . S
C1290 C1291 1.516 . S
C1291 C1290 1.516 . S
C1291 C1292 1.502 . S
C1291 C1293 1.561 . S
C1291 C1294 1.526 . S
C1292 H1276 0.959 . S
C1292 H1277 0.959 . S
C1292 H1278 0.961 . S
C1292 C1291 1.502 . S
C1293 H1279 0.960 . S
C1293 H1280 0.961 . S
C1293 H1281 0.959 . S
C1293 C1291 1.561 . S
C1294 C1291 1.526 . S
C1294 C1295 1.396 . S
C1294 C1299 1.390 . S
C1295 C1289 1.465 . S
C1295 C1294 1.396 . S
C1295 C1296 1.399 . S
C1296 H1282 0.929 . S
C1296 C1295 1.399 . S
C1296 C1297 1.385 . S
C1297 H1283 0.931 . S
C1297 C1296 1.385 . S
C1297 C1298 1.389 . S
C1298 C1297 1.389 . S
C1298 C1299 1.387 . S
C1299 H1284 0.930 . S
C1299 C1294 1.390 . S
C1299 C1298 1.387 . S
H1300 C1312 0.930 . S
H1301 C1314 0.930 1_565 S
H1302 C1315 0.930 1_565 S
H1303 C1319 0.959 . S
H1304 C1319 0.959 . S
H1305 C1319 0.961 . S
H1306 C1320 0.960 . S
H1307 C1320 0.961 . S
H1308 C1320 0.959 . S
H1309 C1323 0.929 1_565 S
H1310 C1324 0.934 . S
H1311 C1326 0.930 . S
C1312 H1300 0.930 . S
C1312 C1313 1.399 . S
C1312 C1317 1.399 . S
C1313 C1312 1.399 . S
C1313 C1314 1.376 . S
C1314 H1301 0.930 1_545 S
C1314 C1313 1.376 . S
C1314 C1315 1.388 . S
C1315 H1302 0.930 1_545 S
C1315 C1314 1.388 . S
C1315 C1316 1.390 . S
C1316 C1315 1.390 . S
C1316 C1317 1.394 . S
C1316 C1322 1.465 . S
C1317 C1312 1.399 . S
C1317 C1316 1.394 . S
C1317 C1318 1.516 . S
C1318 C1317 1.516 . S
C1318 C1319 1.502 1_655 S
C1318 C1320 1.561 . S
C1318 C1321 1.526 1_655 S
C1319 H1303 0.959 . S
C1319 H1304 0.959 . S
C1319 H1305 0.961 . S
C1319 C1318 1.502 1_455 S
C1320 H1306 0.960 . S
C1320 H1307 0.961 . S
C1320 H1308 0.959 . S
C1320 C1318 1.561 . S
C1321 C1318 1.526 1_455 S
C1321 C1322 1.396 1_455 S
C1321 C1326 1.390 . S
C1322 C1316 1.465 . S
C1322 C1321 1.396 1_655 S
C1322 C1323 1.399 . S
C1323 H1309 0.929 1_545 S
C1323 C1322 1.399 . S
C1323 C1324 1.385 1_655 S
C1324 H1310 0.934 . S
C1324 C1323 1.385 1_455 S
C1324 C1325 1.389 . S
C1325 C1324 1.389 . S
C1325 C1326 1.387 . S
C1326 H1311 0.930 . S
C1326 C1321 1.390 . S
C1326 C1325 1.387 . S
H1327 C1339 0.930 . S
H1328 C1341 0.930 . S
H1329 C1342 0.930 . S
H1330 C1346 0.959 . S
H1331 C1346 0.959 . S
H1332 C1346 0.961 . S
H1333 C1347 0.960 . S
H1334 C1347 0.961 . S
H1335 C1347 0.959 . S
H1336 C1350 0.929 . S
H1337 C1351 0.931 . S
H1338 C1353 0.930 . S
C1339 H1327 0.930 . S
C1339 C1340 1.399 . S
C1339 C1344 1.399 . S
C1340 C1339 1.399 . S
C1340 C1341 1.376 . S
C1341 H1328 0.930 . S
C1341 C1340 1.376 . S
C1341 C1342 1.388 . S
C1342 H1329 0.930 . S
C1342 C1341 1.388 . S
C1342 C1343 1.390 . S
C1343 C1342 1.390 . S
C1343 C1344 1.394 . S
C1343 C1349 1.465 . S
C1344 C1339 1.399 . S
C1344 C1343 1.394 . S
C1344 C1345 1.516 . S
C1345 C1344 1.516 . S
C1345 C1346 1.502 . S
C1345 C1347 1.561 . S
C1345 C1348 1.526 . S
C1346 H1330 0.959 . S
C1346 H1331 0.959 . S
C1346 H1332 0.961 . S
C1346 C1345 1.502 . S
C1347 H1333 0.960 . S
C1347 H1334 0.961 . S
C1347 H1335 0.959 . S
C1347 C1345 1.561 . S
C1348 C1345 1.526 . S
C1348 C1349 1.396 . S
C1348 C1353 1.390 . S
C1349 C1343 1.465 . S
C1349 C1348 1.396 . S
C1349 C1350 1.399 . S
C1350 H1336 0.929 . S
C1350 C1349 1.399 . S
C1350 C1351 1.385 . S
C1351 H1337 0.931 . S
C1351 C1350 1.385 . S
C1351 C1352 1.389 . S
C1352 C1351 1.389 . S
C1352 C1353 1.387 . S
C1353 H1338 0.930 . S
C1353 C1348 1.390 . S
C1353 C1352 1.387 . S
H1354 C1366 0.930 . S
H1355 C1368 0.930 . S
H1356 C1369 0.930 . S
H1357 C1373 0.959 . S
H1358 C1373 0.959 . S
H1359 C1373 0.961 . S
H1360 C1374 0.960 . S
H1361 C1374 0.961 . S
H1362 C1374 0.959 . S
H1363 C1377 0.929 . S
H1364 C1378 0.931 . S
H1365 C1380 0.930 . S
C1366 H1354 0.930 . S
C1366 C1367 1.399 . S
C1366 C1371 1.399 . S
C1367 C1366 1.399 . S
C1367 C1368 1.376 . S
C1368 H1355 0.930 . S
C1368 C1367 1.376 . S
C1368 C1369 1.388 . S
C1369 H1356 0.930 . S
C1369 C1368 1.388 . S
C1369 C1370 1.390 . S
C1370 C1369 1.390 . S
C1370 C1371 1.394 . S
C1370 C1376 1.465 . S
C1371 C1366 1.399 . S
C1371 C1370 1.394 . S
C1371 C1372 1.516 . S
C1372 C1371 1.516 . S
C1372 C1373 1.502 . S
C1372 C1374 1.561 . S
C1372 C1375 1.526 . S
C1373 H1357 0.959 . S
C1373 H1358 0.959 . S
C1373 H1359 0.961 . S
C1373 C1372 1.502 . S
C1374 H1360 0.960 . S
C1374 H1361 0.961 . S
C1374 H1362 0.959 . S
C1374 C1372 1.561 . S
C1375 C1372 1.526 . S
C1375 C1376 1.396 . S
C1375 C1380 1.390 . S
C1376 C1370 1.465 . S
C1376 C1375 1.396 . S
C1376 C1377 1.399 . S
C1377 H1363 0.929 . S
C1377 C1376 1.399 . S
C1377 C1378 1.385 . S
C1378 H1364 0.931 . S
C1378 C1377 1.385 . S
C1378 C1379 1.389 . S
C1379 C1378 1.389 . S
C1379 C1380 1.387 . S
C1380 H1365 0.930 . S
C1380 C1375 1.390 . S
C1380 C1379 1.387 . S
H1381 C1393 0.930 . S
H1382 C1395 0.930 . S
H1383 C1396 0.930 . S
H1384 C1400 0.959 . S
H1385 C1400 0.959 . S
H1386 C1400 0.961 . S
H1387 C1401 0.960 . S
H1388 C1401 0.961 . S
H1389 C1401 0.959 . S
H1390 C1404 0.929 . S
H1391 C1405 0.931 . S
H1392 C1407 0.930 . S
C1393 H1381 0.930 . S
C1393 C1394 1.399 . S
C1393 C1398 1.399 . S
C1394 C1393 1.399 . S
C1394 C1395 1.376 . S
C1395 H1382 0.930 . S
C1395 C1394 1.376 . S
C1395 C1396 1.388 . S
C1396 H1383 0.930 . S
C1396 C1395 1.388 . S
C1396 C1397 1.390 . S
C1397 C1396 1.390 . S
C1397 C1398 1.394 . S
C1397 C1403 1.465 . S
C1398 C1393 1.399 . S
C1398 C1397 1.394 . S
C1398 C1399 1.516 . S
C1399 C1398 1.516 . S
C1399 C1400 1.502 . S
C1399 C1401 1.561 . S
C1399 C1402 1.526 . S
C1400 H1384 0.959 . S
C1400 H1385 0.959 . S
C1400 H1386 0.961 . S
C1400 C1399 1.502 . S
C1401 H1387 0.960 . S
C1401 H1388 0.961 . S
C1401 H1389 0.959 . S
C1401 C1399 1.561 . S
C1402 C1399 1.526 . S
C1402 C1403 1.396 . S
C1402 C1407 1.390 . S
C1403 C1397 1.465 . S
C1403 C1402 1.396 . S
C1403 C1404 1.399 . S
C1404 H1390 0.929 . S
C1404 C1403 1.399 . S
C1404 C1405 1.385 . S
C1405 H1391 0.931 . S
C1405 C1404 1.385 . S
C1405 C1406 1.389 . S
C1406 C1405 1.389 . S
C1406 C1407 1.387 . S
C1407 H1392 0.930 . S
C1407 C1402 1.390 . S
C1407 C1406 1.387 . S
H1408 C1420 0.930 . S
H1409 C1422 0.930 . S
H1410 C1423 0.930 . S
H1411 C1427 0.959 . S
H1412 C1427 0.959 . S
H1413 C1427 0.961 . S
H1414 C1428 0.960 1_565 S
H1415 C1428 0.961 . S
H1416 C1428 0.959 . S
H1417 C1431 0.929 1_556 S
H1418 C1432 0.918 1_545 S
H1419 C1434 0.929 1_545 S
C1420 H1408 0.930 . S
C1420 C1421 1.399 . S
C1420 C1425 1.399 . S
C1421 C1420 1.399 . S
C1421 C1422 1.376 1_554 S
C1422 H1409 0.930 . S
C1422 C1421 1.376 1_556 S
C1422 C1423 1.388 . S
C1423 H1410 0.930 . S
C1423 C1422 1.388 . S
C1423 C1424 1.390 1_556 S
C1424 C1423 1.390 1_554 S
C1424 C1425 1.394 . S
C1424 C1430 1.465 . S
C1425 C1420 1.399 . S
C1425 C1424 1.394 . S
C1425 C1426 1.516 . S
C1426 C1425 1.516 . S
C1426 C1427 1.502 . S
C1426 C1428 1.561 1_565 S
C1426 C1429 1.526 . S
C1427 H1411 0.959 . S
C1427 H1412 0.959 . S
C1427 H1413 0.961 . S
C1427 C1426 1.502 . S
C1428 H1414 0.960 1_545 S
C1428 H1415 0.961 . S
C1428 H1416 0.959 . S
C1428 C1426 1.561 1_545 S
C1429 C1426 1.526 . S
C1429 C1430 1.396 . S
C1429 C1434 1.405 . S
C1430 C1424 1.465 . S
C1430 C1429 1.396 . S
C1430 C1431 1.399 . S
C1431 H1417 0.929 1_554 S
C1431 C1430 1.399 . S
C1431 C1432 1.399 . S
C1432 H1418 0.918 1_565 S
C1432 C1431 1.399 . S
C1432 C1433 1.389 1_565 S
C1433 C1432 1.389 1_545 S
C1433 C1434 1.372 1_545 S
C1434 H1419 0.929 1_565 S
C1434 C1429 1.405 . S
C1434 C1433 1.372 1_565 S
H1435 C1447 0.930 1_556 S
H1436 C1449 0.930 . S
H1437 C1450 0.930 . S
H1438 C1454 0.959 . S
H1439 C1454 0.959 . S
H1440 C1454 0.961 . S
H1441 C1455 0.960 . S
H1442 C1455 0.961 . S
H1443 C1455 0.959 . S
H1444 C1458 0.929 . S
H1445 C1459 0.931 . S
H1446 C1461 0.930 1_556 S
C1447 H1435 0.930 1_554 S
C1447 C1448 1.399 . S
C1447 C1452 1.399 . S
C1448 C1447 1.399 . S
C1448 C1449 1.376 . S
C1449 H1436 0.930 . S
C1449 C1448 1.376 . S
C1449 C1450 1.388 . S
C1450 H1437 0.930 . S
C1450 C1449 1.388 . S
C1450 C1451 1.390 . S
C1451 C1450 1.390 . S
C1451 C1452 1.394 . S
C1451 C1457 1.465 . S
C1452 C1447 1.399 . S
C1452 C1451 1.394 . S
C1452 C1453 1.516 1_554 S
C1453 C1452 1.516 1_556 S
C1453 C1454 1.502 . S
C1453 C1455 1.561 . S
C1453 C1456 1.526 1_556 S
C1454 H1438 0.959 . S
C1454 H1439 0.959 . S
C1454 H1440 0.961 . S
C1454 C1453 1.502 . S
C1455 H1441 0.960 . S
C1455 H1442 0.961 . S
C1455 H1443 0.959 . S
C1455 C1453 1.561 . S
C1456 C1453 1.526 1_554 S
C1456 C1457 1.396 . S
C1456 C1461 1.390 . S
C1457 C1451 1.465 . S
C1457 C1456 1.396 . S
C1457 C1458 1.399 . S
C1458 H1444 0.929 . S
C1458 C1457 1.399 . S
C1458 C1459 1.385 . S
C1459 H1445 0.931 . S
C1459 C1458 1.385 . S
C1459 C1460 1.389 . S
C1460 C1459 1.389 . S
C1460 C1461 1.387 . S
C1461 H1446 0.930 1_554 S
C1461 C1456 1.390 . S
C1461 C1460 1.387 . S
H1462 C1474 0.930 . S
H1463 C1476 0.930 . S
H1464 C1477 0.930 . S
H1465 C1481 0.959 . S
H1466 C1481 0.959 . S
H1467 C1481 0.961 . S
H1468 C1482 0.960 . S
H1469 C1482 0.961 . S
H1470 C1482 0.959 . S
H1471 C1485 0.929 . S
H1472 C1486 0.931 . S
H1473 C1488 0.930 . S
C1474 H1462 0.930 . S
C1474 C1475 1.399 . S
C1474 C1479 1.399 . S
C1475 C1474 1.399 . S
C1475 C1476 1.376 . S
C1476 H1463 0.930 . S
C1476 C1475 1.376 . S
C1476 C1477 1.388 . S
C1477 H1464 0.930 . S
C1477 C1476 1.388 . S
C1477 C1478 1.390 . S
C1478 C1477 1.390 . S
C1478 C1479 1.394 . S
C1478 C1484 1.465 . S
C1479 C1474 1.399 . S
C1479 C1478 1.394 . S
C1479 C1480 1.516 . S
C1480 C1479 1.516 . S
C1480 C1481 1.502 . S
C1480 C1482 1.561 . S
C1480 C1483 1.526 . S
C1481 H1465 0.959 . S
C1481 H1466 0.959 . S
C1481 H1467 0.961 . S
C1481 C1480 1.502 . S
C1482 H1468 0.960 . S
C1482 H1469 0.961 . S
C1482 H1470 0.959 . S
C1482 C1480 1.561 . S
C1483 C1480 1.526 . S
C1483 C1484 1.396 . S
C1483 C1488 1.390 . S
C1484 C1478 1.465 . S
C1484 C1483 1.396 . S
C1484 C1485 1.399 . S
C1485 H1471 0.929 . S
C1485 C1484 1.399 . S
C1485 C1486 1.385 . S
C1486 H1472 0.931 . S
C1486 C1485 1.385 . S
C1486 C1487 1.389 . S
C1487 C1486 1.389 . S
C1487 C1488 1.387 . S
C1488 H1473 0.930 . S
C1488 C1483 1.390 . S
C1488 C1487 1.387 . S
H1489 C1501 0.930 . S
H1490 C1503 0.930 . S
H1491 C1504 0.930 . S
H1492 C1508 0.959 . S
H1493 C1508 0.959 . S
H1494 C1508 0.961 . S
H1495 C1509 0.960 . S
H1496 C1509 0.961 . S
H1497 C1509 0.959 . S
H1498 C1512 0.929 . S
H1499 C1513 0.931 . S
H1500 C1515 0.930 . S
C1501 H1489 0.930 . S
C1501 C1502 1.399 . S
C1501 C1506 1.399 . S
C1502 C1501 1.399 . S
C1502 C1503 1.376 . S
C1503 H1490 0.930 . S
C1503 C1502 1.376 . S
C1503 C1504 1.388 . S
C1504 H1491 0.930 . S
C1504 C1503 1.388 . S
C1504 C1505 1.390 . S
C1505 C1504 1.390 . S
C1505 C1506 1.394 . S
C1505 C1511 1.465 . S
C1506 C1501 1.399 . S
C1506 C1505 1.394 . S
C1506 C1507 1.516 . S
C1507 C1506 1.516 . S
C1507 C1508 1.502 . S
C1507 C1509 1.561 . S
C1507 C1510 1.526 . S
C1508 H1492 0.959 . S
C1508 H1493 0.959 . S
C1508 H1494 0.961 . S
C1508 C1507 1.502 . S
C1509 H1495 0.960 . S
C1509 H1496 0.961 . S
C1509 H1497 0.959 . S
C1509 C1507 1.561 . S
C1510 C1507 1.526 . S
C1510 C1511 1.396 . S
C1510 C1515 1.390 . S
C1511 C1505 1.465 . S
C1511 C1510 1.396 . S
C1511 C1512 1.399 . S
C1512 H1498 0.929 . S
C1512 C1511 1.399 . S
C1512 C1513 1.385 . S
C1513 H1499 0.931 . S
C1513 C1512 1.385 . S
C1513 C1514 1.389 . S
C1514 C1513 1.389 . S
C1514 C1515 1.387 . S
C1515 H1500 0.930 . S
C1515 C1510 1.390 . S
C1515 C1514 1.387 . S
H1516 C1528 0.930 . S
H1517 C1530 0.930 . S
H1518 C1531 0.930 . S
H1519 C1535 0.959 . S
H1520 C1535 0.959 . S
H1521 C1535 0.961 . S
H1522 C1536 0.960 . S
H1523 C1536 0.961 . S
H1524 C1536 0.959 . S
H1525 C1539 0.929 . S
H1526 C1540 0.931 . S
H1527 C1542 0.930 . S
C1528 H1516 0.930 . S
C1528 C1529 1.399 . S
C1528 C1533 1.399 . S
C1529 C1528 1.399 . S
C1529 C1530 1.376 . S
C1530 H1517 0.930 . S
C1530 C1529 1.376 . S
C1530 C1531 1.388 . S
C1531 H1518 0.930 . S
C1531 C1530 1.388 . S
C1531 C1532 1.390 . S
C1532 C1531 1.390 . S
C1532 C1533 1.394 . S
C1532 C1538 1.465 . S
C1533 C1528 1.399 . S
C1533 C1532 1.394 . S
C1533 C1534 1.516 . S
C1534 C1533 1.516 . S
C1534 C1535 1.502 . S
C1534 C1536 1.561 . S
C1534 C1537 1.526 . S
C1535 H1519 0.959 . S
C1535 H1520 0.959 . S
C1535 H1521 0.961 . S
C1535 C1534 1.502 . S
C1536 H1522 0.960 . S
C1536 H1523 0.961 . S
C1536 H1524 0.959 . S
C1536 C1534 1.561 . S
C1537 C1534 1.526 . S
C1537 C1538 1.396 . S
C1537 C1542 1.390 . S
C1538 C1532 1.465 . S
C1538 C1537 1.396 . S
C1538 C1539 1.399 . S
C1539 H1525 0.929 . S
C1539 C1538 1.399 . S
C1539 C1540 1.385 . S
C1540 H1526 0.931 . S
C1540 C1539 1.385 . S
C1540 C1541 1.389 . S
C1541 C1540 1.389 . S
C1541 C1542 1.387 . S
C1542 H1527 0.930 . S
C1542 C1537 1.390 . S
C1542 C1541 1.387 . S
H1543 C1555 0.930 . S
H1544 C1557 0.930 . S
H1545 C1558 0.930 . S
H1546 C1562 0.959 . S
H1547 C1562 0.959 . S
H1548 C1562 0.961 . S
H1549 C1563 0.960 . S
H1550 C1563 0.961 . S
H1551 C1563 0.959 . S
H1552 C1566 0.929 . S
H1553 C1567 0.931 . S
H1554 C1569 0.930 . S
C1555 H1543 0.930 . S
C1555 C1556 1.399 . S
C1555 C1560 1.399 . S
C1556 C1555 1.399 . S
C1556 C1557 1.376 . S
C1557 H1544 0.930 . S
C1557 C1556 1.376 . S
C1557 C1558 1.388 . S
C1558 H1545 0.930 . S
C1558 C1557 1.388 . S
C1558 C1559 1.390 . S
C1559 C1558 1.390 . S
C1559 C1560 1.394 . S
C1559 C1565 1.465 . S
C1560 C1555 1.399 . S
C1560 C1559 1.394 . S
C1560 C1561 1.516 . S
C1561 C1560 1.516 . S
C1561 C1562 1.502 . S
C1561 C1563 1.561 . S
C1561 C1564 1.526 . S
C1562 H1546 0.959 . S
C1562 H1547 0.959 . S
C1562 H1548 0.961 . S
C1562 C1561 1.502 . S
C1563 H1549 0.960 . S
C1563 H1550 0.961 . S
C1563 H1551 0.959 . S
C1563 C1561 1.561 . S
C1564 C1561 1.526 . S
C1564 C1565 1.396 . S
C1564 C1569 1.390 . S
C1565 C1559 1.465 . S
C1565 C1564 1.396 . S
C1565 C1566 1.399 . S
C1566 H1552 0.929 . S
C1566 C1565 1.399 . S
C1566 C1567 1.385 . S
C1567 H1553 0.931 . S
C1567 C1566 1.385 . S
C1567 C1568 1.389 . S
C1568 C1567 1.389 . S
C1568 C1569 1.387 . S
C1569 H1554 0.930 . S
C1569 C1564 1.390 . S
C1569 C1568 1.387 . S
H1570 C1582 0.930 . S
H1571 C1584 0.930 . S
H1572 C1585 0.930 . S
H1573 C1589 0.959 . S
H1574 C1589 0.959 . S
H1575 C1589 0.961 . S
H1576 C1590 0.960 . S
H1577 C1590 0.961 . S
H1578 C1590 0.959 . S
H1579 C1593 0.929 . S
H1580 C1594 0.931 . S
H1581 C1596 0.930 . S
C1582 H1570 0.930 . S
C1582 C1583 1.399 . S
C1582 C1587 1.399 . S
C1583 C1582 1.399 . S
C1583 C1584 1.376 . S
C1584 H1571 0.930 . S
C1584 C1583 1.376 . S
C1584 C1585 1.388 . S
C1585 H1572 0.930 . S
C1585 C1584 1.388 . S
C1585 C1586 1.390 . S
C1586 C1585 1.390 . S
C1586 C1587 1.394 . S
C1586 C1592 1.465 . S
C1587 C1582 1.399 . S
C1587 C1586 1.394 . S
C1587 C1588 1.516 . S
C1588 C1587 1.516 . S
C1588 C1589 1.502 . S
C1588 C1590 1.561 . S
C1588 C1591 1.526 . S
C1589 H1573 0.959 . S
C1589 H1574 0.959 . S
C1589 H1575 0.961 . S
C1589 C1588 1.502 . S
C1590 H1576 0.960 . S
C1590 H1577 0.961 . S
C1590 H1578 0.959 . S
C1590 C1588 1.561 . S
C1591 C1588 1.526 . S
C1591 C1592 1.396 . S
C1591 C1596 1.390 . S
C1592 C1586 1.465 . S
C1592 C1591 1.396 . S
C1592 C1593 1.399 . S
C1593 H1579 0.929 . S
C1593 C1592 1.399 . S
C1593 C1594 1.385 . S
C1594 H1580 0.931 . S
C1594 C1593 1.385 . S
C1594 C1595 1.389 . S
C1595 C1594 1.389 . S
C1595 C1596 1.387 . S
C1596 H1581 0.930 . S
C1596 C1591 1.390 . S
C1596 C1595 1.387 . S
H1597 C1609 0.930 . S
H1598 C1611 0.930 . S
H1599 C1612 0.930 . S
H1600 C1616 0.959 . S
H1601 C1616 0.959 . S
H1602 C1616 0.961 . S
H1603 C1617 0.960 . S
H1604 C1617 0.961 . S
H1605 C1617 0.959 . S
H1606 C1620 0.929 . S
H1607 C1621 0.931 . S
H1608 C1623 0.930 . S
C1609 H1597 0.930 . S
C1609 C1610 1.399 . S
C1609 C1614 1.399 . S
C1610 C1609 1.399 . S
C1610 C1611 1.376 . S
C1611 H1598 0.930 . S
C1611 C1610 1.376 . S
C1611 C1612 1.388 . S
C1612 H1599 0.930 . S
C1612 C1611 1.388 . S
C1612 C1613 1.390 . S
C1613 C1612 1.390 . S
C1613 C1614 1.394 . S
C1613 C1619 1.465 . S
C1614 C1609 1.399 . S
C1614 C1613 1.394 . S
C1614 C1615 1.516 . S
C1615 C1614 1.516 . S
C1615 C1616 1.502 . S
C1615 C1617 1.561 . S
C1615 C1618 1.526 . S
C1616 H1600 0.959 . S
C1616 H1601 0.959 . S
C1616 H1602 0.961 . S
C1616 C1615 1.502 . S
C1617 H1603 0.960 . S
C1617 H1604 0.961 . S
C1617 H1605 0.959 . S
C1617 C1615 1.561 . S
C1618 C1615 1.526 . S
C1618 C1619 1.396 . S
C1618 C1623 1.390 . S
C1619 C1613 1.465 . S
C1619 C1618 1.396 . S
C1619 C1620 1.399 . S
C1620 H1606 0.929 . S
C1620 C1619 1.399 . S
C1620 C1621 1.385 . S
C1621 H1607 0.931 . S
C1621 C1620 1.385 . S
C1621 C1622 1.389 . S
C1622 C1621 1.389 . S
C1622 C1623 1.387 . S
C1623 H1608 0.930 . S
C1623 C1618 1.390 . S
C1623 C1622 1.387 . S
H1624 C1636 0.930 . S
H1625 C1638 0.930 . S
H1626 C1639 0.930 . S
H1627 C1643 0.959 . S
H1628 C1643 0.959 . S
H1629 C1643 0.961 . S
H1630 C1644 0.960 . S
H1631 C1644 0.961 1_556 S
H1632 C1644 0.959 . S
H1633 C1647 0.929 . S
H1634 C1648 0.931 . S
H1635 C1650 0.930 . S
C1636 H1624 0.930 . S
C1636 C1637 1.399 . S
C1636 C1641 1.399 . S
C1637 C1636 1.399 . S
C1637 C1638 1.376 . S
C1638 H1625 0.930 . S
C1638 C1637 1.376 . S
C1638 C1639 1.388 . S
C1639 H1626 0.930 . S
C1639 C1638 1.388 . S
C1639 C1640 1.390 . S
C1640 C1639 1.390 . S
C1640 C1641 1.394 . S
C1640 C1646 1.465 . S
C1641 C1636 1.399 . S
C1641 C1640 1.394 . S
C1641 C1642 1.516 . S
C1642 C1641 1.516 . S
C1642 C1643 1.502 . S
C1642 C1644 1.561 . S
C1642 C1645 1.526 . S
C1643 H1627 0.959 . S
C1643 H1628 0.959 . S
C1643 H1629 0.961 . S
C1643 C1642 1.502 . S
C1644 H1630 0.960 . S
C1644 H1631 0.961 1_554 S
C1644 H1632 0.959 . S
C1644 C1642 1.561 . S
C1645 C1642 1.526 . S
C1645 C1646 1.396 . S
C1645 C1650 1.390 . S
C1646 C1640 1.465 . S
C1646 C1645 1.396 . S
C1646 C1647 1.399 . S
C1647 H1633 0.929 . S
C1647 C1646 1.399 . S
C1647 C1648 1.385 . S
C1648 H1634 0.931 . S
C1648 C1647 1.385 . S
C1648 C1649 1.389 . S
C1649 C1648 1.389 . S
C1649 C1650 1.387 . S
C1650 H1635 0.930 . S
C1650 C1645 1.390 . S
C1650 C1649 1.387 . S
H1651 C1663 0.930 . S
H1652 C1665 0.930 . S
H1653 C1666 0.930 . S
H1654 C1670 0.959 . S
H1655 C1670 0.959 . S
H1656 C1670 0.961 . S
H1657 C1671 0.960 . S
H1658 C1671 0.961 . S
H1659 C1671 0.959 . S
H1660 C1674 0.929 . S
H1661 C1675 0.931 . S
H1662 C1677 0.930 . S
C1663 H1651 0.930 . S
C1663 C1664 1.399 . S
C1663 C1668 1.399 . S
C1664 C1663 1.399 . S
C1664 C1665 1.376 . S
C1665 H1652 0.930 . S
C1665 C1664 1.376 . S
C1665 C1666 1.388 . S
C1666 H1653 0.930 . S
C1666 C1665 1.388 . S
C1666 C1667 1.390 . S
C1667 C1666 1.390 . S
C1667 C1668 1.394 . S
C1667 C1673 1.465 . S
C1668 C1663 1.399 . S
C1668 C1667 1.394 . S
C1668 C1669 1.516 . S
C1669 C1668 1.516 . S
C1669 C1670 1.502 . S
C1669 C1671 1.561 . S
C1669 C1672 1.526 . S
C1670 H1654 0.959 . S
C1670 H1655 0.959 . S
C1670 H1656 0.961 . S
C1670 C1669 1.502 . S
C1671 H1657 0.960 . S
C1671 H1658 0.961 . S
C1671 H1659 0.959 . S
C1671 C1669 1.561 . S
C1672 C1669 1.526 . S
C1672 C1673 1.396 . S
C1672 C1677 1.390 . S
C1673 C1667 1.465 . S
C1673 C1672 1.396 . S
C1673 C1674 1.399 . S
C1674 H1660 0.929 . S
C1674 C1673 1.399 . S
C1674 C1675 1.385 . S
C1675 H1661 0.931 . S
C1675 C1674 1.385 . S
C1675 C1676 1.389 . S
C1676 C1675 1.389 . S
C1676 C1677 1.387 . S
C1677 H1662 0.930 . S
C1677 C1672 1.390 . S
C1677 C1676 1.387 . S
H1678 C1690 0.930 . S
H1679 C1692 0.930 . S
H1680 C1693 0.930 . S
H1681 C1697 0.959 . S
H1682 C1697 0.959 . S
H1683 C1697 0.961 . S
H1684 C1698 0.960 . S
H1685 C1698 0.961 . S
H1686 C1698 0.959 . S
H1687 C1701 0.929 . S
H1688 C1702 0.931 . S
H1689 C1704 0.930 . S
C1690 H1678 0.930 . S
C1690 C1691 1.399 . S
C1690 C1695 1.399 . S
C1691 C1690 1.399 . S
C1691 C1692 1.376 . S
C1692 H1679 0.930 . S
C1692 C1691 1.376 . S
C1692 C1693 1.388 . S
C1693 H1680 0.930 . S
C1693 C1692 1.388 . S
C1693 C1694 1.390 . S
C1694 C1693 1.390 . S
C1694 C1695 1.394 . S
C1694 C1700 1.465 . S
C1695 C1690 1.399 . S
C1695 C1694 1.394 . S
C1695 C1696 1.516 . S
C1696 C1695 1.516 . S
C1696 C1697 1.502 . S
C1696 C1698 1.561 . S
C1696 C1699 1.526 . S
C1697 H1681 0.959 . S
C1697 H1682 0.959 . S
C1697 H1683 0.961 . S
C1697 C1696 1.502 . S
C1698 H1684 0.960 . S
C1698 H1685 0.961 . S
C1698 H1686 0.959 . S
C1698 C1696 1.561 . S
C1699 C1696 1.526 . S
C1699 C1700 1.396 . S
C1699 C1704 1.390 . S
C1700 C1694 1.465 . S
C1700 C1699 1.396 . S
C1700 C1701 1.399 . S
C1701 H1687 0.929 . S
C1701 C1700 1.399 . S
C1701 C1702 1.385 . S
C1702 H1688 0.931 . S
C1702 C1701 1.385 . S
C1702 C1703 1.389 . S
C1703 C1702 1.389 . S
C1703 C1704 1.387 . S
C1704 H1689 0.930 . S
C1704 C1699 1.390 . S
C1704 C1703 1.387 . S
H1705 C1717 0.930 . S
H1706 C1719 0.930 . S
H1707 C1720 0.930 . S
H1708 C1724 0.959 . S
H1709 C1724 0.959 . S
H1710 C1724 0.961 . S
H1711 C1725 0.960 . S
H1712 C1725 0.961 . S
H1713 C1725 0.959 . S
H1714 C1728 0.929 . S
H1715 C1729 0.931 . S
H1716 C1731 0.930 . S
C1717 H1705 0.930 . S
C1717 C1718 1.399 . S
C1717 C1722 1.399 . S
C1718 C1717 1.399 . S
C1718 C1719 1.376 . S
C1719 H1706 0.930 . S
C1719 C1718 1.376 . S
C1719 C1720 1.388 . S
C1720 H1707 0.930 . S
C1720 C1719 1.388 . S
C1720 C1721 1.390 . S
C1721 C1720 1.390 . S
C1721 C1722 1.394 . S
C1721 C1727 1.465 . S
C1722 C1717 1.399 . S
C1722 C1721 1.394 . S
C1722 C1723 1.516 . S
C1723 C1722 1.516 . S
C1723 C1724 1.502 . S
C1723 C1725 1.561 . S
C1723 C1726 1.526 . S
C1724 H1708 0.959 . S
C1724 H1709 0.959 . S
C1724 H1710 0.961 . S
C1724 C1723 1.502 . S
C1725 H1711 0.960 . S
C1725 H1712 0.961 . S
C1725 H1713 0.959 . S
C1725 C1723 1.561 . S
C1726 C1723 1.526 . S
C1726 C1727 1.396 . S
C1726 C1731 1.390 . S
C1727 C1721 1.465 . S
C1727 C1726 1.396 . S
C1727 C1728 1.399 . S
C1728 H1714 0.929 . S
C1728 C1727 1.399 . S
C1728 C1729 1.385 . S
C1729 H1715 0.931 . S
C1729 C1728 1.385 . S
C1729 C1730 1.389 . S
C1730 C1729 1.389 . S
C1730 C1731 1.387 . S
C1731 H1716 0.930 . S
C1731 C1726 1.390 . S
C1731 C1730 1.387 . S
H1732 C1744 0.930 . S
H1733 C1746 0.930 . S
H1734 C1747 0.930 . S
H1735 C1751 0.959 . S
H1736 C1751 0.959 . S
H1737 C1751 0.961 . S
H1738 C1752 0.960 . S
H1739 C1752 0.961 . S
H1740 C1752 0.959 1_655 S
H1741 C1755 0.929 1_655 S
H1742 C1756 0.930 1_655 S
H1743 C1758 0.930 . S
C1744 H1732 0.930 . S
C1744 C1745 1.399 . S
C1744 C1749 1.399 . S
C1745 C1744 1.399 . S
C1745 C1746 1.376 . S
C1746 H1733 0.930 . S
C1746 C1745 1.376 . S
C1746 C1747 1.388 . S
C1747 H1734 0.930 . S
C1747 C1746 1.388 . S
C1747 C1748 1.390 . S
C1748 C1747 1.390 . S
C1748 C1749 1.394 . S
C1748 C1754 1.465 . S
C1749 C1744 1.399 . S
C1749 C1748 1.394 . S
C1749 C1750 1.516 . S
C1750 C1749 1.516 . S
C1750 C1751 1.502 . S
C1750 C1752 1.561 . S
C1750 C1753 1.526 . S
C1751 H1735 0.959 . S
C1751 H1736 0.959 . S
C1751 H1737 0.961 . S
C1751 C1750 1.502 . S
C1752 H1738 0.960 . S
C1752 H1739 0.961 . S
C1752 H1740 0.959 1_455 S
C1752 C1750 1.561 . S
C1753 C1750 1.526 . S
C1753 C1754 1.396 . S
C1753 C1758 1.390 . S
C1754 C1748 1.465 . S
C1754 C1753 1.396 . S
C1754 C1755 1.399 . S
C1755 H1741 0.929 1_455 S
C1755 C1754 1.399 . S
C1755 C1756 1.385 . S
C1756 H1742 0.930 1_455 S
C1756 C1755 1.385 . S
C1756 C1757 1.392 . S
C1757 C1756 1.392 . S
C1757 C1758 1.387 . S
C1758 H1743 0.930 . S
C1758 C1753 1.390 . S
C1758 C1757 1.387 . S
H1759 C1771 0.930 . S
H1760 C1773 0.930 . S
H1761 C1774 0.930 . S
H1762 C1778 0.959 . S
H1763 C1778 0.959 . S
H1764 C1778 0.961 . S
H1765 C1779 0.960 . S
H1766 C1779 0.961 . S
H1767 C1779 0.959 . S
H1768 C1782 0.929 . S
H1769 C1783 0.931 . S
H1770 C1785 0.930 . S
C1771 H1759 0.930 . S
C1771 C1772 1.399 . S
C1771 C1776 1.399 . S
C1772 C1771 1.399 . S
C1772 C1773 1.376 . S
C1773 H1760 0.930 . S
C1773 C1772 1.376 . S
C1773 C1774 1.388 . S
C1774 H1761 0.930 . S
C1774 C1773 1.388 . S
C1774 C1775 1.390 . S
C1775 C1774 1.390 . S
C1775 C1776 1.394 . S
C1775 C1781 1.465 . S
C1776 C1771 1.399 . S
C1776 C1775 1.394 . S
C1776 C1777 1.516 . S
C1777 C1776 1.516 . S
C1777 C1778 1.502 . S
C1777 C1779 1.561 . S
C1777 C1780 1.526 . S
C1778 H1762 0.959 . S
C1778 H1763 0.959 . S
C1778 H1764 0.961 . S
C1778 C1777 1.502 . S
C1779 H1765 0.960 . S
C1779 H1766 0.961 . S
C1779 H1767 0.959 . S
C1779 C1777 1.561 . S
C1780 C1777 1.526 . S
C1780 C1781 1.396 . S
C1780 C1785 1.390 . S
C1781 C1775 1.465 . S
C1781 C1780 1.396 . S
C1781 C1782 1.399 . S
C1782 H1768 0.929 . S
C1782 C1781 1.399 . S
C1782 C1783 1.385 . S
C1783 H1769 0.931 . S
C1783 C1782 1.385 . S
C1783 C1784 1.389 . S
C1784 C1783 1.389 . S
C1784 C1785 1.387 . S
C1785 H1770 0.930 . S
C1785 C1780 1.390 . S
C1785 C1784 1.387 . S
H1786 C1798 0.930 . S
H1787 C1800 0.930 . S
H1788 C1801 0.930 . S
H1789 C1805 0.959 . S
H1790 C1805 0.959 . S
H1791 C1805 0.961 . S
H1792 C1806 0.960 . S
H1793 C1806 0.961 1_554 S
H1794 C1806 0.959 . S
H1795 C1809 0.929 . S
H1796 C1810 0.931 1_545 S
H1797 C1812 0.930 1_554 S
C1798 H1786 0.930 . S
C1798 C1799 1.399 . S
C1798 C1803 1.399 . S
C1799 C1798 1.399 . S
C1799 C1800 1.376 . S
C1800 H1787 0.930 . S
C1800 C1799 1.376 . S
C1800 C1801 1.388 . S
C1801 H1788 0.930 . S
C1801 C1800 1.388 . S
C1801 C1802 1.390 . S
C1802 C1801 1.390 . S
C1802 C1803 1.394 . S
C1802 C1808 1.465 . S
C1803 C1798 1.399 . S
C1803 C1802 1.394 . S
C1803 C1804 1.516 . S
C1804 C1803 1.516 . S
C1804 C1805 1.502 . S
C1804 C1806 1.561 . S
C1804 C1807 1.526 . S
C1805 H1789 0.959 . S
C1805 H1790 0.959 . S
C1805 H1791 0.961 . S
C1805 C1804 1.502 . S
C1806 H1792 0.960 . S
C1806 H1793 0.961 1_556 S
C1806 H1794 0.959 . S
C1806 C1804 1.561 . S
C1807 C1804 1.526 . S
C1807 C1808 1.396 . S
C1807 C1812 1.390 . S
C1808 C1802 1.465 . S
C1808 C1807 1.396 . S
C1808 C1809 1.399 . S
C1809 H1795 0.929 . S
C1809 C1808 1.399 . S
C1809 C1810 1.385 . S
C1810 H1796 0.931 1_565 S
C1810 C1809 1.385 . S
C1810 C1811 1.389 . S
C1811 C1810 1.389 . S
C1811 C1812 1.387 . S
C1812 H1797 0.930 1_556 S
C1812 C1807 1.390 . S
C1812 C1811 1.387 . S
H1813 C1825 0.930 . S
H1814 C1827 0.930 . S
H1815 C1828 0.930 . S
H1816 C1832 0.959 . S
H1817 C1832 0.959 . S
H1818 C1832 0.961 . S
H1819 C1833 0.960 . S
H1820 C1833 0.961 . S
H1821 C1833 0.959 . S
H1822 C1836 0.929 . S
H1823 C1837 0.931 . S
H1824 C1839 0.930 . S
C1825 H1813 0.930 . S
C1825 C1826 1.399 . S
C1825 C1830 1.399 . S
C1826 C1825 1.399 . S
C1826 C1827 1.376 . S
C1827 H1814 0.930 . S
C1827 C1826 1.376 . S
C1827 C1828 1.388 . S
C1828 H1815 0.930 . S
C1828 C1827 1.388 . S
C1828 C1829 1.390 . S
C1829 C1828 1.390 . S
C1829 C1830 1.394 . S
C1829 C1835 1.465 . S
C1830 C1825 1.399 . S
C1830 C1829 1.394 . S
C1830 C1831 1.516 . S
C1831 C1830 1.516 . S
C1831 C1832 1.502 . S
C1831 C1833 1.561 . S
C1831 C1834 1.526 . S
C1832 H1816 0.959 . S
C1832 H1817 0.959 . S
C1832 H1818 0.961 . S
C1832 C1831 1.502 . S
C1833 H1819 0.960 . S
C1833 H1820 0.961 . S
C1833 H1821 0.959 . S
C1833 C1831 1.561 . S
C1834 C1831 1.526 . S
C1834 C1835 1.396 . S
C1834 C1839 1.390 . S
C1835 C1829 1.465 . S
C1835 C1834 1.396 . S
C1835 C1836 1.399 . S
C1836 H1822 0.929 . S
C1836 C1835 1.399 . S
C1836 C1837 1.385 . S
C1837 H1823 0.931 . S
C1837 C1836 1.385 . S
C1837 C1838 1.389 . S
C1838 C1837 1.389 . S
C1838 C1839 1.387 . S
C1839 H1824 0.930 . S
C1839 C1834 1.390 . S
C1839 C1838 1.387 . S
H1840 C1852 0.930 . S
H1841 C1854 0.930 . S
H1842 C1855 0.930 . S
H1843 C1859 0.959 . S
H1844 C1859 0.959 . S
H1845 C1859 0.961 . S
H1846 C1860 0.960 . S
H1847 C1860 0.961 . S
H1848 C1860 0.959 . S
H1849 C1863 0.930 . S
H1850 C1864 0.931 . S
H1851 C1866 0.930 . S
C1852 H1840 0.930 . S
C1852 C1853 1.399 . S
C1852 C1857 1.399 . S
C1853 C1852 1.399 . S
C1853 C1854 1.376 . S
C1854 H1841 0.930 . S
C1854 C1853 1.376 . S
C1854 C1855 1.388 . S
C1855 H1842 0.930 . S
C1855 C1854 1.388 . S
C1855 C1856 1.390 . S
C1856 C1855 1.390 . S
C1856 C1857 1.394 . S
C1856 C1862 1.465 . S
C1857 C1852 1.399 . S
C1857 C1856 1.394 . S
C1857 C1858 1.516 . S
C1858 C1857 1.516 . S
C1858 C1859 1.502 . S
C1858 C1860 1.561 . S
C1858 C1861 1.526 . S
C1859 H1843 0.959 . S
C1859 H1844 0.959 . S
C1859 H1845 0.961 . S
C1859 C1858 1.502 . S
C1860 H1846 0.960 . S
C1860 H1847 0.961 . S
C1860 H1848 0.959 . S
C1860 C1858 1.561 . S
C1861 C1858 1.526 . S
C1861 C1862 1.396 . S
C1861 C1866 1.390 . S
C1862 C1856 1.465 . S
C1862 C1861 1.396 . S
C1862 C1863 1.399 . S
C1863 H1849 0.930 . S
C1863 C1862 1.399 . S
C1863 C1864 1.385 . S
C1864 H1850 0.931 . S
C1864 C1863 1.385 . S
C1864 C1865 1.389 . S
C1865 C1864 1.389 . S
C1865 C1866 1.387 . S
C1866 H1851 0.930 . S
C1866 C1861 1.390 . S
C1866 C1865 1.387 . S
H1867 C1879 0.930 . S
H1868 C1881 0.930 . S
H1869 C1882 0.930 . S
H1870 C1886 0.959 . S
H1871 C1886 0.959 . S
H1872 C1886 0.961 . S
H1873 C1887 0.960 . S
H1874 C1887 0.961 . S
H1875 C1887 0.959 . S
H1876 C1890 0.929 . S
H1877 C1891 0.931 . S
H1878 C1893 0.930 . S
C1879 H1867 0.930 . S
C1879 C1880 1.399 . S
C1879 C1884 1.399 . S
C1880 C1879 1.399 . S
C1880 C1881 1.376 . S
C1881 H1868 0.930 . S
C1881 C1880 1.376 . S
C1881 C1882 1.388 . S
C1882 H1869 0.930 . S
C1882 C1881 1.388 . S
C1882 C1883 1.390 . S
C1883 C1882 1.390 . S
C1883 C1884 1.394 . S
C1883 C1889 1.465 . S
C1884 C1879 1.399 . S
C1884 C1883 1.394 . S
C1884 C1885 1.516 . S
C1885 C1884 1.516 . S
C1885 C1886 1.502 . S
C1885 C1887 1.561 . S
C1885 C1888 1.526 . S
C1886 H1870 0.959 . S
C1886 H1871 0.959 . S
C1886 H1872 0.961 . S
C1886 C1885 1.502 . S
C1887 H1873 0.960 . S
C1887 H1874 0.961 . S
C1887 H1875 0.959 . S
C1887 C1885 1.561 . S
C1888 C1885 1.526 . S
C1888 C1889 1.396 . S
C1888 C1893 1.390 . S
C1889 C1883 1.465 . S
C1889 C1888 1.396 . S
C1889 C1890 1.399 . S
C1890 H1876 0.929 . S
C1890 C1889 1.399 . S
C1890 C1891 1.385 . S
C1891 H1877 0.931 . S
C1891 C1890 1.385 . S
C1891 C1892 1.389 . S
C1892 C1891 1.389 . S
C1892 C1893 1.387 . S
C1893 H1878 0.930 . S
C1893 C1888 1.390 . S
C1893 C1892 1.387 . S
H1894 C1906 0.930 . S
H1895 C1908 0.930 . S
H1896 C1909 0.930 . S
H1897 C1913 0.959 . S
H1898 C1913 0.959 . S
H1899 C1913 0.961 . S
H1900 C1914 0.960 . S
H1901 C1914 0.961 . S
H1902 C1914 0.959 . S
H1903 C1917 0.929 1_565 S
H1904 C1918 0.931 . S
H1905 C1920 0.930 . S
C1906 H1894 0.930 . S
C1906 C1907 1.399 . S
C1906 C1911 1.399 . S
C1907 C1906 1.399 . S
C1907 C1908 1.376 1_545 S
C1908 H1895 0.930 . S
C1908 C1907 1.376 1_565 S
C1908 C1909 1.388 . S
C1909 H1896 0.930 . S
C1909 C1908 1.388 . S
C1909 C1910 1.390 1_565 S
C1910 C1909 1.390 1_545 S
C1910 C1911 1.394 . S
C1910 C1916 1.465 . S
C1911 C1906 1.399 . S
C1911 C1910 1.394 . S
C1911 C1912 1.516 . S
C1912 C1911 1.516 . S
C1912 C1913 1.502 . S
C1912 C1914 1.561 . S
C1912 C1915 1.526 . S
C1913 H1897 0.959 . S
C1913 H1898 0.959 . S
C1913 H1899 0.961 . S
C1913 C1912 1.502 . S
C1914 H1900 0.960 . S
C1914 H1901 0.961 . S
C1914 H1902 0.959 . S
C1914 C1912 1.561 . S
C1915 C1912 1.526 . S
C1915 C1916 1.396 . S
C1915 C1920 1.390 . S
C1916 C1910 1.465 . S
C1916 C1915 1.396 . S
C1916 C1917 1.399 . S
C1917 H1903 0.929 1_545 S
C1917 C1916 1.399 . S
C1917 C1918 1.385 . S
C1918 H1904 0.931 . S
C1918 C1917 1.385 . S
C1918 C1919 1.389 . S
C1919 C1918 1.389 . S
C1919 C1920 1.387 . S
C1920 H1905 0.930 . S
C1920 C1915 1.390 . S
C1920 C1919 1.387 . S
H1921 C1933 0.930 . S
H1922 C1935 0.930 . S
H1923 C1936 0.930 . S
H1924 C1940 0.959 . S
H1925 C1940 0.959 . S
H1926 C1940 0.961 . S
H1927 C1941 0.960 . S
H1928 C1941 0.961 . S
H1929 C1941 0.959 . S
H1930 C1944 0.929 . S
H1931 C1945 0.931 . S
H1932 C1947 0.930 . S
C1933 H1921 0.930 . S
C1933 C1934 1.399 . S
C1933 C1938 1.399 . S
C1934 C1933 1.399 . S
C1934 C1935 1.376 . S
C1935 H1922 0.930 . S
C1935 C1934 1.376 . S
C1935 C1936 1.388 . S
C1936 H1923 0.930 . S
C1936 C1935 1.388 . S
C1936 C1937 1.390 . S
C1937 C1936 1.390 . S
C1937 C1938 1.394 . S
C1937 C1943 1.465 . S
C1938 C1933 1.399 . S
C1938 C1937 1.394 . S
C1938 C1939 1.516 . S
C1939 C1938 1.516 . S
C1939 C1940 1.502 . S
C1939 C1941 1.561 . S
C1939 C1942 1.526 . S
C1940 H1924 0.959 . S
C1940 H1925 0.959 . S
C1940 H1926 0.961 . S
C1940 C1939 1.502 . S
C1941 H1927 0.960 . S
C1941 H1928 0.961 . S
C1941 H1929 0.959 . S
C1941 C1939 1.561 . S
C1942 C1939 1.526 . S
C1942 C1943 1.396 . S
C1942 C1947 1.390 . S
C1943 C1937 1.465 . S
C1943 C1942 1.396 . S
C1943 C1944 1.399 . S
C1944 H1930 0.929 . S
C1944 C1943 1.399 . S
C1944 C1945 1.385 . S
C1945 H1931 0.931 . S
C1945 C1944 1.385 . S
C1945 C1946 1.389 . S
C1946 C1945 1.389 . S
C1946 C1947 1.387 . S
C1947 H1932 0.930 . S
C1947 C1942 1.390 . S
C1947 C1946 1.387 . S
H1948 C1960 0.930 . S
H1949 C1962 0.930 . S
H1950 C1963 0.930 . S
H1951 C1967 0.959 . S
H1952 C1967 0.975 . S
H1953 C1967 0.961 . S
H1954 C1968 0.960 . S
H1955 C1968 0.961 . S
H1956 C1968 0.959 . S
H1957 C1971 0.929 . S
H1958 C1972 0.931 . S
H1959 C1974 0.930 . S
C1960 H1948 0.930 . S
C1960 C1961 1.399 . S
C1960 C1965 1.399 . S
C1961 C1960 1.399 . S
C1961 C1962 1.376 . S
C1962 H1949 0.930 . S
C1962 C1961 1.376 . S
C1962 C1963 1.388 . S
C1963 H1950 0.930 . S
C1963 C1962 1.388 . S
C1963 C1964 1.390 . S
C1964 C1963 1.390 . S
C1964 C1965 1.394 . S
C1964 C1970 1.465 . S
C1965 C1960 1.399 . S
C1965 C1964 1.394 . S
C1965 C1966 1.516 . S
C1966 C1965 1.516 . S
C1966 C1967 1.502 . S
C1966 C1968 1.561 1_545 S
C1966 C1969 1.526 . S
C1967 H1951 0.959 . S
C1967 H1952 0.975 . S
C1967 H1953 0.961 . S
C1967 C1966 1.502 . S
C1968 H1954 0.960 . S
C1968 H1955 0.961 . S
C1968 H1956 0.959 . S
C1968 C1966 1.561 1_565 S
C1969 C1966 1.526 . S
C1969 C1970 1.396 . S
C1969 C1974 1.390 . S
C1970 C1964 1.465 . S
C1970 C1969 1.396 . S
C1970 C1971 1.399 . S
C1971 H1957 0.929 . S
C1971 C1970 1.399 . S
C1971 C1972 1.385 . S
C1972 H1958 0.931 . S
C1972 C1971 1.385 . S
C1972 C1973 1.389 . S
C1973 C1972 1.389 . S
C1973 C1974 1.387 . S
C1974 H1959 0.930 . S
C1974 C1969 1.390 . S
C1974 C1973 1.387 . S
H1975 C1987 0.930 . S
H1976 C1989 0.930 . S
H1977 C1990 0.930 . S
H1978 C1994 0.959 . S
H1979 C1994 0.959 . S
H1980 C1994 0.961 . S
H1981 C1995 0.960 . S
H1982 C1995 0.961 . S
H1983 C1995 0.959 . S
H1984 C1998 0.929 . S
H1985 C1999 0.931 . S
H1986 C2001 0.930 . S
C1987 H1975 0.930 . S
C1987 C1988 1.399 . S
C1987 C1992 1.399 . S
C1988 C1987 1.399 . S
C1988 C1989 1.376 . S
C1989 H1976 0.930 . S
C1989 C1988 1.376 . S
C1989 C1990 1.388 . S
C1990 H1977 0.930 . S
C1990 C1989 1.388 . S
C1990 C1991 1.390 . S
C1991 C1990 1.390 . S
C1991 C1992 1.394 . S
C1991 C1997 1.465 . S
C1992 C1987 1.399 . S
C1992 C1991 1.394 . S
C1992 C1993 1.516 . S
C1993 C1992 1.516 . S
C1993 C1994 1.502 . S
C1993 C1995 1.561 . S
C1993 C1996 1.526 . S
C1994 H1978 0.959 . S
C1994 H1979 0.959 . S
C1994 H1980 0.961 . S
C1994 C1993 1.502 . S
C1995 H1981 0.960 . S
C1995 H1982 0.961 . S
C1995 H1983 0.959 . S
C1995 C1993 1.561 . S
C1996 C1993 1.526 . S
C1996 C1997 1.396 . S
C1996 C2001 1.390 . S
C1997 C1991 1.465 . S
C1997 C1996 1.396 . S
C1997 C1998 1.399 . S
C1998 H1984 0.929 . S
C1998 C1997 1.399 . S
C1998 C1999 1.385 . S
C1999 H1985 0.931 . S
C1999 C1998 1.385 . S
C1999 C2000 1.389 . S
C2000 C1999 1.389 . S
C2000 C2001 1.387 . S
C2001 H1986 0.930 . S
C2001 C1996 1.390 . S
C2001 C2000 1.387 . S
H2002 C2014 0.930 . S
H2003 C2016 0.930 . S
H2004 C2017 0.930 . S
H2005 C2021 0.959 . S
H2006 C2021 0.959 . S
H2007 C2021 0.961 . S
H2008 C2022 0.960 . S
H2009 C2022 0.961 . S
H2010 C2022 0.959 . S
H2011 C2025 0.929 . S
H2012 C2026 0.931 . S
H2013 C2028 0.930 . S
C2014 H2002 0.930 . S
C2014 C2015 1.400 1_545 S
C2014 C2019 1.399 . S
C2015 C2014 1.400 1_565 S
C2015 C2016 1.376 . S
C2016 H2003 0.930 . S
C2016 C2015 1.376 . S
C2016 C2017 1.388 . S
C2017 H2004 0.930 . S
C2017 C2016 1.388 . S
C2017 C2018 1.390 . S
C2018 C2017 1.390 . S
C2018 C2019 1.394 1_565 S
C2018 C2024 1.465 . S
C2019 C2014 1.399 . S
C2019 C2018 1.394 1_545 S
C2019 C2020 1.516 . S
C2020 C2019 1.516 . S
C2020 C2021 1.502 . S
C2020 C2022 1.561 . S
C2020 C2023 1.526 . S
C2021 H2005 0.959 . S
C2021 H2006 0.959 . S
C2021 H2007 0.961 . S
C2021 C2020 1.502 . S
C2022 H2008 0.960 . S
C2022 H2009 0.961 . S
C2022 H2010 0.959 . S
C2022 C2020 1.561 . S
C2023 C2020 1.526 . S
C2023 C2024 1.396 1_545 S
C2023 C2028 1.390 . S
C2024 C2018 1.465 . S
C2024 C2023 1.396 1_565 S
C2024 C2025 1.399 . S
C2025 H2011 0.929 . S
C2025 C2024 1.399 . S
C2025 C2026 1.385 . S
C2026 H2012 0.931 . S
C2026 C2025 1.385 . S
C2026 C2027 1.389 . S
C2027 C2026 1.389 . S
C2027 C2028 1.387 1_565 S
C2028 H2013 0.930 . S
C2028 C2023 1.390 . S
C2028 C2027 1.387 1_545 S
H2029 C2041 0.930 . S
H2030 C2043 0.930 . S
H2031 C2044 0.930 . S
H2032 C2048 0.959 . S
H2033 C2048 0.959 . S
H2034 C2048 0.961 . S
H2035 C2049 0.960 . S
H2036 C2049 0.961 . S
H2037 C2049 0.959 . S
H2038 C2052 0.929 . S
H2039 C2053 0.931 . S
H2040 C2055 0.930 . S
C2041 H2029 0.930 . S
C2041 C2042 1.399 . S
C2041 C2046 1.399 . S
C2042 C2041 1.399 . S
C2042 C2043 1.376 . S
C2043 H2030 0.930 . S
C2043 C2042 1.376 . S
C2043 C2044 1.388 . S
C2044 H2031 0.930 . S
C2044 C2043 1.388 . S
C2044 C2045 1.390 . S
C2045 C2044 1.390 . S
C2045 C2046 1.394 . S
C2045 C2051 1.465 . S
C2046 C2041 1.399 . S
C2046 C2045 1.394 . S
C2046 C2047 1.516 . S
C2047 C2046 1.516 . S
C2047 C2048 1.502 . S
C2047 C2049 1.561 . S
C2047 C2050 1.526 . S
C2048 H2032 0.959 . S
C2048 H2033 0.959 . S
C2048 H2034 0.961 . S
C2048 C2047 1.502 . S
C2049 H2035 0.960 . S
C2049 H2036 0.961 . S
C2049 H2037 0.959 . S
C2049 C2047 1.561 . S
C2050 C2047 1.526 . S
C2050 C2051 1.396 . S
C2050 C2055 1.390 . S
C2051 C2045 1.465 . S
C2051 C2050 1.396 . S
C2051 C2052 1.399 . S
C2052 H2038 0.929 . S
C2052 C2051 1.399 . S
C2052 C2053 1.385 . S
C2053 H2039 0.931 . S
C2053 C2052 1.385 . S
C2053 C2054 1.389 . S
C2054 C2053 1.389 . S
C2054 C2055 1.387 . S
C2055 H2040 0.930 . S
C2055 C2050 1.390 . S
C2055 C2054 1.387 . S
H2056 C2068 0.930 . S
H2057 C2070 0.930 . S
H2058 C2071 0.930 . S
H2059 C2075 0.980 . S
H2060 C2075 0.933 1_556 S
H2061 C2075 0.959 1_556 S
H2062 C2076 0.960 . S
H2063 C2076 0.961 . S
H2064 C2076 0.959 1_554 S
H2065 C2079 0.929 . S
H2066 C2080 0.931 . S
H2067 C2082 0.930 1_556 S
C2068 H2056 0.930 . S
C2068 C2069 1.399 . S
C2068 C2073 1.399 . S
C2069 C2068 1.399 . S
C2069 C2070 1.376 . S
C2070 H2057 0.930 . S
C2070 C2069 1.376 . S
C2070 C2071 1.388 . S
C2071 H2058 0.930 . S
C2071 C2070 1.388 . S
C2071 C2072 1.390 . S
C2072 C2071 1.390 . S
C2072 C2073 1.394 . S
C2072 C2078 1.465 . S
C2073 C2068 1.399 . S
C2073 C2072 1.394 . S
C2073 C2074 1.516 . S
C2074 C2073 1.516 . S
C2074 C2075 1.511 . S
C2074 C2076 1.561 1_554 S
C2074 C2077 1.526 . S
C2075 H2059 0.980 . S
C2075 H2060 0.933 1_554 S
C2075 H2061 0.959 1_554 S
C2075 C2074 1.511 . S
C2076 H2062 0.960 . S
C2076 H2063 0.961 . S
C2076 H2064 0.959 1_556 S
C2076 C2074 1.561 1_556 S
C2077 C2074 1.526 . S
C2077 C2078 1.396 . S
C2077 C2082 1.390 . S
C2078 C2072 1.465 . S
C2078 C2077 1.396 . S
C2078 C2079 1.399 . S
C2079 H2065 0.929 . S
C2079 C2078 1.399 . S
C2079 C2080 1.385 . S
C2080 H2066 0.931 . S
C2080 C2079 1.385 . S
C2080 C2081 1.389 . S
C2081 C2080 1.389 . S
C2081 C2082 1.387 . S
C2082 H2067 0.930 1_554 S
C2082 C2077 1.390 . S
C2082 C2081 1.387 . S
H2083 C2095 0.930 . S
H2084 C2097 0.930 . S
H2085 C2098 0.930 . S
H2086 C2102 0.959 . S
H2087 C2102 0.959 . S
H2088 C2102 0.961 . S
H2089 C2103 0.960 . S
H2090 C2103 0.961 . S
H2091 C2103 0.959 . S
H2092 C2106 0.929 . S
H2093 C2107 0.931 . S
H2094 C2109 0.930 . S
C2095 H2083 0.930 . S
C2095 C2096 1.399 . S
C2095 C2100 1.399 . S
C2096 C2095 1.399 . S
C2096 C2097 1.376 . S
C2097 H2084 0.930 . S
C2097 C2096 1.376 . S
C2097 C2098 1.388 . S
C2098 H2085 0.930 . S
C2098 C2097 1.388 . S
C2098 C2099 1.390 . S
C2099 C2098 1.390 . S
C2099 C2100 1.394 . S
C2099 C2105 1.465 . S
C2100 C2095 1.399 . S
C2100 C2099 1.394 . S
C2100 C2101 1.516 . S
C2101 C2100 1.516 . S
C2101 C2102 1.502 1_554 S
C2101 C2103 1.561 . S
C2101 C2104 1.526 . S
C2102 H2086 0.959 . S
C2102 H2087 0.959 . S
C2102 H2088 0.961 . S
C2102 C2101 1.502 1_556 S
C2103 H2089 0.960 . S
C2103 H2090 0.961 . S
C2103 H2091 0.959 . S
C2103 C2101 1.561 . S
C2104 C2101 1.526 . S
C2104 C2105 1.396 . S
C2104 C2109 1.390 . S
C2105 C2099 1.465 . S
C2105 C2104 1.396 . S
C2105 C2106 1.399 . S
C2106 H2092 0.929 . S
C2106 C2105 1.399 . S
C2106 C2107 1.385 . S
C2107 H2093 0.931 . S
C2107 C2106 1.385 . S
C2107 C2108 1.389 . S
C2108 C2107 1.389 . S
C2108 C2109 1.387 . S
C2109 H2094 0.930 . S
C2109 C2104 1.390 . S
C2109 C2108 1.387 . S
H2110 C2122 0.930 . S
H2111 C2124 0.930 . S
H2112 C2125 0.930 . S
H2113 C2129 0.959 . S
H2114 C2129 0.959 . S
H2115 C2129 0.961 . S
H2116 C2130 0.960 . S
H2117 C2130 0.961 . S
H2118 C2130 0.959 . S
H2119 C2133 0.929 . S
H2120 C2134 0.931 . S
H2121 C2136 0.930 . S
C2122 H2110 0.930 . S
C2122 C2123 1.399 . S
C2122 C2127 1.399 . S
C2123 C2122 1.399 . S
C2123 C2124 1.376 . S
C2124 H2111 0.930 . S
C2124 C2123 1.376 . S
C2124 C2125 1.388 . S
C2125 H2112 0.930 . S
C2125 C2124 1.388 . S
C2125 C2126 1.390 . S
C2126 C2125 1.390 . S
C2126 C2127 1.394 . S
C2126 C2132 1.465 . S
C2127 C2122 1.399 . S
C2127 C2126 1.394 . S
C2127 C2128 1.516 . S
C2128 C2127 1.516 . S
C2128 C2129 1.502 . S
C2128 C2130 1.561 . S
C2128 C2131 1.526 . S
C2129 H2113 0.959 . S
C2129 H2114 0.959 . S
C2129 H2115 0.961 . S
C2129 C2128 1.502 . S
C2130 H2116 0.960 . S
C2130 H2117 0.961 . S
C2130 H2118 0.959 . S
C2130 C2128 1.561 . S
C2131 C2128 1.526 . S
C2131 C2132 1.396 . S
C2131 C2136 1.390 . S
C2132 C2126 1.465 . S
C2132 C2131 1.396 . S
C2132 C2133 1.399 . S
C2133 H2119 0.929 . S
C2133 C2132 1.399 . S
C2133 C2134 1.385 . S
C2134 H2120 0.931 . S
C2134 C2133 1.385 . S
C2134 C2135 1.389 . S
C2135 C2134 1.389 . S
C2135 C2136 1.387 . S
C2136 H2121 0.930 . S
C2136 C2131 1.390 . S
C2136 C2135 1.387 . S
H2137 C2149 0.930 . S
H2138 C2151 0.930 . S
H2139 C2152 0.930 . S
H2140 C2156 0.959 . S
H2141 C2156 0.959 . S
H2142 C2156 0.961 . S
H2143 C2157 0.960 . S
H2144 C2157 0.961 . S
H2145 C2157 0.959 . S
H2146 C2160 0.929 . S
H2147 C2161 0.931 . S
H2148 C2163 0.930 . S
C2149 H2137 0.930 . S
C2149 C2150 1.399 . S
C2149 C2154 1.399 . S
C2150 C2149 1.399 . S
C2150 C2151 1.376 . S
C2151 H2138 0.930 . S
C2151 C2150 1.376 . S
C2151 C2152 1.388 . S
C2152 H2139 0.930 . S
C2152 C2151 1.388 . S
C2152 C2153 1.390 . S
C2153 C2152 1.390 . S
C2153 C2154 1.394 . S
C2153 C2159 1.465 . S
C2154 C2149 1.399 . S
C2154 C2153 1.394 . S
C2154 C2155 1.516 . S
C2155 C2154 1.516 . S
C2155 C2156 1.502 . S
C2155 C2157 1.561 . S
C2155 C2158 1.526 . S
C2156 H2140 0.959 . S
C2156 H2141 0.959 . S
C2156 H2142 0.961 . S
C2156 C2155 1.502 . S
C2157 H2143 0.960 . S
C2157 H2144 0.961 . S
C2157 H2145 0.959 . S
C2157 C2155 1.561 . S
C2158 C2155 1.526 . S
C2158 C2159 1.396 . S
C2158 C2163 1.390 . S
C2159 C2153 1.465 . S
C2159 C2158 1.396 . S
C2159 C2160 1.399 . S
C2160 H2146 0.929 . S
C2160 C2159 1.399 . S
C2160 C2161 1.385 . S
C2161 H2147 0.931 . S
C2161 C2160 1.385 . S
C2161 C2162 1.389 . S
C2162 C2161 1.389 . S
C2162 C2163 1.387 . S
C2163 H2148 0.930 . S
C2163 C2158 1.390 . S
C2163 C2162 1.387 . S
H2164 C2176 0.933 . S
H2165 C2178 0.930 . S
H2166 C2179 0.930 . S
H2167 C2183 0.959 . S
H2168 C2183 0.959 . S
H2169 C2183 0.961 . S
H2170 C2184 0.960 . S
H2171 C2184 0.961 . S
H2172 C2184 0.959 . S
H2173 C2187 0.929 . S
H2174 C2188 0.931 . S
H2175 C2190 0.930 . S
C2176 H2164 0.933 . S
C2176 C2177 1.399 . S
C2176 C2181 1.399 1_545 S
C2177 C2176 1.399 . S
C2177 C2178 1.376 . S
C2178 H2165 0.930 . S
C2178 C2177 1.376 . S
C2178 C2179 1.388 . S
C2179 H2166 0.930 . S
C2179 C2178 1.388 . S
C2179 C2180 1.390 1_545 S
C2180 C2179 1.390 1_565 S
C2180 C2181 1.394 . S
C2180 C2186 1.465 . S
C2181 C2176 1.399 1_565 S
C2181 C2180 1.394 . S
C2181 C2182 1.516 . S
C2182 C2181 1.516 . S
C2182 C2183 1.502 . S
C2182 C2184 1.561 . S
C2182 C2185 1.526 . S
C2183 H2167 0.959 . S
C2183 H2168 0.959 . S
C2183 H2169 0.961 . S
C2183 C2182 1.502 . S
C2184 H2170 0.960 . S
C2184 H2171 0.961 . S
C2184 H2172 0.959 . S
C2184 C2182 1.561 . S
C2185 C2182 1.526 . S
C2185 C2186 1.396 . S
C2185 C2190 1.390 . S
C2186 C2180 1.465 . S
C2186 C2185 1.396 . S
C2186 C2187 1.399 . S
C2187 H2173 0.929 . S
C2187 C2186 1.399 . S
C2187 C2188 1.385 . S
C2188 H2174 0.931 . S
C2188 C2187 1.385 . S
C2188 C2189 1.389 . S
C2189 C2188 1.389 . S
C2189 C2190 1.387 . S
C2190 H2175 0.930 . S
C2190 C2185 1.390 . S
C2190 C2189 1.387 . S
H2191 C2203 0.930 . S
H2192 C2205 0.930 . S
H2193 C2206 0.930 . S
H2194 C2210 0.959 . S
H2195 C2210 0.959 . S
H2196 C2210 0.961 . S
H2197 C2211 0.960 . S
H2198 C2211 0.961 . S
H2199 C2211 0.959 . S
H2200 C2214 0.929 . S
H2201 C2215 0.949 . S
H2202 C2217 0.930 . S
C2203 H2191 0.930 . S
C2203 C2204 1.399 . S
C2203 C2208 1.399 . S
C2204 C2203 1.399 . S
C2204 C2205 1.376 . S
C2205 H2192 0.930 . S
C2205 C2204 1.376 . S
C2205 C2206 1.388 . S
C2206 H2193 0.930 . S
C2206 C2205 1.388 . S
C2206 C2207 1.390 . S
C2207 C2206 1.390 . S
C2207 C2208 1.394 . S
C2207 C2213 1.465 . S
C2208 C2203 1.399 . S
C2208 C2207 1.394 . S
C2208 C2209 1.516 . S
C2209 C2208 1.516 . S
C2209 C2210 1.502 . S
C2209 C2211 1.561 . S
C2209 C2212 1.526 . S
C2210 H2194 0.959 . S
C2210 H2195 0.959 . S
C2210 H2196 0.961 . S
C2210 C2209 1.502 . S
C2211 H2197 0.960 . S
C2211 H2198 0.961 . S
C2211 H2199 0.959 . S
C2211 C2209 1.561 . S
C2212 C2209 1.526 . S
C2212 C2213 1.396 . S
C2212 C2217 1.390 . S
C2213 C2207 1.465 . S
C2213 C2212 1.396 . S
C2213 C2214 1.399 . S
C2214 H2200 0.929 . S
C2214 C2213 1.399 . S
C2214 C2215 1.385 . S
C2215 H2201 0.949 . S
C2215 C2214 1.385 . S
C2215 C2216 1.389 . S
C2216 C2215 1.389 . S
C2216 C2217 1.387 . S
C2217 H2202 0.930 . S
C2217 C2212 1.390 . S
C2217 C2216 1.387 . S
H2218 C2230 0.930 . S
H2219 C2232 0.930 . S
H2220 C2233 0.930 . S
H2221 C2237 0.959 . S
H2222 C2237 0.959 . S
H2223 C2237 0.961 . S
H2224 C2238 0.960 . S
H2225 C2238 0.961 . S
H2226 C2238 0.959 . S
H2227 C2241 0.929 . S
H2228 C2242 0.931 . S
H2229 C2244 0.930 . S
C2230 H2218 0.930 . S
C2230 C2231 1.399 . S
C2230 C2235 1.399 . S
C2231 C2230 1.399 . S
C2231 C2232 1.376 . S
C2232 H2219 0.930 . S
C2232 C2231 1.376 . S
C2232 C2233 1.388 . S
C2233 H2220 0.930 . S
C2233 C2232 1.388 . S
C2233 C2234 1.390 . S
C2234 C2233 1.390 . S
C2234 C2235 1.394 . S
C2234 C2240 1.465 . S
C2235 C2230 1.399 . S
C2235 C2234 1.394 . S
C2235 C2236 1.516 . S
C2236 C2235 1.516 . S
C2236 C2237 1.502 . S
C2236 C2238 1.561 . S
C2236 C2239 1.526 . S
C2237 H2221 0.959 . S
C2237 H2222 0.959 . S
C2237 H2223 0.961 . S
C2237 C2236 1.502 . S
C2238 H2224 0.960 . S
C2238 H2225 0.961 . S
C2238 H2226 0.959 . S
C2238 C2236 1.561 . S
C2239 C2236 1.526 . S
C2239 C2240 1.396 . S
C2239 C2244 1.390 . S
C2240 C2234 1.465 . S
C2240 C2239 1.396 . S
C2240 C2241 1.399 . S
C2241 H2227 0.929 . S
C2241 C2240 1.399 . S
C2241 C2242 1.385 . S
C2242 H2228 0.931 . S
C2242 C2241 1.385 . S
C2242 C2243 1.389 . S
C2243 C2242 1.389 . S
C2243 C2244 1.387 . S
C2244 H2229 0.930 . S
C2244 C2239 1.390 . S
C2244 C2243 1.387 . S
H2245 C2257 0.930 . S
H2246 C2259 0.930 . S
H2247 C2260 0.930 . S
H2248 C2264 0.959 . S
H2249 C2264 0.959 . S
H2250 C2264 0.961 . S
H2251 C2265 0.960 . S
H2252 C2265 0.961 . S
H2253 C2265 0.959 . S
H2254 C2268 0.929 . S
H2255 C2269 0.931 . S
H2256 C2271 0.930 . S
C2257 H2245 0.930 . S
C2257 C2258 1.399 . S
C2257 C2262 1.399 . S
C2258 C2257 1.399 . S
C2258 C2259 1.376 . S
C2259 H2246 0.930 . S
C2259 C2258 1.376 . S
C2259 C2260 1.388 . S
C2260 H2247 0.930 . S
C2260 C2259 1.388 . S
C2260 C2261 1.390 . S
C2261 C2260 1.390 . S
C2261 C2262 1.394 . S
C2261 C2267 1.465 . S
C2262 C2257 1.399 . S
C2262 C2261 1.394 . S
C2262 C2263 1.516 . S
C2263 C2262 1.516 . S
C2263 C2264 1.502 . S
C2263 C2265 1.561 . S
C2263 C2266 1.526 . S
C2264 H2248 0.959 . S
C2264 H2249 0.959 . S
C2264 H2250 0.961 . S
C2264 C2263 1.502 . S
C2265 H2251 0.960 . S
C2265 H2252 0.961 . S
C2265 H2253 0.959 . S
C2265 C2263 1.561 . S
C2266 C2263 1.526 . S
C2266 C2267 1.396 . S
C2266 C2271 1.390 . S
C2267 C2261 1.465 . S
C2267 C2266 1.396 . S
C2267 C2268 1.399 . S
C2268 H2254 0.929 . S
C2268 C2267 1.399 . S
C2268 C2269 1.385 . S
C2269 H2255 0.931 . S
C2269 C2268 1.385 . S
C2269 C2270 1.389 . S
C2270 C2269 1.389 . S
C2270 C2271 1.387 . S
C2271 H2256 0.930 . S
C2271 C2266 1.390 . S
C2271 C2270 1.387 . S
H2272 C2284 0.930 . S
H2273 C2286 0.930 . S
H2274 C2287 0.930 . S
H2275 C2291 0.959 . S
H2276 C2291 0.959 . S
H2277 C2291 0.961 . S
H2278 C2292 0.960 . S
H2279 C2292 0.961 . S
H2280 C2292 0.959 . S
H2281 C2295 0.929 . S
H2282 C2296 0.931 . S
H2283 C2298 0.930 . S
C2284 H2272 0.930 . S
C2284 C2285 1.399 . S
C2284 C2289 1.399 . S
C2285 C2284 1.399 . S
C2285 C2286 1.376 . S
C2286 H2273 0.930 . S
C2286 C2285 1.376 . S
C2286 C2287 1.388 . S
C2287 H2274 0.930 . S
C2287 C2286 1.388 . S
C2287 C2288 1.390 . S
C2288 C2287 1.390 . S
C2288 C2289 1.394 . S
C2288 C2294 1.465 . S
C2289 C2284 1.399 . S
C2289 C2288 1.394 . S
C2289 C2290 1.516 . S
C2290 C2289 1.516 . S
C2290 C2291 1.502 . S
C2290 C2292 1.561 . S
C2290 C2293 1.526 . S
C2291 H2275 0.959 . S
C2291 H2276 0.959 . S
C2291 H2277 0.961 . S
C2291 C2290 1.502 . S
C2292 H2278 0.960 . S
C2292 H2279 0.961 . S
C2292 H2280 0.959 . S
C2292 C2290 1.561 . S
C2293 C2290 1.526 . S
C2293 C2294 1.396 . S
C2293 C2298 1.390 . S
C2294 C2288 1.465 . S
C2294 C2293 1.396 . S
C2294 C2295 1.399 . S
C2295 H2281 0.929 . S
C2295 C2294 1.399 . S
C2295 C2296 1.385 . S
C2296 H2282 0.931 . S
C2296 C2295 1.385 . S
C2296 C2297 1.389 . S
C2297 C2296 1.389 . S
C2297 C2298 1.387 . S
C2298 H2283 0.930 . S
C2298 C2293 1.390 . S
C2298 C2297 1.387 . S
H2299 C2311 0.930 . S
H2300 C2313 0.930 . S
H2301 C2314 0.930 . S
H2302 C2318 0.959 . S
H2303 C2318 0.959 . S
H2304 C2318 0.961 . S
H2305 C2319 0.960 . S
H2306 C2319 0.961 . S
H2307 C2319 0.959 . S
H2308 C2322 0.929 . S
H2309 C2323 0.931 . S
H2310 C2325 0.930 . S
C2311 H2299 0.930 . S
C2311 C2312 1.399 . S
C2311 C2316 1.399 . S
C2312 C2311 1.399 . S
C2312 C2313 1.376 . S
C2313 H2300 0.930 . S
C2313 C2312 1.376 . S
C2313 C2314 1.388 . S
C2314 H2301 0.930 . S
C2314 C2313 1.388 . S
C2314 C2315 1.390 . S
C2315 C2314 1.390 . S
C2315 C2316 1.394 . S
C2315 C2321 1.465 . S
C2316 C2311 1.399 . S
C2316 C2315 1.394 . S
C2316 C2317 1.516 . S
C2317 C2316 1.516 . S
C2317 C2318 1.502 . S
C2317 C2319 1.561 . S
C2317 C2320 1.526 . S
C2318 H2302 0.959 . S
C2318 H2303 0.959 . S
C2318 H2304 0.961 . S
C2318 C2317 1.502 . S
C2319 H2305 0.960 . S
C2319 H2306 0.961 . S
C2319 H2307 0.959 . S
C2319 C2317 1.561 . S
C2320 C2317 1.526 . S
C2320 C2321 1.396 . S
C2320 C2325 1.390 . S
C2321 C2315 1.465 . S
C2321 C2320 1.396 . S
C2321 C2322 1.399 . S
C2322 H2308 0.929 . S
C2322 C2321 1.399 . S
C2322 C2323 1.385 . S
C2323 H2309 0.931 . S
C2323 C2322 1.385 . S
C2323 C2324 1.389 . S
C2324 C2323 1.389 . S
C2324 C2325 1.387 . S
C2325 H2310 0.930 . S
C2325 C2320 1.390 . S
C2325 C2324 1.387 . S
H2326 C2338 0.930 . S
H2327 C2340 0.930 . S
H2328 C2341 0.930 . S
H2329 C2345 0.959 . S
H2330 C2345 0.959 . S
H2331 C2345 0.961 . S
H2332 C2346 0.960 . S
H2333 C2346 0.961 . S
H2334 C2346 0.959 . S
H2335 C2349 0.929 . S
H2336 C2350 0.931 . S
H2337 C2352 0.930 1_556 S
C2338 H2326 0.930 . S
C2338 C2339 1.399 . S
C2338 C2343 1.399 . S
C2339 C2338 1.399 . S
C2339 C2340 1.376 1_556 S
C2340 H2327 0.930 . S
C2340 C2339 1.376 1_554 S
C2340 C2341 1.388 . S
C2341 H2328 0.930 . S
C2341 C2340 1.388 . S
C2341 C2342 1.390 . S
C2342 C2341 1.390 . S
C2342 C2343 1.394 1_554 S
C2342 C2348 1.465 . S
C2343 C2338 1.399 . S
C2343 C2342 1.394 1_556 S
C2343 C2344 1.516 . S
C2344 C2343 1.516 . S
C2344 C2345 1.502 . S
C2344 C2346 1.561 1_455 S
C2344 C2347 1.526 1_556 S
C2345 H2329 0.959 . S
C2345 H2330 0.959 . S
C2345 H2331 0.961 . S
C2345 C2344 1.502 . S
C2346 H2332 0.960 . S
C2346 H2333 0.961 . S
C2346 H2334 0.959 . S
C2346 C2344 1.561 1_655 S
C2347 C2344 1.526 1_554 S
C2347 C2348 1.396 . S
C2347 C2352 1.390 . S
C2348 C2342 1.465 . S
C2348 C2347 1.396 . S
C2348 C2349 1.399 . S
C2349 H2335 0.929 . S
C2349 C2348 1.399 . S
C2349 C2350 1.385 . S
C2350 H2336 0.931 . S
C2350 C2349 1.385 . S
C2350 C2351 1.389 . S
C2351 C2350 1.389 . S
C2351 C2352 1.387 . S
C2352 H2337 0.930 1_554 S
C2352 C2347 1.390 . S
C2352 C2351 1.387 . S
H2353 C2365 0.930 . S
H2354 C2367 0.930 1_455 S
H2355 C2368 0.930 . S
H2356 C2372 0.959 . S
H2357 C2372 0.959 . S
H2358 C2372 0.961 . S
H2359 C2373 0.960 . S
H2360 C2373 0.961 . S
H2361 C2373 0.959 . S
H2362 C2376 0.929 . S
H2363 C2377 0.931 . S
H2364 C2379 0.930 . S
C2365 H2353 0.930 . S
C2365 C2366 1.399 . S
C2365 C2370 1.399 . S
C2366 C2365 1.399 . S
C2366 C2367 1.376 . S
C2367 H2354 0.930 1_655 S
C2367 C2366 1.376 . S
C2367 C2368 1.388 . S
C2368 H2355 0.930 . S
C2368 C2367 1.388 . S
C2368 C2369 1.390 . S
C2369 C2368 1.390 . S
C2369 C2370 1.394 . S
C2369 C2375 1.465 . S
C2370 C2365 1.399 . S
C2370 C2369 1.394 . S
C2370 C2371 1.516 . S
C2371 C2370 1.516 . S
C2371 C2372 1.502 . S
C2371 C2373 1.561 . S
C2371 C2374 1.526 . S
C2372 H2356 0.959 . S
C2372 H2357 0.959 . S
C2372 H2358 0.961 . S
C2372 C2371 1.502 . S
C2373 H2359 0.960 . S
C2373 H2360 0.961 . S
C2373 H2361 0.959 . S
C2373 C2371 1.561 . S
C2374 C2371 1.526 . S
C2374 C2375 1.396 . S
C2374 C2379 1.390 . S
C2375 C2369 1.465 . S
C2375 C2374 1.396 . S
C2375 C2376 1.399 . S
C2376 H2362 0.929 . S
C2376 C2375 1.399 . S
C2376 C2377 1.385 . S
C2377 H2363 0.931 . S
C2377 C2376 1.385 . S
C2377 C2378 1.389 . S
C2378 C2377 1.389 . S
C2378 C2379 1.387 . S
C2379 H2364 0.930 . S
C2379 C2374 1.390 . S
C2379 C2378 1.387 . S
H2380 C2392 0.930 . S
H2381 C2394 0.930 . S
H2382 C2395 0.930 . S
H2383 C2399 0.959 . S
H2384 C2399 0.959 . S
H2385 C2399 0.961 . S
H2386 C2400 0.960 . S
H2387 C2400 0.961 . S
H2388 C2400 0.959 . S
H2389 C2403 0.929 . S
H2390 C2404 0.931 . S
H2391 C2406 0.930 . S
C2392 H2380 0.930 . S
C2392 C2393 1.399 . S
C2392 C2397 1.399 . S
C2393 C2392 1.399 . S
C2393 C2394 1.376 . S
C2394 H2381 0.930 . S
C2394 C2393 1.376 . S
C2394 C2395 1.388 . S
C2395 H2382 0.930 . S
C2395 C2394 1.388 . S
C2395 C2396 1.390 . S
C2396 C2395 1.390 . S
C2396 C2397 1.394 . S
C2396 C2402 1.465 . S
C2397 C2392 1.399 . S
C2397 C2396 1.394 . S
C2397 C2398 1.516 . S
C2398 C2397 1.516 . S
C2398 C2399 1.502 . S
C2398 C2400 1.561 . S
C2398 C2401 1.526 . S
C2399 H2383 0.959 . S
C2399 H2384 0.959 . S
C2399 H2385 0.961 . S
C2399 C2398 1.502 . S
C2400 H2386 0.960 . S
C2400 H2387 0.961 . S
C2400 H2388 0.959 . S
C2400 C2398 1.561 . S
C2401 C2398 1.526 . S
C2401 C2402 1.396 . S
C2401 C2406 1.390 . S
C2402 C2396 1.465 . S
C2402 C2401 1.396 . S
C2402 C2403 1.399 . S
C2403 H2389 0.929 . S
C2403 C2402 1.399 . S
C2403 C2404 1.385 . S
C2404 H2390 0.931 . S
C2404 C2403 1.385 . S
C2404 C2405 1.389 . S
C2405 C2404 1.389 . S
C2405 C2406 1.387 . S
C2406 H2391 0.930 . S
C2406 C2401 1.390 . S
C2406 C2405 1.387 . S
H2407 C2419 0.930 . S
H2408 C2421 0.930 . S
H2409 C2422 0.930 . S
H2410 C2426 0.959 . S
H2411 C2426 0.959 . S
H2412 C2426 0.961 . S
H2413 C2427 0.960 . S
H2414 C2427 0.961 . S
H2415 C2427 0.959 . S
H2416 C2430 0.929 . S
H2417 C2431 0.931 . S
H2418 C2433 0.930 . S
C2419 H2407 0.930 . S
C2419 C2420 1.399 . S
C2419 C2424 1.399 . S
C2420 C2419 1.399 . S
C2420 C2421 1.376 . S
C2421 H2408 0.930 . S
C2421 C2420 1.376 . S
C2421 C2422 1.388 . S
C2422 H2409 0.930 . S
C2422 C2421 1.388 . S
C2422 C2423 1.390 . S
C2423 C2422 1.390 . S
C2423 C2424 1.394 . S
C2423 C2429 1.465 . S
C2424 C2419 1.399 . S
C2424 C2423 1.394 . S
C2424 C2425 1.516 . S
C2425 C2424 1.516 . S
C2425 C2426 1.502 . S
C2425 C2427 1.561 . S
C2425 C2428 1.526 . S
C2426 H2410 0.959 . S
C2426 H2411 0.959 . S
C2426 H2412 0.961 . S
C2426 C2425 1.502 . S
C2427 H2413 0.960 . S
C2427 H2414 0.961 . S
C2427 H2415 0.959 . S
C2427 C2425 1.561 . S
C2428 C2425 1.526 . S
C2428 C2429 1.396 . S
C2428 C2433 1.390 . S
C2429 C2423 1.465 . S
C2429 C2428 1.396 . S
C2429 C2430 1.399 . S
C2430 H2416 0.929 . S
C2430 C2429 1.399 . S
C2430 C2431 1.385 . S
C2431 H2417 0.931 . S
C2431 C2430 1.385 . S
C2431 C2432 1.389 . S
C2432 C2431 1.389 . S
C2432 C2433 1.387 . S
C2433 H2418 0.930 . S
C2433 C2428 1.390 . S
C2433 C2432 1.387 . S
H2434 C2446 0.930 . S
H2435 C2448 0.930 . S
H2436 C2449 0.930 . S
H2437 C2453 0.959 1_655 S
H2438 C2453 0.959 . S
H2439 C2453 0.961 . S
H2440 C2454 0.960 . S
H2441 C2454 0.961 . S
H2442 C2454 0.959 . S
H2443 C2457 0.929 . S
H2444 C2458 0.931 . S
H2445 C2460 0.930 . S
C2446 H2434 0.930 . S
C2446 C2447 1.399 . S
C2446 C2451 1.399 . S
C2447 C2446 1.399 . S
C2447 C2448 1.376 . S
C2448 H2435 0.930 . S
C2448 C2447 1.376 . S
C2448 C2449 1.388 . S
C2449 H2436 0.930 . S
C2449 C2448 1.388 . S
C2449 C2450 1.390 . S
C2450 C2449 1.390 . S
C2450 C2451 1.394 . S
C2450 C2456 1.465 . S
C2451 C2446 1.399 . S
C2451 C2450 1.394 . S
C2451 C2452 1.516 . S
C2452 C2451 1.516 . S
C2452 C2453 1.502 . S
C2452 C2454 1.561 . S
C2452 C2455 1.526 . S
C2453 H2437 0.959 1_455 S
C2453 H2438 0.959 . S
C2453 H2439 0.961 . S
C2453 C2452 1.502 . S
C2454 H2440 0.960 . S
C2454 H2441 0.961 . S
C2454 H2442 0.959 . S
C2454 C2452 1.561 . S
C2455 C2452 1.526 . S
C2455 C2456 1.396 . S
C2455 C2460 1.390 . S
C2456 C2450 1.465 . S
C2456 C2455 1.396 . S
C2456 C2457 1.399 . S
C2457 H2443 0.929 . S
C2457 C2456 1.399 . S
C2457 C2458 1.385 . S
C2458 H2444 0.931 . S
C2458 C2457 1.385 . S
C2458 C2459 1.389 . S
C2459 C2458 1.389 . S
C2459 C2460 1.387 . S
C2460 H2445 0.930 . S
C2460 C2455 1.390 . S
C2460 C2459 1.387 . S
H2461 C2473 0.930 . S
H2462 C2475 0.930 . S
H2463 C2476 0.930 . S
H2464 C2480 0.959 . S
H2465 C2480 0.959 . S
H2466 C2480 0.961 . S
H2467 C2481 0.960 . S
H2468 C2481 0.961 . S
H2469 C2481 0.959 . S
H2470 C2484 0.929 . S
H2471 C2485 0.931 . S
H2472 C2487 0.930 . S
C2473 H2461 0.930 . S
C2473 C2474 1.399 . S
C2473 C2478 1.399 . S
C2474 C2473 1.399 . S
C2474 C2475 1.376 . S
C2475 H2462 0.930 . S
C2475 C2474 1.376 . S
C2475 C2476 1.388 . S
C2476 H2463 0.930 . S
C2476 C2475 1.388 . S
C2476 C2477 1.390 . S
C2477 C2476 1.390 . S
C2477 C2478 1.394 . S
C2477 C2483 1.465 . S
C2478 C2473 1.399 . S
C2478 C2477 1.394 . S
C2478 C2479 1.516 . S
C2479 C2478 1.516 . S
C2479 C2480 1.502 . S
C2479 C2481 1.561 . S
C2479 C2482 1.526 . S
C2480 H2464 0.959 . S
C2480 H2465 0.959 . S
C2480 H2466 0.961 . S
C2480 C2479 1.502 . S
C2481 H2467 0.960 . S
C2481 H2468 0.961 . S
C2481 H2469 0.959 . S
C2481 C2479 1.561 . S
C2482 C2479 1.526 . S
C2482 C2483 1.396 . S
C2482 C2487 1.390 . S
C2483 C2477 1.465 . S
C2483 C2482 1.396 . S
C2483 C2484 1.399 . S
C2484 H2470 0.929 . S
C2484 C2483 1.399 . S
C2484 C2485 1.385 . S
C2485 H2471 0.931 . S
C2485 C2484 1.385 . S
C2485 C2486 1.389 . S
C2486 C2485 1.389 . S
C2486 C2487 1.387 . S
C2487 H2472 0.930 . S
C2487 C2482 1.390 . S
C2487 C2486 1.387 . S
H2488 C2500 0.930 . S
H2489 C2502 0.930 . S
H2490 C2503 0.930 . S
H2491 C2507 0.959 . S
H2492 C2507 0.959 . S
H2493 C2507 0.961 . S
H2494 C2508 0.960 . S
H2495 C2508 0.961 . S
H2496 C2508 0.959 . S
H2497 C2511 0.929 . S
H2498 C2512 0.931 . S
H2499 C2514 0.930 . S
C2500 H2488 0.930 . S
C2500 C2501 1.399 . S
C2500 C2505 1.399 . S
C2501 C2500 1.399 . S
C2501 C2502 1.376 . S
C2502 H2489 0.930 . S
C2502 C2501 1.376 . S
C2502 C2503 1.388 . S
C2503 H2490 0.930 . S
C2503 C2502 1.388 . S
C2503 C2504 1.390 . S
C2504 C2503 1.390 . S
C2504 C2505 1.394 . S
C2504 C2510 1.465 . S
C2505 C2500 1.399 . S
C2505 C2504 1.394 . S
C2505 C2506 1.516 . S
C2506 C2505 1.516 . S
C2506 C2507 1.502 . S
C2506 C2508 1.561 . S
C2506 C2509 1.526 . S
C2507 H2491 0.959 . S
C2507 H2492 0.959 . S
C2507 H2493 0.961 . S
C2507 C2506 1.502 . S
C2508 H2494 0.960 . S
C2508 H2495 0.961 . S
C2508 H2496 0.959 . S
C2508 C2506 1.561 . S
C2509 C2506 1.526 . S
C2509 C2510 1.396 . S
C2509 C2514 1.390 . S
C2510 C2504 1.465 . S
C2510 C2509 1.396 . S
C2510 C2511 1.399 . S
C2511 H2497 0.929 . S
C2511 C2510 1.399 . S
C2511 C2512 1.385 . S
C2512 H2498 0.931 . S
C2512 C2511 1.385 . S
C2512 C2513 1.389 . S
C2513 C2512 1.389 . S
C2513 C2514 1.387 . S
C2514 H2499 0.930 . S
C2514 C2509 1.390 . S
C2514 C2513 1.387 . S
H2515 C2527 0.930 . S
H2516 C2529 0.930 . S
H2517 C2530 0.930 . S
H2518 C2534 0.959 . S
H2519 C2534 0.959 . S
H2520 C2534 0.961 . S
H2521 C2535 0.960 . S
H2522 C2535 0.961 . S
H2523 C2535 0.959 1_556 S
H2524 C2538 0.929 . S
H2525 C2539 0.931 . S
H2526 C2541 0.930 . S
C2527 H2515 0.930 . S
C2527 C2528 1.399 . S
C2527 C2532 1.404 . S
C2528 C2527 1.399 . S
C2528 C2529 1.376 1_554 S
C2529 H2516 0.930 . S
C2529 C2528 1.376 1_556 S
C2529 C2530 1.388 . S
C2530 H2517 0.930 . S
C2530 C2529 1.388 . S
C2530 C2531 1.390 . S
C2531 C2530 1.390 . S
C2531 C2532 1.389 1_556 S
C2531 C2537 1.465 . S
C2532 C2527 1.404 . S
C2532 C2531 1.389 1_554 S
C2532 C2533 1.515 1_554 S
C2533 C2532 1.515 1_556 S
C2533 C2534 1.502 1_556 S
C2533 C2535 1.561 1_556 S
C2533 C2536 1.526 . S
C2534 H2518 0.959 . S
C2534 H2519 0.959 . S
C2534 H2520 0.961 . S
C2534 C2533 1.502 1_554 S
C2535 H2521 0.960 . S
C2535 H2522 0.961 . S
C2535 H2523 0.959 1_554 S
C2535 C2533 1.561 1_554 S
C2536 C2533 1.526 . S
C2536 C2537 1.396 . S
C2536 C2541 1.390 . S
C2537 C2531 1.465 . S
C2537 C2536 1.396 . S
C2537 C2538 1.399 . S
C2538 H2524 0.929 . S
C2538 C2537 1.399 . S
C2538 C2539 1.385 . S
C2539 H2525 0.931 . S
C2539 C2538 1.385 . S
C2539 C2540 1.389 . S
C2540 C2539 1.389 . S
C2540 C2541 1.387 . S
C2541 H2526 0.930 . S
C2541 C2536 1.390 . S
C2541 C2540 1.387 . S
H2542 C2554 0.930 . S
H2543 C2556 0.930 . S
H2544 C2557 0.930 . S
H2545 C2561 0.959 . S
H2546 C2561 0.959 . S
H2547 C2561 0.961 . S
H2548 C2562 0.960 . S
H2549 C2562 0.961 . S
H2550 C2562 0.959 . S
H2551 C2565 0.929 . S
H2552 C2566 0.931 . S
H2553 C2568 0.930 . S
C2554 H2542 0.930 . S
C2554 C2555 1.399 . S
C2554 C2559 1.399 . S
C2555 C2554 1.399 . S
C2555 C2556 1.376 . S
C2556 H2543 0.930 . S
C2556 C2555 1.376 . S
C2556 C2557 1.388 . S
C2557 H2544 0.930 . S
C2557 C2556 1.388 . S
C2557 C2558 1.390 . S
C2558 C2557 1.390 . S
C2558 C2559 1.394 . S
C2558 C2564 1.465 . S
C2559 C2554 1.399 . S
C2559 C2558 1.394 . S
C2559 C2560 1.516 . S
C2560 C2559 1.516 . S
C2560 C2561 1.502 . S
C2560 C2562 1.561 . S
C2560 C2563 1.526 . S
C2561 H2545 0.959 . S
C2561 H2546 0.959 . S
C2561 H2547 0.961 . S
C2561 C2560 1.502 . S
C2562 H2548 0.960 . S
C2562 H2549 0.961 . S
C2562 H2550 0.959 . S
C2562 C2560 1.561 . S
C2563 C2560 1.526 . S
C2563 C2564 1.396 . S
C2563 C2568 1.390 . S
C2564 C2558 1.465 . S
C2564 C2563 1.396 . S
C2564 C2565 1.399 . S
C2565 H2551 0.929 . S
C2565 C2564 1.399 . S
C2565 C2566 1.385 . S
C2566 H2552 0.931 . S
C2566 C2565 1.385 . S
C2566 C2567 1.389 . S
C2567 C2566 1.389 . S
C2567 C2568 1.387 . S
C2568 H2553 0.930 . S
C2568 C2563 1.390 . S
C2568 C2567 1.387 . S
H2569 C2581 0.930 . S
H2570 C2583 0.930 . S
H2571 C2584 0.930 . S
H2572 C2588 0.959 . S
H2573 C2588 0.959 . S
H2574 C2588 0.961 . S
H2575 C2589 0.960 . S
H2576 C2589 0.961 . S
H2577 C2589 0.959 . S
H2578 C2592 0.929 . S
H2579 C2593 0.931 . S
H2580 C2595 0.930 . S
C2581 H2569 0.930 . S
C2581 C2582 1.399 . S
C2581 C2586 1.399 . S
C2582 C2581 1.399 . S
C2582 C2583 1.376 . S
C2583 H2570 0.930 . S
C2583 C2582 1.376 . S
C2583 C2584 1.388 . S
C2584 H2571 0.930 . S
C2584 C2583 1.388 . S
C2584 C2585 1.390 . S
C2585 C2584 1.390 . S
C2585 C2586 1.394 . S
C2585 C2591 1.465 . S
C2586 C2581 1.399 . S
C2586 C2585 1.394 . S
C2586 C2587 1.516 . S
C2587 C2586 1.516 . S
C2587 C2588 1.502 . S
C2587 C2589 1.561 . S
C2587 C2590 1.526 . S
C2588 H2572 0.959 . S
C2588 H2573 0.959 . S
C2588 H2574 0.961 . S
C2588 C2587 1.502 . S
C2589 H2575 0.960 . S
C2589 H2576 0.961 . S
C2589 H2577 0.959 . S
C2589 C2587 1.561 . S
C2590 C2587 1.526 . S
C2590 C2591 1.396 . S
C2590 C2595 1.390 . S
C2591 C2585 1.465 . S
C2591 C2590 1.396 . S
C2591 C2592 1.399 . S
C2592 H2578 0.929 . S
C2592 C2591 1.399 . S
C2592 C2593 1.385 . S
C2593 H2579 0.931 . S
C2593 C2592 1.385 . S
C2593 C2594 1.389 . S
C2594 C2593 1.389 . S
C2594 C2595 1.387 . S
C2595 H2580 0.930 . S
C2595 C2590 1.390 . S
C2595 C2594 1.387 . S
H2596 C2608 0.930 . S
H2597 C2610 0.930 . S
H2598 C2611 0.930 . S
H2599 C2615 0.959 . S
H2600 C2615 0.959 . S
H2601 C2615 0.961 . S
H2602 C2616 0.960 . S
H2603 C2616 0.961 . S
H2604 C2616 0.959 . S
H2605 C2619 0.929 . S
H2606 C2620 0.931 . S
H2607 C2622 0.930 . S
C2608 H2596 0.930 . S
C2608 C2609 1.399 . S
C2608 C2613 1.399 . S
C2609 C2608 1.399 . S
C2609 C2610 1.376 . S
C2610 H2597 0.930 . S
C2610 C2609 1.376 . S
C2610 C2611 1.388 . S
C2611 H2598 0.930 . S
C2611 C2610 1.388 . S
C2611 C2612 1.390 . S
C2612 C2611 1.390 . S
C2612 C2613 1.394 . S
C2612 C2618 1.465 . S
C2613 C2608 1.399 . S
C2613 C2612 1.394 . S
C2613 C2614 1.516 . S
C2614 C2613 1.516 . S
C2614 C2615 1.502 . S
C2614 C2616 1.561 . S
C2614 C2617 1.526 . S
C2615 H2599 0.959 . S
C2615 H2600 0.959 . S
C2615 H2601 0.961 . S
C2615 C2614 1.502 . S
C2616 H2602 0.960 . S
C2616 H2603 0.961 . S
C2616 H2604 0.959 . S
C2616 C2614 1.561 . S
C2617 C2614 1.526 . S
C2617 C2618 1.396 . S
C2617 C2622 1.390 . S
C2618 C2612 1.465 . S
C2618 C2617 1.396 . S
C2618 C2619 1.399 . S
C2619 H2605 0.929 . S
C2619 C2618 1.399 . S
C2619 C2620 1.385 . S
C2620 H2606 0.931 . S
C2620 C2619 1.385 . S
C2620 C2621 1.389 . S
C2621 C2620 1.389 . S
C2621 C2622 1.387 . S
C2622 H2607 0.930 . S
C2622 C2617 1.390 . S
C2622 C2621 1.387 . S
H2623 C2635 0.930 . S
H2624 C2637 0.930 . S
H2625 C2638 0.930 . S
H2626 C2642 0.959 . S
H2627 C2642 0.959 . S
H2628 C2642 0.961 . S
H2629 C2643 0.960 . S
H2630 C2643 0.961 . S
H2631 C2643 0.959 . S
H2632 C2646 0.929 . S
H2633 C2647 0.931 . S
H2634 C2649 0.930 . S
C2635 H2623 0.930 . S
C2635 C2636 1.399 . S
C2635 C2640 1.399 . S
C2636 C2635 1.399 . S
C2636 C2637 1.376 . S
C2637 H2624 0.930 . S
C2637 C2636 1.376 . S
C2637 C2638 1.388 . S
C2638 H2625 0.930 . S
C2638 C2637 1.388 . S
C2638 C2639 1.390 . S
C2639 C2638 1.390 . S
C2639 C2640 1.394 . S
C2639 C2645 1.465 . S
C2640 C2635 1.399 . S
C2640 C2639 1.394 . S
C2640 C2641 1.516 . S
C2641 C2640 1.516 . S
C2641 C2642 1.502 . S
C2641 C2643 1.561 . S
C2641 C2644 1.526 . S
C2642 H2626 0.959 . S
C2642 H2627 0.959 . S
C2642 H2628 0.961 . S
C2642 C2641 1.502 . S
C2643 H2629 0.960 . S
C2643 H2630 0.961 . S
C2643 H2631 0.959 . S
C2643 C2641 1.561 . S
C2644 C2641 1.526 . S
C2644 C2645 1.396 . S
C2644 C2649 1.390 . S
C2645 C2639 1.465 . S
C2645 C2644 1.396 . S
C2645 C2646 1.399 . S
C2646 H2632 0.929 . S
C2646 C2645 1.399 . S
C2646 C2647 1.385 . S
C2647 H2633 0.931 . S
C2647 C2646 1.385 . S
C2647 C2648 1.389 . S
C2648 C2647 1.389 . S
C2648 C2649 1.387 . S
C2649 H2634 0.930 . S
C2649 C2644 1.390 . S
C2649 C2648 1.387 . S
H2650 C2662 0.930 . S
H2651 C2664 0.930 . S
H2652 C2665 0.930 . S
H2653 C2669 0.959 . S
H2654 C2669 0.959 . S
H2655 C2669 0.961 . S
H2656 C2670 0.960 . S
H2657 C2670 0.961 . S
H2658 C2670 0.959 . S
H2659 C2673 0.929 . S
H2660 C2674 0.931 . S
H2661 C2676 0.930 . S
C2662 H2650 0.930 . S
C2662 C2663 1.399 . S
C2662 C2667 1.399 . S
C2663 C2662 1.399 . S
C2663 C2664 1.376 . S
C2664 H2651 0.930 . S
C2664 C2663 1.376 . S
C2664 C2665 1.388 . S
C2665 H2652 0.930 . S
C2665 C2664 1.388 . S
C2665 C2666 1.390 . S
C2666 C2665 1.390 . S
C2666 C2667 1.394 . S
C2666 C2672 1.465 . S
C2667 C2662 1.399 . S
C2667 C2666 1.394 . S
C2667 C2668 1.516 . S
C2668 C2667 1.516 . S
C2668 C2669 1.502 . S
C2668 C2670 1.561 . S
C2668 C2671 1.526 . S
C2669 H2653 0.959 . S
C2669 H2654 0.959 . S
C2669 H2655 0.961 . S
C2669 C2668 1.502 . S
C2670 H2656 0.960 . S
C2670 H2657 0.961 . S
C2670 H2658 0.959 . S
C2670 C2668 1.561 . S
C2671 C2668 1.526 . S
C2671 C2672 1.396 . S
C2671 C2676 1.390 . S
C2672 C2666 1.465 . S
C2672 C2671 1.396 . S
C2672 C2673 1.399 . S
C2673 H2659 0.929 . S
C2673 C2672 1.399 . S
C2673 C2674 1.385 . S
C2674 H2660 0.931 . S
C2674 C2673 1.385 . S
C2674 C2675 1.389 . S
C2675 C2674 1.389 . S
C2675 C2676 1.387 . S
C2676 H2661 0.930 . S
C2676 C2671 1.390 . S
C2676 C2675 1.387 . S
H2677 C2689 0.930 . S
H2678 C2691 0.930 . S
H2679 C2692 0.930 . S
H2680 C2696 0.959 . S
H2681 C2696 0.959 . S
H2682 C2696 0.961 . S
H2683 C2697 0.960 . S
H2684 C2697 0.961 . S
H2685 C2697 0.959 . S
H2686 C2700 0.929 . S
H2687 C2701 0.931 . S
H2688 C2703 0.930 . S
C2689 H2677 0.930 . S
C2689 C2690 1.399 . S
C2689 C2694 1.399 . S
C2690 C2689 1.399 . S
C2690 C2691 1.376 . S
C2691 H2678 0.930 . S
C2691 C2690 1.376 . S
C2691 C2692 1.388 . S
C2692 H2679 0.930 . S
C2692 C2691 1.388 . S
C2692 C2693 1.390 . S
C2693 C2692 1.390 . S
C2693 C2694 1.394 . S
C2693 C2699 1.465 . S
C2694 C2689 1.399 . S
C2694 C2693 1.394 . S
C2694 C2695 1.516 . S
C2695 C2694 1.516 . S
C2695 C2696 1.502 . S
C2695 C2697 1.561 . S
C2695 C2698 1.526 . S
C2696 H2680 0.959 . S
C2696 H2681 0.959 . S
C2696 H2682 0.961 . S
C2696 C2695 1.502 . S
C2697 H2683 0.960 . S
C2697 H2684 0.961 . S
C2697 H2685 0.959 . S
C2697 C2695 1.561 . S
C2698 C2695 1.526 . S
C2698 C2699 1.396 . S
C2698 C2703 1.390 . S
C2699 C2693 1.465 . S
C2699 C2698 1.396 . S
C2699 C2700 1.399 . S
C2700 H2686 0.929 . S
C2700 C2699 1.399 . S
C2700 C2701 1.385 . S
C2701 H2687 0.931 . S
C2701 C2700 1.385 . S
C2701 C2702 1.389 . S
C2702 C2701 1.389 . S
C2702 C2703 1.387 . S
C2703 H2688 0.930 . S
C2703 C2698 1.390 . S
C2703 C2702 1.387 . S
H2704 C2716 0.930 . S
H2705 C2718 0.930 . S
H2706 C2719 0.930 . S
H2707 C2723 0.959 . S
H2708 C2723 0.959 . S
H2709 C2723 0.961 . S
H2710 C2724 0.960 . S
H2711 C2724 0.961 . S
H2712 C2724 0.959 . S
H2713 C2727 0.929 . S
H2714 C2728 0.931 . S
H2715 C2730 0.930 . S
C2716 H2704 0.930 . S
C2716 C2717 1.399 . S
C2716 C2721 1.399 . S
C2717 C2716 1.399 . S
C2717 C2718 1.376 . S
C2718 H2705 0.930 . S
C2718 C2717 1.376 . S
C2718 C2719 1.388 . S
C2719 H2706 0.930 . S
C2719 C2718 1.388 . S
C2719 C2720 1.390 . S
C2720 C2719 1.390 . S
C2720 C2721 1.394 . S
C2720 C2726 1.465 . S
C2721 C2716 1.399 . S
C2721 C2720 1.394 . S
C2721 C2722 1.516 . S
C2722 C2721 1.516 . S
C2722 C2723 1.502 . S
C2722 C2724 1.561 . S
C2722 C2725 1.526 . S
C2723 H2707 0.959 . S
C2723 H2708 0.959 . S
C2723 H2709 0.961 . S
C2723 C2722 1.502 . S
C2724 H2710 0.960 . S
C2724 H2711 0.961 . S
C2724 H2712 0.959 . S
C2724 C2722 1.561 . S
C2725 C2722 1.526 . S
C2725 C2726 1.396 . S
C2725 C2730 1.390 . S
C2726 C2720 1.465 . S
C2726 C2725 1.396 . S
C2726 C2727 1.399 . S
C2727 H2713 0.929 . S
C2727 C2726 1.399 . S
C2727 C2728 1.385 . S
C2728 H2714 0.931 . S
C2728 C2727 1.385 . S
C2728 C2729 1.389 . S
C2729 C2728 1.389 . S
C2729 C2730 1.387 . S
C2730 H2715 0.930 . S
C2730 C2725 1.390 . S
C2730 C2729 1.387 . S
H2731 C2743 0.930 . S
H2732 C2745 0.930 . S
H2733 C2746 0.930 . S
H2734 C2750 0.959 . S
H2735 C2750 0.959 . S
H2736 C2750 0.961 . S
H2737 C2751 0.960 . S
H2738 C2751 0.961 . S
H2739 C2751 0.959 . S
H2740 C2754 0.929 . S
H2741 C2755 0.931 . S
H2742 C2757 0.930 . S
C2743 H2731 0.930 . S
C2743 C2744 1.399 . S
C2743 C2748 1.399 . S
C2744 C2743 1.399 . S
C2744 C2745 1.376 . S
C2745 H2732 0.930 . S
C2745 C2744 1.376 . S
C2745 C2746 1.388 . S
C2746 H2733 0.930 . S
C2746 C2745 1.388 . S
C2746 C2747 1.390 . S
C2747 C2746 1.390 . S
C2747 C2748 1.394 . S
C2747 C2753 1.465 . S
C2748 C2743 1.399 . S
C2748 C2747 1.394 . S
C2748 C2749 1.516 . S
C2749 C2748 1.516 . S
C2749 C2750 1.502 . S
C2749 C2751 1.561 . S
C2749 C2752 1.526 . S
C2750 H2734 0.959 . S
C2750 H2735 0.959 . S
C2750 H2736 0.961 . S
C2750 C2749 1.502 . S
C2751 H2737 0.960 . S
C2751 H2738 0.961 . S
C2751 H2739 0.959 . S
C2751 C2749 1.561 . S
C2752 C2749 1.526 . S
C2752 C2753 1.396 . S
C2752 C2757 1.390 . S
C2753 C2747 1.465 . S
C2753 C2752 1.396 . S
C2753 C2754 1.399 . S
C2754 H2740 0.929 . S
C2754 C2753 1.399 . S
C2754 C2755 1.385 . S
C2755 H2741 0.931 . S
C2755 C2754 1.385 . S
C2755 C2756 1.389 . S
C2756 C2755 1.389 . S
C2756 C2757 1.387 . S
C2757 H2742 0.930 . S
C2757 C2752 1.390 . S
C2757 C2756 1.387 . S
H2758 C2770 0.930 . S
H2759 C2772 0.936 . S
H2760 C2773 0.930 . S
H2761 C2777 0.959 . S
H2762 C2777 0.959 . S
H2763 C2777 0.961 . S
H2764 C2778 0.960 . S
H2765 C2778 0.961 . S
H2766 C2778 0.959 . S
H2767 C2781 0.929 . S
H2768 C2782 0.931 . S
H2769 C2784 0.930 . S
C2770 H2758 0.930 . S
C2770 C2771 1.399 . S
C2770 C2775 1.399 . S
C2771 C2770 1.399 . S
C2771 C2772 1.376 . S
C2772 H2759 0.936 . S
C2772 C2771 1.376 . S
C2772 C2773 1.388 . S
C2773 H2760 0.930 . S
C2773 C2772 1.388 . S
C2773 C2774 1.390 . S
C2774 C2773 1.390 . S
C2774 C2775 1.394 . S
C2774 C2780 1.465 . S
C2775 C2770 1.399 . S
C2775 C2774 1.394 . S
C2775 C2776 1.516 . S
C2776 C2775 1.516 . S
C2776 C2777 1.502 . S
C2776 C2778 1.561 . S
C2776 C2779 1.526 . S
C2777 H2761 0.959 . S
C2777 H2762 0.959 . S
C2777 H2763 0.961 . S
C2777 C2776 1.502 . S
C2778 H2764 0.960 . S
C2778 H2765 0.961 . S
C2778 H2766 0.959 . S
C2778 C2776 1.561 . S
C2779 C2776 1.526 . S
C2779 C2780 1.396 . S
C2779 C2784 1.390 . S
C2780 C2774 1.465 . S
C2780 C2779 1.396 . S
C2780 C2781 1.399 . S
C2781 H2767 0.929 . S
C2781 C2780 1.399 . S
C2781 C2782 1.385 . S
C2782 H2768 0.931 . S
C2782 C2781 1.385 . S
C2782 C2783 1.389 . S
C2783 C2782 1.389 . S
C2783 C2784 1.387 . S
C2784 H2769 0.930 . S
C2784 C2779 1.390 . S
C2784 C2783 1.387 . S
H2785 C2797 0.930 . S
H2786 C2799 0.930 . S
H2787 C2800 0.930 . S
H2788 C2804 0.959 . S
H2789 C2804 0.959 . S
H2790 C2804 0.961 1_565 S
H2791 C2805 0.960 . S
H2792 C2805 0.961 . S
H2793 C2805 0.959 . S
H2794 C2808 0.929 . S
H2795 C2809 0.910 1_556 S
H2796 C2811 0.930 . S
C2797 H2785 0.930 . S
C2797 C2798 1.399 . S
C2797 C2802 1.399 . S
C2798 C2797 1.399 . S
C2798 C2799 1.376 1_554 S
C2799 H2786 0.930 . S
C2799 C2798 1.376 1_556 S
C2799 C2800 1.388 . S
C2800 H2787 0.930 . S
C2800 C2799 1.388 . S
C2800 C2801 1.390 1_556 S
C2801 C2800 1.390 1_554 S
C2801 C2802 1.394 . S
C2801 C2807 1.465 . S
C2802 C2797 1.399 . S
C2802 C2801 1.394 . S
C2802 C2803 1.516 . S
C2803 C2802 1.516 . S
C2803 C2804 1.502 1_565 S
C2803 C2805 1.561 . S
C2803 C2806 1.526 . S
C2804 H2788 0.959 . S
C2804 H2789 0.959 . S
C2804 H2790 0.961 1_545 S
C2804 C2803 1.502 1_545 S
C2805 H2791 0.960 . S
C2805 H2792 0.961 . S
C2805 H2793 0.959 . S
C2805 C2803 1.561 . S
C2806 C2803 1.526 . S
C2806 C2807 1.396 . S
C2806 C2811 1.390 1_565 S
C2807 C2801 1.465 . S
C2807 C2806 1.396 . S
C2807 C2808 1.399 1_554 S
C2808 H2794 0.929 . S
C2808 C2807 1.399 1_556 S
C2808 C2809 1.380 1_566 S
C2809 H2795 0.910 1_554 S
C2809 C2808 1.380 1_544 S
C2809 C2810 1.416 . S
C2810 C2809 1.416 . S
C2810 C2811 1.387 . S
C2811 H2796 0.930 . S
C2811 C2806 1.390 1_545 S
C2811 C2810 1.387 . S
H2812 C2824 0.930 . S
H2813 C2826 0.930 . S
H2814 C2827 0.930 . S
H2815 C2831 0.959 . S
H2816 C2831 0.959 . S
H2817 C2831 0.961 . S
H2818 C2832 0.960 . S
H2819 C2832 0.961 . S
H2820 C2832 0.959 . S
H2821 C2835 0.929 . S
H2822 C2836 0.931 . S
H2823 C2838 0.930 . S
C2824 H2812 0.930 . S
C2824 C2825 1.399 . S
C2824 C2829 1.399 . S
C2825 C2824 1.399 . S
C2825 C2826 1.376 . S
C2826 H2813 0.930 . S
C2826 C2825 1.376 . S
C2826 C2827 1.388 . S
C2827 H2814 0.930 . S
C2827 C2826 1.388 . S
C2827 C2828 1.390 . S
C2828 C2827 1.390 . S
C2828 C2829 1.394 . S
C2828 C2834 1.465 . S
C2829 C2824 1.399 . S
C2829 C2828 1.394 . S
C2829 C2830 1.516 . S
C2830 C2829 1.516 . S
C2830 C2831 1.502 . S
C2830 C2832 1.561 . S
C2830 C2833 1.526 . S
C2831 H2815 0.959 . S
C2831 H2816 0.959 . S
C2831 H2817 0.961 . S
C2831 C2830 1.502 . S
C2832 H2818 0.960 . S
C2832 H2819 0.961 . S
C2832 H2820 0.959 . S
C2832 C2830 1.561 . S
C2833 C2830 1.526 . S
C2833 C2834 1.396 . S
C2833 C2838 1.390 . S
C2834 C2828 1.465 . S
C2834 C2833 1.396 . S
C2834 C2835 1.399 . S
C2835 H2821 0.929 . S
C2835 C2834 1.399 . S
C2835 C2836 1.385 . S
C2836 H2822 0.931 . S
C2836 C2835 1.385 . S
C2836 C2837 1.389 . S
C2837 C2836 1.389 . S
C2837 C2838 1.387 . S
C2838 H2823 0.930 . S
C2838 C2833 1.390 . S
C2838 C2837 1.387 . S
H2839 C2851 0.930 . S
H2840 C2853 0.930 1_556 S
H2841 C2854 0.894 1_556 S
H2842 C2858 0.959 . S
H2843 C2858 0.959 . S
H2844 C2858 0.961 . S
H2845 C2859 0.960 . S
H2846 C2859 0.961 . S
H2847 C2859 0.959 . S
H2848 C2862 0.929 . S
H2849 C2863 0.931 . S
H2850 C2865 0.930 . S
C2851 H2839 0.930 . S
C2851 C2852 1.399 . S
C2851 C2856 1.399 . S
C2852 C2851 1.399 . S
C2852 C2853 1.376 . S
C2853 H2840 0.930 1_554 S
C2853 C2852 1.376 . S
C2853 C2854 1.388 . S
C2854 H2841 0.894 1_554 S
C2854 C2853 1.388 . S
C2854 C2855 1.390 . S
C2855 C2854 1.390 . S
C2855 C2856 1.394 . S
C2855 C2861 1.465 . S
C2856 C2851 1.399 . S
C2856 C2855 1.394 . S
C2856 C2857 1.516 . S
C2857 C2856 1.516 . S
C2857 C2858 1.502 . S
C2857 C2859 1.561 . S
C2857 C2860 1.526 . S
C2858 H2842 0.959 . S
C2858 H2843 0.959 . S
C2858 H2844 0.961 . S
C2858 C2857 1.502 . S
C2859 H2845 0.960 . S
C2859 H2846 0.961 . S
C2859 H2847 0.959 . S
C2859 C2857 1.561 . S
C2860 C2857 1.526 . S
C2860 C2861 1.396 . S
C2860 C2865 1.390 . S
C2861 C2855 1.465 . S
C2861 C2860 1.396 . S
C2861 C2862 1.399 . S
C2862 H2848 0.929 . S
C2862 C2861 1.399 . S
C2862 C2863 1.385 . S
C2863 H2849 0.931 . S
C2863 C2862 1.385 . S
C2863 C2864 1.389 . S
C2864 C2863 1.389 . S
C2864 C2865 1.387 . S
C2865 H2850 0.930 . S
C2865 C2860 1.390 . S
C2865 C2864 1.387 . S
H2866 C2878 0.930 . S
H2867 C2880 0.930 . S
H2868 C2881 0.930 . S
H2869 C2885 0.959 . S
H2870 C2885 0.959 . S
H2871 C2885 0.961 . S
H2872 C2886 0.960 . S
H2873 C2886 0.961 . S
H2874 C2886 0.959 . S
H2875 C2889 0.929 . S
H2876 C2890 0.931 . S
H2877 C2892 0.930 . S
C2878 H2866 0.930 . S
C2878 C2879 1.399 . S
C2878 C2883 1.399 . S
C2879 C2878 1.399 . S
C2879 C2880 1.376 . S
C2880 H2867 0.930 . S
C2880 C2879 1.376 . S
C2880 C2881 1.388 . S
C2881 H2868 0.930 . S
C2881 C2880 1.388 . S
C2881 C2882 1.390 . S
C2882 C2881 1.390 . S
C2882 C2883 1.394 . S
C2882 C2888 1.465 . S
C2883 C2878 1.399 . S
C2883 C2882 1.394 . S
C2883 C2884 1.516 . S
C2884 C2883 1.516 . S
C2884 C2885 1.502 . S
C2884 C2886 1.561 . S
C2884 C2887 1.526 . S
C2885 H2869 0.959 . S
C2885 H2870 0.959 . S
C2885 H2871 0.961 . S
C2885 C2884 1.502 . S
C2886 H2872 0.960 . S
C2886 H2873 0.961 . S
C2886 H2874 0.959 . S
C2886 C2884 1.561 . S
C2887 C2884 1.526 . S
C2887 C2888 1.396 . S
C2887 C2892 1.390 . S
C2888 C2882 1.465 . S
C2888 C2887 1.396 . S
C2888 C2889 1.399 . S
C2889 H2875 0.929 . S
C2889 C2888 1.399 . S
C2889 C2890 1.385 . S
C2890 H2876 0.931 . S
C2890 C2889 1.385 . S
C2890 C2891 1.389 . S
C2891 C2890 1.389 . S
C2891 C2892 1.387 . S
C2892 H2877 0.930 . S
C2892 C2887 1.390 . S
C2892 C2891 1.387 . S
H2893 C2905 0.930 . S
H2894 C2907 0.930 . S
H2895 C2908 0.930 . S
H2896 C2912 0.959 . S
H2897 C2912 0.959 . S
H2898 C2912 0.961 . S
H2899 C2913 0.960 . S
H2900 C2913 0.961 . S
H2901 C2913 0.959 . S
H2902 C2916 0.929 . S
H2903 C2917 0.931 . S
H2904 C2919 0.930 . S
C2905 H2893 0.930 . S
C2905 C2906 1.399 . S
C2905 C2910 1.399 . S
C2906 C2905 1.399 . S
C2906 C2907 1.376 . S
C2907 H2894 0.930 . S
C2907 C2906 1.376 . S
C2907 C2908 1.388 . S
C2908 H2895 0.930 . S
C2908 C2907 1.388 . S
C2908 C2909 1.390 . S
C2909 C2908 1.390 . S
C2909 C2910 1.394 . S
C2909 C2915 1.465 . S
C2910 C2905 1.399 . S
C2910 C2909 1.394 . S
C2910 C2911 1.516 . S
C2911 C2910 1.516 . S
C2911 C2912 1.502 . S
C2911 C2913 1.561 . S
C2911 C2914 1.526 . S
C2912 H2896 0.959 . S
C2912 H2897 0.959 . S
C2912 H2898 0.961 . S
C2912 C2911 1.502 . S
C2913 H2899 0.960 . S
C2913 H2900 0.961 . S
C2913 H2901 0.959 . S
C2913 C2911 1.561 . S
C2914 C2911 1.526 . S
C2914 C2915 1.396 . S
C2914 C2919 1.390 . S
C2915 C2909 1.465 . S
C2915 C2914 1.396 . S
C2915 C2916 1.399 . S
C2916 H2902 0.929 . S
C2916 C2915 1.399 . S
C2916 C2917 1.385 . S
C2917 H2903 0.931 . S
C2917 C2916 1.385 . S
C2917 C2918 1.389 . S
C2918 C2917 1.389 . S
C2918 C2919 1.387 . S
C2919 H2904 0.930 . S
C2919 C2914 1.390 . S
C2919 C2918 1.387 . S
H2920 C2932 0.930 . S
H2921 C2934 0.930 . S
H2922 C2935 0.930 . S
H2923 C2939 0.959 . S
H2924 C2939 0.959 . S
H2925 C2939 0.961 . S
H2926 C2940 0.960 . S
H2927 C2940 0.961 . S
H2928 C2940 0.959 . S
H2929 C2943 0.929 . S
H2930 C2944 0.931 . S
H2931 C2946 0.930 . S
C2932 H2920 0.930 . S
C2932 C2933 1.399 . S
C2932 C2937 1.399 . S
C2933 C2932 1.399 . S
C2933 C2934 1.376 . S
C2934 H2921 0.930 . S
C2934 C2933 1.376 . S
C2934 C2935 1.388 . S
C2935 H2922 0.930 . S
C2935 C2934 1.388 . S
C2935 C2936 1.390 . S
C2936 C2935 1.390 . S
C2936 C2937 1.394 . S
C2936 C2942 1.465 . S
C2937 C2932 1.399 . S
C2937 C2936 1.394 . S
C2937 C2938 1.516 . S
C2938 C2937 1.516 . S
C2938 C2939 1.502 . S
C2938 C2940 1.561 . S
C2938 C2941 1.526 . S
C2939 H2923 0.959 . S
C2939 H2924 0.959 . S
C2939 H2925 0.961 . S
C2939 C2938 1.502 . S
C2940 H2926 0.960 . S
C2940 H2927 0.961 . S
C2940 H2928 0.959 . S
C2940 C2938 1.561 . S
C2941 C2938 1.526 . S
C2941 C2942 1.396 . S
C2941 C2946 1.390 . S
C2942 C2936 1.465 . S
C2942 C2941 1.396 . S
C2942 C2943 1.399 . S
C2943 H2929 0.929 . S
C2943 C2942 1.399 . S
C2943 C2944 1.385 . S
C2944 H2930 0.931 . S
C2944 C2943 1.385 . S
C2944 C2945 1.389 . S
C2945 C2944 1.389 . S
C2945 C2946 1.387 . S
C2946 H2931 0.930 . S
C2946 C2941 1.390 . S
C2946 C2945 1.387 . S
H2947 C2959 0.930 . S
H2948 C2961 0.930 . S
H2949 C2962 0.930 . S
H2950 C2966 0.959 . S
H2951 C2966 0.959 . S
H2952 C2966 0.961 . S
H2953 C2967 0.960 . S
H2954 C2967 0.961 . S
H2955 C2967 0.959 . S
H2956 C2970 0.929 . S
H2957 C2971 0.931 . S
H2958 C2973 0.930 . S
C2959 H2947 0.930 . S
C2959 C2960 1.399 . S
C2959 C2964 1.399 . S
C2960 C2959 1.399 . S
C2960 C2961 1.376 . S
C2961 H2948 0.930 . S
C2961 C2960 1.376 . S
C2961 C2962 1.388 . S
C2962 H2949 0.930 . S
C2962 C2961 1.388 . S
C2962 C2963 1.390 . S
C2963 C2962 1.390 . S
C2963 C2964 1.394 . S
C2963 C2969 1.465 . S
C2964 C2959 1.399 . S
C2964 C2963 1.394 . S
C2964 C2965 1.516 . S
C2965 C2964 1.516 . S
C2965 C2966 1.502 . S
C2965 C2967 1.561 . S
C2965 C2968 1.526 . S
C2966 H2950 0.959 . S
C2966 H2951 0.959 . S
C2966 H2952 0.961 . S
C2966 C2965 1.502 . S
C2967 H2953 0.960 . S
C2967 H2954 0.961 . S
C2967 H2955 0.959 . S
C2967 C2965 1.561 . S
C2968 C2965 1.526 . S
C2968 C2969 1.396 . S
C2968 C2973 1.390 . S
C2969 C2963 1.465 . S
C2969 C2968 1.396 . S
C2969 C2970 1.399 . S
C2970 H2956 0.929 . S
C2970 C2969 1.399 . S
C2970 C2971 1.385 . S
C2971 H2957 0.931 . S
C2971 C2970 1.385 . S
C2971 C2972 1.389 . S
C2972 C2971 1.389 . S
C2972 C2973 1.387 . S
C2973 H2958 0.930 . S
C2973 C2968 1.390 . S
C2973 C2972 1.387 . S
H2974 C2986 0.930 . S
H2975 C2988 0.930 . S
H2976 C2989 0.930 . S
H2977 C2993 0.959 . S
H2978 C2993 0.959 . S
H2979 C2993 0.961 . S
H2980 C2994 0.960 . S
H2981 C2994 0.961 . S
H2982 C2994 0.959 . S
H2983 C2997 0.929 . S
H2984 C2998 0.931 . S
H2985 C3000 0.930 . S
C2986 H2974 0.930 . S
C2986 C2987 1.399 . S
C2986 C2991 1.399 . S
C2987 C2986 1.399 . S
C2987 C2988 1.376 . S
C2988 H2975 0.930 . S
C2988 C2987 1.376 . S
C2988 C2989 1.388 . S
C2989 H2976 0.930 . S
C2989 C2988 1.388 . S
C2989 C2990 1.390 . S
C2990 C2989 1.390 . S
C2990 C2991 1.394 . S
C2990 C2996 1.465 . S
C2991 C2986 1.399 . S
C2991 C2990 1.394 . S
C2991 C2992 1.516 . S
C2992 C2991 1.516 . S
C2992 C2993 1.502 . S
C2992 C2994 1.561 . S
C2992 C2995 1.526 . S
C2993 H2977 0.959 . S
C2993 H2978 0.959 . S
C2993 H2979 0.961 . S
C2993 C2992 1.502 . S
C2994 H2980 0.960 . S
C2994 H2981 0.961 . S
C2994 H2982 0.959 . S
C2994 C2992 1.561 . S
C2995 C2992 1.526 . S
C2995 C2996 1.396 . S
C2995 C3000 1.390 . S
C2996 C2990 1.465 . S
C2996 C2995 1.396 . S
C2996 C2997 1.399 . S
C2997 H2983 0.929 . S
C2997 C2996 1.399 . S
C2997 C2998 1.385 . S
C2998 H2984 0.931 . S
C2998 C2997 1.385 . S
C2998 C2999 1.389 . S
C2999 C2998 1.389 . S
C2999 C3000 1.387 . S
C3000 H2985 0.930 . S
C3000 C2995 1.390 . S
C3000 C2999 1.387 . S
H3001 C3013 0.930 . S
H3002 C3015 0.930 . S
H3003 C3016 0.930 . S
H3004 C3020 0.959 . S
H3005 C3020 0.959 . S
H3006 C3020 0.961 . S
H3007 C3021 0.960 . S
H3008 C3021 0.961 . S
H3009 C3021 0.959 . S
H3010 C3024 0.929 . S
H3011 C3025 0.931 . S
H3012 C3027 0.930 . S
C3013 H3001 0.930 . S
C3013 C3014 1.399 . S
C3013 C3018 1.399 . S
C3014 C3013 1.399 . S
C3014 C3015 1.376 . S
C3015 H3002 0.930 . S
C3015 C3014 1.376 . S
C3015 C3016 1.388 . S
C3016 H3003 0.930 . S
C3016 C3015 1.388 . S
C3016 C3017 1.390 . S
C3017 C3016 1.390 . S
C3017 C3018 1.394 . S
C3017 C3023 1.465 . S
C3018 C3013 1.399 . S
C3018 C3017 1.394 . S
C3018 C3019 1.516 . S
C3019 C3018 1.516 . S
C3019 C3020 1.502 . S
C3019 C3021 1.561 . S
C3019 C3022 1.526 . S
C3020 H3004 0.959 . S
C3020 H3005 0.959 . S
C3020 H3006 0.961 . S
C3020 C3019 1.502 . S
C3021 H3007 0.960 . S
C3021 H3008 0.961 . S
C3021 H3009 0.959 . S
C3021 C3019 1.561 . S
C3022 C3019 1.526 . S
C3022 C3023 1.396 . S
C3022 C3027 1.390 . S
C3023 C3017 1.465 . S
C3023 C3022 1.396 . S
C3023 C3024 1.399 . S
C3024 H3010 0.929 . S
C3024 C3023 1.399 . S
C3024 C3025 1.385 . S
C3025 H3011 0.931 . S
C3025 C3024 1.385 . S
C3025 C3026 1.389 . S
C3026 C3025 1.389 . S
C3026 C3027 1.387 . S
C3027 H3012 0.930 . S
C3027 C3022 1.390 . S
C3027 C3026 1.387 . S
H3028 C3040 0.930 . S
H3029 C3042 0.930 . S
H3030 C3043 0.930 . S
H3031 C3047 0.959 . S
H3032 C3047 0.959 . S
H3033 C3047 0.961 . S
H3034 C3048 0.960 . S
H3035 C3048 0.961 . S
H3036 C3048 0.959 . S
H3037 C3051 0.929 . S
H3038 C3052 0.931 . S
H3039 C3054 0.930 . S
C3040 H3028 0.930 . S
C3040 C3041 1.399 . S
C3040 C3045 1.399 . S
C3041 C3040 1.399 . S
C3041 C3042 1.376 . S
C3042 H3029 0.930 . S
C3042 C3041 1.376 . S
C3042 C3043 1.388 . S
C3043 H3030 0.930 . S
C3043 C3042 1.388 . S
C3043 C3044 1.390 . S
C3044 C3043 1.390 . S
C3044 C3045 1.394 . S
C3044 C3050 1.465 . S
C3045 C3040 1.399 . S
C3045 C3044 1.394 . S
C3045 C3046 1.516 . S
C3046 C3045 1.516 . S
C3046 C3047 1.502 . S
C3046 C3048 1.561 . S
C3046 C3049 1.526 . S
C3047 H3031 0.959 . S
C3047 H3032 0.959 . S
C3047 H3033 0.961 . S
C3047 C3046 1.502 . S
C3048 H3034 0.960 . S
C3048 H3035 0.961 . S
C3048 H3036 0.959 . S
C3048 C3046 1.561 . S
C3049 C3046 1.526 . S
C3049 C3050 1.396 . S
C3049 C3054 1.390 . S
C3050 C3044 1.465 . S
C3050 C3049 1.396 . S
C3050 C3051 1.399 . S
C3051 H3037 0.929 . S
C3051 C3050 1.399 . S
C3051 C3052 1.385 . S
C3052 H3038 0.931 . S
C3052 C3051 1.385 . S
C3052 C3053 1.389 . S
C3053 C3052 1.389 . S
C3053 C3054 1.387 . S
C3054 H3039 0.930 . S
C3054 C3049 1.390 . S
C3054 C3053 1.387 . S
H3055 C3067 0.930 . S
H3056 C3069 0.930 . S
H3057 C3070 0.930 . S
H3058 C3074 0.959 . S
H3059 C3074 0.959 . S
H3060 C3074 0.961 . S
H3061 C3075 0.960 . S
H3062 C3075 0.961 . S
H3063 C3075 0.959 . S
H3064 C3078 0.929 . S
H3065 C3079 0.931 . S
H3066 C3081 0.930 . S
C3067 H3055 0.930 . S
C3067 C3068 1.399 . S
C3067 C3072 1.399 . S
C3068 C3067 1.399 . S
C3068 C3069 1.376 . S
C3069 H3056 0.930 . S
C3069 C3068 1.376 . S
C3069 C3070 1.388 . S
C3070 H3057 0.930 . S
C3070 C3069 1.388 . S
C3070 C3071 1.390 . S
C3071 C3070 1.390 . S
C3071 C3072 1.394 . S
C3071 C3077 1.465 . S
C3072 C3067 1.399 . S
C3072 C3071 1.394 . S
C3072 C3073 1.516 . S
C3073 C3072 1.516 . S
C3073 C3074 1.502 . S
C3073 C3075 1.561 . S
C3073 C3076 1.526 . S
C3074 H3058 0.959 . S
C3074 H3059 0.959 . S
C3074 H3060 0.961 . S
C3074 C3073 1.502 . S
C3075 H3061 0.960 . S
C3075 H3062 0.961 . S
C3075 H3063 0.959 . S
C3075 C3073 1.561 . S
C3076 C3073 1.526 . S
C3076 C3077 1.396 . S
C3076 C3081 1.390 . S
C3077 C3071 1.465 . S
C3077 C3076 1.396 . S
C3077 C3078 1.399 . S
C3078 H3064 0.929 . S
C3078 C3077 1.399 . S
C3078 C3079 1.385 . S
C3079 H3065 0.931 . S
C3079 C3078 1.385 . S
C3079 C3080 1.389 . S
C3080 C3079 1.389 . S
C3080 C3081 1.387 . S
C3081 H3066 0.930 . S
C3081 C3076 1.390 . S
C3081 C3080 1.387 . S
H3082 C3094 0.930 . S
H3083 C3096 0.930 . S
H3084 C3097 0.930 . S
H3085 C3101 0.959 . S
H3086 C3101 0.959 . S
H3087 C3101 0.961 . S
H3088 C3102 0.960 . S
H3089 C3102 0.961 . S
H3090 C3102 0.959 . S
H3091 C3105 0.929 1_655 S
H3092 C3106 0.931 . S
H3093 C3108 0.930 . S
C3094 H3082 0.930 . S
C3094 C3095 1.399 . S
C3094 C3099 1.399 . S
C3095 C3094 1.399 . S
C3095 C3096 1.376 . S
C3096 H3083 0.930 . S
C3096 C3095 1.376 . S
C3096 C3097 1.388 . S
C3097 H3084 0.930 . S
C3097 C3096 1.388 . S
C3097 C3098 1.390 . S
C3098 C3097 1.390 . S
C3098 C3099 1.394 . S
C3098 C3104 1.465 . S
C3099 C3094 1.399 . S
C3099 C3098 1.394 . S
C3099 C3100 1.516 . S
C3100 C3099 1.516 . S
C3100 C3101 1.502 . S
C3100 C3102 1.561 . S
C3100 C3103 1.526 . S
C3101 H3085 0.959 . S
C3101 H3086 0.959 . S
C3101 H3087 0.961 . S
C3101 C3100 1.502 . S
C3102 H3088 0.960 . S
C3102 H3089 0.961 . S
C3102 H3090 0.959 . S
C3102 C3100 1.561 . S
C3103 C3100 1.526 . S
C3103 C3104 1.396 . S
C3103 C3108 1.390 . S
C3104 C3098 1.465 . S
C3104 C3103 1.396 . S
C3104 C3105 1.399 . S
C3105 H3091 0.929 1_455 S
C3105 C3104 1.399 . S
C3105 C3106 1.385 . S
C3106 H3092 0.931 . S
C3106 C3105 1.385 . S
C3106 C3107 1.389 . S
C3107 C3106 1.389 . S
C3107 C3108 1.387 . S
C3108 H3093 0.930 . S
C3108 C3103 1.390 . S
C3108 C3107 1.387 . S
H3109 C3121 0.930 . S
H3110 C3123 0.930 . S
H3111 C3124 0.930 . S
H3112 C3128 0.959 . S
H3113 C3128 0.959 . S
H3114 C3128 0.961 . S
H3115 C3129 0.960 . S
H3116 C3129 0.961 . S
H3117 C3129 0.959 . S
H3118 C3132 0.929 . S
H3119 C3133 0.931 . S
H3120 C3135 0.930 . S
C3121 H3109 0.930 . S
C3121 C3122 1.399 . S
C3121 C3126 1.399 . S
C3122 C3121 1.399 . S
C3122 C3123 1.376 . S
C3123 H3110 0.930 . S
C3123 C3122 1.376 . S
C3123 C3124 1.388 . S
C3124 H3111 0.930 . S
C3124 C3123 1.388 . S
C3124 C3125 1.390 . S
C3125 C3124 1.390 . S
C3125 C3126 1.394 . S
C3125 C3131 1.465 . S
C3126 C3121 1.399 . S
C3126 C3125 1.394 . S
C3126 C3127 1.516 . S
C3127 C3126 1.516 . S
C3127 C3128 1.502 . S
C3127 C3129 1.561 . S
C3127 C3130 1.526 . S
C3128 H3112 0.959 . S
C3128 H3113 0.959 . S
C3128 H3114 0.961 . S
C3128 C3127 1.502 . S
C3129 H3115 0.960 . S
C3129 H3116 0.961 . S
C3129 H3117 0.959 . S
C3129 C3127 1.561 . S
C3130 C3127 1.526 . S
C3130 C3131 1.396 . S
C3130 C3135 1.390 . S
C3131 C3125 1.465 . S
C3131 C3130 1.396 . S
C3131 C3132 1.399 . S
C3132 H3118 0.929 . S
C3132 C3131 1.399 . S
C3132 C3133 1.385 . S
C3133 H3119 0.931 . S
C3133 C3132 1.385 . S
C3133 C3134 1.389 . S
C3134 C3133 1.389 . S
C3134 C3135 1.387 . S
C3135 H3120 0.930 . S
C3135 C3130 1.390 . S
C3135 C3134 1.387 . S
H3136 C3148 0.930 . S
H3137 C3150 0.930 . S
H3138 C3151 0.930 . S
H3139 C3155 0.959 . S
H3140 C3155 0.959 . S
H3141 C3155 0.961 . S
H3142 C3156 0.960 . S
H3143 C3156 0.961 . S
H3144 C3156 0.959 . S
H3145 C3159 0.929 . S
H3146 C3160 0.931 . S
H3147 C3162 0.930 . S
C3148 H3136 0.930 . S
C3148 C3149 1.399 . S
C3148 C3153 1.399 . S
C3149 C3148 1.399 . S
C3149 C3150 1.376 . S
C3150 H3137 0.930 . S
C3150 C3149 1.376 . S
C3150 C3151 1.388 . S
C3151 H3138 0.930 . S
C3151 C3150 1.388 . S
C3151 C3152 1.390 . S
C3152 C3151 1.390 . S
C3152 C3153 1.394 . S
C3152 C3158 1.465 . S
C3153 C3148 1.399 . S
C3153 C3152 1.394 . S
C3153 C3154 1.516 . S
C3154 C3153 1.516 . S
C3154 C3155 1.502 . S
C3154 C3156 1.561 . S
C3154 C3157 1.526 . S
C3155 H3139 0.959 . S
C3155 H3140 0.959 . S
C3155 H3141 0.961 . S
C3155 C3154 1.502 . S
C3156 H3142 0.960 . S
C3156 H3143 0.961 . S
C3156 H3144 0.959 . S
C3156 C3154 1.561 . S
C3157 C3154 1.526 . S
C3157 C3158 1.396 . S
C3157 C3162 1.390 . S
C3158 C3152 1.465 . S
C3158 C3157 1.396 . S
C3158 C3159 1.399 . S
C3159 H3145 0.929 . S
C3159 C3158 1.399 . S
C3159 C3160 1.385 . S
C3160 H3146 0.931 . S
C3160 C3159 1.385 . S
C3160 C3161 1.389 . S
C3161 C3160 1.389 . S
C3161 C3162 1.387 . S
C3162 H3147 0.930 . S
C3162 C3157 1.390 . S
C3162 C3161 1.387 . S
H3163 C3175 0.930 . S
H3164 C3177 0.930 . S
H3165 C3178 0.930 . S
H3166 C3182 0.959 . S
H3167 C3182 0.959 . S
H3168 C3182 0.961 . S
H3169 C3183 0.960 . S
H3170 C3183 0.961 . S
H3171 C3183 0.959 . S
H3172 C3186 0.929 . S
H3173 C3187 0.931 . S
H3174 C3189 0.930 . S
C3175 H3163 0.930 . S
C3175 C3176 1.399 . S
C3175 C3180 1.399 . S
C3176 C3175 1.399 . S
C3176 C3177 1.376 . S
C3177 H3164 0.930 . S
C3177 C3176 1.376 . S
C3177 C3178 1.388 . S
C3178 H3165 0.930 . S
C3178 C3177 1.388 . S
C3178 C3179 1.390 . S
C3179 C3178 1.390 . S
C3179 C3180 1.394 . S
C3179 C3185 1.465 . S
C3180 C3175 1.399 . S
C3180 C3179 1.394 . S
C3180 C3181 1.516 . S
C3181 C3180 1.516 . S
C3181 C3182 1.502 . S
C3181 C3183 1.561 . S
C3181 C3184 1.526 . S
C3182 H3166 0.959 . S
C3182 H3167 0.959 . S
C3182 H3168 0.961 . S
C3182 C3181 1.502 . S
C3183 H3169 0.960 . S
C3183 H3170 0.961 . S
C3183 H3171 0.959 . S
C3183 C3181 1.561 . S
C3184 C3181 1.526 . S
C3184 C3185 1.396 . S
C3184 C3189 1.390 . S
C3185 C3179 1.465 . S
C3185 C3184 1.396 . S
C3185 C3186 1.399 . S
C3186 H3172 0.929 . S
C3186 C3185 1.399 . S
C3186 C3187 1.385 . S
C3187 H3173 0.931 . S
C3187 C3186 1.385 . S
C3187 C3188 1.389 . S
C3188 C3187 1.389 . S
C3188 C3189 1.387 . S
C3189 H3174 0.930 . S
C3189 C3184 1.390 . S
C3189 C3188 1.387 . S
H3190 C3202 0.930 . S
H3191 C3204 0.930 . S
H3192 C3205 0.930 . S
H3193 C3209 0.959 . S
H3194 C3209 0.959 . S
H3195 C3209 0.961 . S
H3196 C3210 0.960 . S
H3197 C3210 0.961 . S
H3198 C3210 0.959 . S
H3199 C3213 0.929 . S
H3200 C3214 0.931 . S
H3201 C3216 0.930 . S
C3202 H3190 0.930 . S
C3202 C3203 1.399 . S
C3202 C3207 1.399 . S
C3203 C3202 1.399 . S
C3203 C3204 1.376 . S
C3204 H3191 0.930 . S
C3204 C3203 1.376 . S
C3204 C3205 1.388 . S
C3205 H3192 0.930 . S
C3205 C3204 1.388 . S
C3205 C3206 1.390 . S
C3206 C3205 1.390 . S
C3206 C3207 1.394 . S
C3206 C3212 1.465 . S
C3207 C3202 1.399 . S
C3207 C3206 1.394 . S
C3207 C3208 1.516 . S
C3208 C3207 1.516 . S
C3208 C3209 1.502 . S
C3208 C3210 1.561 . S
C3208 C3211 1.526 . S
C3209 H3193 0.959 . S
C3209 H3194 0.959 . S
C3209 H3195 0.961 . S
C3209 C3208 1.502 . S
C3210 H3196 0.960 . S
C3210 H3197 0.961 . S
C3210 H3198 0.959 . S
C3210 C3208 1.561 . S
C3211 C3208 1.526 . S
C3211 C3212 1.396 . S
C3211 C3216 1.390 . S
C3212 C3206 1.465 . S
C3212 C3211 1.396 . S
C3212 C3213 1.399 . S
C3213 H3199 0.929 . S
C3213 C3212 1.399 . S
C3213 C3214 1.385 1_655 S
C3214 H3200 0.931 . S
C3214 C3213 1.385 1_455 S
C3214 C3215 1.389 1_455 S
C3215 C3214 1.389 1_655 S
C3215 C3216 1.386 . S
C3216 H3201 0.930 . S
C3216 C3211 1.390 . S
C3216 C3215 1.386 . S
H3217 C3229 0.930 . S
H3218 C3231 0.930 . S
H3219 C3232 0.930 . S
H3220 C3236 0.959 . S
H3221 C3236 0.959 . S
H3222 C3236 0.961 . S
H3223 C3237 0.960 . S
H3224 C3237 0.961 . S
H3225 C3237 0.959 . S
H3226 C3240 0.929 . S
H3227 C3241 0.931 . S
H3228 C3243 0.930 . S
C3229 H3217 0.930 . S
C3229 C3230 1.399 . S
C3229 C3234 1.399 . S
C3230 C3229 1.399 . S
C3230 C3231 1.376 . S
C3231 H3218 0.930 . S
C3231 C3230 1.376 . S
C3231 C3232 1.388 . S
C3232 H3219 0.930 . S
C3232 C3231 1.388 . S
C3232 C3233 1.390 . S
C3233 C3232 1.390 . S
C3233 C3234 1.394 . S
C3233 C3239 1.465 . S
C3234 C3229 1.399 . S
C3234 C3233 1.394 . S
C3234 C3235 1.516 . S
C3235 C3234 1.516 . S
C3235 C3236 1.502 . S
C3235 C3237 1.561 . S
C3235 C3238 1.526 . S
C3236 H3220 0.959 . S
C3236 H3221 0.959 . S
C3236 H3222 0.961 . S
C3236 C3235 1.502 . S
C3237 H3223 0.960 . S
C3237 H3224 0.961 . S
C3237 H3225 0.959 . S
C3237 C3235 1.561 . S
C3238 C3235 1.526 . S
C3238 C3239 1.396 . S
C3238 C3243 1.390 . S
C3239 C3233 1.465 . S
C3239 C3238 1.396 . S
C3239 C3240 1.399 . S
C3240 H3226 0.929 . S
C3240 C3239 1.399 . S
C3240 C3241 1.385 . S
C3241 H3227 0.931 . S
C3241 C3240 1.385 . S
C3241 C3242 1.389 . S
C3242 C3241 1.389 . S
C3242 C3243 1.387 . S
C3243 H3228 0.930 . S
C3243 C3238 1.390 . S
C3243 C3242 1.387 . S
H3244 C3256 0.930 . S
H3245 C3258 0.930 . S
H3246 C3259 0.930 . S
H3247 C3263 0.959 . S
H3248 C3263 0.959 . S
H3249 C3263 0.961 . S
H3250 C3264 0.960 . S
H3251 C3264 0.961 . S
H3252 C3264 0.959 . S
H3253 C3267 0.929 . S
H3254 C3268 0.931 . S
H3255 C3270 0.930 . S
C3256 H3244 0.930 . S
C3256 C3257 1.399 . S
C3256 C3261 1.399 . S
C3257 C3256 1.399 . S
C3257 C3258 1.376 . S
C3258 H3245 0.930 . S
C3258 C3257 1.376 . S
C3258 C3259 1.388 . S
C3259 H3246 0.930 . S
C3259 C3258 1.388 . S
C3259 C3260 1.390 . S
C3260 C3259 1.390 . S
C3260 C3261 1.394 . S
C3260 C3266 1.465 . S
C3261 C3256 1.399 . S
C3261 C3260 1.394 . S
C3261 C3262 1.516 . S
C3262 C3261 1.516 . S
C3262 C3263 1.502 . S
C3262 C3264 1.561 . S
C3262 C3265 1.526 . S
C3263 H3247 0.959 . S
C3263 H3248 0.959 . S
C3263 H3249 0.961 . S
C3263 C3262 1.502 . S
C3264 H3250 0.960 . S
C3264 H3251 0.961 . S
C3264 H3252 0.959 . S
C3264 C3262 1.561 . S
C3265 C3262 1.526 . S
C3265 C3266 1.396 . S
C3265 C3270 1.390 . S
C3266 C3260 1.465 . S
C3266 C3265 1.396 . S
C3266 C3267 1.399 . S
C3267 H3253 0.929 . S
C3267 C3266 1.399 . S
C3267 C3268 1.385 . S
C3268 H3254 0.931 . S
C3268 C3267 1.385 . S
C3268 C3269 1.389 . S
C3269 C3268 1.389 . S
C3269 C3270 1.387 . S
C3270 H3255 0.930 . S
C3270 C3265 1.390 . S
C3270 C3269 1.387 . S
H3271 C3283 0.930 . S
H3272 C3285 0.930 . S
H3273 C3286 0.930 . S
H3274 C3290 0.959 . S
H3275 C3290 0.959 . S
H3276 C3290 0.961 . S
H3277 C3291 0.960 . S
H3278 C3291 0.961 . S
H3279 C3291 0.959 . S
H3280 C3294 0.929 . S
H3281 C3295 0.931 . S
H3282 C3297 0.930 . S
C3283 H3271 0.930 . S
C3283 C3284 1.399 . S
C3283 C3288 1.399 . S
C3284 C3283 1.399 . S
C3284 C3285 1.376 . S
C3285 H3272 0.930 . S
C3285 C3284 1.376 . S
C3285 C3286 1.388 . S
C3286 H3273 0.930 . S
C3286 C3285 1.388 . S
C3286 C3287 1.390 . S
C3287 C3286 1.390 . S
C3287 C3288 1.394 . S
C3287 C3293 1.465 . S
C3288 C3283 1.399 . S
C3288 C3287 1.394 . S
C3288 C3289 1.516 . S
C3289 C3288 1.516 . S
C3289 C3290 1.502 . S
C3289 C3291 1.561 . S
C3289 C3292 1.526 . S
C3290 H3274 0.959 . S
C3290 H3275 0.959 . S
C3290 H3276 0.961 . S
C3290 C3289 1.502 . S
C3291 H3277 0.960 . S
C3291 H3278 0.961 . S
C3291 H3279 0.959 . S
C3291 C3289 1.561 . S
C3292 C3289 1.526 . S
C3292 C3293 1.396 . S
C3292 C3297 1.390 . S
C3293 C3287 1.465 . S
C3293 C3292 1.396 . S
C3293 C3294 1.399 . S
C3294 H3280 0.929 . S
C3294 C3293 1.399 . S
C3294 C3295 1.385 . S
C3295 H3281 0.931 . S
C3295 C3294 1.385 . S
C3295 C3296 1.389 . S
C3296 C3295 1.389 . S
C3296 C3297 1.387 . S
C3297 H3282 0.930 . S
C3297 C3292 1.390 . S
C3297 C3296 1.387 . S
H3298 C3310 0.930 . S
H3299 C3312 0.930 . S
H3300 C3313 0.930 . S
H3301 C3317 0.959 . S
H3302 C3317 0.959 . S
H3303 C3317 0.961 . S
H3304 C3318 0.960 . S
H3305 C3318 0.961 . S
H3306 C3318 0.959 . S
H3307 C3321 0.929 . S
H3308 C3322 0.931 . S
H3309 C3324 0.930 . S
C3310 H3298 0.930 . S
C3310 C3311 1.399 . S
C3310 C3315 1.399 . S
C3311 C3310 1.399 . S
C3311 C3312 1.376 . S
C3312 H3299 0.930 . S
C3312 C3311 1.376 . S
C3312 C3313 1.388 . S
C3313 H3300 0.930 . S
C3313 C3312 1.388 . S
C3313 C3314 1.390 . S
C3314 C3313 1.390 . S
C3314 C3315 1.394 . S
C3314 C3320 1.465 . S
C3315 C3310 1.399 . S
C3315 C3314 1.394 . S
C3315 C3316 1.516 . S
C3316 C3315 1.516 . S
C3316 C3317 1.502 . S
C3316 C3318 1.561 . S
C3316 C3319 1.526 . S
C3317 H3301 0.959 . S
C3317 H3302 0.959 . S
C3317 H3303 0.961 . S
C3317 C3316 1.502 . S
C3318 H3304 0.960 . S
C3318 H3305 0.961 . S
C3318 H3306 0.959 . S
C3318 C3316 1.561 . S
C3319 C3316 1.526 . S
C3319 C3320 1.396 . S
C3319 C3324 1.390 . S
C3320 C3314 1.465 . S
C3320 C3319 1.396 . S
C3320 C3321 1.399 . S
C3321 H3307 0.929 . S
C3321 C3320 1.399 . S
C3321 C3322 1.385 . S
C3322 H3308 0.931 . S
C3322 C3321 1.385 . S
C3322 C3323 1.389 . S
C3323 C3322 1.389 . S
C3323 C3324 1.387 . S
C3324 H3309 0.930 . S
C3324 C3319 1.390 . S
C3324 C3323 1.387 . S
H3325 C3337 0.930 . S
H3326 C3339 0.930 . S
H3327 C3340 0.930 . S
H3328 C3344 0.959 . S
H3329 C3344 0.959 . S
H3330 C3344 0.961 . S
H3331 C3345 0.960 . S
H3332 C3345 0.961 . S
H3333 C3345 0.959 . S
H3334 C3348 0.929 . S
H3335 C3349 0.931 . S
H3336 C3351 0.930 . S
C3337 H3325 0.930 . S
C3337 C3338 1.399 . S
C3337 C3342 1.399 . S
C3338 C3337 1.399 . S
C3338 C3339 1.376 . S
C3339 H3326 0.930 . S
C3339 C3338 1.376 . S
C3339 C3340 1.388 . S
C3340 H3327 0.930 . S
C3340 C3339 1.388 . S
C3340 C3341 1.390 . S
C3341 C3340 1.390 . S
C3341 C3342 1.394 . S
C3341 C3347 1.465 . S
C3342 C3337 1.399 . S
C3342 C3341 1.394 . S
C3342 C3343 1.516 . S
C3343 C3342 1.516 . S
C3343 C3344 1.502 . S
C3343 C3345 1.561 . S
C3343 C3346 1.526 . S
C3344 H3328 0.959 . S
C3344 H3329 0.959 . S
C3344 H3330 0.961 . S
C3344 C3343 1.502 . S
C3345 H3331 0.960 . S
C3345 H3332 0.961 . S
C3345 H3333 0.959 . S
C3345 C3343 1.561 . S
C3346 C3343 1.526 . S
C3346 C3347 1.396 . S
C3346 C3351 1.390 . S
C3347 C3341 1.465 . S
C3347 C3346 1.396 . S
C3347 C3348 1.399 . S
C3348 H3334 0.929 . S
C3348 C3347 1.399 . S
C3348 C3349 1.385 . S
C3349 H3335 0.931 . S
C3349 C3348 1.385 . S
C3349 C3350 1.389 . S
C3350 C3349 1.389 . S
C3350 C3351 1.387 . S
C3351 H3336 0.930 . S
C3351 C3346 1.390 . S
C3351 C3350 1.387 . S
H3352 C3364 0.930 . S
H3353 C3366 0.930 . S
H3354 C3367 0.930 . S
H3355 C3371 0.959 . S
H3356 C3371 0.959 . S
H3357 C3371 0.961 . S
H3358 C3372 0.960 . S
H3359 C3372 0.961 . S
H3360 C3372 0.959 . S
H3361 C3375 0.929 . S
H3362 C3376 0.931 . S
H3363 C3378 0.930 . S
C3364 H3352 0.930 . S
C3364 C3365 1.399 . S
C3364 C3369 1.399 . S
C3365 C3364 1.399 . S
C3365 C3366 1.376 . S
C3366 H3353 0.930 . S
C3366 C3365 1.376 . S
C3366 C3367 1.388 . S
C3367 H3354 0.930 . S
C3367 C3366 1.388 . S
C3367 C3368 1.390 . S
C3368 C3367 1.390 . S
C3368 C3369 1.394 . S
C3368 C3374 1.465 . S
C3369 C3364 1.399 . S
C3369 C3368 1.394 . S
C3369 C3370 1.516 . S
C3370 C3369 1.516 . S
C3370 C3371 1.502 . S
C3370 C3372 1.561 . S
C3370 C3373 1.526 . S
C3371 H3355 0.959 . S
C3371 H3356 0.959 . S
C3371 H3357 0.961 . S
C3371 C3370 1.502 . S
C3372 H3358 0.960 . S
C3372 H3359 0.961 . S
C3372 H3360 0.959 . S
C3372 C3370 1.561 . S
C3373 C3370 1.526 . S
C3373 C3374 1.396 . S
C3373 C3378 1.390 . S
C3374 C3368 1.465 . S
C3374 C3373 1.396 . S
C3374 C3375 1.399 . S
C3375 H3361 0.929 . S
C3375 C3374 1.399 . S
C3375 C3376 1.385 . S
C3376 H3362 0.931 . S
C3376 C3375 1.385 . S
C3376 C3377 1.389 . S
C3377 C3376 1.389 . S
C3377 C3378 1.387 . S
C3378 H3363 0.930 . S
C3378 C3373 1.390 . S
C3378 C3377 1.387 . S
H3379 C3391 0.930 . S
H3380 C3393 0.930 . S
H3381 C3394 0.930 . S
H3382 C3398 0.959 . S
H3383 C3398 0.959 . S
H3384 C3398 0.961 . S
H3385 C3399 0.960 . S
H3386 C3399 0.961 . S
H3387 C3399 0.959 . S
H3388 C3402 0.919 1_545 S
H3389 C3403 0.931 . S
H3390 C3405 0.930 . S
C3391 H3379 0.930 . S
C3391 C3392 1.399 . S
C3391 C3396 1.399 . S
C3392 C3391 1.399 . S
C3392 C3393 1.376 . S
C3393 H3380 0.930 . S
C3393 C3392 1.376 . S
C3393 C3394 1.388 . S
C3394 H3381 0.930 . S
C3394 C3393 1.388 . S
C3394 C3395 1.390 . S
C3395 C3394 1.390 . S
C3395 C3396 1.394 . S
C3395 C3401 1.465 . S
C3396 C3391 1.399 . S
C3396 C3395 1.394 . S
C3396 C3397 1.516 . S
C3397 C3396 1.516 . S
C3397 C3398 1.502 . S
C3397 C3399 1.561 . S
C3397 C3400 1.526 . S
C3398 H3382 0.959 . S
C3398 H3383 0.959 . S
C3398 H3384 0.961 . S
C3398 C3397 1.502 . S
C3399 H3385 0.960 . S
C3399 H3386 0.961 . S
C3399 H3387 0.959 . S
C3399 C3397 1.561 . S
C3400 C3397 1.526 . S
C3400 C3401 1.396 . S
C3400 C3405 1.390 . S
C3401 C3395 1.465 . S
C3401 C3400 1.396 . S
C3401 C3402 1.416 . S
C3402 H3388 0.919 1_565 S
C3402 C3401 1.416 . S
C3402 C3403 1.378 1_565 S
C3403 H3389 0.931 . S
C3403 C3402 1.378 1_545 S
C3403 C3404 1.389 . S
C3404 C3403 1.389 . S
C3404 C3405 1.387 1_545 S
C3405 H3390 0.930 . S
C3405 C3400 1.390 . S
C3405 C3404 1.387 1_565 S
H3406 C3418 0.930 . S
H3407 C3420 0.930 . S
H3408 C3421 0.930 . S
H3409 C3425 0.959 . S
H3410 C3425 0.959 . S
H3411 C3425 0.961 . S
H3412 C3426 0.960 . S
H3413 C3426 0.961 . S
H3414 C3426 0.959 . S
H3415 C3429 0.929 . S
H3416 C3430 0.931 . S
H3417 C3432 0.930 . S
C3418 H3406 0.930 . S
C3418 C3419 1.399 . S
C3418 C3423 1.399 . S
C3419 C3418 1.399 . S
C3419 C3420 1.376 . S
C3420 H3407 0.930 . S
C3420 C3419 1.376 . S
C3420 C3421 1.388 . S
C3421 H3408 0.930 . S
C3421 C3420 1.388 . S
C3421 C3422 1.390 . S
C3422 C3421 1.390 . S
C3422 C3423 1.394 . S
C3422 C3428 1.465 . S
C3423 C3418 1.399 . S
C3423 C3422 1.394 . S
C3423 C3424 1.516 . S
C3424 C3423 1.516 . S
C3424 C3425 1.502 . S
C3424 C3426 1.561 . S
C3424 C3427 1.526 . S
C3425 H3409 0.959 . S
C3425 H3410 0.959 . S
C3425 H3411 0.961 . S
C3425 C3424 1.502 . S
C3426 H3412 0.960 . S
C3426 H3413 0.961 . S
C3426 H3414 0.959 . S
C3426 C3424 1.561 . S
C3427 C3424 1.526 . S
C3427 C3428 1.396 . S
C3427 C3432 1.390 . S
C3428 C3422 1.465 . S
C3428 C3427 1.396 . S
C3428 C3429 1.399 . S
C3429 H3415 0.929 . S
C3429 C3428 1.399 . S
C3429 C3430 1.385 . S
C3430 H3416 0.931 . S
C3430 C3429 1.385 . S
C3430 C3431 1.389 . S
C3431 C3430 1.389 . S
C3431 C3432 1.387 . S
C3432 H3417 0.930 . S
C3432 C3427 1.390 . S
C3432 C3431 1.387 . S
H3433 C3445 0.930 . S
H3434 C3447 0.930 . S
H3435 C3448 0.930 . S
H3436 C3452 0.959 . S
H3437 C3452 0.959 1_556 S
H3438 C3452 0.961 . S
H3439 C3453 0.938 1_556 S
H3440 C3453 0.933 1_556 S
H3441 C3453 0.980 . S
H3442 C3456 0.929 . S
H3443 C3457 0.931 . S
H3444 C3459 0.930 . S
C3445 H3433 0.930 . S
C3445 C3446 1.399 . S
C3445 C3450 1.399 . S
C3446 C3445 1.399 . S
C3446 C3447 1.376 . S
C3447 H3434 0.930 . S
C3447 C3446 1.376 . S
C3447 C3448 1.388 . S
C3448 H3435 0.930 . S
C3448 C3447 1.388 . S
C3448 C3449 1.390 . S
C3449 C3448 1.390 . S
C3449 C3450 1.394 . S
C3449 C3455 1.465 . S
C3450 C3445 1.399 . S
C3450 C3449 1.394 . S
C3450 C3451 1.516 . S
C3451 C3450 1.516 . S
C3451 C3452 1.502 . S
C3451 C3453 1.592 . S
C3451 C3454 1.526 . S
C3452 H3436 0.959 . S
C3452 H3437 0.959 1_554 S
C3452 H3438 0.961 . S
C3452 C3451 1.502 . S
C3453 H3439 0.938 1_554 S
C3453 H3440 0.933 1_554 S
C3453 H3441 0.980 . S
C3453 C3451 1.592 . S
C3454 C3451 1.526 . S
C3454 C3455 1.396 . S
C3454 C3459 1.390 . S
C3455 C3449 1.465 . S
C3455 C3454 1.396 . S
C3455 C3456 1.399 . S
C3456 H3442 0.929 . S
C3456 C3455 1.399 . S
C3456 C3457 1.385 . S
C3457 H3443 0.931 . S
C3457 C3456 1.385 . S
C3457 C3458 1.389 . S
C3458 C3457 1.389 . S
C3458 C3459 1.387 . S
C3459 H3444 0.930 . S
C3459 C3454 1.390 . S
C3459 C3458 1.387 . S
H3460 C3472 0.930 . S
H3461 C3474 0.930 . S
H3462 C3475 0.930 . S
H3463 C3479 0.959 . S
H3464 C3479 0.959 . S
H3465 C3479 0.961 . S
H3466 C3480 0.960 . S
H3467 C3480 0.961 . S
H3468 C3480 0.959 . S
H3469 C3483 0.929 . S
H3470 C3484 0.931 . S
H3471 C3486 0.930 . S
C3472 H3460 0.930 . S
C3472 C3473 1.399 . S
C3472 C3477 1.399 . S
C3473 C3472 1.399 . S
C3473 C3474 1.376 . S
C3474 H3461 0.930 . S
C3474 C3473 1.376 . S
C3474 C3475 1.388 . S
C3475 H3462 0.930 . S
C3475 C3474 1.388 . S
C3475 C3476 1.390 . S
C3476 C3475 1.390 . S
C3476 C3477 1.394 . S
C3476 C3482 1.465 . S
C3477 C3472 1.399 . S
C3477 C3476 1.394 . S
C3477 C3478 1.516 . S
C3478 C3477 1.516 . S
C3478 C3479 1.502 . S
C3478 C3480 1.561 . S
C3478 C3481 1.526 . S
C3479 H3463 0.959 . S
C3479 H3464 0.959 . S
C3479 H3465 0.961 . S
C3479 C3478 1.502 . S
C3480 H3466 0.960 . S
C3480 H3467 0.961 . S
C3480 H3468 0.959 . S
C3480 C3478 1.561 . S
C3481 C3478 1.526 . S
C3481 C3482 1.396 . S
C3481 C3486 1.390 . S
C3482 C3476 1.465 . S
C3482 C3481 1.396 . S
C3482 C3483 1.399 . S
C3483 H3469 0.929 . S
C3483 C3482 1.399 . S
C3483 C3484 1.385 . S
C3484 H3470 0.931 . S
C3484 C3483 1.385 . S
C3484 C3485 1.389 . S
C3485 C3484 1.389 . S
C3485 C3486 1.387 . S
C3486 H3471 0.930 . S
C3486 C3481 1.390 . S
C3486 C3485 1.387 . S
H3487 C3499 0.930 . S
H3488 C3501 0.957 . S
H3489 C3502 0.980 . S
H3490 C3506 0.959 . S
H3491 C3506 0.959 . S
H3492 C3506 0.961 . S
H3493 C3507 0.960 . S
H3494 C3507 0.961 . S
H3495 C3507 0.959 . S
H3496 C3510 0.929 . S
H3497 C3511 0.931 . S
H3498 C3513 0.930 . S
C3499 H3487 0.930 . S
C3499 C3500 1.399 . S
C3499 C3504 1.399 . S
C3500 C3499 1.399 . S
C3500 C3501 1.376 . S
C3501 H3488 0.957 . S
C3501 C3500 1.376 . S
C3501 C3502 1.367 1_554 S
C3502 H3489 0.980 . S
C3502 C3501 1.367 1_556 S
C3502 C3503 1.362 1_556 S
C3503 C3502 1.362 1_554 S
C3503 C3504 1.394 . S
C3503 C3509 1.465 . S
C3504 C3499 1.399 . S
C3504 C3503 1.394 . S
C3504 C3505 1.516 . S
C3505 C3504 1.516 . S
C3505 C3506 1.502 . S
C3505 C3507 1.561 . S
C3505 C3508 1.526 . S
C3506 H3490 0.959 . S
C3506 H3491 0.959 . S
C3506 H3492 0.961 . S
C3506 C3505 1.502 . S
C3507 H3493 0.960 . S
C3507 H3494 0.961 . S
C3507 H3495 0.959 . S
C3507 C3505 1.561 . S
C3508 C3505 1.526 . S
C3508 C3509 1.396 . S
C3508 C3513 1.390 . S
C3509 C3503 1.465 . S
C3509 C3508 1.396 . S
C3509 C3510 1.399 1_554 S
C3510 H3496 0.929 . S
C3510 C3509 1.399 1_556 S
C3510 C3511 1.385 . S
C3511 H3497 0.931 . S
C3511 C3510 1.385 . S
C3511 C3512 1.389 1_556 S
C3512 C3511 1.389 1_554 S
C3512 C3513 1.387 . S
C3513 H3498 0.930 . S
C3513 C3508 1.390 . S
C3513 C3512 1.387 . S
H3514 C3526 0.930 . S
H3515 C3528 0.930 . S
H3516 C3529 0.930 . S
H3517 C3533 0.959 . S
H3518 C3533 0.959 . S
H3519 C3533 0.961 . S
H3520 C3534 0.960 . S
H3521 C3534 0.961 . S
H3522 C3534 0.959 . S
H3523 C3537 0.929 . S
H3524 C3538 0.931 . S
H3525 C3540 0.930 . S
C3526 H3514 0.930 . S
C3526 C3527 1.399 . S
C3526 C3531 1.399 . S
C3527 C3526 1.399 . S
C3527 C3528 1.376 . S
C3528 H3515 0.930 . S
C3528 C3527 1.376 . S
C3528 C3529 1.388 . S
C3529 H3516 0.930 . S
C3529 C3528 1.388 . S
C3529 C3530 1.390 . S
C3530 C3529 1.390 . S
C3530 C3531 1.394 . S
C3530 C3536 1.465 . S
C3531 C3526 1.399 . S
C3531 C3530 1.394 . S
C3531 C3532 1.516 . S
C3532 C3531 1.516 . S
C3532 C3533 1.502 . S
C3532 C3534 1.561 . S
C3532 C3535 1.526 . S
C3533 H3517 0.959 . S
C3533 H3518 0.959 . S
C3533 H3519 0.961 . S
C3533 C3532 1.502 . S
C3534 H3520 0.960 . S
C3534 H3521 0.961 . S
C3534 H3522 0.959 . S
C3534 C3532 1.561 . S
C3535 C3532 1.526 . S
C3535 C3536 1.396 . S
C3535 C3540 1.390 . S
C3536 C3530 1.465 . S
C3536 C3535 1.396 . S
C3536 C3537 1.399 . S
C3537 H3523 0.929 . S
C3537 C3536 1.399 . S
C3537 C3538 1.385 . S
C3538 H3524 0.931 . S
C3538 C3537 1.385 . S
C3538 C3539 1.389 . S
C3539 C3538 1.389 . S
C3539 C3540 1.387 . S
C3540 H3525 0.930 . S
C3540 C3535 1.390 . S
C3540 C3539 1.387 . S
H3541 C3553 0.930 . S
H3542 C3555 0.930 . S
H3543 C3556 0.930 . S
H3544 C3560 0.959 . S
H3545 C3560 0.959 . S
H3546 C3560 0.961 . S
H3547 C3561 0.960 . S
H3548 C3561 0.961 . S
H3549 C3561 0.959 . S
H3550 C3564 0.929 . S
H3551 C3565 0.931 . S
H3552 C3567 0.930 . S
C3553 H3541 0.930 . S
C3553 C3554 1.399 . S
C3553 C3558 1.399 . S
C3554 C3553 1.399 . S
C3554 C3555 1.376 . S
C3555 H3542 0.930 . S
C3555 C3554 1.376 . S
C3555 C3556 1.388 . S
C3556 H3543 0.930 . S
C3556 C3555 1.388 . S
C3556 C3557 1.390 . S
C3557 C3556 1.390 . S
C3557 C3558 1.394 . S
C3557 C3563 1.465 . S
C3558 C3553 1.399 . S
C3558 C3557 1.394 . S
C3558 C3559 1.516 . S
C3559 C3558 1.516 . S
C3559 C3560 1.502 . S
C3559 C3561 1.561 . S
C3559 C3562 1.526 . S
C3560 H3544 0.959 . S
C3560 H3545 0.959 . S
C3560 H3546 0.961 . S
C3560 C3559 1.502 . S
C3561 H3547 0.960 . S
C3561 H3548 0.961 . S
C3561 H3549 0.959 . S
C3561 C3559 1.561 . S
C3562 C3559 1.526 . S
C3562 C3563 1.396 . S
C3562 C3567 1.390 . S
C3563 C3557 1.465 . S
C3563 C3562 1.396 . S
C3563 C3564 1.399 . S
C3564 H3550 0.929 . S
C3564 C3563 1.399 . S
C3564 C3565 1.385 . S
C3565 H3551 0.931 . S
C3565 C3564 1.385 . S
C3565 C3566 1.389 . S
C3566 C3565 1.389 . S
C3566 C3567 1.387 . S
C3567 H3552 0.930 . S
C3567 C3562 1.390 . S
C3567 C3566 1.387 . S
C989 C105 2.253 1_455 S
C1001 C349 2.202 . S
C1016 C65 2.087 . S
C1028 C400 2.061 . S
C1043 C73 1.641 . S
C1055 C429 1.641 . S
C1082 C473 1.429 . S
C1070 C92 1.477 . S
C1097 C17 1.426 . S
C1109 C513 1.327 . S
C1136 C549 1.613 . S
C1124 C37 1.592 . S
C1163 C599 1.878 . S
C1151 C49 1.755 . S
C1178 C8 2.304 . S
C1190 C629 2.291 . S
C1217 C359 1.905 . S
C1205 C231 1.917 . S
C1232 C241 0.634 . S
C1244 C402 0.743 . S
C1271 C439 1.278 . S
C1259 C273 1.260 . S
C1298 C469 1.430 . S
C1286 C171 1.431 . S
C1313 C227 1.441 . S
C1325 C509 1.436 . S
C1352 C559 0.914 . S
C1340 C245 0.886 . S
C1379 C593 0.916 . S
C1367 C269 0.851 . S
C1406 C639 1.888 . S
C1394 C175 1.900 . S
C1433 C353 1.124 . S
C1421 C162 1.256 1_554 S
C1448 C289 1.720 . S
C1460 C679 1.706 . S
C1487 C713 1.470 . S
C1475 C330 1.504 . S
C1514 C749 0.914 . S
C1502 C317 0.900 . S
C1529 C120 1.440 . S
C1541 C633 1.325 . S
C1556 C134 1.556 . S
C1568 C433 1.485 . S
C1583 C331 1.605 . S
C1595 C799 1.596 . S
C1622 C818 0.380 . S
C1610 C303 0.304 . S
C1649 C360 2.219 . S
C1637 C59 2.207 . S
C1676 C829 2.111 . S
C1664 C107 2.122 . S
C1691 C91 1.672 . S
C1703 C440 1.697 . S
C1718 C78 1.482 . S
C1730 C802 1.499 . S
C1757 C522 1.385 . S
C1745 C7 1.386 . S
C1772 C51 1.661 . S
C1784 C720 1.666 . S
C1811 C578 1.929 1_566 S
C1799 C31 1.927 . S
C1838 C880 2.297 . S
C1826 C22 2.296 . S
C1865 C338 1.960 . S
C1853 C143 1.979 . S
C1892 C833 0.711 . S
C1880 C315 0.583 . S
C1907 C115 1.307 . S
C1919 C418 1.270 . S
C1934 C287 1.416 . S
C1946 C800 1.440 . S
C1961 C147 1.446 . S
C1973 C520 1.505 . S
C2000 C698 0.959 . S
C1988 C311 0.959 . S
C2015 C119 0.796 . S
C2027 C602 0.928 . S
C2042 C283 1.965 . S
C2054 C858 1.914 . S
C2069 C190 1.249 . S
C2081 C362 1.108 . S
C2096 C177 1.767 . S
C2108 C658 1.764 . S
C2123 C260 1.501 . S
C2135 C562 1.405 . S
C2150 C247 0.894 . S
C2162 C760 0.914 . S
C2189 C882 1.404 . S
C2177 C274 1.353 . S
C2204 C218 1.522 . S
C2216 C442 1.534 . S
C2243 C458 1.637 . S
C2231 C261 1.636 . S
C2270 C399 0.369 . S
C2258 C205 0.350 . S
C2285 C77 2.244 . S
C2297 C909 2.225 . S
C2324 C840 2.061 . S
C2312 C93 2.095 . S
C2339 C101 1.639 . S
C2351 C949 1.640 . S
C2366 C64 1.483 1_655 S
C2378 C793 1.421 . S
C2393 C45 1.424 . S
C2405 C673 1.370 . S
C2432 C709 1.608 . S
C2420 C9 1.588 . S
C2459 C759 1.885 . S
C2447 C21 1.779 . S
C2486 C869 2.294 . S
C2474 C36 2.307 . S
C2513 C919 1.905 . S
C2501 C259 1.918 . S
C2528 C185 0.679 . S
C2540 C842 0.583 . S
C2567 C959 1.279 . S
C2555 C203 1.257 . S
C2594 C789 1.380 . S
C2582 C213 1.403 . S
C2621 C669 1.456 . S
C2609 C255 1.453 . S
C2636 C189 0.959 . S
C2648 C719 0.940 . S
C2675 C753 0.912 . S
C2663 C199 0.849 . S
C2690 C217 1.906 . S
C2702 C879 1.894 . S
C2729 C913 1.174 . S
C2717 C316 1.224 . S
C2744 C135 1.731 . S
C2756 C519 1.725 . S
C2783 C553 1.419 . S
C2771 C148 1.484 1_565 S
C2810 C589 0.848 . S
C2798 C163 0.881 . S
C2837 C873 1.339 . S
C2825 C302 1.434 . S
C2852 C288 1.562 . S
C2864 C953 1.477 . S
C2891 C479 1.620 . S
C2879 C149 1.619 . S
C2918 C378 0.242 . S
C2906 C121 0.234 . S
C2933 C87 2.244 . S
C2945 C920 2.248 . S
C2972 C389 2.126 . S
C2960 C79 2.146 . S
C2987 C63 1.686 . S
C2999 C960 1.696 . S
C3014 C106 1.472 . S
C3026 C482 1.509 . S
C3041 C35 1.398 . S
C3053 C682 1.378 . S
C3080 C560 1.659 . S
C3068 C23 1.643 . S
C3095 C3 1.903 . S
C3107 C738 1.909 . S
C3122 C50 2.299 . S
C3134 C640 2.308 . S
C3161 C898 1.962 . S
C3149 C325 1.978 . S
C3176 C161 0.574 . S
C3188 C393 0.733 . S
C3215 C938 1.299 1_655 S
C3203 C297 1.274 . S
C3230 C133 1.422 . S
C3242 C480 1.437 . S
C3257 C329 1.506 . S
C3269 C680 1.489 . S
C3296 C538 0.973 . S
C3284 C157 0.960 . S
C3311 C301 0.795 . S
C3323 C762 0.929 . S
C3350 C618 1.951 . S
C3338 C129 1.942 . S
C3377 C922 1.110 . S
C3365 C246 1.250 . S
C3404 C498 1.751 . S
C3392 C219 1.760 . S
C3419 C232 1.505 . S
C3431 C722 1.401 . S
C3458 C600 0.911 . S
C3446 C191 0.938 . S
C3473 C204 1.359 . S
C3485 C642 1.405 . S
C3500 C176 1.510 . S
C3512 C962 1.551 . S
C3539 C778 1.640 . S
C3527 C233 1.645 . S
C3566 C839 0.390 . S
C3554 C275 0.219 . S
