# Generated by pormake.
# Topology ssa, (4,4)-cn, num edge types: 1
# Building blocks:
#     Node 0, Type 0, BuildingBlock: NAWXER_clean_sbu_0, # of connection points: 4
#     Node 1, Type 0, BuildingBlock: NAWXER_clean_sbu_0, # of connection points: 4
#     Node 2, Type 0, BuildingBlock: NAWXER_clean_sbu_0, # of connection points: 4
#     Node 3, Type 0, BuildingBlock: NAWXER_clean_sbu_0, # of connection points: 4
#     Node 4, Type 0, BuildingBlock: NAWXER_clean_sbu_0, # of connection points: 4
#     Node 5, Type 0, BuildingBlock: NAWXER_clean_sbu_0, # of connection points: 4
#     Node 6, Type 1, BuildingBlock: NAWXER_clean_sbu_0, # of connection points: 4
#     Node 7, Type 1, BuildingBlock: NAWXER_clean_sbu_0, # of connection points: 4
#     Node 8, Type 1, BuildingBlock: NAWXER_clean_sbu_0, # of connection points: 4
#     Node 9, Type 1, BuildingBlock: NAWXER_clean_sbu_0, # of connection points: 4
#     Node 10, Type 1, BuildingBlock: NAWXER_clean_sbu_0, # of connection points: 4
#     Node 11, Type 1, BuildingBlock: NAWXER_clean_sbu_0, # of connection points: 4
#     Edge 12, Type (0, 1), BuildingBlock: ZUJKAS_clean_linker_0, # of connection points: 2
#     Edge 13, Type (0, 1), BuildingBlock: ZUJKAS_clean_linker_0, # of connection points: 2
#     Edge 14, Type (0, 1), BuildingBlock: ZUJKAS_clean_linker_0, # of connection points: 2
#     Edge 15, Type (0, 1), BuildingBlock: ZUJKAS_clean_linker_0, # of connection points: 2
#     Edge 16, Type (0, 1), BuildingBlock: ZUJKAS_clean_linker_0, # of connection points: 2
#     Edge 17, Type (0, 1), BuildingBlock: ZUJKAS_clean_linker_0, # of connection points: 2
#     Edge 18, Type (0, 1), BuildingBlock: ZUJKAS_clean_linker_0, # of connection points: 2
#     Edge 19, Type (0, 1), BuildingBlock: ZUJKAS_clean_linker_0, # of connection points: 2
#     Edge 20, Type (0, 1), BuildingBlock: ZUJKAS_clean_linker_0, # of connection points: 2
#     Edge 21, Type (0, 1), BuildingBlock: ZUJKAS_clean_linker_0, # of connection points: 2
#     Edge 22, Type (0, 1), BuildingBlock: ZUJKAS_clean_linker_0, # of connection points: 2
#     Edge 23, Type (0, 1), BuildingBlock: ZUJKAS_clean_linker_0, # of connection points: 2
#     Edge 24, Type (0, 1), BuildingBlock: ZUJKAS_clean_linker_0, # of connection points: 2
#     Edge 25, Type (0, 1), BuildingBlock: ZUJKAS_clean_linker_0, # of connection points: 2
#     Edge 26, Type (0, 1), BuildingBlock: ZUJKAS_clean_linker_0, # of connection points: 2
#     Edge 27, Type (0, 1), BuildingBlock: ZUJKAS_clean_linker_0, # of connection points: 2
#     Edge 28, Type (0, 1), BuildingBlock: ZUJKAS_clean_linker_0, # of connection points: 2
#     Edge 29, Type (0, 1), BuildingBlock: ZUJKAS_clean_linker_0, # of connection points: 2
#     Edge 30, Type (0, 1), BuildingBlock: ZUJKAS_clean_linker_0, # of connection points: 2
#     Edge 31, Type (0, 1), BuildingBlock: ZUJKAS_clean_linker_0, # of connection points: 2
#     Edge 32, Type (0, 1), BuildingBlock: ZUJKAS_clean_linker_0, # of connection points: 2
#     Edge 33, Type (0, 1), BuildingBlock: ZUJKAS_clean_linker_0, # of connection points: 2
#     Edge 34, Type (0, 1), BuildingBlock: ZUJKAS_clean_linker_0, # of connection points: 2
#     Edge 35, Type (0, 1), BuildingBlock: ZUJKAS_clean_linker_0, # of connection points: 2
# Relax obj value: 0.024
# Max RMSD: 0.040
# Mean RMSD: 0.033
data_MOF--net-ssa--node1-NAWXER_clean_sbu_0--node2-NAWXER_clean_sbu_0--edge1-ZUJKAS_clean_linker_0
_symmetry_space_group_name_H-M    P1
_symmetry_Int_Tables_number       1
_symmetry_cell_setting            triclinic
loop_
_symmetry_equiv_pos_as_xyz
'x, y, z'
_cell_length_a     57.512707
_cell_length_b     57.535624
_cell_length_c     47.829835
_cell_angle_alpha  90.017339
_cell_angle_beta   90.088168
_cell_angle_gamma 119.98623
loop_
_atom_site_label
_atom_site_type_symbol
_atom_site_fract_x
_atom_site_fract_y
_atom_site_fract_z
_atom_type_partial_charge
C0 C 0.0145 0.52422 0.04136 0.0
C1 C 0.97819 0.44153 0.98522 0.0
O2 O 0.99435 0.50151 0.04738 0.0
Zn3 Zn 0.99578 0.48226 0.01441 0.0
O4 O 0.02729 0.52686 0.01855 0.0
Zn5 Zn 0.02601 0.50302 0.98338 0.0
O6 O 0.01935 0.52064 0.95254 0.0
O7 O 0.98528 0.50053 0.98177 0.0
O8 O 0.99879 0.46159 0.97432 0.0
O9 O 0.96959 0.44437 0.00874 0.0
O10 O 0.0328 0.48279 0.02099 0.0
O11 O 0.06033 0.5047 0.98622 0.0
C12 C 0.99559 0.51433 0.95957 0.0
C13 C 0.05575 0.49202 0.00918 0.0
C14 C 0.49563 0.05738 0.50519 0.0
C15 C 0.50923 0.98669 0.46752 0.0
O16 O 0.48393 0.03571 0.51959 0.0
Zn17 Zn 0.47946 0.99649 0.51908 0.0
O18 O 0.5086 0.05837 0.48332 0.0
Zn19 Zn 0.50261 0.02234 0.48564 0.0
O20 O 0.4606 0.99712 0.47676 0.0
O21 O 0.44106 0.97249 0.51404 0.0
O22 O 0.51839 0.01024 0.45778 0.0
O23 O 0.49505 0.97979 0.48983 0.0
O24 O 0.49739 0.9963 0.55374 0.0
O25 O 0.52503 0.02465 0.52235 0.0
C26 C 0.43946 0.97885 0.48891 0.0
C27 C 0.52105 0.01403 0.5467 0.0
C28 C 0.48474 0.47501 0.96595 0.0
C29 C 0.50692 0.55941 0.01109 0.0
O30 O 0.4776 0.49162 0.95798 0.0
Zn31 Zn 0.49559 0.51743 0.98744 0.0
O32 O 0.49915 0.47988 0.98802 0.0
Zn33 Zn 0.51773 0.51033 0.01925 0.0
O34 O 0.49953 0.49147 0.05337 0.0
O35 O 0.47276 0.49587 0.02338 0.0
O36 O 0.51663 0.54644 0.02355 0.0
O37 O 0.49364 0.55015 0.98859 0.0
O38 O 0.53665 0.53096 0.97743 0.0
O39 O 0.55574 0.52267 0.01309 0.0
C40 C 0.47629 0.48735 0.04687 0.0
C41 C 0.55735 0.53172 0.98846 0.0
C42 C 0.9906 0.51766 0.44928 0.0
C43 C 0.94097 0.441 0.51 0.0
O44 O 0.00351 0.51847 0.47144 0.0
Zn45 Zn 0.99868 0.49447 0.50722 0.0
O46 O 0.96741 0.49769 0.44461 0.0
Zn47 Zn 0.96578 0.47861 0.47849 0.0
O48 O 0.96494 0.50436 0.51093 0.0
O49 O 0.00107 0.51818 0.53727 0.0
O50 O 0.93378 0.44493 0.48616 0.0
O51 O 0.96435 0.45767 0.51952 0.0
O52 O 0.0271 0.4858 0.50193 0.0
O53 O 0.99544 0.46747 0.46986 0.0
C54 C 0.97931 0.51801 0.53185 0.0
C55 C 0.01788 0.47167 0.47992 0.0
C56 C 0.49793 0.97832 0.04179 0.0
C57 C 0.45552 0.01432 0.97942 0.0
O58 O 0.49375 0.99762 0.04701 0.0
Zn59 Zn 0.47594 0.99631 0.01179 0.0
O60 O 0.49031 0.96607 0.01826 0.0
Zn61 Zn 0.47073 0.96751 0.98064 0.0
O62 O 0.49796 0.97551 0.95293 0.0
O63 O 0.50802 0.00866 0.98261 0.0
O64 O 0.45661 0.99437 0.96892 0.0
O65 O 0.46412 0.02199 0.00415 0.0
O66 O 0.43948 0.95852 0.01456 0.0
O67 O 0.43915 0.93255 0.98032 0.0
C68 C 0.5141 0.99921 0.96136 0.0
C69 C 0.42804 0.93595 0.00164 0.0
C70 C 0.56794 0.50619 0.4987 0.0
C71 C 0.48232 0.488 0.45993 0.0
O72 O 0.55707 0.51735 0.51253 0.0
Zn73 Zn 0.52144 0.52014 0.51124 0.0
O74 O 0.55646 0.49255 0.47694 0.0
Zn75 Zn 0.52542 0.49716 0.47825 0.0
O76 O 0.54066 0.53868 0.46874 0.0
O77 O 0.53482 0.55833 0.50548 0.0
O78 O 0.49786 0.48027 0.45009 0.0
O79 O 0.48894 0.50243 0.48211 0.0
O80 O 0.5037 0.50239 0.54603 0.0
O81 O 0.50553 0.47494 0.51507 0.0
C82 C 0.54285 0.55975 0.48043 0.0
C83 C 0.49852 0.47887 0.53925 0.0
C84 C 0.27547 0.48903 0.29881 0.0
C85 C 0.22794 0.48846 0.21467 0.0
O86 O 0.2583 0.46533 0.29056 0.0
Zn87 Zn 0.22938 0.4465 0.25785 0.0
O88 O 0.27789 0.50939 0.28577 0.0
Zn89 Zn 0.25078 0.48954 0.25798 0.0
O90 O 0.21474 0.4718 0.28185 0.0
O91 O 0.19556 0.42783 0.27854 0.0
O92 O 0.24406 0.5088 0.22902 0.0
O93 O 0.22108 0.46479 0.22327 0.0
O94 O 0.24423 0.42688 0.23841 0.0
O95 O 0.26956 0.47095 0.23575 0.0
C96 C 0.19553 0.4484 0.28826 0.0
C97 C 0.26556 0.44748 0.22988 0.0
C98 C 0.77761 0.25371 0.71859 0.0
C99 C 0.72717 0.19639 0.79616 0.0
O100 O 0.76019 0.25557 0.73326 0.0
Zn101 Zn 0.75318 0.2269 0.75878 0.0
O102 O 0.78492 0.23669 0.72513 0.0
Zn103 Zn 0.77603 0.20656 0.75606 0.0
O104 O 0.7628 0.17427 0.73274 0.0
O105 O 0.73717 0.19281 0.7316 0.0
O106 O 0.74538 0.19182 0.78687 0.0
O107 O 0.72474 0.21548 0.78595 0.0
O108 O 0.78812 0.2438 0.7841 0.0
O109 O 0.80903 0.22086 0.77859 0.0
C110 C 0.74209 0.17447 0.72348 0.0
C111 C 0.8077 0.24009 0.79016 0.0
C112 C 0.52229 0.79212 0.29469 0.0
C113 C 0.52291 0.74449 0.21133 0.0
O114 O 0.54596 0.79992 0.28545 0.0
Zn115 Zn 0.56496 0.79048 0.25269 0.0
O116 O 0.50211 0.77284 0.28273 0.0
Zn117 Zn 0.52202 0.76661 0.25416 0.0
O118 O 0.54231 0.75055 0.27727 0.0
O119 O 0.58592 0.77782 0.27356 0.0
O120 O 0.50277 0.73956 0.22638 0.0
O121 O 0.54659 0.76248 0.2189 0.0
O122 O 0.58217 0.82462 0.23248 0.0
O123 O 0.53789 0.80298 0.23039 0.0
C124 C 0.56632 0.75646 0.28337 0.0
C125 C 0.56057 0.82325 0.22375 0.0
C126 C 0.80134 0.53058 0.78707 0.0
C127 C 0.73881 0.52109 0.71348 0.0
O128 O 0.78209 0.50883 0.77744 0.0
Zn129 Zn 0.76831 0.52503 0.75185 0.0
O130 O 0.8045 0.5531 0.7786 0.0
Zn131 Zn 0.78655 0.56783 0.74984 0.0
O132 O 0.77281 0.5854 0.77433 0.0
O133 O 0.7506 0.54138 0.77879 0.0
O134 O 0.75469 0.54566 0.72034 0.0
O135 O 0.73967 0.50241 0.72679 0.0
O136 O 0.8011 0.5448 0.72334 0.0
O137 O 0.81714 0.58856 0.72494 0.0
C138 C 0.75408 0.56442 0.78573 0.0
C139 C 0.81801 0.56849 0.71493 0.0
C140 C 0.25985 0.77649 0.21719 0.0
C141 C 0.20023 0.71987 0.29022 0.0
O142 O 0.24303 0.78376 0.22476 0.0
Zn143 Zn 0.2116 0.77205 0.25497 0.0
O144 O 0.26045 0.7574 0.22987 0.0
Zn145 Zn 0.23169 0.7492 0.25543 0.0
O146 O 0.19807 0.73497 0.22769 0.0
O147 O 0.17992 0.76077 0.23107 0.0
O148 O 0.21968 0.71849 0.27941 0.0
O149 O 0.19586 0.73886 0.28319 0.0
O150 O 0.22464 0.80308 0.27979 0.0
O151 O 0.24782 0.78223 0.28398 0.0
C152 C 0.17995 0.7405 0.22036 0.0
C153 C 0.24352 0.80116 0.29142 0.0
C154 C 0.47685 0.27227 0.78731 0.0
C155 C 0.48587 0.22347 0.70904 0.0
O156 O 0.4986 0.27514 0.77728 0.0
Zn157 Zn 0.48221 0.24718 0.74947 0.0
O158 O 0.45428 0.25406 0.7775 0.0
Zn159 Zn 0.43927 0.22392 0.74583 0.0
O160 O 0.42025 0.19071 0.7675 0.0
O161 O 0.46399 0.21174 0.77431 0.0
O162 O 0.46133 0.21544 0.71539 0.0
O163 O 0.50465 0.24144 0.72382 0.0
O164 O 0.46421 0.26338 0.72251 0.0
O165 O 0.42017 0.237 0.72241 0.0
C166 C 0.44057 0.19202 0.77967 0.0
C167 C 0.44097 0.25819 0.71397 0.0
H168 H 0.10703 0.50798 0.99112 0.0
H169 H 0.14277 0.50635 0.01772 0.0
H170 H 0.08853 0.47033 0.0871 0.0
H171 H 0.05289 0.47105 0.06072 0.0
H172 H 0.16587 0.53078 0.06594 0.0
H173 H 0.11924 0.42177 0.0815 0.0
H174 H 0.10651 0.43596 0.05625 0.0
H175 H 0.09635 0.43253 0.09238 0.0
C176 C 0.10266 0.49928 0.01186 0.0
C177 C 0.07706 0.48947 0.02371 0.0
C178 C 0.12309 0.49843 0.02703 0.0
C179 C 0.11815 0.48771 0.05417 0.0
C180 C 0.0926 0.4779 0.06588 0.0
H181 H 0.21298 0.52516 0.20084 0.0
H182 H 0.19064 0.52641 0.15772 0.0
C183 C 0.07224 0.47851 0.05077 0.0
C184 C 0.13981 0.48821 0.07142 0.0
H185 H 0.15089 0.44971 0.11749 0.0
C186 C 0.16296 0.51297 0.07678 0.0
C187 C 0.13641 0.4649 0.085 0.0
C188 C 0.1134 0.43728 0.07819 0.0
C189 C 0.18183 0.51532 0.09691 0.0
C190 C 0.17682 0.49248 0.11273 0.0
C191 C 0.15462 0.46742 0.10586 0.0
C192 C 0.19319 0.49401 0.13747 0.0
C193 C 0.20671 0.54229 0.10106 0.0
C194 C 0.20162 0.4751 0.14082 0.0
C195 C 0.21335 0.47371 0.16583 0.0
C196 C 0.21744 0.49159 0.18775 0.0
C197 C 0.21021 0.51133 0.18408 0.0
C198 C 0.19773 0.51222 0.1593 0.0
H199 H 0.2127 0.55389 0.08124 0.0
H200 H 0.20246 0.55407 0.11652 0.0
H201 H 0.22384 0.54026 0.10875 0.0
H202 H 0.19838 0.46083 0.12437 0.0
H203 H 0.219 0.45844 0.16815 0.0
H204 H 0.52178 0.99672 0.60037 0.0
H205 H 0.55983 0.01539 0.63312 0.0
H206 H 0.61003 0.07206 0.57038 0.0
H207 H 0.5727 0.05328 0.53757 0.0
H208 H 0.63702 0.05194 0.59934 0.0
H209 H 0.58518 0.0866 0.67222 0.0
H210 H 0.56822 0.05115 0.6655 0.0
H211 H 0.57235 0.07397 0.63776 0.0
C212 C 0.541 0.01301 0.59352 0.0
C213 C 0.54406 0.02364 0.5664 0.0
C214 C 0.5627 0.02373 0.61229 0.0
C215 C 0.58772 0.04543 0.60436 0.0
C216 C 0.59097 0.05535 0.57702 0.0
H217 H 0.70853 0.17952 0.68766 0.0
H218 H 0.67226 0.14472 0.66014 0.0
C219 C 0.56947 0.04461 0.55829 0.0
C220 C 0.61029 0.05916 0.62459 0.0
H221 H 0.62962 0.09899 0.68274 0.0
C222 C 0.63535 0.06193 0.61783 0.0
C223 C 0.60813 0.07234 0.64861 0.0
C224 C 0.58213 0.07113 0.65646 0.0
C225 C 0.6585 0.07843 0.6337 0.0
C226 C 0.65642 0.09219 0.65719 0.0
C227 C 0.63114 0.08836 0.66473 0.0
C228 C 0.68038 0.11324 0.67223 0.0
C229 C 0.68521 0.08223 0.62432 0.0
C230 C 0.69762 0.10734 0.68771 0.0
C231 C 0.71879 0.12749 0.70344 0.0
C232 C 0.72271 0.15365 0.70413 0.0
C233 C 0.70594 0.15953 0.68781 0.0
C234 C 0.68512 0.13962 0.67207 0.0
H235 H 0.684 0.07342 0.60333 0.0
H236 H 0.70051 0.1039 0.62372 0.0
H237 H 0.69213 0.07238 0.63948 0.0
H238 H 0.69417 0.08704 0.68839 0.0
H239 H 0.73126 0.12234 0.71598 0.0
H240 H 0.52713 0.57824 0.06259 0.0
H241 H 0.5293 0.61606 0.08707 0.0
H242 H 0.49631 0.63471 0.01507 0.0
H243 H 0.49308 0.59568 0.99037 0.0
H244 H 0.55628 0.66831 0.07581 0.0
H245 H 0.44639 0.6313 0.07668 0.0
H246 H 0.45986 0.61034 0.06596 0.0
H247 H 0.46195 0.63601 0.043 0.0
C248 C 0.52038 0.59033 0.05173 0.0
C249 C 0.50981 0.58385 0.02451 0.0
C250 C 0.52168 0.61205 0.06583 0.0
C251 C 0.51273 0.62807 0.05305 0.0
C252 C 0.50285 0.62227 0.02552 0.0
H253 H 0.55056 0.76484 0.16326 0.0
H254 H 0.54672 0.7407 0.11982 0.0
C255 C 0.5012 0.60013 0.01138 0.0
C256 C 0.5137 0.65038 0.06944 0.0
H257 H 0.47383 0.6694 0.10361 0.0
C258 C 0.53833 0.66886 0.08162 0.0
C259 C 0.49019 0.65087 0.077 0.0
C260 C 0.46303 0.63101 0.06519 0.0
C261 C 0.53987 0.68642 0.10276 0.0
C262 C 0.51623 0.68647 0.11093 0.0
C263 C 0.49188 0.66927 0.09734 0.0
C264 C 0.51589 0.70215 0.13538 0.0
C265 C 0.56646 0.70315 0.11747 0.0
C266 C 0.49854 0.68892 0.15787 0.0
C267 C 0.50007 0.70289 0.18234 0.0
C268 C 0.51936 0.73015 0.18484 0.0
C269 C 0.53592 0.74364 0.16197 0.0
C270 C 0.53382 0.72986 0.13722 0.0
H271 H 0.58052 0.69555 0.11351 0.0
H272 H 0.57608 0.72406 0.10963 0.0
H273 H 0.56369 0.70341 0.14041 0.0
H274 H 0.48443 0.66756 0.15689 0.0
H275 H 0.48701 0.69214 0.1997 0.0
H276 H 0.0033 0.54841 0.57885 0.0
H277 H 0.98454 0.56819 0.61078 0.0
H278 H 0.91427 0.5388 0.55845 0.0
H279 H 0.93296 0.51963 0.5263 0.0
H280 H 0.93104 0.58993 0.57881 0.0
H281 H 0.92395 0.5206 0.66389 0.0
H282 H 0.95692 0.54225 0.65009 0.0
H283 H 0.93165 0.51655 0.62833 0.0
C284 C 0.98398 0.54642 0.574 0.0
C285 C 0.96951 0.53215 0.55016 0.0
C286 C 0.97325 0.55766 0.59233 0.0
C287 C 0.9478 0.55461 0.58724 0.0
C288 C 0.93392 0.54141 0.56284 0.0
H289 H 0.81659 0.52959 0.68191 0.0
H290 H 0.85174 0.53187 0.65198 0.0
C291 C 0.94463 0.53032 0.54452 0.0
C292 C 0.93441 0.56326 0.60798 0.0
H293 H 0.90463 0.54732 0.67221 0.0
C294 C 0.92565 0.58102 0.59945 0.0
C295 C 0.92726 0.55145 0.63484 0.0
C296 C 0.9352 0.5315 0.64489 0.0
C297 C 0.90893 0.5863 0.61655 0.0
C298 C 0.901 0.57367 0.6429 0.0
C299 C 0.91089 0.55706 0.65201 0.0
C300 C 0.87941 0.57396 0.65956 0.0
C301 C 0.89852 0.604 0.60573 0.0
C302 C 0.88306 0.59713 0.67339 0.0
C303 C 0.86273 0.59594 0.69066 0.0
C304 C 0.83866 0.5715 0.69443 0.0
C305 C 0.83494 0.5487 0.67975 0.0
C306 C 0.85504 0.54993 0.66258 0.0
H307 H 0.90476 0.61047 0.58381 0.0
H308 H 0.87625 0.59325 0.60682 0.0
H309 H 0.90621 0.62216 0.61908 0.0
H310 H 0.90184 0.61585 0.67147 0.0
H311 H 0.86622 0.6138 0.70179 0.0
H312 H 0.41171 0.8826 0.99796 0.0
H313 H 0.37798 0.84675 0.0275 0.0
H314 H 0.35713 0.90268 0.06335 0.0
H315 H 0.39093 0.93856 0.03435 0.0
H316 H 0.38399 0.85587 0.08895 0.0
H317 H 0.28362 0.83151 0.04913 0.0
H318 H 0.31309 0.84509 0.02714 0.0
H319 H 0.30802 0.86672 0.05032 0.0
C320 C 0.3993 0.887 0.01147 0.0
C321 C 0.40394 0.91333 0.01402 0.0
C322 C 0.38016 0.86656 0.02835 0.0
C323 C 0.36507 0.87214 0.0474 0.0
C324 C 0.36837 0.89796 0.04848 0.0
H325 H 0.26971 0.8228 0.19174 0.0
H326 H 0.29535 0.84245 0.14916 0.0
C327 C 0.38773 0.91844 0.032 0.0
C328 C 0.34884 0.85253 0.0691 0.0
H329 H 0.28592 0.82015 0.09679 0.0
C330 C 0.36243 0.84747 0.09048 0.0
C331 C 0.32087 0.84195 0.07092 0.0
C332 C 0.30542 0.84636 0.04805 0.0
C333 C 0.34899 0.83352 0.1147 0.0
C334 C 0.32113 0.82387 0.11709 0.0
C335 C 0.30732 0.82769 0.09494 0.0
C336 C 0.30633 0.81187 0.14328 0.0
C337 C 0.36503 0.83079 0.13818 0.0
C338 C 0.30425 0.78828 0.15424 0.0
C339 C 0.28988 0.77716 0.17888 0.0
C340 C 0.27705 0.78928 0.19263 0.0
C341 C 0.27935 0.81297 0.18163 0.0
C342 C 0.29388 0.82417 0.15724 0.0
H343 H 0.38697 0.84433 0.13539 0.0
H344 H 0.35909 0.8353 0.15866 0.0
H345 H 0.3611 0.80985 0.1388 0.0
H346 H 0.31333 0.77823 0.14352 0.0
H347 H 0.2882 0.75872 0.18669 0.0
H348 H 0.47906 0.47774 0.59231 0.0
H349 H 0.45982 0.43975 0.62503 0.0
H350 H 0.46985 0.39061 0.56357 0.0
H351 H 0.48821 0.42781 0.53081 0.0
H352 H 0.42215 0.36259 0.59074 0.0
H353 H 0.50578 0.41617 0.66683 0.0
H354 H 0.48648 0.43207 0.65896 0.0
H355 H 0.5067 0.42899 0.63222 0.0
C356 C 0.47696 0.45877 0.58575 0.0
C357 C 0.48544 0.45596 0.55901 0.0
C358 C 0.46607 0.4371 0.6045 0.0
C359 C 0.46375 0.4124 0.59692 0.0
C360 C 0.47139 0.40941 0.56994 0.0
H361 H 0.48026 0.29414 0.6804 0.0
H362 H 0.48092 0.33036 0.65363 0.0
C363 C 0.48205 0.43085 0.55123 0.0
C364 C 0.45488 0.38987 0.61712 0.0
H365 H 0.47482 0.37119 0.67614 0.0
C366 C 0.43338 0.36451 0.60967 0.0
C367 C 0.46966 0.39238 0.64174 0.0
C368 C 0.49357 0.41877 0.65043 0.0
C369 C 0.42714 0.34142 0.62536 0.0
C370 C 0.44253 0.34386 0.6494 0.0
C371 C 0.46303 0.3694 0.65769 0.0
C372 C 0.44034 0.32012 0.66421 0.0
C373 C 0.40524 0.31445 0.6152 0.0
C374 C 0.41698 0.30175 0.6786 0.0
C375 C 0.41643 0.28059 0.69387 0.0
C376 C 0.43936 0.27781 0.69518 0.0
C377 C 0.46231 0.2958 0.68003 0.0
C378 C 0.46276 0.31661 0.66474 0.0
H379 H 0.39806 0.31557 0.59393 0.0
H380 H 0.41243 0.29978 0.61486 0.0
H381 H 0.38794 0.30675 0.62973 0.0
H382 H 0.39952 0.30423 0.67875 0.0
H383 H 0.39855 0.26717 0.70552 0.0
H384 H 0.53546 0.9921 0.4179 0.0
H385 H 0.53707 0.95644 0.39142 0.0
H386 H 0.49186 0.89959 0.45626 0.0
H387 H 0.49068 0.93492 0.48304 0.0
H388 H 0.53303 0.89354 0.43747 0.0
H389 H 0.47278 0.89798 0.34902 0.0
H390 H 0.50256 0.92939 0.35627 0.0
H391 H 0.47617 0.91491 0.38182 0.0
C392 C 0.52611 0.97206 0.42661 0.0
C393 C 0.51277 0.9663 0.45244 0.0
C394 C 0.52685 0.9517 0.41138 0.0
C395 C 0.51406 0.92532 0.42167 0.0
C396 C 0.50167 0.91979 0.44789 0.0
H397 H 0.47553 0.78702 0.31566 0.0
H398 H 0.47145 0.81648 0.34997 0.0
C399 C 0.50103 0.94006 0.46315 0.0
C400 C 0.51317 0.90324 0.40511 0.0
H401 H 0.49214 0.87024 0.34287 0.0
C402 C 0.52399 0.88834 0.41683 0.0
C403 C 0.50072 0.8961 0.37854 0.0
C404 C 0.48714 0.91023 0.36574 0.0
C405 C 0.52344 0.86694 0.40227 0.0
C406 C 0.5123 0.86075 0.37508 0.0
C407 C 0.50075 0.87512 0.36371 0.0
C408 C 0.51423 0.84089 0.35716 0.0
C409 C 0.53471 0.85115 0.4162 0.0
C410 C 0.53955 0.84475 0.35018 0.0
C411 C 0.54192 0.828 0.33084 0.0
C412 C 0.51901 0.80723 0.31778 0.0
C413 C 0.49353 0.80281 0.32543 0.0
C414 C 0.49117 0.81963 0.34493 0.0
H415 H 0.53384 0.85217 0.43935 0.0
H416 H 0.52368 0.82976 0.40969 0.0
H417 H 0.55609 0.85981 0.41023 0.0
H418 H 0.55762 0.86141 0.35886 0.0
H419 H 0.56187 0.83199 0.32543 0.0
H420 H 0.56273 0.54306 0.93285 0.0
H421 H 0.60096 0.55404 0.90295 0.0
H422 H 0.64644 0.55354 0.97452 0.0
H423 H 0.6075 0.54133 0.00471 0.0
H424 H 0.65056 0.59426 0.89944 0.0
H425 H 0.65316 0.50134 0.92478 0.0
H426 H 0.62632 0.50663 0.9362 0.0
H427 H 0.65802 0.52255 0.9543 0.0
C428 C 0.58086 0.54539 0.94241 0.0
C429 C 0.58191 0.54104 0.97123 0.0
C430 C 0.60281 0.55175 0.92519 0.0
C431 C 0.62651 0.55417 0.93628 0.0
C432 C 0.62815 0.55109 0.96529 0.0
H433 H 0.76388 0.60706 0.81966 0.0
H434 H 0.73567 0.60731 0.85803 0.0
C435 C 0.60594 0.5443 0.98258 0.0
C436 C 0.64879 0.55893 0.91695 0.0
H437 H 0.685 0.53086 0.89261 0.0
C438 C 0.65824 0.58049 0.89806 0.0
C439 C 0.65866 0.54084 0.91493 0.0
C440 C 0.64839 0.5164 0.93343 0.0
C441 C 0.67646 0.58391 0.87668 0.0
C442 C 0.68623 0.56575 0.87462 0.0
C443 C 0.67757 0.54482 0.89418 0.0
C444 C 0.70359 0.5665 0.8511 0.0
C445 C 0.68391 0.60611 0.85568 0.0
C446 C 0.69529 0.54343 0.83467 0.0
C447 C 0.71155 0.54311 0.81322 0.0
C448 C 0.73646 0.56594 0.8074 0.0
C449 C 0.74465 0.58927 0.82344 0.0
C450 C 0.72847 0.58945 0.84531 0.0
H451 H 0.66957 0.61373 0.85598 0.0
H452 H 0.70411 0.62312 0.86083 0.0
H453 H 0.68451 0.59917 0.83417 0.0
H454 H 0.67618 0.5255 0.83855 0.0
H455 H 0.70458 0.52483 0.80122 0.0
H456 H 0.9883 0.51266 0.39237 0.0
H457 H 0.02167 0.54506 0.35957 0.0
H458 H 0.05828 0.60203 0.42683 0.0
H459 H 0.02546 0.56986 0.45954 0.0
H460 H 0.04281 0.60378 0.34663 0.0
H461 H 0.11496 0.58058 0.399 0.0
H462 H 0.07901 0.55927 0.40184 0.0
H463 H 0.09622 0.5892 0.42269 0.0
C464 C 0.0029 0.53246 0.39984 0.0
C465 C 0.00463 0.5388 0.42841 0.0
C466 C 0.02198 0.55081 0.3812 0.0
C467 C 0.04264 0.57553 0.3911 0.0
C468 C 0.04267 0.5828 0.41903 0.0
H469 H 0.16429 0.72209 0.32517 0.0
H470 H 0.12585 0.68443 0.34748 0.0
C471 C 0.02389 0.56451 0.43761 0.0
C472 C 0.06586 0.59282 0.37342 0.0
H473 H 0.13382 0.62014 0.37078 0.0
C474 C 0.06267 0.60714 0.35155 0.0
C475 C 0.09157 0.59656 0.37959 0.0
C476 C 0.09571 0.5804 0.40188 0.0
C477 C 0.085 0.6265 0.33673 0.0
C478 C 0.11099 0.63185 0.34452 0.0
C479 C 0.1139 0.61626 0.36519 0.0
C480 C 0.13543 0.65464 0.33271 0.0
C481 C 0.08059 0.6413 0.31315 0.0
C482 C 0.15447 0.65052 0.31866 0.0
C483 C 0.17681 0.67214 0.30627 0.0
C484 C 0.18026 0.69807 0.30781 0.0
C485 C 0.16198 0.70227 0.32338 0.0
C486 C 0.13986 0.68076 0.33586 0.0
H487 H 0.06012 0.62932 0.30411 0.0
H488 H 0.08263 0.6603 0.3213 0.0
H489 H 0.09556 0.64628 0.29624 0.0
H490 H 0.15156 0.63049 0.31646 0.0
H491 H 0.19054 0.66833 0.29431 0.0
H492 H 0.42903 0.99875 0.92951 0.0
H493 H 0.42048 0.02606 0.89659 0.0
H494 H 0.45431 0.09207 0.95492 0.0
H495 H 0.46251 0.06463 0.98837 0.0
H496 H 0.40899 0.0868 0.92599 0.0
H497 H 0.48343 0.08528 0.85331 0.0
H498 H 0.45654 0.05263 0.86275 0.0
H499 H 0.4799 0.07394 0.88901 0.0
C500 C 0.43433 0.01896 0.93557 0.0
C501 C 0.44675 0.0296 0.96149 0.0
C502 C 0.42952 0.03458 0.91663 0.0
C503 C 0.43731 0.06131 0.92301 0.0
C504 C 0.44827 0.07153 0.9495 0.0
H505 H 0.48053 0.19187 0.81007 0.0
H506 H 0.47713 0.15939 0.84466 0.0
C507 C 0.45293 0.05582 0.9686 0.0
C508 C 0.43569 0.07903 0.9014 0.0
H509 H 0.45975 0.10631 0.83714 0.0
C510 C 0.42 0.09103 0.90651 0.0
C511 C 0.45034 0.08478 0.87612 0.0
C512 C 0.46871 0.07372 0.86998 0.0
C513 C 0.4186 0.10864 0.88701 0.0
C514 C 0.43298 0.11407 0.86159 0.0
C515 C 0.44851 0.10193 0.85648 0.0
C516 C 0.4341 0.13391 0.84088 0.0
C517 C 0.40247 0.12195 0.89416 0.0
C518 C 0.41098 0.13043 0.827 0.0
C519 C 0.41283 0.14919 0.80703 0.0
C520 C 0.43787 0.17163 0.8005 0.0
C521 C 0.46089 0.17486 0.81443 0.0
C522 C 0.45901 0.15626 0.8343 0.0
H523 H 0.39737 0.12012 0.91675 0.0
H524 H 0.41363 0.14355 0.88851 0.0
H525 H 0.38344 0.11225 0.88207 0.0
H526 H 0.39159 0.11306 0.83134 0.0
H527 H 0.39473 0.14605 0.79666 0.0
H528 H 0.43843 0.48645 0.48258 0.0
H529 H 0.40024 0.48422 0.45784 0.0
H530 H 0.43284 0.47661 0.37939 0.0
H531 H 0.47081 0.478 0.40423 0.0
H532 H 0.40375 0.52056 0.42079 0.0
H533 H 0.35492 0.41996 0.37124 0.0
H534 H 0.37973 0.42947 0.39856 0.0
H535 H 0.38995 0.43973 0.36303 0.0
C536 C 0.43717 0.48374 0.4601 0.0
C537 C 0.45754 0.48242 0.44526 0.0
C538 C 0.41539 0.48253 0.44601 0.0
C539 C 0.41366 0.48017 0.41682 0.0
C540 C 0.43351 0.47791 0.40199 0.0
H541 H 0.3269 0.52973 0.30687 0.0
H542 H 0.36021 0.52899 0.33822 0.0
C543 C 0.4552 0.47875 0.41616 0.0
C544 C 0.39221 0.48223 0.40194 0.0
H545 H 0.34128 0.45047 0.35493 0.0
C546 C 0.38992 0.50513 0.40655 0.0
C547 C 0.37409 0.46199 0.3836 0.0
C548 C 0.37458 0.43628 0.379 0.0
C549 C 0.37014 0.50848 0.39306 0.0
C550 C 0.35269 0.48871 0.37392 0.0
C551 C 0.35479 0.46568 0.36955 0.0
C552 C 0.33212 0.49137 0.35792 0.0
C553 C 0.36792 0.53292 0.39977 0.0
C554 C 0.30528 0.47067 0.35885 0.0
C555 C 0.2864 0.47088 0.34073 0.0
C556 C 0.29401 0.49189 0.32149 0.0
C557 C 0.32048 0.51348 0.32175 0.0
C558 C 0.3395 0.51308 0.33967 0.0
H559 H 0.37684 0.54147 0.42051 0.0
H560 H 0.37901 0.54859 0.38378 0.0
H561 H 0.34666 0.52812 0.39966 0.0
H562 H 0.29916 0.45379 0.37284 0.0
H563 H 0.26607 0.45403 0.34099 0.0
H564 H 0.92679 0.39956 0.99282 0.0
H565 H 0.90133 0.36141 0.96133 0.0
H566 H 0.97135 0.38818 0.90936 0.0
H567 H 0.99662 0.42651 0.94025 0.0
H568 H 0.92917 0.38034 0.87929 0.0
H569 H 0.89904 0.29113 0.94594 0.0
H570 H 0.88999 0.31418 0.96072 0.0
H571 H 0.92486 0.32437 0.9562 0.0
C572 C 0.93691 0.39697 0.97502 0.0
C573 C 0.96371 0.41617 0.969 0.0
C574 C 0.92236 0.37505 0.95708 0.0
C575 C 0.93445 0.37171 0.93303 0.0
C576 C 0.96155 0.39025 0.92775 0.0
H577 H 0.85151 0.23832 0.81175 0.0
H578 H 0.88437 0.26933 0.84611 0.0
C579 C 0.97599 0.4122 0.94547 0.0
C580 C 0.91833 0.35078 0.91181 0.0
H581 H 0.87503 0.2836 0.90259 0.0
C582 C 0.91763 0.35916 0.88438 0.0
C583 C 0.90346 0.32306 0.91823 0.0
C584 C 0.90455 0.31258 0.94681 0.0
C585 C 0.90178 0.34084 0.86358 0.0
C586 C 0.88576 0.31336 0.87038 0.0
C587 C 0.8872 0.30471 0.89746 0.0
C588 C 0.86586 0.29393 0.8502 0.0
C589 C 0.90206 0.35113 0.83449 0.0
C590 C 0.84447 0.29729 0.84147 0.0
C591 C 0.82587 0.27981 0.82201 0.0
C592 C 0.82805 0.25834 0.81079 0.0
C593 C 0.84932 0.25471 0.81983 0.0
C594 C 0.86804 0.27233 0.83951 0.0
H595 H 0.92058 0.37065 0.83063 0.0
H596 H 0.90054 0.33652 0.8184 0.0
H597 H 0.8846 0.35422 0.83198 0.0
H598 H 0.84216 0.31356 0.84974 0.0
H599 H 0.80972 0.28324 0.81577 0.0
H600 H 0.0077 0.53897 0.90813 0.0
H601 H 0.97782 0.54703 0.87802 0.0
H602 H 0.91589 0.51265 0.94079 0.0
H603 H 0.94542 0.50506 0.97097 0.0
H604 H 0.92889 0.50857 0.85702 0.0
H605 H 0.91617 0.58128 0.92142 0.0
H606 H 0.94269 0.57376 0.92766 0.0
H607 H 0.90944 0.55199 0.94101 0.0
C608 C 0.98787 0.53356 0.91565 0.0
C609 C 0.97895 0.52141 0.94193 0.0
C610 C 0.97084 0.53811 0.89843 0.0
C611 C 0.94482 0.53079 0.9074 0.0
C612 C 0.9361 0.51903 0.93375 0.0
H613 H 0.80186 0.48727 0.81054 0.0
H614 H 0.83747 0.48801 0.83942 0.0
C615 C 0.95301 0.51453 0.9509 0.0
C616 C 0.92585 0.53352 0.88872 0.0
H617 H 0.8822 0.55731 0.88662 0.0
C618 C 0.91892 0.51953 0.86325 0.0
C619 C 0.9131 0.54803 0.89683 0.0
C620 C 0.92094 0.56484 0.92309 0.0
C621 C 0.89879 0.51885 0.84611 0.0
C622 C 0.88488 0.53199 0.85509 0.0
C623 C 0.89254 0.54681 0.88005 0.0
C624 C 0.86278 0.53126 0.83856 0.0
C625 C 0.89276 0.50423 0.8185 0.0
C626 C 0.86473 0.55533 0.82958 0.0
C627 C 0.84433 0.55499 0.81357 0.0
C628 C 0.82152 0.53053 0.80614 0.0
C629 C 0.81923 0.50641 0.81579 0.0
C630 C 0.83966 0.50679 0.83205 0.0
H631 H 0.90987 0.50195 0.81129 0.0
H632 H 0.87509 0.48384 0.82096 0.0
H633 H 0.88807 0.51492 0.80209 0.0
H634 H 0.88231 0.57442 0.83455 0.0
H635 H 0.84677 0.57398 0.80652 0.0
H636 H 0.39548 0.92973 0.50073 0.0
H637 H 0.35868 0.90129 0.46875 0.0
H638 H 0.39027 0.9646 0.40742 0.0
H639 H 0.42722 0.99287 0.43889 0.0
H640 H 0.31829 0.90611 0.4389 0.0
H641 H 0.39262 0.90264 0.36765 0.0
H642 H 0.40092 0.91541 0.40288 0.0
H643 H 0.39927 0.93593 0.37549 0.0
C644 C 0.39429 0.93779 0.48066 0.0
C645 C 0.4145 0.96346 0.47224 0.0
C646 C 0.37326 0.92149 0.46238 0.0
C647 C 0.37207 0.93061 0.43545 0.0
C648 C 0.39112 0.95692 0.42784 0.0
H649 H 0.24445 0.84707 0.3099 0.0
H650 H 0.27429 0.87891 0.34542 0.0
C651 C 0.41218 0.9731 0.44595 0.0
C652 C 0.35228 0.91208 0.41456 0.0
H653 H 0.34788 0.88228 0.35148 0.0
C654 C 0.32469 0.90088 0.41976 0.0
C655 C 0.36068 0.905 0.38976 0.0
C656 C 0.38996 0.91514 0.38364 0.0
C657 C 0.30531 0.88294 0.40069 0.0
C658 C 0.31378 0.87633 0.37562 0.0
C659 C 0.34137 0.88752 0.37055 0.0
C660 C 0.2946 0.85673 0.35494 0.0
C661 C 0.27597 0.87067 0.40789 0.0
C662 C 0.29631 0.83392 0.34813 0.0
C663 C 0.27959 0.81596 0.32772 0.0
C664 C 0.26066 0.82031 0.31351 0.0
C665 C 0.25872 0.84305 0.3205 0.0
C666 C 0.27564 0.86117 0.34095 0.0
H667 H 0.27296 0.87274 0.4305 0.0
H668 H 0.26728 0.88102 0.39589 0.0
H669 H 0.26475 0.84906 0.40224 0.0
H670 H 0.31078 0.83005 0.35856 0.0
H671 H 0.28164 0.79865 0.32303 0.0
H672 H 0.49612 0.43587 0.97919 0.0
H673 H 0.49201 0.3998 0.9494 0.0
H674 H 0.45525 0.42325 0.88501 0.0
H675 H 0.45994 0.46021 0.91461 0.0
H676 H 0.44963 0.35681 0.92515 0.0
H677 H 0.51956 0.42672 0.84508 0.0
H678 H 0.51525 0.43801 0.87886 0.0
H679 H 0.4907 0.43016 0.85178 0.0
C680 C 0.48697 0.43335 0.95877 0.0
C681 C 0.47868 0.45115 0.94909 0.0
C682 C 0.4846 0.41264 0.94181 0.0
C683 C 0.47384 0.40923 0.91485 0.0
C684 C 0.46418 0.426 0.90557 0.0
H685 H 0.4335 0.27262 0.80937 0.0
H686 H 0.43312 0.30526 0.8413 0.0
C687 C 0.46667 0.44693 0.92256 0.0
C688 C 0.47382 0.38864 0.89641 0.0
H689 H 0.5 0.38034 0.83579 0.0
C690 C 0.46057 0.3619 0.90556 0.0
C691 C 0.48864 0.39553 0.87123 0.0
C692 C 0.50458 0.42418 0.8612 0.0
C693 C 0.46162 0.34176 0.89011 0.0
C694 C 0.47578 0.34852 0.86452 0.0
C695 C 0.48914 0.37527 0.85542 0.0
C696 C 0.47627 0.32802 0.84635 0.0
C697 C 0.44806 0.31359 0.90166 0.0
C698 C 0.50076 0.33026 0.83821 0.0
C699 C 0.50112 0.31172 0.81957 0.0
C700 C 0.47697 0.29075 0.80878 0.0
C701 C 0.4525 0.28841 0.8174 0.0
C702 C 0.45218 0.30697 0.83582 0.0
H703 H 0.44556 0.31347 0.9247 0.0
H704 H 0.42778 0.30182 0.89223 0.0
H705 H 0.45963 0.30341 0.89667 0.0
H706 H 0.51958 0.34653 0.84605 0.0
H707 H 0.52027 0.3141 0.81324 0.0
H708 H 0.00074 0.43566 0.43695 0.0
H709 H 0.02786 0.42475 0.40637 0.0
H710 H 0.09829 0.47612 0.45519 0.0
H711 H 0.07111 0.48677 0.48632 0.0
H712 H 0.06774 0.46041 0.37411 0.0
H713 H 0.10743 0.41134 0.44364 0.0
H714 H 0.0797 0.41597 0.45349 0.0
H715 H 0.11369 0.4432 0.45672 0.0
C716 C 0.02191 0.44425 0.44158 0.0
C717 C 0.03375 0.46215 0.46411 0.0
C718 C 0.0374 0.43799 0.42402 0.0
C719 C 0.06511 0.44942 0.42852 0.0
C720 C 0.07687 0.46656 0.45159 0.0
H721 H 0.1888 0.48894 0.30828 0.0
H722 H 0.15556 0.48631 0.34148 0.0
C723 C 0.06131 0.47274 0.46934 0.0
C724 C 0.08194 0.44553 0.40749 0.0
H725 H 0.12951 0.42696 0.39939 0.0
C726 C 0.081 0.45279 0.37964 0.0
C727 C 0.09905 0.4353 0.41452 0.0
C728 C 0.09988 0.42574 0.44366 0.0
C729 C 0.09732 0.45103 0.35893 0.0
C730 C 0.11546 0.44219 0.36626 0.0
C731 C 0.11573 0.43394 0.39384 0.0
C732 C 0.13548 0.44317 0.34597 0.0
C733 C 0.0951 0.45885 0.32935 0.0
C734 C 0.13557 0.41977 0.33772 0.0
C735 C 0.15472 0.42117 0.31856 0.0
C736 C 0.17425 0.44607 0.3076 0.0
C737 C 0.17405 0.46939 0.31612 0.0
C738 C 0.15496 0.46795 0.33508 0.0
H739 H 0.07541 0.45752 0.32551 0.0
H740 H 0.11105 0.47993 0.32569 0.0
H741 H 0.09773 0.44589 0.31396 0.0
H742 H 0.12077 0.40044 0.34601 0.0
H743 H 0.15441 0.40286 0.3126 0.0
H744 H 0.53193 0.98891 0.91222 0.0
H745 H 0.57156 0.02048 0.88535 0.0
H746 H 0.59149 0.08081 0.94891 0.0
H747 H 0.55266 0.04956 0.97599 0.0
H748 H 0.57997 0.06818 0.86424 0.0
H749 H 0.66331 0.0861 0.93524 0.0
H750 H 0.62973 0.05809 0.93951 0.0
H751 H 0.63836 0.09078 0.95265 0.0
C752 C 0.54507 0.00874 0.92067 0.0
C753 C 0.53915 0.01676 0.94617 0.0
C754 C 0.56762 0.02672 0.90531 0.0
C755 C 0.58458 0.05281 0.91538 0.0
C756 C 0.57902 0.06058 0.9411 0.0
H757 H 0.68305 0.19619 0.81845 0.0
H758 H 0.64869 0.16147 0.84841 0.0
C759 C 0.55663 0.0427 0.95644 0.0
C760 C 0.60674 0.07288 0.89809 0.0
H761 H 0.67334 0.11966 0.90006 0.0
C762 C 0.60047 0.07924 0.87187 0.0
C763 C 0.63345 0.08707 0.90807 0.0
C764 C 0.64167 0.07997 0.93529 0.0
C765 C 0.62012 0.10002 0.85565 0.0
C766 C 0.64649 0.11523 0.86637 0.0
C767 C 0.65294 0.10832 0.8922 0.0
C768 C 0.66806 0.13748 0.85041 0.0
C769 C 0.6125 0.10525 0.82709 0.0
C770 C 0.69085 0.1361 0.84293 0.0
C771 C 0.71058 0.15598 0.82632 0.0
C772 C 0.70787 0.17764 0.81676 0.0
C773 C 0.6856 0.17967 0.82533 0.0
C774 C 0.66587 0.15975 0.8422 0.0
H775 H 0.59383 0.08764 0.81915 0.0
H776 H 0.6089 0.12245 0.82839 0.0
H777 H 0.62882 0.11031 0.81175 0.0
H778 H 0.69299 0.11917 0.84924 0.0
H779 H 0.72756 0.15384 0.82026 0.0
H780 H 0.55103 0.6092 0.49711 0.0
H781 H 0.5625 0.64821 0.46733 0.0
H782 H 0.56679 0.60495 0.39571 0.0
H783 H 0.55633 0.56654 0.42523 0.0
H784 H 0.60579 0.65657 0.39365 0.0
H785 H 0.50806 0.65041 0.41609 0.0
H786 H 0.5288 0.65587 0.44624 0.0
H787 H 0.51543 0.62484 0.42716 0.0
C788 C 0.55475 0.60815 0.47508 0.0
C789 C 0.55248 0.5846 0.46357 0.0
C790 C 0.56113 0.6304 0.45803 0.0
C791 C 0.56494 0.62935 0.4291 0.0
C792 C 0.56386 0.60629 0.4179 0.0
H793 H 0.53151 0.70395 0.29389 0.0
H794 H 0.53464 0.6756 0.32974 0.0
C795 C 0.55778 0.58424 0.43489 0.0
C796 C 0.56861 0.65136 0.40995 0.0
H797 H 0.53686 0.68383 0.38485 0.0
C798 C 0.59084 0.66272 0.39186 0.0
C799 C 0.54894 0.65919 0.40739 0.0
C800 C 0.52384 0.64683 0.42504 0.0
C801 C 0.59354 0.68103 0.37082 0.0
C802 C 0.57377 0.68868 0.36819 0.0
C803 C 0.55204 0.67801 0.38689 0.0
C804 C 0.5737 0.70583 0.34487 0.0
C805 C 0.61684 0.69098 0.35082 0.0
C806 C 0.59493 0.73223 0.34086 0.0
C807 C 0.59334 0.7485 0.31989 0.0
C808 C 0.5703 0.73875 0.30297 0.0
C809 C 0.54949 0.71214 0.30664 0.0
C810 C 0.55121 0.6959 0.32723 0.0
H811 H 0.62661 0.67852 0.35162 0.0
H812 H 0.61022 0.69106 0.32902 0.0
H813 H 0.6321 0.71185 0.35648 0.0
H814 H 0.6123 0.74055 0.35448 0.0
H815 H 0.60957 0.769 0.31776 0.0
H816 H 0.53347 0.10991 0.49572 0.0
H817 H 0.53913 0.14903 0.52224 0.0
H818 H 0.46558 0.09846 0.56655 0.0
H819 H 0.45991 0.05943 0.54056 0.0
H820 H 0.48214 0.15888 0.54331 0.0
H821 H 0.55098 0.14448 0.61431 0.0
H822 H 0.5528 0.14206 0.57682 0.0
H823 H 0.52495 0.11616 0.59556 0.0
C824 C 0.51815 0.10732 0.51055 0.0
C825 C 0.49634 0.08164 0.51627 0.0
C826 C 0.52147 0.12962 0.52569 0.0
C827 C 0.50282 0.12642 0.54634 0.0
C828 C 0.48013 0.10119 0.55064 0.0
H829 H 0.45008 0.18299 0.67574 0.0
H830 H 0.45907 0.1655 0.63339 0.0
C831 C 0.47696 0.07895 0.53582 0.0
C832 C 0.50795 0.14832 0.56581 0.0
H833 H 0.53316 0.17078 0.63104 0.0
C834 C 0.49384 0.1621 0.5622 0.0
C835 C 0.52342 0.15251 0.59022 0.0
C836 C 0.53902 0.13814 0.59468 0.0
C837 C 0.49348 0.17883 0.58332 0.0
C838 C 0.50693 0.18107 0.60887 0.0
C839 C 0.52272 0.16889 0.61153 0.0
C840 C 0.502 0.1928 0.63415 0.0
C841 C 0.47795 0.1932 0.57843 0.0
C842 C 0.52331 0.21326 0.64934 0.0
C843 C 0.51826 0.22315 0.67398 0.0
C844 C 0.49182 0.21255 0.68381 0.0
C845 C 0.47066 0.19177 0.66869 0.0
C846 C 0.47572 0.18192 0.64425 0.0
H847 H 0.47761 0.19764 0.55587 0.0
H848 H 0.45685 0.18012 0.5852 0.0
H849 H 0.48663 0.21229 0.59039 0.0
H850 H 0.54378 0.22162 0.6421 0.0
H851 H 0.53499 0.23917 0.68516 0.0
H852 H 0.4773 0.48475 0.10421 0.0
H853 H 0.43894 0.4695 0.13595 0.0
H854 H 0.38517 0.44483 0.06518 0.0
H855 H 0.42333 0.46081 0.03355 0.0
H856 H 0.37717 0.47666 0.09762 0.0
H857 H 0.37904 0.39898 0.16422 0.0
H858 H 0.41062 0.42974 0.16414 0.0
H859 H 0.39817 0.41074 0.13229 0.0
C860 C 0.45723 0.47549 0.09551 0.0
C861 C 0.45334 0.47415 0.0664 0.0
C862 C 0.43527 0.46662 0.11367 0.0
C863 C 0.40904 0.45578 0.10302 0.0
C864 C 0.40514 0.45312 0.07395 0.0
H865 H 0.26152 0.40305 0.20293 0.0
H866 H 0.2952 0.40193 0.17201 0.0
C867 C 0.42701 0.4623 0.05588 0.0
C868 C 0.38612 0.45036 0.12161 0.0
H869 H 0.3527 0.41802 0.18115 0.0
C870 C 0.37166 0.46351 0.11563 0.0
C871 C 0.37863 0.43304 0.14504 0.0
C872 C 0.39225 0.4171 0.15166 0.0
C873 C 0.35065 0.46058 0.13282 0.0
C874 C 0.34419 0.44452 0.1571 0.0
C875 C 0.35787 0.43051 0.16265 0.0
C876 C 0.32464 0.44389 0.17773 0.0
C877 C 0.33572 0.47502 0.12501 0.0
C878 C 0.33037 0.46758 0.19168 0.0
C879 C 0.31132 0.46831 0.20902 0.0
C880 C 0.28605 0.44529 0.21308 0.0
C881 C 0.28073 0.42114 0.20014 0.0
C882 C 0.29993 0.42046 0.18254 0.0
H883 H 0.33783 0.48012 0.1024 0.0
H884 H 0.31403 0.46267 0.13003 0.0
H885 H 0.34408 0.49402 0.13705 0.0
H886 H 0.34947 0.48576 0.18862 0.0
H887 H 0.31634 0.48718 0.21896 0.0
H888 H 0.89215 0.39756 0.49586 0.0
H889 H 0.86036 0.3623 0.52734 0.0
H890 H 0.91487 0.4002 0.5964 0.0
H891 H 0.94685 0.4346 0.56524 0.0
H892 H 0.89585 0.34791 0.59636 0.0
H893 H 0.8117 0.36846 0.5841 0.0
H894 H 0.82267 0.36066 0.55212 0.0
H895 H 0.84494 0.39081 0.57091 0.0
C896 C 0.89734 0.39822 0.51774 0.0
C897 C 0.92201 0.41881 0.52805 0.0
C898 C 0.87908 0.37824 0.53572 0.0
C899 C 0.88508 0.37892 0.56429 0.0
C900 C 0.90981 0.39931 0.57444 0.0
H901 H 0.78682 0.30454 0.70919 0.0
H902 H 0.81104 0.33366 0.66947 0.0
C903 C 0.92812 0.41895 0.55653 0.0
C904 C 0.86618 0.35828 0.58395 0.0
H905 H 0.80395 0.33203 0.61321 0.0
C906 C 0.87571 0.34436 0.59996 0.0
C907 C 0.84006 0.354 0.58884 0.0
C908 C 0.82925 0.36942 0.5733 0.0
C909 C 0.86016 0.32672 0.62118 0.0
C910 C 0.83382 0.32197 0.62573 0.0
C911 C 0.82406 0.33556 0.60946 0.0
C912 C 0.81661 0.30363 0.648 0.0
C913 C 0.87262 0.31427 0.63924 0.0
C914 C 0.81094 0.27694 0.64853 0.0
C915 C 0.79779 0.26065 0.67137 0.0
C916 C 0.78935 0.2705 0.69368 0.0
C917 C 0.79329 0.29659 0.69227 0.0
C918 C 0.80703 0.31315 0.66962 0.0
H919 H 0.8949 0.32586 0.63832 0.0
H920 H 0.86641 0.31304 0.66141 0.0
H921 H 0.86602 0.29367 0.63164 0.0
H922 H 0.81739 0.26895 0.63164 0.0
H923 H 0.79445 0.24037 0.6717 0.0
H924 H 0.50443 0.93474 0.03777 0.0
H925 H 0.52342 0.91772 0.07205 0.0
H926 H 0.5406 0.98395 0.12691 0.0
H927 H 0.52078 0.00092 0.0927 0.0
H928 H 0.57296 0.93849 0.09552 0.0
H929 H 0.49652 0.91999 0.17694 0.0
H930 H 0.49319 0.9284 0.14142 0.0
H931 H 0.51613 0.95399 0.16496 0.0
C932 C 0.51226 0.94583 0.05707 0.0
C933 C 0.51081 0.96911 0.06256 0.0
C934 C 0.52326 0.93608 0.07665 0.0
C935 C 0.53319 0.94933 0.10223 0.0
C936 C 0.53259 0.97308 0.10754 0.0
H937 H 0.60269 0.87418 0.21235 0.0
H938 H 0.60071 0.90947 0.1851 0.0
C939 C 0.52135 0.98281 0.08793 0.0
C940 C 0.54296 0.9372 0.12337 0.0
H941 H 0.52682 0.90507 0.18639 0.0
C942 C 0.56318 0.93153 0.11561 0.0
C943 C 0.53012 0.92806 0.14954 0.0
C944 C 0.50765 0.93268 0.15876 0.0
C945 C 0.56987 0.91574 0.13257 0.0
C946 C 0.55631 0.90579 0.15823 0.0
C947 C 0.53723 0.91279 0.16672 0.0
C948 C 0.55857 0.88505 0.17462 0.0
C949 C 0.59012 0.90843 0.12208 0.0
C950 C 0.53562 0.85979 0.17794 0.0
C951 C 0.53664 0.83987 0.19351 0.0
C952 C 0.5607 0.84462 0.20624 0.0
C953 C 0.5839 0.86985 0.20268 0.0
C954 C 0.5828 0.88999 0.18708 0.0
H955 H 0.59567 0.91432 0.09991 0.0
H956 H 0.60862 0.91884 0.13496 0.0
H957 H 0.58214 0.8865 0.12402 0.0
H958 H 0.51675 0.85542 0.16841 0.0
H959 H 0.51838 0.82068 0.19561 0.0
H960 H 0.60702 0.54605 0.52954 0.0
H961 H 0.64092 0.54344 0.55792 0.0
H962 H 0.61607 0.46479 0.52451 0.0
H963 H 0.58212 0.46745 0.49557 0.0
H964 H 0.61308 0.46903 0.585 0.0
H965 H 0.7125 0.54389 0.54317 0.0
H966 H 0.68923 0.55604 0.54542 0.0
H967 H 0.68232 0.52881 0.52208 0.0
C968 C 0.60935 0.52856 0.52756 0.0
C969 C 0.592 0.50695 0.51042 0.0
C970 C 0.62878 0.52714 0.54369 0.0
C971 C 0.63107 0.504 0.54314 0.0
C972 C 0.61473 0.4829 0.52495 0.0
H973 H 0.71176 0.4737 0.68448 0.0
H974 H 0.68604 0.46559 0.6411 0.0
C975 C 0.59548 0.48451 0.50839 0.0
C976 C 0.64775 0.50076 0.56456 0.0
H977 H 0.71096 0.53264 0.59189 0.0
C978 C 0.63462 0.48241 0.58627 0.0
C979 C 0.67573 0.51835 0.56608 0.0
C980 C 0.69085 0.53773 0.54281 0.0
C981 C 0.64845 0.48263 0.61057 0.0
C982 C 0.67621 0.50134 0.61279 0.0
C983 C 0.68963 0.51845 0.59022 0.0
C984 C 0.69118 0.50549 0.63925 0.0
C985 C 0.63289 0.46417 0.63438 0.0
C986 C 0.70271 0.53061 0.65244 0.0
C987 C 0.71753 0.53535 0.67697 0.0
C988 C 0.72109 0.51503 0.68889 0.0
C989 C 0.70912 0.48967 0.67595 0.0
C990 C 0.69442 0.48499 0.65119 0.0
H991 H 0.61085 0.45472 0.63132 0.0
H992 H 0.63791 0.44794 0.6359 0.0
H993 H 0.63834 0.47525 0.65453 0.0
H994 H 0.70034 0.54665 0.64363 0.0
H995 H 0.72645 0.55509 0.68641 0.0
H996 H 0.05682 0.57456 0.03335 0.0
H997 H 0.07632 0.6118 0.06623 0.0
H998 H 0.01446 0.56475 0.1261 0.0
H999 H 0.99496 0.52678 0.09328 0.0
H1000 H 0.05787 0.64176 0.09304 0.0
H1001 H 0.08278 0.58437 0.16939 0.0
H1002 H 0.07146 0.57237 0.13439 0.0
H1003 H 0.04791 0.56997 0.16048 0.0
C1004 C 0.04715 0.57203 0.05342 0.0
C1005 C 0.02445 0.54747 0.06077 0.0
C1006 C 0.05831 0.59349 0.07219 0.0
C1007 C 0.04713 0.59102 0.09881 0.0
C1008 C 0.02374 0.56696 0.10586 0.0
H1009 H 0.12906 0.73297 0.21189 0.0
H1010 H 0.09288 0.69738 0.18367 0.0
C1011 C 0.01255 0.54532 0.08703 0.0
C1012 C 0.06127 0.61322 0.11933 0.0
H1013 H 0.09868 0.62968 0.1792 0.0
C1014 C 0.06645 0.63909 0.11214 0.0
C1015 C 0.07262 0.60973 0.14416 0.0
C1016 C 0.06866 0.5827 0.15259 0.0
C1017 C 0.08359 0.66166 0.12842 0.0
C1018 C 0.0956 0.65822 0.15268 0.0
C1019 C 0.08936 0.63223 0.1606 0.0
C1020 C 0.11733 0.68128 0.16817 0.0
C1021 C 0.08997 0.68917 0.11873 0.0
C1022 C 0.14303 0.68423 0.16855 0.0
C1023 C 0.16347 0.70427 0.18457 0.0
C1024 C 0.1588 0.72198 0.20068 0.0
C1025 C 0.13332 0.71978 0.19952 0.0
C1026 C 0.11266 0.69945 0.18345 0.0
H1027 H 0.08177 0.68871 0.09756 0.0
H1028 H 0.08119 0.69749 0.13358 0.0
H1029 H 0.11202 0.70298 0.1184 0.0
H1030 H 0.14717 0.67059 0.1568 0.0
H1031 H 0.18288 0.70547 0.18479 0.0
loop_
_geom_bond_atom_site_label_1
_geom_bond_atom_site_label_2
_geom_bond_distance
_geom_bond_site_symmetry_2
_ccdc_geom_bond_type
C0 O2 1.258 . S
C0 O4 1.258 . S
C1 O8 1.250 . S
C1 O9 1.258 . S
O2 C0 1.258 . S
O2 Zn3 2.025 1_455 S
Zn3 O2 2.025 1_655 S
Zn3 O7 2.035 1_554 S
Zn3 O9 2.035 1_554 S
Zn3 O10 2.014 1_655 S
O4 C0 1.258 . S
O4 Zn5 2.035 1_554 S
Zn5 O4 2.035 1_556 S
Zn5 O6 2.023 1_455 S
Zn5 O8 2.027 1_455 S
Zn5 O11 2.035 1_556 S
O6 Zn5 2.023 1_655 S
O6 C12 1.252 . S
O7 Zn3 2.035 1_556 S
O7 C12 1.258 . S
O8 C1 1.250 . S
O8 Zn5 2.027 1_655 S
O9 C1 1.258 . S
O9 Zn3 2.035 1_556 S
O10 Zn3 2.014 1_455 S
O10 C13 1.262 . S
O11 Zn5 2.035 1_554 S
O11 C13 1.258 . S
C12 O6 1.252 . S
C12 O7 1.258 . S
C13 O10 1.262 . S
C13 O11 1.258 . S
C14 O16 1.262 . S
C14 O18 1.258 . S
C15 O22 1.252 . S
C15 O23 1.258 . S
O16 C14 1.262 . S
O16 Zn17 2.014 1_545 S
Zn17 O16 2.014 1_565 S
Zn17 O21 2.035 . S
Zn17 O23 2.035 . S
Zn17 O24 2.025 1_565 S
O18 C14 1.258 . S
O18 Zn19 2.035 . S
Zn19 O18 2.035 . S
Zn19 O20 2.027 1_545 S
Zn19 O22 2.023 1_545 S
Zn19 O25 2.035 . S
O20 Zn19 2.027 1_565 S
O20 C26 1.250 . S
O21 Zn17 2.035 . S
O21 C26 1.258 . S
O22 C15 1.252 . S
O22 Zn19 2.023 1_565 S
O23 C15 1.258 . S
O23 Zn17 2.035 . S
O24 Zn17 2.025 1_545 S
O24 C27 1.258 . S
O25 Zn19 2.035 . S
O25 C27 1.258 . S
C26 O20 1.250 . S
C26 O21 1.258 . S
C27 O24 1.258 . S
C27 O25 1.258 . S
C28 O30 1.247 . S
C28 O32 1.258 . S
C29 O36 1.247 . S
C29 O37 1.258 . S
O30 C28 1.247 . S
O30 Zn31 2.028 . S
Zn31 O30 2.028 . S
Zn31 O35 2.035 1_556 S
Zn31 O37 2.035 1_556 S
Zn31 O38 2.028 . S
O32 C28 1.258 . S
O32 Zn33 2.035 1_556 S
Zn33 O32 2.035 1_554 S
Zn33 O34 2.028 . S
Zn33 O36 2.028 . S
Zn33 O39 2.035 1_554 S
O34 Zn33 2.028 . S
O34 C40 1.247 . S
O35 Zn31 2.035 1_554 S
O35 C40 1.258 . S
O36 C29 1.247 . S
O36 Zn33 2.028 . S
O37 C29 1.258 . S
O37 Zn31 2.035 1_554 S
O38 Zn31 2.028 . S
O38 C41 1.247 . S
O39 Zn33 2.035 1_556 S
O39 C41 1.258 . S
C40 O34 1.247 . S
C40 O35 1.258 . S
C41 O38 1.247 . S
C41 O39 1.258 . S
C42 O44 1.247 . S
C42 O46 1.271 . S
C43 O50 1.247 . S
C43 O51 1.263 . S
O44 C42 1.247 . S
O44 Zn45 2.028 . S
Zn45 O44 2.028 . S
Zn45 O49 2.029 1_455 S
Zn45 O51 2.034 1_455 S
Zn45 O52 2.028 . S
O46 C42 1.271 . S
O46 Zn47 2.032 1_455 S
Zn47 O46 2.032 1_655 S
Zn47 O48 2.028 . S
Zn47 O50 2.028 . S
Zn47 O53 2.020 1_655 S
O48 Zn47 2.028 . S
O48 C54 1.247 . S
O49 Zn45 2.029 1_655 S
O49 C54 1.265 . S
O50 C43 1.247 . S
O50 Zn47 2.028 . S
O51 C43 1.263 . S
O51 Zn45 2.034 1_655 S
O52 Zn45 2.028 . S
O52 C55 1.247 . S
O53 Zn47 2.020 1_455 S
O53 C55 1.276 . S
C54 O48 1.247 . S
C54 O49 1.265 . S
C55 O52 1.247 . S
C55 O53 1.276 . S
C56 O58 1.252 . S
C56 O60 1.258 . S
C57 O64 1.262 . S
C57 O65 1.258 . S
O58 C56 1.252 . S
O58 Zn59 2.023 1_565 S
Zn59 O58 2.023 1_545 S
Zn59 O63 2.035 1_554 S
Zn59 O65 2.035 1_554 S
Zn59 O66 2.027 1_545 S
O60 C56 1.258 . S
O60 Zn61 2.035 1_554 S
Zn61 O60 2.035 1_556 S
Zn61 O62 2.025 1_565 S
Zn61 O64 2.014 1_565 S
Zn61 O67 2.035 1_556 S
O62 Zn61 2.025 1_545 S
O62 C68 1.258 . S
O63 Zn59 2.035 1_556 S
O63 C68 1.258 . S
O64 C57 1.262 . S
O64 Zn61 2.014 1_545 S
O65 C57 1.258 . S
O65 Zn59 2.035 1_556 S
O66 Zn59 2.027 1_565 S
O66 C69 1.250 . S
O67 Zn61 2.035 1_554 S
O67 C69 1.258 . S
C68 O62 1.258 . S
C68 O63 1.258 . S
C69 O66 1.250 . S
C69 O67 1.258 . S
C70 O72 1.247 . S
C70 O74 1.258 . S
C71 O78 1.247 . S
C71 O79 1.258 . S
O72 C70 1.247 . S
O72 Zn73 2.028 . S
Zn73 O72 2.028 . S
Zn73 O77 2.035 . S
Zn73 O79 2.035 . S
Zn73 O80 2.028 . S
O74 C70 1.258 . S
O74 Zn75 2.035 . S
Zn75 O74 2.035 . S
Zn75 O76 2.028 . S
Zn75 O78 2.028 . S
Zn75 O81 2.035 . S
O76 Zn75 2.028 . S
O76 C82 1.247 . S
O77 Zn73 2.035 . S
O77 C82 1.258 . S
O78 C71 1.247 . S
O78 Zn75 2.028 . S
O79 C71 1.258 . S
O79 Zn73 2.035 . S
O80 Zn73 2.028 . S
O80 C83 1.247 . S
O81 Zn75 2.035 . S
O81 C83 1.258 . S
C82 O76 1.247 . S
C82 O77 1.258 . S
C83 O80 1.247 . S
C83 O81 1.258 . S
C84 O86 1.247 . S
C84 O88 1.258 . S
C85 O92 1.247 . S
C85 O93 1.258 . S
O86 C84 1.247 . S
O86 Zn87 2.028 . S
Zn87 O86 2.028 . S
Zn87 O91 2.035 . S
Zn87 O93 2.035 . S
Zn87 O94 2.028 . S
O88 C84 1.258 . S
O88 Zn89 2.035 . S
Zn89 O88 2.035 . S
Zn89 O90 2.028 . S
Zn89 O92 2.028 . S
Zn89 O95 2.035 . S
O90 Zn89 2.028 . S
O90 C96 1.247 . S
O91 Zn87 2.035 . S
O91 C96 1.258 . S
O92 C85 1.247 . S
O92 Zn89 2.028 . S
O93 C85 1.258 . S
O93 Zn87 2.035 . S
O94 Zn87 2.028 . S
O94 C97 1.247 . S
O95 Zn89 2.035 . S
O95 C97 1.258 . S
C96 O90 1.247 . S
C96 O91 1.258 . S
C97 O94 1.247 . S
C97 O95 1.258 . S
C98 O100 1.247 . S
C98 O102 1.258 . S
C99 O106 1.247 . S
C99 O107 1.258 . S
O100 C98 1.247 . S
O100 Zn101 2.028 . S
Zn101 O100 2.028 . S
Zn101 O105 2.035 . S
Zn101 O107 2.035 . S
Zn101 O108 2.028 . S
O102 C98 1.258 . S
O102 Zn103 2.035 . S
Zn103 O102 2.035 . S
Zn103 O104 2.028 . S
Zn103 O106 2.028 . S
Zn103 O109 2.035 . S
O104 Zn103 2.028 . S
O104 C110 1.247 . S
O105 Zn101 2.035 . S
O105 C110 1.258 . S
O106 C99 1.247 . S
O106 Zn103 2.028 . S
O107 C99 1.258 . S
O107 Zn101 2.035 . S
O108 Zn101 2.028 . S
O108 C111 1.247 . S
O109 Zn103 2.035 . S
O109 C111 1.258 . S
C110 O104 1.247 . S
C110 O105 1.258 . S
C111 O108 1.247 . S
C111 O109 1.258 . S
C112 O114 1.247 . S
C112 O116 1.258 . S
C113 O120 1.247 . S
C113 O121 1.258 . S
O114 C112 1.247 . S
O114 Zn115 2.028 . S
Zn115 O114 2.028 . S
Zn115 O119 2.035 . S
Zn115 O121 2.035 . S
Zn115 O122 2.028 . S
O116 C112 1.258 . S
O116 Zn117 2.035 . S
Zn117 O116 2.035 . S
Zn117 O118 2.028 . S
Zn117 O120 2.028 . S
Zn117 O123 2.035 . S
O118 Zn117 2.028 . S
O118 C124 1.247 . S
O119 Zn115 2.035 . S
O119 C124 1.258 . S
O120 C113 1.247 . S
O120 Zn117 2.028 . S
O121 C113 1.258 . S
O121 Zn115 2.035 . S
O122 Zn115 2.028 . S
O122 C125 1.247 . S
O123 Zn117 2.035 . S
O123 C125 1.258 . S
C124 O118 1.247 . S
C124 O119 1.258 . S
C125 O122 1.247 . S
C125 O123 1.258 . S
C126 O128 1.247 . S
C126 O130 1.258 . S
C127 O134 1.247 . S
C127 O135 1.258 . S
O128 C126 1.247 . S
O128 Zn129 2.028 . S
Zn129 O128 2.028 . S
Zn129 O133 2.035 . S
Zn129 O135 2.035 . S
Zn129 O136 2.028 . S
O130 C126 1.258 . S
O130 Zn131 2.035 . S
Zn131 O130 2.035 . S
Zn131 O132 2.028 . S
Zn131 O134 2.028 . S
Zn131 O137 2.035 . S
O132 Zn131 2.028 . S
O132 C138 1.247 . S
O133 Zn129 2.035 . S
O133 C138 1.258 . S
O134 C127 1.247 . S
O134 Zn131 2.028 . S
O135 C127 1.258 . S
O135 Zn129 2.035 . S
O136 Zn129 2.028 . S
O136 C139 1.247 . S
O137 Zn131 2.035 . S
O137 C139 1.258 . S
C138 O132 1.247 . S
C138 O133 1.258 . S
C139 O136 1.247 . S
C139 O137 1.258 . S
C140 O142 1.247 . S
C140 O144 1.258 . S
C141 O148 1.247 . S
C141 O149 1.258 . S
O142 C140 1.247 . S
O142 Zn143 2.028 . S
Zn143 O142 2.028 . S
Zn143 O147 2.035 . S
Zn143 O149 2.035 . S
Zn143 O150 2.028 . S
O144 C140 1.258 . S
O144 Zn145 2.035 . S
Zn145 O144 2.035 . S
Zn145 O146 2.028 . S
Zn145 O148 2.028 . S
Zn145 O151 2.035 . S
O146 Zn145 2.028 . S
O146 C152 1.247 . S
O147 Zn143 2.035 . S
O147 C152 1.258 . S
O148 C141 1.247 . S
O148 Zn145 2.028 . S
O149 C141 1.258 . S
O149 Zn143 2.035 . S
O150 Zn143 2.028 . S
O150 C153 1.247 . S
O151 Zn145 2.035 . S
O151 C153 1.258 . S
C152 O146 1.247 . S
C152 O147 1.258 . S
C153 O150 1.247 . S
C153 O151 1.258 . S
C154 O156 1.247 . S
C154 O158 1.258 . S
C155 O162 1.247 . S
C155 O163 1.258 . S
O156 C154 1.247 . S
O156 Zn157 2.028 . S
Zn157 O156 2.028 . S
Zn157 O161 2.035 . S
Zn157 O163 2.035 . S
Zn157 O164 2.028 . S
O158 C154 1.258 . S
O158 Zn159 2.035 . S
Zn159 O158 2.035 . S
Zn159 O160 2.028 . S
Zn159 O162 2.028 . S
Zn159 O165 2.035 . S
O160 Zn159 2.028 . S
O160 C166 1.247 . S
O161 Zn157 2.035 . S
O161 C166 1.258 . S
O162 C155 1.247 . S
O162 Zn159 2.028 . S
O163 C155 1.258 . S
O163 Zn157 2.035 . S
O164 Zn157 2.028 . S
O164 C167 1.247 . S
O165 Zn159 2.035 . S
O165 C167 1.258 . S
C166 O160 1.247 . S
C166 O161 1.258 . S
C167 O164 1.247 . S
C167 O165 1.258 . S
H168 C176 0.929 . S
H169 C178 0.930 . S
H170 C180 0.930 . S
H171 C183 0.929 . S
H172 C186 0.930 . S
H173 C188 0.960 . S
H174 C188 0.960 . S
H175 C188 0.960 . S
C176 H168 0.929 . S
C176 C177 1.377 . S
C176 C178 1.384 . S
C177 C176 1.377 . S
C177 C183 1.390 . S
C178 H169 0.930 . S
C178 C176 1.384 . S
C178 C179 1.372 . S
C179 C178 1.372 . S
C179 C180 1.400 . S
C179 C184 1.490 . S
C180 H170 0.930 . S
C180 C179 1.400 . S
C180 C183 1.386 . S
H181 C197 0.930 . S
H182 C198 0.931 . S
C183 H171 0.929 . S
C183 C177 1.390 . S
C183 C180 1.386 . S
C184 C179 1.490 . S
C184 C186 1.395 . S
C184 C187 1.403 . S
H185 C191 0.930 . S
C186 H172 0.930 . S
C186 C184 1.395 . S
C186 C189 1.403 . S
C187 C184 1.403 . S
C187 C188 1.524 . S
C187 C191 1.400 . S
C188 H173 0.960 . S
C188 H174 0.960 . S
C188 H175 0.960 . S
C188 C187 1.524 . S
C189 C186 1.403 . S
C189 C190 1.392 . S
C189 C193 1.495 . S
C190 C189 1.392 . S
C190 C191 1.385 . S
C190 C192 1.478 . S
C191 H185 0.930 . S
C191 C187 1.400 . S
C191 C190 1.385 . S
C192 C190 1.478 . S
C192 C194 1.381 . S
C192 C198 1.383 . S
C193 C189 1.495 . S
C193 H199 0.959 . S
C193 H200 0.961 . S
C193 H201 0.960 . S
C194 C192 1.381 . S
C194 C195 1.394 . S
C194 H202 0.930 . S
C195 C194 1.394 . S
C195 C196 1.383 . S
C195 H203 0.929 . S
C196 C195 1.383 . S
C196 C197 1.377 . S
C197 H181 0.930 . S
C197 C196 1.377 . S
C197 C198 1.379 . S
C198 H182 0.931 . S
C198 C192 1.383 . S
C198 C197 1.379 . S
H199 C193 0.959 . S
H200 C193 0.961 . S
H201 C193 0.960 . S
H202 C194 0.930 . S
H203 C195 0.929 . S
H204 C212 0.929 . S
H205 C214 0.930 . S
H206 C216 0.930 . S
H207 C219 0.929 . S
H208 C222 0.930 . S
H209 C224 0.960 . S
H210 C224 0.960 . S
H211 C224 0.960 . S
C212 H204 0.929 . S
C212 C213 1.377 . S
C212 C214 1.384 . S
C213 C212 1.377 . S
C213 C219 1.390 . S
C214 H205 0.930 . S
C214 C212 1.384 . S
C214 C215 1.372 . S
C215 C214 1.372 . S
C215 C216 1.400 . S
C215 C220 1.490 . S
C216 H206 0.930 . S
C216 C215 1.400 . S
C216 C219 1.386 . S
H217 C233 0.930 . S
H218 C234 0.931 . S
C219 H207 0.929 . S
C219 C213 1.390 . S
C219 C216 1.386 . S
C220 C215 1.490 . S
C220 C222 1.395 . S
C220 C223 1.403 . S
H221 C227 0.930 . S
C222 H208 0.930 . S
C222 C220 1.395 . S
C222 C225 1.403 . S
C223 C220 1.403 . S
C223 C224 1.524 . S
C223 C227 1.400 . S
C224 H209 0.960 . S
C224 H210 0.960 . S
C224 H211 0.960 . S
C224 C223 1.524 . S
C225 C222 1.403 . S
C225 C226 1.392 . S
C225 C229 1.495 . S
C226 C225 1.392 . S
C226 C227 1.385 . S
C226 C228 1.478 . S
C227 H221 0.930 . S
C227 C223 1.400 . S
C227 C226 1.385 . S
C228 C226 1.478 . S
C228 C230 1.381 . S
C228 C234 1.383 . S
C229 C225 1.495 . S
C229 H235 0.959 . S
C229 H236 0.961 . S
C229 H237 0.960 . S
C230 C228 1.381 . S
C230 C231 1.394 . S
C230 H238 0.930 . S
C231 C230 1.394 . S
C231 C232 1.383 . S
C231 H239 0.929 . S
C232 C231 1.383 . S
C232 C233 1.377 . S
C233 H217 0.930 . S
C233 C232 1.377 . S
C233 C234 1.379 . S
C234 H218 0.931 . S
C234 C228 1.383 . S
C234 C233 1.379 . S
H235 C229 0.959 . S
H236 C229 0.961 . S
H237 C229 0.960 . S
H238 C230 0.930 . S
H239 C231 0.929 . S
H240 C248 0.929 . S
H241 C250 0.930 . S
H242 C252 0.930 . S
H243 C255 0.929 . S
H244 C258 0.930 . S
H245 C260 0.960 . S
H246 C260 0.960 . S
H247 C260 0.960 . S
C248 H240 0.929 . S
C248 C249 1.377 . S
C248 C250 1.384 . S
C249 C248 1.377 . S
C249 C255 1.390 . S
C250 H241 0.930 . S
C250 C248 1.384 . S
C250 C251 1.372 . S
C251 C250 1.372 . S
C251 C252 1.400 . S
C251 C256 1.490 . S
C252 H242 0.930 . S
C252 C251 1.400 . S
C252 C255 1.386 . S
H253 C269 0.930 . S
H254 C270 0.931 . S
C255 H243 0.929 . S
C255 C249 1.390 . S
C255 C252 1.386 . S
C256 C251 1.490 . S
C256 C258 1.395 . S
C256 C259 1.403 . S
H257 C263 0.930 . S
C258 H244 0.930 . S
C258 C256 1.395 . S
C258 C261 1.403 . S
C259 C256 1.403 . S
C259 C260 1.524 . S
C259 C263 1.400 . S
C260 H245 0.960 . S
C260 H246 0.960 . S
C260 H247 0.960 . S
C260 C259 1.524 . S
C261 C258 1.403 . S
C261 C262 1.392 . S
C261 C265 1.495 . S
C262 C261 1.392 . S
C262 C263 1.385 . S
C262 C264 1.478 . S
C263 H257 0.930 . S
C263 C259 1.400 . S
C263 C262 1.385 . S
C264 C262 1.478 . S
C264 C266 1.381 . S
C264 C270 1.383 . S
C265 C261 1.495 . S
C265 H271 0.959 . S
C265 H272 0.961 . S
C265 H273 0.960 . S
C266 C264 1.381 . S
C266 C267 1.394 . S
C266 H274 0.930 . S
C267 C266 1.394 . S
C267 C268 1.383 . S
C267 H275 0.929 . S
C268 C267 1.383 . S
C268 C269 1.377 . S
C269 H253 0.930 . S
C269 C268 1.377 . S
C269 C270 1.379 . S
C270 H254 0.931 . S
C270 C264 1.383 . S
C270 C269 1.379 . S
H271 C265 0.959 . S
H272 C265 0.961 . S
H273 C265 0.960 . S
H274 C266 0.930 . S
H275 C267 0.929 . S
H276 C284 0.929 . S
H277 C286 0.930 . S
H278 C288 0.930 . S
H279 C291 0.929 . S
H280 C294 0.930 . S
H281 C296 0.960 . S
H282 C296 0.960 . S
H283 C296 0.960 . S
C284 H276 0.929 . S
C284 C285 1.377 . S
C284 C286 1.384 . S
C285 C284 1.377 . S
C285 C291 1.390 . S
C286 H277 0.930 . S
C286 C284 1.384 . S
C286 C287 1.372 . S
C287 C286 1.372 . S
C287 C288 1.400 . S
C287 C292 1.490 . S
C288 H278 0.930 . S
C288 C287 1.400 . S
C288 C291 1.386 . S
H289 C305 0.930 . S
H290 C306 0.931 . S
C291 H279 0.929 . S
C291 C285 1.390 . S
C291 C288 1.386 . S
C292 C287 1.490 . S
C292 C294 1.395 . S
C292 C295 1.403 . S
H293 C299 0.930 . S
C294 H280 0.930 . S
C294 C292 1.395 . S
C294 C297 1.403 . S
C295 C292 1.403 . S
C295 C296 1.524 . S
C295 C299 1.400 . S
C296 H281 0.960 . S
C296 H282 0.960 . S
C296 H283 0.960 . S
C296 C295 1.524 . S
C297 C294 1.403 . S
C297 C298 1.392 . S
C297 C301 1.495 . S
C298 C297 1.392 . S
C298 C299 1.385 . S
C298 C300 1.478 . S
C299 H293 0.930 . S
C299 C295 1.400 . S
C299 C298 1.385 . S
C300 C298 1.478 . S
C300 C302 1.381 . S
C300 C306 1.383 . S
C301 C297 1.495 . S
C301 H307 0.959 . S
C301 H308 0.961 . S
C301 H309 0.960 . S
C302 C300 1.381 . S
C302 C303 1.394 . S
C302 H310 0.930 . S
C303 C302 1.394 . S
C303 C304 1.383 . S
C303 H311 0.929 . S
C304 C303 1.383 . S
C304 C305 1.377 . S
C305 H289 0.930 . S
C305 C304 1.377 . S
C305 C306 1.379 . S
C306 H290 0.931 . S
C306 C300 1.383 . S
C306 C305 1.379 . S
H307 C301 0.959 . S
H308 C301 0.961 . S
H309 C301 0.960 . S
H310 C302 0.930 . S
H311 C303 0.929 . S
H312 C320 0.929 . S
H313 C322 0.930 . S
H314 C324 0.930 . S
H315 C327 0.929 . S
H316 C330 0.930 . S
H317 C332 0.960 . S
H318 C332 0.960 . S
H319 C332 0.960 . S
C320 H312 0.929 . S
C320 C321 1.377 . S
C320 C322 1.384 . S
C321 C320 1.377 . S
C321 C327 1.390 . S
C322 H313 0.930 . S
C322 C320 1.384 . S
C322 C323 1.372 . S
C323 C322 1.372 . S
C323 C324 1.400 . S
C323 C328 1.490 . S
C324 H314 0.930 . S
C324 C323 1.400 . S
C324 C327 1.386 . S
H325 C341 0.930 . S
H326 C342 0.931 . S
C327 H315 0.929 . S
C327 C321 1.390 . S
C327 C324 1.386 . S
C328 C323 1.490 . S
C328 C330 1.395 . S
C328 C331 1.403 . S
H329 C335 0.930 . S
C330 H316 0.930 . S
C330 C328 1.395 . S
C330 C333 1.403 . S
C331 C328 1.403 . S
C331 C332 1.524 . S
C331 C335 1.400 . S
C332 H317 0.960 . S
C332 H318 0.960 . S
C332 H319 0.960 . S
C332 C331 1.524 . S
C333 C330 1.403 . S
C333 C334 1.392 . S
C333 C337 1.495 . S
C334 C333 1.392 . S
C334 C335 1.385 . S
C334 C336 1.478 . S
C335 H329 0.930 . S
C335 C331 1.400 . S
C335 C334 1.385 . S
C336 C334 1.478 . S
C336 C338 1.381 . S
C336 C342 1.383 . S
C337 C333 1.495 . S
C337 H343 0.959 . S
C337 H344 0.961 . S
C337 H345 0.960 . S
C338 C336 1.381 . S
C338 C339 1.394 . S
C338 H346 0.930 . S
C339 C338 1.394 . S
C339 C340 1.383 . S
C339 H347 0.929 . S
C340 C339 1.383 . S
C340 C341 1.377 . S
C341 H325 0.930 . S
C341 C340 1.377 . S
C341 C342 1.379 . S
C342 H326 0.931 . S
C342 C336 1.383 . S
C342 C341 1.379 . S
H343 C337 0.959 . S
H344 C337 0.961 . S
H345 C337 0.960 . S
H346 C338 0.930 . S
H347 C339 0.929 . S
H348 C356 0.929 . S
H349 C358 0.930 . S
H350 C360 0.930 . S
H351 C363 0.929 . S
H352 C366 0.930 . S
H353 C368 0.960 . S
H354 C368 0.960 . S
H355 C368 0.960 . S
C356 H348 0.929 . S
C356 C357 1.377 . S
C356 C358 1.384 . S
C357 C356 1.377 . S
C357 C363 1.390 . S
C358 H349 0.930 . S
C358 C356 1.384 . S
C358 C359 1.372 . S
C359 C358 1.372 . S
C359 C360 1.400 . S
C359 C364 1.490 . S
C360 H350 0.930 . S
C360 C359 1.400 . S
C360 C363 1.386 . S
H361 C377 0.930 . S
H362 C378 0.931 . S
C363 H351 0.929 . S
C363 C357 1.390 . S
C363 C360 1.386 . S
C364 C359 1.490 . S
C364 C366 1.395 . S
C364 C367 1.403 . S
H365 C371 0.930 . S
C366 H352 0.930 . S
C366 C364 1.395 . S
C366 C369 1.403 . S
C367 C364 1.403 . S
C367 C368 1.524 . S
C367 C371 1.400 . S
C368 H353 0.960 . S
C368 H354 0.960 . S
C368 H355 0.960 . S
C368 C367 1.524 . S
C369 C366 1.403 . S
C369 C370 1.392 . S
C369 C373 1.495 . S
C370 C369 1.392 . S
C370 C371 1.385 . S
C370 C372 1.478 . S
C371 H365 0.930 . S
C371 C367 1.400 . S
C371 C370 1.385 . S
C372 C370 1.478 . S
C372 C374 1.381 . S
C372 C378 1.383 . S
C373 C369 1.495 . S
C373 H379 0.959 . S
C373 H380 0.961 . S
C373 H381 0.960 . S
C374 C372 1.381 . S
C374 C375 1.394 . S
C374 H382 0.930 . S
C375 C374 1.394 . S
C375 C376 1.383 . S
C375 H383 0.929 . S
C376 C375 1.383 . S
C376 C377 1.377 . S
C377 H361 0.930 . S
C377 C376 1.377 . S
C377 C378 1.379 . S
C378 H362 0.931 . S
C378 C372 1.383 . S
C378 C377 1.379 . S
H379 C373 0.959 . S
H380 C373 0.961 . S
H381 C373 0.960 . S
H382 C374 0.930 . S
H383 C375 0.929 . S
H384 C392 0.929 . S
H385 C394 0.930 . S
H386 C396 0.930 . S
H387 C399 0.929 . S
H388 C402 0.930 . S
H389 C404 0.960 . S
H390 C404 0.960 . S
H391 C404 0.960 . S
C392 H384 0.929 . S
C392 C393 1.377 . S
C392 C394 1.384 . S
C393 C392 1.377 . S
C393 C399 1.390 . S
C394 H385 0.930 . S
C394 C392 1.384 . S
C394 C395 1.372 . S
C395 C394 1.372 . S
C395 C396 1.400 . S
C395 C400 1.490 . S
C396 H386 0.930 . S
C396 C395 1.400 . S
C396 C399 1.386 . S
H397 C413 0.930 . S
H398 C414 0.931 . S
C399 H387 0.929 . S
C399 C393 1.390 . S
C399 C396 1.386 . S
C400 C395 1.490 . S
C400 C402 1.395 . S
C400 C403 1.403 . S
H401 C407 0.930 . S
C402 H388 0.930 . S
C402 C400 1.395 . S
C402 C405 1.403 . S
C403 C400 1.403 . S
C403 C404 1.524 . S
C403 C407 1.400 . S
C404 H389 0.960 . S
C404 H390 0.960 . S
C404 H391 0.960 . S
C404 C403 1.524 . S
C405 C402 1.403 . S
C405 C406 1.392 . S
C405 C409 1.495 . S
C406 C405 1.392 . S
C406 C407 1.385 . S
C406 C408 1.478 . S
C407 H401 0.930 . S
C407 C403 1.400 . S
C407 C406 1.385 . S
C408 C406 1.478 . S
C408 C410 1.381 . S
C408 C414 1.383 . S
C409 C405 1.495 . S
C409 H415 0.959 . S
C409 H416 0.961 . S
C409 H417 0.960 . S
C410 C408 1.381 . S
C410 C411 1.394 . S
C410 H418 0.930 . S
C411 C410 1.394 . S
C411 C412 1.383 . S
C411 H419 0.929 . S
C412 C411 1.383 . S
C412 C413 1.377 . S
C413 H397 0.930 . S
C413 C412 1.377 . S
C413 C414 1.379 . S
C414 H398 0.931 . S
C414 C408 1.383 . S
C414 C413 1.379 . S
H415 C409 0.959 . S
H416 C409 0.961 . S
H417 C409 0.960 . S
H418 C410 0.930 . S
H419 C411 0.929 . S
H420 C428 0.929 . S
H421 C430 0.930 . S
H422 C432 0.930 . S
H423 C435 0.929 . S
H424 C438 0.930 . S
H425 C440 0.960 . S
H426 C440 0.960 . S
H427 C440 0.960 . S
C428 H420 0.929 . S
C428 C429 1.377 . S
C428 C430 1.384 . S
C429 C428 1.377 . S
C429 C435 1.390 . S
C430 H421 0.930 . S
C430 C428 1.384 . S
C430 C431 1.372 . S
C431 C430 1.372 . S
C431 C432 1.400 . S
C431 C436 1.490 . S
C432 H422 0.930 . S
C432 C431 1.400 . S
C432 C435 1.386 . S
H433 C449 0.930 . S
H434 C450 0.931 . S
C435 H423 0.929 . S
C435 C429 1.390 . S
C435 C432 1.386 . S
C436 C431 1.490 . S
C436 C438 1.395 . S
C436 C439 1.403 . S
H437 C443 0.930 . S
C438 H424 0.930 . S
C438 C436 1.395 . S
C438 C441 1.403 . S
C439 C436 1.403 . S
C439 C440 1.524 . S
C439 C443 1.400 . S
C440 H425 0.960 . S
C440 H426 0.960 . S
C440 H427 0.960 . S
C440 C439 1.524 . S
C441 C438 1.403 . S
C441 C442 1.392 . S
C441 C445 1.495 . S
C442 C441 1.392 . S
C442 C443 1.385 . S
C442 C444 1.478 . S
C443 H437 0.930 . S
C443 C439 1.400 . S
C443 C442 1.385 . S
C444 C442 1.478 . S
C444 C446 1.381 . S
C444 C450 1.383 . S
C445 C441 1.495 . S
C445 H451 0.959 . S
C445 H452 0.961 . S
C445 H453 0.960 . S
C446 C444 1.381 . S
C446 C447 1.394 . S
C446 H454 0.930 . S
C447 C446 1.394 . S
C447 C448 1.383 . S
C447 H455 0.929 . S
C448 C447 1.383 . S
C448 C449 1.377 . S
C449 H433 0.930 . S
C449 C448 1.377 . S
C449 C450 1.379 . S
C450 H434 0.931 . S
C450 C444 1.383 . S
C450 C449 1.379 . S
H451 C445 0.959 . S
H452 C445 0.961 . S
H453 C445 0.960 . S
H454 C446 0.930 . S
H455 C447 0.929 . S
H456 C464 0.929 . S
H457 C466 0.930 . S
H458 C468 0.930 . S
H459 C471 0.929 . S
H460 C474 0.930 . S
H461 C476 0.960 . S
H462 C476 0.960 . S
H463 C476 0.960 . S
C464 H456 0.929 . S
C464 C465 1.377 . S
C464 C466 1.384 . S
C465 C464 1.377 . S
C465 C471 1.390 . S
C466 H457 0.930 . S
C466 C464 1.384 . S
C466 C467 1.372 . S
C467 C466 1.372 . S
C467 C468 1.400 . S
C467 C472 1.490 . S
C468 H458 0.930 . S
C468 C467 1.400 . S
C468 C471 1.386 . S
H469 C485 0.930 . S
H470 C486 0.931 . S
C471 H459 0.929 . S
C471 C465 1.390 . S
C471 C468 1.386 . S
C472 C467 1.490 . S
C472 C474 1.395 . S
C472 C475 1.403 . S
H473 C479 0.930 . S
C474 H460 0.930 . S
C474 C472 1.395 . S
C474 C477 1.403 . S
C475 C472 1.403 . S
C475 C476 1.524 . S
C475 C479 1.400 . S
C476 H461 0.960 . S
C476 H462 0.960 . S
C476 H463 0.960 . S
C476 C475 1.524 . S
C477 C474 1.403 . S
C477 C478 1.392 . S
C477 C481 1.495 . S
C478 C477 1.392 . S
C478 C479 1.385 . S
C478 C480 1.478 . S
C479 H473 0.930 . S
C479 C475 1.400 . S
C479 C478 1.385 . S
C480 C478 1.478 . S
C480 C482 1.381 . S
C480 C486 1.383 . S
C481 C477 1.495 . S
C481 H487 0.959 . S
C481 H488 0.961 . S
C481 H489 0.960 . S
C482 C480 1.381 . S
C482 C483 1.394 . S
C482 H490 0.930 . S
C483 C482 1.394 . S
C483 C484 1.383 . S
C483 H491 0.929 . S
C484 C483 1.383 . S
C484 C485 1.377 . S
C485 H469 0.930 . S
C485 C484 1.377 . S
C485 C486 1.379 . S
C486 H470 0.931 . S
C486 C480 1.383 . S
C486 C485 1.379 . S
H487 C481 0.959 . S
H488 C481 0.961 . S
H489 C481 0.960 . S
H490 C482 0.930 . S
H491 C483 0.929 . S
H492 C500 0.929 . S
H493 C502 0.930 . S
H494 C504 0.930 . S
H495 C507 0.929 . S
H496 C510 0.930 . S
H497 C512 0.960 . S
H498 C512 0.960 . S
H499 C512 0.960 . S
C500 H492 0.929 . S
C500 C501 1.377 . S
C500 C502 1.384 . S
C501 C500 1.377 . S
C501 C507 1.390 . S
C502 H493 0.930 . S
C502 C500 1.384 . S
C502 C503 1.372 . S
C503 C502 1.372 . S
C503 C504 1.400 . S
C503 C508 1.490 . S
C504 H494 0.930 . S
C504 C503 1.400 . S
C504 C507 1.386 . S
H505 C521 0.930 . S
H506 C522 0.931 . S
C507 H495 0.929 . S
C507 C501 1.390 . S
C507 C504 1.386 . S
C508 C503 1.490 . S
C508 C510 1.395 . S
C508 C511 1.403 . S
H509 C515 0.930 . S
C510 H496 0.930 . S
C510 C508 1.395 . S
C510 C513 1.403 . S
C511 C508 1.403 . S
C511 C512 1.524 . S
C511 C515 1.400 . S
C512 H497 0.960 . S
C512 H498 0.960 . S
C512 H499 0.960 . S
C512 C511 1.524 . S
C513 C510 1.403 . S
C513 C514 1.392 . S
C513 C517 1.495 . S
C514 C513 1.392 . S
C514 C515 1.385 . S
C514 C516 1.478 . S
C515 H509 0.930 . S
C515 C511 1.400 . S
C515 C514 1.385 . S
C516 C514 1.478 . S
C516 C518 1.381 . S
C516 C522 1.383 . S
C517 C513 1.495 . S
C517 H523 0.959 . S
C517 H524 0.961 . S
C517 H525 0.960 . S
C518 C516 1.381 . S
C518 C519 1.394 . S
C518 H526 0.930 . S
C519 C518 1.394 . S
C519 C520 1.383 . S
C519 H527 0.929 . S
C520 C519 1.383 . S
C520 C521 1.377 . S
C521 H505 0.930 . S
C521 C520 1.377 . S
C521 C522 1.379 . S
C522 H506 0.931 . S
C522 C516 1.383 . S
C522 C521 1.379 . S
H523 C517 0.959 . S
H524 C517 0.961 . S
H525 C517 0.960 . S
H526 C518 0.930 . S
H527 C519 0.929 . S
H528 C536 0.929 . S
H529 C538 0.930 . S
H530 C540 0.930 . S
H531 C543 0.929 . S
H532 C546 0.930 . S
H533 C548 0.960 . S
H534 C548 0.960 . S
H535 C548 0.960 . S
C536 H528 0.929 . S
C536 C537 1.377 . S
C536 C538 1.384 . S
C537 C536 1.377 . S
C537 C543 1.390 . S
C538 H529 0.930 . S
C538 C536 1.384 . S
C538 C539 1.372 . S
C539 C538 1.372 . S
C539 C540 1.400 . S
C539 C544 1.490 . S
C540 H530 0.930 . S
C540 C539 1.400 . S
C540 C543 1.386 . S
H541 C557 0.930 . S
H542 C558 0.931 . S
C543 H531 0.929 . S
C543 C537 1.390 . S
C543 C540 1.386 . S
C544 C539 1.490 . S
C544 C546 1.395 . S
C544 C547 1.403 . S
H545 C551 0.930 . S
C546 H532 0.930 . S
C546 C544 1.395 . S
C546 C549 1.403 . S
C547 C544 1.403 . S
C547 C548 1.524 . S
C547 C551 1.400 . S
C548 H533 0.960 . S
C548 H534 0.960 . S
C548 H535 0.960 . S
C548 C547 1.524 . S
C549 C546 1.403 . S
C549 C550 1.392 . S
C549 C553 1.495 . S
C550 C549 1.392 . S
C550 C551 1.385 . S
C550 C552 1.478 . S
C551 H545 0.930 . S
C551 C547 1.400 . S
C551 C550 1.385 . S
C552 C550 1.478 . S
C552 C554 1.381 . S
C552 C558 1.383 . S
C553 C549 1.495 . S
C553 H559 0.959 . S
C553 H560 0.961 . S
C553 H561 0.960 . S
C554 C552 1.381 . S
C554 C555 1.394 . S
C554 H562 0.930 . S
C555 C554 1.394 . S
C555 C556 1.383 . S
C555 H563 0.929 . S
C556 C555 1.383 . S
C556 C557 1.377 . S
C557 H541 0.930 . S
C557 C556 1.377 . S
C557 C558 1.379 . S
C558 H542 0.931 . S
C558 C552 1.383 . S
C558 C557 1.379 . S
H559 C553 0.959 . S
H560 C553 0.961 . S
H561 C553 0.960 . S
H562 C554 0.930 . S
H563 C555 0.929 . S
H564 C572 0.929 . S
H565 C574 0.930 . S
H566 C576 0.930 . S
H567 C579 0.929 . S
H568 C582 0.930 . S
H569 C584 0.960 . S
H570 C584 0.960 . S
H571 C584 0.960 . S
C572 H564 0.929 . S
C572 C573 1.377 . S
C572 C574 1.384 . S
C573 C572 1.377 . S
C573 C579 1.390 . S
C574 H565 0.930 . S
C574 C572 1.384 . S
C574 C575 1.372 . S
C575 C574 1.372 . S
C575 C576 1.400 . S
C575 C580 1.490 . S
C576 H566 0.930 . S
C576 C575 1.400 . S
C576 C579 1.386 . S
H577 C593 0.930 . S
H578 C594 0.931 . S
C579 H567 0.929 . S
C579 C573 1.390 . S
C579 C576 1.386 . S
C580 C575 1.490 . S
C580 C582 1.395 . S
C580 C583 1.403 . S
H581 C587 0.930 . S
C582 H568 0.930 . S
C582 C580 1.395 . S
C582 C585 1.403 . S
C583 C580 1.403 . S
C583 C584 1.524 . S
C583 C587 1.400 . S
C584 H569 0.960 . S
C584 H570 0.960 . S
C584 H571 0.960 . S
C584 C583 1.524 . S
C585 C582 1.403 . S
C585 C586 1.392 . S
C585 C589 1.495 . S
C586 C585 1.392 . S
C586 C587 1.385 . S
C586 C588 1.478 . S
C587 H581 0.930 . S
C587 C583 1.400 . S
C587 C586 1.385 . S
C588 C586 1.478 . S
C588 C590 1.381 . S
C588 C594 1.383 . S
C589 C585 1.495 . S
C589 H595 0.959 . S
C589 H596 0.961 . S
C589 H597 0.960 . S
C590 C588 1.381 . S
C590 C591 1.394 . S
C590 H598 0.930 . S
C591 C590 1.394 . S
C591 C592 1.383 . S
C591 H599 0.929 . S
C592 C591 1.383 . S
C592 C593 1.377 . S
C593 H577 0.930 . S
C593 C592 1.377 . S
C593 C594 1.379 . S
C594 H578 0.931 . S
C594 C588 1.383 . S
C594 C593 1.379 . S
H595 C589 0.959 . S
H596 C589 0.961 . S
H597 C589 0.960 . S
H598 C590 0.930 . S
H599 C591 0.929 . S
H600 C608 0.929 . S
H601 C610 0.930 . S
H602 C612 0.930 . S
H603 C615 0.929 . S
H604 C618 0.930 . S
H605 C620 0.960 . S
H606 C620 0.960 . S
H607 C620 0.960 . S
C608 H600 0.929 . S
C608 C609 1.377 . S
C608 C610 1.384 . S
C609 C608 1.377 . S
C609 C615 1.390 . S
C610 H601 0.930 . S
C610 C608 1.384 . S
C610 C611 1.372 . S
C611 C610 1.372 . S
C611 C612 1.400 . S
C611 C616 1.490 . S
C612 H602 0.930 . S
C612 C611 1.400 . S
C612 C615 1.386 . S
H613 C629 0.930 . S
H614 C630 0.931 . S
C615 H603 0.929 . S
C615 C609 1.390 . S
C615 C612 1.386 . S
C616 C611 1.490 . S
C616 C618 1.395 . S
C616 C619 1.403 . S
H617 C623 0.930 . S
C618 H604 0.930 . S
C618 C616 1.395 . S
C618 C621 1.403 . S
C619 C616 1.403 . S
C619 C620 1.524 . S
C619 C623 1.400 . S
C620 H605 0.960 . S
C620 H606 0.960 . S
C620 H607 0.960 . S
C620 C619 1.524 . S
C621 C618 1.403 . S
C621 C622 1.392 . S
C621 C625 1.495 . S
C622 C621 1.392 . S
C622 C623 1.385 . S
C622 C624 1.478 . S
C623 H617 0.930 . S
C623 C619 1.400 . S
C623 C622 1.385 . S
C624 C622 1.478 . S
C624 C626 1.381 . S
C624 C630 1.383 . S
C625 C621 1.495 . S
C625 H631 0.959 . S
C625 H632 0.961 . S
C625 H633 0.960 . S
C626 C624 1.381 . S
C626 C627 1.394 . S
C626 H634 0.930 . S
C627 C626 1.394 . S
C627 C628 1.383 . S
C627 H635 0.929 . S
C628 C627 1.383 . S
C628 C629 1.377 . S
C629 H613 0.930 . S
C629 C628 1.377 . S
C629 C630 1.379 . S
C630 H614 0.931 . S
C630 C624 1.383 . S
C630 C629 1.379 . S
H631 C625 0.959 . S
H632 C625 0.961 . S
H633 C625 0.960 . S
H634 C626 0.930 . S
H635 C627 0.929 . S
H636 C644 0.929 . S
H637 C646 0.930 . S
H638 C648 0.930 . S
H639 C651 0.929 . S
H640 C654 0.930 . S
H641 C656 0.960 . S
H642 C656 0.960 . S
H643 C656 0.960 . S
C644 H636 0.929 . S
C644 C645 1.377 . S
C644 C646 1.384 . S
C645 C644 1.377 . S
C645 C651 1.390 . S
C646 H637 0.930 . S
C646 C644 1.384 . S
C646 C647 1.372 . S
C647 C646 1.372 . S
C647 C648 1.400 . S
C647 C652 1.490 . S
C648 H638 0.930 . S
C648 C647 1.400 . S
C648 C651 1.386 . S
H649 C665 0.930 . S
H650 C666 0.931 . S
C651 H639 0.929 . S
C651 C645 1.390 . S
C651 C648 1.386 . S
C652 C647 1.490 . S
C652 C654 1.395 . S
C652 C655 1.403 . S
H653 C659 0.930 . S
C654 H640 0.930 . S
C654 C652 1.395 . S
C654 C657 1.403 . S
C655 C652 1.403 . S
C655 C656 1.524 . S
C655 C659 1.400 . S
C656 H641 0.960 . S
C656 H642 0.960 . S
C656 H643 0.960 . S
C656 C655 1.524 . S
C657 C654 1.403 . S
C657 C658 1.392 . S
C657 C661 1.495 . S
C658 C657 1.392 . S
C658 C659 1.385 . S
C658 C660 1.478 . S
C659 H653 0.930 . S
C659 C655 1.400 . S
C659 C658 1.385 . S
C660 C658 1.478 . S
C660 C662 1.381 . S
C660 C666 1.383 . S
C661 C657 1.495 . S
C661 H667 0.959 . S
C661 H668 0.961 . S
C661 H669 0.960 . S
C662 C660 1.381 . S
C662 C663 1.394 . S
C662 H670 0.930 . S
C663 C662 1.394 . S
C663 C664 1.383 . S
C663 H671 0.929 . S
C664 C663 1.383 . S
C664 C665 1.377 . S
C665 H649 0.930 . S
C665 C664 1.377 . S
C665 C666 1.379 . S
C666 H650 0.931 . S
C666 C660 1.383 . S
C666 C665 1.379 . S
H667 C661 0.959 . S
H668 C661 0.961 . S
H669 C661 0.960 . S
H670 C662 0.930 . S
H671 C663 0.929 . S
H672 C680 0.929 . S
H673 C682 0.930 . S
H674 C684 0.930 . S
H675 C687 0.929 . S
H676 C690 0.930 . S
H677 C692 0.960 . S
H678 C692 0.960 . S
H679 C692 0.960 . S
C680 H672 0.929 . S
C680 C681 1.377 . S
C680 C682 1.384 . S
C681 C680 1.377 . S
C681 C687 1.390 . S
C682 H673 0.930 . S
C682 C680 1.384 . S
C682 C683 1.372 . S
C683 C682 1.372 . S
C683 C684 1.400 . S
C683 C688 1.490 . S
C684 H674 0.930 . S
C684 C683 1.400 . S
C684 C687 1.386 . S
H685 C701 0.930 . S
H686 C702 0.931 . S
C687 H675 0.929 . S
C687 C681 1.390 . S
C687 C684 1.386 . S
C688 C683 1.490 . S
C688 C690 1.395 . S
C688 C691 1.403 . S
H689 C695 0.930 . S
C690 H676 0.930 . S
C690 C688 1.395 . S
C690 C693 1.403 . S
C691 C688 1.403 . S
C691 C692 1.524 . S
C691 C695 1.400 . S
C692 H677 0.960 . S
C692 H678 0.960 . S
C692 H679 0.960 . S
C692 C691 1.524 . S
C693 C690 1.403 . S
C693 C694 1.392 . S
C693 C697 1.495 . S
C694 C693 1.392 . S
C694 C695 1.385 . S
C694 C696 1.478 . S
C695 H689 0.930 . S
C695 C691 1.400 . S
C695 C694 1.385 . S
C696 C694 1.478 . S
C696 C698 1.381 . S
C696 C702 1.383 . S
C697 C693 1.495 . S
C697 H703 0.959 . S
C697 H704 0.961 . S
C697 H705 0.960 . S
C698 C696 1.381 . S
C698 C699 1.394 . S
C698 H706 0.930 . S
C699 C698 1.394 . S
C699 C700 1.383 . S
C699 H707 0.929 . S
C700 C699 1.383 . S
C700 C701 1.377 . S
C701 H685 0.930 . S
C701 C700 1.377 . S
C701 C702 1.379 . S
C702 H686 0.931 . S
C702 C696 1.383 . S
C702 C701 1.379 . S
H703 C697 0.959 . S
H704 C697 0.961 . S
H705 C697 0.960 . S
H706 C698 0.930 . S
H707 C699 0.929 . S
H708 C716 0.929 . S
H709 C718 0.930 . S
H710 C720 0.930 . S
H711 C723 0.929 . S
H712 C726 0.930 . S
H713 C728 0.960 . S
H714 C728 0.960 . S
H715 C728 0.960 . S
C716 H708 0.929 . S
C716 C717 1.377 . S
C716 C718 1.384 . S
C717 C716 1.377 . S
C717 C723 1.390 . S
C718 H709 0.930 . S
C718 C716 1.384 . S
C718 C719 1.372 . S
C719 C718 1.372 . S
C719 C720 1.400 . S
C719 C724 1.490 . S
C720 H710 0.930 . S
C720 C719 1.400 . S
C720 C723 1.386 . S
H721 C737 0.930 . S
H722 C738 0.931 . S
C723 H711 0.929 . S
C723 C717 1.390 . S
C723 C720 1.386 . S
C724 C719 1.490 . S
C724 C726 1.395 . S
C724 C727 1.403 . S
H725 C731 0.930 . S
C726 H712 0.930 . S
C726 C724 1.395 . S
C726 C729 1.403 . S
C727 C724 1.403 . S
C727 C728 1.524 . S
C727 C731 1.400 . S
C728 H713 0.960 . S
C728 H714 0.960 . S
C728 H715 0.960 . S
C728 C727 1.524 . S
C729 C726 1.403 . S
C729 C730 1.392 . S
C729 C733 1.495 . S
C730 C729 1.392 . S
C730 C731 1.385 . S
C730 C732 1.478 . S
C731 H725 0.930 . S
C731 C727 1.400 . S
C731 C730 1.385 . S
C732 C730 1.478 . S
C732 C734 1.381 . S
C732 C738 1.383 . S
C733 C729 1.495 . S
C733 H739 0.959 . S
C733 H740 0.961 . S
C733 H741 0.960 . S
C734 C732 1.381 . S
C734 C735 1.394 . S
C734 H742 0.930 . S
C735 C734 1.394 . S
C735 C736 1.383 . S
C735 H743 0.929 . S
C736 C735 1.383 . S
C736 C737 1.377 . S
C737 H721 0.930 . S
C737 C736 1.377 . S
C737 C738 1.379 . S
C738 H722 0.931 . S
C738 C732 1.383 . S
C738 C737 1.379 . S
H739 C733 0.959 . S
H740 C733 0.961 . S
H741 C733 0.960 . S
H742 C734 0.930 . S
H743 C735 0.929 . S
H744 C752 0.929 . S
H745 C754 0.930 . S
H746 C756 0.930 . S
H747 C759 0.929 . S
H748 C762 0.930 . S
H749 C764 0.960 . S
H750 C764 0.960 . S
H751 C764 0.960 . S
C752 H744 0.929 . S
C752 C753 1.377 . S
C752 C754 1.384 . S
C753 C752 1.377 . S
C753 C759 1.390 . S
C754 H745 0.930 . S
C754 C752 1.384 . S
C754 C755 1.372 . S
C755 C754 1.372 . S
C755 C756 1.400 . S
C755 C760 1.490 . S
C756 H746 0.930 . S
C756 C755 1.400 . S
C756 C759 1.386 . S
H757 C773 0.930 . S
H758 C774 0.931 . S
C759 H747 0.929 . S
C759 C753 1.390 . S
C759 C756 1.386 . S
C760 C755 1.490 . S
C760 C762 1.395 . S
C760 C763 1.403 . S
H761 C767 0.930 . S
C762 H748 0.930 . S
C762 C760 1.395 . S
C762 C765 1.403 . S
C763 C760 1.403 . S
C763 C764 1.524 . S
C763 C767 1.400 . S
C764 H749 0.960 . S
C764 H750 0.960 . S
C764 H751 0.960 . S
C764 C763 1.524 . S
C765 C762 1.403 . S
C765 C766 1.392 . S
C765 C769 1.495 . S
C766 C765 1.392 . S
C766 C767 1.385 . S
C766 C768 1.478 . S
C767 H761 0.930 . S
C767 C763 1.400 . S
C767 C766 1.385 . S
C768 C766 1.478 . S
C768 C770 1.381 . S
C768 C774 1.383 . S
C769 C765 1.495 . S
C769 H775 0.959 . S
C769 H776 0.961 . S
C769 H777 0.960 . S
C770 C768 1.381 . S
C770 C771 1.394 . S
C770 H778 0.930 . S
C771 C770 1.394 . S
C771 C772 1.383 . S
C771 H779 0.929 . S
C772 C771 1.383 . S
C772 C773 1.377 . S
C773 H757 0.930 . S
C773 C772 1.377 . S
C773 C774 1.379 . S
C774 H758 0.931 . S
C774 C768 1.383 . S
C774 C773 1.379 . S
H775 C769 0.959 . S
H776 C769 0.961 . S
H777 C769 0.960 . S
H778 C770 0.930 . S
H779 C771 0.929 . S
H780 C788 0.929 . S
H781 C790 0.930 . S
H782 C792 0.930 . S
H783 C795 0.929 . S
H784 C798 0.930 . S
H785 C800 0.960 . S
H786 C800 0.960 . S
H787 C800 0.960 . S
C788 H780 0.929 . S
C788 C789 1.377 . S
C788 C790 1.384 . S
C789 C788 1.377 . S
C789 C795 1.390 . S
C790 H781 0.930 . S
C790 C788 1.384 . S
C790 C791 1.372 . S
C791 C790 1.372 . S
C791 C792 1.400 . S
C791 C796 1.490 . S
C792 H782 0.930 . S
C792 C791 1.400 . S
C792 C795 1.386 . S
H793 C809 0.930 . S
H794 C810 0.931 . S
C795 H783 0.929 . S
C795 C789 1.390 . S
C795 C792 1.386 . S
C796 C791 1.490 . S
C796 C798 1.395 . S
C796 C799 1.403 . S
H797 C803 0.930 . S
C798 H784 0.930 . S
C798 C796 1.395 . S
C798 C801 1.403 . S
C799 C796 1.403 . S
C799 C800 1.524 . S
C799 C803 1.400 . S
C800 H785 0.960 . S
C800 H786 0.960 . S
C800 H787 0.960 . S
C800 C799 1.524 . S
C801 C798 1.403 . S
C801 C802 1.392 . S
C801 C805 1.495 . S
C802 C801 1.392 . S
C802 C803 1.385 . S
C802 C804 1.478 . S
C803 H797 0.930 . S
C803 C799 1.400 . S
C803 C802 1.385 . S
C804 C802 1.478 . S
C804 C806 1.381 . S
C804 C810 1.383 . S
C805 C801 1.495 . S
C805 H811 0.959 . S
C805 H812 0.961 . S
C805 H813 0.960 . S
C806 C804 1.381 . S
C806 C807 1.394 . S
C806 H814 0.930 . S
C807 C806 1.394 . S
C807 C808 1.383 . S
C807 H815 0.929 . S
C808 C807 1.383 . S
C808 C809 1.377 . S
C809 H793 0.930 . S
C809 C808 1.377 . S
C809 C810 1.379 . S
C810 H794 0.931 . S
C810 C804 1.383 . S
C810 C809 1.379 . S
H811 C805 0.959 . S
H812 C805 0.961 . S
H813 C805 0.960 . S
H814 C806 0.930 . S
H815 C807 0.929 . S
H816 C824 0.929 . S
H817 C826 0.930 . S
H818 C828 0.930 . S
H819 C831 0.929 . S
H820 C834 0.930 . S
H821 C836 0.960 . S
H822 C836 0.960 . S
H823 C836 0.960 . S
C824 H816 0.929 . S
C824 C825 1.377 . S
C824 C826 1.384 . S
C825 C824 1.377 . S
C825 C831 1.390 . S
C826 H817 0.930 . S
C826 C824 1.384 . S
C826 C827 1.372 . S
C827 C826 1.372 . S
C827 C828 1.400 . S
C827 C832 1.490 . S
C828 H818 0.930 . S
C828 C827 1.400 . S
C828 C831 1.386 . S
H829 C845 0.930 . S
H830 C846 0.931 . S
C831 H819 0.929 . S
C831 C825 1.390 . S
C831 C828 1.386 . S
C832 C827 1.490 . S
C832 C834 1.395 . S
C832 C835 1.403 . S
H833 C839 0.930 . S
C834 H820 0.930 . S
C834 C832 1.395 . S
C834 C837 1.403 . S
C835 C832 1.403 . S
C835 C836 1.524 . S
C835 C839 1.400 . S
C836 H821 0.960 . S
C836 H822 0.960 . S
C836 H823 0.960 . S
C836 C835 1.524 . S
C837 C834 1.403 . S
C837 C838 1.392 . S
C837 C841 1.495 . S
C838 C837 1.392 . S
C838 C839 1.385 . S
C838 C840 1.478 . S
C839 H833 0.930 . S
C839 C835 1.400 . S
C839 C838 1.385 . S
C840 C838 1.478 . S
C840 C842 1.381 . S
C840 C846 1.383 . S
C841 C837 1.495 . S
C841 H847 0.959 . S
C841 H848 0.961 . S
C841 H849 0.960 . S
C842 C840 1.381 . S
C842 C843 1.394 . S
C842 H850 0.930 . S
C843 C842 1.394 . S
C843 C844 1.383 . S
C843 H851 0.929 . S
C844 C843 1.383 . S
C844 C845 1.377 . S
C845 H829 0.930 . S
C845 C844 1.377 . S
C845 C846 1.379 . S
C846 H830 0.931 . S
C846 C840 1.383 . S
C846 C845 1.379 . S
H847 C841 0.959 . S
H848 C841 0.961 . S
H849 C841 0.960 . S
H850 C842 0.930 . S
H851 C843 0.929 . S
H852 C860 0.929 . S
H853 C862 0.930 . S
H854 C864 0.930 . S
H855 C867 0.929 . S
H856 C870 0.930 . S
H857 C872 0.960 . S
H858 C872 0.960 . S
H859 C872 0.960 . S
C860 H852 0.929 . S
C860 C861 1.377 . S
C860 C862 1.384 . S
C861 C860 1.377 . S
C861 C867 1.390 . S
C862 H853 0.930 . S
C862 C860 1.384 . S
C862 C863 1.372 . S
C863 C862 1.372 . S
C863 C864 1.400 . S
C863 C868 1.490 . S
C864 H854 0.930 . S
C864 C863 1.400 . S
C864 C867 1.386 . S
H865 C881 0.930 . S
H866 C882 0.931 . S
C867 H855 0.929 . S
C867 C861 1.390 . S
C867 C864 1.386 . S
C868 C863 1.490 . S
C868 C870 1.395 . S
C868 C871 1.403 . S
H869 C875 0.930 . S
C870 H856 0.930 . S
C870 C868 1.395 . S
C870 C873 1.403 . S
C871 C868 1.403 . S
C871 C872 1.524 . S
C871 C875 1.400 . S
C872 H857 0.960 . S
C872 H858 0.960 . S
C872 H859 0.960 . S
C872 C871 1.524 . S
C873 C870 1.403 . S
C873 C874 1.392 . S
C873 C877 1.495 . S
C874 C873 1.392 . S
C874 C875 1.385 . S
C874 C876 1.478 . S
C875 H869 0.930 . S
C875 C871 1.400 . S
C875 C874 1.385 . S
C876 C874 1.478 . S
C876 C878 1.381 . S
C876 C882 1.383 . S
C877 C873 1.495 . S
C877 H883 0.959 . S
C877 H884 0.961 . S
C877 H885 0.960 . S
C878 C876 1.381 . S
C878 C879 1.394 . S
C878 H886 0.930 . S
C879 C878 1.394 . S
C879 C880 1.383 . S
C879 H887 0.929 . S
C880 C879 1.383 . S
C880 C881 1.377 . S
C881 H865 0.930 . S
C881 C880 1.377 . S
C881 C882 1.379 . S
C882 H866 0.931 . S
C882 C876 1.383 . S
C882 C881 1.379 . S
H883 C877 0.959 . S
H884 C877 0.961 . S
H885 C877 0.960 . S
H886 C878 0.930 . S
H887 C879 0.929 . S
H888 C896 0.929 . S
H889 C898 0.930 . S
H890 C900 0.930 . S
H891 C903 0.929 . S
H892 C906 0.930 . S
H893 C908 0.960 . S
H894 C908 0.960 . S
H895 C908 0.960 . S
C896 H888 0.929 . S
C896 C897 1.377 . S
C896 C898 1.384 . S
C897 C896 1.377 . S
C897 C903 1.390 . S
C898 H889 0.930 . S
C898 C896 1.384 . S
C898 C899 1.372 . S
C899 C898 1.372 . S
C899 C900 1.400 . S
C899 C904 1.490 . S
C900 H890 0.930 . S
C900 C899 1.400 . S
C900 C903 1.386 . S
H901 C917 0.930 . S
H902 C918 0.931 . S
C903 H891 0.929 . S
C903 C897 1.390 . S
C903 C900 1.386 . S
C904 C899 1.490 . S
C904 C906 1.395 . S
C904 C907 1.403 . S
H905 C911 0.930 . S
C906 H892 0.930 . S
C906 C904 1.395 . S
C906 C909 1.403 . S
C907 C904 1.403 . S
C907 C908 1.524 . S
C907 C911 1.400 . S
C908 H893 0.960 . S
C908 H894 0.960 . S
C908 H895 0.960 . S
C908 C907 1.524 . S
C909 C906 1.403 . S
C909 C910 1.392 . S
C909 C913 1.495 . S
C910 C909 1.392 . S
C910 C911 1.385 . S
C910 C912 1.478 . S
C911 H905 0.930 . S
C911 C907 1.400 . S
C911 C910 1.385 . S
C912 C910 1.478 . S
C912 C914 1.381 . S
C912 C918 1.383 . S
C913 C909 1.495 . S
C913 H919 0.959 . S
C913 H920 0.961 . S
C913 H921 0.960 . S
C914 C912 1.381 . S
C914 C915 1.394 . S
C914 H922 0.930 . S
C915 C914 1.394 . S
C915 C916 1.383 . S
C915 H923 0.929 . S
C916 C915 1.383 . S
C916 C917 1.377 . S
C917 H901 0.930 . S
C917 C916 1.377 . S
C917 C918 1.379 . S
C918 H902 0.931 . S
C918 C912 1.383 . S
C918 C917 1.379 . S
H919 C913 0.959 . S
H920 C913 0.961 . S
H921 C913 0.960 . S
H922 C914 0.930 . S
H923 C915 0.929 . S
H924 C932 0.929 . S
H925 C934 0.930 . S
H926 C936 0.930 . S
H927 C939 0.929 . S
H928 C942 0.930 . S
H929 C944 0.960 . S
H930 C944 0.960 . S
H931 C944 0.960 . S
C932 H924 0.929 . S
C932 C933 1.377 . S
C932 C934 1.384 . S
C933 C932 1.377 . S
C933 C939 1.390 . S
C934 H925 0.930 . S
C934 C932 1.384 . S
C934 C935 1.372 . S
C935 C934 1.372 . S
C935 C936 1.400 . S
C935 C940 1.490 . S
C936 H926 0.930 . S
C936 C935 1.400 . S
C936 C939 1.386 . S
H937 C953 0.930 . S
H938 C954 0.931 . S
C939 H927 0.929 . S
C939 C933 1.390 . S
C939 C936 1.386 . S
C940 C935 1.490 . S
C940 C942 1.395 . S
C940 C943 1.403 . S
H941 C947 0.930 . S
C942 H928 0.930 . S
C942 C940 1.395 . S
C942 C945 1.403 . S
C943 C940 1.403 . S
C943 C944 1.524 . S
C943 C947 1.400 . S
C944 H929 0.960 . S
C944 H930 0.960 . S
C944 H931 0.960 . S
C944 C943 1.524 . S
C945 C942 1.403 . S
C945 C946 1.392 . S
C945 C949 1.495 . S
C946 C945 1.392 . S
C946 C947 1.385 . S
C946 C948 1.478 . S
C947 H941 0.930 . S
C947 C943 1.400 . S
C947 C946 1.385 . S
C948 C946 1.478 . S
C948 C950 1.381 . S
C948 C954 1.383 . S
C949 C945 1.495 . S
C949 H955 0.959 . S
C949 H956 0.961 . S
C949 H957 0.960 . S
C950 C948 1.381 . S
C950 C951 1.394 . S
C950 H958 0.930 . S
C951 C950 1.394 . S
C951 C952 1.383 . S
C951 H959 0.929 . S
C952 C951 1.383 . S
C952 C953 1.377 . S
C953 H937 0.930 . S
C953 C952 1.377 . S
C953 C954 1.379 . S
C954 H938 0.931 . S
C954 C948 1.383 . S
C954 C953 1.379 . S
H955 C949 0.959 . S
H956 C949 0.961 . S
H957 C949 0.960 . S
H958 C950 0.930 . S
H959 C951 0.929 . S
H960 C968 0.929 . S
H961 C970 0.930 . S
H962 C972 0.930 . S
H963 C975 0.929 . S
H964 C978 0.930 . S
H965 C980 0.960 . S
H966 C980 0.960 . S
H967 C980 0.960 . S
C968 H960 0.929 . S
C968 C969 1.377 . S
C968 C970 1.384 . S
C969 C968 1.377 . S
C969 C975 1.390 . S
C970 H961 0.930 . S
C970 C968 1.384 . S
C970 C971 1.372 . S
C971 C970 1.372 . S
C971 C972 1.400 . S
C971 C976 1.490 . S
C972 H962 0.930 . S
C972 C971 1.400 . S
C972 C975 1.386 . S
H973 C989 0.930 . S
H974 C990 0.931 . S
C975 H963 0.929 . S
C975 C969 1.390 . S
C975 C972 1.386 . S
C976 C971 1.490 . S
C976 C978 1.395 . S
C976 C979 1.403 . S
H977 C983 0.930 . S
C978 H964 0.930 . S
C978 C976 1.395 . S
C978 C981 1.403 . S
C979 C976 1.403 . S
C979 C980 1.524 . S
C979 C983 1.400 . S
C980 H965 0.960 . S
C980 H966 0.960 . S
C980 H967 0.960 . S
C980 C979 1.524 . S
C981 C978 1.403 . S
C981 C982 1.392 . S
C981 C985 1.495 . S
C982 C981 1.392 . S
C982 C983 1.385 . S
C982 C984 1.478 . S
C983 H977 0.930 . S
C983 C979 1.400 . S
C983 C982 1.385 . S
C984 C982 1.478 . S
C984 C986 1.381 . S
C984 C990 1.383 . S
C985 C981 1.495 . S
C985 H991 0.959 . S
C985 H992 0.961 . S
C985 H993 0.960 . S
C986 C984 1.381 . S
C986 C987 1.394 . S
C986 H994 0.930 . S
C987 C986 1.394 . S
C987 C988 1.383 . S
C987 H995 0.929 . S
C988 C987 1.383 . S
C988 C989 1.377 . S
C989 H973 0.930 . S
C989 C988 1.377 . S
C989 C990 1.379 . S
C990 H974 0.931 . S
C990 C984 1.383 . S
C990 C989 1.379 . S
H991 C985 0.959 . S
H992 C985 0.961 . S
H993 C985 0.960 . S
H994 C986 0.930 . S
H995 C987 0.929 . S
H996 C1004 0.929 . S
H997 C1006 0.930 . S
H998 C1008 0.930 . S
H999 C1011 0.929 . S
H1000 C1014 0.930 . S
H1001 C1016 0.960 . S
H1002 C1016 0.960 . S
H1003 C1016 0.960 . S
C1004 H996 0.929 . S
C1004 C1005 1.377 . S
C1004 C1006 1.384 . S
C1005 C1004 1.377 . S
C1005 C1011 1.390 . S
C1006 H997 0.930 . S
C1006 C1004 1.384 . S
C1006 C1007 1.372 . S
C1007 C1006 1.372 . S
C1007 C1008 1.400 . S
C1007 C1012 1.490 . S
C1008 H998 0.930 . S
C1008 C1007 1.400 . S
C1008 C1011 1.386 . S
H1009 C1025 0.930 . S
H1010 C1026 0.931 . S
C1011 H999 0.929 . S
C1011 C1005 1.390 . S
C1011 C1008 1.386 . S
C1012 C1007 1.490 . S
C1012 C1014 1.395 . S
C1012 C1015 1.403 . S
H1013 C1019 0.930 . S
C1014 H1000 0.930 . S
C1014 C1012 1.395 . S
C1014 C1017 1.403 . S
C1015 C1012 1.403 . S
C1015 C1016 1.524 . S
C1015 C1019 1.400 . S
C1016 H1001 0.960 . S
C1016 H1002 0.960 . S
C1016 H1003 0.960 . S
C1016 C1015 1.524 . S
C1017 C1014 1.403 . S
C1017 C1018 1.392 . S
C1017 C1021 1.495 . S
C1018 C1017 1.392 . S
C1018 C1019 1.385 . S
C1018 C1020 1.478 . S
C1019 H1013 0.930 . S
C1019 C1015 1.400 . S
C1019 C1018 1.385 . S
C1020 C1018 1.478 . S
C1020 C1022 1.381 . S
C1020 C1026 1.383 . S
C1021 C1017 1.495 . S
C1021 H1027 0.959 . S
C1021 H1028 0.961 . S
C1021 H1029 0.960 . S
C1022 C1020 1.381 . S
C1022 C1023 1.394 . S
C1022 H1030 0.930 . S
C1023 C1022 1.394 . S
C1023 C1024 1.383 . S
C1023 H1031 0.929 . S
C1024 C1023 1.383 . S
C1024 C1025 1.377 . S
C1025 H1009 0.930 . S
C1025 C1024 1.377 . S
C1025 C1026 1.379 . S
C1026 H1010 0.931 . S
C1026 C1020 1.383 . S
C1026 C1025 1.379 . S
H1027 C1021 0.959 . S
H1028 C1021 0.961 . S
H1029 C1021 0.960 . S
H1030 C1022 0.930 . S
H1031 C1023 0.929 . S
C177 C13 1.662 . S
C196 C85 1.612 . S
C213 C27 1.664 . S
C232 C110 1.649 . S
C268 C113 1.645 . S
C249 C29 1.662 . S
C304 C139 1.650 . S
C285 C54 1.669 . S
C340 C140 1.624 . S
C321 C69 1.661 . S
C376 C167 1.642 . S
C357 C83 1.663 . S
C393 C15 1.663 . S
C412 C112 1.637 . S
C429 C41 1.664 . S
C448 C138 1.650 . S
C484 C141 1.645 . S
C465 C42 1.664 . S
C520 C166 1.646 . S
C501 C57 1.662 . S
C537 C71 1.662 . S
C556 C84 1.618 . S
C592 C111 1.622 . S
C573 C1 1.667 . S
C628 C126 1.626 . S
C609 C12 1.669 . S
C645 C26 1.664 . S
C664 C153 1.642 . S
C700 C154 1.625 . S
C681 C28 1.667 . S
C717 C55 1.662 . S
C736 C96 1.626 . S
C753 C68 1.662 . S
C772 C99 1.623 . S
C789 C82 1.663 . S
C808 C124 1.649 . S
C825 C14 1.664 . S
C844 C155 1.626 . S
C880 C97 1.619 . S
C861 C40 1.661 . S
C897 C43 1.663 . S
C916 C98 1.651 . S
C933 C56 1.664 . S
C952 C125 1.637 . S
C969 C70 1.662 . S
C988 C127 1.639 . S
C1005 C0 1.664 . S
C1024 C152 1.620 . S
