# Generated by pormake.
# Topology zzz, (3,6)-cn, num edge types: 1
# Building blocks:
#     Node 0, Type 0, BuildingBlock: OLANEW_clean_sbu_2, # of connection points: 3
#     Node 1, Type 0, BuildingBlock: OLANEW_clean_sbu_2, # of connection points: 3
#     Node 2, Type 0, BuildingBlock: OLANEW_clean_sbu_2, # of connection points: 3
#     Node 3, Type 0, BuildingBlock: OLANEW_clean_sbu_2, # of connection points: 3
#     Node 4, Type 0, BuildingBlock: OLANEW_clean_sbu_2, # of connection points: 3
#     Node 5, Type 0, BuildingBlock: OLANEW_clean_sbu_2, # of connection points: 3
#     Node 6, Type 0, BuildingBlock: OLANEW_clean_sbu_2, # of connection points: 3
#     Node 7, Type 0, BuildingBlock: OLANEW_clean_sbu_2, # of connection points: 3
#     Node 8, Type 1, BuildingBlock: BETDIP_clean_sbu_0, # of connection points: 6
#     Node 9, Type 1, BuildingBlock: BETDIP_clean_sbu_0, # of connection points: 6
#     Node 10, Type 1, BuildingBlock: BETDIP_clean_sbu_0, # of connection points: 6
#     Node 11, Type 1, BuildingBlock: BETDIP_clean_sbu_0, # of connection points: 6
#     Edge 12, Type (0, 1), BuildingBlock: ZUJKAS_clean_linker_0, # of connection points: 2
#     Edge 13, Type (0, 1), BuildingBlock: ZUJKAS_clean_linker_0, # of connection points: 2
#     Edge 14, Type (0, 1), BuildingBlock: ZUJKAS_clean_linker_0, # of connection points: 2
#     Edge 15, Type (0, 1), BuildingBlock: ZUJKAS_clean_linker_0, # of connection points: 2
#     Edge 16, Type (0, 1), BuildingBlock: ZUJKAS_clean_linker_0, # of connection points: 2
#     Edge 17, Type (0, 1), BuildingBlock: ZUJKAS_clean_linker_0, # of connection points: 2
#     Edge 18, Type (0, 1), BuildingBlock: ZUJKAS_clean_linker_0, # of connection points: 2
#     Edge 19, Type (0, 1), BuildingBlock: ZUJKAS_clean_linker_0, # of connection points: 2
#     Edge 20, Type (0, 1), BuildingBlock: ZUJKAS_clean_linker_0, # of connection points: 2
#     Edge 21, Type (0, 1), BuildingBlock: ZUJKAS_clean_linker_0, # of connection points: 2
#     Edge 22, Type (0, 1), BuildingBlock: ZUJKAS_clean_linker_0, # of connection points: 2
#     Edge 23, Type (0, 1), BuildingBlock: ZUJKAS_clean_linker_0, # of connection points: 2
#     Edge 24, Type (0, 1), BuildingBlock: ZUJKAS_clean_linker_0, # of connection points: 2
#     Edge 25, Type (0, 1), BuildingBlock: ZUJKAS_clean_linker_0, # of connection points: 2
#     Edge 26, Type (0, 1), BuildingBlock: ZUJKAS_clean_linker_0, # of connection points: 2
#     Edge 27, Type (0, 1), BuildingBlock: ZUJKAS_clean_linker_0, # of connection points: 2
#     Edge 28, Type (0, 1), BuildingBlock: ZUJKAS_clean_linker_0, # of connection points: 2
#     Edge 29, Type (0, 1), BuildingBlock: ZUJKAS_clean_linker_0, # of connection points: 2
#     Edge 30, Type (0, 1), BuildingBlock: ZUJKAS_clean_linker_0, # of connection points: 2
#     Edge 31, Type (0, 1), BuildingBlock: ZUJKAS_clean_linker_0, # of connection points: 2
#     Edge 32, Type (0, 1), BuildingBlock: ZUJKAS_clean_linker_0, # of connection points: 2
#     Edge 33, Type (0, 1), BuildingBlock: ZUJKAS_clean_linker_0, # of connection points: 2
#     Edge 34, Type (0, 1), BuildingBlock: ZUJKAS_clean_linker_0, # of connection points: 2
#     Edge 35, Type (0, 1), BuildingBlock: ZUJKAS_clean_linker_0, # of connection points: 2
# Relax obj value: 0.211
# Max RMSD: 0.157
# Mean RMSD: 0.156
data_MOF--net-zzz--node1-OLANEW_clean_sbu_2--node2-BETDIP_clean_sbu_0--edge1-ZUJKAS_clean_linker_0
_symmetry_space_group_name_H-M    P1
_symmetry_Int_Tables_number       1
_symmetry_cell_setting            triclinic
loop_
_symmetry_equiv_pos_as_xyz
'x, y, z'
_cell_length_a     71.360588
_cell_length_b     71.315286
_cell_length_c     19.588951
_cell_angle_alpha  90.245761
_cell_angle_beta   89.87549
_cell_angle_gamma 90.020897
loop_
_atom_site_label
_atom_site_type_symbol
_atom_site_fract_x
_atom_site_fract_y
_atom_site_fract_z
_atom_type_partial_charge
O0 O 0.73087 0.52153 0.23807 0.0
Cd1 Cd 0.70238 0.5274 0.30381 0.0
O2 O 0.7355 0.49723 0.30373 0.0
Cd3 Cd 0.75189 0.47396 0.34367 0.0
O4 O 0.77713 0.46874 0.40208 0.0
C5 C 0.77934 0.48001 0.45178 0.0
O6 O 0.76585 0.49196 0.46605 0.0
C7 C 0.74109 0.50784 0.25573 0.0
C8 C 0.67119 0.52576 0.21981 0.0
O9 O 0.68014 0.54116 0.22856 0.0
O10 O 0.6769 0.51117 0.25164 0.0
O11 O 0.99949 0.74005 0.25336 0.0
Cd12 Cd 0.99314 0.71369 0.32918 0.0
O13 O 0.01835 0.75498 0.32401 0.0
Cd14 Cd 0.01051 0.74103 0.41848 0.0
O15 O 0.0052 0.76193 0.49827 0.0
C16 C 0.99154 0.77299 0.48772 0.0
O17 O 0.9805 0.76969 0.43543 0.0
C18 C 0.01092 0.75333 0.2654 0.0
C19 C 0.99348 0.68088 0.25058 0.0
O20 O 0.97822 0.68993 0.26111 0.0
O21 O 0.00847 0.68709 0.27866 0.0
O22 O 0.76062 0.969 0.2746 0.0
Cd23 Cd 0.79089 0.96273 0.32831 0.0
O24 O 0.7561 0.99051 0.35245 0.0
Cd25 Cd 0.74328 0.01291 0.41331 0.0
O26 O 0.74314 0.03896 0.48145 0.0
C27 C 0.73068 0.0437 0.52545 0.0
O28 O 0.74368 0.03941 0.48128 0.0
C29 C 0.7503 0.98183 0.29968 0.0
C30 C 0.82073 0.96901 0.23894 0.0
O31 O 0.81328 0.95273 0.24439 0.0
O32 O 0.81409 0.98232 0.27587 0.0
O33 O 0.52172 0.76971 0.24986 0.0
Cd34 Cd 0.52128 0.79943 0.31176 0.0
O35 O 0.4923 0.76807 0.28106 0.0
Cd36 Cd 0.46753 0.75125 0.30215 0.0
O37 O 0.46469 0.72356 0.34598 0.0
C38 C 0.47157 0.72182 0.40535 0.0
O39 O 0.47797 0.73682 0.43681 0.0
C40 C 0.50629 0.76083 0.25039 0.0
C41 C 0.51942 0.82934 0.22193 0.0
O42 O 0.53511 0.82438 0.24794 0.0
O43 O 0.50464 0.82025 0.23887 0.0
O44 O 0.27058 0.53793 0.11669 0.0
Cd45 Cd 0.30111 0.5389 0.06092 0.0
O46 O 0.27075 0.5078 0.0951 0.0
Cd47 Cd 0.25645 0.48105 0.0816 0.0
O48 O 0.23097 0.46917 0.0396 0.0
C49 C 0.22858 0.47125 0.97585 0.0
O50 O 0.24219 0.47859 0.93944 0.0
C51 C 0.26253 0.52208 0.12027 0.0
C52 C 0.32831 0.52679 0.15184 0.0
O53 O 0.3241 0.5442 0.14681 0.0
O54 O 0.31984 0.51508 0.11281 0.0
O55 O 0.98528 0.26557 0.11907 0.0
Cd56 Cd 0.9854 0.29752 0.07362 0.0
O57 O 0.00579 0.25851 0.04018 0.0
Cd58 Cd 0.02508 0.24255 0.97505 0.0
O59 O 0.04896 0.24397 0.8973 0.0
C60 C 0.05203 0.23334 0.84555 0.0
O61 O 0.04941 0.24447 0.8976 0.0
C62 C 0.99581 0.25343 0.09072 0.0
C63 C 0.98987 0.32535 0.1731 0.0
O64 O 0.97354 0.31961 0.1556 0.0
O65 O 0.00411 0.31778 0.14407 0.0
O66 O 0.22941 0.97438 0.13302 0.0
Cd67 Cd 0.19878 0.97459 0.07772 0.0
O68 O 0.23281 0.00313 0.09633 0.0
Cd69 Cd 0.25074 0.02672 0.06985 0.0
O70 O 0.27701 0.03446 0.02165 0.0
C71 C 0.27949 0.02807 0.9617 0.0
O72 O 0.2658 0.01873 0.93235 0.0
C73 C 0.23936 0.98907 0.12805 0.0
C74 C 0.17032 0.9836 0.16938 0.0
O75 O 0.17521 0.96652 0.15896 0.0
O76 O 0.1789 0.99646 0.13615 0.0
O77 O 0.53714 0.23054 0.11212 0.0
Cd78 Cd 0.54017 0.20104 0.04982 0.0
O79 O 0.50736 0.22944 0.08606 0.0
Cd80 Cd 0.48068 0.24327 0.06686 0.0
O81 O 0.47224 0.26896 0.0166 0.0
C82 C 0.48637 0.27792 0.99446 0.0
O83 O 0.50314 0.27079 0.00367 0.0
C84 C 0.52098 0.23796 0.11442 0.0
C85 C 0.5279 0.17173 0.13114 0.0
O86 O 0.54515 0.17674 0.13048 0.0
O87 O 0.51643 0.18044 0.09225 0.0
Tb88 Tb 0.00323 1.0012 0.77175 0.0
Tb89 Tb 0.98621 0.00855 0.63346 0.0
C90 C 0.01005 0.98789 0.88729 0.0
C91 C 0.01071 0.96839 0.91216 0.0
C92 C 0.99511 0.95644 0.90619 0.0
C93 C 0.99651 0.93755 0.92398 0.0
C94 C 0.01354 0.93017 0.94783 0.0
C95 C 0.02902 0.94225 0.95506 0.0
C96 C 0.02758 0.96117 0.93757 0.0
C97 C 0.02717 0.008 0.67288 0.0
C98 C 0.99148 0.96687 0.67335 0.0
C99 C 0.97974 0.02075 0.5157 0.0
C100 C 0.98268 0.03865 0.4801 0.0
C101 C 0.99841 0.04992 0.49359 0.0
C102 C 1.00075 0.06702 0.45985 0.0
C103 C 0.98733 0.07319 0.41248 0.0
C104 C 0.97161 0.06185 0.3993 0.0
C105 C 0.96934 0.04473 0.43275 0.0
C106 C 0.96226 1.0011 0.73132 0.0
C107 C 0.99835 0.04253 0.73257 0.0
O108 O 0.99359 0.99436 0.86963 0.0
O109 O 0.02313 0.9924 0.84346 0.0
O110 O 0.01237 0.99853 0.66866 0.0
O111 O 0.02972 0.01321 0.73569 0.0
O112 O 0.99529 0.97306 0.73572 0.0
O113 O 0.98914 0.97845 0.62149 0.0
O114 O 0.99483 0.01132 0.53179 0.0
O115 O 0.96739 0.02104 0.56516 0.0
O116 O 0.97687 0.01087 0.7365 0.0
O117 O 0.95988 0.99612 0.66817 0.0
O118 O 0.99581 0.03634 0.66921 0.0
O119 O 0.99915 0.03096 0.78495 0.0
H120 H 0.98189 0.96154 0.88651 0.0
H121 H 0.98423 0.92873 0.91892 0.0
H122 H 0.04239 0.937 0.97266 0.0
H123 H 0.03982 0.97007 0.94228 0.0
H124 H 0.00883 0.04557 0.53042 0.0
H125 H 0.01289 0.07555 0.47165 0.0
H126 H 0.96114 0.06613 0.36256 0.0
H127 H 0.95711 0.03624 0.42174 0.0
Tb128 Tb 0.50931 0.01112 0.7337 0.0
Tb129 Tb 0.49737 0.99222 0.60162 0.0
C130 C 0.52427 0.02015 0.84523 0.0
C131 C 0.54243 0.01755 0.87918 0.0
C132 C 0.55303 1.00115 0.86979 0.0
C133 C 0.5701 0.99893 0.90381 0.0
C134 C 0.5769 0.01315 0.94724 0.0
C135 C 0.56632 0.02962 0.95567 0.0
C136 C 0.54923 0.03177 0.92203 0.0
C137 C 0.50033 0.03357 0.63328 0.0
C138 C 0.53999 0.99568 0.62838 0.0
C139 C 0.48187 0.98494 0.48934 0.0
C140 C 0.46266 0.98606 0.46079 0.0
C141 C 0.45561 0.003 0.43477 0.0
C142 C 0.43765 0.00378 0.40635 0.0
C143 C 0.42634 0.98764 0.403 0.0
C144 C 0.43342 0.97072 0.42908 0.0
C145 C 0.45138 0.96993 0.45733 0.0
C146 C 0.50585 0.96948 0.70186 0.0
C147 C 0.46674 0.00761 0.70909 0.0
O148 O 0.51397 0.00512 0.83675 0.0
O149 O 0.52435 0.03091 0.79131 0.0
O150 O 0.50924 0.01844 0.62849 0.0
O151 O 0.4971 0.03735 0.69696 0.0
O152 O 0.53546 0.99942 0.69271 0.0
O153 O 0.52714 0.99432 0.57997 0.0
O154 O 0.49036 1.00082 0.50276 0.0
O155 O 0.4847 0.97243 0.53697 0.0
O156 O 0.49733 0.98486 0.70685 0.0
O157 O 0.50885 0.96562 0.63795 0.0
O158 O 0.47077 0.0025 0.64545 0.0
O159 O 0.47981 0.00976 0.75606 0.0
H160 H 0.5481 0.99004 0.83643 0.0
H161 H 0.57806 0.98618 0.89572 0.0
H162 H 0.5711 0.04073 0.98929 0.0
H163 H 0.54123 0.04452 0.92981 0.0
H164 H 0.46399 0.01567 0.43581 0.0
H165 H 0.43278 0.01698 0.38586 0.0
H166 H 0.42503 0.95807 0.42819 0.0
H167 H 0.45645 0.95663 0.47639 0.0
Tb168 Tb 0.49176 0.50517 0.75138 0.0
Tb169 Tb 0.50636 0.49282 0.61212 0.0
C170 C 0.48795 0.52063 0.86609 0.0
C171 C 0.48982 0.53981 0.89433 0.0
C172 C 0.50708 0.54934 0.8944 0.0
C173 C 0.5085 0.56733 0.92272 0.0
C174 C 0.49269 0.57624 0.95128 0.0
C175 C 0.47543 0.56669 0.95045 0.0
C176 C 0.47405 0.54867 0.92264 0.0
C177 C 0.46625 0.49797 0.65863 0.0
C178 C 0.5042 0.53556 0.64009 0.0
C179 C 0.51096 0.47798 0.49641 0.0
C180 C 0.51002 0.45905 0.46645 0.0
C181 C 0.49892 0.44497 0.49577 0.0
C182 C 0.4986 0.42693 0.46745 0.0
C183 C 0.50932 0.42266 0.40896 0.0
C184 C 0.52026 0.43695 0.37944 0.0
C185 C 0.52063 0.45493 0.40807 0.0
C186 C 0.53172 0.50034 0.70488 0.0
C187 C 0.49298 0.46261 0.7235 0.0
O188 O 0.50335 0.51219 0.84625 0.0
O189 O 0.47407 0.51789 0.82364 0.0
O190 O 0.48173 0.50592 0.64931 0.0
O191 O 0.46388 0.49478 0.72323 0.0
O192 O 0.50184 0.53139 0.70548 0.0
O193 O 0.50409 0.52253 0.59183 0.0
O194 O 0.49509 0.48527 0.5172 0.0
O195 O 0.52458 0.48089 0.53978 0.0
O196 O 0.5164 0.49209 0.71402 0.0
O197 O 0.53395 0.50389 0.64052 0.0
O198 O 0.49589 0.46665 0.6582 0.0
O199 O 0.49325 0.47557 0.77186 0.0
H200 H 0.51954 0.54289 0.87304 0.0
H201 H 0.52208 0.57411 0.92321 0.0
H202 H 0.46288 0.57319 0.97079 0.0
H203 H 0.46059 0.54163 0.9232 0.0
H204 H 0.49055 0.44791 0.54062 0.0
H205 H 0.49019 0.41626 0.49205 0.0
H206 H 0.52843 0.4343 0.33377 0.0
H207 H 0.52923 0.46565 0.38458 0.0
Tb208 Tb 0.99797 0.49547 0.7783 0.0
Tb209 Tb 0.01018 0.51149 0.64274 0.0
C210 C 0.98253 0.49031 0.8922 0.0
C211 C 0.96324 0.49159 0.91877 0.0
C212 C 0.95115 0.50611 0.89892 0.0
C213 C 0.93271 0.50672 0.9232 0.0
C214 C 0.92603 0.49285 0.968 0.0
C215 C 0.93823 0.47837 0.98784 0.0
C216 C 0.95664 0.47776 0.96339 0.0
C217 C 0.00396 0.47082 0.68052 0.0
C218 C 0.96751 0.50991 0.67083 0.0
C219 C 0.02531 0.51643 0.52801 0.0
C220 C 0.04447 0.51617 0.49859 0.0
C221 C 0.05086 0.50029 0.4627 0.0
C222 C 0.06861 0.50016 0.43233 0.0
C223 C 0.08034 0.51596 0.4366 0.0
C224 C 0.07396 0.53184 0.47261 0.0
C225 C 0.05623 0.53195 0.50317 0.0
C226 C 0.00401 0.53611 0.74038 0.0
C227 C 0.04053 0.49609 0.75011 0.0
O228 O 0.99059 0.50607 0.87456 0.0
O229 O 0.9856 0.47687 0.84791 0.0
O230 O 0.99642 0.48664 0.67433 0.0
O231 O 0.00743 0.46773 0.74445 0.0
O232 O 0.97188 0.50662 0.7354 0.0
O233 O 0.9804 0.51019 0.62224 0.0
O234 O 0.0185 0.50032 0.54825 0.0
O235 O 0.02119 0.53009 0.57035 0.0
O236 O 0.0117 0.52036 0.74662 0.0
O237 O 1.00051 0.53917 0.67645 0.0
O238 O 0.03644 0.50055 0.68612 0.0
O239 O 0.02763 0.49553 0.7985 0.0
H240 H 0.95592 0.51698 0.86457 0.0
H241 H 0.92377 0.51817 0.90752 0.0
H242 H 0.93347 0.46734 0.02153 0.0
H243 H 0.96571 0.46638 0.979 0.0
H244 H 0.04204 0.488 0.45737 0.0
H245 H 0.07299 0.4878 0.40417 0.0
H246 H 0.08273 0.54417 0.47744 0.0
H247 H 0.05172 0.54448 0.52996 0.0
H248 H 0.14939 0.95935 0.24532 0.0
H249 H 0.12498 0.96702 0.32844 0.0
H250 H 0.13309 0.02596 0.28974 0.0
H251 H 0.15743 0.01842 0.20568 0.0
H252 H 0.12894 0.98885 0.4467 0.0
H253 H 0.07604 0.01892 0.27019 0.0
H254 H 0.09558 0.005 0.24049 0.0
H255 H 0.09908 0.02902 0.26531 0.0
C256 C 0.14594 0.97395 0.25413 0.0
C257 C 0.15533 0.98828 0.2188 0.0
C258 C 0.132 0.9783 0.30169 0.0
C259 C 0.12712 0.99704 0.31467 0.0
C260 C 0.13644 0.0114 0.27958 0.0
H261 H 0.05992 0.02774 0.67414 0.0
H262 H 0.08455 0.02754 0.58638 0.0
C263 C 0.1504 0.00706 0.23185 0.0
C264 C 0.11266 1.00139 0.36662 0.0
H265 H 0.06877 0.01956 0.38791 0.0
C266 C 0.11582 0.99567 0.43404 0.0
C267 C 0.09555 0.01018 0.34959 0.0
C268 C 0.0912 0.01603 0.27741 0.0
C269 C 0.1022 0.99823 0.48489 0.0
C270 C 0.08508 0.00704 0.46796 0.0
C271 C 0.082 0.01299 0.40071 0.0
C272 C 0.06967 0.0088 0.51823 0.0
C273 C 0.10595 0.99084 0.55567 0.0
C274 C 0.05296 0.99886 0.50776 0.0
C275 C 0.03894 0.999 0.55749 0.0
C276 C 0.04136 0.00918 0.61836 0.0
C277 C 0.0578 0.01969 0.62779 0.0
C278 C 0.07185 0.01955 0.5779 0.0
H279 H 0.11811 0.98113 0.5566 0.0
H280 H 0.10903 0.00277 0.59042 0.0
H281 H 0.09348 0.98336 0.5759 0.0
H282 H 0.05103 0.99047 0.46205 0.0
H283 H 0.02646 0.99066 0.54911 0.0
H284 H 0.49199 0.15908 0.14992 0.0
H285 H 0.48122 0.13562 0.2324 0.0
H286 H 0.5382 0.12707 0.29819 0.0
H287 H 0.54906 0.1505 0.21679 0.0
H288 H 0.49168 0.0971 0.24966 0.0
H289 H 0.50944 0.14086 0.47471 0.0
H290 H 0.50766 0.15034 0.38962 0.0
H291 H 0.52862 0.13838 0.41592 0.0
C292 C 0.50223 0.15214 0.18179 0.0
C293 C 0.52137 0.15676 0.17732 0.0
C294 C 0.49604 0.13876 0.22875 0.0
C295 C 0.50889 0.12992 0.27202 0.0
C296 C 0.52804 0.13405 0.26605 0.0
H297 H 0.51471 0.0313 0.50502 0.0
H298 H 0.51221 0.05456 0.41451 0.0
C299 C 0.53422 0.14738 0.21932 0.0
C300 C 0.5025 0.11651 0.32436 0.0
H301 H 0.50503 0.10806 0.49508 0.0
C302 C 0.4943 0.09955 0.30349 0.0
C303 C 0.50552 0.11998 0.39455 0.0
C304 C 0.51311 0.13846 0.42021 0.0
C305 C 0.49016 0.08543 0.35092 0.0
C306 C 0.49467 0.08833 0.42049 0.0
C307 C 0.50175 0.10576 0.44165 0.0
C308 C 0.49382 0.07308 0.47144 0.0
C309 C 0.48127 0.06749 0.32593 0.0
C310 C 0.48444 0.07582 0.5338 0.0
C311 C 0.48608 0.06263 0.58598 0.0
C312 C 0.49712 0.04655 0.57646 0.0
C313 C 0.50595 0.0435 0.51332 0.0
C314 C 0.5044 0.05672 0.46137 0.0
H315 H 0.47276 0.06995 0.27939 0.0
H316 H 0.49244 0.05731 0.31236 0.0
H317 H 0.47218 0.06112 0.36567 0.0
H318 H 0.47632 0.08843 0.54278 0.0
H319 H 0.4791 0.06524 0.63427 0.0
H320 H 0.33896 0.49074 0.17997 0.0
H321 H 0.36096 0.48034 0.26798 0.0
H322 H 0.37108 0.5379 0.32534 0.0
H323 H 0.34904 0.5484 0.2385 0.0
H324 H 0.39886 0.48873 0.28553 0.0
H325 H 0.35696 0.51325 0.50656 0.0
H326 H 0.34726 0.51095 0.42186 0.0
H327 H 0.36068 0.53139 0.4448 0.0
C328 C 0.34588 0.50118 0.21136 0.0
C329 C 0.34216 0.52039 0.20264 0.0
C330 C 0.35841 0.49521 0.26156 0.0
C331 C 0.36732 0.50834 0.30397 0.0
C332 C 0.36399 0.52753 0.2942 0.0
H333 H 0.46724 0.51185 0.53011 0.0
H334 H 0.44274 0.51026 0.44385 0.0
C335 C 0.35147 0.5335 0.24423 0.0
C336 C 0.38042 0.5022 0.3578 0.0
H337 H 0.38961 0.50745 0.52753 0.0
C338 C 0.39673 0.49254 0.33866 0.0
C339 C 0.37739 0.5068 0.42725 0.0
C340 C 0.35952 0.51599 0.45153 0.0
C341 C 0.4107 0.48843 0.38664 0.0
C342 C 0.40835 0.49446 0.45504 0.0
C343 C 0.3915 0.50303 0.4749 0.0
C344 C 0.42377 0.49365 0.50532 0.0
C345 C 0.42795 0.47796 0.36337 0.0
C346 C 0.42113 0.48512 0.56914 0.0
C347 C 0.43512 0.48615 0.61894 0.0
C348 C 0.45187 0.49579 0.60553 0.0
C349 C 0.45457 0.50408 0.5414 0.0
C350 C 0.44062 0.50309 0.49187 0.0
H351 H 0.42484 0.46885 0.31865 0.0
H352 H 0.43882 0.4882 0.34753 0.0
H353 H 0.43377 0.46916 0.40487 0.0
H354 H 0.40813 0.47795 0.58074 0.0
H355 H 0.43273 0.47968 0.66812 0.0
H356 H 0.96237 0.34515 0.23878 0.0
H357 H 0.9662 0.37036 0.32257 0.0
H358 H 0.02626 0.36471 0.30901 0.0
H359 H 0.02258 0.33968 0.22426 0.0
H360 H 0.98308 0.3693 0.44827 0.0
H361 H 0.01871 0.42084 0.28076 0.0
H362 H 0.00697 0.40031 0.2477 0.0
H363 H 0.03001 0.39837 0.28388 0.0
C364 C 0.97641 0.3493 0.25341 0.0
C365 C 0.99218 0.34044 0.22463 0.0
C366 C 0.97856 0.36371 0.30133 0.0
C367 C 0.99651 0.36961 0.32127 0.0
C368 C 0.01229 0.36066 0.29326 0.0
H369 H 0.01946 0.43597 0.68699 0.0
H370 H 0.01867 0.41138 0.59916 0.0
C371 C 0.01015 0.34627 0.24516 0.0
C372 C 0.99862 0.38475 0.37284 0.0
H373 H 0.0171 0.4284 0.39882 0.0
C374 C 0.99051 0.38223 0.43748 0.0
C375 C 0.00813 0.4017 0.35833 0.0
C376 C 0.01631 0.40561 0.28873 0.0
C377 C 0.99176 0.39612 0.48823 0.0
C378 C 0.00171 0.41285 0.47437 0.0
C379 C 0.00968 0.41546 0.40954 0.0
C380 C 0.00339 0.42805 0.52586 0.0
C381 C 0.98202 0.39294 0.55567 0.0
C382 C 0.99569 0.44577 0.51277 0.0
C383 C 0.99624 0.45984 0.56261 0.0
C384 C 0.00459 0.45644 0.62626 0.0
C385 C 0.01282 0.4389 0.63852 0.0
C386 C 0.0123 0.42484 0.58858 0.0
H387 H 0.97126 0.38171 0.55206 0.0
H388 H 0.99251 0.38862 0.59425 0.0
H389 H 0.97515 0.40599 0.5741 0.0
H390 H 0.98881 0.44856 0.46462 0.0
H391 H 0.98974 0.47323 0.55187 0.0
H392 H 0.83738 0.00246 0.20762 0.0
H393 H 0.8626 0.00804 0.12519 0.0
H394 H 0.86478 0.94891 0.07921 0.0
H395 H 0.83957 0.94316 0.16146 0.0
H396 H 0.90113 0.96785 0.10144 0.0
H397 H 0.8549 0.0032 0.91317 0.0
H398 H 0.85378 0.01184 -0.00051 0.0
H399 H 0.84581 0.98853 0.98049 0.0
C400 C 0.84325 0.99063 0.18014 0.0
C401 C 0.83639 0.97237 0.19079 0.0
C402 C 0.85762 0.99385 0.133 0.0
C403 C 0.86539 0.9789 0.09584 0.0
C404 C 0.8589 0.96063 0.1074 0.0
H405 H 0.93167 0.9785 0.72684 0.0
H406 H 0.90879 0.97287 0.81794 0.0
C407 C 0.84447 0.95739 0.15424 0.0
C408 C 0.88002 0.98233 0.04373 0.0
H409 H 0.88721 0.00207 0.88742 0.0
C410 C 0.89815 0.97536 0.05469 0.0
C411 C 0.87596 0.99199 0.98266 0.0
C412 C 0.85654 0.99924 0.96762 0.0
C413 C 0.91242 0.97794 0.0061 0.0
C414 C 0.90838 0.98777 0.94538 0.0
C415 C 0.89023 0.99463 0.9343 0.0
C416 C 0.92268 0.99071 0.89172 0.0
C417 C 0.93161 0.96988 0.01927 0.0
C418 C 0.93796 0.00269 0.90316 0.0
C419 C 0.95096 0.00603 0.85107 0.0
C420 C 0.94888 0.99736 0.78699 0.0
C421 C 0.9336 0.98533 0.77582 0.0
C422 C 0.92056 0.98209 0.82772 0.0
H423 H 0.93154 0.95985 0.0625 0.0
H424 H 0.93701 0.96261 0.97299 0.0
H425 H 0.94146 0.98144 0.03176 0.0
H426 H 0.93964 0.0097 0.95193 0.0
H427 H 0.96245 0.01561 0.86061 0.0
H428 H 0.54339 0.85892 0.20979 0.0
H429 H 0.54155 0.88479 0.12834 0.0
H430 H 0.49217 0.85984 0.03906 0.0
H431 H 0.49333 0.83464 0.12292 0.0
H432 H 0.54462 0.8859 0.99837 0.0
H433 H 0.4737 0.91163 0.0612 0.0
H434 H 0.48555 0.89456 0.11315 0.0
H435 H 0.47285 0.88734 0.03794 0.0
C436 C 0.53204 0.85911 0.17317 0.0
C437 C 0.5184 0.84493 0.17296 0.0
C438 C 0.53101 0.87387 0.12663 0.0
C439 C 0.51647 0.87453 0.07842 0.0
C440 C 0.5031 0.86007 0.07726 0.0
H441 H 0.52119 0.93458 0.69572 0.0
H442 H 0.52451 0.91217 0.78901 0.0
C443 C 0.50387 0.84558 0.12484 0.0
C444 C 0.51574 0.88987 0.02753 0.0
H445 H 0.48616 0.92117 0.95276 0.0
C446 C 0.53189 0.89378 0.98902 0.0
C447 C 0.49928 0.90048 0.01616 0.0
C448 C 0.48196 0.89843 0.05992 0.0
C449 C 0.5319 0.9076 0.93828 0.0
C450 C 0.51504 0.9172 0.92344 0.0
C451 C 0.49904 0.91365 0.96323 0.0
C452 C 0.51354 0.9309 0.86685 0.0
C453 C 0.5501 0.91196 0.90225 0.0
C454 C 0.50554 0.94861 0.8787 0.0
C455 C 0.503 0.96113 0.82497 0.0
C456 C 0.50881 0.95637 0.75865 0.0
C457 C 0.51686 0.93871 0.74665 0.0
C458 C 0.51896 0.92598 0.80012 0.0
H459 H 0.56235 0.90863 0.93498 0.0
H460 H 0.55121 0.90319 0.85549 0.0
H461 H 0.55094 0.92694 0.88746 0.0
H462 H 0.50103 0.95269 0.92949 0.0
H463 H 0.49618 0.97438 0.83525 0.0
H464 H 0.65831 0.55312 0.13483 0.0
H465 H 0.63314 0.55053 0.0505 0.0
H466 H 0.62275 0.49358 0.11278 0.0
H467 H 0.64796 0.49591 0.19708 0.0
H468 H 0.63303 0.51249 0.94729 0.0
H469 H 0.57054 0.53066 0.10555 0.0
H470 H 0.5932 0.54106 0.1221 0.0
H471 H 0.58927 0.51686 0.1414 0.0
C472 C 0.65056 0.5401 0.13111 0.0
C473 C 0.65516 0.52469 0.1724 0.0
C474 C 0.63622 0.53867 0.083 0.0
C475 C 0.62618 0.52191 0.07598 0.0
C476 C 0.63038 0.50664 0.11802 0.0
H477 H 0.53321 0.48496 0.83112 0.0
H478 H 0.55633 0.49111 0.92046 0.0
C479 C 0.64478 0.50801 0.16593 0.0
C480 C 0.61209 0.51991 0.0217 0.0
H481 H 0.56519 0.52227 0.9907 0.0
C482 C 0.61818 0.51469 0.95635 0.0
C483 C 0.59285 0.52266 0.03458 0.0
C484 C 0.5859 0.52816 0.10459 0.0
C485 C 0.60538 0.51182 0.90316 0.0
C486 C 0.58604 0.51479 0.91558 0.0
C487 C 0.58002 0.52013 0.9812 0.0
C488 C 0.57178 0.51168 0.86194 0.0
C489 C 0.61266 0.50503 0.83499 0.0
C490 C 0.57262 0.52143 0.79984 0.0
C491 C 0.55959 0.51772 0.74839 0.0
C492 C 0.54531 0.50453 0.75902 0.0
C493 C 0.54412 0.49522 0.82184 0.0
C494 C 0.55728 0.49874 0.87285 0.0
H495 H 0.62676 0.49855 0.83962 0.0
H496 H 0.60301 0.49461 0.81176 0.0
H497 H 0.61391 0.51712 0.79981 0.0
H498 H 0.58339 0.53185 0.79106 0.0
H499 H 0.56061 0.52522 0.70056 0.0
H500 H 0.96406 0.66414 0.1847 0.0
H501 H 0.9653 0.63817 0.10278 0.0
H502 H 0.02509 0.63421 0.13034 0.0
H503 H 0.02403 0.66024 0.212 0.0
H504 H 0.0136 0.63615 0.9928 0.0
H505 H 0.97417 0.58165 0.13525 0.0
H506 H 0.96255 0.60393 0.12891 0.0
H507 H 0.984 0.60213 0.17629 0.0
C508 C 0.97745 0.65762 0.17395 0.0
C509 C 0.99395 0.66427 0.20492 0.0
C510 C 0.97811 0.64271 0.12736 0.0
C511 C 0.99526 0.63415 0.11104 0.0
C512 C 0.01171 0.64059 0.1425 0.0
H513 H 0.01689 0.53376 0.87109 0.0
H514 H 0.01426 0.55745 0.9616 0.0
C515 C 0.01106 0.65544 0.18923 0.0
C516 C 0.99623 0.61924 0.0582 0.0
H517 H 0.98125 0.57499 0.01906 0.0
C518 C 0.00657 0.62275 -0.00142 0.0
C519 C 0.98716 0.60175 0.06618 0.0
C520 C 0.97646 0.59699 0.13032 0.0
C521 C 0.00788 0.60932 0.94622 0.0
C522 C 0.99843 0.59201 0.95344 0.0
C523 C 0.98832 0.58836 0.01349 0.0
C524 C 0.9992 0.5774 0.89952 0.0
C525 C 0.01957 0.61366 0.88396 0.0
C526 C 0.99132 0.58067 0.83507 0.0
C527 C 0.9927 0.56712 0.78348 0.0
C528 C 0.00193 0.55008 0.79565 0.0
C529 C 0.00954 0.54671 0.86053 0.0
C530 C 0.0081 0.56023 0.91217 0.0
H531 H 0.0292 0.62566 0.89295 0.0
H532 H 0.02799 0.60126 0.86832 0.0
H533 H 0.01017 0.61734 0.84099 0.0
H534 H 0.98417 0.59374 0.82463 0.0
H535 H 0.98665 0.57004 0.73398 0.0
H536 H 0.02444 0.22765 0.08413 0.0
H537 H 0.02456 0.19579 0.13057 0.0
H538 H 0.96828 0.20379 0.20562 0.0
H539 H 0.96791 0.23545 0.1584 0.0
H540 H 0.0178 0.18637 0.27421 0.0
H541 H 0.96669 0.15309 0.09798 0.0
H542 H 0.97912 0.1744 0.07716 0.0
H543 H 0.95933 0.17512 0.13399 0.0
C544 C 0.01193 0.22248 0.10893 0.0
C545 C 0.99603 0.23395 0.1164 0.0
C546 C 0.01211 0.20435 0.1361 0.0
C547 C 0.99634 0.19738 0.1706 0.0
C548 C 0.98048 0.2088 0.17814 0.0
H549 H 0.96068 0.09997 0.39092 0.0
H550 H 0.96421 0.1298 0.33115 0.0
C551 C 0.98034 0.22692 0.15146 0.0
C552 C 0.99659 0.1785 0.20166 0.0
H553 H 0.97439 0.13613 0.1983 0.0
C554 C 0.00849 0.17527 0.25726 0.0
C555 C 0.98436 0.16415 0.17942 0.0
C556 C 0.97174 0.16673 0.11849 0.0
C557 C 0.00797 0.15825 0.29308 0.0
C558 C 0.99548 0.14397 0.27159 0.0
C559 C 0.9839 0.14709 0.21486 0.0
C560 C 0.99366 0.12594 0.30855 0.0
C561 C 0.02022 0.15601 0.35521 0.0
C562 C 0.00902 0.1138 0.31538 0.0
C563 C 0.00705 0.09676 0.34978 0.0
C564 C 0.98961 0.09144 0.37715 0.0
C565 C 0.97424 0.10359 0.3698 0.0
C566 C 0.97625 0.12065 0.33584 0.0
H567 H 0.02532 0.16974 0.37473 0.0
H568 H 0.01255 0.14878 0.39688 0.0
H569 H 0.03263 0.14741 0.3415 0.0
H570 H 0.02248 0.11739 0.29336 0.0
H571 H 0.01907 0.08756 0.35376 0.0
H572 H 0.26427 0.96014 0.13203 0.0
H573 H 0.29634 0.96062 0.17718 0.0
H574 H 0.28986 0.01889 0.23178 0.0
H575 H 0.25774 0.01843 0.18775 0.0
H576 H 0.32712 0.98724 0.13589 0.0
H577 H 0.3071 0.99076 0.41045 0.0
H578 H 0.29124 0.98242 0.34526 0.0
H579 H 0.29577 0.00706 0.35412 0.0
C580 C 0.26971 0.97304 0.15375 0.0
C581 C 0.25865 0.98934 0.15538 0.0
C582 C 0.28801 0.9733 0.17922 0.0
C583 C 0.29541 0.98977 0.20782 0.0
C584 C 0.28436 0.00603 0.20997 0.0
H585 H 0.39996 0.01544 0.41554 0.0
H586 H 0.36873 0.01656 0.36444 0.0
C587 C 0.26612 0.00581 0.1841 0.0
C588 C 0.31469 0.98995 0.2356 0.0
H589 H 0.33932 0.99284 0.38444 0.0
C590 C 0.32984 0.98842 0.19021 0.0
C591 C 0.31811 0.99163 0.30638 0.0
C592 C 0.30225 0.99294 0.35722 0.0
C593 C 0.34842 0.98871 0.21378 0.0
C594 C 0.35188 0.99012 0.28481 0.0
C595 C 0.33667 0.99176 0.33006 0.0
C596 C 0.37113 0.98968 0.31351 0.0
C597 C 0.36416 0.98793 0.16224 0.0
C598 C 0.38281 0.97413 0.30235 0.0
C599 C 0.40074 0.97353 0.33095 0.0
C600 C 0.40731 0.98839 0.37197 0.0
C601 C 0.39549 0.00389 0.3834 0.0
C602 C 0.37758 0.0045 0.35459 0.0
H603 H 0.35941 0.99244 0.11086 0.0
H604 H 0.37607 0.99695 0.17817 0.0
H605 H 0.36927 0.97329 0.1578 0.0
H606 H 0.378 0.96235 0.27208 0.0
H607 H 0.40949 0.96145 0.32052 0.0
H608 H 0.4902 0.25204 0.18084 0.0
H609 H 0.48606 0.28372 0.22752 0.0
H610 H 0.54253 0.29769 0.16764 0.0
H611 H 0.54653 0.26627 0.11898 0.0
H612 H 0.50665 0.3015 0.33033 0.0
H613 H 0.51147 0.34071 0.08717 0.0
H614 H 0.50729 0.31576 0.09066 0.0
H615 H 0.53066 0.32483 0.10028 0.0
C616 C 0.50157 0.26201 0.17623 0.0
C617 C 0.51852 0.25685 0.14465 0.0
C618 C 0.49925 0.28002 0.20357 0.0
C619 C 0.51385 0.29317 0.19978 0.0
C620 C 0.53093 0.2879 0.16968 0.0
H621 H 0.53895 0.40314 0.35467 0.0
H622 H 0.53872 0.37178 0.30385 0.0
C623 C 0.53326 0.2699 0.14247 0.0
C624 C 0.51151 0.31223 0.22925 0.0
H625 H 0.514 0.35877 0.18981 0.0
C626 C 0.50806 0.31403 0.29957 0.0
C627 C 0.51323 0.32854 0.18886 0.0
C628 C 0.51569 0.32744 0.11243 0.0
C629 C 0.50698 0.33174 0.33099 0.0
C630 C 0.50932 0.34801 0.29091 0.0
C631 C 0.51237 0.34623 0.22041 0.0
C632 C 0.50919 0.36702 0.3216 0.0
C633 C 0.50392 0.33299 0.4071 0.0
C634 C 0.4926 0.37476 0.34791 0.0
C635 C 0.49261 0.39279 0.37636 0.0
C636 C 0.50924 0.40342 0.37904 0.0
C637 C 0.52583 0.39552 0.35254 0.0
C638 C 0.52577 0.37755 0.32382 0.0
H639 H 0.50527 0.31912 0.43224 0.0
H640 H 0.51411 0.34286 0.43051 0.0
H641 H 0.48963 0.33847 0.41741 0.0
H642 H 0.47962 0.36691 0.34584 0.0
H643 H 0.47953 0.39851 0.39525 0.0
H644 H 0.23496 0.5485 0.12052 0.0
H645 H 0.20388 0.54647 0.17344 0.0
H646 H 0.21629 0.49043 0.24168 0.0
H647 H 0.24761 0.49268 0.19143 0.0
H648 H 0.17477 0.52068 0.14898 0.0
H649 H 0.19976 0.51708 0.41697 0.0
H650 H 0.21478 0.52403 0.34729 0.0
H651 H 0.20962 0.49966 0.36102 0.0
C652 C 0.23105 0.53576 0.14687 0.0
C653 C 0.24358 0.5206 0.15062 0.0
C654 C 0.21329 0.53459 0.17684 0.0
C655 C 0.20782 0.51835 0.21188 0.0
C656 C 0.22028 0.50316 0.21544 0.0
H657 H 0.10645 0.4878 0.43352 0.0
H658 H 0.137 0.48785 0.37626 0.0
C659 C 0.23805 0.50433 0.18557 0.0
C660 C 0.18911 0.51737 0.24475 0.0
H661 H 0.16724 0.51271 0.39905 0.0
C662 C 0.1731 0.51899 0.20366 0.0
C663 C 0.18699 0.51511 0.3161 0.0
C664 C 0.20368 0.51403 0.36313 0.0
C665 C 0.15501 0.51823 0.23195 0.0
C666 C 0.15291 0.51609 0.30333 0.0
C667 C 0.16891 0.51432 0.34433 0.0
C668 C 0.13424 0.51598 0.33671 0.0
C669 C 0.1383 0.51942 0.1851 0.0
C670 C 0.12267 0.53187 0.33409 0.0
C671 C 0.10521 0.53188 0.36661 0.0
C672 C 0.099 0.51601 0.4026 0.0
C673 C 0.11071 0.50016 0.4055 0.0
C674 C 0.1282 0.50019 0.37312 0.0
H675 H 0.14214 0.51614 0.13134 0.0
H676 H 0.12706 0.50966 0.20155 0.0
H677 H 0.13259 0.53389 0.18672 0.0
H678 H 0.12721 0.54432 0.30725 0.0
H679 H 0.09649 0.54425 0.36291 0.0
H680 H 0.03312 0.78429 0.27807 0.0
H681 H 0.03508 0.81091 0.20103 0.0
H682 H 0.99875 0.7826 0.05823 0.0
H683 H 0.9963 0.7559 0.13609 0.0
H684 H 0.04609 0.81584 0.06645 0.0
H685 H 0.97002 0.83064 0.1018 0.0
H686 H 0.98241 0.81398 0.15394 0.0
H687 H 0.97579 0.80788 0.06824 0.0
C688 C 0.02569 0.78356 0.22998 0.0
C689 C 0.0143 0.76806 0.21376 0.0
C690 C 0.02688 0.7988 0.18587 0.0
C691 C 0.01677 0.79888 0.12461 0.0
C692 C 0.00634 0.78297 0.10603 0.0
H693 H 0.99843 0.90011 0.8796 0.0
H694 H 1.00003 0.86697 0.91128 0.0
C695 C 0.00505 0.76769 0.15041 0.0
C696 C 0.01626 0.81623 0.08342 0.0
H697 H 0.98742 0.85227 0.03815 0.0
C698 C 0.03323 0.8237 0.05943 0.0
C699 C 0.99945 0.82646 0.07441 0.0
C700 C 0.98088 0.81947 0.10129 0.0
C701 C 0.03393 0.84142 0.0286 0.0
C702 C 0.01726 0.85194 0.02231 0.0
C703 C 1.00017 0.84411 0.04317 0.0
C704 C 0.01739 0.87172 5e-05 0.0
C705 C 0.05254 0.84889 0.00418 0.0
C706 C 0.02649 0.88533 0.03989 0.0
C707 C 0.0254 0.90426 0.02256 0.0
C708 C 0.01515 0.90996 0.96505 0.0
C709 C 0.00622 0.89623 0.92476 0.0
C710 C 0.00725 0.87728 0.94237 0.0
H711 H 0.06271 0.83738 0.99457 0.0
H712 H 0.05087 0.85716 0.95667 0.0
H713 H 0.05851 0.85823 0.04401 0.0
H714 H 0.03401 0.88134 0.08556 0.0
H715 H 0.03218 0.91446 0.05535 0.0
H716 H 0.73003 0.95925 0.21558 0.0
H717 H 0.70056 0.96636 0.15784 0.0
H718 H 0.69977 0.02116 0.25135 0.0
H719 H 0.72964 0.01452 0.30697 0.0
H720 H 0.66393 0.99685 0.25583 0.0
H721 H 0.69593 0.00751 -0.00043 0.0
H722 H 0.70335 0.98708 0.04588 0.0
H723 H 0.7091 0.00998 0.07781 0.0
C724 C 0.72361 0.97283 0.22405 0.0
C725 C 0.73206 0.98616 0.26727 0.0
C726 C 0.70677 0.97684 0.19101 0.0
C727 C 0.69806 0.99425 0.20048 0.0
C728 C 0.70627 0.00757 0.24393 0.0
H729 H 0.60512 0.03875 0.96298 0.0
H730 H 0.63434 0.03503 0.02707 0.0
C731 C 0.72324 0.00363 0.27655 0.0
C732 C 0.68047 0.99853 0.16406 0.0
H733 H 0.66278 0.00637 0.00497 0.0
C734 C 0.66364 0.99904 0.20107 0.0
C735 C 0.68026 0.00153 0.09282 0.0
C736 C 0.6981 0.00165 0.05142 0.0
C737 C 0.64643 0.00197 0.16811 0.0
C738 C 0.64616 0.00435 0.09647 0.0
C739 C 0.66307 0.00439 0.05983 0.0
C740 C 0.62842 0.0066 0.05842 0.0
C741 C 0.62868 0.00254 0.21001 0.0
C742 C 0.61559 0.99173 0.05414 0.0
C743 C 0.59895 0.99377 0.01742 0.0
C744 C 0.59483 0.01076 0.98451 0.0
C745 C 0.60781 0.02557 0.98848 0.0
C746 C 0.62451 0.02346 0.0248 0.0
H747 H 0.63163 0.00458 0.26523 0.0
H748 H 0.61934 0.01398 0.19244 0.0
H749 H 0.62107 0.98907 0.20369 0.0
H750 H 0.6185 0.97851 0.07902 0.0
H751 H 0.58917 0.98216 0.01568 0.0
H752 H 0.47628 0.74517 0.18559 0.0
H753 H 0.47366 0.71349 0.13843 0.0
H754 H 0.53122 0.70266 0.19227 0.0
H755 H 0.53364 0.73415 0.2423 0.0
H756 H 0.49262 0.69729 0.03471 0.0
H757 H 0.50402 0.65768 0.27298 0.0
H758 H 0.50043 0.6827 0.27255 0.0
H759 H 0.52323 0.67311 0.25431 0.0
C760 C 0.48822 0.73587 0.189 0.0
C761 C 0.50497 0.74191 0.21958 0.0
C762 C 0.48678 0.71785 0.16124 0.0
C763 C 0.50212 0.70556 0.16305 0.0
C764 C 0.51906 0.71174 0.1918 0.0
H765 H 0.51391 0.60605 0.90743 0.0
H766 H 0.51643 0.63716 0.95916 0.0
C767 C 0.52048 0.72978 0.2198 0.0
C768 C 0.5005 0.68648 0.13301 0.0
H769 H 0.50528 0.63995 0.16929 0.0
C770 C 0.49532 0.68474 0.06417 0.0
C771 C 0.50367 0.67011 0.17183 0.0
C772 C 0.50796 0.67095 0.24719 0.0
C773 C 0.49353 0.6671 0.03275 0.0
C774 C 0.49757 0.65074 0.0707 0.0
C775 C 0.50244 0.65248 0.13989 0.0
C776 C 0.49647 0.63167 0.04005 0.0
C777 C 0.48689 0.66619 0.9597 0.0
C778 C 0.48498 0.61795 0.06973 0.0
C779 C 0.48385 0.59999 0.04124 0.0
C780 C 0.49417 0.59532 0.9822 0.0
C781 C 0.50586 0.60905 0.9531 0.0
C782 C 0.50711 0.62697 0.98205 0.0
H783 H 0.4791 0.67906 0.94527 0.0
H784 H 0.4992 0.66498 0.92529 0.0
H785 H 0.47767 0.65387 0.95101 0.0
H786 H 0.47677 0.62118 0.11486 0.0
H787 H 0.47501 0.5897 0.06598 0.0
H788 H 0.77412 0.49827 0.31591 0.0
H789 H 0.80475 0.49432 0.26129 0.0
H790 H 0.7805 0.50853 0.06676 0.0
H791 H 0.74971 0.51213 0.12134 0.0
H792 H 0.81589 0.47033 0.15164 0.0
H793 H 0.82421 0.54576 0.0878 0.0
H794 H 0.80685 0.5375 0.14773 0.0
H795 H 0.80299 0.53504 0.05753 0.0
C796 C 0.77521 0.49995 0.26126 0.0
C797 C 0.75947 0.50496 0.22254 0.0
C798 C 0.79276 0.49797 0.23022 0.0
C799 C 0.79492 0.50124 0.16005 0.0
C800 C 0.77918 0.50617 0.12114 0.0
H801 H 0.89399 0.5016 0.89785 0.0
H802 H 0.86187 0.50287 0.94198 0.0
C803 C 0.76163 0.50816 0.15225 0.0
C804 C 0.8137 0.4997 0.12801 0.0
H805 H 0.84773 0.52514 0.04778 0.0
C806 C 0.82287 0.4823 0.12889 0.0
C807 C 0.82272 0.51534 0.09826 0.0
C808 C 0.8138 0.53452 0.09809 0.0
C809 C 0.84082 0.48009 0.10044 0.0
C810 C 0.84996 0.49579 0.07155 0.0
C811 C 0.84068 0.51313 0.0699 0.0
C812 C 0.86936 0.49468 0.04458 0.0
C813 C 0.84975 0.46091 0.10078 0.0
C814 C 0.88424 0.4899 0.08786 0.0
C815 C 0.90259 0.48926 0.06295 0.0
C816 C 0.90647 0.4935 0.99428 0.0
C817 C 0.89153 0.49843 0.95114 0.0
C818 C 0.87316 0.49906 0.97615 0.0
H819 H 0.83913 0.44964 0.10682 0.0
H820 H 0.85775 0.45832 0.05298 0.0
H821 H 0.85962 0.46 0.14434 0.0
H822 H 0.88169 0.48693 0.14125 0.0
H823 H 0.9138 0.48576 0.09785 0.0
H824 H 0.03577 0.21035 0.94337 0.0
H825 H 0.02373 0.17851 0.92452 0.0
H826 H 0.03438 0.18394 0.70861 0.0
H827 H 0.04688 0.21547 0.7275 0.0
H828 H 0.99566 0.16262 0.84632 0.0
H829 H 0.06526 0.13847 0.75597 0.0
H830 H 0.06183 0.16103 0.79599 0.0
H831 H 0.0564 0.1577 0.70702 0.0
C832 C 0.03515 0.20489 0.89179 0.0
C833 C 0.04217 0.21535 0.83659 0.0
C834 C 0.02838 0.18666 0.88111 0.0
C835 C 0.02856 0.1787 0.81534 0.0
C836 C 0.03457 0.1896 0.76 0.0
H837 H 0.0026 0.07032 0.63765 0.0
H838 H 0.00836 0.10368 0.65874 0.0
C839 C 0.04156 0.20764 0.77073 0.0
C840 C 0.02334 0.15876 0.80456 0.0
H841 H 0.03986 0.11734 0.74009 0.0
C842 C 0.00534 0.15269 0.82344 0.0
C843 C 0.03606 0.14576 0.77517 0.0
C844 C 0.05602 0.151 0.75802 0.0
C845 C 0.99957 0.13408 0.812 0.0
C846 C 0.01217 0.12128 0.78122 0.0
C847 C 0.03018 0.12729 0.76295 0.0
C848 C 0.0072 0.10141 0.76875 0.0
C849 C 0.97998 0.12828 0.83178 0.0
C850 C 0.0047 0.08912 0.82369 0.0
C851 C 0.00154 0.07004 0.8119 0.0
C852 C 1.00082 0.06289 0.74486 0.0
C853 C 0.00302 0.07534 0.68989 0.0
C854 C 0.00631 0.0944 0.70179 0.0
H855 H 0.97083 0.14058 0.84206 0.0
H856 H 0.97354 0.1196 0.79089 0.0
H857 H 0.98058 0.11967 0.87878 0.0
H858 H 0.00565 0.09422 0.87574 0.0
H859 H 0.99989 0.06087 0.85543 0.0
H860 H 0.28928 0.01565 0.83448 0.0
H861 H 0.32081 0.0137 0.78584 0.0
H862 H 0.34337 0.04043 0.96559 0.0
H863 H 0.31193 0.04233 0.01507 0.0
H864 H 0.34898 0.04212 0.76065 0.0
H865 H 0.37084 0.98919 0.95224 0.0
H866 H 0.34659 0.99508 0.93747 0.0
H867 H 0.36119 0.01044 0.98711 0.0
C868 C 0.30091 0.02129 0.86344 0.0
C869 C 0.29813 0.02898 0.92894 0.0
C870 C 0.3189 0.02018 0.83549 0.0
C871 C 0.33437 0.02664 0.87268 0.0
C872 C 0.33158 0.03511 0.93666 0.0
H873 H 0.45387 0.02226 0.82897 0.0
H874 H 0.42147 0.02729 0.86361 0.0
C875 C 0.3136 0.03626 0.96465 0.0
C876 C 0.35352 0.02376 0.84591 0.0
H877 H 0.39434 1.00063 0.87801 0.0
C878 C 0.35893 0.03302 0.786 0.0
C879 C 0.36633 0.01177 0.87913 0.0
C880 C 0.36096 1.0009 0.94223 0.0
C881 C 0.37712 0.03105 0.75942 0.0
C882 C 0.39 0.0192 0.79307 0.0
C883 C 0.38444 0.00973 0.85244 0.0
C884 C 0.40956 0.01684 0.76937 0.0
C885 C 0.38255 0.04208 0.69686 0.0
C886 C 0.41361 0.00927 0.70472 0.0
C887 C 0.43222 0.00644 0.68443 0.0
C888 C 0.44702 0.01094 0.7289 0.0
C889 C 0.44284 0.01855 0.7935 0.0
C890 C 0.42431 0.02147 0.81345 0.0
H891 H 0.37272 0.05386 0.6874 0.0
H892 H 0.39695 0.04782 0.70186 0.0
H893 H 0.38226 0.03268 0.65159 0.0
H894 H 0.40241 0.00525 0.67047 0.0
H895 H 0.43497 1.00048 0.63444 0.0
H896 H 0.51405 0.30247 0.96223 0.0
H897 H 0.51105 0.33278 0.90673 0.0
H898 H 0.45131 0.32464 0.88963 0.0
H899 H 0.45413 0.29439 0.94776 0.0
H900 H 0.49835 0.34157 0.78091 0.0
H901 H 0.45437 0.37558 0.98087 0.0
H902 H 0.46589 0.35339 0.99415 0.0
H903 H 0.44478 0.35452 0.94443 0.0
C904 C 0.50025 0.3071 0.94681 0.0
C905 C 0.4843 0.29611 0.95972 0.0
C906 C 0.49857 0.32442 0.91493 0.0
C907 C 0.48095 0.33104 0.89466 0.0
C908 C 0.465 0.31995 0.90614 0.0
H909 H 0.48003 0.43363 0.64452 0.0
H910 H 0.47475 0.40113 0.6797 0.0
C911 C 0.46664 0.30266 0.93903 0.0
C912 C 0.47958 0.34965 0.86204 0.0
H913 H 0.46253 0.39387 0.8858 0.0
C914 C 0.4904 0.353 0.8034 0.0
C915 C 0.46927 0.3645 0.89191 0.0
C916 C 0.45803 0.36194 0.95661 0.0
C917 C 0.49182 0.37099 0.77532 0.0
C918 C 0.48167 0.38589 0.80566 0.0
C919 C 0.47024 0.38237 0.8626 0.0
C920 C 0.48413 0.40556 0.78361 0.0
C921 C 0.50495 0.37403 0.71583 0.0
C922 C 0.49062 0.4189 0.83078 0.0
C923 C 0.49339 0.43744 0.8111 0.0
C924 C 0.48986 0.44297 0.74364 0.0
C925 C 0.4832 0.42966 0.69646 0.0
C926 C 0.4802 0.41111 0.71648 0.0
H927 H 0.51482 0.36212 0.70891 0.0
H928 H 0.49666 0.37541 0.66828 0.0
H929 H 0.51324 0.38708 0.72282 0.0
H930 H 0.49376 0.4149 0.88283 0.0
H931 H 0.49856 0.44736 0.84859 0.0
H932 H 0.1963 0.46076 0.04073 0.0
H933 H 0.16452 0.46175 0.99478 0.0
H934 H 0.1864 0.47752 0.79784 0.0
H935 H 0.21826 0.47643 0.84303 0.0
H936 H 0.15019 0.49567 0.9412 0.0
H937 H 0.14631 0.43764 0.75127 0.0
H938 H 0.16368 0.43832 0.81823 0.0
H939 H 0.16637 0.45276 0.74398 0.0
C940 C 0.19441 0.464 0.98721 0.0
C941 C 0.2098 0.46865 0.94562 0.0
C942 C 0.17624 0.46458 0.96111 0.0
C943 C 0.17316 0.46962 0.89293 0.0
C944 C 0.18852 0.47332 0.85033 0.0
H945 H 0.07183 0.49856 0.66898 0.0
H946 H 0.10434 0.49225 0.70179 0.0
C947 C 0.20671 0.47278 0.87639 0.0
C948 C 0.15389 0.47314 0.86887 0.0
H949 H 0.1209 0.45912 0.75356 0.0
C950 C 0.14373 0.48762 0.90042 0.0
C951 C 0.1457 0.46279 0.815 0.0
C952 C 0.15598 0.4469 0.78033 0.0
C953 C 0.12553 0.49207 0.8795 0.0
C954 C 0.11715 0.48148 0.82656 0.0
C955 C 0.1274 0.46716 0.79425 0.0
C956 C 0.09754 0.48474 0.80582 0.0
C957 C 0.11555 0.50827 0.9136 0.0
C958 C 0.08301 0.48226 0.85319 0.0
C959 C 0.06452 0.48593 0.8349 0.0
C960 C 0.06016 0.49198 0.76857 0.0
C961 C 0.07472 0.49401 0.72059 0.0
C962 C 0.09328 0.49038 0.73912 0.0
H963 H 0.12556 0.51806 0.93856 0.0
H964 H 0.10703 0.51625 0.87629 0.0
H965 H 0.10602 0.50278 0.95363 0.0
H966 H 0.086 0.47753 0.90451 0.0
H967 H 0.05365 0.48402 0.87292 0.0
H968 H 0.01687 0.78865 0.57633 0.0
H969 H 0.01636 0.82053 0.62333 0.0
H970 H 0.96262 0.83014 0.52967 0.0
H971 H 0.96296 0.79836 0.48267 0.0
H972 H 0.01473 0.85256 0.53887 0.0
H973 H 0.95594 0.8516 0.72445 0.0
H974 H 0.96741 0.83049 0.69475 0.0
H975 H 0.95022 0.84186 0.64234 0.0
C976 C 0.00474 0.79739 0.56704 0.0
C977 C 0.98998 0.79098 0.52552 0.0
C978 C 0.00451 0.81562 0.59377 0.0
C979 C 0.9894 0.82765 0.58033 0.0
C980 C 0.97427 0.821 0.54155 0.0
H981 H 0.98578 0.94822 0.5524 0.0
H982 H 0.9856 0.9143 0.53308 0.0
C983 C 0.97455 0.80284 0.51444 0.0
C984 C 0.99024 0.84768 0.60071 0.0
H985 H 0.96688 0.88176 0.68952 0.0
C986 C 0.00438 0.85892 0.57234 0.0
C987 C 0.97681 0.85591 0.64473 0.0
C988 C 0.96182 0.84433 0.67892 0.0
C989 C 0.0051 0.87829 0.58505 0.0
C990 C 0.99116 0.88666 0.62657 0.0
C991 C 0.9774 0.87534 0.65694 0.0
C992 C 0.99064 0.90719 0.63874 0.0
C993 C 0.02078 0.88963 0.55399 0.0
C994 C 0.99304 0.91441 0.70482 0.0
C995 C 0.9931 0.93378 0.7161 0.0
C996 C 0.99063 0.94633 0.66152 0.0
C997 C 0.98781 0.939 0.59555 0.0
C998 C 0.98779 0.91962 0.58433 0.0
H999 H 0.03274 0.88062 0.53821 0.0
H1000 H 0.01549 0.89692 0.50796 0.0
H1001 H 0.02593 0.90041 0.59046 0.0
H1002 H 0.99518 0.90505 0.74752 0.0
H1003 H 0.99528 0.93888 0.76757 0.0
H1004 H 0.71123 0.02494 0.42292 0.0
H1005 H 0.67909 0.01286 0.43042 0.0
H1006 H 0.67653 0.02967 0.64205 0.0
H1007 H 0.70846 0.04196 0.63449 0.0
H1008 H 0.66072 0.98634 0.51627 0.0
H1009 H 0.63319 0.05822 0.5553 0.0
H1010 H 0.65684 0.05375 0.52675 0.0
H1011 H 0.65097 0.05223 0.61599 0.0
C1012 C 0.70399 0.02561 0.47142 0.0
C1013 C 0.71236 0.03419 0.52859 0.0
C1014 C 0.68558 0.01883 0.4755 0.0
C1015 C 0.67534 0.02065 0.5365 0.0
C1016 C 0.68406 0.02846 0.59414 0.0
H1017 H 0.56991 0.99666 0.71496 0.0
H1018 H 0.60289 1.00026 0.6849 0.0
C1019 C 0.7023 0.03537 0.58991 0.0
C1020 C 0.65527 0.01537 0.53985 0.0
H1021 H 0.61227 0.03305 0.58142 0.0
C1022 C 0.65006 0.99656 0.5296 0.0
C1023 C 0.64136 0.0288 0.5564 0.0
C1024 C 0.64582 0.04941 0.56354 0.0
C1025 C 0.63139 0.99072 0.539 0.0
C1026 C 0.61779 0.00402 0.55907 0.0
C1027 C 0.62285 0.02288 0.56669 0.0
C1028 C 0.59832 0.99871 0.57599 0.0
C1029 C 0.62633 0.97035 0.52986 0.0
C1030 C 0.58491 0.9963 0.52446 0.0
C1031 C 0.56593 0.99431 0.54138 0.0
C1032 C 0.56013 0.99482 0.61011 0.0
C1033 C 0.57381 0.9963 0.6615 0.0
C1034 C 0.5927 0.99831 0.64452 0.0
H1035 H 0.63866 0.96162 0.51588 0.0
H1036 H 0.6201 0.96487 0.5778 0.0
H1037 H 0.61559 0.96896 0.48922 0.0
H1038 H 0.58903 0.99676 0.47123 0.0
H1039 H 0.55578 0.99322 0.50056 0.0
H1040 H 0.48182 0.71352 0.53583 0.0
H1041 H 0.48956 0.68263 0.58208 0.0
H1042 H 0.47638 0.65706 0.3882 0.0
H1043 H 0.46842 0.68782 0.34158 0.0
H1044 H 0.4654 0.64849 0.58323 0.0
H1045 H 0.53202 0.64112 0.43844 0.0
H1046 H 0.52035 0.6634 0.45015 0.0
H1047 H 0.51185 0.64691 0.388 0.0
C1048 C 0.48042 0.7013 0.5032 0.0
C1049 C 0.47455 0.70308 0.43505 0.0
C1050 C 0.48487 0.68372 0.52968 0.0
C1051 C 0.48375 0.66771 0.48817 0.0
C1052 C 0.47749 0.66935 0.42066 0.0
H1053 H 0.50208 0.54998 0.51151 0.0
H1054 H 0.49877 0.58285 0.47992 0.0
C1055 C 0.47284 0.68689 0.39433 0.0
C1056 C 0.48911 0.64924 0.51536 0.0
H1057 H 0.52099 0.61398 0.49627 0.0
C1058 C 0.47764 0.64096 0.56489 0.0
C1059 C 0.50512 0.63962 0.49119 0.0
C1060 C 0.51818 0.64825 0.43942 0.0
C1061 C 0.48131 0.62283 0.58895 0.0
C1062 C 0.49715 0.61302 0.5638 0.0
C1063 C 0.5089 0.62157 0.51552 0.0
C1064 C 0.50101 0.5934 0.58334 0.0
C1065 C 0.46774 0.61407 0.63875 0.0
C1066 C 0.50402 0.58852 0.65174 0.0
C1067 C 0.50578 0.56969 0.67012 0.0
C1068 C 0.50478 0.5555 0.62017 0.0
C1069 C 0.50286 0.56055 0.55127 0.0
C1070 C 0.50096 0.57934 0.53308 0.0
H1071 H 0.45418 0.62171 0.64054 0.0
H1072 H 0.46495 0.5992 0.62515 0.0
H1073 H 0.4739 0.61446 0.69071 0.0
H1074 H 0.50458 0.59922 0.69106 0.0
H1075 H 0.50747 0.56628 0.7236 0.0
H1076 H 0.78912 0.50463 0.55251 0.0
H1077 H 0.82053 0.51065 0.59704 0.0
H1078 H 0.84263 0.46601 0.47154 0.0
H1079 H 0.81124 0.45981 0.42655 0.0
H1080 H 0.85636 0.46795 0.61278 0.0
H1081 H 0.86138 0.53527 0.47126 0.0
H1082 H 0.84086 0.53224 0.5236 0.0
H1083 H 0.84435 0.51741 0.4504 0.0
C1084 C 0.8006 0.49592 0.53494 0.0
C1085 C 0.79774 0.48185 0.48549 0.0
C1086 C 0.81852 0.49945 0.56025 0.0
C1087 C 0.83383 0.48898 0.53658 0.0
C1088 C 0.83092 0.47429 0.48997 0.0
H1089 H 0.95238 0.51016 0.54261 0.0
H1090 H 0.91936 0.50636 0.51262 0.0
C1091 C 0.813 0.47077 0.46444 0.0
C1092 C 0.85301 0.49384 0.55824 0.0
H1093 H 0.88667 0.52761 0.54354 0.0
C1094 C 0.86301 0.481 0.59798 0.0
C1095 C 0.8616 0.5108 0.53791 0.0
C1096 C 0.85161 0.52471 0.49299 0.0
C1097 C 0.88147 0.48472 0.61832 0.0
C1098 C 0.88997 0.50182 0.59887 0.0
C1099 C 0.87999 0.51462 0.55883 0.0
C1100 C 0.90954 0.50623 0.61719 0.0
C1101 C 0.89188 0.47014 0.65901 0.0
C1102 C 0.91477 0.50815 0.68577 0.0
C1103 C 0.93359 0.5103 0.7031 0.0
C1104 C 0.94749 0.51066 0.65206 0.0
C1105 C 0.94205 0.50988 0.58317 0.0
C1106 C 0.9232 0.50768 0.56591 0.0
H1107 H 0.88487 0.45623 0.65674 0.0
H1108 H 0.90648 0.46857 0.64014 0.0
H1109 H 0.89247 0.47461 0.71328 0.0
H1110 H 0.90434 0.50746 0.72596 0.0
H1111 H 0.93727 0.51107 0.75659 0.0
loop_
_geom_bond_atom_site_label_1
_geom_bond_atom_site_label_2
_geom_bond_distance
_geom_bond_site_symmetry_2
_ccdc_geom_bond_type
O0 Cd1 2.300 . S
O0 C7 1.275 . S
Cd1 O0 2.300 . S
Cd1 O9 2.381 . S
Cd1 O10 2.378 . S
O2 Cd3 2.385 . S
O2 C7 1.255 . S
Cd3 O2 2.385 . S
Cd3 O4 2.317 . S
O4 Cd3 2.317 . S
O4 C5 1.232 . S
C5 O4 1.232 . S
C5 O6 1.218 . S
O6 C5 1.218 . S
C7 O0 1.275 . S
C7 O2 1.255 . S
C8 O9 1.258 . S
C8 O10 1.256 . S
O9 Cd1 2.381 . S
O9 C8 1.258 . S
O10 Cd1 2.378 . S
O10 C8 1.256 . S
O11 Cd12 2.300 1_655 S
O11 C18 1.275 1_655 S
Cd12 O11 2.300 1_455 S
Cd12 O20 2.381 1_455 S
Cd12 O21 2.378 . S
O13 Cd14 2.385 . S
O13 C18 1.255 . S
Cd14 O13 2.385 . S
Cd14 O15 2.317 . S
O15 Cd14 2.317 . S
O15 C16 1.232 . S
C16 O15 1.232 . S
C16 O17 1.218 . S
O17 C16 1.218 . S
C18 O11 1.275 1_455 S
C18 O13 1.255 . S
C19 O20 1.258 1_455 S
C19 O21 1.256 . S
O20 Cd12 2.381 1_655 S
O20 C19 1.258 1_655 S
O21 Cd12 2.378 . S
O21 C19 1.256 . S
O22 Cd23 2.300 1_565 S
O22 C29 1.275 1_565 S
Cd23 O22 2.300 1_545 S
Cd23 O31 2.381 1_545 S
Cd23 O32 2.378 . S
O24 Cd25 2.385 . S
O24 C29 1.255 . S
Cd25 O24 2.385 . S
Cd25 O26 2.317 . S
O26 Cd25 2.317 . S
O26 C27 1.232 . S
C27 O26 1.232 . S
C27 O28 1.218 . S
O28 C27 1.218 . S
C29 O22 1.275 1_545 S
C29 O24 1.255 . S
C30 O31 1.258 1_545 S
C30 O32 1.256 . S
O31 Cd23 2.381 1_565 S
O31 C30 1.258 1_565 S
O32 Cd23 2.378 . S
O32 C30 1.256 . S
O33 Cd34 2.300 . S
O33 C40 1.275 . S
Cd34 O33 2.300 . S
Cd34 O42 2.381 . S
Cd34 O43 2.378 . S
O35 Cd36 2.385 . S
O35 C40 1.255 . S
Cd36 O35 2.385 . S
Cd36 O37 2.317 . S
O37 Cd36 2.317 . S
O37 C38 1.232 . S
C38 O37 1.232 . S
C38 O39 1.218 . S
O39 C38 1.218 . S
C40 O33 1.275 . S
C40 O35 1.255 . S
C41 O42 1.258 . S
C41 O43 1.256 . S
O42 Cd34 2.381 . S
O42 C41 1.258 . S
O43 Cd34 2.378 . S
O43 C41 1.256 . S
O44 Cd45 2.300 . S
O44 C51 1.275 . S
Cd45 O44 2.300 . S
Cd45 O53 2.381 . S
Cd45 O54 2.378 . S
O46 Cd47 2.385 . S
O46 C51 1.255 . S
Cd47 O46 2.385 . S
Cd47 O48 2.317 1_554 S
O48 Cd47 2.317 1_556 S
O48 C49 1.232 . S
C49 O48 1.232 . S
C49 O50 1.218 . S
O50 C49 1.218 . S
C51 O44 1.275 . S
C51 O46 1.255 . S
C52 O53 1.258 . S
C52 O54 1.256 . S
O53 Cd45 2.381 . S
O53 C52 1.258 . S
O54 Cd45 2.378 . S
O54 C52 1.256 . S
O55 Cd56 2.300 1_655 S
O55 C62 1.275 1_655 S
Cd56 O55 2.300 1_455 S
Cd56 O64 2.381 1_455 S
Cd56 O65 2.378 . S
O57 Cd58 2.385 . S
O57 C62 1.255 . S
Cd58 O57 2.385 . S
Cd58 O59 2.317 1_554 S
O59 Cd58 2.317 1_556 S
O59 C60 1.232 . S
C60 O59 1.232 . S
C60 O61 1.218 . S
O61 C60 1.218 . S
C62 O55 1.275 1_455 S
C62 O57 1.255 . S
C63 O64 1.258 1_455 S
C63 O65 1.256 . S
O64 Cd56 2.381 1_655 S
O64 C63 1.258 1_655 S
O65 Cd56 2.378 . S
O65 C63 1.256 . S
O66 Cd67 2.300 1_565 S
O66 C73 1.275 1_565 S
Cd67 O66 2.300 1_545 S
Cd67 O75 2.381 1_545 S
Cd67 O76 2.378 . S
O68 Cd69 2.385 . S
O68 C73 1.255 . S
Cd69 O68 2.385 . S
Cd69 O70 2.317 1_554 S
O70 Cd69 2.317 1_556 S
O70 C71 1.232 . S
C71 O70 1.232 . S
C71 O72 1.218 . S
O72 C71 1.218 . S
C73 O66 1.275 1_545 S
C73 O68 1.255 . S
C74 O75 1.258 1_545 S
C74 O76 1.256 . S
O75 Cd67 2.381 1_565 S
O75 C74 1.258 1_565 S
O76 Cd67 2.378 . S
O76 C74 1.256 . S
O77 Cd78 2.300 . S
O77 C84 1.275 . S
Cd78 O77 2.300 . S
Cd78 O86 2.381 . S
Cd78 O87 2.378 . S
O79 Cd80 2.385 . S
O79 C84 1.255 . S
Cd80 O79 2.385 . S
Cd80 O81 2.317 1_554 S
O81 Cd80 2.317 1_556 S
O81 C82 1.232 . S
C82 O81 1.232 . S
C82 O83 1.218 . S
O83 C82 1.218 . S
C84 O77 1.275 . S
C84 O79 1.255 . S
C85 O86 1.258 . S
C85 O87 1.256 . S
O86 Cd78 2.381 . S
O86 C85 1.258 . S
O87 Cd78 2.378 . S
O87 C85 1.256 . S
Tb88 C90 2.809 . S
Tb88 O108 2.478 1_455 S
Tb88 O109 2.440 . S
Tb88 O110 2.658 1_565 S
Tb88 O111 2.409 . S
Tb88 O112 2.378 . S
Tb88 O116 2.325 1_455 S
Tb88 O119 2.341 1_565 S
Tb89 C99 2.809 . S
Tb89 O110 2.325 1_655 S
Tb89 O113 2.341 1_545 S
Tb89 O114 2.472 1_655 S
Tb89 O115 2.440 . S
Tb89 O116 2.658 1_545 S
Tb89 O117 2.409 . S
Tb89 O118 2.378 . S
C90 Tb88 2.809 . S
C90 C91 1.514 . S
C90 O108 1.234 1_455 S
C90 O109 1.266 . S
C91 C90 1.514 . S
C91 C92 1.359 . S
C91 C96 1.348 . S
C92 C91 1.359 . S
C92 C93 1.380 . S
C92 H120 0.929 1_455 S
C93 C92 1.380 . S
C93 C94 1.347 . S
C93 H121 0.931 1_455 S
C94 C93 1.347 . S
C94 C95 1.369 . S
C95 C94 1.369 . S
C95 C96 1.408 . S
C95 H122 0.930 . S
C96 C91 1.348 . S
C96 C95 1.408 . S
C96 H123 0.930 . S
C97 O110 1.264 1_565 S
C97 O111 1.278 . S
C98 O112 1.236 1_655 S
C98 O113 1.266 . S
C99 Tb89 2.809 . S
C99 C100 1.514 . S
C99 O114 1.221 1_655 S
C99 O115 1.266 . S
C100 C99 1.514 . S
C100 C101 1.359 . S
C100 C105 1.348 . S
C101 C100 1.359 . S
C101 C102 1.380 . S
C101 H124 0.929 1_655 S
C102 C101 1.380 . S
C102 C103 1.347 . S
C102 H125 0.931 1_655 S
C103 C102 1.347 . S
C103 C104 1.369 . S
C104 C103 1.369 . S
C104 C105 1.408 . S
C104 H126 0.930 . S
C105 C100 1.348 . S
C105 C104 1.408 . S
C105 H127 0.930 . S
C106 O116 1.260 1_545 S
C106 O117 1.286 . S
C107 O118 1.236 1_455 S
C107 O119 1.266 . S
O108 Tb88 2.478 1_655 S
O108 C90 1.234 1_655 S
O109 Tb88 2.440 . S
O109 C90 1.266 . S
O110 Tb88 2.658 1_545 S
O110 Tb89 2.325 1_455 S
O110 C97 1.264 1_545 S
O111 Tb88 2.409 . S
O111 C97 1.278 . S
O112 Tb88 2.378 . S
O112 C98 1.236 1_455 S
O113 Tb89 2.341 1_565 S
O113 C98 1.266 . S
O114 Tb89 2.472 1_455 S
O114 C99 1.221 1_455 S
O115 Tb89 2.440 . S
O115 C99 1.266 . S
O116 Tb88 2.325 1_655 S
O116 Tb89 2.658 1_565 S
O116 C106 1.260 1_565 S
O117 Tb89 2.409 . S
O117 C106 1.286 . S
O118 Tb89 2.378 . S
O118 C107 1.236 1_655 S
O119 Tb88 2.341 1_545 S
O119 C107 1.266 . S
H120 C92 0.929 1_655 S
H121 C93 0.931 1_655 S
H122 C95 0.930 . S
H123 C96 0.930 . S
H124 C101 0.929 1_455 S
H125 C102 0.931 1_455 S
H126 C104 0.930 . S
H127 C105 0.930 . S
Tb128 C130 2.809 . S
Tb128 O148 2.477 1_545 S
Tb128 O149 2.440 . S
Tb128 O150 2.658 . S
Tb128 O151 2.409 . S
Tb128 O152 2.378 . S
Tb128 O156 2.325 1_545 S
Tb128 O159 2.341 . S
Tb129 C139 2.809 . S
Tb129 O150 2.325 1_565 S
Tb129 O153 2.341 . S
Tb129 O154 2.471 1_565 S
Tb129 O155 2.440 . S
Tb129 O156 2.658 . S
Tb129 O157 2.409 . S
Tb129 O158 2.378 . S
C130 Tb128 2.809 . S
C130 C131 1.514 . S
C130 O148 1.231 1_545 S
C130 O149 1.266 . S
C131 C130 1.514 . S
C131 C132 1.359 . S
C131 C136 1.348 . S
C132 C131 1.359 . S
C132 C133 1.380 . S
C132 H160 0.929 1_545 S
C133 C132 1.380 . S
C133 C134 1.347 . S
C133 H161 0.931 1_545 S
C134 C133 1.347 . S
C134 C135 1.369 . S
C135 C134 1.369 . S
C135 C136 1.408 . S
C135 H162 0.930 . S
C136 C131 1.348 . S
C136 C135 1.408 . S
C136 H163 0.930 . S
C137 O150 1.281 . S
C137 O151 1.254 . S
C138 O152 1.236 1_565 S
C138 O153 1.266 . S
C139 Tb129 2.809 . S
C139 C140 1.514 . S
C139 O154 1.218 1_565 S
C139 O155 1.266 . S
C140 C139 1.514 . S
C140 C141 1.359 . S
C140 C145 1.348 . S
C141 C140 1.359 . S
C141 C142 1.380 . S
C141 H164 0.929 1_565 S
C142 C141 1.380 . S
C142 C143 1.347 . S
C142 H165 0.931 1_565 S
C143 C142 1.347 . S
C143 C144 1.369 . S
C144 C143 1.369 . S
C144 C145 1.408 . S
C144 H166 0.930 . S
C145 C140 1.348 . S
C145 C144 1.408 . S
C145 H167 0.930 . S
C146 O156 1.281 . S
C146 O157 1.254 . S
C147 O158 1.236 1_545 S
C147 O159 1.266 . S
O148 Tb128 2.477 1_565 S
O148 C130 1.231 1_565 S
O149 Tb128 2.440 . S
O149 C130 1.266 . S
O150 Tb128 2.658 . S
O150 Tb129 2.325 1_545 S
O150 C137 1.281 . S
O151 Tb128 2.409 . S
O151 C137 1.254 . S
O152 Tb128 2.378 . S
O152 C138 1.236 1_545 S
O153 Tb129 2.341 . S
O153 C138 1.266 . S
O154 Tb129 2.471 1_545 S
O154 C139 1.218 1_545 S
O155 Tb129 2.440 . S
O155 C139 1.266 . S
O156 Tb128 2.325 1_565 S
O156 Tb129 2.658 . S
O156 C146 1.281 . S
O157 Tb129 2.409 . S
O157 C146 1.254 . S
O158 Tb129 2.378 . S
O158 C147 1.236 1_565 S
O159 Tb128 2.341 . S
O159 C147 1.266 . S
H160 C132 0.929 1_565 S
H161 C133 0.931 1_565 S
H162 C135 0.930 . S
H163 C136 0.930 . S
H164 C141 0.929 1_545 S
H165 C142 0.931 1_545 S
H166 C144 0.930 . S
H167 C145 0.930 . S
Tb168 C170 2.809 . S
Tb168 O188 2.484 . S
Tb168 O189 2.440 . S
Tb168 O190 2.658 . S
Tb168 O191 2.409 . S
Tb168 O192 2.378 . S
Tb168 O196 2.325 . S
Tb168 O199 2.341 . S
Tb169 C179 2.809 . S
Tb169 O190 2.325 . S
Tb169 O193 2.341 . S
Tb169 O194 2.484 . S
Tb169 O195 2.440 . S
Tb169 O196 2.658 . S
Tb169 O197 2.409 . S
Tb169 O198 2.378 . S
C170 Tb168 2.809 . S
C170 C171 1.514 . S
C170 O188 1.248 . S
C170 O189 1.266 . S
C171 C170 1.514 . S
C171 C172 1.359 . S
C171 C176 1.348 . S
C172 C171 1.359 . S
C172 C173 1.380 . S
C172 H200 0.929 . S
C173 C172 1.380 . S
C173 C174 1.347 . S
C173 H201 0.931 . S
C174 C173 1.347 . S
C174 C175 1.369 . S
C175 C174 1.369 . S
C175 C176 1.408 . S
C175 H202 0.930 . S
C176 C171 1.348 . S
C176 C175 1.408 . S
C176 H203 0.930 . S
C177 O190 1.281 . S
C177 O191 1.254 . S
C178 O192 1.236 . S
C178 O193 1.266 . S
C179 Tb169 2.809 . S
C179 C180 1.514 . S
C179 O194 1.248 . S
C179 O195 1.266 . S
C180 C179 1.514 . S
C180 C181 1.359 . S
C180 C185 1.348 . S
C181 C180 1.359 . S
C181 C182 1.380 . S
C181 H204 0.929 . S
C182 C181 1.380 . S
C182 C183 1.347 . S
C182 H205 0.931 . S
C183 C182 1.347 . S
C183 C184 1.369 . S
C184 C183 1.369 . S
C184 C185 1.408 . S
C184 H206 0.930 . S
C185 C180 1.348 . S
C185 C184 1.408 . S
C185 H207 0.930 . S
C186 O196 1.281 . S
C186 O197 1.254 . S
C187 O198 1.236 . S
C187 O199 1.266 . S
O188 Tb168 2.484 . S
O188 C170 1.248 . S
O189 Tb168 2.440 . S
O189 C170 1.266 . S
O190 Tb168 2.658 . S
O190 Tb169 2.325 . S
O190 C177 1.281 . S
O191 Tb168 2.409 . S
O191 C177 1.254 . S
O192 Tb168 2.378 . S
O192 C178 1.236 . S
O193 Tb169 2.341 . S
O193 C178 1.266 . S
O194 Tb169 2.484 . S
O194 C179 1.248 . S
O195 Tb169 2.440 . S
O195 C179 1.266 . S
O196 Tb168 2.325 . S
O196 Tb169 2.658 . S
O196 C186 1.281 . S
O197 Tb169 2.409 . S
O197 C186 1.254 . S
O198 Tb169 2.378 . S
O198 C187 1.236 . S
O199 Tb168 2.341 . S
O199 C187 1.266 . S
H200 C172 0.929 . S
H201 C173 0.931 . S
H202 C175 0.930 . S
H203 C176 0.930 . S
H204 C181 0.929 . S
H205 C182 0.931 . S
H206 C184 0.930 . S
H207 C185 0.930 . S
Tb208 C210 2.809 . S
Tb208 O228 2.484 . S
Tb208 O229 2.440 . S
Tb208 O230 2.658 1_655 S
Tb208 O231 2.409 . S
Tb208 O232 2.378 . S
Tb208 O236 2.325 . S
Tb208 O239 2.341 1_655 S
Tb209 C219 2.809 . S
Tb209 O230 2.325 . S
Tb209 O233 2.341 1_455 S
Tb209 O234 2.484 . S
Tb209 O235 2.440 . S
Tb209 O236 2.658 1_455 S
Tb209 O237 2.409 . S
Tb209 O238 2.378 . S
C210 Tb208 2.809 . S
C210 C211 1.514 . S
C210 O228 1.248 . S
C210 O229 1.266 . S
C211 C210 1.514 . S
C211 C212 1.359 . S
C211 C216 1.348 . S
C212 C211 1.359 . S
C212 C213 1.380 . S
C212 H240 0.929 . S
C213 C212 1.380 . S
C213 C214 1.347 . S
C213 H241 0.931 . S
C214 C213 1.347 . S
C214 C215 1.369 . S
C215 C214 1.369 . S
C215 C216 1.408 . S
C215 H242 0.930 . S
C216 C211 1.348 . S
C216 C215 1.408 . S
C216 H243 0.930 . S
C217 O230 1.267 1_655 S
C217 O231 1.274 . S
C218 O232 1.236 . S
C218 O233 1.266 . S
C219 Tb209 2.809 . S
C219 C220 1.514 . S
C219 O234 1.248 . S
C219 O235 1.266 . S
C220 C219 1.514 . S
C220 C221 1.359 . S
C220 C225 1.348 . S
C221 C220 1.359 . S
C221 C222 1.380 . S
C221 H244 0.929 . S
C222 C221 1.380 . S
C222 C223 1.347 . S
C222 H245 0.931 . S
C223 C222 1.347 . S
C223 C224 1.369 . S
C224 C223 1.369 . S
C224 C225 1.408 . S
C224 H246 0.930 . S
C225 C220 1.348 . S
C225 C224 1.408 . S
C225 H247 0.930 . S
C226 O236 1.263 1_455 S
C226 O237 1.281 . S
C227 O238 1.236 . S
C227 O239 1.266 . S
O228 Tb208 2.484 . S
O228 C210 1.248 . S
O229 Tb208 2.440 . S
O229 C210 1.266 . S
O230 Tb208 2.658 1_455 S
O230 Tb209 2.325 . S
O230 C217 1.267 1_455 S
O231 Tb208 2.409 . S
O231 C217 1.274 . S
O232 Tb208 2.378 . S
O232 C218 1.236 . S
O233 Tb209 2.341 1_655 S
O233 C218 1.266 . S
O234 Tb209 2.484 . S
O234 C219 1.248 . S
O235 Tb209 2.440 . S
O235 C219 1.266 . S
O236 Tb208 2.325 . S
O236 Tb209 2.658 1_655 S
O236 C226 1.263 1_655 S
O237 Tb209 2.409 . S
O237 C226 1.281 . S
O238 Tb209 2.378 . S
O238 C227 1.236 . S
O239 Tb208 2.341 1_455 S
O239 C227 1.266 . S
H240 C212 0.929 . S
H241 C213 0.931 . S
H242 C215 0.930 . S
H243 C216 0.930 . S
H244 C221 0.929 . S
H245 C222 0.931 . S
H246 C224 0.930 . S
H247 C225 0.930 . S
H248 C256 0.929 . S
H249 C258 0.930 . S
H250 C260 0.930 . S
H251 C263 0.929 . S
H252 C266 0.930 . S
H253 C268 0.960 . S
H254 C268 0.960 . S
H255 C268 0.960 . S
C256 H248 0.929 . S
C256 C257 1.373 . S
C256 C258 1.384 . S
C257 C256 1.373 . S
C257 C263 1.395 1_565 S
C258 H249 0.930 . S
C258 C256 1.384 . S
C258 C259 1.411 . S
C259 C258 1.411 . S
C259 C260 1.360 1_565 S
C259 C264 1.491 . S
C260 H250 0.930 . S
C260 C259 1.360 1_545 S
C260 C263 1.386 . S
H261 C277 0.930 . S
H262 C278 0.931 . S
C263 H251 0.929 . S
C263 C257 1.395 1_545 S
C263 C260 1.386 . S
C264 C259 1.491 . S
C264 C266 1.395 . S
C264 C267 1.403 1_565 S
H265 C271 0.930 . S
C266 H252 0.930 . S
C266 C264 1.395 . S
C266 C269 1.403 . S
C267 C264 1.403 1_545 S
C267 C268 1.524 . S
C267 C271 1.400 . S
C268 H253 0.960 . S
C268 H254 0.960 . S
C268 H255 0.960 . S
C268 C267 1.524 . S
C269 C266 1.403 . S
C269 C270 1.392 . S
C269 C273 1.495 . S
C270 C269 1.392 . S
C270 C271 1.385 1_565 S
C270 C272 1.478 . S
C271 H265 0.930 . S
C271 C267 1.400 . S
C271 C270 1.385 1_545 S
C272 C270 1.478 . S
C272 C274 1.381 . S
C272 C278 1.383 1_565 S
C273 C269 1.495 . S
C273 H279 0.959 . S
C273 H280 0.961 . S
C273 H281 0.960 . S
C274 C272 1.381 . S
C274 C275 1.394 . S
C274 H282 0.930 . S
C275 C274 1.394 . S
C275 C276 1.377 . S
C275 H283 0.929 . S
C276 C275 1.377 . S
C276 C277 1.382 1_565 S
C277 H261 0.930 . S
C277 C276 1.382 1_545 S
C277 C278 1.379 . S
C278 H262 0.931 . S
C278 C272 1.383 1_545 S
C278 C277 1.379 . S
H279 C273 0.959 . S
H280 C273 0.961 . S
H281 C273 0.960 . S
H282 C274 0.930 . S
H283 C275 0.929 . S
H284 C292 0.929 . S
H285 C294 0.930 . S
H286 C296 0.930 . S
H287 C299 0.929 . S
H288 C302 0.930 . S
H289 C304 0.960 . S
H290 C304 0.960 . S
H291 C304 0.960 . S
C292 H284 0.929 . S
C292 C293 1.377 . S
C292 C294 1.384 . S
C293 C292 1.377 . S
C293 C299 1.390 . S
C294 H285 0.930 . S
C294 C292 1.384 . S
C294 C295 1.372 . S
C295 C294 1.372 . S
C295 C296 1.400 . S
C295 C300 1.490 . S
C296 H286 0.930 . S
C296 C295 1.400 . S
C296 C299 1.386 . S
H297 C313 0.930 . S
H298 C314 0.931 . S
C299 H287 0.929 . S
C299 C293 1.390 . S
C299 C296 1.386 . S
C300 C295 1.490 . S
C300 C302 1.395 . S
C300 C303 1.403 . S
H301 C307 0.930 . S
C302 H288 0.930 . S
C302 C300 1.395 . S
C302 C305 1.403 . S
C303 C300 1.403 . S
C303 C304 1.524 . S
C303 C307 1.400 . S
C304 H289 0.960 . S
C304 H290 0.960 . S
C304 H291 0.960 . S
C304 C303 1.524 . S
C305 C302 1.403 . S
C305 C306 1.392 . S
C305 C309 1.495 . S
C306 C305 1.392 . S
C306 C307 1.385 . S
C306 C308 1.478 . S
C307 H301 0.930 . S
C307 C303 1.400 . S
C307 C306 1.385 . S
C308 C306 1.478 . S
C308 C310 1.381 . S
C308 C314 1.383 . S
C309 C305 1.495 . S
C309 H315 0.959 . S
C309 H316 0.961 . S
C309 H317 0.960 . S
C310 C308 1.381 . S
C310 C311 1.394 . S
C310 H318 0.930 . S
C311 C310 1.394 . S
C311 C312 1.383 . S
C311 H319 0.929 . S
C312 C311 1.383 . S
C312 C313 1.377 . S
C313 H297 0.930 . S
C313 C312 1.377 . S
C313 C314 1.379 . S
C314 H298 0.931 . S
C314 C308 1.383 . S
C314 C313 1.379 . S
H315 C309 0.959 . S
H316 C309 0.961 . S
H317 C309 0.960 . S
H318 C310 0.930 . S
H319 C311 0.929 . S
H320 C328 0.929 . S
H321 C330 0.930 . S
H322 C332 0.930 . S
H323 C335 0.929 . S
H324 C338 0.930 . S
H325 C340 0.960 . S
H326 C340 0.960 . S
H327 C340 0.960 . S
C328 H320 0.929 . S
C328 C329 1.377 . S
C328 C330 1.384 . S
C329 C328 1.377 . S
C329 C335 1.390 . S
C330 H321 0.930 . S
C330 C328 1.384 . S
C330 C331 1.372 . S
C331 C330 1.372 . S
C331 C332 1.400 . S
C331 C336 1.490 . S
C332 H322 0.930 . S
C332 C331 1.400 . S
C332 C335 1.386 . S
H333 C349 0.930 . S
H334 C350 0.931 . S
C335 H323 0.929 . S
C335 C329 1.390 . S
C335 C332 1.386 . S
C336 C331 1.490 . S
C336 C338 1.395 . S
C336 C339 1.403 . S
H337 C343 0.930 . S
C338 H324 0.930 . S
C338 C336 1.395 . S
C338 C341 1.403 . S
C339 C336 1.403 . S
C339 C340 1.524 . S
C339 C343 1.400 . S
C340 H325 0.960 . S
C340 H326 0.960 . S
C340 H327 0.960 . S
C340 C339 1.524 . S
C341 C338 1.403 . S
C341 C342 1.392 . S
C341 C345 1.495 . S
C342 C341 1.392 . S
C342 C343 1.385 . S
C342 C344 1.478 . S
C343 H337 0.930 . S
C343 C339 1.400 . S
C343 C342 1.385 . S
C344 C342 1.478 . S
C344 C346 1.381 . S
C344 C350 1.383 . S
C345 C341 1.495 . S
C345 H351 0.959 . S
C345 H352 0.961 . S
C345 H353 0.960 . S
C346 C344 1.381 . S
C346 C347 1.394 . S
C346 H354 0.930 . S
C347 C346 1.394 . S
C347 C348 1.383 . S
C347 H355 0.929 . S
C348 C347 1.383 . S
C348 C349 1.377 . S
C349 H333 0.930 . S
C349 C348 1.377 . S
C349 C350 1.379 . S
C350 H334 0.931 . S
C350 C344 1.383 . S
C350 C349 1.379 . S
H351 C345 0.959 . S
H352 C345 0.961 . S
H353 C345 0.960 . S
H354 C346 0.930 . S
H355 C347 0.929 . S
H356 C364 0.929 . S
H357 C366 0.930 . S
H358 C368 0.930 . S
H359 C371 0.929 . S
H360 C374 0.930 . S
H361 C376 0.960 . S
H362 C376 0.960 . S
H363 C376 0.960 . S
C364 H356 0.929 . S
C364 C365 1.380 1_655 S
C364 C366 1.384 . S
C365 C364 1.380 1_455 S
C365 C371 1.387 . S
C366 H357 0.930 . S
C366 C364 1.384 . S
C366 C367 1.401 . S
C367 C366 1.401 . S
C367 C368 1.370 1_655 S
C367 C372 1.491 . S
C368 H358 0.930 . S
C368 C367 1.370 1_455 S
C368 C371 1.386 . S
H369 C385 0.930 . S
H370 C386 0.931 . S
C371 H359 0.929 . S
C371 C365 1.387 . S
C371 C368 1.386 . S
C372 C367 1.491 . S
C372 C374 1.395 . S
C372 C375 1.403 1_655 S
H373 C379 0.930 . S
C374 H360 0.930 . S
C374 C372 1.395 . S
C374 C377 1.403 . S
C375 C372 1.403 1_455 S
C375 C376 1.524 . S
C375 C379 1.400 . S
C376 H361 0.960 . S
C376 H362 0.960 . S
C376 H363 0.960 . S
C376 C375 1.524 . S
C377 C374 1.403 . S
C377 C378 1.392 . S
C377 C381 1.495 . S
C378 C377 1.392 . S
C378 C379 1.385 1_655 S
C378 C380 1.478 . S
C379 H373 0.930 . S
C379 C375 1.400 . S
C379 C378 1.385 1_455 S
C380 C378 1.478 . S
C380 C382 1.381 . S
C380 C386 1.383 1_655 S
C381 C377 1.495 . S
C381 H387 0.959 . S
C381 H388 0.961 . S
C381 H389 0.960 . S
C382 C380 1.381 . S
C382 C383 1.394 . S
C382 H390 0.930 . S
C383 C382 1.394 . S
C383 C384 1.391 . S
C383 H391 0.929 . S
C384 C383 1.391 . S
C384 C385 1.370 1_655 S
C385 H369 0.930 . S
C385 C384 1.370 1_455 S
C385 C386 1.379 . S
C386 H370 0.931 . S
C386 C380 1.383 1_455 S
C386 C385 1.379 . S
H387 C381 0.959 . S
H388 C381 0.961 . S
H389 C381 0.960 . S
H390 C382 0.930 . S
H391 C383 0.929 . S
H392 C400 0.929 . S
H393 C402 0.930 . S
H394 C404 0.930 . S
H395 C407 0.929 . S
H396 C410 0.930 . S
H397 C412 0.960 . S
H398 C412 0.960 . S
H399 C412 0.960 1_565 S
C400 H392 0.929 . S
C400 C401 1.390 . S
C400 C402 1.384 . S
C401 C400 1.390 . S
C401 C407 1.378 1_545 S
C402 H393 0.930 . S
C402 C400 1.384 . S
C402 C403 1.416 . S
C403 C402 1.416 . S
C403 C404 1.356 1_545 S
C403 C408 1.490 . S
C404 H394 0.930 . S
C404 C403 1.356 1_565 S
C404 C407 1.386 . S
H405 C421 0.930 . S
H406 C422 0.931 . S
C407 H395 0.929 . S
C407 C401 1.378 1_565 S
C407 C404 1.386 . S
C408 C403 1.490 . S
C408 C410 1.395 . S
C408 C411 1.404 1_554 S
H409 C415 0.930 . S
C410 H396 0.930 . S
C410 C408 1.395 . S
C410 C413 1.403 . S
C411 C408 1.404 1_556 S
C411 C412 1.524 . S
C411 C415 1.401 . S
C412 H397 0.960 . S
C412 H398 0.960 . S
C412 H399 0.960 1_545 S
C412 C411 1.524 . S
C413 C410 1.403 . S
C413 C414 1.392 1_554 S
C413 C417 1.495 1_545 S
C414 C413 1.392 1_556 S
C414 C415 1.385 . S
C414 C416 1.477 1_545 S
C415 H409 0.930 . S
C415 C411 1.401 . S
C415 C414 1.385 . S
C416 C414 1.477 1_565 S
C416 C418 1.370 1_565 S
C416 C422 1.394 . S
C417 C413 1.495 1_565 S
C417 H423 0.959 1_565 S
C417 H424 0.960 . S
C417 H425 0.961 1_565 S
C418 C416 1.370 1_545 S
C418 C419 1.394 . S
C418 H426 0.930 . S
C419 C418 1.394 . S
C419 C420 1.356 1_545 S
C419 H427 0.929 . S
C420 C419 1.356 1_565 S
C420 C421 1.404 . S
C421 H405 0.930 . S
C421 C420 1.404 . S
C421 C422 1.379 . S
C422 H406 0.931 . S
C422 C416 1.394 . S
C422 C421 1.379 . S
H423 C417 0.959 1_545 S
H424 C417 0.960 . S
H425 C417 0.961 1_545 S
H426 C418 0.930 . S
H427 C419 0.929 . S
H428 C436 0.929 . S
H429 C438 0.930 . S
H430 C440 0.930 . S
H431 C443 0.929 . S
H432 C446 0.930 . S
H433 C448 0.960 . S
H434 C448 0.960 . S
H435 C448 0.960 . S
C436 H428 0.929 . S
C436 C437 1.377 . S
C436 C438 1.384 . S
C437 C436 1.377 . S
C437 C443 1.390 . S
C438 H429 0.930 . S
C438 C436 1.384 . S
C438 C439 1.372 . S
C439 C438 1.372 . S
C439 C440 1.400 . S
C439 C444 1.490 . S
C440 H430 0.930 . S
C440 C439 1.400 . S
C440 C443 1.386 . S
H441 C457 0.930 . S
H442 C458 0.931 . S
C443 H431 0.929 . S
C443 C437 1.390 . S
C443 C440 1.386 . S
C444 C439 1.490 . S
C444 C446 1.395 . S
C444 C447 1.403 . S
H445 C451 0.930 . S
C446 H432 0.930 . S
C446 C444 1.395 . S
C446 C449 1.403 1_554 S
C447 C444 1.403 . S
C447 C448 1.524 . S
C447 C451 1.400 1_554 S
C448 H433 0.960 . S
C448 H434 0.960 . S
C448 H435 0.960 . S
C448 C447 1.524 . S
C449 C446 1.403 1_556 S
C449 C450 1.392 . S
C449 C453 1.495 . S
C450 C449 1.392 . S
C450 C451 1.385 . S
C450 C452 1.478 . S
C451 H445 0.930 . S
C451 C447 1.400 1_556 S
C451 C450 1.385 . S
C452 C450 1.478 . S
C452 C454 1.381 . S
C452 C458 1.383 . S
C453 C449 1.495 . S
C453 H459 0.959 . S
C453 H460 0.961 . S
C453 H461 0.960 . S
C454 C452 1.381 . S
C454 C455 1.394 . S
C454 H462 0.930 . S
C455 C454 1.394 . S
C455 C456 1.383 . S
C455 H463 0.929 . S
C456 C455 1.383 . S
C456 C457 1.377 . S
C457 H441 0.930 . S
C457 C456 1.377 . S
C457 C458 1.379 . S
C458 H442 0.931 . S
C458 C452 1.383 . S
C458 C457 1.379 . S
H459 C453 0.959 . S
H460 C453 0.961 . S
H461 C453 0.960 . S
H462 C454 0.930 . S
H463 C455 0.929 . S
H464 C472 0.929 . S
H465 C474 0.930 . S
H466 C476 0.930 . S
H467 C479 0.929 . S
H468 C482 0.930 . S
H469 C484 0.960 . S
H470 C484 0.960 . S
H471 C484 0.960 . S
C472 H464 0.929 . S
C472 C473 1.377 . S
C472 C474 1.384 . S
C473 C472 1.377 . S
C473 C479 1.390 . S
C474 H465 0.930 . S
C474 C472 1.384 . S
C474 C475 1.372 . S
C475 C474 1.372 . S
C475 C476 1.400 . S
C475 C480 1.490 . S
C476 H466 0.930 . S
C476 C475 1.400 . S
C476 C479 1.386 . S
H477 C493 0.930 . S
H478 C494 0.931 . S
C479 H467 0.929 . S
C479 C473 1.390 . S
C479 C476 1.386 . S
C480 C475 1.490 . S
C480 C482 1.395 . S
C480 C483 1.403 . S
H481 C487 0.931 . S
C482 H468 0.930 . S
C482 C480 1.395 . S
C482 C485 1.403 1_554 S
C483 C480 1.403 . S
C483 C484 1.524 . S
C483 C487 1.393 1_554 S
C484 H469 0.960 . S
C484 H470 0.960 . S
C484 H471 0.960 . S
C484 C483 1.524 . S
C485 C482 1.403 1_556 S
C485 C486 1.392 . S
C485 C489 1.495 . S
C486 C485 1.392 . S
C486 C487 1.391 . S
C486 C488 1.478 . S
C487 H481 0.931 . S
C487 C483 1.393 1_556 S
C487 C486 1.391 . S
C488 C486 1.478 . S
C488 C490 1.381 . S
C488 C494 1.383 . S
C489 C485 1.495 . S
C489 H495 0.959 . S
C489 H496 0.961 . S
C489 H497 0.960 . S
C490 C488 1.381 . S
C490 C491 1.394 . S
C490 H498 0.930 . S
C491 C490 1.394 . S
C491 C492 1.383 . S
C491 H499 0.929 . S
C492 C491 1.383 . S
C492 C493 1.377 . S
C493 H477 0.930 . S
C493 C492 1.377 . S
C493 C494 1.379 . S
C494 H478 0.931 . S
C494 C488 1.383 . S
C494 C493 1.379 . S
H495 C489 0.959 . S
H496 C489 0.961 . S
H497 C489 0.960 . S
H498 C490 0.930 . S
H499 C491 0.929 . S
H500 C508 0.929 . S
H501 C510 0.930 . S
H502 C512 0.930 . S
H503 C515 0.929 . S
H504 C518 0.930 . S
H505 C520 0.960 . S
H506 C520 0.960 . S
H507 C520 0.960 . S
C508 H500 0.929 . S
C508 C509 1.393 . S
C508 C510 1.384 . S
C509 C508 1.393 . S
C509 C515 1.375 1_655 S
C510 H501 0.930 . S
C510 C508 1.384 . S
C510 C511 1.372 . S
C511 C510 1.372 . S
C511 C512 1.400 1_655 S
C511 C516 1.490 . S
C512 H502 0.930 . S
C512 C511 1.400 1_455 S
C512 C515 1.386 . S
H513 C529 0.930 . S
H514 C530 0.931 . S
C515 H503 0.929 . S
C515 C509 1.375 1_455 S
C515 C512 1.386 . S
C516 C511 1.490 . S
C516 C518 1.395 1_654 S
C516 C519 1.403 . S
H517 C523 0.930 . S
C518 H504 0.930 . S
C518 C516 1.395 1_456 S
C518 C521 1.403 . S
C519 C516 1.403 . S
C519 C520 1.524 . S
C519 C523 1.400 . S
C520 H505 0.960 . S
C520 H506 0.960 . S
C520 H507 0.960 . S
C520 C519 1.524 . S
C521 C518 1.403 . S
C521 C522 1.393 1_455 S
C521 C525 1.495 . S
C522 C521 1.393 1_655 S
C522 C523 1.384 1_556 S
C522 C524 1.477 1_655 S
C523 H517 0.930 . S
C523 C519 1.400 . S
C523 C522 1.384 1_554 S
C524 C522 1.477 1_455 S
C524 C526 1.367 1_455 S
C524 C530 1.397 . S
C525 C521 1.495 . S
C525 H531 0.959 . S
C525 H532 0.961 . S
C525 H533 0.948 1_455 S
C526 C524 1.367 1_655 S
C526 C527 1.394 . S
C526 H534 0.930 . S
C527 C526 1.394 . S
C527 C528 1.390 . S
C527 H535 0.929 . S
C528 C527 1.390 . S
C528 C529 1.370 1_655 S
C529 H513 0.930 . S
C529 C528 1.370 1_455 S
C529 C530 1.379 . S
C530 H514 0.931 . S
C530 C524 1.397 . S
C530 C529 1.379 . S
H531 C525 0.959 . S
H532 C525 0.961 . S
H533 C525 0.948 1_655 S
H534 C526 0.930 . S
H535 C527 0.929 . S
H536 C544 0.929 . S
H537 C546 0.930 . S
H538 C548 0.930 . S
H539 C551 0.929 . S
H540 C554 0.930 . S
H541 C556 0.960 . S
H542 C556 0.960 . S
H543 C556 0.960 . S
C544 H536 0.929 . S
C544 C545 1.403 . S
C544 C546 1.384 . S
C545 C544 1.403 . S
C545 C551 1.358 1_455 S
C546 H537 0.930 . S
C546 C544 1.384 . S
C546 C547 1.372 1_455 S
C547 C546 1.372 1_655 S
C547 C548 1.400 . S
C547 C552 1.490 . S
C548 H538 0.930 . S
C548 C547 1.400 . S
C548 C551 1.386 . S
H549 C565 0.930 . S
H550 C566 0.931 . S
C551 H539 0.929 . S
C551 C545 1.358 1_655 S
C551 C548 1.386 . S
C552 C547 1.490 . S
C552 C554 1.395 1_655 S
C552 C555 1.403 . S
H553 C559 0.930 . S
C554 H540 0.930 . S
C554 C552 1.395 1_455 S
C554 C557 1.403 . S
C555 C552 1.403 . S
C555 C556 1.524 . S
C555 C559 1.400 . S
C556 H541 0.960 . S
C556 H542 0.960 . S
C556 H543 0.960 . S
C556 C555 1.524 . S
C557 C554 1.403 . S
C557 C558 1.392 1_455 S
C557 C561 1.495 . S
C558 C557 1.392 1_655 S
C558 C559 1.385 . S
C558 C560 1.478 . S
C559 H553 0.930 . S
C559 C555 1.400 . S
C559 C558 1.385 . S
C560 C558 1.478 . S
C560 C562 1.381 . S
C560 C566 1.383 . S
C561 C557 1.495 . S
C561 H567 0.959 . S
C561 H568 0.961 . S
C561 H569 0.960 . S
C562 C560 1.381 . S
C562 C563 1.394 . S
C562 H570 0.930 1_655 S
C563 C562 1.394 . S
C563 C564 1.383 . S
C563 H571 0.929 . S
C564 C563 1.383 . S
C564 C565 1.377 . S
C565 H549 0.930 . S
C565 C564 1.377 . S
C565 C566 1.379 . S
C566 H550 0.931 . S
C566 C560 1.383 . S
C566 C565 1.379 . S
H567 C561 0.959 . S
H568 C561 0.961 . S
H569 C561 0.960 . S
H570 C562 0.930 1_455 S
H571 C563 0.929 . S
H572 C580 0.929 . S
H573 C582 0.930 . S
H574 C584 0.930 . S
H575 C587 0.929 . S
H576 C590 0.930 . S
H577 C592 0.960 . S
H578 C592 0.960 . S
H579 C592 0.960 1_545 S
C580 H572 0.929 . S
C580 C581 1.351 1_565 S
C580 C582 1.384 . S
C581 C580 1.351 1_545 S
C581 C587 1.411 . S
C582 H573 0.930 . S
C582 C580 1.384 . S
C582 C583 1.372 . S
C583 C582 1.372 . S
C583 C584 1.400 1_565 S
C583 C588 1.490 . S
C584 H574 0.930 . S
C584 C583 1.400 1_545 S
C584 C587 1.386 . S
H585 C601 0.930 1_545 S
H586 C602 0.931 1_545 S
C587 H575 0.929 . S
C587 C581 1.411 . S
C587 C584 1.386 . S
C588 C583 1.490 . S
C588 C590 1.395 . S
C588 C591 1.403 . S
H589 C595 0.930 . S
C590 H576 0.930 . S
C590 C588 1.395 . S
C590 C593 1.403 . S
C591 C588 1.403 . S
C591 C592 1.524 . S
C591 C595 1.400 . S
C592 H577 0.960 . S
C592 H578 0.960 . S
C592 H579 0.960 1_565 S
C592 C591 1.524 . S
C593 C590 1.403 . S
C593 C594 1.392 . S
C593 C597 1.495 . S
C594 C593 1.392 . S
C594 C595 1.385 . S
C594 C596 1.478 . S
C595 H589 0.930 . S
C595 C591 1.400 . S
C595 C594 1.385 . S
C596 C594 1.478 . S
C596 C598 1.381 . S
C596 C602 1.383 . S
C597 C593 1.495 . S
C597 H603 0.959 . S
C597 H604 0.961 . S
C597 H605 0.960 . S
C598 C596 1.381 . S
C598 C599 1.394 . S
C598 H606 0.930 . S
C599 C598 1.394 . S
C599 C600 1.383 . S
C599 H607 0.929 . S
C600 C599 1.383 . S
C600 C601 1.377 . S
C601 H585 0.930 1_565 S
C601 C600 1.377 . S
C601 C602 1.379 . S
C602 H586 0.931 1_565 S
C602 C596 1.383 . S
C602 C601 1.379 . S
H603 C597 0.959 . S
H604 C597 0.961 . S
H605 C597 0.960 . S
H606 C598 0.930 . S
H607 C599 0.929 . S
H608 C616 0.929 . S
H609 C618 0.930 . S
H610 C620 0.930 . S
H611 C623 0.929 . S
H612 C626 0.930 . S
H613 C628 0.960 . S
H614 C628 0.960 . S
H615 C628 0.960 . S
C616 H608 0.929 . S
C616 C617 1.377 . S
C616 C618 1.384 . S
C617 C616 1.377 . S
C617 C623 1.390 . S
C618 H609 0.930 . S
C618 C616 1.384 . S
C618 C619 1.372 . S
C619 C618 1.372 . S
C619 C620 1.400 . S
C619 C624 1.490 . S
C620 H610 0.930 . S
C620 C619 1.400 . S
C620 C623 1.386 . S
H621 C637 0.930 . S
H622 C638 0.931 . S
C623 H611 0.929 . S
C623 C617 1.390 . S
C623 C620 1.386 . S
C624 C619 1.490 . S
C624 C626 1.395 . S
C624 C627 1.403 . S
H625 C631 0.930 . S
C626 H612 0.930 . S
C626 C624 1.395 . S
C626 C629 1.403 . S
C627 C624 1.403 . S
C627 C628 1.524 . S
C627 C631 1.400 . S
C628 H613 0.960 . S
C628 H614 0.960 . S
C628 H615 0.960 . S
C628 C627 1.524 . S
C629 C626 1.403 . S
C629 C630 1.392 . S
C629 C633 1.495 . S
C630 C629 1.392 . S
C630 C631 1.385 . S
C630 C632 1.478 . S
C631 H625 0.930 . S
C631 C627 1.400 . S
C631 C630 1.385 . S
C632 C630 1.478 . S
C632 C634 1.381 . S
C632 C638 1.383 . S
C633 C629 1.495 . S
C633 H639 0.959 . S
C633 H640 0.961 . S
C633 H641 0.960 . S
C634 C632 1.381 . S
C634 C635 1.394 . S
C634 H642 0.930 . S
C635 C634 1.394 . S
C635 C636 1.383 . S
C635 H643 0.929 . S
C636 C635 1.383 . S
C636 C637 1.377 . S
C637 H621 0.930 . S
C637 C636 1.377 . S
C637 C638 1.379 . S
C638 H622 0.931 . S
C638 C632 1.383 . S
C638 C637 1.379 . S
H639 C633 0.959 . S
H640 C633 0.961 . S
H641 C633 0.960 . S
H642 C634 0.930 . S
H643 C635 0.929 . S
H644 C652 0.929 . S
H645 C654 0.930 . S
H646 C656 0.930 . S
H647 C659 0.929 . S
H648 C662 0.930 . S
H649 C664 0.960 . S
H650 C664 0.960 . S
H651 C664 0.960 . S
C652 H644 0.929 . S
C652 C653 1.377 . S
C652 C654 1.384 . S
C653 C652 1.377 . S
C653 C659 1.390 . S
C654 H645 0.930 . S
C654 C652 1.384 . S
C654 C655 1.372 . S
C655 C654 1.372 . S
C655 C656 1.400 . S
C655 C660 1.490 . S
C656 H646 0.930 . S
C656 C655 1.400 . S
C656 C659 1.386 . S
H657 C673 0.930 . S
H658 C674 0.931 . S
C659 H647 0.929 . S
C659 C653 1.390 . S
C659 C656 1.386 . S
C660 C655 1.490 . S
C660 C662 1.395 . S
C660 C663 1.403 . S
H661 C667 0.930 . S
C662 H648 0.930 . S
C662 C660 1.395 . S
C662 C665 1.403 . S
C663 C660 1.403 . S
C663 C664 1.524 . S
C663 C667 1.400 . S
C664 H649 0.960 . S
C664 H650 0.960 . S
C664 H651 0.960 . S
C664 C663 1.524 . S
C665 C662 1.403 . S
C665 C666 1.392 . S
C665 C669 1.495 . S
C666 C665 1.392 . S
C666 C667 1.385 . S
C666 C668 1.478 . S
C667 H661 0.930 . S
C667 C663 1.400 . S
C667 C666 1.385 . S
C668 C666 1.478 . S
C668 C670 1.381 . S
C668 C674 1.383 . S
C669 C665 1.495 . S
C669 H675 0.959 . S
C669 H676 0.961 . S
C669 H677 0.960 . S
C670 C668 1.381 . S
C670 C671 1.394 . S
C670 H678 0.930 . S
C671 C670 1.394 . S
C671 C672 1.383 . S
C671 H679 0.929 . S
C672 C671 1.383 . S
C672 C673 1.377 . S
C673 H657 0.930 . S
C673 C672 1.377 . S
C673 C674 1.379 . S
C674 H658 0.931 . S
C674 C668 1.383 . S
C674 C673 1.379 . S
H675 C669 0.959 . S
H676 C669 0.961 . S
H677 C669 0.960 . S
H678 C670 0.930 . S
H679 C671 0.929 . S
H680 C688 0.931 . S
H681 C690 0.930 . S
H682 C692 0.930 . S
H683 C695 0.933 . S
H684 C698 0.930 . S
H685 C700 0.960 . S
H686 C700 0.960 . S
H687 C700 0.960 . S
C688 H680 0.931 . S
C688 C689 1.372 1_455 S
C688 C690 1.384 . S
C689 C688 1.372 1_655 S
C689 C695 1.389 . S
C690 H681 0.930 . S
C690 C688 1.384 . S
C690 C691 1.372 . S
C691 C690 1.372 . S
C691 C692 1.400 . S
C691 C696 1.490 . S
C692 H682 0.930 . S
C692 C691 1.400 . S
C692 C695 1.382 1_455 S
H693 C709 0.930 . S
H694 C710 0.931 . S
C695 H683 0.933 . S
C695 C689 1.389 . S
C695 C692 1.382 1_655 S
C696 C691 1.490 . S
C696 C698 1.395 . S
C696 C699 1.403 1_455 S
H697 C703 0.937 . S
C698 H684 0.930 . S
C698 C696 1.395 . S
C698 C701 1.403 . S
C699 C696 1.403 1_655 S
C699 C700 1.524 . S
C699 C703 1.402 . S
C700 H685 0.960 . S
C700 H686 0.960 . S
C700 H687 0.960 . S
C700 C699 1.524 . S
C701 C698 1.403 . S
C701 C702 1.392 . S
C701 C705 1.495 . S
C702 C701 1.392 . S
C702 C703 1.376 1_455 S
C702 C704 1.478 . S
C703 H697 0.937 . S
C703 C699 1.402 . S
C703 C702 1.376 1_655 S
C704 C702 1.478 . S
C704 C706 1.381 . S
C704 C710 1.383 1_554 S
C705 C701 1.495 . S
C705 H711 0.959 . S
C705 H712 0.961 . S
C705 H713 0.960 . S
C706 C704 1.381 . S
C706 C707 1.397 . S
C706 H714 0.930 . S
C707 C706 1.397 . S
C707 C708 1.378 1_554 S
C707 H715 0.931 . S
C708 C707 1.378 1_556 S
C708 C709 1.377 . S
C709 H693 0.930 . S
C709 C708 1.377 . S
C709 C710 1.379 . S
C710 H694 0.931 . S
C710 C704 1.383 1_556 S
C710 C709 1.379 . S
H711 C705 0.959 . S
H712 C705 0.961 . S
H713 C705 0.960 . S
H714 C706 0.930 . S
H715 C707 0.931 . S
H716 C724 0.929 . S
H717 C726 0.930 . S
H718 C728 0.930 . S
H719 C731 0.929 . S
H720 C734 0.930 . S
H721 C736 0.960 1_556 S
H722 C736 0.960 1_565 S
H723 C736 0.960 . S
C724 H716 0.929 . S
C724 C725 1.414 . S
C724 C726 1.384 . S
C725 C724 1.414 . S
C725 C731 1.348 1_565 S
C726 H717 0.930 . S
C726 C724 1.384 . S
C726 C727 1.372 1_565 S
C727 C726 1.372 1_545 S
C727 C728 1.400 . S
C727 C732 1.490 . S
C728 H718 0.930 . S
C728 C727 1.400 . S
C728 C731 1.386 . S
H729 C745 0.930 . S
H730 C746 0.931 . S
C731 H719 0.929 . S
C731 C725 1.348 1_545 S
C731 C728 1.386 . S
C732 C727 1.490 . S
C732 C734 1.395 . S
C732 C735 1.403 . S
H733 C739 0.930 1_556 S
C734 H720 0.930 . S
C734 C732 1.395 . S
C734 C737 1.403 . S
C735 C732 1.403 . S
C735 C736 1.524 . S
C735 C739 1.400 . S
C736 H721 0.960 1_554 S
C736 H722 0.960 1_545 S
C736 H723 0.960 . S
C736 C735 1.524 . S
C737 C734 1.403 . S
C737 C738 1.392 . S
C737 C741 1.495 . S
C738 C737 1.392 . S
C738 C739 1.385 . S
C738 C740 1.478 . S
C739 H733 0.930 1_554 S
C739 C735 1.400 . S
C739 C738 1.385 . S
C740 C738 1.478 . S
C740 C742 1.381 . S
C740 C746 1.383 1_554 S
C741 C737 1.495 . S
C741 H747 0.959 . S
C741 H748 0.961 . S
C741 H749 0.985 . S
C742 C740 1.381 . S
C742 C743 1.394 1_554 S
C742 H750 0.930 1_545 S
C743 C742 1.394 1_556 S
C743 C744 1.383 . S
C743 H751 0.929 1_545 S
C744 C743 1.383 . S
C744 C745 1.377 . S
C745 H729 0.930 . S
C745 C744 1.377 . S
C745 C746 1.379 . S
C746 H730 0.931 . S
C746 C740 1.383 1_556 S
C746 C745 1.379 . S
H747 C741 0.959 . S
H748 C741 0.961 . S
H749 C741 0.985 . S
H750 C742 0.930 1_565 S
H751 C743 0.929 1_565 S
H752 C760 0.929 . S
H753 C762 0.930 . S
H754 C764 0.930 . S
H755 C767 0.929 . S
H756 C770 0.930 . S
H757 C772 0.960 . S
H758 C772 0.960 . S
H759 C772 0.960 . S
C760 H752 0.929 . S
C760 C761 1.377 . S
C760 C762 1.384 . S
C761 C760 1.377 . S
C761 C767 1.390 . S
C762 H753 0.930 . S
C762 C760 1.384 . S
C762 C763 1.372 . S
C763 C762 1.372 . S
C763 C764 1.400 . S
C763 C768 1.490 . S
C764 H754 0.930 . S
C764 C763 1.400 . S
C764 C767 1.386 . S
H765 C781 0.930 . S
H766 C782 0.931 . S
C767 H755 0.929 . S
C767 C761 1.390 . S
C767 C764 1.386 . S
C768 C763 1.490 . S
C768 C770 1.395 . S
C768 C771 1.403 . S
H769 C775 0.930 . S
C770 H756 0.930 . S
C770 C768 1.395 . S
C770 C773 1.403 . S
C771 C768 1.403 . S
C771 C772 1.524 . S
C771 C775 1.400 . S
C772 H757 0.960 . S
C772 H758 0.960 . S
C772 H759 0.960 . S
C772 C771 1.524 . S
C773 C770 1.403 . S
C773 C774 1.392 . S
C773 C777 1.495 . S
C774 C773 1.392 . S
C774 C775 1.385 . S
C774 C776 1.475 1_554 S
C775 H769 0.930 . S
C775 C771 1.400 . S
C775 C774 1.385 . S
C776 C774 1.475 1_556 S
C776 C778 1.380 1_556 S
C776 C782 1.386 . S
C777 C773 1.495 . S
C777 H783 0.959 . S
C777 H784 0.961 1_554 S
C777 H785 0.960 . S
C778 C776 1.380 1_554 S
C778 C779 1.394 1_554 S
C778 H786 0.930 . S
C779 C778 1.394 1_556 S
C779 C780 1.383 . S
C779 H787 0.929 . S
C780 C779 1.383 . S
C780 C781 1.377 . S
C781 H765 0.930 . S
C781 C780 1.377 . S
C781 C782 1.379 . S
C782 H766 0.931 . S
C782 C776 1.386 . S
C782 C781 1.379 . S
H783 C777 0.959 . S
H784 C777 0.961 1_556 S
H785 C777 0.960 . S
H786 C778 0.930 . S
H787 C779 0.929 . S
H788 C796 0.929 . S
H789 C798 0.930 . S
H790 C800 0.930 . S
H791 C803 0.929 . S
H792 C806 0.930 . S
H793 C808 0.960 . S
H794 C808 0.960 . S
H795 C808 0.960 . S
C796 H788 0.929 . S
C796 C797 1.377 . S
C796 C798 1.384 . S
C797 C796 1.377 . S
C797 C803 1.390 . S
C798 H789 0.930 . S
C798 C796 1.384 . S
C798 C799 1.372 . S
C799 C798 1.372 . S
C799 C800 1.400 . S
C799 C804 1.490 . S
C800 H790 0.930 . S
C800 C799 1.400 . S
C800 C803 1.386 . S
H801 C817 0.930 . S
H802 C818 0.931 . S
C803 H791 0.929 . S
C803 C797 1.390 . S
C803 C800 1.386 . S
C804 C799 1.490 . S
C804 C806 1.395 . S
C804 C807 1.403 . S
H805 C811 0.930 . S
C806 H792 0.930 . S
C806 C804 1.395 . S
C806 C809 1.403 . S
C807 C804 1.403 . S
C807 C808 1.524 . S
C807 C811 1.400 . S
C808 H793 0.960 . S
C808 H794 0.960 . S
C808 H795 0.960 . S
C808 C807 1.524 . S
C809 C806 1.403 . S
C809 C810 1.392 . S
C809 C813 1.495 . S
C810 C809 1.392 . S
C810 C811 1.385 . S
C810 C812 1.478 . S
C811 H805 0.930 . S
C811 C807 1.400 . S
C811 C810 1.385 . S
C812 C810 1.478 . S
C812 C814 1.381 . S
C812 C818 1.383 1_554 S
C813 C809 1.495 . S
C813 H819 0.959 . S
C813 H820 0.961 . S
C813 H821 0.960 . S
C814 C812 1.381 . S
C814 C815 1.394 1_554 S
C814 H822 0.930 . S
C815 C814 1.394 1_556 S
C815 C816 1.383 . S
C815 H823 0.929 1_556 S
C816 C815 1.383 . S
C816 C817 1.377 . S
C817 H801 0.930 . S
C817 C816 1.377 . S
C817 C818 1.379 . S
C818 H802 0.931 . S
C818 C812 1.383 1_556 S
C818 C817 1.379 . S
H819 C813 0.959 . S
H820 C813 0.961 . S
H821 C813 0.960 . S
H822 C814 0.930 . S
H823 C815 0.929 1_554 S
H824 C832 0.929 . S
H825 C834 0.930 . S
H826 C836 0.930 . S
H827 C839 0.929 . S
H828 C842 0.930 . S
H829 C844 0.960 . S
H830 C844 0.960 . S
H831 C844 0.960 . S
C832 H824 0.929 . S
C832 C833 1.377 . S
C832 C834 1.384 . S
C833 C832 1.377 . S
C833 C839 1.390 1_455 S
C834 H825 0.930 . S
C834 C832 1.384 . S
C834 C835 1.372 . S
C835 C834 1.372 . S
C835 C836 1.400 1_455 S
C835 C840 1.490 . S
C836 H826 0.930 . S
C836 C835 1.400 1_655 S
C836 C839 1.386 . S
H837 C853 0.930 . S
H838 C854 0.931 . S
C839 H827 0.929 . S
C839 C833 1.390 1_655 S
C839 C836 1.386 . S
C840 C835 1.490 . S
C840 C842 1.395 1_455 S
C840 C843 1.403 . S
H841 C847 0.930 . S
C842 H828 0.930 . S
C842 C840 1.395 1_655 S
C842 C845 1.403 . S
C843 C840 1.403 . S
C843 C844 1.524 . S
C843 C847 1.400 . S
C844 H829 0.960 . S
C844 H830 0.960 . S
C844 H831 0.960 . S
C844 C843 1.524 . S
C845 C842 1.403 . S
C845 C846 1.392 1_655 S
C845 C849 1.495 . S
C846 C845 1.392 1_455 S
C846 C847 1.385 . S
C846 C848 1.478 . S
C847 H841 0.930 . S
C847 C843 1.400 . S
C847 C846 1.385 . S
C848 C846 1.478 . S
C848 C850 1.381 . S
C848 C854 1.383 1_455 S
C849 C845 1.495 . S
C849 H855 0.959 . S
C849 H856 0.961 . S
C849 H857 0.993 . S
C850 C848 1.381 . S
C850 C851 1.394 . S
C850 H858 0.930 . S
C851 C850 1.394 . S
C851 C852 1.383 . S
C851 H859 0.929 . S
C852 C851 1.383 . S
C852 C853 1.377 1_455 S
C853 H837 0.930 . S
C853 C852 1.377 1_655 S
C853 C854 1.379 . S
C854 H838 0.931 . S
C854 C848 1.383 1_655 S
C854 C853 1.379 . S
H855 C849 0.959 . S
H856 C849 0.961 . S
H857 C849 0.993 . S
H858 C850 0.930 . S
H859 C851 0.929 . S
H860 C868 0.929 . S
H861 C870 0.934 . S
H862 C872 0.930 . S
H863 C875 0.929 . S
H864 C878 0.930 . S
H865 C880 0.960 . S
H866 C880 0.960 . S
H867 C880 0.960 . S
C868 H860 0.929 . S
C868 C869 1.374 1_565 S
C868 C870 1.386 . S
C869 C868 1.374 1_545 S
C869 C875 1.394 . S
C870 H861 0.934 . S
C870 C868 1.386 . S
C870 C871 1.368 1_565 S
C871 C870 1.368 1_545 S
C871 C872 1.400 . S
C871 C876 1.490 . S
C872 H862 0.930 . S
C872 C871 1.400 . S
C872 C875 1.386 . S
H873 C889 0.930 . S
H874 C890 0.931 . S
C875 H863 0.929 . S
C875 C869 1.394 . S
C875 C872 1.386 . S
C876 C871 1.490 . S
C876 C878 1.395 . S
C876 C879 1.403 1_545 S
H877 C883 0.930 . S
C878 H864 0.930 . S
C878 C876 1.395 . S
C878 C881 1.403 . S
C879 C876 1.403 1_565 S
C879 C880 1.524 . S
C879 C883 1.400 . S
C880 H865 0.960 . S
C880 H866 0.960 . S
C880 H867 0.960 . S
C880 C879 1.524 . S
C881 C878 1.403 . S
C881 C882 1.392 . S
C881 C885 1.495 . S
C882 C881 1.392 . S
C882 C883 1.385 1_545 S
C882 C884 1.478 . S
C883 H877 0.930 . S
C883 C879 1.400 . S
C883 C882 1.385 1_565 S
C884 C882 1.478 . S
C884 C886 1.381 . S
C884 C890 1.383 . S
C885 C881 1.495 . S
C885 H891 0.959 . S
C885 H892 0.961 . S
C885 H893 0.960 . S
C886 C884 1.381 . S
C886 C887 1.394 . S
C886 H894 0.930 . S
C887 C886 1.394 . S
C887 C888 1.383 . S
C887 H895 0.929 . S
C888 C887 1.383 . S
C888 C889 1.377 . S
C889 H873 0.930 . S
C889 C888 1.377 . S
C889 C890 1.379 . S
C890 H874 0.931 . S
C890 C884 1.383 . S
C890 C889 1.379 . S
H891 C885 0.959 . S
H892 C885 0.961 . S
H893 C885 0.960 . S
H894 C886 0.930 . S
H895 C887 0.929 . S
H896 C904 0.929 . S
H897 C906 0.930 . S
H898 C908 0.930 . S
H899 C911 0.929 . S
H900 C914 0.930 . S
H901 C916 0.960 . S
H902 C916 0.960 . S
H903 C916 0.960 . S
C904 H896 0.929 . S
C904 C905 1.377 . S
C904 C906 1.384 . S
C905 C904 1.377 . S
C905 C911 1.390 . S
C906 H897 0.930 . S
C906 C904 1.384 . S
C906 C907 1.372 . S
C907 C906 1.372 . S
C907 C908 1.400 . S
C907 C912 1.490 . S
C908 H898 0.930 . S
C908 C907 1.400 . S
C908 C911 1.386 . S
H909 C925 0.930 . S
H910 C926 0.931 . S
C911 H899 0.929 . S
C911 C905 1.390 . S
C911 C908 1.386 . S
C912 C907 1.490 . S
C912 C914 1.395 . S
C912 C915 1.403 . S
H913 C919 0.930 . S
C914 H900 0.930 . S
C914 C912 1.395 . S
C914 C917 1.403 . S
C915 C912 1.403 . S
C915 C916 1.524 . S
C915 C919 1.400 . S
C916 H901 0.960 . S
C916 H902 0.960 . S
C916 H903 0.960 . S
C916 C915 1.524 . S
C917 C914 1.403 . S
C917 C918 1.392 . S
C917 C921 1.495 . S
C918 C917 1.392 . S
C918 C919 1.385 . S
C918 C920 1.478 . S
C919 H913 0.930 . S
C919 C915 1.400 . S
C919 C918 1.385 . S
C920 C918 1.478 . S
C920 C922 1.381 . S
C920 C926 1.383 . S
C921 C917 1.495 . S
C921 H927 0.959 . S
C921 H928 0.961 . S
C921 H929 0.960 . S
C922 C920 1.381 . S
C922 C923 1.394 . S
C922 H930 0.930 . S
C923 C922 1.394 . S
C923 C924 1.383 . S
C923 H931 0.929 . S
C924 C923 1.383 . S
C924 C925 1.377 . S
C925 H909 0.930 . S
C925 C924 1.377 . S
C925 C926 1.379 . S
C926 H910 0.931 . S
C926 C920 1.383 . S
C926 C925 1.379 . S
H927 C921 0.959 . S
H928 C921 0.961 . S
H929 C921 0.960 . S
H930 C922 0.930 . S
H931 C923 0.929 . S
H932 C940 0.929 . S
H933 C942 0.930 . S
H934 C944 0.930 . S
H935 C947 0.929 . S
H936 C950 0.930 . S
H937 C952 0.960 . S
H938 C952 0.960 . S
H939 C952 0.960 . S
C940 H932 0.929 . S
C940 C941 1.377 . S
C940 C942 1.384 . S
C941 C940 1.377 . S
C941 C947 1.390 . S
C942 H933 0.930 . S
C942 C940 1.384 . S
C942 C943 1.372 . S
C943 C942 1.372 . S
C943 C944 1.400 . S
C943 C948 1.490 . S
C944 H934 0.930 . S
C944 C943 1.400 . S
C944 C947 1.386 . S
H945 C961 0.930 . S
H946 C962 0.931 . S
C947 H935 0.929 . S
C947 C941 1.390 . S
C947 C944 1.386 . S
C948 C943 1.490 . S
C948 C950 1.395 . S
C948 C951 1.403 . S
H949 C955 0.930 . S
C950 H936 0.930 . S
C950 C948 1.395 . S
C950 C953 1.403 . S
C951 C948 1.403 . S
C951 C952 1.524 . S
C951 C955 1.400 . S
C952 H937 0.960 . S
C952 H938 0.960 . S
C952 H939 0.960 . S
C952 C951 1.524 . S
C953 C950 1.403 . S
C953 C954 1.392 . S
C953 C957 1.495 . S
C954 C953 1.392 . S
C954 C955 1.385 . S
C954 C956 1.478 . S
C955 H949 0.930 . S
C955 C951 1.400 . S
C955 C954 1.385 . S
C956 C954 1.478 . S
C956 C958 1.381 . S
C956 C962 1.383 . S
C957 C953 1.495 . S
C957 H963 0.959 . S
C957 H964 0.961 . S
C957 H965 0.960 . S
C958 C956 1.381 . S
C958 C959 1.394 . S
C958 H966 0.930 . S
C959 C958 1.394 . S
C959 C960 1.383 . S
C959 H967 0.929 . S
C960 C959 1.383 . S
C960 C961 1.377 . S
C961 H945 0.930 . S
C961 C960 1.377 . S
C961 C962 1.379 . S
C962 H946 0.931 . S
C962 C956 1.383 . S
C962 C961 1.379 . S
H963 C957 0.959 . S
H964 C957 0.961 . S
H965 C957 0.960 . S
H966 C958 0.930 . S
H967 C959 0.929 . S
H968 C976 0.929 . S
H969 C978 0.930 . S
H970 C980 0.930 . S
H971 C983 0.929 . S
H972 C986 0.941 . S
H973 C988 0.960 . S
H974 C988 0.960 1_455 S
H975 C988 0.960 . S
C976 H968 0.929 . S
C976 C977 1.351 1_455 S
C976 C978 1.384 . S
C977 C976 1.351 1_655 S
C977 C983 1.417 . S
C978 H969 0.930 . S
C978 C976 1.384 . S
C978 C979 1.372 1_455 S
C979 C978 1.372 1_655 S
C979 C980 1.400 . S
C979 C984 1.490 . S
C980 H970 0.930 . S
C980 C979 1.400 . S
C980 C983 1.386 . S
H981 C997 0.930 . S
H982 C998 0.931 . S
C983 H971 0.929 . S
C983 C977 1.417 . S
C983 C980 1.386 . S
C984 C979 1.490 . S
C984 C986 1.388 1_655 S
C984 C987 1.403 . S
H985 C991 0.930 . S
C986 H972 0.941 . S
C986 C984 1.388 1_455 S
C986 C989 1.403 . S
C987 C984 1.403 . S
C987 C988 1.524 . S
C987 C991 1.400 . S
C988 H973 0.960 . S
C988 H974 0.960 1_655 S
C988 H975 0.960 . S
C988 C987 1.524 . S
C989 C986 1.403 . S
C989 C990 1.392 1_455 S
C989 C993 1.495 . S
C990 C989 1.392 1_655 S
C990 C991 1.385 . S
C990 C992 1.478 . S
C991 H985 0.930 . S
C991 C987 1.400 . S
C991 C990 1.385 . S
C992 C990 1.478 . S
C992 C994 1.381 1_655 S
C992 C998 1.383 . S
C993 C989 1.495 . S
C993 H999 0.959 . S
C993 H1000 0.961 1_455 S
C993 H1001 0.960 . S
C994 C992 1.381 1_455 S
C994 C995 1.394 . S
C994 H1002 0.930 . S
C995 C994 1.394 . S
C995 C996 1.383 1_455 S
C995 H1003 0.929 . S
C996 C995 1.383 1_655 S
C996 C997 1.377 . S
C997 H981 0.930 . S
C997 C996 1.377 . S
C997 C998 1.379 . S
C998 H982 0.931 . S
C998 C992 1.383 . S
C998 C997 1.379 . S
H999 C993 0.959 . S
H1000 C993 0.961 1_655 S
H1001 C993 0.960 . S
H1002 C994 0.930 . S
H1003 C995 0.929 . S
H1004 C1012 0.929 . S
H1005 C1014 0.930 . S
H1006 C1016 0.930 . S
H1007 C1019 0.929 . S
H1008 C1022 0.930 . S
H1009 C1024 0.960 . S
H1010 C1024 0.960 . S
H1011 C1024 0.944 1_565 S
C1012 H1004 0.929 . S
C1012 C1013 1.368 1_545 S
C1012 C1014 1.384 . S
C1013 C1012 1.368 1_565 S
C1013 C1019 1.400 . S
C1014 H1005 0.930 . S
C1014 C1012 1.384 . S
C1014 C1015 1.372 1_545 S
C1015 C1014 1.372 1_565 S
C1015 C1016 1.400 . S
C1015 C1020 1.490 . S
C1016 H1006 0.930 . S
C1016 C1015 1.400 . S
C1016 C1019 1.386 . S
H1017 C1033 0.930 . S
H1018 C1034 0.931 . S
C1019 H1007 0.929 . S
C1019 C1013 1.400 . S
C1019 C1016 1.386 . S
C1020 C1015 1.490 . S
C1020 C1022 1.395 . S
C1020 C1023 1.403 1_565 S
H1021 C1027 0.933 . S
C1022 H1008 0.930 . S
C1022 C1020 1.395 . S
C1022 C1025 1.403 . S
C1023 C1020 1.403 1_545 S
C1023 C1024 1.524 . S
C1023 C1027 1.401 . S
C1024 H1009 0.960 . S
C1024 H1010 0.960 . S
C1024 H1011 0.944 1_545 S
C1024 C1023 1.524 . S
C1025 C1022 1.403 . S
C1025 C1026 1.392 . S
C1025 C1029 1.495 . S
C1026 C1025 1.392 . S
C1026 C1027 1.382 1_565 S
C1026 C1028 1.478 . S
C1027 H1021 0.933 . S
C1027 C1023 1.401 . S
C1027 C1026 1.382 1_545 S
C1028 C1026 1.478 . S
C1028 C1030 1.381 1_565 S
C1028 C1034 1.383 . S
C1029 C1025 1.495 . S
C1029 H1035 0.959 . S
C1029 H1036 0.961 . S
C1029 H1037 0.960 . S
C1030 C1028 1.381 1_545 S
C1030 C1031 1.394 . S
C1030 H1038 0.930 . S
C1031 C1030 1.394 . S
C1031 C1032 1.383 1_545 S
C1031 H1039 0.929 . S
C1032 C1031 1.383 1_565 S
C1032 C1033 1.377 . S
C1033 H1017 0.930 . S
C1033 C1032 1.377 . S
C1033 C1034 1.379 . S
C1034 H1018 0.931 . S
C1034 C1028 1.383 . S
C1034 C1033 1.379 . S
H1035 C1029 0.959 . S
H1036 C1029 0.961 . S
H1037 C1029 0.960 . S
H1038 C1030 0.930 . S
H1039 C1031 0.929 . S
H1040 C1048 0.929 . S
H1041 C1050 0.930 . S
H1042 C1052 0.930 . S
H1043 C1055 0.929 . S
H1044 C1058 0.930 . S
H1045 C1060 0.960 . S
H1046 C1060 0.960 . S
H1047 C1060 0.960 . S
C1048 H1040 0.929 . S
C1048 C1049 1.377 . S
C1048 C1050 1.384 . S
C1049 C1048 1.377 . S
C1049 C1055 1.390 . S
C1050 H1041 0.930 . S
C1050 C1048 1.384 . S
C1050 C1051 1.372 . S
C1051 C1050 1.372 . S
C1051 C1052 1.400 . S
C1051 C1056 1.490 . S
C1052 H1042 0.930 . S
C1052 C1051 1.400 . S
C1052 C1055 1.386 . S
H1053 C1069 0.930 . S
H1054 C1070 0.931 . S
C1055 H1043 0.929 . S
C1055 C1049 1.390 . S
C1055 C1052 1.386 . S
C1056 C1051 1.490 . S
C1056 C1058 1.395 . S
C1056 C1059 1.403 . S
H1057 C1063 0.930 . S
C1058 H1044 0.930 . S
C1058 C1056 1.395 . S
C1058 C1061 1.403 . S
C1059 C1056 1.403 . S
C1059 C1060 1.524 . S
C1059 C1063 1.400 . S
C1060 H1045 0.960 . S
C1060 H1046 0.960 . S
C1060 H1047 0.960 . S
C1060 C1059 1.524 . S
C1061 C1058 1.403 . S
C1061 C1062 1.392 . S
C1061 C1065 1.495 . S
C1062 C1061 1.392 . S
C1062 C1063 1.385 . S
C1062 C1064 1.478 . S
C1063 H1057 0.930 . S
C1063 C1059 1.400 . S
C1063 C1062 1.385 . S
C1064 C1062 1.478 . S
C1064 C1066 1.381 . S
C1064 C1070 1.383 . S
C1065 C1061 1.495 . S
C1065 H1071 0.959 . S
C1065 H1072 0.961 . S
C1065 H1073 0.960 . S
C1066 C1064 1.381 . S
C1066 C1067 1.394 . S
C1066 H1074 0.930 . S
C1067 C1066 1.394 . S
C1067 C1068 1.383 . S
C1067 H1075 0.929 . S
C1068 C1067 1.383 . S
C1068 C1069 1.377 . S
C1069 H1053 0.930 . S
C1069 C1068 1.377 . S
C1069 C1070 1.379 . S
C1070 H1054 0.931 . S
C1070 C1064 1.383 . S
C1070 C1069 1.379 . S
H1071 C1065 0.959 . S
H1072 C1065 0.961 . S
H1073 C1065 0.960 . S
H1074 C1066 0.930 . S
H1075 C1067 0.929 . S
H1076 C1084 0.929 . S
H1077 C1086 0.930 . S
H1078 C1088 0.930 . S
H1079 C1091 0.929 . S
H1080 C1094 0.930 . S
H1081 C1096 0.960 . S
H1082 C1096 0.960 . S
H1083 C1096 0.960 . S
C1084 H1076 0.929 . S
C1084 C1085 1.377 . S
C1084 C1086 1.384 . S
C1085 C1084 1.377 . S
C1085 C1091 1.390 . S
C1086 H1077 0.930 . S
C1086 C1084 1.384 . S
C1086 C1087 1.372 . S
C1087 C1086 1.372 . S
C1087 C1088 1.400 . S
C1087 C1092 1.490 . S
C1088 H1078 0.930 . S
C1088 C1087 1.400 . S
C1088 C1091 1.386 . S
H1089 C1105 0.930 . S
H1090 C1106 0.931 . S
C1091 H1079 0.929 . S
C1091 C1085 1.390 . S
C1091 C1088 1.386 . S
C1092 C1087 1.490 . S
C1092 C1094 1.395 . S
C1092 C1095 1.403 . S
H1093 C1099 0.930 . S
C1094 H1080 0.930 . S
C1094 C1092 1.395 . S
C1094 C1097 1.403 . S
C1095 C1092 1.403 . S
C1095 C1096 1.524 . S
C1095 C1099 1.400 . S
C1096 H1081 0.960 . S
C1096 H1082 0.960 . S
C1096 H1083 0.960 . S
C1096 C1095 1.524 . S
C1097 C1094 1.403 . S
C1097 C1098 1.392 . S
C1097 C1101 1.495 . S
C1098 C1097 1.392 . S
C1098 C1099 1.385 . S
C1098 C1100 1.478 . S
C1099 H1093 0.930 . S
C1099 C1095 1.400 . S
C1099 C1098 1.385 . S
C1100 C1098 1.478 . S
C1100 C1102 1.381 . S
C1100 C1106 1.383 . S
C1101 C1097 1.495 . S
C1101 H1107 0.959 . S
C1101 H1108 0.961 . S
C1101 H1109 0.960 . S
C1102 C1100 1.381 . S
C1102 C1103 1.394 . S
C1102 H1110 0.930 . S
C1103 C1102 1.394 . S
C1103 C1104 1.383 . S
C1103 H1111 0.929 . S
C1104 C1103 1.383 . S
C1104 C1105 1.377 . S
C1105 H1089 0.930 . S
C1105 C1104 1.377 . S
C1105 C1106 1.379 . S
C1106 H1090 0.931 . S
C1106 C1100 1.383 . S
C1106 C1105 1.379 . S
H1107 C1101 0.959 . S
H1108 C1101 0.961 . S
H1109 C1101 0.960 . S
H1110 C1102 0.930 . S
H1111 C1103 0.929 . S
C257 C74 1.679 1_565 S
C276 C97 1.711 . S
C312 C137 1.742 . S
C293 C85 1.665 . S
C348 C177 1.743 . S
C329 C52 1.672 . S
C384 C217 1.717 . S
C365 C63 1.679 . S
C420 C106 1.734 1_565 S
C401 C30 1.676 . S
C437 C41 1.682 . S
C456 C146 1.735 . S
C473 C8 1.683 . S
C492 C186 1.731 . S
C509 C19 1.675 1_655 S
C528 C226 1.717 1_655 S
C564 C103 0.403 . S
C545 C62 0.457 . S
C600 C143 0.441 . S
C581 C73 0.456 . S
C636 C183 0.427 . S
C617 C84 0.447 . S
C653 C51 0.441 . S
C672 C223 0.437 . S
C689 C18 0.463 1_655 S
C708 C94 0.477 . S
C744 C134 0.437 . S
C725 C29 0.461 1_565 S
C780 C174 0.491 . S
C761 C40 0.495 . S
C797 C7 0.496 . S
C816 C214 0.494 . S
C833 C60 1.577 . S
C852 C107 2.018 . S
C869 C71 1.601 . S
C888 C147 2.038 . S
C924 C187 2.010 . S
C905 C82 1.566 . S
C960 C227 2.016 . S
C941 C49 1.563 . S
C977 C16 1.608 1_655 S
C996 C98 2.039 . S
C1032 C138 2.030 . S
C1013 C27 1.599 1_565 S
C1068 C178 2.008 . S
C1049 C38 1.625 . S
C1085 C5 1.631 . S
C1104 C218 2.028 . S
