# Generated by pormake.
# Topology rtl, (3,6)-cn, num edge types: 1
# Building blocks:
#     Node 0, Type 0, BuildingBlock: WUSLED_clean_sbu_0, # of connection points: 3
#     Node 1, Type 0, BuildingBlock: WUSLED_clean_sbu_0, # of connection points: 3
#     Node 2, Type 0, BuildingBlock: WUSLED_clean_sbu_0, # of connection points: 3
#     Node 3, Type 0, BuildingBlock: WUSLED_clean_sbu_0, # of connection points: 3
#     Node 4, Type 1, BuildingBlock: VOLQOD_clean_sbu_1, # of connection points: 6
#     Node 5, Type 1, BuildingBlock: VOLQOD_clean_sbu_1, # of connection points: 6
#     Edge 6, Type (0, 1), BuildingBlock: XIVTED_clean_linker_0, # of connection points: 2
#     Edge 7, Type (0, 1), BuildingBlock: XIVTED_clean_linker_0, # of connection points: 2
#     Edge 8, Type (0, 1), BuildingBlock: XIVTED_clean_linker_0, # of connection points: 2
#     Edge 9, Type (0, 1), BuildingBlock: XIVTED_clean_linker_0, # of connection points: 2
#     Edge 10, Type (0, 1), BuildingBlock: XIVTED_clean_linker_0, # of connection points: 2
#     Edge 11, Type (0, 1), BuildingBlock: XIVTED_clean_linker_0, # of connection points: 2
#     Edge 12, Type (0, 1), BuildingBlock: XIVTED_clean_linker_0, # of connection points: 2
#     Edge 13, Type (0, 1), BuildingBlock: XIVTED_clean_linker_0, # of connection points: 2
#     Edge 14, Type (0, 1), BuildingBlock: XIVTED_clean_linker_0, # of connection points: 2
#     Edge 15, Type (0, 1), BuildingBlock: XIVTED_clean_linker_0, # of connection points: 2
#     Edge 16, Type (0, 1), BuildingBlock: XIVTED_clean_linker_0, # of connection points: 2
#     Edge 17, Type (0, 1), BuildingBlock: XIVTED_clean_linker_0, # of connection points: 2
# Relax obj value: 0.076
# Max RMSD: 0.155
# Mean RMSD: 0.086
data_MOF--net-rtl--node1-WUSLED_clean_sbu_0--node2-VOLQOD_clean_sbu_1--edge1-XIVTED_clean_linker_0
_symmetry_space_group_name_H-M    P1
_symmetry_Int_Tables_number       1
_symmetry_cell_setting            triclinic
loop_
_symmetry_equiv_pos_as_xyz
'x, y, z'
_cell_length_a     48.186345
_cell_length_b     41.91278
_cell_length_c     30.993046
_cell_angle_alpha  90.415307
_cell_angle_beta   90.66564
_cell_angle_gamma 90.042871
loop_
_atom_site_label
_atom_site_type_symbol
_atom_site_fract_x
_atom_site_fract_y
_atom_site_fract_z
_atom_type_partial_charge
C0 C 0.13549 0.77167 0.14499 0.0
C1 C 0.11472 0.79357 0.13358 0.0
C2 C 0.10947 0.80878 0.20893 0.0
C3 C 0.10184 0.81197 0.16525 0.0
C4 C 0.12977 0.78611 0.22033 0.0
C5 C 0.14275 0.76775 0.18851 0.0
U6 U 0.14634 0.75676 0.02688 0.0
O7 O 0.18421 0.75501 0.98836 0.0
O8 O 0.15652 0.71337 0.98973 0.0
C9 C 0.18044 0.72499 0.9772 0.0
C10 C 0.15058 0.75452 0.11116 0.0
C11 C 0.20464 0.70418 0.98334 0.0
C12 C 0.2447 0.68709 0.02545 0.0
C13 C 0.22054 0.70537 0.02154 0.0
C14 C 0.23668 0.66543 0.95366 0.0
C15 C 0.25328 0.66724 0.99128 0.0
C16 C 0.21263 0.68381 0.94973 0.0
C17 C 0.10091 0.80291 0.94766 0.0
C18 C 0.11421 0.81565 0.87444 0.0
C19 C 0.06692 0.82454 0.89744 0.0
C20 C 0.07376 0.81286 0.93834 0.0
C21 C 0.08724 0.82668 0.86539 0.0
C22 C 0.12096 0.80368 0.91518 0.0
C23 C 0.1084 0.79348 0.99185 0.0
O24 O 0.13575 0.73398 0.08835 0.0
O25 O 0.16622 0.77287 0.08731 0.0
O26 O 0.13255 0.80407 0.00595 0.0
O27 O 0.10376 0.7635 0.00166 0.0
H28 H 0.10888 0.79687 0.10003 0.0
H29 H 0.08601 0.82887 0.1555 0.0
H30 H 0.13624 0.78329 0.25367 0.0
H31 H 0.15885 0.75104 0.19778 0.0
H32 H 0.25708 0.68929 0.0547 0.0
H33 H 0.21461 0.72095 0.0479 0.0
H34 H 0.24236 0.64994 0.92708 0.0
H35 H 0.20048 0.68248 0.92013 0.0
H36 H 0.13018 0.81669 0.85017 0.0
H37 H 0.04603 0.8331 0.89146 0.0
H38 H 0.05804 0.81238 0.96304 0.0
H39 H 0.142 0.7958 0.92165 0.0
C40 C 0.64826 0.73681 0.64895 0.0
C41 C 0.61928 0.73325 0.64927 0.0
C42 C 0.6223 0.70412 0.71694 0.0
C43 C 0.60644 0.71729 0.68305 0.0
C44 C 0.65131 0.70817 0.71674 0.0
C45 C 0.66412 0.72443 0.68311 0.0
U46 U 0.6551 0.74815 0.52835 0.0
O47 O 0.66441 0.7909 0.49018 0.0
O48 O 0.69183 0.74916 0.48714 0.0
C49 C 0.68815 0.77924 0.4768 0.0
C50 C 0.66231 0.75169 0.6122 0.0
C51 C 0.71241 0.79996 0.48383 0.0
C52 C 0.7512 0.81776 0.5286 0.0
C53 C 0.72756 0.79883 0.52273 0.0
C54 C 0.74429 0.83998 0.45729 0.0
C55 C 0.75994 0.83837 0.49582 0.0
C56 C 0.72075 0.82083 0.45132 0.0
C57 C 0.60485 0.70168 0.45469 0.0
C58 C 0.60958 0.6986 0.37683 0.0
C59 C 0.57232 0.67023 0.41185 0.0
C60 C 0.5815 0.68187 0.45186 0.0
C61 C 0.58637 0.67822 0.37385 0.0
C62 C 0.61874 0.71026 0.41698 0.0
C63 C 0.61515 0.71172 0.4974 0.0
O64 O 0.6762 0.73184 0.58758 0.0
O65 O 0.64771 0.77263 0.59013 0.0
O66 O 0.61155 0.74194 0.50752 0.0
O67 O 0.63992 0.70098 0.50787 0.0
H68 H 0.60654 0.74242 0.62314 0.0
H69 H 0.58404 0.71515 0.68244 0.0
H70 H 0.66425 0.69799 0.74189 0.0
H71 H 0.68653 0.72671 0.68328 0.0
H72 H 0.76262 0.81633 0.55883 0.0
H73 H 0.72124 0.78307 0.5484 0.0
H74 H 0.75064 0.85545 0.43135 0.0
H75 H 0.70923 0.82205 0.42115 0.0
H76 H 0.62068 0.70548 0.34817 0.0
H77 H 0.55468 0.65422 0.41088 0.0
H78 H 0.57067 0.67487 0.48074 0.0
H79 H 0.63686 0.72557 0.41869 0.0
C80 C 0.86077 0.23499 0.14609 0.0
C81 C 0.88942 0.22932 0.14359 0.0
C82 C 0.88872 0.20175 0.21251 0.0
C83 C 0.90329 0.21306 0.1766 0.0
C84 C 0.86004 0.20784 0.21501 0.0
C85 C 0.84624 0.22436 0.18213 0.0
U86 U 0.85179 0.24805 0.02631 0.0
O87 O 0.81456 0.24784 0.98481 0.0
O88 O 0.84057 0.29081 0.98906 0.0
C89 C 0.81711 0.27819 0.97516 0.0
C90 C 0.84557 0.24999 0.11014 0.0
C91 C 0.79223 0.29776 0.98208 0.0
C92 C 0.75241 0.3125 0.02523 0.0
C93 C 0.77638 0.29429 0.01948 0.0
C94 C 0.76029 0.33853 0.95687 0.0
C95 C 0.74404 0.33473 0.9939 0.0
C96 C 0.78415 0.3201 0.95098 0.0
C97 C 0.90288 0.205 0.95221 0.0
C98 C 0.89742 0.20246 0.87426 0.0
C99 C 0.93602 0.17558 0.90921 0.0
C100 C 0.92689 0.18639 0.9493 0.0
C101 C 0.92126 0.1832 0.87121 0.0
C102 C 0.8883 0.21329 0.9145 0.0
C103 C 0.89265 0.21401 0.99496 0.0
O104 O 0.85918 0.27193 0.0888 0.0
O105 O 0.83195 0.22997 0.08487 0.0
O106 O 0.8684 0.20193 0.00484 0.0
O107 O 0.89528 0.24425 0.0058 0.0
H108 H 0.90105 0.23706 0.11584 0.0
H109 H 0.92542 0.20926 0.17384 0.0
H110 H 0.84803 0.19907 0.24175 0.0
H111 H 0.82406 0.22821 0.18438 0.0
H112 H 0.74051 0.30936 0.05434 0.0
H113 H 0.78248 0.27738 0.04411 0.0
H114 H 0.75424 0.35528 0.93203 0.0
H115 H 0.79619 0.32314 0.92198 0.0
H116 H 0.88575 0.20903 0.8456 0.0
H117 H 0.95418 0.1604 0.90817 0.0
H118 H 0.93826 0.17964 0.97818 0.0
H119 H 0.86967 0.22769 0.91629 0.0
C120 C 0.35946 0.27587 0.3826 0.0
C121 C 0.35098 0.30729 0.37384 0.0
C122 C 0.38511 0.3115 0.31691 0.0
C123 C 0.36366 0.32486 0.34149 0.0
C124 C 0.3929 0.27967 0.32443 0.0
C125 C 0.38017 0.26202 0.35692 0.0
U126 U 0.35563 0.26019 0.50275 0.0
O127 O 0.31976 0.2561 0.54546 0.0
O128 O 0.34921 0.21635 0.54 0.0
C129 C 0.3253 0.2263 0.55513 0.0
C130 C 0.34736 0.25802 0.41904 0.0
C131 C 0.30179 0.20427 0.54974 0.0
C132 C 0.27105 0.17238 0.50408 0.0
C133 C 0.29449 0.19187 0.50899 0.0
C134 C 0.26211 0.17754 0.5806 0.0
C135 C 0.25445 0.16514 0.53981 0.0
C136 C 0.28556 0.19689 0.58546 0.0
C137 C 0.40405 0.3108 0.57503 0.0
C138 C 0.40136 0.31317 0.65324 0.0
C139 C 0.43352 0.34736 0.61562 0.0
C140 C 0.42483 0.33413 0.57629 0.0
C141 C 0.42153 0.33748 0.65447 0.0
C142 C 0.39258 0.29999 0.6137 0.0
C143 C 0.39354 0.29972 0.53291 0.0
O144 O 0.36411 0.23823 0.43936 0.0
O145 O 0.33185 0.27478 0.44544 0.0
O146 O 0.36799 0.30836 0.52352 0.0
O147 O 0.39889 0.2699 0.52255 0.0
H148 H 0.33479 0.31865 0.39239 0.0
H149 H 0.3567 0.34905 0.33586 0.0
H150 H 0.40938 0.26869 0.30608 0.0
H151 H 0.38693 0.23774 0.36252 0.0
H152 H 0.26596 0.16298 0.47232 0.0
H153 H 0.30674 0.19754 0.48097 0.0
H154 H 0.24958 0.17299 0.60868 0.0
H155 H 0.29077 0.20655 0.61706 0.0
H156 H 0.39164 0.30523 0.68262 0.0
H157 H 0.44939 0.36567 0.61558 0.0
H158 H 0.43392 0.34268 0.54671 0.0
H159 H 0.37641 0.28202 0.61317 0.0
O160 O 0.93679 0.99481 0.52185 0.0
Zn161 Zn 0.96754 0.0277 0.52406 0.0
O162 O 0.0042 0.00749 0.52144 0.0
Zn163 Zn 0.02614 0.02014 0.57195 0.0
Zn164 Zn 0.99981 0.96101 0.52134 0.0
Zn165 Zn 0.02349 0.02107 0.46919 0.0
O166 O 0.06177 0.04102 0.55518 0.0
O167 O 0.05977 0.04363 0.48373 0.0
O168 O 0.96345 0.05422 0.57839 0.0
O169 O 0.00511 0.05088 0.60935 0.0
O170 O 0.03594 0.98243 0.60865 0.0
O171 O 0.01647 0.94114 0.57481 0.0
O172 O 0.01816 0.94128 0.46948 0.0
O173 O 0.96171 0.05683 0.47344 0.0
O174 O 0.0329 0.9829 0.43209 0.0
O175 O 0.99958 0.05103 0.43395 0.0
C176 C 0.93684 0.96443 0.5199 0.0
C177 C 0.07233 0.04913 0.51945 0.0
C178 C 0.0305 0.95275 0.60625 0.0
C179 C 0.98043 0.06173 0.60861 0.0
C180 C 0.03001 0.95288 0.43656 0.0
C181 C 0.97578 0.06339 0.44012 0.0
O182 O 0.95947 0.94876 0.51934 0.0
O183 O 0.56902 0.49226 0.01997 0.0
Zn184 Zn 0.53967 0.52654 0.02125 0.0
O185 O 0.50252 0.5075 0.01554 0.0
Zn186 Zn 0.48441 0.52384 0.96367 0.0
Zn187 Zn 0.50507 0.46065 0.01154 0.0
Zn188 Zn 0.48041 0.5195 0.06551 0.0
O189 O 0.44868 0.54632 0.97721 0.0
O190 O 0.44518 0.54234 0.04825 0.0
O191 O 0.54751 0.55671 0.97216 0.0
O192 O 0.509 0.55439 0.93233 0.0
O193 O 0.47523 0.4883 0.92248 0.0
O194 O 0.48842 0.44383 0.95524 0.0
O195 O 0.48538 0.43946 0.06122 0.0
O196 O 0.54383 0.55161 0.07707 0.0
O197 O 0.46963 0.48072 0.09902 0.0
O198 O 0.50195 0.5483 0.10582 0.0
C199 C 0.56823 0.46193 0.01686 0.0
C200 C 0.43558 0.55154 0.01197 0.0
C201 C 0.47763 0.45807 0.92294 0.0
C202 C 0.53335 0.56519 0.93922 0.0
C203 C 0.4726 0.45076 0.0937 0.0
C204 C 0.52682 0.5586 0.10687 0.0
O205 O 0.54524 0.44696 0.01369 0.0
H206 H 0.23431 0.11984 0.59477 0.0
H207 H 0.09869 0.07953 0.45292 0.0
H208 H 0.21617 0.16541 0.47316 0.0
H209 H 0.10887 0.0546 0.58713 0.0
H210 H 0.14408 0.10603 0.45577 0.0
H211 H 0.19076 0.09045 0.58833 0.0
C212 C 0.22117 0.12376 0.56673 0.0
C213 C 0.22888 0.14545 0.53469 0.0
C214 C 0.13632 0.09471 0.48452 0.0
C215 C 0.179 0.11141 0.52684 0.0
C216 C 0.11046 0.07953 0.48291 0.0
C217 C 0.09985 0.06493 0.5199 0.0
C218 C 0.15179 0.09497 0.52324 0.0
C219 C 0.11605 0.0657 0.55787 0.0
C220 C 0.19632 0.10684 0.56299 0.0
C221 C 0.21124 0.14881 0.49853 0.0
N222 N 0.14116 0.0804 0.55851 0.0
N223 N 0.18709 0.13207 0.49565 0.0
H224 H 0.29153 0.65793 0.92772 0.0
H225 H 0.39956 0.564 0.0781 0.0
H226 H 0.27607 0.63631 0.06132 0.0
H227 H 0.4099 0.5775 0.9412 0.0
H228 H 0.35496 0.59164 0.07348 0.0
H229 H 0.33543 0.62938 0.93281 0.0
C230 C 0.29721 0.64692 0.95807 0.0
C231 C 0.27992 0.64944 0.9941 0.0
C232 C 0.367 0.58852 0.04447 0.0
C233 C 0.33063 0.61709 0.00035 0.0
C234 C 0.39251 0.57278 0.04708 0.0
C235 C 0.40858 0.5684 0.00998 0.0
C236 C 0.35751 0.60007 0.00452 0.0
C237 C 0.39829 0.58027 0.97067 0.0
C238 C 0.32243 0.63078 0.96102 0.0
C239 C 0.28881 0.63528 0.03282 0.0
N240 N 0.37347 0.59557 0.96902 0.0
N241 N 0.31355 0.61973 0.03493 0.0
H242 H 0.80999 0.8186 0.52819 0.0
H243 H 0.8844 0.98838 0.50637 0.0
H244 H 0.76871 0.90127 0.47577 0.0
H245 H 0.92846 0.90026 0.52888 0.0
H246 H 0.84087 0.95828 0.50186 0.0
H247 H 0.85265 0.84974 0.53586 0.0
C248 C 0.80986 0.8434 0.51859 0.0
C249 C 0.78576 0.85737 0.50133 0.0
C250 C 0.86009 0.94559 0.50779 0.0
C251 C 0.83461 0.89314 0.50976 0.0
C252 C 0.88494 0.96275 0.51051 0.0
C253 C 0.91017 0.94683 0.5179 0.0
C254 C 0.86044 0.91232 0.51293 0.0
C255 C 0.90957 0.91356 0.52292 0.0
C256 C 0.83427 0.86111 0.5227 0.0
C257 C 0.7869 0.88949 0.48886 0.0
N258 N 0.88513 0.89746 0.52043 0.0
N259 N 0.81091 0.90633 0.49341 0.0
H260 H 0.6934 0.31358 0.0208 0.0
H261 H 0.62117 0.48523 0.00967 0.0
H262 H 0.73588 0.39855 0.97963 0.0
H263 H 0.57545 0.39714 0.02167 0.0
H264 H 0.66422 0.45461 0.00582 0.0
H265 H 0.65081 0.34469 0.02864 0.0
C266 C 0.6938 0.33884 0.01369 0.0
C267 C 0.71821 0.35351 0.99949 0.0
C268 C 0.64476 0.44201 0.00933 0.0
C269 C 0.66952 0.38921 0.00821 0.0
C270 C 0.62015 0.45947 0.01169 0.0
C271 C 0.59458 0.44375 0.01588 0.0
C272 C 0.64387 0.40857 0.01155 0.0
C273 C 0.59462 0.41029 0.01824 0.0
C274 C 0.66945 0.35653 0.01791 0.0
C275 C 0.71745 0.38623 0.99023 0.0
N276 N 0.61887 0.39384 0.01609 0.0
N277 N 0.69352 0.40301 0.99484 0.0
H278 H 0.09975 0.87288 0.20376 0.0
H279 H 0.03253 0.88745 0.43801 0.0
H280 H 0.09118 0.79302 0.2897 0.0
H281 H 0.05243 0.96837 0.35856 0.0
H282 H 0.0513 0.85202 0.3826 0.0
H283 H 0.07965 0.90767 0.25855 0.0
C284 C 0.09344 0.86261 0.23408 0.0
C285 C 0.09706 0.82995 0.2421 0.0
C286 C 0.05155 0.87753 0.37733 0.0
C287 C 0.07425 0.86978 0.30527 0.0
C288 C 0.04078 0.8978 0.40892 0.0
C289 C 0.04092 0.93101 0.40303 0.0
C290 C 0.06242 0.89049 0.33944 0.0
C291 C 0.05193 0.94298 0.36463 0.0
C292 C 0.08213 0.88254 0.26548 0.0
C293 C 0.08896 0.81809 0.2823 0.0
N294 N 0.06219 0.92274 0.33434 0.0
N295 N 0.07787 0.83799 0.31236 0.0
H296 H 0.63561 0.70173 0.80363 0.0
H297 H 0.51256 0.58153 0.85991 0.0
H298 H 0.57808 0.6631 0.70891 0.0
H299 H 0.58202 0.59928 0.94612 0.0
H300 H 0.53355 0.61656 0.80698 0.0
H301 H 0.61375 0.66899 0.85875 0.0
C302 C 0.61847 0.68636 0.7943 0.0
C303 C 0.60874 0.68526 0.75138 0.0
C304 C 0.5442 0.61282 0.83749 0.0
C305 C 0.58336 0.64812 0.81459 0.0
C306 C 0.53218 0.59288 0.86785 0.0
C307 C 0.54558 0.58731 0.90756 0.0
C308 C 0.56974 0.62758 0.84687 0.0
C309 C 0.571 0.60274 0.91588 0.0
C310 C 0.60593 0.66779 0.82588 0.0
C311 C 0.58607 0.66526 0.74157 0.0
N312 N 0.58226 0.6222 0.88579 0.0
N313 N 0.57419 0.64754 0.77288 0.0
H314 H 0.93018 0.1574 0.20238 0.0
H315 H 0.93019 0.1019 0.44788 0.0
H316 H 0.88014 0.20245 0.30018 0.0
H317 H 0.99421 0.07514 0.35827 0.0
H318 H 0.91007 0.13691 0.39324 0.0
H319 H 0.95267 0.12546 0.25817 0.0
C320 C 0.92408 0.16089 0.2356 0.0
C321 C 0.90316 0.18278 0.24644 0.0
C322 C 0.92859 0.12349 0.3856 0.0
C323 C 0.92853 0.14561 0.31048 0.0
C324 C 0.94006 0.1034 0.41674 0.0
C325 C 0.96392 0.08545 0.40765 0.0
C326 C 0.94085 0.12545 0.34484 0.0
C327 C 0.97584 0.08853 0.36675 0.0
C328 C 0.93686 0.14246 0.26743 0.0
C329 C 0.8958 0.18559 0.29006 0.0
N330 N 0.96408 0.10798 0.33678 0.0
N331 N 0.90838 0.16713 0.3204 0.0
H332 H 0.43246 0.31113 0.7341 0.0
H333 H 0.45681 0.48134 0.84721 0.0
H334 H 0.42733 0.40139 0.66844 0.0
H335 H 0.47675 0.39274 0.91078 0.0
H336 H 0.44234 0.45147 0.78341 0.0
H337 H 0.44522 0.33967 0.80101 0.0
C338 C 0.43394 0.33691 0.73381 0.0
C339 C 0.42906 0.3539 0.69557 0.0
C340 C 0.44987 0.43846 0.81125 0.0
C341 C 0.44353 0.38658 0.7717 0.0
C342 C 0.45811 0.45554 0.84788 0.0
C343 C 0.46814 0.43958 0.88454 0.0
C344 C 0.4515 0.40503 0.81099 0.0
C345 C 0.46924 0.40607 0.88324 0.0
C346 C 0.44133 0.35314 0.77188 0.0
C347 C 0.43137 0.38727 0.69693 0.0
N348 N 0.46103 0.38987 0.84701 0.0
N349 N 0.43839 0.40245 0.73428 0.0
H350 H 0.53324 0.66911 0.34345 0.0
H351 H 0.57944 0.58032 0.12608 0.0
H352 H 0.61883 0.65535 0.30819 0.0
H353 H 0.49521 0.583 0.17207 0.0
H354 H 0.59406 0.61226 0.18875 0.0
H355 H 0.51877 0.64218 0.27685 0.0
C356 C 0.54901 0.66044 0.3217 0.0
C357 C 0.57732 0.66428 0.33171 0.0
C358 C 0.57237 0.60591 0.18501 0.0
C359 C 0.56084 0.63357 0.25502 0.0
C360 C 0.564 0.58769 0.1492 0.0
C361 C 0.53606 0.57877 0.14384 0.0
C362 C 0.55267 0.61541 0.21558 0.0
C363 C 0.51699 0.5891 0.1749 0.0
C364 C 0.54072 0.64515 0.28356 0.0
C365 C 0.59679 0.65315 0.30174 0.0
N366 N 0.52565 0.60679 0.20938 0.0
N367 N 0.58819 0.63815 0.26488 0.0
H368 H 0.97424 0.17655 0.84098 0.0
H369 H 0.92786 0.08375 0.62511 0.0
H370 H 0.88865 0.15914 0.80534 0.0
H371 H 0.01226 0.08817 0.67327 0.0
H372 H 0.91331 0.11687 0.68614 0.0
H373 H 0.98866 0.14984 0.77472 0.0
C374 C 0.95845 0.16717 0.81919 0.0
C375 C 0.93018 0.16983 0.82904 0.0
C376 C 0.93502 0.11066 0.6832 0.0
C377 C 0.94658 0.13937 0.7528 0.0
C378 C 0.94336 0.0918 0.64834 0.0
C379 C 0.97132 0.08294 0.64416 0.0
C380 C 0.95478 0.1209 0.71398 0.0
C381 C 0.99046 0.09416 0.67527 0.0
C382 C 0.96671 0.152 0.78127 0.0
C383 C 0.91067 0.15783 0.79902 0.0
N384 N 0.98182 0.11246 0.70884 0.0
N385 N 0.91923 0.14294 0.7624 0.0
H386 H 0.40122 0.37381 0.32471 0.0
H387 H 0.46756 0.38532 0.0897 0.0
H388 H 0.40256 0.29419 0.23563 0.0
H389 H 0.45115 0.46644 0.17223 0.0
H390 H 0.44758 0.35034 0.14433 0.0
H391 H 0.42342 0.40683 0.27081 0.0
C392 C 0.40603 0.36329 0.29366 0.0
C393 C 0.39966 0.33124 0.28453 0.0
C394 C 0.4484 0.3758 0.15037 0.0
C395 C 0.42554 0.36899 0.22259 0.0
C396 C 0.45984 0.39578 0.11927 0.0
C397 C 0.46097 0.42892 0.12627 0.0
C398 C 0.43824 0.38905 0.18885 0.0
C399 C 0.45062 0.44111 0.16521 0.0
C400 C 0.41885 0.38216 0.26292 0.0
C401 C 0.40716 0.31874 0.24411 0.0
N402 N 0.43975 0.4212 0.19493 0.0
N403 N 0.41962 0.33768 0.21453 0.0
H404 H 0.11786 0.87172 0.82431 0.0
H405 H 0.01205 0.89268 0.62602 0.0
H406 H 0.04183 0.81778 0.81233 0.0
H407 H 0.07112 0.96476 0.6664 0.0
H408 H 0.02721 0.85949 0.68671 0.0
H409 H 0.10559 0.90032 0.75836 0.0
C410 C 0.09874 0.86561 0.80745 0.0
C411 C 0.08079 0.84239 0.82379 0.0
C412 C 0.03686 0.88254 0.68208 0.0
C413 C 0.06656 0.87516 0.74853 0.0
C414 C 0.02833 0.90143 0.64742 0.0
C415 C 0.04024 0.93162 0.64129 0.0
C416 C 0.05771 0.89375 0.71036 0.0
C417 C 0.06121 0.94177 0.67008 0.0
C418 C 0.09166 0.88211 0.77003 0.0
C419 C 0.0561 0.83573 0.80097 0.0
N420 N 0.06929 0.92286 0.7033 0.0
N421 N 0.04969 0.85205 0.76442 0.0
loop_
_geom_bond_atom_site_label_1
_geom_bond_atom_site_label_2
_geom_bond_distance
_geom_bond_site_symmetry_2
_ccdc_geom_bond_type
C0 C1 1.264 . S
C0 C5 1.479 . S
C0 C10 1.465 . S
C1 C0 1.264 . S
C1 C3 1.339 . S
C1 H28 0.931 . S
C2 C3 1.395 . S
C2 C4 1.320 . S
C3 C1 1.339 . S
C3 C2 1.395 . S
C3 H29 0.929 . S
C4 C2 1.320 . S
C4 C5 1.405 . S
C4 H30 0.930 . S
C5 C0 1.479 . S
C5 C4 1.405 . S
C5 H31 0.931 . S
U6 O7 2.454 . S
U6 O8 2.458 1_554 S
U6 C9 2.984 . S
U6 C10 2.847 . S
U6 C23 2.882 1_554 S
U6 O24 2.441 . S
U6 O25 2.420 . S
U6 O26 2.455 1_554 S
U6 O27 2.449 1_554 S
O7 U6 2.454 . S
O7 C9 1.353 . S
O8 U6 2.458 1_556 S
O8 C9 1.286 1_556 S
C9 U6 2.984 . S
C9 O7 1.353 . S
C9 O8 1.286 1_554 S
C9 C11 1.363 . S
C10 C0 1.465 . S
C10 U6 2.847 . S
C10 O24 1.249 . S
C10 O25 1.202 . S
C11 C9 1.363 . S
C11 C13 1.408 . S
C11 C16 1.342 1_554 S
C12 C13 1.310 . S
C12 C15 1.461 . S
C12 H32 0.932 . S
C13 C11 1.408 . S
C13 C12 1.310 . S
C13 H33 0.930 . S
C14 C15 1.474 1_556 S
C14 C16 1.285 . S
C14 H34 0.929 . S
C15 C12 1.461 . S
C15 C14 1.474 1_554 S
C16 C11 1.342 1_556 S
C16 C14 1.285 . S
C16 H35 0.930 . S
C17 C20 1.424 . S
C17 C22 1.245 . S
C17 C23 1.428 . S
C18 C21 1.260 . S
C18 C22 1.477 . S
C18 H36 0.932 . S
C19 C20 1.384 . S
C19 C21 1.479 . S
C19 H37 0.929 . S
C20 C17 1.424 . S
C20 C19 1.384 . S
C20 H38 0.928 . S
C21 C18 1.260 . S
C21 C19 1.479 . S
C22 C17 1.245 . S
C22 C18 1.477 . S
C22 H39 0.932 . S
C23 U6 2.882 1_556 S
C23 C17 1.428 . S
C23 O26 1.301 . S
C23 O27 1.282 . S
O24 U6 2.441 . S
O24 C10 1.249 . S
O25 U6 2.420 . S
O25 C10 1.202 . S
O26 U6 2.455 1_556 S
O26 C23 1.301 . S
O27 U6 2.449 1_556 S
O27 C23 1.282 . S
H28 C1 0.931 . S
H29 C3 0.929 . S
H30 C4 0.930 . S
H31 C5 0.931 . S
H32 C12 0.932 . S
H33 C13 0.930 . S
H34 C14 0.929 . S
H35 C16 0.930 . S
H36 C18 0.932 . S
H37 C19 0.929 . S
H38 C20 0.928 . S
H39 C22 0.932 . S
C40 C41 1.264 . S
C40 C45 1.479 . S
C40 C50 1.465 . S
C41 C40 1.264 . S
C41 C43 1.339 . S
C41 H68 0.931 . S
C42 C43 1.395 . S
C42 C44 1.320 . S
C43 C41 1.339 . S
C43 C42 1.395 . S
C43 H69 0.929 . S
C44 C42 1.320 . S
C44 C45 1.405 . S
C44 H70 0.930 . S
C45 C40 1.479 . S
C45 C44 1.405 . S
C45 H71 0.931 . S
U46 O47 2.454 . S
U46 O48 2.458 . S
U46 C49 2.984 . S
U46 C50 2.847 . S
U46 C63 2.882 . S
U46 O64 2.441 . S
U46 O65 2.420 . S
U46 O66 2.455 . S
U46 O67 2.449 . S
O47 U46 2.454 . S
O47 C49 1.353 . S
O48 U46 2.458 . S
O48 C49 1.286 . S
C49 U46 2.984 . S
C49 O47 1.353 . S
C49 O48 1.286 . S
C49 C51 1.363 . S
C50 C40 1.465 . S
C50 U46 2.847 . S
C50 O64 1.249 . S
C50 O65 1.202 . S
C51 C49 1.363 . S
C51 C53 1.408 . S
C51 C56 1.342 . S
C52 C53 1.310 . S
C52 C55 1.461 . S
C52 H72 0.932 . S
C53 C51 1.408 . S
C53 C52 1.310 . S
C53 H73 0.930 . S
C54 C55 1.474 . S
C54 C56 1.285 . S
C54 H74 0.929 . S
C55 C52 1.461 . S
C55 C54 1.474 . S
C56 C51 1.342 . S
C56 C54 1.285 . S
C56 H75 0.930 . S
C57 C60 1.424 . S
C57 C62 1.245 . S
C57 C63 1.428 . S
C58 C61 1.260 . S
C58 C62 1.477 . S
C58 H76 0.932 . S
C59 C60 1.384 . S
C59 C61 1.479 . S
C59 H77 0.929 . S
C60 C57 1.424 . S
C60 C59 1.384 . S
C60 H78 0.928 . S
C61 C58 1.260 . S
C61 C59 1.479 . S
C62 C57 1.245 . S
C62 C58 1.477 . S
C62 H79 0.932 . S
C63 U46 2.882 . S
C63 C57 1.428 . S
C63 O66 1.301 . S
C63 O67 1.282 . S
O64 U46 2.441 . S
O64 C50 1.249 . S
O65 U46 2.420 . S
O65 C50 1.202 . S
O66 U46 2.455 . S
O66 C63 1.301 . S
O67 U46 2.449 . S
O67 C63 1.282 . S
H68 C41 0.931 . S
H69 C43 0.929 . S
H70 C44 0.930 . S
H71 C45 0.931 . S
H72 C52 0.932 . S
H73 C53 0.930 . S
H74 C54 0.929 . S
H75 C56 0.930 . S
H76 C58 0.932 . S
H77 C59 0.929 . S
H78 C60 0.928 . S
H79 C62 0.932 . S
C80 C81 1.264 . S
C80 C85 1.479 . S
C80 C90 1.465 . S
C81 C80 1.264 . S
C81 C83 1.339 . S
C81 H108 0.931 . S
C82 C83 1.395 . S
C82 C84 1.320 . S
C83 C81 1.339 . S
C83 C82 1.395 . S
C83 H109 0.929 . S
C84 C82 1.320 . S
C84 C85 1.405 . S
C84 H110 0.930 . S
C85 C80 1.479 . S
C85 C84 1.405 . S
C85 H111 0.931 . S
U86 O87 2.454 . S
U86 O88 2.458 1_554 S
U86 C89 2.984 . S
U86 C90 2.847 . S
U86 C103 2.882 1_554 S
U86 O104 2.441 . S
U86 O105 2.420 . S
U86 O106 2.455 1_554 S
U86 O107 2.449 1_554 S
O87 U86 2.454 . S
O87 C89 1.353 . S
O88 U86 2.458 1_556 S
O88 C89 1.286 1_556 S
C89 U86 2.984 . S
C89 O87 1.353 . S
C89 O88 1.286 1_554 S
C89 C91 1.363 . S
C90 C80 1.465 . S
C90 U86 2.847 . S
C90 O104 1.249 . S
C90 O105 1.202 . S
C91 C89 1.363 . S
C91 C93 1.408 . S
C91 C96 1.342 1_554 S
C92 C93 1.310 . S
C92 C95 1.461 . S
C92 H112 0.932 . S
C93 C91 1.408 . S
C93 C92 1.310 . S
C93 H113 0.930 . S
C94 C95 1.474 1_556 S
C94 C96 1.285 . S
C94 H114 0.929 . S
C95 C92 1.461 . S
C95 C94 1.474 1_554 S
C96 C91 1.342 1_556 S
C96 C94 1.285 . S
C96 H115 0.930 . S
C97 C100 1.424 . S
C97 C102 1.245 . S
C97 C103 1.428 . S
C98 C101 1.260 . S
C98 C102 1.477 . S
C98 H116 0.932 . S
C99 C100 1.384 . S
C99 C101 1.479 . S
C99 H117 0.929 . S
C100 C97 1.424 . S
C100 C99 1.384 . S
C100 H118 0.928 . S
C101 C98 1.260 . S
C101 C99 1.479 . S
C102 C97 1.245 . S
C102 C98 1.477 . S
C102 H119 0.932 . S
C103 U86 2.882 1_556 S
C103 C97 1.428 . S
C103 O106 1.301 . S
C103 O107 1.282 . S
O104 U86 2.441 . S
O104 C90 1.249 . S
O105 U86 2.420 . S
O105 C90 1.202 . S
O106 U86 2.455 1_556 S
O106 C103 1.301 . S
O107 U86 2.449 1_556 S
O107 C103 1.282 . S
H108 C81 0.931 . S
H109 C83 0.929 . S
H110 C84 0.930 . S
H111 C85 0.931 . S
H112 C92 0.932 . S
H113 C93 0.930 . S
H114 C94 0.929 . S
H115 C96 0.930 . S
H116 C98 0.932 . S
H117 C99 0.929 . S
H118 C100 0.928 . S
H119 C102 0.932 . S
C120 C121 1.264 . S
C120 C125 1.479 . S
C120 C130 1.465 . S
C121 C120 1.264 . S
C121 C123 1.339 . S
C121 H148 0.931 . S
C122 C123 1.395 . S
C122 C124 1.320 . S
C123 C121 1.339 . S
C123 C122 1.395 . S
C123 H149 0.929 . S
C124 C122 1.320 . S
C124 C125 1.405 . S
C124 H150 0.930 . S
C125 C120 1.479 . S
C125 C124 1.405 . S
C125 H151 0.931 . S
U126 O127 2.454 . S
U126 O128 2.458 . S
U126 C129 2.984 . S
U126 C130 2.847 . S
U126 C143 2.882 . S
U126 O144 2.441 . S
U126 O145 2.420 . S
U126 O146 2.455 . S
U126 O147 2.449 . S
O127 U126 2.454 . S
O127 C129 1.353 . S
O128 U126 2.458 . S
O128 C129 1.286 . S
C129 U126 2.984 . S
C129 O127 1.353 . S
C129 O128 1.286 . S
C129 C131 1.363 . S
C130 C120 1.465 . S
C130 U126 2.847 . S
C130 O144 1.249 . S
C130 O145 1.202 . S
C131 C129 1.363 . S
C131 C133 1.408 . S
C131 C136 1.342 . S
C132 C133 1.310 . S
C132 C135 1.461 . S
C132 H152 0.932 . S
C133 C131 1.408 . S
C133 C132 1.310 . S
C133 H153 0.930 . S
C134 C135 1.474 . S
C134 C136 1.285 . S
C134 H154 0.929 . S
C135 C132 1.461 . S
C135 C134 1.474 . S
C136 C131 1.342 . S
C136 C134 1.285 . S
C136 H155 0.930 . S
C137 C140 1.424 . S
C137 C142 1.245 . S
C137 C143 1.428 . S
C138 C141 1.260 . S
C138 C142 1.477 . S
C138 H156 0.932 . S
C139 C140 1.384 . S
C139 C141 1.479 . S
C139 H157 0.929 . S
C140 C137 1.424 . S
C140 C139 1.384 . S
C140 H158 0.928 . S
C141 C138 1.260 . S
C141 C139 1.479 . S
C142 C137 1.245 . S
C142 C138 1.477 . S
C142 H159 0.932 . S
C143 U126 2.882 . S
C143 C137 1.428 . S
C143 O146 1.301 . S
C143 O147 1.282 . S
O144 U126 2.441 . S
O144 C130 1.249 . S
O145 U126 2.420 . S
O145 C130 1.202 . S
O146 U126 2.455 . S
O146 C143 1.301 . S
O147 U126 2.449 . S
O147 C143 1.282 . S
H148 C121 0.931 . S
H149 C123 0.929 . S
H150 C124 0.930 . S
H151 C125 0.931 . S
H152 C132 0.932 . S
H153 C133 0.930 . S
H154 C134 0.929 . S
H155 C136 0.930 . S
H156 C138 0.932 . S
H157 C139 0.929 . S
H158 C140 0.928 . S
H159 C142 0.932 . S
O160 Zn161 1.953 1_565 S
O160 C176 1.225 . S
Zn161 O160 1.953 1_545 S
Zn161 O162 1.949 1_655 S
Zn161 O168 1.919 . S
Zn161 O173 1.924 . S
O162 Zn161 1.949 1_455 S
O162 Zn163 1.923 . S
O162 Zn164 1.950 1_445 S
O162 Zn165 1.945 . S
Zn163 O162 1.923 . S
Zn163 O166 1.933 . S
Zn163 O169 1.941 . S
Zn163 O170 1.965 1_545 S
Zn164 O162 1.950 1_665 S
Zn164 O171 1.938 1_655 S
Zn164 O172 1.906 1_655 S
Zn164 O182 1.953 . S
Zn165 O162 1.945 . S
Zn165 O167 1.932 . S
Zn165 O174 1.977 1_545 S
Zn165 O175 1.910 1_455 S
O166 Zn163 1.933 . S
O166 C177 1.226 . S
O167 Zn165 1.932 . S
O167 C177 1.307 . S
O168 Zn161 1.919 . S
O168 C179 1.253 . S
O169 Zn163 1.941 . S
O169 C179 1.283 1_455 S
O170 Zn163 1.965 1_565 S
O170 C178 1.303 . S
O171 Zn164 1.938 1_455 S
O171 C178 1.247 . S
O172 Zn164 1.906 1_455 S
O172 C180 1.304 . S
O173 Zn161 1.924 . S
O173 C181 1.311 . S
O174 Zn165 1.977 1_565 S
O174 C180 1.272 . S
O175 Zn165 1.910 1_655 S
O175 C181 1.231 . S
C176 O160 1.225 . S
C176 O182 1.298 . S
C177 O166 1.226 . S
C177 O167 1.307 . S
C178 O170 1.303 . S
C178 O171 1.247 . S
C179 O168 1.253 . S
C179 O169 1.283 1_655 S
C180 O172 1.304 . S
C180 O174 1.272 . S
C181 O173 1.311 . S
C181 O175 1.231 . S
O182 Zn164 1.953 . S
O182 C176 1.298 . S
O183 Zn184 1.953 . S
O183 C199 1.225 . S
Zn184 O183 1.953 . S
Zn184 O185 1.949 . S
Zn184 O191 1.919 1_554 S
Zn184 O196 1.924 . S
O185 Zn184 1.949 . S
O185 Zn186 1.923 1_554 S
O185 Zn187 1.950 . S
O185 Zn188 1.945 . S
Zn186 O185 1.923 1_556 S
Zn186 O189 1.933 . S
Zn186 O192 1.941 . S
Zn186 O193 1.965 . S
Zn187 O185 1.950 . S
Zn187 O194 1.938 1_554 S
Zn187 O195 1.906 . S
Zn187 O205 1.953 . S
Zn188 O185 1.945 . S
Zn188 O190 1.932 . S
Zn188 O197 1.977 . S
Zn188 O198 1.910 . S
O189 Zn186 1.933 . S
O189 C200 1.226 1_556 S
O190 Zn188 1.932 . S
O190 C200 1.307 . S
O191 Zn184 1.919 1_556 S
O191 C202 1.253 . S
O192 Zn186 1.941 . S
O192 C202 1.283 . S
O193 Zn186 1.965 . S
O193 C201 1.303 . S
O194 Zn187 1.938 1_556 S
O194 C201 1.247 . S
O195 Zn187 1.906 . S
O195 C203 1.304 . S
O196 Zn184 1.924 . S
O196 C204 1.311 . S
O197 Zn188 1.977 . S
O197 C203 1.272 . S
O198 Zn188 1.910 . S
O198 C204 1.231 . S
C199 O183 1.225 . S
C199 O205 1.298 . S
C200 O189 1.226 1_554 S
C200 O190 1.307 . S
C201 O193 1.303 . S
C201 O194 1.247 . S
C202 O191 1.253 . S
C202 O192 1.283 . S
C203 O195 1.304 . S
C203 O197 1.272 . S
C204 O196 1.311 . S
C204 O198 1.231 . S
O205 Zn187 1.953 . S
O205 C199 1.298 . S
H206 C212 0.930 . S
H207 C216 0.930 . S
H208 C221 0.929 . S
H209 C219 0.929 . S
H210 C214 0.929 . S
H211 C220 0.929 . S
C212 H206 0.930 . S
C212 C213 1.367 . S
C212 C220 1.378 . S
C213 C212 1.367 . S
C213 C221 1.433 . S
C214 H210 0.929 . S
C214 C216 1.378 . S
C214 C218 1.350 . S
C215 C218 1.463 . S
C215 C220 1.350 . S
C215 N223 1.427 . S
C216 H207 0.930 . S
C216 C214 1.378 . S
C216 C217 1.367 . S
C217 C216 1.367 . S
C217 C219 1.433 . S
C218 C214 1.350 . S
C218 C215 1.463 . S
C218 N222 1.427 . S
C219 H209 0.929 . S
C219 C217 1.433 . S
C219 N222 1.384 . S
C220 H211 0.929 . S
C220 C212 1.378 . S
C220 C215 1.350 . S
C221 H208 0.929 . S
C221 C213 1.433 . S
C221 N223 1.384 . S
N222 C218 1.427 . S
N222 C219 1.384 . S
N223 C215 1.427 . S
N223 C221 1.384 . S
H224 C230 0.930 . S
H225 C234 0.930 . S
H226 C239 0.929 . S
H227 C237 0.929 . S
H228 C232 0.929 . S
H229 C238 0.929 . S
C230 H224 0.930 . S
C230 C231 1.367 1_556 S
C230 C238 1.378 . S
C231 C230 1.367 1_554 S
C231 C239 1.433 . S
C232 H228 0.929 . S
C232 C234 1.378 . S
C232 C236 1.350 . S
C233 C236 1.463 . S
C233 C238 1.350 1_554 S
C233 N241 1.427 . S
C234 H225 0.930 . S
C234 C232 1.378 . S
C234 C235 1.367 . S
C235 C234 1.367 . S
C235 C237 1.433 1_554 S
C236 C232 1.350 . S
C236 C233 1.463 . S
C236 N240 1.427 1_554 S
C237 H227 0.929 . S
C237 C235 1.433 1_556 S
C237 N240 1.384 . S
C238 H229 0.929 . S
C238 C230 1.378 . S
C238 C233 1.350 1_556 S
C239 H226 0.929 . S
C239 C231 1.433 . S
C239 N241 1.384 . S
N240 C236 1.427 1_556 S
N240 C237 1.384 . S
N241 C233 1.427 . S
N241 C239 1.384 . S
H242 C248 0.930 . S
H243 C252 0.930 . S
H244 C257 0.929 . S
H245 C255 0.929 . S
H246 C250 0.929 . S
H247 C256 0.929 . S
C248 H242 0.930 . S
C248 C249 1.367 . S
C248 C256 1.378 . S
C249 C248 1.367 . S
C249 C257 1.433 . S
C250 H246 0.929 . S
C250 C252 1.378 . S
C250 C254 1.350 . S
C251 C254 1.463 . S
C251 C256 1.350 . S
C251 N259 1.427 . S
C252 H243 0.930 . S
C252 C250 1.378 . S
C252 C253 1.367 . S
C253 C252 1.367 . S
C253 C255 1.433 . S
C254 C250 1.350 . S
C254 C251 1.463 . S
C254 N258 1.427 . S
C255 H245 0.929 . S
C255 C253 1.433 . S
C255 N258 1.384 . S
C256 H247 0.929 . S
C256 C248 1.378 . S
C256 C251 1.350 . S
C257 H244 0.929 . S
C257 C249 1.433 . S
C257 N259 1.384 . S
N258 C254 1.427 . S
N258 C255 1.384 . S
N259 C251 1.427 . S
N259 C257 1.384 . S
H260 C266 0.930 . S
H261 C270 0.930 . S
H262 C275 0.929 . S
H263 C273 0.929 . S
H264 C268 0.929 . S
H265 C274 0.929 . S
C266 H260 0.930 . S
C266 C267 1.367 . S
C266 C274 1.378 . S
C267 C266 1.367 . S
C267 C275 1.433 1_554 S
C268 H264 0.929 . S
C268 C270 1.378 . S
C268 C272 1.350 1_556 S
C269 C272 1.463 . S
C269 C274 1.350 . S
C269 N277 1.427 1_554 S
C270 H261 0.930 . S
C270 C268 1.378 . S
C270 C271 1.367 1_556 S
C271 C270 1.367 1_554 S
C271 C273 1.433 . S
C272 C268 1.350 1_554 S
C272 C269 1.463 . S
C272 N276 1.427 . S
C273 H263 0.929 . S
C273 C271 1.433 . S
C273 N276 1.384 . S
C274 H265 0.929 . S
C274 C266 1.378 . S
C274 C269 1.350 . S
C275 H262 0.929 . S
C275 C267 1.433 1_556 S
C275 N277 1.384 . S
N276 C272 1.427 . S
N276 C273 1.384 . S
N277 C269 1.427 1_556 S
N277 C275 1.384 . S
H278 C284 0.930 . S
H279 C288 0.930 . S
H280 C293 0.929 . S
H281 C291 0.929 . S
H282 C286 0.929 . S
H283 C292 0.929 . S
C284 H278 0.930 . S
C284 C285 1.367 . S
C284 C292 1.378 . S
C285 C284 1.367 . S
C285 C293 1.433 . S
C286 H282 0.929 . S
C286 C288 1.378 . S
C286 C290 1.350 . S
C287 C290 1.463 . S
C287 C292 1.350 . S
C287 N295 1.427 . S
C288 H279 0.930 . S
C288 C286 1.378 . S
C288 C289 1.367 . S
C289 C288 1.367 . S
C289 C291 1.433 . S
C290 C286 1.350 . S
C290 C287 1.463 . S
C290 N294 1.427 . S
C291 H281 0.929 . S
C291 C289 1.433 . S
C291 N294 1.384 . S
C292 H283 0.929 . S
C292 C284 1.378 . S
C292 C287 1.350 . S
C293 H280 0.929 . S
C293 C285 1.433 . S
C293 N295 1.384 . S
N294 C290 1.427 . S
N294 C291 1.384 . S
N295 C287 1.427 . S
N295 C293 1.384 . S
H296 C302 0.930 . S
H297 C306 0.930 . S
H298 C311 0.929 . S
H299 C309 0.929 . S
H300 C304 0.929 . S
H301 C310 0.929 . S
C302 H296 0.930 . S
C302 C303 1.367 . S
C302 C310 1.378 . S
C303 C302 1.367 . S
C303 C311 1.433 . S
C304 H300 0.929 . S
C304 C306 1.378 . S
C304 C308 1.350 . S
C305 C308 1.463 . S
C305 C310 1.350 . S
C305 N313 1.427 . S
C306 H297 0.930 . S
C306 C304 1.378 . S
C306 C307 1.367 . S
C307 C306 1.367 . S
C307 C309 1.433 . S
C308 C304 1.350 . S
C308 C305 1.463 . S
C308 N312 1.427 . S
C309 H299 0.929 . S
C309 C307 1.433 . S
C309 N312 1.384 . S
C310 H301 0.929 . S
C310 C302 1.378 . S
C310 C305 1.350 . S
C311 H298 0.929 . S
C311 C303 1.433 . S
C311 N313 1.384 . S
N312 C308 1.427 . S
N312 C309 1.384 . S
N313 C305 1.427 . S
N313 C311 1.384 . S
H314 C320 0.930 . S
H315 C324 0.930 . S
H316 C329 0.929 . S
H317 C327 0.929 . S
H318 C322 0.929 . S
H319 C328 0.929 . S
C320 H314 0.930 . S
C320 C321 1.367 . S
C320 C328 1.378 . S
C321 C320 1.367 . S
C321 C329 1.433 . S
C322 H318 0.929 . S
C322 C324 1.378 . S
C322 C326 1.350 . S
C323 C326 1.463 . S
C323 C328 1.350 . S
C323 N331 1.427 . S
C324 H315 0.930 . S
C324 C322 1.378 . S
C324 C325 1.367 . S
C325 C324 1.367 . S
C325 C327 1.433 . S
C326 C322 1.350 . S
C326 C323 1.463 . S
C326 N330 1.427 . S
C327 H317 0.929 . S
C327 C325 1.433 . S
C327 N330 1.384 . S
C328 H319 0.929 . S
C328 C320 1.378 . S
C328 C323 1.350 . S
C329 H316 0.929 . S
C329 C321 1.433 . S
C329 N331 1.384 . S
N330 C326 1.427 . S
N330 C327 1.384 . S
N331 C323 1.427 . S
N331 C329 1.384 . S
H332 C338 0.930 . S
H333 C342 0.930 . S
H334 C347 0.929 . S
H335 C345 0.929 . S
H336 C340 0.929 . S
H337 C346 0.929 . S
C338 H332 0.930 . S
C338 C339 1.367 . S
C338 C346 1.378 . S
C339 C338 1.367 . S
C339 C347 1.433 . S
C340 H336 0.929 . S
C340 C342 1.378 . S
C340 C344 1.350 . S
C341 C344 1.463 . S
C341 C346 1.350 . S
C341 N349 1.427 . S
C342 H333 0.930 . S
C342 C340 1.378 . S
C342 C343 1.367 . S
C343 C342 1.367 . S
C343 C345 1.433 . S
C344 C340 1.350 . S
C344 C341 1.463 . S
C344 N348 1.427 . S
C345 H335 0.929 . S
C345 C343 1.433 . S
C345 N348 1.384 . S
C346 H337 0.929 . S
C346 C338 1.378 . S
C346 C341 1.350 . S
C347 H334 0.929 . S
C347 C339 1.433 . S
C347 N349 1.384 . S
N348 C344 1.427 . S
N348 C345 1.384 . S
N349 C341 1.427 . S
N349 C347 1.384 . S
H350 C356 0.930 . S
H351 C360 0.930 . S
H352 C365 0.929 . S
H353 C363 0.929 . S
H354 C358 0.929 . S
H355 C364 0.929 . S
C356 H350 0.930 . S
C356 C357 1.367 . S
C356 C364 1.378 . S
C357 C356 1.367 . S
C357 C365 1.433 . S
C358 H354 0.929 . S
C358 C360 1.378 . S
C358 C362 1.350 . S
C359 C362 1.463 . S
C359 C364 1.350 . S
C359 N367 1.427 . S
C360 H351 0.930 . S
C360 C358 1.378 . S
C360 C361 1.367 . S
C361 C360 1.367 . S
C361 C363 1.433 . S
C362 C358 1.350 . S
C362 C359 1.463 . S
C362 N366 1.427 . S
C363 H353 0.929 . S
C363 C361 1.433 . S
C363 N366 1.384 . S
C364 H355 0.929 . S
C364 C356 1.378 . S
C364 C359 1.350 . S
C365 H352 0.929 . S
C365 C357 1.433 . S
C365 N367 1.384 . S
N366 C362 1.427 . S
N366 C363 1.384 . S
N367 C359 1.427 . S
N367 C365 1.384 . S
H368 C374 0.930 . S
H369 C378 0.930 . S
H370 C383 0.929 . S
H371 C381 0.929 . S
H372 C376 0.929 . S
H373 C382 0.929 . S
C374 H368 0.930 . S
C374 C375 1.367 . S
C374 C382 1.378 . S
C375 C374 1.367 . S
C375 C383 1.433 . S
C376 H372 0.929 . S
C376 C378 1.378 . S
C376 C380 1.350 . S
C377 C380 1.463 . S
C377 C382 1.350 . S
C377 N385 1.427 . S
C378 H369 0.930 . S
C378 C376 1.378 . S
C378 C379 1.367 . S
C379 C378 1.367 . S
C379 C381 1.433 1_655 S
C380 C376 1.350 . S
C380 C377 1.463 . S
C380 N384 1.427 . S
C381 H371 0.929 . S
C381 C379 1.433 1_455 S
C381 N384 1.384 1_455 S
C382 H373 0.929 . S
C382 C374 1.378 . S
C382 C377 1.350 . S
C383 H370 0.929 . S
C383 C375 1.433 . S
C383 N385 1.384 . S
N384 C380 1.427 . S
N384 C381 1.384 1_655 S
N385 C377 1.427 . S
N385 C383 1.384 . S
H386 C392 0.930 . S
H387 C396 0.930 . S
H388 C401 0.929 . S
H389 C399 0.929 . S
H390 C394 0.929 . S
H391 C400 0.929 . S
C392 H386 0.930 . S
C392 C393 1.367 . S
C392 C400 1.378 . S
C393 C392 1.367 . S
C393 C401 1.433 . S
C394 H390 0.929 . S
C394 C396 1.378 . S
C394 C398 1.350 . S
C395 C398 1.463 . S
C395 C400 1.350 . S
C395 N403 1.427 . S
C396 H387 0.930 . S
C396 C394 1.378 . S
C396 C397 1.367 . S
C397 C396 1.367 . S
C397 C399 1.433 . S
C398 C394 1.350 . S
C398 C395 1.463 . S
C398 N402 1.427 . S
C399 H389 0.929 . S
C399 C397 1.433 . S
C399 N402 1.384 . S
C400 H391 0.929 . S
C400 C392 1.378 . S
C400 C395 1.350 . S
C401 H388 0.929 . S
C401 C393 1.433 . S
C401 N403 1.384 . S
N402 C398 1.427 . S
N402 C399 1.384 . S
N403 C395 1.427 . S
N403 C401 1.384 . S
H404 C410 0.930 . S
H405 C414 0.930 1_655 S
H406 C419 0.929 . S
H407 C417 0.929 . S
H408 C412 0.929 . S
H409 C418 0.929 . S
C410 H404 0.930 . S
C410 C411 1.367 . S
C410 C418 1.378 . S
C411 C410 1.367 . S
C411 C419 1.433 . S
C412 H408 0.929 . S
C412 C414 1.378 . S
C412 C416 1.350 . S
C413 C416 1.463 . S
C413 C418 1.350 . S
C413 N421 1.427 . S
C414 H405 0.930 1_455 S
C414 C412 1.378 . S
C414 C415 1.367 . S
C415 C414 1.367 . S
C415 C417 1.433 . S
C416 C412 1.350 . S
C416 C413 1.463 . S
C416 N420 1.427 . S
C417 H407 0.929 . S
C417 C415 1.433 . S
C417 N420 1.384 . S
C418 H409 0.929 . S
C418 C410 1.378 . S
C418 C413 1.350 . S
C419 H406 0.929 . S
C419 C411 1.433 . S
C419 N421 1.384 . S
N420 C416 1.427 . S
N420 C417 1.384 . S
N421 C413 1.427 . S
N421 C419 1.384 . S
C217 C177 1.695 . S
C213 C135 1.666 . S
C231 C15 1.659 . S
C235 C200 1.691 . S
C249 C55 1.681 . S
C253 C176 1.709 . S
C267 C95 1.669 . S
C271 C199 1.706 . S
C289 C180 1.654 . S
C285 C2 1.616 . S
C307 C202 1.665 . S
C303 C42 1.692 . S
C321 C82 1.636 . S
C325 C181 1.650 . S
C339 C141 1.593 . S
C343 C201 1.632 . S
C361 C204 1.689 . S
C357 C61 1.766 . S
C379 C179 1.698 . S
C375 C101 1.638 . S
C397 C203 1.688 . S
C393 C122 1.651 . S
C411 C21 1.607 . S
C415 C178 1.662 . S
