# Generated by pormake.
# Topology tsx, (6,3)-cn, num edge types: 1
# Building blocks:
#     Node 0, Type 0, BuildingBlock: FUNLAD_clean_sbu_0, # of connection points: 6
#     Node 1, Type 0, BuildingBlock: FUNLAD_clean_sbu_0, # of connection points: 6
#     Node 2, Type 1, BuildingBlock: OLANEW_clean_sbu_2, # of connection points: 3
#     Node 3, Type 1, BuildingBlock: OLANEW_clean_sbu_2, # of connection points: 3
#     Node 4, Type 1, BuildingBlock: OLANEW_clean_sbu_2, # of connection points: 3
#     Node 5, Type 1, BuildingBlock: OLANEW_clean_sbu_2, # of connection points: 3
#     Edge 6, Type (0, 1), BuildingBlock: ZUJKAS_clean_linker_0, # of connection points: 2
#     Edge 7, Type (0, 1), BuildingBlock: ZUJKAS_clean_linker_0, # of connection points: 2
#     Edge 8, Type (0, 1), BuildingBlock: ZUJKAS_clean_linker_0, # of connection points: 2
#     Edge 9, Type (0, 1), BuildingBlock: ZUJKAS_clean_linker_0, # of connection points: 2
#     Edge 10, Type (0, 1), BuildingBlock: ZUJKAS_clean_linker_0, # of connection points: 2
#     Edge 11, Type (0, 1), BuildingBlock: ZUJKAS_clean_linker_0, # of connection points: 2
#     Edge 12, Type (0, 1), BuildingBlock: ZUJKAS_clean_linker_0, # of connection points: 2
#     Edge 13, Type (0, 1), BuildingBlock: ZUJKAS_clean_linker_0, # of connection points: 2
#     Edge 14, Type (0, 1), BuildingBlock: ZUJKAS_clean_linker_0, # of connection points: 2
#     Edge 15, Type (0, 1), BuildingBlock: ZUJKAS_clean_linker_0, # of connection points: 2
#     Edge 16, Type (0, 1), BuildingBlock: ZUJKAS_clean_linker_0, # of connection points: 2
#     Edge 17, Type (0, 1), BuildingBlock: ZUJKAS_clean_linker_0, # of connection points: 2
# Relax obj value: 0.078
# Max RMSD: 0.100
# Mean RMSD: 0.086
data_MOF--net-tsx--node1-FUNLAD_clean_sbu_0--node2-OLANEW_clean_sbu_2--edge1-ZUJKAS_clean_linker_0
_symmetry_space_group_name_H-M    P1
_symmetry_Int_Tables_number       1
_symmetry_cell_setting            triclinic
loop_
_symmetry_equiv_pos_as_xyz
'x, y, z'
_cell_length_a     27.237864
_cell_length_b     30.033883
_cell_length_c     50.033718
_cell_angle_alpha  96.713674
_cell_angle_beta   92.1745
_cell_angle_gamma 90.014201
loop_
_atom_site_label
_atom_site_type_symbol
_atom_site_fract_x
_atom_site_fract_y
_atom_site_fract_z
_atom_type_partial_charge
C0 C 0.92835 0.94598 0.00356 0.0
N1 N 0.00356 0.02352 0.0677 0.0
C2 C 0.96136 0.02397 0.08143 0.0
C3 C 0.96328 0.0264 0.10951 0.0
C4 C 0.00907 0.02856 0.12353 0.0
C5 C 0.05192 0.02878 0.10883 0.0
C6 C 0.04832 0.02614 0.08083 0.0
Zn7 Zn 0.00136 0.01611 0.02663 0.0
C8 C 0.07151 0.94569 0.00523 0.0
N9 N -0.00067 -0.00109 0.94082 0.0
C10 C 0.95679 -0.00067 0.92568 0.0
C11 C 0.0437 -0.00462 0.92917 0.0
C12 C 0.04659 0.99243 0.90129 0.0
C13 C 0.00345 0.99335 0.88514 0.0
C14 C 0.95803 -0.00327 0.89762 0.0
Zn15 Zn -0.00084 0.0063 0.98189 0.0
O16 O 0.94623 0.96593 0.02561 0.0
C17 C 0.92906 0.07688 0.00341 0.0
O18 O 0.9436 0.95648 0.98139 0.0
H19 H 0.07712 -0.00441 0.94154 0.0
H20 H 0.92618 0.02189 0.07057 0.0
H21 H 0.92193 0.00219 0.93538 0.0
O22 O 0.94661 0.06657 0.02579 0.0
O23 O 0.94455 0.05667 0.98159 0.0
H24 H 0.08143 0.02538 0.06954 0.0
O25 O 0.05471 0.05611 0.98286 0.0
O26 O 0.05679 0.06585 0.02696 0.0
O27 O 0.05388 0.956 0.98291 0.0
O28 O 0.0559 0.96572 0.02701 0.0
C29 C 0.07273 0.07585 0.00488 0.0
H30 H 0.92935 0.02657 0.12012 0.0
H31 H 0.08797 0.02976 0.1188 0.0
H32 H 0.0824 0.99058 0.89252 0.0
H33 H 0.92389 -0.00277 0.88584 0.0
C34 C 0.42648 0.44345 0.50171 0.0
N35 N 0.50169 0.51919 0.56664 0.0
C36 C 0.45962 0.51683 0.58023 0.0
C37 C 0.46161 0.51735 0.6082 0.0
C38 C 0.50731 0.52067 0.62237 0.0
C39 C 0.54996 0.52423 0.6078 0.0
C40 C 0.54632 0.52312 0.57987 0.0
Zn41 Zn 0.49943 0.51351 0.52558 0.0
C42 C 0.56945 0.44376 0.50313 0.0
N43 N 0.49678 0.499 0.43977 0.0
C44 C 0.45426 0.49971 0.42464 0.0
C45 C 0.54117 0.4959 0.42813 0.0
C46 C 0.5441 0.49355 0.40028 0.0
C47 C 0.50097 0.49463 0.38414 0.0
C48 C 0.45553 0.4977 0.39661 0.0
Zn49 Zn 0.49666 0.50489 0.48082 0.0
O50 O 0.4445 0.46286 0.52388 0.0
C51 C 0.42658 0.57469 0.50334 0.0
O52 O 0.44146 0.4547 0.47967 0.0
H53 H 0.57459 0.49587 0.4405 0.0
H54 H 0.42453 0.51363 0.56931 0.0
H55 H 0.41938 0.50222 0.43434 0.0
O56 O 0.44428 0.56358 0.5255 0.0
O57 O 0.44202 0.55531 0.48128 0.0
H58 H 0.57936 0.52475 0.5687 0.0
O59 O 0.55217 0.55497 0.4824 0.0
O60 O 0.55429 0.56384 0.5265 0.0
O61 O 0.55103 0.45453 0.48111 0.0
O62 O 0.55465 0.46344 0.52521 0.0
C63 C 0.57009 0.57443 0.50452 0.0
H64 H 0.42778 0.514 0.61849 0.0
H65 H 0.58591 0.52772 0.61783 0.0
H66 H 0.57992 0.49193 0.39152 0.0
H67 H 0.4214 0.49831 0.38483 0.0
O68 O 0.00921 0.99263 0.41953 0.0
Cd69 Cd 0.00379 0.98746 0.4676 0.0
O70 O 0.06217 0.04849 0.42496 0.0
Cd71 Cd 0.04112 0.06559 0.46646 0.0
O72 O 0.98294 0.10736 0.48474 0.0
C73 C 0.95074 0.11787 0.46755 0.0
O74 O 0.95528 0.10212 0.44214 0.0
C75 C 0.03853 0.01859 0.40953 0.0
C76 C 0.06948 0.92194 0.48151 0.0
O77 O 0.02566 0.91163 0.47272 0.0
O78 O 0.08202 0.96339 0.48411 0.0
O79 O 0.03289 0.01558 0.58763 0.0
Cd80 Cd 0.03124 0.01329 0.53862 0.0
O81 O 0.07775 0.9549 0.58856 0.0
Cd82 Cd 0.05944 0.93269 0.5464 0.0
O83 O 0.00273 0.88866 0.52582 0.0
C84 C 0.95844 0.89944 0.53032 0.0
O85 O 0.9497 0.93724 0.54538 0.0
C86 C 0.05722 0.98887 0.60092 0.0
C87 C 0.09183 0.08114 0.52443 0.0
O88 O 0.04692 0.08879 0.53012 0.0
O89 O 0.10805 0.04124 0.52521 0.0
O90 O 0.50831 0.49953 0.92179 0.0
Cd91 Cd 0.51134 0.49708 0.97039 0.0
O92 O 0.56278 0.55397 0.92413 0.0
Cd93 Cd 0.54471 0.57614 0.96562 0.0
O94 O 0.49366 0.62519 0.98449 0.0
C95 C 0.45197 0.61384 0.99213 0.0
O96 O 0.44079 0.57105 0.99067 0.0
C97 C 0.53702 0.52382 0.91016 0.0
C98 C 0.57715 0.42999 0.98194 0.0
O99 O 0.53181 0.42104 0.97588 0.0
O100 O 0.59128 0.47087 0.98293 0.0
O101 O 0.54021 0.50792 0.08563 0.0
Cd102 Cd 0.54659 0.50409 0.03682 0.0
O103 O 0.58451 0.44731 0.08831 0.0
Cd104 Cd 0.57009 0.42414 0.0459 0.0
O105 O 0.51267 0.38125 0.02503 0.0
C106 C 0.46878 0.39255 0.0302 0.0
O107 O 0.46129 0.42992 0.04594 0.0
C108 C 0.56282 0.48138 0.09981 0.0
C109 C 0.60436 0.57539 0.02464 0.0
O110 O 0.55755 0.57888 0.02562 0.0
O111 O 0.6238 0.538 0.02915 0.0
H112 H 0.11544 0.10419 0.96118 0.0
H113 H 0.18354 0.15732 0.96108 0.0
H114 H 0.18825 0.17648 0.04791 0.0
H115 H 0.12057 0.12308 0.04827 0.0
H116 H 0.19081 0.24749 0.98282 0.0
H117 H 0.33031 0.14338 0.02966 0.0
H118 H 0.27199 0.12107 0.01582 0.0
H119 H 0.27591 0.15253 0.0487 0.0
C120 C 0.13093 0.1197 0.98028 0.0
C121 C 0.11273 0.10921 0.00475 0.0
C122 C 0.16982 0.15006 0.98016 0.0
C123 C 0.19141 0.17025 0.00448 0.0
C124 C 0.17272 0.16056 0.02892 0.0
H125 H 0.37207 0.40456 0.04133 0.0
H126 H 0.30509 0.35056 0.03146 0.0
C127 C 0.13385 0.13023 0.02908 0.0
C128 C 0.23326 0.20174 0.00434 0.0
H129 H 0.3522 0.21951 0.02698 0.0
C130 C 0.22625 0.24128 0.99227 0.0
C131 C 0.27969 0.19312 0.01625 0.0
C132 C 0.29024 0.15003 0.02812 0.0
C133 C 0.26397 0.27327 0.99269 0.0
C134 C 0.30959 0.26572 0.00586 0.0
C135 C 0.3171 0.22541 0.01705 0.0
C136 C 0.3493 0.29992 0.00946 0.0
C137 C 0.25464 0.31478 0.97898 0.0
C138 C 0.3966 0.28936 1.00052 0.0
C139 C 0.43522 0.32011 0.00633 0.0
C140 C 0.42723 0.36187 0.02137 0.0
C141 C 0.37949 0.37279 0.02962 0.0
C142 C 0.341 0.34203 0.02385 0.0
H143 H 0.22497 0.30911 0.96308 0.0
H144 H 0.24281 0.3423 0.99409 0.0
H145 H 0.28836 0.3258 0.96978 0.0
H146 H 0.40383 0.25694 0.98949 0.0
H147 H 0.47155 0.31066 0.99967 0.0
H148 H 0.1075 0.90728 0.04886 0.0
H149 H 0.17149 0.85035 0.04984 0.0
H150 H 0.18771 0.84978 0.96437 0.0
H151 H 0.12279 0.90575 0.96306 0.0
H152 H 0.18528 0.76613 0.97824 0.0
H153 H 0.31771 0.86868 0.04649 0.0
H154 H 0.25865 0.86345 0.06056 0.0
H155 H 0.26419 0.89244 0.03131 0.0
C156 C 0.12476 0.8951 0.03027 0.0
C157 C 0.11017 0.91116 0.00589 0.0
C158 C 0.16159 0.86277 0.0309 0.0
C159 C 0.18509 0.8464 0.00728 0.0
C160 C 0.17025 0.86207 0.98288 0.0
H161 H 0.45848 0.70388 0.98889 0.0
H162 H 0.39289 0.75917 0.99441 0.0
C163 C 0.13313 0.89409 0.98217 0.0
C164 C 0.22441 0.81224 0.00775 0.0
H165 H 0.33725 0.7918 0.03583 0.0
C166 C 0.21852 0.77174 0.99083 0.0
C167 C 0.26802 0.81981 0.02397 0.0
C168 C 0.27788 0.86361 0.04142 0.0
C169 C 0.255 0.73864 0.98962 0.0
C170 C 0.29805 0.7457 0.00636 0.0
C171 C 0.30396 0.78619 0.02329 0.0
C172 C 0.3386 0.71259 0.00537 0.0
C173 C 0.24771 0.69711 0.96973 0.0
C174 C 0.33041 0.66831 0.01057 0.0
C175 C 0.36778 0.63642 0.0072 0.0
C176 C 0.41423 0.64843 0.9989 0.0
C177 C 0.42308 0.6934 0.99518 0.0
C178 C 0.3856 0.72512 0.99834 0.0
H179 H 0.21941 0.70217 0.95379 0.0
H180 H 0.28254 0.68701 0.95994 0.0
H181 H 0.23522 0.66913 0.98049 0.0
H182 H 0.2948 0.65818 0.01674 0.0
H183 H 0.35991 0.60218 0.0105 0.0
H184 H 0.87216 0.90501 0.96108 0.0
H185 H 0.81175 0.84478 0.96182 0.0
H186 H 0.84185 0.84424 0.04705 0.0
H187 H 0.90089 0.90521 0.04666 0.0
H188 H 0.82305 0.76148 0.97385 0.0
H189 H 0.69489 0.84914 0.04501 0.0
H190 H 0.74294 0.87823 0.03015 0.0
H191 H 0.75629 0.8496 0.05926 0.0
C192 C 0.86555 0.89232 0.98003 0.0
C193 C 0.89108 0.91013 0.00385 0.0
C194 C 0.83105 0.85788 0.98041 0.0
C195 C 0.82151 0.84052 0.00459 0.0
C196 C 0.84742 0.85793 0.02831 0.0
H197 H 0.70462 0.58022 0.02507 0.0
H198 H 0.75538 0.64459 0.01815 0.0
C199 C 0.88147 0.89264 0.02801 0.0
C200 C 0.78609 0.80293 0.00489 0.0
H201 H 0.68757 0.76899 0.03768 0.0
C202 C 0.79309 0.7633 0.9876 0.0
C203 C 0.74638 0.80549 0.02246 0.0
C204 C 0.73433 0.84809 0.04004 0.0
C205 C 0.76261 0.72569 0.98809 0.0
C206 C 0.72494 0.7273 0.00692 0.0
C207 C 0.71686 0.76746 0.02351 0.0
C208 C 0.69406 0.68761 0.01016 0.0
C209 C 0.77086 0.68482 0.96822 0.0
C210 C 0.6426 0.69061 0.00875 0.0
C211 C 0.61344 0.65407 0.01322 0.0
C212 C 0.63515 0.61368 0.01908 0.0
C213 C 0.68669 0.61067 0.02035 0.0
C214 C 0.71581 0.64738 0.01616 0.0
H215 H 0.78891 0.69383 0.95003 0.0
H216 H 0.79542 0.66128 0.97778 0.0
H217 H 0.73576 0.66722 0.96181 0.0
H218 H 0.62494 0.72139 0.00436 0.0
H219 H 0.57391 0.6577 0.01235 0.0
H220 H 0.89599 0.13404 0.0456 0.0
H221 H 0.83553 0.19397 0.04387 0.0
H222 H 0.81592 0.15961 0.95799 0.0
H223 H 0.87715 0.10042 0.95942 0.0
H224 H 0.82656 0.24866 0.97115 0.0
H225 H 0.68763 0.18407 0.03528 0.0
H226 H 0.74756 0.19099 0.05142 0.0
H227 H 0.73818 0.15043 0.02224 0.0
C228 C 0.87861 0.13906 0.02636 0.0
C229 C 0.89136 0.11236 0.00265 0.0
C230 C 0.84379 0.17318 0.02543 0.0
C231 C 0.82056 0.18086 1.00086 0.0
C232 C 0.83322 0.15422 0.97719 0.0
H233 H 0.56108 0.33944 0.97467 0.0
H234 H 0.62066 0.27999 0.98016 0.0
C235 C 0.86823 0.12034 0.97806 0.0
C236 C 0.78437 0.21766 0.99953 0.0
H237 H 0.67513 0.25777 0.02351 0.0
C238 C 0.79341 0.2506 0.98257 0.0
C239 C 0.74082 0.2199 0.0142 0.0
C240 C 0.72761 0.18425 0.03161 0.0
C241 C 0.76031 0.2858 0.97995 0.0
C242 C 0.71749 0.28882 0.99523 0.0
C243 C 0.70825 0.25572 0.01206 0.0
C244 C 0.68102 0.32519 0.99326 0.0
C245 C 0.77095 0.31872 0.96028 0.0
C246 C 0.69479 0.3704 0.99941 0.0
C247 C 0.66089 0.4045 0.99609 0.0
C248 C 0.61238 0.394 0.98687 0.0
C249 C 0.59822 0.34868 0.98169 0.0
C250 C 0.63221 0.31463 0.98485 0.0
H251 H 0.79751 0.30498 0.94516 0.0
H252 H 0.73678 0.328 0.94948 0.0
H253 H 0.78725 0.34965 0.97142 0.0
H254 H 0.7319 0.37934 0.00658 0.0
H255 H 0.6728 0.43906 1.00058 0.0
H256 H 0.61417 0.60234 0.46111 0.0
H257 H 0.68115 0.6567 0.4614 0.0
H258 H 0.68188 0.67809 0.54816 0.0
H259 H 0.61542 0.62335 0.54813 0.0
H260 H 0.68556 0.7468 0.48176 0.0
H261 H 0.82538 0.6487 0.53284 0.0
H262 H 0.76813 0.6245 0.51866 0.0
H263 H 0.77003 0.65763 0.55105 0.0
C264 C 0.62858 0.61857 0.48028 0.0
C265 C 0.60962 0.60832 0.50462 0.0
C266 C 0.66683 0.64964 0.48038 0.0
C267 C 0.687 0.67086 0.5048 0.0
C268 C 0.66755 0.66137 0.52911 0.0
H269 H 0.86096 0.9102 0.54001 0.0
H270 H 0.79544 0.85462 0.53035 0.0
C271 C 0.62935 0.63026 0.52904 0.0
C272 C 0.72805 0.70329 0.50489 0.0
H273 H 0.84545 0.72495 0.52921 0.0
C274 C 0.72068 0.74191 0.49195 0.0
C275 C 0.7741 0.69644 0.51778 0.0
C276 C 0.78519 0.65437 0.53064 0.0
C277 C 0.75761 0.77466 0.49236 0.0
C278 C 0.80276 0.76886 0.50644 0.0
C279 C 0.81068 0.72951 0.51858 0.0
C280 C 0.8416 0.8039 0.50988 0.0
C281 C 0.74798 0.81505 0.47766 0.0
C282 C 0.88948 0.79382 0.50171 0.0
C283 C 0.92724 0.82549 0.50739 0.0
C284 C 0.9178 0.86769 0.52155 0.0
C285 C 0.86949 0.87809 0.52901 0.0
C286 C 0.83185 0.84642 0.52334 0.0
H287 H 0.71905 0.80801 0.46145 0.0
H288 H 0.73501 0.84306 0.4921 0.0
H289 H 0.78187 0.82614 0.46865 0.0
H290 H 0.89782 0.76111 0.49139 0.0
H291 H 0.96403 0.81642 0.50135 0.0
H292 H 0.60363 0.39119 0.4596 0.0
H293 H 0.66643 0.33312 0.45924 0.0
H294 H 0.68468 0.35848 0.54565 0.0
H295 H 0.62173 0.41691 0.54629 0.0
H296 H 0.77451 0.35393 0.51638 0.0
H297 H 0.65182 0.20798 0.48577 0.0
H298 H 0.6447 0.25264 0.46499 0.0
H299 H 0.62917 0.26192 0.4998 0.0
C300 C 0.62081 0.38439 0.47857 0.0
C301 C 0.60751 0.40857 0.50299 0.0
C302 C 0.65651 0.35102 0.47833 0.0
C303 C 0.6796 0.34112 0.50245 0.0
C304 C 0.66695 0.36546 0.52685 0.0
H305 H 0.93001 0.15792 0.51811 0.0
H306 H 0.86348 0.21076 0.53011 0.0
C307 C 0.63098 0.39877 0.52716 0.0
C308 C 0.71796 0.30616 0.50187 0.0
H309 H 0.73787 0.19539 0.48169 0.0
C310 C 0.76657 0.3191 0.50919 0.0
C311 C 0.70725 0.26083 0.49256 0.0
C312 C 0.65534 0.2448 0.48555 0.0
C313 C 0.80529 0.28825 0.50603 0.0
C314 C 0.79477 0.24319 0.49577 0.0
C315 C 0.74584 0.22998 0.48948 0.0
C316 C 0.83415 0.21009 0.48924 0.0
C317 C 0.85728 0.30462 0.51239 0.0
C318 C 0.83881 0.19129 0.46247 0.0
C319 C 0.87631 0.16096 0.45562 0.0
C320 C 0.91 0.14868 0.47542 0.0
C321 C 0.90479 0.16689 0.50237 0.0
C322 C 0.86701 0.19727 0.50924 0.0
H323 H 0.8598 0.34181 0.51489 0.0
H324 H 0.87084 0.2926 0.53146 0.0
H325 H 0.88195 0.29122 0.49622 0.0
H326 H 0.81377 0.20063 0.44674 0.0
H327 H 0.87912 0.14754 0.43468 0.0
H328 H 0.38002 0.4177 0.54488 0.0
H329 H 0.32219 0.3557 0.54535 0.0
H330 H 0.33229 0.32424 0.45941 0.0
H331 H 0.38945 0.38701 0.45863 0.0
H332 H 0.23768 0.31999 0.47526 0.0
H333 H 0.35989 0.22459 0.53862 0.0
H334 H 0.3483 0.28034 0.55409 0.0
H335 H 0.38109 0.27223 0.52334 0.0
C336 C 0.36992 0.39769 0.52604 0.0
C337 C 0.38969 0.4071 0.50174 0.0
C338 C 0.33706 0.36205 0.52638 0.0
C339 C 0.32376 0.33469 0.50251 0.0
C340 C 0.34233 0.34472 0.4781 0.0
H341 H 0.18498 0.07382 0.50589 0.0
H342 H 0.24017 0.13448 0.49748 0.0
C343 C 0.37501 0.38059 0.4777 0.0
C344 C 0.29055 0.29563 0.50311 0.0
H345 H 0.2766 0.19987 0.53274 0.0
C346 C 0.24629 0.29353 0.48767 0.0
C347 C 0.30225 0.26066 0.5189 0.0
C348 C 0.35069 0.25922 0.53445 0.0
C349 C 0.21276 0.25809 0.48822 0.0
C350 C 0.2233 0.2244 0.50514 0.0
C351 C 0.26821 0.2259 0.51997 0.0
C352 C 0.18824 0.18755 0.50818 0.0
C353 C 0.16673 0.25687 0.47039 0.0
C354 C 0.14056 0.19709 0.5169 0.0
C355 C 0.10876 0.16243 0.52147 0.0
C356 C 0.12433 0.11756 0.51788 0.0
C357 C 0.17191 0.10803 0.50892 0.0
C358 C 0.20351 0.14268 0.50411 0.0
H359 H 0.17162 0.27583 0.45288 0.0
H360 H 0.15582 0.22191 0.4628 0.0
H361 H 0.1363 0.27274 0.48214 0.0
H362 H 0.1283 0.23144 0.52087 0.0
H363 H 0.07244 0.17093 0.52849 0.0
H364 H 0.37682 0.60205 0.4597 0.0
H365 H 0.3162 0.6619 0.45924 0.0
H366 H 0.33088 0.6884 0.54576 0.0
H367 H 0.39096 0.62789 0.5465 0.0
H368 H 0.23457 0.68763 0.52746 0.0
H369 H 0.34608 0.79537 0.4703 0.0
H370 H 0.33722 0.73979 0.45331 0.0
H371 H 0.37152 0.74793 0.48497 0.0
C372 C 0.36724 0.62059 0.47866 0.0
C373 C 0.38902 0.61036 0.50313 0.0
C374 C 0.33276 0.65499 0.47833 0.0
C375 C 0.31974 0.68023 0.50241 0.0
C376 C 0.34064 0.66955 0.52693 0.0
H377 H 0.1625 0.93353 0.50383 0.0
H378 H 0.22249 0.87544 0.51181 0.0
C379 C 0.37501 0.63498 0.5273 0.0
C380 C 0.28398 0.71746 0.50197 0.0
H381 H 0.26178 0.81504 0.4749 0.0
C382 C 0.24063 0.71567 0.51613 0.0
C383 C 0.29232 0.75444 0.48758 0.0
C384 C 0.33952 0.75986 0.47341 0.0
C385 C 0.20472 0.7492 0.51562 0.0
C386 C 0.21197 0.78498 0.5001 0.0
C387 C 0.25598 0.78739 0.48659 0.0
C388 C 0.17423 0.81994 0.49713 0.0
C389 C 0.15965 0.74616 0.53196 0.0
C390 C 0.12706 0.8081 0.48631 0.0
C391 C 0.09261 0.84122 0.48188 0.0
C392 C 0.10489 0.88688 0.48783 0.0
C393 C 0.15194 0.89867 0.49895 0.0
C394 C 0.18627 0.86551 0.50352 0.0
H395 H 0.1666 0.72565 0.5488 0.0
H396 H 0.14715 0.77992 0.54039 0.0
H397 H 0.1295 0.72983 0.51881 0.0
H398 H 0.11725 0.77325 0.48063 0.0
H399 H 0.05674 0.83101 0.47321 0.0
H400 H 0.9564 0.97827 0.1546 0.0
H401 H 0.96465 0.97707 0.20342 0.0
H402 H 0.07876 0.07754 0.20819 0.0
H403 H 0.07002 0.07972 0.15951 0.0
H404 H 0.05269 0.95707 0.23312 0.0
H405 H 0.98142 0.12748 0.26572 0.0
H406 H 0.9703 0.09946 0.23209 0.0
H407 H 0.02896 0.125 0.24165 0.0
C408 C 0.98268 0.00064 0.16611 0.0
C409 C 0.01245 0.02921 0.15323 0.0
C410 C 0.98759 -0.00034 0.19393 0.0
C411 C 0.022 0.02748 0.20936 0.0
C412 C 0.05156 0.05623 0.19664 0.0
H413 H 0.09536 0.07027 0.38115 0.0
H414 H 0.09564 0.07017 0.33225 0.0
C415 C 0.04679 0.05715 0.16882 0.0
C416 C 0.02792 0.02548 0.23868 0.0
H417 H 0.01522 0.08705 0.29975 0.0
C418 C 0.04445 0.98541 0.24774 0.0
C419 C 0.0174 0.06265 0.25759 0.0
C420 C -0.00185 0.10603 0.24889 0.0
C421 C 0.0511 0.98159 0.27532 0.0
C422 C 0.03998 0.0186 0.29426 0.0
C423 C 0.02387 0.0588 0.28516 0.0
C424 C 0.04297 0.01597 0.32363 0.0
C425 C 0.07062 0.93824 0.28391 0.0
C426 C 0.01347 0.98535 0.33494 0.0
C427 C 0.01334 0.98519 0.36283 0.0
C428 C 0.04238 0.01598 0.37997 0.0
C429 C 0.07263 0.04606 0.36854 0.0
C430 C 0.07279 0.04612 0.34061 0.0
H431 H 0.09063 0.91866 0.26755 0.0
H432 H 0.09569 0.94452 0.30199 0.0
H433 H 0.0394 0.91742 0.28898 0.0
H434 H 0.9894 0.96244 0.32224 0.0
H435 H 0.98941 0.96172 0.37095 0.0
H436 H 0.95315 0.04482 0.85177 0.0
H437 H 0.96201 0.04542 0.80322 0.0
H438 H 0.07039 0.9408 0.80341 0.0
H439 H 0.06109 0.93937 0.85172 0.0
H440 H 0.05201 0.06198 0.77744 0.0
H441 H 0.97166 0.89469 0.74145 0.0
H442 H 0.96124 0.92331 0.77454 0.0
H443 H 0.01822 0.89474 0.76788 0.0
C444 C 0.97822 0.02143 0.84136 0.0
C445 C 0.00637 0.99199 0.85552 0.0
C446 C 0.9835 0.02205 0.81372 0.0
C447 C 0.01654 0.99292 0.79978 0.0
C448 C 0.04424 0.96315 0.81378 0.0
H449 H 0.10652 0.93894 0.63552 0.0
H450 H 0.09949 0.94334 0.6843 0.0
C451 C 0.03916 0.96263 0.84139 0.0
C452 C 0.02347 -0.00542 0.77075 0.0
H453 H 0.01288 0.9318 0.70944 0.0
C454 C 0.04321 0.03369 0.76249 0.0
C455 C 0.0121 0.9575 0.75144 0.0
C456 C 0.98923 0.91527 0.75915 0.0
C457 C 0.05296 0.03633 0.73537 0.0
C458 C 0.04179 -0.00087 0.71605 0.0
C459 C 0.02169 0.96017 0.72434 0.0
C460 C 0.04991 -0.00018 0.68701 0.0
C461 C 0.07623 0.07843 0.72775 0.0
C462 C 0.02488 0.03054 0.67244 0.0
C463 C 0.02901 0.02829 0.64456 0.0
C464 C 0.05783 -0.00508 0.63072 0.0
C465 C 0.08399 0.96503 0.64553 0.0
C466 C 0.07996 0.96742 0.6734 0.0
H467 H 0.09464 0.09837 0.74543 0.0
H468 H 0.10361 0.0704 0.71203 0.0
H469 H 0.04731 0.09964 0.71957 0.0
H470 H 0.00075 0.05526 0.68246 0.0
H471 H 0.00816 0.05168 0.63377 0.0
H472 H 0.57777 0.48021 0.6517 0.0
H473 H 0.5843 0.47946 0.70035 0.0
H474 H 0.45012 0.55514 0.70892 0.0
H475 H 0.4448 0.55848 0.66034 0.0
H476 H 0.51904 0.5876 0.74541 0.0
H477 H 0.5072 0.40338 0.74489 0.0
H478 H 0.55644 0.42004 0.72538 0.0
H479 H 0.49383 0.43068 0.71522 0.0
C480 C 0.54987 0.49719 0.6639 0.0
C481 C 0.51073 0.51946 0.65202 0.0
C482 C 0.55327 0.49606 0.69172 0.0
C483 C 0.51717 0.51641 0.70822 0.0
C484 C 0.47818 0.53885 0.69651 0.0
H485 H 0.47301 0.47656 0.87419 0.0
H486 H 0.46953 0.4748 0.82524 0.0
C487 C 0.47498 0.5404 0.6687 0.0
C488 C 0.52086 0.51556 0.73778 0.0
H489 H 0.53119 0.44549 0.78671 0.0
C490 C 0.52147 0.55652 0.75446 0.0
C491 C 0.52338 0.47496 0.74955 0.0
C492 C 0.51967 0.42978 0.73285 0.0
C493 C 0.52502 0.55807 0.78259 0.0
C494 C 0.52959 0.51754 0.79433 0.0
C495 C 0.52842 0.47654 0.77766 0.0
C496 C 0.5337 0.51689 0.8239 0.0
C497 C 0.52259 0.60309 0.79942 0.0
C498 C 0.57174 0.54012 0.83935 0.0
C499 C 0.57353 0.54163 0.86739 0.0
C500 C 0.53779 0.51921 0.88043 0.0
C501 C 0.50108 0.49424 0.86479 0.0
C502 C 0.499 0.49321 0.8368 0.0
H503 H 0.50526 0.6288 0.7879 0.0
H504 H 0.50152 0.60093 0.8178 0.0
H505 H 0.5604 0.61469 0.80572 0.0
H506 H 0.59974 0.55755 0.82975 0.0
H507 H 0.60259 0.56073 0.87886 0.0
H508 H 0.55847 0.44068 0.35067 0.0
H509 H 0.5676 0.44206 0.30233 0.0
H510 H 0.45907 0.54654 0.30221 0.0
H511 H 0.45035 0.54599 0.35077 0.0
H512 H 0.49286 0.42889 0.25995 0.0
H513 H 0.58092 0.59738 0.26784 0.0
H514 H 0.57728 0.56581 0.29629 0.0
H515 H 0.52401 0.59412 0.28462 0.0
C516 C 0.5367 0.46409 0.34038 0.0
C517 C 0.50394 0.49345 0.35453 0.0
C518 C 0.54181 0.46469 0.31278 0.0
C519 C 0.51455 0.49485 0.29887 0.0
C520 C 0.48096 0.52351 0.31274 0.0
H521 H 0.51018 0.54412 0.13083 0.0
H522 H 0.49856 0.54855 0.17932 0.0
C523 C 0.47566 0.52281 0.34037 0.0
C524 C 0.5213 0.49589 0.26978 0.0
H525 H 0.56471 0.5606 0.22403 0.0
C526 C 0.50853 0.45765 0.25205 0.0
C527 C 0.54161 0.53358 0.25965 0.0
C528 C 0.55716 0.57502 0.27803 0.0
C529 C 0.51535 0.4561 0.22433 0.0
C530 C 0.53655 0.49347 0.21422 0.0
C531 C 0.54869 0.53198 0.23191 0.0
C532 C 0.54657 0.49293 0.18532 0.0
C533 C 0.49913 0.41472 0.20606 0.0
C534 C 0.57874 0.46119 0.17288 0.0
C535 C 0.58539 0.45846 0.14521 0.0
C536 C 0.56028 0.48774 0.12951 0.0
C537 C 0.52995 0.52097 0.14231 0.0
C538 C 0.5232 0.52355 0.17 0.0
H539 H 0.47202 0.3947 0.21571 0.0
H540 H 0.48255 0.42368 0.1868 0.0
H541 H 0.53153 0.3932 0.20139 0.0
H542 H 0.59803 0.43795 0.1845 0.0
H543 H 0.60935 0.43274 0.13605 0.0
loop_
_geom_bond_atom_site_label_1
_geom_bond_atom_site_label_2
_geom_bond_distance
_geom_bond_site_symmetry_2
_ccdc_geom_bond_type
C0 O16 1.251 . S
C0 O18 1.254 1_554 S
N1 C2 1.333 1_455 S
N1 C6 1.307 . S
N1 Zn7 2.020 . S
C2 N1 1.333 1_655 S
C2 C3 1.379 . S
C2 H20 0.952 1_545 S
C3 C2 1.379 . S
C3 C4 1.390 1_655 S
C3 H30 0.949 . S
C4 C3 1.390 1_455 S
C4 C5 1.357 . S
C5 C4 1.357 . S
C5 C6 1.370 . S
C5 H31 0.950 . S
C6 N1 1.307 . S
C6 C5 1.370 . S
C6 H24 0.948 . S
Zn7 N1 2.020 . S
Zn7 O16 2.039 1_445 S
Zn7 O22 2.034 1_455 S
Zn7 O26 2.025 . S
Zn7 O28 2.024 1_545 S
C8 O27 1.246 1_554 S
C8 O28 1.249 . S
N9 C10 1.307 1_445 S
N9 C11 1.333 . S
N9 Zn15 2.020 . S
C10 N9 1.307 1_665 S
C10 C14 1.370 . S
C10 H21 0.948 . S
C11 N9 1.333 . S
C11 C12 1.379 . S
C11 H19 0.952 . S
C12 C11 1.379 . S
C12 C13 1.390 . S
C12 H32 0.949 . S
C13 C12 1.390 . S
C13 C14 1.357 1_445 S
C14 C10 1.370 . S
C14 C13 1.357 1_665 S
C14 H33 0.950 . S
Zn15 N9 2.020 . S
Zn15 O18 2.025 1_445 S
Zn15 O23 2.024 1_455 S
Zn15 O25 2.039 . S
Zn15 O27 2.034 1_545 S
O16 C0 1.251 . S
O16 Zn7 2.039 1_665 S
C17 O22 1.246 . S
C17 O23 1.249 1_554 S
O18 C0 1.254 1_556 S
O18 Zn15 2.025 1_665 S
H19 C11 0.952 . S
H20 C2 0.952 1_565 S
H21 C10 0.948 . S
O22 Zn7 2.034 1_655 S
O22 C17 1.246 . S
O23 Zn15 2.024 1_655 S
O23 C17 1.249 1_556 S
H24 C6 0.948 . S
O25 Zn15 2.039 . S
O25 C29 1.251 1_556 S
O26 Zn7 2.025 . S
O26 C29 1.254 . S
O27 C8 1.246 1_556 S
O27 Zn15 2.034 1_565 S
O28 Zn7 2.024 1_565 S
O28 C8 1.249 . S
C29 O25 1.251 1_554 S
C29 O26 1.254 . S
H30 C3 0.949 . S
H31 C5 0.950 . S
H32 C12 0.949 . S
H33 C14 0.950 . S
C34 O50 1.251 . S
C34 O52 1.254 . S
N35 C36 1.333 . S
N35 C40 1.307 . S
N35 Zn41 2.020 . S
C36 N35 1.333 . S
C36 C37 1.379 . S
C36 H54 0.952 . S
C37 C36 1.379 . S
C37 C38 1.390 . S
C37 H64 0.949 . S
C38 C37 1.390 . S
C38 C39 1.357 . S
C39 C38 1.357 . S
C39 C40 1.370 . S
C39 H65 0.950 . S
C40 N35 1.307 . S
C40 C39 1.370 . S
C40 H58 0.948 . S
Zn41 N35 2.020 . S
Zn41 O50 2.039 . S
Zn41 O56 2.034 . S
Zn41 O60 2.025 . S
Zn41 O62 2.024 . S
C42 O61 1.246 . S
C42 O62 1.249 . S
N43 C44 1.307 . S
N43 C45 1.333 . S
N43 Zn49 2.020 . S
C44 N43 1.307 . S
C44 C48 1.370 . S
C44 H55 0.948 . S
C45 N43 1.333 . S
C45 C46 1.379 . S
C45 H53 0.952 . S
C46 C45 1.379 . S
C46 C47 1.390 . S
C46 H66 0.949 . S
C47 C46 1.390 . S
C47 C48 1.357 . S
C48 C44 1.370 . S
C48 C47 1.357 . S
C48 H67 0.950 . S
Zn49 N43 2.020 . S
Zn49 O52 2.025 . S
Zn49 O57 2.024 . S
Zn49 O59 2.039 . S
Zn49 O61 2.034 . S
O50 C34 1.251 . S
O50 Zn41 2.039 . S
C51 O56 1.246 . S
C51 O57 1.249 . S
O52 C34 1.254 . S
O52 Zn49 2.025 . S
H53 C45 0.952 . S
H54 C36 0.952 . S
H55 C44 0.948 . S
O56 Zn41 2.034 . S
O56 C51 1.246 . S
O57 Zn49 2.024 . S
O57 C51 1.249 . S
H58 C40 0.948 . S
O59 Zn49 2.039 . S
O59 C63 1.251 . S
O60 Zn41 2.025 . S
O60 C63 1.254 . S
O61 C42 1.246 . S
O61 Zn49 2.034 . S
O62 Zn41 2.024 . S
O62 C42 1.249 . S
C63 O59 1.251 . S
C63 O60 1.254 . S
H64 C37 0.949 . S
H65 C39 0.950 . S
H66 C46 0.949 . S
H67 C48 0.950 . S
O68 Cd69 2.300 1_565 S
O68 C75 1.275 1_565 S
Cd69 O68 2.300 1_545 S
Cd69 O77 2.381 1_545 S
Cd69 O78 2.378 1_545 S
O70 Cd71 2.385 . S
O70 C75 1.255 . S
Cd71 O70 2.385 . S
Cd71 O72 2.317 1_455 S
O72 Cd71 2.317 1_655 S
O72 C73 1.232 . S
C73 O72 1.232 . S
C73 O74 1.218 . S
O74 C73 1.218 . S
C75 O68 1.275 1_545 S
C75 O70 1.255 . S
C76 O77 1.258 . S
C76 O78 1.256 . S
O77 Cd69 2.381 1_565 S
O77 C76 1.258 . S
O78 Cd69 2.378 1_565 S
O78 C76 1.256 . S
O79 Cd80 2.300 . S
O79 C86 1.258 1_545 S
Cd80 O79 2.300 . S
Cd80 O88 2.381 . S
Cd80 O89 2.378 . S
O81 Cd82 2.385 . S
O81 C86 1.270 . S
Cd82 O81 2.385 . S
Cd82 O83 2.317 1_455 S
O83 Cd82 2.317 1_655 S
O83 C84 1.232 . S
C84 O83 1.232 . S
C84 O85 1.218 . S
O85 C84 1.218 . S
C86 O79 1.258 1_565 S
C86 O81 1.270 . S
C87 O88 1.258 . S
C87 O89 1.256 . S
O88 Cd80 2.381 . S
O88 C87 1.258 . S
O89 Cd80 2.378 . S
O89 C87 1.256 . S
O90 Cd91 2.300 . S
O90 C97 1.275 . S
Cd91 O90 2.300 . S
Cd91 O99 2.381 . S
Cd91 O100 2.378 . S
O92 Cd93 2.385 . S
O92 C97 1.255 . S
Cd93 O92 2.385 . S
Cd93 O94 2.317 . S
O94 Cd93 2.317 . S
O94 C95 1.232 . S
C95 O94 1.232 . S
C95 O96 1.218 . S
O96 C95 1.218 . S
C97 O90 1.275 . S
C97 O92 1.255 . S
C98 O99 1.258 . S
C98 O100 1.256 . S
O99 Cd91 2.381 . S
O99 C98 1.258 . S
O100 Cd91 2.378 . S
O100 C98 1.256 . S
O101 Cd102 2.300 . S
O101 C108 1.275 . S
Cd102 O101 2.300 . S
Cd102 O110 2.381 . S
Cd102 O111 2.378 . S
O103 Cd104 2.385 . S
O103 C108 1.255 . S
Cd104 O103 2.385 . S
Cd104 O105 2.317 . S
O105 Cd104 2.317 . S
O105 C106 1.232 . S
C106 O105 1.232 . S
C106 O107 1.218 . S
O107 C106 1.218 . S
C108 O101 1.275 . S
C108 O103 1.255 . S
C109 O110 1.258 . S
C109 O111 1.256 . S
O110 Cd102 2.381 . S
O110 C109 1.258 . S
O111 Cd102 2.378 . S
O111 C109 1.256 . S
H112 C120 0.929 . S
H113 C122 0.930 . S
H114 C124 0.930 . S
H115 C127 0.929 . S
H116 C130 0.921 1_556 S
H117 C132 0.960 . S
H118 C132 0.960 . S
H119 C132 0.960 . S
C120 H112 0.929 . S
C120 C121 1.377 1_556 S
C120 C122 1.384 . S
C121 C120 1.377 1_554 S
C121 C127 1.390 . S
C122 H113 0.930 . S
C122 C120 1.384 . S
C122 C123 1.372 1_556 S
C123 C122 1.372 1_554 S
C123 C124 1.400 . S
C123 C128 1.490 . S
C124 H114 0.930 . S
C124 C123 1.400 . S
C124 C127 1.386 . S
H125 C141 0.930 . S
H126 C142 0.931 . S
C127 H115 0.929 . S
C127 C121 1.390 . S
C127 C124 1.386 . S
C128 C123 1.490 . S
C128 C130 1.395 . S
C128 C131 1.403 . S
H129 C135 0.930 . S
C130 H116 0.921 1_554 S
C130 C128 1.395 . S
C130 C133 1.403 . S
C131 C128 1.403 . S
C131 C132 1.524 . S
C131 C135 1.400 . S
C132 H117 0.960 . S
C132 H118 0.960 . S
C132 H119 0.960 . S
C132 C131 1.524 . S
C133 C130 1.403 . S
C133 C134 1.392 . S
C133 C137 1.498 . S
C134 C133 1.392 . S
C134 C135 1.385 . S
C134 C136 1.478 . S
C135 H129 0.930 . S
C135 C131 1.400 . S
C135 C134 1.385 . S
C136 C134 1.478 . S
C136 C138 1.381 1_554 S
C136 C142 1.383 . S
C137 C133 1.498 . S
C137 H143 0.957 1_554 S
C137 H144 0.968 . S
C137 H145 0.952 1_554 S
C138 C136 1.381 1_556 S
C138 C139 1.394 . S
C138 H146 0.930 . S
C139 C138 1.394 . S
C139 C140 1.383 1_556 S
C139 H147 0.929 . S
C140 C139 1.383 1_554 S
C140 C141 1.377 . S
C141 H125 0.930 . S
C141 C140 1.377 . S
C141 C142 1.379 . S
C142 H126 0.931 . S
C142 C136 1.383 . S
C142 C141 1.379 . S
H143 C137 0.957 1_556 S
H144 C137 0.968 . S
H145 C137 0.952 1_556 S
H146 C138 0.930 . S
H147 C139 0.929 . S
H148 C156 0.929 . S
H149 C158 0.930 . S
H150 C160 0.930 . S
H151 C163 0.929 . S
H152 C166 0.930 . S
H153 C168 0.960 . S
H154 C168 0.960 . S
H155 C168 0.960 . S
C156 H148 0.929 . S
C156 C157 1.375 1_554 S
C156 C158 1.384 . S
C157 C156 1.375 1_556 S
C157 C163 1.392 . S
C158 H149 0.930 . S
C158 C156 1.384 . S
C158 C159 1.372 1_554 S
C159 C158 1.372 1_556 S
C159 C160 1.400 . S
C159 C164 1.490 . S
C160 H150 0.930 . S
C160 C159 1.400 . S
C160 C163 1.386 . S
H161 C177 0.930 . S
H162 C178 0.931 . S
C163 H151 0.929 . S
C163 C157 1.392 . S
C163 C160 1.386 . S
C164 C159 1.490 . S
C164 C166 1.395 . S
C164 C167 1.403 1_556 S
H165 C171 0.930 . S
C166 H152 0.930 . S
C166 C164 1.395 . S
C166 C169 1.403 . S
C167 C164 1.403 1_554 S
C167 C168 1.524 . S
C167 C171 1.400 . S
C168 H153 0.960 . S
C168 H154 0.960 . S
C168 H155 0.960 . S
C168 C167 1.524 . S
C169 C166 1.403 . S
C169 C170 1.392 . S
C169 C173 1.495 . S
C170 C169 1.392 . S
C170 C171 1.385 1_556 S
C170 C172 1.478 . S
C171 H165 0.930 . S
C171 C167 1.400 . S
C171 C170 1.385 1_554 S
C172 C170 1.478 . S
C172 C174 1.381 . S
C172 C178 1.383 . S
C173 C169 1.495 . S
C173 H179 0.959 . S
C173 H180 0.961 . S
C173 H181 0.960 . S
C174 C172 1.381 . S
C174 C175 1.394 . S
C174 H182 0.930 1_556 S
C175 C174 1.394 . S
C175 C176 1.383 . S
C175 H183 0.934 . S
C176 C175 1.383 . S
C176 C177 1.377 . S
C177 H161 0.930 . S
C177 C176 1.377 . S
C177 C178 1.379 . S
C178 H162 0.931 . S
C178 C172 1.383 . S
C178 C177 1.379 . S
H179 C173 0.959 . S
H180 C173 0.961 . S
H181 C173 0.960 . S
H182 C174 0.930 1_554 S
H183 C175 0.934 . S
H184 C192 0.929 . S
H185 C194 0.930 . S
H186 C196 0.930 . S
H187 C199 0.929 . S
H188 C202 0.930 . S
H189 C204 0.960 . S
H190 C204 0.960 . S
H191 C204 0.960 . S
C192 H184 0.929 . S
C192 C193 1.377 1_556 S
C192 C194 1.384 . S
C193 C192 1.377 1_554 S
C193 C199 1.390 . S
C194 H185 0.930 . S
C194 C192 1.384 . S
C194 C195 1.372 1_556 S
C195 C194 1.372 1_554 S
C195 C196 1.400 . S
C195 C200 1.490 . S
C196 H186 0.930 . S
C196 C195 1.400 . S
C196 C199 1.386 . S
H197 C213 0.930 . S
H198 C214 0.931 . S
C199 H187 0.929 . S
C199 C193 1.390 . S
C199 C196 1.386 . S
C200 C195 1.490 . S
C200 C202 1.395 1_554 S
C200 C203 1.403 . S
H201 C207 0.930 . S
C202 H188 0.930 . S
C202 C200 1.395 1_556 S
C202 C205 1.403 . S
C203 C200 1.403 . S
C203 C204 1.524 . S
C203 C207 1.400 . S
C204 H189 0.960 . S
C204 H190 0.960 . S
C204 H191 0.960 . S
C204 C203 1.524 . S
C205 C202 1.403 . S
C205 C206 1.392 1_556 S
C205 C209 1.495 . S
C206 C205 1.392 1_554 S
C206 C207 1.385 . S
C206 C208 1.478 . S
C207 H201 0.930 . S
C207 C203 1.400 . S
C207 C206 1.385 . S
C208 C206 1.478 . S
C208 C210 1.381 . S
C208 C214 1.383 . S
C209 C205 1.495 . S
C209 H215 0.959 . S
C209 H216 0.961 . S
C209 H217 0.960 . S
C210 C208 1.381 . S
C210 C211 1.394 . S
C210 H218 0.930 . S
C211 C210 1.394 . S
C211 C212 1.383 . S
C211 H219 0.929 . S
C212 C211 1.383 . S
C212 C213 1.377 . S
C213 H197 0.930 . S
C213 C212 1.377 . S
C213 C214 1.379 . S
C214 H198 0.931 . S
C214 C208 1.383 . S
C214 C213 1.379 . S
H215 C209 0.959 . S
H216 C209 0.961 . S
H217 C209 0.960 . S
H218 C210 0.930 . S
H219 C211 0.929 . S
H220 C228 0.929 . S
H221 C230 0.930 . S
H222 C232 0.930 . S
H223 C235 0.929 . S
H224 C238 0.930 . S
H225 C240 0.960 . S
H226 C240 0.960 . S
H227 C240 0.960 . S
C228 H220 0.929 . S
C228 C229 1.377 . S
C228 C230 1.384 . S
C229 C228 1.377 . S
C229 C235 1.390 1_554 S
C230 H221 0.930 . S
C230 C228 1.384 . S
C230 C231 1.372 . S
C231 C230 1.372 . S
C231 C232 1.400 1_554 S
C231 C236 1.488 1_554 S
C232 H222 0.930 . S
C232 C231 1.400 1_556 S
C232 C235 1.386 . S
H233 C249 0.930 . S
H234 C250 0.931 . S
C235 H223 0.929 . S
C235 C229 1.390 1_556 S
C235 C232 1.386 . S
C236 C231 1.488 1_556 S
C236 C238 1.404 . S
C236 C239 1.395 1_556 S
H237 C243 0.930 . S
C238 H224 0.930 . S
C238 C236 1.404 . S
C238 C241 1.403 . S
C239 C236 1.395 1_554 S
C239 C240 1.524 . S
C239 C243 1.400 . S
C240 H225 0.960 . S
C240 H226 0.960 . S
C240 H227 0.960 . S
C240 C239 1.524 . S
C241 C238 1.403 . S
C241 C242 1.392 . S
C241 C245 1.495 . S
C242 C241 1.392 . S
C242 C243 1.385 1_556 S
C242 C244 1.478 . S
C243 H237 0.930 . S
C243 C239 1.400 . S
C243 C242 1.385 1_554 S
C244 C242 1.478 . S
C244 C246 1.373 1_556 S
C244 C250 1.383 . S
C245 C241 1.495 . S
C245 H251 0.959 . S
C245 H252 0.961 . S
C245 H253 0.960 . S
C246 C244 1.373 1_554 S
C246 C247 1.393 . S
C246 H254 0.942 . S
C247 C246 1.393 . S
C247 C248 1.377 1_554 S
C247 H255 0.935 . S
C248 C247 1.377 1_556 S
C248 C249 1.377 . S
C249 H233 0.930 . S
C249 C248 1.377 . S
C249 C250 1.379 . S
C250 H234 0.931 . S
C250 C244 1.383 . S
C250 C249 1.379 . S
H251 C245 0.959 . S
H252 C245 0.961 . S
H253 C245 0.960 . S
H254 C246 0.942 . S
H255 C247 0.935 . S
H256 C264 0.929 . S
H257 C266 0.930 . S
H258 C268 0.930 . S
H259 C271 0.929 . S
H260 C274 0.930 . S
H261 C276 0.960 . S
H262 C276 0.960 . S
H263 C276 0.960 . S
C264 H256 0.929 . S
C264 C265 1.377 . S
C264 C266 1.384 . S
C265 C264 1.377 . S
C265 C271 1.390 . S
C266 H257 0.930 . S
C266 C264 1.384 . S
C266 C267 1.372 . S
C267 C266 1.372 . S
C267 C268 1.400 . S
C267 C272 1.490 . S
C268 H258 0.930 . S
C268 C267 1.400 . S
C268 C271 1.386 . S
H269 C285 0.930 . S
H270 C286 0.931 . S
C271 H259 0.929 . S
C271 C265 1.390 . S
C271 C268 1.386 . S
C272 C267 1.490 . S
C272 C274 1.395 . S
C272 C275 1.403 . S
H273 C279 0.930 . S
C274 H260 0.930 . S
C274 C272 1.395 . S
C274 C277 1.403 . S
C275 C272 1.403 . S
C275 C276 1.524 . S
C275 C279 1.400 . S
C276 H261 0.960 . S
C276 H262 0.960 . S
C276 H263 0.960 . S
C276 C275 1.524 . S
C277 C274 1.403 . S
C277 C278 1.392 . S
C277 C281 1.495 . S
C278 C277 1.392 . S
C278 C279 1.385 . S
C278 C280 1.478 . S
C279 H273 0.930 . S
C279 C275 1.400 . S
C279 C278 1.385 . S
C280 C278 1.478 . S
C280 C282 1.381 . S
C280 C286 1.383 . S
C281 C277 1.495 . S
C281 H287 0.959 . S
C281 H288 0.961 . S
C281 H289 0.960 . S
C282 C280 1.381 . S
C282 C283 1.394 . S
C282 H290 0.930 . S
C283 C282 1.394 . S
C283 C284 1.383 . S
C283 H291 0.929 . S
C284 C283 1.383 . S
C284 C285 1.377 . S
C285 H269 0.930 . S
C285 C284 1.377 . S
C285 C286 1.379 . S
C286 H270 0.931 . S
C286 C280 1.383 . S
C286 C285 1.379 . S
H287 C281 0.959 . S
H288 C281 0.961 . S
H289 C281 0.960 . S
H290 C282 0.930 . S
H291 C283 0.929 . S
H292 C300 0.929 . S
H293 C302 0.930 . S
H294 C304 0.930 . S
H295 C307 0.929 . S
H296 C310 0.930 . S
H297 C312 0.960 . S
H298 C312 0.960 . S
H299 C312 0.960 . S
C300 H292 0.929 . S
C300 C301 1.377 . S
C300 C302 1.384 . S
C301 C300 1.377 . S
C301 C307 1.390 . S
C302 H293 0.930 . S
C302 C300 1.384 . S
C302 C303 1.372 . S
C303 C302 1.372 . S
C303 C304 1.400 . S
C303 C308 1.490 . S
C304 H294 0.930 . S
C304 C303 1.400 . S
C304 C307 1.386 . S
H305 C321 0.930 . S
H306 C322 0.931 . S
C307 H295 0.929 . S
C307 C301 1.390 . S
C307 C304 1.386 . S
C308 C303 1.490 . S
C308 C310 1.395 . S
C308 C311 1.403 . S
H309 C315 0.930 . S
C310 H296 0.930 . S
C310 C308 1.395 . S
C310 C313 1.403 . S
C311 C308 1.403 . S
C311 C312 1.524 . S
C311 C315 1.400 . S
C312 H297 0.960 . S
C312 H298 0.960 . S
C312 H299 0.960 . S
C312 C311 1.524 . S
C313 C310 1.403 . S
C313 C314 1.392 . S
C313 C317 1.495 . S
C314 C313 1.392 . S
C314 C315 1.385 . S
C314 C316 1.478 . S
C315 H309 0.930 . S
C315 C311 1.400 . S
C315 C314 1.385 . S
C316 C314 1.478 . S
C316 C318 1.381 . S
C316 C322 1.383 . S
C317 C313 1.495 . S
C317 H323 0.959 . S
C317 H324 0.961 . S
C317 H325 0.960 . S
C318 C316 1.381 . S
C318 C319 1.394 . S
C318 H326 0.930 . S
C319 C318 1.394 . S
C319 C320 1.383 . S
C319 H327 0.929 . S
C320 C319 1.383 . S
C320 C321 1.377 . S
C321 H305 0.930 . S
C321 C320 1.377 . S
C321 C322 1.379 . S
C322 H306 0.931 . S
C322 C316 1.383 . S
C322 C321 1.379 . S
H323 C317 0.959 . S
H324 C317 0.961 . S
H325 C317 0.960 . S
H326 C318 0.930 . S
H327 C319 0.929 . S
H328 C336 0.929 . S
H329 C338 0.930 . S
H330 C340 0.930 . S
H331 C343 0.929 . S
H332 C346 0.930 . S
H333 C348 0.960 . S
H334 C348 0.960 . S
H335 C348 0.960 . S
C336 H328 0.929 . S
C336 C337 1.377 . S
C336 C338 1.384 . S
C337 C336 1.377 . S
C337 C343 1.390 . S
C338 H329 0.930 . S
C338 C336 1.384 . S
C338 C339 1.372 . S
C339 C338 1.372 . S
C339 C340 1.400 . S
C339 C344 1.490 . S
C340 H330 0.930 . S
C340 C339 1.400 . S
C340 C343 1.386 . S
H341 C357 0.930 . S
H342 C358 0.931 . S
C343 H331 0.929 . S
C343 C337 1.390 . S
C343 C340 1.386 . S
C344 C339 1.490 . S
C344 C346 1.395 . S
C344 C347 1.403 . S
H345 C351 0.930 . S
C346 H332 0.930 . S
C346 C344 1.395 . S
C346 C349 1.403 . S
C347 C344 1.403 . S
C347 C348 1.524 . S
C347 C351 1.400 . S
C348 H333 0.960 . S
C348 H334 0.960 . S
C348 H335 0.960 . S
C348 C347 1.524 . S
C349 C346 1.403 . S
C349 C350 1.392 . S
C349 C353 1.495 . S
C350 C349 1.392 . S
C350 C351 1.385 . S
C350 C352 1.478 . S
C351 H345 0.930 . S
C351 C347 1.400 . S
C351 C350 1.385 . S
C352 C350 1.478 . S
C352 C354 1.381 . S
C352 C358 1.383 . S
C353 C349 1.495 . S
C353 H359 0.959 . S
C353 H360 0.961 . S
C353 H361 0.960 . S
C354 C352 1.381 . S
C354 C355 1.394 . S
C354 H362 0.930 . S
C355 C354 1.394 . S
C355 C356 1.383 . S
C355 H363 0.929 . S
C356 C355 1.383 . S
C356 C357 1.377 . S
C357 H341 0.930 . S
C357 C356 1.377 . S
C357 C358 1.379 . S
C358 H342 0.931 . S
C358 C352 1.383 . S
C358 C357 1.379 . S
H359 C353 0.959 . S
H360 C353 0.961 . S
H361 C353 0.960 . S
H362 C354 0.930 . S
H363 C355 0.929 . S
H364 C372 0.929 . S
H365 C374 0.930 . S
H366 C376 0.930 . S
H367 C379 0.929 . S
H368 C382 0.930 . S
H369 C384 0.960 . S
H370 C384 0.960 . S
H371 C384 0.960 . S
C372 H364 0.929 . S
C372 C373 1.377 . S
C372 C374 1.384 . S
C373 C372 1.377 . S
C373 C379 1.390 . S
C374 H365 0.930 . S
C374 C372 1.384 . S
C374 C375 1.372 . S
C375 C374 1.372 . S
C375 C376 1.400 . S
C375 C380 1.490 . S
C376 H366 0.930 . S
C376 C375 1.400 . S
C376 C379 1.386 . S
H377 C393 0.930 . S
H378 C394 0.931 . S
C379 H367 0.929 . S
C379 C373 1.390 . S
C379 C376 1.386 . S
C380 C375 1.490 . S
C380 C382 1.395 . S
C380 C383 1.403 . S
H381 C387 0.930 . S
C382 H368 0.930 . S
C382 C380 1.395 . S
C382 C385 1.403 . S
C383 C380 1.403 . S
C383 C384 1.524 . S
C383 C387 1.400 . S
C384 H369 0.960 . S
C384 H370 0.960 . S
C384 H371 0.960 . S
C384 C383 1.524 . S
C385 C382 1.403 . S
C385 C386 1.392 . S
C385 C389 1.495 . S
C386 C385 1.392 . S
C386 C387 1.385 . S
C386 C388 1.478 . S
C387 H381 0.930 . S
C387 C383 1.400 . S
C387 C386 1.385 . S
C388 C386 1.478 . S
C388 C390 1.381 . S
C388 C394 1.383 . S
C389 C385 1.495 . S
C389 H395 0.959 . S
C389 H396 0.961 . S
C389 H397 0.960 . S
C390 C388 1.381 . S
C390 C391 1.394 . S
C390 H398 0.930 . S
C391 C390 1.394 . S
C391 C392 1.383 . S
C391 H399 0.929 . S
C392 C391 1.383 . S
C392 C393 1.377 . S
C393 H377 0.930 . S
C393 C392 1.377 . S
C393 C394 1.379 . S
C394 H378 0.931 . S
C394 C388 1.383 . S
C394 C393 1.379 . S
H395 C389 0.959 . S
H396 C389 0.961 . S
H397 C389 0.960 . S
H398 C390 0.930 . S
H399 C391 0.929 . S
H400 C408 0.929 . S
H401 C410 0.932 . S
H402 C412 0.930 . S
H403 C415 0.929 . S
H404 C418 0.930 1_655 S
H405 C420 0.960 . S
H406 C420 0.960 1_655 S
H407 C420 0.960 . S
C408 H400 0.929 . S
C408 C409 1.377 1_655 S
C408 C410 1.384 . S
C409 C408 1.377 1_455 S
C409 C415 1.390 . S
C410 H401 0.932 . S
C410 C408 1.384 . S
C410 C411 1.372 1_655 S
C411 C410 1.372 1_455 S
C411 C412 1.400 . S
C411 C416 1.490 . S
C412 H402 0.930 . S
C412 C411 1.400 . S
C412 C415 1.386 . S
H413 C429 0.930 . S
H414 C430 0.931 . S
C415 H403 0.929 . S
C415 C409 1.390 . S
C415 C412 1.386 . S
C416 C411 1.490 . S
C416 C418 1.395 1_545 S
C416 C419 1.403 . S
H417 C423 0.930 . S
C418 H404 0.930 1_455 S
C418 C416 1.395 1_565 S
C418 C421 1.403 . S
C419 C416 1.403 . S
C419 C420 1.524 . S
C419 C423 1.400 . S
C420 H405 0.960 . S
C420 H406 0.960 1_455 S
C420 H407 0.960 . S
C420 C419 1.524 . S
C421 C418 1.403 . S
C421 C422 1.392 1_565 S
C421 C425 1.495 1_455 S
C422 C421 1.392 1_545 S
C422 C423 1.385 . S
C422 C424 1.478 . S
C423 H417 0.930 . S
C423 C419 1.400 . S
C423 C422 1.385 . S
C424 C422 1.478 . S
C424 C426 1.381 1_455 S
C424 C430 1.383 . S
C425 C421 1.495 1_655 S
C425 H431 0.959 . S
C425 H432 0.961 1_655 S
C425 H433 0.960 . S
C426 C424 1.381 1_655 S
C426 C427 1.394 . S
C426 H434 0.930 1_545 S
C427 C426 1.394 . S
C427 C428 1.383 1_655 S
C427 H435 0.929 . S
C428 C427 1.383 1_455 S
C428 C429 1.377 . S
C429 H413 0.930 . S
C429 C428 1.377 . S
C429 C430 1.379 . S
C430 H414 0.931 . S
C430 C424 1.383 . S
C430 C429 1.379 . S
H431 C425 0.959 . S
H432 C425 0.961 1_455 S
H433 C425 0.960 . S
H434 C426 0.930 1_565 S
H435 C427 0.929 . S
H436 C444 0.929 . S
H437 C446 0.930 . S
H438 C448 0.930 . S
H439 C451 0.929 . S
H440 C454 0.930 . S
H441 C456 0.960 . S
H442 C456 0.960 . S
H443 C456 0.960 1_455 S
C444 H436 0.929 . S
C444 C445 1.377 1_655 S
C444 C446 1.384 . S
C445 C444 1.377 1_455 S
C445 C451 1.390 1_545 S
C446 H437 0.930 . S
C446 C444 1.384 . S
C446 C447 1.372 1_655 S
C447 C446 1.372 1_455 S
C447 C448 1.400 1_545 S
C447 C452 1.490 . S
C448 H438 0.930 . S
C448 C447 1.400 1_565 S
C448 C451 1.386 . S
H449 C465 0.930 . S
H450 C466 0.931 . S
C451 H439 0.929 . S
C451 C445 1.390 1_565 S
C451 C448 1.386 . S
C452 C447 1.490 . S
C452 C454 1.395 . S
C452 C455 1.403 1_545 S
H453 C459 0.935 . S
C454 H440 0.930 . S
C454 C452 1.395 . S
C454 C457 1.403 . S
C455 C452 1.403 1_565 S
C455 C456 1.524 1_455 S
C455 C459 1.400 . S
C456 H441 0.960 . S
C456 H442 0.960 . S
C456 H443 0.960 1_655 S
C456 C455 1.524 1_655 S
C457 C454 1.403 . S
C457 C458 1.392 . S
C457 C461 1.495 . S
C458 C457 1.392 . S
C458 C459 1.385 1_545 S
C458 C460 1.478 . S
C459 H453 0.935 . S
C459 C455 1.400 . S
C459 C458 1.385 1_565 S
C460 C458 1.478 . S
C460 C462 1.381 1_455 S
C460 C466 1.383 1_545 S
C461 C457 1.495 . S
C461 H467 0.959 . S
C461 H468 0.961 . S
C461 H469 0.960 . S
C462 C460 1.381 1_655 S
C462 C463 1.394 . S
C462 H470 0.930 . S
C463 C462 1.394 . S
C463 C464 1.383 1_655 S
C463 H471 0.929 . S
C464 C463 1.383 1_455 S
C464 C465 1.377 1_545 S
C465 H449 0.930 . S
C465 C464 1.377 1_565 S
C465 C466 1.379 . S
C466 H450 0.931 . S
C466 C460 1.383 1_565 S
C466 C465 1.379 . S
H467 C461 0.959 . S
H468 C461 0.961 . S
H469 C461 0.960 . S
H470 C462 0.930 . S
H471 C463 0.929 . S
H472 C480 0.929 . S
H473 C482 0.930 . S
H474 C484 0.930 . S
H475 C487 0.929 . S
H476 C490 0.930 . S
H477 C492 0.960 . S
H478 C492 0.960 . S
H479 C492 0.960 . S
C480 H472 0.929 . S
C480 C481 1.377 . S
C480 C482 1.384 . S
C481 C480 1.377 . S
C481 C487 1.390 . S
C482 H473 0.930 . S
C482 C480 1.384 . S
C482 C483 1.372 . S
C483 C482 1.372 . S
C483 C484 1.400 . S
C483 C488 1.490 . S
C484 H474 0.930 . S
C484 C483 1.400 . S
C484 C487 1.386 . S
H485 C501 0.930 . S
H486 C502 0.931 . S
C487 H475 0.929 . S
C487 C481 1.390 . S
C487 C484 1.386 . S
C488 C483 1.490 . S
C488 C490 1.395 . S
C488 C491 1.403 . S
H489 C495 0.930 . S
C490 H476 0.930 . S
C490 C488 1.395 . S
C490 C493 1.403 . S
C491 C488 1.403 . S
C491 C492 1.524 . S
C491 C495 1.400 . S
C492 H477 0.960 . S
C492 H478 0.960 . S
C492 H479 0.960 . S
C492 C491 1.524 . S
C493 C490 1.403 . S
C493 C494 1.392 . S
C493 C497 1.495 . S
C494 C493 1.392 . S
C494 C495 1.385 . S
C494 C496 1.478 . S
C495 H489 0.930 . S
C495 C491 1.400 . S
C495 C494 1.385 . S
C496 C494 1.478 . S
C496 C498 1.381 . S
C496 C502 1.383 . S
C497 C493 1.495 . S
C497 H503 0.959 . S
C497 H504 0.961 . S
C497 H505 0.960 . S
C498 C496 1.381 . S
C498 C499 1.394 . S
C498 H506 0.930 . S
C499 C498 1.394 . S
C499 C500 1.383 . S
C499 H507 0.929 . S
C500 C499 1.383 . S
C500 C501 1.377 . S
C501 H485 0.930 . S
C501 C500 1.377 . S
C501 C502 1.379 . S
C502 H486 0.931 . S
C502 C496 1.383 . S
C502 C501 1.379 . S
H503 C497 0.959 . S
H504 C497 0.961 . S
H505 C497 0.960 . S
H506 C498 0.930 . S
H507 C499 0.929 . S
H508 C516 0.929 . S
H509 C518 0.930 . S
H510 C520 0.930 . S
H511 C523 0.929 . S
H512 C526 0.930 . S
H513 C528 0.960 . S
H514 C528 0.960 . S
H515 C528 0.960 . S
C516 H508 0.929 . S
C516 C517 1.377 . S
C516 C518 1.384 . S
C517 C516 1.377 . S
C517 C523 1.390 . S
C518 H509 0.930 . S
C518 C516 1.384 . S
C518 C519 1.372 . S
C519 C518 1.372 . S
C519 C520 1.400 . S
C519 C524 1.490 . S
C520 H510 0.930 . S
C520 C519 1.400 . S
C520 C523 1.386 . S
H521 C537 0.930 . S
H522 C538 0.931 . S
C523 H511 0.929 . S
C523 C517 1.390 . S
C523 C520 1.386 . S
C524 C519 1.490 . S
C524 C526 1.395 . S
C524 C527 1.403 . S
H525 C531 0.930 . S
C526 H512 0.930 . S
C526 C524 1.395 . S
C526 C529 1.403 . S
C527 C524 1.403 . S
C527 C528 1.524 . S
C527 C531 1.400 . S
C528 H513 0.960 . S
C528 H514 0.960 . S
C528 H515 0.960 . S
C528 C527 1.524 . S
C529 C526 1.403 . S
C529 C530 1.392 . S
C529 C533 1.495 . S
C530 C529 1.392 . S
C530 C531 1.385 . S
C530 C532 1.478 . S
C531 H525 0.930 . S
C531 C527 1.400 . S
C531 C530 1.385 . S
C532 C530 1.478 . S
C532 C534 1.381 . S
C532 C538 1.383 . S
C533 C529 1.495 . S
C533 H539 0.959 . S
C533 H540 0.961 . S
C533 H541 0.960 . S
C534 C532 1.381 . S
C534 C535 1.394 . S
C534 H542 0.930 . S
C535 C534 1.394 . S
C535 C536 1.383 . S
C535 H543 0.929 . S
C536 C535 1.383 . S
C536 C537 1.377 . S
C537 H521 0.930 . S
C537 C536 1.377 . S
C537 C538 1.379 . S
C538 H522 0.931 . S
C538 C532 1.383 . S
C538 C537 1.379 . S
H539 C533 0.959 . S
H540 C533 0.961 . S
H541 C533 0.960 . S
H542 C534 0.930 . S
H543 C535 0.929 . S
C140 C106 1.296 . S
C121 C29 1.462 . S
C157 C8 1.470 1_556 S
C176 C95 1.270 . S
C193 C0 1.402 . S
C212 C109 1.392 . S
C229 C17 1.390 . S
C248 C98 1.331 . S
C265 C63 1.461 . S
C284 C84 1.281 . S
C301 C42 1.470 . S
C320 C73 1.201 . S
C356 C87 1.379 . S
C337 C34 1.402 . S
C392 C76 1.371 . S
C373 C51 1.387 . S
C409 C4 1.510 . S
C428 C75 1.449 . S
C445 C13 1.499 . S
C464 C86 1.437 1_545 S
C500 C97 1.437 . S
C481 C38 1.509 . S
C517 C47 1.501 . S
C536 C108 1.462 . S
