# Generated by pormake.
# Topology anh, (6,3)-cn, num edge types: 1
# Building blocks:
#     Node 0, Type 0, BuildingBlock: GEDQOX_clean_sbu_0, # of connection points: 6
#     Node 1, Type 0, BuildingBlock: GEDQOX_clean_sbu_0, # of connection points: 6
#     Node 2, Type 0, BuildingBlock: GEDQOX_clean_sbu_0, # of connection points: 6
#     Node 3, Type 1, BuildingBlock: WUSLED_clean_sbu_0, # of connection points: 3
#     Node 4, Type 1, BuildingBlock: WUSLED_clean_sbu_0, # of connection points: 3
#     Node 5, Type 1, BuildingBlock: WUSLED_clean_sbu_0, # of connection points: 3
#     Node 6, Type 1, BuildingBlock: WUSLED_clean_sbu_0, # of connection points: 3
#     Node 7, Type 1, BuildingBlock: WUSLED_clean_sbu_0, # of connection points: 3
#     Node 8, Type 1, BuildingBlock: WUSLED_clean_sbu_0, # of connection points: 3
#     Edge 9, Type (0, 1), BuildingBlock: EZIPEK_clean_linker_0, # of connection points: 2
#     Edge 10, Type (0, 1), BuildingBlock: EZIPEK_clean_linker_0, # of connection points: 2
#     Edge 11, Type (0, 1), BuildingBlock: EZIPEK_clean_linker_0, # of connection points: 2
#     Edge 12, Type (0, 1), BuildingBlock: EZIPEK_clean_linker_0, # of connection points: 2
#     Edge 13, Type (0, 1), BuildingBlock: EZIPEK_clean_linker_0, # of connection points: 2
#     Edge 14, Type (0, 1), BuildingBlock: EZIPEK_clean_linker_0, # of connection points: 2
#     Edge 15, Type (0, 1), BuildingBlock: EZIPEK_clean_linker_0, # of connection points: 2
#     Edge 16, Type (0, 1), BuildingBlock: EZIPEK_clean_linker_0, # of connection points: 2
#     Edge 17, Type (0, 1), BuildingBlock: EZIPEK_clean_linker_0, # of connection points: 2
#     Edge 18, Type (0, 1), BuildingBlock: EZIPEK_clean_linker_0, # of connection points: 2
#     Edge 19, Type (0, 1), BuildingBlock: EZIPEK_clean_linker_0, # of connection points: 2
#     Edge 20, Type (0, 1), BuildingBlock: EZIPEK_clean_linker_0, # of connection points: 2
#     Edge 21, Type (0, 1), BuildingBlock: EZIPEK_clean_linker_0, # of connection points: 2
#     Edge 22, Type (0, 1), BuildingBlock: EZIPEK_clean_linker_0, # of connection points: 2
#     Edge 23, Type (0, 1), BuildingBlock: EZIPEK_clean_linker_0, # of connection points: 2
#     Edge 24, Type (0, 1), BuildingBlock: EZIPEK_clean_linker_0, # of connection points: 2
#     Edge 25, Type (0, 1), BuildingBlock: EZIPEK_clean_linker_0, # of connection points: 2
#     Edge 26, Type (0, 1), BuildingBlock: EZIPEK_clean_linker_0, # of connection points: 2
# Relax obj value: 0.190
# Max RMSD: 0.216
# Mean RMSD: 0.157
data_MOF--net-anh--node1-GEDQOX_clean_sbu_0--node2-WUSLED_clean_sbu_0--edge1-EZIPEK_clean_linker_0
_symmetry_space_group_name_H-M    P1
_symmetry_Int_Tables_number       1
_symmetry_cell_setting            triclinic
loop_
_symmetry_equiv_pos_as_xyz
'x, y, z'
_cell_length_a     32.397084
_cell_length_b     30.454062
_cell_length_c     55.795717
_cell_angle_alpha  92.984253
_cell_angle_beta   90.017725
_cell_angle_gamma 105.58466
loop_
_atom_site_label
_atom_site_type_symbol
_atom_site_fract_x
_atom_site_fract_y
_atom_site_fract_z
_atom_type_partial_charge
Nd0 Nd 0.09167 0.55783 0.17185 0.0
Nd1 Nd 1.06193 0.458 0.16761 0.0
C2 C 0.13292 0.64579 0.17264 0.0
C3 C 0.17743 0.67495 0.17372 0.0
C4 C 0.18888 0.71339 0.15985 0.0
C5 C 0.22873 0.74535 0.16335 0.0
C6 C 0.25757 0.73921 0.1808 0.0
C7 C 0.24721 0.69957 0.19377 0.0
C8 C 0.20747 0.66751 0.1902 0.0
C9 C 0.06612 0.51879 0.21459 0.0
C10 C 0.16911 0.50074 0.16448 0.0
C11 C 1.03206 0.37085 0.17617 0.0
C12 C 0.98761 0.34188 0.17928 0.0
C13 C 0.9641 0.3488 0.19969 0.0
C14 C 0.92205 0.32272 0.20256 0.0
C15 C 0.90272 0.28829 0.18534 0.0
C16 C 0.92579 0.28086 0.1649 0.0
C17 C 0.96787 0.30766 0.16182 0.0
C18 C 1.0621 0.49798 0.12496 0.0
C19 C 0.98502 0.51367 0.16474 0.0
O20 O 0.11936 0.6217 0.15273 0.0
O21 O 0.11948 0.62355 0.19172 0.0
O22 O 1.05471 0.55343 0.20727 0.0
O23 O 0.0893 0.50542 0.19929 0.0
O24 O 0.15984 0.5405 0.1696 0.0
O25 O 0.1364 0.46284 0.16205 0.0
O26 O 1.04667 0.40289 0.193 0.0
O27 O 1.04287 0.38467 0.15465 0.0
O28 O 1.03191 0.46309 0.13108 0.0
O29 O 0.09138 0.50918 0.14062 0.0
O30 O 0.9946 0.47609 0.1716 0.0
O31 O 1.01802 0.54989 0.16087 0.0
H32 H 0.16628 0.71966 0.14703 0.0
H33 H 0.23634 0.77582 0.15322 0.0
H34 H 0.26914 0.69443 0.20733 0.0
H35 H 0.19962 0.63796 0.20104 0.0
H36 H 0.97829 0.37397 0.21373 0.0
H37 H 0.90492 0.32859 0.21856 0.0
H38 H 0.91139 0.25403 0.15153 0.0
H39 H 0.98509 0.30139 0.14594 0.0
Nd40 Nd 0.51313 1.01596 0.52816 0.0
Nd41 Nd 0.61254 0.05159 0.52772 0.0
C42 C 0.43486 0.97549 0.54134 0.0
C43 C 0.40389 0.93216 0.53384 0.0
C44 C 0.37783 0.90671 0.55109 0.0
C45 C 0.34884 0.86488 0.54442 0.0
C46 C 0.34579 0.84806 0.52043 0.0
C47 C 0.37283 0.87273 0.50329 0.0
C48 C 0.40193 0.91448 0.50997 0.0
C49 C 0.53956 0.02063 0.48053 0.0
C50 C 0.57293 0.94218 0.52617 0.0
C51 C 0.6938 0.09421 0.52171 0.0
C52 C 0.72149 0.13913 0.5167 0.0
C53 C 0.70556 0.17305 0.50689 0.0
C54 C 0.73354 0.21578 0.50271 0.0
C55 C 0.77734 0.22446 0.50838 0.0
C56 C 0.79262 0.1908 0.51873 0.0
C57 C 0.76489 0.14851 0.52289 0.0
C58 C 0.57765 0.02989 0.57209 0.0
C59 C 0.55438 0.12588 0.53081 0.0
O60 O 0.46909 0.97116 0.55234 0.0
O61 O 0.44316 1.00764 0.52584 0.0
O62 O 0.4998 1.00854 0.48685 0.0
O63 O 0.56253 0.03002 0.49927 0.0
O64 O 0.53558 0.95037 0.53081 0.0
O65 O 0.60723 0.97506 0.52106 0.0
O66 O 0.66902 0.07094 0.50424 0.0
O67 O 0.67521 0.09152 0.54255 0.0
O68 O 0.61324 0.02269 0.56473 0.0
O69 O 0.56275 0.05052 0.55651 0.0
O70 O 0.59046 0.11718 0.52356 0.0
O71 O 0.52069 0.09267 0.53648 0.0
H72 H 0.37974 0.91937 0.56968 0.0
H73 H 0.32812 0.84613 0.55781 0.0
H74 H 0.37074 0.86008 0.48469 0.0
H75 H 0.42261 0.93303 0.49651 0.0
H76 H 0.67183 0.16641 0.50239 0.0
H77 H 0.72135 0.2416 0.49478 0.0
H78 H 0.8263 0.19716 0.52331 0.0
H79 H 0.77741 0.12293 0.53086 0.0
Nd80 Nd 0.53286 0.51831 0.85026 0.0
Nd81 Nd 0.61079 0.54463 0.84456 0.0
C82 C 0.45043 0.48253 0.84924 0.0
C83 C 0.41901 0.49924 0.83688 0.0
C84 C 0.4258 0.51386 0.81325 0.0
C85 C 0.39979 0.53844 0.80351 0.0
C86 C 0.36798 0.54921 0.81765 0.0
C87 C 0.36206 0.53494 0.84125 0.0
C88 C 0.38687 0.50964 0.85067 0.0
C89 C 0.57172 0.53448 0.89552 0.0
C90 C 0.5641 0.62363 0.84508 0.0
C91 C 0.69233 0.58662 0.847 0.0
C92 C 0.72695 0.56651 0.8431 0.0
C93 C 0.71967 0.51943 0.84562 0.0
C94 C 0.75266 0.49928 0.84208 0.0
C95 C 0.79288 0.52672 0.83656 0.0
C96 C 0.79949 0.57303 0.83227 0.0
C97 C 0.7662 0.59305 0.83549 0.0
C98 C 0.5773 0.52659 0.79849 0.0
C99 C 0.57746 0.43622 0.84011 0.0
O100 O 0.4761 0.46607 0.83565 0.0
O101 O 0.47003 0.51028 0.86681 0.0
O102 O 0.54276 0.55312 0.88841 0.0
O103 O 0.58204 0.51127 0.87823 0.0
O104 O 0.53185 0.58924 0.83801 0.0
O105 O 0.59728 0.61382 0.85428 0.0
O106 O 0.66986 0.57333 0.86596 0.0
O107 O 0.66918 0.58513 0.82782 0.0
O108 O 0.60953 0.51382 0.80649 0.0
O109 O 0.56164 0.54675 0.81531 0.0
O110 O 0.61308 0.46926 0.84267 0.0
O111 O 0.54103 0.44673 0.84161 0.0
H112 H 0.45179 0.5075 0.80262 0.0
H113 H 0.40462 0.54925 0.78529 0.0
H114 H 0.33769 0.54298 0.85237 0.0
H115 H 0.38231 0.50005 0.86913 0.0
H116 H 0.68922 0.49872 0.85141 0.0
H117 H 0.74791 0.46364 0.84567 0.0
H118 H 0.83103 0.59409 0.82804 0.0
H119 H 0.77136 0.62913 0.83289 0.0
C120 C 0.65759 0.1076 0.21759 0.0
C121 C 0.67482 0.14615 0.23306 0.0
C122 C 0.73494 0.17108 0.20626 0.0
C123 C 0.71318 0.17788 0.22734 0.0
C124 C 0.71733 0.133 0.19069 0.0
C125 C 0.67892 0.10159 0.1963 0.0
U126 U 0.57609 0.03852 0.26144 0.0
O127 O 0.50591 1.01315 0.25771 0.0
O128 O 0.5451 0.96461 0.25978 0.0
C129 C 0.50662 0.97009 0.25669 0.0
C130 C 0.61812 0.0726 0.22333 0.0
C131 C 0.47815 0.93825 0.23894 0.0
C132 C 0.42376 0.92214 0.20711 0.0
C133 C 0.45667 0.95332 0.2204 0.0
C134 C 0.4352 0.86048 0.22967 0.0
C135 C 0.41184 0.8758 0.21236 0.0
C136 C 0.46807 0.89141 0.2428 0.0
C137 C 0.59403 0.06275 0.33021 0.0
C138 C 0.55558 1.01612 0.36164 0.0
C139 C 0.60787 0.08777 0.37234 0.0
C140 C 0.6159 0.09486 0.34799 0.0
C141 C 0.57784 0.04829 0.37941 0.0
C142 C 0.56359 0.02331 0.33718 0.0
C143 C 0.6048 0.07093 0.30476 0.0
O144 O 0.62386 0.03677 0.23358 0.0
O145 O 0.58675 0.08727 0.23277 0.0
O146 O 0.5786 0.08758 0.2923 0.0
O147 O 0.61768 0.03897 0.29268 0.0
H148 H 0.65899 0.15136 0.24965 0.0
H149 H 0.72651 0.20702 0.23961 0.0
H150 H 0.73375 0.12722 0.1744 0.0
H151 H 0.66613 0.07211 0.18413 0.0
H152 H 0.40595 0.93447 0.19376 0.0
H153 H 0.46382 0.98924 0.21696 0.0
H154 H 0.42642 0.82488 0.23394 0.0
H155 H 0.48407 0.87898 0.25699 0.0
H156 H 0.53201 0.98561 0.36672 0.0
H157 H 0.62518 0.11308 0.38572 0.0
H158 H 0.6395 0.12546 0.34302 0.0
H159 H 0.54627 0.9981 0.32375 0.0
C160 C 0.56474 0.659 0.54465 0.0
C161 C 0.54862 0.68418 0.56239 0.0
C162 C 0.56804 0.75162 0.53842 0.0
C163 C 0.55039 0.73027 0.5593 0.0
C164 C 0.58432 0.72637 0.52089 0.0
C165 C 0.58266 0.68063 0.52399 0.0
U166 U 0.55806 0.53656 0.57 0.0
O167 O 0.52025 0.47247 0.55152 0.0
O168 O 0.59044 0.48905 0.55198 0.0
C169 C 0.55435 0.45986 0.54471 0.0
C170 C 0.56143 0.60965 0.54586 0.0
C171 C 0.55208 0.41066 0.54445 0.0
C172 C 0.54728 0.34012 0.52052 0.0
C173 C 0.5483 0.38639 0.5221 0.0
C174 C 0.5531 0.34104 0.56383 0.0
C175 C 0.54975 0.31692 0.54132 0.0
C176 C 0.55438 0.38768 0.56539 0.0
C177 C 0.55895 0.53967 0.64358 0.0
C178 C 0.52734 0.50751 0.68063 0.0
C179 C 0.59268 0.56914 0.68238 0.0
C180 C 0.59203 0.56999 0.65725 0.0
C181 C 0.56057 0.53755 0.69425 0.0
C182 C 0.52638 0.50876 0.65555 0.0
C183 C 0.55911 0.53901 0.61696 0.0
O184 O 0.59565 0.59766 0.55238 0.0
O185 O 0.52544 0.58236 0.55312 0.0
O186 O 0.52331 0.52889 0.60421 0.0
O187 O 0.59457 0.54839 0.60447 0.0
H188 H 0.53445 0.66822 0.57842 0.0
H189 H 0.53783 0.74923 0.57311 0.0
H190 H 0.59816 0.74207 0.50472 0.0
H191 H 0.59496 0.66183 0.50997 0.0
H192 H 0.54489 0.32243 0.50301 0.0
H193 H 0.54656 0.40347 0.50572 0.0
H194 H 0.55524 0.32386 0.58011 0.0
H195 H 0.55743 0.40578 0.58281 0.0
H196 H 0.50246 0.48267 0.68942 0.0
H197 H 0.61868 0.5925 0.69255 0.0
H198 H 0.61748 0.59421 0.6485 0.0
H199 H 0.5007 0.48476 0.64545 0.0
C200 C 1.04558 0.53567 0.86077 0.0
C201 C 1.01607 0.49587 0.868 0.0
C202 C 0.96074 0.51641 0.84648 0.0
C203 C 0.97372 0.48611 0.86067 0.0
C204 C 0.9903 0.55449 0.83785 0.0
C205 C 1.033 0.56403 0.84494 0.0
U206 U 0.1069 0.5574 0.91844 0.0
O207 O 0.16603 0.53904 0.92742 0.0
O208 O 0.16416 0.61089 0.93105 0.0
C209 C 0.18786 0.58223 0.92729 0.0
C210 C 0.08672 0.55187 0.873 0.0
C211 C 0.21568 0.59178 0.90654 0.0
C212 C 0.2174 0.60293 0.86365 0.0
C213 C 0.19857 0.60527 0.8858 0.0
C214 C 0.27309 0.57686 0.88278 0.0
C215 C 0.25462 0.58859 0.862 0.0
C216 C 0.2532 0.57762 0.90494 0.0
C217 C 1.05417 0.53504 0.97656 0.0
C218 C 0.10236 0.54074 0.01038 0.0
C219 C 1.02527 0.52129 0.01609 0.0
C220 C 1.01883 0.52426 0.99162 0.0
C221 C 0.06698 0.52896 0.02536 0.0
C222 C 0.09595 0.54387 0.98599 0.0
C223 C 1.04829 0.53607 0.95086 0.0
O224 O 0.09072 0.58934 0.88666 0.0
O225 O 0.09988 0.52026 0.88343 0.0
O226 O 1.06223 0.50526 0.93836 0.0
O227 O 1.06084 0.57719 0.94265 0.0
H228 H 1.02487 0.47397 0.88063 0.0
H229 H 0.95049 0.45714 0.86765 0.0
H230 H 0.97981 0.5783 0.82715 0.0
H231 H 1.0554 0.59516 0.83959 0.0
H232 H 0.203 0.61222 0.84783 0.0
H233 H 0.16951 0.61609 0.88648 0.0
H234 H 0.30234 0.56636 0.88191 0.0
H235 H 0.26617 0.56582 0.92051 0.0
H236 H 0.13464 0.54688 0.01752 0.0
H237 H 0.99787 0.51237 0.02775 0.0
H238 H 0.98653 0.51763 0.98445 0.0
H239 H 0.12347 0.55247 0.9744 0.0
C240 C 0.97805 0.46407 0.47799 0.0
C241 C 0.95656 0.43355 0.4596 0.0
C242 C 0.91365 0.38466 0.48917 0.0
C243 C 0.9238 0.39524 0.46506 0.0
C244 C 0.9304 0.42028 0.50679 0.0
C245 C 0.96333 0.45854 0.50143 0.0
U246 U 1.05572 0.53124 0.43367 0.0
O247 O 0.09099 0.60367 0.43382 0.0
O248 O 0.1263 0.55126 0.43442 0.0
C249 C 0.1285 0.59504 0.43562 0.0
C250 C 1.01652 0.50056 0.47301 0.0
C251 C 0.15902 0.62364 0.45335 0.0
C252 C 0.17503 0.67433 0.48924 0.0
C253 C 0.14553 0.64168 0.47474 0.0
C254 C 0.23187 0.66885 0.46192 0.0
C255 C 0.21808 0.68912 0.4824 0.0
C256 C 0.20253 0.63631 0.44751 0.0
C257 C 1.0326 0.5011 0.36625 0.0
C258 C 0.08263 0.52656 0.33412 0.0
C259 C 1.01099 0.48088 0.32471 0.0
C260 C 1.00126 0.48026 0.34907 0.0
C261 C 1.05324 0.49985 0.31666 0.0
C262 C 0.07287 0.526 0.35865 0.0
C263 C 1.02222 0.49613 0.39181 0.0
O264 O 1.04808 0.48613 0.4637 0.0
O265 O 1.01004 0.5357 0.46239 0.0
O266 O 1.01254 0.53089 0.40312 0.0
O267 O 1.04735 0.47833 0.40441 0.0
H268 H 0.96569 0.43885 0.44107 0.0
H269 H 0.9071 0.37398 0.45008 0.0
H270 H 0.91869 0.41965 0.52487 0.0
H271 H 0.97768 0.48351 0.5157 0.0
H272 H 0.164 0.68973 0.50506 0.0
H273 H 0.11208 0.63202 0.47967 0.0
H274 H 0.26498 0.67991 0.45645 0.0
H275 H 0.21351 0.62255 0.43117 0.0
H276 H 0.11304 0.5488 0.32945 0.0
H277 H 0.98468 0.46611 0.31235 0.0
H278 H 0.9691 0.46308 0.35449 0.0
H279 H 0.09679 0.54491 0.37165 0.0
C280 C 0.57212 0.90656 0.82625 0.0
C281 C 0.56123 0.87554 0.80621 0.0
C282 C 0.56935 0.81353 0.83036 0.0
C283 C 0.5599 0.82929 0.80827 0.0
C284 C 0.58075 0.8448 0.85019 0.0
C285 C 0.58212 0.89078 0.84813 0.0
U286 U 0.57037 0.02056 0.79665 0.0
O287 O 0.60615 0.08997 0.80974 0.0
O288 O 0.53564 0.06945 0.81105 0.0
C289 C 0.57124 0.10144 0.81622 0.0
C290 C 0.57193 0.95507 0.82557 0.0
C291 C 0.57096 0.15016 0.81668 0.0
C292 C 0.54871 0.21221 0.83766 0.0
C293 C 0.54634 0.16572 0.83425 0.0
C294 C 0.59995 0.22895 0.8056 0.0
C295 C 0.57574 0.24432 0.82352 0.0
C296 C 0.5978 0.18222 0.80229 0.0
C297 C 0.56745 1.01252 0.7248 0.0
C298 C 0.54735 0.05332 0.6922 0.0
C299 C 0.58106 0.99242 0.68335 0.0
C300 C 0.58321 0.98576 0.70781 0.0
C301 C 0.56307 0.0261 0.67527 0.0
C302 C 0.54952 0.04657 0.7169 0.0
C303 C 0.56808 1.0009 0.75015 0.0
O304 O 0.60664 0.98373 0.81782 0.0
O305 O 0.53647 0.96342 0.81811 0.0
O306 O 0.53344 0.99777 0.76297 0.0
O307 O 0.60403 1.0163 0.76257 0.0
H308 H 0.55341 0.88695 0.78915 0.0
H309 H 0.55119 0.80573 0.79272 0.0
H310 H 0.58831 0.8335 0.86734 0.0
H311 H 0.59056 0.91406 0.86381 0.0
H312 H 0.5296 0.22321 0.85147 0.0
H313 H 0.52592 0.14186 0.84584 0.0
H314 H 0.62079 0.25318 0.79438 0.0
H315 H 0.61751 0.17131 0.7888 0.0
H316 H 0.53339 0.07954 0.68628 0.0
H317 H 0.59327 0.97103 0.67064 0.0
H318 H 0.59672 0.95899 0.71349 0.0
H319 H 0.53693 0.06744 0.72971 0.0
C320 C 0.7022 0.511 0.14621 0.0
C321 C 0.72292 0.48773 0.12926 0.0
C322 C 0.79478 0.51189 0.15098 0.0
C323 C 0.76765 0.4884 0.13151 0.0
C324 C 0.77382 0.53499 0.1678 0.0
C325 C 0.72945 0.53456 0.16548 0.0
U326 U 0.57704 0.50699 0.12402 0.0
O327 O 0.51417 0.46668 0.13894 0.0
O328 O 0.52988 0.54037 0.14162 0.0
C329 C 0.50047 0.50237 0.14572 0.0
C330 C 0.65279 0.50857 0.14605 0.0
C331 C 0.45108 0.50029 0.14562 0.0
C332 C 0.37745 0.46952 0.16277 0.0
C333 C 0.4218 0.4698 0.16022 0.0
C334 C 0.38776 0.53019 0.13607 0.0
C335 C 0.3586 0.49983 0.15092 0.0
C336 C 0.43237 0.53063 0.13363 0.0
C337 C 0.57885 0.51258 0.05024 0.0
C338 C 0.55291 0.5364 0.01317 0.0
C339 C 0.6071 0.49515 0.01122 0.0
C340 C 0.60608 0.49271 0.03637 0.0
C341 C 0.58038 0.51687 0.99931 0.0
C342 C 0.55239 0.53458 0.03834 0.0
C343 C 0.57816 0.51058 0.07695 0.0
O344 O 0.63913 0.54491 0.14282 0.0
O345 O 0.62377 0.47137 0.1382 0.0
O346 O 0.57064 0.47193 0.08773 0.0
O347 O 0.58495 0.54731 0.09144 0.0
H348 H 0.70445 0.46843 0.11418 0.0
H349 H 0.78098 0.46975 0.11791 0.0
H350 H 0.79194 0.55356 0.18318 0.0
H351 H 0.71605 0.5525 0.17938 0.0
H352 H 0.35771 0.44535 0.17444 0.0
H353 H 0.43354 0.44614 0.17034 0.0
H354 H 0.37611 0.55448 0.12641 0.0
H355 H 0.45243 0.55544 0.1224 0.0
H356 H 0.53192 0.55323 1.00448 0.0
H357 H 0.62867 0.47995 1.00101 0.0
H358 H 0.62699 0.47574 0.04504 0.0
H359 H 0.53096 0.55002 0.04851 0.0
C360 C 0.24704 0.50544 0.18083 0.0
C361 C 0.21749 0.49928 0.16098 0.0
C362 C 0.279 0.49001 0.13472 0.0
C363 C 0.30955 0.49987 0.15433 0.0
N364 N 0.32096 0.52386 0.19614 0.0
N365 N 0.20912 0.49125 0.1181 0.0
C366 C 0.29273 0.50914 0.17738 0.0
C367 C 0.23479 0.49302 0.13774 0.0
N368 N 0.23113 0.50647 0.20345 0.0
N369 N 0.29158 0.4755 0.11306 0.0
H370 H 0.17724 0.49217 0.11947 0.0
H371 H 0.22014 0.49246 0.10056 0.0
H372 H 0.32245 0.4723 0.11014 0.0
H373 H 0.27067 0.46276 0.09863 0.0
H374 H 0.24863 0.50511 0.21891 0.0
H375 H 0.19901 0.50473 0.20666 0.0
H376 H 0.31264 0.5361 0.2127 0.0
H377 H 0.3538 0.52791 0.19449 0.0
C378 C 0.82798 0.29838 0.52212 0.0
C379 C 0.80898 0.26755 0.50285 0.0
C380 C 0.8688 0.30295 0.47741 0.0
C381 C 0.8834 0.33891 0.49527 0.0
N382 N 0.89598 0.34266 0.53802 0.0
N383 N 0.80998 0.24161 0.4613 0.0
C384 C 0.86837 0.32976 0.51891 0.0
C385 C 0.82879 0.27044 0.48016 0.0
N386 N 0.80803 0.29701 0.54372 0.0
N387 N 0.89643 0.29469 0.4604 0.0
H388 H 0.78112 0.2165 0.46273 0.0
H389 H 0.82133 0.24545 0.44384 0.0
H390 H 0.9289 0.31231 0.46095 0.0
H391 H 0.88894 0.26639 0.44827 0.0
H392 H 0.81937 0.32133 0.55773 0.0
H393 H 0.77831 0.27419 0.54669 0.0
H394 H 0.88755 0.3335 0.55547 0.0
H395 H 0.92892 0.35545 0.53565 0.0
C396 C 0.59833 0.69927 0.82695 0.0
C397 C 0.56515 0.67208 0.84092 0.0
C398 C 0.53233 0.73606 0.84533 0.0
C399 C 0.56721 0.76427 0.8331 0.0
N400 N 0.63678 0.77505 0.81537 0.0
N401 N 0.50533 0.66748 0.86715 0.0
C402 C 0.60113 0.74647 0.82474 0.0
C403 C 0.53333 0.69123 0.85105 0.0
N404 N 0.62631 0.6797 0.81501 0.0
N405 N 0.49764 0.7518 0.85103 0.0
H406 H 0.50544 0.63494 0.87207 0.0
H407 H 0.48463 0.68157 0.8773 0.0
H408 H 0.4958 0.78443 0.84728 0.0
H409 H 0.46924 0.73128 0.85755 0.0
H410 H 0.64766 0.69617 0.80229 0.0
H411 H 0.6258 0.64554 0.81611 0.0
H412 H 0.66478 0.76561 0.81159 0.0
H413 H 0.63973 0.80954 0.8131 0.0
C414 C 0.90488 0.50027 0.17935 0.0
C415 C 0.93635 0.51443 0.16117 0.0
C416 C 0.87606 0.53041 0.13691 0.0
C417 C 0.84385 0.51205 0.15416 0.0
N418 N 0.82974 0.471 0.19028 0.0
N419 N 0.9471 0.53565 0.12024 0.0
C420 C 0.85917 0.49475 0.17491 0.0
C421 C 0.92039 0.52762 0.13937 0.0
N422 N 0.91882 0.49429 0.2017 0.0
N423 N 0.86488 0.55247 0.11831 0.0
H424 H 0.97847 0.53304 0.12098 0.0
H425 H 0.93703 0.54039 0.10308 0.0
H426 H 0.83392 0.55566 0.11593 0.0
H427 H 0.887 0.57119 0.10661 0.0
H428 H 0.89897 0.48845 0.21653 0.0
H429 H 0.95124 0.50066 0.20601 0.0
H430 H 0.83766 0.45295 0.20413 0.0
H431 H 0.79682 0.46537 0.18768 0.0
C432 C 0.27451 0.81251 0.50098 0.0
C433 C 0.3114 0.80689 0.51273 0.0
C434 C 0.28206 0.72377 0.50916 0.0
C435 C 0.24801 0.72949 0.49474 0.0
N436 N 0.21473 0.77908 0.47396 0.0
N437 N 0.35296 0.75796 0.5264 0.0
C438 C 0.2448 0.77381 0.48997 0.0
C439 C 0.31585 0.76268 0.51655 0.0
N440 N 0.26752 0.85483 0.5007 0.0
N441 N 0.28162 0.68121 0.51602 0.0
H442 H 0.37812 0.78579 0.53223 0.0
H443 H 0.36012 0.72673 0.52727 0.0
H444 H 0.25718 0.65216 0.51086 0.0
H445 H 0.30326 0.67516 0.52838 0.0
H446 H 0.23894 0.86027 0.49473 0.0
H447 H 0.28872 0.8842 0.50846 0.0
H448 H 0.21438 0.8105 0.46757 0.0
H449 H 0.1921 0.75176 0.46544 0.0
C450 C 0.60091 0.36677 0.85122 0.0
C451 C 0.57737 0.38706 0.83567 0.0
C452 C 0.55036 0.31249 0.81322 0.0
C453 C 0.57739 0.29388 0.82721 0.0
N454 N 0.63158 0.30384 0.85807 0.0
N455 N 0.53076 0.37921 0.80078 0.0
C456 C 0.60364 0.32127 0.84576 0.0
C457 C 0.55222 0.35982 0.81645 0.0
N458 N 0.61823 0.3898 0.87213 0.0
N459 N 0.5217 0.2844 0.79733 0.0
H460 H 0.52871 0.41267 0.8028 0.0
H461 H 0.5173 0.36319 0.78459 0.0
H462 H 0.5203 0.25004 0.79387 0.0
H463 H 0.49714 0.29396 0.7888 0.0
H464 H 0.6315 0.37509 0.88553 0.0
H465 H 0.61548 0.42227 0.87733 0.0
H466 H 0.65491 0.32338 0.86998 0.0
H467 H 0.6337 0.27043 0.85499 0.0
C468 C 0.54766 0.85875 0.51296 0.0
C469 C 0.57558 0.89394 0.52757 0.0
C470 C 0.60165 0.83579 0.54749 0.0
C471 C 0.57031 0.80066 0.53482 0.0
N472 N 0.50998 0.77831 0.50735 0.0
N473 N 0.6258 0.91536 0.56094 0.0
C474 C 0.54243 0.81206 0.51798 0.0
C475 C 0.60189 0.88231 0.54531 0.0
N476 N 0.52711 0.87001 0.49375 0.0
N477 N 0.63219 0.82481 0.56109 0.0
H478 H 0.62897 0.94987 0.55934 0.0
H479 H 0.64038 0.90836 0.57639 0.0
H480 H 0.63292 0.79125 0.56336 0.0
H481 H 0.6589 0.84893 0.56848 0.0
H482 H 0.50978 0.84614 0.4809 0.0
H483 H 0.53072 0.9037 0.48935 0.0
H484 H 0.48572 0.7846 0.49694 0.0
H485 H 0.5052 0.74387 0.51055 0.0
C486 C 0.85089 0.52296 0.86308 0.0
C487 C 0.83013 0.51068 0.84052 0.0
C488 C 0.89275 0.49329 0.82317 0.0
C489 C 0.9154 0.51272 0.84451 0.0
N490 N 0.91873 0.55178 0.88376 0.0
N491 N 0.82809 0.48337 0.79923 0.0
C492 C 0.8952 0.52867 0.86439 0.0
C493 C 0.84988 0.49481 0.82063 0.0
N494 N 0.82838 0.53047 0.88293 0.0
N495 N 0.91239 0.47383 0.80552 0.0
H496 H 0.7957 0.48211 0.79744 0.0
H497 H 0.84221 0.47674 0.78319 0.0
H498 H 0.94439 0.47331 0.80675 0.0
H499 H 0.89644 0.45568 0.79039 0.0
H500 H 0.84133 0.53555 0.90027 0.0
H501 H 0.79555 0.52736 0.88246 0.0
H502 H 0.90608 0.56888 0.89731 0.0
H503 H 0.95183 0.55741 0.88538 0.0
C504 C 0.33586 0.77775 0.17575 0.0
C505 C 0.2966 0.77651 0.18734 0.0
C506 C 0.33214 0.84335 0.21356 0.0
C507 C 0.37165 0.84397 0.20231 0.0
N508 N 0.41108 0.8174 0.17081 0.0
N509 N 0.2563 0.8056 0.21761 0.0
C510 C 0.37348 0.81271 0.18283 0.0
C511 C 0.29437 0.809 0.20618 0.0
N512 N 0.33725 0.74435 0.15863 0.0
N513 N 0.33091 0.87602 0.23117 0.0
H514 H 0.22771 0.7819 0.21222 0.0
H515 H 0.25263 0.82476 0.23303 0.0
H516 H 0.3581 0.90049 0.23778 0.0
H517 H 0.30303 0.88077 0.23873 0.0
H518 H 0.36529 0.73997 0.15107 0.0
H519 H 0.31006 0.71906 0.15265 0.0
H520 H 0.41428 0.79862 0.15515 0.0
H521 H 0.43906 0.8426 0.17568 0.0
C522 C 0.58742 0.20855 0.5451 0.0
C523 C 0.55271 0.17478 0.53371 0.0
C524 C 0.51376 0.23358 0.53033 0.0
C525 C 0.55035 0.26779 0.53922 0.0
N526 N 0.62553 0.28865 0.54984 0.0
N527 N 0.4863 0.15837 0.51091 0.0
C528 C 0.58818 0.2555 0.5451 0.0
C529 C 0.51673 0.18815 0.52511 0.0
N530 N 0.61889 0.196 0.55705 0.0
N531 N 0.47572 0.24416 0.52742 0.0
H532 H 0.48744 0.12526 0.50608 0.0
H533 H 0.46219 0.16798 0.50191 0.0
H534 H 0.47215 0.27682 0.53124 0.0
H535 H 0.44691 0.21969 0.5234 0.0
H536 H 0.64207 0.2188 0.56786 0.0
H537 H 0.61938 0.16227 0.55833 0.0
H538 H 0.65511 0.28158 0.55152 0.0
H539 H 0.62777 0.32345 0.54972 0.0
C540 C 0.34291 0.61678 0.81837 0.0
C541 C 0.33745 0.57217 0.80836 0.0
C542 C 0.26585 0.54719 0.82363 0.0
C543 C 0.27554 0.58778 0.83869 0.0
N544 N 0.31369 0.66724 0.8444 0.0
N545 N 0.28938 0.50562 0.79014 0.0
C546 C 0.31057 0.62519 0.83361 0.0
C547 C 0.29612 0.54236 0.80607 0.0
N548 N 0.38162 0.64786 0.81624 0.0
N549 N 0.23063 0.5122 0.82773 0.0
H550 H 0.31383 0.50134 0.77878 0.0
H551 H 0.25972 0.48197 0.78724 0.0
H552 H 0.20807 0.51521 0.84062 0.0
H553 H 0.22472 0.47997 0.81904 0.0
H554 H 0.39028 0.67991 0.8252 0.0
H555 H 0.40541 0.64007 0.80551 0.0
H556 H 0.3377 0.69639 0.84078 0.0
H557 H 0.29013 0.67337 0.85584 0.0
C558 C 0.85591 0.22288 0.20639 0.0
C559 C 0.85952 0.25781 0.19 0.0
C560 C 0.78118 0.23639 0.18427 0.0
C561 C 0.77768 0.20204 0.20107 0.0
N562 N 0.81009 0.16511 0.2301 0.0
N563 N 0.82747 0.29787 0.16251 0.0
C564 C 0.81464 0.19605 0.21269 0.0
C565 C 0.82258 0.26459 0.17867 0.0
N566 N 0.89226 0.21411 0.2151 0.0
N567 N 0.74465 0.24255 0.17431 0.0
H568 H 0.8572 0.31963 0.15857 0.0
H569 H 0.80274 0.30397 0.1525 0.0
H570 H 0.71406 0.22284 0.17836 0.0
H571 H 0.74379 0.26764 0.16256 0.0
H572 H 0.8924 0.18619 0.22503 0.0
H573 H 0.9231 0.23298 0.21096 0.0
H574 H 0.83476 0.16301 0.24153 0.0
H575 H 0.78078 0.1428 0.23425 0.0
C576 C 0.07828 0.47507 0.08349 0.0
C577 C 0.07004 0.50877 0.09983 0.0
C578 C 0.07295 0.5603 0.06744 0.0
C579 C 0.07326 0.52367 0.05089 0.0
N580 N 0.07576 0.44598 0.04218 0.0
N581 N 1.06011 0.58378 0.10808 0.0
C582 C 0.07633 0.48107 0.05861 0.0
C583 C 0.0682 0.55182 0.09208 0.0
N584 N 0.08911 0.43813 0.09183 0.0
N585 N 0.0775 0.60307 0.05951 0.0
H586 H 1.05804 0.57923 0.12637 0.0
H587 H 1.05297 0.61348 0.10321 0.0
H588 H 0.08061 0.61015 0.04139 0.0
H589 H 0.08186 0.63222 0.07086 0.0
H590 H 0.09962 0.41477 0.08082 0.0
H591 H 0.09168 0.43318 0.11007 0.0
H592 H 0.07271 0.41258 0.0468 0.0
H593 H 0.07575 0.44958 0.02369 0.0
C594 C 0.58119 1.00801 0.44334 0.0
C595 C 0.55365 0.03095 0.45536 0.0
C596 C 0.54037 0.06292 0.41735 0.0
C597 C 0.56922 0.04162 0.40552 0.0
N598 N 0.62263 1.00011 0.40777 0.0
N599 N 0.51608 0.08928 0.45511 0.0
C600 C 0.59135 1.01605 0.41871 0.0
C601 C 0.53577 0.06094 0.44269 0.0
N602 N 0.59617 0.97708 0.45513 0.0
N603 N 0.51658 0.08432 0.40426 0.0
H604 H 0.51387 0.09018 0.47375 0.0
H605 H 0.50619 0.11522 0.44738 0.0
H606 H 0.51958 0.08726 0.38576 0.0
H607 H 0.49148 0.09593 0.41138 0.0
H608 H 0.61228 0.95532 0.44676 0.0
H609 H 0.59004 0.97101 0.47316 0.0
H610 H 0.64331 0.98569 0.41691 0.0
H611 H 0.63001 1.00425 0.38968 0.0
C612 C 0.57906 0.49469 0.75549 0.0
C613 C 0.56995 0.52881 0.77173 0.0
C614 C 0.54881 0.56484 0.73661 0.0
C615 C 0.56304 0.53421 0.72085 0.0
N616 N 0.59885 0.4748 0.71527 0.0
N617 N 0.55546 0.60334 0.77577 0.0
C618 C 0.5802 0.50058 0.7303 0.0
C619 C 0.55698 0.56564 0.76182 0.0
N620 N 0.58523 0.45548 0.76379 0.0
N621 N 0.52723 0.59331 0.72753 0.0
H622 H 0.56351 0.60805 0.79382 0.0
H623 H 0.55108 0.63286 0.76877 0.0
H624 H 0.52169 0.59455 0.70919 0.0
H625 H 0.51154 0.61256 0.73829 0.0
H626 H 0.58623 0.42736 0.75256 0.0
H627 H 0.5853 0.44875 0.7818 0.0
H628 H 0.6168 0.45382 0.72139 0.0
H629 H 0.59971 0.47737 0.69669 0.0
C630 C 0.54076 0.99462 0.60891 0.0
C631 C 0.56876 0.03239 0.59824 0.0
C632 C 0.59107 0.06856 0.63837 0.0
C633 C 0.56123 0.03189 0.64889 0.0
N634 N 0.50093 0.96547 0.64414 0.0
N635 N 0.61682 0.10809 0.60243 0.0
C636 C 0.53378 0.99677 0.63408 0.0
C637 C 0.59238 0.07044 0.6129 0.0
N638 N 0.52293 0.95549 0.59531 0.0
N639 N 0.6201 0.1 0.65263 0.0
H640 H 0.62116 0.10921 0.58398 0.0
H641 H 0.63057 0.13904 0.61183 0.0
H642 H 0.6201 0.10003 0.67131 0.0
H643 H 0.64609 0.12418 0.646 0.0
H644 H 0.50587 0.92515 0.6025 0.0
H645 H 0.52862 0.95208 0.57704 0.0
H646 H 0.47734 0.94165 0.63407 0.0
H647 H 0.49494 0.96627 0.66251 0.0
C648 C 0.55019 0.4889 0.93242 0.0
C649 C 0.5776 0.52712 0.92161 0.0
C650 C 0.6079 0.55799 0.9616 0.0
C651 C 0.58103 0.51937 0.97236 0.0
N652 N 0.53178 0.4445 0.9678 0.0
N653 N 0.63704 0.59437 0.92511 0.0
C654 C 0.55382 0.48371 0.95764 0.0
C655 C 0.60785 0.56052 0.93601 0.0
N656 N 0.51942 0.45841 0.91869 0.0
N657 N 0.63264 0.59293 0.97597 0.0
H658 H 0.63703 0.59782 0.90662 0.0
H659 H 0.66305 0.61701 0.93398 0.0
H660 H 0.63469 0.59154 0.99456 0.0
H661 H 0.64929 0.62435 0.96979 0.0
H662 H 0.49493 0.43303 0.92571 0.0
H663 H 0.51664 0.46005 0.90015 0.0
H664 H 0.51513 0.4151 0.95796 0.0
H665 H 0.53261 0.44006 0.98618 0.0
C666 C 0.10216 0.53155 0.25536 0.0
C667 C 0.06654 0.50906 0.24034 0.0
C668 C 1.03413 0.46462 0.27401 0.0
C669 C 0.06388 0.49479 0.29009 0.0
N670 N 0.14058 0.52573 0.29151 0.0
N671 N 0.99768 0.45393 0.23567 0.0
C672 C 0.10247 0.52027 0.2798 0.0
C673 C 1.03238 0.47533 0.24971 0.0
N674 N 0.13557 0.5639 0.2465 0.0
N675 N 1.01219 0.42258 0.28103 0.0
H676 H 0.99634 0.4585 0.21735 0.0
H677 H 0.96959 0.43363 0.24272 0.0
H678 H 1.01809 0.41104 0.29766 0.0
H679 H 0.99295 0.39756 0.26933 0.0
H680 H 0.15998 0.58456 0.25745 0.0
H681 H 0.13732 0.57214 0.22855 0.0
H682 H 0.17013 0.54104 0.28408 0.0
H683 H 0.14271 0.50758 0.30662 0.0
loop_
_geom_bond_atom_site_label_1
_geom_bond_atom_site_label_2
_geom_bond_distance
_geom_bond_site_symmetry_2
_ccdc_geom_bond_type
Nd0 C2 2.836 . S
Nd0 O20 2.500 . S
Nd0 O21 2.492 . S
Nd0 O22 2.487 . S
Nd0 O23 2.682 . S
Nd0 O24 2.410 . S
Nd0 O29 2.414 . S
Nd0 O31 2.424 1_455 S
Nd1 C11 2.836 . S
Nd1 O23 2.414 1_655 S
Nd1 O25 2.424 1_655 S
Nd1 O26 2.500 . S
Nd1 O27 2.492 . S
Nd1 O28 2.487 . S
Nd1 O29 2.682 1_655 S
Nd1 O30 2.410 . S
C2 Nd0 2.836 . S
C2 C3 1.498 . S
C2 O20 1.258 . S
C2 O21 1.239 . S
C3 C2 1.498 . S
C3 C4 1.366 . S
C3 C8 1.407 . S
C4 C3 1.366 . S
C4 C5 1.392 . S
C4 H32 0.930 . S
C5 C4 1.392 . S
C5 C6 1.398 . S
C5 H33 0.929 . S
C6 C5 1.398 . S
C6 C7 1.352 . S
C7 C6 1.352 . S
C7 C8 1.384 . S
C7 H34 0.930 . S
C8 C3 1.407 . S
C8 C7 1.384 . S
C8 H35 0.929 . S
C9 O22 1.241 . S
C9 O23 1.273 . S
C10 O24 1.251 . S
C10 O25 1.268 . S
C11 Nd1 2.836 . S
C11 C12 1.498 . S
C11 O26 1.258 . S
C11 O27 1.239 . S
C12 C11 1.498 . S
C12 C13 1.366 . S
C12 C17 1.407 . S
C13 C12 1.366 . S
C13 C14 1.392 . S
C13 H36 0.930 . S
C14 C13 1.392 . S
C14 C15 1.398 . S
C14 H37 0.929 . S
C15 C14 1.398 . S
C15 C16 1.352 . S
C16 C15 1.352 . S
C16 C17 1.384 . S
C16 H38 0.930 . S
C17 C12 1.407 . S
C17 C16 1.384 . S
C17 H39 0.929 . S
C18 O28 1.241 1_455 S
C18 O29 1.273 . S
C19 O30 1.251 . S
C19 O31 1.268 . S
O20 Nd0 2.500 . S
O20 C2 1.258 . S
O21 Nd0 2.492 . S
O21 C2 1.239 . S
O22 Nd0 2.487 . S
O22 C9 1.241 . S
O23 Nd0 2.682 . S
O23 Nd1 2.414 1_455 S
O23 C9 1.273 . S
O24 Nd0 2.410 . S
O24 C10 1.251 . S
O25 Nd1 2.424 1_455 S
O25 C10 1.268 . S
O26 Nd1 2.500 . S
O26 C11 1.258 . S
O27 Nd1 2.492 . S
O27 C11 1.239 . S
O28 Nd1 2.487 . S
O28 C18 1.241 1_655 S
O29 Nd0 2.414 . S
O29 Nd1 2.682 1_455 S
O29 C18 1.273 . S
O30 Nd1 2.410 . S
O30 C19 1.251 . S
O31 Nd0 2.424 1_655 S
O31 C19 1.268 . S
H32 C4 0.930 . S
H33 C5 0.929 . S
H34 C7 0.930 . S
H35 C8 0.929 . S
H36 C13 0.930 . S
H37 C14 0.929 . S
H38 C16 0.930 . S
H39 C17 0.929 . S
Nd40 C42 2.836 . S
Nd40 O60 2.500 . S
Nd40 O61 2.492 . S
Nd40 O62 2.487 . S
Nd40 O63 2.682 1_565 S
Nd40 O64 2.410 . S
Nd40 O69 2.414 1_565 S
Nd40 O71 2.424 1_565 S
Nd41 C51 2.836 . S
Nd41 O63 2.414 . S
Nd41 O65 2.424 1_545 S
Nd41 O66 2.500 . S
Nd41 O67 2.492 . S
Nd41 O68 2.487 . S
Nd41 O69 2.682 . S
Nd41 O70 2.410 . S
C42 Nd40 2.836 . S
C42 C43 1.498 . S
C42 O60 1.258 . S
C42 O61 1.239 . S
C43 C42 1.498 . S
C43 C44 1.366 . S
C43 C48 1.407 . S
C44 C43 1.366 . S
C44 C45 1.392 . S
C44 H72 0.930 . S
C45 C44 1.392 . S
C45 C46 1.398 . S
C45 H73 0.929 . S
C46 C45 1.398 . S
C46 C47 1.352 . S
C47 C46 1.352 . S
C47 C48 1.384 . S
C47 H74 0.930 . S
C48 C43 1.407 . S
C48 C47 1.384 . S
C48 H75 0.929 . S
C49 O62 1.241 1_545 S
C49 O63 1.273 . S
C50 O64 1.251 . S
C50 O65 1.268 . S
C51 Nd41 2.836 . S
C51 C52 1.498 . S
C51 O66 1.258 . S
C51 O67 1.239 . S
C52 C51 1.498 . S
C52 C53 1.366 . S
C52 C57 1.407 . S
C53 C52 1.366 . S
C53 C54 1.392 . S
C53 H76 0.930 . S
C54 C53 1.392 . S
C54 C55 1.398 . S
C54 H77 0.929 . S
C55 C54 1.398 . S
C55 C56 1.352 . S
C56 C55 1.352 . S
C56 C57 1.384 . S
C56 H78 0.930 . S
C57 C52 1.407 . S
C57 C56 1.384 . S
C57 H79 0.929 . S
C58 O68 1.241 . S
C58 O69 1.273 . S
C59 O70 1.251 . S
C59 O71 1.268 . S
O60 Nd40 2.500 . S
O60 C42 1.258 . S
O61 Nd40 2.492 . S
O61 C42 1.239 . S
O62 Nd40 2.487 . S
O62 C49 1.241 1_565 S
O63 Nd40 2.682 1_545 S
O63 Nd41 2.414 . S
O63 C49 1.273 . S
O64 Nd40 2.410 . S
O64 C50 1.251 . S
O65 Nd41 2.424 1_565 S
O65 C50 1.268 . S
O66 Nd41 2.500 . S
O66 C51 1.258 . S
O67 Nd41 2.492 . S
O67 C51 1.239 . S
O68 Nd41 2.487 . S
O68 C58 1.241 . S
O69 Nd40 2.414 1_545 S
O69 Nd41 2.682 . S
O69 C58 1.273 . S
O70 Nd41 2.410 . S
O70 C59 1.251 . S
O71 Nd40 2.424 1_545 S
O71 C59 1.268 . S
H72 C44 0.930 . S
H73 C45 0.929 . S
H74 C47 0.930 . S
H75 C48 0.929 . S
H76 C53 0.930 . S
H77 C54 0.929 . S
H78 C56 0.930 . S
H79 C57 0.929 . S
Nd80 C82 2.836 . S
Nd80 O100 2.500 . S
Nd80 O101 2.492 . S
Nd80 O102 2.487 . S
Nd80 O103 2.682 . S
Nd80 O104 2.410 . S
Nd80 O109 2.414 . S
Nd80 O111 2.424 . S
Nd81 C91 2.836 . S
Nd81 O103 2.414 . S
Nd81 O105 2.424 . S
Nd81 O106 2.500 . S
Nd81 O107 2.492 . S
Nd81 O108 2.487 . S
Nd81 O109 2.682 . S
Nd81 O110 2.410 . S
C82 Nd80 2.836 . S
C82 C83 1.498 . S
C82 O100 1.258 . S
C82 O101 1.239 . S
C83 C82 1.498 . S
C83 C84 1.366 . S
C83 C88 1.407 . S
C84 C83 1.366 . S
C84 C85 1.392 . S
C84 H112 0.930 . S
C85 C84 1.392 . S
C85 C86 1.398 . S
C85 H113 0.929 . S
C86 C85 1.398 . S
C86 C87 1.352 . S
C87 C86 1.352 . S
C87 C88 1.384 . S
C87 H114 0.930 . S
C88 C83 1.407 . S
C88 C87 1.384 . S
C88 H115 0.929 . S
C89 O102 1.241 . S
C89 O103 1.273 . S
C90 O104 1.251 . S
C90 O105 1.268 . S
C91 Nd81 2.836 . S
C91 C92 1.498 . S
C91 O106 1.258 . S
C91 O107 1.239 . S
C92 C91 1.498 . S
C92 C93 1.366 . S
C92 C97 1.407 . S
C93 C92 1.366 . S
C93 C94 1.392 . S
C93 H116 0.930 . S
C94 C93 1.392 . S
C94 C95 1.398 . S
C94 H117 0.929 . S
C95 C94 1.398 . S
C95 C96 1.352 . S
C96 C95 1.352 . S
C96 C97 1.384 . S
C96 H118 0.930 . S
C97 C92 1.407 . S
C97 C96 1.384 . S
C97 H119 0.929 . S
C98 O108 1.241 . S
C98 O109 1.273 . S
C99 O110 1.251 . S
C99 O111 1.268 . S
O100 Nd80 2.500 . S
O100 C82 1.258 . S
O101 Nd80 2.492 . S
O101 C82 1.239 . S
O102 Nd80 2.487 . S
O102 C89 1.241 . S
O103 Nd80 2.682 . S
O103 Nd81 2.414 . S
O103 C89 1.273 . S
O104 Nd80 2.410 . S
O104 C90 1.251 . S
O105 Nd81 2.424 . S
O105 C90 1.268 . S
O106 Nd81 2.500 . S
O106 C91 1.258 . S
O107 Nd81 2.492 . S
O107 C91 1.239 . S
O108 Nd81 2.487 . S
O108 C98 1.241 . S
O109 Nd80 2.414 . S
O109 Nd81 2.682 . S
O109 C98 1.273 . S
O110 Nd81 2.410 . S
O110 C99 1.251 . S
O111 Nd80 2.424 . S
O111 C99 1.268 . S
H112 C84 0.930 . S
H113 C85 0.929 . S
H114 C87 0.930 . S
H115 C88 0.929 . S
H116 C93 0.930 . S
H117 C94 0.929 . S
H118 C96 0.930 . S
H119 C97 0.929 . S
C120 C121 1.264 . S
C120 C125 1.479 . S
C120 C130 1.465 . S
C121 C120 1.264 . S
C121 C123 1.339 . S
C121 H148 0.931 . S
C122 C123 1.395 . S
C122 C124 1.320 . S
C123 C121 1.339 . S
C123 C122 1.395 . S
C123 H149 0.929 . S
C124 C122 1.320 . S
C124 C125 1.405 . S
C124 H150 0.930 . S
C125 C120 1.479 . S
C125 C124 1.405 . S
C125 H151 0.931 . S
U126 O127 2.454 1_545 S
U126 O128 2.458 1_545 S
U126 C129 2.984 1_545 S
U126 C130 2.847 . S
U126 C143 2.882 . S
U126 O144 2.441 . S
U126 O145 2.420 . S
U126 O146 2.455 . S
U126 O147 2.449 . S
O127 U126 2.454 1_565 S
O127 C129 1.353 . S
O128 U126 2.458 1_565 S
O128 C129 1.286 . S
C129 U126 2.984 1_565 S
C129 O127 1.353 . S
C129 O128 1.286 . S
C129 C131 1.363 . S
C130 C120 1.465 . S
C130 U126 2.847 . S
C130 O144 1.249 . S
C130 O145 1.202 . S
C131 C129 1.363 . S
C131 C133 1.408 . S
C131 C136 1.342 . S
C132 C133 1.310 . S
C132 C135 1.461 . S
C132 H152 0.932 . S
C133 C131 1.408 . S
C133 C132 1.310 . S
C133 H153 0.930 . S
C134 C135 1.474 . S
C134 C136 1.285 . S
C134 H154 0.929 . S
C135 C132 1.461 . S
C135 C134 1.474 . S
C136 C131 1.342 . S
C136 C134 1.285 . S
C136 H155 0.930 . S
C137 C140 1.424 . S
C137 C142 1.245 . S
C137 C143 1.428 . S
C138 C141 1.260 . S
C138 C142 1.477 . S
C138 H156 0.932 . S
C139 C140 1.384 . S
C139 C141 1.479 . S
C139 H157 0.929 . S
C140 C137 1.424 . S
C140 C139 1.384 . S
C140 H158 0.928 . S
C141 C138 1.260 . S
C141 C139 1.479 . S
C142 C137 1.245 . S
C142 C138 1.477 . S
C142 H159 0.932 1_545 S
C143 U126 2.882 . S
C143 C137 1.428 . S
C143 O146 1.301 . S
C143 O147 1.282 . S
O144 U126 2.441 . S
O144 C130 1.249 . S
O145 U126 2.420 . S
O145 C130 1.202 . S
O146 U126 2.455 . S
O146 C143 1.301 . S
O147 U126 2.449 . S
O147 C143 1.282 . S
H148 C121 0.931 . S
H149 C123 0.929 . S
H150 C124 0.930 . S
H151 C125 0.931 . S
H152 C132 0.932 . S
H153 C133 0.930 . S
H154 C134 0.929 . S
H155 C136 0.930 . S
H156 C138 0.932 . S
H157 C139 0.929 . S
H158 C140 0.928 . S
H159 C142 0.932 1_565 S
C160 C161 1.264 . S
C160 C165 1.479 . S
C160 C170 1.465 . S
C161 C160 1.264 . S
C161 C163 1.339 . S
C161 H188 0.931 . S
C162 C163 1.395 . S
C162 C164 1.320 . S
C163 C161 1.339 . S
C163 C162 1.395 . S
C163 H189 0.929 . S
C164 C162 1.320 . S
C164 C165 1.405 . S
C164 H190 0.930 . S
C165 C160 1.479 . S
C165 C164 1.405 . S
C165 H191 0.931 . S
U166 O167 2.454 . S
U166 O168 2.458 . S
U166 C169 2.984 . S
U166 C170 2.847 . S
U166 C183 2.882 . S
U166 O184 2.441 . S
U166 O185 2.420 . S
U166 O186 2.455 . S
U166 O187 2.449 . S
O167 U166 2.454 . S
O167 C169 1.353 . S
O168 U166 2.458 . S
O168 C169 1.286 . S
C169 U166 2.984 . S
C169 O167 1.353 . S
C169 O168 1.286 . S
C169 C171 1.363 . S
C170 C160 1.465 . S
C170 U166 2.847 . S
C170 O184 1.249 . S
C170 O185 1.202 . S
C171 C169 1.363 . S
C171 C173 1.408 . S
C171 C176 1.342 . S
C172 C173 1.310 . S
C172 C175 1.461 . S
C172 H192 0.932 . S
C173 C171 1.408 . S
C173 C172 1.310 . S
C173 H193 0.930 . S
C174 C175 1.474 . S
C174 C176 1.285 . S
C174 H194 0.929 . S
C175 C172 1.461 . S
C175 C174 1.474 . S
C176 C171 1.342 . S
C176 C174 1.285 . S
C176 H195 0.930 . S
C177 C180 1.424 . S
C177 C182 1.245 . S
C177 C183 1.428 . S
C178 C181 1.260 . S
C178 C182 1.477 . S
C178 H196 0.932 . S
C179 C180 1.384 . S
C179 C181 1.479 . S
C179 H197 0.929 . S
C180 C177 1.424 . S
C180 C179 1.384 . S
C180 H198 0.928 . S
C181 C178 1.260 . S
C181 C179 1.479 . S
C182 C177 1.245 . S
C182 C178 1.477 . S
C182 H199 0.932 . S
C183 U166 2.882 . S
C183 C177 1.428 . S
C183 O186 1.301 . S
C183 O187 1.282 . S
O184 U166 2.441 . S
O184 C170 1.249 . S
O185 U166 2.420 . S
O185 C170 1.202 . S
O186 U166 2.455 . S
O186 C183 1.301 . S
O187 U166 2.449 . S
O187 C183 1.282 . S
H188 C161 0.931 . S
H189 C163 0.929 . S
H190 C164 0.930 . S
H191 C165 0.931 . S
H192 C172 0.932 . S
H193 C173 0.930 . S
H194 C174 0.929 . S
H195 C176 0.930 . S
H196 C178 0.932 . S
H197 C179 0.929 . S
H198 C180 0.928 . S
H199 C182 0.932 . S
C200 C201 1.264 . S
C200 C205 1.479 . S
C200 C210 1.465 . S
C201 C200 1.264 . S
C201 C203 1.339 . S
C201 H228 0.931 . S
C202 C203 1.395 . S
C202 C204 1.320 . S
C203 C201 1.339 . S
C203 C202 1.395 . S
C203 H229 0.929 . S
C204 C202 1.320 . S
C204 C205 1.405 . S
C204 H230 0.930 . S
C205 C200 1.479 . S
C205 C204 1.405 . S
C205 H231 0.931 . S
U206 O207 2.454 . S
U206 O208 2.458 . S
U206 C209 2.984 . S
U206 C210 2.847 1_455 S
U206 C223 2.882 . S
U206 O224 2.441 1_455 S
U206 O225 2.420 1_455 S
U206 O226 2.455 . S
U206 O227 2.449 1_455 S
O207 U206 2.454 . S
O207 C209 1.353 . S
O208 U206 2.458 . S
O208 C209 1.286 . S
C209 U206 2.984 . S
C209 O207 1.353 . S
C209 O208 1.286 . S
C209 C211 1.363 . S
C210 C200 1.465 . S
C210 U206 2.847 1_655 S
C210 O224 1.249 . S
C210 O225 1.202 . S
C211 C209 1.363 . S
C211 C213 1.408 . S
C211 C216 1.342 . S
C212 C213 1.310 . S
C212 C215 1.461 . S
C212 H232 0.932 . S
C213 C211 1.408 . S
C213 C212 1.310 . S
C213 H233 0.930 . S
C214 C215 1.474 . S
C214 C216 1.285 . S
C214 H234 0.929 . S
C215 C212 1.461 . S
C215 C214 1.474 . S
C216 C211 1.342 . S
C216 C214 1.285 . S
C216 H235 0.930 . S
C217 C220 1.424 1_455 S
C217 C222 1.245 . S
C217 C223 1.428 . S
C218 C221 1.260 . S
C218 C222 1.477 1_554 S
C218 H236 0.932 . S
C219 C220 1.384 1_554 S
C219 C221 1.479 1_655 S
C219 H237 0.929 . S
C220 C217 1.424 1_655 S
C220 C219 1.384 1_556 S
C220 H238 0.928 . S
C221 C218 1.260 . S
C221 C219 1.479 1_455 S
C222 C217 1.245 . S
C222 C218 1.477 1_556 S
C222 H239 0.932 . S
C223 U206 2.882 . S
C223 C217 1.428 . S
C223 O226 1.301 . S
C223 O227 1.282 1_455 S
O224 U206 2.441 1_655 S
O224 C210 1.249 . S
O225 U206 2.420 1_655 S
O225 C210 1.202 . S
O226 U206 2.455 . S
O226 C223 1.301 . S
O227 U206 2.449 1_655 S
O227 C223 1.282 1_655 S
H228 C201 0.931 . S
H229 C203 0.929 . S
H230 C204 0.930 . S
H231 C205 0.931 . S
H232 C212 0.932 . S
H233 C213 0.930 . S
H234 C214 0.929 . S
H235 C216 0.930 . S
H236 C218 0.932 . S
H237 C219 0.929 . S
H238 C220 0.928 . S
H239 C222 0.932 . S
C240 C241 1.264 . S
C240 C245 1.479 . S
C240 C250 1.465 . S
C241 C240 1.264 . S
C241 C243 1.339 . S
C241 H268 0.931 . S
C242 C243 1.395 . S
C242 C244 1.320 . S
C243 C241 1.339 . S
C243 C242 1.395 . S
C243 H269 0.929 . S
C244 C242 1.320 . S
C244 C245 1.405 . S
C244 H270 0.930 . S
C245 C240 1.479 . S
C245 C244 1.405 . S
C245 H271 0.931 . S
U246 O247 2.454 1_655 S
U246 O248 2.458 1_655 S
U246 C249 2.984 1_655 S
U246 C250 2.847 . S
U246 C263 2.882 . S
U246 O264 2.441 . S
U246 O265 2.420 . S
U246 O266 2.455 1_655 S
U246 O267 2.449 . S
O247 U246 2.454 1_455 S
O247 C249 1.353 . S
O248 U246 2.458 1_455 S
O248 C249 1.286 . S
C249 U246 2.984 1_455 S
C249 O247 1.353 . S
C249 O248 1.286 . S
C249 C251 1.363 . S
C250 C240 1.465 . S
C250 U246 2.847 . S
C250 O264 1.249 . S
C250 O265 1.202 . S
C251 C249 1.363 . S
C251 C253 1.408 . S
C251 C256 1.342 . S
C252 C253 1.310 . S
C252 C255 1.461 . S
C252 H272 0.932 . S
C253 C251 1.408 . S
C253 C252 1.310 . S
C253 H273 0.930 . S
C254 C255 1.474 . S
C254 C256 1.285 . S
C254 H274 0.929 . S
C255 C252 1.461 . S
C255 C254 1.474 . S
C256 C251 1.342 . S
C256 C254 1.285 . S
C256 H275 0.930 . S
C257 C260 1.424 . S
C257 C262 1.245 1_655 S
C257 C263 1.428 . S
C258 C261 1.260 1_455 S
C258 C262 1.477 . S
C258 H276 0.932 . S
C259 C260 1.384 . S
C259 C261 1.479 . S
C259 H277 0.929 . S
C260 C257 1.424 . S
C260 C259 1.384 . S
C260 H278 0.928 . S
C261 C258 1.260 1_655 S
C261 C259 1.479 . S
C262 C257 1.245 1_455 S
C262 C258 1.477 . S
C262 H279 0.932 . S
C263 U246 2.882 . S
C263 C257 1.428 . S
C263 O266 1.301 1_655 S
C263 O267 1.282 . S
O264 U246 2.441 . S
O264 C250 1.249 . S
O265 U246 2.420 . S
O265 C250 1.202 . S
O266 U246 2.455 1_455 S
O266 C263 1.301 1_455 S
O267 U246 2.449 . S
O267 C263 1.282 . S
H268 C241 0.931 . S
H269 C243 0.929 . S
H270 C244 0.930 . S
H271 C245 0.931 . S
H272 C252 0.932 . S
H273 C253 0.930 . S
H274 C254 0.929 . S
H275 C256 0.930 . S
H276 C258 0.932 . S
H277 C259 0.929 . S
H278 C260 0.928 . S
H279 C262 0.932 . S
C280 C281 1.264 . S
C280 C285 1.479 . S
C280 C290 1.465 . S
C281 C280 1.264 . S
C281 C283 1.339 . S
C281 H308 0.931 . S
C282 C283 1.395 . S
C282 C284 1.320 . S
C283 C281 1.339 . S
C283 C282 1.395 . S
C283 H309 0.929 . S
C284 C282 1.320 . S
C284 C285 1.405 . S
C284 H310 0.930 . S
C285 C280 1.479 . S
C285 C284 1.405 . S
C285 H311 0.931 . S
U286 O287 2.459 . S
U286 O288 2.467 . S
U286 C289 2.993 . S
U286 C290 2.839 1_545 S
U286 C303 2.883 1_545 S
U286 O304 2.435 1_545 S
U286 O305 2.411 1_545 S
U286 O306 2.460 . S
U286 O307 2.445 1_545 S
O287 U286 2.459 . S
O287 C289 1.353 . S
O288 U286 2.467 . S
O288 C289 1.286 . S
C289 U286 2.993 . S
C289 O287 1.353 . S
C289 O288 1.286 . S
C289 C291 1.363 . S
C290 C280 1.465 . S
C290 U286 2.839 1_565 S
C290 O304 1.249 . S
C290 O305 1.202 . S
C291 C289 1.363 . S
C291 C293 1.408 . S
C291 C296 1.342 . S
C292 C293 1.310 . S
C292 C295 1.461 . S
C292 H312 0.932 . S
C293 C291 1.408 . S
C293 C292 1.310 . S
C293 H313 0.930 . S
C294 C295 1.474 . S
C294 C296 1.285 . S
C294 H314 0.929 . S
C295 C292 1.461 . S
C295 C294 1.474 . S
C296 C291 1.342 . S
C296 C294 1.285 . S
C296 H315 0.930 . S
C297 C300 1.424 . S
C297 C302 1.245 1_565 S
C297 C303 1.428 . S
C298 C301 1.260 1_545 S
C298 C302 1.477 . S
C298 H316 0.932 . S
C299 C300 1.384 . S
C299 C301 1.479 . S
C299 H317 0.929 . S
C300 C297 1.424 . S
C300 C299 1.384 . S
C300 H318 0.928 . S
C301 C298 1.260 1_565 S
C301 C299 1.479 . S
C302 C297 1.245 1_545 S
C302 C298 1.477 . S
C302 H319 0.932 . S
C303 U286 2.883 1_565 S
C303 C297 1.428 . S
C303 O306 1.301 1_565 S
C303 O307 1.282 . S
O304 U286 2.435 1_565 S
O304 C290 1.249 . S
O305 U286 2.411 1_565 S
O305 C290 1.202 . S
O306 U286 2.460 . S
O306 C303 1.301 1_545 S
O307 U286 2.445 1_565 S
O307 C303 1.282 . S
H308 C281 0.931 . S
H309 C283 0.929 . S
H310 C284 0.930 . S
H311 C285 0.931 . S
H312 C292 0.932 . S
H313 C293 0.930 . S
H314 C294 0.929 . S
H315 C296 0.930 . S
H316 C298 0.932 . S
H317 C299 0.929 . S
H318 C300 0.928 . S
H319 C302 0.932 . S
C320 C321 1.264 . S
C320 C325 1.479 . S
C320 C330 1.465 . S
C321 C320 1.264 . S
C321 C323 1.339 . S
C321 H348 0.931 . S
C322 C323 1.395 . S
C322 C324 1.320 . S
C323 C321 1.339 . S
C323 C322 1.395 . S
C323 H349 0.929 . S
C324 C322 1.320 . S
C324 C325 1.405 . S
C324 H350 0.930 . S
C325 C320 1.479 . S
C325 C324 1.405 . S
C325 H351 0.931 . S
U326 O327 2.454 . S
U326 O328 2.458 . S
U326 C329 2.984 . S
U326 C330 2.847 . S
U326 C343 2.882 . S
U326 O344 2.441 . S
U326 O345 2.420 . S
U326 O346 2.455 . S
U326 O347 2.449 . S
O327 U326 2.454 . S
O327 C329 1.353 . S
O328 U326 2.458 . S
O328 C329 1.286 . S
C329 U326 2.984 . S
C329 O327 1.353 . S
C329 O328 1.286 . S
C329 C331 1.363 . S
C330 C320 1.465 . S
C330 U326 2.847 . S
C330 O344 1.249 . S
C330 O345 1.202 . S
C331 C329 1.363 . S
C331 C333 1.408 . S
C331 C336 1.342 . S
C332 C333 1.310 . S
C332 C335 1.461 . S
C332 H352 0.932 . S
C333 C331 1.408 . S
C333 C332 1.310 . S
C333 H353 0.930 . S
C334 C335 1.474 . S
C334 C336 1.285 . S
C334 H354 0.929 . S
C335 C332 1.461 . S
C335 C334 1.474 . S
C336 C331 1.342 . S
C336 C334 1.285 . S
C336 H355 0.930 . S
C337 C340 1.424 . S
C337 C342 1.245 . S
C337 C343 1.428 . S
C338 C341 1.260 . S
C338 C342 1.477 1_556 S
C338 H356 0.932 . S
C339 C340 1.376 1_556 S
C339 C341 1.483 . S
C339 H357 0.933 . S
C340 C337 1.424 . S
C340 C339 1.376 1_554 S
C340 H358 0.928 . S
C341 C338 1.260 . S
C341 C339 1.483 . S
C342 C337 1.245 . S
C342 C338 1.477 1_554 S
C342 H359 0.932 . S
C343 U326 2.882 . S
C343 C337 1.428 . S
C343 O346 1.301 . S
C343 O347 1.282 . S
O344 U326 2.441 . S
O344 C330 1.249 . S
O345 U326 2.420 . S
O345 C330 1.202 . S
O346 U326 2.455 . S
O346 C343 1.301 . S
O347 U326 2.449 . S
O347 C343 1.282 . S
H348 C321 0.931 . S
H349 C323 0.929 . S
H350 C324 0.930 . S
H351 C325 0.931 . S
H352 C332 0.932 . S
H353 C333 0.930 . S
H354 C334 0.929 . S
H355 C336 0.930 . S
H356 C338 0.932 . S
H357 C339 0.933 . S
H358 C340 0.928 . S
H359 C342 0.932 . S
C360 C361 1.363 . S
C360 C366 1.379 . S
C360 N368 1.356 . S
C361 C360 1.363 . S
C361 C367 1.363 . S
C362 C363 1.363 . S
C362 C367 1.379 . S
C362 N369 1.356 . S
C363 C362 1.363 . S
C363 C366 1.363 . S
N364 C366 1.356 . S
N364 H376 0.984 . S
N364 H377 0.985 . S
N365 C367 1.356 . S
N365 H370 0.984 . S
N365 H371 0.985 . S
C366 C360 1.379 . S
C366 C363 1.363 . S
C366 N364 1.356 . S
C367 C361 1.363 . S
C367 C362 1.379 . S
C367 N365 1.356 . S
N368 C360 1.356 . S
N368 H374 0.984 . S
N368 H375 0.984 . S
N369 C362 1.356 . S
N369 H372 0.984 . S
N369 H373 0.985 . S
H370 N365 0.984 . S
H371 N365 0.985 . S
H372 N369 0.984 . S
H373 N369 0.985 . S
H374 N368 0.984 . S
H375 N368 0.984 . S
H376 N364 0.984 . S
H377 N364 0.985 . S
C378 C379 1.363 . S
C378 C384 1.379 . S
C378 N386 1.356 . S
C379 C378 1.363 . S
C379 C385 1.363 . S
C380 C381 1.363 . S
C380 C385 1.379 . S
C380 N387 1.356 . S
C381 C380 1.363 . S
C381 C384 1.363 . S
N382 C384 1.356 . S
N382 H394 0.984 . S
N382 H395 0.985 . S
N383 C385 1.356 . S
N383 H388 0.984 . S
N383 H389 0.985 . S
C384 C378 1.379 . S
C384 C381 1.363 . S
C384 N382 1.356 . S
C385 C379 1.363 . S
C385 C380 1.379 . S
C385 N383 1.356 . S
N386 C378 1.356 . S
N386 H392 0.984 . S
N386 H393 0.984 . S
N387 C380 1.356 . S
N387 H390 0.984 . S
N387 H391 0.985 . S
H388 N383 0.984 . S
H389 N383 0.985 . S
H390 N387 0.984 . S
H391 N387 0.985 . S
H392 N386 0.984 . S
H393 N386 0.984 . S
H394 N382 0.984 . S
H395 N382 0.985 . S
C396 C397 1.363 . S
C396 C402 1.379 . S
C396 N404 1.356 . S
C397 C396 1.363 . S
C397 C403 1.363 . S
C398 C399 1.363 . S
C398 C403 1.379 . S
C398 N405 1.356 . S
C399 C398 1.363 . S
C399 C402 1.363 . S
N400 C402 1.356 . S
N400 H412 0.984 . S
N400 H413 0.985 . S
N401 C403 1.356 . S
N401 H406 0.984 . S
N401 H407 0.985 . S
C402 C396 1.379 . S
C402 C399 1.363 . S
C402 N400 1.356 . S
C403 C397 1.363 . S
C403 C398 1.379 . S
C403 N401 1.356 . S
N404 C396 1.356 . S
N404 H410 0.984 . S
N404 H411 0.984 . S
N405 C398 1.356 . S
N405 H408 0.984 . S
N405 H409 0.985 . S
H406 N401 0.984 . S
H407 N401 0.985 . S
H408 N405 0.984 . S
H409 N405 0.985 . S
H410 N404 0.984 . S
H411 N404 0.984 . S
H412 N400 0.984 . S
H413 N400 0.985 . S
C414 C415 1.363 . S
C414 C420 1.379 . S
C414 N422 1.356 . S
C415 C414 1.363 . S
C415 C421 1.363 . S
C416 C417 1.363 . S
C416 C421 1.379 . S
C416 N423 1.356 . S
C417 C416 1.363 . S
C417 C420 1.363 . S
N418 C420 1.356 . S
N418 H430 0.984 . S
N418 H431 0.985 . S
N419 C421 1.356 . S
N419 H424 0.984 . S
N419 H425 0.985 . S
C420 C414 1.379 . S
C420 C417 1.363 . S
C420 N418 1.356 . S
C421 C415 1.363 . S
C421 C416 1.379 . S
C421 N419 1.356 . S
N422 C414 1.356 . S
N422 H428 0.984 . S
N422 H429 0.984 . S
N423 C416 1.356 . S
N423 H426 0.984 . S
N423 H427 0.985 . S
H424 N419 0.984 . S
H425 N419 0.985 . S
H426 N423 0.984 . S
H427 N423 0.985 . S
H428 N422 0.984 . S
H429 N422 0.984 . S
H430 N418 0.984 . S
H431 N418 0.985 . S
C432 C433 1.363 . S
C432 C438 1.379 . S
C432 N440 1.356 . S
C433 C432 1.363 . S
C433 C439 1.363 . S
C434 C435 1.363 . S
C434 C439 1.379 . S
C434 N441 1.356 . S
C435 C434 1.363 . S
C435 C438 1.363 . S
N436 C438 1.356 . S
N436 H448 0.984 . S
N436 H449 0.985 . S
N437 C439 1.356 . S
N437 H442 0.984 . S
N437 H443 0.985 . S
C438 C432 1.379 . S
C438 C435 1.363 . S
C438 N436 1.356 . S
C439 C433 1.363 . S
C439 C434 1.379 . S
C439 N437 1.356 . S
N440 C432 1.356 . S
N440 H446 0.984 . S
N440 H447 0.984 . S
N441 C434 1.356 . S
N441 H444 0.984 . S
N441 H445 0.985 . S
H442 N437 0.984 . S
H443 N437 0.985 . S
H444 N441 0.984 . S
H445 N441 0.985 . S
H446 N440 0.984 . S
H447 N440 0.984 . S
H448 N436 0.984 . S
H449 N436 0.985 . S
C450 C451 1.363 . S
C450 C456 1.379 . S
C450 N458 1.356 . S
C451 C450 1.363 . S
C451 C457 1.363 . S
C452 C453 1.363 . S
C452 C457 1.379 . S
C452 N459 1.356 . S
C453 C452 1.363 . S
C453 C456 1.363 . S
N454 C456 1.356 . S
N454 H466 0.984 . S
N454 H467 0.985 . S
N455 C457 1.356 . S
N455 H460 0.984 . S
N455 H461 0.985 . S
C456 C450 1.379 . S
C456 C453 1.363 . S
C456 N454 1.356 . S
C457 C451 1.363 . S
C457 C452 1.379 . S
C457 N455 1.356 . S
N458 C450 1.356 . S
N458 H464 0.984 . S
N458 H465 0.984 . S
N459 C452 1.356 . S
N459 H462 0.984 . S
N459 H463 0.985 . S
H460 N455 0.984 . S
H461 N455 0.985 . S
H462 N459 0.984 . S
H463 N459 0.985 . S
H464 N458 0.984 . S
H465 N458 0.984 . S
H466 N454 0.984 . S
H467 N454 0.985 . S
C468 C469 1.363 . S
C468 C474 1.379 . S
C468 N476 1.356 . S
C469 C468 1.363 . S
C469 C475 1.363 . S
C470 C471 1.363 . S
C470 C475 1.379 . S
C470 N477 1.356 . S
C471 C470 1.363 . S
C471 C474 1.363 . S
N472 C474 1.356 . S
N472 H484 0.984 . S
N472 H485 0.985 . S
N473 C475 1.356 . S
N473 H478 0.984 . S
N473 H479 0.985 . S
C474 C468 1.379 . S
C474 C471 1.363 . S
C474 N472 1.356 . S
C475 C469 1.363 . S
C475 C470 1.379 . S
C475 N473 1.356 . S
N476 C468 1.356 . S
N476 H482 0.984 . S
N476 H483 0.984 . S
N477 C470 1.356 . S
N477 H480 0.984 . S
N477 H481 0.985 . S
H478 N473 0.984 . S
H479 N473 0.985 . S
H480 N477 0.984 . S
H481 N477 0.985 . S
H482 N476 0.984 . S
H483 N476 0.984 . S
H484 N472 0.984 . S
H485 N472 0.985 . S
C486 C487 1.363 . S
C486 C492 1.379 . S
C486 N494 1.356 . S
C487 C486 1.363 . S
C487 C493 1.363 . S
C488 C489 1.363 . S
C488 C493 1.379 . S
C488 N495 1.356 . S
C489 C488 1.363 . S
C489 C492 1.363 . S
N490 C492 1.356 . S
N490 H502 0.984 . S
N490 H503 0.985 . S
N491 C493 1.356 . S
N491 H496 0.984 . S
N491 H497 0.985 . S
C492 C486 1.379 . S
C492 C489 1.363 . S
C492 N490 1.356 . S
C493 C487 1.363 . S
C493 C488 1.379 . S
C493 N491 1.356 . S
N494 C486 1.356 . S
N494 H500 0.984 . S
N494 H501 0.984 . S
N495 C488 1.356 . S
N495 H498 0.984 . S
N495 H499 0.985 . S
H496 N491 0.984 . S
H497 N491 0.985 . S
H498 N495 0.984 . S
H499 N495 0.985 . S
H500 N494 0.984 . S
H501 N494 0.984 . S
H502 N490 0.984 . S
H503 N490 0.985 . S
C504 C505 1.363 . S
C504 C510 1.379 . S
C504 N512 1.356 . S
C505 C504 1.363 . S
C505 C511 1.363 . S
C506 C507 1.363 . S
C506 C511 1.379 . S
C506 N513 1.356 . S
C507 C506 1.363 . S
C507 C510 1.363 . S
N508 C510 1.356 . S
N508 H520 0.984 . S
N508 H521 0.985 . S
N509 C511 1.356 . S
N509 H514 0.984 . S
N509 H515 0.985 . S
C510 C504 1.379 . S
C510 C507 1.363 . S
C510 N508 1.356 . S
C511 C505 1.363 . S
C511 C506 1.379 . S
C511 N509 1.356 . S
N512 C504 1.356 . S
N512 H518 0.984 . S
N512 H519 0.984 . S
N513 C506 1.356 . S
N513 H516 0.984 . S
N513 H517 0.985 . S
H514 N509 0.984 . S
H515 N509 0.985 . S
H516 N513 0.984 . S
H517 N513 0.985 . S
H518 N512 0.984 . S
H519 N512 0.984 . S
H520 N508 0.984 . S
H521 N508 0.985 . S
C522 C523 1.363 . S
C522 C528 1.379 . S
C522 N530 1.356 . S
C523 C522 1.363 . S
C523 C529 1.363 . S
C524 C525 1.363 . S
C524 C529 1.379 . S
C524 N531 1.356 . S
C525 C524 1.363 . S
C525 C528 1.363 . S
N526 C528 1.356 . S
N526 H538 0.984 . S
N526 H539 0.985 . S
N527 C529 1.356 . S
N527 H532 0.984 . S
N527 H533 0.985 . S
C528 C522 1.379 . S
C528 C525 1.363 . S
C528 N526 1.356 . S
C529 C523 1.363 . S
C529 C524 1.379 . S
C529 N527 1.356 . S
N530 C522 1.356 . S
N530 H536 0.984 . S
N530 H537 0.984 . S
N531 C524 1.356 . S
N531 H534 0.984 . S
N531 H535 0.985 . S
H532 N527 0.984 . S
H533 N527 0.985 . S
H534 N531 0.984 . S
H535 N531 0.985 . S
H536 N530 0.984 . S
H537 N530 0.984 . S
H538 N526 0.984 . S
H539 N526 0.985 . S
C540 C541 1.363 . S
C540 C546 1.379 . S
C540 N548 1.356 . S
C541 C540 1.363 . S
C541 C547 1.363 . S
C542 C543 1.363 . S
C542 C547 1.379 . S
C542 N549 1.356 . S
C543 C542 1.363 . S
C543 C546 1.363 . S
N544 C546 1.356 . S
N544 H556 0.984 . S
N544 H557 0.985 . S
N545 C547 1.356 . S
N545 H550 0.984 . S
N545 H551 0.985 . S
C546 C540 1.379 . S
C546 C543 1.363 . S
C546 N544 1.356 . S
C547 C541 1.363 . S
C547 C542 1.379 . S
C547 N545 1.356 . S
N548 C540 1.356 . S
N548 H554 0.984 . S
N548 H555 0.984 . S
N549 C542 1.356 . S
N549 H552 0.984 . S
N549 H553 0.985 . S
H550 N545 0.984 . S
H551 N545 0.985 . S
H552 N549 0.984 . S
H553 N549 0.985 . S
H554 N548 0.984 . S
H555 N548 0.984 . S
H556 N544 0.984 . S
H557 N544 0.985 . S
C558 C559 1.363 . S
C558 C564 1.379 . S
C558 N566 1.356 . S
C559 C558 1.363 . S
C559 C565 1.363 . S
C560 C561 1.363 . S
C560 C565 1.379 . S
C560 N567 1.356 . S
C561 C560 1.363 . S
C561 C564 1.363 . S
N562 C564 1.356 . S
N562 H574 0.984 . S
N562 H575 0.985 . S
N563 C565 1.356 . S
N563 H568 0.984 . S
N563 H569 0.985 . S
C564 C558 1.379 . S
C564 C561 1.363 . S
C564 N562 1.356 . S
C565 C559 1.363 . S
C565 C560 1.379 . S
C565 N563 1.356 . S
N566 C558 1.356 . S
N566 H572 0.984 . S
N566 H573 0.984 . S
N567 C560 1.356 . S
N567 H570 0.984 . S
N567 H571 0.985 . S
H568 N563 0.984 . S
H569 N563 0.985 . S
H570 N567 0.984 . S
H571 N567 0.985 . S
H572 N566 0.984 . S
H573 N566 0.984 . S
H574 N562 0.984 . S
H575 N562 0.985 . S
C576 C577 1.363 . S
C576 C582 1.379 . S
C576 N584 1.356 . S
C577 C576 1.363 . S
C577 C583 1.363 . S
C578 C579 1.363 . S
C578 C583 1.379 . S
C578 N585 1.356 . S
C579 C578 1.363 . S
C579 C582 1.363 . S
N580 C582 1.356 . S
N580 H592 0.984 . S
N580 H593 0.985 . S
N581 C583 1.356 . S
N581 H586 0.984 . S
N581 H587 0.985 . S
C582 C576 1.379 . S
C582 C579 1.363 . S
C582 N580 1.356 . S
C583 C577 1.363 . S
C583 C578 1.379 . S
C583 N581 1.356 . S
N584 C576 1.356 . S
N584 H590 0.984 . S
N584 H591 0.984 . S
N585 C578 1.356 . S
N585 H588 0.984 . S
N585 H589 0.985 . S
H586 N581 0.984 . S
H587 N581 0.985 . S
H588 N585 0.984 . S
H589 N585 0.985 . S
H590 N584 0.984 . S
H591 N584 0.984 . S
H592 N580 0.984 . S
H593 N580 0.985 . S
C594 C595 1.363 . S
C594 C600 1.379 . S
C594 N602 1.356 1_545 S
C595 C594 1.363 . S
C595 C601 1.363 . S
C596 C597 1.363 . S
C596 C601 1.379 . S
C596 N603 1.356 . S
C597 C596 1.363 . S
C597 C600 1.363 . S
N598 C600 1.356 . S
N598 H610 0.984 1_545 S
N598 H611 0.985 . S
N599 C601 1.356 . S
N599 H604 0.984 . S
N599 H605 0.985 . S
C600 C594 1.379 . S
C600 C597 1.363 . S
C600 N598 1.356 . S
C601 C595 1.363 . S
C601 C596 1.379 . S
C601 N599 1.356 . S
N602 C594 1.356 1_565 S
N602 H608 0.984 . S
N602 H609 0.984 . S
N603 C596 1.356 . S
N603 H606 0.984 . S
N603 H607 0.985 . S
H604 N599 0.984 . S
H605 N599 0.985 . S
H606 N603 0.984 . S
H607 N603 0.985 . S
H608 N602 0.984 . S
H609 N602 0.984 . S
H610 N598 0.984 1_565 S
H611 N598 0.985 . S
C612 C613 1.363 . S
C612 C618 1.379 . S
C612 N620 1.356 . S
C613 C612 1.363 . S
C613 C619 1.363 . S
C614 C615 1.363 . S
C614 C619 1.379 . S
C614 N621 1.356 . S
C615 C614 1.363 . S
C615 C618 1.363 . S
N616 C618 1.356 . S
N616 H628 0.984 . S
N616 H629 0.985 . S
N617 C619 1.356 . S
N617 H622 0.984 . S
N617 H623 0.985 . S
C618 C612 1.379 . S
C618 C615 1.363 . S
C618 N616 1.356 . S
C619 C613 1.363 . S
C619 C614 1.379 . S
C619 N617 1.356 . S
N620 C612 1.356 . S
N620 H626 0.984 . S
N620 H627 0.984 . S
N621 C614 1.356 . S
N621 H624 0.984 . S
N621 H625 0.985 . S
H622 N617 0.984 . S
H623 N617 0.985 . S
H624 N621 0.984 . S
H625 N621 0.985 . S
H626 N620 0.984 . S
H627 N620 0.984 . S
H628 N616 0.984 . S
H629 N616 0.985 . S
C630 C631 1.363 1_565 S
C630 C636 1.379 . S
C630 N638 1.356 . S
C631 C630 1.363 1_545 S
C631 C637 1.363 . S
C632 C633 1.363 1_545 S
C632 C637 1.379 . S
C632 N639 1.356 . S
C633 C632 1.363 1_565 S
C633 C636 1.363 . S
N634 C636 1.356 . S
N634 H646 0.984 . S
N634 H647 0.985 . S
N635 C637 1.356 . S
N635 H640 0.984 . S
N635 H641 0.985 . S
C636 C630 1.379 . S
C636 C633 1.363 . S
C636 N634 1.356 . S
C637 C631 1.363 . S
C637 C632 1.379 . S
C637 N635 1.356 . S
N638 C630 1.356 . S
N638 H644 0.984 . S
N638 H645 0.984 . S
N639 C632 1.356 . S
N639 H642 0.984 . S
N639 H643 0.985 . S
H640 N635 0.984 . S
H641 N635 0.985 . S
H642 N639 0.984 . S
H643 N639 0.985 . S
H644 N638 0.984 . S
H645 N638 0.984 . S
H646 N634 0.984 . S
H647 N634 0.985 . S
C648 C649 1.363 . S
C648 C654 1.379 . S
C648 N656 1.356 . S
C649 C648 1.363 . S
C649 C655 1.363 . S
C650 C651 1.363 . S
C650 C655 1.379 . S
C650 N657 1.356 . S
C651 C650 1.363 . S
C651 C654 1.363 . S
N652 C654 1.356 . S
N652 H664 0.984 . S
N652 H665 0.985 . S
N653 C655 1.356 . S
N653 H658 0.984 . S
N653 H659 0.985 . S
C654 C648 1.379 . S
C654 C651 1.363 . S
C654 N652 1.356 . S
C655 C649 1.363 . S
C655 C650 1.379 . S
C655 N653 1.356 . S
N656 C648 1.356 . S
N656 H662 0.984 . S
N656 H663 0.984 . S
N657 C650 1.356 . S
N657 H660 0.984 . S
N657 H661 0.985 . S
H658 N653 0.984 . S
H659 N653 0.985 . S
H660 N657 0.984 . S
H661 N657 0.985 . S
H662 N656 0.984 . S
H663 N656 0.984 . S
H664 N652 0.984 . S
H665 N652 0.985 . S
C666 C667 1.363 . S
C666 C672 1.379 . S
C666 N674 1.356 . S
C667 C666 1.363 . S
C667 C673 1.363 1_455 S
C668 C669 1.369 . S
C668 C673 1.379 . S
C668 N675 1.356 . S
C669 C668 1.369 . S
C669 C672 1.356 1_655 S
N670 C672 1.356 . S
N670 H682 0.984 . S
N670 H683 0.985 . S
N671 C673 1.356 . S
N671 H676 0.984 . S
N671 H677 0.985 . S
C672 C666 1.379 . S
C672 C669 1.356 1_455 S
C672 N670 1.356 . S
C673 C667 1.363 1_655 S
C673 C668 1.379 . S
C673 N671 1.356 . S
N674 C666 1.356 . S
N674 H680 0.984 . S
N674 H681 0.984 . S
N675 C668 1.356 . S
N675 H678 0.984 . S
N675 H679 0.985 . S
H676 N671 0.984 . S
H677 N671 0.985 . S
H678 N675 0.984 . S
H679 N675 0.985 . S
H680 N674 0.984 . S
H681 N674 0.984 . S
H682 N670 0.984 . S
H683 N670 0.985 . S
C361 C10 3.272 . S
C363 C335 3.197 . S
C379 C55 1.254 . S
C381 C242 1.258 . S
C397 C90 2.066 . S
C399 C282 2.038 . S
C415 C19 3.170 . S
C417 C322 3.118 . S
C435 C255 1.383 . S
C433 C46 1.365 . S
C453 C295 2.222 . S
C451 C99 2.332 . S
C469 C50 2.073 . S
C471 C162 2.037 . S
C487 C95 0.862 . S
C489 C202 0.864 . S
C505 C6 1.388 . S
C507 C135 1.385 . S
C525 C175 2.171 . S
C523 C59 2.301 . S
C543 C215 0.474 . S
C541 C86 0.584 . S
C559 C15 1.352 . S
C561 C122 1.384 . S
C579 C221 1.095 . S
C577 C18 1.120 . S
C595 C49 1.469 . S
C597 C141 1.509 . S
C613 C98 1.349 . S
C615 C181 1.376 . S
C633 C301 1.385 . S
C631 C58 1.352 . S
C651 C341 1.781 . S
C649 C89 1.715 . S
C667 C9 1.462 . S
C669 C261 1.510 . S
