# Generated by pormake.
# Topology zzz, (3,6)-cn, num edge types: 1
# Building blocks:
#     Node 0, Type 0, BuildingBlock: WUSLED_clean_sbu_0, # of connection points: 3
#     Node 1, Type 0, BuildingBlock: WUSLED_clean_sbu_0, # of connection points: 3
#     Node 2, Type 0, BuildingBlock: WUSLED_clean_sbu_0, # of connection points: 3
#     Node 3, Type 0, BuildingBlock: WUSLED_clean_sbu_0, # of connection points: 3
#     Node 4, Type 0, BuildingBlock: WUSLED_clean_sbu_0, # of connection points: 3
#     Node 5, Type 0, BuildingBlock: WUSLED_clean_sbu_0, # of connection points: 3
#     Node 6, Type 0, BuildingBlock: WUSLED_clean_sbu_0, # of connection points: 3
#     Node 7, Type 0, BuildingBlock: WUSLED_clean_sbu_0, # of connection points: 3
#     Node 8, Type 1, BuildingBlock: BETGAK_clean_sbu_0, # of connection points: 6
#     Node 9, Type 1, BuildingBlock: BETGAK_clean_sbu_0, # of connection points: 6
#     Node 10, Type 1, BuildingBlock: BETGAK_clean_sbu_0, # of connection points: 6
#     Node 11, Type 1, BuildingBlock: BETGAK_clean_sbu_0, # of connection points: 6
#     Edge 12, Type (0, 1), BuildingBlock: XUDNAN_clean_linker_2, # of connection points: 2
#     Edge 13, Type (0, 1), BuildingBlock: XUDNAN_clean_linker_2, # of connection points: 2
#     Edge 14, Type (0, 1), BuildingBlock: XUDNAN_clean_linker_2, # of connection points: 2
#     Edge 15, Type (0, 1), BuildingBlock: XUDNAN_clean_linker_2, # of connection points: 2
#     Edge 16, Type (0, 1), BuildingBlock: XUDNAN_clean_linker_2, # of connection points: 2
#     Edge 17, Type (0, 1), BuildingBlock: XUDNAN_clean_linker_2, # of connection points: 2
#     Edge 18, Type (0, 1), BuildingBlock: XUDNAN_clean_linker_2, # of connection points: 2
#     Edge 19, Type (0, 1), BuildingBlock: XUDNAN_clean_linker_2, # of connection points: 2
#     Edge 20, Type (0, 1), BuildingBlock: XUDNAN_clean_linker_2, # of connection points: 2
#     Edge 21, Type (0, 1), BuildingBlock: XUDNAN_clean_linker_2, # of connection points: 2
#     Edge 22, Type (0, 1), BuildingBlock: XUDNAN_clean_linker_2, # of connection points: 2
#     Edge 23, Type (0, 1), BuildingBlock: XUDNAN_clean_linker_2, # of connection points: 2
#     Edge 24, Type (0, 1), BuildingBlock: XUDNAN_clean_linker_2, # of connection points: 2
#     Edge 25, Type (0, 1), BuildingBlock: XUDNAN_clean_linker_2, # of connection points: 2
#     Edge 26, Type (0, 1), BuildingBlock: XUDNAN_clean_linker_2, # of connection points: 2
#     Edge 27, Type (0, 1), BuildingBlock: XUDNAN_clean_linker_2, # of connection points: 2
#     Edge 28, Type (0, 1), BuildingBlock: XUDNAN_clean_linker_2, # of connection points: 2
#     Edge 29, Type (0, 1), BuildingBlock: XUDNAN_clean_linker_2, # of connection points: 2
#     Edge 30, Type (0, 1), BuildingBlock: XUDNAN_clean_linker_2, # of connection points: 2
#     Edge 31, Type (0, 1), BuildingBlock: XUDNAN_clean_linker_2, # of connection points: 2
#     Edge 32, Type (0, 1), BuildingBlock: XUDNAN_clean_linker_2, # of connection points: 2
#     Edge 33, Type (0, 1), BuildingBlock: XUDNAN_clean_linker_2, # of connection points: 2
#     Edge 34, Type (0, 1), BuildingBlock: XUDNAN_clean_linker_2, # of connection points: 2
#     Edge 35, Type (0, 1), BuildingBlock: XUDNAN_clean_linker_2, # of connection points: 2
# Relax obj value: 0.422
# Max RMSD: 0.263
# Mean RMSD: 0.247
data_MOF--net-zzz--node1-WUSLED_clean_sbu_0--node2-BETGAK_clean_sbu_0--edge1-XUDNAN_clean_linker_2
_symmetry_space_group_name_H-M    P1
_symmetry_Int_Tables_number       1
_symmetry_cell_setting            triclinic
loop_
_symmetry_equiv_pos_as_xyz
'x, y, z'
_cell_length_a     63.968222
_cell_length_b     64.242629
_cell_length_c     19.600063
_cell_angle_alpha  89.991391
_cell_angle_beta   90.081592
_cell_angle_gamma 89.83562
loop_
_atom_site_label
_atom_site_type_symbol
_atom_site_fract_x
_atom_site_fract_y
_atom_site_fract_z
_atom_type_partial_charge
C0 C 0.7795 0.51518 0.48215 0.0
C1 C 0.79558 0.5175 0.4341 0.0
C2 C 0.82283 0.51331 0.52266 0.0
C3 C 0.81679 0.5165 0.45385 0.0
C4 C 0.80664 0.51172 0.57118 0.0
C5 C 0.78536 0.51253 0.55113 0.0
U6 U 0.73182 0.51421 0.35304 0.0
O7 O 0.70088 0.49913 0.36102 0.0
O8 O 0.70269 0.53288 0.35057 0.0
C9 C 0.6906 0.51638 0.34692 0.0
C10 C 0.75669 0.51586 0.46216 0.0
C11 C 0.67597 0.51545 0.28672 0.0
C12 C 0.64052 0.5175 0.23813 0.0
C13 C 0.65433 0.51884 0.29447 0.0
C14 C 0.6697 0.50952 0.16472 0.0
C15 C 0.64792 0.51253 0.17233 0.0
C16 C 0.68346 0.51101 0.22077 0.0
C17 C 0.76635 0.50769 0.1911 0.0
C18 C 0.78119 0.50409 0.07889 0.0
C19 C 0.80348 0.5025 0.17938 0.0
C20 C 0.78609 0.50539 0.22093 0.0
C21 C 0.80099 0.50162 0.10819 0.0
C22 C 0.76394 0.50717 0.1203 0.0
C23 C 0.74766 0.50998 0.23148 0.0
O24 O 0.75007 0.53234 0.4285 0.0
O25 O 0.74831 0.49858 0.43873 0.0
O26 O 0.74267 0.49406 0.27019 0.0
O27 O 0.74467 0.52821 0.26017 0.0
H28 H 0.79176 0.52015 0.38112 0.0
H29 H 0.82856 0.51829 0.41464 0.0
H30 H 0.81038 0.50923 0.62447 0.0
H31 H 0.7734 0.51094 0.58982 0.0
H32 H 0.62394 0.51973 0.24655 0.0
H33 H 0.64802 0.5223 0.34445 0.0
H34 H 0.67617 0.5059 0.11506 0.0
H35 H 0.70001 0.50846 0.2126 0.0
H36 H 0.77908 0.50367 0.02404 0.0
H37 H 0.81872 0.50046 0.20269 0.0
H38 H 0.78793 0.50548 0.27571 0.0
H39 H 0.74864 0.5089 0.09708 0.0
C40 C 1.01323 0.77796 0.47538 0.0
C41 C 0.02855 0.79157 0.44966 0.0
C42 C 1.01488 0.82122 0.51725 0.0
C43 C 0.02934 0.81267 0.47011 0.0
C44 C 0.99984 0.80746 0.54422 0.0
C45 C 0.99902 0.78629 0.52352 0.0
U46 U 1.01311 0.7294 0.3496 0.0
O47 O 0.02919 0.69882 0.35491 0.0
O48 O 0.99517 0.69999 0.35066 0.0
C49 C 1.01193 0.68822 0.34415 0.0
C50 C 1.01271 0.75495 0.45695 0.0
C51 C 1.01215 0.67336 0.28426 0.0
C52 C 0.0165 0.63802 0.23668 0.0
C53 C 0.01584 0.65185 0.29313 0.0
C54 C 1.0096 0.66682 0.16105 0.0
C55 C 1.01368 0.64529 0.16929 0.0
C56 C 1.00888 0.68055 0.21723 0.0
C57 C 0.0164 0.76558 0.19341 0.0
C58 C 1.01369 0.78388 0.08663 0.0
C59 C 0.02952 0.80062 0.18518 0.0
C60 C 0.0257 0.78293 0.2241 0.0
C61 C 0.02399 0.80092 0.11575 0.0
C62 C 1.00997 0.76626 0.12536 0.0
C63 C 1.01495 0.74584 0.22834 0.0
O64 O 0.9957 0.74763 0.42779 0.0
O65 O 0.02977 0.74645 0.43149 0.0
O66 O 0.03162 0.74022 0.26312 0.0
O67 O 0.99719 0.74207 0.25936 0.0
H68 H 0.04005 0.78594 0.41357 0.0
H69 H 0.04147 0.82239 0.44862 0.0
H70 H 0.98831 0.81316 0.5801 0.0
H71 H 0.98716 0.77633 0.54546 0.0
H72 H 0.01991 0.62173 0.24571 0.0
H73 H 0.01847 0.64573 0.34391 0.0
H74 H 1.00709 0.67321 0.11056 0.0
H75 H 1.00595 0.69693 0.20805 0.0
H76 H 1.00893 0.78403 0.03356 0.0
H77 H 0.03751 0.81367 0.20847 0.0
H78 H 0.03068 0.78248 0.27696 0.0
H79 H 1.00272 0.75287 0.10153 0.0
C80 C 0.75036 1.01194 0.47257 0.0
C81 C 0.73488 0.02686 0.45554 0.0
C82 C 0.70824 1.00882 0.52499 0.0
C83 C 0.71416 0.02532 0.48139 0.0
C84 C 0.72395 0.9943 0.54278 0.0
C85 C 0.74446 0.99584 0.51726 0.0
U86 U 0.79863 0.01325 0.34354 0.0
O87 O 0.82837 0.03077 0.34871 0.0
O88 O 0.82896 0.99675 0.34842 0.0
C89 C 0.83987 0.01393 0.34081 0.0
C90 C 0.77306 0.01345 0.45064 0.0
C91 C 0.85563 0.01438 0.28361 0.0
C92 C 0.88906 0.02693 0.23861 0.0
C93 C 0.8741 0.02593 0.2912 0.0
C94 C 0.86773 1.00457 0.16857 0.0
C95 C 0.88618 0.01639 0.17605 0.0
C96 C 0.85262 1.00369 0.22133 0.0
C97 C 0.76289 1.0127 0.18632 0.0
C98 C 0.74501 1.01106 0.07847 0.0
C99 C 0.72709 0.02416 0.17916 0.0
C100 C 0.74491 0.02052 0.21802 0.0
C101 C 0.72731 0.01995 0.10882 0.0
C102 C 0.76277 1.00749 0.1172 0.0
C103 C 0.78268 1.01219 0.22143 0.0
O104 O 0.78193 0.99654 0.42593 0.0
O105 O 0.77967 0.03046 0.42008 0.0
O106 O 0.7877 0.02956 0.25268 0.0
O107 O 0.7868 0.99524 0.25652 0.0
H108 H 0.73872 0.03972 0.4222 0.0
H109 H 0.70267 0.0368 0.46596 0.0
H110 H 0.72041 0.98156 0.57704 0.0
H111 H 0.7559 0.98436 0.5332 0.0
H112 H 0.90305 0.036 0.24732 0.0
H113 H 0.87699 0.03433 0.33818 0.0
H114 H 0.8647 0.99641 0.12126 0.0
H115 H 0.83851 0.99475 0.21314 0.0
H116 H 0.74527 1.0074 0.02451 0.0
H117 H 0.71352 0.0311 0.20329 0.0
H118 H 0.745 0.02464 0.27165 0.0
H119 H 0.7767 1.00147 0.09261 0.0
C120 C 0.51472 0.74831 0.47444 0.0
C121 C 0.50016 0.73419 0.44698 0.0
C122 C 0.51402 0.70522 0.51699 0.0
C123 C 0.49983 0.71314 0.4678 0.0
C124 C 0.52826 0.71948 0.54576 0.0
C125 C 0.52861 0.7406 0.52471 0.0
U126 U 0.51435 0.79638 0.3472 0.0
O127 O 0.49746 0.82644 0.3517 0.0
O128 O 0.5316 0.82618 0.34929 0.0
C129 C 0.51453 0.8375 0.34304 0.0
C130 C 0.51479 0.7712 0.45529 0.0
C131 C 0.51419 0.85328 0.28608 0.0
C132 C 0.5148 0.88981 0.25001 0.0
C133 C 0.51522 0.87456 0.30166 0.0
C134 C 0.51235 0.86298 0.16444 0.0
C135 C 0.51312 0.88448 0.18015 0.0
C136 C 0.51285 0.84763 0.21655 0.0
C137 C 0.51267 0.76013 0.19121 0.0
C138 C 0.51536 0.74193 0.08434 0.0
C139 C 0.50082 0.72463 0.18387 0.0
C140 C 0.50423 0.74246 0.22252 0.0
C141 C 0.50589 0.72454 0.11412 0.0
C142 C 0.51868 0.75968 0.12282 0.0
C143 C 0.51352 0.77991 0.22594 0.0
O144 O 0.53178 0.77878 0.42689 0.0
O145 O 0.49766 0.77915 0.42835 0.0
O146 O 0.49655 0.78515 0.25959 0.0
O147 O 0.53103 0.78405 0.25813 0.0
H148 H 0.48894 0.73938 0.40919 0.0
H149 H 0.48835 0.70295 0.44485 0.0
H150 H 0.53954 0.71421 0.58327 0.0
H151 H 0.53987 0.751 0.54792 0.0
H152 H 0.51602 0.90592 0.26546 0.0
H153 H 0.51639 0.87949 0.35438 0.0
H154 H 0.51093 0.85794 0.11195 0.0
H155 H 0.51206 0.83135 0.20248 0.0
H156 H 0.51972 0.74196 0.03094 0.0
H157 H 0.49346 0.71131 0.20762 0.0
H158 H 0.49956 0.74276 0.27564 0.0
H159 H 0.52526 0.77334 0.09854 0.0
C160 C 0.25144 0.50678 0.9229 0.0
C161 C 0.23556 0.49334 0.94663 0.0
C162 C 0.20945 0.50923 0.86936 0.0
C163 C 0.21488 0.49454 0.92019 0.0
C164 C 0.22559 0.5222 0.84498 0.0
C165 C 0.24604 0.52101 0.8712 0.0
U166 U 0.29913 0.50609 0.05423 0.0
O167 O 0.32909 0.52312 0.04781 0.0
O168 O 0.32923 0.48911 0.05206 0.0
C169 C 0.34039 0.50623 0.05733 0.0
C170 C 0.27399 0.5057 0.94604 0.0
C171 C 0.35629 0.50712 0.11402 0.0
C172 C 0.39118 0.51728 0.15333 0.0
C173 C 0.37596 0.51595 0.10157 0.0
C174 C 0.36756 0.50092 0.2326 0.0
C175 C 0.38733 0.50995 0.22017 0.0
C176 C 0.35225 0.49961 0.18043 0.0
C177 C 0.26354 0.50731 0.21262 0.0
C178 C 0.24639 0.5047 0.32128 0.0
C179 C 0.2263 0.51266 0.21904 0.0
C180 C 0.2445 0.51162 0.18025 0.0
C181 C 0.22725 0.50936 0.28993 0.0
C182 C 0.26442 0.50362 0.28267 0.0
C183 C 0.28305 0.50714 0.17602 0.0
O184 O 0.28227 0.52273 0.97168 0.0
O185 O 0.28085 0.48873 0.97661 0.0
O186 O 0.28757 0.48968 0.1444 0.0
O187 O 0.28739 0.52403 0.14106 0.0
H188 H 0.23906 0.48196 0.98577 0.0
H189 H 0.20305 0.4843 0.94076 0.0
H190 H 0.22244 0.53343 0.80503 0.0
H191 H 0.25782 0.53129 0.85041 0.0
H192 H 0.40616 0.52399 0.14038 0.0
H193 H 0.37963 0.52189 0.05127 0.0
H194 H 0.36371 0.49525 0.28304 0.0
H195 H 0.33719 0.49284 0.19221 0.0
H196 H 0.24754 0.50247 0.37595 0.0
H197 H 0.2116 0.51614 0.19394 0.0
H198 H 0.2438 0.51441 0.12575 0.0
H199 H 0.27918 0.50031 0.30777 0.0
C200 C 0.02263 0.24904 0.927 0.0
C201 C 0.03381 0.23267 0.9587 0.0
C202 C 0.02271 0.20739 0.87049 0.0
C203 C 0.03367 0.21216 0.93133 0.0
C204 C 1.01142 0.22387 0.83976 0.0
C205 C 1.01139 0.24414 0.86737 0.0
U206 U 0.02464 0.29687 0.05814 0.0
O207 O 1.00665 0.32631 0.0543 0.0
O208 O 0.04071 0.32729 0.0521 0.0
C209 C 0.02335 0.33804 0.06082 0.0
C210 C 0.02318 0.27153 0.95057 0.0
C211 C 0.02305 0.35313 0.11967 0.0
C212 C 0.01794 0.38851 0.16553 0.0
C213 C 0.01923 0.37455 0.10964 0.0
C214 C 0.02461 0.35998 0.2426 0.0
C215 C 0.02024 0.38141 0.23329 0.0
C216 C 0.02592 0.34613 0.18702 0.0
C217 C 0.02556 0.25971 0.20871 0.0
C218 C 0.01652 0.23831 0.30498 0.0
C219 C 0.02152 0.22275 0.19308 0.0
C220 C 0.02619 0.24221 0.16637 0.0
C221 C 0.01588 0.22085 0.262 0.0
C222 C 0.02137 0.2577 0.27826 0.0
C223 C 0.02618 0.28035 0.17966 0.0
O224 O 1.00649 0.27918 0.98078 0.0
O225 O 0.04063 0.27894 0.97656 0.0
O226 O 0.04301 0.2849 0.14441 0.0
O227 O 1.00866 0.28591 0.14973 0.0
H228 H 0.04302 0.23576 1.00387 0.0
H229 H 0.04273 0.2002 0.95678 0.0
H230 H 1.00241 0.22118 0.79382 0.0
H231 H 1.00272 0.25623 0.84101 0.0
H232 H 1.01439 0.40473 0.15574 0.0
H233 H 0.01688 0.38048 0.05847 0.0
H234 H 0.02681 0.35375 0.29346 0.0
H235 H 0.02892 0.3298 0.19689 0.0
H236 H 1.01196 0.23724 0.35808 0.0
H237 H 0.02134 0.2094 0.15932 0.0
H238 H 0.02917 0.2438 0.11232 0.0
H239 H 0.02063 0.27129 0.31099 0.0
C240 C 0.27878 0.01888 0.91645 0.0
C241 C 0.29656 0.01809 0.9591 0.0
C242 C 0.32048 0.02003 0.86006 0.0
C243 C 0.31707 0.01861 0.93136 0.0
C244 C 0.30249 0.02047 0.8181 0.0
C245 C 0.28218 0.01999 0.84572 0.0
U246 U 0.23182 0.01858 0.05122 0.0
O247 O 0.20138 0.03492 0.04706 0.0
O248 O 0.2022 1.00092 0.04789 0.0
C249 C 0.19056 0.0177 0.05477 0.0
C250 C 0.25652 0.01843 0.94203 0.0
C251 C 0.17472 0.0174 0.11151 0.0
C252 C 0.13859 1.01182 0.14838 0.0
C253 C 0.15383 1.01257 0.09669 0.0
C254 C 0.16462 0.02086 0.23232 0.0
C255 C 0.14361 0.01568 0.21754 0.0
C256 C 0.17995 0.02165 0.18014 0.0
C257 C 0.26792 0.02028 0.2082 0.0
C258 C 0.28598 0.0271 0.31343 0.0
C259 C 0.30453 1.01184 0.21735 0.0
C260 C 0.28627 1.01247 0.17884 0.0
C261 C 0.30435 0.01893 0.28517 0.0
C262 C 0.26786 0.02783 0.27491 0.0
C263 C 0.24819 0.01972 0.17268 0.0
O264 O 0.24983 1.00145 0.97242 0.0
O265 O 0.24877 0.03546 0.96958 0.0
O266 O 0.24331 0.0366 0.13834 0.0
O267 O 0.24387 1.00224 0.14088 0.0
H268 H 0.29462 0.01724 0.01381 0.0
H269 H 0.33024 0.01834 0.96608 0.0
H270 H 0.30395 0.02099 0.76314 0.0
H271 H 0.26895 0.02047 0.81115 0.0
H272 H 0.1227 1.00829 0.1335 0.0
H273 H 0.14921 1.00932 0.04458 0.0
H274 H 0.16939 0.02384 0.28442 0.0
H275 H 0.19593 0.02542 0.19357 0.0
H276 H 0.28544 0.0323 0.36598 0.0
H277 H 0.31866 1.00559 0.19464 0.0
H278 H 0.28631 1.00646 0.12726 0.0
H279 H 0.25363 0.03375 0.29786 0.0
C280 C 0.5118 0.27731 0.92352 0.0
C281 C 0.49732 0.2926 0.94526 0.0
C282 C 0.51242 0.31914 0.86798 0.0
C283 C 0.49767 0.31315 0.91812 0.0
C284 C 0.52717 0.3038 0.84833 0.0
C285 C 0.52674 0.28343 0.87498 0.0
U286 U 0.51081 0.22895 0.05133 0.0
O287 O 0.52805 0.19902 0.04657 0.0
O288 O 0.49396 0.19897 0.04618 0.0
C289 C 0.51106 0.18781 0.05472 0.0
C290 C 0.51092 0.25461 0.94471 0.0
C291 C 0.51116 0.17294 0.11434 0.0
C292 C 0.51873 0.13845 0.16391 0.0
C293 C 0.5181 0.15219 0.10732 0.0
C294 C 0.50524 0.1658 0.23577 0.0
C295 C 0.51256 0.14506 0.22964 0.0
C296 C 0.50467 0.17947 0.1795 0.0
C297 C 0.51105 0.26445 0.20891 0.0
C298 C 0.50981 0.28232 0.31655 0.0
C299 C 0.51416 0.30181 0.21113 0.0
C300 C 0.51346 0.28332 0.17416 0.0
C301 C 0.5124 0.30133 0.28261 0.0
C302 C 0.50908 0.26397 0.27973 0.0
C303 C 0.511 0.2448 0.17352 0.0
O304 O 0.52793 0.24624 0.97097 0.0
O305 O 0.49376 0.2474 0.97317 0.0
O306 O 0.4937 0.24037 0.14052 0.0
O307 O 0.52819 0.2403 0.13994 0.0
H308 H 0.48546 0.28862 0.98232 0.0
H309 H 0.48593 0.32412 0.93523 0.0
H310 H 0.53933 0.30737 0.81193 0.0
H311 H 0.53807 0.27223 0.85645 0.0
H312 H 0.52461 0.1228 0.15639 0.0
H313 H 0.52328 0.14663 0.05799 0.0
H314 H 0.49987 0.17165 0.28451 0.0
H315 H 0.49922 0.19527 0.18716 0.0
H316 H 0.5088 0.28158 0.37167 0.0
H317 H 0.51606 0.3164 0.18412 0.0
H318 H 0.51496 0.28368 0.11908 0.0
H319 H 0.50728 0.24934 0.30666 0.0
La320 La 0.03261 1.01101 0.74258 0.0
La321 La 0.99864 0.01771 0.65686 0.0
C322 C 0.05523 0.99698 0.83597 0.0
C323 C 0.05454 0.97607 0.86522 0.0
C324 C 0.07197 0.96295 0.85925 0.0
C325 C 0.07045 0.94208 0.87769 0.0
C326 C 0.05152 0.93428 0.90265 0.0
C327 C 0.03414 0.94741 0.90932 0.0
C328 C 0.03559 0.96814 0.89055 0.0
C329 C 0.04538 0.01964 0.6161 0.0
C330 C 1.01101 0.97136 0.66817 0.0
C331 C 0.97443 0.03196 0.56808 0.0
C332 C 0.97473 0.05262 0.53769 0.0
C333 C 0.95592 0.06306 0.52522 0.0
C334 C 0.95622 0.08327 0.49971 0.0
C335 C 0.97535 0.09316 0.48707 0.0
C336 C 0.99418 0.0829 0.50141 0.0
C337 C 0.99389 0.06271 0.52645 0.0
C338 C 0.98645 1.00923 0.78453 0.0
C339 C 0.02155 0.05743 0.72301 0.0
O340 O 0.06125 0.99779 0.77243 0.0
O341 O 0.03876 1.00854 0.84707 0.0
O342 O 0.05401 0.02668 0.67137 0.0
O343 O 0.03008 1.00831 0.63347 0.0
O344 O 0.02226 0.97802 0.72111 0.0
O345 O 1.00099 0.98507 0.63044 0.0
O346 O 0.96988 0.03169 0.63288 0.0
O347 O 0.99051 0.0202 0.55374 0.0
O348 O 0.97823 1.0014 0.72987 0.0
O349 O 1.00129 0.02084 0.76548 0.0
O350 O 1.0109 0.04988 0.67056 0.0
O351 O 0.03081 0.04439 0.76525 0.0
H352 H 0.08654 0.9687 0.83852 0.0
H353 H 0.08401 0.93207 0.87256 0.0
H354 H 0.01931 0.94152 0.92768 0.0
H355 H 0.02167 0.97772 0.89409 0.0
H356 H 0.94107 0.05559 0.53512 0.0
H357 H 0.94155 0.09108 0.48895 0.0
H358 H 1.00911 0.0902 0.49107 0.0
H359 H 1.00865 0.055 0.53665 0.0
La360 La 0.51721 0.02784 0.73871 0.0
La361 La 0.5112 0.99493 0.65173 0.0
C362 C 0.53007 0.05091 0.83237 0.0
C363 C 0.55081 0.05053 0.86325 0.0
C364 C 0.56312 0.06853 0.86228 0.0
C365 C 0.58406 0.06744 0.88134 0.0
C366 C 0.59272 0.04837 0.90172 0.0
C367 C 0.58036 0.03044 0.90346 0.0
C368 C 0.55957 0.03147 0.88419 0.0
C369 C 0.50777 0.04211 0.61382 0.0
C370 C 0.55766 1.00628 0.66907 0.0
C371 C 0.4974 0.97171 0.55999 0.0
C372 C 0.47771 0.97499 0.52382 0.0
C373 C 0.46188 0.96006 0.52949 0.0
C374 C 0.4413 0.96541 0.51405 0.0
C375 C 0.43651 0.98573 0.49299 0.0
C376 C 0.45251 1.0002 0.48285 0.0
C377 C 0.47297 0.99491 0.49829 0.0
C378 C 0.5192 0.98155 0.77872 0.0
C379 C 0.47098 0.01661 0.71726 0.0
O380 O 0.52974 0.05661 0.76852 0.0
O381 O 0.51871 0.0344 0.84311 0.0
O382 O 0.49999 0.04855 0.67107 0.0
O383 O 0.51984 0.02688 0.62825 0.0
O384 O 0.55047 0.01826 0.7191 0.0
O385 O 0.54442 0.99574 0.6314 0.0
O386 O 0.49509 0.96777 0.62483 0.0
O387 O 0.51185 0.98565 0.54919 0.0
O388 O 0.52659 0.97328 0.72363 0.0
O389 O 0.50777 0.9967 0.76096 0.0
O390 O 0.47872 1.00721 0.66269 0.0
O391 O 0.48392 0.02489 0.76166 0.0
H392 H 0.5567 0.08321 0.84475 0.0
H393 H 0.59349 0.08142 0.88001 0.0
H394 H 0.58692 0.01551 0.9181 0.0
H395 H 0.55063 0.01717 0.88354 0.0
H396 H 0.4652 0.94479 0.55041 0.0
H397 H 0.42906 0.95404 0.52188 0.0
H398 H 0.44914 0.01583 0.46502 0.0
H399 H 0.48476 1.00691 0.49438 0.0
La400 La 0.49934 0.51523 0.74109 0.0
La401 La 0.53411 0.50958 0.65 0.0
C402 C 0.47552 0.52851 0.83219 0.0
C403 C 0.47619 0.54889 0.86491 0.0
C404 C 0.45851 0.56177 0.86231 0.0
C405 C 0.45998 0.58252 0.88203 0.0
C406 C 0.47914 0.59045 0.90485 0.0
C407 C 0.49673 0.57749 0.90876 0.0
C408 C 0.49532 0.55686 0.88858 0.0
C409 C 0.48736 0.50565 0.61431 0.0
C410 C 0.52104 0.55577 0.66989 0.0
C411 C 0.55247 0.49792 0.54445 0.0
C412 C 0.5482 0.47861 0.50789 0.0
C413 C 0.56452 0.46435 0.49793 0.0
C414 C 0.56005 0.44375 0.48162 0.0
C415 C 0.53921 0.43728 0.47526 0.0
C416 C 0.52295 0.4518 0.48152 0.0
C417 C 0.52739 0.47231 0.49803 0.0
C418 C 0.55193 0.51398 0.77154 0.0
C419 C 0.51371 0.46954 0.72245 0.0
O420 O 0.47079 0.52911 0.76744 0.0
O421 O 0.49139 0.5162 0.84465 0.0
O422 O 0.47911 0.49804 0.66925 0.0
O423 O 0.50198 0.51762 0.63297 0.0
O424 O 0.50734 0.54846 0.71525 0.0
O425 O 0.53378 0.54302 0.63748 0.0
O426 O 0.55992 0.49486 0.60564 0.0
O427 O 0.53761 0.51195 0.54377 0.0
O428 O 0.56153 0.51318 0.7139 0.0
O429 O 0.53229 0.51445 0.76024 0.0
O430 O 0.52331 0.47729 0.66827 0.0
O431 O 0.50428 0.48225 0.76529 0.0
H432 H 0.4438 0.55598 0.84264 0.0
H433 H 0.44625 0.59239 0.87904 0.0
H434 H 0.51172 0.58348 0.92544 0.0
H435 H 0.5094 0.54745 0.88918 0.0
H436 H 0.58059 0.46882 0.50721 0.0
H437 H 0.5728 0.4327 0.47722 0.0
H438 H 0.50677 0.44716 0.47558 0.0
H439 H 0.51444 0.48286 0.50689 0.0
La440 La 1.01341 0.49714 0.75603 0.0
La441 La 0.01817 0.53005 0.64369 0.0
C442 C 1.00244 0.48162 0.86652 0.0
C443 C 0.98141 0.48337 0.89458 0.0
C444 C 0.97022 0.46519 0.90919 0.0
C445 C 0.94866 0.46611 0.91839 0.0
C446 C 0.93819 0.48525 0.91324 0.0
C447 C 0.94943 0.50348 0.90019 0.0
C448 C 0.97086 0.50255 0.89064 0.0
C449 C 0.01834 0.47721 0.63664 0.0
C450 C 0.9727 0.51416 0.67222 0.0
C451 C 0.02913 0.54655 0.53433 0.0
C452 C 0.04967 0.54403 0.50263 0.0
C453 C 0.06307 0.56125 0.49848 0.0
C454 C 0.08446 0.55824 0.48921 0.0
C455 C 0.09254 0.53798 0.48398 0.0
C456 C 0.07898 0.52093 0.48347 0.0
C457 C 0.05776 0.52394 0.49302 0.0
C458 C 1.01251 0.5498 0.76343 0.0
C459 C 0.05911 0.51169 0.72334 0.0
O460 O 1.00298 0.47106 0.80966 0.0
O461 O 1.01329 0.49889 0.86301 0.0
O462 O 0.01739 0.46874 0.6964 0.0
O463 O 0.01844 0.49682 0.64732 0.0
O464 O 0.98026 0.50363 0.72562 0.0
O465 O 0.98489 0.52501 0.63118 0.0
O466 O 0.02995 0.55611 0.59304 0.0
O467 O 0.0172 0.52998 0.53656 0.0
O468 O 1.01322 0.55832 0.70378 0.0
O469 O 1.0128 0.53027 0.752 0.0
O470 O 0.05104 0.52288 0.67233 0.0
O471 O 0.04728 0.50052 0.76473 0.0
H472 H 0.978 0.45018 0.90999 0.0
H473 H 0.94018 0.45191 0.92908 0.0
H474 H 0.94153 0.51837 0.89537 0.0
H475 H 0.97891 0.51667 0.87635 0.0
H476 H 0.05721 0.57686 0.50726 0.0
H477 H 0.09474 0.5716 0.48926 0.0
H478 H 0.08485 0.50519 0.47756 0.0
H479 H 0.04797 0.51042 0.49726 0.0
H480 H 0.13861 0.03785 0.3411 0.0
H481 H 0.11062 0.98818 0.22188 0.0
H482 H 0.08264 0.98494 0.30673 0.0
H483 H 0.12774 0.01507 0.50702 0.0
H484 H 0.12193 0.03957 0.54768 0.0
H485 H 0.13974 0.03867 0.4766 0.0
H486 H 0.11718 0.06592 0.41253 0.0
H487 H 0.09926 0.06687 0.48338 0.0
H488 H 0.08976 0.06092 0.39902 0.0
H489 H 0.05672 0.98707 0.40455 0.0
H490 H 0.03648 0.99333 0.50996 0.0
H491 H 0.08131 0.04017 0.57181 0.0
C492 C 0.12672 0.02617 0.33281 0.0
C493 C 0.127 0.01355 0.27285 0.0
C494 C 0.11082 0.99857 0.26531 0.0
C495 C 0.09477 0.99644 0.31393 0.0
C496 C 0.09482 1.00924 0.37138 0.0
C497 C 0.11044 0.02374 0.38145 0.0
C498 C 0.10677 0.03536 0.44844 0.0
C499 C 0.12514 0.03196 0.49786 0.0
C500 C 0.10303 0.05865 0.43503 0.0
C501 C 0.08689 0.02495 0.47466 0.0
C502 C 0.08016 1.01007 0.42884 0.0
C503 C 0.06196 0.99865 0.44079 0.0
C504 C 0.05048 1.00235 0.50102 0.0
C505 C 0.05716 0.01719 0.54989 0.0
C506 C 0.07568 0.02868 0.53587 0.0
H507 H 0.50663 0.10148 0.24463 0.0
H508 H 0.52385 0.1568 0.35899 0.0
H509 H 0.52593 0.13604 0.46362 0.0
H510 H 0.47492 0.07769 0.37346 0.0
H511 H 0.48372 0.05139 0.35867 0.0
H512 H 0.48419 0.07011 0.29022 0.0
H513 H 0.52361 0.06303 0.27233 0.0
H514 H 0.52327 0.04427 0.34082 0.0
H515 H 0.54135 0.06572 0.34327 0.0
H516 H 0.52517 0.11042 0.55785 0.0
H517 H 0.52098 0.08125 0.6375 0.0
H518 H 0.5048 0.04051 0.46903 0.0
C519 C 0.51103 0.10922 0.29152 0.0
C520 C 0.51466 0.1312 0.29248 0.0
C521 C 0.52035 0.14036 0.35579 0.0
C522 C 0.52181 0.12856 0.41601 0.0
C523 C 0.51782 0.10726 0.41352 0.0
C524 C 0.51264 0.09751 0.3531 0.0
C525 C 0.50893 0.07425 0.36633 0.0
C526 C 0.48661 0.068 0.34595 0.0
C527 C 0.52526 0.06103 0.32841 0.0
C528 C 0.51211 0.07275 0.44377 0.0
C529 C 0.51754 0.09208 0.46909 0.0
C530 C 0.52101 0.09521 0.53849 0.0
C531 C 0.51856 0.07842 0.58358 0.0
C532 C 0.51257 0.05838 0.56039 0.0
C533 C 0.5096 0.05548 0.48881 0.0
H534 H 0.39728 0.48356 0.33071 0.0
H535 H 0.41484 0.5424 0.23834 0.0
H536 H 0.44245 0.5467 0.32445 0.0
H537 H 0.40504 0.49934 0.50604 0.0
H538 H 0.41577 0.47473 0.53332 0.0
H539 H 0.39761 0.47567 0.46304 0.0
H540 H 0.42455 0.45679 0.38611 0.0
H541 H 0.44283 0.45585 0.45615 0.0
H542 H 0.45035 0.4676 0.37644 0.0
H543 H 0.46909 0.54471 0.42046 0.0
H544 H 0.49074 0.53751 0.52225 0.0
H545 H 0.4556 0.48105 0.55923 0.0
C546 C 0.4068 0.49744 0.32868 0.0
C547 C 0.40374 0.51247 0.27594 0.0
C548 C 0.41688 0.53029 0.27615 0.0
C549 C 0.43267 0.53299 0.32553 0.0
C550 C 0.4354 0.51785 0.37578 0.0
C551 C 0.42277 0.50045 0.3781 0.0
C552 C 0.42908 0.48662 0.43821 0.0
C553 C 0.41078 0.48394 0.48812 0.0
C554 C 0.43717 0.46545 0.4127 0.0
C555 C 0.44678 0.49921 0.47022 0.0
C556 C 0.45039 0.51701 0.43246 0.0
C557 C 0.46629 0.53084 0.45037 0.0
C558 C 0.47864 0.52656 0.50841 0.0
C559 C 0.47503 0.50872 0.54938 0.0
C560 C 0.45882 0.49486 0.52941 0.0
H561 H 0.03279 0.4232 0.25899 0.0
H562 H 0.99854 0.37163 0.34807 0.0
H563 H 0.99287 0.39204 0.45193 0.0
H564 H 0.05884 0.43987 0.41118 0.0
H565 H 0.05622 0.46748 0.39661 0.0
H566 H 0.05678 0.44978 0.32533 0.0
H567 H 0.02146 0.46447 0.28281 0.0
H568 H 0.02078 0.48224 0.35407 0.0
H569 H 0.99929 0.46471 0.33946 0.0
H570 H 0.99126 0.41629 0.54725 0.0
H571 H 0.99545 0.44276 0.63506 0.0
H572 H 0.03143 0.48072 0.49489 0.0
C573 C 0.02393 0.41631 0.30017 0.0
C574 C 0.0164 0.39538 0.29471 0.0
C575 C 1.00493 0.3872 0.35043 0.0
C576 C 1.00142 0.39883 0.4099 0.0
C577 C 1.00926 0.419 0.41419 0.0
C578 C 0.02027 0.42786 0.36123 0.0
C579 C 0.02731 0.44987 0.38205 0.0
C580 C 0.05122 0.45186 0.37859 0.0
C581 C 0.01658 0.4663 0.33689 0.0
C582 C 0.01939 0.45136 0.45594 0.0
C583 C 1.00858 0.4334 0.47167 0.0
C584 C 0.99969 0.43042 0.53547 0.0
C585 C 1.00226 0.44575 0.58544 0.0
C586 C 1.01391 0.4642 0.57351 0.0
C587 C 0.02228 0.46718 0.50658 0.0
H588 H 0.90179 0.98642 0.08416 0.0
H589 H 0.90667 0.05185 0.13663 0.0
H590 H 0.93306 0.05656 0.04663 0.0
H591 H 0.95783 0.97991 0.04629 0.0
H592 H 0.95355 0.96193 0.97719 0.0
H593 H 0.9352 0.96326 0.04683 0.0
H594 H 0.90509 0.97026 0.96137 0.0
H595 H 0.92332 0.9689 0.89155 0.0
H596 H 0.90715 0.9917 0.90234 0.0
H597 H 0.95969 0.05445 0.95109 0.0
H598 H 0.98276 0.04596 0.85392 0.0
H599 H 0.9604 0.98233 0.85666 0.0
C600 C 0.9083 1.00177 0.07649 0.0
C601 C 0.902 0.01873 0.11877 0.0
C602 C 0.91126 0.03846 0.10657 0.0
C603 C 0.9263 0.04135 0.05502 0.0
C604 C 0.93229 0.02438 0.01508 0.0
C605 C 0.92359 1.00494 0.02504 0.0
C606 C 0.9331 0.98933 0.97498 0.0
C607 C 0.94565 0.97261 0.01362 0.0
C608 C 0.91615 0.97947 0.92987 0.0
C609 C 0.94768 1.0032 0.93342 0.0
C610 C 0.94732 0.02328 0.95874 0.0
C611 C 0.96 0.03878 0.9309 0.0
C612 C 0.97319 0.03377 0.87568 0.0
C613 C 0.97353 0.01347 0.84719 0.0
C614 C 0.96051 0.99801 0.87688 0.0
H615 H 0.52718 0.88429 0.04327 0.0
H616 H 0.4953 0.9236 0.19072 0.0
H617 H 0.49413 0.95196 0.10694 0.0
H618 H 0.55833 0.92414 0.96507 0.0
H619 H 0.55549 0.91437 0.87936 0.0
H620 H 0.55398 0.89676 0.95075 0.0
H621 H 0.51761 0.88432 0.9096 0.0
H622 H 0.51903 0.90187 0.838 0.0
H623 H 0.49714 0.9032 0.89562 0.0
H624 H 0.4963 0.97695 1.00619 0.0
H625 H 0.50139 0.99566 0.89714 0.0
H626 H 0.53129 0.94092 0.81182 0.0
C627 C 0.51978 0.89876 0.05812 0.0
C628 C 0.51171 0.90141 0.12551 0.0
C629 C 0.50225 0.92091 0.14121 0.0
C630 C 0.5013 0.93726 0.09331 0.0
C631 C 0.50963 0.93421 0.02835 0.0
C632 C 0.51857 0.91539 1.01039 0.0
C633 C 0.52618 0.91628 0.93654 0.0
C634 C 0.54991 0.91267 0.93273 0.0
C635 C 0.51429 0.90047 0.89232 0.0
C636 C 0.52051 0.93858 0.91643 0.0
C637 C 0.51082 0.94859 0.97018 0.0
C638 C 0.50393 0.96919 0.96396 0.0
C639 C 0.50694 0.97978 0.9016 0.0
C640 C 0.51692 0.97001 0.84547 0.0
C641 C 0.52379 0.94904 0.85359 0.0
H642 H 0.61309 0.5361 0.12837 0.0
H643 H 0.64919 0.48074 0.08006 0.0
H644 H 0.62657 0.47426 0.98074 0.0
H645 H 0.56171 0.51544 0.07359 0.0
H646 H 0.55299 0.5397 0.03694 0.0
H647 H 0.57107 0.53976 0.10764 0.0
H648 H 0.59706 0.56179 0.03705 0.0
H649 H 0.57902 0.56187 0.9664 0.0
H650 H 0.60538 0.55256 0.95453 0.0
H651 H 0.60124 0.4738 0.88457 0.0
H652 H 0.5761 0.48065 0.79215 0.0
H653 H 0.55531 0.53671 0.89517 0.0
C654 C 0.61609 0.5225 0.09724 0.0
C655 C 0.63321 0.50896 0.1127 0.0
C656 C 0.63654 0.49152 0.06964 0.0
C657 C 0.6236 0.4876 0.01306 0.0
C658 C 0.60713 0.50122 0.99896 0.0
C659 C 0.60331 0.51842 0.03936 0.0
C660 C 0.58502 0.531 1.00977 0.0
C661 C 0.56661 0.53151 0.06 0.0
C662 C 0.59204 0.55312 0.99081 0.0
C663 C 0.57946 0.51836 0.94608 0.0
C664 C 0.59236 0.50108 0.94199 0.0
C665 C 0.59097 0.48718 0.88767 0.0
C666 C 0.57648 0.49116 0.83539 0.0
C667 C 0.56327 0.5089 0.83662 0.0
C668 C 0.56465 0.52264 0.89351 0.0
H669 H 0.99976 0.60387 0.14279 0.0
H670 H 0.03485 0.65478 0.05316 0.0
H671 H 0.03957 0.63442 0.94863 0.0
H672 H 0.03141 0.56155 0.06087 0.0
H673 H 1.00936 0.54475 0.04603 0.0
H674 H 1.00926 0.56244 0.11753 0.0
H675 H 0.97444 0.57834 0.0752 0.0
H676 H 0.97442 0.5607 1.0037 0.0
H677 H 0.97271 0.58838 0.98945 0.0
H678 H 0.04059 0.61015 0.85327 0.0
H679 H 0.03591 0.58379 0.76542 0.0
H680 H 0.99913 0.54633 0.90531 0.0
C681 C 1.00859 0.61063 0.10131 0.0
C682 C 0.01672 0.63136 0.10705 0.0
C683 C 0.02807 0.63937 0.05079 0.0
C684 C 0.03102 0.62776 0.99089 0.0
C685 C 0.02267 0.60779 0.98647 0.0
C686 C 1.01162 0.59912 0.03967 0.0
C687 C 1.00389 0.57734 0.01849 0.0
C688 C 1.01408 0.56052 0.06343 0.0
C689 C 0.97994 0.57612 0.02192 0.0
C690 C 1.01172 0.57564 0.94445 0.0
C691 C 0.02288 0.59341 0.92876 0.0
C692 C 0.03184 0.5962 0.86499 0.0
C693 C 0.02901 0.58093 0.81499 0.0
C694 C 0.01704 0.56268 0.82681 0.0
C695 C 1.00853 0.55982 0.89374 0.0
H696 H 0.02385 0.20169 0.38368 0.0
H697 H 0.98726 0.19675 0.19744 0.0
H698 H 0.97054 0.16507 0.24145 0.0
H699 H 0.03373 0.14853 0.406 0.0
H700 H 0.03108 0.14876 0.4976 0.0
H701 H 0.03925 0.17191 0.45355 0.0
H702 H 1.0087 0.19254 0.50832 0.0
H703 H 1.00045 0.16938 0.55258 0.0
H704 H 0.98231 0.18323 0.49855 0.0
H705 H 0.95877 0.13421 0.30137 0.0
H706 H 0.95442 0.10285 0.3719 0.0
H707 H 0.99821 0.12757 0.52052 0.0
C708 C 1.01221 0.19397 0.35255 0.0
C709 C 1.00691 0.20141 0.28715 0.0
C710 C 0.99179 0.19095 0.24722 0.0
C711 C 0.98199 0.17319 0.27209 0.0
C712 C 0.98741 0.16636 0.33698 0.0
C713 C 1.00219 0.17628 0.37671 0.0
C714 C 1.00585 0.16495 0.44324 0.0
C715 C 0.02884 0.15812 0.45045 0.0
C716 C 0.99891 0.17833 0.50427 0.0
C717 C 0.99142 0.14664 0.43296 0.0
C718 C 0.98059 0.14814 0.37208 0.0
C719 C 0.96686 0.13288 0.3497 0.0
C720 C 0.9644 0.11526 0.39013 0.0
C721 C 0.9758 0.11312 0.45152 0.0
C722 C 0.98923 0.12909 0.47386 0.0
H723 H 0.32985 0.98521 0.29498 0.0
H724 H 0.32027 0.04792 0.37177 0.0
H725 H 0.3507 0.04378 0.44793 0.0
H726 H 0.34899 0.96214 0.45528 0.0
H727 H 0.36807 0.94619 0.41217 0.0
H728 H 0.3439 0.9529 0.37003 0.0
H729 H 0.36455 0.96847 0.2683 0.0
H730 H 0.38871 0.9616 0.30956 0.0
H731 H 0.38394 0.98819 0.28435 0.0
H732 H 0.38307 0.03435 0.50678 0.0
H733 H 0.41795 0.02116 0.53862 0.0
H734 H 0.40691 0.965 0.42121 0.0
C735 C 0.33419 0.99804 0.32787 0.0
C736 C 0.32286 0.01684 0.32817 0.0
C737 C 0.32876 0.03331 0.37189 0.0
C738 C 0.34587 0.03107 0.41536 0.0
C739 C 0.35667 1.01228 0.41417 0.0
C740 C 0.35121 0.9961 0.3713 0.0
C741 C 0.36658 0.97832 0.37533 0.0
C742 C 0.35626 0.95873 0.40498 0.0
C743 C 0.37654 0.97391 0.30525 0.0
C744 C 0.38207 0.98751 0.42478 0.0
C745 C 0.37575 1.00687 0.44786 0.0
C746 C 0.38813 0.01911 0.48999 0.0
C747 C 0.40785 1.01156 0.50747 0.0
C748 C 0.41485 0.99214 0.48219 0.0
C749 C 0.40163 0.97973 0.44201 0.0
H750 H 0.54075 0.33236 0.26661 0.0
H751 H 0.48763 0.313 0.38864 0.0
H752 H 0.49141 0.34435 0.4601 0.0
H753 H 0.57085 0.35555 0.40467 0.0
H754 H 0.58003 0.37677 0.35262 0.0
H755 H 0.57437 0.35193 0.3142 0.0
H756 H 0.54865 0.36962 0.22956 0.0
H757 H 0.5544 0.39451 0.26699 0.0
H758 H 0.52774 0.3856 0.26232 0.0
H759 H 0.49931 0.37811 0.51266 0.0
H760 H 0.50972 0.41408 0.54007 0.0
H761 H 0.55731 0.41156 0.38258 0.0
C762 C 0.52988 0.33481 0.30821 0.0
C763 C 0.51396 0.32042 0.32268 0.0
C764 C 0.50008 0.32388 0.37766 0.0
C765 C 0.50213 0.34152 0.41846 0.0
C766 C 0.51812 0.35535 0.40322 0.0
C767 C 0.53167 0.35231 0.34928 0.0
C768 C 0.54664 0.37022 0.34128 0.0
C769 C 0.56932 0.36319 0.35397 0.0
C770 C 0.54419 0.3806 0.27089 0.0
C771 C 0.53888 0.3841 0.39788 0.0
C772 C 0.52266 0.37506 0.43364 0.0
C773 C 0.51211 0.38535 0.48563 0.0
C774 C 0.51804 0.40572 0.50052 0.0
C775 C 0.53429 0.41537 0.46331 0.0
C776 C 0.54508 0.40431 0.41238 0.0
H777 H 0.19793 0.53995 0.28141 0.0
H778 H 0.21486 0.48409 0.39369 0.0
H779 H 0.18464 0.4893 0.46967 0.0
H780 H 0.17698 0.56965 0.4267 0.0
H781 H 0.15597 0.58058 0.37674 0.0
H782 H 0.18055 0.57427 0.33675 0.0
H783 H 0.16145 0.55082 0.24883 0.0
H784 H 0.13686 0.55733 0.28765 0.0
H785 H 0.14449 0.53043 0.27898 0.0
H786 H 0.15196 0.49873 0.52683 0.0
H787 H 0.1158 0.50937 0.55328 0.0
H788 H 0.1194 0.55798 0.39996 0.0
C789 C 0.19524 0.52883 0.32198 0.0
C790 C 0.20865 0.51174 0.33242 0.0
C791 C 0.20481 0.49749 0.38595 0.0
C792 C 0.18784 0.50037 0.42943 0.0
C793 C 0.17502 0.51754 0.41832 0.0
C794 C 0.17834 0.53139 0.3655 0.0
C795 C 0.16102 0.54726 0.36021 0.0
C796 C 0.16912 0.56925 0.37606 0.0
C797 C 0.15032 0.54638 0.28978 0.0
C798 C 0.14693 0.53948 0.41621 0.0
C799 C 0.15563 0.52273 0.45043 0.0
C800 C 0.145 0.51195 0.50105 0.0
C801 C 0.12452 0.51799 0.51533 0.0
C802 C 0.11502 0.53436 0.47806 0.0
C803 C 0.12655 0.54567 0.42974 0.0
H804 H 0.01925 0.84192 0.14565 0.0
H805 H 0.04164 0.79941 0.98963 0.0
H806 H 0.05112 0.82923 0.91668 0.0
H807 H 0.99723 0.87971 0.03311 0.0
H808 H 1.00509 0.90159 0.0846 0.0
H809 H 0.99994 0.87685 0.1242 0.0
H810 H 0.03698 0.87695 0.17842 0.0
H811 H 0.04225 0.90173 0.13923 0.0
H812 H 0.05954 0.88 0.12437 0.0
H813 H 0.05848 0.86331 0.86222 0.0
H814 H 0.06285 0.90019 0.82854 0.0
H815 H 0.03602 0.91976 0.02145 0.0
C816 C 0.02627 0.83894 0.09632 0.0
C817 C 0.02968 0.81857 0.07274 0.0
C818 C 0.03868 0.81507 1.00779 0.0
C819 C 0.0442 0.83181 0.96633 0.0
C820 C 0.04062 0.85176 0.9911 0.0
C821 C 0.03189 0.8554 0.05449 0.0
C822 C 0.02971 0.8783 0.06915 0.0
C823 C 1.00662 0.88447 0.07826 0.0
C824 C 0.04291 0.88461 0.13147 0.0
C825 C 0.03863 0.88694 1.00401 0.0
C826 C 0.04487 0.87141 0.95967 0.0
C827 C 0.05374 0.87567 0.8964 0.0
C828 C 0.05625 0.89651 0.87795 0.0
C829 C 0.04974 0.9125 0.92268 0.0
C830 C 0.04092 0.90767 0.98636 0.0
H831 H 0.68648 1.01243 0.13508 0.0
H832 H 0.72838 0.0407 0.98794 0.0
H833 H 0.69814 0.05106 0.91713 0.0
H834 H 0.64946 0.99258 0.01456 0.0
H835 H 0.62722 0.99804 0.06809 0.0
H836 H 0.65226 0.99249 0.1061 0.0
H837 H 0.65074 0.02744 0.17232 0.0
H838 H 0.62568 0.03312 0.13466 0.0
H839 H 0.64685 0.05139 0.12597 0.0
H840 H 0.66365 0.05893 0.86472 0.0
H841 H 0.62645 0.06316 0.83229 0.0
H842 H 0.60788 0.03018 0.01558 0.0
C843 C 0.68923 0.02085 0.08804 0.0
C844 C 0.70952 0.02575 0.06635 0.0
C845 C 0.71277 0.03661 1.00445 0.0
C846 C 0.69579 0.04263 0.96429 0.0
C847 C 0.6759 0.03763 0.98731 0.0
C848 C 0.67255 0.02697 0.04759 0.0
C849 C 0.64967 0.02365 0.06119 0.0
C850 C 0.64435 1.0003 0.06252 0.0
C851 C 0.64284 0.03456 0.12745 0.0
C852 C 0.64069 0.03424 0.99921 0.0
C853 C 0.65603 0.0422 0.95718 0.0
C854 C 0.65143 0.0528 0.89706 0.0
C855 C 0.63041 0.05521 0.8793 0.0
C856 C 0.61462 0.04693 0.92164 0.0
C857 C 0.61981 0.03646 0.9823 0.0
H858 H 0.51253 0.68374 0.14289 0.0
H859 H 0.48686 0.72557 0.99005 0.0
H860 H 0.47749 0.69549 0.91803 0.0
H861 H 0.53432 0.64658 0.02681 0.0
H862 H 0.52783 0.62449 0.07934 0.0
H863 H 0.53281 0.64939 0.11819 0.0
H864 H 0.49661 0.64822 0.17761 0.0
H865 H 0.49149 0.6233 0.13916 0.0
H866 H 0.4734 0.64453 0.12679 0.0
H867 H 0.47028 0.66124 0.86484 0.0
H868 H 0.46618 0.62427 0.8322 0.0
H869 H 0.49633 0.6054 0.0209 0.0
C870 C 0.50487 0.68651 0.09439 0.0
C871 C 0.50045 0.70675 0.07145 0.0
C872 C 0.49058 0.71 1.00764 0.0
C873 C 0.48513 0.69311 0.96672 0.0
C874 C 0.48968 0.67328 0.99087 0.0
C875 C 0.49933 0.66989 0.05308 0.0
C876 C 0.50236 0.64707 0.06741 0.0
C877 C 0.52572 0.64157 0.07324 0.0
C878 C 0.49024 0.64039 0.13153 0.0
C879 C 0.49279 0.63816 1.00356 0.0
C880 C 0.48556 0.65351 0.96009 0.0
C881 C 0.47583 0.64902 0.89832 0.0
C882 C 0.47346 0.62811 0.88049 0.0
C883 C 0.48095 0.61228 0.92433 0.0
C884 C 0.49067 0.61736 0.98647 0.0
H885 H 0.83812 0.52164 0.11193 0.0
H886 H 0.80398 0.47297 1.00676 0.0
H887 H 0.83484 0.46584 0.93466 0.0
H888 H 0.86824 0.53973 0.963 0.0
H889 H 0.8913 0.54437 0.01363 0.0
H890 H 0.86576 0.54724 0.05126 0.0
H891 H 0.87591 0.52093 0.14638 0.0
H892 H 0.90143 0.51803 0.10931 0.0
H893 H 0.88532 0.49544 0.12282 0.0
H894 H 0.87005 0.4617 0.88353 0.0
H895 H 0.90786 0.46079 0.85656 0.0
H896 H 0.91825 0.51218 0.99601 0.0
C897 C 0.83716 0.50963 0.07324 0.0
C898 C 0.81894 0.49783 0.0642 0.0
C899 C 0.81795 0.48225 0.01338 0.0
C900 C 0.83528 0.47814 0.97234 0.0
C901 C 0.85317 0.48997 0.9828 0.0
C902 C 0.8542 0.50544 0.03177 0.0
C903 C 0.87565 0.51491 0.03613 0.0
C904 C 0.8752 0.53793 0.01471 0.0
C905 C 0.88513 0.51214 0.10789 0.0
C906 C 0.88673 0.50172 0.98396 0.0
C907 C 0.87348 0.48764 0.95296 0.0
C908 C 0.88058 0.47284 0.90653 0.0
C909 C 0.90196 0.47232 0.89201 0.0
C910 C 0.91566 0.48648 0.92426 0.0
C911 C 0.90791 0.50149 0.96983 0.0
H912 H 0.02436 0.16734 0.93053 0.0
H913 H 0.02312 0.19796 0.73302 0.0
H914 H 0.0229 0.16385 0.67628 0.0
H915 H 0.0587 0.12459 0.88094 0.0
H916 H 0.04521 0.10536 0.93123 0.0
H917 H 0.04504 0.13226 0.95737 0.0
H918 H 1.00456 0.13208 0.95854 0.0
H919 H 1.00465 0.10517 0.93244 0.0
H920 H 0.99057 0.12426 0.88291 0.0
H921 H 0.02172 0.12594 0.63887 0.0
H922 H 0.02102 0.08772 0.62513 0.0
H923 H 0.02475 0.08027 0.84459 0.0
C924 C 0.02422 0.16696 0.87534 0.0
C925 C 0.02346 0.18587 0.83703 0.0
C926 C 0.02316 0.18414 0.7646 0.0
C927 C 0.02321 0.16465 0.73144 0.0
C928 C 0.02369 0.1465 0.77056 0.0
C929 C 0.02428 0.14743 0.84098 0.0
C930 C 0.0246 0.12539 0.8706 0.0
C931 C 0.04458 0.12168 0.91253 0.0
C932 C 1.00493 0.1215 0.9137 0.0
C933 C 0.02442 0.112 0.80602 0.0
C934 C 0.02364 0.12459 0.74889 0.0
C935 C 0.02247 0.11601 0.68344 0.0
C936 C 0.02201 0.09417 0.67603 0.0
C937 C 0.02298 0.08073 0.73334 0.0
C938 C 0.02435 0.08996 0.79938 0.0
H939 H 0.35883 1.00269 0.90437 0.0
H940 H 0.33248 0.04141 0.74396 0.0
H941 H 0.36696 0.04355 0.68962 0.0
H942 H 0.40772 0.02978 0.91964 0.0
H943 H 0.42324 1.00665 0.93276 0.0
H944 H 0.39616 1.00703 0.9579 0.0
H945 H 0.38911 0.97452 0.8832 0.0
H946 H 0.41621 0.97404 0.85805 0.0
H947 H 0.39598 0.97504 0.79406 0.0
H948 H 0.40494 0.04126 0.64976 0.0
H949 H 0.4431 0.03633 0.63348 0.0
H950 H 0.44629 1.0018 0.82295 0.0
C951 C 0.36022 1.01178 0.85813 0.0
C952 C 0.3423 0.02161 0.82875 0.0
C953 C 0.34536 0.03315 0.76751 0.0
C954 C 0.36512 0.03464 0.73609 0.0
C955 C 0.38223 0.0247 0.76605 0.0
C956 C 0.38003 0.01356 0.82594 0.0
C957 C 0.40114 1.00453 0.8477 0.0
C958 C 0.40743 1.01248 0.91873 0.0
C959 C 0.40057 0.98061 0.84567 0.0
C960 C 0.4156 1.01299 0.79236 0.0
C961 C 0.40424 0.02416 0.74474 0.0
C962 C 0.41393 0.03266 0.68716 0.0
C963 C 0.43565 0.02975 0.67811 0.0
C964 C 0.44778 0.01885 0.72694 0.0
C965 C 0.43751 1.01043 0.785 0.0
H966 H 0.49881 0.35835 0.91916 0.0
H967 H 0.52534 0.32976 0.73765 0.0
H968 H 0.52811 0.36405 0.68424 0.0
H969 H 0.4677 0.3972 0.82135 0.0
H970 H 0.47096 0.41735 0.8844 0.0
H971 H 0.47092 0.39038 0.90995 0.0
H972 H 0.507 0.39531 0.96759 0.0
H973 H 0.50717 0.42224 0.94196 0.0
H974 H 0.5285 0.40534 0.9182 0.0
H975 H 0.52997 0.40171 0.65035 0.0
H976 H 0.5285 0.43969 0.63563 0.0
H977 H 0.49879 0.44573 0.83374 0.0
C978 C 0.50506 0.35914 0.86798 0.0
C979 C 0.51246 0.34074 0.83448 0.0
C980 C 0.52034 0.34313 0.76696 0.0
C981 C 0.52177 0.36275 0.73525 0.0
C982 C 0.51489 0.38037 0.77017 0.0
C983 C 0.50636 0.37881 0.83463 0.0
C984 C 0.49974 0.40044 0.85966 0.0
C985 C 0.47592 0.4014 0.86945 0.0
C986 C 0.51129 0.40617 0.92579 0.0
C987 C 0.50656 0.41437 0.80025 0.0
C988 C 0.51514 0.40228 0.74914 0.0
C989 C 0.52304 0.41127 0.68976 0.0
C990 C 0.52216 0.43305 0.68194 0.0
C991 C 0.51347 0.44613 0.73303 0.0
C992 C 0.50544 0.43642 0.79315 0.0
H993 H 0.17787 0.47975 0.83772 0.0
H994 H 0.18975 0.54624 0.84488 0.0
H995 H 0.15416 0.5531 0.80377 0.0
H996 H 0.144 0.48323 0.6811 0.0
H997 H 0.12671 0.46283 0.70871 0.0
H998 H 0.15378 0.46254 0.73452 0.0
H999 H 0.14238 0.46082 0.86103 0.0
H1000 H 0.11532 0.46125 0.83547 0.0
H1001 H 0.12503 0.4805 0.89443 0.0
H1002 H 0.11735 0.55367 0.76228 0.0
H1003 H 0.08061 0.54772 0.72959 0.0
H1004 H 0.08959 0.4812 0.7539 0.0
C1005 C 0.17296 0.49575 0.83082 0.0
C1006 C 0.18711 0.51244 0.84454 0.0
C1007 C 0.17976 0.53308 0.83394 0.0
C1008 C 0.15938 0.5372 0.81066 0.0
C1009 C 0.14601 0.52061 0.79746 0.0
C1010 C 0.15239 0.50024 0.80684 0.0
C1011 C 0.13446 0.48548 0.78834 0.0
C1012 C 0.14008 0.47276 0.72441 0.0
C1013 C 0.12897 0.47117 0.84844 0.0
C1014 C 0.11672 0.50082 0.77236 0.0
C1015 C 0.12414 0.52097 0.77556 0.0
C1016 C 0.11136 0.53795 0.75987 0.0
C1017 C 0.09045 0.53441 0.74102 0.0
C1018 C 0.08201 0.51408 0.73928 0.0
C1019 C 0.09544 0.49699 0.75533 0.0
H1020 H 1.00778 0.84331 0.64206 0.0
H1021 H 0.02128 0.85285 0.42714 0.0
H1022 H 0.02196 0.89054 0.44562 0.0
H1023 H 0.97414 0.8897 0.66072 0.0
H1024 H 0.98327 0.89645 0.74486 0.0
H1025 H 0.98353 0.86966 0.71753 0.0
H1026 H 0.02303 0.86724 0.74459 0.0
H1027 H 0.02269 0.894 0.77218 0.0
H1028 H 0.04069 0.88577 0.70679 0.0
H1029 H 0.02011 0.92711 0.48234 0.0
H1030 H 0.01783 0.96125 0.53755 0.0
H1031 H 1.00739 0.93146 0.73328 0.0
C1032 C 1.01086 0.85334 0.59887 0.0
C1033 C 1.01477 0.84457 0.53267 0.0
C1034 C 0.01868 0.85862 0.47833 0.0
C1035 C 0.01895 0.88028 0.48825 0.0
C1036 C 0.01532 0.8883 0.55324 0.0
C1037 C 1.01144 0.87542 0.60813 0.0
C1038 C 1.00821 0.88881 0.67256 0.0
C1039 C 0.98597 0.88598 0.70059 0.0
C1040 C 0.02465 0.88363 0.72725 0.0
C1041 C 1.01124 0.91101 0.64495 0.0
C1042 C 1.01498 0.91004 0.57558 0.0
C1043 C 0.01742 0.92801 0.53676 0.0
C1044 C 0.0161 0.94749 0.56891 0.0
C1045 C 1.01275 0.94943 0.64016 0.0
C1046 C 1.01036 0.93071 0.67898 0.0
H1047 H 0.67792 0.0377 0.57354 0.0
H1048 H 0.68703 0.97205 0.52965 0.0
H1049 H 0.65115 0.96485 0.56689 0.0
H1050 H 0.64487 0.02921 0.72718 0.0
H1051 H 0.62799 0.05108 0.70981 0.0
H1052 H 0.65483 0.05152 0.68195 0.0
H1053 H 0.64233 0.05859 0.55829 0.0
H1054 H 0.6155 0.05798 0.58619 0.0
H1055 H 0.62411 0.04093 0.51873 0.0
H1056 H 0.61363 0.96428 0.60114 0.0
H1057 H 0.57714 0.97029 0.63594 0.0
H1058 H 0.59037 0.03583 0.66583 0.0
C1059 C 0.67235 0.02181 0.57169 0.0
C1060 C 0.68577 1.00544 0.54837 0.0
C1061 C 0.67757 0.98492 0.5477 0.0
C1062 C 0.65701 0.98062 0.56865 0.0
C1063 C 0.64434 0.99691 0.59124 0.0
C1064 C 0.65165 0.01711 0.59373 0.0
C1065 C 0.63437 0.03152 0.6209 0.0
C1066 C 0.64093 0.04142 0.689 0.0
C1067 C 0.62875 0.04825 0.56786 0.0
C1068 C 0.61623 0.01632 0.63145 0.0
C1069 C 0.62252 0.99644 0.6138 0.0
C1070 C 0.60865 0.97975 0.61592 0.0
C1071 C 0.58784 0.98333 0.63592 0.0
C1072 C 0.5807 1.00342 0.655 0.0
C1073 C 0.59531 0.02016 0.65326 0.0
H1074 H 0.51967 0.68357 0.64307 0.0
H1075 H 0.51072 0.67349 0.42581 0.0
H1076 H 0.51135 0.63578 0.44435 0.0
H1077 H 0.55482 0.63864 0.66933 0.0
H1078 H 0.54436 0.63152 0.75138 0.0
H1079 H 0.54355 0.65829 0.72382 0.0
H1080 H 0.50355 0.65909 0.74238 0.0
H1081 H 0.50444 0.63236 0.77009 0.0
H1082 H 0.48741 0.63988 0.70096 0.0
H1083 H 0.51409 0.59937 0.4817 0.0
H1084 H 0.5167 0.56535 0.53792 0.0
H1085 H 0.52184 0.59568 0.73503 0.0
C1086 C 0.51787 0.67341 0.59942 0.0
C1087 C 0.51486 0.68196 0.53248 0.0
C1088 C 0.5126 0.6678 0.47746 0.0
C1089 C 0.51309 0.64616 0.48744 0.0
C1090 C 0.51581 0.63833 0.55316 0.0
C1091 C 0.51807 0.65135 0.60869 0.0
C1092 C 0.52059 0.63816 0.6738 0.0
C1093 C 0.54211 0.64188 0.70653 0.0
C1094 C 0.50293 0.64266 0.7248 0.0
C1095 C 0.51901 0.61589 0.64577 0.0
C1096 C 0.51663 0.61666 0.5757 0.0
C1097 C 0.51571 0.5986 0.5366 0.0
C1098 C 0.51719 0.57922 0.56927 0.0
C1099 C 0.51914 0.57752 0.64112 0.0
C1100 C 0.51998 0.59628 0.68016 0.0
H1101 H 0.8458 0.52713 0.63872 0.0
H1102 H 0.85241 0.49217 0.45019 0.0
H1103 H 0.88992 0.48817 0.47208 0.0
H1104 H 0.89476 0.55441 0.62818 0.0
H1105 H 0.90121 0.55285 0.71759 0.0
H1106 H 0.87424 0.55269 0.69089 0.0
H1107 H 0.86844 0.51803 0.7552 0.0
H1108 H 0.89538 0.51815 0.78234 0.0
H1109 H 0.8851 0.49604 0.73699 0.0
H1110 H 0.92689 0.4893 0.50728 0.0
H1111 H 0.96175 0.49415 0.55821 0.0
H1112 H 0.93392 0.52699 0.72886 0.0
C1113 C 0.85511 0.51846 0.60237 0.0
C1114 C 0.84578 0.51035 0.54141 0.0
C1115 C 0.85884 0.49913 0.4959 0.0
C1116 C 0.88032 0.49657 0.50824 0.0
C1117 C 0.88903 0.50508 0.5671 0.0
C1118 C 0.87695 0.51564 0.61416 0.0
C1119 C 0.89091 0.52338 0.67279 0.0
C1120 C 0.89024 0.54725 0.67764 0.0
C1121 C 0.88457 0.5133 0.74085 0.0
C1122 C 0.91257 0.51573 0.65027 0.0
C1123 C 0.91086 0.50521 0.58902 0.0
C1124 C 0.92838 0.49726 0.55568 0.0
C1125 C 0.94819 0.50008 0.58511 0.0
C1126 C 0.9507 0.51057 0.64805 0.0
C1127 C 0.93253 0.51848 0.6814 0.0
loop_
_geom_bond_atom_site_label_1
_geom_bond_atom_site_label_2
_geom_bond_distance
_geom_bond_site_symmetry_2
_ccdc_geom_bond_type
C0 C1 1.264 . S
C0 C5 1.479 . S
C0 C10 1.465 . S
C1 C0 1.264 . S
C1 C3 1.339 . S
C1 H28 0.931 . S
C2 C3 1.395 . S
C2 C4 1.320 . S
C3 C1 1.339 . S
C3 C2 1.395 . S
C3 H29 0.929 . S
C4 C2 1.320 . S
C4 C5 1.405 . S
C4 H30 0.930 . S
C5 C0 1.479 . S
C5 C4 1.405 . S
C5 H31 0.931 . S
U6 O7 2.454 . S
U6 O8 2.458 . S
U6 C9 2.984 . S
U6 C10 2.847 . S
U6 C23 2.882 . S
U6 O24 2.441 . S
U6 O25 2.420 . S
U6 O26 2.455 . S
U6 O27 2.449 . S
O7 U6 2.454 . S
O7 C9 1.353 . S
O8 U6 2.458 . S
O8 C9 1.286 . S
C9 U6 2.984 . S
C9 O7 1.353 . S
C9 O8 1.286 . S
C9 C11 1.363 . S
C10 C0 1.465 . S
C10 U6 2.847 . S
C10 O24 1.249 . S
C10 O25 1.202 . S
C11 C9 1.363 . S
C11 C13 1.408 . S
C11 C16 1.342 . S
C12 C13 1.310 . S
C12 C15 1.461 . S
C12 H32 0.932 . S
C13 C11 1.408 . S
C13 C12 1.310 . S
C13 H33 0.930 . S
C14 C15 1.474 . S
C14 C16 1.285 . S
C14 H34 0.929 . S
C15 C12 1.461 . S
C15 C14 1.474 . S
C16 C11 1.342 . S
C16 C14 1.285 . S
C16 H35 0.930 . S
C17 C20 1.424 . S
C17 C22 1.245 . S
C17 C23 1.428 . S
C18 C21 1.260 . S
C18 C22 1.477 . S
C18 H36 0.932 . S
C19 C20 1.384 . S
C19 C21 1.479 . S
C19 H37 0.929 . S
C20 C17 1.424 . S
C20 C19 1.384 . S
C20 H38 0.928 . S
C21 C18 1.260 . S
C21 C19 1.479 . S
C22 C17 1.245 . S
C22 C18 1.477 . S
C22 H39 0.932 . S
C23 U6 2.882 . S
C23 C17 1.428 . S
C23 O26 1.301 . S
C23 O27 1.282 . S
O24 U6 2.441 . S
O24 C10 1.249 . S
O25 U6 2.420 . S
O25 C10 1.202 . S
O26 U6 2.455 . S
O26 C23 1.301 . S
O27 U6 2.449 . S
O27 C23 1.282 . S
H28 C1 0.931 . S
H29 C3 0.929 . S
H30 C4 0.930 . S
H31 C5 0.931 . S
H32 C12 0.932 . S
H33 C13 0.930 . S
H34 C14 0.929 . S
H35 C16 0.930 . S
H36 C18 0.932 . S
H37 C19 0.929 . S
H38 C20 0.928 . S
H39 C22 0.932 . S
C40 C41 1.264 . S
C40 C45 1.479 . S
C40 C50 1.465 . S
C41 C40 1.264 . S
C41 C43 1.339 . S
C41 H68 0.931 . S
C42 C43 1.395 . S
C42 C44 1.320 . S
C43 C41 1.339 . S
C43 C42 1.395 . S
C43 H69 0.929 . S
C44 C42 1.320 . S
C44 C45 1.405 . S
C44 H70 0.921 1_455 S
C45 C40 1.479 . S
C45 C44 1.405 . S
C45 H71 0.931 . S
U46 O47 2.454 . S
U46 O48 2.458 . S
U46 C49 2.984 . S
U46 C50 2.847 . S
U46 C63 2.882 . S
U46 O64 2.441 . S
U46 O65 2.420 . S
U46 O66 2.455 . S
U46 O67 2.449 . S
O47 U46 2.454 . S
O47 C49 1.353 . S
O48 U46 2.458 . S
O48 C49 1.286 . S
C49 U46 2.984 . S
C49 O47 1.353 . S
C49 O48 1.286 . S
C49 C51 1.363 . S
C50 C40 1.465 . S
C50 U46 2.847 . S
C50 O64 1.249 . S
C50 O65 1.202 . S
C51 C49 1.363 . S
C51 C53 1.408 . S
C51 C56 1.342 . S
C52 C53 1.310 . S
C52 C55 1.461 . S
C52 H72 0.932 . S
C53 C51 1.408 . S
C53 C52 1.310 . S
C53 H73 0.930 . S
C54 C55 1.474 1_655 S
C54 C56 1.285 1_655 S
C54 H74 0.930 . S
C55 C52 1.461 . S
C55 C54 1.474 1_455 S
C56 C51 1.342 . S
C56 C54 1.285 1_455 S
C56 H75 0.932 . S
C57 C60 1.424 . S
C57 C62 1.245 . S
C57 C63 1.428 . S
C58 C61 1.260 . S
C58 C62 1.477 . S
C58 H76 0.932 . S
C59 C60 1.384 . S
C59 C61 1.479 . S
C59 H77 0.929 . S
C60 C57 1.424 . S
C60 C59 1.384 . S
C60 H78 0.928 . S
C61 C58 1.260 . S
C61 C59 1.479 . S
C62 C57 1.245 . S
C62 C58 1.477 . S
C62 H79 0.932 . S
C63 U46 2.882 . S
C63 C57 1.428 . S
C63 O66 1.301 . S
C63 O67 1.282 . S
O64 U46 2.441 . S
O64 C50 1.249 . S
O65 U46 2.420 . S
O65 C50 1.202 . S
O66 U46 2.455 . S
O66 C63 1.301 . S
O67 U46 2.449 . S
O67 C63 1.282 . S
H68 C41 0.931 . S
H69 C43 0.929 . S
H70 C44 0.921 1_655 S
H71 C45 0.931 . S
H72 C52 0.932 . S
H73 C53 0.930 . S
H74 C54 0.930 . S
H75 C56 0.932 . S
H76 C58 0.932 . S
H77 C59 0.929 . S
H78 C60 0.928 . S
H79 C62 0.932 . S
C80 C81 1.264 . S
C80 C85 1.479 . S
C80 C90 1.465 . S
C81 C80 1.264 . S
C81 C83 1.339 . S
C81 H108 0.931 . S
C82 C83 1.395 . S
C82 C84 1.320 . S
C83 C81 1.339 . S
C83 C82 1.395 . S
C83 H109 0.929 . S
C84 C82 1.320 . S
C84 C85 1.405 . S
C84 H110 0.921 1_545 S
C85 C80 1.479 . S
C85 C84 1.405 . S
C85 H111 0.931 . S
U86 O87 2.454 . S
U86 O88 2.458 . S
U86 C89 2.984 . S
U86 C90 2.847 . S
U86 C103 2.882 . S
U86 O104 2.441 . S
U86 O105 2.420 . S
U86 O106 2.455 . S
U86 O107 2.449 . S
O87 U86 2.454 . S
O87 C89 1.353 . S
O88 U86 2.458 . S
O88 C89 1.286 . S
C89 U86 2.984 . S
C89 O87 1.353 . S
C89 O88 1.286 . S
C89 C91 1.363 . S
C90 C80 1.465 . S
C90 U86 2.847 . S
C90 O104 1.249 . S
C90 O105 1.202 . S
C91 C89 1.363 . S
C91 C93 1.408 . S
C91 C96 1.342 . S
C92 C93 1.310 . S
C92 C95 1.461 . S
C92 H112 0.932 . S
C93 C91 1.408 . S
C93 C92 1.310 . S
C93 H113 0.930 . S
C94 C95 1.474 1_565 S
C94 C96 1.285 1_565 S
C94 H114 0.930 . S
C95 C92 1.461 . S
C95 C94 1.474 1_545 S
C96 C91 1.342 . S
C96 C94 1.285 1_545 S
C96 H115 0.932 . S
C97 C100 1.424 . S
C97 C102 1.245 . S
C97 C103 1.428 . S
C98 C101 1.260 . S
C98 C102 1.477 . S
C98 H116 0.932 . S
C99 C100 1.384 . S
C99 C101 1.479 . S
C99 H117 0.929 . S
C100 C97 1.424 . S
C100 C99 1.384 . S
C100 H118 0.928 . S
C101 C98 1.260 . S
C101 C99 1.479 . S
C102 C97 1.245 . S
C102 C98 1.477 . S
C102 H119 0.932 . S
C103 U86 2.882 . S
C103 C97 1.428 . S
C103 O106 1.301 . S
C103 O107 1.282 . S
O104 U86 2.441 . S
O104 C90 1.249 . S
O105 U86 2.420 . S
O105 C90 1.202 . S
O106 U86 2.455 . S
O106 C103 1.301 . S
O107 U86 2.449 . S
O107 C103 1.282 . S
H108 C81 0.931 . S
H109 C83 0.929 . S
H110 C84 0.921 1_565 S
H111 C85 0.931 . S
H112 C92 0.932 . S
H113 C93 0.930 . S
H114 C94 0.930 . S
H115 C96 0.932 . S
H116 C98 0.932 . S
H117 C99 0.929 . S
H118 C100 0.928 . S
H119 C102 0.932 . S
C120 C121 1.264 . S
C120 C125 1.479 . S
C120 C130 1.465 . S
C121 C120 1.264 . S
C121 C123 1.339 . S
C121 H148 0.931 . S
C122 C123 1.395 . S
C122 C124 1.320 . S
C123 C121 1.339 . S
C123 C122 1.395 . S
C123 H149 0.929 . S
C124 C122 1.320 . S
C124 C125 1.405 . S
C124 H150 0.930 . S
C125 C120 1.479 . S
C125 C124 1.405 . S
C125 H151 0.931 . S
U126 O127 2.454 . S
U126 O128 2.458 . S
U126 C129 2.984 . S
U126 C130 2.847 . S
U126 C143 2.882 . S
U126 O144 2.441 . S
U126 O145 2.420 . S
U126 O146 2.455 . S
U126 O147 2.449 . S
O127 U126 2.454 . S
O127 C129 1.353 . S
O128 U126 2.458 . S
O128 C129 1.286 . S
C129 U126 2.984 . S
C129 O127 1.353 . S
C129 O128 1.286 . S
C129 C131 1.363 . S
C130 C120 1.465 . S
C130 U126 2.847 . S
C130 O144 1.249 . S
C130 O145 1.202 . S
C131 C129 1.363 . S
C131 C133 1.408 . S
C131 C136 1.342 . S
C132 C133 1.310 . S
C132 C135 1.461 . S
C132 H152 0.932 . S
C133 C131 1.408 . S
C133 C132 1.310 . S
C133 H153 0.930 . S
C134 C135 1.474 . S
C134 C136 1.285 . S
C134 H154 0.929 . S
C135 C132 1.461 . S
C135 C134 1.474 . S
C136 C131 1.342 . S
C136 C134 1.285 . S
C136 H155 0.930 . S
C137 C140 1.424 . S
C137 C142 1.245 . S
C137 C143 1.428 . S
C138 C141 1.260 . S
C138 C142 1.477 . S
C138 H156 0.932 . S
C139 C140 1.384 . S
C139 C141 1.479 . S
C139 H157 0.929 . S
C140 C137 1.424 . S
C140 C139 1.384 . S
C140 H158 0.928 . S
C141 C138 1.260 . S
C141 C139 1.479 . S
C142 C137 1.245 . S
C142 C138 1.477 . S
C142 H159 0.932 . S
C143 U126 2.882 . S
C143 C137 1.428 . S
C143 O146 1.301 . S
C143 O147 1.282 . S
O144 U126 2.441 . S
O144 C130 1.249 . S
O145 U126 2.420 . S
O145 C130 1.202 . S
O146 U126 2.455 . S
O146 C143 1.301 . S
O147 U126 2.449 . S
O147 C143 1.282 . S
H148 C121 0.931 . S
H149 C123 0.929 . S
H150 C124 0.930 . S
H151 C125 0.931 . S
H152 C132 0.932 . S
H153 C133 0.930 . S
H154 C134 0.929 . S
H155 C136 0.930 . S
H156 C138 0.932 . S
H157 C139 0.929 . S
H158 C140 0.928 . S
H159 C142 0.932 . S
C160 C161 1.264 . S
C160 C165 1.479 . S
C160 C170 1.465 . S
C161 C160 1.264 . S
C161 C163 1.339 . S
C161 H188 0.931 . S
C162 C163 1.395 . S
C162 C164 1.320 . S
C163 C161 1.339 . S
C163 C162 1.395 . S
C163 H189 0.929 . S
C164 C162 1.320 . S
C164 C165 1.405 . S
C164 H190 0.930 . S
C165 C160 1.479 . S
C165 C164 1.405 . S
C165 H191 0.931 . S
U166 O167 2.454 . S
U166 O168 2.458 . S
U166 C169 2.984 . S
U166 C170 2.847 1_554 S
U166 C183 2.882 . S
U166 O184 2.441 1_554 S
U166 O185 2.420 1_554 S
U166 O186 2.455 . S
U166 O187 2.449 . S
O167 U166 2.454 . S
O167 C169 1.353 . S
O168 U166 2.458 . S
O168 C169 1.286 . S
C169 U166 2.984 . S
C169 O167 1.353 . S
C169 O168 1.286 . S
C169 C171 1.363 . S
C170 C160 1.465 . S
C170 U166 2.847 1_556 S
C170 O184 1.249 . S
C170 O185 1.202 . S
C171 C169 1.363 . S
C171 C173 1.408 . S
C171 C176 1.342 . S
C172 C173 1.310 . S
C172 C175 1.461 . S
C172 H192 0.932 . S
C173 C171 1.408 . S
C173 C172 1.310 . S
C173 H193 0.930 1_554 S
C174 C175 1.474 . S
C174 C176 1.285 . S
C174 H194 0.929 . S
C175 C172 1.461 . S
C175 C174 1.474 . S
C176 C171 1.342 . S
C176 C174 1.285 . S
C176 H195 0.930 . S
C177 C180 1.424 . S
C177 C182 1.245 . S
C177 C183 1.428 . S
C178 C181 1.260 . S
C178 C182 1.477 . S
C178 H196 0.932 . S
C179 C180 1.384 . S
C179 C181 1.479 . S
C179 H197 0.929 . S
C180 C177 1.424 . S
C180 C179 1.384 . S
C180 H198 0.928 . S
C181 C178 1.260 . S
C181 C179 1.479 . S
C182 C177 1.245 . S
C182 C178 1.477 . S
C182 H199 0.932 . S
C183 U166 2.882 . S
C183 C177 1.428 . S
C183 O186 1.301 . S
C183 O187 1.282 . S
O184 U166 2.441 1_556 S
O184 C170 1.249 . S
O185 U166 2.420 1_556 S
O185 C170 1.202 . S
O186 U166 2.455 . S
O186 C183 1.301 . S
O187 U166 2.449 . S
O187 C183 1.282 . S
H188 C161 0.931 . S
H189 C163 0.929 . S
H190 C164 0.930 . S
H191 C165 0.931 . S
H192 C172 0.932 . S
H193 C173 0.930 1_556 S
H194 C174 0.929 . S
H195 C176 0.930 . S
H196 C178 0.932 . S
H197 C179 0.929 . S
H198 C180 0.928 . S
H199 C182 0.932 . S
C200 C201 1.264 . S
C200 C205 1.479 . S
C200 C210 1.465 . S
C201 C200 1.264 . S
C201 C203 1.339 . S
C201 H228 0.931 . S
C202 C203 1.395 . S
C202 C204 1.320 . S
C203 C201 1.339 . S
C203 C202 1.395 . S
C203 H229 0.929 . S
C204 C202 1.320 . S
C204 C205 1.405 . S
C204 H230 0.923 1_455 S
C205 C200 1.479 . S
C205 C204 1.405 . S
C205 H231 0.931 . S
U206 O207 2.454 . S
U206 O208 2.458 . S
U206 C209 2.984 . S
U206 C210 2.847 1_554 S
U206 C223 2.882 . S
U206 O224 2.441 1_554 S
U206 O225 2.420 1_554 S
U206 O226 2.455 . S
U206 O227 2.449 . S
O207 U206 2.454 . S
O207 C209 1.353 . S
O208 U206 2.458 . S
O208 C209 1.286 . S
C209 U206 2.984 . S
C209 O207 1.353 . S
C209 O208 1.286 . S
C209 C211 1.363 . S
C210 C200 1.465 . S
C210 U206 2.847 1_556 S
C210 O224 1.249 . S
C210 O225 1.202 . S
C211 C209 1.363 . S
C211 C213 1.408 . S
C211 C216 1.342 . S
C212 C213 1.310 . S
C212 C215 1.462 . S
C212 H232 0.932 . S
C213 C211 1.408 . S
C213 C212 1.310 . S
C213 H233 0.930 1_554 S
C214 C215 1.474 1_655 S
C214 C216 1.286 1_655 S
C214 H234 0.929 . S
C215 C212 1.462 . S
C215 C214 1.474 1_455 S
C216 C211 1.342 . S
C216 C214 1.286 1_455 S
C216 H235 0.934 . S
C217 C220 1.424 . S
C217 C222 1.245 . S
C217 C223 1.428 . S
C218 C221 1.260 . S
C218 C222 1.477 . S
C218 H236 0.932 . S
C219 C220 1.384 . S
C219 C221 1.479 . S
C219 H237 0.929 . S
C220 C217 1.424 . S
C220 C219 1.384 . S
C220 H238 0.928 . S
C221 C218 1.260 . S
C221 C219 1.479 . S
C222 C217 1.245 . S
C222 C218 1.477 . S
C222 H239 0.932 . S
C223 U206 2.882 . S
C223 C217 1.428 . S
C223 O226 1.301 . S
C223 O227 1.282 . S
O224 U206 2.441 1_556 S
O224 C210 1.249 . S
O225 U206 2.420 1_556 S
O225 C210 1.202 . S
O226 U206 2.455 . S
O226 C223 1.301 . S
O227 U206 2.449 . S
O227 C223 1.282 . S
H228 C201 0.931 . S
H229 C203 0.929 . S
H230 C204 0.923 1_655 S
H231 C205 0.931 . S
H232 C212 0.932 . S
H233 C213 0.930 1_556 S
H234 C214 0.929 . S
H235 C216 0.934 . S
H236 C218 0.932 . S
H237 C219 0.929 . S
H238 C220 0.928 . S
H239 C222 0.932 . S
C240 C241 1.264 . S
C240 C245 1.479 . S
C240 C250 1.465 . S
C241 C240 1.264 . S
C241 C243 1.339 . S
C241 H268 0.931 . S
C242 C243 1.395 . S
C242 C244 1.320 . S
C243 C241 1.339 . S
C243 C242 1.395 . S
C243 H269 0.929 . S
C244 C242 1.320 . S
C244 C245 1.405 . S
C244 H270 0.923 1_545 S
C245 C240 1.479 . S
C245 C244 1.405 . S
C245 H271 0.931 . S
U246 O247 2.454 . S
U246 O248 2.458 . S
U246 C249 2.984 . S
U246 C250 2.847 1_554 S
U246 C263 2.882 . S
U246 O264 2.441 1_554 S
U246 O265 2.420 1_554 S
U246 O266 2.455 . S
U246 O267 2.449 . S
O247 U246 2.454 . S
O247 C249 1.353 . S
O248 U246 2.458 . S
O248 C249 1.286 . S
C249 U246 2.984 . S
C249 O247 1.353 . S
C249 O248 1.286 . S
C249 C251 1.363 . S
C250 C240 1.465 . S
C250 U246 2.847 1_556 S
C250 O264 1.249 . S
C250 O265 1.202 . S
C251 C249 1.363 . S
C251 C253 1.408 . S
C251 C256 1.342 . S
C252 C253 1.310 . S
C252 C255 1.462 . S
C252 H272 0.932 . S
C253 C251 1.408 . S
C253 C252 1.310 . S
C253 H273 0.930 1_554 S
C254 C255 1.474 1_565 S
C254 C256 1.286 1_565 S
C254 H274 0.929 . S
C255 C252 1.462 . S
C255 C254 1.474 1_545 S
C256 C251 1.342 . S
C256 C254 1.286 1_545 S
C256 H275 0.934 . S
C257 C260 1.424 . S
C257 C262 1.245 . S
C257 C263 1.428 . S
C258 C261 1.260 . S
C258 C262 1.477 . S
C258 H276 0.932 . S
C259 C260 1.384 . S
C259 C261 1.479 . S
C259 H277 0.929 . S
C260 C257 1.424 . S
C260 C259 1.384 . S
C260 H278 0.928 . S
C261 C258 1.260 . S
C261 C259 1.479 . S
C262 C257 1.245 . S
C262 C258 1.477 . S
C262 H279 0.932 . S
C263 U246 2.882 . S
C263 C257 1.428 . S
C263 O266 1.301 . S
C263 O267 1.282 . S
O264 U246 2.441 1_556 S
O264 C250 1.249 . S
O265 U246 2.420 1_556 S
O265 C250 1.202 . S
O266 U246 2.455 . S
O266 C263 1.301 . S
O267 U246 2.449 . S
O267 C263 1.282 . S
H268 C241 0.931 . S
H269 C243 0.929 . S
H270 C244 0.923 1_565 S
H271 C245 0.931 . S
H272 C252 0.932 . S
H273 C253 0.930 1_556 S
H274 C254 0.929 . S
H275 C256 0.934 . S
H276 C258 0.932 . S
H277 C259 0.929 . S
H278 C260 0.928 . S
H279 C262 0.932 . S
C280 C281 1.264 . S
C280 C285 1.479 . S
C280 C290 1.465 . S
C281 C280 1.264 . S
C281 C283 1.339 . S
C281 H308 0.931 . S
C282 C283 1.395 . S
C282 C284 1.320 . S
C283 C281 1.339 . S
C283 C282 1.395 . S
C283 H309 0.929 . S
C284 C282 1.320 . S
C284 C285 1.405 . S
C284 H310 0.930 . S
C285 C280 1.479 . S
C285 C284 1.405 . S
C285 H311 0.931 . S
U286 O287 2.454 . S
U286 O288 2.458 . S
U286 C289 2.984 . S
U286 C290 2.847 1_554 S
U286 C303 2.882 . S
U286 O304 2.441 1_554 S
U286 O305 2.420 1_554 S
U286 O306 2.455 . S
U286 O307 2.449 . S
O287 U286 2.454 . S
O287 C289 1.353 . S
O288 U286 2.458 . S
O288 C289 1.286 . S
C289 U286 2.984 . S
C289 O287 1.353 . S
C289 O288 1.286 . S
C289 C291 1.363 . S
C290 C280 1.465 . S
C290 U286 2.847 1_556 S
C290 O304 1.249 . S
C290 O305 1.202 . S
C291 C289 1.363 . S
C291 C293 1.408 . S
C291 C296 1.342 . S
C292 C293 1.310 . S
C292 C295 1.461 . S
C292 H312 0.932 . S
C293 C291 1.408 . S
C293 C292 1.310 . S
C293 H313 0.930 1_554 S
C294 C295 1.474 . S
C294 C296 1.285 . S
C294 H314 0.929 . S
C295 C292 1.461 . S
C295 C294 1.474 . S
C296 C291 1.342 . S
C296 C294 1.285 . S
C296 H315 0.930 . S
C297 C300 1.424 . S
C297 C302 1.245 . S
C297 C303 1.428 . S
C298 C301 1.260 . S
C298 C302 1.477 . S
C298 H316 0.932 . S
C299 C300 1.384 . S
C299 C301 1.479 . S
C299 H317 0.929 . S
C300 C297 1.424 . S
C300 C299 1.384 . S
C300 H318 0.928 . S
C301 C298 1.260 . S
C301 C299 1.479 . S
C302 C297 1.245 . S
C302 C298 1.477 . S
C302 H319 0.932 . S
C303 U286 2.882 . S
C303 C297 1.428 . S
C303 O306 1.301 . S
C303 O307 1.282 . S
O304 U286 2.441 1_556 S
O304 C290 1.249 . S
O305 U286 2.420 1_556 S
O305 C290 1.202 . S
O306 U286 2.455 . S
O306 C303 1.301 . S
O307 U286 2.449 . S
O307 C303 1.282 . S
H308 C281 0.931 . S
H309 C283 0.929 . S
H310 C284 0.930 . S
H311 C285 0.931 . S
H312 C292 0.932 . S
H313 C293 0.930 1_556 S
H314 C294 0.929 . S
H315 C296 0.930 . S
H316 C298 0.932 . S
H317 C299 0.929 . S
H318 C300 0.928 . S
H319 C302 0.932 . S
La320 C322 2.928 . S
La320 O340 2.521 . S
La320 O341 2.628 . S
La320 O342 2.554 . S
La320 O343 2.757 1_565 S
La320 O344 2.470 . S
La320 O349 2.482 1_455 S
La320 O351 2.503 1_565 S
La321 C331 2.928 . S
La321 O343 2.482 1_655 S
La321 O345 2.503 1_545 S
La321 O346 2.521 . S
La321 O347 2.628 . S
La321 O348 2.554 . S
La321 O349 2.757 1_545 S
La321 O350 2.470 . S
C322 La320 2.928 . S
C322 C323 1.503 . S
C322 O340 1.261 . S
C322 O341 1.243 . S
C323 C322 1.503 . S
C323 C324 1.394 . S
C323 C328 1.373 . S
C324 C323 1.394 . S
C324 C325 1.380 . S
C324 H352 0.930 . S
C325 C324 1.380 . S
C325 C326 1.376 . S
C325 H353 0.930 . S
C326 C325 1.376 . S
C326 C327 1.370 . S
C327 C326 1.370 . S
C327 C328 1.396 . S
C327 H354 0.929 1_455 S
C328 C323 1.373 . S
C328 C327 1.396 . S
C328 H355 0.929 1_455 S
C329 O342 1.266 . S
C329 O343 1.274 1_565 S
C330 O344 1.258 1_655 S
C330 O345 1.256 . S
C331 La321 2.928 . S
C331 C332 1.503 . S
C331 O346 1.261 . S
C331 O347 1.243 . S
C332 C331 1.503 . S
C332 C333 1.394 . S
C332 C337 1.373 . S
C333 C332 1.394 . S
C333 C334 1.380 . S
C333 H356 0.930 . S
C334 C333 1.380 . S
C334 C335 1.376 . S
C334 H357 0.930 . S
C335 C334 1.376 . S
C335 C336 1.370 . S
C336 C335 1.370 . S
C336 C337 1.396 . S
C336 H358 0.929 1_655 S
C337 C332 1.373 . S
C337 C336 1.396 . S
C337 H359 0.929 1_655 S
C338 O348 1.240 . S
C338 O349 1.289 1_545 S
C339 O350 1.258 1_455 S
C339 O351 1.256 . S
O340 La320 2.521 . S
O340 C322 1.261 . S
O341 La320 2.628 . S
O341 C322 1.243 . S
O342 La320 2.554 . S
O342 C329 1.266 . S
O343 La320 2.757 1_545 S
O343 La321 2.482 1_455 S
O343 C329 1.274 1_545 S
O344 La320 2.470 . S
O344 C330 1.258 1_455 S
O345 La321 2.503 1_565 S
O345 C330 1.256 . S
O346 La321 2.521 . S
O346 C331 1.261 . S
O347 La321 2.628 . S
O347 C331 1.243 . S
O348 La321 2.554 . S
O348 C338 1.240 . S
O349 La320 2.482 1_655 S
O349 La321 2.757 1_565 S
O349 C338 1.289 1_565 S
O350 La321 2.470 . S
O350 C339 1.258 1_655 S
O351 La320 2.503 1_545 S
O351 C339 1.256 . S
H352 C324 0.930 . S
H353 C325 0.930 . S
H354 C327 0.929 1_655 S
H355 C328 0.929 1_655 S
H356 C333 0.930 . S
H357 C334 0.930 . S
H358 C336 0.929 1_455 S
H359 C337 0.929 1_455 S
La360 C362 2.928 . S
La360 O380 2.521 . S
La360 O381 2.628 . S
La360 O382 2.554 . S
La360 O383 2.757 . S
La360 O384 2.470 . S
La360 O389 2.482 1_545 S
La360 O391 2.503 . S
La361 C371 2.928 . S
La361 O383 2.482 1_565 S
La361 O385 2.503 . S
La361 O386 2.521 . S
La361 O387 2.628 . S
La361 O388 2.554 . S
La361 O389 2.757 . S
La361 O390 2.470 . S
C362 La360 2.928 . S
C362 C363 1.503 . S
C362 O380 1.261 . S
C362 O381 1.243 . S
C363 C362 1.503 . S
C363 C364 1.394 . S
C363 C368 1.373 . S
C364 C363 1.394 . S
C364 C365 1.380 . S
C364 H392 0.930 . S
C365 C364 1.380 . S
C365 C366 1.376 . S
C365 H393 0.930 . S
C366 C365 1.376 . S
C366 C367 1.370 . S
C367 C366 1.370 . S
C367 C368 1.396 . S
C367 H394 0.929 1_545 S
C368 C363 1.373 . S
C368 C367 1.396 . S
C368 H395 0.929 1_545 S
C369 O382 1.240 . S
C369 O383 1.289 . S
C370 O384 1.258 1_565 S
C370 O385 1.256 . S
C371 La361 2.928 . S
C371 C372 1.503 . S
C371 O386 1.261 . S
C371 O387 1.243 . S
C372 C371 1.503 . S
C372 C373 1.394 . S
C372 C377 1.373 . S
C373 C372 1.394 . S
C373 C374 1.380 . S
C373 H396 0.930 . S
C374 C373 1.380 . S
C374 C375 1.376 . S
C374 H397 0.930 . S
C375 C374 1.376 . S
C375 C376 1.370 . S
C376 C375 1.370 . S
C376 C377 1.396 . S
C376 H398 0.929 1_565 S
C377 C372 1.373 . S
C377 C376 1.396 . S
C377 H399 0.929 1_565 S
C378 O388 1.240 . S
C378 O389 1.289 . S
C379 O390 1.258 1_545 S
C379 O391 1.256 . S
O380 La360 2.521 . S
O380 C362 1.261 . S
O381 La360 2.628 . S
O381 C362 1.243 . S
O382 La360 2.554 . S
O382 C369 1.240 . S
O383 La360 2.757 . S
O383 La361 2.482 1_545 S
O383 C369 1.289 . S
O384 La360 2.470 . S
O384 C370 1.258 1_545 S
O385 La361 2.503 . S
O385 C370 1.256 . S
O386 La361 2.521 . S
O386 C371 1.261 . S
O387 La361 2.628 . S
O387 C371 1.243 . S
O388 La361 2.554 . S
O388 C378 1.240 . S
O389 La360 2.482 1_565 S
O389 La361 2.757 . S
O389 C378 1.289 . S
O390 La361 2.470 . S
O390 C379 1.258 1_565 S
O391 La360 2.503 . S
O391 C379 1.256 . S
H392 C364 0.930 . S
H393 C365 0.930 . S
H394 C367 0.929 1_565 S
H395 C368 0.929 1_565 S
H396 C373 0.930 . S
H397 C374 0.930 . S
H398 C376 0.929 1_545 S
H399 C377 0.929 1_545 S
La400 C402 2.928 . S
La400 O420 2.521 . S
La400 O421 2.628 . S
La400 O422 2.554 . S
La400 O423 2.757 . S
La400 O424 2.470 . S
La400 O429 2.482 . S
La400 O431 2.503 . S
La401 C411 2.928 . S
La401 O423 2.482 . S
La401 O425 2.503 . S
La401 O426 2.521 . S
La401 O427 2.628 . S
La401 O428 2.554 . S
La401 O429 2.757 . S
La401 O430 2.470 . S
C402 La400 2.928 . S
C402 C403 1.503 . S
C402 O420 1.261 . S
C402 O421 1.243 . S
C403 C402 1.503 . S
C403 C404 1.394 . S
C403 C408 1.373 . S
C404 C403 1.394 . S
C404 C405 1.380 . S
C404 H432 0.930 . S
C405 C404 1.380 . S
C405 C406 1.376 . S
C405 H433 0.930 . S
C406 C405 1.376 . S
C406 C407 1.370 . S
C407 C406 1.370 . S
C407 C408 1.396 . S
C407 H434 0.929 . S
C408 C403 1.373 . S
C408 C407 1.396 . S
C408 H435 0.929 . S
C409 O422 1.240 . S
C409 O423 1.289 . S
C410 O424 1.258 . S
C410 O425 1.256 . S
C411 La401 2.928 . S
C411 C412 1.503 . S
C411 O426 1.261 . S
C411 O427 1.243 . S
C412 C411 1.503 . S
C412 C413 1.394 . S
C412 C417 1.373 . S
C413 C412 1.394 . S
C413 C414 1.380 . S
C413 H436 0.930 . S
C414 C413 1.380 . S
C414 C415 1.376 . S
C414 H437 0.930 . S
C415 C414 1.376 . S
C415 C416 1.370 . S
C416 C415 1.370 . S
C416 C417 1.396 . S
C416 H438 0.929 . S
C417 C412 1.373 . S
C417 C416 1.396 . S
C417 H439 0.929 . S
C418 O428 1.240 . S
C418 O429 1.289 . S
C419 O430 1.258 . S
C419 O431 1.256 . S
O420 La400 2.521 . S
O420 C402 1.261 . S
O421 La400 2.628 . S
O421 C402 1.243 . S
O422 La400 2.554 . S
O422 C409 1.240 . S
O423 La400 2.757 . S
O423 La401 2.482 . S
O423 C409 1.289 . S
O424 La400 2.470 . S
O424 C410 1.258 . S
O425 La401 2.503 . S
O425 C410 1.256 . S
O426 La401 2.521 . S
O426 C411 1.261 . S
O427 La401 2.628 . S
O427 C411 1.243 . S
O428 La401 2.554 . S
O428 C418 1.240 . S
O429 La400 2.482 . S
O429 La401 2.757 . S
O429 C418 1.289 . S
O430 La401 2.470 . S
O430 C419 1.258 . S
O431 La400 2.503 . S
O431 C419 1.256 . S
H432 C404 0.930 . S
H433 C405 0.930 . S
H434 C407 0.929 . S
H435 C408 0.929 . S
H436 C413 0.930 . S
H437 C414 0.930 . S
H438 C416 0.929 . S
H439 C417 0.929 . S
La440 C442 2.928 . S
La440 O460 2.521 . S
La440 O461 2.628 . S
La440 O462 2.554 . S
La440 O463 2.757 1_655 S
La440 O464 2.470 . S
La440 O469 2.482 . S
La440 O471 2.503 1_655 S
La441 C451 2.928 . S
La441 O463 2.482 . S
La441 O465 2.503 1_455 S
La441 O466 2.521 . S
La441 O467 2.628 . S
La441 O468 2.554 . S
La441 O469 2.757 1_455 S
La441 O470 2.470 . S
C442 La440 2.928 . S
C442 C443 1.503 . S
C442 O460 1.261 . S
C442 O461 1.243 . S
C443 C442 1.503 . S
C443 C444 1.394 . S
C443 C448 1.373 . S
C444 C443 1.394 . S
C444 C445 1.380 . S
C444 H472 0.930 . S
C445 C444 1.380 . S
C445 C446 1.376 . S
C445 H473 0.930 . S
C446 C445 1.376 . S
C446 C447 1.370 . S
C447 C446 1.370 . S
C447 C448 1.396 . S
C447 H474 0.929 . S
C448 C443 1.373 . S
C448 C447 1.396 . S
C448 H475 0.929 . S
C449 O462 1.263 . S
C449 O463 1.276 1_655 S
C450 O464 1.258 . S
C450 O465 1.256 . S
C451 La441 2.928 . S
C451 C452 1.503 . S
C451 O466 1.261 . S
C451 O467 1.243 . S
C452 C451 1.503 . S
C452 C453 1.394 . S
C452 C457 1.373 . S
C453 C452 1.394 . S
C453 C454 1.380 . S
C453 H476 0.930 . S
C454 C453 1.380 . S
C454 C455 1.376 . S
C454 H477 0.930 . S
C455 C454 1.376 . S
C455 C456 1.370 . S
C456 C455 1.370 . S
C456 C457 1.396 . S
C456 H478 0.929 . S
C457 C452 1.373 . S
C457 C456 1.396 . S
C457 H479 0.929 . S
C458 O468 1.270 . S
C458 O469 1.272 1_455 S
C459 O470 1.258 . S
C459 O471 1.256 . S
O460 La440 2.521 . S
O460 C442 1.261 . S
O461 La440 2.628 . S
O461 C442 1.243 . S
O462 La440 2.554 . S
O462 C449 1.263 . S
O463 La440 2.757 1_455 S
O463 La441 2.482 . S
O463 C449 1.276 1_455 S
O464 La440 2.470 . S
O464 C450 1.258 . S
O465 La441 2.503 1_655 S
O465 C450 1.256 . S
O466 La441 2.521 . S
O466 C451 1.261 . S
O467 La441 2.628 . S
O467 C451 1.243 . S
O468 La441 2.554 . S
O468 C458 1.270 . S
O469 La440 2.482 . S
O469 La441 2.757 1_655 S
O469 C458 1.272 1_655 S
O470 La441 2.470 . S
O470 C459 1.258 . S
O471 La440 2.503 1_455 S
O471 C459 1.256 . S
H472 C444 0.930 . S
H473 C445 0.930 . S
H474 C447 0.929 . S
H475 C448 0.929 . S
H476 C453 0.930 . S
H477 C454 0.930 . S
H478 C456 0.929 . S
H479 C457 0.929 . S
H480 C492 0.930 . S
H481 C494 0.930 . S
H482 C495 0.930 . S
H483 C499 0.959 . S
H484 C499 0.959 . S
H485 C499 0.961 . S
H486 C500 0.960 . S
H487 C500 0.961 . S
H488 C500 0.959 . S
H489 C503 0.929 . S
H490 C504 0.931 . S
H491 C506 0.930 . S
C492 H480 0.930 . S
C492 C493 1.380 1_545 S
C492 C497 1.399 . S
C493 C492 1.380 1_565 S
C493 C494 1.399 . S
C494 H481 0.930 . S
C494 C493 1.399 . S
C494 C495 1.388 . S
C495 H482 0.930 . S
C495 C494 1.388 . S
C495 C496 1.390 . S
C496 C495 1.390 . S
C496 C497 1.394 1_565 S
C496 C502 1.465 . S
C497 C492 1.399 . S
C497 C496 1.394 1_545 S
C497 C498 1.516 . S
C498 C497 1.516 . S
C498 C499 1.502 . S
C498 C500 1.561 . S
C498 C501 1.526 . S
C499 H483 0.959 . S
C499 H484 0.959 . S
C499 H485 0.961 . S
C499 C498 1.502 . S
C500 H486 0.960 . S
C500 H487 0.961 . S
C500 H488 0.959 . S
C500 C498 1.561 . S
C501 C498 1.526 . S
C501 C502 1.396 1_545 S
C501 C506 1.390 . S
C502 C496 1.465 . S
C502 C501 1.396 1_565 S
C502 C503 1.399 . S
C503 H489 0.929 . S
C503 C502 1.399 . S
C503 C504 1.385 . S
C504 H490 0.931 . S
C504 C503 1.385 . S
C504 C505 1.396 . S
C505 C504 1.396 . S
C505 C506 1.381 1_565 S
C506 H491 0.930 . S
C506 C501 1.390 . S
C506 C505 1.381 1_545 S
H507 C519 0.930 . S
H508 C521 0.930 . S
H509 C522 0.930 . S
H510 C526 0.959 . S
H511 C526 0.959 . S
H512 C526 0.961 . S
H513 C527 0.960 . S
H514 C527 0.961 . S
H515 C527 0.959 . S
H516 C530 0.929 . S
H517 C531 0.931 . S
H518 C533 0.930 . S
C519 H507 0.930 . S
C519 C520 1.399 . S
C519 C524 1.399 . S
C520 C519 1.399 . S
C520 C521 1.376 . S
C521 H508 0.930 . S
C521 C520 1.376 . S
C521 C522 1.388 . S
C522 H509 0.930 . S
C522 C521 1.388 . S
C522 C523 1.390 . S
C523 C522 1.390 . S
C523 C524 1.394 . S
C523 C529 1.465 . S
C524 C519 1.399 . S
C524 C523 1.394 . S
C524 C525 1.516 . S
C525 C524 1.516 . S
C525 C526 1.502 . S
C525 C527 1.561 . S
C525 C528 1.526 . S
C526 H510 0.959 . S
C526 H511 0.959 . S
C526 H512 0.961 . S
C526 C525 1.502 . S
C527 H513 0.960 . S
C527 H514 0.961 . S
C527 H515 0.959 . S
C527 C525 1.561 . S
C528 C525 1.526 . S
C528 C529 1.396 . S
C528 C533 1.390 . S
C529 C523 1.465 . S
C529 C528 1.396 . S
C529 C530 1.399 . S
C530 H516 0.929 . S
C530 C529 1.399 . S
C530 C531 1.385 . S
C531 H517 0.931 . S
C531 C530 1.385 . S
C531 C532 1.389 . S
C532 C531 1.389 . S
C532 C533 1.387 . S
C533 H518 0.930 . S
C533 C528 1.390 . S
C533 C532 1.387 . S
H534 C546 0.930 . S
H535 C548 0.930 . S
H536 C549 0.930 . S
H537 C553 0.959 . S
H538 C553 0.959 . S
H539 C553 0.961 . S
H540 C554 0.960 . S
H541 C554 0.961 . S
H542 C554 0.959 . S
H543 C557 0.929 . S
H544 C558 0.931 . S
H545 C560 0.930 . S
C546 H534 0.930 . S
C546 C547 1.399 . S
C546 C551 1.399 . S
C547 C546 1.399 . S
C547 C548 1.376 . S
C548 H535 0.930 . S
C548 C547 1.376 . S
C548 C549 1.388 . S
C549 H536 0.930 . S
C549 C548 1.388 . S
C549 C550 1.390 . S
C550 C549 1.390 . S
C550 C551 1.394 . S
C550 C556 1.465 . S
C551 C546 1.399 . S
C551 C550 1.394 . S
C551 C552 1.516 . S
C552 C551 1.516 . S
C552 C553 1.502 . S
C552 C554 1.561 . S
C552 C555 1.526 . S
C553 H537 0.959 . S
C553 H538 0.959 . S
C553 H539 0.961 . S
C553 C552 1.502 . S
C554 H540 0.960 . S
C554 H541 0.961 . S
C554 H542 0.959 . S
C554 C552 1.561 . S
C555 C552 1.526 . S
C555 C556 1.396 . S
C555 C560 1.390 . S
C556 C550 1.465 . S
C556 C555 1.396 . S
C556 C557 1.399 . S
C557 H543 0.929 . S
C557 C556 1.399 . S
C557 C558 1.385 . S
C558 H544 0.931 . S
C558 C557 1.385 . S
C558 C559 1.389 . S
C559 C558 1.389 . S
C559 C560 1.387 . S
C560 H545 0.930 . S
C560 C555 1.390 . S
C560 C559 1.387 . S
H561 C573 0.930 . S
H562 C575 0.930 . S
H563 C576 0.930 . S
H564 C580 0.959 . S
H565 C580 0.959 . S
H566 C580 0.961 . S
H567 C581 0.960 . S
H568 C581 0.961 . S
H569 C581 0.959 . S
H570 C584 0.929 . S
H571 C585 0.931 . S
H572 C587 0.930 . S
C573 H561 0.930 . S
C573 C574 1.399 1_455 S
C573 C578 1.399 . S
C574 C573 1.399 1_655 S
C574 C575 1.376 . S
C575 H562 0.930 . S
C575 C574 1.376 . S
C575 C576 1.388 . S
C576 H563 0.930 . S
C576 C575 1.388 . S
C576 C577 1.390 . S
C577 C576 1.390 . S
C577 C578 1.394 1_655 S
C577 C583 1.465 . S
C578 C573 1.399 . S
C578 C577 1.394 1_455 S
C578 C579 1.516 . S
C579 C578 1.516 . S
C579 C580 1.502 . S
C579 C581 1.561 1_455 S
C579 C582 1.526 . S
C580 H564 0.959 . S
C580 H565 0.959 . S
C580 H566 0.961 . S
C580 C579 1.502 . S
C581 H567 0.960 . S
C581 H568 0.961 . S
C581 H569 0.959 . S
C581 C579 1.561 1_655 S
C582 C579 1.526 . S
C582 C583 1.396 1_455 S
C582 C587 1.390 . S
C583 C577 1.465 . S
C583 C582 1.396 1_655 S
C583 C584 1.399 . S
C584 H570 0.929 . S
C584 C583 1.399 . S
C584 C585 1.385 . S
C585 H571 0.931 . S
C585 C584 1.385 . S
C585 C586 1.385 1_655 S
C586 C585 1.385 1_455 S
C586 C587 1.390 . S
C587 H572 0.930 . S
C587 C582 1.390 . S
C587 C586 1.390 . S
H588 C600 0.930 . S
H589 C602 0.930 . S
H590 C603 0.930 . S
H591 C607 0.959 . S
H592 C607 0.959 1_556 S
H593 C607 0.961 . S
H594 C608 0.960 1_554 S
H595 C608 0.961 . S
H596 C608 0.959 . S
H597 C611 0.929 . S
H598 C612 0.931 . S
H599 C614 0.930 . S
C600 H588 0.930 . S
C600 C601 1.399 1_565 S
C600 C605 1.399 . S
C601 C600 1.399 1_545 S
C601 C602 1.376 . S
C602 H589 0.930 . S
C602 C601 1.376 . S
C602 C603 1.388 . S
C603 H590 0.930 . S
C603 C602 1.388 . S
C603 C604 1.390 . S
C604 C603 1.390 . S
C604 C605 1.394 1_545 S
C604 C610 1.465 1_554 S
C605 C600 1.399 . S
C605 C604 1.394 1_565 S
C605 C606 1.516 . S
C606 C605 1.516 . S
C606 C607 1.502 . S
C606 C608 1.561 1_554 S
C606 C609 1.526 1_554 S
C607 H591 0.959 . S
C607 H592 0.959 1_554 S
C607 H593 0.961 . S
C607 C606 1.502 . S
C608 H594 0.960 1_556 S
C608 H595 0.961 . S
C608 H596 0.959 . S
C608 C606 1.561 1_556 S
C609 C606 1.526 1_556 S
C609 C610 1.396 1_565 S
C609 C614 1.390 . S
C610 C604 1.465 1_556 S
C610 C609 1.396 1_545 S
C610 C611 1.399 . S
C611 H597 0.929 . S
C611 C610 1.399 . S
C611 C612 1.385 . S
C612 H598 0.931 . S
C612 C611 1.385 . S
C612 C613 1.389 . S
C613 C612 1.389 . S
C613 C614 1.387 1_545 S
C614 H599 0.930 . S
C614 C609 1.390 . S
C614 C613 1.387 1_565 S
H615 C627 0.930 . S
H616 C629 0.930 . S
H617 C630 0.930 . S
H618 C634 0.959 . S
H619 C634 0.959 . S
H620 C634 0.961 . S
H621 C635 0.960 . S
H622 C635 0.961 . S
H623 C635 0.959 . S
H624 C638 0.929 . S
H625 C639 0.931 . S
H626 C641 0.930 . S
C627 H615 0.930 . S
C627 C628 1.399 . S
C627 C632 1.399 . S
C628 C627 1.399 . S
C628 C629 1.376 . S
C629 H616 0.930 . S
C629 C628 1.376 . S
C629 C630 1.388 . S
C630 H617 0.930 . S
C630 C629 1.388 . S
C630 C631 1.390 . S
C631 C630 1.390 . S
C631 C632 1.394 . S
C631 C637 1.465 1_554 S
C632 C627 1.399 . S
C632 C631 1.394 . S
C632 C633 1.516 1_554 S
C633 C632 1.516 1_556 S
C633 C634 1.502 . S
C633 C635 1.561 . S
C633 C636 1.526 . S
C634 H618 0.959 . S
C634 H619 0.959 . S
C634 H620 0.961 . S
C634 C633 1.502 . S
C635 H621 0.960 . S
C635 H622 0.961 . S
C635 H623 0.959 . S
C635 C633 1.561 . S
C636 C633 1.526 . S
C636 C637 1.396 . S
C636 C641 1.390 . S
C637 C631 1.465 1_556 S
C637 C636 1.396 . S
C637 C638 1.399 . S
C638 H624 0.929 . S
C638 C637 1.399 . S
C638 C639 1.385 . S
C639 H625 0.931 . S
C639 C638 1.385 . S
C639 C640 1.389 . S
C640 C639 1.389 . S
C640 C641 1.387 . S
C641 H626 0.930 . S
C641 C636 1.390 . S
C641 C640 1.387 . S
H642 C654 0.930 . S
H643 C656 0.930 . S
H644 C657 0.930 . S
H645 C661 0.959 . S
H646 C661 0.959 . S
H647 C661 0.961 . S
H648 C662 0.960 . S
H649 C662 0.961 1_556 S
H650 C662 0.959 1_556 S
H651 C665 0.929 . S
H652 C666 0.931 . S
H653 C668 0.930 . S
C654 H642 0.930 . S
C654 C655 1.399 . S
C654 C659 1.399 . S
C655 C654 1.399 . S
C655 C656 1.376 . S
C656 H643 0.930 . S
C656 C655 1.376 . S
C656 C657 1.388 . S
C657 H644 0.930 . S
C657 C656 1.388 . S
C657 C658 1.390 . S
C658 C657 1.390 . S
C658 C659 1.394 . S
C658 C664 1.465 1_554 S
C659 C654 1.399 . S
C659 C658 1.394 . S
C659 C660 1.516 . S
C660 C659 1.516 . S
C660 C661 1.502 . S
C660 C662 1.561 . S
C660 C663 1.526 1_554 S
C661 H645 0.959 . S
C661 H646 0.959 . S
C661 H647 0.961 . S
C661 C660 1.502 . S
C662 H648 0.960 . S
C662 H649 0.961 1_554 S
C662 H650 0.959 1_554 S
C662 C660 1.561 . S
C663 C660 1.526 1_556 S
C663 C664 1.396 . S
C663 C668 1.390 . S
C664 C658 1.465 1_556 S
C664 C663 1.396 . S
C664 C665 1.399 . S
C665 H651 0.929 . S
C665 C664 1.399 . S
C665 C666 1.385 . S
C666 H652 0.931 . S
C666 C665 1.385 . S
C666 C667 1.389 . S
C667 C666 1.389 . S
C667 C668 1.387 . S
C668 H653 0.930 . S
C668 C663 1.390 . S
C668 C667 1.387 . S
H669 C681 0.930 . S
H670 C683 0.930 . S
H671 C684 0.930 . S
H672 C688 0.959 1_455 S
H673 C688 0.959 . S
H674 C688 0.961 . S
H675 C689 0.960 . S
H676 C689 0.961 . S
H677 C689 0.959 . S
H678 C692 0.929 . S
H679 C693 0.931 . S
H680 C695 0.930 . S
C681 H669 0.930 . S
C681 C682 1.407 . S
C681 C686 1.399 . S
C682 C681 1.407 . S
C682 C683 1.369 1_655 S
C683 H670 0.930 . S
C683 C682 1.369 1_455 S
C683 C684 1.388 . S
C684 H671 0.930 . S
C684 C683 1.388 . S
C684 C685 1.398 . S
C685 C684 1.398 . S
C685 C686 1.385 1_455 S
C685 C691 1.465 1_554 S
C686 C681 1.399 . S
C686 C685 1.385 1_655 S
C686 C687 1.516 . S
C687 C686 1.516 . S
C687 C688 1.502 . S
C687 C689 1.561 . S
C687 C690 1.526 1_554 S
C688 H672 0.959 1_655 S
C688 H673 0.959 . S
C688 H674 0.961 . S
C688 C687 1.502 . S
C689 H675 0.960 . S
C689 H676 0.961 . S
C689 H677 0.959 . S
C689 C687 1.561 . S
C690 C687 1.526 1_556 S
C690 C691 1.383 1_655 S
C690 C695 1.390 . S
C691 C685 1.465 1_556 S
C691 C690 1.383 1_455 S
C691 C692 1.411 . S
C692 H678 0.929 . S
C692 C691 1.411 . S
C692 C693 1.385 . S
C693 H679 0.931 . S
C693 C692 1.385 . S
C693 C694 1.376 1_455 S
C694 C693 1.376 1_655 S
C694 C695 1.401 . S
C695 H680 0.930 . S
C695 C690 1.390 . S
C695 C694 1.401 . S
H696 C708 0.930 . S
H697 C710 0.930 . S
H698 C711 0.930 . S
H699 C715 0.959 . S
H700 C715 0.959 . S
H701 C715 0.961 . S
H702 C716 0.960 . S
H703 C716 0.961 . S
H704 C716 0.959 . S
H705 C719 0.929 . S
H706 C720 0.931 . S
H707 C722 0.930 . S
C708 H696 0.930 . S
C708 C709 1.403 . S
C708 C713 1.399 1_455 S
C709 C708 1.403 . S
C709 C710 1.358 1_455 S
C710 H697 0.930 . S
C710 C709 1.358 1_655 S
C710 C711 1.388 . S
C711 H698 0.930 . S
C711 C710 1.388 . S
C711 C712 1.390 . S
C712 C711 1.390 . S
C712 C713 1.394 . S
C712 C718 1.465 . S
C713 C708 1.399 1_655 S
C713 C712 1.394 . S
C713 C714 1.516 . S
C714 C713 1.516 . S
C714 C715 1.502 1_655 S
C714 C716 1.561 . S
C714 C717 1.526 . S
C715 H699 0.959 . S
C715 H700 0.959 . S
C715 H701 0.961 . S
C715 C714 1.502 1_455 S
C716 H702 0.960 . S
C716 H703 0.961 . S
C716 H704 0.959 . S
C716 C714 1.561 . S
C717 C714 1.526 . S
C717 C718 1.396 . S
C717 C722 1.390 . S
C718 C712 1.465 . S
C718 C717 1.396 . S
C718 C719 1.399 . S
C719 H705 0.929 . S
C719 C718 1.399 . S
C719 C720 1.385 . S
C720 H706 0.931 . S
C720 C719 1.385 . S
C720 C721 1.389 . S
C721 C720 1.389 . S
C721 C722 1.387 . S
C722 H707 0.930 . S
C722 C717 1.390 . S
C722 C721 1.387 . S
H723 C735 0.930 . S
H724 C737 0.930 . S
H725 C738 0.930 . S
H726 C742 0.959 . S
H727 C742 0.959 . S
H728 C742 0.961 . S
H729 C743 0.960 . S
H730 C743 0.961 . S
H731 C743 0.959 . S
H732 C746 0.929 . S
H733 C747 0.931 . S
H734 C749 0.930 . S
C735 H723 0.930 . S
C735 C736 1.399 1_565 S
C735 C740 1.399 . S
C736 C735 1.399 1_545 S
C736 C737 1.376 . S
C737 H724 0.930 . S
C737 C736 1.376 . S
C737 C738 1.388 . S
C738 H725 0.930 . S
C738 C737 1.388 . S
C738 C739 1.390 1_545 S
C739 C738 1.390 1_565 S
C739 C740 1.394 . S
C739 C745 1.465 . S
C740 C735 1.399 . S
C740 C739 1.394 . S
C740 C741 1.516 . S
C741 C740 1.516 . S
C741 C742 1.502 . S
C741 C743 1.561 . S
C741 C744 1.526 . S
C742 H726 0.959 . S
C742 H727 0.959 . S
C742 H728 0.961 . S
C742 C741 1.502 . S
C743 H729 0.960 . S
C743 H730 0.961 . S
C743 H731 0.959 . S
C743 C741 1.561 . S
C744 C741 1.526 . S
C744 C745 1.396 . S
C744 C749 1.390 . S
C745 C739 1.465 . S
C745 C744 1.396 . S
C745 C746 1.399 1_565 S
C746 H732 0.929 . S
C746 C745 1.399 1_545 S
C746 C747 1.385 1_545 S
C747 H733 0.931 . S
C747 C746 1.385 1_565 S
C747 C748 1.389 . S
C748 C747 1.389 . S
C748 C749 1.387 . S
C749 H734 0.930 . S
C749 C744 1.390 . S
C749 C748 1.387 . S
H750 C762 0.930 . S
H751 C764 0.930 . S
H752 C765 0.930 . S
H753 C769 0.959 . S
H754 C769 0.959 . S
H755 C769 0.961 . S
H756 C770 0.960 . S
H757 C770 0.961 . S
H758 C770 0.959 . S
H759 C773 0.929 . S
H760 C774 0.931 . S
H761 C776 0.930 . S
C762 H750 0.930 . S
C762 C763 1.399 . S
C762 C767 1.399 . S
C763 C762 1.399 . S
C763 C764 1.376 . S
C764 H751 0.930 . S
C764 C763 1.376 . S
C764 C765 1.388 . S
C765 H752 0.930 . S
C765 C764 1.388 . S
C765 C766 1.390 . S
C766 C765 1.390 . S
C766 C767 1.394 . S
C766 C772 1.465 . S
C767 C762 1.399 . S
C767 C766 1.394 . S
C767 C768 1.516 . S
C768 C767 1.516 . S
C768 C769 1.502 . S
C768 C770 1.561 . S
C768 C771 1.526 . S
C769 H753 0.959 . S
C769 H754 0.959 . S
C769 H755 0.961 . S
C769 C768 1.502 . S
C770 H756 0.960 . S
C770 H757 0.961 . S
C770 H758 0.959 . S
C770 C768 1.561 . S
C771 C768 1.526 . S
C771 C772 1.396 . S
C771 C776 1.390 . S
C772 C766 1.465 . S
C772 C771 1.396 . S
C772 C773 1.399 . S
C773 H759 0.929 . S
C773 C772 1.399 . S
C773 C774 1.385 . S
C774 H760 0.931 . S
C774 C773 1.385 . S
C774 C775 1.389 . S
C775 C774 1.389 . S
C775 C776 1.387 . S
C776 H761 0.930 . S
C776 C771 1.390 . S
C776 C775 1.387 . S
H777 C789 0.930 . S
H778 C791 0.930 . S
H779 C792 0.930 . S
H780 C796 0.959 . S
H781 C796 0.959 . S
H782 C796 0.961 . S
H783 C797 0.960 . S
H784 C797 0.961 . S
H785 C797 0.959 . S
H786 C800 0.929 . S
H787 C801 0.931 . S
H788 C803 0.930 . S
C789 H777 0.930 . S
C789 C790 1.399 . S
C789 C794 1.399 . S
C790 C789 1.399 . S
C790 C791 1.376 . S
C791 H778 0.930 . S
C791 C790 1.376 . S
C791 C792 1.388 . S
C792 H779 0.930 . S
C792 C791 1.388 . S
C792 C793 1.390 . S
C793 C792 1.390 . S
C793 C794 1.394 . S
C793 C799 1.465 . S
C794 C789 1.399 . S
C794 C793 1.394 . S
C794 C795 1.516 . S
C795 C794 1.516 . S
C795 C796 1.502 . S
C795 C797 1.561 . S
C795 C798 1.526 . S
C796 H780 0.959 . S
C796 H781 0.959 . S
C796 H782 0.961 . S
C796 C795 1.502 . S
C797 H783 0.960 . S
C797 H784 0.961 . S
C797 H785 0.959 . S
C797 C795 1.561 . S
C798 C795 1.526 . S
C798 C799 1.396 . S
C798 C803 1.390 . S
C799 C793 1.465 . S
C799 C798 1.396 . S
C799 C800 1.399 . S
C800 H786 0.929 . S
C800 C799 1.399 . S
C800 C801 1.385 . S
C801 H787 0.931 . S
C801 C800 1.385 . S
C801 C802 1.389 . S
C802 C801 1.389 . S
C802 C803 1.387 . S
C803 H788 0.930 . S
C803 C798 1.390 . S
C803 C802 1.387 . S
H804 C816 0.930 1_655 S
H805 C818 0.930 . S
H806 C819 0.930 . S
H807 C823 0.986 . S
H808 C823 0.949 1_455 S
H809 C823 0.973 . S
H810 C824 0.960 . S
H811 C824 0.961 . S
H812 C824 0.959 . S
H813 C827 0.929 . S
H814 C828 0.931 . S
H815 C830 0.930 1_554 S
C816 H804 0.930 1_455 S
C816 C817 1.399 1_455 S
C816 C821 1.399 . S
C817 C816 1.399 1_655 S
C817 C818 1.376 1_654 S
C818 H805 0.930 . S
C818 C817 1.376 1_456 S
C818 C819 1.388 . S
C819 H806 0.930 . S
C819 C818 1.388 . S
C819 C820 1.390 . S
C820 C819 1.390 . S
C820 C821 1.394 1_556 S
C820 C826 1.465 . S
C821 C816 1.399 . S
C821 C820 1.394 1_554 S
C821 C822 1.516 . S
C822 C821 1.516 . S
C822 C823 1.477 1_455 S
C822 C824 1.561 . S
C822 C825 1.526 . S
C823 H807 0.986 . S
C823 H808 0.949 1_655 S
C823 H809 0.973 . S
C823 C822 1.477 1_655 S
C824 H810 0.960 . S
C824 H811 0.961 . S
C824 H812 0.959 . S
C824 C822 1.561 . S
C825 C822 1.526 . S
C825 C826 1.396 1_554 S
C825 C830 1.389 1_554 S
C826 C820 1.465 . S
C826 C825 1.396 1_556 S
C826 C827 1.399 . S
C827 H813 0.929 . S
C827 C826 1.399 . S
C827 C828 1.385 . S
C828 H814 0.931 . S
C828 C827 1.385 . S
C828 C829 1.389 . S
C829 C828 1.389 . S
C829 C830 1.387 . S
C830 H815 0.930 1_556 S
C830 C825 1.389 1_556 S
C830 C829 1.387 . S
H831 C843 0.932 . S
H832 C845 0.930 . S
H833 C846 0.930 . S
H834 C850 0.959 . S
H835 C850 0.959 . S
H836 C850 0.961 . S
H837 C851 0.960 . S
H838 C851 0.961 . S
H839 C851 0.959 . S
H840 C854 0.929 . S
H841 C855 0.931 . S
H842 C857 0.930 1_554 S
C843 H831 0.932 . S
C843 C844 1.399 . S
C843 C848 1.396 1_565 S
C844 C843 1.399 . S
C844 C845 1.362 1_564 S
C845 H832 0.930 . S
C845 C844 1.362 1_546 S
C845 C846 1.388 . S
C846 H833 0.930 . S
C846 C845 1.388 . S
C846 C847 1.390 . S
C847 C846 1.390 . S
C847 C848 1.394 1_556 S
C847 C853 1.465 . S
C848 C843 1.396 1_545 S
C848 C847 1.394 1_554 S
C848 C849 1.516 . S
C849 C848 1.516 . S
C849 C850 1.502 1_545 S
C849 C851 1.561 . S
C849 C852 1.522 1_554 S
C850 H834 0.959 . S
C850 H835 0.959 . S
C850 H836 0.961 . S
C850 C849 1.502 1_565 S
C851 H837 0.960 . S
C851 H838 0.961 . S
C851 H839 0.959 . S
C851 C849 1.561 . S
C852 C849 1.522 1_556 S
C852 C853 1.399 . S
C852 C857 1.391 . S
C853 C847 1.465 . S
C853 C852 1.399 . S
C853 C854 1.399 . S
C854 H840 0.929 . S
C854 C853 1.399 . S
C854 C855 1.385 . S
C855 H841 0.931 . S
C855 C854 1.385 . S
C855 C856 1.389 . S
C856 C855 1.389 . S
C856 C857 1.387 . S
C857 H842 0.930 1_556 S
C857 C852 1.391 . S
C857 C856 1.387 . S
H858 C870 0.930 . S
H859 C872 0.930 . S
H860 C873 0.930 . S
H861 C877 0.959 . S
H862 C877 0.959 . S
H863 C877 0.961 . S
H864 C878 0.960 . S
H865 C878 0.961 . S
H866 C878 0.959 . S
H867 C881 0.929 . S
H868 C882 0.931 . S
H869 C884 0.930 1_554 S
C870 H858 0.930 . S
C870 C871 1.399 . S
C870 C875 1.399 . S
C871 C870 1.399 . S
C871 C872 1.376 1_554 S
C872 H859 0.930 . S
C872 C871 1.376 1_556 S
C872 C873 1.388 . S
C873 H860 0.930 . S
C873 C872 1.388 . S
C873 C874 1.390 . S
C874 C873 1.390 . S
C874 C875 1.394 1_556 S
C874 C880 1.465 . S
C875 C870 1.399 . S
C875 C874 1.394 1_554 S
C875 C876 1.516 . S
C876 C875 1.516 . S
C876 C877 1.502 . S
C876 C878 1.561 . S
C876 C879 1.532 . S
C877 H861 0.959 . S
C877 H862 0.959 . S
C877 H863 0.961 . S
C877 C876 1.502 . S
C878 H864 0.960 . S
C878 H865 0.961 . S
C878 H866 0.959 . S
C878 C876 1.561 . S
C879 C876 1.532 . S
C879 C880 1.391 1_554 S
C879 C884 1.388 1_554 S
C880 C874 1.465 . S
C880 C879 1.391 1_556 S
C880 C881 1.399 . S
C881 H867 0.929 . S
C881 C880 1.399 . S
C881 C882 1.385 . S
C882 H868 0.931 . S
C882 C881 1.385 . S
C882 C883 1.389 . S
C883 C882 1.389 . S
C883 C884 1.387 . S
C884 H869 0.930 1_556 S
C884 C879 1.388 1_556 S
C884 C883 1.387 . S
H885 C897 0.930 . S
H886 C899 0.930 . S
H887 C900 0.930 . S
H888 C904 0.959 1_556 S
H889 C904 0.959 . S
H890 C904 0.961 . S
H891 C905 0.960 . S
H892 C905 0.961 . S
H893 C905 0.959 . S
H894 C908 0.929 . S
H895 C909 0.931 . S
H896 C911 0.930 . S
C897 H885 0.930 . S
C897 C898 1.399 . S
C897 C902 1.399 . S
C898 C897 1.399 . S
C898 C899 1.376 . S
C899 H886 0.930 . S
C899 C898 1.376 . S
C899 C900 1.388 1_554 S
C900 H887 0.930 . S
C900 C899 1.388 1_556 S
C900 C901 1.390 . S
C901 C900 1.390 . S
C901 C902 1.391 1_556 S
C901 C907 1.467 . S
C902 C897 1.399 . S
C902 C901 1.391 1_554 S
C902 C903 1.516 . S
C903 C902 1.516 . S
C903 C904 1.502 . S
C903 C905 1.561 . S
C903 C906 1.526 1_554 S
C904 H888 0.959 1_554 S
C904 H889 0.959 . S
C904 H890 0.961 . S
C904 C903 1.502 . S
C905 H891 0.960 . S
C905 H892 0.961 . S
C905 H893 0.959 . S
C905 C903 1.561 . S
C906 C903 1.526 1_556 S
C906 C907 1.396 . S
C906 C911 1.390 . S
C907 C901 1.467 . S
C907 C906 1.396 . S
C907 C908 1.399 . S
C908 H894 0.929 . S
C908 C907 1.399 . S
C908 C909 1.385 . S
C909 H895 0.931 . S
C909 C908 1.385 . S
C909 C910 1.389 . S
C910 C909 1.389 . S
C910 C911 1.387 . S
C911 H896 0.930 . S
C911 C906 1.390 . S
C911 C910 1.387 . S
H912 C924 0.930 . S
H913 C926 0.939 . S
H914 C927 0.933 . S
H915 C931 0.959 . S
H916 C931 0.959 . S
H917 C931 0.961 . S
H918 C932 0.960 . S
H919 C932 0.961 . S
H920 C932 0.959 . S
H921 C935 0.929 . S
H922 C936 0.931 . S
H923 C938 0.930 . S
C924 H912 0.930 . S
C924 C925 1.399 . S
C924 C929 1.399 . S
C925 C924 1.399 . S
C925 C926 1.371 1_455 S
C926 H913 0.939 . S
C926 C925 1.371 1_655 S
C926 C927 1.388 . S
C927 H914 0.933 . S
C927 C926 1.388 . S
C927 C928 1.387 1_655 S
C928 C927 1.387 1_455 S
C928 C929 1.394 . S
C928 C934 1.465 . S
C929 C924 1.399 . S
C929 C928 1.394 . S
C929 C930 1.516 . S
C930 C929 1.516 . S
C930 C931 1.502 . S
C930 C932 1.561 1_455 S
C930 C933 1.526 . S
C931 H915 0.959 . S
C931 H916 0.959 . S
C931 H917 0.961 . S
C931 C930 1.502 . S
C932 H918 0.960 . S
C932 H919 0.961 . S
C932 H920 0.959 . S
C932 C930 1.561 1_655 S
C933 C930 1.526 . S
C933 C934 1.396 . S
C933 C938 1.390 . S
C934 C928 1.465 . S
C934 C933 1.396 . S
C934 C935 1.399 . S
C935 H921 0.929 . S
C935 C934 1.399 . S
C935 C936 1.385 . S
C936 H922 0.931 . S
C936 C935 1.385 . S
C936 C937 1.389 . S
C937 C936 1.389 . S
C937 C938 1.387 . S
C938 H923 0.930 . S
C938 C933 1.390 . S
C938 C937 1.387 . S
H939 C951 0.930 . S
H940 C953 0.930 . S
H941 C954 0.930 . S
H942 C958 0.959 1_545 S
H943 C958 0.959 . S
H944 C958 0.961 . S
H945 C959 0.960 . S
H946 C959 0.961 . S
H947 C959 0.959 . S
H948 C962 0.929 . S
H949 C963 0.931 . S
H950 C965 0.937 . S
C951 H939 0.930 . S
C951 C952 1.399 1_565 S
C951 C956 1.399 . S
C952 C951 1.399 1_545 S
C952 C953 1.376 . S
C953 H940 0.930 . S
C953 C952 1.376 . S
C953 C954 1.388 . S
C954 H941 0.930 . S
C954 C953 1.388 . S
C954 C955 1.390 . S
C955 C954 1.390 . S
C955 C956 1.394 1_545 S
C955 C961 1.465 . S
C956 C951 1.399 . S
C956 C955 1.394 1_565 S
C956 C957 1.516 . S
C957 C956 1.516 . S
C957 C958 1.502 . S
C957 C959 1.561 . S
C957 C960 1.526 1_565 S
C958 H942 0.959 1_565 S
C958 H943 0.959 . S
C958 H944 0.961 . S
C958 C957 1.502 . S
C959 H945 0.960 . S
C959 H946 0.961 . S
C959 H947 0.959 . S
C959 C957 1.561 . S
C960 C957 1.526 1_545 S
C960 C961 1.396 . S
C960 C965 1.389 1_545 S
C961 C955 1.465 . S
C961 C960 1.396 . S
C961 C962 1.399 . S
C962 H948 0.929 . S
C962 C961 1.399 . S
C962 C963 1.385 . S
C963 H949 0.931 . S
C963 C962 1.385 . S
C963 C964 1.389 . S
C964 C963 1.389 . S
C964 C965 1.380 1_545 S
C965 H950 0.937 . S
C965 C960 1.389 1_565 S
C965 C964 1.380 1_565 S
H966 C978 0.930 . S
H967 C980 0.930 . S
H968 C981 0.930 . S
H969 C985 0.959 . S
H970 C985 0.959 . S
H971 C985 0.961 . S
H972 C986 0.960 . S
H973 C986 0.961 . S
H974 C986 0.959 . S
H975 C989 0.929 . S
H976 C990 0.931 . S
H977 C992 0.930 . S
C978 H966 0.930 . S
C978 C979 1.399 . S
C978 C983 1.399 . S
C979 C978 1.399 . S
C979 C980 1.376 . S
C980 H967 0.930 . S
C980 C979 1.376 . S
C980 C981 1.388 . S
C981 H968 0.930 . S
C981 C980 1.388 . S
C981 C982 1.390 . S
C982 C981 1.390 . S
C982 C983 1.394 . S
C982 C988 1.465 . S
C983 C978 1.399 . S
C983 C982 1.394 . S
C983 C984 1.516 . S
C984 C983 1.516 . S
C984 C985 1.502 . S
C984 C986 1.561 . S
C984 C987 1.526 . S
C985 H969 0.959 . S
C985 H970 0.959 . S
C985 H971 0.961 . S
C985 C984 1.502 . S
C986 H972 0.960 . S
C986 H973 0.961 . S
C986 H974 0.959 . S
C986 C984 1.561 . S
C987 C984 1.526 . S
C987 C988 1.396 . S
C987 C992 1.390 . S
C988 C982 1.465 . S
C988 C987 1.396 . S
C988 C989 1.399 . S
C989 H975 0.929 . S
C989 C988 1.399 . S
C989 C990 1.385 . S
C990 H976 0.931 . S
C990 C989 1.385 . S
C990 C991 1.389 . S
C991 C990 1.389 . S
C991 C992 1.387 . S
C992 H977 0.930 . S
C992 C987 1.390 . S
C992 C991 1.387 . S
H993 C1005 0.930 . S
H994 C1007 0.930 . S
H995 C1008 0.930 . S
H996 C1012 0.959 . S
H997 C1012 0.959 . S
H998 C1012 0.961 . S
H999 C1013 0.960 . S
H1000 C1013 0.961 . S
H1001 C1013 0.959 . S
H1002 C1016 0.929 . S
H1003 C1017 0.931 . S
H1004 C1019 0.930 . S
C1005 H993 0.930 . S
C1005 C1006 1.399 . S
C1005 C1010 1.399 . S
C1006 C1005 1.399 . S
C1006 C1007 1.376 . S
C1007 H994 0.930 . S
C1007 C1006 1.376 . S
C1007 C1008 1.388 . S
C1008 H995 0.930 . S
C1008 C1007 1.388 . S
C1008 C1009 1.390 . S
C1009 C1008 1.390 . S
C1009 C1010 1.394 . S
C1009 C1015 1.465 . S
C1010 C1005 1.399 . S
C1010 C1009 1.394 . S
C1010 C1011 1.516 . S
C1011 C1010 1.516 . S
C1011 C1012 1.502 . S
C1011 C1013 1.561 . S
C1011 C1014 1.526 . S
C1012 H996 0.959 . S
C1012 H997 0.959 . S
C1012 H998 0.961 . S
C1012 C1011 1.502 . S
C1013 H999 0.960 . S
C1013 H1000 0.961 . S
C1013 H1001 0.959 . S
C1013 C1011 1.561 . S
C1014 C1011 1.526 . S
C1014 C1015 1.396 . S
C1014 C1019 1.390 . S
C1015 C1009 1.465 . S
C1015 C1014 1.396 . S
C1015 C1016 1.399 . S
C1016 H1002 0.929 . S
C1016 C1015 1.399 . S
C1016 C1017 1.385 . S
C1017 H1003 0.931 . S
C1017 C1016 1.385 . S
C1017 C1018 1.389 . S
C1018 C1017 1.389 . S
C1018 C1019 1.387 . S
C1019 H1004 0.930 . S
C1019 C1014 1.390 . S
C1019 C1018 1.387 . S
H1020 C1032 0.930 . S
H1021 C1034 0.930 . S
H1022 C1035 0.930 . S
H1023 C1039 0.959 . S
H1024 C1039 0.959 . S
H1025 C1039 0.961 . S
H1026 C1040 0.960 . S
H1027 C1040 0.962 . S
H1028 C1040 0.959 . S
H1029 C1043 0.929 . S
H1030 C1044 0.934 . S
H1031 C1046 0.930 . S
C1032 H1020 0.930 . S
C1032 C1033 1.399 . S
C1032 C1037 1.399 . S
C1033 C1032 1.399 . S
C1033 C1034 1.376 1_655 S
C1034 H1021 0.930 . S
C1034 C1033 1.376 1_455 S
C1034 C1035 1.388 . S
C1035 H1022 0.930 . S
C1035 C1034 1.388 . S
C1035 C1036 1.406 . S
C1036 C1035 1.406 . S
C1036 C1037 1.377 1_455 S
C1036 C1042 1.461 1_455 S
C1037 C1032 1.399 . S
C1037 C1036 1.377 1_655 S
C1037 C1038 1.516 . S
C1038 C1037 1.516 . S
C1038 C1039 1.502 . S
C1038 C1040 1.561 1_655 S
C1038 C1041 1.526 . S
C1039 H1023 0.959 . S
C1039 H1024 0.959 . S
C1039 H1025 0.961 . S
C1039 C1038 1.502 . S
C1040 H1026 0.960 . S
C1040 H1027 0.962 . S
C1040 H1028 0.959 . S
C1040 C1038 1.561 1_455 S
C1041 C1038 1.526 . S
C1041 C1042 1.414 . S
C1041 C1046 1.390 . S
C1042 C1036 1.461 1_655 S
C1042 C1041 1.414 . S
C1042 C1043 1.389 1_655 S
C1043 H1029 0.929 . S
C1043 C1042 1.389 1_455 S
C1043 C1044 1.388 . S
C1044 H1030 0.934 . S
C1044 C1043 1.388 . S
C1044 C1045 1.384 1_455 S
C1045 C1044 1.384 1_655 S
C1045 C1046 1.387 . S
C1046 H1031 0.930 . S
C1046 C1041 1.390 . S
C1046 C1045 1.387 . S
H1047 C1059 0.930 . S
H1048 C1061 0.930 . S
H1049 C1062 0.930 . S
H1050 C1066 0.959 . S
H1051 C1066 0.959 . S
H1052 C1066 0.961 . S
H1053 C1067 0.960 . S
H1054 C1067 0.961 . S
H1055 C1067 0.959 . S
H1056 C1070 0.929 . S
H1057 C1071 0.931 . S
H1058 C1073 0.930 . S
C1059 H1047 0.930 . S
C1059 C1060 1.399 1_545 S
C1059 C1064 1.399 . S
C1060 C1059 1.399 1_565 S
C1060 C1061 1.376 . S
C1061 H1048 0.930 . S
C1061 C1060 1.376 . S
C1061 C1062 1.388 . S
C1062 H1049 0.930 . S
C1062 C1061 1.388 . S
C1062 C1063 1.390 . S
C1063 C1062 1.390 . S
C1063 C1064 1.394 1_565 S
C1063 C1069 1.465 . S
C1064 C1059 1.399 . S
C1064 C1063 1.394 1_545 S
C1064 C1065 1.516 . S
C1065 C1064 1.516 . S
C1065 C1066 1.502 . S
C1065 C1067 1.561 . S
C1065 C1068 1.526 . S
C1066 H1050 0.959 . S
C1066 H1051 0.959 . S
C1066 H1052 0.961 . S
C1066 C1065 1.502 . S
C1067 H1053 0.960 . S
C1067 H1054 0.961 . S
C1067 H1055 0.959 . S
C1067 C1065 1.561 . S
C1068 C1065 1.526 . S
C1068 C1069 1.396 1_545 S
C1068 C1073 1.390 . S
C1069 C1063 1.465 . S
C1069 C1068 1.396 1_565 S
C1069 C1070 1.399 . S
C1070 H1056 0.929 . S
C1070 C1069 1.399 . S
C1070 C1071 1.385 . S
C1071 H1057 0.931 . S
C1071 C1070 1.385 . S
C1071 C1072 1.389 . S
C1072 C1071 1.389 . S
C1072 C1073 1.387 1_565 S
C1073 H1058 0.930 . S
C1073 C1068 1.390 . S
C1073 C1072 1.387 1_545 S
H1074 C1086 0.930 . S
H1075 C1088 0.930 . S
H1076 C1089 0.930 . S
H1077 C1093 0.959 . S
H1078 C1093 0.959 . S
H1079 C1093 0.961 . S
H1080 C1094 0.960 . S
H1081 C1094 0.961 . S
H1082 C1094 0.959 . S
H1083 C1097 0.929 . S
H1084 C1098 0.931 . S
H1085 C1100 0.930 . S
C1086 H1074 0.930 . S
C1086 C1087 1.399 . S
C1086 C1091 1.399 . S
C1087 C1086 1.399 . S
C1087 C1088 1.376 . S
C1088 H1075 0.930 . S
C1088 C1087 1.376 . S
C1088 C1089 1.388 . S
C1089 H1076 0.930 . S
C1089 C1088 1.388 . S
C1089 C1090 1.390 . S
C1090 C1089 1.390 . S
C1090 C1091 1.394 . S
C1090 C1096 1.465 . S
C1091 C1086 1.399 . S
C1091 C1090 1.394 . S
C1091 C1092 1.516 . S
C1092 C1091 1.516 . S
C1092 C1093 1.502 . S
C1092 C1094 1.561 . S
C1092 C1095 1.526 . S
C1093 H1077 0.959 . S
C1093 H1078 0.959 . S
C1093 H1079 0.961 . S
C1093 C1092 1.502 . S
C1094 H1080 0.960 . S
C1094 H1081 0.961 . S
C1094 H1082 0.959 . S
C1094 C1092 1.561 . S
C1095 C1092 1.526 . S
C1095 C1096 1.396 . S
C1095 C1100 1.390 . S
C1096 C1090 1.465 . S
C1096 C1095 1.396 . S
C1096 C1097 1.399 . S
C1097 H1083 0.929 . S
C1097 C1096 1.399 . S
C1097 C1098 1.385 . S
C1098 H1084 0.931 . S
C1098 C1097 1.385 . S
C1098 C1099 1.389 . S
C1099 C1098 1.389 . S
C1099 C1100 1.387 . S
C1100 H1085 0.930 . S
C1100 C1095 1.390 . S
C1100 C1099 1.387 . S
H1101 C1113 0.930 . S
H1102 C1115 0.930 . S
H1103 C1116 0.930 . S
H1104 C1120 0.959 . S
H1105 C1120 0.959 . S
H1106 C1120 0.961 . S
H1107 C1121 0.960 . S
H1108 C1121 0.961 . S
H1109 C1121 0.959 . S
H1110 C1124 0.929 . S
H1111 C1125 0.931 . S
H1112 C1127 0.930 . S
C1113 H1101 0.930 . S
C1113 C1114 1.399 . S
C1113 C1118 1.399 . S
C1114 C1113 1.399 . S
C1114 C1115 1.376 . S
C1115 H1102 0.930 . S
C1115 C1114 1.376 . S
C1115 C1116 1.388 . S
C1116 H1103 0.930 . S
C1116 C1115 1.388 . S
C1116 C1117 1.390 . S
C1117 C1116 1.390 . S
C1117 C1118 1.394 . S
C1117 C1123 1.465 . S
C1118 C1113 1.399 . S
C1118 C1117 1.394 . S
C1118 C1119 1.516 . S
C1119 C1118 1.516 . S
C1119 C1120 1.502 . S
C1119 C1121 1.561 . S
C1119 C1122 1.526 . S
C1120 H1104 0.959 . S
C1120 H1105 0.959 . S
C1120 H1106 0.961 . S
C1120 C1119 1.502 . S
C1121 H1107 0.960 . S
C1121 H1108 0.961 . S
C1121 H1109 0.959 . S
C1121 C1119 1.561 . S
C1122 C1119 1.526 . S
C1122 C1123 1.396 . S
C1122 C1127 1.390 . S
C1123 C1117 1.465 . S
C1123 C1122 1.396 . S
C1123 C1124 1.399 . S
C1124 H1110 0.929 . S
C1124 C1123 1.399 . S
C1124 C1125 1.385 . S
C1125 H1111 0.931 . S
C1125 C1124 1.385 . S
C1125 C1126 1.389 . S
C1126 C1125 1.389 . S
C1126 C1127 1.387 . S
C1127 H1112 0.930 . S
C1127 C1122 1.390 . S
C1127 C1126 1.387 . S
C493 C255 2.285 1_565 S
C505 C329 2.441 . S
C532 C369 2.461 . S
C520 C295 2.215 . S
C559 C409 2.445 . S
C547 C175 2.281 . S
C586 C449 2.457 1_455 S
C574 C215 2.223 1_655 S
C613 C338 2.448 . S
C601 C95 2.234 . S
C628 C135 2.277 . S
C640 C378 2.449 . S
C655 C15 2.217 . S
C667 C418 2.455 . S
C682 C55 2.211 1_655 S
C694 C458 2.457 1_655 S
C721 C335 0.542 . S
C709 C221 0.360 . S
C748 C375 0.332 . S
C736 C261 0.419 . S
C775 C415 0.340 . S
C763 C301 0.476 . S
C790 C181 0.447 . S
C802 C455 0.322 . S
C817 C61 0.559 1_655 S
C829 C326 0.465 . S
C856 C366 0.489 . S
C844 C101 0.514 1_565 S
C883 C406 0.477 . S
C871 C141 0.545 . S
C898 C21 0.440 . S
C910 C446 0.550 . S
C925 C202 3.178 . S
C937 C339 3.485 . S
C952 C242 3.172 . S
C964 C379 3.497 . S
C991 C419 3.483 . S
C979 C282 3.168 . S
C1018 C459 3.486 . S
C1006 C162 3.124 . S
C1033 C42 3.137 1_655 S
C1045 C330 3.503 . S
C1072 C370 3.509 . S
C1060 C82 3.145 1_565 S
C1099 C410 3.492 . S
C1087 C122 3.130 . S
C1114 C2 3.141 . S
C1126 C450 3.497 . S
