# Generated by pormake.
# Topology myd, (4,6)-cn, num edge types: 1
# Building blocks:
#     Node 0, Type 0, BuildingBlock: NAWXER_clean_sbu_0, # of connection points: 4
#     Node 1, Type 0, BuildingBlock: NAWXER_clean_sbu_0, # of connection points: 4
#     Node 2, Type 0, BuildingBlock: NAWXER_clean_sbu_0, # of connection points: 4
#     Node 3, Type 0, BuildingBlock: NAWXER_clean_sbu_0, # of connection points: 4
#     Node 4, Type 0, BuildingBlock: NAWXER_clean_sbu_0, # of connection points: 4
#     Node 5, Type 0, BuildingBlock: NAWXER_clean_sbu_0, # of connection points: 4
#     Node 6, Type 0, BuildingBlock: NAWXER_clean_sbu_0, # of connection points: 4
#     Node 7, Type 0, BuildingBlock: NAWXER_clean_sbu_0, # of connection points: 4
#     Node 8, Type 0, BuildingBlock: NAWXER_clean_sbu_0, # of connection points: 4
#     Node 9, Type 0, BuildingBlock: NAWXER_clean_sbu_0, # of connection points: 4
#     Node 10, Type 0, BuildingBlock: NAWXER_clean_sbu_0, # of connection points: 4
#     Node 11, Type 0, BuildingBlock: NAWXER_clean_sbu_0, # of connection points: 4
#     Node 12, Type 1, BuildingBlock: CUWYAW_clean_sbu_0, # of connection points: 6
#     Node 13, Type 1, BuildingBlock: CUWYAW_clean_sbu_0, # of connection points: 6
#     Node 14, Type 1, BuildingBlock: CUWYAW_clean_sbu_0, # of connection points: 6
#     Node 15, Type 1, BuildingBlock: CUWYAW_clean_sbu_0, # of connection points: 6
#     Node 16, Type 1, BuildingBlock: CUWYAW_clean_sbu_0, # of connection points: 6
#     Node 17, Type 1, BuildingBlock: CUWYAW_clean_sbu_0, # of connection points: 6
#     Node 18, Type 1, BuildingBlock: CUWYAW_clean_sbu_0, # of connection points: 6
#     Node 19, Type 1, BuildingBlock: CUWYAW_clean_sbu_0, # of connection points: 6
#     Edge 20, Type (0, 1), BuildingBlock: KIFKEQ_clean_linker_1, # of connection points: 2
#     Edge 21, Type (0, 1), BuildingBlock: KIFKEQ_clean_linker_1, # of connection points: 2
#     Edge 22, Type (0, 1), BuildingBlock: KIFKEQ_clean_linker_1, # of connection points: 2
#     Edge 23, Type (0, 1), BuildingBlock: KIFKEQ_clean_linker_1, # of connection points: 2
#     Edge 24, Type (0, 1), BuildingBlock: KIFKEQ_clean_linker_1, # of connection points: 2
#     Edge 25, Type (0, 1), BuildingBlock: KIFKEQ_clean_linker_1, # of connection points: 2
#     Edge 26, Type (0, 1), BuildingBlock: KIFKEQ_clean_linker_1, # of connection points: 2
#     Edge 27, Type (0, 1), BuildingBlock: KIFKEQ_clean_linker_1, # of connection points: 2
#     Edge 28, Type (0, 1), BuildingBlock: KIFKEQ_clean_linker_1, # of connection points: 2
#     Edge 29, Type (0, 1), BuildingBlock: KIFKEQ_clean_linker_1, # of connection points: 2
#     Edge 30, Type (0, 1), BuildingBlock: KIFKEQ_clean_linker_1, # of connection points: 2
#     Edge 31, Type (0, 1), BuildingBlock: KIFKEQ_clean_linker_1, # of connection points: 2
#     Edge 32, Type (0, 1), BuildingBlock: KIFKEQ_clean_linker_1, # of connection points: 2
#     Edge 33, Type (0, 1), BuildingBlock: KIFKEQ_clean_linker_1, # of connection points: 2
#     Edge 34, Type (0, 1), BuildingBlock: KIFKEQ_clean_linker_1, # of connection points: 2
#     Edge 35, Type (0, 1), BuildingBlock: KIFKEQ_clean_linker_1, # of connection points: 2
#     Edge 36, Type (0, 1), BuildingBlock: KIFKEQ_clean_linker_1, # of connection points: 2
#     Edge 37, Type (0, 1), BuildingBlock: KIFKEQ_clean_linker_1, # of connection points: 2
#     Edge 38, Type (0, 1), BuildingBlock: KIFKEQ_clean_linker_1, # of connection points: 2
#     Edge 39, Type (0, 1), BuildingBlock: KIFKEQ_clean_linker_1, # of connection points: 2
#     Edge 40, Type (0, 1), BuildingBlock: KIFKEQ_clean_linker_1, # of connection points: 2
#     Edge 41, Type (0, 1), BuildingBlock: KIFKEQ_clean_linker_1, # of connection points: 2
#     Edge 42, Type (0, 1), BuildingBlock: KIFKEQ_clean_linker_1, # of connection points: 2
#     Edge 43, Type (0, 1), BuildingBlock: KIFKEQ_clean_linker_1, # of connection points: 2
#     Edge 44, Type (0, 1), BuildingBlock: KIFKEQ_clean_linker_1, # of connection points: 2
#     Edge 45, Type (0, 1), BuildingBlock: KIFKEQ_clean_linker_1, # of connection points: 2
#     Edge 46, Type (0, 1), BuildingBlock: KIFKEQ_clean_linker_1, # of connection points: 2
#     Edge 47, Type (0, 1), BuildingBlock: KIFKEQ_clean_linker_1, # of connection points: 2
#     Edge 48, Type (0, 1), BuildingBlock: KIFKEQ_clean_linker_1, # of connection points: 2
#     Edge 49, Type (0, 1), BuildingBlock: KIFKEQ_clean_linker_1, # of connection points: 2
#     Edge 50, Type (0, 1), BuildingBlock: KIFKEQ_clean_linker_1, # of connection points: 2
#     Edge 51, Type (0, 1), BuildingBlock: KIFKEQ_clean_linker_1, # of connection points: 2
#     Edge 52, Type (0, 1), BuildingBlock: KIFKEQ_clean_linker_1, # of connection points: 2
#     Edge 53, Type (0, 1), BuildingBlock: KIFKEQ_clean_linker_1, # of connection points: 2
#     Edge 54, Type (0, 1), BuildingBlock: KIFKEQ_clean_linker_1, # of connection points: 2
#     Edge 55, Type (0, 1), BuildingBlock: KIFKEQ_clean_linker_1, # of connection points: 2
#     Edge 56, Type (0, 1), BuildingBlock: KIFKEQ_clean_linker_1, # of connection points: 2
#     Edge 57, Type (0, 1), BuildingBlock: KIFKEQ_clean_linker_1, # of connection points: 2
#     Edge 58, Type (0, 1), BuildingBlock: KIFKEQ_clean_linker_1, # of connection points: 2
#     Edge 59, Type (0, 1), BuildingBlock: KIFKEQ_clean_linker_1, # of connection points: 2
#     Edge 60, Type (0, 1), BuildingBlock: KIFKEQ_clean_linker_1, # of connection points: 2
#     Edge 61, Type (0, 1), BuildingBlock: KIFKEQ_clean_linker_1, # of connection points: 2
#     Edge 62, Type (0, 1), BuildingBlock: KIFKEQ_clean_linker_1, # of connection points: 2
#     Edge 63, Type (0, 1), BuildingBlock: KIFKEQ_clean_linker_1, # of connection points: 2
#     Edge 64, Type (0, 1), BuildingBlock: KIFKEQ_clean_linker_1, # of connection points: 2
#     Edge 65, Type (0, 1), BuildingBlock: KIFKEQ_clean_linker_1, # of connection points: 2
#     Edge 66, Type (0, 1), BuildingBlock: KIFKEQ_clean_linker_1, # of connection points: 2
#     Edge 67, Type (0, 1), BuildingBlock: KIFKEQ_clean_linker_1, # of connection points: 2
# Relax obj value: 0.383
# Max RMSD: 0.404
# Mean RMSD: 0.181
data_MOF--net-myd--node1-NAWXER_clean_sbu_0--node2-CUWYAW_clean_sbu_0--edge1-KIFKEQ_clean_linker_1
_symmetry_space_group_name_H-M    P1
_symmetry_Int_Tables_number       1
_symmetry_cell_setting            triclinic
loop_
_symmetry_equiv_pos_as_xyz
'x, y, z'
_cell_length_a     50.193705
_cell_length_b     48.618397
_cell_length_c     49.028288
_cell_angle_alpha  86.858534
_cell_angle_beta   87.827551
_cell_angle_gamma 83.886959
loop_
_atom_site_label
_atom_site_type_symbol
_atom_site_fract_x
_atom_site_fract_y
_atom_site_fract_z
_atom_type_partial_charge
C0 C 0.06964 0.29055 0.32462 0.0
C1 C 0.04418 0.35771 0.39515 0.0
O2 O 0.08547 0.30581 0.33483 0.0
Zn3 Zn 0.05783 0.32341 0.35897 0.0
O4 O 0.04469 0.29284 0.33167 0.0
Zn5 Zn 0.01709 0.31529 0.35931 0.0
O6 O 0.99377 0.33613 0.3313 0.0
O7 O 0.03501 0.3474 0.32765 0.0
O8 O 0.02384 0.34602 0.38819 0.0
O9 O 0.06692 0.35044 0.38406 0.0
O10 O 0.05004 0.2856 0.38268 0.0
O11 O 1.00683 0.28189 0.38151 0.0
C12 C 0.01111 0.35003 0.3188 0.0
C13 C 0.03014 0.27158 0.38867 0.0
C14 C 0.98499 0.78124 0.29502 0.0
C15 C 0.9977 0.70515 0.23313 0.0
O16 O 0.00956 0.7713 0.29203 0.0
Zn17 Zn 0.03277 0.73849 0.27091 0.0
O18 O 0.96667 0.76997 0.28396 0.0
Zn19 Zn 0.99115 0.74295 0.26513 0.0
O20 O 1.00423 0.71443 0.29859 0.0
O21 O 0.04792 0.71533 0.30097 0.0
O22 O 0.97647 0.72023 0.23968 0.0
O23 O 0.01998 0.70963 0.24326 0.0
O24 O 0.05629 0.76086 0.24919 0.0
O25 O 0.01366 0.77126 0.24002 0.0
C26 C 0.02638 0.70622 0.31021 0.0
C27 C 0.03817 0.77643 0.23674 0.0
C28 C 0.39269 0.03434 0.27281 0.0
C29 C 0.32427 0.02249 0.3465 0.0
O30 O 0.38443 1.01184 0.28253 0.0
Zn31 Zn 0.35984 0.02626 0.31167 0.0
O32 O 0.38456 0.05693 0.28439 0.0
Zn33 Zn 0.3572 0.07002 0.31743 0.0
O34 O 0.37884 0.08153 0.34743 0.0
O35 O 0.38408 0.03629 0.34456 0.0
O36 O 0.33085 0.04712 0.3425 0.0
O37 O 0.33565 1.00303 0.33238 0.0
O38 O 0.32952 0.05071 0.28867 0.0
O39 O 0.32923 0.09471 0.29702 0.0
C40 C 0.38893 0.05783 0.35676 0.0
C41 C 0.31931 0.07583 0.28477 0.0
C42 C 0.70363 0.56073 0.33261 0.0
C43 C 0.64254 0.56698 0.41241 0.0
O44 O 0.69817 0.54158 0.34997 0.0
Zn45 Zn 0.67128 0.56355 0.37091 0.0
O46 O 0.69157 0.58524 0.33473 0.0
Zn47 Zn 0.66178 0.60616 0.36213 0.0
O48 O 0.68203 0.63388 0.37537 0.0
O49 O 0.69557 0.59085 0.38968 0.0
O50 O 0.64302 0.59056 0.3994 0.0
O51 O 0.65493 0.54559 0.40228 0.0
O52 O 0.64065 0.57358 0.34126 0.0
O53 O 0.63308 0.61908 0.33849 0.0
C54 C 0.69756 0.61695 0.3896 0.0
C55 C 0.62818 0.59577 0.33061 0.0
C56 C 0.33647 0.39232 0.03445 0.0
C57 C 0.41319 0.32046 0.03626 0.0
O58 O 0.34716 0.37947 1.01421 0.0
Zn59 Zn 0.37861 0.36045 0.03254 0.0
O60 O 0.34888 0.39054 0.05697 0.0
Zn61 Zn 0.38436 0.36849 0.07397 0.0
O62 O 0.40819 0.39627 0.08092 0.0
O63 O 0.40607 0.39091 0.03686 0.0
O64 O 0.40966 0.33327 0.05856 0.0
O65 O 0.40036 0.33009 1.01531 0.0
O66 O 0.35842 0.33625 0.06336 0.0
O67 O 0.36671 0.34938 0.10454 0.0
C68 C 0.41561 0.40271 0.05658 0.0
C69 C 0.35542 0.33386 0.08941 0.0
C70 C 0.29359 0.81731 0.5441 0.0
C71 C 0.36936 0.7471 0.57346 0.0
O72 O 0.3043 0.80241 0.52496 0.0
Zn73 Zn 0.33533 0.7685 0.51969 0.0
O74 O 0.30225 0.81247 0.56819 0.0
Zn75 Zn 0.32983 0.78099 0.56096 0.0
O76 O 0.35887 0.80049 0.53616 0.0
O77 O 0.36024 0.78571 0.49415 0.0
O78 O 0.35423 0.76269 0.58901 0.0
O79 O 0.36381 0.74715 0.54808 0.0
O80 O 0.31536 0.73931 0.50808 0.0
O81 O 0.30609 0.74916 0.55097 0.0
C82 C 0.36893 0.80054 0.51177 0.0
C83 C 0.30217 0.73518 0.53031 0.0
C84 C 0.83393 0.88164 0.55441 0.0
C85 C 0.91113 0.8107 0.55551 0.0
O86 O 0.84438 0.87763 0.53047 0.0
Zn87 Zn 0.87918 0.85422 0.51276 0.0
O88 O 0.84651 0.87103 0.57512 0.0
Zn89 Zn 0.87622 0.85026 0.55583 0.0
O90 O 0.90299 0.88012 0.5412 0.0
O91 O 0.90231 0.88066 0.4964 0.0
O92 O 0.89911 0.82203 0.57599 0.0
O93 O 0.9061 0.82111 0.53137 0.0
O94 O 0.86041 0.83238 0.48909 0.0
O95 O 0.85437 0.82312 0.5335 0.0
C96 C 0.9112 0.88956 0.51776 0.0
C97 C 0.85004 0.81834 0.50867 0.0
C98 C 0.51129 0.8528 0.8179 0.0
C99 C 0.53039 0.77644 0.8898 0.0
O100 O 0.49423 0.83856 0.83039 0.0
Zn101 Zn 0.51778 0.81841 0.85827 0.0
O102 O 0.5352 0.85065 0.82674 0.0
Zn103 Zn 0.55836 0.82696 0.85815 0.0
O104 O 0.58611 0.80896 0.83439 0.0
O105 O 0.54557 0.79557 0.83124 0.0
O106 O 0.55018 0.79055 0.88359 0.0
O107 O 0.50735 0.78565 0.88106 0.0
O108 O 0.52442 0.84996 0.88642 0.0
O109 O 0.56763 0.85395 0.88301 0.0
C110 C 0.57052 0.79346 0.82422 0.0
C111 C 0.54477 0.86148 0.89369 0.0
C112 C 0.53055 0.20279 0.80106 0.0
C113 C 0.53954 0.27905 0.73319 0.0
O114 O 0.50781 0.21325 0.79192 0.0
Zn115 Zn 0.49342 0.24417 0.76072 0.0
O116 O 0.55197 0.21077 0.79013 0.0
Zn117 Zn 0.53542 0.23753 0.76366 0.0
O118 O 0.51427 0.26691 0.79049 0.0
O119 O 0.4709 0.27008 0.78241 0.0
O120 O 0.55804 0.26186 0.74299 0.0
O121 O 0.51506 0.27415 0.73734 0.0
O122 O 0.47629 0.22371 0.73504 0.0
O123 O 0.51991 0.21224 0.73459 0.0
C124 C 0.49019 0.27766 0.79529 0.0
C125 C 0.4967 0.20895 0.72593 0.0
C126 C 0.82003 0.57849 0.78559 0.0
C127 C 0.88633 0.55503 0.86011 0.0
O128 O 0.82998 0.59587 0.7998 0.0
Zn129 Zn 0.85579 0.56911 0.82035 0.0
O130 O 0.82854 0.55275 0.7889 0.0
Zn131 Zn 0.85585 0.52592 0.81402 0.0
O132 O 0.82931 0.50448 0.83339 0.0
O133 O 0.82709 0.54823 0.84412 0.0
O134 O 0.88028 0.534 0.84778 0.0
O135 O 0.87761 0.57916 0.85075 0.0
O136 O 0.88348 0.55416 0.78808 0.0
O137 O 0.88068 0.5094 0.7864 0.0
C138 C 0.81867 0.52433 0.84741 0.0
C139 C 0.89072 0.53107 0.77698 0.0
C140 C 0.2007 0.04056 0.8357 0.0
C141 C 0.13381 0.04832 0.91095 0.0
O142 O 0.19303 0.02111 0.85151 0.0
Zn143 Zn 0.16501 0.04337 0.87133 0.0
O144 O 0.18927 0.06528 0.83784 0.0
Zn145 Zn 0.15772 0.08657 0.86229 0.0
O146 O 0.17724 0.11315 0.87885 0.0
O147 O 0.18766 0.06949 0.89338 0.0
O148 O 0.13568 0.07156 0.89768 0.0
O149 O 0.14604 0.02631 0.90177 0.0
O150 O 0.13659 0.05463 0.84002 0.0
O151 O 0.13163 0.10021 0.83579 0.0
C152 C 0.19019 0.09534 0.89465 0.0
C153 C 0.12601 0.07708 0.82809 0.0
C154 C 0.80389 0.24006 0.03036 0.0
C155 C 0.86764 0.30702 1.00689 0.0
O156 O 0.80813 0.25465 0.05047 0.0
Zn157 Zn 0.83259 0.28646 0.05893 0.0
O158 O 0.81711 0.24316 1.00799 0.0
Zn159 Zn 0.83712 0.2727 1.01829 0.0
O160 O 0.86668 0.25253 0.04572 0.0
O161 O 0.85821 0.26911 0.08628 0.0
O162 O 0.86053 0.28937 0.99116 0.0
O163 O 0.85858 0.30781 0.03164 0.0
O164 O 0.80505 0.31713 0.06733 0.0
O165 O 0.80568 0.30667 0.02416 0.0
C166 C 0.87289 0.25311 0.07082 0.0
C167 C 0.79555 0.32165 0.04355 0.0
C168 C 0.07052 0.06549 0.19673 0.0
Eu169 Eu 0.0885 0.10165 0.16091 0.0
C170 C 0.06757 0.03558 0.19756 0.0
C171 C 0.07764 1.01915 0.17604 0.0
C172 C 0.07502 0.99067 0.17726 0.0
C173 C 0.0622 0.97808 0.19998 0.0
C174 C 0.05214 0.99476 0.22145 0.0
C175 C 0.05481 0.02319 0.22022 0.0
C176 C 0.09666 0.08595 0.10833 0.0
C177 C 0.15298 0.10448 0.16803 0.0
C178 C 0.13735 0.17193 0.08803 0.0
Eu179 Eu 0.11584 0.14065 0.12553 0.0
C180 C 0.16147 0.18639 0.08926 0.0
C181 C 0.17785 0.1813 0.11194 0.0
C182 C 0.19967 0.19634 0.11462 0.0
C183 C 0.20557 0.21677 0.09461 0.0
C184 C 0.18933 0.22158 0.07166 0.0
C185 C 0.16734 0.20654 0.06907 0.0
C186 C 0.10982 0.15697 0.17743 0.0
C187 C 0.05094 0.14771 0.12946 0.0
O188 O 0.09503 0.07219 0.19583 0.0
O189 O 0.05522 0.08128 0.18004 0.0
O190 O 0.07524 0.08288 0.12292 0.0
O191 O 0.11341 0.09596 0.12225 0.0
O192 O 0.13009 0.0977 0.17943 0.0
O193 O 0.15322 0.1184 0.14417 0.0
O194 O 0.11758 0.181 0.10439 0.0
O195 O 0.14136 0.14485 0.08883 0.0
O196 O 0.13045 0.16032 0.16152 0.0
O197 O 0.09205 0.14647 0.16499 0.0
O198 O 0.07211 0.14806 0.11249 0.0
O199 O 0.05363 0.13459 0.1537 0.0
H200 H 0.08753 0.02837 0.15832 0.0
H201 H 0.08275 0.97859 0.16024 0.0
H202 H 0.04251 0.98578 0.23944 0.0
H203 H 0.04702 0.03549 0.23708 0.0
H204 H 0.17357 0.16589 0.1278 0.0
H205 H 0.21201 0.19186 0.1323 0.0
H206 H 0.19329 0.23735 0.056 0.0
H207 H 0.15473 0.21092 0.05158 0.0
C208 C 0.89335 0.50935 0.10749 0.0
Eu209 Eu 0.94427 0.49359 0.0997 0.0
C210 C 0.87472 0.51436 0.13121 0.0
C211 C 0.87491 0.4956 0.15408 0.0
C212 C 0.85668 0.50038 0.17606 0.0
C213 C 0.83799 0.52415 0.17579 0.0
C214 C 0.8382 0.54307 0.15298 0.0
C215 C 0.85631 0.53816 0.13093 0.0
C216 C 0.97136 0.45632 0.13561 0.0
C217 C 0.98145 0.53789 0.12215 0.0
C218 C 0.05622 0.46844 0.09113 0.0
Eu219 Eu 1.00514 0.48505 0.08753 0.0
C220 C 0.08247 0.4589 0.07779 0.0
C221 C 0.09561 0.47608 0.0588 0.0
C222 C 0.12238 0.46876 0.05038 0.0
C223 C 0.13673 0.44422 0.06089 0.0
C224 C 0.12306 0.4265 0.07883 0.0
C225 C 0.09635 0.43378 0.08719 0.0
C226 C 0.98051 0.51171 0.04196 0.0
C227 C 0.96663 0.44848 0.05846 0.0
O228 O 0.91138 0.52675 0.10282 0.0
O229 O 0.90302 0.48367 0.10402 0.0
O230 O 0.9481 0.45396 0.12603 0.0
O231 O 0.97952 0.47886 0.12594 0.0
O232 O 0.95707 0.53086 0.11921 0.0
O233 O 1.00303 0.52307 0.11255 0.0
O234 O 0.03752 0.45148 0.09412 0.0
O235 O 0.04656 0.49438 0.08696 0.0
O236 O 1.00612 0.50469 0.04359 0.0
O237 O 0.97 0.50444 0.06462 0.0
O238 O 0.98948 0.44706 0.07133 0.0
O239 O 0.94747 0.46882 0.06224 0.0
H240 H 0.889 0.4771 0.15494 0.0
H241 H 0.85696 0.48517 0.19305 0.0
H242 H 0.82451 0.56185 0.1522 0.0
H243 H 0.85592 0.553 0.1136 0.0
H244 H 0.0856 0.49571 0.05128 0.0
H245 H 0.13222 0.48302 0.03667 0.0
H246 H 0.13323 0.4072 0.08699 0.0
H247 H 0.08687 0.42022 0.10197 0.0
C248 C 0.12855 0.05424 0.54594 0.0
Eu249 Eu 0.1132 0.03273 0.50224 0.0
C250 C 0.12039 0.05555 0.57502 0.0
C251 C 0.1115 0.03259 0.58995 0.0
C252 C 0.10458 0.03423 0.61777 0.0
C253 C 0.10616 0.05892 0.63101 0.0
C254 C 0.11444 0.08203 0.61577 0.0
C255 C 0.12154 0.08031 0.58805 0.0
C256 C 0.06589 1.00843 0.5045 0.0
C257 C 0.14505 0.97171 0.49414 0.0
C258 C 0.08091 0.98044 0.41461 0.0
Eu259 Eu 0.10266 1.00487 0.45293 0.0
C260 C 0.05571 0.97523 0.40233 0.0
C261 C 0.05606 0.97088 0.37434 0.0
C262 C 0.03535 0.95856 0.36319 0.0
C263 C 0.01394 0.9502 0.37993 0.0
C264 C 0.01245 0.9569 0.40754 0.0
C265 C 0.03314 0.96943 0.41863 0.0
C266 C 0.15219 0.02137 0.44992 0.0
C267 C 0.08407 0.07148 0.45664 0.0
O268 O 0.13874 0.03023 0.53746 0.0
O269 O 0.11206 0.06756 0.52867 0.0
O270 O 0.06847 0.03181 0.51481 0.0
O271 O 0.08817 0.99883 0.49511 0.0
O272 O 0.14469 0.99554 0.50595 0.0
O273 O 0.12825 0.96898 0.47448 0.0
O274 O 0.08513 0.96957 0.43919 0.0
O275 O 0.08973 1.00473 0.41054 0.0
O276 O 0.14531 0.99975 0.43889 0.0
O277 O 0.13182 0.03574 0.45984 0.0
O278 O 0.07766 0.04783 0.44751 0.0
O279 O 0.10211 0.07084 0.47546 0.0
H280 H 0.11013 1.01334 0.5802 0.0
H281 H 0.09806 1.01617 0.62895 0.0
H282 H 0.11621 0.10121 0.62547 0.0
H283 H 0.12827 0.09826 0.57684 0.0
H284 H 0.07333 0.97507 0.36144 0.0
H285 H 0.03736 0.95351 0.34192 0.0
H286 H 0.99606 0.95108 0.42087 0.0
H287 H 0.0323 0.9729 0.44025 0.0
C288 C 0.07335 0.58156 0.56834 0.0
Eu289 Eu 0.02974 0.56821 0.54719 0.0
C290 C 0.09839 0.59363 0.55984 0.0
C291 C 0.1229 0.58097 0.56946 0.0
C292 C 0.14662 0.59321 0.5637 0.0
C293 C 0.14634 0.61857 0.54832 0.0
C294 C 0.1218 0.63077 0.53798 0.0
C295 C 0.0981 0.61841 0.54362 0.0
C296 C 0.02865 0.5215 0.51893 0.0
C297 C 0.01412 0.58999 0.48724 0.0
C298 C 0.93268 0.5488 0.50986 0.0
Eu299 Eu 0.97623 0.55918 0.53254 0.0
C300 C 0.91146 0.56674 0.49593 0.0
C301 C 0.90391 0.59376 0.50427 0.0
C302 C 0.88265 0.61014 0.49202 0.0
C303 C 0.86898 0.59994 0.47094 0.0
C304 C 0.87733 0.57332 0.4619 0.0
C305 C 0.89837 0.55681 0.47439 0.0
C306 C 0.97761 0.60906 0.55559 0.0
C307 C 0.98959 0.5417 0.5927 0.0
O308 O 0.05101 0.59797 0.56694 0.0
O309 O 0.07072 0.55669 0.56073 0.0
O310 O 0.04692 0.5384 0.51581 0.0
O311 O 0.012 0.52899 0.5379 0.0
O312 O 0.03102 0.59241 0.50671 0.0
O313 O 0.99299 0.57616 0.49197 0.0
O314 O 0.93423 0.55214 0.53597 0.0
O315 O 0.95615 0.54631 0.49728 0.0
O316 O 0.95891 0.59295 0.56021 0.0
O317 O 0.99438 0.59849 0.5384 0.0
O318 O 0.97762 0.53315 0.57184 0.0
O319 O 0.00854 0.55843 0.58821 0.0
H320 H 0.12364 0.56181 0.58193 0.0
H321 H 0.16516 0.5829 0.57157 0.0
H322 H 0.12068 0.6504 0.52631 0.0
H323 H 0.07948 0.62863 0.53583 0.0
H324 H 0.91409 0.60201 0.52062 0.0
H325 H 0.87666 0.63062 0.49925 0.0
H326 H 0.86688 0.56483 0.44589 0.0
H327 H 0.90406 0.5361 0.4676 0.0
C328 C 0.38892 1.00905 0.60754 0.0
Eu329 Eu 0.44011 0.99494 0.59881 0.0
C330 C 0.37094 1.01063 0.63202 0.0
C331 C 0.38131 1.01092 0.65818 0.0
C332 C 0.36409 1.01226 0.68133 0.0
C333 C 0.33616 1.01312 0.67877 0.0
C334 C 0.32593 1.01252 0.65248 0.0
C335 C 0.34317 1.01133 0.62934 0.0
C336 C 0.4672 0.95853 0.63565 0.0
C337 C 0.47649 0.04074 0.61867 0.0
C338 C 0.55172 0.97048 0.59311 0.0
Eu339 Eu 0.50071 0.98621 0.5873 0.0
C340 C 0.57961 0.96251 0.58275 0.0
C341 C 0.59816 0.98235 0.58118 0.0
C342 C 0.62552 0.9746 0.57633 0.0
C343 C 0.63522 0.94675 0.57293 0.0
C344 C 0.61657 0.92699 0.57342 0.0
C345 C 0.58911 0.93474 0.57848 0.0
C346 C 0.47733 1.01289 0.54124 0.0
C347 C 0.4623 0.94937 0.55811 0.0
O348 O 0.40678 0.02682 0.60518 0.0
O349 O 0.39891 0.98418 0.60133 0.0
O350 O 0.44412 0.95577 0.62603 0.0
O351 O 0.47509 0.98098 0.62563 0.0
O352 O 0.45215 0.03481 0.61375 0.0
O353 O 0.49804 0.02406 0.61237 0.0
O354 O 0.5335 0.95294 0.59349 0.0
O355 O 0.54166 0.99635 0.58945 0.0
O356 O 0.50287 1.00596 0.54365 0.0
O357 O 0.46589 1.00569 0.56349 0.0
O358 O 0.48516 0.94818 0.571 0.0
O359 O 0.44328 0.96993 0.56159 0.0
H360 H 0.40275 1.01009 0.66069 0.0
H361 H 0.37266 1.01235 0.70126 0.0
H362 H 0.30454 1.01347 0.64974 0.0
H363 H 0.3348 1.01101 0.60932 0.0
H364 H 0.59169 1.00386 0.58477 0.0
H365 H 0.63919 0.99044 0.5757 0.0
H366 H 0.62334 0.90532 0.57108 0.0
H367 H 0.57551 0.91883 0.58003 0.0
C368 C 0.57495 0.56946 0.70041 0.0
Eu369 Eu 0.59059 0.60542 0.66311 0.0
C370 C 0.57237 0.53914 0.70171 0.0
C371 C 0.59486 0.51962 0.70575 0.0
C372 C 0.59234 0.49115 0.70675 0.0
C373 C 0.56726 0.48136 0.70379 0.0
C374 C 0.54474 0.50089 0.69995 0.0
C375 C 0.54725 0.52938 0.69903 0.0
C376 C 0.60005 0.58587 0.61205 0.0
C377 C 0.65461 0.61191 0.66873 0.0
C378 C 0.63405 0.66706 0.57815 0.0
Eu379 Eu 0.61685 0.64259 0.62317 0.0
C380 C 0.65761 0.67964 0.56592 0.0
C381 C 0.66326 0.70599 0.57295 0.0
C382 C 0.68445 0.71846 0.55993 0.0
C383 C 0.70047 0.70493 0.53953 0.0
C384 C 0.69499 0.67847 0.53265 0.0
C385 C 0.67366 0.66603 0.5456 0.0
C386 C 0.61087 0.66393 0.67272 0.0
C387 C 0.55114 0.64851 0.63044 0.0
O388 O 0.59917 0.57704 0.69849 0.0
O389 O 0.55842 0.58532 0.68491 0.0
O390 O 0.57816 0.58371 0.62616 0.0
O391 O 0.61577 0.59762 0.62553 0.0
O392 O 0.63176 0.60656 0.68135 0.0
O393 O 0.65481 0.6228 0.64334 0.0
O394 O 0.62016 0.68011 0.59753 0.0
O395 O 0.6364 0.64015 0.58269 0.0
O396 O 0.63088 0.66749 0.65576 0.0
O397 O 0.59347 0.65097 0.66221 0.0
O398 O 0.57198 0.64895 0.61293 0.0
O399 O 0.55453 0.63642 0.65505 0.0
H400 H 0.61453 0.52628 0.70804 0.0
H401 H 0.61018 0.47679 0.70948 0.0
H402 H 0.52503 0.49418 0.69806 0.0
H403 H 0.52946 0.54381 0.69621 0.0
H404 H 0.65121 0.71717 0.58837 0.0
H405 H 0.68844 0.73867 0.56603 0.0
H406 H 0.70689 0.6676 0.51691 0.0
H407 H 0.66951 0.64587 0.53947 0.0
C408 C 0.63922 0.55872 0.05598 0.0
Eu409 Eu 0.6188 0.54033 1.01331 0.0
C410 C 0.62882 0.57024 0.08178 0.0
C411 C 0.60228 0.56773 0.09086 0.0
C412 C 0.59361 0.57525 0.1171 0.0
C413 C 0.61134 0.58548 0.13463 0.0
C414 C 0.63758 0.58905 0.12492 0.0
C415 C 0.64623 0.58144 0.09873 0.0
C416 C 0.57019 0.51935 1.02044 0.0
C417 C 0.64827 0.47922 1.00108 0.0
C418 C 0.57454 0.48261 0.93726 0.0
Eu419 Eu 0.60044 0.51357 0.96591 0.0
C420 C 0.55788 0.47637 0.91478 0.0
C421 C 0.56875 0.47269 0.88828 0.0
C422 C 0.55507 0.45921 0.86952 0.0
C423 C 0.53058 0.44878 0.87717 0.0
C424 C 0.51859 0.45506 0.90275 0.0
C425 C 0.53213 0.46871 0.92135 0.0
C426 C 0.64255 0.54234 0.95112 0.0
C427 C 0.58588 0.58009 0.97006 0.0
O428 O 0.63558 0.5328 0.05345 0.0
O429 O 0.63441 0.57402 0.03354 0.0
O430 O 0.57441 0.54332 0.02847 0.0
O431 O 0.59124 0.50849 1.00952 0.0
O432 O 0.64939 0.50243 1.01362 0.0
O433 O 0.62994 0.47767 0.98254 0.0
O434 O 0.56327 0.49741 0.95692 0.0
O435 O 0.60012 0.48527 0.9329 0.0
O436 O 0.62202 0.54075 0.93606 0.0
O437 O 0.63961 0.52883 0.97367 0.0
O438 O 0.57678 0.55707 0.96235 0.0
O439 O 0.60594 0.57837 0.98687 0.0
H440 H 0.58856 0.55906 0.07802 0.0
H441 H 0.57324 0.57251 0.12389 0.0
H442 H 0.65186 0.5965 0.13803 0.0
H443 H 0.66683 0.58332 0.09209 0.0
H444 H 0.58854 0.47849 0.88263 0.0
H445 H 0.56457 0.45523 0.84972 0.0
H446 H 0.4999 0.44723 0.90948 0.0
H447 H 0.52337 0.47114 0.94174 0.0
C448 C 0.57265 0.08935 0.06465 0.0
Eu449 Eu 0.53066 0.07486 0.04139 0.0
C450 C 0.59665 0.10364 0.05728 0.0
C451 C 0.62194 0.09112 0.06491 0.0
C452 C 0.64487 0.10476 0.05942 0.0
C453 C 0.64292 0.13134 0.04636 0.0
C454 C 0.61761 0.14365 0.03825 0.0
C455 C 0.5947 0.1299 0.04355 0.0
C456 C 0.53192 0.02644 1.01529 0.0
C457 C 0.52254 0.08954 0.97907 0.0
C458 C 0.43778 0.0551 0.99463 0.0
Eu459 Eu 0.47908 0.06574 0.02129 0.0
C460 C 0.40913 0.06558 0.99405 0.0
C461 C 0.40011 0.08435 0.97276 0.0
C462 C 0.37313 0.09432 0.97143 0.0
C463 C 0.35448 0.0855 0.99119 0.0
C464 C 0.36347 0.06695 1.01272 0.0
C465 C 0.3906 0.0571 1.01418 0.0
C466 C 0.4787 0.11711 0.04157 0.0
C467 C 0.48488 0.05359 0.08493 0.0
O468 O 0.54939 0.10427 0.06439 0.0
O469 O 0.57179 0.06507 0.05481 0.0
O470 O 0.55055 0.043 1.01322 0.0
O471 O 0.51355 0.03542 0.03197 0.0
O472 O 0.53356 0.09821 1.00058 0.0
O473 O 0.50474 0.07142 0.98248 0.0
O474 O 0.44633 0.04038 1.01628 0.0
O475 O 0.45441 0.07263 0.98569 0.0
O476 O 0.45947 0.10146 0.04528 0.0
O477 O 0.49713 0.10509 0.02703 0.0
O478 O 0.47146 0.04775 0.0638 0.0
O479 O 0.50712 0.06585 0.08124 0.0
H480 H 0.62392 0.07091 0.07556 0.0
H481 H 0.66402 0.09485 0.06615 0.0
H482 H 0.61552 0.16398 0.02788 0.0
H483 H 0.57548 0.13998 0.0372 0.0
H484 H 0.41389 0.09106 0.95683 0.0
H485 H 0.36671 0.10807 0.95424 0.0
H486 H 0.34945 0.05977 0.02816 0.0
H487 H 0.39695 0.04264 0.03085 0.0
H488 H 0.07456 0.2358 0.37871 0.0
H489 H 0.99807 0.23947 0.42222 0.0
H490 H 0.08405 0.18705 0.39372 0.0
H491 H 0.00828 0.19058 0.43835 0.0
H492 H 0.06778 0.11645 0.48628 0.0
H493 H 0.05198 0.16375 0.46996 0.0
H494 H 0.05822 0.13827 0.38699 0.0
H495 H 0.07293 0.09039 0.40347 0.0
C496 C 0.05983 0.22634 0.39179 0.0
C497 C 0.0356 0.24193 0.39945 0.0
C498 C 0.06523 0.19821 0.40019 0.0
C499 C 0.04695 0.18472 0.41718 0.0
C500 C 0.02281 0.20026 0.42521 0.0
C501 C 0.01698 0.22833 0.41604 0.0
C502 C 0.06526 0.12073 0.46456 0.0
C503 C 0.07147 0.0994 0.44625 0.0
C504 C 0.05615 0.14792 0.45523 0.0
C505 C 0.05377 0.15495 0.42715 0.0
C506 C 0.05972 0.1336 0.40876 0.0
C507 C 0.06803 0.1061 0.41821 0.0
H508 H 0.07713 0.39819 0.39996 0.0
H509 H 1.00416 0.36947 0.43442 0.0
H510 H 0.07221 0.43643 0.42992 0.0
H511 H 0.99996 0.40688 0.46619 0.0
H512 H 0.9872 0.49227 0.50497 0.0
H513 H 0.99006 0.4527 0.4757 0.0
H514 H 0.07645 0.45143 0.47169 0.0
H515 H 0.07306 0.49186 0.49881 0.0
C516 C 0.06021 0.39974 0.41438 0.0
C517 C 0.04117 0.38051 0.41477 0.0
C518 C 0.05743 0.42175 0.43197 0.0
C519 C 0.03584 0.42504 0.45126 0.0
C520 C 0.01675 0.40562 0.45166 0.0
C521 C 0.01924 0.38388 0.43351 0.0
C522 C 1.00673 0.48334 0.49781 0.0
C523 C 0.02987 0.49537 0.50406 0.0
C524 C 0.00849 0.46047 0.48103 0.0
C525 C 0.03353 0.44863 0.47052 0.0
C526 C 0.05664 0.46015 0.47813 0.0
C527 C 0.05478 0.48331 0.49416 0.0
H528 H 1.00376 0.81478 0.20935 0.0
H529 H 0.08563 0.80003 0.2351 0.0
H530 H 0.01023 0.86281 0.19688 0.0
H531 H 0.09195 0.84831 0.22302 0.0
H532 H 0.09899 0.93523 0.18448 0.0
H533 H 0.09434 0.88561 0.18793 0.0
H534 H 0.0145 0.90263 0.22316 0.0
H535 H 0.01877 0.95206 0.21881 0.0
C536 C 0.02333 0.82159 0.21185 0.0
C537 C 0.04412 0.80346 0.22341 0.0
C538 C 0.02695 0.84929 0.20497 0.0
C539 C 0.05145 0.85967 0.20942 0.0
C540 C 0.07282 0.84108 0.21922 0.0
C541 C 0.0692 0.81331 0.22613 0.0
C542 C 0.0803 0.9284 0.1926 0.0
C543 C 0.05928 0.94775 0.20142 0.0
C544 C 0.07774 0.8999 0.19481 0.0
C545 C 0.05402 0.89002 0.20575 0.0
C546 C 0.03292 0.90941 0.21424 0.0
C547 C 0.0355 0.93783 0.2121 0.0
H548 H 0.03637 0.66226 0.2233 0.0
H549 H 0.95612 0.69512 0.20191 0.0
H550 H 0.03294 0.62233 0.19609 0.0
H551 H 0.95301 0.65588 0.17389 0.0
H552 H 0.94316 0.56802 0.15251 0.0
H553 H 0.94791 0.60838 0.17822 0.0
H554 H 0.03122 0.60567 0.15171 0.0
H555 H 0.02665 0.56447 0.12671 0.0
C556 C 0.01812 0.66116 0.21248 0.0
C557 C 0.99646 0.68185 0.21495 0.0
C558 C 0.01618 0.63828 0.19673 0.0
C559 C 0.99261 0.6356 0.18283 0.0
C560 C 0.97127 0.65678 0.18474 0.0
C561 C 0.97311 0.67947 0.20068 0.0
C562 C 0.96252 0.576 0.15208 0.0
C563 C 0.98452 0.5629 0.13747 0.0
C564 C 0.96522 0.59938 0.16674 0.0
C565 C 0.98993 0.61059 0.16702 0.0
C566 C 0.01195 0.59751 0.15232 0.0
C567 C 0.0093 0.57392 0.13782 0.0
H568 H 0.40538 0.99293 0.23688 0.0
H569 H 0.41762 0.07782 0.24936 0.0
H570 H 0.42917 0.99585 0.1925 0.0
H571 H 0.44127 0.08074 0.20506 0.0
H572 H 0.50207 0.07035 0.13338 0.0
H573 H 0.4821 0.06421 0.17924 0.0
H574 H 0.42216 1.01871 0.14691 0.0
H575 H 0.44216 0.02475 0.10106 0.0
C576 C 0.41338 1.01213 0.23036 0.0
C577 C 0.40951 0.03511 0.2469 0.0
C578 C 0.42686 1.01389 0.20472 0.0
C579 C 0.43714 0.03858 0.19495 0.0
C580 C 0.43393 0.06128 0.21187 0.0
C581 C 0.42023 0.05962 0.23735 0.0
C582 C 0.48478 0.05881 0.13601 0.0
C583 C 0.47382 0.04807 0.11331 0.0
C584 C 0.47317 0.05545 0.16238 0.0
C585 C 0.45038 0.04102 0.16697 0.0
C586 C 0.43982 0.0297 0.14436 0.0
C587 C 0.45127 0.03329 0.11794 0.0
H588 H 0.60093 0.63872 0.30137 0.0
H589 H 0.6212 0.55001 0.30284 0.0
H590 H 0.58725 0.6382 0.25425 0.0
H591 H 0.60821 0.54961 0.25571 0.0
H592 H 0.58337 0.55295 0.17012 0.0
H593 H 0.57665 0.55688 0.21935 0.0
H594 H 0.61618 0.63182 0.21403 0.0
H595 H 0.62193 0.62844 0.16483 0.0
C596 C 0.6018 0.61901 0.29192 0.0
C597 C 0.61271 0.59448 0.30568 0.0
C598 C 0.59413 0.61875 0.26484 0.0
C599 C 0.59726 0.59399 0.25099 0.0
C600 C 0.60548 0.56908 0.26571 0.0
C601 C 0.61305 0.56931 0.29281 0.0
C602 C 0.58988 0.57072 0.17936 0.0
C603 C 0.60347 0.59024 0.16363 0.0
C604 C 0.58623 0.57283 0.20762 0.0
C605 C 0.59607 0.59451 0.22071 0.0
C606 C 0.60809 0.61499 0.20466 0.0
C607 C 0.61173 0.61287 0.17646 0.0
H608 H 0.38469 0.09125 0.40101 0.0
H609 H 0.426 1.01514 0.37298 0.0
H610 H 0.40516 0.08174 0.44583 0.0
H611 H 0.44686 1.00605 0.41728 0.0
H612 H 0.50088 1.01426 0.49024 0.0
H613 H 0.48039 0.02648 0.44622 0.0
H614 H 0.40355 0.0448 0.48722 0.0
H615 H 0.42412 0.03179 0.53161 0.0
C616 C 0.3985 0.07276 0.40416 0.0
C617 C 0.40381 0.05414 0.38307 0.0
C618 C 0.41003 0.06714 0.43003 0.0
C619 C 0.42772 0.04305 0.43539 0.0
C620 C 0.43352 0.02487 0.41403 0.0
C621 C 0.42154 0.03014 0.38849 0.0
C622 C 0.47961 0.02099 0.49001 0.0
C623 C 0.46424 0.02202 0.51466 0.0
C624 C 0.46781 0.02791 0.46464 0.0
C625 C 0.44023 0.03668 0.46292 0.0
C626 C 0.42486 0.03835 0.48764 0.0
C627 C 0.43664 0.03082 0.51313 0.0
H628 H 0.65536 0.52746 0.45279 0.0
H629 H 0.60517 0.604 0.43644 0.0
H630 H 0.64329 0.52963 0.50148 0.0
H631 H 0.59261 0.60565 0.48516 0.0
H632 H 0.56207 0.58119 0.57471 0.0
H633 H 0.56928 0.57398 0.52566 0.0
H634 H 0.65479 0.56931 0.53509 0.0
H635 H 0.6476 0.57725 0.58386 0.0
C636 C 0.64119 0.54434 0.45945 0.0
C637 C 0.63124 0.5656 0.44076 0.0
C638 C 0.63446 0.54564 0.48733 0.0
C639 C 0.61716 0.56787 0.49698 0.0
C640 C 0.60591 0.58825 0.47816 0.0
C641 C 0.61311 0.58729 0.45033 0.0
C642 C 0.58238 0.57841 0.56628 0.0
C643 C 0.60431 0.57976 0.58297 0.0
C644 C 0.58647 0.57439 0.53829 0.0
C645 C 0.61257 0.57097 0.52673 0.0
C646 C 0.63448 0.57164 0.5436 0.0
C647 C 0.63038 0.57627 0.57141 0.0
H648 H 0.31015 0.42449 0.07293 0.0
H649 H 0.29837 0.38934 0.99584 0.0
H650 H 0.26235 0.43878 0.07737 0.0
H651 H 0.25014 0.40348 1.0005 0.0
H652 H 0.16492 0.4512 1.01186 0.0
H653 H 0.2134 0.44211 1.00299 0.0
H654 H 0.2235 0.41381 0.08733 0.0
H655 H 0.17558 0.42347 0.09629 0.0
C656 C 0.29743 0.42014 0.05667 0.0
C657 C 0.30824 0.40555 0.03409 0.0
C658 C 0.26989 0.42815 0.05936 0.0
C659 C 0.2522 0.42182 0.03959 0.0
C660 C 0.26313 0.40873 1.01613 0.0
C661 C 0.29083 0.40065 1.01343 0.0
C662 C 0.17754 0.44316 0.02852 0.0
C663 C 0.16619 0.438 0.05479 0.0
C664 C 0.20532 0.43777 0.02338 0.0
C665 C 0.2225 0.42741 0.04447 0.0
C666 C 0.21106 0.42218 0.07065 0.0
C667 C 0.18341 0.42737 0.07572 0.0
H668 H 0.27022 0.72335 0.57468 0.0
H669 H 0.28658 0.70279 0.49064 0.0
H670 H 0.23416 0.69376 0.57792 0.0
H671 H 0.25063 0.67237 0.49413 0.0
H672 H 0.16336 0.64844 0.50276 0.0
H673 H 0.20213 0.67483 0.49794 0.0
H674 H 0.22503 0.64661 0.57965 0.0
H675 H 0.18566 0.62154 0.585 0.0
C676 C 0.26636 0.71225 0.55693 0.0
C677 C 0.28137 0.71551 0.53238 0.0
C678 C 0.2457 0.69507 0.55886 0.0
C679 C 0.23946 0.68053 0.53632 0.0
C680 C 0.25469 0.68348 0.51181 0.0
C681 C 0.27542 0.70077 0.50986 0.0
C682 C 0.17659 0.64797 0.51975 0.0
C683 C 0.17118 0.63292 0.54433 0.0
C684 C 0.19905 0.66284 0.51685 0.0
C685 C 0.2167 0.66303 0.53846 0.0
C686 C 0.21169 0.64733 0.56271 0.0
C687 C 0.18923 0.63258 0.56565 0.0
H688 H 0.9282 0.92007 0.55812 0.0
H689 H 0.94126 0.90427 0.47257 0.0
H690 H 0.96414 0.95063 0.55498 0.0
H691 H 0.97725 0.93447 0.46961 0.0
H692 H 0.01596 0.02378 0.52783 0.0
H693 H 0.97705 0.99676 0.53116 0.0
H694 H 0.02339 0.93056 0.48991 0.0
H695 H 0.06205 0.95695 0.48729 0.0
C696 C 0.93859 0.92323 0.53862 0.0
C697 C 0.93184 0.90958 0.51563 0.0
C698 C 0.95908 0.94087 0.5368 0.0
C699 C 0.97364 0.9449 0.51208 0.0
C700 C 0.96658 0.93164 0.48901 0.0
C701 C 0.94584 0.9144 0.4907 0.0
C702 C 0.01775 1.00344 0.51954 0.0
C703 C 0.04201 0.99267 0.507 0.0
C704 C 0.99553 0.98796 0.52149 0.0
C705 C 0.99704 0.9616 0.51055 0.0
C706 C 0.02137 0.95092 0.49817 0.0
C707 C 0.04358 0.96611 0.49667 0.0
H708 H 0.39145 0.7447 0.62468 0.0
H709 H 0.40531 0.71262 0.54445 0.0
H710 H 0.43467 0.72096 0.63875 0.0
H711 H 0.44799 0.68872 0.55851 0.0
H712 H 0.53609 0.67422 0.58112 0.0
H713 H 0.49234 0.69714 0.56857 0.0
H714 H 0.46046 0.67708 0.64938 0.0
H715 H 0.50443 0.65452 0.66205 0.0
C716 C 0.40348 0.73235 0.61011 0.0
C717 C 0.39463 0.73073 0.58337 0.0
C718 C 0.42837 0.71862 0.61821 0.0
C719 C 0.44527 0.70293 0.59978 0.0
C720 C 0.43604 0.70093 0.57325 0.0
C721 C 0.41125 0.71454 0.56521 0.0
C722 C 0.5198 0.67463 0.59627 0.0
C723 C 0.52404 0.66234 0.62264 0.0
C724 C 0.49449 0.6877 0.589 0.0
C725 C 0.47247 0.68904 0.60784 0.0
C726 C 0.47678 0.67685 0.63429 0.0
C727 C 0.5021 0.66368 0.64153 0.0
H728 H 0.4968 0.7345 0.89814 0.0
H729 H 0.57676 0.75357 0.91324 0.0
H730 H 0.50801 0.68728 0.91782 0.0
H731 H 0.58803 0.70683 0.93216 0.0
H732 H 0.59679 0.63005 0.98737 0.0
H733 H 0.58139 0.67638 0.97004 0.0
H734 H 0.53409 0.64246 0.91096 0.0
H735 H 0.5493 0.59541 0.92898 0.0
C736 C 0.51665 0.72883 0.90591 0.0
C737 C 0.53571 0.74826 0.90424 0.0
C738 C 0.52322 0.70152 0.91695 0.0
C739 C 0.54901 0.69282 0.92684 0.0
C740 C 0.56782 0.71248 0.92536 0.0
C741 C 0.56132 0.73955 0.91432 0.0
C742 C 0.58304 0.6322 0.97071 0.0
C743 C 0.57457 0.60857 0.95957 0.0
C744 C 0.57426 0.65907 0.96056 0.0
C745 C 0.55667 0.66365 0.93865 0.0
C746 C 0.54751 0.64006 0.92789 0.0
C747 C 0.55633 0.61294 0.93818 0.0
H748 H 0.58445 0.8841 0.91874 0.0
H749 H 0.49834 0.89006 0.91402 0.0
H750 H 0.58039 0.92201 0.94939 0.0
H751 H 0.49419 0.92895 0.94415 0.0
H752 H 0.49603 0.98668 1.01657 0.0
H753 H 0.49831 0.94575 0.9889 0.0
H754 H 0.57072 0.97001 0.9483 0.0
H755 H 0.56883 1.00977 0.97628 0.0
C756 C 0.56457 0.89356 0.92417 0.0
C757 C 0.54176 0.88398 0.91364 0.0
C758 C 0.56221 0.91559 0.9417 0.0
C759 C 0.53694 0.92913 0.94915 0.0
C760 C 0.51401 0.9191 0.93916 0.0
C761 C 0.51639 0.8968 0.92171 0.0
C762 C 0.51248 0.98304 1.00182 0.0
C763 C 0.5324 1.00138 0.99889 0.0
C764 C 0.51373 0.95966 0.98578 0.0
C765 C 0.53491 0.95411 0.96637 0.0
C766 C 0.55448 0.97287 0.96337 0.0
C767 C 0.55329 0.99596 0.97939 0.0
H768 H 0.58825 0.30024 0.72816 0.0
H769 H 0.50404 0.32151 0.71365 0.0
H770 H 0.59624 0.34847 0.71804 0.0
H771 H 0.51189 0.36963 0.70422 0.0
H772 H 0.5365 0.45297 0.6722 0.0
H773 H 0.53152 0.40351 0.67476 0.0
H774 H 0.58689 0.39134 0.74073 0.0
H775 H 0.59195 0.44068 0.73806 0.0
C776 C 0.57151 0.31505 0.72232 0.0
C777 C 0.54548 0.30687 0.7218 0.0
C778 C 0.57604 0.34283 0.71684 0.0
C779 C 0.55467 0.36316 0.71067 0.0
C780 C 0.52891 0.35465 0.70868 0.0
C781 C 0.52439 0.32693 0.71414 0.0
C782 C 0.54754 0.43977 0.68733 0.0
C783 C 0.56459 0.45095 0.70496 0.0
C784 C 0.54471 0.41133 0.68877 0.0
C785 C 0.55883 0.39325 0.70792 0.0
C786 C 0.57609 0.40442 0.72535 0.0
C787 C 0.57894 0.43283 0.72387 0.0
H788 H 0.4508 0.18649 0.71537 0.0
H789 H 0.53549 0.18052 0.69455 0.0
H790 H 0.44616 0.14682 0.68854 0.0
H791 H 0.53072 0.14165 0.66642 0.0
H792 H 0.51995 0.05329 0.64567 0.0
H793 H 0.52464 0.0948 0.66978 0.0
H794 H 0.44538 0.1289 0.6457 0.0
H795 H 0.44027 0.08667 0.62281 0.0
C796 C 0.46837 0.17703 0.70459 0.0
C797 C 0.49354 0.18663 0.7072 0.0
C798 C 0.4657 0.15427 0.68901 0.0
C799 C 0.48807 0.14071 0.67525 0.0
C800 C 0.5131 0.15102 0.67716 0.0
C801 C 0.51584 0.17352 0.6931 0.0
C802 C 0.50355 0.06969 0.64547 0.0
C803 C 0.47969 0.06658 0.63241 0.0
C804 C 0.5063 0.09369 0.65917 0.0
C805 C 0.48542 0.11546 0.65981 0.0
C806 C 0.46173 0.11248 0.64622 0.0
C807 C 0.45883 0.08828 0.6329 0.0
H808 H 0.90589 0.48717 0.74462 0.0
H809 H 0.91626 0.57342 0.7521 0.0
H810 H 0.93224 0.48721 0.70167 0.0
H811 H 0.94223 0.57356 0.70908 0.0
H812 H 1.00486 0.56159 0.64049 0.0
H813 H 0.98374 0.55711 0.68595 0.0
H814 H 0.92813 0.50549 0.6549 0.0
H815 H 0.94948 0.50965 0.60955 0.0
C816 C 0.91396 0.5061 0.73728 0.0
C817 C 0.90884 0.5303 0.75199 0.0
C818 C 0.92894 0.50618 0.71246 0.0
C819 C 0.9394 0.53041 0.70164 0.0
C820 C 0.93486 0.55439 0.71677 0.0
C821 C 0.9198 0.55434 0.7415 0.0
C822 C 0.9884 0.54892 0.64339 0.0
C823 C 0.97895 0.53601 0.62116 0.0
C824 C 0.97608 0.54656 0.66951 0.0
C825 C 0.95398 0.53112 0.67427 0.0
C826 C 0.9452 0.51736 0.65224 0.0
C827 C 0.95745 0.51982 0.6261 0.0
H828 H 0.10669 0.03195 0.80806 0.0
H829 H 0.11402 0.11877 0.78949 0.0
H830 H 0.09398 0.02695 0.76126 0.0
H831 H 0.10243 0.11359 0.74258 0.0
H832 H 0.07724 0.10022 0.65868 0.0
H833 H 0.07314 0.10457 0.7081 0.0
H834 H 0.12012 0.02524 0.72001 0.0
H835 H 0.12357 0.02074 0.67089 0.0
C836 C 0.10505 0.05011 0.79415 0.0
C837 C 0.11177 0.07566 0.80239 0.0
C838 C 0.098 0.04719 0.76723 0.0
C839 C 0.09782 0.06968 0.74789 0.0
C840 C 0.10224 0.09579 0.75683 0.0
C841 C 0.10899 0.09877 0.78383 0.0
C842 C 0.08638 0.08361 0.67197 0.0
C843 C 0.10087 0.06022 0.66093 0.0
C844 C 0.08407 0.08609 0.70027 0.0
C845 C 0.09641 0.06535 0.71815 0.0
C846 C 0.10991 0.04143 0.70702 0.0
C847 C 0.11201 0.03887 0.67878 0.0
H848 H 0.92072 0.51005 0.87681 0.0
H849 H 0.88561 0.58932 0.90343 0.0
H850 H 0.9429 0.50089 0.92048 0.0
H851 H 0.9073 0.57974 0.9476 0.0
H852 H 0.92731 0.53178 0.03412 0.0
H853 H 0.90507 0.5438 0.99041 0.0
H854 H 0.97957 0.52095 0.94668 0.0
H855 H 1.00178 0.50983 0.99001 0.0
C856 C 0.91781 0.52565 0.8919 0.0
C857 C 0.90148 0.55059 0.88625 0.0
C858 C 0.93056 0.52035 0.91704 0.0
C859 C 0.92691 0.53948 0.9378 0.0
C860 C 0.9105 0.56442 0.93226 0.0
C861 C 0.89824 0.57003 0.90677 0.0
C862 C 0.93896 0.52959 1.01517 0.0
C863 C 0.96643 0.51995 1.01573 0.0
C864 C 0.92623 0.53653 0.99008 0.0
C865 C 0.94045 0.53335 0.96483 0.0
C866 C 0.96786 0.52357 0.96555 0.0
C867 C 0.98066 0.51729 0.99052 0.0
H868 H 0.09469 0.08517 0.93227 0.0
H869 H 0.14939 1.01338 0.95414 0.0
H870 H 0.08418 0.09209 0.98078 0.0
H871 H 0.13943 0.02086 1.0026 0.0
H872 H 0.14388 0.07799 0.07861 0.0
H873 H 0.14995 0.06509 0.03086 0.0
H874 H 0.06442 0.06454 0.02541 0.0
H875 H 0.05839 0.07662 0.07327 0.0
C876 C 0.10393 0.07047 0.94741 0.0
C877 C 0.1227 0.04861 0.93937 0.0
C878 C 0.09802 0.07452 0.97513 0.0
C879 C 0.11125 0.05718 0.99535 0.0
C880 C 0.12912 0.03461 0.98737 0.0
C881 C 0.13454 0.03016 0.95964 0.0
C882 C 0.12644 0.07492 0.06723 0.0
C883 C 0.1007 0.07821 0.07961 0.0
C884 C 0.1299 0.06742 0.04003 0.0
C885 C 0.10763 0.06369 0.02457 0.0
C886 C 0.08189 0.06724 0.0369 0.0
C887 C 0.07849 0.07411 0.06425 0.0
H888 H 0.7993 0.89926 0.51375 0.0
H889 H 0.80457 0.8938 0.60165 0.0
H890 H 0.75186 0.91576 0.5182 0.0
H891 H 0.7569 0.91031 0.60605 0.0
H892 H 0.67552 0.96439 0.60159 0.0
H893 H 0.72371 0.951 0.59709 0.0
H894 H 0.7101 0.89617 0.53387 0.0
H895 H 0.66187 0.90991 0.53807 0.0
C896 C 0.79047 0.90191 0.53407 0.0
C897 C 0.80592 0.89517 0.55736 0.0
C898 C 0.76312 0.91113 0.53659 0.0
C899 C 0.75041 0.91412 0.56247 0.0
C900 C 0.76603 0.90838 0.58578 0.0
C901 C 0.7934 0.8989 0.58326 0.0
C902 C 0.6828 0.94966 0.58654 0.0
C903 C 0.66473 0.93836 0.57008 0.0
C904 C 0.71045 0.94178 0.58416 0.0
C905 C 0.72089 0.92255 0.56507 0.0
C906 C 0.70284 0.91127 0.54857 0.0
C907 C 0.67513 0.91895 0.55115 0.0
H908 H 0.76842 0.23413 0.07323 0.0
H909 H 0.78982 0.20437 0.99302 0.0
H910 H 0.73021 0.20714 0.07613 0.0
H911 H 0.75131 0.17722 0.99605 0.0
H912 H 0.69323 0.11191 0.02759 0.0
H913 H 0.73329 0.13678 0.02347 0.0
H914 H 0.68685 0.21012 0.05205 0.0
H915 H 0.64704 0.18529 0.05647 0.0
C916 C 0.76514 0.22165 0.05628 0.0
C917 C 0.78218 0.22153 0.03283 0.0
C918 C 0.74309 0.20633 0.05789 0.0
C919 C 0.73759 0.19031 0.03621 0.0
C920 C 0.7551 0.18935 1.01311 0.0
C921 C 0.77711 0.20493 1.01137 0.0
C922 C 0.69164 0.13335 0.03298 0.0
C923 C 0.66699 0.14664 0.04238 0.0
C924 C 0.7145 0.14761 0.03044 0.0
C925 C 0.71323 0.17533 0.0376 0.0
C926 C 0.68852 0.18868 0.04667 0.0
C927 C 0.66565 0.17454 0.04894 0.0
H928 H 0.44117 0.41508 1.00783 0.0
H929 H 0.43629 0.43582 0.09254 0.0
H930 H 0.47654 0.44544 0.999 0.0
H931 H 0.4718 0.46633 0.08358 0.0
H932 H 0.56284 0.46809 1.00516 0.0
H933 H 0.52396 0.44266 1.01321 0.0
H934 H 0.48365 0.51062 0.05693 0.0
H935 H 0.52289 0.53668 0.04825 0.0
C936 C 0.44745 0.42627 0.02456 0.0
C937 C 0.43593 0.42277 0.05096 0.0
C938 C 0.46783 0.44363 1.01949 0.0
C939 C 0.47714 0.45822 0.04061 0.0
C940 C 0.46499 0.45554 0.06682 0.0
C941 C 0.44475 0.4379 0.07198 0.0
C942 C 0.54559 0.4779 1.01618 0.0
C943 C 0.54586 0.50462 0.02574 0.0
C944 C 0.52324 0.46325 1.02078 0.0
C945 C 0.50055 0.47463 0.03552 0.0
C946 C 0.50084 0.50126 0.04551 0.0
C947 C 0.52322 0.51621 0.04049 0.0
H948 H 0.90855 0.21846 0.0417 0.0
H949 H 0.89456 0.24983 0.12222 0.0
H950 H 0.95038 0.19297 0.05622 0.0
H951 H 0.93691 0.22447 0.13675 0.0
H952 H 1.00376 0.15463 0.16025 0.0
H953 H 0.9607 0.17917 0.14707 0.0
H954 H 0.99497 0.19991 0.06747 0.0
H955 H 0.03775 0.1751 0.08049 0.0
C956 C 0.91431 0.21993 0.0626 0.0
C957 C 0.89792 0.23637 0.08072 0.0
C958 C 0.93859 0.20539 0.0709 0.0
C959 C 0.94746 0.20666 0.09768 0.0
C960 C 0.93082 0.22269 0.11603 0.0
C961 C 0.90648 0.23737 0.10766 0.0
C962 C 1.00213 0.16437 0.13989 0.0
C963 C 0.02442 0.16268 0.12146 0.0
C964 C 0.97737 0.17867 0.13237 0.0
C965 C 0.97403 0.19162 0.10609 0.0
C966 C 0.9964 0.18992 0.08773 0.0
C967 C 0.02114 0.17575 0.09528 0.0
H968 H 0.04997 0.24147 0.32241 0.0
H969 H 0.11079 0.28961 0.28589 0.0
H970 H 0.0614 0.20609 0.2897 0.0
H971 H 0.12185 0.2543 0.2522 0.0
H972 H 0.1473 0.1767 0.20682 0.0
H973 H 0.14009 0.20693 0.24505 0.0
H974 H 0.05465 0.20256 0.24197 0.0
H975 H 0.06207 0.17169 0.20415 0.0
C976 C 0.06584 0.24445 0.30726 0.0
C977 C 0.07926 0.26844 0.30629 0.0
C978 C 0.0723 0.22422 0.28847 0.0
C979 C 0.09216 0.2276 0.26805 0.0
C980 C 0.1065 0.25104 0.26781 0.0
C981 C 0.10019 0.27128 0.28696 0.0
C982 C 0.12701 0.18197 0.21461 0.0
C983 C 0.10518 0.17209 0.20256 0.0
C984 C 0.12289 0.19943 0.23633 0.0
C985 C 0.09682 0.20739 0.24636 0.0
C986 C 0.07504 0.19659 0.2349 0.0
C987 C 0.0792 0.17896 0.21324 0.0
H988 H 0.04502 0.38017 0.287 0.0
H989 H 0.96344 0.35952 0.29137 0.0
H990 H 0.03682 0.40557 0.24341 0.0
H991 H 0.95492 0.38564 0.24799 0.0
H992 H 0.95423 0.40831 0.15685 0.0
H993 H 0.96357 0.38412 0.20068 0.0
H994 H 0.01626 0.445 0.21861 0.0
H995 H 1.00719 0.46896 0.17396 0.0
C996 C 0.02515 0.38128 0.27887 0.0
C997 C 1.00493 0.36756 0.293 0.0
C998 C 0.02039 0.39609 0.25372 0.0
C999 C 0.99521 0.39778 0.24161 0.0
C1000 C 0.97479 0.38454 0.25608 0.0
C1001 C 0.97958 0.36967 0.28127 0.0
C1002 C 0.968 0.41651 0.17001 0.0
C1003 C 0.97992 0.44069 0.16167 0.0
C1004 C 0.97316 0.40271 0.19549 0.0
C1005 C 0.99042 0.41256 0.21386 0.0
C1006 C 1.00295 0.43646 0.20522 0.0
C1007 C 0.99779 0.45031 0.17951 0.0
H1008 H 0.00853 0.82622 0.2786 0.0
H1009 H 0.94963 0.79781 0.33688 0.0
H1010 H 1.00477 0.87081 0.29915 0.0
H1011 H 0.94606 0.84296 0.35823 0.0
H1012 H 0.99773 0.90345 0.40609 0.0
H1013 H 0.98082 0.86501 0.3848 0.0
H1014 H 0.97412 0.9136 0.30854 0.0
H1015 H 0.99091 0.95228 0.32988 0.0
C1016 C 0.99445 0.82979 0.29568 0.0
C1017 C 0.97951 0.80869 0.30637 0.0
C1018 C 0.99207 0.85543 0.30729 0.0
C1019 C 0.97498 0.86048 0.33022 0.0
C1020 C 0.9593 0.83961 0.34049 0.0
C1021 C 0.96129 0.81391 0.32836 0.0
C1022 C 0.99158 0.90645 0.38511 0.0
C1023 C 0.99625 0.93074 0.36949 0.0
C1024 C 0.98185 0.88434 0.3729 0.0
C1025 C 0.97667 0.88612 0.34488 0.0
C1026 C 0.97841 0.91151 0.33009 0.0
C1027 C 0.98808 0.93362 0.34228 0.0
H1028 H 0.99244 0.667 0.32317 0.0
H1029 H 0.06041 0.70235 0.35276 0.0
H1030 H 0.99124 0.63669 0.36423 0.0
H1031 H 0.05818 0.67364 0.39489 0.0
H1032 H 0.06015 0.60601 0.46216 0.0
H1033 H 0.06466 0.63151 0.41825 0.0
H1034 H 0.97886 0.63544 0.40922 0.0
H1035 H 0.97494 0.60839 0.45188 0.0
C1036 C 1.00703 0.66839 0.33864 0.0
C1037 C 0.02648 0.68706 0.33478 0.0
C1038 C 1.00622 0.65118 0.36242 0.0
C1039 C 0.02438 0.65272 0.38343 0.0
C1040 C 0.04408 0.67129 0.37924 0.0
C1041 C 0.0453 0.68798 0.35509 0.0
C1042 C 0.04236 0.61215 0.45054 0.0
C1043 C 0.01724 0.60502 0.46038 0.0
C1044 C 0.04485 0.62703 0.4254 0.0
C1045 C 0.02215 0.63577 0.40979 0.0
C1046 C 0.99701 0.62862 0.41996 0.0
C1047 C 0.99467 0.6132 0.44468 0.0
H1048 H 0.28853 0.03805 0.26689 0.0
H1049 H 0.29515 0.12601 0.26257 0.0
H1050 H 0.24944 0.04529 0.23875 0.0
H1051 H 0.2555 0.13328 0.23388 0.0
H1052 H 0.20023 0.12823 0.1589 0.0
H1053 H 0.23996 0.12293 0.18698 0.0
H1054 H 0.20229 0.06541 0.24209 0.0
H1055 H 0.16258 0.07079 0.21421 0.0
C1056 C 0.28173 0.05906 0.2599 0.0
C1057 C 0.29527 0.08145 0.26715 0.0
C1058 C 0.25904 0.0632 0.24381 0.0
C1059 C 0.24906 0.08987 0.23401 0.0
C1060 C 0.26267 0.11239 0.24091 0.0
C1061 C 0.28534 0.10827 0.25748 0.0
C1062 C 0.20046 0.11425 0.17688 0.0
C1063 C 0.17812 0.09972 0.18403 0.0
C1064 C 0.22321 0.11146 0.19318 0.0
C1065 C 0.22449 0.09375 0.21691 0.0
C1066 C 0.20223 0.07906 0.22388 0.0
C1067 C 0.17937 0.08214 0.20783 0.0
H1068 H 0.73806 0.51373 0.32547 0.0
H1069 H 0.71418 0.59477 0.28821 0.0
H1070 H 0.77051 0.50452 0.28775 0.0
H1071 H 0.7466 0.58556 0.25069 0.0
H1072 H 0.78537 0.54624 0.17368 0.0
H1073 H 0.7533 0.55483 0.21157 0.0
H1074 H 0.81325 0.52122 0.26859 0.0
H1075 H 0.84565 0.51316 0.23077 0.0
C1076 C 0.73973 0.52958 0.30928 0.0
C1077 C 0.7235 0.55499 0.30989 0.0
C1078 C 0.75842 0.52435 0.28774 0.0
C1079 C 0.7611 0.54429 0.2662 0.0
C1080 C 0.74483 0.56965 0.26681 0.0
C1081 C 0.72635 0.57498 0.28843 0.0
C1082 C 0.79191 0.54098 0.19428 0.0
C1083 C 0.81825 0.52909 0.19904 0.0
C1084 C 0.77344 0.54584 0.21602 0.0
C1085 C 0.78072 0.53875 0.2431 0.0
C1086 C 0.80692 0.52661 0.24793 0.0
C1087 C 0.82548 0.52195 0.2262 0.0
H1088 H 0.28055 0.99488 0.33996 0.0
H1089 H 0.31725 0.04303 0.39663 0.0
H1090 H 0.23887 0.99905 0.36801 0.0
H1091 H 0.27589 0.04673 0.4249 0.0
H1092 H 0.19905 1.01572 0.47607 0.0
H1093 H 0.24345 1.0145 0.45306 0.0
H1094 H 0.20627 0.04445 0.37766 0.0
H1095 H 0.16214 0.04619 0.40083 0.0
C1096 C 0.27997 1.00548 0.35888 0.0
C1097 C 0.30205 1.01846 0.3663 0.0
C1098 C 0.25608 1.00825 0.37468 0.0
C1099 C 0.25414 0.0236 0.39835 0.0
C1100 C 0.27685 0.0349 0.40673 0.0
C1101 C 0.3005 0.03263 0.39066 0.0
C1102 C 0.2006 0.02352 0.455 0.0
C1103 C 0.17738 0.03179 0.44034 0.0
C1104 C 0.22589 0.02234 0.44172 0.0
C1105 C 0.22812 0.02878 0.41348 0.0
C1106 C 0.20501 0.03896 0.39935 0.0
C1107 C 0.17986 0.04055 0.41271 0.0
H1108 H 0.72997 0.65711 0.37433 0.0
H1109 H 0.71326 0.59762 0.43967 0.0
H1110 H 0.77164 0.66482 0.39612 0.0
H1111 H 0.7542 0.60573 0.46166 0.0
H1112 H 0.82639 0.62438 0.49988 0.0
H1113 H 0.78212 0.64059 0.48253 0.0
H1114 H 0.81208 0.62642 0.40021 0.0
H1115 H 0.85629 0.6103 0.41753 0.0
C1116 C 0.73475 0.6465 0.39382 0.0
C1117 C 0.71879 0.62656 0.40527 0.0
C1118 C 0.7585 0.65088 0.40622 0.0
C1119 C 0.76607 0.63585 0.4305 0.0
C1120 C 0.74871 0.61783 0.44312 0.0
C1121 C 0.72542 0.613 0.43044 0.0
C1122 C 0.82373 0.62569 0.478 0.0
C1123 C 0.84454 0.61568 0.46001 0.0
C1124 C 0.79843 0.63492 0.46812 0.0
C1125 C 0.79372 0.63453 0.44011 0.0
C1126 C 0.81524 0.62713 0.42189 0.0
C1127 C 0.84043 0.61762 0.43179 0.0
H1128 H 0.3115 0.34161 0.12386 0.0
H1129 H 0.35965 0.28027 0.07792 0.0
H1130 H 0.27551 0.31105 0.1289 0.0
H1131 H 0.32428 0.24957 0.08338 0.0
H1132 H 0.24289 0.22976 0.05553 0.0
H1133 H 0.28117 0.25571 0.06038 0.0
H1134 H 0.25944 0.26549 0.14567 0.0
H1135 H 0.22057 0.23992 0.14063 0.0
C1136 C 0.31481 0.32109 0.11599 0.0
C1137 C 0.33817 0.31315 0.10053 0.0
C1138 C 0.29421 0.30368 0.11868 0.0
C1139 C 0.29689 0.27821 0.10595 0.0
C1140 C 0.3214 0.26934 0.09283 0.0
C1141 C 0.34176 0.28673 0.08999 0.0
C1142 C 0.24616 0.23758 0.07527 0.0
C1143 C 0.22874 0.2328 0.09767 0.0
C1144 C 0.26828 0.25213 0.07817 0.0
C1145 C 0.27351 0.26232 0.10354 0.0
C1146 C 0.25594 0.25784 0.12592 0.0
C1147 C 0.23383 0.24307 0.12305 0.0
H1148 H 0.27123 0.83197 0.4945 0.0
H1149 H 0.26507 0.85373 0.57881 0.0
H1150 H 0.2355 0.86817 0.48321 0.0
H1151 H 0.22872 0.88979 0.56762 0.0
H1152 H 0.18347 0.97092 0.53277 0.0
H1153 H 0.21832 0.9341 0.54511 0.0
H1154 H 0.18879 0.88208 0.48692 0.0
H1155 H 0.15417 0.91931 0.47414 0.0
C1156 C 0.26219 0.84438 0.51076 0.0
C1157 C 0.27129 0.83972 0.53765 0.0
C1158 C 0.24139 0.86517 0.50426 0.0
C1159 C 0.22882 0.88217 0.52439 0.0
C1160 C 0.23793 0.87751 0.55135 0.0
C1161 C 0.25879 0.85663 0.55787 0.0
C1162 C 0.18425 0.95162 0.5226 0.0
C1163 C 0.16578 0.94833 0.50235 0.0
C1164 C 0.2043 0.93028 0.52986 0.0
C1165 C 0.20671 0.90479 0.51713 0.0
C1166 C 0.18805 0.90141 0.49702 0.0
C1167 C 0.16795 0.92279 0.48976 0.0
H1168 H 0.94051 0.78218 0.51605 0.0
H1169 H 0.91848 0.77694 0.60205 0.0
H1170 H 0.96049 0.73433 0.51917 0.0
H1171 H 0.93895 0.72903 0.60527 0.0
H1172 H 1.00651 0.6503 0.53387 0.0
H1173 H 0.9954 0.70035 0.53679 0.0
H1174 H 0.92686 0.68575 0.58951 0.0
H1175 H 0.93823 0.63595 0.58688 0.0
C1176 C 0.94045 0.77103 0.53582 0.0
C1177 C 0.92766 0.78346 0.55877 0.0
C1178 C 0.95206 0.74352 0.53761 0.0
C1179 C 0.95116 0.7276 0.56242 0.0
C1180 C 0.93965 0.7405 0.58573 0.0
C1181 C 0.9281 0.7681 0.58396 0.0
C1182 C 0.98933 0.65784 0.54643 0.0
C1183 C 0.97313 0.63919 0.55999 0.0
C1184 C 0.98285 0.68652 0.54797 0.0
C1185 C 0.9601 0.69721 0.56326 0.0
C1186 C 0.94467 0.6784 0.5778 0.0
C1187 C 0.95109 0.64979 0.57616 0.0
H1188 H 0.37608 0.83983 0.47048 0.0
H1189 H 0.41289 0.79751 0.54127 0.0
H1190 H 0.40772 0.87498 0.47103 0.0
H1191 H 0.44374 0.83234 0.54247 0.0
H1192 H 0.49194 0.89922 0.55086 0.0
H1193 H 0.47797 0.86011 0.5277 0.0
H1194 H 0.40603 0.91061 0.50261 0.0
H1195 H 0.42039 0.94952 0.52456 0.0
C1196 C 0.39161 0.83752 0.48544 0.0
C1197 C 0.39199 0.81637 0.50605 0.0
C1198 C 0.40956 0.8577 0.48598 0.0
C1199 C 0.42795 0.85688 0.50717 0.0
C1200 C 0.4301 0.83376 0.52575 0.0
C1201 C 0.41223 0.81382 0.52523 0.0
C1202 C 0.4735 0.90208 0.53978 0.0
C1203 C 0.45688 0.92718 0.54027 0.0
C1204 C 0.46546 0.87968 0.52652 0.0
C1205 C 0.44059 0.88197 0.51371 0.0
C1206 C 0.42535 0.90795 0.51206 0.0
C1207 C 0.43342 0.93026 0.52512 0.0
H1208 H 0.61095 0.79468 0.78494 0.0
H1209 H 0.55187 0.74394 0.82062 0.0
H1210 H 0.62208 0.76103 0.74976 0.0
H1211 H 0.56357 0.70994 0.78656 0.0
H1212 H 0.56376 0.67647 0.70127 0.0
H1213 H 0.55632 0.70648 0.73968 0.0
H1214 H 0.64113 0.7156 0.73921 0.0
H1215 H 0.64823 0.68643 0.70014 0.0
C1216 C 0.60081 0.77606 0.78555 0.0
C1217 C 0.58034 0.77204 0.80514 0.0
C1218 C 0.60716 0.75674 0.7655 0.0
C1219 C 0.59339 0.73294 0.76507 0.0
C1220 C 0.57401 0.72836 0.78575 0.0
C1221 C 0.56743 0.74777 0.80538 0.0
C1222 C 0.58077 0.6847 0.70961 0.0
C1223 C 0.60648 0.67939 0.69771 0.0
C1224 C 0.5766 0.70182 0.73168 0.0
C1225 C 0.59815 0.7136 0.74251 0.0
C1226 C 0.62403 0.70736 0.73108 0.0
C1227 C 0.62812 0.69051 0.70884 0.0
H1228 H 0.46302 0.86233 0.79178 0.0
H1229 H 0.54465 0.88276 0.78513 0.0
H1230 H 0.45344 0.88842 0.74865 0.0
H1231 H 0.53538 0.90814 0.74171 0.0
H1232 H 0.50387 0.97146 0.67294 0.0
H1233 H 0.51411 0.94762 0.7174 0.0
H1234 H 0.46092 0.88661 0.70127 0.0
H1235 H 0.45039 0.9107 0.65766 0.0
C1236 C 0.47896 0.87241 0.7812 0.0
C1237 C 0.50463 0.87026 0.79222 0.0
C1238 C 0.47355 0.88727 0.75617 0.0
C1239 C 0.49365 0.90043 0.74112 0.0
C1240 C 0.51918 0.89871 0.7525 0.0
C1241 C 0.52456 0.88392 0.77754 0.0
C1242 C 0.49458 0.95283 0.67887 0.0
C1243 C 0.47622 0.94313 0.66163 0.0
C1244 C 0.50043 0.93905 0.70445 0.0
C1245 C 0.48813 0.91514 0.71351 0.0
C1246 C 0.47036 0.90522 0.69572 0.0
C1247 C 0.4645 0.91896 0.67038 0.0
H1248 H 0.45718 0.32561 0.7871 0.0
H1249 H 0.51638 0.28417 0.84109 0.0
H1250 H 0.46317 0.37001 0.80644 0.0
H1251 H 0.522 0.3281 0.86059 0.0
H1252 H 0.56001 0.40696 0.85158 0.0
H1253 H 0.54427 0.36632 0.83391 0.0
H1254 H 0.4623 0.39898 0.85074 0.0
H1255 H 0.47805 0.44071 0.8679 0.0
C1256 C 0.47054 0.32584 0.80392 0.0
C1257 C 0.48652 0.30164 0.81252 0.0
C1258 C 0.47409 0.35122 0.81481 0.0
C1259 C 0.49359 0.35246 0.8344 0.0
C1260 C 0.50733 0.32774 0.84499 0.0
C1261 C 0.50393 0.3026 0.83405 0.0
C1262 C 0.53858 0.40613 0.85079 0.0
C1263 C 0.52032 0.42715 0.86132 0.0
C1264 C 0.52959 0.38252 0.84109 0.0
C1265 C 0.50212 0.37922 0.84174 0.0
C1266 C 0.4836 0.40095 0.85037 0.0
C1267 C 0.49265 0.42473 0.8602 0.0
H1268 H 0.48888 0.17872 0.82652 0.0
H1269 H 0.57432 0.18197 0.83054 0.0
H1270 H 0.48956 0.14893 0.86809 0.0
H1271 H 0.57501 0.1518 0.87214 0.0
H1272 H 0.55506 0.1302 0.96452 0.0
H1273 H 0.55886 0.15503 0.92013 0.0
H1274 H 0.50538 0.10265 0.88657 0.0
H1275 H 0.5013 0.07806 0.93094 0.0
C1276 C 0.50788 0.17285 0.83609 0.0
C1277 C 0.53153 0.18283 0.82517 0.0
C1278 C 0.5083 0.1556 0.85989 0.0
C1279 C 0.53235 0.14794 0.8735 0.0
C1280 C 0.55611 0.15751 0.86232 0.0
C1281 C 0.55572 0.17466 0.83837 0.0
C1282 C 0.54441 0.12371 0.94758 0.0
C1283 C 0.52774 0.10223 0.95139 0.0
C1284 C 0.54667 0.1379 0.92208 0.0
C1285 C 0.53222 0.13102 0.89981 0.0
C1286 C 0.51642 0.1088 0.90338 0.0
C1287 C 0.51423 0.09457 0.92882 0.0
H1288 H 0.78029 0.62241 0.78774 0.0
H1289 H 0.80874 0.55271 0.73995 0.0
H1290 H 0.74102 0.63181 0.75884 0.0
H1291 H 0.77004 0.56247 0.71082 0.0
H1292 H 0.70732 0.60542 0.64957 0.0
H1293 H 0.74815 0.59959 0.67635 0.0
H1294 H 0.69981 0.60562 0.7508 0.0
H1295 H 0.65918 0.61077 0.72426 0.0
C1296 C 0.77848 0.60942 0.77079 0.0
C1297 C 0.79779 0.58681 0.76623 0.0
C1298 C 0.75584 0.61467 0.75433 0.0
C1299 C 0.75224 0.59787 0.73245 0.0
C1300 C 0.77214 0.57596 0.7273 0.0
C1301 C 0.79435 0.57033 0.7441 0.0
C1302 C 0.7054 0.60544 0.67165 0.0
C1303 C 0.67982 0.60831 0.68466 0.0
C1304 C 0.72882 0.60208 0.68702 0.0
C1305 C 0.72737 0.60224 0.71582 0.0
C1306 C 0.7018 0.60563 0.72873 0.0
C1307 C 0.67843 0.60833 0.71344 0.0
H1308 H 0.22709 0.07852 0.80548 0.0
H1309 H 0.22281 0.99037 0.81744 0.0
H1310 H 0.26074 0.07039 0.76898 0.0
H1311 H 0.25678 0.98224 0.78072 0.0
H1312 H 0.29186 0.98555 0.69076 0.0
H1313 H 0.26044 0.99088 0.72992 0.0
H1314 H 0.30761 0.05039 0.76172 0.0
H1315 H 0.33867 0.04552 0.72236 0.0
C1316 C 0.23343 0.05735 0.80043 0.0
C1317 C 0.22219 0.03509 0.8144 0.0
C1318 C 0.25288 0.0527 0.77958 0.0
C1319 C 0.26149 0.02567 0.77193 0.0
C1320 C 0.25042 1.00333 0.78599 0.0
C1321 C 0.23109 1.00798 0.80713 0.0
C1322 C 0.29549 0.99981 0.70609 0.0
C1323 C 0.31772 1.01522 0.70332 0.0
C1324 C 0.27764 1.00263 0.72868 0.0
C1325 C 0.28147 0.02112 0.74891 0.0
C1326 C 0.30394 0.03616 0.74637 0.0
C1327 C 0.32188 0.03319 0.72392 0.0
H1328 H 0.8093 0.54822 0.89573 0.0
H1329 H 0.77536 0.49567 0.84112 0.0
H1330 H 0.76724 0.55288 0.92252 0.0
H1331 H 0.73291 0.50055 0.86791 0.0
H1332 H 0.65477 0.55153 0.89688 0.0
H1333 H 0.69869 0.54336 0.874 0.0
H1334 H 0.73525 0.52573 0.95218 0.0
H1335 H 0.69116 0.5336 0.97522 0.0
C1336 C 0.79297 0.53713 0.88987 0.0
C1337 C 0.79552 0.52154 0.86641 0.0
C1338 C 0.76891 0.53983 0.90519 0.0
C1339 C 0.74673 0.5274 0.89708 0.0
C1340 C 0.74966 0.51063 0.87439 0.0
C1341 C 0.77398 0.50752 0.85928 0.0
C1342 C 0.67219 0.54632 0.90926 0.0
C1343 C 0.66947 0.54312 0.93788 0.0
C1344 C 0.69728 0.54126 0.89611 0.0
C1345 C 0.72027 0.53332 0.91129 0.0
C1346 C 0.71782 0.53163 0.93997 0.0
C1347 C 0.69263 0.53635 0.95315 0.0
H1348 H 0.22874 0.13082 0.88784 0.0
H1349 H 0.19105 0.07777 0.94758 0.0
H1350 H 0.26462 0.13461 0.91928 0.0
H1351 H 0.2259 0.08267 0.97972 0.0
H1352 H 0.32896 0.13669 0.97727 0.0
H1353 H 0.28347 0.14666 0.96062 0.0
H1354 H 0.27016 0.06096 0.97826 0.0
H1355 H 0.31499 0.05137 0.99519 0.0
C1356 C 0.22767 0.12091 0.90813 0.0
C1357 C 0.20768 0.1036 0.91527 0.0
C1358 C 0.24808 0.12315 0.92626 0.0
C1359 C 0.24843 0.10842 0.95186 0.0
C1360 C 0.22664 0.09362 0.95991 0.0
C1361 C 0.20666 0.0909 0.94161 0.0
C1362 C 0.31595 0.12024 0.97815 0.0
C1363 C 0.32555 0.09318 0.98719 0.0
C1364 C 0.28998 0.12592 0.96857 0.0
C1365 C 0.27326 0.10458 0.96773 0.0
C1366 C 0.28225 0.07806 0.9789 0.0
C1367 C 0.30807 0.07247 0.9886 0.0
H1368 H 0.84772 0.76975 0.53736 0.0
H1369 H 0.81181 0.81937 0.47003 0.0
H1370 H 0.81272 0.73886 0.53692 0.0
H1371 H 0.77627 0.7883 0.46962 0.0
H1372 H 0.70064 0.75878 0.52052 0.0
H1373 H 0.73923 0.78253 0.50489 0.0
H1374 H 0.79007 0.70518 0.51193 0.0
H1375 H 0.75146 0.68146 0.52815 0.0
C1376 C 0.83263 0.77359 0.52198 0.0
C1377 C 0.83228 0.79698 0.50385 0.0
C1378 C 0.81267 0.75579 0.5216 0.0
C1379 C 0.79164 0.76123 0.50333 0.0
C1380 C 0.79219 0.78371 0.48401 0.0
C1381 C 0.81255 0.80135 0.4841 0.0
C1382 C 0.72001 0.74679 0.51845 0.0
C1383 C 0.72311 0.71836 0.52608 0.0
C1384 C 0.74205 0.76033 0.50911 0.0
C1385 C 0.76772 0.74575 0.50733 0.0
C1386 C 0.77055 0.71698 0.5133 0.0
C1387 C 0.74843 0.70339 0.52249 0.0
H1388 H 0.76845 0.35779 0.07917 0.0
H1389 H 0.7716 0.33658 0.9947 0.0
H1390 H 0.73234 0.39438 0.06929 0.0
H1391 H 0.73601 0.37346 0.98467 0.0
H1392 H 0.68901 0.47668 0.03708 0.0
H1393 H 0.72339 0.43887 0.04725 0.0
H1394 H 0.68937 0.38897 0.99009 0.0
H1395 H 0.65506 0.42734 0.97941 0.0
C1396 C 0.76153 0.36092 0.05846 0.0
C1397 C 0.77315 0.34407 0.0378 0.0
C1398 C 0.74082 0.38211 0.0527 0.0
C1399 C 0.73102 0.38721 0.02607 0.0
C1400 C 0.74255 0.37014 1.00549 0.0
C1401 C 0.76323 0.34898 1.01125 0.0
C1402 C 0.6887 0.45768 0.02661 0.0
C1403 C 0.66903 0.45529 1.00733 0.0
C1404 C 0.70847 0.43575 0.03266 0.0
C1405 C 0.70939 0.41051 1.01968 0.0
C1406 C 0.68968 0.40807 1.00037 0.0
C1407 C 0.66981 0.43009 0.99431 0.0
H1408 H 0.43225 0.28921 0.08069 0.0
H1409 H 0.42844 0.2878 0.9929 0.0
H1410 H 0.45119 0.24091 0.08274 0.0
H1411 H 0.44788 0.23929 0.99507 0.0
H1412 H 0.50307 0.1568 1.01085 0.0
H1413 H 0.49073 0.20707 1.00921 0.0
H1414 H 0.43044 0.19663 0.07297 0.0
H1415 H 0.44238 0.14647 0.07423 0.0
C1416 C 0.43595 0.27883 0.06171 0.0
C1417 C 0.42872 0.29252 0.03659 0.0
C1418 C 0.44666 0.25102 0.06297 0.0
C1419 C 0.45086 0.23619 0.03912 0.0
C1420 C 0.44498 0.25019 1.01381 0.0
C1421 C 0.43382 0.27799 1.01257 0.0
C1422 C 0.48741 0.1653 0.02475 0.0
C1423 C 0.47368 0.14769 0.04272 0.0
C1424 C 0.48023 0.19405 0.02365 0.0
C1425 C 0.45959 0.20584 0.04092 0.0
C1426 C 0.44656 0.18824 0.05954 0.0
C1427 C 0.45336 0.15951 0.06025 0.0
H1428 H 0.85588 0.36173 0.9983 0.0
H1429 H 0.92145 0.2969 0.99823 0.0
H1430 H 0.88712 0.39618 1.00072 0.0
H1431 H 0.95337 0.33153 1.00032 0.0
H1432 H 0.98056 0.39272 0.06404 0.0
H1433 H 0.96175 0.35749 0.03926 0.0
H1434 H 0.92314 0.42153 0.98509 0.0
H1435 H 0.94097 0.45661 1.01077 0.0
C1436 C 0.8772 0.3551 0.99734 0.0
C1437 C 0.88641 0.3269 0.9978 0.0
C1438 C 0.89522 0.37481 0.99875 0.0
C1439 C 0.92285 0.36663 1.00103 0.0
C1440 C 0.93222 0.33846 0.99889 0.0
C1441 C 0.91405 0.31869 0.99732 0.0
C1442 C 0.9687 0.39909 0.04634 0.0
C1443 C 0.9616 0.42723 0.03965 0.0
C1444 C 0.95803 0.37894 0.03197 0.0
C1445 C 0.94042 0.38673 1.0105 0.0
C1446 C 0.93603 0.41487 1.00195 0.0
C1447 C 0.94625 0.43494 1.01661 0.0
loop_
_geom_bond_atom_site_label_1
_geom_bond_atom_site_label_2
_geom_bond_distance
_geom_bond_site_symmetry_2
_ccdc_geom_bond_type
C0 O2 1.247 . S
C0 O4 1.258 . S
C1 O8 1.247 1_455 S
C1 O9 1.258 . S
O2 C0 1.247 . S
O2 Zn3 2.028 . S
Zn3 O2 2.028 . S
Zn3 O7 2.035 . S
Zn3 O9 2.035 . S
Zn3 O10 2.028 . S
O4 C0 1.258 . S
O4 Zn5 2.035 1_455 S
Zn5 O4 2.035 1_655 S
Zn5 O6 2.028 . S
Zn5 O8 2.028 . S
Zn5 O11 2.035 1_655 S
O6 Zn5 2.028 . S
O6 C12 1.247 1_655 S
O7 Zn3 2.035 . S
O7 C12 1.258 . S
O8 C1 1.247 1_655 S
O8 Zn5 2.028 . S
O9 C1 1.258 . S
O9 Zn3 2.035 . S
O10 Zn3 2.028 . S
O10 C13 1.247 . S
O11 Zn5 2.035 1_455 S
O11 C13 1.258 . S
C12 O6 1.247 1_455 S
C12 O7 1.258 . S
C13 O10 1.247 . S
C13 O11 1.258 . S
C14 O16 1.247 . S
C14 O18 1.258 1_455 S
C15 O22 1.247 . S
C15 O23 1.258 1_655 S
O16 C14 1.247 . S
O16 Zn17 2.028 . S
Zn17 O16 2.028 . S
Zn17 O21 2.035 . S
Zn17 O23 2.035 . S
Zn17 O24 2.028 . S
O18 C14 1.258 1_655 S
O18 Zn19 2.035 . S
Zn19 O18 2.035 . S
Zn19 O20 2.028 . S
Zn19 O22 2.028 . S
Zn19 O25 2.035 . S
O20 Zn19 2.028 . S
O20 C26 1.247 . S
O21 Zn17 2.035 . S
O21 C26 1.258 1_455 S
O22 C15 1.247 . S
O22 Zn19 2.028 . S
O23 C15 1.258 1_455 S
O23 Zn17 2.035 . S
O24 Zn17 2.028 . S
O24 C27 1.247 . S
O25 Zn19 2.035 . S
O25 C27 1.258 1_655 S
C26 O20 1.247 . S
C26 O21 1.258 1_655 S
C27 O24 1.247 . S
C27 O25 1.258 1_455 S
C28 O30 1.247 1_545 S
C28 O32 1.258 . S
C29 O36 1.247 1_565 S
C29 O37 1.258 . S
O30 C28 1.247 1_565 S
O30 Zn31 2.028 . S
Zn31 O30 2.028 . S
Zn31 O35 2.035 . S
Zn31 O37 2.035 . S
Zn31 O38 2.028 . S
O32 C28 1.258 . S
O32 Zn33 2.035 . S
Zn33 O32 2.035 . S
Zn33 O34 2.028 . S
Zn33 O36 2.028 . S
Zn33 O39 2.035 . S
O34 Zn33 2.028 . S
O34 C40 1.247 1_545 S
O35 Zn31 2.035 . S
O35 C40 1.258 . S
O36 C29 1.247 1_545 S
O36 Zn33 2.028 . S
O37 C29 1.258 . S
O37 Zn31 2.035 . S
O38 Zn31 2.028 . S
O38 C41 1.247 1_565 S
O39 Zn33 2.035 . S
O39 C41 1.258 . S
C40 O34 1.247 1_565 S
C40 O35 1.258 . S
C41 O38 1.247 1_545 S
C41 O39 1.258 . S
C42 O44 1.247 . S
C42 O46 1.258 . S
C43 O50 1.247 . S
C43 O51 1.258 . S
O44 C42 1.247 . S
O44 Zn45 2.028 . S
Zn45 O44 2.028 . S
Zn45 O49 2.035 . S
Zn45 O51 2.035 . S
Zn45 O52 2.028 . S
O46 C42 1.258 . S
O46 Zn47 2.035 . S
Zn47 O46 2.035 . S
Zn47 O48 2.028 . S
Zn47 O50 2.028 . S
Zn47 O53 2.035 . S
O48 Zn47 2.028 . S
O48 C54 1.247 . S
O49 Zn45 2.035 . S
O49 C54 1.258 . S
O50 C43 1.247 . S
O50 Zn47 2.028 . S
O51 C43 1.258 . S
O51 Zn45 2.035 . S
O52 Zn45 2.028 . S
O52 C55 1.247 . S
O53 Zn47 2.035 . S
O53 C55 1.258 . S
C54 O48 1.247 . S
C54 O49 1.258 . S
C55 O52 1.247 . S
C55 O53 1.258 . S
C56 O58 1.247 1_554 S
C56 O60 1.258 . S
C57 O64 1.247 1_556 S
C57 O65 1.258 . S
O58 C56 1.247 1_556 S
O58 Zn59 2.028 . S
Zn59 O58 2.028 . S
Zn59 O63 2.035 . S
Zn59 O65 2.035 . S
Zn59 O66 2.028 . S
O60 C56 1.258 . S
O60 Zn61 2.035 . S
Zn61 O60 2.035 . S
Zn61 O62 2.028 . S
Zn61 O64 2.028 . S
Zn61 O67 2.035 . S
O62 Zn61 2.028 . S
O62 C68 1.247 1_554 S
O63 Zn59 2.035 . S
O63 C68 1.258 . S
O64 C57 1.247 1_554 S
O64 Zn61 2.028 . S
O65 C57 1.258 . S
O65 Zn59 2.035 . S
O66 Zn59 2.028 . S
O66 C69 1.247 1_556 S
O67 Zn61 2.035 . S
O67 C69 1.258 . S
C68 O62 1.247 1_556 S
C68 O63 1.258 . S
C69 O66 1.247 1_554 S
C69 O67 1.258 . S
C70 O72 1.247 . S
C70 O74 1.258 . S
C71 O78 1.247 . S
C71 O79 1.258 . S
O72 C70 1.247 . S
O72 Zn73 2.028 . S
Zn73 O72 2.028 . S
Zn73 O77 2.035 . S
Zn73 O79 2.035 . S
Zn73 O80 2.028 . S
O74 C70 1.258 . S
O74 Zn75 2.035 . S
Zn75 O74 2.035 . S
Zn75 O76 2.028 . S
Zn75 O78 2.028 . S
Zn75 O81 2.035 . S
O76 Zn75 2.028 . S
O76 C82 1.247 . S
O77 Zn73 2.035 . S
O77 C82 1.258 . S
O78 C71 1.247 . S
O78 Zn75 2.028 . S
O79 C71 1.258 . S
O79 Zn73 2.035 . S
O80 Zn73 2.028 . S
O80 C83 1.247 . S
O81 Zn75 2.035 . S
O81 C83 1.258 . S
C82 O76 1.247 . S
C82 O77 1.258 . S
C83 O80 1.247 . S
C83 O81 1.258 . S
C84 O86 1.247 . S
C84 O88 1.258 . S
C85 O92 1.247 . S
C85 O93 1.258 . S
O86 C84 1.247 . S
O86 Zn87 2.028 . S
Zn87 O86 2.028 . S
Zn87 O91 2.035 . S
Zn87 O93 2.035 . S
Zn87 O94 2.028 . S
O88 C84 1.258 . S
O88 Zn89 2.035 . S
Zn89 O88 2.035 . S
Zn89 O90 2.028 . S
Zn89 O92 2.028 . S
Zn89 O95 2.035 . S
O90 Zn89 2.028 . S
O90 C96 1.247 . S
O91 Zn87 2.035 . S
O91 C96 1.258 . S
O92 C85 1.247 . S
O92 Zn89 2.028 . S
O93 C85 1.258 . S
O93 Zn87 2.035 . S
O94 Zn87 2.028 . S
O94 C97 1.247 . S
O95 Zn89 2.035 . S
O95 C97 1.258 . S
C96 O90 1.247 . S
C96 O91 1.258 . S
C97 O94 1.247 . S
C97 O95 1.258 . S
C98 O100 1.247 . S
C98 O102 1.258 . S
C99 O106 1.247 . S
C99 O107 1.258 . S
O100 C98 1.247 . S
O100 Zn101 2.028 . S
Zn101 O100 2.028 . S
Zn101 O105 2.035 . S
Zn101 O107 2.035 . S
Zn101 O108 2.028 . S
O102 C98 1.258 . S
O102 Zn103 2.035 . S
Zn103 O102 2.035 . S
Zn103 O104 2.028 . S
Zn103 O106 2.028 . S
Zn103 O109 2.035 . S
O104 Zn103 2.028 . S
O104 C110 1.247 . S
O105 Zn101 2.035 . S
O105 C110 1.258 . S
O106 C99 1.247 . S
O106 Zn103 2.028 . S
O107 C99 1.258 . S
O107 Zn101 2.035 . S
O108 Zn101 2.028 . S
O108 C111 1.247 . S
O109 Zn103 2.035 . S
O109 C111 1.258 . S
C110 O104 1.247 . S
C110 O105 1.258 . S
C111 O108 1.247 . S
C111 O109 1.258 . S
C112 O114 1.247 . S
C112 O116 1.258 . S
C113 O120 1.247 . S
C113 O121 1.258 . S
O114 C112 1.247 . S
O114 Zn115 2.028 . S
Zn115 O114 2.028 . S
Zn115 O119 2.035 . S
Zn115 O121 2.035 . S
Zn115 O122 2.028 . S
O116 C112 1.258 . S
O116 Zn117 2.035 . S
Zn117 O116 2.035 . S
Zn117 O118 2.028 . S
Zn117 O120 2.028 . S
Zn117 O123 2.035 . S
O118 Zn117 2.028 . S
O118 C124 1.247 . S
O119 Zn115 2.035 . S
O119 C124 1.258 . S
O120 C113 1.247 . S
O120 Zn117 2.028 . S
O121 C113 1.258 . S
O121 Zn115 2.035 . S
O122 Zn115 2.028 . S
O122 C125 1.247 . S
O123 Zn117 2.035 . S
O123 C125 1.258 . S
C124 O118 1.247 . S
C124 O119 1.258 . S
C125 O122 1.247 . S
C125 O123 1.258 . S
C126 O128 1.247 . S
C126 O130 1.258 . S
C127 O134 1.247 . S
C127 O135 1.258 . S
O128 C126 1.247 . S
O128 Zn129 2.028 . S
Zn129 O128 2.028 . S
Zn129 O133 2.035 . S
Zn129 O135 2.035 . S
Zn129 O136 2.028 . S
O130 C126 1.258 . S
O130 Zn131 2.035 . S
Zn131 O130 2.035 . S
Zn131 O132 2.028 . S
Zn131 O134 2.028 . S
Zn131 O137 2.035 . S
O132 Zn131 2.028 . S
O132 C138 1.247 . S
O133 Zn129 2.035 . S
O133 C138 1.258 . S
O134 C127 1.247 . S
O134 Zn131 2.028 . S
O135 C127 1.258 . S
O135 Zn129 2.035 . S
O136 Zn129 2.028 . S
O136 C139 1.247 . S
O137 Zn131 2.035 . S
O137 C139 1.258 . S
C138 O132 1.247 . S
C138 O133 1.258 . S
C139 O136 1.247 . S
C139 O137 1.258 . S
C140 O142 1.247 . S
C140 O144 1.258 1_565 S
C141 O148 1.247 . S
C141 O149 1.258 1_545 S
O142 C140 1.247 . S
O142 Zn143 2.028 . S
Zn143 O142 2.028 . S
Zn143 O147 2.035 . S
Zn143 O149 2.035 . S
Zn143 O150 2.028 . S
O144 C140 1.258 1_545 S
O144 Zn145 2.035 . S
Zn145 O144 2.035 . S
Zn145 O146 2.028 . S
Zn145 O148 2.028 . S
Zn145 O151 2.035 . S
O146 Zn145 2.028 . S
O146 C152 1.247 . S
O147 Zn143 2.035 . S
O147 C152 1.258 1_565 S
O148 C141 1.247 . S
O148 Zn145 2.028 . S
O149 C141 1.258 1_565 S
O149 Zn143 2.035 . S
O150 Zn143 2.028 . S
O150 C153 1.247 . S
O151 Zn145 2.035 . S
O151 C153 1.258 1_545 S
C152 O146 1.247 . S
C152 O147 1.258 1_545 S
C153 O150 1.247 . S
C153 O151 1.258 1_565 S
C154 O156 1.247 1_556 S
C154 O158 1.258 . S
C155 O162 1.247 1_554 S
C155 O163 1.258 . S
O156 C154 1.247 1_554 S
O156 Zn157 2.028 . S
Zn157 O156 2.028 . S
Zn157 O161 2.035 . S
Zn157 O163 2.035 . S
Zn157 O164 2.028 . S
O158 C154 1.258 . S
O158 Zn159 2.035 . S
Zn159 O158 2.035 . S
Zn159 O160 2.028 . S
Zn159 O162 2.028 . S
Zn159 O165 2.035 . S
O160 Zn159 2.028 . S
O160 C166 1.247 1_556 S
O161 Zn157 2.035 . S
O161 C166 1.258 . S
O162 C155 1.247 1_556 S
O162 Zn159 2.028 . S
O163 C155 1.258 . S
O163 Zn157 2.035 . S
O164 Zn157 2.028 . S
O164 C167 1.247 1_554 S
O165 Zn159 2.035 . S
O165 C167 1.258 . S
C166 O160 1.247 1_554 S
C166 O161 1.258 . S
C167 O164 1.247 1_556 S
C167 O165 1.258 . S
C168 Eu169 2.835 . S
C168 C170 1.500 1_545 S
C168 O188 1.257 . S
C168 O189 1.260 . S
Eu169 C168 2.835 . S
Eu169 O188 2.473 . S
Eu169 O189 2.480 . S
Eu169 O190 2.430 . S
Eu169 O191 2.670 . S
Eu169 O192 2.394 . S
Eu169 O197 2.355 . S
Eu169 O199 2.374 . S
C170 C168 1.500 1_565 S
C170 C171 1.377 . S
C170 C175 1.375 1_565 S
C171 C170 1.377 . S
C171 C172 1.395 . S
C171 H200 0.931 . S
C172 C171 1.395 . S
C172 C173 1.383 . S
C172 H201 0.931 . S
C173 C172 1.383 . S
C173 C174 1.394 . S
C174 C173 1.394 . S
C174 C175 1.362 1_565 S
C174 H202 0.931 . S
C175 C170 1.375 1_545 S
C175 C174 1.362 1_545 S
C175 H203 0.949 . S
C176 O190 1.259 . S
C176 O191 1.270 . S
C177 O192 1.251 . S
C177 O193 1.251 . S
C178 Eu179 2.835 . S
C178 C180 1.500 . S
C178 O194 1.257 . S
C178 O195 1.260 . S
Eu179 C178 2.835 . S
Eu179 O191 2.355 . S
Eu179 O193 2.374 . S
Eu179 O194 2.473 . S
Eu179 O195 2.480 . S
Eu179 O196 2.430 . S
Eu179 O197 2.670 . S
Eu179 O198 2.394 . S
C180 C178 1.500 . S
C180 C181 1.377 . S
C180 C185 1.377 . S
C181 C180 1.377 . S
C181 C182 1.395 . S
C181 H204 0.931 . S
C182 C181 1.395 . S
C182 C183 1.383 . S
C182 H205 0.931 . S
C183 C182 1.383 . S
C183 C184 1.394 . S
C184 C183 1.394 . S
C184 C185 1.378 . S
C184 H206 0.931 1_554 S
C185 C180 1.377 . S
C185 C184 1.378 . S
C185 H207 0.931 . S
C186 O196 1.259 . S
C186 O197 1.270 . S
C187 O198 1.251 . S
C187 O199 1.251 . S
O188 C168 1.257 . S
O188 Eu169 2.473 . S
O189 C168 1.260 . S
O189 Eu169 2.480 . S
O190 Eu169 2.430 . S
O190 C176 1.259 . S
O191 Eu169 2.670 . S
O191 C176 1.270 . S
O191 Eu179 2.355 . S
O192 Eu169 2.394 . S
O192 C177 1.251 . S
O193 C177 1.251 . S
O193 Eu179 2.374 . S
O194 C178 1.257 . S
O194 Eu179 2.473 . S
O195 C178 1.260 . S
O195 Eu179 2.480 . S
O196 Eu179 2.430 . S
O196 C186 1.259 . S
O197 Eu169 2.355 . S
O197 Eu179 2.670 . S
O197 C186 1.270 . S
O198 Eu179 2.394 . S
O198 C187 1.251 . S
O199 Eu169 2.374 . S
O199 C187 1.251 . S
H200 C171 0.931 . S
H201 C172 0.931 . S
H202 C174 0.931 . S
H203 C175 0.949 . S
H204 C181 0.931 . S
H205 C182 0.931 . S
H206 C184 0.931 1_556 S
H207 C185 0.931 . S
C208 Eu209 2.835 . S
C208 C210 1.500 . S
C208 O228 1.257 . S
C208 O229 1.260 . S
Eu209 C208 2.835 . S
Eu209 O228 2.473 . S
Eu209 O229 2.480 . S
Eu209 O230 2.430 . S
Eu209 O231 2.670 . S
Eu209 O232 2.394 . S
Eu209 O237 2.355 . S
Eu209 O239 2.374 . S
C210 C208 1.500 . S
C210 C211 1.377 . S
C210 C215 1.377 . S
C211 C210 1.377 . S
C211 C212 1.395 . S
C211 H240 0.931 . S
C212 C211 1.395 . S
C212 C213 1.383 . S
C212 H241 0.931 . S
C213 C212 1.383 . S
C213 C214 1.394 . S
C214 C213 1.394 . S
C214 C215 1.378 . S
C214 H242 0.931 . S
C215 C210 1.377 . S
C215 C214 1.378 . S
C215 H243 0.931 . S
C216 O230 1.259 . S
C216 O231 1.270 . S
C217 O232 1.251 . S
C217 O233 1.251 1_655 S
C218 Eu219 2.835 . S
C218 C220 1.500 . S
C218 O234 1.257 . S
C218 O235 1.260 . S
Eu219 C218 2.835 . S
Eu219 O231 2.355 1_455 S
Eu219 O233 2.374 . S
Eu219 O234 2.473 . S
Eu219 O235 2.480 . S
Eu219 O236 2.430 1_455 S
Eu219 O237 2.670 1_455 S
Eu219 O238 2.394 1_455 S
C220 C218 1.500 . S
C220 C221 1.377 . S
C220 C225 1.377 . S
C221 C220 1.377 . S
C221 C222 1.395 1_554 S
C221 H244 0.931 . S
C222 C221 1.395 1_556 S
C222 C223 1.383 1_556 S
C222 H245 0.931 . S
C223 C222 1.383 1_554 S
C223 C224 1.394 . S
C224 C223 1.394 . S
C224 C225 1.378 . S
C224 H246 0.931 . S
C225 C220 1.377 . S
C225 C224 1.378 . S
C225 H247 0.931 . S
C226 O236 1.259 . S
C226 O237 1.270 . S
C227 O238 1.251 . S
C227 O239 1.251 . S
O228 C208 1.257 . S
O228 Eu209 2.473 . S
O229 C208 1.260 . S
O229 Eu209 2.480 . S
O230 Eu209 2.430 . S
O230 C216 1.259 . S
O231 Eu209 2.670 . S
O231 C216 1.270 . S
O231 Eu219 2.355 1_655 S
O232 Eu209 2.394 . S
O232 C217 1.251 . S
O233 C217 1.251 1_455 S
O233 Eu219 2.374 . S
O234 C218 1.257 . S
O234 Eu219 2.473 . S
O235 C218 1.260 . S
O235 Eu219 2.480 . S
O236 Eu219 2.430 1_655 S
O236 C226 1.259 . S
O237 Eu209 2.355 . S
O237 Eu219 2.670 1_655 S
O237 C226 1.270 . S
O238 Eu219 2.394 1_655 S
O238 C227 1.251 . S
O239 Eu209 2.374 . S
O239 C227 1.251 . S
H240 C211 0.931 . S
H241 C212 0.931 . S
H242 C214 0.931 . S
H243 C215 0.931 . S
H244 C221 0.931 . S
H245 C222 0.931 . S
H246 C224 0.931 . S
H247 C225 0.931 . S
C248 Eu249 2.835 . S
C248 C250 1.500 . S
C248 O268 1.257 . S
C248 O269 1.260 . S
Eu249 C248 2.835 . S
Eu249 O268 2.473 . S
Eu249 O269 2.480 . S
Eu249 O270 2.430 1_545 S
Eu249 O271 2.670 1_545 S
Eu249 O272 2.394 1_545 S
Eu249 O277 2.355 1_545 S
Eu249 O279 2.374 . S
C250 C248 1.500 . S
C250 C251 1.377 . S
C250 C255 1.377 . S
C251 C250 1.377 . S
C251 C252 1.395 . S
C251 H280 0.931 . S
C252 C251 1.395 . S
C252 C253 1.383 . S
C252 H281 0.931 . S
C253 C252 1.383 . S
C253 C254 1.394 . S
C254 C253 1.394 . S
C254 C255 1.378 . S
C254 H282 0.931 . S
C255 C250 1.377 . S
C255 C254 1.378 . S
C255 H283 0.931 . S
C256 O270 1.259 . S
C256 O271 1.270 . S
C257 O272 1.251 . S
C257 O273 1.251 . S
C258 Eu259 2.835 . S
C258 C260 1.500 . S
C258 O274 1.257 . S
C258 O275 1.260 . S
Eu259 C258 2.835 . S
Eu259 O271 2.355 . S
Eu259 O273 2.374 . S
Eu259 O274 2.473 . S
Eu259 O275 2.480 . S
Eu259 O276 2.430 . S
Eu259 O277 2.670 . S
Eu259 O278 2.394 1_565 S
C260 C258 1.500 . S
C260 C261 1.377 . S
C260 C265 1.377 . S
C261 C260 1.377 . S
C261 C262 1.395 . S
C261 H284 0.931 . S
C262 C261 1.395 . S
C262 C263 1.383 . S
C262 H285 0.931 . S
C263 C262 1.383 . S
C263 C264 1.394 . S
C264 C263 1.394 . S
C264 C265 1.378 . S
C264 H286 0.931 1_455 S
C265 C260 1.377 . S
C265 C264 1.378 . S
C265 H287 0.931 . S
C266 O276 1.259 1_545 S
C266 O277 1.270 1_545 S
C267 O278 1.251 . S
C267 O279 1.251 . S
O268 C248 1.257 . S
O268 Eu249 2.473 . S
O269 C248 1.260 . S
O269 Eu249 2.480 . S
O270 Eu249 2.430 1_565 S
O270 C256 1.259 . S
O271 Eu249 2.670 1_565 S
O271 C256 1.270 . S
O271 Eu259 2.355 . S
O272 Eu249 2.394 1_565 S
O272 C257 1.251 . S
O273 C257 1.251 . S
O273 Eu259 2.374 . S
O274 C258 1.257 . S
O274 Eu259 2.473 . S
O275 C258 1.260 . S
O275 Eu259 2.480 . S
O276 Eu259 2.430 . S
O276 C266 1.259 1_565 S
O277 Eu249 2.355 1_565 S
O277 Eu259 2.670 . S
O277 C266 1.270 1_565 S
O278 Eu259 2.394 1_545 S
O278 C267 1.251 . S
O279 Eu249 2.374 . S
O279 C267 1.251 . S
H280 C251 0.931 . S
H281 C252 0.931 . S
H282 C254 0.931 . S
H283 C255 0.931 . S
H284 C261 0.931 . S
H285 C262 0.931 . S
H286 C264 0.931 1_655 S
H287 C265 0.931 . S
C288 Eu289 2.835 . S
C288 C290 1.500 . S
C288 O308 1.257 . S
C288 O309 1.260 . S
Eu289 C288 2.835 . S
Eu289 O308 2.473 . S
Eu289 O309 2.480 . S
Eu289 O310 2.430 . S
Eu289 O311 2.670 . S
Eu289 O312 2.394 . S
Eu289 O317 2.355 1_455 S
Eu289 O319 2.374 1_455 S
C290 C288 1.500 . S
C290 C291 1.377 . S
C290 C295 1.377 . S
C291 C290 1.377 . S
C291 C292 1.395 . S
C291 H320 0.931 . S
C292 C291 1.395 . S
C292 C293 1.383 . S
C292 H321 0.931 . S
C293 C292 1.383 . S
C293 C294 1.394 . S
C294 C293 1.394 . S
C294 C295 1.378 . S
C294 H322 0.931 . S
C295 C290 1.377 . S
C295 C294 1.378 . S
C295 H323 0.931 . S
C296 O310 1.259 . S
C296 O311 1.270 . S
C297 O312 1.251 . S
C297 O313 1.251 . S
C298 Eu299 2.835 . S
C298 C300 1.500 . S
C298 O314 1.257 . S
C298 O315 1.260 . S
Eu299 C298 2.835 . S
Eu299 O311 2.355 1_655 S
Eu299 O313 2.374 1_655 S
Eu299 O314 2.473 . S
Eu299 O315 2.480 . S
Eu299 O316 2.430 . S
Eu299 O317 2.670 . S
Eu299 O318 2.394 . S
C300 C298 1.500 . S
C300 C301 1.377 . S
C300 C305 1.377 . S
C301 C300 1.377 . S
C301 C302 1.395 . S
C301 H324 0.931 . S
C302 C301 1.395 . S
C302 C303 1.383 . S
C302 H325 0.931 . S
C303 C302 1.383 . S
C303 C304 1.394 . S
C304 C303 1.394 . S
C304 C305 1.378 . S
C304 H326 0.931 . S
C305 C300 1.377 . S
C305 C304 1.378 . S
C305 H327 0.931 . S
C306 O316 1.259 . S
C306 O317 1.270 . S
C307 O318 1.251 . S
C307 O319 1.251 . S
O308 C288 1.257 . S
O308 Eu289 2.473 . S
O309 C288 1.260 . S
O309 Eu289 2.480 . S
O310 Eu289 2.430 . S
O310 C296 1.259 . S
O311 Eu289 2.670 . S
O311 C296 1.270 . S
O311 Eu299 2.355 1_455 S
O312 Eu289 2.394 . S
O312 C297 1.251 . S
O313 C297 1.251 . S
O313 Eu299 2.374 1_455 S
O314 C298 1.257 . S
O314 Eu299 2.473 . S
O315 C298 1.260 . S
O315 Eu299 2.480 . S
O316 Eu299 2.430 . S
O316 C306 1.259 . S
O317 Eu289 2.355 1_655 S
O317 Eu299 2.670 . S
O317 C306 1.270 . S
O318 Eu299 2.394 . S
O318 C307 1.251 . S
O319 Eu289 2.374 1_655 S
O319 C307 1.251 . S
H320 C291 0.931 . S
H321 C292 0.931 . S
H322 C294 0.931 . S
H323 C295 0.931 . S
H324 C301 0.931 . S
H325 C302 0.931 . S
H326 C304 0.931 . S
H327 C305 0.931 . S
C328 Eu329 2.835 1_545 S
C328 C330 1.500 . S
C328 O348 1.257 . S
C328 O349 1.260 . S
Eu329 C328 2.835 1_565 S
Eu329 O348 2.473 1_565 S
Eu329 O349 2.480 1_565 S
Eu329 O350 2.430 . S
Eu329 O351 2.670 . S
Eu329 O352 2.394 1_565 S
Eu329 O357 2.355 1_565 S
Eu329 O359 2.374 . S
C330 C328 1.500 . S
C330 C331 1.377 . S
C330 C335 1.377 . S
C331 C330 1.377 . S
C331 C332 1.395 . S
C331 H360 0.931 . S
C332 C331 1.395 . S
C332 C333 1.383 . S
C332 H361 0.931 . S
C333 C332 1.383 . S
C333 C334 1.394 . S
C334 C333 1.394 . S
C334 C335 1.378 . S
C334 H362 0.931 . S
C335 C330 1.377 . S
C335 C334 1.378 . S
C335 H363 0.931 . S
C336 O350 1.259 . S
C336 O351 1.270 . S
C337 O352 1.251 . S
C337 O353 1.251 . S
C338 Eu339 2.835 1_565 S
C338 C340 1.500 . S
C338 O354 1.257 . S
C338 O355 1.260 . S
Eu339 C338 2.835 1_545 S
Eu339 O351 2.355 1_545 S
Eu339 O353 2.374 . S
Eu339 O354 2.473 1_545 S
Eu339 O355 2.480 1_545 S
Eu339 O356 2.430 . S
Eu339 O357 2.670 . S
Eu339 O358 2.394 1_545 S
C340 C338 1.500 . S
C340 C341 1.377 . S
C340 C345 1.377 . S
C341 C340 1.377 . S
C341 C342 1.395 . S
C341 H364 0.931 . S
C342 C341 1.395 . S
C342 C343 1.383 . S
C342 H365 0.931 . S
C343 C342 1.383 . S
C343 C344 1.394 . S
C344 C343 1.394 . S
C344 C345 1.378 . S
C344 H366 0.931 . S
C345 C340 1.377 . S
C345 C344 1.378 . S
C345 H367 0.931 . S
C346 O356 1.259 . S
C346 O357 1.270 . S
C347 O358 1.251 . S
C347 O359 1.251 . S
O348 C328 1.257 . S
O348 Eu329 2.473 1_545 S
O349 C328 1.260 . S
O349 Eu329 2.480 1_545 S
O350 Eu329 2.430 . S
O350 C336 1.259 . S
O351 Eu329 2.670 . S
O351 C336 1.270 . S
O351 Eu339 2.355 1_565 S
O352 Eu329 2.394 1_545 S
O352 C337 1.251 . S
O353 C337 1.251 . S
O353 Eu339 2.374 . S
O354 C338 1.257 . S
O354 Eu339 2.473 1_565 S
O355 C338 1.260 . S
O355 Eu339 2.480 1_565 S
O356 Eu339 2.430 . S
O356 C346 1.259 . S
O357 Eu329 2.355 1_545 S
O357 Eu339 2.670 . S
O357 C346 1.270 . S
O358 Eu339 2.394 1_565 S
O358 C347 1.251 . S
O359 Eu329 2.374 . S
O359 C347 1.251 . S
H360 C331 0.931 . S
H361 C332 0.931 . S
H362 C334 0.931 . S
H363 C335 0.931 . S
H364 C341 0.931 . S
H365 C342 0.931 . S
H366 C344 0.931 . S
H367 C345 0.931 . S
C368 Eu369 2.835 . S
C368 C370 1.500 . S
C368 O388 1.257 . S
C368 O389 1.260 . S
Eu369 C368 2.835 . S
Eu369 O388 2.473 . S
Eu369 O389 2.480 . S
Eu369 O390 2.430 . S
Eu369 O391 2.670 . S
Eu369 O392 2.394 . S
Eu369 O397 2.355 . S
Eu369 O399 2.374 . S
C370 C368 1.500 . S
C370 C371 1.377 . S
C370 C375 1.377 . S
C371 C370 1.377 . S
C371 C372 1.395 . S
C371 H400 0.931 . S
C372 C371 1.395 . S
C372 C373 1.383 . S
C372 H401 0.931 . S
C373 C372 1.383 . S
C373 C374 1.394 . S
C374 C373 1.394 . S
C374 C375 1.378 . S
C374 H402 0.931 . S
C375 C370 1.377 . S
C375 C374 1.378 . S
C375 H403 0.931 . S
C376 O390 1.259 . S
C376 O391 1.270 . S
C377 O392 1.251 . S
C377 O393 1.251 . S
C378 Eu379 2.835 . S
C378 C380 1.500 . S
C378 O394 1.257 . S
C378 O395 1.260 . S
Eu379 C378 2.835 . S
Eu379 O391 2.355 . S
Eu379 O393 2.374 . S
Eu379 O394 2.473 . S
Eu379 O395 2.480 . S
Eu379 O396 2.430 . S
Eu379 O397 2.670 . S
Eu379 O398 2.394 . S
C380 C378 1.500 . S
C380 C381 1.377 . S
C380 C385 1.377 . S
C381 C380 1.377 . S
C381 C382 1.395 . S
C381 H404 0.931 . S
C382 C381 1.395 . S
C382 C383 1.383 . S
C382 H405 0.931 . S
C383 C382 1.383 . S
C383 C384 1.394 . S
C384 C383 1.394 . S
C384 C385 1.378 . S
C384 H406 0.931 . S
C385 C380 1.377 . S
C385 C384 1.378 . S
C385 H407 0.931 . S
C386 O396 1.259 . S
C386 O397 1.270 . S
C387 O398 1.251 . S
C387 O399 1.251 . S
O388 C368 1.257 . S
O388 Eu369 2.473 . S
O389 C368 1.260 . S
O389 Eu369 2.480 . S
O390 Eu369 2.430 . S
O390 C376 1.259 . S
O391 Eu369 2.670 . S
O391 C376 1.270 . S
O391 Eu379 2.355 . S
O392 Eu369 2.394 . S
O392 C377 1.251 . S
O393 C377 1.251 . S
O393 Eu379 2.374 . S
O394 C378 1.257 . S
O394 Eu379 2.473 . S
O395 C378 1.260 . S
O395 Eu379 2.480 . S
O396 Eu379 2.430 . S
O396 C386 1.259 . S
O397 Eu369 2.355 . S
O397 Eu379 2.670 . S
O397 C386 1.270 . S
O398 Eu379 2.394 . S
O398 C387 1.251 . S
O399 Eu369 2.374 . S
O399 C387 1.251 . S
H400 C371 0.931 . S
H401 C372 0.931 . S
H402 C374 0.931 . S
H403 C375 0.931 . S
H404 C381 0.931 . S
H405 C382 0.931 . S
H406 C384 0.931 . S
H407 C385 0.931 . S
C408 Eu409 2.835 . S
C408 C410 1.500 . S
C408 O428 1.257 . S
C408 O429 1.260 . S
Eu409 C408 2.835 . S
Eu409 O428 2.473 . S
Eu409 O429 2.480 . S
Eu409 O430 2.430 . S
Eu409 O431 2.670 1_554 S
Eu409 O432 2.394 . S
Eu409 O437 2.355 1_554 S
Eu409 O439 2.374 1_554 S
C410 C408 1.500 . S
C410 C411 1.377 . S
C410 C415 1.377 . S
C411 C410 1.377 . S
C411 C412 1.395 . S
C411 H440 0.931 . S
C412 C411 1.395 . S
C412 C413 1.383 . S
C412 H441 0.931 . S
C413 C412 1.383 . S
C413 C414 1.394 . S
C414 C413 1.394 . S
C414 C415 1.378 . S
C414 H442 0.931 . S
C415 C410 1.377 . S
C415 C414 1.378 . S
C415 H443 0.931 . S
C416 O430 1.259 . S
C416 O431 1.270 1_554 S
C417 O432 1.251 . S
C417 O433 1.251 1_554 S
C418 Eu419 2.835 . S
C418 C420 1.500 . S
C418 O434 1.257 . S
C418 O435 1.260 . S
Eu419 C418 2.835 . S
Eu419 O431 2.355 . S
Eu419 O433 2.374 . S
Eu419 O434 2.473 . S
Eu419 O435 2.480 . S
Eu419 O436 2.430 . S
Eu419 O437 2.670 . S
Eu419 O438 2.394 . S
C420 C418 1.500 . S
C420 C421 1.377 . S
C420 C425 1.377 . S
C421 C420 1.377 . S
C421 C422 1.395 . S
C421 H444 0.931 . S
C422 C421 1.395 . S
C422 C423 1.383 . S
C422 H445 0.931 . S
C423 C422 1.383 . S
C423 C424 1.394 . S
C424 C423 1.394 . S
C424 C425 1.378 . S
C424 H446 0.931 . S
C425 C420 1.377 . S
C425 C424 1.378 . S
C425 H447 0.931 . S
C426 O436 1.259 . S
C426 O437 1.270 . S
C427 O438 1.251 . S
C427 O439 1.251 . S
O428 C408 1.257 . S
O428 Eu409 2.473 . S
O429 C408 1.260 . S
O429 Eu409 2.480 . S
O430 Eu409 2.430 . S
O430 C416 1.259 . S
O431 Eu409 2.670 1_556 S
O431 C416 1.270 1_556 S
O431 Eu419 2.355 . S
O432 Eu409 2.394 . S
O432 C417 1.251 . S
O433 C417 1.251 1_556 S
O433 Eu419 2.374 . S
O434 C418 1.257 . S
O434 Eu419 2.473 . S
O435 C418 1.260 . S
O435 Eu419 2.480 . S
O436 Eu419 2.430 . S
O436 C426 1.259 . S
O437 Eu409 2.355 1_556 S
O437 Eu419 2.670 . S
O437 C426 1.270 . S
O438 Eu419 2.394 . S
O438 C427 1.251 . S
O439 Eu409 2.374 1_556 S
O439 C427 1.251 . S
H440 C411 0.931 . S
H441 C412 0.931 . S
H442 C414 0.931 . S
H443 C415 0.931 . S
H444 C421 0.931 . S
H445 C422 0.931 . S
H446 C424 0.931 . S
H447 C425 0.931 . S
C448 Eu449 2.835 . S
C448 C450 1.500 . S
C448 O468 1.257 . S
C448 O469 1.260 . S
Eu449 C448 2.835 . S
Eu449 O468 2.473 . S
Eu449 O469 2.480 . S
Eu449 O470 2.430 1_554 S
Eu449 O471 2.670 1_554 S
Eu449 O472 2.394 1_554 S
Eu449 O477 2.355 . S
Eu449 O479 2.374 . S
C450 C448 1.500 . S
C450 C451 1.379 . S
C450 C455 1.377 . S
C451 C450 1.379 . S
C451 C452 1.397 1_554 S
C451 H480 0.929 1_554 S
C452 C451 1.397 1_556 S
C452 C453 1.383 . S
C452 H481 0.932 . S
C453 C452 1.383 . S
C453 C454 1.393 1_556 S
C454 C453 1.393 1_554 S
C454 C455 1.378 . S
C454 H482 0.931 . S
C455 C450 1.377 . S
C455 C454 1.378 . S
C455 H483 0.931 . S
C456 O470 1.259 . S
C456 O471 1.270 . S
C457 O472 1.251 . S
C457 O473 1.251 . S
C458 Eu459 2.835 . S
C458 C460 1.500 . S
C458 O474 1.257 . S
C458 O475 1.260 . S
Eu459 C458 2.835 . S
Eu459 O471 2.355 . S
Eu459 O473 2.374 . S
Eu459 O474 2.473 . S
Eu459 O475 2.480 . S
Eu459 O476 2.430 1_556 S
Eu459 O477 2.670 1_556 S
Eu459 O478 2.394 1_556 S
C460 C458 1.500 . S
C460 C461 1.380 . S
C460 C465 1.377 1_545 S
C461 C460 1.380 . S
C461 C462 1.397 1_556 S
C461 H484 0.929 1_556 S
C462 C461 1.397 1_554 S
C462 C463 1.383 1_545 S
C462 H485 0.932 . S
C463 C462 1.383 1_565 S
C463 C464 1.394 1_554 S
C464 C463 1.394 1_556 S
C464 C465 1.378 . S
C464 H486 0.931 . S
C465 C460 1.377 1_565 S
C465 C464 1.378 . S
C465 H487 0.931 . S
C466 O476 1.259 . S
C466 O477 1.270 . S
C467 O478 1.251 . S
C467 O479 1.251 . S
O468 C448 1.257 . S
O468 Eu449 2.473 . S
O469 C448 1.260 . S
O469 Eu449 2.480 . S
O470 Eu449 2.430 1_556 S
O470 C456 1.259 . S
O471 Eu449 2.670 1_556 S
O471 C456 1.270 . S
O471 Eu459 2.355 . S
O472 Eu449 2.394 1_556 S
O472 C457 1.251 . S
O473 C457 1.251 . S
O473 Eu459 2.374 . S
O474 C458 1.257 . S
O474 Eu459 2.473 . S
O475 C458 1.260 . S
O475 Eu459 2.480 . S
O476 Eu459 2.430 1_554 S
O476 C466 1.259 . S
O477 Eu449 2.355 . S
O477 Eu459 2.670 1_554 S
O477 C466 1.270 . S
O478 Eu459 2.394 1_554 S
O478 C467 1.251 . S
O479 Eu449 2.374 . S
O479 C467 1.251 . S
H480 C451 0.929 1_556 S
H481 C452 0.932 . S
H482 C454 0.931 . S
H483 C455 0.931 . S
H484 C461 0.929 1_554 S
H485 C462 0.932 . S
H486 C464 0.931 . S
H487 C465 0.931 . S
H488 C496 0.950 . S
H489 C501 0.984 . S
H490 C498 0.950 . S
H491 C500 0.950 . S
H492 C502 0.950 . S
H493 C504 0.950 . S
H494 C506 0.950 . S
H495 C507 0.950 . S
C496 H488 0.950 . S
C496 C497 1.386 . S
C496 C498 1.391 . S
C497 C496 1.386 . S
C497 C501 1.393 . S
C498 H490 0.950 . S
C498 C496 1.391 . S
C498 C499 1.400 . S
C499 C498 1.400 . S
C499 C500 1.398 . S
C499 C505 1.491 . S
C500 H491 0.950 . S
C500 C499 1.398 . S
C500 C501 1.391 . S
C501 H489 0.984 . S
C501 C497 1.393 . S
C501 C500 1.391 . S
C502 H492 0.950 . S
C502 C503 1.386 . S
C502 C504 1.391 . S
C503 C502 1.386 . S
C503 C507 1.393 . S
C504 H493 0.950 . S
C504 C502 1.391 . S
C504 C505 1.400 . S
C505 C499 1.491 . S
C505 C504 1.400 . S
C505 C506 1.398 . S
C506 H494 0.950 . S
C506 C505 1.398 . S
C506 C507 1.391 . S
C507 H495 0.950 . S
C507 C503 1.393 . S
C507 C506 1.391 . S
H508 C516 0.950 . S
H509 C521 0.952 . S
H510 C518 0.950 . S
H511 C520 0.950 . S
H512 C522 0.950 . S
H513 C524 0.950 . S
H514 C526 0.950 . S
H515 C527 0.950 . S
C516 H508 0.950 . S
C516 C517 1.386 . S
C516 C518 1.391 . S
C517 C516 1.386 . S
C517 C521 1.393 . S
C518 H510 0.950 . S
C518 C516 1.391 . S
C518 C519 1.400 . S
C519 C518 1.400 . S
C519 C520 1.398 . S
C519 C525 1.491 . S
C520 H511 0.950 . S
C520 C519 1.398 . S
C520 C521 1.391 . S
C521 H509 0.952 . S
C521 C517 1.393 . S
C521 C520 1.391 . S
C522 H512 0.950 . S
C522 C523 1.386 . S
C522 C524 1.391 . S
C523 C522 1.386 . S
C523 C527 1.393 . S
C524 H513 0.950 . S
C524 C522 1.391 . S
C524 C525 1.400 . S
C525 C519 1.491 . S
C525 C524 1.400 . S
C525 C526 1.398 . S
C526 H514 0.950 . S
C526 C525 1.398 . S
C526 C527 1.391 . S
C527 H515 0.950 . S
C527 C523 1.393 . S
C527 C526 1.391 . S
H528 C536 0.950 . S
H529 C541 0.950 . S
H530 C538 0.950 . S
H531 C540 0.950 . S
H532 C542 0.950 . S
H533 C544 0.950 . S
H534 C546 0.950 1_655 S
H535 C547 0.950 1_655 S
C536 H528 0.950 . S
C536 C537 1.386 1_655 S
C536 C538 1.391 . S
C537 C536 1.386 1_455 S
C537 C541 1.393 . S
C538 H530 0.950 . S
C538 C536 1.391 . S
C538 C539 1.400 1_655 S
C539 C538 1.400 1_455 S
C539 C540 1.398 . S
C539 C545 1.491 . S
C540 H531 0.950 . S
C540 C539 1.398 . S
C540 C541 1.391 . S
C541 H529 0.950 . S
C541 C537 1.393 . S
C541 C540 1.391 . S
C542 H532 0.950 . S
C542 C543 1.386 . S
C542 C544 1.391 . S
C543 C542 1.386 . S
C543 C547 1.393 . S
C544 H533 0.950 . S
C544 C542 1.391 . S
C544 C545 1.400 . S
C545 C539 1.491 . S
C545 C544 1.400 . S
C545 C546 1.398 . S
C546 H534 0.950 1_455 S
C546 C545 1.398 . S
C546 C547 1.391 . S
C547 H535 0.950 1_455 S
C547 C543 1.393 . S
C547 C546 1.391 . S
H548 C556 0.950 . S
H549 C561 0.950 . S
H550 C558 0.950 . S
H551 C560 0.950 . S
H552 C562 0.950 . S
H553 C564 0.950 . S
H554 C566 0.950 . S
H555 C567 0.950 . S
C556 H548 0.950 . S
C556 C557 1.386 1_455 S
C556 C558 1.391 . S
C557 C556 1.386 1_655 S
C557 C561 1.393 . S
C558 H550 0.950 . S
C558 C556 1.391 . S
C558 C559 1.400 1_455 S
C559 C558 1.400 1_655 S
C559 C560 1.398 . S
C559 C565 1.491 . S
C560 H551 0.950 . S
C560 C559 1.398 . S
C560 C561 1.391 . S
C561 H549 0.950 . S
C561 C557 1.393 . S
C561 C560 1.391 . S
C562 H552 0.950 . S
C562 C563 1.386 . S
C562 C564 1.391 . S
C563 C562 1.386 . S
C563 C567 1.393 1_655 S
C564 H553 0.950 . S
C564 C562 1.391 . S
C564 C565 1.400 . S
C565 C559 1.491 . S
C565 C564 1.400 . S
C565 C566 1.398 1_655 S
C566 H554 0.950 . S
C566 C565 1.398 1_455 S
C566 C567 1.391 . S
C567 H555 0.950 . S
C567 C563 1.393 1_455 S
C567 C566 1.391 . S
H568 C576 0.950 . S
H569 C581 0.950 . S
H570 C578 0.950 . S
H571 C580 0.950 . S
H572 C582 0.950 . S
H573 C584 0.950 . S
H574 C586 0.950 1_565 S
H575 C587 0.950 1_565 S
C576 H568 0.950 . S
C576 C577 1.386 1_565 S
C576 C578 1.391 . S
C577 C576 1.386 1_545 S
C577 C581 1.393 . S
C578 H570 0.950 . S
C578 C576 1.391 . S
C578 C579 1.400 1_565 S
C579 C578 1.400 1_545 S
C579 C580 1.398 . S
C579 C585 1.491 . S
C580 H571 0.950 . S
C580 C579 1.398 . S
C580 C581 1.391 . S
C581 H569 0.950 . S
C581 C577 1.393 . S
C581 C580 1.391 . S
C582 H572 0.950 . S
C582 C583 1.386 . S
C582 C584 1.391 . S
C583 C582 1.386 . S
C583 C587 1.393 . S
C584 H573 0.950 . S
C584 C582 1.391 . S
C584 C585 1.400 . S
C585 C579 1.491 . S
C585 C584 1.400 . S
C585 C586 1.398 . S
C586 H574 0.950 1_545 S
C586 C585 1.398 . S
C586 C587 1.391 . S
C587 H575 0.950 1_545 S
C587 C583 1.393 . S
C587 C586 1.391 . S
H588 C596 0.950 . S
H589 C601 0.950 . S
H590 C598 0.950 . S
H591 C600 0.950 . S
H592 C602 0.950 . S
H593 C604 0.950 . S
H594 C606 0.950 . S
H595 C607 0.950 . S
C596 H588 0.950 . S
C596 C597 1.386 . S
C596 C598 1.391 . S
C597 C596 1.386 . S
C597 C601 1.393 . S
C598 H590 0.950 . S
C598 C596 1.391 . S
C598 C599 1.400 . S
C599 C598 1.400 . S
C599 C600 1.398 . S
C599 C605 1.491 . S
C600 H591 0.950 . S
C600 C599 1.398 . S
C600 C601 1.391 . S
C601 H589 0.950 . S
C601 C597 1.393 . S
C601 C600 1.391 . S
C602 H592 0.950 . S
C602 C603 1.386 . S
C602 C604 1.391 . S
C603 C602 1.386 . S
C603 C607 1.393 . S
C604 H593 0.950 . S
C604 C602 1.391 . S
C604 C605 1.400 . S
C605 C599 1.491 . S
C605 C604 1.400 . S
C605 C606 1.398 . S
C606 H594 0.950 . S
C606 C605 1.398 . S
C606 C607 1.391 . S
C607 H595 0.950 . S
C607 C603 1.393 . S
C607 C606 1.391 . S
H608 C616 0.950 . S
H609 C621 0.950 . S
H610 C618 0.950 . S
H611 C620 0.950 . S
H612 C622 0.950 . S
H613 C624 0.943 1_565 S
H614 C626 0.950 . S
H615 C627 0.950 . S
C616 H608 0.950 . S
C616 C617 1.376 1_545 S
C616 C618 1.391 . S
C617 C616 1.376 1_565 S
C617 C621 1.398 . S
C618 H610 0.950 . S
C618 C616 1.391 . S
C618 C619 1.400 . S
C619 C618 1.400 . S
C619 C620 1.398 1_545 S
C619 C625 1.491 . S
C620 H611 0.950 . S
C620 C619 1.398 1_565 S
C620 C621 1.391 . S
C621 H609 0.950 . S
C621 C617 1.398 . S
C621 C620 1.391 . S
C622 H612 0.950 . S
C622 C623 1.386 . S
C622 C624 1.391 . S
C623 C622 1.386 . S
C623 C627 1.393 . S
C624 H613 0.943 1_545 S
C624 C622 1.391 . S
C624 C625 1.400 . S
C625 C619 1.491 . S
C625 C624 1.400 . S
C625 C626 1.398 . S
C626 H614 0.950 . S
C626 C625 1.398 . S
C626 C627 1.391 . S
C627 H615 0.950 . S
C627 C623 1.393 . S
C627 C626 1.391 . S
H628 C636 0.950 . S
H629 C641 0.950 . S
H630 C638 0.950 . S
H631 C640 0.950 . S
H632 C642 0.950 . S
H633 C644 0.950 . S
H634 C646 0.950 . S
H635 C647 0.950 . S
C636 H628 0.950 . S
C636 C637 1.386 . S
C636 C638 1.391 . S
C637 C636 1.386 . S
C637 C641 1.393 . S
C638 H630 0.950 . S
C638 C636 1.391 . S
C638 C639 1.400 . S
C639 C638 1.400 . S
C639 C640 1.398 . S
C639 C645 1.491 . S
C640 H631 0.950 . S
C640 C639 1.398 . S
C640 C641 1.391 . S
C641 H629 0.950 . S
C641 C637 1.393 . S
C641 C640 1.391 . S
C642 H632 0.950 . S
C642 C643 1.386 . S
C642 C644 1.391 . S
C643 C642 1.386 . S
C643 C647 1.393 . S
C644 H633 0.950 . S
C644 C642 1.391 . S
C644 C645 1.400 . S
C645 C639 1.491 . S
C645 C644 1.400 . S
C645 C646 1.398 . S
C646 H634 0.950 . S
C646 C645 1.398 . S
C646 C647 1.391 . S
C647 H635 0.950 . S
C647 C643 1.393 . S
C647 C646 1.391 . S
H648 C656 0.950 . S
H649 C661 0.950 . S
H650 C658 0.950 . S
H651 C660 0.950 . S
H652 C662 0.950 . S
H653 C664 0.950 . S
H654 C666 0.950 . S
H655 C667 0.950 . S
C656 H648 0.950 . S
C656 C657 1.386 . S
C656 C658 1.391 . S
C657 C656 1.386 . S
C657 C661 1.393 1_554 S
C658 H650 0.950 . S
C658 C656 1.391 . S
C658 C659 1.400 . S
C659 C658 1.400 . S
C659 C660 1.398 1_554 S
C659 C665 1.491 . S
C660 H651 0.950 . S
C660 C659 1.398 1_556 S
C660 C661 1.391 . S
C661 H649 0.950 . S
C661 C657 1.393 1_556 S
C661 C660 1.391 . S
C662 H652 0.950 . S
C662 C663 1.386 1_556 S
C662 C664 1.391 . S
C663 C662 1.386 1_554 S
C663 C667 1.393 . S
C664 H653 0.950 . S
C664 C662 1.391 . S
C664 C665 1.400 1_556 S
C665 C659 1.491 . S
C665 C664 1.400 1_554 S
C665 C666 1.398 . S
C666 H654 0.950 . S
C666 C665 1.398 . S
C666 C667 1.391 . S
C667 H655 0.950 . S
C667 C663 1.393 . S
C667 C666 1.391 . S
H668 C676 0.950 . S
H669 C681 0.950 . S
H670 C678 0.950 . S
H671 C680 0.950 . S
H672 C682 0.950 . S
H673 C684 0.950 . S
H674 C686 0.950 . S
H675 C687 0.950 . S
C676 H668 0.950 . S
C676 C677 1.386 . S
C676 C678 1.391 . S
C677 C676 1.386 . S
C677 C681 1.393 . S
C678 H670 0.950 . S
C678 C676 1.391 . S
C678 C679 1.400 . S
C679 C678 1.400 . S
C679 C680 1.398 . S
C679 C685 1.491 . S
C680 H671 0.950 . S
C680 C679 1.398 . S
C680 C681 1.391 . S
C681 H669 0.950 . S
C681 C677 1.393 . S
C681 C680 1.391 . S
C682 H672 0.950 . S
C682 C683 1.386 . S
C682 C684 1.391 . S
C683 C682 1.386 . S
C683 C687 1.393 . S
C684 H673 0.950 . S
C684 C682 1.391 . S
C684 C685 1.400 . S
C685 C679 1.491 . S
C685 C684 1.400 . S
C685 C686 1.398 . S
C686 H674 0.950 . S
C686 C685 1.398 . S
C686 C687 1.391 . S
C687 H675 0.950 . S
C687 C683 1.393 . S
C687 C686 1.391 . S
H688 C696 0.950 . S
H689 C701 0.950 . S
H690 C698 0.950 . S
H691 C700 0.950 . S
H692 C702 0.950 . S
H693 C704 0.950 . S
H694 C706 0.950 . S
H695 C707 0.950 . S
C696 H688 0.950 . S
C696 C697 1.386 . S
C696 C698 1.391 . S
C697 C696 1.386 . S
C697 C701 1.393 . S
C698 H690 0.950 . S
C698 C696 1.391 . S
C698 C699 1.400 . S
C699 C698 1.400 . S
C699 C700 1.398 . S
C699 C705 1.491 . S
C700 H691 0.950 . S
C700 C699 1.398 . S
C700 C701 1.391 . S
C701 H689 0.950 . S
C701 C697 1.393 . S
C701 C700 1.391 . S
C702 H692 0.950 . S
C702 C703 1.386 . S
C702 C704 1.391 1_455 S
C703 C702 1.386 . S
C703 C707 1.393 . S
C704 H693 0.950 . S
C704 C702 1.391 1_655 S
C704 C705 1.400 . S
C705 C699 1.491 . S
C705 C704 1.400 . S
C705 C706 1.398 . S
C706 H694 0.950 . S
C706 C705 1.398 . S
C706 C707 1.391 1_655 S
C707 H695 0.950 . S
C707 C703 1.393 . S
C707 C706 1.391 1_455 S
H708 C716 0.950 . S
H709 C721 0.950 . S
H710 C718 0.950 . S
H711 C720 0.950 . S
H712 C722 0.950 . S
H713 C724 0.950 . S
H714 C726 0.950 . S
H715 C727 0.950 . S
C716 H708 0.950 . S
C716 C717 1.386 . S
C716 C718 1.391 . S
C717 C716 1.386 . S
C717 C721 1.393 . S
C718 H710 0.950 . S
C718 C716 1.391 . S
C718 C719 1.400 . S
C719 C718 1.400 . S
C719 C720 1.398 . S
C719 C725 1.491 . S
C720 H711 0.950 . S
C720 C719 1.398 . S
C720 C721 1.391 . S
C721 H709 0.950 . S
C721 C717 1.393 . S
C721 C720 1.391 . S
C722 H712 0.950 . S
C722 C723 1.386 . S
C722 C724 1.391 . S
C723 C722 1.386 . S
C723 C727 1.393 . S
C724 H713 0.950 . S
C724 C722 1.391 . S
C724 C725 1.400 . S
C725 C719 1.491 . S
C725 C724 1.400 . S
C725 C726 1.398 . S
C726 H714 0.950 . S
C726 C725 1.398 . S
C726 C727 1.391 . S
C727 H715 0.950 . S
C727 C723 1.393 . S
C727 C726 1.391 . S
H728 C736 0.950 . S
H729 C741 0.950 . S
H730 C738 0.950 . S
H731 C740 0.950 . S
H732 C742 0.950 . S
H733 C744 0.950 . S
H734 C746 0.950 . S
H735 C747 0.950 . S
C736 H728 0.950 . S
C736 C737 1.386 . S
C736 C738 1.391 . S
C737 C736 1.386 . S
C737 C741 1.393 . S
C738 H730 0.950 . S
C738 C736 1.391 . S
C738 C739 1.400 . S
C739 C738 1.400 . S
C739 C740 1.398 . S
C739 C745 1.491 . S
C740 H731 0.950 . S
C740 C739 1.398 . S
C740 C741 1.391 . S
C741 H729 0.950 . S
C741 C737 1.393 . S
C741 C740 1.391 . S
C742 H732 0.950 . S
C742 C743 1.386 . S
C742 C744 1.391 . S
C743 C742 1.386 . S
C743 C747 1.393 . S
C744 H733 0.950 . S
C744 C742 1.391 . S
C744 C745 1.400 . S
C745 C739 1.491 . S
C745 C744 1.400 . S
C745 C746 1.398 . S
C746 H734 0.950 . S
C746 C745 1.398 . S
C746 C747 1.391 . S
C747 H735 0.950 . S
C747 C743 1.393 . S
C747 C746 1.391 . S
H748 C756 0.950 . S
H749 C761 0.950 . S
H750 C758 0.950 . S
H751 C760 0.950 . S
H752 C762 0.950 . S
H753 C764 0.950 . S
H754 C766 0.950 . S
H755 C767 0.950 . S
C756 H748 0.950 . S
C756 C757 1.386 . S
C756 C758 1.391 . S
C757 C756 1.386 . S
C757 C761 1.393 . S
C758 H750 0.950 . S
C758 C756 1.391 . S
C758 C759 1.400 . S
C759 C758 1.400 . S
C759 C760 1.398 . S
C759 C765 1.491 . S
C760 H751 0.950 . S
C760 C759 1.398 . S
C760 C761 1.391 . S
C761 H749 0.950 . S
C761 C757 1.393 . S
C761 C760 1.391 . S
C762 H752 0.950 . S
C762 C763 1.386 . S
C762 C764 1.391 . S
C763 C762 1.386 . S
C763 C767 1.393 . S
C764 H753 0.950 . S
C764 C762 1.391 . S
C764 C765 1.400 . S
C765 C759 1.491 . S
C765 C764 1.400 . S
C765 C766 1.398 . S
C766 H754 0.950 . S
C766 C765 1.398 . S
C766 C767 1.391 . S
C767 H755 0.950 . S
C767 C763 1.393 . S
C767 C766 1.391 . S
H768 C776 0.950 . S
H769 C781 0.950 . S
H770 C778 0.950 . S
H771 C780 0.950 . S
H772 C782 0.950 . S
H773 C784 0.950 . S
H774 C786 0.950 . S
H775 C787 0.950 . S
C776 H768 0.950 . S
C776 C777 1.386 . S
C776 C778 1.391 . S
C777 C776 1.386 . S
C777 C781 1.393 . S
C778 H770 0.950 . S
C778 C776 1.391 . S
C778 C779 1.400 . S
C779 C778 1.400 . S
C779 C780 1.398 . S
C779 C785 1.491 . S
C780 H771 0.950 . S
C780 C779 1.398 . S
C780 C781 1.391 . S
C781 H769 0.950 . S
C781 C777 1.393 . S
C781 C780 1.391 . S
C782 H772 0.950 . S
C782 C783 1.386 . S
C782 C784 1.391 . S
C783 C782 1.386 . S
C783 C787 1.393 . S
C784 H773 0.950 . S
C784 C782 1.391 . S
C784 C785 1.400 . S
C785 C779 1.491 . S
C785 C784 1.400 . S
C785 C786 1.398 . S
C786 H774 0.950 . S
C786 C785 1.398 . S
C786 C787 1.391 . S
C787 H775 0.950 . S
C787 C783 1.393 . S
C787 C786 1.391 . S
H788 C796 0.950 . S
H789 C801 0.950 . S
H790 C798 0.950 . S
H791 C800 0.950 . S
H792 C802 0.950 . S
H793 C804 0.950 . S
H794 C806 0.950 . S
H795 C807 0.950 . S
C796 H788 0.950 . S
C796 C797 1.386 . S
C796 C798 1.391 . S
C797 C796 1.386 . S
C797 C801 1.393 . S
C798 H790 0.950 . S
C798 C796 1.391 . S
C798 C799 1.400 . S
C799 C798 1.400 . S
C799 C800 1.398 . S
C799 C805 1.491 . S
C800 H791 0.950 . S
C800 C799 1.398 . S
C800 C801 1.391 . S
C801 H789 0.950 . S
C801 C797 1.393 . S
C801 C800 1.391 . S
C802 H792 0.950 . S
C802 C803 1.386 . S
C802 C804 1.391 . S
C803 C802 1.386 . S
C803 C807 1.393 . S
C804 H793 0.950 . S
C804 C802 1.391 . S
C804 C805 1.400 . S
C805 C799 1.491 . S
C805 C804 1.400 . S
C805 C806 1.398 . S
C806 H794 0.950 . S
C806 C805 1.398 . S
C806 C807 1.391 . S
C807 H795 0.950 . S
C807 C803 1.393 . S
C807 C806 1.391 . S
H808 C816 0.950 . S
H809 C821 0.950 . S
H810 C818 0.950 . S
H811 C820 0.950 . S
H812 C822 0.950 . S
H813 C824 0.950 . S
H814 C826 0.950 . S
H815 C827 0.950 . S
C816 H808 0.950 . S
C816 C817 1.386 . S
C816 C818 1.391 . S
C817 C816 1.386 . S
C817 C821 1.393 . S
C818 H810 0.950 . S
C818 C816 1.391 . S
C818 C819 1.400 . S
C819 C818 1.400 . S
C819 C820 1.398 . S
C819 C825 1.491 . S
C820 H811 0.950 . S
C820 C819 1.398 . S
C820 C821 1.391 . S
C821 H809 0.950 . S
C821 C817 1.393 . S
C821 C820 1.391 . S
C822 H812 0.950 . S
C822 C823 1.386 . S
C822 C824 1.391 . S
C823 C822 1.386 . S
C823 C827 1.393 . S
C824 H813 0.950 . S
C824 C822 1.391 . S
C824 C825 1.400 . S
C825 C819 1.491 . S
C825 C824 1.400 . S
C825 C826 1.398 . S
C826 H814 0.950 . S
C826 C825 1.398 . S
C826 C827 1.391 . S
C827 H815 0.950 . S
C827 C823 1.393 . S
C827 C826 1.391 . S
H828 C836 0.950 . S
H829 C841 0.950 . S
H830 C838 0.950 . S
H831 C840 0.950 . S
H832 C842 0.950 . S
H833 C844 0.950 . S
H834 C846 0.957 . S
H835 C847 0.950 . S
C836 H828 0.950 . S
C836 C837 1.386 . S
C836 C838 1.391 . S
C837 C836 1.386 . S
C837 C841 1.393 1_565 S
C838 H830 0.950 . S
C838 C836 1.391 . S
C838 C839 1.400 1_565 S
C839 C838 1.400 1_545 S
C839 C840 1.398 . S
C839 C845 1.491 . S
C840 H831 0.950 . S
C840 C839 1.398 . S
C840 C841 1.391 . S
C841 H829 0.950 . S
C841 C837 1.393 1_545 S
C841 C840 1.391 . S
C842 H832 0.950 . S
C842 C843 1.386 . S
C842 C844 1.391 . S
C843 C842 1.386 . S
C843 C847 1.393 . S
C844 H833 0.950 . S
C844 C842 1.391 . S
C844 C845 1.400 . S
C845 C839 1.491 . S
C845 C844 1.400 . S
C845 C846 1.398 . S
C846 H834 0.957 . S
C846 C845 1.398 . S
C846 C847 1.391 . S
C847 H835 0.950 . S
C847 C843 1.393 . S
C847 C846 1.391 . S
H848 C856 0.950 . S
H849 C861 0.950 . S
H850 C858 0.950 . S
H851 C860 0.950 . S
H852 C862 0.949 1_554 S
H853 C864 0.950 . S
H854 C866 0.950 . S
H855 C867 0.950 . S
C856 H848 0.950 . S
C856 C857 1.386 . S
C856 C858 1.391 . S
C857 C856 1.386 . S
C857 C861 1.393 . S
C858 H850 0.950 . S
C858 C856 1.391 . S
C858 C859 1.400 . S
C859 C858 1.400 . S
C859 C860 1.398 . S
C859 C865 1.491 . S
C860 H851 0.950 . S
C860 C859 1.398 . S
C860 C861 1.391 . S
C861 H849 0.950 . S
C861 C857 1.393 . S
C861 C860 1.391 . S
C862 H852 0.949 1_556 S
C862 C863 1.385 1_556 S
C862 C864 1.393 . S
C863 C862 1.385 1_554 S
C863 C867 1.393 . S
C864 H853 0.950 . S
C864 C862 1.393 . S
C864 C865 1.400 . S
C865 C859 1.491 . S
C865 C864 1.400 . S
C865 C866 1.398 . S
C866 H854 0.950 . S
C866 C865 1.398 . S
C866 C867 1.391 1_556 S
C867 H855 0.950 . S
C867 C863 1.393 . S
C867 C866 1.391 1_554 S
H868 C876 0.950 . S
H869 C881 0.950 . S
H870 C878 0.950 . S
H871 C880 0.950 1_565 S
H872 C882 0.950 . S
H873 C884 0.950 . S
H874 C886 0.950 1_556 S
H875 C887 0.950 . S
C876 H868 0.950 . S
C876 C877 1.386 . S
C876 C878 1.391 . S
C877 C876 1.386 . S
C877 C881 1.393 1_545 S
C878 H870 0.950 . S
C878 C876 1.391 . S
C878 C879 1.400 . S
C879 C878 1.400 . S
C879 C880 1.398 . S
C879 C885 1.491 . S
C880 H871 0.950 1_545 S
C880 C879 1.398 . S
C880 C881 1.391 1_545 S
C881 H869 0.950 . S
C881 C877 1.393 1_565 S
C881 C880 1.391 1_565 S
C882 H872 0.950 . S
C882 C883 1.386 . S
C882 C884 1.391 . S
C883 C882 1.386 . S
C883 C887 1.393 . S
C884 H873 0.950 . S
C884 C882 1.391 . S
C884 C885 1.400 1_554 S
C885 C879 1.491 . S
C885 C884 1.400 1_556 S
C885 C886 1.398 1_556 S
C886 H874 0.950 1_554 S
C886 C885 1.398 1_554 S
C886 C887 1.391 . S
C887 H875 0.950 . S
C887 C883 1.393 . S
C887 C886 1.391 . S
H888 C896 0.950 . S
H889 C901 0.950 . S
H890 C898 0.950 . S
H891 C900 0.950 . S
H892 C902 0.950 . S
H893 C904 0.950 . S
H894 C906 0.950 . S
H895 C907 0.950 . S
C896 H888 0.950 . S
C896 C897 1.386 . S
C896 C898 1.391 . S
C897 C896 1.386 . S
C897 C901 1.393 . S
C898 H890 0.950 . S
C898 C896 1.391 . S
C898 C899 1.400 . S
C899 C898 1.400 . S
C899 C900 1.398 . S
C899 C905 1.491 . S
C900 H891 0.950 . S
C900 C899 1.398 . S
C900 C901 1.391 . S
C901 H889 0.950 . S
C901 C897 1.393 . S
C901 C900 1.391 . S
C902 H892 0.950 . S
C902 C903 1.386 . S
C902 C904 1.391 . S
C903 C902 1.386 . S
C903 C907 1.393 . S
C904 H893 0.950 . S
C904 C902 1.391 . S
C904 C905 1.400 . S
C905 C899 1.491 . S
C905 C904 1.400 . S
C905 C906 1.398 . S
C906 H894 0.950 . S
C906 C905 1.398 . S
C906 C907 1.391 . S
C907 H895 0.950 . S
C907 C903 1.393 . S
C907 C906 1.391 . S
H908 C916 0.950 . S
H909 C921 0.950 . S
H910 C918 0.950 . S
H911 C920 0.950 . S
H912 C922 0.950 . S
H913 C924 0.950 . S
H914 C926 0.950 . S
H915 C927 0.950 . S
C916 H908 0.950 . S
C916 C917 1.386 1_554 S
C916 C918 1.391 . S
C917 C916 1.386 1_556 S
C917 C921 1.393 . S
C918 H910 0.950 . S
C918 C916 1.391 . S
C918 C919 1.400 1_554 S
C919 C918 1.400 1_556 S
C919 C920 1.398 . S
C919 C925 1.491 . S
C920 H911 0.950 . S
C920 C919 1.398 . S
C920 C921 1.391 . S
C921 H909 0.950 . S
C921 C917 1.393 . S
C921 C920 1.391 . S
C922 H912 0.950 . S
C922 C923 1.399 . S
C922 C924 1.391 . S
C923 C922 1.399 . S
C923 C927 1.379 1_556 S
C924 H913 0.950 . S
C924 C922 1.391 . S
C924 C925 1.400 . S
C925 C919 1.491 . S
C925 C924 1.400 . S
C925 C926 1.398 1_556 S
C926 H914 0.950 . S
C926 C925 1.398 1_554 S
C926 C927 1.391 . S
C927 H915 0.950 . S
C927 C923 1.379 1_554 S
C927 C926 1.391 . S
H928 C936 0.950 . S
H929 C941 0.950 . S
H930 C938 0.950 . S
H931 C940 0.950 . S
H932 C942 0.950 . S
H933 C944 0.950 . S
H934 C946 0.958 . S
H935 C947 0.950 . S
C936 H928 0.950 . S
C936 C937 1.386 . S
C936 C938 1.391 . S
C937 C936 1.386 . S
C937 C941 1.393 . S
C938 H930 0.950 . S
C938 C936 1.391 . S
C938 C939 1.400 1_556 S
C939 C938 1.400 1_554 S
C939 C940 1.398 . S
C939 C945 1.491 . S
C940 H931 0.950 . S
C940 C939 1.398 . S
C940 C941 1.391 1_554 S
C941 H929 0.950 . S
C941 C937 1.393 . S
C941 C940 1.391 1_556 S
C942 H932 0.950 . S
C942 C943 1.386 . S
C942 C944 1.391 . S
C943 C942 1.386 . S
C943 C947 1.393 . S
C944 H933 0.950 . S
C944 C942 1.391 . S
C944 C945 1.400 . S
C945 C939 1.491 . S
C945 C944 1.400 . S
C945 C946 1.398 . S
C946 H934 0.958 . S
C946 C945 1.398 . S
C946 C947 1.391 . S
C947 H935 0.950 . S
C947 C943 1.393 . S
C947 C946 1.391 . S
H948 C956 0.952 . S
H949 C961 0.950 . S
H950 C958 0.950 1_556 S
H951 C960 0.950 . S
H952 C962 0.950 . S
H953 C964 0.950 . S
H954 C966 0.950 . S
H955 C967 0.950 . S
C956 H948 0.952 . S
C956 C957 1.384 1_556 S
C956 C958 1.390 1_556 S
C957 C956 1.384 1_554 S
C957 C961 1.393 . S
C958 H950 0.950 1_554 S
C958 C956 1.390 1_554 S
C958 C959 1.400 . S
C959 C958 1.400 . S
C959 C960 1.398 . S
C959 C965 1.491 . S
C960 H951 0.950 . S
C960 C959 1.398 . S
C960 C961 1.391 . S
C961 H949 0.950 . S
C961 C957 1.393 . S
C961 C960 1.391 . S
C962 H952 0.950 . S
C962 C963 1.386 . S
C962 C964 1.391 1_455 S
C963 C962 1.386 . S
C963 C967 1.393 . S
C964 H953 0.950 . S
C964 C962 1.391 1_655 S
C964 C965 1.400 . S
C965 C959 1.491 . S
C965 C964 1.400 . S
C965 C966 1.398 1_655 S
C966 H954 0.950 . S
C966 C965 1.398 1_455 S
C966 C967 1.391 . S
C967 H955 0.950 . S
C967 C963 1.393 . S
C967 C966 1.391 . S
H968 C976 0.950 . S
H969 C981 0.950 . S
H970 C978 0.950 . S
H971 C980 0.950 . S
H972 C982 0.950 . S
H973 C984 0.950 . S
H974 C986 0.950 . S
H975 C987 0.950 . S
C976 H968 0.950 . S
C976 C977 1.386 . S
C976 C978 1.391 . S
C977 C976 1.386 . S
C977 C981 1.393 . S
C978 H970 0.950 . S
C978 C976 1.391 . S
C978 C979 1.400 . S
C979 C978 1.400 . S
C979 C980 1.398 . S
C979 C985 1.491 . S
C980 H971 0.950 . S
C980 C979 1.398 . S
C980 C981 1.391 . S
C981 H969 0.950 . S
C981 C977 1.393 . S
C981 C980 1.391 . S
C982 H972 0.950 . S
C982 C983 1.386 . S
C982 C984 1.391 . S
C983 C982 1.386 . S
C983 C987 1.393 . S
C984 H973 0.950 . S
C984 C982 1.391 . S
C984 C985 1.400 . S
C985 C979 1.491 . S
C985 C984 1.400 . S
C985 C986 1.398 . S
C986 H974 0.950 . S
C986 C985 1.398 . S
C986 C987 1.391 . S
C987 H975 0.950 . S
C987 C983 1.393 . S
C987 C986 1.391 . S
H988 C996 0.950 . S
H989 C1001 0.950 . S
H990 C998 0.950 . S
H991 C1000 0.950 . S
H992 C1002 0.950 . S
H993 C1004 0.950 . S
H994 C1006 0.950 . S
H995 C1007 0.950 . S
C996 H988 0.950 . S
C996 C997 1.386 . S
C996 C998 1.391 . S
C997 C996 1.386 . S
C997 C1001 1.393 1_455 S
C998 H990 0.950 . S
C998 C996 1.391 . S
C998 C999 1.400 . S
C999 C998 1.400 . S
C999 C1000 1.398 1_455 S
C999 C1005 1.491 . S
C1000 H991 0.950 . S
C1000 C999 1.398 1_655 S
C1000 C1001 1.391 . S
C1001 H989 0.950 . S
C1001 C997 1.393 1_655 S
C1001 C1000 1.391 . S
C1002 H992 0.950 . S
C1002 C1003 1.386 1_655 S
C1002 C1004 1.391 . S
C1003 C1002 1.386 1_455 S
C1003 C1007 1.393 . S
C1004 H993 0.950 . S
C1004 C1002 1.391 . S
C1004 C1005 1.400 1_655 S
C1005 C999 1.491 . S
C1005 C1004 1.400 1_455 S
C1005 C1006 1.398 . S
C1006 H994 0.950 . S
C1006 C1005 1.398 . S
C1006 C1007 1.391 . S
C1007 H995 0.950 . S
C1007 C1003 1.393 . S
C1007 C1006 1.391 . S
H1008 C1016 0.950 . S
H1009 C1021 0.950 . S
H1010 C1018 0.950 . S
H1011 C1020 0.950 . S
H1012 C1022 0.950 . S
H1013 C1024 0.950 . S
H1014 C1026 0.950 . S
H1015 C1027 0.950 . S
C1016 H1008 0.950 . S
C1016 C1017 1.386 . S
C1016 C1018 1.391 . S
C1017 C1016 1.386 . S
C1017 C1021 1.393 . S
C1018 H1010 0.950 . S
C1018 C1016 1.391 . S
C1018 C1019 1.400 . S
C1019 C1018 1.400 . S
C1019 C1020 1.398 . S
C1019 C1025 1.491 . S
C1020 H1011 0.950 . S
C1020 C1019 1.398 . S
C1020 C1021 1.391 . S
C1021 H1009 0.950 . S
C1021 C1017 1.393 . S
C1021 C1020 1.391 . S
C1022 H1012 0.950 . S
C1022 C1023 1.386 . S
C1022 C1024 1.391 . S
C1023 C1022 1.386 . S
C1023 C1027 1.393 . S
C1024 H1013 0.950 . S
C1024 C1022 1.391 . S
C1024 C1025 1.400 . S
C1025 C1019 1.491 . S
C1025 C1024 1.400 . S
C1025 C1026 1.398 . S
C1026 H1014 0.950 . S
C1026 C1025 1.398 . S
C1026 C1027 1.391 . S
C1027 H1015 0.950 . S
C1027 C1023 1.393 . S
C1027 C1026 1.391 . S
H1028 C1036 0.950 . S
H1029 C1041 0.950 . S
H1030 C1038 0.950 . S
H1031 C1040 0.950 . S
H1032 C1042 0.950 . S
H1033 C1044 0.950 . S
H1034 C1046 0.950 . S
H1035 C1047 0.945 1_655 S
C1036 H1028 0.950 . S
C1036 C1037 1.386 . S
C1036 C1038 1.391 . S
C1037 C1036 1.386 . S
C1037 C1041 1.393 1_655 S
C1038 H1030 0.950 . S
C1038 C1036 1.391 . S
C1038 C1039 1.400 1_655 S
C1039 C1038 1.400 1_455 S
C1039 C1040 1.398 . S
C1039 C1045 1.491 . S
C1040 H1031 0.950 . S
C1040 C1039 1.398 . S
C1040 C1041 1.391 . S
C1041 H1029 0.950 . S
C1041 C1037 1.393 1_455 S
C1041 C1040 1.391 . S
C1042 H1032 0.950 . S
C1042 C1043 1.386 . S
C1042 C1044 1.391 . S
C1043 C1042 1.386 . S
C1043 C1047 1.399 . S
C1044 H1033 0.950 . S
C1044 C1042 1.391 . S
C1044 C1045 1.400 . S
C1045 C1039 1.491 . S
C1045 C1044 1.400 . S
C1045 C1046 1.398 1_455 S
C1046 H1034 0.950 . S
C1046 C1045 1.398 1_655 S
C1046 C1047 1.389 1_655 S
C1047 H1035 0.945 1_455 S
C1047 C1043 1.399 . S
C1047 C1046 1.389 1_455 S
H1048 C1056 0.950 . S
H1049 C1061 0.950 . S
H1050 C1058 0.950 1_565 S
H1051 C1060 0.950 . S
H1052 C1062 0.950 . S
H1053 C1064 0.950 . S
H1054 C1066 0.950 1_565 S
H1055 C1067 0.950 . S
C1056 H1048 0.950 . S
C1056 C1057 1.386 1_565 S
C1056 C1058 1.391 1_565 S
C1057 C1056 1.386 1_545 S
C1057 C1061 1.393 . S
C1058 H1050 0.950 1_545 S
C1058 C1056 1.391 1_545 S
C1058 C1059 1.400 . S
C1059 C1058 1.400 . S
C1059 C1060 1.398 . S
C1059 C1065 1.491 . S
C1060 H1051 0.950 . S
C1060 C1059 1.398 . S
C1060 C1061 1.391 . S
C1061 H1049 0.950 . S
C1061 C1057 1.393 . S
C1061 C1060 1.391 . S
C1062 H1052 0.950 . S
C1062 C1063 1.386 . S
C1062 C1064 1.391 . S
C1063 C1062 1.386 . S
C1063 C1067 1.393 . S
C1064 H1053 0.950 . S
C1064 C1062 1.391 . S
C1064 C1065 1.400 . S
C1065 C1059 1.491 . S
C1065 C1064 1.400 . S
C1065 C1066 1.398 . S
C1066 H1054 0.950 1_545 S
C1066 C1065 1.398 . S
C1066 C1067 1.391 . S
C1067 H1055 0.950 . S
C1067 C1063 1.393 . S
C1067 C1066 1.391 . S
H1068 C1076 0.950 . S
H1069 C1081 0.950 . S
H1070 C1078 0.950 . S
H1071 C1080 0.950 . S
H1072 C1082 0.950 . S
H1073 C1084 0.950 . S
H1074 C1086 0.950 . S
H1075 C1087 0.950 . S
C1076 H1068 0.950 . S
C1076 C1077 1.386 . S
C1076 C1078 1.391 . S
C1077 C1076 1.386 . S
C1077 C1081 1.393 . S
C1078 H1070 0.950 . S
C1078 C1076 1.391 . S
C1078 C1079 1.400 . S
C1079 C1078 1.400 . S
C1079 C1080 1.398 . S
C1079 C1085 1.491 . S
C1080 H1071 0.950 . S
C1080 C1079 1.398 . S
C1080 C1081 1.391 . S
C1081 H1069 0.950 . S
C1081 C1077 1.393 . S
C1081 C1080 1.391 . S
C1082 H1072 0.950 . S
C1082 C1083 1.386 . S
C1082 C1084 1.391 . S
C1083 C1082 1.386 . S
C1083 C1087 1.393 . S
C1084 H1073 0.950 . S
C1084 C1082 1.391 . S
C1084 C1085 1.400 . S
C1085 C1079 1.491 . S
C1085 C1084 1.400 . S
C1085 C1086 1.398 . S
C1086 H1074 0.950 . S
C1086 C1085 1.398 . S
C1086 C1087 1.391 . S
C1087 H1075 0.950 . S
C1087 C1083 1.393 . S
C1087 C1086 1.391 . S
H1088 C1096 0.950 . S
H1089 C1101 0.950 . S
H1090 C1098 0.950 . S
H1091 C1100 0.950 . S
H1092 C1102 0.950 . S
H1093 C1104 0.950 1_565 S
H1094 C1106 0.950 . S
H1095 C1107 0.950 . S
C1096 H1088 0.950 . S
C1096 C1097 1.386 1_545 S
C1096 C1098 1.391 . S
C1097 C1096 1.386 1_565 S
C1097 C1101 1.393 . S
C1098 H1090 0.950 . S
C1098 C1096 1.391 . S
C1098 C1099 1.400 . S
C1099 C1098 1.400 . S
C1099 C1100 1.398 1_545 S
C1099 C1105 1.491 . S
C1100 H1091 0.950 . S
C1100 C1099 1.398 1_565 S
C1100 C1101 1.391 . S
C1101 H1089 0.950 . S
C1101 C1097 1.393 . S
C1101 C1100 1.391 . S
C1102 H1092 0.950 . S
C1102 C1103 1.386 . S
C1102 C1104 1.391 . S
C1103 C1102 1.386 . S
C1103 C1107 1.393 . S
C1104 H1093 0.950 1_545 S
C1104 C1102 1.391 . S
C1104 C1105 1.400 . S
C1105 C1099 1.491 . S
C1105 C1104 1.400 . S
C1105 C1106 1.398 . S
C1106 H1094 0.950 . S
C1106 C1105 1.398 . S
C1106 C1107 1.391 . S
C1107 H1095 0.950 . S
C1107 C1103 1.393 . S
C1107 C1106 1.391 . S
H1108 C1116 0.950 . S
H1109 C1121 0.950 . S
H1110 C1118 0.950 . S
H1111 C1120 0.950 . S
H1112 C1122 0.950 . S
H1113 C1124 0.950 . S
H1114 C1126 0.950 . S
H1115 C1127 0.950 . S
C1116 H1108 0.950 . S
C1116 C1117 1.386 . S
C1116 C1118 1.391 . S
C1117 C1116 1.386 . S
C1117 C1121 1.393 . S
C1118 H1110 0.950 . S
C1118 C1116 1.391 . S
C1118 C1119 1.400 . S
C1119 C1118 1.400 . S
C1119 C1120 1.398 . S
C1119 C1125 1.491 . S
C1120 H1111 0.950 . S
C1120 C1119 1.398 . S
C1120 C1121 1.391 . S
C1121 H1109 0.950 . S
C1121 C1117 1.393 . S
C1121 C1120 1.391 . S
C1122 H1112 0.950 . S
C1122 C1123 1.386 . S
C1122 C1124 1.391 . S
C1123 C1122 1.386 . S
C1123 C1127 1.393 . S
C1124 H1113 0.950 . S
C1124 C1122 1.391 . S
C1124 C1125 1.400 . S
C1125 C1119 1.491 . S
C1125 C1124 1.400 . S
C1125 C1126 1.398 . S
C1126 H1114 0.950 . S
C1126 C1125 1.398 . S
C1126 C1127 1.391 . S
C1127 H1115 0.950 . S
C1127 C1123 1.393 . S
C1127 C1126 1.391 . S
H1128 C1136 0.950 1_556 S
H1129 C1141 0.950 . S
H1130 C1138 0.950 1_556 S
H1131 C1140 0.950 . S
H1132 C1142 0.950 . S
H1133 C1144 0.950 . S
H1134 C1146 0.945 1_556 S
H1135 C1147 0.950 1_556 S
C1136 H1128 0.950 1_554 S
C1136 C1137 1.386 . S
C1136 C1138 1.391 . S
C1137 C1136 1.386 . S
C1137 C1141 1.393 . S
C1138 H1130 0.950 1_554 S
C1138 C1136 1.391 . S
C1138 C1139 1.400 . S
C1139 C1138 1.400 . S
C1139 C1140 1.398 . S
C1139 C1145 1.491 . S
C1140 H1131 0.950 . S
C1140 C1139 1.398 . S
C1140 C1141 1.391 . S
C1141 H1129 0.950 . S
C1141 C1137 1.393 . S
C1141 C1140 1.391 . S
C1142 H1132 0.950 . S
C1142 C1143 1.386 . S
C1142 C1144 1.391 . S
C1143 C1142 1.386 . S
C1143 C1147 1.393 . S
C1144 H1133 0.950 . S
C1144 C1142 1.391 . S
C1144 C1145 1.400 . S
C1145 C1139 1.491 . S
C1145 C1144 1.400 . S
C1145 C1146 1.398 . S
C1146 H1134 0.945 1_554 S
C1146 C1145 1.398 . S
C1146 C1147 1.391 . S
C1147 H1135 0.950 1_554 S
C1147 C1143 1.393 . S
C1147 C1146 1.391 . S
H1148 C1156 0.950 . S
H1149 C1161 0.950 . S
H1150 C1158 0.950 . S
H1151 C1160 0.950 . S
H1152 C1162 0.950 . S
H1153 C1164 0.950 . S
H1154 C1166 0.950 . S
H1155 C1167 0.950 . S
C1156 H1148 0.950 . S
C1156 C1157 1.386 . S
C1156 C1158 1.391 . S
C1157 C1156 1.386 . S
C1157 C1161 1.393 . S
C1158 H1150 0.950 . S
C1158 C1156 1.391 . S
C1158 C1159 1.400 . S
C1159 C1158 1.400 . S
C1159 C1160 1.398 . S
C1159 C1165 1.491 . S
C1160 H1151 0.950 . S
C1160 C1159 1.398 . S
C1160 C1161 1.391 . S
C1161 H1149 0.950 . S
C1161 C1157 1.393 . S
C1161 C1160 1.391 . S
C1162 H1152 0.950 . S
C1162 C1163 1.386 . S
C1162 C1164 1.391 . S
C1163 C1162 1.386 . S
C1163 C1167 1.393 . S
C1164 H1153 0.950 . S
C1164 C1162 1.391 . S
C1164 C1165 1.400 . S
C1165 C1159 1.491 . S
C1165 C1164 1.400 . S
C1165 C1166 1.398 . S
C1166 H1154 0.950 . S
C1166 C1165 1.398 . S
C1166 C1167 1.391 . S
C1167 H1155 0.950 . S
C1167 C1163 1.393 . S
C1167 C1166 1.391 . S
H1168 C1176 0.950 . S
H1169 C1181 0.950 . S
H1170 C1178 0.950 . S
H1171 C1180 0.950 . S
H1172 C1182 0.950 . S
H1173 C1184 0.950 . S
H1174 C1186 0.950 . S
H1175 C1187 0.950 . S
C1176 H1168 0.950 . S
C1176 C1177 1.386 . S
C1176 C1178 1.391 . S
C1177 C1176 1.386 . S
C1177 C1181 1.393 . S
C1178 H1170 0.950 . S
C1178 C1176 1.391 . S
C1178 C1179 1.400 . S
C1179 C1178 1.400 . S
C1179 C1180 1.398 . S
C1179 C1185 1.491 . S
C1180 H1171 0.950 . S
C1180 C1179 1.398 . S
C1180 C1181 1.391 . S
C1181 H1169 0.950 . S
C1181 C1177 1.393 . S
C1181 C1180 1.391 . S
C1182 H1172 0.950 . S
C1182 C1183 1.386 . S
C1182 C1184 1.391 . S
C1183 C1182 1.386 . S
C1183 C1187 1.393 . S
C1184 H1173 0.950 . S
C1184 C1182 1.391 . S
C1184 C1185 1.400 . S
C1185 C1179 1.491 . S
C1185 C1184 1.400 . S
C1185 C1186 1.398 . S
C1186 H1174 0.950 . S
C1186 C1185 1.398 . S
C1186 C1187 1.391 . S
C1187 H1175 0.950 . S
C1187 C1183 1.393 . S
C1187 C1186 1.391 . S
H1188 C1196 0.950 . S
H1189 C1201 0.950 . S
H1190 C1198 0.950 . S
H1191 C1200 0.950 . S
H1192 C1202 0.950 . S
H1193 C1204 0.950 . S
H1194 C1206 0.950 . S
H1195 C1207 0.950 . S
C1196 H1188 0.950 . S
C1196 C1197 1.386 . S
C1196 C1198 1.391 . S
C1197 C1196 1.386 . S
C1197 C1201 1.393 . S
C1198 H1190 0.950 . S
C1198 C1196 1.391 . S
C1198 C1199 1.400 . S
C1199 C1198 1.400 . S
C1199 C1200 1.398 . S
C1199 C1205 1.491 . S
C1200 H1191 0.950 . S
C1200 C1199 1.398 . S
C1200 C1201 1.391 . S
C1201 H1189 0.950 . S
C1201 C1197 1.393 . S
C1201 C1200 1.391 . S
C1202 H1192 0.950 . S
C1202 C1203 1.386 . S
C1202 C1204 1.391 . S
C1203 C1202 1.386 . S
C1203 C1207 1.393 . S
C1204 H1193 0.950 . S
C1204 C1202 1.391 . S
C1204 C1205 1.400 . S
C1205 C1199 1.491 . S
C1205 C1204 1.400 . S
C1205 C1206 1.398 . S
C1206 H1194 0.950 . S
C1206 C1205 1.398 . S
C1206 C1207 1.391 . S
C1207 H1195 0.950 . S
C1207 C1203 1.393 . S
C1207 C1206 1.391 . S
H1208 C1216 0.950 . S
H1209 C1221 0.950 . S
H1210 C1218 0.950 . S
H1211 C1220 0.950 . S
H1212 C1222 0.950 . S
H1213 C1224 0.950 . S
H1214 C1226 0.950 . S
H1215 C1227 0.950 . S
C1216 H1208 0.950 . S
C1216 C1217 1.386 . S
C1216 C1218 1.391 . S
C1217 C1216 1.386 . S
C1217 C1221 1.393 . S
C1218 H1210 0.950 . S
C1218 C1216 1.391 . S
C1218 C1219 1.400 . S
C1219 C1218 1.400 . S
C1219 C1220 1.398 . S
C1219 C1225 1.491 . S
C1220 H1211 0.950 . S
C1220 C1219 1.398 . S
C1220 C1221 1.391 . S
C1221 H1209 0.950 . S
C1221 C1217 1.393 . S
C1221 C1220 1.391 . S
C1222 H1212 0.950 . S
C1222 C1223 1.386 . S
C1222 C1224 1.391 . S
C1223 C1222 1.386 . S
C1223 C1227 1.393 . S
C1224 H1213 0.950 . S
C1224 C1222 1.391 . S
C1224 C1225 1.400 . S
C1225 C1219 1.491 . S
C1225 C1224 1.400 . S
C1225 C1226 1.398 . S
C1226 H1214 0.950 . S
C1226 C1225 1.398 . S
C1226 C1227 1.391 . S
C1227 H1215 0.950 . S
C1227 C1223 1.393 . S
C1227 C1226 1.391 . S
H1228 C1236 0.950 . S
H1229 C1241 0.950 . S
H1230 C1238 0.950 . S
H1231 C1240 0.950 . S
H1232 C1242 0.950 . S
H1233 C1244 0.950 . S
H1234 C1246 0.950 . S
H1235 C1247 0.950 . S
C1236 H1228 0.950 . S
C1236 C1237 1.386 . S
C1236 C1238 1.391 . S
C1237 C1236 1.386 . S
C1237 C1241 1.393 . S
C1238 H1230 0.950 . S
C1238 C1236 1.391 . S
C1238 C1239 1.400 . S
C1239 C1238 1.400 . S
C1239 C1240 1.398 . S
C1239 C1245 1.491 . S
C1240 H1231 0.950 . S
C1240 C1239 1.398 . S
C1240 C1241 1.391 . S
C1241 H1229 0.950 . S
C1241 C1237 1.393 . S
C1241 C1240 1.391 . S
C1242 H1232 0.950 . S
C1242 C1243 1.386 . S
C1242 C1244 1.391 . S
C1243 C1242 1.386 . S
C1243 C1247 1.393 . S
C1244 H1233 0.950 . S
C1244 C1242 1.391 . S
C1244 C1245 1.400 . S
C1245 C1239 1.491 . S
C1245 C1244 1.400 . S
C1245 C1246 1.398 . S
C1246 H1234 0.950 . S
C1246 C1245 1.398 . S
C1246 C1247 1.391 . S
C1247 H1235 0.950 . S
C1247 C1243 1.393 . S
C1247 C1246 1.391 . S
H1248 C1256 0.950 . S
H1249 C1261 0.950 . S
H1250 C1258 0.950 . S
H1251 C1260 0.950 . S
H1252 C1262 0.950 . S
H1253 C1264 0.950 . S
H1254 C1266 0.950 . S
H1255 C1267 0.950 . S
C1256 H1248 0.950 . S
C1256 C1257 1.386 . S
C1256 C1258 1.391 . S
C1257 C1256 1.386 . S
C1257 C1261 1.393 . S
C1258 H1250 0.950 . S
C1258 C1256 1.391 . S
C1258 C1259 1.400 . S
C1259 C1258 1.400 . S
C1259 C1260 1.398 . S
C1259 C1265 1.491 . S
C1260 H1251 0.950 . S
C1260 C1259 1.398 . S
C1260 C1261 1.391 . S
C1261 H1249 0.950 . S
C1261 C1257 1.393 . S
C1261 C1260 1.391 . S
C1262 H1252 0.950 . S
C1262 C1263 1.386 . S
C1262 C1264 1.391 . S
C1263 C1262 1.386 . S
C1263 C1267 1.393 . S
C1264 H1253 0.950 . S
C1264 C1262 1.391 . S
C1264 C1265 1.400 . S
C1265 C1259 1.491 . S
C1265 C1264 1.400 . S
C1265 C1266 1.398 . S
C1266 H1254 0.950 . S
C1266 C1265 1.398 . S
C1266 C1267 1.391 . S
C1267 H1255 0.950 . S
C1267 C1263 1.393 . S
C1267 C1266 1.391 . S
H1268 C1276 0.950 . S
H1269 C1281 0.950 . S
H1270 C1278 0.950 . S
H1271 C1280 0.950 . S
H1272 C1282 0.950 . S
H1273 C1284 0.950 . S
H1274 C1286 0.950 . S
H1275 C1287 0.950 . S
C1276 H1268 0.950 . S
C1276 C1277 1.386 . S
C1276 C1278 1.391 . S
C1277 C1276 1.386 . S
C1277 C1281 1.393 . S
C1278 H1270 0.950 . S
C1278 C1276 1.391 . S
C1278 C1279 1.400 . S
C1279 C1278 1.400 . S
C1279 C1280 1.398 . S
C1279 C1285 1.491 . S
C1280 H1271 0.950 . S
C1280 C1279 1.398 . S
C1280 C1281 1.391 . S
C1281 H1269 0.950 . S
C1281 C1277 1.393 . S
C1281 C1280 1.391 . S
C1282 H1272 0.950 . S
C1282 C1283 1.386 . S
C1282 C1284 1.391 . S
C1283 C1282 1.386 . S
C1283 C1287 1.393 . S
C1284 H1273 0.950 . S
C1284 C1282 1.391 . S
C1284 C1285 1.400 . S
C1285 C1279 1.491 . S
C1285 C1284 1.400 . S
C1285 C1286 1.398 . S
C1286 H1274 0.950 . S
C1286 C1285 1.398 . S
C1286 C1287 1.391 . S
C1287 H1275 0.950 . S
C1287 C1283 1.393 . S
C1287 C1286 1.391 . S
H1288 C1296 0.950 . S
H1289 C1301 0.950 . S
H1290 C1298 0.950 . S
H1291 C1300 0.950 . S
H1292 C1302 0.950 . S
H1293 C1304 0.950 . S
H1294 C1306 0.950 . S
H1295 C1307 0.950 . S
C1296 H1288 0.950 . S
C1296 C1297 1.386 . S
C1296 C1298 1.391 . S
C1297 C1296 1.386 . S
C1297 C1301 1.393 . S
C1298 H1290 0.950 . S
C1298 C1296 1.391 . S
C1298 C1299 1.400 . S
C1299 C1298 1.400 . S
C1299 C1300 1.398 . S
C1299 C1305 1.491 . S
C1300 H1291 0.950 . S
C1300 C1299 1.398 . S
C1300 C1301 1.391 . S
C1301 H1289 0.950 . S
C1301 C1297 1.393 . S
C1301 C1300 1.391 . S
C1302 H1292 0.950 . S
C1302 C1303 1.386 . S
C1302 C1304 1.391 . S
C1303 C1302 1.386 . S
C1303 C1307 1.393 . S
C1304 H1293 0.950 . S
C1304 C1302 1.391 . S
C1304 C1305 1.400 . S
C1305 C1299 1.491 . S
C1305 C1304 1.400 . S
C1305 C1306 1.398 . S
C1306 H1294 0.950 . S
C1306 C1305 1.398 . S
C1306 C1307 1.391 . S
C1307 H1295 0.950 . S
C1307 C1303 1.393 . S
C1307 C1306 1.391 . S
H1308 C1316 0.950 . S
H1309 C1321 0.950 . S
H1310 C1318 0.950 . S
H1311 C1320 0.950 . S
H1312 C1322 0.950 . S
H1313 C1324 0.950 . S
H1314 C1326 0.950 . S
H1315 C1327 0.950 . S
C1316 H1308 0.950 . S
C1316 C1317 1.368 1_545 S
C1316 C1318 1.391 . S
C1317 C1316 1.368 1_565 S
C1317 C1321 1.398 . S
C1318 H1310 0.950 . S
C1318 C1316 1.391 . S
C1318 C1319 1.400 . S
C1319 C1318 1.400 . S
C1319 C1320 1.398 . S
C1319 C1325 1.491 . S
C1320 H1311 0.950 . S
C1320 C1319 1.398 . S
C1320 C1321 1.391 1_545 S
C1321 H1309 0.950 . S
C1321 C1317 1.398 . S
C1321 C1320 1.391 1_565 S
C1322 H1312 0.950 . S
C1322 C1323 1.386 . S
C1322 C1324 1.391 . S
C1323 C1322 1.386 . S
C1323 C1327 1.393 . S
C1324 H1313 0.950 . S
C1324 C1322 1.391 . S
C1324 C1325 1.400 . S
C1325 C1319 1.491 . S
C1325 C1324 1.400 . S
C1325 C1326 1.398 . S
C1326 H1314 0.950 . S
C1326 C1325 1.398 . S
C1326 C1327 1.391 . S
C1327 H1315 0.950 . S
C1327 C1323 1.393 . S
C1327 C1326 1.391 . S
H1328 C1336 0.950 . S
H1329 C1341 0.950 . S
H1330 C1338 0.950 . S
H1331 C1340 0.950 . S
H1332 C1342 0.950 . S
H1333 C1344 0.950 . S
H1334 C1346 0.950 . S
H1335 C1347 0.950 . S
C1336 H1328 0.950 . S
C1336 C1337 1.386 . S
C1336 C1338 1.391 . S
C1337 C1336 1.386 . S
C1337 C1341 1.393 . S
C1338 H1330 0.950 . S
C1338 C1336 1.391 . S
C1338 C1339 1.400 . S
C1339 C1338 1.400 . S
C1339 C1340 1.398 . S
C1339 C1345 1.491 . S
C1340 H1331 0.950 . S
C1340 C1339 1.398 . S
C1340 C1341 1.391 . S
C1341 H1329 0.950 . S
C1341 C1337 1.393 . S
C1341 C1340 1.391 . S
C1342 H1332 0.950 . S
C1342 C1343 1.386 . S
C1342 C1344 1.391 . S
C1343 C1342 1.386 . S
C1343 C1347 1.393 . S
C1344 H1333 0.950 . S
C1344 C1342 1.391 . S
C1344 C1345 1.400 . S
C1345 C1339 1.491 . S
C1345 C1344 1.400 . S
C1345 C1346 1.398 . S
C1346 H1334 0.950 . S
C1346 C1345 1.398 . S
C1346 C1347 1.391 . S
C1347 H1335 0.950 . S
C1347 C1343 1.393 . S
C1347 C1346 1.391 . S
H1348 C1356 0.950 . S
H1349 C1361 0.950 . S
H1350 C1358 0.950 . S
H1351 C1360 0.950 . S
H1352 C1362 0.950 . S
H1353 C1364 0.950 . S
H1354 C1366 0.950 . S
H1355 C1367 0.950 . S
C1356 H1348 0.950 . S
C1356 C1357 1.386 . S
C1356 C1358 1.391 . S
C1357 C1356 1.386 . S
C1357 C1361 1.393 1_545 S
C1358 H1350 0.950 . S
C1358 C1356 1.391 . S
C1358 C1359 1.400 1_545 S
C1359 C1358 1.400 1_565 S
C1359 C1360 1.398 . S
C1359 C1365 1.491 . S
C1360 H1351 0.950 . S
C1360 C1359 1.398 . S
C1360 C1361 1.391 . S
C1361 H1349 0.950 . S
C1361 C1357 1.393 1_565 S
C1361 C1360 1.391 . S
C1362 H1352 0.950 . S
C1362 C1363 1.386 1_554 S
C1362 C1364 1.391 1_554 S
C1363 C1362 1.386 1_556 S
C1363 C1367 1.393 1_565 S
C1364 H1353 0.950 . S
C1364 C1362 1.391 1_556 S
C1364 C1365 1.400 . S
C1365 C1359 1.491 . S
C1365 C1364 1.400 . S
C1365 C1366 1.398 1_565 S
C1366 H1354 0.950 . S
C1366 C1365 1.398 1_545 S
C1366 C1367 1.391 . S
C1367 H1355 0.950 . S
C1367 C1363 1.393 1_545 S
C1367 C1366 1.391 . S
H1368 C1376 0.950 . S
H1369 C1381 0.950 . S
H1370 C1378 0.950 . S
H1371 C1380 0.950 . S
H1372 C1382 0.950 . S
H1373 C1384 0.950 . S
H1374 C1386 0.950 . S
H1375 C1387 0.950 . S
C1376 H1368 0.950 . S
C1376 C1377 1.386 . S
C1376 C1378 1.391 . S
C1377 C1376 1.386 . S
C1377 C1381 1.393 . S
C1378 H1370 0.950 . S
C1378 C1376 1.391 . S
C1378 C1379 1.400 . S
C1379 C1378 1.400 . S
C1379 C1380 1.398 . S
C1379 C1385 1.491 . S
C1380 H1371 0.950 . S
C1380 C1379 1.398 . S
C1380 C1381 1.391 . S
C1381 H1369 0.950 . S
C1381 C1377 1.393 . S
C1381 C1380 1.391 . S
C1382 H1372 0.950 . S
C1382 C1383 1.386 . S
C1382 C1384 1.391 . S
C1383 C1382 1.386 . S
C1383 C1387 1.393 . S
C1384 H1373 0.950 . S
C1384 C1382 1.391 . S
C1384 C1385 1.400 . S
C1385 C1379 1.491 . S
C1385 C1384 1.400 . S
C1385 C1386 1.398 . S
C1386 H1374 0.950 . S
C1386 C1385 1.398 . S
C1386 C1387 1.391 . S
C1387 H1375 0.950 . S
C1387 C1383 1.393 . S
C1387 C1386 1.391 . S
H1388 C1396 0.950 . S
H1389 C1401 0.950 . S
H1390 C1398 0.950 . S
H1391 C1400 0.950 . S
H1392 C1402 0.950 1_556 S
H1393 C1404 0.950 . S
H1394 C1406 0.950 . S
H1395 C1407 0.950 . S
C1396 H1388 0.950 . S
C1396 C1397 1.386 1_554 S
C1396 C1398 1.391 . S
C1397 C1396 1.386 1_556 S
C1397 C1401 1.393 . S
C1398 H1390 0.950 . S
C1398 C1396 1.391 . S
C1398 C1399 1.400 . S
C1399 C1398 1.400 . S
C1399 C1400 1.398 1_554 S
C1399 C1405 1.491 . S
C1400 H1391 0.950 . S
C1400 C1399 1.398 1_556 S
C1400 C1401 1.391 . S
C1401 H1389 0.950 . S
C1401 C1397 1.393 . S
C1401 C1400 1.391 . S
C1402 H1392 0.950 1_554 S
C1402 C1403 1.386 . S
C1402 C1404 1.391 1_554 S
C1403 C1402 1.386 . S
C1403 C1407 1.393 . S
C1404 H1393 0.950 . S
C1404 C1402 1.391 1_556 S
C1404 C1405 1.400 1_556 S
C1405 C1399 1.491 . S
C1405 C1404 1.400 1_554 S
C1405 C1406 1.398 . S
C1406 H1394 0.950 . S
C1406 C1405 1.398 . S
C1406 C1407 1.391 . S
C1407 H1395 0.950 . S
C1407 C1403 1.393 . S
C1407 C1406 1.391 . S
H1408 C1416 0.950 . S
H1409 C1421 0.950 . S
H1410 C1418 0.950 . S
H1411 C1420 0.950 . S
H1412 C1422 0.950 . S
H1413 C1424 0.950 . S
H1414 C1426 0.950 . S
H1415 C1427 0.950 . S
C1416 H1408 0.950 . S
C1416 C1417 1.386 1_554 S
C1416 C1418 1.391 . S
C1417 C1416 1.386 1_556 S
C1417 C1421 1.393 . S
C1418 H1410 0.950 . S
C1418 C1416 1.391 . S
C1418 C1419 1.400 . S
C1419 C1418 1.400 . S
C1419 C1420 1.398 1_554 S
C1419 C1425 1.491 . S
C1420 H1411 0.950 . S
C1420 C1419 1.398 1_556 S
C1420 C1421 1.391 . S
C1421 H1409 0.950 . S
C1421 C1417 1.393 . S
C1421 C1420 1.391 . S
C1422 H1412 0.950 . S
C1422 C1423 1.386 1_556 S
C1422 C1424 1.391 . S
C1423 C1422 1.386 1_554 S
C1423 C1427 1.393 . S
C1424 H1413 0.950 . S
C1424 C1422 1.391 . S
C1424 C1425 1.400 1_556 S
C1425 C1419 1.491 . S
C1425 C1424 1.400 1_554 S
C1425 C1426 1.398 . S
C1426 H1414 0.950 . S
C1426 C1425 1.398 . S
C1426 C1427 1.391 . S
C1427 H1415 0.950 . S
C1427 C1423 1.393 . S
C1427 C1426 1.391 . S
H1428 C1436 0.950 . S
H1429 C1441 0.950 . S
H1430 C1438 0.950 . S
H1431 C1440 0.950 . S
H1432 C1442 0.950 1_455 S
H1433 C1444 0.950 . S
H1434 C1446 0.950 . S
H1435 C1447 0.950 . S
C1436 H1428 0.950 . S
C1436 C1437 1.386 . S
C1436 C1438 1.391 . S
C1437 C1436 1.386 . S
C1437 C1441 1.393 . S
C1438 H1430 0.950 . S
C1438 C1436 1.391 . S
C1438 C1439 1.400 . S
C1439 C1438 1.400 . S
C1439 C1440 1.398 . S
C1439 C1445 1.491 . S
C1440 H1431 0.950 . S
C1440 C1439 1.398 . S
C1440 C1441 1.391 . S
C1441 H1429 0.950 . S
C1441 C1437 1.393 . S
C1441 C1440 1.391 . S
C1442 H1432 0.950 1_655 S
C1442 C1443 1.386 . S
C1442 C1444 1.391 . S
C1443 C1442 1.386 . S
C1443 C1447 1.393 . S
C1444 H1433 0.950 . S
C1444 C1442 1.391 . S
C1444 C1445 1.400 . S
C1445 C1439 1.491 . S
C1445 C1444 1.400 . S
C1445 C1446 1.398 . S
C1446 H1434 0.950 . S
C1446 C1445 1.398 . S
C1446 C1447 1.391 . S
C1447 H1435 0.950 . S
C1447 C1443 1.393 . S
C1447 C1446 1.391 . S
C497 C13 2.344 . S
C503 C267 2.190 . S
C523 C296 2.989 . S
C517 C1 2.976 . S
C543 C173 1.196 . S
C537 C27 1.186 . S
C557 C15 1.547 . S
C563 C217 1.544 . S
C577 C28 3.179 . S
C583 C467 3.091 . S
C597 C55 1.665 . S
C603 C413 1.678 . S
C623 C346 2.641 . S
C617 C40 2.728 . S
C637 C43 0.787 . S
C643 C376 0.783 . S
C663 C223 1.710 . S
C657 C56 1.749 . S
C683 C293 2.190 . S
C677 C83 2.179 . S
C697 C96 1.913 . S
C703 C256 1.929 . S
C717 C71 1.796 . S
C723 C387 1.754 . S
C743 C427 2.369 . S
C737 C99 2.535 . S
C763 C456 2.694 1_565 S
C757 C111 2.679 . S
C777 C113 1.223 . S
C783 C373 1.222 . S
C803 C337 1.775 . S
C797 C125 1.771 . S
C817 C139 2.897 . S
C823 C307 2.823 . S
C837 C153 1.547 . S
C843 C253 1.569 . S
C863 C226 2.738 . S
C857 C127 2.817 . S
C877 C141 1.057 . S
C883 C176 1.047 . S
C903 C343 1.622 . S
C897 C84 1.625 . S
C923 C453 2.065 . S
C917 C154 2.058 . S
C937 C68 1.591 . S
C943 C416 1.601 . S
C957 C166 1.792 . S
C963 C187 1.731 . S
C983 C186 1.338 . S
C977 C0 1.403 . S
C997 C12 2.090 . S
C1003 C216 1.908 1_455 S
C1023 C263 1.220 . S
C1017 C14 1.442 . S
C1043 C297 1.828 . S
C1037 C26 1.877 . S
C1057 C41 1.959 . S
C1063 C177 1.915 . S
C1077 C42 1.714 . S
C1083 C213 1.581 . S
C1103 C266 1.094 . S
C1097 C29 1.233 . S
C1117 C54 0.974 . S
C1123 C303 0.897 . S
C1137 C69 1.485 . S
C1143 C183 1.326 . S
C1163 C257 2.421 . S
C1157 C70 2.506 . S
C1177 C85 2.072 . S
C1183 C306 1.884 . S
C1197 C82 0.943 . S
C1203 C347 0.953 . S
C1223 C386 1.197 . S
C1217 C110 1.297 . S
C1237 C98 2.146 . S
C1243 C336 1.954 . S
C1257 C124 1.421 . S
C1263 C423 1.262 . S
C1277 C112 1.990 . S
C1283 C457 1.917 . S
C1297 C126 2.156 . S
C1303 C377 2.116 . S
C1323 C333 1.573 . S
C1317 C140 1.700 . S
C1337 C138 1.105 . S
C1343 C426 0.949 . S
C1363 C463 0.828 1_556 S
C1357 C152 0.878 . S
C1383 C383 1.267 . S
C1377 C97 1.366 . S
C1403 C417 2.528 . S
C1397 C167 2.600 . S
C1423 C466 1.724 . S
C1417 C57 1.843 . S
C1437 C155 0.786 . S
C1443 C227 0.788 . S
