# Generated by pormake.
# Topology wbl, (4,4)-cn, num edge types: 1
# Building blocks:
#     Node 0, Type 0, BuildingBlock: MUDLON_clean_sbu_0, # of connection points: 4
#     Node 1, Type 0, BuildingBlock: MUDLON_clean_sbu_0, # of connection points: 4
#     Node 2, Type 0, BuildingBlock: MUDLON_clean_sbu_0, # of connection points: 4
#     Node 3, Type 0, BuildingBlock: MUDLON_clean_sbu_0, # of connection points: 4
#     Node 4, Type 0, BuildingBlock: MUDLON_clean_sbu_0, # of connection points: 4
#     Node 5, Type 0, BuildingBlock: MUDLON_clean_sbu_0, # of connection points: 4
#     Node 6, Type 0, BuildingBlock: MUDLON_clean_sbu_0, # of connection points: 4
#     Node 7, Type 0, BuildingBlock: MUDLON_clean_sbu_0, # of connection points: 4
#     Node 8, Type 1, BuildingBlock: KUFVIS_clean_sbu_0, # of connection points: 4
#     Node 9, Type 1, BuildingBlock: KUFVIS_clean_sbu_0, # of connection points: 4
#     Node 10, Type 1, BuildingBlock: KUFVIS_clean_sbu_0, # of connection points: 4
#     Node 11, Type 1, BuildingBlock: KUFVIS_clean_sbu_0, # of connection points: 4
#     Node 12, Type 1, BuildingBlock: KUFVIS_clean_sbu_0, # of connection points: 4
#     Node 13, Type 1, BuildingBlock: KUFVIS_clean_sbu_0, # of connection points: 4
#     Node 14, Type 1, BuildingBlock: KUFVIS_clean_sbu_0, # of connection points: 4
#     Node 15, Type 1, BuildingBlock: KUFVIS_clean_sbu_0, # of connection points: 4
#     Edge 16, Type (0, 1), None
#     Edge 17, Type (0, 1), None
#     Edge 18, Type (0, 1), None
#     Edge 19, Type (0, 1), None
#     Edge 20, Type (0, 1), None
#     Edge 21, Type (0, 1), None
#     Edge 22, Type (0, 1), None
#     Edge 23, Type (0, 1), None
#     Edge 24, Type (0, 1), None
#     Edge 25, Type (0, 1), None
#     Edge 26, Type (0, 1), None
#     Edge 27, Type (0, 1), None
#     Edge 28, Type (0, 1), None
#     Edge 29, Type (0, 1), None
#     Edge 30, Type (0, 1), None
#     Edge 31, Type (0, 1), None
#     Edge 32, Type (0, 1), None
#     Edge 33, Type (0, 1), None
#     Edge 34, Type (0, 1), None
#     Edge 35, Type (0, 1), None
#     Edge 36, Type (0, 1), None
#     Edge 37, Type (0, 1), None
#     Edge 38, Type (0, 1), None
#     Edge 39, Type (0, 1), None
#     Edge 40, Type (0, 1), None
#     Edge 41, Type (0, 1), None
#     Edge 42, Type (0, 1), None
#     Edge 43, Type (0, 1), None
#     Edge 44, Type (0, 1), None
#     Edge 45, Type (0, 1), None
#     Edge 46, Type (0, 1), None
#     Edge 47, Type (0, 1), None
# Relax obj value: 0.223
# Max RMSD: 0.221
# Mean RMSD: 0.177
data_MOF--net-wbl--node1-MUDLON_clean_sbu_0--node2-KUFVIS_clean_sbu_0--edge1-none
_symmetry_space_group_name_H-M    P1
_symmetry_Int_Tables_number       1
_symmetry_cell_setting            triclinic
loop_
_symmetry_equiv_pos_as_xyz
'x, y, z'
_cell_length_a     16.470408
_cell_length_b     16.190189
_cell_length_c     32.118304
_cell_angle_alpha  90.250832
_cell_angle_beta   90.945389
_cell_angle_gamma 89.958095
loop_
_atom_site_label
_atom_site_type_symbol
_atom_site_fract_x
_atom_site_fract_y
_atom_site_fract_z
_atom_type_partial_charge
Mg0 Mg 0.0262 0.05428 0.39922 0.0
C1 C 0.08895 0.8726 0.41017 0.0
O2 O 0.13486 0.88085 0.37743 0.0
C3 C 0.93109 0.19524 0.35175 0.0
O4 O 0.98658 0.24454 0.3679 0.0
C5 C 0.12792 0.03677 0.32471 0.0
O6 O 0.06098 0.99872 0.31289 0.0
O7 O 0.13235 0.0695 0.36098 0.0
O8 O 0.0256 0.91805 0.41252 0.0
O9 O 0.01344 0.10572 0.46378 0.0
C10 C 0.97691 0.05596 0.48806 0.0
O11 O 0.95344 0.98506 0.47278 0.0
O12 O 0.93394 0.11741 0.3596 0.0
Mg13 Mg 0.16389 0.51913 0.64549 0.0
C14 C 0.34918 0.58654 0.66438 0.0
O15 O 0.42511 0.58443 0.65269 0.0
C16 C 0.08223 0.34308 0.62055 0.0
O17 O 0.13481 0.31207 0.64724 0.0
C18 C 0.20376 0.66435 0.58475 0.0
O19 O 0.27327 0.62672 0.57902 0.0
O20 O 0.15075 0.63384 0.60944 0.0
O21 O 0.30004 0.53059 0.6499 0.0
O22 O 0.1143 0.50732 0.70904 0.0
C23 C 0.04993 0.46737 0.71795 0.0
O24 O -0.00292 0.44993 0.68818 0.0
O25 O 0.08734 0.42016 0.6114 0.0
Mg26 Mg 0.65877 0.63431 0.87814 0.0
C27 C 0.62681 0.81632 0.90323 0.0
O28 O 0.64254 0.89572 0.90139 0.0
C29 C 0.81486 0.56786 0.84803 0.0
O30 O 0.84019 0.61959 0.87705 0.0
C31 C 0.51682 0.71597 0.82493 0.0
O32 O 0.56782 0.77527 0.81597 0.0
O33 O 0.53978 0.65406 0.84752 0.0
O34 O 0.67848 0.76581 0.88791 0.0
O35 O 0.68485 0.55719 0.93515 0.0
C36 C 0.72434 0.48856 0.93873 0.0
O37 O 0.74674 0.44782 0.90553 0.0
O38 O 0.74063 0.56975 0.83655 0.0
Mg39 Mg 0.54625 0.17491 0.14158 0.0
C40 C 0.6744 0.25799 0.20298 0.0
O41 O 0.71829 0.26266 0.1695 0.0
C42 C 0.4911 0.05182 0.0831 0.0
O43 O 0.45099 0.11959 0.07415 0.0
C44 C 0.67163 0.25245 0.08045 0.0
O45 O 0.72373 0.19487 0.09155 0.0
O46 O 0.59917 0.25169 0.09414 0.0
O47 O 0.60466 0.2234 0.2005 0.0
O48 O 0.413 0.19176 0.14449 0.0
C49 C 0.36359 0.14388 0.16306 0.0
O50 O 0.28519 0.15605 0.15824 0.0
O51 O 0.54502 0.05286 0.11229 0.0
Mg52 Mg 0.13848 0.54642 0.94026 0.0
C53 C 0.19449 0.64959 0.86323 0.0
O54 O 0.21424 0.70684 0.89059 0.0
C55 C 0.03509 0.53053 1.01451 0.0
O56 O 0.10245 0.49423 1.02703 0.0
C57 C 0.23138 0.68881 0.98976 0.0
O58 O 0.17252 0.73748 0.9768 0.0
O59 O 0.23034 0.61162 0.97987 0.0
O60 O 0.15482 0.58675 0.87505 0.0
O61 O 0.1376 0.41268 0.92189 0.0
C62 C 0.07627 0.36546 0.92714 0.0
O63 O 0.0374 0.37164 0.96236 0.0
O64 O 0.03072 0.56084 0.97782 0.0
Mg65 Mg 0.61679 0.67509 0.19915 0.0
C66 C 0.4879 0.75571 0.13804 0.0
O67 O 0.4447 0.76129 0.17173 0.0
C68 C 0.66937 0.55448 0.25848 0.0
O69 O 0.7095 0.62249 0.26712 0.0
C70 C 0.49182 0.75523 0.26015 0.0
O71 O 0.43993 0.69686 0.24975 0.0
O72 O 0.56409 0.75415 0.24618 0.0
O73 O 0.55779 0.72138 0.14024 0.0
O74 O 0.75048 0.69008 0.19616 0.0
C75 C 0.7999 0.64179 0.17756 0.0
O76 O 0.8783 0.65379 0.18248 0.0
O77 O 0.61618 0.55431 0.22896 0.0
Mg78 Mg 0.51203 0.12818 0.46429 0.0
C79 C 0.54269 0.31528 0.44212 0.0
O80 O 0.5266 0.39418 0.44682 0.0
C81 C 0.3461 0.07168 0.49266 0.0
O82 O 0.32406 0.12518 0.46401 0.0
C83 C 0.67664 0.18785 0.50944 0.0
O84 O 0.64263 0.26086 0.51231 0.0
O85 O 0.63756 0.12732 0.49207 0.0
O86 O 0.49613 0.26253 0.45935 0.0
O87 O 0.48082 0.05681 0.40599 0.0
C88 C 0.43825 0.99031 0.40175 0.0
O89 O 0.41376 0.95019 0.43458 0.0
O90 O 0.42094 0.06758 0.50365 0.0
Mg91 Mg 0.978 0.01145 0.69414 0.0
C92 C 0.0799 0.97998 0.61737 0.0
O93 O 0.13736 0.97326 0.6459 0.0
C94 C 0.95037 0.14751 0.76057 0.0
O95 O 0.88382 0.10696 0.76904 0.0
C96 C 0.12513 0.91522 0.73212 0.0
O97 O 0.14878 0.99205 0.73749 0.0
O98 O 0.05254 0.90232 0.71838 0.0
O99 O 0.01174 0.01081 0.6276 0.0
O100 O 0.84443 0.02621 0.69876 0.0
C101 C 0.80339 0.0874 0.68398 0.0
O102 O 0.72986 0.1013 0.69751 0.0
O103 O -0.00018 0.12038 0.73304 0.0
Mn104 Mn 0.44095 0.86589 1.01279 0.0
Mn105 Mn 0.48825 0.66316 0.03545 0.0
C106 C 0.46232 0.80762 0.10225 0.0
C107 C 0.47304 0.97823 0.05815 0.0
C108 C 0.30686 0.72445 1.00829 0.0
O109 O 0.5185 0.84796 0.95053 0.0
O110 O 0.56031 0.71071 0.94327 0.0
C111 C 0.6651 0.64562 0.07245 0.0
N112 N 0.58307 0.62805 0.07528 0.0
C113 C 0.61147 0.48861 0.10609 0.0
C114 C 0.69803 0.49231 0.08958 0.0
C115 C 0.72137 0.57897 0.06842 0.0
C116 C 0.55875 0.5573 0.09539 0.0
H117 H 0.6867 0.70909 0.07209 0.0
C118 C 0.55908 0.78881 0.92979 0.0
O119 O 0.40024 0.94942 0.05435 0.0
O120 O 0.52694 0.94404 0.03544 0.0
N121 N 0.43501 0.61472 0.08549 0.0
C122 C 0.3601 0.63132 0.10205 0.0
C123 C 0.32632 0.57837 0.13171 0.0
C124 C 0.36996 0.50926 0.1456 0.0
C125 C 0.44909 0.49732 0.13181 0.0
C126 C 0.4795 0.55401 0.1031 0.0
H127 H 0.32558 0.68536 0.09318 0.0
O128 O 0.46437 0.78567 0.06496 0.0
O129 O 0.46502 0.78262 0.06365 0.0
O130 O 0.32907 0.79938 0.99892 0.0
O131 O 0.35681 0.67046 1.02363 0.0
C132 C 0.50055 0.43402 0.14701 0.0
C133 C 0.58159 0.42894 0.13363 0.0
H134 H 0.73807 0.4512 0.10542 0.0
H135 H 0.78121 0.59852 0.06091 0.0
H136 H 0.26657 0.59095 0.14376 0.0
H137 H 0.34367 0.46822 0.16825 0.0
H138 H 0.47857 0.38933 0.16915 0.0
H139 H 0.62075 0.38059 0.1452 0.0
Mn140 Mn 0.33607 0.97675 0.28711 0.0
Mn141 Mn 0.5372 0.0177 0.29748 0.0
C142 C 0.40747 0.96601 0.35981 0.0
C143 C 0.20273 0.02265 0.30179 0.0
C144 C 0.46413 0.83394 0.27767 0.0
O145 O 0.33727 0.04551 0.21897 0.0
O146 O 0.4724 0.09213 0.20611 0.0
C147 C 0.54218 0.19372 0.33631 0.0
N148 N 0.56884 0.11227 0.33772 0.0
C149 C 0.70738 0.14662 0.36797 0.0
C150 C 0.69892 0.23591 0.35349 0.0
C151 C 0.6052 0.25821 0.33237 0.0
C152 C 0.64222 0.0902 0.35645 0.0
H153 H 0.47801 0.20963 0.33603 0.0
C154 C 0.3928 0.08625 0.19526 0.0
O155 O 0.21565 0.95456 0.28186 0.0
O156 O 0.26482 0.06834 0.30889 0.0
N157 N 0.59404 0.96168 0.34482 0.0
C158 C 0.59009 0.88102 0.35812 0.0
C159 C 0.65761 0.84415 0.37751 0.0
C160 C 0.72537 0.89253 0.3876 0.0
C161 C 0.72011 0.97757 0.38333 0.0
C162 C 0.65302 0.0092 0.36132 0.0
H163 H 0.53726 0.84283 0.35285 0.0
O164 O 0.3385 0.93408 0.35104 0.0
O165 O 0.43201 0.0007 0.32838 0.0
O166 O 0.38841 0.85669 0.27368 0.0
O167 O 0.52283 0.88494 0.28586 0.0
C168 C 0.77802 0.03194 0.40072 0.0
C169 C 0.77012 0.1172 0.39418 0.0
H170 H 0.65598 0.26131 0.34036 0.0
H171 H 0.57111 0.31893 0.32074 0.0
H172 H 0.6574 0.77874 0.38403 0.0
H173 H 0.78051 0.86514 0.39941 0.0
H174 H 0.82841 0.00878 0.41932 0.0
H175 H 0.81323 0.15937 0.4085 0.0
Mn176 Mn 0.20429 0.88728 0.5095 0.0
Mn177 Mn 0.02551 0.79796 0.52208 0.0
C178 C 0.13056 0.84705 0.44955 0.0
C179 C 0.28971 0.00355 0.5026 0.0
C180 C 0.18029 0.73537 0.55871 0.0
O181 O 0.16513 0.92642 0.56604 0.0
O182 O 0.03014 0.90006 0.55852 0.0
C183 C 0.86395 0.86234 0.51516 0.0
N184 N 0.92477 0.82379 0.49448 0.0
C185 C 0.82366 0.75094 0.45281 0.0
C186 C 0.76245 0.7984 0.4709 0.0
C187 C 0.78281 0.85455 0.50234 0.0
C188 C 0.9043 0.76337 0.46672 0.0
H189 H 0.87613 0.88877 0.5448 0.0
C190 C 0.09134 0.93623 0.57713 0.0
O191 O 0.31552 0.93539 0.51914 0.0
O192 O 0.21424 0.00478 0.49027 0.0
N193 N 0.02833 0.70421 0.48462 0.0
C194 C 0.08819 0.64679 0.4793 0.0
C195 C 0.07759 0.5826 0.45023 0.0
C196 C 0.00501 0.57667 0.42717 0.0
C197 C 0.94463 0.63632 0.43269 0.0
C198 C 0.96076 0.70219 0.46026 0.0
H199 H 0.14438 0.64938 0.49649 0.0
O200 O 0.20969 0.84881 0.45025 0.0
O201 O 0.09713 0.86173 0.48521 0.0
O202 O 0.22674 0.76965 0.53275 0.0
O203 O 0.10647 0.75253 0.55957 0.0
C204 C 0.86748 0.63031 0.41359 0.0
C205 C 0.80614 0.68606 0.42476 0.0
H206 H 0.69916 0.78871 0.4626 0.0
H207 H 0.73557 0.88638 0.51911 0.0
H208 H 0.12489 0.53697 0.44613 0.0
H209 H -0.00426 0.52536 0.40585 0.0
H210 H 0.85309 0.57974 0.39253 0.0
H211 H 0.7449 0.6761 0.41307 0.0
Mn212 Mn 0.29311 0.74751 0.7489 0.0
Mn213 Mn 0.35995 0.56094 0.77408 0.0
C214 C 0.32592 0.65117 0.69507 0.0
C215 C 0.18737 0.84825 0.73835 0.0
C216 C 0.43696 0.71028 0.80356 0.0
O217 O 0.25203 0.72334 0.80765 0.0
O218 O 0.25502 0.58332 0.80408 0.0
C219 C 0.25444 0.43287 0.74226 0.0
N220 N 0.3277 0.46715 0.74253 0.0
C221 C 0.38269 0.3531 0.70384 0.0
C222 C 0.30611 0.31568 0.70338 0.0
C223 C 0.24141 0.35574 0.72291 0.0
C224 C 0.39097 0.42895 0.72466 0.0
H225 H 0.21013 0.46786 0.75786 0.0
C226 C 0.23191 0.65195 0.82148 0.0
O227 O 0.25933 0.86669 0.75225 0.0
O228 O 0.17614 0.77077 0.72907 0.0
N229 N 0.46272 0.54511 0.74503 0.0
C230 C 0.52817 0.59622 0.7405 0.0
C231 C 0.59836 0.56801 0.72071 0.0
C232 C 0.60037 0.4885 0.70359 0.0
C233 C 0.53087 0.43924 0.70504 0.0
C234 C 0.46313 0.47026 0.72603 0.0
H235 H 0.52752 0.65948 0.74967 0.0
O236 O 0.32797 0.73028 0.68789 0.0
O237 O 0.31026 0.63354 0.73287 0.0
O238 O 0.41321 0.75504 0.77281 0.0
O239 O 0.40092 0.64482 0.81162 0.0
C240 C 0.52496 0.36203 0.68479 0.0
C241 C 0.45077 0.31875 0.68429 0.0
H242 H 0.29626 0.25668 0.68808 0.0
H243 H 0.18246 0.3267 0.72312 0.0
H244 H 0.65023 0.6085 0.71779 0.0
H245 H 0.65417 0.46746 0.68773 0.0
H246 H 0.57647 0.33636 0.66863 0.0
H247 H 0.4463 0.26005 0.66809 0.0
Mn248 Mn 0.89347 0.20556 0.59235 0.0
Mn249 Mn 0.80394 0.01891 0.58012 0.0
C250 C 0.83374 0.13697 0.64925 0.0
C251 C 0.01152 0.28995 0.6069 0.0
C252 C 0.75078 0.16953 0.53465 0.0
O253 O 0.94061 0.15678 0.53868 0.0
O254 O 0.91241 0.02132 0.55137 0.0
C255 C 0.89206 0.88345 0.62693 0.0
N256 N 0.826 0.93269 0.6213 0.0
C257 C 0.75395 0.85029 0.67178 0.0
C258 C 0.82372 0.8033 0.67907 0.0
C259 C 0.89306 0.81972 0.65627 0.0
C260 C 0.75713 0.91414 0.64215 0.0
H261 H 0.94264 0.89003 0.60841 0.0
C262 C 0.94519 0.07959 0.52937 0.0
O263 O 0.94998 0.31719 0.5853 0.0
O264 O 0.00518 0.21415 0.61938 0.0
N265 N 0.69876 0.02447 0.60687 0.0
C266 C 0.6374 0.08074 0.60162 0.0
C267 C 0.56379 0.07141 0.62232 0.0
C268 C 0.55341 0.0053 0.64943 0.0
C269 C 0.61771 0.95046 0.65636 0.0
C270 C 0.69 0.96231 0.63435 0.0
H271 H 0.64346 0.13426 0.58293 0.0
O272 O 0.84326 0.21672 0.65035 0.0
O273 O 0.8548 0.10267 0.61524 0.0
O274 O 0.78251 0.22188 0.56037 0.0
O275 O 0.76916 0.09384 0.53562 0.0
C276 C 0.61332 0.88606 0.68541 0.0
C277 C 0.68142 0.83595 0.69311 0.0
H278 H 0.8243 0.75365 0.70159 0.0
H279 H 0.94692 0.78214 0.66054 0.0
H280 H 0.51545 0.11599 0.61774 0.0
H281 H 0.49672 0.9987 0.66573 0.0
H282 H 0.55821 0.87543 0.70256 0.0
H283 H 0.67765 0.78697 0.71588 0.0
Mn284 Mn 0.945 0.37619 0.83138 0.0
Mn285 Mn 0.12693 0.29964 0.81409 0.0
C286 C 0.02724 0.33965 0.88986 0.0
C287 C 0.86525 0.49519 0.83869 0.0
C288 C 0.97353 0.22031 0.7852 0.0
O289 O 0.9704 0.41056 0.77183 0.0
O290 O 0.10548 0.39825 0.77798 0.0
C291 C 0.2479 0.42138 0.83996 0.0
N292 N 0.21859 0.34438 0.84224 0.0
C293 C 0.34652 0.29156 0.86712 0.0
C294 C 0.38125 0.36929 0.8601 0.0
C295 C 0.33098 0.4355 0.84809 0.0
C296 C 0.26408 0.28214 0.85762 0.0
H297 H 0.2059 0.4683 0.83102 0.0
C298 C 0.04157 0.42588 0.75902 0.0
O299 O 0.834 0.42616 0.82523 0.0
O300 O 0.94168 0.49458 0.8486 0.0
N301 N 0.14833 0.20379 0.84788 0.0
C302 C 0.10346 0.13402 0.85319 0.0
C303 C 0.13908 0.06505 0.87274 0.0
C304 C 0.22105 0.06767 0.88558 0.0
C305 C 0.26582 0.14024 0.87995 0.0
C306 C 0.22572 0.20789 0.86214 0.0
H307 H 0.04137 0.13034 0.8424 0.0
O308 O 0.94856 0.34309 0.89227 0.0
O309 O 0.05313 0.3519 0.85269 0.0
O310 O 0.92616 0.25605 0.81073 0.0
O311 O 0.046 0.24227 0.7808 0.0
C312 C 0.34903 0.14797 0.89038 0.0
C313 C 0.38987 0.22311 0.88298 0.0
H314 H 0.44544 0.37977 0.86576 0.0
H315 H 0.35662 0.49654 0.8452 0.0
H316 H 0.10397 0.00933 0.87699 0.0
H317 H 0.24895 0.01368 0.89958 0.0
H318 H 0.38237 0.09628 0.90347 0.0
H319 H 0.45415 0.22792 0.8901 0.0
Mn320 Mn 0.82702 0.47315 0.05301 0.0
Mn321 Mn 0.62591 0.51428 0.04312 0.0
C322 C 0.75468 0.46233 0.98039 0.0
C323 C 0.96037 0.5177 0.03771 0.0
C324 C 0.69914 0.33067 0.0627 0.0
O325 O 0.82626 0.54284 0.12135 0.0
O326 O 0.69111 0.58967 0.13455 0.0
C327 C 0.62082 0.68995 1.00468 0.0
N328 N 0.59452 0.60845 1.00292 0.0
C329 C 0.45658 0.64264 0.97232 0.0
C330 C 0.46417 0.73188 0.98733 0.0
C331 C 0.55761 0.75439 1.00894 0.0
C332 C 0.52152 0.58625 0.98382 0.0
H333 H 0.68493 0.70602 1.00496 0.0
C334 C 0.77078 0.58386 0.14525 0.0
O335 O 0.94733 0.45023 0.05782 0.0
O336 O 0.89849 0.56395 1.03098 0.0
N337 N 0.56901 0.45752 0.99579 0.0
C338 C 0.57247 0.37641 0.98274 0.0
C339 C 0.50433 0.33898 0.96411 0.0
C340 C 0.43627 0.38702 0.95443 0.0
C341 C 0.4419 0.47259 0.95828 0.0
C342 C 0.51014 0.50489 0.9793 0.0
H343 H 0.62542 0.33827 0.98774 0.0
O344 O 0.82367 0.43016 0.98884 0.0
O345 O 0.73071 0.49676 1.01211 0.0
O346 O 0.77486 0.35339 0.06648 0.0
O347 O 0.64038 0.38161 0.05464 0.0
C348 C 0.38345 0.52694 0.94153 0.0
C349 C 0.39317 0.61251 0.94669 0.0
H350 H 0.50681 0.75749 1.00077 0.0
H351 H 0.5913 0.81514 1.02102 0.0
H352 H 0.50413 0.27326 0.95793 0.0
H353 H 0.38147 0.35823 0.94264 0.0
H354 H 0.33052 0.50375 0.92494 0.0
H355 H 0.34982 0.65445 0.93262 0.0
Mn356 Mn 0.72036 0.37004 0.32865 0.0
Mn357 Mn 0.67501 0.16681 0.30519 0.0
C358 C 0.69913 0.31086 0.23885 0.0
C359 C 0.68768 0.4816 0.28356 0.0
C360 C 0.85594 0.23008 0.33267 0.0
O361 O 0.64451 0.35083 0.39151 0.0
O362 O 0.60357 0.21321 0.39772 0.0
C363 C 0.49809 0.14872 0.26836 0.0
N364 N 0.58011 0.13103 0.26549 0.0
C365 C 0.5519 0.99121 0.23449 0.0
C366 C 0.4653 0.99522 0.2509 0.0
C367 C 0.44185 0.08215 0.27217 0.0
C368 C 0.60453 0.06003 0.2453 0.0
H369 H 0.47648 0.21222 0.26887 0.0
C370 C 0.6055 0.29071 0.41211 0.0
O371 O 0.76062 0.453 0.28721 0.0
O372 O 0.63389 0.44763 0.30629 0.0
N373 N 0.72809 0.11807 0.25497 0.0
C374 C 0.8029 0.13449 0.23839 0.0
C375 C 0.83667 0.08121 0.20862 0.0
C376 C 0.79315 0.01185 0.19469 0.0
C377 C 0.71414 -9e-05 0.20859 0.0
C378 C 0.68373 0.05691 0.23741 0.0
H379 H 0.83732 0.18868 0.24729 0.0
O380 O 0.69762 0.28929 0.27613 0.0
O381 O 0.69704 0.28622 0.27742 0.0
O382 O 0.83287 0.30478 0.34227 0.0
O383 O 0.80674 0.1756 0.31687 0.0
C384 C 0.6628 0.93629 0.19339 0.0
C385 C 0.58182 0.93123 0.20684 0.0
H386 H 0.42536 0.95398 0.23494 0.0
H387 H 0.38203 0.102 0.27953 0.0
H388 H 0.89632 0.0937 0.19651 0.0
H389 H 0.81944 0.97058 0.17195 0.0
H390 H 0.68482 0.89139 0.17115 0.0
H391 H 0.54271 0.88269 0.19518 0.0
loop_
_geom_bond_atom_site_label_1
_geom_bond_atom_site_label_2
_geom_bond_distance
_geom_bond_site_symmetry_2
_ccdc_geom_bond_type
Mg0 O7 2.141 . S
Mg0 O8 2.048 1_545 S
Mg0 O9 2.048 1_455 S
Mg0 O12 2.141 1_455 S
C1 O2 1.313 . S
C1 O8 1.195 . S
O2 C1 1.313 . S
C3 O4 1.245 . S
C3 O12 1.289 . S
O4 C3 1.245 . S
C5 O6 1.245 . S
C5 O7 1.289 1_565 S
O6 C5 1.245 . S
O7 Mg0 2.141 . S
O7 C5 1.289 1_545 S
O8 Mg0 2.048 1_565 S
O8 C1 1.195 . S
O9 Mg0 2.048 1_655 S
O9 C10 1.195 . S
C10 O9 1.195 . S
C10 O11 1.313 1_545 S
O11 C10 1.313 1_565 S
O12 Mg0 2.141 1_655 S
O12 C3 1.289 . S
Mg13 O20 2.141 . S
Mg13 O21 2.048 . S
Mg13 O22 2.048 . S
Mg13 O25 2.141 . S
C14 O15 1.313 . S
C14 O21 1.195 . S
O15 C14 1.313 . S
C16 O17 1.245 . S
C16 O25 1.289 . S
O17 C16 1.245 . S
C18 O19 1.245 . S
C18 O20 1.289 . S
O19 C18 1.245 . S
O20 Mg13 2.141 . S
O20 C18 1.289 . S
O21 Mg13 2.048 . S
O21 C14 1.195 . S
O22 Mg13 2.048 . S
O22 C23 1.195 . S
C23 O22 1.195 . S
C23 O24 1.313 . S
O24 C23 1.313 . S
O25 Mg13 2.141 . S
O25 C16 1.289 . S
Mg26 O33 2.141 . S
Mg26 O34 2.048 . S
Mg26 O35 2.048 . S
Mg26 O38 2.141 . S
C27 O28 1.313 . S
C27 O34 1.195 . S
O28 C27 1.313 . S
C29 O30 1.245 . S
C29 O38 1.289 . S
O30 C29 1.245 . S
C31 O32 1.245 . S
C31 O33 1.289 . S
O32 C31 1.245 . S
O33 Mg26 2.141 . S
O33 C31 1.289 . S
O34 Mg26 2.048 . S
O34 C27 1.195 . S
O35 Mg26 2.048 . S
O35 C36 1.195 . S
C36 O35 1.195 . S
C36 O37 1.313 . S
O37 C36 1.313 . S
O38 Mg26 2.141 . S
O38 C29 1.289 . S
Mg39 O46 2.141 . S
Mg39 O47 2.048 . S
Mg39 O48 2.048 . S
Mg39 O51 2.141 . S
C40 O41 1.313 . S
C40 O47 1.195 . S
O41 C40 1.313 . S
C42 O43 1.245 . S
C42 O51 1.289 . S
O43 C42 1.245 . S
C44 O45 1.245 . S
C44 O46 1.289 . S
O45 C44 1.245 . S
O46 Mg39 2.141 . S
O46 C44 1.289 . S
O47 Mg39 2.048 . S
O47 C40 1.195 . S
O48 Mg39 2.048 . S
O48 C49 1.195 . S
C49 O48 1.195 . S
C49 O50 1.313 . S
O50 C49 1.313 . S
O51 Mg39 2.141 . S
O51 C42 1.289 . S
Mg52 O59 2.141 . S
Mg52 O60 2.048 . S
Mg52 O61 2.048 . S
Mg52 O64 2.141 . S
C53 O54 1.313 . S
C53 O60 1.195 . S
O54 C53 1.313 . S
C55 O56 1.245 . S
C55 O64 1.289 . S
O56 C55 1.245 . S
C57 O58 1.245 . S
C57 O59 1.289 . S
O58 C57 1.245 . S
O59 Mg52 2.141 . S
O59 C57 1.289 . S
O60 Mg52 2.048 . S
O60 C53 1.195 . S
O61 Mg52 2.048 . S
O61 C62 1.195 . S
C62 O61 1.195 . S
C62 O63 1.313 . S
O63 C62 1.313 . S
O64 Mg52 2.141 . S
O64 C55 1.289 . S
Mg65 O72 2.141 . S
Mg65 O73 2.048 . S
Mg65 O74 2.048 . S
Mg65 O77 2.141 . S
C66 O67 1.313 . S
C66 O73 1.195 . S
O67 C66 1.313 . S
C68 O69 1.245 . S
C68 O77 1.289 . S
O69 C68 1.245 . S
C70 O71 1.245 . S
C70 O72 1.289 . S
O71 C70 1.245 . S
O72 Mg65 2.141 . S
O72 C70 1.289 . S
O73 Mg65 2.048 . S
O73 C66 1.195 . S
O74 Mg65 2.048 . S
O74 C75 1.195 . S
C75 O74 1.195 . S
C75 O76 1.313 . S
O76 C75 1.313 . S
O77 Mg65 2.141 . S
O77 C68 1.289 . S
Mg78 O85 2.141 . S
Mg78 O86 2.048 . S
Mg78 O87 2.048 . S
Mg78 O90 2.141 . S
C79 O80 1.313 . S
C79 O86 1.195 . S
O80 C79 1.313 . S
C81 O82 1.245 . S
C81 O90 1.289 . S
O82 C81 1.245 . S
C83 O84 1.245 . S
C83 O85 1.289 . S
O84 C83 1.245 . S
O85 Mg78 2.141 . S
O85 C83 1.289 . S
O86 Mg78 2.048 . S
O86 C79 1.195 . S
O87 Mg78 2.048 . S
O87 C88 1.195 . S
C88 O87 1.195 . S
C88 O89 1.313 . S
O89 C88 1.313 . S
O90 Mg78 2.141 . S
O90 C81 1.289 . S
Mg91 O98 2.141 1_655 S
Mg91 O99 2.048 1_655 S
Mg91 O100 2.048 1_565 S
Mg91 O103 2.141 1_565 S
C92 O93 1.313 . S
C92 O99 1.195 . S
O93 C92 1.313 . S
C94 O95 1.245 1_655 S
C94 O103 1.289 . S
O95 C94 1.245 1_455 S
C96 O97 1.245 . S
C96 O98 1.289 . S
O97 C96 1.245 . S
O98 Mg91 2.141 1_455 S
O98 C96 1.289 . S
O99 Mg91 2.048 1_455 S
O99 C92 1.195 . S
O100 Mg91 2.048 1_545 S
O100 C101 1.195 . S
C101 O100 1.195 . S
C101 O102 1.313 1_655 S
O102 C101 1.313 1_455 S
O103 Mg91 2.141 1_545 S
O103 C94 1.289 . S
Mn104 O109 2.095 1_554 S
Mn104 O119 2.162 . S
Mn104 O120 2.297 . S
Mn104 O128 2.385 . S
Mn104 O129 2.209 . S
Mn104 O130 2.094 1_554 S
Mn105 O110 2.121 . S
Mn105 N112 2.257 1_556 S
Mn105 N121 2.282 1_556 S
Mn105 O129 2.215 1_556 S
Mn105 O131 2.117 . S
C106 O128 1.234 . S
C106 O129 1.283 . S
C107 O119 1.281 . S
C107 O120 1.236 . S
C108 O130 1.240 . S
C108 O131 1.264 . S
O109 Mn104 2.095 1_556 S
O109 C118 1.250 . S
O110 Mn105 2.121 . S
O110 C118 1.258 . S
C111 N112 1.326 1_556 S
C111 C115 1.460 1_556 S
C111 H117 0.929 . S
N112 Mn105 2.257 1_554 S
N112 C111 1.326 1_554 S
N112 C116 1.362 . S
C113 C114 1.258 . S
C113 C116 1.431 . S
C113 C133 1.449 . S
C114 C113 1.258 . S
C114 C115 1.477 . S
C114 H134 0.931 . S
C115 C111 1.460 1_554 S
C115 C114 1.477 . S
C115 H135 0.928 1_554 S
C116 N112 1.362 . S
C116 C113 1.431 . S
C116 C126 1.476 . S
H117 C111 0.929 . S
C118 O109 1.250 . S
C118 O110 1.258 . S
O119 Mn104 2.162 . S
O119 C107 1.281 . S
O120 Mn104 2.297 . S
O120 C107 1.236 . S
N121 Mn105 2.282 1_554 S
N121 C122 1.328 . S
N121 C126 1.318 . S
C122 N121 1.328 . S
C122 C123 1.457 . S
C122 H127 0.929 . S
C123 C122 1.457 . S
C123 C124 1.291 . S
C123 H136 0.931 . S
C124 C123 1.291 . S
C124 C125 1.373 . S
C124 H137 0.929 . S
C125 C124 1.373 . S
C125 C126 1.396 . S
C125 C132 1.403 . S
C126 C116 1.476 . S
C126 N121 1.318 . S
C126 C125 1.396 . S
H127 C122 0.929 . S
O128 Mn104 2.385 . S
O128 C106 1.234 . S
O129 Mn104 2.209 . S
O129 Mn105 2.215 1_554 S
O129 C106 1.283 . S
O130 Mn104 2.094 1_556 S
O130 C108 1.240 . S
O131 Mn105 2.117 . S
O131 C108 1.264 . S
C132 C125 1.403 . S
C132 C133 1.399 . S
C132 H138 0.929 . S
C133 C113 1.449 . S
C133 C132 1.399 . S
C133 H139 0.930 . S
H134 C114 0.931 . S
H135 C115 0.928 1_556 S
H136 C123 0.931 . S
H137 C124 0.929 . S
H138 C132 0.929 . S
H139 C133 0.930 . S
Mn140 O145 2.095 . S
Mn140 O155 2.162 . S
Mn140 O156 2.297 1_565 S
Mn140 O164 2.385 . S
Mn140 O165 2.209 1_565 S
Mn140 O166 2.094 . S
Mn141 O146 2.121 . S
Mn141 N148 2.257 . S
Mn141 N157 2.282 1_545 S
Mn141 O165 2.215 . S
Mn141 O167 2.117 1_545 S
C142 O164 1.234 . S
C142 O165 1.283 1_565 S
C143 O155 1.281 . S
C143 O156 1.236 1_565 S
C144 O166 1.240 . S
C144 O167 1.264 . S
O145 Mn140 2.095 . S
O145 C154 1.250 1_565 S
O146 Mn141 2.121 . S
O146 C154 1.258 . S
C147 N148 1.326 . S
C147 C151 1.460 . S
C147 H153 0.929 . S
N148 Mn141 2.257 . S
N148 C147 1.326 . S
N148 C152 1.362 . S
C149 C150 1.258 . S
C149 C152 1.431 . S
C149 C169 1.449 . S
C150 C149 1.258 . S
C150 C151 1.477 . S
C150 H170 0.931 . S
C151 C147 1.460 . S
C151 C150 1.477 . S
C151 H171 0.930 . S
C152 N148 1.362 . S
C152 C149 1.431 . S
C152 C162 1.476 . S
H153 C147 0.929 . S
C154 O145 1.250 1_545 S
C154 O146 1.258 . S
O155 Mn140 2.162 . S
O155 C143 1.281 . S
O156 Mn140 2.297 1_545 S
O156 C143 1.236 1_545 S
N157 Mn141 2.282 1_565 S
N157 C158 1.328 . S
N157 C162 1.318 1_565 S
C158 N157 1.328 . S
C158 C159 1.457 . S
C158 H163 0.929 . S
C159 C158 1.457 . S
C159 C160 1.291 . S
C159 H172 0.931 . S
C160 C159 1.291 . S
C160 C161 1.373 1_565 S
C160 H173 0.929 . S
C161 C160 1.373 1_545 S
C161 C162 1.396 . S
C161 C168 1.403 . S
C162 C152 1.476 . S
C162 N157 1.318 1_545 S
C162 C161 1.396 . S
H163 C158 0.929 . S
O164 Mn140 2.385 . S
O164 C142 1.234 . S
O165 Mn140 2.209 1_545 S
O165 Mn141 2.215 . S
O165 C142 1.283 1_545 S
O166 Mn140 2.094 . S
O166 C144 1.240 . S
O167 Mn141 2.117 1_565 S
O167 C144 1.264 . S
C168 C161 1.403 . S
C168 C169 1.399 . S
C168 H174 0.929 . S
C169 C149 1.449 . S
C169 C168 1.399 . S
C169 H175 0.930 . S
H170 C150 0.931 . S
H171 C151 0.930 . S
H172 C159 0.931 . S
H173 C160 0.929 . S
H174 C168 0.929 . S
H175 C169 0.930 . S
Mn176 O181 2.095 . S
Mn176 O191 2.162 . S
Mn176 O192 2.297 . S
Mn176 O200 2.385 . S
Mn176 O201 2.209 . S
Mn176 O202 2.094 . S
Mn177 O182 2.121 . S
Mn177 N184 2.257 1_455 S
Mn177 N193 2.282 1_455 S
Mn177 O201 2.215 . S
Mn177 O203 2.117 . S
C178 O200 1.234 . S
C178 O201 1.283 . S
C179 O191 1.281 . S
C179 O192 1.236 . S
C180 O202 1.240 . S
C180 O203 1.264 . S
O181 Mn176 2.095 . S
O181 C190 1.250 . S
O182 Mn177 2.121 . S
O182 C190 1.258 . S
C183 N184 1.326 . S
C183 C187 1.460 . S
C183 H189 0.929 . S
N184 Mn177 2.257 1_655 S
N184 C183 1.326 . S
N184 C188 1.362 . S
C185 C186 1.258 . S
C185 C188 1.431 . S
C185 C205 1.449 . S
C186 C185 1.258 . S
C186 C187 1.477 . S
C186 H206 0.931 . S
C187 C183 1.460 . S
C187 C186 1.477 . S
C187 H207 0.930 1_565 S
C188 N184 1.362 . S
C188 C185 1.431 . S
C188 C198 1.476 . S
H189 C183 0.929 . S
C190 O181 1.250 . S
C190 O182 1.258 . S
O191 Mn176 2.162 . S
O191 C179 1.281 . S
O192 Mn176 2.297 . S
O192 C179 1.236 . S
N193 Mn177 2.282 1_655 S
N193 C194 1.328 1_655 S
N193 C198 1.318 . S
C194 N193 1.328 1_455 S
C194 C195 1.457 1_455 S
C194 H199 0.929 . S
C195 C194 1.457 1_655 S
C195 C196 1.291 . S
C195 H208 0.929 1_655 S
C196 C195 1.291 . S
C196 C197 1.373 . S
C196 H209 0.929 . S
C197 C196 1.373 . S
C197 C198 1.396 . S
C197 C204 1.403 . S
C198 C188 1.476 . S
C198 N193 1.318 . S
C198 C197 1.396 . S
H199 C194 0.929 . S
O200 Mn176 2.385 . S
O200 C178 1.234 . S
O201 Mn176 2.209 . S
O201 Mn177 2.215 . S
O201 C178 1.283 . S
O202 Mn176 2.094 . S
O202 C180 1.240 . S
O203 Mn177 2.117 . S
O203 C180 1.264 . S
C204 C197 1.403 . S
C204 C205 1.399 . S
C204 H210 0.929 . S
C205 C185 1.449 . S
C205 C204 1.399 . S
C205 H211 0.930 . S
H206 C186 0.931 . S
H207 C187 0.930 1_545 S
H208 C195 0.929 1_455 S
H209 C196 0.929 . S
H210 C204 0.929 . S
H211 C205 0.930 . S
Mn212 O217 2.095 . S
Mn212 O227 2.162 . S
Mn212 O228 2.297 . S
Mn212 O236 2.385 . S
Mn212 O237 2.209 . S
Mn212 O238 2.094 . S
Mn213 O218 2.121 . S
Mn213 N220 2.257 . S
Mn213 N229 2.282 . S
Mn213 O237 2.215 . S
Mn213 O239 2.117 . S
C214 O236 1.234 . S
C214 O237 1.283 . S
C215 O227 1.281 . S
C215 O228 1.236 . S
C216 O238 1.240 . S
C216 O239 1.264 . S
O217 Mn212 2.095 . S
O217 C226 1.250 . S
O218 Mn213 2.121 . S
O218 C226 1.258 . S
C219 N220 1.326 . S
C219 C223 1.460 . S
C219 H225 0.929 . S
N220 Mn213 2.257 . S
N220 C219 1.326 . S
N220 C224 1.362 . S
C221 C222 1.258 . S
C221 C224 1.431 . S
C221 C241 1.449 . S
C222 C221 1.258 . S
C222 C223 1.477 . S
C222 H242 0.931 . S
C223 C219 1.460 . S
C223 C222 1.477 . S
C223 H243 0.930 . S
C224 N220 1.362 . S
C224 C221 1.431 . S
C224 C234 1.476 . S
H225 C219 0.929 . S
C226 O217 1.250 . S
C226 O218 1.258 . S
O227 Mn212 2.162 . S
O227 C215 1.281 . S
O228 Mn212 2.297 . S
O228 C215 1.236 . S
N229 Mn213 2.282 . S
N229 C230 1.328 . S
N229 C234 1.318 . S
C230 N229 1.328 . S
C230 C231 1.457 . S
C230 H235 0.929 . S
C231 C230 1.457 . S
C231 C232 1.291 . S
C231 H244 0.931 . S
C232 C231 1.291 . S
C232 C233 1.373 . S
C232 H245 0.929 . S
C233 C232 1.373 . S
C233 C234 1.396 . S
C233 C240 1.403 . S
C234 C224 1.476 . S
C234 N229 1.318 . S
C234 C233 1.396 . S
H235 C230 0.929 . S
O236 Mn212 2.385 . S
O236 C214 1.234 . S
O237 Mn212 2.209 . S
O237 Mn213 2.215 . S
O237 C214 1.283 . S
O238 Mn212 2.094 . S
O238 C216 1.240 . S
O239 Mn213 2.117 . S
O239 C216 1.264 . S
C240 C233 1.403 . S
C240 C241 1.399 . S
C240 H246 0.929 . S
C241 C221 1.449 . S
C241 C240 1.399 . S
C241 H247 0.930 . S
H242 C222 0.931 . S
H243 C223 0.930 . S
H244 C231 0.931 . S
H245 C232 0.929 . S
H246 C240 0.929 . S
H247 C241 0.930 . S
Mn248 O253 2.095 . S
Mn248 O263 2.162 . S
Mn248 O264 2.297 . S
Mn248 O272 2.385 . S
Mn248 O273 2.209 . S
Mn248 O274 2.094 . S
Mn249 O254 2.121 . S
Mn249 N256 2.257 1_545 S
Mn249 N265 2.282 1_545 S
Mn249 O273 2.215 . S
Mn249 O275 2.117 . S
C250 O272 1.234 . S
C250 O273 1.283 . S
C251 O263 1.281 . S
C251 O264 1.236 . S
C252 O274 1.240 . S
C252 O275 1.264 . S
O253 Mn248 2.095 . S
O253 C262 1.250 . S
O254 Mn249 2.121 . S
O254 C262 1.258 . S
C255 N256 1.326 . S
C255 C259 1.460 . S
C255 H261 0.929 . S
N256 Mn249 2.257 1_565 S
N256 C255 1.326 . S
N256 C260 1.362 . S
C257 C258 1.258 . S
C257 C260 1.431 . S
C257 C277 1.449 . S
C258 C257 1.258 . S
C258 C259 1.477 . S
C258 H278 0.931 . S
C259 C255 1.460 . S
C259 C258 1.477 . S
C259 H279 0.930 1_655 S
C260 N256 1.362 . S
C260 C257 1.431 . S
C260 C270 1.476 . S
H261 C255 0.929 . S
C262 O253 1.250 . S
C262 O254 1.258 . S
O263 Mn248 2.162 . S
O263 C251 1.281 . S
O264 Mn248 2.297 . S
O264 C251 1.236 . S
N265 Mn249 2.282 1_565 S
N265 C266 1.328 1_565 S
N265 C270 1.318 . S
C266 N265 1.328 1_545 S
C266 C267 1.457 1_545 S
C266 H271 0.929 . S
C267 C266 1.457 1_565 S
C267 C268 1.291 . S
C267 H280 0.934 . S
C268 C267 1.291 . S
C268 C269 1.373 . S
C268 H281 0.929 . S
C269 C268 1.373 . S
C269 C270 1.396 . S
C269 C276 1.403 . S
C270 C260 1.476 . S
C270 N265 1.318 . S
C270 C269 1.396 . S
H271 C266 0.929 . S
O272 Mn248 2.385 . S
O272 C250 1.234 . S
O273 Mn248 2.209 . S
O273 Mn249 2.215 . S
O273 C250 1.283 . S
O274 Mn248 2.094 . S
O274 C252 1.240 . S
O275 Mn249 2.117 . S
O275 C252 1.264 . S
C276 C269 1.403 . S
C276 C277 1.399 . S
C276 H282 0.929 . S
C277 C257 1.449 . S
C277 C276 1.399 . S
C277 H283 0.930 . S
H278 C258 0.931 . S
H279 C259 0.930 1_455 S
H280 C267 0.934 . S
H281 C268 0.929 . S
H282 C276 0.929 . S
H283 C277 0.930 . S
Mn284 O289 2.095 . S
Mn284 O299 2.162 . S
Mn284 O300 2.297 . S
Mn284 O308 2.385 . S
Mn284 O309 2.209 1_655 S
Mn284 O310 2.094 . S
Mn285 O290 2.121 . S
Mn285 N292 2.257 . S
Mn285 N301 2.282 . S
Mn285 O309 2.215 . S
Mn285 O311 2.117 . S
C286 O308 1.234 1_455 S
C286 O309 1.283 . S
C287 O299 1.281 . S
C287 O300 1.236 . S
C288 O310 1.240 . S
C288 O311 1.264 1_655 S
O289 Mn284 2.095 . S
O289 C298 1.250 1_655 S
O290 Mn285 2.121 . S
O290 C298 1.258 . S
C291 N292 1.326 . S
C291 C295 1.460 . S
C291 H297 0.929 . S
N292 Mn285 2.257 . S
N292 C291 1.326 . S
N292 C296 1.362 . S
C293 C294 1.258 . S
C293 C296 1.431 . S
C293 C313 1.449 . S
C294 C293 1.258 . S
C294 C295 1.477 . S
C294 H314 0.931 . S
C295 C291 1.460 . S
C295 C294 1.477 . S
C295 H315 0.930 . S
C296 N292 1.362 . S
C296 C293 1.431 . S
C296 C306 1.476 . S
H297 C291 0.929 . S
C298 O289 1.250 1_455 S
C298 O290 1.258 . S
O299 Mn284 2.162 . S
O299 C287 1.281 . S
O300 Mn284 2.297 . S
O300 C287 1.236 . S
N301 Mn285 2.282 . S
N301 C302 1.328 . S
N301 C306 1.318 . S
C302 N301 1.328 . S
C302 C303 1.457 . S
C302 H307 0.929 . S
C303 C302 1.457 . S
C303 C304 1.291 . S
C303 H316 0.931 . S
C304 C303 1.291 . S
C304 C305 1.373 . S
C304 H317 0.929 . S
C305 C304 1.373 . S
C305 C306 1.396 . S
C305 C312 1.403 . S
C306 C296 1.476 . S
C306 N301 1.318 . S
C306 C305 1.396 . S
H307 C302 0.929 . S
O308 Mn284 2.385 . S
O308 C286 1.234 1_655 S
O309 Mn284 2.209 1_455 S
O309 Mn285 2.215 . S
O309 C286 1.283 . S
O310 Mn284 2.094 . S
O310 C288 1.240 . S
O311 Mn285 2.117 . S
O311 C288 1.264 1_455 S
C312 C305 1.403 . S
C312 C313 1.399 . S
C312 H318 0.929 . S
C313 C293 1.449 . S
C313 C312 1.399 . S
C313 H319 0.930 . S
H314 C294 0.931 . S
H315 C295 0.930 . S
H316 C303 0.931 . S
H317 C304 0.929 . S
H318 C312 0.929 . S
H319 C313 0.930 . S
Mn320 O325 2.095 . S
Mn320 O335 2.162 . S
Mn320 O336 2.297 . S
Mn320 O344 2.385 1_554 S
Mn320 O345 2.209 1_554 S
Mn320 O346 2.094 . S
Mn321 O326 2.121 . S
Mn321 N328 2.257 . S
Mn321 N337 2.282 1_554 S
Mn321 O345 2.215 1_554 S
Mn321 O347 2.117 . S
C322 O344 1.234 . S
C322 O345 1.283 . S
C323 O335 1.281 . S
C323 O336 1.236 . S
C324 O346 1.240 . S
C324 O347 1.264 . S
O325 Mn320 2.095 . S
O325 C334 1.250 . S
O326 Mn321 2.121 . S
O326 C334 1.258 . S
C327 N328 1.326 . S
C327 C331 1.460 . S
C327 H333 0.929 . S
N328 Mn321 2.257 . S
N328 C327 1.326 . S
N328 C332 1.362 1_554 S
C329 C330 1.258 . S
C329 C332 1.431 . S
C329 C349 1.449 . S
C330 C329 1.258 . S
C330 C331 1.477 1_556 S
C330 H350 0.931 . S
C331 C327 1.460 . S
C331 C330 1.477 1_554 S
C331 H351 0.930 . S
C332 N328 1.362 1_556 S
C332 C329 1.431 . S
C332 C342 1.476 . S
H333 C327 0.929 . S
C334 O325 1.250 . S
C334 O326 1.258 . S
O335 Mn320 2.162 . S
O335 C323 1.281 . S
O336 Mn320 2.297 . S
O336 C323 1.236 . S
N337 Mn321 2.282 1_556 S
N337 C338 1.328 . S
N337 C342 1.318 . S
C338 N337 1.328 . S
C338 C339 1.457 . S
C338 H343 0.929 . S
C339 C338 1.457 . S
C339 C340 1.291 . S
C339 H352 0.931 . S
C340 C339 1.291 . S
C340 C341 1.373 . S
C340 H353 0.929 . S
C341 C340 1.373 . S
C341 C342 1.396 . S
C341 C348 1.403 . S
C342 C332 1.476 . S
C342 N337 1.318 . S
C342 C341 1.396 . S
H343 C338 0.929 . S
O344 Mn320 2.385 1_556 S
O344 C322 1.234 . S
O345 Mn320 2.209 1_556 S
O345 Mn321 2.215 1_556 S
O345 C322 1.283 . S
O346 Mn320 2.094 . S
O346 C324 1.240 . S
O347 Mn321 2.117 . S
O347 C324 1.264 . S
C348 C341 1.403 . S
C348 C349 1.399 . S
C348 H354 0.929 . S
C349 C329 1.449 . S
C349 C348 1.399 . S
C349 H355 0.930 . S
H350 C330 0.931 . S
H351 C331 0.930 . S
H352 C339 0.931 . S
H353 C340 0.929 . S
H354 C348 0.929 . S
H355 C349 0.930 . S
Mn356 O361 2.095 . S
Mn356 O371 2.162 . S
Mn356 O372 2.297 . S
Mn356 O380 2.385 . S
Mn356 O381 2.209 . S
Mn356 O382 2.094 . S
Mn357 O362 2.121 . S
Mn357 N364 2.257 . S
Mn357 N373 2.282 . S
Mn357 O381 2.215 . S
Mn357 O383 2.117 . S
C358 O380 1.234 . S
C358 O381 1.283 . S
C359 O371 1.281 . S
C359 O372 1.236 . S
C360 O382 1.240 . S
C360 O383 1.264 . S
O361 Mn356 2.095 . S
O361 C370 1.250 . S
O362 Mn357 2.121 . S
O362 C370 1.258 . S
C363 N364 1.326 . S
C363 C367 1.460 . S
C363 H369 0.929 . S
N364 Mn357 2.257 . S
N364 C363 1.326 . S
N364 C368 1.362 . S
C365 C366 1.258 . S
C365 C368 1.431 1_565 S
C365 C385 1.449 . S
C366 C365 1.258 . S
C366 C367 1.477 1_565 S
C366 H386 0.931 . S
C367 C363 1.460 . S
C367 C366 1.477 1_545 S
C367 H387 0.930 . S
C368 N364 1.362 . S
C368 C365 1.431 1_545 S
C368 C378 1.476 . S
H369 C363 0.929 . S
C370 O361 1.250 . S
C370 O362 1.258 . S
O371 Mn356 2.162 . S
O371 C359 1.281 . S
O372 Mn356 2.297 . S
O372 C359 1.236 . S
N373 Mn357 2.282 . S
N373 C374 1.328 . S
N373 C378 1.318 . S
C374 N373 1.328 . S
C374 C375 1.457 1_545 S
C374 H379 0.929 . S
C375 C374 1.457 1_565 S
C375 C376 1.291 . S
C375 H388 0.931 . S
C376 C375 1.291 . S
C376 C377 1.373 . S
C376 H389 0.929 . S
C377 C376 1.373 . S
C377 C378 1.396 1_565 S
C377 C384 1.403 . S
C378 C368 1.476 . S
C378 N373 1.318 . S
C378 C377 1.396 1_545 S
H379 C374 0.929 . S
O380 Mn356 2.385 . S
O380 C358 1.234 . S
O381 Mn356 2.209 . S
O381 Mn357 2.215 . S
O381 C358 1.283 . S
O382 Mn356 2.094 . S
O382 C360 1.240 . S
O383 Mn357 2.117 . S
O383 C360 1.264 . S
C384 C377 1.403 . S
C384 C385 1.399 . S
C384 H390 0.929 . S
C385 C365 1.449 . S
C385 C384 1.399 . S
C385 H391 0.930 . S
H386 C366 0.931 . S
H387 C367 0.930 . S
H388 C375 0.931 . S
H389 C376 0.929 . S
H390 C384 0.929 . S
H391 C385 0.930 . S
C143 C5 1.585 . S
C180 C18 1.623 . S
C216 C31 1.628 . S
C42 C107 1.412 1_545 S
C57 C108 1.557 . S
C70 C144 1.550 . S
C179 C81 1.807 1_565 S
C215 C96 1.631 . S
C29 C287 1.807 . S
C324 C44 1.550 . S
C3 C360 1.706 . S
C251 C16 1.809 1_655 S
C83 C252 1.628 . S
C94 C288 1.426 . S
C323 C55 1.413 1_654 S
C68 C359 1.412 . S
C178 C1 1.472 . S
C214 C14 1.453 . S
C27 C118 1.172 . S
C49 C154 1.155 . S
C53 C226 1.714 . S
C106 C66 2.144 . S
C142 C88 2.383 1_565 S
C190 C92 1.727 . S
C322 C36 2.383 . S
C358 C40 2.144 . S
C10 C262 1.922 . S
C298 C23 1.935 . S
C370 C79 1.172 . S
C101 C250 1.473 . S
C286 C62 1.497 . S
C334 C75 1.155 . S
