# Generated by pormake.
# Topology scu, (8,4)-cn, num edge types: 1
# Building blocks:
#     Node 0, Type 0, BuildingBlock: GIZVER_clean_sbu_0, # of connection points: 8
#     Node 1, Type 1, BuildingBlock: KOZSID_clean_sbu_0, # of connection points: 4
#     Node 2, Type 1, BuildingBlock: KOZSID_clean_sbu_0, # of connection points: 4
#     Edge 3, Type (0, 1), BuildingBlock: CIFDUS_clean_linker_0, # of connection points: 2
#     Edge 4, Type (0, 1), BuildingBlock: CIFDUS_clean_linker_0, # of connection points: 2
#     Edge 5, Type (0, 1), BuildingBlock: CIFDUS_clean_linker_0, # of connection points: 2
#     Edge 6, Type (0, 1), BuildingBlock: CIFDUS_clean_linker_0, # of connection points: 2
#     Edge 7, Type (0, 1), BuildingBlock: CIFDUS_clean_linker_0, # of connection points: 2
#     Edge 8, Type (0, 1), BuildingBlock: CIFDUS_clean_linker_0, # of connection points: 2
#     Edge 9, Type (0, 1), BuildingBlock: CIFDUS_clean_linker_0, # of connection points: 2
#     Edge 10, Type (0, 1), BuildingBlock: CIFDUS_clean_linker_0, # of connection points: 2
# Relax obj value: 0.045
# Max RMSD: 0.112
# Mean RMSD: 0.103
data_MOF--net-scu--node1-GIZVER_clean_sbu_0--node2-KOZSID_clean_sbu_0--edge1-CIFDUS_clean_linker_0
_symmetry_space_group_name_H-M    P1
_symmetry_Int_Tables_number       1
_symmetry_cell_setting            triclinic
loop_
_symmetry_equiv_pos_as_xyz
'x, y, z'
_cell_length_a     23.856611
_cell_length_b     24.442504
_cell_length_c     21.52571
_cell_angle_alpha  95.875837
_cell_angle_beta   77.414646
_cell_angle_gamma 112.03083
loop_
_atom_site_label
_atom_site_type_symbol
_atom_site_fract_x
_atom_site_fract_y
_atom_site_fract_z
_atom_type_partial_charge
Co0 Co 0.00981 0.92789 0.13552 0.0
Co1 Co 0.10575 0.02008 0.09777 0.0
Co2 Co 0.00857 0.01453 1.01495 0.0
O3 O 0.04536 0.96961 0.05591 0.0
H4 H 0.06347 0.94677 0.0244 0.0
O5 O 0.97286 0.06045 0.97408 0.0
Co6 Co 1.00647 0.09526 0.89082 0.0
Co7 Co 0.90886 1.0102 0.93932 0.0
H8 H 0.95806 0.08635 1.00438 0.0
O9 O 0.17043 0.99947 0.10233 0.0
O10 O 0.08077 0.98235 0.1741 0.0
O11 O 0.10986 0.09963 0.11699 0.0
O12 O 0.029 0.08679 0.07429 0.0
O13 O 0.08892 0.04763 0.95404 0.0
O14 O 0.03443 0.13307 0.81646 0.0
O15 O 0.9721 0.15184 0.90339 0.0
O16 O 0.05131 0.04277 0.86652 0.0
O17 O 0.98689 0.94217 0.95523 0.0
O18 O 0.89519 0.92788 0.9347 0.0
O19 O 0.93204 0.03926 0.85794 0.0
O20 O 0.8465 0.03242 0.93299 0.0
C21 C 0.0166 0.85678 0.17591 0.0
C22 C 0.92118 0.98234 0.13645 0.0
C23 C 0.06847 0.11702 0.10836 0.0
C24 C 0.1368 0.98199 0.15794 0.0
C25 C 1.00248 0.16465 0.84504 0.0
C26 C 0.09415 0.04259 0.89341 0.0
C27 C 0.93894 0.91005 0.93296 0.0
C28 C 0.87626 0.04061 0.87432 0.0
O29 O 0.98115 0.88447 0.2062 0.0
O30 O 0.04763 0.8737 0.11868 0.0
O31 O 0.92804 0.98119 0.07566 0.0
O32 O 0.96168 0.97735 0.16373 0.0
C33 C 0.07382 0.62041 0.42329 0.0
C34 C 0.12864 0.66756 0.40521 0.0
C35 C 0.16818 0.66644 0.44207 0.0
C36 C 0.13561 0.61893 0.4806 0.0
N37 N 0.07817 0.58913 0.4698 0.0
Co38 Co 0.01538 0.52021 0.51952 0.0
N39 N 0.07829 0.50791 0.55854 0.0
C40 C 0.13559 0.54713 0.55927 0.0
C41 C 0.16863 0.52752 0.59048 0.0
C42 C 0.12959 0.47252 0.61121 0.0
C43 C 0.07475 0.46154 0.59123 0.0
N44 N 0.95254 0.45201 0.57007 0.0
C45 C 0.95944 0.41049 0.60213 0.0
C46 C 0.90255 0.36995 0.62927 0.0
C47 C 0.85871 0.38737 0.61504 0.0
C48 C 0.89097 0.43703 0.57961 0.0
N49 N 0.95238 0.53201 0.48007 0.0
C50 C 0.89078 0.50645 0.49866 0.0
C51 C 0.85827 0.52136 0.46239 0.0
C52 C 0.90192 0.55964 0.41867 0.0
C53 C 0.95894 0.56651 0.43117 0.0
N54 N 0.02929 0.46602 0.44898 0.0
C55 C 0.05133 0.3827 0.35597 0.0
C56 C 0.991 0.37849 0.38413 0.0
C57 C 0.98102 0.4205 0.43032 0.0
C58 C 0.10012 0.43105 0.37377 0.0
C59 C 0.0882 0.47187 0.42004 0.0
N60 N 1.00222 0.57451 0.59055 0.0
C61 C 0.99036 0.66667 0.62866 0.0
C62 C 0.99363 0.65637 0.69025 0.0
C63 C 0.99971 0.60374 0.70149 0.0
C64 C 1.0029 0.56303 0.65133 0.0
C65 C 0.99531 0.6256 0.57951 0.0
H66 H 1.00689 0.52266 0.66181 0.0
H67 H 0.99459 0.636 0.53246 0.0
H68 H 0.9342 0.41518 0.45196 0.0
H69 H 0.127 0.5075 0.43335 0.0
C70 C 0.15894 0.59827 0.52361 0.0
C71 C 0.01695 0.61187 0.40091 0.0
C72 C 0.01874 0.4094 0.60993 0.0
C73 C 0.8653 0.46443 0.54612 0.0
H74 H 0.13848 0.70053 0.37041 0.0
H75 H 0.21515 0.69666 0.44082 0.0
H76 H 0.21588 0.54996 0.59637 0.0
H77 H 0.13992 0.44425 0.63895 0.0
H78 H 0.89337 0.33147 0.65616 0.0
H79 H 0.80921 0.36495 0.62674 0.0
H80 H 0.80874 0.50574 0.46669 0.0
H81 H 0.89277 0.58142 0.38281 0.0
H82 H 0.95167 0.34189 0.37233 0.0
H83 H 0.14754 0.43716 0.3526 0.0
H84 H 0.98561 0.70697 0.61821 0.0
H85 H 1.00171 0.59401 0.74877 0.0
C86 C 0.38894 0.96249 0.61772 0.0
C87 C 0.3448 0.91027 0.6434 0.0
C88 C 0.36134 0.86548 0.61226 0.0
C89 C 0.41427 0.89273 0.56935 0.0
N90 N 0.43338 0.95236 0.57196 0.0
Co91 Co 0.50489 1.00878 0.51358 0.0
N92 N 0.52732 0.94271 0.46538 0.0
C93 C 0.49859 0.88436 0.47687 0.0
C94 C 0.52645 0.84971 0.4386 0.0
C95 C 0.57682 0.88827 0.40128 0.0
C96 C 0.5768 0.94445 0.41909 0.0
N97 N 0.57486 0.06502 0.45371 0.0
C98 C 0.61871 0.05504 0.40697 0.0
C99 C 0.65996 0.10708 0.37819 0.0
C100 C 0.64209 0.15151 0.40824 0.0
C101 C 0.59116 0.12432 0.45351 0.0
N102 N 0.48397 0.07497 0.56328 0.0
C103 C 0.51518 0.13343 0.55439 0.0
C104 C 0.4896 0.16839 0.59526 0.0
C105 C 0.43856 0.12998 0.632 0.0
C106 C 0.43579 0.07359 0.61109 0.0
N107 N 0.56155 0.01415 0.57115 0.0
C108 C 0.6397 0.02136 0.65495 0.0
C109 C 0.64821 0.07052 0.62127 0.0
C110 C 0.60853 0.06611 0.58024 0.0
C111 C 0.59263 0.9683 0.645 0.0
C112 C 0.55479 0.96555 0.60284 0.0
N113 N 0.44764 1.00341 0.45665 0.0
C114 C 0.39382 0.05014 0.41027 0.0
C115 C 0.35294 0.99533 0.39353 0.0
C116 C 0.36237 0.94475 0.40574 0.0
C117 C 0.40975 0.94977 0.43693 0.0
C118 C 0.44082 0.05317 0.44091 0.0
H119 H 0.41381 0.90952 0.4458 0.0
H120 H 0.47029 0.09626 0.45252 0.0
H121 H 0.61651 0.10548 0.55695 0.0
H122 H 0.5202 0.92364 0.59699 0.0
C123 C 0.44637 0.86366 0.525 0.0
C124 C 0.38486 0.0203 0.63602 0.0
C125 C 0.62582 0.99803 0.39177 0.0
C126 C 0.56325 0.15372 0.50209 0.0
H127 H 0.30407 0.90501 0.67985 0.0
H128 H 0.33687 0.81857 0.61903 0.0
H129 H 0.5125 0.80216 0.43873 0.0
H130 H 0.61042 0.87651 0.3657 0.0
H131 H 0.70025 0.11274 0.34105 0.0
H132 H 0.66543 0.19838 0.40029 0.0
H133 H 0.50468 0.21607 0.59633 0.0
H134 H 0.40598 0.14201 0.66873 0.0
H135 H 0.68407 0.11259 0.62802 0.0
H136 H 0.58493 0.92895 0.66984 0.0
H137 H 0.38963 0.09071 0.39978 0.0
H138 H 0.33229 0.9013 0.39293 0.0
H139 H 0.13575 0.18562 0.19442 0.0
H140 H 0.98354 0.16742 0.10595 0.0
H141 H 0.96518 0.24806 0.17349 0.0
H142 H 0.99012 0.32196 0.26075 0.0
H143 H 0.14055 0.33682 0.35048 0.0
H144 H 0.16174 0.25994 0.27926 0.0
C145 C 0.09891 0.19955 0.18922 0.0
C146 C 0.06128 0.17019 0.14473 0.0
C147 C 0.08799 0.2455 0.22884 0.0
C148 C 0.01356 0.18907 0.13939 0.0
C149 C 1.00278 0.23514 0.17831 0.0
C150 C 0.0274 0.30826 0.26489 0.0
C151 C 0.06383 0.33579 0.311 0.0
C152 C 0.03923 0.26327 0.22383 0.0
C153 C 0.11233 0.31753 0.31495 0.0
C154 C 0.12434 0.27313 0.27439 0.0
H155 H 0.88114 0.97214 0.26579 0.0
H156 H 0.83211 1.00705 0.09633 0.0
H157 H 0.73752 0.01557 0.15972 0.0
H158 H 0.667 1.01175 0.2636 0.0
H159 H 0.71517 0.97611 0.43255 0.0
H160 H 0.81123 0.96904 0.36945 0.0
C161 C 0.84995 0.98181 0.24264 0.0
C162 C 0.86412 0.98878 0.17608 0.0
C163 C 0.79511 0.98638 0.27945 0.0
C164 C 0.82268 1.00116 0.14726 0.0
C165 C 0.76837 1.00611 0.18354 0.0
C166 C 0.69885 1.00268 0.28633 0.0
C167 C 0.68449 0.99473 0.3525 0.0
C168 C 0.7539 0.99858 0.24962 0.0
C169 C 0.7256 0.98253 0.38165 0.0
C170 C 0.78043 0.97852 0.34558 0.0
H171 H 0.97152 0.82372 0.29965 0.0
H172 H 0.07819 0.78198 0.12535 0.0
H173 H 0.08851 0.70326 0.17869 0.0
H174 H 0.06553 0.64449 0.27568 0.0
H175 H 0.96212 0.69029 0.44972 0.0
H176 H 0.95224 0.76867 0.39601 0.0
C177 C 0.99692 0.79738 0.27302 0.0
C178 C 0.02338 0.80866 0.20807 0.0
C179 C 1.00319 0.75254 0.30422 0.0
C180 C 0.05684 0.77427 0.17508 0.0
C181 C 0.06283 0.72916 0.20569 0.0
C182 C 0.04097 0.67181 0.3016 0.0
C183 C 0.01376 0.66095 0.36646 0.0
C184 C 0.03596 0.71759 0.27028 0.0
C185 C 0.9827 0.69718 0.39968 0.0
C186 C 0.97713 0.74211 0.36897 0.0
H187 H 0.14634 0.02688 0.27683 0.0
H188 H 0.19348 0.90299 0.13855 0.0
H189 H 0.26053 0.8912 0.20337 0.0
H190 H 0.31599 0.92633 0.29176 0.0
H191 H 0.2745 0.05561 0.42657 0.0
H192 H 0.1957 0.05583 0.37068 0.0
C193 C 0.17009 0.99618 0.26208 0.0
C194 C 0.1652 0.96563 0.20351 0.0
C195 C 0.21072 0.99181 0.29816 0.0
C196 C 0.19686 0.92678 0.18375 0.0
C197 C 0.2354 0.92038 0.22052 0.0
C198 C 0.28891 0.95373 0.30955 0.0
C199 C 0.30154 0.99138 0.36274 0.0
C200 C 0.2444 0.95429 0.27663 0.0
C201 C 0.26643 0.02706 0.38493 0.0
C202 C 0.22113 0.02696 0.35325 0.0
H203 H 0.03127 0.86475 0.89619 0.0
H204 H 0.84288 0.83124 0.8835 0.0
H205 H 0.84292 0.74965 0.80892 0.0
H206 H 0.89816 0.69155 0.74081 0.0
H207 H 0.08447 0.72082 0.75498 0.0
H208 H 0.08367 0.79995 0.83491 0.0
C209 C 0.9899 0.83903 0.87796 0.0
C210 C 0.93738 0.8549 0.89536 0.0
C211 C 0.99003 0.79161 0.83455 0.0
C212 C 0.88425 0.82073 0.87094 0.0
C213 C 0.88415 0.77394 0.82793 0.0
C214 C 0.93828 0.71506 0.76195 0.0
C215 C 0.99137 0.7009 0.74205 0.0
C216 C 0.93709 0.75975 0.80834 0.0
C217 C 0.04307 0.73113 0.76986 0.0
C218 C 0.04261 0.77637 0.8154 0.0
H219 H 0.13184 0.0495 0.76394 0.0
H220 H 0.18424 0.01952 0.93347 0.0
H221 H 0.27778 1.00916 0.8693 0.0
H222 H 0.34618 1.00973 0.76454 0.0
H223 H 0.29505 0.04164 0.59574 0.0
H224 H 0.19994 0.05019 0.65968 0.0
C225 C 0.16355 0.04049 0.78693 0.0
C226 C 0.1507 0.03539 0.85368 0.0
C227 C 0.21778 0.03505 0.7497 0.0
C228 C 0.19278 0.02398 0.88237 0.0
C229 C 0.24642 0.01796 0.84565 0.0
C230 C 0.31393 0.01843 0.7421 0.0
C231 C 0.32708 0.02489 0.67576 0.0
C232 C 0.25959 0.02362 0.77931 0.0
C233 C 0.28548 0.03645 0.64682 0.0
C234 C 0.23123 0.0413 0.68335 0.0
H235 H 0.05354 0.19577 0.72107 0.0
H236 H 0.9447 0.24324 0.89021 0.0
H237 H 0.94069 0.32302 0.83331 0.0
H238 H 0.96886 0.38035 0.73513 0.0
H239 H 0.07537 0.3311 0.56586 0.0
H240 H 0.08036 0.25181 0.62315 0.0
C241 C 0.02895 0.22353 0.74572 0.0
C242 C 0.99967 0.21332 0.81027 0.0
C243 C 0.02658 0.2693 0.71251 0.0
C244 C 0.96781 0.24985 0.84083 0.0
C245 C 0.96551 0.29564 0.80822 0.0
C246 C 0.99267 0.35183 0.71079 0.0
C247 C 0.02105 0.36103 0.64599 0.0
C248 C 0.99475 0.30587 0.74404 0.0
C249 C 0.05281 0.32456 0.61543 0.0
C250 C 0.05558 0.27923 0.64823 0.0
H251 H 0.75388 1.01192 0.88817 0.0
H252 H 0.92384 0.07957 0.75122 0.0
H253 H 0.86579 0.08294 0.67139 0.0
H254 H 0.76524 0.06241 0.6399 0.0
H255 H 0.59699 0.9896 0.77769 0.0
H256 H 0.65601 0.99246 0.8581 0.0
C257 C 0.7786 0.02794 0.84106 0.0
C258 C 0.84316 0.04566 0.82576 0.0
C259 C 0.74505 0.02841 0.7955 0.0
C260 C 0.87412 0.06559 0.76418 0.0
C261 C 0.84093 0.06748 0.71858 0.0
C262 C 0.74186 0.04763 0.68773 0.0
C263 C 0.67699 0.02561 0.70307 0.0
C264 C 0.77622 0.04839 0.73357 0.0
C265 C 0.64687 1.00615 0.76487 0.0
C266 C 0.68054 1.00793 0.8108 0.0
loop_
_geom_bond_atom_site_label_1
_geom_bond_atom_site_label_2
_geom_bond_distance
_geom_bond_site_symmetry_2
_ccdc_geom_bond_type
Co0 O3 2.042 1_655 S
Co0 O10 2.264 1_655 S
Co0 O29 2.286 . S
Co0 O30 2.069 1_655 S
Co0 O32 2.015 . S
Co1 O3 2.122 1_545 S
Co1 O9 2.073 . S
Co1 O10 2.327 1_545 S
Co1 O11 1.976 . S
Co2 O3 2.090 1_545 S
Co2 O5 2.084 1_454 S
Co2 O12 2.118 . S
Co2 O13 2.145 1_554 S
Co2 O17 2.105 1_444 S
Co2 O31 2.142 1_445 S
O3 Co0 2.042 1_455 S
O3 Co1 2.122 1_565 S
O3 Co2 2.090 1_565 S
O3 H4 0.980 . S
H4 O3 0.980 . S
O5 Co2 2.084 1_656 S
O5 Co6 2.042 1_655 S
O5 Co7 2.122 1_545 S
O5 H8 0.980 . S
Co6 O5 2.042 1_455 S
Co6 O14 2.286 . S
Co6 O15 2.069 1_455 S
Co6 O16 2.015 . S
Co6 O19 2.264 1_455 S
Co7 O5 2.122 1_565 S
Co7 O18 1.976 . S
Co7 O19 2.327 1_565 S
Co7 O20 2.073 . S
H8 O5 0.980 . S
O9 Co1 2.073 . S
O9 C24 1.245 1_545 S
O10 Co0 2.264 1_455 S
O10 Co1 2.327 1_565 S
O10 C24 1.257 . S
O11 Co1 1.976 . S
O11 C23 1.251 . S
O12 Co2 2.118 . S
O12 C23 1.274 . S
O13 Co2 2.145 1_556 S
O13 C26 1.246 . S
O14 Co6 2.286 . S
O14 C25 1.258 1_455 S
O15 Co6 2.069 1_655 S
O15 C25 1.290 . S
O16 Co6 2.015 . S
O16 C26 1.257 . S
O17 Co2 2.105 1_666 S
O17 C27 1.274 . S
O18 Co7 1.976 . S
O18 C27 1.251 . S
O19 Co6 2.264 1_655 S
O19 Co7 2.327 1_545 S
O19 C28 1.257 . S
O20 Co7 2.073 . S
O20 C28 1.245 1_565 S
C21 O29 1.246 1_455 S
C21 O30 1.294 . S
C22 O31 1.246 . S
C22 O32 1.257 . S
C23 O11 1.251 . S
C23 O12 1.274 . S
C24 O9 1.245 1_565 S
C24 O10 1.257 . S
C25 O14 1.258 1_655 S
C25 O15 1.290 . S
C26 O13 1.246 . S
C26 O16 1.257 . S
C27 O17 1.274 . S
C27 O18 1.251 . S
C28 O19 1.257 . S
C28 O20 1.245 1_545 S
O29 Co0 2.286 . S
O29 C21 1.246 1_655 S
O30 Co0 2.069 1_455 S
O30 C21 1.294 . S
O31 Co2 2.142 1_665 S
O31 C22 1.246 . S
O32 Co0 2.015 . S
O32 C22 1.257 . S
C33 C34 1.443 . S
C33 N37 1.376 . S
C33 C71 1.389 . S
C34 C33 1.443 . S
C34 C35 1.340 . S
C34 H74 0.951 . S
C35 C34 1.340 . S
C35 C36 1.439 . S
C35 H75 0.950 . S
C36 C35 1.439 . S
C36 N37 1.374 . S
C36 C70 1.395 . S
N37 C33 1.376 . S
N37 C36 1.374 . S
N37 Co38 2.010 . S
Co38 N37 2.010 . S
Co38 N39 2.000 . S
Co38 N44 2.006 1_455 S
Co38 N49 1.989 1_455 S
Co38 N54 2.284 . S
Co38 N60 2.281 1_455 S
N39 Co38 2.000 . S
N39 C40 1.376 . S
N39 C43 1.383 . S
C40 N39 1.376 . S
C40 C41 1.446 . S
C40 C70 1.391 . S
C41 C40 1.446 . S
C41 C42 1.339 . S
C41 H76 0.949 . S
C42 C41 1.339 . S
C42 C43 1.439 . S
C42 H77 0.950 . S
C43 N39 1.383 . S
C43 C42 1.439 . S
C43 C72 1.388 1_455 S
N44 Co38 2.006 1_655 S
N44 C45 1.376 . S
N44 C48 1.374 . S
C45 N44 1.376 . S
C45 C46 1.443 . S
C45 C72 1.396 . S
C46 C45 1.443 . S
C46 C47 1.340 . S
C46 H78 0.951 . S
C47 C46 1.340 . S
C47 C48 1.439 . S
C47 H79 0.950 . S
C48 N44 1.374 . S
C48 C47 1.439 . S
C48 C73 1.395 . S
N49 Co38 1.989 1_655 S
N49 C50 1.376 . S
N49 C53 1.383 . S
C50 N49 1.376 . S
C50 C51 1.446 . S
C50 C73 1.391 . S
C51 C50 1.446 . S
C51 C52 1.339 . S
C51 H80 0.949 . S
C52 C51 1.339 . S
C52 C53 1.439 . S
C52 H81 0.950 . S
C53 N49 1.383 . S
C53 C52 1.439 . S
C53 C71 1.392 1_655 S
N54 Co38 2.284 . S
N54 C57 1.332 1_455 S
N54 C59 1.332 . S
C55 C56 1.366 1_455 S
C55 C58 1.403 . S
C56 C55 1.366 1_655 S
C56 C57 1.382 . S
C56 H82 0.950 . S
C57 N54 1.332 1_655 S
C57 C56 1.382 . S
C57 H68 0.952 . S
C58 C55 1.403 . S
C58 C59 1.382 . S
C58 H83 0.950 . S
C59 N54 1.332 . S
C59 C58 1.382 . S
C59 H69 0.948 . S
N60 Co38 2.281 1_655 S
N60 C64 1.332 1_655 S
N60 C65 1.332 . S
C61 C62 1.391 . S
C61 C65 1.382 . S
C61 H84 0.950 . S
C62 C61 1.391 . S
C62 C63 1.382 1_655 S
C63 C62 1.382 1_455 S
C63 C64 1.382 . S
C63 H85 0.950 . S
C64 N60 1.332 1_455 S
C64 C63 1.382 . S
C64 H66 0.952 . S
C65 N60 1.332 . S
C65 C61 1.382 . S
C65 H67 0.948 . S
H66 C64 0.952 . S
H67 C65 0.948 . S
H68 C57 0.952 . S
H69 C59 0.948 . S
C70 C36 1.395 . S
C70 C40 1.391 . S
C71 C33 1.389 . S
C71 C53 1.392 1_455 S
C72 C43 1.388 1_655 S
C72 C45 1.396 . S
C73 C48 1.395 . S
C73 C50 1.391 . S
H74 C34 0.951 . S
H75 C35 0.950 . S
H76 C41 0.949 . S
H77 C42 0.950 . S
H78 C46 0.951 . S
H79 C47 0.950 . S
H80 C51 0.949 . S
H81 C52 0.950 . S
H82 C56 0.950 . S
H83 C58 0.950 . S
H84 C61 0.950 . S
H85 C63 0.950 . S
C86 C87 1.443 . S
C86 N90 1.376 . S
C86 C124 1.395 . S
C87 C86 1.443 . S
C87 C88 1.340 . S
C87 H127 0.951 . S
C88 C87 1.340 . S
C88 C89 1.439 . S
C88 H128 0.950 . S
C89 C88 1.439 . S
C89 N90 1.374 . S
C89 C123 1.395 . S
N90 C86 1.376 . S
N90 C89 1.374 . S
N90 Co91 2.005 1_565 S
Co91 N90 2.005 1_545 S
Co91 N92 1.990 1_545 S
Co91 N97 2.011 . S
Co91 N102 2.000 . S
Co91 N107 2.280 1_545 S
Co91 N113 2.285 . S
N92 Co91 1.990 1_565 S
N92 C93 1.376 . S
N92 C96 1.383 . S
C93 N92 1.376 . S
C93 C94 1.446 . S
C93 C123 1.391 . S
C94 C93 1.446 . S
C94 C95 1.339 . S
C94 H129 0.949 . S
C95 C94 1.339 . S
C95 C96 1.439 . S
C95 H130 0.950 . S
C96 N92 1.383 . S
C96 C95 1.439 . S
C96 C125 1.392 1_565 S
N97 Co91 2.011 . S
N97 C98 1.376 . S
N97 C101 1.374 . S
C98 N97 1.376 . S
C98 C99 1.443 . S
C98 C125 1.389 . S
C99 C98 1.443 . S
C99 C100 1.340 . S
C99 H131 0.951 . S
C100 C99 1.340 . S
C100 C101 1.439 . S
C100 H132 0.950 . S
C101 N97 1.374 . S
C101 C100 1.439 . S
C101 C126 1.395 . S
N102 Co91 2.000 . S
N102 C103 1.376 . S
N102 C106 1.383 . S
C103 N102 1.376 . S
C103 C104 1.446 . S
C103 C126 1.391 . S
C104 C103 1.446 . S
C104 C105 1.339 . S
C104 H133 0.949 . S
C105 C104 1.339 . S
C105 C106 1.439 . S
C105 H134 0.950 . S
C106 N102 1.383 . S
C106 C105 1.439 . S
C106 C124 1.388 1_545 S
N107 Co91 2.280 1_565 S
N107 C110 1.332 1_565 S
N107 C112 1.332 . S
C108 C109 1.382 1_565 S
C108 C111 1.390 . S
C109 C108 1.382 1_545 S
C109 C110 1.382 . S
C109 H135 0.950 . S
C110 N107 1.332 1_545 S
C110 C109 1.382 . S
C110 H121 0.952 . S
C111 C108 1.390 . S
C111 C112 1.382 . S
C111 H136 0.950 . S
C112 N107 1.332 . S
C112 C111 1.382 . S
C112 H122 0.948 . S
N113 Co91 2.285 . S
N113 C117 1.332 1_545 S
N113 C118 1.332 . S
C114 C115 1.401 . S
C114 C118 1.382 . S
C114 H137 0.950 . S
C115 C114 1.401 . S
C115 C116 1.365 1_545 S
C116 C115 1.365 1_565 S
C116 C117 1.382 . S
C116 H138 0.950 . S
C117 N113 1.332 1_565 S
C117 C116 1.382 . S
C117 H119 0.952 . S
C118 N113 1.332 . S
C118 C114 1.382 . S
C118 H120 0.948 . S
H119 C117 0.952 . S
H120 C118 0.948 . S
H121 C110 0.952 . S
H122 C112 0.948 . S
C123 C89 1.395 . S
C123 C93 1.391 . S
C124 C86 1.395 . S
C124 C106 1.388 1_565 S
C125 C96 1.392 1_545 S
C125 C98 1.389 . S
C126 C101 1.395 . S
C126 C103 1.391 . S
H127 C87 0.951 . S
H128 C88 0.950 . S
H129 C94 0.949 . S
H130 C95 0.950 . S
H131 C99 0.951 . S
H132 C100 0.950 . S
H133 C104 0.949 . S
H134 C105 0.950 . S
H135 C109 0.950 . S
H136 C111 0.950 . S
H137 C114 0.950 . S
H138 C116 0.950 . S
H139 C145 0.930 . S
H140 C148 0.930 . S
H141 C149 0.930 . S
H142 C150 0.930 . S
H143 C153 0.930 . S
H144 C154 0.930 . S
C145 H139 0.930 . S
C145 C146 1.355 1_455 S
C145 C147 1.415 . S
C146 C145 1.355 1_655 S
C146 C148 1.419 . S
C147 C145 1.415 . S
C147 C152 1.425 1_455 S
C147 C154 1.409 . S
C148 H140 0.930 . S
C148 C146 1.419 . S
C148 C149 1.362 . S
C149 H141 0.930 . S
C149 C148 1.362 . S
C149 C152 1.409 . S
C150 H142 0.930 . S
C150 C151 1.355 1_655 S
C150 C152 1.415 . S
C151 C150 1.355 1_455 S
C151 C153 1.419 . S
C152 C147 1.425 1_655 S
C152 C149 1.409 . S
C152 C150 1.415 . S
C153 H143 0.930 . S
C153 C151 1.419 . S
C153 C154 1.362 . S
C154 H144 0.930 . S
C154 C147 1.409 . S
C154 C153 1.362 . S
H155 C161 0.930 . S
H156 C164 0.930 . S
H157 C165 0.930 . S
H158 C166 0.930 . S
H159 C169 0.930 . S
H160 C170 0.930 . S
C161 H155 0.930 . S
C161 C162 1.355 . S
C161 C163 1.415 . S
C162 C161 1.355 . S
C162 C164 1.419 1_565 S
C163 C161 1.415 . S
C163 C168 1.425 1_565 S
C163 C170 1.409 . S
C164 H156 0.930 . S
C164 C162 1.419 1_545 S
C164 C165 1.362 . S
C165 H157 0.930 . S
C165 C164 1.362 . S
C165 C168 1.409 . S
C166 H158 0.930 . S
C166 C167 1.355 1_545 S
C166 C168 1.415 . S
C167 C166 1.355 1_565 S
C167 C169 1.419 . S
C168 C163 1.425 1_545 S
C168 C165 1.409 . S
C168 C166 1.415 . S
C169 H159 0.930 . S
C169 C167 1.419 . S
C169 C170 1.362 . S
C170 H160 0.930 . S
C170 C163 1.409 . S
C170 C169 1.362 . S
H171 C177 0.930 . S
H172 C180 0.930 . S
H173 C181 0.930 . S
H174 C182 0.930 . S
H175 C185 0.930 . S
H176 C186 0.930 . S
C177 H171 0.930 . S
C177 C178 1.355 1_655 S
C177 C179 1.415 . S
C178 C177 1.355 1_455 S
C178 C180 1.419 . S
C179 C177 1.415 . S
C179 C184 1.425 1_655 S
C179 C186 1.409 . S
C180 H172 0.930 . S
C180 C178 1.419 . S
C180 C181 1.362 . S
C181 H173 0.930 . S
C181 C180 1.362 . S
C181 C184 1.409 . S
C182 H174 0.930 . S
C182 C183 1.355 1_455 S
C182 C184 1.415 . S
C183 C182 1.355 1_655 S
C183 C185 1.419 . S
C184 C179 1.425 1_455 S
C184 C181 1.409 . S
C184 C182 1.415 . S
C185 H175 0.930 . S
C185 C183 1.419 . S
C185 C186 1.362 . S
C186 H176 0.930 . S
C186 C179 1.409 . S
C186 C185 1.362 . S
H187 C193 0.930 . S
H188 C196 0.930 . S
H189 C197 0.930 1_545 S
H190 C198 0.930 1_545 S
H191 C201 0.930 . S
H192 C202 0.930 . S
C193 H187 0.930 . S
C193 C194 1.355 . S
C193 C195 1.415 . S
C194 C193 1.355 . S
C194 C196 1.419 . S
C195 C193 1.415 . S
C195 C200 1.425 . S
C195 C202 1.409 . S
C196 H188 0.930 . S
C196 C194 1.419 . S
C196 C197 1.362 . S
C197 H189 0.930 1_565 S
C197 C196 1.362 . S
C197 C200 1.409 . S
C198 H190 0.930 1_565 S
C198 C199 1.355 . S
C198 C200 1.415 . S
C199 C198 1.355 . S
C199 C201 1.419 . S
C200 C195 1.425 . S
C200 C197 1.409 . S
C200 C198 1.415 . S
C201 H191 0.930 . S
C201 C199 1.419 . S
C201 C202 1.362 . S
C202 H192 0.930 . S
C202 C195 1.409 . S
C202 C201 1.362 . S
H203 C209 0.930 . S
H204 C212 0.930 . S
H205 C213 0.930 . S
H206 C214 0.930 . S
H207 C217 0.930 . S
H208 C218 0.930 . S
C209 H203 0.930 . S
C209 C210 1.355 1_455 S
C209 C211 1.415 . S
C210 C209 1.355 1_655 S
C210 C212 1.419 . S
C211 C209 1.415 . S
C211 C216 1.425 1_455 S
C211 C218 1.409 . S
C212 H204 0.930 . S
C212 C210 1.419 . S
C212 C213 1.362 . S
C213 H205 0.930 . S
C213 C212 1.362 . S
C213 C216 1.409 . S
C214 H206 0.930 . S
C214 C215 1.355 1_655 S
C214 C216 1.415 . S
C215 C214 1.355 1_455 S
C215 C217 1.419 . S
C216 C211 1.425 1_655 S
C216 C213 1.409 . S
C216 C214 1.415 . S
C217 H207 0.930 . S
C217 C215 1.419 . S
C217 C218 1.362 . S
C218 H208 0.930 . S
C218 C211 1.409 . S
C218 C217 1.362 . S
H219 C225 0.930 . S
H220 C228 0.930 . S
H221 C229 0.930 . S
H222 C230 0.930 . S
H223 C233 0.930 . S
H224 C234 0.930 . S
C225 H219 0.930 . S
C225 C226 1.355 1_565 S
C225 C227 1.415 . S
C226 C225 1.355 1_545 S
C226 C228 1.419 . S
C227 C225 1.415 . S
C227 C232 1.425 1_565 S
C227 C234 1.409 . S
C228 H220 0.930 . S
C228 C226 1.419 . S
C228 C229 1.362 . S
C229 H221 0.930 . S
C229 C228 1.362 . S
C229 C232 1.409 . S
C230 H222 0.930 . S
C230 C231 1.353 1_545 S
C230 C232 1.415 . S
C231 C230 1.353 1_565 S
C231 C233 1.420 . S
C232 C227 1.425 1_545 S
C232 C229 1.409 . S
C232 C230 1.415 . S
C233 H223 0.930 . S
C233 C231 1.420 . S
C233 C234 1.362 . S
C234 H224 0.930 . S
C234 C227 1.409 . S
C234 C233 1.362 . S
H235 C241 0.930 . S
H236 C244 0.930 . S
H237 C245 0.930 . S
H238 C246 0.930 . S
H239 C249 0.930 . S
H240 C250 0.930 . S
C241 H235 0.930 . S
C241 C242 1.355 . S
C241 C243 1.415 . S
C242 C241 1.355 . S
C242 C244 1.419 1_655 S
C243 C241 1.415 . S
C243 C248 1.425 1_655 S
C243 C250 1.409 . S
C244 H236 0.930 . S
C244 C242 1.419 1_455 S
C244 C245 1.362 . S
C245 H237 0.930 . S
C245 C244 1.362 . S
C245 C248 1.409 . S
C246 H238 0.930 . S
C246 C247 1.355 1_455 S
C246 C248 1.415 . S
C247 C246 1.355 1_655 S
C247 C249 1.419 . S
C248 C243 1.425 1_455 S
C248 C245 1.409 . S
C248 C246 1.415 . S
C249 H239 0.930 . S
C249 C247 1.419 . S
C249 C250 1.362 . S
C250 H240 0.930 . S
C250 C243 1.409 . S
C250 C249 1.362 . S
H251 C257 0.930 1_565 S
H252 C260 0.930 . S
H253 C261 0.930 . S
H254 C262 0.930 . S
H255 C265 0.930 . S
H256 C266 0.930 . S
C257 H251 0.930 1_545 S
C257 C258 1.355 . S
C257 C259 1.415 . S
C258 C257 1.355 . S
C258 C260 1.419 . S
C259 C257 1.415 . S
C259 C264 1.425 . S
C259 C266 1.409 1_545 S
C260 H252 0.930 . S
C260 C258 1.419 . S
C260 C261 1.362 . S
C261 H253 0.930 . S
C261 C260 1.362 . S
C261 C264 1.409 . S
C262 H254 0.930 . S
C262 C263 1.355 . S
C262 C264 1.415 . S
C263 C262 1.355 . S
C263 C265 1.419 1_545 S
C264 C259 1.425 . S
C264 C261 1.409 . S
C264 C262 1.415 . S
C265 H255 0.930 . S
C265 C263 1.419 1_565 S
C265 C266 1.362 . S
C266 H256 0.930 . S
C266 C259 1.409 1_565 S
C266 C265 1.362 . S
C146 C23 1.341 1_655 S
C151 C55 1.403 . S
C162 C22 1.579 . S
C167 C125 1.595 1_565 S
C178 C21 1.873 . S
C183 C71 1.864 1_655 S
C194 C24 1.419 . S
C199 C115 1.531 1_565 S
C210 C27 1.244 . S
C215 C62 1.383 1_455 S
C226 C26 1.569 . S
C231 C124 1.598 . S
C247 C72 1.861 . S
C242 C25 1.851 . S
C258 C28 1.450 . S
C263 C108 1.507 1_545 S
