# Generated by pormake.
# Topology tsx, (6,3)-cn, num edge types: 1
# Building blocks:
#     Node 0, Type 0, BuildingBlock: VOLQOD_clean_sbu_1, # of connection points: 6
#     Node 1, Type 0, BuildingBlock: VOLQOD_clean_sbu_1, # of connection points: 6
#     Node 2, Type 1, BuildingBlock: OLANEW_clean_sbu_2, # of connection points: 3
#     Node 3, Type 1, BuildingBlock: OLANEW_clean_sbu_2, # of connection points: 3
#     Node 4, Type 1, BuildingBlock: OLANEW_clean_sbu_2, # of connection points: 3
#     Node 5, Type 1, BuildingBlock: OLANEW_clean_sbu_2, # of connection points: 3
#     Edge 6, Type (0, 1), BuildingBlock: EZIPEK_clean_linker_0, # of connection points: 2
#     Edge 7, Type (0, 1), BuildingBlock: EZIPEK_clean_linker_0, # of connection points: 2
#     Edge 8, Type (0, 1), BuildingBlock: EZIPEK_clean_linker_0, # of connection points: 2
#     Edge 9, Type (0, 1), BuildingBlock: EZIPEK_clean_linker_0, # of connection points: 2
#     Edge 10, Type (0, 1), BuildingBlock: EZIPEK_clean_linker_0, # of connection points: 2
#     Edge 11, Type (0, 1), BuildingBlock: EZIPEK_clean_linker_0, # of connection points: 2
#     Edge 12, Type (0, 1), BuildingBlock: EZIPEK_clean_linker_0, # of connection points: 2
#     Edge 13, Type (0, 1), BuildingBlock: EZIPEK_clean_linker_0, # of connection points: 2
#     Edge 14, Type (0, 1), BuildingBlock: EZIPEK_clean_linker_0, # of connection points: 2
#     Edge 15, Type (0, 1), BuildingBlock: EZIPEK_clean_linker_0, # of connection points: 2
#     Edge 16, Type (0, 1), BuildingBlock: EZIPEK_clean_linker_0, # of connection points: 2
#     Edge 17, Type (0, 1), BuildingBlock: EZIPEK_clean_linker_0, # of connection points: 2
# Relax obj value: 0.029
# Max RMSD: 0.071
# Mean RMSD: 0.068
data_MOF--net-tsx--node1-VOLQOD_clean_sbu_1--node2-OLANEW_clean_sbu_2--edge1-EZIPEK_clean_linker_0
_symmetry_space_group_name_H-M    P1
_symmetry_Int_Tables_number       1
_symmetry_cell_setting            triclinic
loop_
_symmetry_equiv_pos_as_xyz
'x, y, z'
_cell_length_a     17.260477
_cell_length_b     18.049569
_cell_length_c     28.77651
_cell_angle_alpha  96.381862
_cell_angle_beta   89.785402
_cell_angle_gamma 90.239877
loop_
_atom_site_label
_atom_site_type_symbol
_atom_site_fract_x
_atom_site_fract_y
_atom_site_fract_z
_atom_type_partial_charge
O0 O 0.06538 0.95818 0.10825 0.0
Zn1 Zn 0.09932 0.98477 0.04504 0.0
O2 O 0.01158 0.00028 0.00556 0.0
Zn3 Zn 0.00214 0.91731 0.95606 0.0
Zn4 Zn 0.92065 0.00712 0.04545 0.0
Zn5 Zn 0.02434 0.09274 0.97761 0.0
O6 O 0.99618 0.95503 0.89251 0.0
O7 O 0.03566 0.07287 0.90763 0.0
O8 O 0.16947 0.90606 0.01374 0.0
O9 O 0.09917 0.8559 0.95347 0.0
O10 O 0.90905 0.85186 0.96701 0.0
O11 O 0.85616 0.91658 0.02953 0.0
O12 O 0.85333 0.09366 0.03352 0.0
O13 O 0.16218 0.07822 0.05579 0.0
O14 O 0.92705 0.15312 0.98595 0.0
O15 O 0.11481 0.15268 0.00604 0.0
C16 C 0.00441 0.97628 0.13186 0.0
C17 C 0.01616 0.01719 0.87884 0.0
C18 C 0.85688 0.86064 0.9986 0.0
C19 C 0.16094 0.85919 0.97769 0.0
C20 C 0.864 0.14621 0.00813 0.0
C21 C 0.16296 0.13917 0.03747 0.0
O22 O 0.94645 0.00558 0.11366 0.0
O23 O 0.57128 0.47303 0.61558 0.0
Zn24 Zn 0.6075 0.49584 0.55196 0.0
O25 O 0.52123 0.51262 0.51175 0.0
Zn26 Zn 0.51081 0.42911 0.46279 0.0
Zn27 Zn 0.42997 0.52149 0.55118 0.0
Zn28 Zn 0.53603 0.60426 0.4832 0.0
O29 O 0.50349 0.46546 0.39896 0.0
O30 O 0.54489 0.58277 0.41311 0.0
O31 O 0.67527 0.41371 0.52234 0.0
O32 O 0.60682 0.36666 0.46044 0.0
O33 O 0.41885 0.36382 0.47527 0.0
O34 O 0.36694 0.42906 0.53791 0.0
O35 O 0.36278 0.60622 0.53599 0.0
O36 O 0.67394 0.58713 0.56101 0.0
O37 O 0.44054 0.6677 0.49166 0.0
O38 O 0.62949 0.6613 0.51018 0.0
C39 C 0.51116 0.49508 0.63888 0.0
C40 C 0.52376 0.52713 0.38473 0.0
C41 C 0.36773 0.37239 0.50747 0.0
C42 C 0.66701 0.36768 0.48588 0.0
C43 C 0.37562 0.65975 0.51168 0.0
C44 C 0.67729 0.64706 0.54164 0.0
O45 O 0.45512 0.52624 0.61995 0.0
O46 O 0.97232 0.84286 0.3332 0.0
Cd47 Cd 0.95618 0.83307 0.4169 0.0
O48 O 0.99455 0.9597 0.35756 0.0
Cd49 Cd 0.00604 0.07681 0.34828 0.0
O50 O 0.93589 0.17144 0.37464 0.0
C51 C 0.91225 0.16943 0.41633 0.0
O52 O 0.93654 0.11612 0.44022 0.0
C53 C 0.98683 0.90859 0.32389 0.0
C54 C 0.09538 0.79407 0.45488 0.0
O55 O 0.047 0.74458 0.43757 0.0
O56 O 0.07802 0.86301 0.45487 0.0
O57 O 0.98808 0.14678 0.68019 0.0
Cd58 Cd 0.96975 0.16366 0.59779 0.0
O59 O 0.0307 0.03722 0.65165 0.0
Cd60 Cd 0.05385 0.92031 0.65648 0.0
O61 O 0.97835 0.82816 0.63165 0.0
C62 C 0.92413 0.84832 0.60613 0.0
O63 O 0.9211 0.91797 0.59701 0.0
C64 C 0.01318 0.08283 0.68684 0.0
C65 C 0.10543 0.20905 0.55779 0.0
O66 O 0.05533 0.25664 0.57505 0.0
O67 O 0.09154 0.13948 0.55884 0.0
O68 O 0.46794 0.36059 0.83798 0.0
Cd69 Cd 0.45105 0.34468 0.92074 0.0
O70 O 0.50963 0.47109 0.86522 0.0
Cd71 Cd 0.53697 0.58729 0.85999 0.0
O72 O 0.46807 0.68272 0.88668 0.0
C73 C 0.40812 0.66308 0.90803 0.0
O74 O 0.39681 0.5921 0.91221 0.0
C75 C 0.49249 0.42454 0.83041 0.0
C76 C 0.58682 0.29255 0.95601 0.0
O77 O 0.53457 0.24772 0.93795 0.0
O78 O 0.57488 0.36285 0.95808 0.0
O79 O 0.49025 0.65968 0.18803 0.0
Cd80 Cd 0.46062 0.68015 0.10737 0.0
O81 O 0.51293 0.54589 0.15689 0.0
Cd82 Cd 0.52391 0.42673 0.15926 0.0
O83 O 0.45169 0.33281 0.13308 0.0
C84 C 0.39588 0.35169 0.10831 0.0
O85 O 0.38868 0.42183 0.10085 0.0
C86 C 0.50734 0.59274 0.193 0.0
C87 C 0.5919 0.71481 0.05844 0.0
O88 O 0.54948 0.76609 0.07961 0.0
O89 O 0.57202 0.64656 0.05964 0.0
C90 C 0.20021 0.25906 0.08395 0.0
C91 C 0.22207 0.19536 0.05349 0.0
C92 C 0.35776 0.23623 0.05677 0.0
C93 C 0.33673 0.29674 0.09011 0.0
N94 N 0.24129 0.35932 0.14175 0.0
N95 N 0.32112 0.11802 0.01388 0.0
C96 C 0.25874 0.30674 0.10525 0.0
C97 C 0.30082 0.18228 0.04087 0.0
N98 N 0.12352 0.27387 0.0926 0.0
N99 N 0.43129 0.23219 0.03881 0.0
H100 H 0.28062 0.07947 0.99898 0.0
H101 H 0.37814 0.10062 0.0083 0.0
H102 H 0.47445 0.27082 0.0495 0.0
H103 H 0.44829 0.19406 0.01089 0.0
H104 H 0.10353 0.32383 0.11 0.0
H105 H 0.07898 0.2384 0.07951 0.0
H106 H 0.18714 0.36408 0.15782 0.0
H107 H 0.28281 0.39424 0.15905 0.0
C108 C 0.26035 0.76223 0.99014 0.0
C109 C 0.22711 0.81178 0.96094 0.0
C110 C 0.31252 0.76373 0.89656 0.0
C111 C 0.3497 0.71815 0.92678 0.0
N112 N 0.37103 0.68639 0.00499 0.0
N113 N 0.23502 0.87354 0.89072 0.0
C114 C 0.32721 0.72109 0.97443 0.0
C115 C 0.25721 0.81672 0.91541 0.0
N116 N 0.22627 0.752 0.03192 0.0
N117 N 0.32672 0.754 0.8495 0.0
H118 H 0.1962 0.9149 0.90378 0.0
H119 H 0.26116 0.88406 0.85941 0.0
H120 H 0.36536 0.71458 0.83378 0.0
H121 H 0.29462 0.78018 0.82548 0.0
H122 H 0.2432 0.71067 0.05227 0.0
H123 H 0.17648 0.78028 0.04435 0.0
H124 H 0.36163 0.69276 0.04097 0.0
H125 H 0.42155 0.65722 0.99499 0.0
C126 C 0.80403 0.75346 0.03536 0.0
C127 C 0.79563 0.80429 1.00169 0.0
C128 C 0.65745 0.77452 0.99468 0.0
C129 C 0.66342 0.73494 0.0344 0.0
N130 N 0.74126 0.6856 0.09325 0.0
N131 N 0.71727 0.86235 0.9472 0.0
C132 C 0.7367 0.7225 0.05433 0.0
C133 C 0.72333 0.81346 0.98001 0.0
N134 N 0.87659 0.73615 0.04955 0.0
N135 N 0.58877 0.7744 0.97115 0.0
H136 H 0.76545 0.88889 0.9344 0.0
H137 H 0.66481 0.87879 0.93396 0.0
H138 H 0.53987 0.74586 0.98121 0.0
H139 H 0.58186 0.79692 0.93967 0.0
H140 H 0.88775 0.69494 0.07119 0.0
H141 H 0.92655 0.75872 0.03605 0.0
H142 H 0.79152 0.68261 0.11282 0.0
H143 H 0.69341 0.6613 0.10787 0.0
C144 C 0.76715 0.17512 0.94897 0.0
C145 C 0.79611 0.18893 0.99525 0.0
C146 C 0.68821 0.2741 0.01663 0.0
C147 C 0.66211 0.26293 0.96958 0.0
N148 N 0.68855 0.21982 0.88872 0.0
N149 N 0.79257 0.25919 0.07137 0.0
C150 C 0.70526 0.21862 0.93507 0.0
C151 C 0.7591 0.24082 0.02866 0.0
N152 N 0.7959 0.11769 0.91886 0.0
N153 N 0.64399 0.31397 0.04999 0.0
H154 H 0.84409 0.23515 0.08109 0.0
H155 H 0.77283 0.302 0.0957 0.0
H156 H 0.59305 0.3408 0.04225 0.0
H157 H 0.65512 0.31692 0.08568 0.0
H158 H 0.77063 0.10001 0.88668 0.0
H159 H 0.84013 0.08269 0.92764 0.0
H160 H 0.72338 0.19464 0.86187 0.0
H161 H 0.6447 0.25264 0.87696 0.0
C162 C 0.81762 0.68186 0.54306 0.0
C163 C 0.73998 0.70047 0.55585 0.0
C164 C 0.78434 0.81195 0.60489 0.0
C165 C 0.86144 0.79612 0.58964 0.0
N166 N 0.95134 0.72263 0.53962 0.0
N167 N 0.64715 0.78698 0.59362 0.0
C168 C 0.8782 0.73264 0.55761 0.0
C169 C 0.72262 0.76695 0.58495 0.0
N170 N 0.83335 0.61533 0.5172 0.0
N171 N 0.77065 0.86755 0.64028 0.0
H172 H 0.60028 0.75372 0.58153 0.0
H173 H 0.63063 0.8389 0.60995 0.0
H174 H 0.81452 0.90061 0.65666 0.0
H175 H 0.717 0.87677 0.65648 0.0
H176 H 0.88896 0.59397 0.51172 0.0
H177 H 0.7902 0.5791 0.50307 0.0
H178 H 0.96563 0.68226 0.51229 0.0
H179 H 0.9973 0.7583 0.54972 0.0
C180 C 0.72155 0.23946 0.47054 0.0
C181 C 0.73135 0.31734 0.47056 0.0
C182 C 0.86329 0.29865 0.44005 0.0
C183 C 0.85062 0.22052 0.43561 0.0
N184 N 0.76239 0.11653 0.43793 0.0
N185 N 0.80562 0.42149 0.44828 0.0
C186 C 0.77842 0.19073 0.4487 0.0
C187 C 0.80076 0.34723 0.45357 0.0
N188 N 0.65863 0.21216 0.49221 0.0
N189 N 0.93549 0.32642 0.43251 0.0
H190 H 0.7606 0.4588 0.45714 0.0
H191 H 0.85148 0.44502 0.43136 0.0
H192 H 0.98253 0.29258 0.42195 0.0
H193 H 0.95033 0.38238 0.44041 0.0
H194 H 0.65262 0.15637 0.49775 0.0
H195 H 0.61561 0.24641 0.50845 0.0
H196 H 0.70779 0.09338 0.44216 0.0
H197 H 0.80123 0.07903 0.42043 0.0
C198 C 0.31388 0.27407 0.55207 0.0
C199 C 0.30945 0.31384 0.51241 0.0
C200 C 0.17999 0.26277 0.495 0.0
C201 C 0.17919 0.23488 0.5391 0.0
N202 N 0.24407 0.2125 0.61027 0.0
N203 N 0.24002 0.34699 0.4453 0.0
C204 C 0.2463 0.23887 0.56753 0.0
C205 C 0.24355 0.3073 0.48301 0.0
N206 N 0.383 0.27018 0.57471 0.0
N207 N 0.12019 0.24602 0.46462 0.0
H208 H 0.28652 0.3784 0.43485 0.0
H209 H 0.18997 0.35189 0.42581 0.0
H210 H 0.07283 0.21365 0.47278 0.0
H211 H 0.12089 0.25816 0.4301 0.0
H212 H 0.39218 0.23701 0.60153 0.0
H213 H 0.43347 0.29526 0.56371 0.0
H214 H 0.28775 0.22194 0.6351 0.0
H215 H 0.19626 0.18439 0.62215 0.0
C216 C 0.28337 0.68935 0.45003 0.0
C217 C 0.30871 0.70238 0.49717 0.0
C218 C 0.19658 0.78314 0.51684 0.0
C219 C 0.17282 0.77099 0.46939 0.0
N220 N 0.205 0.73188 0.38887 0.0
N221 N 0.29845 0.77055 0.57368 0.0
C222 C 0.21996 0.7302 0.43539 0.0
C223 C 0.26801 0.75217 0.53013 0.0
N224 N 0.31667 0.63464 0.41979 0.0
N225 N 0.14974 0.82186 0.54928 0.0
H226 H 0.35043 0.74832 0.58417 0.0
H227 H 0.27572 0.81169 0.59809 0.0
H228 H 0.09891 0.84782 0.54038 0.0
H229 H 0.15897 0.82535 0.58518 0.0
H230 H 0.29418 0.61713 0.38684 0.0
H231 H 0.36227 0.60151 0.42889 0.0
H232 H 0.24226 0.7096 0.36241 0.0
H233 H 0.15963 0.76254 0.37676 0.0
C234 C 0.93853 0.91415 0.19525 0.0
C235 C -0.00046 0.95979 0.18113 0.0
C236 C 0.05693 0.96426 0.25918 0.0
C237 C 0.99123 0.92612 0.27473 0.0
N238 N 0.86121 0.87944 0.25968 0.0
N239 N 0.10875 0.04043 0.20215 0.0
C240 C 0.92963 0.90507 0.24337 0.0
C241 C 0.05656 0.98833 0.2138 0.0
N242 N 0.89099 0.87677 0.16262 0.0
N243 N 0.1211 0.97477 0.28686 0.0
H244 H 0.10939 0.06074 0.1696 0.0
H245 H 0.14634 0.06881 0.22623 0.0
H246 H 0.12482 0.95609 0.31978 0.0
H247 H 0.17338 -0.00466 0.27528 0.0
H248 H 0.85093 0.83673 0.17067 0.0
H249 H 0.89682 0.87985 0.1268 0.0
H250 H 0.81193 0.87056 0.23897 0.0
H251 H 0.85093 0.87452 0.29493 0.0
C252 C 0.08707 0.04013 0.80541 0.0
C253 C 0.01613 0.02596 0.82815 0.0
C254 C 0.94368 0.04488 0.75708 0.0
C255 C 0.01457 0.05942 0.73455 0.0
N256 N 0.15411 0.05954 0.73326 0.0
N257 N 0.87815 0.00336 0.82441 0.0
C258 C 0.08647 0.05332 0.75751 0.0
C259 C 0.94479 0.02449 0.80349 0.0
N260 N 0.15492 0.04199 0.82998 0.0
N261 N 0.87515 0.05196 0.73421 0.0
H262 H 0.87545 0.99163 0.859 0.0
H263 H 0.82588 0.99293 0.807 0.0
H264 H 0.87217 0.06166 0.6992 0.0
H265 H 0.82095 0.05161 0.7501 0.0
H266 H 0.2074 0.06085 0.81775 0.0
H267 H 0.15852 0.02736 0.86395 0.0
H268 H 0.20852 0.04786 0.74597 0.0
H269 H 0.15588 0.0721 0.69876 0.0
C270 C 0.56548 0.50283 0.72029 0.0
C271 C 0.5048 0.48054 0.68855 0.0
C272 C 0.43123 0.43339 0.75212 0.0
C273 C 0.49633 0.44582 0.78202 0.0
N274 N 0.63147 0.47989 0.79127 0.0
N275 N 0.38696 0.4093 0.67235 0.0
C276 C 0.56518 0.47737 0.7653 0.0
C277 C 0.43943 0.44169 0.70389 0.0
N278 N 0.62213 0.55022 0.7081 0.0
N279 N 0.36062 0.41648 0.76992 0.0
H280 H 0.39197 0.41113 0.6364 0.0
H281 H 0.34298 0.37382 0.68144 0.0
H282 H 0.35101 0.41326 0.80544 0.0
H283 H 0.30991 0.41399 0.75025 0.0
H284 H 0.66337 0.57401 0.73163 0.0
H285 H 0.62314 0.57191 0.67598 0.0
H286 H 0.68508 0.49527 0.77852 0.0
H287 H 0.63477 0.45959 0.82373 0.0
C288 C 0.58874 0.5624 0.31215 0.0
C289 C 0.52181 0.5356 0.33393 0.0
C290 C 0.45125 0.53198 0.25972 0.0
C291 C 0.51433 0.56883 0.24034 0.0
N292 N 0.64156 0.6242 0.24833 0.0
N293 N 0.38556 0.50331 0.32998 0.0
C294 C 0.5827 0.58551 0.26664 0.0
C295 C 0.45221 0.52169 0.30801 0.0
N296 N 0.65878 0.56279 0.33424 0.0
N297 N 0.39018 0.50703 0.23205 0.0
H298 H 0.38258 0.49618 0.36535 0.0
H299 H 0.33134 0.50147 0.31414 0.0
H300 H 0.38574 0.51615 0.19701 0.0
H301 H 0.34702 0.47208 0.24273 0.0
H302 H 0.71099 0.57484 0.3184 0.0
H303 H 0.66596 0.54359 0.36683 0.0
H304 H 0.68883 0.64586 0.2678 0.0
H305 H 0.64083 0.63887 0.21426 0.0
loop_
_geom_bond_atom_site_label_1
_geom_bond_atom_site_label_2
_geom_bond_distance
_geom_bond_site_symmetry_2
_ccdc_geom_bond_type
O0 Zn1 1.953 . S
O0 C16 1.225 1_565 S
Zn1 O0 1.953 . S
Zn1 O2 1.949 1_565 S
Zn1 O8 1.919 . S
Zn1 O13 1.924 1_565 S
O2 Zn1 1.949 1_545 S
O2 Zn3 1.923 1_444 S
O2 Zn4 1.950 1_455 S
O2 Zn5 1.945 1_554 S
Zn3 O2 1.923 1_666 S
Zn3 O6 1.933 . S
Zn3 O9 1.941 1_655 S
Zn3 O10 1.965 . S
Zn4 O2 1.950 1_655 S
Zn4 O11 1.938 1_545 S
Zn4 O12 1.906 . S
Zn4 O22 1.953 . S
Zn5 O2 1.945 1_556 S
Zn5 O7 1.932 . S
Zn5 O14 1.977 1_455 S
Zn5 O15 1.910 . S
O6 Zn3 1.933 . S
O6 C17 1.229 1_655 S
O7 Zn5 1.932 . S
O7 C17 1.304 1_545 S
O8 Zn1 1.919 . S
O8 C19 1.253 1_554 S
O9 Zn3 1.941 1_455 S
O9 C19 1.283 . S
O10 Zn3 1.965 . S
O10 C18 1.303 1_556 S
O11 Zn4 1.938 1_565 S
O11 C18 1.247 . S
O12 Zn4 1.906 . S
O12 C20 1.304 1_554 S
O13 Zn1 1.924 1_545 S
O13 C21 1.311 . S
O14 Zn5 1.977 1_655 S
O14 C20 1.272 . S
O15 Zn5 1.910 . S
O15 C21 1.231 1_556 S
C16 O0 1.225 1_545 S
C16 O22 1.298 1_455 S
C17 O6 1.229 1_455 S
C17 O7 1.304 1_565 S
C18 O10 1.303 1_554 S
C18 O11 1.247 . S
C19 O8 1.253 1_556 S
C19 O9 1.283 . S
C20 O12 1.304 1_556 S
C20 O14 1.272 . S
C21 O13 1.311 . S
C21 O15 1.231 1_554 S
O22 Zn4 1.953 . S
O22 C16 1.298 1_655 S
O23 Zn24 1.953 . S
O23 C39 1.225 . S
Zn24 O23 1.953 . S
Zn24 O25 1.949 . S
Zn24 O31 1.919 . S
Zn24 O36 1.924 . S
O25 Zn24 1.949 . S
O25 Zn26 1.923 . S
O25 Zn27 1.950 . S
O25 Zn28 1.945 . S
Zn26 O25 1.923 . S
Zn26 O29 1.933 . S
Zn26 O32 1.941 . S
Zn26 O33 1.965 . S
Zn27 O25 1.950 . S
Zn27 O34 1.938 . S
Zn27 O35 1.906 . S
Zn27 O45 1.953 . S
Zn28 O25 1.945 . S
Zn28 O30 1.932 . S
Zn28 O37 1.977 . S
Zn28 O38 1.910 . S
O29 Zn26 1.933 . S
O29 C40 1.226 . S
O30 Zn28 1.932 . S
O30 C40 1.307 . S
O31 Zn24 1.919 . S
O31 C42 1.253 . S
O32 Zn26 1.941 . S
O32 C42 1.283 . S
O33 Zn26 1.965 . S
O33 C41 1.303 . S
O34 Zn27 1.938 . S
O34 C41 1.247 . S
O35 Zn27 1.906 . S
O35 C43 1.304 . S
O36 Zn24 1.924 . S
O36 C44 1.311 . S
O37 Zn28 1.977 . S
O37 C43 1.272 . S
O38 Zn28 1.910 . S
O38 C44 1.231 . S
C39 O23 1.225 . S
C39 O45 1.298 . S
C40 O29 1.226 . S
C40 O30 1.307 . S
C41 O33 1.303 . S
C41 O34 1.247 . S
C42 O31 1.253 . S
C42 O32 1.283 . S
C43 O35 1.304 . S
C43 O37 1.272 . S
C44 O36 1.311 . S
C44 O38 1.231 . S
O45 Zn27 1.953 . S
O45 C39 1.298 . S
O46 Cd47 2.300 . S
O46 C53 1.275 1_565 S
Cd47 O46 2.300 . S
Cd47 O55 2.381 . S
Cd47 O56 2.378 . S
O48 Cd49 2.385 . S
O48 C53 1.255 . S
Cd49 O48 2.385 . S
Cd49 O50 2.317 1_455 S
O50 Cd49 2.317 1_655 S
O50 C51 1.232 . S
C51 O50 1.232 . S
C51 O52 1.218 . S
O52 C51 1.218 . S
C53 O46 1.275 1_545 S
C53 O48 1.255 . S
C54 O55 1.258 . S
C54 O56 1.256 . S
O55 Cd47 2.381 . S
O55 C54 1.258 . S
O56 Cd47 2.378 . S
O56 C54 1.256 . S
O57 Cd58 2.300 . S
O57 C64 1.275 1_545 S
Cd58 O57 2.300 . S
Cd58 O66 2.381 . S
Cd58 O67 2.378 . S
O59 Cd60 2.385 . S
O59 C64 1.255 . S
Cd60 O59 2.385 . S
Cd60 O61 2.317 1_455 S
O61 Cd60 2.317 1_655 S
O61 C62 1.232 . S
C62 O61 1.232 . S
C62 O63 1.218 . S
O63 C62 1.218 . S
C64 O57 1.275 1_565 S
C64 O59 1.255 . S
C65 O66 1.258 . S
C65 O67 1.256 . S
O66 Cd58 2.381 . S
O66 C65 1.258 . S
O67 Cd58 2.378 . S
O67 C65 1.256 . S
O68 Cd69 2.300 . S
O68 C75 1.275 . S
Cd69 O68 2.300 . S
Cd69 O77 2.381 . S
Cd69 O78 2.378 . S
O70 Cd71 2.385 . S
O70 C75 1.255 . S
Cd71 O70 2.385 . S
Cd71 O72 2.317 . S
O72 Cd71 2.317 . S
O72 C73 1.232 . S
C73 O72 1.232 . S
C73 O74 1.218 . S
O74 C73 1.218 . S
C75 O68 1.275 . S
C75 O70 1.255 . S
C76 O77 1.258 . S
C76 O78 1.256 . S
O77 Cd69 2.381 . S
O77 C76 1.258 . S
O78 Cd69 2.378 . S
O78 C76 1.256 . S
O79 Cd80 2.300 . S
O79 C86 1.275 . S
Cd80 O79 2.300 . S
Cd80 O88 2.381 . S
Cd80 O89 2.378 . S
O81 Cd82 2.385 . S
O81 C86 1.255 . S
Cd82 O81 2.385 . S
Cd82 O83 2.317 . S
O83 Cd82 2.317 . S
O83 C84 1.232 . S
C84 O83 1.232 . S
C84 O85 1.218 . S
O85 C84 1.218 . S
C86 O79 1.275 . S
C86 O81 1.255 . S
C87 O88 1.258 . S
C87 O89 1.256 . S
O88 Cd80 2.381 . S
O88 C87 1.258 . S
O89 Cd80 2.378 . S
O89 C87 1.256 . S
C90 C91 1.363 . S
C90 C96 1.379 . S
C90 N98 1.356 . S
C91 C90 1.363 . S
C91 C97 1.363 . S
C92 C93 1.363 . S
C92 C97 1.379 . S
C92 N99 1.367 . S
C93 C92 1.363 . S
C93 C96 1.363 . S
N94 C96 1.356 . S
N94 H106 0.984 . S
N94 H107 0.985 . S
N95 C97 1.356 1_556 S
N95 H100 0.984 . S
N95 H101 0.985 . S
C96 C90 1.379 . S
C96 C93 1.363 . S
C96 N94 1.356 . S
C97 C91 1.363 . S
C97 C92 1.379 . S
C97 N95 1.356 1_554 S
N98 C90 1.356 . S
N98 H104 0.984 . S
N98 H105 0.984 . S
N99 C92 1.367 . S
N99 H102 0.993 . S
N99 H103 0.966 1_554 S
H100 N95 0.984 . S
H101 N95 0.985 . S
H102 N99 0.993 . S
H103 N99 0.966 1_556 S
H104 N98 0.984 . S
H105 N98 0.984 . S
H106 N94 0.984 . S
H107 N94 0.985 . S
C108 C109 1.363 . S
C108 C114 1.379 . S
C108 N116 1.356 1_556 S
C109 C108 1.363 . S
C109 C115 1.363 . S
C110 C111 1.363 . S
C110 C115 1.379 . S
C110 N117 1.356 . S
C111 C110 1.363 . S
C111 C114 1.363 . S
N112 C114 1.356 1_554 S
N112 H124 0.984 . S
N112 H125 0.985 1_554 S
N113 C115 1.356 . S
N113 H118 0.984 . S
N113 H119 0.985 . S
C114 C108 1.379 . S
C114 C111 1.363 . S
C114 N112 1.356 1_556 S
C115 C109 1.363 . S
C115 C110 1.379 . S
C115 N113 1.356 . S
N116 C108 1.356 1_554 S
N116 H122 0.984 . S
N116 H123 0.984 . S
N117 C110 1.356 . S
N117 H120 0.984 . S
N117 H121 0.985 . S
H118 N113 0.984 . S
H119 N113 0.985 . S
H120 N117 0.984 . S
H121 N117 0.985 . S
H122 N116 0.984 . S
H123 N116 0.984 . S
H124 N112 0.984 . S
H125 N112 0.985 1_556 S
C126 C127 1.363 . S
C126 C132 1.379 . S
C126 N134 1.356 . S
C127 C126 1.363 . S
C127 C133 1.363 1_554 S
C128 C129 1.376 . S
C128 C133 1.376 1_554 S
C128 N135 1.350 1_554 S
C129 C128 1.376 . S
C129 C132 1.363 . S
N130 C132 1.356 . S
N130 H142 0.984 . S
N130 H143 0.985 . S
N131 C133 1.356 . S
N131 H136 0.984 . S
N131 H137 0.985 . S
C132 C126 1.379 . S
C132 C129 1.363 . S
C132 N130 1.356 . S
C133 C127 1.363 1_556 S
C133 C128 1.376 1_556 S
C133 N131 1.356 . S
N134 C126 1.356 . S
N134 H140 0.984 . S
N134 H141 0.984 . S
N135 C128 1.350 1_556 S
N135 H138 0.984 . S
N135 H139 0.985 . S
H136 N131 0.984 . S
H137 N131 0.985 . S
H138 N135 0.984 . S
H139 N135 0.985 . S
H140 N134 0.984 . S
H141 N134 0.984 . S
H142 N130 0.984 . S
H143 N130 0.985 . S
C144 C145 1.363 . S
C144 C150 1.379 . S
C144 N152 1.356 . S
C145 C144 1.363 . S
C145 C151 1.363 1_556 S
C146 C147 1.363 1_554 S
C146 C151 1.379 . S
C146 N153 1.356 . S
C147 C146 1.363 1_556 S
C147 C150 1.363 . S
N148 C150 1.356 . S
N148 H160 0.984 . S
N148 H161 0.985 . S
N149 C151 1.356 . S
N149 H154 0.984 . S
N149 H155 0.985 . S
C150 C144 1.379 . S
C150 C147 1.363 . S
C150 N148 1.356 . S
C151 C145 1.363 1_554 S
C151 C146 1.379 . S
C151 N149 1.356 . S
N152 C144 1.356 . S
N152 H158 0.984 . S
N152 H159 0.984 . S
N153 C146 1.356 . S
N153 H156 0.984 . S
N153 H157 0.985 . S
H154 N149 0.984 . S
H155 N149 0.985 . S
H156 N153 0.984 . S
H157 N153 0.985 . S
H158 N152 0.984 . S
H159 N152 0.984 . S
H160 N148 0.984 . S
H161 N148 0.985 . S
C162 C163 1.363 . S
C162 C168 1.379 . S
C162 N170 1.356 . S
C163 C162 1.363 . S
C163 C169 1.363 . S
C164 C165 1.363 . S
C164 C169 1.379 . S
C164 N171 1.356 . S
C165 C164 1.363 . S
C165 C168 1.363 . S
N166 C168 1.356 . S
N166 H178 0.984 . S
N166 H179 0.985 . S
N167 C169 1.356 . S
N167 H172 0.984 . S
N167 H173 0.985 . S
C168 C162 1.379 . S
C168 C165 1.363 . S
C168 N166 1.356 . S
C169 C163 1.363 . S
C169 C164 1.379 . S
C169 N167 1.356 . S
N170 C162 1.356 . S
N170 H176 0.984 . S
N170 H177 0.984 . S
N171 C164 1.356 . S
N171 H174 0.984 . S
N171 H175 0.985 . S
H172 N167 0.984 . S
H173 N167 0.985 . S
H174 N171 0.984 . S
H175 N171 0.985 . S
H176 N170 0.984 . S
H177 N170 0.984 . S
H178 N166 0.984 . S
H179 N166 0.985 . S
C180 C181 1.363 . S
C180 C186 1.379 . S
C180 N188 1.356 . S
C181 C180 1.363 . S
C181 C187 1.363 . S
C182 C183 1.363 . S
C182 C187 1.379 . S
C182 N189 1.356 . S
C183 C182 1.363 . S
C183 C186 1.363 . S
N184 C186 1.356 . S
N184 H196 0.984 . S
N184 H197 0.985 . S
N185 C187 1.356 . S
N185 H190 0.984 . S
N185 H191 0.985 . S
C186 C180 1.379 . S
C186 C183 1.363 . S
C186 N184 1.356 . S
C187 C181 1.363 . S
C187 C182 1.379 . S
C187 N185 1.356 . S
N188 C180 1.356 . S
N188 H194 0.984 . S
N188 H195 0.984 . S
N189 C182 1.356 . S
N189 H192 0.984 . S
N189 H193 0.985 . S
H190 N185 0.984 . S
H191 N185 0.985 . S
H192 N189 0.984 . S
H193 N189 0.985 . S
H194 N188 0.984 . S
H195 N188 0.984 . S
H196 N184 0.984 . S
H197 N184 0.985 . S
C198 C199 1.363 . S
C198 C204 1.379 . S
C198 N206 1.356 . S
C199 C198 1.363 . S
C199 C205 1.363 . S
C200 C201 1.363 . S
C200 C205 1.379 . S
C200 N207 1.356 . S
C201 C200 1.363 . S
C201 C204 1.363 . S
N202 C204 1.356 . S
N202 H214 0.984 . S
N202 H215 0.985 . S
N203 C205 1.356 . S
N203 H208 0.984 . S
N203 H209 0.985 . S
C204 C198 1.379 . S
C204 C201 1.363 . S
C204 N202 1.356 . S
C205 C199 1.363 . S
C205 C200 1.379 . S
C205 N203 1.356 . S
N206 C198 1.356 . S
N206 H212 0.984 . S
N206 H213 0.984 . S
N207 C200 1.356 . S
N207 H210 0.984 . S
N207 H211 0.985 . S
H208 N203 0.984 . S
H209 N203 0.985 . S
H210 N207 0.984 . S
H211 N207 0.985 . S
H212 N206 0.984 . S
H213 N206 0.984 . S
H214 N202 0.984 . S
H215 N202 0.985 . S
C216 C217 1.363 . S
C216 C222 1.379 . S
C216 N224 1.356 . S
C217 C216 1.363 . S
C217 C223 1.363 . S
C218 C219 1.363 . S
C218 C223 1.379 . S
C218 N225 1.356 . S
C219 C218 1.363 . S
C219 C222 1.363 . S
N220 C222 1.356 . S
N220 H232 0.984 . S
N220 H233 0.985 . S
N221 C223 1.356 . S
N221 H226 0.984 . S
N221 H227 0.985 . S
C222 C216 1.379 . S
C222 C219 1.363 . S
C222 N220 1.356 . S
C223 C217 1.363 . S
C223 C218 1.379 . S
C223 N221 1.356 . S
N224 C216 1.356 . S
N224 H230 0.984 . S
N224 H231 0.984 . S
N225 C218 1.356 . S
N225 H228 0.984 . S
N225 H229 0.985 . S
H226 N221 0.984 . S
H227 N221 0.985 . S
H228 N225 0.984 . S
H229 N225 0.985 . S
H230 N224 0.984 . S
H231 N224 0.984 . S
H232 N220 0.984 . S
H233 N220 0.985 . S
C234 C235 1.363 1_665 S
C234 C240 1.379 . S
C234 N242 1.356 . S
C235 C234 1.363 1_445 S
C235 C241 1.363 . S
C236 C237 1.363 1_455 S
C236 C241 1.379 . S
C236 N243 1.356 . S
C237 C236 1.363 1_655 S
C237 C240 1.363 1_545 S
N238 C240 1.356 . S
N238 H250 0.984 . S
N238 H251 0.985 . S
N239 C241 1.356 . S
N239 H244 0.984 . S
N239 H245 0.985 . S
C240 C234 1.379 . S
C240 C237 1.363 1_565 S
C240 N238 1.356 . S
C241 C235 1.363 . S
C241 C236 1.379 . S
C241 N239 1.356 . S
N242 C234 1.356 . S
N242 H248 0.984 . S
N242 H249 0.984 . S
N243 C236 1.356 . S
N243 H246 0.984 . S
N243 H247 0.985 . S
H244 N239 0.984 . S
H245 N239 0.985 . S
H246 N243 0.984 . S
H247 N243 0.985 . S
H248 N242 0.984 . S
H249 N242 0.984 . S
H250 N238 0.984 . S
H251 N238 0.985 . S
C252 C253 1.363 . S
C252 C258 1.379 . S
C252 N260 1.356 . S
C253 C252 1.363 . S
C253 C259 1.363 1_465 S
C254 C255 1.363 1_645 S
C254 C259 1.379 . S
C254 N261 1.356 . S
C255 C254 1.363 1_465 S
C255 C258 1.363 . S
N256 C258 1.356 . S
N256 H268 0.984 . S
N256 H269 0.985 . S
N257 C259 1.356 . S
N257 H262 0.984 . S
N257 H263 0.985 . S
C258 C252 1.379 . S
C258 C255 1.363 . S
C258 N256 1.356 . S
C259 C253 1.363 1_645 S
C259 C254 1.379 . S
C259 N257 1.356 . S
N260 C252 1.356 . S
N260 H266 0.984 . S
N260 H267 0.984 . S
N261 C254 1.356 . S
N261 H264 0.984 . S
N261 H265 0.985 . S
H262 N257 0.984 . S
H263 N257 0.985 . S
H264 N261 0.984 . S
H265 N261 0.985 . S
H266 N260 0.984 . S
H267 N260 0.984 . S
H268 N256 0.984 . S
H269 N256 0.985 . S
C270 C271 1.363 . S
C270 C276 1.379 . S
C270 N278 1.356 . S
C271 C270 1.363 . S
C271 C277 1.363 . S
C272 C273 1.363 . S
C272 C277 1.379 . S
C272 N279 1.356 . S
C273 C272 1.363 . S
C273 C276 1.363 . S
N274 C276 1.356 . S
N274 H286 0.984 . S
N274 H287 0.985 . S
N275 C277 1.356 . S
N275 H280 0.984 . S
N275 H281 0.985 . S
C276 C270 1.379 . S
C276 C273 1.363 . S
C276 N274 1.356 . S
C277 C271 1.363 . S
C277 C272 1.379 . S
C277 N275 1.356 . S
N278 C270 1.356 . S
N278 H284 0.984 . S
N278 H285 0.984 . S
N279 C272 1.356 . S
N279 H282 0.984 . S
N279 H283 0.985 . S
H280 N275 0.984 . S
H281 N275 0.985 . S
H282 N279 0.984 . S
H283 N279 0.985 . S
H284 N278 0.984 . S
H285 N278 0.984 . S
H286 N274 0.984 . S
H287 N274 0.985 . S
C288 C289 1.363 . S
C288 C294 1.379 . S
C288 N296 1.356 . S
C289 C288 1.363 . S
C289 C295 1.363 . S
C290 C291 1.363 . S
C290 C295 1.379 . S
C290 N297 1.356 . S
C291 C290 1.363 . S
C291 C294 1.363 . S
N292 C294 1.356 . S
N292 H304 0.984 . S
N292 H305 0.985 . S
N293 C295 1.356 . S
N293 H298 0.984 . S
N293 H299 0.985 . S
C294 C288 1.379 . S
C294 C291 1.363 . S
C294 N292 1.356 . S
C295 C289 1.363 . S
C295 C290 1.379 . S
C295 N293 1.356 . S
N296 C288 1.356 . S
N296 H302 0.984 . S
N296 H303 0.984 . S
N297 C290 1.356 . S
N297 H300 0.984 . S
N297 H301 0.985 . S
H298 N293 0.984 . S
H299 N293 0.985 . S
H300 N297 0.984 . S
H301 N297 0.985 . S
H302 N296 0.984 . S
H303 N296 0.984 . S
H304 N292 0.984 . S
H305 N292 0.985 . S
C93 C84 1.322 . S
C91 C21 1.499 . S
C109 C19 1.498 . S
C111 C73 1.305 . S
C127 C18 1.437 . S
C129 C87 1.434 . S
C145 C20 1.444 . S
C147 C76 1.436 . S
C163 C44 1.499 . S
C165 C62 1.322 . S
C181 C42 1.498 . S
C183 C51 1.305 . S
C201 C65 1.434 . S
C199 C41 1.437 . S
C219 C54 1.436 . S
C217 C43 1.444 . S
C235 C16 1.520 . S
C237 C53 1.455 1_655 S
C253 C17 1.490 . S
C255 C64 1.434 . S
C273 C75 1.455 . S
C271 C39 1.519 . S
C289 C40 1.490 . S
C291 C86 1.434 . S
