# Generated by pormake.
# Topology fgl, (4,4)-cn, num edge types: 1
# Building blocks:
#     Node 0, Type 0, BuildingBlock: ESEHIV_clean_sbu_0, # of connection points: 4
#     Node 1, Type 0, BuildingBlock: ESEHIV_clean_sbu_0, # of connection points: 4
#     Node 2, Type 0, BuildingBlock: ESEHIV_clean_sbu_0, # of connection points: 4
#     Node 3, Type 0, BuildingBlock: ESEHIV_clean_sbu_0, # of connection points: 4
#     Node 4, Type 0, BuildingBlock: ESEHIV_clean_sbu_0, # of connection points: 4
#     Node 5, Type 0, BuildingBlock: ESEHIV_clean_sbu_0, # of connection points: 4
#     Node 6, Type 0, BuildingBlock: ESEHIV_clean_sbu_0, # of connection points: 4
#     Node 7, Type 0, BuildingBlock: ESEHIV_clean_sbu_0, # of connection points: 4
#     Node 8, Type 0, BuildingBlock: ESEHIV_clean_sbu_0, # of connection points: 4
#     Node 9, Type 0, BuildingBlock: ESEHIV_clean_sbu_0, # of connection points: 4
#     Node 10, Type 0, BuildingBlock: ESEHIV_clean_sbu_0, # of connection points: 4
#     Node 11, Type 0, BuildingBlock: ESEHIV_clean_sbu_0, # of connection points: 4
#     Node 12, Type 0, BuildingBlock: ESEHIV_clean_sbu_0, # of connection points: 4
#     Node 13, Type 0, BuildingBlock: ESEHIV_clean_sbu_0, # of connection points: 4
#     Node 14, Type 0, BuildingBlock: ESEHIV_clean_sbu_0, # of connection points: 4
#     Node 15, Type 0, BuildingBlock: ESEHIV_clean_sbu_0, # of connection points: 4
#     Node 16, Type 0, BuildingBlock: ESEHIV_clean_sbu_0, # of connection points: 4
#     Node 17, Type 0, BuildingBlock: ESEHIV_clean_sbu_0, # of connection points: 4
#     Node 18, Type 1, BuildingBlock: TATPOV_clean_sbu_0, # of connection points: 4
#     Node 19, Type 1, BuildingBlock: TATPOV_clean_sbu_0, # of connection points: 4
#     Node 20, Type 1, BuildingBlock: TATPOV_clean_sbu_0, # of connection points: 4
#     Node 21, Type 1, BuildingBlock: TATPOV_clean_sbu_0, # of connection points: 4
#     Node 22, Type 1, BuildingBlock: TATPOV_clean_sbu_0, # of connection points: 4
#     Node 23, Type 1, BuildingBlock: TATPOV_clean_sbu_0, # of connection points: 4
#     Node 24, Type 1, BuildingBlock: TATPOV_clean_sbu_0, # of connection points: 4
#     Node 25, Type 1, BuildingBlock: TATPOV_clean_sbu_0, # of connection points: 4
#     Node 26, Type 1, BuildingBlock: TATPOV_clean_sbu_0, # of connection points: 4
#     Node 27, Type 1, BuildingBlock: TATPOV_clean_sbu_0, # of connection points: 4
#     Node 28, Type 1, BuildingBlock: TATPOV_clean_sbu_0, # of connection points: 4
#     Node 29, Type 1, BuildingBlock: TATPOV_clean_sbu_0, # of connection points: 4
#     Node 30, Type 1, BuildingBlock: TATPOV_clean_sbu_0, # of connection points: 4
#     Node 31, Type 1, BuildingBlock: TATPOV_clean_sbu_0, # of connection points: 4
#     Node 32, Type 1, BuildingBlock: TATPOV_clean_sbu_0, # of connection points: 4
#     Node 33, Type 1, BuildingBlock: TATPOV_clean_sbu_0, # of connection points: 4
#     Node 34, Type 1, BuildingBlock: TATPOV_clean_sbu_0, # of connection points: 4
#     Node 35, Type 1, BuildingBlock: TATPOV_clean_sbu_0, # of connection points: 4
#     Edge 36, Type (0, 1), BuildingBlock: EZIPEK_clean_linker_0, # of connection points: 2
#     Edge 37, Type (0, 1), BuildingBlock: EZIPEK_clean_linker_0, # of connection points: 2
#     Edge 38, Type (0, 1), BuildingBlock: EZIPEK_clean_linker_0, # of connection points: 2
#     Edge 39, Type (0, 1), BuildingBlock: EZIPEK_clean_linker_0, # of connection points: 2
#     Edge 40, Type (0, 1), BuildingBlock: EZIPEK_clean_linker_0, # of connection points: 2
#     Edge 41, Type (0, 1), BuildingBlock: EZIPEK_clean_linker_0, # of connection points: 2
#     Edge 42, Type (0, 1), BuildingBlock: EZIPEK_clean_linker_0, # of connection points: 2
#     Edge 43, Type (0, 1), BuildingBlock: EZIPEK_clean_linker_0, # of connection points: 2
#     Edge 44, Type (0, 1), BuildingBlock: EZIPEK_clean_linker_0, # of connection points: 2
#     Edge 45, Type (0, 1), BuildingBlock: EZIPEK_clean_linker_0, # of connection points: 2
#     Edge 46, Type (0, 1), BuildingBlock: EZIPEK_clean_linker_0, # of connection points: 2
#     Edge 47, Type (0, 1), BuildingBlock: EZIPEK_clean_linker_0, # of connection points: 2
#     Edge 48, Type (0, 1), BuildingBlock: EZIPEK_clean_linker_0, # of connection points: 2
#     Edge 49, Type (0, 1), BuildingBlock: EZIPEK_clean_linker_0, # of connection points: 2
#     Edge 50, Type (0, 1), BuildingBlock: EZIPEK_clean_linker_0, # of connection points: 2
#     Edge 51, Type (0, 1), BuildingBlock: EZIPEK_clean_linker_0, # of connection points: 2
#     Edge 52, Type (0, 1), BuildingBlock: EZIPEK_clean_linker_0, # of connection points: 2
#     Edge 53, Type (0, 1), BuildingBlock: EZIPEK_clean_linker_0, # of connection points: 2
#     Edge 54, Type (0, 1), BuildingBlock: EZIPEK_clean_linker_0, # of connection points: 2
#     Edge 55, Type (0, 1), BuildingBlock: EZIPEK_clean_linker_0, # of connection points: 2
#     Edge 56, Type (0, 1), BuildingBlock: EZIPEK_clean_linker_0, # of connection points: 2
#     Edge 57, Type (0, 1), BuildingBlock: EZIPEK_clean_linker_0, # of connection points: 2
#     Edge 58, Type (0, 1), BuildingBlock: EZIPEK_clean_linker_0, # of connection points: 2
#     Edge 59, Type (0, 1), BuildingBlock: EZIPEK_clean_linker_0, # of connection points: 2
#     Edge 60, Type (0, 1), BuildingBlock: EZIPEK_clean_linker_0, # of connection points: 2
#     Edge 61, Type (0, 1), BuildingBlock: EZIPEK_clean_linker_0, # of connection points: 2
#     Edge 62, Type (0, 1), BuildingBlock: EZIPEK_clean_linker_0, # of connection points: 2
#     Edge 63, Type (0, 1), BuildingBlock: EZIPEK_clean_linker_0, # of connection points: 2
#     Edge 64, Type (0, 1), BuildingBlock: EZIPEK_clean_linker_0, # of connection points: 2
#     Edge 65, Type (0, 1), BuildingBlock: EZIPEK_clean_linker_0, # of connection points: 2
#     Edge 66, Type (0, 1), BuildingBlock: EZIPEK_clean_linker_0, # of connection points: 2
#     Edge 67, Type (0, 1), BuildingBlock: EZIPEK_clean_linker_0, # of connection points: 2
#     Edge 68, Type (0, 1), BuildingBlock: EZIPEK_clean_linker_0, # of connection points: 2
#     Edge 69, Type (0, 1), BuildingBlock: EZIPEK_clean_linker_0, # of connection points: 2
#     Edge 70, Type (0, 1), BuildingBlock: EZIPEK_clean_linker_0, # of connection points: 2
#     Edge 71, Type (0, 1), BuildingBlock: EZIPEK_clean_linker_0, # of connection points: 2
#     Edge 72, Type (0, 1), BuildingBlock: EZIPEK_clean_linker_0, # of connection points: 2
#     Edge 73, Type (0, 1), BuildingBlock: EZIPEK_clean_linker_0, # of connection points: 2
#     Edge 74, Type (0, 1), BuildingBlock: EZIPEK_clean_linker_0, # of connection points: 2
#     Edge 75, Type (0, 1), BuildingBlock: EZIPEK_clean_linker_0, # of connection points: 2
#     Edge 76, Type (0, 1), BuildingBlock: EZIPEK_clean_linker_0, # of connection points: 2
#     Edge 77, Type (0, 1), BuildingBlock: EZIPEK_clean_linker_0, # of connection points: 2
#     Edge 78, Type (0, 1), BuildingBlock: EZIPEK_clean_linker_0, # of connection points: 2
#     Edge 79, Type (0, 1), BuildingBlock: EZIPEK_clean_linker_0, # of connection points: 2
#     Edge 80, Type (0, 1), BuildingBlock: EZIPEK_clean_linker_0, # of connection points: 2
#     Edge 81, Type (0, 1), BuildingBlock: EZIPEK_clean_linker_0, # of connection points: 2
#     Edge 82, Type (0, 1), BuildingBlock: EZIPEK_clean_linker_0, # of connection points: 2
#     Edge 83, Type (0, 1), BuildingBlock: EZIPEK_clean_linker_0, # of connection points: 2
#     Edge 84, Type (0, 1), BuildingBlock: EZIPEK_clean_linker_0, # of connection points: 2
#     Edge 85, Type (0, 1), BuildingBlock: EZIPEK_clean_linker_0, # of connection points: 2
#     Edge 86, Type (0, 1), BuildingBlock: EZIPEK_clean_linker_0, # of connection points: 2
#     Edge 87, Type (0, 1), BuildingBlock: EZIPEK_clean_linker_0, # of connection points: 2
#     Edge 88, Type (0, 1), BuildingBlock: EZIPEK_clean_linker_0, # of connection points: 2
#     Edge 89, Type (0, 1), BuildingBlock: EZIPEK_clean_linker_0, # of connection points: 2
#     Edge 90, Type (0, 1), BuildingBlock: EZIPEK_clean_linker_0, # of connection points: 2
#     Edge 91, Type (0, 1), BuildingBlock: EZIPEK_clean_linker_0, # of connection points: 2
#     Edge 92, Type (0, 1), BuildingBlock: EZIPEK_clean_linker_0, # of connection points: 2
#     Edge 93, Type (0, 1), BuildingBlock: EZIPEK_clean_linker_0, # of connection points: 2
#     Edge 94, Type (0, 1), BuildingBlock: EZIPEK_clean_linker_0, # of connection points: 2
#     Edge 95, Type (0, 1), BuildingBlock: EZIPEK_clean_linker_0, # of connection points: 2
#     Edge 96, Type (0, 1), BuildingBlock: EZIPEK_clean_linker_0, # of connection points: 2
#     Edge 97, Type (0, 1), BuildingBlock: EZIPEK_clean_linker_0, # of connection points: 2
#     Edge 98, Type (0, 1), BuildingBlock: EZIPEK_clean_linker_0, # of connection points: 2
#     Edge 99, Type (0, 1), BuildingBlock: EZIPEK_clean_linker_0, # of connection points: 2
#     Edge 100, Type (0, 1), BuildingBlock: EZIPEK_clean_linker_0, # of connection points: 2
#     Edge 101, Type (0, 1), BuildingBlock: EZIPEK_clean_linker_0, # of connection points: 2
#     Edge 102, Type (0, 1), BuildingBlock: EZIPEK_clean_linker_0, # of connection points: 2
#     Edge 103, Type (0, 1), BuildingBlock: EZIPEK_clean_linker_0, # of connection points: 2
#     Edge 104, Type (0, 1), BuildingBlock: EZIPEK_clean_linker_0, # of connection points: 2
#     Edge 105, Type (0, 1), BuildingBlock: EZIPEK_clean_linker_0, # of connection points: 2
#     Edge 106, Type (0, 1), BuildingBlock: EZIPEK_clean_linker_0, # of connection points: 2
#     Edge 107, Type (0, 1), BuildingBlock: EZIPEK_clean_linker_0, # of connection points: 2
# Relax obj value: 0.040
# Max RMSD: 0.144
# Mean RMSD: 0.103
data_MOF--net-fgl--node1-ESEHIV_clean_sbu_0--node2-TATPOV_clean_sbu_0--edge1-EZIPEK_clean_linker_0
_symmetry_space_group_name_H-M    P1
_symmetry_Int_Tables_number       1
_symmetry_cell_setting            triclinic
loop_
_symmetry_equiv_pos_as_xyz
'x, y, z'
_cell_length_a     54.713948
_cell_length_b     56.978036
_cell_length_c     38.690463
_cell_angle_alpha  90.041826
_cell_angle_beta   90.583502
_cell_angle_gamma 119.97355
loop_
_atom_site_label
_atom_site_type_symbol
_atom_site_fract_x
_atom_site_fract_y
_atom_site_fract_z
_atom_type_partial_charge
Cu0 Cu 0.99583 0.53609 0.01048 0.0
N1 N 0.9779 0.53885 0.05008 0.0
N2 N 0.97504 0.55708 0.09998 0.0
C3 C 0.99001 0.56071 0.07109 0.0
C4 C 0.9525 0.53187 0.09721 0.0
C5 C 0.95422 0.52068 0.06618 0.0
O6 O 1.00305 0.56673 0.98229 0.0
C7 C 0.02448 0.51924 0.05151 0.0
O8 O 0.9991 0.50599 0.06449 0.0
H9 H 0.00999 0.57867 0.06584 0.0
H10 H 0.93983 0.50046 0.05667 0.0
N11 N 0.97583 0.50461 0.98356 0.0
N12 N 0.97295 0.47744 0.93989 0.0
C13 C 0.98132 0.50312 0.94989 0.0
C14 C 0.96281 0.47886 0.99484 0.0
C15 C 0.96097 0.46209 0.96796 0.0
C16 C 0.98121 0.56838 0.97502 0.0
O17 O 0.9564 0.54912 0.98524 0.0
H18 H 0.99395 0.52074 0.93416 0.0
H19 H 0.95756 0.47294 0.02148 0.0
O20 O 0.02923 0.53546 0.02654 0.0
H21 H 0.93615 0.52227 0.11632 0.0
H22 H 0.95324 0.44054 0.96952 0.0
Cu23 Cu 0.51203 0.55821 0.01723 0.0
N24 N 0.52665 0.56386 0.96989 0.0
N25 N 0.55492 0.57911 0.92416 0.0
C26 C 0.55357 0.5759 0.95887 0.0
C27 C 0.52804 0.5684 0.91296 0.0
C28 C 0.51066 0.55902 0.9412 0.0
O29 O 0.53752 0.59929 0.02786 0.0
C30 C 0.49256 0.50013 1.0011 0.0
O31 O 0.51921 0.50728 1.00567 0.0
H32 H 0.57174 0.58282 0.97575 0.0
H33 H 0.48797 0.55023 0.94105 0.0
N34 N 0.49596 0.55279 0.06382 0.0
N35 N 0.47635 0.5348 0.11457 0.0
C36 C 0.49062 0.53316 0.08712 0.0
C37 C 0.48463 0.56703 0.07703 0.0
C38 C 0.47267 0.55609 0.10837 0.0
C39 C 0.56319 0.61064 0.03834 0.0
O40 O 0.57519 0.59583 0.04284 0.0
H41 H 0.49622 0.5176 0.08365 0.0
H42 H 0.48434 0.58374 0.06417 0.0
O43 O 0.48489 0.51773 1.00554 0.0
H44 H 0.52161 0.56844 0.88641 0.0
H45 H 0.46122 0.56258 0.12481 0.0
Cu46 Cu 0.53582 0.06361 0.03885 0.0
N47 N 0.53323 0.08436 1.00376 0.0
N48 N 0.51714 0.09426 0.9564 0.0
C49 C 0.51271 0.07508 0.97967 0.0
C50 C 0.54141 0.11653 0.96584 0.0
C51 C 0.55127 0.11037 0.99546 0.0
O52 O 0.49802 0.03439 0.04905 0.0
C53 C 0.58781 0.07112 0.02059 0.0
O54 O 0.59468 0.09615 0.02811 0.0
H55 H 0.49511 0.05452 0.97881 0.0
H56 H 0.57035 0.12382 1.00967 0.0
N57 N 0.54952 0.08466 0.07845 0.0
N58 N 0.57098 0.09862 0.12934 0.0
C59 C 0.56245 0.07961 0.10452 0.0
C60 C 0.54961 0.10761 0.08724 0.0
C61 C 0.56314 0.11646 0.1189 0.0
C62 C 0.49209 0.01895 0.07513 0.0
O63 O 0.51245 0.01944 0.09396 0.0
H64 H 0.56609 0.06261 0.10502 0.0
H65 H 0.54093 0.11743 0.07148 0.0
O66 O 0.56238 0.05223 0.02439 0.0
H67 H 0.55119 0.13562 0.95223 0.0
H68 H 0.56745 0.13466 0.13276 0.0
Cu69 Cu 0.52642 0.05782 0.52419 0.0
N70 N 0.56268 0.07862 0.50664 0.0
N71 N 0.59907 0.09526 0.4708 0.0
C72 C 0.57137 0.07743 0.47461 0.0
C73 C 0.6082 0.10838 0.50126 0.0
C74 C 0.58563 0.09806 0.52339 0.0
O75 O 0.51141 0.01911 0.51566 0.0
C76 C 0.50649 0.09092 0.48989 0.0
O77 O 0.53313 0.10845 0.48408 0.0
H78 H 0.55771 0.064 0.45442 0.0
H79 H 0.58591 0.10443 0.54978 0.0
N80 N 0.52668 0.06279 0.57173 0.0
N81 N 0.51052 0.0645 0.62371 0.0
C82 C 0.50592 0.06336 0.58934 0.0
C83 C 0.54518 0.06385 0.59579 0.0
C84 C 0.53516 0.06481 0.62806 0.0
C85 C 0.52082 1.00259 0.51753 0.0
O86 O 0.50343 0.97704 0.50976 0.0
H87 H 0.48729 0.06199 0.57731 0.0
H88 H 0.56414 0.06315 0.5903 0.0
O89 O 0.4999 0.06852 0.5047 0.0
H90 H 0.62958 0.12426 0.50693 0.0
H91 H 0.54479 0.06511 0.65276 0.0
Cu92 Cu 0.03347 0.55153 0.51718 0.0
N93 N 0.05595 0.54226 0.54496 0.0
N94 N 0.0627 0.51874 0.58686 0.0
C95 C 0.04513 0.52648 0.57305 0.0
C96 C 0.08605 0.53075 0.5672 0.0
C97 C 0.08175 0.54511 0.54115 0.0
O98 O 0.99916 0.51665 0.51106 0.0
C99 C 0.05551 0.60092 0.54616 0.0
O100 O 0.07797 0.59963 0.53747 0.0
H101 H 0.02415 0.51991 0.58246 0.0
H102 H 0.09588 0.55584 0.5202 0.0
N103 N 0.04579 0.56627 0.47272 0.0
N104 N 0.04608 0.58763 0.42378 0.0
C105 C 0.03525 0.58009 0.45571 0.0
C106 C 0.0641 0.56517 0.45069 0.0
C107 C 0.06427 0.57829 0.42043 0.0
C108 C 0.00508 0.49997 0.49668 0.0
O109 O 0.03093 0.5087 0.48616 0.0
H110 H 0.01965 0.58432 0.46644 0.0
H111 H 0.07622 0.55528 0.45602 0.0
O112 O 0.0312 0.58013 0.54129 0.0
H113 H 0.10429 0.52824 0.57046 0.0
H114 H 0.07672 0.58078 0.39773 0.0
Cu115 Cu 0.51135 0.55202 0.52969 0.0
N116 N 0.52113 0.58177 0.50207 0.0
N117 N 0.54993 0.61367 0.46594 0.0
C118 C 0.54792 0.59793 0.49277 0.0
C119 C 0.52331 0.60753 0.45803 0.0
C120 C 0.50541 0.5878 0.48083 0.0
O121 O 0.54505 0.56149 0.55727 0.0
C122 C 0.51469 0.52077 0.47482 0.0
O123 O 0.54141 0.53956 0.47379 0.0
H124 H 0.56553 0.59664 0.50365 0.0
H125 H 0.48259 0.57691 0.47984 0.0
N126 N 0.48212 0.54605 0.55889 0.0
N127 N 0.44771 0.52319 0.5963 0.0
C128 C 0.46171 0.52149 0.56888 0.0
C129 C 0.48075 0.56394 0.58041 0.0
C130 C 0.45958 0.5498 0.60384 0.0
C131 C 0.54395 0.55853 0.5899 0.0
O132 O 0.51976 0.54252 0.60445 0.0
H133 H 0.45843 0.50266 0.55782 0.0
H134 H 0.49526 0.58553 0.58051 0.0
O135 O 0.49907 0.52147 0.49845 0.0
H136 H 0.51725 0.61556 0.43632 0.0
H137 H 0.45393 0.55821 0.62537 0.0
Cu138 Cu 0.6607 0.87982 0.32793 0.0
N139 N 0.62815 0.88157 0.32039 0.0
N140 N 0.60519 0.90431 0.31438 0.0
C141 C 0.63026 0.90548 0.31339 0.0
C142 C 0.58615 0.87854 0.32237 0.0
C143 C 0.6005 0.86434 0.3259 0.0
O144 O 0.68212 0.91025 0.36133 0.0
C145 C 0.6625 0.87142 0.25489 0.0
O146 O 0.63903 0.87239 0.25388 0.0
H147 H 0.65019 0.92392 0.30958 0.0
H148 H 0.59156 0.84341 0.33343 0.0
N149 N 0.65322 0.8478 0.34868 0.0
N150 N 0.66372 0.81728 0.36791 0.0
C151 C 0.67188 0.83909 0.34796 0.0
C152 C 0.63229 0.83069 0.36952 0.0
C153 C 0.63881 0.81163 0.38151 0.0
C154 C 0.682 0.90614 0.39398 0.0
O155 O 0.67323 0.8815 0.40507 0.0
H156 H 0.69173 0.84933 0.33445 0.0
H157 H 0.61455 0.83282 0.37713 0.0
O158 O 0.67713 0.87808 0.28298 0.0
H159 H 0.56394 0.87095 0.32668 0.0
H160 H 0.62693 0.79564 0.3998 0.0
Cu161 Cu 0.20001 0.89663 0.3585 0.0
N162 N 0.16857 0.87525 0.33021 0.0
N163 N 0.13478 0.83778 0.30448 0.0
C164 C 0.15653 0.84812 0.3272 0.0
C165 C 0.13297 0.85908 0.29256 0.0
C166 C 0.15399 0.88228 0.30839 0.0
O167 O 0.19361 0.87542 0.40088 0.0
C168 C 0.23661 0.91992 0.30466 0.0
O169 O 0.21834 0.92802 0.29868 0.0
H170 H 0.16356 0.83617 0.3414 0.0
H171 H 0.15845 0.90277 0.30398 0.0
N172 N 0.20418 0.93037 0.37073 0.0
N173 N 0.22619 0.97369 0.38806 0.0
C174 C 0.22818 0.95121 0.38383 0.0
C175 C 0.18631 0.94002 0.36675 0.0
C176 C 0.19992 0.96685 0.37731 0.0
C177 C 0.17093 0.8697 0.41681 0.0
O178 O 0.15501 0.87909 0.40459 0.0
H179 H 0.24695 0.95007 0.38961 0.0
H180 H 0.16504 0.92853 0.35656 0.0
O181 O 0.2332 0.90492 0.33083 0.0
H182 H 0.11758 0.85788 0.27377 0.0
H183 H 0.19134 0.98034 0.37701 0.0
Cu184 Cu 0.21043 0.41946 0.37382 0.0
N185 N 0.20888 0.44403 0.34367 0.0
N186 N 0.19011 0.45728 0.30227 0.0
C187 C 0.18511 0.43918 0.32728 0.0
C188 C 0.21814 0.47455 0.30286 0.0
C189 C 0.22975 0.46639 0.32879 0.0
O190 O 0.17163 0.39028 0.38147 0.0
C191 C 0.26254 0.42589 0.35699 0.0
O192 O 0.27035 0.44988 0.37022 0.0
H193 H 0.16478 0.4214 0.33145 0.0
H194 H 0.25195 0.47517 0.33469 0.0
N195 N 0.2243 0.43518 0.41656 0.0
N196 N 0.23951 0.43781 0.47042 0.0
C197 C 0.22948 0.42231 0.44198 0.0
C198 C 0.23109 0.45973 0.42935 0.0
C199 C 0.24062 0.46144 0.46301 0.0
C200 C 0.15607 0.39743 0.39751 0.0
O201 O 0.16724 0.42265 0.40812 0.0
H202 H 0.22654 0.40213 0.43941 0.0
H203 H 0.22947 0.47525 0.41514 0.0
O204 O 0.23632 0.40819 0.35572 0.0
H205 H 0.22946 0.49066 0.28451 0.0
H206 H 0.24836 0.47869 0.48032 0.0
Cu207 Cu 0.19176 0.38965 0.88724 0.0
N208 N 0.21858 0.41837 0.86182 0.0
N209 N 0.24628 0.43905 0.81743 0.0
C210 C 0.23042 0.41532 0.83332 0.0
C211 C 0.24511 0.45807 0.83688 0.0
C212 C 0.22769 0.44509 0.86444 0.0
O213 O 0.20552 0.3639 0.89431 0.0
C214 C 0.15068 0.38456 0.83548 0.0
O215 O 0.1722 0.398 0.81503 0.0
H216 H 0.22605 0.39585 0.82322 0.0
H217 H 0.22104 0.45426 0.88394 0.0
N218 N 0.18902 0.40243 0.93017 0.0
N219 N 0.16881 0.40798 0.97641 0.0
C220 C 0.16479 0.39366 0.94725 0.0
C221 C 0.20903 0.423 0.94925 0.0
C222 C 0.19649 0.42651 0.97801 0.0
C223 C 0.23049 0.37405 0.907 0.0
O224 O 0.24449 0.40001 0.91458 0.0
H225 H 0.14447 0.37772 0.93797 0.0
H226 H 0.23095 0.43512 0.94223 0.0
O227 O 0.15443 0.37663 0.865 0.0
H228 H 0.25477 0.47933 0.83051 0.0
H229 H 0.2066 0.44179 0.99802 0.0
Cu230 Cu 0.69309 0.88577 0.81812 0.0
N231 N 0.70353 0.86343 0.79497 0.0
N232 N 0.70176 0.82534 0.77747 0.0
C233 C 0.68832 0.83617 0.79437 0.0
C234 C 0.72624 0.84641 0.7667 0.0
C235 C 0.72726 0.87 0.7775 0.0
O236 O 0.67428 0.86566 0.86107 0.0
C237 C 0.68791 0.91179 0.7586 0.0
O238 O 0.71435 0.91777 0.75657 0.0
H239 H 0.66798 0.82448 0.80647 0.0
H240 H 0.74424 0.89044 0.77324 0.0
N241 N 0.72447 0.91759 0.83394 0.0
N242 N 0.74728 0.9564 0.86347 0.0
C243 C 0.72255 0.9378 0.84914 0.0
C244 C 0.75145 0.92366 0.83873 0.0
C245 C 0.76563 0.94771 0.85712 0.0
C246 C 0.68931 0.85947 0.88075 0.0
O247 O 0.71493 0.86636 0.87095 0.0
H248 H 0.70293 0.93793 0.85174 0.0
H249 H 0.75977 0.9107 0.83152 0.0
O250 O 0.67323 0.89715 0.78403 0.0
H251 H 0.7422 0.84478 0.75232 0.0
H252 H 0.78712 0.95722 0.86682 0.0
Cu253 Cu 0.20193 0.87709 0.86376 0.0
N254 N 0.1872 0.88034 0.82149 0.0
N255 N 0.17123 0.86945 0.76719 0.0
C256 C 0.17616 0.86063 0.79729 0.0
C257 C 0.17936 0.89577 0.77246 0.0
C258 C 0.18921 0.90246 0.80619 0.0
O259 O 0.18025 0.8391 0.87602 0.0
C260 C 0.25191 0.8856 0.83066 0.0
O261 O 0.2352 0.86611 0.80927 0.0
H262 H 0.17308 0.84053 0.80108 0.0
H263 H 0.19844 0.92229 0.81814 0.0
N264 N 0.19955 0.89855 0.8984 0.0
N265 N 0.21086 0.92153 0.94814 0.0
C266 C 0.21912 0.91035 0.92357 0.0
C267 C 0.17809 0.90248 0.90725 0.0
C268 C 0.18502 0.91666 0.93825 0.0
C269 C 0.16612 0.83022 0.90361 0.0
O270 O 0.17016 0.84755 0.92841 0.0
H271 H 0.23859 0.90976 0.92465 0.0
H272 H 0.15837 0.89451 0.89307 0.0
O273 O 0.24175 0.89074 0.85707 0.0
H274 H 0.17886 0.90924 0.75311 0.0
H275 H 0.17195 0.92231 0.95281 0.0
Cu276 Cu 0.33279 0.20717 0.70465 0.0
N277 N 0.30118 0.21064 0.69658 0.0
N278 N 0.27811 0.23243 0.68327 0.0
C279 C 0.30281 0.23483 0.69353 0.0
C280 C 0.2599 0.20564 0.68003 0.0
C281 C 0.27441 0.19218 0.68771 0.0
O282 O 0.35507 0.23625 0.73918 0.0
C283 C 0.36436 0.20075 0.64747 0.0
O284 O 0.38044 0.19776 0.67031 0.0
H285 H 0.32218 0.25397 0.69704 0.0
H286 H 0.26639 0.17067 0.68493 0.0
N287 N 0.32202 0.17321 0.7236 0.0
N288 N 0.32483 0.13802 0.74363 0.0
C289 C 0.33899 0.16284 0.72965 0.0
C290 C 0.29637 0.15433 0.73485 0.0
C291 C 0.29804 0.13247 0.74712 0.0
C292 C 0.34792 0.23152 0.77103 0.0
O293 O 0.32938 0.20671 0.78 0.0
H294 H 0.36142 0.17347 0.72507 0.0
H295 H 0.27789 0.15652 0.73523 0.0
O296 O 0.34697 0.2081 0.65741 0.0
H297 H 0.23833 0.19668 0.67074 0.0
H298 H 0.28118 0.11422 0.75839 0.0
Cu299 Cu 0.85405 0.19939 0.67065 0.0
N300 N 0.8824 0.20317 0.63985 0.0
N301 N 0.91466 0.2266 0.59951 0.0
C302 C 0.9045 0.22734 0.63087 0.0
C303 C 0.89917 0.20078 0.5886 0.0
C304 C 0.87931 0.18641 0.61335 0.0
O305 O 0.86045 0.23633 0.678 0.0
C306 C 0.81263 0.14781 0.64969 0.0
O307 O 0.83266 0.14317 0.66045 0.0
H308 H 0.91087 0.24588 0.64481 0.0
H309 H 0.86173 0.1662 0.60967 0.0
N310 N 0.855 0.1858 0.71433 0.0
N311 N 0.83813 0.16881 0.76638 0.0
C312 C 0.83774 0.18408 0.74003 0.0
C313 C 0.86711 0.17147 0.72501 0.0
C314 C 0.85668 0.16091 0.75723 0.0
C315 C 0.88188 0.25152 0.69708 0.0
O316 O 0.89641 0.24123 0.71102 0.0
H317 H 0.82387 0.19249 0.73853 0.0
H318 H 0.88117 0.16764 0.70964 0.0
O319 O 0.81718 0.17213 0.65139 0.0
H320 H 0.89994 0.19364 0.56292 0.0
H321 H 0.86148 0.14765 0.77222 0.0
Cu322 Cu 0.87394 0.72641 0.66824 0.0
N323 N 0.86679 0.74473 0.63328 0.0
N324 N 0.84689 0.75063 0.58606 0.0
C325 C 0.84389 0.73395 0.61238 0.0
C326 C 0.87255 0.77274 0.59047 0.0
C327 C 0.88472 0.76913 0.61981 0.0
O328 O 0.83896 0.69471 0.68178 0.0
C329 C 0.9274 0.73933 0.65007 0.0
O330 O 0.93158 0.76315 0.65968 0.0
H331 H 0.82579 0.71393 0.61569 0.0
H332 H 0.90547 0.78311 0.62996 0.0
N333 N 0.88826 0.74689 0.70844 0.0
N334 N 0.90862 0.75668 0.76045 0.0
C335 C 0.89745 0.73818 0.73499 0.0
C336 C 0.89327 0.77175 0.71761 0.0
C337 C 0.90598 0.77791 0.75006 0.0
C338 C 0.82197 0.70052 0.6966 0.0
O339 O 0.82908 0.7261 0.69994 0.0
H340 H 0.89703 0.71897 0.735 0.0
H341 H 0.88881 0.7847 0.70151 0.0
O342 O 0.90273 0.71874 0.65195 0.0
H343 H 0.88175 0.79014 0.57358 0.0
H344 H 0.91375 0.79676 0.76419 0.0
Cu345 Cu 0.839 0.71467 0.15679 0.0
N346 N 0.84283 0.69951 0.11573 0.0
N347 N 0.8645 0.69414 0.07037 0.0
C348 C 0.86773 0.70765 0.10019 0.0
C349 C 0.83659 0.67675 0.06684 0.0
C350 C 0.82321 0.68008 0.095 0.0
O351 O 0.8731 0.72261 0.18415 0.0
C352 C 0.80904 0.73734 0.12867 0.0
O353 O 0.79309 0.71166 0.12039 0.0
H354 H 0.88781 0.72337 0.11035 0.0
H355 H 0.80078 0.66929 0.0998 0.0
N356 N 0.80719 0.69111 0.18211 0.0
N357 N 0.77688 0.67874 0.22561 0.0
C358 C 0.7983 0.69953 0.20919 0.0
C359 C 0.79063 0.66394 0.18113 0.0
C360 C 0.77187 0.6562 0.20825 0.0
C361 C 0.87205 0.70595 0.20712 0.0
O362 O 0.84747 0.68584 0.21622 0.0
H363 H 0.80818 0.72045 0.21764 0.0
H364 H 0.79285 0.65067 0.16305 0.0
O365 O 0.83253 0.74475 0.1444 0.0
H366 H 0.82669 0.6628 0.04542 0.0
H367 H 0.75644 0.63571 0.21534 0.0
Cu368 Cu 0.38478 0.22527 0.18381 0.0
N369 N 0.39627 0.20178 0.16644 0.0
N370 N 0.39295 0.16311 0.14849 0.0
C371 C 0.37895 0.17652 0.15448 0.0
C372 C 0.42029 0.18081 0.15569 0.0
C373 C 0.4223 0.20475 0.16674 0.0
O374 O 0.36658 0.21134 0.22966 0.0
C375 C 0.35294 0.24625 0.14221 0.0
O376 O 0.34312 0.25081 0.17074 0.0
H377 H 0.35627 0.16753 0.15232 0.0
H378 H 0.44123 0.2226 0.17572 0.0
N379 N 0.4162 0.25786 0.19679 0.0
N380 N 0.43295 0.29826 0.2221 0.0
C381 C 0.41523 0.28092 0.19798 0.0
C382 C 0.43598 0.26106 0.2203 0.0
C383 C 0.44646 0.28611 0.23591 0.0
C384 C 0.36012 0.18801 0.24181 0.0
O385 O 0.35723 0.16886 0.22058 0.0
H386 H 0.39844 0.28292 0.18621 0.0
H387 H 0.43935 0.24492 0.22929 0.0
O388 O 0.36745 0.23429 0.144 0.0
H389 H 0.43725 0.17625 0.15468 0.0
H390 H 0.45984 0.29313 0.25877 0.0
Cu391 Cu 0.86574 0.23353 0.18792 0.0
N392 N 0.85009 0.23212 0.14456 0.0
N393 N 0.83075 0.21461 0.09337 0.0
C394 C 0.84298 0.21173 0.12205 0.0
C395 C 0.83029 0.23789 0.09758 0.0
C396 C 0.84227 0.2487 0.12949 0.0
O397 O 0.84472 0.19743 0.20781 0.0
C398 C 0.91952 0.25916 0.15659 0.0
O399 O 0.90569 0.25166 0.12704 0.0
H400 H 0.84605 0.19468 0.12702 0.0
H401 H 0.84442 0.26688 0.14123 0.0
N402 N 0.86214 0.25697 0.21803 0.0
N403 N 0.87285 0.28209 0.26579 0.0
C404 C 0.8814 0.26996 0.24306 0.0
C405 C 0.84062 0.26136 0.2248 0.0
C406 C 0.84713 0.2768 0.2547 0.0
C407 C 0.81831 0.18873 0.20938 0.0
O408 O 0.80838 0.20378 0.19696 0.0
H409 H 0.9007 0.26918 0.24578 0.0
H410 H 0.82111 0.25298 0.21013 0.0
O411 O 0.90643 0.2489 0.18452 0.0
H412 H 0.8209 0.24575 0.0796 0.0
H413 H 0.83378 0.28284 0.26789 0.0
Zn414 Zn 0.01883 0.69717 0.20727 0.0
Zn415 Zn 0.00579 0.67113 0.26702 0.0
O416 O 1.0035 0.64388 0.22885 0.0
O417 O 0.01755 0.66638 0.18008 0.0
O418 O 0.00436 0.65019 0.31166 0.0
O419 O 0.05448 0.72927 0.22511 0.0
O420 O 0.04194 0.70894 0.27552 0.0
C421 C 0.00867 0.64454 0.19663 0.0
C422 C 0.96604 0.68926 0.23708 0.0
O423 O 0.97089 0.67715 0.26193 0.0
O424 O 0.98275 0.69859 0.21184 0.0
C425 C 0.02558 0.6469 0.31703 0.0
O426 O 0.0465 0.65744 0.29509 0.0
C427 C 0.05831 0.72955 0.25742 0.0
Zn428 Zn 0.39866 0.39735 0.34688 0.0
Zn429 Zn 0.41758 0.43335 0.2942 0.0
O430 O 0.44521 0.4533 0.33481 0.0
O431 O 0.42908 0.42448 0.37821 0.0
O432 O 0.43511 0.45929 0.25343 0.0
O433 O 0.40578 0.37144 0.32015 0.0
O434 O 0.41857 0.39964 0.27628 0.0
C435 C 0.44673 0.44739 0.36631 0.0
C436 C 0.35833 0.41304 0.32454 0.0
O437 O 0.3778 0.42863 0.30384 0.0
O438 O 0.36169 0.39699 0.34401 0.0
C439 C 0.42204 0.46523 0.23081 0.0
O440 O 0.39465 0.45501 0.23337 0.0
C441 C 0.41435 0.37745 0.28947 0.0
Zn442 Zn 0.66639 0.04941 0.23155 0.0
Zn443 Zn 0.66207 0.07161 0.2889 0.0
O444 O 0.63876 0.08165 0.25802 0.0
O445 O 0.64417 0.0652 0.20885 0.0
O446 O 0.65607 0.08218 0.33622 0.0
O447 O 0.64656 0.01148 0.24854 0.0
O448 O 0.64309 0.03037 0.29628 0.0
C449 C 0.63433 0.07765 0.22571 0.0
C450 C 0.71937 0.09227 0.25265 0.0
O451 O 0.70438 0.09534 0.27539 0.0
O452 O 0.70853 0.07152 0.23327 0.0
C453 C 0.65828 0.1045 0.3456 0.0
O454 O 0.66879 0.12515 0.32434 0.0
C455 C 0.63822 0.00932 0.27929 0.0
Zn456 Zn 0.99155 0.37286 0.81317 0.0
Zn457 Zn 0.01289 0.40911 0.76178 0.0
O458 O 0.97645 0.37576 0.73966 0.0
O459 O 0.96147 0.34574 0.78152 0.0
O460 O 0.03066 0.4383 0.72323 0.0
O461 O 0.98413 0.39838 0.84135 0.0
O462 O 1.00337 0.42905 0.80037 0.0
C463 C 0.95888 0.35214 0.75093 0.0
C464 C 0.04831 0.38711 0.80063 0.0
O465 O 0.04577 0.40171 0.77723 0.0
O466 O 0.02785 0.3726 0.82011 0.0
C467 C 0.0218 0.43594 0.69202 0.0
O468 O 0.99988 0.41302 0.68181 0.0
C469 C 0.99178 0.42182 0.82994 0.0
Zn470 Zn 0.68107 0.68409 0.69584 0.0
Zn471 Zn 0.65814 0.65679 0.75391 0.0
O472 O 0.66511 0.69599 0.76244 0.0
O473 O 0.68294 0.71776 0.71376 0.0
O474 O 0.6352 0.6359 0.79597 0.0
O475 O 0.64927 0.65795 0.66605 0.0
O476 O 0.63097 0.63454 0.71359 0.0
C477 C 0.67497 0.71754 0.74435 0.0
C478 C 0.71422 0.66397 0.73024 0.0
O479 O 0.69486 0.65442 0.75293 0.0
O480 O 0.71275 0.67706 0.70468 0.0
C481 C 0.64376 0.63785 0.82713 0.0
O482 O 0.67052 0.654 0.83485 0.0
C483 C 0.63021 0.63722 0.6809 0.0
Zn484 Zn 0.37008 0.0367 0.84608 0.0
Zn485 Zn 0.39874 0.03882 0.78772 0.0
O486 O 0.38105 0.06213 0.77486 0.0
O487 O 0.3585 0.06112 0.82242 0.0
O488 O 0.42211 0.04038 0.74693 0.0
O489 O 0.40622 0.05295 0.87334 0.0
O490 O 0.42902 0.05574 0.82545 0.0
C491 C 0.3658 0.06912 0.79176 0.0
C492 C 0.3511 0.98464 0.81473 0.0
O493 O 0.37029 0.99809 0.79282 0.0
O494 O 0.34694 0.99642 0.8398 0.0
C495 C 0.43504 0.06133 0.72825 0.0
O496 O 0.43205 0.08245 0.7342 0.0
C497 C 0.42899 0.05965 0.85781 0.0
Zn498 Zn 0.6866 0.02769 0.52341 0.0
Zn499 Zn 0.67007 0.99338 0.57552 0.0
O500 O 0.67847 0.97451 0.53263 0.0
O501 O 0.68983 1.00296 0.48915 0.0
O502 O 0.66286 0.96635 0.61728 0.0
O503 O 0.72054 0.05685 0.54792 0.0
O504 O 0.70275 0.03146 0.5939 0.0
C505 C 0.68504 0.98032 0.5007 0.0
C506 C 0.62973 0.01159 0.54453 0.0
O507 O 0.63308 0.99565 0.56505 0.0
O508 O 0.64997 0.02803 0.52589 0.0
C509 C 0.67374 0.97309 0.64778 0.0
O510 O 0.68912 0.99894 0.65557 0.0
C511 C 0.7209 0.05392 0.58027 0.0
Zn512 Zn 0.07943 0.7382 0.64792 0.0
Zn513 Zn 0.08934 0.76391 0.59085 0.0
O514 O 0.11633 0.79122 0.62856 0.0
O515 O 0.10715 0.76854 0.67728 0.0
O516 O 0.10602 0.78339 0.54477 0.0
O517 O 0.08482 0.70786 0.63332 0.0
O518 O 0.0832 0.72486 0.58286 0.0
C519 C 0.12038 0.79049 0.661 0.0
C520 C 0.03313 0.74505 0.62146 0.0
O521 O 0.05016 0.75967 0.59796 0.0
O522 O 0.04042 0.73322 0.64355 0.0
C523 C 0.12171 0.80903 0.54213 0.0
O524 O 0.12665 0.82437 0.56963 0.0
C525 C 0.08228 0.70561 0.60083 0.0
Zn526 Zn 0.31921 0.37799 0.59449 0.0
Zn527 Zn 0.29356 0.38768 0.64773 0.0
O528 O 0.27551 0.39518 0.60656 0.0
O529 O 0.29473 0.38593 0.56255 0.0
O530 O 0.27822 0.39736 0.68818 0.0
O531 O 0.30625 0.34098 0.61468 0.0
O532 O 0.28316 0.34827 0.65573 0.0
C533 C 0.27859 0.39396 0.57426 0.0
C534 C 0.35663 0.42451 0.63462 0.0
O535 O 0.33457 0.41702 0.65224 0.0
O536 O 0.35614 0.41064 0.60877 0.0
C537 C 0.27804 0.41956 0.68744 0.0
O538 O 0.28574 0.43441 0.65941 0.0
C539 C 0.29055 0.33288 0.64093 0.0
Zn540 Zn 0.67478 0.75529 0.13501 0.0
Zn541 Zn 0.68396 0.78392 0.0779 0.0
O542 O 0.65032 0.74415 0.06606 0.0
O543 O 0.64191 0.72156 0.11481 0.0
O544 O 0.68855 0.80515 0.03157 0.0
O545 O 0.66993 0.78176 0.16418 0.0
O546 O 0.67767 0.80673 0.11763 0.0
C547 C 0.63654 0.72206 0.08304 0.0
C548 C 0.7298 0.77197 0.10841 0.0
O549 O 0.72236 0.78342 0.08529 0.0
O550 O 0.71313 0.75892 0.13258 0.0
C551 C 0.66827 0.80516 0.01465 0.0
O552 O 0.64257 0.79151 0.02681 0.0
C553 C 0.67289 0.80308 0.15021 0.0
Zn554 Zn 0.35068 0.01441 0.06372 0.0
Zn555 Zn 0.32666 0.99044 0.1228 0.0
O556 O 0.33858 0.03084 0.13145 0.0
O557 O 0.35946 0.05035 0.08274 0.0
O558 O 0.30587 0.97099 0.16708 0.0
O559 O 0.3154 0.99237 0.0364 0.0
O560 O 0.295 0.97207 0.08492 0.0
C561 C 0.35183 0.05203 0.11294 0.0
C562 C 0.38051 0.99138 0.09568 0.0
O563 O 0.36164 0.98473 0.1188 0.0
O564 O 0.37967 1.00339 0.06863 0.0
C565 C 0.31654 0.96727 0.19455 0.0
O566 O 0.34373 0.97595 0.19621 0.0
C567 C 0.29382 0.97513 0.05234 0.0
Zn568 Zn 0.04477 0.42372 0.18733 0.0
Zn569 Zn 0.07283 0.41228 0.13784 0.0
O570 O 0.06807 0.44181 0.11535 0.0
O571 O 0.04502 0.45153 0.15392 0.0
O572 O 0.09519 0.40604 0.10271 0.0
O573 O 0.07806 0.43467 0.22001 0.0
O574 O 0.09946 0.4253 0.17876 0.0
C575 C 0.05653 0.45534 0.12461 0.0
C576 C 0.01581 0.36761 0.16288 0.0
O577 O 0.03698 0.37553 0.14322 0.0
O578 O 0.01416 0.384 0.18361 0.0
C579 C 0.08637 0.4004 0.07172 0.0
O580 O 0.06138 0.39671 0.06321 0.0
C581 C 0.0992 0.4335 0.20921 0.0
Zn582 Zn 0.3702 0.36193 0.8941 0.0
Zn583 Zn 0.36063 0.33211 0.95062 0.0
O584 O 0.3635 0.309 0.90877 0.0
O585 O 0.37429 0.3356 0.86329 0.0
O586 O 0.35936 0.31151 0.99644 0.0
O587 O 0.40344 0.39546 0.914 0.0
O588 O 0.39542 0.37156 0.96151 0.0
C589 C 0.36897 0.31322 0.87638 0.0
C590 C 0.31503 0.34463 0.92348 0.0
O591 O 0.32258 0.33309 0.9463 0.0
O592 O 0.33146 0.35764 0.89903 0.0
C593 C 0.34064 0.28831 1.00763 0.0
O594 O 0.31776 0.27362 0.98891 0.0
C595 C 0.40938 0.39402 0.94533 0.0
Zn596 Zn 0.73831 0.06616 0.99976 0.0
Zn597 Zn 0.74178 0.09133 0.94027 0.0
O598 O 0.77 0.12152 0.97263 0.0
O599 O 0.76607 0.10158 0.02263 0.0
O600 O 0.75326 0.10889 0.89285 0.0
O601 O 0.75004 0.04071 0.97966 0.0
O602 O 0.74537 0.05759 0.93064 0.0
C603 C 0.77665 0.12276 1.00442 0.0
C604 C 0.68711 0.06747 0.97955 0.0
O605 O 0.70159 0.08224 0.95432 0.0
O606 O 0.69715 0.05659 0.99945 0.0
C607 C 0.76939 0.13423 0.88843 0.0
O608 O 0.77448 0.15105 0.91431 0.0
C609 C 0.74925 0.04032 0.94699 0.0
Zn610 Zn 1.00161 0.7028 0.86416 0.0
Zn611 Zn 0.98976 0.71799 0.92412 0.0
O612 O 0.96832 0.72659 0.88694 0.0
O613 O 0.97765 0.71415 0.83718 0.0
O614 O 0.97144 0.72191 0.96763 0.0
O615 O 0.98859 0.66469 0.87842 0.0
O616 O 0.98424 0.67957 0.92929 0.0
C617 C 0.96561 0.72437 0.85423 0.0
C618 C 0.05 0.74693 0.90152 0.0
O619 O 0.03228 0.74616 0.92342 0.0
O620 O 0.04182 0.73042 0.87629 0.0
C621 C 0.94581 0.7033 0.97097 0.0
O622 O 0.93439 0.68371 0.94789 0.0
C623 C 0.9841 0.66112 0.91048 0.0
Zn624 Zn 0.35886 0.09572 0.50032 0.0
Zn625 Zn 0.37108 0.12953 0.44658 0.0
O626 O 0.33394 0.0934 0.43314 0.0
O627 O 0.32406 0.06592 0.47738 0.0
O628 O 0.3773 0.1531 0.40218 0.0
O629 O 0.35695 0.12258 0.53232 0.0
O630 O 0.36824 0.1517 0.48949 0.0
C631 C 0.31832 0.07041 0.44722 0.0
C632 C 0.41258 0.10983 0.4717 0.0
O633 O 0.40672 0.12396 0.45093 0.0
O634 O 0.39555 0.09609 0.49523 0.0
C635 C 0.35694 0.15042 0.38267 0.0
O636 O 0.33092 0.13348 0.39192 0.0
C637 C 0.36257 0.14569 0.52151 0.0
Zn638 Zn 0.00445 0.38359 0.39465 0.0
Zn639 Zn 0.98187 0.34666 0.44418 0.0
O640 O 0.97909 0.37885 0.46487 0.0
O641 O 0.99917 0.40965 0.42441 0.0
O642 O 0.96481 0.31726 0.48059 0.0
O643 O 0.97307 0.3596 0.36198 0.0
O644 O 0.95332 0.33006 0.40391 0.0
C645 C 0.98689 0.40249 0.45325 0.0
C646 C 0.04244 0.36623 0.41562 0.0
O647 O 0.02205 0.3514 0.43567 0.0
O648 O 0.04036 0.38243 0.3951 0.0
C649 C 0.97694 0.31689 0.50867 0.0
O650 O 1.00241 0.33687 0.51601 0.0
C651 C 0.95287 0.33761 0.37302 0.0
Zn652 Zn 0.70849 0.72517 0.47311 0.0
Zn653 Zn 0.72493 0.71203 0.41818 0.0
O654 O 0.72532 0.74585 0.40041 0.0
O655 O 0.70843 0.75523 0.44667 0.0
O656 O 0.73729 0.69789 0.37761 0.0
O657 O 0.74009 0.73106 0.50325 0.0
O658 O 0.7554 0.7201 0.45695 0.0
C659 C 0.71589 0.75953 0.41543 0.0
C660 C 0.66453 0.6782 0.44724 0.0
O661 O 0.68253 0.68357 0.42351 0.0
O662 O 0.67167 0.69168 0.4751 0.0
C663 C 0.73354 0.70276 0.34649 0.0
O664 O 0.72086 0.71675 0.3403 0.0
C665 C 0.7585 0.72746 0.48868 0.0
C666 C 0.0584 0.51923 0.0943 0.0
C667 C 0.0444 0.51032 0.06204 0.0
C668 C 0.04357 0.46729 0.06733 0.0
C669 C 0.05601 0.47539 0.10083 0.0
N670 N 0.08335 0.51168 0.14127 0.0
N671 N 0.03243 0.48098 0.01276 0.0
C672 C 0.06619 0.50234 0.11268 0.0
C673 C 0.04049 0.4862 0.04667 0.0
N674 N 0.06276 0.54314 0.10797 0.0
N675 N 0.03236 0.44101 0.05645 0.0
H676 H 0.02954 0.49462 0.9978 0.0
H677 H 0.03137 0.46482 0.99888 0.0
H678 H 0.03273 0.42595 0.07125 0.0
H679 H 0.02043 0.43344 0.03384 0.0
H680 H 0.06967 0.54941 0.13324 0.0
H681 H 0.05839 0.55628 0.09389 0.0
H682 H 0.09318 0.53175 0.14969 0.0
H683 H 0.08985 0.49985 0.15476 0.0
C684 C 0.60542 0.65713 0.02797 0.0
C685 C 0.57985 0.64058 0.0458 0.0
C686 C 0.58816 0.68064 0.07973 0.0
C687 C 0.61568 0.69585 0.06591 0.0
N688 N 0.65181 0.69728 0.0291 0.0
N689 N 0.54844 0.63619 0.09184 0.0
C690 C 0.62455 0.68389 0.04026 0.0
C691 C 0.57143 0.65232 0.07225 0.0
N692 N 0.61126 0.64746 0.99877 0.0
N693 N 0.57792 0.69341 0.09988 0.0
H694 H 0.53613 0.61536 0.08792 0.0
H695 H 0.54306 0.64299 0.11391 0.0
H696 H 0.58955 0.71413 0.10539 0.0
H697 H 0.5571 0.6842 0.10809 0.0
H698 H 0.6279 0.65945 0.98245 0.0
H699 H 0.59775 0.62815 0.98894 0.0
H700 H 0.66041 0.68821 0.01383 0.0
H701 H 0.66663 0.71679 0.03718 0.0
C702 C 0.44126 0.98341 0.06763 0.0
C703 C 0.46262 0.00478 0.08766 0.0
C704 C 0.42645 1.00456 0.12496 0.0
C705 C 0.40558 0.988 0.10031 0.0
N706 N 0.39155 0.95813 0.05121 0.0
N707 N 0.47603 0.03607 0.13581 0.0
C708 C 0.41253 0.97588 0.07294 0.0
C709 C 0.4554 0.01498 0.11706 0.0
N710 N 0.44865 0.97063 0.0435 0.0
N711 N 0.41863 0.01085 0.15543 0.0
H712 H 0.49749 0.0444 0.13108 0.0
H713 H 0.47192 0.04664 0.15467 0.0
H714 H 0.39761 1.00327 0.16198 0.0
H715 H 0.43267 0.021 0.17572 0.0
H716 H 0.4342 0.95365 0.02946 0.0
H717 H 0.46961 0.97587 0.03945 0.0
H718 H 0.39502 0.9507 0.02833 0.0
H719 H 0.3703 0.95126 0.0561 0.0
C720 C 0.46344 0.08381 0.45587 0.0
C721 C 0.48425 0.09823 0.48191 0.0
C722 C 0.46091 0.12456 0.49584 0.0
C723 C 0.43981 0.1097 0.47042 0.0
N724 N 0.42308 0.07878 0.42227 0.0
N725 N 0.50515 0.13467 0.52379 0.0
C726 C 0.44186 0.0905 0.44909 0.0
C727 C 0.48382 0.11951 0.50076 0.0
N728 N 0.46412 0.0634 0.43808 0.0
N729 N 0.45825 0.14273 0.51631 0.0
H730 H 0.52094 0.13029 0.53044 0.0
H731 H 0.50813 0.15241 0.53537 0.0
H732 H 0.44281 0.14808 0.51192 0.0
H733 H 0.47049 0.15189 0.53827 0.0
H734 H 0.4482 0.05004 0.42138 0.0
H735 H 0.48037 0.05899 0.44103 0.0
H736 H 0.42426 0.06614 0.40379 0.0
H737 H 0.4072 0.08336 0.41694 0.0
C738 C 0.98765 0.45355 0.51762 0.0
C739 C 0.98502 0.47065 0.49326 0.0
C740 C 0.96856 0.43462 0.45008 0.0
C741 C 0.97966 0.42146 0.47085 0.0
N742 N 0.99575 0.41584 0.52707 0.0
N743 N 0.96908 0.47668 0.43791 0.0
C744 C 0.9873 0.42966 0.50586 0.0
C745 C 0.97344 0.46055 0.46023 0.0
N746 N 0.99141 0.46097 0.55162 0.0
N747 N 0.95355 0.42222 0.42071 0.0
H748 H 0.97166 0.49535 0.4457 0.0
H749 H 0.96394 0.47203 0.41186 0.0
H750 H 0.94896 0.40275 0.41359 0.0
H751 H 0.94332 0.4299 0.40563 0.0
H752 H 0.9922 0.44912 0.57157 0.0
H753 H 0.99068 0.47805 0.55982 0.0
H754 H 1.00327 0.42191 0.55216 0.0
H755 H 0.99595 0.39842 0.51947 0.0
C756 C 0.58866 0.65881 0.45034 0.0
C757 C 0.57567 0.63035 0.44785 0.0
C758 C 0.6208 0.63353 0.43407 0.0
C759 C 0.63405 0.66179 0.43964 0.0
N760 N 0.63004 0.70206 0.43845 0.0
N761 N 0.57646 0.59157 0.42533 0.0
C762 C 0.61767 0.67467 0.44266 0.0
C763 C 0.5909 0.61811 0.43523 0.0
N764 N 0.57395 0.6705 0.46267 0.0
N765 N 0.63667 0.62138 0.42983 0.0
H766 H 0.55446 0.58049 0.42563 0.0
H767 H 0.58587 0.58155 0.41388 0.0
H768 H 0.65862 0.63237 0.42838 0.0
H769 H 0.62822 0.60046 0.42937 0.0
H770 H 0.58334 0.69097 0.46909 0.0
H771 H 0.55254 0.65938 0.46832 0.0
H772 H 0.61869 0.71228 0.43757 0.0
H773 H 0.65128 0.71408 0.4322 0.0
C774 C 0.96574 0.58851 0.9281 0.0
C775 C 0.98331 0.59231 0.9573 0.0
C776 C 1.00355 0.64135 0.9529 0.0
C777 C 0.98327 0.63731 0.9269 0.0
N778 N 0.94216 0.60674 0.8932 0.0
N779 N 0.01465 0.62221 1.00205 0.0
C780 C 0.96354 0.61078 0.91537 0.0
C781 C 1.0011 0.61869 0.97098 0.0
N782 N 0.95195 0.56388 0.91177 0.0
N783 N 0.02599 0.66665 0.95933 0.0
H784 H 0.01295 0.60622 0.01683 0.0
H785 H 0.0253 0.64086 0.01479 0.0
H786 H 0.02951 0.68384 0.94574 0.0
H787 H 0.0428 0.67009 0.97555 0.0
H788 H 0.94104 0.56066 0.88842 0.0
H789 H 0.95381 0.54733 0.91964 0.0
H790 H 0.9255 0.58759 0.88671 0.0
H791 H 0.93962 0.62256 0.88382 0.0
C792 C 0.44698 0.45518 1.00725 0.0
C793 C 0.47184 0.47206 0.98838 0.0
C794 C 0.45851 0.43464 0.94686 0.0
C795 C 0.43183 0.41933 0.96285 0.0
N796 N 0.39903 0.41745 1.00566 0.0
N797 N 0.49872 0.47912 0.93645 0.0
C798 C 0.42567 0.43014 0.99253 0.0
C799 C 0.47701 0.46207 0.95724 0.0
N800 N 0.44405 0.46258 0.03982 0.0
N801 N 0.46652 0.42274 0.92218 0.0
H802 H 0.51216 0.49954 0.94227 0.0
H803 H 0.50164 0.47372 0.91174 0.0
H804 H 0.45388 0.40254 0.91463 0.0
H805 H 0.48675 0.43195 0.91199 0.0
H806 H 0.42796 0.44972 0.05629 0.0
H807 H 0.45931 0.48045 0.0516 0.0
H808 H 0.39258 0.42608 0.02467 0.0
H809 H 0.38258 0.39943 0.99558 0.0
C810 C 0.61277 0.05824 0.97641 0.0
C811 C 0.61057 0.06556 0.01086 0.0
C812 C 0.65859 0.07521 0.02374 0.0
C813 C 0.66045 0.06645 0.98986 0.0
N814 N 0.63757 0.045 0.93607 0.0
N815 N 0.62837 0.0746 0.06939 0.0
C816 C 0.637 0.05659 0.96675 0.0
C817 C 0.63255 0.07196 0.03514 0.0
N818 N 0.59232 0.05399 0.9526 0.0
N819 N 0.68208 0.08815 0.04452 0.0
H820 H 0.60942 0.07213 0.07867 0.0
H821 H 0.64249 0.07644 0.08891 0.0
H822 H 0.70192 0.09164 0.03747 0.0
H823 H 0.68258 0.09787 0.06755 0.0
H824 H 0.59423 0.05173 0.92623 0.0
H825 H 0.57406 0.05442 0.95897 0.0
H826 H 0.62012 0.03499 0.91964 0.0
H827 H 0.6549 0.04341 0.92835 0.0
C828 C 0.56771 0.01117 0.49777 0.0
C829 C 0.55073 0.01061 0.52549 0.0
C830 C 0.58647 0.01265 0.56671 0.0
C831 C 0.60167 0.00984 0.53894 0.0
N832 N 0.60281 1.00038 0.47822 0.0
N833 N 0.54161 0.00635 0.58658 0.0
C834 C 0.59131 0.00767 0.50446 0.0
C835 C 0.55952 0.01023 0.56008 0.0
N836 N 0.56094 0.01456 0.46478 0.0
N837 N 0.59806 0.01848 0.59919 0.0
H838 H 0.52215 0.00526 0.58275 0.0
H839 H 0.54536 1.00272 0.61193 0.0
H840 H 0.6177 0.02056 0.60498 0.0
H841 H 0.58929 0.02352 0.61966 0.0
H842 H 0.57423 0.01828 0.44389 0.0
H843 H 0.54324 0.01628 0.4589 0.0
H844 H 0.59443 0.99596 0.45322 0.0
H845 H 0.61874 0.99564 0.48215 0.0
C846 C 0.04661 0.62931 0.58873 0.0
C847 C 0.05926 0.6273 0.55798 0.0
C848 C 0.08769 0.67689 0.5552 0.0
C849 C 0.07375 0.67891 0.58472 0.0
N850 N 0.03318 0.65686 0.622 0.0
N851 N 0.08508 0.64921 0.50637 0.0
C852 C 0.05114 0.65506 0.59926 0.0
C853 C 0.07775 0.65113 0.53947 0.0
N854 N 0.03137 0.60707 0.60887 0.0
N855 N 0.11109 0.69921 0.54296 0.0
H856 H 0.07703 0.63075 0.49335 0.0
H857 H 0.09641 0.66601 0.49065 0.0
H858 H 0.11953 0.71836 0.55429 0.0
H859 H 0.12364 0.69817 0.52363 0.0
H860 H 0.02435 0.60826 0.6334 0.0
H861 H 0.02801 0.58787 0.60265 0.0
H862 H 0.01495 0.63995 0.63082 0.0
H863 H 0.03451 0.67519 0.62878 0.0
C864 C 0.43172 0.48074 0.62866 0.0
C865 C 0.42616 0.50074 0.61506 0.0
C866 C 0.37781 0.47467 0.6351 0.0
C867 C 0.38145 0.45188 0.63956 0.0
N868 N 0.4125 0.43357 0.64427 0.0
N869 N 0.39278 0.51559 0.60244 0.0
C870 C 0.40877 0.45514 0.63787 0.0
C871 C 0.39899 0.49766 0.61798 0.0
N872 N 0.4589 0.48655 0.63324 0.0
N873 N 0.35438 0.47451 0.64709 0.0
H874 H 0.40742 0.5321 0.58825 0.0
H875 H 0.37235 0.51249 0.60079 0.0
H876 H 0.33987 0.45919 0.66278 0.0
H877 H 0.35174 0.49139 0.64602 0.0
H878 H 0.46451 0.47352 0.64522 0.0
H879 H 0.47582 0.50576 0.62842 0.0
H880 H 0.43124 0.43366 0.63945 0.0
H881 H 0.39623 0.41519 0.65347 0.0
C882 C 0.7031 0.81691 0.39879 0.0
C883 C 0.67984 0.80441 0.37558 0.0
C884 C 0.68445 0.76411 0.37211 0.0
C885 C 0.70785 0.77661 0.39547 0.0
N886 N 0.74368 0.81663 0.4243 0.0
N887 N 0.6529 0.77009 0.33328 0.0
C888 C 0.71866 0.80374 0.40642 0.0
C889 C 0.67212 0.7793 0.35987 0.0
N890 N 0.70928 0.84065 0.41479 0.0
N891 N 0.67252 0.73724 0.36376 0.0
H892 H 0.64332 0.78086 0.3243 0.0
H893 H 0.64839 0.75317 0.31828 0.0
H894 H 0.6805 0.725 0.37211 0.0
H895 H 0.65337 0.72645 0.3505 0.0
H896 H 0.72418 0.84949 0.43463 0.0
H897 H 0.69796 0.85057 0.40991 0.0
H898 H 0.75396 0.83714 0.43074 0.0
H899 H 0.75543 0.8072 0.42985 0.0
C900 C 0.24519 0.00962 0.43313 0.0
C901 C 0.24809 0.99973 0.40076 0.0
C902 C 0.29675 0.03759 0.39683 0.0
C903 C 0.29345 0.04819 0.42866 0.0
N904 N 0.26221 0.04798 0.47234 0.0
N905 N 0.27368 0.00729 0.34806 0.0
C906 C 0.26688 0.03532 0.4453 0.0
C907 C 0.273 0.01474 0.38142 0.0
N908 N 0.22235 0.9938 0.45307 0.0
N909 N 0.3228 0.04818 0.38233 0.0
H910 H 0.25641 0.99083 0.33615 0.0
H911 H 0.29018 0.01879 0.33134 0.0
H912 H 0.34088 0.06461 0.39283 0.0
H913 H 0.32696 0.03929 0.36136 0.0
H914 H 0.22046 0.99859 0.47852 0.0
H915 H 0.20639 0.97466 0.44518 0.0
H916 H 0.24251 0.0408 0.48348 0.0
H917 H 0.27739 0.06714 0.48128 0.0
C918 C 0.10584 0.36799 0.37601 0.0
C919 C 0.12548 0.3789 0.40391 0.0
C920 C 0.08777 0.37317 0.44298 0.0
C921 C 0.06869 0.36451 0.41447 0.0
N922 N 0.05664 0.34477 0.35752 0.0
N923 N 0.13353 0.38259 0.46529 0.0
C924 C 0.07684 0.35887 0.38219 0.0
C925 C 0.11572 0.37817 0.43794 0.0
N926 N 0.11501 0.36794 0.34333 0.0
N927 N 0.07992 0.37845 0.47412 0.0
H928 H 0.15391 0.38586 0.46187 0.0
H929 H 0.12731 0.38031 0.49099 0.0
H930 H 0.05956 0.37463 0.47896 0.0
H931 H 0.09395 0.38794 0.49464 0.0
H932 H 0.10244 0.36399 0.32128 0.0
H933 H 0.13561 0.37278 0.338 0.0
H934 H 0.06063 0.33791 0.33448 0.0
H935 H 0.03525 0.33762 0.36177 0.0
C936 C 0.11697 0.40174 0.84593 0.0
C937 C 0.1239 0.38442 0.82716 0.0
C938 C 0.08409 0.37286 0.78701 0.0
C939 C 0.07576 0.38823 0.80762 0.0
N940 N 0.08246 0.41536 0.85853 0.0
N941 N 0.113 0.35159 0.78185 0.0
C942 C 0.09169 0.40207 0.83764 0.0
C943 C 0.10722 0.36956 0.79809 0.0
N944 N 0.13531 0.419 0.87054 0.0
N945 N 0.06991 0.36152 0.75676 0.0
H946 H 0.12967 0.3487 0.78942 0.0
H947 H 0.10022 0.33808 0.76269 0.0
H948 H 0.05257 0.36306 0.74843 0.0
H949 H 0.07637 0.35228 0.73868 0.0
H950 H 0.13321 0.43435 0.88222 0.0
H951 H 0.15409 0.41962 0.87746 0.0
H952 H 0.09079 0.42268 0.88307 0.0
H953 H 0.06529 0.41781 0.85218 0.0
C954 C 0.70344 0.78428 0.79351 0.0
C955 C 0.69221 0.79702 0.77249 0.0
C956 C 0.66328 0.75453 0.74086 0.0
C957 C 0.67761 0.74295 0.75835 0.0
N958 N 0.71246 0.74695 0.80035 0.0
N959 N 0.66281 0.79557 0.72516 0.0
C960 C 0.6977 0.75768 0.78488 0.0
C961 C 0.67223 0.78239 0.7461 0.0
N962 N 0.71948 0.79775 0.82181 0.0
N963 N 0.64084 0.73866 0.71963 0.0
H964 H 0.66896 0.81595 0.72866 0.0
H965 H 0.65054 0.78696 0.70301 0.0
H966 H 0.63354 0.71805 0.71583 0.0
H967 H 0.62789 0.74515 0.70839 0.0
H968 H 0.72608 0.78882 0.84037 0.0
H969 H 0.72426 0.81741 0.82818 0.0
H970 H 0.72963 0.75788 0.8169 0.0
H971 H 0.70865 0.72745 0.79509 0.0
C972 C 0.30418 0.91192 0.83988 0.0
C973 C 0.28028 0.90671 0.81957 0.0
C974 C 0.30961 0.9471 0.78516 0.0
C975 C 0.33138 0.95531 0.81017 0.0
N976 N 0.35132 0.94528 0.85969 0.0
N977 N 0.25943 0.92132 0.77513 0.0
C978 C 0.32942 0.93735 0.83674 0.0
C979 C 0.28286 0.92442 0.79216 0.0
N980 N 0.30247 0.89265 0.86229 0.0
N981 N 0.31407 0.96165 0.75553 0.0
H982 H 0.23914 0.90612 0.78092 0.0
H983 H 0.25978 0.93543 0.75776 0.0
H984 H 0.33339 0.97863 0.74985 0.0
H985 H 0.29961 0.95516 0.73503 0.0
H986 H 0.31966 0.89425 0.87612 0.0
H987 H 0.28409 0.87391 0.86483 0.0
H988 H 0.35026 0.93473 0.8821 0.0
H989 H 0.37053 0.96317 0.85655 0.0
C990 C 0.59293 0.93363 0.28103 0.0
C991 C 0.60209 0.92779 0.31233 0.0
C992 C 0.62939 0.97581 0.32723 0.0
C993 C 0.62194 0.98195 0.29449 0.0
N994 N 0.58812 0.96694 0.24735 0.0
N995 N 0.61913 0.94106 0.37014 0.0
C996 C 0.60071 0.96085 0.27378 0.0
C997 C 0.61654 0.94831 0.33734 0.0
N998 N 0.57861 0.91346 0.25732 0.0
N999 N 0.65033 0.99555 0.34721 0.0
H1000 H 0.60965 0.92071 0.37714 0.0
H1001 H 0.62782 0.95477 0.39064 0.0
H1002 H 0.66128 0.01593 0.34062 0.0
H1003 H 0.65846 0.99141 0.36936 0.0
H1004 H 0.57429 0.91696 0.23217 0.0
H1005 H 0.57221 0.89326 0.26261 0.0
H1006 H 0.57112 0.95225 0.23299 0.0
H1007 H 0.59278 0.98674 0.24235 0.0
C1008 C 0.08902 0.79559 0.30914 0.0
C1009 C 0.11655 0.80963 0.29562 0.0
C1010 C 0.10781 0.76859 0.26433 0.0
C1011 C 0.07908 0.75563 0.27423 0.0
N1012 N 0.04127 0.75827 0.30264 0.0
N1013 N 0.15209 0.81095 0.25853 0.0
C1014 C 0.06942 0.76936 0.29614 0.0
C1015 C 0.12604 0.79643 0.27292 0.0
N1016 N 0.08176 0.80741 0.33472 0.0
N1017 N 0.1177 0.75406 0.24725 0.0
H1018 H 0.16577 0.83132 0.26448 0.0
H1019 H 0.15936 0.80349 0.239 0.0
H1020 H 0.10487 0.73358 0.2411 0.0
H1021 H 0.13892 0.76151 0.24193 0.0
H1022 H 0.06309 0.7972 0.34852 0.0
H1023 H 0.09563 0.82682 0.34421 0.0
H1024 H 0.03272 0.76878 0.31487 0.0
H1025 H 0.02593 0.73934 0.29345 0.0
C1026 C 0.30482 0.42288 0.37427 0.0
C1027 C 0.28487 0.41935 0.34819 0.0
C1028 C 0.31234 0.41018 0.30571 0.0
C1029 C 0.33369 0.41668 0.33117 0.0
N1030 N 0.35302 0.43522 0.38762 0.0
N1031 N 0.27092 0.41269 0.28806 0.0
C1032 C 0.33068 0.42469 0.36489 0.0
C1033 C 0.28886 0.41367 0.31357 0.0
N1034 N 0.29871 0.42375 0.40827 0.0
N1035 N 0.31413 0.40003 0.27443 0.0
H1036 H 0.25337 0.41475 0.29298 0.0
H1037 H 0.27443 0.41164 0.26185 0.0
H1038 H 0.33123 0.39771 0.26778 0.0
H1039 H 0.29786 0.3922 0.2561 0.0
H1040 H 0.31124 0.42359 0.42862 0.0
H1041 H 0.27958 0.42167 0.41624 0.0
H1042 H 0.3529 0.44398 0.41122 0.0
H1043 H 0.37278 0.43792 0.38145 0.0
C1044 C 0.25107 0.34511 0.88698 0.0
C1045 C 0.24467 0.35785 0.91415 0.0
C1046 C 0.27997 0.35537 0.95171 0.0
C1047 C 0.28711 0.34355 0.92411 0.0
N1048 N 0.27325 0.3191 0.87013 0.0
N1049 N 0.24614 0.36678 0.97513 0.0
C1050 C 0.27041 0.33564 0.89334 0.0
C1051 C 0.25682 0.36007 0.94749 0.0
N1052 N 0.24035 0.34373 0.85452 0.0
N1053 N 0.29639 0.36392 0.98096 0.0
H1054 H 0.22896 0.36992 0.97272 0.0
H1055 H 0.25229 0.36646 1.00061 0.0
H1056 H 0.31327 0.36066 0.98535 0.0
H1057 H 0.29437 0.37576 0.99999 0.0
H1058 H 0.2471 0.33784 0.83281 0.0
H1059 H 0.22594 0.35009 0.84879 0.0
H1060 H 0.2601 0.31065 0.84859 0.0
H1061 H 0.28696 0.31161 0.8745 0.0
C1062 C 0.73648 0.97108 0.9181 0.0
C1063 C 0.75114 0.97781 0.88654 0.0
C1064 C 0.76968 0.02595 0.89889 0.0
C1065 C 0.75125 0.01887 0.92753 0.0
N1066 N 0.71291 0.98369 0.9603 0.0
N1067 N 0.77971 0.01113 0.84469 0.0
C1068 C 0.73368 0.99116 0.93634 0.0
C1069 C 0.76739 0.00516 0.87639 0.0
N1070 N 0.72545 0.94544 0.9307 0.0
N1071 N 0.7899 0.05235 0.89381 0.0
H1072 H 0.77844 0.99623 0.82787 0.0
H1073 H 0.78932 0.03049 0.83414 0.0
H1074 H 0.79292 0.06799 0.9105 0.0
H1075 H 0.80546 0.05835 0.87515 0.0
H1076 H 0.71682 0.93996 0.95526 0.0
H1077 H 0.72777 0.9305 0.91802 0.0
H1078 H 0.69785 0.96355 0.96492 0.0
H1079 H 0.70864 0.99738 0.97291 0.0
C1080 C 0.12432 0.79328 0.87214 0.0
C1081 C 0.13958 0.80322 0.90355 0.0
C1082 C 0.09655 0.77147 0.93468 0.0
C1083 C 0.08053 0.76743 0.90379 0.0
N1084 N 0.07991 0.78012 0.84414 0.0
N1085 N 0.14108 0.79867 0.96533 0.0
C1086 C 0.09464 0.78 0.8728 0.0
C1087 C 0.12589 0.79134 0.93513 0.0
N1088 N 0.13781 0.79526 0.84191 0.0
N1089 N 0.08428 0.75553 0.96282 0.0
H1090 H 0.16307 0.81015 0.9658 0.0
H1091 H 0.13189 0.79371 0.98963 0.0
H1092 H 0.06322 0.74019 0.96311 0.0
H1093 H 0.09553 0.75583 0.98484 0.0
H1094 H 0.12696 0.78701 0.81872 0.0
H1095 H 0.1591 0.80091 0.84125 0.0
H1096 H 0.08988 0.79089 0.82192 0.0
H1097 H 0.05814 0.77237 0.84405 0.0
C1098 C 0.33053 0.09826 0.73462 0.0
C1099 C 0.33639 0.12144 0.75434 0.0
C1100 C 0.3663 0.11306 0.79375 0.0
C1101 C 0.35757 0.08799 0.77667 0.0
N1102 N 0.32916 0.05509 0.73287 0.0
N1103 N 0.35673 0.14958 0.80466 0.0
C1104 C 0.33926 0.08019 0.74739 0.0
C1105 C 0.35355 0.12857 0.78441 0.0
N1106 N 0.31707 0.09395 0.70338 0.0
N1107 N 0.38738 0.12237 0.81818 0.0
H1108 H 0.3474 0.16118 0.7985 0.0
H1109 H 0.36656 0.15408 0.82888 0.0
H1110 H 0.3977 0.11182 0.82509 0.0
H1111 H 0.3965 0.14166 0.82915 0.0
H1112 H 0.31454 0.07892 0.686 0.0
H1113 H 0.31046 0.10698 0.69361 0.0
H1114 H 0.3134 0.04716 0.7139 0.0
H1115 H 0.33506 0.04127 0.74151 0.0
C1116 C 0.91455 0.29951 0.68125 0.0
C1117 C 0.89264 0.28093 0.70266 0.0
C1118 C 0.90793 0.31635 0.74691 0.0
C1119 C 0.93424 0.33154 0.72994 0.0
N1120 N 0.96223 0.33746 0.67907 0.0
N1121 N 0.86648 0.2721 0.75504 0.0
C1122 C 0.93728 0.32355 0.6961 0.0
C1123 C 0.88839 0.28972 0.73501 0.0
N1124 N 0.91355 0.29392 0.64685 0.0
N1125 N 0.90178 0.32748 0.77438 0.0
H1126 H 0.85126 0.25296 0.74602 0.0
H1127 H 0.86412 0.27607 0.78071 0.0
H1128 H 0.91536 0.34734 0.7827 0.0
H1129 H 0.8822 0.31821 0.78631 0.0
H1130 H 0.92791 0.30739 0.62913 0.0
H1131 H 0.89614 0.27702 0.63586 0.0
H1132 H 0.96634 0.33052 0.65615 0.0
H1133 H 0.97952 0.35499 0.68875 0.0
C1134 C 0.77269 0.66077 0.69016 0.0
C1135 C 0.79493 0.67979 0.71167 0.0
C1136 C 0.76121 0.67585 0.75563 0.0
C1137 C 0.73913 0.6603 0.73186 0.0
N1138 N 0.7223 0.62904 0.68426 0.0
N1139 N 0.81132 0.69666 0.76912 0.0
C1140 C 0.74451 0.64938 0.70195 0.0
C1141 C 0.78938 0.68407 0.74612 0.0
N1142 N 0.77819 0.6554 0.65767 0.0
N1143 N 0.75545 0.68449 0.78576 0.0
H1144 H 0.83199 0.70246 0.76223 0.0
H1145 H 0.80881 0.699 0.79529 0.0
H1146 H 0.73486 0.6778 0.79371 0.0
H1147 H 0.77091 0.69864 0.80234 0.0
H1148 H 0.76258 0.64434 0.63926 0.0
H1149 H 0.7986 0.66281 0.64863 0.0
H1150 H 0.72454 0.61875 0.66339 0.0
H1151 H 0.70161 0.62095 0.69288 0.0
C1152 C 0.79205 0.76969 0.14679 0.0
C1153 C 0.7979 0.75599 0.1203 0.0
C1154 C 0.7647 0.76055 0.08113 0.0
C1155 C 0.75763 0.77282 0.10825 0.0
N1156 N 0.77145 0.79745 0.16202 0.0
N1157 N 0.79751 0.74709 0.05952 0.0
C1158 C 0.77383 0.78031 0.13939 0.0
C1159 C 0.78686 0.75454 0.08647 0.0
N1160 N 0.80205 0.77088 0.17962 0.0
N1161 N 0.74902 0.75275 0.05127 0.0
H1162 H 0.81394 0.74295 0.06289 0.0
H1163 H 0.79219 0.74777 0.03376 0.0
H1164 H 0.73302 0.75712 0.04601 0.0
H1165 H 0.75083 0.74062 0.0325 0.0
H1166 H 0.79535 0.77731 0.20086 0.0
H1167 H 0.81596 0.76409 0.18609 0.0
H1168 H 0.78433 0.80563 0.18383 0.0
H1169 H 0.75847 0.80565 0.15685 0.0
C1170 C 0.36562 0.12381 0.10986 0.0
C1171 C 0.38046 0.13459 0.1413 0.0
C1172 C 0.37449 0.0903 0.15656 0.0
C1173 C 0.35849 0.07918 0.12567 0.0
N1174 N 0.33212 0.08362 0.07823 0.0
N1175 N 0.39178 0.12669 0.19883 0.0
C1176 C 0.35193 0.09544 0.10398 0.0
C1177 C 0.38265 0.11737 0.16602 0.0
N1178 N 0.36566 0.14084 0.08504 0.0
N1179 N 0.38332 0.07579 0.17585 0.0
H1180 H 0.39696 0.14614 0.2068 0.0
H1181 H 0.39131 0.1143 0.2189 0.0
H1182 H 0.37837 0.05608 0.1697 0.0
H1183 H 0.39761 0.08417 0.1964 0.0
H1184 H 0.35759 0.13441 0.06015 0.0
H1185 H 0.37608 0.16182 0.08835 0.0
H1186 H 0.32471 0.09415 0.06356 0.0
H1187 H 0.32089 0.06271 0.07406 0.0
C1188 C 0.972 0.29022 0.16373 0.0
C1189 C 0.94465 0.2866 0.15858 0.0
C1190 C 0.96475 0.3355 0.1514 0.0
C1191 C 0.99181 0.33952 0.16001 0.0
N1192 N 0.02105 0.32123 0.17895 0.0
N1193 N 0.91436 0.30614 0.1551 0.0
C1194 C 0.99549 0.317 0.16727 0.0
C1195 C 0.94084 0.30935 0.1546 0.0
N1196 N 0.97551 0.26811 0.16473 0.0
N1197 N 0.96196 0.35647 0.13877 0.0
H1198 H 0.89618 0.28738 0.15798 0.0
H1199 H 0.9106 0.32234 0.15618 0.0
H1200 H 0.97908 0.37586 0.135 0.0
H1201 H 0.94308 0.35396 0.12863 0.0
H1202 H 0.99517 0.26939 0.16474 0.0
H1203 H 0.95859 0.24831 0.1631 0.0
H1204 H 0.02432 0.30582 0.18809 0.0
H1205 H 0.03862 0.3405 0.1821 0.0
C1206 C 0.27038 0.25935 0.63876 0.0
C1207 C 0.27422 0.25475 0.67385 0.0
C1208 C 0.28556 0.3008 0.68904 0.0
C1209 C 0.28105 0.30522 0.65395 0.0
N1210 N 0.26002 0.28577 0.59851 0.0
N1211 N 0.27719 0.26757 0.73337 0.0
C1212 C 0.27036 0.28345 0.62983 0.0
C1213 C 0.27886 0.27436 0.69933 0.0
N1214 N 0.26882 0.2418 0.61364 0.0
N1215 N 0.29815 0.32194 0.71195 0.0
H1216 H 0.27183 0.24804 0.74107 0.0
H1217 H 0.27813 0.28022 0.75344 0.0
H1218 H 0.30454 0.34191 0.70552 0.0
H1219 H 0.30457 0.32004 0.73672 0.0
H1220 H 0.26914 0.24586 0.58734 0.0
H1221 H 0.26977 0.22435 0.61886 0.0
H1222 H 0.24979 0.26964 0.58116 0.0
H1223 H 0.25887 0.30291 0.59164 0.0
C1224 C 0.77582 0.09814 0.64929 0.0
C1225 C 0.78597 0.12448 0.63513 0.0
C1226 C 0.74716 0.10416 0.5927 0.0
C1227 C 0.74152 0.0777 0.60173 0.0
N1228 N 0.75478 0.05038 0.63637 0.0
N1229 N 0.7833 0.15102 0.58769 0.0
C1230 C 0.75685 0.07483 0.62961 0.0
C1231 C 0.7721 0.12721 0.60542 0.0
N1232 N 0.7837 0.09521 0.68189 0.0
N1233 N 0.72839 0.10746 0.57271 0.0
H1234 H 0.80248 0.16806 0.59408 0.0
H1235 H 0.77499 0.15277 0.56409 0.0
H1236 H 0.70893 0.09126 0.56485 0.0
H1237 H 0.73061 0.12642 0.56781 0.0
H1238 H 0.77492 0.07655 0.69429 0.0
H1239 H 0.7963 0.11164 0.69799 0.0
H1240 H 0.76771 0.04811 0.65442 0.0
H1241 H 0.74252 0.03303 0.62156 0.0
C1242 C 0.97291 0.74402 0.66888 0.0
C1243 C 0.95235 0.73681 0.64243 0.0
C1244 C 0.98425 0.73348 0.60112 0.0
C1245 C 0.00591 0.74407 0.62682 0.0
N1246 N 0.02249 0.7654 0.68284 0.0
N1247 N 0.93883 0.72723 0.58235 0.0
C1248 C 1.00069 0.75102 0.66007 0.0
C1249 C 0.95803 0.73212 0.60819 0.0
N1250 N 0.96569 0.74352 0.70267 0.0
N1251 N 0.98831 0.72389 0.57063 0.0
H1252 H 0.91918 0.72537 0.58691 0.0
H1253 H 0.94306 0.72668 0.55628 0.0
H1254 H 0.00723 0.72464 0.56463 0.0
H1255 H 0.9723 0.71339 0.55243 0.0
H1256 H 0.97915 0.74579 0.72326 0.0
H1257 H 0.94521 0.73778 0.71009 0.0
H1258 H 0.02007 0.77325 0.70607 0.0
H1259 H 0.04351 0.77207 0.67694 0.0
C1260 C 0.89927 0.68208 0.19809 0.0
C1261 C 0.89714 0.7031 0.215 0.0
C1262 C 0.9389 0.71331 0.25067 0.0
C1263 C 0.93991 0.69127 0.23494 0.0
N1264 N 0.91724 0.65092 0.20004 0.0
N1265 N 0.91206 0.73619 0.26079 0.0
C1266 C 0.91888 0.67455 0.21054 0.0
C1267 C 0.91614 0.71801 0.24235 0.0
N1268 N 0.88291 0.66965 0.1695 0.0
N1269 N 0.96011 0.73014 0.27278 0.0
H1270 H 0.8962 0.74062 0.25453 0.0
H1271 H 0.9232 0.74565 0.28335 0.0
H1272 H 0.97615 0.72639 0.28053 0.0
H1273 H 0.96253 0.74833 0.28215 0.0
H1274 H 0.88565 0.65629 0.15384 0.0
H1275 H 0.8682 0.67447 0.15953 0.0
H1276 H 0.90099 0.63647 0.18455 0.0
H1277 H 0.93048 0.64441 0.21033 0.0
C1278 C 0.44947 0.34617 0.23627 0.0
C1279 C 0.42887 0.3185 0.23899 0.0
C1280 C 0.39717 0.33048 0.26807 0.0
C1281 C 0.41895 0.35797 0.26918 0.0
N1282 N 0.46771 0.39161 0.259 0.0
N1283 N 0.3859 0.28382 0.26451 0.0
C1284 C 0.44564 0.36586 0.25432 0.0
C1285 C 0.40348 0.31049 0.25693 0.0
N1286 N 0.47247 0.35352 0.21611 0.0
N1287 N 0.3702 0.32354 0.2766 0.0
H1288 H 0.39046 0.26866 0.25813 0.0
H1289 H 0.36842 0.27718 0.28039 0.0
H1290 H 0.36446 0.33782 0.28353 0.0
H1291 H 0.35305 0.30408 0.27308 0.0
H1292 H 0.48692 0.37355 0.21009 0.0
H1293 H 0.47585 0.33927 0.2033 0.0
H1294 H 0.48828 0.39759 0.25176 0.0
H1295 H 0.46608 0.4065 0.27273 0.0
C1296 C 0.79417 0.15368 0.2558 0.0
C1297 C 0.79765 0.16092 0.22035 0.0
C1298 C 0.75013 0.12422 0.2072 0.0
C1299 C 0.74687 0.1156 0.24222 0.0
N1300 N 0.76759 0.11916 0.29861 0.0
N1301 N 0.7827 0.14812 0.16132 0.0
C1302 C 0.76951 0.1294 0.26623 0.0
C1303 C 0.7769 0.14432 0.19577 0.0
N1304 N 0.81369 0.17058 0.27958 0.0
N1305 N 0.72728 0.11494 0.18535 0.0
H1306 H 0.80245 0.16254 0.1523 0.0
H1307 H 0.76911 0.13507 0.14222 0.0
H1308 H 0.70661 0.10191 0.19294 0.0
H1309 H 0.7284 0.12281 0.16073 0.0
H1310 H 0.81079 0.16809 0.30617 0.0
H1311 H 0.83225 0.18799 0.27256 0.0
H1312 H 0.78436 0.12691 0.31625 0.0
H1313 H 0.74983 0.10148 0.30681 0.0
C1314 C 0.00695 0.47361 0.90118 0.0
C1315 C 0.97908 0.46811 0.90802 0.0
C1316 C 0.96158 0.4384 0.85671 0.0
C1317 C 0.9886 0.44108 0.85281 0.0
N1318 N 0.0371 0.46046 0.87107 0.0
N1319 N 0.93007 0.44658 0.89227 0.0
C1320 C 0.01145 0.45887 0.87461 0.0
C1321 C 0.9565 0.45104 0.88546 0.0
N1322 N 0.02911 0.4928 0.92022 0.0
N1323 N 0.94094 0.42385 0.83267 0.0
H1324 H 0.92628 0.45692 0.91185 0.0
H1325 H 0.91184 0.43224 0.87949 0.0
H1326 H 0.94431 0.4146 0.81139 0.0
H1327 H 0.92125 0.42247 0.83218 0.0
H1328 H 0.05016 0.49991 0.91433 0.0
H1329 H 0.02671 0.50332 0.94058 0.0
H1330 H 0.05367 0.47006 0.88878 0.0
H1331 H 0.04146 0.45088 0.85106 0.0
C1332 C 0.58894 0.57994 0.8821 0.0
C1333 C 0.57962 0.59414 0.9032 0.0
C1334 C 0.61549 0.63734 0.87844 0.0
C1335 C 0.62301 0.6229 0.85485 0.0
N1336 N 0.61673 0.58055 0.8331 0.0
N1337 N 0.58141 0.63558 0.91972 0.0
C1338 C 0.60972 0.59417 0.85645 0.0
C1339 C 0.59244 0.6227 0.90119 0.0
N1340 N 0.57795 0.55279 0.88718 0.0
N1341 N 0.63019 0.66504 0.87888 0.0
H1342 H 0.56469 0.6254 0.9367 0.0
H1343 H 0.58746 0.65592 0.91681 0.0
H1344 H 0.64601 0.67656 0.86133 0.0
H1345 H 0.62801 0.67673 0.89797 0.0
H1346 H 0.58516 0.54116 0.875 0.0
H1347 H 0.56264 0.54215 0.90573 0.0
H1348 H 0.6059 0.55958 0.83023 0.0
H1349 H 0.6329 0.59037 0.8153 0.0
C1350 C 0.48232 0.10237 0.92599 0.0
C1351 C 0.49957 0.09043 0.92682 0.0
C1352 C 0.47294 0.06033 0.87883 0.0
C1353 C 0.45562 0.07236 0.87786 0.0
N1354 N 0.44914 0.10998 0.89292 0.0
N1355 N 0.51693 0.06414 0.899 0.0
C1356 C 0.4621 0.09515 0.89898 0.0
C1357 C 0.49678 0.07151 0.90128 0.0
N1358 N 0.48406 0.11926 0.95213 0.0
N1359 N 0.46562 0.0372 0.86043 0.0
H1360 H 0.53462 0.07233 0.91534 0.0
H1361 H 0.51754 0.05217 0.87904 0.0
H1362 H 0.4479 0.02777 0.8443 0.0
H1363 H 0.47585 0.02604 0.8633 0.0
H1364 H 0.46977 0.12615 0.95498 0.0
H1365 H 0.49856 0.12481 0.97249 0.0
H1366 H 0.45482 0.12816 0.90562 0.0
H1367 H 0.43471 0.10555 0.87266 0.0
C1368 C 0.50039 0.08607 0.67261 0.0
C1369 C 0.49183 0.0636 0.65024 0.0
C1370 C 0.44499 0.0411 0.67621 0.0
C1371 C 0.45449 0.06231 0.70109 0.0
N1372 N 0.49351 0.10209 0.72752 0.0
N1373 N 0.45833 0.01739 0.6353 0.0
C1374 C 0.48284 0.08409 0.70055 0.0
C1375 C 0.46476 0.0404 0.65335 0.0
N1376 N 0.52493 0.10958 0.66649 0.0
N1377 N 0.41696 0.02226 0.67338 0.0
H1378 H 0.47275 0.01603 0.61918 0.0
H1379 H 0.43989 0.99897 0.63901 0.0
H1380 H 0.40159 0.0226 0.68876 0.0
H1381 H 0.4086 0.00796 0.65348 0.0
H1382 H 0.5309 0.12758 0.67983 0.0
H1383 H 0.53799 0.11172 0.64585 0.0
H1384 H 0.51478 0.11669 0.7299 0.0
H1385 H 0.48187 0.10071 0.74935 0.0
C1386 C 0.05313 0.4735 0.60762 0.0
C1387 C 0.05585 0.49919 0.61444 0.0
C1388 C 0.03737 0.48408 0.673 0.0
C1389 C 0.03587 0.45877 0.66676 0.0
N1390 N 0.04865 0.43199 0.63104 0.0
N1391 N 0.05654 0.53101 0.65562 0.0
C1392 C 0.04576 0.45433 0.63492 0.0
C1393 C 0.04981 0.50507 0.64784 0.0
N1394 N 0.0561 0.46684 0.57463 0.0
N1395 N 0.02554 0.48766 0.70202 0.0
H1396 H 0.06599 0.54671 0.6378 0.0
H1397 H 0.05531 0.53744 0.68041 0.0
H1398 H 0.01596 0.47285 0.72088 0.0
H1399 H 0.02315 0.50447 0.70609 0.0
H1400 H 0.05246 0.44777 0.56733 0.0
H1401 H 0.05981 0.47965 0.55371 0.0
H1402 H 0.0583 0.42886 0.60987 0.0
H1403 H 0.04395 0.41785 0.65064 0.0
C1404 C 0.57179 0.60562 0.61382 0.0
C1405 C 0.56716 0.57875 0.61201 0.0
C1406 C 0.60406 0.59008 0.65599 0.0
C1407 C 0.60709 0.61622 0.65953 0.0
N1408 N 0.59012 0.64708 0.64735 0.0
N1409 N 0.57575 0.54403 0.63441 0.0
C1410 C 0.58995 0.6235 0.63991 0.0
C1411 C 0.58229 0.57053 0.63414 0.0
N1412 N 0.55894 0.61421 0.59063 0.0
N1413 N 0.62281 0.58436 0.67213 0.0
H1414 H 0.56099 0.52948 0.61745 0.0
H1415 H 0.58363 0.53609 0.65277 0.0
H1416 H 0.63905 0.5981 0.68832 0.0
H1417 H 0.62368 0.56679 0.66746 0.0
H1418 H 0.56435 0.63442 0.58799 0.0
H1419 H 0.54434 0.60169 0.57208 0.0
H1420 H 0.57585 0.65216 0.63668 0.0
H1421 H 0.60273 0.66043 0.66686 0.0
C1422 C 0.00808 0.58655 0.14603 0.0
C1423 C 0.98211 0.57656 0.12767 0.0
C1424 C 0.97111 0.60599 0.16235 0.0
C1425 C 0.99881 0.61897 0.17668 0.0
N1426 N 0.04451 0.62272 0.18129 0.0
N1427 N 0.94081 0.57983 0.11456 0.0
C1428 C 0.01756 0.60949 0.16839 0.0
C1429 C 0.96395 0.58689 0.13507 0.0
N1430 N 0.02318 0.57353 0.14269 0.0
N1431 N 0.95158 0.6119 0.17494 0.0
H1432 H 0.93557 0.56685 0.09334 0.0
H1433 H 0.92841 0.58891 0.11645 0.0
H1434 H 0.9562 0.62556 0.19521 0.0
H1435 H 0.93032 0.6013 0.16785 0.0
H1436 H 0.04115 0.57832 0.15735 0.0
H1437 H 0.01608 0.55614 0.12749 0.0
H1438 H 0.06018 0.61872 0.17327 0.0
H1439 H 0.05156 0.63883 0.19879 0.0
C1440 C 0.47663 0.5242 0.17644 0.0
C1441 C 0.46436 0.51625 0.14306 0.0
C1442 C 0.4272 0.47329 0.16648 0.0
C1443 C 0.43739 0.48258 0.20062 0.0
N1444 N 0.46979 0.51895 0.23838 0.0
N1445 N 0.42528 0.4857 0.10701 0.0
C1446 C 0.46176 0.50854 0.20573 0.0
C1447 C 0.43892 0.49142 0.13826 0.0
N1448 N 0.50262 0.54677 0.17993 0.0
N1449 N 0.40713 0.44684 0.16073 0.0
H1450 H 0.43323 0.49872 0.08597 0.0
H1451 H 0.40508 0.46928 0.10289 0.0
H1452 H 0.39883 0.43257 0.18043 0.0
H1453 H 0.40094 0.43841 0.13608 0.0
H1454 H 0.51418 0.55239 0.20299 0.0
H1455 H 0.51363 0.55859 0.1588 0.0
H1456 H 0.48561 0.53879 0.24349 0.0
H1457 H 0.45899 0.50866 0.26044 0.0
C1458 C 0.61725 0.11239 0.15517 0.0
C1459 C 0.58772 0.10009 0.15875 0.0
C1460 C 0.58929 0.07716 0.21133 0.0
C1461 C 0.61878 0.0886 0.20683 0.0
N1462 N 0.66199 0.12285 0.18145 0.0
N1463 N 0.54614 0.07616 0.1927 0.0
C1464 C 0.63317 0.10821 0.18099 0.0
C1465 C 0.574 0.08447 0.18805 0.0
N1466 N 0.62967 0.12668 0.12597 0.0
N1467 N 0.57577 0.05812 0.23627 0.0
H1468 H 0.53478 0.08119 0.17534 0.0
H1469 H 0.53498 0.0663 0.21471 0.0
H1470 H 0.58638 0.05247 0.25393 0.0
H1471 H 0.55394 0.04691 0.23855 0.0
H1472 H 0.65055 0.13332 0.11956 0.0
H1473 H 0.61846 0.13061 0.10708 0.0
H1474 H 0.67373 0.13894 0.16489 0.0
H1475 H 0.6741 0.12056 0.20073 0.0
C1476 C 0.63558 0.09093 0.4392 0.0
C1477 C 0.61544 0.09955 0.44021 0.0
C1478 C 0.62347 0.11202 0.37918 0.0
C1479 C 0.64537 0.10543 0.37878 0.0
N1480 N 0.67608 0.09382 0.41038 0.0
N1481 N 0.59421 0.12336 0.41413 0.0
C1482 C 0.65259 0.09645 0.40945 0.0
C1483 C 0.61071 0.11176 0.41108 0.0
N1484 N 0.63755 0.07646 0.46613 0.0
N1485 N 0.61338 0.11665 0.34901 0.0
H1486 H 0.58466 0.12343 0.43731 0.0
H1487 H 0.59219 0.135 0.39477 0.0
H1488 H 0.621 0.11585 0.32474 0.0
H1489 H 0.59548 0.11864 0.34771 0.0
H1490 H 0.64968 0.06704 0.46543 0.0
H1491 H 0.62506 0.07185 0.48805 0.0
H1492 H 0.6838 0.0897 0.4329 0.0
H1493 H 0.68945 0.0984 0.38931 0.0
C1494 C 0.01494 0.58905 0.37751 0.0
C1495 C 0.03957 0.60264 0.39857 0.0
C1496 C 0.05078 0.64589 0.37134 0.0
C1497 C 0.02784 0.63193 0.34769 0.0
N1498 N 0.9892 0.58981 0.32626 0.0
N1499 N 0.08225 0.64334 0.41413 0.0
C1500 C 0.00996 0.6034 0.35051 0.0
C1501 C 0.0578 0.63093 0.39511 0.0
N1502 N 0.9964 0.56229 0.38336 0.0
N1503 N 0.06535 0.67359 0.37165 0.0
H1504 H 0.08755 0.63297 0.43213 0.0
H1505 H 0.09811 0.6633 0.41052 0.0
H1506 H 0.06038 0.68509 0.35509 0.0
H1507 H 0.08058 0.68521 0.39019 0.0
H1508 H 0.97654 0.55161 0.37173 0.0
H1509 H 1.00029 0.55108 0.40167 0.0
H1510 H 0.97748 0.56879 0.32432 0.0
H1511 H 0.98472 0.59957 0.3065 0.0
C1512 C 0.50104 0.47906 0.43885 0.0
C1513 C 0.501 0.50364 0.44392 0.0
C1514 C 0.46687 0.49225 0.39652 0.0
C1515 C 0.4675 0.46801 0.39047 0.0
N1516 N 0.48952 0.44102 0.40056 0.0
N1517 N 0.49094 0.53728 0.42113 0.0
C1518 C 0.48597 0.46222 0.41005 0.0
C1519 C 0.48616 0.51138 0.42064 0.0
N1520 N 0.51478 0.47149 0.46204 0.0
N1521 N 0.44673 0.49635 0.38104 0.0
H1522 H 0.50575 0.55196 0.43771 0.0
H1523 H 0.48279 0.54488 0.40263 0.0
H1524 H 0.43149 0.48262 0.36386 0.0
H1525 H 0.44342 0.51225 0.3878 0.0
H1526 H 0.51304 0.45244 0.46203 0.0
H1527 H 0.52671 0.48385 0.48268 0.0
H1528 H 0.50452 0.43715 0.41178 0.0
H1529 H 0.47917 0.42868 0.3792 0.0
C1530 C 0.64468 0.82745 0.22259 0.0
C1531 C 0.66639 0.85478 0.22767 0.0
C1532 C 0.69273 0.84934 0.17976 0.0
C1533 C 0.66973 0.82279 0.17295 0.0
N1534 N 0.62116 0.78946 0.18296 0.0
N1535 N 0.7095 0.89305 0.20815 0.0
C1536 C 0.6449 0.81282 0.19289 0.0
C1537 C 0.69 0.86613 0.20535 0.0
N1538 N 0.62446 0.81485 0.24716 0.0
N1539 N 0.71764 0.85807 0.16301 0.0
H1540 H 0.70837 0.90556 0.227 0.0
H1541 H 0.72556 0.9033 0.19041 0.0
H1542 H 0.72032 0.84661 0.14399 0.0
H1543 H 0.73614 0.87584 0.16954 0.0
H1544 H 0.60987 0.79417 0.24658 0.0
H1545 H 0.62415 0.82429 0.27012 0.0
H1546 H 0.6016 0.78255 0.19442 0.0
H1547 H 0.62031 0.77857 0.16083 0.0
C1548 C 0.28538 0.95328 0.28558 0.0
C1549 C 0.26017 0.92832 0.27998 0.0
C1550 C 0.27517 0.92637 0.22084 0.0
C1551 C 0.29819 0.95323 0.22474 0.0
N1552 N 0.32389 0.99347 0.26006 0.0
N1553 N 0.23006 0.89111 0.24231 0.0
C1554 C 0.30324 0.96689 0.25711 0.0
C1555 C 0.25492 0.91474 0.24767 0.0
N1556 N 0.29208 0.96402 0.3182 0.0
N1557 N 0.27312 0.91172 0.19186 0.0
H1558 H 0.21557 0.88133 0.26198 0.0
H1559 H 0.22318 0.88191 0.21817 0.0
H1560 H 0.28776 0.91944 0.17198 0.0
H1561 H 0.25846 0.89121 0.18884 0.0
H1562 H 0.31134 0.9809 0.32489 0.0
H1563 H 0.27925 0.95446 0.33934 0.0
H1564 H 0.32653 0.00543 0.28169 0.0
H1565 H 0.33704 1.0044 0.23977 0.0
C1566 C 0.15887 0.43031 0.25473 0.0
C1567 C 0.17022 0.45386 0.27561 0.0
C1568 C 0.13766 0.46636 0.24916 0.0
C1569 C 0.12354 0.44068 0.23232 0.0
N1570 N 0.11755 0.3959 0.22479 0.0
N1571 N 0.16916 0.49313 0.296 0.0
C1572 C 0.13335 0.42201 0.23646 0.0
C1573 C 0.15938 0.4717 0.27364 0.0
N1574 N 0.17275 0.41604 0.25231 0.0
N1575 N 0.1311 0.4859 0.24091 0.0
H1576 H 0.18531 0.49759 0.3139 0.0
H1577 H 0.15995 0.50523 0.29841 0.0
H1578 H 0.11588 0.48303 0.22236 0.0
H1579 H 0.14257 0.50575 0.25008 0.0
H1580 H 0.16675 0.39995 0.23509 0.0
H1581 H 0.19201 0.42222 0.26485 0.0
H1582 H 0.12259 0.3809 0.23026 0.0
H1583 H 0.09781 0.38838 0.21293 0.0
C1584 C 0.13492 0.42176 0.99447 0.0
C1585 C 0.1473 0.40539 0.99941 0.0
C1586 C 0.11591 0.38239 0.04763 0.0
C1587 C 0.10561 0.40077 0.04508 0.0
N1588 N 0.10783 0.44045 0.01926 0.0
N1589 N 0.1521 0.37181 0.0313 0.0
C1590 C 0.11556 0.42102 0.01915 0.0
C1591 C 0.13844 0.38609 0.02615 0.0
N1592 N 0.14154 0.43775 0.96587 0.0
N1593 N 0.10356 0.361 0.06982 0.0
H1594 H 0.16837 0.37393 0.01533 0.0
H1595 H 0.14877 0.35938 0.05247 0.0
H1596 H 0.08667 0.35749 0.08552 0.0
H1597 H 0.10833 0.34547 0.07066 0.0
H1598 H 0.13098 0.44793 0.95857 0.0
H1599 H 0.15631 0.43915 0.94785 0.0
H1600 H 0.11683 0.45735 1.00334 0.0
H1601 H 0.09402 0.44099 0.03719 0.0
C1602 C 0.68019 0.81933 0.91722 0.0
C1603 C 0.67896 0.84359 0.91378 0.0
C1604 C 0.66836 0.84145 0.9761 0.0
C1605 C 0.67283 0.81898 0.98014 0.0
N1606 N 0.68467 0.78739 0.95462 0.0
N1607 N 0.67385 0.87902 0.94053 0.0
C1608 C 0.67928 0.80824 0.95068 0.0
C1609 C 0.67321 0.85481 0.94334 0.0
N1610 N 0.68113 0.80625 0.88805 0.0
N1611 N 0.65955 0.85015 1.00373 0.0
H1612 H 0.67649 0.8889 0.91703 0.0
H1613 H 0.67338 0.89014 0.9616 0.0
H1614 H 0.65769 0.84228 0.02852 0.0
H1615 H 0.65257 0.86407 1.00183 0.0
H1616 H 0.67931 0.78718 0.88801 0.0
H1617 H 0.68089 0.81333 0.86329 0.0
H1618 H 0.69295 0.78084 0.93522 0.0
H1619 H 0.68257 0.77759 0.97806 0.0
C1620 C 0.23923 0.96248 0.98393 0.0
C1621 C 0.2263 0.9341 0.97951 0.0
C1622 C 0.25368 0.93139 0.02837 0.0
C1623 C 0.26706 0.95995 0.03235 0.0
N1624 N 0.26641 1.00127 0.0215 0.0
N1625 N 0.21486 0.89079 1.00253 0.0
C1626 C 0.25768 0.97501 0.01261 0.0
C1627 C 0.23142 0.91832 1.00361 0.0
N1628 N 0.23529 0.97761 0.95953 0.0
N1629 N 0.26334 0.91702 0.04649 0.0
H1630 H 0.19825 0.88102 0.98477 0.0
H1631 H 0.21577 0.87798 0.02105 0.0
H1632 H 0.27944 0.9258 0.065 0.0
H1633 H 0.25659 0.89669 0.04169 0.0
H1634 H 0.24669 0.9987 0.95918 0.0
H1635 H 0.22201 0.96902 0.9381 0.0
H1636 H 0.25846 0.01263 0.00998 0.0
H1637 H 0.27951 0.01077 0.04287 0.0
C1638 C 0.70945 0.94876 0.43057 0.0
C1639 C 0.68327 0.92639 0.41983 0.0
C1640 C 0.65912 0.93685 0.46594 0.0
C1641 C 0.68505 0.96022 0.47548 0.0
N1642 N 0.73468 0.98977 0.46547 0.0
N1643 N 0.63259 0.90114 0.4237 0.0
C1644 C 0.71014 0.96656 0.45727 0.0
C1645 C 0.65798 0.92095 0.4367 0.0
N1646 N 0.73377 0.95237 0.41609 0.0
N1647 N 0.6354 0.9299 0.48467 0.0
H1648 H 0.63077 0.88962 0.40183 0.0
H1649 H 0.6131 0.89759 0.43233 0.0
H1650 H 0.63466 0.9418 0.50462 0.0
H1651 H 0.61675 0.91145 0.4821 0.0
H1652 H 0.75389 0.96628 0.42512 0.0
H1653 H 0.73381 0.94021 0.39593 0.0
H1654 H 0.75287 0.99754 0.45075 0.0
H1655 H 0.73658 1.00204 0.48653 0.0
C1656 C 0.13249 0.829 0.44646 0.0
C1657 C 0.16061 0.85118 0.44725 0.0
C1658 C 0.16483 0.84064 0.50786 0.0
C1659 C 0.13531 0.82186 0.50863 0.0
N1660 N 0.09018 0.80092 0.47889 0.0
N1661 N 0.20291 0.87995 0.48027 0.0
C1662 C 0.11892 0.81653 0.4779 0.0
C1663 C 0.17676 0.85736 0.47829 0.0
N1664 N 0.11886 0.81947 0.41545 0.0
N1665 N 0.18168 0.84196 0.53498 0.0
H1666 H 0.21244 0.89271 0.45936 0.0
H1667 H 0.2142 0.88718 0.50339 0.0
H1668 H 0.17395 0.82939 0.55646 0.0
H1669 H 0.20363 0.85337 0.53449 0.0
H1670 H 0.09938 0.80179 0.41293 0.0
H1671 H 0.12849 0.82755 0.39192 0.0
H1672 H 0.07708 0.79891 0.45801 0.0
H1673 H 0.07915 0.79208 0.50141 0.0
C1674 C 0.22956 0.41018 0.52239 0.0
C1675 C 0.24945 0.43057 0.50064 0.0
C1676 C 0.28805 0.4306 0.53259 0.0
C1677 C 0.26807 0.40721 0.55059 0.0
N1678 N 0.21979 0.37391 0.5626 0.0
N1679 N 0.29727 0.45829 0.48175 0.0
C1680 C 0.23872 0.39691 0.54588 0.0
C1681 C 0.27865 0.44051 0.50505 0.0
N1682 N 0.20195 0.40366 0.52021 0.0
N1683 N 0.31586 0.44379 0.54249 0.0
H1684 H 0.29107 0.46599 0.46116 0.0
H1685 H 0.31848 0.46371 0.48125 0.0
H1686 H 0.32354 0.43764 0.5633 0.0
H1687 H 0.33077 0.4624 0.53238 0.0
H1688 H 0.18643 0.39044 0.537 0.0
H1689 H 0.19514 0.41346 0.50315 0.0
H1690 H 0.19815 0.36387 0.55769 0.0
H1691 H 0.22591 0.36376 0.57997 0.0
C1692 C 0.24171 0.43979 0.75437 0.0
C1693 C 0.25809 0.44163 0.78388 0.0
C1694 C 0.29137 0.43619 0.74798 0.0
C1695 C 0.27264 0.4301 0.71941 0.0
N1696 N 0.2302 0.42608 0.69423 0.0
N1697 N 0.298 0.44182 0.81019 0.0
C1698 C 0.24813 0.43247 0.72203 0.0
C1699 C 0.28307 0.44033 0.78095 0.0
N1700 N 0.21962 0.44438 0.75775 0.0
N1701 N 0.31718 0.43838 0.74335 0.0
H1702 H 0.29284 0.44606 0.83442 0.0
H1703 H 0.31452 0.43771 0.8108 0.0
H1704 H 0.32397 0.43564 0.71937 0.0
H1705 H 0.33279 0.44509 0.76246 0.0
H1706 H 0.20813 0.44572 0.73702 0.0
H1707 H 0.21397 0.44887 0.78145 0.0
H1708 H 0.21047 0.42454 0.69529 0.0
H1709 H 0.23437 0.4208 0.67009 0.0
C1710 C 0.67989 0.91646 0.69526 0.0
C1711 C 0.6765 0.92202 0.73019 0.0
C1712 C 0.66235 0.95445 0.70883 0.0
C1713 C 0.67079 0.9525 0.67469 0.0
N1714 N 0.69043 0.93284 0.6364 0.0
N1715 N 0.66587 0.94787 0.77041 0.0
C1716 C 0.67988 0.93348 0.66802 0.0
C1717 C 0.66766 0.94115 0.73701 0.0
N1718 N 0.68298 0.8946 0.68809 0.0
N1719 N 0.64875 0.96872 0.71423 0.0
H1720 H 0.66908 0.93838 0.79156 0.0
H1721 H 0.66302 0.96404 0.77715 0.0
H1722 H 0.64401 0.9781 0.69419 0.0
H1723 H 0.63965 0.96891 0.73767 0.0
H1724 H 0.68284 0.88776 0.66308 0.0
H1725 H 0.68265 0.8816 0.70733 0.0
H1726 H 0.70053 0.92184 0.63136 0.0
H1727 H 0.6913 0.945 0.61584 0.0
C1728 C 0.17696 0.84411 0.71904 0.0
C1729 C 0.1607 0.85377 0.73574 0.0
C1730 C 0.12219 0.82878 0.69408 0.0
C1731 C 0.13662 0.81572 0.68134 0.0
N1732 N 0.17747 0.81034 0.68114 0.0
N1733 N 0.11699 0.85379 0.74143 0.0
C1734 C 0.16411 0.82342 0.69342 0.0
C1735 C 0.13322 0.84607 0.72349 0.0
N1736 N 0.20482 0.85512 0.72749 0.0
N1737 N 0.09778 0.82434 0.67826 0.0
H1738 H 0.1243 0.86606 0.76343 0.0
H1739 H 0.09566 0.84636 0.73621 0.0
H1740 H 0.08915 0.8117 0.65671 0.0
H1741 H 0.08754 0.83502 0.68439 0.0
H1742 H 0.21867 0.85079 0.71447 0.0
H1743 H 0.2146 0.8706 0.74571 0.0
H1744 H 0.19613 0.81266 0.69172 0.0
H1745 H 0.16908 0.79611 0.6611 0.0
C1746 C 0.33729 0.16818 0.59831 0.0
C1747 C 0.36282 0.19056 0.61122 0.0
C1748 C 0.38788 0.18713 0.56041 0.0
C1749 C 0.36226 0.16505 0.54751 0.0
N1750 N 0.31164 0.13976 0.54899 0.0
N1751 N 0.41079 0.22511 0.60066 0.0
C1752 C 0.33667 0.15747 0.56477 0.0
C1753 C 0.3876 0.20126 0.59092 0.0
N1754 N 0.31414 0.15562 0.61897 0.0
N1755 N 0.41269 0.19368 0.54464 0.0
H1756 H 0.41111 0.23591 0.62263 0.0
H1757 H 0.42865 0.2354 0.58547 0.0
H1758 H 0.41358 0.18435 0.52185 0.0
H1759 H 0.43244 0.20723 0.55509 0.0
H1760 H 0.29619 0.13739 0.61237 0.0
H1761 H 0.3136 0.16182 0.64414 0.0
H1762 H 0.29207 0.13533 0.55856 0.0
H1763 H 0.31066 0.13172 0.52442 0.0
C1764 C 0.95873 0.2572 0.56896 0.0
C1765 C 0.93071 0.24965 0.57756 0.0
C1766 C 0.93478 0.28848 0.54541 0.0
C1767 C 0.96172 0.29439 0.53357 0.0
N1768 N 0.99791 0.28199 0.53017 0.0
N1769 N 0.88992 0.25461 0.56841 0.0
C1770 C 0.97347 0.27821 0.54446 0.0
C1771 C 0.91813 0.26434 0.56424 0.0
N1772 N 0.97125 0.24438 0.58464 0.0
N1773 N 0.92551 0.30646 0.53993 0.0
H1774 H 0.87689 0.2367 0.58145 0.0
H1775 H 0.87898 0.26293 0.55619 0.0
H1776 H 0.93744 0.32483 0.52721 0.0
H1777 H 0.90736 0.30451 0.55114 0.0
H1778 H 0.99258 0.2506 0.58235 0.0
H1779 H 0.96058 0.22866 0.60219 0.0
H1780 H 0.00597 0.2691 0.53447 0.0
H1781 H 0.009 0.29671 0.51165 0.0
C1782 C 0.8172 0.72286 0.53683 0.0
C1783 C 0.82676 0.7458 0.55884 0.0
C1784 C 0.79814 0.76004 0.52612 0.0
C1785 C 0.78465 0.73473 0.50852 0.0
N1786 N 0.77964 0.69058 0.49931 0.0
N1787 N 0.8225 0.78375 0.57832 0.0
C1788 C 0.79387 0.71575 0.51412 0.0
C1789 C 0.81637 0.76388 0.5544 0.0
N1790 N 0.83089 0.70836 0.5371 0.0
N1791 N 0.79382 0.78056 0.51548 0.0
H1792 H 0.83449 0.78623 0.60056 0.0
H1793 H 0.81317 0.79584 0.57799 0.0
H1794 H 0.7814 0.77879 0.49388 0.0
H1795 H 0.80503 0.80015 0.52563 0.0
H1796 H 0.82647 0.69286 0.5195 0.0
H1797 H 0.84863 0.71374 0.55265 0.0
H1798 H 0.78363 0.67503 0.50563 0.0
H1799 H 0.76243 0.68456 0.48262 0.0
C1800 C 0.73654 0.67587 0.25756 0.0
C1801 C 0.76453 0.68075 0.25739 0.0
C1802 C 0.77239 0.69949 0.31608 0.0
C1803 C 0.74382 0.69334 0.31707 0.0
N1804 N 0.69691 0.66925 0.29205 0.0
N1805 N 0.80655 0.69035 0.28891 0.0
C1806 C 0.7253 0.67955 0.28877 0.0
C1807 C 0.78159 0.69031 0.28757 0.0
N1808 N 0.72115 0.66892 0.22752 0.0
N1809 N 0.79128 0.71557 0.34099 0.0
H1810 H 0.81336 0.68317 0.26851 0.0
H1811 H 0.81884 0.69475 0.31131 0.0
H1812 H 0.78596 0.72388 0.36159 0.0
H1813 H 0.8129 0.72292 0.3394 0.0
H1814 H 0.7017 0.668 0.22511 0.0
H1815 H 0.7289 0.66619 0.20426 0.0
H1816 H 0.68221 0.65693 0.27337 0.0
H1817 H 0.68779 0.67064 0.31495 0.0
C1818 C 0.3448 0.18524 0.30467 0.0
C1819 C 0.36291 0.18387 0.27978 0.0
C1820 C 0.37934 0.16286 0.32306 0.0
C1821 C 0.36177 0.16474 0.34846 0.0
N1822 N 0.33352 0.18437 0.36545 0.0
N1823 N 0.40405 0.17993 0.26913 0.0
C1824 C 0.34627 0.17802 0.33983 0.0
C1825 C 0.3823 0.17543 0.2903 0.0
N1826 N 0.32541 0.19234 0.29455 0.0
N1827 N 0.39176 0.14753 0.32899 0.0
H1828 H 0.40752 0.18995 0.24557 0.0
H1829 H 0.42036 0.17654 0.27668 0.0
H1830 H 0.38956 0.13709 0.35187 0.0
H1831 H 0.40203 0.14299 0.30982 0.0
H1832 H 0.30939 0.19069 0.31046 0.0
H1833 H 0.32421 0.19823 0.26936 0.0
H1834 H 0.3241 0.19615 0.3615 0.0
H1835 H 0.33494 0.18021 0.39142 0.0
C1836 C 0.89416 0.27975 0.3208 0.0
C1837 C 0.88751 0.29485 0.29739 0.0
C1838 C 0.91661 0.3357 0.33148 0.0
C1839 C 0.92804 0.32179 0.35005 0.0
N1840 N 0.92921 0.28037 0.35985 0.0
N1841 N 0.89413 0.33782 0.27834 0.0
C1842 C 0.91693 0.2936 0.34455 0.0
C1843 C 0.89888 0.32298 0.30238 0.0
N1844 N 0.87869 0.25213 0.31996 0.0
N1845 N 0.9222 0.36081 0.34208 0.0
H1846 H 0.88148 0.32916 0.25645 0.0
H1847 H 0.90454 0.35892 0.27877 0.0
H1848 H 0.93406 0.37023 0.36429 0.0
H1849 H 0.91248 0.37081 0.33115 0.0
H1850 H 0.88095 0.2399 0.33823 0.0
H1851 H 0.86155 0.24171 0.30306 0.0
H1852 H 0.9236 0.26049 0.35369 0.0
H1853 H 0.94672 0.28983 0.37629 0.0
C1854 C 0.38245 0.27103 0.80934 0.0
C1855 C 0.35457 0.25383 0.79664 0.0
C1856 C 0.33635 0.27222 0.84089 0.0
C1857 C 0.36433 0.29084 0.852 0.0
N1858 N 0.41436 0.31037 0.84426 0.0
N1859 N 0.30578 0.24244 0.7954 0.0
C1860 C 0.3875 0.29096 0.83539 0.0
C1861 C 0.33175 0.25561 0.81118 0.0
N1862 N 0.40393 0.26768 0.79743 0.0
N1863 N 0.314 0.27042 0.85866 0.0
H1864 H 0.30173 0.231 0.77283 0.0
H1865 H 0.28899 0.24508 0.8024 0.0
H1866 H 0.31628 0.28283 0.87969 0.0
H1867 H 0.29322 0.25514 0.85445 0.0
H1868 H 0.42418 0.2774 0.80814 0.0
H1869 H 0.40098 0.25371 0.77807 0.0
H1870 H 0.43212 0.3137 0.83066 0.0
H1871 H 0.41875 0.32422 0.86434 0.0
C1872 C 0.8335 0.16871 0.82983 0.0
C1873 C 0.82067 0.16079 0.79676 0.0
C1874 C 0.77388 0.13843 0.82357 0.0
C1875 C 0.7869 0.14391 0.85677 0.0
N1876 N 0.82955 0.15897 0.89095 0.0
N1877 N 0.77889 0.13434 0.76201 0.0
C1878 C 0.81687 0.1577 0.85982 0.0
C1879 C 0.79087 0.14466 0.79356 0.0
N1880 N 0.86156 0.18739 0.83254 0.0
N1881 N 0.74538 0.12801 0.82067 0.0
H1882 H 0.79072 0.13823 0.73967 0.0
H1883 H 0.75762 0.12009 0.75848 0.0
H1884 H 0.73235 0.12343 0.84206 0.0
H1885 H 0.73504 0.12617 0.79721 0.0
H1886 H 0.87159 0.19609 0.85596 0.0
H1887 H 0.87414 0.19616 0.81097 0.0
H1888 H 0.85115 0.16639 0.89377 0.0
H1889 H 0.81836 0.15001 0.91336 0.0
C1890 C 0.90809 0.73587 0.81595 0.0
C1891 C 0.92367 0.75447 0.78971 0.0
C1892 C 0.9674 0.75885 0.81322 0.0
C1893 C 0.95123 0.73669 0.83539 0.0
N1894 N 0.90633 0.70414 0.85914 0.0
N1895 N 0.96782 0.78353 0.76204 0.0
C1896 C 0.9216 0.7255 0.83767 0.0
C1897 C 0.95335 0.76636 0.78837 0.0
N1898 N 0.88025 0.72804 0.81944 0.0
N1899 N 0.99618 0.77287 0.81631 0.0
H1900 H 0.95816 0.78957 0.74353 0.0
H1901 H 0.98901 0.79041 0.75713 0.0
H1902 H 0.00709 0.76808 0.83465 0.0
H1903 H 0.00906 0.79072 0.80311 0.0
H1904 H 0.86769 0.71595 0.83941 0.0
H1905 H 0.87038 0.73575 0.8036 0.0
H1906 H 0.88439 0.69327 0.85951 0.0
H1907 H 0.91564 0.69627 0.87558 0.0
C1908 C 0.89603 0.7186 0.02189 0.0
C1909 C 0.88645 0.69783 0.04693 0.0
C1910 C 0.92023 0.68463 0.02644 0.0
C1911 C 0.928 0.70378 0.99935 0.0
N1912 N 0.92232 0.73779 0.96923 0.0
N1913 N 0.8877 0.66025 0.07289 0.0
C1914 C 0.91587 0.72069 0.99673 0.0
C1915 C 0.8982 0.68068 0.04924 0.0
N1916 N 0.88604 0.73629 0.02241 0.0
N1917 N 0.93436 0.67065 0.03057 0.0
H1918 H 0.87213 0.65753 0.09041 0.0
H1919 H 0.89311 0.64518 0.07413 0.0
H1920 H 0.95065 0.67327 0.01435 0.0
H1921 H 0.93157 0.65801 0.05136 0.0
H1922 H 0.89408 0.75367 1.0074 0.0
H1923 H 0.87059 0.73439 0.0396 0.0
H1924 H 0.91195 0.74845 0.96346 0.0
H1925 H 0.93721 0.74031 0.9508 0.0
C1926 C 0.35506 0.28428 0.10467 0.0
C1927 C 0.34914 0.25694 0.10786 0.0
C1928 C 0.34136 0.25162 0.04454 0.0
C1929 C 0.34421 0.27781 0.04208 0.0
N1930 N 0.34768 0.31656 0.07194 0.0
N1931 N 0.33065 0.21302 0.08085 0.0
C1932 C 0.34937 0.29343 0.07276 0.0
C1933 C 0.34065 0.2402 0.07774 0.0
N1934 N 0.36745 0.30217 0.13145 0.0
N1935 N 0.34046 0.23795 0.01509 0.0
H1936 H 0.32868 0.20363 0.1046 0.0
H1937 H 0.32148 0.19937 0.06037 0.0
H1938 H 0.34175 0.24581 0.99042 0.0
H1939 H 0.34139 0.22013 0.01523 0.0
H1940 H 0.3752 0.32291 0.12906 0.0
H1941 H 0.3727 0.29702 0.15503 0.0
H1942 H 0.34806 0.32709 0.09416 0.0
H1943 H 0.34299 0.32374 0.04952 0.0
C1944 C 0.78759 0.17865 0.06528 0.0
C1945 C 0.81736 0.19441 0.06677 0.0
C1946 C 0.8211 0.16462 0.02392 0.0
C1947 C 0.79128 0.14933 0.02208 0.0
N1948 N 0.74657 0.14668 0.03226 0.0
N1949 N 0.86257 0.20606 0.04378 0.0
C1950 C 0.77466 0.15798 0.03994 0.0
C1951 C 0.83418 0.18854 0.04472 0.0
N1952 N 0.77172 0.18222 0.08949 0.0
N1953 N 0.83671 0.15585 1.0066 0.0
H1954 H 0.87233 0.22372 0.05876 0.0
H1955 H 0.87601 0.20432 0.02645 0.0
H1956 H 0.82755 0.13893 0.99027 0.0
H1957 H 0.85846 0.16449 1.00955 0.0
H1958 H 0.75009 0.1692 0.09196 0.0
H1959 H 0.78051 0.19664 0.10923 0.0
H1960 H 0.7339 0.15378 0.04246 0.0
H1961 H 0.7367 0.13218 0.01276 0.0
loop_
_geom_bond_atom_site_label_1
_geom_bond_atom_site_label_2
_geom_bond_distance
_geom_bond_site_symmetry_2
_ccdc_geom_bond_type
Cu0 N1 1.999 . S
Cu0 O6 1.974 1_554 S
Cu0 N11 1.985 1_554 S
Cu0 O20 1.959 . S
N1 Cu0 1.999 . S
N1 C3 1.263 . S
N1 C5 1.389 . S
N2 C3 1.358 . S
N2 C4 1.400 . S
C3 N1 1.263 . S
C3 N2 1.358 . S
C3 H9 0.930 . S
C4 N2 1.400 . S
C4 C5 1.351 . S
C4 H21 0.930 . S
C5 N1 1.389 . S
C5 C4 1.351 . S
C5 H10 0.930 . S
O6 Cu0 1.974 1_556 S
O6 C16 1.282 . S
C7 O8 1.261 . S
C7 O20 1.251 . S
O8 C7 1.261 . S
H9 C3 0.930 . S
H10 C5 0.930 . S
N11 Cu0 1.985 1_556 S
N11 C13 1.335 . S
N11 C14 1.390 . S
N12 C13 1.345 . S
N12 C15 1.336 . S
C13 N11 1.335 . S
C13 N12 1.345 . S
C13 H18 0.930 . S
C14 N11 1.390 . S
C14 C15 1.346 . S
C14 H19 0.930 . S
C15 N12 1.336 . S
C15 C14 1.346 . S
C15 H22 0.929 . S
C16 O6 1.282 . S
C16 O17 1.216 1_455 S
O17 C16 1.216 1_655 S
H18 C13 0.930 . S
H19 C14 0.930 . S
O20 Cu0 1.959 . S
O20 C7 1.251 . S
H21 C4 0.930 . S
H22 C15 0.929 . S
Cu23 N24 1.999 1_554 S
Cu23 O29 1.974 . S
Cu23 N34 1.985 . S
Cu23 O43 1.959 1_554 S
N24 Cu23 1.999 1_556 S
N24 C26 1.263 . S
N24 C28 1.389 . S
N25 C26 1.358 . S
N25 C27 1.400 . S
C26 N24 1.263 . S
C26 N25 1.358 . S
C26 H32 0.930 . S
C27 N25 1.400 . S
C27 C28 1.351 . S
C27 H44 0.930 . S
C28 N24 1.389 . S
C28 C27 1.351 . S
C28 H33 0.930 . S
O29 Cu23 1.974 . S
O29 C39 1.282 . S
C30 O31 1.261 . S
C30 O43 1.251 . S
O31 C30 1.261 . S
H32 C26 0.930 . S
H33 C28 0.930 . S
N34 Cu23 1.985 . S
N34 C36 1.335 . S
N34 C37 1.390 . S
N35 C36 1.345 . S
N35 C38 1.336 . S
C36 N34 1.335 . S
C36 N35 1.345 . S
C36 H41 0.930 . S
C37 N34 1.390 . S
C37 C38 1.346 . S
C37 H42 0.930 . S
C38 N35 1.336 . S
C38 C37 1.346 . S
C38 H45 0.929 . S
C39 O29 1.282 . S
C39 O40 1.216 . S
O40 C39 1.216 . S
H41 C36 0.930 . S
H42 C37 0.930 . S
O43 Cu23 1.959 1_556 S
O43 C30 1.251 . S
H44 C27 0.930 . S
H45 C38 0.929 . S
Cu46 N47 1.999 1_554 S
Cu46 O52 1.974 . S
Cu46 N57 1.985 . S
Cu46 O66 1.959 . S
N47 Cu46 1.999 1_556 S
N47 C49 1.263 . S
N47 C51 1.389 . S
N48 C49 1.358 . S
N48 C50 1.400 . S
C49 N47 1.263 . S
C49 N48 1.358 . S
C49 H55 0.930 . S
C50 N48 1.400 . S
C50 C51 1.351 . S
C50 H67 0.930 . S
C51 N47 1.389 . S
C51 C50 1.351 . S
C51 H56 0.930 . S
O52 Cu46 1.974 . S
O52 C62 1.282 . S
C53 O54 1.262 . S
C53 O66 1.251 1_556 S
O54 C53 1.262 . S
H55 C49 0.930 . S
H56 C51 0.930 . S
N57 Cu46 1.985 . S
N57 C59 1.335 . S
N57 C60 1.390 . S
N58 C59 1.345 . S
N58 C61 1.336 . S
C59 N57 1.335 . S
C59 N58 1.345 . S
C59 H64 0.930 . S
C60 N57 1.390 . S
C60 C61 1.346 . S
C60 H65 0.930 . S
C61 N58 1.336 . S
C61 C60 1.346 . S
C61 H68 0.929 . S
C62 O52 1.282 . S
C62 O63 1.216 . S
O63 C62 1.216 . S
H64 C59 0.930 . S
H65 C60 0.930 . S
O66 Cu46 1.959 . S
O66 C53 1.251 1_554 S
H67 C50 0.930 . S
H68 C61 0.929 . S
Cu69 N70 1.999 . S
Cu69 O75 1.974 . S
Cu69 N80 1.985 . S
Cu69 O89 1.959 . S
N70 Cu69 1.999 . S
N70 C72 1.263 . S
N70 C74 1.389 . S
N71 C72 1.358 . S
N71 C73 1.400 . S
C72 N70 1.263 . S
C72 N71 1.358 . S
C72 H78 0.930 . S
C73 N71 1.400 . S
C73 C74 1.351 . S
C73 H90 0.930 . S
C74 N70 1.389 . S
C74 C73 1.351 . S
C74 H79 0.930 . S
O75 Cu69 1.974 . S
O75 C85 1.282 . S
C76 O77 1.261 . S
C76 O89 1.251 . S
O77 C76 1.261 . S
H78 C72 0.930 . S
H79 C74 0.930 . S
N80 Cu69 1.985 . S
N80 C82 1.335 . S
N80 C83 1.390 . S
N81 C82 1.345 . S
N81 C84 1.336 . S
C82 N80 1.335 . S
C82 N81 1.345 . S
C82 H87 0.930 . S
C83 N80 1.390 . S
C83 C84 1.346 . S
C83 H88 0.930 . S
C84 N81 1.336 . S
C84 C83 1.346 . S
C84 H91 0.932 1_545 S
C85 O75 1.282 . S
C85 O86 1.216 1_545 S
O86 C85 1.216 1_565 S
H87 C82 0.930 . S
H88 C83 0.930 . S
O89 Cu69 1.959 . S
O89 C76 1.251 . S
H90 C73 0.930 . S
H91 C84 0.932 1_565 S
Cu92 N93 1.999 . S
Cu92 O98 1.974 . S
Cu92 N103 1.985 . S
Cu92 O112 1.959 . S
N93 Cu92 1.999 . S
N93 C95 1.263 . S
N93 C97 1.389 . S
N94 C95 1.358 . S
N94 C96 1.400 . S
C95 N93 1.263 . S
C95 N94 1.358 . S
C95 H101 0.930 . S
C96 N94 1.400 . S
C96 C97 1.351 . S
C96 H113 0.930 . S
C97 N93 1.389 . S
C97 C96 1.351 . S
C97 H102 0.930 . S
O98 Cu92 1.974 . S
O98 C108 1.282 . S
C99 O100 1.261 . S
C99 O112 1.251 . S
O100 C99 1.261 . S
H101 C95 0.930 . S
H102 C97 0.930 . S
N103 Cu92 1.985 . S
N103 C105 1.335 . S
N103 C106 1.390 . S
N104 C105 1.345 . S
N104 C107 1.336 . S
C105 N103 1.335 . S
C105 N104 1.345 . S
C105 H110 0.930 . S
C106 N103 1.390 . S
C106 C107 1.346 . S
C106 H111 0.930 . S
C107 N104 1.336 . S
C107 C106 1.346 . S
C107 H114 0.929 . S
C108 O98 1.282 . S
C108 O109 1.216 . S
O109 C108 1.216 . S
H110 C105 0.930 . S
H111 C106 0.930 . S
O112 Cu92 1.959 . S
O112 C99 1.251 . S
H113 C96 0.930 . S
H114 C107 0.929 . S
Cu115 N116 1.999 . S
Cu115 O121 1.974 . S
Cu115 N126 1.985 . S
Cu115 O135 1.959 . S
N116 Cu115 1.999 . S
N116 C118 1.263 . S
N116 C120 1.389 . S
N117 C118 1.358 . S
N117 C119 1.400 . S
C118 N116 1.263 . S
C118 N117 1.358 . S
C118 H124 0.930 . S
C119 N117 1.400 . S
C119 C120 1.351 . S
C119 H136 0.930 . S
C120 N116 1.389 . S
C120 C119 1.351 . S
C120 H125 0.930 . S
O121 Cu115 1.974 . S
O121 C131 1.282 . S
C122 O123 1.261 . S
C122 O135 1.251 . S
O123 C122 1.261 . S
H124 C118 0.930 . S
H125 C120 0.930 . S
N126 Cu115 1.985 . S
N126 C128 1.335 . S
N126 C129 1.390 . S
N127 C128 1.345 . S
N127 C130 1.336 . S
C128 N126 1.335 . S
C128 N127 1.345 . S
C128 H133 0.930 . S
C129 N126 1.390 . S
C129 C130 1.346 . S
C129 H134 0.930 . S
C130 N127 1.336 . S
C130 C129 1.346 . S
C130 H137 0.929 . S
C131 O121 1.282 . S
C131 O132 1.216 . S
O132 C131 1.216 . S
H133 C128 0.930 . S
H134 C129 0.930 . S
O135 Cu115 1.959 . S
O135 C122 1.251 . S
H136 C119 0.930 . S
H137 C130 0.929 . S
Cu138 N139 1.999 . S
Cu138 O144 1.974 . S
Cu138 N149 1.985 . S
Cu138 O158 1.959 . S
N139 Cu138 1.999 . S
N139 C141 1.263 . S
N139 C143 1.389 . S
N140 C141 1.358 . S
N140 C142 1.400 . S
C141 N139 1.263 . S
C141 N140 1.358 . S
C141 H147 0.930 . S
C142 N140 1.400 . S
C142 C143 1.351 . S
C142 H159 0.930 . S
C143 N139 1.389 . S
C143 C142 1.351 . S
C143 H148 0.930 . S
O144 Cu138 1.974 . S
O144 C154 1.282 . S
C145 O146 1.261 . S
C145 O158 1.251 . S
O146 C145 1.261 . S
H147 C141 0.930 . S
H148 C143 0.930 . S
N149 Cu138 1.985 . S
N149 C151 1.335 . S
N149 C152 1.390 . S
N150 C151 1.345 . S
N150 C153 1.336 . S
C151 N149 1.335 . S
C151 N150 1.345 . S
C151 H156 0.930 . S
C152 N149 1.390 . S
C152 C153 1.346 . S
C152 H157 0.930 . S
C153 N150 1.336 . S
C153 C152 1.346 . S
C153 H160 0.929 . S
C154 O144 1.282 . S
C154 O155 1.216 . S
O155 C154 1.216 . S
H156 C151 0.930 . S
H157 C152 0.930 . S
O158 Cu138 1.959 . S
O158 C145 1.251 . S
H159 C142 0.930 . S
H160 C153 0.929 . S
Cu161 N162 1.999 . S
Cu161 O167 1.974 . S
Cu161 N172 1.985 . S
Cu161 O181 1.959 . S
N162 Cu161 1.999 . S
N162 C164 1.263 . S
N162 C166 1.389 . S
N163 C164 1.358 . S
N163 C165 1.400 . S
C164 N162 1.263 . S
C164 N163 1.358 . S
C164 H170 0.930 . S
C165 N163 1.400 . S
C165 C166 1.351 . S
C165 H182 0.930 . S
C166 N162 1.389 . S
C166 C165 1.351 . S
C166 H171 0.930 . S
O167 Cu161 1.974 . S
O167 C177 1.282 . S
C168 O169 1.261 . S
C168 O181 1.251 . S
O169 C168 1.261 . S
H170 C164 0.930 . S
H171 C166 0.930 . S
N172 Cu161 1.985 . S
N172 C174 1.335 . S
N172 C175 1.390 . S
N173 C174 1.345 . S
N173 C176 1.336 . S
C174 N172 1.335 . S
C174 N173 1.345 . S
C174 H179 0.930 . S
C175 N172 1.390 . S
C175 C176 1.346 . S
C175 H180 0.930 . S
C176 N173 1.336 . S
C176 C175 1.346 . S
C176 H183 0.929 . S
C177 O167 1.282 . S
C177 O178 1.216 . S
O178 C177 1.216 . S
H179 C174 0.930 . S
H180 C175 0.930 . S
O181 Cu161 1.959 . S
O181 C168 1.251 . S
H182 C165 0.930 . S
H183 C176 0.929 . S
Cu184 N185 1.999 . S
Cu184 O190 1.974 . S
Cu184 N195 1.985 . S
Cu184 O204 1.959 . S
N185 Cu184 1.999 . S
N185 C187 1.263 . S
N185 C189 1.389 . S
N186 C187 1.358 . S
N186 C188 1.400 . S
C187 N185 1.263 . S
C187 N186 1.358 . S
C187 H193 0.930 . S
C188 N186 1.400 . S
C188 C189 1.351 . S
C188 H205 0.930 . S
C189 N185 1.389 . S
C189 C188 1.351 . S
C189 H194 0.930 . S
O190 Cu184 1.974 . S
O190 C200 1.282 . S
C191 O192 1.261 . S
C191 O204 1.251 . S
O192 C191 1.261 . S
H193 C187 0.930 . S
H194 C189 0.930 . S
N195 Cu184 1.985 . S
N195 C197 1.335 . S
N195 C198 1.390 . S
N196 C197 1.345 . S
N196 C199 1.336 . S
C197 N195 1.335 . S
C197 N196 1.345 . S
C197 H202 0.930 . S
C198 N195 1.390 . S
C198 C199 1.346 . S
C198 H203 0.930 . S
C199 N196 1.336 . S
C199 C198 1.346 . S
C199 H206 0.929 . S
C200 O190 1.282 . S
C200 O201 1.216 . S
O201 C200 1.216 . S
H202 C197 0.930 . S
H203 C198 0.930 . S
O204 Cu184 1.959 . S
O204 C191 1.251 . S
H205 C188 0.930 . S
H206 C199 0.929 . S
Cu207 N208 1.999 . S
Cu207 O213 1.974 . S
Cu207 N218 1.985 . S
Cu207 O227 1.959 . S
N208 Cu207 1.999 . S
N208 C210 1.263 . S
N208 C212 1.389 . S
N209 C210 1.358 . S
N209 C211 1.400 . S
C210 N208 1.263 . S
C210 N209 1.358 . S
C210 H216 0.930 . S
C211 N209 1.400 . S
C211 C212 1.351 . S
C211 H228 0.930 . S
C212 N208 1.389 . S
C212 C211 1.351 . S
C212 H217 0.930 . S
O213 Cu207 1.974 . S
O213 C223 1.282 . S
C214 O215 1.261 . S
C214 O227 1.251 . S
O215 C214 1.261 . S
H216 C210 0.930 . S
H217 C212 0.930 . S
N218 Cu207 1.985 . S
N218 C220 1.335 . S
N218 C221 1.390 . S
N219 C220 1.345 . S
N219 C222 1.336 . S
C220 N218 1.335 . S
C220 N219 1.345 . S
C220 H225 0.930 . S
C221 N218 1.390 . S
C221 C222 1.346 . S
C221 H226 0.930 . S
C222 N219 1.336 . S
C222 C221 1.346 . S
C222 H229 0.929 . S
C223 O213 1.282 . S
C223 O224 1.216 . S
O224 C223 1.216 . S
H225 C220 0.930 . S
H226 C221 0.930 . S
O227 Cu207 1.959 . S
O227 C214 1.251 . S
H228 C211 0.930 . S
H229 C222 0.929 . S
Cu230 N231 1.999 . S
Cu230 O236 1.974 . S
Cu230 N241 1.985 . S
Cu230 O250 1.959 . S
N231 Cu230 1.999 . S
N231 C233 1.263 . S
N231 C235 1.389 . S
N232 C233 1.358 . S
N232 C234 1.400 . S
C233 N231 1.263 . S
C233 N232 1.358 . S
C233 H239 0.930 . S
C234 N232 1.400 . S
C234 C235 1.351 . S
C234 H251 0.930 . S
C235 N231 1.389 . S
C235 C234 1.351 . S
C235 H240 0.930 . S
O236 Cu230 1.974 . S
O236 C246 1.282 . S
C237 O238 1.261 . S
C237 O250 1.251 . S
O238 C237 1.261 . S
H239 C233 0.930 . S
H240 C235 0.930 . S
N241 Cu230 1.985 . S
N241 C243 1.335 . S
N241 C244 1.390 . S
N242 C243 1.345 . S
N242 C245 1.336 . S
C243 N241 1.335 . S
C243 N242 1.345 . S
C243 H248 0.930 . S
C244 N241 1.390 . S
C244 C245 1.346 . S
C244 H249 0.930 . S
C245 N242 1.336 . S
C245 C244 1.346 . S
C245 H252 0.929 . S
C246 O236 1.282 . S
C246 O247 1.216 . S
O247 C246 1.216 . S
H248 C243 0.930 . S
H249 C244 0.930 . S
O250 Cu230 1.959 . S
O250 C237 1.251 . S
H251 C234 0.930 . S
H252 C245 0.929 . S
Cu253 N254 1.999 . S
Cu253 O259 1.974 . S
Cu253 N264 1.985 . S
Cu253 O273 1.959 . S
N254 Cu253 1.999 . S
N254 C256 1.263 . S
N254 C258 1.389 . S
N255 C256 1.358 . S
N255 C257 1.400 . S
C256 N254 1.263 . S
C256 N255 1.358 . S
C256 H262 0.930 . S
C257 N255 1.400 . S
C257 C258 1.351 . S
C257 H274 0.930 . S
C258 N254 1.389 . S
C258 C257 1.351 . S
C258 H263 0.930 . S
O259 Cu253 1.974 . S
O259 C269 1.282 . S
C260 O261 1.261 . S
C260 O273 1.251 . S
O261 C260 1.261 . S
H262 C256 0.930 . S
H263 C258 0.930 . S
N264 Cu253 1.985 . S
N264 C266 1.335 . S
N264 C267 1.390 . S
N265 C266 1.345 . S
N265 C268 1.336 . S
C266 N264 1.335 . S
C266 N265 1.345 . S
C266 H271 0.930 . S
C267 N264 1.390 . S
C267 C268 1.346 . S
C267 H272 0.930 . S
C268 N265 1.336 . S
C268 C267 1.346 . S
C268 H275 0.929 . S
C269 O259 1.282 . S
C269 O270 1.216 . S
O270 C269 1.216 . S
H271 C266 0.930 . S
H272 C267 0.930 . S
O273 Cu253 1.959 . S
O273 C260 1.251 . S
H274 C257 0.930 . S
H275 C268 0.929 . S
Cu276 N277 1.999 . S
Cu276 O282 1.974 . S
Cu276 N287 1.985 . S
Cu276 O296 1.959 . S
N277 Cu276 1.999 . S
N277 C279 1.263 . S
N277 C281 1.389 . S
N278 C279 1.358 . S
N278 C280 1.400 . S
C279 N277 1.263 . S
C279 N278 1.358 . S
C279 H285 0.930 . S
C280 N278 1.400 . S
C280 C281 1.351 . S
C280 H297 0.930 . S
C281 N277 1.389 . S
C281 C280 1.351 . S
C281 H286 0.930 . S
O282 Cu276 1.974 . S
O282 C292 1.282 . S
C283 O284 1.261 . S
C283 O296 1.251 . S
O284 C283 1.261 . S
H285 C279 0.930 . S
H286 C281 0.930 . S
N287 Cu276 1.985 . S
N287 C289 1.335 . S
N287 C290 1.390 . S
N288 C289 1.345 . S
N288 C291 1.336 . S
C289 N287 1.335 . S
C289 N288 1.345 . S
C289 H294 0.930 . S
C290 N287 1.390 . S
C290 C291 1.346 . S
C290 H295 0.930 . S
C291 N288 1.336 . S
C291 C290 1.346 . S
C291 H298 0.929 . S
C292 O282 1.282 . S
C292 O293 1.216 . S
O293 C292 1.216 . S
H294 C289 0.930 . S
H295 C290 0.930 . S
O296 Cu276 1.959 . S
O296 C283 1.251 . S
H297 C280 0.930 . S
H298 C291 0.929 . S
Cu299 N300 1.999 . S
Cu299 O305 1.974 . S
Cu299 N310 1.985 . S
Cu299 O319 1.959 . S
N300 Cu299 1.999 . S
N300 C302 1.263 . S
N300 C304 1.389 . S
N301 C302 1.358 . S
N301 C303 1.400 . S
C302 N300 1.263 . S
C302 N301 1.358 . S
C302 H308 0.930 . S
C303 N301 1.400 . S
C303 C304 1.351 . S
C303 H320 0.930 . S
C304 N300 1.389 . S
C304 C303 1.351 . S
C304 H309 0.930 . S
O305 Cu299 1.974 . S
O305 C315 1.282 . S
C306 O307 1.261 . S
C306 O319 1.251 . S
O307 C306 1.261 . S
H308 C302 0.930 . S
H309 C304 0.930 . S
N310 Cu299 1.985 . S
N310 C312 1.335 . S
N310 C313 1.390 . S
N311 C312 1.345 . S
N311 C314 1.336 . S
C312 N310 1.335 . S
C312 N311 1.345 . S
C312 H317 0.930 . S
C313 N310 1.390 . S
C313 C314 1.346 . S
C313 H318 0.930 . S
C314 N311 1.336 . S
C314 C313 1.346 . S
C314 H321 0.929 . S
C315 O305 1.282 . S
C315 O316 1.216 . S
O316 C315 1.216 . S
H317 C312 0.930 . S
H318 C313 0.930 . S
O319 Cu299 1.959 . S
O319 C306 1.251 . S
H320 C303 0.930 . S
H321 C314 0.929 . S
Cu322 N323 1.999 . S
Cu322 O328 1.974 . S
Cu322 N333 1.985 . S
Cu322 O342 1.959 . S
N323 Cu322 1.999 . S
N323 C325 1.263 . S
N323 C327 1.389 . S
N324 C325 1.358 . S
N324 C326 1.400 . S
C325 N323 1.263 . S
C325 N324 1.358 . S
C325 H331 0.930 . S
C326 N324 1.400 . S
C326 C327 1.351 . S
C326 H343 0.930 . S
C327 N323 1.389 . S
C327 C326 1.351 . S
C327 H332 0.930 . S
O328 Cu322 1.974 . S
O328 C338 1.282 . S
C329 O330 1.261 . S
C329 O342 1.251 . S
O330 C329 1.261 . S
H331 C325 0.930 . S
H332 C327 0.930 . S
N333 Cu322 1.985 . S
N333 C335 1.335 . S
N333 C336 1.390 . S
N334 C335 1.345 . S
N334 C337 1.336 . S
C335 N333 1.335 . S
C335 N334 1.345 . S
C335 H340 0.930 . S
C336 N333 1.390 . S
C336 C337 1.346 . S
C336 H341 0.930 . S
C337 N334 1.336 . S
C337 C336 1.346 . S
C337 H344 0.929 . S
C338 O328 1.282 . S
C338 O339 1.216 . S
O339 C338 1.216 . S
H340 C335 0.930 . S
H341 C336 0.930 . S
O342 Cu322 1.959 . S
O342 C329 1.251 . S
H343 C326 0.930 . S
H344 C337 0.929 . S
Cu345 N346 1.999 . S
Cu345 O351 1.974 . S
Cu345 N356 1.985 . S
Cu345 O365 1.959 . S
N346 Cu345 1.999 . S
N346 C348 1.263 . S
N346 C350 1.389 . S
N347 C348 1.358 . S
N347 C349 1.400 . S
C348 N346 1.263 . S
C348 N347 1.358 . S
C348 H354 0.930 . S
C349 N347 1.400 . S
C349 C350 1.351 . S
C349 H366 0.930 . S
C350 N346 1.389 . S
C350 C349 1.351 . S
C350 H355 0.930 . S
O351 Cu345 1.974 . S
O351 C361 1.282 . S
C352 O353 1.261 . S
C352 O365 1.251 . S
O353 C352 1.261 . S
H354 C348 0.930 . S
H355 C350 0.930 . S
N356 Cu345 1.985 . S
N356 C358 1.335 . S
N356 C359 1.390 . S
N357 C358 1.345 . S
N357 C360 1.336 . S
C358 N356 1.335 . S
C358 N357 1.345 . S
C358 H363 0.930 . S
C359 N356 1.390 . S
C359 C360 1.346 . S
C359 H364 0.930 . S
C360 N357 1.336 . S
C360 C359 1.346 . S
C360 H367 0.929 . S
C361 O351 1.282 . S
C361 O362 1.216 . S
O362 C361 1.216 . S
H363 C358 0.930 . S
H364 C359 0.930 . S
O365 Cu345 1.959 . S
O365 C352 1.251 . S
H366 C349 0.930 . S
H367 C360 0.929 . S
Cu368 N369 1.999 . S
Cu368 O374 1.974 . S
Cu368 N379 1.985 . S
Cu368 O388 1.959 . S
N369 Cu368 1.999 . S
N369 C371 1.263 . S
N369 C373 1.389 . S
N370 C371 1.358 . S
N370 C372 1.400 . S
C371 N369 1.263 . S
C371 N370 1.358 . S
C371 H377 0.930 . S
C372 N370 1.400 . S
C372 C373 1.351 . S
C372 H389 0.930 . S
C373 N369 1.389 . S
C373 C372 1.351 . S
C373 H378 0.930 . S
O374 Cu368 1.974 . S
O374 C384 1.282 . S
C375 O376 1.261 . S
C375 O388 1.251 . S
O376 C375 1.261 . S
H377 C371 0.930 . S
H378 C373 0.930 . S
N379 Cu368 1.985 . S
N379 C381 1.335 . S
N379 C382 1.390 . S
N380 C381 1.345 . S
N380 C383 1.336 . S
C381 N379 1.335 . S
C381 N380 1.345 . S
C381 H386 0.930 . S
C382 N379 1.390 . S
C382 C383 1.346 . S
C382 H387 0.930 . S
C383 N380 1.336 . S
C383 C382 1.346 . S
C383 H390 0.929 . S
C384 O374 1.282 . S
C384 O385 1.216 . S
O385 C384 1.216 . S
H386 C381 0.930 . S
H387 C382 0.930 . S
O388 Cu368 1.959 . S
O388 C375 1.251 . S
H389 C372 0.930 . S
H390 C383 0.929 . S
Cu391 N392 1.999 . S
Cu391 O397 1.974 . S
Cu391 N402 1.985 . S
Cu391 O411 1.959 . S
N392 Cu391 1.999 . S
N392 C394 1.263 . S
N392 C396 1.389 . S
N393 C394 1.358 . S
N393 C395 1.400 . S
C394 N392 1.263 . S
C394 N393 1.358 . S
C394 H400 0.930 . S
C395 N393 1.400 . S
C395 C396 1.351 . S
C395 H412 0.930 . S
C396 N392 1.389 . S
C396 C395 1.351 . S
C396 H401 0.930 . S
O397 Cu391 1.974 . S
O397 C407 1.282 . S
C398 O399 1.261 . S
C398 O411 1.251 . S
O399 C398 1.261 . S
H400 C394 0.930 . S
H401 C396 0.930 . S
N402 Cu391 1.985 . S
N402 C404 1.335 . S
N402 C405 1.390 . S
N403 C404 1.345 . S
N403 C406 1.336 . S
C404 N402 1.335 . S
C404 N403 1.345 . S
C404 H409 0.930 . S
C405 N402 1.390 . S
C405 C406 1.346 . S
C405 H410 0.930 . S
C406 N403 1.336 . S
C406 C405 1.346 . S
C406 H413 0.929 . S
C407 O397 1.282 . S
C407 O408 1.216 . S
O408 C407 1.216 . S
H409 C404 0.930 . S
H410 C405 0.930 . S
O411 Cu391 1.959 . S
O411 C398 1.251 . S
H412 C395 0.930 . S
H413 C406 0.929 . S
Zn414 O417 2.031 . S
Zn414 O419 2.049 . S
Zn414 O424 2.067 1_455 S
Zn415 O416 1.962 . S
Zn415 O418 1.986 . S
Zn415 O420 1.996 . S
Zn415 O423 1.943 1_455 S
O416 Zn415 1.962 . S
O416 C421 1.254 . S
O417 Zn414 2.031 . S
O417 C421 1.269 . S
O418 Zn415 1.986 . S
O418 C425 1.262 . S
O419 Zn414 2.049 . S
O419 C427 1.260 . S
O420 Zn415 1.996 . S
O420 C427 1.257 . S
C421 O416 1.254 . S
C421 O417 1.269 . S
C422 O423 1.249 . S
C422 O424 1.270 . S
O423 Zn415 1.943 1_655 S
O423 C422 1.249 . S
O424 Zn414 2.067 1_655 S
O424 C422 1.270 . S
C425 O418 1.262 . S
C425 O426 1.232 1_455 S
O426 C425 1.232 1_655 S
C427 O419 1.260 . S
C427 O420 1.257 . S
Zn428 O431 2.031 . S
Zn428 O433 2.049 . S
Zn428 O438 2.067 . S
Zn429 O430 1.962 . S
Zn429 O432 1.986 . S
Zn429 O434 1.996 . S
Zn429 O437 1.943 . S
O430 Zn429 1.962 . S
O430 C435 1.254 . S
O431 Zn428 2.031 . S
O431 C435 1.269 . S
O432 Zn429 1.986 . S
O432 C439 1.262 . S
O433 Zn428 2.049 . S
O433 C441 1.260 . S
O434 Zn429 1.996 . S
O434 C441 1.257 . S
C435 O430 1.254 . S
C435 O431 1.269 . S
C436 O437 1.249 . S
C436 O438 1.270 . S
O437 Zn429 1.943 . S
O437 C436 1.249 . S
O438 Zn428 2.067 . S
O438 C436 1.270 . S
C439 O432 1.262 . S
C439 O440 1.232 . S
O440 C439 1.232 . S
C441 O433 1.260 . S
C441 O434 1.257 . S
Zn442 O445 2.031 . S
Zn442 O447 2.049 . S
Zn442 O452 2.067 . S
Zn443 O444 1.962 . S
Zn443 O446 1.986 . S
Zn443 O448 1.996 . S
Zn443 O451 1.943 . S
O444 Zn443 1.962 . S
O444 C449 1.254 . S
O445 Zn442 2.031 . S
O445 C449 1.269 . S
O446 Zn443 1.986 . S
O446 C453 1.262 . S
O447 Zn442 2.049 . S
O447 C455 1.260 . S
O448 Zn443 1.996 . S
O448 C455 1.257 . S
C449 O444 1.254 . S
C449 O445 1.269 . S
C450 O451 1.249 . S
C450 O452 1.270 . S
O451 Zn443 1.943 . S
O451 C450 1.249 . S
O452 Zn442 2.067 . S
O452 C450 1.270 . S
C453 O446 1.262 . S
C453 O454 1.232 . S
O454 C453 1.232 . S
C455 O447 1.260 . S
C455 O448 1.257 . S
Zn456 O459 2.031 1_455 S
Zn456 O461 2.049 . S
Zn456 O466 2.067 . S
Zn457 O458 1.962 1_455 S
Zn457 O460 1.986 . S
Zn457 O462 1.996 . S
Zn457 O465 1.943 . S
O458 Zn457 1.962 1_655 S
O458 C463 1.254 . S
O459 Zn456 2.031 1_655 S
O459 C463 1.269 . S
O460 Zn457 1.986 . S
O460 C467 1.262 . S
O461 Zn456 2.049 . S
O461 C469 1.260 . S
O462 Zn457 1.996 . S
O462 C469 1.257 . S
C463 O458 1.254 . S
C463 O459 1.269 . S
C464 O465 1.249 . S
C464 O466 1.270 . S
O465 Zn457 1.943 . S
O465 C464 1.249 . S
O466 Zn456 2.067 . S
O466 C464 1.270 . S
C467 O460 1.262 . S
C467 O468 1.232 . S
O468 C467 1.232 . S
C469 O461 1.260 . S
C469 O462 1.257 . S
Zn470 O473 2.031 . S
Zn470 O475 2.049 . S
Zn470 O480 2.067 . S
Zn471 O472 1.962 . S
Zn471 O474 1.986 . S
Zn471 O476 1.996 . S
Zn471 O479 1.943 . S
O472 Zn471 1.962 . S
O472 C477 1.254 . S
O473 Zn470 2.031 . S
O473 C477 1.269 . S
O474 Zn471 1.986 . S
O474 C481 1.262 . S
O475 Zn470 2.049 . S
O475 C483 1.260 . S
O476 Zn471 1.996 . S
O476 C483 1.257 . S
C477 O472 1.254 . S
C477 O473 1.269 . S
C478 O479 1.249 . S
C478 O480 1.270 . S
O479 Zn471 1.943 . S
O479 C478 1.249 . S
O480 Zn470 2.067 . S
O480 C478 1.270 . S
C481 O474 1.262 . S
C481 O482 1.232 . S
O482 C481 1.232 . S
C483 O475 1.260 . S
C483 O476 1.257 . S
Zn484 O487 2.031 . S
Zn484 O489 2.049 . S
Zn484 O494 2.067 . S
Zn485 O486 1.962 . S
Zn485 O488 1.986 . S
Zn485 O490 1.996 . S
Zn485 O493 1.935 1_545 S
O486 Zn485 1.962 . S
O486 C491 1.254 . S
O487 Zn484 2.031 . S
O487 C491 1.269 . S
O488 Zn485 1.986 . S
O488 C495 1.262 . S
O489 Zn484 2.049 . S
O489 C497 1.260 . S
O490 Zn485 1.996 . S
O490 C497 1.257 . S
C491 O486 1.254 . S
C491 O487 1.269 . S
C492 O493 1.247 . S
C492 O494 1.270 1_565 S
O493 Zn485 1.935 1_565 S
O493 C492 1.247 . S
O494 Zn484 2.067 . S
O494 C492 1.270 1_545 S
C495 O488 1.262 . S
C495 O496 1.232 . S
O496 C495 1.232 . S
C497 O489 1.260 . S
C497 O490 1.257 . S
Zn498 O501 2.031 1_545 S
Zn498 O503 2.049 . S
Zn498 O508 2.067 . S
Zn499 O500 1.962 . S
Zn499 O502 1.986 . S
Zn499 O504 1.996 1_565 S
Zn499 O507 1.943 . S
O500 Zn499 1.962 . S
O500 C505 1.254 . S
O501 Zn498 2.031 1_565 S
O501 C505 1.269 . S
O502 Zn499 1.986 . S
O502 C509 1.262 . S
O503 Zn498 2.049 . S
O503 C511 1.260 . S
O504 Zn499 1.996 1_545 S
O504 C511 1.257 . S
C505 O500 1.254 . S
C505 O501 1.269 . S
C506 O507 1.249 1_545 S
C506 O508 1.270 . S
O507 Zn499 1.943 . S
O507 C506 1.249 1_565 S
O508 Zn498 2.067 . S
O508 C506 1.270 . S
C509 O502 1.262 . S
C509 O510 1.232 . S
O510 C509 1.232 . S
C511 O503 1.260 . S
C511 O504 1.257 . S
Zn512 O515 2.031 . S
Zn512 O517 2.049 . S
Zn512 O522 2.067 . S
Zn513 O514 1.962 . S
Zn513 O516 1.986 . S
Zn513 O518 1.996 . S
Zn513 O521 1.943 . S
O514 Zn513 1.962 . S
O514 C519 1.254 . S
O515 Zn512 2.031 . S
O515 C519 1.269 . S
O516 Zn513 1.986 . S
O516 C523 1.262 . S
O517 Zn512 2.049 . S
O517 C525 1.260 . S
O518 Zn513 1.996 . S
O518 C525 1.257 . S
C519 O514 1.254 . S
C519 O515 1.269 . S
C520 O521 1.249 . S
C520 O522 1.270 . S
O521 Zn513 1.943 . S
O521 C520 1.249 . S
O522 Zn512 2.067 . S
O522 C520 1.270 . S
C523 O516 1.262 . S
C523 O524 1.232 . S
O524 C523 1.232 . S
C525 O517 1.260 . S
C525 O518 1.257 . S
Zn526 O529 2.031 . S
Zn526 O531 2.049 . S
Zn526 O536 2.067 . S
Zn527 O528 1.962 . S
Zn527 O530 1.986 . S
Zn527 O532 1.996 . S
Zn527 O535 1.943 . S
O528 Zn527 1.962 . S
O528 C533 1.254 . S
O529 Zn526 2.031 . S
O529 C533 1.269 . S
O530 Zn527 1.986 . S
O530 C537 1.262 . S
O531 Zn526 2.049 . S
O531 C539 1.260 . S
O532 Zn527 1.996 . S
O532 C539 1.257 . S
C533 O528 1.254 . S
C533 O529 1.269 . S
C534 O535 1.249 . S
C534 O536 1.270 . S
O535 Zn527 1.943 . S
O535 C534 1.249 . S
O536 Zn526 2.067 . S
O536 C534 1.270 . S
C537 O530 1.262 . S
C537 O538 1.232 . S
O538 C537 1.232 . S
C539 O531 1.260 . S
C539 O532 1.257 . S
Zn540 O543 2.031 . S
Zn540 O545 2.049 . S
Zn540 O550 2.067 . S
Zn541 O542 1.962 . S
Zn541 O544 1.986 . S
Zn541 O546 1.996 . S
Zn541 O549 1.943 . S
O542 Zn541 1.962 . S
O542 C547 1.254 . S
O543 Zn540 2.031 . S
O543 C547 1.269 . S
O544 Zn541 1.986 . S
O544 C551 1.262 . S
O545 Zn540 2.049 . S
O545 C553 1.260 . S
O546 Zn541 1.996 . S
O546 C553 1.257 . S
C547 O542 1.254 . S
C547 O543 1.269 . S
C548 O549 1.249 . S
C548 O550 1.270 . S
O549 Zn541 1.943 . S
O549 C548 1.249 . S
O550 Zn540 2.067 . S
O550 C548 1.270 . S
C551 O544 1.262 . S
C551 O552 1.232 . S
O552 C551 1.232 . S
C553 O545 1.260 . S
C553 O546 1.257 . S
Zn554 O557 2.031 . S
Zn554 O559 2.049 1_545 S
Zn554 O564 2.067 . S
Zn555 O556 1.962 1_565 S
Zn555 O558 1.986 . S
Zn555 O560 1.996 . S
Zn555 O563 1.943 . S
O556 Zn555 1.962 1_545 S
O556 C561 1.254 . S
O557 Zn554 2.031 . S
O557 C561 1.269 . S
O558 Zn555 1.986 . S
O558 C565 1.262 . S
O559 Zn554 2.049 1_565 S
O559 C567 1.260 . S
O560 Zn555 1.996 . S
O560 C567 1.257 . S
C561 O556 1.254 . S
C561 O557 1.269 . S
C562 O563 1.249 1_545 S
C562 O564 1.270 . S
O563 Zn555 1.943 . S
O563 C562 1.249 1_565 S
O564 Zn554 2.067 . S
O564 C562 1.270 . S
C565 O558 1.262 . S
C565 O566 1.232 . S
O566 C565 1.232 . S
C567 O559 1.260 . S
C567 O560 1.257 . S
Zn568 O571 2.031 . S
Zn568 O573 2.049 . S
Zn568 O578 2.067 . S
Zn569 O570 1.962 . S
Zn569 O572 1.986 . S
Zn569 O574 1.996 . S
Zn569 O577 1.943 . S
O570 Zn569 1.962 . S
O570 C575 1.254 . S
O571 Zn568 2.031 . S
O571 C575 1.269 . S
O572 Zn569 1.986 . S
O572 C579 1.262 . S
O573 Zn568 2.049 . S
O573 C581 1.260 . S
O574 Zn569 1.996 . S
O574 C581 1.257 . S
C575 O570 1.254 . S
C575 O571 1.269 . S
C576 O577 1.254 . S
C576 O578 1.270 . S
O577 Zn569 1.943 . S
O577 C576 1.254 . S
O578 Zn568 2.067 . S
O578 C576 1.270 . S
C579 O572 1.262 . S
C579 O580 1.232 . S
O580 C579 1.232 . S
C581 O573 1.260 . S
C581 O574 1.257 . S
Zn582 O585 2.031 . S
Zn582 O587 2.049 . S
Zn582 O592 2.067 . S
Zn583 O584 1.962 . S
Zn583 O586 1.986 . S
Zn583 O588 1.996 . S
Zn583 O591 1.943 . S
O584 Zn583 1.962 . S
O584 C589 1.254 . S
O585 Zn582 2.031 . S
O585 C589 1.269 . S
O586 Zn583 1.986 . S
O586 C593 1.262 1_556 S
O587 Zn582 2.049 . S
O587 C595 1.260 . S
O588 Zn583 1.996 . S
O588 C595 1.257 . S
C589 O584 1.254 . S
C589 O585 1.269 . S
C590 O591 1.249 . S
C590 O592 1.270 . S
O591 Zn583 1.943 . S
O591 C590 1.249 . S
O592 Zn582 2.067 . S
O592 C590 1.270 . S
C593 O586 1.262 1_554 S
C593 O594 1.232 1_554 S
O594 C593 1.232 1_556 S
C595 O587 1.260 . S
C595 O588 1.257 . S
Zn596 O599 2.031 . S
Zn596 O601 2.049 . S
Zn596 O606 2.067 . S
Zn597 O598 1.962 . S
Zn597 O600 1.986 . S
Zn597 O602 1.996 . S
Zn597 O605 1.943 . S
O598 Zn597 1.962 . S
O598 C603 1.254 . S
O599 Zn596 2.031 . S
O599 C603 1.269 . S
O600 Zn597 1.986 . S
O600 C607 1.262 . S
O601 Zn596 2.049 . S
O601 C609 1.260 . S
O602 Zn597 1.996 . S
O602 C609 1.257 . S
C603 O598 1.254 . S
C603 O599 1.269 . S
C604 O605 1.249 . S
C604 O606 1.270 . S
O605 Zn597 1.943 . S
O605 C604 1.249 . S
O606 Zn596 2.067 . S
O606 C604 1.270 . S
C607 O600 1.262 . S
C607 O608 1.232 . S
O608 C607 1.232 . S
C609 O601 1.260 . S
C609 O602 1.257 . S
Zn610 O613 2.031 1_455 S
Zn610 O615 2.049 . S
Zn610 O620 2.067 . S
Zn611 O612 1.962 . S
Zn611 O614 1.986 . S
Zn611 O616 1.996 . S
Zn611 O619 1.943 1_655 S
O612 Zn611 1.962 . S
O612 C617 1.254 . S
O613 Zn610 2.031 1_655 S
O613 C617 1.269 . S
O614 Zn611 1.986 . S
O614 C621 1.262 . S
O615 Zn610 2.049 . S
O615 C623 1.260 . S
O616 Zn611 1.996 . S
O616 C623 1.257 1_655 S
C617 O612 1.254 . S
C617 O613 1.269 . S
C618 O619 1.249 . S
C618 O620 1.270 . S
O619 Zn611 1.943 1_455 S
O619 C618 1.249 . S
O620 Zn610 2.067 . S
O620 C618 1.270 . S
C621 O614 1.262 . S
C621 O622 1.232 . S
O622 C621 1.232 . S
C623 O615 1.260 . S
C623 O616 1.257 1_455 S
Zn624 O627 2.031 . S
Zn624 O629 2.049 . S
Zn624 O634 2.067 . S
Zn625 O626 1.962 . S
Zn625 O628 1.986 . S
Zn625 O630 1.996 . S
Zn625 O633 1.943 . S
O626 Zn625 1.962 . S
O626 C631 1.254 . S
O627 Zn624 2.031 . S
O627 C631 1.269 . S
O628 Zn625 1.986 . S
O628 C635 1.262 . S
O629 Zn624 2.049 . S
O629 C637 1.260 . S
O630 Zn625 1.996 . S
O630 C637 1.257 . S
C631 O626 1.254 . S
C631 O627 1.269 . S
C632 O633 1.249 . S
C632 O634 1.270 . S
O633 Zn625 1.943 . S
O633 C632 1.249 . S
O634 Zn624 2.067 . S
O634 C632 1.270 . S
C635 O628 1.262 . S
C635 O636 1.232 . S
O636 C635 1.232 . S
C637 O629 1.260 . S
C637 O630 1.257 . S
Zn638 O641 2.031 1_655 S
Zn638 O643 2.049 . S
Zn638 O648 2.067 1_655 S
Zn639 O640 1.962 . S
Zn639 O642 1.986 . S
Zn639 O644 1.996 . S
Zn639 O647 1.943 1_655 S
O640 Zn639 1.962 . S
O640 C645 1.254 . S
O641 Zn638 2.031 1_455 S
O641 C645 1.269 1_455 S
O642 Zn639 1.986 . S
O642 C649 1.262 . S
O643 Zn638 2.049 . S
O643 C651 1.260 . S
O644 Zn639 1.996 . S
O644 C651 1.257 . S
C645 O640 1.254 . S
C645 O641 1.269 1_655 S
C646 O647 1.249 . S
C646 O648 1.270 . S
O647 Zn639 1.943 1_455 S
O647 C646 1.249 . S
O648 Zn638 2.067 1_455 S
O648 C646 1.270 . S
C649 O642 1.262 . S
C649 O650 1.232 . S
O650 C649 1.232 . S
C651 O643 1.260 . S
C651 O644 1.257 . S
Zn652 O655 2.031 . S
Zn652 O657 2.049 . S
Zn652 O662 2.067 . S
Zn653 O654 1.962 . S
Zn653 O656 1.986 . S
Zn653 O658 1.996 . S
Zn653 O661 1.943 . S
O654 Zn653 1.962 . S
O654 C659 1.254 . S
O655 Zn652 2.031 . S
O655 C659 1.269 . S
O656 Zn653 1.986 . S
O656 C663 1.262 . S
O657 Zn652 2.049 . S
O657 C665 1.260 . S
O658 Zn653 1.996 . S
O658 C665 1.257 . S
C659 O654 1.254 . S
C659 O655 1.269 . S
C660 O661 1.249 . S
C660 O662 1.270 . S
O661 Zn653 1.943 . S
O661 C660 1.249 . S
O662 Zn652 2.067 . S
O662 C660 1.270 . S
C663 O656 1.262 . S
C663 O664 1.232 . S
O664 C663 1.232 . S
C665 O657 1.260 . S
C665 O658 1.257 . S
C666 C667 1.363 . S
C666 C672 1.379 . S
C666 N674 1.356 . S
C667 C666 1.363 . S
C667 C673 1.363 . S
C668 C669 1.363 . S
C668 C673 1.379 . S
C668 N675 1.357 1_455 S
C669 C668 1.363 . S
C669 C672 1.363 . S
N670 C672 1.356 . S
N670 H682 0.984 . S
N670 H683 0.985 . S
N671 C673 1.356 1_655 S
N671 H676 0.984 . S
N671 H677 0.985 . S
C672 C666 1.379 . S
C672 C669 1.363 . S
C672 N670 1.356 . S
C673 C667 1.363 . S
C673 C668 1.379 . S
C673 N671 1.356 1_455 S
N674 C666 1.356 . S
N674 H680 0.984 . S
N674 H681 0.984 . S
N675 C668 1.357 1_655 S
N675 H678 0.960 1_655 S
N675 H679 1.010 . S
H676 N671 0.984 . S
H677 N671 0.985 . S
H678 N675 0.960 1_455 S
H679 N675 1.010 . S
H680 N674 0.984 . S
H681 N674 0.984 . S
H682 N670 0.984 . S
H683 N670 0.985 . S
C684 C685 1.363 . S
C684 C690 1.379 . S
C684 N692 1.356 1_554 S
C685 C684 1.363 . S
C685 C691 1.363 . S
C686 C687 1.363 . S
C686 C691 1.379 . S
C686 N693 1.356 . S
C687 C686 1.363 . S
C687 C690 1.363 . S
N688 C690 1.356 . S
N688 H700 0.984 1_554 S
N688 H701 0.985 . S
N689 C691 1.356 . S
N689 H694 0.984 . S
N689 H695 0.985 . S
C690 C684 1.379 . S
C690 C687 1.363 . S
C690 N688 1.356 . S
C691 C685 1.363 . S
C691 C686 1.379 . S
C691 N689 1.356 . S
N692 C684 1.356 1_556 S
N692 H698 0.984 . S
N692 H699 0.984 . S
N693 C686 1.356 . S
N693 H696 0.984 . S
N693 H697 0.985 . S
H694 N689 0.984 . S
H695 N689 0.985 . S
H696 N693 0.984 . S
H697 N693 0.985 . S
H698 N692 0.984 . S
H699 N692 0.984 . S
H700 N688 0.984 1_556 S
H701 N688 0.985 . S
C702 C703 1.363 . S
C702 C708 1.379 . S
C702 N710 1.356 . S
C703 C702 1.363 . S
C703 C709 1.363 . S
C704 C705 1.363 . S
C704 C709 1.379 . S
C704 N711 1.356 . S
C705 C704 1.363 . S
C705 C708 1.363 . S
N706 C708 1.350 1_565 S
N706 H718 1.005 . S
N706 H719 0.972 . S
N707 C709 1.356 . S
N707 H712 0.984 . S
N707 H713 0.985 1_554 S
C708 C702 1.379 . S
C708 C705 1.363 . S
C708 N706 1.350 1_545 S
C709 C703 1.363 . S
C709 C704 1.379 . S
C709 N707 1.356 . S
N710 C702 1.356 . S
N710 H716 0.984 . S
N710 H717 0.984 . S
N711 C704 1.356 . S
N711 H714 0.984 . S
N711 H715 0.985 . S
H712 N707 0.984 . S
H713 N707 0.985 1_556 S
H714 N711 0.984 . S
H715 N711 0.985 . S
H716 N710 0.984 . S
H717 N710 0.984 . S
H718 N706 1.005 . S
H719 N706 0.972 . S
C720 C721 1.363 . S
C720 C726 1.379 . S
C720 N728 1.356 . S
C721 C720 1.363 . S
C721 C727 1.363 . S
C722 C723 1.363 . S
C722 C727 1.379 . S
C722 N729 1.356 . S
C723 C722 1.363 . S
C723 C726 1.363 . S
N724 C726 1.356 . S
N724 H736 0.984 . S
N724 H737 0.985 . S
N725 C727 1.356 . S
N725 H730 0.984 . S
N725 H731 0.985 . S
C726 C720 1.379 . S
C726 C723 1.363 . S
C726 N724 1.356 . S
C727 C721 1.363 . S
C727 C722 1.379 . S
C727 N725 1.356 . S
N728 C720 1.356 . S
N728 H734 0.984 . S
N728 H735 0.984 . S
N729 C722 1.356 . S
N729 H732 0.984 . S
N729 H733 0.985 . S
H730 N725 0.984 . S
H731 N725 0.985 . S
H732 N729 0.984 . S
H733 N729 0.985 . S
H734 N728 0.984 . S
H735 N728 0.984 . S
H736 N724 0.984 . S
H737 N724 0.985 . S
C738 C739 1.363 . S
C738 C744 1.379 . S
C738 N746 1.356 . S
C739 C738 1.363 . S
C739 C745 1.363 . S
C740 C741 1.363 . S
C740 C745 1.379 . S
C740 N747 1.356 1_455 S
C741 C740 1.363 . S
C741 C744 1.363 . S
N742 C744 1.356 . S
N742 H754 0.984 . S
N742 H755 0.985 . S
N743 C745 1.356 . S
N743 H748 0.984 . S
N743 H749 0.985 . S
C744 C738 1.379 . S
C744 C741 1.363 . S
C744 N742 1.356 . S
C745 C739 1.363 . S
C745 C740 1.379 . S
C745 N743 1.356 . S
N746 C738 1.356 . S
N746 H752 0.984 . S
N746 H753 0.984 . S
N747 C740 1.356 1_655 S
N747 H750 0.984 . S
N747 H751 0.985 . S
H748 N743 0.984 . S
H749 N743 0.985 . S
H750 N747 0.984 . S
H751 N747 0.985 . S
H752 N746 0.984 . S
H753 N746 0.984 . S
H754 N742 0.984 . S
H755 N742 0.985 . S
C756 C757 1.363 . S
C756 C762 1.379 . S
C756 N764 1.356 . S
C757 C756 1.363 . S
C757 C763 1.363 . S
C758 C759 1.363 . S
C758 C763 1.379 . S
C758 N765 1.356 . S
C759 C758 1.363 . S
C759 C762 1.363 . S
N760 C762 1.356 . S
N760 H772 0.984 . S
N760 H773 0.985 . S
N761 C763 1.356 . S
N761 H766 0.984 . S
N761 H767 0.985 . S
C762 C756 1.379 . S
C762 C759 1.363 . S
C762 N760 1.356 . S
C763 C757 1.363 . S
C763 C758 1.379 . S
C763 N761 1.356 . S
N764 C756 1.356 . S
N764 H770 0.984 . S
N764 H771 0.984 . S
N765 C758 1.356 . S
N765 H768 0.984 . S
N765 H769 0.985 . S
H766 N761 0.984 . S
H767 N761 0.985 . S
H768 N765 0.984 . S
H769 N765 0.985 . S
H770 N764 0.984 . S
H771 N764 0.984 . S
H772 N760 0.984 . S
H773 N760 0.985 . S
C774 C775 1.363 . S
C774 C780 1.379 . S
C774 N782 1.356 . S
C775 C774 1.363 . S
C775 C781 1.363 . S
C776 C777 1.363 . S
C776 C781 1.379 . S
C776 N783 1.356 1_455 S
C777 C776 1.363 . S
C777 C780 1.363 . S
N778 C780 1.356 . S
N778 H790 0.984 . S
N778 H791 0.985 . S
N779 C781 1.356 1_554 S
N779 H784 0.984 . S
N779 H785 0.989 . S
C780 C774 1.379 . S
C780 C777 1.363 . S
C780 N778 1.356 . S
C781 C775 1.363 . S
C781 C776 1.379 . S
C781 N779 1.356 1_556 S
N782 C774 1.356 . S
N782 H788 0.984 . S
N782 H789 0.984 . S
N783 C776 1.356 1_655 S
N783 H786 0.984 . S
N783 H787 0.985 1_556 S
H784 N779 0.984 . S
H785 N779 0.989 . S
H786 N783 0.984 . S
H787 N783 0.985 1_554 S
H788 N782 0.984 . S
H789 N782 0.984 . S
H790 N778 0.984 . S
H791 N778 0.985 . S
C792 C793 1.363 . S
C792 C798 1.379 . S
C792 N800 1.356 1_556 S
C793 C792 1.363 . S
C793 C799 1.363 . S
C794 C795 1.363 . S
C794 C799 1.379 . S
C794 N801 1.356 . S
C795 C794 1.363 . S
C795 C798 1.363 . S
N796 C798 1.356 . S
N796 H808 0.984 1_556 S
N796 H809 0.985 . S
N797 C799 1.356 . S
N797 H802 0.984 . S
N797 H803 0.985 . S
C798 C792 1.379 . S
C798 C795 1.363 . S
C798 N796 1.356 . S
C799 C793 1.363 . S
C799 C794 1.379 . S
C799 N797 1.356 . S
N800 C792 1.356 1_554 S
N800 H806 0.984 . S
N800 H807 0.984 . S
N801 C794 1.356 . S
N801 H804 0.984 . S
N801 H805 0.985 . S
H802 N797 0.984 . S
H803 N797 0.985 . S
H804 N801 0.984 . S
H805 N801 0.985 . S
H806 N800 0.984 . S
H807 N800 0.984 . S
H808 N796 0.984 1_554 S
H809 N796 0.985 . S
C810 C811 1.363 . S
C810 C816 1.379 . S
C810 N818 1.356 . S
C811 C810 1.363 . S
C811 C817 1.363 . S
C812 C813 1.363 . S
C812 C817 1.379 . S
C812 N819 1.356 . S
C813 C812 1.363 . S
C813 C816 1.363 . S
N814 C816 1.356 . S
N814 H826 0.984 . S
N814 H827 0.985 . S
N815 C817 1.356 1_554 S
N815 H820 0.984 . S
N815 H821 0.985 . S
C816 C810 1.379 . S
C816 C813 1.363 . S
C816 N814 1.356 . S
C817 C811 1.363 . S
C817 C812 1.379 . S
C817 N815 1.356 1_556 S
N818 C810 1.356 . S
N818 H824 0.984 . S
N818 H825 0.984 . S
N819 C812 1.356 . S
N819 H822 0.984 . S
N819 H823 0.985 . S
H820 N815 0.984 . S
H821 N815 0.985 . S
H822 N819 0.984 . S
H823 N819 0.985 . S
H824 N818 0.984 . S
H825 N818 0.984 . S
H826 N814 0.984 . S
H827 N814 0.985 . S
C828 C829 1.363 . S
C828 C834 1.379 . S
C828 N836 1.356 . S
C829 C828 1.363 . S
C829 C835 1.363 1_545 S
C830 C831 1.363 1_565 S
C830 C835 1.379 . S
C830 N837 1.356 . S
C831 C830 1.363 1_545 S
C831 C834 1.363 . S
N832 C834 1.356 . S
N832 H844 0.984 . S
N832 H845 0.985 . S
N833 C835 1.356 . S
N833 H838 0.984 . S
N833 H839 0.985 . S
C834 C828 1.379 . S
C834 C831 1.363 . S
C834 N832 1.356 . S
C835 C829 1.363 1_565 S
C835 C830 1.379 . S
C835 N833 1.356 . S
N836 C828 1.356 . S
N836 H842 0.984 . S
N836 H843 0.984 . S
N837 C830 1.356 . S
N837 H840 0.984 . S
N837 H841 0.985 . S
H838 N833 0.984 . S
H839 N833 0.985 . S
H840 N837 0.984 . S
H841 N837 0.985 . S
H842 N836 0.984 . S
H843 N836 0.984 . S
H844 N832 0.984 . S
H845 N832 0.985 . S
C846 C847 1.363 . S
C846 C852 1.379 . S
C846 N854 1.356 . S
C847 C846 1.363 . S
C847 C853 1.363 . S
C848 C849 1.363 . S
C848 C853 1.379 . S
C848 N855 1.356 . S
C849 C848 1.363 . S
C849 C852 1.363 . S
N850 C852 1.356 . S
N850 H862 0.984 . S
N850 H863 0.985 . S
N851 C853 1.356 . S
N851 H856 0.984 . S
N851 H857 0.985 . S
C852 C846 1.379 . S
C852 C849 1.363 . S
C852 N850 1.356 . S
C853 C847 1.363 . S
C853 C848 1.379 . S
C853 N851 1.356 . S
N854 C846 1.356 . S
N854 H860 0.984 . S
N854 H861 0.984 . S
N855 C848 1.356 . S
N855 H858 0.984 . S
N855 H859 0.985 . S
H856 N851 0.984 . S
H857 N851 0.985 . S
H858 N855 0.984 . S
H859 N855 0.985 . S
H860 N854 0.984 . S
H861 N854 0.984 . S
H862 N850 0.984 . S
H863 N850 0.985 . S
C864 C865 1.363 . S
C864 C870 1.379 . S
C864 N872 1.356 . S
C865 C864 1.363 . S
C865 C871 1.363 . S
C866 C867 1.363 . S
C866 C871 1.379 . S
C866 N873 1.356 . S
C867 C866 1.363 . S
C867 C870 1.363 . S
N868 C870 1.356 . S
N868 H880 0.984 . S
N868 H881 0.985 . S
N869 C871 1.356 . S
N869 H874 0.984 . S
N869 H875 0.985 . S
C870 C864 1.379 . S
C870 C867 1.363 . S
C870 N868 1.356 . S
C871 C865 1.363 . S
C871 C866 1.379 . S
C871 N869 1.356 . S
N872 C864 1.356 . S
N872 H878 0.984 . S
N872 H879 0.984 . S
N873 C866 1.356 . S
N873 H876 0.984 . S
N873 H877 0.985 . S
H874 N869 0.984 . S
H875 N869 0.985 . S
H876 N873 0.984 . S
H877 N873 0.985 . S
H878 N872 0.984 . S
H879 N872 0.984 . S
H880 N868 0.984 . S
H881 N868 0.985 . S
C882 C883 1.363 . S
C882 C888 1.379 . S
C882 N890 1.356 . S
C883 C882 1.363 . S
C883 C889 1.363 . S
C884 C885 1.363 . S
C884 C889 1.379 . S
C884 N891 1.356 . S
C885 C884 1.363 . S
C885 C888 1.363 . S
N886 C888 1.356 . S
N886 H898 0.984 . S
N886 H899 0.985 . S
N887 C889 1.356 . S
N887 H892 0.984 . S
N887 H893 0.985 . S
C888 C882 1.379 . S
C888 C885 1.363 . S
C888 N886 1.356 . S
C889 C883 1.363 . S
C889 C884 1.379 . S
C889 N887 1.356 . S
N890 C882 1.356 . S
N890 H896 0.984 . S
N890 H897 0.984 . S
N891 C884 1.356 . S
N891 H894 0.984 . S
N891 H895 0.985 . S
H892 N887 0.984 . S
H893 N887 0.985 . S
H894 N891 0.984 . S
H895 N891 0.985 . S
H896 N890 0.984 . S
H897 N890 0.984 . S
H898 N886 0.984 . S
H899 N886 0.985 . S
C900 C901 1.363 . S
C900 C906 1.379 1_565 S
C900 N908 1.356 . S
C901 C900 1.363 . S
C901 C907 1.363 1_565 S
C902 C903 1.363 . S
C902 C907 1.379 . S
C902 N909 1.356 . S
C903 C902 1.363 . S
C903 C906 1.363 . S
N904 C906 1.356 . S
N904 H916 0.984 . S
N904 H917 0.985 . S
N905 C907 1.356 1_565 S
N905 H910 0.984 . S
N905 H911 0.985 1_565 S
C906 C900 1.379 1_545 S
C906 C903 1.363 . S
C906 N904 1.356 . S
C907 C901 1.363 1_545 S
C907 C902 1.379 . S
C907 N905 1.356 1_545 S
N908 C900 1.356 . S
N908 H914 0.984 . S
N908 H915 0.984 . S
N909 C902 1.356 . S
N909 H912 0.984 . S
N909 H913 0.985 . S
H910 N905 0.984 . S
H911 N905 0.985 1_545 S
H912 N909 0.984 . S
H913 N909 0.985 . S
H914 N908 0.984 . S
H915 N908 0.984 . S
H916 N904 0.984 . S
H917 N904 0.985 . S
C918 C919 1.363 . S
C918 C924 1.379 . S
C918 N926 1.356 . S
C919 C918 1.363 . S
C919 C925 1.363 . S
C920 C921 1.363 . S
C920 C925 1.379 . S
C920 N927 1.356 . S
C921 C920 1.363 . S
C921 C924 1.363 . S
N922 C924 1.356 . S
N922 H934 0.984 . S
N922 H935 0.985 . S
N923 C925 1.356 . S
N923 H928 0.984 . S
N923 H929 0.985 . S
C924 C918 1.379 . S
C924 C921 1.363 . S
C924 N922 1.356 . S
C925 C919 1.363 . S
C925 C920 1.379 . S
C925 N923 1.356 . S
N926 C918 1.356 . S
N926 H932 0.984 . S
N926 H933 0.984 . S
N927 C920 1.356 . S
N927 H930 0.984 . S
N927 H931 0.985 . S
H928 N923 0.984 . S
H929 N923 0.985 . S
H930 N927 0.984 . S
H931 N927 0.985 . S
H932 N926 0.984 . S
H933 N926 0.984 . S
H934 N922 0.984 . S
H935 N922 0.985 . S
C936 C937 1.363 . S
C936 C942 1.379 . S
C936 N944 1.356 . S
C937 C936 1.363 . S
C937 C943 1.363 . S
C938 C939 1.363 . S
C938 C943 1.379 . S
C938 N945 1.356 . S
C939 C938 1.363 . S
C939 C942 1.363 . S
N940 C942 1.356 . S
N940 H952 0.984 . S
N940 H953 0.985 . S
N941 C943 1.356 . S
N941 H946 0.984 . S
N941 H947 0.985 . S
C942 C936 1.379 . S
C942 C939 1.363 . S
C942 N940 1.356 . S
C943 C937 1.363 . S
C943 C938 1.379 . S
C943 N941 1.356 . S
N944 C936 1.356 . S
N944 H950 0.984 . S
N944 H951 0.984 . S
N945 C938 1.356 . S
N945 H948 0.984 . S
N945 H949 0.985 . S
H946 N941 0.984 . S
H947 N941 0.985 . S
H948 N945 0.984 . S
H949 N945 0.985 . S
H950 N944 0.984 . S
H951 N944 0.984 . S
H952 N940 0.984 . S
H953 N940 0.985 . S
C954 C955 1.363 . S
C954 C960 1.379 . S
C954 N962 1.356 . S
C955 C954 1.363 . S
C955 C961 1.363 . S
C956 C957 1.363 . S
C956 C961 1.379 . S
C956 N963 1.356 . S
C957 C956 1.363 . S
C957 C960 1.363 . S
N958 C960 1.356 . S
N958 H970 0.984 . S
N958 H971 0.985 . S
N959 C961 1.356 . S
N959 H964 0.984 . S
N959 H965 0.985 . S
C960 C954 1.379 . S
C960 C957 1.363 . S
C960 N958 1.356 . S
C961 C955 1.363 . S
C961 C956 1.379 . S
C961 N959 1.356 . S
N962 C954 1.356 . S
N962 H968 0.984 . S
N962 H969 0.984 . S
N963 C956 1.356 . S
N963 H966 0.984 . S
N963 H967 0.985 . S
H964 N959 0.984 . S
H965 N959 0.985 . S
H966 N963 0.984 . S
H967 N963 0.985 . S
H968 N962 0.984 . S
H969 N962 0.984 . S
H970 N958 0.984 . S
H971 N958 0.985 . S
C972 C973 1.363 . S
C972 C978 1.379 . S
C972 N980 1.356 . S
C973 C972 1.363 . S
C973 C979 1.363 . S
C974 C975 1.363 . S
C974 C979 1.379 . S
C974 N981 1.356 1_565 S
C975 C974 1.363 . S
C975 C978 1.363 . S
N976 C978 1.356 . S
N976 H988 0.984 . S
N976 H989 0.985 . S
N977 C979 1.356 . S
N977 H982 0.984 . S
N977 H983 0.985 . S
C978 C972 1.379 . S
C978 C975 1.363 . S
C978 N976 1.356 . S
C979 C973 1.363 . S
C979 C974 1.379 . S
C979 N977 1.356 . S
N980 C972 1.356 . S
N980 H986 0.984 . S
N980 H987 0.984 . S
N981 C974 1.356 1_545 S
N981 H984 0.984 . S
N981 H985 0.985 . S
H982 N977 0.984 . S
H983 N977 0.985 . S
H984 N981 0.984 . S
H985 N981 0.985 . S
H986 N980 0.984 . S
H987 N980 0.984 . S
H988 N976 0.984 . S
H989 N976 0.985 . S
C990 C991 1.363 . S
C990 C996 1.379 1_565 S
C990 N998 1.356 . S
C991 C990 1.363 . S
C991 C997 1.363 . S
C992 C993 1.363 . S
C992 C997 1.379 1_545 S
C992 N999 1.356 . S
C993 C992 1.363 . S
C993 C996 1.363 . S
N994 C996 1.356 . S
N994 H1006 0.984 . S
N994 H1007 0.985 . S
N995 C997 1.356 . S
N995 H1000 0.984 . S
N995 H1001 0.985 . S
C996 C990 1.379 1_545 S
C996 C993 1.363 . S
C996 N994 1.356 . S
C997 C991 1.363 . S
C997 C992 1.379 1_565 S
C997 N995 1.356 . S
N998 C990 1.356 . S
N998 H1004 0.984 . S
N998 H1005 0.984 . S
N999 C992 1.356 . S
N999 H1002 0.984 . S
N999 H1003 0.985 . S
H1000 N995 0.984 . S
H1001 N995 0.985 . S
H1002 N999 0.984 . S
H1003 N999 0.985 . S
H1004 N998 0.984 . S
H1005 N998 0.984 . S
H1006 N994 0.984 . S
H1007 N994 0.985 . S
C1008 C1009 1.363 . S
C1008 C1014 1.379 . S
C1008 N1016 1.356 . S
C1009 C1008 1.363 . S
C1009 C1015 1.363 . S
C1010 C1011 1.363 . S
C1010 C1015 1.379 . S
C1010 N1017 1.356 . S
C1011 C1010 1.363 . S
C1011 C1014 1.363 . S
N1012 C1014 1.356 . S
N1012 H1024 0.984 . S
N1012 H1025 0.985 . S
N1013 C1015 1.356 . S
N1013 H1018 0.984 . S
N1013 H1019 0.985 . S
C1014 C1008 1.379 . S
C1014 C1011 1.363 . S
C1014 N1012 1.356 . S
C1015 C1009 1.363 . S
C1015 C1010 1.379 . S
C1015 N1013 1.356 . S
N1016 C1008 1.356 . S
N1016 H1022 0.984 . S
N1016 H1023 0.984 . S
N1017 C1010 1.356 . S
N1017 H1020 0.984 . S
N1017 H1021 0.985 . S
H1018 N1013 0.984 . S
H1019 N1013 0.985 . S
H1020 N1017 0.984 . S
H1021 N1017 0.985 . S
H1022 N1016 0.984 . S
H1023 N1016 0.984 . S
H1024 N1012 0.984 . S
H1025 N1012 0.985 . S
C1026 C1027 1.363 . S
C1026 C1032 1.379 . S
C1026 N1034 1.356 . S
C1027 C1026 1.363 . S
C1027 C1033 1.363 . S
C1028 C1029 1.363 . S
C1028 C1033 1.379 . S
C1028 N1035 1.356 . S
C1029 C1028 1.363 . S
C1029 C1032 1.363 . S
N1030 C1032 1.356 . S
N1030 H1042 0.984 . S
N1030 H1043 0.985 . S
N1031 C1033 1.356 . S
N1031 H1036 0.984 . S
N1031 H1037 0.985 . S
C1032 C1026 1.379 . S
C1032 C1029 1.363 . S
C1032 N1030 1.356 . S
C1033 C1027 1.363 . S
C1033 C1028 1.379 . S
C1033 N1031 1.356 . S
N1034 C1026 1.356 . S
N1034 H1040 0.984 . S
N1034 H1041 0.984 . S
N1035 C1028 1.356 . S
N1035 H1038 0.984 . S
N1035 H1039 0.985 . S
H1036 N1031 0.984 . S
H1037 N1031 0.985 . S
H1038 N1035 0.984 . S
H1039 N1035 0.985 . S
H1040 N1034 0.984 . S
H1041 N1034 0.984 . S
H1042 N1030 0.984 . S
H1043 N1030 0.985 . S
C1044 C1045 1.363 . S
C1044 C1050 1.379 . S
C1044 N1052 1.356 . S
C1045 C1044 1.363 . S
C1045 C1051 1.363 . S
C1046 C1047 1.363 . S
C1046 C1051 1.379 . S
C1046 N1053 1.356 . S
C1047 C1046 1.363 . S
C1047 C1050 1.363 . S
N1048 C1050 1.356 . S
N1048 H1060 0.984 . S
N1048 H1061 0.985 . S
N1049 C1051 1.356 . S
N1049 H1054 0.984 . S
N1049 H1055 0.985 . S
C1050 C1044 1.379 . S
C1050 C1047 1.363 . S
C1050 N1048 1.356 . S
C1051 C1045 1.363 . S
C1051 C1046 1.379 . S
C1051 N1049 1.356 . S
N1052 C1044 1.356 . S
N1052 H1058 0.984 . S
N1052 H1059 0.984 . S
N1053 C1046 1.356 . S
N1053 H1056 0.984 . S
N1053 H1057 0.985 . S
H1054 N1049 0.984 . S
H1055 N1049 0.985 . S
H1056 N1053 0.984 . S
H1057 N1053 0.985 . S
H1058 N1052 0.984 . S
H1059 N1052 0.984 . S
H1060 N1048 0.984 . S
H1061 N1048 0.985 . S
C1062 C1063 1.363 . S
C1062 C1068 1.379 1_565 S
C1062 N1070 1.356 . S
C1063 C1062 1.363 . S
C1063 C1069 1.363 1_565 S
C1064 C1065 1.363 . S
C1064 C1069 1.379 . S
C1064 N1071 1.356 . S
C1065 C1064 1.363 . S
C1065 C1068 1.363 . S
N1066 C1068 1.356 . S
N1066 H1078 0.984 1_545 S
N1066 H1079 0.985 . S
N1067 C1069 1.356 . S
N1067 H1072 1.030 . S
N1067 H1073 0.985 . S
C1068 C1062 1.379 1_545 S
C1068 C1065 1.363 . S
C1068 N1066 1.356 . S
C1069 C1063 1.363 1_545 S
C1069 C1064 1.379 . S
C1069 N1067 1.356 . S
N1070 C1062 1.356 . S
N1070 H1076 0.984 . S
N1070 H1077 0.984 . S
N1071 C1064 1.356 . S
N1071 H1074 0.984 . S
N1071 H1075 0.985 . S
H1072 N1067 1.030 . S
H1073 N1067 0.985 . S
H1074 N1071 0.984 . S
H1075 N1071 0.985 . S
H1076 N1070 0.984 . S
H1077 N1070 0.984 . S
H1078 N1066 0.984 1_565 S
H1079 N1066 0.985 . S
C1080 C1081 1.363 . S
C1080 C1086 1.379 . S
C1080 N1088 1.356 . S
C1081 C1080 1.363 . S
C1081 C1087 1.363 . S
C1082 C1083 1.363 . S
C1082 C1087 1.379 . S
C1082 N1089 1.356 . S
C1083 C1082 1.363 . S
C1083 C1086 1.363 . S
N1084 C1086 1.356 . S
N1084 H1096 0.984 . S
N1084 H1097 0.985 . S
N1085 C1087 1.356 . S
N1085 H1090 0.984 . S
N1085 H1091 0.985 . S
C1086 C1080 1.379 . S
C1086 C1083 1.363 . S
C1086 N1084 1.356 . S
C1087 C1081 1.363 . S
C1087 C1082 1.379 . S
C1087 N1085 1.356 . S
N1088 C1080 1.356 . S
N1088 H1094 0.984 . S
N1088 H1095 0.984 . S
N1089 C1082 1.356 . S
N1089 H1092 0.984 . S
N1089 H1093 0.985 . S
H1090 N1085 0.984 . S
H1091 N1085 0.985 . S
H1092 N1089 0.984 . S
H1093 N1089 0.985 . S
H1094 N1088 0.984 . S
H1095 N1088 0.984 . S
H1096 N1084 0.984 . S
H1097 N1084 0.985 . S
C1098 C1099 1.363 . S
C1098 C1104 1.379 . S
C1098 N1106 1.356 . S
C1099 C1098 1.363 . S
C1099 C1105 1.363 . S
C1100 C1101 1.363 . S
C1100 C1105 1.379 . S
C1100 N1107 1.356 . S
C1101 C1100 1.363 . S
C1101 C1104 1.363 . S
N1102 C1104 1.356 . S
N1102 H1114 0.984 . S
N1102 H1115 0.985 . S
N1103 C1105 1.356 . S
N1103 H1108 0.984 . S
N1103 H1109 0.985 . S
C1104 C1098 1.379 . S
C1104 C1101 1.363 . S
C1104 N1102 1.356 . S
C1105 C1099 1.363 . S
C1105 C1100 1.379 . S
C1105 N1103 1.356 . S
N1106 C1098 1.356 . S
N1106 H1112 0.984 . S
N1106 H1113 0.984 . S
N1107 C1100 1.356 . S
N1107 H1110 0.984 . S
N1107 H1111 0.985 . S
H1108 N1103 0.984 . S
H1109 N1103 0.985 . S
H1110 N1107 0.984 . S
H1111 N1107 0.985 . S
H1112 N1106 0.984 . S
H1113 N1106 0.984 . S
H1114 N1102 0.984 . S
H1115 N1102 0.985 . S
C1116 C1117 1.363 . S
C1116 C1122 1.379 . S
C1116 N1124 1.356 . S
C1117 C1116 1.363 . S
C1117 C1123 1.363 . S
C1118 C1119 1.363 . S
C1118 C1123 1.379 . S
C1118 N1125 1.356 . S
C1119 C1118 1.363 . S
C1119 C1122 1.363 . S
N1120 C1122 1.356 . S
N1120 H1132 1.016 . S
N1120 H1133 0.986 . S
N1121 C1123 1.356 . S
N1121 H1126 0.984 . S
N1121 H1127 0.985 . S
C1122 C1116 1.379 . S
C1122 C1119 1.363 . S
C1122 N1120 1.356 . S
C1123 C1117 1.363 . S
C1123 C1118 1.379 . S
C1123 N1121 1.356 . S
N1124 C1116 1.356 . S
N1124 H1130 0.984 . S
N1124 H1131 0.984 . S
N1125 C1118 1.356 . S
N1125 H1128 0.984 . S
N1125 H1129 0.985 . S
H1126 N1121 0.984 . S
H1127 N1121 0.985 . S
H1128 N1125 0.984 . S
H1129 N1125 0.985 . S
H1130 N1124 0.984 . S
H1131 N1124 0.984 . S
H1132 N1120 1.016 . S
H1133 N1120 0.986 . S
C1134 C1135 1.363 . S
C1134 C1140 1.379 . S
C1134 N1142 1.356 . S
C1135 C1134 1.363 . S
C1135 C1141 1.363 . S
C1136 C1137 1.363 . S
C1136 C1141 1.379 . S
C1136 N1143 1.356 . S
C1137 C1136 1.363 . S
C1137 C1140 1.363 . S
N1138 C1140 1.356 . S
N1138 H1150 0.984 . S
N1138 H1151 0.985 . S
N1139 C1141 1.356 . S
N1139 H1144 0.984 . S
N1139 H1145 0.985 . S
C1140 C1134 1.379 . S
C1140 C1137 1.363 . S
C1140 N1138 1.356 . S
C1141 C1135 1.363 . S
C1141 C1136 1.379 . S
C1141 N1139 1.356 . S
N1142 C1134 1.356 . S
N1142 H1148 0.984 . S
N1142 H1149 0.984 . S
N1143 C1136 1.356 . S
N1143 H1146 0.984 . S
N1143 H1147 0.985 . S
H1144 N1139 0.984 . S
H1145 N1139 0.985 . S
H1146 N1143 0.984 . S
H1147 N1143 0.985 . S
H1148 N1142 0.984 . S
H1149 N1142 0.984 . S
H1150 N1138 0.984 . S
H1151 N1138 0.985 . S
C1152 C1153 1.363 . S
C1152 C1158 1.379 . S
C1152 N1160 1.356 . S
C1153 C1152 1.363 . S
C1153 C1159 1.363 . S
C1154 C1155 1.363 . S
C1154 C1159 1.379 . S
C1154 N1161 1.356 . S
C1155 C1154 1.363 . S
C1155 C1158 1.363 . S
N1156 C1158 1.356 . S
N1156 H1168 0.984 . S
N1156 H1169 0.985 . S
N1157 C1159 1.356 . S
N1157 H1162 0.984 . S
N1157 H1163 0.985 . S
C1158 C1152 1.379 . S
C1158 C1155 1.363 . S
C1158 N1156 1.356 . S
C1159 C1153 1.363 . S
C1159 C1154 1.379 . S
C1159 N1157 1.356 . S
N1160 C1152 1.356 . S
N1160 H1166 0.984 . S
N1160 H1167 0.984 . S
N1161 C1154 1.356 . S
N1161 H1164 0.984 . S
N1161 H1165 0.985 . S
H1162 N1157 0.984 . S
H1163 N1157 0.985 . S
H1164 N1161 0.984 . S
H1165 N1161 0.985 . S
H1166 N1160 0.984 . S
H1167 N1160 0.984 . S
H1168 N1156 0.984 . S
H1169 N1156 0.985 . S
C1170 C1171 1.363 . S
C1170 C1176 1.379 . S
C1170 N1178 1.356 . S
C1171 C1170 1.363 . S
C1171 C1177 1.363 . S
C1172 C1173 1.363 . S
C1172 C1177 1.379 . S
C1172 N1179 1.356 . S
C1173 C1172 1.363 . S
C1173 C1176 1.363 . S
N1174 C1176 1.356 . S
N1174 H1186 0.984 . S
N1174 H1187 0.985 . S
N1175 C1177 1.356 . S
N1175 H1180 0.984 . S
N1175 H1181 0.985 . S
C1176 C1170 1.379 . S
C1176 C1173 1.363 . S
C1176 N1174 1.356 . S
C1177 C1171 1.363 . S
C1177 C1172 1.379 . S
C1177 N1175 1.356 . S
N1178 C1170 1.356 . S
N1178 H1184 0.984 . S
N1178 H1185 0.984 . S
N1179 C1172 1.356 . S
N1179 H1182 0.984 . S
N1179 H1183 0.985 . S
H1180 N1175 0.984 . S
H1181 N1175 0.985 . S
H1182 N1179 0.984 . S
H1183 N1179 0.985 . S
H1184 N1178 0.984 . S
H1185 N1178 0.984 . S
H1186 N1174 0.984 . S
H1187 N1174 0.985 . S
C1188 C1189 1.363 . S
C1188 C1194 1.379 . S
C1188 N1196 1.356 . S
C1189 C1188 1.363 . S
C1189 C1195 1.363 . S
C1190 C1191 1.363 . S
C1190 C1195 1.379 . S
C1190 N1197 1.356 . S
C1191 C1190 1.363 . S
C1191 C1194 1.363 . S
N1192 C1194 1.356 . S
N1192 H1204 0.984 . S
N1192 H1205 0.985 . S
N1193 C1195 1.356 . S
N1193 H1198 0.984 . S
N1193 H1199 0.985 . S
C1194 C1188 1.379 . S
C1194 C1191 1.363 . S
C1194 N1192 1.356 . S
C1195 C1189 1.363 . S
C1195 C1190 1.379 . S
C1195 N1193 1.356 . S
N1196 C1188 1.356 . S
N1196 H1202 0.984 . S
N1196 H1203 0.984 . S
N1197 C1190 1.356 . S
N1197 H1200 0.984 . S
N1197 H1201 0.985 . S
H1198 N1193 0.984 . S
H1199 N1193 0.985 . S
H1200 N1197 0.984 . S
H1201 N1197 0.985 . S
H1202 N1196 0.984 . S
H1203 N1196 0.984 . S
H1204 N1192 0.984 . S
H1205 N1192 0.985 . S
C1206 C1207 1.363 . S
C1206 C1212 1.379 . S
C1206 N1214 1.356 . S
C1207 C1206 1.363 . S
C1207 C1213 1.363 . S
C1208 C1209 1.363 . S
C1208 C1213 1.379 . S
C1208 N1215 1.356 . S
C1209 C1208 1.363 . S
C1209 C1212 1.363 . S
N1210 C1212 1.356 . S
N1210 H1222 0.984 . S
N1210 H1223 0.985 . S
N1211 C1213 1.356 . S
N1211 H1216 0.984 . S
N1211 H1217 0.985 . S
C1212 C1206 1.379 . S
C1212 C1209 1.363 . S
C1212 N1210 1.356 . S
C1213 C1207 1.363 . S
C1213 C1208 1.379 . S
C1213 N1211 1.356 . S
N1214 C1206 1.356 . S
N1214 H1220 0.984 . S
N1214 H1221 0.984 . S
N1215 C1208 1.356 . S
N1215 H1218 0.984 . S
N1215 H1219 0.985 . S
H1216 N1211 0.984 . S
H1217 N1211 0.985 . S
H1218 N1215 0.984 . S
H1219 N1215 0.985 . S
H1220 N1214 0.984 . S
H1221 N1214 0.984 . S
H1222 N1210 0.984 . S
H1223 N1210 0.985 . S
C1224 C1225 1.363 . S
C1224 C1230 1.379 . S
C1224 N1232 1.356 . S
C1225 C1224 1.363 . S
C1225 C1231 1.363 . S
C1226 C1227 1.363 . S
C1226 C1231 1.379 . S
C1226 N1233 1.356 . S
C1227 C1226 1.363 . S
C1227 C1230 1.363 . S
N1228 C1230 1.356 . S
N1228 H1240 0.984 . S
N1228 H1241 0.985 . S
N1229 C1231 1.356 . S
N1229 H1234 0.984 . S
N1229 H1235 0.985 . S
C1230 C1224 1.379 . S
C1230 C1227 1.363 . S
C1230 N1228 1.356 . S
C1231 C1225 1.363 . S
C1231 C1226 1.379 . S
C1231 N1229 1.356 . S
N1232 C1224 1.356 . S
N1232 H1238 0.984 . S
N1232 H1239 0.984 . S
N1233 C1226 1.356 . S
N1233 H1236 0.984 . S
N1233 H1237 0.985 . S
H1234 N1229 0.984 . S
H1235 N1229 0.985 . S
H1236 N1233 0.984 . S
H1237 N1233 0.985 . S
H1238 N1232 0.984 . S
H1239 N1232 0.984 . S
H1240 N1228 0.984 . S
H1241 N1228 0.985 . S
C1242 C1243 1.363 . S
C1242 C1248 1.379 . S
C1242 N1250 1.356 . S
C1243 C1242 1.363 . S
C1243 C1249 1.363 . S
C1244 C1245 1.363 . S
C1244 C1249 1.379 . S
C1244 N1251 1.356 . S
C1245 C1244 1.363 . S
C1245 C1248 1.363 . S
N1246 C1248 1.356 1_455 S
N1246 H1258 0.984 . S
N1246 H1259 0.985 . S
N1247 C1249 1.356 . S
N1247 H1252 0.984 . S
N1247 H1253 0.985 . S
C1248 C1242 1.379 . S
C1248 C1245 1.363 . S
C1248 N1246 1.356 1_655 S
C1249 C1243 1.363 . S
C1249 C1244 1.379 . S
C1249 N1247 1.356 . S
N1250 C1242 1.356 . S
N1250 H1256 0.984 . S
N1250 H1257 0.984 . S
N1251 C1244 1.356 . S
N1251 H1254 0.984 1_655 S
N1251 H1255 0.985 . S
H1252 N1247 0.984 . S
H1253 N1247 0.985 . S
H1254 N1251 0.984 1_455 S
H1255 N1251 0.985 . S
H1256 N1250 0.984 . S
H1257 N1250 0.984 . S
H1258 N1246 0.984 . S
H1259 N1246 0.985 . S
C1260 C1261 1.363 . S
C1260 C1266 1.379 . S
C1260 N1268 1.356 . S
C1261 C1260 1.363 . S
C1261 C1267 1.363 . S
C1262 C1263 1.363 . S
C1262 C1267 1.379 . S
C1262 N1269 1.356 . S
C1263 C1262 1.363 . S
C1263 C1266 1.363 . S
N1264 C1266 1.356 . S
N1264 H1276 0.984 . S
N1264 H1277 0.985 . S
N1265 C1267 1.356 . S
N1265 H1270 0.984 . S
N1265 H1271 0.985 . S
C1266 C1260 1.379 . S
C1266 C1263 1.363 . S
C1266 N1264 1.356 . S
C1267 C1261 1.363 . S
C1267 C1262 1.379 . S
C1267 N1265 1.356 . S
N1268 C1260 1.356 . S
N1268 H1274 0.984 . S
N1268 H1275 0.984 . S
N1269 C1262 1.356 . S
N1269 H1272 0.984 . S
N1269 H1273 0.985 . S
H1270 N1265 0.984 . S
H1271 N1265 0.985 . S
H1272 N1269 0.984 . S
H1273 N1269 0.985 . S
H1274 N1268 0.984 . S
H1275 N1268 0.984 . S
H1276 N1264 0.984 . S
H1277 N1264 0.985 . S
C1278 C1279 1.363 . S
C1278 C1284 1.379 . S
C1278 N1286 1.356 . S
C1279 C1278 1.363 . S
C1279 C1285 1.363 . S
C1280 C1281 1.363 . S
C1280 C1285 1.379 . S
C1280 N1287 1.356 . S
C1281 C1280 1.363 . S
C1281 C1284 1.363 . S
N1282 C1284 1.356 . S
N1282 H1294 0.984 . S
N1282 H1295 0.985 . S
N1283 C1285 1.356 . S
N1283 H1288 0.984 . S
N1283 H1289 0.985 . S
C1284 C1278 1.379 . S
C1284 C1281 1.363 . S
C1284 N1282 1.356 . S
C1285 C1279 1.363 . S
C1285 C1280 1.379 . S
C1285 N1283 1.356 . S
N1286 C1278 1.356 . S
N1286 H1292 0.984 . S
N1286 H1293 0.984 . S
N1287 C1280 1.356 . S
N1287 H1290 0.984 . S
N1287 H1291 0.985 . S
H1288 N1283 0.984 . S
H1289 N1283 0.985 . S
H1290 N1287 0.984 . S
H1291 N1287 0.985 . S
H1292 N1286 0.984 . S
H1293 N1286 0.984 . S
H1294 N1282 0.984 . S
H1295 N1282 0.985 . S
C1296 C1297 1.363 . S
C1296 C1302 1.379 . S
C1296 N1304 1.356 . S
C1297 C1296 1.363 . S
C1297 C1303 1.363 . S
C1298 C1299 1.363 . S
C1298 C1303 1.379 . S
C1298 N1305 1.356 . S
C1299 C1298 1.363 . S
C1299 C1302 1.363 . S
N1300 C1302 1.356 . S
N1300 H1312 0.984 . S
N1300 H1313 0.985 . S
N1301 C1303 1.356 . S
N1301 H1306 0.984 . S
N1301 H1307 0.985 . S
C1302 C1296 1.379 . S
C1302 C1299 1.363 . S
C1302 N1300 1.356 . S
C1303 C1297 1.363 . S
C1303 C1298 1.379 . S
C1303 N1301 1.356 . S
N1304 C1296 1.356 . S
N1304 H1310 0.984 . S
N1304 H1311 0.984 . S
N1305 C1298 1.356 . S
N1305 H1308 0.984 . S
N1305 H1309 0.985 . S
H1306 N1301 0.984 . S
H1307 N1301 0.985 . S
H1308 N1305 0.984 . S
H1309 N1305 0.985 . S
H1310 N1304 0.984 . S
H1311 N1304 0.984 . S
H1312 N1300 0.984 . S
H1313 N1300 0.985 . S
C1314 C1315 1.363 . S
C1314 C1320 1.379 . S
C1314 N1322 1.356 . S
C1315 C1314 1.363 . S
C1315 C1321 1.363 . S
C1316 C1317 1.363 . S
C1316 C1321 1.379 . S
C1316 N1323 1.356 . S
C1317 C1316 1.363 . S
C1317 C1320 1.363 . S
N1318 C1320 1.356 . S
N1318 H1330 0.984 . S
N1318 H1331 0.985 . S
N1319 C1321 1.356 . S
N1319 H1324 0.984 . S
N1319 H1325 0.985 . S
C1320 C1314 1.379 . S
C1320 C1317 1.363 . S
C1320 N1318 1.356 . S
C1321 C1315 1.363 . S
C1321 C1316 1.379 . S
C1321 N1319 1.356 . S
N1322 C1314 1.356 . S
N1322 H1328 0.984 . S
N1322 H1329 0.984 . S
N1323 C1316 1.356 . S
N1323 H1326 0.984 . S
N1323 H1327 0.985 1_455 S
H1324 N1319 0.984 . S
H1325 N1319 0.985 . S
H1326 N1323 0.984 . S
H1327 N1323 0.985 1_655 S
H1328 N1322 0.984 . S
H1329 N1322 0.984 . S
H1330 N1318 0.984 . S
H1331 N1318 0.985 . S
C1332 C1333 1.363 . S
C1332 C1338 1.379 . S
C1332 N1340 1.356 . S
C1333 C1332 1.363 . S
C1333 C1339 1.363 . S
C1334 C1335 1.363 . S
C1334 C1339 1.379 . S
C1334 N1341 1.356 . S
C1335 C1334 1.363 . S
C1335 C1338 1.363 . S
N1336 C1338 1.356 . S
N1336 H1348 0.984 . S
N1336 H1349 0.985 . S
N1337 C1339 1.356 . S
N1337 H1342 0.984 . S
N1337 H1343 0.985 . S
C1338 C1332 1.379 . S
C1338 C1335 1.363 . S
C1338 N1336 1.356 . S
C1339 C1333 1.363 . S
C1339 C1334 1.379 . S
C1339 N1337 1.356 . S
N1340 C1332 1.356 . S
N1340 H1346 0.984 . S
N1340 H1347 0.984 . S
N1341 C1334 1.356 . S
N1341 H1344 0.984 . S
N1341 H1345 0.985 . S
H1342 N1337 0.984 . S
H1343 N1337 0.985 . S
H1344 N1341 0.984 . S
H1345 N1341 0.985 . S
H1346 N1340 0.984 . S
H1347 N1340 0.984 . S
H1348 N1336 0.984 . S
H1349 N1336 0.985 . S
C1350 C1351 1.363 . S
C1350 C1356 1.379 . S
C1350 N1358 1.356 . S
C1351 C1350 1.363 . S
C1351 C1357 1.363 . S
C1352 C1353 1.363 . S
C1352 C1357 1.379 . S
C1352 N1359 1.356 . S
C1353 C1352 1.363 . S
C1353 C1356 1.363 . S
N1354 C1356 1.356 . S
N1354 H1366 0.984 . S
N1354 H1367 0.985 . S
N1355 C1357 1.356 1_565 S
N1355 H1360 0.983 . S
N1355 H1361 0.985 . S
C1356 C1350 1.379 . S
C1356 C1353 1.363 . S
C1356 N1354 1.356 . S
C1357 C1351 1.363 . S
C1357 C1352 1.379 . S
C1357 N1355 1.356 1_545 S
N1358 C1350 1.356 . S
N1358 H1364 0.984 . S
N1358 H1365 0.984 . S
N1359 C1352 1.356 . S
N1359 H1362 0.984 . S
N1359 H1363 0.985 1_545 S
H1360 N1355 0.983 . S
H1361 N1355 0.985 . S
H1362 N1359 0.984 . S
H1363 N1359 0.985 1_565 S
H1364 N1358 0.984 . S
H1365 N1358 0.984 . S
H1366 N1354 0.984 . S
H1367 N1354 0.985 . S
C1368 C1369 1.363 . S
C1368 C1374 1.379 . S
C1368 N1376 1.356 . S
C1369 C1368 1.363 . S
C1369 C1375 1.363 . S
C1370 C1371 1.363 . S
C1370 C1375 1.379 . S
C1370 N1377 1.356 1_545 S
C1371 C1370 1.363 . S
C1371 C1374 1.363 . S
N1372 C1374 1.356 . S
N1372 H1384 0.984 . S
N1372 H1385 0.985 . S
N1373 C1375 1.356 1_565 S
N1373 H1378 0.984 1_565 S
N1373 H1379 0.985 . S
C1374 C1368 1.379 . S
C1374 C1371 1.363 . S
C1374 N1372 1.356 . S
C1375 C1369 1.363 . S
C1375 C1370 1.379 . S
C1375 N1373 1.356 1_545 S
N1376 C1368 1.356 . S
N1376 H1382 0.984 . S
N1376 H1383 0.984 . S
N1377 C1370 1.356 1_565 S
N1377 H1380 0.984 . S
N1377 H1381 0.985 . S
H1378 N1373 0.984 1_545 S
H1379 N1373 0.985 . S
H1380 N1377 0.984 . S
H1381 N1377 0.985 . S
H1382 N1376 0.984 . S
H1383 N1376 0.984 . S
H1384 N1372 0.984 . S
H1385 N1372 0.985 . S
C1386 C1387 1.363 . S
C1386 C1392 1.379 . S
C1386 N1394 1.356 . S
C1387 C1386 1.363 . S
C1387 C1393 1.363 . S
C1388 C1389 1.363 . S
C1388 C1393 1.379 . S
C1388 N1395 1.356 . S
C1389 C1388 1.363 . S
C1389 C1392 1.363 . S
N1390 C1392 1.356 . S
N1390 H1402 0.984 . S
N1390 H1403 0.985 . S
N1391 C1393 1.356 . S
N1391 H1396 0.984 . S
N1391 H1397 0.985 . S
C1392 C1386 1.379 . S
C1392 C1389 1.363 . S
C1392 N1390 1.356 . S
C1393 C1387 1.363 . S
C1393 C1388 1.379 . S
C1393 N1391 1.356 . S
N1394 C1386 1.356 . S
N1394 H1400 0.984 . S
N1394 H1401 0.984 . S
N1395 C1388 1.356 . S
N1395 H1398 0.984 . S
N1395 H1399 0.985 . S
H1396 N1391 0.984 . S
H1397 N1391 0.985 . S
H1398 N1395 0.984 . S
H1399 N1395 0.985 . S
H1400 N1394 0.984 . S
H1401 N1394 0.984 . S
H1402 N1390 0.984 . S
H1403 N1390 0.985 . S
C1404 C1405 1.363 . S
C1404 C1410 1.379 . S
C1404 N1412 1.356 . S
C1405 C1404 1.363 . S
C1405 C1411 1.363 . S
C1406 C1407 1.363 . S
C1406 C1411 1.379 . S
C1406 N1413 1.356 . S
C1407 C1406 1.363 . S
C1407 C1410 1.363 . S
N1408 C1410 1.356 . S
N1408 H1420 0.984 . S
N1408 H1421 0.985 . S
N1409 C1411 1.356 . S
N1409 H1414 0.984 . S
N1409 H1415 0.985 . S
C1410 C1404 1.379 . S
C1410 C1407 1.363 . S
C1410 N1408 1.356 . S
C1411 C1405 1.363 . S
C1411 C1406 1.379 . S
C1411 N1409 1.356 . S
N1412 C1404 1.356 . S
N1412 H1418 0.984 . S
N1412 H1419 0.984 . S
N1413 C1406 1.356 . S
N1413 H1416 0.984 . S
N1413 H1417 0.985 . S
H1414 N1409 0.984 . S
H1415 N1409 0.985 . S
H1416 N1413 0.984 . S
H1417 N1413 0.985 . S
H1418 N1412 0.984 . S
H1419 N1412 0.984 . S
H1420 N1408 0.984 . S
H1421 N1408 0.985 . S
C1422 C1423 1.363 . S
C1422 C1428 1.379 . S
C1422 N1430 1.356 . S
C1423 C1422 1.363 . S
C1423 C1429 1.363 . S
C1424 C1425 1.364 . S
C1424 C1429 1.381 . S
C1424 N1431 1.353 1_455 S
C1425 C1424 1.364 . S
C1425 C1428 1.363 . S
N1426 C1428 1.356 . S
N1426 H1438 0.984 . S
N1426 H1439 0.985 . S
N1427 C1429 1.356 1_655 S
N1427 H1432 0.984 1_655 S
N1427 H1433 0.985 . S
C1428 C1422 1.379 . S
C1428 C1425 1.363 . S
C1428 N1426 1.356 . S
C1429 C1423 1.363 . S
C1429 C1424 1.381 . S
C1429 N1427 1.356 1_455 S
N1430 C1422 1.356 . S
N1430 H1436 0.984 . S
N1430 H1437 0.984 . S
N1431 C1424 1.353 1_655 S
N1431 H1434 0.984 . S
N1431 H1435 0.985 . S
H1432 N1427 0.984 1_455 S
H1433 N1427 0.985 . S
H1434 N1431 0.984 . S
H1435 N1431 0.985 . S
H1436 N1430 0.984 . S
H1437 N1430 0.984 . S
H1438 N1426 0.984 . S
H1439 N1426 0.985 . S
C1440 C1441 1.363 . S
C1440 C1446 1.379 . S
C1440 N1448 1.356 . S
C1441 C1440 1.363 . S
C1441 C1447 1.363 . S
C1442 C1443 1.363 . S
C1442 C1447 1.379 . S
C1442 N1449 1.356 . S
C1443 C1442 1.363 . S
C1443 C1446 1.363 . S
N1444 C1446 1.356 . S
N1444 H1456 0.984 . S
N1444 H1457 0.985 . S
N1445 C1447 1.356 . S
N1445 H1450 0.984 . S
N1445 H1451 0.985 . S
C1446 C1440 1.379 . S
C1446 C1443 1.363 . S
C1446 N1444 1.356 . S
C1447 C1441 1.363 . S
C1447 C1442 1.379 . S
C1447 N1445 1.356 . S
N1448 C1440 1.356 . S
N1448 H1454 0.984 . S
N1448 H1455 0.984 . S
N1449 C1442 1.356 . S
N1449 H1452 0.984 . S
N1449 H1453 0.985 . S
H1450 N1445 0.984 . S
H1451 N1445 0.985 . S
H1452 N1449 0.984 . S
H1453 N1449 0.985 . S
H1454 N1448 0.984 . S
H1455 N1448 0.984 . S
H1456 N1444 0.984 . S
H1457 N1444 0.985 . S
C1458 C1459 1.363 . S
C1458 C1464 1.379 . S
C1458 N1466 1.356 . S
C1459 C1458 1.363 . S
C1459 C1465 1.363 . S
C1460 C1461 1.363 . S
C1460 C1465 1.379 . S
C1460 N1467 1.356 . S
C1461 C1460 1.363 . S
C1461 C1464 1.363 . S
N1462 C1464 1.356 . S
N1462 H1474 0.984 . S
N1462 H1475 0.985 . S
N1463 C1465 1.356 . S
N1463 H1468 0.984 . S
N1463 H1469 0.985 1_545 S
C1464 C1458 1.379 . S
C1464 C1461 1.363 . S
C1464 N1462 1.356 . S
C1465 C1459 1.363 . S
C1465 C1460 1.379 . S
C1465 N1463 1.356 . S
N1466 C1458 1.356 . S
N1466 H1472 0.984 . S
N1466 H1473 0.984 . S
N1467 C1460 1.356 . S
N1467 H1470 0.984 . S
N1467 H1471 0.972 1_545 S
H1468 N1463 0.984 . S
H1469 N1463 0.985 1_565 S
H1470 N1467 0.984 . S
H1471 N1467 0.972 1_565 S
H1472 N1466 0.984 . S
H1473 N1466 0.984 . S
H1474 N1462 0.984 . S
H1475 N1462 0.985 . S
C1476 C1477 1.363 . S
C1476 C1482 1.379 . S
C1476 N1484 1.356 . S
C1477 C1476 1.363 . S
C1477 C1483 1.363 . S
C1478 C1479 1.363 . S
C1478 C1483 1.379 . S
C1478 N1485 1.356 . S
C1479 C1478 1.363 . S
C1479 C1482 1.363 . S
N1480 C1482 1.356 . S
N1480 H1492 0.984 . S
N1480 H1493 0.985 . S
N1481 C1483 1.356 . S
N1481 H1486 0.984 . S
N1481 H1487 0.985 . S
C1482 C1476 1.379 . S
C1482 C1479 1.363 . S
C1482 N1480 1.356 . S
C1483 C1477 1.363 . S
C1483 C1478 1.379 . S
C1483 N1481 1.356 . S
N1484 C1476 1.356 . S
N1484 H1490 0.984 . S
N1484 H1491 0.984 . S
N1485 C1478 1.356 . S
N1485 H1488 0.984 . S
N1485 H1489 0.985 . S
H1486 N1481 0.984 . S
H1487 N1481 0.985 . S
H1488 N1485 0.984 . S
H1489 N1485 0.985 . S
H1490 N1484 0.984 . S
H1491 N1484 0.984 . S
H1492 N1480 0.984 . S
H1493 N1480 0.985 . S
C1494 C1495 1.363 . S
C1494 C1500 1.371 1_455 S
C1494 N1502 1.356 . S
C1495 C1494 1.363 . S
C1495 C1501 1.363 . S
C1496 C1497 1.363 . S
C1496 C1501 1.379 . S
C1496 N1503 1.356 . S
C1497 C1496 1.363 . S
C1497 C1500 1.364 1_455 S
N1498 C1500 1.364 . S
N1498 H1510 0.984 . S
N1498 H1511 0.985 . S
N1499 C1501 1.356 . S
N1499 H1504 0.984 . S
N1499 H1505 0.985 . S
C1500 C1494 1.371 1_655 S
C1500 C1497 1.364 1_655 S
C1500 N1498 1.364 . S
C1501 C1495 1.363 . S
C1501 C1496 1.379 . S
C1501 N1499 1.356 . S
N1502 C1494 1.356 . S
N1502 H1508 0.984 1_455 S
N1502 H1509 0.984 . S
N1503 C1496 1.356 . S
N1503 H1506 0.984 . S
N1503 H1507 0.985 . S
H1504 N1499 0.984 . S
H1505 N1499 0.985 . S
H1506 N1503 0.984 . S
H1507 N1503 0.985 . S
H1508 N1502 0.984 1_655 S
H1509 N1502 0.984 . S
H1510 N1498 0.984 . S
H1511 N1498 0.985 . S
C1512 C1513 1.363 . S
C1512 C1518 1.379 . S
C1512 N1520 1.356 . S
C1513 C1512 1.363 . S
C1513 C1519 1.363 . S
C1514 C1515 1.363 . S
C1514 C1519 1.379 . S
C1514 N1521 1.356 . S
C1515 C1514 1.363 . S
C1515 C1518 1.363 . S
N1516 C1518 1.356 . S
N1516 H1528 0.984 . S
N1516 H1529 0.985 . S
N1517 C1519 1.356 . S
N1517 H1522 0.984 . S
N1517 H1523 0.985 . S
C1518 C1512 1.379 . S
C1518 C1515 1.363 . S
C1518 N1516 1.356 . S
C1519 C1513 1.363 . S
C1519 C1514 1.379 . S
C1519 N1517 1.356 . S
N1520 C1512 1.356 . S
N1520 H1526 0.984 . S
N1520 H1527 0.984 . S
N1521 C1514 1.356 . S
N1521 H1524 0.984 . S
N1521 H1525 0.985 . S
H1522 N1517 0.984 . S
H1523 N1517 0.985 . S
H1524 N1521 0.984 . S
H1525 N1521 0.985 . S
H1526 N1520 0.984 . S
H1527 N1520 0.984 . S
H1528 N1516 0.984 . S
H1529 N1516 0.985 . S
C1530 C1531 1.363 . S
C1530 C1536 1.379 . S
C1530 N1538 1.356 . S
C1531 C1530 1.363 . S
C1531 C1537 1.363 . S
C1532 C1533 1.363 . S
C1532 C1537 1.379 . S
C1532 N1539 1.356 . S
C1533 C1532 1.363 . S
C1533 C1536 1.363 . S
N1534 C1536 1.356 . S
N1534 H1546 0.984 . S
N1534 H1547 0.985 . S
N1535 C1537 1.356 . S
N1535 H1540 0.984 . S
N1535 H1541 0.985 . S
C1536 C1530 1.379 . S
C1536 C1533 1.363 . S
C1536 N1534 1.356 . S
C1537 C1531 1.363 . S
C1537 C1532 1.379 . S
C1537 N1535 1.356 . S
N1538 C1530 1.356 . S
N1538 H1544 0.984 . S
N1538 H1545 0.984 . S
N1539 C1532 1.356 . S
N1539 H1542 0.984 . S
N1539 H1543 0.985 . S
H1540 N1535 0.984 . S
H1541 N1535 0.985 . S
H1542 N1539 0.984 . S
H1543 N1539 0.985 . S
H1544 N1538 0.984 . S
H1545 N1538 0.984 . S
H1546 N1534 0.984 . S
H1547 N1534 0.985 . S
C1548 C1549 1.363 . S
C1548 C1554 1.379 . S
C1548 N1556 1.356 . S
C1549 C1548 1.363 . S
C1549 C1555 1.363 . S
C1550 C1551 1.363 . S
C1550 C1555 1.379 . S
C1550 N1557 1.356 . S
C1551 C1550 1.363 . S
C1551 C1554 1.363 . S
N1552 C1554 1.356 . S
N1552 H1564 0.984 1_565 S
N1552 H1565 0.985 . S
N1553 C1555 1.356 . S
N1553 H1558 0.984 . S
N1553 H1559 0.985 . S
C1554 C1548 1.379 . S
C1554 C1551 1.363 . S
C1554 N1552 1.356 . S
C1555 C1549 1.363 . S
C1555 C1550 1.379 . S
C1555 N1553 1.356 . S
N1556 C1548 1.356 . S
N1556 H1562 0.984 . S
N1556 H1563 0.984 . S
N1557 C1550 1.356 . S
N1557 H1560 0.984 . S
N1557 H1561 0.985 . S
H1558 N1553 0.984 . S
H1559 N1553 0.985 . S
H1560 N1557 0.984 . S
H1561 N1557 0.985 . S
H1562 N1556 0.984 . S
H1563 N1556 0.984 . S
H1564 N1552 0.984 1_545 S
H1565 N1552 0.985 . S
C1566 C1567 1.363 . S
C1566 C1572 1.379 . S
C1566 N1574 1.356 . S
C1567 C1566 1.363 . S
C1567 C1573 1.363 . S
C1568 C1569 1.363 . S
C1568 C1573 1.379 . S
C1568 N1575 1.356 . S
C1569 C1568 1.363 . S
C1569 C1572 1.363 . S
N1570 C1572 1.356 . S
N1570 H1582 0.984 . S
N1570 H1583 0.985 . S
N1571 C1573 1.356 . S
N1571 H1576 0.984 . S
N1571 H1577 0.985 . S
C1572 C1566 1.379 . S
C1572 C1569 1.363 . S
C1572 N1570 1.356 . S
C1573 C1567 1.363 . S
C1573 C1568 1.379 . S
C1573 N1571 1.356 . S
N1574 C1566 1.356 . S
N1574 H1580 0.984 . S
N1574 H1581 0.984 . S
N1575 C1568 1.356 . S
N1575 H1578 0.984 . S
N1575 H1579 0.985 . S
H1576 N1571 0.984 . S
H1577 N1571 0.985 . S
H1578 N1575 0.984 . S
H1579 N1575 0.985 . S
H1580 N1574 0.984 . S
H1581 N1574 0.984 . S
H1582 N1570 0.984 . S
H1583 N1570 0.985 . S
C1584 C1585 1.363 . S
C1584 C1590 1.379 . S
C1584 N1592 1.356 . S
C1585 C1584 1.363 . S
C1585 C1591 1.363 . S
C1586 C1587 1.363 . S
C1586 C1591 1.379 1_554 S
C1586 N1593 1.356 . S
C1587 C1586 1.363 . S
C1587 C1590 1.363 1_554 S
N1588 C1590 1.356 . S
N1588 H1600 0.984 . S
N1588 H1601 0.985 1_556 S
N1589 C1591 1.356 . S
N1589 H1594 0.984 . S
N1589 H1595 0.985 1_556 S
C1590 C1584 1.379 . S
C1590 C1587 1.363 1_556 S
C1590 N1588 1.356 . S
C1591 C1585 1.363 . S
C1591 C1586 1.379 1_556 S
C1591 N1589 1.356 . S
N1592 C1584 1.356 . S
N1592 H1598 0.984 . S
N1592 H1599 0.984 . S
N1593 C1586 1.356 . S
N1593 H1596 0.984 . S
N1593 H1597 0.985 . S
H1594 N1589 0.984 . S
H1595 N1589 0.985 1_554 S
H1596 N1593 0.984 . S
H1597 N1593 0.985 . S
H1598 N1592 0.984 . S
H1599 N1592 0.984 . S
H1600 N1588 0.984 . S
H1601 N1588 0.985 1_554 S
C1602 C1603 1.363 . S
C1602 C1608 1.379 . S
C1602 N1610 1.356 . S
C1603 C1602 1.363 . S
C1603 C1609 1.363 . S
C1604 C1605 1.363 . S
C1604 C1609 1.379 . S
C1604 N1611 1.356 . S
C1605 C1604 1.363 . S
C1605 C1608 1.363 . S
N1606 C1608 1.356 1_554 S
N1606 H1618 0.984 . S
N1606 H1619 0.985 . S
N1607 C1609 1.356 . S
N1607 H1612 0.984 . S
N1607 H1613 0.985 . S
C1608 C1602 1.379 . S
C1608 C1605 1.363 . S
C1608 N1606 1.356 1_556 S
C1609 C1603 1.363 . S
C1609 C1604 1.379 . S
C1609 N1607 1.356 . S
N1610 C1602 1.356 . S
N1610 H1616 0.984 . S
N1610 H1617 0.984 . S
N1611 C1604 1.356 . S
N1611 H1614 0.984 1_556 S
N1611 H1615 0.985 . S
H1612 N1607 0.984 . S
H1613 N1607 0.985 . S
H1614 N1611 0.984 1_554 S
H1615 N1611 0.985 . S
H1616 N1610 0.984 . S
H1617 N1610 0.984 . S
H1618 N1606 0.984 . S
H1619 N1606 0.985 . S
C1620 C1621 1.363 . S
C1620 C1626 1.379 . S
C1620 N1628 1.356 . S
C1621 C1620 1.363 . S
C1621 C1627 1.363 . S
C1622 C1623 1.363 . S
C1622 C1627 1.379 1_554 S
C1622 N1629 1.356 . S
C1623 C1622 1.363 . S
C1623 C1626 1.363 1_554 S
N1624 C1626 1.371 1_554 S
N1624 H1636 0.971 1_564 S
N1624 H1637 0.984 1_565 S
N1625 C1627 1.356 . S
N1625 H1630 0.984 . S
N1625 H1631 0.985 1_556 S
C1626 C1620 1.379 . S
C1626 C1623 1.363 1_556 S
C1626 N1624 1.371 1_556 S
C1627 C1621 1.363 . S
C1627 C1622 1.379 1_556 S
C1627 N1625 1.356 . S
N1628 C1620 1.356 . S
N1628 H1634 0.984 . S
N1628 H1635 0.984 . S
N1629 C1622 1.356 . S
N1629 H1632 0.984 . S
N1629 H1633 0.985 . S
H1630 N1625 0.984 . S
H1631 N1625 0.985 1_554 S
H1632 N1629 0.984 . S
H1633 N1629 0.985 . S
H1634 N1628 0.984 . S
H1635 N1628 0.984 . S
H1636 N1624 0.971 1_546 S
H1637 N1624 0.984 1_545 S
C1638 C1639 1.363 . S
C1638 C1644 1.379 . S
C1638 N1646 1.356 . S
C1639 C1638 1.363 . S
C1639 C1645 1.363 . S
C1640 C1641 1.363 . S
C1640 C1645 1.379 . S
C1640 N1647 1.356 . S
C1641 C1640 1.363 . S
C1641 C1644 1.363 . S
N1642 C1644 1.356 1_545 S
N1642 H1654 0.984 . S
N1642 H1655 0.985 . S
N1643 C1645 1.356 . S
N1643 H1648 0.984 . S
N1643 H1649 0.985 . S
C1644 C1638 1.379 . S
C1644 C1641 1.363 . S
C1644 N1642 1.356 1_565 S
C1645 C1639 1.363 . S
C1645 C1640 1.379 . S
C1645 N1643 1.356 . S
N1646 C1638 1.356 . S
N1646 H1652 0.983 . S
N1646 H1653 0.984 . S
N1647 C1640 1.356 . S
N1647 H1650 0.984 . S
N1647 H1651 0.985 . S
H1648 N1643 0.984 . S
H1649 N1643 0.985 . S
H1650 N1647 0.984 . S
H1651 N1647 0.985 . S
H1652 N1646 0.983 . S
H1653 N1646 0.984 . S
H1654 N1642 0.984 . S
H1655 N1642 0.985 . S
C1656 C1657 1.363 . S
C1656 C1662 1.379 . S
C1656 N1664 1.356 . S
C1657 C1656 1.363 . S
C1657 C1663 1.363 . S
C1658 C1659 1.363 . S
C1658 C1663 1.379 . S
C1658 N1665 1.356 . S
C1659 C1658 1.363 . S
C1659 C1662 1.363 . S
N1660 C1662 1.356 . S
N1660 H1672 0.984 . S
N1660 H1673 0.985 . S
N1661 C1663 1.356 . S
N1661 H1666 0.984 . S
N1661 H1667 0.985 . S
C1662 C1656 1.379 . S
C1662 C1659 1.363 . S
C1662 N1660 1.356 . S
C1663 C1657 1.363 . S
C1663 C1658 1.379 . S
C1663 N1661 1.356 . S
N1664 C1656 1.356 . S
N1664 H1670 0.984 . S
N1664 H1671 0.984 . S
N1665 C1658 1.356 . S
N1665 H1668 0.984 . S
N1665 H1669 0.985 . S
H1666 N1661 0.984 . S
H1667 N1661 0.985 . S
H1668 N1665 0.984 . S
H1669 N1665 0.985 . S
H1670 N1664 0.984 . S
H1671 N1664 0.984 . S
H1672 N1660 0.984 . S
H1673 N1660 0.985 . S
C1674 C1675 1.363 . S
C1674 C1680 1.379 . S
C1674 N1682 1.356 . S
C1675 C1674 1.363 . S
C1675 C1681 1.363 . S
C1676 C1677 1.363 . S
C1676 C1681 1.379 . S
C1676 N1683 1.356 . S
C1677 C1676 1.363 . S
C1677 C1680 1.363 . S
N1678 C1680 1.356 . S
N1678 H1690 0.984 . S
N1678 H1691 0.985 . S
N1679 C1681 1.356 . S
N1679 H1684 0.984 . S
N1679 H1685 0.985 . S
C1680 C1674 1.379 . S
C1680 C1677 1.363 . S
C1680 N1678 1.356 . S
C1681 C1675 1.363 . S
C1681 C1676 1.379 . S
C1681 N1679 1.356 . S
N1682 C1674 1.356 . S
N1682 H1688 0.984 . S
N1682 H1689 0.984 . S
N1683 C1676 1.356 . S
N1683 H1686 0.984 . S
N1683 H1687 0.985 . S
H1684 N1679 0.984 . S
H1685 N1679 0.985 . S
H1686 N1683 0.984 . S
H1687 N1683 0.985 . S
H1688 N1682 0.984 . S
H1689 N1682 0.984 . S
H1690 N1678 0.984 . S
H1691 N1678 0.985 . S
C1692 C1693 1.363 . S
C1692 C1698 1.379 . S
C1692 N1700 1.356 . S
C1693 C1692 1.363 . S
C1693 C1699 1.363 . S
C1694 C1695 1.363 . S
C1694 C1699 1.379 . S
C1694 N1701 1.356 . S
C1695 C1694 1.363 . S
C1695 C1698 1.363 . S
N1696 C1698 1.356 . S
N1696 H1708 0.984 . S
N1696 H1709 0.985 . S
N1697 C1699 1.356 . S
N1697 H1702 0.984 . S
N1697 H1703 0.985 . S
C1698 C1692 1.379 . S
C1698 C1695 1.363 . S
C1698 N1696 1.356 . S
C1699 C1693 1.363 . S
C1699 C1694 1.379 . S
C1699 N1697 1.356 . S
N1700 C1692 1.356 . S
N1700 H1706 0.984 . S
N1700 H1707 0.984 . S
N1701 C1694 1.356 . S
N1701 H1704 0.984 . S
N1701 H1705 0.985 . S
H1702 N1697 0.984 . S
H1703 N1697 0.985 . S
H1704 N1701 0.984 . S
H1705 N1701 0.985 . S
H1706 N1700 0.984 . S
H1707 N1700 0.984 . S
H1708 N1696 0.984 . S
H1709 N1696 0.985 . S
C1710 C1711 1.363 . S
C1710 C1716 1.379 . S
C1710 N1718 1.356 . S
C1711 C1710 1.363 . S
C1711 C1717 1.363 . S
C1712 C1713 1.363 . S
C1712 C1717 1.379 . S
C1712 N1719 1.356 . S
C1713 C1712 1.363 . S
C1713 C1716 1.363 . S
N1714 C1716 1.356 . S
N1714 H1726 0.984 1_565 S
N1714 H1727 0.985 . S
N1715 C1717 1.356 . S
N1715 H1720 0.984 . S
N1715 H1721 0.985 . S
C1716 C1710 1.379 . S
C1716 C1713 1.363 . S
C1716 N1714 1.356 . S
C1717 C1711 1.363 . S
C1717 C1712 1.379 . S
C1717 N1715 1.356 . S
N1718 C1710 1.356 . S
N1718 H1724 0.984 . S
N1718 H1725 0.984 . S
N1719 C1712 1.356 . S
N1719 H1722 0.984 . S
N1719 H1723 0.985 . S
H1720 N1715 0.984 . S
H1721 N1715 0.985 . S
H1722 N1719 0.984 . S
H1723 N1719 0.985 . S
H1724 N1718 0.984 . S
H1725 N1718 0.984 . S
H1726 N1714 0.984 1_545 S
H1727 N1714 0.985 . S
C1728 C1729 1.363 . S
C1728 C1734 1.379 . S
C1728 N1736 1.356 . S
C1729 C1728 1.363 . S
C1729 C1735 1.363 . S
C1730 C1731 1.363 . S
C1730 C1735 1.379 . S
C1730 N1737 1.356 . S
C1731 C1730 1.363 . S
C1731 C1734 1.363 . S
N1732 C1734 1.356 . S
N1732 H1744 0.984 . S
N1732 H1745 0.985 . S
N1733 C1735 1.356 . S
N1733 H1738 0.984 . S
N1733 H1739 0.985 . S
C1734 C1728 1.379 . S
C1734 C1731 1.363 . S
C1734 N1732 1.356 . S
C1735 C1729 1.363 . S
C1735 C1730 1.379 . S
C1735 N1733 1.356 . S
N1736 C1728 1.356 . S
N1736 H1742 0.984 . S
N1736 H1743 0.984 . S
N1737 C1730 1.356 . S
N1737 H1740 0.984 . S
N1737 H1741 0.985 . S
H1738 N1733 0.984 . S
H1739 N1733 0.985 . S
H1740 N1737 0.984 . S
H1741 N1737 0.985 . S
H1742 N1736 0.984 . S
H1743 N1736 0.984 . S
H1744 N1732 0.984 . S
H1745 N1732 0.985 . S
C1746 C1747 1.363 . S
C1746 C1752 1.379 . S
C1746 N1754 1.356 . S
C1747 C1746 1.363 . S
C1747 C1753 1.363 . S
C1748 C1749 1.363 . S
C1748 C1753 1.379 . S
C1748 N1755 1.356 . S
C1749 C1748 1.363 . S
C1749 C1752 1.363 . S
N1750 C1752 1.356 . S
N1750 H1762 0.984 . S
N1750 H1763 0.985 . S
N1751 C1753 1.356 . S
N1751 H1756 0.984 . S
N1751 H1757 0.985 . S
C1752 C1746 1.379 . S
C1752 C1749 1.363 . S
C1752 N1750 1.356 . S
C1753 C1747 1.363 . S
C1753 C1748 1.379 . S
C1753 N1751 1.356 . S
N1754 C1746 1.356 . S
N1754 H1760 0.984 . S
N1754 H1761 0.984 . S
N1755 C1748 1.356 . S
N1755 H1758 0.984 . S
N1755 H1759 0.985 . S
H1756 N1751 0.984 . S
H1757 N1751 0.985 . S
H1758 N1755 0.984 . S
H1759 N1755 0.985 . S
H1760 N1754 0.984 . S
H1761 N1754 0.984 . S
H1762 N1750 0.984 . S
H1763 N1750 0.985 . S
C1764 C1765 1.363 . S
C1764 C1770 1.379 . S
C1764 N1772 1.356 . S
C1765 C1764 1.363 . S
C1765 C1771 1.363 . S
C1766 C1767 1.363 . S
C1766 C1771 1.379 . S
C1766 N1773 1.356 . S
C1767 C1766 1.363 . S
C1767 C1770 1.363 . S
N1768 C1770 1.356 . S
N1768 H1780 0.984 . S
N1768 H1781 0.985 . S
N1769 C1771 1.356 . S
N1769 H1774 0.984 . S
N1769 H1775 0.985 . S
C1770 C1764 1.379 . S
C1770 C1767 1.363 . S
C1770 N1768 1.356 . S
C1771 C1765 1.363 . S
C1771 C1766 1.379 . S
C1771 N1769 1.356 . S
N1772 C1764 1.356 . S
N1772 H1778 0.984 . S
N1772 H1779 0.984 . S
N1773 C1766 1.356 . S
N1773 H1776 0.984 . S
N1773 H1777 0.985 . S
H1774 N1769 0.984 . S
H1775 N1769 0.985 . S
H1776 N1773 0.984 . S
H1777 N1773 0.985 . S
H1778 N1772 0.984 . S
H1779 N1772 0.984 . S
H1780 N1768 0.984 . S
H1781 N1768 0.985 . S
C1782 C1783 1.363 . S
C1782 C1788 1.379 . S
C1782 N1790 1.356 . S
C1783 C1782 1.363 . S
C1783 C1789 1.363 . S
C1784 C1785 1.363 . S
C1784 C1789 1.379 . S
C1784 N1791 1.356 . S
C1785 C1784 1.363 . S
C1785 C1788 1.363 . S
N1786 C1788 1.356 . S
N1786 H1798 0.984 . S
N1786 H1799 0.985 . S
N1787 C1789 1.356 . S
N1787 H1792 0.984 . S
N1787 H1793 0.985 . S
C1788 C1782 1.379 . S
C1788 C1785 1.363 . S
C1788 N1786 1.356 . S
C1789 C1783 1.363 . S
C1789 C1784 1.379 . S
C1789 N1787 1.356 . S
N1790 C1782 1.356 . S
N1790 H1796 0.984 . S
N1790 H1797 0.984 . S
N1791 C1784 1.356 . S
N1791 H1794 0.984 . S
N1791 H1795 0.985 . S
H1792 N1787 0.984 . S
H1793 N1787 0.985 . S
H1794 N1791 0.984 . S
H1795 N1791 0.985 . S
H1796 N1790 0.984 . S
H1797 N1790 0.984 . S
H1798 N1786 0.984 . S
H1799 N1786 0.985 . S
C1800 C1801 1.363 . S
C1800 C1806 1.379 . S
C1800 N1808 1.356 . S
C1801 C1800 1.363 . S
C1801 C1807 1.363 . S
C1802 C1803 1.363 . S
C1802 C1807 1.379 . S
C1802 N1809 1.356 . S
C1803 C1802 1.363 . S
C1803 C1806 1.363 . S
N1804 C1806 1.356 . S
N1804 H1816 0.984 . S
N1804 H1817 0.985 . S
N1805 C1807 1.356 . S
N1805 H1810 0.984 . S
N1805 H1811 0.985 . S
C1806 C1800 1.379 . S
C1806 C1803 1.363 . S
C1806 N1804 1.356 . S
C1807 C1801 1.363 . S
C1807 C1802 1.379 . S
C1807 N1805 1.356 . S
N1808 C1800 1.356 . S
N1808 H1814 0.984 . S
N1808 H1815 0.984 . S
N1809 C1802 1.356 . S
N1809 H1812 0.984 . S
N1809 H1813 0.985 . S
H1810 N1805 0.984 . S
H1811 N1805 0.985 . S
H1812 N1809 0.984 . S
H1813 N1809 0.985 . S
H1814 N1808 0.984 . S
H1815 N1808 0.984 . S
H1816 N1804 0.984 . S
H1817 N1804 0.985 . S
C1818 C1819 1.363 . S
C1818 C1824 1.379 . S
C1818 N1826 1.356 . S
C1819 C1818 1.363 . S
C1819 C1825 1.363 . S
C1820 C1821 1.363 . S
C1820 C1825 1.379 . S
C1820 N1827 1.356 . S
C1821 C1820 1.363 . S
C1821 C1824 1.363 . S
N1822 C1824 1.356 . S
N1822 H1834 0.984 . S
N1822 H1835 0.985 . S
N1823 C1825 1.356 . S
N1823 H1828 0.984 . S
N1823 H1829 0.985 . S
C1824 C1818 1.379 . S
C1824 C1821 1.363 . S
C1824 N1822 1.356 . S
C1825 C1819 1.363 . S
C1825 C1820 1.379 . S
C1825 N1823 1.356 . S
N1826 C1818 1.356 . S
N1826 H1832 0.984 . S
N1826 H1833 0.984 . S
N1827 C1820 1.356 . S
N1827 H1830 0.984 . S
N1827 H1831 0.985 . S
H1828 N1823 0.984 . S
H1829 N1823 0.985 . S
H1830 N1827 0.984 . S
H1831 N1827 0.985 . S
H1832 N1826 0.984 . S
H1833 N1826 0.984 . S
H1834 N1822 0.984 . S
H1835 N1822 0.985 . S
C1836 C1837 1.363 . S
C1836 C1842 1.379 . S
C1836 N1844 1.356 . S
C1837 C1836 1.363 . S
C1837 C1843 1.363 . S
C1838 C1839 1.363 . S
C1838 C1843 1.379 . S
C1838 N1845 1.356 . S
C1839 C1838 1.363 . S
C1839 C1842 1.363 . S
N1840 C1842 1.356 . S
N1840 H1852 0.984 . S
N1840 H1853 0.985 . S
N1841 C1843 1.356 . S
N1841 H1846 0.984 . S
N1841 H1847 0.985 . S
C1842 C1836 1.379 . S
C1842 C1839 1.363 . S
C1842 N1840 1.356 . S
C1843 C1837 1.363 . S
C1843 C1838 1.379 . S
C1843 N1841 1.356 . S
N1844 C1836 1.356 . S
N1844 H1850 0.984 . S
N1844 H1851 0.984 . S
N1845 C1838 1.356 . S
N1845 H1848 0.984 . S
N1845 H1849 0.985 . S
H1846 N1841 0.984 . S
H1847 N1841 0.985 . S
H1848 N1845 0.984 . S
H1849 N1845 0.985 . S
H1850 N1844 0.984 . S
H1851 N1844 0.984 . S
H1852 N1840 0.984 . S
H1853 N1840 0.985 . S
C1854 C1855 1.363 . S
C1854 C1860 1.379 . S
C1854 N1862 1.356 . S
C1855 C1854 1.363 . S
C1855 C1861 1.363 . S
C1856 C1857 1.363 . S
C1856 C1861 1.379 . S
C1856 N1863 1.356 . S
C1857 C1856 1.363 . S
C1857 C1860 1.363 . S
N1858 C1860 1.356 . S
N1858 H1870 0.984 . S
N1858 H1871 0.985 . S
N1859 C1861 1.356 . S
N1859 H1864 0.984 . S
N1859 H1865 0.985 . S
C1860 C1854 1.379 . S
C1860 C1857 1.363 . S
C1860 N1858 1.356 . S
C1861 C1855 1.363 . S
C1861 C1856 1.379 . S
C1861 N1859 1.356 . S
N1862 C1854 1.356 . S
N1862 H1868 0.984 . S
N1862 H1869 0.984 . S
N1863 C1856 1.356 . S
N1863 H1866 0.984 . S
N1863 H1867 0.985 . S
H1864 N1859 0.984 . S
H1865 N1859 0.985 . S
H1866 N1863 0.984 . S
H1867 N1863 0.985 . S
H1868 N1862 0.984 . S
H1869 N1862 0.984 . S
H1870 N1858 0.984 . S
H1871 N1858 0.985 . S
C1872 C1873 1.363 . S
C1872 C1878 1.379 . S
C1872 N1880 1.356 . S
C1873 C1872 1.363 . S
C1873 C1879 1.363 . S
C1874 C1875 1.363 . S
C1874 C1879 1.379 . S
C1874 N1881 1.356 . S
C1875 C1874 1.363 . S
C1875 C1878 1.363 . S
N1876 C1878 1.356 . S
N1876 H1888 0.984 . S
N1876 H1889 0.985 . S
N1877 C1879 1.356 . S
N1877 H1882 0.984 . S
N1877 H1883 0.985 . S
C1878 C1872 1.379 . S
C1878 C1875 1.363 . S
C1878 N1876 1.356 . S
C1879 C1873 1.363 . S
C1879 C1874 1.379 . S
C1879 N1877 1.356 . S
N1880 C1872 1.356 . S
N1880 H1886 0.984 . S
N1880 H1887 0.984 . S
N1881 C1874 1.356 . S
N1881 H1884 0.984 . S
N1881 H1885 0.985 . S
H1882 N1877 0.984 . S
H1883 N1877 0.985 . S
H1884 N1881 0.984 . S
H1885 N1881 0.985 . S
H1886 N1880 0.984 . S
H1887 N1880 0.984 . S
H1888 N1876 0.984 . S
H1889 N1876 0.985 . S
C1890 C1891 1.363 . S
C1890 C1896 1.379 . S
C1890 N1898 1.356 . S
C1891 C1890 1.363 . S
C1891 C1897 1.363 . S
C1892 C1893 1.363 . S
C1892 C1897 1.379 . S
C1892 N1899 1.356 . S
C1893 C1892 1.363 . S
C1893 C1896 1.363 . S
N1894 C1896 1.356 . S
N1894 H1906 0.984 . S
N1894 H1907 0.985 . S
N1895 C1897 1.356 . S
N1895 H1900 0.984 . S
N1895 H1901 0.985 . S
C1896 C1890 1.379 . S
C1896 C1893 1.363 . S
C1896 N1894 1.356 . S
C1897 C1891 1.363 . S
C1897 C1892 1.379 . S
C1897 N1895 1.356 . S
N1898 C1890 1.356 . S
N1898 H1904 0.984 . S
N1898 H1905 0.984 . S
N1899 C1892 1.356 . S
N1899 H1902 0.984 . S
N1899 H1903 0.985 . S
H1900 N1895 0.984 . S
H1901 N1895 0.985 . S
H1902 N1899 0.984 . S
H1903 N1899 0.985 . S
H1904 N1898 0.984 . S
H1905 N1898 0.984 . S
H1906 N1894 0.984 . S
H1907 N1894 0.985 . S
C1908 C1909 1.363 . S
C1908 C1914 1.379 . S
C1908 N1916 1.356 . S
C1909 C1908 1.363 . S
C1909 C1915 1.363 . S
C1910 C1911 1.363 . S
C1910 C1915 1.379 . S
C1910 N1917 1.356 . S
C1911 C1910 1.363 . S
C1911 C1914 1.363 . S
N1912 C1914 1.356 1_556 S
N1912 H1924 0.984 . S
N1912 H1925 0.985 . S
N1913 C1915 1.356 . S
N1913 H1918 0.984 . S
N1913 H1919 0.985 . S
C1914 C1908 1.379 . S
C1914 C1911 1.363 . S
C1914 N1912 1.356 1_554 S
C1915 C1909 1.363 . S
C1915 C1910 1.379 . S
C1915 N1913 1.356 . S
N1916 C1908 1.356 . S
N1916 H1922 0.984 . S
N1916 H1923 0.984 . S
N1917 C1910 1.356 . S
N1917 H1920 0.984 1_554 S
N1917 H1921 0.985 . S
H1918 N1913 0.984 . S
H1919 N1913 0.985 . S
H1920 N1917 0.984 1_556 S
H1921 N1917 0.985 . S
H1922 N1916 0.984 . S
H1923 N1916 0.984 . S
H1924 N1912 0.984 . S
H1925 N1912 0.985 . S
C1926 C1927 1.363 . S
C1926 C1932 1.379 . S
C1926 N1934 1.356 . S
C1927 C1926 1.363 . S
C1927 C1933 1.363 . S
C1928 C1929 1.363 . S
C1928 C1933 1.379 . S
C1928 N1935 1.356 . S
C1929 C1928 1.363 . S
C1929 C1932 1.363 . S
N1930 C1932 1.356 . S
N1930 H1942 0.984 . S
N1930 H1943 0.985 . S
N1931 C1933 1.356 . S
N1931 H1936 0.984 . S
N1931 H1937 0.985 . S
C1932 C1926 1.379 . S
C1932 C1929 1.363 . S
C1932 N1930 1.356 . S
C1933 C1927 1.363 . S
C1933 C1928 1.379 . S
C1933 N1931 1.356 . S
N1934 C1926 1.356 . S
N1934 H1940 0.984 . S
N1934 H1941 0.984 . S
N1935 C1928 1.356 . S
N1935 H1938 0.984 1_554 S
N1935 H1939 0.973 1_554 S
H1936 N1931 0.984 . S
H1937 N1931 0.985 . S
H1938 N1935 0.984 1_556 S
H1939 N1935 0.973 1_556 S
H1940 N1934 0.984 . S
H1941 N1934 0.984 . S
H1942 N1930 0.984 . S
H1943 N1930 0.985 . S
C1944 C1945 1.363 . S
C1944 C1950 1.379 . S
C1944 N1952 1.356 . S
C1945 C1944 1.363 . S
C1945 C1951 1.363 . S
C1946 C1947 1.363 . S
C1946 C1951 1.379 . S
C1946 N1953 1.356 . S
C1947 C1946 1.363 . S
C1947 C1950 1.363 . S
N1948 C1950 1.356 1_556 S
N1948 H1960 0.984 . S
N1948 H1961 0.985 . S
N1949 C1951 1.356 . S
N1949 H1954 0.984 . S
N1949 H1955 0.985 . S
C1950 C1944 1.379 . S
C1950 C1947 1.363 . S
C1950 N1948 1.356 1_554 S
C1951 C1945 1.363 . S
C1951 C1946 1.379 . S
C1951 N1949 1.356 . S
N1952 C1944 1.356 . S
N1952 H1958 0.984 . S
N1952 H1959 0.984 . S
N1953 C1946 1.356 . S
N1953 H1956 0.984 . S
N1953 H1957 0.985 . S
H1954 N1949 0.984 . S
H1955 N1949 0.985 . S
H1956 N1953 0.984 . S
H1957 N1953 0.985 . S
H1958 N1952 0.984 . S
H1959 N1952 0.984 . S
H1960 N1948 0.984 . S
H1961 N1948 0.985 . S
C667 C7 1.459 . S
C669 C575 1.463 . S
C687 C547 1.760 . S
C685 C39 1.749 . S
C705 C562 1.517 . S
C703 C62 1.602 . S
C721 C76 1.880 . S
C723 C632 1.831 . S
C739 C108 1.436 . S
C741 C645 1.434 1_455 S
C757 N117 1.386 . S
C759 C660 1.344 . S
C777 C623 1.333 . S
C775 C16 1.364 . S
C793 C30 1.753 . S
C795 C595 1.677 . S
C813 C604 1.425 . S
C811 C53 1.478 . S
C829 C85 1.838 . S
C831 C506 1.781 . S
C849 C525 1.539 . S
C847 C99 1.606 . S
C865 N127 1.300 . S
C867 C534 1.358 . S
C883 N150 1.139 . S
C885 C659 1.176 . S
C903 C631 1.509 . S
C901 N173 1.473 . S
C921 C646 1.370 . S
C919 C200 1.420 . S
C937 C214 1.670 . S
C939 C464 1.615 . S
C955 N232 1.498 . S
C957 C477 1.522 . S
C973 C260 1.538 . S
C975 C492 1.485 . S
C993 C455 1.160 . S
C991 N140 1.180 . S
C1009 N163 1.239 . S
C1011 C427 1.230 . S
C1029 C436 1.501 . S
C1027 C191 1.555 . S
C1047 C590 1.862 . S
C1045 C223 1.909 . S
C1065 C609 1.437 . S
C1063 N242 1.381 . S
C1083 C618 1.544 . S
C1081 C269 1.557 . S
C1099 N288 1.279 . S
C1101 C491 1.301 . S
C1117 C315 1.467 . S
C1119 C463 1.485 . S
C1135 C338 1.672 . S
C1137 C478 1.615 . S
C1153 C352 1.891 . S
C1155 C548 1.853 . S
C1173 C561 1.548 . S
C1171 N370 1.535 . S
C1191 C576 1.539 1_655 S
C1189 C398 1.582 . S
C1209 C539 1.138 . S
C1207 N278 1.107 . S
C1225 C306 1.658 . S
C1227 C511 1.581 . S
C1243 C329 1.590 . S
C1245 C520 1.540 1_655 S
C1263 C422 1.537 . S
C1261 C361 1.577 . S
C1279 N380 1.408 . S
C1281 C441 1.450 . S
C1299 C450 1.464 . S
C1297 C407 1.487 . S
C1317 C469 1.342 . S
C1315 N12 1.351 . S
C1333 N25 1.530 . S
C1335 C481 1.488 . S
C1353 C497 1.195 . S
C1351 N48 1.240 . S
C1371 C495 1.310 . S
C1369 N81 1.318 . S
C1389 C467 1.473 . S
C1387 N94 1.465 . S
C1407 C483 1.451 . S
C1405 C131 1.525 . S
C1425 C421 1.348 . S
C1423 N2 1.340 . S
C1441 N35 1.375 . S
C1443 C439 1.413 . S
C1459 N58 1.191 . S
C1461 C449 1.211 . S
C1479 C453 1.269 . S
C1477 N71 1.226 . S
C1497 C425 1.364 . S
C1495 N104 1.363 . S
C1515 C435 1.560 . S
C1513 C122 1.558 . S
C1531 C145 1.971 . S
C1533 C553 1.892 . S
C1549 C168 1.651 . S
C1551 C565 1.614 . S
C1567 N186 1.373 . S
C1569 C581 1.339 . S
C1587 C579 1.299 . S
C1585 N219 1.299 . S
C1605 C551 1.726 1_556 S
C1603 C246 1.745 . S
C1623 C567 1.359 . S
C1621 N265 1.425 . S
C1641 C505 1.850 . S
C1639 C154 1.862 . S
C1657 C177 1.689 . S
C1659 C523 1.678 . S
C1675 N196 1.200 . S
C1677 C533 1.221 . S
C1693 N209 1.114 . S
C1695 C537 1.184 . S
C1711 C237 1.791 . S
C1713 C509 1.785 . S
C1731 C519 1.426 . S
C1729 N255 1.368 . S
C1747 C283 1.741 . S
C1749 C637 1.632 . S
C1765 N301 1.400 . S
C1767 C649 1.385 . S
C1783 N324 1.248 . S
C1785 C665 1.206 . S
C1803 C663 1.125 . S
C1801 N357 1.114 . S
C1821 C635 1.698 . S
C1819 C384 1.751 . S
C1837 N403 1.280 . S
C1839 C651 1.233 . S
C1855 C292 1.831 . S
C1857 C589 1.832 . S
C1875 C607 1.278 . S
C1873 N311 1.265 . S
C1891 N334 1.282 . S
C1893 C617 1.311 . S
C1909 N347 1.271 . S
C1911 C621 1.307 1_554 S
C1929 C593 1.835 . S
C1927 C375 1.840 . S
C1945 N393 1.317 . S
C1947 C603 1.375 1_554 S
