# Generated by pormake.
# Topology pts, (4,4)-cn, num edge types: 1
# Building blocks:
#     Node 0, Type 0, BuildingBlock: MUDLON_clean_sbu_0, # of connection points: 4
#     Node 1, Type 0, BuildingBlock: MUDLON_clean_sbu_0, # of connection points: 4
#     Node 2, Type 1, BuildingBlock: UXUYUI_clean_sbu_0, # of connection points: 4
#     Node 3, Type 1, BuildingBlock: UXUYUI_clean_sbu_0, # of connection points: 4
#     Edge 4, Type (0, 1), BuildingBlock: UVAHIK_clean_linker_0, # of connection points: 2
#     Edge 5, Type (0, 1), BuildingBlock: UVAHIK_clean_linker_0, # of connection points: 2
#     Edge 6, Type (0, 1), BuildingBlock: UVAHIK_clean_linker_0, # of connection points: 2
#     Edge 7, Type (0, 1), BuildingBlock: UVAHIK_clean_linker_0, # of connection points: 2
#     Edge 8, Type (0, 1), BuildingBlock: UVAHIK_clean_linker_0, # of connection points: 2
#     Edge 9, Type (0, 1), BuildingBlock: UVAHIK_clean_linker_0, # of connection points: 2
#     Edge 10, Type (0, 1), BuildingBlock: UVAHIK_clean_linker_0, # of connection points: 2
#     Edge 11, Type (0, 1), BuildingBlock: UVAHIK_clean_linker_0, # of connection points: 2
# Relax obj value: 0.040
# Max RMSD: 0.092
# Mean RMSD: 0.080
data_MOF--net-pts--node1-MUDLON_clean_sbu_0--node2-UXUYUI_clean_sbu_0--edge1-UVAHIK_clean_linker_0
_symmetry_space_group_name_H-M    P1
_symmetry_Int_Tables_number       1
_symmetry_cell_setting            triclinic
loop_
_symmetry_equiv_pos_as_xyz
'x, y, z'
_cell_length_a     35.073931
_cell_length_b     35.056854
_cell_length_c     59.770782
_cell_angle_alpha  90.066268
_cell_angle_beta   89.879747
_cell_angle_gamma 90.002685
loop_
_atom_site_label
_atom_site_type_symbol
_atom_site_fract_x
_atom_site_fract_y
_atom_site_fract_z
_atom_type_partial_charge
Mg0 Mg 0.50543 0.99911 0.06964 0.0
C1 C 0.43641 0.00695 0.0441 0.0
O2 O 0.43907 0.97119 0.05048 0.0
C3 C 0.57477 0.00822 0.09492 0.0
O4 O 0.57357 0.97274 0.08784 0.0
C5 C 0.47465 0.96653 0.114 0.0
O6 O 0.50546 0.98223 0.12239 0.0
O7 O 0.46992 0.96638 0.09289 0.0
O8 O 0.46283 0.02989 0.04987 0.0
O9 O 0.54108 0.96715 0.04598 0.0
C10 C 0.5371 0.97022 0.02489 0.0
O11 O 0.50751 0.9887 0.01698 0.0
O12 O 0.54729 0.03029 0.08976 0.0
Mg13 Mg 0.00963 0.51679 0.5683 0.0
C14 C 0.04988 0.54762 0.60949 0.0
O15 O 0.0405 0.51392 0.61736 0.0
C16 C 0.05879 0.45255 0.54772 0.0
O17 O 0.063 0.44165 0.5686 0.0
C18 C 0.96951 0.58886 0.55377 0.0
O19 O 0.98228 0.60014 0.57333 0.0
O20 O 0.97361 0.55404 0.54821 0.0
O21 O 0.04363 0.55495 0.58899 0.0
O22 O 0.98021 0.47753 0.59082 0.0
C23 C 0.97236 0.44362 0.5848 0.0
O24 O 0.97743 0.43382 0.56379 0.0
O25 O 0.04092 0.48332 0.54362 0.0
Li26 Li 0.0193 0.05113 0.33556 0.0
Li27 Li 1.00102 0.9833 0.33776 0.0
Li28 Li 0.04615 0.00802 0.30807 0.0
Li29 Li 0.97793 0.02145 0.3053 0.0
C30 C 0.07478 0.01672 0.35889 0.0
N31 N 0.11787 0.03959 0.39519 0.0
C32 C 0.06848 1.00056 0.37995 0.0
C33 C 0.10337 0.04416 0.35626 0.0
C34 C 0.09049 0.01257 0.3981 0.0
C35 C 0.12471 0.05547 0.37483 0.0
C36 C 0.93276 0.02635 0.34875 0.0
C37 C 0.86834 1.0024 0.35111 0.0
N38 N 0.86351 0.02126 0.37081 0.0
C39 C 0.92688 0.04599 0.36884 0.0
C40 C 0.90302 1.00479 0.33968 0.0
C41 C 0.89181 0.04286 0.37981 0.0
C42 C 0.03854 0.12902 0.34509 0.0
N43 N 0.02812 0.09497 0.3541 0.0
C44 C 0.03177 0.12102 0.39104 0.0
C45 C 0.02449 0.09059 0.3766 0.0
C46 C 0.04298 0.15652 0.38232 0.0
C47 C 0.04621 0.1603 0.35895 0.0
H48 H 0.04109 0.13188 0.32715 0.0
H49 H 0.01611 0.06327 0.38337 0.0
C50 C 1.00233 0.90668 0.35323 0.0
N51 N 0.98998 0.94248 0.35819 0.0
C52 C 0.99555 0.87654 0.36803 0.0
C53 C 0.96375 0.92069 0.39288 0.0
C54 C 0.97121 0.94992 0.37763 0.0
C55 C 0.97607 0.88334 0.38825 0.0
H56 H 0.01772 0.9016 0.3378 0.0
H57 H 0.96259 0.97868 0.38157 0.0
C58 C 0.04391 0.07258 0.2859 0.0
N59 N 0.09108 0.09879 0.25215 0.0
C60 C 0.03193 0.0712 0.26362 0.0
C61 C 0.07968 0.0878 0.29102 0.0
C62 C 0.05623 0.08448 0.2468 0.0
C63 C 0.10318 0.10074 0.27372 0.0
C64 C 0.98206 0.94211 0.29564 0.0
C65 C 0.99224 0.92676 0.27486 0.0
C66 C 0.95035 0.9275 0.30694 0.0
C67 C 0.9699 0.89791 0.26548 0.0
C68 C 0.92876 0.8986 0.29704 0.0
N69 N 0.93885 0.88457 0.27665 0.0
C70 C 0.12575 0.99751 0.29888 0.0
C71 C 0.08454 0.98936 0.26795 0.0
C72 C 0.15764 0.99095 0.28529 0.0
N73 N 0.09011 0.9968 0.29001 0.0
C74 C 0.11548 0.98199 0.25384 0.0
C75 C 0.15286 0.98297 0.26236 0.0
H76 H 0.12953 1.00362 0.31644 0.0
H77 H 0.05599 0.98966 0.26121 0.0
C78 C 0.90572 0.05009 0.29005 0.0
N79 N 0.93688 0.02892 0.28453 0.0
C80 C 0.87571 0.05437 0.27484 0.0
C81 C 0.91129 0.0167 0.24817 0.0
C82 C 0.94028 0.01277 0.26396 0.0
C83 C 0.87807 0.0373 0.25356 0.0
H84 H 0.90398 0.06344 0.30633 0.0
H85 H 0.96585 0.99722 0.25965 0.0
O86 O 0.05308 1.00572 0.34099 0.0
O87 O 0.96709 0.02907 0.33785 0.0
O88 O 0.02092 0.05874 0.30255 0.0
O89 O 1.00369 0.97046 0.30507 0.0
H90 H 0.04676 0.97909 0.38231 0.0
H91 H 0.10873 0.05695 0.34014 0.0
H92 H 0.08576 1.00042 0.4145 0.0
H93 H 0.14668 0.07692 0.37305 0.0
H94 H 0.84517 0.98574 0.34425 0.0
H95 H 0.94914 0.0634 0.37598 0.0
H96 H 0.9063 0.99064 0.32375 0.0
H97 H 0.88705 0.05768 0.39545 0.0
H98 H 0.02818 0.1168 0.40886 0.0
H99 H 0.05507 0.18696 0.35144 0.0
H100 H 1.00619 0.84841 0.36389 0.0
H101 H 0.9484 0.92735 0.40812 0.0
H102 H 1.00428 0.05981 0.25934 0.0
H103 H 0.08936 0.08929 0.30814 0.0
H104 H 0.0474 0.08335 0.22948 0.0
H105 H 0.13106 0.11228 0.27745 0.0
H106 H 0.01702 0.93703 0.26599 0.0
H107 H 0.94272 0.93787 0.32333 0.0
H108 H 0.97732 0.88605 0.24933 0.0
H109 H 0.9041 0.88718 0.30562 0.0
H110 H 0.18571 0.9928 0.29269 0.0
H111 H 0.10995 0.97543 0.23645 0.0
H112 H 0.85074 0.07037 0.27989 0.0
H113 H 0.91517 1.00398 0.23181 0.0
Li114 Li 0.96434 1.00555 0.82877 0.0
Li115 Li 0.03523 0.01603 0.83262 0.0
Li116 Li 0.99617 0.04222 0.79985 0.0
Li117 Li 0.00885 0.97525 0.80309 0.0
C118 C 0.97117 0.07097 0.84904 0.0
N119 N 0.92545 0.10035 0.8826 0.0
C120 C 0.9782 0.06167 0.87138 0.0
C121 C 0.94107 0.09549 0.84378 0.0
C122 C 0.95472 0.07673 0.8881 0.0
C123 C 0.91824 0.10998 0.86099 0.0
C124 C 0.00883 0.93068 0.83858 0.0
C125 C 0.0471 0.87464 0.84495 0.0
N126 N 0.01581 0.85242 0.84166 0.0
C127 C 0.97701 0.90735 0.83535 0.0
C128 C 0.04416 0.9143 0.84348 0.0
C129 C 0.98114 0.86781 0.83694 0.0
C130 C 0.88451 0.00949 0.8409 0.0
N131 N 0.91989 0.99799 0.84726 0.0
C132 C 0.89486 0.97362 0.88171 0.0
C133 C 0.92549 0.98038 0.86724 0.0
C134 C 0.85793 0.98532 0.87567 0.0
C135 C 0.85311 1.00363 0.85493 0.0
H136 H 0.88045 0.02328 0.82499 0.0
H137 H 0.95387 0.97148 0.87197 0.0
C138 C 0.10563 0.04717 0.84856 0.0
N139 N 0.0757 0.02392 0.8534 0.0
C140 C 0.13534 0.05177 0.86395 0.0
C141 C 0.10219 0.00935 0.88919 0.0
C142 C 0.07346 1.00523 0.87325 0.0
C143 C 0.13401 0.03257 0.88462 0.0
H144 H 0.10662 0.06182 0.83265 0.0
H145 H 0.04919 0.98713 0.87672 0.0
C146 C 0.93611 0.01345 0.7795 0.0
N147 N 0.8907 0.04359 0.7461 0.0
C148 C 0.93616 0.99721 0.7581 0.0
C149 C 0.91313 0.04522 0.78378 0.0
C150 C 0.91293 0.01278 0.74149 0.0
C151 C 0.89037 0.06001 0.76672 0.0
C152 C 0.07308 1.00413 0.78473 0.0
C153 C 0.06171 0.99635 0.7628 0.0
C154 C 0.11103 0.99822 0.79095 0.0
C155 C 0.08851 0.98271 0.74743 0.0
C156 C 0.13699 0.98461 0.77508 0.0
N157 N 0.12529 0.97719 0.75383 0.0
C158 C 0.99165 0.12121 0.7879 0.0
C159 C 0.99141 0.07854 0.75722 0.0
C160 C 0.98831 0.15244 0.77343 0.0
N161 N 0.99276 0.08506 0.77963 0.0
C162 C 0.98737 0.10871 0.74223 0.0
C163 C 0.98584 0.14647 0.75016 0.0
H164 H 0.9935 0.12584 0.80575 0.0
H165 H 0.99277 0.04981 0.75087 0.0
C166 C 0.9897 0.91069 0.77672 0.0
N167 N 0.01913 0.92807 0.7874 0.0
C168 C 0.99586 0.87768 0.76411 0.0
C169 C 0.06206 0.87923 0.77506 0.0
C170 C 0.05462 0.91237 0.78734 0.0
C171 C 0.03261 0.86172 0.76286 0.0
H172 H 0.96135 0.92252 0.77795 0.0
H173 H 0.07726 0.92559 0.7968 0.0
O174 O 0.99303 0.05534 0.8324 0.0
O175 O 1.00556 0.96934 0.83649 0.0
O176 O 0.95886 0.99882 0.79603 0.0
O177 O 0.04723 0.01721 0.8001 0.0
H178 H 1.00117 0.04254 0.87574 0.0
H179 H 0.93529 0.10321 0.82662 0.0
H180 H 0.95967 0.06951 0.90545 0.0
H181 H 0.89476 0.12886 0.85715 0.0
H182 H 0.07429 0.86152 0.84861 0.0
H183 H 0.94954 0.91965 0.83139 0.0
H184 H 0.06911 0.93202 0.84584 0.0
H185 H 0.95682 0.84936 0.83436 0.0
H186 H 0.9001 0.95892 0.89732 0.0
H187 H 0.82542 0.01378 0.84963 0.0
H188 H 0.15935 0.06964 0.8595 0.0
H189 H 0.09923 0.99463 0.90501 0.0
H190 H 0.95447 0.9734 0.75412 0.0
H191 H 0.91361 0.05894 0.79994 0.0
H192 H 0.91281 1.00055 0.72486 0.0
H193 H 0.87265 0.08472 0.76983 0.0
H194 H 0.03231 0.99973 0.75787 0.0
H195 H 0.12028 1.00375 0.80789 0.0
H196 H 0.08001 0.97626 0.73046 0.0
H197 H 0.16642 0.97983 0.77967 0.0
H198 H 0.98806 0.18092 0.78044 0.0
H199 H 0.98488 0.10223 0.72458 0.0
H200 H 0.97215 0.86532 0.75509 0.0
H201 H 0.09058 0.86742 0.77521 0.0
C202 C 0.4487 0.9509 0.15202 0.0
C203 C 0.44252 0.95652 0.12905 0.0
C204 C 0.41789 0.94728 0.1668 0.0
C205 C 0.31118 0.9365 0.16896 0.0
H206 H 0.32352 0.98531 0.22675 0.0
C207 C 0.18564 0.98721 0.22475 0.0
C208 C 0.18647 0.9761 0.24741 0.0
C209 C 0.21693 0.98066 0.21072 0.0
C210 C 0.31978 0.97127 0.21075 0.0
H211 H 0.39909 0.96151 0.10346 0.0
H212 H 0.34559 0.95675 0.12912 0.0
H213 H 0.37788 0.98041 0.20152 0.0
H214 H 0.22147 0.94881 0.27274 0.0
H215 H 0.27657 0.93914 0.24841 0.0
H216 H 0.25235 0.92937 0.17799 0.0
C217 C 0.37407 0.95399 0.13585 0.0
C218 C 0.35103 0.96815 0.19627 0.0
C219 C 0.40488 0.95688 0.12105 0.0
C220 C 0.21978 0.95851 0.25559 0.0
C221 C 0.25135 0.95265 0.24163 0.0
C222 C 0.27978 0.9403 0.18329 0.0
C223 C 0.38007 0.94997 0.15904 0.0
C224 C 0.3472 0.95094 0.17506 0.0
C225 C 0.25015 0.96353 0.21904 0.0
C226 C 0.28375 0.95791 0.20426 0.0
H227 H 0.47739 0.95022 0.15868 0.0
H228 H 0.42385 0.94312 0.18439 0.0
H229 H 0.30706 0.92232 0.15305 0.0
H230 H 0.16107 1.00163 0.21783 0.0
H231 H 0.21547 0.98981 0.19344 0.0
C232 C 0.96963 0.37527 0.59665 0.0
C233 C 0.96445 0.414 0.60189 0.0
C234 C 0.96719 0.3474 0.61328 0.0
C235 C 0.97248 0.33626 0.67523 0.0
H236 H 0.94306 0.23247 0.66091 0.0
C237 C 0.96094 0.21203 0.74012 0.0
C238 C 0.98161 0.17903 0.7342 0.0
C239 C 0.95614 0.24187 0.7248 0.0
C240 C 0.95133 0.26137 0.66512 0.0
H241 H 0.95082 0.45366 0.62856 0.0
H242 H 0.94477 0.4049 0.65745 0.0
H243 H 0.93645 0.2822 0.63273 0.0
H244 H 0.01462 0.15275 0.70747 0.0
H245 H 1.00468 0.2039 0.68066 0.0
H246 H 0.9865 0.31504 0.70789 0.0
C247 C 0.95206 0.39606 0.64062 0.0
C248 C 0.94781 0.28992 0.64894 0.0
C249 C 0.95512 0.42406 0.624 0.0
C250 C 0.99761 0.17702 0.71258 0.0
C251 C 0.99216 0.20645 0.69718 0.0
C252 C 0.9753 0.30777 0.69155 0.0
C253 C 0.95885 0.35736 0.6356 0.0
C254 C 0.9591 0.32768 0.65357 0.0
C255 C 0.97128 0.23908 0.7031 0.0
C256 C 0.96546 0.26994 0.68649 0.0
H257 H 0.97725 0.36652 0.57984 0.0
H258 H 0.97335 0.31817 0.60868 0.0
H259 H 0.98206 0.36472 0.67945 0.0
H260 H 0.9477 0.21459 0.75643 0.0
H261 H 0.9398 0.26674 0.72972 0.0
C262 C 0.63834 0.99581 0.11176 0.0
C263 C 0.6069 0.02031 0.1094 0.0
C264 C 0.66808 1.00479 0.12623 0.0
C265 C 0.69131 0.05995 0.17665 0.0
H266 H 0.79413 0.02955 0.16054 0.0
C267 C 0.8242 0.07407 0.23544 0.0
C268 C 0.84629 0.04058 0.23705 0.0
C269 C 0.795 0.07703 0.21954 0.0
C270 C 0.76557 0.0382 0.16529 0.0
H271 H 0.58238 0.07398 0.12024 0.0
H272 H 0.635 0.08999 0.14573 0.0
H273 H 0.74382 0.02712 0.13257 0.0
H274 H 0.85349 0.98344 0.2236 0.0
H275 H 0.80367 0.98917 0.19563 0.0
H276 H 0.71349 0.07071 0.20955 0.0
C277 C 0.63625 0.06359 0.13633 0.0
C278 C 0.7367 0.03678 0.14928 0.0
C279 C 0.60627 0.05458 0.12165 0.0
C280 C 0.83798 0.01007 0.22253 0.0
C281 C 0.80925 0.01325 0.20652 0.0
C282 C 0.72043 0.06172 0.19269 0.0
C283 C 0.66748 0.03864 0.13881 0.0
C284 C 0.69894 0.04639 0.15492 0.0
C285 C 0.7876 0.0468 0.20473 0.0
C286 C 0.75759 0.04972 0.1873 0.0
H287 H 0.6399 0.96915 0.10262 0.0
H288 H 0.69116 0.98449 0.12797 0.0
H289 H 0.66253 0.06739 0.1816 0.0
H290 H 0.82993 0.09835 0.24612 0.0
H291 H 0.7788 0.10327 0.21847 0.0
C292 C 0.05829 0.6171 0.61824 0.0
C293 C 0.06022 0.57882 0.62514 0.0
C294 C 0.06172 0.64673 0.6338 0.0
C295 C 0.04903 0.66467 0.69446 0.0
H296 H 0.08842 0.76452 0.679 0.0
C297 C 0.01276 0.79842 0.74656 0.0
C298 C 0.04018 0.82748 0.74866 0.0
C299 C 0.01912 0.76723 0.73244 0.0
C300 C 0.07775 0.73671 0.68378 0.0
H301 H 0.06989 0.54174 0.65357 0.0
H302 H 0.07718 0.59336 0.68057 0.0
H303 H 0.09575 0.71188 0.65279 0.0
H304 H 0.09615 0.84601 0.73754 0.0
H305 H 0.10782 0.79098 0.71364 0.0
H306 H 0.03177 0.68923 0.72563 0.0
C307 C 0.07176 0.60056 0.66326 0.0
C308 C 0.08151 0.70656 0.66857 0.0
C309 C 0.06794 0.57091 0.64772 0.0
C310 C 0.0745 0.82405 0.73658 0.0
C311 C 0.08099 0.79268 0.72257 0.0
C312 C 0.04556 0.69472 0.70973 0.0
C313 C 0.06756 0.63886 0.65663 0.0
C314 C 0.06669 0.67024 0.67355 0.0
C315 C 0.05325 0.76398 0.72015 0.0
C316 C 0.0593 0.73133 0.70448 0.0
H317 H 0.05222 0.62426 0.60099 0.0
H318 H 0.05792 0.67573 0.62802 0.0
H319 H 0.03679 0.63733 0.69886 0.0
H320 H 0.98623 0.7997 0.75583 0.0
H321 H 0.99683 0.74604 0.73084 0.0
C322 C 0.37411 0.99235 0.02623 0.0
C323 C 0.40403 0.01837 0.02963 0.0
C324 C 0.34421 1.00085 0.0118 0.0
C325 C 0.31854 0.0591 0.96305 0.0
H326 H 0.21749 0.0213 0.97749 0.0
C327 C 0.18543 0.07079 0.90416 0.0
C328 C 0.16554 0.03619 0.90128 0.0
C329 C 0.21432 0.07402 0.92025 0.0
C330 C 0.24554 0.03204 0.97322 0.0
H331 H 0.42564 0.07422 0.02066 0.0
H332 H 0.37269 0.08939 0.99525 0.0
H333 H 0.26747 0.01928 1.00567 0.0
H334 H 0.16201 0.97744 0.91263 0.0
H335 H 0.2112 0.98355 0.94095 0.0
H336 H 0.29617 0.07156 0.93041 0.0
C337 C 0.37279 0.06217 1.0038 0.0
C338 C 0.27423 0.03085 0.98934 0.0
C339 C 0.40295 0.05362 0.01843 0.0
C340 C 0.17575 1.00486 0.9147 0.0
C341 C 0.20414 0.00826 0.93091 0.0
C342 C 0.28957 0.06065 0.94692 0.0
C343 C 0.34308 0.03575 1.00031 0.0
C344 C 0.31145 0.04313 0.98426 0.0
C345 C 0.22356 0.0429 0.93399 0.0
C346 C 0.25311 0.04601 0.95167 0.0
H347 H 0.37389 0.96489 0.03453 0.0
H348 H 0.32238 0.97945 0.00923 0.0
H349 H 0.34689 0.06865 0.95854 0.0
H350 H 0.1782 0.09568 0.89434 0.0
H351 H 0.22879 0.10109 0.92232 0.0
C352 C 0.05849 0.43582 0.50692 0.0
C353 C 0.06767 0.42595 0.52907 0.0
C354 C 0.06114 0.40887 0.48973 0.0
C355 C 0.10096 0.3146 0.47408 0.0
H356 H 0.01158 0.30867 0.43616 0.0
C357 C 0.06869 0.18352 0.41833 0.0
C358 C 0.05075 0.18932 0.39757 0.0
C359 C 0.07426 0.21388 0.43317 0.0
C360 C 0.0371 0.31024 0.44628 0.0
H361 H 0.0889 0.38046 0.55023 0.0
H362 H 0.09363 0.33347 0.52018 0.0
H363 H 0.01642 0.35921 0.4639 0.0
H364 H 0.02529 0.23208 0.37607 0.0
H365 H 0.03603 0.28515 0.40161 0.0
H366 H 0.12157 0.26546 0.4565 0.0
C367 C 0.08439 0.36211 0.51613 0.0
C368 C 0.03984 0.33926 0.46225 0.0
C369 C 0.08159 0.38906 0.53338 0.0
C370 C 0.03944 0.22652 0.39182 0.0
C371 C 0.04517 0.25693 0.40662 0.0
C372 C 0.09833 0.28564 0.45799 0.0
C373 C 0.0732 0.37143 0.49422 0.0
C374 C 0.07165 0.34165 0.47646 0.0
C375 C 0.06224 0.25095 0.42762 0.0
C376 C 0.06619 0.28288 0.444 0.0
H377 H 0.04788 0.46401 0.50293 0.0
H378 H 0.05295 0.41715 0.47296 0.0
H379 H 0.12601 0.31589 0.48462 0.0
H380 H 0.07837 0.1554 0.42321 0.0
H381 H 0.08717 0.20802 0.44925 0.0
C382 C 0.56276 0.95845 0.98639 0.0
C383 C 0.56885 0.96004 0.00959 0.0
C384 C 0.59351 0.95512 0.97158 0.0
C385 C 0.69864 0.93641 0.96841 0.0
H386 H 0.69083 0.99843 0.91493 0.0
C387 C 0.82879 0.98091 0.91425 0.0
C388 C 0.82473 0.9785 0.89085 0.0
C389 C 0.79754 0.97492 0.92842 0.0
C390 C 0.69332 0.98064 0.92966 0.0
H391 H 0.61196 0.95775 0.0355 0.0
H392 H 0.66562 0.95304 0.00975 0.0
H393 H 0.63651 0.99345 0.94008 0.0
H394 H 0.78436 0.96677 0.86421 0.0
H395 H 0.72982 0.9574 0.88893 0.0
H396 H 0.75618 0.92491 0.95817 0.0
C397 C 0.63709 0.95357 1.00288 0.0
C398 C 0.66206 0.97756 0.94408 0.0
C399 C 0.60625 0.95635 0.01771 0.0
C400 C 0.78855 0.9697 0.88207 0.0
C401 C 0.75725 0.96412 0.89624 0.0
C402 C 0.7301 0.93987 0.95407 0.0
C403 C 0.63123 0.95391 0.97957 0.0
C404 C 0.66423 0.95548 0.96372 0.0
C405 C 0.76137 0.96675 0.91957 0.0
C406 C 0.72779 0.96211 0.93457 0.0
H407 H 0.53425 0.96088 0.97961 0.0
H408 H 0.58768 0.95437 0.9538 0.0
H409 H 0.70133 0.91869 0.98314 0.0
H410 H 0.85595 0.98824 0.92167 0.0
H411 H 0.80149 0.97763 0.94632 0.0
C412 C 0.94981 0.60675 0.51473 0.0
C413 C 0.95774 0.61758 0.53691 0.0
C414 C 0.94484 0.63437 0.49809 0.0
C415 C 0.92994 0.73861 0.48875 0.0
H416 H 0.98443 0.71929 0.43337 0.0
C417 C 0.97248 0.85884 0.42777 0.0
C418 C 0.96938 0.85198 0.40464 0.0
C419 C 0.96652 0.8295 0.4432 0.0
C420 C 0.96859 0.72497 0.44858 0.0
H421 H 0.96452 0.66606 0.55914 0.0
H422 H 0.95631 0.71398 0.53022 0.0
H423 H 0.98025 0.66936 0.46156 0.0
H424 H 0.95693 0.8087 0.37973 0.0
H425 H 0.94696 0.75737 0.4067 0.0
H426 H 0.91921 0.79463 0.47595 0.0
C427 C 0.95359 0.68421 0.52563 0.0
C428 C 0.96608 0.69626 0.46476 0.0
C429 C 0.95848 0.65664 0.54225 0.0
C430 C 0.96012 0.81493 0.39738 0.0
C431 C 0.9543 0.7855 0.41284 0.0
C432 C 0.93258 0.76736 0.4726 0.0
C433 C 0.94768 0.67346 0.50322 0.0
C434 C 0.94717 0.70287 0.4852 0.0
C435 C 0.95746 0.79244 0.43594 0.0
C436 C 0.95239 0.76106 0.45245 0.0
H437 H 0.94885 0.57691 0.51003 0.0
H438 H 0.9396 0.62506 0.48109 0.0
H439 H 0.91461 0.74452 0.50411 0.0
H440 H 0.98029 0.88678 0.434 0.0
H441 H 0.96988 0.83568 0.46084 0.0
loop_
_geom_bond_atom_site_label_1
_geom_bond_atom_site_label_2
_geom_bond_distance
_geom_bond_site_symmetry_2
_ccdc_geom_bond_type
Mg0 O7 2.141 . S
Mg0 O8 2.048 . S
Mg0 O9 2.048 . S
Mg0 O12 2.141 . S
C1 O2 1.313 . S
C1 O8 1.195 1_565 S
O2 C1 1.313 . S
C3 O4 1.245 . S
C3 O12 1.289 1_565 S
O4 C3 1.245 . S
C5 O6 1.245 . S
C5 O7 1.289 1_565 S
O6 C5 1.245 . S
O7 Mg0 2.141 . S
O7 C5 1.289 1_545 S
O8 Mg0 2.048 . S
O8 C1 1.195 1_545 S
O9 Mg0 2.048 . S
O9 C10 1.195 1_545 S
C10 O9 1.195 1_565 S
C10 O11 1.313 . S
O11 C10 1.313 . S
O12 Mg0 2.141 . S
O12 C3 1.289 1_545 S
Mg13 O20 2.141 . S
Mg13 O21 2.048 . S
Mg13 O22 2.048 . S
Mg13 O25 2.141 . S
C14 O15 1.313 . S
C14 O21 1.195 1_455 S
O15 C14 1.313 . S
C16 O17 1.245 . S
C16 O25 1.289 1_455 S
O17 C16 1.245 . S
C18 O19 1.245 . S
C18 O20 1.289 1_455 S
O19 C18 1.245 . S
O20 Mg13 2.141 . S
O20 C18 1.289 1_655 S
O21 Mg13 2.048 . S
O21 C14 1.195 1_655 S
O22 Mg13 2.048 . S
O22 C23 1.195 1_655 S
C23 O22 1.195 1_455 S
C23 O24 1.313 . S
O24 C23 1.313 . S
O25 Mg13 2.141 . S
O25 C16 1.289 1_655 S
Li26 N43 1.990 . S
Li26 O86 1.956 1_545 S
Li26 O87 1.970 1_455 S
Li26 O88 1.961 1_455 S
Li27 N51 1.990 . S
Li27 O86 1.970 1_655 S
Li27 O87 1.956 1_565 S
Li27 O89 1.961 1_655 S
Li28 N73 1.990 . S
Li28 O86 1.961 1_545 S
Li28 O88 1.956 1_455 S
Li28 O89 1.970 1_545 S
Li29 N79 1.990 . S
Li29 O87 1.961 1_565 S
Li29 O88 1.970 1_565 S
Li29 O89 1.956 1_655 S
C30 C32 1.348 1_545 S
C30 C33 1.356 . S
C30 O86 1.325 1_545 S
N31 C34 1.314 1_545 S
N31 C35 1.279 . S
C32 C30 1.348 1_565 S
C32 C34 1.353 . S
C32 H90 0.929 . S
C33 C30 1.356 . S
C33 C35 1.358 . S
C33 H91 0.930 . S
C34 N31 1.314 1_565 S
C34 C32 1.353 . S
C34 H92 0.930 . S
C35 N31 1.279 . S
C35 C33 1.358 . S
C35 H93 0.930 . S
C36 C39 1.348 . S
C36 C40 1.356 1_545 S
C36 O87 1.325 . S
C37 N38 1.279 . S
C37 C40 1.358 . S
C37 H94 0.930 . S
N38 C37 1.279 . S
N38 C41 1.314 1_565 S
C39 C36 1.348 . S
C39 C41 1.353 . S
C39 H95 0.929 . S
C40 C36 1.356 1_565 S
C40 C37 1.358 . S
C40 H96 0.930 . S
C41 N38 1.314 1_545 S
C41 C39 1.353 . S
C41 H97 0.930 . S
C42 N43 1.314 1_655 S
C42 C47 1.353 . S
C42 H48 0.930 . S
N43 Li26 1.990 . S
N43 C42 1.314 1_455 S
N43 C45 1.279 . S
C44 C45 1.358 . S
C44 C46 1.356 . S
C44 H98 0.930 . S
C45 N43 1.279 . S
C45 C44 1.358 . S
C45 H49 0.930 . S
C46 C44 1.356 . S
C46 C47 1.348 1_455 S
C47 C42 1.353 . S
C47 C46 1.348 1_655 S
C47 H99 0.929 . S
H48 C42 0.930 . S
H49 C45 0.930 . S
C50 N51 1.314 1_455 S
C50 C52 1.353 . S
C50 H56 0.930 . S
N51 Li27 1.990 . S
N51 C50 1.314 1_655 S
N51 C54 1.279 . S
C52 C50 1.353 . S
C52 C55 1.348 . S
C52 H100 0.929 . S
C53 C54 1.358 . S
C53 C55 1.356 1_655 S
C53 H101 0.930 . S
C54 N51 1.279 . S
C54 C53 1.358 . S
C54 H57 0.930 . S
C55 C52 1.348 . S
C55 C53 1.356 1_455 S
H56 C50 0.930 . S
H57 C54 0.930 . S
C58 C60 1.348 1_455 S
C58 C61 1.356 . S
C58 O88 1.325 1_455 S
N59 C62 1.314 1_455 S
N59 C63 1.279 . S
C60 C58 1.348 1_655 S
C60 C62 1.353 . S
C60 H102 0.929 . S
C61 C58 1.356 . S
C61 C63 1.358 . S
C61 H103 0.930 . S
C62 N59 1.314 1_655 S
C62 C60 1.353 . S
C62 H104 0.930 . S
C63 N59 1.279 . S
C63 C61 1.358 . S
C63 H105 0.930 . S
C64 C65 1.348 . S
C64 C66 1.356 1_455 S
C64 O89 1.325 . S
C65 C64 1.348 . S
C65 C67 1.353 . S
C65 H106 0.929 . S
C66 C64 1.356 1_655 S
C66 C68 1.358 . S
C66 H107 0.930 . S
C67 C65 1.353 . S
C67 N69 1.314 1_455 S
C67 H108 0.930 . S
C68 C66 1.358 . S
C68 N69 1.279 . S
C68 H109 0.930 . S
N69 C67 1.314 1_655 S
N69 C68 1.279 . S
C70 C72 1.353 . S
C70 N73 1.314 1_565 S
C70 H76 0.930 . S
C71 N73 1.279 . S
C71 C74 1.358 . S
C71 H77 0.930 . S
C72 C70 1.353 . S
C72 C75 1.348 1_565 S
C72 H110 0.929 . S
N73 Li28 1.990 . S
N73 C70 1.314 1_545 S
N73 C71 1.279 . S
C74 C71 1.358 . S
C74 C75 1.356 . S
C74 H111 0.930 . S
C75 C72 1.348 1_545 S
C75 C74 1.356 . S
H76 C70 0.930 . S
H77 C71 0.930 . S
C78 N79 1.314 1_545 S
C78 C80 1.353 . S
C78 H84 0.930 . S
N79 Li29 1.990 . S
N79 C78 1.314 1_565 S
N79 C82 1.279 . S
C80 C78 1.353 . S
C80 C83 1.348 . S
C80 H112 0.929 . S
C81 C82 1.358 . S
C81 C83 1.356 1_565 S
C81 H113 0.930 . S
C82 N79 1.279 . S
C82 C81 1.358 . S
C82 H85 0.930 . S
C83 C80 1.348 . S
C83 C81 1.356 1_545 S
H84 C78 0.930 . S
H85 C82 0.930 . S
O86 Li26 1.956 1_565 S
O86 Li27 1.970 1_455 S
O86 Li28 1.961 1_565 S
O86 C30 1.325 1_565 S
O87 Li26 1.970 1_655 S
O87 Li27 1.956 1_545 S
O87 Li29 1.961 1_545 S
O87 C36 1.325 . S
O88 Li26 1.961 1_655 S
O88 Li28 1.956 1_655 S
O88 Li29 1.970 1_545 S
O88 C58 1.325 1_655 S
O89 Li27 1.961 1_455 S
O89 Li28 1.970 1_565 S
O89 Li29 1.956 1_455 S
O89 C64 1.325 . S
H90 C32 0.929 . S
H91 C33 0.930 . S
H92 C34 0.930 . S
H93 C35 0.930 . S
H94 C37 0.930 . S
H95 C39 0.929 . S
H96 C40 0.930 . S
H97 C41 0.930 . S
H98 C44 0.930 . S
H99 C47 0.929 . S
H100 C52 0.929 . S
H101 C53 0.930 . S
H102 C60 0.929 . S
H103 C61 0.930 . S
H104 C62 0.930 . S
H105 C63 0.930 . S
H106 C65 0.929 . S
H107 C66 0.930 . S
H108 C67 0.930 . S
H109 C68 0.930 . S
H110 C72 0.929 . S
H111 C74 0.930 . S
H112 C80 0.929 . S
H113 C81 0.930 . S
Li114 N131 1.990 . S
Li114 O174 1.956 1_655 S
Li114 O175 1.970 1_545 S
Li114 O176 1.961 1_545 S
Li115 N139 1.990 . S
Li115 O174 1.970 1_565 S
Li115 O175 1.956 1_455 S
Li115 O177 1.961 1_565 S
Li116 N161 1.990 . S
Li116 O174 1.961 1_655 S
Li116 O176 1.956 1_545 S
Li116 O177 1.970 1_655 S
Li117 N167 1.990 . S
Li117 O175 1.961 1_455 S
Li117 O176 1.970 1_455 S
Li117 O177 1.956 1_565 S
C118 C120 1.348 . S
C118 C121 1.356 1_455 S
C118 O174 1.325 . S
N119 C122 1.314 1_655 S
N119 C123 1.279 . S
C120 C118 1.348 . S
C120 C122 1.353 . S
C120 H178 0.929 . S
C121 C118 1.356 1_655 S
C121 C123 1.358 . S
C121 H179 0.930 . S
C122 N119 1.314 1_455 S
C122 C120 1.353 . S
C122 H180 0.930 . S
C123 N119 1.279 . S
C123 C121 1.358 . S
C123 H181 0.930 . S
C124 C127 1.348 1_455 S
C124 C128 1.356 . S
C124 O175 1.325 1_455 S
C125 N126 1.279 . S
C125 C128 1.358 . S
C125 H182 0.930 . S
N126 C125 1.279 . S
N126 C129 1.314 1_455 S
C127 C124 1.348 1_655 S
C127 C129 1.353 . S
C127 H183 0.929 . S
C128 C124 1.356 . S
C128 C125 1.358 . S
C128 H184 0.930 . S
C129 N126 1.314 1_655 S
C129 C127 1.353 . S
C129 H185 0.930 . S
C130 N131 1.314 1_565 S
C130 C135 1.353 . S
C130 H136 0.930 . S
N131 Li114 1.990 . S
N131 C130 1.314 1_545 S
N131 C133 1.279 . S
C132 C133 1.358 . S
C132 C134 1.355 . S
C132 H186 0.930 . S
C133 N131 1.279 . S
C133 C132 1.358 . S
C133 H137 0.930 . S
C134 C132 1.355 . S
C134 C135 1.348 1_545 S
C135 C130 1.353 . S
C135 C134 1.348 1_565 S
C135 H187 0.929 . S
H136 C130 0.930 . S
H137 C133 0.930 . S
C138 N139 1.314 1_545 S
C138 C140 1.353 . S
C138 H144 0.930 . S
N139 Li115 1.990 . S
N139 C138 1.314 1_565 S
N139 C142 1.279 . S
C140 C138 1.353 . S
C140 C143 1.348 . S
C140 H188 0.929 . S
C141 C142 1.358 . S
C141 C143 1.355 1_565 S
C141 H189 0.930 . S
C142 N139 1.279 . S
C142 C141 1.358 . S
C142 H145 0.930 . S
C143 C140 1.348 . S
C143 C141 1.355 1_545 S
H144 C138 0.930 . S
H145 C142 0.930 . S
C146 C148 1.348 1_545 S
C146 C149 1.356 . S
C146 O176 1.325 1_545 S
N147 C150 1.314 1_545 S
N147 C151 1.279 . S
C148 C146 1.348 1_565 S
C148 C150 1.353 . S
C148 H190 0.929 . S
C149 C146 1.356 . S
C149 C151 1.358 . S
C149 H191 0.930 . S
C150 N147 1.314 1_565 S
C150 C148 1.353 . S
C150 H192 0.930 . S
C151 N147 1.279 . S
C151 C149 1.358 . S
C151 H193 0.930 . S
C152 C153 1.348 . S
C152 C154 1.356 1_545 S
C152 O177 1.325 . S
C153 C152 1.348 . S
C153 C155 1.353 . S
C153 H194 0.929 . S
C154 C152 1.356 1_565 S
C154 C156 1.358 . S
C154 H195 0.930 . S
C155 C153 1.353 . S
C155 N157 1.314 1_545 S
C155 H196 0.930 . S
C156 C154 1.358 . S
C156 N157 1.279 . S
C156 H197 0.930 . S
N157 C155 1.314 1_565 S
N157 C156 1.279 . S
C158 C160 1.353 . S
C158 N161 1.314 1_455 S
C158 H164 0.930 . S
C159 N161 1.279 . S
C159 C162 1.358 . S
C159 H165 0.930 . S
C160 C158 1.353 . S
C160 C163 1.348 . S
C160 H198 0.929 . S
N161 Li116 1.990 . S
N161 C158 1.314 1_655 S
N161 C159 1.279 . S
C162 C159 1.358 . S
C162 C163 1.355 1_655 S
C162 H199 0.930 . S
C163 C160 1.348 . S
C163 C162 1.355 1_455 S
H164 C158 0.930 . S
H165 C159 0.930 . S
C166 N167 1.314 1_655 S
C166 C168 1.353 . S
C166 H172 0.930 . S
N167 Li117 1.990 . S
N167 C166 1.314 1_455 S
N167 C170 1.279 . S
C168 C166 1.353 . S
C168 C171 1.348 1_655 S
C168 H200 0.929 . S
C169 C170 1.358 . S
C169 C171 1.355 . S
C169 H201 0.930 . S
C170 N167 1.279 . S
C170 C169 1.358 . S
C170 H173 0.930 . S
C171 C168 1.348 1_455 S
C171 C169 1.355 . S
H172 C166 0.930 . S
H173 C170 0.930 . S
O174 Li114 1.956 1_455 S
O174 Li115 1.970 1_545 S
O174 Li116 1.961 1_455 S
O174 C118 1.325 . S
O175 Li114 1.970 1_565 S
O175 Li115 1.956 1_655 S
O175 Li117 1.961 1_655 S
O175 C124 1.325 1_655 S
O176 Li114 1.961 1_565 S
O176 Li116 1.956 1_565 S
O176 Li117 1.970 1_655 S
O176 C146 1.325 1_565 S
O177 Li115 1.961 1_545 S
O177 Li116 1.970 1_455 S
O177 Li117 1.956 1_545 S
O177 C152 1.325 . S
H178 C120 0.929 . S
H179 C121 0.930 . S
H180 C122 0.930 . S
H181 C123 0.930 . S
H182 C125 0.930 . S
H183 C127 0.929 . S
H184 C128 0.930 . S
H185 C129 0.930 . S
H186 C132 0.930 . S
H187 C135 0.929 . S
H188 C140 0.929 . S
H189 C141 0.930 . S
H190 C148 0.929 . S
H191 C149 0.930 . S
H192 C150 0.930 . S
H193 C151 0.930 . S
H194 C153 0.929 . S
H195 C154 0.930 . S
H196 C155 0.930 . S
H197 C156 0.930 . S
H198 C160 0.929 . S
H199 C162 0.930 . S
H200 C168 0.929 . S
H201 C169 0.930 . S
C202 C203 1.350 1_565 S
C202 C204 1.327 . S
C202 H227 0.950 . S
C203 C202 1.350 1_545 S
C203 C219 1.348 . S
C204 C202 1.327 . S
C204 C223 1.429 . S
C204 H228 0.950 . S
C205 C222 1.574 . S
C205 C224 1.365 1_545 S
C205 H229 0.949 . S
H206 C210 0.949 . S
C207 C208 1.333 1_545 S
C207 C209 1.327 . S
C207 H230 0.950 . S
C208 C207 1.333 1_565 S
C208 C220 1.364 . S
C209 C207 1.327 . S
C209 C225 1.418 1_545 S
C209 H231 0.950 . S
C210 H206 0.949 . S
C210 C218 1.574 . S
C210 C226 1.377 . S
H211 C219 0.950 . S
H212 C217 0.950 . S
H213 C218 0.949 . S
H214 C220 0.950 . S
H215 C221 0.950 . S
H216 C222 0.949 . S
C217 H212 0.950 . S
C217 C219 1.327 . S
C217 C223 1.428 1_545 S
C218 C210 1.574 . S
C218 H213 0.949 . S
C218 C224 1.372 . S
C219 C203 1.348 . S
C219 H211 0.950 . S
C219 C217 1.327 . S
C220 C208 1.364 . S
C220 H214 0.950 . S
C220 C221 1.327 . S
C221 H215 0.950 . S
C221 C220 1.327 . S
C221 C225 1.439 . S
C222 C205 1.574 . S
C222 H216 0.949 . S
C222 C226 1.360 1_545 S
C223 C204 1.429 . S
C223 C217 1.428 1_565 S
C223 C224 1.523 . S
C224 C205 1.365 1_565 S
C224 C218 1.372 . S
C224 C223 1.523 . S
C225 C209 1.418 1_565 S
C225 C221 1.439 . S
C225 C226 1.523 . S
C226 C210 1.377 . S
C226 C222 1.360 1_565 S
C226 C225 1.523 . S
H227 C202 0.950 . S
H228 C204 0.950 . S
H229 C205 0.949 . S
H230 C207 0.950 . S
H231 C209 0.950 . S
C232 C233 1.350 . S
C232 C234 1.327 . S
C232 H257 0.950 . S
C233 C232 1.350 . S
C233 C249 1.348 1_455 S
C234 C232 1.327 . S
C234 C253 1.433 . S
C234 H258 0.950 . S
C235 C252 1.574 . S
C235 C254 1.362 1_655 S
C235 H259 0.949 . S
H236 C240 0.949 . S
C237 C238 1.335 1_655 S
C237 C239 1.327 . S
C237 H260 0.950 . S
C238 C237 1.335 1_455 S
C238 C250 1.364 . S
C239 C237 1.327 . S
C239 C255 1.418 1_655 S
C239 H261 0.950 . S
C240 H236 0.949 . S
C240 C248 1.574 . S
C240 C256 1.378 . S
H241 C249 0.950 . S
H242 C247 0.950 . S
H243 C248 0.949 . S
H244 C250 0.950 . S
H245 C251 0.950 . S
H246 C252 0.949 . S
C247 H242 0.950 . S
C247 C249 1.327 . S
C247 C253 1.424 1_655 S
C248 C240 1.574 . S
C248 H243 0.949 . S
C248 C254 1.375 . S
C249 C233 1.348 1_655 S
C249 H241 0.950 . S
C249 C247 1.327 . S
C250 C238 1.364 . S
C250 H244 0.950 . S
C250 C251 1.327 . S
C251 H245 0.950 . S
C251 C250 1.327 . S
C251 C255 1.440 . S
C252 C235 1.574 . S
C252 H246 0.949 . S
C252 C256 1.359 1_655 S
C253 C234 1.433 . S
C253 C247 1.424 1_455 S
C253 C254 1.523 . S
C254 C235 1.362 1_455 S
C254 C248 1.375 . S
C254 C253 1.523 . S
C255 C239 1.418 1_455 S
C255 C251 1.440 . S
C255 C256 1.523 . S
C256 C240 1.378 . S
C256 C252 1.359 1_455 S
C256 C255 1.523 . S
H257 C232 0.950 . S
H258 C234 0.950 . S
H259 C235 0.949 . S
H260 C237 0.950 . S
H261 C239 0.950 . S
C262 C263 1.348 1_565 S
C262 C264 1.327 . S
C262 H287 0.950 . S
C263 C262 1.348 1_545 S
C263 C279 1.350 . S
C264 C262 1.327 . S
C264 C283 1.422 1_565 S
C264 H288 0.950 . S
C265 C282 1.574 . S
C265 C284 1.379 . S
C265 H289 0.949 . S
H266 C270 0.949 . S
C267 C268 1.372 . S
C267 C269 1.327 . S
C267 H290 0.950 . S
C268 C267 1.372 . S
C268 C280 1.326 1_545 S
C269 C267 1.327 . S
C269 C285 1.446 . S
C269 H291 0.950 . S
C270 H266 0.949 . S
C270 C278 1.574 . S
C270 C286 1.353 1_565 S
H271 C279 0.950 . S
H272 C277 0.950 . S
H273 C278 0.949 . S
H274 C280 0.950 . S
H275 C281 0.950 . S
H276 C282 0.949 . S
C277 H272 0.950 . S
C277 C279 1.327 . S
C277 C283 1.435 . S
C278 C270 1.574 . S
C278 H273 0.949 . S
C278 C284 1.358 1_565 S
C279 C263 1.350 . S
C279 H271 0.950 . S
C279 C277 1.327 . S
C280 C268 1.326 1_565 S
C280 H274 0.950 . S
C280 C281 1.327 . S
C281 H275 0.950 . S
C281 C280 1.327 . S
C281 C285 1.411 1_565 S
C282 C265 1.574 . S
C282 H276 0.949 . S
C282 C286 1.384 . S
C283 C264 1.422 1_545 S
C283 C277 1.435 . S
C283 C284 1.523 . S
C284 C265 1.379 . S
C284 C278 1.358 1_545 S
C284 C283 1.523 . S
C285 C269 1.446 . S
C285 C281 1.411 1_545 S
C285 C286 1.523 . S
C286 C270 1.353 1_545 S
C286 C282 1.384 . S
C286 C285 1.523 . S
H287 C262 0.950 . S
H288 C264 0.950 . S
H289 C265 0.949 . S
H290 C267 0.950 . S
H291 C269 0.950 . S
C292 C293 1.350 1_655 S
C292 C294 1.327 . S
C292 H317 0.950 . S
C293 C292 1.350 1_455 S
C293 C309 1.348 . S
C294 C292 1.327 . S
C294 C313 1.429 . S
C294 H318 0.950 . S
C295 C312 1.574 . S
C295 C314 1.366 1_455 S
C295 H319 0.949 . S
H296 C300 0.949 . S
C297 C298 1.340 1_455 S
C297 C299 1.327 . S
C297 H320 0.950 . S
C298 C297 1.340 1_655 S
C298 C310 1.358 . S
C299 C297 1.327 . S
C299 C315 1.422 1_455 S
C299 H321 0.950 . S
C300 H296 0.949 . S
C300 C308 1.574 . S
C300 C316 1.373 . S
H301 C309 0.950 . S
H302 C307 0.950 . S
H303 C308 0.949 . S
H304 C310 0.950 . S
H305 C311 0.950 . S
H306 C312 0.949 . S
C307 H302 0.950 . S
C307 C309 1.327 . S
C307 C313 1.428 1_455 S
C308 C300 1.574 . S
C308 H303 0.949 . S
C308 C314 1.371 . S
C309 C293 1.348 . S
C309 H301 0.950 . S
C309 C307 1.327 . S
C310 C298 1.358 . S
C310 H304 0.950 . S
C310 C311 1.327 . S
C311 H305 0.950 . S
C311 C310 1.327 . S
C311 C315 1.435 . S
C312 C295 1.574 . S
C312 H306 0.949 . S
C312 C316 1.363 1_455 S
C313 C294 1.429 . S
C313 C307 1.428 1_655 S
C313 C314 1.523 . S
C314 C295 1.366 1_655 S
C314 C308 1.371 . S
C314 C313 1.523 . S
C315 C299 1.422 1_655 S
C315 C311 1.435 . S
C315 C316 1.523 . S
C316 C300 1.373 . S
C316 C312 1.363 1_655 S
C316 C315 1.523 . S
H317 C292 0.950 . S
H318 C294 0.950 . S
H319 C295 0.949 . S
H320 C297 0.950 . S
H321 C299 0.950 . S
C322 C323 1.348 1_565 S
C322 C324 1.327 1_554 S
C322 H347 0.950 . S
C323 C322 1.348 1_545 S
C323 C339 1.350 1_554 S
C324 C322 1.327 1_556 S
C324 C343 1.423 1_565 S
C324 H348 0.950 . S
C325 C342 1.574 . S
C325 C344 1.378 . S
C325 H349 0.949 . S
H326 C330 0.949 . S
C327 C328 1.370 . S
C327 C329 1.327 . S
C327 H350 0.950 . S
C328 C327 1.370 . S
C328 C340 1.328 1_545 S
C329 C327 1.327 . S
C329 C345 1.444 . S
C329 H351 0.950 . S
C330 H326 0.949 . S
C330 C338 1.574 . S
C330 C346 1.354 1_565 S
H331 C339 0.950 . S
H332 C337 0.950 . S
H333 C338 0.949 . S
H334 C340 0.950 . S
H335 C341 0.950 . S
H336 C342 0.949 . S
C337 H332 0.950 . S
C337 C339 1.327 . S
C337 C343 1.434 . S
C338 C330 1.574 . S
C338 H333 0.949 . S
C338 C344 1.359 1_565 S
C339 C323 1.350 1_556 S
C339 H331 0.950 . S
C339 C337 1.327 . S
C340 C328 1.328 1_565 S
C340 H334 0.950 . S
C340 C341 1.327 . S
C341 H335 0.950 . S
C341 C340 1.327 . S
C341 C345 1.413 1_565 S
C342 C325 1.574 . S
C342 H336 0.949 . S
C342 C346 1.382 . S
C343 C324 1.423 1_545 S
C343 C337 1.434 . S
C343 C344 1.523 . S
C344 C325 1.378 . S
C344 C338 1.359 1_545 S
C344 C343 1.523 . S
C345 C329 1.444 . S
C345 C341 1.413 1_545 S
C345 C346 1.523 . S
C346 C330 1.354 1_545 S
C346 C342 1.382 . S
C346 C345 1.523 . S
H347 C322 0.950 . S
H348 C324 0.950 . S
H349 C325 0.949 . S
H350 C327 0.950 . S
H351 C329 0.950 . S
C352 C353 1.350 1_655 S
C352 C354 1.327 . S
C352 H377 0.950 . S
C353 C352 1.350 1_455 S
C353 C369 1.348 . S
C354 C352 1.327 . S
C354 C373 1.430 . S
C354 H378 0.950 . S
C355 C372 1.574 . S
C355 C374 1.364 1_455 S
C355 H379 0.949 . S
H356 C360 0.949 . S
C357 C358 1.331 1_455 S
C357 C359 1.327 . S
C357 H380 0.950 . S
C358 C357 1.331 1_655 S
C358 C370 1.367 . S
C359 C357 1.327 . S
C359 C375 1.416 1_455 S
C359 H381 0.950 . S
C360 H356 0.949 . S
C360 C368 1.574 . S
C360 C376 1.378 . S
H361 C369 0.950 . S
H362 C367 0.950 . S
H363 C368 0.949 . S
H364 C370 0.950 . S
H365 C371 0.950 . S
H366 C372 0.949 . S
C367 H362 0.950 . S
C367 C369 1.327 . S
C367 C373 1.428 1_455 S
C368 C360 1.574 . S
C368 H363 0.949 . S
C368 C374 1.373 . S
C369 C353 1.348 . S
C369 H361 0.950 . S
C369 C367 1.327 . S
C370 C358 1.367 . S
C370 H364 0.950 . S
C370 C371 1.327 . S
C371 H365 0.950 . S
C371 C370 1.327 . S
C371 C375 1.441 . S
C372 C355 1.574 . S
C372 H366 0.949 . S
C372 C376 1.358 1_455 S
C373 C354 1.430 . S
C373 C367 1.428 1_655 S
C373 C374 1.523 . S
C374 C355 1.364 1_655 S
C374 C368 1.373 . S
C374 C373 1.523 . S
C375 C359 1.416 1_655 S
C375 C371 1.441 . S
C375 C376 1.523 . S
C376 C360 1.378 . S
C376 C372 1.358 1_655 S
C376 C375 1.523 . S
H377 C352 0.950 . S
H378 C354 0.950 . S
H379 C355 0.949 . S
H380 C357 0.950 . S
H381 C359 0.950 . S
C382 C383 1.350 1_566 S
C382 C384 1.327 . S
C382 H407 0.950 . S
C383 C382 1.350 1_544 S
C383 C399 1.348 . S
C384 C382 1.327 . S
C384 C403 1.430 . S
C384 H408 0.950 . S
C385 C402 1.574 . S
C385 C404 1.364 1_545 S
C385 H409 0.949 . S
H386 C390 0.949 . S
C387 C388 1.333 1_545 S
C387 C389 1.327 . S
C387 H410 0.950 . S
C388 C387 1.333 1_565 S
C388 C400 1.365 . S
C389 C387 1.327 . S
C389 C405 1.418 1_545 S
C389 H411 0.950 . S
C390 H386 0.949 . S
C390 C398 1.574 . S
C390 C406 1.377 . S
H391 C399 0.950 . S
H392 C397 0.950 . S
H393 C398 0.949 . S
H394 C400 0.950 . S
H395 C401 0.950 . S
H396 C402 0.949 . S
C397 H392 0.950 . S
C397 C399 1.327 1_556 S
C397 C403 1.428 1_545 S
C398 C390 1.574 . S
C398 H393 0.949 . S
C398 C404 1.372 . S
C399 C383 1.348 . S
C399 H391 0.950 . S
C399 C397 1.327 1_554 S
C400 C388 1.365 . S
C400 H394 0.950 . S
C400 C401 1.327 . S
C401 H395 0.950 . S
C401 C400 1.327 . S
C401 C405 1.439 . S
C402 C385 1.574 . S
C402 H396 0.949 . S
C402 C406 1.360 1_545 S
C403 C384 1.430 . S
C403 C397 1.428 1_565 S
C403 C404 1.523 . S
C404 C385 1.364 1_565 S
C404 C398 1.372 . S
C404 C403 1.523 . S
C405 C389 1.418 1_565 S
C405 C401 1.439 . S
C405 C406 1.523 . S
C406 C390 1.377 . S
C406 C402 1.360 1_565 S
C406 C405 1.523 . S
H407 C382 0.950 . S
H408 C384 0.950 . S
H409 C385 0.949 . S
H410 C387 0.950 . S
H411 C389 0.950 . S
C412 C413 1.349 . S
C412 C414 1.327 . S
C412 H437 0.950 . S
C413 C412 1.349 . S
C413 C429 1.349 1_455 S
C414 C412 1.327 . S
C414 C433 1.430 . S
C414 H438 0.950 . S
C415 C432 1.574 . S
C415 C434 1.367 1_655 S
C415 H439 0.949 . S
H416 C420 0.949 . S
C417 C418 1.345 1_655 S
C417 C419 1.327 . S
C417 H440 0.950 . S
C418 C417 1.345 1_455 S
C418 C430 1.353 . S
C419 C417 1.327 . S
C419 C435 1.426 1_655 S
C419 H441 0.950 . S
C420 H416 0.949 . S
C420 C428 1.574 . S
C420 C436 1.371 . S
H421 C429 0.950 . S
H422 C427 0.950 . S
H423 C428 0.949 . S
H424 C430 0.950 . S
H425 C431 0.950 . S
H426 C432 0.949 . S
C427 H422 0.950 . S
C427 C429 1.327 . S
C427 C433 1.427 1_655 S
C428 C420 1.574 . S
C428 H423 0.949 . S
C428 C434 1.370 . S
C429 C413 1.349 1_655 S
C429 H421 0.950 . S
C429 C427 1.327 . S
C430 C418 1.353 . S
C430 H424 0.950 . S
C430 C431 1.327 . S
C431 H425 0.950 . S
C431 C430 1.327 . S
C431 C435 1.432 . S
C432 C415 1.574 . S
C432 H426 0.949 . S
C432 C436 1.366 1_655 S
C433 C414 1.430 . S
C433 C427 1.427 1_455 S
C433 C434 1.523 . S
C434 C415 1.367 1_455 S
C434 C428 1.370 . S
C434 C433 1.523 . S
C435 C419 1.426 1_455 S
C435 C431 1.432 . S
C435 C436 1.523 . S
C436 C420 1.371 . S
C436 C432 1.366 1_455 S
C436 C435 1.523 . S
H437 C412 0.950 . S
H438 C414 0.950 . S
H439 C415 0.949 . S
H440 C417 0.950 . S
H441 C419 0.950 . S
C208 C75 1.381 1_565 S
C203 C5 1.372 1_545 S
C238 C163 1.464 . S
C233 C23 1.459 . S
C268 C83 1.381 . S
C263 C3 1.377 1_545 S
C298 C171 1.464 1_655 S
C293 C14 1.464 . S
C328 C143 1.464 . S
C323 C1 1.459 1_545 S
C358 C46 1.381 1_655 S
C353 C16 1.372 . S
C388 C134 1.464 1_565 S
C383 C10 1.464 1_545 S
C413 C18 1.374 . S
C418 C55 1.384 . S
