# Generated by pormake.
# Topology gar, (4,6)-cn, num edge types: 1
# Building blocks:
#     Node 0, Type 0, BuildingBlock: KUFVIS_clean_sbu_0, # of connection points: 4
#     Node 1, Type 0, BuildingBlock: KUFVIS_clean_sbu_0, # of connection points: 4
#     Node 2, Type 0, BuildingBlock: KUFVIS_clean_sbu_0, # of connection points: 4
#     Node 3, Type 0, BuildingBlock: KUFVIS_clean_sbu_0, # of connection points: 4
#     Node 4, Type 0, BuildingBlock: KUFVIS_clean_sbu_0, # of connection points: 4
#     Node 5, Type 0, BuildingBlock: KUFVIS_clean_sbu_0, # of connection points: 4
#     Node 6, Type 0, BuildingBlock: KUFVIS_clean_sbu_0, # of connection points: 4
#     Node 7, Type 0, BuildingBlock: KUFVIS_clean_sbu_0, # of connection points: 4
#     Node 8, Type 0, BuildingBlock: KUFVIS_clean_sbu_0, # of connection points: 4
#     Node 9, Type 0, BuildingBlock: KUFVIS_clean_sbu_0, # of connection points: 4
#     Node 10, Type 0, BuildingBlock: KUFVIS_clean_sbu_0, # of connection points: 4
#     Node 11, Type 0, BuildingBlock: KUFVIS_clean_sbu_0, # of connection points: 4
#     Node 12, Type 0, BuildingBlock: KUFVIS_clean_sbu_0, # of connection points: 4
#     Node 13, Type 0, BuildingBlock: KUFVIS_clean_sbu_0, # of connection points: 4
#     Node 14, Type 0, BuildingBlock: KUFVIS_clean_sbu_0, # of connection points: 4
#     Node 15, Type 0, BuildingBlock: KUFVIS_clean_sbu_0, # of connection points: 4
#     Node 16, Type 0, BuildingBlock: KUFVIS_clean_sbu_0, # of connection points: 4
#     Node 17, Type 0, BuildingBlock: KUFVIS_clean_sbu_0, # of connection points: 4
#     Node 18, Type 0, BuildingBlock: KUFVIS_clean_sbu_0, # of connection points: 4
#     Node 19, Type 0, BuildingBlock: KUFVIS_clean_sbu_0, # of connection points: 4
#     Node 20, Type 0, BuildingBlock: KUFVIS_clean_sbu_0, # of connection points: 4
#     Node 21, Type 0, BuildingBlock: KUFVIS_clean_sbu_0, # of connection points: 4
#     Node 22, Type 0, BuildingBlock: KUFVIS_clean_sbu_0, # of connection points: 4
#     Node 23, Type 0, BuildingBlock: KUFVIS_clean_sbu_0, # of connection points: 4
#     Node 24, Type 1, BuildingBlock: KUMBUR_clean_sbu_1, # of connection points: 6
#     Node 25, Type 1, BuildingBlock: KUMBUR_clean_sbu_1, # of connection points: 6
#     Node 26, Type 1, BuildingBlock: KUMBUR_clean_sbu_1, # of connection points: 6
#     Node 27, Type 1, BuildingBlock: KUMBUR_clean_sbu_1, # of connection points: 6
#     Node 28, Type 1, BuildingBlock: KUMBUR_clean_sbu_1, # of connection points: 6
#     Node 29, Type 1, BuildingBlock: KUMBUR_clean_sbu_1, # of connection points: 6
#     Node 30, Type 1, BuildingBlock: KUMBUR_clean_sbu_1, # of connection points: 6
#     Node 31, Type 1, BuildingBlock: KUMBUR_clean_sbu_1, # of connection points: 6
#     Node 32, Type 1, BuildingBlock: KUMBUR_clean_sbu_1, # of connection points: 6
#     Node 33, Type 1, BuildingBlock: KUMBUR_clean_sbu_1, # of connection points: 6
#     Node 34, Type 1, BuildingBlock: KUMBUR_clean_sbu_1, # of connection points: 6
#     Node 35, Type 1, BuildingBlock: KUMBUR_clean_sbu_1, # of connection points: 6
#     Node 36, Type 1, BuildingBlock: KUMBUR_clean_sbu_1, # of connection points: 6
#     Node 37, Type 1, BuildingBlock: KUMBUR_clean_sbu_1, # of connection points: 6
#     Node 38, Type 1, BuildingBlock: KUMBUR_clean_sbu_1, # of connection points: 6
#     Node 39, Type 1, BuildingBlock: KUMBUR_clean_sbu_1, # of connection points: 6
#     Edge 40, Type (0, 1), BuildingBlock: XUDNAN_clean_linker_2, # of connection points: 2
#     Edge 41, Type (0, 1), BuildingBlock: XUDNAN_clean_linker_2, # of connection points: 2
#     Edge 42, Type (0, 1), BuildingBlock: XUDNAN_clean_linker_2, # of connection points: 2
#     Edge 43, Type (0, 1), BuildingBlock: XUDNAN_clean_linker_2, # of connection points: 2
#     Edge 44, Type (0, 1), BuildingBlock: XUDNAN_clean_linker_2, # of connection points: 2
#     Edge 45, Type (0, 1), BuildingBlock: XUDNAN_clean_linker_2, # of connection points: 2
#     Edge 46, Type (0, 1), BuildingBlock: XUDNAN_clean_linker_2, # of connection points: 2
#     Edge 47, Type (0, 1), BuildingBlock: XUDNAN_clean_linker_2, # of connection points: 2
#     Edge 48, Type (0, 1), BuildingBlock: XUDNAN_clean_linker_2, # of connection points: 2
#     Edge 49, Type (0, 1), BuildingBlock: XUDNAN_clean_linker_2, # of connection points: 2
#     Edge 50, Type (0, 1), BuildingBlock: XUDNAN_clean_linker_2, # of connection points: 2
#     Edge 51, Type (0, 1), BuildingBlock: XUDNAN_clean_linker_2, # of connection points: 2
#     Edge 52, Type (0, 1), BuildingBlock: XUDNAN_clean_linker_2, # of connection points: 2
#     Edge 53, Type (0, 1), BuildingBlock: XUDNAN_clean_linker_2, # of connection points: 2
#     Edge 54, Type (0, 1), BuildingBlock: XUDNAN_clean_linker_2, # of connection points: 2
#     Edge 55, Type (0, 1), BuildingBlock: XUDNAN_clean_linker_2, # of connection points: 2
#     Edge 56, Type (0, 1), BuildingBlock: XUDNAN_clean_linker_2, # of connection points: 2
#     Edge 57, Type (0, 1), BuildingBlock: XUDNAN_clean_linker_2, # of connection points: 2
#     Edge 58, Type (0, 1), BuildingBlock: XUDNAN_clean_linker_2, # of connection points: 2
#     Edge 59, Type (0, 1), BuildingBlock: XUDNAN_clean_linker_2, # of connection points: 2
#     Edge 60, Type (0, 1), BuildingBlock: XUDNAN_clean_linker_2, # of connection points: 2
#     Edge 61, Type (0, 1), BuildingBlock: XUDNAN_clean_linker_2, # of connection points: 2
#     Edge 62, Type (0, 1), BuildingBlock: XUDNAN_clean_linker_2, # of connection points: 2
#     Edge 63, Type (0, 1), BuildingBlock: XUDNAN_clean_linker_2, # of connection points: 2
#     Edge 64, Type (0, 1), BuildingBlock: XUDNAN_clean_linker_2, # of connection points: 2
#     Edge 65, Type (0, 1), BuildingBlock: XUDNAN_clean_linker_2, # of connection points: 2
#     Edge 66, Type (0, 1), BuildingBlock: XUDNAN_clean_linker_2, # of connection points: 2
#     Edge 67, Type (0, 1), BuildingBlock: XUDNAN_clean_linker_2, # of connection points: 2
#     Edge 68, Type (0, 1), BuildingBlock: XUDNAN_clean_linker_2, # of connection points: 2
#     Edge 69, Type (0, 1), BuildingBlock: XUDNAN_clean_linker_2, # of connection points: 2
#     Edge 70, Type (0, 1), BuildingBlock: XUDNAN_clean_linker_2, # of connection points: 2
#     Edge 71, Type (0, 1), BuildingBlock: XUDNAN_clean_linker_2, # of connection points: 2
#     Edge 72, Type (0, 1), BuildingBlock: XUDNAN_clean_linker_2, # of connection points: 2
#     Edge 73, Type (0, 1), BuildingBlock: XUDNAN_clean_linker_2, # of connection points: 2
#     Edge 74, Type (0, 1), BuildingBlock: XUDNAN_clean_linker_2, # of connection points: 2
#     Edge 75, Type (0, 1), BuildingBlock: XUDNAN_clean_linker_2, # of connection points: 2
#     Edge 76, Type (0, 1), BuildingBlock: XUDNAN_clean_linker_2, # of connection points: 2
#     Edge 77, Type (0, 1), BuildingBlock: XUDNAN_clean_linker_2, # of connection points: 2
#     Edge 78, Type (0, 1), BuildingBlock: XUDNAN_clean_linker_2, # of connection points: 2
#     Edge 79, Type (0, 1), BuildingBlock: XUDNAN_clean_linker_2, # of connection points: 2
#     Edge 80, Type (0, 1), BuildingBlock: XUDNAN_clean_linker_2, # of connection points: 2
#     Edge 81, Type (0, 1), BuildingBlock: XUDNAN_clean_linker_2, # of connection points: 2
#     Edge 82, Type (0, 1), BuildingBlock: XUDNAN_clean_linker_2, # of connection points: 2
#     Edge 83, Type (0, 1), BuildingBlock: XUDNAN_clean_linker_2, # of connection points: 2
#     Edge 84, Type (0, 1), BuildingBlock: XUDNAN_clean_linker_2, # of connection points: 2
#     Edge 85, Type (0, 1), BuildingBlock: XUDNAN_clean_linker_2, # of connection points: 2
#     Edge 86, Type (0, 1), BuildingBlock: XUDNAN_clean_linker_2, # of connection points: 2
#     Edge 87, Type (0, 1), BuildingBlock: XUDNAN_clean_linker_2, # of connection points: 2
#     Edge 88, Type (0, 1), BuildingBlock: XUDNAN_clean_linker_2, # of connection points: 2
#     Edge 89, Type (0, 1), BuildingBlock: XUDNAN_clean_linker_2, # of connection points: 2
#     Edge 90, Type (0, 1), BuildingBlock: XUDNAN_clean_linker_2, # of connection points: 2
#     Edge 91, Type (0, 1), BuildingBlock: XUDNAN_clean_linker_2, # of connection points: 2
#     Edge 92, Type (0, 1), BuildingBlock: XUDNAN_clean_linker_2, # of connection points: 2
#     Edge 93, Type (0, 1), BuildingBlock: XUDNAN_clean_linker_2, # of connection points: 2
#     Edge 94, Type (0, 1), BuildingBlock: XUDNAN_clean_linker_2, # of connection points: 2
#     Edge 95, Type (0, 1), BuildingBlock: XUDNAN_clean_linker_2, # of connection points: 2
#     Edge 96, Type (0, 1), BuildingBlock: XUDNAN_clean_linker_2, # of connection points: 2
#     Edge 97, Type (0, 1), BuildingBlock: XUDNAN_clean_linker_2, # of connection points: 2
#     Edge 98, Type (0, 1), BuildingBlock: XUDNAN_clean_linker_2, # of connection points: 2
#     Edge 99, Type (0, 1), BuildingBlock: XUDNAN_clean_linker_2, # of connection points: 2
#     Edge 100, Type (0, 1), BuildingBlock: XUDNAN_clean_linker_2, # of connection points: 2
#     Edge 101, Type (0, 1), BuildingBlock: XUDNAN_clean_linker_2, # of connection points: 2
#     Edge 102, Type (0, 1), BuildingBlock: XUDNAN_clean_linker_2, # of connection points: 2
#     Edge 103, Type (0, 1), BuildingBlock: XUDNAN_clean_linker_2, # of connection points: 2
#     Edge 104, Type (0, 1), BuildingBlock: XUDNAN_clean_linker_2, # of connection points: 2
#     Edge 105, Type (0, 1), BuildingBlock: XUDNAN_clean_linker_2, # of connection points: 2
#     Edge 106, Type (0, 1), BuildingBlock: XUDNAN_clean_linker_2, # of connection points: 2
#     Edge 107, Type (0, 1), BuildingBlock: XUDNAN_clean_linker_2, # of connection points: 2
#     Edge 108, Type (0, 1), BuildingBlock: XUDNAN_clean_linker_2, # of connection points: 2
#     Edge 109, Type (0, 1), BuildingBlock: XUDNAN_clean_linker_2, # of connection points: 2
#     Edge 110, Type (0, 1), BuildingBlock: XUDNAN_clean_linker_2, # of connection points: 2
#     Edge 111, Type (0, 1), BuildingBlock: XUDNAN_clean_linker_2, # of connection points: 2
#     Edge 112, Type (0, 1), BuildingBlock: XUDNAN_clean_linker_2, # of connection points: 2
#     Edge 113, Type (0, 1), BuildingBlock: XUDNAN_clean_linker_2, # of connection points: 2
#     Edge 114, Type (0, 1), BuildingBlock: XUDNAN_clean_linker_2, # of connection points: 2
#     Edge 115, Type (0, 1), BuildingBlock: XUDNAN_clean_linker_2, # of connection points: 2
#     Edge 116, Type (0, 1), BuildingBlock: XUDNAN_clean_linker_2, # of connection points: 2
#     Edge 117, Type (0, 1), BuildingBlock: XUDNAN_clean_linker_2, # of connection points: 2
#     Edge 118, Type (0, 1), BuildingBlock: XUDNAN_clean_linker_2, # of connection points: 2
#     Edge 119, Type (0, 1), BuildingBlock: XUDNAN_clean_linker_2, # of connection points: 2
#     Edge 120, Type (0, 1), BuildingBlock: XUDNAN_clean_linker_2, # of connection points: 2
#     Edge 121, Type (0, 1), BuildingBlock: XUDNAN_clean_linker_2, # of connection points: 2
#     Edge 122, Type (0, 1), BuildingBlock: XUDNAN_clean_linker_2, # of connection points: 2
#     Edge 123, Type (0, 1), BuildingBlock: XUDNAN_clean_linker_2, # of connection points: 2
#     Edge 124, Type (0, 1), BuildingBlock: XUDNAN_clean_linker_2, # of connection points: 2
#     Edge 125, Type (0, 1), BuildingBlock: XUDNAN_clean_linker_2, # of connection points: 2
#     Edge 126, Type (0, 1), BuildingBlock: XUDNAN_clean_linker_2, # of connection points: 2
#     Edge 127, Type (0, 1), BuildingBlock: XUDNAN_clean_linker_2, # of connection points: 2
#     Edge 128, Type (0, 1), BuildingBlock: XUDNAN_clean_linker_2, # of connection points: 2
#     Edge 129, Type (0, 1), BuildingBlock: XUDNAN_clean_linker_2, # of connection points: 2
#     Edge 130, Type (0, 1), BuildingBlock: XUDNAN_clean_linker_2, # of connection points: 2
#     Edge 131, Type (0, 1), BuildingBlock: XUDNAN_clean_linker_2, # of connection points: 2
#     Edge 132, Type (0, 1), BuildingBlock: XUDNAN_clean_linker_2, # of connection points: 2
#     Edge 133, Type (0, 1), BuildingBlock: XUDNAN_clean_linker_2, # of connection points: 2
#     Edge 134, Type (0, 1), BuildingBlock: XUDNAN_clean_linker_2, # of connection points: 2
#     Edge 135, Type (0, 1), BuildingBlock: XUDNAN_clean_linker_2, # of connection points: 2
# Relax obj value: 0.066
# Max RMSD: 0.180
# Mean RMSD: 0.108
data_MOF--net-gar--node1-KUFVIS_clean_sbu_0--node2-KUMBUR_clean_sbu_1--edge1-XUDNAN_clean_linker_2
_symmetry_space_group_name_H-M    P1
_symmetry_Int_Tables_number       1
_symmetry_cell_setting            triclinic
loop_
_symmetry_equiv_pos_as_xyz
'x, y, z'
_cell_length_a     58.808294
_cell_length_b     59.18299
_cell_length_c     56.679691
_cell_angle_alpha  95.982585
_cell_angle_beta   96.084797
_cell_angle_gamma 101.20944
loop_
_atom_site_label
_atom_site_type_symbol
_atom_site_fract_x
_atom_site_fract_y
_atom_site_fract_z
_atom_type_partial_charge
Mn0 Mn 0.05549 0.32143 0.37851 0.0
Mn1 Mn 0.05904 0.3576 0.33759 0.0
C2 C 0.01926 0.3281 0.35894 0.0
C3 C 0.0536 0.28436 0.39006 0.0
C4 C 0.06751 0.37459 0.39172 0.0
O5 O 0.09004 0.32304 0.36971 0.0
O6 O 0.08903 0.34475 0.33983 0.0
C7 C 0.05829 0.32473 0.29424 0.0
N8 N 0.04893 0.3411 0.30627 0.0
C9 C 0.02006 0.34004 0.27255 0.0
C10 C 0.02948 0.32329 0.25974 0.0
C11 C 0.0486 0.31551 0.27068 0.0
C12 C 0.0302 0.34831 0.29611 0.0
H13 H 0.07307 0.31878 0.30251 0.0
C14 C 0.09948 0.3319 0.35234 0.0
O15 O 0.06168 0.30298 0.40506 0.0
O16 O 0.04753 0.28716 0.36805 0.0
N17 N 0.03242 0.37143 0.33244 0.0
C18 C 0.02605 0.38845 0.34685 0.0
C19 C 1.00809 0.39905 0.33812 0.0
C20 C 0.99694 0.39218 0.31463 0.0
C21 C 1.0035 0.37441 0.30023 0.0
C22 C 0.02172 0.36465 0.30982 0.0
H23 H 0.03477 0.39424 0.36477 0.0
O24 O 0.02105 0.32082 0.3797 0.0
O25 O 0.03938 0.33125 0.35009 0.0
O26 O 0.06296 0.3544 0.39826 0.0
O27 O 0.06884 0.37716 0.36966 0.0
C28 C 0.99306 0.3664 0.27654 0.0
C29 C 1.0012 0.34908 0.26278 0.0
H30 H 0.02223 0.31633 0.24146 0.0
H31 H 0.05597 0.30257 0.26092 0.0
H32 H 1.00303 0.41265 0.34939 0.0
H33 H 0.98336 0.40071 0.30783 0.0
H34 H 0.97883 0.37352 0.26869 0.0
H35 H 0.99305 0.34309 0.24457 0.0
Mn36 Mn 0.03563 0.75743 0.7034 0.0
Mn37 Mn 0.05199 0.8016 0.74841 0.0
C38 C 0.07643 0.77005 0.72102 0.0
C39 C 0.02608 0.71914 0.68082 0.0
C40 C 0.04067 0.80929 0.69725 0.0
O41 O 1.00251 0.75856 0.7164 0.0
O42 O 1.01709 0.7891 0.7445 0.0
C43 C 0.04094 0.77674 0.78974 0.0
N44 N 0.05677 0.79 0.77831 0.0
C45 C 0.08672 0.79452 0.81188 0.0
C46 C 0.07074 0.78087 0.824 0.0
C47 C 0.04777 0.7719 0.81286 0.0
C48 C 0.07894 0.7987 0.78887 0.0
H49 H 0.02318 0.77012 0.78136 0.0
C50 C 0.99939 0.77404 0.73318 0.0
O51 O 0.02099 0.73744 0.67303 0.0
O52 O 0.03435 0.72209 0.70343 0.0
N53 N 0.08465 0.81529 0.75402 0.0
C54 C 0.0979 0.82816 0.73987 0.0
C55 C 0.1213 0.83842 0.74835 0.0
C56 C 0.13083 0.83538 0.77129 0.0
C57 C 0.11689 0.82194 0.78545 0.0
C58 C 0.09367 0.81215 0.77603 0.0
H59 H 0.09075 0.83043 0.72218 0.0
O60 O 0.0704 0.7605 0.69905 0.0
O61 O 0.05847 0.77262 0.73207 0.0
O62 O 0.03455 0.78785 0.68945 0.0
O63 O 0.04838 0.81657 0.71906 0.0
C64 C 0.1251 0.81798 0.80858 0.0
C65 C 0.11002 0.8043 0.82181 0.0
H66 H 0.07588 0.77722 0.8419 0.0
H67 H 0.03531 0.76146 0.82216 0.0
H68 H 0.13195 0.84867 0.73725 0.0
H69 H 0.14886 0.84343 0.77786 0.0
H70 H 0.14296 0.8254 0.81639 0.0
H71 H 0.11651 0.80145 0.83962 0.0
Mn72 Mn 0.55392 0.82302 0.88073 0.0
Mn73 Mn 0.55758 0.85827 0.8385 0.0
C74 C 0.51751 0.82773 0.85992 0.0
C75 C 0.55317 0.78777 0.8966 0.0
C76 C 0.56554 0.87648 0.89203 0.0
O77 O 0.58831 0.82444 0.8717 0.0
O78 O 0.58825 0.8463 0.84175 0.0
C79 C 0.55908 0.82625 0.79521 0.0
N80 N 0.54896 0.8422 0.80687 0.0
C81 C 0.52169 0.84172 0.77195 0.0
C82 C 0.53199 0.82546 0.75948 0.0
C83 C 0.55073 0.81766 0.77119 0.0
C84 C 0.53104 0.84998 0.79573 0.0
H85 H 0.57344 0.82015 0.80415 0.0
C86 C 0.59844 0.83358 0.85477 0.0
O87 O 0.56079 0.80769 0.90938 0.0
O88 O 0.54683 0.78797 0.87394 0.0
N89 N 0.53022 0.87082 0.83266 0.0
C90 C 0.52027 0.88393 0.84816 0.0
C91 C 0.50015 0.89166 0.83986 0.0
C92 C 0.49048 0.88587 0.81574 0.0
C93 C 0.5009 0.87219 0.80019 0.0
C94 C 0.52098 0.86501 0.80947 0.0
H95 H 0.52744 0.88827 0.86676 0.0
O96 O 0.5193 0.82179 0.88131 0.0
O97 O 0.53785 0.83133 0.85115 0.0
O98 O 0.56081 0.85653 0.89894 0.0
O99 O 0.56667 0.87861 0.86997 0.0
C100 C 0.49161 0.86461 0.7761 0.0
C101 C 0.50204 0.84944 0.76197 0.0
H102 H 0.52542 0.81858 0.74103 0.0
H103 H 0.55866 0.80501 0.76173 0.0
H104 H 0.49205 0.90196 0.85206 0.0
H105 H 0.47481 0.89168 0.80946 0.0
H106 H 0.47612 0.8699 0.76841 0.0
H107 H 0.49444 0.84336 0.74361 0.0
Mn108 Mn 0.5381 0.25758 0.20322 0.0
Mn109 Mn 0.49312 0.24889 0.15817 0.0
C110 C 0.52554 0.22059 0.1788 0.0
C111 C 0.58029 0.26675 0.21745 0.0
C112 C 0.48546 0.25874 0.2106 0.0
O113 O 0.53788 0.29055 0.19397 0.0
O114 O 0.50985 0.2818 0.16153 0.0
C115 C 0.51679 0.25614 0.11522 0.0
N116 N 0.50297 0.24186 0.1277 0.0
C117 C 0.49665 0.21029 0.09573 0.0
C118 C 0.51091 0.22463 0.08258 0.0
C119 C 0.52099 0.24766 0.09236 0.0
C120 C 0.49282 0.21981 0.11827 0.0
H121 H 0.52455 0.27386 0.12266 0.0
C122 C 0.526 0.29607 0.17578 0.0
O123 O 0.5645 0.26873 0.23145 0.0
O124 O 0.57178 0.25995 0.19528 0.0
N125 N 0.47682 0.21717 0.15393 0.0
C126 C 0.46482 0.20524 0.1696 0.0
C127 C 0.45456 0.18163 0.16309 0.0
C128 C 0.4568 0.17054 0.14056 0.0
C129 C 0.46939 0.18315 0.1248 0.0
C130 C 0.47922 0.20664 0.13229 0.0
H131 H 0.46326 0.21362 0.18703 0.0
O132 O 0.53544 0.22214 0.20068 0.0
O133 O 0.52136 0.24027 0.17329 0.0
O134 O 0.50641 0.25751 0.21944 0.0
O135 O 0.47941 0.25608 0.18806 0.0
C136 C 0.47296 0.17322 0.10216 0.0
C137 C 0.48648 0.18682 0.08758 0.0
H138 H 0.51437 0.21809 0.06504 0.0
H139 H 0.532 0.25883 0.08231 0.0
H140 H 0.44505 0.17198 0.17544 0.0
H141 H 0.449 0.15228 0.13565 0.0
H142 H 0.46555 0.1551 0.09586 0.0
H143 H 0.48923 0.17894 0.07027 0.0
Mn144 Mn 0.08593 0.8035 0.12876 0.0
Mn145 Mn 0.04347 0.79168 0.08099 0.0
C146 C 0.07437 0.76468 0.10794 0.0
C147 C 0.12519 0.81172 0.15017 0.0
C148 C 0.03287 0.79762 0.13199 0.0
O149 O 0.08554 0.837 0.11779 0.0
O150 O 0.05636 0.82651 0.08696 0.0
C151 C 0.06911 0.80515 0.0408 0.0
N152 N 0.055 0.78883 0.05087 0.0
C153 C 0.04615 0.76291 0.01391 0.0
C154 C 0.06063 0.77944 1.00313 0.0
C155 C 0.07222 0.8006 0.01666 0.0
C156 C 0.04362 0.76847 0.03794 0.0
H157 H 0.07758 0.82163 0.05102 0.0
C158 C 0.07161 0.8423 0.10075 0.0
O159 O 0.10727 0.81565 0.16003 0.0
O160 O 0.121 0.80527 0.12722 0.0
N161 N 0.02911 0.75953 0.07308 0.0
C162 C 1.01831 0.7445 0.08706 0.0
C163 C 1.00701 0.72196 0.07682 0.0
C164 C 1.00696 0.71514 0.05232 0.0
C165 C 0.01883 0.73073 0.03848 0.0
C166 C 0.02992 0.7529 0.04976 0.0
H167 H 0.01896 0.74948 0.106 0.0
O168 O 0.08305 0.76902 0.13033 0.0
O169 O 0.07179 0.78336 0.09803 0.0
O170 O 0.05398 0.80255 0.14212 0.0
O171 O 0.02774 0.79337 0.10949 0.0
C172 C 0.0207 0.72496 0.01413 0.0
C173 C 0.03425 0.74109 1.00181 0.0
H174 H 0.06304 0.77604 0.98451 0.0
H175 H 0.08332 0.81347 1.00841 0.0
H176 H 0.99846 0.70986 0.0878 0.0
H177 H 0.99825 0.69773 0.04446 0.0
H178 H 1.01209 0.70805 1.00481 0.0
H179 H 0.03571 0.73637 0.98314 0.0
Mn180 Mn 0.51212 0.7778 0.45798 0.0
Mn181 Mn 0.51375 0.81387 0.41426 0.0
C182 C 0.47673 0.78172 0.43338 0.0
C183 C 0.51627 0.73981 0.47259 0.0
C184 C 0.52276 0.8328 0.46703 0.0
O185 O 0.54673 0.78335 0.4502 0.0
O186 O 0.54162 0.80074 0.41701 0.0
C187 C 0.51116 0.78018 0.37105 0.0
N188 N 0.50297 0.79742 0.38306 0.0
C189 C 0.47771 0.80106 0.34803 0.0
C190 C 0.48603 0.78349 0.33517 0.0
C191 C 0.50265 0.77284 0.3468 0.0
C192 C 0.4864 0.8072 0.37227 0.0
H193 H 0.52405 0.77213 0.37994 0.0
C194 C 0.55364 0.79062 0.43095 0.0
O195 O 0.52 0.75963 0.48602 0.0
O196 O 0.50944 0.74158 0.45039 0.0
N197 N 0.48736 0.82806 0.40962 0.0
C198 C 0.48121 0.8448 0.42457 0.0
C199 C 0.46587 0.85813 0.41549 0.0
C200 C 0.45707 0.85421 0.39111 0.0
C201 C 0.46283 0.83627 0.37624 0.0
C202 C 0.47849 0.82378 0.38623 0.0
H203 H 0.48848 0.84858 0.44312 0.0
O204 O 0.47576 0.77317 0.45359 0.0
O205 O 0.49774 0.78731 0.42843 0.0
O206 O 0.51644 0.81304 0.47496 0.0
O207 O 0.52517 0.8338 0.44508 0.0
C208 C 0.45413 0.83069 0.35175 0.0
C209 C 0.46131 0.81287 0.33773 0.0
H210 H 0.47977 0.77804 0.31637 0.0
H211 H 0.5091 0.75922 0.33702 0.0
H212 H 0.46124 0.87173 0.42716 0.0
H213 H 0.4456 0.86487 0.38408 0.0
H214 H 0.44189 0.83998 0.34354 0.0
H215 H 0.45437 0.80862 0.31896 0.0
Mn216 Mn 0.58564 0.30516 0.6276 0.0
Mn217 Mn 0.5416 0.29203 0.58127 0.0
C218 C 0.57344 0.26584 0.60764 0.0
C219 C 0.62456 0.3134 0.65002 0.0
C220 C 0.53329 0.29933 0.63314 0.0
O221 O 0.58426 0.33865 0.61644 0.0
O222 O 0.55518 0.32671 0.58568 0.0
C223 C 0.56782 0.30271 0.54064 0.0
N224 N 0.55277 0.28758 0.55105 0.0
C225 C 0.54545 0.25942 0.51581 0.0
C226 C 0.5604 0.27501 0.50448 0.0
C227 C 0.57178 0.29669 0.51703 0.0
C228 C 0.54201 0.26651 0.53926 0.0
H229 H 0.57673 0.31912 0.55038 0.0
C230 C 0.57019 0.34314 0.59897 0.0
O231 O 0.60626 0.31775 0.65872 0.0
O232 O 0.6212 0.30712 0.62699 0.0
N233 N 0.52666 0.25983 0.57458 0.0
C234 C 0.51391 0.24627 0.58854 0.0
C235 C 0.5028 0.22338 0.57938 0.0
C236 C 0.50446 0.21479 0.55574 0.0
C237 C 0.51737 0.22916 0.54156 0.0
C238 C 0.52826 0.25176 0.55179 0.0
H239 H 0.51211 0.25288 0.60644 0.0
O240 O 0.58311 0.27063 0.62968 0.0
O241 O 0.57054 0.28428 0.59758 0.0
O242 O 0.55469 0.30363 0.64184 0.0
O243 O 0.52659 0.2951 0.61078 0.0
C244 C 0.52014 0.22184 0.51779 0.0
C245 C 0.53411 0.23698 0.50489 0.0
H246 H 0.56354 0.2704 0.48629 0.0
H247 H 0.58358 0.30872 0.50853 0.0
H248 H 0.49281 0.21247 0.59046 0.0
H249 H 0.49582 0.19713 0.54869 0.0
H250 H 0.5118 0.20451 0.50934 0.0
H251 H 0.53631 0.23107 0.4867 0.0
Mn252 Mn 1.01163 0.27656 0.95735 0.0
Mn253 Mn 1.01353 0.31355 0.91442 0.0
C254 C 0.97645 0.28045 0.93255 0.0
C255 C 1.01606 0.23855 0.97166 0.0
C256 C 0.02185 0.3315 0.96747 0.0
O257 O 0.0464 0.28295 0.95021 0.0
O258 O 0.04179 0.30114 0.91744 0.0
C259 C 1.01287 0.28122 0.87073 0.0
N260 N 1.00354 0.29746 0.88297 0.0
C261 C 0.9781 0.30062 0.84787 0.0
C262 C 0.98724 0.28373 0.8349 0.0
C263 C 1.00459 0.27387 0.84644 0.0
C264 C 0.98652 0.30669 0.87218 0.0
H265 H 0.02666 0.27413 0.87943 0.0
C266 C 0.05392 0.29155 0.9318 0.0
O267 O 0.0195 0.25824 0.98524 0.0
O268 O 1.00942 0.24045 0.94944 0.0
N269 N 0.98677 0.32716 0.90959 0.0
C270 C 0.98024 0.34365 0.92452 0.0
C271 C 0.96455 0.35661 0.9154 0.0
C272 C 0.95582 0.35259 0.891 0.0
C273 C 0.962 0.3349 0.87614 0.0
C274 C 0.97801 0.3228 0.88617 0.0
H275 H 0.98751 0.34754 0.94309 0.0
O276 O 0.97531 0.27154 0.95256 0.0
O277 O 0.99755 0.2864 0.92788 0.0
O278 O 1.01541 0.31147 0.97479 0.0
O279 O 0.0243 0.33319 0.94562 0.0
C280 C 0.95344 0.32927 0.85163 0.0
C281 C 0.96123 0.3119 0.83757 0.0
H282 H 0.98121 0.27833 0.81606 0.0
H283 H 1.01184 0.26096 0.83651 0.0
H284 H 0.95961 0.37003 0.92705 0.0
H285 H 0.94414 0.36304 0.88393 0.0
H286 H 0.94089 0.33823 0.84341 0.0
H287 H 0.95445 0.30765 0.81877 0.0
Mn288 Mn 0.40708 0.0265 0.31885 0.0
Mn289 Mn 0.36116 0.02415 0.34918 0.0
C290 C 0.3848 0.99168 0.32208 0.0
C291 C 0.42656 0.03107 0.28627 0.0
C292 C 0.41091 0.03799 0.37108 0.0
O293 O 0.40068 0.05879 0.32173 0.0
O294 O 0.3644 0.05275 0.33329 0.0
C295 C 0.32016 0.01765 0.31228 0.0
N296 N 0.33218 1.00955 0.33027 0.0
C297 C 0.30194 0.97514 0.32766 0.0
C298 C 0.28927 0.9831 0.30905 0.0
C299 C 0.29841 1.00445 0.30134 0.0
C300 C 0.32345 0.98909 0.33796 0.0
H301 H 0.32712 0.03411 0.30643 0.0
C302 C 0.3817 0.06527 0.32537 0.0
O303 O 0.43705 0.03666 0.3079 0.0
O304 O 0.40389 0.02405 0.28313 0.0
N305 N 0.35755 0.9966 0.36479 0.0
C306 C 0.3721 0.99109 0.3827 0.0
C307 C 0.36562 0.9702 0.39228 0.0
C308 C 0.34414 0.95524 0.38356 0.0
C309 C 0.32948 0.96116 0.36509 0.0
C310 C 0.33687 0.98226 0.35624 0.0
H311 H 0.38847 1.00252 0.38987 0.0
O312 O 0.40603 0.9928 0.31708 0.0
O313 O 0.37733 1.01084 0.32437 0.0
O314 O 0.41911 0.03005 0.35319 0.0
O315 O 0.38963 0.03922 0.37119 0.0
C316 C 0.30787 0.94689 0.35504 0.0
C317 C 0.29411 0.95387 0.33633 0.0
H318 H 0.27249 0.97298 0.30056 0.0
H319 H 0.28866 1.01073 0.28704 0.0
H320 H 0.37712 0.96572 0.40646 0.0
H321 H 0.33913 0.93919 0.39109 0.0
H322 H 0.3017 0.93049 0.3615 0.0
H323 H 0.27754 0.94272 0.32871 0.0
Mn324 Mn 0.27017 0.19761 0.52672 0.0
Mn325 Mn 0.26257 0.1487 0.48794 0.0
C326 C 0.23263 0.17413 0.51538 0.0
C327 C 0.27784 0.21603 0.56719 0.0
C328 C 0.27529 0.19741 0.47303 0.0
O329 O 0.30294 0.19016 0.52797 0.0
O330 O 0.29413 0.15449 0.50636 0.0
C331 C 0.26372 0.11163 0.51888 0.0
N332 N 0.25204 0.12114 0.50177 0.0
C333 C 0.22024 0.08783 0.49486 0.0
C334 C 0.23193 0.07766 0.51244 0.0
C335 C 0.25369 0.08968 0.5246 0.0
C336 C 0.23101 0.1098 0.49009 0.0
H337 H 0.28069 0.12062 0.52786 0.0
C338 C 0.30843 0.17115 0.51983 0.0
O339 O 0.28181 0.22739 0.54912 0.0
O340 O 0.26978 0.1939 0.56186 0.0
N341 N 0.23247 0.14172 0.46919 0.0
C342 C 0.22363 0.15384 0.45252 0.0
C343 C 0.20163 0.14457 0.43929 0.0
C344 C 0.18911 0.12278 0.44305 0.0
C345 C 0.19872 0.1105 0.46006 0.0
C346 C 0.22061 0.12074 0.4729 0.0
H347 H 0.23321 0.17049 0.44935 0.0
O348 O 0.23519 0.19593 0.52357 0.0
O349 O 0.25192 0.1671 0.51348 0.0
O350 O 0.27301 0.20921 0.4927 0.0
O351 O 0.27295 0.17543 0.47117 0.0
C352 C 0.18749 0.08844 0.46468 0.0
C353 C 0.19838 0.07699 0.48185 0.0
H354 H 0.2243 0.06068 0.51681 0.0
H355 H 0.26282 0.08192 0.53815 0.0
H356 H 0.19439 0.15415 0.42617 0.0
H357 H 0.17217 0.11565 0.43277 0.0
H358 H 0.17056 0.08006 0.45503 0.0
H359 H 0.18965 0.05994 0.48508 0.0
Mn360 Mn 0.14464 0.06747 0.79584 0.0
Mn361 Mn 0.18898 0.0783 0.84176 0.0
C362 C 0.16542 0.10562 0.80909 0.0
C363 C 0.12959 0.05989 0.75411 0.0
C364 C 0.13794 0.06458 0.84945 0.0
O365 O 0.15401 0.03561 0.79678 0.0
O366 O 0.18483 0.04617 0.82602 0.0
C367 C 0.22881 0.07555 0.81451 0.0
N368 N 0.21813 0.08785 0.82998 0.0
C369 C 0.25071 0.12039 0.83579 0.0
C370 C 0.26207 0.10808 0.81992 0.0
C371 C 0.25102 0.0856 0.80916 0.0
C372 C 0.22848 0.10959 0.84021 0.0
H373 H 0.22046 0.05818 0.8064 0.0
C374 C 0.17138 0.03124 0.80999 0.0
O375 O 0.11662 0.05486 0.77074 0.0
O376 O 0.15151 0.06844 0.76154 0.0
N377 N 0.19476 0.1091 0.85837 0.0
C378 C 0.18164 0.11844 0.87364 0.0
C379 C 0.19018 0.14088 0.88587 0.0
C380 C 0.21224 0.15336 0.88251 0.0
C381 C 0.22561 0.14321 0.86706 0.0
C382 C 0.21618 0.12078 0.85537 0.0
H383 H 0.16478 0.10886 0.8765 0.0
O384 O 0.14431 0.10174 0.79797 0.0
O385 O 0.17334 0.08718 0.81282 0.0
O386 O 0.12943 0.06448 0.82759 0.0
O387 O 0.15988 0.06896 0.85634 0.0
C388 C 0.24798 0.15439 0.86294 0.0
C389 C 0.26058 0.14294 0.84743 0.0
H390 H 0.27926 0.11573 0.81584 0.0
H391 H 0.25968 0.07599 0.79689 0.0
H392 H 0.17981 0.14852 0.89788 0.0
H393 H 0.21876 0.17068 0.89195 0.0
H394 H 0.25571 0.17177 0.87167 0.0
H395 H 0.27781 0.1517 0.84448 0.0
Mn396 Mn 0.31864 0.939 1.00709 0.0
Mn397 Mn 0.3267 0.98088 0.97176 0.0
C398 C 0.35534 0.95824 1.00458 0.0
C399 C 0.31055 0.92638 0.04258 0.0
C400 C 0.31138 0.92999 0.95439 0.0
O401 O 0.28695 0.94644 0.99956 0.0
O402 O 0.29676 0.98023 0.98412 0.0
C403 C 0.33173 0.02325 1.00611 0.0
N404 N 0.34058 1.01047 0.98936 0.0
C405 C 0.3739 0.04137 0.98966 0.0
C406 C 0.36514 0.05495 1.00687 0.0
C407 C 0.34407 0.04576 0.01529 0.0
C408 C 0.36116 0.01886 0.98166 0.0
H409 H 0.31529 0.01634 0.01221 0.0
C410 C 0.2822 0.96483 0.99215 0.0
O411 O 0.30591 0.91235 0.02273 0.0
O412 O 0.31888 0.94826 0.04176 0.0
N413 N 0.35558 0.98284 0.95867 0.0
C414 C 0.3615 0.96751 0.94193 0.0
C415 C 0.38171 0.97422 0.9311 0.0
C416 C 0.39542 0.99671 0.93732 0.0
C417 C 0.38917 1.01206 0.95485 0.0
C418 C 0.3689 1.00436 0.9651 0.0
H419 H 0.35064 0.95049 0.93641 0.0
O420 O 0.3523 0.93821 0.01255 0.0
O421 O 0.33692 0.96631 0.99904 0.0
O422 O 0.31638 0.92283 0.97411 0.0
O423 O 0.3126 0.95126 0.95175 0.0
C424 C 0.40202 0.03486 0.96222 0.0
C425 C 0.39454 0.04942 0.97981 0.0
H426 H 0.37439 0.07248 0.01367 0.0
H427 H 0.33719 0.05613 0.02856 0.0
H428 H 0.38647 0.96223 0.91767 0.0
H429 H 0.41082 1.00195 0.92867 0.0
H430 H 0.41771 0.04135 0.95452 0.0
H431 H 0.40464 0.06687 0.9854 0.0
Mn432 Mn 0.32205 0.38725 0.05143 0.0
Mn433 Mn 0.32483 0.43372 0.02179 0.0
C434 C 0.35922 0.41108 0.04782 0.0
C435 C 0.3164 0.37307 0.0897 0.0
C436 C 0.31063 0.38341 0.99745 0.0
O437 O 0.28828 0.39339 0.04583 0.0
O438 O 0.29923 0.43107 0.04161 0.0
C439 C 0.33468 0.47381 0.05996 0.0
N440 N 0.34044 0.46266 0.0399 0.0
C441 C 0.36935 0.49617 0.03518 0.0
C442 C 0.3639 0.50793 0.05591 0.0
C443 C 0.3466 0.49664 0.06844 0.0
C444 C 0.35737 0.47321 0.02798 0.0
H445 H 0.32092 0.46543 0.06925 0.0
C446 C 0.2836 0.41343 0.04355 0.0
O447 O 0.31158 0.35941 0.06956 0.0
O448 O 0.32412 0.3947 0.08762 0.0
N449 N 0.34987 0.43837 1.00252 0.0
C450 C 0.35336 0.42468 0.98289 0.0
C451 C 0.3691 0.43383 0.96769 0.0
C452 C 0.38104 0.45705 0.97264 0.0
C453 C 0.37797 0.47059 0.9934 0.0
C454 C 0.36203 0.46051 1.00793 0.0
H455 H 0.34396 0.40707 0.97838 0.0
O456 O 0.35801 0.39078 0.05498 0.0
O457 O 0.33927 0.41647 0.04383 0.0
O458 O 0.31819 0.3734 0.01493 0.0
O459 O 0.30876 0.40475 1.0006 0.0
C460 C 0.38992 0.49381 1.00007 0.0
C461 C 0.38585 0.50649 0.02112 0.0
H462 H 0.37273 0.52569 0.06224 0.0
H463 H 0.34216 0.50568 0.08435 0.0
H464 H 0.37171 0.4231 0.95194 0.0
H465 H 0.39291 0.46415 0.96063 0.0
H466 H 0.40236 0.50205 0.98918 0.0
H467 H 0.39526 0.52428 0.02613 0.0
Mn468 Mn 0.78009 0.15458 0.07153 0.0
Mn469 Mn 0.76141 0.10947 0.0278 0.0
C470 C 0.74195 0.14534 0.05478 0.0
C471 C 0.78811 0.16918 0.11085 0.0
C472 C 0.78647 0.15673 0.01943 0.0
O473 O 0.80697 0.13819 0.07404 0.0
O474 O 0.79177 0.10903 0.04481 0.0
C475 C 0.7559 0.07246 0.05923 0.0
N476 N 0.74658 0.08351 0.04187 0.0
C477 C 0.71054 0.05513 0.03595 0.0
C478 C 0.71974 0.04342 0.05375 0.0
C479 C 0.74247 0.05222 0.06556 0.0
C480 C 0.72453 0.07556 0.03085 0.0
H481 H 0.77352 0.0789 0.06804 0.0
C482 C 0.80789 0.11961 0.06125 0.0
O483 O 0.79801 0.18026 0.09477 0.0
O484 O 0.77412 0.14918 0.10405 0.0
N485 N 0.73168 0.10712 0.00935 0.0
C486 C 0.72658 0.11864 0.9905 0.0
C487 C 0.70473 0.1116 0.97632 0.0
C488 C 0.68867 0.09228 0.98112 0.0
C489 C 0.69476 0.07995 0.99981 0.0
C490 C 0.7167 0.08792 0.01348 0.0
H491 H 0.73908 0.13313 0.98631 0.0
O492 O 0.7505 0.16578 0.0664 0.0
O493 O 0.75552 0.13053 0.05425 0.0
O494 O 0.78943 0.16611 0.04103 0.0
O495 O 0.77609 0.13575 0.01214 0.0
C496 C 0.68025 0.0596 1.00484 0.0
C497 C 0.68813 0.04719 0.02289 0.0
H498 H 0.70955 0.0276 0.05843 0.0
H499 H 0.74972 0.04326 0.07927 0.0
H500 H 0.70036 0.12089 0.96158 0.0
H501 H 0.67188 0.08681 0.97008 0.0
H502 H 0.66313 0.05312 0.99467 0.0
H503 H 0.67691 0.03145 0.02645 0.0
Mn504 Mn 0.19012 0.56652 0.25639 0.0
Mn505 Mn 0.23928 0.57565 0.2951 0.0
C506 C 0.20773 0.60331 0.27091 0.0
C507 C 0.17445 0.55758 0.21803 0.0
C508 C 0.19043 0.56151 0.30823 0.0
O509 O 0.19817 0.53553 0.25552 0.0
O510 O 0.23427 0.54464 0.276 0.0
C511 C 0.27404 0.57736 0.26092 0.0
N512 N 0.26521 0.58794 0.27931 0.0
C513 C 0.29476 0.62277 0.28143 0.0
C514 C 0.30413 0.61225 0.26247 0.0
C515 C 0.29373 0.58945 0.25219 0.0
C516 C 0.27499 0.60995 0.28922 0.0
H517 H 0.26616 0.55981 0.25304 0.0
C518 C 0.21729 0.53049 0.26292 0.0
O519 O 0.16165 0.55265 0.23489 0.0
O520 O 0.19616 0.56801 0.22337 0.0
N521 N 0.2467 0.60504 0.31499 0.0
C522 C 0.23897 0.61068 0.33622 0.0
C523 C 0.24804 0.63258 0.34947 0.0
C524 C 0.26615 0.64792 0.34157 0.0
C525 C 0.27544 0.64085 0.32091 0.0
C526 C 0.26531 0.61894 0.30823 0.0
H527 H 0.22657 0.59828 0.34343 0.0
O528 O 0.18665 0.59905 0.25975 0.0
O529 O 0.21856 0.58616 0.2713 0.0
O530 O 0.17909 0.5629 0.28827 0.0
O531 O 0.21269 0.56416 0.31228 0.0
C532 C 0.29489 0.65433 0.31292 0.0
C533 C 0.30458 0.64527 0.29322 0.0
H534 H 0.31946 0.62144 0.25584 0.0
H535 H 0.30097 0.58117 0.23766 0.0
H536 H 0.24146 0.63739 0.36599 0.0
H537 H 0.27331 0.66472 0.35192 0.0
H538 H 0.30287 0.67146 0.32214 0.0
H539 H 0.31984 0.65561 0.28753 0.0
Mn540 Mn 0.82338 0.89077 0.55303 0.0
Mn541 Mn 0.83021 0.93355 0.51648 0.0
C542 C 0.86113 0.91085 0.5481 0.0
C543 C 0.81612 0.87611 0.5905 0.0
C544 C 0.81638 0.88231 0.49714 0.0
O545 O 0.79099 0.89954 0.54924 0.0
O546 O 0.79978 0.92972 0.5283 0.0
C547 C 0.83056 0.97409 0.55183 0.0
N548 N 0.84103 0.9633 0.53494 0.0
C549 C 0.86999 0.99801 0.53461 0.0
C550 C 0.85964 1.0095 0.55213 0.0
C551 C 0.83996 0.99742 0.56093 0.0
C552 C 0.86044 0.97451 0.52695 0.0
H553 H 0.81498 0.96505 0.55804 0.0
C554 C 0.7858 0.91672 0.53939 0.0
O555 O 0.81106 0.86353 0.56982 0.0
O556 O 0.82584 0.89772 0.58983 0.0
N557 N 0.85882 0.93971 0.50288 0.0
C558 C 0.86498 0.92707 0.48394 0.0
C559 C 0.88403 0.93679 0.47268 0.0
C560 C 0.89599 0.95974 0.48033 0.0
C561 C 0.88859 0.97285 0.49896 0.0
C562 C 0.86974 0.9621 0.50981 0.0
H563 H 0.85544 0.90969 0.47737 0.0
O564 O 0.858 0.89062 0.55567 0.0
O565 O 0.84234 0.91885 0.54364 0.0
O566 O 0.81785 0.87449 0.51744 0.0
O567 O 0.81935 0.9039 0.49522 0.0
C568 C 0.8985 0.99649 0.50641 0.0
C569 C 0.88906 1.00911 0.52404 0.0
H570 H 0.86652 0.02765 0.55878 0.0
H571 H 0.83178 1.0062 0.57433 0.0
H572 H 0.88927 0.9267 0.45795 0.0
H573 H 0.9105 0.96728 0.47141 0.0
H574 H 0.91311 1.00524 0.49837 0.0
H575 H 0.89668 0.02735 0.52944 0.0
Mn576 Mn 0.95123 0.01391 0.26892 0.0
Mn577 Mn 0.91222 0.01556 0.30912 0.0
C578 C 0.927 0.97788 0.27453 0.0
C579 C 0.96309 0.01944 0.23009 0.0
C580 C 0.96454 0.02221 0.32343 0.0
O581 O 0.94854 0.04842 0.27437 0.0
O582 O 0.9168 0.04337 0.29343 0.0
C583 C 0.86897 0.01625 0.2777 0.0
N584 N 0.88023 1.00736 0.29562 0.0
C585 C 0.84394 0.99055 0.30886 0.0
C586 C 0.83184 0.99924 0.29034 0.0
C587 C 0.84441 1.01191 0.27451 0.0
C588 C 0.86832 0.99449 0.31039 0.0
H589 H 0.87871 0.02701 0.26636 0.0
C590 C 0.93162 0.05574 0.28287 0.0
O591 O 0.97786 0.02229 0.24931 0.0
O592 O 0.94125 1.01321 0.23313 0.0
N593 N 0.90488 0.99066 0.32759 0.0
C594 C 0.91921 0.98284 0.34392 0.0
C595 C 0.90949 0.96956 0.36091 0.0
C596 C 0.88522 0.96521 0.36156 0.0
C597 C 0.8708 0.97356 0.34471 0.0
C598 C 0.88142 0.98607 0.32773 0.0
H599 H 0.93787 0.98701 0.34421 0.0
O600 O 0.94632 0.9792 0.26506 0.0
O601 O 0.92189 0.99812 0.28066 0.0
O602 O 0.96972 0.01588 0.30275 0.0
O603 O 0.94418 0.02505 0.32678 0.0
C604 C 0.84631 0.97015 0.34416 0.0
C605 C 0.83287 0.97853 0.32615 0.0
H606 H 0.81295 0.99648 0.28825 0.0
H607 H 0.83522 0.0189 0.26035 0.0
H608 H 0.92074 0.96319 0.37387 0.0
H609 H 0.87784 0.95531 0.37497 0.0
H610 H 0.83761 0.96073 0.35718 0.0
H611 H 0.81405 0.97547 0.32565 0.0
Mn612 Mn 0.28186 0.65399 0.5681 0.0
Mn613 Mn 0.27541 0.6071 0.52695 0.0
C614 C 0.24554 0.63336 0.55302 0.0
C615 C 0.28699 0.66927 0.60714 0.0
C616 C 0.2867 0.65681 0.51629 0.0
O617 O 0.31401 0.64747 0.57008 0.0
O618 O 0.30676 0.61323 0.54599 0.0
C619 C 0.27594 0.57079 0.55916 0.0
N620 N 0.26481 0.57952 0.541 0.0
C621 C 0.23103 0.54834 0.53771 0.0
C622 C 0.24221 0.53899 0.55628 0.0
C623 C 0.26475 0.55027 0.56705 0.0
C624 C 0.24306 0.56881 0.53057 0.0
H625 H 0.29314 0.57952 0.56765 0.0
C626 C 0.31999 0.62935 0.56106 0.0
O627 O 0.293 0.68233 0.59082 0.0
O628 O 0.27906 0.64722 0.6009 0.0
N629 N 0.24542 0.59932 0.50764 0.0
C630 C 0.2378 0.60928 0.48852 0.0
C631 C 0.2155 0.60027 0.47587 0.0
C632 C 0.20164 0.58032 0.48224 0.0
C633 C 0.2104 0.56942 0.50096 0.0
C634 C 0.23278 0.57932 0.51295 0.0
H635 H 0.24901 0.62335 0.48227 0.0
O636 O 0.24802 0.65447 0.56331 0.0
O637 O 0.2643 0.62513 0.55225 0.0
O638 O 0.28573 0.66666 0.53702 0.0
O639 O 0.28501 0.63496 0.51097 0.0
C640 C 0.19796 0.54889 0.50791 0.0
C641 C 0.20825 0.53838 0.52632 0.0
H642 H 0.23361 0.52323 0.56252 0.0
H643 H 0.27344 0.54321 0.58148 0.0
H644 H 0.20926 0.60832 0.46086 0.0
H645 H 0.18462 0.57313 0.47214 0.0
H646 H 0.18052 0.54101 0.49917 0.0
H647 H 0.19847 0.52266 0.5316 0.0
Mn648 Mn 0.44995 0.51499 0.77014 0.0
Mn649 Mn 0.40755 0.51553 0.80536 0.0
C650 C 0.42613 0.47821 0.77519 0.0
C651 C 0.46264 0.52103 0.73152 0.0
C652 C 0.45945 0.52755 0.82376 0.0
O653 O 0.44511 0.54908 0.77547 0.0
O654 O 0.4087 0.54038 0.78514 0.0
C655 C 0.3633 0.5074 0.77282 0.0
N656 N 0.37619 0.50205 0.79202 0.0
C657 C 0.34165 0.48456 0.80795 0.0
C658 C 0.32792 0.48943 0.78808 0.0
C659 C 0.33881 0.50064 0.77028 0.0
C660 C 0.36595 0.49056 0.80878 0.0
H661 H 0.37166 0.51735 0.75999 0.0
C662 C 0.42579 0.55473 0.7797 0.0
O663 O 0.47704 0.52465 0.75113 0.0
O664 O 0.44086 0.51378 0.7341 0.0
N665 N 0.40383 0.49264 0.82678 0.0
C666 C 0.41967 0.48776 0.84385 0.0
C667 C 0.41174 0.47588 0.86259 0.0
C668 C 0.38768 0.47017 0.86426 0.0
C669 C 0.37173 0.47553 0.8466 0.0
C670 C 0.38062 0.48601 0.82753 0.0
H671 H 0.43817 0.49294 0.84334 0.0
O672 O 0.44588 0.47981 0.76645 0.0
O673 O 0.42068 0.49823 0.78028 0.0
O674 O 0.46696 0.51843 0.80537 0.0
O675 O 0.43854 0.53069 0.82284 0.0
C676 C 0.34728 0.47047 0.84684 0.0
C677 C 0.33225 0.47472 0.82736 0.0
H678 H 0.30902 0.48498 0.78649 0.0
H679 H 0.32833 0.50482 0.75511 0.0
H680 H 0.42419 0.47177 0.87611 0.0
H681 H 0.38166 0.46154 0.87907 0.0
H682 H 0.33986 0.46255 0.86144 0.0
H683 H 0.3135 0.47024 0.82744 0.0
Mn684 Mn 0.69104 0.06812 0.75659 0.0
Mn685 Mn 0.73617 0.08168 0.80055 0.0
C686 C 0.70158 0.10485 0.77574 0.0
C687 C 0.67671 0.06189 0.71749 0.0
C688 C 0.68778 0.05979 0.80857 0.0
O689 O 0.70627 0.04114 0.75117 0.0
O690 O 0.73289 0.05009 0.78382 0.0
C691 C 0.77257 0.08262 0.76816 0.0
N692 N 0.7629 0.09357 0.78566 0.0
C693 C 0.79301 0.12805 0.78866 0.0
C694 C 0.80327 0.11715 0.77066 0.0
C695 C 0.79296 0.09436 0.76033 0.0
C696 C 0.77244 0.11565 0.79543 0.0
H697 H 0.7649 0.06503 0.76032 0.0
C698 C 0.72225 0.03656 0.76529 0.0
O699 O 0.66498 0.0518 0.73301 0.0
O700 O 0.69653 0.07617 0.72464 0.0
N701 N 0.7422 0.11164 0.81904 0.0
C702 C 0.73277 0.11793 0.83906 0.0
C703 C 0.74204 0.13961 0.85269 0.0
C704 C 0.76147 0.15428 0.84612 0.0
C705 C 0.77175 0.1469 0.82627 0.0
C706 C 0.7617 0.12509 0.81336 0.0
H707 H 0.71812 0.10659 0.84446 0.0
O708 O 0.68074 0.09743 0.76427 0.0
O709 O 0.71607 0.0908 0.77489 0.0
O710 O 0.6794 0.05651 0.78653 0.0
O711 O 0.7088 0.07023 0.81644 0.0
C712 C 0.79216 0.15989 0.81944 0.0
C713 C 0.80271 0.15053 0.80055 0.0
H714 H 0.8192 0.12601 0.76483 0.0
H715 H 0.80084 0.08577 0.74652 0.0
H716 H 0.73429 0.14492 0.86829 0.0
H717 H 0.76866 0.17095 0.85674 0.0
H718 H 0.80018 0.17689 0.82895 0.0
H719 H 0.81861 0.16053 0.79571 0.0
Mn720 Mn 0.76938 0.69576 0.02882 0.0
Mn721 Mn 0.7639 0.65374 0.98223 0.0
C722 C 0.73185 0.67216 0.01475 0.0
C723 C 0.77457 0.70757 0.07122 0.0
C724 C 0.77405 0.70535 0.97674 0.0
O725 O 0.80282 0.69002 0.02926 0.0
O726 O 0.79544 0.65932 1.00046 0.0
C727 C 0.76849 0.6124 1.00619 0.0
N728 N 0.75635 0.62294 0.99041 0.0
C729 C 0.73186 0.58639 0.97273 0.0
C730 C 0.74401 0.5751 0.98886 0.0
C731 C 0.76223 0.5882 1.00584 0.0
C732 C 0.73836 0.61059 0.97451 0.0
H733 H 0.78305 0.62235 0.01864 0.0
C734 C 0.80906 0.67326 0.01716 0.0
O735 O 0.77913 0.72248 0.05621 0.0
O736 O 0.76787 0.68614 0.06168 0.0
N737 N 0.73426 0.64625 0.96293 0.0
C738 C 0.7231 0.66016 0.95031 0.0
C739 C 0.7033 0.65007 0.93378 0.0
C740 C 0.69568 0.62578 0.92991 0.0
C741 C 0.70761 0.61184 0.94304 0.0
C742 C 0.72673 0.62295 0.95981 0.0
H743 H 0.72941 0.67876 0.9527 0.0
O744 O 0.7347 0.69335 0.02507 0.0
O745 O 0.75144 0.66609 0.01092 0.0
O746 O 0.77257 0.71294 0.99844 0.0
O747 O 0.77177 0.68381 0.96979 0.0
C748 C 0.70131 0.58739 0.94021 0.0
C749 C 0.71361 0.57464 0.95488 0.0
H750 H 0.7395 0.5564 0.98836 0.0
H751 H 0.77175 0.5796 0.01828 0.0
H752 H 0.69421 0.66094 0.92371 0.0
H753 H 0.6806 0.61805 0.9169 0.0
H754 H 0.68679 0.57825 0.92716 0.0
H755 H 0.70835 0.55589 0.95285 0.0
Mn756 Mn 0.90979 0.52514 0.8169 0.0
Mn757 Mn 0.86337 0.51963 0.84783 0.0
C758 C 0.89051 0.48951 0.82106 0.0
C759 C 0.92751 0.53086 0.78352 0.0
C760 C 0.91328 0.53216 0.87021 0.0
O761 O 0.90274 0.55631 0.82065 0.0
O762 O 0.86815 0.55027 0.8353 0.0
C763 C 0.82437 0.51779 0.80966 0.0
N764 N 0.83488 0.50758 0.82698 0.0
C765 C 0.80269 0.4746 0.82113 0.0
C766 C 0.79157 0.48471 0.80314 0.0
C767 C 0.80249 0.50636 0.79734 0.0
C768 C 0.82462 0.4866 0.83252 0.0
H769 H 0.83256 0.5346 0.80543 0.0
C770 C 0.88482 0.56299 0.82676 0.0
O771 O 0.93881 0.53717 0.8048 0.0
O772 O 0.90508 0.52271 0.78144 0.0
N773 N 0.85712 0.49078 0.86098 0.0
C774 C 0.86888 0.48435 0.88038 0.0
C775 C 0.86061 0.46285 0.88812 0.0
C776 C 0.83965 0.44862 0.8766 0.0
C777 C 0.82696 0.45631 0.85779 0.0
C778 C 0.83642 0.47769 0.85047 0.0
H779 H 0.88427 0.49562 0.89016 0.0
O780 O 0.91136 0.4923 0.81475 0.0
O781 O 0.88072 0.50741 0.82314 0.0
O782 O 0.92235 0.52918 0.85126 0.0
O783 O 0.89159 0.53101 0.87113 0.0
C784 C 0.80499 0.44391 0.84648 0.0
C785 C 0.79272 0.4532 0.82838 0.0
H786 H 0.77461 0.47606 0.79375 0.0
H787 H 0.79393 0.51433 0.78356 0.0
H788 H 0.8702 0.45744 0.90315 0.0
H789 H 0.83318 0.43212 0.88273 0.0
H790 H 0.79724 0.42734 0.85173 0.0
H791 H 0.77571 0.44358 0.81996 0.0
Mn792 Mn 0.81925 0.44132 0.51486 0.0
Mn793 Mn 0.82668 0.47683 0.47242 0.0
C794 C 0.85554 0.4587 0.50939 0.0
C795 C 0.81095 0.43372 0.55197 0.0
C796 C 0.81407 0.42482 0.46269 0.0
O797 O 0.78776 0.44759 0.50603 0.0
O798 O 0.79517 0.47551 0.48194 0.0
C799 C 0.82659 0.5213 0.50159 0.0
N800 N 0.83754 0.50814 0.48727 0.0
C801 C 0.87062 0.53971 0.48919 0.0
C802 C 0.85963 0.55369 0.5038 0.0
C803 C 0.8376 0.54439 0.51016 0.0
C804 C 0.859 0.51671 0.48158 0.0
H805 H 0.8096 0.51423 0.5064 0.0
C806 C 0.78172 0.46273 0.49379 0.0
O807 O 0.80624 0.41754 0.53388 0.0
O808 O 0.82042 0.45471 0.54863 0.0
N809 N 0.85677 0.47975 0.46172 0.0
C810 C 0.86462 0.46418 0.44687 0.0
C811 C 0.88587 0.47105 0.43785 0.0
C812 C 0.89875 0.4939 0.44405 0.0
C813 C 0.89044 0.50957 0.45951 0.0
C814 C 0.86899 0.50182 0.46767 0.0
H815 H 0.85455 0.44676 0.44152 0.0
O816 O 0.85256 0.44033 0.52037 0.0
O817 O 0.83723 0.46664 0.50271 0.0
O818 O 0.81607 0.42144 0.48428 0.0
O819 O 0.81625 0.44485 0.45571 0.0
C820 C 0.90235 0.53273 0.46669 0.0
C821 C 0.89255 0.54773 0.48171 0.0
H822 H 0.86794 0.57158 0.51023 0.0
H823 H 0.82905 0.55504 0.52152 0.0
H824 H 0.89218 0.45885 0.42593 0.0
H825 H 0.91505 0.4992 0.43688 0.0
H826 H 0.91903 0.53919 0.46071 0.0
H827 H 0.90189 0.56549 0.48717 0.0
Mn828 Mn 0.64513 0.56902 0.29612 0.0
Mn829 Mn 0.68889 0.57615 0.34199 0.0
C830 C 0.66703 0.6062 0.31081 0.0
C831 C 0.63265 0.56267 0.25386 0.0
C832 C 0.63726 0.56408 0.34906 0.0
O833 O 0.65315 0.53671 0.29567 0.0
O834 O 0.68457 0.54457 0.32419 0.0
C835 C 0.72927 0.57373 0.31537 0.0
N836 N 0.71852 0.58573 0.33104 0.0
C837 C 0.75171 0.61769 0.3385 0.0
C838 C 0.76315 0.60564 0.32249 0.0
C839 C 0.75182 0.58361 0.31078 0.0
C840 C 0.72917 0.60705 0.3422 0.0
H841 H 0.7208 0.55669 0.30652 0.0
C842 C 0.67069 0.5311 0.30731 0.0
O843 O 0.618 0.55802 0.26918 0.0
O844 O 0.65422 0.57053 0.26301 0.0
N845 N 0.69514 0.60645 0.35991 0.0
C846 C 0.68167 0.61593 0.37465 0.0
C847 C 0.69017 0.63829 0.38708 0.0
C848 C 0.71255 0.65055 0.38449 0.0
C849 C 0.72626 0.6403 0.36952 0.0
C850 C 0.7168 0.61802 0.35747 0.0
H851 H 0.66455 0.60657 0.37687 0.0
O852 O 0.64617 0.60346 0.29935 0.0
O853 O 0.67403 0.58713 0.31395 0.0
O854 O 0.62905 0.56562 0.32744 0.0
O855 O 0.65917 0.56673 0.3558 0.0
C856 C 0.74895 0.65129 0.36616 0.0
C857 C 0.76178 0.63986 0.35091 0.0
H858 H 0.78057 0.61318 0.31896 0.0
H859 H 0.76051 0.5742 0.29836 0.0
H860 H 0.6795 0.64606 0.39865 0.0
H861 H 0.71905 0.66781 0.39409 0.0
H862 H 0.75675 0.6685 0.37528 0.0
H863 H 0.77929 0.64843 0.34861 0.0
Tb864 Tb 0.07595 0.05455 0.05386 0.0
C865 C 1.00376 0.97475 0.99421 0.0
N866 N 1.01436 0.99618 0.98961 0.0
C867 C 1.01641 0.98045 0.94923 0.0
C868 C 0.9993 0.95533 0.97646 0.0
C869 C 0.02024 0.99929 0.96725 0.0
C870 C 1.00596 0.95838 0.95384 0.0
C871 C 0.98504 0.95066 0.02183 0.0
C872 C 0.99664 0.9724 0.01666 0.0
C873 C 0.98083 0.93127 1.00425 0.0
C874 C 0.98789 0.9336 0.98163 0.0
Tb875 Tb 1.01629 0.02554 0.01998 0.0
N876 N 1.00092 0.99155 0.03333 0.0
C877 C 0.97748 0.94916 0.04432 0.0
C878 C 0.99234 0.9904 0.05471 0.0
C879 C 0.98095 0.96918 0.06073 0.0
H880 H 0.02679 0.01632 0.96262 0.0
H881 H 0.97434 0.96839 0.07779 0.0
H882 H 0.06582 0.06568 0.11094 0.0
H883 H 0.12295 0.10838 0.99622 0.0
H884 H 0.99316 1.00586 0.06671 0.0
H885 H 0.96839 0.93279 0.04893 0.0
H886 H 0.10326 0.07184 1.00835 0.0
H887 H 0.02102 0.98309 0.93158 0.0
H888 H 0.97184 0.91444 1.00786 0.0
H889 H 0.98422 0.91853 0.96815 0.0
H890 H 0.07223 0.0996 0.14123 0.0
H891 H 1.0027 0.94391 0.93969 0.0
H892 H 0.12881 0.14488 0.02376 0.0
N893 N 0.07915 0.08476 0.0836 0.0
C894 C 0.09079 0.10567 0.07873 0.0
C895 C 0.07716 0.10163 0.12358 0.0
C896 C 0.09557 0.12548 0.09603 0.0
C897 C 0.07294 0.08242 0.10597 0.0
C898 C 0.08837 0.12328 0.11856 0.0
N899 N 0.09379 0.0876 0.04026 0.0
C900 C 0.10351 0.08773 0.01944 0.0
C901 C 0.11095 0.12834 0.05094 0.0
C902 C 0.09843 0.1071 0.05643 0.0
C903 C 0.1191 0.12891 0.02865 0.0
C904 C 0.11564 0.10842 0.01297 0.0
H905 H 0.09185 0.13806 0.13237 0.0
H906 H 0.11159 0.1621 0.10356 0.0
H907 H 0.12499 0.16461 0.06409 0.0
O908 O 0.10774 0.04718 0.04591 0.0
O909 O 0.05385 0.08023 0.04381 0.0
O910 O 0.02546 0.06287 0.01243 0.0
O911 O 0.10346 0.05981 0.08192 0.0
O912 O 0.07456 0.03814 0.0161 0.0
O913 O 0.03993 0.0432 0.99762 0.0
O914 O 0.98375 0.03054 0.02853 0.0
O915 O 0.03912 1.00035 0.03035 0.0
O916 O 0.06598 0.0184 0.06254 0.0
O917 O 0.98851 0.01953 0.99225 0.0
O918 O 1.01734 0.04357 0.05655 0.0
O919 O 0.05114 0.03839 0.07675 0.0
C920 C 0.0382 0.082 0.02565 0.0
C921 C 0.13038 0.03549 0.07738 0.0
C922 C 0.1603 0.01383 0.06991 0.0
C923 C 0.1641 1.01166 0.09442 0.0
C924 C 0.13411 0.03335 0.10187 0.0
C925 C 0.15058 0.02093 0.11022 0.0
C926 C 0.14244 0.02447 0.06155 0.0
C927 C 0.06174 0.04185 0.99686 0.0
C928 C 0.11716 0.05192 0.06821 0.0
C929 C 0.10775 0.14672 0.09047 0.0
C930 C 0.11538 0.14816 0.06799 0.0
C931 C 0.05403 0.9992 0.04932 0.0
C932 C 0.96516 0.04676 0.99814 0.0
C933 C 0.94347 0.07645 1.007 0.0
C934 C 0.94638 0.08405 0.98469 0.0
C935 C 0.96866 0.05471 0.97597 0.0
C936 C 0.95272 0.05784 0.01358 0.0
C937 C 0.9592 0.0733 0.9693 0.0
C938 C 0.02932 0.04039 0.07644 0.0
C939 C 0.97499 0.02763 1.00605 0.0
H940 H 0.17791 1.00358 0.10152 0.0
H941 H 0.1249 0.04177 0.11456 0.0
H942 H 0.15364 0.01945 0.12911 0.0
H943 H 0.13883 0.02547 0.04258 0.0
H944 H 0.93832 0.09792 0.97906 0.0
H945 H 0.97858 0.04659 0.96378 0.0
H946 H 0.94945 0.05142 0.03044 0.0
H947 H 0.96155 0.07918 0.9521 0.0
Tb948 Tb 0.28437 0.79372 0.3131 0.0
C949 C 0.34459 0.75606 0.22498 0.0
N950 N 0.35174 0.77261 0.24422 0.0
C951 C 0.38827 0.76037 0.25046 0.0
C952 C 0.35867 0.74034 0.21829 0.0
C953 C 0.37354 0.77535 0.25659 0.0
C954 C 0.38071 0.74261 0.2314 0.0
C955 C 0.31432 0.73716 0.19268 0.0
C956 C 0.32283 0.75461 0.21224 0.0
C957 C 0.32809 0.72119 0.18618 0.0
C958 C 0.35024 0.72282 0.19892 0.0
Tb959 Tb 0.32521 0.79429 0.25443 0.0
N960 N 0.30958 0.76972 0.21982 0.0
C961 C 0.29215 0.73612 0.18043 0.0
C962 C 0.2884 0.76947 0.20705 0.0
C963 C 0.27928 0.75254 0.18746 0.0
H964 H 0.37972 0.78908 0.2713 0.0
H965 H 0.2623 0.7522 0.17779 0.0
H966 H 0.233 0.80263 0.29094 0.0
H967 H 0.34089 0.83397 0.39441 0.0
H968 H 0.27826 0.78218 0.21148 0.0
H969 H 0.28492 0.72291 0.16538 0.0
H970 H 0.32268 0.80188 0.36278 0.0
H971 H 0.4054 0.76246 0.26054 0.0
H972 H 0.32178 0.70754 0.17134 0.0
H973 H 0.3607 0.71042 0.19367 0.0
H974 H 0.20974 0.83283 0.29606 0.0
H975 H 0.39206 0.73088 0.22685 0.0
H976 H 0.32471 0.86962 0.39834 0.0
N977 N 0.26082 0.82003 0.31768 0.0
C978 C 0.26853 0.83832 0.3351 0.0
C979 C 0.22639 0.8347 0.30702 0.0
C980 C 0.25595 0.85606 0.33864 0.0
C981 C 0.23973 0.81768 0.30404 0.0
C982 C 0.23465 0.85412 0.32421 0.0
N983 N 0.29981 0.82075 0.34588 0.0
C984 C 0.31702 0.81809 0.36286 0.0
C985 C 0.29773 0.85719 0.36818 0.0
C986 C 0.28908 0.83891 0.34946 0.0
C987 C 0.31741 0.85592 0.38377 0.0
C988 C 0.3267 0.83593 0.38148 0.0
H989 H 0.22431 0.86729 0.32643 0.0
H990 H 0.25568 0.8889 0.35944 0.0
H991 H 0.29238 0.88989 0.38535 0.0
O992 O 0.28449 0.77209 0.33958 0.0
O993 O 0.29363 0.82691 0.30036 0.0
O994 O 0.32451 0.81588 0.2873 0.0
O995 O 0.25237 0.77216 0.31745 0.0
O996 O 0.3211 0.78799 0.32209 0.0
O997 O 0.34426 0.79017 0.28997 0.0
O998 O 0.32334 0.82027 0.23235 0.0
O999 O 0.30951 0.75841 0.25595 0.0
O1000 O 0.29913 0.77752 0.28535 0.0
O1001 O 0.35643 0.81636 0.24998 0.0
O1002 O 0.28889 0.80208 0.24976 0.0
O1003 O 0.26423 0.78497 0.27633 0.0
C1004 C 0.31127 0.83096 0.28839 0.0
C1005 C 0.25168 0.7665 0.35813 0.0
C1006 C 0.24903 0.75296 0.39656 0.0
C1007 C 0.23964 0.77205 0.40439 0.0
C1008 C 0.24265 0.78586 0.36594 0.0
C1009 C 0.23655 0.78852 0.38907 0.0
C1010 C 0.25493 0.7502 0.3735 0.0
C1011 C 0.3411 0.78738 0.31274 0.0
C1012 C 0.26201 0.76482 0.33611 0.0
C1013 C 0.26495 0.87492 0.35655 0.0
C1014 C 0.28588 0.87553 0.37125 0.0
C1015 C 0.29833 0.75717 0.27404 0.0
C1016 C 0.35642 0.8307 0.21276 0.0
C1017 C 0.35609 0.84879 0.17633 0.0
C1018 C 0.37766 0.84288 0.17279 0.0
C1019 C 0.3778 0.82461 0.20898 0.0
C1020 C 0.34553 0.84237 0.19623 0.0
C1021 C 0.38829 0.83065 0.18895 0.0
C1022 C 0.26775 0.79503 0.25656 0.0
C1023 C 0.34599 0.82702 0.23467 0.0
H1024 H 0.23481 0.77416 0.42229 0.0
H1025 H 0.24081 0.79906 0.35446 0.0
H1026 H 0.22963 0.80344 0.39519 0.0
H1027 H 0.26241 0.7355 0.36762 0.0
H1028 H 0.38652 0.84802 0.1578 0.0
H1029 H 0.38661 0.81562 0.22162 0.0
H1030 H 0.32884 0.84667 0.19908 0.0
H1031 H 0.4049 0.82622 0.18618 0.0
Tb1032 Tb 0.52135 0.04966 0.5533 0.0
C1033 C 0.60158 0.09402 0.49836 0.0
N1034 N 0.58659 0.07302 0.49202 0.0
C1035 C 0.58224 0.08044 0.45113 0.0
C1036 C 0.60682 0.10931 0.48131 0.0
C1037 C 0.5777 0.06571 0.46856 0.0
C1038 C 0.59664 0.10241 0.45755 0.0
C1039 C 0.62789 0.12151 0.5291 0.0
C1040 C 0.61215 0.10011 0.52202 0.0
C1041 C 0.63278 0.1369 0.51219 0.0
C1042 C 0.62228 0.13084 0.48839 0.0
Tb1043 Tb 0.58127 0.05149 0.52292 0.0
N1044 N 0.60627 0.08529 0.53832 0.0
C1045 C 0.63829 0.12674 0.55296 0.0
C1046 C 0.61746 0.08957 0.56114 0.0
C1047 C 0.6333 0.11055 0.56895 0.0
H1048 H 0.56748 0.04838 0.46295 0.0
H1049 H 0.64187 0.11413 0.58719 0.0
H1050 H 0.53379 0.05252 0.61282 0.0
H1051 H 0.45567 0.99169 0.48964 0.0
H1052 H 0.61439 0.07673 0.57311 0.0
H1053 H 0.65054 0.143 0.55909 0.0
H1054 H 0.48617 0.02709 0.50362 0.0
H1055 H 0.57488 0.0747 0.43265 0.0
H1056 H 0.64478 0.15349 0.51729 0.0
H1057 H 0.62642 0.14284 0.47553 0.0
H1058 H 0.52385 0.02716 0.64354 0.0
H1059 H 0.60022 0.1137 0.44392 0.0
H1060 H 0.4443 0.96339 0.51755 0.0
N1061 N 0.51278 0.02887 0.58413 0.0
C1062 C 0.49641 1.00887 0.57802 0.0
C1063 C 0.5162 0.02169 0.62512 0.0
C1064 C 0.4898 0.99409 0.59516 0.0
C1065 C 0.52206 0.03587 0.6075 0.0
C1066 C 0.50021 1.00058 0.61889 0.0
N1067 N 0.49281 0.01806 0.53853 0.0
C1068 C 0.48172 0.01453 0.51567 0.0
C1069 C 0.46838 0.9832 0.54749 0.0
C1070 C 0.48579 1.00347 0.55454 0.0
C1071 C 0.45778 0.97877 0.52371 0.0
C1072 C 0.46427 0.99468 0.50782 0.0
H1073 H 0.49564 0.98969 0.6326 0.0
H1074 H 0.46764 0.96189 0.60103 0.0
H1075 H 0.4489 0.95235 0.55927 0.0
O1076 O 0.49638 0.06655 0.53708 0.0
O1077 O 0.52811 0.01446 0.53889 0.0
O1078 O 0.55813 0.01597 0.51422 0.0
O1079 O 0.50181 0.06644 0.57534 0.0
O1080 O 0.53168 0.0618 0.5206 0.0
O1081 O 0.55021 0.04025 0.49757 0.0
O1082 O 0.60874 0.03714 0.53839 0.0
O1083 O 0.5716 0.08563 0.53607 0.0
O1084 O 0.54721 0.08242 0.56579 0.0
O1085 O 0.60598 0.04334 0.50152 0.0
O1086 O 0.57151 0.03638 0.55424 0.0
O1087 O 0.55304 0.05721 0.57828 0.0
C1088 C 0.54062 1.00412 0.52417 0.0
C1089 C 0.46499 0.07138 0.55905 0.0
C1090 C 0.43175 0.09029 0.55817 0.0
C1091 C 0.41875 0.07122 0.56694 0.0
C1092 C 0.45178 0.05236 0.56774 0.0
C1093 C 0.42874 0.05234 0.57167 0.0
C1094 C 0.45487 0.09032 0.55416 0.0
C1095 C 0.53178 0.04867 0.5008 0.0
C1096 C 0.48999 0.07311 0.55761 0.0
C1097 C 0.47282 0.97355 0.58814 0.0
C1098 C 0.46212 0.96813 0.56437 0.0
C1099 C 0.56113 0.0952 0.55316 0.0
C1100 C 0.62242 1.01169 0.51046 0.0
C1101 C 0.64891 0.9849 0.51341 0.0
C1102 C 0.63737 0.9722 0.49169 0.0
C1103 C 0.6107 0.99832 0.48908 0.0
C1104 C 0.64136 1.00467 0.52285 0.0
C1105 C 0.61849 0.97899 0.47959 0.0
C1106 C 0.57101 0.04816 0.57459 0.0
C1107 C 0.61698 0.03438 0.51806 0.0
H1108 H 0.40091 0.07104 0.57026 0.0
H1109 H 0.45943 0.03784 0.57205 0.0
H1110 H 0.41869 0.03779 0.57867 0.0
H1111 H 0.46507 0.1052 0.54773 0.0
H1112 H 0.64318 0.95713 0.48394 0.0
H1113 H 0.59608 1.00331 0.47915 0.0
H1114 H 0.65083 0.01511 0.53907 0.0
H1115 H 0.61014 0.96947 0.46255 0.0
Tb1116 Tb 0.32139 0.27894 0.78601 0.0
C1117 C 0.24085 0.3168 0.7328 0.0
N1118 N 0.25518 0.32733 0.75298 0.0
C1119 C 0.25721 0.36443 0.73898 0.0
C1120 C 0.2342 0.3298 0.71479 0.0
C1121 C 0.26324 0.35086 0.75644 0.0
C1122 C 0.24266 0.35388 0.71805 0.0
C1123 C 0.21784 0.28136 0.70961 0.0
C1124 C 0.2328 0.29283 0.7302 0.0
C1125 C 0.21116 0.29427 0.69162 0.0
C1126 C 0.21932 0.31841 0.69419 0.0
Tb1127 Tb 0.26335 0.30304 0.77978 0.0
N1128 N 0.24014 0.28075 0.74768 0.0
C1129 C 0.21001 0.25726 0.70778 0.0
C1130 C 0.23166 0.25746 0.74654 0.0
C1131 C 0.21679 0.2453 0.72642 0.0
H1132 H 0.27387 0.35932 0.77289 0.0
H1133 H 0.21041 0.22675 0.72541 0.0
H1134 H 0.31062 0.22283 0.79311 0.0
H1135 H 0.38109 0.35344 0.83617 0.0
H1136 H 0.23612 0.2482 0.76105 0.0
H1137 H 0.19848 0.24778 0.69223 0.0
H1138 H 0.35361 0.33201 0.80162 0.0
H1139 H 0.26361 0.38306 0.74177 0.0
H1140 H 0.19965 0.28576 0.67564 0.0
H1141 H 0.21399 0.32811 0.68015 0.0
H1142 H 0.32093 0.19894 0.82411 0.0
H1143 H 0.23795 0.36448 0.70461 0.0
H1144 H 0.39207 0.33296 0.87017 0.0
N1145 N 0.33041 0.25457 0.8125 0.0
C1146 C 0.34544 0.26483 0.8323 0.0
C1147 C 0.32784 0.21749 0.82669 0.0
C1148 C 0.35209 0.2518 0.85028 0.0
C1149 C 0.32181 0.23114 0.80928 0.0
C1150 C 0.34294 0.22786 0.84733 0.0
N1151 N 0.34747 0.3004 0.81664 0.0
C1152 C 0.35753 0.32319 0.81664 0.0
C1153 C 0.37047 0.29981 0.85428 0.0
C1154 C 0.35448 0.28849 0.83434 0.0
C1155 C 0.37971 0.32359 0.85515 0.0
C1156 C 0.37345 0.33525 0.83606 0.0
H1157 H 0.34762 0.21722 0.86075 0.0
H1158 H 0.37299 0.25333 0.88453 0.0
H1159 H 0.38908 0.29537 0.88801 0.0
O1160 O 0.34498 0.29029 0.76206 0.0
O1161 O 0.31113 0.29488 0.82067 0.0
O1162 O 0.28854 0.32102 0.80999 0.0
O1163 O 0.34418 0.2575 0.77529 0.0
O1164 O 0.3206 0.31006 0.76789 0.0
O1165 O 0.29534 0.3304 0.78477 0.0
O1166 O 0.23598 0.28988 0.79918 0.0
O1167 O 0.27725 0.29156 0.74684 0.0
O1168 O 0.2949 0.26178 0.75582 0.0
O1169 O 0.23905 0.32354 0.78725 0.0
O1170 O 0.26672 0.27427 0.80061 0.0
O1171 O 0.28901 0.25213 0.78212 0.0
C1172 C 0.30065 0.31237 0.82642 0.0
C1173 C 0.38013 0.27643 0.7639 0.0
C1174 C 0.41588 0.28079 0.74466 0.0
C1175 C 0.42905 0.28354 0.76729 0.0
C1176 C 0.39374 0.27923 0.78628 0.0
C1177 C 0.41804 0.28276 0.78791 0.0
C1178 C 0.3913 0.27721 0.743 0.0
C1179 C 0.3139 0.32957 0.77377 0.0
C1180 C 0.35435 0.27211 0.76207 0.0
C1181 C 0.36772 0.26304 0.87046 0.0
C1182 C 0.37689 0.28699 0.87246 0.0
C1183 C 0.28584 0.27336 0.74003 0.0
C1184 C 0.22157 0.31843 0.82253 0.0
C1185 C 0.19436 0.31704 0.85234 0.0
C1186 C 0.2063 0.33927 0.863 0.0
C1187 C 0.23352 0.34043 0.83386 0.0
C1188 C 0.20217 0.30655 0.83214 0.0
C1189 C 0.22588 0.35074 0.85396 0.0
C1190 C 0.27122 0.2539 0.79393 0.0
C1191 C 0.22774 0.3088 0.79954 0.0
H1192 H 0.44791 0.28576 0.76893 0.0
H1193 H 0.38559 0.27839 0.80248 0.0
H1194 H 0.42838 0.2846 0.80524 0.0
H1195 H 0.38094 0.27464 0.72557 0.0
H1196 H 0.20042 0.34777 0.87841 0.0
H1197 H 0.24842 0.34995 0.82684 0.0
H1198 H 0.19266 0.28968 0.8234 0.0
H1199 H 0.23495 0.36785 0.86234 0.0
Tb1200 Tb 0.06158 0.01441 0.53782 0.0
C1201 C 1.01871 0.09858 0.5805 0.0
N1202 N 1.00958 0.08107 0.56251 0.0
C1203 C 0.97185 0.07769 0.57588 0.0
C1204 C 1.0047 0.10622 0.59707 0.0
C1205 C 0.98634 0.07092 0.55966 0.0
C1206 C 0.98107 0.09534 0.59472 0.0
C1207 C 0.05216 0.12772 0.60026 0.0
C1208 C 0.04221 0.10912 0.58218 0.0
C1209 C 0.03824 0.13531 0.61682 0.0
C1210 C 1.01461 0.12454 0.61528 0.0
Tb1211 Tb 0.0353 0.07236 0.53737 0.0
N1212 N 0.05544 0.10073 0.56647 0.0
C1213 C 0.07592 0.13775 0.60145 0.0
C1214 C 0.07833 0.11112 0.56693 0.0
C1215 C 0.08902 0.12948 0.58462 0.0
H1216 H 0.97864 0.05796 0.54466 0.0
H1217 H 0.10729 0.13746 0.58504 0.0
H1218 H 0.11735 0.03298 0.52682 0.0
H1219 H 0.99662 0.93944 0.49814 0.0
H1220 H 0.08828 0.10585 0.55342 0.0
H1221 H 0.08426 0.15196 0.61515 0.0
H1222 H 1.01515 0.9723 0.52919 0.0
H1223 H 0.95349 0.06949 0.57365 0.0
H1224 H 0.04562 0.14942 0.63096 0.0
H1225 H 1.00411 0.13059 0.62821 0.0
H1226 H 0.14011 0.02707 0.49388 0.0
H1227 H 0.96973 0.10065 0.60714 0.0
H1228 H 1.01632 0.93129 0.46262 0.0
N1229 N 0.08618 1.00965 0.50959 0.0
C1230 C 0.07725 0.99238 0.49124 0.0
C1231 C 0.12228 0.01748 0.49269 0.0
C1232 C 0.09016 0.98767 0.4724 0.0
C1233 C 0.10894 0.02125 0.51116 0.0
C1234 C 0.11272 1.0009 0.47302 0.0
N1235 N 0.04321 0.98414 0.51001 0.0
C1236 C 0.02309 0.96957 0.51313 0.0
C1237 C 0.04593 0.95986 0.47398 0.0
C1238 C 0.05533 0.97877 0.49183 0.0
C1239 C 0.02424 0.94592 0.476 0.0
C1240 C 1.01295 0.95059 0.4959 0.0
H1241 H 0.12321 0.99787 0.45887 0.0
H1242 H 0.08995 0.96589 0.43913 0.0
H1243 H 0.05124 0.94148 0.44057 0.0
O1244 O 0.05254 0.98824 0.56067 0.0
O1245 O 0.04538 0.02121 0.50235 0.0
O1246 O 0.0207 0.04753 0.50552 0.0
O1247 O 0.08631 0.99506 0.54737 0.0
O1248 O 0.02805 0.01568 0.55203 0.0
O1249 O 1.00891 0.04015 0.53205 0.0
O1250 O 0.04839 0.09842 0.51676 0.0
O1251 O 0.04758 0.06306 0.57339 0.0
O1252 O 0.07497 0.03984 0.56945 0.0
O1253 O 1.01211 0.09147 0.52244 0.0
O1254 O 0.06548 0.06602 0.5204 0.0
O1255 O 0.08768 0.0475 0.54335 0.0
C1256 C 0.02992 0.03247 0.49289 0.0
C1257 C 0.08051 0.96337 0.57122 0.0
C1258 C 0.07448 0.93047 0.5944 0.0
C1259 C 0.09683 0.9269 0.59071 0.0
C1260 C 0.1028 0.95925 0.568 0.0
C1261 C 0.11081 0.94115 0.57761 0.0
C1262 C 0.06612 0.94869 0.58436 0.0
C1263 C 1.00885 0.02104 0.54194 0.0
C1264 C 0.07255 0.98214 0.55935 0.0
C1265 C 0.08039 0.96958 0.45389 0.0
C1266 C 0.05837 0.95563 0.45474 0.0
C1267 C 0.06381 0.05247 0.58271 0.0
C1268 C 0.02812 0.12909 0.51369 0.0
C1269 C 0.03024 0.16361 0.49331 0.0
C1270 C 0.02691 0.17629 0.51455 0.0
C1271 C 0.02449 0.14195 0.53468 0.0
C1272 C 0.03082 0.13996 0.49294 0.0
C1273 C 0.02395 0.16546 0.53507 0.0
C1274 C 0.08591 0.06482 0.531 0.0
C1275 C 0.02818 0.10418 0.51257 0.0
H1276 H 0.10349 0.91285 0.59792 0.0
H1277 H 0.11413 0.9699 0.55775 0.0
H1278 H 0.12795 0.93811 0.57483 0.0
H1279 H 0.0488 0.95144 0.58686 0.0
H1280 H 0.02623 0.1945 0.51511 0.0
H1281 H 0.02177 0.13384 0.55062 0.0
H1282 H 0.03334 0.13006 0.47656 0.0
H1283 H 0.02104 0.17527 0.55128 0.0
Tb1284 Tb 0.29819 0.82373 0.77228 0.0
C1285 C 0.25386 0.74215 0.82873 0.0
N1286 N 0.27509 0.75697 0.83394 0.0
C1287 C 0.26904 0.76255 0.87525 0.0
C1288 C 0.23893 0.7379 0.84638 0.0
C1289 C 0.28345 0.76577 0.85725 0.0
C1290 C 0.2465 0.74896 0.8697 0.0
C1291 C 0.22704 0.71275 0.80038 0.0
C1292 C 0.24782 0.72976 0.80603 0.0
C1293 C 0.21154 0.70938 0.81751 0.0
C1294 C 0.21743 0.722 0.84043 0.0
Tb1295 Tb 0.29533 0.76194 0.80165 0.0
N1296 N 0.26283 0.73395 0.78962 0.0
C1297 C 0.2229 0.6992 0.77796 0.0
C1298 C 0.26029 0.71915 0.76903 0.0
C1299 C 0.23995 0.70199 0.76246 0.0
H1300 H 0.30129 0.77512 0.86228 0.0
H1301 H 0.23761 0.69073 0.74568 0.0
H1302 H 0.29853 0.81093 0.7126 0.0
H1303 H 0.35878 0.88233 0.84048 0.0
H1304 H 0.27419 0.72042 0.75795 0.0
H1305 H 0.20718 0.68585 0.77291 0.0
H1306 H 0.32179 0.85514 0.82444 0.0
H1307 H 0.27552 0.7702 0.8935 0.0
H1308 H 0.19528 0.69662 0.81343 0.0
H1309 H 0.20562 0.71873 0.8537 0.0
H1310 H 0.32674 0.81932 0.68427 0.0
H1311 H 0.23552 0.74622 0.88377 0.0
H1312 H 0.38883 0.89288 0.81386 0.0
N1313 N 0.32142 0.8304 0.74289 0.0
C1314 C 0.34207 0.84576 0.75038 0.0
C1315 C 0.33136 0.82666 0.70287 0.0
C1316 C 0.35851 0.85143 0.73442 0.0
C1317 C 0.31551 0.82159 0.71925 0.0
C1318 C 0.35302 0.84143 0.71051 0.0
N1319 N 0.33108 0.84951 0.78949 0.0
C1320 C 0.33486 0.8592 0.81284 0.0
C1321 C 0.36828 0.87141 0.78261 0.0
C1322 C 0.34691 0.85585 0.77424 0.0
C1323 C 0.37261 0.88085 0.80676 0.0
C1324 C 0.35574 0.87485 0.82188 0.0
H1325 H 0.36522 0.84532 0.69772 0.0
H1326 H 0.39269 0.87139 0.73073 0.0
H1327 H 0.40127 0.88875 0.77286 0.0
O1328 O 0.28725 0.85376 0.78704 0.0
O1329 O 0.33251 0.81294 0.78465 0.0
O1330 O 0.3301 0.78623 0.8128 0.0
O1331 O 0.28152 0.84203 0.74892 0.0
O1332 O 0.28438 0.80965 0.80226 0.0
O1333 O 0.30474 0.79295 0.82754 0.0
O1334 O 0.31451 0.7393 0.78517 0.0
O1335 O 0.25996 0.76789 0.78521 0.0
O1336 O 0.26151 0.80282 0.76829 0.0
O1337 O 0.30419 0.73547 0.82005 0.0
O1338 O 0.305 0.77267 0.76791 0.0
O1339 O 0.28628 0.7942 0.74574 0.0
C1340 C 0.34252 0.80189 0.80121 0.0
C1341 C 0.27698 0.88043 0.76021 0.0
C1342 C 0.25638 0.91262 0.76264 0.0
C1343 C 0.26733 0.92096 0.74344 0.0
C1344 C 0.2879 0.88924 0.74128 0.0
C1345 C 0.28304 0.9094 0.73297 0.0
C1346 C 0.26144 0.89229 0.77098 0.0
C1347 C 0.29609 0.81086 0.82299 0.0
C1348 C 0.27801 0.85697 0.766 0.0
C1349 C 0.37984 0.86693 0.74275 0.0
C1350 C 0.38471 0.87687 0.76674 0.0
C1351 C 0.24961 0.78296 0.77403 0.0
C1352 C 0.33803 0.72226 0.81205 0.0
C1353 C 0.3642 0.69495 0.81078 0.0
C1354 C 0.37701 0.70698 0.83227 0.0
C1355 C 0.35148 0.73443 0.83316 0.0
C1356 C 0.34472 0.70275 0.80062 0.0
C1357 C 0.37083 0.72674 0.84321 0.0
C1358 C 0.29016 0.77401 0.7496 0.0
C1359 C 0.31553 0.72785 0.80354 0.0
H1360 H 0.26403 0.93663 0.7367 0.0
H1361 H 0.29958 0.88015 0.73241 0.0
H1362 H 0.29127 0.91594 0.71815 0.0
H1363 H 0.25249 0.8851 0.78515 0.0
H1364 H 0.39197 0.70115 0.84049 0.0
H1365 H 0.3466 0.74946 0.84228 0.0
H1366 H 0.33429 0.69314 0.78445 0.0
H1367 H 0.38087 0.73593 0.85971 0.0
Tb1368 Tb 0.54978 0.06812 1.00767 0.0
C1369 C 0.58464 1.00605 0.09578 0.0
N1370 N 0.56758 1.00012 0.07679 0.0
C1371 C 0.57737 0.96267 0.06962 0.0
C1372 C 0.59946 0.9909 0.10184 0.0
C1373 C 0.56328 0.97842 0.06418 0.0
C1374 C 0.59576 0.96905 0.08831 0.0
C1375 C 0.605 0.03466 0.12875 0.0
C1376 C 0.58723 0.02746 0.10915 0.0
C1377 C 0.62024 0.01993 0.13452 0.0
C1378 C 0.61744 0.99806 0.12111 0.0
Tb1379 Tb 0.54793 0.02846 0.0672 0.0
N1380 N 0.57276 0.04158 0.1023 0.0
C1381 C 0.607 0.0565 0.14181 0.0
C1382 C 0.574 0.06247 0.11578 0.0
C1383 C 0.5912 0.0703 0.13549 0.0
H1384 H 0.54898 0.97309 0.04985 0.0
H1385 H 0.59229 0.08705 0.14575 0.0
H1386 H 0.54183 0.12082 0.02197 0.0
H1387 H 0.50095 0.99713 0.94109 0.0
H1388 H 0.56197 0.0734 0.11167 0.0
H1389 H 0.62046 0.06273 0.15694 0.0
H1390 H 0.53329 0.01623 0.97094 0.0
H1391 H 0.57408 0.94564 0.05932 0.0
H1392 H 0.63415 0.02523 0.14935 0.0
H1393 H 0.62921 0.98678 0.12586 0.0
H1394 H 0.513 0.14449 0.01121 0.0
H1395 H 0.60677 0.95689 0.09236 0.0
H1396 H 0.46968 0.01753 0.92877 0.0
N1397 N 0.52422 0.09113 0.9981 0.0
C1398 C 0.50607 0.08194 0.98078 0.0
C1399 C 0.51075 0.12686 1.00259 0.0
C1400 C 0.48909 0.09471 0.97406 0.0
C1401 C 0.52699 0.11338 1.0088 0.0
C1402 C 0.49163 0.11745 0.98522 0.0
N1403 N 0.52082 0.04761 0.97792 0.0
C1404 C 0.51992 0.02563 0.96697 0.0
C1405 C 0.48523 0.04891 0.95277 0.0
C1406 C 0.50419 0.05935 0.97043 0.0
C1407 C 0.48396 0.02618 0.94237 0.0
C1408 C 0.5015 0.01459 0.94937 0.0
H1409 H 0.47899 0.12787 0.98055 0.0
H1410 H 0.45682 0.09381 0.95127 0.0
H1411 H 0.45352 0.0537 0.9325 0.0
O1412 O 0.56942 0.06785 0.97944 0.0
O1413 O 0.51612 0.06101 0.02028 0.0
O1414 O 0.52886 0.03176 0.03383 0.0
O1415 O 0.57254 0.09949 1.00347 0.0
O1416 O 0.56099 0.03406 1.00256 0.0
O1417 O 0.55156 1.00866 0.03162 0.0
O1418 O 0.52195 0.03177 0.08939 0.0
O1419 O 0.58445 0.04431 0.06684 0.0
O1420 O 0.56662 0.05531 0.03687 0.0
O1421 O 0.52254 0.99898 0.06944 0.0
O1422 O 0.54251 0.06566 0.07305 0.0
O1423 O 0.55645 0.089 0.04373 0.0
C1424 C 0.51305 0.04414 0.03311 0.0
C1425 C 0.58018 0.10215 0.96302 0.0
C1426 C 0.59185 0.10233 0.92338 0.0
C1427 C 0.58684 0.12441 0.9223 0.0
C1428 C 0.575 0.12423 0.96208 0.0
C1429 C 0.57834 0.1353 0.94166 0.0
C1430 C 0.58861 0.09141 0.94364 0.0
C1431 C 0.55886 1.01326 0.01057 0.0
C1432 C 0.57864 0.08992 0.98404 0.0
C1433 C 0.47011 0.08433 0.95663 0.0
C1434 C 0.4682 0.06148 0.94599 0.0
C1435 C 0.58665 0.05579 0.04897 0.0
C1436 C 0.50528 0.99737 0.1049 0.0
C1437 C 0.49537 0.99733 0.14527 0.0
C1438 C 0.48872 0.97301 0.14145 0.0
C1439 C 0.49841 0.973 0.10121 0.0
C1440 C 0.50346 1.00955 0.12699 0.0
C1441 C 0.49019 0.96093 0.11945 0.0
C1442 C 0.54853 0.08628 0.06484 0.0
C1443 C 0.51233 1.00977 0.08492 0.0
H1444 H 0.58977 0.13323 0.90674 0.0
H1445 H 0.56869 0.13294 0.97704 0.0
H1446 H 0.5746 0.15242 0.94094 0.0
H1447 H 0.59318 0.07455 0.94446 0.0
H1448 H 0.48224 0.96342 0.15548 0.0
H1449 H 0.49911 0.96328 0.08411 0.0
H1450 H 0.50834 0.02836 0.13007 0.0
H1451 H 0.48486 0.94219 0.11649 0.0
Tb1452 Tb 0.27748 0.26345 0.26958 0.0
C1453 C 0.36241 0.33727 0.32767 0.0
N1454 N 0.34149 0.32583 0.33287 0.0
C1455 C 0.35946 0.32316 0.37236 0.0
C1456 C 0.38284 0.34129 0.34432 0.0
C1457 C 0.33968 0.31986 0.35538 0.0
C1458 C 0.38123 0.33356 0.36668 0.0
C1459 C 0.38368 0.3606 0.30116 0.0
C1460 C 0.36287 0.34694 0.30648 0.0
C1461 C 0.40435 0.36351 0.31704 0.0
C1462 C 0.40391 0.35393 0.33862 0.0
Tb1463 Tb 0.31026 0.32253 0.30365 0.0
N1464 N 0.34244 0.34427 0.29187 0.0
C1465 C 0.38282 0.37185 0.28066 0.0
C1466 C 0.3411 0.35697 0.27322 0.0
C1467 C 0.36132 0.3704 0.2669 0.0
H1468 H 0.32298 0.31372 0.36097 0.0
H1469 H 0.36024 0.37991 0.25164 0.0
H1470 H 0.26953 0.27065 0.2107 0.0
H1471 H 0.21771 0.23401 0.33112 0.0
H1472 H 0.32445 0.35694 0.2632 0.0
H1473 H 0.39841 0.38252 0.27593 0.0
H1474 H 0.25558 0.25245 0.32033 0.0
H1475 H 0.35778 0.31826 0.39007 0.0
H1476 H 0.42055 0.37385 0.31322 0.0
H1477 H 0.41978 0.35708 0.35114 0.0
H1478 H 0.23678 0.26141 0.17871 0.0
H1479 H 0.39645 0.33651 0.38005 0.0
H1480 H 0.18344 0.22186 0.30001 0.0
N1481 N 0.24878 0.26087 0.2383 0.0
C1482 C 0.22715 0.25078 0.24315 0.0
C1483 C 0.23377 0.25868 0.19681 0.0
C1484 C 0.20809 0.24404 0.22479 0.0
C1485 C 0.25231 0.26461 0.21537 0.0
C1486 C 0.21161 0.24829 0.2015 0.0
N1487 N 0.24291 0.25263 0.28391 0.0
C1488 C 0.24079 0.24817 0.30681 0.0
C1489 C 0.20227 0.23493 0.27175 0.0
C1490 C 0.22422 0.24618 0.26647 0.0
C1491 C 0.19999 0.23057 0.29528 0.0
C1492 C 0.21928 0.23743 0.31291 0.0
H1493 H 0.19743 0.2432 0.18691 0.0
H1494 H 0.17156 0.22717 0.21609 0.0
H1495 H 0.16646 0.21933 0.25714 0.0
O1496 O 0.27623 0.22991 0.27948 0.0
O1497 O 0.25445 0.28862 0.28071 0.0
O1498 O 0.27552 0.30938 0.31484 0.0
O1499 O 0.27174 0.23539 0.24245 0.0
O1500 O 0.29887 0.2633 0.30394 0.0
O1501 O 0.29712 0.29654 0.32699 0.0
O1502 O 0.29354 0.34975 0.29668 0.0
O1503 O 0.33569 0.30389 0.28693 0.0
O1504 O 0.31556 0.26853 0.26571 0.0
O1505 O 0.31629 0.35114 0.33039 0.0
O1506 O 0.29538 0.32173 0.26541 0.0
O1507 O 0.29498 0.2858 0.24547 0.0
C1508 C 0.25522 0.30223 0.30115 0.0
C1509 C 0.28287 0.20076 0.25012 0.0
C1510 C 0.31046 0.17585 0.25656 0.0
C1511 C 0.30043 0.16184 0.23502 0.0
C1512 C 0.273 0.18661 0.22862 0.0
C1513 C 0.28174 0.16722 0.22114 0.0
C1514 C 0.30159 0.19527 0.2643 0.0
C1515 C 0.29834 0.27454 0.32503 0.0
C1516 C 0.27211 0.22023 0.25732 0.0
C1517 C 0.18629 0.2327 0.23005 0.0
C1518 C 0.18339 0.22817 0.25343 0.0
C1519 C 0.33533 0.28402 0.27342 0.0
C1520 C 0.29813 0.38384 0.32577 0.0
C1521 C 0.2772 0.41413 0.31909 0.0
C1522 C 0.2879 0.42673 0.34107 0.0
C1523 C 0.30882 0.39619 0.34798 0.0
C1524 C 0.28229 0.39287 0.31147 0.0
C1525 C 0.30366 0.41763 0.35558 0.0
C1526 C 0.29718 0.30833 0.24573 0.0
C1527 C 0.3026 0.36122 0.3176 0.0
H1528 H 0.30693 0.14656 0.2291 0.0
H1529 H 0.25833 0.19049 0.21768 0.0
H1530 H 0.27395 0.1563 0.20463 0.0
H1531 H 0.30923 0.20594 0.28105 0.0
H1532 H 0.2842 0.44353 0.34682 0.0
H1533 H 0.32105 0.38929 0.3594 0.0
H1534 H 0.27399 0.38355 0.29424 0.0
H1535 H 0.31195 0.42723 0.37262 0.0
Tb1536 Tb 0.55804 0.51023 0.03103 0.0
C1537 C 0.52012 0.59071 0.0889 0.0
N1538 N 0.51143 0.57921 0.06675 0.0
C1539 C 0.47232 0.57771 0.07609 0.0
C1540 C 0.50524 0.59543 0.10584 0.0
C1541 C 0.48781 0.57381 0.05974 0.0
C1542 C 0.48107 0.58815 0.09939 0.0
C1543 C 0.55361 0.6136 0.11552 0.0
C1544 C 0.54396 0.59957 0.09383 0.0
C1545 C 0.53904 0.61727 0.13301 0.0
C1546 C 0.51491 0.60812 0.12823 0.0
Tb1547 Tb 0.53906 0.57266 0.04268 0.0
N1548 N 0.55756 0.5954 0.0766 0.0
C1549 C 0.57734 0.62437 0.11838 0.0
C1550 C 0.57974 0.60794 0.07807 0.0
C1551 C 0.5903 0.62207 0.09926 0.0
H1552 H 0.48081 0.56643 0.04155 0.0
H1553 H 0.60819 0.63153 0.10063 0.0
H1554 H 0.61598 0.52306 0.02663 0.0
H1555 H 0.48854 0.44907 0.97644 0.0
H1556 H 0.58884 0.60749 0.06259 0.0
H1557 H 0.58544 0.63546 0.13471 0.0
H1558 H 0.5097 0.4729 0.0139 0.0
H1559 H 0.45364 0.57282 0.07065 0.0
H1560 H 0.54614 0.62778 0.14997 0.0
H1561 H 0.50377 0.61171 0.14159 0.0
H1562 H 0.6409 0.51936 0.99501 0.0
H1563 H 0.46901 0.59136 0.11191 0.0
H1564 H 0.50902 0.44667 0.94049 0.0
N1565 N 0.5842 0.50693 1.00418 0.0
C1566 C 0.57474 0.49462 0.98255 0.0
C1567 C 0.62224 0.51258 0.99117 0.0
C1568 C 0.58857 0.4913 0.96418 0.0
C1569 C 0.60786 0.51507 1.00899 0.0
C1570 C 0.61254 0.5009 0.96858 0.0
N1571 N 0.53873 0.48721 0.99771 0.0
C1572 C 0.51724 0.47366 0.99752 0.0
C1573 C 0.54095 0.46971 0.95802 0.0
C1574 C 0.55126 0.48408 0.97934 0.0
C1575 C 0.51765 0.4579 0.95656 0.0
C1576 C 0.50592 0.45941 0.97669 0.0
H1577 H 0.6238 0.49875 0.95494 0.0
H1578 H 0.58852 0.47528 0.92797 0.0
H1579 H 0.54683 0.45626 0.92265 0.0
O1580 O 0.54449 0.48307 0.05036 0.0
O1581 O 0.54444 0.52556 0.99902 0.0
O1582 O 0.51985 0.54956 0.01114 0.0
O1583 O 0.57612 0.48321 0.03461 0.0
O1584 O 0.52432 0.50997 0.04475 0.0
O1585 O 0.50947 0.54267 0.03706 0.0
O1586 O 0.55326 0.59648 0.0199 0.0
O1587 O 0.55464 0.56029 0.07537 0.0
O1588 O 0.57314 0.52953 0.06613 0.0
O1589 O 0.52476 0.60209 0.03855 0.0
O1590 O 0.57032 0.56766 0.02612 0.0
O1591 O 0.58712 0.54015 0.04224 0.0
C1592 C 0.5277 0.53716 0.99423 0.0
C1593 C 0.57245 0.46459 0.06954 0.0
C1594 C 0.57147 0.43568 0.09772 0.0
C1595 C 0.5944 0.44655 0.10764 0.0
C1596 C 0.59512 0.47539 0.08026 0.0
C1597 C 0.60599 0.46634 0.09912 0.0
C1598 C 0.56046 0.44493 0.07866 0.0
C1599 C 0.50739 0.52166 0.04361 0.0
C1600 C 0.56185 0.4727 0.04795 0.0
C1601 C 0.57819 0.47791 0.94235 0.0
C1602 C 0.55444 0.46707 0.93931 0.0
C1603 C 0.56751 0.54529 0.08152 0.0
C1604 C 0.52692 0.61766 1.00219 0.0
C1605 C 0.52372 0.64726 0.97561 0.0
C1606 C 0.50283 0.63313 0.96368 0.0
C1607 C 0.50524 0.60477 0.99096 0.0
C1608 C 0.53614 0.63921 0.9946 0.0
C1609 C 0.49361 0.61209 0.97141 0.0
C1610 C 0.58869 0.56121 0.03628 0.0
C1611 C 0.53843 0.60981 0.02339 0.0
H1612 H 0.60325 0.43996 0.12236 0.0
H1613 H 0.60462 0.49061 0.07381 0.0
H1614 H 0.62357 0.47464 0.10709 0.0
H1615 H 0.54291 0.43653 0.07057 0.0
H1616 H 0.49294 0.63905 0.94917 0.0
H1617 H 0.49692 0.58954 0.99808 0.0
H1618 H 0.55205 0.65015 1.00422 0.0
H1619 H 0.4769 0.60193 0.96285 0.0
Tb1620 Tb 0.8048 0.32626 0.27434 0.0
C1621 C 0.75719 0.24277 0.33141 0.0
N1622 N 0.78056 0.25162 0.3337 0.0
C1623 C 0.78283 0.25109 0.37618 0.0
C1624 C 0.74539 0.23985 0.35164 0.0
C1625 C 0.7937 0.25286 0.35542 0.0
C1626 C 0.75845 0.24556 0.37432 0.0
C1627 C 0.72384 0.21778 0.3066 0.0
C1628 C 0.74632 0.23219 0.30908 0.0
C1629 C 0.71086 0.21767 0.326 0.0
C1630 C 0.72162 0.22889 0.34857 0.0
Tb1631 Tb 0.79472 0.25781 0.29804 0.0
N1632 N 0.7596 0.23224 0.29095 0.0
C1633 C 0.71625 0.20211 0.28567 0.0
C1634 C 0.75395 0.21449 0.27255 0.0
C1635 C 0.73186 0.19971 0.26906 0.0
H1636 H 0.81257 0.25677 0.35689 0.0
H1637 H 0.7271 0.18626 0.25388 0.0
H1638 H 0.79494 0.32707 0.21443 0.0
H1639 H 0.87069 0.38275 0.33873 0.0
H1640 H 0.76667 0.21133 0.26098 0.0
H1641 H 0.69925 0.19051 0.28315 0.0
H1642 H 0.833 0.35556 0.32515 0.0
H1643 H 0.79326 0.2538 0.39354 0.0
H1644 H 0.69325 0.20737 0.32423 0.0
H1645 H 0.71209 0.22708 0.36384 0.0
H1646 H 0.81902 0.33747 0.18258 0.0
H1647 H 0.75009 0.24368 0.39035 0.0
H1648 H 0.89871 0.39252 0.30984 0.0
N1649 N 0.82361 0.33692 0.24248 0.0
C1650 C 0.84608 0.34886 0.24866 0.0
C1651 C 0.82693 0.34046 0.20106 0.0
C1652 C 0.86016 0.3561 0.23107 0.0
C1653 C 0.81344 0.3343 0.21917 0.0
C1654 C 0.85055 0.35092 0.20699 0.0
N1655 N 0.8397 0.34985 0.28918 0.0
C1656 C 0.84506 0.3597 0.31249 0.0
C1657 C 0.87608 0.37115 0.27973 0.0
C1658 C 0.85415 0.35608 0.27274 0.0
C1659 C 0.88214 0.38065 0.30381 0.0
C1660 C 0.86636 0.37521 0.32018 0.0
H1661 H 0.86085 0.35606 0.19295 0.0
H1662 H 0.89406 0.37481 0.22482 0.0
H1663 H 0.90787 0.38823 0.26741 0.0
O1664 O 0.78304 0.34525 0.29153 0.0
O1665 O 0.83712 0.31346 0.28989 0.0
O1666 O 0.83126 0.27836 0.30804 0.0
O1667 O 0.80157 0.35874 0.26398 0.0
O1668 O 0.80249 0.31839 0.31034 0.0
O1669 O 0.80353 0.28472 0.32797 0.0
O1670 O 0.81632 0.24159 0.27702 0.0
O1671 O 0.76272 0.26813 0.2801 0.0
O1672 O 0.76721 0.30545 0.26639 0.0
O1673 O 0.79885 0.22443 0.30342 0.0
O1674 O 0.79922 0.2813 0.27294 0.0
O1675 O 0.79865 0.30044 0.24331 0.0
C1676 C 0.84499 0.29714 0.30169 0.0
C1677 C 0.76564 0.36923 0.2678 0.0
C1678 C 0.74086 0.39774 0.26563 0.0
C1679 C 0.72711 0.38384 0.24564 0.0
C1680 C 0.75189 0.35577 0.24757 0.0
C1681 C 0.7327 0.36307 0.23663 0.0
C1682 C 0.76013 0.39032 0.27686 0.0
C1683 C 0.80213 0.30662 0.32869 0.0
C1684 C 0.78655 0.36202 0.27844 0.0
C1685 C 0.88287 0.36939 0.23809 0.0
C1686 C 0.89074 0.37707 0.26235 0.0
C1687 C 0.7541 0.28507 0.27021 0.0
C1688 C 0.83594 0.21824 0.30028 0.0
C1689 C 0.86358 0.19259 0.30233 0.0
C1690 C 0.87341 0.20414 0.32515 0.0
C1691 C 0.84573 0.22922 0.32334 0.0
C1692 C 0.84498 0.19993 0.28973 0.0
C1693 C 0.86457 0.22241 0.33552 0.0
C1694 C 0.79867 0.28053 0.24995 0.0
C1695 C 0.81443 0.22389 0.28903 0.0
H1696 H 0.71244 0.38947 0.23654 0.0
H1697 H 0.75628 0.33984 0.23999 0.0
H1698 H 0.72251 0.35295 0.22071 0.0
H1699 H 0.77116 0.40122 0.292 0.0
H1700 H 0.88787 0.19889 0.33508 0.0
H1701 H 0.83875 0.24307 0.33196 0.0
H1702 H 0.83691 0.19078 0.27238 0.0
H1703 H 0.87209 0.23107 0.35318 0.0
Tb1704 Tb 0.04761 0.56396 0.51179 0.0
C1705 C 0.08346 0.50271 0.59891 0.0
N1706 N 0.06494 0.49589 0.58158 0.0
C1707 C 0.07139 0.45695 0.57815 0.0
C1708 C 0.09702 0.48692 0.60637 0.0
C1709 C 0.05861 0.47331 0.57125 0.0
C1710 C 0.09075 0.46379 0.59573 0.0
C1711 C 0.10902 0.53382 0.62599 0.0
C1712 C 0.08927 0.52576 0.60856 0.0
C1713 C 0.12252 0.51819 0.63367 0.0
C1714 C 0.11655 0.49478 0.62385 0.0
Tb1715 Tb 0.04628 0.52384 0.56972 0.0
N1716 N 0.0763 0.54046 0.59993 0.0
C1717 C 0.11502 0.55745 0.6347 0.0
C1718 C 0.08282 0.56376 0.60788 0.0
C1719 C 0.10188 0.57247 0.62553 0.0
H1720 H 0.04379 0.46784 0.55748 0.0
H1721 H 0.10672 0.59091 0.63168 0.0
H1722 H 0.04672 0.61976 0.5241 0.0
H1723 H 0.9952 0.49694 0.44332 0.0
H1724 H 0.07422 0.57623 0.60046 0.0
H1725 H 0.13004 0.56433 0.64808 0.0
H1726 H 0.02641 0.51256 0.47572 0.0
H1727 H 0.0664 0.43912 0.56977 0.0
H1728 H 0.13779 0.5241 0.64694 0.0
H1729 H 0.12726 0.48295 0.62974 0.0
H1730 H 0.02242 0.64694 0.51122 0.0
H1731 H 0.10077 0.45114 0.60089 0.0
H1732 H 0.96892 0.52161 0.42839 0.0
N1733 N 0.02643 0.59069 0.50079 0.0
C1734 C 1.0086 0.58318 0.48261 0.0
C1735 C 1.01818 0.62899 0.50318 0.0
C1736 C 0.99436 0.59817 0.47456 0.0
C1737 C 0.03174 0.61345 0.51062 0.0
C1738 C 0.99923 0.62126 0.48526 0.0
N1739 N 0.01908 0.54662 0.48016 0.0
C1740 C 1.01578 0.52405 0.46975 0.0
C1741 C 0.98657 0.55201 0.45287 0.0
C1742 C 1.00508 0.56057 0.47155 0.0
C1743 C 0.98302 0.52887 0.44268 0.0
C1744 C 0.99778 0.5149 0.45109 0.0
H1745 H 0.98875 0.63334 0.47954 0.0
H1746 H 0.96471 0.60097 0.44965 0.0
H1747 H 0.95765 0.56041 0.43092 0.0
O1748 O 0.07205 0.55924 0.48844 0.0
O1749 O 1.01176 0.54926 0.51491 0.0
O1750 O 0.03388 0.53808 0.54099 0.0
O1751 O 0.06821 0.59358 0.50174 0.0
O1752 O 0.05646 0.52876 0.50655 0.0
O1753 O 0.04625 0.50233 0.53425 0.0
O1754 O 0.02338 0.52471 0.59528 0.0
O1755 O 0.07951 0.53287 0.55768 0.0
O1756 O 0.07192 0.56595 0.54457 0.0
O1757 O 1.01761 0.49591 0.56702 0.0
O1758 O 0.03842 0.55946 0.57853 0.0
O1759 O 0.04558 0.58343 0.54756 0.0
C1760 C 1.01282 0.53742 0.53216 0.0
C1761 C 0.07502 0.58672 0.462 0.0
C1762 C 0.09044 0.58626 0.42461 0.0
C1763 C 0.07201 0.59541 0.41445 0.0
C1764 C 0.05677 0.59652 0.4522 0.0
C1765 C 0.05499 0.60035 0.42829 0.0
C1766 C 0.09167 0.58141 0.44805 0.0
C1767 C 0.0537 0.50752 0.51344 0.0
C1768 C 0.07708 0.58127 0.48638 0.0
C1769 C 0.97595 0.58976 0.45593 0.0
C1770 C 0.972 0.5667 0.44518 0.0
C1771 C 0.08608 0.55155 0.54768 0.0
C1772 C 1.00392 0.48845 0.60386 0.0
C1773 C 0.9933 0.48299 0.64334 0.0
C1774 C 0.98789 0.45882 0.63658 0.0
C1775 C 0.99845 0.46429 0.59723 0.0
C1776 C 1.00111 0.49768 0.62688 0.0
C1777 C 0.99047 0.44957 0.61361 0.0
C1778 C 0.03985 0.57976 0.56947 0.0
C1779 C 1.01074 0.50434 0.58655 0.0
H1780 H 0.07133 0.59947 0.39622 0.0
H1781 H 0.04424 0.60173 0.46289 0.0
H1782 H 0.04091 0.60783 0.42076 0.0
H1783 H 0.10621 0.5745 0.45574 0.0
H1784 H 0.98139 0.44713 0.64897 0.0
H1785 H 1.00004 0.45679 0.57937 0.0
H1786 H 1.00505 0.51633 0.63209 0.0
H1787 H 0.98611 0.43097 0.60844 0.0
Tb1788 Tb 0.82347 0.77897 0.28784 0.0
C1789 C 0.74269 0.81838 0.23572 0.0
N1790 N 0.75862 0.82864 0.25484 0.0
C1791 C 0.7623 0.86526 0.23944 0.0
C1792 C 0.73609 0.8312 0.21751 0.0
C1793 C 0.76834 0.85183 0.25705 0.0
C1794 C 0.74615 0.8549 0.21955 0.0
C1795 C 0.71669 0.78349 0.21471 0.0
C1796 C 0.73307 0.79484 0.23435 0.0
C1797 C 0.71006 0.79619 0.19649 0.0
C1798 C 0.71971 0.81998 0.1979 0.0
Tb1799 Tb 0.76633 0.80485 0.28245 0.0
N1800 N 0.74034 0.78297 0.25202 0.0
C1801 C 0.7075 0.75972 0.214 0.0
C1802 C 0.73071 0.76005 0.25193 0.0
C1803 C 0.71444 0.748 0.23277 0.0
H1804 H 0.78027 0.86023 0.2727 0.0
H1805 H 0.70712 0.72972 0.23259 0.0
H1806 H 0.81308 0.72338 0.29624 0.0
H1807 H 0.882 0.85514 0.33694 0.0
H1808 H 0.7354 0.75098 0.26654 0.0
H1809 H 0.69489 0.75034 0.19919 0.0
H1810 H 0.85376 0.83329 0.30338 0.0
H1811 H 0.76997 0.88363 0.24132 0.0
H1812 H 0.69748 0.78778 0.18124 0.0
H1813 H 0.71441 0.82954 0.18372 0.0
H1814 H 0.82495 0.70005 0.32717 0.0
H1815 H 0.74149 0.86538 0.20596 0.0
H1816 H 0.89566 0.83482 0.36999 0.0
N1817 N 0.83387 0.75525 0.3143 0.0
C1818 C 0.84955 0.76587 0.33347 0.0
C1819 C 0.83194 0.71856 0.32919 0.0
C1820 C 0.85702 0.75318 0.35141 0.0
C1821 C 0.82508 0.73188 0.31181 0.0
C1822 C 0.84792 0.72926 0.34911 0.0
N1823 N 0.84989 0.8013 0.31778 0.0
C1824 C 0.85888 0.82437 0.31786 0.0
C1825 C 0.87463 0.80127 0.35453 0.0
C1826 C 0.85814 0.78961 0.3351 0.0
C1827 C 0.88305 0.82518 0.35531 0.0
C1828 C 0.87527 0.83674 0.33677 0.0
H1829 H 0.8532 0.71888 0.36253 0.0
H1830 H 0.8791 0.75533 0.38505 0.0
H1831 H 0.89453 0.79742 0.38776 0.0
O1832 O 0.84698 0.78985 0.26372 0.0
O1833 O 0.81308 0.79308 0.3226 0.0
O1834 O 0.79325 0.82109 0.31224 0.0
O1835 O 0.84463 0.75634 0.27589 0.0
O1836 O 0.82216 0.80888 0.26797 0.0
O1837 O 0.79935 0.83034 0.28683 0.0
O1838 O 0.73874 0.79495 0.30342 0.0
O1839 O 0.77748 0.79055 0.24832 0.0
O1840 O 0.79532 0.76156 0.25976 0.0
O1841 O 0.7472 0.8296 0.29268 0.0
O1842 O 0.76691 0.77486 0.3023 0.0
O1843 O 0.79073 0.75271 0.28559 0.0
C1844 C 0.80277 0.81044 0.32864 0.0
C1845 C 0.88109 0.77434 0.26484 0.0
C1846 C 0.91679 0.78136 0.24556 0.0
C1847 C 0.92983 0.7799 0.26741 0.0
C1848 C 0.89454 0.77297 0.2864 0.0
C1849 C 0.91875 0.7757 0.28761 0.0
C1850 C 0.89228 0.77853 0.24442 0.0
C1851 C 0.8163 0.82878 0.27383 0.0
C1852 C 0.85541 0.77105 0.26315 0.0
C1853 C 0.87322 0.76476 0.37102 0.0
C1854 C 0.88203 0.78874 0.37256 0.0
C1855 C 0.78577 0.77171 0.24294 0.0
C1856 C 0.71549 0.82336 0.31671 0.0
C1857 C 0.685 0.81786 0.34302 0.0
C1858 C 0.68179 0.84048 0.3407 0.0
C1859 C 0.71174 0.84588 0.31475 0.0
C1860 C 0.70209 0.80928 0.33111 0.0
C1861 C 0.69507 0.85434 0.3267 0.0
C1862 C 0.77274 0.75472 0.29717 0.0
C1863 C 0.7341 0.81567 0.30431 0.0
H1864 H 0.94859 0.78138 0.26874 0.0
H1865 H 0.88635 0.76958 0.30224 0.0
H1866 H 0.92899 0.77432 0.30423 0.0
H1867 H 0.88193 0.77949 0.22769 0.0
H1868 H 0.66881 0.84742 0.34973 0.0
H1869 H 0.7218 0.85715 0.304 0.0
H1870 H 0.70471 0.79187 0.33283 0.0
H1871 H 0.69239 0.87172 0.32507 0.0
Tb1872 Tb 0.78401 0.29247 0.81404 0.0
C1873 C 0.84248 0.25411 0.7249 0.0
N1874 N 0.84946 0.27082 0.74401 0.0
C1875 C 0.88673 0.25988 0.74961 0.0
C1876 C 0.85707 0.23902 0.71792 0.0
C1877 C 0.87157 0.27432 0.75595 0.0
C1878 C 0.87936 0.24197 0.73069 0.0
C1879 C 0.81242 0.23479 0.6926 0.0
C1880 C 0.82056 0.25212 0.71232 0.0
C1881 C 0.82667 0.21939 0.68585 0.0
C1882 C 0.84896 0.22153 0.69846 0.0
Tb1883 Tb 0.82248 0.29209 0.75403 0.0
N1884 N 0.80695 0.26679 0.71999 0.0
C1885 C 0.79017 0.23341 0.68032 0.0
C1886 C 0.78568 0.26618 0.70726 0.0
C1887 C 0.77689 0.24938 0.68751 0.0
H1888 H 0.87772 0.28836 0.77036 0.0
H1889 H 0.75987 0.24882 0.67782 0.0
H1890 H 0.73279 0.3033 0.79535 0.0
H1891 H 0.84217 0.32923 0.89549 0.0
H1892 H 0.77529 0.27855 0.71187 0.0
H1893 H 0.78324 0.22031 0.6651 0.0
H1894 H 0.82167 0.29768 0.86405 0.0
H1895 H 0.90409 0.26258 0.75935 0.0
H1896 H 0.82065 0.20585 0.67085 0.0
H1897 H 0.85983 0.20961 0.69297 0.0
H1898 H 0.7114 0.33501 0.80128 0.0
H1899 H 0.89109 0.23072 0.72591 0.0
H1900 H 0.82956 0.36686 0.89911 0.0
N1901 N 0.76215 0.32005 0.82028 0.0
C1902 C 0.77141 0.33846 0.8371 0.0
C1903 C 0.72844 0.33636 0.8113 0.0
C1904 C 0.76012 0.35715 0.84106 0.0
C1905 C 0.74063 0.31844 0.80783 0.0
C1906 C 0.73838 0.35599 0.82774 0.0
N1907 N 0.80078 0.31851 0.84729 0.0
C1908 C 0.81731 0.31456 0.86426 0.0
C1909 C 0.80194 0.356 0.86932 0.0
C1910 C 0.79189 0.33788 0.85083 0.0
C1911 C 0.82118 0.35334 0.88471 0.0
C1912 C 0.82842 0.33218 0.88264 0.0
H1913 H 0.72895 0.36987 0.83037 0.0
H1914 H 0.76248 0.39073 0.86164 0.0
H1915 H 0.79931 0.38979 0.8864 0.0
O1916 O 0.78253 0.26993 0.83947 0.0
O1917 O 0.79219 0.32457 0.79883 0.0
O1918 O 0.82407 0.31426 0.78708 0.0
O1919 O 0.75117 0.27107 0.81668 0.0
O1920 O 0.8207 0.28655 0.8224 0.0
O1921 O 0.84276 0.2887 0.78943 0.0
O1922 O 0.81927 0.31812 0.73218 0.0
O1923 O 0.80618 0.25632 0.75578 0.0
O1924 O 0.79842 0.27601 0.78625 0.0
O1925 O 0.8531 0.3133 0.74664 0.0
O1926 O 0.78603 0.29995 0.74965 0.0
O1927 O 0.76341 0.28345 0.77797 0.0
C1928 C 0.81161 0.32996 0.78968 0.0
C1929 C 0.74753 0.25836 0.85519 0.0
C1930 C 0.74803 0.24285 0.89321 0.0
C1931 C 0.72364 0.24054 0.89159 0.0
C1932 C 0.72319 0.25581 0.85351 0.0
C1933 C 0.71138 0.24738 0.87197 0.0
C1934 C 0.75979 0.2528 0.87553 0.0
C1935 C 0.84037 0.28596 0.81242 0.0
C1936 C 0.76013 0.26221 0.83458 0.0
C1937 C 0.77068 0.376 0.85849 0.0
C1938 C 0.79168 0.37549 0.87253 0.0
C1939 C 0.7964 0.25546 0.77483 0.0
C1940 C 0.84962 0.32538 0.70843 0.0
C1941 C 0.84689 0.34174 0.67116 0.0
C1942 C 0.86516 0.33159 0.66409 0.0
C1943 C 0.86762 0.31477 0.70118 0.0
C1944 C 0.83926 0.33864 0.69327 0.0
C1945 C 0.87534 0.31794 0.67904 0.0
C1946 C 0.76544 0.29241 0.75742 0.0
C1947 C 0.84176 0.32379 0.73193 0.0
H1948 H 0.71395 0.23264 0.90488 0.0
H1949 H 0.71329 0.25958 0.8377 0.0
H1950 H 0.69256 0.24516 0.87057 0.0
H1951 H 0.77863 0.25485 0.87697 0.0
H1952 H 0.87136 0.33407 0.64703 0.0
H1953 H 0.87586 0.3043 0.7126 0.0
H1954 H 0.82552 0.34703 0.69892 0.0
H1955 H 0.88932 0.30996 0.67355 0.0
Tb1956 Tb 0.78231 0.76684 0.77351 0.0
C1957 C 0.8619 0.84507 0.82879 0.0
N1958 N 0.84183 0.83158 0.83361 0.0
C1959 C 0.85905 0.83286 0.8743 0.0
C1960 C 0.8812 0.85322 0.84668 0.0
C1961 C 0.84028 0.82539 0.85609 0.0
C1962 C 0.87951 0.84704 0.86966 0.0
C1963 C 0.88443 0.86271 0.7995 0.0
C1964 C 0.86341 0.84998 0.80547 0.0
C1965 C 0.90323 0.87183 0.81752 0.0
C1966 C 0.90161 0.8671 0.84105 0.0
Tb1967 Tb 0.81107 0.82796 0.80404 0.0
N1968 N 0.845 0.84049 0.78838 0.0
C1969 C 0.88623 0.86516 0.77546 0.0
C1970 C 0.84735 0.84158 0.76479 0.0
C1971 C 0.86782 0.85405 0.75801 0.0
H1972 H 0.82429 0.81611 0.86074 0.0
H1973 H 0.8694 0.85502 0.73927 0.0
H1974 H 0.77564 0.76078 0.71373 0.0
H1975 H 0.72759 0.71954 0.83002 0.0
H1976 H 0.834 0.83249 0.75101 0.0
H1977 H 0.90209 0.87478 0.77013 0.0
H1978 H 0.7642 0.74071 0.81865 0.0
H1979 H 0.85744 0.8282 0.89211 0.0
H1980 H 0.91936 0.88199 0.81332 0.0
H1981 H 0.91646 0.87383 0.85466 0.0
H1982 H 0.74332 0.74883 0.68061 0.0
H1983 H 0.89391 0.85304 0.88392 0.0
H1984 H 0.6912 0.71222 0.8016 0.0
N1985 N 0.75351 0.75685 0.7411 0.0
C1986 C 0.73177 0.74737 0.74599 0.0
C1987 C 0.73969 0.74884 0.69894 0.0
C1988 C 0.7129 0.73944 0.72756 0.0
C1989 C 0.75788 0.75613 0.71779 0.0
C1990 C 0.71697 0.74107 0.70387 0.0
N1991 N 0.74863 0.748 0.78565 0.0
C1992 C 0.7484 0.73884 0.80678 0.0
C1993 C 0.70799 0.72969 0.77432 0.0
C1994 C 0.72933 0.74242 0.76903 0.0
C1995 C 0.7072 0.72217 0.79689 0.0
C1996 C 0.72767 0.72628 0.81299 0.0
H1997 H 0.70299 0.735 0.6892 0.0
H1998 H 0.67635 0.72248 0.71923 0.0
H1999 H 0.67203 0.71402 0.76027 0.0
O2000 O 0.80058 0.74098 0.78464 0.0
O2001 O 0.75641 0.78434 0.79093 0.0
O2002 O 0.77167 0.82362 0.80264 0.0
O2003 O 0.77691 0.73589 0.75141 0.0
O2004 O 0.79775 0.77012 0.81165 0.0
O2005 O 0.79322 0.80566 0.82779 0.0
O2006 O 0.81613 0.86328 0.79999 0.0
O2007 O 0.83411 0.80205 0.79816 0.0
O2008 O 0.81785 0.77983 0.76301 0.0
O2009 O 0.81239 0.85172 0.83451 0.0
O2010 O 0.79595 0.83001 0.76699 0.0
O2011 O 0.78928 0.79232 0.7476 0.0
C2012 C 0.75367 0.80543 0.79932 0.0
C2013 C 0.79315 0.70358 0.75875 0.0
C2014 C 0.81497 0.67378 0.76323 0.0
C2015 C 0.80077 0.65957 0.74373 0.0
C2016 C 0.77857 0.68937 0.73926 0.0
C2017 C 0.7824 0.66737 0.73184 0.0
C2018 C 0.81106 0.69556 0.77092 0.0
C2019 C 0.79385 0.78392 0.82992 0.0
C2020 C 0.79043 0.72713 0.76538 0.0
C2021 C 0.69108 0.72844 0.73312 0.0
C2022 C 0.68863 0.72358 0.75649 0.0
C2023 C 0.8368 0.78939 0.77821 0.0
C2024 C 0.80674 0.88908 0.83029 0.0
C2025 C 0.78375 0.9173 0.82126 0.0
C2026 C 0.79285 0.93035 0.84369 0.0
C2027 C 0.81547 0.90186 0.85273 0.0
C2028 C 0.79058 0.89652 0.81475 0.0
C2029 C 0.80843 0.92244 0.85945 0.0
C2030 C 0.79118 0.81501 0.74727 0.0
C2031 C 0.81664 0.86941 0.82282 0.0
H2032 H 0.80384 0.64252 0.73789 0.0
H2033 H 0.76442 0.69532 0.7296 0.0
H2034 H 0.7713 0.6565 0.71681 0.0
H2035 H 0.82237 0.70641 0.78594 0.0
H2036 H 0.78829 0.94688 0.84888 0.0
H2037 H 0.82819 0.89619 0.86478 0.0
H2038 H 0.78372 0.88644 0.79749 0.0
H2039 H 0.81545 0.93252 0.87662 0.0
Tb2040 Tb 0.57208 0.55269 0.55367 0.0
C2041 C 0.50288 0.47457 0.49412 0.0
N2042 N 0.51334 0.4959 0.48914 0.0
C2043 C 0.51648 0.47946 0.44933 0.0
C2044 C 0.49899 0.45485 0.4768 0.0
C2045 C 0.5198 0.49859 0.46692 0.0
C2046 C 0.50603 0.45751 0.45426 0.0
C2047 C 0.48474 0.45073 0.52225 0.0
C2048 C 0.49573 0.47254 0.51665 0.0
C2049 C 0.48084 0.43112 0.50498 0.0
C2050 C 0.48787 0.43318 0.48233 0.0
Tb2051 Tb 0.51306 0.52574 0.51811 0.0
N2052 N 0.49931 0.49198 0.5329 0.0
C2053 C 0.47747 0.44935 0.54486 0.0
C2054 C 0.49086 0.49083 0.55436 0.0
C2055 C 0.48042 0.46952 0.56092 0.0
H2056 H 0.52631 0.51551 0.46201 0.0
H2057 H 0.47389 0.46879 0.57803 0.0
H2058 H 0.5601 0.56657 0.60946 0.0
H2059 H 0.629 0.60071 0.49914 0.0
H2060 H 0.4907 0.50626 0.56591 0.0
H2061 H 0.46892 0.43292 0.54983 0.0
H2062 H 0.60521 0.56591 0.51082 0.0
H2063 H 0.52146 0.48177 0.43175 0.0
H2064 H 0.47217 0.41429 0.5089 0.0
H2065 H 0.48452 0.4179 0.46914 0.0
H2066 H 0.56717 0.60135 0.63877 0.0
H2067 H 0.50316 0.4428 0.44042 0.0
H2068 H 0.63518 0.6383 0.52493 0.0
N2069 N 0.57628 0.58394 0.58246 0.0
C2070 C 0.58967 0.60402 0.57762 0.0
C2071 C 0.57323 0.60245 0.62146 0.0
C2072 C 0.59482 0.62426 0.59437 0.0
C2073 C 0.56868 0.58277 0.60439 0.0
C2074 C 0.58616 0.62334 0.61637 0.0
N2075 N 0.59438 0.58395 0.54077 0.0
C2076 C 0.606 0.58238 0.52122 0.0
C2077 C 0.61361 0.62423 0.55081 0.0
C2078 C 0.59898 0.60402 0.5561 0.0
C2079 C 0.62381 0.62317 0.52962 0.0
C2080 C 0.62026 0.60204 0.51495 0.0
H2081 H 0.58988 0.63847 0.62977 0.0
H2082 H 0.61302 0.6603 0.60155 0.0
H2083 H 0.62942 0.66027 0.5634 0.0
O2084 O 0.60122 0.53846 0.54744 0.0
O2085 O 0.55332 0.5801 0.54165 0.0
O2086 O 0.5208 0.56394 0.51388 0.0
O2087 O 0.5988 0.55703 0.58238 0.0
O2088 O 0.57092 0.53805 0.51532 0.0
O2089 O 0.53695 0.54423 0.49619 0.0
O2090 O 0.47814 0.52408 0.52339 0.0
O2091 O 0.53867 0.50244 0.52622 0.0
O2092 O 0.55768 0.51752 0.56298 0.0
O2093 O 0.4879 0.52142 0.48788 0.0
O2094 O 0.51218 0.54389 0.55453 0.0
O2095 O 0.54552 0.53836 0.57562 0.0
C2096 C 0.53599 0.58247 0.52558 0.0
C2097 C 0.6339 0.54263 0.57857 0.0
C2098 C 0.66892 0.52949 0.57048 0.0
C2099 C 0.67971 0.53928 0.59361 0.0
C2100 C 0.64456 0.55236 0.60169 0.0
C2101 C 0.6674 0.55046 0.60924 0.0
C2102 C 0.64588 0.53073 0.56339 0.0
C2103 C 0.55902 0.54331 0.49623 0.0
C2104 C 0.61111 0.54627 0.56927 0.0
C2105 C 0.6089 0.64459 0.5889 0.0
C2106 C 0.61823 0.64458 0.56716 0.0
C2107 C 0.54905 0.49913 0.54719 0.0
C2108 C 0.45346 0.53463 0.49272 0.0
C2109 C 0.4295 0.56246 0.5013 0.0
C2110 C 0.41678 0.55601 0.47844 0.0
C2111 C 0.4408 0.52818 0.46978 0.0
C2112 C 0.44785 0.55194 0.50839 0.0
C2113 C 0.42255 0.53894 0.46265 0.0
C2114 C 0.52421 0.542 0.57502 0.0
C2115 C 0.47089 0.52163 0.50059 0.0
H2116 H 0.69769 0.53865 0.59947 0.0
H2117 H 0.63546 0.56174 0.61371 0.0
H2118 H 0.67572 0.55807 0.62699 0.0
H2119 H 0.63734 0.52273 0.54576 0.0
H2120 H 0.40217 0.56384 0.47306 0.0
H2121 H 0.44475 0.51453 0.45761 0.0
H2122 H 0.45721 0.55684 0.52632 0.0
H2123 H 0.41261 0.53372 0.44508 0.0
Tb2124 Tb 0.02159 0.54928 0.05206 0.0
C2125 C 0.10357 0.59418 1.00027 0.0
N2126 N 0.08896 0.57299 0.99353 0.0
C2127 C 0.0853 0.58067 0.9527 0.0
C2128 C 0.10896 0.60965 0.9834 0.0
C2129 C 0.08053 0.56577 0.96994 0.0
C2130 C 0.09938 0.60275 0.95946 0.0
C2131 C 0.1283 0.62227 0.03172 0.0
C2132 C 0.11333 0.60048 0.02426 0.0
C2133 C 0.13347 0.6377 0.0149 0.0
C2134 C 0.12383 0.63142 0.99086 0.0
Tb2135 Tb 0.08371 0.55127 0.02426 0.0
N2136 N 0.10711 0.58565 0.04048 0.0
C2137 C 0.13756 0.62791 0.05591 0.0
C2138 C 0.11703 0.59048 0.06375 0.0
C2139 C 0.13211 0.61184 0.07192 0.0
H2140 H 0.07057 0.54841 0.96401 0.0
H2141 H 0.13971 0.61583 0.09048 0.0
H2142 H 0.03503 0.54823 0.11141 0.0
H2143 H 0.95016 0.49909 0.9891 0.0
H2144 H 0.1136 0.57779 0.07582 0.0
H2145 H 0.14918 0.64448 0.06233 0.0
H2146 H 0.98213 0.53273 1.00444 0.0
H2147 H 0.07836 0.57498 0.93411 0.0
H2148 H 0.14492 0.65455 0.0203 0.0
H2149 H 0.12809 0.64353 0.97812 0.0
H2150 H 0.02533 0.52079 0.14013 0.0
H2151 H 0.1031 0.61416 0.94598 0.0
H2152 H 0.93892 0.46848 0.01485 0.0
N2153 N 1.01268 0.52688 0.08184 0.0
C2154 C 0.99525 0.50778 0.07519 0.0
C2155 C 1.01696 0.51675 0.12181 0.0
C2156 C 0.98868 0.49187 0.09134 0.0
C2157 C 0.02274 0.53211 0.10519 0.0
C2158 C 1.00014 0.49635 0.11477 0.0
N2159 N 0.99048 0.52014 0.03722 0.0
C2160 C 0.9781 0.51897 0.01524 0.0
C2161 C 0.96492 0.4853 0.04465 0.0
C2162 C 0.98349 0.50452 0.05223 0.0
C2163 C 0.95321 0.48305 0.02143 0.0
C2164 C 0.9596 0.50019 1.00679 0.0
H2165 H 0.99565 0.48453 0.12772 0.0
H2166 H 0.96557 0.45971 0.09578 0.0
H2167 H 0.94478 0.45393 0.05485 0.0
O2168 O 0.99778 0.56833 0.0371 0.0
O2169 O 0.02731 0.51356 0.03752 0.0
O2170 O 0.06174 0.5145 0.01897 0.0
O2171 O 1.00383 0.56698 0.07511 0.0
O2172 O 0.03253 0.55858 0.01814 0.0
O2173 O 0.05436 0.5376 0.9981 0.0
O2174 O 0.11246 0.5396 0.04086 0.0
O2175 O 0.07148 0.58476 0.0344 0.0
O2176 O 0.04815 0.58142 0.06478 0.0
O2177 O 0.1088 0.54324 1.0033 0.0
O2178 O 0.07176 0.53579 0.05433 0.0
O2179 O 0.05292 0.55665 0.07765 0.0
C2180 C 0.04192 0.50286 0.02583 0.0
C2181 C 0.96747 0.57452 0.06064 0.0
C2182 C 0.93478 0.59429 0.05778 0.0
C2183 C 0.92302 0.57873 0.07171 0.0
C2184 C 0.95527 0.55891 0.07432 0.0
C2185 C 0.93323 0.56116 0.07992 0.0
C2186 C 0.9571 0.59223 0.05233 0.0
C2187 C 0.03451 0.54357 1.00028 0.0
C2188 C 0.99214 0.57473 0.05806 0.0
C2189 C 0.97067 0.47226 0.0837 0.0
C2190 C 0.9588 0.469 0.06042 0.0
C2191 C 0.06133 0.59429 0.05171 0.0
C2192 C 0.12517 0.5125 0.01431 0.0
C2193 C 0.15172 0.48573 0.01452 0.0
C2194 C 0.1354 0.46988 0.99782 0.0
C2195 C 0.10929 0.49651 0.99729 0.0
C2196 C 0.14654 0.5071 0.02299 0.0
C2197 C 0.11457 0.4755 0.98894 0.0
C2198 C 0.07081 0.54732 0.07455 0.0
C2199 C 0.12042 0.53567 0.02054 0.0
H2200 H 0.90594 0.5803 0.07636 0.0
H2201 H 0.96306 0.54542 0.08131 0.0
H2202 H 0.92415 0.54941 0.09089 0.0
H2203 H 0.96647 0.60455 0.04204 0.0
H2204 H 0.13937 0.45358 0.99069 0.0
H2205 H 0.09318 0.50068 0.98967 0.0
H2206 H 0.15946 0.51983 0.03511 0.0
H2207 H 0.10273 0.46371 0.97513 0.0
H2208 H 0.99978 0.18912 0.9545 0.0
H2209 H 0.04461 0.23618 0.01214 0.0
H2210 H 0.0545 0.20282 0.0304 0.0
H2211 H 0.97823 0.14489 0.99398 0.0
H2212 H 0.97661 0.12097 0.97103 0.0
H2213 H 0.97327 0.14875 0.96282 0.0
H2214 H 1.00663 0.14693 0.93662 0.0
H2215 H 1.01018 0.11959 0.94624 0.0
H2216 H 0.03476 0.14381 0.95037 0.0
H2217 H 0.05935 0.16399 0.0442 0.0
H2218 H 0.0587 0.12408 0.05209 0.0
H2219 H 1.012 0.09827 0.98633 0.0
C2220 C 1.01182 0.19249 0.97089 0.0
C2221 C 0.02136 0.21618 0.98155 0.0
C2222 C 0.03676 0.2189 1.00326 0.0
C2223 C 0.04262 0.19976 0.01392 0.0
C2224 C 0.03293 0.177 1.00326 0.0
C2225 C 1.01775 0.17315 0.98222 0.0
C2226 C 1.00922 0.14657 0.97538 0.0
C2227 C 0.98274 0.13993 0.97586 0.0
C2228 C 1.01558 0.13877 0.95067 0.0
C2229 C 0.02249 0.13616 0.9953 0.0
C2230 C 0.03587 0.15435 0.01123 0.0
C2231 C 0.04909 0.14979 0.03152 0.0
C2232 C 0.04887 0.12656 0.03577 0.0
C2233 C 0.0361 0.10692 0.01983 0.0
C2234 C 0.0224 0.11225 0.99914 0.0
H2235 H 0.14462 0.77603 0.16718 0.0
H2236 H 0.15823 0.85073 0.16822 0.0
H2237 H 0.19514 0.85414 0.19516 0.0
H2238 H 0.16657 0.77652 0.22962 0.0
H2239 H 0.17931 0.75136 0.22469 0.0
H2240 H 0.15446 0.75443 0.2047 0.0
H2241 H 0.17759 0.7501 0.16873 0.0
H2242 H 0.20248 0.74696 0.18865 0.0
H2243 H 0.20559 0.76916 0.16905 0.0
H2244 H 0.23089 0.84967 0.22255 0.0
H2245 H 0.26206 0.83794 0.24808 0.0
H2246 H 0.22636 0.76596 0.2314 0.0
C2247 C 0.1556 0.79307 0.1728 0.0
C2248 C 0.14859 0.81317 0.16498 0.0
C2249 C 0.16323 0.83511 0.17344 0.0
C2250 C 0.18427 0.83718 0.1889 0.0
C2251 C 0.19066 0.81716 0.1963 0.0
C2252 C 0.17673 0.79547 0.18857 0.0
C2253 C 0.18751 0.77684 0.19986 0.0
C2254 C 0.17097 0.76403 0.21565 0.0
C2255 C 0.19366 0.75975 0.18041 0.0
C2256 C 0.20966 0.79139 0.21504 0.0
C2257 C 0.21105 0.81462 0.21256 0.0
C2258 C 0.22988 0.83151 0.22445 0.0
C2259 C 0.24773 0.82466 0.23891 0.0
C2260 C 0.24712 0.80108 0.24186 0.0
C2261 C 0.22748 0.7842 0.22981 0.0
H2262 H 0.54454 0.87617 0.45712 0.0
H2263 H 0.50603 0.84457 0.51051 0.0
H2264 H 0.50586 0.88402 0.53056 0.0
H2265 H 0.58059 0.92541 0.49738 0.0
H2266 H 0.57966 0.94483 0.47507 0.0
H2267 H 0.57762 0.91439 0.46604 0.0
H2268 H 0.53905 0.91341 0.43904 0.0
H2269 H 0.54121 0.94389 0.44828 0.0
H2270 H 0.51537 0.92319 0.45194 0.0
H2271 H 0.50859 0.92932 0.54372 0.0
H2272 H 0.51631 0.97219 0.5499 0.0
H2273 H 0.55351 0.97428 0.48792 0.0
C2274 C 0.53627 0.8773 0.47326 0.0
C2275 C 0.52545 0.85657 0.48213 0.0
C2276 C 0.51481 0.85963 0.50329 0.0
C2277 C 0.51446 0.88222 0.51472 0.0
C2278 C 0.52489 0.90211 0.50508 0.0
C2279 C 0.53582 0.89967 0.48488 0.0
C2280 C 0.54589 0.9235 0.47786 0.0
C2281 C 0.57256 0.92719 0.47918 0.0
C2282 C 0.53471 0.92614 0.45279 0.0
C2283 C 0.53894 0.94007 0.49705 0.0
C2284 C 0.52667 0.92741 0.51257 0.0
C2285 C 0.51823 0.93905 0.53152 0.0
C2286 C 0.52254 0.96374 0.53478 0.0
C2287 C 0.53531 0.97738 0.51936 0.0
C2288 C 0.54362 0.96491 0.5002 0.0
H2289 H 0.5083 0.32792 0.65716 0.0
H2290 H 0.51895 0.25732 0.64684 0.0
H2291 H 0.48621 0.24447 0.66937 0.0
H2292 H 0.49762 0.32492 0.71918 0.0
H2293 H 0.47666 0.34344 0.71805 0.0
H2294 H 0.49952 0.34676 0.69913 0.0
H2295 H 0.46823 0.34141 0.6621 0.0
H2296 H 0.44525 0.33755 0.6809 0.0
H2297 H 0.44539 0.31559 0.65639 0.0
H2298 H 0.45172 0.23871 0.69172 0.0
H2299 H 0.42353 0.24168 0.72074 0.0
H2300 H 0.43761 0.31642 0.72183 0.0
C2301 C 0.50362 0.30979 0.65969 0.0
C2302 C 0.51544 0.29334 0.64935 0.0
C2303 C 0.5094 0.26994 0.65364 0.0
C2304 C 0.49088 0.2625 0.66651 0.0
C2305 C 0.47897 0.27884 0.6758 0.0
C2306 C 0.48555 0.30214 0.67335 0.0
C2307 C 0.47128 0.31629 0.68743 0.0
C2308 C 0.48722 0.33389 0.70712 0.0
C2309 C 0.45667 0.32842 0.6707 0.0
C2310 C 0.45574 0.29728 0.69805 0.0
C2311 C 0.46014 0.27576 0.69052 0.0
C2312 C 0.44819 0.25547 0.69785 0.0
C2313 C 0.43208 0.25727 0.71415 0.0
C2314 C 0.42825 0.27918 0.72324 0.0
C2315 C 0.43994 0.29942 0.71477 0.0
H2316 H 0.06971 0.85168 0.69847 0.0
H2317 H 1.00941 0.80541 0.65663 0.0
H2318 H 1.00812 0.83394 0.62766 0.0
H2319 H 0.05535 0.90653 0.68928 0.0
H2320 H 0.08485 0.92007 0.68587 0.0
H2321 H 0.07974 0.89691 0.70416 0.0
H2322 H 0.10395 0.87353 0.67918 0.0
H2323 H 0.10949 0.89679 0.66113 0.0
H2324 H 0.09644 0.86774 0.64715 0.0
H2325 H 1.01469 0.86802 0.60238 0.0
H2326 H 0.03148 0.90098 0.58132 0.0
H2327 H 0.08797 0.92323 0.63957 0.0
C2328 C 0.05602 0.84762 0.68343 0.0
C2329 C 0.03944 0.82646 0.68005 0.0
C2330 C 0.02221 0.82162 0.65968 0.0
C2331 C 0.02128 0.83777 0.64319 0.0
C2332 C 0.03795 0.85853 0.6471 0.0
C2333 C 0.05524 0.86321 0.66655 0.0
C2334 C 0.07257 0.88549 0.66561 0.0
C2335 C 0.07314 0.9033 0.68754 0.0
C2336 C 0.09705 0.88059 0.66312 0.0
C2337 C 0.06209 0.89307 0.643 0.0
C2338 C 0.04207 0.87744 0.63247 0.0
C2339 C 0.03026 0.88042 0.61062 0.0
C2340 C 0.03973 0.8993 0.59888 0.0
C2341 C 0.06085 0.91474 0.609 0.0
C2342 C 0.0716 0.91188 0.63165 0.0
H2343 H 0.47442 0.82561 0.87799 0.0
H2344 H 0.50171 0.81792 0.81065 0.0
H2345 H 0.46214 0.8148 0.78906 0.0
H2346 H 0.42305 0.7786 0.85578 0.0
H2347 H 0.40396 0.79067 0.87404 0.0
H2348 H 0.43491 0.79606 0.88399 0.0
H2349 H 0.43649 0.84027 0.88827 0.0
H2350 H 0.40558 0.835 0.87818 0.0
H2351 H 0.42596 0.85315 0.86292 0.0
H2352 H 0.41738 0.81482 0.7747 0.0
H2353 H 0.37421 0.80892 0.76883 0.0
H2354 H 0.37337 0.80649 0.84484 0.0
C2355 C 0.4723 0.82389 0.85865 0.0
C2356 C 0.49255 0.82505 0.84619 0.0
C2357 C 0.48779 0.82045 0.82088 0.0
C2358 C 0.46485 0.8178 0.80841 0.0
C2359 C 0.44565 0.81789 0.82122 0.0
C2360 C 0.44911 0.81979 0.84589 0.0
C2361 C 0.4252 0.81595 0.85538 0.0
C2362 C 0.42158 0.79403 0.86806 0.0
C2363 C 0.42319 0.83737 0.87219 0.0
C2364 C 0.40774 0.81252 0.83241 0.0
C2365 C 0.42001 0.81414 0.8129 0.0
C2366 C 0.40787 0.813 0.78996 0.0
C2367 C 0.38304 0.80968 0.78675 0.0
C2368 C 0.36959 0.80671 0.80607 0.0
C2369 C 0.38257 0.80822 0.82936 0.0
H2370 H 0.51624 0.1712 0.17564 0.0
H2371 H 0.54601 0.2285 0.1391 0.0
H2372 H 0.55411 0.20097 0.10708 0.0
H2373 H 0.55933 0.13619 0.16043 0.0
H2374 H 0.53898 0.10868 0.15675 0.0
H2375 H 0.53463 0.13262 0.17699 0.0
H2376 H 0.49311 0.12927 0.15472 0.0
H2377 H 0.49728 0.10515 0.13465 0.0
H2378 H 0.48941 0.13012 0.12286 0.0
H2379 H 0.5612 0.16781 0.07964 0.0
H2380 H 0.56527 0.13133 0.05757 0.0
H2381 H 0.52922 0.09281 0.10866 0.0
C2382 C 0.52426 0.17789 0.16077 0.0
C2383 C 0.52957 0.20234 0.15964 0.0
C2384 C 0.5408 0.2101 0.14013 0.0
C2385 C 0.54575 0.19448 0.12185 0.0
C2386 C 0.53991 0.17069 0.12314 0.0
C2387 C 0.52947 0.16227 0.14208 0.0
C2388 C 0.52586 0.13566 0.13906 0.0
C2389 C 0.54056 0.12782 0.15953 0.0
C2390 C 0.49986 0.12438 0.13774 0.0
C2391 C 0.53514 0.13053 0.11515 0.0
C2392 C 0.54356 0.1512 0.10671 0.0
C2393 C 0.55423 0.15152 0.08589 0.0
C2394 C 0.55622 0.13039 0.07319 0.0
C2395 C 0.54699 0.10853 0.08046 0.0
C2396 C 0.53639 0.10888 0.10211 0.0
H2397 H 0.11548 0.29855 0.32086 0.0
H2398 H 0.14129 0.36015 0.37214 0.0
H2399 H 0.18174 0.35914 0.36436 0.0
H2400 H 0.16576 0.27013 0.33554 0.0
H2401 H 0.16574 0.25809 0.30499 0.0
H2402 H 0.13899 0.2633 0.31511 0.0
H2403 H 0.13406 0.28814 0.28071 0.0
H2404 H 0.16115 0.28316 0.27115 0.0
H2405 H 0.1571 0.31243 0.27812 0.0
H2406 H 0.22078 0.3516 0.35124 0.0
H2407 H 0.25373 0.33888 0.33434 0.0
H2408 H 0.20524 0.28228 0.28947 0.0
C2409 C 0.12965 0.31174 0.33065 0.0
C2410 C 0.12455 0.32943 0.34765 0.0
C2411 C 0.1441 0.34628 0.35946 0.0
C2412 C 0.1674 0.34584 0.35501 0.0
C2413 C 0.17182 0.32837 0.33843 0.0
C2414 C 0.15345 0.31152 0.32637 0.0
C2415 C 0.16341 0.29468 0.30944 0.0
C2416 C 0.15816 0.27009 0.31671 0.0
C2417 C 0.15332 0.2946 0.2833 0.0
C2418 C 0.19005 0.3049 0.31351 0.0
C2419 C 0.19433 0.32423 0.33057 0.0
C2420 C 0.21734 0.33646 0.3379 0.0
C2421 C 0.23626 0.32896 0.32802 0.0
C2422 C 0.23305 0.30929 0.31028 0.0
C2423 C 0.20909 0.29729 0.30289 0.0
H2424 H 0.98036 0.9931 0.19499 0.0
H2425 H 0.96444 0.06077 0.21278 0.0
H2426 H 0.9797 0.07348 0.17613 0.0
H2427 H 0.03386 1.01187 0.17107 0.0
H2428 H 0.0287 0.98836 0.14691 0.0
H2429 H 1.01581 0.9842 0.17399 0.0
H2430 H 0.97456 0.97169 0.14951 0.0
H2431 H 0.98778 0.97539 0.12253 0.0
H2432 H 0.96493 0.99046 0.12923 0.0
H2433 H 0.99634 0.07883 0.13661 0.0
H2434 H 1.01365 0.07653 0.09861 0.0
H2435 H 0.02117 1.0063 0.10669 0.0
C2436 C 0.97988 1.01051 0.19098 0.0
C2437 C 0.97085 0.02588 0.20674 0.0
C2438 C 0.97086 0.04858 0.20092 0.0
C2439 C 0.97961 0.05597 0.18011 0.0
C2440 C 0.98835 0.04049 0.16493 0.0
C2441 C 0.98849 0.01816 0.17004 0.0
C2442 C 0.99892 1.00503 0.15065 0.0
C2443 C 0.02062 0.9969 0.1613 0.0
C2444 C 0.98044 0.98442 0.13719 0.0
C2445 C 1.00535 0.02364 0.13433 0.0
C2446 C 0.99864 0.04383 0.14267 0.0
C2447 C 1.00166 0.06308 0.13005 0.0
C2448 C 1.01148 0.06164 0.10839 0.0
C2449 C 0.01883 0.04133 0.09957 0.0
C2450 C 1.01593 0.02218 0.11302 0.0
H2451 H 0.31253 0.68269 0.48647 0.0
H2452 H 0.24292 0.65924 0.50511 0.0
H2453 H 0.22595 0.67609 0.47154 0.0
H2454 H 0.3011 0.73808 0.47619 0.0
H2455 H 0.31908 0.74193 0.45246 0.0
H2456 H 0.32582 0.72431 0.4752 0.0
H2457 H 0.32408 0.68991 0.44244 0.0
H2458 H 0.31705 0.70734 0.41956 0.0
H2459 H 0.29809 0.67982 0.42118 0.0
H2460 H 0.21607 0.69529 0.4385 0.0
H2461 H 0.21361 0.72473 0.41123 0.0
H2462 H 0.28923 0.74073 0.41516 0.0
C2463 C 0.29377 0.68092 0.48297 0.0
C2464 C 0.2787 0.66876 0.49715 0.0
C2465 C 0.2544 0.6678 0.49349 0.0
C2466 C 0.24462 0.67711 0.47447 0.0
C2467 C 0.2596 0.68837 0.46013 0.0
C2468 C 0.28366 0.69121 0.46453 0.0
C2469 C 0.29558 0.70777 0.4488 0.0
C2470 C 0.31131 0.72929 0.46407 0.0
C2471 C 0.30951 0.69546 0.43198 0.0
C2472 C 0.27429 0.71378 0.43525 0.0
C2473 C 0.25384 0.70174 0.44177 0.0
C2474 C 0.23184 0.70497 0.43313 0.0
C2475 C 0.23059 0.72174 0.41793 0.0
C2476 C 0.25118 0.73495 0.41177 0.0
C2477 C 0.27332 0.73065 0.4199 0.0
H2478 H 0.65808 0.09129 0.69282 0.0
H2479 H 0.67247 0.02205 0.6884 0.0
H2480 H 0.64816 1.01159 0.64894 0.0
H2481 H 0.60036 0.07411 0.67369 0.0
H2482 H 0.59714 0.0976 0.65662 0.0
H2483 H 0.62004 0.102 0.68133 0.0
H2484 H 0.65145 0.11485 0.65379 0.0
H2485 H 0.62842 0.11138 0.62921 0.0
H2486 H 0.65218 0.09645 0.62657 0.0
H2487 H 0.61972 1.00751 0.61327 0.0
H2488 H 0.58862 1.01013 0.58153 0.0
H2489 H 0.58929 0.08067 0.61206 0.0
C2490 C 0.65686 0.07435 0.68286 0.0
C2491 C 0.66727 0.05752 0.6927 0.0
C2492 C 0.66478 0.03509 0.68033 0.0
C2493 C 0.65109 0.02907 0.65812 0.0
C2494 C 0.64005 0.04573 0.64919 0.0
C2495 C 0.64283 0.06796 0.66102 0.0
C2496 C 0.6266 0.08147 0.64918 0.0
C2497 C 0.61006 0.08923 0.66623 0.0
C2498 C 0.6405 0.10226 0.63908 0.0
C2499 C 0.61364 0.06301 0.62949 0.0
C2500 C 0.62207 0.04277 0.62948 0.0
C2501 C 0.61306 0.02329 0.61287 0.0
C2502 C 0.59541 0.02487 0.59513 0.0
C2503 C 0.58691 0.04559 0.59478 0.0
C2504 C 0.59552 0.06461 0.61245 0.0
H2505 H 0.31914 0.34045 0.97413 0.0
H2506 H 0.28996 0.40079 0.96047 0.0
H2507 H 0.28699 0.38939 0.9178 0.0
H2508 H 0.35158 0.33772 0.92411 0.0
H2509 H 0.34354 0.30677 0.91535 0.0
H2510 H 0.34382 0.31857 0.94606 0.0
H2511 H 0.30071 0.2978 0.94499 0.0
H2512 H 0.30044 0.28566 0.91438 0.0
H2513 H 0.27903 0.30229 0.92197 0.0
H2514 H 0.29049 0.37563 0.87714 0.0
H2515 H 0.29262 0.3552 0.83832 0.0
H2516 H 0.31456 0.29903 0.87251 0.0
C2517 C 0.31173 0.35099 0.96217 0.0
C2518 C 0.30528 0.37202 0.97148 0.0
C2519 C 0.29554 0.38495 0.95466 0.0
C2520 C 0.29375 0.37865 0.92999 0.0
C2521 C 0.30096 0.3587 0.9215 0.0
C2522 C 0.30901 0.34445 0.93677 0.0
C2523 C 0.31409 0.32319 0.92168 0.0
C2524 C 0.3398 0.32147 0.92714 0.0
C2525 C 0.2976 0.3009 0.92602 0.0
C2526 C 0.30859 0.32856 0.89591 0.0
C2527 C 0.30121 0.34934 0.89677 0.0
C2528 C 0.29574 0.35905 0.87618 0.0
C2529 C 0.297 0.34705 0.85395 0.0
C2530 C 0.30322 0.32495 0.85167 0.0
C2531 C 0.30958 0.31574 0.87327 0.0
H2532 H 0.98181 0.05728 0.36113 0.0
H2533 H 0.98158 0.98545 0.33648 0.0
H2534 H 0.99828 0.98033 0.377 0.0
H2535 H 0.03974 0.06529 0.4019 0.0
H2536 H 0.0312 0.0855 0.42356 0.0
H2537 H 0.02074 0.08397 0.39223 0.0
H2538 H 0.97821 0.07679 0.40217 0.0
H2539 H 0.9885 0.07789 0.4334 0.0
H2540 H 0.96783 0.05274 0.41805 0.0
H2541 H 1.00867 0.98134 0.42157 0.0
H2542 H 0.01956 0.99035 0.46521 0.0
H2543 H 0.01923 0.06271 0.46109 0.0
C2544 C 0.98615 0.04076 0.3641 0.0
C2545 C 0.98066 0.02179 0.34548 0.0
C2546 C 0.98616 1.00032 0.35021 0.0
C2547 C 0.99539 0.9972 0.3733 0.0
C2548 C 0.99997 0.01598 0.39141 0.0
C2549 C 0.99644 0.03762 0.3869 0.0
C2550 C 1.00365 0.05503 0.40957 0.0
C2551 C 0.0251 0.07355 0.40664 0.0
C2552 C 0.98332 0.06626 0.41617 0.0
C2553 C 1.01005 0.03939 0.42783 0.0
C2554 C 1.00788 0.01695 0.41686 0.0
C2555 C 1.0114 0.99906 0.43009 0.0
C2556 C 1.01802 1.00432 0.45493 0.0
C2557 C 0.02159 0.02725 0.46658 0.0
C2558 C 1.0171 0.04498 0.45275 0.0
H2559 H 0.31829 0.70476 0.63378 0.0
H2560 H 0.25173 0.65753 0.63308 0.0
H2561 H 0.2448 0.68024 0.66976 0.0
H2562 H 0.33418 0.71278 0.69886 0.0
H2563 H 0.34785 0.74292 0.69955 0.0
H2564 H 0.34751 0.72259 0.6735 0.0
H2565 H 0.328 0.74889 0.64734 0.0
H2566 H 0.32768 0.76891 0.67346 0.0
H2567 H 0.30086 0.75613 0.65426 0.0
H2568 H 0.24169 0.71289 0.7001 0.0
H2569 H 0.24863 0.74571 0.73274 0.0
H2570 H 0.32034 0.76582 0.71912 0.0
C2571 C 0.30258 0.69898 0.64179 0.0
C2572 C 0.28548 0.67969 0.63099 0.0
C2573 C 0.26503 0.67232 0.64153 0.0
C2574 C 0.26084 0.68518 0.66206 0.0
C2575 C 0.27764 0.70474 0.67185 0.0
C2576 C 0.29852 0.71108 0.6627 0.0
C2577 C 0.31393 0.73244 0.67716 0.0
C2578 C 0.33724 0.72736 0.68792 0.0
C2579 C 0.31785 0.75278 0.66215 0.0
C2580 C 0.29859 0.73676 0.69605 0.0
C2581 C 0.27724 0.72136 0.69189 0.0
C2582 C 0.25874 0.72428 0.70449 0.0
C2583 C 0.26278 0.74277 0.72283 0.0
C2584 C 0.2855 0.75643 0.72927 0.0
C2585 C 0.30337 0.75415 0.71531 0.0
H2586 H 0.69502 0.07409 0.85647 0.0
H2587 H 0.64241 0.03548 0.79937 0.0
H2588 H 0.61196 0.03774 0.82558 0.0
H2589 H 0.66539 0.05403 0.90892 0.0
H2590 H 0.67457 0.08279 0.9252 0.0
H2591 H 0.69269 0.07218 0.90474 0.0
H2592 H 0.6925 0.10836 0.88271 0.0
H2593 H 0.67394 0.11879 0.90261 0.0
H2594 H 0.66496 0.1144 0.87078 0.0
H2595 H 0.58674 0.05111 0.85418 0.0
H2596 H 0.56887 0.07293 0.88446 0.0
H2597 H 0.63775 0.10481 0.92134 0.0
C2598 C 0.67726 0.06532 0.84973 0.0
C2599 C 0.67109 0.05483 0.82585 0.0
C2600 C 0.64757 0.04365 0.81767 0.0
C2601 C 0.63013 0.04482 0.83243 0.0
C2602 C 0.63659 0.05705 0.85525 0.0
C2603 C 0.65966 0.06684 0.864 0.0
C2604 C 0.66175 0.08221 0.88745 0.0
C2605 C 0.67433 0.07219 0.90779 0.0
C2606 C 0.674 0.10741 0.88575 0.0
C2607 C 0.6362 0.08048 0.88991 0.0
C2608 C 0.62195 0.06553 0.87145 0.0
C2609 C 0.59767 0.06261 0.86891 0.0
C2610 C 0.58772 0.07527 0.88581 0.0
C2611 C 0.60216 0.09082 0.90447 0.0
C2612 C 0.62656 0.09322 0.90679 0.0
H2613 H 0.28002 0.34704 0.11103 0.0
H2614 H 0.35342 0.38031 0.12426 0.0
H2615 H 0.35632 0.36672 0.16402 0.0
H2616 H 0.2686 0.36283 0.17255 0.0
H2617 H 0.24785 0.33624 0.17344 0.0
H2618 H 0.25148 0.34732 0.14533 0.0
H2619 H 0.26009 0.3082 0.12786 0.0
H2620 H 0.25666 0.29711 0.156 0.0
H2621 H 0.28328 0.29702 0.14293 0.0
H2622 H 0.35252 0.34569 0.20092 0.0
H2623 H 0.3407 0.32599 0.23533 0.0
H2624 H 0.26832 0.3124 0.20372 0.0
C2625 C 0.29672 0.35131 0.12227 0.0
C2626 C 0.31673 0.36445 0.11403 0.0
C2627 C 0.33798 0.37011 0.12977 0.0
C2628 C 0.3398 0.36238 0.1525 0.0
C2629 C 0.32002 0.34935 0.16001 0.0
C2630 C 0.29868 0.34433 0.14567 0.0
C2631 C 0.27991 0.3313 0.15909 0.0
C2632 C 0.26083 0.34526 0.16282 0.0
C2633 C 0.26935 0.30696 0.14566 0.0
C2634 C 0.29406 0.32975 0.18302 0.0
C2635 C 0.31729 0.33978 0.18275 0.0
C2636 C 0.33422 0.33871 0.20164 0.0
C2637 C 0.32729 0.32777 0.22146 0.0
C2638 C 0.30346 0.31905 0.22342 0.0
C2639 C 0.28664 0.31967 0.20347 0.0
H2640 H 0.2535 0.94747 0.02313 0.0
H2641 H 0.26082 0.99469 0.96931 0.0
H2642 H 0.22632 1.00891 0.98042 0.0
H2643 H 0.18809 0.93552 0.01909 0.0
H2644 H 0.1894 0.93581 0.05106 0.0
H2645 H 0.21155 0.92582 0.03557 0.0
H2646 H 0.24359 0.95577 0.06378 0.0
H2647 H 0.22171 0.96625 0.0791 0.0
H2648 H 0.24246 0.98613 0.06594 0.0
H2649 H 0.19837 0.02373 1.00267 0.0
H2650 H 0.17451 0.03605 0.03221 0.0
H2651 H 0.18232 0.97699 0.06983 0.0
C2652 C 0.24721 0.96004 0.01296 0.0
C2653 C 0.25951 0.96993 0.99531 0.0
C2654 C 0.25141 0.98693 0.98289 0.0
C2655 C 0.23184 0.995 0.98897 0.0
C2656 C 0.2207 0.98565 1.00724 0.0
C2657 C 0.22785 0.96835 0.01888 0.0
C2658 C 0.21485 0.96351 0.03997 0.0
C2659 C 0.20008 0.93869 0.03618 0.0
C2660 C 0.23166 0.9682 0.06357 0.0
C2661 C 0.19978 0.9813 0.03876 0.0
C2662 C 0.20348 0.99384 0.01976 0.0
C2663 C 0.19435 1.01341 0.01695 0.0
C2664 C 0.1807 0.02014 0.03385 0.0
C2665 C 0.17565 1.00685 0.05287 0.0
C2666 C 0.18544 0.98723 0.05531 0.0
H2667 H 0.69818 0.63592 0.98713 0.0
H2668 H 0.7196 0.67093 0.05928 0.0
H2669 H 0.68696 0.64515 0.07315 0.0
H2670 H 0.63987 0.62468 0.9833 0.0
H2671 H 0.63356 0.59488 0.96951 0.0
H2672 H 0.66014 0.61406 0.96542 0.0
H2673 H 0.68522 0.58657 0.98336 0.0
H2674 H 0.65816 0.56662 0.98464 0.0
H2675 H 0.6795 0.57582 0.01091 0.0
H2676 H 0.65291 0.61338 0.07977 0.0
H2677 H 0.61645 0.58351 0.07678 0.0
H2678 H 0.61491 0.5717 0.99995 0.0
C2679 C 0.69688 0.63745 1.00593 0.0
C2680 C 0.71224 0.65513 0.02205 0.0
C2681 C 0.70839 0.65744 0.04645 0.0
C2682 C 0.68994 0.64273 0.05462 0.0
C2683 C 0.67541 0.62531 0.03834 0.0
C2684 C 0.67873 0.62246 0.01452 0.0
C2685 C 0.66026 0.60243 1.00083 0.0
C2686 C 0.6477 0.60947 0.97845 0.0
C2687 C 0.67137 0.58154 0.99453 0.0
C2688 C 0.6443 0.59687 0.01965 0.0
C2689 C 0.65433 0.60898 0.04164 0.0
C2690 C 0.64464 0.60431 0.06249 0.0
C2691 C 0.62393 0.58734 0.06064 0.0
C2692 C 0.61217 0.57648 0.03802 0.0
C2693 C 0.6229 0.58079 0.01733 0.0
H2694 H 0.67162 0.4888 0.32395 0.0
H2695 H 0.69215 0.53031 0.26812 0.0
H2696 H 0.71584 0.50255 0.25445 0.0
H2697 H 0.72472 0.4697 0.33777 0.0
H2698 H 0.71125 0.44027 0.34087 0.0
H2699 H 0.69593 0.4634 0.34688 0.0
H2700 H 0.66078 0.44189 0.31588 0.0
H2701 H 0.67579 0.41847 0.31027 0.0
H2702 H 0.66573 0.43276 0.28584 0.0
H2703 H 0.73889 0.47198 0.24816 0.0
H2704 H 0.75367 0.43562 0.24386 0.0
H2705 H 0.7162 0.41143 0.30129 0.0
C2706 C 0.68064 0.49159 0.30848 0.0
C2707 C 0.67981 0.51141 0.29675 0.0
C2708 C 0.69217 0.51489 0.2769 0.0
C2709 C 0.70593 0.49943 0.26925 0.0
C2710 C 0.7068 0.48027 0.28138 0.0
C2711 C 0.69394 0.47582 0.30006 0.0
C2712 C 0.69692 0.45302 0.30881 0.0
C2713 C 0.70786 0.45684 0.33515 0.0
C2714 C 0.67341 0.43549 0.30497 0.0
C2715 C 0.71367 0.44562 0.29236 0.0
C2716 C 0.71944 0.4619 0.277 0.0
C2717 C 0.73441 0.45904 0.25997 0.0
C2718 C 0.74286 0.43847 0.25777 0.0
C2719 C 0.7362 0.42102 0.27237 0.0
C2720 C 0.72183 0.42479 0.29024 0.0
H2721 H 0.89458 0.45406 0.48991 0.0
H2722 H 0.86603 0.4965 0.54138 0.0
H2723 H 0.90587 0.51729 0.55849 0.0
H2724 H 0.94519 0.44816 0.52574 0.0
H2725 H 0.96423 0.45205 0.50289 0.0
H2726 H 0.93348 0.44011 0.49461 0.0
H2727 H 0.93049 0.47185 0.46749 0.0
H2728 H 0.96107 0.484 0.47523 0.0
H2729 H 0.94023 0.50214 0.47967 0.0
H2730 H 0.94753 0.5333 0.56944 0.0
H2731 H 0.98915 0.55006 0.56772 0.0
H2732 H 0.99057 0.49676 0.50984 0.0
C2733 C 0.89692 0.46813 0.50438 0.0
C2734 C 0.87787 0.47414 0.51442 0.0
C2735 C 0.88091 0.49229 0.53343 0.0
C2736 C 0.90329 0.50381 0.54344 0.0
C2737 C 0.92198 0.49691 0.53383 0.0
C2738 C 0.91908 0.48018 0.51416 0.0
C2739 C 0.94205 0.4776 0.506 0.0
C2740 C 0.94648 0.45301 0.50743 0.0
C2741 C 0.94351 0.48435 0.4806 0.0
C2742 C 0.95824 0.4952 0.52443 0.0
C2743 C 0.94634 0.50594 0.54054 0.0
C2744 C 0.95724 0.52485 0.55731 0.0
C2745 C 0.98072 0.53411 0.55639 0.0
C2746 C 0.99248 0.52394 0.53913 0.0
C2747 C 0.98167 0.50387 0.52375 0.0
H2748 H 0.35132 0.09187 0.33962 0.0
H2749 H 0.40566 0.08861 0.29387 0.0
H2750 H 0.39854 0.12389 0.27794 0.0
H2751 H 0.31189 0.1053 0.30008 0.0
H2752 H 0.3012 0.12564 0.31978 0.0
H2753 H 0.31424 0.10363 0.3318 0.0
H2754 H 0.34398 0.13512 0.36063 0.0
H2755 H 0.33104 0.15746 0.34865 0.0
H2756 H 0.3619 0.15849 0.34885 0.0
H2757 H 0.38119 0.15343 0.26136 0.0
H2758 H 0.35299 0.1747 0.24362 0.0
H2759 H 0.31001 0.16035 0.29996 0.0
C2760 C 0.36214 0.09906 0.32677 0.0
C2761 C 0.37914 0.08775 0.31815 0.0
C2762 C 0.39281 0.09729 0.30107 0.0
C2763 C 0.389 0.11741 0.29198 0.0
C2764 C 0.37183 0.128 0.30053 0.0
C2765 C 0.35871 0.11931 0.31767 0.0
C2766 C 0.33942 0.13232 0.32152 0.0
C2767 C 0.31528 0.11573 0.31804 0.0
C2768 C 0.34438 0.14671 0.34639 0.0
C2769 C 0.34219 0.14789 0.30197 0.0
C2770 C 0.36165 0.14577 0.29083 0.0
C2771 C 0.36637 0.15597 0.27036 0.0
C2772 C 0.35032 0.16794 0.26039 0.0
C2773 C 0.32982 0.16934 0.27082 0.0
C2774 C 0.32609 0.16006 0.29231 0.0
H2775 H 0.33001 0.14033 0.49676 0.0
H2776 H 0.34011 0.1921 0.55913 0.0
H2777 H 0.37718 0.18074 0.5731 0.0
H2778 H 0.34693 0.0971 0.52479 0.0
H2779 H 0.36145 0.08606 0.501 0.0
H2780 H 0.33821 0.10098 0.49425 0.0
H2781 H 0.36575 0.12996 0.47331 0.0
H2782 H 0.3892 0.11513 0.48013 0.0
H2783 H 0.39323 0.14586 0.48945 0.0
H2784 H 0.41011 0.15967 0.58283 0.0
H2785 H 0.43496 0.13057 0.58759 0.0
H2786 H 0.40277 0.09309 0.5188 0.0
C2787 C 0.34024 0.1497 0.51311 0.0
C2788 C 0.33219 0.16715 0.52684 0.0
C2789 C 0.34607 0.17886 0.54818 0.0
C2790 C 0.36713 0.17251 0.55624 0.0
C2791 C 0.3742 0.15473 0.54252 0.0
C2792 C 0.36121 0.14369 0.52126 0.0
C2793 C 0.37132 0.12386 0.51073 0.0
C2794 C 0.35341 0.10064 0.50753 0.0
C2795 C 0.38042 0.12902 0.487 0.0
C2796 C 0.39125 0.12447 0.53007 0.0
C2797 C 0.39307 0.14273 0.54803 0.0
C2798 C 0.40912 0.14564 0.56865 0.0
C2799 C 0.42316 0.12912 0.57123 0.0
C2800 C 0.42078 0.10996 0.55338 0.0
C2801 C 0.40509 0.10794 0.53238 0.0
H2802 H 0.70584 0.62032 0.28849 0.0
H2803 H 0.66268 0.64472 0.33878 0.0
H2804 H 0.68708 0.6843 0.34258 0.0
H2805 H 0.76408 0.66027 0.31061 0.0
H2806 H 0.76923 0.66317 0.2804 0.0
H2807 H 0.75114 0.63692 0.28701 0.0
H2808 H 0.7197 0.64491 0.254 0.0
H2809 H 0.73796 0.6723 0.25068 0.0
H2810 H 0.70887 0.67133 0.25837 0.0
H2811 H 0.71509 0.72097 0.3407 0.0
H2812 H 0.74304 0.75406 0.33078 0.0
H2813 H 0.76691 0.70804 0.27846 0.0
C2814 C 0.70205 0.63397 0.30078 0.0
C2815 C 0.68303 0.62935 0.3143 0.0
C2816 C 0.67761 0.64779 0.32901 0.0
C2817 C 0.69136 0.67029 0.3312 0.0
C2818 C 0.71003 0.67435 0.31784 0.0
C2819 C 0.71525 0.65685 0.30256 0.0
C2820 C 0.73428 0.66683 0.28786 0.0
C2821 C 0.75592 0.65608 0.29173 0.0
C2822 C 0.72462 0.66365 0.26115 0.0
C2823 C 0.7397 0.69238 0.29827 0.0
C2824 C 0.72536 0.69616 0.31545 0.0
C2825 C 0.72646 0.71821 0.32734 0.0
C2826 C 0.74248 0.73695 0.32155 0.0
C2827 C 0.75742 0.73379 0.30396 0.0
C2828 C 0.75606 0.71105 0.29227 0.0
H2829 H 0.85343 0.46494 0.79138 0.0
H2830 H 0.90312 0.46212 0.85254 0.0
H2831 H 0.8859 0.42069 0.85255 0.0
H2832 H 0.80162 0.4181 0.79967 0.0
H2833 H 0.79833 0.40985 0.76805 0.0
H2834 H 0.81057 0.43963 0.78014 0.0
H2835 H 0.84511 0.4329 0.75482 0.0
H2836 H 0.83287 0.40228 0.74777 0.0
H2837 H 0.86209 0.41203 0.76325 0.0
H2838 H 0.86521 0.38053 0.84523 0.0
H2839 H 0.84309 0.34126 0.82884 0.0
H2840 H 0.80945 0.36899 0.76979 0.0
C2841 C 0.85983 0.45563 0.80528 0.0
C2842 C 0.87839 0.46645 0.82294 0.0
C2843 C 0.88804 0.4539 0.83977 0.0
C2844 C 0.87848 0.43053 0.83981 0.0
C2845 C 0.8601 0.42016 0.82219 0.0
C2846 C 0.85104 0.43207 0.80495 0.0
C2847 C 0.83435 0.41582 0.78555 0.0
C2848 C 0.8098 0.42129 0.78327 0.0
C2849 C 0.84421 0.41576 0.76143 0.0
C2850 C 0.83444 0.39326 0.7955 0.0
C2851 C 0.84956 0.39621 0.81653 0.0
C2852 C 0.85317 0.37791 0.82889 0.0
C2853 C 0.84062 0.35588 0.81955 0.0
C2854 C 0.82472 0.3528 0.7984 0.0
C2855 C 0.82152 0.37143 0.78612 0.0
H2856 H 0.03957 0.87265 0.10272 0.0
H2857 H 0.10792 0.86904 0.08273 0.0
H2858 H 0.11018 0.90688 0.06705 0.0
H2859 H 1.01781 0.90006 0.05399 0.0
H2860 H 1.00412 0.9193 0.07178 0.0
H2861 H 1.00789 0.89215 0.08164 0.0
H2862 H 0.02997 0.91426 0.12185 0.0
H2863 H 0.02619 0.94141 0.11187 0.0
H2864 H 0.05505 0.93723 0.12178 0.0
H2865 H 0.10464 0.94602 0.05198 0.0
H2866 H 0.09304 0.98214 0.04146 0.0
H2867 H 0.0286 0.96286 0.07182 0.0
C2868 C 0.05525 0.88 0.09544 0.0
C2869 C 0.07387 0.86744 0.09458 0.0
C2870 C 0.09367 0.87802 0.08438 0.0
C2871 C 0.09499 0.89966 0.07515 0.0
C2872 C 0.07649 0.91147 0.07626 0.0
C2873 C 0.0571 0.90215 0.0866 0.0
C2874 C 0.04001 0.91894 0.08625 0.0
C2875 C 1.01603 0.90688 0.07259 0.0
C2876 C 0.03765 0.92852 0.11196 0.0
C2877 C 0.05218 0.93852 0.0731 0.0
C2878 C 0.07337 0.93388 0.06775 0.0
C2879 C 0.08803 0.94955 0.05615 0.0
C2880 C 0.08122 0.97022 0.05009 0.0
C2881 C 0.05961 0.97572 0.05509 0.0
C2882 C 0.04496 0.95932 0.06696 0.0
H2883 H 0.93625 0.30035 0.93098 0.0
H2884 H 0.97035 0.25397 0.88987 0.0
H2885 H 0.93988 0.25031 0.85545 0.0
H2886 H 0.87688 0.2685 0.90659 0.0
H2887 H 0.86421 0.29383 0.90592 0.0
H2888 H 0.88877 0.29397 0.92791 0.0
H2889 H 0.91483 0.3307 0.91245 0.0
H2890 H 0.88714 0.33072 0.89555 0.0
H2891 H 0.91199 0.33042 0.88018 0.0
H2892 H 0.9062 0.25231 0.82438 0.0
H2893 H 0.87088 0.25848 0.80029 0.0
H2894 H 0.85904 0.30507 0.85963 0.0
C2895 C 0.93712 0.28929 0.91479 0.0
C2896 C 0.95597 0.27748 0.91322 0.0
C2897 C 0.9563 0.26321 0.89161 0.0
C2898 C 0.93902 0.26107 0.87185 0.0
C2899 C 0.92105 0.27319 0.87366 0.0
C2900 C 0.91981 0.287 0.89459 0.0
C2901 C 0.89777 0.2972 0.89176 0.0
C2902 C 0.88091 0.28781 0.90908 0.0
C2903 C 0.90341 0.32385 0.89531 0.0
C2904 C 0.88772 0.2879 0.86583 0.0
C2905 C 0.90127 0.27386 0.85585 0.0
C2906 C 0.89555 0.26337 0.83212 0.0
C2907 C 0.87554 0.26725 0.81836 0.0
C2908 C 0.86146 0.28195 0.82789 0.0
C2909 C 0.86812 0.29263 0.85197 0.0
H2910 H 0.56441 0.22314 0.62561 0.0
H2911 H 0.57941 0.25244 0.5608 0.0
H2912 H 0.57659 0.21296 0.53981 0.0
H2913 H 0.60067 0.18001 0.61668 0.0
H2914 H 0.58235 0.15817 0.63009 0.0
H2915 H 0.58375 0.18853 0.63949 0.0
H2916 H 0.53881 0.18219 0.62963 0.0
H2917 H 0.53725 0.15182 0.62031 0.0
H2918 H 0.52496 0.16921 0.60011 0.0
H2919 H 0.57402 0.16896 0.52608 0.0
H2920 H 0.57077 0.12639 0.52096 0.0
H2921 H 0.55857 0.12463 0.59488 0.0
C2922 C 0.56668 0.22126 0.60685 0.0
C2923 C 0.57064 0.24129 0.59454 0.0
C2924 C 0.57471 0.23768 0.57034 0.0
C2925 C 0.5736 0.21513 0.55835 0.0
C2926 C 0.56929 0.19584 0.57087 0.0
C2927 C 0.5661 0.19874 0.59472 0.0
C2928 C 0.5632 0.17529 0.6045 0.0
C2929 C 0.58369 0.17552 0.62385 0.0
C2930 C 0.53964 0.16927 0.61421 0.0
C2931 C 0.56415 0.15856 0.58229 0.0
C2932 C 0.56819 0.17087 0.56317 0.0
C2933 C 0.57077 0.15935 0.54104 0.0
C2934 C 0.56901 0.13496 0.5383 0.0
C2935 C 0.56433 0.12163 0.55737 0.0
C2936 C 0.56192 0.13394 0.57973 0.0
H2937 H 0.56325 0.79156 0.3856 0.0
H2938 H 0.59494 0.78251 0.45576 0.0
H2939 H 0.6325 0.78208 0.43897 0.0
H2940 H 0.59329 0.75742 0.34836 0.0
H2941 H 0.59522 0.7779 0.32686 0.0
H2942 H 0.57099 0.77419 0.34404 0.0
H2943 H 0.58053 0.81828 0.35903 0.0
H2944 H 0.60459 0.8222 0.34181 0.0
H2945 H 0.60948 0.83177 0.37351 0.0
H2946 H 0.66815 0.78819 0.41386 0.0
H2947 H 0.69613 0.80115 0.38552 0.0
H2948 H 0.63834 0.80523 0.33335 0.0
C2949 C 0.57772 0.78896 0.39771 0.0
C2950 C 0.57591 0.78703 0.42218 0.0
C2951 C 0.59573 0.78386 0.43696 0.0
C2952 C 0.61711 0.78364 0.4275 0.0
C2953 C 0.61817 0.78636 0.40328 0.0
C2954 C 0.59871 0.78887 0.38875 0.0
C2955 C 0.60398 0.79392 0.36414 0.0
C2956 C 0.59005 0.77469 0.34471 0.0
C2957 C 0.59938 0.81795 0.35937 0.0
C2958 C 0.62968 0.79384 0.36666 0.0
C2959 C 0.63784 0.78948 0.38925 0.0
C2960 C 0.66174 0.79113 0.39607 0.0
C2961 C 0.67751 0.79829 0.37982 0.0
C2962 C 0.66924 0.80373 0.35716 0.0
C2963 C 0.64502 0.80056 0.35034 0.0
H2964 H 0.0791 0.26966 0.42625 0.0
H2965 H 1.0177 0.2476 0.37341 0.0
H2966 H 1.00698 0.2113 0.39152 0.0
H2967 H 0.09021 0.20884 0.42833 0.0
H2968 H 0.1011 0.21516 0.45974 0.0
H2969 H 0.10535 0.23781 0.44069 0.0
H2970 H 0.08529 0.26308 0.46863 0.0
H2971 H 0.08099 0.2406 0.48767 0.0
H2972 H 0.05629 0.25136 0.4752 0.0
H2973 H 1.00062 0.17973 0.41871 0.0
H2974 H 0.99961 0.15581 0.45221 0.0
H2975 H 0.0656 0.1983 0.4864 0.0
C2976 C 0.06372 0.25689 0.41817 0.0
C2977 C 0.04928 0.26127 0.3984 0.0
C2978 C 0.02919 0.24433 0.38834 0.0
C2979 C 0.02295 0.22371 0.39854 0.0
C2980 C 0.03737 0.22005 0.41836 0.0
C2981 C 0.05759 0.23601 0.42776 0.0
C2982 C 0.06967 0.22842 0.4496 0.0
C2983 C 0.09297 0.22219 0.44428 0.0
C2984 C 0.07324 0.24697 0.47156 0.0
C2985 C 0.05202 0.20688 0.45236 0.0
C2986 C 0.03385 0.20186 0.43376 0.0
C2987 C 1.01498 0.18328 0.4331 0.0
C2988 C 1.01453 0.16979 0.45212 0.0
C2989 C 0.0326 0.17528 0.47163 0.0
C2990 C 0.05171 0.19375 0.4715 0.0
H2991 H 0.62134 0.30254 0.22184 0.0
H2992 H 0.59724 0.23117 0.23377 0.0
H2993 H 0.63788 0.22861 0.24744 0.0
H2994 H 0.67503 0.29368 0.20041 0.0
H2995 H 0.69352 0.3205 0.21448 0.0
H2996 H 0.66275 0.31903 0.20642 0.0
H2997 H 0.65734 0.33302 0.24951 0.0
H2998 H 0.68832 0.33622 0.25815 0.0
H2999 H 0.66777 0.31865 0.27372 0.0
H3000 H 0.68137 0.23254 0.25768 0.0
H3001 H 0.72373 0.24341 0.26703 0.0
H3002 H 0.72277 0.31349 0.25286 0.0
C3003 C 0.62463 0.28646 0.22758 0.0
C3004 C 0.60565 0.26696 0.22676 0.0
C3005 C 0.61109 0.24632 0.23425 0.0
C3006 C 0.63428 0.24471 0.24205 0.0
C3007 C 0.65247 0.26398 0.2426 0.0
C3008 C 0.64802 0.28462 0.23585 0.0
C3009 C 0.67126 0.30249 0.2381 0.0
C3010 C 0.67589 0.30937 0.21339 0.0
C3011 C 0.67116 0.32387 0.25593 0.0
C3012 C 0.68927 0.28885 0.2476 0.0
C3013 C 0.6778 0.26655 0.24958 0.0
C3014 C 0.69027 0.25016 0.25669 0.0
C3015 C 0.71474 0.25664 0.26237 0.0
C3016 C 0.72752 0.2795 0.26186 0.0
C3017 C 0.71418 0.29584 0.25392 0.0
H3018 H 0.54798 0.88374 0.93635 0.0
H3019 H 0.58993 0.91965 0.88767 0.0
H3020 H 0.59373 0.95657 0.91357 0.0
H3021 H 0.51641 0.9293 0.94956 0.0
H3022 H 0.51558 0.92593 0.98072 0.0
H3023 H 0.51706 0.90148 0.95957 0.0
H3024 H 0.55417 0.89575 0.985 0.0
H3025 H 0.55276 0.9202 1.00623 0.0
H3026 H 0.57896 0.91967 0.99251 0.0
H3027 H 0.59288 0.99005 0.94354 0.0
H3028 H 0.58626 0.01873 0.97503 0.0
H3029 H 0.54325 0.96389 1.00572 0.0
C3030 C 0.55832 0.89932 0.93138 0.0
C3031 C 0.56894 0.89839 0.90976 0.0
C3032 C 0.58174 0.9195 0.90391 0.0
C3033 C 0.58402 0.94071 0.91863 0.0
C3034 C 0.57328 0.9411 0.93944 0.0
C3035 C 0.56058 0.92105 0.94594 0.0
C3036 C 0.55002 0.92703 0.96892 0.0
C3037 C 0.52317 0.92055 0.96442 0.0
C3038 C 0.55954 0.91493 0.98938 0.0
C3039 C 0.55875 0.95349 0.97411 0.0
C3040 C 0.57228 0.96095 0.9568 0.0
C3041 C 0.58232 0.98435 0.95717 0.0
C3042 C 0.57839 1.00065 0.97534 0.0
C3043 C 0.56426 0.99404 0.99334 0.0
C3044 C 0.55445 0.96982 0.99269 0.0
H3045 H 0.95018 0.74861 0.71787 0.0
H3046 H 0.992 0.80668 0.76732 0.0
H3047 H 0.957 0.81472 0.78229 0.0
H3048 H 0.89966 0.77518 0.70407 0.0
H3049 H 0.87734 0.74972 0.70485 0.0
H3050 H 0.9057 0.74664 0.69731 0.0
H3051 H 0.90994 0.72125 0.73118 0.0
H3052 H 0.88158 0.7243 0.73888 0.0
H3053 H 0.90686 0.73235 0.76124 0.0
H3054 H 0.91858 0.81522 0.79662 0.0
H3055 H 0.87831 0.81188 0.80443 0.0
H3056 H 0.85494 0.75965 0.74285 0.0
C3057 C 0.95207 0.763 0.73187 0.0
C3058 C 0.97514 0.77671 0.74108 0.0
C3059 C 0.97563 0.79535 0.75947 0.0
C3060 C 0.95542 0.80027 0.76842 0.0
C3061 C 0.93355 0.78669 0.75932 0.0
C3062 C 0.93139 0.76848 0.74131 0.0
C3063 C 0.90491 0.75713 0.73532 0.0
C3064 C 0.8964 0.75718 0.70879 0.0
C3065 C 0.90056 0.73227 0.74202 0.0
C3066 C 0.8929 0.7727 0.7517 0.0
C3067 C 0.9103 0.7889 0.76598 0.0
C3068 C 0.90483 0.80335 0.78466 0.0
C3069 C 0.88132 0.80181 0.78865 0.0
C3070 C 0.86215 0.78743 0.77324 0.0
C3071 C 0.86848 0.77204 0.75453 0.0
H3072 H 0.1287 0.02969 0.87877 0.0
H3073 H 0.11315 0.09605 0.86494 0.0
H3074 H 0.09232 0.09709 0.90064 0.0
H3075 H 0.07042 1.00881 0.90032 0.0
H3076 H 0.0826 0.99266 0.92188 0.0
H3077 H 0.0952 0.99634 0.89452 0.0
H3078 H 0.13557 0.01392 0.91902 0.0
H3079 H 0.12311 1.01045 0.94642 0.0
H3080 H 0.13852 0.03865 0.94145 0.0
H3081 H 0.07436 0.09184 0.93879 0.0
H3082 H 0.05959 0.08037 0.97586 0.0
H3083 H 0.08619 0.0171 0.96656 0.0
C3084 C 0.12042 0.04416 0.88301 0.0
C3085 C 0.12222 0.06268 0.86868 0.0
C3086 C 0.11152 0.08146 0.87515 0.0
C3087 C 0.09978 0.08224 0.89557 0.0
C3088 C 0.09842 0.0639 0.90939 0.0
C3089 C 0.10806 0.04495 0.90318 0.0
C3090 C 0.10361 0.02742 0.92108 0.0
C3091 C 0.08698 1.00497 0.90872 0.0
C3092 C 0.12659 0.02233 0.93268 0.0
C3093 C 0.09161 0.04025 0.93927 0.0
C3094 C 0.08829 0.061 0.93171 0.0
C3095 C 0.07693 0.07565 0.9448 0.0
C3096 C 0.0686 0.06898 0.96595 0.0
C3097 C 0.07206 0.04808 0.97456 0.0
C3098 C 0.08378 0.03348 0.9609 0.0
H3099 H 0.84574 0.43996 0.58796 0.0
H3100 H 0.77243 0.40962 0.56668 0.0
H3101 H 0.77258 0.38629 0.60031 0.0
H3102 H 0.86103 0.39022 0.59522 0.0
H3103 H 0.88344 0.40001 0.62044 0.0
H3104 H 0.87655 0.4201 0.60054 0.0
H3105 H 0.86803 0.44735 0.63585 0.0
H3106 H 0.87556 0.42763 0.65612 0.0
H3107 H 0.84762 0.43595 0.65542 0.0
H3108 H 0.78225 0.36106 0.62998 0.0
H3109 H 0.80078 0.33595 0.65482 0.0
H3110 H 0.86863 0.38036 0.65441 0.0
C3111 C 0.82945 0.42961 0.59156 0.0
C3112 C 0.80884 0.42707 0.57566 0.0
C3113 C 0.78807 0.41221 0.57945 0.0
C3114 C 0.78807 0.39888 0.59838 0.0
C3115 C 0.80907 0.40059 0.613 0.0
C3116 C 0.8294 0.41572 0.60996 0.0
C3117 C 0.85046 0.41107 0.62492 0.0
C3118 C 0.86892 0.40499 0.60933 0.0
C3119 C 0.86104 0.43173 0.64423 0.0
C3120 C 0.83898 0.39027 0.63579 0.0
C3121 C 0.81505 0.38487 0.62919 0.0
C3122 C 0.8009 0.36537 0.63568 0.0
C3123 C 0.81152 0.35114 0.64951 0.0
C3124 C 0.83602 0.35633 0.65609 0.0
C3125 C 0.84987 0.37611 0.6493 0.0
H3126 H 0.43462 1.00951 0.39114 0.0
H3127 H 0.42424 0.08032 0.39753 0.0
H3128 H 0.45859 0.092 0.42893 0.0
H3129 H 0.4502 1.00829 0.45277 0.0
H3130 H 0.47148 0.99044 0.44867 0.0
H3131 H 0.44694 0.98799 0.42606 0.0
H3132 H 0.47474 0.99645 0.39426 0.0
H3133 H 0.49961 0.99892 0.41657 0.0
H3134 H 0.49739 0.02243 0.3992 0.0
H3135 H 0.49259 0.09537 0.45917 0.0
H3136 H 0.52187 0.08973 0.49125 0.0
H3137 H 0.51047 0.01663 0.46396 0.0
C3138 C 0.43943 0.02738 0.39958 0.0
C3139 C 0.42697 0.04412 0.39274 0.0
C3140 C 0.43352 0.06738 0.40343 0.0
C3141 C 0.45312 0.07414 0.42073 0.0
C3142 C 0.46556 0.05729 0.42663 0.0
C3143 C 0.4588 0.03433 0.41665 0.0
C3144 C 0.47418 0.01932 0.4271 0.0
C3145 C 0.45987 1.0004 0.4394 0.0
C3146 C 0.48725 1.00867 0.40814 0.0
C3147 C 0.49057 0.03745 0.44489 0.0
C3148 C 0.48547 0.05927 0.44404 0.0
C3149 C 0.49694 0.0785 0.45998 0.0
C3150 C 0.51337 0.07512 0.47806 0.0
C3151 C 0.51793 0.05273 0.47973 0.0
C3152 C 0.50727 0.0339 0.46251 0.0
H3153 H 0.78678 0.75166 0.09893 0.0
H3154 H 0.76429 0.67818 0.10415 0.0
H3155 H 0.76366 0.68711 0.14733 0.0
H3156 H 0.82448 0.7654 0.15678 0.0
H3157 H 0.81726 0.79333 0.16389 0.0
H3158 H 0.81638 0.78154 0.1331 0.0
H3159 H 0.77344 0.78593 0.12463 0.0
H3160 H 0.77418 0.79755 0.15546 0.0
H3161 H 0.7521 0.77254 0.14232 0.0
H3162 H 0.76548 0.70309 0.18997 0.0
H3163 H 0.77053 0.72548 0.23003 0.0
H3164 H 0.79083 0.78943 0.19944 0.0
C3165 C 0.78182 0.73747 0.1092 0.0
C3166 C 0.77558 0.71409 0.0978 0.0
C3167 C 0.7692 0.69617 0.11211 0.0
C3168 C 0.76873 0.70107 0.13681 0.0
C3169 C 0.77471 0.72409 0.14741 0.0
C3170 C 0.78126 0.74209 0.13421 0.0
C3171 C 0.78702 0.76527 0.15055 0.0
C3172 C 0.81282 0.77708 0.1511 0.0
C3173 C 0.77071 0.78127 0.14277 0.0
C3174 C 0.78234 0.75741 0.17476 0.0
C3175 C 0.77541 0.7335 0.17237 0.0
C3176 C 0.77083 0.72181 0.19203 0.0
C3177 C 0.77375 0.73471 0.21478 0.0
C3178 C 0.78092 0.75921 0.21799 0.0
C3179 C 0.78496 0.77075 0.19755 0.0
H3180 H 0.12387 0.02867 0.7118 0.0
H3181 H 0.11125 0.09529 0.74037 0.0
H3182 H 0.09284 0.1001 0.70047 0.0
H3183 H 0.1376 0.04402 0.65393 0.0
H3184 H 0.12246 0.01667 0.63722 0.0
H3185 H 0.13433 0.01785 0.66807 0.0
H3186 H 0.09356 0.99866 0.67775 0.0
H3187 H 0.0816 0.99751 0.64691 0.0
H3188 H 0.06891 1.01172 0.67034 0.0
H3189 H 0.07379 0.0971 0.6582 0.0
H3190 H 0.05881 0.08825 0.61557 0.0
H3191 H 0.08585 0.02523 0.61139 0.0
C3192 C 0.11723 0.04424 0.70954 0.0
C3193 C 0.11896 0.06167 0.72933 0.0
C3194 C 0.11003 0.08173 0.7256 0.0
C3195 C 0.0995 0.08459 0.70296 0.0
C3196 C 0.09785 0.06719 0.68388 0.0
C3197 C 0.10653 0.0474 0.68677 0.0
C3198 C 0.1024 0.03154 0.66292 0.0
C3199 C 0.12559 0.02728 0.65508 0.0
C3200 C 0.08563 1.00849 0.66459 0.0
C3201 C 0.09085 0.04591 0.64618 0.0
C3202 C 0.08792 0.0661 0.65893 0.0
C3203 C 0.07644 0.08154 0.648 0.0
C3204 C 0.06804 0.07647 0.62347 0.0
C3205 C 0.07169 0.05661 0.6094 0.0
C3206 C 0.08318 0.04098 0.62124 0.0
H3207 H 0.80536 0.42141 0.41386 0.0
H3208 H 0.8142 0.38113 0.4731 0.0
H3209 H 0.81036 0.3462 0.44502 0.0
H3210 H 0.76213 0.37687 0.37574 0.0
H3211 H 0.77415 0.38367 0.34872 0.0
H3212 H 0.77708 0.40609 0.37356 0.0
H3213 H 0.82217 0.41504 0.37371 0.0
H3214 H 0.81919 0.3926 0.34889 0.0
H3215 H 0.83788 0.3919 0.376 0.0
H3216 H 0.81249 0.31775 0.41184 0.0
H3217 H 0.81312 0.29482 0.37353 0.0
H3218 H 0.79454 0.35045 0.33622 0.0
C3219 C 0.8062 0.4052 0.42086 0.0
C3220 C 0.81015 0.40404 0.44552 0.0
C3221 C 0.81122 0.38252 0.45417 0.0
C3222 C 0.8091 0.3625 0.43846 0.0
C3223 C 0.80563 0.36428 0.41431 0.0
C3224 C 0.80377 0.38484 0.40543 0.0
C3225 C 0.8003 0.38171 0.37853 0.0
C3226 C 0.77701 0.38741 0.36857 0.0
C3227 C 0.82112 0.39617 0.36872 0.0
C3228 C 0.80006 0.35612 0.37405 0.0
C3229 C 0.80397 0.34665 0.39488 0.0
C3230 C 0.80817 0.3244 0.39524 0.0
C3231 C 0.80802 0.31127 0.37338 0.0
C3232 C 0.80251 0.32011 0.35178 0.0
C3233 C 0.79828 0.34278 0.35228 0.0
H3234 H 0.42103 0.04243 0.23991 0.0
H3235 H 0.46437 1.01295 0.29009 0.0
H3236 H 0.49144 1.00922 0.26076 0.0
H3237 H 0.4249 1.00691 0.18856 0.0
H3238 H 0.42752 0.02905 0.16884 0.0
H3239 H 0.41304 0.03247 0.19495 0.0
H3240 H 0.4413 0.07218 0.20848 0.0
H3241 H 0.45634 0.06848 0.18265 0.0
H3242 H 0.47239 0.07373 0.21227 0.0
H3243 H 0.5116 1.00497 0.22695 0.0
H3244 H 0.5207 0.99414 0.18649 0.0
H3245 H 0.4659 0.02615 0.1563 0.0
C3246 C 0.43638 0.03544 0.24456 0.0
C3247 C 0.44104 0.0284 0.26727 0.0
C3248 C 0.46096 0.01898 0.27291 0.0
C3249 C 0.47654 0.01695 0.25648 0.0
C3250 C 0.47211 0.02467 0.23453 0.0
C3251 C 0.45249 0.0335 0.22826 0.0
C3252 C 0.45124 0.03844 0.20248 0.0
C3253 C 0.42779 0.02594 0.18786 0.0
C3254 C 0.45557 0.06477 0.2014 0.0
C3255 C 0.47168 0.02851 0.19483 0.0
C3256 C 0.4841 0.02189 0.21409 0.0
C3257 C 0.50242 1.01043 0.2117 0.0
C3258 C 0.50745 1.00433 0.18876 0.0
C3259 C 0.49402 1.00948 0.16871 0.0
C3260 C 0.47662 0.02257 0.17165 0.0
H3261 H 0.78277 0.6951 0.93008 0.0
H3262 H 0.7739 0.75239 0.98025 0.0
H3263 H 0.77808 0.7781 0.94848 0.0
H3264 H 0.82651 0.72789 0.89968 0.0
H3265 H 0.81512 0.71204 0.87056 0.0
H3266 H 0.8111 0.69807 0.89701 0.0
H3267 H 0.76642 0.68783 0.88404 0.0
H3268 H 0.77028 0.7019 0.8576 0.0
H3269 H 0.75115 0.71064 0.87799 0.0
H3270 H 0.77966 0.79671 0.90987 0.0
H3271 H 0.78359 0.80831 0.86988 0.0
H3272 H 0.79692 0.74061 0.84557 0.0
C3273 C 0.7818 0.71309 0.93456 0.0
C3274 C 0.77784 0.72156 0.95798 0.0
C3275 C 0.77683 0.74531 0.9627 0.0
C3276 C 0.77912 0.76006 0.94464 0.0
C3277 C 0.78268 0.75103 0.92181 0.0
C3278 C 0.78434 0.72813 0.91681 0.0
C3279 C 0.78852 0.72283 0.89084 0.0
C3280 C 0.8117 0.71474 0.88945 0.0
C3281 C 0.76787 0.70472 0.8768 0.0
C3282 C 0.78949 0.74646 0.88211 0.0
C3283 C 0.78538 0.76224 0.90011 0.0
C3284 C 0.78336 0.78458 0.89587 0.0
C3285 C 0.78569 0.79102 0.87289 0.0
C3286 C 0.79094 0.77567 0.85415 0.0
C3287 C 0.79302 0.75301 0.85918 0.0
H3288 H 0.81925 0.09202 0.02626 0.0
H3289 H 0.84619 0.13005 0.09663 0.0
H3290 H 0.88474 0.11961 0.09252 0.0
H3291 H 0.8518 0.04673 0.02496 0.0
H3292 H 0.85585 0.04893 0.99412 0.0
H3293 H 0.82998 0.05551 1.00518 0.0
H3294 H 0.8388 0.09616 0.99083 0.0
H3295 H 0.86472 0.08995 0.9798 0.0
H3296 H 0.86667 0.11534 1.00104 0.0
H3297 H 0.92095 0.10698 0.07799 0.0
H3298 H 0.9513 0.09648 0.05386 0.0
H3299 H 0.89841 0.07196 0.99258 0.0
C3300 C 0.83281 0.0976 0.04139 0.0
C3301 C 0.82971 0.11143 0.06199 0.0
C3302 C 0.84831 0.1191 0.08082 0.0
C3303 C 0.8701 0.11324 0.07863 0.0
C3304 C 0.87262 0.10019 0.05742 0.0
C3305 C 0.85436 0.09277 0.03914 0.0
C3306 C 0.8616 0.08246 0.0166 0.0
C3307 C 0.84909 0.05688 0.00984 0.0
C3308 C 0.85772 0.09684 0.99588 0.0
C3309 C 0.88702 0.08497 0.0249 0.0
C3310 C 0.89324 0.09488 0.04851 0.0
C3311 C 0.91628 0.09937 0.05948 0.0
C3312 C 0.9333 0.09367 0.04572 0.0
C3313 C 0.92689 0.08439 0.02135 0.0
C3314 C 0.9036 0.07978 0.01101 0.0
H3315 H 0.39655 0.41532 0.0212 0.0
H3316 H 0.37059 0.44803 0.08183 0.0
H3317 H 0.40503 0.48046 0.08727 0.0
H3318 H 0.45781 0.43247 0.04842 0.0
H3319 H 0.46932 0.43673 0.02063 0.0
H3320 H 0.44269 0.41572 0.02087 0.0
H3321 H 0.41872 0.4368 0.99045 0.0
H3322 H 0.44747 0.45328 0.98878 0.0
H3323 H 0.42509 0.46833 0.99567 0.0
H3324 H 0.4436 0.50892 0.08719 0.0
H3325 H 0.48201 0.53129 0.0799 0.0
H3326 H 0.47848 0.48428 0.01534 0.0
C3327 C 0.39831 0.42927 0.03566 0.0
C3328 C 0.38103 0.42919 0.05123 0.0
C3329 C 0.38376 0.44777 0.06987 0.0
C3330 C 0.40322 0.46628 0.07305 0.0
C3331 C 0.41991 0.46607 0.05739 0.0
C3332 C 0.41763 0.44814 0.03892 0.0
C3333 C 0.43865 0.45187 0.02522 0.0
C3334 C 0.45297 0.43309 0.02903 0.0
C3335 C 0.43192 0.45254 0.99845 0.0
C3336 C 0.4519 0.47542 0.03764 0.0
C3337 C 0.44144 0.48289 0.05679 0.0
C3338 C 0.45169 0.50335 0.07194 0.0
C3339 C 0.47331 0.51619 0.06748 0.0
C3340 C 0.48384 0.50915 0.04742 0.0
C3341 C 0.47229 0.48905 0.03189 0.0
H3342 H 0.40868 0.57745 0.81459 0.0
H3343 H 0.43249 0.58501 0.74553 0.0
H3344 H 0.41679 0.62118 0.7444 0.0
H3345 H 0.35492 0.59478 0.80071 0.0
H3346 H 0.35505 0.60911 0.8304 0.0
H3347 H 0.36938 0.58499 0.82618 0.0
H3348 H 0.40832 0.61022 0.84841 0.0
H3349 H 0.3939 0.63415 0.85326 0.0
H3350 H 0.41996 0.63772 0.83871 0.0
H3351 H 0.39581 0.65567 0.75068 0.0
H3352 H 0.37733 0.68763 0.76613 0.0
H3353 H 0.36749 0.65572 0.83065 0.0
C3354 C 0.41111 0.58702 0.79944 0.0
C3355 C 0.42209 0.57874 0.78029 0.0
C3356 C 0.42462 0.59143 0.7606 0.0
C3357 C 0.41542 0.61173 0.7597 0.0
C3358 C 0.40379 0.61884 0.77858 0.0
C3359 C 0.40196 0.60692 0.79822 0.0
C3360 C 0.38847 0.61752 0.81613 0.0
C3361 C 0.36561 0.60059 0.81848 0.0
C3362 C 0.40358 0.62538 0.84056 0.0
C3363 C 0.38359 0.63792 0.80404 0.0
C3364 C 0.39202 0.63822 0.78215 0.0
C3365 C 0.38933 0.65561 0.76785 0.0
C3366 C 0.37871 0.67358 0.77665 0.0
C3367 C 0.37128 0.67411 0.7996 0.0
C3368 C 0.3732 0.65573 0.8131 0.0
H3369 H 0.20353 0.63621 0.52947 0.0
H3370 H 0.23824 0.59722 0.57734 0.0
H3371 H 0.20105 0.57012 0.57806 0.0
H3372 H 0.15392 0.63294 0.55998 0.0
H3373 H 0.13294 0.63055 0.53376 0.0
H3374 H 0.16272 0.64543 0.53382 0.0
H3375 H 0.16699 0.61743 0.49587 0.0
H3376 H 0.13645 0.60485 0.49568 0.0
H3377 H 0.15748 0.58656 0.49611 0.0
H3378 H 0.16214 0.54735 0.57328 0.0
H3379 H 0.12005 0.53254 0.56913 0.0
H3380 H 0.1086 0.58868 0.52842 0.0
C3381 C 0.2031 0.62161 0.53958 0.0
C3382 C 0.22347 0.61768 0.5523 0.0
C3383 C 0.22266 0.5995 0.56661 0.0
C3384 C 0.20176 0.58414 0.56716 0.0
C3385 C 0.182 0.58778 0.55373 0.0
C3386 C 0.18219 0.60622 0.54058 0.0
C3387 C 0.15774 0.60751 0.53037 0.0
C3388 C 0.15147 0.63047 0.54008 0.0
C3389 C 0.15453 0.6039 0.50287 0.0
C3390 C 0.14406 0.58701 0.54009 0.0
C3391 C 0.15858 0.57564 0.55291 0.0
C3392 C 0.15041 0.55602 0.56335 0.0
C3393 C 0.12646 0.54779 0.56083 0.0
C3394 C 0.11111 0.55958 0.54841 0.0
C3395 C 0.11999 0.57934 0.53783 0.0
H3396 H 0.71401 1.01037 0.79925 0.0
H3397 H 0.73604 1.01025 0.72881 0.0
H3398 H 0.74589 0.97151 0.73162 0.0
H3399 H 0.76007 0.99316 0.82349 0.0
H3400 H 0.74566 0.97652 0.84452 0.0
H3401 H 0.73402 0.99997 0.83402 0.0
H3402 H 0.69403 0.97218 0.81913 0.0
H3403 H 0.70542 0.94845 0.82988 0.0
H3404 H 0.69275 0.94607 0.7991 0.0
H3405 H 0.7632 0.93997 0.7472 0.0
H3406 H 0.78474 0.91791 0.77295 0.0
H3407 H 0.74818 0.93717 0.83195 0.0
C3408 C 0.72013 1.00167 0.7841 0.0
C3409 C 0.72462 1.01274 0.76399 0.0
C3410 C 0.73267 1.00154 0.74436 0.0
C3411 C 0.73808 0.97964 0.74579 0.0
C3412 C 0.73468 0.96952 0.7667 0.0
C3413 C 0.72552 0.98014 0.78536 0.0
C3414 C 0.72761 0.96859 0.80761 0.0
C3415 C 0.74273 0.98555 0.8286 0.0
C3416 C 0.7035 0.95819 0.8143 0.0
C3417 C 0.73996 0.95003 0.79895 0.0
C3418 C 0.74396 0.9507 0.77534 0.0
C3419 C 0.75935 0.93852 0.7653 0.0
C3420 C 0.7715 0.92606 0.78004 0.0
C3421 C 0.76795 0.92601 0.80438 0.0
C3422 C 0.75106 0.93697 0.81338 0.0
H3423 H 0.76365 0.93695 0.50619 0.0
H3424 H 0.7568 0.91239 0.57508 0.0
H3425 H 0.722 0.93027 0.57808 0.0
H3426 H 0.74963 0.992 0.52171 0.0
H3427 H 0.73456 0.99243 0.49242 0.0
H3428 H 0.75808 0.97708 0.49573 0.0
H3429 H 0.73081 0.93917 0.47392 0.0
H3430 H 0.70743 0.95456 0.47006 0.0
H3431 H 0.70337 0.92863 0.48457 0.0
H3432 H 0.68802 0.95238 0.57297 0.0
H3433 H 0.65616 0.97155 0.55814 0.0
H3434 H 0.68804 0.98183 0.49361 0.0
C3435 C 0.75478 0.93507 0.52191 0.0
C3436 C 0.76287 0.92324 0.54041 0.0
C3437 C 0.75067 0.92112 0.56056 0.0
C3438 C 0.73115 0.9315 0.56252 0.0
C3439 C 0.72429 0.94388 0.54421 0.0
C3440 C 0.73573 0.9454 0.52421 0.0
C3441 C 0.72531 0.95936 0.50676 0.0
C3442 C 0.74295 0.98153 0.50401 0.0
C3443 C 0.71618 0.94454 0.4824 0.0
C3444 C 0.70563 0.96506 0.51966 0.0
C3445 C 0.70538 0.9564 0.54141 0.0
C3446 C 0.68814 0.9592 0.55599 0.0
C3447 C 0.67025 0.97021 0.54756 0.0
C3448 C 0.6698 0.97796 0.52477 0.0
C3449 C 0.6881 0.976 0.51111 0.0
H3450 H 0.40086 0.45289 0.80674 0.0
H3451 H 0.41283 0.45083 0.73268 0.0
H3452 H 0.38547 0.41264 0.72339 0.0
H3453 H 0.3944 0.39517 0.81417 0.0
H3454 H 0.36997 0.39348 0.8311 0.0
H3455 H 0.39005 0.42077 0.83188 0.0
H3456 H 0.35623 0.44017 0.81532 0.0
H3457 H 0.33682 0.41373 0.81896 0.0
H3458 H 0.33532 0.42558 0.79078 0.0
H3459 H 0.357 0.37313 0.72292 0.0
H3460 H 0.32951 0.3382 0.73121 0.0
H3461 H 0.33267 0.36914 0.80441 0.0
C3462 C 0.39693 0.44526 0.78841 0.0
C3463 C 0.40854 0.45563 0.77038 0.0
C3464 C 0.40409 0.44348 0.74686 0.0
C3465 C 0.3885 0.42174 0.74138 0.0
C3466 C 0.37711 0.41224 0.75956 0.0
C3467 C 0.38084 0.42386 0.7825 0.0
C3468 C 0.3659 0.4102 0.79863 0.0
C3469 C 0.38099 0.40456 0.82022 0.0
C3470 C 0.3473 0.42308 0.8064 0.0
C3471 C 0.35417 0.38875 0.78179 0.0
C3472 C 0.3606 0.39017 0.75916 0.0
C3473 C 0.35171 0.37218 0.74056 0.0
C3474 C 0.33597 0.35249 0.74536 0.0
C3475 C 0.32863 0.35125 0.7683 0.0
C3476 C 0.33764 0.36982 0.78659 0.0
H3477 H 0.23203 0.6272 0.24141 0.0
H3478 H 0.20686 0.63325 0.31031 0.0
H3479 H 0.22883 0.67373 0.31931 0.0
H3480 H 0.2878 0.66516 0.25351 0.0
H3481 H 0.28434 0.67842 0.22659 0.0
H3482 H 0.26928 0.649 0.22742 0.0
H3483 H 0.23002 0.66111 0.21387 0.0
H3484 H 0.24538 0.69058 0.21386 0.0
H3485 H 0.22161 0.6846 0.23145 0.0
H3486 H 0.26426 0.70722 0.32382 0.0
H3487 H 0.29311 0.7415 0.31667 0.0
H3488 H 0.27896 0.72083 0.24086 0.0
C3489 C 0.23164 0.63707 0.25853 0.0
C3490 C 0.21988 0.627 0.27631 0.0
C3491 C 0.21752 0.64046 0.29754 0.0
C3492 C 0.22966 0.6634 0.30262 0.0
C3493 C 0.24249 0.6725 0.28539 0.0
C3494 C 0.24226 0.66034 0.26318 0.0
C3495 C 0.25412 0.67552 0.24646 0.0
C3496 C 0.27511 0.66646 0.23801 0.0
C3497 C 0.23674 0.67811 0.22516 0.0
C3498 C 0.2619 0.69776 0.26328 0.0
C3499 C 0.25609 0.69519 0.28597 0.0
C3500 C 0.2666 0.71092 0.30582 0.0
C3501 C 0.282 0.73076 0.30182 0.0
C3502 C 0.28445 0.73554 0.27841 0.0
C3503 C 0.27529 0.71842 0.25888 0.0
H3504 H 0.50297 0.69062 0.45337 0.0
H3505 H 0.54078 0.7369 0.51551 0.0
H3506 H 0.5498 0.70335 0.53401 0.0
H3507 H 0.47758 0.64385 0.48691 0.0
H3508 H 0.48028 0.6203 0.46525 0.0
H3509 H 0.47709 0.64779 0.45575 0.0
H3510 H 0.5151 0.65013 0.43625 0.0
H3511 H 0.5184 0.62268 0.44577 0.0
H3512 H 0.54167 0.64792 0.45405 0.0
H3513 H 0.55569 0.66424 0.54689 0.0
H3514 H 0.55575 0.62392 0.55359 0.0
H3515 H 0.51335 0.59947 0.48499 0.0
C3516 C 0.51319 0.69379 0.47087 0.0
C3517 C 0.52105 0.71733 0.48268 0.0
C3518 C 0.53428 0.71976 0.50568 0.0
C3519 C 0.53963 0.7005 0.5165 0.0
C3520 C 0.53165 0.6779 0.50466 0.0
C3521 C 0.51854 0.6743 0.48234 0.0
C3522 C 0.51179 0.64778 0.47409 0.0
C3523 C 0.48509 0.63944 0.47026 0.0
C3524 C 0.52236 0.64177 0.45117 0.0
C3525 C 0.52285 0.6372 0.49522 0.0
C3526 C 0.53447 0.65515 0.51246 0.0
C3527 C 0.54645 0.65023 0.53341 0.0
C3528 C 0.54648 0.62686 0.53707 0.0
C3529 C 0.53457 0.60756 0.52019 0.0
C3530 C 0.52252 0.61326 0.49874 0.0
H3531 H 0.67466 0.32356 0.64989 0.0
H3532 H 0.6199 0.29255 0.68945 0.0
H3533 H 0.64928 0.28349 0.7189 0.0
H3534 H 0.71432 0.28362 0.66214 0.0
H3535 H 0.7408 0.30565 0.66661 0.0
H3536 H 0.71576 0.30916 0.64712 0.0
H3537 H 0.71656 0.34874 0.67167 0.0
H3538 H 0.74165 0.34532 0.69109 0.0
H3539 H 0.71581 0.35031 0.70351 0.0
H3540 H 0.68342 0.27514 0.74322 0.0
H3541 H 0.72103 0.27253 0.76442 0.0
H3542 H 0.75707 0.31315 0.71473 0.0
C3543 C 0.66891 0.31478 0.66469 0.0
C3544 C 0.64452 0.30875 0.66699 0.0
C3545 C 0.63814 0.29753 0.68699 0.0
C3546 C 0.65481 0.29214 0.70394 0.0
C3547 C 0.67841 0.29828 0.70135 0.0
C3548 C 0.68571 0.30969 0.68254 0.0
C3549 C 0.71262 0.31511 0.68532 0.0
C3550 C 0.7214 0.30265 0.66402 0.0
C3551 C 0.72223 0.34144 0.68806 0.0
C3552 C 0.71898 0.30503 0.70851 0.0
C3553 C 0.69872 0.29502 0.71694 0.0
C3554 C 0.6994 0.2834 0.73707 0.0
C3555 C 0.72116 0.2822 0.74923 0.0
C3556 C 0.74262 0.29325 0.74218 0.0
C3557 C 0.74129 0.30471 0.72113 0.0
H3558 H 0.05262 0.37351 0.9664 0.0
H3559 H 0.9957 0.34335 1.00339 0.0
H3560 H 0.9943 0.38285 0.02227 0.0
H3561 H 0.0784 0.41535 0.0187 0.0
H3562 H 0.08986 0.43939 1.00401 0.0
H3563 H 0.08848 0.41025 0.99006 0.0
H3564 H 0.06345 0.41322 0.9521 0.0
H3565 H 0.0648 0.44356 0.96126 0.0
H3566 H 0.03691 0.42405 0.9532 0.0
H3567 H 0.99708 0.42842 0.03406 0.0
H3568 H 1.0072 0.47115 0.04179 0.0
H3569 H 0.06327 0.47188 0.99824 0.0
C3570 C 0.04001 0.37506 0.97877 0.0
C3571 C 0.02425 0.35474 0.98326 0.0
C3572 C 1.00823 0.35813 0.99971 0.0
C3573 C 1.00713 0.38077 0.01033 0.0
C3574 C 0.02242 0.40038 1.00484 0.0
C3575 C 0.03901 0.3975 0.98992 0.0
C3576 C 0.05469 0.421 0.98831 0.0
C3577 C 0.07933 0.42153 1.00087 0.0
C3578 C 0.05502 0.42573 0.96218 0.0
C3579 C 0.04304 0.43805 1.00246 0.0
C3580 C 0.02469 0.42578 0.01233 0.0
C3581 C 1.01152 0.43784 0.0263 0.0
C3582 C 1.01727 0.46255 0.03041 0.0
C3583 C 0.03595 0.47593 0.02054 0.0
C3584 C 0.04891 0.46293 1.0063 0.0
H3585 H 0.02761 0.82003 0.17676 0.0
H3586 H 0.99127 0.76781 0.11837 0.0
H3587 H 0.95724 0.76017 0.13964 0.0
H3588 H 1.00647 0.79462 0.22572 0.0
H3589 H 1.00106 0.82074 0.24148 0.0
H3590 H 0.02307 0.82263 0.2216 0.0
H3591 H 1.00266 0.85016 0.19827 0.0
H3592 H 0.98035 0.84803 0.21793 0.0
H3593 H 0.9723 0.84082 0.18609 0.0
H3594 H 0.92733 0.75635 0.16737 0.0
H3595 H 0.90413 0.7562 0.20124 0.0
H3596 H 0.95726 0.81231 0.24123 0.0
C3597 C 1.01254 0.80694 0.16859 0.0
C3598 C 1.01264 0.7941 0.14605 0.0
C3599 C 0.99217 0.77756 0.13575 0.0
C3600 C 0.97245 0.77319 0.14761 0.0
C3601 C 0.97281 0.78604 0.16959 0.0
C3602 C 0.99209 0.80283 0.17993 0.0
C3603 C 0.98714 0.81453 0.20347 0.0
C3604 C 1.00553 0.81301 0.2243 0.0
C3605 C 0.98553 0.83989 0.20132 0.0
C3606 C 0.96323 0.80006 0.20567 0.0
C3607 C 0.95497 0.7843 0.18547 0.0
C3608 C 0.93348 0.76877 0.18326 0.0
C3609 C 0.92035 0.76887 0.20254 0.0
C3610 C 0.92889 0.78416 0.22391 0.0
C3611 C 0.95037 0.80032 0.22517 0.0
H3612 H 0.56377 0.31713 0.15603 0.0
H3613 H 0.49798 0.32727 0.17851 0.0
H3614 H 0.50145 0.36343 0.15951 0.0
H3615 H 0.59371 0.37819 0.16287 0.0
H3616 H 0.60756 0.37459 0.13624 0.0
H3617 H 0.60049 0.35056 0.15307 0.0
H3618 H 0.57692 0.32564 0.11474 0.0
H3619 H 0.58348 0.34977 0.09791 0.0
H3620 H 0.55353 0.33585 0.0988 0.0
H3621 H 0.51103 0.39738 0.13575 0.0
H3622 H 0.5283 0.42876 0.1132 0.0
H3623 H 0.58769 0.39638 0.10593 0.0
C3624 C 0.55061 0.32751 0.1577 0.0
C3625 C 0.53103 0.31999 0.16951 0.0
C3626 C 0.51346 0.33324 0.17022 0.0
C3627 C 0.51516 0.35362 0.15923 0.0
C3628 C 0.5344 0.36035 0.14724 0.0
C3629 C 0.55195 0.34781 0.14659 0.0
C3630 C 0.57033 0.35835 0.13176 0.0
C3631 C 0.59445 0.36587 0.1469 0.0
C3632 C 0.57111 0.34139 0.10949 0.0
C3633 C 0.56079 0.37912 0.12482 0.0
C3634 C 0.53981 0.37973 0.1335 0.0
C3635 C 0.52754 0.39714 0.12901 0.0
C3636 C 0.53736 0.4148 0.11603 0.0
C3637 C 0.55938 0.41509 0.10796 0.0
C3638 C 0.57092 0.3967 0.11206 0.0
H3639 H 0.98468 0.35479 0.34679 0.0
H3640 H 0.99636 0.28457 0.34085 0.0
H3641 H 0.95455 0.26966 0.326 0.0
H3642 H 0.929 0.34606 0.36433 0.0
H3643 H 0.91646 0.36423 0.34524 0.0
H3644 H 0.9476 0.36999 0.35398 0.0
H3645 H 0.9531 0.3681 0.30996 0.0
H3646 H 0.92241 0.36042 0.29988 0.0
H3647 H 0.94129 0.34194 0.2897 0.0
H3648 H 0.90997 0.26159 0.31319 0.0
H3649 H 0.86846 0.26165 0.30157 0.0
H3650 H 0.88344 0.33646 0.3143 0.0
C3651 C 0.97883 0.3364 0.34118 0.0
C3652 C 0.99485 0.32109 0.34418 0.0
C3653 C 0.98529 0.29695 0.33802 0.0
C3654 C 0.96125 0.28821 0.3297 0.0
C3655 C 0.94614 0.30362 0.32696 0.0
C3656 C 0.95467 0.32732 0.3319 0.0
C3657 C 0.93436 0.33989 0.32678 0.0
C3658 C 0.93169 0.356 0.34892 0.0
C3659 C 0.93803 0.35337 0.3053 0.0
C3660 C 0.91303 0.31973 0.32008 0.0
C3661 C 0.92043 0.29896 0.31987 0.0
C3662 C 0.90426 0.27792 0.31359 0.0
C3663 C 0.8803 0.27806 0.30741 0.0
C3664 C 0.87162 0.29889 0.30778 0.0
C3665 C 0.88876 0.3201 0.31394 0.0
H3666 H 0.03465 0.6734 0.68667 0.0
H3667 H 1.01784 0.71721 0.63302 0.0
H3668 H 0.01954 0.68686 0.60141 0.0
H3669 H 0.07442 0.64567 0.65477 0.0
H3670 H 0.06411 0.61676 0.6619 0.0
H3671 H 0.0615 0.64162 0.6819 0.0
H3672 H 1.01703 0.62566 0.67937 0.0
H3673 H 0.01957 0.60071 0.65941 0.0
H3674 H 0.99951 0.61865 0.65049 0.0
H3675 H 0.02057 0.65269 0.57472 0.0
H3676 H 0.02358 0.61574 0.55362 0.0
H3677 H 0.04297 0.59109 0.62055 0.0
C3678 C 0.03108 0.67644 0.66828 0.0
C3679 C 0.02581 0.69813 0.66281 0.0
C3680 C 0.02155 0.70109 0.63828 0.0
C3681 C 0.02254 0.68381 0.61987 0.0
C3682 C 0.02756 0.66294 0.62567 0.0
C3683 C 0.03169 0.65883 0.64912 0.0
C3684 C 0.03633 0.6341 0.64935 0.0
C3685 C 0.06054 0.63458 0.66278 0.0
C3686 C 1.01697 0.61888 0.66032 0.0
C3687 C 0.03507 0.62573 0.6225 0.0
C3688 C 0.0295 0.64282 0.60953 0.0
C3689 C 0.02571 0.63948 0.58471 0.0
C3690 C 0.02808 0.61842 0.57263 0.0
C3691 C 0.03531 0.60077 0.5847 0.0
C3692 C 0.03821 0.60432 0.61036 0.0
H3693 H 0.63946 0.85996 0.83833 0.0
H3694 H 0.61095 0.79124 0.85534 0.0
H3695 H 0.64551 0.77769 0.84284 0.0
H3696 H 0.66806 0.8431 0.78715 0.0
H3697 H 0.69425 0.86539 0.79486 0.0
H3698 H 0.66711 0.8702 0.80444 0.0
H3699 H 0.68672 0.8791 0.84827 0.0
H3700 H 0.71392 0.87435 0.83876 0.0
H3701 H 0.70117 0.85816 0.86104 0.0
H3702 H 0.68328 0.77034 0.82662 0.0
H3703 H 0.72124 0.77084 0.81256 0.0
H3704 H 0.73015 0.84441 0.80778 0.0
C3705 C 0.64046 0.84205 0.83956 0.0
C3706 C 0.62161 0.8268 0.84811 0.0
C3707 C 0.62452 0.80361 0.84928 0.0
C3708 C 0.64433 0.79562 0.84199 0.0
C3709 C 0.66232 0.81089 0.83379 0.0
C3710 C 0.66088 0.83382 0.83297 0.0
C3711 C 0.6836 0.84669 0.82452 0.0
C3712 C 0.6779 0.85697 0.80136 0.0
C3713 C 0.69715 0.86572 0.84432 0.0
C3714 C 0.69762 0.82739 0.82004 0.0
C3715 C 0.6847 0.80688 0.82547 0.0
C3716 C 0.69331 0.78648 0.82249 0.0
C3717 C 0.71525 0.78686 0.81407 0.0
C3718 C 0.72962 0.80731 0.8083 0.0
C3719 C 0.72027 0.82813 0.81171 0.0
H3720 H 0.48087 0.49536 0.69639 0.0
H3721 H 0.46241 0.56194 0.71366 0.0
H3722 H 0.47581 0.57443 0.67614 0.0
H3723 H 0.53306 0.51593 0.6702 0.0
H3724 H 0.52809 0.49194 0.64658 0.0
H3725 H 0.51654 0.48792 0.67438 0.0
H3726 H 0.47486 0.47311 0.65143 0.0
H3727 H 0.48667 0.47686 0.62369 0.0
H3728 H 0.46322 0.49077 0.6311 0.0
H3729 H 0.49033 0.57948 0.63536 0.0
H3730 H 0.50636 0.57716 0.5966 0.0
H3731 H 0.51819 0.50854 0.60618 0.0
C3732 C 0.47959 0.51254 0.69219 0.0
C3733 C 0.47038 0.52765 0.70811 0.0
C3734 C 0.46915 0.54998 0.70183 0.0
C3735 C 0.47677 0.55724 0.68048 0.0
C3736 C 0.48567 0.54201 0.66514 0.0
C3737 C 0.48715 0.52008 0.67073 0.0
C3738 C 0.49749 0.50717 0.65106 0.0
C3739 C 0.52015 0.50035 0.66116 0.0
C3740 C 0.47949 0.4857 0.63859 0.0
C3741 C 0.50224 0.52544 0.634 0.0
C3742 C 0.49479 0.54524 0.64221 0.0
C3743 C 0.4962 0.56402 0.62889 0.0
C3744 C 0.50523 0.56254 0.60675 0.0
C3745 C 0.51339 0.54268 0.59806 0.0
C3746 C 0.5121 0.52402 0.61222 0.0
H3747 H 0.76563 0.19218 0.01491 0.0
H3748 H 0.81362 0.15479 0.98332 0.0
H3749 H 0.8143 0.17888 0.94996 0.0
H3750 H 0.7314 0.18966 0.96228 0.0
H3751 H 0.72315 0.21721 0.96866 0.0
H3752 H 0.73101 0.20163 0.99277 0.0
H3753 H 0.76295 0.2373 0.012 0.0
H3754 H 0.75514 0.25322 0.98802 0.0
H3755 H 0.78493 0.25001 0.99464 0.0
H3756 H 0.80415 0.20131 0.91764 0.0
H3757 H 0.78364 0.21969 0.88757 0.0
H3758 H 0.74165 0.24258 0.94031 0.0
C3759 C 0.77708 0.18989 1.00146 0.0
C3760 C 0.79015 0.17241 1.00163 0.0
C3761 C 0.80394 0.1686 0.98335 0.0
C3762 C 0.80446 0.18222 0.96457 0.0
C3763 C 0.79077 0.19904 0.96449 0.0
C3764 C 0.77725 0.20282 0.98243 0.0
C3765 C 0.76085 0.21862 0.97618 0.0
C3766 C 0.7351 0.20602 0.9749 0.0
C3767 C 0.76632 0.24113 0.99375 0.0
C3768 C 0.76704 0.22301 0.95173 0.0
C3769 C 0.78447 0.21176 0.94542 0.0
C3770 C 0.79103 0.21082 0.92259 0.0
C3771 C 0.77927 0.22142 0.90566 0.0
C3772 C 0.76126 0.23301 0.91176 0.0
C3773 C 0.75542 0.23406 0.9352 0.0
H3774 H 0.15424 0.58672 0.19514 0.0
H3775 H 0.17084 0.51838 0.18786 0.0
H3776 H 0.147 0.50892 0.148 0.0
H3777 H 0.0971 0.56984 0.17437 0.0
H3778 H 0.09425 0.59398 0.15815 0.0
H3779 H 0.11657 0.59769 0.18331 0.0
H3780 H 0.14886 0.61184 0.15709 0.0
H3781 H 0.12635 0.60914 0.13217 0.0
H3782 H 0.15025 0.59445 0.12941 0.0
H3783 H 0.11873 0.50563 0.11245 0.0
H3784 H 0.08819 0.50904 0.08056 0.0
H3785 H 0.08759 0.57855 0.11337 0.0
C3786 C 0.15336 0.57012 0.1846 0.0
C3787 C 0.1641 0.55319 0.19367 0.0
C3788 C 0.16261 0.53138 0.18042 0.0
C3789 C 0.14928 0.52598 0.15799 0.0
C3790 C 0.13793 0.54275 0.14974 0.0
C3791 C 0.14003 0.56448 0.16244 0.0
C3792 C 0.12407 0.57835 0.15086 0.0
C3793 C 0.10699 0.58535 0.16769 0.0
C3794 C 0.13823 0.5997 0.14184 0.0
C3795 C 0.11171 0.56047 0.13046 0.0
C3796 C 0.12041 0.54034 0.1298 0.0
C3797 C 0.1119 0.52135 0.11251 0.0
C3798 C 0.09455 0.52338 0.09472 0.0
C3799 C 0.08593 0.54407 0.09495 0.0
C3800 C 0.09393 0.56252 0.11331 0.0
H3801 H 0.84446 0.8618 0.46865 0.0
H3802 H 0.77301 0.86897 0.47241 0.0
H3803 H 0.7618 0.84978 0.43075 0.0
H3804 H 0.84699 0.87367 0.40911 0.0
H3805 H 0.86423 0.85276 0.40077 0.0
H3806 H 0.86649 0.86506 0.43158 0.0
H3807 H 0.85617 0.82383 0.44404 0.0
H3808 H 0.85406 0.81144 0.41324 0.0
H3809 H 0.82978 0.80412 0.42991 0.0
H3810 H 0.75903 0.83381 0.38736 0.0
H3811 H 0.76406 0.81933 0.34634 0.0
H3812 H 0.83675 0.81989 0.36941 0.0
C3813 C 0.8263 0.85849 0.46094 0.0
C3814 C 0.80939 0.86622 0.47418 0.0
C3815 C 0.78606 0.86258 0.463 0.0
C3816 C 0.77959 0.85184 0.43921 0.0
C3817 C 0.79663 0.8447 0.42653 0.0
C3818 C 0.81948 0.84754 0.43705 0.0
C3819 C 0.83442 0.83897 0.41892 0.0
C3820 C 0.85421 0.8588 0.41486 0.0
C3821 C 0.84419 0.81836 0.42701 0.0
C3822 C 0.81653 0.83128 0.39652 0.0
C3823 C 0.79488 0.83491 0.40143 0.0
C3824 C 0.77584 0.83059 0.38351 0.0
C3825 C 0.77889 0.82239 0.3601 0.0
C3826 C 0.8007 0.81813 0.35438 0.0
C3827 C 0.81975 0.82247 0.37309 0.0
H3828 H 0.49558 0.50859 0.84771 0.0
H3829 H 0.45496 0.56229 0.85612 0.0
H3830 H 0.46754 0.56855 0.89911 0.0
H3831 H 0.4872 0.48558 0.90216 0.0
H3832 H 0.51661 0.48211 0.91043 0.0
H3833 H 0.50571 0.48135 0.87938 0.0
H3834 H 0.54019 0.51448 0.87496 0.0
H3835 H 0.55139 0.51499 0.90593 0.0
H3836 H 0.54567 0.54119 0.89509 0.0
H3837 H 0.47478 0.56174 0.94074 0.0
H3838 H 0.48988 0.5546 0.98038 0.0
H3839 H 0.53691 0.51554 0.94935 0.0
C3840 C 0.49008 0.52225 0.85848 0.0
C3841 C 0.47376 0.53465 0.84812 0.0
C3842 C 0.46698 0.55218 0.86324 0.0
C3843 C 0.47395 0.55586 0.8879 0.0
C3844 C 0.48868 0.54261 0.89768 0.0
C3845 C 0.49779 0.527 0.88362 0.0
C3846 C 0.51429 0.51613 0.89975 0.0
C3847 C 0.50542 0.48972 0.8978 0.0
C3848 C 0.53939 0.52206 0.89356 0.0
C3849 C 0.5125 0.52795 0.92477 0.0
C3850 C 0.49674 0.54233 0.92274 0.0
C3851 C 0.48858 0.5521 0.94266 0.0
C3852 C 0.49775 0.54839 0.96536 0.0
C3853 C 0.51642 0.53664 0.96876 0.0
C3854 C 0.52345 0.52557 0.94784 0.0
H3855 H 0.81574 0.21073 0.12976 0.0
H3856 H 0.76456 0.15306 0.14657 0.0
H3857 H 0.76256 0.17541 0.18521 0.0
H3858 H 0.84723 0.22977 0.18895 0.0
H3859 H 0.85026 0.26016 0.18562 0.0
H3860 H 0.84858 0.23918 0.15976 0.0
H3861 H 0.81356 0.25392 0.13941 0.0
H3862 H 0.81498 0.27473 0.16537 0.0
H3863 H 0.78814 0.25415 0.15453 0.0
H3864 H 0.75821 0.20772 0.21499 0.0
H3865 H 0.76258 0.24361 0.24305 0.0
H3866 H 0.82273 0.27572 0.21292 0.0
C3867 C 0.8046 0.20253 0.14184 0.0
C3868 C 0.79028 0.18028 0.13534 0.0
C3869 C 0.77569 0.17015 0.15137 0.0
C3870 C 0.77429 0.18271 0.1732 0.0
C3871 C 0.78786 0.20504 0.17857 0.0
C3872 C 0.8032 0.21467 0.16373 0.0
C3873 C 0.8152 0.2393 0.17347 0.0
C3874 C 0.84191 0.24225 0.17719 0.0
C3875 C 0.80752 0.25653 0.15723 0.0
C3876 C 0.80522 0.24139 0.19679 0.0
C3877 C 0.78844 0.22198 0.19861 0.0
C3878 C 0.77289 0.22204 0.21537 0.0
C3879 C 0.77588 0.24192 0.23183 0.0
C3880 C 0.7952 0.26016 0.23257 0.0
C3881 C 0.80935 0.2606 0.21412 0.0
H3882 H 0.16401 0.53208 0.33442 0.0
H3883 H 0.18911 0.60374 0.3252 0.0
H3884 H 0.17413 0.61703 0.36151 0.0
H3885 H 0.11006 0.54323 0.3464 0.0
H3886 H 0.10462 0.52221 0.36706 0.0
H3887 H 0.12299 0.51797 0.3443 0.0
H3888 H 0.15617 0.515 0.37715 0.0
H3889 H 0.13795 0.51979 0.40009 0.0
H3890 H 0.16633 0.53842 0.40122 0.0
H3891 H 0.15512 0.6232 0.39514 0.0
H3892 H 0.12223 0.62303 0.41857 0.0
H3893 H 0.10341 0.54789 0.40445 0.0
C3894 C 0.16677 0.55044 0.34075 0.0
C3895 C 0.17925 0.56722 0.32865 0.0
C3896 C 0.18101 0.59105 0.33566 0.0
C3897 C 0.17269 0.59865 0.35624 0.0
C3898 C 0.16139 0.58194 0.36874 0.0
C3899 C 0.1573 0.55837 0.3608 0.0
C3900 C 0.13956 0.54478 0.37418 0.0
C3901 C 0.11804 0.53127 0.35696 0.0
C3902 C 0.15067 0.52854 0.38906 0.0
C3903 C 0.1338 0.56461 0.38993 0.0
C3904 C 0.14756 0.5857 0.38719 0.0
C3905 C 0.14426 0.6069 0.39772 0.0
C3906 C 0.12554 0.6067 0.41063 0.0
C3907 C 0.11054 0.58551 0.41242 0.0
C3908 C 0.11499 0.56415 0.4029 0.0
H3909 H 0.82847 0.89398 0.64027 0.0
H3910 H 0.78983 0.8336 0.59206 0.0
H3911 H 0.77871 0.81404 0.62628 0.0
H3912 H 0.85078 0.86175 0.68592 0.0
H3913 H 0.84736 0.88131 0.71127 0.0
H3914 H 0.85216 0.89207 0.68322 0.0
H3915 H 0.81441 0.90838 0.68319 0.0
H3916 H 0.80954 0.89755 0.71123 0.0
H3917 H 0.7872 0.88919 0.6858 0.0
H3918 H 0.76796 0.80178 0.66456 0.0
H3919 H 0.76385 0.79481 0.70562 0.0
H3920 H 0.81356 0.85816 0.73259 0.0
C3921 C 0.81762 0.87668 0.63696 0.0
C3922 C 0.81004 0.86554 0.61295 0.0
C3923 C 0.79597 0.84279 0.60982 0.0
C3924 C 0.7894 0.83141 0.62931 0.0
C3925 C 0.79697 0.84266 0.65243 0.0
C3926 C 0.81098 0.86466 0.65662 0.0
C3927 C 0.81686 0.87197 0.68383 0.0
C3928 C 0.84338 0.87707 0.6915 0.0
C3929 C 0.80639 0.89304 0.69146 0.0
C3930 C 0.80455 0.85038 0.69391 0.0
C3931 C 0.79274 0.83415 0.67519 0.0
C3932 C 0.77828 0.81381 0.67928 0.0
C3933 C 0.77665 0.80933 0.70291 0.0
C3934 C 0.79036 0.82389 0.72279 0.0
C3935 C 0.80373 0.84558 0.71807 0.0
H3936 H 0.76343 0.4612 0.53461 0.0
H3937 H 0.752 0.47961 0.4628 0.0
H3938 H 0.71753 0.49502 0.47348 0.0
H3939 H 0.70371 0.44674 0.54784 0.0
H3940 H 0.7118 0.46117 0.57805 0.0
H3941 H 0.73247 0.44799 0.56322 0.0
H3942 H 0.76251 0.48714 0.57143 0.0
H3943 H 0.74202 0.50066 0.58607 0.0
H3944 H 0.75444 0.5127 0.56125 0.0
H3945 H 0.68862 0.51289 0.49396 0.0
H3946 H 0.6673 0.53227 0.52229 0.0
H3947 H 0.69886 0.50127 0.58022 0.0
C3948 C 0.7531 0.46751 0.52073 0.0
C3949 C 0.75965 0.46874 0.49773 0.0
C3950 C 0.74668 0.4783 0.48041 0.0
C3951 C 0.72722 0.48696 0.48631 0.0
C3952 C 0.7216 0.48601 0.50953 0.0
C3953 C 0.73429 0.47661 0.52644 0.0
C3954 C 0.72742 0.48077 0.55104 0.0
C3955 C 0.71828 0.45779 0.56058 0.0
C3956 C 0.7478 0.49622 0.56844 0.0
C3957 C 0.70836 0.49362 0.54535 0.0
C3958 C 0.70529 0.49662 0.52142 0.0
C3959 C 0.69042 0.51021 0.51261 0.0
C3960 C 0.67844 0.52109 0.52883 0.0
C3961 C 0.68143 0.51806 0.55341 0.0
C3962 C 0.69633 0.50393 0.56159 0.0
H3963 H 0.21907 0.13881 0.54238 0.0
H3964 H 0.19373 0.17427 0.48512 0.0
H3965 H 0.15496 0.14796 0.48141 0.0
H3966 H 0.1831 0.07844 0.52523 0.0
H3967 H 0.17879 0.07634 0.55574 0.0
H3968 H 0.20481 0.09485 0.54899 0.0
H3969 H 0.19261 0.12766 0.57691 0.0
H3970 H 0.16566 0.1085 0.58031 0.0
H3971 H 0.16502 0.13567 0.56883 0.0
H3972 H 0.11965 0.11799 0.48304 0.0
H3973 H 0.08717 0.08972 0.49338 0.0
H3974 H 0.13237 0.07553 0.55338 0.0
C3975 C 0.20538 0.14063 0.52878 0.0
C3976 C 0.20957 0.15794 0.51323 0.0
C3977 C 0.19102 0.16073 0.49662 0.0
C3978 C 0.16899 0.14584 0.49441 0.0
C3979 C 0.16543 0.12877 0.50966 0.0
C3980 C 0.18286 0.12637 0.52698 0.0
C3981 C 0.17308 0.1088 0.54325 0.0
C3982 C 0.18578 0.08845 0.54327 0.0
C3983 C 0.17416 0.12088 0.56884 0.0
C3984 C 0.14787 0.10078 0.53139 0.0
C3985 C 0.14406 0.11263 0.51206 0.0
C3986 C 0.12239 0.10867 0.49819 0.0
C3987 C 0.10398 0.09245 0.50428 0.0
C3988 C 0.107 0.08019 0.52423 0.0
C3989 C 0.12946 0.08434 0.53787 0.0
H3990 H 0.17166 1.00267 0.76813 0.0
H3991 H 0.1875 1.009 0.84533 0.0
H3992 H 0.20709 0.97595 0.84152 0.0
H3993 H 0.16374 0.93673 0.75799 0.0
H3994 H 0.17717 0.93766 0.73087 0.0
H3995 H 0.16072 0.95923 0.73948 0.0
H3996 H 0.19662 0.99185 0.73735 0.0
H3997 H 0.21316 0.97044 0.72888 0.0
H3998 H 0.22415 0.99177 0.7547 0.0
H3999 H 0.22968 0.94635 0.82978 0.0
H4000 H 0.25343 0.9216 0.81047 0.0
H4001 H 0.22291 0.93311 0.74072 0.0
C4002 C 0.17832 0.99636 0.78419 0.0
C4003 C 0.1777 1.00816 0.80704 0.0
C4004 C 0.1875 1.00003 0.82765 0.0
C4005 C 0.19869 0.98125 0.8257 0.0
C4006 C 0.1998 0.97048 0.80298 0.0
C4007 C 0.18966 0.97748 0.78254 0.0
C4008 C 0.19525 0.96409 0.7603 0.0
C4009 C 0.17289 0.9485 0.74633 0.0
C4010 C 0.20806 0.98053 0.74439 0.0
C4011 C 0.21116 0.94964 0.77148 0.0
C4012 C 0.21312 0.95325 0.79613 0.0
C4013 C 0.22793 0.943 0.81046 0.0
C4014 C 0.24134 0.92891 0.79933 0.0
C4015 C 0.2401 0.92539 0.77408 0.0
C4016 C 0.22439 0.93557 0.76006 0.0
H4017 H 0.3954 0.95764 0.98547 0.0
H4018 H 0.36398 0.99315 0.04011 0.0
H4019 H 0.40258 0.01769 0.05639 0.0
H4020 H 0.44884 0.95664 0.02078 0.0
H4021 H 0.46668 0.96258 0.99726 0.0
H4022 H 0.4366 0.94768 0.98989 0.0
H4023 H 0.42865 0.97875 0.96292 0.0
H4024 H 0.45886 0.99281 0.96983 0.0
H4025 H 0.43677 1.00917 0.97511 0.0
H4026 H 0.44373 0.03879 0.06571 0.0
H4027 H 0.48549 0.05723 0.06542 0.0
H4028 H 0.48922 1.00688 1.00549 0.0
C4029 C 0.39683 0.9708 1.00066 0.0
C4030 C 0.37732 0.97406 0.01159 0.0
C4031 C 0.37918 0.99108 0.03149 0.0
C4032 C 0.40086 1.00483 0.04092 0.0
C4033 C 0.42005 1.00117 0.02994 0.0
C4034 C 0.41824 0.98488 0.01002 0.0
C4035 C 0.44144 0.985 1.00115 0.0
C4036 C 0.44882 0.96158 1.00239 0.0
C4037 C 0.44135 0.99188 0.97574 0.0
C4038 C 0.45643 1.00381 0.01921 0.0
C4039 C 0.44389 1.01293 0.03573 0.0
C4040 C 0.45387 0.03181 0.05299 0.0
C4041 C 0.47728 0.04215 0.0527 0.0
C4042 C 0.48978 0.03307 0.03548 0.0
C4043 C 0.47961 1.01357 0.01899 0.0
H4044 H 0.8558 0.58998 0.84376 0.0
H4045 H 0.90936 0.58762 0.79679 0.0
H4046 H 0.90382 0.62409 0.78356 0.0
H4047 H 0.81727 0.60483 0.80703 0.0
H4048 H 0.80704 0.62537 0.82692 0.0
H4049 H 0.82011 0.60338 0.83882 0.0
H4050 H 0.85039 0.635 0.86706 0.0
H4051 H 0.83739 0.65731 0.85509 0.0
H4052 H 0.86816 0.65816 0.85483 0.0
H4053 H 0.88591 0.65196 0.76666 0.0
H4054 H 0.85614 0.6709 0.74788 0.0
H4055 H 0.81511 0.65853 0.80603 0.0
C4056 C 0.86686 0.59771 0.83138 0.0
C4057 C 0.88301 0.58616 0.82148 0.0
C4058 C 0.89704 0.59636 0.80496 0.0
C4059 C 0.89424 0.61727 0.79744 0.0
C4060 C 0.87769 0.628 0.8069 0.0
C4061 C 0.8644 0.61885 0.82378 0.0
C4062 C 0.84524 0.63184 0.82797 0.0
C4063 C 0.82101 0.61536 0.82496 0.0
C4064 C 0.85062 0.64645 0.8527 0.0
C4065 C 0.84777 0.64716 0.80828 0.0
C4066 C 0.86733 0.64546 0.79715 0.0
C4067 C 0.87112 0.65439 0.77576 0.0
C4068 C 0.85412 0.66476 0.76505 0.0
C4069 C 0.8339 0.6659 0.77588 0.0
C4070 C 0.83098 0.65799 0.79806 0.0
H4071 H 0.82287 0.63325 1.00315 0.0
H4072 H 0.8482 0.70071 0.04549 0.0
H4073 H 0.88631 0.68972 0.05626 0.0
H4074 H 0.84688 0.60172 0.04396 0.0
H4075 H 0.85294 0.58069 0.02141 0.0
H4076 H 0.82936 0.59533 0.01505 0.0
H4077 H 0.84758 0.60923 0.97799 0.0
H4078 H 0.87146 0.5949 0.9845 0.0
H4079 H 0.87731 0.62546 0.98162 0.0
H4080 H 0.92102 0.66955 0.06423 0.0
H4081 H 0.94624 0.64125 0.0721 0.0
H4082 H 0.89631 0.58746 0.02544 0.0
C4083 C 0.83646 0.64606 0.01434 0.0
C4084 C 0.83256 0.66804 0.02322 0.0
C4085 C 0.8508 0.68385 0.03831 0.0
C4086 C 0.87253 0.67778 0.0444 0.0
C4087 C 0.87561 0.65583 0.03534 0.0
C4088 C 0.85788 0.64021 0.02078 0.0
C4089 C 0.86429 0.61691 0.01515 0.0
C4090 C 0.84737 0.59754 0.02446 0.0
C4091 C 0.86522 0.61131 0.98821 0.0
C4092 C 0.88836 0.62155 0.02915 0.0
C4093 C 0.89492 0.64419 0.04036 0.0
C4094 C 0.91608 0.6519 0.05534 0.0
C4095 C 0.93035 0.63581 0.05961 0.0
C4096 C 0.92313 0.61237 0.04916 0.0
C4097 C 0.90226 0.60542 0.0333 0.0
H4098 H 0.20197 0.12023 0.78405 0.0
H4099 H 0.16202 0.14431 0.8378 0.0
H4100 H 0.18714 0.18363 0.8418 0.0
H4101 H 0.26067 0.15749 0.80326 0.0
H4102 H 0.26443 0.16213 0.77305 0.0
H4103 H 0.24595 0.13576 0.77886 0.0
H4104 H 0.21323 0.1463 0.74931 0.0
H4105 H 0.23209 0.17339 0.7461 0.0
H4106 H 0.20402 0.17331 0.75613 0.0
H4107 H 0.21642 0.21992 0.84043 0.0
H4108 H 0.24427 0.2529 0.83004 0.0
H4109 H 0.26334 0.20753 0.77356 0.0
C4110 C 0.19893 0.13377 0.79698 0.0
C4111 C 0.18079 0.12907 0.81157 0.0
C4112 C 0.17631 0.14741 0.82717 0.0
C4113 C 0.19048 0.16977 0.82949 0.0
C4114 C 0.20846 0.17382 0.81525 0.0
C4115 C 0.21237 0.15653 0.79878 0.0
C4116 C 0.23056 0.16656 0.78324 0.0
C4117 C 0.25161 0.15472 0.78472 0.0
C4118 C 0.2193 0.16478 0.75716 0.0
C4119 C 0.23736 0.19179 0.79469 0.0
C4120 C 0.22424 0.19546 0.81305 0.0
C4121 C 0.22673 0.21727 0.82605 0.0
C4122 C 0.24267 0.23595 0.81997 0.0
C4123 C 0.25615 0.23294 0.80101 0.0
C4124 C 0.25359 0.21039 0.78837 0.0
H4125 H 0.38628 0.953 0.34299 0.0
H4126 H 0.34809 0.98167 0.28787 0.0
H4127 H 0.32495 0.94252 0.27229 0.0
H4128 H 0.39205 0.90363 0.30961 0.0
H4129 H 0.38694 0.88421 0.33187 0.0
H4130 H 0.39861 0.91467 0.34099 0.0
H4131 H 0.36474 0.91721 0.36608 0.0
H4132 H 0.35315 0.88668 0.35749 0.0
H4133 H 0.33486 0.90719 0.35216 0.0
H4134 H 0.31044 0.90066 0.25956 0.0
H4135 H 0.29906 0.85775 0.2553 0.0
H4136 H 0.34542 0.85699 0.31973 0.0
C4137 C 0.37253 0.95091 0.32814 0.0
C4138 C 0.36846 0.96982 0.31662 0.0
C4139 C 0.35083 0.96702 0.29697 0.0
C4140 C 0.3378 0.94501 0.28799 0.0
C4141 C 0.34269 0.92642 0.2992 0.0
C4142 C 0.35903 0.92915 0.31932 0.0
C4143 C 0.36119 0.90619 0.32757 0.0
C4144 C 0.38618 0.90194 0.32748 0.0
C4145 C 0.35297 0.90423 0.35229 0.0
C4146 C 0.34435 0.89023 0.30831 0.0
C4147 C 0.33389 0.90219 0.2921 0.0
C4148 C 0.31803 0.89104 0.27242 0.0
C4149 C 0.3117 0.86689 0.27009 0.0
C4150 C 0.32132 0.85479 0.28738 0.0
C4151 C 0.33821 0.8663 0.30626 0.0
H4152 H 0.55786 0.38529 0.61986 0.0
H4153 H 0.58549 0.35716 0.55797 0.0
H4154 H 0.5816 0.3916 0.53855 0.0
H4155 H 0.51677 0.41374 0.58781 0.0
H4156 H 0.52182 0.43957 0.60913 0.0
H4157 H 0.52635 0.41254 0.61886 0.0
H4158 H 0.56872 0.43205 0.63677 0.0
H4159 H 0.56415 0.45914 0.62726 0.0
H4160 H 0.58809 0.4469 0.6181 0.0
H4161 H 0.57129 0.42832 0.52314 0.0
H4162 H 0.56202 0.46634 0.51637 0.0
H4163 H 0.54557 0.47592 0.58899 0.0
C4164 C 0.5637 0.38659 0.60249 0.0
C4165 C 0.57214 0.36761 0.59073 0.0
C4166 C 0.57882 0.37057 0.56767 0.0
C4167 C 0.57666 0.39042 0.55631 0.0
C4168 C 0.56797 0.40833 0.56795 0.0
C4169 C 0.5621 0.40697 0.59084 0.0
C4170 C 0.55375 0.42934 0.59929 0.0
C4171 C 0.52815 0.42344 0.60407 0.0
C4172 C 0.56962 0.44265 0.62169 0.0
C4173 C 0.55603 0.44333 0.57777 0.0
C4174 C 0.56373 0.43043 0.55969 0.0
C4175 C 0.56573 0.43864 0.53748 0.0
C4176 C 0.5603 0.46047 0.53369 0.0
C4177 C 0.55343 0.47495 0.55203 0.0
C4178 C 0.55123 0.46588 0.5745 0.0
H4179 H 0.43697 0.80233 0.43147 0.0
H4180 H 0.4699 0.75423 0.39125 0.0
H4181 H 0.43931 0.75032 0.35689 0.0
H4182 H 0.37708 0.77109 0.40796 0.0
H4183 H 0.36499 0.79674 0.40672 0.0
H4184 H 0.38957 0.79686 0.42869 0.0
H4185 H 0.41592 0.83262 0.41226 0.0
H4186 H 0.3884 0.83281 0.39509 0.0
H4187 H 0.41327 0.83155 0.37992 0.0
H4188 H 0.40573 0.75231 0.32574 0.0
H4189 H 0.37078 0.75888 0.30135 0.0
H4190 H 0.35976 0.80687 0.35998 0.0
C4191 C 0.43754 0.79082 0.4155 0.0
C4192 C 0.45611 0.7786 0.41415 0.0
C4193 C 0.45608 0.7638 0.39281 0.0
C4194 C 0.43872 0.76149 0.3731 0.0
C4195 C 0.42101 0.77398 0.37469 0.0
C4196 C 0.42013 0.78834 0.39535 0.0
C4197 C 0.39835 0.79894 0.39232 0.0
C4198 C 0.3815 0.79038 0.40997 0.0
C4199 C 0.40449 0.82557 0.39517 0.0
C4200 C 0.38801 0.78917 0.36656 0.0
C4201 C 0.40123 0.77461 0.35685 0.0
C4202 C 0.39532 0.76373 0.33329 0.0
C4203 C 0.3755 0.7678 0.31937 0.0
C4204 C 0.36175 0.783 0.3286 0.0
C4205 C 0.36854 0.79402 0.35256 0.0
H4206 H 0.06944 0.72217 0.12628 0.0
H4207 H 0.07786 0.75138 0.0602 0.0
H4208 H 0.07364 0.7119 0.03863 0.0
H4209 H 0.10657 0.68003 0.11117 0.0
H4210 H 0.09139 0.65824 0.12712 0.0
H4211 H 0.09314 0.6886 0.13686 0.0
H4212 H 0.04805 0.68136 0.13379 0.0
H4213 H 0.04616 0.65102 0.12407 0.0
H4214 H 0.03058 0.66787 0.10597 0.0
H4215 H 0.0695 0.66774 0.02415 0.0
H4216 H 0.06646 0.62515 0.01864 0.0
H4217 H 0.06324 0.62389 0.09451 0.0
C4218 C 0.06998 0.72028 0.10716 0.0
C4219 C 0.07202 0.74024 0.09467 0.0
C4220 C 0.07422 0.73664 0.06995 0.0
C4221 C 0.0724 0.71409 0.05761 0.0
C4222 C 0.06971 0.69485 0.07031 0.0
C4223 C 0.06906 0.69784 0.09472 0.0
C4224 C 0.06834 0.67459 0.10458 0.0
C4225 C 0.0912 0.67542 0.12092 0.0
C4226 C 0.04699 0.66834 0.11788 0.0
C4227 C 0.06668 0.6577 0.08178 0.0
C4228 C 0.06821 0.66988 0.06225 0.0
C4229 C 0.06824 0.65823 0.03943 0.0
C4230 C 0.06656 0.63385 0.03644 0.0
C4231 C 0.06434 0.62068 0.05596 0.0
C4232 C 0.0645 0.6331 0.07901 0.0
H4233 H 0.07801 0.32201 0.90684 0.0
H4234 H 0.08299 0.25996 0.93994 0.0
H4235 H 0.11887 0.25749 0.92067 0.0
H4236 H 0.09303 0.30029 0.85047 0.0
H4237 H 0.10755 0.32866 0.84505 0.0
H4238 H 0.08356 0.32577 0.86258 0.0
H4239 H 0.10963 0.35359 0.89776 0.0
H4240 H 0.13351 0.35691 0.88022 0.0
H4241 H 0.13722 0.34742 0.90933 0.0
H4242 H 0.15459 0.26258 0.89593 0.0
H4243 H 0.18703 0.27644 0.87267 0.0
H4244 H 0.15462 0.33319 0.85485 0.0
C4245 C 0.08659 0.30785 0.91037 0.0
C4246 C 0.07763 0.29117 0.92505 0.0
C4247 C 0.08967 0.27313 0.92909 0.0
C4248 C 0.10982 0.27144 0.91789 0.0
C4249 C 0.11734 0.28772 0.90255 0.0
C4250 C 0.1059 0.30557 0.89895 0.0
C4251 C 0.11643 0.32072 0.88139 0.0
C4252 C 0.09912 0.31873 0.85853 0.0
C4253 C 0.1247 0.34615 0.89288 0.0
C4254 C 0.13664 0.30954 0.87645 0.0
C4255 C 0.1368 0.29023 0.88831 0.0
C4256 C 0.15446 0.2776 0.88659 0.0
C4257 C 0.17271 0.28547 0.87326 0.0
C4258 C 0.1732 0.30585 0.86209 0.0
C4259 C 0.15458 0.31753 0.86322 0.0
H4260 H 0.57439 0.7499 0.90111 0.0
H4261 H 0.51683 0.78053 0.92107 0.0
H4262 H 0.50633 0.75012 0.9469 0.0
H4263 H 0.54515 0.6899 0.89849 0.0
H4264 H 0.57051 0.68041 0.91138 0.0
H4265 H 0.57407 0.70502 0.89492 0.0
H4266 H 0.60061 0.72997 0.93156 0.0
H4267 H 0.59673 0.70548 0.94828 0.0
H4268 H 0.58965 0.73239 0.96003 0.0
H4269 H 0.50198 0.71762 0.97065 0.0
H4270 H 0.49995 0.68029 0.98675 0.0
H4271 H 0.55919 0.66833 0.9514 0.0
C4272 C 0.55939 0.74983 0.91067 0.0
C4273 C 0.5461 0.76728 0.90892 0.0
C4274 C 0.52694 0.7671 0.92202 0.0
C4275 C 0.52101 0.75006 0.93691 0.0
C4276 C 0.53454 0.73331 0.93867 0.0
C4277 C 0.55313 0.73274 0.92575 0.0
C4278 C 0.56414 0.71214 0.93068 0.0
C4279 C 0.5634 0.6959 0.90748 0.0
C4280 C 0.58928 0.7205 0.94339 0.0
C4281 C 0.5481 0.70077 0.94743 0.0
C4282 C 0.53168 0.71385 0.95231 0.0
C4283 C 0.51473 0.70719 0.96701 0.0
C4284 C 0.51378 0.68605 0.97618 0.0
C4285 C 0.52945 0.6716 0.97042 0.0
C4286 C 0.54726 0.67929 0.95635 0.0
H4287 H 0.12021 0.78996 0.70727 0.0
H4288 H 0.09004 0.75419 0.76306 0.0
H4289 H 0.12974 0.75319 0.78191 0.0
H4290 H 0.16815 0.76223 0.70145 0.0
H4291 H 0.18942 0.78789 0.69865 0.0
H4292 H 0.15883 0.78657 0.68961 0.0
H4293 H 0.16039 0.82419 0.71826 0.0
H4294 H 0.19119 0.82572 0.72632 0.0
H4295 H 0.17226 0.82588 0.74922 0.0
H4296 H 0.17393 0.75321 0.79334 0.0
H4297 H 0.21697 0.75917 0.7992 0.0
H4298 H 0.22036 0.79757 0.73825 0.0
C4299 C 0.12194 0.78208 0.72359 0.0
C4300 C 0.10142 0.77213 0.73354 0.0
C4301 C 0.105 0.76212 0.75499 0.0
C4302 C 0.1277 0.76138 0.76584 0.0
C4303 C 0.1474 0.77109 0.75553 0.0
C4304 C 0.14477 0.78188 0.7352 0.0
C4305 C 0.16903 0.79183 0.72839 0.0
C4306 C 0.17149 0.78151 0.70301 0.0
C4307 C 0.17345 0.81849 0.73067 0.0
C4308 C 0.1856 0.78401 0.74723 0.0
C4309 C 0.17268 0.77203 0.76271 0.0
C4310 C 0.18398 0.7627 0.78125 0.0
C4311 C 0.20873 0.76588 0.78429 0.0
C4312 C 0.22274 0.77842 0.76907 0.0
C4313 C 0.2106 0.78771 0.75029 0.0
H4314 H 0.05689 0.37968 0.43992 0.0
H4315 H 0.0817 0.41966 0.38423 0.0
H4316 H 0.08151 0.45566 0.40968 0.0
H4317 H 1.01832 0.41565 0.46037 0.0
H4318 H 0.02517 0.4144 0.49191 0.0
H4319 H 0.02827 0.39088 0.47042 0.0
H4320 H 0.07135 0.39534 0.48842 0.0
H4321 H 0.06834 0.41885 0.51003 0.0
H4322 H 0.09097 0.42321 0.49089 0.0
H4323 H 0.07847 0.48766 0.43956 0.0
H4324 H 0.07203 0.51475 0.47199 0.0
H4325 H 0.04749 0.45741 0.51141 0.0
C4326 C 0.06268 0.39603 0.43324 0.0
C4327 C 0.06954 0.39633 0.40963 0.0
C4328 C 0.07654 0.41839 0.4019 0.0
C4329 C 0.07646 0.43918 0.41636 0.0
C4330 C 0.06944 0.43829 0.43906 0.0
C4331 C 0.06277 0.41741 0.44774 0.0
C4332 C 0.05578 0.42215 0.47303 0.0
C4333 C 0.03037 0.41004 0.47398 0.0
C4334 C 0.0726 0.41441 0.4917 0.0
C4335 C 0.05874 0.44879 0.47657 0.0
C4336 C 0.06707 0.45738 0.45668 0.0
C4337 C 0.07186 0.48107 0.45516 0.0
C4338 C 0.068 0.49651 0.47409 0.0
C4339 C 0.05879 0.48888 0.49486 0.0
C4340 C 0.05434 0.4643 0.49605 0.0
H4341 H 0.46271 0.29622 0.22048 0.0
H4342 H 0.46099 0.22517 0.23356 0.0
H4343 H 0.42385 0.22441 0.25068 0.0
H4344 H 0.43815 0.31331 0.27724 0.0
H4345 H 0.42187 0.33245 0.26355 0.0
H4346 H 0.44872 0.32795 0.25298 0.0
H4347 H 0.42696 0.31555 0.21022 0.0
H4348 H 0.40004 0.31986 0.22071 0.0
H4349 H 0.40154 0.29219 0.20502 0.0
H4350 H 0.3837 0.22971 0.26245 0.0
H4351 H 0.34791 0.24197 0.27307 0.0
H4352 H 0.37563 0.31151 0.25773 0.0
C4353 C 0.45493 0.28071 0.22767 0.0
C4354 C 0.46569 0.26081 0.22603 0.0
C4355 C 0.45403 0.24083 0.23504 0.0
C4356 C 0.43257 0.2402 0.24464 0.0
C4357 C 0.42244 0.25985 0.2458 0.0
C4358 C 0.43359 0.28004 0.23813 0.0
C4359 C 0.41893 0.29884 0.24194 0.0
C4360 C 0.43274 0.31936 0.25999 0.0
C4361 C 0.41143 0.3071 0.21805 0.0
C4362 C 0.39756 0.28593 0.25225 0.0
C4363 C 0.39997 0.26333 0.254 0.0
C4364 C 0.38206 0.2475 0.26151 0.0
C4365 C 0.36151 0.25468 0.26752 0.0
C4366 C 0.35841 0.27784 0.26676 0.0
C4367 C 0.37714 0.29373 0.25904 0.0
H4368 H 0.62096 0.52734 0.37471 0.0
H4369 H 0.61991 0.59957 0.3691 0.0
H4370 H 0.60057 0.60189 0.40569 0.0
H4371 H 0.56174 0.51554 0.39687 0.0
H4372 H 0.56958 0.49485 0.41575 0.0
H4373 H 0.58245 0.49836 0.3885 0.0
H4374 H 0.6237 0.5066 0.41251 0.0
H4375 H 0.61101 0.50326 0.43982 0.0
H4376 H 0.6314 0.52963 0.43723 0.0
H4377 H 0.58245 0.59708 0.44398 0.0
H4378 H 0.56553 0.58516 0.47998 0.0
H4379 H 0.57727 0.5157 0.46231 0.0
C4380 C 0.61612 0.54346 0.38091 0.0
C4381 C 0.62171 0.56327 0.36862 0.0
C4382 C 0.61543 0.58408 0.37772 0.0
C4383 C 0.60454 0.58559 0.39868 0.0
C4384 C 0.59943 0.56596 0.41047 0.0
C4385 C 0.60456 0.5451 0.40168 0.0
C4386 C 0.59652 0.52655 0.41771 0.0
C4387 C 0.57639 0.5077 0.40389 0.0
C4388 C 0.61689 0.5159 0.42739 0.0
C4389 C 0.58773 0.54064 0.43775 0.0
C4390 C 0.58911 0.56322 0.43278 0.0
C4391 C 0.58135 0.57945 0.44797 0.0
C4392 C 0.57179 0.57253 0.46851 0.0
C4393 C 0.57046 0.54969 0.47448 0.0
C4394 C 0.57858 0.53349 0.45872 0.0
H4395 H 0.32769 0.88926 0.05064 0.0
H4396 H 0.2972 0.94291 0.08511 0.0
H4397 H 0.30238 0.92657 0.12364 0.0
H4398 H 0.30672 0.84182 0.08237 0.0
H4399 H 0.33413 0.83235 0.0843 0.0
H4400 H 0.32555 0.84687 0.05949 0.0
H4401 H 0.36437 0.87766 0.06925 0.0
H4402 H 0.37312 0.8632 0.09402 0.0
H4403 H 0.37206 0.89353 0.09886 0.0
H4404 H 0.31364 0.90538 0.15838 0.0
H4405 H 0.33169 0.88315 0.18683 0.0
H4406 H 0.35464 0.84404 0.12794 0.0
C4407 C 0.32144 0.89715 0.06615 0.0
C4408 C 0.31141 0.91674 0.06511 0.0
C4409 C 0.30455 0.92753 0.08582 0.0
C4410 C 0.3074 0.91838 0.10758 0.0
C4411 C 0.31758 0.89895 0.10801 0.0
C4412 C 0.32474 0.88873 0.08783 0.0
C4413 C 0.33763 0.86986 0.09316 0.0
C4414 C 0.32524 0.84633 0.079 0.0
C4415 C 0.3633 0.87647 0.08854 0.0
C4416 C 0.33595 0.87036 0.11945 0.0
C4417 C 0.32451 0.8873 0.12783 0.0
C4418 C 0.32241 0.89192 0.15197 0.0
C4419 C 0.33263 0.8791 0.16793 0.0
C4420 C 0.34462 0.86183 0.15955 0.0
C4421 C 0.34587 0.85727 0.13496 0.0
H4422 H 0.9386 0.56684 0.90323 0.0
H4423 H 0.92225 0.49245 0.88187 0.0
H4424 H 0.95245 0.48734 0.91304 0.0
H4425 H 1.00029 0.5704 0.91331 0.0
H4426 H 1.00548 0.59288 0.93843 0.0
H4427 H 0.98133 0.59089 0.91538 0.0
H4428 H 0.95244 0.58828 0.94717 0.0
H4429 H 0.97658 0.59068 0.97029 0.0
H4430 H 0.95216 0.56638 0.96707 0.0
H4431 H 0.98536 0.49025 0.94343 0.0
H4432 H 1.01799 0.50104 0.9764 0.0
H4433 H 1.01293 0.5734 0.97867 0.0
C4434 C 0.94095 0.54954 0.90593 0.0
C4435 C 0.92766 0.52985 0.89142 0.0
C4436 C 0.93174 0.50744 0.89398 0.0
C4437 C 0.94901 0.50443 0.91124 0.0
C4438 C 0.96212 0.52415 0.92524 0.0
C4439 C 0.95835 0.54626 0.92299 0.0
C4440 C 0.97576 0.56446 0.93977 0.0
C4441 C 0.99164 0.58061 0.92589 0.0
C4442 C 0.96349 0.57825 0.95711 0.0
C4443 C 0.98913 0.54894 0.9523 0.0
C4444 C 0.98136 0.52583 0.94314 0.0
C4445 C 0.99156 0.50822 0.95105 0.0
C4446 C 1.00998 0.51444 0.96952 0.0
C4447 C 1.01712 0.53782 0.97984 0.0
C4448 C 1.00708 0.55536 0.97103 0.0
H4449 H 0.27063 0.19702 0.60968 0.0
H4450 H 0.2934 0.26233 0.58219 0.0
H4451 H 0.29824 0.28312 0.62296 0.0
H4452 H 0.23822 0.21957 0.65444 0.0
H4453 H 0.24652 0.20204 0.67672 0.0
H4454 H 0.24488 0.19171 0.6454 0.0
H4455 H 0.28774 0.18662 0.65204 0.0
H4456 H 0.28942 0.19685 0.68338 0.0
H4457 H 0.31038 0.21095 0.66575 0.0
H4458 H 0.29843 0.29754 0.66599 0.0
H4459 H 0.297 0.30444 0.70938 0.0
H4460 H 0.27652 0.23027 0.71131 0.0
C4461 C 0.27676 0.21568 0.61227 0.0
C4462 C 0.28157 0.22799 0.59244 0.0
C4463 C 0.28953 0.25242 0.59682 0.0
C4464 C 0.29232 0.26444 0.62001 0.0
C4465 C 0.28724 0.25193 0.63901 0.0
C4466 C 0.27981 0.22807 0.63555 0.0
C4467 C 0.2756 0.21905 0.65937 0.0
C4468 C 0.24977 0.2074 0.65895 0.0
C4469 C 0.29175 0.20238 0.66549 0.0
C4470 C 0.28204 0.24153 0.67667 0.0
C4471 C 0.28836 0.26026 0.66432 0.0
C4472 C 0.29384 0.28297 0.67586 0.0
C4473 C 0.29297 0.28673 0.70058 0.0
C4474 C 0.28713 0.26794 0.71392 0.0
C4475 C 0.28163 0.24496 0.70173 0.0
H4476 H 0.58961 0.563 0.2271 0.0
H4477 H 0.66042 0.5549 0.21993 0.0
H4478 H 0.65133 0.55045 0.17607 0.0
H4479 H 0.56052 0.52242 0.17477 0.0
H4480 H 0.54001 0.53995 0.16591 0.0
H4481 H 0.55151 0.54176 0.19697 0.0
H4482 H 0.56591 0.58624 0.19845 0.0
H4483 H 0.55441 0.58432 0.16737 0.0
H4484 H 0.58475 0.59719 0.17727 0.0
H4485 H 0.63493 0.54567 0.13312 0.0
H4486 H 0.61253 0.5422 0.09328 0.0
H4487 H 0.55238 0.55625 0.12593 0.0
C4488 C 0.60311 0.56011 0.21625 0.0
C4489 C 0.6258 0.55914 0.22719 0.0
C4490 C 0.64298 0.5557 0.21221 0.0
C4491 C 0.63797 0.55314 0.18717 0.0
C4492 C 0.61568 0.55439 0.17698 0.0
C4493 C 0.59849 0.55797 0.19093 0.0
C4494 C 0.57619 0.55921 0.17497 0.0
C4495 C 0.55585 0.53967 0.17836 0.0
C4496 C 0.56995 0.58317 0.17981 0.0
C4497 C 0.58354 0.55554 0.15001 0.0
C4498 C 0.6064 0.55265 0.1518 0.0
C4499 C 0.61708 0.54805 0.13154 0.0
C4500 C 0.60412 0.54606 0.10889 0.0
C4501 C 0.58065 0.54897 0.10626 0.0
C4502 C 0.57034 0.55415 0.12724 0.0
H4503 H 0.32461 0.88898 0.94704 0.0
H4504 H 0.2808 0.93219 0.91576 0.0
H4505 H 0.26696 0.90181 0.88119 0.0
H4506 H 0.34469 0.87127 0.89557 0.0
H4507 H 0.34524 0.84207 0.90167 0.0
H4508 H 0.34818 0.86487 0.92601 0.0
H4509 H 0.31286 0.8412 0.94273 0.0
H4510 H 0.30974 0.81831 0.91824 0.0
H4511 H 0.28531 0.83145 0.92378 0.0
H4512 H 0.25966 0.86894 0.8502 0.0
H4513 H 0.26399 0.83805 0.81997 0.0
H4514 H 0.31615 0.81832 0.86951 0.0
C4515 C 0.31173 0.89177 0.93309 0.0
C4516 C 0.30346 0.91256 0.93383 0.0
C4517 C 0.28719 0.91619 0.91521 0.0
C4518 C 0.27901 0.89898 0.89585 0.0
C4519 C 0.28743 0.87856 0.89568 0.0
C4520 C 0.30368 0.87497 0.91358 0.0
C4521 C 0.31247 0.85306 0.90738 0.0
C4522 C 0.33922 0.85815 0.90765 0.0
C4523 C 0.30463 0.83494 0.92403 0.0
C4524 C 0.29973 0.84577 0.88247 0.0
C4525 C 0.28459 0.86013 0.87664 0.0
C4526 C 0.27138 0.85751 0.85445 0.0
C4527 C 0.27426 0.84012 0.83736 0.0
C4528 C 0.29093 0.82633 0.84238 0.0
C4529 C 0.30331 0.82867 0.86537 0.0
H4530 H 0.93007 0.5464 0.73909 0.0
H4531 H 0.95469 0.50072 0.7865 0.0
H4532 H 0.97998 0.48944 0.75777 0.0
H4533 H 0.92576 0.51065 0.68569 0.0
H4534 H 0.93695 0.53295 0.66803 0.0
H4535 H 0.92317 0.54026 0.69377 0.0
H4536 H 0.96022 0.57134 0.71078 0.0
H4537 H 0.97439 0.56372 0.68527 0.0
H4538 H 0.98812 0.56305 0.71509 0.0
H4539 H 0.99949 0.48031 0.72479 0.0
H4540 H 1.00879 0.46879 0.68468 0.0
H4541 H 0.97207 0.51909 0.65632 0.0
C4542 C 0.94105 0.53424 0.74323 0.0
C4543 C 0.94098 0.52458 0.76489 0.0
C4544 C 0.95508 0.5085 0.77002 0.0
C4545 C 0.96962 0.50218 0.75398 0.0
C4546 C 0.96995 0.51226 0.733 0.0
C4547 C 0.95599 0.52774 0.72727 0.0
C4548 C 0.9585 0.53402 0.70229 0.0
C4549 C 0.93467 0.52914 0.68652 0.0
C4550 C 0.97106 0.55954 0.70342 0.0
C4551 C 0.97399 0.51764 0.69429 0.0
C4552 C 0.98124 0.50629 0.71287 0.0
C4553 C 0.99422 0.48915 0.71002 0.0
C4554 C 0.99918 0.48255 0.6872 0.0
C4555 C 0.99079 0.49278 0.66758 0.0
C4556 C 0.97879 0.51116 0.67122 0.0
H4557 H 0.28259 0.24476 0.46189 0.0
H4558 H 0.27833 0.17334 0.43057 0.0
H4559 H 0.28501 0.1862 0.39246 0.0
H4560 H 0.25333 0.263 0.40975 0.0
H4561 H 0.27223 0.29125 0.41187 0.0
H4562 H 0.26816 0.27745 0.43843 0.0
H4563 H 0.31284 0.28162 0.44777 0.0
H4564 H 0.31701 0.29529 0.4211 0.0
H4565 H 0.32868 0.26985 0.42561 0.0
H4566 H 0.29283 0.2046 0.35738 0.0
H4567 H 0.29822 0.22864 0.32511 0.0
H4568 H 0.29431 0.28925 0.37382 0.0
C4569 C 0.28315 0.23189 0.44705 0.0
C4570 C 0.27993 0.2078 0.45009 0.0
C4571 C 0.2808 0.19182 0.42969 0.0
C4572 C 0.28467 0.19893 0.40752 0.0
C4573 C 0.28782 0.22232 0.40514 0.0
C4574 C 0.28705 0.23877 0.42408 0.0
C4575 C 0.29071 0.26282 0.4154 0.0
C4576 C 0.26985 0.2743 0.41907 0.0
C4577 C 0.31367 0.27832 0.42824 0.0
C4578 C 0.2925 0.25676 0.38867 0.0
C4579 C 0.29147 0.23328 0.38369 0.0
C4580 C 0.29357 0.22306 0.36097 0.0
C4581 C 0.29666 0.23702 0.3426 0.0
C4582 C 0.29705 0.26116 0.34643 0.0
C4583 C 0.29479 0.2711 0.37003 0.0
H4584 H 0.33621 0.59268 0.57425 0.0
H4585 H 0.35724 0.66236 0.55665 0.0
H4586 H 0.39596 0.65494 0.55022 0.0
H4587 H 0.40109 0.58637 0.59832 0.0
H4588 H 0.39319 0.55618 0.58587 0.0
H4589 H 0.37202 0.57001 0.59919 0.0
H4590 H 0.34349 0.55684 0.56016 0.0
H4591 H 0.36448 0.54371 0.54637 0.0
H4592 H 0.35238 0.56553 0.53237 0.0
H4593 H 0.42293 0.63642 0.53056 0.0
H4594 H 0.43941 0.60933 0.5045 0.0
H4595 H 0.40292 0.5514 0.53569 0.0
C4596 C 0.34967 0.60665 0.57053 0.0
C4597 C 0.34427 0.62793 0.56593 0.0
C4598 C 0.36156 0.64605 0.5606 0.0
C4599 C 0.38356 0.64196 0.55696 0.0
C4600 C 0.38789 0.61993 0.55944 0.0
C4601 C 0.37171 0.60276 0.56704 0.0
C4602 C 0.37853 0.57943 0.56384 0.0
C4603 C 0.38672 0.5726 0.58825 0.0
C4604 C 0.35855 0.56032 0.54982 0.0
C4605 C 0.39879 0.5854 0.54973 0.0
C4606 C 0.40457 0.60903 0.5483 0.0
C4607 C 0.41951 0.61811 0.53248 0.0
C4608 C 0.42851 0.60271 0.51754 0.0
C4609 C 0.42238 0.5787 0.51863 0.0
C4610 C 0.40807 0.56994 0.5353 0.0
H4611 H 0.88807 0.94953 0.57679 0.0
H4612 H 0.88829 0.90035 0.51468 0.0
H4613 H 0.92471 0.92488 0.50562 0.0
H4614 H 0.9173 1.00511 0.56126 0.0
H4615 H 0.93511 1.01231 0.58958 0.0
H4616 H 0.90704 0.99278 0.58692 0.0
H4617 H 0.93097 0.96437 0.60637 0.0
H4618 H 0.95826 0.98411 0.60533 0.0
H4619 H 0.9532 0.95471 0.59074 0.0
H4620 H 0.95359 0.96058 0.49766 0.0
H4621 H 0.98758 0.99336 0.50175 0.0
H4622 H 0.97811 1.01207 0.57544 0.0
C4623 C 0.89586 0.94409 0.56126 0.0
C4624 C 0.88468 0.9239 0.54536 0.0
C4625 C 0.89612 0.91628 0.52634 0.0
C4626 C 0.91668 0.93014 0.52103 0.0
C4627 C 0.92634 0.95082 0.53587 0.0
C4628 C 0.9174 0.95693 0.55662 0.0
C4629 C 0.9343 0.9774 0.57189 0.0
C4630 C 0.92266 0.99805 0.57775 0.0
C4631 C 0.94481 0.96968 0.59495 0.0
C4632 C 0.95273 0.9831 0.55523 0.0
C4633 C 0.94714 0.96797 0.5342 0.0
C4634 C 0.95912 0.97162 0.51457 0.0
C4635 C 0.97832 0.99027 0.51702 0.0
C4636 C 0.98646 1.00393 0.53939 0.0
C4637 C 0.97303 1.00088 0.55857 0.0
H4638 H 0.91507 0.08101 0.3163 0.0
H4639 H 0.93685 0.08288 0.24568 0.0
H4640 H 0.91996 0.11804 0.24151 0.0
H4641 H 0.85969 0.09402 0.29951 0.0
H4642 H 0.85906 0.10996 0.32822 0.0
H4643 H 0.87476 0.08672 0.32612 0.0
H4644 H 0.91266 0.11468 0.34731 0.0
H4645 H 0.89692 0.13781 0.34991 0.0
H4646 H 0.9231 0.14142 0.33557 0.0
H4647 H 0.89826 0.15242 0.24539 0.0
H4648 H 0.87813 0.18399 0.25832 0.0
H4649 H 0.86883 0.1555 0.32484 0.0
C4650 C 0.9168 0.08903 0.30006 0.0
C4651 C 0.92753 0.07942 0.28139 0.0
C4652 C 0.92918 0.0903 0.26039 0.0
C4653 C 0.91929 0.10998 0.25778 0.0
C4654 C 0.90769 0.11815 0.2762 0.0
C4655 C 0.90659 0.10792 0.29696 0.0
C4656 C 0.89239 0.11877 0.31385 0.0
C4657 C 0.87017 0.10133 0.3171 0.0
C4658 C 0.90716 0.12878 0.33808 0.0
C4659 C 0.88643 0.13761 0.29994 0.0
C4660 C 0.89497 0.13691 0.27809 0.0
C4661 C 0.8916 0.15307 0.26247 0.0
C4662 C 0.88006 0.17081 0.26985 0.0
C4663 C 0.87231 0.17221 0.29266 0.0
C4664 C 0.87492 0.15496 0.30743 0.0
H4665 H 0.71748 0.12114 0.08384 0.0
H4666 H 0.71105 0.15284 0.01862 0.0
H4667 H 0.66971 0.13135 1.00898 0.0
H4668 H 0.68014 0.0661 0.06765 0.0
H4669 H 0.66781 0.06687 0.09522 0.0
H4670 H 0.69698 0.08294 0.09433 0.0
H4671 H 0.68294 0.11986 0.11246 0.0
H4672 H 0.65373 0.10304 0.1114 0.0
H4673 H 0.65862 0.12869 0.09648 0.0
H4674 H 0.63601 0.09537 1.00178 0.0
H4675 H 0.60178 0.06514 1.00688 0.0
H4676 H 0.62436 0.07116 0.08214 0.0
C4677 C 0.70716 0.12363 0.06766 0.0
C4678 C 0.71709 0.13713 0.05101 0.0
C4679 C 0.7034 0.14146 0.03075 0.0
C4680 C 0.68021 0.12943 0.02523 0.0
C4681 C 0.67131 0.11462 0.04111 0.0
C4682 C 0.6838 0.113 0.0627 0.0
C4683 C 0.66913 0.09859 0.07814 0.0
C4684 C 0.67917 0.07742 0.08418 0.0
C4685 C 0.6659 0.11345 0.10096 0.0
C4686 C 0.64681 0.09134 0.0612 0.0
C4687 C 0.64886 0.09977 0.0395 0.0
C4688 C 0.63283 0.09082 0.01932 0.0
C4689 C 0.61313 0.0745 0.02226 0.0
C4690 C 0.60888 0.06928 0.04516 0.0
C4691 C 0.62642 0.07667 0.06471 0.0
H4692 H 0.25492 0.51396 0.25267 0.0
H4693 H 0.18294 0.49355 0.26518 0.0
H4694 H 0.18853 0.45412 0.26976 0.0
H4695 H 0.26 0.45034 0.22543 0.0
H4696 H 0.28985 0.45642 0.23958 0.0
H4697 H 0.27775 0.4791 0.22726 0.0
H4698 H 0.2896 0.50484 0.2682 0.0
H4699 H 0.30121 0.48241 0.28079 0.0
H4700 H 0.27891 0.49408 0.29447 0.0
H4701 H 0.20474 0.42458 0.28757 0.0
H4702 H 0.22984 0.4055 0.31335 0.0
H4703 H 0.2913 0.44367 0.28866 0.0
C4704 C 0.24017 0.50065 0.25505 0.0
C4705 C 0.21871 0.50633 0.25865 0.0
C4706 C 0.19951 0.48911 0.2621 0.0
C4707 C 0.20249 0.46666 0.26458 0.0
C4708 C 0.22455 0.46184 0.26285 0.0
C4709 C 0.24293 0.47817 0.25735 0.0
C4710 C 0.26584 0.47047 0.26111 0.0
C4711 C 0.27383 0.46366 0.2369 0.0
C4712 C 0.28495 0.48904 0.27712 0.0
C4713 C 0.25816 0.44939 0.27334 0.0
C4714 C 0.23411 0.44397 0.27311 0.0
C4715 C 0.22342 0.42795 0.28706 0.0
C4716 C 0.23768 0.41756 0.30192 0.0
C4717 C 0.26214 0.42374 0.30281 0.0
C4718 C 0.27246 0.439 0.28787 0.0
H4719 H 0.24914 0.42243 0.07099 0.0
H4720 H 0.26654 0.41416 0.99854 0.0
H4721 H 0.23837 0.43748 0.98589 0.0
H4722 H 0.18446 0.41645 0.04933 0.0
H4723 H 0.18068 0.43613 0.07442 0.0
H4724 H 0.20209 0.41828 0.07777 0.0
H4725 H 0.23371 0.45547 0.09308 0.0
H4726 H 0.21249 0.4734 0.08877 0.0
H4727 H 0.23864 0.47838 0.07443 0.0
H4728 H 0.21483 0.46703 0.98265 0.0
H4729 H 0.18235 0.48767 0.98299 0.0
H4730 H 0.17318 0.47173 0.05479 0.0
C4731 C 0.246 0.42445 0.05223 0.0
C4732 C 0.25989 0.41632 0.03566 0.0
C4733 C 0.25579 0.41985 0.01138 0.0
C4734 C 0.24021 0.43354 1.00413 0.0
C4735 C 0.22801 0.44267 0.02114 0.0
C4736 C 0.22941 0.43715 0.04426 0.0
C4737 C 0.21231 0.44771 0.058 0.0
C4738 C 0.19378 0.4285 0.06531 0.0
C4739 C 0.22507 0.46475 0.07986 0.0
C4740 C 0.20172 0.46041 0.03903 0.0
C4741 C 0.21193 0.45792 0.01832 0.0
C4742 C 0.20617 0.46861 0.99848 0.0
C4743 C 0.18795 0.48052 0.99893 0.0
C4744 C 0.17532 0.481 0.01876 0.0
C4745 C 0.18279 0.47168 0.03951 0.0
H4746 H 0.8965 0.95455 0.30345 0.0
H4747 H 0.91919 0.94736 0.23372 0.0
H4748 H 0.89294 0.90861 0.22462 0.0
H4749 H 0.8884 0.89903 0.31667 0.0
H4750 H 0.86172 0.89926 0.32961 0.0
H4751 H 0.88249 0.92593 0.32979 0.0
H4752 H 0.84982 0.9438 0.30413 0.0
H4753 H 0.83065 0.91793 0.31018 0.0
H4754 H 0.83162 0.92498 0.28001 0.0
H4755 H 0.86527 0.86866 0.22492 0.0
H4756 H 0.83775 0.83394 0.23354 0.0
H4757 H 0.82928 0.87132 0.30082 0.0
C4758 C 0.89497 0.94614 0.28581 0.0
C4759 C 0.90942 0.95518 0.26923 0.0
C4760 C 0.90825 0.94124 0.24693 0.0
C4761 C 0.89328 0.91914 0.2415 0.0
C4762 C 0.87902 0.91115 0.25833 0.0
C4763 C 0.87943 0.92455 0.27982 0.0
C4764 C 0.86216 0.91238 0.29483 0.0
C4765 C 0.87441 0.90896 0.31917 0.0
C4766 C 0.84232 0.92547 0.29753 0.0
C4767 C 0.85292 0.88956 0.2792 0.0
C4768 C 0.86269 0.88905 0.25807 0.0
C4769 C 0.85728 0.8692 0.24125 0.0
C4770 C 0.84161 0.84958 0.24627 0.0
C4771 C 0.83111 0.8501 0.26767 0.0
C4772 C 0.83664 0.87055 0.2841 0.0
H4773 H 0.72 0.12971 0.74342 0.0
H4774 H 0.70009 0.13544 0.81475 0.0
H4775 H 0.72351 0.17594 0.82306 0.0
H4776 H 0.77486 0.16265 0.75106 0.0
H4777 H 0.77186 0.17828 0.72564 0.0
H4778 H 0.75394 0.14988 0.72525 0.0
H4779 H 0.71635 0.16619 0.71693 0.0
H4780 H 0.73419 0.1946 0.71673 0.0
H4781 H 0.71206 0.19062 0.7365 0.0
H4782 H 0.76223 0.20664 0.82573 0.0
H4783 H 0.79312 0.23887 0.81747 0.0
H4784 H 0.77177 0.2211 0.74183 0.0
C4785 C 0.72046 0.13971 0.76068 0.0
C4786 C 0.71051 0.12952 0.77945 0.0
C4787 C 0.70958 0.14297 0.80115 0.0
C4788 C 0.72247 0.16578 0.80582 0.0
C4789 C 0.73418 0.17475 0.78767 0.0
C4790 C 0.73156 0.16287 0.76494 0.0
C4791 C 0.7434 0.17753 0.74779 0.0
C4792 C 0.76212 0.16641 0.73681 0.0
C4793 C 0.72542 0.18254 0.72834 0.0
C4794 C 0.75432 0.19898 0.76492 0.0
C4795 C 0.7499 0.19648 0.78808 0.0
C4796 C 0.76359 0.2106 0.80765 0.0
C4797 C 0.78046 0.22915 0.80304 0.0
C4798 C 0.78151 0.23446 0.77956 0.0
C4799 C 0.76932 0.21856 0.76014 0.0
loop_
_geom_bond_atom_site_label_1
_geom_bond_atom_site_label_2
_geom_bond_distance
_geom_bond_site_symmetry_2
_ccdc_geom_bond_type
Mn0 O5 2.095 . S
Mn0 O15 2.162 . S
Mn0 O16 2.297 . S
Mn0 O24 2.358 1_455 S
Mn0 O25 2.209 . S
Mn0 O26 2.094 . S
Mn1 O6 2.121 . S
Mn1 N8 2.257 . S
Mn1 N17 2.282 . S
Mn1 O25 2.215 . S
Mn1 O27 2.117 . S
C2 O24 1.229 1_455 S
C2 O25 1.283 . S
C3 O15 1.281 . S
C3 O16 1.236 . S
C4 O26 1.240 . S
C4 O27 1.264 . S
O5 Mn0 2.095 . S
O5 C14 1.250 . S
O6 Mn1 2.121 . S
O6 C14 1.258 . S
C7 N8 1.326 . S
C7 C11 1.460 . S
C7 H13 0.929 . S
N8 Mn1 2.257 . S
N8 C7 1.326 . S
N8 C12 1.362 . S
C9 C10 1.258 1_655 S
C9 C12 1.431 1_655 S
C9 C29 1.449 . S
C10 C9 1.258 1_455 S
C10 C11 1.477 . S
C10 H30 0.928 1_455 S
C11 C7 1.460 . S
C11 C10 1.477 . S
C11 H31 0.930 . S
C12 N8 1.362 . S
C12 C9 1.431 1_455 S
C12 C22 1.476 1_455 S
H13 C7 0.929 . S
C14 O5 1.250 . S
C14 O6 1.258 . S
O15 Mn0 2.162 . S
O15 C3 1.281 . S
O16 Mn0 2.297 . S
O16 C3 1.236 . S
N17 Mn1 2.282 . S
N17 C18 1.328 1_455 S
N17 C22 1.318 1_455 S
C18 N17 1.328 1_655 S
C18 C19 1.457 . S
C18 H23 0.929 1_655 S
C19 C18 1.457 . S
C19 C20 1.291 . S
C19 H32 0.931 . S
C20 C19 1.291 . S
C20 C21 1.373 . S
C20 H33 0.929 . S
C21 C20 1.373 . S
C21 C22 1.396 . S
C21 C28 1.403 . S
C22 C12 1.476 1_655 S
C22 N17 1.318 1_655 S
C22 C21 1.396 . S
H23 C18 0.929 1_455 S
O24 Mn0 2.358 1_655 S
O24 C2 1.229 1_655 S
O25 Mn0 2.209 . S
O25 Mn1 2.215 . S
O25 C2 1.283 . S
O26 Mn0 2.094 . S
O26 C4 1.240 . S
O27 Mn1 2.117 . S
O27 C4 1.264 . S
C28 C21 1.403 . S
C28 C29 1.399 . S
C28 H34 0.929 . S
C29 C9 1.449 . S
C29 C28 1.399 . S
C29 H35 0.930 . S
H30 C10 0.928 1_655 S
H31 C11 0.930 . S
H32 C19 0.931 . S
H33 C20 0.929 . S
H34 C28 0.929 . S
H35 C29 0.930 . S
Mn36 O41 2.095 1_455 S
Mn36 O51 2.162 . S
Mn36 O52 2.297 . S
Mn36 O60 2.385 . S
Mn36 O61 2.209 . S
Mn36 O62 2.094 . S
Mn37 O42 2.121 1_455 S
Mn37 N44 2.257 . S
Mn37 N53 2.282 . S
Mn37 O61 2.215 . S
Mn37 O63 2.117 . S
C38 O60 1.234 . S
C38 O61 1.283 . S
C39 O51 1.281 . S
C39 O52 1.236 . S
C40 O62 1.240 . S
C40 O63 1.264 . S
O41 Mn36 2.095 1_655 S
O41 C50 1.250 . S
O42 Mn37 2.121 1_655 S
O42 C50 1.258 . S
C43 N44 1.326 . S
C43 C47 1.460 . S
C43 H49 0.929 . S
N44 Mn37 2.257 . S
N44 C43 1.326 . S
N44 C48 1.362 . S
C45 C46 1.258 . S
C45 C48 1.431 . S
C45 C65 1.449 . S
C46 C45 1.258 . S
C46 C47 1.477 . S
C46 H66 0.931 . S
C47 C43 1.460 . S
C47 C46 1.477 . S
C47 H67 0.930 . S
C48 N44 1.362 . S
C48 C45 1.431 . S
C48 C58 1.476 . S
H49 C43 0.929 . S
C50 O41 1.250 . S
C50 O42 1.258 . S
O51 Mn36 2.162 . S
O51 C39 1.281 . S
O52 Mn36 2.297 . S
O52 C39 1.236 . S
N53 Mn37 2.282 . S
N53 C54 1.328 . S
N53 C58 1.318 . S
C54 N53 1.328 . S
C54 C55 1.457 . S
C54 H59 0.929 . S
C55 C54 1.457 . S
C55 C56 1.291 . S
C55 H68 0.931 . S
C56 C55 1.291 . S
C56 C57 1.373 . S
C56 H69 0.929 . S
C57 C56 1.373 . S
C57 C58 1.396 . S
C57 C64 1.403 . S
C58 C48 1.476 . S
C58 N53 1.318 . S
C58 C57 1.396 . S
H59 C54 0.929 . S
O60 Mn36 2.385 . S
O60 C38 1.234 . S
O61 Mn36 2.209 . S
O61 Mn37 2.215 . S
O61 C38 1.283 . S
O62 Mn36 2.094 . S
O62 C40 1.240 . S
O63 Mn37 2.117 . S
O63 C40 1.264 . S
C64 C57 1.403 . S
C64 C65 1.399 . S
C64 H70 0.929 . S
C65 C45 1.449 . S
C65 C64 1.399 . S
C65 H71 0.930 . S
H66 C46 0.931 . S
H67 C47 0.930 . S
H68 C55 0.931 . S
H69 C56 0.929 . S
H70 C64 0.929 . S
H71 C65 0.930 . S
Mn72 O77 2.095 . S
Mn72 O87 2.162 . S
Mn72 O88 2.297 . S
Mn72 O96 2.385 . S
Mn72 O97 2.209 . S
Mn72 O98 2.094 . S
Mn73 O78 2.121 . S
Mn73 N80 2.257 . S
Mn73 N89 2.282 . S
Mn73 O97 2.215 . S
Mn73 O99 2.117 . S
C74 O96 1.234 . S
C74 O97 1.283 . S
C75 O87 1.281 . S
C75 O88 1.236 . S
C76 O98 1.240 . S
C76 O99 1.264 . S
O77 Mn72 2.095 . S
O77 C86 1.250 . S
O78 Mn73 2.121 . S
O78 C86 1.258 . S
C79 N80 1.326 . S
C79 C83 1.460 . S
C79 H85 0.929 . S
N80 Mn73 2.257 . S
N80 C79 1.326 . S
N80 C84 1.362 . S
C81 C82 1.258 . S
C81 C84 1.431 . S
C81 C101 1.449 . S
C82 C81 1.258 . S
C82 C83 1.477 . S
C82 H102 0.931 . S
C83 C79 1.460 . S
C83 C82 1.477 . S
C83 H103 0.930 . S
C84 N80 1.362 . S
C84 C81 1.431 . S
C84 C94 1.476 . S
H85 C79 0.929 . S
C86 O77 1.250 . S
C86 O78 1.258 . S
O87 Mn72 2.162 . S
O87 C75 1.281 . S
O88 Mn72 2.297 . S
O88 C75 1.236 . S
N89 Mn73 2.282 . S
N89 C90 1.328 . S
N89 C94 1.318 . S
C90 N89 1.328 . S
C90 C91 1.457 . S
C90 H95 0.929 . S
C91 C90 1.457 . S
C91 C92 1.291 . S
C91 H104 0.931 . S
C92 C91 1.291 . S
C92 C93 1.373 . S
C92 H105 0.929 . S
C93 C92 1.373 . S
C93 C94 1.396 . S
C93 C100 1.403 . S
C94 C84 1.476 . S
C94 N89 1.318 . S
C94 C93 1.396 . S
H95 C90 0.929 . S
O96 Mn72 2.385 . S
O96 C74 1.234 . S
O97 Mn72 2.209 . S
O97 Mn73 2.215 . S
O97 C74 1.283 . S
O98 Mn72 2.094 . S
O98 C76 1.240 . S
O99 Mn73 2.117 . S
O99 C76 1.264 . S
C100 C93 1.403 . S
C100 C101 1.399 . S
C100 H106 0.929 . S
C101 C81 1.449 . S
C101 C100 1.399 . S
C101 H107 0.930 . S
H102 C82 0.931 . S
H103 C83 0.930 . S
H104 C91 0.931 . S
H105 C92 0.929 . S
H106 C100 0.929 . S
H107 C101 0.930 . S
Mn108 O113 2.095 . S
Mn108 O123 2.162 . S
Mn108 O124 2.297 . S
Mn108 O132 2.385 . S
Mn108 O133 2.209 . S
Mn108 O134 2.094 . S
Mn109 O114 2.121 . S
Mn109 N116 2.257 . S
Mn109 N125 2.282 . S
Mn109 O133 2.215 . S
Mn109 O135 2.117 . S
C110 O132 1.234 . S
C110 O133 1.283 . S
C111 O123 1.281 . S
C111 O124 1.236 . S
C112 O134 1.240 . S
C112 O135 1.264 . S
O113 Mn108 2.095 . S
O113 C122 1.250 . S
O114 Mn109 2.121 . S
O114 C122 1.258 . S
C115 N116 1.326 . S
C115 C119 1.460 . S
C115 H121 0.929 . S
N116 Mn109 2.257 . S
N116 C115 1.326 . S
N116 C120 1.362 . S
C117 C118 1.258 . S
C117 C120 1.431 . S
C117 C137 1.449 . S
C118 C117 1.258 . S
C118 C119 1.477 . S
C118 H138 0.931 . S
C119 C115 1.460 . S
C119 C118 1.477 . S
C119 H139 0.930 . S
C120 N116 1.362 . S
C120 C117 1.431 . S
C120 C130 1.476 . S
H121 C115 0.929 . S
C122 O113 1.250 . S
C122 O114 1.258 . S
O123 Mn108 2.162 . S
O123 C111 1.281 . S
O124 Mn108 2.297 . S
O124 C111 1.236 . S
N125 Mn109 2.282 . S
N125 C126 1.328 . S
N125 C130 1.318 . S
C126 N125 1.328 . S
C126 C127 1.457 . S
C126 H131 0.929 . S
C127 C126 1.457 . S
C127 C128 1.291 . S
C127 H140 0.931 . S
C128 C127 1.291 . S
C128 C129 1.373 . S
C128 H141 0.929 . S
C129 C128 1.373 . S
C129 C130 1.396 . S
C129 C136 1.403 . S
C130 C120 1.476 . S
C130 N125 1.318 . S
C130 C129 1.396 . S
H131 C126 0.929 . S
O132 Mn108 2.385 . S
O132 C110 1.234 . S
O133 Mn108 2.209 . S
O133 Mn109 2.215 . S
O133 C110 1.283 . S
O134 Mn108 2.094 . S
O134 C112 1.240 . S
O135 Mn109 2.117 . S
O135 C112 1.264 . S
C136 C129 1.403 . S
C136 C137 1.399 . S
C136 H142 0.929 . S
C137 C117 1.449 . S
C137 C136 1.399 . S
C137 H143 0.930 . S
H138 C118 0.931 . S
H139 C119 0.930 . S
H140 C127 0.931 . S
H141 C128 0.929 . S
H142 C136 0.929 . S
H143 C137 0.930 . S
Mn144 O149 2.095 . S
Mn144 O159 2.162 . S
Mn144 O160 2.297 . S
Mn144 O168 2.385 . S
Mn144 O169 2.209 . S
Mn144 O170 2.094 . S
Mn145 O150 2.121 . S
Mn145 N152 2.257 . S
Mn145 N161 2.294 . S
Mn145 O169 2.215 . S
Mn145 O171 2.117 . S
C146 O168 1.234 . S
C146 O169 1.283 . S
C147 O159 1.281 . S
C147 O160 1.236 . S
C148 O170 1.240 . S
C148 O171 1.264 . S
O149 Mn144 2.095 . S
O149 C158 1.250 . S
O150 Mn145 2.121 . S
O150 C158 1.258 . S
C151 N152 1.326 . S
C151 C155 1.460 1_554 S
C151 H157 0.929 . S
N152 Mn145 2.257 . S
N152 C151 1.326 . S
N152 C156 1.362 . S
C153 C154 1.258 1_554 S
C153 C156 1.431 . S
C153 C173 1.449 1_454 S
C154 C153 1.258 1_556 S
C154 C155 1.477 . S
C154 H174 0.931 . S
C155 C151 1.460 1_556 S
C155 C154 1.477 . S
C155 H175 0.930 . S
C156 N152 1.362 . S
C156 C153 1.431 . S
C156 C166 1.476 1_455 S
H157 C151 0.929 . S
C158 O149 1.250 . S
C158 O150 1.258 . S
O159 Mn144 2.162 . S
O159 C147 1.281 . S
O160 Mn144 2.297 . S
O160 C147 1.236 . S
N161 Mn145 2.294 . S
N161 C162 1.315 1_455 S
N161 C166 1.323 1_455 S
C162 N161 1.315 1_655 S
C162 C163 1.457 . S
C162 H167 0.929 . S
C163 C162 1.457 . S
C163 C164 1.291 . S
C163 H176 0.931 . S
C164 C163 1.291 . S
C164 C165 1.373 . S
C164 H177 0.929 . S
C165 C164 1.373 . S
C165 C166 1.396 . S
C165 C172 1.403 . S
C166 C156 1.476 1_655 S
C166 N161 1.323 1_655 S
C166 C165 1.396 . S
H167 C162 0.929 . S
O168 Mn144 2.385 . S
O168 C146 1.234 . S
O169 Mn144 2.209 . S
O169 Mn145 2.215 . S
O169 C146 1.283 . S
O170 Mn144 2.094 . S
O170 C148 1.240 . S
O171 Mn145 2.117 . S
O171 C148 1.264 . S
C172 C165 1.403 . S
C172 C173 1.399 1_554 S
C172 H178 0.929 . S
C173 C153 1.449 1_656 S
C173 C172 1.399 1_556 S
C173 H179 0.930 . S
H174 C154 0.931 . S
H175 C155 0.930 . S
H176 C163 0.931 . S
H177 C164 0.929 . S
H178 C172 0.929 . S
H179 C173 0.930 . S
Mn180 O185 2.095 . S
Mn180 O195 2.162 . S
Mn180 O196 2.297 . S
Mn180 O204 2.385 . S
Mn180 O205 2.209 . S
Mn180 O206 2.094 . S
Mn181 O186 2.121 . S
Mn181 N188 2.257 . S
Mn181 N197 2.282 . S
Mn181 O205 2.215 . S
Mn181 O207 2.117 . S
C182 O204 1.234 . S
C182 O205 1.283 . S
C183 O195 1.281 . S
C183 O196 1.236 . S
C184 O206 1.240 . S
C184 O207 1.264 . S
O185 Mn180 2.095 . S
O185 C194 1.250 . S
O186 Mn181 2.121 . S
O186 C194 1.258 . S
C187 N188 1.326 . S
C187 C191 1.460 . S
C187 H193 0.929 . S
N188 Mn181 2.257 . S
N188 C187 1.326 . S
N188 C192 1.362 . S
C189 C190 1.258 . S
C189 C192 1.431 . S
C189 C209 1.449 . S
C190 C189 1.258 . S
C190 C191 1.477 . S
C190 H210 0.931 . S
C191 C187 1.460 . S
C191 C190 1.477 . S
C191 H211 0.930 . S
C192 N188 1.362 . S
C192 C189 1.431 . S
C192 C202 1.476 . S
H193 C187 0.929 . S
C194 O185 1.250 . S
C194 O186 1.258 . S
O195 Mn180 2.162 . S
O195 C183 1.281 . S
O196 Mn180 2.297 . S
O196 C183 1.236 . S
N197 Mn181 2.282 . S
N197 C198 1.328 . S
N197 C202 1.318 . S
C198 N197 1.328 . S
C198 C199 1.457 . S
C198 H203 0.929 . S
C199 C198 1.457 . S
C199 C200 1.291 . S
C199 H212 0.931 . S
C200 C199 1.291 . S
C200 C201 1.373 . S
C200 H213 0.929 . S
C201 C200 1.373 . S
C201 C202 1.396 . S
C201 C208 1.403 . S
C202 C192 1.476 . S
C202 N197 1.318 . S
C202 C201 1.396 . S
H203 C198 0.929 . S
O204 Mn180 2.385 . S
O204 C182 1.234 . S
O205 Mn180 2.209 . S
O205 Mn181 2.215 . S
O205 C182 1.283 . S
O206 Mn180 2.094 . S
O206 C184 1.240 . S
O207 Mn181 2.117 . S
O207 C184 1.264 . S
C208 C201 1.403 . S
C208 C209 1.399 . S
C208 H214 0.929 . S
C209 C189 1.449 . S
C209 C208 1.399 . S
C209 H215 0.930 . S
H210 C190 0.931 . S
H211 C191 0.930 . S
H212 C199 0.931 . S
H213 C200 0.929 . S
H214 C208 0.929 . S
H215 C209 0.930 . S
Mn216 O221 2.095 . S
Mn216 O231 2.162 . S
Mn216 O232 2.297 . S
Mn216 O240 2.385 . S
Mn216 O241 2.209 . S
Mn216 O242 2.094 . S
Mn217 O222 2.121 . S
Mn217 N224 2.257 . S
Mn217 N233 2.282 . S
Mn217 O241 2.215 . S
Mn217 O243 2.117 . S
C218 O240 1.234 . S
C218 O241 1.283 . S
C219 O231 1.281 . S
C219 O232 1.236 . S
C220 O242 1.240 . S
C220 O243 1.264 . S
O221 Mn216 2.095 . S
O221 C230 1.250 . S
O222 Mn217 2.121 . S
O222 C230 1.258 . S
C223 N224 1.326 . S
C223 C227 1.460 . S
C223 H229 0.929 . S
N224 Mn217 2.257 . S
N224 C223 1.326 . S
N224 C228 1.362 . S
C225 C226 1.258 . S
C225 C228 1.431 . S
C225 C245 1.449 . S
C226 C225 1.258 . S
C226 C227 1.477 . S
C226 H246 0.931 . S
C227 C223 1.460 . S
C227 C226 1.477 . S
C227 H247 0.930 . S
C228 N224 1.362 . S
C228 C225 1.431 . S
C228 C238 1.476 . S
H229 C223 0.929 . S
C230 O221 1.250 . S
C230 O222 1.258 . S
O231 Mn216 2.162 . S
O231 C219 1.281 . S
O232 Mn216 2.297 . S
O232 C219 1.236 . S
N233 Mn217 2.282 . S
N233 C234 1.328 . S
N233 C238 1.318 . S
C234 N233 1.328 . S
C234 C235 1.457 . S
C234 H239 0.929 . S
C235 C234 1.457 . S
C235 C236 1.291 . S
C235 H248 0.931 . S
C236 C235 1.291 . S
C236 C237 1.373 . S
C236 H249 0.929 . S
C237 C236 1.373 . S
C237 C238 1.396 . S
C237 C244 1.403 . S
C238 C228 1.476 . S
C238 N233 1.318 . S
C238 C237 1.396 . S
H239 C234 0.929 . S
O240 Mn216 2.385 . S
O240 C218 1.234 . S
O241 Mn216 2.209 . S
O241 Mn217 2.215 . S
O241 C218 1.283 . S
O242 Mn216 2.094 . S
O242 C220 1.240 . S
O243 Mn217 2.117 . S
O243 C220 1.264 . S
C244 C237 1.403 . S
C244 C245 1.399 . S
C244 H250 0.929 . S
C245 C225 1.449 . S
C245 C244 1.399 . S
C245 H251 0.930 . S
H246 C226 0.931 . S
H247 C227 0.930 . S
H248 C235 0.931 . S
H249 C236 0.929 . S
H250 C244 0.929 . S
H251 C245 0.930 . S
Mn252 O257 2.072 1_655 S
Mn252 O267 2.159 1_655 S
Mn252 O268 2.294 . S
Mn252 O276 2.410 . S
Mn252 O277 2.220 . S
Mn252 O278 2.097 1_655 S
Mn253 O258 2.121 1_655 S
Mn253 N260 2.257 . S
Mn253 N269 2.282 . S
Mn253 O277 2.215 . S
Mn253 O279 2.117 1_655 S
C254 O276 1.234 . S
C254 O277 1.283 . S
C255 O267 1.281 1_655 S
C255 O268 1.236 . S
C256 O278 1.240 . S
C256 O279 1.264 . S
O257 Mn252 2.072 1_455 S
O257 C266 1.250 . S
O258 Mn253 2.121 1_455 S
O258 C266 1.258 . S
C259 N260 1.326 . S
C259 C263 1.460 . S
C259 H265 0.929 1_655 S
N260 Mn253 2.257 . S
N260 C259 1.326 . S
N260 C264 1.362 . S
C261 C262 1.258 . S
C261 C264 1.431 . S
C261 C281 1.449 . S
C262 C261 1.258 . S
C262 C263 1.477 . S
C262 H282 0.931 . S
C263 C259 1.460 . S
C263 C262 1.477 . S
C263 H283 0.930 . S
C264 N260 1.362 . S
C264 C261 1.431 . S
C264 C274 1.476 . S
H265 C259 0.929 1_455 S
C266 O257 1.250 . S
C266 O258 1.258 . S
O267 Mn252 2.159 1_455 S
O267 C255 1.281 1_455 S
O268 Mn252 2.294 . S
O268 C255 1.236 . S
N269 Mn253 2.282 . S
N269 C270 1.328 . S
N269 C274 1.318 . S
C270 N269 1.328 . S
C270 C271 1.457 . S
C270 H275 0.929 . S
C271 C270 1.457 . S
C271 C272 1.291 . S
C271 H284 0.931 . S
C272 C271 1.291 . S
C272 C273 1.373 . S
C272 H285 0.929 . S
C273 C272 1.373 . S
C273 C274 1.396 . S
C273 C280 1.403 . S
C274 C264 1.476 . S
C274 N269 1.318 . S
C274 C273 1.396 . S
H275 C270 0.929 . S
O276 Mn252 2.410 . S
O276 C254 1.234 . S
O277 Mn252 2.220 . S
O277 Mn253 2.215 . S
O277 C254 1.283 . S
O278 Mn252 2.097 1_455 S
O278 C256 1.240 . S
O279 Mn253 2.117 1_455 S
O279 C256 1.264 . S
C280 C273 1.403 . S
C280 C281 1.399 . S
C280 H286 0.929 . S
C281 C261 1.449 . S
C281 C280 1.399 . S
C281 H287 0.930 . S
H282 C262 0.931 . S
H283 C263 0.930 . S
H284 C271 0.931 . S
H285 C272 0.929 . S
H286 C280 0.929 . S
H287 C281 0.930 . S
Mn288 O293 2.095 . S
Mn288 O303 2.162 . S
Mn288 O304 2.297 . S
Mn288 O312 2.385 1_545 S
Mn288 O313 2.209 1_545 S
Mn288 O314 2.094 . S
Mn289 O294 2.121 . S
Mn289 N296 2.257 1_545 S
Mn289 N305 2.282 1_545 S
Mn289 O313 2.215 1_545 S
Mn289 O315 2.117 . S
C290 O312 1.234 . S
C290 O313 1.283 . S
C291 O303 1.281 . S
C291 O304 1.236 . S
C292 O314 1.240 . S
C292 O315 1.264 . S
O293 Mn288 2.095 . S
O293 C302 1.250 . S
O294 Mn289 2.121 . S
O294 C302 1.258 . S
C295 N296 1.326 . S
C295 C299 1.460 . S
C295 H301 0.929 1_565 S
N296 Mn289 2.257 1_565 S
N296 C295 1.326 . S
N296 C300 1.362 . S
C297 C298 1.258 . S
C297 C300 1.431 . S
C297 C317 1.449 . S
C298 C297 1.258 . S
C298 C299 1.477 . S
C298 H318 0.931 . S
C299 C295 1.460 . S
C299 C298 1.477 . S
C299 H319 0.930 . S
C300 N296 1.362 . S
C300 C297 1.431 . S
C300 C310 1.476 . S
H301 C295 0.929 1_545 S
C302 O293 1.250 . S
C302 O294 1.258 . S
O303 Mn288 2.162 . S
O303 C291 1.281 . S
O304 Mn288 2.297 . S
O304 C291 1.236 . S
N305 Mn289 2.282 1_565 S
N305 C306 1.328 . S
N305 C310 1.318 . S
C306 N305 1.328 . S
C306 C307 1.457 . S
C306 H311 0.929 . S
C307 C306 1.457 . S
C307 C308 1.291 . S
C307 H320 0.931 . S
C308 C307 1.291 . S
C308 C309 1.373 . S
C308 H321 0.929 . S
C309 C308 1.373 . S
C309 C310 1.396 . S
C309 C316 1.403 . S
C310 C300 1.476 . S
C310 N305 1.318 . S
C310 C309 1.396 . S
H311 C306 0.929 . S
O312 Mn288 2.385 1_565 S
O312 C290 1.234 . S
O313 Mn288 2.209 1_565 S
O313 Mn289 2.215 1_565 S
O313 C290 1.283 . S
O314 Mn288 2.094 . S
O314 C292 1.240 . S
O315 Mn289 2.117 . S
O315 C292 1.264 . S
C316 C309 1.403 . S
C316 C317 1.399 . S
C316 H322 0.929 . S
C317 C297 1.449 . S
C317 C316 1.399 . S
C317 H323 0.930 . S
H318 C298 0.931 . S
H319 C299 0.930 . S
H320 C307 0.931 . S
H321 C308 0.929 . S
H322 C316 0.929 . S
H323 C317 0.930 . S
Mn324 O329 2.095 . S
Mn324 O339 2.162 . S
Mn324 O340 2.297 . S
Mn324 O348 2.385 . S
Mn324 O349 2.209 . S
Mn324 O350 2.094 . S
Mn325 O330 2.121 . S
Mn325 N332 2.257 . S
Mn325 N341 2.282 . S
Mn325 O349 2.215 . S
Mn325 O351 2.117 . S
C326 O348 1.234 . S
C326 O349 1.283 . S
C327 O339 1.281 . S
C327 O340 1.236 . S
C328 O350 1.240 . S
C328 O351 1.264 . S
O329 Mn324 2.095 . S
O329 C338 1.250 . S
O330 Mn325 2.121 . S
O330 C338 1.258 . S
C331 N332 1.326 . S
C331 C335 1.460 . S
C331 H337 0.929 . S
N332 Mn325 2.257 . S
N332 C331 1.326 . S
N332 C336 1.362 . S
C333 C334 1.258 . S
C333 C336 1.431 . S
C333 C353 1.449 . S
C334 C333 1.258 . S
C334 C335 1.477 . S
C334 H354 0.931 . S
C335 C331 1.460 . S
C335 C334 1.477 . S
C335 H355 0.930 . S
C336 N332 1.362 . S
C336 C333 1.431 . S
C336 C346 1.476 . S
H337 C331 0.929 . S
C338 O329 1.250 . S
C338 O330 1.258 . S
O339 Mn324 2.162 . S
O339 C327 1.281 . S
O340 Mn324 2.297 . S
O340 C327 1.236 . S
N341 Mn325 2.282 . S
N341 C342 1.328 . S
N341 C346 1.318 . S
C342 N341 1.328 . S
C342 C343 1.457 . S
C342 H347 0.929 . S
C343 C342 1.457 . S
C343 C344 1.291 . S
C343 H356 0.931 . S
C344 C343 1.291 . S
C344 C345 1.373 . S
C344 H357 0.929 . S
C345 C344 1.373 . S
C345 C346 1.396 . S
C345 C352 1.403 . S
C346 C336 1.476 . S
C346 N341 1.318 . S
C346 C345 1.396 . S
H347 C342 0.929 . S
O348 Mn324 2.385 . S
O348 C326 1.234 . S
O349 Mn324 2.209 . S
O349 Mn325 2.215 . S
O349 C326 1.283 . S
O350 Mn324 2.094 . S
O350 C328 1.240 . S
O351 Mn325 2.117 . S
O351 C328 1.264 . S
C352 C345 1.403 . S
C352 C353 1.399 . S
C352 H358 0.929 . S
C353 C333 1.449 . S
C353 C352 1.399 . S
C353 H359 0.930 . S
H354 C334 0.931 . S
H355 C335 0.930 . S
H356 C343 0.931 . S
H357 C344 0.929 . S
H358 C352 0.929 . S
H359 C353 0.930 . S
Mn360 O365 2.095 . S
Mn360 O375 2.162 . S
Mn360 O376 2.297 . S
Mn360 O384 2.385 . S
Mn360 O385 2.209 . S
Mn360 O386 2.094 . S
Mn361 O366 2.121 . S
Mn361 N368 2.257 . S
Mn361 N377 2.282 . S
Mn361 O385 2.215 . S
Mn361 O387 2.117 . S
C362 O384 1.234 . S
C362 O385 1.283 . S
C363 O375 1.281 . S
C363 O376 1.236 . S
C364 O386 1.240 . S
C364 O387 1.264 . S
O365 Mn360 2.095 . S
O365 C374 1.250 . S
O366 Mn361 2.121 . S
O366 C374 1.258 . S
C367 N368 1.326 . S
C367 C371 1.460 . S
C367 H373 0.929 . S
N368 Mn361 2.257 . S
N368 C367 1.326 . S
N368 C372 1.362 . S
C369 C370 1.258 . S
C369 C372 1.431 . S
C369 C389 1.449 . S
C370 C369 1.258 . S
C370 C371 1.477 . S
C370 H390 0.931 . S
C371 C367 1.460 . S
C371 C370 1.477 . S
C371 H391 0.930 . S
C372 N368 1.362 . S
C372 C369 1.431 . S
C372 C382 1.476 . S
H373 C367 0.929 . S
C374 O365 1.250 . S
C374 O366 1.258 . S
O375 Mn360 2.162 . S
O375 C363 1.281 . S
O376 Mn360 2.297 . S
O376 C363 1.236 . S
N377 Mn361 2.282 . S
N377 C378 1.328 . S
N377 C382 1.318 . S
C378 N377 1.328 . S
C378 C379 1.457 . S
C378 H383 0.929 . S
C379 C378 1.457 . S
C379 C380 1.291 . S
C379 H392 0.931 . S
C380 C379 1.291 . S
C380 C381 1.373 . S
C380 H393 0.929 . S
C381 C380 1.373 . S
C381 C382 1.396 . S
C381 C388 1.403 . S
C382 C372 1.476 . S
C382 N377 1.318 . S
C382 C381 1.396 . S
H383 C378 0.929 . S
O384 Mn360 2.385 . S
O384 C362 1.234 . S
O385 Mn360 2.209 . S
O385 Mn361 2.215 . S
O385 C362 1.283 . S
O386 Mn360 2.094 . S
O386 C364 1.240 . S
O387 Mn361 2.117 . S
O387 C364 1.264 . S
C388 C381 1.403 . S
C388 C389 1.399 . S
C388 H394 0.929 . S
C389 C369 1.449 . S
C389 C388 1.399 . S
C389 H395 0.930 . S
H390 C370 0.931 . S
H391 C371 0.930 . S
H392 C379 0.931 . S
H393 C380 0.929 . S
H394 C388 0.929 . S
H395 C389 0.930 . S
Mn396 O401 2.095 1_554 S
Mn396 O411 2.162 . S
Mn396 O412 2.297 . S
Mn396 O420 2.385 . S
Mn396 O421 2.207 1_554 S
Mn396 O422 2.094 1_554 S
Mn397 O402 2.121 . S
Mn397 N404 2.226 1_565 S
Mn397 N413 2.282 . S
Mn397 O421 2.220 . S
Mn397 O423 2.117 . S
C398 O420 1.234 . S
C398 O421 1.282 1_554 S
C399 O411 1.281 . S
C399 O412 1.236 . S
C400 O422 1.240 . S
C400 O423 1.264 . S
O401 Mn396 2.095 1_556 S
O401 C410 1.250 . S
O402 Mn397 2.121 . S
O402 C410 1.258 . S
C403 N404 1.350 . S
C403 C407 1.460 . S
C403 H409 0.929 . S
N404 Mn397 2.226 1_545 S
N404 C403 1.350 . S
N404 C408 1.369 . S
C405 C406 1.258 . S
C405 C408 1.431 . S
C405 C425 1.449 . S
C406 C405 1.258 . S
C406 C407 1.477 . S
C406 H426 0.931 . S
C407 C403 1.460 . S
C407 C406 1.477 . S
C407 H427 0.930 . S
C408 N404 1.369 . S
C408 C405 1.431 . S
C408 C418 1.476 1_545 S
H409 C403 0.929 . S
C410 O401 1.250 . S
C410 O402 1.258 . S
O411 Mn396 2.162 . S
O411 C399 1.281 . S
O412 Mn396 2.297 . S
O412 C399 1.236 . S
N413 Mn397 2.282 . S
N413 C414 1.328 . S
N413 C418 1.318 . S
C414 N413 1.328 . S
C414 C415 1.457 . S
C414 H419 0.929 . S
C415 C414 1.457 . S
C415 C416 1.291 . S
C415 H428 0.931 . S
C416 C415 1.291 . S
C416 C417 1.406 . S
C416 H429 0.929 . S
C417 C416 1.406 . S
C417 C418 1.404 . S
C417 C424 1.365 1_565 S
C418 C408 1.476 1_565 S
C418 N413 1.318 . S
C418 C417 1.404 . S
H419 C414 0.929 . S
O420 Mn396 2.385 . S
O420 C398 1.234 . S
O421 Mn396 2.207 1_556 S
O421 Mn397 2.220 . S
O421 C398 1.282 1_556 S
O422 Mn396 2.094 1_556 S
O422 C400 1.240 . S
O423 Mn397 2.117 . S
O423 C400 1.264 . S
C424 C417 1.365 1_545 S
C424 C425 1.399 . S
C424 H430 0.929 . S
C425 C405 1.449 . S
C425 C424 1.399 . S
C425 H431 0.930 . S
H426 C406 0.931 . S
H427 C407 0.930 . S
H428 C415 0.931 . S
H429 C416 0.929 . S
H430 C424 0.929 . S
H431 C425 0.930 . S
Mn432 O437 2.095 . S
Mn432 O447 2.162 . S
Mn432 O448 2.297 . S
Mn432 O456 2.385 . S
Mn432 O457 2.209 . S
Mn432 O458 2.094 . S
Mn433 O438 2.121 . S
Mn433 N440 2.257 . S
Mn433 N449 2.282 1_554 S
Mn433 O457 2.215 . S
Mn433 O459 2.117 1_554 S
C434 O456 1.234 . S
C434 O457 1.283 . S
C435 O447 1.281 . S
C435 O448 1.236 . S
C436 O458 1.240 1_556 S
C436 O459 1.264 . S
O437 Mn432 2.095 . S
O437 C446 1.250 . S
O438 Mn433 2.121 . S
O438 C446 1.258 . S
C439 N440 1.326 . S
C439 C443 1.460 . S
C439 H445 0.929 . S
N440 Mn433 2.257 . S
N440 C439 1.326 . S
N440 C444 1.362 . S
C441 C442 1.258 . S
C441 C444 1.431 . S
C441 C461 1.449 . S
C442 C441 1.258 . S
C442 C443 1.477 . S
C442 H462 0.931 . S
C443 C439 1.460 . S
C443 C442 1.477 . S
C443 H463 0.930 . S
C444 N440 1.362 . S
C444 C441 1.431 . S
C444 C454 1.476 1_554 S
H445 C439 0.929 . S
C446 O437 1.250 . S
C446 O438 1.258 . S
O447 Mn432 2.162 . S
O447 C435 1.281 . S
O448 Mn432 2.297 . S
O448 C435 1.236 . S
N449 Mn433 2.282 1_556 S
N449 C450 1.328 . S
N449 C454 1.318 . S
C450 N449 1.328 . S
C450 C451 1.457 . S
C450 H455 0.929 . S
C451 C450 1.457 . S
C451 C452 1.291 . S
C451 H464 0.931 . S
C452 C451 1.291 . S
C452 C453 1.373 . S
C452 H465 0.929 . S
C453 C452 1.373 . S
C453 C454 1.396 . S
C453 C460 1.403 . S
C454 C444 1.476 1_556 S
C454 N449 1.318 . S
C454 C453 1.396 . S
H455 C450 0.929 . S
O456 Mn432 2.385 . S
O456 C434 1.234 . S
O457 Mn432 2.209 . S
O457 Mn433 2.215 . S
O457 C434 1.283 . S
O458 Mn432 2.094 . S
O458 C436 1.240 1_554 S
O459 Mn433 2.117 1_556 S
O459 C436 1.264 . S
C460 C453 1.403 . S
C460 C461 1.399 1_556 S
C460 H466 0.929 . S
C461 C441 1.449 . S
C461 C460 1.399 1_554 S
C461 H467 0.930 . S
H462 C442 0.931 . S
H463 C443 0.930 . S
H464 C451 0.931 . S
H465 C452 0.929 . S
H466 C460 0.929 . S
H467 C461 0.930 . S
Mn468 O473 2.095 . S
Mn468 O483 2.162 . S
Mn468 O484 2.297 . S
Mn468 O492 2.385 . S
Mn468 O493 2.209 . S
Mn468 O494 2.094 . S
Mn469 O474 2.121 . S
Mn469 N476 2.257 . S
Mn469 N485 2.282 1_554 S
Mn469 O493 2.215 . S
Mn469 O495 2.117 . S
C470 O492 1.234 . S
C470 O493 1.283 . S
C471 O483 1.281 . S
C471 O484 1.236 . S
C472 O494 1.240 . S
C472 O495 1.264 . S
O473 Mn468 2.095 . S
O473 C482 1.250 . S
O474 Mn469 2.121 . S
O474 C482 1.258 . S
C475 N476 1.326 . S
C475 C479 1.460 . S
C475 H481 0.929 . S
N476 Mn469 2.257 . S
N476 C475 1.326 . S
N476 C480 1.362 . S
C477 C478 1.258 . S
C477 C480 1.431 . S
C477 C497 1.449 1_554 S
C478 C477 1.258 . S
C478 C479 1.477 . S
C478 H498 0.931 1_545 S
C479 C475 1.460 . S
C479 C478 1.477 . S
C479 H499 0.930 . S
C480 N476 1.362 . S
C480 C477 1.431 . S
C480 C490 1.476 1_554 S
H481 C475 0.929 . S
C482 O473 1.250 . S
C482 O474 1.258 . S
O483 Mn468 2.162 . S
O483 C471 1.281 . S
O484 Mn468 2.297 . S
O484 C471 1.236 . S
N485 Mn469 2.282 1_556 S
N485 C486 1.328 . S
N485 C490 1.318 . S
C486 N485 1.328 . S
C486 C487 1.457 . S
C486 H491 0.929 . S
C487 C486 1.457 . S
C487 C488 1.291 . S
C487 H500 0.931 . S
C488 C487 1.291 . S
C488 C489 1.373 . S
C488 H501 0.929 . S
C489 C488 1.373 . S
C489 C490 1.396 . S
C489 C496 1.403 . S
C490 C480 1.476 1_556 S
C490 N485 1.318 . S
C490 C489 1.396 . S
H491 C486 0.929 . S
O492 Mn468 2.385 . S
O492 C470 1.234 . S
O493 Mn468 2.209 . S
O493 Mn469 2.215 . S
O493 C470 1.283 . S
O494 Mn468 2.094 . S
O494 C472 1.240 . S
O495 Mn469 2.117 . S
O495 C472 1.264 . S
C496 C489 1.403 . S
C496 C497 1.399 . S
C496 H502 0.929 . S
C497 C477 1.449 1_556 S
C497 C496 1.399 . S
C497 H503 0.930 . S
H498 C478 0.931 1_565 S
H499 C479 0.930 . S
H500 C487 0.931 . S
H501 C488 0.929 . S
H502 C496 0.929 . S
H503 C497 0.930 . S
Mn504 O509 2.095 . S
Mn504 O519 2.162 . S
Mn504 O520 2.297 . S
Mn504 O528 2.385 . S
Mn504 O529 2.209 . S
Mn504 O530 2.094 . S
Mn505 O510 2.121 . S
Mn505 N512 2.257 . S
Mn505 N521 2.282 . S
Mn505 O529 2.215 . S
Mn505 O531 2.117 . S
C506 O528 1.234 . S
C506 O529 1.283 . S
C507 O519 1.281 . S
C507 O520 1.236 . S
C508 O530 1.240 . S
C508 O531 1.264 . S
O509 Mn504 2.095 . S
O509 C518 1.250 . S
O510 Mn505 2.121 . S
O510 C518 1.258 . S
C511 N512 1.326 . S
C511 C515 1.460 . S
C511 H517 0.929 . S
N512 Mn505 2.257 . S
N512 C511 1.326 . S
N512 C516 1.362 . S
C513 C514 1.258 . S
C513 C516 1.431 . S
C513 C533 1.449 . S
C514 C513 1.258 . S
C514 C515 1.477 . S
C514 H534 0.931 . S
C515 C511 1.460 . S
C515 C514 1.477 . S
C515 H535 0.930 . S
C516 N512 1.362 . S
C516 C513 1.431 . S
C516 C526 1.476 . S
H517 C511 0.929 . S
C518 O509 1.250 . S
C518 O510 1.258 . S
O519 Mn504 2.162 . S
O519 C507 1.281 . S
O520 Mn504 2.297 . S
O520 C507 1.236 . S
N521 Mn505 2.282 . S
N521 C522 1.328 . S
N521 C526 1.318 . S
C522 N521 1.328 . S
C522 C523 1.457 . S
C522 H527 0.929 . S
C523 C522 1.457 . S
C523 C524 1.291 . S
C523 H536 0.931 . S
C524 C523 1.291 . S
C524 C525 1.373 . S
C524 H537 0.929 . S
C525 C524 1.373 . S
C525 C526 1.396 . S
C525 C532 1.403 . S
C526 C516 1.476 . S
C526 N521 1.318 . S
C526 C525 1.396 . S
H527 C522 0.929 . S
O528 Mn504 2.385 . S
O528 C506 1.234 . S
O529 Mn504 2.209 . S
O529 Mn505 2.215 . S
O529 C506 1.283 . S
O530 Mn504 2.094 . S
O530 C508 1.240 . S
O531 Mn505 2.117 . S
O531 C508 1.264 . S
C532 C525 1.403 . S
C532 C533 1.399 . S
C532 H538 0.929 . S
C533 C513 1.449 . S
C533 C532 1.399 . S
C533 H539 0.930 . S
H534 C514 0.931 . S
H535 C515 0.930 . S
H536 C523 0.931 . S
H537 C524 0.929 . S
H538 C532 0.929 . S
H539 C533 0.930 . S
Mn540 O545 2.095 . S
Mn540 O555 2.162 . S
Mn540 O556 2.297 . S
Mn540 O564 2.385 . S
Mn540 O565 2.209 . S
Mn540 O566 2.094 . S
Mn541 O546 2.121 . S
Mn541 N548 2.257 . S
Mn541 N557 2.282 . S
Mn541 O565 2.215 . S
Mn541 O567 2.117 . S
C542 O564 1.234 . S
C542 O565 1.283 . S
C543 O555 1.281 . S
C543 O556 1.236 . S
C544 O566 1.240 . S
C544 O567 1.264 . S
O545 Mn540 2.095 . S
O545 C554 1.250 . S
O546 Mn541 2.121 . S
O546 C554 1.258 . S
C547 N548 1.326 . S
C547 C551 1.460 . S
C547 H553 0.929 . S
N548 Mn541 2.257 . S
N548 C547 1.326 . S
N548 C552 1.362 . S
C549 C550 1.258 1_565 S
C549 C552 1.431 . S
C549 C569 1.449 . S
C550 C549 1.258 1_545 S
C550 C551 1.477 1_545 S
C550 H570 0.931 . S
C551 C547 1.460 . S
C551 C550 1.477 1_565 S
C551 H571 0.930 1_565 S
C552 N548 1.362 . S
C552 C549 1.431 . S
C552 C562 1.476 . S
H553 C547 0.929 . S
C554 O545 1.250 . S
C554 O546 1.258 . S
O555 Mn540 2.162 . S
O555 C543 1.281 . S
O556 Mn540 2.297 . S
O556 C543 1.236 . S
N557 Mn541 2.282 . S
N557 C558 1.328 . S
N557 C562 1.318 . S
C558 N557 1.328 . S
C558 C559 1.457 . S
C558 H563 0.929 . S
C559 C558 1.457 . S
C559 C560 1.291 . S
C559 H572 0.931 . S
C560 C559 1.291 . S
C560 C561 1.373 . S
C560 H573 0.929 . S
C561 C560 1.373 . S
C561 C562 1.396 . S
C561 C568 1.403 . S
C562 C552 1.476 . S
C562 N557 1.318 . S
C562 C561 1.396 . S
H563 C558 0.929 . S
O564 Mn540 2.385 . S
O564 C542 1.234 . S
O565 Mn540 2.209 . S
O565 Mn541 2.215 . S
O565 C542 1.283 . S
O566 Mn540 2.094 . S
O566 C544 1.240 . S
O567 Mn541 2.117 . S
O567 C544 1.264 . S
C568 C561 1.403 . S
C568 C569 1.399 . S
C568 H574 0.929 . S
C569 C549 1.449 . S
C569 C568 1.399 . S
C569 H575 0.930 1_565 S
H570 C550 0.931 . S
H571 C551 0.930 1_545 S
H572 C559 0.931 . S
H573 C560 0.929 . S
H574 C568 0.929 . S
H575 C569 0.930 1_545 S
Mn576 O581 2.095 . S
Mn576 O591 2.162 . S
Mn576 O592 2.297 . S
Mn576 O600 2.385 1_545 S
Mn576 O601 2.209 1_545 S
Mn576 O602 2.094 . S
Mn577 O582 2.121 . S
Mn577 N584 2.257 1_545 S
Mn577 N593 2.282 1_545 S
Mn577 O601 2.215 1_545 S
Mn577 O603 2.117 . S
C578 O600 1.234 . S
C578 O601 1.283 . S
C579 O591 1.281 . S
C579 O592 1.236 . S
C580 O602 1.240 . S
C580 O603 1.264 . S
O581 Mn576 2.095 . S
O581 C590 1.250 . S
O582 Mn577 2.121 . S
O582 C590 1.258 . S
C583 N584 1.326 1_545 S
C583 C587 1.460 1_545 S
C583 H589 0.929 . S
N584 Mn577 2.257 1_565 S
N584 C583 1.326 1_565 S
N584 C588 1.362 . S
C585 C586 1.258 . S
C585 C588 1.431 . S
C585 C605 1.449 . S
C586 C585 1.258 . S
C586 C587 1.477 . S
C586 H606 0.931 . S
C587 C583 1.460 1_565 S
C587 C586 1.477 . S
C587 H607 0.915 1_565 S
C588 N584 1.362 . S
C588 C585 1.431 . S
C588 C598 1.476 . S
H589 C583 0.929 . S
C590 O581 1.250 . S
C590 O582 1.258 . S
O591 Mn576 2.162 . S
O591 C579 1.281 . S
O592 Mn576 2.297 . S
O592 C579 1.236 . S
N593 Mn577 2.282 1_565 S
N593 C594 1.328 . S
N593 C598 1.318 . S
C594 N593 1.328 . S
C594 C595 1.457 . S
C594 H599 0.929 . S
C595 C594 1.457 . S
C595 C596 1.291 . S
C595 H608 0.931 . S
C596 C595 1.291 . S
C596 C597 1.373 . S
C596 H609 0.929 . S
C597 C596 1.373 . S
C597 C598 1.396 . S
C597 C604 1.403 . S
C598 C588 1.476 . S
C598 N593 1.318 . S
C598 C597 1.396 . S
H599 C594 0.929 . S
O600 Mn576 2.385 1_565 S
O600 C578 1.234 . S
O601 Mn576 2.209 1_565 S
O601 Mn577 2.215 1_565 S
O601 C578 1.283 . S
O602 Mn576 2.094 . S
O602 C580 1.240 . S
O603 Mn577 2.117 . S
O603 C580 1.264 . S
C604 C597 1.403 . S
C604 C605 1.399 . S
C604 H610 0.929 . S
C605 C585 1.449 . S
C605 C604 1.399 . S
C605 H611 0.930 . S
H606 C586 0.931 . S
H607 C587 0.915 1_545 S
H608 C595 0.931 . S
H609 C596 0.929 . S
H610 C604 0.929 . S
H611 C605 0.930 . S
Mn612 O617 2.095 . S
Mn612 O627 2.162 . S
Mn612 O628 2.297 . S
Mn612 O636 2.385 . S
Mn612 O637 2.209 . S
Mn612 O638 2.094 . S
Mn613 O618 2.121 . S
Mn613 N620 2.257 . S
Mn613 N629 2.282 . S
Mn613 O637 2.215 . S
Mn613 O639 2.117 . S
C614 O636 1.234 . S
C614 O637 1.283 . S
C615 O627 1.281 . S
C615 O628 1.236 . S
C616 O638 1.240 . S
C616 O639 1.264 . S
O617 Mn612 2.095 . S
O617 C626 1.250 . S
O618 Mn613 2.121 . S
O618 C626 1.258 . S
C619 N620 1.326 . S
C619 C623 1.460 . S
C619 H625 0.929 . S
N620 Mn613 2.257 . S
N620 C619 1.326 . S
N620 C624 1.362 . S
C621 C622 1.258 . S
C621 C624 1.431 . S
C621 C641 1.449 . S
C622 C621 1.258 . S
C622 C623 1.477 . S
C622 H642 0.931 . S
C623 C619 1.460 . S
C623 C622 1.477 . S
C623 H643 0.930 . S
C624 N620 1.362 . S
C624 C621 1.431 . S
C624 C634 1.476 . S
H625 C619 0.929 . S
C626 O617 1.250 . S
C626 O618 1.258 . S
O627 Mn612 2.162 . S
O627 C615 1.281 . S
O628 Mn612 2.297 . S
O628 C615 1.236 . S
N629 Mn613 2.282 . S
N629 C630 1.328 . S
N629 C634 1.318 . S
C630 N629 1.328 . S
C630 C631 1.457 . S
C630 H635 0.929 . S
C631 C630 1.457 . S
C631 C632 1.291 . S
C631 H644 0.931 . S
C632 C631 1.291 . S
C632 C633 1.373 . S
C632 H645 0.929 . S
C633 C632 1.373 . S
C633 C634 1.396 . S
C633 C640 1.403 . S
C634 C624 1.476 . S
C634 N629 1.318 . S
C634 C633 1.396 . S
H635 C630 0.929 . S
O636 Mn612 2.385 . S
O636 C614 1.234 . S
O637 Mn612 2.209 . S
O637 Mn613 2.215 . S
O637 C614 1.283 . S
O638 Mn612 2.094 . S
O638 C616 1.240 . S
O639 Mn613 2.117 . S
O639 C616 1.264 . S
C640 C633 1.403 . S
C640 C641 1.399 . S
C640 H646 0.929 . S
C641 C621 1.449 . S
C641 C640 1.399 . S
C641 H647 0.930 . S
H642 C622 0.931 . S
H643 C623 0.930 . S
H644 C631 0.931 . S
H645 C632 0.929 . S
H646 C640 0.929 . S
H647 C641 0.930 . S
Mn648 O653 2.095 . S
Mn648 O663 2.162 . S
Mn648 O664 2.297 . S
Mn648 O672 2.385 . S
Mn648 O673 2.209 . S
Mn648 O674 2.094 . S
Mn649 O654 2.121 . S
Mn649 N656 2.257 . S
Mn649 N665 2.282 . S
Mn649 O673 2.215 . S
Mn649 O675 2.117 . S
C650 O672 1.234 . S
C650 O673 1.283 . S
C651 O663 1.281 . S
C651 O664 1.236 . S
C652 O674 1.240 . S
C652 O675 1.264 . S
O653 Mn648 2.095 . S
O653 C662 1.250 . S
O654 Mn649 2.121 . S
O654 C662 1.258 . S
C655 N656 1.326 . S
C655 C659 1.460 . S
C655 H661 0.929 . S
N656 Mn649 2.257 . S
N656 C655 1.326 . S
N656 C660 1.362 . S
C657 C658 1.258 . S
C657 C660 1.431 . S
C657 C677 1.449 . S
C658 C657 1.258 . S
C658 C659 1.477 . S
C658 H678 0.931 . S
C659 C655 1.460 . S
C659 C658 1.477 . S
C659 H679 0.930 . S
C660 N656 1.362 . S
C660 C657 1.431 . S
C660 C670 1.476 . S
H661 C655 0.929 . S
C662 O653 1.250 . S
C662 O654 1.258 . S
O663 Mn648 2.162 . S
O663 C651 1.281 . S
O664 Mn648 2.297 . S
O664 C651 1.236 . S
N665 Mn649 2.282 . S
N665 C666 1.328 . S
N665 C670 1.318 . S
C666 N665 1.328 . S
C666 C667 1.457 . S
C666 H671 0.929 . S
C667 C666 1.457 . S
C667 C668 1.291 . S
C667 H680 0.931 . S
C668 C667 1.291 . S
C668 C669 1.373 . S
C668 H681 0.929 . S
C669 C668 1.373 . S
C669 C670 1.396 . S
C669 C676 1.403 . S
C670 C660 1.476 . S
C670 N665 1.318 . S
C670 C669 1.396 . S
H671 C666 0.929 . S
O672 Mn648 2.385 . S
O672 C650 1.234 . S
O673 Mn648 2.209 . S
O673 Mn649 2.215 . S
O673 C650 1.283 . S
O674 Mn648 2.094 . S
O674 C652 1.240 . S
O675 Mn649 2.117 . S
O675 C652 1.264 . S
C676 C669 1.403 . S
C676 C677 1.399 . S
C676 H682 0.929 . S
C677 C657 1.449 . S
C677 C676 1.399 . S
C677 H683 0.930 . S
H678 C658 0.931 . S
H679 C659 0.930 . S
H680 C667 0.931 . S
H681 C668 0.929 . S
H682 C676 0.929 . S
H683 C677 0.930 . S
Mn684 O689 2.095 . S
Mn684 O699 2.162 . S
Mn684 O700 2.297 . S
Mn684 O708 2.385 . S
Mn684 O709 2.209 . S
Mn684 O710 2.094 . S
Mn685 O690 2.121 . S
Mn685 N692 2.257 . S
Mn685 N701 2.282 . S
Mn685 O709 2.215 . S
Mn685 O711 2.117 . S
C686 O708 1.234 . S
C686 O709 1.283 . S
C687 O699 1.281 . S
C687 O700 1.236 . S
C688 O710 1.240 . S
C688 O711 1.264 . S
O689 Mn684 2.095 . S
O689 C698 1.250 . S
O690 Mn685 2.121 . S
O690 C698 1.258 . S
C691 N692 1.326 . S
C691 C695 1.460 . S
C691 H697 0.929 . S
N692 Mn685 2.257 . S
N692 C691 1.326 . S
N692 C696 1.362 . S
C693 C694 1.258 . S
C693 C696 1.431 . S
C693 C713 1.449 . S
C694 C693 1.258 . S
C694 C695 1.477 . S
C694 H714 0.931 . S
C695 C691 1.460 . S
C695 C694 1.477 . S
C695 H715 0.930 . S
C696 N692 1.362 . S
C696 C693 1.431 . S
C696 C706 1.476 . S
H697 C691 0.929 . S
C698 O689 1.250 . S
C698 O690 1.258 . S
O699 Mn684 2.162 . S
O699 C687 1.281 . S
O700 Mn684 2.297 . S
O700 C687 1.236 . S
N701 Mn685 2.282 . S
N701 C702 1.328 . S
N701 C706 1.318 . S
C702 N701 1.328 . S
C702 C703 1.457 . S
C702 H707 0.929 . S
C703 C702 1.457 . S
C703 C704 1.291 . S
C703 H716 0.931 . S
C704 C703 1.291 . S
C704 C705 1.373 . S
C704 H717 0.929 . S
C705 C704 1.373 . S
C705 C706 1.396 . S
C705 C712 1.403 . S
C706 C696 1.476 . S
C706 N701 1.318 . S
C706 C705 1.396 . S
H707 C702 0.929 . S
O708 Mn684 2.385 . S
O708 C686 1.234 . S
O709 Mn684 2.209 . S
O709 Mn685 2.215 . S
O709 C686 1.283 . S
O710 Mn684 2.094 . S
O710 C688 1.240 . S
O711 Mn685 2.117 . S
O711 C688 1.264 . S
C712 C705 1.403 . S
C712 C713 1.399 . S
C712 H718 0.929 . S
C713 C693 1.449 . S
C713 C712 1.399 . S
C713 H719 0.930 . S
H714 C694 0.931 . S
H715 C695 0.930 . S
H716 C703 0.931 . S
H717 C704 0.929 . S
H718 C712 0.929 . S
H719 C713 0.930 . S
Mn720 O725 2.095 . S
Mn720 O735 2.162 . S
Mn720 O736 2.297 . S
Mn720 O744 2.385 . S
Mn720 O745 2.209 . S
Mn720 O746 2.094 1_554 S
Mn721 O726 2.121 . S
Mn721 N728 2.257 . S
Mn721 N737 2.282 . S
Mn721 O745 2.215 1_556 S
Mn721 O747 2.117 . S
C722 O744 1.234 . S
C722 O745 1.283 . S
C723 O735 1.281 . S
C723 O736 1.236 . S
C724 O746 1.240 . S
C724 O747 1.264 . S
O725 Mn720 2.095 . S
O725 C734 1.250 . S
O726 Mn721 2.121 . S
O726 C734 1.258 1_556 S
C727 N728 1.326 . S
C727 C731 1.460 . S
C727 H733 0.929 . S
N728 Mn721 2.257 . S
N728 C727 1.326 . S
N728 C732 1.362 . S
C729 C730 1.258 . S
C729 C732 1.431 . S
C729 C749 1.449 . S
C730 C729 1.258 . S
C730 C731 1.477 . S
C730 H750 0.931 . S
C731 C727 1.460 . S
C731 C730 1.477 . S
C731 H751 0.930 . S
C732 N728 1.362 . S
C732 C729 1.431 . S
C732 C742 1.476 . S
H733 C727 0.929 . S
C734 O725 1.250 . S
C734 O726 1.258 1_554 S
O735 Mn720 2.162 . S
O735 C723 1.281 . S
O736 Mn720 2.297 . S
O736 C723 1.236 . S
N737 Mn721 2.282 . S
N737 C738 1.328 . S
N737 C742 1.318 . S
C738 N737 1.328 . S
C738 C739 1.457 . S
C738 H743 0.929 . S
C739 C738 1.457 . S
C739 C740 1.291 . S
C739 H752 0.931 . S
C740 C739 1.291 . S
C740 C741 1.373 . S
C740 H753 0.929 . S
C741 C740 1.373 . S
C741 C742 1.396 . S
C741 C748 1.403 . S
C742 C732 1.476 . S
C742 N737 1.318 . S
C742 C741 1.396 . S
H743 C738 0.929 . S
O744 Mn720 2.385 . S
O744 C722 1.234 . S
O745 Mn720 2.209 . S
O745 Mn721 2.215 1_554 S
O745 C722 1.283 . S
O746 Mn720 2.094 1_556 S
O746 C724 1.240 . S
O747 Mn721 2.117 . S
O747 C724 1.264 . S
C748 C741 1.403 . S
C748 C749 1.399 . S
C748 H754 0.929 . S
C749 C729 1.449 . S
C749 C748 1.399 . S
C749 H755 0.930 . S
H750 C730 0.931 . S
H751 C731 0.930 . S
H752 C739 0.931 . S
H753 C740 0.929 . S
H754 C748 0.929 . S
H755 C749 0.930 . S
Mn756 O761 2.095 . S
Mn756 O771 2.162 . S
Mn756 O772 2.297 . S
Mn756 O780 2.385 . S
Mn756 O781 2.209 . S
Mn756 O782 2.094 . S
Mn757 O762 2.121 . S
Mn757 N764 2.257 . S
Mn757 N773 2.282 . S
Mn757 O781 2.215 . S
Mn757 O783 2.117 . S
C758 O780 1.234 . S
C758 O781 1.283 . S
C759 O771 1.281 . S
C759 O772 1.236 . S
C760 O782 1.240 . S
C760 O783 1.264 . S
O761 Mn756 2.095 . S
O761 C770 1.250 . S
O762 Mn757 2.121 . S
O762 C770 1.258 . S
C763 N764 1.326 . S
C763 C767 1.460 . S
C763 H769 0.929 . S
N764 Mn757 2.257 . S
N764 C763 1.326 . S
N764 C768 1.362 . S
C765 C766 1.258 . S
C765 C768 1.431 . S
C765 C785 1.449 . S
C766 C765 1.258 . S
C766 C767 1.477 . S
C766 H786 0.931 . S
C767 C763 1.460 . S
C767 C766 1.477 . S
C767 H787 0.930 . S
C768 N764 1.362 . S
C768 C765 1.431 . S
C768 C778 1.476 . S
H769 C763 0.929 . S
C770 O761 1.250 . S
C770 O762 1.258 . S
O771 Mn756 2.162 . S
O771 C759 1.281 . S
O772 Mn756 2.297 . S
O772 C759 1.236 . S
N773 Mn757 2.282 . S
N773 C774 1.328 . S
N773 C778 1.318 . S
C774 N773 1.328 . S
C774 C775 1.457 . S
C774 H779 0.929 . S
C775 C774 1.457 . S
C775 C776 1.291 . S
C775 H788 0.931 . S
C776 C775 1.291 . S
C776 C777 1.373 . S
C776 H789 0.929 . S
C777 C776 1.373 . S
C777 C778 1.396 . S
C777 C784 1.403 . S
C778 C768 1.476 . S
C778 N773 1.318 . S
C778 C777 1.396 . S
H779 C774 0.929 . S
O780 Mn756 2.385 . S
O780 C758 1.234 . S
O781 Mn756 2.209 . S
O781 Mn757 2.215 . S
O781 C758 1.283 . S
O782 Mn756 2.094 . S
O782 C760 1.240 . S
O783 Mn757 2.117 . S
O783 C760 1.264 . S
C784 C777 1.403 . S
C784 C785 1.399 . S
C784 H790 0.929 . S
C785 C765 1.449 . S
C785 C784 1.399 . S
C785 H791 0.930 . S
H786 C766 0.931 . S
H787 C767 0.930 . S
H788 C775 0.931 . S
H789 C776 0.929 . S
H790 C784 0.929 . S
H791 C785 0.930 . S
Mn792 O797 2.095 . S
Mn792 O807 2.162 . S
Mn792 O808 2.297 . S
Mn792 O816 2.385 . S
Mn792 O817 2.209 . S
Mn792 O818 2.094 . S
Mn793 O798 2.121 . S
Mn793 N800 2.257 . S
Mn793 N809 2.282 . S
Mn793 O817 2.215 . S
Mn793 O819 2.117 . S
C794 O816 1.234 . S
C794 O817 1.283 . S
C795 O807 1.281 . S
C795 O808 1.236 . S
C796 O818 1.240 . S
C796 O819 1.264 . S
O797 Mn792 2.095 . S
O797 C806 1.250 . S
O798 Mn793 2.121 . S
O798 C806 1.258 . S
C799 N800 1.326 . S
C799 C803 1.460 . S
C799 H805 0.929 . S
N800 Mn793 2.257 . S
N800 C799 1.326 . S
N800 C804 1.362 . S
C801 C802 1.258 . S
C801 C804 1.431 . S
C801 C821 1.449 . S
C802 C801 1.258 . S
C802 C803 1.477 . S
C802 H822 0.931 . S
C803 C799 1.460 . S
C803 C802 1.477 . S
C803 H823 0.930 . S
C804 N800 1.362 . S
C804 C801 1.431 . S
C804 C814 1.476 . S
H805 C799 0.929 . S
C806 O797 1.250 . S
C806 O798 1.258 . S
O807 Mn792 2.162 . S
O807 C795 1.281 . S
O808 Mn792 2.297 . S
O808 C795 1.236 . S
N809 Mn793 2.282 . S
N809 C810 1.328 . S
N809 C814 1.318 . S
C810 N809 1.328 . S
C810 C811 1.457 . S
C810 H815 0.929 . S
C811 C810 1.457 . S
C811 C812 1.291 . S
C811 H824 0.931 . S
C812 C811 1.291 . S
C812 C813 1.373 . S
C812 H825 0.929 . S
C813 C812 1.373 . S
C813 C814 1.396 . S
C813 C820 1.403 . S
C814 C804 1.476 . S
C814 N809 1.318 . S
C814 C813 1.396 . S
H815 C810 0.929 . S
O816 Mn792 2.385 . S
O816 C794 1.234 . S
O817 Mn792 2.209 . S
O817 Mn793 2.215 . S
O817 C794 1.283 . S
O818 Mn792 2.094 . S
O818 C796 1.240 . S
O819 Mn793 2.117 . S
O819 C796 1.264 . S
C820 C813 1.403 . S
C820 C821 1.399 . S
C820 H826 0.929 . S
C821 C801 1.449 . S
C821 C820 1.399 . S
C821 H827 0.930 . S
H822 C802 0.931 . S
H823 C803 0.930 . S
H824 C811 0.931 . S
H825 C812 0.929 . S
H826 C820 0.929 . S
H827 C821 0.930 . S
Mn828 O833 2.095 . S
Mn828 O843 2.162 . S
Mn828 O844 2.297 . S
Mn828 O852 2.385 . S
Mn828 O853 2.209 . S
Mn828 O854 2.094 . S
Mn829 O834 2.121 . S
Mn829 N836 2.257 . S
Mn829 N845 2.282 . S
Mn829 O853 2.215 . S
Mn829 O855 2.117 . S
C830 O852 1.234 . S
C830 O853 1.283 . S
C831 O843 1.281 . S
C831 O844 1.236 . S
C832 O854 1.240 . S
C832 O855 1.264 . S
O833 Mn828 2.095 . S
O833 C842 1.250 . S
O834 Mn829 2.121 . S
O834 C842 1.258 . S
C835 N836 1.326 . S
C835 C839 1.460 . S
C835 H841 0.929 . S
N836 Mn829 2.257 . S
N836 C835 1.326 . S
N836 C840 1.362 . S
C837 C838 1.258 . S
C837 C840 1.431 . S
C837 C857 1.449 . S
C838 C837 1.258 . S
C838 C839 1.477 . S
C838 H858 0.931 . S
C839 C835 1.460 . S
C839 C838 1.477 . S
C839 H859 0.930 . S
C840 N836 1.362 . S
C840 C837 1.431 . S
C840 C850 1.476 . S
H841 C835 0.929 . S
C842 O833 1.250 . S
C842 O834 1.258 . S
O843 Mn828 2.162 . S
O843 C831 1.281 . S
O844 Mn828 2.297 . S
O844 C831 1.236 . S
N845 Mn829 2.282 . S
N845 C846 1.328 . S
N845 C850 1.318 . S
C846 N845 1.328 . S
C846 C847 1.457 . S
C846 H851 0.929 . S
C847 C846 1.457 . S
C847 C848 1.291 . S
C847 H860 0.931 . S
C848 C847 1.291 . S
C848 C849 1.373 . S
C848 H861 0.929 . S
C849 C848 1.373 . S
C849 C850 1.396 . S
C849 C856 1.403 . S
C850 C840 1.476 . S
C850 N845 1.318 . S
C850 C849 1.396 . S
H851 C846 0.929 . S
O852 Mn828 2.385 . S
O852 C830 1.234 . S
O853 Mn828 2.209 . S
O853 Mn829 2.215 . S
O853 C830 1.283 . S
O854 Mn828 2.094 . S
O854 C832 1.240 . S
O855 Mn829 2.117 . S
O855 C832 1.264 . S
C856 C849 1.403 . S
C856 C857 1.399 . S
C856 H862 0.929 . S
C857 C837 1.449 . S
C857 C856 1.399 . S
C857 H863 0.930 . S
H858 C838 0.931 . S
H859 C839 0.930 . S
H860 C847 0.931 . S
H861 C848 0.929 . S
H862 C856 0.929 . S
H863 C857 0.930 . S
Tb864 N893 2.617 . S
Tb864 N899 2.572 . S
Tb864 O908 2.465 . S
Tb864 O909 2.387 . S
Tb864 O911 2.428 . S
Tb864 O912 2.308 . S
Tb864 O916 2.349 1_545 S
Tb864 O919 2.393 . S
Tb864 C928 2.802 . S
C865 N866 1.379 . S
C865 C868 1.416 . S
C865 C872 1.424 1_556 S
N866 C865 1.379 . S
N866 C869 1.334 . S
N866 Tb875 2.617 1_566 S
C867 C869 1.390 . S
C867 C870 1.339 . S
C867 H887 0.930 . S
C868 C865 1.416 . S
C868 C870 1.416 . S
C868 C874 1.448 . S
C869 N866 1.334 . S
C869 C867 1.390 . S
C869 H880 0.930 . S
C870 C867 1.339 . S
C870 C868 1.416 . S
C870 H891 0.930 . S
C871 C872 1.413 . S
C871 C873 1.427 1_554 S
C871 C877 1.416 . S
C872 C865 1.424 1_554 S
C872 C871 1.413 . S
C872 N876 1.361 . S
C873 C871 1.427 1_556 S
C873 C874 1.328 . S
C873 H888 0.929 . S
C874 C868 1.448 . S
C874 C873 1.328 . S
C874 H889 0.930 . S
Tb875 N866 2.617 1_544 S
Tb875 N876 2.572 1_545 S
Tb875 O910 2.349 1_655 S
Tb875 O913 2.393 1_654 S
Tb875 O914 2.465 . S
Tb875 O915 2.387 1_645 S
Tb875 O917 2.428 1_554 S
Tb875 O918 2.308 1_655 S
Tb875 C939 2.802 . S
N876 C872 1.361 . S
N876 Tb875 2.572 1_565 S
N876 C878 1.340 . S
C877 C871 1.416 . S
C877 C879 1.332 . S
C877 H885 0.931 . S
C878 N876 1.340 . S
C878 C879 1.407 . S
C878 H884 0.930 . S
C879 C877 1.332 . S
C879 C878 1.407 . S
C879 H881 0.929 . S
H880 C869 0.930 . S
H881 C879 0.929 . S
H882 C897 0.930 . S
H883 C904 0.929 1_556 S
H884 C878 0.930 . S
H885 C877 0.931 . S
H886 C900 0.930 1_556 S
H887 C867 0.930 . S
H888 C873 0.929 . S
H889 C874 0.930 . S
H890 C895 0.930 . S
H891 C870 0.930 . S
H892 C903 0.931 . S
N893 Tb864 2.617 . S
N893 C894 1.379 . S
N893 C897 1.334 . S
C894 N893 1.379 . S
C894 C896 1.416 . S
C894 C902 1.424 . S
C895 H890 0.930 . S
C895 C897 1.390 . S
C895 C898 1.339 . S
C896 C894 1.416 . S
C896 C898 1.416 . S
C896 C929 1.448 . S
C897 H882 0.930 . S
C897 N893 1.334 . S
C897 C895 1.390 . S
C898 C895 1.339 . S
C898 C896 1.416 . S
C898 H905 0.930 . S
N899 Tb864 2.572 . S
N899 C900 1.340 . S
N899 C902 1.361 . S
C900 H886 0.930 1_554 S
C900 N899 1.340 . S
C900 C904 1.407 . S
C901 C902 1.413 . S
C901 C903 1.416 . S
C901 C930 1.427 . S
C902 C894 1.424 . S
C902 N899 1.361 . S
C902 C901 1.413 . S
C903 H892 0.931 . S
C903 C901 1.416 . S
C903 C904 1.332 . S
C904 H883 0.929 1_554 S
C904 C900 1.407 . S
C904 C903 1.332 . S
H905 C898 0.930 . S
H906 C929 0.930 . S
H907 C930 0.929 . S
O908 Tb864 2.465 . S
O908 C928 1.264 . S
O909 Tb864 2.387 . S
O909 C920 1.264 . S
O910 Tb875 2.349 1_455 S
O910 C920 1.243 . S
O911 Tb864 2.428 . S
O911 C928 1.256 . S
O912 Tb864 2.308 . S
O912 C927 1.266 1_554 S
O913 Tb875 2.393 1_456 S
O913 C927 1.248 . S
O914 Tb875 2.465 . S
O914 C939 1.264 . S
O915 Tb875 2.387 1_465 S
O915 C931 1.264 . S
O916 Tb864 2.349 1_565 S
O916 C931 1.243 . S
O917 Tb875 2.428 1_556 S
O917 C939 1.256 1_556 S
O918 Tb875 2.308 1_455 S
O918 C938 1.266 . S
O919 Tb864 2.393 . S
O919 C938 1.248 . S
C920 O909 1.264 . S
C920 O910 1.243 . S
C921 C924 1.399 . S
C921 C926 1.383 . S
C921 C928 1.496 . S
C922 C923 1.404 1_565 S
C922 C926 1.389 1_565 S
C923 C922 1.404 1_545 S
C923 C925 1.389 . S
C923 H940 0.915 1_545 S
C924 C921 1.399 . S
C924 C925 1.392 . S
C924 H941 0.929 . S
C925 C923 1.389 . S
C925 C924 1.392 . S
C925 H942 0.929 . S
C926 C921 1.383 . S
C926 C922 1.389 1_545 S
C926 H943 0.931 . S
C927 O912 1.266 1_556 S
C927 O913 1.248 . S
C928 Tb864 2.802 . S
C928 O908 1.264 . S
C928 O911 1.256 . S
C928 C921 1.496 . S
C929 C896 1.448 . S
C929 H906 0.930 . S
C929 C930 1.328 . S
C930 C901 1.427 . S
C930 H907 0.929 . S
C930 C929 1.328 . S
C931 O915 1.264 . S
C931 O916 1.243 . S
C932 C935 1.399 . S
C932 C936 1.383 1_556 S
C932 C939 1.496 1_556 S
C933 C934 1.399 1_554 S
C933 C936 1.389 . S
C934 C933 1.399 1_556 S
C934 C937 1.380 . S
C934 H944 0.929 . S
C935 C932 1.399 . S
C935 C937 1.392 . S
C935 H945 0.929 . S
C936 C932 1.383 1_554 S
C936 C933 1.389 . S
C936 H946 0.931 . S
C937 C934 1.380 . S
C937 C935 1.392 . S
C937 H947 0.929 . S
C938 O918 1.266 . S
C938 O919 1.248 . S
C939 Tb875 2.802 . S
C939 O914 1.264 . S
C939 O917 1.256 1_554 S
C939 C932 1.496 1_554 S
H940 C923 0.915 1_565 S
H941 C924 0.929 . S
H942 C925 0.929 . S
H943 C926 0.931 . S
H944 C934 0.929 . S
H945 C935 0.929 . S
H946 C936 0.931 . S
H947 C937 0.929 . S
Tb948 N977 2.617 . S
Tb948 N983 2.572 . S
Tb948 O992 2.465 . S
Tb948 O993 2.387 . S
Tb948 O995 2.428 . S
Tb948 O996 2.308 . S
Tb948 O1000 2.349 . S
Tb948 O1003 2.393 . S
Tb948 C1012 2.802 . S
C949 N950 1.379 . S
C949 C952 1.416 . S
C949 C956 1.424 . S
N950 C949 1.379 . S
N950 C953 1.334 . S
N950 Tb959 2.617 . S
C951 C953 1.390 . S
C951 C954 1.339 . S
C951 H971 0.930 . S
C952 C949 1.416 . S
C952 C954 1.416 . S
C952 C958 1.448 . S
C953 N950 1.334 . S
C953 C951 1.390 . S
C953 H964 0.930 . S
C954 C951 1.339 . S
C954 C952 1.416 . S
C954 H975 0.930 . S
C955 C956 1.413 . S
C955 C957 1.427 . S
C955 C961 1.416 . S
C956 C949 1.424 . S
C956 C955 1.413 . S
C956 N960 1.361 . S
C957 C955 1.427 . S
C957 C958 1.328 . S
C957 H972 0.929 . S
C958 C952 1.448 . S
C958 C957 1.328 . S
C958 H973 0.930 . S
Tb959 N950 2.617 . S
Tb959 N960 2.572 . S
Tb959 O994 2.349 . S
Tb959 O997 2.393 . S
Tb959 O998 2.465 . S
Tb959 O999 2.387 . S
Tb959 O1001 2.428 . S
Tb959 O1002 2.308 . S
Tb959 C1023 2.802 . S
N960 C956 1.361 . S
N960 Tb959 2.572 . S
N960 C962 1.340 . S
C961 C955 1.416 . S
C961 C963 1.332 . S
C961 H969 0.931 . S
C962 N960 1.340 . S
C962 C963 1.407 . S
C962 H968 0.930 . S
C963 C961 1.332 . S
C963 C962 1.407 . S
C963 H965 0.929 . S
H964 C953 0.930 . S
H965 C963 0.929 . S
H966 C981 0.930 . S
H967 C988 0.929 . S
H968 C962 0.930 . S
H969 C961 0.931 . S
H970 C984 0.930 . S
H971 C951 0.930 . S
H972 C957 0.929 . S
H973 C958 0.930 . S
H974 C979 0.930 . S
H975 C954 0.930 . S
H976 C987 0.931 . S
N977 Tb948 2.617 . S
N977 C978 1.379 . S
N977 C981 1.334 . S
C978 N977 1.379 . S
C978 C980 1.416 . S
C978 C986 1.424 . S
C979 H974 0.930 . S
C979 C981 1.390 . S
C979 C982 1.339 . S
C980 C978 1.416 . S
C980 C982 1.416 . S
C980 C1013 1.448 . S
C981 H966 0.930 . S
C981 N977 1.334 . S
C981 C979 1.390 . S
C982 C979 1.339 . S
C982 C980 1.416 . S
C982 H989 0.930 . S
N983 Tb948 2.572 . S
N983 C984 1.340 . S
N983 C986 1.361 . S
C984 H970 0.930 . S
C984 N983 1.340 . S
C984 C988 1.407 . S
C985 C986 1.413 . S
C985 C987 1.416 . S
C985 C1014 1.427 . S
C986 C978 1.424 . S
C986 N983 1.361 . S
C986 C985 1.413 . S
C987 H976 0.931 . S
C987 C985 1.416 . S
C987 C988 1.332 . S
C988 H967 0.929 . S
C988 C984 1.407 . S
C988 C987 1.332 . S
H989 C982 0.930 . S
H990 C1013 0.930 . S
H991 C1014 0.929 . S
O992 Tb948 2.465 . S
O992 C1012 1.264 . S
O993 Tb948 2.387 . S
O993 C1004 1.264 . S
O994 Tb959 2.349 . S
O994 C1004 1.243 . S
O995 Tb948 2.428 . S
O995 C1012 1.256 . S
O996 Tb948 2.308 . S
O996 C1011 1.266 . S
O997 Tb959 2.393 . S
O997 C1011 1.248 . S
O998 Tb959 2.465 . S
O998 C1023 1.264 . S
O999 Tb959 2.387 . S
O999 C1015 1.264 . S
O1000 Tb948 2.349 . S
O1000 C1015 1.243 . S
O1001 Tb959 2.428 . S
O1001 C1023 1.256 . S
O1002 Tb959 2.308 . S
O1002 C1022 1.266 . S
O1003 Tb948 2.393 . S
O1003 C1022 1.248 . S
C1004 O993 1.264 . S
C1004 O994 1.243 . S
C1005 C1008 1.399 . S
C1005 C1010 1.383 . S
C1005 C1012 1.496 . S
C1006 C1007 1.399 . S
C1006 C1010 1.389 . S
C1007 C1006 1.399 . S
C1007 C1009 1.380 . S
C1007 H1024 0.929 . S
C1008 C1005 1.399 . S
C1008 C1009 1.392 . S
C1008 H1025 0.929 . S
C1009 C1007 1.380 . S
C1009 C1008 1.392 . S
C1009 H1026 0.929 . S
C1010 C1005 1.383 . S
C1010 C1006 1.389 . S
C1010 H1027 0.931 . S
C1011 O996 1.266 . S
C1011 O997 1.248 . S
C1012 Tb948 2.802 . S
C1012 O992 1.264 . S
C1012 O995 1.256 . S
C1012 C1005 1.496 . S
C1013 C980 1.448 . S
C1013 H990 0.930 . S
C1013 C1014 1.328 . S
C1014 C985 1.427 . S
C1014 H991 0.929 . S
C1014 C1013 1.328 . S
C1015 O999 1.264 . S
C1015 O1000 1.243 . S
C1016 C1019 1.399 . S
C1016 C1020 1.383 . S
C1016 C1023 1.496 . S
C1017 C1018 1.399 . S
C1017 C1020 1.389 . S
C1018 C1017 1.399 . S
C1018 C1021 1.380 . S
C1018 H1028 0.929 . S
C1019 C1016 1.399 . S
C1019 C1021 1.392 . S
C1019 H1029 0.929 . S
C1020 C1016 1.383 . S
C1020 C1017 1.389 . S
C1020 H1030 0.931 . S
C1021 C1018 1.380 . S
C1021 C1019 1.392 . S
C1021 H1031 0.929 . S
C1022 O1002 1.266 . S
C1022 O1003 1.248 . S
C1023 Tb959 2.802 . S
C1023 O998 1.264 . S
C1023 O1001 1.256 . S
C1023 C1016 1.496 . S
H1024 C1007 0.929 . S
H1025 C1008 0.929 . S
H1026 C1009 0.929 . S
H1027 C1010 0.931 . S
H1028 C1018 0.929 . S
H1029 C1019 0.929 . S
H1030 C1020 0.931 . S
H1031 C1021 0.929 . S
Tb1032 N1061 2.617 . S
Tb1032 N1067 2.572 1_545 S
Tb1032 O1076 2.465 . S
Tb1032 O1077 2.387 1_545 S
Tb1032 O1079 2.428 . S
Tb1032 O1080 2.308 . S
Tb1032 O1084 2.349 . S
Tb1032 O1087 2.393 . S
Tb1032 C1096 2.802 . S
C1033 N1034 1.379 . S
C1033 C1036 1.416 . S
C1033 C1040 1.424 . S
N1034 C1033 1.379 . S
N1034 C1037 1.334 . S
N1034 Tb1043 2.617 . S
C1035 C1037 1.390 . S
C1035 C1038 1.339 . S
C1035 H1055 0.930 . S
C1036 C1033 1.416 . S
C1036 C1038 1.416 . S
C1036 C1042 1.448 . S
C1037 N1034 1.334 . S
C1037 C1035 1.390 . S
C1037 H1048 0.930 . S
C1038 C1035 1.339 . S
C1038 C1036 1.416 . S
C1038 H1059 0.930 . S
C1039 C1040 1.413 . S
C1039 C1041 1.427 . S
C1039 C1045 1.416 . S
C1040 C1033 1.424 . S
C1040 C1039 1.413 . S
C1040 N1044 1.361 . S
C1041 C1039 1.427 . S
C1041 C1042 1.328 . S
C1041 H1056 0.929 . S
C1042 C1036 1.448 . S
C1042 C1041 1.328 . S
C1042 H1057 0.930 . S
Tb1043 N1034 2.617 . S
Tb1043 N1044 2.572 . S
Tb1043 O1078 2.349 . S
Tb1043 O1081 2.393 . S
Tb1043 O1082 2.465 . S
Tb1043 O1083 2.387 . S
Tb1043 O1085 2.428 . S
Tb1043 O1086 2.308 . S
Tb1043 C1107 2.802 . S
N1044 C1040 1.361 . S
N1044 Tb1043 2.572 . S
N1044 C1046 1.340 . S
C1045 C1039 1.416 . S
C1045 C1047 1.332 . S
C1045 H1053 0.931 . S
C1046 N1044 1.340 . S
C1046 C1047 1.407 . S
C1046 H1052 0.930 . S
C1047 C1045 1.332 . S
C1047 C1046 1.407 . S
C1047 H1049 0.929 . S
H1048 C1037 0.930 . S
H1049 C1047 0.929 . S
H1050 C1065 0.930 . S
H1051 C1072 0.929 . S
H1052 C1046 0.930 . S
H1053 C1045 0.931 . S
H1054 C1068 0.930 1_545 S
H1055 C1035 0.930 . S
H1056 C1041 0.929 . S
H1057 C1042 0.930 . S
H1058 C1063 0.930 . S
H1059 C1038 0.930 . S
H1060 C1071 0.931 . S
N1061 Tb1032 2.617 . S
N1061 C1062 1.379 1_545 S
N1061 C1065 1.334 . S
C1062 N1061 1.379 1_565 S
C1062 C1064 1.416 . S
C1062 C1070 1.424 . S
C1063 H1058 0.930 . S
C1063 C1065 1.390 1_565 S
C1063 C1066 1.339 . S
C1064 C1062 1.416 . S
C1064 C1066 1.416 . S
C1064 C1097 1.448 . S
C1065 H1050 0.930 . S
C1065 N1061 1.334 . S
C1065 C1063 1.390 1_545 S
C1066 C1063 1.339 . S
C1066 C1064 1.416 . S
C1066 H1073 0.930 . S
N1067 Tb1032 2.572 1_565 S
N1067 C1068 1.340 . S
N1067 C1070 1.361 . S
C1068 H1054 0.930 1_565 S
C1068 N1067 1.340 . S
C1068 C1072 1.407 . S
C1069 C1070 1.413 . S
C1069 C1071 1.416 . S
C1069 C1098 1.427 . S
C1070 C1062 1.424 . S
C1070 N1067 1.361 . S
C1070 C1069 1.413 . S
C1071 H1060 0.931 . S
C1071 C1069 1.416 . S
C1071 C1072 1.332 . S
C1072 H1051 0.929 . S
C1072 C1068 1.407 . S
C1072 C1071 1.332 . S
H1073 C1066 0.930 . S
H1074 C1097 0.930 . S
H1075 C1098 0.929 . S
O1076 Tb1032 2.465 . S
O1076 C1096 1.264 . S
O1077 Tb1032 2.387 1_565 S
O1077 C1088 1.264 . S
O1078 Tb1043 2.349 . S
O1078 C1088 1.243 1_545 S
O1079 Tb1032 2.428 . S
O1079 C1096 1.256 . S
O1080 Tb1032 2.308 . S
O1080 C1095 1.266 . S
O1081 Tb1043 2.393 . S
O1081 C1095 1.248 . S
O1082 Tb1043 2.465 . S
O1082 C1107 1.264 . S
O1083 Tb1043 2.387 . S
O1083 C1099 1.264 . S
O1084 Tb1032 2.349 . S
O1084 C1099 1.243 . S
O1085 Tb1043 2.428 . S
O1085 C1107 1.256 . S
O1086 Tb1043 2.308 . S
O1086 C1106 1.266 . S
O1087 Tb1032 2.393 . S
O1087 C1106 1.248 . S
C1088 O1077 1.264 . S
C1088 O1078 1.243 1_565 S
C1089 C1092 1.399 . S
C1089 C1094 1.383 . S
C1089 C1096 1.496 . S
C1090 C1091 1.399 . S
C1090 C1094 1.389 . S
C1091 C1090 1.399 . S
C1091 C1093 1.380 . S
C1091 H1108 0.929 . S
C1092 C1089 1.399 . S
C1092 C1093 1.392 . S
C1092 H1109 0.929 . S
C1093 C1091 1.380 . S
C1093 C1092 1.392 . S
C1093 H1110 0.929 . S
C1094 C1089 1.383 . S
C1094 C1090 1.389 . S
C1094 H1111 0.931 . S
C1095 O1080 1.266 . S
C1095 O1081 1.248 . S
C1096 Tb1032 2.802 . S
C1096 O1076 1.264 . S
C1096 O1079 1.256 . S
C1096 C1089 1.496 . S
C1097 C1064 1.448 . S
C1097 H1074 0.930 . S
C1097 C1098 1.328 . S
C1098 C1069 1.427 . S
C1098 H1075 0.929 . S
C1098 C1097 1.328 . S
C1099 O1083 1.264 . S
C1099 O1084 1.243 . S
C1100 C1103 1.399 1_545 S
C1100 C1104 1.383 1_545 S
C1100 C1107 1.496 . S
C1101 C1102 1.399 . S
C1101 C1104 1.389 . S
C1102 C1101 1.399 . S
C1102 C1105 1.380 . S
C1102 H1112 0.929 . S
C1103 C1100 1.399 1_565 S
C1103 C1105 1.392 . S
C1103 H1113 0.929 1_565 S
C1104 C1100 1.383 1_565 S
C1104 C1101 1.389 . S
C1104 H1114 0.930 . S
C1105 C1102 1.380 . S
C1105 C1103 1.392 . S
C1105 H1115 0.929 . S
C1106 O1086 1.266 . S
C1106 O1087 1.248 . S
C1107 Tb1043 2.802 . S
C1107 O1082 1.264 . S
C1107 O1085 1.256 . S
C1107 C1100 1.496 . S
H1108 C1091 0.929 . S
H1109 C1092 0.929 . S
H1110 C1093 0.929 . S
H1111 C1094 0.931 . S
H1112 C1102 0.929 . S
H1113 C1103 0.929 1_545 S
H1114 C1104 0.930 . S
H1115 C1105 0.929 . S
Tb1116 N1145 2.617 . S
Tb1116 N1151 2.572 . S
Tb1116 O1160 2.465 . S
Tb1116 O1161 2.387 . S
Tb1116 O1163 2.428 . S
Tb1116 O1164 2.308 . S
Tb1116 O1168 2.349 . S
Tb1116 O1171 2.393 . S
Tb1116 C1180 2.802 . S
C1117 N1118 1.379 . S
C1117 C1120 1.416 . S
C1117 C1124 1.424 . S
N1118 C1117 1.379 . S
N1118 C1121 1.334 . S
N1118 Tb1127 2.617 . S
C1119 C1121 1.390 . S
C1119 C1122 1.339 . S
C1119 H1139 0.930 . S
C1120 C1117 1.416 . S
C1120 C1122 1.416 . S
C1120 C1126 1.448 . S
C1121 N1118 1.334 . S
C1121 C1119 1.390 . S
C1121 H1132 0.930 . S
C1122 C1119 1.339 . S
C1122 C1120 1.416 . S
C1122 H1143 0.930 . S
C1123 C1124 1.413 . S
C1123 C1125 1.427 . S
C1123 C1129 1.416 . S
C1124 C1117 1.424 . S
C1124 C1123 1.413 . S
C1124 N1128 1.361 . S
C1125 C1123 1.427 . S
C1125 C1126 1.328 . S
C1125 H1140 0.929 . S
C1126 C1120 1.448 . S
C1126 C1125 1.328 . S
C1126 H1141 0.930 . S
Tb1127 N1118 2.617 . S
Tb1127 N1128 2.572 . S
Tb1127 O1162 2.349 . S
Tb1127 O1165 2.393 . S
Tb1127 O1166 2.465 . S
Tb1127 O1167 2.387 . S
Tb1127 O1169 2.428 . S
Tb1127 O1170 2.308 . S
Tb1127 C1191 2.802 . S
N1128 C1124 1.361 . S
N1128 Tb1127 2.572 . S
N1128 C1130 1.340 . S
C1129 C1123 1.416 . S
C1129 C1131 1.332 . S
C1129 H1137 0.931 . S
C1130 N1128 1.340 . S
C1130 C1131 1.407 . S
C1130 H1136 0.930 . S
C1131 C1129 1.332 . S
C1131 C1130 1.407 . S
C1131 H1133 0.929 . S
H1132 C1121 0.930 . S
H1133 C1131 0.929 . S
H1134 C1149 0.930 . S
H1135 C1156 0.929 . S
H1136 C1130 0.930 . S
H1137 C1129 0.931 . S
H1138 C1152 0.930 . S
H1139 C1119 0.930 . S
H1140 C1125 0.929 . S
H1141 C1126 0.930 . S
H1142 C1147 0.930 . S
H1143 C1122 0.930 . S
H1144 C1155 0.931 . S
N1145 Tb1116 2.617 . S
N1145 C1146 1.379 . S
N1145 C1149 1.334 . S
C1146 N1145 1.379 . S
C1146 C1148 1.416 . S
C1146 C1154 1.424 . S
C1147 H1142 0.930 . S
C1147 C1149 1.390 . S
C1147 C1150 1.339 . S
C1148 C1146 1.416 . S
C1148 C1150 1.416 . S
C1148 C1181 1.448 . S
C1149 H1134 0.930 . S
C1149 N1145 1.334 . S
C1149 C1147 1.390 . S
C1150 C1147 1.339 . S
C1150 C1148 1.416 . S
C1150 H1157 0.930 . S
N1151 Tb1116 2.572 . S
N1151 C1152 1.340 . S
N1151 C1154 1.361 . S
C1152 H1138 0.930 . S
C1152 N1151 1.340 . S
C1152 C1156 1.407 . S
C1153 C1154 1.413 . S
C1153 C1155 1.416 . S
C1153 C1182 1.427 . S
C1154 C1146 1.424 . S
C1154 N1151 1.361 . S
C1154 C1153 1.413 . S
C1155 H1144 0.931 . S
C1155 C1153 1.416 . S
C1155 C1156 1.332 . S
C1156 H1135 0.929 . S
C1156 C1152 1.407 . S
C1156 C1155 1.332 . S
H1157 C1150 0.930 . S
H1158 C1181 0.930 . S
H1159 C1182 0.929 . S
O1160 Tb1116 2.465 . S
O1160 C1180 1.264 . S
O1161 Tb1116 2.387 . S
O1161 C1172 1.264 . S
O1162 Tb1127 2.349 . S
O1162 C1172 1.243 . S
O1163 Tb1116 2.428 . S
O1163 C1180 1.256 . S
O1164 Tb1116 2.308 . S
O1164 C1179 1.266 . S
O1165 Tb1127 2.393 . S
O1165 C1179 1.248 . S
O1166 Tb1127 2.465 . S
O1166 C1191 1.264 . S
O1167 Tb1127 2.387 . S
O1167 C1183 1.264 . S
O1168 Tb1116 2.349 . S
O1168 C1183 1.243 . S
O1169 Tb1127 2.428 . S
O1169 C1191 1.256 . S
O1170 Tb1127 2.308 . S
O1170 C1190 1.266 . S
O1171 Tb1116 2.393 . S
O1171 C1190 1.248 . S
C1172 O1161 1.264 . S
C1172 O1162 1.243 . S
C1173 C1176 1.399 . S
C1173 C1178 1.383 . S
C1173 C1180 1.496 . S
C1174 C1175 1.399 . S
C1174 C1178 1.389 . S
C1175 C1174 1.399 . S
C1175 C1177 1.380 . S
C1175 H1192 0.929 . S
C1176 C1173 1.399 . S
C1176 C1177 1.392 . S
C1176 H1193 0.929 . S
C1177 C1175 1.380 . S
C1177 C1176 1.392 . S
C1177 H1194 0.929 . S
C1178 C1173 1.383 . S
C1178 C1174 1.389 . S
C1178 H1195 0.931 . S
C1179 O1164 1.266 . S
C1179 O1165 1.248 . S
C1180 Tb1116 2.802 . S
C1180 O1160 1.264 . S
C1180 O1163 1.256 . S
C1180 C1173 1.496 . S
C1181 C1148 1.448 . S
C1181 H1158 0.930 . S
C1181 C1182 1.328 . S
C1182 C1153 1.427 . S
C1182 H1159 0.929 . S
C1182 C1181 1.328 . S
C1183 O1167 1.264 . S
C1183 O1168 1.243 . S
C1184 C1187 1.399 . S
C1184 C1188 1.383 . S
C1184 C1191 1.496 . S
C1185 C1186 1.399 . S
C1185 C1188 1.389 . S
C1186 C1185 1.399 . S
C1186 C1189 1.380 . S
C1186 H1196 0.929 . S
C1187 C1184 1.399 . S
C1187 C1189 1.392 . S
C1187 H1197 0.929 . S
C1188 C1184 1.383 . S
C1188 C1185 1.389 . S
C1188 H1198 0.931 . S
C1189 C1186 1.380 . S
C1189 C1187 1.392 . S
C1189 H1199 0.929 . S
C1190 O1170 1.266 . S
C1190 O1171 1.248 . S
C1191 Tb1127 2.802 . S
C1191 O1166 1.264 . S
C1191 O1169 1.256 . S
C1191 C1184 1.496 . S
H1192 C1175 0.929 . S
H1193 C1176 0.929 . S
H1194 C1177 0.929 . S
H1195 C1178 0.931 . S
H1196 C1186 0.929 . S
H1197 C1187 0.929 . S
H1198 C1188 0.931 . S
H1199 C1189 0.929 . S
Tb1200 N1229 2.616 1_545 S
Tb1200 N1235 2.569 1_545 S
Tb1200 O1244 2.462 1_545 S
Tb1200 O1245 2.389 . S
Tb1200 O1247 2.425 1_545 S
Tb1200 O1248 2.309 . S
Tb1200 O1252 2.350 . S
Tb1200 O1255 2.395 . S
Tb1200 C1264 2.799 1_545 S
C1201 N1202 1.368 1_455 S
C1201 C1204 1.382 1_455 S
C1201 C1208 1.471 . S
N1202 C1201 1.368 1_655 S
N1202 C1205 1.334 . S
N1202 Tb1211 2.617 1_655 S
C1203 C1205 1.390 . S
C1203 C1206 1.339 . S
C1203 H1223 0.930 . S
C1204 C1201 1.382 1_655 S
C1204 C1206 1.416 . S
C1204 C1210 1.448 1_655 S
C1205 N1202 1.334 . S
C1205 C1203 1.390 . S
C1205 H1216 0.930 . S
C1206 C1203 1.339 . S
C1206 C1204 1.416 . S
C1206 H1227 0.930 . S
C1207 C1208 1.413 . S
C1207 C1209 1.427 . S
C1207 C1213 1.416 . S
C1208 C1201 1.471 . S
C1208 C1207 1.413 . S
C1208 N1212 1.361 . S
C1209 C1207 1.427 . S
C1209 C1210 1.328 . S
C1209 H1224 0.929 . S
C1210 C1204 1.448 1_455 S
C1210 C1209 1.328 . S
C1210 H1225 0.930 1_455 S
Tb1211 N1202 2.617 1_455 S
Tb1211 N1212 2.572 . S
Tb1211 O1246 2.349 . S
Tb1211 O1249 2.393 1_455 S
Tb1211 O1250 2.465 . S
Tb1211 O1251 2.387 . S
Tb1211 O1253 2.428 1_455 S
Tb1211 O1254 2.308 . S
Tb1211 C1275 2.802 . S
N1212 C1208 1.361 . S
N1212 Tb1211 2.572 . S
N1212 C1214 1.340 . S
C1213 C1207 1.416 . S
C1213 C1215 1.332 . S
C1213 H1221 0.931 . S
C1214 N1212 1.340 . S
C1214 C1215 1.407 . S
C1214 H1220 0.930 . S
C1215 C1213 1.332 . S
C1215 C1214 1.407 . S
C1215 H1217 0.929 . S
H1216 C1205 0.930 . S
H1217 C1215 0.929 . S
H1218 C1233 0.930 1_545 S
H1219 C1240 0.929 . S
H1220 C1214 0.930 . S
H1221 C1213 0.931 . S
H1222 C1236 0.930 . S
H1223 C1203 0.930 . S
H1224 C1209 0.929 . S
H1225 C1210 0.930 1_655 S
H1226 C1231 0.942 . S
H1227 C1206 0.930 . S
H1228 C1239 0.931 . S
N1229 Tb1200 2.616 1_565 S
N1229 C1230 1.379 . S
N1229 C1233 1.334 . S
C1230 N1229 1.379 . S
C1230 C1232 1.416 . S
C1230 C1238 1.424 . S
C1231 H1226 0.942 . S
C1231 C1233 1.390 . S
C1231 C1234 1.339 . S
C1232 C1230 1.416 . S
C1232 C1234 1.416 . S
C1232 C1265 1.448 . S
C1233 H1218 0.930 1_565 S
C1233 N1229 1.334 . S
C1233 C1231 1.390 . S
C1234 C1231 1.339 . S
C1234 C1232 1.416 . S
C1234 H1241 0.930 . S
N1235 Tb1200 2.569 1_565 S
N1235 C1236 1.340 1_455 S
N1235 C1238 1.361 . S
C1236 H1222 0.930 . S
C1236 N1235 1.340 1_655 S
C1236 C1240 1.407 . S
C1237 C1238 1.413 . S
C1237 C1239 1.416 1_455 S
C1237 C1266 1.427 . S
C1238 C1230 1.424 . S
C1238 N1235 1.361 . S
C1238 C1237 1.413 . S
C1239 H1228 0.931 . S
C1239 C1237 1.416 1_655 S
C1239 C1240 1.332 . S
C1240 H1219 0.929 . S
C1240 C1236 1.407 . S
C1240 C1239 1.332 . S
H1241 C1234 0.930 . S
H1242 C1265 0.930 . S
H1243 C1266 0.929 . S
O1244 Tb1200 2.462 1_565 S
O1244 C1264 1.264 . S
O1245 Tb1200 2.389 . S
O1245 C1256 1.264 . S
O1246 Tb1211 2.349 . S
O1246 C1256 1.243 . S
O1247 Tb1200 2.425 1_565 S
O1247 C1264 1.256 . S
O1248 Tb1200 2.309 . S
O1248 C1263 1.266 1_455 S
O1249 Tb1211 2.393 1_655 S
O1249 C1263 1.248 . S
O1250 Tb1211 2.465 . S
O1250 C1275 1.264 . S
O1251 Tb1211 2.387 . S
O1251 C1267 1.264 . S
O1252 Tb1200 2.350 . S
O1252 C1267 1.243 . S
O1253 Tb1211 2.428 1_655 S
O1253 C1275 1.256 1_655 S
O1254 Tb1211 2.308 . S
O1254 C1274 1.266 . S
O1255 Tb1200 2.395 . S
O1255 C1274 1.248 . S
C1256 O1245 1.264 . S
C1256 O1246 1.243 . S
C1257 C1260 1.399 . S
C1257 C1262 1.383 . S
C1257 C1264 1.496 . S
C1258 C1259 1.399 . S
C1258 C1262 1.389 . S
C1259 C1258 1.399 . S
C1259 C1261 1.380 . S
C1259 H1276 0.929 . S
C1260 C1257 1.399 . S
C1260 C1261 1.392 . S
C1260 H1277 0.929 . S
C1261 C1259 1.380 . S
C1261 C1260 1.392 . S
C1261 H1278 0.929 . S
C1262 C1257 1.383 . S
C1262 C1258 1.389 . S
C1262 H1279 0.931 . S
C1263 O1248 1.266 1_655 S
C1263 O1249 1.248 . S
C1264 Tb1200 2.799 1_565 S
C1264 O1244 1.264 . S
C1264 O1247 1.256 . S
C1264 C1257 1.496 . S
C1265 C1232 1.448 . S
C1265 H1242 0.930 . S
C1265 C1266 1.328 . S
C1266 C1237 1.427 . S
C1266 H1243 0.929 . S
C1266 C1265 1.328 . S
C1267 O1251 1.264 . S
C1267 O1252 1.243 . S
C1268 C1271 1.399 1_455 S
C1268 C1272 1.383 . S
C1268 C1275 1.496 . S
C1269 C1270 1.399 1_455 S
C1269 C1272 1.389 . S
C1270 C1269 1.399 1_655 S
C1270 C1273 1.380 . S
C1270 H1280 0.929 . S
C1271 C1268 1.399 1_655 S
C1271 C1273 1.392 . S
C1271 H1281 0.929 . S
C1272 C1268 1.383 . S
C1272 C1269 1.389 . S
C1272 H1282 0.931 . S
C1273 C1270 1.380 . S
C1273 C1271 1.392 . S
C1273 H1283 0.929 . S
C1274 O1254 1.266 . S
C1274 O1255 1.248 . S
C1275 Tb1211 2.802 . S
C1275 O1250 1.264 . S
C1275 O1253 1.256 1_455 S
C1275 C1268 1.496 . S
H1276 C1259 0.929 . S
H1277 C1260 0.929 . S
H1278 C1261 0.929 . S
H1279 C1262 0.931 . S
H1280 C1270 0.929 . S
H1281 C1271 0.929 . S
H1282 C1272 0.931 . S
H1283 C1273 0.929 . S
Tb1284 N1313 2.617 . S
Tb1284 N1319 2.572 . S
Tb1284 O1328 2.465 . S
Tb1284 O1329 2.387 . S
Tb1284 O1331 2.428 . S
Tb1284 O1332 2.308 . S
Tb1284 O1336 2.349 . S
Tb1284 O1339 2.393 . S
Tb1284 C1348 2.802 . S
C1285 N1286 1.379 . S
C1285 C1288 1.416 . S
C1285 C1292 1.424 . S
N1286 C1285 1.379 . S
N1286 C1289 1.334 . S
N1286 Tb1295 2.617 . S
C1287 C1289 1.390 . S
C1287 C1290 1.339 . S
C1287 H1307 0.930 . S
C1288 C1285 1.416 . S
C1288 C1290 1.416 . S
C1288 C1294 1.448 . S
C1289 N1286 1.334 . S
C1289 C1287 1.390 . S
C1289 H1300 0.930 . S
C1290 C1287 1.339 . S
C1290 C1288 1.416 . S
C1290 H1311 0.930 . S
C1291 C1292 1.413 . S
C1291 C1293 1.427 . S
C1291 C1297 1.416 . S
C1292 C1285 1.424 . S
C1292 C1291 1.413 . S
C1292 N1296 1.361 . S
C1293 C1291 1.427 . S
C1293 C1294 1.328 . S
C1293 H1308 0.929 . S
C1294 C1288 1.448 . S
C1294 C1293 1.328 . S
C1294 H1309 0.930 . S
Tb1295 N1286 2.617 . S
Tb1295 N1296 2.572 . S
Tb1295 O1330 2.349 . S
Tb1295 O1333 2.393 . S
Tb1295 O1334 2.465 . S
Tb1295 O1335 2.387 . S
Tb1295 O1337 2.428 . S
Tb1295 O1338 2.308 . S
Tb1295 C1359 2.802 . S
N1296 C1292 1.361 . S
N1296 Tb1295 2.572 . S
N1296 C1298 1.340 . S
C1297 C1291 1.416 . S
C1297 C1299 1.332 . S
C1297 H1305 0.931 . S
C1298 N1296 1.340 . S
C1298 C1299 1.407 . S
C1298 H1304 0.930 . S
C1299 C1297 1.332 . S
C1299 C1298 1.407 . S
C1299 H1301 0.929 . S
H1300 C1289 0.930 . S
H1301 C1299 0.929 . S
H1302 C1317 0.930 . S
H1303 C1324 0.929 . S
H1304 C1298 0.930 . S
H1305 C1297 0.931 . S
H1306 C1320 0.930 . S
H1307 C1287 0.930 . S
H1308 C1293 0.929 . S
H1309 C1294 0.930 . S
H1310 C1315 0.930 . S
H1311 C1290 0.930 . S
H1312 C1323 0.931 . S
N1313 Tb1284 2.617 . S
N1313 C1314 1.379 . S
N1313 C1317 1.334 . S
C1314 N1313 1.379 . S
C1314 C1316 1.416 . S
C1314 C1322 1.424 . S
C1315 H1310 0.930 . S
C1315 C1317 1.390 . S
C1315 C1318 1.339 . S
C1316 C1314 1.416 . S
C1316 C1318 1.416 . S
C1316 C1349 1.448 . S
C1317 H1302 0.930 . S
C1317 N1313 1.334 . S
C1317 C1315 1.390 . S
C1318 C1315 1.339 . S
C1318 C1316 1.416 . S
C1318 H1325 0.930 . S
N1319 Tb1284 2.572 . S
N1319 C1320 1.340 . S
N1319 C1322 1.361 . S
C1320 H1306 0.930 . S
C1320 N1319 1.340 . S
C1320 C1324 1.407 . S
C1321 C1322 1.413 . S
C1321 C1323 1.416 . S
C1321 C1350 1.427 . S
C1322 C1314 1.424 . S
C1322 N1319 1.361 . S
C1322 C1321 1.413 . S
C1323 H1312 0.931 . S
C1323 C1321 1.416 . S
C1323 C1324 1.332 . S
C1324 H1303 0.929 . S
C1324 C1320 1.407 . S
C1324 C1323 1.332 . S
H1325 C1318 0.930 . S
H1326 C1349 0.930 . S
H1327 C1350 0.929 . S
O1328 Tb1284 2.465 . S
O1328 C1348 1.264 . S
O1329 Tb1284 2.387 . S
O1329 C1340 1.264 . S
O1330 Tb1295 2.349 . S
O1330 C1340 1.243 . S
O1331 Tb1284 2.428 . S
O1331 C1348 1.256 . S
O1332 Tb1284 2.308 . S
O1332 C1347 1.266 . S
O1333 Tb1295 2.393 . S
O1333 C1347 1.248 . S
O1334 Tb1295 2.465 . S
O1334 C1359 1.264 . S
O1335 Tb1295 2.387 . S
O1335 C1351 1.264 . S
O1336 Tb1284 2.349 . S
O1336 C1351 1.243 . S
O1337 Tb1295 2.428 . S
O1337 C1359 1.256 . S
O1338 Tb1295 2.308 . S
O1338 C1358 1.266 . S
O1339 Tb1284 2.393 . S
O1339 C1358 1.248 . S
C1340 O1329 1.264 . S
C1340 O1330 1.243 . S
C1341 C1344 1.399 . S
C1341 C1346 1.383 . S
C1341 C1348 1.496 . S
C1342 C1343 1.399 . S
C1342 C1346 1.389 . S
C1343 C1342 1.399 . S
C1343 C1345 1.380 . S
C1343 H1360 0.929 . S
C1344 C1341 1.399 . S
C1344 C1345 1.392 . S
C1344 H1361 0.929 . S
C1345 C1343 1.380 . S
C1345 C1344 1.392 . S
C1345 H1362 0.929 . S
C1346 C1341 1.383 . S
C1346 C1342 1.389 . S
C1346 H1363 0.931 . S
C1347 O1332 1.266 . S
C1347 O1333 1.248 . S
C1348 Tb1284 2.802 . S
C1348 O1328 1.264 . S
C1348 O1331 1.256 . S
C1348 C1341 1.496 . S
C1349 C1316 1.448 . S
C1349 H1326 0.930 . S
C1349 C1350 1.328 . S
C1350 C1321 1.427 . S
C1350 H1327 0.929 . S
C1350 C1349 1.328 . S
C1351 O1335 1.264 . S
C1351 O1336 1.243 . S
C1352 C1355 1.399 . S
C1352 C1356 1.383 . S
C1352 C1359 1.496 . S
C1353 C1354 1.399 . S
C1353 C1356 1.389 . S
C1354 C1353 1.399 . S
C1354 C1357 1.380 . S
C1354 H1364 0.929 . S
C1355 C1352 1.399 . S
C1355 C1357 1.392 . S
C1355 H1365 0.929 . S
C1356 C1352 1.383 . S
C1356 C1353 1.389 . S
C1356 H1366 0.931 . S
C1357 C1354 1.380 . S
C1357 C1355 1.392 . S
C1357 H1367 0.929 . S
C1358 O1338 1.266 . S
C1358 O1339 1.248 . S
C1359 Tb1295 2.802 . S
C1359 O1334 1.264 . S
C1359 O1337 1.256 . S
C1359 C1352 1.496 . S
H1360 C1343 0.929 . S
H1361 C1344 0.929 . S
H1362 C1345 0.929 . S
H1363 C1346 0.931 . S
H1364 C1354 0.929 . S
H1365 C1355 0.929 . S
H1366 C1356 0.931 . S
H1367 C1357 0.929 . S
Tb1368 N1397 2.617 . S
Tb1368 N1403 2.572 . S
Tb1368 O1412 2.465 . S
Tb1368 O1413 2.387 1_556 S
Tb1368 O1415 2.428 . S
Tb1368 O1416 2.308 1_556 S
Tb1368 O1420 2.349 1_556 S
Tb1368 O1423 2.393 1_556 S
Tb1368 C1432 2.802 . S
C1369 N1370 1.379 1_545 S
C1369 C1372 1.416 1_545 S
C1369 C1376 1.424 . S
N1370 C1369 1.379 1_565 S
N1370 C1373 1.334 . S
N1370 Tb1379 2.617 1_565 S
C1371 C1373 1.390 . S
C1371 C1374 1.339 . S
C1371 H1391 0.930 . S
C1372 C1369 1.416 1_565 S
C1372 C1374 1.416 . S
C1372 C1378 1.448 1_565 S
C1373 N1370 1.334 . S
C1373 C1371 1.390 . S
C1373 H1384 0.930 . S
C1374 C1371 1.339 . S
C1374 C1372 1.416 . S
C1374 H1395 0.930 . S
C1375 C1376 1.413 . S
C1375 C1377 1.427 . S
C1375 C1381 1.416 . S
C1376 C1369 1.424 . S
C1376 C1375 1.413 . S
C1376 N1380 1.361 . S
C1377 C1375 1.427 . S
C1377 C1378 1.328 . S
C1377 H1392 0.929 . S
C1378 C1372 1.448 1_545 S
C1378 C1377 1.328 . S
C1378 H1393 0.930 1_545 S
Tb1379 N1370 2.617 1_545 S
Tb1379 N1380 2.572 . S
Tb1379 O1414 2.349 . S
Tb1379 O1417 2.393 1_545 S
Tb1379 O1418 2.465 . S
Tb1379 O1419 2.387 . S
Tb1379 O1421 2.428 1_545 S
Tb1379 O1422 2.308 . S
Tb1379 C1443 2.802 . S
N1380 C1376 1.361 . S
N1380 Tb1379 2.572 . S
N1380 C1382 1.340 . S
C1381 C1375 1.416 . S
C1381 C1383 1.332 . S
C1381 H1389 0.931 . S
C1382 N1380 1.340 . S
C1382 C1383 1.407 . S
C1382 H1388 0.930 . S
C1383 C1381 1.332 . S
C1383 C1382 1.407 . S
C1383 H1385 0.929 . S
H1384 C1373 0.930 . S
H1385 C1383 0.929 . S
H1386 C1401 0.930 1_554 S
H1387 C1408 0.904 1_565 S
H1388 C1382 0.930 . S
H1389 C1381 0.931 . S
H1390 C1404 0.930 . S
H1391 C1371 0.930 . S
H1392 C1377 0.929 . S
H1393 C1378 0.930 1_565 S
H1394 C1399 0.930 . S
H1395 C1374 0.930 . S
H1396 C1407 0.931 . S
N1397 Tb1368 2.617 . S
N1397 C1398 1.379 . S
N1397 C1401 1.334 . S
C1398 N1397 1.379 . S
C1398 C1400 1.416 . S
C1398 C1406 1.424 . S
C1399 H1394 0.930 . S
C1399 C1401 1.390 . S
C1399 C1402 1.339 . S
C1400 C1398 1.416 . S
C1400 C1402 1.416 . S
C1400 C1433 1.448 . S
C1401 H1386 0.930 1_556 S
C1401 N1397 1.334 . S
C1401 C1399 1.390 . S
C1402 C1399 1.339 . S
C1402 C1400 1.416 . S
C1402 H1409 0.930 . S
N1403 Tb1368 2.572 . S
N1403 C1404 1.340 . S
N1403 C1406 1.361 . S
C1404 H1390 0.930 . S
C1404 N1403 1.340 . S
C1404 C1408 1.415 . S
C1405 C1406 1.413 . S
C1405 C1407 1.416 . S
C1405 C1434 1.427 . S
C1406 C1398 1.424 . S
C1406 N1403 1.361 . S
C1406 C1405 1.413 . S
C1407 H1396 0.931 . S
C1407 C1405 1.416 . S
C1407 C1408 1.351 . S
C1408 H1387 0.904 1_545 S
C1408 C1404 1.415 . S
C1408 C1407 1.351 . S
H1409 C1402 0.930 . S
H1410 C1433 0.930 . S
H1411 C1434 0.929 . S
O1412 Tb1368 2.465 . S
O1412 C1432 1.264 . S
O1413 Tb1368 2.387 1_554 S
O1413 C1424 1.264 . S
O1414 Tb1379 2.349 . S
O1414 C1424 1.243 . S
O1415 Tb1368 2.428 . S
O1415 C1432 1.256 . S
O1416 Tb1368 2.308 1_554 S
O1416 C1431 1.266 1_545 S
O1417 Tb1379 2.393 1_565 S
O1417 C1431 1.248 . S
O1418 Tb1379 2.465 . S
O1418 C1443 1.264 . S
O1419 Tb1379 2.387 . S
O1419 C1435 1.264 . S
O1420 Tb1368 2.349 1_554 S
O1420 C1435 1.243 . S
O1421 Tb1379 2.428 1_565 S
O1421 C1443 1.256 1_565 S
O1422 Tb1379 2.308 . S
O1422 C1442 1.266 . S
O1423 Tb1368 2.393 1_554 S
O1423 C1442 1.248 . S
C1424 O1413 1.264 . S
C1424 O1414 1.243 . S
C1425 C1428 1.399 . S
C1425 C1430 1.383 . S
C1425 C1432 1.496 . S
C1426 C1427 1.399 . S
C1426 C1430 1.389 . S
C1427 C1426 1.399 . S
C1427 C1429 1.380 . S
C1427 H1444 0.929 . S
C1428 C1425 1.399 . S
C1428 C1429 1.392 . S
C1428 H1445 0.929 . S
C1429 C1427 1.380 . S
C1429 C1428 1.392 . S
C1429 H1446 0.929 . S
C1430 C1425 1.383 . S
C1430 C1426 1.389 . S
C1430 H1447 0.931 . S
C1431 O1416 1.266 1_565 S
C1431 O1417 1.248 . S
C1432 Tb1368 2.802 . S
C1432 O1412 1.264 . S
C1432 O1415 1.256 . S
C1432 C1425 1.496 . S
C1433 C1400 1.448 . S
C1433 H1410 0.930 . S
C1433 C1434 1.328 . S
C1434 C1405 1.427 . S
C1434 H1411 0.929 . S
C1434 C1433 1.328 . S
C1435 O1419 1.264 . S
C1435 O1420 1.243 . S
C1436 C1439 1.399 . S
C1436 C1440 1.383 1_565 S
C1436 C1443 1.496 1_565 S
C1437 C1438 1.399 1_545 S
C1437 C1440 1.389 . S
C1438 C1437 1.399 1_565 S
C1438 C1441 1.380 . S
C1438 H1448 0.929 . S
C1439 C1436 1.399 . S
C1439 C1441 1.392 . S
C1439 H1449 0.929 . S
C1440 C1436 1.383 1_545 S
C1440 C1437 1.389 . S
C1440 H1450 0.931 . S
C1441 C1438 1.380 . S
C1441 C1439 1.392 . S
C1441 H1451 0.929 . S
C1442 O1422 1.266 . S
C1442 O1423 1.248 . S
C1443 Tb1379 2.802 . S
C1443 O1418 1.264 . S
C1443 O1421 1.256 1_545 S
C1443 C1436 1.496 1_545 S
H1444 C1427 0.929 . S
H1445 C1428 0.929 . S
H1446 C1429 0.929 . S
H1447 C1430 0.931 . S
H1448 C1438 0.929 . S
H1449 C1439 0.929 . S
H1450 C1440 0.931 . S
H1451 C1441 0.929 . S
Tb1452 N1481 2.617 . S
Tb1452 N1487 2.572 . S
Tb1452 O1496 2.465 . S
Tb1452 O1497 2.387 . S
Tb1452 O1499 2.428 . S
Tb1452 O1500 2.308 . S
Tb1452 O1504 2.349 . S
Tb1452 O1507 2.393 . S
Tb1452 C1516 2.802 . S
C1453 N1454 1.379 . S
C1453 C1456 1.416 . S
C1453 C1460 1.424 . S
N1454 C1453 1.379 . S
N1454 C1457 1.334 . S
N1454 Tb1463 2.617 . S
C1455 C1457 1.390 . S
C1455 C1458 1.339 . S
C1455 H1475 0.930 . S
C1456 C1453 1.416 . S
C1456 C1458 1.416 . S
C1456 C1462 1.448 . S
C1457 N1454 1.334 . S
C1457 C1455 1.390 . S
C1457 H1468 0.930 . S
C1458 C1455 1.339 . S
C1458 C1456 1.416 . S
C1458 H1479 0.930 . S
C1459 C1460 1.413 . S
C1459 C1461 1.427 . S
C1459 C1465 1.416 . S
C1460 C1453 1.424 . S
C1460 C1459 1.413 . S
C1460 N1464 1.361 . S
C1461 C1459 1.427 . S
C1461 C1462 1.328 . S
C1461 H1476 0.929 . S
C1462 C1456 1.448 . S
C1462 C1461 1.328 . S
C1462 H1477 0.930 . S
Tb1463 N1454 2.617 . S
Tb1463 N1464 2.572 . S
Tb1463 O1498 2.349 . S
Tb1463 O1501 2.393 . S
Tb1463 O1502 2.465 . S
Tb1463 O1503 2.387 . S
Tb1463 O1505 2.428 . S
Tb1463 O1506 2.308 . S
Tb1463 C1527 2.802 . S
N1464 C1460 1.361 . S
N1464 Tb1463 2.572 . S
N1464 C1466 1.340 . S
C1465 C1459 1.416 . S
C1465 C1467 1.332 . S
C1465 H1473 0.931 . S
C1466 N1464 1.340 . S
C1466 C1467 1.407 . S
C1466 H1472 0.930 . S
C1467 C1465 1.332 . S
C1467 C1466 1.407 . S
C1467 H1469 0.929 . S
H1468 C1457 0.930 . S
H1469 C1467 0.929 . S
H1470 C1485 0.930 . S
H1471 C1492 0.929 . S
H1472 C1466 0.930 . S
H1473 C1465 0.931 . S
H1474 C1488 0.930 . S
H1475 C1455 0.930 . S
H1476 C1461 0.929 . S
H1477 C1462 0.930 . S
H1478 C1483 0.930 . S
H1479 C1458 0.930 . S
H1480 C1491 0.931 . S
N1481 Tb1452 2.617 . S
N1481 C1482 1.379 . S
N1481 C1485 1.334 . S
C1482 N1481 1.379 . S
C1482 C1484 1.416 . S
C1482 C1490 1.424 . S
C1483 H1478 0.930 . S
C1483 C1485 1.390 . S
C1483 C1486 1.339 . S
C1484 C1482 1.416 . S
C1484 C1486 1.416 . S
C1484 C1517 1.448 . S
C1485 H1470 0.930 . S
C1485 N1481 1.334 . S
C1485 C1483 1.390 . S
C1486 C1483 1.339 . S
C1486 C1484 1.416 . S
C1486 H1493 0.930 . S
N1487 Tb1452 2.572 . S
N1487 C1488 1.340 . S
N1487 C1490 1.361 . S
C1488 H1474 0.930 . S
C1488 N1487 1.340 . S
C1488 C1492 1.407 . S
C1489 C1490 1.413 . S
C1489 C1491 1.416 . S
C1489 C1518 1.427 . S
C1490 C1482 1.424 . S
C1490 N1487 1.361 . S
C1490 C1489 1.413 . S
C1491 H1480 0.931 . S
C1491 C1489 1.416 . S
C1491 C1492 1.332 . S
C1492 H1471 0.929 . S
C1492 C1488 1.407 . S
C1492 C1491 1.332 . S
H1493 C1486 0.930 . S
H1494 C1517 0.930 . S
H1495 C1518 0.929 . S
O1496 Tb1452 2.465 . S
O1496 C1516 1.264 . S
O1497 Tb1452 2.387 . S
O1497 C1508 1.264 . S
O1498 Tb1463 2.349 . S
O1498 C1508 1.243 . S
O1499 Tb1452 2.428 . S
O1499 C1516 1.256 . S
O1500 Tb1452 2.308 . S
O1500 C1515 1.266 . S
O1501 Tb1463 2.393 . S
O1501 C1515 1.248 . S
O1502 Tb1463 2.465 . S
O1502 C1527 1.264 . S
O1503 Tb1463 2.387 . S
O1503 C1519 1.264 . S
O1504 Tb1452 2.349 . S
O1504 C1519 1.243 . S
O1505 Tb1463 2.428 . S
O1505 C1527 1.256 . S
O1506 Tb1463 2.308 . S
O1506 C1526 1.266 . S
O1507 Tb1452 2.393 . S
O1507 C1526 1.248 . S
C1508 O1497 1.264 . S
C1508 O1498 1.243 . S
C1509 C1512 1.399 . S
C1509 C1514 1.383 . S
C1509 C1516 1.496 . S
C1510 C1511 1.399 . S
C1510 C1514 1.389 . S
C1511 C1510 1.399 . S
C1511 C1513 1.380 . S
C1511 H1528 0.929 . S
C1512 C1509 1.399 . S
C1512 C1513 1.392 . S
C1512 H1529 0.929 . S
C1513 C1511 1.380 . S
C1513 C1512 1.392 . S
C1513 H1530 0.929 . S
C1514 C1509 1.383 . S
C1514 C1510 1.389 . S
C1514 H1531 0.931 . S
C1515 O1500 1.266 . S
C1515 O1501 1.248 . S
C1516 Tb1452 2.802 . S
C1516 O1496 1.264 . S
C1516 O1499 1.256 . S
C1516 C1509 1.496 . S
C1517 C1484 1.448 . S
C1517 H1494 0.930 . S
C1517 C1518 1.328 . S
C1518 C1489 1.427 . S
C1518 H1495 0.929 . S
C1518 C1517 1.328 . S
C1519 O1503 1.264 . S
C1519 O1504 1.243 . S
C1520 C1523 1.399 . S
C1520 C1524 1.383 . S
C1520 C1527 1.496 . S
C1521 C1522 1.399 . S
C1521 C1524 1.389 . S
C1522 C1521 1.399 . S
C1522 C1525 1.380 . S
C1522 H1532 0.929 . S
C1523 C1520 1.399 . S
C1523 C1525 1.392 . S
C1523 H1533 0.929 . S
C1524 C1520 1.383 . S
C1524 C1521 1.389 . S
C1524 H1534 0.931 . S
C1525 C1522 1.380 . S
C1525 C1523 1.392 . S
C1525 H1535 0.929 . S
C1526 O1506 1.266 . S
C1526 O1507 1.248 . S
C1527 Tb1463 2.802 . S
C1527 O1502 1.264 . S
C1527 O1505 1.256 . S
C1527 C1520 1.496 . S
H1528 C1511 0.929 . S
H1529 C1512 0.929 . S
H1530 C1513 0.929 . S
H1531 C1514 0.931 . S
H1532 C1522 0.929 . S
H1533 C1523 0.929 . S
H1534 C1524 0.931 . S
H1535 C1525 0.929 . S
Tb1536 N1565 2.617 1_554 S
Tb1536 N1571 2.572 1_554 S
Tb1536 O1580 2.465 . S
Tb1536 O1581 2.387 1_554 S
Tb1536 O1583 2.428 . S
Tb1536 O1584 2.308 . S
Tb1536 O1588 2.349 . S
Tb1536 O1591 2.393 . S
Tb1536 C1600 2.802 . S
C1537 N1538 1.379 . S
C1537 C1540 1.416 . S
C1537 C1544 1.424 . S
N1538 C1537 1.379 . S
N1538 C1541 1.334 . S
N1538 Tb1547 2.617 . S
C1539 C1541 1.390 . S
C1539 C1542 1.339 . S
C1539 H1559 0.930 . S
C1540 C1537 1.416 . S
C1540 C1542 1.416 . S
C1540 C1546 1.448 . S
C1541 N1538 1.334 . S
C1541 C1539 1.390 . S
C1541 H1552 0.930 . S
C1542 C1539 1.339 . S
C1542 C1540 1.416 . S
C1542 H1563 0.930 . S
C1543 C1544 1.413 . S
C1543 C1545 1.427 . S
C1543 C1549 1.416 . S
C1544 C1537 1.424 . S
C1544 C1543 1.413 . S
C1544 N1548 1.361 . S
C1545 C1543 1.427 . S
C1545 C1546 1.328 . S
C1545 H1560 0.929 . S
C1546 C1540 1.448 . S
C1546 C1545 1.328 . S
C1546 H1561 0.930 . S
Tb1547 N1538 2.617 . S
Tb1547 N1548 2.572 . S
Tb1547 O1582 2.349 1_554 S
Tb1547 O1585 2.393 . S
Tb1547 O1586 2.465 . S
Tb1547 O1587 2.387 . S
Tb1547 O1589 2.428 . S
Tb1547 O1590 2.308 . S
Tb1547 C1611 2.802 . S
N1548 C1544 1.361 . S
N1548 Tb1547 2.572 . S
N1548 C1550 1.340 . S
C1549 C1543 1.416 . S
C1549 C1551 1.332 . S
C1549 H1557 0.931 . S
C1550 N1548 1.340 . S
C1550 C1551 1.407 . S
C1550 H1556 0.930 . S
C1551 C1549 1.332 . S
C1551 C1550 1.407 . S
C1551 H1553 0.929 . S
H1552 C1541 0.930 . S
H1553 C1551 0.929 . S
H1554 C1569 0.930 1_554 S
H1555 C1576 0.929 . S
H1556 C1550 0.930 . S
H1557 C1549 0.931 . S
H1558 C1572 0.930 1_554 S
H1559 C1539 0.930 . S
H1560 C1545 0.929 . S
H1561 C1546 0.930 . S
H1562 C1567 0.930 . S
H1563 C1542 0.930 . S
H1564 C1575 0.931 . S
N1565 Tb1536 2.617 1_556 S
N1565 C1566 1.379 . S
N1565 C1569 1.334 . S
C1566 N1565 1.379 . S
C1566 C1568 1.416 . S
C1566 C1574 1.424 . S
C1567 H1562 0.930 . S
C1567 C1569 1.390 . S
C1567 C1570 1.339 . S
C1568 C1566 1.416 . S
C1568 C1570 1.416 . S
C1568 C1601 1.448 . S
C1569 H1554 0.930 1_556 S
C1569 N1565 1.334 . S
C1569 C1567 1.390 . S
C1570 C1567 1.339 . S
C1570 C1568 1.416 . S
C1570 H1577 0.930 . S
N1571 Tb1536 2.572 1_556 S
N1571 C1572 1.340 . S
N1571 C1574 1.361 . S
C1572 H1558 0.930 1_556 S
C1572 N1571 1.340 . S
C1572 C1576 1.407 . S
C1573 C1574 1.413 . S
C1573 C1575 1.416 . S
C1573 C1602 1.427 . S
C1574 C1566 1.424 . S
C1574 N1571 1.361 . S
C1574 C1573 1.413 . S
C1575 H1564 0.931 . S
C1575 C1573 1.416 . S
C1575 C1576 1.332 . S
C1576 H1555 0.929 . S
C1576 C1572 1.407 . S
C1576 C1575 1.332 . S
H1577 C1570 0.930 . S
H1578 C1601 0.930 . S
H1579 C1602 0.929 . S
O1580 Tb1536 2.465 . S
O1580 C1600 1.264 . S
O1581 Tb1536 2.387 1_556 S
O1581 C1592 1.264 . S
O1582 Tb1547 2.349 1_556 S
O1582 C1592 1.243 . S
O1583 Tb1536 2.428 . S
O1583 C1600 1.256 . S
O1584 Tb1536 2.308 . S
O1584 C1599 1.266 . S
O1585 Tb1547 2.393 . S
O1585 C1599 1.248 . S
O1586 Tb1547 2.465 . S
O1586 C1611 1.264 . S
O1587 Tb1547 2.387 . S
O1587 C1603 1.264 . S
O1588 Tb1536 2.349 . S
O1588 C1603 1.243 . S
O1589 Tb1547 2.428 . S
O1589 C1611 1.256 . S
O1590 Tb1547 2.308 . S
O1590 C1610 1.266 . S
O1591 Tb1536 2.393 . S
O1591 C1610 1.248 . S
C1592 O1581 1.264 . S
C1592 O1582 1.243 . S
C1593 C1596 1.399 . S
C1593 C1598 1.383 . S
C1593 C1600 1.496 . S
C1594 C1595 1.399 . S
C1594 C1598 1.389 . S
C1595 C1594 1.399 . S
C1595 C1597 1.380 . S
C1595 H1612 0.929 . S
C1596 C1593 1.399 . S
C1596 C1597 1.392 . S
C1596 H1613 0.929 . S
C1597 C1595 1.380 . S
C1597 C1596 1.392 . S
C1597 H1614 0.929 . S
C1598 C1593 1.383 . S
C1598 C1594 1.389 . S
C1598 H1615 0.931 . S
C1599 O1584 1.266 . S
C1599 O1585 1.248 . S
C1600 Tb1536 2.802 . S
C1600 O1580 1.264 . S
C1600 O1583 1.256 . S
C1600 C1593 1.496 . S
C1601 C1568 1.448 . S
C1601 H1578 0.930 . S
C1601 C1602 1.328 . S
C1602 C1573 1.427 . S
C1602 H1579 0.929 . S
C1602 C1601 1.328 . S
C1603 O1587 1.264 . S
C1603 O1588 1.243 . S
C1604 C1607 1.399 . S
C1604 C1608 1.383 . S
C1604 C1611 1.496 1_556 S
C1605 C1606 1.399 . S
C1605 C1608 1.389 . S
C1606 C1605 1.399 . S
C1606 C1609 1.380 . S
C1606 H1616 0.929 . S
C1607 C1604 1.399 . S
C1607 C1609 1.392 . S
C1607 H1617 0.929 . S
C1608 C1604 1.383 . S
C1608 C1605 1.389 . S
C1608 H1618 0.931 . S
C1609 C1606 1.380 . S
C1609 C1607 1.392 . S
C1609 H1619 0.929 . S
C1610 O1590 1.266 . S
C1610 O1591 1.248 . S
C1611 Tb1547 2.802 . S
C1611 O1586 1.264 . S
C1611 O1589 1.256 . S
C1611 C1604 1.496 1_554 S
H1612 C1595 0.929 . S
H1613 C1596 0.929 . S
H1614 C1597 0.929 . S
H1615 C1598 0.931 . S
H1616 C1606 0.929 . S
H1617 C1607 0.929 . S
H1618 C1608 0.931 . S
H1619 C1609 0.929 . S
Tb1620 N1649 2.617 . S
Tb1620 N1655 2.572 . S
Tb1620 O1664 2.465 . S
Tb1620 O1665 2.387 . S
Tb1620 O1667 2.428 . S
Tb1620 O1668 2.308 . S
Tb1620 O1672 2.349 . S
Tb1620 O1675 2.393 . S
Tb1620 C1684 2.802 . S
C1621 N1622 1.379 . S
C1621 C1624 1.416 . S
C1621 C1628 1.424 . S
N1622 C1621 1.379 . S
N1622 C1625 1.334 . S
N1622 Tb1631 2.617 . S
C1623 C1625 1.390 . S
C1623 C1626 1.339 . S
C1623 H1643 0.930 . S
C1624 C1621 1.416 . S
C1624 C1626 1.416 . S
C1624 C1630 1.448 . S
C1625 N1622 1.334 . S
C1625 C1623 1.390 . S
C1625 H1636 0.930 . S
C1626 C1623 1.339 . S
C1626 C1624 1.416 . S
C1626 H1647 0.930 . S
C1627 C1628 1.413 . S
C1627 C1629 1.427 . S
C1627 C1633 1.416 . S
C1628 C1621 1.424 . S
C1628 C1627 1.413 . S
C1628 N1632 1.361 . S
C1629 C1627 1.427 . S
C1629 C1630 1.328 . S
C1629 H1644 0.929 . S
C1630 C1624 1.448 . S
C1630 C1629 1.328 . S
C1630 H1645 0.930 . S
Tb1631 N1622 2.617 . S
Tb1631 N1632 2.572 . S
Tb1631 O1666 2.349 . S
Tb1631 O1669 2.393 . S
Tb1631 O1670 2.465 . S
Tb1631 O1671 2.387 . S
Tb1631 O1673 2.428 . S
Tb1631 O1674 2.308 . S
Tb1631 C1695 2.802 . S
N1632 C1628 1.361 . S
N1632 Tb1631 2.572 . S
N1632 C1634 1.340 . S
C1633 C1627 1.416 . S
C1633 C1635 1.332 . S
C1633 H1641 0.931 . S
C1634 N1632 1.340 . S
C1634 C1635 1.407 . S
C1634 H1640 0.930 . S
C1635 C1633 1.332 . S
C1635 C1634 1.407 . S
C1635 H1637 0.929 . S
H1636 C1625 0.930 . S
H1637 C1635 0.929 . S
H1638 C1653 0.930 . S
H1639 C1660 0.929 . S
H1640 C1634 0.930 . S
H1641 C1633 0.931 . S
H1642 C1656 0.930 . S
H1643 C1623 0.930 . S
H1644 C1629 0.929 . S
H1645 C1630 0.930 . S
H1646 C1651 0.930 . S
H1647 C1626 0.930 . S
H1648 C1659 0.931 . S
N1649 Tb1620 2.617 . S
N1649 C1650 1.379 . S
N1649 C1653 1.334 . S
C1650 N1649 1.379 . S
C1650 C1652 1.416 . S
C1650 C1658 1.424 . S
C1651 H1646 0.930 . S
C1651 C1653 1.390 . S
C1651 C1654 1.339 . S
C1652 C1650 1.416 . S
C1652 C1654 1.416 . S
C1652 C1685 1.448 . S
C1653 H1638 0.930 . S
C1653 N1649 1.334 . S
C1653 C1651 1.390 . S
C1654 C1651 1.339 . S
C1654 C1652 1.416 . S
C1654 H1661 0.930 . S
N1655 Tb1620 2.572 . S
N1655 C1656 1.340 . S
N1655 C1658 1.361 . S
C1656 H1642 0.930 . S
C1656 N1655 1.340 . S
C1656 C1660 1.407 . S
C1657 C1658 1.413 . S
C1657 C1659 1.416 . S
C1657 C1686 1.427 . S
C1658 C1650 1.424 . S
C1658 N1655 1.361 . S
C1658 C1657 1.413 . S
C1659 H1648 0.931 . S
C1659 C1657 1.416 . S
C1659 C1660 1.332 . S
C1660 H1639 0.929 . S
C1660 C1656 1.407 . S
C1660 C1659 1.332 . S
H1661 C1654 0.930 . S
H1662 C1685 0.930 . S
H1663 C1686 0.929 . S
O1664 Tb1620 2.465 . S
O1664 C1684 1.264 . S
O1665 Tb1620 2.387 . S
O1665 C1676 1.264 . S
O1666 Tb1631 2.349 . S
O1666 C1676 1.243 . S
O1667 Tb1620 2.428 . S
O1667 C1684 1.256 . S
O1668 Tb1620 2.308 . S
O1668 C1683 1.266 . S
O1669 Tb1631 2.393 . S
O1669 C1683 1.248 . S
O1670 Tb1631 2.465 . S
O1670 C1695 1.264 . S
O1671 Tb1631 2.387 . S
O1671 C1687 1.264 . S
O1672 Tb1620 2.349 . S
O1672 C1687 1.243 . S
O1673 Tb1631 2.428 . S
O1673 C1695 1.256 . S
O1674 Tb1631 2.308 . S
O1674 C1694 1.266 . S
O1675 Tb1620 2.393 . S
O1675 C1694 1.248 . S
C1676 O1665 1.264 . S
C1676 O1666 1.243 . S
C1677 C1680 1.399 . S
C1677 C1682 1.383 . S
C1677 C1684 1.496 . S
C1678 C1679 1.399 . S
C1678 C1682 1.389 . S
C1679 C1678 1.399 . S
C1679 C1681 1.380 . S
C1679 H1696 0.929 . S
C1680 C1677 1.399 . S
C1680 C1681 1.392 . S
C1680 H1697 0.929 . S
C1681 C1679 1.380 . S
C1681 C1680 1.392 . S
C1681 H1698 0.929 . S
C1682 C1677 1.383 . S
C1682 C1678 1.389 . S
C1682 H1699 0.931 . S
C1683 O1668 1.266 . S
C1683 O1669 1.248 . S
C1684 Tb1620 2.802 . S
C1684 O1664 1.264 . S
C1684 O1667 1.256 . S
C1684 C1677 1.496 . S
C1685 C1652 1.448 . S
C1685 H1662 0.930 . S
C1685 C1686 1.328 . S
C1686 C1657 1.427 . S
C1686 H1663 0.929 . S
C1686 C1685 1.328 . S
C1687 O1671 1.264 . S
C1687 O1672 1.243 . S
C1688 C1691 1.399 . S
C1688 C1692 1.383 . S
C1688 C1695 1.496 . S
C1689 C1690 1.399 . S
C1689 C1692 1.389 . S
C1690 C1689 1.399 . S
C1690 C1693 1.380 . S
C1690 H1700 0.929 . S
C1691 C1688 1.399 . S
C1691 C1693 1.392 . S
C1691 H1701 0.929 . S
C1692 C1688 1.383 . S
C1692 C1689 1.389 . S
C1692 H1702 0.931 . S
C1693 C1690 1.380 . S
C1693 C1691 1.392 . S
C1693 H1703 0.929 . S
C1694 O1674 1.266 . S
C1694 O1675 1.248 . S
C1695 Tb1631 2.802 . S
C1695 O1670 1.264 . S
C1695 O1673 1.256 . S
C1695 C1688 1.496 . S
H1696 C1679 0.929 . S
H1697 C1680 0.929 . S
H1698 C1681 0.929 . S
H1699 C1682 0.931 . S
H1700 C1690 0.929 . S
H1701 C1691 0.929 . S
H1702 C1692 0.931 . S
H1703 C1693 0.929 . S
Tb1704 N1733 2.614 . S
Tb1704 N1739 2.572 1_455 S
Tb1704 O1748 2.465 . S
Tb1704 O1749 2.387 1_455 S
Tb1704 O1751 2.428 . S
Tb1704 O1752 2.308 . S
Tb1704 O1756 2.349 . S
Tb1704 O1759 2.393 . S
Tb1704 C1768 2.802 . S
C1705 N1706 1.379 . S
C1705 C1708 1.416 . S
C1705 C1712 1.424 . S
N1706 C1705 1.379 . S
N1706 C1709 1.334 . S
N1706 Tb1715 2.617 . S
C1707 C1709 1.390 . S
C1707 C1710 1.339 . S
C1707 H1727 0.930 . S
C1708 C1705 1.416 . S
C1708 C1710 1.416 . S
C1708 C1714 1.448 . S
C1709 N1706 1.334 . S
C1709 C1707 1.390 . S
C1709 H1720 0.930 . S
C1710 C1707 1.339 . S
C1710 C1708 1.416 . S
C1710 H1731 0.930 . S
C1711 C1712 1.413 . S
C1711 C1713 1.427 . S
C1711 C1717 1.416 . S
C1712 C1705 1.424 . S
C1712 C1711 1.413 . S
C1712 N1716 1.361 . S
C1713 C1711 1.427 . S
C1713 C1714 1.328 . S
C1713 H1728 0.929 . S
C1714 C1708 1.448 . S
C1714 C1713 1.328 . S
C1714 H1729 0.930 . S
Tb1715 N1706 2.617 . S
Tb1715 N1716 2.572 . S
Tb1715 O1750 2.349 1_455 S
Tb1715 O1753 2.393 . S
Tb1715 O1754 2.465 . S
Tb1715 O1755 2.387 . S
Tb1715 O1757 2.428 . S
Tb1715 O1758 2.308 . S
Tb1715 C1779 2.802 . S
N1716 C1712 1.361 . S
N1716 Tb1715 2.572 . S
N1716 C1718 1.340 . S
C1717 C1711 1.416 . S
C1717 C1719 1.332 . S
C1717 H1725 0.931 . S
C1718 N1716 1.340 . S
C1718 C1719 1.407 . S
C1718 H1724 0.930 . S
C1719 C1717 1.332 . S
C1719 C1718 1.407 . S
C1719 H1721 0.929 . S
H1720 C1709 0.930 . S
H1721 C1719 0.929 . S
H1722 C1737 0.930 . S
H1723 C1744 0.929 . S
H1724 C1718 0.930 . S
H1725 C1717 0.931 . S
H1726 C1740 0.930 1_455 S
H1727 C1707 0.930 . S
H1728 C1713 0.929 . S
H1729 C1714 0.930 . S
H1730 C1735 0.930 . S
H1731 C1710 0.930 . S
H1732 C1743 0.931 . S
N1733 Tb1704 2.614 . S
N1733 C1734 1.382 1_455 S
N1733 C1737 1.335 . S
C1734 N1733 1.382 1_655 S
C1734 C1736 1.416 . S
C1734 C1742 1.424 . S
C1735 H1730 0.930 . S
C1735 C1737 1.390 1_655 S
C1735 C1738 1.339 . S
C1736 C1734 1.416 . S
C1736 C1738 1.416 . S
C1736 C1769 1.448 . S
C1737 H1722 0.930 . S
C1737 N1733 1.335 . S
C1737 C1735 1.390 1_455 S
C1738 C1735 1.339 . S
C1738 C1736 1.416 . S
C1738 H1745 0.930 . S
N1739 Tb1704 2.572 1_655 S
N1739 C1740 1.340 . S
N1739 C1742 1.361 . S
C1740 H1726 0.930 1_655 S
C1740 N1739 1.340 . S
C1740 C1744 1.407 . S
C1741 C1742 1.413 . S
C1741 C1743 1.416 . S
C1741 C1770 1.427 . S
C1742 C1734 1.424 . S
C1742 N1739 1.361 . S
C1742 C1741 1.413 . S
C1743 H1732 0.931 . S
C1743 C1741 1.416 . S
C1743 C1744 1.332 . S
C1744 H1723 0.929 . S
C1744 C1740 1.407 . S
C1744 C1743 1.332 . S
H1745 C1738 0.930 . S
H1746 C1769 0.930 . S
H1747 C1770 0.929 . S
O1748 Tb1704 2.465 . S
O1748 C1768 1.264 . S
O1749 Tb1704 2.387 1_655 S
O1749 C1760 1.264 . S
O1750 Tb1715 2.349 1_655 S
O1750 C1760 1.243 . S
O1751 Tb1704 2.428 . S
O1751 C1768 1.256 . S
O1752 Tb1704 2.308 . S
O1752 C1767 1.266 . S
O1753 Tb1715 2.393 . S
O1753 C1767 1.248 . S
O1754 Tb1715 2.465 . S
O1754 C1779 1.264 . S
O1755 Tb1715 2.387 . S
O1755 C1771 1.264 . S
O1756 Tb1704 2.349 . S
O1756 C1771 1.243 . S
O1757 Tb1715 2.428 . S
O1757 C1779 1.256 . S
O1758 Tb1715 2.308 . S
O1758 C1778 1.266 . S
O1759 Tb1704 2.393 . S
O1759 C1778 1.248 . S
C1760 O1749 1.264 . S
C1760 O1750 1.243 . S
C1761 C1764 1.399 . S
C1761 C1766 1.383 . S
C1761 C1768 1.496 . S
C1762 C1763 1.399 . S
C1762 C1766 1.389 . S
C1763 C1762 1.399 . S
C1763 C1765 1.380 . S
C1763 H1780 0.929 . S
C1764 C1761 1.399 . S
C1764 C1765 1.392 . S
C1764 H1781 0.929 . S
C1765 C1763 1.380 . S
C1765 C1764 1.392 . S
C1765 H1782 0.929 . S
C1766 C1761 1.383 . S
C1766 C1762 1.389 . S
C1766 H1783 0.931 . S
C1767 O1752 1.266 . S
C1767 O1753 1.248 . S
C1768 Tb1704 2.802 . S
C1768 O1748 1.264 . S
C1768 O1751 1.256 . S
C1768 C1761 1.496 . S
C1769 C1736 1.448 . S
C1769 H1746 0.930 . S
C1769 C1770 1.328 . S
C1770 C1741 1.427 . S
C1770 H1747 0.929 . S
C1770 C1769 1.328 . S
C1771 O1755 1.264 . S
C1771 O1756 1.243 . S
C1772 C1775 1.399 . S
C1772 C1776 1.383 . S
C1772 C1779 1.496 1_655 S
C1773 C1774 1.399 . S
C1773 C1776 1.389 . S
C1774 C1773 1.399 . S
C1774 C1777 1.380 . S
C1774 H1784 0.929 . S
C1775 C1772 1.399 . S
C1775 C1777 1.392 . S
C1775 H1785 0.929 . S
C1776 C1772 1.383 . S
C1776 C1773 1.389 . S
C1776 H1786 0.931 . S
C1777 C1774 1.380 . S
C1777 C1775 1.392 . S
C1777 H1787 0.929 . S
C1778 O1758 1.266 . S
C1778 O1759 1.248 . S
C1779 Tb1715 2.802 . S
C1779 O1754 1.264 . S
C1779 O1757 1.256 . S
C1779 C1772 1.496 1_455 S
H1780 C1763 0.929 . S
H1781 C1764 0.929 . S
H1782 C1765 0.929 . S
H1783 C1766 0.931 . S
H1784 C1774 0.929 . S
H1785 C1775 0.929 . S
H1786 C1776 0.931 . S
H1787 C1777 0.929 . S
Tb1788 N1817 2.617 . S
Tb1788 N1823 2.572 . S
Tb1788 O1832 2.465 . S
Tb1788 O1833 2.387 . S
Tb1788 O1835 2.428 . S
Tb1788 O1836 2.308 . S
Tb1788 O1840 2.349 . S
Tb1788 O1843 2.393 . S
Tb1788 C1852 2.802 . S
C1789 N1790 1.379 . S
C1789 C1792 1.416 . S
C1789 C1796 1.424 . S
N1790 C1789 1.379 . S
N1790 C1793 1.334 . S
N1790 Tb1799 2.617 . S
C1791 C1793 1.390 . S
C1791 C1794 1.339 . S
C1791 H1811 0.930 . S
C1792 C1789 1.416 . S
C1792 C1794 1.416 . S
C1792 C1798 1.448 . S
C1793 N1790 1.334 . S
C1793 C1791 1.390 . S
C1793 H1804 0.930 . S
C1794 C1791 1.339 . S
C1794 C1792 1.416 . S
C1794 H1815 0.930 . S
C1795 C1796 1.413 . S
C1795 C1797 1.427 . S
C1795 C1801 1.416 . S
C1796 C1789 1.424 . S
C1796 C1795 1.413 . S
C1796 N1800 1.361 . S
C1797 C1795 1.427 . S
C1797 C1798 1.328 . S
C1797 H1812 0.929 . S
C1798 C1792 1.448 . S
C1798 C1797 1.328 . S
C1798 H1813 0.930 . S
Tb1799 N1790 2.617 . S
Tb1799 N1800 2.572 . S
Tb1799 O1834 2.349 . S
Tb1799 O1837 2.393 . S
Tb1799 O1838 2.465 . S
Tb1799 O1839 2.387 . S
Tb1799 O1841 2.428 . S
Tb1799 O1842 2.308 . S
Tb1799 C1863 2.802 . S
N1800 C1796 1.361 . S
N1800 Tb1799 2.572 . S
N1800 C1802 1.340 . S
C1801 C1795 1.416 . S
C1801 C1803 1.332 . S
C1801 H1809 0.931 . S
C1802 N1800 1.340 . S
C1802 C1803 1.407 . S
C1802 H1808 0.930 . S
C1803 C1801 1.332 . S
C1803 C1802 1.407 . S
C1803 H1805 0.929 . S
H1804 C1793 0.930 . S
H1805 C1803 0.929 . S
H1806 C1821 0.930 . S
H1807 C1828 0.929 . S
H1808 C1802 0.930 . S
H1809 C1801 0.931 . S
H1810 C1824 0.930 . S
H1811 C1791 0.930 . S
H1812 C1797 0.929 . S
H1813 C1798 0.930 . S
H1814 C1819 0.930 . S
H1815 C1794 0.930 . S
H1816 C1827 0.931 . S
N1817 Tb1788 2.617 . S
N1817 C1818 1.379 . S
N1817 C1821 1.334 . S
C1818 N1817 1.379 . S
C1818 C1820 1.416 . S
C1818 C1826 1.424 . S
C1819 H1814 0.930 . S
C1819 C1821 1.390 . S
C1819 C1822 1.339 . S
C1820 C1818 1.416 . S
C1820 C1822 1.416 . S
C1820 C1853 1.448 . S
C1821 H1806 0.930 . S
C1821 N1817 1.334 . S
C1821 C1819 1.390 . S
C1822 C1819 1.339 . S
C1822 C1820 1.416 . S
C1822 H1829 0.930 . S
N1823 Tb1788 2.572 . S
N1823 C1824 1.340 . S
N1823 C1826 1.361 . S
C1824 H1810 0.930 . S
C1824 N1823 1.340 . S
C1824 C1828 1.407 . S
C1825 C1826 1.413 . S
C1825 C1827 1.416 . S
C1825 C1854 1.427 . S
C1826 C1818 1.424 . S
C1826 N1823 1.361 . S
C1826 C1825 1.413 . S
C1827 H1816 0.931 . S
C1827 C1825 1.416 . S
C1827 C1828 1.332 . S
C1828 H1807 0.929 . S
C1828 C1824 1.407 . S
C1828 C1827 1.332 . S
H1829 C1822 0.930 . S
H1830 C1853 0.930 . S
H1831 C1854 0.929 . S
O1832 Tb1788 2.465 . S
O1832 C1852 1.264 . S
O1833 Tb1788 2.387 . S
O1833 C1844 1.264 . S
O1834 Tb1799 2.349 . S
O1834 C1844 1.243 . S
O1835 Tb1788 2.428 . S
O1835 C1852 1.256 . S
O1836 Tb1788 2.308 . S
O1836 C1851 1.266 . S
O1837 Tb1799 2.393 . S
O1837 C1851 1.248 . S
O1838 Tb1799 2.465 . S
O1838 C1863 1.264 . S
O1839 Tb1799 2.387 . S
O1839 C1855 1.264 . S
O1840 Tb1788 2.349 . S
O1840 C1855 1.243 . S
O1841 Tb1799 2.428 . S
O1841 C1863 1.256 . S
O1842 Tb1799 2.308 . S
O1842 C1862 1.266 . S
O1843 Tb1788 2.393 . S
O1843 C1862 1.248 . S
C1844 O1833 1.264 . S
C1844 O1834 1.243 . S
C1845 C1848 1.399 . S
C1845 C1850 1.383 . S
C1845 C1852 1.496 . S
C1846 C1847 1.399 . S
C1846 C1850 1.389 . S
C1847 C1846 1.399 . S
C1847 C1849 1.380 . S
C1847 H1864 0.929 . S
C1848 C1845 1.399 . S
C1848 C1849 1.392 . S
C1848 H1865 0.929 . S
C1849 C1847 1.380 . S
C1849 C1848 1.392 . S
C1849 H1866 0.929 . S
C1850 C1845 1.383 . S
C1850 C1846 1.389 . S
C1850 H1867 0.931 . S
C1851 O1836 1.266 . S
C1851 O1837 1.248 . S
C1852 Tb1788 2.802 . S
C1852 O1832 1.264 . S
C1852 O1835 1.256 . S
C1852 C1845 1.496 . S
C1853 C1820 1.448 . S
C1853 H1830 0.930 . S
C1853 C1854 1.328 . S
C1854 C1825 1.427 . S
C1854 H1831 0.929 . S
C1854 C1853 1.328 . S
C1855 O1839 1.264 . S
C1855 O1840 1.243 . S
C1856 C1859 1.399 . S
C1856 C1860 1.383 . S
C1856 C1863 1.496 . S
C1857 C1858 1.399 . S
C1857 C1860 1.389 . S
C1858 C1857 1.399 . S
C1858 C1861 1.380 . S
C1858 H1868 0.929 . S
C1859 C1856 1.399 . S
C1859 C1861 1.392 . S
C1859 H1869 0.929 . S
C1860 C1856 1.383 . S
C1860 C1857 1.389 . S
C1860 H1870 0.931 . S
C1861 C1858 1.380 . S
C1861 C1859 1.392 . S
C1861 H1871 0.929 . S
C1862 O1842 1.266 . S
C1862 O1843 1.248 . S
C1863 Tb1799 2.802 . S
C1863 O1838 1.264 . S
C1863 O1841 1.256 . S
C1863 C1856 1.496 . S
H1864 C1847 0.929 . S
H1865 C1848 0.929 . S
H1866 C1849 0.929 . S
H1867 C1850 0.931 . S
H1868 C1858 0.929 . S
H1869 C1859 0.929 . S
H1870 C1860 0.931 . S
H1871 C1861 0.929 . S
Tb1872 N1901 2.617 . S
Tb1872 N1907 2.572 . S
Tb1872 O1916 2.465 . S
Tb1872 O1917 2.387 . S
Tb1872 O1919 2.428 . S
Tb1872 O1920 2.308 . S
Tb1872 O1924 2.349 . S
Tb1872 O1927 2.393 . S
Tb1872 C1936 2.802 . S
C1873 N1874 1.379 . S
C1873 C1876 1.416 . S
C1873 C1880 1.424 . S
N1874 C1873 1.379 . S
N1874 C1877 1.334 . S
N1874 Tb1883 2.617 . S
C1875 C1877 1.390 . S
C1875 C1878 1.339 . S
C1875 H1895 0.930 . S
C1876 C1873 1.416 . S
C1876 C1878 1.416 . S
C1876 C1882 1.448 . S
C1877 N1874 1.334 . S
C1877 C1875 1.390 . S
C1877 H1888 0.930 . S
C1878 C1875 1.339 . S
C1878 C1876 1.416 . S
C1878 H1899 0.930 . S
C1879 C1880 1.413 . S
C1879 C1881 1.427 . S
C1879 C1885 1.416 . S
C1880 C1873 1.424 . S
C1880 C1879 1.413 . S
C1880 N1884 1.361 . S
C1881 C1879 1.427 . S
C1881 C1882 1.328 . S
C1881 H1896 0.929 . S
C1882 C1876 1.448 . S
C1882 C1881 1.328 . S
C1882 H1897 0.930 . S
Tb1883 N1874 2.617 . S
Tb1883 N1884 2.572 . S
Tb1883 O1918 2.349 . S
Tb1883 O1921 2.393 . S
Tb1883 O1922 2.465 . S
Tb1883 O1923 2.387 . S
Tb1883 O1925 2.428 . S
Tb1883 O1926 2.308 . S
Tb1883 C1947 2.802 . S
N1884 C1880 1.361 . S
N1884 Tb1883 2.572 . S
N1884 C1886 1.340 . S
C1885 C1879 1.416 . S
C1885 C1887 1.332 . S
C1885 H1893 0.931 . S
C1886 N1884 1.340 . S
C1886 C1887 1.407 . S
C1886 H1892 0.930 . S
C1887 C1885 1.332 . S
C1887 C1886 1.407 . S
C1887 H1889 0.929 . S
H1888 C1877 0.930 . S
H1889 C1887 0.929 . S
H1890 C1905 0.930 . S
H1891 C1912 0.929 . S
H1892 C1886 0.930 . S
H1893 C1885 0.931 . S
H1894 C1908 0.930 . S
H1895 C1875 0.930 . S
H1896 C1881 0.929 . S
H1897 C1882 0.930 . S
H1898 C1903 0.930 . S
H1899 C1878 0.930 . S
H1900 C1911 0.931 . S
N1901 Tb1872 2.617 . S
N1901 C1902 1.379 . S
N1901 C1905 1.334 . S
C1902 N1901 1.379 . S
C1902 C1904 1.416 . S
C1902 C1910 1.424 . S
C1903 H1898 0.930 . S
C1903 C1905 1.390 . S
C1903 C1906 1.339 . S
C1904 C1902 1.416 . S
C1904 C1906 1.416 . S
C1904 C1937 1.448 . S
C1905 H1890 0.930 . S
C1905 N1901 1.334 . S
C1905 C1903 1.390 . S
C1906 C1903 1.339 . S
C1906 C1904 1.416 . S
C1906 H1913 0.930 . S
N1907 Tb1872 2.572 . S
N1907 C1908 1.340 . S
N1907 C1910 1.361 . S
C1908 H1894 0.930 . S
C1908 N1907 1.340 . S
C1908 C1912 1.407 . S
C1909 C1910 1.413 . S
C1909 C1911 1.416 . S
C1909 C1938 1.427 . S
C1910 C1902 1.424 . S
C1910 N1907 1.361 . S
C1910 C1909 1.413 . S
C1911 H1900 0.931 . S
C1911 C1909 1.416 . S
C1911 C1912 1.332 . S
C1912 H1891 0.929 . S
C1912 C1908 1.407 . S
C1912 C1911 1.332 . S
H1913 C1906 0.930 . S
H1914 C1937 0.930 . S
H1915 C1938 0.929 . S
O1916 Tb1872 2.465 . S
O1916 C1936 1.264 . S
O1917 Tb1872 2.387 . S
O1917 C1928 1.264 . S
O1918 Tb1883 2.349 . S
O1918 C1928 1.243 . S
O1919 Tb1872 2.428 . S
O1919 C1936 1.256 . S
O1920 Tb1872 2.308 . S
O1920 C1935 1.266 . S
O1921 Tb1883 2.393 . S
O1921 C1935 1.248 . S
O1922 Tb1883 2.465 . S
O1922 C1947 1.264 . S
O1923 Tb1883 2.387 . S
O1923 C1939 1.264 . S
O1924 Tb1872 2.349 . S
O1924 C1939 1.243 . S
O1925 Tb1883 2.428 . S
O1925 C1947 1.256 . S
O1926 Tb1883 2.308 . S
O1926 C1946 1.266 . S
O1927 Tb1872 2.393 . S
O1927 C1946 1.248 . S
C1928 O1917 1.264 . S
C1928 O1918 1.243 . S
C1929 C1932 1.399 . S
C1929 C1934 1.383 . S
C1929 C1936 1.496 . S
C1930 C1931 1.399 . S
C1930 C1934 1.389 . S
C1931 C1930 1.399 . S
C1931 C1933 1.380 . S
C1931 H1948 0.929 . S
C1932 C1929 1.399 . S
C1932 C1933 1.392 . S
C1932 H1949 0.929 . S
C1933 C1931 1.380 . S
C1933 C1932 1.392 . S
C1933 H1950 0.929 . S
C1934 C1929 1.383 . S
C1934 C1930 1.389 . S
C1934 H1951 0.931 . S
C1935 O1920 1.266 . S
C1935 O1921 1.248 . S
C1936 Tb1872 2.802 . S
C1936 O1916 1.264 . S
C1936 O1919 1.256 . S
C1936 C1929 1.496 . S
C1937 C1904 1.448 . S
C1937 H1914 0.930 . S
C1937 C1938 1.328 . S
C1938 C1909 1.427 . S
C1938 H1915 0.929 . S
C1938 C1937 1.328 . S
C1939 O1923 1.264 . S
C1939 O1924 1.243 . S
C1940 C1943 1.399 . S
C1940 C1944 1.383 . S
C1940 C1947 1.496 . S
C1941 C1942 1.399 . S
C1941 C1944 1.389 . S
C1942 C1941 1.399 . S
C1942 C1945 1.380 . S
C1942 H1952 0.929 . S
C1943 C1940 1.399 . S
C1943 C1945 1.392 . S
C1943 H1953 0.929 . S
C1944 C1940 1.383 . S
C1944 C1941 1.389 . S
C1944 H1954 0.931 . S
C1945 C1942 1.380 . S
C1945 C1943 1.392 . S
C1945 H1955 0.929 . S
C1946 O1926 1.266 . S
C1946 O1927 1.248 . S
C1947 Tb1883 2.802 . S
C1947 O1922 1.264 . S
C1947 O1925 1.256 . S
C1947 C1940 1.496 . S
H1948 C1931 0.929 . S
H1949 C1932 0.929 . S
H1950 C1933 0.929 . S
H1951 C1934 0.931 . S
H1952 C1942 0.929 . S
H1953 C1943 0.929 . S
H1954 C1944 0.931 . S
H1955 C1945 0.929 . S
Tb1956 N1985 2.617 . S
Tb1956 N1991 2.572 . S
Tb1956 O2000 2.465 . S
Tb1956 O2001 2.387 . S
Tb1956 O2003 2.428 . S
Tb1956 O2004 2.308 . S
Tb1956 O2008 2.349 . S
Tb1956 O2011 2.393 . S
Tb1956 C2020 2.802 . S
C1957 N1958 1.379 . S
C1957 C1960 1.416 . S
C1957 C1964 1.424 . S
N1958 C1957 1.379 . S
N1958 C1961 1.334 . S
N1958 Tb1967 2.617 . S
C1959 C1961 1.390 . S
C1959 C1962 1.339 . S
C1959 H1979 0.930 . S
C1960 C1957 1.416 . S
C1960 C1962 1.416 . S
C1960 C1966 1.448 . S
C1961 N1958 1.334 . S
C1961 C1959 1.390 . S
C1961 H1972 0.930 . S
C1962 C1959 1.339 . S
C1962 C1960 1.416 . S
C1962 H1983 0.930 . S
C1963 C1964 1.413 . S
C1963 C1965 1.427 . S
C1963 C1969 1.416 . S
C1964 C1957 1.424 . S
C1964 C1963 1.413 . S
C1964 N1968 1.361 . S
C1965 C1963 1.427 . S
C1965 C1966 1.328 . S
C1965 H1980 0.929 . S
C1966 C1960 1.448 . S
C1966 C1965 1.328 . S
C1966 H1981 0.930 . S
Tb1967 N1958 2.617 . S
Tb1967 N1968 2.572 . S
Tb1967 O2002 2.349 . S
Tb1967 O2005 2.393 . S
Tb1967 O2006 2.465 . S
Tb1967 O2007 2.387 . S
Tb1967 O2009 2.428 . S
Tb1967 O2010 2.308 . S
Tb1967 C2031 2.802 . S
N1968 C1964 1.361 . S
N1968 Tb1967 2.572 . S
N1968 C1970 1.340 . S
C1969 C1963 1.416 . S
C1969 C1971 1.332 . S
C1969 H1977 0.931 . S
C1970 N1968 1.340 . S
C1970 C1971 1.407 . S
C1970 H1976 0.930 . S
C1971 C1969 1.332 . S
C1971 C1970 1.407 . S
C1971 H1973 0.929 . S
H1972 C1961 0.930 . S
H1973 C1971 0.929 . S
H1974 C1989 0.930 . S
H1975 C1996 0.929 . S
H1976 C1970 0.930 . S
H1977 C1969 0.931 . S
H1978 C1992 0.930 . S
H1979 C1959 0.930 . S
H1980 C1965 0.929 . S
H1981 C1966 0.930 . S
H1982 C1987 0.930 . S
H1983 C1962 0.930 . S
H1984 C1995 0.931 . S
N1985 Tb1956 2.617 . S
N1985 C1986 1.379 . S
N1985 C1989 1.334 . S
C1986 N1985 1.379 . S
C1986 C1988 1.416 . S
C1986 C1994 1.424 . S
C1987 H1982 0.930 . S
C1987 C1989 1.390 . S
C1987 C1990 1.339 . S
C1988 C1986 1.416 . S
C1988 C1990 1.416 . S
C1988 C2021 1.448 . S
C1989 H1974 0.930 . S
C1989 N1985 1.334 . S
C1989 C1987 1.390 . S
C1990 C1987 1.339 . S
C1990 C1988 1.416 . S
C1990 H1997 0.930 . S
N1991 Tb1956 2.572 . S
N1991 C1992 1.340 . S
N1991 C1994 1.361 . S
C1992 H1978 0.930 . S
C1992 N1991 1.340 . S
C1992 C1996 1.407 . S
C1993 C1994 1.413 . S
C1993 C1995 1.416 . S
C1993 C2022 1.427 . S
C1994 C1986 1.424 . S
C1994 N1991 1.361 . S
C1994 C1993 1.413 . S
C1995 H1984 0.931 . S
C1995 C1993 1.416 . S
C1995 C1996 1.332 . S
C1996 H1975 0.929 . S
C1996 C1992 1.407 . S
C1996 C1995 1.332 . S
H1997 C1990 0.930 . S
H1998 C2021 0.930 . S
H1999 C2022 0.929 . S
O2000 Tb1956 2.465 . S
O2000 C2020 1.264 . S
O2001 Tb1956 2.387 . S
O2001 C2012 1.264 . S
O2002 Tb1967 2.349 . S
O2002 C2012 1.243 . S
O2003 Tb1956 2.428 . S
O2003 C2020 1.256 . S
O2004 Tb1956 2.308 . S
O2004 C2019 1.266 . S
O2005 Tb1967 2.393 . S
O2005 C2019 1.248 . S
O2006 Tb1967 2.465 . S
O2006 C2031 1.264 . S
O2007 Tb1967 2.387 . S
O2007 C2023 1.264 . S
O2008 Tb1956 2.349 . S
O2008 C2023 1.243 . S
O2009 Tb1967 2.428 . S
O2009 C2031 1.256 . S
O2010 Tb1967 2.308 . S
O2010 C2030 1.266 . S
O2011 Tb1956 2.393 . S
O2011 C2030 1.248 . S
C2012 O2001 1.264 . S
C2012 O2002 1.243 . S
C2013 C2016 1.399 . S
C2013 C2018 1.383 . S
C2013 C2020 1.496 . S
C2014 C2015 1.399 . S
C2014 C2018 1.389 . S
C2015 C2014 1.399 . S
C2015 C2017 1.380 . S
C2015 H2032 0.929 . S
C2016 C2013 1.399 . S
C2016 C2017 1.392 . S
C2016 H2033 0.929 . S
C2017 C2015 1.380 . S
C2017 C2016 1.392 . S
C2017 H2034 0.929 . S
C2018 C2013 1.383 . S
C2018 C2014 1.389 . S
C2018 H2035 0.931 . S
C2019 O2004 1.266 . S
C2019 O2005 1.248 . S
C2020 Tb1956 2.802 . S
C2020 O2000 1.264 . S
C2020 O2003 1.256 . S
C2020 C2013 1.496 . S
C2021 C1988 1.448 . S
C2021 H1998 0.930 . S
C2021 C2022 1.328 . S
C2022 C1993 1.427 . S
C2022 H1999 0.929 . S
C2022 C2021 1.328 . S
C2023 O2007 1.264 . S
C2023 O2008 1.243 . S
C2024 C2027 1.399 . S
C2024 C2028 1.383 . S
C2024 C2031 1.496 . S
C2025 C2026 1.399 . S
C2025 C2028 1.389 . S
C2026 C2025 1.399 . S
C2026 C2029 1.380 . S
C2026 H2036 0.929 . S
C2027 C2024 1.399 . S
C2027 C2029 1.392 . S
C2027 H2037 0.929 . S
C2028 C2024 1.383 . S
C2028 C2025 1.389 . S
C2028 H2038 0.931 . S
C2029 C2026 1.380 . S
C2029 C2027 1.392 . S
C2029 H2039 0.929 . S
C2030 O2010 1.266 . S
C2030 O2011 1.248 . S
C2031 Tb1967 2.802 . S
C2031 O2006 1.264 . S
C2031 O2009 1.256 . S
C2031 C2024 1.496 . S
H2032 C2015 0.929 . S
H2033 C2016 0.929 . S
H2034 C2017 0.929 . S
H2035 C2018 0.931 . S
H2036 C2026 0.929 . S
H2037 C2027 0.929 . S
H2038 C2028 0.931 . S
H2039 C2029 0.929 . S
Tb2040 N2069 2.617 . S
Tb2040 N2075 2.572 . S
Tb2040 O2084 2.465 . S
Tb2040 O2085 2.387 . S
Tb2040 O2087 2.428 . S
Tb2040 O2088 2.308 . S
Tb2040 O2092 2.349 . S
Tb2040 O2095 2.393 . S
Tb2040 C2104 2.802 . S
C2041 N2042 1.379 . S
C2041 C2044 1.416 . S
C2041 C2048 1.424 . S
N2042 C2041 1.379 . S
N2042 C2045 1.334 . S
N2042 Tb2051 2.617 . S
C2043 C2045 1.390 . S
C2043 C2046 1.339 . S
C2043 H2063 0.930 . S
C2044 C2041 1.416 . S
C2044 C2046 1.416 . S
C2044 C2050 1.448 . S
C2045 N2042 1.334 . S
C2045 C2043 1.390 . S
C2045 H2056 0.930 . S
C2046 C2043 1.339 . S
C2046 C2044 1.416 . S
C2046 H2067 0.930 . S
C2047 C2048 1.413 . S
C2047 C2049 1.427 . S
C2047 C2053 1.416 . S
C2048 C2041 1.424 . S
C2048 C2047 1.413 . S
C2048 N2052 1.361 . S
C2049 C2047 1.427 . S
C2049 C2050 1.328 . S
C2049 H2064 0.929 . S
C2050 C2044 1.448 . S
C2050 C2049 1.328 . S
C2050 H2065 0.930 . S
Tb2051 N2042 2.617 . S
Tb2051 N2052 2.572 . S
Tb2051 O2086 2.349 . S
Tb2051 O2089 2.393 . S
Tb2051 O2090 2.465 . S
Tb2051 O2091 2.387 . S
Tb2051 O2093 2.428 . S
Tb2051 O2094 2.308 . S
Tb2051 C2115 2.802 . S
N2052 C2048 1.361 . S
N2052 Tb2051 2.572 . S
N2052 C2054 1.340 . S
C2053 C2047 1.416 . S
C2053 C2055 1.332 . S
C2053 H2061 0.931 . S
C2054 N2052 1.340 . S
C2054 C2055 1.407 . S
C2054 H2060 0.930 . S
C2055 C2053 1.332 . S
C2055 C2054 1.407 . S
C2055 H2057 0.929 . S
H2056 C2045 0.930 . S
H2057 C2055 0.929 . S
H2058 C2073 0.930 . S
H2059 C2080 0.929 . S
H2060 C2054 0.930 . S
H2061 C2053 0.931 . S
H2062 C2076 0.930 . S
H2063 C2043 0.930 . S
H2064 C2049 0.929 . S
H2065 C2050 0.930 . S
H2066 C2071 0.930 . S
H2067 C2046 0.930 . S
H2068 C2079 0.931 . S
N2069 Tb2040 2.617 . S
N2069 C2070 1.379 . S
N2069 C2073 1.334 . S
C2070 N2069 1.379 . S
C2070 C2072 1.416 . S
C2070 C2078 1.424 . S
C2071 H2066 0.930 . S
C2071 C2073 1.390 . S
C2071 C2074 1.339 . S
C2072 C2070 1.416 . S
C2072 C2074 1.416 . S
C2072 C2105 1.448 . S
C2073 H2058 0.930 . S
C2073 N2069 1.334 . S
C2073 C2071 1.390 . S
C2074 C2071 1.339 . S
C2074 C2072 1.416 . S
C2074 H2081 0.930 . S
N2075 Tb2040 2.572 . S
N2075 C2076 1.340 . S
N2075 C2078 1.361 . S
C2076 H2062 0.930 . S
C2076 N2075 1.340 . S
C2076 C2080 1.407 . S
C2077 C2078 1.413 . S
C2077 C2079 1.416 . S
C2077 C2106 1.427 . S
C2078 C2070 1.424 . S
C2078 N2075 1.361 . S
C2078 C2077 1.413 . S
C2079 H2068 0.931 . S
C2079 C2077 1.416 . S
C2079 C2080 1.332 . S
C2080 H2059 0.929 . S
C2080 C2076 1.407 . S
C2080 C2079 1.332 . S
H2081 C2074 0.930 . S
H2082 C2105 0.930 . S
H2083 C2106 0.929 . S
O2084 Tb2040 2.465 . S
O2084 C2104 1.264 . S
O2085 Tb2040 2.387 . S
O2085 C2096 1.264 . S
O2086 Tb2051 2.349 . S
O2086 C2096 1.243 . S
O2087 Tb2040 2.428 . S
O2087 C2104 1.256 . S
O2088 Tb2040 2.308 . S
O2088 C2103 1.266 . S
O2089 Tb2051 2.393 . S
O2089 C2103 1.248 . S
O2090 Tb2051 2.465 . S
O2090 C2115 1.264 . S
O2091 Tb2051 2.387 . S
O2091 C2107 1.264 . S
O2092 Tb2040 2.349 . S
O2092 C2107 1.243 . S
O2093 Tb2051 2.428 . S
O2093 C2115 1.256 . S
O2094 Tb2051 2.308 . S
O2094 C2114 1.266 . S
O2095 Tb2040 2.393 . S
O2095 C2114 1.248 . S
C2096 O2085 1.264 . S
C2096 O2086 1.243 . S
C2097 C2100 1.399 . S
C2097 C2102 1.383 . S
C2097 C2104 1.496 . S
C2098 C2099 1.399 . S
C2098 C2102 1.389 . S
C2099 C2098 1.399 . S
C2099 C2101 1.380 . S
C2099 H2116 0.929 . S
C2100 C2097 1.399 . S
C2100 C2101 1.392 . S
C2100 H2117 0.929 . S
C2101 C2099 1.380 . S
C2101 C2100 1.392 . S
C2101 H2118 0.929 . S
C2102 C2097 1.383 . S
C2102 C2098 1.389 . S
C2102 H2119 0.931 . S
C2103 O2088 1.266 . S
C2103 O2089 1.248 . S
C2104 Tb2040 2.802 . S
C2104 O2084 1.264 . S
C2104 O2087 1.256 . S
C2104 C2097 1.496 . S
C2105 C2072 1.448 . S
C2105 H2082 0.930 . S
C2105 C2106 1.328 . S
C2106 C2077 1.427 . S
C2106 H2083 0.929 . S
C2106 C2105 1.328 . S
C2107 O2091 1.264 . S
C2107 O2092 1.243 . S
C2108 C2111 1.399 . S
C2108 C2112 1.383 . S
C2108 C2115 1.496 . S
C2109 C2110 1.399 . S
C2109 C2112 1.389 . S
C2110 C2109 1.399 . S
C2110 C2113 1.380 . S
C2110 H2120 0.929 . S
C2111 C2108 1.399 . S
C2111 C2113 1.392 . S
C2111 H2121 0.929 . S
C2112 C2108 1.383 . S
C2112 C2109 1.389 . S
C2112 H2122 0.931 . S
C2113 C2110 1.380 . S
C2113 C2111 1.392 . S
C2113 H2123 0.929 . S
C2114 O2094 1.266 . S
C2114 O2095 1.248 . S
C2115 Tb2051 2.802 . S
C2115 O2090 1.264 . S
C2115 O2093 1.256 . S
C2115 C2108 1.496 . S
H2116 C2099 0.929 . S
H2117 C2100 0.929 . S
H2118 C2101 0.929 . S
H2119 C2102 0.931 . S
H2120 C2110 0.929 . S
H2121 C2111 0.929 . S
H2122 C2112 0.931 . S
H2123 C2113 0.929 . S
Tb2124 N2153 2.608 1_455 S
Tb2124 N2159 2.550 1_455 S
Tb2124 O2168 2.435 1_455 S
Tb2124 O2169 2.406 . S
Tb2124 O2171 2.403 1_455 S
Tb2124 O2172 2.315 . S
Tb2124 O2176 2.359 . S
Tb2124 O2179 2.417 . S
Tb2124 C2188 2.772 1_455 S
C2125 N2126 1.379 . S
C2125 C2128 1.416 . S
C2125 C2132 1.424 1_556 S
N2126 C2125 1.379 . S
N2126 C2129 1.334 . S
N2126 Tb2135 2.617 1_556 S
C2127 C2129 1.390 . S
C2127 C2130 1.339 . S
C2127 H2147 0.930 . S
C2128 C2125 1.416 . S
C2128 C2130 1.416 . S
C2128 C2134 1.448 . S
C2129 N2126 1.334 . S
C2129 C2127 1.390 . S
C2129 H2140 0.930 . S
C2130 C2127 1.339 . S
C2130 C2128 1.416 . S
C2130 H2151 0.930 . S
C2131 C2132 1.413 . S
C2131 C2133 1.427 . S
C2131 C2137 1.416 . S
C2132 C2125 1.424 1_554 S
C2132 C2131 1.413 . S
C2132 N2136 1.361 . S
C2133 C2131 1.427 . S
C2133 C2134 1.328 1_554 S
C2133 H2148 0.929 . S
C2134 C2128 1.448 . S
C2134 C2133 1.328 1_556 S
C2134 H2149 0.930 . S
Tb2135 N2126 2.617 1_554 S
Tb2135 N2136 2.572 . S
Tb2135 O2170 2.349 . S
Tb2135 O2173 2.393 1_554 S
Tb2135 O2174 2.465 . S
Tb2135 O2175 2.387 . S
Tb2135 O2177 2.428 1_554 S
Tb2135 O2178 2.308 . S
Tb2135 C2199 2.802 . S
N2136 C2132 1.361 . S
N2136 Tb2135 2.572 . S
N2136 C2138 1.340 . S
C2137 C2131 1.416 . S
C2137 C2139 1.332 . S
C2137 H2145 0.931 . S
C2138 N2136 1.340 . S
C2138 C2139 1.407 . S
C2138 H2144 0.930 . S
C2139 C2137 1.332 . S
C2139 C2138 1.407 . S
C2139 H2141 0.929 . S
H2140 C2129 0.930 . S
H2141 C2139 0.929 . S
H2142 C2157 0.930 1_455 S
H2143 C2164 0.950 . S
H2144 C2138 0.930 . S
H2145 C2137 0.931 . S
H2146 C2160 0.930 1_556 S
H2147 C2127 0.930 . S
H2148 C2133 0.929 . S
H2149 C2134 0.930 . S
H2150 C2155 0.935 . S
H2151 C2130 0.930 . S
H2152 C2163 0.931 . S
N2153 Tb2124 2.608 1_655 S
N2153 C2154 1.379 . S
N2153 C2157 1.334 . S
C2154 N2153 1.379 . S
C2154 C2156 1.416 . S
C2154 C2162 1.424 . S
C2155 H2150 0.935 . S
C2155 C2157 1.390 . S
C2155 C2158 1.339 . S
C2156 C2154 1.416 . S
C2156 C2158 1.416 . S
C2156 C2189 1.448 . S
C2157 H2142 0.930 1_655 S
C2157 N2153 1.334 . S
C2157 C2155 1.390 . S
C2158 C2155 1.339 . S
C2158 C2156 1.416 . S
C2158 H2165 0.930 . S
N2159 Tb2124 2.550 1_655 S
N2159 C2160 1.340 . S
N2159 C2162 1.361 . S
C2160 H2146 0.930 1_554 S
C2160 N2159 1.340 . S
C2160 C2164 1.403 1_554 S
C2161 C2162 1.413 . S
C2161 C2163 1.416 . S
C2161 C2190 1.427 . S
C2162 C2154 1.424 . S
C2162 N2159 1.361 . S
C2162 C2161 1.413 . S
C2163 H2152 0.931 . S
C2163 C2161 1.416 . S
C2163 C2164 1.316 1_554 S
C2164 H2143 0.950 . S
C2164 C2160 1.403 1_556 S
C2164 C2163 1.316 1_556 S
H2165 C2158 0.930 . S
H2166 C2189 0.930 . S
H2167 C2190 0.929 . S
O2168 Tb2124 2.435 1_655 S
O2168 C2188 1.264 . S
O2169 Tb2124 2.406 . S
O2169 C2180 1.264 . S
O2170 Tb2135 2.349 . S
O2170 C2180 1.243 . S
O2171 Tb2124 2.403 1_655 S
O2171 C2188 1.256 . S
O2172 Tb2124 2.315 . S
O2172 C2187 1.266 1_554 S
O2173 Tb2135 2.393 1_556 S
O2173 C2187 1.248 . S
O2174 Tb2135 2.465 . S
O2174 C2199 1.264 . S
O2175 Tb2135 2.387 . S
O2175 C2191 1.264 . S
O2176 Tb2124 2.359 . S
O2176 C2191 1.243 . S
O2177 Tb2135 2.428 1_556 S
O2177 C2199 1.256 1_556 S
O2178 Tb2135 2.308 . S
O2178 C2198 1.266 . S
O2179 Tb2124 2.417 . S
O2179 C2198 1.248 . S
C2180 O2169 1.264 . S
C2180 O2170 1.243 . S
C2181 C2184 1.399 . S
C2181 C2186 1.383 . S
C2181 C2188 1.496 . S
C2182 C2183 1.399 . S
C2182 C2186 1.389 . S
C2183 C2182 1.399 . S
C2183 C2185 1.380 . S
C2183 H2200 0.929 . S
C2184 C2181 1.399 . S
C2184 C2185 1.392 . S
C2184 H2201 0.929 . S
C2185 C2183 1.380 . S
C2185 C2184 1.392 . S
C2185 H2202 0.929 . S
C2186 C2181 1.383 . S
C2186 C2182 1.389 . S
C2186 H2203 0.931 . S
C2187 O2172 1.266 1_556 S
C2187 O2173 1.248 . S
C2188 Tb2124 2.772 1_655 S
C2188 O2168 1.264 . S
C2188 O2171 1.256 . S
C2188 C2181 1.496 . S
C2189 C2156 1.448 . S
C2189 H2166 0.930 . S
C2189 C2190 1.328 . S
C2190 C2161 1.427 . S
C2190 H2167 0.929 . S
C2190 C2189 1.328 . S
C2191 O2175 1.264 . S
C2191 O2176 1.243 . S
C2192 C2195 1.399 . S
C2192 C2196 1.383 1_556 S
C2192 C2199 1.496 1_556 S
C2193 C2194 1.399 1_554 S
C2193 C2196 1.389 . S
C2194 C2193 1.399 1_556 S
C2194 C2197 1.380 . S
C2194 H2204 0.929 . S
C2195 C2192 1.399 . S
C2195 C2197 1.392 . S
C2195 H2205 0.929 . S
C2196 C2192 1.383 1_554 S
C2196 C2193 1.389 . S
C2196 H2206 0.931 . S
C2197 C2194 1.380 . S
C2197 C2195 1.392 . S
C2197 H2207 0.929 . S
C2198 O2178 1.266 . S
C2198 O2179 1.248 . S
C2199 Tb2135 2.802 . S
C2199 O2174 1.264 . S
C2199 O2177 1.256 1_554 S
C2199 C2192 1.496 1_554 S
H2200 C2183 0.929 . S
H2201 C2184 0.929 . S
H2202 C2185 0.929 . S
H2203 C2186 0.931 . S
H2204 C2194 0.929 . S
H2205 C2195 0.929 . S
H2206 C2196 0.931 . S
H2207 C2197 0.929 . S
H2208 C2220 0.930 . S
H2209 C2222 0.930 . S
H2210 C2223 0.930 . S
H2211 C2227 0.959 . S
H2212 C2227 0.959 . S
H2213 C2227 0.961 . S
H2214 C2228 0.960 . S
H2215 C2228 0.961 . S
H2216 C2228 0.959 1_455 S
H2217 C2231 0.929 . S
H2218 C2232 0.931 . S
H2219 C2234 0.930 1_655 S
C2220 H2208 0.930 . S
C2220 C2221 1.399 1_655 S
C2220 C2225 1.399 . S
C2221 C2220 1.399 1_455 S
C2221 C2222 1.376 . S
C2222 H2209 0.930 . S
C2222 C2221 1.376 . S
C2222 C2223 1.388 1_556 S
C2223 H2210 0.930 . S
C2223 C2222 1.388 1_554 S
C2223 C2224 1.390 1_554 S
C2224 C2223 1.390 1_556 S
C2224 C2225 1.394 1_455 S
C2224 C2230 1.465 1_556 S
C2225 C2220 1.399 . S
C2225 C2224 1.394 1_655 S
C2225 C2226 1.516 . S
C2226 C2225 1.516 . S
C2226 C2227 1.502 . S
C2226 C2228 1.561 . S
C2226 C2229 1.526 1_655 S
C2227 H2211 0.959 . S
C2227 H2212 0.959 . S
C2227 H2213 0.961 . S
C2227 C2226 1.502 . S
C2228 H2214 0.960 . S
C2228 H2215 0.961 . S
C2228 H2216 0.959 1_655 S
C2228 C2226 1.561 . S
C2229 C2226 1.526 1_455 S
C2229 C2230 1.396 1_556 S
C2229 C2234 1.390 . S
C2230 C2224 1.465 1_554 S
C2230 C2229 1.396 1_554 S
C2230 C2231 1.399 . S
C2231 H2217 0.929 . S
C2231 C2230 1.399 . S
C2231 C2232 1.385 . S
C2232 H2218 0.931 . S
C2232 C2231 1.385 . S
C2232 C2233 1.389 . S
C2233 C2232 1.389 . S
C2233 C2234 1.387 1_554 S
C2234 H2219 0.930 1_455 S
C2234 C2229 1.390 . S
C2234 C2233 1.387 1_556 S
H2235 C2247 0.930 . S
H2236 C2249 0.930 . S
H2237 C2250 0.930 . S
H2238 C2254 0.959 . S
H2239 C2254 0.959 . S
H2240 C2254 0.961 . S
H2241 C2255 0.960 . S
H2242 C2255 0.961 . S
H2243 C2255 0.959 . S
H2244 C2258 0.929 . S
H2245 C2259 0.931 . S
H2246 C2261 0.930 . S
C2247 H2235 0.930 . S
C2247 C2248 1.399 . S
C2247 C2252 1.399 . S
C2248 C2247 1.399 . S
C2248 C2249 1.376 . S
C2249 H2236 0.930 . S
C2249 C2248 1.376 . S
C2249 C2250 1.388 . S
C2250 H2237 0.930 . S
C2250 C2249 1.388 . S
C2250 C2251 1.390 . S
C2251 C2250 1.390 . S
C2251 C2252 1.394 . S
C2251 C2257 1.465 . S
C2252 C2247 1.399 . S
C2252 C2251 1.394 . S
C2252 C2253 1.516 . S
C2253 C2252 1.516 . S
C2253 C2254 1.502 . S
C2253 C2255 1.561 . S
C2253 C2256 1.526 . S
C2254 H2238 0.959 . S
C2254 H2239 0.959 . S
C2254 H2240 0.961 . S
C2254 C2253 1.502 . S
C2255 H2241 0.960 . S
C2255 H2242 0.961 . S
C2255 H2243 0.959 . S
C2255 C2253 1.561 . S
C2256 C2253 1.526 . S
C2256 C2257 1.396 . S
C2256 C2261 1.390 . S
C2257 C2251 1.465 . S
C2257 C2256 1.396 . S
C2257 C2258 1.399 . S
C2258 H2244 0.929 . S
C2258 C2257 1.399 . S
C2258 C2259 1.385 . S
C2259 H2245 0.931 . S
C2259 C2258 1.385 . S
C2259 C2260 1.389 . S
C2260 C2259 1.389 . S
C2260 C2261 1.387 . S
C2261 H2246 0.930 . S
C2261 C2256 1.390 . S
C2261 C2260 1.387 . S
H2262 C2274 0.930 . S
H2263 C2276 0.930 . S
H2264 C2277 0.930 . S
H2265 C2281 0.959 . S
H2266 C2281 0.959 . S
H2267 C2281 0.961 . S
H2268 C2282 0.960 . S
H2269 C2282 0.961 . S
H2270 C2282 0.959 . S
H2271 C2285 0.929 . S
H2272 C2286 0.931 . S
H2273 C2288 0.930 . S
C2274 H2262 0.930 . S
C2274 C2275 1.399 . S
C2274 C2279 1.399 . S
C2275 C2274 1.399 . S
C2275 C2276 1.376 . S
C2276 H2263 0.930 . S
C2276 C2275 1.376 . S
C2276 C2277 1.388 . S
C2277 H2264 0.930 . S
C2277 C2276 1.388 . S
C2277 C2278 1.390 . S
C2278 C2277 1.390 . S
C2278 C2279 1.394 . S
C2278 C2284 1.465 . S
C2279 C2274 1.399 . S
C2279 C2278 1.394 . S
C2279 C2280 1.516 . S
C2280 C2279 1.516 . S
C2280 C2281 1.502 . S
C2280 C2282 1.561 . S
C2280 C2283 1.526 . S
C2281 H2265 0.959 . S
C2281 H2266 0.959 . S
C2281 H2267 0.961 . S
C2281 C2280 1.502 . S
C2282 H2268 0.960 . S
C2282 H2269 0.961 . S
C2282 H2270 0.959 . S
C2282 C2280 1.561 . S
C2283 C2280 1.526 . S
C2283 C2284 1.396 . S
C2283 C2288 1.390 . S
C2284 C2278 1.465 . S
C2284 C2283 1.396 . S
C2284 C2285 1.399 . S
C2285 H2271 0.929 . S
C2285 C2284 1.399 . S
C2285 C2286 1.385 . S
C2286 H2272 0.931 . S
C2286 C2285 1.385 . S
C2286 C2287 1.389 . S
C2287 C2286 1.389 . S
C2287 C2288 1.387 . S
C2288 H2273 0.930 . S
C2288 C2283 1.390 . S
C2288 C2287 1.387 . S
H2289 C2301 0.930 . S
H2290 C2303 0.930 . S
H2291 C2304 0.930 . S
H2292 C2308 0.959 . S
H2293 C2308 0.959 . S
H2294 C2308 0.961 . S
H2295 C2309 0.960 . S
H2296 C2309 0.961 . S
H2297 C2309 0.959 . S
H2298 C2312 0.929 . S
H2299 C2313 0.931 . S
H2300 C2315 0.930 . S
C2301 H2289 0.930 . S
C2301 C2302 1.399 . S
C2301 C2306 1.399 . S
C2302 C2301 1.399 . S
C2302 C2303 1.376 . S
C2303 H2290 0.930 . S
C2303 C2302 1.376 . S
C2303 C2304 1.388 . S
C2304 H2291 0.930 . S
C2304 C2303 1.388 . S
C2304 C2305 1.390 . S
C2305 C2304 1.390 . S
C2305 C2306 1.394 . S
C2305 C2311 1.465 . S
C2306 C2301 1.399 . S
C2306 C2305 1.394 . S
C2306 C2307 1.516 . S
C2307 C2306 1.516 . S
C2307 C2308 1.502 . S
C2307 C2309 1.561 . S
C2307 C2310 1.526 . S
C2308 H2292 0.959 . S
C2308 H2293 0.959 . S
C2308 H2294 0.961 . S
C2308 C2307 1.502 . S
C2309 H2295 0.960 . S
C2309 H2296 0.961 . S
C2309 H2297 0.959 . S
C2309 C2307 1.561 . S
C2310 C2307 1.526 . S
C2310 C2311 1.396 . S
C2310 C2315 1.390 . S
C2311 C2305 1.465 . S
C2311 C2310 1.396 . S
C2311 C2312 1.399 . S
C2312 H2298 0.929 . S
C2312 C2311 1.399 . S
C2312 C2313 1.385 . S
C2313 H2299 0.931 . S
C2313 C2312 1.385 . S
C2313 C2314 1.389 . S
C2314 C2313 1.389 . S
C2314 C2315 1.387 . S
C2315 H2300 0.930 . S
C2315 C2310 1.390 . S
C2315 C2314 1.387 . S
H2316 C2328 0.930 . S
H2317 C2330 0.930 1_655 S
H2318 C2331 0.929 . S
H2319 C2335 0.959 . S
H2320 C2335 0.959 . S
H2321 C2335 0.961 . S
H2322 C2336 0.960 . S
H2323 C2336 0.961 . S
H2324 C2336 0.959 . S
H2325 C2339 0.929 1_655 S
H2326 C2340 0.931 1_655 S
H2327 C2342 0.930 . S
C2328 H2316 0.930 . S
C2328 C2329 1.399 . S
C2328 C2333 1.399 . S
C2329 C2328 1.399 . S
C2329 C2330 1.376 . S
C2330 H2317 0.930 1_455 S
C2330 C2329 1.376 . S
C2330 C2331 1.389 1_455 S
C2331 H2318 0.929 . S
C2331 C2330 1.389 1_655 S
C2331 C2332 1.391 1_655 S
C2332 C2331 1.391 1_455 S
C2332 C2333 1.394 . S
C2332 C2338 1.465 . S
C2333 C2328 1.399 . S
C2333 C2332 1.394 . S
C2333 C2334 1.516 . S
C2334 C2333 1.516 . S
C2334 C2335 1.502 . S
C2334 C2336 1.561 . S
C2334 C2337 1.526 . S
C2335 H2319 0.959 . S
C2335 H2320 0.959 . S
C2335 H2321 0.961 . S
C2335 C2334 1.502 . S
C2336 H2322 0.960 . S
C2336 H2323 0.961 . S
C2336 H2324 0.959 . S
C2336 C2334 1.561 . S
C2337 C2334 1.526 . S
C2337 C2338 1.396 . S
C2337 C2342 1.390 . S
C2338 C2332 1.465 . S
C2338 C2337 1.396 . S
C2338 C2339 1.399 . S
C2339 H2325 0.929 1_455 S
C2339 C2338 1.399 . S
C2339 C2340 1.385 . S
C2340 H2326 0.931 1_455 S
C2340 C2339 1.385 . S
C2340 C2341 1.389 . S
C2341 C2340 1.389 . S
C2341 C2342 1.387 . S
C2342 H2327 0.930 . S
C2342 C2337 1.390 . S
C2342 C2341 1.387 . S
H2343 C2355 0.930 . S
H2344 C2357 0.930 . S
H2345 C2358 0.930 . S
H2346 C2362 0.959 . S
H2347 C2362 0.959 . S
H2348 C2362 0.961 . S
H2349 C2363 0.960 . S
H2350 C2363 0.961 . S
H2351 C2363 0.959 . S
H2352 C2366 0.929 . S
H2353 C2367 0.931 . S
H2354 C2369 0.930 . S
C2355 H2343 0.930 . S
C2355 C2356 1.399 . S
C2355 C2360 1.399 . S
C2356 C2355 1.399 . S
C2356 C2357 1.376 . S
C2357 H2344 0.930 . S
C2357 C2356 1.376 . S
C2357 C2358 1.388 . S
C2358 H2345 0.930 . S
C2358 C2357 1.388 . S
C2358 C2359 1.390 . S
C2359 C2358 1.390 . S
C2359 C2360 1.394 . S
C2359 C2365 1.465 . S
C2360 C2355 1.399 . S
C2360 C2359 1.394 . S
C2360 C2361 1.516 . S
C2361 C2360 1.516 . S
C2361 C2362 1.502 . S
C2361 C2363 1.561 . S
C2361 C2364 1.526 . S
C2362 H2346 0.959 . S
C2362 H2347 0.959 . S
C2362 H2348 0.961 . S
C2362 C2361 1.502 . S
C2363 H2349 0.960 . S
C2363 H2350 0.961 . S
C2363 H2351 0.959 . S
C2363 C2361 1.561 . S
C2364 C2361 1.526 . S
C2364 C2365 1.396 . S
C2364 C2369 1.390 . S
C2365 C2359 1.465 . S
C2365 C2364 1.396 . S
C2365 C2366 1.399 . S
C2366 H2352 0.929 . S
C2366 C2365 1.399 . S
C2366 C2367 1.385 . S
C2367 H2353 0.931 . S
C2367 C2366 1.385 . S
C2367 C2368 1.389 . S
C2368 C2367 1.389 . S
C2368 C2369 1.387 . S
C2369 H2354 0.930 . S
C2369 C2364 1.390 . S
C2369 C2368 1.387 . S
H2370 C2382 0.930 . S
H2371 C2384 0.930 . S
H2372 C2385 0.930 . S
H2373 C2389 0.959 . S
H2374 C2389 0.959 . S
H2375 C2389 0.961 . S
H2376 C2390 0.960 . S
H2377 C2390 0.961 . S
H2378 C2390 0.959 . S
H2379 C2393 0.929 . S
H2380 C2394 0.931 . S
H2381 C2396 0.930 . S
C2382 H2370 0.930 . S
C2382 C2383 1.399 . S
C2382 C2387 1.399 . S
C2383 C2382 1.399 . S
C2383 C2384 1.376 . S
C2384 H2371 0.930 . S
C2384 C2383 1.376 . S
C2384 C2385 1.388 . S
C2385 H2372 0.930 . S
C2385 C2384 1.388 . S
C2385 C2386 1.390 . S
C2386 C2385 1.390 . S
C2386 C2387 1.394 . S
C2386 C2392 1.465 . S
C2387 C2382 1.399 . S
C2387 C2386 1.394 . S
C2387 C2388 1.516 . S
C2388 C2387 1.516 . S
C2388 C2389 1.502 . S
C2388 C2390 1.561 . S
C2388 C2391 1.526 . S
C2389 H2373 0.959 . S
C2389 H2374 0.959 . S
C2389 H2375 0.961 . S
C2389 C2388 1.502 . S
C2390 H2376 0.960 . S
C2390 H2377 0.961 . S
C2390 H2378 0.959 . S
C2390 C2388 1.561 . S
C2391 C2388 1.526 . S
C2391 C2392 1.396 . S
C2391 C2396 1.390 . S
C2392 C2386 1.465 . S
C2392 C2391 1.396 . S
C2392 C2393 1.399 . S
C2393 H2379 0.929 . S
C2393 C2392 1.399 . S
C2393 C2394 1.385 . S
C2394 H2380 0.931 . S
C2394 C2393 1.385 . S
C2394 C2395 1.389 . S
C2395 C2394 1.389 . S
C2395 C2396 1.387 . S
C2396 H2381 0.930 . S
C2396 C2391 1.390 . S
C2396 C2395 1.387 . S
H2397 C2409 0.930 . S
H2398 C2411 0.930 . S
H2399 C2412 0.930 . S
H2400 C2416 0.959 . S
H2401 C2416 0.959 . S
H2402 C2416 0.961 . S
H2403 C2417 0.960 . S
H2404 C2417 0.961 . S
H2405 C2417 0.959 . S
H2406 C2420 0.929 . S
H2407 C2421 0.931 . S
H2408 C2423 0.930 . S
C2409 H2397 0.930 . S
C2409 C2410 1.399 . S
C2409 C2414 1.399 . S
C2410 C2409 1.399 . S
C2410 C2411 1.376 . S
C2411 H2398 0.930 . S
C2411 C2410 1.376 . S
C2411 C2412 1.388 . S
C2412 H2399 0.930 . S
C2412 C2411 1.388 . S
C2412 C2413 1.390 . S
C2413 C2412 1.390 . S
C2413 C2414 1.394 . S
C2413 C2419 1.465 . S
C2414 C2409 1.399 . S
C2414 C2413 1.394 . S
C2414 C2415 1.516 . S
C2415 C2414 1.516 . S
C2415 C2416 1.502 . S
C2415 C2417 1.561 . S
C2415 C2418 1.526 . S
C2416 H2400 0.959 . S
C2416 H2401 0.959 . S
C2416 H2402 0.961 . S
C2416 C2415 1.502 . S
C2417 H2403 0.960 . S
C2417 H2404 0.961 . S
C2417 H2405 0.959 . S
C2417 C2415 1.561 . S
C2418 C2415 1.526 . S
C2418 C2419 1.396 . S
C2418 C2423 1.390 . S
C2419 C2413 1.465 . S
C2419 C2418 1.396 . S
C2419 C2420 1.399 . S
C2420 H2406 0.929 . S
C2420 C2419 1.399 . S
C2420 C2421 1.385 . S
C2421 H2407 0.931 . S
C2421 C2420 1.385 . S
C2421 C2422 1.389 . S
C2422 C2421 1.389 . S
C2422 C2423 1.387 . S
C2423 H2408 0.930 . S
C2423 C2418 1.390 . S
C2423 C2422 1.387 . S
H2424 C2436 0.898 1_565 S
H2425 C2438 0.930 . S
H2426 C2439 0.930 . S
H2427 C2443 0.959 1_455 S
H2428 C2443 0.959 . S
H2429 C2443 0.961 . S
H2430 C2444 0.960 . S
H2431 C2444 0.961 . S
H2432 C2444 0.959 . S
H2433 C2447 0.929 . S
H2434 C2448 0.931 1_455 S
H2435 C2450 0.892 1_565 S
C2436 H2424 0.898 1_545 S
C2436 C2437 1.420 . S
C2436 C2441 1.411 . S
C2437 C2436 1.420 . S
C2437 C2438 1.376 . S
C2438 H2425 0.930 . S
C2438 C2437 1.376 . S
C2438 C2439 1.388 . S
C2439 H2426 0.930 . S
C2439 C2438 1.388 . S
C2439 C2440 1.390 . S
C2440 C2439 1.390 . S
C2440 C2441 1.394 . S
C2440 C2446 1.465 . S
C2441 C2436 1.411 . S
C2441 C2440 1.394 . S
C2441 C2442 1.516 1_545 S
C2442 C2441 1.516 1_565 S
C2442 C2443 1.502 . S
C2442 C2444 1.561 . S
C2442 C2445 1.526 1_565 S
C2443 H2427 0.959 1_655 S
C2443 H2428 0.959 . S
C2443 H2429 0.961 . S
C2443 C2442 1.502 . S
C2444 H2430 0.960 . S
C2444 H2431 0.961 . S
C2444 H2432 0.959 . S
C2444 C2442 1.561 . S
C2445 C2442 1.526 1_545 S
C2445 C2446 1.396 . S
C2445 C2450 1.390 . S
C2446 C2440 1.465 . S
C2446 C2445 1.396 . S
C2446 C2447 1.399 . S
C2447 H2433 0.929 . S
C2447 C2446 1.399 . S
C2447 C2448 1.385 . S
C2448 H2434 0.931 1_655 S
C2448 C2447 1.385 . S
C2448 C2449 1.389 1_655 S
C2449 C2448 1.389 1_455 S
C2449 C2450 1.387 1_455 S
C2450 H2435 0.892 1_545 S
C2450 C2445 1.390 . S
C2450 C2449 1.387 1_655 S
H2451 C2463 0.930 . S
H2452 C2465 0.930 . S
H2453 C2466 0.930 . S
H2454 C2470 0.959 . S
H2455 C2470 0.959 . S
H2456 C2470 0.961 . S
H2457 C2471 0.960 . S
H2458 C2471 0.961 . S
H2459 C2471 0.959 . S
H2460 C2474 0.929 . S
H2461 C2475 0.931 . S
H2462 C2477 0.930 . S
C2463 H2451 0.930 . S
C2463 C2464 1.399 . S
C2463 C2468 1.399 . S
C2464 C2463 1.399 . S
C2464 C2465 1.376 . S
C2465 H2452 0.930 . S
C2465 C2464 1.376 . S
C2465 C2466 1.388 . S
C2466 H2453 0.930 . S
C2466 C2465 1.388 . S
C2466 C2467 1.390 . S
C2467 C2466 1.390 . S
C2467 C2468 1.394 . S
C2467 C2473 1.465 . S
C2468 C2463 1.399 . S
C2468 C2467 1.394 . S
C2468 C2469 1.516 . S
C2469 C2468 1.516 . S
C2469 C2470 1.502 . S
C2469 C2471 1.561 . S
C2469 C2472 1.526 . S
C2470 H2454 0.959 . S
C2470 H2455 0.959 . S
C2470 H2456 0.961 . S
C2470 C2469 1.502 . S
C2471 H2457 0.960 . S
C2471 H2458 0.961 . S
C2471 H2459 0.959 . S
C2471 C2469 1.561 . S
C2472 C2469 1.526 . S
C2472 C2473 1.396 . S
C2472 C2477 1.390 . S
C2473 C2467 1.465 . S
C2473 C2472 1.396 . S
C2473 C2474 1.399 . S
C2474 H2460 0.929 . S
C2474 C2473 1.399 . S
C2474 C2475 1.385 . S
C2475 H2461 0.931 . S
C2475 C2474 1.385 . S
C2475 C2476 1.389 . S
C2476 C2475 1.389 . S
C2476 C2477 1.387 . S
C2477 H2462 0.930 . S
C2477 C2472 1.390 . S
C2477 C2476 1.387 . S
H2478 C2490 0.930 . S
H2479 C2492 0.930 . S
H2480 C2493 0.930 . S
H2481 C2497 0.959 . S
H2482 C2497 0.959 . S
H2483 C2497 0.961 . S
H2484 C2498 0.960 . S
H2485 C2498 0.961 . S
H2486 C2498 0.959 . S
H2487 C2501 0.929 1_565 S
H2488 C2502 0.934 1_565 S
H2489 C2504 0.930 . S
C2490 H2478 0.930 . S
C2490 C2491 1.399 . S
C2490 C2495 1.399 . S
C2491 C2490 1.399 . S
C2491 C2492 1.376 . S
C2492 H2479 0.930 . S
C2492 C2491 1.376 . S
C2492 C2493 1.388 . S
C2493 H2480 0.930 . S
C2493 C2492 1.388 . S
C2493 C2494 1.390 . S
C2494 C2493 1.390 . S
C2494 C2495 1.394 . S
C2494 C2500 1.465 . S
C2495 C2490 1.399 . S
C2495 C2494 1.394 . S
C2495 C2496 1.516 . S
C2496 C2495 1.516 . S
C2496 C2497 1.502 . S
C2496 C2498 1.561 . S
C2496 C2499 1.526 . S
C2497 H2481 0.959 . S
C2497 H2482 0.959 . S
C2497 H2483 0.961 . S
C2497 C2496 1.502 . S
C2498 H2484 0.960 . S
C2498 H2485 0.961 . S
C2498 H2486 0.959 . S
C2498 C2496 1.561 . S
C2499 C2496 1.526 . S
C2499 C2500 1.396 . S
C2499 C2504 1.390 . S
C2500 C2494 1.465 . S
C2500 C2499 1.396 . S
C2500 C2501 1.399 . S
C2501 H2487 0.929 1_545 S
C2501 C2500 1.399 . S
C2501 C2502 1.385 . S
C2502 H2488 0.934 1_545 S
C2502 C2501 1.385 . S
C2502 C2503 1.389 . S
C2503 C2502 1.389 . S
C2503 C2504 1.387 . S
C2504 H2489 0.930 . S
C2504 C2499 1.390 . S
C2504 C2503 1.387 . S
H2505 C2517 0.930 . S
H2506 C2519 0.930 . S
H2507 C2520 0.930 . S
H2508 C2524 0.959 . S
H2509 C2524 0.959 . S
H2510 C2524 0.961 . S
H2511 C2525 0.960 . S
H2512 C2525 0.961 . S
H2513 C2525 0.959 . S
H2514 C2528 0.929 . S
H2515 C2529 0.931 . S
H2516 C2531 0.930 . S
C2517 H2505 0.930 . S
C2517 C2518 1.399 . S
C2517 C2522 1.399 . S
C2518 C2517 1.399 . S
C2518 C2519 1.376 . S
C2519 H2506 0.930 . S
C2519 C2518 1.376 . S
C2519 C2520 1.388 . S
C2520 H2507 0.930 . S
C2520 C2519 1.388 . S
C2520 C2521 1.390 . S
C2521 C2520 1.390 . S
C2521 C2522 1.394 . S
C2521 C2527 1.465 . S
C2522 C2517 1.399 . S
C2522 C2521 1.394 . S
C2522 C2523 1.516 . S
C2523 C2522 1.516 . S
C2523 C2524 1.502 . S
C2523 C2525 1.561 . S
C2523 C2526 1.526 . S
C2524 H2508 0.959 . S
C2524 H2509 0.959 . S
C2524 H2510 0.961 . S
C2524 C2523 1.502 . S
C2525 H2511 0.960 . S
C2525 H2512 0.961 . S
C2525 H2513 0.959 . S
C2525 C2523 1.561 . S
C2526 C2523 1.526 . S
C2526 C2527 1.396 . S
C2526 C2531 1.390 . S
C2527 C2521 1.465 . S
C2527 C2526 1.396 . S
C2527 C2528 1.399 . S
C2528 H2514 0.929 . S
C2528 C2527 1.399 . S
C2528 C2529 1.385 . S
C2529 H2515 0.931 . S
C2529 C2528 1.385 . S
C2529 C2530 1.389 . S
C2530 C2529 1.389 . S
C2530 C2531 1.387 . S
C2531 H2516 0.930 . S
C2531 C2526 1.390 . S
C2531 C2530 1.387 . S
H2532 C2544 0.930 . S
H2533 C2546 0.943 . S
H2534 C2547 0.930 . S
H2535 C2551 0.959 . S
H2536 C2551 0.959 . S
H2537 C2551 0.961 . S
H2538 C2552 0.960 . S
H2539 C2552 0.961 . S
H2540 C2552 0.959 . S
H2541 C2555 0.929 . S
H2542 C2556 0.931 1_565 S
H2543 C2558 0.930 . S
C2544 H2532 0.930 . S
C2544 C2545 1.399 . S
C2544 C2549 1.399 . S
C2545 C2544 1.399 . S
C2545 C2546 1.357 1_545 S
C2546 H2533 0.943 . S
C2546 C2545 1.357 1_565 S
C2546 C2547 1.396 . S
C2547 H2534 0.930 . S
C2547 C2546 1.396 . S
C2547 C2548 1.390 1_565 S
C2548 C2547 1.390 1_545 S
C2548 C2549 1.394 . S
C2548 C2554 1.465 . S
C2549 C2544 1.399 . S
C2549 C2548 1.394 . S
C2549 C2550 1.516 . S
C2550 C2549 1.516 . S
C2550 C2551 1.502 1_655 S
C2550 C2552 1.561 . S
C2550 C2553 1.526 . S
C2551 H2535 0.959 . S
C2551 H2536 0.959 . S
C2551 H2537 0.961 . S
C2551 C2550 1.502 1_455 S
C2552 H2538 0.960 . S
C2552 H2539 0.961 . S
C2552 H2540 0.959 . S
C2552 C2550 1.561 . S
C2553 C2550 1.526 . S
C2553 C2554 1.396 . S
C2553 C2558 1.390 1_655 S
C2554 C2548 1.465 . S
C2554 C2553 1.396 . S
C2554 C2555 1.399 1_545 S
C2555 H2541 0.929 . S
C2555 C2554 1.399 1_565 S
C2555 C2556 1.385 1_565 S
C2556 H2542 0.931 1_545 S
C2556 C2555 1.385 1_545 S
C2556 C2557 1.389 1_655 S
C2557 C2556 1.389 1_455 S
C2557 C2558 1.387 . S
C2558 H2543 0.930 . S
C2558 C2553 1.390 1_455 S
C2558 C2557 1.387 . S
H2559 C2571 0.930 . S
H2560 C2573 0.930 . S
H2561 C2574 0.930 . S
H2562 C2578 0.959 . S
H2563 C2578 0.959 . S
H2564 C2578 0.961 . S
H2565 C2579 0.960 . S
H2566 C2579 0.961 . S
H2567 C2579 0.959 . S
H2568 C2582 0.929 . S
H2569 C2583 0.931 . S
H2570 C2585 0.930 . S
C2571 H2559 0.930 . S
C2571 C2572 1.399 . S
C2571 C2576 1.399 . S
C2572 C2571 1.399 . S
C2572 C2573 1.376 . S
C2573 H2560 0.930 . S
C2573 C2572 1.376 . S
C2573 C2574 1.388 . S
C2574 H2561 0.930 . S
C2574 C2573 1.388 . S
C2574 C2575 1.390 . S
C2575 C2574 1.390 . S
C2575 C2576 1.394 . S
C2575 C2581 1.465 . S
C2576 C2571 1.399 . S
C2576 C2575 1.394 . S
C2576 C2577 1.516 . S
C2577 C2576 1.516 . S
C2577 C2578 1.502 . S
C2577 C2579 1.561 . S
C2577 C2580 1.526 . S
C2578 H2562 0.959 . S
C2578 H2563 0.959 . S
C2578 H2564 0.961 . S
C2578 C2577 1.502 . S
C2579 H2565 0.960 . S
C2579 H2566 0.961 . S
C2579 H2567 0.959 . S
C2579 C2577 1.561 . S
C2580 C2577 1.526 . S
C2580 C2581 1.396 . S
C2580 C2585 1.390 . S
C2581 C2575 1.465 . S
C2581 C2580 1.396 . S
C2581 C2582 1.399 . S
C2582 H2568 0.929 . S
C2582 C2581 1.399 . S
C2582 C2583 1.385 . S
C2583 H2569 0.931 . S
C2583 C2582 1.385 . S
C2583 C2584 1.389 . S
C2584 C2583 1.389 . S
C2584 C2585 1.387 . S
C2585 H2570 0.930 . S
C2585 C2580 1.390 . S
C2585 C2584 1.387 . S
H2586 C2598 0.930 . S
H2587 C2600 0.930 . S
H2588 C2601 0.930 . S
H2589 C2605 0.959 . S
H2590 C2605 0.959 . S
H2591 C2605 0.961 . S
H2592 C2606 0.960 . S
H2593 C2606 0.961 . S
H2594 C2606 0.959 . S
H2595 C2609 0.929 . S
H2596 C2610 0.931 . S
H2597 C2612 0.930 . S
C2598 H2586 0.930 . S
C2598 C2599 1.399 . S
C2598 C2603 1.399 . S
C2599 C2598 1.399 . S
C2599 C2600 1.376 . S
C2600 H2587 0.930 . S
C2600 C2599 1.376 . S
C2600 C2601 1.388 . S
C2601 H2588 0.930 . S
C2601 C2600 1.388 . S
C2601 C2602 1.390 . S
C2602 C2601 1.390 . S
C2602 C2603 1.394 . S
C2602 C2608 1.465 . S
C2603 C2598 1.399 . S
C2603 C2602 1.394 . S
C2603 C2604 1.516 . S
C2604 C2603 1.516 . S
C2604 C2605 1.502 . S
C2604 C2606 1.561 . S
C2604 C2607 1.526 . S
C2605 H2589 0.959 . S
C2605 H2590 0.959 . S
C2605 H2591 0.961 . S
C2605 C2604 1.502 . S
C2606 H2592 0.960 . S
C2606 H2593 0.961 . S
C2606 H2594 0.959 . S
C2606 C2604 1.561 . S
C2607 C2604 1.526 . S
C2607 C2608 1.396 . S
C2607 C2612 1.390 . S
C2608 C2602 1.465 . S
C2608 C2607 1.396 . S
C2608 C2609 1.399 . S
C2609 H2595 0.929 . S
C2609 C2608 1.399 . S
C2609 C2610 1.385 . S
C2610 H2596 0.931 . S
C2610 C2609 1.385 . S
C2610 C2611 1.389 . S
C2611 C2610 1.389 . S
C2611 C2612 1.387 . S
C2612 H2597 0.930 . S
C2612 C2607 1.390 . S
C2612 C2611 1.387 . S
H2613 C2625 0.930 . S
H2614 C2627 0.930 . S
H2615 C2628 0.930 . S
H2616 C2632 0.959 . S
H2617 C2632 0.959 . S
H2618 C2632 0.961 . S
H2619 C2633 0.960 . S
H2620 C2633 0.961 . S
H2621 C2633 0.959 . S
H2622 C2636 0.929 . S
H2623 C2637 0.931 . S
H2624 C2639 0.930 . S
C2625 H2613 0.930 . S
C2625 C2626 1.399 . S
C2625 C2630 1.399 . S
C2626 C2625 1.399 . S
C2626 C2627 1.376 . S
C2627 H2614 0.930 . S
C2627 C2626 1.376 . S
C2627 C2628 1.388 . S
C2628 H2615 0.930 . S
C2628 C2627 1.388 . S
C2628 C2629 1.390 . S
C2629 C2628 1.390 . S
C2629 C2630 1.394 . S
C2629 C2635 1.465 . S
C2630 C2625 1.399 . S
C2630 C2629 1.394 . S
C2630 C2631 1.516 . S
C2631 C2630 1.516 . S
C2631 C2632 1.502 . S
C2631 C2633 1.561 . S
C2631 C2634 1.526 . S
C2632 H2616 0.959 . S
C2632 H2617 0.959 . S
C2632 H2618 0.961 . S
C2632 C2631 1.502 . S
C2633 H2619 0.960 . S
C2633 H2620 0.961 . S
C2633 H2621 0.959 . S
C2633 C2631 1.561 . S
C2634 C2631 1.526 . S
C2634 C2635 1.396 . S
C2634 C2639 1.390 . S
C2635 C2629 1.465 . S
C2635 C2634 1.396 . S
C2635 C2636 1.399 . S
C2636 H2622 0.929 . S
C2636 C2635 1.399 . S
C2636 C2637 1.385 . S
C2637 H2623 0.931 . S
C2637 C2636 1.385 . S
C2637 C2638 1.389 . S
C2638 C2637 1.389 . S
C2638 C2639 1.387 . S
C2639 H2624 0.930 . S
C2639 C2634 1.390 . S
C2639 C2638 1.387 . S
H2640 C2652 0.930 . S
H2641 C2654 0.930 . S
H2642 C2655 0.930 . S
H2643 C2659 0.959 . S
H2644 C2659 0.959 . S
H2645 C2659 0.961 . S
H2646 C2660 0.960 . S
H2647 C2660 0.961 . S
H2648 C2660 0.959 . S
H2649 C2663 0.929 1_556 S
H2650 C2664 0.931 . S
H2651 C2666 0.930 . S
C2652 H2640 0.930 . S
C2652 C2653 1.399 1_554 S
C2652 C2657 1.399 . S
C2653 C2652 1.399 1_556 S
C2653 C2654 1.376 . S
C2654 H2641 0.930 . S
C2654 C2653 1.376 . S
C2654 C2655 1.388 . S
C2655 H2642 0.930 . S
C2655 C2654 1.388 . S
C2655 C2656 1.390 1_556 S
C2656 C2655 1.390 1_554 S
C2656 C2657 1.394 . S
C2656 C2662 1.465 . S
C2657 C2652 1.399 . S
C2657 C2656 1.394 . S
C2657 C2658 1.516 . S
C2658 C2657 1.516 . S
C2658 C2659 1.502 . S
C2658 C2660 1.561 . S
C2658 C2661 1.526 . S
C2659 H2643 0.959 . S
C2659 H2644 0.959 . S
C2659 H2645 0.961 . S
C2659 C2658 1.502 . S
C2660 H2646 0.960 . S
C2660 H2647 0.961 . S
C2660 H2648 0.959 . S
C2660 C2658 1.561 . S
C2661 C2658 1.526 . S
C2661 C2662 1.396 . S
C2661 C2666 1.390 . S
C2662 C2656 1.465 . S
C2662 C2661 1.396 . S
C2662 C2663 1.399 1_565 S
C2663 H2649 0.929 1_554 S
C2663 C2662 1.399 1_545 S
C2663 C2664 1.385 . S
C2664 H2650 0.931 . S
C2664 C2663 1.385 . S
C2664 C2665 1.389 1_545 S
C2665 C2664 1.389 1_565 S
C2665 C2666 1.387 . S
C2666 H2651 0.930 . S
C2666 C2661 1.390 . S
C2666 C2665 1.387 . S
H2667 C2679 0.919 1_556 S
H2668 C2681 0.930 . S
H2669 C2682 0.930 . S
H2670 C2686 0.959 . S
H2671 C2686 0.959 . S
H2672 C2686 0.961 . S
H2673 C2687 0.960 1_556 S
H2674 C2687 0.961 1_556 S
H2675 C2687 0.959 . S
H2676 C2690 0.929 . S
H2677 C2691 0.931 . S
H2678 C2693 0.930 1_556 S
C2679 H2667 0.919 1_554 S
C2679 C2680 1.404 . S
C2679 C2684 1.404 . S
C2680 C2679 1.404 . S
C2680 C2681 1.376 . S
C2681 H2668 0.930 . S
C2681 C2680 1.376 . S
C2681 C2682 1.388 . S
C2682 H2669 0.930 . S
C2682 C2681 1.388 . S
C2682 C2683 1.390 . S
C2683 C2682 1.390 . S
C2683 C2684 1.394 . S
C2683 C2689 1.465 . S
C2684 C2679 1.404 . S
C2684 C2683 1.394 . S
C2684 C2685 1.516 1_554 S
C2685 C2684 1.516 1_556 S
C2685 C2686 1.502 . S
C2685 C2687 1.561 1_556 S
C2685 C2688 1.526 1_556 S
C2686 H2670 0.959 . S
C2686 H2671 0.959 . S
C2686 H2672 0.961 . S
C2686 C2685 1.502 . S
C2687 H2673 0.960 1_554 S
C2687 H2674 0.961 1_554 S
C2687 H2675 0.959 . S
C2687 C2685 1.561 1_554 S
C2688 C2685 1.526 1_554 S
C2688 C2689 1.396 . S
C2688 C2693 1.390 . S
C2689 C2683 1.465 . S
C2689 C2688 1.396 . S
C2689 C2690 1.399 . S
C2690 H2676 0.929 . S
C2690 C2689 1.399 . S
C2690 C2691 1.385 . S
C2691 H2677 0.931 . S
C2691 C2690 1.385 . S
C2691 C2692 1.389 . S
C2692 C2691 1.389 . S
C2692 C2693 1.387 . S
C2693 H2678 0.930 1_554 S
C2693 C2688 1.390 . S
C2693 C2692 1.387 . S
H2694 C2706 0.930 . S
H2695 C2708 0.930 . S
H2696 C2709 0.930 . S
H2697 C2713 0.959 . S
H2698 C2713 0.959 . S
H2699 C2713 0.961 . S
H2700 C2714 0.960 . S
H2701 C2714 0.961 . S
H2702 C2714 0.959 . S
H2703 C2717 0.929 . S
H2704 C2718 0.931 . S
H2705 C2720 0.930 . S
C2706 H2694 0.930 . S
C2706 C2707 1.399 . S
C2706 C2711 1.399 . S
C2707 C2706 1.399 . S
C2707 C2708 1.376 . S
C2708 H2695 0.930 . S
C2708 C2707 1.376 . S
C2708 C2709 1.388 . S
C2709 H2696 0.930 . S
C2709 C2708 1.388 . S
C2709 C2710 1.390 . S
C2710 C2709 1.390 . S
C2710 C2711 1.394 . S
C2710 C2716 1.465 . S
C2711 C2706 1.399 . S
C2711 C2710 1.394 . S
C2711 C2712 1.516 . S
C2712 C2711 1.516 . S
C2712 C2713 1.502 . S
C2712 C2714 1.561 . S
C2712 C2715 1.526 . S
C2713 H2697 0.959 . S
C2713 H2698 0.959 . S
C2713 H2699 0.961 . S
C2713 C2712 1.502 . S
C2714 H2700 0.960 . S
C2714 H2701 0.961 . S
C2714 H2702 0.959 . S
C2714 C2712 1.561 . S
C2715 C2712 1.526 . S
C2715 C2716 1.396 . S
C2715 C2720 1.390 . S
C2716 C2710 1.465 . S
C2716 C2715 1.396 . S
C2716 C2717 1.399 . S
C2717 H2703 0.929 . S
C2717 C2716 1.399 . S
C2717 C2718 1.385 . S
C2718 H2704 0.931 . S
C2718 C2717 1.385 . S
C2718 C2719 1.389 . S
C2719 C2718 1.389 . S
C2719 C2720 1.387 . S
C2720 H2705 0.930 . S
C2720 C2715 1.390 . S
C2720 C2719 1.387 . S
H2721 C2733 0.930 . S
H2722 C2735 0.930 . S
H2723 C2736 0.930 . S
H2724 C2740 0.959 . S
H2725 C2740 0.959 . S
H2726 C2740 0.961 . S
H2727 C2741 0.960 . S
H2728 C2741 0.961 . S
H2729 C2741 0.959 . S
H2730 C2744 0.929 . S
H2731 C2745 0.931 . S
H2732 C2747 0.930 . S
C2733 H2721 0.930 . S
C2733 C2734 1.399 . S
C2733 C2738 1.399 . S
C2734 C2733 1.399 . S
C2734 C2735 1.376 . S
C2735 H2722 0.930 . S
C2735 C2734 1.376 . S
C2735 C2736 1.388 . S
C2736 H2723 0.930 . S
C2736 C2735 1.388 . S
C2736 C2737 1.390 . S
C2737 C2736 1.390 . S
C2737 C2738 1.394 . S
C2737 C2743 1.465 . S
C2738 C2733 1.399 . S
C2738 C2737 1.394 . S
C2738 C2739 1.516 . S
C2739 C2738 1.516 . S
C2739 C2740 1.502 . S
C2739 C2741 1.561 . S
C2739 C2742 1.526 . S
C2740 H2724 0.959 . S
C2740 H2725 0.959 . S
C2740 H2726 0.961 . S
C2740 C2739 1.502 . S
C2741 H2727 0.960 . S
C2741 H2728 0.961 . S
C2741 H2729 0.959 . S
C2741 C2739 1.561 . S
C2742 C2739 1.526 . S
C2742 C2743 1.396 . S
C2742 C2747 1.390 . S
C2743 C2737 1.465 . S
C2743 C2742 1.396 . S
C2743 C2744 1.399 . S
C2744 H2730 0.929 . S
C2744 C2743 1.399 . S
C2744 C2745 1.385 . S
C2745 H2731 0.931 . S
C2745 C2744 1.385 . S
C2745 C2746 1.389 . S
C2746 C2745 1.389 . S
C2746 C2747 1.387 . S
C2747 H2732 0.930 . S
C2747 C2742 1.390 . S
C2747 C2746 1.387 . S
H2748 C2760 0.930 . S
H2749 C2762 0.930 . S
H2750 C2763 0.930 . S
H2751 C2767 0.959 . S
H2752 C2767 0.959 . S
H2753 C2767 0.961 . S
H2754 C2768 0.960 . S
H2755 C2768 0.961 . S
H2756 C2768 0.959 . S
H2757 C2771 0.929 . S
H2758 C2772 0.931 . S
H2759 C2774 0.930 . S
C2760 H2748 0.930 . S
C2760 C2761 1.399 . S
C2760 C2765 1.399 . S
C2761 C2760 1.399 . S
C2761 C2762 1.376 . S
C2762 H2749 0.930 . S
C2762 C2761 1.376 . S
C2762 C2763 1.388 . S
C2763 H2750 0.930 . S
C2763 C2762 1.388 . S
C2763 C2764 1.390 . S
C2764 C2763 1.390 . S
C2764 C2765 1.394 . S
C2764 C2770 1.465 . S
C2765 C2760 1.399 . S
C2765 C2764 1.394 . S
C2765 C2766 1.516 . S
C2766 C2765 1.516 . S
C2766 C2767 1.502 . S
C2766 C2768 1.561 . S
C2766 C2769 1.526 . S
C2767 H2751 0.959 . S
C2767 H2752 0.959 . S
C2767 H2753 0.961 . S
C2767 C2766 1.502 . S
C2768 H2754 0.960 . S
C2768 H2755 0.961 . S
C2768 H2756 0.959 . S
C2768 C2766 1.561 . S
C2769 C2766 1.526 . S
C2769 C2770 1.396 . S
C2769 C2774 1.390 . S
C2770 C2764 1.465 . S
C2770 C2769 1.396 . S
C2770 C2771 1.399 . S
C2771 H2757 0.929 . S
C2771 C2770 1.399 . S
C2771 C2772 1.385 . S
C2772 H2758 0.931 . S
C2772 C2771 1.385 . S
C2772 C2773 1.389 . S
C2773 C2772 1.389 . S
C2773 C2774 1.387 . S
C2774 H2759 0.930 . S
C2774 C2769 1.390 . S
C2774 C2773 1.387 . S
H2775 C2787 0.930 . S
H2776 C2789 0.930 . S
H2777 C2790 0.930 . S
H2778 C2794 0.959 . S
H2779 C2794 0.959 . S
H2780 C2794 0.961 . S
H2781 C2795 0.960 . S
H2782 C2795 0.961 . S
H2783 C2795 0.959 . S
H2784 C2798 0.929 . S
H2785 C2799 0.931 . S
H2786 C2801 0.930 . S
C2787 H2775 0.930 . S
C2787 C2788 1.399 . S
C2787 C2792 1.399 . S
C2788 C2787 1.399 . S
C2788 C2789 1.376 . S
C2789 H2776 0.930 . S
C2789 C2788 1.376 . S
C2789 C2790 1.388 . S
C2790 H2777 0.930 . S
C2790 C2789 1.388 . S
C2790 C2791 1.390 . S
C2791 C2790 1.390 . S
C2791 C2792 1.394 . S
C2791 C2797 1.465 . S
C2792 C2787 1.399 . S
C2792 C2791 1.394 . S
C2792 C2793 1.516 . S
C2793 C2792 1.516 . S
C2793 C2794 1.502 . S
C2793 C2795 1.561 . S
C2793 C2796 1.526 . S
C2794 H2778 0.959 . S
C2794 H2779 0.959 . S
C2794 H2780 0.961 . S
C2794 C2793 1.502 . S
C2795 H2781 0.960 . S
C2795 H2782 0.961 . S
C2795 H2783 0.959 . S
C2795 C2793 1.561 . S
C2796 C2793 1.526 . S
C2796 C2797 1.396 . S
C2796 C2801 1.390 . S
C2797 C2791 1.465 . S
C2797 C2796 1.396 . S
C2797 C2798 1.399 . S
C2798 H2784 0.929 . S
C2798 C2797 1.399 . S
C2798 C2799 1.385 . S
C2799 H2785 0.931 . S
C2799 C2798 1.385 . S
C2799 C2800 1.389 . S
C2800 C2799 1.389 . S
C2800 C2801 1.387 . S
C2801 H2786 0.930 . S
C2801 C2796 1.390 . S
C2801 C2800 1.387 . S
H2802 C2814 0.930 . S
H2803 C2816 0.930 . S
H2804 C2817 0.930 . S
H2805 C2821 0.959 . S
H2806 C2821 0.959 . S
H2807 C2821 0.961 . S
H2808 C2822 0.960 . S
H2809 C2822 0.961 . S
H2810 C2822 0.959 . S
H2811 C2825 0.929 . S
H2812 C2826 0.931 . S
H2813 C2828 0.930 . S
C2814 H2802 0.930 . S
C2814 C2815 1.399 . S
C2814 C2819 1.399 . S
C2815 C2814 1.399 . S
C2815 C2816 1.376 . S
C2816 H2803 0.930 . S
C2816 C2815 1.376 . S
C2816 C2817 1.388 . S
C2817 H2804 0.930 . S
C2817 C2816 1.388 . S
C2817 C2818 1.390 . S
C2818 C2817 1.390 . S
C2818 C2819 1.394 . S
C2818 C2824 1.465 . S
C2819 C2814 1.399 . S
C2819 C2818 1.394 . S
C2819 C2820 1.516 . S
C2820 C2819 1.516 . S
C2820 C2821 1.502 . S
C2820 C2822 1.561 . S
C2820 C2823 1.526 . S
C2821 H2805 0.959 . S
C2821 H2806 0.959 . S
C2821 H2807 0.961 . S
C2821 C2820 1.502 . S
C2822 H2808 0.960 . S
C2822 H2809 0.961 . S
C2822 H2810 0.959 . S
C2822 C2820 1.561 . S
C2823 C2820 1.526 . S
C2823 C2824 1.396 . S
C2823 C2828 1.390 . S
C2824 C2818 1.465 . S
C2824 C2823 1.396 . S
C2824 C2825 1.399 . S
C2825 H2811 0.929 . S
C2825 C2824 1.399 . S
C2825 C2826 1.385 . S
C2826 H2812 0.931 . S
C2826 C2825 1.385 . S
C2826 C2827 1.389 . S
C2827 C2826 1.389 . S
C2827 C2828 1.387 . S
C2828 H2813 0.930 . S
C2828 C2823 1.390 . S
C2828 C2827 1.387 . S
H2829 C2841 0.930 . S
H2830 C2843 0.930 . S
H2831 C2844 0.930 . S
H2832 C2848 0.959 . S
H2833 C2848 0.959 . S
H2834 C2848 0.961 . S
H2835 C2849 0.960 . S
H2836 C2849 0.961 . S
H2837 C2849 0.959 . S
H2838 C2852 0.929 . S
H2839 C2853 0.931 . S
H2840 C2855 0.930 . S
C2841 H2829 0.930 . S
C2841 C2842 1.399 . S
C2841 C2846 1.399 . S
C2842 C2841 1.399 . S
C2842 C2843 1.376 . S
C2843 H2830 0.930 . S
C2843 C2842 1.376 . S
C2843 C2844 1.388 . S
C2844 H2831 0.930 . S
C2844 C2843 1.388 . S
C2844 C2845 1.390 . S
C2845 C2844 1.390 . S
C2845 C2846 1.394 . S
C2845 C2851 1.465 . S
C2846 C2841 1.399 . S
C2846 C2845 1.394 . S
C2846 C2847 1.516 . S
C2847 C2846 1.516 . S
C2847 C2848 1.502 . S
C2847 C2849 1.561 . S
C2847 C2850 1.526 . S
C2848 H2832 0.959 . S
C2848 H2833 0.959 . S
C2848 H2834 0.961 . S
C2848 C2847 1.502 . S
C2849 H2835 0.960 . S
C2849 H2836 0.961 . S
C2849 H2837 0.959 . S
C2849 C2847 1.561 . S
C2850 C2847 1.526 . S
C2850 C2851 1.396 . S
C2850 C2855 1.390 . S
C2851 C2845 1.465 . S
C2851 C2850 1.396 . S
C2851 C2852 1.399 . S
C2852 H2838 0.929 . S
C2852 C2851 1.399 . S
C2852 C2853 1.385 . S
C2853 H2839 0.931 . S
C2853 C2852 1.385 . S
C2853 C2854 1.389 . S
C2854 C2853 1.389 . S
C2854 C2855 1.387 . S
C2855 H2840 0.930 . S
C2855 C2850 1.390 . S
C2855 C2854 1.387 . S
H2856 C2868 0.930 . S
H2857 C2870 0.930 . S
H2858 C2871 0.930 . S
H2859 C2875 0.960 1_655 S
H2860 C2875 0.959 1_655 S
H2861 C2875 0.961 1_655 S
H2862 C2876 0.960 . S
H2863 C2876 0.961 . S
H2864 C2876 0.959 . S
H2865 C2879 0.929 . S
H2866 C2880 0.931 . S
H2867 C2882 0.930 . S
C2868 H2856 0.930 . S
C2868 C2869 1.399 . S
C2868 C2873 1.399 . S
C2869 C2868 1.399 . S
C2869 C2870 1.376 . S
C2870 H2857 0.930 . S
C2870 C2869 1.376 . S
C2870 C2871 1.388 . S
C2871 H2858 0.930 . S
C2871 C2870 1.388 . S
C2871 C2872 1.390 . S
C2872 C2871 1.390 . S
C2872 C2873 1.394 . S
C2872 C2878 1.465 . S
C2873 C2868 1.399 . S
C2873 C2872 1.394 . S
C2873 C2874 1.516 . S
C2874 C2873 1.516 . S
C2874 C2875 1.502 . S
C2874 C2876 1.561 . S
C2874 C2877 1.526 . S
C2875 H2859 0.960 1_455 S
C2875 H2860 0.959 1_455 S
C2875 H2861 0.961 1_455 S
C2875 C2874 1.502 . S
C2876 H2862 0.960 . S
C2876 H2863 0.961 . S
C2876 H2864 0.959 . S
C2876 C2874 1.561 . S
C2877 C2874 1.526 . S
C2877 C2878 1.396 . S
C2877 C2882 1.390 . S
C2878 C2872 1.465 . S
C2878 C2877 1.396 . S
C2878 C2879 1.399 . S
C2879 H2865 0.929 . S
C2879 C2878 1.399 . S
C2879 C2880 1.385 . S
C2880 H2866 0.931 . S
C2880 C2879 1.385 . S
C2880 C2881 1.389 . S
C2881 C2880 1.389 . S
C2881 C2882 1.387 . S
C2882 H2867 0.930 . S
C2882 C2877 1.390 . S
C2882 C2881 1.387 . S
H2883 C2895 0.930 . S
H2884 C2897 0.930 . S
H2885 C2898 0.930 . S
H2886 C2902 0.959 . S
H2887 C2902 0.959 . S
H2888 C2902 0.961 . S
H2889 C2903 0.960 . S
H2890 C2903 0.961 . S
H2891 C2903 0.959 . S
H2892 C2906 0.929 . S
H2893 C2907 0.931 . S
H2894 C2909 0.930 . S
C2895 H2883 0.930 . S
C2895 C2896 1.399 . S
C2895 C2900 1.399 . S
C2896 C2895 1.399 . S
C2896 C2897 1.376 . S
C2897 H2884 0.930 . S
C2897 C2896 1.376 . S
C2897 C2898 1.388 . S
C2898 H2885 0.930 . S
C2898 C2897 1.388 . S
C2898 C2899 1.390 . S
C2899 C2898 1.390 . S
C2899 C2900 1.394 . S
C2899 C2905 1.465 . S
C2900 C2895 1.399 . S
C2900 C2899 1.394 . S
C2900 C2901 1.516 . S
C2901 C2900 1.516 . S
C2901 C2902 1.502 . S
C2901 C2903 1.561 . S
C2901 C2904 1.526 . S
C2902 H2886 0.959 . S
C2902 H2887 0.959 . S
C2902 H2888 0.961 . S
C2902 C2901 1.502 . S
C2903 H2889 0.960 . S
C2903 H2890 0.961 . S
C2903 H2891 0.959 . S
C2903 C2901 1.561 . S
C2904 C2901 1.526 . S
C2904 C2905 1.396 . S
C2904 C2909 1.390 . S
C2905 C2899 1.465 . S
C2905 C2904 1.396 . S
C2905 C2906 1.399 . S
C2906 H2892 0.929 . S
C2906 C2905 1.399 . S
C2906 C2907 1.385 . S
C2907 H2893 0.931 . S
C2907 C2906 1.385 . S
C2907 C2908 1.389 . S
C2908 C2907 1.389 . S
C2908 C2909 1.387 . S
C2909 H2894 0.930 . S
C2909 C2904 1.390 . S
C2909 C2908 1.387 . S
H2910 C2922 0.930 . S
H2911 C2924 0.930 . S
H2912 C2925 0.930 . S
H2913 C2929 0.959 . S
H2914 C2929 0.959 . S
H2915 C2929 0.961 . S
H2916 C2930 0.960 . S
H2917 C2930 0.961 . S
H2918 C2930 0.959 . S
H2919 C2933 0.929 . S
H2920 C2934 0.931 . S
H2921 C2936 0.930 . S
C2922 H2910 0.930 . S
C2922 C2923 1.399 . S
C2922 C2927 1.399 . S
C2923 C2922 1.399 . S
C2923 C2924 1.376 . S
C2924 H2911 0.930 . S
C2924 C2923 1.376 . S
C2924 C2925 1.388 . S
C2925 H2912 0.930 . S
C2925 C2924 1.388 . S
C2925 C2926 1.390 . S
C2926 C2925 1.390 . S
C2926 C2927 1.394 . S
C2926 C2932 1.465 . S
C2927 C2922 1.399 . S
C2927 C2926 1.394 . S
C2927 C2928 1.516 . S
C2928 C2927 1.516 . S
C2928 C2929 1.502 . S
C2928 C2930 1.561 . S
C2928 C2931 1.526 . S
C2929 H2913 0.959 . S
C2929 H2914 0.959 . S
C2929 H2915 0.961 . S
C2929 C2928 1.502 . S
C2930 H2916 0.960 . S
C2930 H2917 0.961 . S
C2930 H2918 0.959 . S
C2930 C2928 1.561 . S
C2931 C2928 1.526 . S
C2931 C2932 1.396 . S
C2931 C2936 1.390 . S
C2932 C2926 1.465 . S
C2932 C2931 1.396 . S
C2932 C2933 1.399 . S
C2933 H2919 0.929 . S
C2933 C2932 1.399 . S
C2933 C2934 1.385 . S
C2934 H2920 0.931 . S
C2934 C2933 1.385 . S
C2934 C2935 1.389 . S
C2935 C2934 1.389 . S
C2935 C2936 1.387 . S
C2936 H2921 0.930 . S
C2936 C2931 1.390 . S
C2936 C2935 1.387 . S
H2937 C2949 0.930 . S
H2938 C2951 0.930 . S
H2939 C2952 0.930 . S
H2940 C2956 0.959 . S
H2941 C2956 0.959 . S
H2942 C2956 0.961 . S
H2943 C2957 0.960 . S
H2944 C2957 0.961 . S
H2945 C2957 0.959 . S
H2946 C2960 0.929 . S
H2947 C2961 0.931 . S
H2948 C2963 0.930 . S
C2949 H2937 0.930 . S
C2949 C2950 1.399 . S
C2949 C2954 1.399 . S
C2950 C2949 1.399 . S
C2950 C2951 1.376 . S
C2951 H2938 0.930 . S
C2951 C2950 1.376 . S
C2951 C2952 1.388 . S
C2952 H2939 0.930 . S
C2952 C2951 1.388 . S
C2952 C2953 1.390 . S
C2953 C2952 1.390 . S
C2953 C2954 1.394 . S
C2953 C2959 1.465 . S
C2954 C2949 1.399 . S
C2954 C2953 1.394 . S
C2954 C2955 1.516 . S
C2955 C2954 1.516 . S
C2955 C2956 1.502 . S
C2955 C2957 1.561 . S
C2955 C2958 1.526 . S
C2956 H2940 0.959 . S
C2956 H2941 0.959 . S
C2956 H2942 0.961 . S
C2956 C2955 1.502 . S
C2957 H2943 0.960 . S
C2957 H2944 0.961 . S
C2957 H2945 0.959 . S
C2957 C2955 1.561 . S
C2958 C2955 1.526 . S
C2958 C2959 1.396 . S
C2958 C2963 1.390 . S
C2959 C2953 1.465 . S
C2959 C2958 1.396 . S
C2959 C2960 1.399 . S
C2960 H2946 0.929 . S
C2960 C2959 1.399 . S
C2960 C2961 1.385 . S
C2961 H2947 0.931 . S
C2961 C2960 1.385 . S
C2961 C2962 1.389 . S
C2962 C2961 1.389 . S
C2962 C2963 1.387 . S
C2963 H2948 0.930 . S
C2963 C2958 1.390 . S
C2963 C2962 1.387 . S
H2964 C2976 0.930 . S
H2965 C2978 0.930 1_655 S
H2966 C2979 0.930 1_655 S
H2967 C2983 0.959 . S
H2968 C2983 0.959 . S
H2969 C2983 0.961 . S
H2970 C2984 0.960 . S
H2971 C2984 0.961 . S
H2972 C2984 0.959 . S
H2973 C2987 0.931 . S
H2974 C2988 0.931 1_655 S
H2975 C2990 0.930 . S
C2976 H2964 0.930 . S
C2976 C2977 1.399 . S
C2976 C2981 1.399 . S
C2977 C2976 1.399 . S
C2977 C2978 1.376 . S
C2978 H2965 0.930 1_455 S
C2978 C2977 1.376 . S
C2978 C2979 1.388 . S
C2979 H2966 0.930 1_455 S
C2979 C2978 1.388 . S
C2979 C2980 1.390 . S
C2980 C2979 1.390 . S
C2980 C2981 1.394 . S
C2980 C2986 1.465 . S
C2981 C2976 1.399 . S
C2981 C2980 1.394 . S
C2981 C2982 1.516 . S
C2982 C2981 1.516 . S
C2982 C2983 1.502 . S
C2982 C2984 1.561 . S
C2982 C2985 1.526 . S
C2983 H2967 0.959 . S
C2983 H2968 0.959 . S
C2983 H2969 0.961 . S
C2983 C2982 1.502 . S
C2984 H2970 0.960 . S
C2984 H2971 0.961 . S
C2984 H2972 0.959 . S
C2984 C2982 1.561 . S
C2985 C2982 1.526 . S
C2985 C2986 1.396 . S
C2985 C2990 1.390 . S
C2986 C2980 1.465 . S
C2986 C2985 1.396 . S
C2986 C2987 1.398 1_455 S
C2987 H2973 0.931 . S
C2987 C2986 1.398 1_655 S
C2987 C2988 1.385 1_655 S
C2988 H2974 0.931 1_455 S
C2988 C2987 1.385 1_455 S
C2988 C2989 1.389 . S
C2989 C2988 1.389 . S
C2989 C2990 1.387 . S
C2990 H2975 0.930 . S
C2990 C2985 1.390 . S
C2990 C2989 1.387 . S
H2991 C3003 0.930 . S
H2992 C3005 0.930 . S
H2993 C3006 0.930 . S
H2994 C3010 0.959 . S
H2995 C3010 0.959 . S
H2996 C3010 0.961 . S
H2997 C3011 0.960 . S
H2998 C3011 0.961 . S
H2999 C3011 0.959 . S
H3000 C3014 0.929 . S
H3001 C3015 0.931 . S
H3002 C3017 0.930 . S
C3003 H2991 0.930 . S
C3003 C3004 1.399 . S
C3003 C3008 1.399 . S
C3004 C3003 1.399 . S
C3004 C3005 1.376 . S
C3005 H2992 0.930 . S
C3005 C3004 1.376 . S
C3005 C3006 1.388 . S
C3006 H2993 0.930 . S
C3006 C3005 1.388 . S
C3006 C3007 1.390 . S
C3007 C3006 1.390 . S
C3007 C3008 1.394 . S
C3007 C3013 1.465 . S
C3008 C3003 1.399 . S
C3008 C3007 1.394 . S
C3008 C3009 1.516 . S
C3009 C3008 1.516 . S
C3009 C3010 1.502 . S
C3009 C3011 1.561 . S
C3009 C3012 1.526 . S
C3010 H2994 0.959 . S
C3010 H2995 0.959 . S
C3010 H2996 0.961 . S
C3010 C3009 1.502 . S
C3011 H2997 0.960 . S
C3011 H2998 0.961 . S
C3011 H2999 0.959 . S
C3011 C3009 1.561 . S
C3012 C3009 1.526 . S
C3012 C3013 1.396 . S
C3012 C3017 1.390 . S
C3013 C3007 1.465 . S
C3013 C3012 1.396 . S
C3013 C3014 1.399 . S
C3014 H3000 0.929 . S
C3014 C3013 1.399 . S
C3014 C3015 1.385 . S
C3015 H3001 0.931 . S
C3015 C3014 1.385 . S
C3015 C3016 1.389 . S
C3016 C3015 1.389 . S
C3016 C3017 1.387 . S
C3017 H3002 0.930 . S
C3017 C3012 1.390 . S
C3017 C3016 1.387 . S
H3018 C3030 0.930 . S
H3019 C3032 0.930 . S
H3020 C3033 0.930 . S
H3021 C3037 0.959 . S
H3022 C3037 0.959 . S
H3023 C3037 0.961 . S
H3024 C3038 0.960 . S
H3025 C3038 0.961 . S
H3026 C3038 0.959 . S
H3027 C3041 0.929 . S
H3028 C3042 0.931 . S
H3029 C3044 0.930 . S
C3030 H3018 0.930 . S
C3030 C3031 1.399 . S
C3030 C3035 1.399 . S
C3031 C3030 1.399 . S
C3031 C3032 1.376 . S
C3032 H3019 0.930 . S
C3032 C3031 1.376 . S
C3032 C3033 1.388 . S
C3033 H3020 0.930 . S
C3033 C3032 1.388 . S
C3033 C3034 1.390 . S
C3034 C3033 1.390 . S
C3034 C3035 1.394 . S
C3034 C3040 1.465 . S
C3035 C3030 1.399 . S
C3035 C3034 1.394 . S
C3035 C3036 1.516 . S
C3036 C3035 1.516 . S
C3036 C3037 1.502 . S
C3036 C3038 1.561 . S
C3036 C3039 1.526 . S
C3037 H3021 0.959 . S
C3037 H3022 0.959 . S
C3037 H3023 0.961 . S
C3037 C3036 1.502 . S
C3038 H3024 0.960 . S
C3038 H3025 0.961 . S
C3038 H3026 0.959 . S
C3038 C3036 1.561 . S
C3039 C3036 1.526 . S
C3039 C3040 1.396 . S
C3039 C3044 1.390 . S
C3040 C3034 1.465 . S
C3040 C3039 1.396 . S
C3040 C3041 1.399 . S
C3041 H3027 0.929 . S
C3041 C3040 1.399 . S
C3041 C3042 1.385 . S
C3042 H3028 0.931 . S
C3042 C3041 1.385 . S
C3042 C3043 1.389 . S
C3043 C3042 1.389 . S
C3043 C3044 1.387 . S
C3044 H3029 0.930 . S
C3044 C3039 1.390 . S
C3044 C3043 1.387 . S
H3045 C3057 0.930 . S
H3046 C3059 0.930 . S
H3047 C3060 0.930 . S
H3048 C3064 0.959 . S
H3049 C3064 0.959 . S
H3050 C3064 0.961 . S
H3051 C3065 0.960 . S
H3052 C3065 0.961 . S
H3053 C3065 0.959 . S
H3054 C3068 0.929 . S
H3055 C3069 0.931 . S
H3056 C3071 0.930 . S
C3057 H3045 0.930 . S
C3057 C3058 1.399 . S
C3057 C3062 1.399 . S
C3058 C3057 1.399 . S
C3058 C3059 1.376 . S
C3059 H3046 0.930 . S
C3059 C3058 1.376 . S
C3059 C3060 1.388 . S
C3060 H3047 0.930 . S
C3060 C3059 1.388 . S
C3060 C3061 1.390 . S
C3061 C3060 1.390 . S
C3061 C3062 1.394 . S
C3061 C3067 1.465 . S
C3062 C3057 1.399 . S
C3062 C3061 1.394 . S
C3062 C3063 1.516 . S
C3063 C3062 1.516 . S
C3063 C3064 1.502 . S
C3063 C3065 1.561 . S
C3063 C3066 1.526 . S
C3064 H3048 0.959 . S
C3064 H3049 0.959 . S
C3064 H3050 0.961 . S
C3064 C3063 1.502 . S
C3065 H3051 0.960 . S
C3065 H3052 0.961 . S
C3065 H3053 0.959 . S
C3065 C3063 1.561 . S
C3066 C3063 1.526 . S
C3066 C3067 1.396 . S
C3066 C3071 1.390 . S
C3067 C3061 1.465 . S
C3067 C3066 1.396 . S
C3067 C3068 1.399 . S
C3068 H3054 0.929 . S
C3068 C3067 1.399 . S
C3068 C3069 1.385 . S
C3069 H3055 0.931 . S
C3069 C3068 1.385 . S
C3069 C3070 1.389 . S
C3070 C3069 1.389 . S
C3070 C3071 1.387 . S
C3071 H3056 0.930 . S
C3071 C3066 1.390 . S
C3071 C3070 1.387 . S
H3072 C3084 0.930 . S
H3073 C3086 0.930 . S
H3074 C3087 0.930 . S
H3075 C3091 0.959 . S
H3076 C3091 0.959 . S
H3077 C3091 0.961 . S
H3078 C3092 0.960 . S
H3079 C3092 0.961 . S
H3080 C3092 0.959 1_545 S
H3081 C3095 0.929 . S
H3082 C3096 0.931 . S
H3083 C3098 0.930 1_565 S
C3084 H3072 0.930 . S
C3084 C3085 1.399 . S
C3084 C3089 1.399 . S
C3085 C3084 1.399 . S
C3085 C3086 1.376 . S
C3086 H3073 0.930 . S
C3086 C3085 1.376 . S
C3086 C3087 1.388 . S
C3087 H3074 0.930 . S
C3087 C3086 1.388 . S
C3087 C3088 1.390 . S
C3088 C3087 1.390 . S
C3088 C3089 1.394 . S
C3088 C3094 1.465 . S
C3089 C3084 1.399 . S
C3089 C3088 1.394 . S
C3089 C3090 1.516 . S
C3090 C3089 1.516 . S
C3090 C3091 1.502 1_545 S
C3090 C3092 1.561 1_545 S
C3090 C3093 1.526 . S
C3091 H3075 0.959 . S
C3091 H3076 0.959 . S
C3091 H3077 0.961 . S
C3091 C3090 1.502 1_565 S
C3092 H3078 0.960 . S
C3092 H3079 0.961 . S
C3092 H3080 0.959 1_565 S
C3092 C3090 1.561 1_565 S
C3093 C3090 1.526 . S
C3093 C3094 1.396 . S
C3093 C3098 1.390 . S
C3094 C3088 1.465 . S
C3094 C3093 1.396 . S
C3094 C3095 1.399 . S
C3095 H3081 0.929 . S
C3095 C3094 1.399 . S
C3095 C3096 1.385 . S
C3096 H3082 0.931 . S
C3096 C3095 1.385 . S
C3096 C3097 1.389 . S
C3097 C3096 1.389 . S
C3097 C3098 1.387 . S
C3098 H3083 0.930 1_545 S
C3098 C3093 1.390 . S
C3098 C3097 1.387 . S
H3099 C3111 0.930 . S
H3100 C3113 0.930 . S
H3101 C3114 0.930 . S
H3102 C3118 0.959 . S
H3103 C3118 0.959 . S
H3104 C3118 0.961 . S
H3105 C3119 0.960 . S
H3106 C3119 0.961 . S
H3107 C3119 0.959 . S
H3108 C3122 0.929 . S
H3109 C3123 0.931 . S
H3110 C3125 0.930 . S
C3111 H3099 0.930 . S
C3111 C3112 1.399 . S
C3111 C3116 1.399 . S
C3112 C3111 1.399 . S
C3112 C3113 1.376 . S
C3113 H3100 0.930 . S
C3113 C3112 1.376 . S
C3113 C3114 1.388 . S
C3114 H3101 0.930 . S
C3114 C3113 1.388 . S
C3114 C3115 1.390 . S
C3115 C3114 1.390 . S
C3115 C3116 1.394 . S
C3115 C3121 1.465 . S
C3116 C3111 1.399 . S
C3116 C3115 1.394 . S
C3116 C3117 1.516 . S
C3117 C3116 1.516 . S
C3117 C3118 1.502 . S
C3117 C3119 1.561 . S
C3117 C3120 1.526 . S
C3118 H3102 0.959 . S
C3118 H3103 0.959 . S
C3118 H3104 0.961 . S
C3118 C3117 1.502 . S
C3119 H3105 0.960 . S
C3119 H3106 0.961 . S
C3119 H3107 0.959 . S
C3119 C3117 1.561 . S
C3120 C3117 1.526 . S
C3120 C3121 1.396 . S
C3120 C3125 1.390 . S
C3121 C3115 1.465 . S
C3121 C3120 1.396 . S
C3121 C3122 1.399 . S
C3122 H3108 0.929 . S
C3122 C3121 1.399 . S
C3122 C3123 1.385 . S
C3123 H3109 0.931 . S
C3123 C3122 1.385 . S
C3123 C3124 1.389 . S
C3124 C3123 1.389 . S
C3124 C3125 1.387 . S
C3125 H3110 0.930 . S
C3125 C3120 1.390 . S
C3125 C3124 1.387 . S
H3126 C3138 0.930 1_565 S
H3127 C3140 0.930 . S
H3128 C3141 0.930 . S
H3129 C3145 0.959 . S
H3130 C3145 0.959 . S
H3131 C3145 0.961 . S
H3132 C3146 0.960 . S
H3133 C3146 0.961 . S
H3134 C3146 0.959 . S
H3135 C3149 0.929 . S
H3136 C3150 0.931 . S
H3137 C3152 0.930 . S
C3138 H3126 0.930 1_545 S
C3138 C3139 1.399 . S
C3138 C3143 1.399 . S
C3139 C3138 1.399 . S
C3139 C3140 1.376 . S
C3140 H3127 0.930 . S
C3140 C3139 1.376 . S
C3140 C3141 1.388 . S
C3141 H3128 0.930 . S
C3141 C3140 1.388 . S
C3141 C3142 1.390 . S
C3142 C3141 1.390 . S
C3142 C3143 1.394 . S
C3142 C3148 1.465 . S
C3143 C3138 1.399 . S
C3143 C3142 1.394 . S
C3143 C3144 1.484 1_545 S
C3144 C3143 1.484 1_565 S
C3144 C3145 1.529 . S
C3144 C3146 1.591 . S
C3144 C3147 1.499 1_565 S
C3145 H3129 0.959 . S
C3145 H3130 0.959 . S
C3145 H3131 0.961 . S
C3145 C3144 1.529 . S
C3146 H3132 0.960 . S
C3146 H3133 0.961 . S
C3146 H3134 0.959 . S
C3146 C3144 1.591 . S
C3147 C3144 1.499 1_545 S
C3147 C3148 1.396 . S
C3147 C3152 1.390 . S
C3148 C3142 1.465 . S
C3148 C3147 1.396 . S
C3148 C3149 1.399 . S
C3149 H3135 0.929 . S
C3149 C3148 1.399 . S
C3149 C3150 1.385 . S
C3150 H3136 0.931 . S
C3150 C3149 1.385 . S
C3150 C3151 1.389 . S
C3151 C3150 1.389 . S
C3151 C3152 1.387 . S
C3152 H3137 0.930 . S
C3152 C3147 1.390 . S
C3152 C3151 1.387 . S
H3153 C3165 0.930 . S
H3154 C3167 0.930 . S
H3155 C3168 0.930 . S
H3156 C3172 0.959 . S
H3157 C3172 0.959 . S
H3158 C3172 0.961 . S
H3159 C3173 0.960 . S
H3160 C3173 0.961 . S
H3161 C3173 0.959 . S
H3162 C3176 0.929 . S
H3163 C3177 0.931 . S
H3164 C3179 0.930 . S
C3165 H3153 0.930 . S
C3165 C3166 1.399 . S
C3165 C3170 1.399 . S
C3166 C3165 1.399 . S
C3166 C3167 1.376 . S
C3167 H3154 0.930 . S
C3167 C3166 1.376 . S
C3167 C3168 1.388 . S
C3168 H3155 0.930 . S
C3168 C3167 1.388 . S
C3168 C3169 1.390 . S
C3169 C3168 1.390 . S
C3169 C3170 1.394 . S
C3169 C3175 1.465 . S
C3170 C3165 1.399 . S
C3170 C3169 1.394 . S
C3170 C3171 1.516 . S
C3171 C3170 1.516 . S
C3171 C3172 1.502 . S
C3171 C3173 1.561 . S
C3171 C3174 1.526 . S
C3172 H3156 0.959 . S
C3172 H3157 0.959 . S
C3172 H3158 0.961 . S
C3172 C3171 1.502 . S
C3173 H3159 0.960 . S
C3173 H3160 0.961 . S
C3173 H3161 0.959 . S
C3173 C3171 1.561 . S
C3174 C3171 1.526 . S
C3174 C3175 1.396 . S
C3174 C3179 1.390 . S
C3175 C3169 1.465 . S
C3175 C3174 1.396 . S
C3175 C3176 1.399 . S
C3176 H3162 0.929 . S
C3176 C3175 1.399 . S
C3176 C3177 1.385 . S
C3177 H3163 0.931 . S
C3177 C3176 1.385 . S
C3177 C3178 1.389 . S
C3178 C3177 1.389 . S
C3178 C3179 1.387 . S
C3179 H3164 0.930 . S
C3179 C3174 1.390 . S
C3179 C3178 1.387 . S
H3180 C3192 0.930 . S
H3181 C3194 0.930 . S
H3182 C3195 0.930 . S
H3183 C3199 0.959 . S
H3184 C3199 0.959 1_565 S
H3185 C3199 0.961 1_565 S
H3186 C3200 0.960 . S
H3187 C3200 0.961 . S
H3188 C3200 0.959 . S
H3189 C3203 0.929 . S
H3190 C3204 0.931 . S
H3191 C3206 0.930 . S
C3192 H3180 0.930 . S
C3192 C3193 1.399 . S
C3192 C3197 1.399 . S
C3193 C3192 1.399 . S
C3193 C3194 1.376 . S
C3194 H3181 0.930 . S
C3194 C3193 1.376 . S
C3194 C3195 1.388 . S
C3195 H3182 0.930 . S
C3195 C3194 1.388 . S
C3195 C3196 1.390 . S
C3196 C3195 1.390 . S
C3196 C3197 1.394 . S
C3196 C3202 1.465 . S
C3197 C3192 1.399 . S
C3197 C3196 1.394 . S
C3197 C3198 1.516 . S
C3198 C3197 1.516 . S
C3198 C3199 1.502 . S
C3198 C3200 1.561 1_545 S
C3198 C3201 1.526 . S
C3199 H3183 0.959 . S
C3199 H3184 0.959 1_545 S
C3199 H3185 0.961 1_545 S
C3199 C3198 1.502 . S
C3200 H3186 0.960 . S
C3200 H3187 0.961 . S
C3200 H3188 0.959 . S
C3200 C3198 1.561 1_565 S
C3201 C3198 1.526 . S
C3201 C3202 1.396 . S
C3201 C3206 1.390 . S
C3202 C3196 1.465 . S
C3202 C3201 1.396 . S
C3202 C3203 1.399 . S
C3203 H3189 0.929 . S
C3203 C3202 1.399 . S
C3203 C3204 1.385 . S
C3204 H3190 0.931 . S
C3204 C3203 1.385 . S
C3204 C3205 1.389 . S
C3205 C3204 1.389 . S
C3205 C3206 1.387 . S
C3206 H3191 0.930 . S
C3206 C3201 1.390 . S
C3206 C3205 1.387 . S
H3207 C3219 0.930 . S
H3208 C3221 0.930 . S
H3209 C3222 0.930 . S
H3210 C3226 0.959 . S
H3211 C3226 0.959 . S
H3212 C3226 0.961 . S
H3213 C3227 0.960 . S
H3214 C3227 0.961 . S
H3215 C3227 0.959 . S
H3216 C3230 0.929 . S
H3217 C3231 0.931 . S
H3218 C3233 0.930 . S
C3219 H3207 0.930 . S
C3219 C3220 1.399 . S
C3219 C3224 1.399 . S
C3220 C3219 1.399 . S
C3220 C3221 1.376 . S
C3221 H3208 0.930 . S
C3221 C3220 1.376 . S
C3221 C3222 1.388 . S
C3222 H3209 0.930 . S
C3222 C3221 1.388 . S
C3222 C3223 1.390 . S
C3223 C3222 1.390 . S
C3223 C3224 1.394 . S
C3223 C3229 1.465 . S
C3224 C3219 1.399 . S
C3224 C3223 1.394 . S
C3224 C3225 1.516 . S
C3225 C3224 1.516 . S
C3225 C3226 1.502 . S
C3225 C3227 1.561 . S
C3225 C3228 1.526 . S
C3226 H3210 0.959 . S
C3226 H3211 0.959 . S
C3226 H3212 0.961 . S
C3226 C3225 1.502 . S
C3227 H3213 0.960 . S
C3227 H3214 0.961 . S
C3227 H3215 0.959 . S
C3227 C3225 1.561 . S
C3228 C3225 1.526 . S
C3228 C3229 1.396 . S
C3228 C3233 1.390 . S
C3229 C3223 1.465 . S
C3229 C3228 1.396 . S
C3229 C3230 1.399 . S
C3230 H3216 0.929 . S
C3230 C3229 1.399 . S
C3230 C3231 1.385 . S
C3231 H3217 0.931 . S
C3231 C3230 1.385 . S
C3231 C3232 1.389 . S
C3232 C3231 1.389 . S
C3232 C3233 1.387 . S
C3233 H3218 0.930 . S
C3233 C3228 1.390 . S
C3233 C3232 1.387 . S
H3234 C3246 0.930 . S
H3235 C3248 0.930 . S
H3236 C3249 0.930 . S
H3237 C3253 0.959 . S
H3238 C3253 0.959 . S
H3239 C3253 0.961 . S
H3240 C3254 0.960 . S
H3241 C3254 0.961 . S
H3242 C3254 0.959 . S
H3243 C3257 0.929 . S
H3244 C3258 0.931 . S
H3245 C3260 0.930 . S
C3246 H3234 0.930 . S
C3246 C3247 1.399 . S
C3246 C3251 1.399 . S
C3247 C3246 1.399 . S
C3247 C3248 1.376 1_545 S
C3248 H3235 0.930 . S
C3248 C3247 1.376 1_565 S
C3248 C3249 1.388 . S
C3249 H3236 0.930 . S
C3249 C3248 1.388 . S
C3249 C3250 1.390 1_565 S
C3250 C3249 1.390 1_545 S
C3250 C3251 1.394 . S
C3250 C3256 1.465 . S
C3251 C3246 1.399 . S
C3251 C3250 1.394 . S
C3251 C3252 1.516 . S
C3252 C3251 1.516 . S
C3252 C3253 1.502 . S
C3252 C3254 1.561 . S
C3252 C3255 1.526 . S
C3253 H3237 0.959 . S
C3253 H3238 0.959 . S
C3253 H3239 0.961 . S
C3253 C3252 1.502 . S
C3254 H3240 0.960 . S
C3254 H3241 0.961 . S
C3254 H3242 0.959 . S
C3254 C3252 1.561 . S
C3255 C3252 1.526 . S
C3255 C3256 1.396 . S
C3255 C3260 1.390 . S
C3256 C3250 1.465 . S
C3256 C3255 1.396 . S
C3256 C3257 1.399 1_545 S
C3257 H3243 0.929 . S
C3257 C3256 1.399 1_565 S
C3257 C3258 1.385 . S
C3258 H3244 0.931 . S
C3258 C3257 1.385 . S
C3258 C3259 1.389 1_565 S
C3259 C3258 1.389 1_545 S
C3259 C3260 1.387 . S
C3260 H3245 0.930 . S
C3260 C3255 1.390 . S
C3260 C3259 1.387 . S
H3261 C3273 0.930 . S
H3262 C3275 0.930 . S
H3263 C3276 0.930 . S
H3264 C3280 0.959 . S
H3265 C3280 0.959 . S
H3266 C3280 0.961 . S
H3267 C3281 0.960 . S
H3268 C3281 0.961 . S
H3269 C3281 0.959 . S
H3270 C3284 0.929 . S
H3271 C3285 0.931 . S
H3272 C3287 0.930 . S
C3273 H3261 0.930 . S
C3273 C3274 1.399 . S
C3273 C3278 1.399 . S
C3274 C3273 1.399 . S
C3274 C3275 1.376 . S
C3275 H3262 0.930 . S
C3275 C3274 1.376 . S
C3275 C3276 1.388 . S
C3276 H3263 0.930 . S
C3276 C3275 1.388 . S
C3276 C3277 1.390 . S
C3277 C3276 1.390 . S
C3277 C3278 1.394 . S
C3277 C3283 1.465 . S
C3278 C3273 1.399 . S
C3278 C3277 1.394 . S
C3278 C3279 1.516 . S
C3279 C3278 1.516 . S
C3279 C3280 1.502 . S
C3279 C3281 1.561 . S
C3279 C3282 1.526 . S
C3280 H3264 0.959 . S
C3280 H3265 0.959 . S
C3280 H3266 0.961 . S
C3280 C3279 1.502 . S
C3281 H3267 0.960 . S
C3281 H3268 0.961 . S
C3281 H3269 0.959 . S
C3281 C3279 1.561 . S
C3282 C3279 1.526 . S
C3282 C3283 1.396 . S
C3282 C3287 1.390 . S
C3283 C3277 1.465 . S
C3283 C3282 1.396 . S
C3283 C3284 1.399 . S
C3284 H3270 0.929 . S
C3284 C3283 1.399 . S
C3284 C3285 1.385 . S
C3285 H3271 0.931 . S
C3285 C3284 1.385 . S
C3285 C3286 1.389 . S
C3286 C3285 1.389 . S
C3286 C3287 1.387 . S
C3287 H3272 0.930 . S
C3287 C3282 1.390 . S
C3287 C3286 1.387 . S
H3288 C3300 0.930 . S
H3289 C3302 0.930 . S
H3290 C3303 0.930 . S
H3291 C3307 0.959 . S
H3292 C3307 0.959 1_556 S
H3293 C3307 0.961 1_556 S
H3294 C3308 0.960 . S
H3295 C3308 0.961 . S
H3296 C3308 0.959 1_554 S
H3297 C3311 0.929 . S
H3298 C3312 0.931 . S
H3299 C3314 0.930 1_556 S
C3300 H3288 0.930 . S
C3300 C3301 1.399 . S
C3300 C3305 1.399 . S
C3301 C3300 1.399 . S
C3301 C3302 1.376 . S
C3302 H3289 0.930 . S
C3302 C3301 1.376 . S
C3302 C3303 1.388 . S
C3303 H3290 0.930 . S
C3303 C3302 1.388 . S
C3303 C3304 1.390 . S
C3304 C3303 1.390 . S
C3304 C3305 1.394 . S
C3304 C3310 1.465 . S
C3305 C3300 1.399 . S
C3305 C3304 1.394 . S
C3305 C3306 1.516 . S
C3306 C3305 1.516 . S
C3306 C3307 1.502 . S
C3306 C3308 1.561 1_554 S
C3306 C3309 1.526 . S
C3307 H3291 0.959 . S
C3307 H3292 0.959 1_554 S
C3307 H3293 0.961 1_554 S
C3307 C3306 1.502 . S
C3308 H3294 0.960 . S
C3308 H3295 0.961 . S
C3308 H3296 0.959 1_556 S
C3308 C3306 1.561 1_556 S
C3309 C3306 1.526 . S
C3309 C3310 1.396 . S
C3309 C3314 1.390 . S
C3310 C3304 1.465 . S
C3310 C3309 1.396 . S
C3310 C3311 1.399 . S
C3311 H3297 0.929 . S
C3311 C3310 1.399 . S
C3311 C3312 1.385 . S
C3312 H3298 0.931 . S
C3312 C3311 1.385 . S
C3312 C3313 1.389 . S
C3313 C3312 1.389 . S
C3313 C3314 1.387 . S
C3314 H3299 0.930 1_554 S
C3314 C3309 1.390 . S
C3314 C3313 1.387 . S
H3315 C3327 0.930 . S
H3316 C3329 0.930 . S
H3317 C3330 0.930 . S
H3318 C3334 0.959 . S
H3319 C3334 0.959 1_556 S
H3320 C3334 0.960 . S
H3321 C3335 0.960 . S
H3322 C3335 0.961 . S
H3323 C3335 0.959 . S
H3324 C3338 0.929 . S
H3325 C3339 0.931 . S
H3326 C3341 0.930 . S
C3327 H3315 0.930 . S
C3327 C3328 1.399 . S
C3327 C3332 1.399 . S
C3328 C3327 1.399 . S
C3328 C3329 1.376 . S
C3329 H3316 0.930 . S
C3329 C3328 1.376 . S
C3329 C3330 1.388 . S
C3330 H3317 0.930 . S
C3330 C3329 1.388 . S
C3330 C3331 1.390 . S
C3331 C3330 1.390 . S
C3331 C3332 1.394 . S
C3331 C3337 1.465 . S
C3332 C3327 1.399 . S
C3332 C3331 1.394 . S
C3332 C3333 1.516 . S
C3333 C3332 1.516 . S
C3333 C3334 1.502 . S
C3333 C3335 1.561 1_554 S
C3333 C3336 1.526 . S
C3334 H3318 0.959 . S
C3334 H3319 0.959 1_554 S
C3334 H3320 0.960 . S
C3334 C3333 1.502 . S
C3335 H3321 0.960 . S
C3335 H3322 0.961 . S
C3335 H3323 0.959 . S
C3335 C3333 1.561 1_556 S
C3336 C3333 1.526 . S
C3336 C3337 1.396 . S
C3336 C3341 1.390 . S
C3337 C3331 1.465 . S
C3337 C3336 1.396 . S
C3337 C3338 1.399 . S
C3338 H3324 0.929 . S
C3338 C3337 1.399 . S
C3338 C3339 1.385 . S
C3339 H3325 0.931 . S
C3339 C3338 1.385 . S
C3339 C3340 1.389 . S
C3340 C3339 1.389 . S
C3340 C3341 1.387 . S
C3341 H3326 0.930 . S
C3341 C3336 1.390 . S
C3341 C3340 1.387 . S
H3342 C3354 0.930 . S
H3343 C3356 0.930 . S
H3344 C3357 0.930 . S
H3345 C3361 0.959 . S
H3346 C3361 0.959 . S
H3347 C3361 0.961 . S
H3348 C3362 0.960 . S
H3349 C3362 0.961 . S
H3350 C3362 0.959 . S
H3351 C3365 0.929 . S
H3352 C3366 0.931 . S
H3353 C3368 0.930 . S
C3354 H3342 0.930 . S
C3354 C3355 1.399 . S
C3354 C3359 1.399 . S
C3355 C3354 1.399 . S
C3355 C3356 1.376 . S
C3356 H3343 0.930 . S
C3356 C3355 1.376 . S
C3356 C3357 1.388 . S
C3357 H3344 0.930 . S
C3357 C3356 1.388 . S
C3357 C3358 1.390 . S
C3358 C3357 1.390 . S
C3358 C3359 1.394 . S
C3358 C3364 1.465 . S
C3359 C3354 1.399 . S
C3359 C3358 1.394 . S
C3359 C3360 1.516 . S
C3360 C3359 1.516 . S
C3360 C3361 1.502 . S
C3360 C3362 1.561 . S
C3360 C3363 1.526 . S
C3361 H3345 0.959 . S
C3361 H3346 0.959 . S
C3361 H3347 0.961 . S
C3361 C3360 1.502 . S
C3362 H3348 0.960 . S
C3362 H3349 0.961 . S
C3362 H3350 0.959 . S
C3362 C3360 1.561 . S
C3363 C3360 1.526 . S
C3363 C3364 1.396 . S
C3363 C3368 1.390 . S
C3364 C3358 1.465 . S
C3364 C3363 1.396 . S
C3364 C3365 1.399 . S
C3365 H3351 0.929 . S
C3365 C3364 1.399 . S
C3365 C3366 1.385 . S
C3366 H3352 0.931 . S
C3366 C3365 1.385 . S
C3366 C3367 1.389 . S
C3367 C3366 1.389 . S
C3367 C3368 1.387 . S
C3368 H3353 0.930 . S
C3368 C3363 1.390 . S
C3368 C3367 1.387 . S
H3369 C3381 0.930 . S
H3370 C3383 0.930 . S
H3371 C3384 0.930 . S
H3372 C3388 0.959 . S
H3373 C3388 0.959 . S
H3374 C3388 0.961 . S
H3375 C3389 0.960 . S
H3376 C3389 0.961 . S
H3377 C3389 0.959 . S
H3378 C3392 0.929 . S
H3379 C3393 0.931 . S
H3380 C3395 0.930 . S
C3381 H3369 0.930 . S
C3381 C3382 1.399 . S
C3381 C3386 1.399 . S
C3382 C3381 1.399 . S
C3382 C3383 1.376 . S
C3383 H3370 0.930 . S
C3383 C3382 1.376 . S
C3383 C3384 1.388 . S
C3384 H3371 0.930 . S
C3384 C3383 1.388 . S
C3384 C3385 1.390 . S
C3385 C3384 1.390 . S
C3385 C3386 1.394 . S
C3385 C3391 1.465 . S
C3386 C3381 1.399 . S
C3386 C3385 1.394 . S
C3386 C3387 1.516 . S
C3387 C3386 1.516 . S
C3387 C3388 1.502 . S
C3387 C3389 1.561 . S
C3387 C3390 1.526 . S
C3388 H3372 0.959 . S
C3388 H3373 0.959 . S
C3388 H3374 0.961 . S
C3388 C3387 1.502 . S
C3389 H3375 0.960 . S
C3389 H3376 0.961 . S
C3389 H3377 0.959 . S
C3389 C3387 1.561 . S
C3390 C3387 1.526 . S
C3390 C3391 1.396 . S
C3390 C3395 1.390 . S
C3391 C3385 1.465 . S
C3391 C3390 1.396 . S
C3391 C3392 1.399 . S
C3392 H3378 0.929 . S
C3392 C3391 1.399 . S
C3392 C3393 1.385 . S
C3393 H3379 0.931 . S
C3393 C3392 1.385 . S
C3393 C3394 1.389 . S
C3394 C3393 1.389 . S
C3394 C3395 1.387 . S
C3395 H3380 0.930 . S
C3395 C3390 1.390 . S
C3395 C3394 1.387 . S
H3396 C3408 0.944 . S
H3397 C3410 0.930 . S
H3398 C3411 0.930 . S
H3399 C3415 0.959 . S
H3400 C3415 0.959 . S
H3401 C3415 0.994 . S
H3402 C3416 0.960 . S
H3403 C3416 0.961 . S
H3404 C3416 0.959 . S
H3405 C3419 0.929 . S
H3406 C3420 0.931 . S
H3407 C3422 0.930 . S
C3408 H3396 0.944 . S
C3408 C3409 1.411 . S
C3408 C3413 1.373 1_545 S
C3409 C3408 1.411 . S
C3409 C3410 1.376 1_545 S
C3410 H3397 0.930 . S
C3410 C3409 1.376 1_565 S
C3410 C3411 1.388 . S
C3411 H3398 0.930 . S
C3411 C3410 1.388 . S
C3411 C3412 1.390 . S
C3412 C3411 1.390 . S
C3412 C3413 1.394 . S
C3412 C3418 1.465 . S
C3413 C3408 1.373 1_565 S
C3413 C3412 1.394 . S
C3413 C3414 1.516 . S
C3414 C3413 1.516 . S
C3414 C3415 1.502 . S
C3414 C3416 1.561 . S
C3414 C3417 1.526 . S
C3415 H3399 0.959 . S
C3415 H3400 0.959 . S
C3415 H3401 0.994 . S
C3415 C3414 1.502 . S
C3416 H3402 0.960 . S
C3416 H3403 0.961 . S
C3416 H3404 0.959 . S
C3416 C3414 1.561 . S
C3417 C3414 1.526 . S
C3417 C3418 1.396 . S
C3417 C3422 1.390 . S
C3418 C3412 1.465 . S
C3418 C3417 1.396 . S
C3418 C3419 1.399 . S
C3419 H3405 0.929 . S
C3419 C3418 1.399 . S
C3419 C3420 1.385 . S
C3420 H3406 0.931 . S
C3420 C3419 1.385 . S
C3420 C3421 1.389 . S
C3421 C3420 1.389 . S
C3421 C3422 1.387 . S
C3422 H3407 0.930 . S
C3422 C3417 1.390 . S
C3422 C3421 1.387 . S
H3423 C3435 0.930 . S
H3424 C3437 0.930 . S
H3425 C3438 0.930 . S
H3426 C3442 0.959 . S
H3427 C3442 0.959 . S
H3428 C3442 0.961 . S
H3429 C3443 0.960 . S
H3430 C3443 0.961 . S
H3431 C3443 0.959 . S
H3432 C3446 0.929 . S
H3433 C3447 0.931 . S
H3434 C3449 0.930 . S
C3435 H3423 0.930 . S
C3435 C3436 1.399 . S
C3435 C3440 1.399 . S
C3436 C3435 1.399 . S
C3436 C3437 1.376 . S
C3437 H3424 0.930 . S
C3437 C3436 1.376 . S
C3437 C3438 1.388 . S
C3438 H3425 0.930 . S
C3438 C3437 1.388 . S
C3438 C3439 1.390 . S
C3439 C3438 1.390 . S
C3439 C3440 1.394 . S
C3439 C3445 1.465 . S
C3440 C3435 1.399 . S
C3440 C3439 1.394 . S
C3440 C3441 1.516 . S
C3441 C3440 1.516 . S
C3441 C3442 1.502 . S
C3441 C3443 1.561 . S
C3441 C3444 1.526 . S
C3442 H3426 0.959 . S
C3442 H3427 0.959 . S
C3442 H3428 0.961 . S
C3442 C3441 1.502 . S
C3443 H3429 0.960 . S
C3443 H3430 0.961 . S
C3443 H3431 0.959 . S
C3443 C3441 1.561 . S
C3444 C3441 1.526 . S
C3444 C3445 1.396 . S
C3444 C3449 1.390 . S
C3445 C3439 1.465 . S
C3445 C3444 1.396 . S
C3445 C3446 1.399 . S
C3446 H3432 0.929 . S
C3446 C3445 1.399 . S
C3446 C3447 1.385 . S
C3447 H3433 0.931 . S
C3447 C3446 1.385 . S
C3447 C3448 1.389 . S
C3448 C3447 1.389 . S
C3448 C3449 1.387 . S
C3449 H3434 0.930 . S
C3449 C3444 1.390 . S
C3449 C3448 1.387 . S
H3450 C3462 0.930 . S
H3451 C3464 0.930 . S
H3452 C3465 0.930 . S
H3453 C3469 0.959 . S
H3454 C3469 0.959 . S
H3455 C3469 0.961 . S
H3456 C3470 0.960 . S
H3457 C3470 0.961 . S
H3458 C3470 0.959 . S
H3459 C3473 0.929 . S
H3460 C3474 0.931 . S
H3461 C3476 0.930 . S
C3462 H3450 0.930 . S
C3462 C3463 1.399 . S
C3462 C3467 1.399 . S
C3463 C3462 1.399 . S
C3463 C3464 1.376 . S
C3464 H3451 0.930 . S
C3464 C3463 1.376 . S
C3464 C3465 1.388 . S
C3465 H3452 0.930 . S
C3465 C3464 1.388 . S
C3465 C3466 1.390 . S
C3466 C3465 1.390 . S
C3466 C3467 1.394 . S
C3466 C3472 1.465 . S
C3467 C3462 1.399 . S
C3467 C3466 1.394 . S
C3467 C3468 1.516 . S
C3468 C3467 1.516 . S
C3468 C3469 1.502 . S
C3468 C3470 1.561 . S
C3468 C3471 1.526 . S
C3469 H3453 0.959 . S
C3469 H3454 0.959 . S
C3469 H3455 0.961 . S
C3469 C3468 1.502 . S
C3470 H3456 0.960 . S
C3470 H3457 0.961 . S
C3470 H3458 0.959 . S
C3470 C3468 1.561 . S
C3471 C3468 1.526 . S
C3471 C3472 1.396 . S
C3471 C3476 1.390 . S
C3472 C3466 1.465 . S
C3472 C3471 1.396 . S
C3472 C3473 1.399 . S
C3473 H3459 0.929 . S
C3473 C3472 1.399 . S
C3473 C3474 1.385 . S
C3474 H3460 0.931 . S
C3474 C3473 1.385 . S
C3474 C3475 1.389 . S
C3475 C3474 1.389 . S
C3475 C3476 1.387 . S
C3476 H3461 0.930 . S
C3476 C3471 1.390 . S
C3476 C3475 1.387 . S
H3477 C3489 0.930 . S
H3478 C3491 0.930 . S
H3479 C3492 0.930 . S
H3480 C3496 0.959 . S
H3481 C3496 0.959 . S
H3482 C3496 0.961 . S
H3483 C3497 0.960 . S
H3484 C3497 0.961 . S
H3485 C3497 0.959 . S
H3486 C3500 0.929 . S
H3487 C3501 0.931 . S
H3488 C3503 0.930 . S
C3489 H3477 0.930 . S
C3489 C3490 1.399 . S
C3489 C3494 1.399 . S
C3490 C3489 1.399 . S
C3490 C3491 1.376 . S
C3491 H3478 0.930 . S
C3491 C3490 1.376 . S
C3491 C3492 1.388 . S
C3492 H3479 0.930 . S
C3492 C3491 1.388 . S
C3492 C3493 1.390 . S
C3493 C3492 1.390 . S
C3493 C3494 1.394 . S
C3493 C3499 1.465 . S
C3494 C3489 1.399 . S
C3494 C3493 1.394 . S
C3494 C3495 1.516 . S
C3495 C3494 1.516 . S
C3495 C3496 1.502 . S
C3495 C3497 1.561 . S
C3495 C3498 1.526 . S
C3496 H3480 0.959 . S
C3496 H3481 0.959 . S
C3496 H3482 0.961 . S
C3496 C3495 1.502 . S
C3497 H3483 0.960 . S
C3497 H3484 0.961 . S
C3497 H3485 0.959 . S
C3497 C3495 1.561 . S
C3498 C3495 1.526 . S
C3498 C3499 1.396 . S
C3498 C3503 1.390 . S
C3499 C3493 1.465 . S
C3499 C3498 1.396 . S
C3499 C3500 1.399 . S
C3500 H3486 0.929 . S
C3500 C3499 1.399 . S
C3500 C3501 1.385 . S
C3501 H3487 0.931 . S
C3501 C3500 1.385 . S
C3501 C3502 1.389 . S
C3502 C3501 1.389 . S
C3502 C3503 1.387 . S
C3503 H3488 0.930 . S
C3503 C3498 1.390 . S
C3503 C3502 1.387 . S
H3504 C3516 0.930 . S
H3505 C3518 0.930 . S
H3506 C3519 0.930 . S
H3507 C3523 0.959 . S
H3508 C3523 0.959 . S
H3509 C3523 0.961 . S
H3510 C3524 0.960 . S
H3511 C3524 0.961 . S
H3512 C3524 0.959 . S
H3513 C3527 0.929 . S
H3514 C3528 0.931 . S
H3515 C3530 0.930 . S
C3516 H3504 0.930 . S
C3516 C3517 1.399 . S
C3516 C3521 1.399 . S
C3517 C3516 1.399 . S
C3517 C3518 1.376 . S
C3518 H3505 0.930 . S
C3518 C3517 1.376 . S
C3518 C3519 1.388 . S
C3519 H3506 0.930 . S
C3519 C3518 1.388 . S
C3519 C3520 1.390 . S
C3520 C3519 1.390 . S
C3520 C3521 1.394 . S
C3520 C3526 1.465 . S
C3521 C3516 1.399 . S
C3521 C3520 1.394 . S
C3521 C3522 1.516 . S
C3522 C3521 1.516 . S
C3522 C3523 1.502 . S
C3522 C3524 1.561 . S
C3522 C3525 1.526 . S
C3523 H3507 0.959 . S
C3523 H3508 0.959 . S
C3523 H3509 0.961 . S
C3523 C3522 1.502 . S
C3524 H3510 0.960 . S
C3524 H3511 0.961 . S
C3524 H3512 0.959 . S
C3524 C3522 1.561 . S
C3525 C3522 1.526 . S
C3525 C3526 1.396 . S
C3525 C3530 1.390 . S
C3526 C3520 1.465 . S
C3526 C3525 1.396 . S
C3526 C3527 1.399 . S
C3527 H3513 0.929 . S
C3527 C3526 1.399 . S
C3527 C3528 1.385 . S
C3528 H3514 0.931 . S
C3528 C3527 1.385 . S
C3528 C3529 1.389 . S
C3529 C3528 1.389 . S
C3529 C3530 1.387 . S
C3530 H3515 0.930 . S
C3530 C3525 1.390 . S
C3530 C3529 1.387 . S
H3531 C3543 0.930 . S
H3532 C3545 0.930 . S
H3533 C3546 0.930 . S
H3534 C3550 0.959 . S
H3535 C3550 0.959 . S
H3536 C3550 0.961 . S
H3537 C3551 0.960 . S
H3538 C3551 0.961 . S
H3539 C3551 0.959 . S
H3540 C3554 0.929 . S
H3541 C3555 0.931 . S
H3542 C3557 0.930 . S
C3543 H3531 0.930 . S
C3543 C3544 1.399 . S
C3543 C3548 1.399 . S
C3544 C3543 1.399 . S
C3544 C3545 1.376 . S
C3545 H3532 0.930 . S
C3545 C3544 1.376 . S
C3545 C3546 1.388 . S
C3546 H3533 0.930 . S
C3546 C3545 1.388 . S
C3546 C3547 1.390 . S
C3547 C3546 1.390 . S
C3547 C3548 1.394 . S
C3547 C3553 1.465 . S
C3548 C3543 1.399 . S
C3548 C3547 1.394 . S
C3548 C3549 1.516 . S
C3549 C3548 1.516 . S
C3549 C3550 1.502 . S
C3549 C3551 1.561 . S
C3549 C3552 1.526 . S
C3550 H3534 0.959 . S
C3550 H3535 0.959 . S
C3550 H3536 0.961 . S
C3550 C3549 1.502 . S
C3551 H3537 0.960 . S
C3551 H3538 0.961 . S
C3551 H3539 0.959 . S
C3551 C3549 1.561 . S
C3552 C3549 1.526 . S
C3552 C3553 1.396 . S
C3552 C3557 1.390 . S
C3553 C3547 1.465 . S
C3553 C3552 1.396 . S
C3553 C3554 1.399 . S
C3554 H3540 0.929 . S
C3554 C3553 1.399 . S
C3554 C3555 1.385 . S
C3555 H3541 0.931 . S
C3555 C3554 1.385 . S
C3555 C3556 1.389 . S
C3556 C3555 1.389 . S
C3556 C3557 1.387 . S
C3557 H3542 0.930 . S
C3557 C3552 1.390 . S
C3557 C3556 1.387 . S
H3558 C3570 0.930 . S
H3559 C3572 0.930 . S
H3560 C3573 0.930 . S
H3561 C3577 0.959 1_554 S
H3562 C3577 0.959 . S
H3563 C3577 0.961 . S
H3564 C3578 0.960 . S
H3565 C3578 0.961 . S
H3566 C3578 0.959 . S
H3567 C3581 0.929 . S
H3568 C3582 0.931 . S
H3569 C3584 0.928 . S
C3570 H3558 0.930 . S
C3570 C3571 1.399 . S
C3570 C3575 1.399 . S
C3571 C3570 1.399 . S
C3571 C3572 1.376 1_455 S
C3572 H3559 0.930 . S
C3572 C3571 1.376 1_655 S
C3572 C3573 1.388 . S
C3573 H3560 0.930 . S
C3573 C3572 1.388 . S
C3573 C3574 1.390 1_655 S
C3574 C3573 1.390 1_455 S
C3574 C3575 1.394 . S
C3574 C3580 1.462 1_556 S
C3575 C3570 1.399 . S
C3575 C3574 1.394 . S
C3575 C3576 1.516 . S
C3576 C3575 1.516 . S
C3576 C3577 1.502 . S
C3576 C3578 1.561 . S
C3576 C3579 1.526 . S
C3577 H3561 0.959 1_556 S
C3577 H3562 0.959 . S
C3577 H3563 0.961 . S
C3577 C3576 1.502 . S
C3578 H3564 0.960 . S
C3578 H3565 0.961 . S
C3578 H3566 0.959 . S
C3578 C3576 1.561 . S
C3579 C3576 1.526 . S
C3579 C3580 1.391 1_556 S
C3579 C3584 1.390 1_556 S
C3580 C3574 1.462 1_554 S
C3580 C3579 1.391 1_554 S
C3580 C3581 1.405 1_455 S
C3581 H3567 0.929 . S
C3581 C3580 1.405 1_655 S
C3581 C3582 1.385 . S
C3582 H3568 0.931 . S
C3582 C3581 1.385 . S
C3582 C3583 1.389 1_655 S
C3583 C3582 1.389 1_455 S
C3583 C3584 1.387 . S
C3584 H3569 0.928 . S
C3584 C3579 1.390 1_554 S
C3584 C3583 1.387 . S
H3585 C3597 0.912 1_455 S
H3586 C3599 0.930 . S
H3587 C3600 0.930 . S
H3588 C3604 0.959 . S
H3589 C3604 0.959 . S
H3590 C3604 0.961 . S
H3591 C3605 0.960 . S
H3592 C3605 0.961 . S
H3593 C3605 0.959 . S
H3594 C3608 0.929 . S
H3595 C3609 0.931 . S
H3596 C3611 0.930 . S
C3597 H3585 0.912 1_655 S
C3597 C3598 1.399 . S
C3597 C3602 1.399 . S
C3598 C3597 1.399 . S
C3598 C3599 1.376 . S
C3599 H3586 0.930 . S
C3599 C3598 1.376 . S
C3599 C3600 1.388 . S
C3600 H3587 0.930 . S
C3600 C3599 1.388 . S
C3600 C3601 1.390 . S
C3601 C3600 1.390 . S
C3601 C3602 1.394 . S
C3601 C3607 1.465 . S
C3602 C3597 1.399 . S
C3602 C3601 1.394 . S
C3602 C3603 1.516 . S
C3603 C3602 1.516 . S
C3603 C3604 1.502 . S
C3603 C3605 1.561 . S
C3603 C3606 1.526 . S
C3604 H3588 0.959 . S
C3604 H3589 0.959 . S
C3604 H3590 0.961 . S
C3604 C3603 1.502 . S
C3605 H3591 0.960 . S
C3605 H3592 0.961 . S
C3605 H3593 0.959 . S
C3605 C3603 1.561 . S
C3606 C3603 1.526 . S
C3606 C3607 1.396 . S
C3606 C3611 1.390 . S
C3607 C3601 1.465 . S
C3607 C3606 1.396 . S
C3607 C3608 1.399 . S
C3608 H3594 0.929 . S
C3608 C3607 1.399 . S
C3608 C3609 1.385 . S
C3609 H3595 0.931 . S
C3609 C3608 1.385 . S
C3609 C3610 1.389 . S
C3610 C3609 1.389 . S
C3610 C3611 1.387 . S
C3611 H3596 0.930 . S
C3611 C3606 1.390 . S
C3611 C3610 1.387 . S
H3612 C3624 0.930 . S
H3613 C3626 0.930 . S
H3614 C3627 0.930 . S
H3615 C3631 0.959 . S
H3616 C3631 0.959 . S
H3617 C3631 0.961 . S
H3618 C3632 0.960 . S
H3619 C3632 0.961 . S
H3620 C3632 0.959 . S
H3621 C3635 0.929 . S
H3622 C3636 0.931 . S
H3623 C3638 0.930 . S
C3624 H3612 0.930 . S
C3624 C3625 1.399 . S
C3624 C3629 1.399 . S
C3625 C3624 1.399 . S
C3625 C3626 1.376 . S
C3626 H3613 0.930 . S
C3626 C3625 1.376 . S
C3626 C3627 1.388 . S
C3627 H3614 0.930 . S
C3627 C3626 1.388 . S
C3627 C3628 1.390 . S
C3628 C3627 1.390 . S
C3628 C3629 1.394 . S
C3628 C3634 1.465 . S
C3629 C3624 1.399 . S
C3629 C3628 1.394 . S
C3629 C3630 1.516 . S
C3630 C3629 1.516 . S
C3630 C3631 1.502 . S
C3630 C3632 1.561 . S
C3630 C3633 1.526 . S
C3631 H3615 0.959 . S
C3631 H3616 0.959 . S
C3631 H3617 0.961 . S
C3631 C3630 1.502 . S
C3632 H3618 0.960 . S
C3632 H3619 0.961 . S
C3632 H3620 0.959 . S
C3632 C3630 1.561 . S
C3633 C3630 1.526 . S
C3633 C3634 1.396 . S
C3633 C3638 1.390 . S
C3634 C3628 1.465 . S
C3634 C3633 1.396 . S
C3634 C3635 1.399 . S
C3635 H3621 0.929 . S
C3635 C3634 1.399 . S
C3635 C3636 1.385 . S
C3636 H3622 0.931 . S
C3636 C3635 1.385 . S
C3636 C3637 1.389 . S
C3637 C3636 1.389 . S
C3637 C3638 1.387 . S
C3638 H3623 0.930 . S
C3638 C3633 1.390 . S
C3638 C3637 1.387 . S
H3639 C3651 0.930 . S
H3640 C3653 0.930 . S
H3641 C3654 0.930 . S
H3642 C3658 0.959 . S
H3643 C3658 0.959 . S
H3644 C3658 0.961 . S
H3645 C3659 0.960 . S
H3646 C3659 0.961 . S
H3647 C3659 0.959 . S
H3648 C3662 0.929 . S
H3649 C3663 0.931 . S
H3650 C3665 0.930 . S
C3651 H3639 0.930 . S
C3651 C3652 1.399 . S
C3651 C3656 1.399 . S
C3652 C3651 1.399 . S
C3652 C3653 1.376 . S
C3653 H3640 0.930 . S
C3653 C3652 1.376 . S
C3653 C3654 1.388 . S
C3654 H3641 0.930 . S
C3654 C3653 1.388 . S
C3654 C3655 1.390 . S
C3655 C3654 1.390 . S
C3655 C3656 1.394 . S
C3655 C3661 1.465 . S
C3656 C3651 1.399 . S
C3656 C3655 1.394 . S
C3656 C3657 1.516 . S
C3657 C3656 1.516 . S
C3657 C3658 1.502 . S
C3657 C3659 1.561 . S
C3657 C3660 1.526 . S
C3658 H3642 0.959 . S
C3658 H3643 0.959 . S
C3658 H3644 0.961 . S
C3658 C3657 1.502 . S
C3659 H3645 0.960 . S
C3659 H3646 0.961 . S
C3659 H3647 0.959 . S
C3659 C3657 1.561 . S
C3660 C3657 1.526 . S
C3660 C3661 1.396 . S
C3660 C3665 1.390 . S
C3661 C3655 1.465 . S
C3661 C3660 1.396 . S
C3661 C3662 1.399 . S
C3662 H3648 0.929 . S
C3662 C3661 1.399 . S
C3662 C3663 1.385 . S
C3663 H3649 0.931 . S
C3663 C3662 1.385 . S
C3663 C3664 1.389 . S
C3664 C3663 1.389 . S
C3664 C3665 1.387 . S
C3665 H3650 0.930 . S
C3665 C3660 1.390 . S
C3665 C3664 1.387 . S
H3666 C3678 0.930 . S
H3667 C3680 0.930 . S
H3668 C3681 0.930 . S
H3669 C3685 0.959 . S
H3670 C3685 0.959 . S
H3671 C3685 0.961 . S
H3672 C3686 0.960 . S
H3673 C3686 0.961 . S
H3674 C3686 0.959 . S
H3675 C3689 0.929 . S
H3676 C3690 0.931 . S
H3677 C3692 0.930 . S
C3678 H3666 0.930 . S
C3678 C3679 1.399 . S
C3678 C3683 1.399 . S
C3679 C3678 1.399 . S
C3679 C3680 1.376 . S
C3680 H3667 0.930 . S
C3680 C3679 1.376 . S
C3680 C3681 1.388 . S
C3681 H3668 0.930 . S
C3681 C3680 1.388 . S
C3681 C3682 1.390 . S
C3682 C3681 1.390 . S
C3682 C3683 1.394 . S
C3682 C3688 1.465 . S
C3683 C3678 1.399 . S
C3683 C3682 1.394 . S
C3683 C3684 1.516 . S
C3684 C3683 1.516 . S
C3684 C3685 1.502 . S
C3684 C3686 1.561 1_455 S
C3684 C3687 1.526 . S
C3685 H3669 0.959 . S
C3685 H3670 0.959 . S
C3685 H3671 0.961 . S
C3685 C3684 1.502 . S
C3686 H3672 0.960 . S
C3686 H3673 0.961 . S
C3686 H3674 0.959 . S
C3686 C3684 1.561 1_655 S
C3687 C3684 1.526 . S
C3687 C3688 1.396 . S
C3687 C3692 1.390 . S
C3688 C3682 1.465 . S
C3688 C3687 1.396 . S
C3688 C3689 1.399 . S
C3689 H3675 0.929 . S
C3689 C3688 1.399 . S
C3689 C3690 1.385 . S
C3690 H3676 0.931 . S
C3690 C3689 1.385 . S
C3690 C3691 1.389 . S
C3691 C3690 1.389 . S
C3691 C3692 1.387 . S
C3692 H3677 0.930 . S
C3692 C3687 1.390 . S
C3692 C3691 1.387 . S
H3693 C3705 0.930 . S
H3694 C3707 0.930 . S
H3695 C3708 0.930 . S
H3696 C3712 0.959 . S
H3697 C3712 0.959 . S
H3698 C3712 0.961 . S
H3699 C3713 0.960 . S
H3700 C3713 0.961 . S
H3701 C3713 0.959 . S
H3702 C3716 0.929 . S
H3703 C3717 0.931 . S
H3704 C3719 0.930 . S
C3705 H3693 0.930 . S
C3705 C3706 1.399 . S
C3705 C3710 1.399 . S
C3706 C3705 1.399 . S
C3706 C3707 1.376 . S
C3707 H3694 0.930 . S
C3707 C3706 1.376 . S
C3707 C3708 1.388 . S
C3708 H3695 0.930 . S
C3708 C3707 1.388 . S
C3708 C3709 1.390 . S
C3709 C3708 1.390 . S
C3709 C3710 1.394 . S
C3709 C3715 1.465 . S
C3710 C3705 1.399 . S
C3710 C3709 1.394 . S
C3710 C3711 1.516 . S
C3711 C3710 1.516 . S
C3711 C3712 1.502 . S
C3711 C3713 1.561 . S
C3711 C3714 1.526 . S
C3712 H3696 0.959 . S
C3712 H3697 0.959 . S
C3712 H3698 0.961 . S
C3712 C3711 1.502 . S
C3713 H3699 0.960 . S
C3713 H3700 0.961 . S
C3713 H3701 0.959 . S
C3713 C3711 1.561 . S
C3714 C3711 1.526 . S
C3714 C3715 1.396 . S
C3714 C3719 1.390 . S
C3715 C3709 1.465 . S
C3715 C3714 1.396 . S
C3715 C3716 1.399 . S
C3716 H3702 0.929 . S
C3716 C3715 1.399 . S
C3716 C3717 1.385 . S
C3717 H3703 0.931 . S
C3717 C3716 1.385 . S
C3717 C3718 1.389 . S
C3718 C3717 1.389 . S
C3718 C3719 1.387 . S
C3719 H3704 0.930 . S
C3719 C3714 1.390 . S
C3719 C3718 1.387 . S
H3720 C3732 0.930 . S
H3721 C3734 0.930 . S
H3722 C3735 0.930 . S
H3723 C3739 0.959 . S
H3724 C3739 0.959 . S
H3725 C3739 0.961 . S
H3726 C3740 0.960 . S
H3727 C3740 0.961 . S
H3728 C3740 0.959 . S
H3729 C3743 0.929 . S
H3730 C3744 0.931 . S
H3731 C3746 0.930 . S
C3732 H3720 0.930 . S
C3732 C3733 1.399 . S
C3732 C3737 1.399 . S
C3733 C3732 1.399 . S
C3733 C3734 1.376 . S
C3734 H3721 0.930 . S
C3734 C3733 1.376 . S
C3734 C3735 1.388 . S
C3735 H3722 0.930 . S
C3735 C3734 1.388 . S
C3735 C3736 1.390 . S
C3736 C3735 1.390 . S
C3736 C3737 1.394 . S
C3736 C3742 1.465 . S
C3737 C3732 1.399 . S
C3737 C3736 1.394 . S
C3737 C3738 1.516 . S
C3738 C3737 1.516 . S
C3738 C3739 1.502 . S
C3738 C3740 1.561 . S
C3738 C3741 1.526 . S
C3739 H3723 0.959 . S
C3739 H3724 0.959 . S
C3739 H3725 0.961 . S
C3739 C3738 1.502 . S
C3740 H3726 0.960 . S
C3740 H3727 0.961 . S
C3740 H3728 0.959 . S
C3740 C3738 1.561 . S
C3741 C3738 1.526 . S
C3741 C3742 1.396 . S
C3741 C3746 1.390 . S
C3742 C3736 1.465 . S
C3742 C3741 1.396 . S
C3742 C3743 1.399 . S
C3743 H3729 0.929 . S
C3743 C3742 1.399 . S
C3743 C3744 1.385 . S
C3744 H3730 0.931 . S
C3744 C3743 1.385 . S
C3744 C3745 1.389 . S
C3745 C3744 1.389 . S
C3745 C3746 1.387 . S
C3746 H3731 0.930 . S
C3746 C3741 1.390 . S
C3746 C3745 1.387 . S
H3747 C3759 0.930 . S
H3748 C3761 0.917 1_554 S
H3749 C3762 0.930 . S
H3750 C3766 0.959 . S
H3751 C3766 0.959 . S
H3752 C3766 0.961 . S
H3753 C3767 0.960 . S
H3754 C3767 0.961 . S
H3755 C3767 0.959 . S
H3756 C3770 0.929 . S
H3757 C3771 0.931 . S
H3758 C3773 0.930 . S
C3759 H3747 0.930 . S
C3759 C3760 1.381 1_556 S
C3759 C3764 1.399 . S
C3760 C3759 1.381 1_554 S
C3760 C3761 1.358 1_554 S
C3761 H3748 0.917 1_556 S
C3761 C3760 1.358 1_556 S
C3761 C3762 1.388 . S
C3762 H3749 0.930 . S
C3762 C3761 1.388 . S
C3762 C3763 1.390 . S
C3763 C3762 1.390 . S
C3763 C3764 1.394 . S
C3763 C3769 1.465 . S
C3764 C3759 1.399 . S
C3764 C3763 1.394 . S
C3764 C3765 1.516 . S
C3765 C3764 1.516 . S
C3765 C3766 1.502 . S
C3765 C3767 1.561 . S
C3765 C3768 1.526 . S
C3766 H3750 0.959 . S
C3766 H3751 0.959 . S
C3766 H3752 0.961 . S
C3766 C3765 1.502 . S
C3767 H3753 0.960 . S
C3767 H3754 0.961 . S
C3767 H3755 0.959 . S
C3767 C3765 1.561 . S
C3768 C3765 1.526 . S
C3768 C3769 1.396 . S
C3768 C3773 1.390 . S
C3769 C3763 1.465 . S
C3769 C3768 1.396 . S
C3769 C3770 1.399 . S
C3770 H3756 0.929 . S
C3770 C3769 1.399 . S
C3770 C3771 1.385 . S
C3771 H3757 0.931 . S
C3771 C3770 1.385 . S
C3771 C3772 1.389 . S
C3772 C3771 1.389 . S
C3772 C3773 1.387 . S
C3773 H3758 0.930 . S
C3773 C3768 1.390 . S
C3773 C3772 1.387 . S
H3774 C3786 0.930 . S
H3775 C3788 0.930 . S
H3776 C3789 0.930 . S
H3777 C3793 0.959 . S
H3778 C3793 0.959 . S
H3779 C3793 0.961 . S
H3780 C3794 0.960 . S
H3781 C3794 0.961 . S
H3782 C3794 0.959 . S
H3783 C3797 0.929 . S
H3784 C3798 0.931 . S
H3785 C3800 0.930 . S
C3786 H3774 0.930 . S
C3786 C3787 1.399 . S
C3786 C3791 1.399 . S
C3787 C3786 1.399 . S
C3787 C3788 1.376 . S
C3788 H3775 0.930 . S
C3788 C3787 1.376 . S
C3788 C3789 1.388 . S
C3789 H3776 0.930 . S
C3789 C3788 1.388 . S
C3789 C3790 1.390 . S
C3790 C3789 1.390 . S
C3790 C3791 1.394 . S
C3790 C3796 1.465 . S
C3791 C3786 1.399 . S
C3791 C3790 1.394 . S
C3791 C3792 1.516 . S
C3792 C3791 1.516 . S
C3792 C3793 1.502 . S
C3792 C3794 1.561 . S
C3792 C3795 1.526 . S
C3793 H3777 0.959 . S
C3793 H3778 0.959 . S
C3793 H3779 0.961 . S
C3793 C3792 1.502 . S
C3794 H3780 0.960 . S
C3794 H3781 0.961 . S
C3794 H3782 0.959 . S
C3794 C3792 1.561 . S
C3795 C3792 1.526 . S
C3795 C3796 1.396 . S
C3795 C3800 1.390 . S
C3796 C3790 1.465 . S
C3796 C3795 1.396 . S
C3796 C3797 1.399 . S
C3797 H3783 0.929 . S
C3797 C3796 1.399 . S
C3797 C3798 1.385 . S
C3798 H3784 0.931 . S
C3798 C3797 1.385 . S
C3798 C3799 1.389 . S
C3799 C3798 1.389 . S
C3799 C3800 1.387 . S
C3800 H3785 0.930 . S
C3800 C3795 1.390 . S
C3800 C3799 1.387 . S
H3801 C3813 0.930 . S
H3802 C3815 0.930 . S
H3803 C3816 0.930 . S
H3804 C3820 0.959 . S
H3805 C3820 0.959 . S
H3806 C3820 0.961 . S
H3807 C3821 0.960 . S
H3808 C3821 0.961 . S
H3809 C3821 0.959 . S
H3810 C3824 0.929 . S
H3811 C3825 0.931 . S
H3812 C3827 0.930 . S
C3813 H3801 0.930 . S
C3813 C3814 1.399 . S
C3813 C3818 1.399 . S
C3814 C3813 1.399 . S
C3814 C3815 1.376 . S
C3815 H3802 0.930 . S
C3815 C3814 1.376 . S
C3815 C3816 1.388 . S
C3816 H3803 0.930 . S
C3816 C3815 1.388 . S
C3816 C3817 1.390 . S
C3817 C3816 1.390 . S
C3817 C3818 1.394 . S
C3817 C3823 1.465 . S
C3818 C3813 1.399 . S
C3818 C3817 1.394 . S
C3818 C3819 1.516 . S
C3819 C3818 1.516 . S
C3819 C3820 1.502 . S
C3819 C3821 1.561 . S
C3819 C3822 1.526 . S
C3820 H3804 0.959 . S
C3820 H3805 0.959 . S
C3820 H3806 0.961 . S
C3820 C3819 1.502 . S
C3821 H3807 0.960 . S
C3821 H3808 0.961 . S
C3821 H3809 0.959 . S
C3821 C3819 1.561 . S
C3822 C3819 1.526 . S
C3822 C3823 1.396 . S
C3822 C3827 1.390 . S
C3823 C3817 1.465 . S
C3823 C3822 1.396 . S
C3823 C3824 1.399 . S
C3824 H3810 0.929 . S
C3824 C3823 1.399 . S
C3824 C3825 1.385 . S
C3825 H3811 0.931 . S
C3825 C3824 1.385 . S
C3825 C3826 1.389 . S
C3826 C3825 1.389 . S
C3826 C3827 1.387 . S
C3827 H3812 0.930 . S
C3827 C3822 1.390 . S
C3827 C3826 1.387 . S
H3828 C3840 0.930 . S
H3829 C3842 0.930 . S
H3830 C3843 0.930 . S
H3831 C3847 0.959 . S
H3832 C3847 0.959 . S
H3833 C3847 0.961 . S
H3834 C3848 0.960 . S
H3835 C3848 0.961 . S
H3836 C3848 0.959 . S
H3837 C3851 0.929 . S
H3838 C3852 0.931 . S
H3839 C3854 0.930 . S
C3840 H3828 0.930 . S
C3840 C3841 1.399 . S
C3840 C3845 1.399 . S
C3841 C3840 1.399 . S
C3841 C3842 1.376 . S
C3842 H3829 0.930 . S
C3842 C3841 1.376 . S
C3842 C3843 1.388 . S
C3843 H3830 0.930 . S
C3843 C3842 1.388 . S
C3843 C3844 1.390 . S
C3844 C3843 1.390 . S
C3844 C3845 1.394 . S
C3844 C3850 1.465 . S
C3845 C3840 1.399 . S
C3845 C3844 1.394 . S
C3845 C3846 1.516 . S
C3846 C3845 1.516 . S
C3846 C3847 1.502 . S
C3846 C3848 1.561 . S
C3846 C3849 1.526 . S
C3847 H3831 0.959 . S
C3847 H3832 0.959 . S
C3847 H3833 0.961 . S
C3847 C3846 1.502 . S
C3848 H3834 0.960 . S
C3848 H3835 0.961 . S
C3848 H3836 0.959 . S
C3848 C3846 1.561 . S
C3849 C3846 1.526 . S
C3849 C3850 1.396 . S
C3849 C3854 1.390 . S
C3850 C3844 1.465 . S
C3850 C3849 1.396 . S
C3850 C3851 1.399 . S
C3851 H3837 0.929 . S
C3851 C3850 1.399 . S
C3851 C3852 1.385 . S
C3852 H3838 0.931 . S
C3852 C3851 1.385 . S
C3852 C3853 1.389 . S
C3853 C3852 1.389 . S
C3853 C3854 1.387 . S
C3854 H3839 0.930 . S
C3854 C3849 1.390 . S
C3854 C3853 1.387 . S
H3855 C3867 0.930 . S
H3856 C3869 0.930 . S
H3857 C3870 0.930 . S
H3858 C3874 0.959 . S
H3859 C3874 0.959 . S
H3860 C3874 0.961 . S
H3861 C3875 0.960 . S
H3862 C3875 0.961 . S
H3863 C3875 0.959 . S
H3864 C3878 0.929 . S
H3865 C3879 0.931 . S
H3866 C3881 0.930 . S
C3867 H3855 0.930 . S
C3867 C3868 1.399 . S
C3867 C3872 1.399 . S
C3868 C3867 1.399 . S
C3868 C3869 1.376 . S
C3869 H3856 0.930 . S
C3869 C3868 1.376 . S
C3869 C3870 1.388 . S
C3870 H3857 0.930 . S
C3870 C3869 1.388 . S
C3870 C3871 1.390 . S
C3871 C3870 1.390 . S
C3871 C3872 1.394 . S
C3871 C3877 1.465 . S
C3872 C3867 1.399 . S
C3872 C3871 1.394 . S
C3872 C3873 1.516 . S
C3873 C3872 1.516 . S
C3873 C3874 1.502 . S
C3873 C3875 1.561 . S
C3873 C3876 1.526 . S
C3874 H3858 0.959 . S
C3874 H3859 0.959 . S
C3874 H3860 0.961 . S
C3874 C3873 1.502 . S
C3875 H3861 0.960 . S
C3875 H3862 0.961 . S
C3875 H3863 0.959 . S
C3875 C3873 1.561 . S
C3876 C3873 1.526 . S
C3876 C3877 1.396 . S
C3876 C3881 1.390 . S
C3877 C3871 1.465 . S
C3877 C3876 1.396 . S
C3877 C3878 1.399 . S
C3878 H3864 0.929 . S
C3878 C3877 1.399 . S
C3878 C3879 1.385 . S
C3879 H3865 0.931 . S
C3879 C3878 1.385 . S
C3879 C3880 1.389 . S
C3880 C3879 1.389 . S
C3880 C3881 1.387 . S
C3881 H3866 0.930 . S
C3881 C3876 1.390 . S
C3881 C3880 1.387 . S
H3882 C3894 0.930 . S
H3883 C3896 0.930 . S
H3884 C3897 0.930 . S
H3885 C3901 0.959 . S
H3886 C3901 0.959 . S
H3887 C3901 0.961 . S
H3888 C3902 0.960 . S
H3889 C3902 0.961 . S
H3890 C3902 0.959 . S
H3891 C3905 0.929 . S
H3892 C3906 0.931 . S
H3893 C3908 0.930 . S
C3894 H3882 0.930 . S
C3894 C3895 1.399 . S
C3894 C3899 1.399 . S
C3895 C3894 1.399 . S
C3895 C3896 1.376 . S
C3896 H3883 0.930 . S
C3896 C3895 1.376 . S
C3896 C3897 1.388 . S
C3897 H3884 0.930 . S
C3897 C3896 1.388 . S
C3897 C3898 1.390 . S
C3898 C3897 1.390 . S
C3898 C3899 1.394 . S
C3898 C3904 1.465 . S
C3899 C3894 1.399 . S
C3899 C3898 1.394 . S
C3899 C3900 1.516 . S
C3900 C3899 1.516 . S
C3900 C3901 1.502 . S
C3900 C3902 1.561 . S
C3900 C3903 1.526 . S
C3901 H3885 0.959 . S
C3901 H3886 0.959 . S
C3901 H3887 0.961 . S
C3901 C3900 1.502 . S
C3902 H3888 0.960 . S
C3902 H3889 0.961 . S
C3902 H3890 0.959 . S
C3902 C3900 1.561 . S
C3903 C3900 1.526 . S
C3903 C3904 1.396 . S
C3903 C3908 1.390 . S
C3904 C3898 1.465 . S
C3904 C3903 1.396 . S
C3904 C3905 1.399 . S
C3905 H3891 0.929 . S
C3905 C3904 1.399 . S
C3905 C3906 1.385 . S
C3906 H3892 0.931 . S
C3906 C3905 1.385 . S
C3906 C3907 1.389 . S
C3907 C3906 1.389 . S
C3907 C3908 1.387 . S
C3908 H3893 0.930 . S
C3908 C3903 1.390 . S
C3908 C3907 1.387 . S
H3909 C3921 0.930 . S
H3910 C3923 0.930 . S
H3911 C3924 0.930 . S
H3912 C3928 0.959 . S
H3913 C3928 0.959 . S
H3914 C3928 0.961 . S
H3915 C3929 0.960 . S
H3916 C3929 0.961 . S
H3917 C3929 0.959 . S
H3918 C3932 0.929 . S
H3919 C3933 0.931 . S
H3920 C3935 0.930 . S
C3921 H3909 0.930 . S
C3921 C3922 1.399 . S
C3921 C3926 1.399 . S
C3922 C3921 1.399 . S
C3922 C3923 1.376 . S
C3923 H3910 0.930 . S
C3923 C3922 1.376 . S
C3923 C3924 1.388 . S
C3924 H3911 0.930 . S
C3924 C3923 1.388 . S
C3924 C3925 1.390 . S
C3925 C3924 1.390 . S
C3925 C3926 1.394 . S
C3925 C3931 1.465 . S
C3926 C3921 1.399 . S
C3926 C3925 1.394 . S
C3926 C3927 1.516 . S
C3927 C3926 1.516 . S
C3927 C3928 1.502 . S
C3927 C3929 1.561 . S
C3927 C3930 1.526 . S
C3928 H3912 0.959 . S
C3928 H3913 0.959 . S
C3928 H3914 0.961 . S
C3928 C3927 1.502 . S
C3929 H3915 0.960 . S
C3929 H3916 0.961 . S
C3929 H3917 0.959 . S
C3929 C3927 1.561 . S
C3930 C3927 1.526 . S
C3930 C3931 1.396 . S
C3930 C3935 1.390 . S
C3931 C3925 1.465 . S
C3931 C3930 1.396 . S
C3931 C3932 1.399 . S
C3932 H3918 0.929 . S
C3932 C3931 1.399 . S
C3932 C3933 1.385 . S
C3933 H3919 0.931 . S
C3933 C3932 1.385 . S
C3933 C3934 1.389 . S
C3934 C3933 1.389 . S
C3934 C3935 1.387 . S
C3935 H3920 0.930 . S
C3935 C3930 1.390 . S
C3935 C3934 1.387 . S
H3936 C3948 0.930 . S
H3937 C3950 0.930 . S
H3938 C3951 0.930 . S
H3939 C3955 0.959 . S
H3940 C3955 0.959 . S
H3941 C3955 0.961 . S
H3942 C3956 0.960 . S
H3943 C3956 0.961 . S
H3944 C3956 0.959 . S
H3945 C3959 0.929 . S
H3946 C3960 0.931 . S
H3947 C3962 0.930 . S
C3948 H3936 0.930 . S
C3948 C3949 1.399 . S
C3948 C3953 1.399 . S
C3949 C3948 1.399 . S
C3949 C3950 1.376 . S
C3950 H3937 0.930 . S
C3950 C3949 1.376 . S
C3950 C3951 1.388 . S
C3951 H3938 0.930 . S
C3951 C3950 1.388 . S
C3951 C3952 1.390 . S
C3952 C3951 1.390 . S
C3952 C3953 1.394 . S
C3952 C3958 1.465 . S
C3953 C3948 1.399 . S
C3953 C3952 1.394 . S
C3953 C3954 1.516 . S
C3954 C3953 1.516 . S
C3954 C3955 1.502 . S
C3954 C3956 1.561 . S
C3954 C3957 1.526 . S
C3955 H3939 0.959 . S
C3955 H3940 0.959 . S
C3955 H3941 0.961 . S
C3955 C3954 1.502 . S
C3956 H3942 0.960 . S
C3956 H3943 0.961 . S
C3956 H3944 0.959 . S
C3956 C3954 1.561 . S
C3957 C3954 1.526 . S
C3957 C3958 1.396 . S
C3957 C3962 1.390 . S
C3958 C3952 1.465 . S
C3958 C3957 1.396 . S
C3958 C3959 1.399 . S
C3959 H3945 0.929 . S
C3959 C3958 1.399 . S
C3959 C3960 1.385 . S
C3960 H3946 0.931 . S
C3960 C3959 1.385 . S
C3960 C3961 1.389 . S
C3961 C3960 1.389 . S
C3961 C3962 1.387 . S
C3962 H3947 0.930 . S
C3962 C3957 1.390 . S
C3962 C3961 1.387 . S
H3963 C3975 0.930 . S
H3964 C3977 0.930 . S
H3965 C3978 0.930 . S
H3966 C3982 0.959 . S
H3967 C3982 0.959 . S
H3968 C3982 0.961 . S
H3969 C3983 0.960 . S
H3970 C3983 0.961 . S
H3971 C3983 0.959 . S
H3972 C3986 0.929 . S
H3973 C3987 0.931 . S
H3974 C3989 0.930 . S
C3975 H3963 0.930 . S
C3975 C3976 1.399 . S
C3975 C3980 1.399 . S
C3976 C3975 1.399 . S
C3976 C3977 1.376 . S
C3977 H3964 0.930 . S
C3977 C3976 1.376 . S
C3977 C3978 1.388 . S
C3978 H3965 0.930 . S
C3978 C3977 1.388 . S
C3978 C3979 1.390 . S
C3979 C3978 1.390 . S
C3979 C3980 1.394 . S
C3979 C3985 1.465 . S
C3980 C3975 1.399 . S
C3980 C3979 1.394 . S
C3980 C3981 1.516 . S
C3981 C3980 1.516 . S
C3981 C3982 1.502 . S
C3981 C3983 1.561 . S
C3981 C3984 1.526 . S
C3982 H3966 0.959 . S
C3982 H3967 0.959 . S
C3982 H3968 0.961 . S
C3982 C3981 1.502 . S
C3983 H3969 0.960 . S
C3983 H3970 0.961 . S
C3983 H3971 0.959 . S
C3983 C3981 1.561 . S
C3984 C3981 1.526 . S
C3984 C3985 1.396 . S
C3984 C3989 1.390 . S
C3985 C3979 1.465 . S
C3985 C3984 1.396 . S
C3985 C3986 1.399 . S
C3986 H3972 0.929 . S
C3986 C3985 1.399 . S
C3986 C3987 1.385 . S
C3987 H3973 0.931 . S
C3987 C3986 1.385 . S
C3987 C3988 1.389 . S
C3988 C3987 1.389 . S
C3988 C3989 1.387 . S
C3989 H3974 0.930 . S
C3989 C3984 1.390 . S
C3989 C3988 1.387 . S
H3990 C4002 0.930 . S
H3991 C4004 0.930 1_545 S
H3992 C4005 0.930 . S
H3993 C4009 0.959 . S
H3994 C4009 0.959 . S
H3995 C4009 0.961 . S
H3996 C4010 0.960 . S
H3997 C4010 0.961 . S
H3998 C4010 0.959 . S
H3999 C4013 0.929 . S
H4000 C4014 0.931 . S
H4001 C4016 0.930 . S
C4002 H3990 0.930 . S
C4002 C4003 1.399 . S
C4002 C4007 1.399 . S
C4003 C4002 1.399 . S
C4003 C4004 1.376 . S
C4004 H3991 0.930 1_565 S
C4004 C4003 1.376 . S
C4004 C4005 1.388 . S
C4005 H3992 0.930 . S
C4005 C4004 1.388 . S
C4005 C4006 1.390 . S
C4006 C4005 1.390 . S
C4006 C4007 1.394 . S
C4006 C4012 1.465 . S
C4007 C4002 1.399 . S
C4007 C4006 1.394 . S
C4007 C4008 1.516 . S
C4008 C4007 1.516 . S
C4008 C4009 1.502 . S
C4008 C4010 1.561 . S
C4008 C4011 1.526 . S
C4009 H3993 0.959 . S
C4009 H3994 0.959 . S
C4009 H3995 0.961 . S
C4009 C4008 1.502 . S
C4010 H3996 0.960 . S
C4010 H3997 0.961 . S
C4010 H3998 0.959 . S
C4010 C4008 1.561 . S
C4011 C4008 1.526 . S
C4011 C4012 1.396 . S
C4011 C4016 1.390 . S
C4012 C4006 1.465 . S
C4012 C4011 1.396 . S
C4012 C4013 1.399 . S
C4013 H3999 0.929 . S
C4013 C4012 1.399 . S
C4013 C4014 1.385 . S
C4014 H4000 0.931 . S
C4014 C4013 1.385 . S
C4014 C4015 1.389 . S
C4015 C4014 1.389 . S
C4015 C4016 1.387 . S
C4016 H4001 0.930 . S
C4016 C4011 1.390 . S
C4016 C4015 1.387 . S
H4017 C4029 0.930 . S
H4018 C4031 0.930 . S
H4019 C4032 0.930 . S
H4020 C4036 0.959 . S
H4021 C4036 0.959 . S
H4022 C4036 0.961 . S
H4023 C4037 0.954 1_565 S
H4024 C4037 0.968 . S
H4025 C4037 0.992 . S
H4026 C4040 0.929 . S
H4027 C4041 0.931 . S
H4028 C4043 0.930 1_556 S
C4029 H4017 0.930 . S
C4029 C4030 1.399 1_556 S
C4029 C4034 1.399 1_556 S
C4030 C4029 1.399 1_554 S
C4030 C4031 1.376 . S
C4031 H4018 0.930 . S
C4031 C4030 1.376 . S
C4031 C4032 1.388 . S
C4032 H4019 0.930 . S
C4032 C4031 1.388 . S
C4032 C4033 1.390 . S
C4033 C4032 1.390 . S
C4033 C4034 1.394 . S
C4033 C4039 1.465 . S
C4034 C4029 1.399 1_554 S
C4034 C4033 1.394 . S
C4034 C4035 1.516 1_554 S
C4035 C4034 1.516 1_556 S
C4035 C4036 1.502 . S
C4035 C4037 1.528 1_565 S
C4035 C4038 1.526 1_556 S
C4036 H4020 0.959 . S
C4036 H4021 0.959 . S
C4036 H4022 0.961 . S
C4036 C4035 1.502 . S
C4037 H4023 0.954 1_545 S
C4037 H4024 0.968 . S
C4037 H4025 0.992 . S
C4037 C4035 1.528 1_545 S
C4038 C4035 1.526 1_554 S
C4038 C4039 1.396 . S
C4038 C4043 1.390 1_565 S
C4039 C4033 1.465 . S
C4039 C4038 1.396 . S
C4039 C4040 1.399 1_565 S
C4040 H4026 0.929 . S
C4040 C4039 1.399 1_545 S
C4040 C4041 1.385 . S
C4041 H4027 0.931 . S
C4041 C4040 1.385 . S
C4041 C4042 1.389 . S
C4042 C4041 1.389 . S
C4042 C4043 1.387 . S
C4043 H4028 0.930 1_554 S
C4043 C4038 1.390 1_545 S
C4043 C4042 1.387 . S
H4044 C4056 0.930 . S
H4045 C4058 0.930 . S
H4046 C4059 0.930 . S
H4047 C4063 0.959 . S
H4048 C4063 0.959 . S
H4049 C4063 0.961 . S
H4050 C4064 0.960 . S
H4051 C4064 0.961 . S
H4052 C4064 0.959 . S
H4053 C4067 0.929 . S
H4054 C4068 0.931 . S
H4055 C4070 0.930 . S
C4056 H4044 0.930 . S
C4056 C4057 1.399 . S
C4056 C4061 1.399 . S
C4057 C4056 1.399 . S
C4057 C4058 1.376 . S
C4058 H4045 0.930 . S
C4058 C4057 1.376 . S
C4058 C4059 1.388 . S
C4059 H4046 0.930 . S
C4059 C4058 1.388 . S
C4059 C4060 1.390 . S
C4060 C4059 1.390 . S
C4060 C4061 1.394 . S
C4060 C4066 1.465 . S
C4061 C4056 1.399 . S
C4061 C4060 1.394 . S
C4061 C4062 1.516 . S
C4062 C4061 1.516 . S
C4062 C4063 1.502 . S
C4062 C4064 1.561 . S
C4062 C4065 1.526 . S
C4063 H4047 0.959 . S
C4063 H4048 0.959 . S
C4063 H4049 0.961 . S
C4063 C4062 1.502 . S
C4064 H4050 0.960 . S
C4064 H4051 0.961 . S
C4064 H4052 0.959 . S
C4064 C4062 1.561 . S
C4065 C4062 1.526 . S
C4065 C4066 1.396 . S
C4065 C4070 1.390 . S
C4066 C4060 1.465 . S
C4066 C4065 1.396 . S
C4066 C4067 1.399 . S
C4067 H4053 0.929 . S
C4067 C4066 1.399 . S
C4067 C4068 1.385 . S
C4068 H4054 0.931 . S
C4068 C4067 1.385 . S
C4068 C4069 1.389 . S
C4069 C4068 1.389 . S
C4069 C4070 1.387 . S
C4070 H4055 0.930 . S
C4070 C4065 1.390 . S
C4070 C4069 1.387 . S
H4071 C4083 0.930 1_556 S
H4072 C4085 0.930 . S
H4073 C4086 0.930 . S
H4074 C4090 0.959 . S
H4075 C4090 0.969 . S
H4076 C4090 0.949 1_556 S
H4077 C4091 0.960 . S
H4078 C4091 0.961 . S
H4079 C4091 0.959 . S
H4080 C4094 0.929 . S
H4081 C4095 0.931 . S
H4082 C4097 0.930 . S
C4083 H4071 0.930 1_554 S
C4083 C4084 1.399 . S
C4083 C4088 1.399 . S
C4084 C4083 1.399 . S
C4084 C4085 1.376 . S
C4085 H4072 0.930 . S
C4085 C4084 1.376 . S
C4085 C4086 1.388 . S
C4086 H4073 0.930 . S
C4086 C4085 1.388 . S
C4086 C4087 1.390 . S
C4087 C4086 1.390 . S
C4087 C4088 1.394 . S
C4087 C4093 1.465 . S
C4088 C4083 1.399 . S
C4088 C4087 1.394 . S
C4088 C4089 1.516 . S
C4089 C4088 1.516 . S
C4089 C4090 1.502 . S
C4089 C4091 1.561 1_554 S
C4089 C4092 1.526 . S
C4090 H4074 0.959 . S
C4090 H4075 0.969 . S
C4090 H4076 0.949 1_554 S
C4090 C4089 1.502 . S
C4091 H4077 0.960 . S
C4091 H4078 0.961 . S
C4091 H4079 0.959 . S
C4091 C4089 1.561 1_556 S
C4092 C4089 1.526 . S
C4092 C4093 1.396 . S
C4092 C4097 1.390 . S
C4093 C4087 1.465 . S
C4093 C4092 1.396 . S
C4093 C4094 1.399 . S
C4094 H4080 0.929 . S
C4094 C4093 1.399 . S
C4094 C4095 1.385 . S
C4095 H4081 0.931 . S
C4095 C4094 1.385 . S
C4095 C4096 1.389 . S
C4096 C4095 1.389 . S
C4096 C4097 1.387 . S
C4097 H4082 0.930 . S
C4097 C4092 1.390 . S
C4097 C4096 1.387 . S
H4098 C4110 0.930 . S
H4099 C4112 0.930 . S
H4100 C4113 0.930 . S
H4101 C4117 0.959 . S
H4102 C4117 0.959 . S
H4103 C4117 0.961 . S
H4104 C4118 0.960 . S
H4105 C4118 0.961 . S
H4106 C4118 0.959 . S
H4107 C4121 0.929 . S
H4108 C4122 0.931 . S
H4109 C4124 0.930 . S
C4110 H4098 0.930 . S
C4110 C4111 1.399 . S
C4110 C4115 1.399 . S
C4111 C4110 1.399 . S
C4111 C4112 1.376 . S
C4112 H4099 0.930 . S
C4112 C4111 1.376 . S
C4112 C4113 1.388 . S
C4113 H4100 0.930 . S
C4113 C4112 1.388 . S
C4113 C4114 1.390 . S
C4114 C4113 1.390 . S
C4114 C4115 1.394 . S
C4114 C4120 1.465 . S
C4115 C4110 1.399 . S
C4115 C4114 1.394 . S
C4115 C4116 1.516 . S
C4116 C4115 1.516 . S
C4116 C4117 1.502 . S
C4116 C4118 1.561 . S
C4116 C4119 1.526 . S
C4117 H4101 0.959 . S
C4117 H4102 0.959 . S
C4117 H4103 0.961 . S
C4117 C4116 1.502 . S
C4118 H4104 0.960 . S
C4118 H4105 0.961 . S
C4118 H4106 0.959 . S
C4118 C4116 1.561 . S
C4119 C4116 1.526 . S
C4119 C4120 1.396 . S
C4119 C4124 1.390 . S
C4120 C4114 1.465 . S
C4120 C4119 1.396 . S
C4120 C4121 1.399 . S
C4121 H4107 0.929 . S
C4121 C4120 1.399 . S
C4121 C4122 1.385 . S
C4122 H4108 0.931 . S
C4122 C4121 1.385 . S
C4122 C4123 1.389 . S
C4123 C4122 1.389 . S
C4123 C4124 1.387 . S
C4124 H4109 0.930 . S
C4124 C4119 1.390 . S
C4124 C4123 1.387 . S
H4125 C4137 0.930 . S
H4126 C4139 0.930 . S
H4127 C4140 0.930 . S
H4128 C4144 0.959 . S
H4129 C4144 0.959 . S
H4130 C4144 0.961 . S
H4131 C4145 0.960 . S
H4132 C4145 0.961 . S
H4133 C4145 0.959 . S
H4134 C4148 0.929 . S
H4135 C4149 0.931 . S
H4136 C4151 0.930 . S
C4137 H4125 0.930 . S
C4137 C4138 1.399 . S
C4137 C4142 1.399 . S
C4138 C4137 1.399 . S
C4138 C4139 1.376 . S
C4139 H4126 0.930 . S
C4139 C4138 1.376 . S
C4139 C4140 1.388 . S
C4140 H4127 0.930 . S
C4140 C4139 1.388 . S
C4140 C4141 1.390 . S
C4141 C4140 1.390 . S
C4141 C4142 1.394 . S
C4141 C4147 1.465 . S
C4142 C4137 1.399 . S
C4142 C4141 1.394 . S
C4142 C4143 1.516 . S
C4143 C4142 1.516 . S
C4143 C4144 1.502 . S
C4143 C4145 1.561 . S
C4143 C4146 1.526 . S
C4144 H4128 0.959 . S
C4144 H4129 0.959 . S
C4144 H4130 0.961 . S
C4144 C4143 1.502 . S
C4145 H4131 0.960 . S
C4145 H4132 0.961 . S
C4145 H4133 0.959 . S
C4145 C4143 1.561 . S
C4146 C4143 1.526 . S
C4146 C4147 1.396 . S
C4146 C4151 1.390 . S
C4147 C4141 1.465 . S
C4147 C4146 1.396 . S
C4147 C4148 1.399 . S
C4148 H4134 0.929 . S
C4148 C4147 1.399 . S
C4148 C4149 1.385 . S
C4149 H4135 0.931 . S
C4149 C4148 1.385 . S
C4149 C4150 1.389 . S
C4150 C4149 1.389 . S
C4150 C4151 1.387 . S
C4151 H4136 0.930 . S
C4151 C4146 1.390 . S
C4151 C4150 1.387 . S
H4152 C4164 0.930 . S
H4153 C4166 0.930 . S
H4154 C4167 0.930 . S
H4155 C4171 0.959 . S
H4156 C4171 0.959 . S
H4157 C4171 0.961 . S
H4158 C4172 0.960 . S
H4159 C4172 0.961 . S
H4160 C4172 0.959 . S
H4161 C4175 0.929 . S
H4162 C4176 0.931 . S
H4163 C4178 0.930 . S
C4164 H4152 0.930 . S
C4164 C4165 1.399 . S
C4164 C4169 1.399 . S
C4165 C4164 1.399 . S
C4165 C4166 1.376 . S
C4166 H4153 0.930 . S
C4166 C4165 1.376 . S
C4166 C4167 1.388 . S
C4167 H4154 0.930 . S
C4167 C4166 1.388 . S
C4167 C4168 1.390 . S
C4168 C4167 1.390 . S
C4168 C4169 1.394 . S
C4168 C4174 1.465 . S
C4169 C4164 1.399 . S
C4169 C4168 1.394 . S
C4169 C4170 1.516 . S
C4170 C4169 1.516 . S
C4170 C4171 1.502 . S
C4170 C4172 1.561 . S
C4170 C4173 1.526 . S
C4171 H4155 0.959 . S
C4171 H4156 0.959 . S
C4171 H4157 0.961 . S
C4171 C4170 1.502 . S
C4172 H4158 0.960 . S
C4172 H4159 0.961 . S
C4172 H4160 0.959 . S
C4172 C4170 1.561 . S
C4173 C4170 1.526 . S
C4173 C4174 1.396 . S
C4173 C4178 1.390 . S
C4174 C4168 1.465 . S
C4174 C4173 1.396 . S
C4174 C4175 1.399 . S
C4175 H4161 0.929 . S
C4175 C4174 1.399 . S
C4175 C4176 1.385 . S
C4176 H4162 0.931 . S
C4176 C4175 1.385 . S
C4176 C4177 1.389 . S
C4177 C4176 1.389 . S
C4177 C4178 1.387 . S
C4178 H4163 0.930 . S
C4178 C4173 1.390 . S
C4178 C4177 1.387 . S
H4179 C4191 0.930 . S
H4180 C4193 0.930 . S
H4181 C4194 0.930 . S
H4182 C4198 0.959 . S
H4183 C4198 0.959 . S
H4184 C4198 0.961 . S
H4185 C4199 0.960 . S
H4186 C4199 0.961 . S
H4187 C4199 0.959 . S
H4188 C4202 0.929 . S
H4189 C4203 0.931 . S
H4190 C4205 0.930 . S
C4191 H4179 0.930 . S
C4191 C4192 1.399 . S
C4191 C4196 1.399 . S
C4192 C4191 1.399 . S
C4192 C4193 1.376 . S
C4193 H4180 0.930 . S
C4193 C4192 1.376 . S
C4193 C4194 1.388 . S
C4194 H4181 0.930 . S
C4194 C4193 1.388 . S
C4194 C4195 1.390 . S
C4195 C4194 1.390 . S
C4195 C4196 1.394 . S
C4195 C4201 1.465 . S
C4196 C4191 1.399 . S
C4196 C4195 1.394 . S
C4196 C4197 1.516 . S
C4197 C4196 1.516 . S
C4197 C4198 1.502 . S
C4197 C4199 1.561 . S
C4197 C4200 1.526 . S
C4198 H4182 0.959 . S
C4198 H4183 0.959 . S
C4198 H4184 0.961 . S
C4198 C4197 1.502 . S
C4199 H4185 0.960 . S
C4199 H4186 0.961 . S
C4199 H4187 0.959 . S
C4199 C4197 1.561 . S
C4200 C4197 1.526 . S
C4200 C4201 1.396 . S
C4200 C4205 1.390 . S
C4201 C4195 1.465 . S
C4201 C4200 1.396 . S
C4201 C4202 1.399 . S
C4202 H4188 0.929 . S
C4202 C4201 1.399 . S
C4202 C4203 1.385 . S
C4203 H4189 0.931 . S
C4203 C4202 1.385 . S
C4203 C4204 1.389 . S
C4204 C4203 1.389 . S
C4204 C4205 1.387 . S
C4205 H4190 0.930 . S
C4205 C4200 1.390 . S
C4205 C4204 1.387 . S
H4206 C4218 0.930 . S
H4207 C4220 0.930 . S
H4208 C4221 0.930 . S
H4209 C4225 0.959 . S
H4210 C4225 0.959 . S
H4211 C4225 0.961 . S
H4212 C4226 0.960 . S
H4213 C4226 0.961 . S
H4214 C4226 0.959 . S
H4215 C4229 0.929 . S
H4216 C4230 0.931 . S
H4217 C4232 0.930 . S
C4218 H4206 0.930 . S
C4218 C4219 1.399 . S
C4218 C4223 1.399 . S
C4219 C4218 1.399 . S
C4219 C4220 1.376 . S
C4220 H4207 0.930 . S
C4220 C4219 1.376 . S
C4220 C4221 1.388 . S
C4221 H4208 0.930 . S
C4221 C4220 1.388 . S
C4221 C4222 1.390 . S
C4222 C4221 1.390 . S
C4222 C4223 1.394 . S
C4222 C4228 1.465 . S
C4223 C4218 1.399 . S
C4223 C4222 1.394 . S
C4223 C4224 1.516 . S
C4224 C4223 1.516 . S
C4224 C4225 1.502 . S
C4224 C4226 1.561 . S
C4224 C4227 1.526 . S
C4225 H4209 0.959 . S
C4225 H4210 0.959 . S
C4225 H4211 0.961 . S
C4225 C4224 1.502 . S
C4226 H4212 0.960 . S
C4226 H4213 0.961 . S
C4226 H4214 0.959 . S
C4226 C4224 1.561 . S
C4227 C4224 1.526 . S
C4227 C4228 1.396 . S
C4227 C4232 1.390 . S
C4228 C4222 1.465 . S
C4228 C4227 1.396 . S
C4228 C4229 1.399 . S
C4229 H4215 0.929 . S
C4229 C4228 1.399 . S
C4229 C4230 1.385 . S
C4230 H4216 0.931 . S
C4230 C4229 1.385 . S
C4230 C4231 1.389 . S
C4231 C4230 1.389 . S
C4231 C4232 1.387 . S
C4232 H4217 0.930 . S
C4232 C4227 1.390 . S
C4232 C4231 1.387 . S
H4233 C4245 0.930 . S
H4234 C4247 0.930 . S
H4235 C4248 0.930 . S
H4236 C4252 0.959 . S
H4237 C4252 0.959 . S
H4238 C4252 0.961 . S
H4239 C4253 0.960 . S
H4240 C4253 0.961 . S
H4241 C4253 0.959 . S
H4242 C4256 0.929 . S
H4243 C4257 0.931 . S
H4244 C4259 0.930 . S
C4245 H4233 0.930 . S
C4245 C4246 1.399 . S
C4245 C4250 1.399 . S
C4246 C4245 1.399 . S
C4246 C4247 1.376 . S
C4247 H4234 0.930 . S
C4247 C4246 1.376 . S
C4247 C4248 1.388 . S
C4248 H4235 0.930 . S
C4248 C4247 1.388 . S
C4248 C4249 1.390 . S
C4249 C4248 1.390 . S
C4249 C4250 1.394 . S
C4249 C4255 1.465 . S
C4250 C4245 1.399 . S
C4250 C4249 1.394 . S
C4250 C4251 1.516 . S
C4251 C4250 1.516 . S
C4251 C4252 1.502 . S
C4251 C4253 1.561 . S
C4251 C4254 1.526 . S
C4252 H4236 0.959 . S
C4252 H4237 0.959 . S
C4252 H4238 0.961 . S
C4252 C4251 1.502 . S
C4253 H4239 0.960 . S
C4253 H4240 0.961 . S
C4253 H4241 0.959 . S
C4253 C4251 1.561 . S
C4254 C4251 1.526 . S
C4254 C4255 1.396 . S
C4254 C4259 1.390 . S
C4255 C4249 1.465 . S
C4255 C4254 1.396 . S
C4255 C4256 1.399 . S
C4256 H4242 0.929 . S
C4256 C4255 1.399 . S
C4256 C4257 1.385 . S
C4257 H4243 0.931 . S
C4257 C4256 1.385 . S
C4257 C4258 1.389 . S
C4258 C4257 1.389 . S
C4258 C4259 1.387 . S
C4259 H4244 0.930 . S
C4259 C4254 1.390 . S
C4259 C4258 1.387 . S
H4260 C4272 0.930 . S
H4261 C4274 0.930 . S
H4262 C4275 0.930 . S
H4263 C4279 0.959 . S
H4264 C4279 0.959 . S
H4265 C4279 0.961 . S
H4266 C4280 0.960 . S
H4267 C4280 0.961 . S
H4268 C4280 0.959 . S
H4269 C4283 0.929 . S
H4270 C4284 0.931 . S
H4271 C4286 0.930 . S
C4272 H4260 0.930 . S
C4272 C4273 1.399 . S
C4272 C4277 1.399 . S
C4273 C4272 1.399 . S
C4273 C4274 1.376 . S
C4274 H4261 0.930 . S
C4274 C4273 1.376 . S
C4274 C4275 1.388 . S
C4275 H4262 0.930 . S
C4275 C4274 1.388 . S
C4275 C4276 1.390 . S
C4276 C4275 1.390 . S
C4276 C4277 1.394 . S
C4276 C4282 1.465 . S
C4277 C4272 1.399 . S
C4277 C4276 1.394 . S
C4277 C4278 1.516 . S
C4278 C4277 1.516 . S
C4278 C4279 1.502 . S
C4278 C4280 1.561 . S
C4278 C4281 1.526 . S
C4279 H4263 0.959 . S
C4279 H4264 0.959 . S
C4279 H4265 0.961 . S
C4279 C4278 1.502 . S
C4280 H4266 0.960 . S
C4280 H4267 0.961 . S
C4280 H4268 0.959 . S
C4280 C4278 1.561 . S
C4281 C4278 1.526 . S
C4281 C4282 1.396 . S
C4281 C4286 1.390 . S
C4282 C4276 1.465 . S
C4282 C4281 1.396 . S
C4282 C4283 1.399 . S
C4283 H4269 0.929 . S
C4283 C4282 1.399 . S
C4283 C4284 1.385 . S
C4284 H4270 0.931 . S
C4284 C4283 1.385 . S
C4284 C4285 1.389 . S
C4285 C4284 1.389 . S
C4285 C4286 1.387 . S
C4286 H4271 0.930 . S
C4286 C4281 1.390 . S
C4286 C4285 1.387 . S
H4287 C4299 0.930 . S
H4288 C4301 0.930 . S
H4289 C4302 0.930 . S
H4290 C4306 0.959 . S
H4291 C4306 0.959 . S
H4292 C4306 0.961 . S
H4293 C4307 0.960 . S
H4294 C4307 0.961 . S
H4295 C4307 0.959 . S
H4296 C4310 0.929 . S
H4297 C4311 0.931 . S
H4298 C4313 0.930 . S
C4299 H4287 0.930 . S
C4299 C4300 1.399 . S
C4299 C4304 1.399 . S
C4300 C4299 1.399 . S
C4300 C4301 1.376 . S
C4301 H4288 0.930 . S
C4301 C4300 1.376 . S
C4301 C4302 1.388 . S
C4302 H4289 0.930 . S
C4302 C4301 1.388 . S
C4302 C4303 1.390 . S
C4303 C4302 1.390 . S
C4303 C4304 1.394 . S
C4303 C4309 1.465 . S
C4304 C4299 1.399 . S
C4304 C4303 1.394 . S
C4304 C4305 1.516 . S
C4305 C4304 1.516 . S
C4305 C4306 1.502 . S
C4305 C4307 1.561 . S
C4305 C4308 1.526 . S
C4306 H4290 0.959 . S
C4306 H4291 0.959 . S
C4306 H4292 0.961 . S
C4306 C4305 1.502 . S
C4307 H4293 0.960 . S
C4307 H4294 0.961 . S
C4307 H4295 0.959 . S
C4307 C4305 1.561 . S
C4308 C4305 1.526 . S
C4308 C4309 1.396 . S
C4308 C4313 1.390 . S
C4309 C4303 1.465 . S
C4309 C4308 1.396 . S
C4309 C4310 1.399 . S
C4310 H4296 0.929 . S
C4310 C4309 1.399 . S
C4310 C4311 1.385 . S
C4311 H4297 0.931 . S
C4311 C4310 1.385 . S
C4311 C4312 1.389 . S
C4312 C4311 1.389 . S
C4312 C4313 1.387 . S
C4313 H4298 0.930 . S
C4313 C4308 1.390 . S
C4313 C4312 1.387 . S
H4314 C4326 0.930 . S
H4315 C4328 0.930 . S
H4316 C4329 0.930 . S
H4317 C4333 0.959 . S
H4318 C4333 0.959 . S
H4319 C4333 0.961 . S
H4320 C4334 0.960 . S
H4321 C4334 0.961 . S
H4322 C4334 0.959 . S
H4323 C4337 0.929 . S
H4324 C4338 0.931 . S
H4325 C4340 0.930 . S
C4326 H4314 0.930 . S
C4326 C4327 1.399 . S
C4326 C4331 1.399 . S
C4327 C4326 1.399 . S
C4327 C4328 1.376 . S
C4328 H4315 0.930 . S
C4328 C4327 1.376 . S
C4328 C4329 1.388 . S
C4329 H4316 0.930 . S
C4329 C4328 1.388 . S
C4329 C4330 1.390 . S
C4330 C4329 1.390 . S
C4330 C4331 1.394 . S
C4330 C4336 1.465 . S
C4331 C4326 1.399 . S
C4331 C4330 1.394 . S
C4331 C4332 1.516 . S
C4332 C4331 1.516 . S
C4332 C4333 1.502 . S
C4332 C4334 1.561 . S
C4332 C4335 1.526 . S
C4333 H4317 0.959 . S
C4333 H4318 0.959 . S
C4333 H4319 0.961 . S
C4333 C4332 1.502 . S
C4334 H4320 0.960 . S
C4334 H4321 0.961 . S
C4334 H4322 0.959 . S
C4334 C4332 1.561 . S
C4335 C4332 1.526 . S
C4335 C4336 1.396 . S
C4335 C4340 1.390 . S
C4336 C4330 1.465 . S
C4336 C4335 1.396 . S
C4336 C4337 1.399 . S
C4337 H4323 0.929 . S
C4337 C4336 1.399 . S
C4337 C4338 1.385 . S
C4338 H4324 0.931 . S
C4338 C4337 1.385 . S
C4338 C4339 1.389 . S
C4339 C4338 1.389 . S
C4339 C4340 1.387 . S
C4340 H4325 0.930 . S
C4340 C4335 1.390 . S
C4340 C4339 1.387 . S
H4341 C4353 0.930 . S
H4342 C4355 0.930 . S
H4343 C4356 0.930 . S
H4344 C4360 0.959 . S
H4345 C4360 0.959 . S
H4346 C4360 0.961 . S
H4347 C4361 0.960 . S
H4348 C4361 0.961 . S
H4349 C4361 0.959 . S
H4350 C4364 0.929 . S
H4351 C4365 0.931 . S
H4352 C4367 0.930 . S
C4353 H4341 0.930 . S
C4353 C4354 1.399 . S
C4353 C4358 1.399 . S
C4354 C4353 1.399 . S
C4354 C4355 1.376 . S
C4355 H4342 0.930 . S
C4355 C4354 1.376 . S
C4355 C4356 1.388 . S
C4356 H4343 0.930 . S
C4356 C4355 1.388 . S
C4356 C4357 1.390 . S
C4357 C4356 1.390 . S
C4357 C4358 1.394 . S
C4357 C4363 1.465 . S
C4358 C4353 1.399 . S
C4358 C4357 1.394 . S
C4358 C4359 1.516 . S
C4359 C4358 1.516 . S
C4359 C4360 1.502 . S
C4359 C4361 1.561 . S
C4359 C4362 1.526 . S
C4360 H4344 0.959 . S
C4360 H4345 0.959 . S
C4360 H4346 0.961 . S
C4360 C4359 1.502 . S
C4361 H4347 0.960 . S
C4361 H4348 0.961 . S
C4361 H4349 0.959 . S
C4361 C4359 1.561 . S
C4362 C4359 1.526 . S
C4362 C4363 1.396 . S
C4362 C4367 1.390 . S
C4363 C4357 1.465 . S
C4363 C4362 1.396 . S
C4363 C4364 1.399 . S
C4364 H4350 0.929 . S
C4364 C4363 1.399 . S
C4364 C4365 1.385 . S
C4365 H4351 0.931 . S
C4365 C4364 1.385 . S
C4365 C4366 1.389 . S
C4366 C4365 1.389 . S
C4366 C4367 1.387 . S
C4367 H4352 0.930 . S
C4367 C4362 1.390 . S
C4367 C4366 1.387 . S
H4368 C4380 0.930 . S
H4369 C4382 0.930 . S
H4370 C4383 0.930 . S
H4371 C4387 0.959 . S
H4372 C4387 0.959 . S
H4373 C4387 0.961 . S
H4374 C4388 0.960 . S
H4375 C4388 0.961 . S
H4376 C4388 0.959 . S
H4377 C4391 0.929 . S
H4378 C4392 0.931 . S
H4379 C4394 0.930 . S
C4380 H4368 0.930 . S
C4380 C4381 1.399 . S
C4380 C4385 1.399 . S
C4381 C4380 1.399 . S
C4381 C4382 1.376 . S
C4382 H4369 0.930 . S
C4382 C4381 1.376 . S
C4382 C4383 1.388 . S
C4383 H4370 0.930 . S
C4383 C4382 1.388 . S
C4383 C4384 1.390 . S
C4384 C4383 1.390 . S
C4384 C4385 1.394 . S
C4384 C4390 1.465 . S
C4385 C4380 1.399 . S
C4385 C4384 1.394 . S
C4385 C4386 1.516 . S
C4386 C4385 1.516 . S
C4386 C4387 1.502 . S
C4386 C4388 1.561 . S
C4386 C4389 1.526 . S
C4387 H4371 0.959 . S
C4387 H4372 0.959 . S
C4387 H4373 0.961 . S
C4387 C4386 1.502 . S
C4388 H4374 0.960 . S
C4388 H4375 0.961 . S
C4388 H4376 0.959 . S
C4388 C4386 1.561 . S
C4389 C4386 1.526 . S
C4389 C4390 1.396 . S
C4389 C4394 1.390 . S
C4390 C4384 1.465 . S
C4390 C4389 1.396 . S
C4390 C4391 1.399 . S
C4391 H4377 0.929 . S
C4391 C4390 1.399 . S
C4391 C4392 1.385 . S
C4392 H4378 0.931 . S
C4392 C4391 1.385 . S
C4392 C4393 1.389 . S
C4393 C4392 1.389 . S
C4393 C4394 1.387 . S
C4394 H4379 0.930 . S
C4394 C4389 1.390 . S
C4394 C4393 1.387 . S
H4395 C4407 0.930 . S
H4396 C4409 0.930 . S
H4397 C4410 0.930 . S
H4398 C4414 0.959 . S
H4399 C4414 0.959 . S
H4400 C4414 0.961 . S
H4401 C4415 0.960 . S
H4402 C4415 0.961 . S
H4403 C4415 0.959 . S
H4404 C4418 0.929 . S
H4405 C4419 0.931 . S
H4406 C4421 0.930 . S
C4407 H4395 0.930 . S
C4407 C4408 1.399 . S
C4407 C4412 1.399 . S
C4408 C4407 1.399 . S
C4408 C4409 1.376 . S
C4409 H4396 0.930 . S
C4409 C4408 1.376 . S
C4409 C4410 1.388 . S
C4410 H4397 0.930 . S
C4410 C4409 1.388 . S
C4410 C4411 1.390 . S
C4411 C4410 1.390 . S
C4411 C4412 1.394 . S
C4411 C4417 1.465 . S
C4412 C4407 1.399 . S
C4412 C4411 1.394 . S
C4412 C4413 1.516 . S
C4413 C4412 1.516 . S
C4413 C4414 1.502 . S
C4413 C4415 1.561 . S
C4413 C4416 1.526 . S
C4414 H4398 0.959 . S
C4414 H4399 0.959 . S
C4414 H4400 0.961 . S
C4414 C4413 1.502 . S
C4415 H4401 0.960 . S
C4415 H4402 0.961 . S
C4415 H4403 0.959 . S
C4415 C4413 1.561 . S
C4416 C4413 1.526 . S
C4416 C4417 1.396 . S
C4416 C4421 1.390 . S
C4417 C4411 1.465 . S
C4417 C4416 1.396 . S
C4417 C4418 1.399 . S
C4418 H4404 0.929 . S
C4418 C4417 1.399 . S
C4418 C4419 1.385 . S
C4419 H4405 0.931 . S
C4419 C4418 1.385 . S
C4419 C4420 1.389 . S
C4420 C4419 1.389 . S
C4420 C4421 1.387 . S
C4421 H4406 0.930 . S
C4421 C4416 1.390 . S
C4421 C4420 1.387 . S
H4422 C4434 0.930 . S
H4423 C4436 0.930 . S
H4424 C4437 0.930 . S
H4425 C4441 0.959 . S
H4426 C4441 0.959 . S
H4427 C4441 0.961 . S
H4428 C4442 0.960 . S
H4429 C4442 0.961 . S
H4430 C4442 0.959 . S
H4431 C4445 0.929 . S
H4432 C4446 0.931 . S
H4433 C4448 0.930 . S
C4434 H4422 0.930 . S
C4434 C4435 1.399 . S
C4434 C4439 1.399 . S
C4435 C4434 1.399 . S
C4435 C4436 1.376 . S
C4436 H4423 0.930 . S
C4436 C4435 1.376 . S
C4436 C4437 1.388 . S
C4437 H4424 0.930 . S
C4437 C4436 1.388 . S
C4437 C4438 1.390 . S
C4438 C4437 1.390 . S
C4438 C4439 1.394 . S
C4438 C4444 1.465 . S
C4439 C4434 1.399 . S
C4439 C4438 1.394 . S
C4439 C4440 1.516 . S
C4440 C4439 1.516 . S
C4440 C4441 1.502 . S
C4440 C4442 1.561 . S
C4440 C4443 1.526 . S
C4441 H4425 0.959 . S
C4441 H4426 0.959 . S
C4441 H4427 0.961 . S
C4441 C4440 1.502 . S
C4442 H4428 0.960 . S
C4442 H4429 0.961 . S
C4442 H4430 0.959 . S
C4442 C4440 1.561 . S
C4443 C4440 1.526 . S
C4443 C4444 1.396 . S
C4443 C4448 1.390 . S
C4444 C4438 1.465 . S
C4444 C4443 1.396 . S
C4444 C4445 1.399 . S
C4445 H4431 0.929 . S
C4445 C4444 1.399 . S
C4445 C4446 1.385 . S
C4446 H4432 0.931 . S
C4446 C4445 1.385 . S
C4446 C4447 1.389 . S
C4447 C4446 1.389 . S
C4447 C4448 1.387 . S
C4448 H4433 0.930 . S
C4448 C4443 1.390 . S
C4448 C4447 1.387 . S
H4449 C4461 0.930 . S
H4450 C4463 0.930 . S
H4451 C4464 0.930 . S
H4452 C4468 0.959 . S
H4453 C4468 0.959 . S
H4454 C4468 0.961 . S
H4455 C4469 0.960 . S
H4456 C4469 0.961 . S
H4457 C4469 0.959 . S
H4458 C4472 0.929 . S
H4459 C4473 0.931 . S
H4460 C4475 0.930 . S
C4461 H4449 0.930 . S
C4461 C4462 1.399 . S
C4461 C4466 1.399 . S
C4462 C4461 1.399 . S
C4462 C4463 1.376 . S
C4463 H4450 0.930 . S
C4463 C4462 1.376 . S
C4463 C4464 1.388 . S
C4464 H4451 0.930 . S
C4464 C4463 1.388 . S
C4464 C4465 1.390 . S
C4465 C4464 1.390 . S
C4465 C4466 1.394 . S
C4465 C4471 1.465 . S
C4466 C4461 1.399 . S
C4466 C4465 1.394 . S
C4466 C4467 1.516 . S
C4467 C4466 1.516 . S
C4467 C4468 1.502 . S
C4467 C4469 1.561 . S
C4467 C4470 1.526 . S
C4468 H4452 0.959 . S
C4468 H4453 0.959 . S
C4468 H4454 0.961 . S
C4468 C4467 1.502 . S
C4469 H4455 0.960 . S
C4469 H4456 0.961 . S
C4469 H4457 0.959 . S
C4469 C4467 1.561 . S
C4470 C4467 1.526 . S
C4470 C4471 1.396 . S
C4470 C4475 1.390 . S
C4471 C4465 1.465 . S
C4471 C4470 1.396 . S
C4471 C4472 1.399 . S
C4472 H4458 0.929 . S
C4472 C4471 1.399 . S
C4472 C4473 1.385 . S
C4473 H4459 0.931 . S
C4473 C4472 1.385 . S
C4473 C4474 1.389 . S
C4474 C4473 1.389 . S
C4474 C4475 1.387 . S
C4475 H4460 0.930 . S
C4475 C4470 1.390 . S
C4475 C4474 1.387 . S
H4476 C4488 0.930 . S
H4477 C4490 0.930 . S
H4478 C4491 0.930 . S
H4479 C4495 0.959 . S
H4480 C4495 0.959 . S
H4481 C4495 0.961 . S
H4482 C4496 0.960 . S
H4483 C4496 0.961 . S
H4484 C4496 0.959 . S
H4485 C4499 0.929 . S
H4486 C4500 0.931 . S
H4487 C4502 0.930 . S
C4488 H4476 0.930 . S
C4488 C4489 1.399 . S
C4488 C4493 1.399 . S
C4489 C4488 1.399 . S
C4489 C4490 1.376 . S
C4490 H4477 0.930 . S
C4490 C4489 1.376 . S
C4490 C4491 1.388 . S
C4491 H4478 0.930 . S
C4491 C4490 1.388 . S
C4491 C4492 1.390 . S
C4492 C4491 1.390 . S
C4492 C4493 1.394 . S
C4492 C4498 1.465 . S
C4493 C4488 1.399 . S
C4493 C4492 1.394 . S
C4493 C4494 1.516 . S
C4494 C4493 1.516 . S
C4494 C4495 1.502 . S
C4494 C4496 1.561 . S
C4494 C4497 1.526 . S
C4495 H4479 0.959 . S
C4495 H4480 0.959 . S
C4495 H4481 0.961 . S
C4495 C4494 1.502 . S
C4496 H4482 0.960 . S
C4496 H4483 0.961 . S
C4496 H4484 0.959 . S
C4496 C4494 1.561 . S
C4497 C4494 1.526 . S
C4497 C4498 1.396 . S
C4497 C4502 1.390 . S
C4498 C4492 1.465 . S
C4498 C4497 1.396 . S
C4498 C4499 1.399 . S
C4499 H4485 0.929 . S
C4499 C4498 1.399 . S
C4499 C4500 1.385 . S
C4500 H4486 0.931 . S
C4500 C4499 1.385 . S
C4500 C4501 1.389 . S
C4501 C4500 1.389 . S
C4501 C4502 1.387 . S
C4502 H4487 0.930 . S
C4502 C4497 1.390 . S
C4502 C4501 1.387 . S
H4503 C4515 0.930 . S
H4504 C4517 0.930 . S
H4505 C4518 0.930 . S
H4506 C4522 0.959 . S
H4507 C4522 0.959 . S
H4508 C4522 0.961 . S
H4509 C4523 0.960 . S
H4510 C4523 0.961 . S
H4511 C4523 0.959 . S
H4512 C4526 0.929 . S
H4513 C4527 0.931 . S
H4514 C4529 0.930 . S
C4515 H4503 0.930 . S
C4515 C4516 1.399 . S
C4515 C4520 1.399 . S
C4516 C4515 1.399 . S
C4516 C4517 1.376 . S
C4517 H4504 0.930 . S
C4517 C4516 1.376 . S
C4517 C4518 1.388 . S
C4518 H4505 0.930 . S
C4518 C4517 1.388 . S
C4518 C4519 1.390 . S
C4519 C4518 1.390 . S
C4519 C4520 1.394 . S
C4519 C4525 1.465 . S
C4520 C4515 1.399 . S
C4520 C4519 1.394 . S
C4520 C4521 1.516 . S
C4521 C4520 1.516 . S
C4521 C4522 1.502 . S
C4521 C4523 1.561 . S
C4521 C4524 1.526 . S
C4522 H4506 0.959 . S
C4522 H4507 0.959 . S
C4522 H4508 0.961 . S
C4522 C4521 1.502 . S
C4523 H4509 0.960 . S
C4523 H4510 0.961 . S
C4523 H4511 0.959 . S
C4523 C4521 1.561 . S
C4524 C4521 1.526 . S
C4524 C4525 1.396 . S
C4524 C4529 1.390 . S
C4525 C4519 1.465 . S
C4525 C4524 1.396 . S
C4525 C4526 1.399 . S
C4526 H4512 0.929 . S
C4526 C4525 1.399 . S
C4526 C4527 1.385 . S
C4527 H4513 0.931 . S
C4527 C4526 1.385 . S
C4527 C4528 1.389 . S
C4528 C4527 1.389 . S
C4528 C4529 1.387 . S
C4529 H4514 0.930 . S
C4529 C4524 1.390 . S
C4529 C4528 1.387 . S
H4530 C4542 0.930 . S
H4531 C4544 0.930 . S
H4532 C4545 0.930 . S
H4533 C4549 0.959 . S
H4534 C4549 0.959 . S
H4535 C4549 0.961 . S
H4536 C4550 0.960 . S
H4537 C4550 0.961 . S
H4538 C4550 0.959 . S
H4539 C4553 0.929 . S
H4540 C4554 0.931 . S
H4541 C4556 0.930 . S
C4542 H4530 0.930 . S
C4542 C4543 1.399 . S
C4542 C4547 1.399 . S
C4543 C4542 1.399 . S
C4543 C4544 1.376 . S
C4544 H4531 0.930 . S
C4544 C4543 1.376 . S
C4544 C4545 1.388 . S
C4545 H4532 0.930 . S
C4545 C4544 1.388 . S
C4545 C4546 1.390 . S
C4546 C4545 1.390 . S
C4546 C4547 1.394 . S
C4546 C4552 1.465 . S
C4547 C4542 1.399 . S
C4547 C4546 1.394 . S
C4547 C4548 1.516 . S
C4548 C4547 1.516 . S
C4548 C4549 1.502 . S
C4548 C4550 1.561 . S
C4548 C4551 1.526 . S
C4549 H4533 0.959 . S
C4549 H4534 0.959 . S
C4549 H4535 0.961 . S
C4549 C4548 1.502 . S
C4550 H4536 0.960 . S
C4550 H4537 0.961 . S
C4550 H4538 0.959 . S
C4550 C4548 1.561 . S
C4551 C4548 1.526 . S
C4551 C4552 1.396 . S
C4551 C4556 1.390 . S
C4552 C4546 1.465 . S
C4552 C4551 1.396 . S
C4552 C4553 1.399 . S
C4553 H4539 0.929 . S
C4553 C4552 1.399 . S
C4553 C4554 1.385 . S
C4554 H4540 0.931 . S
C4554 C4553 1.385 . S
C4554 C4555 1.389 . S
C4555 C4554 1.389 . S
C4555 C4556 1.387 . S
C4556 H4541 0.930 . S
C4556 C4551 1.390 . S
C4556 C4555 1.387 . S
H4557 C4569 0.930 . S
H4558 C4571 0.930 . S
H4559 C4572 0.930 . S
H4560 C4576 0.959 . S
H4561 C4576 0.959 . S
H4562 C4576 0.961 . S
H4563 C4577 0.960 . S
H4564 C4577 0.961 . S
H4565 C4577 0.959 . S
H4566 C4580 0.929 . S
H4567 C4581 0.931 . S
H4568 C4583 0.930 . S
C4569 H4557 0.930 . S
C4569 C4570 1.399 . S
C4569 C4574 1.399 . S
C4570 C4569 1.399 . S
C4570 C4571 1.376 . S
C4571 H4558 0.930 . S
C4571 C4570 1.376 . S
C4571 C4572 1.388 . S
C4572 H4559 0.930 . S
C4572 C4571 1.388 . S
C4572 C4573 1.390 . S
C4573 C4572 1.390 . S
C4573 C4574 1.394 . S
C4573 C4579 1.465 . S
C4574 C4569 1.399 . S
C4574 C4573 1.394 . S
C4574 C4575 1.516 . S
C4575 C4574 1.516 . S
C4575 C4576 1.502 . S
C4575 C4577 1.561 . S
C4575 C4578 1.526 . S
C4576 H4560 0.959 . S
C4576 H4561 0.959 . S
C4576 H4562 0.961 . S
C4576 C4575 1.502 . S
C4577 H4563 0.960 . S
C4577 H4564 0.961 . S
C4577 H4565 0.959 . S
C4577 C4575 1.561 . S
C4578 C4575 1.526 . S
C4578 C4579 1.396 . S
C4578 C4583 1.390 . S
C4579 C4573 1.465 . S
C4579 C4578 1.396 . S
C4579 C4580 1.399 . S
C4580 H4566 0.929 . S
C4580 C4579 1.399 . S
C4580 C4581 1.385 . S
C4581 H4567 0.931 . S
C4581 C4580 1.385 . S
C4581 C4582 1.389 . S
C4582 C4581 1.389 . S
C4582 C4583 1.387 . S
C4583 H4568 0.930 . S
C4583 C4578 1.390 . S
C4583 C4582 1.387 . S
H4584 C4596 0.930 . S
H4585 C4598 0.930 . S
H4586 C4599 0.930 . S
H4587 C4603 0.959 . S
H4588 C4603 0.959 . S
H4589 C4603 0.961 . S
H4590 C4604 0.960 . S
H4591 C4604 0.961 . S
H4592 C4604 0.959 . S
H4593 C4607 0.929 . S
H4594 C4608 0.931 . S
H4595 C4610 0.930 . S
C4596 H4584 0.930 . S
C4596 C4597 1.399 . S
C4596 C4601 1.399 . S
C4597 C4596 1.399 . S
C4597 C4598 1.376 . S
C4598 H4585 0.930 . S
C4598 C4597 1.376 . S
C4598 C4599 1.388 . S
C4599 H4586 0.930 . S
C4599 C4598 1.388 . S
C4599 C4600 1.390 . S
C4600 C4599 1.390 . S
C4600 C4601 1.394 . S
C4600 C4606 1.465 . S
C4601 C4596 1.399 . S
C4601 C4600 1.394 . S
C4601 C4602 1.516 . S
C4602 C4601 1.516 . S
C4602 C4603 1.502 . S
C4602 C4604 1.561 . S
C4602 C4605 1.526 . S
C4603 H4587 0.959 . S
C4603 H4588 0.959 . S
C4603 H4589 0.961 . S
C4603 C4602 1.502 . S
C4604 H4590 0.960 . S
C4604 H4591 0.961 . S
C4604 H4592 0.959 . S
C4604 C4602 1.561 . S
C4605 C4602 1.526 . S
C4605 C4606 1.396 . S
C4605 C4610 1.390 . S
C4606 C4600 1.465 . S
C4606 C4605 1.396 . S
C4606 C4607 1.399 . S
C4607 H4593 0.929 . S
C4607 C4606 1.399 . S
C4607 C4608 1.385 . S
C4608 H4594 0.931 . S
C4608 C4607 1.385 . S
C4608 C4609 1.389 . S
C4609 C4608 1.389 . S
C4609 C4610 1.387 . S
C4610 H4595 0.930 . S
C4610 C4605 1.390 . S
C4610 C4609 1.387 . S
H4611 C4623 0.930 . S
H4612 C4625 0.930 . S
H4613 C4626 0.930 . S
H4614 C4630 0.959 . S
H4615 C4630 0.951 1_545 S
H4616 C4630 0.961 . S
H4617 C4631 0.960 . S
H4618 C4631 0.961 . S
H4619 C4631 0.959 . S
H4620 C4634 0.929 . S
H4621 C4635 0.931 . S
H4622 C4637 0.927 1_545 S
C4623 H4611 0.930 . S
C4623 C4624 1.399 . S
C4623 C4628 1.399 . S
C4624 C4623 1.399 . S
C4624 C4625 1.376 . S
C4625 H4612 0.930 . S
C4625 C4624 1.376 . S
C4625 C4626 1.388 . S
C4626 H4613 0.930 . S
C4626 C4625 1.388 . S
C4626 C4627 1.390 . S
C4627 C4626 1.390 . S
C4627 C4628 1.394 . S
C4627 C4633 1.465 . S
C4628 C4623 1.399 . S
C4628 C4627 1.394 . S
C4628 C4629 1.516 . S
C4629 C4628 1.516 . S
C4629 C4630 1.502 . S
C4629 C4631 1.561 . S
C4629 C4632 1.526 . S
C4630 H4614 0.959 . S
C4630 H4615 0.951 1_565 S
C4630 H4616 0.961 . S
C4630 C4629 1.502 . S
C4631 H4617 0.960 . S
C4631 H4618 0.961 . S
C4631 H4619 0.959 . S
C4631 C4629 1.561 . S
C4632 C4629 1.526 . S
C4632 C4633 1.396 . S
C4632 C4637 1.390 . S
C4633 C4627 1.465 . S
C4633 C4632 1.396 . S
C4633 C4634 1.399 . S
C4634 H4620 0.929 . S
C4634 C4633 1.399 . S
C4634 C4635 1.385 . S
C4635 H4621 0.931 . S
C4635 C4634 1.385 . S
C4635 C4636 1.389 . S
C4636 C4635 1.389 . S
C4636 C4637 1.387 . S
C4637 H4622 0.927 1_565 S
C4637 C4632 1.390 . S
C4637 C4636 1.387 . S
H4638 C4650 0.930 . S
H4639 C4652 0.930 . S
H4640 C4653 0.930 . S
H4641 C4657 0.959 . S
H4642 C4657 0.959 . S
H4643 C4657 0.961 . S
H4644 C4658 0.960 . S
H4645 C4658 0.961 . S
H4646 C4658 0.959 . S
H4647 C4661 0.929 . S
H4648 C4662 0.931 . S
H4649 C4664 0.930 . S
C4650 H4638 0.930 . S
C4650 C4651 1.399 . S
C4650 C4655 1.399 . S
C4651 C4650 1.399 . S
C4651 C4652 1.376 . S
C4652 H4639 0.930 . S
C4652 C4651 1.376 . S
C4652 C4653 1.388 . S
C4653 H4640 0.930 . S
C4653 C4652 1.388 . S
C4653 C4654 1.390 . S
C4654 C4653 1.390 . S
C4654 C4655 1.394 . S
C4654 C4660 1.465 . S
C4655 C4650 1.399 . S
C4655 C4654 1.394 . S
C4655 C4656 1.516 . S
C4656 C4655 1.516 . S
C4656 C4657 1.502 . S
C4656 C4658 1.561 . S
C4656 C4659 1.526 . S
C4657 H4641 0.959 . S
C4657 H4642 0.959 . S
C4657 H4643 0.961 . S
C4657 C4656 1.502 . S
C4658 H4644 0.960 . S
C4658 H4645 0.961 . S
C4658 H4646 0.959 . S
C4658 C4656 1.561 . S
C4659 C4656 1.526 . S
C4659 C4660 1.396 . S
C4659 C4664 1.390 . S
C4660 C4654 1.465 . S
C4660 C4659 1.396 . S
C4660 C4661 1.399 . S
C4661 H4647 0.929 . S
C4661 C4660 1.399 . S
C4661 C4662 1.385 . S
C4662 H4648 0.931 . S
C4662 C4661 1.385 . S
C4662 C4663 1.389 . S
C4663 C4662 1.389 . S
C4663 C4664 1.387 . S
C4664 H4649 0.930 . S
C4664 C4659 1.390 . S
C4664 C4663 1.387 . S
H4665 C4677 0.930 . S
H4666 C4679 0.930 . S
H4667 C4680 0.930 . S
H4668 C4684 0.959 . S
H4669 C4684 0.959 . S
H4670 C4684 0.961 . S
H4671 C4685 0.960 . S
H4672 C4685 0.961 . S
H4673 C4685 0.959 . S
H4674 C4688 0.958 . S
H4675 C4689 0.931 . S
H4676 C4691 0.930 . S
C4677 H4665 0.930 . S
C4677 C4678 1.399 . S
C4677 C4682 1.399 . S
C4678 C4677 1.399 . S
C4678 C4679 1.376 . S
C4679 H4666 0.930 . S
C4679 C4678 1.376 . S
C4679 C4680 1.388 . S
C4680 H4667 0.930 . S
C4680 C4679 1.388 . S
C4680 C4681 1.390 . S
C4681 C4680 1.390 . S
C4681 C4682 1.394 . S
C4681 C4687 1.465 . S
C4682 C4677 1.399 . S
C4682 C4681 1.394 . S
C4682 C4683 1.516 . S
C4683 C4682 1.516 . S
C4683 C4684 1.502 . S
C4683 C4685 1.561 . S
C4683 C4686 1.526 . S
C4684 H4668 0.959 . S
C4684 H4669 0.959 . S
C4684 H4670 0.961 . S
C4684 C4683 1.502 . S
C4685 H4671 0.960 . S
C4685 H4672 0.961 . S
C4685 H4673 0.959 . S
C4685 C4683 1.561 . S
C4686 C4683 1.526 . S
C4686 C4687 1.396 . S
C4686 C4691 1.390 . S
C4687 C4681 1.465 . S
C4687 C4686 1.396 . S
C4687 C4688 1.399 . S
C4688 H4674 0.958 . S
C4688 C4687 1.399 . S
C4688 C4689 1.385 . S
C4689 H4675 0.931 . S
C4689 C4688 1.385 . S
C4689 C4690 1.389 . S
C4690 C4689 1.389 . S
C4690 C4691 1.387 . S
C4691 H4676 0.930 . S
C4691 C4686 1.390 . S
C4691 C4690 1.387 . S
H4692 C4704 0.930 . S
H4693 C4706 0.930 . S
H4694 C4707 0.930 . S
H4695 C4711 0.959 . S
H4696 C4711 0.959 . S
H4697 C4711 0.961 . S
H4698 C4712 0.960 . S
H4699 C4712 0.961 . S
H4700 C4712 0.959 . S
H4701 C4715 0.929 . S
H4702 C4716 0.931 . S
H4703 C4718 0.930 . S
C4704 H4692 0.930 . S
C4704 C4705 1.399 . S
C4704 C4709 1.399 . S
C4705 C4704 1.399 . S
C4705 C4706 1.376 . S
C4706 H4693 0.930 . S
C4706 C4705 1.376 . S
C4706 C4707 1.388 . S
C4707 H4694 0.930 . S
C4707 C4706 1.388 . S
C4707 C4708 1.390 . S
C4708 C4707 1.390 . S
C4708 C4709 1.394 . S
C4708 C4714 1.465 . S
C4709 C4704 1.399 . S
C4709 C4708 1.394 . S
C4709 C4710 1.516 . S
C4710 C4709 1.516 . S
C4710 C4711 1.502 . S
C4710 C4712 1.561 . S
C4710 C4713 1.526 . S
C4711 H4695 0.959 . S
C4711 H4696 0.959 . S
C4711 H4697 0.961 . S
C4711 C4710 1.502 . S
C4712 H4698 0.960 . S
C4712 H4699 0.961 . S
C4712 H4700 0.959 . S
C4712 C4710 1.561 . S
C4713 C4710 1.526 . S
C4713 C4714 1.396 . S
C4713 C4718 1.390 . S
C4714 C4708 1.465 . S
C4714 C4713 1.396 . S
C4714 C4715 1.399 . S
C4715 H4701 0.929 . S
C4715 C4714 1.399 . S
C4715 C4716 1.385 . S
C4716 H4702 0.931 . S
C4716 C4715 1.385 . S
C4716 C4717 1.389 . S
C4717 C4716 1.389 . S
C4717 C4718 1.387 . S
C4718 H4703 0.930 . S
C4718 C4713 1.390 . S
C4718 C4717 1.387 . S
H4719 C4731 0.930 . S
H4720 C4733 0.930 . S
H4721 C4734 0.930 1_556 S
H4722 C4738 0.959 . S
H4723 C4738 0.959 . S
H4724 C4738 0.961 . S
H4725 C4739 0.960 . S
H4726 C4739 0.961 . S
H4727 C4739 0.959 . S
H4728 C4742 0.929 1_556 S
H4729 C4743 0.931 1_556 S
H4730 C4745 0.930 . S
C4731 H4719 0.930 . S
C4731 C4732 1.399 . S
C4731 C4736 1.399 . S
C4732 C4731 1.399 . S
C4732 C4733 1.376 . S
C4733 H4720 0.930 . S
C4733 C4732 1.376 . S
C4733 C4734 1.388 . S
C4734 H4721 0.930 1_554 S
C4734 C4733 1.388 . S
C4734 C4735 1.390 . S
C4735 C4734 1.390 . S
C4735 C4736 1.394 . S
C4735 C4741 1.465 . S
C4736 C4731 1.399 . S
C4736 C4735 1.394 . S
C4736 C4737 1.516 . S
C4737 C4736 1.516 . S
C4737 C4738 1.502 . S
C4737 C4739 1.561 . S
C4737 C4740 1.526 . S
C4738 H4722 0.959 . S
C4738 H4723 0.959 . S
C4738 H4724 0.961 . S
C4738 C4737 1.502 . S
C4739 H4725 0.960 . S
C4739 H4726 0.961 . S
C4739 H4727 0.959 . S
C4739 C4737 1.561 . S
C4740 C4737 1.526 . S
C4740 C4741 1.396 . S
C4740 C4745 1.390 . S
C4741 C4735 1.465 . S
C4741 C4740 1.396 . S
C4741 C4742 1.399 . S
C4742 H4728 0.929 1_554 S
C4742 C4741 1.399 . S
C4742 C4743 1.385 . S
C4743 H4729 0.931 1_554 S
C4743 C4742 1.385 . S
C4743 C4744 1.389 . S
C4744 C4743 1.389 . S
C4744 C4745 1.387 . S
C4745 H4730 0.930 . S
C4745 C4740 1.390 . S
C4745 C4744 1.387 . S
H4746 C4758 0.930 . S
H4747 C4760 0.930 . S
H4748 C4761 0.930 . S
H4749 C4765 0.959 . S
H4750 C4765 0.959 . S
H4751 C4765 0.961 . S
H4752 C4766 0.960 . S
H4753 C4766 0.961 . S
H4754 C4766 0.959 . S
H4755 C4769 0.929 . S
H4756 C4770 0.931 . S
H4757 C4772 0.930 . S
C4758 H4746 0.930 . S
C4758 C4759 1.399 . S
C4758 C4763 1.399 . S
C4759 C4758 1.399 . S
C4759 C4760 1.376 . S
C4760 H4747 0.930 . S
C4760 C4759 1.376 . S
C4760 C4761 1.388 . S
C4761 H4748 0.930 . S
C4761 C4760 1.388 . S
C4761 C4762 1.390 . S
C4762 C4761 1.390 . S
C4762 C4763 1.394 . S
C4762 C4768 1.465 . S
C4763 C4758 1.399 . S
C4763 C4762 1.394 . S
C4763 C4764 1.516 . S
C4764 C4763 1.516 . S
C4764 C4765 1.502 . S
C4764 C4766 1.561 . S
C4764 C4767 1.526 . S
C4765 H4749 0.959 . S
C4765 H4750 0.959 . S
C4765 H4751 0.961 . S
C4765 C4764 1.502 . S
C4766 H4752 0.960 . S
C4766 H4753 0.961 . S
C4766 H4754 0.959 . S
C4766 C4764 1.561 . S
C4767 C4764 1.526 . S
C4767 C4768 1.396 . S
C4767 C4772 1.390 . S
C4768 C4762 1.465 . S
C4768 C4767 1.396 . S
C4768 C4769 1.399 . S
C4769 H4755 0.929 . S
C4769 C4768 1.399 . S
C4769 C4770 1.385 . S
C4770 H4756 0.931 . S
C4770 C4769 1.385 . S
C4770 C4771 1.389 . S
C4771 C4770 1.389 . S
C4771 C4772 1.387 . S
C4772 H4757 0.930 . S
C4772 C4767 1.390 . S
C4772 C4771 1.387 . S
H4773 C4785 0.930 . S
H4774 C4787 0.930 . S
H4775 C4788 0.930 . S
H4776 C4792 0.959 . S
H4777 C4792 0.959 . S
H4778 C4792 0.961 . S
H4779 C4793 0.960 . S
H4780 C4793 0.961 . S
H4781 C4793 0.959 . S
H4782 C4796 0.929 . S
H4783 C4797 0.931 . S
H4784 C4799 0.930 . S
C4785 H4773 0.930 . S
C4785 C4786 1.399 . S
C4785 C4790 1.399 . S
C4786 C4785 1.399 . S
C4786 C4787 1.376 . S
C4787 H4774 0.930 . S
C4787 C4786 1.376 . S
C4787 C4788 1.388 . S
C4788 H4775 0.930 . S
C4788 C4787 1.388 . S
C4788 C4789 1.390 . S
C4789 C4788 1.390 . S
C4789 C4790 1.394 . S
C4789 C4795 1.465 . S
C4790 C4785 1.399 . S
C4790 C4789 1.394 . S
C4790 C4791 1.516 . S
C4791 C4790 1.516 . S
C4791 C4792 1.502 . S
C4791 C4793 1.561 . S
C4791 C4794 1.526 . S
C4792 H4776 0.959 . S
C4792 H4777 0.959 . S
C4792 H4778 0.961 . S
C4792 C4791 1.502 . S
C4793 H4779 0.960 . S
C4793 H4780 0.961 . S
C4793 H4781 0.959 . S
C4793 C4791 1.561 . S
C4794 C4791 1.526 . S
C4794 C4795 1.396 . S
C4794 C4799 1.390 . S
C4795 C4789 1.465 . S
C4795 C4794 1.396 . S
C4795 C4796 1.399 . S
C4796 H4782 0.929 . S
C4796 C4795 1.399 . S
C4796 C4797 1.385 . S
C4797 H4783 0.931 . S
C4797 C4796 1.385 . S
C4797 C4798 1.389 . S
C4798 C4797 1.389 . S
C4798 C4799 1.387 . S
C4799 H4784 0.930 . S
C4799 C4794 1.390 . S
C4799 C4798 1.387 . S
C2221 C255 2.046 1_455 S
C2233 C920 2.090 . S
C2248 C147 1.869 . S
C2260 C1022 1.876 . S
C2275 C184 1.775 . S
C2287 C1088 1.804 . S
C2314 C1174 1.325 . S
C2302 C220 1.487 . S
C2329 C40 1.464 . S
C2341 C1258 1.397 . S
C2368 C1340 1.901 . S
C2356 C74 1.873 . S
C2395 C1442 1.886 . S
C2383 C110 1.904 . S
C2410 C14 2.039 . S
C2422 C1508 2.040 . S
C2449 C938 1.748 . S
C2437 C579 1.747 . S
C2464 C616 0.937 . S
C2476 C1006 0.817 . S
C2503 C1106 1.216 . S
C2491 C687 1.200 . S
C2530 C1172 1.665 . S
C2518 C436 1.646 . S
C2545 C580 1.606 . S
C2557 C1256 1.650 . S
C2584 C1358 1.138 . S
C2572 C615 1.178 . S
C2611 C1426 0.928 . S
C2599 C688 0.944 . S
C2638 C1526 1.677 . S
C2626 C435 1.753 . S
C2665 C922 1.015 . S
C2653 C410 0.977 . S
C2680 C722 1.708 . S
C2692 C1610 1.697 . S
C2719 C1678 1.305 . S
C2707 C842 1.415 . S
C2746 C1760 0.848 . S
C2734 C794 0.879 . S
C2761 C302 1.058 . S
C2773 C1510 0.942 . S
C2788 C338 1.401 . S
C2800 C1090 1.269 . S
C2815 C830 1.739 . S
C2827 C1862 1.750 . S
C2854 C1928 0.929 . S
C2842 C758 0.873 . S
C2881 C931 2.051 . S
C2869 C158 1.982 . S
C2908 C1935 1.845 . S
C2896 C254 1.847 . S
C2923 C218 1.801 . S
C2935 C1099 1.818 . S
C2950 C194 1.430 . S
C2962 C1857 1.373 . S
C2989 C1269 1.292 . S
C2977 C3 1.436 . S
C3004 C111 1.735 . S
C3016 C1687 1.734 . S
C3043 C1431 1.861 1_556 S
C3031 C76 1.861 . S
C3070 C2023 2.126 . S
C3058 C50 1.982 . S
C3097 C927 1.644 . S
C3085 C364 1.714 . S
C3124 C1941 0.954 . S
C3112 C795 0.901 . S
C3139 C292 1.146 . S
C3151 C1095 1.163 . S
C3166 C723 1.602 . S
C3178 C1855 1.604 . S
C3193 C363 1.615 . S
C3205 C1267 1.619 . S
C3232 C1683 1.140 . S
C3220 C796 1.150 . S
C3247 C291 0.902 . S
C3259 C1437 0.821 . S
C3274 C724 1.742 . S
C3286 C2019 1.677 . S
C3301 C482 1.025 . S
C3313 C933 1.030 . S
C3328 C434 1.696 . S
C3340 C1599 1.679 . S
C3355 C662 1.381 . S
C3367 C1353 1.372 . S
C3382 C614 0.879 . S
C3394 C1771 0.854 . S
C3421 C2025 1.053 . S
C3409 C698 1.048 . S
C3436 C554 1.380 . S
C3448 C1101 1.370 . S
C3475 C1179 1.695 . S
C3463 C650 1.702 . S
C3502 C1015 0.841 . S
C3490 C506 0.816 . S
C3517 C183 2.050 . S
C3529 C2096 2.090 . S
C3556 C1946 1.851 . S
C3544 C219 1.836 . S
C3571 C256 1.757 . S
C3583 C2180 1.804 . S
C3598 C148 1.487 1_655 S
C3610 C1846 1.332 . S
C3625 C122 1.417 . S
C3637 C1594 1.451 . S
C3664 C1676 1.827 . S
C3652 C2 1.800 1_655 S
C3691 C1778 1.800 . S
C3679 C39 1.776 . S
C3718 C2012 2.128 . S
C3706 C86 2.128 . S
C3745 C2114 1.756 . S
C3733 C651 1.756 . S
C3760 C472 0.985 . S
C3772 C1930 0.980 . S
C3799 C2198 1.202 . S
C3787 C507 1.187 . S
C3826 C1844 1.665 . S
C3814 C544 1.674 . S
C3853 C1592 1.630 . S
C3841 C652 1.626 . S
C3868 C471 1.177 . S
C3880 C1694 1.135 . S
C3907 C1762 0.818 . S
C3895 C508 0.932 . S
C3922 C543 1.742 . S
C3934 C2030 1.722 . S
C3961 C2098 1.053 . S
C3949 C806 0.997 . S
C3976 C326 1.695 . S
C3988 C1274 1.704 . S
C4015 C1342 1.378 . S
C4003 C374 1.339 1_565 S
C4042 C1424 0.861 . S
C4030 C398 0.888 . S
C4069 C2014 0.933 . S
C4057 C770 1.051 . S
C4084 C734 1.384 . S
C4096 C2182 1.280 . S
C4123 C1190 1.735 . S
C4111 C362 1.727 . S
C4150 C1004 0.924 . S
C4138 C290 0.954 . S
C4165 C230 1.973 . S
C4177 C2107 2.054 . S
C4204 C1011 1.852 . S
C4192 C182 1.854 . S
C4219 C146 1.796 . S
C4231 C2191 1.817 . S
C4246 C266 1.453 . S
C4258 C1185 1.412 . S
C4273 C75 1.466 . S
C4285 C1605 1.329 . S
C4312 C1351 1.885 . S
C4300 C38 1.862 . S
C4327 C4 1.792 . S
C4339 C1767 1.791 . S
C4354 C112 2.014 . S
C4366 C1519 2.014 . S
C4393 C2103 1.653 . S
C4381 C832 1.712 . S
C4408 C399 0.941 . S
C4420 C1017 0.930 . S
C4447 C2187 1.097 1_655 S
C4435 C760 1.146 . S
C4462 C327 1.600 . S
C4474 C1183 1.588 . S
C4489 C831 1.640 . S
C4501 C1603 1.638 . S
C4528 C1347 1.171 . S
C4516 C400 1.180 . S
C4543 C759 0.913 . S
C4555 C1773 0.823 . S
C4582 C1515 1.701 . S
C4570 C328 1.722 . S
C4609 C2109 0.930 . S
C4597 C626 0.891 . S
C4636 C1263 1.671 1_565 S
C4624 C542 1.677 . S
C4651 C590 1.358 . S
C4663 C1689 1.350 . S
C4690 C1435 0.853 . S
C4678 C470 0.814 . S
C4705 C518 0.891 . S
C4717 C1521 0.920 . S
C4732 C446 1.270 . S
C4744 C2193 1.282 . S
C4771 C1851 1.711 . S
C4759 C578 1.715 . S
C4798 C1939 0.819 . S
C4786 C686 0.808 . S
