# Generated by pormake.
# Topology zzz, (3,6)-cn, num edge types: 1
# Building blocks:
#     Node 0, Type 0, BuildingBlock: WUSLED_clean_sbu_0, # of connection points: 3
#     Node 1, Type 0, BuildingBlock: WUSLED_clean_sbu_0, # of connection points: 3
#     Node 2, Type 0, BuildingBlock: WUSLED_clean_sbu_0, # of connection points: 3
#     Node 3, Type 0, BuildingBlock: WUSLED_clean_sbu_0, # of connection points: 3
#     Node 4, Type 0, BuildingBlock: WUSLED_clean_sbu_0, # of connection points: 3
#     Node 5, Type 0, BuildingBlock: WUSLED_clean_sbu_0, # of connection points: 3
#     Node 6, Type 0, BuildingBlock: WUSLED_clean_sbu_0, # of connection points: 3
#     Node 7, Type 0, BuildingBlock: WUSLED_clean_sbu_0, # of connection points: 3
#     Node 8, Type 1, BuildingBlock: CUKXOW_clean_sbu_0, # of connection points: 6
#     Node 9, Type 1, BuildingBlock: CUKXOW_clean_sbu_0, # of connection points: 6
#     Node 10, Type 1, BuildingBlock: CUKXOW_clean_sbu_0, # of connection points: 6
#     Node 11, Type 1, BuildingBlock: CUKXOW_clean_sbu_0, # of connection points: 6
#     Edge 12, Type (0, 1), BuildingBlock: TEMPAE_clean_linker_10, # of connection points: 2
#     Edge 13, Type (0, 1), BuildingBlock: TEMPAE_clean_linker_10, # of connection points: 2
#     Edge 14, Type (0, 1), BuildingBlock: TEMPAE_clean_linker_10, # of connection points: 2
#     Edge 15, Type (0, 1), BuildingBlock: TEMPAE_clean_linker_10, # of connection points: 2
#     Edge 16, Type (0, 1), BuildingBlock: TEMPAE_clean_linker_10, # of connection points: 2
#     Edge 17, Type (0, 1), BuildingBlock: TEMPAE_clean_linker_10, # of connection points: 2
#     Edge 18, Type (0, 1), BuildingBlock: TEMPAE_clean_linker_10, # of connection points: 2
#     Edge 19, Type (0, 1), BuildingBlock: TEMPAE_clean_linker_10, # of connection points: 2
#     Edge 20, Type (0, 1), BuildingBlock: TEMPAE_clean_linker_10, # of connection points: 2
#     Edge 21, Type (0, 1), BuildingBlock: TEMPAE_clean_linker_10, # of connection points: 2
#     Edge 22, Type (0, 1), BuildingBlock: TEMPAE_clean_linker_10, # of connection points: 2
#     Edge 23, Type (0, 1), BuildingBlock: TEMPAE_clean_linker_10, # of connection points: 2
#     Edge 24, Type (0, 1), BuildingBlock: TEMPAE_clean_linker_10, # of connection points: 2
#     Edge 25, Type (0, 1), BuildingBlock: TEMPAE_clean_linker_10, # of connection points: 2
#     Edge 26, Type (0, 1), BuildingBlock: TEMPAE_clean_linker_10, # of connection points: 2
#     Edge 27, Type (0, 1), BuildingBlock: TEMPAE_clean_linker_10, # of connection points: 2
#     Edge 28, Type (0, 1), BuildingBlock: TEMPAE_clean_linker_10, # of connection points: 2
#     Edge 29, Type (0, 1), BuildingBlock: TEMPAE_clean_linker_10, # of connection points: 2
#     Edge 30, Type (0, 1), BuildingBlock: TEMPAE_clean_linker_10, # of connection points: 2
#     Edge 31, Type (0, 1), BuildingBlock: TEMPAE_clean_linker_10, # of connection points: 2
#     Edge 32, Type (0, 1), BuildingBlock: TEMPAE_clean_linker_10, # of connection points: 2
#     Edge 33, Type (0, 1), BuildingBlock: TEMPAE_clean_linker_10, # of connection points: 2
#     Edge 34, Type (0, 1), BuildingBlock: TEMPAE_clean_linker_10, # of connection points: 2
#     Edge 35, Type (0, 1), BuildingBlock: TEMPAE_clean_linker_10, # of connection points: 2
# Relax obj value: 0.204
# Max RMSD: 0.223
# Mean RMSD: 0.182
data_MOF--net-zzz--node1-WUSLED_clean_sbu_0--node2-CUKXOW_clean_sbu_0--edge1-TEMPAE_clean_linker_10
_symmetry_space_group_name_H-M    P1
_symmetry_Int_Tables_number       1
_symmetry_cell_setting            triclinic
loop_
_symmetry_equiv_pos_as_xyz
'x, y, z'
_cell_length_a     63.578416
_cell_length_b     61.74418
_cell_length_c     22.105674
_cell_angle_alpha  92.521252
_cell_angle_beta   88.424639
_cell_angle_gamma 95.455132
loop_
_atom_site_label
_atom_site_type_symbol
_atom_site_fract_x
_atom_site_fract_y
_atom_site_fract_z
_atom_type_partial_charge
C0 C 0.78115 0.4628 0.27714 0.0
C1 C 0.80171 0.46557 0.252 0.0
C2 C 0.81671 0.46886 0.3525 0.0
C3 C 0.81925 0.46863 0.28914 0.0
C4 C 0.79614 0.46535 0.37779 0.0
C5 C 0.77847 0.46246 0.34033 0.0
U6 U 0.76462 0.45949 0.1178 0.0
O7 O 0.73955 0.44071 0.06448 0.0
O8 O 0.74297 0.4767 0.06577 0.0
C9 C 0.73301 0.45852 0.04384 0.0
C10 C 0.76294 0.46106 0.2364 0.0
C11 C 0.71085 0.45879 0.02637 0.0
C12 C 0.67577 0.47141 0.03941 0.0
C13 C 0.69554 0.4683 0.06314 0.0
C14 C 0.68646 0.45505 0.94317 0.0
C15 C 0.6714 0.46543 0.97849 0.0
C16 C 0.70589 0.45169 0.96696 0.0
C17 C 0.81605 0.45978 0.01593 0.0
C18 C 0.8213 0.45823 0.90637 0.0
C19 C 0.85135 0.46046 0.97241 0.0
C20 C 0.8379 0.46089 0.02282 0.0
C21 C 0.84325 0.4589 0.91382 0.0
C22 C 0.80765 0.45852 0.95754 0.0
C23 C 0.80304 0.45993 0.07154 0.0
O24 O 0.76172 0.47827 0.20411 0.0
O25 O 0.76015 0.44268 0.20394 0.0
O26 O 0.79128 0.4419 0.08349 0.0
O27 O 0.79387 0.47772 0.0855 0.0
H28 H 0.8042 0.46571 0.20339 0.0
H29 H 0.83487 0.47091 0.26822 0.0
H30 H 0.79369 0.46546 0.42648 0.0
H31 H 0.76276 0.4603 0.36068 0.0
H32 H 0.66437 0.47943 0.06752 0.0
H33 H 0.69912 0.47401 0.10907 0.0
H34 H 0.68342 0.45011 0.89633 0.0
H35 H 0.71753 0.44446 0.93774 0.0
H36 H 0.8148 0.4572 0.86145 0.0
H37 H 0.86824 0.46145 0.97923 0.0
H38 H 0.84461 0.46204 0.06754 0.0
H39 H 0.79073 0.45772 0.95169 0.0
C40 C 0.91426 0.79626 0.23483 0.0
C41 C 0.9139 0.8175 0.21469 0.0
C42 C 0.92169 0.83295 0.3163 0.0
C43 C 0.91756 0.83561 0.25487 0.0
C44 C 0.92136 0.81156 0.33654 0.0
C45 C 0.91775 0.79345 0.29621 0.0
U46 U 0.90849 0.77562 0.07306 0.0
O47 O 0.92749 0.7546 0.01509 0.0
O48 O 0.89317 0.74604 0.02635 0.0
C49 C 0.91097 0.74135 0.99925 0.0
C50 C 0.91273 0.77732 0.19102 0.0
C51 C 0.91415 0.71848 0.98185 0.0
C52 C 0.92196 0.68169 0.00286 0.0
C53 C 0.91768 0.70279 0.02353 0.0
C54 C 0.91912 0.69196 0.89926 0.0
C55 C 0.92299 0.67602 0.94017 0.0
C56 C 0.91465 0.71275 0.91987 0.0
C57 C 0.90463 0.82253 0.96437 0.0
C58 C 0.92358 0.82862 0.86893 0.0
C59 C 0.90191 0.85586 0.9122 0.0
C60 C 0.89585 0.84235 0.95993 0.0
C61 C 0.91697 0.84971 0.86863 0.0
C62 C 0.91742 0.81507 0.91654 0.0
C63 C 0.90437 0.81286 0.02399 0.0
O64 O 0.89435 0.77265 0.1651 0.0
O65 O 0.92876 0.77692 0.15236 0.0
O66 O 0.92253 0.80662 0.03982 0.0
O67 O 0.88805 0.79931 0.03892 0.0
H68 H 0.91136 0.82009 0.16739 0.0
H69 H 0.91792 0.85172 0.23717 0.0
H70 H 0.92411 0.80877 0.38356 0.0
H71 H 0.91812 0.77724 0.31278 0.0
H72 H 0.92456 0.6699 0.03603 0.0
H73 H 0.91737 0.70688 0.07167 0.0
H74 H 0.92022 0.68873 0.85082 0.0
H75 H 0.91209 0.72466 0.88688 0.0
H76 H 0.935 0.82341 0.83539 0.0
H77 H 0.89658 0.87203 0.91323 0.0
H78 H 0.88592 0.84835 0.99638 0.0
H79 H 0.92424 0.7997 0.91888 0.0
C80 C 0.71637 0.01046 0.30538 0.0
C81 C 0.69672 0.00731 0.27731 0.0
C82 C 0.67866 0.01113 0.37478 0.0
C83 C 0.67803 0.00753 0.31172 0.0
C84 C 0.69835 0.01467 0.40286 0.0
C85 C 0.71714 0.01424 0.36829 0.0
U86 U 0.73938 0.00825 0.14964 0.0
O87 O 0.76698 0.02677 0.10816 0.0
O88 O 0.76454 0.99046 0.10482 0.0
C89 C 0.77547 0.00882 0.09096 0.0
C90 C 0.73578 0.01023 0.2679 0.0
C91 C 0.79603 0.00948 0.05872 0.0
C92 C 0.83254 0.02472 0.04785 0.0
C93 C 0.81305 0.02385 0.07901 0.0
C94 C 0.81807 0.99712 0.97517 0.0
C95 C 0.83513 0.01157 0.9952 0.0
C96 C 0.79873 0.99592 0.00708 0.0
C97 C 0.69361 0.00563 0.03247 0.0
C98 C 0.68242 0.02516 0.94775 0.0
C99 C 0.66378 0.99051 0.97263 0.0
C100 C 0.67769 0.98883 0.01965 0.0
C101 C 0.66548 0.00917 0.93822 0.0
C102 C 0.69648 0.02337 0.99438 0.0
C103 C 0.70374 0.00634 0.09181 0.0
O104 O 0.73768 0.99193 0.23638 0.0
O105 O 0.74002 0.02756 0.23572 0.0
O106 O 0.71439 0.02471 0.10967 0.0
O107 O 0.71227 0.98889 0.10741 0.0
H108 H 0.69584 0.00465 0.22865 0.0
H109 H 0.66305 0.00503 0.28902 0.0
H110 H 0.69917 0.0174 0.45152 0.0
H111 H 0.73219 0.01682 0.39055 0.0
H112 H 0.84544 0.03603 0.06405 0.0
H113 H 0.81128 0.03436 0.11903 0.0
H114 H 0.81974 0.98671 0.9349 0.0
H115 H 0.78576 0.98472 0.99078 0.0
H116 H 0.68399 0.03967 0.92152 0.0
H117 H 0.65068 0.97811 0.96648 0.0
H118 H 0.67499 0.97513 0.04884 0.0
H119 H 0.70861 0.03659 0.00311 0.0
C120 C 0.61249 0.71366 0.25596 0.0
C121 C 0.60297 0.69381 0.232 0.0
C122 C 0.60254 0.67815 0.33195 0.0
C123 C 0.59811 0.6762 0.26962 0.0
C124 C 0.613 0.69778 0.35484 0.0
C125 C 0.61789 0.7153 0.31723 0.0
U126 U 0.61623 0.75164 0.11536 0.0
O127 O 0.63282 0.78474 0.11065 0.0
O128 O 0.59822 0.78019 0.11607 0.0
C129 C 0.61504 0.79401 0.1097 0.0
C130 C 0.61419 0.73378 0.22165 0.0
C131 C 0.61334 0.81069 0.06467 0.0
C132 C 0.61114 0.84892 0.04573 0.0
C133 C 0.61609 0.8327 0.08375 0.0
C134 C 0.60158 0.82141 0.96736 0.0
C135 C 0.60329 0.8435 0.98752 0.0
C136 C 0.6065 0.80515 0.00564 0.0
C137 C 0.6157 0.70603 0.98652 0.0
C138 C 0.61023 0.68295 0.89564 0.0
C139 C 0.60768 0.66698 0.99414 0.0
C140 C 0.61255 0.68764 0.02196 0.0
C141 C 0.60567 0.66469 0.93091 0.0
C142 C 0.61528 0.70344 0.92328 0.0
C143 C 0.61677 0.72828 0.0132 0.0
O144 O 0.63221 0.73984 0.19379 0.0
O145 O 0.59753 0.73749 0.19117 0.0
O146 O 0.63404 0.7357 0.04164 0.0
O147 O 0.59935 0.7339 0.04044 0.0
H148 H 0.59858 0.69218 0.18491 0.0
H149 H 0.59041 0.66119 0.25018 0.0
H150 H 0.61648 0.70002 0.40251 0.0
H151 H 0.62502 0.73056 0.33683 0.0
H152 H 0.61245 0.86563 0.0633 0.0
H153 H 0.62117 0.8373 0.12931 0.0
H154 H 0.59594 0.81663 0.92251 0.0
H155 H 0.60423 0.78823 0.98999 0.0
H156 H 0.60875 0.68153 0.84687 0.0
H157 H 0.60403 0.6531 0.02217 0.0
H158 H 0.61278 0.6894 0.07091 0.0
H159 H 0.61768 0.71749 0.89529 0.0
C160 C 0.21983 0.5489 0.14292 0.0
C161 C 0.19892 0.54711 0.16503 0.0
C162 C 0.18627 0.54356 0.06118 0.0
C163 C 0.18222 0.54457 0.12436 0.0
C164 C 0.20736 0.54563 0.03985 0.0
C165 C 0.22391 0.54836 0.08032 0.0
U166 U 0.25646 0.55113 0.28724 0.0
O167 O 0.28843 0.56827 0.28611 0.0
O168 O 0.28428 0.53253 0.28198 0.0
C169 C 0.29762 0.55007 0.28618 0.0
C170 C 0.23806 0.54989 0.1824 0.0
C171 C 0.31474 0.54914 0.32899 0.0
C172 C 0.34703 0.53378 0.35333 0.0
C173 C 0.33048 0.53529 0.31417 0.0
C174 C 0.33246 0.56021 0.42288 0.0
C175 C 0.34834 0.5463 0.40804 0.0
C176 C 0.31573 0.56155 0.38377 0.0
C177 C 0.21547 0.55214 0.42309 0.0
C178 C 0.19496 0.55197 0.5176 0.0
C179 C 0.17736 0.55252 0.42189 0.0
C180 C 0.19687 0.55246 0.39079 0.0
C181 C 0.17619 0.55224 0.4857 0.0
C182 C 0.2144 0.55195 0.48652 0.0
C183 C 0.2363 0.55188 0.39267 0.0
O184 O 0.24393 0.56825 0.21237 0.0
O185 O 0.24099 0.53235 0.21146 0.0
O186 O 0.24359 0.56957 0.36497 0.0
O187 O 0.24016 0.53379 0.36257 0.0
H188 H 0.19554 0.54743 0.21334 0.0
H189 H 0.16617 0.54335 0.14239 0.0
H190 H 0.21117 0.54455 0.99184 0.0
H191 H 0.24002 0.54952 0.06257 0.0
H192 H 0.35865 0.52253 0.34094 0.0
H193 H 0.3299 0.5255 0.27221 0.0
H194 H 0.33307 0.57023 0.46436 0.0
H195 H 0.30366 0.57229 0.39624 0.0
H196 H 0.19465 0.55197 0.56661 0.0
H197 H 0.16315 0.55241 0.39592 0.0
H198 H 0.19742 0.55253 0.34177 0.0
H199 H 0.22866 0.55176 0.51216 0.0
C200 C 0.10724 0.21691 0.17697 0.0
C201 C 0.11386 0.1963 0.18671 0.0
C202 C 0.09809 0.18222 0.09144 0.0
C203 C 0.10938 0.17902 0.14383 0.0
C204 C 0.09214 0.20303 0.08153 0.0
C205 C 0.09672 0.22014 0.12367 0.0
U206 U 0.11346 0.25661 0.32598 0.0
O207 O 0.13124 0.28929 0.32804 0.0
O208 O 0.09664 0.28581 0.32412 0.0
C209 C 0.11382 0.29923 0.32903 0.0
C210 C 0.11034 0.23574 0.2202 0.0
C211 C 0.11203 0.31763 0.3729 0.0
C212 C 0.11052 0.35663 0.38775 0.0
C213 C 0.11653 0.33878 0.35271 0.0
C214 C 0.0966 0.33254 0.46584 0.0
C215 C 0.09976 0.35367 0.44368 0.0
C216 C 0.10264 0.31462 0.43059 0.0
C217 C 0.10983 0.21553 0.45536 0.0
C218 C 0.10327 0.19445 0.54517 0.0
C219 C 0.10126 0.17648 0.44546 0.0
C220 C 0.10665 0.19645 0.41884 0.0
C221 C 0.09886 0.17541 0.50886 0.0
C222 C 0.10871 0.21435 0.51855 0.0
C223 C 0.11217 0.23707 0.42938 0.0
O224 O 0.09392 0.24099 0.25301 0.0
O225 O 0.1286 0.24063 0.24659 0.0
O226 O 0.09533 0.24273 0.4032 0.0
O227 O 0.12989 0.24255 0.39937 0.0
H228 H 0.12207 0.1935 0.22752 0.0
H229 H 0.11407 0.16306 0.15251 0.0
H230 H 0.08362 0.206 0.04136 0.0
H231 H 0.09167 0.23598 0.11503 0.0
H232 H 0.11354 0.37272 0.36991 0.0
H233 H 0.12366 0.34141 0.30823 0.0
H234 H 0.08831 0.32969 0.50863 0.0
H235 H 0.0989 0.29837 0.44682 0.0
H236 H 0.10183 0.19408 0.59407 0.0
H237 H 0.09782 0.1621 0.41628 0.0
H238 H 0.10744 0.19713 0.36992 0.0
H239 H 0.11119 0.22899 0.54733 0.0
C240 C 0.30107 0.01794 0.0927 0.0
C241 C 0.3206 0.01533 0.11806 0.0
C242 C 0.3376 0.01624 0.01827 0.0
C243 C 0.33865 0.01436 0.08125 0.0
C244 C 0.318 0.01914 0.99306 0.0
C245 C 0.29983 0.01995 0.0301 0.0
U246 U 0.27935 0.02103 0.25047 0.0
O247 O 0.25184 0.03582 0.29178 0.0
O248 O 0.25438 1.00015 0.29676 0.0
C249 C 0.24338 0.01682 0.30973 0.0
C250 C 0.28214 0.01803 0.13214 0.0
C251 C 0.22307 0.01446 0.34315 0.0
C252 C 0.18643 0.02234 0.35506 0.0
C253 C 0.20616 0.02564 0.32564 0.0
C254 C 0.20056 0.99726 0.4212 0.0
C255 C 0.18349 0.00812 0.40313 0.0
C256 C 0.22014 1.00024 0.39103 0.0
C257 C 0.3246 0.02691 0.36763 0.0
C258 C 0.32942 0.00901 0.46122 0.0
C259 C 0.35609 0.03662 0.42617 0.0
C260 C 0.34379 0.03968 0.37647 0.0
C261 C 0.34942 0.02056 0.46735 0.0
C262 C 0.31699 0.01226 0.41179 0.0
C263 C 0.31521 0.02627 0.3075 0.0
O264 O 0.27891 1.00101 0.16594 0.0
O265 O 0.27993 0.03653 0.16241 0.0
O266 O 0.30486 0.04274 0.29356 0.0
O267 O 0.30634 0.00725 0.288 0.0
H268 H 0.32184 0.01374 0.16642 0.0
H269 H 0.35337 0.01176 0.10212 0.0
H270 H 0.31671 0.02092 0.94483 0.0
H271 H 0.28486 0.02205 0.00991 0.0
H272 H 0.17355 0.03104 0.34069 0.0
H273 H 0.2081 0.03658 0.28846 0.0
H274 H 0.19865 0.98619 0.45807 0.0
H275 H 0.23301 0.99146 0.40514 0.0
H276 H 0.32401 0.99656 0.4926 0.0
H277 H 0.37158 0.04551 0.42955 0.0
H278 H 0.35001 0.05091 0.34259 0.0
H279 H 0.30218 1.00226 0.40591 0.0
C280 C 0.39599 0.30278 0.12789 0.0
C281 C 0.40064 0.32398 0.15255 0.0
C282 C 0.40505 0.33805 0.0507 0.0
C283 C 0.40505 0.34149 0.11425 0.0
C284 C 0.39948 0.31686 0.02668 0.0
C285 C 0.39505 0.29946 0.06486 0.0
U286 U 0.39337 0.27161 0.27864 0.0
O287 O 0.41188 0.24395 0.29028 0.0
O288 O 0.37722 0.23913 0.29851 0.0
C289 C 0.39519 0.23017 0.29915 0.0
C290 C 0.39442 0.28349 0.16547 0.0
C291 C 0.39757 0.21246 0.3405 0.0
C292 C 0.40372 0.1744 0.34778 0.0
C293 C 0.39775 0.19138 0.3144 0.0
C294 C 0.40818 0.19891 0.43598 0.0
C295 C 0.40951 0.17802 0.40847 0.0
C296 C 0.40245 0.21613 0.40197 0.0
C297 C 0.39544 0.3179 0.41592 0.0
C298 C 0.4143 0.33322 0.50395 0.0
C299 C 0.39252 0.35556 0.44944 0.0
C300 C 0.38656 0.33768 0.41029 0.0
C301 C 0.40731 0.35368 0.49454 0.0
C302 C 0.4085 0.31548 0.46467 0.0
C303 C 0.39438 0.30149 0.36567 0.0
O304 O 0.41131 0.28082 0.19605 0.0
O305 O 0.37671 0.27883 0.19631 0.0
O306 O 0.37641 0.29233 0.34431 0.0
O307 O 0.41162 0.29431 0.34129 0.0
H308 H 0.40158 0.32686 0.20114 0.0
H309 H 0.4094 0.35754 0.1344 0.0
H310 H 0.39896 0.31362 0.97818 0.0
H311 H 0.39157 0.28321 0.04494 0.0
H312 H 0.40445 0.15849 0.3255 0.0
H313 H 0.39422 0.18823 0.26695 0.0
H314 H 0.41263 0.20216 0.48268 0.0
H315 H 0.40263 0.23235 0.42286 0.0
H316 H 0.42566 0.33143 0.53862 0.0
H317 H 0.38712 0.37124 0.44097 0.0
H318 H 0.37655 0.33987 0.37259 0.0
H319 H 0.41541 0.30031 0.46986 0.0
Tb320 Tb 0.99817 0.99747 0.63883 0.0
C321 C 0.04714 1.00156 0.64317 0.0
Tb322 Tb 0.02066 0.02477 0.74759 0.0
O323 O 0.00578 0.02391 0.57523 0.0
O324 O 0.0054 0.03038 0.66731 0.0
O325 O 0.03027 0.98801 0.62985 0.0
C326 C 0.03991 0.05707 0.81668 0.0
O327 O 0.04662 0.01801 0.68396 0.0
C328 C 0.00663 0.98431 0.76752 0.0
C329 C 0.9709 0.01745 0.74751 0.0
O330 O 0.04346 0.03666 0.81756 0.0
O331 O 0.02559 0.0592 0.77728 0.0
O332 O 0.0094 0.99942 0.81029 0.0
O333 O 0.014 0.9918 0.71854 0.0
O334 O 0.98771 0.0296 0.76862 0.0
O335 O 0.97155 1.0035 0.69998 0.0
C336 C 0.977 0.96604 0.56988 0.0
O337 O 0.97202 0.97173 0.62526 0.0
O338 O 0.9937 0.97827 0.55321 0.0
C339 C 0.01105 0.03848 0.61762 0.0
Tb340 Tb 0.50081 0.0299 0.65893 0.0
C341 C 0.54097 0.00881 0.6132 0.0
Tb342 Tb 0.51258 0.98826 0.72226 0.0
O343 O 0.52965 0.04821 0.69225 0.0
O344 O 0.51511 0.02232 0.73977 0.0
O345 O 0.52553 0.0202 0.59629 0.0
C346 C 0.53338 0.95903 0.77709 0.0
O347 O 0.53989 0.99781 0.66379 0.0
C348 C 0.48217 0.98178 0.64416 0.0
C349 C 0.47237 0.01015 0.76897 0.0
O350 O 0.53105 0.95993 0.71915 0.0
O351 O 0.52357 0.97433 0.80445 0.0
O352 O 0.48475 0.96872 0.68734 0.0
O353 O 0.49801 0.99568 0.64221 0.0
O354 O 0.48685 0.99708 0.78295 0.0
O355 O 0.47425 0.02272 0.72149 0.0
C356 C 0.48116 0.0604 0.6055 0.0
O357 O 0.49291 0.06358 0.65272 0.0
O358 O 0.48076 0.04004 0.5875 0.0
C359 C 0.53128 0.03576 0.73749 0.0
Tb360 Tb 0.52084 0.52355 0.65431 0.0
C361 C 0.4712 0.52181 0.66499 0.0
Tb362 Tb 0.49629 0.49441 0.7526 0.0
O363 O 0.50715 0.50164 0.58165 0.0
O364 O 0.51123 0.49018 0.66696 0.0
O365 O 0.48899 0.53315 0.64773 0.0
C366 C 0.47337 0.46266 0.81133 0.0
O367 O 0.47044 0.50535 0.7021 0.0
C368 C 0.51258 0.53307 0.79284 0.0
C369 C 0.54506 0.4957 0.74169 0.0
O370 O 0.46805 0.47098 0.76169 0.0
O371 O 0.49141 0.47237 0.82789 0.0
O372 O 0.50599 0.51747 0.82814 0.0
O373 O 0.50639 0.52744 0.74053 0.0
O374 O 0.52748 0.48251 0.74851 0.0
O375 O 0.54571 0.51401 0.7119 0.0
C376 C 0.54223 0.55584 0.59403 0.0
O377 O 0.54636 0.53553 0.59103 0.0
O378 O 0.52616 0.5578 0.6306 0.0
C379 C 0.50304 0.48529 0.61656 0.0
Tb380 Tb 0.98886 0.50716 0.64118 0.0
C381 C 0.02516 0.4769 0.64091 0.0
Tb382 Tb 0.02221 0.51411 0.74158 0.0
O383 O 0.01162 0.52036 0.57222 0.0
O384 O 0.01507 0.52954 0.66246 0.0
O385 O 0.00448 0.477 0.63319 0.0
C386 C 0.05841 0.521 0.80061 0.0
O387 O 0.03597 0.49253 0.67338 0.0
C388 C 0.98649 0.49128 0.76946 0.0
C389 C 0.98621 0.5453 0.74411 0.0
O390 O 0.04902 0.50205 0.78548 0.0
O391 O 0.0472 0.53607 0.78396 0.0
O392 O 0.99833 0.50222 0.80948 0.0
O393 O 0.99618 0.49166 0.71948 0.0
O394 O 0.00569 0.54297 0.76132 0.0
O395 O 0.97626 0.53239 0.70198 0.0
C396 C 0.95216 0.49845 0.58388 0.0
O397 O 0.95451 0.50793 0.63701 0.0
O398 O 0.97056 0.49399 0.56253 0.0
C399 C 0.02423 0.53049 0.61165 0.0
C400 C 0.1616 0.00713 0.4984 0.0
C401 C 0.16276 0.00483 0.43514 0.0
C402 C 0.14211 0.0047 0.52964 0.0
C403 C 0.12336 0.99942 0.49689 0.0
C404 C 0.12446 0.9967 0.43296 0.0
C405 C 0.14418 0.99962 0.40274 0.0
C406 C 0.14148 0.00863 0.59755 0.0
C407 C 0.10475 0.99181 0.39637 0.0
C408 C 0.07484 0.9805 0.59196 0.0
C409 C 0.06634 1.00031 0.60522 0.0
C410 C 0.09318 0.97975 0.55508 0.0
C411 C 0.10259 0.9991 0.52955 0.0
C412 C 0.09308 0.01875 0.53976 0.0
C413 C 0.07542 0.01924 0.57873 0.0
C414 C 0.10272 0.95842 0.54428 0.0
C415 C 0.10151 0.03958 0.51092 0.0
H416 H 0.17595 0.01147 0.52333 0.0
H417 H 0.1451 0.99784 0.35374 0.0
H418 H 0.13288 0.02312 0.60927 0.0
H419 H 0.13278 0.99452 0.61951 0.0
H420 H 0.15754 0.01141 0.61664 0.0
H421 H 0.10844 0.98717 0.34839 0.0
H422 H 0.09422 0.97847 0.41629 0.0
H423 H 0.09588 0.00647 0.39731 0.0
H424 H 0.06748 0.9658 0.61162 0.0
H425 H 0.06841 0.03444 0.58735 0.0
H426 H 0.11866 0.95963 0.56406 0.0
H427 H 0.10471 0.95483 0.49493 0.0
H428 H 0.09288 0.94463 0.56455 0.0
H429 H 0.11076 0.05005 0.54473 0.0
H430 H 0.08811 0.04834 0.49693 0.0
H431 H 0.11178 0.03705 0.47043 0.0
C432 C 0.4354 0.15014 0.41248 0.0
C433 C 0.41869 0.16043 0.44022 0.0
C434 C 0.44452 0.13346 0.44061 0.0
C435 C 0.43652 0.12648 0.49766 0.0
C436 C 0.41928 0.13648 0.52544 0.0
C437 C 0.41081 0.1536 0.49685 0.0
C438 C 0.463 0.12356 0.40955 0.0
C439 C 0.40987 0.12928 0.58552 0.0
C440 C 0.45285 0.07117 0.53916 0.0
C441 C 0.46944 0.07717 0.5787 0.0
C442 C 0.44121 0.08694 0.51499 0.0
C443 C 0.44691 0.10936 0.52867 0.0
C444 C 0.4637 0.11545 0.56869 0.0
C445 C 0.47453 0.09929 0.59388 0.0
C446 C 0.42278 0.07962 0.47501 0.0
C447 C 0.47057 0.1391 0.58379 0.0
H448 H 0.44164 0.15545 0.36889 0.0
H449 H 0.39778 0.1614 0.51824 0.0
H450 H 0.4769 0.12572 0.43928 0.0
H451 H 0.4591 0.1058 0.40125 0.0
H452 H 0.46749 0.13096 0.36558 0.0
H453 H 0.39396 0.13497 0.59411 0.0
H454 H 0.40859 0.11128 0.58765 0.0
H455 H 0.4203 0.13612 0.62245 0.0
H456 H 0.44874 0.0541 0.52796 0.0
H457 H 0.48732 0.10402 0.62459 0.0
H458 H 0.42598 0.08557 0.42873 0.0
H459 H 0.40836 0.08673 0.49295 0.0
H460 H 0.41952 0.06162 0.47185 0.0
H461 H 0.47546 0.14756 0.54168 0.0
H462 H 0.48394 0.14117 0.6155 0.0
H463 H 0.45716 0.14724 0.60454 0.0
C464 C 0.3627 0.54465 0.51238 0.0
C465 C 0.36612 0.54453 0.44937 0.0
C466 C 0.37919 0.54191 0.55145 0.0
C467 C 0.39949 0.53864 0.5269 0.0
C468 C 0.40314 0.53881 0.46349 0.0
C469 C 0.38648 0.54197 0.42561 0.0
C470 C 0.37484 0.54219 0.61895 0.0
C471 C 0.42451 0.5351 0.43544 0.0
C472 C 0.44861 0.54781 0.62171 0.0
C473 C 0.45159 0.52651 0.63649 0.0
C474 C 0.43119 0.55212 0.58811 0.0
C475 C 0.41686 0.53459 0.56728 0.0
C476 C 0.41971 0.51305 0.5827 0.0
C477 C 0.4369 0.50931 0.61798 0.0
C478 C 0.4285 0.57532 0.5733 0.0
C479 C 0.4052 0.49386 0.55964 0.0
H480 H 0.347 0.54636 0.53122 0.0
H481 H 0.38942 0.54232 0.37712 0.0
H482 H 0.37733 0.52613 0.63674 0.0
H483 H 0.38606 0.55451 0.64208 0.0
H484 H 0.35846 0.54593 0.63098 0.0
H485 H 0.42506 0.53705 0.38568 0.0
H486 H 0.43701 0.54662 0.45611 0.0
H487 H 0.42835 0.5184 0.44443 0.0
H488 H 0.46006 0.56108 0.6359 0.0
H489 H 0.43946 0.49277 0.6284 0.0
H490 H 0.41224 0.57931 0.58577 0.0
H491 H 0.43072 0.5773 0.52383 0.0
H492 H 0.43997 0.58721 0.59718 0.0
H493 H 0.38853 0.49628 0.57189 0.0
H494 H 0.40907 0.4783 0.578 0.0
H495 H 0.40647 0.49247 0.50948 0.0
C496 C 0.07947 0.38643 0.44217 0.0
C497 C 0.09017 0.37224 0.47551 0.0
C498 C 0.06951 0.40357 0.47078 0.0
C499 C 0.07014 0.40665 0.53454 0.0
C500 C 0.08112 0.39258 0.56858 0.0
C501 C 0.0909 0.37545 0.53868 0.0
C502 C 0.05805 0.4182 0.43271 0.0
C503 C 0.08222 0.39535 0.63663 0.0
C504 C 0.05822 0.46235 0.59975 0.0
C505 C 0.03659 0.45881 0.61449 0.0
C506 C 0.06944 0.44547 0.5746 0.0
C507 C 0.05888 0.42439 0.56514 0.0
C508 C 0.03716 0.4206 0.58152 0.0
C509 C 0.0262 0.43793 0.60522 0.0
C510 C 0.09244 0.45035 0.55683 0.0
C511 C 0.02547 0.39825 0.57352 0.0
H512 H 0.07845 0.38384 0.39348 0.0
H513 H 0.0992 0.36461 0.56471 0.0
H514 H 0.04101 0.41691 0.44569 0.0
H515 H 0.06433 0.43543 0.44106 0.0
H516 H 0.0596 0.41404 0.38349 0.0
H517 H 0.09354 0.38492 0.65553 0.0
H518 H 0.08699 0.41257 0.65041 0.0
H519 H 0.06634 0.39098 0.6571 0.0
H520 H 0.06633 0.47849 0.60676 0.0
H521 H 0.00957 0.43507 0.61737 0.0
H522 H 0.09434 0.4488 0.50682 0.0
H523 H 0.1021 0.43843 0.57622 0.0
H524 H 0.09879 0.46702 0.5721 0.0
H525 H 0.02493 0.3933 0.5247 0.0
H526 H 0.00902 0.39767 0.59212 0.0
H527 H 0.03393 0.38611 0.59637 0.0
C528 C 0.8555 0.01676 0.898 0.0
C529 C 0.85539 0.01332 0.96022 0.0
C530 C 0.87448 0.01851 0.86394 0.0
C531 C 0.89377 0.0163 0.89258 0.0
C532 C 0.89374 0.01278 0.9555 0.0
C533 C 0.87454 0.01159 0.98876 0.0
C534 C 0.87388 0.02257 0.79718 0.0
C535 C 0.91392 0.0099 0.98741 0.0
C536 C 0.93798 0.99819 0.78922 0.0
C537 C 0.95086 0.01769 0.78261 0.0
C538 C 0.91971 0.99744 0.82632 0.0
C539 C 0.91379 0.0168 0.85595 0.0
C540 C 0.92666 0.03661 0.84904 0.0
C541 C 0.94527 0.03675 0.81313 0.0
C542 C 0.90688 0.97586 0.83427 0.0
C543 C 0.92067 0.05765 0.87907 0.0
H544 H 0.8407 0.01834 0.87611 0.0
H545 H 0.87441 0.00881 0.03687 0.0
H546 H 0.88483 0.03702 0.78618 0.0
H547 H 0.87929 0.00843 0.77041 0.0
H548 H 0.85778 0.02526 0.78263 0.0
H549 H 0.9111 0.00654 0.03608 0.0
H550 H 0.92181 0.99626 0.96524 0.0
H551 H 0.92503 0.02479 0.98397 0.0
H552 H 0.94256 0.98331 0.76681 0.0
H553 H 0.95533 0.05179 0.80835 0.0
H554 H 0.89094 0.97632 0.81553 0.0
H555 H 0.90477 0.97257 0.88311 0.0
H556 H 0.9145 0.9622 0.81132 0.0
H557 H 0.90508 0.06132 0.86286 0.0
H558 H 0.93248 0.07161 0.86964 0.0
H559 H 0.91907 0.05605 0.92879 0.0
C560 C 0.6058 0.88179 0.95005 0.0
C561 C 0.5954 0.86065 0.95044 0.0
C562 C 0.59734 0.89855 0.92008 0.0
C563 C 0.57793 0.89416 0.88986 0.0
C564 C 0.56774 0.87271 0.88838 0.0
C565 C 0.57656 0.85629 0.91859 0.0
C566 C 0.60889 0.92109 0.92224 0.0
C567 C 0.54713 0.86724 0.85628 0.0
C568 C 0.54272 0.93982 0.86865 0.0
C569 C 0.54554 0.94331 0.80666 0.0
C570 C 0.55345 0.92415 0.8965 0.0
C571 C 0.56771 0.91201 0.8618 0.0
C572 C 0.57124 0.91616 0.79962 0.0
C573 C 0.55996 0.9316 0.7727 0.0
C574 C 0.5491 0.92017 0.96275 0.0
C575 C 0.58687 0.90424 0.76149 0.0
H576 H 0.62051 0.88533 0.97369 0.0
H577 H 0.5682 0.84016 0.9191 0.0
H578 H 0.6102 0.9278 0.8764 0.0
H579 H 0.59984 0.93216 0.95146 0.0
H580 H 0.625 0.92123 0.94056 0.0
H581 H 0.54136 0.84973 0.85838 0.0
H582 H 0.53487 0.87708 0.87693 0.0
H583 H 0.54907 0.87142 0.80801 0.0
H584 H 0.53169 0.94896 0.89509 0.0
H585 H 0.56247 0.93457 0.72494 0.0
H586 H 0.56401 0.92286 0.98806 0.0
H587 H 0.54275 0.90297 0.9683 0.0
H588 H 0.5376 0.93095 0.98342 0.0
H589 H 0.60294 0.908 0.77981 0.0
H590 H 0.58725 0.90877 0.71336 0.0
H591 H 0.58292 0.88639 0.76342 0.0
C592 C 0.63185 0.46476 0.97229 0.0
C593 C 0.6521 0.47134 0.94928 0.0
C594 C 0.61371 0.46884 0.94103 0.0
C595 C 0.61598 0.47989 0.88597 0.0
C596 C 0.63641 0.48721 0.86393 0.0
C597 C 0.65418 0.48278 0.89572 0.0
C598 C 0.59216 0.46093 0.96614 0.0
C599 C 0.63954 0.49933 0.80599 0.0
C600 C 0.57241 0.4718 0.77004 0.0
C601 C 0.5635 0.49162 0.77662 0.0
C602 C 0.58952 0.46772 0.80551 0.0
C603 C 0.59715 0.48349 0.85026 0.0
C604 C 0.58758 0.50325 0.85824 0.0
C605 C 0.57116 0.50726 0.82037 0.0
C606 C 0.59963 0.44671 0.7945 0.0
C607 C 0.59465 0.5202 0.9066 0.0
H608 H 0.63024 0.45587 0.01362 0.0
H609 H 0.66984 0.48813 0.87835 0.0
H610 H 0.58172 0.47438 0.96871 0.0
H611 H 0.5847 0.44792 0.93536 0.0
H612 H 0.59297 0.45435 0.01191 0.0
H613 H 0.65649 0.50393 0.79508 0.0
H614 H 0.63258 0.4891 0.76771 0.0
H615 H 0.63124 0.51436 0.80969 0.0
H616 H 0.56625 0.45968 0.73645 0.0
H617 H 0.56386 0.52241 0.82614 0.0
H618 H 0.59868 0.43742 0.83646 0.0
H619 H 0.61663 0.45028 0.78246 0.0
H620 H 0.59199 0.43628 0.75753 0.0
H621 H 0.59613 0.51252 0.95054 0.0
H622 H 0.58347 0.53294 0.9129 0.0
H623 H 0.61043 0.52817 0.89395 0.0
C624 C 0.9213 0.64495 0.86127 0.0
C625 C 0.92912 0.65421 0.91653 0.0
C626 C 0.92916 0.62624 0.83391 0.0
C627 C 0.94472 0.61588 0.86335 0.0
C628 C 0.9516 0.62416 0.92102 0.0
C629 C 0.94397 0.64331 0.94648 0.0
C630 C 0.92148 0.61817 0.77215 0.0
C631 C 0.96765 0.61321 0.95495 0.0
C632 C 0.95611 0.55879 0.80518 0.0
C633 C 0.9752 0.56321 0.77291 0.0
C634 C 0.94613 0.57565 0.83581 0.0
C635 C 0.95502 0.59753 0.83179 0.0
C636 C 0.97404 0.60199 0.79758 0.0
C637 C 0.98412 0.58473 0.7697 0.0
C638 C 0.9263 0.56999 0.87316 0.0
C639 C 0.98367 0.62505 0.78997 0.0
H640 H 0.90931 0.6526 0.83833 0.0
H641 H 0.95033 0.65014 0.98886 0.0
H642 H 0.93499 0.61856 0.73922 0.0
H643 H 0.91458 0.60102 0.77373 0.0
H644 H 0.90939 0.62809 0.7551 0.0
H645 H 0.96949 0.62001 0.00207 0.0
H646 H 0.96296 0.59545 0.95641 0.0
H647 H 0.98323 0.61531 0.93104 0.0
H648 H 0.94934 0.54205 0.80794 0.0
H649 H 0.99885 0.58807 0.74444 0.0
H650 H 0.91267 0.57657 0.85249 0.0
H651 H 0.9279 0.57757 0.91947 0.0
H652 H 0.92268 0.55212 0.8767 0.0
H653 H 0.97197 0.63481 0.77031 0.0
H654 H 0.99805 0.6258 0.76015 0.0
H655 H 0.98795 0.63279 0.83473 0.0
C656 C 0.07313 0.15559 0.57952 0.0
C657 C 0.08964 0.15502 0.53616 0.0
C658 C 0.06192 0.13633 0.59864 0.0
C659 C 0.06729 0.11606 0.57353 0.0
C660 C 0.085 0.11538 0.53346 0.0
C661 C 0.09593 0.13487 0.51506 0.0
C662 C 0.04357 0.13775 0.643 0.0
C663 C 0.09195 0.09412 0.50834 0.0
C664 C 0.04189 0.06519 0.64657 0.0
C665 C 0.02511 0.05869 0.60797 0.0
C666 C 0.05615 0.08339 0.63524 0.0
C667 C 0.05319 0.0959 0.58474 0.0
C668 C 0.03631 0.08946 0.5453 0.0
C669 C 0.02268 0.07073 0.55689 0.0
C670 C 0.07464 0.08891 0.67652 0.0
C671 C 0.03261 0.10244 0.49093 0.0
H672 H 0.06818 0.17114 0.5961 0.0
H673 H 0.10905 0.13435 0.4828 0.0
H674 H 0.02856 0.13285 0.61941 0.0
H675 H 0.04463 0.12638 0.68007 0.0
H676 H 0.04289 0.15446 0.66326 0.0
H677 H 0.10732 0.0962 0.48313 0.0
H678 H 0.09347 0.08319 0.54595 0.0
H679 H 0.07981 0.08616 0.47745 0.0
H680 H 0.04458 0.05566 0.68437 0.0
H681 H 0.00993 0.06563 0.52632 0.0
H682 H 0.07489 0.10599 0.69436 0.0
H683 H 0.08967 0.08748 0.65071 0.0
H684 H 0.07424 0.07797 0.71519 0.0
H685 H 0.02988 0.11937 0.50585 0.0
H686 H 0.01883 0.09527 0.46461 0.0
H687 H 0.04683 0.10334 0.46059 0.0
C688 C 0.37644 0.0282 0.54757 0.0
C689 C 0.36492 0.01328 0.50871 0.0
C690 C 0.3939 0.02213 0.57805 0.0
C691 C 0.40041 1.00095 0.56701 0.0
C692 C 0.38796 0.98546 0.53094 0.0
C693 C 0.37024 0.99179 0.50254 0.0
C694 C 0.40584 0.03901 0.61882 0.0
C695 C 0.39409 0.96258 0.51921 0.0
C696 C 0.45916 0.99466 0.56676 0.0
C697 C 0.46121 0.9854 0.62252 0.0
C698 C 0.43938 0.99975 0.54808 0.0
C699 C 0.42138 0.99568 0.5867 0.0
C700 C 0.42343 0.98622 0.64306 0.0
C701 C 0.4433 0.98084 0.65986 0.0
C702 C 0.43775 0.00906 0.48653 0.0
C703 C 0.40481 0.98246 0.68634 0.0
H704 H 0.37223 0.04481 0.55258 0.0
H705 H 0.36138 0.98029 0.47212 0.0
H706 H 0.41683 0.03203 0.64907 0.0
H707 H 0.41498 0.05109 0.59049 0.0
H708 H 0.39456 0.04797 0.64721 0.0
H709 H 0.38162 0.95194 0.49526 0.0
H710 H 0.40885 0.96304 0.49112 0.0
H711 H 0.39728 0.95519 0.56248 0.0
H712 H 0.47304 0.99791 0.5378 0.0
H713 H 0.44496 0.9738 0.70336 0.0
H714 H 0.42726 0.02244 0.48839 0.0
H715 H 0.43073 0.99612 0.45475 0.0
H716 H 0.45345 0.01529 0.46781 0.0
H717 H 0.39924 0.99838 0.70119 0.0
H718 H 0.40886 0.97393 0.72707 0.0
H719 H 0.39151 0.97276 0.66342 0.0
C720 C 0.40918 0.38923 0.55579 0.0
C721 C 0.41914 0.37338 0.52137 0.0
C722 C 0.42095 0.4082 0.5786 0.0
C723 C 0.44287 0.4116 0.56418 0.0
C724 C 0.45282 0.39555 0.52926 0.0
C725 C 0.44088 0.3766 0.50897 0.0
C726 C 0.40981 0.42463 0.61695 0.0
C727 C 0.47607 0.39852 0.51221 0.0
C728 C 0.4735 0.46705 0.55556 0.0
C729 C 0.48672 0.46705 0.60519 0.0
C730 C 0.45799 0.44973 0.54402 0.0
C731 C 0.45571 0.43204 0.58312 0.0
C732 C 0.46827 0.43258 0.63514 0.0
C733 C 0.48386 0.44995 0.64506 0.0
C734 C 0.44474 0.44988 0.48846 0.0
C735 C 0.4657 0.41446 0.6792 0.0
H736 H 0.39231 0.38674 0.56508 0.0
H737 H 0.44848 0.36444 0.48156 0.0
H738 H 0.42012 0.43238 0.65308 0.0
H739 H 0.40549 0.43762 0.58788 0.0
H740 H 0.39505 0.41703 0.63827 0.0
H741 H 0.48107 0.38496 0.48212 0.0
H742 H 0.47977 0.414 0.48877 0.0
H743 H 0.48562 0.3995 0.55366 0.0
H744 H 0.47541 0.48048 0.52531 0.0
H745 H 0.494 0.45001 0.68371 0.0
H746 H 0.42772 0.44702 0.50098 0.0
H747 H 0.44858 0.43647 0.45616 0.0
H748 H 0.44739 0.46552 0.46514 0.0
H749 H 0.44876 0.41078 0.69189 0.0
H750 H 0.47477 0.41859 0.72104 0.0
H751 H 0.47125 0.39942 0.6575 0.0
C752 C 0.15051 0.53774 0.5663 0.0
C753 C 0.15539 0.55179 0.51851 0.0
C754 C 0.13011 0.53549 0.59291 0.0
C755 C 0.11423 0.54744 0.57072 0.0
C756 C 0.11956 0.5629 0.52601 0.0
C757 C 0.14003 0.56483 0.50035 0.0
C758 C 0.12536 0.51922 0.64162 0.0
C759 C 0.10328 0.57655 0.50274 0.0
C760 C 0.0576 0.52312 0.55677 0.0
C761 C 0.0473 0.53465 0.60269 0.0
C762 C 0.07961 0.52615 0.5488 0.0
C763 C 0.09153 0.54165 0.58641 0.0
C764 C 0.08125 0.55289 0.63418 0.0
C765 C 0.05919 0.54908 0.64208 0.0
C766 C 0.09006 0.51305 0.49924 0.0
C767 C 0.09346 0.56894 0.67664 0.0
H768 H 0.16232 0.52768 0.58101 0.0
H769 H 0.14388 0.57624 0.4649 0.0
H770 H 0.11312 0.52435 0.67451 0.0
H771 H 0.11935 0.50331 0.62028 0.0
H772 H 0.13981 0.51677 0.66667 0.0
H773 H 0.11044 0.58943 0.47295 0.0
H774 H 0.09138 0.56594 0.47657 0.0
H775 H 0.09481 0.58437 0.54114 0.0
H776 H 0.04847 0.51143 0.52753 0.0
H777 H 0.05119 0.5577 0.67829 0.0
H778 H 0.10336 0.50518 0.51763 0.0
H779 H 0.0967 0.52403 0.46362 0.0
H780 H 0.07887 0.5002 0.478 0.0
H781 H 0.10387 0.56017 0.70451 0.0
H782 H 0.08288 0.57784 0.70761 0.0
H783 H 0.10374 0.58095 0.65068 0.0
C784 C 0.91914 0.88248 0.80443 0.0
C785 C 0.9292 0.86677 0.83364 0.0
C786 C 0.93073 0.90125 0.78309 0.0
C787 C 0.95278 0.90454 0.79282 0.0
C788 C 0.96313 0.88804 0.81895 0.0
C789 C 0.95124 0.86931 0.83853 0.0
C790 C 0.91883 0.91773 0.75328 0.0
C791 C 0.98652 0.89094 0.83119 0.0
C792 C 0.99093 0.94844 0.72503 0.0
C793 C 0.99239 0.96419 0.77269 0.0
C794 C 0.97704 0.92944 0.72923 0.0
C795 C 0.96485 0.92595 0.78302 0.0
C796 C 0.96585 0.94215 0.83054 0.0
C797 C 0.97965 0.96107 0.82481 0.0
C798 C 0.97565 0.91294 0.67675 0.0
C799 C 0.95267 0.93927 0.88798 0.0
H800 H 0.9021 0.88053 0.80032 0.0
H801 H 0.95907 0.8574 0.86201 0.0
H802 H 0.92917 0.93158 0.73529 0.0
H803 H 0.90958 0.90958 0.71543 0.0
H804 H 0.90725 0.92406 0.78644 0.0
H805 H 0.99249 0.87572 0.84586 0.0
H806 H 0.99568 0.89632 0.79026 0.0
H807 H 0.98961 0.90378 0.86745 0.0
H808 H 1.00073 0.95091 0.68456 0.0
H809 H 0.98048 0.97344 0.86126 0.0
H810 H 0.95884 0.90811 0.66604 0.0
H811 H 0.98267 0.89803 0.68922 0.0
H812 H 0.98406 0.91926 0.63552 0.0
H813 H 0.93569 0.9363 0.87688 0.0
H814 H 0.95477 0.95372 0.91975 0.0
H815 H 0.95702 0.92482 0.91128 0.0
C816 C 0.63693 0.03201 0.91595 0.0
C817 C 0.64765 0.01367 0.90084 0.0
C818 C 0.61835 0.03551 0.88691 0.0
C819 C 0.61058 0.02054 0.84066 0.0
C820 C 0.62176 1.00234 0.82366 0.0
C821 C 0.64004 0.99891 0.85484 0.0
C822 C 0.60658 0.05476 0.90748 0.0
C823 C 0.61415 0.98598 0.77443 0.0
C824 C 0.55183 0.01936 0.81476 0.0
C825 C 0.55149 0.03257 0.76511 0.0
C826 C 0.57101 0.0145 0.83819 0.0
C827 C 0.59026 0.02369 0.81234 0.0
C828 C 0.59 0.03707 0.76206 0.0
C829 C 0.57056 0.0414 0.73905 0.0
C830 C 0.57069 0.99951 0.89043 0.0
C831 C 0.61023 0.04667 0.73242 0.0
H832 H 0.64262 0.04315 0.95252 0.0
H833 H 0.64827 0.98461 0.84369 0.0
H834 H 0.60421 0.06493 0.86854 0.0
H835 H 0.5907 0.04892 0.92566 0.0
H836 H 0.61502 0.06513 0.94316 0.0
H837 H 0.62757 0.97822 0.75215 0.0
H838 H 0.60334 0.97295 0.79479 0.0
H839 H 0.60541 0.99351 0.73938 0.0
H840 H 0.53705 0.01288 0.83535 0.0
H841 H 0.57032 0.05139 0.7 0.0
H842 H 0.57912 0.00793 0.92936 0.0
H843 H 0.5791 0.98505 0.87682 0.0
H844 H 0.55436 0.9938 0.9055 0.0
H845 H 0.61911 0.05797 0.76513 0.0
H846 H 0.60732 0.05569 0.69154 0.0
H847 H 0.62043 0.03353 0.71919 0.0
C848 C 0.60343 0.62429 0.90859 0.0
C849 C 0.59533 0.6444 0.90286 0.0
C850 C 0.59236 0.60496 0.88582 0.0
C851 C 0.57248 0.60589 0.85903 0.0
C852 C 0.5647 0.6263 0.85138 0.0
C853 C 0.57633 0.6453 0.87292 0.0
C854 C 0.60165 0.58357 0.89148 0.0
C855 C 0.54359 0.62802 0.82308 0.0
C856 C 0.54315 0.56001 0.76719 0.0
C857 C 0.52843 0.55125 0.80982 0.0
C858 C 0.55848 0.57697 0.78302 0.0
C859 C 0.55883 0.58568 0.8432 0.0
C860 C 0.54447 0.5764 0.88722 0.0
C861 C 0.52957 0.55912 0.87006 0.0
C862 C 0.57383 0.58586 0.73477 0.0
C863 C 0.54433 0.58526 0.95196 0.0
H864 H 0.61828 0.62371 0.93113 0.0
H865 H 0.57008 0.6609 0.86875 0.0
H866 H 0.59179 0.57334 0.92337 0.0
H867 H 0.60165 0.5745 0.84699 0.0
H868 H 0.61807 0.58582 0.90815 0.0
H869 H 0.54017 0.64519 0.81875 0.0
H870 H 0.54313 0.61982 0.77743 0.0
H871 H 0.53082 0.61964 0.85114 0.0
H872 H 0.54314 0.55329 0.72174 0.0
H873 H 0.51846 0.55209 0.90352 0.0
H874 H 0.58988 0.58981 0.75308 0.0
H875 H 0.5685 0.6011 0.7183 0.0
H876 H 0.57485 0.57418 0.69532 0.0
H877 H 0.56017 0.58494 0.97146 0.0
H878 H 0.53253 0.57586 0.98097 0.0
H879 H 0.54065 0.60249 0.95332 0.0
C880 C 0.87341 0.4431 0.86185 0.0
C881 C 0.85851 0.45841 0.86236 0.0
C882 C 0.89288 0.44692 0.83136 0.0
C883 C 0.89726 0.46633 0.79973 0.0
C884 C 0.88094 0.48003 0.79208 0.0
C885 C 0.86167 0.47603 0.8243 0.0
C886 C 0.9097 0.43175 0.84054 0.0
C887 C 0.88466 0.50018 0.75562 0.0
C888 C 0.95266 0.49206 0.82833 0.0
C889 C 0.96364 0.4851 0.77659 0.0
C890 C 0.9308 0.4869 0.8348 0.0
C891 C 0.91968 0.47447 0.78823 0.0
C892 C 0.93062 0.46803 0.73487 0.0
C893 C 0.95258 0.47317 0.73008 0.0
C894 C 0.91971 0.49435 0.89227 0.0
C895 C 0.91926 0.45542 0.68343 0.0
H896 H 0.87075 0.42933 0.89086 0.0
H897 H 0.85003 0.48777 0.8243 0.0
H898 H 0.91858 0.42863 0.79771 0.0
H899 H 0.92114 0.43945 0.8739 0.0
H900 H 0.9029 0.4159 0.85789 0.0
H901 H 0.86954 0.50634 0.74337 0.0
H902 H 0.89389 0.51319 0.78254 0.0
H903 H 0.89394 0.49687 0.71357 0.0
H904 H 0.96117 0.50158 0.86381 0.0
H905 H 0.9611 0.46791 0.68974 0.0
H906 H 0.91246 0.48001 0.91646 0.0
H907 H 0.90679 0.50428 0.88121 0.0
H908 H 0.9306 0.50422 0.92341 0.0
H909 H 0.91414 0.43864 0.6971 0.0
H910 H 0.92946 0.4544 0.64197 0.0
H911 H 0.90484 0.46309 0.67228 0.0
C912 C 0.06947 0.16002 0.03569 0.0
C913 C 0.09098 0.16386 0.04886 0.0
C914 C 0.06206 0.14306 0.99515 0.0
C915 C 0.07655 0.12967 0.96627 0.0
C916 C 0.09843 0.13392 0.9779 0.0
C917 C 0.10537 0.15078 0.01986 0.0
C918 C 0.03857 0.13906 0.98538 0.0
C919 C 0.1145 0.12089 0.94524 0.0
C920 C 0.05591 0.07214 0.91352 0.0
C921 C 0.05039 0.07522 0.85388 0.0
C922 C 0.06437 0.08977 0.95061 0.0
C923 C 0.06861 0.11066 0.92626 0.0
C924 C 0.06395 0.11353 0.86491 0.0
C925 C 0.05415 0.09596 0.8303 0.0
C926 C 0.06803 0.08623 0.01649 0.0
C927 C 0.06876 0.13522 0.83604 0.0
H928 H 0.05833 0.17013 0.05814 0.0
H929 H 0.12206 0.15402 0.0291 0.0
H930 H 0.03509 0.13603 0.93675 0.0
H931 H 0.03227 0.12434 0.00945 0.0
H932 H 0.02997 0.15299 0.00279 0.0
H933 H 0.13097 0.12686 0.95713 0.0
H934 H 0.11164 0.10351 0.9564 0.0
H935 H 0.11284 0.12172 0.89554 0.0
H936 H 0.0527 0.05616 0.932 0.0
H937 H 0.04957 0.09843 0.78443 0.0
H938 H 0.05916 0.09753 0.04556 0.0
H939 H 0.08502 0.08989 0.02649 0.0
H940 H 0.06298 0.06928 0.02913 0.0
H941 H 0.05628 0.14599 0.84948 0.0
H942 H 0.06922 0.1334 0.7858 0.0
H943 H 0.08411 0.14341 0.85125 0.0
C944 C 0.37645 0.02488 0.99921 0.0
C945 C 0.35694 0.01492 0.97945 0.0
C946 C 0.395 0.02315 0.96437 0.0
C947 C 0.39404 0.01136 0.90801 0.0
C948 C 0.3744 1.00137 0.8875 0.0
C949 C 0.35608 1.00328 0.92348 0.0
C950 C 0.41564 0.03412 0.98768 0.0
C951 C 0.37265 0.98887 0.82735 0.0
C952 C 0.43883 0.02643 0.7968 0.0
C953 C 0.45247 0.01028 0.80534 0.0
C954 C 0.41952 0.02661 0.82869 0.0
C955 C 0.41359 0.01019 0.87009 0.0
C956 C 0.42699 0.99351 0.8779 0.0
C957 C 0.44637 0.99381 0.84566 0.0
C958 C 0.40564 0.04463 0.81877 0.0
C959 C 0.42089 0.97544 0.92064 0.0
H960 H 0.37722 0.03423 0.04188 0.0
H961 H 0.34111 0.99535 0.90815 0.0
H962 H 0.42738 0.02201 0.99013 0.0
H963 H 0.42219 0.0466 0.9559 0.0
H964 H 0.41379 0.04211 0.03329 0.0
H965 H 0.35701 0.97937 0.82227 0.0
H966 H 0.37482 1.00046 0.79028 0.0
H967 H 0.38518 0.97756 0.82176 0.0
H968 H 0.44327 0.03914 0.76532 0.0
H969 H 0.4566 0.98102 0.85155 0.0
H970 H 0.40377 0.05437 0.86164 0.0
H971 H 0.38966 0.03763 0.80533 0.0
H972 H 0.41221 0.05571 0.78325 0.0
H973 H 0.41997 0.9823 0.96777 0.0
H974 H 0.43235 0.9629 0.91858 0.0
H975 H 0.40499 0.96743 0.9097 0.0
C976 C 0.40643 0.37728 0.02162 0.0
C977 C 0.41215 0.35608 0.00961 0.0
C978 C 0.41438 0.39459 0.98556 0.0
C979 C 0.42848 0.3907 0.93633 0.0
C980 C 0.43358 0.36918 0.92238 0.0
C981 C 0.42546 0.35222 0.95923 0.0
C982 C 0.40824 0.4172 1.00135 0.0
C983 C 0.44855 0.36415 0.87054 0.0
C984 C 0.44231 0.43455 0.82096 0.0
C985 C 0.46148 0.44453 0.84304 0.0
C986 C 0.43129 0.41701 0.85067 0.0
C987 C 0.43964 0.40937 0.90377 0.0
C988 C 0.45904 0.41943 0.92591 0.0
C989 C 0.46967 0.43686 0.89537 0.0
C990 C 0.41089 0.40651 0.82488 0.0
C991 C 0.4687 0.41166 0.98175 0.0
H992 H 0.39586 0.38039 0.05966 0.0
H993 H 0.43025 0.336 0.94977 0.0
H994 H 0.42243 0.42801 0.01486 0.0
H995 H 0.40177 0.42415 0.96113 0.0
H996 H 0.39628 0.41738 0.03893 0.0
H997 H 0.44726 0.3465 0.85751 0.0
H998 H 0.44555 0.37336 0.83016 0.0
H999 H 0.46502 0.36909 0.88433 0.0
H1000 H 0.436 0.44035 0.78022 0.0
H1001 H 0.48455 0.44444 0.91242 0.0
H1002 H 0.39792 0.40715 0.85935 0.0
H1003 H 0.41243 0.38907 0.81299 0.0
H1004 H 0.40638 0.41452 0.78373 0.0
H1005 H 0.45748 0.41259 0.02092 0.0
H1006 H 0.48375 0.42138 0.99352 0.0
H1007 H 0.47186 0.39436 0.97449 0.0
C1008 C 0.16994 0.5502 0.96194 0.0
C1009 C 0.16872 0.53984 0.01748 0.0
C1010 C 0.15358 0.54664 0.92022 0.0
C1011 C 0.13526 0.53289 0.93512 0.0
C1012 C 0.13408 0.52206 0.99045 0.0
C1013 C 0.15088 0.52552 0.03064 0.0
C1014 C 0.15578 0.55812 0.86112 0.0
C1015 C 0.11487 0.50711 0.00777 0.0
C1016 C 0.08256 0.54301 0.87078 0.0
C1017 C 0.07868 0.5248 0.83146 0.0
C1018 C 0.1012 0.54609 0.90384 0.0
C1019 C 0.11658 0.53099 0.89553 0.0
C1020 C 0.11328 0.51333 0.85268 0.0
C1021 C 0.0941 0.51017 0.82203 0.0
C1022 C 0.10409 0.56506 0.94925 0.0
C1023 C 0.12991 0.49777 0.83957 0.0
H1024 H 0.18355 0.56143 0.95128 0.0
H1025 H 0.15002 0.51693 0.07246 0.0
H1026 H 0.14859 0.54777 0.82339 0.0
H1027 H 0.14753 0.57317 0.86544 0.0
H1028 H 0.17263 0.56285 0.84905 0.0
H1029 H 0.11619 0.50041 0.05319 0.0
H1030 H 0.10051 0.51603 0.00778 0.0
H1031 H 0.11263 0.49333 0.97395 0.0
H1032 H 0.07064 0.55438 0.87749 0.0
H1033 H 0.09122 0.49637 0.7903 0.0
H1034 H 0.11861 0.57561 0.93768 0.0
H1035 H 0.1061 0.55901 0.99509 0.0
H1036 H 0.09048 0.57511 0.95094 0.0
H1037 H 0.14527 0.50698 0.82831 0.0
H1038 H 0.12561 0.48601 0.80139 0.0
H1039 H 0.13223 0.48852 0.88036 0.0
C1040 C 0.94332 0.85183 0.40071 0.0
C1041 C 0.92738 0.85234 0.3581 0.0
C1042 C 0.94986 0.87028 0.43763 0.0
C1043 C 0.94036 0.88992 0.43196 0.0
C1044 C 0.92382 0.89041 0.39047 0.0
C1045 C 0.91758 0.8717 0.35408 0.0
C1046 C 0.96742 0.86893 0.48151 0.0
C1047 C 0.91314 0.91091 0.38304 0.0
C1048 C 0.94956 0.9342 0.55768 0.0
C1049 C 0.9666 0.94744 0.5335 0.0
C1050 C 0.9406 0.91561 0.52499 0.0
C1051 C 0.94877 0.91024 0.46644 0.0
C1052 C 0.96564 0.92396 0.44135 0.0
C1053 C 0.97436 0.94231 0.4752 0.0
C1054 C 0.92271 0.9015 0.55368 0.0
C1055 C 0.9748 0.91899 0.3791 0.0
H1056 H 0.95125 0.83717 0.40395 0.0
H1057 H 0.90503 0.87229 0.32216 0.0
H1058 H 0.98127 0.88025 0.46866 0.0
H1059 H 0.96224 0.87403 0.52787 0.0
H1060 H 0.97253 0.85224 0.4826 0.0
H1061 H 0.89859 0.90782 0.35606 0.0
H1062 H 0.90893 0.91834 0.42783 0.0
H1063 H 0.9242 0.92298 0.35968 0.0
H1064 H 0.94349 0.9381 0.60276 0.0
H1065 H 0.98752 0.9525 0.45623 0.0
H1066 H 0.92792 0.88523 0.56154 0.0
H1067 H 0.90915 0.899 0.52279 0.0
H1068 H 0.91723 0.90866 0.59764 0.0
H1069 H 0.98148 0.90302 0.37822 0.0
H1070 H 0.98745 0.9316 0.36529 0.0
H1071 H 0.96217 0.91779 0.34513 0.0
C1072 C 0.65462 0.02833 0.45024 0.0
C1073 C 0.65868 0.01078 0.41073 0.0
C1074 C 0.63525 0.02845 0.48238 0.0
C1075 C 0.61986 0.01043 0.47546 0.0
C1076 C 0.62415 0.99244 0.43668 0.0
C1077 C 0.64342 0.99297 0.40417 0.0
C1078 C 0.63125 0.04781 0.52372 0.0
C1079 C 0.60851 0.97254 0.43009 0.0
C1080 C 0.57884 1.00159 0.60186 0.0
C1081 C 0.56094 0.00918 0.57703 0.0
C1082 C 0.59802 1.00175 0.5692 0.0
C1083 C 0.59952 0.01001 0.51041 0.0
C1084 C 0.58158 0.01776 0.485 0.0
C1085 C 0.56247 0.01728 0.51868 0.0
C1086 C 0.61665 0.99337 0.5987 0.0
C1087 C 0.58262 0.02666 0.42236 0.0
H1088 H 0.66642 0.04213 0.45501 0.0
H1089 H 0.64671 0.9793 0.37403 0.0
H1090 H 0.61644 0.05449 0.51119 0.0
H1091 H 0.62911 0.04264 0.57111 0.0
H1092 H 0.64441 0.06097 0.52188 0.0
H1093 H 0.61505 0.9592 0.40237 0.0
H1094 H 0.60371 0.9664 0.47535 0.0
H1095 H 0.59405 0.9769 0.40836 0.0
H1096 H 0.578 0.99562 0.64734 0.0
H1097 H 0.54874 0.02318 0.49921 0.0
H1098 H 0.6258 0.00715 0.62288 0.0
H1099 H 0.62741 0.98591 0.56523 0.0
H1100 H 0.61137 0.98106 0.63239 0.0
H1101 H 0.5949 0.04065 0.42028 0.0
H1102 H 0.56729 0.03208 0.40913 0.0
H1103 H 0.58724 0.01403 0.38863 0.0
C1104 C 0.60759 0.65503 0.42121 0.0
C1105 C 0.59508 0.66039 0.37359 0.0
C1106 C 0.60033 0.63866 0.46133 0.0
C1107 C 0.58012 0.62721 0.45347 0.0
C1108 C 0.56732 0.63282 0.40618 0.0
C1109 C 0.57492 0.64926 0.36701 0.0
C1110 C 0.61447 0.63343 0.51138 0.0
C1111 C 0.54547 0.62147 0.39702 0.0
C1112 C 0.56676 0.57003 0.51087 0.0
C1113 C 0.55351 0.57401 0.56097 0.0
C1114 C 0.57609 0.58728 0.47663 0.0
C1115 C 0.57232 0.60904 0.49343 0.0
C1116 C 0.55971 0.61315 0.54579 0.0
C1117 C 0.55036 0.59559 0.57861 0.0
C1118 C 0.58946 0.5822 0.42129 0.0
C1119 C 0.55591 0.63607 0.56687 0.0
H1120 H 0.62321 0.66345 0.42676 0.0
H1121 H 0.56486 0.65365 0.3316 0.0
H1122 H 0.6054 0.6315 0.55472 0.0
H1123 H 0.62113 0.61777 0.49972 0.0
H1124 H 0.62779 0.64623 0.51831 0.0
H1125 H 0.53748 0.62769 0.35814 0.0
H1126 H 0.54643 0.60371 0.38909 0.0
H1127 H 0.53553 0.62371 0.43847 0.0
H1128 H 0.5693 0.55338 0.49728 0.0
H1129 H 0.54041 0.59876 0.61803 0.0
H1130 H 0.6054 0.5911 0.42508 0.0
H1131 H 0.58222 0.58781 0.38035 0.0
H1132 H 0.59122 0.56451 0.41482 0.0
H1133 H 0.57112 0.64516 0.57994 0.0
H1134 H 0.54473 0.63643 0.60634 0.0
H1135 H 0.54955 0.6448 0.52962 0.0
C1136 C 0.85068 0.49079 0.37861 0.0
C1137 C 0.83556 0.47342 0.39133 0.0
C1138 C 0.86905 0.49497 0.4127 0.0
C1139 C 0.87267 0.48122 0.46021 0.0
C1140 C 0.85733 0.4638 0.4739 0.0
C1141 C 0.83886 0.46024 0.43965 0.0
C1142 C 0.88474 0.51396 0.39719 0.0
C1143 C 0.86068 0.44867 0.52384 0.0
C1144 C 0.9304 0.48002 0.50068 0.0
C1145 C 0.93178 0.49351 0.55327 0.0
C1146 C 0.9111 0.47536 0.47105 0.0
C1147 C 0.89284 0.48474 0.49398 0.0
C1148 C 0.89418 0.49828 0.54748 0.0
C1149 C 0.91359 0.5023 0.5768 0.0
C1150 C 0.9103 0.46051 0.41489 0.0
C1151 C 0.87524 0.50889 0.57307 0.0
H1152 H 0.8481 0.50122 0.34184 0.0
H1153 H 0.82728 0.44673 0.4495 0.0
H1154 H 0.889 0.52408 0.43858 0.0
H1155 H 0.89947 0.50782 0.37809 0.0
H1156 H 0.87853 0.52447 0.36364 0.0
H1157 H 0.84763 0.43545 0.52748 0.0
H1158 H 0.87578 0.44123 0.51568 0.0
H1159 H 0.86192 0.45796 0.56788 0.0
H1160 H 0.94441 0.47304 0.48275 0.0
H1161 H 0.91462 0.5127 0.61764 0.0
H1162 H 0.90628 0.46963 0.37533 0.0
H1163 H 0.89772 0.44694 0.4203 0.0
H1164 H 0.92556 0.45354 0.40488 0.0
H1165 H 0.86871 0.51854 0.53806 0.0
H1166 H 0.87917 0.51977 0.61334 0.0
H1167 H 0.86262 0.49622 0.58634 0.0
loop_
_geom_bond_atom_site_label_1
_geom_bond_atom_site_label_2
_geom_bond_distance
_geom_bond_site_symmetry_2
_ccdc_geom_bond_type
C0 C1 1.264 . S
C0 C5 1.479 . S
C0 C10 1.465 . S
C1 C0 1.264 . S
C1 C3 1.339 . S
C1 H28 0.931 . S
C2 C3 1.395 . S
C2 C4 1.320 . S
C3 C1 1.339 . S
C3 C2 1.395 . S
C3 H29 0.929 . S
C4 C2 1.320 . S
C4 C5 1.405 . S
C4 H30 0.930 . S
C5 C0 1.479 . S
C5 C4 1.405 . S
C5 H31 0.931 . S
U6 O7 2.454 . S
U6 O8 2.458 . S
U6 C9 2.984 . S
U6 C10 2.847 . S
U6 C23 2.882 1_554 S
U6 O24 2.441 . S
U6 O25 2.420 . S
U6 O26 2.455 1_554 S
U6 O27 2.449 . S
O7 U6 2.454 . S
O7 C9 1.353 . S
O8 U6 2.458 . S
O8 C9 1.286 . S
C9 U6 2.984 . S
C9 O7 1.353 . S
C9 O8 1.286 . S
C9 C11 1.363 . S
C10 C0 1.465 . S
C10 U6 2.847 . S
C10 O24 1.249 . S
C10 O25 1.202 . S
C11 C9 1.363 . S
C11 C13 1.408 . S
C11 C16 1.342 1_554 S
C12 C13 1.310 . S
C12 C15 1.461 1_554 S
C12 H32 0.932 . S
C13 C11 1.408 . S
C13 C12 1.310 . S
C13 H33 0.930 . S
C14 C15 1.474 . S
C14 C16 1.285 . S
C14 H34 0.929 . S
C15 C12 1.461 1_556 S
C15 C14 1.474 . S
C16 C11 1.342 1_556 S
C16 C14 1.285 . S
C16 H35 0.930 . S
C17 C20 1.424 . S
C17 C22 1.245 . S
C17 C23 1.428 . S
C18 C21 1.260 . S
C18 C22 1.477 . S
C18 H36 0.932 . S
C19 C20 1.384 . S
C19 C21 1.479 . S
C19 H37 0.929 . S
C20 C17 1.424 . S
C20 C19 1.384 . S
C20 H38 0.928 . S
C21 C18 1.260 . S
C21 C19 1.479 . S
C22 C17 1.245 . S
C22 C18 1.477 . S
C22 H39 0.932 . S
C23 U6 2.882 1_556 S
C23 C17 1.428 . S
C23 O26 1.301 . S
C23 O27 1.282 1_556 S
O24 U6 2.441 . S
O24 C10 1.249 . S
O25 U6 2.420 . S
O25 C10 1.202 . S
O26 U6 2.455 1_556 S
O26 C23 1.301 . S
O27 U6 2.449 . S
O27 C23 1.282 1_554 S
H28 C1 0.931 . S
H29 C3 0.929 . S
H30 C4 0.930 . S
H31 C5 0.931 . S
H32 C12 0.932 . S
H33 C13 0.930 . S
H34 C14 0.929 . S
H35 C16 0.930 . S
H36 C18 0.932 . S
H37 C19 0.929 . S
H38 C20 0.928 . S
H39 C22 0.932 . S
C40 C41 1.264 . S
C40 C45 1.479 . S
C40 C50 1.465 . S
C41 C40 1.264 . S
C41 C43 1.339 . S
C41 H68 0.931 . S
C42 C43 1.395 . S
C42 C44 1.320 . S
C43 C41 1.339 . S
C43 C42 1.395 . S
C43 H69 0.929 . S
C44 C42 1.320 . S
C44 C45 1.405 . S
C44 H70 0.930 . S
C45 C40 1.479 . S
C45 C44 1.405 . S
C45 H71 0.931 . S
U46 O47 2.454 . S
U46 O48 2.458 1_554 S
U46 C49 2.984 . S
U46 C50 2.847 . S
U46 C63 2.882 1_554 S
U46 O64 2.441 . S
U46 O65 2.420 . S
U46 O66 2.455 1_554 S
U46 O67 2.449 . S
O47 U46 2.454 . S
O47 C49 1.353 . S
O48 U46 2.458 1_556 S
O48 C49 1.286 1_556 S
C49 U46 2.984 . S
C49 O47 1.353 . S
C49 O48 1.286 1_554 S
C49 C51 1.363 1_554 S
C50 C40 1.465 . S
C50 U46 2.847 . S
C50 O64 1.249 . S
C50 O65 1.202 . S
C51 C49 1.363 1_556 S
C51 C53 1.408 1_556 S
C51 C56 1.342 . S
C52 C53 1.310 . S
C52 C55 1.461 1_554 S
C52 H72 0.932 . S
C53 C51 1.408 1_554 S
C53 C52 1.310 . S
C53 H73 0.930 . S
C54 C55 1.474 . S
C54 C56 1.285 . S
C54 H74 0.929 . S
C55 C52 1.461 1_556 S
C55 C54 1.474 . S
C56 C51 1.342 . S
C56 C54 1.285 . S
C56 H75 0.930 . S
C57 C60 1.424 . S
C57 C62 1.245 . S
C57 C63 1.428 . S
C58 C61 1.260 . S
C58 C62 1.477 . S
C58 H76 0.932 . S
C59 C60 1.384 . S
C59 C61 1.479 . S
C59 H77 0.929 . S
C60 C57 1.424 . S
C60 C59 1.384 . S
C60 H78 0.928 . S
C61 C58 1.260 . S
C61 C59 1.479 . S
C62 C57 1.245 . S
C62 C58 1.477 . S
C62 H79 0.932 . S
C63 U46 2.882 1_556 S
C63 C57 1.428 . S
C63 O66 1.301 . S
C63 O67 1.282 1_556 S
O64 U46 2.441 . S
O64 C50 1.249 . S
O65 U46 2.420 . S
O65 C50 1.202 . S
O66 U46 2.455 1_556 S
O66 C63 1.301 . S
O67 U46 2.449 . S
O67 C63 1.282 1_554 S
H68 C41 0.931 . S
H69 C43 0.929 . S
H70 C44 0.930 . S
H71 C45 0.931 . S
H72 C52 0.932 . S
H73 C53 0.930 . S
H74 C54 0.929 . S
H75 C56 0.930 . S
H76 C58 0.932 . S
H77 C59 0.929 . S
H78 C60 0.928 . S
H79 C62 0.932 . S
C80 C81 1.264 . S
C80 C85 1.479 . S
C80 C90 1.465 . S
C81 C80 1.264 . S
C81 C83 1.339 . S
C81 H108 0.931 . S
C82 C83 1.395 . S
C82 C84 1.320 . S
C83 C81 1.339 . S
C83 C82 1.395 . S
C83 H109 0.929 . S
C84 C82 1.320 . S
C84 C85 1.405 . S
C84 H110 0.917 1_545 S
C85 C80 1.479 . S
C85 C84 1.405 . S
C85 H111 0.931 . S
U86 O87 2.454 . S
U86 O88 2.458 . S
U86 C89 2.984 . S
U86 C90 2.847 . S
U86 C103 2.882 . S
U86 O104 2.441 . S
U86 O105 2.420 . S
U86 O106 2.455 . S
U86 O107 2.449 . S
O87 U86 2.454 . S
O87 C89 1.353 . S
O88 U86 2.458 . S
O88 C89 1.286 . S
C89 U86 2.984 . S
C89 O87 1.353 . S
C89 O88 1.286 . S
C89 C91 1.363 . S
C90 C80 1.465 . S
C90 U86 2.847 . S
C90 O104 1.249 . S
C90 O105 1.202 . S
C91 C89 1.363 . S
C91 C93 1.408 . S
C91 C96 1.342 1_554 S
C92 C93 1.310 . S
C92 C95 1.461 . S
C92 H112 0.932 . S
C93 C91 1.408 . S
C93 C92 1.310 . S
C93 H113 0.930 . S
C94 C95 1.475 1_566 S
C94 C96 1.284 1_565 S
C94 H114 0.930 . S
C95 C92 1.461 . S
C95 C94 1.475 1_544 S
C96 C91 1.342 1_556 S
C96 C94 1.284 1_545 S
C96 H115 0.929 . S
C97 C100 1.424 . S
C97 C102 1.245 . S
C97 C103 1.428 1_556 S
C98 C101 1.260 . S
C98 C102 1.477 . S
C98 H116 0.932 . S
C99 C100 1.384 . S
C99 C101 1.479 . S
C99 H117 0.929 . S
C100 C97 1.424 . S
C100 C99 1.384 . S
C100 H118 0.928 1_556 S
C101 C98 1.260 . S
C101 C99 1.479 . S
C102 C97 1.245 . S
C102 C98 1.477 . S
C102 H119 0.932 . S
C103 U86 2.882 . S
C103 C97 1.428 1_554 S
C103 O106 1.301 . S
C103 O107 1.282 . S
O104 U86 2.441 . S
O104 C90 1.249 . S
O105 U86 2.420 . S
O105 C90 1.202 . S
O106 U86 2.455 . S
O106 C103 1.301 . S
O107 U86 2.449 . S
O107 C103 1.282 . S
H108 C81 0.931 . S
H109 C83 0.929 . S
H110 C84 0.917 1_565 S
H111 C85 0.931 . S
H112 C92 0.932 . S
H113 C93 0.930 . S
H114 C94 0.930 . S
H115 C96 0.929 . S
H116 C98 0.932 . S
H117 C99 0.929 . S
H118 C100 0.928 1_554 S
H119 C102 0.932 . S
C120 C121 1.264 . S
C120 C125 1.479 . S
C120 C130 1.465 . S
C121 C120 1.264 . S
C121 C123 1.339 . S
C121 H148 0.931 . S
C122 C123 1.395 . S
C122 C124 1.320 . S
C123 C121 1.339 . S
C123 C122 1.395 . S
C123 H149 0.929 . S
C124 C122 1.320 . S
C124 C125 1.405 . S
C124 H150 0.930 . S
C125 C120 1.479 . S
C125 C124 1.405 . S
C125 H151 0.931 . S
U126 O127 2.454 . S
U126 O128 2.458 . S
U126 C129 2.984 . S
U126 C130 2.847 . S
U126 C143 2.883 . S
U126 O144 2.441 . S
U126 O145 2.420 . S
U126 O146 2.455 1_554 S
U126 O147 2.449 . S
O127 U126 2.454 . S
O127 C129 1.353 . S
O128 U126 2.458 . S
O128 C129 1.286 . S
C129 U126 2.984 . S
C129 O127 1.353 . S
C129 O128 1.286 . S
C129 C131 1.363 . S
C130 C120 1.465 . S
C130 U126 2.847 . S
C130 O144 1.249 . S
C130 O145 1.202 . S
C131 C129 1.363 . S
C131 C133 1.408 . S
C131 C136 1.342 1_554 S
C132 C133 1.310 . S
C132 C135 1.461 . S
C132 H152 0.932 . S
C133 C131 1.408 . S
C133 C132 1.310 . S
C133 H153 0.930 . S
C134 C135 1.474 1_556 S
C134 C136 1.285 . S
C134 H154 0.929 . S
C135 C132 1.461 . S
C135 C134 1.474 1_554 S
C136 C131 1.342 1_556 S
C136 C134 1.285 . S
C136 H155 0.930 . S
C137 C140 1.424 . S
C137 C142 1.245 . S
C137 C143 1.427 1_556 S
C138 C141 1.260 . S
C138 C142 1.477 . S
C138 H156 0.932 . S
C139 C140 1.384 . S
C139 C141 1.479 . S
C139 H157 0.929 . S
C140 C137 1.424 . S
C140 C139 1.384 . S
C140 H158 0.928 1_556 S
C141 C138 1.260 . S
C141 C139 1.479 . S
C142 C137 1.245 . S
C142 C138 1.477 . S
C142 H159 0.932 . S
C143 U126 2.883 . S
C143 C137 1.427 1_554 S
C143 O146 1.301 1_554 S
C143 O147 1.283 . S
O144 U126 2.441 . S
O144 C130 1.249 . S
O145 U126 2.420 . S
O145 C130 1.202 . S
O146 U126 2.455 1_556 S
O146 C143 1.301 1_556 S
O147 U126 2.449 . S
O147 C143 1.283 . S
H148 C121 0.931 . S
H149 C123 0.929 . S
H150 C124 0.930 . S
H151 C125 0.931 . S
H152 C132 0.932 . S
H153 C133 0.930 . S
H154 C134 0.929 . S
H155 C136 0.930 . S
H156 C138 0.932 . S
H157 C139 0.929 . S
H158 C140 0.928 1_554 S
H159 C142 0.932 . S
C160 C161 1.264 . S
C160 C165 1.479 . S
C160 C170 1.465 . S
C161 C160 1.264 . S
C161 C163 1.339 . S
C161 H188 0.931 . S
C162 C163 1.395 . S
C162 C164 1.320 . S
C163 C161 1.339 . S
C163 C162 1.395 . S
C163 H189 0.929 . S
C164 C162 1.320 . S
C164 C165 1.405 . S
C164 H190 0.930 1_554 S
C165 C160 1.479 . S
C165 C164 1.405 . S
C165 H191 0.931 . S
U166 O167 2.454 . S
U166 O168 2.458 . S
U166 C169 2.984 . S
U166 C170 2.847 . S
U166 C183 2.882 . S
U166 O184 2.441 . S
U166 O185 2.420 . S
U166 O186 2.455 . S
U166 O187 2.449 . S
O167 U166 2.454 . S
O167 C169 1.353 . S
O168 U166 2.458 . S
O168 C169 1.286 . S
C169 U166 2.984 . S
C169 O167 1.353 . S
C169 O168 1.286 . S
C169 C171 1.363 . S
C170 C160 1.465 . S
C170 U166 2.847 . S
C170 O184 1.249 . S
C170 O185 1.202 . S
C171 C169 1.363 . S
C171 C173 1.408 . S
C171 C176 1.342 . S
C172 C173 1.310 . S
C172 C175 1.461 . S
C172 H192 0.932 . S
C173 C171 1.408 . S
C173 C172 1.310 . S
C173 H193 0.930 . S
C174 C175 1.474 . S
C174 C176 1.285 . S
C174 H194 0.929 . S
C175 C172 1.461 . S
C175 C174 1.474 . S
C176 C171 1.342 . S
C176 C174 1.285 . S
C176 H195 0.930 . S
C177 C180 1.424 . S
C177 C182 1.245 . S
C177 C183 1.428 . S
C178 C181 1.260 . S
C178 C182 1.477 . S
C178 H196 0.932 . S
C179 C180 1.384 . S
C179 C181 1.479 . S
C179 H197 0.929 . S
C180 C177 1.424 . S
C180 C179 1.384 . S
C180 H198 0.928 . S
C181 C178 1.260 . S
C181 C179 1.479 . S
C182 C177 1.245 . S
C182 C178 1.477 . S
C182 H199 0.932 . S
C183 U166 2.882 . S
C183 C177 1.428 . S
C183 O186 1.301 . S
C183 O187 1.282 . S
O184 U166 2.441 . S
O184 C170 1.249 . S
O185 U166 2.420 . S
O185 C170 1.202 . S
O186 U166 2.455 . S
O186 C183 1.301 . S
O187 U166 2.449 . S
O187 C183 1.282 . S
H188 C161 0.931 . S
H189 C163 0.929 . S
H190 C164 0.930 1_556 S
H191 C165 0.931 . S
H192 C172 0.932 . S
H193 C173 0.930 . S
H194 C174 0.929 . S
H195 C176 0.930 . S
H196 C178 0.932 . S
H197 C179 0.929 . S
H198 C180 0.928 . S
H199 C182 0.932 . S
C200 C201 1.264 . S
C200 C205 1.479 . S
C200 C210 1.465 . S
C201 C200 1.264 . S
C201 C203 1.339 . S
C201 H228 0.931 . S
C202 C203 1.395 . S
C202 C204 1.320 . S
C203 C201 1.339 . S
C203 C202 1.395 . S
C203 H229 0.929 . S
C204 C202 1.320 . S
C204 C205 1.405 . S
C204 H230 0.930 . S
C205 C200 1.479 . S
C205 C204 1.405 . S
C205 H231 0.931 . S
U206 O207 2.454 . S
U206 O208 2.458 . S
U206 C209 2.984 . S
U206 C210 2.847 . S
U206 C223 2.882 . S
U206 O224 2.441 . S
U206 O225 2.420 . S
U206 O226 2.455 . S
U206 O227 2.449 . S
O207 U206 2.454 . S
O207 C209 1.353 . S
O208 U206 2.458 . S
O208 C209 1.286 . S
C209 U206 2.984 . S
C209 O207 1.353 . S
C209 O208 1.286 . S
C209 C211 1.363 . S
C210 C200 1.465 . S
C210 U206 2.847 . S
C210 O224 1.249 . S
C210 O225 1.202 . S
C211 C209 1.363 . S
C211 C213 1.408 . S
C211 C216 1.342 . S
C212 C213 1.310 . S
C212 C215 1.461 . S
C212 H232 0.932 . S
C213 C211 1.408 . S
C213 C212 1.310 . S
C213 H233 0.930 . S
C214 C215 1.474 . S
C214 C216 1.285 . S
C214 H234 0.929 . S
C215 C212 1.461 . S
C215 C214 1.474 . S
C216 C211 1.342 . S
C216 C214 1.285 . S
C216 H235 0.930 . S
C217 C220 1.424 . S
C217 C222 1.245 . S
C217 C223 1.428 . S
C218 C221 1.260 . S
C218 C222 1.477 . S
C218 H236 0.932 . S
C219 C220 1.384 . S
C219 C221 1.479 . S
C219 H237 0.929 . S
C220 C217 1.424 . S
C220 C219 1.384 . S
C220 H238 0.928 . S
C221 C218 1.260 . S
C221 C219 1.479 . S
C222 C217 1.245 . S
C222 C218 1.477 . S
C222 H239 0.932 . S
C223 U206 2.882 . S
C223 C217 1.428 . S
C223 O226 1.301 . S
C223 O227 1.282 . S
O224 U206 2.441 . S
O224 C210 1.249 . S
O225 U206 2.420 . S
O225 C210 1.202 . S
O226 U206 2.455 . S
O226 C223 1.301 . S
O227 U206 2.449 . S
O227 C223 1.282 . S
H228 C201 0.931 . S
H229 C203 0.929 . S
H230 C204 0.930 . S
H231 C205 0.931 . S
H232 C212 0.932 . S
H233 C213 0.930 . S
H234 C214 0.929 . S
H235 C216 0.930 . S
H236 C218 0.932 . S
H237 C219 0.929 . S
H238 C220 0.928 . S
H239 C222 0.932 . S
C240 C241 1.264 . S
C240 C245 1.479 . S
C240 C250 1.465 . S
C241 C240 1.264 . S
C241 C243 1.339 . S
C241 H268 0.931 . S
C242 C243 1.395 1_556 S
C242 C244 1.320 . S
C243 C241 1.339 . S
C243 C242 1.395 1_554 S
C243 H269 0.929 . S
C244 C242 1.320 . S
C244 C245 1.405 1_556 S
C244 H270 0.930 . S
C245 C240 1.479 . S
C245 C244 1.405 1_554 S
C245 H271 0.931 . S
U246 O247 2.454 . S
U246 O248 2.458 . S
U246 C249 2.984 . S
U246 C250 2.847 . S
U246 C263 2.882 . S
U246 O264 2.441 . S
U246 O265 2.420 . S
U246 O266 2.455 . S
U246 O267 2.449 . S
O247 U246 2.454 . S
O247 C249 1.353 . S
O248 U246 2.458 . S
O248 C249 1.286 . S
C249 U246 2.984 . S
C249 O247 1.353 . S
C249 O248 1.286 . S
C249 C251 1.363 . S
C250 C240 1.465 . S
C250 U246 2.847 . S
C250 O264 1.249 . S
C250 O265 1.202 . S
C251 C249 1.363 . S
C251 C253 1.408 . S
C251 C256 1.342 . S
C252 C253 1.310 . S
C252 C255 1.461 . S
C252 H272 0.932 . S
C253 C251 1.408 . S
C253 C252 1.310 . S
C253 H273 0.930 . S
C254 C255 1.474 . S
C254 C256 1.285 . S
C254 H274 0.929 . S
C255 C252 1.461 . S
C255 C254 1.474 . S
C256 C251 1.342 . S
C256 C254 1.285 . S
C256 H275 0.930 . S
C257 C260 1.424 . S
C257 C262 1.245 . S
C257 C263 1.428 . S
C258 C261 1.260 . S
C258 C262 1.477 . S
C258 H276 0.932 . S
C259 C260 1.384 . S
C259 C261 1.479 . S
C259 H277 0.929 . S
C260 C257 1.424 . S
C260 C259 1.384 . S
C260 H278 0.928 . S
C261 C258 1.260 . S
C261 C259 1.479 . S
C262 C257 1.245 . S
C262 C258 1.477 . S
C262 H279 0.932 . S
C263 U246 2.882 . S
C263 C257 1.428 . S
C263 O266 1.301 . S
C263 O267 1.282 . S
O264 U246 2.441 . S
O264 C250 1.249 . S
O265 U246 2.420 . S
O265 C250 1.202 . S
O266 U246 2.455 . S
O266 C263 1.301 . S
O267 U246 2.449 . S
O267 C263 1.282 . S
H268 C241 0.931 . S
H269 C243 0.929 . S
H270 C244 0.930 . S
H271 C245 0.931 . S
H272 C252 0.932 . S
H273 C253 0.930 . S
H274 C254 0.929 . S
H275 C256 0.930 . S
H276 C258 0.932 . S
H277 C259 0.929 . S
H278 C260 0.928 . S
H279 C262 0.932 . S
C280 C281 1.264 . S
C280 C285 1.479 . S
C280 C290 1.465 . S
C281 C280 1.264 . S
C281 C283 1.339 . S
C281 H308 0.931 . S
C282 C283 1.395 1_556 S
C282 C284 1.320 1_556 S
C283 C281 1.339 . S
C283 C282 1.395 1_554 S
C283 H309 0.929 . S
C284 C282 1.320 1_554 S
C284 C285 1.405 . S
C284 H310 0.930 1_554 S
C285 C280 1.479 . S
C285 C284 1.405 . S
C285 H311 0.931 . S
U286 O287 2.454 . S
U286 O288 2.458 . S
U286 C289 2.984 . S
U286 C290 2.847 . S
U286 C303 2.882 . S
U286 O304 2.441 . S
U286 O305 2.420 . S
U286 O306 2.455 . S
U286 O307 2.449 . S
O287 U286 2.454 . S
O287 C289 1.353 . S
O288 U286 2.458 . S
O288 C289 1.286 . S
C289 U286 2.984 . S
C289 O287 1.353 . S
C289 O288 1.286 . S
C289 C291 1.363 . S
C290 C280 1.465 . S
C290 U286 2.847 . S
C290 O304 1.249 . S
C290 O305 1.202 . S
C291 C289 1.363 . S
C291 C293 1.408 . S
C291 C296 1.342 . S
C292 C293 1.310 . S
C292 C295 1.461 . S
C292 H312 0.932 . S
C293 C291 1.408 . S
C293 C292 1.310 . S
C293 H313 0.930 . S
C294 C295 1.474 . S
C294 C296 1.285 . S
C294 H314 0.929 . S
C295 C292 1.461 . S
C295 C294 1.474 . S
C296 C291 1.342 . S
C296 C294 1.285 . S
C296 H315 0.930 . S
C297 C300 1.424 . S
C297 C302 1.245 . S
C297 C303 1.428 . S
C298 C301 1.260 . S
C298 C302 1.477 . S
C298 H316 0.932 . S
C299 C300 1.384 . S
C299 C301 1.479 . S
C299 H317 0.929 . S
C300 C297 1.424 . S
C300 C299 1.384 . S
C300 H318 0.928 . S
C301 C298 1.260 . S
C301 C299 1.479 . S
C302 C297 1.245 . S
C302 C298 1.477 . S
C302 H319 0.932 . S
C303 U286 2.882 . S
C303 C297 1.428 . S
C303 O306 1.301 . S
C303 O307 1.282 . S
O304 U286 2.441 . S
O304 C290 1.249 . S
O305 U286 2.420 . S
O305 C290 1.202 . S
O306 U286 2.455 . S
O306 C303 1.301 . S
O307 U286 2.449 . S
O307 C303 1.282 . S
H308 C281 0.931 . S
H309 C283 0.929 . S
H310 C284 0.930 1_556 S
H311 C285 0.931 . S
H312 C292 0.932 . S
H313 C293 0.930 . S
H314 C294 0.929 . S
H315 C296 0.930 . S
H316 C298 0.932 . S
H317 C299 0.929 . S
H318 C300 0.928 . S
H319 C302 0.932 . S
Tb320 O323 2.480 1_655 S
Tb320 O324 2.612 1_655 S
Tb320 O325 2.368 1_645 S
Tb320 O333 2.328 1_545 S
Tb320 O335 2.362 . S
Tb320 O337 2.409 1_545 S
Tb320 O338 2.487 1_545 S
C321 O325 1.253 . S
C321 O327 1.263 . S
Tb322 O324 2.343 . S
Tb322 O327 2.346 1_545 S
Tb322 O330 2.427 . S
Tb322 O331 2.513 . S
Tb322 O332 2.453 1_545 S
Tb322 O333 2.596 1_445 S
Tb322 O334 2.374 1_455 S
O323 Tb320 2.480 1_455 S
O323 C339 1.245 . S
O324 Tb320 2.612 1_455 S
O324 Tb322 2.343 . S
O324 C339 1.259 . S
O325 Tb320 2.368 1_465 S
O325 C321 1.253 . S
C326 O330 1.275 . S
C326 O331 1.246 . S
O327 C321 1.263 . S
O327 Tb322 2.346 1_565 S
C328 O332 1.245 1_655 S
C328 O333 1.259 . S
C329 O334 1.250 . S
C329 O335 1.263 . S
O330 Tb322 2.427 . S
O330 C326 1.275 . S
O331 Tb322 2.513 . S
O331 C326 1.246 . S
O332 Tb322 2.453 1_565 S
O332 C328 1.245 1_455 S
O333 Tb320 2.328 1_565 S
O333 Tb322 2.596 1_665 S
O333 C328 1.259 . S
O334 Tb322 2.374 1_655 S
O334 C329 1.250 . S
O335 Tb320 2.362 . S
O335 C329 1.263 . S
C336 O337 1.275 . S
C336 O338 1.246 . S
O337 Tb320 2.409 1_565 S
O337 C336 1.275 . S
O338 Tb320 2.487 1_565 S
O338 C336 1.246 . S
C339 O323 1.245 . S
C339 O324 1.259 . S
Tb340 O343 2.453 . S
Tb340 O344 2.596 . S
Tb340 O345 2.374 . S
Tb340 O353 2.343 . S
Tb340 O355 2.353 . S
Tb340 O357 2.427 . S
Tb340 O358 2.513 . S
C341 O345 1.251 . S
C341 O347 1.263 1_545 S
Tb342 O344 2.343 1_565 S
Tb342 O347 2.353 . S
Tb342 O350 2.427 . S
Tb342 O351 2.513 . S
Tb342 O352 2.453 . S
Tb342 O353 2.596 1_565 S
Tb342 O354 2.374 . S
O343 Tb340 2.453 . S
O343 C359 1.245 . S
O344 Tb340 2.596 . S
O344 Tb342 2.343 1_545 S
O344 C359 1.259 . S
O345 Tb340 2.374 . S
O345 C341 1.251 . S
C346 O350 1.275 . S
C346 O351 1.246 . S
O347 C341 1.263 1_565 S
O347 Tb342 2.353 . S
C348 O352 1.245 . S
C348 O353 1.259 1_565 S
C349 O354 1.250 1_545 S
C349 O355 1.263 . S
O350 Tb342 2.427 . S
O350 C346 1.275 . S
O351 Tb342 2.513 . S
O351 C346 1.246 . S
O352 Tb342 2.453 . S
O352 C348 1.245 . S
O353 Tb340 2.343 . S
O353 Tb342 2.596 1_545 S
O353 C348 1.259 1_545 S
O354 Tb342 2.374 . S
O354 C349 1.250 1_565 S
O355 Tb340 2.353 . S
O355 C349 1.263 . S
C356 O357 1.275 . S
C356 O358 1.246 . S
O357 Tb340 2.427 . S
O357 C356 1.275 . S
O358 Tb340 2.513 . S
O358 C356 1.246 . S
C359 O343 1.245 . S
C359 O344 1.259 . S
Tb360 O363 2.453 . S
Tb360 O364 2.596 . S
Tb360 O365 2.374 . S
Tb360 O373 2.343 . S
Tb360 O375 2.353 . S
Tb360 O377 2.427 . S
Tb360 O378 2.513 . S
C361 O365 1.251 . S
C361 O367 1.263 . S
Tb362 O364 2.343 . S
Tb362 O367 2.353 . S
Tb362 O370 2.427 . S
Tb362 O371 2.513 . S
Tb362 O372 2.453 . S
Tb362 O373 2.596 . S
Tb362 O374 2.374 . S
O363 Tb360 2.453 . S
O363 C379 1.245 . S
O364 Tb360 2.596 . S
O364 Tb362 2.343 . S
O364 C379 1.259 . S
O365 Tb360 2.374 . S
O365 C361 1.251 . S
C366 O370 1.275 . S
C366 O371 1.246 . S
O367 C361 1.263 . S
O367 Tb362 2.353 . S
C368 O372 1.245 . S
C368 O373 1.259 . S
C369 O374 1.250 . S
C369 O375 1.263 . S
O370 Tb362 2.427 . S
O370 C366 1.275 . S
O371 Tb362 2.513 . S
O371 C366 1.246 . S
O372 Tb362 2.453 . S
O372 C368 1.245 . S
O373 Tb360 2.343 . S
O373 Tb362 2.596 . S
O373 C368 1.259 . S
O374 Tb362 2.374 . S
O374 C369 1.250 . S
O375 Tb360 2.353 . S
O375 C369 1.263 . S
C376 O377 1.275 . S
C376 O378 1.246 . S
O377 Tb360 2.427 . S
O377 C376 1.275 . S
O378 Tb360 2.513 . S
O378 C376 1.246 . S
C379 O363 1.245 . S
C379 O364 1.259 . S
Tb380 O383 2.453 1_655 S
Tb380 O384 2.596 1_655 S
Tb380 O385 2.374 1_655 S
Tb380 O393 2.343 . S
Tb380 O395 2.353 . S
Tb380 O397 2.427 . S
Tb380 O398 2.513 . S
C381 O385 1.251 . S
C381 O387 1.263 . S
Tb382 O384 2.343 . S
Tb382 O387 2.353 . S
Tb382 O390 2.427 . S
Tb382 O391 2.513 . S
Tb382 O392 2.453 1_455 S
Tb382 O393 2.596 1_455 S
Tb382 O394 2.374 . S
O383 Tb380 2.453 1_455 S
O383 C399 1.245 . S
O384 Tb380 2.596 1_455 S
O384 Tb382 2.343 . S
O384 C399 1.259 . S
O385 Tb380 2.374 1_455 S
O385 C381 1.251 . S
C386 O390 1.275 . S
C386 O391 1.246 . S
O387 C381 1.263 . S
O387 Tb382 2.353 . S
C388 O392 1.245 . S
C388 O393 1.259 . S
C389 O394 1.250 1_655 S
C389 O395 1.263 . S
O390 Tb382 2.427 . S
O390 C386 1.275 . S
O391 Tb382 2.513 . S
O391 C386 1.246 . S
O392 Tb382 2.453 1_655 S
O392 C388 1.245 . S
O393 Tb380 2.343 . S
O393 Tb382 2.596 1_655 S
O393 C388 1.259 . S
O394 Tb382 2.374 . S
O394 C389 1.250 1_455 S
O395 Tb380 2.353 . S
O395 C389 1.263 . S
C396 O397 1.275 . S
C396 O398 1.246 . S
O397 Tb380 2.427 . S
O397 C396 1.275 . S
O398 Tb380 2.513 . S
O398 C396 1.246 . S
C399 O383 1.245 . S
C399 O384 1.259 . S
C400 C401 1.391 . S
C400 C402 1.394 . S
C400 H416 0.931 . S
C401 C400 1.391 . S
C401 C405 1.376 . S
C402 C400 1.394 . S
C402 C403 1.369 . S
C402 C406 1.531 . S
C403 C402 1.369 . S
C403 C404 1.410 . S
C403 C411 1.503 . S
C404 C403 1.410 . S
C404 C405 1.392 . S
C404 C407 1.511 . S
C405 C401 1.376 . S
C405 C404 1.392 . S
C405 H417 0.929 . S
C406 C402 1.531 . S
C406 H418 0.960 . S
C406 H419 0.961 1_545 S
C406 H420 0.960 . S
C407 C404 1.511 . S
C407 H421 0.961 . S
C407 H422 0.961 . S
C407 H423 0.961 . S
C408 C409 1.370 1_565 S
C408 C410 1.363 . S
C408 H424 0.931 . S
C409 C408 1.370 1_545 S
C409 C413 1.408 . S
C410 C408 1.363 . S
C410 C411 1.370 1_565 S
C410 C414 1.524 . S
C411 C403 1.503 . S
C411 C410 1.370 1_545 S
C411 C412 1.403 . S
C412 C411 1.403 . S
C412 C413 1.404 . S
C412 C415 1.539 . S
C413 C409 1.408 . S
C413 C412 1.404 . S
C413 H425 0.930 . S
C414 C410 1.524 . S
C414 H426 0.956 . S
C414 H427 0.961 . S
C414 H428 0.961 . S
C415 C412 1.539 . S
C415 H429 0.958 . S
C415 H430 0.961 . S
C415 H431 0.960 . S
H416 C400 0.931 . S
H417 C405 0.929 . S
H418 C406 0.960 . S
H419 C406 0.961 1_565 S
H420 C406 0.960 . S
H421 C407 0.961 . S
H422 C407 0.961 . S
H423 C407 0.961 . S
H424 C408 0.931 . S
H425 C413 0.930 . S
H426 C414 0.956 . S
H427 C414 0.961 . S
H428 C414 0.961 . S
H429 C415 0.958 . S
H430 C415 0.961 . S
H431 C415 0.960 . S
C432 C433 1.391 . S
C432 C434 1.394 . S
C432 H448 0.931 . S
C433 C432 1.391 . S
C433 C437 1.376 . S
C434 C432 1.394 . S
C434 C435 1.369 . S
C434 C438 1.531 . S
C435 C434 1.369 . S
C435 C436 1.410 . S
C435 C443 1.503 . S
C436 C435 1.410 . S
C436 C437 1.392 . S
C436 C439 1.511 . S
C437 C433 1.376 . S
C437 C436 1.392 . S
C437 H449 0.929 . S
C438 C434 1.531 . S
C438 H450 0.960 . S
C438 H451 0.962 . S
C438 H452 0.960 . S
C439 C436 1.511 . S
C439 H453 0.961 . S
C439 H454 0.961 . S
C439 H455 0.961 . S
C440 C441 1.370 . S
C440 C442 1.363 . S
C440 H456 0.931 . S
C441 C440 1.370 . S
C441 C445 1.408 . S
C442 C440 1.363 . S
C442 C443 1.370 . S
C442 C446 1.524 . S
C443 C435 1.503 . S
C443 C442 1.370 . S
C443 C444 1.403 . S
C444 C443 1.403 . S
C444 C445 1.404 . S
C444 C447 1.539 . S
C445 C441 1.408 . S
C445 C444 1.404 . S
C445 H457 0.930 . S
C446 C442 1.524 . S
C446 H458 0.956 . S
C446 H459 0.961 . S
C446 H460 0.961 . S
C447 C444 1.539 . S
C447 H461 0.958 . S
C447 H462 0.961 . S
C447 H463 0.960 . S
H448 C432 0.931 . S
H449 C437 0.929 . S
H450 C438 0.960 . S
H451 C438 0.962 . S
H452 C438 0.960 . S
H453 C439 0.961 . S
H454 C439 0.961 . S
H455 C439 0.961 . S
H456 C440 0.931 . S
H457 C445 0.930 . S
H458 C446 0.956 . S
H459 C446 0.961 . S
H460 C446 0.961 . S
H461 C447 0.958 . S
H462 C447 0.961 . S
H463 C447 0.960 . S
C464 C465 1.391 . S
C464 C466 1.394 . S
C464 H480 0.931 . S
C465 C464 1.391 . S
C465 C469 1.376 . S
C466 C464 1.394 . S
C466 C467 1.369 . S
C466 C470 1.531 . S
C467 C466 1.369 . S
C467 C468 1.410 . S
C467 C475 1.503 . S
C468 C467 1.410 . S
C468 C469 1.392 . S
C468 C471 1.511 . S
C469 C465 1.376 . S
C469 C468 1.392 . S
C469 H481 0.929 . S
C470 C466 1.531 . S
C470 H482 0.960 . S
C470 H483 0.962 . S
C470 H484 0.960 . S
C471 C468 1.511 . S
C471 H485 0.961 . S
C471 H486 0.961 . S
C471 H487 0.961 . S
C472 C473 1.370 . S
C472 C474 1.363 . S
C472 H488 0.931 . S
C473 C472 1.370 . S
C473 C477 1.408 . S
C474 C472 1.363 . S
C474 C475 1.370 . S
C474 C478 1.524 . S
C475 C467 1.503 . S
C475 C474 1.370 . S
C475 C476 1.403 . S
C476 C475 1.403 . S
C476 C477 1.404 . S
C476 C479 1.539 . S
C477 C473 1.408 . S
C477 C476 1.404 . S
C477 H489 0.930 . S
C478 C474 1.524 . S
C478 H490 0.956 . S
C478 H491 0.961 . S
C478 H492 0.961 . S
C479 C476 1.539 . S
C479 H493 0.958 . S
C479 H494 0.961 . S
C479 H495 0.960 . S
H480 C464 0.931 . S
H481 C469 0.929 . S
H482 C470 0.960 . S
H483 C470 0.962 . S
H484 C470 0.960 . S
H485 C471 0.961 . S
H486 C471 0.961 . S
H487 C471 0.961 . S
H488 C472 0.931 . S
H489 C477 0.930 . S
H490 C478 0.956 . S
H491 C478 0.961 . S
H492 C478 0.961 . S
H493 C479 0.958 . S
H494 C479 0.961 . S
H495 C479 0.960 . S
C496 C497 1.391 . S
C496 C498 1.394 . S
C496 H512 0.931 . S
C497 C496 1.391 . S
C497 C501 1.376 . S
C498 C496 1.394 . S
C498 C499 1.369 . S
C498 C502 1.531 . S
C499 C498 1.369 . S
C499 C500 1.410 . S
C499 C507 1.503 . S
C500 C499 1.410 . S
C500 C501 1.392 . S
C500 C503 1.511 . S
C501 C497 1.376 . S
C501 C500 1.392 . S
C501 H513 0.929 . S
C502 C498 1.531 . S
C502 H514 0.960 . S
C502 H515 0.962 . S
C502 H516 0.960 . S
C503 C500 1.511 . S
C503 H517 0.961 . S
C503 H518 0.961 . S
C503 H519 0.961 . S
C504 C505 1.370 . S
C504 C506 1.363 . S
C504 H520 0.931 . S
C505 C504 1.370 . S
C505 C509 1.408 . S
C506 C504 1.363 . S
C506 C507 1.370 . S
C506 C510 1.524 . S
C507 C499 1.503 . S
C507 C506 1.370 . S
C507 C508 1.403 . S
C508 C507 1.403 . S
C508 C509 1.404 . S
C508 C511 1.539 . S
C509 C505 1.408 . S
C509 C508 1.404 . S
C509 H521 0.930 . S
C510 C506 1.524 . S
C510 H522 0.956 . S
C510 H523 0.961 . S
C510 H524 0.961 . S
C511 C508 1.539 . S
C511 H525 0.958 . S
C511 H526 0.961 . S
C511 H527 0.960 . S
H512 C496 0.931 . S
H513 C501 0.929 . S
H514 C502 0.960 . S
H515 C502 0.962 . S
H516 C502 0.960 . S
H517 C503 0.961 . S
H518 C503 0.961 . S
H519 C503 0.961 . S
H520 C504 0.931 . S
H521 C509 0.930 . S
H522 C510 0.956 . S
H523 C510 0.961 . S
H524 C510 0.961 . S
H525 C511 0.958 . S
H526 C511 0.961 . S
H527 C511 0.960 . S
C528 C529 1.391 . S
C528 C530 1.394 . S
C528 H544 0.931 . S
C529 C528 1.391 . S
C529 C533 1.376 1_556 S
C530 C528 1.394 . S
C530 C531 1.369 . S
C530 C534 1.531 . S
C531 C530 1.369 . S
C531 C532 1.410 . S
C531 C539 1.503 . S
C532 C531 1.410 . S
C532 C533 1.392 1_556 S
C532 C535 1.511 . S
C533 C529 1.376 1_554 S
C533 C532 1.392 1_554 S
C533 H545 0.929 . S
C534 C530 1.531 . S
C534 H546 0.960 . S
C534 H547 0.962 1_545 S
C534 H548 0.960 . S
C535 C532 1.511 . S
C535 H549 0.990 1_556 S
C535 H550 0.961 . S
C535 H551 0.961 1_556 S
C536 C537 1.370 1_565 S
C536 C538 1.363 . S
C536 H552 0.931 . S
C537 C536 1.370 1_545 S
C537 C541 1.408 . S
C538 C536 1.363 . S
C538 C539 1.370 1_565 S
C538 C542 1.524 . S
C539 C531 1.503 . S
C539 C538 1.370 1_545 S
C539 C540 1.403 . S
C540 C539 1.403 . S
C540 C541 1.404 . S
C540 C543 1.539 . S
C541 C537 1.408 . S
C541 C540 1.404 . S
C541 H553 0.930 . S
C542 C538 1.524 . S
C542 H554 0.956 . S
C542 H555 0.961 . S
C542 H556 0.961 . S
C543 C540 1.539 . S
C543 H557 0.958 . S
C543 H558 0.961 . S
C543 H559 0.960 . S
H544 C528 0.931 . S
H545 C533 0.929 . S
H546 C534 0.960 . S
H547 C534 0.962 1_565 S
H548 C534 0.960 . S
H549 C535 0.990 1_554 S
H550 C535 0.961 . S
H551 C535 0.961 1_554 S
H552 C536 0.931 . S
H553 C541 0.930 . S
H554 C542 0.956 . S
H555 C542 0.961 . S
H556 C542 0.961 . S
H557 C543 0.958 . S
H558 C543 0.961 . S
H559 C543 0.960 . S
C560 C561 1.391 . S
C560 C562 1.394 . S
C560 H576 0.931 . S
C561 C560 1.391 . S
C561 C565 1.376 . S
C562 C560 1.394 . S
C562 C563 1.369 . S
C562 C566 1.531 . S
C563 C562 1.369 . S
C563 C564 1.410 . S
C563 C571 1.503 . S
C564 C563 1.410 . S
C564 C565 1.392 . S
C564 C567 1.511 . S
C565 C561 1.376 . S
C565 C564 1.392 . S
C565 H577 0.929 . S
C566 C562 1.531 . S
C566 H578 0.960 . S
C566 H579 0.962 . S
C566 H580 0.960 . S
C567 C564 1.511 . S
C567 H581 0.961 . S
C567 H582 0.961 . S
C567 H583 0.961 . S
C568 C569 1.370 . S
C568 C570 1.363 . S
C568 H584 0.931 . S
C569 C568 1.370 . S
C569 C573 1.408 . S
C570 C568 1.363 . S
C570 C571 1.370 . S
C570 C574 1.524 . S
C571 C563 1.503 . S
C571 C570 1.370 . S
C571 C572 1.403 . S
C572 C571 1.403 . S
C572 C573 1.404 . S
C572 C575 1.539 . S
C573 C569 1.408 . S
C573 C572 1.404 . S
C573 H585 0.930 . S
C574 C570 1.524 . S
C574 H586 0.956 . S
C574 H587 0.961 . S
C574 H588 0.961 . S
C575 C572 1.539 . S
C575 H589 0.958 . S
C575 H590 0.961 . S
C575 H591 0.960 . S
H576 C560 0.931 . S
H577 C565 0.929 . S
H578 C566 0.960 . S
H579 C566 0.962 . S
H580 C566 0.960 . S
H581 C567 0.961 . S
H582 C567 0.961 . S
H583 C567 0.961 . S
H584 C568 0.931 . S
H585 C573 0.930 . S
H586 C574 0.956 . S
H587 C574 0.961 . S
H588 C574 0.961 . S
H589 C575 0.958 . S
H590 C575 0.961 . S
H591 C575 0.960 . S
C592 C593 1.391 . S
C592 C594 1.394 . S
C592 H608 0.931 1_556 S
C593 C592 1.391 . S
C593 C597 1.376 . S
C594 C592 1.394 . S
C594 C595 1.369 . S
C594 C598 1.531 . S
C595 C594 1.369 . S
C595 C596 1.410 . S
C595 C603 1.503 . S
C596 C595 1.410 . S
C596 C597 1.392 . S
C596 C599 1.511 . S
C597 C593 1.376 . S
C597 C596 1.392 . S
C597 H609 0.929 . S
C598 C594 1.531 . S
C598 H610 0.960 . S
C598 H611 0.962 . S
C598 H612 0.960 . S
C599 C596 1.511 . S
C599 H613 0.961 . S
C599 H614 0.961 . S
C599 H615 0.961 . S
C600 C601 1.370 . S
C600 C602 1.363 . S
C600 H616 0.931 . S
C601 C600 1.370 . S
C601 C605 1.408 . S
C602 C600 1.363 . S
C602 C603 1.370 . S
C602 C606 1.524 . S
C603 C595 1.503 . S
C603 C602 1.370 . S
C603 C604 1.403 . S
C604 C603 1.403 . S
C604 C605 1.404 . S
C604 C607 1.539 . S
C605 C601 1.408 . S
C605 C604 1.404 . S
C605 H617 0.930 . S
C606 C602 1.524 . S
C606 H618 0.956 . S
C606 H619 0.961 . S
C606 H620 0.961 . S
C607 C604 1.539 . S
C607 H621 0.958 . S
C607 H622 0.961 . S
C607 H623 0.960 . S
H608 C592 0.931 1_554 S
H609 C597 0.929 . S
H610 C598 0.960 . S
H611 C598 0.962 . S
H612 C598 0.960 . S
H613 C599 0.961 . S
H614 C599 0.961 . S
H615 C599 0.961 . S
H616 C600 0.931 . S
H617 C605 0.930 . S
H618 C606 0.956 . S
H619 C606 0.961 . S
H620 C606 0.961 . S
H621 C607 0.958 . S
H622 C607 0.961 . S
H623 C607 0.960 . S
C624 C625 1.391 . S
C624 C626 1.394 . S
C624 H640 0.931 . S
C625 C624 1.391 . S
C625 C629 1.376 . S
C626 C624 1.394 . S
C626 C627 1.369 . S
C626 C630 1.531 . S
C627 C626 1.369 . S
C627 C628 1.410 . S
C627 C635 1.503 . S
C628 C627 1.410 . S
C628 C629 1.392 . S
C628 C631 1.511 . S
C629 C625 1.376 . S
C629 C628 1.392 . S
C629 H641 0.929 . S
C630 C626 1.531 . S
C630 H642 0.960 . S
C630 H643 0.962 . S
C630 H644 0.960 . S
C631 C628 1.511 . S
C631 H645 0.961 . S
C631 H646 0.961 . S
C631 H647 0.961 . S
C632 C633 1.370 . S
C632 C634 1.363 . S
C632 H648 0.931 . S
C633 C632 1.370 . S
C633 C637 1.408 . S
C634 C632 1.363 . S
C634 C635 1.370 . S
C634 C638 1.524 . S
C635 C627 1.503 . S
C635 C634 1.370 . S
C635 C636 1.403 . S
C636 C635 1.403 . S
C636 C637 1.404 . S
C636 C639 1.539 . S
C637 C633 1.408 . S
C637 C636 1.404 . S
C637 H649 0.930 . S
C638 C634 1.524 . S
C638 H650 0.956 . S
C638 H651 0.961 . S
C638 H652 0.961 . S
C639 C636 1.539 . S
C639 H653 0.958 . S
C639 H654 0.961 . S
C639 H655 0.960 . S
H640 C624 0.931 . S
H641 C629 0.929 . S
H642 C630 0.960 . S
H643 C630 0.962 . S
H644 C630 0.960 . S
H645 C631 0.961 . S
H646 C631 0.961 . S
H647 C631 0.961 . S
H648 C632 0.931 . S
H649 C637 0.930 . S
H650 C638 0.956 . S
H651 C638 0.961 . S
H652 C638 0.961 . S
H653 C639 0.958 . S
H654 C639 0.961 . S
H655 C639 0.960 . S
C656 C657 1.391 . S
C656 C658 1.394 . S
C656 H672 0.931 . S
C657 C656 1.391 . S
C657 C661 1.376 . S
C658 C656 1.394 . S
C658 C659 1.369 . S
C658 C662 1.531 . S
C659 C658 1.369 . S
C659 C660 1.410 . S
C659 C667 1.503 . S
C660 C659 1.410 . S
C660 C661 1.392 . S
C660 C663 1.511 . S
C661 C657 1.376 . S
C661 C660 1.392 . S
C661 H673 0.929 . S
C662 C658 1.531 . S
C662 H674 0.960 . S
C662 H675 0.962 . S
C662 H676 0.960 . S
C663 C660 1.511 . S
C663 H677 0.961 . S
C663 H678 0.961 . S
C663 H679 0.961 . S
C664 C665 1.370 . S
C664 C666 1.363 . S
C664 H680 0.931 . S
C665 C664 1.370 . S
C665 C669 1.408 . S
C666 C664 1.363 . S
C666 C667 1.370 . S
C666 C670 1.524 . S
C667 C659 1.503 . S
C667 C666 1.370 . S
C667 C668 1.403 . S
C668 C667 1.403 . S
C668 C669 1.404 . S
C668 C671 1.539 . S
C669 C665 1.408 . S
C669 C668 1.404 . S
C669 H681 0.930 . S
C670 C666 1.524 . S
C670 H682 0.956 . S
C670 H683 0.961 . S
C670 H684 0.961 . S
C671 C668 1.539 . S
C671 H685 0.958 . S
C671 H686 0.961 . S
C671 H687 0.960 . S
H672 C656 0.931 . S
H673 C661 0.929 . S
H674 C662 0.960 . S
H675 C662 0.962 . S
H676 C662 0.960 . S
H677 C663 0.961 . S
H678 C663 0.961 . S
H679 C663 0.961 . S
H680 C664 0.931 . S
H681 C669 0.930 . S
H682 C670 0.956 . S
H683 C670 0.961 . S
H684 C670 0.961 . S
H685 C671 0.958 . S
H686 C671 0.961 . S
H687 C671 0.960 . S
C688 C689 1.391 . S
C688 C690 1.394 . S
C688 H704 0.931 . S
C689 C688 1.391 . S
C689 C693 1.376 1_545 S
C690 C688 1.394 . S
C690 C691 1.369 . S
C690 C694 1.531 . S
C691 C690 1.369 . S
C691 C692 1.410 1_545 S
C691 C699 1.503 . S
C692 C691 1.410 1_565 S
C692 C693 1.392 . S
C692 C695 1.511 . S
C693 C689 1.376 1_565 S
C693 C692 1.392 . S
C693 H705 0.929 . S
C694 C690 1.531 . S
C694 H706 0.960 . S
C694 H707 0.962 . S
C694 H708 0.960 . S
C695 C692 1.511 . S
C695 H709 0.961 . S
C695 H710 0.961 . S
C695 H711 0.961 . S
C696 C697 1.370 . S
C696 C698 1.363 . S
C696 H712 0.931 . S
C697 C696 1.370 . S
C697 C701 1.408 1_545 S
C698 C696 1.363 . S
C698 C699 1.370 . S
C698 C702 1.524 . S
C699 C691 1.503 . S
C699 C698 1.370 . S
C699 C700 1.403 1_545 S
C700 C699 1.403 1_565 S
C700 C701 1.404 . S
C700 C703 1.539 . S
C701 C697 1.408 1_565 S
C701 C700 1.404 . S
C701 H713 0.930 . S
C702 C698 1.524 . S
C702 H714 0.956 . S
C702 H715 0.961 . S
C702 H716 0.961 . S
C703 C700 1.539 . S
C703 H717 0.958 . S
C703 H718 0.961 . S
C703 H719 0.960 . S
H704 C688 0.931 . S
H705 C693 0.929 . S
H706 C694 0.960 . S
H707 C694 0.962 . S
H708 C694 0.960 . S
H709 C695 0.961 . S
H710 C695 0.961 . S
H711 C695 0.961 . S
H712 C696 0.931 . S
H713 C701 0.930 . S
H714 C702 0.956 . S
H715 C702 0.961 . S
H716 C702 0.961 . S
H717 C703 0.958 . S
H718 C703 0.961 . S
H719 C703 0.960 . S
C720 C721 1.391 . S
C720 C722 1.394 . S
C720 H736 0.931 . S
C721 C720 1.391 . S
C721 C725 1.376 . S
C722 C720 1.394 . S
C722 C723 1.369 . S
C722 C726 1.531 . S
C723 C722 1.369 . S
C723 C724 1.410 . S
C723 C731 1.503 . S
C724 C723 1.410 . S
C724 C725 1.392 . S
C724 C727 1.511 . S
C725 C721 1.376 . S
C725 C724 1.392 . S
C725 H737 0.929 . S
C726 C722 1.531 . S
C726 H738 0.960 . S
C726 H739 0.962 . S
C726 H740 0.960 . S
C727 C724 1.511 . S
C727 H741 0.961 . S
C727 H742 0.961 . S
C727 H743 0.961 . S
C728 C729 1.370 . S
C728 C730 1.363 . S
C728 H744 0.931 . S
C729 C728 1.370 . S
C729 C733 1.408 . S
C730 C728 1.363 . S
C730 C731 1.370 . S
C730 C734 1.524 . S
C731 C723 1.503 . S
C731 C730 1.370 . S
C731 C732 1.403 . S
C732 C731 1.403 . S
C732 C733 1.404 . S
C732 C735 1.539 . S
C733 C729 1.408 . S
C733 C732 1.404 . S
C733 H745 0.930 . S
C734 C730 1.524 . S
C734 H746 0.956 . S
C734 H747 0.961 . S
C734 H748 0.961 . S
C735 C732 1.539 . S
C735 H749 0.958 . S
C735 H750 0.961 . S
C735 H751 0.960 . S
H736 C720 0.931 . S
H737 C725 0.929 . S
H738 C726 0.960 . S
H739 C726 0.962 . S
H740 C726 0.960 . S
H741 C727 0.961 . S
H742 C727 0.961 . S
H743 C727 0.961 . S
H744 C728 0.931 . S
H745 C733 0.930 . S
H746 C734 0.956 . S
H747 C734 0.961 . S
H748 C734 0.961 . S
H749 C735 0.958 . S
H750 C735 0.961 . S
H751 C735 0.960 . S
C752 C753 1.391 . S
C752 C754 1.394 . S
C752 H768 0.931 . S
C753 C752 1.391 . S
C753 C757 1.376 . S
C754 C752 1.394 . S
C754 C755 1.369 . S
C754 C758 1.531 . S
C755 C754 1.369 . S
C755 C756 1.410 . S
C755 C763 1.503 . S
C756 C755 1.410 . S
C756 C757 1.392 . S
C756 C759 1.511 . S
C757 C753 1.376 . S
C757 C756 1.392 . S
C757 H769 0.929 . S
C758 C754 1.531 . S
C758 H770 0.960 . S
C758 H771 0.962 . S
C758 H772 0.960 . S
C759 C756 1.511 . S
C759 H773 0.961 . S
C759 H774 0.961 . S
C759 H775 0.961 . S
C760 C761 1.370 . S
C760 C762 1.363 . S
C760 H776 0.931 . S
C761 C760 1.370 . S
C761 C765 1.408 . S
C762 C760 1.363 . S
C762 C763 1.370 . S
C762 C766 1.524 . S
C763 C755 1.503 . S
C763 C762 1.370 . S
C763 C764 1.403 . S
C764 C763 1.403 . S
C764 C765 1.404 . S
C764 C767 1.539 . S
C765 C761 1.408 . S
C765 C764 1.404 . S
C765 H777 0.930 . S
C766 C762 1.524 . S
C766 H778 0.956 . S
C766 H779 0.961 . S
C766 H780 0.961 . S
C767 C764 1.539 . S
C767 H781 0.958 . S
C767 H782 0.961 . S
C767 H783 0.960 . S
H768 C752 0.931 . S
H769 C757 0.929 . S
H770 C758 0.960 . S
H771 C758 0.962 . S
H772 C758 0.960 . S
H773 C759 0.961 . S
H774 C759 0.961 . S
H775 C759 0.961 . S
H776 C760 0.931 . S
H777 C765 0.930 . S
H778 C766 0.956 . S
H779 C766 0.961 . S
H780 C766 0.961 . S
H781 C767 0.958 . S
H782 C767 0.961 . S
H783 C767 0.960 . S
C784 C785 1.391 . S
C784 C786 1.394 . S
C784 H800 0.931 . S
C785 C784 1.391 . S
C785 C789 1.376 . S
C786 C784 1.394 . S
C786 C787 1.369 . S
C786 C790 1.531 . S
C787 C786 1.369 . S
C787 C788 1.410 . S
C787 C795 1.503 . S
C788 C787 1.410 . S
C788 C789 1.392 . S
C788 C791 1.511 . S
C789 C785 1.376 . S
C789 C788 1.392 . S
C789 H801 0.929 . S
C790 C786 1.531 . S
C790 H802 0.960 . S
C790 H803 0.962 . S
C790 H804 0.960 . S
C791 C788 1.511 . S
C791 H805 0.961 . S
C791 H806 0.961 . S
C791 H807 0.961 . S
C792 C793 1.370 . S
C792 C794 1.363 . S
C792 H808 0.931 . S
C793 C792 1.370 . S
C793 C797 1.408 . S
C794 C792 1.363 . S
C794 C795 1.370 . S
C794 C798 1.524 . S
C795 C787 1.503 . S
C795 C794 1.370 . S
C795 C796 1.403 . S
C796 C795 1.403 . S
C796 C797 1.404 . S
C796 C799 1.539 . S
C797 C793 1.408 . S
C797 C796 1.404 . S
C797 H809 0.930 . S
C798 C794 1.524 . S
C798 H810 0.956 . S
C798 H811 0.961 . S
C798 H812 0.961 . S
C799 C796 1.539 . S
C799 H813 0.958 . S
C799 H814 0.961 . S
C799 H815 0.960 . S
H800 C784 0.931 . S
H801 C789 0.929 . S
H802 C790 0.960 . S
H803 C790 0.962 . S
H804 C790 0.960 . S
H805 C791 0.961 . S
H806 C791 0.961 . S
H807 C791 0.961 . S
H808 C792 0.931 . S
H809 C797 0.930 . S
H810 C798 0.956 . S
H811 C798 0.961 . S
H812 C798 0.961 . S
H813 C799 0.958 . S
H814 C799 0.961 . S
H815 C799 0.960 . S
C816 C817 1.391 . S
C816 C818 1.394 . S
C816 H832 0.931 . S
C817 C816 1.391 . S
C817 C821 1.376 1_545 S
C818 C816 1.394 . S
C818 C819 1.369 . S
C818 C822 1.531 . S
C819 C818 1.369 . S
C819 C820 1.410 1_545 S
C819 C827 1.503 . S
C820 C819 1.410 1_565 S
C820 C821 1.392 . S
C820 C823 1.511 . S
C821 C817 1.376 1_565 S
C821 C820 1.392 . S
C821 H833 0.929 . S
C822 C818 1.531 . S
C822 H834 0.960 . S
C822 H835 0.962 . S
C822 H836 0.960 . S
C823 C820 1.511 . S
C823 H837 0.961 . S
C823 H838 0.961 . S
C823 H839 0.987 . S
C824 C825 1.370 1_565 S
C824 C826 1.363 . S
C824 H840 0.931 . S
C825 C824 1.370 1_545 S
C825 C829 1.408 . S
C826 C824 1.363 . S
C826 C827 1.370 1_565 S
C826 C830 1.524 . S
C827 C819 1.503 . S
C827 C826 1.370 1_545 S
C827 C828 1.403 . S
C828 C827 1.403 . S
C828 C829 1.404 . S
C828 C831 1.539 . S
C829 C825 1.408 . S
C829 C828 1.404 . S
C829 H841 0.930 . S
C830 C826 1.524 . S
C830 H842 0.956 . S
C830 H843 0.961 . S
C830 H844 0.961 . S
C831 C828 1.539 . S
C831 H845 0.958 . S
C831 H846 0.961 . S
C831 H847 0.960 . S
H832 C816 0.931 . S
H833 C821 0.929 . S
H834 C822 0.960 . S
H835 C822 0.962 . S
H836 C822 0.960 . S
H837 C823 0.961 . S
H838 C823 0.961 . S
H839 C823 0.987 . S
H840 C824 0.931 . S
H841 C829 0.930 . S
H842 C830 0.956 . S
H843 C830 0.961 . S
H844 C830 0.961 . S
H845 C831 0.958 . S
H846 C831 0.961 . S
H847 C831 0.960 . S
C848 C849 1.391 . S
C848 C850 1.394 . S
C848 H864 0.931 . S
C849 C848 1.391 . S
C849 C853 1.376 . S
C850 C848 1.394 . S
C850 C851 1.369 . S
C850 C854 1.531 . S
C851 C850 1.369 . S
C851 C852 1.410 . S
C851 C859 1.503 . S
C852 C851 1.410 . S
C852 C853 1.392 . S
C852 C855 1.511 . S
C853 C849 1.376 . S
C853 C852 1.392 . S
C853 H865 0.929 . S
C854 C850 1.531 . S
C854 H866 0.960 . S
C854 H867 0.962 . S
C854 H868 0.960 . S
C855 C852 1.511 . S
C855 H869 0.961 . S
C855 H870 0.961 . S
C855 H871 0.961 . S
C856 C857 1.370 . S
C856 C858 1.363 . S
C856 H872 0.931 . S
C857 C856 1.370 . S
C857 C861 1.408 . S
C858 C856 1.363 . S
C858 C859 1.370 . S
C858 C862 1.524 . S
C859 C851 1.503 . S
C859 C858 1.370 . S
C859 C860 1.403 . S
C860 C859 1.403 . S
C860 C861 1.404 . S
C860 C863 1.539 . S
C861 C857 1.408 . S
C861 C860 1.404 . S
C861 H873 0.930 . S
C862 C858 1.524 . S
C862 H874 0.956 . S
C862 H875 0.961 . S
C862 H876 0.961 . S
C863 C860 1.539 . S
C863 H877 0.958 . S
C863 H878 0.961 . S
C863 H879 0.960 . S
H864 C848 0.931 . S
H865 C853 0.929 . S
H866 C854 0.960 . S
H867 C854 0.962 . S
H868 C854 0.960 . S
H869 C855 0.961 . S
H870 C855 0.961 . S
H871 C855 0.961 . S
H872 C856 0.931 . S
H873 C861 0.930 . S
H874 C862 0.956 . S
H875 C862 0.961 . S
H876 C862 0.961 . S
H877 C863 0.958 . S
H878 C863 0.961 . S
H879 C863 0.960 . S
C880 C881 1.391 . S
C880 C882 1.394 . S
C880 H896 0.931 . S
C881 C880 1.391 . S
C881 C885 1.376 . S
C882 C880 1.394 . S
C882 C883 1.369 . S
C882 C886 1.531 . S
C883 C882 1.369 . S
C883 C884 1.410 . S
C883 C891 1.503 . S
C884 C883 1.410 . S
C884 C885 1.392 . S
C884 C887 1.511 . S
C885 C881 1.376 . S
C885 C884 1.392 . S
C885 H897 0.929 . S
C886 C882 1.531 . S
C886 H898 0.960 . S
C886 H899 0.962 . S
C886 H900 0.960 . S
C887 C884 1.511 . S
C887 H901 0.961 . S
C887 H902 0.961 . S
C887 H903 0.961 . S
C888 C889 1.370 . S
C888 C890 1.363 . S
C888 H904 0.931 . S
C889 C888 1.370 . S
C889 C893 1.408 . S
C890 C888 1.363 . S
C890 C891 1.370 . S
C890 C894 1.524 . S
C891 C883 1.503 . S
C891 C890 1.370 . S
C891 C892 1.403 . S
C892 C891 1.403 . S
C892 C893 1.404 . S
C892 C895 1.539 . S
C893 C889 1.408 . S
C893 C892 1.404 . S
C893 H905 0.930 . S
C894 C890 1.524 . S
C894 H906 0.956 . S
C894 H907 0.961 . S
C894 H908 0.961 . S
C895 C892 1.539 . S
C895 H909 0.958 . S
C895 H910 0.961 . S
C895 H911 0.960 . S
H896 C880 0.931 . S
H897 C885 0.929 . S
H898 C886 0.960 . S
H899 C886 0.962 . S
H900 C886 0.960 . S
H901 C887 0.961 . S
H902 C887 0.961 . S
H903 C887 0.961 . S
H904 C888 0.931 . S
H905 C893 0.930 . S
H906 C894 0.956 . S
H907 C894 0.961 . S
H908 C894 0.961 . S
H909 C895 0.958 . S
H910 C895 0.961 . S
H911 C895 0.960 . S
C912 C913 1.391 . S
C912 C914 1.394 . S
C912 H928 0.931 . S
C913 C912 1.391 . S
C913 C917 1.376 . S
C914 C912 1.394 . S
C914 C915 1.369 . S
C914 C918 1.531 . S
C915 C914 1.369 . S
C915 C916 1.410 . S
C915 C923 1.503 . S
C916 C915 1.410 . S
C916 C917 1.392 . S
C916 C919 1.511 . S
C917 C913 1.376 . S
C917 C916 1.392 . S
C917 H929 0.929 . S
C918 C914 1.531 . S
C918 H930 0.960 . S
C918 H931 0.962 . S
C918 H932 0.960 . S
C919 C916 1.511 . S
C919 H933 0.961 . S
C919 H934 0.961 . S
C919 H935 0.961 . S
C920 C921 1.370 . S
C920 C922 1.363 . S
C920 H936 0.931 . S
C921 C920 1.370 . S
C921 C925 1.408 . S
C922 C920 1.363 . S
C922 C923 1.370 . S
C922 C926 1.524 1_556 S
C923 C915 1.503 . S
C923 C922 1.370 . S
C923 C924 1.403 . S
C924 C923 1.403 . S
C924 C925 1.404 . S
C924 C927 1.539 . S
C925 C921 1.408 . S
C925 C924 1.404 . S
C925 H937 0.930 . S
C926 C922 1.524 1_554 S
C926 H938 0.956 . S
C926 H939 0.961 . S
C926 H940 0.961 . S
C927 C924 1.539 . S
C927 H941 0.958 . S
C927 H942 0.961 . S
C927 H943 0.960 . S
H928 C912 0.931 . S
H929 C917 0.929 . S
H930 C918 0.960 . S
H931 C918 0.962 . S
H932 C918 0.960 . S
H933 C919 0.961 . S
H934 C919 0.961 . S
H935 C919 0.961 . S
H936 C920 0.931 . S
H937 C925 0.930 . S
H938 C926 0.956 . S
H939 C926 0.961 . S
H940 C926 0.961 . S
H941 C927 0.958 . S
H942 C927 0.961 . S
H943 C927 0.960 . S
C944 C945 1.391 . S
C944 C946 1.394 . S
C944 H960 0.931 1_556 S
C945 C944 1.391 . S
C945 C949 1.376 1_545 S
C946 C944 1.394 . S
C946 C947 1.369 . S
C946 C950 1.531 . S
C947 C946 1.369 . S
C947 C948 1.410 1_545 S
C947 C955 1.503 . S
C948 C947 1.410 1_565 S
C948 C949 1.392 . S
C948 C951 1.511 . S
C949 C945 1.376 1_565 S
C949 C948 1.392 . S
C949 H961 0.929 . S
C950 C946 1.531 . S
C950 H962 0.960 . S
C950 H963 0.962 . S
C950 H964 0.960 1_556 S
C951 C948 1.511 . S
C951 H965 0.961 . S
C951 H966 0.961 . S
C951 H967 0.961 . S
C952 C953 1.370 . S
C952 C954 1.363 . S
C952 H968 0.931 . S
C953 C952 1.370 . S
C953 C957 1.408 1_545 S
C954 C952 1.363 . S
C954 C955 1.370 . S
C954 C958 1.524 . S
C955 C947 1.503 . S
C955 C954 1.370 . S
C955 C956 1.403 1_545 S
C956 C955 1.403 1_565 S
C956 C957 1.404 . S
C956 C959 1.539 . S
C957 C953 1.408 1_565 S
C957 C956 1.404 . S
C957 H969 0.930 . S
C958 C954 1.524 . S
C958 H970 0.956 . S
C958 H971 0.961 . S
C958 H972 0.961 . S
C959 C956 1.539 . S
C959 H973 0.958 . S
C959 H974 0.961 . S
C959 H975 0.960 . S
H960 C944 0.931 1_554 S
H961 C949 0.929 . S
H962 C950 0.960 . S
H963 C950 0.962 . S
H964 C950 0.960 1_554 S
H965 C951 0.961 . S
H966 C951 0.961 . S
H967 C951 0.961 . S
H968 C952 0.931 . S
H969 C957 0.930 . S
H970 C958 0.956 . S
H971 C958 0.961 . S
H972 C958 0.961 . S
H973 C959 0.958 . S
H974 C959 0.961 . S
H975 C959 0.960 . S
C976 C977 1.391 . S
C976 C978 1.394 . S
C976 H992 0.939 . S
C977 C976 1.391 . S
C977 C981 1.376 . S
C978 C976 1.394 . S
C978 C979 1.369 . S
C978 C982 1.531 . S
C979 C978 1.369 . S
C979 C980 1.410 . S
C979 C987 1.503 . S
C980 C979 1.410 . S
C980 C981 1.392 . S
C980 C983 1.511 . S
C981 C977 1.376 . S
C981 C980 1.392 . S
C981 H993 0.929 . S
C982 C978 1.531 . S
C982 H994 0.960 . S
C982 H995 0.962 . S
C982 H996 0.960 1_556 S
C983 C980 1.511 . S
C983 H997 0.961 . S
C983 H998 0.961 . S
C983 H999 0.961 . S
C984 C985 1.370 . S
C984 C986 1.363 . S
C984 H1000 0.931 . S
C985 C984 1.370 . S
C985 C989 1.408 . S
C986 C984 1.363 . S
C986 C987 1.370 . S
C986 C990 1.524 . S
C987 C979 1.503 . S
C987 C986 1.370 . S
C987 C988 1.403 . S
C988 C987 1.403 . S
C988 C989 1.404 . S
C988 C991 1.539 . S
C989 C985 1.408 . S
C989 C988 1.404 . S
C989 H1001 0.930 . S
C990 C986 1.524 . S
C990 H1002 0.956 . S
C990 H1003 0.961 . S
C990 H1004 0.961 . S
C991 C988 1.539 . S
C991 H1005 0.958 1_556 S
C991 H1006 0.961 . S
C991 H1007 0.960 . S
H992 C976 0.939 . S
H993 C981 0.929 . S
H994 C982 0.960 . S
H995 C982 0.962 . S
H996 C982 0.960 1_554 S
H997 C983 0.961 . S
H998 C983 0.961 . S
H999 C983 0.961 . S
H1000 C984 0.931 . S
H1001 C989 0.930 . S
H1002 C990 0.956 . S
H1003 C990 0.961 . S
H1004 C990 0.961 . S
H1005 C991 0.958 1_554 S
H1006 C991 0.961 . S
H1007 C991 0.960 . S
C1008 C1009 1.391 . S
C1008 C1010 1.394 . S
C1008 H1024 0.931 . S
C1009 C1008 1.391 . S
C1009 C1013 1.376 . S
C1010 C1008 1.394 . S
C1010 C1011 1.369 . S
C1010 C1014 1.531 . S
C1011 C1010 1.369 . S
C1011 C1012 1.410 . S
C1011 C1019 1.503 . S
C1012 C1011 1.410 . S
C1012 C1013 1.392 . S
C1012 C1015 1.511 . S
C1013 C1009 1.376 . S
C1013 C1012 1.392 . S
C1013 H1025 0.929 1_556 S
C1014 C1010 1.531 . S
C1014 H1026 0.960 . S
C1014 H1027 0.962 . S
C1014 H1028 0.960 . S
C1015 C1012 1.511 . S
C1015 H1029 0.961 1_556 S
C1015 H1030 0.961 . S
C1015 H1031 0.961 . S
C1016 C1017 1.370 . S
C1016 C1018 1.363 . S
C1016 H1032 0.931 . S
C1017 C1016 1.370 . S
C1017 C1021 1.408 . S
C1018 C1016 1.363 . S
C1018 C1019 1.370 . S
C1018 C1022 1.524 . S
C1019 C1011 1.503 . S
C1019 C1018 1.370 . S
C1019 C1020 1.403 . S
C1020 C1019 1.403 . S
C1020 C1021 1.404 . S
C1020 C1023 1.539 . S
C1021 C1017 1.408 . S
C1021 C1020 1.404 . S
C1021 H1033 0.930 . S
C1022 C1018 1.524 . S
C1022 H1034 0.956 . S
C1022 H1035 0.961 . S
C1022 H1036 0.961 . S
C1023 C1020 1.539 . S
C1023 H1037 0.958 . S
C1023 H1038 0.961 . S
C1023 H1039 0.960 . S
H1024 C1008 0.931 . S
H1025 C1013 0.929 1_554 S
H1026 C1014 0.960 . S
H1027 C1014 0.962 . S
H1028 C1014 0.960 . S
H1029 C1015 0.961 1_554 S
H1030 C1015 0.961 . S
H1031 C1015 0.961 . S
H1032 C1016 0.931 . S
H1033 C1021 0.930 . S
H1034 C1022 0.956 . S
H1035 C1022 0.961 . S
H1036 C1022 0.961 . S
H1037 C1023 0.958 . S
H1038 C1023 0.961 . S
H1039 C1023 0.960 . S
C1040 C1041 1.391 . S
C1040 C1042 1.394 . S
C1040 H1056 0.931 . S
C1041 C1040 1.391 . S
C1041 C1045 1.376 . S
C1042 C1040 1.394 . S
C1042 C1043 1.369 . S
C1042 C1046 1.531 . S
C1043 C1042 1.369 . S
C1043 C1044 1.410 . S
C1043 C1051 1.503 . S
C1044 C1043 1.410 . S
C1044 C1045 1.392 . S
C1044 C1047 1.511 . S
C1045 C1041 1.376 . S
C1045 C1044 1.392 . S
C1045 H1057 0.929 . S
C1046 C1042 1.531 . S
C1046 H1058 0.960 . S
C1046 H1059 0.962 . S
C1046 H1060 0.960 . S
C1047 C1044 1.511 . S
C1047 H1061 0.961 . S
C1047 H1062 0.961 . S
C1047 H1063 0.961 . S
C1048 C1049 1.370 . S
C1048 C1050 1.363 . S
C1048 H1064 0.931 . S
C1049 C1048 1.370 . S
C1049 C1053 1.408 . S
C1050 C1048 1.363 . S
C1050 C1051 1.370 . S
C1050 C1054 1.524 . S
C1051 C1043 1.503 . S
C1051 C1050 1.370 . S
C1051 C1052 1.403 . S
C1052 C1051 1.403 . S
C1052 C1053 1.404 . S
C1052 C1055 1.539 . S
C1053 C1049 1.408 . S
C1053 C1052 1.404 . S
C1053 H1065 0.930 . S
C1054 C1050 1.524 . S
C1054 H1066 0.956 . S
C1054 H1067 0.961 . S
C1054 H1068 0.961 . S
C1055 C1052 1.539 . S
C1055 H1069 0.958 . S
C1055 H1070 0.961 . S
C1055 H1071 0.960 . S
H1056 C1040 0.931 . S
H1057 C1045 0.929 . S
H1058 C1046 0.960 . S
H1059 C1046 0.962 . S
H1060 C1046 0.960 . S
H1061 C1047 0.961 . S
H1062 C1047 0.961 . S
H1063 C1047 0.961 . S
H1064 C1048 0.931 . S
H1065 C1053 0.930 . S
H1066 C1054 0.956 . S
H1067 C1054 0.961 . S
H1068 C1054 0.961 . S
H1069 C1055 0.958 . S
H1070 C1055 0.961 . S
H1071 C1055 0.960 . S
C1072 C1073 1.427 . S
C1072 C1074 1.394 . S
C1072 H1088 0.931 . S
C1073 C1072 1.427 . S
C1073 C1077 1.345 1_545 S
C1074 C1072 1.394 . S
C1074 C1075 1.369 . S
C1074 C1078 1.531 . S
C1075 C1074 1.369 . S
C1075 C1076 1.410 1_545 S
C1075 C1083 1.503 . S
C1076 C1075 1.410 1_565 S
C1076 C1077 1.392 . S
C1076 C1079 1.511 . S
C1077 C1073 1.345 1_565 S
C1077 C1076 1.392 . S
C1077 H1089 0.929 . S
C1078 C1074 1.531 . S
C1078 H1090 0.960 . S
C1078 H1091 0.962 . S
C1078 H1092 0.960 . S
C1079 C1076 1.511 . S
C1079 H1093 0.961 . S
C1079 H1094 0.961 . S
C1079 H1095 0.961 . S
C1080 C1081 1.365 1_565 S
C1080 C1082 1.361 . S
C1080 H1096 0.934 . S
C1081 C1080 1.365 1_545 S
C1081 C1085 1.408 . S
C1082 C1080 1.361 . S
C1082 C1083 1.362 1_565 S
C1082 C1086 1.538 . S
C1083 C1075 1.503 . S
C1083 C1082 1.362 1_545 S
C1083 C1084 1.403 . S
C1084 C1083 1.403 . S
C1084 C1085 1.404 . S
C1084 C1087 1.539 . S
C1085 C1081 1.408 . S
C1085 C1084 1.404 . S
C1085 H1097 0.930 . S
C1086 C1082 1.538 . S
C1086 H1098 0.956 1_565 S
C1086 H1099 0.961 . S
C1086 H1100 0.961 . S
C1087 C1084 1.539 . S
C1087 H1101 0.958 . S
C1087 H1102 0.961 . S
C1087 H1103 0.960 . S
H1088 C1072 0.931 . S
H1089 C1077 0.929 . S
H1090 C1078 0.960 . S
H1091 C1078 0.962 . S
H1092 C1078 0.960 . S
H1093 C1079 0.961 . S
H1094 C1079 0.961 . S
H1095 C1079 0.961 . S
H1096 C1080 0.934 . S
H1097 C1085 0.930 . S
H1098 C1086 0.956 1_545 S
H1099 C1086 0.961 . S
H1100 C1086 0.961 . S
H1101 C1087 0.958 . S
H1102 C1087 0.961 . S
H1103 C1087 0.960 . S
C1104 C1105 1.391 . S
C1104 C1106 1.394 . S
C1104 H1120 0.931 . S
C1105 C1104 1.391 . S
C1105 C1109 1.376 . S
C1106 C1104 1.394 . S
C1106 C1107 1.369 . S
C1106 C1110 1.531 . S
C1107 C1106 1.369 . S
C1107 C1108 1.410 . S
C1107 C1115 1.503 . S
C1108 C1107 1.410 . S
C1108 C1109 1.392 . S
C1108 C1111 1.511 . S
C1109 C1105 1.376 . S
C1109 C1108 1.392 . S
C1109 H1121 0.929 . S
C1110 C1106 1.531 . S
C1110 H1122 0.960 . S
C1110 H1123 0.962 . S
C1110 H1124 0.960 . S
C1111 C1108 1.511 . S
C1111 H1125 0.961 . S
C1111 H1126 0.961 . S
C1111 H1127 0.961 . S
C1112 C1113 1.370 . S
C1112 C1114 1.363 . S
C1112 H1128 0.931 . S
C1113 C1112 1.370 . S
C1113 C1117 1.408 . S
C1114 C1112 1.363 . S
C1114 C1115 1.370 . S
C1114 C1118 1.524 . S
C1115 C1107 1.503 . S
C1115 C1114 1.370 . S
C1115 C1116 1.403 . S
C1116 C1115 1.403 . S
C1116 C1117 1.404 . S
C1116 C1119 1.539 . S
C1117 C1113 1.408 . S
C1117 C1116 1.404 . S
C1117 H1129 0.930 . S
C1118 C1114 1.524 . S
C1118 H1130 0.956 . S
C1118 H1131 0.961 . S
C1118 H1132 0.961 . S
C1119 C1116 1.539 . S
C1119 H1133 0.958 . S
C1119 H1134 0.961 . S
C1119 H1135 0.960 . S
H1120 C1104 0.931 . S
H1121 C1109 0.929 . S
H1122 C1110 0.960 . S
H1123 C1110 0.962 . S
H1124 C1110 0.960 . S
H1125 C1111 0.961 . S
H1126 C1111 0.961 . S
H1127 C1111 0.961 . S
H1128 C1112 0.931 . S
H1129 C1117 0.930 . S
H1130 C1118 0.956 . S
H1131 C1118 0.961 . S
H1132 C1118 0.961 . S
H1133 C1119 0.958 . S
H1134 C1119 0.961 . S
H1135 C1119 0.960 . S
C1136 C1137 1.391 . S
C1136 C1138 1.394 . S
C1136 H1152 0.931 . S
C1137 C1136 1.391 . S
C1137 C1141 1.376 . S
C1138 C1136 1.394 . S
C1138 C1139 1.369 . S
C1138 C1142 1.531 . S
C1139 C1138 1.369 . S
C1139 C1140 1.410 . S
C1139 C1147 1.503 . S
C1140 C1139 1.410 . S
C1140 C1141 1.392 . S
C1140 C1143 1.511 . S
C1141 C1137 1.376 . S
C1141 C1140 1.392 . S
C1141 H1153 0.929 . S
C1142 C1138 1.531 . S
C1142 H1154 0.960 . S
C1142 H1155 0.962 . S
C1142 H1156 0.960 . S
C1143 C1140 1.511 . S
C1143 H1157 0.961 . S
C1143 H1158 0.961 . S
C1143 H1159 0.961 . S
C1144 C1145 1.370 . S
C1144 C1146 1.363 . S
C1144 H1160 0.931 . S
C1145 C1144 1.370 . S
C1145 C1149 1.408 . S
C1146 C1144 1.363 . S
C1146 C1147 1.370 . S
C1146 C1150 1.524 . S
C1147 C1139 1.503 . S
C1147 C1146 1.370 . S
C1147 C1148 1.403 . S
C1148 C1147 1.403 . S
C1148 C1149 1.404 . S
C1148 C1151 1.539 . S
C1149 C1145 1.408 . S
C1149 C1148 1.404 . S
C1149 H1161 0.930 . S
C1150 C1146 1.524 . S
C1150 H1162 0.956 . S
C1150 H1163 0.961 . S
C1150 H1164 0.961 . S
C1151 C1148 1.539 . S
C1151 H1165 0.958 . S
C1151 H1166 0.961 . S
C1151 H1167 0.960 . S
H1152 C1136 0.931 . S
H1153 C1141 0.929 . S
H1154 C1142 0.960 . S
H1155 C1142 0.962 . S
H1156 C1142 0.960 . S
H1157 C1143 0.961 . S
H1158 C1143 0.961 . S
H1159 C1143 0.961 . S
H1160 C1144 0.931 . S
H1161 C1149 0.930 . S
H1162 C1150 0.956 . S
H1163 C1150 0.961 . S
H1164 C1150 0.961 . S
H1165 C1151 0.958 . S
H1166 C1151 0.961 . S
H1167 C1151 0.960 . S
C401 C255 1.552 . S
C409 C321 1.573 1_545 S
C441 C356 2.410 . S
C433 C295 2.213 . S
C473 C361 1.449 . S
C465 C175 1.405 . S
C505 C381 2.055 . S
C497 C215 1.896 . S
C537 C329 1.569 . S
C529 C95 1.544 1_556 S
C561 C135 2.224 1_556 S
C569 C346 2.410 . S
C593 C15 1.432 . S
C601 C369 1.446 . S
C625 C55 1.882 . S
C633 C389 2.055 . S
C665 C339 1.643 . S
C657 C221 1.494 . S
C697 C348 0.650 1_545 S
C689 C261 0.744 . S
C729 C379 1.822 . S
C721 C301 1.722 . S
C753 C181 0.959 . S
C761 C399 0.919 . S
C785 C61 1.345 . S
C793 C328 1.641 . S
C825 C359 0.649 . S
C817 C101 0.681 . S
C857 C368 1.811 . S
C849 C141 1.485 . S
C881 C21 0.952 . S
C889 C388 0.929 . S
C913 C202 2.327 1_556 S
C921 C326 2.407 . S
C945 C242 1.883 . S
C953 C349 2.033 . S
C985 C366 2.608 . S
C977 C282 2.443 . S
C1017 C386 2.257 . S
C1009 C162 2.086 1_556 S
C1041 C42 2.146 . S
C1049 C336 2.403 . S
C1081 C341 2.035 . S
C1073 C82 1.850 . S
C1113 C376 2.611 . S
C1105 C122 2.335 . S
C1137 C2 2.162 . S
C1145 C396 2.257 . S
